# Generated by pormake.
# Topology zzz, (3,6)-cn, num edge types: 1
# Building blocks:
#     Node 0, Type 0, BuildingBlock: CUQRIR_clean_linker_1, # of connection points: 3
#     Node 1, Type 0, BuildingBlock: CUQRIR_clean_linker_1, # of connection points: 3
#     Node 2, Type 0, BuildingBlock: CUQRIR_clean_linker_1, # of connection points: 3
#     Node 3, Type 0, BuildingBlock: CUQRIR_clean_linker_1, # of connection points: 3
#     Node 4, Type 0, BuildingBlock: CUQRIR_clean_linker_1, # of connection points: 3
#     Node 5, Type 0, BuildingBlock: CUQRIR_clean_linker_1, # of connection points: 3
#     Node 6, Type 0, BuildingBlock: CUQRIR_clean_linker_1, # of connection points: 3
#     Node 7, Type 0, BuildingBlock: CUQRIR_clean_linker_1, # of connection points: 3
#     Node 8, Type 1, BuildingBlock: FUNLAD_clean_sbu_0, # of connection points: 6
#     Node 9, Type 1, BuildingBlock: FUNLAD_clean_sbu_0, # of connection points: 6
#     Node 10, Type 1, BuildingBlock: FUNLAD_clean_sbu_0, # of connection points: 6
#     Node 11, Type 1, BuildingBlock: FUNLAD_clean_sbu_0, # of connection points: 6
#     Edge 12, Type (0, 1), None
#     Edge 13, Type (0, 1), None
#     Edge 14, Type (0, 1), None
#     Edge 15, Type (0, 1), None
#     Edge 16, Type (0, 1), None
#     Edge 17, Type (0, 1), None
#     Edge 18, Type (0, 1), None
#     Edge 19, Type (0, 1), None
#     Edge 20, Type (0, 1), None
#     Edge 21, Type (0, 1), None
#     Edge 22, Type (0, 1), None
#     Edge 23, Type (0, 1), None
#     Edge 24, Type (0, 1), None
#     Edge 25, Type (0, 1), None
#     Edge 26, Type (0, 1), None
#     Edge 27, Type (0, 1), None
#     Edge 28, Type (0, 1), None
#     Edge 29, Type (0, 1), None
#     Edge 30, Type (0, 1), None
#     Edge 31, Type (0, 1), None
#     Edge 32, Type (0, 1), None
#     Edge 33, Type (0, 1), None
#     Edge 34, Type (0, 1), None
#     Edge 35, Type (0, 1), None
# Relax obj value: 0.155
# Max RMSD: 0.228
# Mean RMSD: 0.116
data_MOF--net-zzz--node1-FUNLAD_clean_sbu_0--node2-CUQRIR_clean_linker_1--edge1-none
_symmetry_space_group_name_H-M    P1
_symmetry_Int_Tables_number       1
_symmetry_cell_setting            triclinic
loop_
_symmetry_equiv_pos_as_xyz
'x, y, z'
_cell_length_a     19.305576
_cell_length_b     25.286091
_cell_length_c     6.8686591
_cell_angle_alpha  79.991561
_cell_angle_beta   76.550082
_cell_angle_gamma 82.882095
loop_
_atom_site_label
_atom_site_type_symbol
_atom_site_fract_x
_atom_site_fract_y
_atom_site_fract_z
_atom_type_partial_charge
C0 C 0.82889 0.54052 0.59333 0.0
N1 N 0.88953 0.55976 0.61403 0.0
N2 N 0.8036 0.57234 0.43555 0.0
C3 C 0.81257 0.48311 0.66953 0.0
C4 C 0.85309 0.60889 0.36968 0.0
N5 N 0.91177 0.59177 0.44354 0.0
C6 C 0.85417 0.65429 0.1942 0.0
H7 H 0.75562 0.47814 0.67834 0.0
H8 H 0.82765 0.46837 0.81575 0.0
H9 H 0.84685 0.45686 0.56518 0.0
H10 H 0.80715 0.68375 0.22728 0.0
H11 H 0.85473 0.63845 0.05285 0.0
H12 H 0.90201 0.67663 0.17134 0.0
C13 C 0.05137 0.78653 0.30526 0.0
N14 N 0.06092 0.83381 0.35746 0.0
N15 N 0.09411 0.78008 0.1222 0.0
C16 C 0.99833 0.7483 0.4258 0.0
C17 C 0.12914 0.82542 0.06773 0.0
N18 N 0.10655 0.85928 0.207 0.0
C19 C 0.20097 0.82839 0.92493 0.0
H20 H 1.02441 0.70657 0.43879 0.0
H21 H 0.95463 0.7492 0.34498 0.0
H22 H 0.9744 0.75995 0.57693 0.0
H23 H 0.20638 0.80453 0.80088 0.0
H24 H 0.24243 0.81074 0.01126 0.0
H25 H 0.21233 0.87075 0.86541 0.0
C26 C 0.77921 0.99842 0.45365 0.0
N27 N 0.70779 1.01166 0.45869 0.0
N28 N 0.8213 1.01093 0.2628 0.0
C29 C 0.80805 0.97477 0.63434 0.0
C30 C 0.77134 0.0345 0.15498 0.0
N31 N 0.70378 0.0326 0.2707 0.0
C32 C 0.7872 0.07104 0.95344 0.0
H33 H 0.84502 1.00291 0.65136 0.0
H34 H 0.83682 0.93539 0.60615 0.0
H35 H 0.76636 0.96837 0.77503 0.0
H36 H 0.84449 0.07314 0.88268 0.0
H37 H 0.7648 0.1126 0.9773 0.0
H38 H 0.75896 0.05949 0.84649 0.0
C39 C 0.55931 0.70631 0.44275 0.0
N40 N 0.5394 0.6553 0.47033 0.0
N41 N 0.52722 0.73925 0.30404 0.0
C42 C 0.6114 0.72326 0.5476 0.0
C43 C 0.48794 0.70592 0.24731 0.0
N44 N 0.4977 0.65436 0.34078 0.0
C45 C 0.44076 0.72353 0.09677 0.0
H46 H 0.58774 0.72031 0.7118 0.0
H47 H 0.62661 0.76469 0.48645 0.0
H48 H 0.6606 0.69516 0.52992 0.0
H49 H 0.46976 0.71362 0.9463 0.0
H50 H 0.42476 0.76744 0.08322 0.0
H51 H 0.39159 0.70183 0.14404 0.0
C52 C 0.25206 0.51965 0.36267 0.0
N53 N 0.1943 0.49758 0.33474 0.0
N54 N 0.27718 0.48946 0.52532 0.0
C55 C 0.26492 0.57757 0.28353 0.0
C56 C 0.23079 0.45027 0.58122 0.0
N57 N 0.17255 0.46515 0.50393 0.0
C58 C 0.23169 0.40178 0.74353 0.0
H59 H 0.25099 0.59071 0.13513 0.0
H60 H 0.32094 0.58475 0.27527 0.0
H61 H 0.22828 0.60339 0.38542 0.0
H62 H 0.22665 0.41412 0.89386 0.0
H63 H 0.281 0.37479 0.70424 0.0
H64 H 0.1864 0.37792 0.75211 0.0
C65 C 0.98853 0.25609 0.67997 0.0
N66 N 0.99604 0.20316 0.65953 0.0
N67 N 1.00714 0.26273 0.85279 0.0
C68 C 0.96787 0.30124 0.52678 0.0
C69 C 1.03082 0.212 0.92671 0.0
N70 N 1.01418 0.17572 0.82388 0.0
C71 C 0.10153 0.20358 -0.01136 0.0
H72 H 1.0035 0.33403 0.50356 0.0
H73 H 0.91247 0.31797 0.58504 0.0
H74 H 0.96991 0.28682 0.38209 0.0
H75 H 0.09931 0.22382 0.11991 0.0
H76 H 0.14205 0.22248 0.86152 0.0
H77 H 0.12182 0.16087 0.01384 0.0
C78 C 0.30542 0.02303 0.54599 0.0
N79 N 0.37481 0.03686 0.50657 0.0
N80 N 0.26561 0.03884 0.72478 0.0
C81 C 0.27859 0.98902 0.42453 0.0
C82 C 0.31442 0.06184 0.78951 0.0
N83 N 0.38054 0.05672 0.66748 0.0
C84 C 0.29664 0.09531 0.95937 0.0
H85 H 0.22734 1.00774 0.3878 0.0
H86 H 0.26846 0.94914 0.51747 0.0
H87 H 0.31719 0.98237 0.28253 0.0
H88 H 0.29825 0.06911 0.10455 0.0
H89 H 0.24281 0.11706 0.96895 0.0
H90 H 0.33523 0.126 0.93605 0.0
C91 C 0.57855 0.35924 0.43875 0.0
N92 N 0.5674 0.41326 0.449 0.0
N93 N 0.56238 0.32962 0.62666 0.0
C94 C 0.61777 0.33514 0.25448 0.0
C95 C 0.54279 0.36731 0.75083 0.0
N96 N 0.55216 0.41737 0.64432 0.0
C97 C 0.49776 0.35624 0.96289 0.0
H98 H 0.58906 0.30206 0.23378 0.0
H99 H 0.67078 0.31675 0.27994 0.0
H100 H 0.62643 0.36532 0.11556 0.0
H101 H 0.50799 0.38245 0.06408 0.0
H102 H 0.50409 0.31381 0.03378 0.0
H103 H 0.44089 0.36422 0.95332 0.0
C104 C 0.09384 0.91359 0.15693 0.0
N105 N 1.03608 0.95091 0.68974 0.0
C106 C 0.09927 0.91925 0.652 0.0
C107 C 0.1017 0.86802 0.60327 0.0
C108 C 1.04293 0.85299 0.54785 0.0
C109 C 0.97723 0.88248 0.60243 0.0
C110 C 0.97488 0.92985 0.68589 0.0
Zn111 Zn 1.0366 1.00624 0.8827 0.0
C112 C 0.89547 1.0043 0.18998 0.0
N113 N 1.04195 0.07659 0.36243 0.0
C114 C 0.0977 0.10345 0.37189 0.0
C115 C 0.97289 0.10106 0.40516 0.0
C116 C 0.95902 0.15345 0.4476 0.0
C117 C 1.01369 0.17884 0.48068 0.0
C118 C 0.08462 0.15463 0.43189 0.0
Zn119 Zn 0.05774 0.02401 0.15372 0.0
O120 O 0.05977 0.92989 0.02177 0.0
C121 C 0.1949 0.0318 0.82514 0.0
O122 O 0.09815 0.94697 0.27102 0.0
H123 H 0.92746 0.08402 0.3866 0.0
H124 H 0.148 0.93145 0.67148 0.0
H125 H 0.15198 0.0864 0.32699 0.0
O126 O 0.15149 1.01547 0.74008 0.0
O127 O 0.17048 0.04115 0.00742 0.0
H128 H 0.92492 0.94781 0.75695 0.0
O129 O 1.03271 0.10004 0.03633 0.0
O130 O 1.01189 0.08785 0.75703 0.0
O131 O 0.94065 1.00311 0.30012 0.0
O132 O 0.92172 1.00356 0.00342 0.0
C133 C 1.01954 0.12033 0.87152 0.0
H134 H 0.15365 0.84699 0.55642 0.0
H135 H 0.92969 0.87027 0.57129 0.0
H136 H 0.90405 0.1701 0.48886 0.0
H137 H 0.12836 0.17301 0.46048 0.0
C138 C 0.43973 0.04675 0.74795 0.0
N139 N 0.54766 0.16246 0.84826 0.0
C140 C 0.52026 0.18588 0.68345 0.0
C141 C 0.5258 0.24057 0.6047 0.0
C142 C 0.56319 0.27166 0.6878 0.0
C143 C 0.59504 0.24612 0.84833 0.0
C144 C 0.58522 0.19194 0.92966 0.0
Zn145 Zn 0.54334 0.07776 0.94201 0.0
C146 C 0.42789 0.03843 0.32925 0.0
N147 N 0.53814 0.90711 0.08969 0.0
C148 C 0.55078 0.87176 0.95412 0.0
C149 C 0.52416 0.88876 0.29283 0.0
C150 C 0.52061 0.83367 0.3664 0.0
C151 C 0.53321 0.79633 0.23067 0.0
C152 C 0.54905 0.81606 0.02182 0.0
Zn153 Zn 0.53999 0.99076 0.00517 0.0
O154 O 0.45629 0.08362 0.82412 0.0
C155 C 0.65322 1.01867 0.62648 0.0
O156 O 0.47063 0.99891 0.78118 0.0
H157 H 0.51515 0.91698 0.39957 0.0
H158 H 0.49421 0.16258 0.60875 0.0
H159 H 0.56225 0.88667 0.7935 0.0
O160 O 0.61697 0.06447 0.64321 0.0
O161 O 0.63722 0.97982 0.76909 0.0
H162 H 0.60864 0.17362 0.05632 0.0
O163 O 0.60871 0.99358 0.22135 0.0
O164 O 0.63197 0.07445 0.06301 0.0
O165 O 0.44305 0.99797 0.23705 0.0
O166 O 0.46601 0.07916 0.25766 0.0
C167 C 0.64463 0.03472 0.19232 0.0
H168 H 0.49985 0.25855 0.48225 0.0
H169 H 0.62551 0.2686 0.91422 0.0
H170 H 0.50747 0.82036 0.52821 0.0
H171 H 0.55952 0.78866 0.91207 0.0
C172 C 0.55756 0.46131 0.72803 0.0
N173 N 0.38017 0.52736 0.96978 0.0
C174 C 0.36838 0.47585 0.96576 0.0
C175 C 0.34567 0.46331 0.80127 0.0
C176 C 0.31629 0.50383 0.66649 0.0
C177 C 0.31795 0.55732 0.6979 0.0
C178 C 0.35258 0.56813 0.84366 0.0
Zn179 Zn 0.4824 0.53652 0.00707 0.0
C180 C 0.55045 0.45304 0.29846 0.0
N181 N 0.69334 0.54456 -0.00341 0.0
C182 C 0.72865 0.5021 0.09644 0.0
C183 C 0.69528 0.59524 0.03617 0.0
C184 C 0.72199 0.60299 0.20056 0.0
C185 C 0.76032 0.56055 0.3029 0.0
C186 C 0.76583 0.50975 0.24081 0.0
Zn187 Zn 0.59314 0.53624 0.94553 0.0
O188 O 0.50847 0.47156 0.87255 0.0
C189 C 0.54367 0.61604 0.63437 0.0
O190 O 0.61411 0.48692 0.68988 0.0
H191 H 0.6645 0.62872 0.96632 0.0
H192 H 0.38989 0.44376 0.06658 0.0
H193 H 0.72606 0.46145 0.07111 0.0
O194 O 0.49285 0.58626 0.70814 0.0
O195 O 0.59444 0.61082 0.72726 0.0
H196 H 0.36111 0.60942 0.84737 0.0
O197 O 0.55774 0.58136 0.20562 0.0
O198 O 0.45109 0.60619 0.15274 0.0
O199 O 0.59768 0.46346 0.14144 0.0
O200 O 0.48867 0.48049 0.30908 0.0
C201 C 0.49967 0.61108 0.24333 0.0
H202 H 0.3534 0.4218 0.77941 0.0
H203 H 0.29515 0.59143 0.61082 0.0
H204 H 0.71263 0.6424 0.24641 0.0
H205 H 0.79724 0.47568 0.30274 0.0
C206 C 0.12085 0.48865 0.6411 0.0
N207 N 0.99607 0.40677 0.10935 0.0
C208 C 0.05736 0.37318 0.08669 0.0
C209 C 0.0629 0.32722 -0.00521 0.0
C210 C 1.00324 0.3117 0.94148 0.0
C211 C 0.93824 0.34365 -0.01238 0.0
C212 C 0.93582 0.39131 0.07068 0.0
Zn213 Zn 1.01911 0.48774 0.03312 0.0
C214 C 0.15192 0.50847 0.1937 0.0
N215 N 0.09041 0.6474 0.82847 0.0
C216 C 0.15406 0.65907 0.85747 0.0
C217 C 1.03234 0.68411 0.85457 0.0
C218 C 1.03383 0.72995 0.94161 0.0
C219 C 0.09564 0.7383 0.00161 0.0
C220 C 0.15752 0.70391 0.94878 0.0
Zn221 Zn 0.06428 0.56792 0.9134 0.0
O222 O 0.08226 0.45935 0.77985 0.0
C223 C 0.93194 0.54792 0.75429 0.0
O224 O 0.12515 0.53757 0.66123 0.0
H225 H 0.98175 0.67442 0.83458 0.0
H226 H 0.10573 0.38594 0.10981 0.0
H227 H 0.2 0.63019 0.83573 0.0
O228 O 0.93126 0.50401 0.8758 0.0
O229 O 0.97802 0.58061 0.75121 0.0
H230 H 0.88726 0.41793 0.08687 0.0
O231 O 1.00124 0.59666 0.16535 0.0
O232 O 0.95748 0.51856 0.28749 0.0
O233 O 0.15196 0.55204 0.07139 0.0
O234 O 0.10617 0.47542 0.19721 0.0
C235 C 0.96234 0.56769 0.30526 0.0
H236 H 0.11523 0.30657 0.9548 0.0
H237 H 0.89032 0.3328 0.9536 0.0
H238 H 0.98572 0.75675 0.97409 0.0
H239 H 0.2066 0.70945 -0.00958 0.0
loop_
_geom_bond_atom_site_label_1
_geom_bond_atom_site_label_2
_geom_bond_distance
_geom_bond_site_symmetry_2
_ccdc_geom_bond_type
C0 N1 1.317 . S
C0 N2 1.348 . S
C0 C3 1.485 . S
N1 C0 1.317 . S
N1 N5 1.370 . S
N2 C0 1.348 . S
N2 C4 1.346 . S
C3 C0 1.485 . S
C3 H7 0.960 . S
C3 H8 0.961 . S
C3 H9 0.960 . S
C4 N2 1.346 . S
C4 N5 1.307 . S
C4 C6 1.486 1_554 S
N5 N1 1.370 . S
N5 C4 1.307 . S
C6 C4 1.486 1_556 S
C6 H10 0.960 . S
C6 H11 0.960 . S
C6 H12 0.959 . S
H7 C3 0.960 . S
H8 C3 0.961 . S
H9 C3 0.960 . S
H10 C6 0.960 . S
H11 C6 0.960 . S
H12 C6 0.959 . S
C13 N14 1.317 . S
C13 N15 1.348 . S
C13 C16 1.485 . S
N14 C13 1.317 . S
N14 N18 1.369 1_554 S
N15 C13 1.348 . S
N15 C17 1.346 1_654 S
C16 C13 1.485 . S
C16 H20 0.960 1_655 S
C16 H21 0.961 . S
C16 H22 0.960 . S
C17 N15 1.346 1_456 S
C17 N18 1.310 1_455 S
C17 C19 1.485 . S
N18 N14 1.369 1_556 S
N18 C17 1.310 1_655 S
C19 C17 1.485 . S
C19 H23 0.960 1_455 S
C19 H24 0.960 . S
C19 H25 0.959 . S
H20 C16 0.960 1_455 S
H21 C16 0.961 . S
H22 C16 0.960 . S
H23 C19 0.960 1_655 S
H24 C19 0.960 . S
H25 C19 0.959 . S
C26 N27 1.317 . S
C26 N28 1.348 . S
C26 C29 1.485 . S
N27 C26 1.317 . S
N27 N31 1.370 . S
N28 C26 1.348 . S
N28 C30 1.346 . S
C29 C26 1.485 . S
C29 H33 0.960 1_565 S
C29 H34 0.961 . S
C29 H35 0.960 . S
C30 N28 1.346 . S
C30 N31 1.307 . S
C30 C32 1.486 1_554 S
N31 N27 1.370 . S
N31 C30 1.307 . S
C32 C30 1.486 1_556 S
C32 H36 0.960 . S
C32 H37 0.960 1_565 S
C32 H38 0.959 . S
H33 C29 0.960 1_545 S
H34 C29 0.961 . S
H35 C29 0.960 . S
H36 C32 0.960 . S
H37 C32 0.960 1_545 S
H38 C32 0.959 . S
C39 N40 1.317 . S
C39 N41 1.348 . S
C39 C42 1.485 . S
N40 C39 1.317 . S
N40 N44 1.370 . S
N41 C39 1.348 . S
N41 C43 1.346 . S
C42 C39 1.485 . S
C42 H46 0.960 . S
C42 H47 0.961 . S
C42 H48 0.960 . S
C43 N41 1.346 . S
C43 N44 1.307 . S
C43 C45 1.486 1_554 S
N44 N40 1.370 . S
N44 C43 1.307 . S
C45 C43 1.486 1_556 S
C45 H49 0.960 . S
C45 H50 0.960 . S
C45 H51 0.959 . S
H46 C42 0.960 . S
H47 C42 0.961 . S
H48 C42 0.960 . S
H49 C45 0.960 . S
H50 C45 0.960 . S
H51 C45 0.959 . S
C52 N53 1.317 . S
C52 N54 1.348 . S
C52 C55 1.485 . S
N53 C52 1.317 . S
N53 N57 1.370 . S
N54 C52 1.348 . S
N54 C56 1.346 . S
C55 C52 1.485 . S
C55 H59 0.960 . S
C55 H60 0.961 . S
C55 H61 0.960 . S
C56 N54 1.346 . S
C56 N57 1.307 . S
C56 C58 1.486 1_556 S
N57 N53 1.370 . S
N57 C56 1.307 . S
C58 C56 1.486 1_554 S
C58 H62 0.960 . S
C58 H63 0.960 . S
C58 H64 0.959 . S
H59 C55 0.960 . S
H60 C55 0.961 . S
H61 C55 0.960 . S
H62 C58 0.960 . S
H63 C58 0.960 . S
H64 C58 0.959 . S
C65 N66 1.317 . S
C65 N67 1.348 . S
C65 C68 1.485 . S
N66 C65 1.317 . S
N66 N70 1.372 1_556 S
N67 C65 1.348 . S
N67 C69 1.345 1_656 S
C68 C65 1.485 . S
C68 H72 0.960 1_655 S
C68 H73 0.961 . S
C68 H74 0.960 . S
C69 N67 1.345 1_454 S
C69 N70 1.303 1_455 S
C69 C71 1.489 . S
N70 N66 1.372 1_554 S
N70 C69 1.303 1_655 S
C71 C69 1.489 . S
C71 H75 0.960 1_455 S
C71 H76 0.960 . S
C71 H77 0.959 . S
H72 C68 0.960 1_455 S
H73 C68 0.961 . S
H74 C68 0.960 . S
H75 C71 0.960 1_655 S
H76 C71 0.960 . S
H77 C71 0.959 . S
C78 N79 1.317 . S
C78 N80 1.348 . S
C78 C81 1.485 . S
N79 C78 1.317 . S
N79 N83 1.370 . S
N80 C78 1.348 . S
N80 C82 1.346 . S
C81 C78 1.485 . S
C81 H85 0.960 . S
C81 H86 0.961 1_545 S
C81 H87 0.960 . S
C82 N80 1.346 . S
C82 N83 1.307 . S
C82 C84 1.486 1_556 S
N83 N79 1.370 . S
N83 C82 1.307 . S
C84 C82 1.486 1_554 S
C84 H88 0.960 1_545 S
C84 H89 0.960 . S
C84 H90 0.959 . S
H85 C81 0.960 . S
H86 C81 0.961 1_565 S
H87 C81 0.960 . S
H88 C84 0.960 1_565 S
H89 C84 0.960 . S
H90 C84 0.959 . S
C91 N92 1.317 . S
C91 N93 1.348 . S
C91 C94 1.485 . S
N92 C91 1.317 . S
N92 N96 1.370 . S
N93 C91 1.348 . S
N93 C95 1.346 . S
C94 C91 1.485 . S
C94 H98 0.960 . S
C94 H99 0.961 . S
C94 H100 0.960 . S
C95 N93 1.346 . S
C95 N96 1.307 . S
C95 C97 1.486 1_556 S
N96 N92 1.370 . S
N96 C95 1.307 . S
C97 C95 1.486 1_554 S
C97 H101 0.960 . S
C97 H102 0.960 . S
C97 H103 0.959 . S
H98 C94 0.960 . S
H99 C94 0.961 . S
H100 C94 0.960 . S
H101 C97 0.960 . S
H102 C97 0.960 . S
H103 C97 0.959 . S
C104 O120 1.252 1_554 S
C104 O122 1.254 . S
N105 C106 1.333 1_655 S
N105 C110 1.307 1_565 S
N105 Zn111 2.020 . S
C106 N105 1.333 1_455 S
C106 C107 1.379 . S
C106 H124 0.952 . S
C107 C106 1.379 . S
C107 C108 1.390 1_455 S
C107 H134 0.949 . S
C108 C107 1.390 1_655 S
C108 C109 1.357 1_565 S
C109 C108 1.357 1_545 S
C109 C110 1.370 . S
C109 H135 0.950 . S
C110 N105 1.307 1_545 S
C110 C109 1.370 . S
C110 H128 0.948 . S
Zn111 N105 2.020 . S
Zn111 O120 2.039 1_655 S
Zn111 O126 2.036 1_655 S
Zn111 O130 2.025 1_565 S
Zn111 O132 2.024 1_565 S
C112 O131 1.246 . S
C112 O132 1.250 1_554 S
N113 C114 1.307 . S
N113 C115 1.333 1_455 S
N113 Zn119 2.020 . S
C114 N113 1.307 . S
C114 C118 1.370 . S
C114 H125 0.948 1_545 S
C115 N113 1.333 1_655 S
C115 C116 1.379 . S
C115 H123 0.952 . S
C116 C115 1.379 . S
C116 C117 1.390 1_655 S
C116 H136 0.949 . S
C117 C116 1.390 1_455 S
C117 C118 1.357 . S
C118 C114 1.370 . S
C118 C117 1.357 . S
C118 H137 0.950 1_545 S
Zn119 N113 2.020 . S
Zn119 O122 2.025 1_545 S
Zn119 O127 2.024 . S
Zn119 O129 2.039 1_455 S
Zn119 O131 2.034 1_455 S
O120 C104 1.252 1_556 S
O120 Zn111 2.039 1_455 S
C121 O126 1.237 1_545 S
C121 O127 1.249 1_556 S
O122 C104 1.254 . S
O122 Zn119 2.025 1_565 S
H123 C115 0.952 . S
H124 C106 0.952 . S
H125 C114 0.948 1_565 S
O126 Zn111 2.036 1_455 S
O126 C121 1.237 1_565 S
O127 Zn119 2.024 . S
O127 C121 1.249 1_554 S
H128 C110 0.948 . S
O129 Zn119 2.039 1_655 S
O129 C133 1.251 1_554 S
O130 Zn111 2.025 1_545 S
O130 C133 1.254 . S
O131 C112 1.246 . S
O131 Zn119 2.034 1_655 S
O132 Zn111 2.024 1_545 S
O132 C112 1.250 1_556 S
C133 O129 1.251 1_556 S
C133 O130 1.254 . S
H134 C107 0.949 . S
H135 C109 0.950 . S
H136 C116 0.949 . S
H137 C118 0.950 1_565 S
C138 O154 1.251 . S
C138 O156 1.254 1_545 S
N139 C140 1.333 . S
N139 C144 1.307 . S
N139 Zn145 2.020 . S
C140 N139 1.333 . S
C140 C141 1.379 . S
C140 H158 0.952 . S
C141 C140 1.379 . S
C141 C142 1.390 . S
C141 H168 0.949 . S
C142 C141 1.390 . S
C142 C143 1.357 . S
C143 C142 1.357 . S
C143 C144 1.370 . S
C143 H169 0.950 1_556 S
C144 N139 1.307 . S
C144 C143 1.370 . S
C144 H162 0.948 1_556 S
Zn145 N139 2.020 . S
Zn145 O154 2.039 . S
Zn145 O160 2.034 . S
Zn145 O164 2.025 1_556 S
Zn145 O166 2.024 1_556 S
C146 O165 1.246 1_545 S
C146 O166 1.249 . S
N147 C148 1.307 . S
N147 C149 1.333 . S
N147 Zn153 2.020 . S
C148 N147 1.307 . S
C148 C152 1.370 . S
C148 H159 0.948 1_554 S
C149 N147 1.333 . S
C149 C150 1.379 . S
C149 H157 0.952 . S
C150 C149 1.379 . S
C150 C151 1.390 . S
C150 H170 0.949 . S
C151 C150 1.390 . S
C151 C152 1.357 . S
C152 C148 1.370 . S
C152 C151 1.357 . S
C152 H171 0.950 1_554 S
Zn153 N147 2.020 . S
Zn153 O156 2.025 1_554 S
Zn153 O161 2.024 1_554 S
Zn153 O163 2.039 . S
Zn153 O165 2.034 . S
O154 C138 1.251 . S
O154 Zn145 2.039 . S
C155 O160 1.246 1_565 S
C155 O161 1.249 . S
O156 C138 1.254 1_565 S
O156 Zn153 2.025 1_556 S
H157 C149 0.952 . S
H158 C140 0.952 . S
H159 C148 0.948 1_556 S
O160 Zn145 2.034 . S
O160 C155 1.246 1_545 S
O161 Zn153 2.024 1_556 S
O161 C155 1.249 . S
H162 C144 0.948 1_554 S
O163 Zn153 2.039 . S
O163 C167 1.251 . S
O164 Zn145 2.025 1_554 S
O164 C167 1.254 1_545 S
O165 C146 1.246 1_565 S
O165 Zn153 2.034 . S
O166 Zn145 2.024 1_554 S
O166 C146 1.249 . S
C167 O163 1.251 . S
C167 O164 1.254 1_565 S
H168 C141 0.949 . S
H169 C143 0.950 1_554 S
H170 C150 0.949 . S
H171 C152 0.950 1_556 S
C172 O188 1.251 . S
C172 O190 1.254 . S
N173 C174 1.333 . S
N173 C178 1.307 1_556 S
N173 Zn179 2.020 . S
C174 N173 1.333 . S
C174 C175 1.379 . S
C174 H192 0.952 . S
C175 C174 1.379 . S
C175 C176 1.390 . S
C175 H202 0.949 . S
C176 C175 1.390 . S
C176 C177 1.357 1_556 S
C177 C176 1.357 1_554 S
C177 C178 1.370 . S
C177 H203 0.950 . S
C178 N173 1.307 1_554 S
C178 C177 1.370 . S
C178 H196 0.948 . S
Zn179 N173 2.020 . S
Zn179 O188 2.040 . S
Zn179 O194 2.035 . S
Zn179 O198 2.024 1_556 S
Zn179 O200 2.023 1_556 S
C180 O199 1.246 . S
C180 O200 1.249 . S
N181 C182 1.307 1_554 S
N181 C183 1.333 . S
N181 Zn187 2.020 1_554 S
C182 N181 1.307 1_556 S
C182 C186 1.370 . S
C182 H193 0.948 . S
C183 N181 1.333 . S
C183 C184 1.379 . S
C183 H191 0.952 . S
C184 C183 1.379 . S
C184 C185 1.390 . S
C184 H204 0.949 . S
C185 C184 1.390 . S
C185 C186 1.357 1_554 S
C186 C182 1.370 . S
C186 C185 1.357 1_556 S
C186 H205 0.950 . S
Zn187 N181 2.020 1_556 S
Zn187 O190 2.025 . S
Zn187 O195 2.024 . S
Zn187 O197 2.039 1_556 S
Zn187 O199 2.034 1_556 S
O188 C172 1.251 . S
O188 Zn179 2.040 . S
C189 O194 1.246 . S
C189 O195 1.249 . S
O190 C172 1.254 . S
O190 Zn187 2.025 . S
H191 C183 0.952 . S
H192 C174 0.952 . S
H193 C182 0.948 . S
O194 Zn179 2.035 . S
O194 C189 1.246 . S
O195 Zn187 2.024 . S
O195 C189 1.249 . S
H196 C178 0.948 . S
O197 Zn187 2.039 1_554 S
O197 C201 1.251 . S
O198 Zn179 2.024 1_554 S
O198 C201 1.254 . S
O199 C180 1.246 . S
O199 Zn187 2.034 1_554 S
O200 Zn179 2.023 1_554 S
O200 C180 1.249 . S
C201 O197 1.251 . S
C201 O198 1.254 . S
H202 C175 0.949 . S
H203 C177 0.950 . S
H204 C184 0.949 . S
H205 C186 0.950 . S
C206 O222 1.251 . S
C206 O224 1.254 . S
N207 C208 1.333 1_654 S
N207 C212 1.307 . S
N207 Zn213 2.020 . S
C208 N207 1.333 1_456 S
C208 C209 1.379 . S
C208 H226 0.952 . S
C209 C208 1.379 . S
C209 C210 1.390 1_456 S
C209 H236 0.949 . S
C210 C209 1.390 1_654 S
C210 C211 1.357 . S
C211 C210 1.357 . S
C211 C212 1.370 . S
C211 H237 0.950 . S
C212 N207 1.307 . S
C212 C211 1.370 . S
C212 H230 0.948 . S
Zn213 N207 2.020 . S
Zn213 O222 2.039 1_654 S
Zn213 O228 2.034 1_554 S
Zn213 O232 2.025 . S
Zn213 O234 2.024 1_655 S
C214 O233 1.246 . S
C214 O234 1.249 . S
N215 C216 1.307 . S
N215 C217 1.333 1_456 S
N215 Zn221 2.020 . S
C216 N215 1.307 . S
C216 C220 1.370 . S
C216 H227 0.948 . S
C217 N215 1.333 1_654 S
C217 C218 1.379 . S
C217 H225 0.952 . S
C218 C217 1.379 . S
C218 C219 1.390 1_654 S
C218 H238 0.949 . S
C219 C218 1.390 1_456 S
C219 C220 1.357 . S
C220 C216 1.370 . S
C220 C219 1.357 . S
C220 H239 0.950 . S
Zn221 N215 2.020 . S
Zn221 O224 2.025 . S
Zn221 O229 2.024 1_455 S
Zn221 O231 2.039 1_456 S
Zn221 O233 2.034 1_556 S
O222 C206 1.251 . S
O222 Zn213 2.039 1_456 S
C223 O228 1.246 . S
C223 O229 1.249 . S
O224 C206 1.254 . S
O224 Zn221 2.025 . S
H225 C217 0.952 . S
H226 C208 0.952 . S
H227 C216 0.948 . S
O228 Zn213 2.034 1_556 S
O228 C223 1.246 . S
O229 Zn221 2.024 1_655 S
O229 C223 1.249 . S
H230 C212 0.948 . S
O231 Zn221 2.039 1_654 S
O231 C235 1.251 . S
O232 Zn213 2.025 . S
O232 C235 1.254 . S
O233 C214 1.246 . S
O233 Zn221 2.034 1_554 S
O234 Zn213 2.024 1_455 S
O234 C214 1.249 . S
C235 O231 1.251 . S
C235 O232 1.254 . S
H236 C209 0.949 . S
H237 C211 0.950 . S
H238 C218 0.949 . S
H239 C220 0.950 . S
N80 C121 2.265 . S
C142 N93 1.522 . S
C176 N54 2.082 . S
C210 N67 1.695 1_554 S
C112 N28 2.283 1_545 S
N41 C151 1.515 . S
N2 C185 2.092 . S
N15 C219 1.722 1_654 S
C133 N70 1.457 1_556 S
C138 N83 1.718 . S
C172 N96 1.499 . S
N57 C206 0.634 . S
N18 C104 1.454 1_656 S
C167 N31 1.721 . S
C201 N44 1.504 . S
N5 C235 0.649 . S
N66 C117 2.282 1_655 S
N79 C146 2.074 . S
C180 N92 1.686 . S
C214 N53 1.787 . S
N14 C108 2.261 . S
C155 N27 2.090 . S
C189 N40 1.633 . S
N1 C223 1.806 . S
