# Generated by pormake.
# Topology rtl, (3,6)-cn, num edge types: 1
# Building blocks:
#     Node 0, Type 0, BuildingBlock: ESEHIV_clean_linker_0, # of connection points: 3
#     Node 1, Type 0, BuildingBlock: ESEHIV_clean_linker_0, # of connection points: 3
#     Node 2, Type 0, BuildingBlock: ESEHIV_clean_linker_0, # of connection points: 3
#     Node 3, Type 0, BuildingBlock: ESEHIV_clean_linker_0, # of connection points: 3
#     Node 4, Type 1, BuildingBlock: VOLQOD_clean_sbu_1, # of connection points: 6
#     Node 5, Type 1, BuildingBlock: VOLQOD_clean_sbu_1, # of connection points: 6
#     Edge 6, Type (0, 1), BuildingBlock: OJICUG_clean_linker_0, # of connection points: 2
#     Edge 7, Type (0, 1), BuildingBlock: OJICUG_clean_linker_0, # of connection points: 2
#     Edge 8, Type (0, 1), BuildingBlock: OJICUG_clean_linker_0, # of connection points: 2
#     Edge 9, Type (0, 1), BuildingBlock: OJICUG_clean_linker_0, # of connection points: 2
#     Edge 10, Type (0, 1), BuildingBlock: OJICUG_clean_linker_0, # of connection points: 2
#     Edge 11, Type (0, 1), BuildingBlock: OJICUG_clean_linker_0, # of connection points: 2
#     Edge 12, Type (0, 1), BuildingBlock: OJICUG_clean_linker_0, # of connection points: 2
#     Edge 13, Type (0, 1), BuildingBlock: OJICUG_clean_linker_0, # of connection points: 2
#     Edge 14, Type (0, 1), BuildingBlock: OJICUG_clean_linker_0, # of connection points: 2
#     Edge 15, Type (0, 1), BuildingBlock: OJICUG_clean_linker_0, # of connection points: 2
#     Edge 16, Type (0, 1), BuildingBlock: OJICUG_clean_linker_0, # of connection points: 2
#     Edge 17, Type (0, 1), BuildingBlock: OJICUG_clean_linker_0, # of connection points: 2
# Relax obj value: 0.079
# Max RMSD: 0.156
# Mean RMSD: 0.089
data_MOF--net-rtl--node1-VOLQOD_clean_sbu_1--node2-ESEHIV_clean_linker_0--edge1-OJICUG_clean_linker_0
_symmetry_space_group_name_H-M    P1
_symmetry_Int_Tables_number       1
_symmetry_cell_setting            triclinic
loop_
_symmetry_equiv_pos_as_xyz
'x, y, z'
_cell_length_a     25.48491
_cell_length_b     21.319437
_cell_length_c     16.832507
_cell_angle_alpha  90.281416
_cell_angle_beta   90.444757
_cell_angle_gamma 90.043522
loop_
_atom_site_label
_atom_site_type_symbol
_atom_site_fract_x
_atom_site_fract_y
_atom_site_fract_z
_atom_type_partial_charge
H0 H 0.03499 0.80761 0.02744 0.0
H1 H 0.1575 0.70144 0.13749 0.0
H2 H 0.13963 0.69976 0.88229 0.0
C3 C 0.06626 0.77335 0.02222 0.0
C4 C 0.08434 0.75589 0.94685 0.0
C5 C 0.09221 0.75294 0.09073 0.0
C6 C 0.13546 0.71293 0.08421 0.0
C7 C 0.15276 0.69236 0.00921 0.0
C8 C 0.12586 0.71303 0.94071 0.0
H9 H 0.53681 0.73153 0.52232 0.0
H10 H 0.66025 0.81543 0.38508 0.0
H11 H 0.65798 0.839 0.63782 0.0
C12 C 0.57144 0.76067 0.51852 0.0
C13 C 0.59464 0.78337 0.58897 0.0
C14 C 0.59485 0.77075 0.44413 0.0
C15 C 0.63995 0.80886 0.44072 0.0
C16 C 0.66204 0.83416 0.51041 0.0
C17 C 0.63935 0.82137 0.58405 0.0
H18 H 0.95347 0.22878 0.0198 0.0
H19 H 0.84003 0.34019 0.14409 0.0
H20 H 0.82999 0.32214 0.89067 0.0
C21 C 0.92008 0.26009 0.01867 0.0
C22 C 0.89488 0.27291 0.94583 0.0
C23 C 0.8999 0.28242 0.09079 0.0
C24 C 0.85651 0.32284 0.08901 0.0
C25 C 0.83216 0.33833 0.01678 0.0
C26 C 0.85143 0.31354 0.94538 0.0
H27 H 0.45901 0.3074 0.4816 0.0
H28 H 0.35419 0.20645 0.6334 0.0
H29 H 0.33369 0.20001 0.37888 0.0
C30 C 0.4271 0.27425 0.4889 0.0
C31 C 0.39999 0.25227 0.4218 0.0
C32 C 0.40982 0.2593 0.5654 0.0
C33 C 0.36751 0.21776 0.57422 0.0
C34 C 0.33967 0.19532 0.50727 0.0
C35 C 0.35633 0.21321 0.43111 0.0
O36 O 0.87007 0.01136 0.50445 0.0
Zn37 Zn 0.93377 0.06822 0.51076 0.0
O38 O -0.00114 0.01875 0.51385 0.0
Zn39 Zn 0.0385 0.04002 0.60909 0.0
Zn40 Zn 0.98278 0.92871 0.51445 0.0
Zn41 Zn 0.0418 0.0382 0.42202 0.0
O42 O 0.11012 0.07468 0.58558 0.0
O43 O 0.11358 0.06748 0.45416 0.0
O44 O 0.92648 0.12336 0.60867 0.0
O45 O -0.00023 0.10154 0.67541 0.0
O46 O 0.04739 0.96504 0.6777 0.0
O47 O 0.01017 0.88554 0.61315 0.0
O48 O 0.01151 0.88471 0.41787 0.0
O49 O 0.93263 0.12445 0.41571 0.0
O50 O 0.05234 0.96171 0.35463 0.0
O51 O 0.00827 0.10587 0.35522 0.0
C52 C 0.86539 0.95191 0.50776 0.0
C53 C 0.13484 0.0808 0.52071 0.0
C54 C 0.03452 0.9075 0.67346 0.0
C55 C 0.95648 0.13063 0.66886 0.0
C56 C 0.03863 0.90448 0.35995 0.0
C57 C 0.96483 0.1352 0.35995 0.0
O58 O 0.90523 0.9162 0.51296 0.0
O59 O 0.62338 0.51535 0.0092 0.0
Zn60 Zn 0.55834 0.57004 0.00985 0.0
O61 O 0.49434 0.51849 0.00507 0.0
Zn62 Zn 0.45457 0.54128 0.91058 0.0
Zn63 Zn 0.51233 0.42908 0.00158 0.0
Zn64 Zn 0.45088 0.53367 0.09769 0.0
O65 O 0.38154 0.56913 0.93623 0.0
O66 O 0.37976 0.56694 0.06801 0.0
O67 O 0.56291 0.62913 0.91715 0.0
O68 O 0.48824 0.61189 0.85209 0.0
O69 O 0.45049 0.46839 0.83571 0.0
O70 O 0.48792 0.38861 0.89887 0.0
O71 O 0.48226 0.38087 0.09356 0.0
O72 O 0.55961 0.62262 0.10994 0.0
O73 O 0.43781 0.45474 0.15756 0.0
O74 O 0.48673 0.594 0.17233 0.0
C75 C 0.62914 0.45599 0.01024 0.0
C76 C 0.35761 0.5775 0.00144 0.0
C77 C 0.46466 0.41117 0.83817 0.0
C78 C 0.5313 0.64142 0.86042 0.0
C79 C 0.4527 0.39816 0.15011 0.0
C80 C 0.5288 0.62614 0.16902 0.0
O81 O 0.59002 0.41889 0.0087 0.0
C82 C 0.27402 0.11529 0.45938 0.0
C83 C 0.28952 0.1603 0.5163 0.0
H84 H 0.21266 0.05546 0.4157 0.0
C85 C 0.25467 0.17534 0.57811 0.0
H86 H 0.30013 0.10147 0.41197 0.0
C87 C 0.20512 0.14754 0.58138 0.0
C88 C 0.18888 0.10531 0.52196 0.0
H89 H 0.26451 0.21063 0.6222 0.0
H90 H 0.17864 0.16131 0.62839 0.0
C91 C 0.22401 0.08871 0.46161 0.0
C92 C 0.21856 0.61461 0.06195 0.0
C93 C 0.20304 0.65721 0.00261 0.0
H94 H 0.28002 0.55664 0.10869 0.0
C95 C 0.23803 0.66998 0.94035 0.0
H96 H 0.19241 0.60262 0.10994 0.0
C97 C 0.28751 0.64214 0.93855 0.0
C98 C 0.30369 0.60219 -7e-05 0.0
H99 H 0.2284 0.70358 0.89454 0.0
H100 H 0.31397 0.65411 0.89087 0.0
C101 C 0.26863 0.58804 0.06118 0.0
C102 C 0.75692 0.83517 0.54273 0.0
C103 C 0.71357 0.86522 0.50829 0.0
H104 H 0.83891 0.83897 0.5689 0.0
C105 C 0.71988 0.92426 0.47321 0.0
H106 H 0.75267 0.78948 0.56992 0.0
C107 C 0.7692 0.95335 0.47374 0.0
C108 C 0.81281 0.92291 0.50774 0.0
H109 H 0.68666 0.94801 0.44642 0.0
H110 H 0.77335 0.99908 0.44673 0.0
C111 C 0.80614 0.86345 0.54188 0.0
C112 C 0.73869 0.34292 0.05549 0.0
C113 C 0.78133 0.3711 0.01752 0.0
H114 H 0.65698 0.34774 0.0822 0.0
C115 C 0.7744 0.42863 0.97869 0.0
H116 H 0.74327 0.2983 0.08533 0.0
C117 C 0.72513 0.45773 0.97818 0.0
C118 C 0.68211 0.42857 0.01455 0.0
H119 H 0.80698 0.45085 0.9489 0.0
H120 H 0.72031 0.50194 0.94753 0.0
C121 C 0.68943 0.37106 0.05337 0.0
C122 C 0.11519 0.83271 0.19209 0.0
C123 C 0.08125 0.78493 0.16629 0.0
H124 H 0.12782 0.90854 0.27364 0.0
C125 C 0.03454 0.77374 0.20736 0.0
H126 H 0.15109 0.84239 0.16028 0.0
C127 C 0.02155 0.81088 0.27311 0.0
C128 C 0.05443 0.86069 0.29666 0.0
H129 H 0.00768 0.73745 0.18737 0.0
H130 H 0.98479 0.80251 0.30318 0.0
C131 C 0.10168 0.87069 0.25631 0.0
C132 C 0.61456 0.73833 0.72305 0.0
C133 C 0.57716 0.75853 0.66677 0.0
H134 H 0.62931 0.68593 0.82888 0.0
C135 C 0.52378 0.74669 0.68088 0.0
H136 H 0.65609 0.74581 0.71378 0.0
C137 C 0.50858 0.71101 0.74611 0.0
C138 C 0.54638 0.68727 0.79922 0.0
H139 H 0.4939 0.76269 0.63963 0.0
H140 H 0.46735 0.70022 0.75336 0.0
C141 C 0.59927 0.70344 0.78888 0.0
C142 C 0.9717 0.23883 0.17815 0.0
C143 C 0.91857 0.25465 0.16684 0.0
H144 H 0.02808 0.18829 0.24777 0.0
C145 C 0.88199 0.23599 0.22426 0.0
H146 H 0.00107 0.25337 0.13587 0.0
C147 C 0.89759 0.19958 0.28886 0.0
C148 C 0.95001 0.18021 0.2971 0.0
H149 H 0.84062 0.24625 0.21713 0.0
H150 H 0.86793 0.18408 0.33013 0.0
C151 C 0.9872 0.20159 0.24228 0.0
C152 C 0.43031 0.36209 0.62866 0.0
C153 C 0.42884 0.29643 0.63439 0.0
H154 H 0.44256 0.4494 0.6882 0.0
C155 C 0.44104 0.26811 0.70742 0.0
H156 H 0.42008 0.38535 0.57359 0.0
C157 C 0.45407 0.30511 0.77373 0.0
C158 C 0.45406 0.37094 0.76816 0.0
H159 H 0.43994 0.21755 0.71334 0.0
H160 H 0.46276 0.28232 0.82967 0.0
C161 C 0.4426 0.39887 0.6947 0.0
C162 C 0.55366 0.67524 0.38078 0.0
C163 C 0.57576 0.73551 0.3725 0.0
H164 H 0.52048 0.5947 0.32317 0.0
C165 C 0.58153 0.75981 0.2953 0.0
H166 H 0.55032 0.65312 0.43822 0.0
C167 C 0.56651 0.72432 0.22865 0.0
C168 C 0.54389 0.66482 0.23806 0.0
H169 H 0.5977 0.80614 0.28609 0.0
H170 H 0.57197 0.74362 0.16987 0.0
C171 C 0.53703 0.641 0.31458 0.0
C172 C 0.92767 0.17506 0.87966 0.0
C173 C 0.91004 0.23742 0.87295 0.0
H174 H 0.95686 0.09362 0.82044 0.0
C175 C 0.9057 0.26386 0.79653 0.0
H176 H 0.92932 0.15155 0.93645 0.0
C177 C 0.91943 0.22889 0.729 0.0
C178 C 0.93888 0.16773 0.73728 0.0
H179 H 0.89237 0.31167 0.78887 0.0
H180 H 0.91624 0.25009 0.67082 0.0
C181 C 0.9428 0.14122 0.81295 0.0
C182 C 0.4605 0.27431 0.30897 0.0
C183 C 0.41104 0.28067 0.34416 0.0
H184 H 0.51209 0.3058 0.21712 0.0
C185 C 0.37384 0.32116 0.31033 0.0
H186 H 0.4898 0.24365 0.3349 0.0
C187 C 0.38688 0.3576 0.24488 0.0
C188 C 0.43691 0.35302 0.21116 0.0
H189 H 0.33569 0.32722 0.33731 0.0
H190 H 0.35837 0.39074 0.22202 0.0
C191 C 0.47311 0.30963 0.24191 0.0
C192 C 0.05521 0.76429 0.80372 0.0
C193 C 0.06804 0.79285 0.87674 0.0
H194 H 0.03381 0.77832 0.68138 0.0
C195 C 0.06955 0.85855 0.8819 0.0
H196 H 0.05424 0.71366 0.79825 0.0
C197 C 0.05878 0.89512 0.81572 0.0
C198 C 0.04592 0.86706 0.74248 0.0
H199 H 0.08052 0.8819 0.9369 0.0
H200 H 0.06059 0.94567 0.82225 0.0
C201 C 0.04366 0.80121 0.73711 0.0
loop_
_geom_bond_atom_site_label_1
_geom_bond_atom_site_label_2
_geom_bond_distance
_geom_bond_site_symmetry_2
_ccdc_geom_bond_type
H0 C3 0.931 . S
H1 C6 0.928 . S
H2 C8 0.930 . S
C3 H0 0.931 . S
C3 C4 1.413 1_554 S
C3 C5 1.360 . S
C4 C3 1.413 1_556 S
C4 C8 1.429 . S
C5 C3 1.360 . S
C5 C6 1.372 . S
C6 H1 0.928 . S
C6 C5 1.372 . S
C6 C7 1.404 . S
C7 C6 1.404 . S
C7 C8 1.391 1_554 S
C8 H2 0.930 . S
C8 C4 1.429 . S
C8 C7 1.391 1_556 S
H9 C12 0.931 . S
H10 C15 0.928 . S
H11 C17 0.930 . S
C12 H9 0.931 . S
C12 C13 1.413 . S
C12 C14 1.360 . S
C13 C12 1.413 . S
C13 C17 1.429 . S
C14 C12 1.360 . S
C14 C15 1.372 . S
C15 H10 0.928 . S
C15 C14 1.372 . S
C15 C16 1.404 . S
C16 C15 1.404 . S
C16 C17 1.391 . S
C17 H11 0.930 . S
C17 C13 1.429 . S
C17 C16 1.391 . S
H18 C21 0.931 . S
H19 C24 0.928 . S
H20 C26 0.930 . S
C21 H18 0.931 . S
C21 C22 1.413 1_554 S
C21 C23 1.360 . S
C22 C21 1.413 1_556 S
C22 C26 1.429 . S
C23 C21 1.360 . S
C23 C24 1.372 . S
C24 H19 0.928 . S
C24 C23 1.372 . S
C24 C25 1.404 . S
C25 C24 1.404 . S
C25 C26 1.391 1_554 S
C26 H20 0.930 . S
C26 C22 1.429 . S
C26 C25 1.391 1_556 S
H27 C30 0.931 . S
H28 C33 0.928 . S
H29 C35 0.930 . S
C30 H27 0.931 . S
C30 C31 1.413 . S
C30 C32 1.360 . S
C31 C30 1.413 . S
C31 C35 1.429 . S
C32 C30 1.360 . S
C32 C33 1.372 . S
C33 H28 0.928 . S
C33 C32 1.372 . S
C33 C34 1.404 . S
C34 C33 1.404 . S
C34 C35 1.391 . S
C35 H29 0.930 . S
C35 C31 1.429 . S
C35 C34 1.391 . S
O36 Zn37 1.953 1_565 S
O36 C52 1.225 . S
Zn37 O36 1.953 1_545 S
Zn37 O38 1.949 1_655 S
Zn37 O44 1.919 . S
Zn37 O49 1.924 . S
O38 Zn37 1.949 1_455 S
O38 Zn39 1.923 . S
O38 Zn40 1.950 1_445 S
O38 Zn41 1.945 . S
Zn39 O38 1.923 . S
Zn39 O42 1.933 . S
Zn39 O45 1.941 . S
Zn39 O46 1.965 1_545 S
Zn40 O38 1.950 1_665 S
Zn40 O47 1.938 1_655 S
Zn40 O48 1.906 1_655 S
Zn40 O58 1.953 . S
Zn41 O38 1.945 . S
Zn41 O43 1.932 . S
Zn41 O50 1.977 1_545 S
Zn41 O51 1.910 1_455 S
O42 Zn39 1.933 . S
O42 C53 1.226 . S
O43 Zn41 1.932 . S
O43 C53 1.307 . S
O44 Zn37 1.919 . S
O44 C55 1.253 . S
O45 Zn39 1.941 . S
O45 C55 1.283 1_455 S
O46 Zn39 1.965 1_565 S
O46 C54 1.303 . S
O47 Zn40 1.938 1_455 S
O47 C54 1.247 . S
O48 Zn40 1.906 1_455 S
O48 C56 1.304 . S
O49 Zn37 1.924 . S
O49 C57 1.311 . S
O50 Zn41 1.977 1_565 S
O50 C56 1.272 . S
O51 Zn41 1.910 1_655 S
O51 C57 1.231 . S
C52 O36 1.225 . S
C52 O58 1.298 . S
C53 O42 1.226 . S
C53 O43 1.307 . S
C54 O46 1.303 . S
C54 O47 1.247 . S
C55 O44 1.253 . S
C55 O45 1.283 1_655 S
C56 O48 1.304 . S
C56 O50 1.272 . S
C57 O49 1.311 . S
C57 O51 1.231 . S
O58 Zn40 1.953 . S
O58 C52 1.298 . S
O59 Zn60 1.953 . S
O59 C75 1.225 . S
Zn60 O59 1.953 . S
Zn60 O61 1.949 . S
Zn60 O67 1.919 1_554 S
Zn60 O72 1.924 . S
O61 Zn60 1.949 . S
O61 Zn62 1.923 1_554 S
O61 Zn63 1.950 . S
O61 Zn64 1.945 . S
Zn62 O61 1.923 1_556 S
Zn62 O65 1.933 . S
Zn62 O68 1.941 . S
Zn62 O69 1.965 . S
Zn63 O61 1.950 . S
Zn63 O70 1.938 1_554 S
Zn63 O71 1.906 . S
Zn63 O81 1.953 . S
Zn64 O61 1.945 . S
Zn64 O66 1.932 . S
Zn64 O73 1.977 . S
Zn64 O74 1.910 . S
O65 Zn62 1.933 . S
O65 C76 1.226 1_556 S
O66 Zn64 1.932 . S
O66 C76 1.307 . S
O67 Zn60 1.919 1_556 S
O67 C78 1.253 . S
O68 Zn62 1.941 . S
O68 C78 1.283 . S
O69 Zn62 1.965 . S
O69 C77 1.303 . S
O70 Zn63 1.938 1_556 S
O70 C77 1.247 . S
O71 Zn63 1.906 . S
O71 C79 1.304 . S
O72 Zn60 1.924 . S
O72 C80 1.311 . S
O73 Zn64 1.977 . S
O73 C79 1.272 . S
O74 Zn64 1.910 . S
O74 C80 1.231 . S
C75 O59 1.225 . S
C75 O81 1.298 . S
C76 O65 1.226 1_554 S
C76 O66 1.307 . S
C77 O69 1.303 . S
C77 O70 1.247 . S
C78 O67 1.253 . S
C78 O68 1.283 . S
C79 O71 1.304 . S
C79 O73 1.272 . S
C80 O72 1.311 . S
C80 O74 1.231 . S
O81 Zn63 1.953 . S
O81 C75 1.298 . S
C82 C83 1.387 . S
C82 H86 0.950 . S
C82 C91 1.390 . S
C83 C82 1.387 . S
C83 C85 1.387 . S
H84 C91 0.950 . S
C85 C83 1.387 . S
C85 C87 1.390 . S
C85 H89 0.950 . S
H86 C82 0.950 . S
C87 C85 1.390 . S
C87 C88 1.387 . S
C87 H90 0.950 . S
C88 C87 1.387 . S
C88 C91 1.387 . S
H89 C85 0.950 . S
H90 C87 0.950 . S
C91 C82 1.390 . S
C91 H84 0.950 . S
C91 C88 1.387 . S
C92 C93 1.387 . S
C92 H96 0.950 . S
C92 C101 1.390 . S
C93 C92 1.387 . S
C93 C95 1.387 1_554 S
H94 C101 0.950 . S
C95 C93 1.387 1_556 S
C95 C97 1.390 . S
C95 H99 0.950 . S
H96 C92 0.950 . S
C97 C95 1.390 . S
C97 C98 1.387 1_556 S
C97 H100 0.950 . S
C98 C97 1.387 1_554 S
C98 C101 1.387 . S
H99 C95 0.950 . S
H100 C97 0.950 . S
C101 C92 1.390 . S
C101 H94 0.950 . S
C101 C98 1.387 . S
C102 C103 1.387 . S
C102 H106 0.950 . S
C102 C111 1.390 . S
C103 C102 1.387 . S
C103 C105 1.387 . S
H104 C111 0.950 . S
C105 C103 1.387 . S
C105 C107 1.390 . S
C105 H109 0.950 . S
H106 C102 0.950 . S
C107 C105 1.390 . S
C107 C108 1.387 . S
C107 H110 0.950 . S
C108 C107 1.387 . S
C108 C111 1.387 . S
H109 C105 0.950 . S
H110 C107 0.950 . S
C111 C102 1.390 . S
C111 H104 0.950 . S
C111 C108 1.387 . S
C112 C113 1.387 . S
C112 H116 0.950 . S
C112 C121 1.390 . S
C113 C112 1.387 . S
C113 C115 1.387 1_554 S
H114 C121 0.950 . S
C115 C113 1.387 1_556 S
C115 C117 1.390 . S
C115 H119 0.950 . S
H116 C112 0.950 . S
C117 C115 1.390 . S
C117 C118 1.387 1_556 S
C117 H120 0.950 . S
C118 C117 1.387 1_554 S
C118 C121 1.387 . S
H119 C115 0.950 . S
H120 C117 0.950 . S
C121 C112 1.390 . S
C121 H114 0.950 . S
C121 C118 1.387 . S
C122 C123 1.387 . S
C122 H126 0.950 . S
C122 C131 1.390 . S
C123 C122 1.387 . S
C123 C125 1.387 . S
H124 C131 0.950 . S
C125 C123 1.387 . S
C125 C127 1.390 . S
C125 H129 0.950 . S
H126 C122 0.950 . S
C127 C125 1.390 . S
C127 C128 1.387 . S
C127 H130 0.950 . S
C128 C127 1.387 . S
C128 C131 1.387 . S
H129 C125 0.950 . S
H130 C127 0.950 . S
C131 C122 1.390 . S
C131 H124 0.950 . S
C131 C128 1.387 . S
C132 C133 1.387 . S
C132 H136 0.950 . S
C132 C141 1.390 . S
C133 C132 1.387 . S
C133 C135 1.387 . S
H134 C141 0.950 . S
C135 C133 1.387 . S
C135 C137 1.390 . S
C135 H139 0.950 . S
H136 C132 0.950 . S
C137 C135 1.390 . S
C137 C138 1.387 . S
C137 H140 0.950 . S
C138 C137 1.387 . S
C138 C141 1.387 . S
H139 C135 0.950 . S
H140 C137 0.950 . S
C141 C132 1.390 . S
C141 H134 0.950 . S
C141 C138 1.387 . S
C142 C143 1.387 . S
C142 H146 0.950 . S
C142 C151 1.390 . S
C143 C142 1.387 . S
C143 C145 1.387 . S
H144 C151 0.950 1_455 S
C145 C143 1.387 . S
C145 C147 1.390 . S
C145 H149 0.950 . S
H146 C142 0.950 . S
C147 C145 1.390 . S
C147 C148 1.387 . S
C147 H150 0.950 . S
C148 C147 1.387 . S
C148 C151 1.387 . S
H149 C145 0.950 . S
H150 C147 0.950 . S
C151 C142 1.390 . S
C151 H144 0.950 1_655 S
C151 C148 1.387 . S
C152 C153 1.387 . S
C152 H156 0.950 . S
C152 C161 1.390 . S
C153 C152 1.387 . S
C153 C155 1.387 . S
H154 C161 0.950 . S
C155 C153 1.387 . S
C155 C157 1.390 . S
C155 H159 0.950 . S
H156 C152 0.950 . S
C157 C155 1.390 . S
C157 C158 1.387 . S
C157 H160 0.950 . S
C158 C157 1.387 . S
C158 C161 1.387 . S
H159 C155 0.950 . S
H160 C157 0.950 . S
C161 C152 1.390 . S
C161 H154 0.950 . S
C161 C158 1.387 . S
C162 C163 1.387 . S
C162 H166 0.950 . S
C162 C171 1.390 . S
C163 C162 1.387 . S
C163 C165 1.387 . S
H164 C171 0.950 . S
C165 C163 1.387 . S
C165 C167 1.390 . S
C165 H169 0.950 . S
H166 C162 0.950 . S
C167 C165 1.390 . S
C167 C168 1.387 . S
C167 H170 0.950 . S
C168 C167 1.387 . S
C168 C171 1.387 . S
H169 C165 0.950 . S
H170 C167 0.950 . S
C171 C162 1.390 . S
C171 H164 0.950 . S
C171 C168 1.387 . S
C172 C173 1.387 . S
C172 H176 0.950 . S
C172 C181 1.390 . S
C173 C172 1.387 . S
C173 C175 1.387 . S
H174 C181 0.950 . S
C175 C173 1.387 . S
C175 C177 1.390 . S
C175 H179 0.950 . S
H176 C172 0.950 . S
C177 C175 1.390 . S
C177 C178 1.387 . S
C177 H180 0.950 . S
C178 C177 1.387 . S
C178 C181 1.387 . S
H179 C175 0.950 . S
H180 C177 0.950 . S
C181 C172 1.390 . S
C181 H174 0.950 . S
C181 C178 1.387 . S
C182 C183 1.387 . S
C182 H186 0.950 . S
C182 C191 1.390 . S
C183 C182 1.387 . S
C183 C185 1.387 . S
H184 C191 0.950 . S
C185 C183 1.387 . S
C185 C187 1.390 . S
C185 H189 0.950 . S
H186 C182 0.950 . S
C187 C185 1.390 . S
C187 C188 1.387 . S
C187 H190 0.950 . S
C188 C187 1.387 . S
C188 C191 1.387 . S
H189 C185 0.950 . S
H190 C187 0.950 . S
C191 C182 1.390 . S
C191 H184 0.950 . S
C191 C188 1.387 . S
C192 C193 1.387 . S
C192 H196 0.950 . S
C192 C201 1.390 . S
C193 C192 1.387 . S
C193 C195 1.387 . S
H194 C201 0.950 . S
C195 C193 1.387 . S
C195 C197 1.390 . S
C195 H199 0.950 . S
H196 C192 0.950 . S
C197 C195 1.390 . S
C197 C198 1.387 . S
C197 H200 0.950 . S
C198 C197 1.387 . S
C198 C201 1.387 . S
H199 C195 0.950 . S
H200 C197 0.950 . S
C201 C192 1.390 . S
C201 H194 0.950 . S
C201 C198 1.387 . S
C88 C53 1.537 . S
C83 C34 1.519 . S
C93 C7 1.513 . S
C98 C76 1.537 . S
C103 C16 1.526 . S
C108 C52 1.548 . S
C113 C25 1.524 . S
C118 C75 1.547 . S
C128 C56 1.511 . S
C123 C5 1.550 . S
C138 C78 1.513 . S
C133 C13 1.559 . S
C143 C23 1.560 . S
C148 C57 1.520 . S
C153 C32 1.552 . S
C158 C77 1.508 . S
C168 C80 1.517 . S
C163 C14 1.558 . S
C178 C55 1.510 . S
C173 C22 1.558 . S
C188 C79 1.510 . S
C183 C31 1.555 . S
C193 C4 1.548 . S
C198 C54 1.510 . S
