# Generated by pormake.
# Topology tsx, (6,3)-cn, num edge types: 1
# Building blocks:
#     Node 0, Type 0, BuildingBlock: VOLQOD_clean_sbu_1, # of connection points: 6
#     Node 1, Type 0, BuildingBlock: VOLQOD_clean_sbu_1, # of connection points: 6
#     Node 2, Type 1, BuildingBlock: BETDIP_clean_linker_0, # of connection points: 3
#     Node 3, Type 1, BuildingBlock: BETDIP_clean_linker_0, # of connection points: 3
#     Node 4, Type 1, BuildingBlock: BETDIP_clean_linker_0, # of connection points: 3
#     Node 5, Type 1, BuildingBlock: BETDIP_clean_linker_0, # of connection points: 3
#     Edge 6, Type (0, 1), BuildingBlock: AJUNOK_clean_linker_0, # of connection points: 2
#     Edge 7, Type (0, 1), BuildingBlock: AJUNOK_clean_linker_0, # of connection points: 2
#     Edge 8, Type (0, 1), BuildingBlock: AJUNOK_clean_linker_0, # of connection points: 2
#     Edge 9, Type (0, 1), BuildingBlock: AJUNOK_clean_linker_0, # of connection points: 2
#     Edge 10, Type (0, 1), BuildingBlock: AJUNOK_clean_linker_0, # of connection points: 2
#     Edge 11, Type (0, 1), BuildingBlock: AJUNOK_clean_linker_0, # of connection points: 2
#     Edge 12, Type (0, 1), BuildingBlock: AJUNOK_clean_linker_0, # of connection points: 2
#     Edge 13, Type (0, 1), BuildingBlock: AJUNOK_clean_linker_0, # of connection points: 2
#     Edge 14, Type (0, 1), BuildingBlock: AJUNOK_clean_linker_0, # of connection points: 2
#     Edge 15, Type (0, 1), BuildingBlock: AJUNOK_clean_linker_0, # of connection points: 2
#     Edge 16, Type (0, 1), BuildingBlock: AJUNOK_clean_linker_0, # of connection points: 2
#     Edge 17, Type (0, 1), BuildingBlock: AJUNOK_clean_linker_0, # of connection points: 2
# Relax obj value: 0.058
# Max RMSD: 0.114
# Mean RMSD: 0.103
data_MOF--net-tsx--node1-VOLQOD_clean_sbu_1--node2-BETDIP_clean_linker_0--edge1-AJUNOK_clean_linker_0
_symmetry_space_group_name_H-M    P1
_symmetry_Int_Tables_number       1
_symmetry_cell_setting            triclinic
loop_
_symmetry_equiv_pos_as_xyz
'x, y, z'
_cell_length_a     15.815464
_cell_length_b     16.626364
_cell_length_c     27.999789
_cell_angle_alpha  90.09401
_cell_angle_beta   98.678281
_cell_angle_gamma 89.895496
loop_
_atom_site_label
_atom_site_type_symbol
_atom_site_fract_x
_atom_site_fract_y
_atom_site_fract_z
_atom_type_partial_charge
O0 O 0.09089 0.98661 0.11458 0.0
Zn1 Zn 0.1068 0.98923 0.04469 0.0
O2 O -0.00097 -0.00491 0.00159 0.0
Zn3 Zn 0.98003 0.89325 0.96533 0.0
Zn4 Zn 0.90949 0.01451 0.04055 0.0
Zn5 Zn 0.00159 0.08619 0.95799 0.0
O6 O 0.96376 0.91764 0.89322 0.0
O7 O -0.0013 0.04699 0.89019 0.0
O8 O 0.17702 0.89634 0.02809 0.0
O9 O 0.08825 0.82371 0.97613 0.0
O10 O 0.87599 0.83227 0.98402 0.0
O11 O 0.83202 0.92057 0.03454 0.0
O12 O 0.83647 0.11074 0.01871 0.0
O13 O 0.17622 0.08664 0.0377 0.0
O14 O 0.89767 0.15569 0.95751 0.0
O15 O 0.1051 0.1569 0.97731 0.0
C16 C 0.02808 0.00757 0.13541 0.0
C17 C 0.9784 0.98019 0.8693 0.0
C18 C 0.8237 0.85355 0.01242 0.0
C19 C 0.16219 0.83555 0.0005 0.0
C20 C 0.83955 0.15966 0.98421 0.0
C21 C 0.16947 0.14761 0.01012 0.0
O22 O 0.95561 0.02464 0.11115 0.0
O23 O 0.5881 0.47104 0.61542 0.0
Zn24 Zn 0.61131 0.47324 0.5469 0.0
O25 O 0.50681 0.4846 0.50118 0.0
Zn26 Zn 0.48524 0.38584 0.46268 0.0
Zn27 Zn 0.41288 0.50602 0.53697 0.0
Zn28 Zn 0.51972 0.57549 0.45934 0.0
O29 O 0.4675 0.41309 0.39086 0.0
O30 O 0.51096 0.54022 0.39052 0.0
O31 O 0.67786 0.3768 0.53137 0.0
O32 O 0.59119 0.31509 0.47297 0.0
O33 O 0.38203 0.32457 0.48104 0.0
O34 O 0.33239 0.41317 0.5294 0.0
O35 O 0.34694 0.60626 0.51394 0.0
O36 O 0.68837 0.56734 0.54346 0.0
O37 O 0.42482 0.65417 0.461 0.0
O38 O 0.62926 0.6364 0.47955 0.0
C39 C 0.52429 0.49513 0.63443 0.0
C40 C 0.48502 0.47606 0.36817 0.0
C41 C 0.32709 0.34546 0.50786 0.0
C42 C 0.66271 0.31994 0.5008 0.0
C43 C 0.36087 0.65945 0.48345 0.0
C44 C 0.68909 0.62655 0.51487 0.0
O45 O 0.45432 0.51524 0.60844 0.0
H46 H 0.07355 0.9441 0.48116 0.0
H47 H 0.96421 0.07753 0.35571 0.0
H48 H 0.15624 0.89754 0.34478 0.0
H49 H 0.00367 0.17429 0.44443 0.0
C50 C 0.94986 0.1378 0.45137 0.0
C51 C 0.06879 0.9558 0.44296 0.0
C52 C 0.12221 0.91446 0.41571 0.0
C53 C 0.01211 0.01456 0.42152 0.0
C54 C 0.0089 0.03258 0.37233 0.0
C55 C 0.06157 0.99108 0.34445 0.0
C56 C 0.11765 0.93193 0.36642 0.0
N57 N 0.95591 0.05296 0.44915 0.0
H58 H 0.96504 0.92647 0.52261 0.0
H59 H 0.05702 0.05367 0.654 0.0
H60 H 0.89093 0.84992 0.65655 0.0
H61 H 0.03412 0.16032 0.59481 0.0
C62 C 0.07207 0.13314 0.56974 0.0
C63 C 0.9681 0.93377 0.56115 0.0
C64 C 0.92387 0.88001 0.58687 0.0
C65 C 0.01484 -0.00253 0.58485 0.0
C66 C 0.01824 0.00651 0.63513 0.0
C67 C 0.97377 0.95324 0.66134 0.0
C68 C 0.92693 0.89024 0.63682 0.0
N69 N 0.05959 0.05057 0.55779 0.0
H70 H 0.54641 0.43932 0.97965 0.0
H71 H 0.45535 0.57888 0.85286 0.0
H72 H 0.62881 0.38158 0.84457 0.0
H73 H 0.48971 0.67795 0.92997 0.0
C74 C 0.43936 0.64543 0.94416 0.0
C75 C 0.54468 0.45113 0.94156 0.0
C76 C 0.5932 0.40322 0.91466 0.0
C77 C 0.49508 0.51466 0.91948 0.0
C78 C 0.49449 0.53045 0.87013 0.0
C79 C 0.54302 0.48276 0.84292 0.0
C80 C 0.5919 0.41925 0.86547 0.0
N81 N 0.44351 0.56035 0.94674 0.0
H82 H 0.42974 0.45652 0.01777 0.0
H83 H 0.54269 0.56608 0.15157 0.0
H84 H 0.37292 0.36427 0.15208 0.0
H85 H 0.52157 0.67889 0.09737 0.0
C86 C 0.55485 0.65252 0.06986 0.0
C87 C 0.43842 0.45941 0.05673 0.0
C88 C 0.39749 0.40311 0.08227 0.0
C89 C 0.49036 0.51884 0.08134 0.0
C90 C 0.50006 0.52218 0.13218 0.0
C91 C 0.45707 0.46717 0.15815 0.0
C92 C 0.40648 0.4073 0.13273 0.0
N93 N 0.53494 0.57251 0.05458 0.0
C94 C 0.21062 0.29286 0.01143 0.0
C95 C 0.23403 0.21186 0.02023 0.0
C96 C 0.26593 0.35533 0.02952 0.0
C97 C 0.34595 0.33832 0.05673 0.0
H98 H 0.14745 0.30819 0.99298 0.0
H99 H 0.24439 0.41704 0.02432 0.0
S100 S 0.44358 0.13757 0.08233 0.0
N101 N 0.34751 0.11873 0.05234 0.0
N102 N 0.45053 0.23649 0.0866 0.0
C103 C 0.37255 0.25816 0.06274 0.0
C104 C 0.31677 0.19472 0.04432 0.0
C105 C 0.22245 0.70374 0.97669 0.0
C106 C 0.23533 0.78423 0.99173 0.0
C107 C 0.28976 0.6574 0.96347 0.0
C108 C 0.37145 0.69085 0.96348 0.0
H109 H 0.15968 0.67675 0.97445 0.0
H110 H 0.27675 0.59618 0.95128 0.0
S111 S 0.43999 0.8972 0.00121 0.0
N112 N 0.3381 0.89374 0.00787 0.0
N113 N 0.46261 0.80749 0.98115 0.0
C114 C 0.38568 0.77033 0.97932 0.0
C115 C 0.31816 0.81681 0.99396 0.0
C116 C 0.69849 0.82811 0.05482 0.0
C117 C 0.75258 0.8004 0.02251 0.0
C118 C 0.63433 0.77979 0.06857 0.0
C119 C 0.62044 0.70147 0.05067 0.0
H120 H 0.70624 0.88764 0.07062 0.0
H121 H 0.59585 0.80391 0.09418 0.0
S122 S 0.73818 0.60087 0.96202 0.0
N123 N 0.78398 0.69004 0.97064 0.0
N124 N 0.66244 0.59887 -0.00333 0.0
C125 C 0.67148 0.67313 0.01704 0.0
C126 C 0.73764 0.72269 0.00292 0.0
C127 C 0.774 0.29428 0.99269 0.0
C128 C 0.76994 0.21751 0.97153 0.0
C129 C 0.71316 0.35334 0.97598 0.0
C130 C 0.6474 0.33712 0.93743 0.0
H131 H 0.8261 0.30952 0.02098 0.0
H132 H 0.72001 0.41302 0.99165 0.0
S133 S 0.60518 0.14233 0.87377 0.0
N134 N 0.69241 0.12614 0.91309 0.0
N135 N 0.57782 0.23682 0.88166 0.0
C136 C 0.64067 0.25917 0.91782 0.0
C137 C 0.70225 0.19936 0.93486 0.0
C138 C 0.82449 0.67442 0.56413 0.0
C139 C 0.75657 0.68849 0.52634 0.0
C140 C 0.88109 0.73578 0.5817 0.0
C141 C 0.87229 0.81363 0.56217 0.0
H142 H 0.83227 0.61633 0.58173 0.0
H143 H 0.93047 0.7229 0.61198 0.0
S144 S 0.71193 0.88021 0.4594 0.0
N145 N 0.68901 0.78473 0.46696 0.0
N146 N 0.79526 0.90042 0.50064 0.0
C147 C 0.8085 0.82751 0.52237 0.0
C148 C 0.75069 0.76484 0.5043 0.0
C149 C 0.81916 0.29069 0.50834 0.0
C150 C 0.73416 0.26575 0.49308 0.0
C151 C 0.88849 0.24777 0.49539 0.0
C152 C 0.87579 0.1771 0.46793 0.0
H153 H 0.83249 0.34596 0.5286 0.0
H154 H 0.95253 0.27081 0.50631 0.0
S155 S 0.66737 0.08382 0.42021 0.0
N156 N 0.64191 0.16422 0.4497 0.0
N157 N 0.77291 0.08238 0.4266 0.0
C158 C 0.79185 0.14928 0.45404 0.0
C159 C 0.72087 0.19391 0.46634 0.0
C160 C 0.1955 0.31831 0.54452 0.0
C161 C 0.25794 0.28972 0.51762 0.0
C162 C 0.13503 0.26697 0.55974 0.0
C163 C 0.13351 0.18467 0.54867 0.0
H164 H 0.19419 0.38092 0.55514 0.0
H165 H 0.0899 0.29194 0.58132 0.0
S166 S 0.27751 0.07924 0.47584 0.0
N167 N 0.31069 0.17352 0.47792 0.0
N168 N 0.19653 0.07685 0.50677 0.0
C169 C 0.19285 0.15519 0.52009 0.0
C170 C 0.25501 0.20777 0.50446 0.0
C171 C 0.32535 0.79267 0.44491 0.0
C172 C 0.30061 0.72745 0.47168 0.0
C173 C 0.26795 0.85405 0.42851 0.0
C174 C 0.18333 0.85283 0.43807 0.0
H175 H 0.38931 0.79584 0.43561 0.0
H176 H 0.28966 0.9023 0.40739 0.0
S177 S 0.08687 0.69877 0.50889 0.0
N178 N 0.18628 0.66784 0.50924 0.0
N179 N 0.0779 0.78327 0.47763 0.0
C180 C 0.15827 0.79001 0.46642 0.0
C181 C 0.21701 0.72729 0.48339 0.0
C182 C 0.96569 0.00503 0.2123 0.0
C183 C 0.0383 0.00995 0.18886 0.0
C184 C 0.97356 0.00213 0.26276 0.0
C185 C 0.05427 0.00451 0.29168 0.0
H186 H 0.90225 0.00082 0.19154 0.0
H187 H 0.9162 -0.00505 0.27915 0.0
S188 S 0.2635 0.02833 0.24874 0.0
N189 N 0.19317 0.02428 0.19882 0.0
N190 N 0.20756 0.02003 0.29373 0.0
C191 C 0.12709 0.01331 0.26892 0.0
C192 C 0.11922 0.01571 0.21752 0.0
C193 C 0.98856 0.90046 0.79446 0.0
C194 C 0.975 0.97478 0.81616 0.0
C195 C 0.98923 0.8944 0.74458 0.0
C196 C 0.97567 0.96227 0.71433 0.0
H197 H 0.00025 0.84665 0.81624 0.0
H198 H 0.00112 0.83605 0.72962 0.0
S199 S 0.93036 0.16968 0.75253 0.0
N200 N 0.94408 0.11728 0.80315 0.0
N201 N 0.94357 0.10527 0.70932 0.0
C202 C 0.96071 0.03672 0.7354 0.0
C203 C 0.96067 0.04309 0.78627 0.0
C204 C 0.45618 0.49958 0.70956 0.0
C205 C 0.5309 0.49849 0.68778 0.0
C206 C 0.46058 0.4979 0.75992 0.0
C207 C 0.53981 0.49543 0.79032 0.0
H208 H 0.39364 0.49923 0.68758 0.0
H209 H 0.40154 0.49543 0.77509 0.0
S210 S 0.75418 0.50275 0.75211 0.0
N211 N 0.68665 0.50216 0.70102 0.0
N212 N 0.69446 0.49996 0.7956 0.0
C213 C 0.61492 0.49827 0.76923 0.0
C214 C 0.61059 0.49953 0.71801 0.0
C215 C 0.48341 0.4022 0.28993 0.0
C216 C 0.47633 0.475 0.31468 0.0
C217 C 0.4782 0.40038 0.23949 0.0
C218 C 0.46489 0.47118 0.21174 0.0
H219 H 0.49448 0.34628 0.30971 0.0
H220 H 0.48538 0.34304 0.22211 0.0
S221 S 0.43478 0.67644 0.25866 0.0
N222 N 0.4515 0.61934 0.30736 0.0
N223 N 0.43967 0.61539 0.21261 0.0
C224 C 0.45621 0.54417 0.23596 0.0
C225 C 0.4623 0.54618 0.28734 0.0
loop_
_geom_bond_atom_site_label_1
_geom_bond_atom_site_label_2
_geom_bond_distance
_geom_bond_site_symmetry_2
_ccdc_geom_bond_type
O0 Zn1 1.953 . S
O0 C16 1.225 1_565 S
Zn1 O0 1.953 . S
Zn1 O2 1.949 1_565 S
Zn1 O8 1.919 . S
Zn1 O13 1.924 1_565 S
O2 Zn1 1.949 1_545 S
O2 Zn3 1.923 1_444 S
O2 Zn4 1.950 1_455 S
O2 Zn5 1.945 1_554 S
Zn3 O2 1.923 1_666 S
Zn3 O6 1.933 . S
Zn3 O9 1.941 1_655 S
Zn3 O10 1.965 . S
Zn4 O2 1.950 1_655 S
Zn4 O11 1.938 1_545 S
Zn4 O12 1.906 . S
Zn4 O22 1.953 . S
Zn5 O2 1.945 1_556 S
Zn5 O7 1.932 . S
Zn5 O14 1.977 1_455 S
Zn5 O15 1.910 . S
O6 Zn3 1.933 . S
O6 C17 1.226 1_565 S
O7 Zn5 1.932 . S
O7 C17 1.307 1_455 S
O8 Zn1 1.919 . S
O8 C19 1.254 . S
O9 Zn3 1.941 1_455 S
O9 C19 1.283 1_556 S
O10 Zn3 1.965 . S
O10 C18 1.303 1_556 S
O11 Zn4 1.938 1_565 S
O11 C18 1.247 . S
O12 Zn4 1.906 . S
O12 C20 1.304 1_554 S
O13 Zn1 1.924 1_545 S
O13 C21 1.311 . S
O14 Zn5 1.977 1_655 S
O14 C20 1.272 . S
O15 Zn5 1.910 . S
O15 C21 1.231 1_556 S
C16 O0 1.225 1_545 S
C16 O22 1.298 1_455 S
C17 O6 1.226 1_545 S
C17 O7 1.307 1_655 S
C18 O10 1.303 1_554 S
C18 O11 1.247 . S
C19 O8 1.254 . S
C19 O9 1.283 1_554 S
C20 O12 1.304 1_556 S
C20 O14 1.272 . S
C21 O13 1.311 . S
C21 O15 1.231 1_554 S
O22 Zn4 1.953 . S
O22 C16 1.298 1_655 S
O23 Zn24 1.953 . S
O23 C39 1.225 . S
Zn24 O23 1.953 . S
Zn24 O25 1.949 . S
Zn24 O31 1.919 . S
Zn24 O36 1.924 . S
O25 Zn24 1.949 . S
O25 Zn26 1.923 . S
O25 Zn27 1.950 . S
O25 Zn28 1.945 . S
Zn26 O25 1.923 . S
Zn26 O29 1.933 . S
Zn26 O32 1.941 . S
Zn26 O33 1.965 . S
Zn27 O25 1.950 . S
Zn27 O34 1.938 . S
Zn27 O35 1.906 . S
Zn27 O45 1.953 . S
Zn28 O25 1.945 . S
Zn28 O30 1.932 . S
Zn28 O37 1.977 . S
Zn28 O38 1.910 . S
O29 Zn26 1.933 . S
O29 C40 1.226 . S
O30 Zn28 1.932 . S
O30 C40 1.307 . S
O31 Zn24 1.919 . S
O31 C42 1.253 . S
O32 Zn26 1.941 . S
O32 C42 1.283 . S
O33 Zn26 1.965 . S
O33 C41 1.303 . S
O34 Zn27 1.938 . S
O34 C41 1.247 . S
O35 Zn27 1.906 . S
O35 C43 1.304 . S
O36 Zn24 1.924 . S
O36 C44 1.311 . S
O37 Zn28 1.977 . S
O37 C43 1.272 . S
O38 Zn28 1.910 . S
O38 C44 1.231 . S
C39 O23 1.225 . S
C39 O45 1.298 . S
C40 O29 1.226 . S
C40 O30 1.307 . S
C41 O33 1.303 . S
C41 O34 1.247 . S
C42 O31 1.253 . S
C42 O32 1.283 . S
C43 O35 1.304 . S
C43 O37 1.272 . S
C44 O36 1.311 . S
C44 O38 1.231 . S
O45 Zn27 1.953 . S
O45 C39 1.298 . S
H46 C51 0.930 . S
H47 C54 0.930 . S
H48 C56 0.930 . S
H49 C50 1.016 . S
C50 H49 1.016 . S
C50 N57 1.286 . S
C51 H46 0.930 . S
C51 C52 1.397 . S
C51 C53 1.361 1_465 S
C52 C51 1.397 . S
C52 C56 1.390 . S
C53 C51 1.361 1_645 S
C53 C54 1.393 . S
C53 N57 1.413 . S
C54 H47 0.930 . S
C54 C53 1.393 . S
C54 C55 1.399 1_645 S
C55 C54 1.399 1_465 S
C55 C56 1.381 . S
C56 H48 0.930 . S
C56 C52 1.390 . S
C56 C55 1.381 . S
N57 C50 1.286 . S
N57 C53 1.413 . S
H58 C63 0.930 . S
H59 C66 0.930 . S
H60 C68 0.930 . S
H61 C62 1.016 . S
C62 H61 1.016 . S
C62 N69 1.286 . S
C63 H58 0.930 . S
C63 C64 1.397 . S
C63 C65 1.361 1_665 S
C64 C63 1.397 . S
C64 C68 1.390 . S
C65 C63 1.361 1_445 S
C65 C66 1.393 . S
C65 N69 1.413 . S
C66 H59 0.930 . S
C66 C65 1.393 . S
C66 C67 1.399 1_445 S
C67 C66 1.399 1_665 S
C67 C68 1.381 . S
C68 H60 0.930 . S
C68 C64 1.390 . S
C68 C67 1.381 . S
N69 C62 1.286 . S
N69 C65 1.413 . S
H70 C75 0.930 . S
H71 C78 0.930 . S
H72 C80 0.930 . S
H73 C74 1.016 . S
C74 H73 1.016 . S
C74 N81 1.286 . S
C75 H70 0.930 . S
C75 C76 1.397 . S
C75 C77 1.361 . S
C76 C75 1.397 . S
C76 C80 1.390 . S
C77 C75 1.361 . S
C77 C78 1.393 . S
C77 N81 1.413 . S
C78 H71 0.930 . S
C78 C77 1.393 . S
C78 C79 1.399 . S
C79 C78 1.399 . S
C79 C80 1.381 . S
C80 H72 0.930 . S
C80 C76 1.390 . S
C80 C79 1.381 . S
N81 C74 1.286 . S
N81 C77 1.413 . S
H82 C87 0.930 . S
H83 C90 0.930 . S
H84 C92 0.930 . S
H85 C86 1.016 . S
C86 H85 1.016 . S
C86 N93 1.286 . S
C87 H82 0.930 . S
C87 C88 1.397 . S
C87 C89 1.361 . S
C88 C87 1.397 . S
C88 C92 1.390 . S
C89 C87 1.361 . S
C89 C90 1.393 . S
C89 N93 1.413 . S
C90 H83 0.930 . S
C90 C89 1.393 . S
C90 C91 1.399 . S
C91 C90 1.399 . S
C91 C92 1.381 . S
C92 H84 0.930 . S
C92 C88 1.390 . S
C92 C91 1.381 . S
N93 C86 1.286 . S
N93 C89 1.413 . S
C94 C95 1.369 . S
C94 C96 1.419 . S
C94 H98 0.930 . S
C95 C94 1.369 . S
C95 C104 1.429 . S
C96 C94 1.419 . S
C96 C97 1.363 . S
C96 H99 0.929 . S
C97 C96 1.363 . S
C97 C103 1.428 . S
H98 C94 0.930 . S
H99 C96 0.929 . S
S100 N101 1.613 . S
S100 N102 1.610 . S
N101 S100 1.613 . S
N101 C104 1.350 1_556 S
N102 S100 1.610 . S
N102 C103 1.351 1_556 S
C103 C97 1.428 . S
C103 N102 1.351 1_554 S
C103 C104 1.434 . S
C104 C95 1.429 . S
C104 N101 1.350 1_554 S
C104 C103 1.434 . S
C105 C106 1.376 . S
C105 C107 1.426 . S
C105 H109 0.916 1_556 S
C106 C105 1.376 . S
C106 C115 1.429 . S
C107 C105 1.426 . S
C107 C108 1.363 . S
C107 H110 0.936 . S
C108 C107 1.363 . S
C108 C114 1.428 . S
H109 C105 0.916 1_554 S
H110 C107 0.936 . S
S111 N112 1.613 . S
S111 N113 1.610 . S
N112 S111 1.613 . S
N112 C115 1.350 . S
N113 S111 1.610 . S
N113 C114 1.351 . S
C114 C108 1.428 . S
C114 N113 1.351 . S
C114 C115 1.434 . S
C115 C106 1.429 . S
C115 N112 1.350 . S
C115 C114 1.434 . S
C116 C117 1.369 . S
C116 C118 1.419 . S
C116 H120 0.930 . S
C117 C116 1.369 . S
C117 C126 1.429 1_554 S
C118 C116 1.419 . S
C118 C119 1.363 . S
C118 H121 0.929 . S
C119 C118 1.363 . S
C119 C125 1.428 . S
H120 C116 0.930 . S
H121 C118 0.929 . S
S122 N123 1.613 . S
S122 N124 1.610 . S
N123 S122 1.613 . S
N123 C126 1.350 . S
N124 S122 1.610 . S
N124 C125 1.351 1_556 S
C125 C119 1.428 . S
C125 N124 1.351 1_554 S
C125 C126 1.434 1_554 S
C126 C117 1.429 1_556 S
C126 N123 1.350 . S
C126 C125 1.434 1_556 S
C127 C128 1.369 . S
C127 C129 1.419 . S
C127 H131 0.930 . S
C128 C127 1.369 . S
C128 C137 1.429 . S
C129 C127 1.419 . S
C129 C130 1.363 . S
C129 H132 0.929 . S
C130 C129 1.363 . S
C130 C136 1.428 . S
H131 C127 0.930 . S
H132 C129 0.929 . S
S133 N134 1.613 . S
S133 N135 1.610 . S
N134 S133 1.613 . S
N134 C137 1.350 . S
N135 S133 1.610 . S
N135 C136 1.351 . S
C136 C130 1.428 . S
C136 N135 1.351 . S
C136 C137 1.434 . S
C137 C128 1.429 . S
C137 N134 1.350 . S
C137 C136 1.434 . S
C138 C139 1.369 . S
C138 C140 1.419 . S
C138 H142 0.930 . S
C139 C138 1.369 . S
C139 C148 1.429 . S
C140 C138 1.419 . S
C140 C141 1.363 . S
C140 H143 0.929 . S
C141 C140 1.363 . S
C141 C147 1.428 . S
H142 C138 0.930 . S
H143 C140 0.929 . S
S144 N145 1.613 . S
S144 N146 1.610 . S
N145 S144 1.613 . S
N145 C148 1.350 . S
N146 S144 1.610 . S
N146 C147 1.351 . S
C147 C141 1.428 . S
C147 N146 1.351 . S
C147 C148 1.434 . S
C148 C139 1.429 . S
C148 N145 1.350 . S
C148 C147 1.434 . S
C149 C150 1.369 . S
C149 C151 1.419 . S
C149 H153 0.930 . S
C150 C149 1.369 . S
C150 C159 1.429 . S
C151 C149 1.419 . S
C151 C152 1.363 . S
C151 H154 0.929 . S
C152 C151 1.363 . S
C152 C158 1.428 . S
H153 C149 0.930 . S
H154 C151 0.929 . S
S155 N156 1.613 . S
S155 N157 1.610 . S
N156 S155 1.613 . S
N156 C159 1.350 . S
N157 S155 1.610 . S
N157 C158 1.351 . S
C158 C152 1.428 . S
C158 N157 1.351 . S
C158 C159 1.434 . S
C159 C150 1.429 . S
C159 N156 1.350 . S
C159 C158 1.434 . S
C160 C161 1.369 . S
C160 C162 1.419 . S
C160 H164 0.930 . S
C161 C160 1.369 . S
C161 C170 1.429 . S
C162 C160 1.419 . S
C162 C163 1.363 . S
C162 H165 0.929 . S
C163 C162 1.363 . S
C163 C169 1.428 . S
H164 C160 0.930 . S
H165 C162 0.929 . S
S166 N167 1.613 . S
S166 N168 1.610 . S
N167 S166 1.613 . S
N167 C170 1.350 . S
N168 S166 1.610 . S
N168 C169 1.351 . S
C169 C163 1.428 . S
C169 N168 1.351 . S
C169 C170 1.434 . S
C170 C161 1.429 . S
C170 N167 1.350 . S
C170 C169 1.434 . S
C171 C172 1.369 . S
C171 C173 1.419 . S
C171 H175 0.930 . S
C172 C171 1.369 . S
C172 C181 1.429 . S
C173 C171 1.419 . S
C173 C174 1.363 . S
C173 H176 0.929 . S
C174 C173 1.363 . S
C174 C180 1.428 . S
H175 C171 0.930 . S
H176 C173 0.929 . S
S177 N178 1.613 . S
S177 N179 1.610 . S
N178 S177 1.613 . S
N178 C181 1.350 . S
N179 S177 1.610 . S
N179 C180 1.351 . S
C180 C174 1.428 . S
C180 N179 1.351 . S
C180 C181 1.434 . S
C181 C172 1.429 . S
C181 N178 1.350 . S
C181 C180 1.434 . S
C182 C183 1.373 1_655 S
C182 C184 1.419 . S
C182 H186 0.930 . S
C183 C182 1.373 1_455 S
C183 C192 1.424 1_545 S
C184 C182 1.419 . S
C184 C185 1.363 1_645 S
C184 H187 0.929 . S
C185 C184 1.363 1_465 S
C185 C191 1.428 . S
H186 C182 0.930 . S
H187 C184 0.929 . S
S188 N189 1.613 . S
S188 N190 1.610 . S
N189 S188 1.613 . S
N189 C192 1.350 . S
N190 S188 1.610 . S
N190 C191 1.351 . S
C191 C185 1.428 . S
C191 N190 1.351 . S
C191 C192 1.434 . S
C192 C183 1.424 1_565 S
C192 N189 1.350 . S
C192 C191 1.434 . S
C193 C194 1.369 1_565 S
C193 C195 1.419 . S
C193 H197 0.930 . S
C194 C193 1.369 1_545 S
C194 C203 1.429 1_655 S
C195 C193 1.419 . S
C195 C196 1.363 . S
C195 H198 0.929 . S
C196 C195 1.363 . S
C196 C202 1.428 1_665 S
H197 C193 0.930 . S
H198 C195 0.929 . S
S199 N200 1.613 . S
S199 N201 1.610 . S
N200 S199 1.613 . S
N200 C203 1.350 . S
N201 S199 1.610 . S
N201 C202 1.351 . S
C202 C196 1.428 1_445 S
C202 N201 1.351 . S
C202 C203 1.434 . S
C203 C194 1.429 1_455 S
C203 N200 1.350 . S
C203 C202 1.434 . S
C204 C205 1.369 . S
C204 C206 1.419 . S
C204 H208 0.930 . S
C205 C204 1.369 . S
C205 C214 1.429 . S
C206 C204 1.419 . S
C206 C207 1.363 . S
C206 H209 0.929 . S
C207 C206 1.363 . S
C207 C213 1.428 . S
H208 C204 0.930 . S
H209 C206 0.929 . S
S210 N211 1.613 . S
S210 N212 1.610 . S
N211 S210 1.613 . S
N211 C214 1.350 . S
N212 S210 1.610 . S
N212 C213 1.351 . S
C213 C207 1.428 . S
C213 N212 1.351 . S
C213 C214 1.434 . S
C214 C205 1.429 . S
C214 N211 1.350 . S
C214 C213 1.434 . S
C215 C216 1.369 . S
C215 C217 1.419 . S
C215 H219 0.930 . S
C216 C215 1.369 . S
C216 C225 1.429 . S
C217 C215 1.419 . S
C217 C218 1.363 . S
C217 H220 0.929 . S
C218 C217 1.363 . S
C218 C224 1.428 . S
H219 C215 0.930 . S
H220 C217 0.929 . S
S221 N222 1.613 . S
S221 N223 1.610 . S
N222 S221 1.613 . S
N222 C225 1.350 . S
N223 S221 1.610 . S
N223 C224 1.351 . S
C224 C218 1.428 . S
C224 N223 1.351 . S
C224 C225 1.434 . S
C225 C216 1.429 . S
C225 N222 1.350 . S
C225 C224 1.434 . S
C97 C88 1.515 . S
C95 C21 1.512 . S
C106 C19 1.444 1_556 S
C108 C74 1.414 . S
C117 C18 1.411 . S
C119 C86 1.404 . S
C128 C20 1.503 . S
C130 C76 1.505 . S
C139 C44 1.514 . S
C141 C64 1.515 . S
C150 C42 1.440 . S
C152 C50 1.419 . S
C163 C62 1.403 . S
C161 C41 1.413 . S
C174 C52 1.506 . S
C172 C43 1.502 . S
C183 C16 1.532 . S
C185 C55 1.529 . S
C194 C17 1.500 . S
C196 C67 1.498 . S
C207 C79 1.529 . S
C205 C39 1.532 . S
C216 C40 1.500 . S
C218 C91 1.498 . S
