# Generated by pormake.
# Topology nom, (4,4)-cn, num edge types: 1
# Building blocks:
#     Node 0, Type 0, BuildingBlock: KUFVIS_clean_linker_0, # of connection points: 4
#     Node 1, Type 0, BuildingBlock: KUFVIS_clean_linker_0, # of connection points: 4
#     Node 2, Type 0, BuildingBlock: KUFVIS_clean_linker_0, # of connection points: 4
#     Node 3, Type 0, BuildingBlock: KUFVIS_clean_linker_0, # of connection points: 4
#     Node 4, Type 0, BuildingBlock: KUFVIS_clean_linker_0, # of connection points: 4
#     Node 5, Type 0, BuildingBlock: KUFVIS_clean_linker_0, # of connection points: 4
#     Node 6, Type 1, BuildingBlock: NAHDIM_clean_sbu_0, # of connection points: 4
#     Node 7, Type 1, BuildingBlock: NAHDIM_clean_sbu_0, # of connection points: 4
#     Node 8, Type 1, BuildingBlock: NAHDIM_clean_sbu_0, # of connection points: 4
#     Node 9, Type 1, BuildingBlock: NAHDIM_clean_sbu_0, # of connection points: 4
#     Node 10, Type 1, BuildingBlock: NAHDIM_clean_sbu_0, # of connection points: 4
#     Node 11, Type 1, BuildingBlock: NAHDIM_clean_sbu_0, # of connection points: 4
#     Edge 12, Type (0, 1), None
#     Edge 13, Type (0, 1), None
#     Edge 14, Type (0, 1), None
#     Edge 15, Type (0, 1), None
#     Edge 16, Type (0, 1), None
#     Edge 17, Type (0, 1), None
#     Edge 18, Type (0, 1), None
#     Edge 19, Type (0, 1), None
#     Edge 20, Type (0, 1), None
#     Edge 21, Type (0, 1), None
#     Edge 22, Type (0, 1), None
#     Edge 23, Type (0, 1), None
#     Edge 24, Type (0, 1), None
#     Edge 25, Type (0, 1), None
#     Edge 26, Type (0, 1), None
#     Edge 27, Type (0, 1), None
#     Edge 28, Type (0, 1), None
#     Edge 29, Type (0, 1), None
#     Edge 30, Type (0, 1), None
#     Edge 31, Type (0, 1), None
#     Edge 32, Type (0, 1), None
#     Edge 33, Type (0, 1), None
#     Edge 34, Type (0, 1), None
#     Edge 35, Type (0, 1), None
# Relax obj value: 0.022
# Max RMSD: 0.126
# Mean RMSD: 0.083
data_MOF--net-nom--node1-NAHDIM_clean_sbu_0--node2-KUFVIS_clean_linker_0--edge1-none
_symmetry_space_group_name_H-M    P1
_symmetry_Int_Tables_number       1
_symmetry_cell_setting            triclinic
loop_
_symmetry_equiv_pos_as_xyz
'x, y, z'
_cell_length_a     21.132952
_cell_length_b     22.030371
_cell_length_c     21.780457
_cell_angle_alpha  89.989655
_cell_angle_beta   91.400592
_cell_angle_gamma 121.42319
loop_
_atom_site_label
_atom_site_type_symbol
_atom_site_fract_x
_atom_site_fract_y
_atom_site_fract_z
_atom_type_partial_charge
H0 H 0.25236 0.65231 0.36616 0.0
H1 H 0.08932 0.59084 0.22076 0.0
H2 H 0.02316 0.51413 0.40502 0.0
H3 H 0.92045 0.5064 0.37633 0.0
H4 H 0.75739 0.40489 0.23094 0.0
H5 H 0.98658 0.49587 0.19207 0.0
C6 C 0.19495 0.62166 0.35009 0.0
C7 C 0.13916 0.58468 0.39268 0.0
C8 C 0.17715 0.62297 0.28773 0.0
C9 C 0.10227 0.58608 0.26814 0.0
C10 C 0.04493 0.54537 0.30938 0.0
C11 C 0.06486 0.54502 0.37182 0.0
C12 C 0.96482 0.50533 0.28771 0.0
C13 C 0.90749 0.4887 0.32895 0.0
C14 C 0.83261 0.45074 0.30937 0.0
C15 C 0.8148 0.43164 0.247 0.0
C16 C 0.87058 0.45044 0.20442 0.0
C17 C 0.94488 0.48506 0.22527 0.0
H18 H 0.57609 0.2338 0.53294 0.0
H19 H 0.49912 0.07791 0.38838 0.0
H20 H 0.51627 0.02071 0.57541 0.0
H21 H 0.4351 0.91098 0.54044 0.0
H22 H 0.43056 0.77875 0.39405 0.0
H23 H 0.52664 1.00037 0.36372 0.0
C24 C 0.55712 0.17997 0.51767 0.0
C25 C 0.54539 0.1285 0.56126 0.0
C26 C 0.54161 0.16203 0.45503 0.0
C27 C 0.51447 0.09162 0.4363 0.0
C28 C 0.50708 0.03966 0.47853 0.0
C29 C 0.52167 0.0589 0.54148 0.0
C30 C 0.48612 0.96672 0.45622 0.0
C31 C 0.45045 0.90644 0.49441 0.0
C32 C 0.43306 0.83911 0.4727 0.0
C33 C 0.44865 0.83141 0.41213 0.0
C34 C 0.47846 0.8889 0.37237 0.0
C35 C 0.50015 0.95651 0.39508 0.0
H36 H 0.62341 0.39364 0.55328 0.0
H37 H 0.52212 0.43174 0.70439 0.0
H38 H 0.51091 0.50496 0.52149 0.0
H39 H 0.41465 0.50302 0.55475 0.0
H40 H 0.38516 0.61715 0.69901 0.0
H41 H 0.51613 0.52439 0.73518 0.0
C42 C 0.59421 0.41792 0.57139 0.0
C43 C 0.56697 0.4486 0.53104 0.0
C44 C 0.57808 0.41166 0.63369 0.0
C45 C 0.53586 0.43888 0.65637 0.0
C46 C 0.51238 0.47525 0.61699 0.0
C47 C 0.52805 0.47869 0.55383 0.0
C48 C 0.47305 0.51059 0.64092 0.0
C49 C 0.42739 0.52377 0.60129 0.0
C50 C 0.39742 0.56395 0.6212 0.0
C51 C 0.41009 0.5882 0.68227 0.0
C52 C 0.45074 0.57198 0.72341 0.0
C53 C 0.48277 0.534 0.70282 0.0
H54 H 0.24779 0.61369 0.73289 0.0
H55 H 0.09395 0.50348 0.87585 0.0
H56 H 0.01564 0.51528 0.69309 0.0
H57 H 0.91581 0.41438 0.7213 0.0
H58 H 0.76196 0.37079 0.86421 0.0
H59 H 0.99411 0.50454 0.90402 0.0
C60 C 0.19138 0.58433 0.74889 0.0
C61 C 0.13296 0.56588 0.70679 0.0
C62 C 0.17788 0.56231 0.81005 0.0
C63 C 0.10414 0.52205 0.82908 0.0
C64 C 0.04408 0.50522 0.78789 0.0
C65 C 0.05972 0.52705 0.72622 0.0
C66 C 0.96568 0.46602 0.80923 0.0
C67 C 0.90562 0.42277 0.76806 0.0
C68 C 0.83188 0.3893 0.78707 0.0
C69 C 0.81838 0.39784 0.84822 0.0
C70 C 0.8768 0.43782 0.89032 0.0
C71 C 0.95004 0.47223 0.8709 0.0
H72 H 0.38641 0.77507 0.04386 0.0
H73 H 0.48772 0.91451 0.89274 0.0
H74 H 0.49888 0.9989 0.07561 0.0
H75 H 0.59514 0.09326 0.04236 0.0
H76 H 0.62462 0.23691 0.89808 0.0
H77 H 0.49372 0.01316 0.86193 0.0
C78 C 0.41561 0.82856 0.02574 0.0
C79 C 0.44284 0.88649 0.06608 0.0
C80 C 0.43175 0.83845 0.96345 0.0
C81 C 0.47397 0.9079 0.94075 0.0
C82 C 0.49744 0.96775 0.98012 0.0
C83 C 0.48176 0.9555 0.04328 0.0
C84 C 0.53677 0.04243 0.95619 0.0
C85 C 0.58241 0.10128 -0.00418 0.0
C86 C 0.61236 0.17144 0.9759 0.0
C87 C 0.5997 0.18302 0.91483 0.0
C88 C 0.55908 0.12614 0.87368 0.0
C89 C 0.52706 0.05613 0.89428 0.0
H90 H 0.43377 0.66268 0.06414 0.0
H91 H 0.51078 0.58377 0.20871 0.0
H92 H 0.49361 0.50945 0.02168 0.0
H93 H 0.57476 0.48087 0.05666 0.0
H94 H 0.57925 0.35314 0.20309 0.0
H95 H 0.4832 0.47868 0.23337 0.0
C96 C 0.45275 0.62783 0.07942 0.0
C97 C 0.46448 0.5881 0.03584 0.0
C98 C 0.46827 0.62539 0.14206 0.0
C99 C 0.49542 0.58213 0.16079 0.0
C100 C 0.5028 0.53756 0.11856 0.0
C101 C 0.48821 0.54222 0.05561 0.0
C102 C 0.52374 0.48557 0.14088 0.0
C103 C 0.5594 0.46096 0.1027 0.0
C104 C 0.57677 0.41101 0.12442 0.0
C105 C 0.56117 0.38771 0.185 0.0
C106 C 0.53137 0.41539 0.22475 0.0
C107 C 0.50969 0.46131 0.20202 0.0
C108 C 0.55469 0.2173 0.40953 0.0
O109 O 0.54058 0.20171 0.35064 0.0
O110 O 0.70563 0.39871 0.33398 0.0
Zn111 Zn 0.61214 0.3692 0.37915 0.0
O112 O 0.62559 0.43983 0.44393 0.0
C113 C 0.53939 0.40924 0.29138 0.0
O114 O 0.57253 0.46821 0.32444 0.0
O115 O 0.58275 0.28123 0.42763 0.0
C116 C 0.56861 0.43721 0.46486 0.0
O117 O 0.50485 0.40008 0.43472 0.0
C118 C 0.77277 0.43323 0.35311 0.0
O119 O 0.78818 0.45382 0.41097 0.0
O120 O 0.53936 0.35506 0.31148 0.0
C121 C 0.39196 0.77404 0.50927 0.0
O122 O 0.39883 0.71942 0.49678 0.0
O123 O 0.33362 0.62383 0.59797 0.0
Zn124 Zn 0.27119 0.65966 0.56055 0.0
O125 O 0.22408 0.61407 0.47764 0.0
C126 C 0.15038 0.58137 0.64164 0.0
O127 O 0.13554 0.52825 0.60463 0.0
O128 O 0.33908 0.76419 0.54273 0.0
C129 C 0.15829 0.59398 0.45934 0.0
O130 O 0.11197 0.59448 0.49815 0.0
C131 C 0.35205 0.58059 0.57952 0.0
O132 O 0.33035 0.55118 0.52458 0.0
O133 O 0.20059 0.64411 0.62758 0.0
C134 C 0.60416 0.37353 0.67221 0.0
O135 O 0.66856 0.38109 0.66056 0.0
O136 O 0.70268 0.32 0.76319 0.0
Zn137 Zn 0.59971 0.25797 0.72574 0.0
O138 O 0.59785 0.2116 0.64459 0.0
C139 C 0.55886 0.14233 0.80827 0.0
O140 O 0.5991 0.12939 0.77176 0.0
O141 O 0.55962 0.32192 0.70533 0.0
C142 C 0.55366 0.14734 0.62735 0.0
O143 O 0.50667 0.10125 0.66621 0.0
C144 C 0.76808 0.34443 0.74449 0.0
O145 O 0.77807 0.32988 0.68835 0.0
O146 O 0.54432 0.18975 0.79348 0.0
C147 C 0.40567 0.77423 0.92493 0.0
O148 O 0.3413 0.71734 0.93664 0.0
O149 O 0.30709 0.62221 0.83392 0.0
Zn150 Zn 0.41006 0.66316 0.87134 0.0
O151 O 0.41193 0.61865 0.95249 0.0
C152 C 0.45099 0.5884 0.78883 0.0
O153 O 0.41085 0.5352 0.82538 0.0
O154 O 0.45017 0.76721 0.89174 0.0
C155 C 0.4562 0.59868 0.96974 0.0
O156 O 0.50327 0.59972 0.9309 0.0
C157 C 0.24168 0.58125 0.85263 0.0
O158 O 0.2317 0.55672 0.90878 0.0
O159 O 0.46543 0.65034 0.80358 0.0
C160 C 0.61785 0.38703 0.08786 0.0
O161 O 0.61099 0.32555 0.10038 0.0
O162 O 0.6761 0.29512 -0.00086 0.0
Zn163 Zn 0.73855 0.39338 0.03654 0.0
O164 O 0.78566 0.3949 0.11946 0.0
C165 C 0.85937 0.43591 0.95547 0.0
O166 O 0.8742 0.39762 -0.0075 0.0
O167 O 0.67069 0.43005 0.05435 0.0
C168 C 0.85145 0.44062 0.13776 0.0
O169 O 0.89776 0.48746 0.09894 0.0
C170 C 0.65771 0.23345 0.01758 0.0
O171 O 0.67946 0.22574 0.07251 0.0
O172 O 0.80916 0.44843 0.9695 0.0
C173 C 0.45518 0.66755 0.18757 0.0
O174 O 0.46936 0.66611 0.24644 0.0
O175 O 0.30415 0.69788 0.26312 0.0
Zn176 Zn 0.39764 0.76191 0.21797 0.0
O177 O 0.38419 0.81911 0.1532 0.0
C178 C 0.47043 0.87473 0.30574 0.0
O179 O 0.43734 0.9006 0.27265 0.0
O180 O 0.42705 0.70337 0.16948 0.0
C181 C 0.44119 0.87344 0.13226 0.0
O182 O 0.50496 0.90003 0.16239 0.0
C183 C 0.237 0.66532 0.24399 0.0
O184 O 0.22161 0.6706 0.18615 0.0
O185 O 0.47041 0.82055 0.28566 0.0
loop_
_geom_bond_atom_site_label_1
_geom_bond_atom_site_label_2
_geom_bond_distance
_geom_bond_site_symmetry_2
_ccdc_geom_bond_type
H0 C6 0.930 . S
H1 C9 0.931 . S
H2 C11 0.931 . S
H3 C13 0.930 . S
H4 C15 0.930 . S
H5 C17 0.931 . S
C6 H0 0.930 . S
C6 C7 1.380 . S
C6 C8 1.394 . S
C7 C6 1.380 . S
C7 C11 1.382 . S
C8 C6 1.394 . S
C8 C9 1.400 . S
C9 H1 0.931 . S
C9 C8 1.400 . S
C9 C10 1.375 . S
C10 C9 1.375 . S
C10 C11 1.415 . S
C10 C12 1.501 1_455 S
C11 H2 0.931 . S
C11 C7 1.382 . S
C11 C10 1.415 . S
C12 C10 1.501 1_655 S
C12 C13 1.384 . S
C12 C17 1.408 . S
C13 H3 0.930 . S
C13 C12 1.384 . S
C13 C14 1.389 . S
C14 C13 1.389 . S
C14 C15 1.405 . S
C15 H4 0.930 . S
C15 C14 1.405 . S
C15 C16 1.364 . S
C16 C15 1.364 . S
C16 C17 1.400 . S
C17 H5 0.931 . S
C17 C12 1.408 . S
C17 C16 1.400 . S
H18 C24 0.930 . S
H19 C27 0.931 . S
H20 C29 0.931 . S
H21 C31 0.930 . S
H22 C33 0.930 . S
H23 C35 0.931 . S
C24 H18 0.930 . S
C24 C25 1.380 . S
C24 C26 1.394 . S
C25 C24 1.380 . S
C25 C29 1.382 . S
C26 C24 1.394 . S
C26 C27 1.400 . S
C27 H19 0.931 . S
C27 C26 1.400 . S
C27 C28 1.375 . S
C28 C27 1.375 . S
C28 C29 1.415 . S
C28 C30 1.501 1_545 S
C29 H20 0.931 . S
C29 C25 1.382 . S
C29 C28 1.415 . S
C30 C28 1.501 1_565 S
C30 C31 1.384 . S
C30 C35 1.408 . S
C31 H21 0.930 . S
C31 C30 1.384 . S
C31 C32 1.389 . S
C32 C31 1.389 . S
C32 C33 1.405 . S
C33 H22 0.930 . S
C33 C32 1.405 . S
C33 C34 1.364 . S
C34 C33 1.364 . S
C34 C35 1.400 . S
C35 H23 0.931 . S
C35 C30 1.408 . S
C35 C34 1.400 . S
H36 C42 0.930 . S
H37 C45 0.931 . S
H38 C47 0.931 . S
H39 C49 0.930 . S
H40 C51 0.930 . S
H41 C53 0.931 . S
C42 H36 0.930 . S
C42 C43 1.380 . S
C42 C44 1.394 . S
C43 C42 1.380 . S
C43 C47 1.382 . S
C44 C42 1.394 . S
C44 C45 1.400 . S
C45 H37 0.931 . S
C45 C44 1.400 . S
C45 C46 1.375 . S
C46 C45 1.375 . S
C46 C47 1.415 . S
C46 C48 1.501 . S
C47 H38 0.931 . S
C47 C43 1.382 . S
C47 C46 1.415 . S
C48 C46 1.501 . S
C48 C49 1.384 . S
C48 C53 1.408 . S
C49 H39 0.930 . S
C49 C48 1.384 . S
C49 C50 1.389 . S
C50 C49 1.389 . S
C50 C51 1.405 . S
C51 H40 0.930 . S
C51 C50 1.405 . S
C51 C52 1.364 . S
C52 C51 1.364 . S
C52 C53 1.400 . S
C53 H41 0.931 . S
C53 C48 1.408 . S
C53 C52 1.400 . S
H54 C60 0.930 . S
H55 C63 0.931 . S
H56 C65 0.931 . S
H57 C67 0.930 . S
H58 C69 0.930 . S
H59 C71 0.931 . S
C60 H54 0.930 . S
C60 C61 1.380 . S
C60 C62 1.394 . S
C61 C60 1.380 . S
C61 C65 1.382 . S
C62 C60 1.394 . S
C62 C63 1.400 . S
C63 H55 0.931 . S
C63 C62 1.400 . S
C63 C64 1.375 . S
C64 C63 1.375 . S
C64 C65 1.415 . S
C64 C66 1.501 1_455 S
C65 H56 0.931 . S
C65 C61 1.382 . S
C65 C64 1.415 . S
C66 C64 1.501 1_655 S
C66 C67 1.384 . S
C66 C71 1.408 . S
C67 H57 0.930 . S
C67 C66 1.384 . S
C67 C68 1.389 . S
C68 C67 1.389 . S
C68 C69 1.405 . S
C69 H58 0.930 . S
C69 C68 1.405 . S
C69 C70 1.364 . S
C70 C69 1.364 . S
C70 C71 1.400 . S
C71 H59 0.931 . S
C71 C66 1.408 . S
C71 C70 1.400 . S
H72 C78 0.930 . S
H73 C81 0.931 . S
H74 C83 0.931 . S
H75 C85 0.930 . S
H76 C87 0.930 . S
H77 C89 0.931 . S
C78 H72 0.930 . S
C78 C79 1.380 . S
C78 C80 1.394 1_554 S
C79 C78 1.380 . S
C79 C83 1.382 . S
C80 C78 1.394 1_556 S
C80 C81 1.400 . S
C81 H73 0.931 . S
C81 C80 1.400 . S
C81 C82 1.386 . S
C82 C81 1.386 . S
C82 C83 1.398 1_556 S
C82 C84 1.506 1_565 S
C83 H74 0.931 . S
C83 C79 1.382 . S
C83 C82 1.398 1_554 S
C84 C82 1.506 1_545 S
C84 C85 1.384 1_556 S
C84 C89 1.408 . S
C85 H75 0.930 . S
C85 C84 1.384 1_554 S
C85 C86 1.389 . S
C86 C85 1.389 . S
C86 C87 1.405 1_554 S
C87 H76 0.930 . S
C87 C86 1.405 1_556 S
C87 C88 1.364 . S
C88 C87 1.364 . S
C88 C89 1.400 . S
C89 H77 0.931 . S
C89 C84 1.408 . S
C89 C88 1.400 . S
H90 C96 0.930 . S
H91 C99 0.931 . S
H92 C101 0.931 . S
H93 C103 0.930 . S
H94 C105 0.930 . S
H95 C107 0.931 . S
C96 H90 0.930 . S
C96 C97 1.380 . S
C96 C98 1.394 . S
C97 C96 1.380 . S
C97 C101 1.382 . S
C98 C96 1.394 . S
C98 C99 1.400 . S
C99 H91 0.931 . S
C99 C98 1.400 . S
C99 C100 1.375 . S
C100 C99 1.375 . S
C100 C101 1.415 . S
C100 C102 1.501 . S
C101 H92 0.931 . S
C101 C97 1.382 . S
C101 C100 1.415 . S
C102 C100 1.501 . S
C102 C103 1.384 . S
C102 C107 1.408 . S
C103 H93 0.930 . S
C103 C102 1.384 . S
C103 C104 1.389 . S
C104 C103 1.389 . S
C104 C105 1.405 . S
C105 H94 0.930 . S
C105 C104 1.405 . S
C105 C106 1.364 . S
C106 C105 1.364 . S
C106 C107 1.400 . S
C107 H95 0.931 . S
C107 C102 1.408 . S
C107 C106 1.400 . S
C108 O109 1.160 . S
C108 O115 1.185 . S
O109 C108 1.160 . S
O110 Zn111 1.899 . S
O110 C118 1.284 . S
Zn111 O110 1.899 . S
Zn111 O112 2.032 . S
Zn111 O115 2.086 . S
Zn111 O120 1.977 . S
O112 Zn111 2.032 . S
O112 C116 1.278 . S
C113 O114 1.203 . S
C113 O120 1.267 . S
O114 C113 1.203 . S
O115 C108 1.185 . S
O115 Zn111 2.086 . S
C116 O112 1.278 . S
C116 O117 1.211 . S
O117 C116 1.211 . S
C118 O110 1.284 . S
C118 O119 1.273 . S
O119 C118 1.273 . S
O120 Zn111 1.977 . S
O120 C113 1.267 . S
C121 O122 1.160 . S
C121 O128 1.185 . S
O122 C121 1.160 . S
O123 Zn124 1.899 . S
O123 C131 1.284 . S
Zn124 O123 1.899 . S
Zn124 O125 2.032 . S
Zn124 O128 2.086 . S
Zn124 O133 1.977 . S
O125 Zn124 2.032 . S
O125 C129 1.278 . S
C126 O127 1.203 . S
C126 O133 1.267 . S
O127 C126 1.203 . S
O128 C121 1.185 . S
O128 Zn124 2.086 . S
C129 O125 1.278 . S
C129 O130 1.211 . S
O130 C129 1.211 . S
C131 O123 1.284 . S
C131 O132 1.273 . S
O132 C131 1.273 . S
O133 Zn124 1.977 . S
O133 C126 1.267 . S
C134 O135 1.160 . S
C134 O141 1.185 . S
O135 C134 1.160 . S
O136 Zn137 1.899 . S
O136 C144 1.284 . S
Zn137 O136 1.899 . S
Zn137 O138 2.032 . S
Zn137 O141 2.086 . S
Zn137 O146 1.977 . S
O138 Zn137 2.032 . S
O138 C142 1.278 . S
C139 O140 1.203 . S
C139 O146 1.267 . S
O140 C139 1.203 . S
O141 C134 1.185 . S
O141 Zn137 2.086 . S
C142 O138 1.278 . S
C142 O143 1.211 . S
O143 C142 1.211 . S
C144 O136 1.284 . S
C144 O145 1.273 . S
O145 C144 1.273 . S
O146 Zn137 1.977 . S
O146 C139 1.267 . S
C147 O148 1.160 . S
C147 O154 1.185 . S
O148 C147 1.160 . S
O149 Zn150 1.899 . S
O149 C157 1.284 . S
Zn150 O149 1.899 . S
Zn150 O151 2.032 . S
Zn150 O154 2.086 . S
Zn150 O159 1.977 . S
O151 Zn150 2.032 . S
O151 C155 1.278 . S
C152 O153 1.203 . S
C152 O159 1.267 . S
O153 C152 1.203 . S
O154 C147 1.185 . S
O154 Zn150 2.086 . S
C155 O151 1.278 . S
C155 O156 1.211 . S
O156 C155 1.211 . S
C157 O149 1.284 . S
C157 O158 1.273 . S
O158 C157 1.273 . S
O159 Zn150 1.977 . S
O159 C152 1.267 . S
C160 O161 1.160 . S
C160 O167 1.185 . S
O161 C160 1.160 . S
O162 Zn163 1.899 . S
O162 C170 1.284 . S
Zn163 O162 1.899 . S
Zn163 O164 2.032 . S
Zn163 O167 2.086 . S
Zn163 O172 1.977 1_554 S
O164 Zn163 2.032 . S
O164 C168 1.278 . S
C165 O166 1.203 . S
C165 O172 1.267 . S
O166 C165 1.203 . S
O167 C160 1.185 . S
O167 Zn163 2.086 . S
C168 O164 1.278 . S
C168 O169 1.211 . S
O169 C168 1.211 . S
C170 O162 1.284 . S
C170 O171 1.273 . S
O171 C170 1.273 . S
O172 Zn163 1.977 1_556 S
O172 C165 1.267 . S
C173 O174 1.160 . S
C173 O180 1.185 . S
O174 C173 1.160 . S
O175 Zn176 1.899 . S
O175 C183 1.284 . S
Zn176 O175 1.899 . S
Zn176 O177 2.032 . S
Zn176 O180 2.086 . S
Zn176 O185 1.977 . S
O177 Zn176 2.032 . S
O177 C181 1.278 . S
C178 O179 1.203 . S
C178 O185 1.267 . S
O179 C178 1.203 . S
O180 C173 1.185 . S
O180 Zn176 2.086 . S
C181 O177 1.278 . S
C181 O182 1.211 . S
O182 C181 1.211 . S
C183 O175 1.284 . S
C183 O184 1.273 . S
O184 C183 1.273 . S
O185 Zn176 1.977 . S
O185 C178 1.267 . S
C183 C8 1.855 . S
C26 C108 1.548 . S
C50 C131 1.831 . S
C68 C144 1.600 . S
C147 C80 1.601 . S
C104 C160 1.436 . S
C32 C121 1.442 . S
C44 C134 1.602 . S
C62 C157 1.604 . S
C170 C86 1.823 . S
C173 C98 1.548 . S
C118 C14 1.846 . S
C7 C129 1.538 . S
C25 C142 1.417 . S
C152 C52 1.377 . S
C70 C165 1.356 . S
C181 C79 1.439 . S
C113 C106 1.327 . S
C178 C34 1.324 . S
C43 C116 1.440 . S
C126 C61 1.350 . S
C88 C139 1.379 . S
C97 C155 1.417 1_554 S
C16 C168 1.555 . S
