# Generated by pormake.
# Topology pyr, (3,6)-cn, num edge types: 1
# Building blocks:
#     Node 0, Type 0, BuildingBlock: ESEHIV_clean_linker_0, # of connection points: 3
#     Node 1, Type 0, BuildingBlock: ESEHIV_clean_linker_0, # of connection points: 3
#     Node 2, Type 0, BuildingBlock: ESEHIV_clean_linker_0, # of connection points: 3
#     Node 3, Type 0, BuildingBlock: ESEHIV_clean_linker_0, # of connection points: 3
#     Node 4, Type 0, BuildingBlock: ESEHIV_clean_linker_0, # of connection points: 3
#     Node 5, Type 0, BuildingBlock: ESEHIV_clean_linker_0, # of connection points: 3
#     Node 6, Type 0, BuildingBlock: ESEHIV_clean_linker_0, # of connection points: 3
#     Node 7, Type 0, BuildingBlock: ESEHIV_clean_linker_0, # of connection points: 3
#     Node 8, Type 1, BuildingBlock: BETDIP_clean_sbu_0, # of connection points: 6
#     Node 9, Type 1, BuildingBlock: BETDIP_clean_sbu_0, # of connection points: 6
#     Node 10, Type 1, BuildingBlock: BETDIP_clean_sbu_0, # of connection points: 6
#     Node 11, Type 1, BuildingBlock: BETDIP_clean_sbu_0, # of connection points: 6
#     Edge 12, Type (0, 1), None
#     Edge 13, Type (0, 1), None
#     Edge 14, Type (0, 1), None
#     Edge 15, Type (0, 1), None
#     Edge 16, Type (0, 1), None
#     Edge 17, Type (0, 1), None
#     Edge 18, Type (0, 1), None
#     Edge 19, Type (0, 1), None
#     Edge 20, Type (0, 1), None
#     Edge 21, Type (0, 1), None
#     Edge 22, Type (0, 1), None
#     Edge 23, Type (0, 1), None
#     Edge 24, Type (0, 1), None
#     Edge 25, Type (0, 1), None
#     Edge 26, Type (0, 1), None
#     Edge 27, Type (0, 1), None
#     Edge 28, Type (0, 1), None
#     Edge 29, Type (0, 1), None
#     Edge 30, Type (0, 1), None
#     Edge 31, Type (0, 1), None
#     Edge 32, Type (0, 1), None
#     Edge 33, Type (0, 1), None
#     Edge 34, Type (0, 1), None
#     Edge 35, Type (0, 1), None
# Relax obj value: 0.508
# Max RMSD: 0.239
# Mean RMSD: 0.123
data_MOF--net-pyr--node1-BETDIP_clean_sbu_0--node2-ESEHIV_clean_linker_0--edge1-none
_symmetry_space_group_name_H-M    P1
_symmetry_Int_Tables_number       1
_symmetry_cell_setting            triclinic
loop_
_symmetry_equiv_pos_as_xyz
'x, y, z'
_cell_length_a     14.486912
_cell_length_b     15.332726
_cell_length_c     14.25676
_cell_angle_alpha  90.405295
_cell_angle_beta   93.658068
_cell_angle_gamma 101.10529
loop_
_atom_site_label
_atom_site_type_symbol
_atom_site_fract_x
_atom_site_fract_y
_atom_site_fract_z
_atom_type_partial_charge
H0 H 0.39373 0.31565 0.55236 0.0
H1 H 0.65046 0.21866 0.53496 0.0
H2 H 0.55645 0.37341 0.31372 0.0
C3 C 0.45961 0.31708 0.51955 0.0
C4 C 0.47533 0.36215 0.43527 0.0
C5 C 0.52534 0.2686 0.55765 0.0
C6 C 0.60587 0.26416 0.51096 0.0
C7 C 0.61032 0.29245 0.41909 0.0
C8 C 0.55344 0.35219 0.38613 0.0
H9 H 0.96223 1.0135 0.99527 0.0
H10 H 0.2156 0.91518 1.05041 0.0
H11 H 1.03964 0.83504 0.79839 0.0
C12 C 1.00501 0.96473 0.97984 0.0
C13 C 0.99418 0.92686 0.89151 0.0
C14 C 0.08445 0.96093 1.03779 0.0
C15 C 0.14912 0.91039 1.00944 0.0
C16 C 0.13234 0.86133 0.92415 0.0
C17 C 0.04952 0.86472 0.86843 0.0
H18 H 0.76659 0.37079 1.16789 0.0
H19 H 0.79247 0.58386 0.96615 0.0
H20 H 0.54724 0.37169 0.95048 0.0
C21 C 0.73924 0.40177 1.10679 0.0
C22 C 0.65397 0.35763 1.0601 0.0
C23 C 0.79045 0.48436 1.07715 0.0
C24 C 0.75321 0.52312 0.99311 0.0
C25 C 0.6617 0.48632 0.94771 0.0
C26 C 0.61556 0.40233 0.98298 0.0
H27 H 0.82568 0.88512 0.64079 0.0
H28 H 1.02459 0.87307 0.42905 0.0
H29 H 0.80976 0.64363 0.47834 0.0
C30 C 0.85184 0.84877 0.5861 0.0
C31 C 0.80659 0.75967 0.5663 0.0
C32 C 0.93198 0.89109 0.53982 0.0
C33 C 0.96441 0.84108 0.46581 0.0
C34 C 0.92238 0.7495 0.44072 0.0
C35 C 0.84414 0.71108 0.49466 0.0
H36 H 0.44709 1.0229 0.86542 0.0
H37 H 0.70379 0.92576 0.84822 0.0
H38 H 0.54082 0.86821 1.08677 0.0
C39 C 0.49168 0.9774 0.88942 0.0
C40 C 0.48715 0.94916 0.98131 0.0
C41 C 0.57224 0.97289 0.84281 0.0
C42 C 0.6379 0.92439 0.88099 0.0
C43 C 0.62209 0.87937 0.96528 0.0
C44 C 0.54395 0.88939 1.01435 0.0
H45 H 0.88202 0.32645 0.35035 0.0
H46 H 0.13532 0.22808 0.40551 0.0
H47 H 0.05773 0.4064 0.60253 0.0
C48 C 0.94846 0.33119 0.39138 0.0
C49 C 0.96517 0.38019 0.4767 0.0
C50 C 1.01315 0.28071 0.36302 0.0
C51 C 0.09256 0.27684 0.42101 0.0
C52 C 0.10337 0.31468 0.50935 0.0
C53 C 1.04796 0.37676 0.53248 0.0
H54 H 0.33144 0.87118 0.23245 0.0
H55 H 0.30514 0.65825 0.43434 0.0
H56 H 0.55099 0.86977 0.44955 0.0
C57 C 0.35877 0.84015 0.29353 0.0
C58 C 0.44418 0.88411 0.3401 0.0
C59 C 0.30739 0.75766 0.32323 0.0
C60 C 0.34458 0.71885 0.40726 0.0
C61 C 0.43621 0.75542 0.45253 0.0
C62 C 0.48256 0.8393 0.41716 0.0
H63 H 0.07288 0.36873 0.97155 0.0
H64 H 0.27172 0.35659 0.75975 0.0
H65 H 0.28789 0.59804 0.92233 0.0
C66 C 0.13307 0.40068 0.93479 0.0
C67 C 0.1752 0.49224 0.95992 0.0
C68 C 0.16544 0.35066 0.86075 0.0
C69 C 0.24561 0.39294 0.81446 0.0
C70 C 0.29093 0.48203 0.83427 0.0
C71 C 0.25345 0.53062 0.90597 0.0
Tb72 Tb 0.97611 0.14966 0.71475 0.0
Tb73 Tb 0.12157 1.09172 0.68583 0.0
C74 C 0.82818 0.21066 0.69355 0.0
C75 C 0.73141 0.16508 0.68982 0.0
C76 C 0.70931 1.07828 0.65158 0.0
C77 C 0.645 1.01464 0.69411 0.0
C78 C 0.60294 1.03884 0.77341 0.0
C79 C 0.6132 0.12863 0.80028 0.0
C80 C 0.67609 0.1923 0.75667 0.0
C81 C 0.11424 0.2565 0.82528 0.0
C82 C 1.00149 0.99999 0.83021 0.0
C83 C 0.26944 1.03056 0.7066 0.0
C84 C 0.3662 1.07615 0.71036 0.0
C85 C 0.38827 0.1629 0.74873 0.0
C86 C 0.45256 0.22663 0.70629 0.0
C87 C 0.49465 0.20255 0.62695 0.0
C88 C 0.48442 1.1128 0.59995 0.0
C89 C 0.42153 1.04904 0.64345 0.0
C90 C 0.98309 0.98526 0.57528 0.0
C91 C 0.09615 0.24154 0.57061 0.0
O92 O 0.87694 0.19542 0.62368 0.0
O93 O 0.87223 0.20345 0.7749 0.0
O94 O 0.12142 0.22528 0.74333 0.0
O95 O 1.03192 0.21939 0.84971 0.0
O96 O 0.93147 1.0239 0.78228 0.0
O97 O 0.08555 1.04507 0.8207 0.0
O98 O 0.22074 1.04561 0.77659 0.0
O99 O 0.22531 1.03798 0.62534 0.0
O100 O 0.9765 1.01612 0.65752 0.0
O101 O 0.0653 1.02249 0.55066 0.0
O102 O 0.16618 0.21764 0.61855 0.0
O103 O 1.01216 0.19629 0.57994 0.0
H104 H 0.75136 1.05652 0.59913 0.0
H105 H 0.63707 0.94554 0.67265 0.0
H106 H 0.58147 0.14847 0.86181 0.0
H107 H 0.6925 0.25936 0.78605 0.0
H108 H 0.3462 0.18458 0.80122 0.0
H109 H 0.46047 0.2957 0.72785 0.0
H110 H 0.51617 1.09305 0.53839 0.0
H111 H 0.40514 0.98202 0.61398 0.0
Tb112 Tb 0.61837 1.095 0.21059 0.0
Tb113 Tb 0.47946 0.14701 1.18949 0.0
C114 C 0.76681 1.04023 1.18821 0.0
C115 C 0.86265 1.08809 1.18575 0.0
C116 C 0.87718 0.17513 1.1523 0.0
C117 C 0.93972 0.24082 0.20308 0.0
C118 C 0.9883 0.21756 0.28432 0.0
C119 C 0.99066 0.12783 0.30139 0.0
C120 C 0.92756 1.06274 0.25144 0.0
C121 C 0.49507 0.97444 0.30401 0.0
C122 C 0.60608 0.21838 0.35635 0.0
C123 C 0.3311 0.20205 0.21151 0.0
C124 C 0.23531 0.1541 0.21421 0.0
C125 C 0.22093 1.06715 0.24792 0.0
C126 C 0.15822 1.00131 1.1975 0.0
C127 C 0.10945 1.02431 1.11627 0.0
C128 C 0.10705 1.114 1.09893 0.0
C129 C 0.17022 0.17925 1.14859 0.0
C130 C 0.6032 0.26723 1.09609 0.0
C131 C 0.49153 1.0233 1.04398 0.0
O132 O 0.70859 1.05512 1.11963 0.0
O133 O 0.73218 1.04438 0.26975 0.0
O134 O 0.47894 1.00807 0.22433 0.0
O135 O 0.57747 1.0147 0.33575 0.0
O136 O 0.66843 0.21295 0.29685 0.0
O137 O 0.52267 0.17141 0.33592 0.0
O138 O 0.38939 0.18751 0.28017 0.0
O139 O 0.36568 0.19751 1.13001 0.0
O140 O 0.61871 0.23392 1.17605 0.0
O141 O 0.52091 0.22687 1.06411 0.0
O142 O 0.42924 1.02892 1.10349 0.0
O143 O 0.57499 1.07022 1.06426 0.0
H144 H 0.82878 0.1952 1.09936 0.0
H145 H 0.93871 0.30954 1.1872 0.0
H146 H 1.02842 1.10733 0.36272 0.0
H147 H 0.91758 0.99531 0.27696 0.0
H148 H 0.26948 1.04724 0.30082 0.0
H149 H 0.15919 0.93262 0.2136 0.0
H150 H 0.06913 0.13433 1.03761 0.0
H151 H 0.18008 0.24663 1.12292 0.0
Tb152 Tb 0.54142 0.66983 0.73168 0.0
Tb153 Tb 0.55607 0.57188 0.66877 0.0
C154 C 0.4831 0.78163 0.82379 0.0
C155 C 0.38545 0.78921 0.83974 0.0
C156 C 0.32467 0.81821 0.77117 0.0
C157 C 0.23633 0.83313 0.79521 0.0
C158 C 0.20995 0.82215 0.88852 0.0
C159 C 0.26837 0.78637 0.95298 0.0
C160 C 0.35398 0.76918 0.9291 0.0
C161 C 0.6017 0.53319 0.87408 0.0
C162 C 0.37654 0.52489 0.7789 0.0
C163 C 0.61433 0.46004 0.57663 0.0
C164 C 0.71198 0.45238 0.56077 0.0
C165 C 0.77265 0.42332 0.6294 0.0
C166 C 0.86101 0.40836 0.60548 0.0
C167 C 0.88754 0.4194 0.51223 0.0
C168 C 0.82924 0.45524 0.44769 0.0
C169 C 0.74358 0.47242 0.47146 0.0
C170 C 0.49606 0.70828 0.52605 0.0
C171 C 0.72097 0.71681 0.62163 0.0
O172 O 0.51728 0.80057 0.74216 0.0
O173 O 0.51099 0.71417 0.86217 0.0
O174 O 0.63063 0.59168 0.81043 0.0
O175 O 0.63508 0.59203 0.8111 0.0
O176 O 0.39732 0.60975 0.76804 0.0
O177 O 0.43777 0.48391 0.74106 0.0
O178 O 0.58007 0.44109 0.65823 0.0
O179 O 0.58657 0.52757 0.53828 0.0
O180 O 0.46695 0.65015 0.58999 0.0
O181 O 0.46257 0.64982 0.58933 0.0
O182 O 0.70021 0.63194 0.6325 0.0
O183 O 0.65972 0.7578 0.65942 0.0
H184 H 0.3464 0.83206 0.70066 0.0
H185 H 0.19193 0.85854 0.74255 0.0
H186 H 0.25085 0.77683 1.02416 0.0
H187 H 0.39778 0.74402 0.98283 0.0
H188 H 0.75082 0.40945 0.69987 0.0
H189 H 0.90532 0.38288 0.65818 0.0
H190 H 0.8469 0.46483 0.37654 0.0
H191 H 0.69985 0.4976 0.41767 0.0
Tb192 Tb 0.05287 0.68449 1.15579 0.0
Tb193 Tb 1.04474 0.55722 0.24493 0.0
C194 C 0.96214 0.78824 1.08002 0.0
C195 C 0.86583 0.80248 1.09053 0.0
C196 C 0.78474 0.73628 1.07405 0.0
C197 C 0.70023 0.75944 1.03776 0.0
C198 C 0.70127 0.84832 1.01383 0.0
C199 C 0.78137 0.91221 1.03815 0.0
C200 C 0.85525 0.88942 1.09178 0.0
C201 C 0.21946 0.71388 0.25918 0.0
C202 C 0.95963 0.69696 0.35801 0.0
C203 C 0.13512 0.45323 0.32072 0.0
C204 C 0.23146 0.43902 0.31032 0.0
C205 C 0.3125 0.50525 0.3269 0.0
C206 C 0.39704 0.4821 0.36309 0.0
C207 C 0.39609 0.39318 0.38683 0.0
C208 C 0.31603 0.32927 0.36241 0.0
C209 C 0.2421 0.35209 0.30889 0.0
C210 C 0.87822 0.52833 1.14133 0.0
C211 C 0.13802 0.54479 1.04269 0.0
O212 O 0.97222 0.71566 1.0378 0.0
O213 O 1.02399 0.8124 1.15 0.0
O214 O 0.13816 0.68068 0.28575 0.0
O215 O 0.20677 0.73308 1.17099 0.0
O216 O 0.98959 0.73822 0.28114 0.0
O217 O 0.968 0.61195 0.35961 0.0
O218 O 0.12498 0.52574 0.36307 0.0
O219 O 0.07341 0.42924 0.2506 0.0
O220 O 0.95978 0.56089 1.11499 0.0
O221 O 0.89065 0.50931 0.22962 0.0
O222 O 0.10808 0.50352 1.11958 0.0
O223 O 0.1296 0.62979 1.04107 0.0
H224 H 0.78775 0.6687 1.08943 0.0
H225 H 0.63779 0.70858 1.02301 0.0
H226 H 0.78726 0.97995 1.01522 0.0
H227 H 0.91219 0.93981 1.11986 0.0
H228 H 0.30941 0.57283 0.31165 0.0
H229 H 0.45945 0.53298 0.37791 0.0
H230 H 0.31022 0.26147 0.38516 0.0
H231 H 0.18517 0.3017 0.28074 0.0
loop_
_geom_bond_atom_site_label_1
_geom_bond_atom_site_label_2
_geom_bond_distance
_geom_bond_site_symmetry_2
_ccdc_geom_bond_type
H0 C3 0.931 . S
H1 C6 0.928 . S
H2 C8 0.930 . S
C3 H0 0.931 . S
C3 C4 1.413 . S
C3 C5 1.360 . S
C4 C3 1.413 . S
C4 C8 1.429 . S
C5 C3 1.360 . S
C5 C6 1.372 . S
C6 H1 0.928 . S
C6 C5 1.372 . S
C6 C7 1.404 . S
C7 C6 1.404 . S
C7 C8 1.391 . S
C8 H2 0.930 . S
C8 C4 1.429 . S
C8 C7 1.391 . S
H9 C12 0.931 . S
H10 C15 0.928 . S
H11 C17 0.930 . S
C12 H9 0.931 . S
C12 C13 1.413 . S
C12 C14 1.360 1_655 S
C13 C12 1.413 . S
C13 C17 1.429 . S
C14 C12 1.360 1_455 S
C14 C15 1.372 . S
C15 H10 0.928 . S
C15 C14 1.372 . S
C15 C16 1.404 . S
C16 C15 1.404 . S
C16 C17 1.391 1_455 S
C17 H11 0.930 . S
C17 C13 1.429 . S
C17 C16 1.391 1_655 S
H18 C21 0.931 . S
H19 C24 0.928 . S
H20 C26 0.930 . S
C21 H18 0.931 . S
C21 C22 1.413 . S
C21 C23 1.360 . S
C22 C21 1.413 . S
C22 C26 1.429 . S
C23 C21 1.360 . S
C23 C24 1.372 . S
C24 H19 0.928 . S
C24 C23 1.372 . S
C24 C25 1.404 . S
C25 C24 1.404 . S
C25 C26 1.391 . S
C26 H20 0.930 . S
C26 C22 1.429 . S
C26 C25 1.391 . S
H27 C30 0.931 . S
H28 C33 0.928 . S
H29 C35 0.930 . S
C30 H27 0.931 . S
C30 C31 1.413 . S
C30 C32 1.360 . S
C31 C30 1.413 . S
C31 C35 1.429 . S
C32 C30 1.360 . S
C32 C33 1.372 . S
C33 H28 0.928 . S
C33 C32 1.372 . S
C33 C34 1.404 . S
C34 C33 1.404 . S
C34 C35 1.391 . S
C35 H29 0.930 . S
C35 C31 1.429 . S
C35 C34 1.391 . S
H36 C39 0.931 . S
H37 C42 0.928 . S
H38 C44 0.930 . S
C39 H36 0.931 . S
C39 C40 1.413 . S
C39 C41 1.360 . S
C40 C39 1.413 . S
C40 C44 1.429 . S
C41 C39 1.360 . S
C41 C42 1.372 . S
C42 H37 0.928 . S
C42 C41 1.372 . S
C42 C43 1.404 . S
C43 C42 1.404 . S
C43 C44 1.391 . S
C44 H38 0.930 . S
C44 C40 1.429 . S
C44 C43 1.391 . S
H45 C48 0.931 . S
H46 C51 0.928 . S
H47 C53 0.930 . S
C48 H45 0.931 . S
C48 C49 1.413 . S
C48 C50 1.360 . S
C49 C48 1.413 . S
C49 C53 1.429 1_655 S
C50 C48 1.360 . S
C50 C51 1.372 1_655 S
C51 H46 0.928 . S
C51 C50 1.372 1_455 S
C51 C52 1.404 . S
C52 C51 1.404 . S
C52 C53 1.391 . S
C53 H47 0.930 . S
C53 C49 1.429 1_455 S
C53 C52 1.391 . S
H54 C57 0.931 . S
H55 C60 0.928 . S
H56 C62 0.930 . S
C57 H54 0.931 . S
C57 C58 1.413 . S
C57 C59 1.360 . S
C58 C57 1.413 . S
C58 C62 1.429 . S
C59 C57 1.360 . S
C59 C60 1.372 . S
C60 H55 0.928 . S
C60 C59 1.372 . S
C60 C61 1.404 . S
C61 C60 1.404 . S
C61 C62 1.391 . S
C62 H56 0.930 . S
C62 C58 1.429 . S
C62 C61 1.391 . S
H63 C66 0.931 . S
H64 C69 0.928 . S
H65 C71 0.930 . S
C66 H63 0.931 . S
C66 C67 1.413 . S
C66 C68 1.360 . S
C67 C66 1.413 . S
C67 C71 1.429 . S
C68 C66 1.360 . S
C68 C69 1.372 . S
C69 H64 0.928 . S
C69 C68 1.372 . S
C69 C70 1.404 . S
C70 C69 1.404 . S
C70 C71 1.391 . S
C71 H65 0.930 . S
C71 C67 1.429 . S
C71 C70 1.391 . S
Tb72 C74 2.809 1_545 S
Tb72 O92 2.484 1_545 S
Tb72 O93 2.440 1_545 S
Tb72 O94 2.658 1_655 S
Tb72 O95 2.409 . S
Tb72 O96 2.378 1_545 S
Tb72 O100 2.325 1_545 S
Tb72 O103 2.341 . S
Tb73 C83 2.806 1_565 S
Tb73 O94 2.320 1_565 S
Tb73 O97 2.345 . S
Tb73 O98 2.480 1_565 S
Tb73 O99 2.440 1_565 S
Tb73 O100 2.660 1_455 S
Tb73 O101 2.413 . S
Tb73 O102 2.374 1_565 S
C74 Tb72 2.809 1_565 S
C74 C75 1.514 . S
C74 O92 1.248 . S
C74 O93 1.266 . S
C75 C74 1.514 . S
C75 C76 1.359 . S
C75 C80 1.348 . S
C76 C75 1.359 . S
C76 C77 1.380 . S
C76 H104 0.929 . S
C77 C76 1.380 . S
C77 C78 1.347 . S
C77 H105 0.931 . S
C78 C77 1.347 . S
C78 C79 1.369 . S
C79 C78 1.369 . S
C79 C80 1.408 . S
C79 H106 0.930 . S
C80 C75 1.348 . S
C80 C79 1.408 . S
C80 H107 0.930 . S
C81 O94 1.281 . S
C81 O95 1.254 1_455 S
C82 O96 1.236 1_455 S
C82 O97 1.266 . S
C83 Tb73 2.806 1_545 S
C83 C84 1.514 . S
C83 O98 1.248 . S
C83 O99 1.266 . S
C84 C83 1.514 . S
C84 C85 1.359 . S
C84 C89 1.348 . S
C85 C84 1.359 . S
C85 C86 1.380 . S
C85 H108 0.929 . S
C86 C85 1.380 . S
C86 C87 1.347 . S
C86 H109 0.931 . S
C87 C86 1.347 . S
C87 C88 1.369 . S
C88 C87 1.369 . S
C88 C89 1.408 . S
C88 H110 0.930 . S
C89 C84 1.348 . S
C89 C88 1.408 . S
C89 H111 0.930 . S
C90 O100 1.281 . S
C90 O101 1.254 1_655 S
C91 O102 1.236 1_655 S
C91 O103 1.266 . S
O92 Tb72 2.484 1_565 S
O92 C74 1.248 . S
O93 Tb72 2.440 1_565 S
O93 C74 1.266 . S
O94 Tb72 2.658 1_455 S
O94 Tb73 2.320 1_545 S
O94 C81 1.281 . S
O95 Tb72 2.409 . S
O95 C81 1.254 1_655 S
O96 Tb72 2.378 1_565 S
O96 C82 1.236 1_655 S
O97 Tb73 2.345 . S
O97 C82 1.266 . S
O98 Tb73 2.480 1_545 S
O98 C83 1.248 . S
O99 Tb73 2.440 1_545 S
O99 C83 1.266 . S
O100 Tb72 2.325 1_565 S
O100 Tb73 2.660 1_655 S
O100 C90 1.281 . S
O101 Tb73 2.413 . S
O101 C90 1.254 1_455 S
O102 Tb73 2.374 1_545 S
O102 C91 1.236 1_455 S
O103 Tb72 2.341 . S
O103 C91 1.266 . S
H104 C76 0.929 . S
H105 C77 0.931 . S
H106 C79 0.930 . S
H107 C80 0.930 . S
H108 C85 0.929 . S
H109 C86 0.931 . S
H110 C88 0.930 . S
H111 C89 0.930 . S
Tb112 C114 2.809 . S
Tb112 O132 2.484 . S
Tb112 O133 2.440 . S
Tb112 O134 2.658 1_545 S
Tb112 O135 2.409 1_545 S
Tb112 O136 2.378 . S
Tb112 O140 2.325 1_554 S
Tb112 O143 2.341 1_544 S
Tb113 C123 2.802 1_545 S
Tb113 O134 2.316 1_546 S
Tb113 O137 2.349 1_556 S
Tb113 O138 2.474 1_545 S
Tb113 O139 2.439 1_545 S
Tb113 O140 2.662 . S
Tb113 O141 2.417 . S
Tb113 O142 2.370 1_545 S
C114 Tb112 2.809 . S
C114 C115 1.514 . S
C114 O132 1.248 . S
C114 O133 1.266 . S
C115 C114 1.514 . S
C115 C116 1.359 . S
C115 C120 1.348 . S
C116 C115 1.359 . S
C116 C117 1.380 . S
C116 H144 0.929 . S
C117 C116 1.380 . S
C117 C118 1.347 . S
C117 H145 0.931 . S
C118 C117 1.347 . S
C118 C119 1.369 . S
C119 C118 1.369 . S
C119 C120 1.408 . S
C119 H146 0.930 . S
C120 C115 1.348 . S
C120 C119 1.408 . S
C120 H147 0.930 . S
C121 O134 1.281 . S
C121 O135 1.254 . S
C122 O136 1.236 . S
C122 O137 1.266 . S
C123 Tb113 2.802 1_565 S
C123 C124 1.514 . S
C123 O138 1.248 . S
C123 O139 1.266 . S
C124 C123 1.514 . S
C124 C125 1.359 . S
C124 C129 1.348 . S
C125 C124 1.359 . S
C125 C126 1.380 . S
C125 H148 0.929 . S
C126 C125 1.380 . S
C126 C127 1.347 . S
C126 H149 0.931 . S
C127 C126 1.347 . S
C127 C128 1.369 . S
C128 C127 1.369 . S
C128 C129 1.408 . S
C128 H150 0.930 . S
C129 C124 1.348 . S
C129 C128 1.408 . S
C129 H151 0.930 . S
C130 O140 1.281 . S
C130 O141 1.254 . S
C131 O142 1.236 . S
C131 O143 1.266 . S
O132 Tb112 2.484 . S
O132 C114 1.248 . S
O133 Tb112 2.440 . S
O133 C114 1.266 . S
O134 Tb112 2.658 1_565 S
O134 Tb113 2.316 1_564 S
O134 C121 1.281 . S
O135 Tb112 2.409 1_565 S
O135 C121 1.254 . S
O136 Tb112 2.378 . S
O136 C122 1.236 . S
O137 Tb113 2.349 1_554 S
O137 C122 1.266 . S
O138 Tb113 2.474 1_565 S
O138 C123 1.248 . S
O139 Tb113 2.439 1_565 S
O139 C123 1.266 . S
O140 Tb112 2.325 1_556 S
O140 Tb113 2.662 . S
O140 C130 1.281 . S
O141 Tb113 2.417 . S
O141 C130 1.254 . S
O142 Tb113 2.370 1_565 S
O142 C131 1.236 . S
O143 Tb112 2.341 1_566 S
O143 C131 1.266 . S
H144 C116 0.929 . S
H145 C117 0.931 . S
H146 C119 0.930 . S
H147 C120 0.930 . S
H148 C125 0.929 . S
H149 C126 0.931 . S
H150 C128 0.930 . S
H151 C129 0.930 . S
Tb152 C154 2.809 . S
Tb152 O172 2.484 . S
Tb152 O173 2.440 . S
Tb152 O174 2.658 . S
Tb152 O175 2.409 . S
Tb152 O176 2.378 . S
Tb152 O180 2.325 . S
Tb152 O183 2.341 . S
Tb153 C163 2.809 . S
Tb153 O174 2.325 . S
Tb153 O177 2.341 . S
Tb153 O178 2.484 . S
Tb153 O179 2.440 . S
Tb153 O180 2.658 . S
Tb153 O181 2.409 . S
Tb153 O182 2.378 . S
C154 Tb152 2.809 . S
C154 C155 1.514 . S
C154 O172 1.248 . S
C154 O173 1.266 . S
C155 C154 1.514 . S
C155 C156 1.359 . S
C155 C160 1.348 . S
C156 C155 1.359 . S
C156 C157 1.380 . S
C156 H184 0.929 . S
C157 C156 1.380 . S
C157 C158 1.347 . S
C157 H185 0.931 . S
C158 C157 1.347 . S
C158 C159 1.369 . S
C159 C158 1.369 . S
C159 C160 1.408 . S
C159 H186 0.930 . S
C160 C155 1.348 . S
C160 C159 1.408 . S
C160 H187 0.930 . S
C161 O174 1.281 . S
C161 O175 1.254 . S
C162 O176 1.236 . S
C162 O177 1.266 . S
C163 Tb153 2.809 . S
C163 C164 1.514 . S
C163 O178 1.248 . S
C163 O179 1.266 . S
C164 C163 1.514 . S
C164 C165 1.359 . S
C164 C169 1.348 . S
C165 C164 1.359 . S
C165 C166 1.380 . S
C165 H188 0.929 . S
C166 C165 1.380 . S
C166 C167 1.347 . S
C166 H189 0.931 . S
C167 C166 1.347 . S
C167 C168 1.369 . S
C168 C167 1.369 . S
C168 C169 1.408 . S
C168 H190 0.930 . S
C169 C164 1.348 . S
C169 C168 1.408 . S
C169 H191 0.930 . S
C170 O180 1.281 . S
C170 O181 1.254 . S
C171 O182 1.236 . S
C171 O183 1.266 . S
O172 Tb152 2.484 . S
O172 C154 1.248 . S
O173 Tb152 2.440 . S
O173 C154 1.266 . S
O174 Tb152 2.658 . S
O174 Tb153 2.325 . S
O174 C161 1.281 . S
O175 Tb152 2.409 . S
O175 C161 1.254 . S
O176 Tb152 2.378 . S
O176 C162 1.236 . S
O177 Tb153 2.341 . S
O177 C162 1.266 . S
O178 Tb153 2.484 . S
O178 C163 1.248 . S
O179 Tb153 2.440 . S
O179 C163 1.266 . S
O180 Tb152 2.325 . S
O180 Tb153 2.658 . S
O180 C170 1.281 . S
O181 Tb153 2.409 . S
O181 C170 1.254 . S
O182 Tb153 2.378 . S
O182 C171 1.236 . S
O183 Tb152 2.341 . S
O183 C171 1.266 . S
H184 C156 0.929 . S
H185 C157 0.931 . S
H186 C159 0.930 . S
H187 C160 0.930 . S
H188 C165 0.929 . S
H189 C166 0.931 . S
H190 C168 0.930 . S
H191 C169 0.930 . S
Tb192 C194 2.809 . S
Tb192 O212 2.484 . S
Tb192 O213 2.440 . S
Tb192 O214 2.658 1_656 S
Tb192 O215 2.409 1_656 S
Tb192 O216 2.378 1_556 S
Tb192 O220 2.325 . S
Tb192 O223 2.341 1_655 S
Tb193 C203 2.809 . S
Tb193 O214 2.325 . S
Tb193 O217 2.341 1_455 S
Tb193 O218 2.484 . S
Tb193 O219 2.440 . S
Tb193 O220 2.658 1_454 S
Tb193 O221 2.408 1_455 S
Tb193 O222 2.378 1_554 S
C194 Tb192 2.809 . S
C194 C195 1.514 . S
C194 O212 1.248 . S
C194 O213 1.266 . S
C195 C194 1.514 . S
C195 C196 1.359 . S
C195 C200 1.348 . S
C196 C195 1.359 . S
C196 C197 1.380 . S
C196 H224 0.929 . S
C197 C196 1.380 . S
C197 C198 1.347 . S
C197 H225 0.931 . S
C198 C197 1.347 . S
C198 C199 1.369 . S
C199 C198 1.369 . S
C199 C200 1.408 . S
C199 H226 0.930 . S
C200 C195 1.348 . S
C200 C199 1.408 . S
C200 H227 0.930 . S
C201 O214 1.281 . S
C201 O215 1.254 . S
C202 O216 1.236 . S
C202 O217 1.266 . S
C203 Tb193 2.809 . S
C203 C204 1.514 . S
C203 O218 1.248 . S
C203 O219 1.266 . S
C204 C203 1.514 . S
C204 C205 1.359 . S
C204 C209 1.348 . S
C205 C204 1.359 . S
C205 C206 1.380 . S
C205 H228 0.929 . S
C206 C205 1.380 . S
C206 C207 1.347 . S
C206 H229 0.931 . S
C207 C206 1.347 . S
C207 C208 1.369 . S
C208 C207 1.369 . S
C208 C209 1.408 . S
C208 H230 0.930 . S
C209 C204 1.348 . S
C209 C208 1.408 . S
C209 H231 0.930 . S
C210 O220 1.281 . S
C210 O221 1.254 1_556 S
C211 O222 1.236 . S
C211 O223 1.266 . S
O212 Tb192 2.484 . S
O212 C194 1.248 . S
O213 Tb192 2.440 . S
O213 C194 1.266 . S
O214 Tb192 2.658 1_454 S
O214 Tb193 2.325 . S
O214 C201 1.281 . S
O215 Tb192 2.409 1_454 S
O215 C201 1.254 . S
O216 Tb192 2.378 1_554 S
O216 C202 1.236 . S
O217 Tb193 2.341 1_655 S
O217 C202 1.266 . S
O218 Tb193 2.484 . S
O218 C203 1.248 . S
O219 Tb193 2.440 . S
O219 C203 1.266 . S
O220 Tb192 2.325 . S
O220 Tb193 2.658 1_656 S
O220 C210 1.281 . S
O221 Tb193 2.408 1_655 S
O221 C210 1.254 1_554 S
O222 Tb193 2.378 1_556 S
O222 C211 1.236 . S
O223 Tb192 2.341 1_455 S
O223 C211 1.266 . S
H224 C196 0.929 . S
H225 C197 0.931 . S
H226 C199 0.930 . S
H227 C200 0.930 . S
H228 C205 0.929 . S
H229 C206 0.931 . S
H230 C208 0.930 . S
H231 C209 0.930 . S
C5 C87 1.397 . S
C14 C127 0.494 . S
C161 C25 3.803 . S
C34 C202 3.942 . S
C122 C7 1.870 . S
C82 C13 2.365 1_455 S
C210 C23 2.706 . S
C171 C31 2.583 . S
C4 C207 2.612 . S
C130 C22 3.168 . S
C32 C90 3.493 . S
C16 C158 1.962 . S
C78 C41 1.368 . S
C50 C118 0.519 . S
C61 C170 3.801 . S
C67 C211 3.953 . S
C40 C131 1.880 . S
C91 C52 2.329 1_655 S
C201 C59 2.685 . S
C162 C70 2.577 . S
C43 C198 2.592 . S
C121 C58 3.184 . S
C81 C68 3.470 . S
C49 C167 1.995 . S
