# Generated by pormake.
# Topology rtl, (3,6)-cn, num edge types: 1
# Building blocks:
#     Node 0, Type 0, BuildingBlock: INOVEN_clean_linker_0, # of connection points: 3
#     Node 1, Type 0, BuildingBlock: INOVEN_clean_linker_0, # of connection points: 3
#     Node 2, Type 0, BuildingBlock: INOVEN_clean_linker_0, # of connection points: 3
#     Node 3, Type 0, BuildingBlock: INOVEN_clean_linker_0, # of connection points: 3
#     Node 4, Type 1, BuildingBlock: CIFDUS_clean_sbu_1, # of connection points: 6
#     Node 5, Type 1, BuildingBlock: CIFDUS_clean_sbu_1, # of connection points: 6
#     Edge 6, Type (0, 1), None
#     Edge 7, Type (0, 1), None
#     Edge 8, Type (0, 1), None
#     Edge 9, Type (0, 1), None
#     Edge 10, Type (0, 1), None
#     Edge 11, Type (0, 1), None
#     Edge 12, Type (0, 1), None
#     Edge 13, Type (0, 1), None
#     Edge 14, Type (0, 1), None
#     Edge 15, Type (0, 1), None
#     Edge 16, Type (0, 1), None
#     Edge 17, Type (0, 1), None
# Relax obj value: 0.017
# Max RMSD: 0.097
# Mean RMSD: 0.072
data_MOF--net-rtl--node1-CIFDUS_clean_sbu_1--node2-INOVEN_clean_linker_0--edge1-none
_symmetry_space_group_name_H-M    P1
_symmetry_Int_Tables_number       1
_symmetry_cell_setting            triclinic
loop_
_symmetry_equiv_pos_as_xyz
'x, y, z'
_cell_length_a     15.787793
_cell_length_b     16.143427
_cell_length_c     9.3066296
_cell_angle_alpha  90.375314
_cell_angle_beta   103.3692
_cell_angle_gamma 91.658007
loop_
_atom_site_label
_atom_site_type_symbol
_atom_site_fract_x
_atom_site_fract_y
_atom_site_fract_z
_atom_type_partial_charge
H0 H 0.24287 0.83922 0.87888 0.0
H1 H 0.12843 0.00499 0.13594 0.0
H2 H 0.21406 0.76616 0.30862 0.0
N3 N 0.27016 0.71975 0.06346 0.0
N4 N 0.34655 0.6971 0.1098 0.0
C5 C 0.22546 0.85459 0.98179 0.0
C6 C 0.18632 0.92948 0.99511 0.0
C7 C 0.24057 0.7977 0.09763 0.0
C8 C 0.21115 0.81392 0.22653 0.0
C9 C 0.17184 0.89013 0.24274 0.0
C10 C 0.16259 0.94835 0.12807 0.0
H11 H 0.71081 0.76856 0.82922 0.0
H12 H 0.61679 0.52929 0.6433 0.0
H13 H 0.72815 0.7029 0.38765 0.0
N14 N 0.76978 0.81908 0.58705 0.0
N15 N 0.85033 0.83228 0.61944 0.0
C16 C 0.70415 0.72237 0.74207 0.0
C17 C 0.66337 0.64418 0.75415 0.0
C18 C 0.73195 0.7414 0.61191 0.0
C19 C 0.71154 0.68612 0.4906 0.0
C20 C 0.67005 0.6099 0.50127 0.0
C21 C 0.65085 0.58786 0.63587 0.0
H22 H 0.88011 0.28039 0.80756 0.0
H23 H 0.95876 0.03946 0.97511 0.0
H24 H 0.84626 0.20585 0.23402 0.0
N25 N 0.8181 0.32543 0.04572 0.0
N26 N 0.73851 0.33867 1.01212 0.0
C27 C 0.88151 0.23244 0.88891 0.0
C28 C 0.91921 0.15577 0.87295 0.0
C29 C 0.85063 0.24818 1.01611 0.0
C30 C 0.86425 0.19076 0.13153 0.0
C31 C 0.90268 0.11544 0.11706 0.0
C32 C 0.92565 0.09664 0.98433 0.0
H33 H 0.314 0.28993 0.23477 0.0
H34 H 0.5056 0.42419 0.56014 0.0
H35 H 0.25641 0.36205 0.64694 0.0
N36 N 0.19335 0.2771 0.37875 0.0
N37 N 0.15041 0.22105 0.42614 0.0
C38 C 0.33499 0.31585 0.34556 0.0
C39 C 0.41492 0.3586 0.3861 0.0
C40 C 0.27932 0.30955 0.4429 0.0
C41 C 0.30374 0.35256 0.58142 0.0
C42 C 0.38834 0.38983 0.62894 0.0
C43 C 0.44311 0.39121 0.52971 0.0
O44 O 0.97073 0.08328 0.36773 0.0
Mn45 Mn 0.04 0.02218 0.5565 0.0
O46 O 0.91012 0.98116 0.20939 0.0
Mn47 Mn 0.94667 0.89702 0.33954 0.0
O48 O 0.10949 0.96325 0.7493 0.0
O49 O 0.12851 0.1177 0.59389 0.0
Mn50 Mn 0.15394 0.15092 0.77904 0.0
O51 O 0.967 0.0801 0.68856 0.0
O52 O 0.19575 0.06081 0.89312 0.0
O53 O 0.11756 0.96765 0.42277 0.0
O54 O 0.04962 0.85112 0.32633 0.0
O55 O 0.21596 0.22072 0.68143 0.0
O56 O 0.04906 0.18692 0.80935 0.0
C57 C 0.88828 0.86409 0.50678 0.0
C58 C 0.92592 0.05746 0.24072 0.0
C59 C 0.16504 0.98677 0.86916 0.0
C60 C 0.17275 0.18155 0.56485 0.0
C61 C 0.97744 0.14518 0.77275 0.0
C62 C 0.11582 0.89932 0.3493 0.0
O63 O 0.94709 0.92532 0.52543 0.0
O64 O 0.86512 0.82823 0.37788 0.0
O65 O 0.60881 0.57172 0.24568 0.0
Mn66 Mn 0.53556 0.50096 0.06486 0.0
O67 O 0.65537 0.47538 0.41132 0.0
Mn68 Mn 0.63304 0.38849 0.28078 0.0
O69 O 0.46185 0.42972 0.88068 0.0
O70 O 0.44164 0.59465 0.04567 0.0
Mn71 Mn 0.44076 0.60989 0.85413 0.0
O72 O 0.61049 0.55946 0.92765 0.0
O73 O 0.39843 0.52432 0.72341 0.0
O74 O 0.46503 0.44005 0.20735 0.0
O75 O 0.53756 0.32816 0.30042 0.0
O76 O 0.3571 0.67419 0.87109 0.0
O77 O 0.53806 0.668 0.83144 0.0
C78 C 0.70389 0.38099 0.11782 0.0
C79 C 0.64606 0.55017 0.37699 0.0
C80 C 0.41232 0.44945 0.75573 0.0
C81 C 0.38121 0.65135 1.00747 0.0
C82 C 0.60739 0.62872 0.85874 0.0
C83 C 0.47038 0.37157 0.28069 0.0
O84 O 0.62267 0.40443 0.08675 0.0
O85 O 0.73457 0.35711 0.25207 0.0
loop_
_geom_bond_atom_site_label_1
_geom_bond_atom_site_label_2
_geom_bond_distance
_geom_bond_site_symmetry_2
_ccdc_geom_bond_type
H0 C5 0.929 . S
H1 C10 0.931 . S
H2 C8 0.930 . S
N3 N4 1.234 . S
N3 C7 1.453 . S
N4 N3 1.234 . S
C5 H0 0.929 . S
C5 C6 1.373 . S
C5 C7 1.368 1_556 S
C6 C5 1.373 . S
C6 C10 1.397 1_556 S
C7 N3 1.453 . S
C7 C5 1.368 1_554 S
C7 C8 1.373 . S
C8 H2 0.930 . S
C8 C7 1.373 . S
C8 C9 1.371 . S
C9 C8 1.371 . S
C9 C10 1.383 . S
C10 H1 0.931 . S
C10 C6 1.397 1_554 S
C10 C9 1.383 . S
H11 C16 0.929 . S
H12 C21 0.931 . S
H13 C19 0.930 . S
N14 N15 1.234 . S
N14 C18 1.453 . S
N15 N14 1.234 . S
C16 H11 0.929 . S
C16 C17 1.373 . S
C16 C18 1.368 . S
C17 C16 1.373 . S
C17 C21 1.397 . S
C18 N14 1.453 . S
C18 C16 1.368 . S
C18 C19 1.373 . S
C19 H13 0.930 . S
C19 C18 1.373 . S
C19 C20 1.371 . S
C20 C19 1.371 . S
C20 C21 1.383 . S
C21 H12 0.931 . S
C21 C17 1.397 . S
C21 C20 1.383 . S
H22 C27 0.929 . S
H23 C32 0.930 1_554 S
H24 C30 0.930 . S
N25 N26 1.234 1_556 S
N25 C29 1.453 . S
N26 N25 1.234 1_554 S
C27 H22 0.929 . S
C27 C28 1.373 . S
C27 C29 1.368 . S
C28 C27 1.373 . S
C28 C32 1.405 . S
C29 N25 1.453 . S
C29 C27 1.368 . S
C29 C30 1.373 1_556 S
C30 H24 0.930 . S
C30 C29 1.373 1_554 S
C30 C31 1.371 . S
C31 C30 1.371 . S
C31 C32 1.376 1_554 S
C32 H23 0.930 1_556 S
C32 C28 1.405 . S
C32 C31 1.376 1_556 S
H33 C38 0.929 . S
H34 C43 0.931 . S
H35 C41 0.930 . S
N36 N37 1.234 . S
N36 C40 1.453 . S
N37 N36 1.234 . S
C38 H33 0.929 . S
C38 C39 1.373 . S
C38 C40 1.368 . S
C39 C38 1.373 . S
C39 C43 1.397 . S
C40 N36 1.453 . S
C40 C38 1.368 . S
C40 C41 1.373 . S
C41 H35 0.930 . S
C41 C40 1.373 . S
C41 C42 1.371 . S
C42 C41 1.371 . S
C42 C43 1.383 . S
C43 H34 0.931 . S
C43 C39 1.397 . S
C43 C42 1.383 . S
O44 Mn45 2.163 1_655 S
O44 C58 1.244 . S
Mn45 O44 2.163 1_455 S
Mn45 O48 2.160 1_545 S
Mn45 O49 2.221 . S
Mn45 O51 2.163 1_455 S
Mn45 O53 2.160 1_545 S
Mn45 O63 2.221 1_445 S
O46 Mn47 2.087 1_545 S
O46 C58 1.256 . S
Mn47 O46 2.087 1_565 S
Mn47 O54 2.089 1_655 S
Mn47 O63 2.290 . S
Mn47 O64 2.251 . S
O48 Mn45 2.160 1_565 S
O48 C59 1.239 . S
O49 Mn45 2.221 . S
O49 Mn50 2.290 . S
O49 C60 1.278 . S
Mn50 O49 2.290 . S
Mn50 O52 2.089 . S
Mn50 O55 2.251 . S
Mn50 O56 2.087 . S
O51 Mn45 2.163 1_655 S
O51 C61 1.244 . S
O52 Mn50 2.089 . S
O52 C59 1.256 1_545 S
O53 Mn45 2.160 1_565 S
O53 C62 1.239 . S
O54 Mn47 2.089 1_455 S
O54 C62 1.256 . S
O55 Mn50 2.251 . S
O55 C60 1.241 . S
O56 Mn50 2.087 . S
O56 C61 1.256 1_455 S
C57 O63 1.278 . S
C57 O64 1.241 . S
C58 O44 1.244 . S
C58 O46 1.256 . S
C59 O48 1.239 . S
C59 O52 1.256 1_565 S
C60 O49 1.278 . S
C60 O55 1.241 . S
C61 O51 1.244 . S
C61 O56 1.256 1_655 S
C62 O53 1.239 . S
C62 O54 1.256 . S
O63 Mn45 2.221 1_665 S
O63 Mn47 2.290 . S
O63 C57 1.278 . S
O64 Mn47 2.251 . S
O64 C57 1.241 . S
O65 Mn66 2.163 . S
O65 C79 1.244 . S
Mn66 O65 2.163 . S
Mn66 O69 2.160 1_554 S
Mn66 O70 2.221 1_554 S
Mn66 O72 2.163 1_554 S
Mn66 O74 2.160 . S
Mn66 O84 2.221 . S
O67 Mn68 2.087 . S
O67 C79 1.256 . S
Mn68 O67 2.087 . S
Mn68 O75 2.089 . S
Mn68 O84 2.290 . S
Mn68 O85 2.251 . S
O69 Mn66 2.160 1_556 S
O69 C80 1.239 . S
O70 Mn66 2.221 1_556 S
O70 Mn71 2.290 . S
O70 C81 1.278 1_556 S
Mn71 O70 2.290 . S
Mn71 O73 2.089 . S
Mn71 O76 2.251 . S
Mn71 O77 2.087 . S
O72 Mn66 2.163 1_556 S
O72 C82 1.244 . S
O73 Mn71 2.089 . S
O73 C80 1.256 . S
O74 Mn66 2.160 . S
O74 C83 1.239 . S
O75 Mn68 2.089 . S
O75 C83 1.256 . S
O76 Mn71 2.251 . S
O76 C81 1.241 1_556 S
O77 Mn71 2.087 . S
O77 C82 1.256 . S
C78 O84 1.278 . S
C78 O85 1.241 . S
C79 O65 1.244 . S
C79 O67 1.256 . S
C80 O69 1.239 . S
C80 O73 1.256 . S
C81 O70 1.278 1_554 S
C81 O76 1.241 1_554 S
C82 O72 1.244 . S
C82 O77 1.256 . S
C83 O74 1.239 . S
C83 O75 1.256 . S
O84 Mn66 2.221 . S
O84 Mn68 2.290 . S
O84 C78 1.278 . S
O85 Mn68 2.251 . S
O85 C78 1.241 . S
C60 N37 1.134 . S
N4 C81 1.550 . S
N15 C57 1.409 . S
N26 C78 1.311 . S
C62 C9 1.502 . S
C82 C17 1.539 . S
C31 C58 1.610 . S
C42 C80 1.385 . S
C79 C20 1.475 . S
C61 C28 1.421 . S
C83 C39 1.426 . S
C6 C59 1.317 . S
