# Generated by pormake.
# Topology pts, (4,4)-cn, num edge types: 1
# Building blocks:
#     Node 0, Type 0, BuildingBlock: KUFVIS_clean_linker_0, # of connection points: 4
#     Node 1, Type 0, BuildingBlock: KUFVIS_clean_linker_0, # of connection points: 4
#     Node 2, Type 1, BuildingBlock: AZAVOO_clean_sbu_0, # of connection points: 4
#     Node 3, Type 1, BuildingBlock: AZAVOO_clean_sbu_0, # of connection points: 4
#     Edge 4, Type (0, 1), BuildingBlock: OJICUG_clean_linker_0, # of connection points: 2
#     Edge 5, Type (0, 1), BuildingBlock: OJICUG_clean_linker_0, # of connection points: 2
#     Edge 6, Type (0, 1), BuildingBlock: OJICUG_clean_linker_0, # of connection points: 2
#     Edge 7, Type (0, 1), BuildingBlock: OJICUG_clean_linker_0, # of connection points: 2
#     Edge 8, Type (0, 1), BuildingBlock: OJICUG_clean_linker_0, # of connection points: 2
#     Edge 9, Type (0, 1), BuildingBlock: OJICUG_clean_linker_0, # of connection points: 2
#     Edge 10, Type (0, 1), BuildingBlock: OJICUG_clean_linker_0, # of connection points: 2
#     Edge 11, Type (0, 1), BuildingBlock: OJICUG_clean_linker_0, # of connection points: 2
# Relax obj value: 0.013
# Max RMSD: 0.077
# Mean RMSD: 0.072
data_MOF--net-pts--node1-AZAVOO_clean_sbu_0--node2-KUFVIS_clean_linker_0--edge1-OJICUG_clean_linker_0
_symmetry_space_group_name_H-M    P1
_symmetry_Int_Tables_number       1
_symmetry_cell_setting            triclinic
loop_
_symmetry_equiv_pos_as_xyz
'x, y, z'
_cell_length_a     17.479323
_cell_length_b     19.069633
_cell_length_c     27.169966
_cell_angle_alpha  90.030936
_cell_angle_beta   96.39438
_cell_angle_gamma 89.771063
loop_
_atom_site_label
_atom_site_type_symbol
_atom_site_fract_x
_atom_site_fract_y
_atom_site_fract_z
_atom_type_partial_charge
H0 H 0.296 0.03358 -0.03494 0.0
H1 H 0.49052 0.02517 0.88244 0.0
H2 H 0.5203 0.07833 0.03787 0.0
H3 H 0.63048 0.02529 0.03676 0.0
H4 H 0.82493 0.03293 0.9541 0.0
H5 H 0.60036 0.07788 0.88122 0.0
C6 C 0.35704 0.04089 -0.03676 0.0
C7 C 0.40495 0.05665 0.00665 0.0
C8 C 0.38718 0.03168 0.91794 0.0
C9 C 0.46742 0.03508 0.91701 0.0
C10 C 0.51742 0.05058 -0.03989 0.0
C11 C 0.48456 0.06323 0.00452 0.0
C12 C 0.6034 0.05046 -0.04096 0.0
C13 C 0.6535 0.03501 0.00216 0.0
C14 C 0.73376 0.03143 0.00123 0.0
C15 C 0.76384 0.04038 0.95592 0.0
C16 C 0.71583 0.05605 0.91248 0.0
C17 C 0.63618 0.06283 0.91459 0.0
H18 H 0.06325 0.76891 0.45834 0.0
H19 H 0.04855 0.57728 0.53768 0.0
H20 H 0.07342 0.57564 0.38011 0.0
H21 H 1.02228 0.47292 0.38014 0.0
H22 H 0.0562 0.28077 0.46018 0.0
H23 H 0.09788 0.47341 0.5383 0.0
C24 C 0.06276 0.71198 0.45855 0.0
C25 C 0.06488 0.67555 0.41419 0.0
C26 C 0.05971 0.67638 0.50312 0.0
C27 C 0.05551 0.60304 0.50306 0.0
C28 C 0.06101 0.56433 0.45896 0.0
C29 C 0.06732 0.60213 0.41462 0.0
C30 C 0.05993 0.48541 0.45922 0.0
C31 C 1.03951 0.44697 0.41497 0.0
C32 C 1.03955 0.37355 0.41538 0.0
C33 C 0.0571 0.33772 0.4599 0.0
C34 C 0.07634 0.37397 0.50404 0.0
C35 C 0.07929 0.4473 0.50376 0.0
Mg36 Mg 0.11344 0.01296 0.24201 0.0
O37 O 1.00745 1.00562 0.18441 0.0
O38 O 0.90384 0.983 0.22306 0.0
Mg39 Mg 0.94348 0.97713 0.3059 0.0
C40 C 0.93532 0.99454 0.18369 0.0
C41 C 0.2532 0.0373 0.18403 0.0
O42 O 0.28328 0.99767 0.22081 0.0
O43 O 0.07414 0.122 0.26441 0.0
O44 O 0.9748 0.09392 0.30569 0.0
O45 O 0.13457 0.89643 0.24057 0.0
O46 O 0.06029 0.94911 0.2899 0.0
C47 C 1.01987 0.13936 0.28998 0.0
C48 C 0.08843 0.89176 0.2745 0.0
O49 O 0.1832 0.05625 0.18291 0.0
Mg50 Mg 1.00795 0.01284 0.67693 0.0
O51 O 0.11394 1.00563 0.73459 0.0
O52 O 0.21803 0.98419 0.69595 0.0
Mg53 Mg 0.17868 0.97903 0.61306 0.0
C54 C 0.18625 0.99504 0.73533 0.0
C55 C 0.86774 0.0361 0.73511 0.0
O56 O 0.83796 0.99658 0.69827 0.0
O57 O 0.04544 0.12234 0.65507 0.0
O58 O 0.14543 0.09558 0.61378 0.0
O59 O 0.98875 0.89617 0.6777 0.0
O60 O 0.06218 0.95 0.62868 0.0
C61 C 0.09948 0.14044 0.62966 0.0
C62 C 1.03489 0.89225 0.64369 0.0
O63 O 0.93753 0.05517 0.7362 0.0
C64 C 0.40751 0.02718 0.09685 0.0
C65 C 0.37152 0.0613 0.05457 0.0
H66 H 0.39861 0.99321 0.17101 0.0
C67 C 0.29981 0.09402 0.05722 0.0
H68 H 0.46247 1.00102 0.09598 0.0
C69 C 0.26282 0.08906 0.10011 0.0
C70 C 0.29682 0.05138 0.14137 0.0
H71 H 0.27119 0.12177 0.02554 0.0
H72 H 0.20638 0.11267 0.10025 0.0
C73 C 0.37059 0.02233 0.1398 0.0
C74 C 1.03197 0.31588 0.5774 0.0
C75 C 0.09253 0.33238 0.54965 0.0
H76 H 0.98703 0.24181 0.62587 0.0
C77 C 0.16118 0.29378 0.55692 0.0
H78 H 0.97808 0.34456 0.5716 0.0
C79 C 0.16637 0.23489 0.58758 0.0
C80 C 0.10258 0.21328 0.61104 0.0
H81 H 0.20814 0.30532 0.53535 0.0
H82 H 0.21809 0.20306 0.58952 0.0
C83 C 1.03708 0.25682 0.6082 0.0
C84 C 0.7654 0.9749 0.08522 0.0
C85 C 0.78666 0.01882 0.04742 0.0
H86 H 0.79559 0.93294 0.158 0.0
C87 C 0.85885 0.0521 0.05441 0.0
H88 H 0.71124 0.94704 0.08091 0.0
C89 C 0.90809 0.04213 0.09793 0.0
C90 C 0.88576 0.99993 0.1361 0.0
H91 H 0.87686 0.08743 0.02676 0.0
H92 H 0.96262 0.06952 0.10235 0.0
C93 C 0.81406 0.9662 0.12928 0.0
C94 C 0.99804 0.72071 0.57625 0.0
C95 C 0.06171 0.71814 0.54904 0.0
H96 H 0.93998 0.77864 0.62894 0.0
C97 C 0.12262 0.76512 0.56053 0.0
H98 H 0.9503 0.68504 0.56777 0.0
C99 C 0.11678 0.81829 0.59507 0.0
C100 C 0.04988 0.8256 0.61875 0.0
H101 H 0.17264 0.76354 0.54028 0.0
H102 H 0.16293 0.8559 0.60104 0.0
C103 C 0.99225 0.77418 0.61114 0.0
C104 C 0.35605 0.9751 0.83395 0.0
C105 C 0.33439 0.01903 0.87175 0.0
H106 H 0.32635 0.93325 0.76111 0.0
C107 C 0.26192 0.05234 0.86472 0.0
H108 H 0.41041 0.94718 0.83828 0.0
C109 C 0.21284 0.04243 0.82116 0.0
C110 C 0.23561 1.00028 0.78298 0.0
H111 H 0.24358 0.08768 0.89236 0.0
H112 H 0.1581 0.06985 0.8167 0.0
C113 C 0.30756 0.96648 0.78984 0.0
C114 C 0.08337 0.31615 0.34137 0.0
C115 C 1.02337 0.33143 0.37 0.0
H116 H 0.12906 0.2429 0.29234 0.0
C117 C 0.95596 0.29142 0.3637 0.0
H118 H 0.13633 0.34594 0.34637 0.0
C119 C 0.95171 0.23244 0.33313 0.0
C120 C 1.01527 0.21206 0.3088 0.0
H121 H 0.90943 0.30205 0.3859 0.0
H122 H 0.90106 0.19967 0.3319 0.0
C123 C 0.07926 0.2569 0.31072 0.0
C124 C 0.71357 0.02613 0.82235 0.0
C125 C 0.74924 0.06044 0.86456 0.0
H126 H 0.7228 0.99186 0.74825 0.0
C127 C 0.82065 0.09313 0.86186 0.0
H128 H 0.65884 0.99999 0.82328 0.0
C129 C 0.85769 0.088 0.81898 0.0
C130 C 0.82403 0.05018 0.77778 0.0
H131 H 0.84902 0.12102 0.89349 0.0
H132 H 0.9139 0.11164 0.8188 0.0
C133 C 0.75054 0.0211 0.77941 0.0
C134 C 0.12757 0.72039 0.34188 0.0
C135 C 0.06286 0.71666 0.36805 0.0
H136 H 0.186 0.77957 0.29027 0.0
C137 C 1.0009 0.76267 0.35575 0.0
H138 H 0.17615 0.68555 0.35109 0.0
C139 C 1.00651 0.81613 0.32146 0.0
C140 C 0.07421 0.82465 0.29887 0.0
H141 H 0.95023 0.76028 0.37533 0.0
H142 H 0.95948 0.85309 0.31488 0.0
C143 C 0.1331 0.77411 0.30721 0.0
loop_
_geom_bond_atom_site_label_1
_geom_bond_atom_site_label_2
_geom_bond_distance
_geom_bond_site_symmetry_2
_ccdc_geom_bond_type
H0 C6 0.928 1_565 S
H1 C9 0.931 . S
H2 C11 0.932 . S
H3 C13 0.930 . S
H4 C15 0.930 . S
H5 C17 0.931 . S
C6 H0 0.928 1_545 S
C6 C7 1.368 1_546 S
C6 C8 1.409 . S
C7 C6 1.368 1_564 S
C7 C11 1.383 . S
C8 C6 1.409 . S
C8 C9 1.400 . S
C9 H1 0.931 . S
C9 C8 1.400 . S
C9 C10 1.358 1_556 S
C10 C9 1.358 1_554 S
C10 C11 1.433 1_545 S
C10 C12 1.499 . S
C11 H2 0.932 . S
C11 C7 1.383 . S
C11 C10 1.433 1_565 S
C12 C10 1.499 . S
C12 C13 1.384 . S
C12 C17 1.407 1_544 S
C13 H3 0.930 . S
C13 C12 1.384 . S
C13 C14 1.389 . S
C14 C13 1.389 . S
C14 C15 1.405 . S
C15 H4 0.930 . S
C15 C14 1.405 . S
C15 C16 1.363 1_544 S
C16 C15 1.363 1_566 S
C16 C17 1.400 . S
C17 H5 0.931 . S
C17 C12 1.407 1_566 S
C17 C16 1.400 . S
H18 C24 0.930 . S
H19 C27 0.931 1_655 S
H20 C29 0.931 . S
H21 C31 0.930 . S
H22 C33 0.930 . S
H23 C35 0.931 . S
C24 H18 0.930 . S
C24 C25 1.380 . S
C24 C26 1.394 . S
C25 C24 1.380 . S
C25 C29 1.382 . S
C26 C24 1.394 . S
C26 C27 1.400 . S
C27 H19 0.931 1_455 S
C27 C26 1.400 . S
C27 C28 1.375 . S
C28 C27 1.375 . S
C28 C29 1.415 . S
C28 C30 1.501 . S
C29 H20 0.931 . S
C29 C25 1.382 . S
C29 C28 1.415 . S
C30 C28 1.501 . S
C30 C31 1.384 . S
C30 C35 1.408 . S
C31 H21 0.930 . S
C31 C30 1.384 . S
C31 C32 1.389 . S
C32 C31 1.389 . S
C32 C33 1.405 . S
C33 H22 0.930 . S
C33 C32 1.405 . S
C33 C34 1.364 . S
C34 C33 1.364 . S
C34 C35 1.400 . S
C35 H23 0.931 . S
C35 C30 1.408 . S
C35 C34 1.400 . S
Mg36 O37 2.028 1_455 S
Mg36 O43 1.986 . S
Mg36 O45 2.114 1_545 S
Mg36 O46 2.251 1_545 S
Mg36 O49 2.010 . S
O37 Mg36 2.028 1_655 S
O37 C40 1.250 . S
O38 Mg39 2.028 . S
O38 C40 1.248 . S
Mg39 O38 2.028 . S
Mg39 O44 2.032 . S
Mg39 O46 2.079 1_645 S
C40 O37 1.250 . S
C40 O38 1.248 . S
C41 O42 1.264 . S
C41 O49 1.249 . S
O42 C41 1.264 . S
O43 Mg36 1.986 . S
O43 C47 1.246 . S
O44 Mg39 2.032 . S
O44 C47 1.259 1_655 S
O45 Mg36 2.114 1_565 S
O45 C48 1.252 . S
O46 Mg36 2.251 1_565 S
O46 Mg39 2.079 1_465 S
O46 C48 1.273 . S
C47 O43 1.246 . S
C47 O44 1.259 1_455 S
C48 O45 1.252 . S
C48 O46 1.273 . S
O49 Mg36 2.010 . S
O49 C41 1.249 . S
Mg50 O51 2.028 1_655 S
Mg50 O57 1.986 . S
Mg50 O59 2.114 1_545 S
Mg50 O60 2.251 1_645 S
Mg50 O63 2.010 . S
O51 Mg50 2.028 1_455 S
O51 C54 1.250 . S
O52 Mg53 2.028 . S
O52 C54 1.248 . S
Mg53 O52 2.028 . S
Mg53 O58 2.032 . S
Mg53 O60 2.079 1_545 S
C54 O51 1.250 . S
C54 O52 1.248 . S
C55 O56 1.264 . S
C55 O63 1.249 . S
O56 C55 1.264 . S
O57 Mg50 1.986 . S
O57 C61 1.246 1_655 S
O58 Mg53 2.032 . S
O58 C61 1.259 . S
O59 Mg50 2.114 1_565 S
O59 C62 1.252 1_655 S
O60 Mg50 2.251 1_465 S
O60 Mg53 2.079 1_565 S
O60 C62 1.273 . S
C61 O57 1.246 1_455 S
C61 O58 1.259 . S
C62 O59 1.252 1_455 S
C62 O60 1.273 . S
O63 Mg50 2.010 . S
O63 C55 1.249 . S
C64 C65 1.387 . S
C64 H68 0.950 . S
C64 C73 1.390 . S
C65 C64 1.387 . S
C65 C67 1.387 1_565 S
H66 C73 0.950 . S
C67 C65 1.387 1_545 S
C67 C69 1.390 . S
C67 H71 0.950 . S
H68 C64 0.950 . S
C69 C67 1.390 . S
C69 C70 1.387 . S
C69 H72 0.950 . S
C70 C69 1.387 . S
C70 C73 1.387 1_545 S
H71 C67 0.950 . S
H72 C69 0.950 . S
C73 C64 1.390 . S
C73 H66 0.950 . S
C73 C70 1.387 1_565 S
C74 C75 1.387 1_655 S
C74 H78 0.950 . S
C74 C83 1.390 . S
C75 C74 1.387 1_455 S
C75 C77 1.387 . S
H76 C83 0.950 . S
C77 C75 1.387 . S
C77 C79 1.390 . S
C77 H81 0.950 . S
H78 C74 0.950 . S
C79 C77 1.390 . S
C79 C80 1.387 . S
C79 H82 0.950 . S
C80 C79 1.387 . S
C80 C83 1.387 1_455 S
H81 C77 0.950 . S
H82 C79 0.950 . S
C83 C74 1.390 . S
C83 H76 0.950 . S
C83 C80 1.387 1_655 S
C84 C85 1.387 1_565 S
C84 H88 0.950 . S
C84 C93 1.390 . S
C85 C84 1.387 1_545 S
C85 C87 1.387 . S
H86 C93 0.950 . S
C87 C85 1.387 . S
C87 C89 1.390 . S
C87 H91 0.950 . S
H88 C84 0.950 . S
C89 C87 1.390 . S
C89 C90 1.387 . S
C89 H92 0.950 . S
C90 C89 1.387 . S
C90 C93 1.387 1_545 S
H91 C87 0.950 . S
H92 C89 0.950 . S
C93 C84 1.390 . S
C93 H86 0.950 . S
C93 C90 1.387 1_565 S
C94 C95 1.387 1_655 S
C94 H98 0.950 . S
C94 C103 1.390 . S
C95 C94 1.387 1_455 S
C95 C97 1.387 . S
H96 C103 0.950 . S
C97 C95 1.387 . S
C97 C99 1.390 . S
C97 H101 0.950 . S
H98 C94 0.950 . S
C99 C97 1.390 . S
C99 C100 1.387 . S
C99 H102 0.950 . S
C100 C99 1.387 . S
C100 C103 1.387 1_455 S
H101 C97 0.950 . S
H102 C99 0.950 . S
C103 C94 1.390 . S
C103 H96 0.950 . S
C103 C100 1.387 1_655 S
C104 C105 1.387 1_565 S
C104 H108 0.950 . S
C104 C113 1.390 . S
C105 C104 1.387 1_545 S
C105 C107 1.387 . S
H106 C113 0.950 . S
C107 C105 1.387 . S
C107 C109 1.390 . S
C107 H111 0.950 . S
H108 C104 0.950 . S
C109 C107 1.390 . S
C109 C110 1.387 . S
C109 H112 0.950 . S
C110 C109 1.387 . S
C110 C113 1.387 1_545 S
H111 C107 0.950 . S
H112 C109 0.950 . S
C113 C104 1.390 . S
C113 H106 0.950 . S
C113 C110 1.387 1_565 S
C114 C115 1.387 . S
C114 H118 0.950 . S
C114 C123 1.390 . S
C115 C114 1.387 . S
C115 C117 1.387 . S
H116 C123 0.950 . S
C117 C115 1.387 . S
C117 C119 1.390 . S
C117 H121 0.950 1_455 S
H118 C114 0.950 . S
C119 C117 1.390 . S
C119 C120 1.387 . S
C119 H122 0.950 . S
C120 C119 1.387 . S
C120 C123 1.387 . S
H121 C117 0.950 1_655 S
H122 C119 0.950 . S
C123 C114 1.390 . S
C123 H116 0.950 . S
C123 C120 1.387 . S
C124 C125 1.387 . S
C124 H128 0.950 . S
C124 C133 1.390 . S
C125 C124 1.387 . S
C125 C127 1.387 1_565 S
H126 C133 0.950 . S
C127 C125 1.387 1_545 S
C127 C129 1.390 . S
C127 H131 0.950 . S
H128 C124 0.950 . S
C129 C127 1.390 . S
C129 C130 1.387 . S
C129 H132 0.950 . S
C130 C129 1.387 . S
C130 C133 1.387 1_545 S
H131 C127 0.950 . S
H132 C129 0.950 . S
C133 C124 1.390 . S
C133 H126 0.950 . S
C133 C130 1.387 1_565 S
C134 C135 1.387 . S
C134 H138 0.950 . S
C134 C143 1.390 . S
C135 C134 1.387 . S
C135 C137 1.387 1_455 S
H136 C143 0.950 . S
C137 C135 1.387 1_655 S
C137 C139 1.390 . S
C137 H141 0.950 . S
H138 C134 0.950 . S
C139 C137 1.390 . S
C139 C140 1.387 1_655 S
C139 H142 0.950 . S
C140 C139 1.387 1_455 S
C140 C143 1.387 . S
H141 C137 0.950 . S
H142 C139 0.950 . S
C143 C134 1.390 . S
C143 H136 0.950 . S
C143 C140 1.387 . S
C70 C41 1.265 . S
C65 C7 1.496 . S
C80 C61 1.505 . S
C75 C34 1.482 . S
C90 C40 1.486 . S
C85 C14 1.496 . S
C100 C62 1.536 . S
C95 C26 1.492 . S
C110 C54 1.479 . S
C105 C8 1.491 . S
C120 C47 1.513 . S
C115 C32 1.493 . S
C130 C55 1.264 . S
C125 C16 1.492 . S
C135 C25 1.490 . S
C140 C48 1.541 . S
