# Generated by pormake.
# Topology tsx, (6,3)-cn, num edge types: 1
# Building blocks:
#     Node 0, Type 0, BuildingBlock: MIDCAF_clean_sbu_0, # of connection points: 6
#     Node 1, Type 0, BuildingBlock: MIDCAF_clean_sbu_0, # of connection points: 6
#     Node 2, Type 1, BuildingBlock: QEWDON_clean_linker_0, # of connection points: 3
#     Node 3, Type 1, BuildingBlock: QEWDON_clean_linker_0, # of connection points: 3
#     Node 4, Type 1, BuildingBlock: QEWDON_clean_linker_0, # of connection points: 3
#     Node 5, Type 1, BuildingBlock: QEWDON_clean_linker_0, # of connection points: 3
#     Edge 6, Type (0, 1), BuildingBlock: EYOCIG_clean_linker_4, # of connection points: 2
#     Edge 7, Type (0, 1), BuildingBlock: EYOCIG_clean_linker_4, # of connection points: 2
#     Edge 8, Type (0, 1), BuildingBlock: EYOCIG_clean_linker_4, # of connection points: 2
#     Edge 9, Type (0, 1), BuildingBlock: EYOCIG_clean_linker_4, # of connection points: 2
#     Edge 10, Type (0, 1), BuildingBlock: EYOCIG_clean_linker_4, # of connection points: 2
#     Edge 11, Type (0, 1), BuildingBlock: EYOCIG_clean_linker_4, # of connection points: 2
#     Edge 12, Type (0, 1), BuildingBlock: EYOCIG_clean_linker_4, # of connection points: 2
#     Edge 13, Type (0, 1), BuildingBlock: EYOCIG_clean_linker_4, # of connection points: 2
#     Edge 14, Type (0, 1), BuildingBlock: EYOCIG_clean_linker_4, # of connection points: 2
#     Edge 15, Type (0, 1), BuildingBlock: EYOCIG_clean_linker_4, # of connection points: 2
#     Edge 16, Type (0, 1), BuildingBlock: EYOCIG_clean_linker_4, # of connection points: 2
#     Edge 17, Type (0, 1), BuildingBlock: EYOCIG_clean_linker_4, # of connection points: 2
# Relax obj value: 0.089
# Max RMSD: 0.147
# Mean RMSD: 0.146
data_MOF--net-tsx--node1-MIDCAF_clean_sbu_0--node2-QEWDON_clean_linker_0--edge1-EYOCIG_clean_linker_4
_symmetry_space_group_name_H-M    P1
_symmetry_Int_Tables_number       1
_symmetry_cell_setting            triclinic
loop_
_symmetry_equiv_pos_as_xyz
'x, y, z'
_cell_length_a     17.797264
_cell_length_b     18.678692
_cell_length_c     27.953885
_cell_angle_alpha  90.399348
_cell_angle_beta   112.2898
_cell_angle_gamma 89.950979
loop_
_atom_site_label
_atom_site_type_symbol
_atom_site_fract_x
_atom_site_fract_y
_atom_site_fract_z
_atom_type_partial_charge
Zn0 Zn 0.91595 -0.0204 0.93728 0.0
Zn1 Zn 0.1753 -0.01947 0.08713 0.0
Zn2 Zn 0.04584 -0.03046 0.01222 0.0
C3 C 0.15703 0.11118 0.04776 0.0
C4 C 0.19951 0.87604 0.02526 0.0
O5 O 0.95732 0.90472 0.03183 0.0
O6 O 0.8646 0.89468 0.95242 0.0
C7 C 0.93521 0.11109 0.97689 0.0
O8 O 0.08646 0.08243 0.02551 0.0
O9 O 0.21645 0.07438 0.07581 0.0
O10 O 0.22626 0.89496 0.07206 0.0
O11 O 0.13414 0.90399 0.99251 0.0
O12 O 0.87557 0.07406 0.94879 0.0
O13 O 0.00559 0.08236 0.99915 0.0
O14 O 0.07069 0.92489 0.94461 0.0
O15 O 0.96262 -0.02786 0.88394 0.0
C16 C 0.03019 0.94106 0.89677 0.0
O17 O 0.0212 0.92575 0.07977 0.0
O18 O 0.12893 -0.02574 0.1406 0.0
C19 C 0.8916 0.87656 0.99919 0.0
C20 C 0.06158 0.94262 0.12767 0.0
Zn21 Zn 0.6754 0.48147 0.58723 0.0
Zn22 Zn 0.41592 0.47954 0.43723 0.0
Zn23 Zn 0.54587 0.46993 0.51229 0.0
C24 C 0.53042 0.44117 0.39688 0.0
C25 C 0.43472 0.61115 0.47663 0.0
O26 O 0.52149 0.42602 0.57989 0.0
O27 O 0.62907 0.47481 0.64069 0.0
C28 C 0.69999 0.37696 0.52545 0.0
O29 O 0.57096 0.42527 0.44476 0.0
O30 O 0.46268 0.47198 0.38393 0.0
O31 O 0.37524 0.57397 0.44851 0.0
O32 O 0.50517 0.58259 0.49901 0.0
O33 O 0.72681 0.39617 0.57219 0.0
O34 O 0.6344 0.40456 0.49268 0.0
O35 O 0.58604 0.58299 0.52544 0.0
O36 O 0.71601 0.57555 0.57588 0.0
C37 C 0.65641 0.61207 0.54772 0.0
O38 O 0.45752 0.40494 0.53196 0.0
O39 O 0.36482 0.3946 0.45257 0.0
C40 C 0.56187 0.44292 0.62778 0.0
C41 C 0.39186 0.37663 0.49937 0.0
H42 H 0.052 0.03059 0.38343 0.0
C43 C 0.10224 -0.00575 0.40101 0.0
C44 C 0.12444 0.94741 0.36894 0.0
C45 C 0.14621 -0.00489 0.4553 0.0
H46 H 0.20846 0.86564 0.36676 0.0
C47 C 0.19105 0.90217 0.39113 0.0
C48 C 0.23506 0.90316 0.44456 0.0
C49 C 0.21297 0.94934 0.47655 0.0
C50 C 0.12266 0.04353 0.48961 0.0
H51 H 0.24637 0.94789 0.518 0.0
C52 C 0.02307 0.06586 0.47116 0.0
C53 C 0.00316 0.16572 0.53196 0.0
C54 C 0.19493 0.08232 0.54254 0.0
H55 H 0.25702 0.06619 0.55118 0.0
C56 C 0.18262 0.14655 0.58312 0.0
H57 H 0.9803 0.03861 0.43681 0.0
C58 C 0.0951 0.18744 0.57932 0.0
H59 H 0.09784 0.22875 0.60725 0.0
H60 H 0.23733 0.16417 0.61432 0.0
H61 H 0.04141 0.03024 0.64213 0.0
C62 C -0.00902 -0.00607 0.62421 0.0
C63 C 0.96868 0.94707 0.65586 0.0
C64 C 0.94678 -0.00513 0.56994 0.0
H65 H 0.88421 0.86547 0.65732 0.0
C66 C 0.90176 0.90194 0.63328 0.0
C67 C 0.85754 0.903 0.57989 0.0
C68 C 0.87977 0.94911 0.54832 0.0
C69 C 0.97023 0.04341 0.53603 0.0
H70 H 0.84618 0.94765 0.50687 0.0
C71 C 0.06975 0.06631 0.55459 0.0
C72 C 0.08933 0.16573 0.49424 0.0
C73 C 0.89784 0.0815 0.48326 0.0
H74 H 0.83579 0.06507 0.47452 0.0
C75 C 0.90994 0.1454 0.44297 0.0
H76 H 0.11265 0.03947 0.58877 0.0
C77 C -0.00268 0.18667 0.44697 0.0
H78 H -0.00554 0.22769 0.41921 0.0
H79 H 0.85517 0.16253 0.41184 0.0
H80 H 0.55251 0.53022 0.88353 0.0
C81 C 0.60281 0.49395 0.90116 0.0
C82 C 0.62513 0.44712 0.86914 0.0
C83 C 0.64673 0.49491 0.95545 0.0
H84 H 0.7093 0.36543 0.86707 0.0
C85 C 0.69181 0.40196 0.89139 0.0
C86 C 0.73577 0.40305 0.94484 0.0
C87 C 0.71357 0.44925 0.97676 0.0
C88 C 0.623 0.54331 0.98968 0.0
H89 H 0.74694 0.44789 0.01822 0.0
C90 C 0.52333 0.56537 0.97119 0.0
C91 C 0.50304 0.66532 0.0318 0.0
C92 C 0.69513 0.58239 0.04254 0.0
H93 H 0.75728 0.56641 0.05121 0.0
C94 C 0.68258 0.64668 0.083 0.0
H95 H 0.48066 0.53795 0.93688 0.0
C96 C 0.59491 0.68736 0.07912 0.0
H97 H 0.5975 0.72874 0.10697 0.0
H98 H 0.73723 0.6645 0.11416 0.0
H99 H 0.54177 0.53008 0.14222 0.0
C100 C 0.4915 0.49359 0.12434 0.0
C101 C 0.46938 0.44668 0.15604 0.0
C102 C 0.44733 0.49436 0.07007 0.0
H103 H 0.38524 0.36482 0.15757 0.0
C104 C 0.40267 0.40132 0.1335 0.0
C105 C 0.35848 0.40221 0.0801 0.0
C106 C 0.38054 0.44836 0.04849 0.0
C107 C 0.47058 0.54294 0.03609 0.0
H108 H 0.34697 0.44678 0.00704 0.0
C109 C 0.57001 0.56612 0.05461 0.0
C110 C 0.58922 0.66545 0.99408 0.0
C111 C 0.39804 0.58075 0.98326 0.0
H112 H 0.33605 0.56414 0.97454 0.0
C113 C 0.4099 0.64458 0.94285 0.0
H114 H 0.613 0.53944 0.08884 0.0
C115 C 0.49713 0.68607 0.94677 0.0
H116 H 0.49412 0.72701 0.91893 0.0
H117 H 0.35507 0.66151 0.91168 0.0
C118 C 0.19487 0.24434 0.03944 0.0
C119 C 0.16973 0.18493 0.04014 0.0
C120 C 0.24163 0.30673 0.04589 0.0
C121 C 0.29343 0.35203 0.05798 0.0
C122 C 0.30212 0.78516 0.01358 0.0
C123 C 0.24776 0.82548 0.01084 0.0
C124 C 0.37316 0.74394 0.02445 0.0
C125 C 0.43462 0.71107 0.03094 0.0
C126 C 0.78913 0.78635 0.01142 0.0
C127 C 0.84338 0.82653 0.01377 0.0
C128 C 0.71834 0.74484 1.00103 0.0
C129 C 0.65725 0.71152 0.9948 0.0
C130 C 0.89829 0.2448 0.98513 0.0
C131 C 0.92299 0.18514 0.98447 0.0
C132 C 0.85199 0.30742 0.97868 0.0
C133 C 0.80043 0.35277 0.96669 0.0
C134 C 0.69371 0.74535 0.53924 0.0
C135 C 0.66874 0.68587 0.53998 0.0
C136 C 0.74044 0.80775 0.54565 0.0
C137 C 0.79233 0.85297 0.55772 0.0
C138 C 0.80258 0.28596 0.51388 0.0
C139 C 0.74824 0.3263 0.51112 0.0
C140 C 0.87354 0.24462 0.52474 0.0
C141 C 0.9349 0.21163 0.5312 0.0
C142 C 0.28948 0.28642 0.51171 0.0
C143 C 0.34371 0.32662 0.51404 0.0
C144 C 0.21867 0.24493 0.50133 0.0
C145 C 0.15751 0.2117 0.49506 0.0
C146 C 0.39748 0.74481 0.48473 0.0
C147 C 0.42225 0.68518 0.48411 0.0
C148 C 0.35118 0.80743 0.47829 0.0
C149 C 0.29967 0.85282 0.46635 0.0
C150 C 0.03362 0.92938 0.21234 0.0
C151 C 0.0333 0.92915 0.16885 0.0
C152 C 0.05318 0.93753 0.26648 0.0
C153 C 0.08156 0.94561 0.3131 0.0
C154 C 0.05888 0.92836 0.8122 0.0
C155 C 0.0589 0.92793 0.85561 0.0
C156 C 0.03975 0.93684 0.7582 0.0
C157 C 0.01162 0.94519 0.71168 0.0
C158 C 0.5342 0.4292 0.71252 0.0
C159 C 0.53376 0.42915 0.66901 0.0
C160 C 0.55387 0.43721 0.76668 0.0
C161 C 0.5823 0.44526 0.81331 0.0
C162 C 0.55938 0.42843 0.3124 0.0
C163 C 0.55929 0.42808 0.35579 0.0
C164 C 0.54034 0.43679 0.2584 0.0
C165 C 0.51225 0.445 0.21187 0.0
loop_
_geom_bond_atom_site_label_1
_geom_bond_atom_site_label_2
_geom_bond_distance
_geom_bond_site_symmetry_2
_ccdc_geom_bond_type
Zn0 O6 1.917 1_545 S
Zn0 O12 1.902 . S
Zn0 O15 1.904 1_545 S
Zn1 O9 1.905 . S
Zn1 O10 1.898 1_545 S
Zn1 O18 1.920 1_545 S
Zn2 O5 2.080 1_444 S
Zn2 O8 2.114 . S
Zn2 O11 2.120 1_545 S
Zn2 O13 2.120 1_455 S
Zn2 O14 2.114 1_554 S
Zn2 O17 2.080 . S
C3 O8 1.166 . S
C3 O9 1.182 . S
C4 O10 1.167 . S
C4 O11 1.299 . S
O5 Zn2 2.080 1_666 S
O5 C19 1.305 . S
O6 Zn0 1.917 1_565 S
O6 C19 1.234 . S
C7 O12 1.167 . S
C7 O13 1.299 1_556 S
O8 Zn2 2.114 . S
O8 C3 1.166 . S
O9 Zn1 1.905 . S
O9 C3 1.182 . S
O10 Zn1 1.898 1_565 S
O10 C4 1.167 . S
O11 Zn2 2.120 1_565 S
O11 C4 1.299 . S
O12 Zn0 1.902 . S
O12 C7 1.167 . S
O13 Zn2 2.120 1_655 S
O13 C7 1.299 1_554 S
O14 Zn2 2.114 1_556 S
O14 C16 1.166 1_445 S
O15 Zn0 1.904 1_565 S
O15 C16 1.182 . S
C16 O14 1.166 1_665 S
C16 O15 1.182 . S
O17 Zn2 2.080 . S
O17 C20 1.305 1_545 S
O18 Zn1 1.920 1_565 S
O18 C20 1.234 . S
C19 O5 1.305 . S
C19 O6 1.234 . S
C20 O17 1.305 1_565 S
C20 O18 1.234 . S
Zn21 O27 1.920 . S
Zn21 O33 1.898 . S
Zn21 O36 1.905 . S
Zn22 O30 1.905 . S
Zn22 O31 1.898 . S
Zn22 O39 1.920 . S
Zn23 O26 2.080 . S
Zn23 O29 2.114 . S
Zn23 O32 2.120 . S
Zn23 O34 2.120 . S
Zn23 O35 2.114 . S
Zn23 O38 2.080 . S
C24 O29 1.166 . S
C24 O30 1.182 . S
C25 O31 1.167 . S
C25 O32 1.299 . S
O26 Zn23 2.080 . S
O26 C40 1.305 . S
O27 Zn21 1.920 . S
O27 C40 1.234 . S
C28 O33 1.167 . S
C28 O34 1.299 . S
O29 Zn23 2.114 . S
O29 C24 1.166 . S
O30 Zn22 1.905 . S
O30 C24 1.182 . S
O31 Zn22 1.898 . S
O31 C25 1.167 . S
O32 Zn23 2.120 . S
O32 C25 1.299 . S
O33 Zn21 1.898 . S
O33 C28 1.167 . S
O34 Zn23 2.120 . S
O34 C28 1.299 . S
O35 Zn23 2.114 . S
O35 C37 1.166 . S
O36 Zn21 1.905 . S
O36 C37 1.182 . S
C37 O35 1.166 . S
C37 O36 1.182 . S
O38 Zn23 2.080 . S
O38 C41 1.305 . S
O39 Zn22 1.920 . S
O39 C41 1.234 . S
C40 O26 1.305 . S
C40 O27 1.234 . S
C41 O38 1.305 . S
C41 O39 1.234 . S
H42 C43 0.949 . S
C43 H42 0.949 . S
C43 C44 1.395 . S
C43 C45 1.391 . S
C44 C43 1.395 . S
C44 C47 1.390 1_545 S
C45 C43 1.391 . S
C45 C49 1.387 1_545 S
C45 C50 1.491 . S
H46 C47 0.950 . S
C47 C44 1.390 1_565 S
C47 H46 0.950 . S
C47 C48 1.378 . S
C48 C47 1.378 . S
C48 C49 1.409 . S
C49 C45 1.387 1_565 S
C49 C48 1.409 . S
C49 H51 0.951 . S
C50 C45 1.491 . S
C50 C52 1.382 . S
C50 C54 1.404 . S
H51 C49 0.951 . S
C52 C50 1.382 . S
C52 C53 1.394 . S
C52 H57 0.949 1_455 S
C53 C52 1.394 . S
C53 C58 1.402 . S
C54 C50 1.404 . S
C54 H55 0.950 . S
C54 C56 1.375 . S
H55 C54 0.950 . S
C56 C54 1.375 . S
C56 C58 1.382 . S
C56 H60 0.950 . S
H57 C52 0.949 1_655 S
C58 C53 1.402 . S
C58 C56 1.382 . S
C58 H59 0.952 . S
H59 C58 0.952 . S
H60 C56 0.950 . S
H61 C62 0.949 . S
C62 H61 0.949 . S
C62 C63 1.395 1_455 S
C62 C64 1.391 1_455 S
C63 C62 1.395 1_655 S
C63 C66 1.390 1_545 S
C64 C62 1.391 1_655 S
C64 C68 1.387 1_545 S
C64 C69 1.491 1_655 S
H65 C66 0.950 . S
C66 C63 1.390 1_565 S
C66 H65 0.950 . S
C66 C67 1.378 . S
C67 C66 1.378 . S
C67 C68 1.409 . S
C68 C64 1.387 1_565 S
C68 C67 1.409 . S
C68 H70 0.951 . S
C69 C64 1.491 1_455 S
C69 C71 1.382 . S
C69 C73 1.404 1_455 S
H70 C68 0.951 . S
C71 C69 1.382 . S
C71 C72 1.390 . S
C71 H76 0.949 . S
C72 C71 1.390 . S
C72 C77 1.399 . S
C73 C69 1.404 1_655 S
C73 H74 0.950 . S
C73 C75 1.375 . S
H74 C73 0.950 . S
C75 C73 1.375 . S
C75 C77 1.382 1_655 S
C75 H79 0.950 . S
H76 C71 0.949 . S
C77 C72 1.399 . S
C77 C75 1.382 1_455 S
C77 H78 0.952 . S
H78 C77 0.952 . S
H79 C75 0.950 . S
H80 C81 0.949 . S
C81 H80 0.949 . S
C81 C82 1.395 . S
C81 C83 1.391 . S
C82 C81 1.395 . S
C82 C85 1.390 . S
C83 C81 1.391 . S
C83 C87 1.387 . S
C83 C88 1.491 . S
H84 C85 0.950 . S
C85 C82 1.390 . S
C85 H84 0.950 . S
C85 C86 1.378 . S
C86 C85 1.378 . S
C86 C87 1.409 . S
C87 C83 1.387 . S
C87 C86 1.409 . S
C87 H89 0.951 1_556 S
C88 C83 1.491 . S
C88 C90 1.382 . S
C88 C92 1.404 1_556 S
H89 C87 0.951 1_554 S
C90 C88 1.382 . S
C90 C91 1.390 . S
C90 H95 0.949 . S
C91 C90 1.390 . S
C91 C96 1.399 1_556 S
C92 C88 1.404 1_554 S
C92 H93 0.950 . S
C92 C94 1.375 . S
H93 C92 0.950 . S
C94 C92 1.375 . S
C94 C96 1.382 . S
C94 H98 0.950 . S
H95 C90 0.949 . S
C96 C91 1.399 1_554 S
C96 C94 1.382 . S
C96 H97 0.952 . S
H97 C96 0.952 . S
H98 C94 0.950 . S
H99 C100 0.949 . S
C100 H99 0.949 . S
C100 C101 1.395 . S
C100 C102 1.391 . S
C101 C100 1.395 . S
C101 C104 1.390 . S
C102 C100 1.391 . S
C102 C106 1.387 . S
C102 C107 1.491 . S
H103 C104 0.950 . S
C104 C101 1.390 . S
C104 H103 0.950 . S
C104 C105 1.378 . S
C105 C104 1.378 . S
C105 C106 1.409 . S
C106 C102 1.387 . S
C106 C105 1.409 . S
C106 H108 0.951 . S
C107 C102 1.491 . S
C107 C109 1.382 . S
C107 C111 1.404 1_554 S
H108 C106 0.951 . S
C109 C107 1.382 . S
C109 C110 1.390 . S
C109 H114 0.949 . S
C110 C109 1.390 . S
C110 C115 1.399 1_554 S
C111 C107 1.404 1_556 S
C111 H112 0.950 . S
C111 C113 1.375 . S
H112 C111 0.950 . S
C113 C111 1.375 . S
C113 C115 1.382 . S
C113 H117 0.950 . S
H114 C109 0.949 . S
C115 C110 1.399 1_556 S
C115 C113 1.382 . S
C115 H116 0.952 . S
H116 C115 0.952 . S
H117 C113 0.950 . S
C118 C119 1.170 . S
C118 C120 1.380 . S
C119 C118 1.170 . S
C120 C118 1.380 . S
C120 C121 1.170 . S
C121 C120 1.170 . S
C122 C123 1.170 . S
C122 C124 1.380 . S
C123 C122 1.170 . S
C124 C122 1.380 . S
C124 C125 1.170 . S
C125 C124 1.170 . S
C126 C127 1.170 . S
C126 C128 1.380 . S
C127 C126 1.170 . S
C128 C126 1.380 . S
C128 C129 1.170 . S
C129 C128 1.170 . S
C130 C131 1.170 . S
C130 C132 1.380 . S
C131 C130 1.170 . S
C132 C130 1.380 . S
C132 C133 1.170 . S
C133 C132 1.170 . S
C134 C135 1.170 . S
C134 C136 1.380 . S
C135 C134 1.170 . S
C136 C134 1.380 . S
C136 C137 1.170 . S
C137 C136 1.170 . S
C138 C139 1.170 . S
C138 C140 1.380 . S
C139 C138 1.170 . S
C140 C138 1.380 . S
C140 C141 1.170 . S
C141 C140 1.170 . S
C142 C143 1.170 . S
C142 C144 1.380 . S
C143 C142 1.170 . S
C144 C142 1.380 . S
C144 C145 1.170 . S
C145 C144 1.170 . S
C146 C147 1.170 . S
C146 C148 1.380 . S
C147 C146 1.170 . S
C148 C146 1.380 . S
C148 C149 1.170 . S
C149 C148 1.170 . S
C150 C151 1.170 . S
C150 C152 1.380 1_565 S
C151 C150 1.170 . S
C152 C150 1.380 1_545 S
C152 C153 1.170 . S
C153 C152 1.170 . S
C154 C155 1.170 1_655 S
C154 C156 1.380 . S
C155 C154 1.170 1_455 S
C156 C154 1.380 . S
C156 C157 1.170 1_565 S
C157 C156 1.170 1_545 S
C158 C159 1.170 . S
C158 C160 1.380 . S
C159 C158 1.170 . S
C160 C158 1.380 . S
C160 C161 1.170 . S
C161 C160 1.170 . S
C162 C163 1.170 . S
C162 C164 1.380 . S
C163 C162 1.170 . S
C164 C162 1.380 . S
C164 C165 1.170 . S
C165 C164 1.170 . S
C121 C105 1.411 . S
C119 C3 1.304 . S
C123 C4 1.448 1_556 S
C125 C91 1.528 . S
C127 C19 1.434 1_554 S
C129 C110 1.522 . S
C131 C7 1.332 . S
C133 C86 1.429 . S
C135 C37 1.330 . S
C137 C67 1.416 . S
C139 C28 1.442 . S
C141 C53 1.520 1_655 S
C145 C72 1.500 . S
C143 C41 1.417 . S
C149 C48 1.414 . S
C147 C25 1.303 . S
C151 C20 1.375 . S
C153 C44 1.533 . S
C155 C16 1.411 1_455 S
C157 C63 1.564 . S
C161 C82 1.528 . S
C159 C40 1.370 . S
C163 C24 1.416 . S
C165 C101 1.568 . S
