# Generated by pormake.
# Topology rtl, (3,6)-cn, num edge types: 1
# Building blocks:
#     Node 0, Type 0, BuildingBlock: CUQRIR_clean_linker_1, # of connection points: 3
#     Node 1, Type 0, BuildingBlock: CUQRIR_clean_linker_1, # of connection points: 3
#     Node 2, Type 0, BuildingBlock: CUQRIR_clean_linker_1, # of connection points: 3
#     Node 3, Type 0, BuildingBlock: CUQRIR_clean_linker_1, # of connection points: 3
#     Node 4, Type 1, BuildingBlock: LEVNOQ01_clean_sbu_1, # of connection points: 6
#     Node 5, Type 1, BuildingBlock: LEVNOQ01_clean_sbu_1, # of connection points: 6
#     Edge 6, Type (0, 1), None
#     Edge 7, Type (0, 1), None
#     Edge 8, Type (0, 1), None
#     Edge 9, Type (0, 1), None
#     Edge 10, Type (0, 1), None
#     Edge 11, Type (0, 1), None
#     Edge 12, Type (0, 1), None
#     Edge 13, Type (0, 1), None
#     Edge 14, Type (0, 1), None
#     Edge 15, Type (0, 1), None
#     Edge 16, Type (0, 1), None
#     Edge 17, Type (0, 1), None
# Relax obj value: 0.024
# Max RMSD: 0.113
# Mean RMSD: 0.094
data_MOF--net-rtl--node1-LEVNOQ01_clean_sbu_1--node2-CUQRIR_clean_linker_1--edge1-none
_symmetry_space_group_name_H-M    P1
_symmetry_Int_Tables_number       1
_symmetry_cell_setting            triclinic
loop_
_symmetry_equiv_pos_as_xyz
'x, y, z'
_cell_length_a     14.639285
_cell_length_b     12.622594
_cell_length_c     7.3939076
_cell_angle_alpha  89.520644
_cell_angle_beta   97.393035
_cell_angle_gamma 89.335357
loop_
_atom_site_label
_atom_site_type_symbol
_atom_site_fract_x
_atom_site_fract_y
_atom_site_fract_z
_atom_type_partial_charge
C0 C 0.26132 0.9629 0.97263 0.0
N1 N 0.18696 0.99671 0.04819 0.0
N2 N 0.30566 0.8812 0.0689 0.0
C3 C 0.29198 1.01504 0.80585 0.0
C4 C 0.25985 0.87243 0.21661 0.0
N5 N 0.18809 0.94349 0.20515 0.0
C6 C 0.28442 0.79309 0.36953 0.0
H7 H 0.27004 0.96693 0.68371 0.0
H8 H 0.36807 1.02241 0.82236 0.0
H9 H 0.26083 0.09531 0.7824 0.0
H10 H 0.36026 0.78392 0.4007 0.0
H11 H 0.25503 0.71517 0.32715 0.0
H12 H 0.2577 0.81709 0.49657 0.0
C13 C 0.76373 0.734 0.73277 0.0
N14 N 0.69467 0.66206 0.72725 0.0
N15 N 0.80999 0.72352 0.58604 0.0
C16 C 0.78553 0.81503 0.88014 0.0
C17 C 0.76719 0.64116 0.4945 0.0
N18 N 0.69395 0.6081 0.57313 0.0
C19 C 0.79633 0.58977 0.32639 0.0
H20 H 0.75557 0.79437 1.00581 0.0
H21 H 0.75755 0.89335 0.82924 0.0
H22 H 0.86121 0.82155 0.9155 0.0
H23 H 0.76326 0.5116 0.30133 0.0
H24 H 0.87213 0.57734 0.34298 0.0
H25 H 0.77598 0.64131 0.20546 0.0
C26 C 0.68204 0.13858 0.17192 0.0
N27 N 0.75576 0.1058 0.09309 0.0
N28 N 0.64001 0.22459 0.08482 0.0
C29 C 0.6522 0.08385 0.33728 0.0
C30 C 0.68626 0.23689 0.93797 0.0
N31 N 0.75601 0.16364 0.9415 0.0
C32 C 0.66151 0.31836 0.78917 0.0
H33 H 0.68499 1.0042 0.3592 0.0
H34 H 0.57635 0.07391 0.31916 0.0
H35 H 0.67227 0.13188 0.46068 0.0
H36 H 0.68281 0.29238 0.65788 0.0
H37 H 0.69637 0.39374 0.82945 0.0
H38 H 0.58602 0.33281 0.76738 0.0
C39 C 0.17826 0.39562 0.42211 0.0
N40 N 0.25558 0.45707 0.44928 0.0
N41 N 0.156 0.35678 0.58163 0.0
C42 C 0.11818 0.38428 0.24343 0.0
C43 C 0.22461 0.3897 0.70579 0.0
N44 N 0.28139 0.45541 0.62903 0.0
C45 C 0.24956 0.3346 0.88791 0.0
H46 H 0.12789 0.45173 0.15102 0.0
H47 H 0.04457 0.38142 0.26472 0.0
H48 H 0.13541 0.3084 0.18066 0.0
H49 H 0.20777 0.2636 0.90566 0.0
H50 H 0.24043 0.39195 0.99523 0.0
H51 H 0.32271 0.30785 0.90389 0.0
O52 O 0.84685 0.24365 0.75494 0.0
Mg53 Mg -0.01539 0.19122 0.75805 0.0
O54 O 0.86916 0.0757 0.80677 0.0
Mg55 Mg -0.02869 0.05144 0.56962 0.0
O56 O 0.04914 0.22121 0.53274 0.0
O57 O 0.05289 0.32524 0.77773 0.0
O58 O 0.07234 0.02965 0.33324 0.0
O59 O 0.8512 0.1027 0.36148 0.0
Mg60 Mg -0.04205 0.91009 0.37662 0.0
O61 O 0.89586 0.87943 0.60211 0.0
O62 O 0.0968 0.86261 0.38821 0.0
O63 O 0.88143 0.99437 0.14742 0.0
O64 O 0.89622 0.77166 0.36388 0.0
C65 C 0.10933 0.03245 0.94092 0.0
C66 C 0.82317 0.16031 0.82889 0.0
C67 C 0.08112 0.30365 0.62458 0.0
C68 C 0.1199 0.9461 0.31454 0.0
C69 C 0.83333 0.0695 0.19882 0.0
C70 C 0.87049 0.79115 0.51981 0.0
O71 O 0.06002 0.10691 0.9911 0.0
O72 O 0.0924 0.99968 0.77784 0.0
O73 O 0.57008 0.49754 0.52364 0.0
Mg74 Mg 0.49172 0.41121 0.30426 0.0
O75 O 0.59555 0.6094 0.30785 0.0
Mg76 Mg 0.47937 0.55616 0.09455 0.0
O77 O 0.55619 0.384 0.07904 0.0
O78 O 0.55349 0.26968 0.30969 0.0
O79 O 0.36892 0.49456 0.89437 0.0
O80 O 0.58497 0.57663 0.86939 0.0
Mg81 Mg 0.45715 0.69201 0.86836 0.0
O82 O 0.39904 0.72816 0.09822 0.0
O83 O 0.38859 0.5893 0.65748 0.0
O84 O 0.5922 0.74789 0.87801 0.0
O85 O 0.3841 0.82441 0.8402 0.0
C86 C 0.32011 0.45807 0.33185 0.0
C87 C 0.61596 0.57348 0.46986 0.0
C88 C 0.58006 0.29244 0.15526 0.0
C89 C 0.35006 0.51204 0.72566 0.0
C90 C 0.62561 0.66174 0.8337 0.0
C91 C 0.36601 0.81164 1.00435 0.0
O92 O 0.35094 0.3708 0.28558 0.0
O93 O 0.37018 0.53872 0.31447 0.0
loop_
_geom_bond_atom_site_label_1
_geom_bond_atom_site_label_2
_geom_bond_distance
_geom_bond_site_symmetry_2
_ccdc_geom_bond_type
C0 N1 1.317 . S
C0 N2 1.348 1_556 S
C0 C3 1.485 . S
N1 C0 1.317 . S
N1 N5 1.370 1_556 S
N2 C0 1.348 1_554 S
N2 C4 1.346 . S
C3 C0 1.485 . S
C3 H7 0.960 . S
C3 H8 0.961 . S
C3 H9 0.960 . S
C4 N2 1.346 . S
C4 N5 1.307 . S
C4 C6 1.486 . S
N5 N1 1.370 1_554 S
N5 C4 1.307 . S
C6 C4 1.486 . S
C6 H10 0.960 . S
C6 H11 0.960 . S
C6 H12 0.959 . S
H7 C3 0.960 . S
H8 C3 0.961 . S
H9 C3 0.960 . S
H10 C6 0.960 . S
H11 C6 0.960 . S
H12 C6 0.959 . S
C13 N14 1.317 . S
C13 N15 1.348 . S
C13 C16 1.485 . S
N14 C13 1.317 . S
N14 N18 1.370 . S
N15 C13 1.348 . S
N15 C17 1.346 . S
C16 C13 1.485 . S
C16 H20 0.960 . S
C16 H21 0.961 . S
C16 H22 0.960 . S
C17 N15 1.346 . S
C17 N18 1.307 . S
C17 C19 1.486 . S
N18 N14 1.370 . S
N18 C17 1.307 . S
C19 C17 1.486 . S
C19 H23 0.960 . S
C19 H24 0.960 . S
C19 H25 0.959 . S
H20 C16 0.960 . S
H21 C16 0.961 . S
H22 C16 0.960 . S
H23 C19 0.960 . S
H24 C19 0.960 . S
H25 C19 0.959 . S
C26 N27 1.317 . S
C26 N28 1.348 1_554 S
C26 C29 1.485 . S
N27 C26 1.317 . S
N27 N31 1.370 1_554 S
N28 C26 1.348 1_556 S
N28 C30 1.346 . S
C29 C26 1.485 . S
C29 H33 0.960 . S
C29 H34 0.961 . S
C29 H35 0.960 . S
C30 N28 1.346 . S
C30 N31 1.307 . S
C30 C32 1.486 . S
N31 N27 1.370 1_556 S
N31 C30 1.307 . S
C32 C30 1.486 . S
C32 H36 0.960 . S
C32 H37 0.960 . S
C32 H38 0.959 . S
H33 C29 0.960 . S
H34 C29 0.961 . S
H35 C29 0.960 . S
H36 C32 0.960 . S
H37 C32 0.960 . S
H38 C32 0.959 . S
C39 N40 1.317 . S
C39 N41 1.348 . S
C39 C42 1.485 . S
N40 C39 1.317 . S
N40 N44 1.370 . S
N41 C39 1.348 . S
N41 C43 1.346 . S
C42 C39 1.485 . S
C42 H46 0.960 . S
C42 H47 0.961 . S
C42 H48 0.960 . S
C43 N41 1.346 . S
C43 N44 1.307 . S
C43 C45 1.486 . S
N44 N40 1.370 . S
N44 C43 1.307 . S
C45 C43 1.486 . S
C45 H49 0.960 . S
C45 H50 0.960 . S
C45 H51 0.959 . S
H46 C42 0.960 . S
H47 C42 0.961 . S
H48 C42 0.960 . S
H49 C45 0.960 . S
H50 C45 0.960 . S
H51 C45 0.959 . S
O52 Mg53 1.990 . S
O52 C66 1.253 1_455 S
Mg53 O52 1.990 . S
Mg53 O56 2.180 . S
Mg53 O57 2.117 . S
Mg53 O71 2.030 . S
O54 Mg55 2.072 1_655 S
O54 C66 1.260 . S
Mg55 O54 2.072 1_455 S
Mg55 O56 2.099 . S
Mg55 O58 2.079 1_545 S
Mg55 O59 2.072 1_455 S
Mg55 O61 2.099 1_445 S
Mg55 O72 2.079 1_545 S
O56 Mg53 2.180 . S
O56 Mg55 2.099 . S
O56 C67 1.279 . S
O57 Mg53 2.117 . S
O57 C67 1.250 . S
O58 Mg55 2.079 1_565 S
O58 C68 1.264 . S
O59 Mg55 2.072 1_655 S
O59 C69 1.260 . S
Mg60 O61 2.180 . S
Mg60 O62 2.030 1_655 S
Mg60 O63 1.990 1_565 S
Mg60 O64 2.117 . S
O61 Mg55 2.099 1_665 S
O61 Mg60 2.180 . S
O61 C70 1.279 . S
O62 Mg60 2.030 1_455 S
O62 C68 1.248 . S
O63 Mg60 1.990 1_545 S
O63 C69 1.253 . S
O64 Mg60 2.117 . S
O64 C70 1.250 . S
C65 O71 1.248 1_565 S
C65 O72 1.264 . S
C66 O52 1.253 1_655 S
C66 O54 1.260 . S
C67 O56 1.279 . S
C67 O57 1.250 . S
C68 O58 1.264 . S
C68 O62 1.248 . S
C69 O59 1.260 . S
C69 O63 1.253 . S
C70 O61 1.279 . S
C70 O64 1.250 . S
O71 Mg53 2.030 . S
O71 C65 1.248 1_545 S
O72 Mg55 2.079 1_565 S
O72 C65 1.264 . S
O73 Mg74 1.990 . S
O73 C87 1.253 . S
Mg74 O73 1.990 . S
Mg74 O77 2.180 . S
Mg74 O78 2.117 . S
Mg74 O92 2.030 . S
O75 Mg76 2.072 . S
O75 C87 1.260 . S
Mg76 O75 2.072 . S
Mg76 O77 2.099 . S
Mg76 O79 2.079 1_554 S
Mg76 O80 2.072 1_554 S
Mg76 O82 2.099 1_554 S
Mg76 O93 2.079 . S
O77 Mg74 2.180 . S
O77 Mg76 2.099 . S
O77 C88 1.279 . S
O78 Mg74 2.117 . S
O78 C88 1.250 . S
O79 Mg76 2.079 1_556 S
O79 C89 1.264 . S
O80 Mg76 2.072 1_556 S
O80 C90 1.260 . S
Mg81 O82 2.180 . S
Mg81 O83 2.030 . S
Mg81 O84 1.990 . S
Mg81 O85 2.117 . S
O82 Mg76 2.099 1_556 S
O82 Mg81 2.180 . S
O82 C91 1.279 . S
O83 Mg81 2.030 . S
O83 C89 1.248 . S
O84 Mg81 1.990 . S
O84 C90 1.253 . S
O85 Mg81 2.117 . S
O85 C91 1.250 . S
C86 O92 1.248 . S
C86 O93 1.264 . S
C87 O73 1.253 . S
C87 O75 1.260 . S
C88 O77 1.279 . S
C88 O78 1.250 . S
C89 O79 1.264 . S
C89 O83 1.248 . S
C90 O80 1.260 . S
C90 O84 1.253 . S
C91 O82 1.279 . S
C91 O85 1.250 . S
O92 Mg74 2.030 . S
O92 C86 1.248 . S
O93 Mg76 2.079 . S
O93 C86 1.264 . S
C67 N41 1.322 . S
N2 C91 1.289 1_554 S
N15 C70 1.403 . S
N28 C88 1.367 1_556 S
C68 N5 1.502 . S
C90 N14 1.529 . S
N27 C69 1.540 . S
N44 C89 1.408 . S
C87 N18 1.523 . S
C66 N31 1.522 . S
C86 N40 1.473 . S
N1 C65 1.400 . S
