# Generated by pormake.
# Topology rtl, (3,6)-cn, num edge types: 1
# Building blocks:
#     Node 0, Type 0, BuildingBlock: ESEHIV_clean_linker_0, # of connection points: 3
#     Node 1, Type 0, BuildingBlock: ESEHIV_clean_linker_0, # of connection points: 3
#     Node 2, Type 0, BuildingBlock: ESEHIV_clean_linker_0, # of connection points: 3
#     Node 3, Type 0, BuildingBlock: ESEHIV_clean_linker_0, # of connection points: 3
#     Node 4, Type 1, BuildingBlock: VOLQOD_clean_sbu_1, # of connection points: 6
#     Node 5, Type 1, BuildingBlock: VOLQOD_clean_sbu_1, # of connection points: 6
#     Edge 6, Type (0, 1), BuildingBlock: AJUNOK_clean_linker_0, # of connection points: 2
#     Edge 7, Type (0, 1), BuildingBlock: AJUNOK_clean_linker_0, # of connection points: 2
#     Edge 8, Type (0, 1), BuildingBlock: AJUNOK_clean_linker_0, # of connection points: 2
#     Edge 9, Type (0, 1), BuildingBlock: AJUNOK_clean_linker_0, # of connection points: 2
#     Edge 10, Type (0, 1), BuildingBlock: AJUNOK_clean_linker_0, # of connection points: 2
#     Edge 11, Type (0, 1), BuildingBlock: AJUNOK_clean_linker_0, # of connection points: 2
#     Edge 12, Type (0, 1), BuildingBlock: AJUNOK_clean_linker_0, # of connection points: 2
#     Edge 13, Type (0, 1), BuildingBlock: AJUNOK_clean_linker_0, # of connection points: 2
#     Edge 14, Type (0, 1), BuildingBlock: AJUNOK_clean_linker_0, # of connection points: 2
#     Edge 15, Type (0, 1), BuildingBlock: AJUNOK_clean_linker_0, # of connection points: 2
#     Edge 16, Type (0, 1), BuildingBlock: AJUNOK_clean_linker_0, # of connection points: 2
#     Edge 17, Type (0, 1), BuildingBlock: AJUNOK_clean_linker_0, # of connection points: 2
# Relax obj value: 0.079
# Max RMSD: 0.156
# Mean RMSD: 0.089
data_MOF--net-rtl--node1-VOLQOD_clean_sbu_1--node2-ESEHIV_clean_linker_0--edge1-AJUNOK_clean_linker_0
_symmetry_space_group_name_H-M    P1
_symmetry_Int_Tables_number       1
_symmetry_cell_setting            triclinic
loop_
_symmetry_equiv_pos_as_xyz
'x, y, z'
_cell_length_a     25.727609
_cell_length_b     21.957443
_cell_length_c     16.776011
_cell_angle_alpha  90.075732
_cell_angle_beta   90.472293
_cell_angle_gamma 90.092886
loop_
_atom_site_label
_atom_site_type_symbol
_atom_site_fract_x
_atom_site_fract_y
_atom_site_fract_z
_atom_type_partial_charge
H0 H 0.04432 0.8055 0.01423 0.0
H1 H 0.16496 0.71034 0.14055 0.0
H2 H 0.1561 0.70116 0.88419 0.0
C3 C 0.07622 0.77325 0.01393 0.0
C4 C 0.09711 0.75421 0.94128 0.0
C5 C 0.10028 0.75671 0.08592 0.0
C6 C 0.14479 0.71999 0.08499 0.0
C7 C 0.16541 0.69959 0.01245 0.0
C8 C 0.14035 0.71564 0.94085 0.0
H9 H 0.55179 0.70661 0.52813 0.0
H10 H 0.66253 0.81563 0.40145 0.0
H11 H 0.66249 0.81557 0.65778 0.0
C12 C 0.58187 0.74124 0.52854 0.0
C13 C 0.60284 0.761 0.60156 0.0
C14 C 0.60243 0.76153 0.45604 0.0
C15 C 0.64488 0.80178 0.45704 0.0
C16 C 0.66704 0.82063 0.52967 0.0
C17 C 0.64511 0.80132 0.60165 0.0
H18 H 0.94229 0.20592 0.01187 0.0
H19 H 0.83444 0.3169 0.14159 0.0
H20 H 0.83211 0.31726 0.88548 0.0
C21 C 0.91256 0.24087 0.01233 0.0
C22 C 0.89052 0.26015 0.93994 0.0
C23 C 0.89336 0.26196 0.08543 0.0
C24 C 0.85138 0.3028 0.08557 0.0
C25 C 0.82871 0.32188 0.01353 0.0
C26 C 0.84966 0.30225 0.94103 0.0
H27 H 0.44966 0.30724 0.52741 0.0
H28 H 0.34113 0.19645 0.65535 0.0
H29 H 0.33292 0.20677 0.39915 0.0
C30 C 0.41903 0.27321 0.52707 0.0
C31 C 0.39546 0.25629 0.45481 0.0
C32 C 0.39896 0.2522 0.59936 0.0
C33 C 0.35704 0.21143 0.59901 0.0
C34 C 0.33338 0.19348 0.52689 0.0
C35 C 0.35289 0.21641 0.45491 0.0
O36 O 0.87077 0.99877 0.51075 0.0
Zn37 Zn 0.93331 0.05471 0.51021 0.0
O38 O -0.00114 0.00927 0.51348 0.0
Zn39 Zn 0.03802 0.03057 0.60946 0.0
Zn40 Zn 0.98374 0.922 0.51301 0.0
Zn41 Zn 0.04093 0.02965 0.42128 0.0
O42 O 0.10763 0.06634 0.58444 0.0
O43 O 0.11144 0.06138 0.45251 0.0
O44 O 0.92711 0.10872 0.60654 0.0
O45 O -0.00026 0.09177 0.67524 0.0
O46 O 0.05046 0.95661 0.67684 0.0
O47 O 0.01285 0.88058 0.61024 0.0
O48 O 0.01115 0.88065 0.41453 0.0
O49 O 0.92947 0.10786 0.41291 0.0
O50 O 0.05256 0.95605 0.35347 0.0
O51 O 0.00542 0.09324 0.35397 0.0
C52 C 0.86736 0.94104 0.51558 0.0
C53 C 0.13198 0.07427 0.51965 0.0
C54 C 0.03811 0.90068 0.67022 0.0
C55 C 0.95624 0.1186 0.66689 0.0
C56 C 0.03836 0.9006 0.35714 0.0
C57 C 0.96138 0.11949 0.35729 0.0
O58 O 0.90757 0.90756 0.51669 0.0
O59 O 0.6248 0.49931 0.02808 0.0
Zn60 Zn 0.56235 0.55528 0.02885 0.0
O61 O 0.49681 0.5091 0.0271 0.0
Zn62 Zn 0.4575 0.5286 0.93112 0.0
Zn63 Zn 0.51161 0.42178 0.02913 0.0
Zn64 Zn 0.45462 0.53074 0.11876 0.0
O65 O 0.38875 0.56574 0.95546 0.0
O66 O 0.38506 0.56509 0.08749 0.0
O67 O 0.56759 0.60997 0.93252 0.0
O68 O 0.49499 0.58968 0.86511 0.0
O69 O 0.44465 0.4542 0.86475 0.0
O70 O 0.48299 0.37915 0.93167 0.0
O71 O 0.48293 0.38146 0.12775 0.0
O72 O 0.56682 0.60841 0.12656 0.0
O73 O 0.44122 0.45772 0.18638 0.0
O74 O 0.49113 0.59337 0.18623 0.0
C75 C 0.62818 0.44146 0.02629 0.0
C76 C 0.365 0.57706 0.01983 0.0
C77 C 0.45732 0.39847 0.87172 0.0
C78 C 0.53751 0.61871 0.87295 0.0
C79 C 0.45479 0.40208 0.18371 0.0
C80 C 0.53516 0.61973 0.18265 0.0
O81 O 0.58795 0.4078 0.02724 0.0
C82 C 0.24485 0.1742 0.58201 0.0
C83 C 0.28391 0.15852 0.52736 0.0
C84 C 0.19628 0.14557 0.58016 0.0
C85 C 0.18448 0.10109 0.52257 0.0
H86 H 0.25115 0.21023 0.62519 0.0
H87 H 0.16717 0.15986 0.62256 0.0
S88 S 0.27415 0.03941 0.3707 0.0
N89 N 0.30868 0.09176 0.4182 0.0
N90 N 0.2163 0.03977 0.41265 0.0
C91 C 0.22325 0.08398 0.46852 0.0
C92 C 0.27318 0.11227 0.47138 0.0
C93 C 0.22612 0.6202 0.06636 0.0
C94 C 0.21602 0.66727 0.01147 0.0
C95 C 0.27452 0.59105 0.06893 0.0
C96 C 0.31408 0.60729 0.01576 0.0
H97 H 0.1964 0.60585 0.10771 0.0
H98 H 0.28087 0.55523 0.11227 0.0
S99 S 0.30938 0.73064 0.86527 0.0
N100 N 0.25147 0.7317 0.90687 0.0
N101 N 0.3413 0.67469 0.90923 0.0
C102 C 0.30468 0.65412 0.96068 0.0
C103 C 0.25592 0.68467 0.95911 0.0
C104 C 0.72321 0.90854 0.48947 0.0
C105 C 0.71734 0.85309 0.53021 0.0
C106 C 0.77171 0.93781 0.48643 0.0
C107 C 0.81593 0.91169 0.52249 0.0
H108 H 0.69017 0.9292 0.45966 0.0
H109 H 0.77484 0.98027 0.45401 0.0
S110 S 0.82038 0.76721 0.6372 0.0
N111 N 0.75923 0.77349 0.60792 0.0
N112 N 0.85021 0.82803 0.60216 0.0
C113 C 0.81023 0.85646 0.56398 0.0
C114 C 0.76095 0.82725 0.56784 0.0
C115 C 0.77259 0.41028 0.05219 0.0
C116 C 0.77823 0.35376 0.01388 0.0
C117 C 0.72404 0.43938 0.05465 0.0
C118 C 0.6796 0.41205 0.02045 0.0
H119 H 0.80586 0.43201 0.08027 0.0
H120 H 0.72107 0.4828 0.085 0.0
S121 S 0.67455 0.26413 0.913 0.0
N122 N 0.73585 0.2716 0.94103 0.0
N123 N 0.64489 0.32582 0.94554 0.0
C124 C 0.68507 0.35558 0.98171 0.0
C125 C 0.73434 0.32652 0.97851 0.0
C126 C 0.11901 0.83074 0.19399 0.0
C127 C 0.08503 0.78767 0.16002 0.0
C128 C 0.10374 0.86629 0.25886 0.0
C129 C 0.05437 0.8591 0.29288 0.0
H130 H 0.15699 0.83848 0.16838 0.0
H131 H 0.13063 0.90011 0.28207 0.0
S132 S 0.95195 0.75075 0.22702 0.0
N133 N 0.00047 0.73879 0.165 0.0
N134 N 0.97204 0.80446 0.28919 0.0
C135 C 0.02065 0.81467 0.26109 0.0
C136 C 0.03589 0.77932 0.19383 0.0
C137 C 0.62179 0.7071 0.72962 0.0
C138 C 0.58512 0.7326 0.67668 0.0
C139 C 0.60602 0.67237 0.79508 0.0
C140 C 0.55306 0.66142 0.80943 0.0
H141 H 0.66303 0.71159 0.71839 0.0
H142 H 0.63562 0.65172 0.83251 0.0
S143 S 0.44173 0.7256 0.69524 0.0
N144 N 0.49367 0.75043 0.64803 0.0
N145 N 0.46385 0.68427 0.77032 0.0
C146 C 0.51598 0.68936 0.75936 0.0
C147 C 0.53206 0.72513 0.69316 0.0
C148 C 0.87612 0.20869 0.214 0.0
C149 C 0.91212 0.23371 0.16055 0.0
C150 C 0.89258 0.17369 0.27913 0.0
C151 C 0.94567 0.16193 0.29292 0.0
H152 H 0.83475 0.21374 0.20345 0.0
H153 H 0.86323 0.15367 0.31695 0.0
S154 S 0.05572 0.22418 0.17642 0.0
N155 N 0.00328 0.2499 0.13022 0.0
N156 N 0.03444 0.18327 0.25199 0.0
C157 C 0.9822 0.18925 0.24213 0.0
C158 C 0.96538 0.22531 0.17613 0.0
C159 C 0.37862 0.32545 0.70666 0.0
C160 C 0.41365 0.28353 0.67385 0.0
C161 C 0.39284 0.36157 0.77196 0.0
C162 C 0.44218 0.35601 0.80765 0.0
H163 H 0.34057 0.33184 0.67978 0.0
H164 H 0.36523 0.39459 0.79415 0.0
S165 S 0.54737 0.25152 0.74505 0.0
N166 N 0.49934 0.23778 0.68143 0.0
N167 N 0.52579 0.3044 0.80665 0.0
C168 C 0.47702 0.31277 0.77701 0.0
C169 C 0.46286 0.27689 0.70921 0.0
C170 C 0.62034 0.70783 0.3278 0.0
C171 C 0.58413 0.73345 0.38044 0.0
C172 C 0.60405 0.67302 0.26221 0.0
C173 C 0.55095 0.66207 0.24722 0.0
H174 H 0.66167 0.71226 0.33937 0.0
H175 H 0.63346 0.65244 0.22503 0.0
S176 S 0.44058 0.72624 0.36108 0.0
N177 N 0.4929 0.75119 0.40856 0.0
N178 N 0.46206 0.68488 0.286 0.0
C179 C 0.51428 0.69004 0.29715 0.0
C180 C 0.53092 0.72591 0.36355 0.0
C181 C 0.95924 0.2217 0.84815 0.0
C182 C 0.90626 0.23025 0.8646 0.0
C183 C 0.97506 0.18699 0.78266 0.0
C184 C 0.93847 0.15986 0.73081 0.0
H185 H 0.98873 0.24091 0.88728 0.0
H186 H 0.01631 0.18061 0.77335 0.0
S187 S 0.79489 0.16813 0.74787 0.0
N188 N 0.81713 0.20827 0.82409 0.0
N189 N 0.84682 0.14452 0.69975 0.0
C190 C 0.88533 0.1696 0.74511 0.0
C191 C 0.86923 0.20442 0.8123 0.0
C192 C 0.45787 0.28243 0.3464 0.0
C193 C 0.40885 0.28941 0.38145 0.0
C194 C 0.47191 0.31734 0.27987 0.0
C195 C 0.43778 0.36127 0.24813 0.0
H196 H 0.48559 0.25037 0.37113 0.0
H197 H 0.51034 0.31157 0.25505 0.0
S198 S 0.30449 0.39524 0.31789 0.0
N199 N 0.32569 0.34151 0.37871 0.0
N200 N 0.35232 0.40807 0.25501 0.0
C201 C 0.3884 0.36779 0.2822 0.0
C202 C 0.37386 0.33159 0.34865 0.0
C203 C 0.11696 0.82814 0.83482 0.0
C204 C 0.08199 0.78599 0.86751 0.0
C205 C 0.10259 0.8644 0.76995 0.0
C206 C 0.05318 0.85872 0.73457 0.0
H207 H 0.15515 0.83451 0.86137 0.0
H208 H 0.1302 0.89747 0.74769 0.0
S209 S 0.94804 0.75386 0.79708 0.0
N210 N -0.00377 0.74008 0.86028 0.0
N211 N 0.9695 0.80696 0.73576 0.0
C212 C 0.01834 0.8154 0.76519 0.0
C213 C 0.03265 0.7794 0.83259 0.0
loop_
_geom_bond_atom_site_label_1
_geom_bond_atom_site_label_2
_geom_bond_distance
_geom_bond_site_symmetry_2
_ccdc_geom_bond_type
H0 C3 0.931 . S
H1 C6 0.928 . S
H2 C8 0.930 . S
C3 H0 0.931 . S
C3 C4 1.413 1_554 S
C3 C5 1.360 . S
C4 C3 1.413 1_556 S
C4 C8 1.429 . S
C5 C3 1.360 . S
C5 C6 1.372 . S
C6 H1 0.928 . S
C6 C5 1.372 . S
C6 C7 1.404 . S
C7 C6 1.404 . S
C7 C8 1.391 1_554 S
C8 H2 0.930 . S
C8 C4 1.429 . S
C8 C7 1.391 1_556 S
H9 C12 0.931 . S
H10 C15 0.928 . S
H11 C17 0.930 . S
C12 H9 0.931 . S
C12 C13 1.413 . S
C12 C14 1.360 . S
C13 C12 1.413 . S
C13 C17 1.429 . S
C14 C12 1.360 . S
C14 C15 1.372 . S
C15 H10 0.928 . S
C15 C14 1.372 . S
C15 C16 1.404 . S
C16 C15 1.404 . S
C16 C17 1.391 . S
C17 H11 0.930 . S
C17 C13 1.429 . S
C17 C16 1.391 . S
H18 C21 0.931 . S
H19 C24 0.928 . S
H20 C26 0.930 . S
C21 H18 0.931 . S
C21 C22 1.413 1_554 S
C21 C23 1.360 . S
C22 C21 1.413 1_556 S
C22 C26 1.429 . S
C23 C21 1.360 . S
C23 C24 1.372 . S
C24 H19 0.928 . S
C24 C23 1.372 . S
C24 C25 1.404 . S
C25 C24 1.404 . S
C25 C26 1.391 1_554 S
C26 H20 0.930 . S
C26 C22 1.429 . S
C26 C25 1.391 1_556 S
H27 C30 0.931 . S
H28 C33 0.928 . S
H29 C35 0.930 . S
C30 H27 0.931 . S
C30 C31 1.413 . S
C30 C32 1.360 . S
C31 C30 1.413 . S
C31 C35 1.429 . S
C32 C30 1.360 . S
C32 C33 1.372 . S
C33 H28 0.928 . S
C33 C32 1.372 . S
C33 C34 1.404 . S
C34 C33 1.404 . S
C34 C35 1.391 . S
C35 H29 0.930 . S
C35 C31 1.429 . S
C35 C34 1.391 . S
O36 Zn37 1.953 1_565 S
O36 C52 1.225 . S
Zn37 O36 1.953 1_545 S
Zn37 O38 1.949 1_655 S
Zn37 O44 1.919 . S
Zn37 O49 1.924 . S
O38 Zn37 1.949 1_455 S
O38 Zn39 1.923 . S
O38 Zn40 1.950 1_445 S
O38 Zn41 1.945 . S
Zn39 O38 1.923 . S
Zn39 O42 1.933 . S
Zn39 O45 1.941 . S
Zn39 O46 1.965 1_545 S
Zn40 O38 1.950 1_665 S
Zn40 O47 1.938 1_655 S
Zn40 O48 1.906 1_655 S
Zn40 O58 1.953 . S
Zn41 O38 1.945 . S
Zn41 O43 1.932 . S
Zn41 O50 1.977 1_545 S
Zn41 O51 1.910 1_455 S
O42 Zn39 1.933 . S
O42 C53 1.226 . S
O43 Zn41 1.932 . S
O43 C53 1.307 . S
O44 Zn37 1.919 . S
O44 C55 1.253 . S
O45 Zn39 1.941 . S
O45 C55 1.283 1_455 S
O46 Zn39 1.965 1_565 S
O46 C54 1.303 . S
O47 Zn40 1.938 1_455 S
O47 C54 1.247 . S
O48 Zn40 1.906 1_455 S
O48 C56 1.304 . S
O49 Zn37 1.924 . S
O49 C57 1.311 . S
O50 Zn41 1.977 1_565 S
O50 C56 1.272 . S
O51 Zn41 1.910 1_655 S
O51 C57 1.231 . S
C52 O36 1.225 . S
C52 O58 1.298 . S
C53 O42 1.226 . S
C53 O43 1.307 . S
C54 O46 1.303 . S
C54 O47 1.247 . S
C55 O44 1.253 . S
C55 O45 1.283 1_655 S
C56 O48 1.304 . S
C56 O50 1.272 . S
C57 O49 1.311 . S
C57 O51 1.231 . S
O58 Zn40 1.953 . S
O58 C52 1.298 . S
O59 Zn60 1.953 . S
O59 C75 1.225 . S
Zn60 O59 1.953 . S
Zn60 O61 1.949 . S
Zn60 O67 1.919 1_554 S
Zn60 O72 1.924 . S
O61 Zn60 1.949 . S
O61 Zn62 1.923 1_554 S
O61 Zn63 1.950 . S
O61 Zn64 1.945 . S
Zn62 O61 1.923 1_556 S
Zn62 O65 1.933 . S
Zn62 O68 1.941 . S
Zn62 O69 1.965 . S
Zn63 O61 1.950 . S
Zn63 O70 1.938 1_554 S
Zn63 O71 1.906 . S
Zn63 O81 1.953 . S
Zn64 O61 1.945 . S
Zn64 O66 1.932 . S
Zn64 O73 1.977 . S
Zn64 O74 1.910 . S
O65 Zn62 1.933 . S
O65 C76 1.226 1_556 S
O66 Zn64 1.932 . S
O66 C76 1.307 . S
O67 Zn60 1.919 1_556 S
O67 C78 1.253 . S
O68 Zn62 1.941 . S
O68 C78 1.283 . S
O69 Zn62 1.965 . S
O69 C77 1.303 . S
O70 Zn63 1.938 1_556 S
O70 C77 1.247 . S
O71 Zn63 1.906 . S
O71 C79 1.304 . S
O72 Zn60 1.924 . S
O72 C80 1.311 . S
O73 Zn64 1.977 . S
O73 C79 1.272 . S
O74 Zn64 1.910 . S
O74 C80 1.231 . S
C75 O59 1.225 . S
C75 O81 1.298 . S
C76 O65 1.226 1_554 S
C76 O66 1.307 . S
C77 O69 1.303 . S
C77 O70 1.247 . S
C78 O67 1.253 . S
C78 O68 1.283 . S
C79 O71 1.304 . S
C79 O73 1.272 . S
C80 O72 1.311 . S
C80 O74 1.231 . S
O81 Zn63 1.953 . S
O81 C75 1.298 . S
C82 C83 1.369 . S
C82 C84 1.419 . S
C82 H86 0.930 . S
C83 C82 1.369 . S
C83 C92 1.429 . S
C84 C82 1.419 . S
C84 C85 1.363 . S
C84 H87 0.929 . S
C85 C84 1.363 . S
C85 C91 1.428 . S
H86 C82 0.930 . S
H87 C84 0.929 . S
S88 N89 1.613 1_565 S
S88 N90 1.610 1_565 S
N89 S88 1.613 1_545 S
N89 C92 1.350 . S
N90 S88 1.610 1_545 S
N90 C91 1.351 . S
C91 C85 1.428 . S
C91 N90 1.351 . S
C91 C92 1.434 . S
C92 C83 1.429 . S
C92 N89 1.350 . S
C92 C91 1.434 . S
C93 C94 1.369 . S
C93 C95 1.419 . S
C93 H97 0.930 . S
C94 C93 1.369 . S
C94 C103 1.429 . S
C95 C93 1.419 . S
C95 C96 1.363 . S
C95 H98 0.929 . S
C96 C95 1.363 . S
C96 C102 1.428 . S
H97 C93 0.930 . S
H98 C95 0.929 . S
S99 N100 1.614 . S
S99 N101 1.611 . S
N100 S99 1.614 . S
N100 C103 1.350 . S
N101 S99 1.611 . S
N101 C102 1.351 . S
C102 C96 1.428 . S
C102 N101 1.351 . S
C102 C103 1.434 . S
C103 C94 1.429 . S
C103 N100 1.350 . S
C103 C102 1.434 . S
C104 C105 1.369 . S
C104 C106 1.419 . S
C104 H108 0.930 . S
C105 C104 1.369 . S
C105 C114 1.429 . S
C106 C104 1.419 . S
C106 C107 1.363 . S
C106 H109 0.929 . S
C107 C106 1.363 . S
C107 C113 1.428 . S
H108 C104 0.930 . S
H109 C106 0.929 . S
S110 N111 1.613 . S
S110 N112 1.610 . S
N111 S110 1.613 . S
N111 C114 1.350 . S
N112 S110 1.610 . S
N112 C113 1.351 . S
C113 C107 1.428 . S
C113 N112 1.351 . S
C113 C114 1.434 . S
C114 C105 1.429 . S
C114 N111 1.350 . S
C114 C113 1.434 . S
C115 C116 1.369 . S
C115 C117 1.419 . S
C115 H119 0.930 . S
C116 C115 1.369 . S
C116 C125 1.429 1_554 S
C117 C115 1.419 . S
C117 C118 1.363 . S
C117 H120 0.929 . S
C118 C117 1.363 . S
C118 C124 1.428 1_554 S
H119 C115 0.930 . S
H120 C117 0.929 . S
S121 N122 1.613 . S
S121 N123 1.610 . S
N122 S121 1.613 . S
N122 C125 1.350 . S
N123 S121 1.610 . S
N123 C124 1.351 . S
C124 C118 1.428 1_556 S
C124 N123 1.351 . S
C124 C125 1.434 . S
C125 C116 1.429 1_556 S
C125 N122 1.350 . S
C125 C124 1.434 . S
C126 C127 1.369 . S
C126 C128 1.419 . S
C126 H130 0.930 . S
C127 C126 1.369 . S
C127 C136 1.429 . S
C128 C126 1.419 . S
C128 C129 1.363 . S
C128 H131 0.929 . S
C129 C128 1.363 . S
C129 C135 1.428 . S
H130 C126 0.930 . S
H131 C128 0.929 . S
S132 N133 1.613 . S
S132 N134 1.610 . S
N133 S132 1.613 . S
N133 C136 1.350 1_655 S
N134 S132 1.610 . S
N134 C135 1.351 1_655 S
C135 C129 1.428 . S
C135 N134 1.351 1_455 S
C135 C136 1.434 . S
C136 C127 1.429 . S
C136 N133 1.350 1_455 S
C136 C135 1.434 . S
C137 C138 1.369 . S
C137 C139 1.419 . S
C137 H141 0.930 . S
C138 C137 1.369 . S
C138 C147 1.429 . S
C139 C137 1.419 . S
C139 C140 1.363 . S
C139 H142 0.929 . S
C140 C139 1.363 . S
C140 C146 1.428 . S
H141 C137 0.930 . S
H142 C139 0.929 . S
S143 N144 1.613 . S
S143 N145 1.610 . S
N144 S143 1.613 . S
N144 C147 1.350 . S
N145 S143 1.610 . S
N145 C146 1.351 . S
C146 C140 1.428 . S
C146 N145 1.351 . S
C146 C147 1.434 . S
C147 C138 1.429 . S
C147 N144 1.350 . S
C147 C146 1.434 . S
C148 C149 1.369 . S
C148 C150 1.419 . S
C148 H152 0.930 . S
C149 C148 1.369 . S
C149 C158 1.429 . S
C150 C148 1.419 . S
C150 C151 1.363 . S
C150 H153 0.929 . S
C151 C150 1.363 . S
C151 C157 1.428 . S
H152 C148 0.930 . S
H153 C150 0.929 . S
S154 N155 1.613 . S
S154 N156 1.610 . S
N155 S154 1.613 . S
N155 C158 1.350 1_455 S
N156 S154 1.610 . S
N156 C157 1.351 1_455 S
C157 C151 1.428 . S
C157 N156 1.351 1_655 S
C157 C158 1.434 . S
C158 C149 1.429 . S
C158 N155 1.350 1_655 S
C158 C157 1.434 . S
C159 C160 1.369 . S
C159 C161 1.419 . S
C159 H163 0.930 . S
C160 C159 1.369 . S
C160 C169 1.429 . S
C161 C159 1.419 . S
C161 C162 1.363 . S
C161 H164 0.929 . S
C162 C161 1.363 . S
C162 C168 1.428 . S
H163 C159 0.930 . S
H164 C161 0.929 . S
S165 N166 1.613 . S
S165 N167 1.610 . S
N166 S165 1.613 . S
N166 C169 1.350 . S
N167 S165 1.610 . S
N167 C168 1.351 . S
C168 C162 1.428 . S
C168 N167 1.351 . S
C168 C169 1.434 . S
C169 C160 1.429 . S
C169 N166 1.350 . S
C169 C168 1.434 . S
C170 C171 1.369 . S
C170 C172 1.419 . S
C170 H174 0.930 . S
C171 C170 1.369 . S
C171 C180 1.429 . S
C172 C170 1.419 . S
C172 C173 1.363 . S
C172 H175 0.929 . S
C173 C172 1.363 . S
C173 C179 1.428 . S
H174 C170 0.930 . S
H175 C172 0.929 . S
S176 N177 1.613 . S
S176 N178 1.610 . S
N177 S176 1.613 . S
N177 C180 1.350 . S
N178 S176 1.610 . S
N178 C179 1.351 . S
C179 C173 1.428 . S
C179 N178 1.351 . S
C179 C180 1.434 . S
C180 C171 1.429 . S
C180 N177 1.350 . S
C180 C179 1.434 . S
C181 C182 1.369 . S
C181 C183 1.419 . S
C181 H185 0.930 . S
C182 C181 1.369 . S
C182 C191 1.429 . S
C183 C181 1.419 . S
C183 C184 1.363 . S
C183 H186 0.929 1_655 S
C184 C183 1.363 . S
C184 C190 1.428 . S
H185 C181 0.930 . S
H186 C183 0.929 1_455 S
S187 N188 1.613 . S
S187 N189 1.610 . S
N188 S187 1.613 . S
N188 C191 1.350 . S
N189 S187 1.610 . S
N189 C190 1.351 . S
C190 C184 1.428 . S
C190 N189 1.351 . S
C190 C191 1.434 . S
C191 C182 1.429 . S
C191 N188 1.350 . S
C191 C190 1.434 . S
C192 C193 1.369 . S
C192 C194 1.419 . S
C192 H196 0.930 . S
C193 C192 1.369 . S
C193 C202 1.429 . S
C194 C192 1.419 . S
C194 C195 1.363 . S
C194 H197 0.929 . S
C195 C194 1.363 . S
C195 C201 1.428 . S
H196 C192 0.930 . S
H197 C194 0.929 . S
S198 N199 1.613 . S
S198 N200 1.610 . S
N199 S198 1.613 . S
N199 C202 1.350 . S
N200 S198 1.610 . S
N200 C201 1.351 . S
C201 C195 1.428 . S
C201 N200 1.351 . S
C201 C202 1.434 . S
C202 C193 1.429 . S
C202 N199 1.350 . S
C202 C201 1.434 . S
C203 C204 1.369 . S
C203 C205 1.419 . S
C203 H207 0.930 . S
C204 C203 1.369 . S
C204 C213 1.429 . S
C205 C203 1.419 . S
C205 C206 1.363 . S
C205 H208 0.929 . S
C206 C205 1.363 . S
C206 C212 1.428 . S
H207 C203 0.930 . S
H208 C205 0.929 . S
S209 N210 1.608 1_655 S
S209 N211 1.610 . S
N210 S209 1.608 1_455 S
N210 C213 1.354 . S
N211 S209 1.610 . S
N211 C212 1.351 1_655 S
C212 C206 1.428 . S
C212 N211 1.351 1_455 S
C212 C213 1.434 . S
C213 C204 1.429 . S
C213 N210 1.354 . S
C213 C212 1.434 . S
C85 C53 1.536 . S
C83 C34 1.522 . S
C94 C7 1.511 . S
C96 C76 1.538 . S
C105 C16 1.523 . S
C107 C52 1.548 . S
C116 C25 1.524 . S
C118 C75 1.548 . S
C129 C56 1.506 . S
C127 C5 1.550 . S
C140 C78 1.517 . S
C138 C13 1.560 . S
C149 C23 1.562 . S
C151 C57 1.516 . S
C160 C32 1.551 . S
C162 C77 1.513 . S
C173 C80 1.515 . S
C171 C14 1.559 . S
C184 C55 1.508 . S
C182 C22 1.555 . S
C195 C79 1.512 . S
C193 C31 1.555 . S
C204 C4 1.547 . S
C206 C54 1.511 . S
