# Generated by pormake.
# Topology pyr, (3,6)-cn, num edge types: 1
# Building blocks:
#     Node 0, Type 0, BuildingBlock: BETDAH_clean_linker_0, # of connection points: 3
#     Node 1, Type 0, BuildingBlock: BETDAH_clean_linker_0, # of connection points: 3
#     Node 2, Type 0, BuildingBlock: BETDAH_clean_linker_0, # of connection points: 3
#     Node 3, Type 0, BuildingBlock: BETDAH_clean_linker_0, # of connection points: 3
#     Node 4, Type 0, BuildingBlock: BETDAH_clean_linker_0, # of connection points: 3
#     Node 5, Type 0, BuildingBlock: BETDAH_clean_linker_0, # of connection points: 3
#     Node 6, Type 0, BuildingBlock: BETDAH_clean_linker_0, # of connection points: 3
#     Node 7, Type 0, BuildingBlock: BETDAH_clean_linker_0, # of connection points: 3
#     Node 8, Type 1, BuildingBlock: JUFBIX_clean_sbu_0, # of connection points: 6
#     Node 9, Type 1, BuildingBlock: JUFBIX_clean_sbu_0, # of connection points: 6
#     Node 10, Type 1, BuildingBlock: JUFBIX_clean_sbu_0, # of connection points: 6
#     Node 11, Type 1, BuildingBlock: JUFBIX_clean_sbu_0, # of connection points: 6
#     Edge 12, Type (0, 1), None
#     Edge 13, Type (0, 1), None
#     Edge 14, Type (0, 1), None
#     Edge 15, Type (0, 1), None
#     Edge 16, Type (0, 1), None
#     Edge 17, Type (0, 1), None
#     Edge 18, Type (0, 1), None
#     Edge 19, Type (0, 1), None
#     Edge 20, Type (0, 1), None
#     Edge 21, Type (0, 1), None
#     Edge 22, Type (0, 1), None
#     Edge 23, Type (0, 1), None
#     Edge 24, Type (0, 1), None
#     Edge 25, Type (0, 1), None
#     Edge 26, Type (0, 1), None
#     Edge 27, Type (0, 1), None
#     Edge 28, Type (0, 1), None
#     Edge 29, Type (0, 1), None
#     Edge 30, Type (0, 1), None
#     Edge 31, Type (0, 1), None
#     Edge 32, Type (0, 1), None
#     Edge 33, Type (0, 1), None
#     Edge 34, Type (0, 1), None
#     Edge 35, Type (0, 1), None
# Relax obj value: 0.308
# Max RMSD: 0.234
# Mean RMSD: 0.133
data_MOF--net-pry--node1-JUFBIX_clean_sbu_0--node2-BETDAH_clean_linker_0--edge1-none
_symmetry_space_group_name_H-M    P1
_symmetry_Int_Tables_number       1
_symmetry_cell_setting            triclinic
loop_
_symmetry_equiv_pos_as_xyz
'x, y, z'
_cell_length_a     16.089473
_cell_length_b     14.694673
_cell_length_c     16.711829
_cell_angle_alpha  77.40087
_cell_angle_beta   84.142161
_cell_angle_gamma 101.15294
loop_
_atom_site_label
_atom_site_type_symbol
_atom_site_fract_x
_atom_site_fract_y
_atom_site_fract_z
_atom_type_partial_charge
H0 H 0.37602 0.0901 0.36215 0.0
H1 H 0.3258 0.2161 0.1179 0.0
H2 H 0.15294 0.21149 0.33081 0.0
C3 C 0.33797 0.1282 0.3229 0.0
C4 C 0.26063 0.14754 0.36014 0.0
C5 C 0.36353 0.15431 0.23415 0.0
C6 C 0.31032 0.19878 0.18494 0.0
C7 C 0.23651 0.22116 0.21974 0.0
C8 C 0.21254 0.19674 0.30622 0.0
N9 N 0.18046 0.25425 0.16554 0.0
C10 C 0.15041 0.33752 0.16218 0.0
H11 H 0.48102 0.79622 0.83678 0.0
H12 H 0.62119 0.0906 0.76078 0.0
H13 H 0.61547 0.92088 0.58852 0.0
C14 C 0.52351 0.85512 0.79133 0.0
C15 C 0.55666 0.84235 0.71324 0.0
C16 C 0.54741 0.94656 0.80902 0.0
C17 C 0.60663 0.01909 0.75113 0.0
C18 C 0.62003 0.01283 0.67006 0.0
C19 C 0.60276 0.92367 0.65274 0.0
N20 N 0.60292 0.0886 0.6122 0.0
C21 C 0.51798 0.09198 0.61927 0.0
H22 H 0.79949 0.33312 0.1217 0.0
H23 H 0.91792 0.55141 0.90084 0.0
H24 H 0.68122 0.36076 0.89834 0.0
C25 C 0.79861 0.36894 1.058 0.0
C26 C 0.73058 0.33371 1.01518 0.0
C27 C 0.86748 0.44848 1.01699 0.0
C28 C 0.86662 0.4914 0.93402 0.0
C29 C 0.79914 0.46274 0.89284 0.0
C30 C 0.73138 0.38426 0.93271 0.0
N31 N 0.8044 0.51298 0.80929 0.0
C32 C 0.73537 0.53918 0.77469 0.0
H33 H 0.9818 0.88066 0.47646 0.0
H34 H 0.13501 0.69192 0.58589 0.0
H35 H 0.8845 0.57875 0.54046 0.0
C36 C 0.98889 0.80936 0.50235 0.0
C37 C 0.92237 0.73324 0.50302 0.0
C38 C 0.05987 0.79543 0.54309 0.0
C39 C 0.07552 0.70303 0.56479 0.0
C40 C 1.01346 0.62592 0.55532 0.0
C41 C 0.93368 0.64125 0.53625 0.0
N42 N 1.03525 0.53994 0.54473 0.0
C43 C 1.01103 0.5132 0.47412 0.0
H44 H 0.09971 0.84469 0.89154 0.0
H45 H 0.87968 0.81655 1.07539 0.0
H46 H 0.90059 0.98992 0.82728 0.0
C47 C 1.04006 0.86338 0.91008 0.0
C48 C 1.00753 0.92373 0.84845 0.0
C49 C 0.99485 0.82238 0.99306 0.0
C50 C 0.91718 0.84906 1.01471 0.0
C51 C 0.88424 0.9116 0.95511 0.0
C52 C 0.92893 0.94618 0.87298 0.0
N53 N 0.79834 0.92414 0.96899 0.0
C54 C 0.75809 0.95781 1.03177 0.0
H55 H 0.73105 0.05616 0.45692 0.0
H56 H 0.82756 0.24793 0.6021 0.0
H57 H 0.64162 0.31452 0.4451 0.0
C58 C 0.72826 0.11878 0.48064 0.0
C59 C 0.6829 0.18307 0.44303 0.0
C60 C 0.78802 0.14758 0.52901 0.0
C61 C 0.78291 0.22625 0.56185 0.0
C62 C 0.72262 0.28036 0.53893 0.0
C63 C 0.67706 0.26386 0.4737 0.0
N64 N 0.717 0.35574 0.57723 0.0
C65 C 0.6462 0.3951 0.58732 0.0
H66 H 0.35715 0.81767 0.11311 0.0
H67 H 0.21867 0.59444 0.32143 0.0
H68 H 0.44887 0.78009 0.35011 0.0
C69 C 0.35109 0.77906 0.17715 0.0
C70 C 0.41191 0.80968 0.22838 0.0
C71 C 0.27954 0.70177 0.2094 0.0
C72 C 0.27219 0.65383 0.2941 0.0
C73 C 0.33397 0.67944 0.34444 0.0
C74 C 0.40327 0.75762 0.31098 0.0
N75 N 0.32281 0.62724 0.42925 0.0
C76 C 0.38656 0.6291 0.48062 0.0
H77 H 0.26837 0.20533 0.75923 0.0
H78 H 0.19445 0.43598 0.83578 0.0
H79 H 0.10347 0.35821 0.62223 0.0
C80 C 0.22856 0.25735 0.75342 0.0
C81 C 0.17781 0.26754 0.69002 0.0
C82 C 0.23762 0.3226 0.80274 0.0
C83 C 0.18532 0.38782 0.79642 0.0
C84 C 0.14456 0.40893 0.72634 0.0
C85 C 0.13738 0.34533 0.67494 0.0
N86 N 0.12289 0.49955 0.70169 0.0
C87 C 0.14958 0.56945 0.74365 0.0
Co88 Co 0.08464 0.06379 0.58838 0.0
C89 C 0.10526 0.87864 0.56934 0.0
Co90 Co 0.1938 0.00895 0.62357 0.0
C91 C 0.91992 0.1062 0.57854 0.0
C92 C 0.97573 0.06986 0.47066 0.0
N93 N 0.98888 0.07953 0.54698 0.0
N94 N 0.86409 0.11246 0.52438 0.0
C95 C 0.89965 0.091 0.45628 0.0
H96 H 0.9118 0.12249 0.6386 0.0
H97 H 1.01955 0.05052 0.42719 0.0
C98 C 0.16519 0.19448 0.64303 0.0
N99 N 0.29411 0.99746 0.66263 0.0
C100 C 0.37048 0.02232 0.61333 0.0
C101 C 0.31113 0.02036 0.73443 0.0
N102 N 0.43115 0.06786 0.64839 0.0
C103 C 0.39586 0.0645 0.72529 0.0
C104 C 0.22244 0.11155 0.45229 0.0
O105 O 0.09833 0.18063 0.6107 0.0
O106 O 0.21203 0.13348 0.64839 0.0
O107 O 0.25774 0.0647 0.50699 0.0
O108 O 0.14854 0.12255 0.47677 0.0
O109 O 0.17442 0.88448 0.60028 0.0
H110 H 0.26355 0.01777 0.78593 0.0
H111 H 0.38099 0.01296 0.55091 0.0
O112 O 0.06701 0.94638 0.56495 0.0
O113 O 1.01928 1.00641 0.7015 0.0
O114 O 0.12969 0.95169 0.73794 0.0
C115 C 0.0539 0.96155 0.75872 0.0
H116 H 0.8739 0.09376 0.39863 0.0
H117 H 0.42851 0.09454 0.77025 0.0
Co118 Co 0.54131 0.0742 1.07079 0.0
C119 C 0.47899 0.90089 0.19703 0.0
Co120 Co 0.59824 0.06483 0.18483 0.0
C121 C 0.54232 0.04521 0.91158 0.0
C122 C 0.41657 0.99282 0.97888 0.0
N123 N 0.49167 0.05433 0.97722 0.0
N124 N 0.50666 0.97367 0.87848 0.0
C125 C 0.42613 0.94199 0.91906 0.0
H126 H 0.60893 0.08244 0.8951 0.0
H127 H 0.36218 0.97638 1.02742 0.0
C128 C 0.66294 0.24155 1.05334 0.0
N129 N 0.65198 0.08484 0.27314 0.0
C130 C 0.61845 0.11222 0.3391 0.0
C131 C 0.73454 0.13323 0.25659 0.0
N132 N 0.67464 0.18094 0.35986 0.0
C133 C 0.74688 0.19565 0.30584 0.0
C134 C 0.69374 0.99826 1.07207 0.0
O135 O 0.60853 0.20355 1.01265 0.0
O136 O 0.66356 0.19489 0.12651 0.0
O137 O 0.69284 0.0109 0.14474 0.0
O138 O 0.63481 0.02072 1.03268 0.0
O139 O 0.53194 0.93575 0.24089 0.0
H140 H 0.78035 0.13288 0.20465 0.0
H141 H 0.55355 0.08319 0.37118 0.0
O142 O 0.47792 0.9501 0.12539 0.0
O143 O 0.44639 0.125 0.11417 0.0
O144 O 0.50284 0.11387 0.22843 0.0
C145 C 0.44128 0.13091 0.19008 0.0
H146 H 0.37874 0.8849 0.9079 0.0
H147 H 0.80795 0.24051 0.30875 0.0
Co148 Co 0.60655 0.64364 0.58097 0.0
C149 C 0.45033 0.62859 0.53645 0.0
Co150 Co 0.51487 0.56073 0.68943 0.0
C151 C 0.76867 0.68132 0.4951 0.0
C152 C 0.72665 0.81226 0.47927 0.0
N153 N 0.69813 0.71678 0.50294 0.0
N154 N 0.84147 0.74914 0.47835 0.0
C155 C 0.81489 0.83237 0.46405 0.0
H156 H 0.7661 0.60623 0.51657 0.0
H157 H 0.68771 0.86348 0.48458 0.0
C158 C 0.66985 0.56884 0.7306 0.0
N159 N 0.43262 0.47937 0.76998 0.0
C160 C 0.38185 0.4028 0.75607 0.0
C161 C 0.40759 0.47797 0.84967 0.0
N162 N 0.32109 0.35616 0.82106 0.0
C163 C 0.33831 0.40222 0.88129 0.0
C164 C 0.5889 0.45825 0.58585 0.0
O165 O 0.688 0.61198 0.65461 0.0
O166 O 0.59273 0.54302 0.76407 0.0
O167 O 0.54008 0.45088 0.65257 0.0
O168 O 0.61603 0.53944 0.53732 0.0
O169 O 0.43178 0.57682 0.61094 0.0
H170 H 0.43392 0.53197 0.88061 0.0
H171 H 0.38112 0.39011 0.6946 0.0
O172 O 0.52729 0.67292 0.5089 0.0
O173 O 0.59767 0.74841 0.62522 0.0
O174 O 0.49547 0.67208 0.72838 0.0
C175 C 0.54741 0.74964 0.68861 0.0
H176 H 0.85513 0.90274 0.45351 0.0
H177 H 0.29652 0.39068 0.93935 0.0
Co178 Co 0.12083 0.60217 1.0451 0.0
C179 C 0.94144 0.49141 1.05619 0.0
Co180 Co 1.03217 0.56833 0.16039 0.0
C181 C 0.1482 0.57117 0.88726 0.0
C182 C 0.21686 0.71172 0.88369 0.0
N183 N 0.17451 0.62811 0.93667 0.0
N184 N 0.16931 0.61526 0.8067 0.0
C185 C 0.21397 0.70371 0.80273 0.0
H186 H 0.10888 0.49955 0.91008 0.0
H187 H 0.24119 0.77659 0.90233 0.0
C188 C 0.20964 0.67109 0.15901 0.0
N189 N 0.97826 0.54074 0.26798 0.0
C190 C 1.01884 0.50938 0.33191 0.0
C191 C 0.90026 0.54366 0.30332 0.0
N192 N 0.972 0.49665 0.40578 0.0
C193 C 0.89666 0.51748 0.38843 0.0
C194 C 0.12779 0.42933 0.14234 0.0
O195 O 0.22451 0.66591 0.0835 0.0
O196 O 0.13263 0.64013 0.19578 0.0
O197 O 0.07432 0.45186 0.19152 0.0
O198 O 0.15621 0.48516 1.07166 0.0
O199 O 0.93233 0.49426 0.13146 0.0
H200 H 0.85111 0.56712 0.26979 0.0
H201 H 0.08508 0.50401 0.32461 0.0
O202 O 1.01348 0.53579 1.0116 0.0
O203 O 0.08839 0.71744 1.01434 0.0
O204 O 0.98805 0.68965 0.11995 0.0
C205 C 1.02588 0.74231 1.0482 0.0
H206 H 0.23993 0.75866 0.74632 0.0
H207 H 0.84459 0.52008 0.43345 0.0
loop_
_geom_bond_atom_site_label_1
_geom_bond_atom_site_label_2
_geom_bond_distance
_geom_bond_site_symmetry_2
_ccdc_geom_bond_type
H0 C3 0.929 . S
H1 C6 0.929 . S
H2 C8 0.930 . S
C3 H0 0.929 . S
C3 C4 1.398 . S
C3 C5 1.396 . S
C4 C3 1.398 . S
C4 C8 1.407 . S
C5 C3 1.396 . S
C5 C6 1.394 . S
C6 H1 0.929 . S
C6 C5 1.394 . S
C6 C7 1.382 . S
C7 C6 1.382 . S
C7 C8 1.392 . S
C7 N9 1.420 . S
C8 H2 0.930 . S
C8 C4 1.407 . S
C8 C7 1.392 . S
N9 C7 1.420 . S
N9 C10 1.244 . S
C10 N9 1.244 . S
H11 C14 0.929 . S
H12 C17 0.929 . S
H13 C19 0.930 . S
C14 H11 0.929 . S
C14 C15 1.398 . S
C14 C16 1.396 . S
C15 C14 1.398 . S
C15 C19 1.407 . S
C16 C14 1.396 . S
C16 C17 1.394 . S
C17 H12 0.929 . S
C17 C16 1.394 . S
C17 C18 1.382 . S
C18 C17 1.382 . S
C18 C19 1.392 . S
C18 N20 1.420 . S
C19 H13 0.930 . S
C19 C15 1.407 . S
C19 C18 1.392 . S
N20 C18 1.420 . S
N20 C21 1.244 . S
C21 N20 1.244 . S
H22 C25 0.929 . S
H23 C28 0.929 . S
H24 C30 0.930 . S
C25 H22 0.929 . S
C25 C26 1.398 1_554 S
C25 C27 1.396 1_554 S
C26 C25 1.398 1_556 S
C26 C30 1.407 . S
C27 C25 1.396 1_556 S
C27 C28 1.394 . S
C28 H23 0.929 . S
C28 C27 1.394 . S
C28 C29 1.382 . S
C29 C28 1.382 . S
C29 C30 1.392 . S
C29 N31 1.420 . S
C30 H24 0.930 . S
C30 C26 1.407 . S
C30 C29 1.392 . S
N31 C29 1.420 . S
N31 C32 1.244 . S
C32 N31 1.244 . S
H33 C36 0.929 . S
H34 C39 0.929 . S
H35 C41 0.930 . S
C36 H33 0.929 . S
C36 C37 1.398 . S
C36 C38 1.396 1_655 S
C37 C36 1.398 . S
C37 C41 1.407 . S
C38 C36 1.396 1_455 S
C38 C39 1.394 . S
C39 H34 0.929 . S
C39 C38 1.394 . S
C39 C40 1.382 1_455 S
C40 C39 1.382 1_655 S
C40 C41 1.392 . S
C40 N42 1.420 1_655 S
C41 H35 0.930 . S
C41 C37 1.407 . S
C41 C40 1.392 . S
N42 C40 1.420 1_455 S
N42 C43 1.244 . S
C43 N42 1.244 . S
H44 C47 0.929 . S
H45 C50 0.929 . S
H46 C52 0.930 . S
C47 H44 0.929 . S
C47 C48 1.398 1_455 S
C47 C49 1.396 1_455 S
C48 C47 1.398 1_655 S
C48 C52 1.407 1_565 S
C49 C47 1.396 1_655 S
C49 C50 1.394 . S
C50 H45 0.929 . S
C50 C49 1.394 . S
C50 C51 1.382 . S
C51 C50 1.382 . S
C51 C52 1.392 1_565 S
C51 N53 1.420 1_565 S
C52 H46 0.930 . S
C52 C48 1.407 1_545 S
C52 C51 1.392 1_545 S
N53 C51 1.420 1_545 S
N53 C54 1.244 1_545 S
C54 N53 1.244 1_565 S
H55 C58 0.929 . S
H56 C61 0.929 . S
H57 C63 0.930 . S
C58 H55 0.929 . S
C58 C59 1.398 . S
C58 C60 1.396 . S
C59 C58 1.398 . S
C59 C63 1.407 . S
C60 C58 1.396 . S
C60 C61 1.394 . S
C61 H56 0.929 . S
C61 C60 1.394 . S
C61 C62 1.382 . S
C62 C61 1.382 . S
C62 C63 1.392 . S
C62 N64 1.420 . S
C63 H57 0.930 . S
C63 C59 1.407 . S
C63 C62 1.392 . S
N64 C62 1.420 . S
N64 C65 1.244 . S
C65 N64 1.244 . S
H66 C69 0.929 . S
H67 C72 0.929 . S
H68 C74 0.930 . S
C69 H66 0.929 . S
C69 C70 1.398 . S
C69 C71 1.396 . S
C70 C69 1.398 . S
C70 C74 1.407 . S
C71 C69 1.396 . S
C71 C72 1.394 . S
C72 H67 0.929 . S
C72 C71 1.394 . S
C72 C73 1.382 . S
C73 C72 1.382 . S
C73 C74 1.392 . S
C73 N75 1.420 . S
C74 H68 0.930 . S
C74 C70 1.407 . S
C74 C73 1.392 . S
N75 C73 1.420 . S
N75 C76 1.244 . S
C76 N75 1.244 . S
H77 C80 0.929 . S
H78 C83 0.929 . S
H79 C85 0.930 1_655 S
C80 H77 0.929 . S
C80 C81 1.398 . S
C80 C82 1.396 . S
C81 C80 1.398 . S
C81 C85 1.407 . S
C82 C80 1.396 . S
C82 C83 1.394 . S
C83 H78 0.929 . S
C83 C82 1.394 . S
C83 C84 1.382 . S
C84 C83 1.382 . S
C84 C85 1.392 . S
C84 N86 1.420 . S
C85 H79 0.930 1_455 S
C85 C81 1.407 . S
C85 C84 1.392 . S
N86 C84 1.420 . S
N86 C87 1.244 . S
C87 N86 1.244 . S
Co88 N93 2.057 . S
Co88 O105 2.021 . S
Co88 O108 2.062 . S
Co88 O112 2.117 1_545 S
Co88 O113 2.020 . S
C89 O109 1.259 1_655 S
C89 O112 1.258 . S
Co90 N99 2.057 . S
Co90 O106 2.117 . S
Co90 O107 2.020 . S
Co90 O109 2.021 1_545 S
Co90 O114 2.062 1_545 S
C91 N93 1.316 . S
C91 N94 1.347 . S
C91 H96 0.931 . S
C92 N93 1.375 . S
C92 C95 1.350 . S
C92 H97 0.930 1_545 S
N93 Co88 2.057 . S
N93 C91 1.316 . S
N93 C92 1.375 . S
N94 C91 1.347 . S
N94 C95 1.373 . S
C95 C92 1.350 . S
C95 N94 1.373 . S
C95 H116 0.931 1_545 S
H96 C91 0.931 . S
H97 C92 0.930 1_565 S
C98 O105 1.259 1_455 S
C98 O106 1.258 . S
N99 Co90 2.057 . S
N99 C100 1.316 1_545 S
N99 C101 1.375 . S
C100 N99 1.316 1_565 S
C100 N102 1.347 . S
C100 H111 0.931 . S
C101 N99 1.375 . S
C101 C103 1.350 . S
C101 H110 0.930 . S
N102 C100 1.347 . S
N102 C103 1.373 1_565 S
C103 C101 1.350 . S
C103 N102 1.373 1_545 S
C103 H117 0.931 . S
C104 O107 1.256 . S
C104 O108 1.255 1_455 S
O105 Co88 2.021 . S
O105 C98 1.259 1_655 S
O106 Co90 2.117 . S
O106 C98 1.258 . S
O107 Co90 2.020 . S
O107 C104 1.256 . S
O108 Co88 2.062 . S
O108 C104 1.255 1_655 S
O109 C89 1.259 1_455 S
O109 Co90 2.021 1_565 S
H110 C101 0.930 . S
H111 C100 0.931 . S
O112 Co88 2.117 1_565 S
O112 C89 1.258 . S
O113 Co88 2.020 . S
O113 C115 1.256 1_545 S
O114 Co90 2.062 1_565 S
O114 C115 1.255 1_455 S
C115 O113 1.256 1_565 S
C115 O114 1.255 1_655 S
H116 C95 0.931 1_565 S
H117 C103 0.931 . S
Co118 N123 2.057 1_545 S
Co118 O135 2.021 . S
Co118 O138 2.062 . S
Co118 O142 2.117 1_546 S
Co118 O143 2.020 1_556 S
C119 O139 1.259 . S
C119 O142 1.258 . S
Co120 N129 2.057 . S
Co120 O136 2.117 . S
Co120 O137 2.020 . S
Co120 O139 2.021 1_545 S
Co120 O144 2.062 . S
C121 N123 1.316 1_545 S
C121 N124 1.347 1_545 S
C121 H126 0.931 . S
C122 N123 1.375 . S
C122 C125 1.350 . S
C122 H127 0.930 . S
N123 Co118 2.057 1_565 S
N123 C121 1.316 1_565 S
N123 C122 1.375 . S
N124 C121 1.347 1_565 S
N124 C125 1.373 . S
C125 C122 1.350 . S
C125 N124 1.373 . S
C125 H146 0.931 . S
H126 C121 0.931 . S
H127 C122 0.930 . S
C128 O135 1.259 . S
C128 O136 1.258 1_556 S
N129 Co120 2.057 . S
N129 C130 1.316 . S
N129 C131 1.375 . S
C130 N129 1.316 . S
C130 N132 1.347 . S
C130 H141 0.931 . S
C131 N129 1.375 . S
C131 C133 1.350 . S
C131 H140 0.930 . S
N132 C130 1.347 . S
N132 C133 1.373 . S
C133 C131 1.350 . S
C133 N132 1.373 . S
C133 H147 0.931 . S
C134 O137 1.256 . S
C134 O138 1.255 1_554 S
O135 Co118 2.021 . S
O135 C128 1.259 . S
O136 Co120 2.117 . S
O136 C128 1.258 1_554 S
O137 Co120 2.020 . S
O137 C134 1.256 . S
O138 Co118 2.062 . S
O138 C134 1.255 1_556 S
O139 C119 1.259 . S
O139 Co120 2.021 1_565 S
H140 C131 0.930 . S
H141 C130 0.931 . S
O142 Co118 2.117 1_564 S
O142 C119 1.258 . S
O143 Co118 2.020 1_554 S
O143 C145 1.256 . S
O144 Co120 2.062 . S
O144 C145 1.255 . S
C145 O143 1.256 . S
C145 O144 1.255 . S
H146 C125 0.931 . S
H147 C133 0.931 . S
Co148 N153 2.057 . S
Co148 O165 2.021 . S
Co148 O168 2.062 . S
Co148 O172 2.117 . S
Co148 O173 2.020 . S
C149 O169 1.259 . S
C149 O172 1.258 . S
Co150 N159 2.057 . S
Co150 O166 2.117 . S
Co150 O167 2.020 . S
Co150 O169 2.021 . S
Co150 O174 2.062 . S
C151 N153 1.316 . S
C151 N154 1.347 . S
C151 H156 0.931 . S
C152 N153 1.375 . S
C152 C155 1.350 . S
C152 H157 0.930 . S
N153 Co148 2.057 . S
N153 C151 1.316 . S
N153 C152 1.375 . S
N154 C151 1.347 . S
N154 C155 1.373 . S
C155 C152 1.350 . S
C155 N154 1.373 . S
C155 H176 0.931 . S
H156 C151 0.931 . S
H157 C152 0.930 . S
C158 O165 1.259 . S
C158 O166 1.258 . S
N159 Co150 2.057 . S
N159 C160 1.316 . S
N159 C161 1.375 . S
C160 N159 1.316 . S
C160 N162 1.347 . S
C160 H171 0.931 . S
C161 N159 1.375 . S
C161 C163 1.350 . S
C161 H170 0.930 . S
N162 C160 1.347 . S
N162 C163 1.373 . S
C163 C161 1.350 . S
C163 N162 1.373 . S
C163 H177 0.931 . S
C164 O167 1.256 . S
C164 O168 1.255 . S
O165 Co148 2.021 . S
O165 C158 1.259 . S
O166 Co150 2.117 . S
O166 C158 1.258 . S
O167 Co150 2.020 . S
O167 C164 1.256 . S
O168 Co148 2.062 . S
O168 C164 1.255 . S
O169 C149 1.259 . S
O169 Co150 2.021 . S
H170 C161 0.930 . S
H171 C160 0.931 . S
O172 Co148 2.117 . S
O172 C149 1.258 . S
O173 Co148 2.020 . S
O173 C175 1.256 . S
O174 Co150 2.062 . S
O174 C175 1.255 . S
C175 O173 1.256 . S
C175 O174 1.255 . S
H176 C155 0.931 . S
H177 C163 0.931 . S
Co178 N183 2.057 . S
Co178 O195 2.021 . S
Co178 O198 2.062 1_556 S
Co178 O202 2.117 1_455 S
Co178 O203 2.020 . S
C179 O199 1.268 . S
C179 O202 1.252 1_554 S
Co180 N189 2.057 . S
Co180 O196 2.117 . S
Co180 O197 2.020 . S
Co180 O199 2.021 1_455 S
Co180 O204 2.062 . S
C181 N183 1.316 . S
C181 N184 1.347 . S
C181 H186 0.931 . S
C182 N183 1.375 . S
C182 C185 1.350 . S
C182 H187 0.930 1_455 S
N183 Co178 2.057 . S
N183 C181 1.316 . S
N183 C182 1.375 . S
N184 C181 1.347 . S
N184 C185 1.373 . S
C185 C182 1.350 . S
C185 N184 1.373 . S
C185 H206 0.931 . S
H186 C181 0.931 . S
H187 C182 0.930 1_655 S
C188 O195 1.259 1_554 S
C188 O196 1.258 . S
N189 Co180 2.057 . S
N189 C190 1.316 1_455 S
N189 C191 1.375 . S
C190 N189 1.316 1_655 S
C190 N192 1.347 . S
C190 H201 0.931 . S
C191 N189 1.375 . S
C191 C193 1.350 . S
C191 H200 0.930 . S
N192 C190 1.347 . S
N192 C193 1.373 1_655 S
C193 C191 1.350 . S
C193 N192 1.373 1_455 S
C193 H207 0.931 . S
C194 O197 1.256 . S
C194 O198 1.255 . S
O195 Co178 2.021 . S
O195 C188 1.259 1_556 S
O196 Co180 2.117 . S
O196 C188 1.258 . S
O197 Co180 2.020 . S
O197 C194 1.256 . S
O198 Co178 2.062 1_554 S
O198 C194 1.255 . S
O199 C179 1.268 . S
O199 Co180 2.021 1_655 S
H200 C191 0.930 . S
H201 C190 0.931 . S
O202 Co178 2.117 1_655 S
O202 C179 1.252 1_556 S
O203 Co178 2.020 . S
O203 C205 1.256 . S
O204 Co180 2.062 . S
O204 C205 1.255 1_554 S
C205 O203 1.256 . S
C205 O204 1.255 1_556 S
H206 C185 0.931 . S
H207 C193 0.931 . S
C4 C104 3.265 . S
C16 N124 1.789 . S
C158 C32 2.063 . S
C43 N192 1.400 1_455 S
C145 C5 3.624 . S
N102 C21 0.577 . S
C179 C27 2.531 1_554 S
N154 C37 1.020 . S
C10 C194 2.190 . S
C128 C26 2.219 . S
C38 C89 1.076 1_455 S
C15 C175 1.707 . S
C115 C48 3.152 . S
C59 N132 1.062 . S
C76 C149 2.513 . S
C87 N184 1.306 . S
C54 C134 2.653 1_566 S
N94 C60 1.600 . S
C188 C71 2.619 . S
N162 C82 1.826 . S
C49 C205 2.471 1_655 S
C119 C70 1.866 . S
C98 C81 1.400 . S
C65 C164 1.267 . S
