# Generated by pormake.
# Topology zzz, (3,6)-cn, num edge types: 1
# Building blocks:
#     Node 0, Type 0, BuildingBlock: BETDAH_clean_linker_0, # of connection points: 3
#     Node 1, Type 0, BuildingBlock: BETDAH_clean_linker_0, # of connection points: 3
#     Node 2, Type 0, BuildingBlock: BETDAH_clean_linker_0, # of connection points: 3
#     Node 3, Type 0, BuildingBlock: BETDAH_clean_linker_0, # of connection points: 3
#     Node 4, Type 0, BuildingBlock: BETDAH_clean_linker_0, # of connection points: 3
#     Node 5, Type 0, BuildingBlock: BETDAH_clean_linker_0, # of connection points: 3
#     Node 6, Type 0, BuildingBlock: BETDAH_clean_linker_0, # of connection points: 3
#     Node 7, Type 0, BuildingBlock: BETDAH_clean_linker_0, # of connection points: 3
#     Node 8, Type 1, BuildingBlock: VOLQOD_clean_sbu_1, # of connection points: 6
#     Node 9, Type 1, BuildingBlock: VOLQOD_clean_sbu_1, # of connection points: 6
#     Node 10, Type 1, BuildingBlock: VOLQOD_clean_sbu_1, # of connection points: 6
#     Node 11, Type 1, BuildingBlock: VOLQOD_clean_sbu_1, # of connection points: 6
#     Edge 12, Type (0, 1), None
#     Edge 13, Type (0, 1), None
#     Edge 14, Type (0, 1), None
#     Edge 15, Type (0, 1), None
#     Edge 16, Type (0, 1), None
#     Edge 17, Type (0, 1), None
#     Edge 18, Type (0, 1), None
#     Edge 19, Type (0, 1), None
#     Edge 20, Type (0, 1), None
#     Edge 21, Type (0, 1), None
#     Edge 22, Type (0, 1), None
#     Edge 23, Type (0, 1), None
#     Edge 24, Type (0, 1), None
#     Edge 25, Type (0, 1), None
#     Edge 26, Type (0, 1), None
#     Edge 27, Type (0, 1), None
#     Edge 28, Type (0, 1), None
#     Edge 29, Type (0, 1), None
#     Edge 30, Type (0, 1), None
#     Edge 31, Type (0, 1), None
#     Edge 32, Type (0, 1), None
#     Edge 33, Type (0, 1), None
#     Edge 34, Type (0, 1), None
#     Edge 35, Type (0, 1), None
# Relax obj value: 0.165
# Max RMSD: 0.223
# Mean RMSD: 0.111
data_MOF--net-zzz--node1-VOLQOD_clean_sbu_1--node2-BETDAH_clean_linker_0--edge1-none
_symmetry_space_group_name_H-M    P1
_symmetry_Int_Tables_number       1
_symmetry_cell_setting            triclinic
loop_
_symmetry_equiv_pos_as_xyz
'x, y, z'
_cell_length_a     22.917721
_cell_length_b     22.844175
_cell_length_c     9.0874279
_cell_angle_alpha  90.055847
_cell_angle_beta   89.950501
_cell_angle_gamma 91.090112
loop_
_atom_site_label
_atom_site_type_symbol
_atom_site_fract_x
_atom_site_fract_y
_atom_site_fract_z
_atom_type_partial_charge
H0 H 0.96761 0.48507 0.16767 0.0
H1 H 0.83957 0.53041 0.8453 0.0
H2 H 0.85169 0.62625 0.25449 0.0
C3 C 0.93137 0.51184 0.13332 0.0
C4 C 0.9133 0.55675 0.22532 0.0
C5 C 0.90684 0.50305 -0.00518 0.0
C6 C 0.85884 0.53655 -0.04687 0.0
C7 C 0.83822 0.58081 0.04715 0.0
C8 C 0.86692 0.59208 0.18202 0.0
N9 N 0.78963 0.615 0.00691 0.0
C10 C 0.74651 0.59525 0.9097 0.0
H11 H 0.08838 0.94839 0.10834 0.0
H12 H 1.03052 0.81454 0.81128 0.0
H13 H 0.95137 0.82753 0.23876 0.0
C14 C 0.06076 0.91034 0.0863 0.0
C15 C 1.01758 0.89313 0.18749 0.0
C16 C 0.0613 0.88698 -0.05429 0.0
C17 C 1.02991 0.83431 0.91968 0.0
C18 C 0.99227 0.81094 0.02857 0.0
C19 C 0.98394 0.84234 0.15999 0.0
N20 N 0.95868 0.7591 0.00274 0.0
C21 C 0.97792 0.71403 0.91284 0.0
H22 H 0.61099 0.08855 0.12294 0.0
H23 H 0.74161 0.03813 0.8163 0.0
H24 H 0.73278 0.95515 0.24145 0.0
C25 C 0.6485 0.06215 0.09759 0.0
C26 C 0.66672 1.01915 0.1967 0.0
C27 C 0.67124 0.06539 -0.04341 0.0
C28 C 0.72282 0.0354 0.92555 0.0
C29 C 0.74691 0.99747 0.0307 0.0
C30 C 0.71719 0.98757 0.16472 0.0
N31 N 0.79817 0.96569 -0.00068 0.0
C32 C 0.83656 0.98036 0.88549 0.0
H33 H 0.5257 0.59323 0.13779 0.0
H34 H 0.52905 0.74356 0.85614 0.0
H35 H 0.62854 0.74506 0.25838 0.0
C36 C 0.54022 0.63783 0.11566 0.0
C37 C 0.57984 0.66545 0.21144 0.0
C38 C 0.523 0.66447 -0.01427 0.0
C39 C 0.54113 0.72278 -0.04152 0.0
C40 C 0.57885 0.75236 0.05719 0.0
C41 C 0.59829 0.72324 0.18389 0.0
N42 N 0.60119 0.80957 0.0272 0.0
C43 C 0.58042 0.8465 0.91783 0.0
H44 H 0.13927 0.60724 0.17461 0.0
H45 H 0.28261 0.56502 0.45127 0.0
H46 H 0.26642 0.48364 0.02648 0.0
C47 C 0.18091 0.58606 0.18763 0.0
C48 C 0.1994 0.54552 0.08134 0.0
C49 C 0.20757 0.58905 0.32527 0.0
C50 C 0.26223 0.5633 0.34372 0.0
C51 C 0.28407 0.52542 0.23589 0.0
C52 C 0.25191 0.51589 0.10524 0.0
N53 N 0.33338 0.49037 0.26506 0.0
C54 C 0.37346 0.50043 0.3786 0.0
H55 H 0.93281 0.15198 0.06944 0.0
H56 H 0.99538 0.26243 0.415 0.0
H57 H 0.09769 0.24287 0.02175 0.0
C58 C 0.96331 0.18584 0.10651 0.0
C59 C 1.01472 0.19598 0.02496 0.0
C60 C 0.96146 0.20182 0.25511 0.0
C61 C 0.9983 0.24786 0.30172 0.0
C62 C 0.04806 0.26333 0.21795 0.0
C63 C 0.05749 0.2349 0.08188 0.0
N64 N 0.09208 0.30163 0.27624 0.0
C65 C 0.0832 0.33898 0.39572 0.0
H66 H 0.40337 0.93113 0.08728 0.0
H67 H 0.29928 0.99609 0.43782 0.0
H68 H 0.32917 0.10209 0.05396 0.0
C69 C 0.37264 0.96315 0.12675 0.0
C70 C 0.36713 1.016 0.0481 0.0
C71 C 0.35725 0.96094 0.27625 0.0
C72 C 0.31414 0.99923 0.32474 0.0
C73 C 0.30405 0.05111 0.24589 0.0
C74 C 0.33309 0.06055 0.11014 0.0
N75 N 0.27152 0.09704 0.31051 0.0
C76 C 0.22587 0.08733 0.4101 0.0
H77 H 0.64926 0.40821 0.11216 0.0
H78 H 0.57457 0.30087 0.44962 0.0
H79 H 0.48039 0.32719 0.04724 0.0
C80 C 0.61635 0.37606 0.14529 0.0
C81 C 0.56613 0.36858 0.05674 0.0
C82 C 0.61524 0.35914 0.29425 0.0
C83 C 0.57473 0.31562 0.33624 0.0
C84 C 0.52534 0.304 0.2482 0.0
C85 C 0.52011 0.33263 0.11071 0.0
N86 N 0.47743 0.27029 0.30487 0.0
C87 C 0.48337 0.22597 0.40954 0.0
O88 O 0.1636 0.07126 0.61816 0.0
Zn89 Zn 0.0865 0.05744 0.73771 0.0
O90 O 1.01877 0.04426 0.60869 0.0
Zn91 Zn 0.95443 0.09651 0.65102 0.0
Zn92 Zn 0.04352 0.05368 0.4153 0.0
Zn93 Zn 0.98984 0.96265 0.61506 0.0
O94 O 0.88603 0.04997 0.74017 0.0
O95 O 0.91861 0.95842 0.7455 0.0
O96 O 0.06927 0.12768 0.87912 0.0
O97 O 0.97884 0.14967 0.81295 0.0
O98 O 0.93665 0.1515 0.47926 0.0
O99 O 1.00108 0.11511 0.32335 0.0
O100 O 0.03335 0.98245 0.30548 0.0
O101 O 0.08877 0.98132 0.85614 0.0
O102 O 0.97712 0.91908 0.42315 0.0
O103 O 0.05215 0.91552 0.70179 0.0
C104 C 0.1698 0.07721 0.47894 0.0
C105 C 0.88109 0.9965 0.78035 0.0
C106 C 0.9617 0.15128 0.35397 0.0
C107 C 1.02354 0.15882 0.8929 0.0
C108 C 1.00758 0.93314 0.31174 0.0
C109 C 0.07532 0.92796 0.82419 0.0
O110 O 0.12673 0.07336 0.39269 0.0
O111 O 0.49313 0.16593 0.62378 0.0
Zn112 Zn 0.50383 0.08993 0.74939 0.0
O113 O 0.51728 1.02093 0.62376 0.0
Zn114 Zn 0.4647 0.95529 0.67064 0.0
Zn115 Zn 0.50874 0.04302 0.42878 0.0
Zn116 Zn 0.59905 0.99605 0.63128 0.0
O117 O 0.5118 0.88866 0.76034 0.0
O118 O 0.60228 0.92723 0.77015 0.0
O119 O 0.43369 0.07208 0.89314 0.0
O120 O 0.41359 0.97903 0.83732 0.0
O121 O 0.40787 0.93633 0.49981 0.0
O122 O 0.4456 1.00028 0.34109 0.0
O123 O 0.57822 0.03059 0.31721 0.0
O124 O 0.57853 0.09459 0.87123 0.0
O125 O 0.64391 0.98208 0.44017 0.0
O126 O 0.64324 0.06411 0.71072 0.0
C127 C 0.48983 0.17055 0.48356 0.0
C128 C 0.56468 0.88773 0.8053 0.0
C129 C 0.40829 0.96089 0.37358 0.0
C130 C 0.40423 1.02443 0.91432 0.0
C131 C 0.62793 1.00792 0.32395 0.0
C132 C 0.63149 0.08335 0.8374 0.0
O133 O 0.49365 0.12642 0.40061 0.0
O134 O 0.42804 0.49489 0.60197 0.0
Zn135 Zn 0.498 0.50266 0.75043 0.0
O136 O 0.56898 0.52258 0.63883 0.0
Zn137 Zn 0.63277 0.47117 0.68458 0.0
Zn138 Zn 0.55502 0.51975 0.43819 0.0
Zn139 Zn 0.58808 0.60559 0.65459 0.0
O140 O 0.69958 0.52316 0.7659 0.0
O141 O 0.6604 0.61246 0.78156 0.0
O142 O 0.51267 0.42956 0.88634 0.0
O143 O 0.60844 0.42036 0.85602 0.0
O144 O 0.64804 0.41288 0.51141 0.0
O145 O 0.57834 0.44645 0.36649 0.0
O146 O 0.60036 0.5764 0.32027 0.0
O147 O 0.49081 0.57244 0.89099 0.0
O148 O 0.59386 0.65217 0.46642 0.0
O149 O 0.51817 0.64184 0.73839 0.0
C150 C 0.4258 0.50874 0.46505 0.0
C151 C 0.70111 0.5766 0.80951 0.0
C152 C 0.61683 0.40939 0.39479 0.0
C153 C 0.56112 0.4058 0.92143 0.0
C154 C 0.5992 0.63121 0.33843 0.0
C155 C 0.50143 0.62665 0.86489 0.0
O156 O 0.47105 0.52397 0.39318 0.0
O157 O 0.97878 0.60093 0.39852 0.0
Zn158 Zn 0.04291 0.60531 0.558 0.0
O159 O 0.04802 0.53042 0.65919 0.0
Zn160 Zn 0.03416 0.54023 0.85977 0.0
Zn161 Zn 0.98561 0.47585 0.59905 0.0
Zn162 Zn 0.12343 0.49281 0.65921 0.0
O163 O 0.10699 0.55021 -0.02995 0.0
O164 O 0.17178 0.49802 0.85138 0.0
O165 O 1.02104 0.66846 0.70827 0.0
O166 O 0.99 0.61362 0.89743 0.0
O167 O 0.99436 0.46554 0.91304 0.0
O168 O 0.92372 0.46745 0.75619 0.0
O169 O 1.02014 0.40219 0.51498 0.0
O170 O 0.12147 0.61857 0.45209 0.0
O171 O 0.11593 0.41326 0.55573 0.0
O172 O 0.16995 0.54005 0.52454 0.0
C173 C 0.94237 0.55956 0.36886 0.0
C174 C 0.1581 0.53039 -0.03999 0.0
C175 C 0.94013 0.46788 0.88906 0.0
C176 C 0.99589 0.66297 0.83343 0.0
C177 C 0.07242 0.38477 0.50148 0.0
C178 C 0.16714 0.587 0.45073 0.0
O179 O 0.94309 0.51128 0.43736 0.0
loop_
_geom_bond_atom_site_label_1
_geom_bond_atom_site_label_2
_geom_bond_distance
_geom_bond_site_symmetry_2
_ccdc_geom_bond_type
H0 C3 0.929 . S
H1 C6 0.929 . S
H2 C8 0.930 . S
C3 H0 0.929 . S
C3 C4 1.398 . S
C3 C5 1.396 1_554 S
C4 C3 1.398 . S
C4 C8 1.407 . S
C5 C3 1.396 1_556 S
C5 C6 1.394 . S
C6 H1 0.929 . S
C6 C5 1.394 . S
C6 C7 1.382 1_556 S
C7 C6 1.382 1_554 S
C7 C8 1.392 . S
C7 N9 1.420 . S
C8 H2 0.930 . S
C8 C4 1.407 . S
C8 C7 1.392 . S
N9 C7 1.420 . S
N9 C10 1.244 1_554 S
C10 N9 1.244 1_556 S
H11 C14 0.929 . S
H12 C17 0.932 . S
H13 C19 0.930 . S
C14 H11 0.929 . S
C14 C15 1.398 1_655 S
C14 C16 1.396 1_655 S
C15 C14 1.398 1_455 S
C15 C19 1.407 . S
C16 C14 1.396 1_455 S
C16 C17 1.394 1_554 S
C17 H12 0.932 . S
C17 C16 1.394 1_556 S
C17 C18 1.379 1_556 S
C18 C17 1.379 1_554 S
C18 C19 1.392 . S
C18 N20 1.420 . S
C19 H13 0.930 . S
C19 C15 1.407 . S
C19 C18 1.392 . S
N20 C18 1.420 . S
N20 C21 1.244 1_454 S
C21 N20 1.244 1_656 S
H22 C25 0.929 . S
H23 C28 0.929 . S
H24 C30 0.930 . S
C25 H22 0.929 . S
C25 C26 1.398 1_565 S
C25 C27 1.396 1_564 S
C26 C25 1.398 1_545 S
C26 C30 1.407 . S
C27 C25 1.396 1_546 S
C27 C28 1.394 . S
C28 H23 0.929 . S
C28 C27 1.394 . S
C28 C29 1.382 1_556 S
C29 C28 1.382 1_554 S
C29 C30 1.392 . S
C29 N31 1.420 . S
C30 H24 0.930 . S
C30 C26 1.407 . S
C30 C29 1.392 . S
N31 C29 1.420 . S
N31 C32 1.244 1_544 S
C32 N31 1.244 1_566 S
H33 C36 0.929 . S
H34 C39 0.929 . S
H35 C41 0.930 . S
C36 H33 0.929 . S
C36 C37 1.398 . S
C36 C38 1.396 1_554 S
C37 C36 1.398 . S
C37 C41 1.407 . S
C38 C36 1.396 1_556 S
C38 C39 1.394 . S
C39 H34 0.929 . S
C39 C38 1.394 . S
C39 C40 1.382 1_556 S
C40 C39 1.382 1_554 S
C40 C41 1.392 . S
C40 N42 1.420 . S
C41 H35 0.930 . S
C41 C37 1.407 . S
C41 C40 1.392 . S
N42 C40 1.420 . S
N42 C43 1.244 1_554 S
C43 N42 1.244 1_556 S
H44 C47 0.929 . S
H45 C50 0.929 . S
H46 C52 0.930 . S
C47 H44 0.929 . S
C47 C48 1.398 . S
C47 C49 1.396 . S
C48 C47 1.398 . S
C48 C52 1.407 . S
C49 C47 1.396 . S
C49 C50 1.394 . S
C50 H45 0.929 . S
C50 C49 1.394 . S
C50 C51 1.382 . S
C51 C50 1.382 . S
C51 C52 1.392 . S
C51 N53 1.420 . S
C52 H46 0.930 . S
C52 C48 1.407 . S
C52 C51 1.392 . S
N53 C51 1.420 . S
N53 C54 1.244 . S
C54 N53 1.244 . S
H55 C58 0.929 . S
H56 C61 0.929 . S
H57 C63 0.930 . S
C58 H55 0.929 . S
C58 C59 1.398 . S
C58 C60 1.396 . S
C59 C58 1.398 . S
C59 C63 1.407 . S
C60 C58 1.396 . S
C60 C61 1.394 . S
C61 H56 0.929 . S
C61 C60 1.394 . S
C61 C62 1.382 . S
C62 C61 1.382 . S
C62 C63 1.392 . S
C62 N64 1.420 . S
C63 H57 0.930 . S
C63 C59 1.407 . S
C63 C62 1.392 . S
N64 C62 1.420 . S
N64 C65 1.244 . S
C65 N64 1.244 . S
H66 C69 0.928 1_565 S
H67 C72 0.929 . S
H68 C74 0.930 . S
C69 H66 0.928 1_545 S
C69 C70 1.398 . S
C69 C71 1.396 . S
C70 C69 1.398 . S
C70 C74 1.407 . S
C71 C69 1.396 . S
C71 C72 1.394 . S
C72 H67 0.929 . S
C72 C71 1.394 . S
C72 C73 1.382 . S
C73 C72 1.382 . S
C73 C74 1.392 . S
C73 N75 1.420 . S
C74 H68 0.930 . S
C74 C70 1.407 . S
C74 C73 1.392 . S
N75 C73 1.420 . S
N75 C76 1.244 . S
C76 N75 1.244 . S
H77 C80 0.929 . S
H78 C83 0.929 . S
H79 C85 0.930 . S
C80 H77 0.929 . S
C80 C81 1.398 . S
C80 C82 1.396 . S
C81 C80 1.398 . S
C81 C85 1.407 . S
C82 C80 1.396 . S
C82 C83 1.394 . S
C83 H78 0.929 . S
C83 C82 1.394 . S
C83 C84 1.382 . S
C84 C83 1.382 . S
C84 C85 1.392 . S
C84 N86 1.420 . S
C85 H79 0.930 . S
C85 C81 1.407 . S
C85 C84 1.392 . S
N86 C84 1.420 . S
N86 C87 1.244 . S
C87 N86 1.244 . S
O88 Zn89 1.954 . S
O88 C104 1.225 1_545 S
Zn89 O88 1.954 . S
Zn89 O90 1.948 1_545 S
Zn89 O96 1.930 1_556 S
Zn89 O101 1.911 1_546 S
O90 Zn89 1.948 1_565 S
O90 Zn91 1.923 1_465 S
O90 Zn92 1.950 . S
O90 Zn93 1.945 1_455 S
Zn91 O90 1.923 1_645 S
Zn91 O94 1.933 . S
Zn91 O97 1.941 . S
Zn91 O98 1.965 . S
Zn92 O90 1.950 . S
Zn92 O99 1.938 1_565 S
Zn92 O100 1.906 . S
Zn92 O110 1.953 . S
Zn93 O90 1.945 1_655 S
Zn93 O95 1.932 . S
Zn93 O102 1.977 . S
Zn93 O103 1.911 . S
O94 Zn91 1.933 . S
O94 C105 1.226 . S
O95 Zn93 1.932 . S
O95 C105 1.307 1_565 S
O96 Zn89 1.930 1_554 S
O96 C107 1.253 . S
O97 Zn91 1.941 . S
O97 C107 1.284 1_656 S
O98 Zn91 1.965 . S
O98 C106 1.303 1_655 S
O99 Zn92 1.938 1_545 S
O99 C106 1.247 . S
O100 Zn92 1.906 . S
O100 C108 1.304 1_455 S
O101 Zn89 1.911 1_564 S
O101 C109 1.311 . S
O102 Zn93 1.977 . S
O102 C108 1.272 . S
O103 Zn93 1.911 . S
O103 C109 1.230 1_656 S
C104 O88 1.225 1_565 S
C104 O110 1.298 . S
C105 O94 1.226 . S
C105 O95 1.307 1_545 S
C106 O98 1.303 1_455 S
C106 O99 1.247 . S
C107 O96 1.253 . S
C107 O97 1.284 1_454 S
C108 O100 1.304 1_655 S
C108 O102 1.272 . S
C109 O101 1.311 . S
C109 O103 1.230 1_454 S
O110 Zn92 1.953 . S
O110 C104 1.298 . S
O111 Zn112 1.953 . S
O111 C127 1.225 . S
Zn112 O111 1.953 . S
Zn112 O113 1.949 . S
Zn112 O119 1.919 1_556 S
Zn112 O124 1.924 . S
O113 Zn112 1.949 . S
O113 Zn114 1.923 1_545 S
O113 Zn115 1.950 . S
O113 Zn116 1.945 1_545 S
Zn114 O113 1.923 1_565 S
Zn114 O117 1.933 . S
Zn114 O120 1.941 . S
Zn114 O121 1.965 . S
Zn115 O113 1.950 . S
Zn115 O122 1.938 . S
Zn115 O123 1.906 . S
Zn115 O133 1.953 . S
Zn116 O113 1.945 1_565 S
Zn116 O118 1.932 . S
Zn116 O125 1.977 . S
Zn116 O126 1.906 1_565 S
O117 Zn114 1.933 . S
O117 C128 1.226 . S
O118 Zn116 1.932 . S
O118 C128 1.307 . S
O119 Zn112 1.919 1_554 S
O119 C130 1.253 . S
O120 Zn114 1.941 . S
O120 C130 1.283 1_566 S
O121 Zn114 1.965 . S
O121 C129 1.303 1_565 S
O122 Zn115 1.938 . S
O122 C129 1.247 . S
O123 Zn115 1.906 . S
O123 C131 1.304 1_545 S
O124 Zn112 1.924 . S
O124 C132 1.311 . S
O125 Zn116 1.977 . S
O125 C131 1.272 . S
O126 Zn116 1.906 1_545 S
O126 C132 1.240 . S
C127 O111 1.225 . S
C127 O133 1.298 . S
C128 O117 1.226 . S
C128 O118 1.307 . S
C129 O121 1.303 1_545 S
C129 O122 1.247 . S
C130 O119 1.253 . S
C130 O120 1.283 1_544 S
C131 O123 1.304 1_565 S
C131 O125 1.272 . S
C132 O124 1.311 . S
C132 O126 1.240 . S
O133 Zn115 1.953 . S
O133 C127 1.298 . S
O134 Zn135 1.953 . S
O134 C150 1.225 . S
Zn135 O134 1.953 . S
Zn135 O136 1.949 . S
Zn135 O142 1.919 1_556 S
Zn135 O147 1.924 . S
O136 Zn135 1.949 . S
O136 Zn137 1.923 . S
O136 Zn138 1.950 . S
O136 Zn139 1.945 . S
Zn137 O136 1.923 . S
Zn137 O140 1.933 . S
Zn137 O143 1.941 . S
Zn137 O144 1.965 . S
Zn138 O136 1.950 . S
Zn138 O145 1.938 . S
Zn138 O146 1.906 . S
Zn138 O156 1.953 . S
Zn139 O136 1.945 . S
Zn139 O141 1.932 . S
Zn139 O148 1.977 . S
Zn139 O149 1.910 . S
O140 Zn137 1.933 . S
O140 C151 1.226 . S
O141 Zn139 1.932 . S
O141 C151 1.307 . S
O142 Zn135 1.919 1_554 S
O142 C153 1.253 . S
O143 Zn137 1.941 . S
O143 C153 1.283 1_556 S
O144 Zn137 1.965 . S
O144 C152 1.303 . S
O145 Zn138 1.938 . S
O145 C152 1.247 . S
O146 Zn138 1.906 . S
O146 C154 1.304 . S
O147 Zn135 1.924 . S
O147 C155 1.311 . S
O148 Zn139 1.977 . S
O148 C154 1.272 . S
O149 Zn139 1.910 . S
O149 C155 1.231 . S
C150 O134 1.225 . S
C150 O156 1.298 . S
C151 O140 1.226 . S
C151 O141 1.307 . S
C152 O144 1.303 . S
C152 O145 1.247 . S
C153 O142 1.253 . S
C153 O143 1.283 1_554 S
C154 O146 1.304 . S
C154 O148 1.272 . S
C155 O147 1.311 . S
C155 O149 1.231 . S
O156 Zn138 1.953 . S
O156 C150 1.298 . S
O157 Zn158 1.953 1_655 S
O157 C173 1.225 . S
Zn158 O157 1.953 1_455 S
Zn158 O159 1.949 . S
Zn158 O165 1.919 . S
Zn158 O170 1.924 . S
O159 Zn158 1.949 . S
O159 Zn160 1.923 1_455 S
O159 Zn161 1.950 1_455 S
O159 Zn162 1.945 . S
Zn160 O159 1.923 1_655 S
Zn160 O163 1.933 1_656 S
Zn160 O166 1.941 . S
Zn160 O167 1.965 . S
Zn161 O159 1.950 1_655 S
Zn161 O168 1.938 . S
Zn161 O169 1.906 . S
Zn161 O179 1.953 . S
Zn162 O159 1.945 . S
Zn162 O164 1.932 . S
Zn162 O171 1.977 . S
Zn162 O172 1.910 . S
O163 Zn160 1.933 1_454 S
O163 C174 1.226 . S
O164 Zn162 1.932 . S
O164 C174 1.307 1_556 S
O165 Zn158 1.919 . S
O165 C176 1.253 . S
O166 Zn160 1.941 . S
O166 C176 1.282 1_655 S
O167 Zn160 1.965 . S
O167 C175 1.303 . S
O168 Zn161 1.938 . S
O168 C175 1.247 . S
O169 Zn161 1.906 . S
O169 C177 1.304 1_655 S
O170 Zn158 1.924 . S
O170 C178 1.311 . S
O171 Zn162 1.977 . S
O171 C177 1.272 . S
O172 Zn162 1.910 . S
O172 C178 1.231 . S
C173 O157 1.225 . S
C173 O179 1.298 . S
C174 O163 1.226 . S
C174 O164 1.307 1_554 S
C175 O167 1.303 . S
C175 O168 1.247 . S
C176 O165 1.253 . S
C176 O166 1.282 1_455 S
C177 O169 1.304 1_455 S
C177 O171 1.272 . S
C178 O170 1.311 . S
C178 O172 1.231 . S
O179 Zn161 1.953 . S
O179 C173 1.298 . S
C76 C104 1.855 1_545 S
C127 C87 1.897 . S
C150 C54 1.822 . S
C177 C65 1.640 . S
C105 C32 1.624 1_545 S
C43 C128 1.619 . S
C10 C151 1.625 . S
C21 C176 1.690 1_655 S
C106 C60 0.853 . S
C129 C71 0.651 . S
C152 C82 0.688 . S
C49 C178 1.061 . S
C16 C109 1.205 . S
C132 C27 1.258 . S
C155 C38 1.281 . S
C5 C175 0.843 . S
C59 C107 1.575 . S
C70 C130 1.527 . S
C153 C81 1.561 . S
C174 C48 1.551 . S
C15 C108 1.862 1_455 S
C131 C26 1.759 1_565 S
C154 C37 1.693 . S
C4 C173 1.813 . S
