# Generated by pormake.
# Topology pyr, (3,6)-cn, num edge types: 1
# Building blocks:
#     Node 0, Type 0, BuildingBlock: PAMTOO_clean_linker_0, # of connection points: 3
#     Node 1, Type 0, BuildingBlock: PAMTOO_clean_linker_0, # of connection points: 3
#     Node 2, Type 0, BuildingBlock: PAMTOO_clean_linker_0, # of connection points: 3
#     Node 3, Type 0, BuildingBlock: PAMTOO_clean_linker_0, # of connection points: 3
#     Node 4, Type 0, BuildingBlock: PAMTOO_clean_linker_0, # of connection points: 3
#     Node 5, Type 0, BuildingBlock: PAMTOO_clean_linker_0, # of connection points: 3
#     Node 6, Type 0, BuildingBlock: PAMTOO_clean_linker_0, # of connection points: 3
#     Node 7, Type 0, BuildingBlock: PAMTOO_clean_linker_0, # of connection points: 3
#     Node 8, Type 1, BuildingBlock: FUNLAD_clean_sbu_0, # of connection points: 6
#     Node 9, Type 1, BuildingBlock: FUNLAD_clean_sbu_0, # of connection points: 6
#     Node 10, Type 1, BuildingBlock: FUNLAD_clean_sbu_0, # of connection points: 6
#     Node 11, Type 1, BuildingBlock: FUNLAD_clean_sbu_0, # of connection points: 6
#     Edge 12, Type (0, 1), None
#     Edge 13, Type (0, 1), None
#     Edge 14, Type (0, 1), None
#     Edge 15, Type (0, 1), None
#     Edge 16, Type (0, 1), None
#     Edge 17, Type (0, 1), None
#     Edge 18, Type (0, 1), None
#     Edge 19, Type (0, 1), None
#     Edge 20, Type (0, 1), None
#     Edge 21, Type (0, 1), None
#     Edge 22, Type (0, 1), None
#     Edge 23, Type (0, 1), None
#     Edge 24, Type (0, 1), None
#     Edge 25, Type (0, 1), None
#     Edge 26, Type (0, 1), None
#     Edge 27, Type (0, 1), None
#     Edge 28, Type (0, 1), None
#     Edge 29, Type (0, 1), None
#     Edge 30, Type (0, 1), None
#     Edge 31, Type (0, 1), None
#     Edge 32, Type (0, 1), None
#     Edge 33, Type (0, 1), None
#     Edge 34, Type (0, 1), None
#     Edge 35, Type (0, 1), None
# Relax obj value: 0.496
# Max RMSD: 0.251
# Mean RMSD: 0.152
data_MOF--net-pry--node1-FUNLAD_clean_sbu_0--node2-PAMTOO_clean_linker_0--edge1-none
_symmetry_space_group_name_H-M    P1
_symmetry_Int_Tables_number       1
_symmetry_cell_setting            triclinic
loop_
_symmetry_equiv_pos_as_xyz
'x, y, z'
_cell_length_a     15.056664
_cell_length_b     17.111612
_cell_length_c     15.604986
_cell_angle_alpha  85.480273
_cell_angle_beta   94.847552
_cell_angle_gamma 83.422141
loop_
_atom_site_label
_atom_site_type_symbol
_atom_site_fract_x
_atom_site_fract_y
_atom_site_fract_z
_atom_type_partial_charge
H0 H 0.08087 0.28179 0.4488 0.0
H1 H 0.25244 0.07046 0.4037 0.0
H2 H 0.2965 0.29558 0.28623 0.0
H3 H 0.30597 0.2076 0.17561 0.0
C4 C 0.33726 0.14884 0.20621 0.0
O5 O 0.34603 0.14731 0.29541 0.0
H6 H 0.29449 0.10341 0.18621 0.0
C7 C 0.1376 0.25324 0.42004 0.0
C8 C 0.18354 0.29902 0.36172 0.0
C9 C 0.16353 0.16948 0.43837 0.0
C10 C 0.23245 0.1336 0.39349 0.0
C11 C 0.27977 0.18003 0.33923 0.0
C12 C 0.25844 0.26164 0.3284 0.0
H13 H 0.33019 0.07053 0.88108 0.0
H14 H 0.34809 0.88916 0.70295 0.0
H15 H 0.57876 0.91851 0.87183 0.0
H16 H 0.61101 0.85855 0.66849 0.0
C17 C 0.5446 0.83609 0.66646 0.0
O18 O 0.51429 0.83631 0.74851 0.0
H19 H 0.49735 0.87487 0.61813 0.0
C20 C 0.36895 1.02334 0.85314 0.0
C21 C 0.46068 1.00019 0.88585 0.0
C22 C 0.32651 0.98329 0.78663 0.0
C23 C 0.37816 0.92123 0.75276 0.0
C24 C 0.46912 0.89973 0.78054 0.0
C25 C 0.50959 0.93834 0.84769 0.0
H26 H 0.82912 0.37929 1.11501 0.0
H27 H 0.60023 0.55185 1.03069 0.0
H28 H 0.82577 0.61839 0.18013 0.0
H29 H 0.77543 0.71889 1.02099 0.0
C30 C 0.70215 0.71474 1.01588 0.0
O31 O 0.67972 0.67109 1.08744 0.0
H32 H 0.66693 0.77577 1.01294 0.0
C33 C 0.7939 0.43845 1.11226 0.0
C34 C 0.83458 0.4951 0.1558 0.0
C35 C 0.70843 0.45787 1.06659 0.0
C36 C 0.66573 0.53535 1.06553 0.0
C37 C 0.71046 0.59335 1.10416 0.0
C38 C 0.79203 0.57229 0.15231 0.0
H39 H 0.83027 0.70558 0.56401 0.0
H40 H 0.87544 0.4723 0.69226 0.0
H41 H 0.09639 0.60758 0.67187 0.0
H42 H 0.99267 0.38285 0.60658 0.0
C43 C 0.04911 0.41943 0.61057 0.0
O44 O 0.04514 0.46163 0.68319 0.0
H45 H 0.11303 0.37972 0.61663 0.0
C46 C 0.87649 0.65819 0.59893 0.0
C47 C 0.96638 0.6686 0.62076 0.0
C48 C 0.84362 0.5895 0.62879 0.0
C49 C 0.90058 0.52753 0.67368 0.0
C50 C 0.99205 0.53103 0.68088 0.0
C51 C 0.02534 0.60349 0.66073 0.0
H52 H 0.83603 0.07694 0.91619 0.0
H53 H 0.87606 0.89312 1.12643 0.0
H54 H 0.04413 0.87968 0.91826 0.0
H55 H 0.94935 0.72261 1.01116 0.0
C56 C 0.96517 0.74197 1.07658 0.0
O57 O 1.00782 0.80973 1.06865 0.0
H58 H 0.90128 0.75573 1.10621 0.0
C59 C 0.87245 1.02233 0.94705 0.0
C60 C 0.94589 0.98433 0.90671 0.0
C61 C 0.84371 0.98774 1.0252 0.0
C62 C 0.89395 0.91863 1.0654 0.0
C63 C 0.96456 0.87883 1.02716 0.0
C64 C 0.98903 0.91074 0.94712 0.0
H65 H 0.81454 0.07212 0.4169 0.0
H66 H 0.59074 0.25766 0.3631 0.0
H67 H 0.77648 0.25807 0.58711 0.0
H68 H 0.63043 0.29776 0.63683 0.0
C69 C 0.59384 0.3398 0.58417 0.0
O70 O 0.633 0.33236 0.50582 0.0
H71 H 0.52411 0.32459 0.57536 0.0
C72 C 0.7757 0.12498 0.43382 0.0
C73 C 0.80456 0.16004 0.51092 0.0
C74 C 0.69923 0.16009 0.37646 0.0
C75 C 0.64962 0.22946 0.40325 0.0
C76 C 0.67638 0.26337 0.48118 0.0
C77 C 0.75486 0.22953 0.53072 0.0
H78 H 0.33179 0.71925 0.27547 0.0
H79 H 0.3782 0.48402 0.19321 0.0
H80 H 0.58583 0.63089 0.19384 0.0
H81 H 0.66361 0.4234 0.23941 0.0
C82 C 0.59292 0.43947 0.25269 0.0
O83 O 0.54785 0.4876 0.18252 0.0
H84 H 0.56041 0.38454 0.26028 0.0
C85 C 0.37557 0.67307 0.25115 0.0
C86 C 0.46285 0.68629 0.23082 0.0
C87 C 0.34467 0.59994 0.23759 0.0
C88 C 0.39988 0.54142 0.2021 0.0
C89 C 0.48753 0.55184 0.1887 0.0
C90 C 0.5173 0.62469 0.20054 0.0
H91 H 0.35088 0.31325 0.88603 0.0
H92 H 0.40551 0.55029 0.87271 0.0
H93 H 0.19251 0.48703 0.70664 0.0
H94 H 0.28083 0.68788 0.64607 0.0
C95 C 0.29716 0.62284 0.65825 0.0
O96 O 0.28295 0.60119 0.74282 0.0
H97 H 0.25241 0.59532 0.61304 0.0
C98 C 0.33762 0.37341 0.85643 0.0
C99 C 0.2631 0.39383 0.79607 0.0
C100 C 0.36577 0.43526 0.9006 0.0
C101 C 0.37049 0.50466 0.84689 0.0
C102 C 0.30158 0.52612 0.77944 0.0
C103 C 0.24592 0.47053 0.7564 0.0
C104 C 0.12453 0.12205 0.50909 0.0
N105 N 0.09734 0.22262 0.73083 0.0
C106 C 0.18148 0.223 0.70339 0.0
C107 C 0.23531 0.27885 0.72468 0.0
C108 C 0.20419 0.33553 0.77611 0.0
C109 C 0.11965 0.33439 0.80841 0.0
C110 C 0.06587 0.27651 0.78395 0.0
Zn111 Zn 0.05092 0.12178 0.69508 0.0
C112 C 0.88824 0.12885 0.57087 0.0
N113 N 0.03869 0.90222 0.60112 0.0
C114 C 0.10078 0.84226 0.5844 0.0
C115 C 0.95453 0.88874 0.61795 0.0
C116 C 0.93087 0.81321 0.62323 0.0
C117 C 0.99302 0.74932 0.6085 0.0
C118 C 0.07867 0.76449 0.58687 0.0
Zn119 Zn 0.06128 1.01114 0.63467 0.0
O120 O 0.09822 0.1577 0.57166 0.0
C121 C 0.23007 1.0055 0.74848 0.0
O122 O 0.12294 0.04717 0.51396 0.0
H123 H 0.90705 0.93581 0.63493 0.0
H124 H 0.21159 0.17725 0.66781 0.0
H125 H 0.16826 0.85388 0.57361 0.0
O126 O 0.18488 0.06946 0.76266 0.0
O127 O 0.19339 0.96361 0.69526 0.0
H128 H 1.00122 0.27347 0.80861 0.0
O129 O 1.00096 0.97809 0.76286 0.0
O130 O 0.99222 0.09293 0.81561 0.0
O131 O 0.93008 0.06093 0.56424 0.0
O132 O 0.92059 0.17083 0.62805 0.0
C133 C 0.97929 1.0205 0.82412 0.0
H134 H 0.30134 0.27734 0.7014 0.0
H135 H 0.09586 0.37773 0.85085 0.0
H136 H 0.86523 0.80508 0.64347 0.0
H137 H 0.12819 0.71696 0.57418 0.0
C138 C 0.75925 1.0181 1.06465 0.0
N139 N 0.60587 0.24799 1.02958 0.0
C140 C 0.68518 0.2588 0.99669 0.0
C141 C 0.71605 0.33228 0.99524 0.0
C142 C 0.66377 0.39506 1.02611 0.0
C143 C 0.57331 0.38727 1.03554 0.0
C144 C 0.54638 0.31187 1.04049 0.0
Zn145 Zn 0.58971 0.13691 1.08597 0.0
C146 C 0.50436 1.03394 0.96421 0.0
N147 N 0.56148 0.91041 0.20609 0.0
C148 C 0.61939 0.84687 0.24054 0.0
C149 C 0.47251 0.90325 0.18698 0.0
C150 C 0.43854 0.83204 0.20234 0.0
C151 C 0.49643 0.76481 0.23412 0.0
C152 C 0.58827 0.77303 0.25438 0.0
Zn153 Zn 0.5947 1.0191 0.15929 0.0
O154 O 0.72151 0.08847 1.04615 0.0
C155 C 0.6705 0.1256 0.28983 0.0
O156 O 0.72188 0.97247 1.1157 0.0
H157 H 0.427 0.95131 0.15358 0.0
H158 H 0.72952 0.21033 0.97878 0.0
H159 H 0.69014 0.85229 0.25266 0.0
O160 O 0.65001 0.17061 0.21889 0.0
O161 O 0.6612 0.05203 0.28609 0.0
H162 H 0.48069 0.30484 1.06008 0.0
O163 O 0.47295 0.06572 0.20184 0.0
O164 O 0.45922 0.1777 1.12213 0.0
O165 O 0.52709 0.98975 1.03415 0.0
O166 O 0.52394 0.10467 0.96232 0.0
C167 C 0.42779 0.13089 0.17553 0.0
H168 H 0.78381 0.33757 0.97907 0.0
H169 H 0.52617 0.43646 1.04775 0.0
H170 H 0.36854 0.82868 0.18219 0.0
H171 H 0.63688 0.72275 0.2765 0.0
C172 C 0.58953 0.42387 0.61346 0.0
N173 N 0.60829 0.57298 0.82564 0.0
C174 C 0.55081 0.63047 0.85504 0.0
C175 C 0.58233 0.68252 0.91067 0.0
C176 C 0.67374 0.67564 0.93738 0.0
C177 C 0.73157 0.61399 0.91014 0.0
C178 C 0.69619 0.5604 0.85786 0.0
Zn179 Zn 0.58331 0.56726 0.69569 0.0
C180 C 0.74869 0.58505 0.62218 0.0
N181 N 0.54499 0.60611 0.43135 0.0
C182 C 0.48451 0.55475 0.41323 0.0
C183 C 0.6243 0.60127 0.39486 0.0
C184 C 0.64922 0.53856 0.34652 0.0
C185 C 0.59011 0.48226 0.33292 0.0
C186 C 0.50942 0.48817 0.3714 0.0
Zn187 Zn 0.55908 0.61156 0.5602 0.0
O188 O 0.58938 0.43851 0.69268 0.0
C189 C 0.39249 0.60157 0.64229 0.0
O190 O 0.58009 0.48223 0.55706 0.0
H191 H 0.67075 0.64372 0.40661 0.0
H192 H 0.48282 0.64504 0.82647 0.0
H193 H 0.42055 0.55883 0.43949 0.0
O194 O 0.44946 0.57789 0.70541 0.0
O195 O 0.4185 0.61536 0.56831 0.0
H196 H 0.74101 0.513 0.83729 0.0
O197 O 0.53966 0.73769 0.56072 0.0
O198 O 0.57795 0.69534 0.696 0.0
O199 O 0.6976 0.61674 0.55781 0.0
O200 O 0.71625 0.55545 0.68654 0.0
C201 C 0.55535 0.75267 0.63887 0.0
H202 H 0.53554 0.72761 0.93317 0.0
H203 H 0.80187 0.60398 0.93446 0.0
H204 H 0.71053 0.5374 0.31479 0.0
H205 H 0.46121 0.44682 0.35999 0.0
C206 C 1.0194 0.67431 0.13378 0.0
N207 N 0.03904 0.59365 0.39977 0.0
C208 C 0.11235 0.58023 0.45852 0.0
C209 C 0.12053 0.51599 0.51986 0.0
C210 C 0.04662 0.47514 0.53088 0.0
C211 C 0.96522 0.50095 0.48071 0.0
C212 C 0.96206 0.56339 0.417 0.0
Zn213 Zn 0.08073 0.55989 0.28608 0.0
C214 C 0.92887 0.48192 0.18732 0.0
N215 N 0.16213 0.4684 1.06581 0.0
C216 C 0.19383 0.53157 1.02552 0.0
C217 C 0.20539 0.39421 1.06506 0.0
C218 C 0.28328 0.3822 1.02303 0.0
C219 C 0.31515 0.44687 0.9781 0.0
C220 C 0.27278 0.52273 0.98744 0.0
Zn221 Zn 0.09976 0.49941 0.16934 0.0
O222 O 0.02934 0.67426 0.21581 0.0
C223 C 0.25324 0.58301 0.25046 0.0
O224 O 0.04074 0.61023 1.10076 0.0
H225 H 0.1821 0.3445 1.09966 0.0
H226 H 0.1694 0.61213 0.45166 0.0
H227 H 0.16575 0.59117 1.0314 0.0
O228 O 0.20923 0.60448 0.31159 0.0
O229 O 0.21841 0.54188 0.19724 0.0
H230 H 0.90083 0.58102 0.37524 0.0
O231 O 0.14918 0.39004 0.23744 0.0
O232 O 0.12798 0.44014 0.35867 0.0
O233 O 0.98421 0.45571 0.13658 0.0
O234 O 0.95458 0.52029 0.24964 0.0
C235 C 0.14932 0.37979 0.31866 0.0
H236 H 0.18304 0.49898 0.55951 0.0
H237 H 0.90491 0.4742 0.49177 0.0
H238 H 0.31475 0.32229 1.02155 0.0
H239 H 0.29562 0.57614 0.96021 0.0
loop_
_geom_bond_atom_site_label_1
_geom_bond_atom_site_label_2
_geom_bond_distance
_geom_bond_site_symmetry_2
_ccdc_geom_bond_type
H0 C7 0.929 . S
H1 C10 0.930 . S
H2 C12 0.929 . S
H3 C4 0.969 . S
C4 H3 0.969 . S
C4 O5 1.550 . S
C4 H6 0.973 . S
O5 C4 1.550 . S
O5 C11 1.412 . S
H6 C4 0.973 . S
C7 H0 0.929 . S
C7 C8 1.400 . S
C7 C9 1.364 . S
C8 C7 1.400 . S
C8 C12 1.377 . S
C9 C7 1.364 . S
C9 C10 1.374 . S
C10 H1 0.930 . S
C10 C9 1.374 . S
C10 C11 1.383 . S
C11 O5 1.412 . S
C11 C10 1.383 . S
C11 C12 1.394 . S
C12 H2 0.929 . S
C12 C8 1.377 . S
C12 C11 1.394 . S
H13 C20 0.929 1_545 S
H14 C23 0.930 . S
H15 C25 0.929 . S
H16 C17 0.969 . S
C17 H16 0.969 . S
C17 O18 1.550 . S
C17 H19 0.973 . S
O18 C17 1.550 . S
O18 C24 1.412 . S
H19 C17 0.973 . S
C20 H13 0.929 1_565 S
C20 C21 1.400 . S
C20 C22 1.364 . S
C21 C20 1.400 . S
C21 C25 1.377 . S
C22 C20 1.364 . S
C22 C23 1.374 . S
C23 H14 0.930 . S
C23 C22 1.374 . S
C23 C24 1.383 . S
C24 O18 1.412 . S
C24 C23 1.383 . S
C24 C25 1.394 . S
C25 H15 0.929 . S
C25 C21 1.377 . S
C25 C24 1.394 . S
H26 C33 0.929 . S
H27 C36 0.930 . S
H28 C38 0.929 . S
H29 C30 0.969 . S
C30 H29 0.969 . S
C30 O31 1.550 . S
C30 H32 0.973 . S
O31 C30 1.550 . S
O31 C37 1.412 . S
H32 C30 0.973 . S
C33 H26 0.929 . S
C33 C34 1.400 . S
C33 C35 1.364 . S
C34 C33 1.400 . S
C34 C38 1.377 1_554 S
C35 C33 1.364 . S
C35 C36 1.374 1_554 S
C36 H27 0.930 . S
C36 C35 1.374 1_556 S
C36 C37 1.383 . S
C37 O31 1.412 . S
C37 C36 1.383 . S
C37 C38 1.394 . S
C38 H28 0.929 . S
C38 C34 1.377 1_556 S
C38 C37 1.394 . S
H39 C46 0.929 . S
H40 C49 0.930 . S
H41 C51 0.929 . S
H42 C43 0.969 . S
C43 H42 0.969 . S
C43 O44 1.550 . S
C43 H45 0.973 . S
O44 C43 1.550 . S
O44 C50 1.412 . S
H45 C43 0.973 . S
C46 H39 0.929 . S
C46 C47 1.400 . S
C46 C48 1.364 . S
C47 C46 1.400 . S
C47 C51 1.377 . S
C48 C46 1.364 . S
C48 C49 1.374 . S
C49 H40 0.930 . S
C49 C48 1.374 . S
C49 C50 1.383 . S
C50 O44 1.412 . S
C50 C49 1.383 . S
C50 C51 1.394 . S
C51 H41 0.929 . S
C51 C47 1.377 . S
C51 C50 1.394 . S
H52 C59 0.929 1_545 S
H53 C62 0.930 . S
H54 C64 0.929 1_455 S
H55 C56 0.969 . S
C56 H55 0.969 . S
C56 O57 1.550 1_655 S
C56 H58 0.973 1_556 S
O57 C56 1.550 1_455 S
O57 C63 1.412 1_455 S
H58 C56 0.973 1_554 S
C59 H52 0.929 1_565 S
C59 C60 1.400 . S
C59 C61 1.364 . S
C60 C59 1.400 . S
C60 C64 1.377 . S
C61 C59 1.364 . S
C61 C62 1.374 . S
C62 H53 0.930 . S
C62 C61 1.374 . S
C62 C63 1.383 . S
C63 O57 1.412 1_655 S
C63 C62 1.383 . S
C63 C64 1.394 . S
C64 H54 0.929 1_655 S
C64 C60 1.377 . S
C64 C63 1.394 . S
H65 C72 0.929 . S
H66 C75 0.930 . S
H67 C77 0.929 . S
H68 C69 0.969 . S
C69 H68 0.969 . S
C69 O70 1.550 . S
C69 H71 0.973 . S
O70 C69 1.550 . S
O70 C76 1.412 . S
H71 C69 0.973 . S
C72 H65 0.929 . S
C72 C73 1.400 . S
C72 C74 1.364 . S
C73 C72 1.400 . S
C73 C77 1.377 . S
C74 C72 1.364 . S
C74 C75 1.374 . S
C75 H66 0.930 . S
C75 C74 1.374 . S
C75 C76 1.383 . S
C76 O70 1.412 . S
C76 C75 1.383 . S
C76 C77 1.394 . S
C77 H67 0.929 . S
C77 C73 1.377 . S
C77 C76 1.394 . S
H78 C85 0.929 1_556 S
H79 C88 0.930 . S
H80 C90 0.929 . S
H81 C82 0.969 . S
C82 H81 0.969 . S
C82 O83 1.550 . S
C82 H84 0.973 . S
O83 C82 1.550 . S
O83 C89 1.412 . S
H84 C82 0.973 . S
C85 H78 0.929 1_554 S
C85 C86 1.400 . S
C85 C87 1.364 . S
C86 C85 1.400 . S
C86 C90 1.377 . S
C87 C85 1.364 . S
C87 C88 1.374 . S
C88 H79 0.930 . S
C88 C87 1.374 . S
C88 C89 1.383 . S
C89 O83 1.412 . S
C89 C88 1.383 . S
C89 C90 1.394 . S
C90 H80 0.929 . S
C90 C86 1.377 . S
C90 C89 1.394 . S
H91 C98 0.929 . S
H92 C101 0.930 . S
H93 C103 0.929 . S
H94 C95 0.969 . S
C95 H94 0.969 . S
C95 O96 1.550 . S
C95 H97 0.973 . S
O96 C95 1.550 . S
O96 C102 1.412 . S
H97 C95 0.973 . S
C98 H91 0.929 . S
C98 C99 1.400 . S
C98 C100 1.364 . S
C99 C98 1.400 . S
C99 C103 1.377 . S
C100 C98 1.364 . S
C100 C101 1.374 . S
C101 H92 0.930 . S
C101 C100 1.374 . S
C101 C102 1.383 . S
C102 O96 1.412 . S
C102 C101 1.383 . S
C102 C103 1.394 . S
C103 H93 0.929 . S
C103 C99 1.377 . S
C103 C102 1.394 . S
C104 O120 1.251 . S
C104 O122 1.254 1_545 S
N105 C106 1.333 . S
N105 C110 1.307 . S
N105 Zn111 2.020 . S
C106 N105 1.333 . S
C106 C107 1.379 . S
C106 H124 0.952 . S
C107 C106 1.379 . S
C107 C108 1.390 . S
C107 H134 0.949 . S
C108 C107 1.390 . S
C108 C109 1.357 . S
C109 C108 1.357 . S
C109 C110 1.370 . S
C109 H135 0.950 . S
C110 N105 1.307 . S
C110 C109 1.370 . S
C110 H128 0.948 . S
Zn111 N105 2.020 . S
Zn111 O120 2.039 . S
Zn111 O126 2.034 . S
Zn111 O130 2.025 . S
Zn111 O132 2.024 1_455 S
C112 O131 1.246 . S
C112 O132 1.249 . S
N113 C114 1.307 1_655 S
N113 C115 1.333 . S
N113 Zn119 2.020 1_655 S
C114 N113 1.307 1_455 S
C114 C118 1.370 1_455 S
C114 H125 0.948 . S
C115 N113 1.333 . S
C115 C116 1.379 . S
C115 H123 0.952 . S
C116 C115 1.379 . S
C116 C117 1.390 . S
C116 H136 0.949 . S
C117 C116 1.390 . S
C117 C118 1.357 . S
C118 C114 1.370 1_655 S
C118 C117 1.357 . S
C118 H137 0.950 1_655 S
Zn119 N113 2.020 1_455 S
Zn119 O122 2.025 . S
Zn119 O127 2.024 . S
Zn119 O129 2.039 1_455 S
Zn119 O131 2.034 1_465 S
O120 C104 1.251 . S
O120 Zn111 2.039 . S
C121 O126 1.246 1_565 S
C121 O127 1.249 . S
O122 C104 1.254 1_565 S
O122 Zn119 2.025 . S
H123 C115 0.952 . S
H124 C106 0.952 . S
H125 C114 0.948 . S
O126 Zn111 2.034 . S
O126 C121 1.246 1_545 S
O127 Zn119 2.024 . S
O127 C121 1.249 . S
H128 C110 0.948 . S
O129 Zn119 2.039 1_655 S
O129 C133 1.251 1_565 S
O130 Zn111 2.025 . S
O130 C133 1.253 1_455 S
O131 C112 1.246 . S
O131 Zn119 2.034 1_645 S
O132 Zn111 2.024 1_655 S
O132 C112 1.249 . S
C133 O129 1.251 1_545 S
C133 O130 1.253 1_655 S
H134 C107 0.949 . S
H135 C109 0.950 . S
H136 C116 0.949 . S
H137 C118 0.950 1_455 S
C138 O154 1.251 1_565 S
C138 O156 1.254 1_556 S
N139 C140 1.333 . S
N139 C144 1.307 . S
N139 Zn145 2.020 1_556 S
C140 N139 1.333 . S
C140 C141 1.379 . S
C140 H158 0.952 . S
C141 C140 1.379 . S
C141 C142 1.390 . S
C141 H168 0.949 . S
C142 C141 1.390 . S
C142 C143 1.357 . S
C143 C142 1.357 . S
C143 C144 1.370 . S
C143 H169 0.950 . S
C144 N139 1.307 . S
C144 C143 1.370 . S
C144 H162 0.948 . S
Zn145 N139 2.020 1_554 S
Zn145 O154 2.039 1_554 S
Zn145 O160 2.034 . S
Zn145 O164 2.025 . S
Zn145 O166 2.024 1_554 S
C146 O165 1.246 . S
C146 O166 1.249 1_565 S
N147 C148 1.307 . S
N147 C149 1.333 . S
N147 Zn153 2.020 . S
C148 N147 1.307 . S
C148 C152 1.370 . S
C148 H159 0.948 . S
C149 N147 1.333 . S
C149 C150 1.379 . S
C149 H157 0.952 . S
C150 C149 1.379 . S
C150 C151 1.390 . S
C150 H170 0.949 . S
C151 C150 1.390 . S
C151 C152 1.357 . S
C152 C148 1.370 . S
C152 C151 1.357 . S
C152 H171 0.950 . S
Zn153 N147 2.020 . S
Zn153 O156 2.025 . S
Zn153 O161 2.024 . S
Zn153 O163 2.039 . S
Zn153 O165 2.034 1_554 S
O154 C138 1.251 1_545 S
O154 Zn145 2.039 1_556 S
C155 O160 1.246 . S
C155 O161 1.249 1_545 S
O156 C138 1.254 1_554 S
O156 Zn153 2.025 . S
H157 C149 0.952 . S
H158 C140 0.952 . S
H159 C148 0.948 . S
O160 Zn145 2.034 . S
O160 C155 1.246 . S
O161 Zn153 2.024 . S
O161 C155 1.249 1_565 S
H162 C144 0.948 . S
O163 Zn153 2.039 . S
O163 C167 1.251 1_565 S
O164 Zn145 2.025 . S
O164 C167 1.254 . S
O165 C146 1.246 . S
O165 Zn153 2.034 1_556 S
O166 Zn145 2.024 1_556 S
O166 C146 1.249 1_545 S
C167 O163 1.251 1_545 S
C167 O164 1.254 . S
H168 C141 0.949 . S
H169 C143 0.950 . S
H170 C150 0.949 . S
H171 C152 0.950 . S
C172 O188 1.251 . S
C172 O190 1.254 . S
N173 C174 1.333 . S
N173 C178 1.307 . S
N173 Zn179 2.020 . S
C174 N173 1.333 . S
C174 C175 1.379 . S
C174 H192 0.952 . S
C175 C174 1.379 . S
C175 C176 1.390 . S
C175 H202 0.949 . S
C176 C175 1.390 . S
C176 C177 1.357 . S
C177 C176 1.357 . S
C177 C178 1.370 . S
C177 H203 0.950 . S
C178 N173 1.307 . S
C178 C177 1.370 . S
C178 H196 0.948 . S
Zn179 N173 2.020 . S
Zn179 O188 2.039 . S
Zn179 O194 2.034 . S
Zn179 O198 2.025 . S
Zn179 O200 2.024 . S
C180 O199 1.246 . S
C180 O200 1.249 . S
N181 C182 1.307 . S
N181 C183 1.333 . S
N181 Zn187 2.020 . S
C182 N181 1.307 . S
C182 C186 1.370 . S
C182 H193 0.948 . S
C183 N181 1.333 . S
C183 C184 1.379 . S
C183 H191 0.952 . S
C184 C183 1.379 . S
C184 C185 1.390 . S
C184 H204 0.949 . S
C185 C184 1.390 . S
C185 C186 1.357 . S
C186 C182 1.370 . S
C186 C185 1.357 . S
C186 H205 0.950 . S
Zn187 N181 2.020 . S
Zn187 O190 2.025 . S
Zn187 O195 2.024 . S
Zn187 O197 2.039 . S
Zn187 O199 2.034 . S
O188 C172 1.251 . S
O188 Zn179 2.039 . S
C189 O194 1.246 . S
C189 O195 1.249 . S
O190 C172 1.254 . S
O190 Zn187 2.025 . S
H191 C183 0.952 . S
H192 C174 0.952 . S
H193 C182 0.948 . S
O194 Zn179 2.034 . S
O194 C189 1.246 . S
O195 Zn187 2.024 . S
O195 C189 1.249 . S
H196 C178 0.948 . S
O197 Zn187 2.039 . S
O197 C201 1.251 . S
O198 Zn179 2.025 . S
O198 C201 1.254 . S
O199 C180 1.246 . S
O199 Zn187 2.034 . S
O200 Zn179 2.024 . S
O200 C180 1.249 . S
C201 O197 1.251 . S
C201 O198 1.254 . S
H202 C175 0.949 . S
H203 C177 0.950 . S
H204 C184 0.949 . S
H205 C186 0.950 . S
C206 O222 1.251 1_556 S
C206 O224 1.254 . S
N207 C208 1.333 . S
N207 C212 1.307 . S
N207 Zn213 2.020 1_655 S
C208 N207 1.333 . S
C208 C209 1.379 . S
C208 H226 0.951 . S
C209 C208 1.379 . S
C209 C210 1.390 . S
C209 H236 0.949 . S
C210 C209 1.390 . S
C210 C211 1.357 . S
C211 C210 1.357 . S
C211 C212 1.370 . S
C211 H237 0.950 . S
C212 N207 1.307 . S
C212 C211 1.370 . S
C212 H230 0.948 . S
Zn213 N207 2.020 1_455 S
Zn213 O222 2.039 . S
Zn213 O228 2.034 . S
Zn213 O232 2.025 . S
Zn213 O234 2.024 1_455 S
C214 O233 1.246 . S
C214 O234 1.249 1_556 S
N215 C216 1.307 . S
N215 C217 1.333 . S
N215 Zn221 2.020 . S
C216 N215 1.307 . S
C216 C220 1.370 . S
C216 H227 0.948 . S
C217 N215 1.333 . S
C217 C218 1.379 . S
C217 H225 0.952 . S
C218 C217 1.379 . S
C218 C219 1.390 . S
C218 H238 0.949 . S
C219 C218 1.390 . S
C219 C220 1.357 . S
C220 C216 1.370 . S
C220 C219 1.357 . S
C220 H239 0.950 . S
Zn221 N215 2.020 . S
Zn221 O224 2.025 . S
Zn221 O229 2.024 1_556 S
Zn221 O231 2.039 1_556 S
Zn221 O233 2.034 1_455 S
O222 C206 1.251 1_554 S
O222 Zn213 2.039 . S
C223 O228 1.246 . S
C223 O229 1.249 . S
O224 C206 1.254 . S
O224 Zn221 2.025 . S
H225 C217 0.952 . S
H226 C208 0.951 . S
H227 C216 0.948 . S
O228 Zn213 2.034 . S
O228 C223 1.246 . S
O229 Zn221 2.024 1_554 S
O229 C223 1.249 . S
H230 C212 0.948 . S
O231 Zn221 2.039 1_554 S
O231 C235 1.251 . S
O232 Zn213 2.025 . S
O232 C235 1.254 . S
O233 C214 1.246 . S
O233 Zn221 2.034 1_655 S
O234 Zn213 2.024 1_655 S
O234 C214 1.249 1_554 S
C235 O231 1.251 . S
C235 O232 1.254 . S
H236 C209 0.949 . S
H237 C211 0.950 . S
H238 C218 0.949 . S
H239 C220 0.950 . S
C9 C104 3.837 . S
C21 C146 3.085 . S
C176 C30 0.904 . S
C43 C210 0.868 . S
C167 C4 2.288 . S
C121 C22 2.913 . S
C214 C34 1.082 1_556 S
C180 C48 0.838 . S
C8 C235 3.311 . S
C142 C35 1.786 1_556 S
C47 C117 1.534 . S
C17 C201 2.524 . S
C133 C60 3.171 1_545 S
C74 C155 3.561 . S
C82 C185 1.799 . S
C100 C219 1.502 . S
C61 C138 2.677 . S
C112 C73 2.695 . S
C223 C87 1.430 . S
C189 C95 0.744 . S
C56 C206 2.818 1_655 S
C151 C86 1.998 . S
C108 C99 1.172 . S
C69 C172 2.873 . S
