# Generated by pormake.
# Topology pyr, (3,6)-cn, num edge types: 1
# Building blocks:
#     Node 0, Type 0, BuildingBlock: BETDIP_clean_linker_0, # of connection points: 3
#     Node 1, Type 0, BuildingBlock: BETDIP_clean_linker_0, # of connection points: 3
#     Node 2, Type 0, BuildingBlock: BETDIP_clean_linker_0, # of connection points: 3
#     Node 3, Type 0, BuildingBlock: BETDIP_clean_linker_0, # of connection points: 3
#     Node 4, Type 0, BuildingBlock: BETDIP_clean_linker_0, # of connection points: 3
#     Node 5, Type 0, BuildingBlock: BETDIP_clean_linker_0, # of connection points: 3
#     Node 6, Type 0, BuildingBlock: BETDIP_clean_linker_0, # of connection points: 3
#     Node 7, Type 0, BuildingBlock: BETDIP_clean_linker_0, # of connection points: 3
#     Node 8, Type 1, BuildingBlock: JUFBIX_clean_sbu_0, # of connection points: 6
#     Node 9, Type 1, BuildingBlock: JUFBIX_clean_sbu_0, # of connection points: 6
#     Node 10, Type 1, BuildingBlock: JUFBIX_clean_sbu_0, # of connection points: 6
#     Node 11, Type 1, BuildingBlock: JUFBIX_clean_sbu_0, # of connection points: 6
#     Edge 12, Type (0, 1), None
#     Edge 13, Type (0, 1), None
#     Edge 14, Type (0, 1), None
#     Edge 15, Type (0, 1), None
#     Edge 16, Type (0, 1), None
#     Edge 17, Type (0, 1), None
#     Edge 18, Type (0, 1), None
#     Edge 19, Type (0, 1), None
#     Edge 20, Type (0, 1), None
#     Edge 21, Type (0, 1), None
#     Edge 22, Type (0, 1), None
#     Edge 23, Type (0, 1), None
#     Edge 24, Type (0, 1), None
#     Edge 25, Type (0, 1), None
#     Edge 26, Type (0, 1), None
#     Edge 27, Type (0, 1), None
#     Edge 28, Type (0, 1), None
#     Edge 29, Type (0, 1), None
#     Edge 30, Type (0, 1), None
#     Edge 31, Type (0, 1), None
#     Edge 32, Type (0, 1), None
#     Edge 33, Type (0, 1), None
#     Edge 34, Type (0, 1), None
#     Edge 35, Type (0, 1), None
# Relax obj value: 0.398
# Max RMSD: 0.222
# Mean RMSD: 0.138
data_MOF--net-pry--node1-JUFBIX_clean_sbu_0--node2-BETDIP_clean_linker_0--edge1-none
_symmetry_space_group_name_H-M    P1
_symmetry_Int_Tables_number       1
_symmetry_cell_setting            triclinic
loop_
_symmetry_equiv_pos_as_xyz
'x, y, z'
_cell_length_a     15.748525
_cell_length_b     14.820397
_cell_length_c     15.477041
_cell_angle_alpha  86.214247
_cell_angle_beta   78.177971
_cell_angle_gamma 99.208264
loop_
_atom_site_label
_atom_site_type_symbol
_atom_site_fract_x
_atom_site_fract_y
_atom_site_fract_z
_atom_type_partial_charge
H0 H 0.10155 0.16775 0.39263 0.0
H1 H 0.31905 0.18767 0.17003 0.0
H2 H 0.3192 0.03212 0.41729 0.0
H3 H 0.23195 0.2767 1.10289 0.0
C4 C 0.18228 0.29372 0.15601 0.0
C5 C 0.16416 0.14836 0.36427 0.0
C6 C 0.20269 0.09431 0.41711 0.0
C7 C 0.20535 0.18334 0.27709 0.0
C8 C 0.28731 0.16031 0.23755 0.0
C9 C 0.33037 0.10501 0.28668 0.0
C10 C 0.2877 0.07393 0.37797 0.0
N11 N 0.16409 0.24958 0.2383 0.0
H12 H 0.48932 0.02546 0.71583 0.0
H13 H 0.54145 0.80108 0.56758 0.0
H14 H 0.5194 0.77619 0.8516 0.0
H15 H 0.46135 0.08951 0.50048 0.0
C16 C 0.44846 0.03906 0.55757 0.0
C17 C 0.49417 0.95417 0.715 0.0
C18 C 0.495 0.90492 0.79451 0.0
C19 C 0.50528 0.91573 0.63431 0.0
C20 C 0.52981 0.82988 0.63072 0.0
C21 C 0.53694 0.77991 0.7083 0.0
C22 C 0.51683 0.81602 0.79126 0.0
N23 N 0.4956 0.96474 0.55585 0.0
H24 H 0.87984 0.50863 0.9697 0.0
H25 H 0.65469 0.30273 0.96888 0.0
H26 H 0.79473 0.28444 0.17952 0.0
H27 H 0.61053 0.43389 0.92338 0.0
C28 C 0.66656 0.4634 0.86991 0.0
C29 C 0.83464 0.44675 1.00108 0.0
C30 C 0.84735 0.40201 1.08073 0.0
C31 C 0.76285 0.41417 0.96249 0.0
C32 C 0.70626 0.33133 1.00114 0.0
C33 C 0.71554 0.28344 1.07928 0.0
C34 C 0.78568 0.32075 1.11994 0.0
N35 N 0.74889 0.46258 0.88361 0.0
H36 H 0.96322 0.52887 0.55129 0.0
H37 H 0.17518 0.70215 0.62397 0.0
H38 H 0.98243 0.81534 0.50896 0.0
H39 H 0.13128 0.38683 0.55723 0.0
C40 C 0.10923 0.44724 0.53251 0.0
C41 C 1.00365 0.59594 0.54639 0.0
C42 C 0.97233 0.6716 0.51681 0.0
C43 C 0.08686 0.60762 0.56666 0.0
C44 C 0.11953 0.69399 0.59232 0.0
C45 C 0.07352 0.76705 0.58165 0.0
C46 C 1.01153 0.75792 0.52851 0.0
N47 N 0.13314 0.53264 0.56761 0.0
H48 H 0.78577 0.85391 0.17973 0.0
H49 H 1.01229 0.83562 0.97634 0.0
H50 H 0.82372 -0.00065 0.91989 0.0
H51 H 0.06365 0.80648 1.09471 0.0
C52 C 1.01212 0.75858 0.14078 0.0
C53 C 0.82405 0.87347 1.11254 0.0
C54 C 0.79413 0.9314 1.05418 0.0
C55 C 0.90201 0.83902 1.08663 0.0
C56 C 0.95335 0.8639 0.99868 0.0
C57 C 0.92742 0.92239 0.93699 0.0
C58 C 0.84569 0.95444 0.96551 0.0
N59 N 0.92523 0.777 0.14968 0.0
H60 H 0.66783 0.03171 0.60967 0.0
H61 H 0.61403 0.26358 0.74699 0.0
H62 H 0.62752 0.27149 0.46555 0.0
H63 H 0.67863 0.98073 0.8427 0.0
C64 C 0.68995 0.0183 0.77793 0.0
C65 C 0.66072 0.10241 0.60802 0.0
C66 C 0.65433 0.14644 0.5275 0.0
C67 C 0.64916 0.14499 0.68676 0.0
C68 C 0.62518 0.23124 0.68575 0.0
C69 C 0.61648 0.27656 0.60656 0.0
C70 C 0.63295 0.23537 0.52676 0.0
N71 N 0.65439 0.09984 0.76902 0.0
H72 H 0.27679 0.52514 0.3297 0.0
H73 H 0.48204 0.74475 0.35322 0.0
H74 H 0.35268 0.76219 0.13417 0.0
H75 H 0.54201 0.61399 0.38496 0.0
C76 C 0.48759 0.58421 0.44002 0.0
C77 C 0.31804 0.59097 0.30364 0.0
C78 C 0.30621 0.63785 0.22464 0.0
C79 C 0.38407 0.62712 0.34821 0.0
C80 C 0.43469 0.71454 0.31679 0.0
C81 C 0.42521 0.76417 0.24004 0.0
C82 C 0.36179 0.72423 0.19285 0.0
N83 N 0.40006 0.57654 0.42442 0.0
H84 H 0.96106 0.30694 0.71827 0.0
H85 H 0.18278 0.50657 0.73855 0.0
H86 H 0.17487 0.22801 0.82219 0.0
H87 H 0.99917 0.63135 0.76021 0.0
C88 C 1.02932 0.57481 0.78027 0.0
C89 C 1.02296 0.3243 0.73868 0.0
C90 C 0.07261 0.25593 0.75527 0.0
C91 C 1.05762 0.4166 0.74682 0.0
C92 C 0.14576 0.43722 0.75277 0.0
C93 C 0.18326 0.36935 0.78807 0.0
C94 C 0.14337 0.27922 0.79549 0.0
N95 N 1.00595 0.48721 0.74878 0.0
Co96 Co 1.00838 0.01592 0.65708 0.0
C97 C 0.07673 0.84864 0.63034 0.0
Co98 Co 0.13032 0.99532 0.69874 0.0
C99 C 0.83605 0.04963 0.67838 0.0
C100 C 0.84581 0.91912 0.63075 0.0
N101 N 0.895 0.00227 0.63429 0.0
N102 N 0.75686 -0.00301 0.70925 0.0
C103 C 0.76185 0.91492 0.67949 0.0
H104 H 0.85276 0.11612 0.70118 0.0
H105 H 0.87097 0.85954 0.60784 0.0
C106 C 1.06344 0.16507 0.72254 0.0
N107 N 0.24409 0.00834 0.72067 0.0
C108 C 0.30558 0.9789 0.65963 0.0
C109 C 0.28705 0.08933 0.73834 0.0
N110 N 0.37801 0.04316 0.63105 0.0
C111 C 0.36758 0.11312 0.68026 0.0
C112 C 0.15103 0.06276 0.51196 0.0
O113 O 1.0035 0.13669 0.68344 0.0
O114 O 0.12162 0.1161 0.72885 0.0
O115 O 0.18936 0.04149 0.57316 0.0
O116 O 0.06739 0.05958 0.53391 0.0
O117 O 0.13726 0.87486 0.66962 0.0
H118 H 0.25905 0.13287 0.78459 0.0
H119 H 0.29249 0.91928 0.62455 0.0
O120 O 1.01719 0.89674 0.62856 0.0
O121 O 0.94935 0.97258 0.78062 0.0
O122 O 0.06842 0.94889 0.82378 0.0
C123 C 0.98474 0.94848 0.84322 0.0
H124 H 0.71141 0.8543 0.69825 0.0
H125 H 0.41429 0.17658 0.674 0.0
Co126 Co 0.54536 0.02344 1.1012 0.0
C127 C 0.48034 0.85865 0.21256 0.0
Co128 Co 0.58622 0.02721 0.22747 0.0
C129 C 0.51853 0.94373 0.94433 0.0
C130 C 0.45566 0.06139 0.96208 0.0
N131 N 0.50698 0.01211 0.99729 0.0
N132 N 0.4796 0.95035 0.875 0.0
C133 C 0.43852 0.02354 0.88745 0.0
H134 H 0.55756 0.89181 0.9547 0.0
H135 H 0.43225 0.1207 0.98888 0.0
C136 C 0.65445 0.19203 1.11289 0.0
N137 N 0.62589 0.03517 0.33079 0.0
C138 C 0.61988 0.1045 0.38292 0.0
C139 C 0.6749 0.98203 0.36526 0.0
N140 N 0.66129 0.09593 0.45026 0.0
C141 C 0.69708 0.01929 0.43834 0.0
C142 C 0.71066 0.96775 1.09101 0.0
O143 O 0.60859 0.14975 1.06339 0.0
O144 O 0.65042 0.15253 0.18947 0.0
O145 O 0.69233 0.98215 0.17252 0.0
O146 O 0.65424 0.97997 1.04516 0.0
O147 O 0.52331 0.90088 0.26428 0.0
H148 H 0.694 0.92085 0.3385 0.0
H149 H 0.58373 0.15908 0.37273 0.0
O150 O 0.48366 0.89959 0.13728 0.0
O151 O 0.43573 0.06793 0.15868 0.0
O152 O 0.47781 0.07015 0.28445 0.0
C153 C 0.41857 0.08032 0.24134 0.0
H154 H 0.40038 0.04987 0.84443 0.0
H155 H 0.73559 0.99085 0.48016 0.0
Co156 Co 0.64309 0.55497 0.61842 0.0
C157 C 0.50975 0.56054 0.51744 0.0
Co158 Co 0.51124 0.50179 0.689 0.0
C159 C 0.81583 0.65155 0.56526 0.0
C160 C 0.77445 0.57893 0.4617 0.0
N161 N 0.74641 0.60071 0.54486 0.0
N162 N 0.88727 0.65941 0.49954 0.0
C163 C 0.86228 0.61411 0.43417 0.0
H164 H 0.81685 0.67231 0.63094 0.0
H165 H 0.73568 0.53322 0.42698 0.0
C166 C 0.64449 0.49398 0.78997 0.0
N167 N 0.40811 0.45539 0.75995 0.0
C168 C 0.34052 0.40377 0.73698 0.0
C169 C 0.37851 0.47341 0.84395 0.0
N170 N 0.26895 0.39077 0.80258 0.0
C171 C 0.29169 0.43421 0.86984 0.0
C172 C 0.59619 0.36932 0.60982 0.0
O173 O 0.69949 0.53131 0.71956 0.0
O174 O 0.56354 0.47927 0.78771 0.0
O175 O 0.52411 0.38186 0.65709 0.0
O176 O 0.65815 0.43704 0.58475 0.0
O177 O 0.45513 0.52431 0.58813 0.0
H178 H 0.41571 0.5179 0.88098 0.0
H179 H 0.34124 0.38357 0.67086 0.0
O180 O 0.59057 0.57712 0.51983 0.0
O181 O 0.62973 0.67571 0.65137 0.0
O182 O 0.49569 0.61919 0.72355 0.0
C183 C 0.55751 0.68725 0.69989 0.0
H184 H 0.90609 0.59893 0.376 0.0
H185 H 0.24725 0.4441 0.92912 0.0
Co186 Co 0.1182 0.53692 1.0815 0.0
C187 C 0.92773 0.43953 1.11779 0.0
Co188 Co 1.0419 0.50094 0.21767 0.0
C189 C 0.09743 0.53145 0.90557 0.0
C190 C 0.17855 0.65719 0.91859 0.0
N191 N 0.14815 0.5707 0.95851 0.0
N192 N 0.09013 0.59031 0.83858 0.0
C193 C 0.14175 0.66971 0.84574 0.0
H194 H 1.05936 0.4626 0.92018 0.0
H195 H 0.21398 0.71155 0.94771 0.0
C196 C 0.22963 0.59913 0.18352 0.0
N197 N 1.01019 0.46863 0.34073 0.0
C198 C 1.06149 0.50012 0.39656 0.0
C199 C 0.96972 0.38389 0.37967 0.0
N200 N 1.05707 0.43848 0.46586 0.0
C201 C 0.99914 0.36497 0.45603 0.0
C202 C 0.14052 0.36916 0.14436 0.0
O203 O 0.23521 0.59263 1.1006 0.0
O204 O 0.15524 0.56803 0.23495 0.0
O205 O 0.09131 0.39251 0.21165 0.0
O206 O 0.15695 0.42028 1.07155 0.0
O207 O 0.92911 0.43268 0.19986 0.0
H208 H 0.93064 0.33422 0.34885 0.0
H209 H 0.10572 0.56555 0.38518 0.0
O210 O 0.99787 0.48218 1.06526 0.0
O211 O 0.08534 0.65062 1.09285 0.0
O212 O 0.99154 0.61503 0.22033 0.0
C213 C 1.02867 0.67332 0.1532 0.0
H214 H 0.14761 0.73366 0.8051 0.0
H215 H 0.98276 0.30076 0.49845 0.0
loop_
_geom_bond_atom_site_label_1
_geom_bond_atom_site_label_2
_geom_bond_distance
_geom_bond_site_symmetry_2
_ccdc_geom_bond_type
H0 C5 0.930 . S
H1 C8 0.930 . S
H2 C10 0.930 . S
H3 C4 1.016 . S
C4 H3 1.016 . S
C4 N11 1.286 . S
C5 H0 0.930 . S
C5 C6 1.397 . S
C5 C7 1.361 . S
C6 C5 1.397 . S
C6 C10 1.390 . S
C7 C5 1.361 . S
C7 C8 1.393 . S
C7 N11 1.413 . S
C8 H1 0.930 . S
C8 C7 1.393 . S
C8 C9 1.399 . S
C9 C8 1.399 . S
C9 C10 1.381 . S
C10 H2 0.930 . S
C10 C6 1.390 . S
C10 C9 1.381 . S
N11 C4 1.286 . S
N11 C7 1.413 . S
H12 C17 0.930 . S
H13 C20 0.930 . S
H14 C22 0.930 . S
H15 C16 1.016 . S
C16 H15 1.016 . S
C16 N23 1.286 . S
C17 H12 0.930 . S
C17 C18 1.397 . S
C17 C19 1.361 . S
C18 C17 1.397 . S
C18 C22 1.390 . S
C19 C17 1.361 . S
C19 C20 1.393 . S
C19 N23 1.413 . S
C20 H13 0.930 . S
C20 C19 1.393 . S
C20 C21 1.399 . S
C21 C20 1.399 . S
C21 C22 1.381 . S
C22 H14 0.930 . S
C22 C18 1.390 . S
C22 C21 1.381 . S
N23 C16 1.286 . S
N23 C19 1.413 . S
H24 C29 0.930 . S
H25 C32 0.930 . S
H26 C34 0.930 1_554 S
H27 C28 1.016 . S
C28 H27 1.016 . S
C28 N35 1.286 . S
C29 H24 0.930 . S
C29 C30 1.397 . S
C29 C31 1.361 . S
C30 C29 1.397 . S
C30 C34 1.390 . S
C31 C29 1.361 . S
C31 C32 1.393 . S
C31 N35 1.413 . S
C32 H25 0.930 . S
C32 C31 1.393 . S
C32 C33 1.399 . S
C33 C32 1.399 . S
C33 C34 1.381 . S
C34 H26 0.930 1_556 S
C34 C30 1.390 . S
C34 C33 1.381 . S
N35 C28 1.286 . S
N35 C31 1.413 . S
H36 C41 0.930 . S
H37 C44 0.930 1_455 S
H38 C46 0.930 . S
H39 C40 1.018 . S
C40 H39 1.018 . S
C40 N47 1.285 1_455 S
C41 H36 0.930 . S
C41 C42 1.397 . S
C41 C43 1.361 . S
C42 C41 1.397 . S
C42 C46 1.390 . S
C43 C41 1.361 . S
C43 C44 1.393 . S
C43 N47 1.413 . S
C44 H37 0.930 1_655 S
C44 C43 1.393 . S
C44 C45 1.399 . S
C45 C44 1.399 . S
C45 C46 1.381 . S
C46 H38 0.930 . S
C46 C42 1.390 . S
C46 C45 1.381 . S
N47 C40 1.285 1_655 S
N47 C43 1.413 . S
H48 C53 0.930 1_554 S
H49 C56 0.930 . S
H50 C58 0.930 . S
H51 C52 1.016 . S
C52 H51 1.016 . S
C52 N59 1.286 . S
C53 H48 0.930 1_556 S
C53 C54 1.397 . S
C53 C55 1.361 . S
C54 C53 1.397 . S
C54 C58 1.390 1_565 S
C55 C53 1.361 . S
C55 C56 1.393 . S
C55 N59 1.413 . S
C56 H49 0.930 . S
C56 C55 1.393 . S
C56 C57 1.399 . S
C57 C56 1.399 . S
C57 C58 1.381 1_565 S
C58 H50 0.930 . S
C58 C54 1.390 1_545 S
C58 C57 1.381 1_545 S
N59 C52 1.286 . S
N59 C55 1.413 . S
H60 C65 0.930 . S
H61 C68 0.930 . S
H62 C70 0.930 . S
H63 C64 1.016 . S
C64 H63 1.016 . S
C64 N71 1.286 . S
C65 H60 0.930 . S
C65 C66 1.397 . S
C65 C67 1.361 . S
C66 C65 1.397 . S
C66 C70 1.390 . S
C67 C65 1.361 . S
C67 C68 1.393 . S
C67 N71 1.413 . S
C68 H61 0.930 . S
C68 C67 1.393 . S
C68 C69 1.399 . S
C69 C68 1.399 . S
C69 C70 1.381 . S
C70 H62 0.930 . S
C70 C66 1.390 . S
C70 C69 1.381 . S
N71 C64 1.286 . S
N71 C67 1.413 . S
H72 C77 0.930 . S
H73 C80 0.930 . S
H74 C82 0.930 . S
H75 C76 1.016 . S
C76 H75 1.016 . S
C76 N83 1.286 . S
C77 H72 0.930 . S
C77 C78 1.397 . S
C77 C79 1.361 . S
C78 C77 1.397 . S
C78 C82 1.390 . S
C79 C77 1.361 . S
C79 C80 1.393 . S
C79 N83 1.413 . S
C80 H73 0.930 . S
C80 C79 1.393 . S
C80 C81 1.399 . S
C81 C80 1.399 . S
C81 C82 1.381 . S
C82 H74 0.930 . S
C82 C78 1.390 . S
C82 C81 1.381 . S
N83 C76 1.286 . S
N83 C79 1.413 . S
H84 C89 0.930 1_655 S
H85 C92 0.930 . S
H86 C94 0.930 . S
H87 C88 1.016 . S
C88 H87 1.016 . S
C88 N95 1.286 . S
C89 H84 0.930 1_455 S
C89 C90 1.397 . S
C89 C91 1.361 . S
C90 C89 1.397 . S
C90 C94 1.390 . S
C91 C89 1.361 . S
C91 C92 1.393 . S
C91 N95 1.413 . S
C92 H85 0.930 . S
C92 C91 1.393 . S
C92 C93 1.399 . S
C93 C92 1.399 . S
C93 C94 1.381 . S
C94 H86 0.930 . S
C94 C90 1.390 . S
C94 C93 1.381 . S
N95 C88 1.286 . S
N95 C91 1.413 . S
Co96 N101 2.057 . S
Co96 O113 2.021 . S
Co96 O116 2.062 . S
Co96 O120 2.117 1_545 S
Co96 O121 2.020 1_545 S
C97 O117 1.259 1_655 S
C97 O120 1.258 . S
Co98 N107 2.057 . S
Co98 O114 2.117 1_565 S
Co98 O115 2.020 1_565 S
Co98 O117 2.021 . S
Co98 O122 2.062 . S
C99 N101 1.316 . S
C99 N102 1.347 . S
C99 H104 0.931 . S
C100 N101 1.375 1_565 S
C100 C103 1.350 1_565 S
C100 H105 0.930 . S
N101 Co96 2.057 . S
N101 C99 1.316 . S
N101 C100 1.375 1_545 S
N102 C99 1.347 . S
N102 C103 1.373 . S
C103 C100 1.350 1_545 S
C103 N102 1.373 . S
C103 H124 0.931 1_545 S
H104 C99 0.931 . S
H105 C100 0.930 . S
C106 O113 1.259 1_455 S
C106 O114 1.258 . S
N107 Co98 2.057 . S
N107 C108 1.316 . S
N107 C109 1.375 1_565 S
C108 N107 1.316 . S
C108 N110 1.347 . S
C108 H119 0.931 . S
C109 N107 1.375 1_545 S
C109 C111 1.350 . S
C109 H118 0.930 . S
N110 C108 1.347 . S
N110 C111 1.373 1_565 S
C111 C109 1.350 . S
C111 N110 1.373 1_545 S
C111 H125 0.931 . S
C112 O115 1.256 . S
C112 O116 1.255 1_455 S
O113 Co96 2.021 . S
O113 C106 1.259 1_655 S
O114 Co98 2.117 1_545 S
O114 C106 1.258 . S
O115 Co98 2.020 1_545 S
O115 C112 1.256 . S
O116 Co96 2.062 . S
O116 C112 1.255 1_655 S
O117 C97 1.259 1_455 S
O117 Co98 2.021 . S
H118 C109 0.930 . S
H119 C108 0.931 . S
O120 Co96 2.117 1_565 S
O120 C97 1.258 . S
O121 Co96 2.020 1_565 S
O121 C123 1.256 . S
O122 Co98 2.062 . S
O122 C123 1.255 1_455 S
C123 O121 1.256 . S
C123 O122 1.255 1_655 S
H124 C103 0.931 1_565 S
H125 C111 0.931 . S
Co126 N131 2.057 1_545 S
Co126 O143 2.021 . S
Co126 O146 2.062 1_545 S
Co126 O150 2.117 1_546 S
Co126 O151 2.020 1_556 S
C127 O147 1.259 . S
C127 O150 1.258 . S
Co128 N137 2.057 . S
Co128 O144 2.117 . S
Co128 O145 2.020 . S
Co128 O147 2.021 1_545 S
Co128 O152 2.062 . S
C129 N131 1.316 . S
C129 N132 1.347 . S
C129 H134 0.931 1_565 S
C130 N131 1.375 . S
C130 C133 1.350 . S
C130 H135 0.930 . S
N131 Co126 2.057 1_565 S
N131 C129 1.316 . S
N131 C130 1.375 . S
N132 C129 1.347 . S
N132 C133 1.373 . S
C133 C130 1.350 . S
C133 N132 1.373 . S
C133 H154 0.931 . S
H134 C129 0.931 1_545 S
H135 C130 0.930 . S
C136 O143 1.259 . S
C136 O144 1.258 1_556 S
N137 Co128 2.057 . S
N137 C138 1.316 . S
N137 C139 1.375 . S
C138 N137 1.316 . S
C138 N140 1.347 . S
C138 H149 0.931 . S
C139 N137 1.375 . S
C139 C141 1.350 . S
C139 H148 0.930 . S
N140 C138 1.347 . S
N140 C141 1.373 . S
C141 C139 1.350 . S
C141 N140 1.373 . S
C141 H155 0.931 . S
C142 O145 1.256 1_566 S
C142 O146 1.255 . S
O143 Co126 2.021 . S
O143 C136 1.259 . S
O144 Co128 2.117 . S
O144 C136 1.258 1_554 S
O145 Co128 2.020 . S
O145 C142 1.256 1_544 S
O146 Co126 2.062 1_565 S
O146 C142 1.255 . S
O147 C127 1.259 . S
O147 Co128 2.021 1_565 S
H148 C139 0.930 . S
H149 C138 0.931 . S
O150 Co126 2.117 1_564 S
O150 C127 1.258 . S
O151 Co126 2.020 1_554 S
O151 C153 1.256 . S
O152 Co128 2.062 . S
O152 C153 1.255 . S
C153 O151 1.256 . S
C153 O152 1.255 . S
H154 C133 0.931 . S
H155 C141 0.931 . S
Co156 N161 2.057 . S
Co156 O173 2.021 . S
Co156 O176 2.062 . S
Co156 O180 2.117 . S
Co156 O181 2.020 . S
C157 O177 1.259 . S
C157 O180 1.258 . S
Co158 N167 2.057 . S
Co158 O174 2.117 . S
Co158 O175 2.020 . S
Co158 O177 2.021 . S
Co158 O182 2.062 . S
C159 N161 1.316 . S
C159 N162 1.347 . S
C159 H164 0.931 . S
C160 N161 1.375 . S
C160 C163 1.350 . S
C160 H165 0.930 . S
N161 Co156 2.057 . S
N161 C159 1.316 . S
N161 C160 1.375 . S
N162 C159 1.347 . S
N162 C163 1.373 . S
C163 C160 1.350 . S
C163 N162 1.373 . S
C163 H184 0.931 . S
H164 C159 0.931 . S
H165 C160 0.930 . S
C166 O173 1.259 . S
C166 O174 1.258 . S
N167 Co158 2.057 . S
N167 C168 1.316 . S
N167 C169 1.375 . S
C168 N167 1.316 . S
C168 N170 1.347 . S
C168 H179 0.931 . S
C169 N167 1.375 . S
C169 C171 1.350 . S
C169 H178 0.930 . S
N170 C168 1.347 . S
N170 C171 1.373 . S
C171 C169 1.350 . S
C171 N170 1.373 . S
C171 H185 0.931 . S
C172 O175 1.256 . S
C172 O176 1.255 . S
O173 Co156 2.021 . S
O173 C166 1.259 . S
O174 Co158 2.117 . S
O174 C166 1.258 . S
O175 Co158 2.020 . S
O175 C172 1.256 . S
O176 Co156 2.062 . S
O176 C172 1.255 . S
O177 C157 1.259 . S
O177 Co158 2.021 . S
H178 C169 0.930 . S
H179 C168 0.931 . S
O180 Co156 2.117 . S
O180 C157 1.258 . S
O181 Co156 2.020 . S
O181 C183 1.256 . S
O182 Co158 2.062 . S
O182 C183 1.255 . S
C183 O181 1.256 . S
C183 O182 1.255 . S
H184 C163 0.931 . S
H185 C171 0.931 . S
Co186 N191 2.057 . S
Co186 O203 2.021 . S
Co186 O206 2.062 1_556 S
Co186 O210 2.117 1_455 S
Co186 O211 2.020 . S
C187 O207 1.259 . S
C187 O210 1.258 1_554 S
Co188 N197 2.057 . S
Co188 O204 2.117 1_655 S
Co188 O205 2.020 1_655 S
Co188 O207 2.021 . S
Co188 O212 2.062 . S
C189 N191 1.316 . S
C189 N192 1.347 . S
C189 H194 0.931 . S
C190 N191 1.375 . S
C190 C193 1.350 . S
C190 H195 0.930 1_455 S
N191 Co186 2.057 . S
N191 C189 1.316 . S
N191 C190 1.375 . S
N192 C189 1.347 . S
N192 C193 1.373 . S
C193 C190 1.350 . S
C193 N192 1.373 . S
C193 H214 0.931 . S
H194 C189 0.931 . S
H195 C190 0.930 1_655 S
C196 O203 1.259 1_554 S
C196 O204 1.258 . S
N197 Co188 2.057 . S
N197 C198 1.316 . S
N197 C199 1.375 1_655 S
C198 N197 1.316 . S
C198 N200 1.347 . S
C198 H209 0.931 . S
C199 N197 1.375 1_455 S
C199 C201 1.350 . S
C199 H208 0.930 . S
N200 C198 1.347 . S
N200 C201 1.373 1_655 S
C201 C199 1.350 . S
C201 N200 1.373 1_455 S
C201 H215 0.931 . S
C202 O205 1.256 . S
C202 O206 1.255 . S
O203 Co186 2.021 . S
O203 C196 1.259 1_556 S
O204 Co188 2.117 1_455 S
O204 C196 1.258 . S
O205 Co188 2.020 1_455 S
O205 C202 1.256 . S
O206 Co186 2.062 1_554 S
O206 C202 1.255 . S
O207 C187 1.259 . S
O207 Co188 2.021 . S
H208 C199 0.930 . S
H209 C198 0.931 . S
O210 Co186 2.117 1_655 S
O210 C187 1.258 1_556 S
O211 Co186 2.020 . S
O211 C213 1.256 1_455 S
O212 Co188 2.062 . S
O212 C213 1.255 1_554 S
C213 O211 1.256 1_655 S
C213 O212 1.255 1_556 S
H214 C193 0.931 . S
H215 C201 0.931 . S
C6 C112 3.215 . S
C18 N132 1.679 . S
C166 C28 2.477 . S
C40 N200 1.440 1_455 S
C153 C9 3.435 . S
N110 C16 1.219 . S
C187 C30 2.803 1_554 S
N162 C42 1.405 . S
C4 C202 2.147 . S
C136 C33 2.141 . S
C45 C97 0.650 . S
C21 C183 1.594 . S
C123 C57 3.345 . S
C66 N140 1.661 . S
C76 C157 2.562 . S
C88 N192 1.142 . S
C54 C142 3.365 . S
N102 C64 1.386 . S
C196 C78 2.650 . S
N170 C93 1.481 . S
C52 C213 1.959 . S
C127 C81 2.095 . S
C106 C90 0.866 . S
C69 C172 1.669 . S
