# Generated by pormake.
# Topology pth, (4,4)-cn, num edge types: 1
# Building blocks:
#     Node 0, Type 0, BuildingBlock: NAHDIM_clean_sbu_0, # of connection points: 4
#     Node 1, Type 0, BuildingBlock: NAHDIM_clean_sbu_0, # of connection points: 4
#     Node 2, Type 0, BuildingBlock: NAHDIM_clean_sbu_0, # of connection points: 4
#     Node 3, Type 1, BuildingBlock: AZAVOO_clean_linker_0, # of connection points: 4
#     Node 4, Type 1, BuildingBlock: AZAVOO_clean_linker_0, # of connection points: 4
#     Node 5, Type 1, BuildingBlock: AZAVOO_clean_linker_0, # of connection points: 4
#     Edge 6, Type (0, 1), None
#     Edge 7, Type (0, 1), None
#     Edge 8, Type (0, 1), None
#     Edge 9, Type (0, 1), None
#     Edge 10, Type (0, 1), None
#     Edge 11, Type (0, 1), None
#     Edge 12, Type (0, 1), None
#     Edge 13, Type (0, 1), None
#     Edge 14, Type (0, 1), None
#     Edge 15, Type (0, 1), None
#     Edge 16, Type (0, 1), None
#     Edge 17, Type (0, 1), None
# Relax obj value: 0.208
# Max RMSD: 0.229
# Mean RMSD: 0.208
data_MOF--net-pth--node1-NAHDIM_clean_sbu_0--node2-AZAVOO_clean_linker_0--edge1-none
_symmetry_space_group_name_H-M    P1
_symmetry_Int_Tables_number       1
_symmetry_cell_setting            triclinic
loop_
_symmetry_equiv_pos_as_xyz
'x, y, z'
_cell_length_a     13.95079
_cell_length_b     14.219517
_cell_length_c     37.336451
_cell_angle_alpha  94.714748
_cell_angle_beta   87.975913
_cell_angle_gamma 120.56361
loop_
_atom_site_label
_atom_site_type_symbol
_atom_site_fract_x
_atom_site_fract_y
_atom_site_fract_z
_atom_type_partial_charge
C0 C 0.31082 0.98433 0.11553 0.0
O1 O 0.38166 0.07705 0.13318 0.0
O2 O 0.23832 0.18505 0.12555 0.0
Zn3 Zn 0.27409 0.12846 0.07916 0.0
O4 O 0.16154 0.09752 0.04152 0.0
C5 C 0.41812 0.3336 0.06074 0.0
O6 O 0.33816 0.3407 0.07803 0.0
O7 O 0.26303 0.98723 0.08777 0.0
C8 C 0.1859 0.08297 0.0092 0.0
O9 O 0.28176 0.08887 0.00234 0.0
C10 C 0.14112 0.13783 0.13868 0.0
O11 O 0.06204 0.04879 0.12162 0.0
O12 O 0.41814 0.24412 0.06003 0.0
C13 C 0.06782 0.18536 0.35234 0.0
O14 O 0.97721 0.09474 0.36017 0.0
O15 O 0.10147 0.94515 0.36749 0.0
Zn16 Zn 0.15508 0.09153 0.39559 0.0
O17 O 0.06435 0.08984 0.43867 0.0
C18 C 0.3141 0.05698 0.42576 0.0
O19 O 0.23599 0.95641 0.41621 0.0
O20 O 0.16098 0.20357 0.36387 0.0
C21 C 0.05887 0.04776 0.46802 0.0
O22 O 0.1007 0.98413 0.47042 0.0
C23 C 0.01551 0.85116 0.37008 0.0
O24 O 0.93451 0.83892 0.3918 0.0
O25 O 0.30378 0.13609 0.41708 0.0
C26 C 0.41995 0.22958 0.71361 0.0
O27 O 0.44228 0.33072 0.72073 0.0
O28 O 0.11216 0.18786 0.71261 0.0
Zn29 Zn 0.21919 0.19115 0.74864 0.0
O30 O 0.31955 0.33721 0.77587 0.0
C31 C 0.0417 0.08776 0.79768 0.0
O32 O 0.03273 0.17227 0.79099 0.0
O33 O 0.32546 0.15111 0.7225 0.0
C34 C 0.31724 0.42338 0.78623 0.0
O35 O 0.2272 0.42819 0.78114 0.0
C36 C 0.11118 0.26355 0.69706 0.0
O37 O 0.19231 0.36529 0.70319 0.0
O38 O 0.12077 0.07821 0.7833 0.0
H39 H 0.03642 0.30553 -0.0023 0.0
H40 H 0.17853 0.21568 0.27032 0.0
H41 H 0.9019 0.2361 0.19507 0.0
H42 H 0.93632 0.10566 0.15833 0.0
H43 H 0.28602 0.30071 0.18603 0.0
H44 H 0.25053 0.42998 0.22256 0.0
H45 H 0.91838 0.38031 0.14483 0.0
H46 H 0.93419 0.32677 0.08189 0.0
H47 H 0.29273 0.51382 0.09216 0.0
H48 H 0.27576 0.56457 0.15521 0.0
H49 H 0.02157 0.6373 0.13732 0.0
H50 H 0.11575 0.79274 0.09972 0.0
H51 H 0.40135 0.94244 0.17108 0.0
H52 H 0.30879 0.7846 0.20734 0.0
H53 H 0.91291 0.68384 0.21656 0.0
H54 H 0.91502 0.85755 0.22502 0.0
H55 H 0.23795 0.00872 0.27651 0.0
H56 H 0.23493 0.8348 0.26773 0.0
H57 H 0.85208 0.54844 0.28834 0.0
H58 H 0.83968 0.67699 0.33375 0.0
H59 H 0.18617 0.81261 0.36046 0.0
H60 H 0.19688 0.68254 0.3163 0.0
H61 H 0.87752 0.27796 0.27573 0.0
H62 H 0.8867 0.15431 0.31556 0.0
H63 H 0.23215 0.39322 0.33877 0.0
H64 H 0.22178 0.51619 0.29884 0.0
O65 O 0.03201 0.32495 0.02292 0.0
O66 O 0.21591 0.41655 0.02999 0.0
O67 O 0.99844 0.05879 0.24837 0.0
O68 O 0.17371 0.14513 0.26794 0.0
C69 C 0.06353 0.44021 0.21996 0.0
C70 C 0.08471 0.51019 0.19226 0.0
C71 C 0.09897 0.61446 0.20067 0.0
C72 C 0.07268 0.64164 0.23522 0.0
C73 C 0.04689 0.5701 0.26292 0.0
C74 C 0.04959 0.47211 0.25575 0.0
C75 C 0.07393 0.34254 0.21116 0.0
C76 C 0.98478 0.24737 0.19461 0.0
C77 C 0.00487 0.17356 0.1734 0.0
C78 C 0.11442 0.19506 0.16852 0.0
C79 C 0.20107 0.2833 0.18879 0.0
C80 C 0.18082 0.35651 0.21004 0.0
C81 C 0.09592 0.47593 0.15447 0.0
C82 C 0.00027 0.40876 0.13344 0.0
C83 C 0.00957 0.37855 0.0975 0.0
C84 C 0.11489 0.41579 0.08191 0.0
C85 C 0.21053 0.48295 0.10327 0.0
C86 C 0.20113 0.51242 0.13928 0.0
C87 C 0.15749 0.70131 0.17542 0.0
C88 C 0.10527 0.70265 0.1443 0.0
C89 C 0.15942 0.79131 0.12289 0.0
C90 C 0.26524 0.88062 0.13289 0.0
C91 C 0.3196 0.87543 0.1629 0.0
C92 C 0.2665 0.7859 0.18376 0.0
C93 C 0.07301 0.74642 0.24197 0.0
C94 C 0.98358 0.75441 0.22991 0.0
C95 C 0.98505 0.85368 0.23476 0.0
C96 C 0.07667 0.94703 0.25149 0.0
C97 C 0.16615 0.9385 0.26354 0.0
C98 C 0.16437 0.8391 0.25876 0.0
C99 C 0.0253 0.60555 0.29918 0.0
C100 C 0.92322 0.60124 0.30564 0.0
C101 C 0.91662 0.67575 0.33115 0.0
C102 C 0.01261 0.75614 0.34987 0.0
C103 C 0.11118 0.75223 0.34606 0.0
C104 C 0.11697 0.67637 0.3213 0.0
C105 C 0.04813 0.40709 0.28506 0.0
C106 C 0.95411 0.30473 0.29025 0.0
C107 C 0.95997 0.2339 0.3128 0.0
C108 C 0.06044 0.26364 0.33025 0.0
C109 C 0.15366 0.36766 0.32571 0.0
C110 C 0.14748 0.43864 0.30329 0.0
C111 C 0.12447 0.3858 0.04344 0.0
C112 C 0.08001 0.05336 0.25587 0.0
H113 H 0.7152 0.81468 0.35437 0.0
H114 H 0.12613 0.2644 0.59741 0.0
H115 H 0.8167 0.95301 0.56378 0.0
H116 H 0.93395 0.91682 0.521 0.0
H117 H 0.07653 0.24369 0.48638 0.0
H118 H 0.96267 0.28039 0.52981 0.0
H119 H 0.66387 0.89899 0.5079 0.0
H120 H 0.67465 0.83215 0.44627 0.0
H121 H 0.78334 0.15287 0.41059 0.0
H122 H 0.77476 0.21948 0.47262 0.0
H123 H 0.46275 0.92516 0.50275 0.0
H124 H 0.34166 0.90117 0.45316 0.0
H125 H 0.47373 0.25125 0.45919 0.0
H126 H 0.5974 0.27422 0.50845 0.0
H127 H 0.37669 0.97013 0.57816 0.0
H128 H 0.20648 0.97869 0.58721 0.0
H129 H 0.40306 0.33247 0.59457 0.0
H130 H 0.57264 0.32259 0.58553 0.0
H131 H 0.5116 0.00084 0.64459 0.0
H132 H 0.39982 0.03188 0.69072 0.0
H133 H 0.62108 0.38131 0.6878 0.0
H134 H 0.73035 0.34907 0.64128 0.0
H135 H 0.78996 0.01245 0.63271 0.0
H136 H 0.94008 0.05962 0.67519 0.0
H137 H 0.0711 0.40351 0.66256 0.0
H138 H 0.92021 0.35479 0.61991 0.0
O139 O 0.71579 0.84401 0.37875 0.0
O140 O 0.73673 0.99884 0.36095 0.0
O141 O 0.09825 0.07902 0.59967 0.0
O142 O 0.19266 0.25922 0.59545 0.0
C143 C 0.77905 0.12205 0.55969 0.0
C144 C 0.70336 0.1012 0.53179 0.0
C145 C 0.6115 0.11469 0.53894 0.0
C146 C 0.58907 0.13961 0.57428 0.0
C147 C 0.6616 0.15525 0.60267 0.0
C148 C 0.75967 0.15118 0.59518 0.0
C149 C 0.8809 0.1191 0.54966 0.0
C150 C 0.87834 0.0189 0.54858 0.0
C151 C 0.94363 0.99764 0.52369 0.0
C152 C 0.01025 0.07612 0.4996 0.0
C153 C 0.02319 0.18093 0.50408 0.0
C154 C 0.96014 0.20286 0.52941 0.0
C155 C 0.71919 0.06414 0.49473 0.0
C156 C 0.69195 0.95519 0.48684 0.0
C157 C 0.69763 0.91711 0.4516 0.0
C158 C 0.72883 0.98693 0.4235 0.0
C159 C 0.75811 0.0968 0.43161 0.0
C160 C 0.75364 0.13512 0.46697 0.0
C161 C 0.53762 0.10109 0.50918 0.0
C162 C 0.46601 0.99654 0.4931 0.0
C163 C 0.39746 0.98337 0.46469 0.0
C164 C 0.39825 0.07453 0.45227 0.0
C165 C 0.47174 0.17968 0.46808 0.0
C166 C 0.5413 0.19282 0.49637 0.0
C167 C 0.48676 0.14572 0.58143 0.0
C168 C 0.38272 0.04933 0.58198 0.0
C169 C 0.28575 0.05449 0.58715 0.0
C170 C 0.29119 0.15634 0.59156 0.0
C171 C 0.39591 0.25278 0.59118 0.0
C172 C 0.49289 0.24744 0.58617 0.0
C173 C 0.6293 0.17277 0.63967 0.0
C174 C 0.539 0.0839 0.65527 0.0
C175 C 0.47407 0.10181 0.6812 0.0
C176 C 0.49957 0.209 0.69211 0.0
C177 C 0.59796 0.29758 0.67952 0.0
C178 C 0.66214 0.27954 0.65339 0.0
C179 C 0.84364 0.18018 0.62359 0.0
C180 C 0.8503 0.0979 0.63951 0.0
C181 C 0.9365 0.12524 0.66368 0.0
C182 C 0.0181 0.23556 0.67222 0.0
C183 C 0.00992 0.3179 0.65656 0.0
C184 C 0.92345 0.29031 0.6324 0.0
C185 C 0.72782 0.94419 0.38583 0.0
C186 C 0.18807 0.16212 0.59592 0.0
H187 H 0.84726 0.87106 0.15935 0.0
H188 H 0.12282 0.03543 0.8763 0.0
H189 H 0.84279 0.0041 0.96891 0.0
H190 H 0.01203 0.11761 0.00505 0.0
H191 H 0.16278 0.94499 0.95104 0.0
H192 H 0.99108 0.82735 0.91686 0.0
H193 H 0.70468 0.86384 0.01349 0.0
H194 H 0.75695 0.89163 0.07694 0.0
H195 H 0.92279 0.70593 0.05541 0.0
H196 H 0.87024 0.67932 0.9918 0.0
H197 H 0.52426 0.65796 0.01053 0.0
H198 H 0.44031 0.53382 0.05815 0.0
H199 H 0.55238 0.32303 0.00702 0.0
H200 H 0.64309 0.4526 0.96043 0.0
H201 H 0.3819 0.56091 0.93856 0.0
H202 H 0.2092 0.38403 0.92898 0.0
H203 H 0.39532 0.24746 0.87487 0.0
H204 H 0.56711 0.42414 0.88501 0.0
H205 H 0.47311 0.71186 0.87379 0.0
H206 H 0.32659 0.59289 0.82989 0.0
H207 H 0.52775 0.45721 0.78872 0.0
H208 H 0.67315 0.57633 0.83255 0.0
H209 H 0.76557 0.97494 0.88462 0.0
H210 H 0.8935 0.1067 0.84298 0.0
H211 H 0.00449 0.88192 0.80595 0.0
H212 H 0.87518 0.75024 0.84756 0.0
O213 O 0.83277 0.86399 0.13382 0.0
O214 O 0.91453 0.76572 0.12161 0.0
O215 O 0.09513 0.18259 0.90519 0.0
O216 O 0.18897 0.10692 0.87979 0.0
C217 C 0.79299 0.81026 0.93294 0.0
C218 C 0.73826 0.74063 0.96085 0.0
C219 C 0.64013 0.63996 0.95345 0.0
C220 C 0.59168 0.61162 0.91899 0.0
C221 C 0.64312 0.68359 0.89129 0.0
C222 C 0.74667 0.78129 0.89785 0.0
C223 C 0.90445 0.90662 0.94078 0.0
C224 C 0.91415 0.99411 0.96381 0.0
C225 C 0.01031 0.05821 0.98459 0.0
C226 C 0.09896 0.03812 0.98129 0.0
C227 C 0.09509 0.96145 0.95429 0.0
C228 C 0.99755 0.89495 0.93441 0.0
C229 C 0.78438 0.77028 -0.00193 0.0
C230 C 0.75429 0.83121 0.02241 0.0
C231 C 0.78358 0.84625 0.05869 0.0
C232 C 0.8429 0.79989 0.07134 0.0
C233 C 0.87643 0.74212 0.04658 0.0
C234 C 0.84718 0.72732 0.01023 0.0
C235 C 0.58864 0.56346 0.98204 0.0
C236 C 0.53211 0.58588 0.00996 0.0
C237 C 0.48402 0.51465 0.03707 0.0
C238 C 0.48835 0.4179 0.0361 0.0
C239 C 0.54796 0.39712 0.00857 0.0
C240 C 0.59832 0.46996 0.98174 0.0
C241 C 0.48653 0.50538 0.91211 0.0
C242 C 0.38487 0.49269 0.92451 0.0
C243 C 0.28652 0.39169 0.919 0.0
C244 C 0.28846 0.30165 0.90106 0.0
C245 C 0.39078 0.31504 0.88871 0.0
C246 C 0.48897 0.41593 0.89432 0.0
C247 C 0.58412 0.65313 0.85628 0.0
C248 C 0.48799 0.66077 0.85394 0.0
C249 C 0.4035 0.59145 0.82919 0.0
C250 C 0.41417 0.5134 0.80658 0.0
C251 C 0.51606 0.51508 0.80626 0.0
C252 C 0.60056 0.58478 0.83082 0.0
C253 C 0.80961 0.85232 0.86861 0.0
C254 C 0.81552 0.9532 0.86686 0.0
C255 C 0.88931 0.02859 0.84324 0.0
C256 C 0.95987 0.00512 0.82134 0.0
C257 C 0.95176 0.90271 0.82258 0.0
C258 C 0.87708 0.82691 0.846 0.0
C259 C 0.86614 0.80891 0.11036 0.0
C260 C 0.18475 0.19376 0.8955 0.0
loop_
_geom_bond_atom_site_label_1
_geom_bond_atom_site_label_2
_geom_bond_distance
_geom_bond_site_symmetry_2
_ccdc_geom_bond_type
C0 O1 1.160 . S
C0 O7 1.185 1_565 S
O1 C0 1.160 . S
O2 Zn3 1.899 . S
O2 C10 1.284 . S
Zn3 O2 1.899 . S
Zn3 O4 2.032 1_545 S
Zn3 O7 2.086 . S
Zn3 O12 1.977 . S
O4 Zn3 2.032 1_565 S
O4 C8 1.278 1_465 S
C5 O6 1.203 . S
C5 O12 1.267 . S
O6 C5 1.203 . S
O7 C0 1.185 1_545 S
O7 Zn3 2.086 . S
C8 O4 1.278 1_645 S
C8 O9 1.211 1_655 S
O9 C8 1.211 1_455 S
C10 O2 1.284 . S
C10 O11 1.273 . S
O11 C10 1.273 . S
O12 Zn3 1.977 . S
O12 C5 1.267 . S
C13 O14 1.160 . S
C13 O20 1.185 . S
O14 C13 1.160 . S
O15 Zn16 1.899 1_565 S
O15 C23 1.284 . S
Zn16 O15 1.899 1_545 S
Zn16 O17 2.032 . S
Zn16 O20 2.086 . S
Zn16 O25 1.977 . S
O17 Zn16 2.032 . S
O17 C21 1.278 . S
C18 O19 1.203 1_545 S
C18 O25 1.267 . S
O19 C18 1.203 1_565 S
O20 C13 1.185 . S
O20 Zn16 2.086 . S
C21 O17 1.278 . S
C21 O22 1.211 . S
O22 C21 1.211 . S
C23 O15 1.284 . S
C23 O24 1.273 . S
O24 C23 1.273 . S
O25 Zn16 1.977 . S
O25 C18 1.267 . S
C26 O27 1.160 . S
C26 O33 1.185 . S
O27 C26 1.160 . S
O28 Zn29 1.899 . S
O28 C36 1.284 . S
Zn29 O28 1.899 . S
Zn29 O30 2.032 . S
Zn29 O33 2.086 . S
Zn29 O38 1.977 . S
O30 Zn29 2.032 . S
O30 C34 1.278 . S
C31 O32 1.203 . S
C31 O38 1.267 . S
O32 C31 1.203 . S
O33 C26 1.185 . S
O33 Zn29 2.086 . S
C34 O30 1.278 . S
C34 O35 1.211 . S
O35 C34 1.211 . S
C36 O28 1.284 . S
C36 O37 1.273 . S
O37 C36 1.273 . S
O38 Zn29 1.977 . S
O38 C31 1.267 . S
H39 O65 0.844 1_556 S
H40 O68 0.854 . S
H41 C76 0.930 1_655 S
H42 C77 0.930 . S
H43 C79 0.930 . S
H44 C80 0.930 . S
H45 C82 0.931 1_655 S
H46 C83 0.920 1_655 S
H47 C85 0.930 . S
H48 C86 0.929 . S
H49 C88 0.930 1_655 S
H50 C89 0.931 . S
H51 C91 0.930 . S
H52 C92 0.929 . S
H53 C94 0.931 1_655 S
H54 C95 0.930 . S
H55 C97 0.930 . S
H56 C98 0.932 . S
H57 C100 0.930 1_655 S
H58 C101 0.929 1_655 S
H59 C103 0.931 . S
H60 C104 0.930 . S
H61 C106 0.929 1_655 S
H62 C107 0.930 1_655 S
H63 C109 0.930 . S
H64 C110 0.929 . S
O65 H39 0.844 1_554 S
O65 C111 1.300 . S
O66 C111 1.209 . S
O67 C112 1.199 . S
O68 H40 0.854 . S
O68 C112 1.297 . S
C69 C70 1.404 . S
C69 C74 1.397 . S
C69 C75 1.492 . S
C70 C69 1.404 . S
C70 C71 1.396 . S
C70 C81 1.492 . S
C71 C70 1.396 . S
C71 C72 1.397 . S
C71 C87 1.509 . S
C72 C71 1.397 . S
C72 C73 1.412 . S
C72 C93 1.485 . S
C73 C72 1.412 . S
C73 C74 1.388 . S
C73 C99 1.490 . S
C74 C69 1.397 . S
C74 C73 1.388 . S
C74 C105 1.519 . S
C75 C69 1.492 . S
C75 C76 1.363 . S
C75 C80 1.390 . S
C76 H41 0.930 1_455 S
C76 C75 1.363 . S
C76 C77 1.372 1_455 S
C77 H42 0.930 . S
C77 C76 1.372 1_655 S
C77 C78 1.383 1_655 S
C78 C77 1.383 1_455 S
C78 C79 1.395 . S
C79 H43 0.930 . S
C79 C78 1.395 . S
C79 C80 1.362 . S
C80 H44 0.930 . S
C80 C75 1.390 . S
C80 C79 1.362 . S
C81 C70 1.492 . S
C81 C82 1.377 . S
C81 C86 1.397 . S
C82 H45 0.931 1_455 S
C82 C81 1.377 . S
C82 C83 1.376 . S
C83 H46 0.920 1_455 S
C83 C82 1.376 . S
C83 C84 1.376 . S
C84 C83 1.376 . S
C84 C85 1.378 . S
C84 C111 1.486 . S
C85 H47 0.930 . S
C85 C84 1.378 . S
C85 C86 1.376 . S
C86 H48 0.929 . S
C86 C81 1.397 . S
C86 C85 1.376 . S
C87 C71 1.509 . S
C87 C88 1.391 . S
C87 C92 1.386 . S
C88 H49 0.930 1_455 S
C88 C87 1.391 . S
C88 C89 1.375 . S
C89 H50 0.931 . S
C89 C88 1.375 . S
C89 C90 1.375 . S
C90 C89 1.375 . S
C90 C91 1.361 . S
C91 H51 0.930 . S
C91 C90 1.361 . S
C91 C92 1.399 . S
C92 H52 0.929 . S
C92 C87 1.386 . S
C92 C91 1.399 . S
C93 C72 1.485 . S
C93 C94 1.394 . S
C93 C98 1.360 . S
C94 H53 0.931 1_455 S
C94 C93 1.394 . S
C94 C95 1.372 . S
C95 H54 0.930 . S
C95 C94 1.372 . S
C95 C96 1.397 1_565 S
C96 C95 1.397 1_545 S
C96 C97 1.390 . S
C96 C112 1.476 . S
C97 H55 0.930 . S
C97 C96 1.390 . S
C97 C98 1.366 1_545 S
C98 H56 0.932 . S
C98 C93 1.360 . S
C98 C97 1.366 1_565 S
C99 C73 1.490 . S
C99 C100 1.380 . S
C99 C104 1.386 . S
C100 H57 0.930 1_455 S
C100 C99 1.380 . S
C100 C101 1.381 . S
C101 H58 0.929 1_455 S
C101 C100 1.381 . S
C101 C102 1.371 . S
C102 C101 1.371 . S
C102 C103 1.380 . S
C103 H59 0.931 . S
C103 C102 1.380 . S
C103 C104 1.387 . S
C104 H60 0.930 . S
C104 C99 1.386 . S
C104 C103 1.387 . S
C105 C74 1.519 . S
C105 C106 1.377 . S
C105 C110 1.361 . S
C106 H61 0.929 1_455 S
C106 C105 1.377 . S
C106 C107 1.386 . S
C107 H62 0.930 1_455 S
C107 C106 1.386 . S
C107 C108 1.363 . S
C108 C107 1.363 . S
C108 C109 1.385 . S
C109 H63 0.930 . S
C109 C108 1.385 . S
C109 C110 1.396 . S
C110 H64 0.929 . S
C110 C105 1.361 . S
C110 C109 1.396 . S
C111 O65 1.300 . S
C111 O66 1.209 . S
C111 C84 1.486 . S
C112 O67 1.199 . S
C112 O68 1.297 . S
C112 C96 1.476 . S
H113 O139 0.856 . S
H114 O142 0.854 . S
H115 C150 0.930 1_565 S
H116 C151 0.930 . S
H117 C153 0.930 . S
H118 C154 0.930 1_455 S
H119 C156 0.931 1_565 S
H120 C157 0.930 1_565 S
H121 C159 0.930 . S
H122 C160 0.929 . S
H123 C162 0.930 1_565 S
H124 C163 0.931 1_565 S
H125 C165 0.930 . S
H126 C166 0.929 . S
H127 C168 0.931 . S
H128 C169 0.930 . S
H129 C171 0.930 . S
H130 C172 0.932 . S
H131 C174 0.930 1_565 S
H132 C175 0.929 1_565 S
H133 C177 0.931 . S
H134 C178 0.930 . S
H135 C180 0.929 1_565 S
H136 C181 0.931 . S
H137 C183 0.930 1_455 S
H138 C184 0.929 . S
O139 H113 0.856 . S
O139 C185 1.300 . S
O140 C185 1.209 . S
O141 C186 1.199 . S
O142 H114 0.854 . S
O142 C186 1.297 . S
C143 C144 1.404 . S
C143 C148 1.397 . S
C143 C149 1.492 . S
C144 C143 1.404 . S
C144 C145 1.396 . S
C144 C155 1.492 . S
C145 C144 1.396 . S
C145 C146 1.397 . S
C145 C161 1.509 . S
C146 C145 1.397 . S
C146 C147 1.412 . S
C146 C167 1.485 . S
C147 C146 1.412 . S
C147 C148 1.388 . S
C147 C173 1.490 . S
C148 C143 1.397 . S
C148 C147 1.388 . S
C148 C179 1.519 . S
C149 C143 1.492 . S
C149 C150 1.363 . S
C149 C154 1.390 . S
C150 H115 0.930 1_545 S
C150 C149 1.363 . S
C150 C151 1.372 1_545 S
C151 H116 0.930 . S
C151 C150 1.372 1_565 S
C151 C152 1.383 1_665 S
C152 C151 1.383 1_445 S
C152 C153 1.395 . S
C153 H117 0.930 . S
C153 C152 1.395 . S
C153 C154 1.362 1_455 S
C154 H118 0.930 1_655 S
C154 C149 1.390 . S
C154 C153 1.362 1_655 S
C155 C144 1.492 . S
C155 C156 1.377 . S
C155 C160 1.397 . S
C156 H119 0.931 1_545 S
C156 C155 1.377 . S
C156 C157 1.376 . S
C157 H120 0.930 1_545 S
C157 C156 1.376 . S
C157 C158 1.376 . S
C158 C157 1.376 . S
C158 C159 1.378 . S
C158 C185 1.486 . S
C159 H121 0.930 . S
C159 C158 1.378 . S
C159 C160 1.376 . S
C160 H122 0.929 . S
C160 C155 1.397 . S
C160 C159 1.376 . S
C161 C145 1.509 . S
C161 C162 1.391 . S
C161 C166 1.386 . S
C162 H123 0.930 1_545 S
C162 C161 1.391 . S
C162 C163 1.375 . S
C163 H124 0.931 1_545 S
C163 C162 1.375 . S
C163 C164 1.375 . S
C164 C163 1.375 . S
C164 C165 1.361 . S
C165 H125 0.930 . S
C165 C164 1.361 . S
C165 C166 1.399 . S
C166 H126 0.929 . S
C166 C161 1.386 . S
C166 C165 1.399 . S
C167 C146 1.485 . S
C167 C168 1.394 . S
C167 C172 1.360 . S
C168 H127 0.931 . S
C168 C167 1.394 . S
C168 C169 1.372 . S
C169 H128 0.930 . S
C169 C168 1.372 . S
C169 C170 1.397 . S
C170 C169 1.397 . S
C170 C171 1.390 . S
C170 C186 1.476 . S
C171 H129 0.930 . S
C171 C170 1.390 . S
C171 C172 1.366 . S
C172 H130 0.932 . S
C172 C167 1.360 . S
C172 C171 1.366 . S
C173 C147 1.490 . S
C173 C174 1.380 . S
C173 C178 1.386 . S
C174 H131 0.930 1_545 S
C174 C173 1.380 . S
C174 C175 1.381 . S
C175 H132 0.929 1_545 S
C175 C174 1.381 . S
C175 C176 1.371 . S
C176 C175 1.371 . S
C176 C177 1.380 . S
C177 H133 0.931 . S
C177 C176 1.380 . S
C177 C178 1.387 . S
C178 H134 0.930 . S
C178 C173 1.386 . S
C178 C177 1.387 . S
C179 C148 1.519 . S
C179 C180 1.377 . S
C179 C184 1.361 . S
C180 H135 0.929 1_545 S
C180 C179 1.377 . S
C180 C181 1.386 . S
C181 H136 0.931 . S
C181 C180 1.386 . S
C181 C182 1.363 1_655 S
C182 C181 1.363 1_455 S
C182 C183 1.385 1_455 S
C183 H137 0.930 1_655 S
C183 C182 1.385 1_655 S
C183 C184 1.396 . S
C184 H138 0.929 . S
C184 C179 1.361 . S
C184 C183 1.396 . S
C185 O139 1.300 . S
C185 O140 1.209 . S
C185 C158 1.486 . S
C186 O141 1.199 . S
C186 O142 1.297 . S
C186 C170 1.476 . S
H187 O213 0.856 . S
H188 O216 0.854 1_565 S
H189 C224 0.930 . S
H190 C225 0.930 . S
H191 C227 0.930 . S
H192 C228 0.930 . S
H193 C230 0.931 . S
H194 C231 0.930 . S
H195 C233 0.930 . S
H196 C234 0.929 . S
H197 C236 0.930 . S
H198 C237 0.931 . S
H199 C239 0.930 . S
H200 C240 0.929 1_556 S
H201 C242 0.931 . S
H202 C243 0.930 . S
H203 C245 0.930 . S
H204 C246 0.932 . S
H205 C248 0.930 . S
H206 C249 0.929 . S
H207 C251 0.931 . S
H208 C252 0.930 . S
H209 C254 0.929 . S
H210 C255 0.931 . S
H211 C257 0.930 . S
H212 C258 0.929 . S
O213 H187 0.856 . S
O213 C259 1.300 . S
O214 C259 1.209 . S
O215 C260 1.199 . S
O216 H188 0.854 1_545 S
O216 C260 1.297 . S
C217 C218 1.404 . S
C217 C222 1.397 . S
C217 C223 1.492 . S
C218 C217 1.404 . S
C218 C219 1.396 . S
C218 C229 1.492 1_556 S
C219 C218 1.396 . S
C219 C220 1.397 . S
C219 C235 1.509 . S
C220 C219 1.397 . S
C220 C221 1.412 . S
C220 C241 1.485 . S
C221 C220 1.412 . S
C221 C222 1.388 . S
C221 C247 1.490 . S
C222 C217 1.397 . S
C222 C221 1.388 . S
C222 C253 1.519 . S
C223 C217 1.492 . S
C223 C224 1.363 . S
C223 C228 1.390 . S
C224 H189 0.930 . S
C224 C223 1.363 . S
C224 C225 1.372 1_565 S
C225 H190 0.930 . S
C225 C224 1.372 1_545 S
C225 C226 1.383 . S
C226 C225 1.383 . S
C226 C227 1.395 1_645 S
C227 H191 0.930 . S
C227 C226 1.395 1_465 S
C227 C228 1.362 1_455 S
C228 H192 0.930 . S
C228 C223 1.390 . S
C228 C227 1.362 1_655 S
C229 C218 1.492 1_554 S
C229 C230 1.377 . S
C229 C234 1.397 . S
C230 H193 0.931 . S
C230 C229 1.377 . S
C230 C231 1.376 . S
C231 H194 0.930 . S
C231 C230 1.376 . S
C231 C232 1.376 . S
C232 C231 1.376 . S
C232 C233 1.378 . S
C232 C259 1.486 . S
C233 H195 0.930 . S
C233 C232 1.378 . S
C233 C234 1.376 . S
C234 H196 0.929 . S
C234 C229 1.397 . S
C234 C233 1.376 . S
C235 C219 1.509 . S
C235 C236 1.391 . S
C235 C240 1.386 1_556 S
C236 H197 0.930 . S
C236 C235 1.391 . S
C236 C237 1.375 1_556 S
C237 H198 0.931 . S
C237 C236 1.375 1_554 S
C237 C238 1.375 . S
C238 C237 1.375 . S
C238 C239 1.361 . S
C239 H199 0.930 . S
C239 C238 1.361 . S
C239 C240 1.399 . S
C240 H200 0.929 1_554 S
C240 C235 1.386 1_554 S
C240 C239 1.399 . S
C241 C220 1.485 . S
C241 C242 1.394 . S
C241 C246 1.360 . S
C242 H201 0.931 . S
C242 C241 1.394 . S
C242 C243 1.372 . S
C243 H202 0.930 . S
C243 C242 1.372 . S
C243 C244 1.397 . S
C244 C243 1.397 . S
C244 C245 1.390 . S
C244 C260 1.476 . S
C245 H203 0.930 . S
C245 C244 1.390 . S
C245 C246 1.366 . S
C246 H204 0.932 . S
C246 C241 1.360 . S
C246 C245 1.366 . S
C247 C221 1.490 . S
C247 C248 1.380 . S
C247 C252 1.386 . S
C248 H205 0.930 . S
C248 C247 1.380 . S
C248 C249 1.381 . S
C249 H206 0.929 . S
C249 C248 1.381 . S
C249 C250 1.371 . S
C250 C249 1.371 . S
C250 C251 1.380 . S
C251 H207 0.931 . S
C251 C250 1.380 . S
C251 C252 1.387 . S
C252 H208 0.930 . S
C252 C247 1.386 . S
C252 C251 1.387 . S
C253 C222 1.519 . S
C253 C254 1.377 . S
C253 C258 1.361 . S
C254 H209 0.929 . S
C254 C253 1.377 . S
C254 C255 1.386 . S
C255 H210 0.931 . S
C255 C254 1.386 . S
C255 C256 1.363 . S
C256 C255 1.363 . S
C256 C257 1.385 . S
C257 H211 0.930 . S
C257 C256 1.385 . S
C257 C258 1.396 . S
C258 H212 0.929 . S
C258 C253 1.361 . S
C258 C257 1.396 . S
C259 O213 1.300 . S
C259 O214 1.209 . S
C259 C232 1.486 . S
C260 O215 1.199 . S
C260 O216 1.297 . S
C260 C244 1.476 . S
C78 C10 2.255 . S
C21 C152 2.014 . S
C31 C256 2.316 1_445 S
C0 C90 0.626 . S
C164 C18 0.840 . S
C34 C250 2.645 . S
C182 C36 2.442 . S
C8 C226 1.948 1_554 S
C102 C23 2.367 . S
C176 C26 2.411 . S
C238 C5 0.500 . S
C13 C108 2.364 . S
