# Generated by pormake.
# Topology anh, (6,3)-cn, num edge types: 1
# Building blocks:
#     Node 0, Type 0, BuildingBlock: INOVEN_clean_sbu_0, # of connection points: 6
#     Node 1, Type 0, BuildingBlock: INOVEN_clean_sbu_0, # of connection points: 6
#     Node 2, Type 0, BuildingBlock: INOVEN_clean_sbu_0, # of connection points: 6
#     Node 3, Type 1, BuildingBlock: CUQRIR_clean_linker_1, # of connection points: 3
#     Node 4, Type 1, BuildingBlock: CUQRIR_clean_linker_1, # of connection points: 3
#     Node 5, Type 1, BuildingBlock: CUQRIR_clean_linker_1, # of connection points: 3
#     Node 6, Type 1, BuildingBlock: CUQRIR_clean_linker_1, # of connection points: 3
#     Node 7, Type 1, BuildingBlock: CUQRIR_clean_linker_1, # of connection points: 3
#     Node 8, Type 1, BuildingBlock: CUQRIR_clean_linker_1, # of connection points: 3
#     Edge 9, Type (0, 1), None
#     Edge 10, Type (0, 1), None
#     Edge 11, Type (0, 1), None
#     Edge 12, Type (0, 1), None
#     Edge 13, Type (0, 1), None
#     Edge 14, Type (0, 1), None
#     Edge 15, Type (0, 1), None
#     Edge 16, Type (0, 1), None
#     Edge 17, Type (0, 1), None
#     Edge 18, Type (0, 1), None
#     Edge 19, Type (0, 1), None
#     Edge 20, Type (0, 1), None
#     Edge 21, Type (0, 1), None
#     Edge 22, Type (0, 1), None
#     Edge 23, Type (0, 1), None
#     Edge 24, Type (0, 1), None
#     Edge 25, Type (0, 1), None
#     Edge 26, Type (0, 1), None
# Relax obj value: 0.514
# Max RMSD: 0.333
# Mean RMSD: 0.211
data_MOF--net-anh--node1-INOVEN_clean_sbu_0--node2-CUQRIR_clean_linker_1--edge1-none
_symmetry_space_group_name_H-M    P1
_symmetry_Int_Tables_number       1
_symmetry_cell_setting            triclinic
loop_
_symmetry_equiv_pos_as_xyz
'x, y, z'
_cell_length_a     11.958204
_cell_length_b     17.072546
_cell_length_c     19.236278
_cell_angle_alpha  84.214622
_cell_angle_beta   94.499072
_cell_angle_gamma 141.30282
loop_
_atom_site_label
_atom_site_type_symbol
_atom_site_fract_x
_atom_site_fract_y
_atom_site_fract_z
_atom_type_partial_charge
Gd0 Gd 0.57719 0.67335 0.20271 0.0
Gd1 Gd 0.33499 0.62504 0.16396 0.0
C2 C 0.70537 0.92116 0.16713 0.0
C3 C 0.85847 0.75808 0.25962 0.0
C4 C 0.86466 0.69917 0.31877 0.0
C5 C 0.69396 0.57831 0.33865 0.0
C6 C 0.99381 0.71098 0.31409 0.0
C7 C 0.75527 0.50513 0.27049 0.0
C8 C 0.93589 0.60845 0.2901 0.0
C9 C 0.63346 0.47831 0.31024 0.0
C10 C 0.38444 0.61283 0.31558 0.0
C11 C 1.2152 0.37944 0.19681 0.0
C12 C 1.02393 0.50766 0.1336 0.0
C13 C 0.86514 0.38862 0.10226 0.0
C14 C 0.82484 0.38794 0.03167 0.0
C15 C 0.72123 0.2819 0.14569 0.0
C16 C 0.53939 0.26975 0.07225 0.0
C17 C 0.54754 0.20755 0.12252 0.0
C18 C 0.64609 0.31027 0.01597 0.0
C19 C 0.54957 0.70476 0.03222 0.0
O20 O 0.75544 0.87595 0.15903 0.0
O21 O 0.53043 0.83441 0.17635 0.0
O22 O 0.78128 0.69575 0.20295 0.0
O23 O 0.80215 0.79533 0.27497 0.0
O24 O 0.40822 0.55432 0.30195 0.0
O25 O 0.44846 0.69235 0.26591 0.0
O26 O 1.16897 0.42689 0.20542 0.0
O27 O 0.389 0.46346 0.1882 0.0
O28 O 1.16205 0.60271 0.09403 0.0
O29 O 1.06524 0.49746 0.19559 0.0
O30 O 0.47291 0.62985 0.08862 0.0
O31 O 0.47228 0.63124 0.08895 0.0
H32 H 0.59931 0.5644 0.36101 0.0
H33 H 1.13423 0.80306 0.30954 0.0
H34 H 1.03384 0.62461 0.26843 0.0
H35 H 0.49168 0.39098 0.30966 0.0
H36 H 0.92698 0.44568 -0.00805 0.0
H37 H 0.7418 0.2655 0.19828 0.0
H38 H 0.43531 0.12863 0.15588 0.0
H39 H 0.58618 0.26308 0.96818 0.0
Gd40 Gd 1.10405 0.2019 0.4655 0.0
Gd41 Gd 0.84984 0.16761 0.46674 0.0
C42 C 0.68727 0.91314 0.46251 0.0
C43 C 1.2921 0.18071 0.49058 0.0
C44 C 1.22668 1.07375 0.53023 0.0
C45 C 1.23073 1.00555 0.49933 0.0
C46 C 1.13251 1.02671 0.59319 0.0
C47 C 1.03131 0.83837 0.58913 0.0
C48 C 1.03438 0.90876 0.62208 0.0
C49 C 1.14051 0.89121 0.53041 0.0
C50 C 1.01671 0.21528 0.33201 0.0
C51 C 1.2667 0.4606 0.45596 0.0
C52 C 0.65075 0.18143 0.45404 0.0
C53 C 0.68194 0.27291 0.48376 0.0
C54 C 0.6268 0.25088 0.55239 0.0
C55 C 0.79099 0.39067 0.44851 0.0
C56 C 0.79929 0.46381 0.55217 0.0
C57 C 0.85184 0.48634 0.48315 0.0
C58 C 0.68261 0.34529 0.58568 0.0
C59 C 0.92681 0.14532 0.60187 0.0
O60 O 0.84614 0.98169 0.49141 0.0
O61 O 0.67132 0.97664 0.43333 0.0
O62 O 1.21196 0.15389 0.43077 0.0
O63 O 0.3109 0.25158 0.52606 0.0
O64 O 1.17934 0.29639 0.35516 0.0
O65 O 0.91128 0.13351 0.38032 0.0
O66 O 1.09585 0.382 0.44152 0.0
O67 O 0.31126 0.41162 0.47494 0.0
O68 O 0.61729 0.1025 0.49909 0.0
O69 O 0.76402 0.22722 0.40593 0.0
O70 O 0.77089 1.06402 0.57269 0.0
O71 O 1.03559 0.23163 0.55483 0.0
H72 H 1.29827 1.03864 0.45 0.0
H73 H 1.12487 1.07688 0.61765 0.0
H74 H 0.95314 0.86899 0.66753 0.0
H75 H 1.14822 0.84086 0.50636 0.0
H76 H 0.54412 0.16158 0.58094 0.0
H77 H 0.83683 0.41092 0.39568 0.0
H78 H 0.94325 0.57848 0.4569 0.0
H79 H 0.63796 0.3277 0.63794 0.0
Gd80 Gd 0.87711 0.65916 0.88439 0.0
Gd81 Gd 0.77562 0.5661 0.85858 0.0
C82 C 0.57433 0.62388 0.91756 0.0
C83 C 1.0543 0.89044 0.87447 0.0
C84 C 1.01161 0.94421 0.83309 0.0
C85 C 1.11925 1.06959 0.83806 0.0
C86 C 0.86602 0.87231 0.78635 0.0
C87 C 0.9367 1.04809 0.75044 0.0
C88 C 0.82879 0.92306 0.74587 0.0
C89 C 1.08298 0.12122 0.79702 0.0
C90 C 0.77918 0.54553 0.01556 0.0
C91 C 1.12125 0.61539 0.86724 0.0
C92 C 0.56394 0.33917 0.82034 0.0
C93 C 0.60413 0.27916 0.80685 0.0
C94 C 0.50942 0.19038 0.75637 0.0
C95 C 0.74733 0.31718 0.84146 0.0
C96 C 0.72416 0.19988 0.76655 0.0
C97 C 0.80717 0.27817 0.82159 0.0
C98 C 0.56971 0.15109 0.73617 0.0
C99 C 0.94215 0.69383 0.73481 0.0
O100 O 0.61198 0.59635 0.86722 0.0
O101 O 0.60633 0.59497 0.86527 0.0
O102 O 0.95147 0.81054 0.92663 0.0
O103 O 1.09142 0.85284 0.83863 0.0
O104 O 0.94105 0.65505 -0.00268 0.0
O105 O 0.67445 0.50005 0.965 0.0
O106 O 1.04594 0.6349 0.89885 0.0
O107 O 1.05501 0.638 0.90332 0.0
O108 O 0.62925 0.43007 0.77711 0.0
O109 O 0.58783 0.36892 0.88334 0.0
O110 O 0.80232 0.65611 0.75295 0.0
O111 O 0.98992 0.6755 0.7869 0.0
H112 H 1.22883 0.12656 0.8749 0.0
H113 H 0.77963 0.7765 0.77996 0.0
H114 H 0.71149 0.86326 0.71267 0.0
H115 H 1.16346 0.21653 0.80416 0.0
H116 H 0.3951 0.15654 0.73018 0.0
H117 H 0.81662 0.38039 0.88249 0.0
H118 H 0.92211 0.31255 0.84733 0.0
H119 H 0.49959 1.08566 0.69564 0.0
C120 C 1.00687 0.15872 0.16689 0.0
N121 N 1.09147 0.2511 0.21264 0.0
N122 N 0.82964 1.04585 0.18494 0.0
C123 C 1.08824 0.18233 0.1 0.0
C124 C 0.81236 1.0776 0.24117 0.0
N125 N 0.97143 0.19182 0.26266 0.0
C126 C 0.63839 0.99709 0.27552 0.0
H127 H 1.01776 0.17658 0.05536 0.0
H128 H 1.06952 0.10837 0.09537 0.0
H129 H 1.23277 0.2761 0.09727 0.0
H130 H 0.60127 0.92046 0.3042 0.0
H131 H 0.53423 0.95781 0.23598 0.0
H132 H 0.64895 1.04983 0.31116 0.0
C133 C 0.83847 0.62577 0.56836 0.0
N134 N 0.91708 0.71231 0.61433 0.0
N135 N 0.85921 0.5603 0.58817 0.0
C136 C 0.76232 0.61672 0.49965 0.0
C137 C 0.94406 0.60435 0.65005 0.0
N138 N 0.96923 0.69177 0.66825 0.0
C139 C 1.02193 0.57377 0.68791 0.0
H140 H 0.73818 0.66742 0.49766 0.0
H141 H 0.63766 0.51693 0.4885 0.0
H142 H 0.86203 0.66207 0.45908 0.0
H143 H 1.13662 0.65095 0.72078 0.0
H144 H 1.07013 0.56054 0.64966 0.0
H145 H 0.91778 0.48587 0.721 0.0
C146 C 0.33202 0.60379 0.87065 0.0
N147 N 0.45587 0.62851 0.91612 0.0
N148 N 1.2561 0.63152 0.89633 0.0
C149 C 1.28806 0.55487 0.80031 0.0
C150 C 0.35099 0.68178 0.95732 0.0
N151 N 0.45307 0.67008 0.97126 0.0
C152 C 0.39645 0.7816 -0.0109 0.0
H153 H 0.40717 0.6291 0.76601 0.0
H154 H 1.17432 0.52686 0.77606 0.0
H155 H 1.25617 0.47362 0.80518 0.0
H156 H 1.27724 0.7525 -0.00254 0.0
H157 H 0.48331 0.86563 0.9523 0.0
H158 H 0.47084 0.81071 0.0388 0.0
C159 C 0.51636 0.68942 0.47855 0.0
N160 N 0.39436 0.58779 0.43733 0.0
N161 N 0.55405 0.78585 0.45093 0.0
C162 C 0.55848 0.68337 0.55287 0.0
C163 C 0.4371 0.73207 0.39672 0.0
N164 N 0.36876 0.62549 0.38206 0.0
C165 C 0.32037 0.74035 0.38311 0.0
H166 H 0.49182 0.68566 0.58801 0.0
H167 H 0.70422 0.76741 0.56171 0.0
H168 H 0.51223 0.59673 0.56643 0.0
H169 H 1.18257 0.64895 0.40031 0.0
H170 H 0.31036 0.75238 0.32629 0.0
H171 H 0.36184 0.81347 0.41115 0.0
C172 C 0.78859 0.09176 0.76576 0.0
N173 N 0.87173 0.0896 0.72372 0.0
N174 N 0.80158 0.17455 0.73953 0.0
C175 C 0.69995 1.01596 0.83399 0.0
C176 C 0.90023 0.22578 0.68094 0.0
N177 N 0.93913 0.17167 0.66896 0.0
C178 C 0.96073 0.33028 0.63492 0.0
H179 H 0.59298 0.99905 0.84615 0.0
H180 H 0.80132 1.06883 0.87628 0.0
H181 H 0.64232 0.92473 0.83255 0.0
H182 H 1.10905 0.41184 0.63238 0.0
H183 H 0.91359 0.3591 0.65513 0.0
H184 H 0.91098 0.3008 0.581 0.0
C185 C 0.56395 0.36386 0.17069 0.0
N186 N 0.58052 0.36761 0.10064 0.0
N187 N 0.7144 0.47561 0.1979 0.0
C188 C 0.40049 0.24771 0.21254 0.0
C189 C 0.81314 0.55427 0.14015 0.0
N190 N 0.72767 0.49023 0.08194 0.0
C191 C 0.98944 0.69581 0.13686 0.0
H192 H 1.30087 0.16458 0.18085 0.0
H193 H 0.33077 0.26141 0.22942 0.0
H194 H 0.43911 0.22935 0.25954 0.0
H195 H 1.04109 0.74416 0.18479 0.0
H196 H 0.97555 0.7427 0.10064 0.0
H197 H 1.09525 0.71721 0.11573 0.0
loop_
_geom_bond_atom_site_label_1
_geom_bond_atom_site_label_2
_geom_bond_distance
_geom_bond_site_symmetry_2
_ccdc_geom_bond_type
Gd0 C3 2.818 . S
Gd0 O20 2.377 . S
Gd0 O22 2.448 . S
Gd0 O23 2.506 . S
Gd0 O24 2.435 . S
Gd0 O25 2.717 1_455 S
Gd0 O27 2.395 1_455 S
Gd0 O31 2.327 . S
Gd1 C12 2.818 . S
Gd1 O21 2.395 1_655 S
Gd1 O25 2.327 . S
Gd1 O26 2.377 . S
Gd1 O28 2.448 . S
Gd1 O29 2.506 . S
Gd1 O30 2.435 . S
Gd1 O31 2.717 1_655 S
C2 O20 1.240 . S
C2 O21 1.240 . S
C3 Gd0 2.818 . S
C3 C4 1.510 . S
C3 O22 1.249 . S
C3 O23 1.252 . S
C4 C3 1.510 . S
C4 C5 1.404 . S
C4 C6 1.352 . S
C5 C4 1.404 . S
C5 C9 1.389 . S
C5 H32 0.930 . S
C6 C4 1.352 . S
C6 C8 1.374 . S
C6 H33 0.931 . S
C7 C8 1.359 . S
C7 C9 1.364 . S
C8 C6 1.374 . S
C8 C7 1.359 . S
C8 H34 0.931 . S
C9 C5 1.389 . S
C9 C7 1.364 . S
C9 H35 0.931 . S
C10 O24 1.256 1_655 S
C10 O25 1.257 . S
C11 O26 1.240 . S
C11 O27 1.240 . S
C12 Gd1 2.818 . S
C12 C13 1.510 . S
C12 O28 1.249 . S
C12 O29 1.252 . S
C13 C12 1.510 . S
C13 C14 1.404 . S
C13 C15 1.352 . S
C14 C13 1.404 . S
C14 C18 1.389 . S
C14 H36 0.930 . S
C15 C13 1.352 . S
C15 C17 1.374 . S
C15 H37 0.931 . S
C16 C17 1.359 . S
C16 C18 1.364 . S
C17 C15 1.374 . S
C17 C16 1.359 . S
C17 H38 0.931 . S
C18 C14 1.389 . S
C18 C16 1.364 . S
C18 H39 0.931 . S
C19 O30 1.256 1_455 S
C19 O31 1.257 . S
O20 Gd0 2.377 . S
O20 C2 1.240 . S
O21 Gd1 2.395 1_455 S
O21 C2 1.240 . S
O22 Gd0 2.448 . S
O22 C3 1.249 . S
O23 Gd0 2.506 . S
O23 C3 1.252 . S
O24 Gd0 2.435 . S
O24 C10 1.256 1_455 S
O25 Gd0 2.717 1_655 S
O25 Gd1 2.327 . S
O25 C10 1.257 . S
O26 Gd1 2.377 . S
O26 C11 1.240 . S
O27 Gd0 2.395 1_655 S
O27 C11 1.240 . S
O28 Gd1 2.448 . S
O28 C12 1.249 . S
O29 Gd1 2.506 . S
O29 C12 1.252 . S
O30 Gd1 2.435 . S
O30 C19 1.256 1_655 S
O31 Gd0 2.327 . S
O31 Gd1 2.717 1_455 S
O31 C19 1.257 . S
H32 C5 0.930 . S
H33 C6 0.931 . S
H34 C8 0.931 . S
H35 C9 0.931 . S
H36 C14 0.930 . S
H37 C15 0.931 . S
H38 C17 0.931 . S
H39 C18 0.931 . S
Gd40 C43 2.818 1_545 S
Gd40 O60 2.377 1_545 S
Gd40 O62 2.448 1_545 S
Gd40 O63 2.506 1_545 S
Gd40 O64 2.435 . S
Gd40 O65 2.717 . S
Gd40 O67 2.395 . S
Gd40 O71 2.327 . S
Gd41 C52 2.818 . S
Gd41 O61 2.395 1_545 S
Gd41 O65 2.327 . S
Gd41 O66 2.377 . S
Gd41 O68 2.448 . S
Gd41 O69 2.506 . S
Gd41 O70 2.435 . S
Gd41 O71 2.717 . S
C42 O60 1.240 . S
C42 O61 1.240 . S
C43 Gd40 2.818 1_565 S
C43 C44 1.510 . S
C43 O62 1.249 . S
C43 O63 1.252 . S
C44 C43 1.510 . S
C44 C45 1.404 . S
C44 C46 1.352 . S
C45 C44 1.404 . S
C45 C49 1.389 . S
C45 H72 0.930 . S
C46 C44 1.352 . S
C46 C48 1.374 . S
C46 H73 0.931 . S
C47 C48 1.359 . S
C47 C49 1.364 . S
C48 C46 1.374 . S
C48 C47 1.359 . S
C48 H74 0.931 . S
C49 C45 1.389 . S
C49 C47 1.364 . S
C49 H75 0.931 . S
C50 O64 1.256 . S
C50 O65 1.257 . S
C51 O66 1.240 . S
C51 O67 1.240 . S
C52 Gd41 2.818 . S
C52 C53 1.510 . S
C52 O68 1.249 . S
C52 O69 1.252 . S
C53 C52 1.510 . S
C53 C54 1.404 . S
C53 C55 1.352 . S
C54 C53 1.404 . S
C54 C58 1.389 . S
C54 H76 0.930 . S
C55 C53 1.352 . S
C55 C57 1.374 . S
C55 H77 0.931 . S
C56 C57 1.359 . S
C56 C58 1.364 . S
C57 C55 1.374 . S
C57 C56 1.359 . S
C57 H78 0.931 . S
C58 C54 1.389 . S
C58 C56 1.364 . S
C58 H79 0.931 . S
C59 O70 1.256 . S
C59 O71 1.257 . S
O60 Gd40 2.377 1_565 S
O60 C42 1.240 . S
O61 Gd41 2.395 1_565 S
O61 C42 1.240 . S
O62 Gd40 2.448 1_565 S
O62 C43 1.249 . S
O63 Gd40 2.506 1_565 S
O63 C43 1.252 . S
O64 Gd40 2.435 . S
O64 C50 1.256 . S
O65 Gd40 2.717 . S
O65 Gd41 2.327 . S
O65 C50 1.257 . S
O66 Gd41 2.377 . S
O66 C51 1.240 . S
O67 Gd40 2.395 . S
O67 C51 1.240 . S
O68 Gd41 2.448 . S
O68 C52 1.249 . S
O69 Gd41 2.506 . S
O69 C52 1.252 . S
O70 Gd41 2.435 . S
O70 C59 1.256 . S
O71 Gd40 2.327 . S
O71 Gd41 2.717 . S
O71 C59 1.257 . S
H72 C45 0.930 . S
H73 C46 0.931 . S
H74 C48 0.931 . S
H75 C49 0.931 . S
H76 C54 0.930 . S
H77 C55 0.931 . S
H78 C57 0.931 . S
H79 C58 0.931 . S
Gd80 C83 2.818 . S
Gd80 O100 2.377 . S
Gd80 O102 2.448 . S
Gd80 O103 2.506 . S
Gd80 O104 2.435 1_556 S
Gd80 O105 2.717 . S
Gd80 O107 2.395 . S
Gd80 O111 2.327 . S
Gd81 C92 2.818 . S
Gd81 O101 2.395 . S
Gd81 O105 2.327 . S
Gd81 O106 2.377 . S
Gd81 O108 2.448 . S
Gd81 O109 2.506 . S
Gd81 O110 2.435 . S
Gd81 O111 2.717 . S
C82 O100 1.240 . S
C82 O101 1.240 . S
C83 Gd80 2.818 . S
C83 C84 1.510 . S
C83 O102 1.249 . S
C83 O103 1.252 . S
C84 C83 1.510 . S
C84 C85 1.404 1_565 S
C84 C86 1.352 . S
C85 C84 1.404 1_545 S
C85 C89 1.389 . S
C85 H112 0.930 1_556 S
C86 C84 1.352 . S
C86 C88 1.374 1_565 S
C86 H113 0.931 . S
C87 C88 1.359 . S
C87 C89 1.364 . S
C88 C86 1.374 1_545 S
C88 C87 1.359 . S
C88 H114 0.931 . S
C89 C85 1.389 . S
C89 C87 1.364 . S
C89 H115 0.931 1_556 S
C90 O104 1.256 . S
C90 O105 1.257 1_554 S
C91 O106 1.240 . S
C91 O107 1.240 . S
C92 Gd81 2.818 . S
C92 C93 1.510 . S
C92 O108 1.249 . S
C92 O109 1.252 . S
C93 C92 1.510 . S
C93 C94 1.404 . S
C93 C95 1.352 . S
C94 C93 1.404 . S
C94 C98 1.389 . S
C94 H116 0.930 . S
C95 C93 1.352 . S
C95 C97 1.374 . S
C95 H117 0.931 . S
C96 C97 1.359 . S
C96 C98 1.364 . S
C97 C95 1.374 . S
C97 C96 1.359 . S
C97 H118 0.931 . S
C98 C94 1.389 . S
C98 C96 1.364 . S
C98 H119 0.931 . S
C99 O110 1.256 . S
C99 O111 1.257 . S
O100 Gd80 2.377 . S
O100 C82 1.240 . S
O101 Gd81 2.395 . S
O101 C82 1.240 . S
O102 Gd80 2.448 . S
O102 C83 1.249 . S
O103 Gd80 2.506 . S
O103 C83 1.252 . S
O104 Gd80 2.435 1_554 S
O104 C90 1.256 . S
O105 Gd80 2.717 . S
O105 Gd81 2.327 . S
O105 C90 1.257 1_556 S
O106 Gd81 2.377 . S
O106 C91 1.240 . S
O107 Gd80 2.395 . S
O107 C91 1.240 . S
O108 Gd81 2.448 . S
O108 C92 1.249 . S
O109 Gd81 2.506 . S
O109 C92 1.252 . S
O110 Gd81 2.435 . S
O110 C99 1.256 . S
O111 Gd80 2.327 . S
O111 Gd81 2.717 . S
O111 C99 1.257 . S
H112 C85 0.930 1_554 S
H113 C86 0.931 . S
H114 C88 0.931 . S
H115 C89 0.931 1_554 S
H116 C94 0.930 . S
H117 C95 0.931 . S
H118 C97 0.931 . S
H119 C98 0.931 . S
C120 N121 1.317 1_565 S
C120 N122 1.348 . S
C120 C123 1.485 1_565 S
N121 C120 1.317 1_545 S
N121 N125 1.370 . S
N122 C120 1.348 . S
N122 C124 1.346 . S
C123 C120 1.485 1_545 S
C123 H127 0.960 . S
C123 H128 0.961 1_545 S
C123 H129 0.960 . S
C124 N122 1.346 . S
C124 N125 1.307 1_565 S
C124 C126 1.486 . S
N125 N121 1.370 . S
N125 C124 1.307 1_545 S
C126 C124 1.486 . S
C126 H130 0.960 . S
C126 H131 0.960 . S
C126 H132 0.959 . S
H127 C123 0.960 . S
H128 C123 0.961 1_565 S
H129 C123 0.960 . S
H130 C126 0.960 . S
H131 C126 0.960 . S
H132 C126 0.959 . S
C133 N134 1.317 . S
C133 N135 1.348 . S
C133 C136 1.485 . S
N134 C133 1.317 . S
N134 N138 1.370 . S
N135 C133 1.348 . S
N135 C137 1.346 . S
C136 C133 1.485 . S
C136 H140 0.960 . S
C136 H141 0.961 . S
C136 H142 0.960 . S
C137 N135 1.346 . S
C137 N138 1.307 . S
C137 C139 1.486 . S
N138 N134 1.370 . S
N138 C137 1.307 . S
C139 C137 1.486 . S
C139 H143 0.960 . S
C139 H144 0.960 . S
C139 H145 0.959 . S
H140 C136 0.960 . S
H141 C136 0.961 . S
H142 C136 0.960 . S
H143 C139 0.960 . S
H144 C139 0.960 . S
H145 C139 0.959 . S
C146 N147 1.317 . S
C146 N148 1.348 . S
C146 C149 1.485 . S
N147 C146 1.317 . S
N147 N151 1.370 . S
N148 C146 1.348 . S
N148 C150 1.346 . S
C149 C146 1.485 . S
C149 H153 0.960 . S
C149 H154 0.961 . S
C149 H155 0.960 . S
C150 N148 1.346 . S
C150 N151 1.307 . S
C150 C152 1.486 1_456 S
N151 N147 1.370 . S
N151 C150 1.307 . S
C152 C150 1.486 1_654 S
C152 H156 0.960 . S
C152 H157 0.960 . S
C152 H158 0.959 . S
H153 C149 0.960 . S
H154 C149 0.961 . S
H155 C149 0.960 . S
H156 C152 0.960 . S
H157 C152 0.960 . S
H158 C152 0.959 . S
C159 N160 1.317 1_455 S
C159 N161 1.348 . S
C159 C162 1.485 . S
N160 C159 1.317 1_655 S
N160 N164 1.370 1_655 S
N161 C159 1.348 . S
N161 C163 1.346 . S
C162 C159 1.485 . S
C162 H166 0.960 . S
C162 H167 0.961 . S
C162 H168 0.960 . S
C163 N161 1.346 . S
C163 N164 1.307 . S
C163 C165 1.486 . S
N164 N160 1.370 1_455 S
N164 C163 1.307 . S
C165 C163 1.486 . S
C165 H169 0.960 . S
C165 H170 0.960 . S
C165 H171 0.959 . S
H166 C162 0.960 . S
H167 C162 0.961 . S
H168 C162 0.960 . S
H169 C165 0.960 . S
H170 C165 0.960 . S
H171 C165 0.959 . S
C172 N173 1.317 1_545 S
C172 N174 1.348 . S
C172 C175 1.485 . S
N173 C172 1.317 1_565 S
N173 N177 1.370 1_565 S
N174 C172 1.348 . S
N174 C176 1.346 . S
C175 C172 1.485 . S
C175 H179 0.960 1_545 S
C175 H180 0.961 . S
C175 H181 0.960 . S
C176 N174 1.346 . S
C176 N177 1.307 . S
C176 C178 1.486 . S
N177 N173 1.370 1_545 S
N177 C176 1.307 . S
C178 C176 1.486 . S
C178 H182 0.960 . S
C178 H183 0.960 . S
C178 H184 0.959 . S
H179 C175 0.960 1_565 S
H180 C175 0.961 . S
H181 C175 0.960 . S
H182 C178 0.960 . S
H183 C178 0.960 . S
H184 C178 0.959 . S
C185 N186 1.317 . S
C185 N187 1.348 . S
C185 C188 1.485 . S
N186 C185 1.317 . S
N186 N190 1.370 1_554 S
N187 C185 1.348 . S
N187 C189 1.360 . S
C188 C185 1.485 . S
C188 H192 0.960 . S
C188 H193 0.961 . S
C188 H194 0.960 . S
C189 N187 1.360 . S
C189 N190 1.303 1_554 S
C189 C191 1.477 1_554 S
N190 N186 1.370 1_556 S
N190 C189 1.303 1_556 S
C191 C189 1.477 1_556 S
C191 H195 0.960 . S
C191 H196 0.960 . S
C191 H197 0.959 . S
H192 C188 0.960 . S
H193 C188 0.961 . S
H194 C188 0.960 . S
H195 C191 0.960 . S
H196 C191 0.960 . S
H197 C191 0.959 . S
C7 N187 4.257 . S
C51 N160 2.374 . S
C87 N173 3.420 1_545 S
C16 N186 4.031 . S
N161 C42 2.518 . S
N174 C96 2.385 . S
C47 N134 1.793 . S
C91 N148 4.568 1_655 S
C2 N122 2.763 . S
N135 C56 2.959 . S
N147 C82 5.093 . S
C11 N121 2.576 . S
N151 C19 2.061 1_556 S
C50 N125 1.239 . S
C99 N138 1.408 . S
N177 C59 1.219 . S
N190 C90 1.869 1_556 S
C10 N164 0.973 1_655 S
