# Generated by pormake.
# Topology pts, (4,4)-cn, num edge types: 1
# Building blocks:
#     Node 0, Type 0, BuildingBlock: KUFVIS_clean_linker_0, # of connection points: 4
#     Node 1, Type 0, BuildingBlock: KUFVIS_clean_linker_0, # of connection points: 4
#     Node 2, Type 1, BuildingBlock: QUQFOY_clean_sbu_1, # of connection points: 4
#     Node 3, Type 1, BuildingBlock: QUQFOY_clean_sbu_1, # of connection points: 4
#     Edge 4, Type (0, 1), BuildingBlock: FUNLAD_clean_linker_0, # of connection points: 2
#     Edge 5, Type (0, 1), BuildingBlock: FUNLAD_clean_linker_0, # of connection points: 2
#     Edge 6, Type (0, 1), BuildingBlock: FUNLAD_clean_linker_0, # of connection points: 2
#     Edge 7, Type (0, 1), BuildingBlock: FUNLAD_clean_linker_0, # of connection points: 2
#     Edge 8, Type (0, 1), BuildingBlock: FUNLAD_clean_linker_0, # of connection points: 2
#     Edge 9, Type (0, 1), BuildingBlock: FUNLAD_clean_linker_0, # of connection points: 2
#     Edge 10, Type (0, 1), BuildingBlock: FUNLAD_clean_linker_0, # of connection points: 2
#     Edge 11, Type (0, 1), BuildingBlock: FUNLAD_clean_linker_0, # of connection points: 2
# Relax obj value: 0.104
# Max RMSD: 0.274
# Mean RMSD: 0.186
data_MOF--net-pts--node1-QUQFOY_clean_sbu_1--node2-KUFVIS_clean_linker_0--edge1-FUNLAD_clean_linker_0
_symmetry_space_group_name_H-M    P1
_symmetry_Int_Tables_number       1
_symmetry_cell_setting            triclinic
loop_
_symmetry_equiv_pos_as_xyz
'x, y, z'
_cell_length_a     27.293538
_cell_length_b     29.7632
_cell_length_c     44.868769
_cell_angle_alpha  89.860487
_cell_angle_beta   89.95163
_cell_angle_gamma 89.404136
loop_
_atom_site_label
_atom_site_type_symbol
_atom_site_fract_x
_atom_site_fract_y
_atom_site_fract_z
_atom_type_partial_charge
H0 H 0.36463 1.00519 -0.03214 0.0
H1 H 0.50233 1.00254 0.92174 0.0
H2 H 0.49535 0.0406 0.01453 0.0
H3 H 0.57001 1.00873 0.01454 0.0
H4 H 0.70093 0.0498 -0.03005 0.0
H5 H 0.56455 0.05192 0.92257 0.0
C6 C 0.40399 1.00967 -0.03203 0.0
C7 C 0.42736 1.0222 -0.00559 0.0
C8 C 0.43076 1.00339 0.9416 0.0
C9 C 0.48177 1.00898 0.94195 0.0
C10 C 0.50607 1.02205 -0.03177 0.0
C11 C 0.47812 1.0289 -0.0057 0.0
C12 C 0.56021 1.02915 -0.03153 0.0
C13 C 0.58766 1.02128 -0.00538 0.0
C14 C 0.63799 1.03016 -0.00446 0.0
C15 C 0.66163 0.04487 -0.03037 0.0
C16 C 0.63551 0.0518 0.94311 0.0
C17 C 0.58476 0.04458 0.94279 0.0
H18 H 0.03363 0.69638 0.4694 0.0
H19 H 1.01063 0.57441 0.51802 0.0
H20 H 0.05129 0.57013 0.42478 0.0
H21 H 1.00621 0.50664 0.42675 0.0
H22 H 0.02715 0.38427 0.47572 0.0
H23 H 0.05471 0.50983 0.51865 0.0
C24 C 0.03283 0.65996 0.46999 0.0
C25 C 0.04288 0.63571 0.44399 0.0
C26 C 1.02178 0.63806 0.49674 0.0
C27 C 1.02067 0.59092 0.49741 0.0
C28 C 0.03107 0.56546 0.47156 0.0
C29 C 0.04211 0.58853 0.44484 0.0
C30 C 0.03038 0.51512 0.47259 0.0
C31 C 1.01699 0.48994 0.44722 0.0
C32 C 1.01589 0.44283 0.44835 0.0
C33 C 0.02818 0.42068 0.47485 0.0
C34 C 0.04176 0.44465 0.50023 0.0
C35 C 0.04294 0.49176 0.49905 0.0
O36 O 0.96707 0.99989 0.1996 0.0
Cd37 Cd 0.03413 0.99263 0.2203 0.0
Cd38 Cd 0.02626 0.08938 0.22248 0.0
O39 O 0.96064 0.0738 0.20258 0.0
O40 O 0.04081 0.92712 0.22886 0.0
O41 O 0.03842 0.97886 0.26414 0.0
C42 C 0.04198 0.93698 0.25679 0.0
C43 C 1.02344 0.15137 0.25452 0.0
C44 C 0.94334 0.03614 0.19477 0.0
C45 C 0.11245 0.04672 0.18977 0.0
O46 O 0.09003 0.0821 0.19819 0.0
O47 O 0.0962 1.00812 0.19642 0.0
O48 O 1.02111 0.156 0.22605 0.0
O49 O 0.02747 0.11111 0.2651 0.0
O50 O 0.97095 0.08197 0.74526 0.0
Cd51 Cd 0.0373 0.08804 0.72364 0.0
Cd52 Cd 0.03047 0.99342 0.72142 0.0
O53 O 0.96702 1.00796 0.7446 0.0
O54 O 0.04364 0.15336 0.71499 0.0
O55 O 0.03956 0.10169 0.67976 0.0
C56 C 0.04366 0.14347 0.68705 0.0
C57 C 1.02364 0.93943 0.68405 0.0
C58 C 0.94885 0.04589 0.7518 0.0
C59 C 0.11931 1.03275 0.75104 0.0
O60 O 0.09713 0.99757 0.74282 0.0
O61 O 0.10105 0.07144 0.74589 0.0
O62 O 1.02404 0.92849 0.71184 0.0
O63 O 0.02755 0.98148 0.67731 0.0
C64 C 0.35353 0.05136 0.0216 0.0
C65 C 0.39845 1.02796 0.02213 0.0
C66 C 0.32434 0.05381 0.04711 0.0
C67 C 0.3396 1.03299 0.07379 0.0
C68 C 0.3849 1.01025 0.07442 0.0
C69 C 0.41427 1.00803 0.04891 0.0
C70 C 0.30723 1.03115 0.10036 0.0
C71 C 0.27221 0.06219 0.10596 0.0
C72 C 0.23507 0.05756 0.12994 0.0
C73 C 0.21037 0.09619 0.14003 0.0
C74 C 0.17166 0.09283 0.16027 0.0
C75 C 0.1564 0.05058 0.1706 0.0
H76 H 0.23784 0.9846 0.13307 0.0
C77 C 0.18187 1.01193 0.16104 0.0
C78 C 0.22071 1.01532 0.14089 0.0
H79 H 0.17098 0.97885 0.16848 0.0
H80 H 0.34056 0.06721 0.00129 0.0
H81 H 0.28909 0.07057 0.0454 0.0
H82 H 0.39726 0.99353 0.09457 0.0
H83 H 0.44854 0.98939 0.04985 0.0
H84 H 0.31256 1.00319 0.11565 0.0
H85 H 0.27022 0.09237 0.09233 0.0
H86 H 0.22042 0.12909 0.13179 0.0
H87 H 0.15286 0.12332 0.16714 0.0
C88 C 0.08405 0.38149 0.52681 0.0
C89 C 0.05304 0.41941 0.52793 0.0
C90 C 0.08774 0.35242 0.55116 0.0
C91 C 0.06 0.36043 0.57708 0.0
C92 C 0.03199 0.40022 0.57902 0.0
C93 C 0.02841 0.42947 0.55461 0.0
C94 C 0.05822 0.32726 0.60189 0.0
C95 C 0.06379 0.28265 0.5974 0.0
C96 C 0.05861 0.24785 0.62106 0.0
C97 C 0.05162 0.20298 0.61244 0.0
C98 C 0.04662 0.16902 0.63378 0.0
C99 C 0.04867 0.17919 0.66428 0.0
H100 H 0.06804 0.29164 0.65938 0.0
C101 C 0.05614 0.22396 0.67296 0.0
C102 C 0.06128 0.2579 0.65164 0.0
H103 H 0.05841 0.23287 0.69631 0.0
H104 H 0.10421 0.37351 0.50666 0.0
H105 H 0.11156 0.32326 0.54931 0.0
H106 H 1.01092 0.40759 0.59892 0.0
H107 H 1.00425 0.4585 0.55602 0.0
H108 H 0.0479 0.33981 0.62371 0.0
H109 H 0.06964 0.27045 0.57487 0.0
H110 H 0.04975 0.19413 0.58906 0.0
H111 H 0.0411 0.13485 0.62635 0.0
C112 C 0.69925 0.05841 0.03209 0.0
C113 C 0.66614 1.02501 0.02361 0.0
C114 C 0.7274 0.05341 0.0578 0.0
C115 C 0.7228 1.01496 0.07586 0.0
C116 C 0.68954 0.9816 0.06747 0.0
C117 C 0.66115 0.98671 0.04169 0.0
C118 C 0.75501 1.00747 0.10212 0.0
C119 C 0.77441 0.04169 0.11762 0.0
C120 C 0.81362 0.0368 0.14044 0.0
C121 C 0.82705 0.07516 0.15652 0.0
C122 C 0.86802 0.07442 0.17509 0.0
C123 C 0.89662 1.03515 0.17809 0.0
H124 H 0.83271 0.96657 0.13231 0.0
C125 C 0.88192 0.99604 0.16322 0.0
C126 C 0.84103 0.99684 0.14445 0.0
H127 H 0.9032 0.96523 0.16504 0.0
H128 H 0.70368 0.08842 0.01867 0.0
H129 H 0.75376 0.0792 0.06283 0.0
H130 H 0.6858 0.95139 0.08076 0.0
H131 H 0.63624 0.96021 0.03552 0.0
H132 H 0.76306 0.97295 0.10831 0.0
H133 H 0.76216 0.07573 0.11265 0.0
H134 H 0.80675 0.10641 0.15393 0.0
H135 H 0.87806 0.10508 0.1864 0.0
C136 C 0.98306 0.70392 0.5225 0.0
C137 C 1.01297 0.66526 0.52391 0.0
C138 C 0.9805 0.73357 0.5465 0.0
C139 C 1.00821 0.72537 0.57241 0.0
C140 C 0.03549 0.68519 0.57457 0.0
C141 C 0.03799 0.65541 0.55051 0.0
C142 C 1.0102 0.75834 0.59723 0.0
C143 C 1.004 0.80297 0.593 0.0
C144 C 1.00889 0.83718 0.61695 0.0
C145 C 1.016 0.88228 0.60878 0.0
C146 C 1.02085 0.91561 0.63047 0.0
C147 C 1.01851 0.90453 0.66086 0.0
H148 H 0.99878 0.79233 0.65481 0.0
C149 C 1.0108 0.85953 0.66908 0.0
C150 C 1.00578 0.82626 0.64742 0.0
H151 H 1.00825 0.84992 0.69232 0.0
H152 H 0.96248 0.71177 0.50248 0.0
H153 H 0.95723 0.76307 0.54448 0.0
H154 H 0.05656 0.67769 0.59446 0.0
H155 H 0.06133 0.62586 0.5522 0.0
H156 H 1.02092 0.74556 0.61894 0.0
H157 H 0.99776 0.81563 0.57059 0.0
H158 H 1.01815 0.8918 0.58549 0.0
H159 H 0.02654 0.94999 0.62341 0.0
C160 C 0.4141 1.01801 0.88751 0.0
C161 C 0.4045 0.99326 0.91353 0.0
C162 C 0.38422 1.01349 0.86242 0.0
C163 C 0.34408 0.98415 0.86299 0.0
C164 C 0.33686 0.95706 0.88822 0.0
C165 C 0.36656 0.96172 0.9133 0.0
C166 C 0.30732 0.98268 0.83863 0.0
C167 C 0.29629 1.01873 0.82156 0.0
C168 C 0.25297 1.02102 0.80153 0.0
C169 C 0.2329 0.0634 0.79465 0.0
C170 C 0.19 0.06724 0.77788 0.0
C171 C 0.16628 1.02869 0.76739 0.0
H172 H 0.24561 0.94925 0.79386 0.0
C173 C 0.18743 0.98629 0.77321 0.0
C174 C 0.23042 0.98246 0.78999 0.0
H175 H 0.17052 0.95593 0.76508 0.0
H176 H 0.44324 0.04245 0.88702 0.0
H177 H 0.39202 1.03373 0.84296 0.0
H178 H 0.3067 0.9337 0.88908 0.0
H179 H 0.35891 0.9416 0.93288 0.0
H180 H 0.28466 0.953 0.83747 0.0
H181 H 0.3163 0.04968 0.82478 0.0
H182 H 0.2497 0.09371 0.80299 0.0
H183 H 0.17501 0.10047 0.7736 0.0
C184 C 0.03124 0.41868 0.39578 0.0
C185 C 1.00348 0.41544 0.422 0.0
C186 C 0.02683 0.38623 0.37342 0.0
C187 C 0.99404 0.3502 0.37684 0.0
C188 C 0.96414 0.34898 0.4023 0.0
C189 C 0.96884 0.38114 0.42465 0.0
C190 C 0.99268 0.31112 0.35617 0.0
C191 C 1.01526 0.30938 0.3295 0.0
C192 C 1.01638 0.26818 0.31084 0.0
C193 C 1.02044 0.27264 0.27983 0.0
C194 C 1.02253 0.23467 0.26163 0.0
C195 C 1.02138 0.19129 0.27409 0.0
H196 H 1.01427 0.21993 0.3473 0.0
C197 C 1.01816 0.18669 0.30518 0.0
C198 C 1.0157 0.22474 0.3234 0.0
H199 H 1.01756 0.15374 0.31546 0.0
H200 H 0.0586 0.44457 0.39344 0.0
H201 H 0.05105 0.38854 0.35444 0.0
H202 H 0.93843 0.32191 0.40558 0.0
H203 H 0.94693 0.37804 0.44468 0.0
H204 H 0.97225 0.28201 0.3636 0.0
H205 H 0.03242 0.33908 0.32037 0.0
H206 H 1.02165 0.30563 0.26961 0.0
H207 H 0.0253 0.23941 0.23775 0.0
C208 C 0.65375 0.04215 0.88871 0.0
C209 C 0.66218 0.06478 0.91563 0.0
C210 C 0.6839 0.04961 0.86401 0.0
C211 C 0.7232 0.07976 0.86588 0.0
C212 C 0.72924 0.10469 0.8921 0.0
C213 C 0.69923 0.09716 0.91677 0.0
C214 C 0.76026 0.08434 0.84181 0.0
C215 C 0.77216 0.05036 0.82326 0.0
C216 C 0.81555 0.05085 0.8032 0.0
C217 C 0.83581 1.00955 0.79413 0.0
C218 C 0.87861 1.00799 0.77709 0.0
C219 C 0.90208 0.04781 0.76854 0.0
H220 H 0.82262 0.12339 0.79927 0.0
C221 C 0.88083 0.08927 0.77663 0.0
C222 C 0.83791 0.09083 0.79367 0.0
H223 H 0.89757 0.1206 0.77004 0.0
H224 H 0.6253 1.01716 0.88713 0.0
H225 H 0.67691 1.03099 0.8438 0.0
H226 H 0.75871 0.12864 0.894 0.0
H227 H 0.70594 0.11576 0.93706 0.0
H228 H 0.78228 0.11448 0.842 0.0
H229 H 0.7527 1.01883 0.82506 0.0
H230 H 0.8192 0.97822 0.8009 0.0
H231 H 0.89368 0.97544 0.77107 0.0
C232 C 0.08496 0.69724 0.41631 0.0
C233 C 0.05268 0.66078 0.41605 0.0
C234 C 0.08779 0.72624 0.39191 0.0
C235 C 0.05796 0.71964 0.36677 0.0
C236 C 0.02849 0.68123 0.36562 0.0
C237 C 0.02574 0.65206 0.39009 0.0
C238 C 0.05568 0.75287 0.34197 0.0
C239 C 0.06319 0.79717 0.34623 0.0
C240 C 0.05774 0.83213 0.32263 0.0
C241 C 0.05236 0.87728 0.3313 0.0
C242 C 0.04717 0.91139 0.31002 0.0
C243 C 0.04746 0.90111 0.2795 0.0
H244 H 0.06416 0.7879 0.28424 0.0
C245 C 0.05338 0.85603 0.27075 0.0
C246 C 0.05866 0.82193 0.29202 0.0
H247 H 0.05424 0.847 0.24739 0.0
H248 H 0.10694 0.70413 0.43584 0.0
H249 H 0.1127 0.75423 0.39309 0.0
H250 H 1.00576 0.67493 0.34632 0.0
H251 H 1.00056 0.62419 0.38933 0.0
H252 H 0.04345 0.74085 0.32045 0.0
H253 H 0.07096 0.80911 0.36857 0.0
H254 H 0.05187 0.88625 0.35469 0.0
H255 H 0.04286 0.94578 0.31751 0.0
loop_
_geom_bond_atom_site_label_1
_geom_bond_atom_site_label_2
_geom_bond_distance
_geom_bond_site_symmetry_2
_ccdc_geom_bond_type
H0 C6 0.930 . S
H1 C9 0.931 . S
H2 C11 0.931 1_565 S
H3 C13 0.930 . S
H4 C15 0.930 . S
H5 C17 0.931 1_565 S
C6 H0 0.930 . S
C6 C7 1.380 1_545 S
C6 C8 1.394 1_554 S
C7 C6 1.380 1_565 S
C7 C11 1.382 1_565 S
C8 C6 1.394 1_556 S
C8 C9 1.400 . S
C9 H1 0.931 . S
C9 C8 1.400 . S
C9 C10 1.375 1_556 S
C10 C9 1.375 1_554 S
C10 C11 1.415 . S
C10 C12 1.501 . S
C11 H2 0.931 1_545 S
C11 C7 1.382 1_545 S
C11 C10 1.415 . S
C12 C10 1.501 . S
C12 C13 1.384 . S
C12 C17 1.408 1_554 S
C13 H3 0.930 . S
C13 C12 1.384 . S
C13 C14 1.389 . S
C14 C13 1.389 . S
C14 C15 1.405 . S
C15 H4 0.930 . S
C15 C14 1.405 . S
C15 C16 1.364 1_554 S
C16 C15 1.364 1_556 S
C16 C17 1.400 . S
C17 H5 0.931 1_545 S
C17 C12 1.408 1_556 S
C17 C16 1.400 . S
H18 C24 0.930 . S
H19 C27 0.931 . S
H20 C29 0.931 . S
H21 C31 0.931 . S
H22 C33 0.930 . S
H23 C35 0.931 . S
C24 H18 0.930 . S
C24 C25 1.380 . S
C24 C26 1.394 . S
C25 C24 1.380 . S
C25 C29 1.382 . S
C26 C24 1.394 . S
C26 C27 1.400 1_455 S
C27 H19 0.931 . S
C27 C26 1.400 1_655 S
C27 C28 1.375 1_655 S
C28 C27 1.375 1_455 S
C28 C29 1.415 . S
C28 C30 1.501 . S
C29 H20 0.931 . S
C29 C25 1.382 . S
C29 C28 1.415 . S
C30 C28 1.501 . S
C30 C31 1.384 1_455 S
C30 C35 1.408 . S
C31 H21 0.931 . S
C31 C30 1.384 1_655 S
C31 C32 1.389 1_655 S
C32 C31 1.389 1_455 S
C32 C33 1.406 . S
C33 H22 0.930 . S
C33 C32 1.406 . S
C33 C34 1.364 . S
C34 C33 1.364 . S
C34 C35 1.400 . S
C35 H23 0.931 . S
C35 C30 1.408 . S
C35 C34 1.400 . S
O36 Cd37 2.223 1_655 S
O36 C44 1.315 . S
Cd37 O36 2.223 1_455 S
Cd37 O40 2.297 1_455 S
Cd37 O41 2.439 1_455 S
Cd37 O47 2.240 1_565 S
Cd38 O39 2.240 1_545 S
Cd38 O46 2.223 1_655 S
Cd38 O48 2.297 1_655 S
Cd38 O49 2.439 1_655 S
O39 Cd38 2.240 1_565 S
O39 C44 1.279 . S
O40 Cd37 2.297 1_655 S
O40 C42 1.247 . S
O41 Cd37 2.439 1_655 S
O41 C42 1.208 . S
C42 O40 1.247 . S
C42 O41 1.208 . S
C43 O48 1.247 . S
C43 O49 1.208 . S
C44 O36 1.315 . S
C44 O39 1.279 . S
C45 O46 1.315 . S
C45 O47 1.279 . S
O46 Cd38 2.223 1_455 S
O46 C45 1.315 . S
O47 Cd37 2.240 1_545 S
O47 C45 1.279 . S
O48 Cd38 2.297 1_455 S
O48 C43 1.247 . S
O49 Cd38 2.439 1_455 S
O49 C43 1.208 . S
O50 Cd51 2.223 1_655 S
O50 C58 1.315 . S
Cd51 O50 2.223 1_455 S
Cd51 O54 2.297 1_455 S
Cd51 O55 2.439 1_455 S
Cd51 O61 2.240 1_545 S
Cd52 O53 2.240 1_565 S
Cd52 O60 2.223 1_655 S
Cd52 O62 2.297 1_655 S
Cd52 O63 2.439 1_655 S
O53 Cd52 2.240 1_545 S
O53 C58 1.279 . S
O54 Cd51 2.297 1_655 S
O54 C56 1.247 . S
O55 Cd51 2.439 1_655 S
O55 C56 1.208 . S
C56 O54 1.247 . S
C56 O55 1.208 . S
C57 O62 1.247 . S
C57 O63 1.208 . S
C58 O50 1.315 . S
C58 O53 1.279 . S
C59 O60 1.315 . S
C59 O61 1.279 . S
O60 Cd52 2.223 1_455 S
O60 C59 1.315 . S
O61 Cd51 2.240 1_565 S
O61 C59 1.279 . S
O62 Cd52 2.297 1_455 S
O62 C57 1.247 . S
O63 Cd52 2.439 1_455 S
O63 C57 1.208 . S
C64 C65 1.386 1_545 S
C64 C66 1.383 . S
C64 H80 0.951 . S
C65 C64 1.386 1_565 S
C65 C69 1.383 . S
C66 C64 1.383 . S
C66 C67 1.402 1_545 S
C66 H81 0.951 . S
C67 C66 1.402 1_565 S
C67 C68 1.375 . S
C67 C70 1.481 . S
C68 C67 1.375 . S
C68 C69 1.367 . S
C68 H82 0.951 . S
C69 C65 1.383 . S
C69 C68 1.367 . S
C69 H83 0.950 . S
C70 C67 1.481 . S
C70 C71 1.294 1_565 S
C70 H84 0.950 . S
C71 C70 1.294 1_545 S
C71 C72 1.480 . S
C71 H85 0.953 . S
C72 C71 1.480 . S
C72 C73 1.375 . S
C72 C78 1.404 1_545 S
C73 C72 1.375 . S
C73 C74 1.369 . S
C73 H86 0.950 . S
C74 C73 1.369 . S
C74 C75 1.392 . S
C74 H87 0.951 . S
C75 C74 1.392 . S
C75 C77 1.384 1_545 S
H76 C78 0.949 . S
C77 C75 1.384 1_565 S
C77 C78 1.385 . S
C77 H79 0.950 . S
C78 C72 1.404 1_565 S
C78 H76 0.949 . S
C78 C77 1.385 . S
H79 C77 0.950 . S
H80 C64 0.951 . S
H81 C66 0.951 . S
H82 C68 0.951 . S
H83 C69 0.950 . S
H84 C70 0.950 . S
H85 C71 0.953 . S
H86 C73 0.950 . S
H87 C74 0.951 . S
C88 C89 1.386 . S
C88 C90 1.383 . S
C88 H104 0.951 . S
C89 C88 1.386 . S
C89 C93 1.383 1_455 S
C90 C88 1.383 . S
C90 C91 1.402 1_455 S
C90 H105 0.951 . S
C91 C90 1.402 1_655 S
C91 C92 1.375 . S
C91 C94 1.481 . S
C92 C91 1.375 . S
C92 C93 1.367 . S
C92 H106 0.951 . S
C93 C89 1.383 1_655 S
C93 C92 1.367 . S
C93 H107 0.950 . S
C94 C91 1.481 . S
C94 C95 1.297 1_655 S
C94 H108 0.950 . S
C95 C94 1.297 1_455 S
C95 C96 1.479 . S
C95 H109 0.950 . S
C96 C95 1.479 . S
C96 C97 1.375 . S
C96 C102 1.404 1_455 S
C97 C96 1.375 . S
C97 C98 1.369 . S
C97 H110 0.950 . S
C98 C97 1.369 . S
C98 C99 1.392 1_455 S
C98 H111 0.951 . S
C99 C98 1.392 1_655 S
C99 C101 1.384 . S
H100 C102 0.949 . S
C101 C99 1.384 . S
C101 C102 1.385 . S
C101 H103 0.950 . S
C102 C96 1.404 1_655 S
C102 H100 0.949 . S
C102 C101 1.385 . S
H103 C101 0.950 . S
H104 C88 0.951 . S
H105 C90 0.951 . S
H106 C92 0.951 . S
H107 C93 0.950 . S
H108 C94 0.950 . S
H109 C95 0.950 . S
H110 C97 0.950 . S
H111 C98 0.951 . S
C112 C113 1.386 . S
C112 C114 1.383 . S
C112 H128 0.951 . S
C113 C112 1.386 . S
C113 C117 1.383 1_545 S
C114 C112 1.383 . S
C114 C115 1.402 1_545 S
C114 H129 0.951 . S
C115 C114 1.402 1_565 S
C115 C116 1.375 . S
C115 C118 1.481 . S
C116 C115 1.375 . S
C116 C117 1.367 . S
C116 H130 0.951 . S
C117 C113 1.383 1_565 S
C117 C116 1.367 . S
C117 H131 0.950 . S
C118 C115 1.481 . S
C118 C119 1.297 1_565 S
C118 H132 0.950 . S
C119 C118 1.297 1_545 S
C119 C120 1.479 1_545 S
C119 H133 0.950 . S
C120 C119 1.479 1_565 S
C120 C121 1.375 1_565 S
C120 C126 1.404 . S
C121 C120 1.375 1_545 S
C121 C122 1.369 . S
C121 H134 0.950 . S
C122 C121 1.369 . S
C122 C123 1.392 1_545 S
C122 H135 0.951 . S
C123 C122 1.392 1_565 S
C123 C125 1.384 . S
H124 C126 0.949 . S
C125 C123 1.384 . S
C125 C126 1.385 . S
C125 H127 0.950 . S
C126 C120 1.404 . S
C126 H124 0.949 . S
C126 C125 1.385 . S
H127 C125 0.950 . S
H128 C112 0.951 . S
H129 C114 0.951 . S
H130 C116 0.951 . S
H131 C117 0.950 . S
H132 C118 0.950 . S
H133 C119 0.950 . S
H134 C121 0.950 . S
H135 C122 0.951 . S
C136 C137 1.386 1_655 S
C136 C138 1.383 . S
C136 H152 0.951 . S
C137 C136 1.386 1_455 S
C137 C141 1.383 . S
C138 C136 1.383 . S
C138 C139 1.402 1_655 S
C138 H153 0.951 . S
C139 C138 1.402 1_455 S
C139 C140 1.375 . S
C139 C142 1.481 . S
C140 C139 1.375 . S
C140 C141 1.367 . S
C140 H154 0.951 . S
C141 C137 1.383 . S
C141 C140 1.367 . S
C141 H155 0.950 . S
C142 C139 1.481 . S
C142 C143 1.297 1_455 S
C142 H156 0.950 . S
C143 C142 1.297 1_655 S
C143 C144 1.479 1_655 S
C143 H157 0.950 . S
C144 C143 1.479 1_455 S
C144 C145 1.375 1_455 S
C144 C150 1.404 . S
C145 C144 1.375 1_655 S
C145 C146 1.369 1_655 S
C145 H158 0.950 . S
C146 C145 1.369 1_455 S
C146 C147 1.392 . S
C146 H159 0.951 1_455 S
C147 C146 1.392 . S
C147 C149 1.384 . S
H148 C150 0.949 . S
C149 C147 1.384 . S
C149 C150 1.385 . S
C149 H151 0.950 . S
C150 C144 1.404 . S
C150 H148 0.949 . S
C150 C149 1.385 . S
H151 C149 0.950 . S
H152 C136 0.951 . S
H153 C138 0.951 . S
H154 C140 0.951 . S
H155 C141 0.950 . S
H156 C142 0.950 . S
H157 C143 0.950 . S
H158 C145 0.950 . S
H159 C146 0.951 1_655 S
C160 C161 1.386 . S
C160 C162 1.383 . S
C160 H176 0.951 . S
C161 C160 1.386 . S
C161 C165 1.383 1_545 S
C162 C160 1.383 . S
C162 C163 1.402 1_545 S
C162 H177 0.951 . S
C163 C162 1.402 1_565 S
C163 C164 1.375 . S
C163 C166 1.481 . S
C164 C163 1.375 . S
C164 C165 1.367 . S
C164 H178 0.951 . S
C165 C161 1.383 1_565 S
C165 C164 1.367 . S
C165 H179 0.950 . S
C166 C163 1.481 . S
C166 C167 1.297 . S
C166 H180 0.950 . S
C167 C166 1.297 . S
C167 C168 1.479 . S
C167 H181 0.950 1_565 S
C168 C167 1.479 . S
C168 C169 1.375 1_565 S
C168 C174 1.404 . S
C169 C168 1.375 1_545 S
C169 C170 1.369 . S
C169 H182 0.950 . S
C170 C169 1.369 . S
C170 C171 1.392 1_545 S
C170 H183 0.951 . S
C171 C170 1.392 1_565 S
C171 C173 1.384 . S
H172 C174 0.949 . S
C173 C171 1.384 . S
C173 C174 1.385 . S
C173 H175 0.950 . S
C174 C168 1.404 . S
C174 H172 0.949 . S
C174 C173 1.385 . S
H175 C173 0.950 . S
H176 C160 0.951 . S
H177 C162 0.951 . S
H178 C164 0.951 . S
H179 C165 0.950 . S
H180 C166 0.950 . S
H181 C167 0.950 1_545 S
H182 C169 0.950 . S
H183 C170 0.951 . S
C184 C185 1.386 . S
C184 C186 1.383 . S
C184 H200 0.951 . S
C185 C184 1.386 . S
C185 C189 1.383 1_455 S
C186 C184 1.383 . S
C186 C187 1.402 . S
C186 H201 0.951 . S
C187 C186 1.402 . S
C187 C188 1.375 . S
C187 C190 1.481 . S
C188 C187 1.375 . S
C188 C189 1.367 1_455 S
C188 H202 0.951 1_455 S
C189 C185 1.383 1_655 S
C189 C188 1.367 1_655 S
C189 H203 0.950 . S
C190 C187 1.481 . S
C190 C191 1.297 . S
C190 H204 0.950 . S
C191 C190 1.297 . S
C191 C192 1.479 . S
C191 H205 0.950 . S
C192 C191 1.479 . S
C192 C193 1.375 . S
C192 C198 1.404 . S
C193 C192 1.375 . S
C193 C194 1.369 . S
C193 H206 0.950 . S
C194 C193 1.369 . S
C194 C195 1.392 . S
C194 H207 0.951 . S
C195 C194 1.392 . S
C195 C197 1.384 . S
H196 C198 0.949 . S
C197 C195 1.384 . S
C197 C198 1.385 . S
C197 H199 0.950 . S
C198 C192 1.404 . S
C198 H196 0.949 . S
C198 C197 1.385 . S
H199 C197 0.950 . S
H200 C184 0.951 . S
H201 C186 0.951 . S
H202 C188 0.951 1_655 S
H203 C189 0.950 . S
H204 C190 0.950 . S
H205 C191 0.950 . S
H206 C193 0.950 . S
H207 C194 0.951 . S
C208 C209 1.386 1_565 S
C208 C210 1.383 1_565 S
C208 H224 0.951 . S
C209 C208 1.386 1_545 S
C209 C213 1.383 . S
C210 C208 1.383 1_545 S
C210 C211 1.402 . S
C210 H225 0.951 . S
C211 C210 1.402 . S
C211 C212 1.375 . S
C211 C214 1.481 . S
C212 C211 1.375 . S
C212 C213 1.367 . S
C212 H226 0.951 . S
C213 C209 1.383 . S
C213 C212 1.367 . S
C213 H227 0.950 . S
C214 C211 1.481 . S
C214 C215 1.297 . S
C214 H228 0.950 . S
C215 C214 1.297 . S
C215 C216 1.479 . S
C215 H229 0.950 . S
C216 C215 1.479 . S
C216 C217 1.375 . S
C216 C222 1.404 . S
C217 C216 1.375 . S
C217 C218 1.369 . S
C217 H230 0.950 . S
C218 C217 1.369 . S
C218 C219 1.392 . S
C218 H231 0.951 . S
C219 C218 1.392 . S
C219 C221 1.384 . S
H220 C222 0.949 . S
C221 C219 1.384 . S
C221 C222 1.385 . S
C221 H223 0.950 . S
C222 C216 1.404 . S
C222 H220 0.949 . S
C222 C221 1.385 . S
H223 C221 0.950 . S
H224 C208 0.951 . S
H225 C210 0.951 . S
H226 C212 0.951 . S
H227 C213 0.950 . S
H228 C214 0.950 . S
H229 C215 0.950 . S
H230 C217 0.950 . S
H231 C218 0.951 . S
C232 C233 1.386 . S
C232 C234 1.383 . S
C232 H248 0.951 . S
C233 C232 1.386 . S
C233 C237 1.383 1_455 S
C234 C232 1.383 . S
C234 C235 1.402 1_455 S
C234 H249 0.951 . S
C235 C234 1.402 1_655 S
C235 C236 1.375 . S
C235 C238 1.481 . S
C236 C235 1.375 . S
C236 C237 1.367 . S
C236 H250 0.951 . S
C237 C233 1.383 1_655 S
C237 C236 1.367 . S
C237 H251 0.950 . S
C238 C235 1.481 . S
C238 C239 1.297 1_655 S
C238 H252 0.950 . S
C239 C238 1.297 1_455 S
C239 C240 1.479 . S
C239 H253 0.950 . S
C240 C239 1.479 . S
C240 C241 1.375 . S
C240 C246 1.404 1_455 S
C241 C240 1.375 . S
C241 C242 1.369 . S
C241 H254 0.950 . S
C242 C241 1.369 . S
C242 C243 1.392 1_455 S
C242 H255 0.951 . S
C243 C242 1.392 1_655 S
C243 C245 1.384 . S
H244 C246 0.949 . S
C245 C243 1.384 . S
C245 C246 1.385 . S
C245 H247 0.950 . S
C246 C240 1.404 1_655 S
C246 H244 0.949 . S
C246 C245 1.385 . S
H247 C245 0.950 . S
H248 C232 0.951 . S
H249 C234 0.951 . S
H250 C236 0.951 . S
H251 C237 0.950 . S
H252 C238 0.950 . S
H253 C239 0.950 . S
H254 C241 0.950 . S
H255 C242 0.951 . S
C75 C45 1.672 . S
C65 C7 1.645 . S
C99 C56 1.510 . S
C89 C34 1.611 . S
C123 C44 1.653 . S
C113 C14 1.648 . S
C147 C57 1.508 . S
C137 C26 1.622 . S
C171 C59 1.644 . S
C161 C8 1.628 . S
C195 C43 1.615 . S
C185 C32 1.583 . S
C219 C58 1.651 . S
C209 C16 1.602 . S
C233 C25 1.618 . S
C243 C42 1.514 . S
