# Generated by pormake.
# Topology tsx, (6,3)-cn, num edge types: 1
# Building blocks:
#     Node 0, Type 0, BuildingBlock: FUNLAD_clean_sbu_0, # of connection points: 6
#     Node 1, Type 0, BuildingBlock: FUNLAD_clean_sbu_0, # of connection points: 6
#     Node 2, Type 1, BuildingBlock: QEWDON_clean_linker_0, # of connection points: 3
#     Node 3, Type 1, BuildingBlock: QEWDON_clean_linker_0, # of connection points: 3
#     Node 4, Type 1, BuildingBlock: QEWDON_clean_linker_0, # of connection points: 3
#     Node 5, Type 1, BuildingBlock: QEWDON_clean_linker_0, # of connection points: 3
#     Edge 6, Type (0, 1), None
#     Edge 7, Type (0, 1), None
#     Edge 8, Type (0, 1), None
#     Edge 9, Type (0, 1), None
#     Edge 10, Type (0, 1), None
#     Edge 11, Type (0, 1), None
#     Edge 12, Type (0, 1), None
#     Edge 13, Type (0, 1), None
#     Edge 14, Type (0, 1), None
#     Edge 15, Type (0, 1), None
#     Edge 16, Type (0, 1), None
#     Edge 17, Type (0, 1), None
# Relax obj value: 0.142
# Max RMSD: 0.194
# Mean RMSD: 0.168
data_MOF--net-tsx--node1-FUNLAD_clean_sbu_0--node2-QEWDON_clean_linker_0--edge1-none
_symmetry_space_group_name_H-M    P1
_symmetry_Int_Tables_number       1
_symmetry_cell_setting            triclinic
loop_
_symmetry_equiv_pos_as_xyz
'x, y, z'
_cell_length_a     8.0303409
_cell_length_b     10.936933
_cell_length_c     20.34344
_cell_angle_alpha  93.921576
_cell_angle_beta   120.40524
_cell_angle_gamma 93.364477
loop_
_atom_site_label
_atom_site_type_symbol
_atom_site_fract_x
_atom_site_fract_y
_atom_site_fract_z
_atom_type_partial_charge
C0 C 0.87653 0.7958 0.98095 0.0
N1 N 0.30832 -0.00854 0.22957 0.0
C2 C 0.1797 0.01761 0.25184 0.0
C3 C 0.23325 0.02002 0.32932 0.0
C4 C 0.4222 -0.00304 0.38612 0.0
C5 C 0.53981 0.95648 0.35848 0.0
C6 C 0.48935 0.96635 0.2829 0.0
Zn7 Zn 0.24794 -0.00759 0.1163 0.0
C8 C 0.55034 0.845 0.11236 0.0
N9 N 1.15989 0.00414 0.89475 0.0
C10 C 0.97954 0.98483 0.83147 0.0
C11 C 0.31731 0.03617 0.88878 0.0
C12 C 0.29655 0.04191 0.8171 0.0
C13 C 1.11209 0.02672 0.75043 0.0
C14 C 0.95355 -0.00461 0.75873 0.0
Zn15 Zn 0.1954 0.98033 0.99946 0.0
O16 O 0.96308 0.85039 1.0512 0.0
C17 C 0.98248 0.17167 1.03965 0.0
O18 O 0.9633 0.81934 0.94488 0.0
H19 H 0.46188 0.04342 0.93867 0.0
H20 H 1.03373 0.03375 0.20948 0.0
H21 H 0.85745 0.95456 0.83717 0.0
O22 O 1.07903 0.13755 0.10527 0.0
O23 O 0.97682 0.10646 0.98299 0.0
H24 H 0.59734 0.95302 0.26781 0.0
O25 O 0.37834 0.13098 1.03088 0.0
O26 O 0.49007 0.1359 0.15297 0.0
O27 O 0.47206 0.87616 1.04363 0.0
O28 O 0.45109 0.85671 0.14422 0.0
C29 C 0.49422 0.18028 0.09684 0.0
H30 H 1.11843 0.02779 0.34086 0.0
H31 H 0.67168 0.91722 0.39529 0.0
H32 H 0.42525 0.03755 0.81384 0.0
H33 H 0.81496 0.96511 0.70876 0.0
C34 C 0.37654 0.2958 0.48095 0.0
N35 N 0.80832 0.49146 0.72957 0.0
C36 C 0.6797 0.51761 0.75184 0.0
C37 C 0.73325 0.52002 0.82932 0.0
C38 C 0.9222 0.49696 0.88612 0.0
C39 C 1.03981 0.45648 0.85848 0.0
C40 C 0.98935 0.46635 0.7829 0.0
Zn41 Zn 0.74794 0.49241 0.6163 0.0
C42 C 1.05034 0.345 0.61236 0.0
N43 N 0.65989 0.50414 0.39475 0.0
C44 C 0.47954 0.48483 0.33147 0.0
C45 C 0.81731 0.53616 0.38878 0.0
C46 C 0.79655 0.54191 0.3171 0.0
C47 C 0.61209 0.52673 0.25043 0.0
C48 C 0.45355 0.49539 0.25873 0.0
Zn49 Zn 0.6954 0.48032 0.49946 0.0
O50 O 0.46308 0.35039 0.5512 0.0
C51 C 0.48248 0.67167 0.53965 0.0
O52 O 0.46331 0.31934 0.44488 0.0
H53 H 0.96188 0.54341 0.43867 0.0
H54 H 0.53373 0.53375 0.70948 0.0
H55 H 0.35746 0.45456 0.33717 0.0
O56 O 0.57903 0.63755 0.60527 0.0
O57 O 0.47682 0.60646 0.48299 0.0
H58 H 1.09734 0.45301 0.76781 0.0
O59 O 0.87834 0.63098 0.53088 0.0
O60 O 0.99007 0.6359 0.65297 0.0
O61 O 0.97206 0.37616 0.54363 0.0
O62 O 0.9511 0.35671 0.64422 0.0
C63 C 0.99423 0.68028 0.59684 0.0
H64 H 0.61843 0.52779 0.84086 0.0
H65 H 0.17168 0.41722 0.89529 0.0
H66 H 0.92525 0.53755 0.31384 0.0
H67 H 0.31496 0.46511 0.20876 0.0
H68 H 0.59421 0.14646 0.5374 0.0
C69 C 0.52793 0.05643 0.53234 0.0
C70 C 0.47137 0.97018 0.46558 0.0
C71 C 0.48671 0.02559 0.5908 0.0
H72 H 0.4026 0.78316 0.42063 0.0
C73 C 0.43152 0.84777 0.46893 0.0
C74 C 0.44756 0.80531 0.53416 0.0
C75 C 0.46593 0.89425 0.59422 0.0
C76 C 0.45263 0.12579 0.64252 0.0
H77 H 0.46713 0.86164 0.64341 0.0
C78 C 0.31197 0.21463 0.61483 0.0
C79 C 0.24361 0.28433 0.65461 0.0
C80 C 0.54853 0.13037 0.72253 0.0
H81 H 0.64537 0.06477 0.75103 0.0
C82 C 0.51417 0.21811 0.76757 0.0
H83 H 0.23847 0.23934 0.56239 0.0
C84 C 0.35503 0.28754 0.73425 0.0
H85 H 0.32129 0.34245 0.77113 0.0
H86 H 0.59665 0.22162 0.8292 0.0
H87 H 0.93137 0.12755 0.60908 0.0
C88 C 0.99529 0.04529 0.60759 0.0
C89 C 1.09532 0.98769 0.67609 0.0
C90 C 0.98968 -0.00212 0.53918 0.0
H91 H 0.22037 0.82531 0.7237 0.0
C92 C 1.15602 0.87324 0.67268 0.0
C93 C 1.07903 0.80653 0.60224 0.0
C94 C 1.01984 0.8713 0.536 0.0
C95 C 0.96978 0.08128 0.477 0.0
H96 H 0.98444 0.822 0.48174 0.0
C97 C 1.117 0.09665 0.45828 0.0
C98 C 0.17022 0.2149 0.43919 0.0
C99 C 0.82968 0.16349 0.44593 0.0
H100 H 0.71557 0.16442 0.45865 0.0
C101 C 0.83392 0.24485 0.39597 0.0
H102 H 0.18501 0.01661 0.46386 0.0
C103 C 1.00855 0.27746 0.39756 0.0
H104 H 1.02248 0.35584 0.37073 0.0
H105 H 0.70793 0.29099 0.36241 0.0
H106 H 1.09421 0.64646 1.0374 0.0
C107 C 1.02793 0.55643 1.03235 0.0
C108 C 0.97136 0.47018 0.96558 0.0
C109 C 0.98671 0.52559 0.0908 0.0
H110 H 0.9026 0.28316 0.92063 0.0
C111 C 0.93152 0.34777 0.96893 0.0
C112 C 0.94756 0.30531 1.03416 0.0
C113 C 0.96593 0.39425 0.09422 0.0
C114 C 0.95263 0.62579 0.14252 0.0
H115 H 0.96713 0.36164 0.14341 0.0
C116 C 0.81197 0.71463 0.11483 0.0
C117 C 0.74361 0.78433 0.15461 0.0
C118 C 1.04852 0.63037 0.22253 0.0
H119 H 1.14537 0.56477 0.25103 0.0
C120 C 1.01416 0.71811 0.26757 0.0
H121 H 0.73846 0.73934 0.06239 0.0
C122 C 0.85503 0.78754 0.23425 0.0
H123 H 0.82128 0.84245 0.27113 0.0
H124 H 1.09665 0.72162 0.3292 0.0
H125 H 0.43137 0.62755 0.10908 0.0
C126 C 0.49529 0.54529 0.10759 0.0
C127 C 0.59532 0.48769 0.17609 0.0
C128 C 0.48968 0.49788 1.03918 0.0
H129 H 0.72037 0.32531 0.2237 0.0
C130 C 0.65602 0.37324 0.17268 0.0
C131 C 0.57902 0.30653 0.10224 0.0
C132 C 0.51984 0.3713 1.036 0.0
C133 C 0.46978 0.58128 0.977 0.0
H134 H 0.48444 0.322 0.98174 0.0
C135 C 0.617 0.59665 0.95828 0.0
C136 C 0.67021 0.7149 0.93919 0.0
C137 C 0.32968 0.66349 0.94593 0.0
H138 H 0.21557 0.66442 0.95865 0.0
C139 C 0.33392 0.74485 0.89597 0.0
H140 H 0.68501 0.51661 0.96386 0.0
C141 C 0.50855 0.77746 0.89756 0.0
H142 H 0.52248 0.85584 0.87073 0.0
H143 H 0.20793 0.79099 0.86242 0.0
loop_
_geom_bond_atom_site_label_1
_geom_bond_atom_site_label_2
_geom_bond_distance
_geom_bond_site_symmetry_2
_ccdc_geom_bond_type
C0 O16 1.251 1_556 S
C0 O18 1.254 . S
N1 C2 1.333 1_545 S
N1 C6 1.307 . S
N1 Zn7 2.020 . S
C2 N1 1.333 1_565 S
C2 C3 1.379 . S
C2 H20 0.952 1_455 S
C3 C2 1.379 . S
C3 C4 1.390 1_565 S
C3 H30 0.949 1_455 S
C4 C3 1.390 1_545 S
C4 C5 1.357 . S
C5 C4 1.357 . S
C5 C6 1.370 . S
C5 H31 0.950 . S
C6 N1 1.307 . S
C6 C5 1.370 . S
C6 H24 0.948 . S
Zn7 N1 2.020 . S
Zn7 O16 2.039 1_445 S
Zn7 O22 2.034 1_455 S
Zn7 O26 2.025 . S
Zn7 O28 2.024 1_545 S
C8 O27 1.246 1_554 S
C8 O28 1.249 . S
N9 C10 1.307 . S
N9 C11 1.333 1_665 S
N9 Zn15 2.020 1_665 S
C10 N9 1.307 . S
C10 C14 1.370 . S
C10 H21 0.948 . S
C11 N9 1.333 1_445 S
C11 C12 1.379 . S
C11 H19 0.952 . S
C12 C11 1.379 . S
C12 C13 1.390 1_455 S
C12 H32 0.949 . S
C13 C12 1.390 1_655 S
C13 C14 1.357 1_545 S
C14 C10 1.370 . S
C14 C13 1.357 1_565 S
C14 H33 0.950 . S
Zn15 N9 2.020 1_445 S
Zn15 O18 2.025 1_445 S
Zn15 O23 2.024 1_455 S
Zn15 O25 2.039 . S
Zn15 O27 2.034 1_545 S
O16 C0 1.251 1_554 S
O16 Zn7 2.039 1_665 S
C17 O22 1.246 1_556 S
C17 O23 1.249 . S
O18 C0 1.254 . S
O18 Zn15 2.025 1_665 S
H19 C11 0.952 . S
H20 C2 0.952 1_655 S
H21 C10 0.948 . S
O22 Zn7 2.034 1_655 S
O22 C17 1.246 1_554 S
O23 Zn15 2.024 1_655 S
O23 C17 1.249 . S
H24 C6 0.948 . S
O25 Zn15 2.039 . S
O25 C29 1.251 1_556 S
O26 Zn7 2.025 . S
O26 C29 1.254 . S
O27 C8 1.246 1_556 S
O27 Zn15 2.034 1_565 S
O28 Zn7 2.024 1_565 S
O28 C8 1.249 . S
C29 O25 1.251 1_554 S
C29 O26 1.254 . S
H30 C3 0.949 1_655 S
H31 C5 0.950 . S
H32 C12 0.949 . S
H33 C14 0.950 . S
C34 O50 1.251 . S
C34 O52 1.254 . S
N35 C36 1.333 . S
N35 C40 1.307 . S
N35 Zn41 2.020 . S
C36 N35 1.333 . S
C36 C37 1.379 . S
C36 H54 0.952 . S
C37 C36 1.379 . S
C37 C38 1.390 . S
C37 H64 0.949 . S
C38 C37 1.390 . S
C38 C39 1.357 . S
C39 C38 1.357 . S
C39 C40 1.370 . S
C39 H65 0.950 . S
C40 N35 1.307 . S
C40 C39 1.370 . S
C40 H58 0.948 . S
Zn41 N35 2.020 . S
Zn41 O50 2.039 . S
Zn41 O56 2.034 . S
Zn41 O60 2.025 . S
Zn41 O62 2.024 . S
C42 O61 1.246 . S
C42 O62 1.249 . S
N43 C44 1.307 . S
N43 C45 1.333 . S
N43 Zn49 2.020 . S
C44 N43 1.307 . S
C44 C48 1.370 . S
C44 H55 0.948 . S
C45 N43 1.333 . S
C45 C46 1.379 . S
C45 H53 0.952 . S
C46 C45 1.379 . S
C46 C47 1.390 . S
C46 H66 0.949 . S
C47 C46 1.390 . S
C47 C48 1.357 . S
C48 C44 1.370 . S
C48 C47 1.357 . S
C48 H67 0.950 . S
Zn49 N43 2.020 . S
Zn49 O52 2.025 . S
Zn49 O57 2.024 . S
Zn49 O59 2.039 . S
Zn49 O61 2.034 . S
O50 C34 1.251 . S
O50 Zn41 2.039 . S
C51 O56 1.246 . S
C51 O57 1.249 . S
O52 C34 1.254 . S
O52 Zn49 2.025 . S
H53 C45 0.952 . S
H54 C36 0.952 . S
H55 C44 0.948 . S
O56 Zn41 2.034 . S
O56 C51 1.246 . S
O57 Zn49 2.024 . S
O57 C51 1.249 . S
H58 C40 0.948 . S
O59 Zn49 2.039 . S
O59 C63 1.251 . S
O60 Zn41 2.025 . S
O60 C63 1.254 . S
O61 C42 1.246 . S
O61 Zn49 2.034 . S
O62 Zn41 2.024 . S
O62 C42 1.249 . S
C63 O59 1.251 . S
C63 O60 1.254 . S
H64 C37 0.949 . S
H65 C39 0.950 . S
H66 C46 0.949 . S
H67 C48 0.950 . S
H68 C69 0.949 . S
C69 H68 0.949 . S
C69 C70 1.395 1_545 S
C69 C71 1.391 . S
C70 C69 1.395 1_565 S
C70 C73 1.390 . S
C71 C69 1.391 . S
C71 C75 1.387 1_545 S
C71 C76 1.491 . S
H72 C73 0.950 . S
C73 C70 1.390 . S
C73 H72 0.950 . S
C73 C74 1.378 . S
C74 C73 1.378 . S
C74 C75 1.409 . S
C75 C71 1.387 1_565 S
C75 C74 1.409 . S
C75 H77 0.951 . S
C76 C71 1.491 . S
C76 C78 1.382 1_455 S
C76 C80 1.404 . S
H77 C75 0.951 . S
C78 C76 1.382 1_655 S
C78 C79 1.390 . S
C78 H83 0.949 . S
C79 C78 1.390 . S
C79 C84 1.399 1_655 S
C80 C76 1.404 . S
C80 H81 0.950 . S
C80 C82 1.375 . S
H81 C80 0.950 . S
C82 C80 1.375 . S
C82 C84 1.382 . S
C82 H86 0.950 . S
H83 C78 0.949 . S
C84 C79 1.399 1_455 S
C84 C82 1.382 . S
C84 H85 0.952 . S
H85 C84 0.952 . S
H86 C82 0.950 . S
H87 C88 0.949 1_455 S
C88 H87 0.949 1_655 S
C88 C89 1.395 1_545 S
C88 C90 1.391 . S
C89 C88 1.395 1_565 S
C89 C92 1.390 . S
C90 C88 1.391 . S
C90 C94 1.387 1_545 S
C90 C95 1.491 1_655 S
H91 C92 0.950 . S
C92 C89 1.390 . S
C92 H91 0.950 . S
C92 C93 1.378 . S
C93 C92 1.378 . S
C93 C94 1.409 . S
C94 C90 1.387 1_565 S
C94 C93 1.409 . S
C94 H96 0.951 . S
C95 C90 1.491 1_455 S
C95 C97 1.382 . S
C95 C99 1.404 1_455 S
H96 C94 0.951 . S
C97 C95 1.382 . S
C97 C98 1.390 . S
C97 H102 0.949 . S
C98 C97 1.390 . S
C98 C103 1.399 . S
C99 C95 1.404 1_655 S
C99 H100 0.950 . S
C99 C101 1.375 . S
H100 C99 0.950 . S
C101 C99 1.375 . S
C101 C103 1.382 1_655 S
C101 H105 0.950 . S
H102 C97 0.949 . S
C103 C98 1.399 . S
C103 C101 1.382 1_455 S
C103 H104 0.952 . S
H104 C103 0.952 . S
H105 C101 0.950 . S
H106 C107 0.949 . S
C107 H106 0.949 . S
C107 C108 1.395 . S
C107 C109 1.391 1_556 S
C108 C107 1.395 . S
C108 C111 1.390 . S
C109 C107 1.391 1_554 S
C109 C113 1.387 . S
C109 C114 1.491 . S
H110 C111 0.950 . S
C111 C108 1.390 . S
C111 H110 0.950 . S
C111 C112 1.385 . S
C112 C111 1.385 . S
C112 C113 1.404 1_556 S
C113 C109 1.387 . S
C113 C112 1.404 1_554 S
C113 H115 0.951 . S
C114 C109 1.491 . S
C114 C116 1.382 . S
C114 C118 1.404 . S
H115 C113 0.951 . S
C116 C114 1.382 . S
C116 C117 1.390 . S
C116 H121 0.949 1_554 S
C117 C116 1.390 . S
C117 C122 1.399 . S
C118 C114 1.404 . S
C118 H119 0.950 . S
C118 C120 1.375 . S
H119 C118 0.950 . S
C120 C118 1.375 . S
C120 C122 1.382 . S
C120 H124 0.950 . S
H121 C116 0.949 1_556 S
C122 C117 1.399 . S
C122 C120 1.382 . S
C122 H123 0.952 . S
H123 C122 0.952 . S
H124 C120 0.950 . S
H125 C126 0.949 . S
C126 H125 0.949 . S
C126 C127 1.395 . S
C126 C128 1.391 . S
C127 C126 1.395 . S
C127 C130 1.390 . S
C128 C126 1.391 . S
C128 C132 1.387 1_554 S
C128 C133 1.491 1_554 S
H129 C130 0.950 . S
C130 C127 1.390 . S
C130 H129 0.950 . S
C130 C131 1.378 . S
C131 C130 1.378 . S
C131 C132 1.409 1_554 S
C132 C128 1.387 1_556 S
C132 C131 1.409 1_556 S
C132 H134 0.951 . S
C133 C128 1.491 1_556 S
C133 C135 1.382 . S
C133 C137 1.404 . S
H134 C132 0.951 . S
C135 C133 1.382 . S
C135 C136 1.390 . S
C135 H140 0.949 1_556 S
C136 C135 1.390 . S
C136 C141 1.399 . S
C137 C133 1.404 . S
C137 H138 0.950 . S
C137 C139 1.375 . S
H138 C137 0.950 . S
C139 C137 1.375 . S
C139 C141 1.382 . S
C139 H143 0.950 . S
H140 C135 0.949 1_554 S
C141 C136 1.399 . S
C141 C139 1.382 . S
C141 H142 0.952 . S
H142 C141 0.952 . S
H143 C139 0.950 . S
C131 C29 1.665 . S
C8 C117 1.798 . S
C0 C136 1.835 . S
C17 C112 1.674 . S
C63 C93 1.665 . S
C42 C79 1.798 . S
C98 C34 1.835 . S
C74 C51 1.673 . S
C4 C70 1.682 1_545 S
C13 C89 1.633 1_545 S
C108 C38 1.682 . S
C47 C127 1.633 . S
