# Generated by pormake.
# Topology zzz, (3,6)-cn, num edge types: 1
# Building blocks:
#     Node 0, Type 0, BuildingBlock: ESEHIV_clean_linker_0, # of connection points: 3
#     Node 1, Type 0, BuildingBlock: ESEHIV_clean_linker_0, # of connection points: 3
#     Node 2, Type 0, BuildingBlock: ESEHIV_clean_linker_0, # of connection points: 3
#     Node 3, Type 0, BuildingBlock: ESEHIV_clean_linker_0, # of connection points: 3
#     Node 4, Type 0, BuildingBlock: ESEHIV_clean_linker_0, # of connection points: 3
#     Node 5, Type 0, BuildingBlock: ESEHIV_clean_linker_0, # of connection points: 3
#     Node 6, Type 0, BuildingBlock: ESEHIV_clean_linker_0, # of connection points: 3
#     Node 7, Type 0, BuildingBlock: ESEHIV_clean_linker_0, # of connection points: 3
#     Node 8, Type 1, BuildingBlock: VOLQOD_clean_sbu_1, # of connection points: 6
#     Node 9, Type 1, BuildingBlock: VOLQOD_clean_sbu_1, # of connection points: 6
#     Node 10, Type 1, BuildingBlock: VOLQOD_clean_sbu_1, # of connection points: 6
#     Node 11, Type 1, BuildingBlock: VOLQOD_clean_sbu_1, # of connection points: 6
#     Edge 12, Type (0, 1), None
#     Edge 13, Type (0, 1), None
#     Edge 14, Type (0, 1), None
#     Edge 15, Type (0, 1), None
#     Edge 16, Type (0, 1), None
#     Edge 17, Type (0, 1), None
#     Edge 18, Type (0, 1), None
#     Edge 19, Type (0, 1), None
#     Edge 20, Type (0, 1), None
#     Edge 21, Type (0, 1), None
#     Edge 22, Type (0, 1), None
#     Edge 23, Type (0, 1), None
#     Edge 24, Type (0, 1), None
#     Edge 25, Type (0, 1), None
#     Edge 26, Type (0, 1), None
#     Edge 27, Type (0, 1), None
#     Edge 28, Type (0, 1), None
#     Edge 29, Type (0, 1), None
#     Edge 30, Type (0, 1), None
#     Edge 31, Type (0, 1), None
#     Edge 32, Type (0, 1), None
#     Edge 33, Type (0, 1), None
#     Edge 34, Type (0, 1), None
#     Edge 35, Type (0, 1), None
# Relax obj value: 0.355
# Max RMSD: 0.257
# Mean RMSD: 0.208
data_MOF--net-zzz--node1-VOLQOD_clean_sbu_1--node2-ESEHIV_clean_linker_0--edge1-none
_symmetry_space_group_name_H-M    P1
_symmetry_Int_Tables_number       1
_symmetry_cell_setting            triclinic
loop_
_symmetry_equiv_pos_as_xyz
'x, y, z'
_cell_length_a     18.847459
_cell_length_b     18.590537
_cell_length_c     8.0302819
_cell_angle_alpha  89.726907
_cell_angle_beta   90.110663
_cell_angle_gamma 90.070516
loop_
_atom_site_label
_atom_site_type_symbol
_atom_site_fract_x
_atom_site_fract_y
_atom_site_fract_z
_atom_type_partial_charge
H0 H 0.94592 0.48162 0.21061 0.0
H1 H 0.7992 0.45373 0.81253 0.0
H2 H 0.74273 0.58751 0.2316 0.0
C3 C 0.89541 0.49492 0.153 0.0
C4 C 0.84972 0.54207 0.23431 0.0
C5 C 0.87667 0.46165 0.00496 0.0
C6 C 0.81241 0.47868 0.93055 0.0
C7 C 0.76288 0.52365 0.00875 0.0
C8 C 0.78118 0.55567 0.16448 0.0
H9 H 0.10592 0.91204 0.1941 0.0
H10 H 0.10065 0.75062 0.83386 0.0
H11 H 0.95553 0.73655 0.25326 0.0
C12 C 0.08528 0.85961 0.15958 0.0
C13 C 0.03061 0.82677 0.25289 0.0
C14 C 0.10264 0.83668 0.00254 0.0
C15 C 0.08123 0.76885 0.95358 0.0
C16 C 0.02455 0.73337 0.03336 0.0
C17 C 0.99867 0.76252 0.18759 0.0
H18 H 0.65344 0.1106 0.29217 0.0
H19 H 0.79035 0.1458 0.88876 0.0
H20 H 0.8152 0.95351 0.18716 0.0
C21 C 0.69978 0.09455 0.22386 0.0
C22 C 0.7327 0.02861 0.26394 0.0
C23 C 0.70955 0.12419 0.06644 0.0
C24 C 0.77715 0.11483 -0.00059 0.0
C25 C 0.81516 0.05095 0.03443 0.0
C26 C 0.79058 1.00526 0.16464 0.0
H27 H 0.5475 0.5824 0.1086 0.0
H28 H 0.61036 0.79906 0.24013 0.0
H29 H 0.48615 0.75677 0.79971 0.0
C30 C 0.54852 0.63998 0.08413 0.0
C31 C 0.50754 0.66691 0.9564 0.0
C32 C 0.58017 0.68679 0.19823 0.0
C33 C 0.58652 0.76115 0.15468 0.0
C34 C 0.55606 0.78544 0.00152 0.0
C35 C 0.51335 0.73839 0.91168 0.0
H36 H 0.16404 0.62289 0.10204 0.0
H37 H 0.30767 0.59628 0.49803 0.0
H38 H 0.31132 0.44406 0.09359 0.0
C39 C 0.20998 0.59483 0.15179 0.0
C40 C 0.23342 0.53014 0.07656 0.0
C41 C 0.22506 0.60641 0.31818 0.0
C42 C 0.29047 0.58035 0.37456 0.0
C43 C 0.3228 0.52092 0.29593 0.0
C44 C 0.29259 0.49403 0.14652 0.0
H45 H 1.01701 0.10092 0.08709 0.0
H46 H 0.98015 0.24144 0.49746 0.0
H47 H 0.11084 0.31289 0.08923 0.0
C48 C 0.0264 0.15194 0.14834 0.0
C49 C 0.06817 0.20424 0.06986 0.0
C50 C 0.99331 0.16528 0.29903 0.0
C51 C 1.00618 0.23034 0.38 0.0
C52 C 0.04999 0.28312 0.3098 0.0
C53 C 0.08036 0.27104 0.15038 0.0
H54 H 0.40217 0.9286 0.04393 0.0
H55 H 0.28296 0.94471 0.48777 0.0
H56 H 0.25469 0.10321 0.09697 0.0
C57 C 0.35967 0.95406 0.11076 0.0
C58 C 0.33366 0.0202 0.05275 0.0
C59 C 0.35031 0.93381 0.27612 0.0
C60 C 0.29354 0.96365 0.36223 0.0
C61 C 0.25655 0.02341 0.29737 0.0
C62 C 0.27892 0.05431 0.14364 0.0
H63 H 0.57135 0.42056 0.07378 0.0
H64 H 0.46794 0.21437 0.09513 0.0
H65 H 0.59234 0.28962 0.51028 0.0
C66 C 0.55769 0.37211 0.14254 0.0
C67 C 0.58667 0.36117 0.29943 0.0
C68 C 0.51595 0.31978 0.06617 0.0
C69 C 0.49867 0.25625 0.15472 0.0
C70 C 0.52316 0.24738 0.32123 0.0
C71 C 0.56831 0.29943 0.38981 0.0
O72 O 0.19771 0.04162 0.55306 0.0
Zn73 Zn 0.125 0.04007 0.74043 0.0
O74 O 0.03191 0.03553 0.64995 0.0
Zn75 Zn 0.97701 0.11623 0.70334 0.0
Zn76 Zn 0.04631 1.01214 0.4304 0.0
Zn77 Zn 0.96858 0.95071 0.68173 0.0
O78 O 0.9134 0.09123 0.88737 0.0
O79 O 0.88393 0.97707 0.8434 0.0
O80 O 0.12713 0.12722 0.89459 0.0
O81 O 0.0431 0.19635 0.78643 0.0
O82 O 0.9137 0.1302 0.50296 0.0
O83 O 0.95353 0.04703 0.33643 0.0
O84 O 0.06337 0.9065 0.46179 0.0
O85 O 0.13551 0.94702 0.87234 0.0
O86 O 0.95193 0.8832 0.46434 0.0
O87 O 0.03238 0.89274 0.81284 0.0
C88 C 0.19447 0.04808 0.39444 0.0
C89 C 0.87672 0.03616 0.92443 0.0
C90 C 0.94113 0.11346 0.364 0.0
C91 C 0.09006 0.18495 0.89911 0.0
C92 C 1.01374 0.86666 0.41142 0.0
C93 C 0.09383 0.89268 0.87814 0.0
O94 O 0.13473 0.05125 0.321 0.0
O95 O 0.50414 0.18262 0.57542 0.0
Zn96 Zn 0.51295 0.10798 0.76779 0.0
O97 O 0.53639 1.01573 0.65832 0.0
Zn98 Zn 0.45985 0.95127 0.71057 0.0
Zn99 Zn 0.54243 0.01961 0.42166 0.0
Zn100 Zn 0.62718 0.97508 0.72266 0.0
O101 O 0.49824 0.8839 0.88623 0.0
O102 O 0.61539 0.88045 0.85594 0.0
O103 O 0.42331 0.09205 0.92352 0.0
O104 O 0.37308 1.00466 0.7846 0.0
O105 O 0.41626 0.89907 0.51597 0.0
O106 O 0.46198 0.97288 0.32999 0.0
O107 O 0.62794 0.97035 0.32484 0.0
O108 O 0.59727 0.13813 0.92056 0.0
O109 O 0.70147 0.98582 0.53256 0.0
O110 O 0.66451 0.04153 0.8816 0.0
C111 C 0.51409 0.17981 0.41701 0.0
C112 C 0.55873 0.85851 0.92819 0.0
C113 C 0.41645 0.92614 0.37046 0.0
C114 C 0.37073 0.04904 0.90313 0.0
C115 C 0.69068 0.98149 0.37615 0.0
C116 C 0.65383 0.1021 0.94834 0.0
O117 O 0.53067 0.12153 0.34453 0.0
O118 O 0.38271 0.48925 0.54383 0.0
Zn119 Zn 0.45544 0.47668 0.72911 0.0
O120 O 0.5473 0.49028 0.63056 0.0
Zn121 Zn 0.61045 0.41868 0.70021 0.0
Zn122 Zn 0.53358 0.51367 0.40487 0.0
Zn123 Zn 0.59142 0.58523 0.66476 0.0
O124 O 0.67226 0.46166 0.87548 0.0
O125 O 0.66643 0.58086 0.85897 0.0
O126 O 0.45405 0.38455 0.86861 0.0
O127 O 0.5555 0.3333 0.79722 0.0
O128 O 0.66968 0.39782 0.49734 0.0
O129 O 0.62816 0.47828 0.32349 0.0
O130 O 0.5211 0.62116 0.39591 0.0
O131 O 0.45033 0.55821 0.89278 0.0
O132 O 0.63107 0.63918 0.45357 0.0
O133 O 0.49496 0.62563 0.69773 0.0
C134 C 0.38355 0.48703 0.38425 0.0
C135 C 0.69199 0.52363 0.92571 0.0
C136 C 0.64026 0.41246 0.35847 0.0
C137 C 0.50032 0.33505 0.88961 0.0
C138 C 0.57678 0.65725 0.36933 0.0
C139 C 0.4723 0.61927 0.84292 0.0
O140 O 0.44147 0.47742 0.30535 0.0
O141 O 0.93061 0.60012 0.41212 0.0
Zn142 Zn 1.01638 0.60354 0.5789 0.0
O143 O 0.02827 0.50911 0.67768 0.0
Zn144 Zn 0.02347 0.51247 0.91534 0.0
Zn145 Zn 0.95125 0.44799 0.59842 0.0
Zn146 Zn 0.11986 0.46049 0.63511 0.0
O147 O 0.1175 0.51442 -0.00577 0.0
O148 O 0.19473 0.46222 0.83046 0.0
O149 O 1.00617 0.67053 0.78091 0.0
O150 O 0.98891 0.60871 0.01544 0.0
O151 O 0.98863 0.41504 0.97189 0.0
O152 O 0.91083 0.38736 0.78571 0.0
O153 O 0.99123 0.3815 0.42445 0.0
O154 O 0.10982 0.62826 0.44648 0.0
O155 O 0.10567 0.36923 0.49003 0.0
O156 O 0.16836 0.52621 0.49152 0.0
C157 C 0.87519 0.55996 0.40423 0.0
C158 C 0.18045 0.49648 0.96349 0.0
C159 C 0.92426 0.40747 0.93324 0.0
C160 C 0.99714 0.66884 0.93987 0.0
C161 C 0.05167 0.35225 0.40072 0.0
C162 C 0.16523 0.58887 0.43 0.0
O163 O 0.86925 0.50765 0.50608 0.0
loop_
_geom_bond_atom_site_label_1
_geom_bond_atom_site_label_2
_geom_bond_distance
_geom_bond_site_symmetry_2
_ccdc_geom_bond_type
H0 C3 0.931 . S
H1 C6 0.928 . S
H2 C8 0.930 . S
C3 H0 0.931 . S
C3 C4 1.413 . S
C3 C5 1.360 1_554 S
C4 C3 1.413 . S
C4 C8 1.429 . S
C5 C3 1.360 1_556 S
C5 C6 1.372 . S
C6 H1 0.928 . S
C6 C5 1.372 . S
C6 C7 1.404 . S
C7 C6 1.404 . S
C7 C8 1.391 1_556 S
C8 H2 0.930 . S
C8 C4 1.429 . S
C8 C7 1.391 1_554 S
H9 C12 0.931 . S
H10 C15 0.928 . S
H11 C17 0.930 . S
C12 H9 0.931 . S
C12 C13 1.413 . S
C12 C14 1.360 1_554 S
C13 C12 1.413 . S
C13 C17 1.429 . S
C14 C12 1.360 1_556 S
C14 C15 1.372 . S
C15 H10 0.928 . S
C15 C14 1.372 . S
C15 C16 1.404 1_556 S
C16 C15 1.404 1_554 S
C16 C17 1.391 . S
C17 H11 0.930 . S
C17 C13 1.429 . S
C17 C16 1.391 . S
H18 C21 0.931 . S
H19 C24 0.928 . S
H20 C26 0.930 . S
C21 H18 0.931 . S
C21 C22 1.413 . S
C21 C23 1.360 1_554 S
C22 C21 1.413 . S
C22 C26 1.429 1_565 S
C23 C21 1.360 1_556 S
C23 C24 1.373 . S
C24 H19 0.928 . S
C24 C23 1.373 . S
C24 C25 1.404 1_556 S
C25 C24 1.404 1_554 S
C25 C26 1.391 1_565 S
C26 H20 0.930 . S
C26 C22 1.429 1_545 S
C26 C25 1.391 1_545 S
H27 C30 0.931 . S
H28 C33 0.928 . S
H29 C35 0.930 . S
C30 H27 0.931 . S
C30 C31 1.413 1_554 S
C30 C32 1.360 . S
C31 C30 1.413 1_556 S
C31 C35 1.429 . S
C32 C30 1.360 . S
C32 C33 1.372 . S
C33 H28 0.928 . S
C33 C32 1.372 . S
C33 C34 1.404 . S
C34 C33 1.404 . S
C34 C35 1.391 1_554 S
C35 H29 0.930 . S
C35 C31 1.429 . S
C35 C34 1.391 1_556 S
H36 C39 0.931 . S
H37 C42 0.928 . S
H38 C44 0.930 . S
C39 H36 0.931 . S
C39 C40 1.413 . S
C39 C41 1.360 . S
C40 C39 1.413 . S
C40 C44 1.429 . S
C41 C39 1.360 . S
C41 C42 1.372 . S
C42 H37 0.928 . S
C42 C41 1.372 . S
C42 C43 1.404 . S
C43 C42 1.404 . S
C43 C44 1.391 . S
C44 H38 0.930 . S
C44 C40 1.429 . S
C44 C43 1.391 . S
H45 C48 0.931 . S
H46 C51 0.928 . S
H47 C53 0.930 . S
C48 H45 0.931 . S
C48 C49 1.413 . S
C48 C50 1.360 . S
C49 C48 1.413 . S
C49 C53 1.429 . S
C50 C48 1.360 . S
C50 C51 1.372 . S
C51 H46 0.928 . S
C51 C50 1.372 . S
C51 C52 1.404 . S
C52 C51 1.404 . S
C52 C53 1.391 . S
C53 H47 0.930 . S
C53 C49 1.429 . S
C53 C52 1.391 . S
H54 C57 0.931 . S
H55 C60 0.928 . S
H56 C62 0.930 . S
C57 H54 0.931 . S
C57 C58 1.413 . S
C57 C59 1.360 . S
C58 C57 1.413 . S
C58 C62 1.429 1_565 S
C59 C57 1.360 . S
C59 C60 1.372 . S
C60 H55 0.928 . S
C60 C59 1.372 . S
C60 C61 1.404 . S
C61 C60 1.404 . S
C61 C62 1.391 1_565 S
C62 H56 0.930 . S
C62 C58 1.429 1_545 S
C62 C61 1.391 1_545 S
H63 C66 0.931 . S
H64 C69 0.928 . S
H65 C71 0.930 . S
C66 H63 0.931 . S
C66 C67 1.413 . S
C66 C68 1.360 . S
C67 C66 1.413 . S
C67 C71 1.429 . S
C68 C66 1.360 . S
C68 C69 1.372 . S
C69 H64 0.928 . S
C69 C68 1.372 . S
C69 C70 1.404 . S
C70 C69 1.404 . S
C70 C71 1.391 . S
C71 H65 0.930 . S
C71 C67 1.429 . S
C71 C70 1.391 . S
O72 Zn73 1.953 . S
O72 C88 1.225 . S
Zn73 O72 1.953 . S
Zn73 O74 1.949 . S
Zn73 O80 1.919 1_566 S
Zn73 O85 1.924 . S
O74 Zn73 1.949 . S
O74 Zn75 1.923 1_465 S
O74 Zn76 1.950 . S
O74 Zn77 1.945 1_455 S
Zn75 O74 1.923 1_645 S
Zn75 O78 1.933 . S
Zn75 O81 1.941 1_655 S
Zn75 O82 1.965 . S
Zn76 O74 1.950 . S
Zn76 O83 1.938 1_565 S
Zn76 O84 1.906 . S
Zn76 O94 1.953 . S
Zn77 O74 1.945 1_655 S
Zn77 O79 1.932 . S
Zn77 O86 1.977 . S
Zn77 O87 1.910 1_655 S
O78 Zn75 1.933 . S
O78 C89 1.226 . S
O79 Zn77 1.932 . S
O79 C89 1.307 1_565 S
O80 Zn73 1.919 1_544 S
O80 C91 1.253 . S
O81 Zn75 1.941 1_455 S
O81 C91 1.283 1_556 S
O82 Zn75 1.965 . S
O82 C90 1.303 1_655 S
O83 Zn76 1.938 1_545 S
O83 C90 1.247 . S
O84 Zn76 1.906 . S
O84 C92 1.304 1_455 S
O85 Zn73 1.924 . S
O85 C93 1.311 . S
O86 Zn77 1.977 . S
O86 C92 1.272 . S
O87 Zn77 1.910 1_455 S
O87 C93 1.231 . S
C88 O72 1.225 . S
C88 O94 1.298 . S
C89 O78 1.226 . S
C89 O79 1.307 1_545 S
C90 O82 1.303 1_455 S
C90 O83 1.247 . S
C91 O80 1.253 . S
C91 O81 1.283 1_554 S
C92 O84 1.304 1_655 S
C92 O86 1.272 . S
C93 O85 1.311 . S
C93 O87 1.231 . S
O94 Zn76 1.953 . S
O94 C88 1.298 . S
O95 Zn96 1.953 . S
O95 C111 1.225 . S
Zn96 O95 1.953 . S
Zn96 O97 1.949 . S
Zn96 O103 1.919 1_556 S
Zn96 O108 1.924 . S
O97 Zn96 1.949 . S
O97 Zn98 1.923 1_545 S
O97 Zn99 1.950 . S
O97 Zn100 1.945 1_545 S
Zn98 O97 1.923 1_565 S
Zn98 O101 1.933 . S
Zn98 O104 1.941 . S
Zn98 O105 1.965 . S
Zn99 O97 1.950 . S
Zn99 O106 1.938 . S
Zn99 O107 1.906 1_545 S
Zn99 O117 1.953 . S
Zn100 O97 1.945 1_565 S
Zn100 O102 1.932 . S
Zn100 O109 1.977 . S
Zn100 O110 1.910 1_565 S
O101 Zn98 1.933 . S
O101 C112 1.226 . S
O102 Zn100 1.932 . S
O102 C112 1.307 . S
O103 Zn96 1.919 1_554 S
O103 C114 1.253 . S
O104 Zn98 1.941 . S
O104 C114 1.283 1_566 S
O105 Zn98 1.965 . S
O105 C113 1.303 . S
O106 Zn99 1.938 . S
O106 C113 1.247 1_545 S
O107 Zn99 1.906 1_565 S
O107 C115 1.304 . S
O108 Zn96 1.924 . S
O108 C116 1.311 . S
O109 Zn100 1.977 . S
O109 C115 1.272 . S
O110 Zn100 1.910 1_545 S
O110 C116 1.231 . S
C111 O95 1.225 . S
C111 O117 1.298 . S
C112 O101 1.226 . S
C112 O102 1.307 . S
C113 O105 1.303 . S
C113 O106 1.247 1_565 S
C114 O103 1.253 . S
C114 O104 1.283 1_544 S
C115 O107 1.304 . S
C115 O109 1.272 . S
C116 O108 1.311 . S
C116 O110 1.231 . S
O117 Zn99 1.953 . S
O117 C111 1.298 . S
O118 Zn119 1.953 . S
O118 C134 1.225 . S
Zn119 O118 1.953 . S
Zn119 O120 1.949 . S
Zn119 O126 1.919 . S
Zn119 O131 1.924 . S
O120 Zn119 1.949 . S
O120 Zn121 1.923 . S
O120 Zn122 1.950 . S
O120 Zn123 1.945 . S
Zn121 O120 1.923 . S
Zn121 O124 1.933 . S
Zn121 O127 1.941 . S
Zn121 O128 1.965 . S
Zn122 O120 1.950 . S
Zn122 O129 1.938 . S
Zn122 O130 1.906 . S
Zn122 O140 1.953 . S
Zn123 O120 1.945 . S
Zn123 O125 1.932 . S
Zn123 O132 1.977 . S
Zn123 O133 1.910 . S
O124 Zn121 1.933 . S
O124 C135 1.226 . S
O125 Zn123 1.932 . S
O125 C135 1.307 . S
O126 Zn119 1.919 . S
O126 C137 1.253 . S
O127 Zn121 1.941 . S
O127 C137 1.283 . S
O128 Zn121 1.965 . S
O128 C136 1.303 . S
O129 Zn122 1.938 . S
O129 C136 1.247 . S
O130 Zn122 1.906 . S
O130 C138 1.304 . S
O131 Zn119 1.924 . S
O131 C139 1.311 . S
O132 Zn123 1.977 . S
O132 C138 1.272 . S
O133 Zn123 1.910 . S
O133 C139 1.231 . S
C134 O118 1.225 . S
C134 O140 1.298 . S
C135 O124 1.226 . S
C135 O125 1.307 . S
C136 O128 1.303 . S
C136 O129 1.247 . S
C137 O126 1.253 . S
C137 O127 1.283 . S
C138 O130 1.304 . S
C138 O132 1.272 . S
C139 O131 1.311 . S
C139 O133 1.231 . S
O140 Zn122 1.953 . S
O140 C134 1.298 . S
O141 Zn142 1.953 1_655 S
O141 C157 1.225 . S
Zn142 O141 1.953 1_455 S
Zn142 O143 1.949 . S
Zn142 O149 1.919 1_455 S
Zn142 O154 1.924 . S
O143 Zn142 1.949 . S
O143 Zn144 1.923 1_455 S
O143 Zn145 1.950 1_455 S
O143 Zn146 1.945 . S
Zn144 O143 1.923 1_655 S
Zn144 O147 1.933 1_656 S
Zn144 O150 1.941 . S
Zn144 O151 1.965 . S
Zn145 O143 1.950 1_655 S
Zn145 O152 1.938 . S
Zn145 O153 1.906 . S
Zn145 O163 1.953 . S
Zn146 O143 1.945 . S
Zn146 O148 1.932 . S
Zn146 O155 1.977 . S
Zn146 O156 1.910 . S
O147 Zn144 1.933 1_454 S
O147 C158 1.226 . S
O148 Zn146 1.932 . S
O148 C158 1.307 1_556 S
O149 Zn142 1.919 1_655 S
O149 C160 1.253 . S
O150 Zn144 1.941 . S
O150 C160 1.283 . S
O151 Zn144 1.965 . S
O151 C159 1.303 . S
O152 Zn145 1.938 . S
O152 C159 1.247 . S
O153 Zn145 1.906 . S
O153 C161 1.304 1_655 S
O154 Zn142 1.924 . S
O154 C162 1.311 . S
O155 Zn146 1.977 . S
O155 C161 1.272 . S
O156 Zn146 1.910 . S
O156 C162 1.231 . S
C157 O141 1.225 . S
C157 O163 1.298 . S
C158 O147 1.226 . S
C158 O148 1.307 1_554 S
C159 O151 1.303 . S
C159 O152 1.247 . S
C160 O149 1.253 . S
C160 O150 1.283 . S
C161 O153 1.304 1_455 S
C161 O155 1.272 . S
C162 O154 1.311 . S
C162 O156 1.231 . S
O163 Zn145 1.953 . S
O163 C157 1.298 . S
C61 C88 2.110 . S
C111 C70 2.272 . S
C134 C43 2.025 . S
C161 C52 1.885 . S
C89 C25 1.813 1_546 S
C34 C112 1.918 1_554 S
C7 C135 1.794 . S
C16 C160 1.837 1_554 S
C90 C50 1.081 . S
C113 C59 0.719 . S
C136 C67 0.839 . S
C41 C162 1.074 . S
C14 C93 1.391 1_655 S
C116 C23 1.454 1_545 S
C139 C31 1.488 . S
C5 C159 0.767 . S
C49 C91 1.712 . S
C58 C114 1.662 1_565 S
C137 C68 1.694 1_556 S
C158 C40 1.703 . S
C13 C92 2.025 . S
C115 C22 1.863 . S
C138 C32 1.875 . S
C4 C157 1.951 . S
