# Generated by pormake.
# Topology rtl, (3,6)-cn, num edge types: 1
# Building blocks:
#     Node 0, Type 0, BuildingBlock: INOVEN_clean_linker_0, # of connection points: 3
#     Node 1, Type 0, BuildingBlock: INOVEN_clean_linker_0, # of connection points: 3
#     Node 2, Type 0, BuildingBlock: INOVEN_clean_linker_0, # of connection points: 3
#     Node 3, Type 0, BuildingBlock: INOVEN_clean_linker_0, # of connection points: 3
#     Node 4, Type 1, BuildingBlock: FUNLAD_clean_sbu_0, # of connection points: 6
#     Node 5, Type 1, BuildingBlock: FUNLAD_clean_sbu_0, # of connection points: 6
#     Edge 6, Type (0, 1), BuildingBlock: AJUNOK_clean_linker_0, # of connection points: 2
#     Edge 7, Type (0, 1), BuildingBlock: AJUNOK_clean_linker_0, # of connection points: 2
#     Edge 8, Type (0, 1), BuildingBlock: AJUNOK_clean_linker_0, # of connection points: 2
#     Edge 9, Type (0, 1), BuildingBlock: AJUNOK_clean_linker_0, # of connection points: 2
#     Edge 10, Type (0, 1), BuildingBlock: AJUNOK_clean_linker_0, # of connection points: 2
#     Edge 11, Type (0, 1), BuildingBlock: AJUNOK_clean_linker_0, # of connection points: 2
#     Edge 12, Type (0, 1), BuildingBlock: AJUNOK_clean_linker_0, # of connection points: 2
#     Edge 13, Type (0, 1), BuildingBlock: AJUNOK_clean_linker_0, # of connection points: 2
#     Edge 14, Type (0, 1), BuildingBlock: AJUNOK_clean_linker_0, # of connection points: 2
#     Edge 15, Type (0, 1), BuildingBlock: AJUNOK_clean_linker_0, # of connection points: 2
#     Edge 16, Type (0, 1), BuildingBlock: AJUNOK_clean_linker_0, # of connection points: 2
#     Edge 17, Type (0, 1), BuildingBlock: AJUNOK_clean_linker_0, # of connection points: 2
# Relax obj value: 0.003
# Max RMSD: 0.042
# Mean RMSD: 0.027
data_MOF--net-rtl--node1-FUNLAD_clean_sbu_0--node2-INOVEN_clean_linker_0--edge1-AJUNOK_clean_linker_0
_symmetry_space_group_name_H-M    P1
_symmetry_Int_Tables_number       1
_symmetry_cell_setting            triclinic
loop_
_symmetry_equiv_pos_as_xyz
'x, y, z'
_cell_length_a     30.412336
_cell_length_b     30.468918
_cell_length_c     15.319933
_cell_angle_alpha  91.627207
_cell_angle_beta   92.530544
_cell_angle_gamma 90.072982
loop_
_atom_site_label
_atom_site_type_symbol
_atom_site_fract_x
_atom_site_fract_y
_atom_site_fract_z
_atom_type_partial_charge
H0 H 0.18517 0.83827 0.85746 0.0
H1 H 0.09457 0.91701 0.00097 0.0
H2 H 0.1898 0.83757 0.13924 0.0
N3 N 0.22489 0.80174 0.99237 0.0
N4 N 0.24763 0.78997 0.05724 0.0
C5 C 0.17289 0.84983 0.91936 0.0
C6 C 0.13796 0.87964 0.92054 0.0
C7 C 0.19166 0.83421 -0.00235 0.0
C8 C 0.17571 0.84943 0.07818 0.0
C9 C 0.14032 0.87907 0.07925 0.0
C10 C 0.1216 0.89378 0.0003 0.0
H11 H 0.68511 0.69087 0.69029 0.0
H12 H 0.61013 0.59274 0.54115 0.0
H13 H 0.68716 0.6861 0.40878 0.0
N14 N 0.7208 0.72793 0.55544 0.0
N15 N 0.74111 0.73879 0.49039 0.0
C16 C 0.6745 0.67602 0.62774 0.0
C17 C 0.64612 0.63959 0.62443 0.0
C18 C 0.69026 0.69252 0.55033 0.0
C19 C 0.67592 0.67329 0.4692 0.0
C20 C 0.64693 0.63741 0.46582 0.0
C21 C 0.63273 0.62038 0.54357 0.0
H22 H 0.84145 0.18756 0.84814 0.0
H23 H 0.92717 0.10349 -0.00166 0.0
H24 H 0.83742 0.18897 0.12933 0.0
N25 N 0.80223 0.22475 0.98061 0.0
N26 N 0.78008 0.2367 0.04359 0.0
C27 C 0.85331 0.17554 0.9108 0.0
C28 C 0.88644 0.14365 0.91445 0.0
C29 C 0.83537 0.19214 0.98773 0.0
C30 C 0.85091 0.17651 0.06924 0.0
C31 C 0.88405 0.1445 0.07274 0.0
C32 C 0.9017 0.1284 -0.00455 0.0
H33 H 0.34272 0.33425 0.36084 0.0
H34 H 0.41476 0.43209 0.5163 0.0
H35 H 0.33713 0.33645 0.64171 0.0
N36 N 0.30593 0.29561 0.4907 0.0
N37 N 0.28421 0.28309 0.55257 0.0
C38 C 0.35245 0.34876 0.4242 0.0
C39 C 0.38051 0.38539 0.42978 0.0
C40 C 0.33591 0.33137 0.49995 0.0
C41 C 0.34892 0.35002 0.58245 0.0
C42 C 0.37723 0.38652 0.58814 0.0
C43 C 0.39242 0.40423 0.51174 0.0
C44 C 0.05625 0.96466 0.36939 0.0
N45 N 0.08781 0.08255 0.50698 0.0
C46 C 0.13071 0.06996 0.50528 0.0
C47 C 0.16435 0.10134 0.51109 0.0
C48 C 0.15367 0.146 0.51961 0.0
C49 C 0.10925 0.15809 0.52163 0.0
C50 C 0.07666 0.12571 0.51455 0.0
Zn51 Zn 0.03891 0.03607 0.4998 0.0
C52 C 0.96708 0.0583 0.3679 0.0
N53 N 0.93587 0.94013 0.48512 0.0
C54 C 0.9472 0.89695 0.48023 0.0
C55 C 0.89306 0.95258 0.49037 0.0
C56 C 0.85977 0.921 0.49235 0.0
C57 C 0.8707 0.87631 0.48789 0.0
C58 C 0.91493 0.86436 0.48082 0.0
Zn59 Zn 0.98469 0.98663 0.49017 0.0
O60 O 0.07207 1.00035 0.40228 0.0
C61 C 0.05532 0.96442 0.62298 0.0
O62 O 0.01924 0.95114 0.39353 0.0
H63 H 0.88471 0.98705 0.49385 0.0
H64 H 0.13891 0.03549 0.4999 0.0
H65 H 0.98141 0.8877 0.47693 0.0
O66 O 0.07268 0.99946 0.59719 0.0
O67 O 0.01847 0.95182 0.58893 0.0
H68 H 0.04239 0.13508 0.5154 0.0
O69 O 0.95128 0.02295 0.58658 0.0
O70 O 1.00536 0.07068 0.59804 0.0
O71 O 0.9514 0.02215 0.39206 0.0
O72 O 1.00367 0.07201 0.40196 0.0
C73 C 0.96809 0.05773 0.62148 0.0
H74 H 0.19835 0.09083 0.51027 0.0
H75 H 0.09986 0.19229 0.52779 0.0
H76 H 0.82586 0.93135 0.49679 0.0
H77 H 0.92448 0.83013 0.47746 0.0
C78 C 0.46369 0.46988 0.8933 0.0
N79 N 0.58298 0.43568 0.02439 0.0
C80 C 0.57042 0.39284 0.02706 0.0
C81 C 0.60199 0.35952 0.02864 0.0
C82 C 0.64673 0.37045 0.02599 0.0
C83 C 0.65876 0.41479 0.02279 0.0
C84 C 0.62623 0.44704 0.02248 0.0
Zn85 Zn 0.53689 0.48467 0.02596 0.0
C86 C 0.55963 0.55633 0.90543 0.0
N87 N 0.44306 0.58905 0.02991 0.0
C88 C 0.42902 0.60836 0.95473 0.0
C89 C 0.42705 0.60175 0.10825 0.0
C90 C 0.39507 0.63446 0.11286 0.0
C91 C 0.37956 0.65465 0.03624 0.0
C92 C 0.39747 0.64163 0.95653 0.0
Zn93 Zn 0.48869 0.53971 0.02647 0.0
O94 O 0.4989 0.45237 0.92367 0.0
C95 C 0.46642 0.46761 0.14655 0.0
O96 O 0.45177 0.50686 0.92452 0.0
H97 H 0.43887 0.58626 0.16741 0.0
H98 H 0.53589 0.38448 0.02834 0.0
H99 H 0.44228 0.59793 0.89318 0.0
O100 O 0.50152 0.4511 0.11826 0.0
O101 O 0.45353 0.50471 0.11954 0.0
H102 H 0.63561 0.48125 0.02134 0.0
O103 O 0.52615 0.57184 0.12746 0.0
O104 O 0.57379 0.51784 0.12896 0.0
O105 O 0.52486 0.57368 0.93386 0.0
O106 O 0.57165 0.51909 0.93288 0.0
C107 C 0.56138 0.55498 0.15865 0.0
H108 H 0.5916 0.32557 0.03105 0.0
H109 H 0.69304 0.42442 0.02189 0.0
H110 H 0.38215 0.64339 0.17567 0.0
H111 H 0.38742 0.65713 0.89615 0.0
C112 C 0.22255 0.24293 0.60678 0.0
C113 C 0.25366 0.24769 0.54279 0.0
C114 C 0.19028 0.20997 0.59887 0.0
C115 C 0.18861 0.18 0.52728 0.0
H116 H 0.22278 0.26552 0.66268 0.0
H117 H 0.16655 0.20778 0.64928 0.0
S118 S 0.26351 0.17708 0.34278 0.0
N119 N 0.28143 0.21884 0.40571 0.0
N120 N 0.22108 0.15658 0.3917 0.0
C121 C 0.2201 0.18374 0.4635 0.0
C122 C 0.25261 0.21767 0.47089 0.0
C123 C 0.31484 0.75476 0.1114 0.0
C124 C 0.2794 0.75599 0.04989 0.0
C125 C 0.34724 0.72215 0.10624 0.0
C126 C 0.34492 0.68909 0.03994 0.0
H127 H 0.3178 0.7797 0.16314 0.0
H128 H 0.37455 0.72313 0.15411 0.0
S129 S 0.25534 0.67464 0.86888 0.0
N130 N 0.24196 0.71969 0.92384 0.0
N131 N 0.30196 0.65769 0.91568 0.0
C132 C 0.30874 0.68925 0.97938 0.0
C133 C 0.27611 0.72279 0.984 0.0
C134 C 0.80022 0.77693 0.42327 0.0
C135 C 0.77201 0.7739 0.49283 0.0
C136 C 0.8321 0.81012 0.42217 0.0
C137 C 0.83623 0.84205 0.49005 0.0
H138 H 0.79787 0.75293 0.36972 0.0
H139 H 0.85351 0.811 0.36755 0.0
S140 S 0.76962 0.84969 0.68679 0.0
N141 N 0.74978 0.80618 0.63145 0.0
N142 N 0.80939 0.86901 0.62858 0.0
C143 C 0.80775 0.83992 0.55961 0.0
C144 C 0.77566 0.80571 0.56138 0.0
C145 C 0.71642 0.27408 0.1007 0.0
C146 C 0.74744 0.26997 0.03586 0.0
C147 C 0.68338 0.30615 0.09636 0.0
C148 C 0.68087 0.33582 0.02769 0.0
H149 H 0.71766 0.25201 0.15495 0.0
H150 H 0.6601 0.30824 0.14783 0.0
S151 S 0.75444 0.33955 0.84148 0.0
N152 N 0.77361 0.29863 0.90037 0.0
N153 N 0.71185 0.35915 0.89314 0.0
C154 C 0.71183 0.33231 0.96251 0.0
C155 C 0.7451 0.29932 0.96623 0.0
C156 C 0.0774 0.88797 0.17662 0.0
C157 C 0.12198 0.89557 0.16155 0.0
C158 C 0.05686 0.90928 0.24596 0.0
C159 C 0.07996 0.93968 0.30172 0.0
H160 H 0.05795 0.86637 0.13269 0.0
H161 H 0.02217 0.90313 0.25369 0.0
S162 S 0.19825 0.96893 0.29218 0.0
N163 N 0.18928 0.93349 0.20969 0.0
N164 N 0.15082 0.97417 0.33993 0.0
C165 C 0.12508 0.94636 0.28897 0.0
C166 C 0.14607 0.92412 0.21892 0.0
C167 C 0.59673 0.64286 0.7501 0.0
C168 C 0.62948 0.62088 0.70433 0.0
C169 C 0.57492 0.62209 0.81647 0.0
C170 C 0.58533 0.57871 0.83948 0.0
H171 H 0.58665 0.67558 0.73192 0.0
H172 H 0.54906 0.63987 0.84854 0.0
S173 S 0.67125 0.50857 0.74149 0.0
N174 N 0.67291 0.55477 0.68794 0.0
N175 N 0.63275 0.51561 0.81324 0.0
C176 C 0.61949 0.5572 0.79606 0.0
C177 C 0.64131 0.5783 0.72824 0.0
C178 C 0.88871 0.08351 0.17654 0.0
C179 C 0.90051 0.1264 0.15606 0.0
C180 C 0.90948 0.06237 0.247 0.0
C181 C 0.94339 0.08314 0.29858 0.0
H182 H 0.86423 0.06569 0.13595 0.0
H183 H 0.89989 0.0289 0.259 0.0
S184 S 0.9845 0.19672 0.27311 0.0
N185 N 0.94635 0.18987 0.19371 0.0
N186 N 0.98599 0.1503 0.32632 0.0
C187 C 0.95446 0.12674 0.28006 0.0
C188 C 0.93287 0.14833 0.20867 0.0
C189 C 0.42277 0.38259 0.72694 0.0
C190 C 0.39308 0.40594 0.67312 0.0
C191 C 0.44477 0.40328 0.79932 0.0
C192 C 0.43748 0.44791 0.82068 0.0
H193 H 0.43056 0.34874 0.71057 0.0
H194 H 0.46833 0.38436 0.83765 0.0
S195 S 0.36015 0.5222 0.70241 0.0
N196 N 0.35572 0.47492 0.64732 0.0
N197 N 0.39626 0.51393 0.78391 0.0
C198 C 0.40621 0.47094 0.76918 0.0
C199 C 0.38425 0.44993 0.69517 0.0
C200 C 0.63445 0.57313 0.36319 0.0
C201 C 0.62959 0.61827 0.38159 0.0
C202 C 0.61367 0.55319 0.28884 0.0
C203 C 0.58659 0.57759 0.2314 0.0
H204 H 0.6537 0.55297 0.40768 0.0
H205 H 0.6175 0.51812 0.27825 0.0
S206 S 0.56516 0.6974 0.24893 0.0
N207 N 0.59763 0.68721 0.33521 0.0
N208 N 0.55802 0.64984 0.19575 0.0
C209 C 0.58259 0.62307 0.2479 0.0
C210 C 0.60427 0.64341 0.32294 0.0
C211 C 0.95046 0.13021 0.82174 0.0
C212 C 0.90529 0.12533 0.83426 0.0
C213 C 0.97018 0.1093 0.75101 0.0
C214 C 0.94553 0.08202 0.69139 0.0
H215 H 0.9708 0.14978 0.8679 0.0
H216 H 1.00528 0.11344 0.74476 0.0
S217 S 0.82554 0.05991 0.69473 0.0
N218 N 0.83602 0.09283 0.7807 0.0
N219 N 0.87302 0.05273 0.64803 0.0
C220 C 0.90003 0.07763 0.70242 0.0
C221 C 0.8799 0.09953 0.7738 0.0
C222 C 0.39244 0.44892 0.33461 0.0
C223 C 0.39854 0.40414 0.35097 0.0
C224 C 0.41336 0.46882 0.26634 0.0
C225 C 0.44176 0.44479 0.21299 0.0
H226 H 0.372 0.46888 0.3761 0.0
H227 H 0.40837 0.50363 0.25734 0.0
S228 S 0.46701 0.3259 0.22716 0.0
N229 N 0.43331 0.33585 0.30698 0.0
N230 N 0.47314 0.37314 0.1788 0.0
C231 C 0.44716 0.39961 0.22735 0.0
C232 C 0.42536 0.37929 0.29627 0.0
C233 C 0.14176 0.92635 0.79032 0.0
C234 C 0.11818 0.89671 0.83896 0.0
C235 C 0.1214 0.94755 0.71932 0.0
C236 C 0.07695 0.93938 0.69422 0.0
H237 H 0.17563 0.93437 0.80931 0.0
H238 H 0.14046 0.971 0.68479 0.0
S239 S 1.00218 0.86206 0.79892 0.0
N240 N 0.0492 0.85869 0.85643 0.0
N241 N 0.01076 0.89769 0.72223 0.0
C242 C 0.05363 0.90837 0.74087 0.0
C243 C 0.0743 0.88729 0.81358 0.0
loop_
_geom_bond_atom_site_label_1
_geom_bond_atom_site_label_2
_geom_bond_distance
_geom_bond_site_symmetry_2
_ccdc_geom_bond_type
H0 C5 0.929 . S
H1 C10 0.931 . S
H2 C8 0.930 . S
N3 N4 1.234 1_556 S
N3 C7 1.453 1_556 S
N4 N3 1.234 1_554 S
C5 H0 0.929 . S
C5 C6 1.373 . S
C5 C7 1.368 1_556 S
C6 C5 1.373 . S
C6 C10 1.397 1_556 S
C7 N3 1.453 1_554 S
C7 C5 1.368 1_554 S
C7 C8 1.373 . S
C8 H2 0.930 . S
C8 C7 1.373 . S
C8 C9 1.371 . S
C9 C8 1.371 . S
C9 C10 1.383 . S
C10 H1 0.931 . S
C10 C6 1.397 1_554 S
C10 C9 1.383 . S
H11 C16 0.929 . S
H12 C21 0.931 . S
H13 C19 0.930 . S
N14 N15 1.234 . S
N14 C18 1.453 . S
N15 N14 1.234 . S
C16 H11 0.929 . S
C16 C17 1.373 . S
C16 C18 1.368 . S
C17 C16 1.373 . S
C17 C21 1.397 . S
C18 N14 1.453 . S
C18 C16 1.368 . S
C18 C19 1.373 . S
C19 H13 0.930 . S
C19 C18 1.373 . S
C19 C20 1.371 . S
C20 C19 1.371 . S
C20 C21 1.383 . S
C21 H12 0.931 . S
C21 C17 1.397 . S
C21 C20 1.383 . S
H22 C27 0.929 . S
H23 C32 0.931 . S
H24 C30 0.930 . S
N25 N26 1.234 1_556 S
N25 C29 1.453 . S
N26 N25 1.234 1_554 S
C27 H22 0.929 . S
C27 C28 1.373 . S
C27 C29 1.368 . S
C28 C27 1.373 . S
C28 C32 1.397 1_556 S
C29 N25 1.453 . S
C29 C27 1.368 . S
C29 C30 1.373 1_556 S
C30 H24 0.930 . S
C30 C29 1.373 1_554 S
C30 C31 1.371 . S
C31 C30 1.371 . S
C31 C32 1.383 . S
C32 H23 0.931 . S
C32 C28 1.397 1_554 S
C32 C31 1.383 . S
H33 C38 0.929 . S
H34 C43 0.931 . S
H35 C41 0.930 . S
N36 N37 1.234 . S
N36 C40 1.453 . S
N37 N36 1.234 . S
C38 H33 0.929 . S
C38 C39 1.373 . S
C38 C40 1.368 . S
C39 C38 1.373 . S
C39 C43 1.397 . S
C40 N36 1.453 . S
C40 C38 1.368 . S
C40 C41 1.373 . S
C41 H35 0.930 . S
C41 C40 1.373 . S
C41 C42 1.371 . S
C42 C41 1.371 . S
C42 C43 1.383 . S
C43 H34 0.931 . S
C43 C39 1.397 . S
C43 C42 1.383 . S
C44 O60 1.233 1_565 S
C44 O62 1.254 . S
N45 C46 1.333 . S
N45 C50 1.307 . S
N45 Zn51 2.020 . S
C46 N45 1.333 . S
C46 C47 1.379 . S
C46 H64 0.952 . S
C47 C46 1.379 . S
C47 C48 1.390 . S
C47 H74 0.949 . S
C48 C47 1.390 . S
C48 C49 1.357 . S
C49 C48 1.357 . S
C49 C50 1.370 . S
C49 H75 0.950 . S
C50 N45 1.307 . S
C50 C49 1.370 . S
C50 H68 0.948 . S
Zn51 N45 2.020 . S
Zn51 O60 2.051 . S
Zn51 O66 2.034 1_545 S
Zn51 O70 2.025 1_455 S
Zn51 O72 2.024 1_455 S
C52 O71 1.246 . S
C52 O72 1.249 . S
N53 C54 1.307 . S
N53 C55 1.333 . S
N53 Zn59 2.020 . S
C54 N53 1.307 . S
C54 C58 1.370 . S
C54 H65 0.948 . S
C55 N53 1.333 . S
C55 C56 1.379 . S
C55 H63 0.952 . S
C56 C55 1.379 . S
C56 C57 1.390 . S
C56 H76 0.949 . S
C57 C56 1.390 . S
C57 C58 1.357 . S
C58 C54 1.370 . S
C58 C57 1.357 . S
C58 H77 0.950 . S
Zn59 N53 2.020 . S
Zn59 O62 2.025 1_655 S
Zn59 O67 2.024 1_655 S
Zn59 O69 2.039 1_565 S
Zn59 O71 2.034 1_565 S
O60 C44 1.233 1_545 S
O60 Zn51 2.051 . S
C61 O66 1.246 . S
C61 O67 1.249 . S
O62 C44 1.254 . S
O62 Zn59 2.025 1_455 S
H63 C55 0.952 . S
H64 C46 0.952 . S
H65 C54 0.948 . S
O66 Zn51 2.034 1_565 S
O66 C61 1.246 . S
O67 Zn59 2.024 1_455 S
O67 C61 1.249 . S
H68 C50 0.948 . S
O69 Zn59 2.039 1_545 S
O69 C73 1.251 . S
O70 Zn51 2.025 1_655 S
O70 C73 1.254 . S
O71 C52 1.246 . S
O71 Zn59 2.034 1_545 S
O72 Zn51 2.024 1_655 S
O72 C52 1.249 . S
C73 O69 1.251 . S
C73 O70 1.254 . S
H74 C47 0.949 . S
H75 C49 0.950 . S
H76 C56 0.949 . S
H77 C58 0.950 . S
C78 O94 1.251 . S
C78 O96 1.254 . S
N79 C80 1.333 . S
N79 C84 1.307 . S
N79 Zn85 2.020 . S
C80 N79 1.333 . S
C80 C81 1.379 . S
C80 H98 0.952 1_554 S
C81 C80 1.379 . S
C81 C82 1.390 . S
C81 H108 0.949 1_554 S
C82 C81 1.390 . S
C82 C83 1.357 . S
C83 C82 1.357 . S
C83 C84 1.370 . S
C83 H109 0.950 . S
C84 N79 1.307 . S
C84 C83 1.370 . S
C84 H102 0.948 . S
Zn85 N79 2.020 . S
Zn85 O94 2.039 1_554 S
Zn85 O100 2.034 . S
Zn85 O104 2.025 . S
Zn85 O106 2.024 1_554 S
C86 O105 1.246 . S
C86 O106 1.249 . S
N87 C88 1.307 . S
N87 C89 1.333 . S
N87 Zn93 2.020 . S
C88 N87 1.307 . S
C88 C92 1.370 . S
C88 H99 0.948 1_554 S
C89 N87 1.333 . S
C89 C90 1.379 . S
C89 H97 0.952 . S
C90 C89 1.379 . S
C90 C91 1.390 . S
C90 H110 0.949 . S
C91 C90 1.390 . S
C91 C92 1.357 . S
C92 C88 1.370 . S
C92 C91 1.357 . S
C92 H111 0.950 1_554 S
Zn93 N87 2.020 . S
Zn93 O96 2.025 1_554 S
Zn93 O101 2.024 . S
Zn93 O103 2.039 . S
Zn93 O105 2.034 1_554 S
O94 C78 1.251 . S
O94 Zn85 2.039 1_556 S
C95 O100 1.246 . S
C95 O101 1.249 . S
O96 C78 1.254 . S
O96 Zn93 2.025 1_556 S
H97 C89 0.952 . S
H98 C80 0.952 1_556 S
H99 C88 0.948 1_556 S
O100 Zn85 2.034 . S
O100 C95 1.246 . S
O101 Zn93 2.024 . S
O101 C95 1.249 . S
H102 C84 0.948 . S
O103 Zn93 2.039 . S
O103 C107 1.251 . S
O104 Zn85 2.025 . S
O104 C107 1.254 . S
O105 C86 1.246 . S
O105 Zn93 2.034 1_556 S
O106 Zn85 2.024 1_556 S
O106 C86 1.249 . S
C107 O103 1.251 . S
C107 O104 1.254 . S
H108 C81 0.949 1_556 S
H109 C83 0.950 . S
H110 C90 0.949 . S
H111 C92 0.950 1_556 S
C112 C113 1.369 . S
C112 C114 1.419 . S
C112 H116 0.930 . S
C113 C112 1.369 . S
C113 C122 1.429 . S
C114 C112 1.419 . S
C114 C115 1.363 . S
C114 H117 0.929 . S
C115 C114 1.363 . S
C115 C121 1.428 . S
H116 C112 0.930 . S
H117 C114 0.929 . S
S118 N119 1.613 . S
S118 N120 1.610 . S
N119 S118 1.613 . S
N119 C122 1.350 . S
N120 S118 1.610 . S
N120 C121 1.351 . S
C121 C115 1.428 . S
C121 N120 1.351 . S
C121 C122 1.434 . S
C122 C113 1.429 . S
C122 N119 1.350 . S
C122 C121 1.434 . S
C123 C124 1.369 . S
C123 C125 1.419 . S
C123 H127 0.930 . S
C124 C123 1.369 . S
C124 C133 1.429 . S
C125 C123 1.419 . S
C125 C126 1.363 . S
C125 H128 0.929 . S
C126 C125 1.363 . S
C126 C132 1.428 . S
H127 C123 0.930 . S
H128 C125 0.929 . S
S129 N130 1.613 1_556 S
S129 N131 1.611 . S
N130 S129 1.613 1_554 S
N130 C133 1.350 . S
N131 S129 1.611 . S
N131 C132 1.349 1_556 S
C132 C126 1.428 . S
C132 N131 1.349 1_554 S
C132 C133 1.434 . S
C133 C124 1.429 . S
C133 N130 1.350 . S
C133 C132 1.434 . S
C134 C135 1.369 . S
C134 C136 1.419 . S
C134 H138 0.930 . S
C135 C134 1.369 . S
C135 C144 1.429 . S
C136 C134 1.419 . S
C136 C137 1.363 . S
C136 H139 0.929 . S
C137 C136 1.363 . S
C137 C143 1.428 . S
H138 C134 0.930 . S
H139 C136 0.929 . S
S140 N141 1.613 . S
S140 N142 1.610 . S
N141 S140 1.613 . S
N141 C144 1.350 . S
N142 S140 1.610 . S
N142 C143 1.351 . S
C143 C137 1.428 . S
C143 N142 1.351 . S
C143 C144 1.434 . S
C144 C135 1.429 . S
C144 N141 1.350 . S
C144 C143 1.434 . S
C145 C146 1.369 . S
C145 C147 1.419 . S
C145 H149 0.930 . S
C146 C145 1.369 . S
C146 C155 1.429 1_554 S
C147 C145 1.419 . S
C147 C148 1.363 . S
C147 H150 0.929 . S
C148 C147 1.363 . S
C148 C154 1.428 1_554 S
H149 C145 0.930 . S
H150 C147 0.929 . S
S151 N152 1.613 . S
S151 N153 1.610 . S
N152 S151 1.613 . S
N152 C155 1.350 . S
N153 S151 1.610 . S
N153 C154 1.351 . S
C154 C148 1.428 1_556 S
C154 N153 1.351 . S
C154 C155 1.434 . S
C155 C146 1.429 1_556 S
C155 N152 1.350 . S
C155 C154 1.434 . S
C156 C157 1.369 . S
C156 C158 1.419 . S
C156 H160 0.930 . S
C157 C156 1.369 . S
C157 C166 1.429 . S
C158 C156 1.419 . S
C158 C159 1.363 . S
C158 H161 0.929 . S
C159 C158 1.363 . S
C159 C165 1.428 . S
H160 C156 0.930 . S
H161 C158 0.929 . S
S162 N163 1.613 . S
S162 N164 1.610 . S
N163 S162 1.613 . S
N163 C166 1.350 . S
N164 S162 1.610 . S
N164 C165 1.351 . S
C165 C159 1.428 . S
C165 N164 1.351 . S
C165 C166 1.434 . S
C166 C157 1.429 . S
C166 N163 1.350 . S
C166 C165 1.434 . S
C167 C168 1.369 . S
C167 C169 1.419 . S
C167 H171 0.930 . S
C168 C167 1.369 . S
C168 C177 1.429 . S
C169 C167 1.419 . S
C169 C170 1.363 . S
C169 H172 0.929 . S
C170 C169 1.363 . S
C170 C176 1.428 . S
H171 C167 0.930 . S
H172 C169 0.929 . S
S173 N174 1.613 . S
S173 N175 1.610 . S
N174 S173 1.613 . S
N174 C177 1.350 . S
N175 S173 1.610 . S
N175 C176 1.351 . S
C176 C170 1.428 . S
C176 N175 1.351 . S
C176 C177 1.434 . S
C177 C168 1.429 . S
C177 N174 1.350 . S
C177 C176 1.434 . S
C178 C179 1.369 . S
C178 C180 1.419 . S
C178 H182 0.930 . S
C179 C178 1.369 . S
C179 C188 1.429 . S
C180 C178 1.419 . S
C180 C181 1.363 . S
C180 H183 0.929 . S
C181 C180 1.363 . S
C181 C187 1.428 . S
H182 C178 0.930 . S
H183 C180 0.929 . S
S184 N185 1.613 . S
S184 N186 1.610 . S
N185 S184 1.613 . S
N185 C188 1.350 . S
N186 S184 1.610 . S
N186 C187 1.351 . S
C187 C181 1.428 . S
C187 N186 1.351 . S
C187 C188 1.434 . S
C188 C179 1.429 . S
C188 N185 1.350 . S
C188 C187 1.434 . S
C189 C190 1.369 . S
C189 C191 1.419 . S
C189 H193 0.930 . S
C190 C189 1.369 . S
C190 C199 1.429 . S
C191 C189 1.419 . S
C191 C192 1.363 . S
C191 H194 0.929 . S
C192 C191 1.363 . S
C192 C198 1.428 . S
H193 C189 0.930 . S
H194 C191 0.929 . S
S195 N196 1.613 . S
S195 N197 1.610 . S
N196 S195 1.613 . S
N196 C199 1.350 . S
N197 S195 1.610 . S
N197 C198 1.351 . S
C198 C192 1.428 . S
C198 N197 1.351 . S
C198 C199 1.434 . S
C199 C190 1.429 . S
C199 N196 1.350 . S
C199 C198 1.434 . S
C200 C201 1.369 . S
C200 C202 1.419 . S
C200 H204 0.930 . S
C201 C200 1.369 . S
C201 C210 1.429 . S
C202 C200 1.419 . S
C202 C203 1.363 . S
C202 H205 0.929 . S
C203 C202 1.363 . S
C203 C209 1.428 . S
H204 C200 0.930 . S
H205 C202 0.929 . S
S206 N207 1.613 . S
S206 N208 1.610 . S
N207 S206 1.613 . S
N207 C210 1.350 . S
N208 S206 1.610 . S
N208 C209 1.351 . S
C209 C203 1.428 . S
C209 N208 1.351 . S
C209 C210 1.434 . S
C210 C201 1.429 . S
C210 N207 1.350 . S
C210 C209 1.434 . S
C211 C212 1.369 . S
C211 C213 1.419 . S
C211 H215 0.930 . S
C212 C211 1.369 . S
C212 C221 1.429 . S
C213 C211 1.419 . S
C213 C214 1.363 . S
C213 H216 0.929 . S
C214 C213 1.363 . S
C214 C220 1.428 . S
H215 C211 0.930 . S
H216 C213 0.929 . S
S217 N218 1.613 . S
S217 N219 1.610 . S
N218 S217 1.613 . S
N218 C221 1.350 . S
N219 S217 1.610 . S
N219 C220 1.351 . S
C220 C214 1.428 . S
C220 N219 1.351 . S
C220 C221 1.434 . S
C221 C212 1.429 . S
C221 N218 1.350 . S
C221 C220 1.434 . S
C222 C223 1.369 . S
C222 C224 1.419 . S
C222 H226 0.930 . S
C223 C222 1.369 . S
C223 C232 1.429 . S
C224 C222 1.419 . S
C224 C225 1.363 . S
C224 H227 0.929 . S
C225 C224 1.363 . S
C225 C231 1.428 . S
H226 C222 0.930 . S
H227 C224 0.929 . S
S228 N229 1.613 . S
S228 N230 1.610 . S
N229 S228 1.613 . S
N229 C232 1.350 . S
N230 S228 1.610 . S
N230 C231 1.351 . S
C231 C225 1.428 . S
C231 N230 1.351 . S
C231 C232 1.434 . S
C232 C223 1.429 . S
C232 N229 1.350 . S
C232 C231 1.434 . S
C233 C234 1.369 . S
C233 C235 1.419 . S
C233 H237 0.930 . S
C234 C233 1.369 . S
C234 C243 1.429 . S
C235 C233 1.419 . S
C235 C236 1.363 . S
C235 H238 0.929 . S
C236 C235 1.363 . S
C236 C242 1.428 . S
H237 C233 0.930 . S
H238 C235 0.929 . S
S239 N240 1.615 1_655 S
S239 N241 1.611 1_655 S
N240 S239 1.615 1_455 S
N240 C243 1.350 . S
N241 S239 1.611 1_455 S
N241 C242 1.351 . S
C242 C236 1.428 . S
C242 N241 1.351 . S
C242 C243 1.434 . S
C243 C234 1.429 . S
C243 N240 1.350 . S
C243 C242 1.434 . S
C115 C48 1.505 . S
C113 N37 1.506 . S
C124 N4 1.505 . S
C126 C91 1.507 . S
C135 N15 1.499 . S
C137 C57 1.508 . S
C146 N26 1.502 . S
C148 C82 1.504 . S
C159 C44 1.559 . S
C157 C9 1.533 . S
C170 C86 1.537 . S
C168 C17 1.535 . S
C179 C31 1.534 . S
C181 C52 1.553 . S
C190 C42 1.512 . S
C192 C78 1.539 . S
C203 C107 1.471 . S
C201 C20 1.454 . S
C214 C73 1.456 . S
C212 C28 1.453 . S
C225 C95 1.471 . S
C223 C39 1.470 . S
C234 C6 1.452 . S
C236 C61 1.455 . S
