# Generated by pormake.
# Topology rtl, (3,6)-cn, num edge types: 1
# Building blocks:
#     Node 0, Type 0, BuildingBlock: BELTOD_clean_linker_0, # of connection points: 3
#     Node 1, Type 0, BuildingBlock: BELTOD_clean_linker_0, # of connection points: 3
#     Node 2, Type 0, BuildingBlock: BELTOD_clean_linker_0, # of connection points: 3
#     Node 3, Type 0, BuildingBlock: BELTOD_clean_linker_0, # of connection points: 3
#     Node 4, Type 1, BuildingBlock: CIFDUS_clean_sbu_1, # of connection points: 6
#     Node 5, Type 1, BuildingBlock: CIFDUS_clean_sbu_1, # of connection points: 6
#     Edge 6, Type (0, 1), BuildingBlock: EYOCIG_clean_linker_4, # of connection points: 2
#     Edge 7, Type (0, 1), BuildingBlock: EYOCIG_clean_linker_4, # of connection points: 2
#     Edge 8, Type (0, 1), BuildingBlock: EYOCIG_clean_linker_4, # of connection points: 2
#     Edge 9, Type (0, 1), BuildingBlock: EYOCIG_clean_linker_4, # of connection points: 2
#     Edge 10, Type (0, 1), BuildingBlock: EYOCIG_clean_linker_4, # of connection points: 2
#     Edge 11, Type (0, 1), BuildingBlock: EYOCIG_clean_linker_4, # of connection points: 2
#     Edge 12, Type (0, 1), BuildingBlock: EYOCIG_clean_linker_4, # of connection points: 2
#     Edge 13, Type (0, 1), BuildingBlock: EYOCIG_clean_linker_4, # of connection points: 2
#     Edge 14, Type (0, 1), BuildingBlock: EYOCIG_clean_linker_4, # of connection points: 2
#     Edge 15, Type (0, 1), BuildingBlock: EYOCIG_clean_linker_4, # of connection points: 2
#     Edge 16, Type (0, 1), BuildingBlock: EYOCIG_clean_linker_4, # of connection points: 2
#     Edge 17, Type (0, 1), BuildingBlock: EYOCIG_clean_linker_4, # of connection points: 2
# Relax obj value: 0.026
# Max RMSD: 0.063
# Mean RMSD: 0.044
data_MOF--net-rtl--node1-CIFDUS_clean_sbu_1--node2-BELTOD_clean_linker_0--edge1-EYOCIG_clean_linker_4
_symmetry_space_group_name_H-M    P1
_symmetry_Int_Tables_number       1
_symmetry_cell_setting            triclinic
loop_
_symmetry_equiv_pos_as_xyz
'x, y, z'
_cell_length_a     28.532398
_cell_length_b     31.975358
_cell_length_c     22.077837
_cell_angle_alpha  89.272328
_cell_angle_beta   97.637898
_cell_angle_gamma 89.9035
loop_
_atom_site_label
_atom_site_type_symbol
_atom_site_fract_x
_atom_site_fract_y
_atom_site_fract_z
_atom_type_partial_charge
P0 P 0.32564 0.92691 0.10425 0.0
H1 H 0.34844 0.95901 0.22838 0.0
H2 H 0.30012 0.97294 0.31021 0.0
H3 H 0.17687 0.92686 0.19661 0.0
H4 H 0.22517 0.91296 0.11474 0.0
H5 H 0.41513 0.89285 0.07438 0.0
H6 H 0.44715 0.82133 0.07585 0.0
H7 H 0.32187 0.77469 0.14325 0.0
H8 H 0.28995 0.84603 0.14205 0.0
H9 H 0.28264 1.00162 0.04187 0.0
H10 H 0.28973 0.86963 1.00522 0.0
O11 O 0.36967 0.96155 0.11042 0.0
H12 H 0.23144 0.01225 0.94377 0.0
H13 H 0.23909 0.88031 0.90813 0.0
C14 C 0.29022 0.93575 0.165 0.0
C15 C 0.31103 0.95196 0.22097 0.0
C16 C 0.28351 0.95983 0.26769 0.0
C17 C 0.2349 0.95125 0.25925 0.0
C18 C 0.21429 0.93398 0.20391 0.0
C19 C 0.24182 0.92616 0.15715 0.0
C20 C 0.35075 0.87492 0.10984 0.0
C21 C 0.39491 0.86737 0.09051 0.0
C22 C 0.41311 0.82661 0.09118 0.0
C23 C 0.38711 0.79297 0.11068 0.0
C24 C 0.34275 0.80042 0.1291 0.0
C25 C 0.32464 0.84113 0.1286 0.0
C26 C 0.29023 0.9349 0.03091 0.0
C27 C 0.27349 0.97506 0.01272 0.0
C28 C 0.24429 0.9811 0.95693 0.0
C29 C 0.23156 0.94693 0.91894 0.0
C30 C 0.24858 0.907 0.93691 0.0
C31 C 0.27761 0.90097 0.99249 0.0
P32 P 0.79899 0.62836 0.59311 0.0
H33 H 0.81419 0.59176 0.47656 0.0
H34 H 0.76147 0.58022 0.38105 0.0
H35 H 0.64549 0.63425 0.46036 0.0
H36 H 0.69818 0.64573 0.55616 0.0
H37 H 0.89001 0.66084 0.64807 0.0
H38 H 0.92484 0.731 0.65245 0.0
H39 H 0.79772 0.78063 0.54879 0.0
H40 H 0.76277 0.71027 0.54421 0.0
H41 H 0.76376 0.55145 0.64056 0.0
H42 H 0.76181 0.6827 0.68337 0.0
O43 O 0.84323 0.59378 0.59731 0.0
H44 H 0.71852 0.53578 0.72509 0.0
H45 H 0.71657 0.6669 0.76819 0.0
C46 C 0.76007 0.61961 0.52336 0.0
C47 C 0.77746 0.60112 0.47354 0.0
C48 C 0.74746 0.59456 0.41911 0.0
C49 C 0.69992 0.60683 0.41379 0.0
C50 C 0.68227 0.6249 0.46369 0.0
C51 C 0.71228 0.63139 0.51821 0.0
C52 C 0.82405 0.68021 0.59513 0.0
C53 C 0.86958 0.68673 0.62615 0.0
C54 C 0.88938 0.72677 0.62895 0.0
C55 C 0.86371 0.76093 0.60138 0.0
C56 C 0.81798 0.75462 0.57071 0.0
C57 C 0.79815 0.71446 0.56782 0.0
C58 C 0.76694 0.61805 0.65654 0.0
C59 C 0.75399 0.57681 0.6685 0.0
C60 C 0.72817 0.56788 0.71654 0.0
C61 C 0.71488 0.60013 0.75308 0.0
C62 C 0.72708 0.64157 0.74072 0.0
C63 C 0.75293 0.65053 0.69245 0.0
P64 P 0.81028 0.19943 0.00724 0.0
H65 H 0.84662 0.21838 0.89334 0.0
H66 H 0.86257 0.17448 0.80837 0.0
H67 H 0.79683 0.06963 0.88814 0.0
H68 H 0.78105 0.11368 0.97392 0.0
H69 H 0.79313 0.2796 0.05931 0.0
H70 H 0.72453 0.32618 0.05 0.0
H71 H 0.64147 0.23418 0.9425 0.0
H72 H 0.71099 0.18719 0.95149 0.0
H73 H 0.89289 0.15426 0.06265 0.0
H74 H 0.74866 0.17094 0.09713 0.0
O75 O 0.85584 0.23249 0.01288 0.0
H76 H 0.91189 0.11885 0.16192 0.0
H77 H 0.76781 0.13523 0.19676 0.0
C78 C 0.81315 0.16909 0.94006 0.0
C79 C 0.83486 0.18618 0.89216 0.0
C80 C 0.84393 0.16119 0.84372 0.0
C81 C 0.8308 0.119 0.84231 0.0
C82 C 0.80696 0.10227 0.88857 0.0
C83 C 0.79802 0.12733 0.93734 0.0
C84 C 0.75749 0.23063 1.00433 0.0
C85 C 0.76028 0.26932 0.03363 0.0
C86 C 0.72112 0.29587 0.02845 0.0
C87 C 0.67843 0.28396 0.99441 0.0
C88 C 0.67454 0.24418 0.96797 0.0
C89 C 0.71406 0.21747 0.97304 0.0
C90 C 0.81986 0.16626 0.07372 0.0
C91 C 0.86519 0.14971 0.09121 0.0
C92 C 0.87599 0.1295 0.14761 0.0
C93 C 0.8414 0.12552 0.18667 0.0
C94 C 0.79497 0.13878 0.16716 0.0
C95 C 0.78415 0.15918 0.11058 0.0
P96 P 0.28205 0.35809 0.50537 0.0
H97 H 0.31904 0.33273 0.62776 0.0
H98 H 0.33974 0.37117 0.72193 0.0
H99 H 0.28029 0.48395 0.6334 0.0
H100 H 0.25988 0.44508 0.53735 0.0
H101 H 0.26492 0.27545 0.45693 0.0
H102 H 0.1974 0.22861 0.44998 0.0
H103 H 0.11452 0.32421 0.52257 0.0
H104 H 0.18351 0.37167 0.5308 0.0
H105 H 0.36241 0.40396 0.47477 0.0
H106 H 0.21762 0.38499 0.39531 0.0
O107 O 0.32774 0.32491 0.51093 0.0
H108 H 0.37818 0.441 0.38204 0.0
H109 H 0.23341 0.42273 0.30211 0.0
C110 C 0.28858 0.38621 0.57562 0.0
C111 C 0.30977 0.36555 0.62847 0.0
C112 C 0.32151 0.38742 0.68221 0.0
C113 C 0.31151 0.43007 0.68422 0.0
C114 C 0.28812 0.45081 0.63236 0.0
C115 C 0.27656 0.42875 0.57786 0.0
C116 C 0.22942 0.32675 0.49518 0.0
C117 C 0.2323 0.28673 0.47102 0.0
C118 C 0.19366 0.26002 0.46666 0.0
C119 C 0.15112 0.27308 0.48524 0.0
C120 C 0.14715 0.31378 0.50743 0.0
C121 C 0.18639 0.34068 0.51237 0.0
C122 C 0.28904 0.39158 0.44152 0.0
C123 C 0.33379 0.40853 0.43779 0.0
C124 C 0.34278 0.42961 0.38498 0.0
C125 C 0.30696 0.43437 0.33551 0.0
C126 C 0.26141 0.41928 0.34011 0.0
C127 C 0.25245 0.39782 0.39313 0.0
O128 O 0.97526 0.04795 0.48066 0.0
Mn129 Mn 0.01875 0.01768 0.55191 0.0
O130 O 0.94741 0.9991 0.41307 0.0
Mn131 Mn 0.98559 0.95707 0.44962 0.0
O132 O 0.06294 0.98819 0.6253 0.0
O133 O 0.04731 0.07472 0.57327 0.0
Mn134 Mn 0.05291 0.08037 0.65322 0.0
O135 O 0.96615 0.02786 0.60811 0.0
O136 O 0.09344 0.03956 0.68759 0.0
O137 O 0.07193 0.00758 0.49468 0.0
O138 O 0.0462 0.95631 0.42991 0.0
O139 O 0.0753 0.12934 0.62529 0.0
O140 O 0.99259 0.07829 0.67437 0.0
C141 C 0.96627 0.92487 0.52577 0.0
C142 C 0.94921 0.03641 0.43192 0.0
C143 C 0.09045 1.00146 0.67236 0.0
C144 C 0.06359 0.11261 0.5724 0.0
C145 C 0.96087 0.05302 0.65165 0.0
C146 C 0.0777 0.98198 0.45149 0.0
O147 O 0.98736 0.96116 0.52997 0.0
O148 O 0.95852 0.90903 0.47172 0.0
O149 O 0.54608 0.55277 0.11821 0.0
Mn150 Mn 0.50387 0.52438 0.04479 0.0
O151 O 0.57213 0.50175 0.18546 0.0
Mn152 Mn 0.53477 0.46061 0.14682 0.0
O153 O 0.46061 0.49607 0.97185 0.0
O154 O 0.47449 0.58192 0.02338 0.0
Mn155 Mn 0.47058 0.58792 0.94322 0.0
O156 O 0.55757 0.53571 0.98973 0.0
O157 O 0.43019 0.54795 0.9087 0.0
O158 O 0.44978 0.51326 0.09897 0.0
O159 O 0.47321 0.45987 0.16321 0.0
O160 O 0.44647 0.63644 0.96773 0.0
O161 O 0.53086 0.58661 0.92239 0.0
C162 C 0.55389 0.43007 0.07005 0.0
C163 C 0.57051 0.53974 0.16802 0.0
C164 C 0.43271 0.50989 0.92527 0.0
C165 C 0.45605 0.61931 0.02138 0.0
C166 C 0.56282 0.56137 0.94575 0.0
C167 C 0.44243 0.48632 0.14033 0.0
O168 O 0.53401 0.46696 0.0668 0.0
O169 O 0.56174 0.41291 0.12386 0.0
C170 C 0.09066 0.21107 0.48396 0.0
C171 C 0.11436 0.24237 0.4863 0.0
C172 C 0.07293 0.17063 0.49364 0.0
C173 C 0.06501 0.13833 0.51911 0.0
C174 C 0.4196 0.71524 0.10885 0.0
C175 C 0.40485 0.75066 0.10966 0.0
C176 C 0.43559 0.67444 0.09778 0.0
C177 C 0.44771 0.64352 0.07309 0.0
C178 C 0.90417 0.83584 0.6044 0.0
C179 C 0.88528 0.80192 0.60265 0.0
C180 C 0.92831 0.87388 0.59646 0.0
C181 C 0.94841 0.9025 0.57466 0.0
C182 C 0.61281 0.34291 0.9853 0.0
C183 C 0.63989 0.31372 0.98621 0.0
C184 C 0.58644 0.37909 0.99574 0.0
C185 C 0.56856 0.40764 0.01983 0.0
C186 C 0.18157 0.96866 0.34601 0.0
C187 C 0.20616 0.96086 0.30681 0.0
C188 C 0.15044 0.97746 0.38955 0.0
C189 C 0.11989 0.9829 0.42192 0.0
C190 C 0.66595 0.58041 0.84315 0.0
C191 C 0.68822 0.59036 0.80248 0.0
C192 C 0.63627 0.56889 0.88694 0.0
C193 C 0.60571 0.56178 0.91846 0.0
C194 C 0.87222 0.09974 0.29846 0.0
C195 C 0.85529 0.11168 0.24847 0.0
C196 C 0.89766 0.0845 0.35317 0.0
C197 C 0.92244 0.06657 0.39357 0.0
C198 C 0.34806 0.46137 0.78876 0.0
C199 C 0.32916 0.45159 0.73905 0.0
C200 C 0.37645 0.46989 0.84428 0.0
C201 C 0.40373 0.4823 0.88636 0.0
C202 C 0.64578 0.59556 0.30838 0.0
C203 C 0.66962 0.60108 0.35693 0.0
C204 C 0.61855 0.58462 0.25274 0.0
C205 C 0.59535 0.56872 0.20954 0.0
C206 C 0.86096 0.07542 0.75456 0.0
C207 C 0.84561 0.09273 0.79593 0.0
C208 C 0.88765 0.0603 0.71011 0.0
C209 C 0.9179 0.05296 0.67853 0.0
C210 C 0.33672 0.46654 0.23718 0.0
C211 C 0.31899 0.45175 0.27915 0.0
C212 C 0.36644 0.47961 0.19438 0.0
C213 C 0.39856 0.48638 0.16532 0.0
C214 C 0.17493 0.9552 0.81385 0.0
C215 C 0.20066 0.95215 0.86187 0.0
C216 C 0.14438 0.96116 0.75827 0.0
C217 C 0.11804 0.97331 0.71411 0.0
loop_
_geom_bond_atom_site_label_1
_geom_bond_atom_site_label_2
_geom_bond_distance
_geom_bond_site_symmetry_2
_ccdc_geom_bond_type
P0 O11 1.490 . S
P0 C14 1.812 . S
P0 C20 1.803 . S
P0 C26 1.819 . S
H1 C15 0.941 . S
H2 C16 0.939 . S
H3 C18 0.940 . S
H4 C19 0.940 . S
H5 C21 0.939 . S
H6 C22 0.942 . S
H7 C24 0.940 . S
H8 C25 0.939 . S
H9 C27 0.941 . S
H10 C31 0.939 . S
O11 P0 1.490 . S
H12 C28 0.939 1_545 S
H13 C30 0.940 . S
C14 P0 1.812 . S
C14 C15 1.389 . S
C14 C19 1.391 . S
C15 H1 0.941 . S
C15 C14 1.389 . S
C15 C16 1.397 . S
C16 H2 0.939 . S
C16 C15 1.397 . S
C16 C17 1.378 . S
C17 C16 1.378 . S
C17 C18 1.378 . S
C18 H3 0.940 . S
C18 C17 1.378 . S
C18 C19 1.396 . S
C19 H4 0.940 . S
C19 C14 1.391 . S
C19 C18 1.396 . S
C20 P0 1.803 . S
C20 C21 1.378 . S
C20 C25 1.400 . S
C21 H5 0.939 . S
C21 C20 1.378 . S
C21 C22 1.361 . S
C22 H6 0.942 . S
C22 C21 1.361 . S
C22 C23 1.369 . S
C23 C22 1.369 . S
C23 C24 1.404 . S
C24 H7 0.940 . S
C24 C23 1.404 . S
C24 C25 1.389 . S
C25 H8 0.939 . S
C25 C20 1.400 . S
C25 C24 1.389 . S
C26 P0 1.819 . S
C26 C27 1.391 . S
C26 C31 1.391 1_554 S
C27 H9 0.941 . S
C27 C26 1.391 . S
C27 C28 1.396 1_554 S
C28 H12 0.939 1_565 S
C28 C27 1.396 1_556 S
C28 C29 1.397 . S
C29 C28 1.397 . S
C29 C30 1.385 . S
C30 H13 0.940 . S
C30 C29 1.385 . S
C30 C31 1.388 . S
C31 H10 0.939 . S
C31 C26 1.391 1_556 S
C31 C30 1.388 . S
P32 O43 1.490 . S
P32 C46 1.812 . S
P32 C52 1.803 . S
P32 C58 1.819 . S
H33 C47 0.941 . S
H34 C48 0.939 . S
H35 C50 0.940 . S
H36 C51 0.940 . S
H37 C53 0.939 . S
H38 C54 0.942 . S
H39 C56 0.940 . S
H40 C57 0.939 . S
H41 C59 0.941 . S
H42 C63 0.939 . S
O43 P32 1.490 . S
H44 C60 0.939 . S
H45 C62 0.940 . S
C46 P32 1.812 . S
C46 C47 1.389 . S
C46 C51 1.391 . S
C47 H33 0.941 . S
C47 C46 1.389 . S
C47 C48 1.397 . S
C48 H34 0.939 . S
C48 C47 1.397 . S
C48 C49 1.378 . S
C49 C48 1.378 . S
C49 C50 1.378 . S
C50 H35 0.940 . S
C50 C49 1.378 . S
C50 C51 1.396 . S
C51 H36 0.940 . S
C51 C46 1.391 . S
C51 C50 1.396 . S
C52 P32 1.803 . S
C52 C53 1.378 . S
C52 C57 1.400 . S
C53 H37 0.939 . S
C53 C52 1.378 . S
C53 C54 1.361 . S
C54 H38 0.942 . S
C54 C53 1.361 . S
C54 C55 1.369 . S
C55 C54 1.369 . S
C55 C56 1.404 . S
C56 H39 0.940 . S
C56 C55 1.404 . S
C56 C57 1.389 . S
C57 H40 0.939 . S
C57 C52 1.400 . S
C57 C56 1.389 . S
C58 P32 1.819 . S
C58 C59 1.391 . S
C58 C63 1.391 . S
C59 H41 0.941 . S
C59 C58 1.391 . S
C59 C60 1.396 . S
C60 H44 0.939 . S
C60 C59 1.396 . S
C60 C61 1.397 . S
C61 C60 1.397 . S
C61 C62 1.385 . S
C62 H45 0.940 . S
C62 C61 1.385 . S
C62 C63 1.388 . S
C63 H42 0.939 . S
C63 C58 1.391 . S
C63 C62 1.388 . S
P64 O75 1.490 . S
P64 C78 1.812 1_554 S
P64 C84 1.804 1_554 S
P64 C90 1.819 . S
H65 C79 0.941 . S
H66 C80 0.939 . S
H67 C82 0.940 . S
H68 C83 0.940 . S
H69 C85 0.939 . S
H70 C86 0.942 . S
H71 C88 0.940 . S
H72 C89 0.939 . S
H73 C91 0.941 . S
H74 C95 0.939 . S
O75 P64 1.490 . S
H76 C92 0.939 . S
H77 C94 0.940 . S
C78 P64 1.812 1_556 S
C78 C79 1.389 . S
C78 C83 1.391 . S
C79 H65 0.941 . S
C79 C78 1.389 . S
C79 C80 1.397 . S
C80 H66 0.939 . S
C80 C79 1.397 . S
C80 C81 1.378 . S
C81 C80 1.378 . S
C81 C82 1.378 . S
C82 H67 0.940 . S
C82 C81 1.378 . S
C82 C83 1.396 . S
C83 H68 0.940 . S
C83 C78 1.391 . S
C83 C82 1.396 . S
C84 P64 1.804 1_556 S
C84 C85 1.376 1_556 S
C84 C89 1.401 . S
C85 H69 0.939 . S
C85 C84 1.376 1_554 S
C85 C86 1.361 . S
C86 H70 0.942 . S
C86 C85 1.361 . S
C86 C87 1.369 1_554 S
C87 C86 1.369 1_556 S
C87 C88 1.404 . S
C88 H71 0.940 . S
C88 C87 1.404 . S
C88 C89 1.389 . S
C89 H72 0.939 . S
C89 C84 1.401 . S
C89 C88 1.389 . S
C90 P64 1.819 . S
C90 C91 1.391 . S
C90 C95 1.391 . S
C91 H73 0.941 . S
C91 C90 1.391 . S
C91 C92 1.396 . S
C92 H76 0.939 . S
C92 C91 1.396 . S
C92 C93 1.397 . S
C93 C92 1.397 . S
C93 C94 1.385 . S
C94 H77 0.940 . S
C94 C93 1.385 . S
C94 C95 1.388 . S
C95 H74 0.939 . S
C95 C90 1.391 . S
C95 C94 1.388 . S
P96 O107 1.490 . S
P96 C110 1.812 . S
P96 C116 1.803 . S
P96 C122 1.819 . S
H97 C111 0.941 . S
H98 C112 0.939 . S
H99 C114 0.940 . S
H100 C115 0.940 . S
H101 C117 0.939 . S
H102 C118 0.942 . S
H103 C120 0.940 . S
H104 C121 0.939 . S
H105 C123 0.941 . S
H106 C127 0.939 . S
O107 P96 1.490 . S
H108 C124 0.939 . S
H109 C126 0.940 . S
C110 P96 1.812 . S
C110 C111 1.389 . S
C110 C115 1.391 . S
C111 H97 0.941 . S
C111 C110 1.389 . S
C111 C112 1.397 . S
C112 H98 0.939 . S
C112 C111 1.397 . S
C112 C113 1.378 . S
C113 C112 1.378 . S
C113 C114 1.378 . S
C114 H99 0.940 . S
C114 C113 1.378 . S
C114 C115 1.396 . S
C115 H100 0.940 . S
C115 C110 1.391 . S
C115 C114 1.396 . S
C116 P96 1.803 . S
C116 C117 1.378 . S
C116 C121 1.400 . S
C117 H101 0.939 . S
C117 C116 1.378 . S
C117 C118 1.361 . S
C118 H102 0.942 . S
C118 C117 1.361 . S
C118 C119 1.369 . S
C119 C118 1.369 . S
C119 C120 1.404 . S
C120 H103 0.940 . S
C120 C119 1.404 . S
C120 C121 1.389 . S
C121 H104 0.939 . S
C121 C116 1.400 . S
C121 C120 1.389 . S
C122 P96 1.819 . S
C122 C123 1.391 . S
C122 C127 1.391 . S
C123 H105 0.941 . S
C123 C122 1.391 . S
C123 C124 1.396 . S
C124 H108 0.939 . S
C124 C123 1.396 . S
C124 C125 1.397 . S
C125 C124 1.397 . S
C125 C126 1.385 . S
C126 H109 0.940 . S
C126 C125 1.385 . S
C126 C127 1.388 . S
C127 H106 0.939 . S
C127 C122 1.391 . S
C127 C126 1.388 . S
O128 Mn129 2.163 1_655 S
O128 C142 1.244 . S
Mn129 O128 2.163 1_455 S
Mn129 O132 2.160 1_545 S
Mn129 O133 2.221 . S
Mn129 O135 2.163 1_455 S
Mn129 O137 2.160 1_545 S
Mn129 O147 2.221 1_445 S
O130 Mn131 2.087 1_545 S
O130 C142 1.256 . S
Mn131 O130 2.087 1_565 S
Mn131 O138 2.089 1_655 S
Mn131 O147 2.290 . S
Mn131 O148 2.251 . S
O132 Mn129 2.160 1_565 S
O132 C143 1.239 . S
O133 Mn129 2.221 . S
O133 Mn134 2.290 . S
O133 C144 1.278 . S
Mn134 O133 2.290 . S
Mn134 O136 2.089 . S
Mn134 O139 2.251 . S
Mn134 O140 2.087 1_455 S
O135 Mn129 2.163 1_655 S
O135 C145 1.244 . S
O136 Mn134 2.089 . S
O136 C143 1.256 1_545 S
O137 Mn129 2.160 1_565 S
O137 C146 1.239 . S
O138 Mn131 2.089 1_455 S
O138 C146 1.256 . S
O139 Mn134 2.251 . S
O139 C144 1.241 . S
O140 Mn134 2.087 1_655 S
O140 C145 1.256 . S
C141 O147 1.278 . S
C141 O148 1.241 . S
C142 O128 1.244 . S
C142 O130 1.256 . S
C143 O132 1.239 . S
C143 O136 1.256 1_565 S
C144 O133 1.278 . S
C144 O139 1.241 . S
C145 O135 1.244 . S
C145 O140 1.256 . S
C146 O137 1.239 . S
C146 O138 1.256 . S
O147 Mn129 2.221 1_665 S
O147 Mn131 2.290 . S
O147 C141 1.278 . S
O148 Mn131 2.251 . S
O148 C141 1.241 . S
O149 Mn150 2.163 . S
O149 C163 1.244 . S
Mn150 O149 2.163 . S
Mn150 O153 2.160 1_554 S
Mn150 O154 2.221 . S
Mn150 O156 2.163 1_554 S
Mn150 O158 2.160 . S
Mn150 O168 2.221 . S
O151 Mn152 2.087 . S
O151 C163 1.256 . S
Mn152 O151 2.087 . S
Mn152 O159 2.089 . S
Mn152 O168 2.290 . S
Mn152 O169 2.251 . S
O153 Mn150 2.160 1_556 S
O153 C164 1.239 . S
O154 Mn150 2.221 . S
O154 Mn155 2.290 1_554 S
O154 C165 1.278 . S
Mn155 O154 2.290 1_556 S
Mn155 O157 2.089 . S
Mn155 O160 2.251 . S
Mn155 O161 2.087 . S
O156 Mn150 2.163 1_556 S
O156 C166 1.244 . S
O157 Mn155 2.089 . S
O157 C164 1.256 . S
O158 Mn150 2.160 . S
O158 C167 1.239 . S
O159 Mn152 2.089 . S
O159 C167 1.256 . S
O160 Mn155 2.251 . S
O160 C165 1.241 1_556 S
O161 Mn155 2.087 . S
O161 C166 1.256 . S
C162 O168 1.278 . S
C162 O169 1.241 . S
C163 O149 1.244 . S
C163 O151 1.256 . S
C164 O153 1.239 . S
C164 O157 1.256 . S
C165 O154 1.278 . S
C165 O160 1.241 1_554 S
C166 O156 1.244 . S
C166 O161 1.256 . S
C167 O158 1.239 . S
C167 O159 1.256 . S
O168 Mn150 2.221 . S
O168 Mn152 2.290 . S
O168 C162 1.278 . S
O169 Mn152 2.251 . S
O169 C162 1.241 . S
C170 C171 1.170 . S
C170 C172 1.380 . S
C171 C170 1.170 . S
C172 C170 1.380 . S
C172 C173 1.170 . S
C173 C172 1.170 . S
C174 C175 1.170 . S
C174 C176 1.380 . S
C175 C174 1.170 . S
C176 C174 1.380 . S
C176 C177 1.170 . S
C177 C176 1.170 . S
C178 C179 1.170 . S
C178 C180 1.380 . S
C179 C178 1.170 . S
C180 C178 1.380 . S
C180 C181 1.170 . S
C181 C180 1.170 . S
C182 C183 1.170 1_554 S
C182 C184 1.380 . S
C183 C182 1.170 1_556 S
C184 C182 1.380 . S
C184 C185 1.170 . S
C185 C184 1.170 . S
C186 C187 1.170 . S
C186 C188 1.380 . S
C187 C186 1.170 . S
C188 C186 1.380 . S
C188 C189 1.170 . S
C189 C188 1.170 . S
C190 C191 1.170 . S
C190 C192 1.380 . S
C191 C190 1.170 . S
C192 C190 1.380 . S
C192 C193 1.170 . S
C193 C192 1.170 . S
C194 C195 1.170 . S
C194 C196 1.380 . S
C195 C194 1.170 . S
C196 C194 1.380 . S
C196 C197 1.170 . S
C197 C196 1.170 . S
C198 C199 1.170 . S
C198 C200 1.380 . S
C199 C198 1.170 . S
C200 C198 1.380 . S
C200 C201 1.170 . S
C201 C200 1.170 . S
C202 C203 1.170 . S
C202 C204 1.380 . S
C203 C202 1.170 . S
C204 C202 1.380 . S
C204 C205 1.170 . S
C205 C204 1.170 . S
C206 C207 1.170 . S
C206 C208 1.380 . S
C207 C206 1.170 . S
C208 C206 1.380 . S
C208 C209 1.170 . S
C209 C208 1.170 . S
C210 C211 1.170 . S
C210 C212 1.380 . S
C211 C210 1.170 . S
C212 C210 1.380 . S
C212 C213 1.170 . S
C213 C212 1.170 . S
C214 C215 1.170 . S
C214 C216 1.380 . S
C215 C214 1.170 . S
C216 C214 1.380 . S
C216 C217 1.170 . S
C217 C216 1.170 . S
C173 C144 1.326 . S
C171 C119 1.446 . S
C175 C23 1.531 . S
C177 C165 1.329 . S
C179 C55 1.652 . S
C181 C141 1.459 . S
C183 C87 1.561 . S
C185 C162 1.474 . S
C189 C146 1.585 . S
C187 C17 1.607 . S
C193 C166 1.568 . S
C191 C61 1.594 . S
C195 C93 1.461 . S
C197 C142 1.517 . S
C199 C113 1.476 . S
C201 C164 1.516 . S
C205 C163 1.498 . S
C203 C49 1.581 . S
C209 C145 1.535 . S
C207 C81 1.499 . S
C213 C167 1.606 . S
C211 C125 1.497 . S
C215 C29 1.610 . S
C217 C143 1.531 . S
