# Generated by pormake.
# Topology zzz, (3,6)-cn, num edge types: 1
# Building blocks:
#     Node 0, Type 0, BuildingBlock: CUQRIR_clean_linker_1, # of connection points: 3
#     Node 1, Type 0, BuildingBlock: CUQRIR_clean_linker_1, # of connection points: 3
#     Node 2, Type 0, BuildingBlock: CUQRIR_clean_linker_1, # of connection points: 3
#     Node 3, Type 0, BuildingBlock: CUQRIR_clean_linker_1, # of connection points: 3
#     Node 4, Type 0, BuildingBlock: CUQRIR_clean_linker_1, # of connection points: 3
#     Node 5, Type 0, BuildingBlock: CUQRIR_clean_linker_1, # of connection points: 3
#     Node 6, Type 0, BuildingBlock: CUQRIR_clean_linker_1, # of connection points: 3
#     Node 7, Type 0, BuildingBlock: CUQRIR_clean_linker_1, # of connection points: 3
#     Node 8, Type 1, BuildingBlock: CIFDUS_clean_sbu_1, # of connection points: 6
#     Node 9, Type 1, BuildingBlock: CIFDUS_clean_sbu_1, # of connection points: 6
#     Node 10, Type 1, BuildingBlock: CIFDUS_clean_sbu_1, # of connection points: 6
#     Node 11, Type 1, BuildingBlock: CIFDUS_clean_sbu_1, # of connection points: 6
#     Edge 12, Type (0, 1), None
#     Edge 13, Type (0, 1), None
#     Edge 14, Type (0, 1), None
#     Edge 15, Type (0, 1), None
#     Edge 16, Type (0, 1), None
#     Edge 17, Type (0, 1), None
#     Edge 18, Type (0, 1), None
#     Edge 19, Type (0, 1), None
#     Edge 20, Type (0, 1), None
#     Edge 21, Type (0, 1), None
#     Edge 22, Type (0, 1), None
#     Edge 23, Type (0, 1), None
#     Edge 24, Type (0, 1), None
#     Edge 25, Type (0, 1), None
#     Edge 26, Type (0, 1), None
#     Edge 27, Type (0, 1), None
#     Edge 28, Type (0, 1), None
#     Edge 29, Type (0, 1), None
#     Edge 30, Type (0, 1), None
#     Edge 31, Type (0, 1), None
#     Edge 32, Type (0, 1), None
#     Edge 33, Type (0, 1), None
#     Edge 34, Type (0, 1), None
#     Edge 35, Type (0, 1), None
# Relax obj value: 0.142
# Max RMSD: 0.183
# Mean RMSD: 0.116
data_MOF--net-zzz--node1-CIFDUS_clean_sbu_1--node2-CUQRIR_clean_linker_1--edge1-none
_symmetry_space_group_name_H-M    P1
_symmetry_Int_Tables_number       1
_symmetry_cell_setting            triclinic
loop_
_symmetry_equiv_pos_as_xyz
'x, y, z'
_cell_length_a     17.750044
_cell_length_b     17.750189
_cell_length_c     6.4251264
_cell_angle_alpha  90.002134
_cell_angle_beta   89.998293
_cell_angle_gamma 90.002071
loop_
_atom_site_label
_atom_site_type_symbol
_atom_site_fract_x
_atom_site_fract_y
_atom_site_fract_z
_atom_type_partial_charge
C0 C 0.76462 0.54753 0.12501 0.0
N1 N 0.83761 0.56422 0.18481 0.0
N2 N 0.74619 0.5672 0.92327 0.0
C3 C 0.70564 0.52548 0.27079 0.0
C4 C 0.81176 0.60163 0.8761 0.0
N5 N 0.8684 0.58712 0.0121 0.0
C6 C 0.82087 0.6525 0.69232 0.0
H7 H 0.72501 0.47493 0.35406 0.0
H8 H 0.65232 0.51634 0.18505 0.0
H9 H 0.69703 0.57286 0.37918 0.0
H10 H 0.79841 0.70782 0.73756 0.0
H11 H 0.78704 0.63323 0.55868 0.0
H12 H 0.88084 0.66041 0.65021 0.0
C13 C 0.04037 0.76771 0.12499 0.0
N14 N 1.02367 0.84069 0.18479 0.0
N15 N 1.0207 0.74928 0.92324 0.0
C16 C 0.06243 0.70873 0.27075 0.0
C17 C 0.98626 0.81484 0.87608 0.0
N18 N 1.00078 0.87148 0.01208 0.0
C19 C 0.93539 0.82394 0.6923 0.0
H20 H 0.11298 0.72811 0.35402 0.0
H21 H 0.07157 0.65541 0.185 0.0
H22 H 1.01505 0.70011 0.37915 0.0
H23 H 0.88007 0.8015 0.73754 0.0
H24 H 0.95467 0.79011 0.55866 0.0
H25 H 0.9275 0.88391 0.65016 0.0
C26 C 0.8202 0.04346 0.12498 0.0
N27 N 0.74721 1.02677 0.18478 0.0
N28 N 0.83863 1.02379 0.92323 0.0
C29 C 0.87918 0.06551 0.27075 0.0
C30 C 0.77306 0.98936 0.87606 0.0
N31 N 0.71642 1.00388 0.01206 0.0
C32 C 0.76395 0.93849 0.69227 0.0
H33 H 0.85981 0.11606 0.35404 0.0
H34 H 0.9325 0.07465 0.18501 0.0
H35 H 0.88779 1.01812 0.37914 0.0
H36 H 0.78641 0.88317 0.73749 0.0
H37 H 0.79777 0.95777 0.55863 0.0
H38 H 0.70398 0.93058 0.65016 0.0
C39 C 0.54445 0.82328 0.125 0.0
N40 N 0.56115 0.7503 0.1848 0.0
N41 N 0.56412 0.84171 0.92325 0.0
C42 C 0.5224 0.88226 0.27078 0.0
C43 C 0.59855 0.77615 0.87608 0.0
N44 N 0.58404 0.71951 0.01208 0.0
C45 C 0.64943 0.76705 0.69229 0.0
H46 H 0.47185 0.86289 0.35406 0.0
H47 H 0.51326 0.93558 0.18505 0.0
H48 H 0.56978 0.89087 0.37917 0.0
H49 H 0.70475 0.7895 0.73754 0.0
H50 H 0.63016 0.80087 0.55866 0.0
H51 H 0.65733 0.70708 0.65016 0.0
C52 C 0.32018 0.54347 0.13495 0.0
N53 N 0.2472 0.52676 0.07515 0.0
N54 N 0.33861 0.5238 0.3367 0.0
C55 C 0.37916 0.56554 -0.01081 0.0
C56 C 0.27305 0.48936 0.38386 0.0
N57 N 0.21641 0.50386 0.24786 0.0
C58 C 0.26395 0.43849 0.56764 0.0
H59 H 0.38778 0.51816 0.88078 0.0
H60 H 0.43248 0.57468 0.07494 0.0
H61 H 0.35978 0.61609 0.90594 0.0
H62 H 0.29778 0.45776 0.70128 0.0
H63 H 0.28641 0.38317 0.52239 0.0
H64 H 0.20399 0.43058 0.60977 0.0
C65 C 0.04444 0.32327 0.13498 0.0
N66 N 0.06115 0.25029 0.07517 0.0
N67 N 0.06411 0.3417 0.33672 0.0
C68 C 1.02236 0.38224 -0.01077 0.0
C69 C 0.09856 0.27614 0.38388 0.0
N70 N 0.08405 0.2195 0.24788 0.0
C71 C 0.14942 0.26705 0.56767 0.0
H72 H 0.06973 0.39087 0.8808 0.0
H73 H 1.01321 0.43556 0.07498 0.0
H74 H 0.97181 0.36286 0.90598 0.0
H75 H 0.13015 0.30088 0.7013 0.0
H76 H 0.20475 0.2895 0.52242 0.0
H77 H 0.15733 0.20708 0.60981 0.0
C78 C 0.26463 0.04752 0.13499 0.0
N79 N 0.33762 0.06423 0.07518 0.0
N80 N 0.24621 0.06719 0.33674 0.0
C81 C 0.20566 1.02545 -0.01078 0.0
C82 C 0.31177 0.10163 0.3839 0.0
N83 N 0.36841 0.08712 0.2479 0.0
C84 C 0.32087 0.1525 0.5677 0.0
H85 H 0.19704 0.07283 0.88082 0.0
H86 H 0.15234 1.01631 0.07497 0.0
H87 H 0.22504 0.9749 0.90596 0.0
H88 H 0.28704 0.13322 0.70133 0.0
H89 H 0.2984 0.20782 0.52247 0.0
H90 H 0.38083 0.16041 0.60982 0.0
C91 C 0.54038 0.26772 0.13496 0.0
N92 N 0.52367 0.3407 0.07516 0.0
N93 N 0.52071 0.24929 0.33671 0.0
C94 C 0.56245 0.20875 -0.0108 0.0
C95 C 0.48626 0.31485 0.38388 0.0
N96 N 0.50077 0.37149 0.24788 0.0
C97 C 0.43539 0.32394 0.56767 0.0
H98 H 0.51507 0.20013 0.88078 0.0
H99 H 0.57159 0.15543 0.07494 0.0
H100 H 0.613 0.22813 0.90594 0.0
H101 H 0.45466 0.29011 0.7013 0.0
H102 H 0.38007 0.30149 0.52242 0.0
H103 H 0.42749 0.38391 0.60982 0.0
O104 O 0.0659 0.13976 0.85879 0.0
Mn105 Mn 0.04242 0.04549 0.62998 0.0
O106 O 0.97532 0.22845 0.82136 0.0
Mn107 Mn 0.92253 0.17261 0.63032 0.0
O108 O 1.01893 0.95122 0.40117 0.0
O109 O 0.15086 1.01541 0.56502 0.0
Mn110 Mn 0.1623 0.91836 0.62963 0.0
O111 O 1.0165 0.97711 0.85039 0.0
O112 O 0.10952 0.86252 0.43859 0.0
O113 O 0.06834 0.11387 0.40958 0.0
O114 O 0.96936 0.18906 0.37236 0.0
O115 O 0.25347 0.95295 0.5181 0.0
O116 O 0.11547 0.90191 0.88759 0.0
C117 C 0.86728 0.07632 0.78232 0.0
C118 C 1.03532 0.20632 0.90786 0.0
C119 C 0.04951 0.88466 0.3521 0.0
C120 C 0.21756 1.01466 0.47764 0.0
C121 C 0.04771 0.92225 0.93051 0.0
C122 C 1.03713 0.16872 0.32944 0.0
O123 O 0.93397 0.07556 0.69494 0.0
O124 O 0.83136 0.13803 0.74184 0.0
O125 O 0.61078 1.0196 0.8504 0.0
Mn126 Mn 0.54242 0.0455 0.62998 0.0
O127 O 0.686 0.11857 0.88756 0.0
Mn128 Mn 0.66954 0.1654 0.62962 0.0
O129 O 0.47405 0.07141 0.40957 0.0
O130 O 0.51235 0.93706 0.69497 0.0
Mn131 Mn 0.4153 0.92561 0.63033 0.0
O132 O 0.44814 0.06899 0.85879 0.0
O133 O 0.39884 0.97243 0.37238 0.0
O134 O 0.63669 1.02202 0.40118 0.0
O135 O 0.72538 0.11262 0.43857 0.0
O136 O 0.44988 0.83444 0.74186 0.0
O137 O 0.35945 0.97839 0.82138 0.0
C138 C 0.57324 0.22065 0.47762 0.0
C139 C 0.66565 0.05081 0.9305 0.0
C140 C 0.41918 0.0402 0.32945 0.0
C141 C 0.51159 0.87036 0.78235 0.0
C142 C 0.38158 0.0384 0.90786 0.0
C143 C 0.70325 0.0526 0.35209 0.0
O144 O 0.57249 0.15395 0.56499 0.0
O145 O 0.63495 0.25656 0.51809 0.0
O146 O 0.56831 0.61387 0.8504 0.0
Mn147 Mn 0.5424 0.5455 0.62998 0.0
O148 O 0.46934 0.68909 0.88758 0.0
Mn149 Mn 0.42251 0.67263 0.62963 0.0
O150 O 0.51649 0.47713 0.40957 0.0
O151 O 0.65084 0.51543 0.69497 0.0
Mn152 Mn 0.66229 0.41838 0.63032 0.0
O153 O 0.51891 0.45123 0.85878 0.0
O154 O 0.61546 0.40192 0.37237 0.0
O155 O 0.56589 0.63977 0.40118 0.0
O156 O 0.4753 0.72847 0.43859 0.0
O157 O 0.75346 0.45297 0.74185 0.0
O158 O 0.60951 0.36254 0.82135 0.0
C159 C 0.36726 0.57633 0.47761 0.0
C160 C 0.5371 0.66874 0.93051 0.0
C161 C 0.5477 0.42226 0.32944 0.0
C162 C 0.71754 0.51467 0.78235 0.0
C163 C 0.54949 0.38467 0.90785 0.0
C164 C 0.53531 0.70634 0.35211 0.0
O165 O 0.43396 0.57558 0.56499 0.0
O166 O 0.33135 0.63804 0.5181 0.0
O167 O 0.13667 0.522 0.85877 0.0
Mn168 Mn 0.0424 0.54549 0.62998 0.0
O169 O 0.22537 0.6126 0.82136 0.0
Mn170 Mn 0.16952 0.66538 0.63032 0.0
O171 O 0.94813 0.56897 0.40119 0.0
O172 O 1.01233 0.43704 0.56501 0.0
Mn173 Mn 0.91528 0.42559 0.62963 0.0
O174 O 0.97403 0.57139 0.85041 0.0
O175 O 0.85944 0.47837 0.43858 0.0
O176 O 0.11077 0.51958 0.40956 0.0
O177 O 0.18598 0.61856 0.37236 0.0
O178 O 0.94987 0.33442 0.5181 0.0
O179 O 0.89882 0.47242 0.88758 0.0
C180 C 0.07323 0.72063 0.78233 0.0
C181 C 0.20324 0.55259 0.90784 0.0
C182 C 0.88157 0.53839 0.35211 0.0
C183 C 1.01158 0.37034 0.47764 0.0
C184 C 0.91916 0.54018 0.93052 0.0
C185 C 0.16564 0.55079 0.32943 0.0
O186 O 0.07248 0.65393 0.69495 0.0
O187 O 0.13493 0.75655 0.74184 0.0
loop_
_geom_bond_atom_site_label_1
_geom_bond_atom_site_label_2
_geom_bond_distance
_geom_bond_site_symmetry_2
_ccdc_geom_bond_type
C0 N1 1.317 . S
C0 N2 1.348 . S
C0 C3 1.485 . S
N1 C0 1.317 . S
N1 N5 1.370 1_554 S
N2 C0 1.348 . S
N2 C4 1.346 1_554 S
C3 C0 1.485 . S
C3 H7 0.960 . S
C3 H8 0.961 . S
C3 H9 0.960 . S
C4 N2 1.346 1_556 S
C4 N5 1.307 . S
C4 C6 1.486 . S
N5 N1 1.370 1_556 S
N5 C4 1.307 . S
C6 C4 1.486 . S
C6 H10 0.960 . S
C6 H11 0.960 . S
C6 H12 0.959 . S
H7 C3 0.960 . S
H8 C3 0.961 . S
H9 C3 0.960 . S
H10 C6 0.960 . S
H11 C6 0.960 . S
H12 C6 0.959 . S
C13 N14 1.317 . S
C13 N15 1.348 . S
C13 C16 1.485 . S
N14 C13 1.317 . S
N14 N18 1.370 1_554 S
N15 C13 1.348 . S
N15 C17 1.346 1_554 S
C16 C13 1.485 . S
C16 H20 0.960 1_655 S
C16 H21 0.961 . S
C16 H22 0.960 . S
C17 N15 1.346 1_556 S
C17 N18 1.307 . S
C17 C19 1.486 . S
N18 N14 1.370 1_556 S
N18 C17 1.307 . S
C19 C17 1.486 . S
C19 H23 0.960 . S
C19 H24 0.960 1_655 S
C19 H25 0.959 . S
H20 C16 0.960 1_455 S
H21 C16 0.961 . S
H22 C16 0.960 . S
H23 C19 0.960 . S
H24 C19 0.960 1_455 S
H25 C19 0.959 . S
C26 N27 1.317 . S
C26 N28 1.348 . S
C26 C29 1.485 . S
N27 C26 1.317 . S
N27 N31 1.370 1_554 S
N28 C26 1.348 . S
N28 C30 1.346 1_554 S
C29 C26 1.485 . S
C29 H33 0.960 1_565 S
C29 H34 0.961 . S
C29 H35 0.960 . S
C30 N28 1.346 1_556 S
C30 N31 1.307 . S
C30 C32 1.486 . S
N31 N27 1.370 1_556 S
N31 C30 1.307 . S
C32 C30 1.486 . S
C32 H36 0.960 . S
C32 H37 0.960 1_565 S
C32 H38 0.959 . S
H33 C29 0.960 1_545 S
H34 C29 0.961 . S
H35 C29 0.960 . S
H36 C32 0.960 . S
H37 C32 0.960 1_545 S
H38 C32 0.959 . S
C39 N40 1.317 . S
C39 N41 1.348 . S
C39 C42 1.485 . S
N40 C39 1.317 . S
N40 N44 1.370 1_554 S
N41 C39 1.348 . S
N41 C43 1.346 1_554 S
C42 C39 1.485 . S
C42 H46 0.960 . S
C42 H47 0.961 . S
C42 H48 0.960 . S
C43 N41 1.346 1_556 S
C43 N44 1.307 . S
C43 C45 1.486 . S
N44 N40 1.370 1_556 S
N44 C43 1.307 . S
C45 C43 1.486 . S
C45 H49 0.960 . S
C45 H50 0.960 . S
C45 H51 0.959 . S
H46 C42 0.960 . S
H47 C42 0.961 . S
H48 C42 0.960 . S
H49 C45 0.960 . S
H50 C45 0.960 . S
H51 C45 0.959 . S
C52 N53 1.317 . S
C52 N54 1.348 . S
C52 C55 1.485 1_554 S
N53 C52 1.317 . S
N53 N57 1.370 . S
N54 C52 1.348 . S
N54 C56 1.346 . S
C55 C52 1.485 1_556 S
C55 H59 0.960 . S
C55 H60 0.961 . S
C55 H61 0.960 . S
C56 N54 1.346 . S
C56 N57 1.307 . S
C56 C58 1.486 . S
N57 N53 1.370 . S
N57 C56 1.307 . S
C58 C56 1.486 . S
C58 H62 0.960 . S
C58 H63 0.960 . S
C58 H64 0.959 . S
H59 C55 0.960 . S
H60 C55 0.961 . S
H61 C55 0.960 . S
H62 C58 0.960 . S
H63 C58 0.960 . S
H64 C58 0.959 . S
C65 N66 1.317 . S
C65 N67 1.348 . S
C65 C68 1.485 1_554 S
N66 C65 1.317 . S
N66 N70 1.370 . S
N67 C65 1.348 . S
N67 C69 1.346 . S
C68 C65 1.485 1_556 S
C68 H72 0.960 . S
C68 H73 0.961 . S
C68 H74 0.960 . S
C69 N67 1.346 . S
C69 N70 1.307 . S
C69 C71 1.486 . S
N70 N66 1.370 . S
N70 C69 1.307 . S
C71 C69 1.486 . S
C71 H75 0.946 1_455 S
C71 H76 0.960 . S
C71 H77 0.959 . S
H72 C68 0.960 . S
H73 C68 0.961 . S
H74 C68 0.960 . S
H75 C71 0.946 1_655 S
H76 C71 0.960 . S
H77 C71 0.959 . S
C78 N79 1.317 . S
C78 N80 1.348 . S
C78 C81 1.485 1_554 S
N79 C78 1.317 . S
N79 N83 1.370 . S
N80 C78 1.348 . S
N80 C82 1.346 . S
C81 C78 1.485 1_556 S
C81 H85 0.960 . S
C81 H86 0.961 . S
C81 H87 0.960 . S
C82 N80 1.346 . S
C82 N83 1.307 . S
C82 C84 1.486 . S
N83 N79 1.370 . S
N83 C82 1.307 . S
C84 C82 1.486 . S
C84 H88 0.960 . S
C84 H89 0.960 . S
C84 H90 0.959 . S
H85 C81 0.960 . S
H86 C81 0.961 . S
H87 C81 0.960 . S
H88 C84 0.960 . S
H89 C84 0.960 . S
H90 C84 0.959 . S
C91 N92 1.317 . S
C91 N93 1.348 . S
C91 C94 1.485 1_554 S
N92 C91 1.317 . S
N92 N96 1.370 . S
N93 C91 1.348 . S
N93 C95 1.346 . S
C94 C91 1.485 1_556 S
C94 H98 0.960 . S
C94 H99 0.961 . S
C94 H100 0.960 . S
C95 N93 1.346 . S
C95 N96 1.307 . S
C95 C97 1.486 . S
N96 N92 1.370 . S
N96 C95 1.307 . S
C97 C95 1.486 . S
C97 H101 0.960 . S
C97 H102 0.960 . S
C97 H103 0.959 . S
H98 C94 0.960 . S
H99 C94 0.961 . S
H100 C94 0.960 . S
H101 C97 0.960 . S
H102 C97 0.960 . S
H103 C97 0.959 . S
O104 Mn105 2.163 . S
O104 C118 1.244 1_556 S
Mn105 O104 2.163 . S
Mn105 O108 2.160 1_445 S
Mn105 O109 2.221 1_545 S
Mn105 O111 2.163 1_445 S
Mn105 O113 2.160 . S
Mn105 O123 2.221 1_455 S
O106 Mn107 2.087 1_554 S
O106 C118 1.256 1_655 S
Mn107 O106 2.087 1_556 S
Mn107 O114 2.089 . S
Mn107 O123 2.290 . S
Mn107 O124 2.251 1_556 S
O108 Mn105 2.160 1_665 S
O108 C119 1.239 . S
O109 Mn105 2.221 1_565 S
O109 Mn110 2.290 . S
O109 C120 1.278 . S
Mn110 O109 2.290 . S
Mn110 O112 2.089 . S
Mn110 O115 2.251 . S
Mn110 O116 2.087 . S
O111 Mn105 2.163 1_665 S
O111 C121 1.244 1_655 S
O112 Mn110 2.089 . S
O112 C119 1.256 1_455 S
O113 Mn105 2.160 . S
O113 C122 1.239 1_455 S
O114 Mn107 2.089 . S
O114 C122 1.256 . S
O115 Mn110 2.251 . S
O115 C120 1.241 . S
O116 Mn110 2.087 . S
O116 C121 1.256 . S
C117 O123 1.278 . S
C117 O124 1.241 1_556 S
C118 O104 1.244 1_554 S
C118 O106 1.256 1_455 S
C119 O108 1.239 . S
C119 O112 1.256 1_655 S
C120 O109 1.278 . S
C120 O115 1.241 . S
C121 O111 1.244 1_455 S
C121 O116 1.256 . S
C122 O113 1.239 1_655 S
C122 O114 1.256 . S
O123 Mn105 2.221 1_655 S
O123 Mn107 2.290 . S
O123 C117 1.278 . S
O124 Mn107 2.251 1_554 S
O124 C117 1.241 1_554 S
O125 Mn126 2.163 1_565 S
O125 C139 1.244 1_565 S
Mn126 O125 2.163 1_545 S
Mn126 O129 2.160 . S
Mn126 O130 2.221 1_545 S
Mn126 O132 2.163 . S
Mn126 O134 2.160 1_545 S
Mn126 O144 2.221 . S
O127 Mn128 2.087 . S
O127 C139 1.256 . S
Mn128 O127 2.087 . S
Mn128 O135 2.089 . S
Mn128 O144 2.290 . S
Mn128 O145 2.251 . S
O129 Mn126 2.160 . S
O129 C140 1.239 1_545 S
O130 Mn126 2.221 1_565 S
O130 Mn131 2.290 . S
O130 C141 1.278 . S
Mn131 O130 2.290 . S
Mn131 O133 2.089 . S
Mn131 O136 2.251 1_556 S
Mn131 O137 2.087 1_556 S
O132 Mn126 2.163 . S
O132 C142 1.244 1_556 S
O133 Mn131 2.089 . S
O133 C140 1.256 . S
O134 Mn126 2.160 1_565 S
O134 C143 1.239 . S
O135 Mn128 2.089 . S
O135 C143 1.256 1_545 S
O136 Mn131 2.251 1_554 S
O136 C141 1.241 1_554 S
O137 Mn131 2.087 1_554 S
O137 C142 1.256 1_565 S
C138 O144 1.278 . S
C138 O145 1.241 . S
C139 O125 1.244 1_545 S
C139 O127 1.256 . S
C140 O129 1.239 1_565 S
C140 O133 1.256 . S
C141 O130 1.278 . S
C141 O136 1.241 1_556 S
C142 O132 1.244 1_554 S
C142 O137 1.256 1_545 S
C143 O134 1.239 . S
C143 O135 1.256 1_565 S
O144 Mn126 2.221 . S
O144 Mn128 2.290 . S
O144 C138 1.278 . S
O145 Mn128 2.251 . S
O145 C138 1.241 . S
O146 Mn147 2.163 . S
O146 C160 1.244 . S
Mn147 O146 2.163 . S
Mn147 O150 2.160 . S
Mn147 O151 2.221 . S
Mn147 O153 2.163 . S
Mn147 O155 2.160 . S
Mn147 O165 2.221 . S
O148 Mn149 2.087 . S
O148 C160 1.256 . S
Mn149 O148 2.087 . S
Mn149 O156 2.089 . S
Mn149 O165 2.290 . S
Mn149 O166 2.251 . S
O150 Mn147 2.160 . S
O150 C161 1.239 . S
O151 Mn147 2.221 . S
O151 Mn152 2.290 . S
O151 C162 1.278 . S
Mn152 O151 2.290 . S
Mn152 O154 2.089 . S
Mn152 O157 2.251 1_556 S
Mn152 O158 2.087 1_556 S
O153 Mn147 2.163 . S
O153 C163 1.244 1_556 S
O154 Mn152 2.089 . S
O154 C161 1.256 . S
O155 Mn147 2.160 . S
O155 C164 1.239 . S
O156 Mn149 2.089 . S
O156 C164 1.256 . S
O157 Mn152 2.251 1_554 S
O157 C162 1.241 1_554 S
O158 Mn152 2.087 1_554 S
O158 C163 1.256 . S
C159 O165 1.278 . S
C159 O166 1.241 . S
C160 O146 1.244 . S
C160 O148 1.256 . S
C161 O150 1.239 . S
C161 O154 1.256 . S
C162 O151 1.278 . S
C162 O157 1.241 1_556 S
C163 O153 1.244 1_554 S
C163 O158 1.256 . S
C164 O155 1.239 . S
C164 O156 1.256 . S
O165 Mn147 2.221 . S
O165 Mn149 2.290 . S
O165 C159 1.278 . S
O166 Mn149 2.251 . S
O166 C159 1.241 . S
O167 Mn168 2.163 . S
O167 C181 1.244 1_556 S
Mn168 O167 2.163 . S
Mn168 O171 2.160 1_455 S
Mn168 O172 2.221 1_455 S
Mn168 O174 2.163 1_455 S
Mn168 O176 2.160 . S
Mn168 O186 2.221 . S
O169 Mn170 2.087 1_554 S
O169 C181 1.256 . S
Mn170 O169 2.087 1_556 S
Mn170 O177 2.089 . S
Mn170 O186 2.290 . S
Mn170 O187 2.251 1_556 S
O171 Mn168 2.160 1_655 S
O171 C182 1.239 . S
O172 Mn168 2.221 1_655 S
O172 Mn173 2.290 . S
O172 C183 1.278 . S
Mn173 O172 2.290 . S
Mn173 O175 2.089 . S
Mn173 O178 2.251 . S
Mn173 O179 2.087 . S
O174 Mn168 2.163 1_655 S
O174 C184 1.244 . S
O175 Mn173 2.089 . S
O175 C182 1.256 . S
O176 Mn168 2.160 . S
O176 C185 1.239 . S
O177 Mn170 2.089 . S
O177 C185 1.256 . S
O178 Mn173 2.251 . S
O178 C183 1.241 . S
O179 Mn173 2.087 . S
O179 C184 1.256 . S
C180 O186 1.278 . S
C180 O187 1.241 1_556 S
C181 O167 1.244 1_554 S
C181 O169 1.256 . S
C182 O171 1.239 . S
C182 O175 1.256 . S
C183 O172 1.278 . S
C183 O178 1.241 . S
C184 O174 1.244 . S
C184 O179 1.256 . S
C185 O176 1.239 . S
C185 O177 1.256 . S
O186 Mn168 2.221 . S
O186 Mn170 2.290 . S
O186 C180 1.278 . S
O187 Mn170 2.251 1_554 S
O187 C180 1.241 1_554 S
N80 C120 1.956 1_545 S
C138 N93 1.956 . S
C159 N54 1.956 . S
C183 N67 1.957 1_655 S
C117 N28 1.534 1_546 S
N41 C141 1.536 1_554 S
N2 C162 1.535 1_554 S
N15 C180 1.536 1_654 S
C122 N70 1.200 1_655 S
C140 N83 1.200 1_565 S
C161 N96 1.200 . S
N57 C185 1.200 . S
N18 C121 1.323 1_655 S
C139 N31 1.323 1_545 S
C160 N44 1.323 . S
N5 C184 1.323 . S
N66 C118 1.629 . S
N79 C142 1.629 . S
C163 N92 1.629 . S
C181 N53 1.629 . S
N14 C119 1.450 . S
C143 N27 1.450 . S
C164 N40 1.450 . S
N1 C182 1.450 . S
