# Generated by pormake.
# Topology tsx, (6,3)-cn, num edge types: 1
# Building blocks:
#     Node 0, Type 0, BuildingBlock: JUFBIX_clean_sbu_0, # of connection points: 6
#     Node 1, Type 0, BuildingBlock: JUFBIX_clean_sbu_0, # of connection points: 6
#     Node 2, Type 1, BuildingBlock: QEWDON_clean_linker_0, # of connection points: 3
#     Node 3, Type 1, BuildingBlock: QEWDON_clean_linker_0, # of connection points: 3
#     Node 4, Type 1, BuildingBlock: QEWDON_clean_linker_0, # of connection points: 3
#     Node 5, Type 1, BuildingBlock: QEWDON_clean_linker_0, # of connection points: 3
#     Edge 6, Type (0, 1), BuildingBlock: OJICUG_clean_linker_0, # of connection points: 2
#     Edge 7, Type (0, 1), BuildingBlock: OJICUG_clean_linker_0, # of connection points: 2
#     Edge 8, Type (0, 1), BuildingBlock: OJICUG_clean_linker_0, # of connection points: 2
#     Edge 9, Type (0, 1), BuildingBlock: OJICUG_clean_linker_0, # of connection points: 2
#     Edge 10, Type (0, 1), BuildingBlock: OJICUG_clean_linker_0, # of connection points: 2
#     Edge 11, Type (0, 1), BuildingBlock: OJICUG_clean_linker_0, # of connection points: 2
#     Edge 12, Type (0, 1), BuildingBlock: OJICUG_clean_linker_0, # of connection points: 2
#     Edge 13, Type (0, 1), BuildingBlock: OJICUG_clean_linker_0, # of connection points: 2
#     Edge 14, Type (0, 1), BuildingBlock: OJICUG_clean_linker_0, # of connection points: 2
#     Edge 15, Type (0, 1), BuildingBlock: OJICUG_clean_linker_0, # of connection points: 2
#     Edge 16, Type (0, 1), BuildingBlock: OJICUG_clean_linker_0, # of connection points: 2
#     Edge 17, Type (0, 1), BuildingBlock: OJICUG_clean_linker_0, # of connection points: 2
# Relax obj value: 0.109
# Max RMSD: 0.166
# Mean RMSD: 0.145
data_MOF--net-tsx--node1-JUFBIX_clean_sbu_0--node2-QEWDON_clean_linker_0--edge1-OJICUG_clean_linker_0
_symmetry_space_group_name_H-M    P1
_symmetry_Int_Tables_number       1
_symmetry_cell_setting            triclinic
loop_
_symmetry_equiv_pos_as_xyz
'x, y, z'
_cell_length_a     14.664511
_cell_length_b     18.918241
_cell_length_c     20.671564
_cell_angle_alpha  90.912405
_cell_angle_beta   102.8869
_cell_angle_gamma 103.06078
loop_
_atom_site_label
_atom_site_type_symbol
_atom_site_fract_x
_atom_site_fract_y
_atom_site_fract_z
_atom_type_partial_charge
Co0 Co 0.10449 0.95074 1.03765 0.0
C1 C 1.02561 1.00862 0.9191 0.0
Co2 Co 1.00794 0.02333 0.05013 0.0
C3 C 0.27234 0.88286 0.06719 0.0
C4 C 0.17069 0.83871 0.97642 0.0
N5 N 0.18681 0.88859 1.02736 0.0
N6 N 0.30941 0.83087 1.0432 0.0
C7 C 0.24495 0.80364 0.98582 0.0
H8 H 0.3058 0.91535 0.11352 0.0
H9 H 0.10852 0.82831 0.93492 0.0
C10 C 0.09543 0.97149 0.17068 0.0
N11 N 0.93034 0.08473 0.06585 0.0
C12 C 0.93783 0.15624 0.05654 0.0
C13 C 0.8606 0.067 0.09974 0.0
N14 N 0.87602 0.18381 0.08376 0.0
C15 C 0.82708 0.12729 0.11058 0.0
C16 C 0.9048 0.8814 1.01575 0.0
O17 O 0.12933 0.9366 0.13215 0.0
O18 O 1.03807 1.01023 0.14476 0.0
O19 O 0.90107 0.94439 1.03481 0.0
O20 O 0.98761 0.86872 1.01669 0.0
O21 O 0.98129 0.03697 0.95544 0.0
H22 H 0.83841 1.01423 0.11826 0.0
H23 H 0.98923 0.18764 1.03157 0.0
O24 O 1.0814 0.96854 0.94523 0.0
O25 O 0.21284 0.03309 0.05323 0.0
O26 O 0.11349 0.10207 0.06218 0.0
C27 C 0.19661 0.09606 0.05857 0.0
H28 H 0.25092 0.76134 0.95222 0.0
H29 H 0.7736 0.1297 0.13859 0.0
Co30 Co 0.70577 0.47335 0.55492 0.0
C31 C 0.62783 0.49959 0.42479 0.0
Co32 Co 0.60516 0.54658 0.54993 0.0
C33 C 0.87954 0.41123 0.60231 0.0
C34 C 0.76183 0.33935 0.53501 0.0
N35 N 0.78958 0.40771 0.56381 0.0
N36 N 0.90698 0.34724 0.5993 0.0
C37 C 0.83263 0.30244 0.55677 0.0
H38 H 0.92271 0.45889 0.63354 0.0
H39 H 0.69322 0.31692 0.50095 0.0
C40 C 0.68981 0.52482 0.68106 0.0
N41 N 0.52016 0.60659 0.54246 0.0
C42 C 0.52558 0.66901 0.57744 0.0
C43 C 0.43148 0.59074 0.50159 0.0
N44 N 0.44275 0.69142 0.56068 0.0
C45 C 0.38378 0.64245 0.51284 0.0
C46 C 0.50641 0.40276 0.5425 0.0
O47 O 0.72858 0.48424 0.65133 0.0
O48 O 0.63003 0.55684 0.64619 0.0
O49 O 0.50171 0.46821 0.54747 0.0
O50 O 0.58983 0.3895 0.54773 0.0
O51 O 0.58355 0.53626 0.45391 0.0
H52 H 0.4027 0.54376 0.46639 0.0
H53 H 0.58805 0.69661 0.61516 0.0
O54 O 0.68458 0.46544 0.45996 0.0
O55 O 0.8127 0.55911 0.55682 0.0
O56 O 0.70593 0.62574 0.55018 0.0
C57 C 0.79085 0.62109 0.55042 0.0
H58 H 0.83002 0.24674 0.54187 0.0
H59 H 0.31183 0.64479 0.48688 0.0
H60 H 0.21353 0.10166 0.47895 0.0
C61 C 0.24248 0.05903 0.502 0.0
C62 C 0.24217 0.99796 0.46113 0.0
C63 C 0.28599 0.06686 0.57137 0.0
H64 H 0.27968 0.89458 0.46193 0.0
C65 C 0.28077 0.94262 0.49176 0.0
C66 C 0.32144 0.94797 0.5603 0.0
C67 C 0.32573 1.01027 0.59981 0.0
C68 C 0.30524 0.13805 0.61162 0.0
H69 H 0.36113 1.01514 0.65219 0.0
C70 C 0.23294 0.16338 0.63409 0.0
C71 C 0.24908 0.23699 0.65984 0.0
C72 C 0.39864 0.18267 0.62613 0.0
H73 H 0.45638 0.16457 0.61118 0.0
C74 C 0.41837 0.25152 0.65887 0.0
H75 H 0.16302 0.12703 0.62716 0.0
C76 C 0.34435 0.27909 0.67424 0.0
H77 H 0.36176 0.33422 0.69617 0.0
H78 H 0.49094 0.28524 0.6696 0.0
H79 H 0.97939 0.12157 0.5998 0.0
C80 C 0.97669 0.0661 0.5865 0.0
C81 C 0.9766 1.01473 0.63527 0.0
C82 C 0.97686 0.04643 0.52025 0.0
H83 H 0.96428 0.90268 0.65377 0.0
C84 C 0.96767 0.94205 0.61624 0.0
C85 C 0.96069 0.9188 0.5504 0.0
C86 C 0.9653 0.97131 0.50226 0.0
C87 C 1.00002 0.10428 0.47238 0.0
H88 H 0.96274 0.95375 0.45168 0.0
C89 C 1.07672 0.16679 0.49279 0.0
C90 C 0.12496 0.20487 0.44701 0.0
C91 C 0.95554 0.09325 0.4042 0.0
H92 H 0.89372 0.04841 0.38605 0.0
C93 C 0.99511 0.1368 0.35819 0.0
H94 H 0.10267 0.18343 0.54407 0.0
C95 C 1.08221 0.18927 0.37906 0.0
H96 H 0.11581 0.21783 0.34227 0.0
H97 H 0.96171 0.12628 0.30562 0.0
H98 H 0.78274 0.6576 1.0024 0.0
C99 C 0.79129 0.60593 1.01852 0.0
C100 C 0.79557 0.55162 0.97184 0.0
C101 C 0.78901 0.59156 0.08544 0.0
H102 H 0.82044 0.44532 0.96069 0.0
C103 C 0.81477 0.48686 0.99546 0.0
C104 C 0.82242 0.47305 0.06248 0.0
C105 C 0.80552 0.52363 0.10671 0.0
C106 C 0.76205 0.64387 0.1312 0.0
H107 H 0.80404 0.50915 0.15698 0.0
C108 C 0.69521 0.68687 0.10688 0.0
C109 C 0.65467 0.72417 0.14924 0.0
C110 C 0.79609 0.64656 0.2007 0.0
H111 H 0.84887 0.61678 0.22263 0.0
C112 C 0.76237 0.68764 0.24325 0.0
H113 H 0.67012 0.68839 0.05503 0.0
C114 C 0.69142 0.72518 0.21797 0.0
H115 H 0.66297 0.75292 0.25233 0.0
H116 H 0.78926 0.68842 0.29653 0.0
H117 H 0.56034 0.5736 0.10557 0.0
C118 C 0.53332 0.51744 0.08885 0.0
C119 C 0.54332 0.46545 0.13636 0.0
C120 C 0.48469 0.49688 1.02147 0.0
H121 H 0.50818 0.35192 0.15248 0.0
C122 C 0.50566 0.392 0.11558 0.0
C123 C 0.4533 0.37014 0.05023 0.0
C124 C 0.44353 0.4227 1.00312 0.0
C125 C 0.471 0.55325 0.97201 0.0
H126 H 0.40156 0.40604 0.95284 0.0
C127 C 0.55078 0.6044 0.96112 0.0
C128 C 0.54221 0.66758 0.92691 0.0
C129 C 0.37896 0.561 0.94048 0.0
H130 H 0.31541 0.52244 0.94715 0.0
C131 C 0.36842 0.62102 0.9028 0.0
H132 H 0.61952 0.59599 0.98321 0.0
C133 C 0.44924 0.6751 0.89774 0.0
H134 H 0.43911 0.72337 0.87236 0.0
H135 H 0.29703 0.62744 0.88007 0.0
C136 C 0.2307 0.22048 1.02041 0.0
C137 C 0.2663 0.16237 0.04934 0.0
H138 H 0.26263 0.33097 0.99584 0.0
C139 C 0.36602 0.16909 0.06747 0.0
H140 H 0.15402 0.21611 1.00387 0.0
C141 C 0.42886 0.23549 0.06213 0.0
C142 C 0.39243 0.29522 1.03753 0.0
H143 H 0.3951 0.12455 0.08858 0.0
H144 H 0.50562 0.24152 0.08052 0.0
C145 C 0.29296 0.28594 1.01424 0.0
C146 C 0.40172 0.73469 0.05553 0.0
C147 C 0.39614 0.80576 0.0721 0.0
H148 H 0.48356 0.65471 0.06676 0.0
C149 C 0.47726 0.85061 0.11611 0.0
H150 H 0.34077 0.69718 1.02383 0.0
C151 C 0.56144 0.82508 0.14115 0.0
C152 C 0.56709 0.75424 0.12255 0.0
H153 H 0.47633 0.90567 0.13043 0.0
H154 H 0.6225 0.86104 0.17442 0.0
C155 C 0.48492 0.70978 0.08028 0.0
C156 C 0.72609 0.83858 1.0036 0.0
C157 C 0.81067 0.82826 0.98693 0.0
H158 H 0.57411 0.7994 0.99314 0.0
C159 C 0.80033 0.77364 0.9369 0.0
H160 H 0.72944 0.88234 1.03914 0.0
C161 C 0.70969 0.72558 0.91046 0.0
C162 C 0.62833 0.73053 0.93424 0.0
H163 H 0.86238 0.76671 0.91951 0.0
H164 H 0.7047 0.68195 0.87465 0.0
C165 C 0.63624 0.79141 0.97664 0.0
C166 C 0.94114 0.31569 0.077 0.0
C167 C 0.86662 0.25829 0.08648 0.0
H168 H 0.98581 0.42939 0.06379 0.0
C169 C 0.78192 0.27496 0.0975 0.0
H170 H 1.0081 0.30568 0.06988 0.0
C171 C 0.77035 0.34651 0.09565 0.0
C172 C 0.84307 0.40263 0.08261 0.0
H173 H 0.72258 0.23247 0.10457 0.0
H174 H 0.70243 0.35718 0.10026 0.0
C175 C 0.92923 0.38688 0.07475 0.0
C176 C 0.81787 0.73026 0.48601 0.0
C177 C 0.85617 0.68832 0.53629 0.0
H178 H 0.82243 0.83634 0.4499 0.0
C179 C 0.94422 0.71975 0.58033 0.0
H180 H 0.75011 0.70715 0.45098 0.0
C181 C 0.98649 0.79416 0.57903 0.0
C182 C 0.94063 0.83844 0.53437 0.0
H183 H 0.97526 0.68906 0.6196 0.0
H184 H 1.05013 0.81861 0.61726 0.0
C185 C 0.85964 0.8044 0.48492 0.0
C186 C 1.08622 0.37231 0.62849 0.0
C187 C 0.99649 0.32807 0.63105 0.0
H188 H 0.23635 0.38014 0.63794 0.0
C189 C 0.99531 0.25978 0.65773 0.0
H190 H 0.09044 0.42563 0.60942 0.0
C191 C 1.07987 0.23372 0.67488 0.0
C192 C 0.16683 0.273 0.6624 0.0
H193 H 0.92791 0.22515 0.66277 0.0
H194 H 1.07619 0.18094 0.69468 0.0
C195 C 0.17024 0.34544 0.64459 0.0
C196 C 0.32741 0.36605 0.5319 0.0
C197 C 0.41178 0.34712 0.52251 0.0
H198 H 0.17269 0.3378 0.51407 0.0
C199 C 0.40009 0.28181 0.48472 0.0
H200 H 0.33227 0.41718 0.55828 0.0
C201 C 0.30716 0.23713 0.45799 0.0
C202 C 0.2236 0.25504 0.47034 0.0
H203 H 0.46218 0.26658 0.47373 0.0
H204 H 0.30092 0.18843 0.42756 0.0
C205 C 0.2354 0.32073 0.50662 0.0
C206 C 0.48864 0.82389 0.588 0.0
C207 C 0.42155 0.75689 0.58294 0.0
H208 H 0.50848 0.93978 0.58614 0.0
C209 C 0.32748 0.75603 0.58828 0.0
H210 H 0.56139 0.82576 0.58371 0.0
C211 C 0.29772 0.82079 0.59049 0.0
C212 C 0.36171 0.8873 0.58745 0.0
H213 H 0.27495 0.7049 0.58528 0.0
H214 H 0.22239 0.81842 0.58769 0.0
C215 C 0.45861 0.88896 0.58981 0.0
C216 C 1.07789 0.99605 0.28783 0.0
C217 C 0.13016 0.97374 0.24504 0.0
H218 H 1.07127 1.01662 0.38909 0.0
C219 C 0.21972 0.95885 0.27424 0.0
H220 H 1.00823 1.00723 0.26762 0.0
C221 C 0.25658 0.96776 0.34374 0.0
C222 C 0.20468 0.99109 0.38647 0.0
H223 H 0.26275 0.94213 0.24324 0.0
H224 H 0.32642 0.95693 0.36405 0.0
C225 C 0.11434 1.00338 0.35733 0.0
C226 C 0.93265 0.03877 0.80775 0.0
C227 C 1.01631 0.02309 0.84738 0.0
H228 H 0.85405 0.04942 0.7082 0.0
C229 C 0.09162 0.01789 0.81706 0.0
H230 H 0.87349 0.04342 0.82961 0.0
C231 C 1.08163 0.0236 0.74861 0.0
C232 C 0.99557 0.03369 0.70806 0.0
H233 H 0.15767 1.00703 0.84604 0.0
H234 H 0.13906 1.01514 0.72646 0.0
C235 C 0.9219 0.04316 0.73844 0.0
C236 C 0.6461 0.52554 0.79257 0.0
C237 C 0.71687 0.53658 0.75541 0.0
H238 H 0.61601 0.51716 0.88934 0.0
C239 C 0.8142 0.55751 0.79021 0.0
H240 H 0.57071 0.50801 0.76755 0.0
C241 C 0.83993 0.56749 0.86033 0.0
C242 C 0.76908 0.55558 0.89763 0.0
H243 H 0.87057 0.56606 0.76307 0.0
H244 H 0.9154 0.58212 0.88557 0.0
C245 C 0.67203 0.53261 0.8626 0.0
C246 C 0.65799 0.45284 0.31841 0.0
C247 C 0.61453 0.49739 0.35081 0.0
H248 H 0.67213 0.40968 0.22548 0.0
C249 C 0.55818 0.53938 0.31162 0.0
H250 H 0.70307 0.42057 0.3467 0.0
C251 C 0.54136 0.53372 0.2418 0.0
C252 C 0.57993 0.48555 0.20944 0.0
H253 H 0.52478 0.57523 0.33475 0.0
H254 H 0.49367 0.56389 0.21309 0.0
C255 C 0.64082 0.44694 0.2488 0.0
loop_
_geom_bond_atom_site_label_1
_geom_bond_atom_site_label_2
_geom_bond_distance
_geom_bond_site_symmetry_2
_ccdc_geom_bond_type
Co0 N5 2.057 . S
Co0 O17 2.021 . S
Co0 O20 2.062 1_455 S
Co0 O24 2.117 1_554 S
Co0 O25 2.020 1_565 S
C1 O21 1.259 1_455 S
C1 O24 1.258 1_545 S
Co2 N11 2.057 1_556 S
Co2 O18 2.117 1_656 S
Co2 O19 2.020 1_545 S
Co2 O21 2.021 . S
Co2 O26 2.062 1_656 S
C3 N5 1.316 . S
C3 N6 1.347 . S
C3 H8 0.931 . S
C4 N5 1.375 1_556 S
C4 C7 1.350 . S
C4 H9 0.930 . S
N5 Co0 2.057 . S
N5 C3 1.316 . S
N5 C4 1.375 1_554 S
N6 C3 1.347 . S
N6 C7 1.373 1_554 S
C7 C4 1.350 . S
C7 N6 1.373 1_556 S
C7 H28 0.931 . S
H8 C3 0.931 . S
H9 C4 0.930 . S
C10 O17 1.259 1_545 S
C10 O18 1.258 . S
N11 Co2 2.057 1_554 S
N11 C12 1.316 1_554 S
N11 C13 1.375 . S
C12 N11 1.316 1_556 S
C12 N14 1.347 . S
C12 H23 0.931 . S
C13 N11 1.375 . S
C13 C15 1.350 . S
C13 H22 0.930 . S
N14 C12 1.347 . S
N14 C15 1.373 1_556 S
C15 C13 1.350 . S
C15 N14 1.373 1_554 S
C15 H29 0.931 . S
C16 O19 1.256 . S
C16 O20 1.255 1_556 S
O17 Co0 2.021 . S
O17 C10 1.259 1_565 S
O18 Co2 2.117 1_454 S
O18 C10 1.258 . S
O19 Co2 2.020 1_565 S
O19 C16 1.256 . S
O20 Co0 2.062 1_655 S
O20 C16 1.255 1_554 S
O21 C1 1.259 1_655 S
O21 Co2 2.021 . S
H22 C13 0.930 . S
H23 C12 0.931 . S
O24 Co0 2.117 1_556 S
O24 C1 1.258 1_565 S
O25 Co0 2.020 1_545 S
O25 C27 1.256 . S
O26 Co2 2.062 1_454 S
O26 C27 1.255 . S
C27 O25 1.256 . S
C27 O26 1.255 . S
H28 C7 0.931 . S
H29 C15 0.931 . S
Co30 N35 2.057 . S
Co30 O47 2.021 . S
Co30 O50 2.062 . S
Co30 O54 2.117 . S
Co30 O55 2.020 . S
C31 O51 1.259 . S
C31 O54 1.258 . S
Co32 N41 2.057 . S
Co32 O48 2.117 . S
Co32 O49 2.020 . S
Co32 O51 2.021 . S
Co32 O56 2.062 . S
C33 N35 1.316 . S
C33 N36 1.347 . S
C33 H38 0.931 . S
C34 N35 1.375 . S
C34 C37 1.350 . S
C34 H39 0.930 . S
N35 Co30 2.057 . S
N35 C33 1.316 . S
N35 C34 1.375 . S
N36 C33 1.347 . S
N36 C37 1.373 . S
C37 C34 1.350 . S
C37 N36 1.373 . S
C37 H58 0.931 . S
H38 C33 0.931 . S
H39 C34 0.930 . S
C40 O47 1.259 . S
C40 O48 1.258 . S
N41 Co32 2.057 . S
N41 C42 1.316 . S
N41 C43 1.375 . S
C42 N41 1.316 . S
C42 N44 1.347 . S
C42 H53 0.931 . S
C43 N41 1.375 . S
C43 C45 1.350 . S
C43 H52 0.930 . S
N44 C42 1.347 . S
N44 C45 1.373 . S
C45 C43 1.350 . S
C45 N44 1.373 . S
C45 H59 0.931 . S
C46 O49 1.256 . S
C46 O50 1.255 . S
O47 Co30 2.021 . S
O47 C40 1.259 . S
O48 Co32 2.117 . S
O48 C40 1.258 . S
O49 Co32 2.020 . S
O49 C46 1.256 . S
O50 Co30 2.062 . S
O50 C46 1.255 . S
O51 C31 1.259 . S
O51 Co32 2.021 . S
H52 C43 0.930 . S
H53 C42 0.931 . S
O54 Co30 2.117 . S
O54 C31 1.258 . S
O55 Co30 2.020 . S
O55 C57 1.256 . S
O56 Co32 2.062 . S
O56 C57 1.255 . S
C57 O55 1.256 . S
C57 O56 1.255 . S
H58 C37 0.931 . S
H59 C45 0.931 . S
H60 C61 0.949 . S
C61 H60 0.949 . S
C61 C62 1.395 1_545 S
C61 C63 1.391 . S
C62 C61 1.395 1_565 S
C62 C65 1.390 . S
C63 C61 1.391 . S
C63 C67 1.387 1_545 S
C63 C68 1.491 . S
H64 C65 0.950 . S
C65 C62 1.390 . S
C65 H64 0.950 . S
C65 C66 1.378 . S
C66 C65 1.378 . S
C66 C67 1.409 . S
C67 C63 1.387 1_565 S
C67 C66 1.409 . S
C67 H69 0.951 . S
C68 C63 1.491 . S
C68 C70 1.382 1_455 S
C68 C72 1.404 . S
H69 C67 0.951 . S
C70 C68 1.382 1_655 S
C70 C71 1.390 . S
C70 H75 0.949 . S
C71 C70 1.390 . S
C71 C76 1.399 1_655 S
C72 C68 1.404 . S
C72 H73 0.950 . S
C72 C74 1.375 . S
H73 C72 0.950 . S
C74 C72 1.375 . S
C74 C76 1.382 . S
C74 H78 0.950 . S
H75 C70 0.949 . S
C76 C71 1.399 1_455 S
C76 C74 1.382 . S
C76 H77 0.952 . S
H77 C76 0.952 . S
H78 C74 0.950 . S
H79 C80 0.949 . S
C80 H79 0.949 . S
C80 C81 1.395 1_445 S
C80 C82 1.391 1_455 S
C81 C80 1.395 1_665 S
C81 C84 1.390 . S
C82 C80 1.391 1_655 S
C82 C86 1.387 1_545 S
C82 C87 1.491 1_655 S
H83 C84 0.950 . S
C84 C81 1.390 . S
C84 H83 0.950 . S
C84 C85 1.378 . S
C85 C84 1.378 . S
C85 C86 1.409 . S
C86 C82 1.387 1_565 S
C86 C85 1.409 . S
C86 H88 0.951 . S
C87 C82 1.491 1_455 S
C87 C89 1.382 . S
C87 C91 1.404 1_455 S
H88 C86 0.951 . S
C89 C87 1.382 . S
C89 C90 1.390 . S
C89 H94 0.949 . S
C90 C89 1.390 . S
C90 C95 1.399 . S
C91 C87 1.404 1_655 S
C91 H92 0.950 . S
C91 C93 1.375 . S
H92 C91 0.950 . S
C93 C91 1.375 . S
C93 C95 1.382 1_655 S
C93 H97 0.950 . S
H94 C89 0.949 . S
C95 C90 1.399 . S
C95 C93 1.382 1_455 S
C95 H96 0.952 . S
H96 C95 0.952 . S
H97 C93 0.950 . S
H98 C99 0.949 . S
C99 H98 0.949 . S
C99 C100 1.395 . S
C99 C101 1.391 . S
C100 C99 1.395 . S
C100 C103 1.390 . S
C101 C99 1.391 . S
C101 C105 1.387 1_556 S
C101 C106 1.491 1_556 S
H102 C103 0.950 . S
C103 C100 1.390 . S
C103 H102 0.950 . S
C103 C104 1.378 . S
C104 C103 1.378 . S
C104 C105 1.409 1_556 S
C105 C101 1.387 1_554 S
C105 C104 1.409 1_554 S
C105 H107 0.951 . S
C106 C101 1.491 1_554 S
C106 C108 1.382 . S
C106 C110 1.404 . S
H107 C105 0.951 . S
C108 C106 1.382 . S
C108 C109 1.399 . S
C108 H113 0.938 1_554 S
C109 C108 1.399 . S
C109 C114 1.399 . S
C110 C106 1.404 . S
C110 H111 0.950 . S
C110 C112 1.375 . S
H111 C110 0.950 . S
C112 C110 1.375 . S
C112 C114 1.382 . S
C112 H116 0.950 . S
H113 C108 0.938 1_556 S
C114 C109 1.399 . S
C114 C112 1.382 . S
C114 H115 0.952 . S
H115 C114 0.952 . S
H116 C112 0.950 . S
H117 C118 0.949 . S
C118 H117 0.949 . S
C118 C119 1.395 . S
C118 C120 1.391 . S
C119 C118 1.395 . S
C119 C122 1.390 . S
C120 C118 1.391 . S
C120 C124 1.388 . S
C120 C125 1.491 1_554 S
H121 C122 0.950 . S
C122 C119 1.390 . S
C122 H121 0.950 . S
C122 C123 1.378 . S
C123 C122 1.378 . S
C123 C124 1.411 . S
C124 C120 1.388 . S
C124 C123 1.411 . S
C124 H126 0.949 1_554 S
C125 C120 1.491 1_556 S
C125 C127 1.382 1_556 S
C125 C129 1.404 . S
H126 C124 0.949 1_556 S
C127 C125 1.382 1_554 S
C127 C128 1.390 1_554 S
C127 H132 0.949 . S
C128 C127 1.390 1_556 S
C128 C133 1.399 . S
C129 C125 1.404 . S
C129 H130 0.950 . S
C129 C131 1.375 . S
H130 C129 0.950 . S
C131 C129 1.375 . S
C131 C133 1.382 . S
C131 H135 0.950 . S
H132 C127 0.949 . S
C133 C128 1.399 . S
C133 C131 1.382 . S
C133 H134 0.952 . S
H134 C133 0.952 . S
H135 C131 0.950 . S
C136 C137 1.387 . S
C136 H140 0.950 . S
C136 C145 1.390 . S
C137 C136 1.387 . S
C137 C139 1.387 1_554 S
H138 C145 0.950 . S
C139 C137 1.387 1_556 S
C139 C141 1.390 . S
C139 H143 0.950 . S
H140 C136 0.950 . S
C141 C139 1.390 . S
C141 C142 1.387 1_556 S
C141 H144 0.950 . S
C142 C141 1.387 1_554 S
C142 C145 1.387 . S
H143 C139 0.950 . S
H144 C141 0.950 . S
C145 C136 1.390 . S
C145 H138 0.950 . S
C145 C142 1.387 . S
C146 C147 1.387 1_556 S
C146 H150 0.950 . S
C146 C155 1.390 . S
C147 C146 1.387 1_554 S
C147 C149 1.387 . S
H148 C155 0.950 . S
C149 C147 1.387 . S
C149 C151 1.390 . S
C149 H153 0.950 . S
H150 C146 0.950 . S
C151 C149 1.390 . S
C151 C152 1.387 . S
C151 H154 0.950 . S
C152 C151 1.387 . S
C152 C155 1.387 1_554 S
H153 C149 0.950 . S
H154 C151 0.950 . S
C155 C146 1.390 . S
C155 H148 0.950 . S
C155 C152 1.387 1_556 S
C156 C157 1.387 1_554 S
C156 H160 0.950 . S
C156 C165 1.390 . S
C157 C156 1.387 1_556 S
C157 C159 1.387 . S
H158 C165 0.950 . S
C159 C157 1.387 . S
C159 C161 1.390 . S
C159 H163 0.950 . S
H160 C156 0.950 . S
C161 C159 1.390 . S
C161 C162 1.387 . S
C161 H164 0.950 . S
C162 C161 1.387 . S
C162 C165 1.387 1_556 S
H163 C159 0.950 . S
H164 C161 0.950 . S
C165 C156 1.390 . S
C165 H158 0.950 . S
C165 C162 1.387 1_554 S
C166 C167 1.387 . S
C166 H170 0.950 . S
C166 C175 1.390 . S
C167 C166 1.387 . S
C167 C169 1.387 1_556 S
H168 C175 0.950 . S
C169 C167 1.387 1_554 S
C169 C171 1.390 . S
C169 H173 0.950 . S
H170 C166 0.950 . S
C171 C169 1.390 . S
C171 C172 1.387 1_554 S
C171 H174 0.950 . S
C172 C171 1.387 1_556 S
C172 C175 1.387 . S
H173 C169 0.950 . S
H174 C171 0.950 . S
C175 C166 1.390 . S
C175 H168 0.950 . S
C175 C172 1.387 . S
C176 C177 1.387 . S
C176 H180 0.950 . S
C176 C185 1.390 . S
C177 C176 1.387 . S
C177 C179 1.387 . S
H178 C185 0.950 . S
C179 C177 1.387 . S
C179 C181 1.390 . S
C179 H183 0.950 . S
H180 C176 0.950 . S
C181 C179 1.390 . S
C181 C182 1.387 . S
C181 H184 0.950 . S
C182 C181 1.387 . S
C182 C185 1.387 . S
H183 C179 0.950 . S
H184 C181 0.950 . S
C185 C176 1.390 . S
C185 H178 0.950 . S
C185 C182 1.387 . S
C186 C187 1.387 . S
C186 H190 0.950 . S
C186 C195 1.390 . S
C187 C186 1.387 . S
C187 C189 1.387 . S
H188 C195 0.950 . S
C189 C187 1.387 . S
C189 C191 1.390 . S
C189 H193 0.950 . S
H190 C186 0.950 . S
C191 C189 1.390 . S
C191 C192 1.387 . S
C191 H194 0.950 . S
C192 C191 1.387 . S
C192 C195 1.387 . S
H193 C189 0.950 . S
H194 C191 0.950 . S
C195 C186 1.390 . S
C195 H188 0.950 . S
C195 C192 1.387 . S
C196 C197 1.387 . S
C196 H200 0.950 . S
C196 C205 1.390 . S
C197 C196 1.387 . S
C197 C199 1.387 . S
H198 C205 0.950 . S
C199 C197 1.387 . S
C199 C201 1.390 . S
C199 H203 0.950 . S
H200 C196 0.950 . S
C201 C199 1.390 . S
C201 C202 1.387 . S
C201 H204 0.950 . S
C202 C201 1.387 . S
C202 C205 1.387 . S
H203 C199 0.950 . S
H204 C201 0.950 . S
C205 C196 1.390 . S
C205 H198 0.950 . S
C205 C202 1.387 . S
C206 C207 1.387 . S
C206 H210 0.950 . S
C206 C215 1.390 . S
C207 C206 1.387 . S
C207 C209 1.387 . S
H208 C215 0.950 . S
C209 C207 1.387 . S
C209 C211 1.390 . S
C209 H213 0.950 . S
H210 C206 0.950 . S
C211 C209 1.390 . S
C211 C212 1.387 . S
C211 H214 0.950 . S
C212 C211 1.387 . S
C212 C215 1.387 . S
H213 C209 0.950 . S
H214 C211 0.950 . S
C215 C206 1.390 . S
C215 H208 0.950 . S
C215 C212 1.387 . S
C216 C217 1.387 . S
C216 H220 0.950 1_455 S
C216 C225 1.390 . S
C217 C216 1.387 . S
C217 C219 1.387 1_545 S
H218 C225 0.950 1_655 S
C219 C217 1.387 1_565 S
C219 C221 1.390 . S
C219 H223 0.950 . S
H220 C216 0.950 1_655 S
C221 C219 1.390 . S
C221 C222 1.387 . S
C221 H224 0.950 . S
C222 C221 1.387 . S
C222 C225 1.387 1_565 S
H223 C219 0.950 . S
H224 C221 0.950 . S
C225 C216 1.390 . S
C225 H218 0.950 1_455 S
C225 C222 1.387 1_545 S
C226 C227 1.386 . S
C226 H230 0.950 . S
C226 C235 1.390 . S
C227 C226 1.386 . S
C227 C229 1.389 1_645 S
H228 C235 0.950 . S
C229 C227 1.389 1_465 S
C229 C231 1.390 . S
C229 H233 0.950 . S
H230 C226 0.950 . S
C231 C229 1.390 . S
C231 C232 1.387 1_455 S
C231 H234 0.950 . S
C232 C231 1.387 1_655 S
C232 C235 1.387 1_565 S
H233 C229 0.950 . S
H234 C231 0.950 . S
C235 C226 1.390 . S
C235 H228 0.950 . S
C235 C232 1.387 1_545 S
C236 C237 1.387 . S
C236 H240 0.950 . S
C236 C245 1.390 . S
C237 C236 1.387 . S
C237 C239 1.387 . S
H238 C245 0.950 . S
C239 C237 1.387 . S
C239 C241 1.390 . S
C239 H243 0.950 . S
H240 C236 0.950 . S
C241 C239 1.390 . S
C241 C242 1.387 . S
C241 H244 0.950 . S
C242 C241 1.387 . S
C242 C245 1.387 . S
H243 C239 0.950 . S
H244 C241 0.950 . S
C245 C236 1.390 . S
C245 H238 0.950 . S
C245 C242 1.387 . S
C246 C247 1.387 . S
C246 H250 0.950 . S
C246 C255 1.390 . S
C247 C246 1.387 . S
C247 C249 1.387 . S
H248 C255 0.950 . S
C249 C247 1.387 . S
C249 C251 1.390 . S
C249 H253 0.950 . S
H250 C246 0.950 . S
C251 C249 1.390 . S
C251 C252 1.387 . S
C251 H254 0.950 . S
C252 C251 1.387 . S
C252 C255 1.387 . S
H253 C249 0.950 . S
H254 C251 0.950 . S
C255 C246 1.390 . S
C255 H248 0.950 . S
C255 C252 1.387 . S
C142 C123 1.517 . S
C137 C27 1.545 . S
C147 N6 1.435 . S
C152 C109 1.451 . S
C157 C16 1.506 . S
C162 C128 1.477 . S
C167 N14 1.495 . S
C172 C104 1.503 . S
C177 C57 1.545 . S
C182 C85 1.517 . S
C187 N36 1.434 . S
C192 C71 1.453 . S
C202 C90 1.477 . S
C197 C46 1.506 . S
C212 C66 1.503 . S
C207 N44 1.495 . S
C217 C10 1.530 . S
C222 C62 1.528 . S
C227 C1 1.570 1_655 S
C232 C81 1.566 . S
C242 C100 1.528 . S
C237 C40 1.530 . S
C247 C31 1.571 . S
C252 C119 1.565 . S
