# Generated by pormake.
# Topology pyr, (3,6)-cn, num edge types: 1
# Building blocks:
#     Node 0, Type 0, BuildingBlock: CUQRIR_clean_linker_1, # of connection points: 3
#     Node 1, Type 0, BuildingBlock: CUQRIR_clean_linker_1, # of connection points: 3
#     Node 2, Type 0, BuildingBlock: CUQRIR_clean_linker_1, # of connection points: 3
#     Node 3, Type 0, BuildingBlock: CUQRIR_clean_linker_1, # of connection points: 3
#     Node 4, Type 0, BuildingBlock: CUQRIR_clean_linker_1, # of connection points: 3
#     Node 5, Type 0, BuildingBlock: CUQRIR_clean_linker_1, # of connection points: 3
#     Node 6, Type 0, BuildingBlock: CUQRIR_clean_linker_1, # of connection points: 3
#     Node 7, Type 0, BuildingBlock: CUQRIR_clean_linker_1, # of connection points: 3
#     Node 8, Type 1, BuildingBlock: LEVNOQ01_clean_sbu_1, # of connection points: 6
#     Node 9, Type 1, BuildingBlock: LEVNOQ01_clean_sbu_1, # of connection points: 6
#     Node 10, Type 1, BuildingBlock: LEVNOQ01_clean_sbu_1, # of connection points: 6
#     Node 11, Type 1, BuildingBlock: LEVNOQ01_clean_sbu_1, # of connection points: 6
#     Edge 12, Type (0, 1), None
#     Edge 13, Type (0, 1), None
#     Edge 14, Type (0, 1), None
#     Edge 15, Type (0, 1), None
#     Edge 16, Type (0, 1), None
#     Edge 17, Type (0, 1), None
#     Edge 18, Type (0, 1), None
#     Edge 19, Type (0, 1), None
#     Edge 20, Type (0, 1), None
#     Edge 21, Type (0, 1), None
#     Edge 22, Type (0, 1), None
#     Edge 23, Type (0, 1), None
#     Edge 24, Type (0, 1), None
#     Edge 25, Type (0, 1), None
#     Edge 26, Type (0, 1), None
#     Edge 27, Type (0, 1), None
#     Edge 28, Type (0, 1), None
#     Edge 29, Type (0, 1), None
#     Edge 30, Type (0, 1), None
#     Edge 31, Type (0, 1), None
#     Edge 32, Type (0, 1), None
#     Edge 33, Type (0, 1), None
#     Edge 34, Type (0, 1), None
#     Edge 35, Type (0, 1), None
# Relax obj value: 0.122
# Max RMSD: 0.210
# Mean RMSD: 0.157
data_MOF--net-pry--node1-LEVNOQ01_clean_sbu_1--node2-CUQRIR_clean_linker_1--edge1-none
_symmetry_space_group_name_H-M    P1
_symmetry_Int_Tables_number       1
_symmetry_cell_setting            triclinic
loop_
_symmetry_equiv_pos_as_xyz
'x, y, z'
_cell_length_a     14.168958
_cell_length_b     13.462626
_cell_length_c     12.836417
_cell_angle_alpha  89.88718
_cell_angle_beta   93.691711
_cell_angle_gamma 97.162173
loop_
_atom_site_label
_atom_site_type_symbol
_atom_site_fract_x
_atom_site_fract_y
_atom_site_fract_z
_atom_type_partial_charge
C0 C 0.09425 0.15406 0.13218 0.0
N1 N 0.16929 0.10495 0.16398 0.0
N2 N 0.12235 0.24452 0.09192 0.0
C3 C -0.00942 0.11146 0.1382 0.0
C4 C 0.21937 0.24585 0.09126 0.0
N5 N 0.24972 0.1609 0.13611 0.0
C6 C 0.28294 0.32756 0.04033 0.0
H7 H 0.9808 0.029 0.13437 0.0
H8 H 0.94597 0.13751 0.0719 0.0
H9 H 0.96454 0.13607 0.21237 0.0
H10 H 0.29759 0.3932 0.09347 0.0
H11 H 0.24651 0.35189 0.96729 0.0
H12 H 0.35162 0.30333 0.02079 0.0
C13 C 0.37234 0.83239 0.53356 0.0
N14 N 0.35504 0.90099 0.60529 0.0
N15 N 0.46098 0.80546 0.55213 0.0
C16 C 0.30494 0.79542 0.44261 0.0
C17 C 0.49881 0.87228 0.62749 0.0
N18 N 0.4331 0.92251 0.66948 0.0
C19 C 0.60253 0.88631 0.66331 0.0
H20 H 0.23654 0.76085 0.47124 0.0
H21 H 0.33512 0.7416 0.39331 0.0
H22 H 0.28978 0.85996 0.39306 0.0
H23 H 0.64593 0.89532 0.59418 0.0
H24 H 0.62259 0.82026 0.70668 0.0
H25 H 0.6182 0.95347 0.71379 0.0
C26 C 0.59575 0.32876 0.82454 0.0
N27 N 0.65818 0.33604 0.90981 0.0
N28 N 0.56715 0.41791 0.80405 0.0
C29 C 0.55232 0.23333 0.76932 0.0
C30 C 0.62304 0.48274 0.86715 0.0
N31 N 0.68666 0.43472 0.92436 0.0
C32 C 0.62237 0.5953 0.86304 0.0
H33 H 0.53933 0.24755 0.68478 0.0
H34 H 0.48227 0.20726 0.80052 0.0
H35 H 0.60003 0.17409 0.77952 0.0
H36 H 0.5495 0.61615 0.85049 0.0
H37 H 0.66226 0.6257 0.79589 0.0
H38 H 0.65607 0.63162 0.93607 0.0
C39 C 0.84734 0.53735 0.44384 0.0
N40 N 0.90402 0.59076 0.37757 0.0
N41 N 0.79835 0.59499 0.50173 0.0
C42 C 0.83312 0.42687 0.44974 0.0
C43 C 0.85008 0.6854 0.49045 0.0
N44 N 0.91126 0.68472 0.41317 0.0
C45 C 0.82489 0.77777 0.54253 0.0
H46 H 0.81071 0.39287 0.37231 0.0
H47 H 0.7794 0.40419 0.50657 0.0
H48 H 0.90283 0.4032 0.47612 0.0
H49 H 0.7588 0.76104 0.58464 0.0
H50 H 0.81617 0.83824 0.48516 0.0
H51 H 0.88328 0.80341 0.60096 0.0
C52 C 0.86148 0.89142 0.97132 0.0
N53 N 0.93157 0.86853 0.91198 0.0
N54 N 0.80394 0.94991 0.92078 0.0
C55 C 0.84618 0.85488 0.0798 0.0
C56 C 0.84281 0.96381 0.82748 0.0
N57 N 0.92303 0.91881 0.82199 0.0
C58 C 0.81004 0.03545 0.74885 0.0
H59 H 0.80484 0.77916 0.07794 0.0
H60 H 0.80672 0.90607 0.12286 0.0
H61 H 0.9173 0.8529 0.11844 0.0
H62 H 0.86636 0.09959 0.74691 0.0
H63 H 0.74411 0.06478 0.77016 0.0
H64 H 0.79981 -0.00145 0.67103 0.0
C65 C 0.73482 0.176 0.45519 0.0
N66 N 0.75115 0.09951 0.39141 0.0
N67 N 0.64035 0.18981 0.45378 0.0
C68 C 0.80327 0.21418 0.54373 0.0
C69 C 0.60026 0.10785 0.39958 0.0
N70 N 0.66502 0.06154 0.34953 0.0
C71 C 0.49431 0.07544 0.39338 0.0
H72 H 0.82 0.14988 0.58996 0.0
H73 H 0.77247 0.26529 0.59605 0.0
H74 H 0.87211 0.24655 0.51493 0.0
H75 H 0.45907 0.11919 0.333 0.0
H76 H 0.46483 0.09087 0.46896 0.0
H77 H 0.47795 -0.00564 0.37484 0.0
C78 C 0.31734 0.58814 0.23515 0.0
N79 N 0.40772 0.61589 0.21049 0.0
N80 N 0.25738 0.64502 0.18483 0.0
C81 C 0.28721 0.50669 0.30986 0.0
C82 C 0.31469 0.72081 0.14608 0.0
N83 N 0.40651 0.70201 0.1565 0.0
C84 C 0.27924 0.811 0.0938 0.0
H85 H 0.28862 0.43189 0.27436 0.0
H86 H 0.21661 0.51306 0.33979 0.0
H87 H 0.33849 0.5169 0.3774 0.0
H88 H 0.20278 0.8144 0.105 0.0
H89 H 0.29094 0.81029 0.00914 0.0
H90 H 0.31926 0.87968 0.12956 0.0
C91 C 0.05388 0.3499 0.66649 0.0
N92 N 0.12159 0.33095 0.60124 0.0
N93 N 0.04208 0.44699 0.66654 0.0
C94 C 0.00287 0.27413 0.73671 0.0
C95 C 0.10269 0.48759 0.59695 0.0
N96 N 0.15923 0.41967 0.56433 0.0
C97 C 0.11308 0.59759 0.56956 0.0
H98 H 0.93154 0.29475 0.75208 0.0
H99 H 0.04512 0.27198 0.81235 0.0
H100 H -0.00498 0.19873 0.70057 0.0
H101 H 0.16119 0.64099 0.62957 0.0
H102 H 0.04355 0.62709 0.56804 0.0
H103 H 0.14208 0.60914 0.49167 0.0
O104 O 0.06781 0.01032 0.80291 0.0
Mg105 Mg 0.16951 0.08947 0.70399 0.0
O106 O 0.98422 0.9531 0.65986 0.0
Mg107 Mg 0.0582 0.00819 0.49741 0.0
O108 O 0.12385 0.1639 0.57154 0.0
O109 O 0.2119 0.24065 0.70492 0.0
O110 O 0.1353 0.07366 0.33499 0.0
O111 O 0.90763 0.07644 0.45114 0.0
Mg112 Mg 0.97951 0.92586 0.29694 0.0
O113 O -0.01006 0.84605 0.43049 0.0
O114 O 0.11154 0.95543 0.22063 0.0
O115 O 0.84663 -0.00017 0.30612 0.0
O116 O 0.95135 0.77651 0.27283 0.0
C117 C 0.27715 0.95042 0.61054 0.0
C118 C -0.00383 0.95566 0.76062 0.0
C119 C 0.1639 0.24704 0.61666 0.0
C120 C 0.15603 0.03937 0.24592 0.0
C121 C 0.83721 0.05908 0.38155 0.0
C122 C 0.95782 0.7679 0.37181 0.0
O123 O 0.28084 0.0151 0.68157 0.0
O124 O 0.20472 0.93658 0.54354 0.0
O125 O 0.41474 0.19322 0.16248 0.0
Mg126 Mg 0.56855 0.18397 0.1288 0.0
O127 O 0.35732 0.05881 0.07069 0.0
Mg128 Mg 0.51708 0.01511 0.02539 0.0
O129 O 0.58263 0.1864 0.97513 0.0
O130 O 0.64004 0.31435 0.08427 0.0
O131 O 0.67193 -0.00654 0.99146 0.0
O132 O 0.47086 -0.00863 0.83557 0.0
Mg133 Mg 0.52086 0.81422 0.93382 0.0
O134 O 0.47667 0.84414 0.07681 0.0
O135 O 0.66151 0.85672 0.89611 0.0
O136 O 0.41475 0.83226 0.81598 0.0
O137 O 0.50669 0.69155 0.0271 0.0
C138 C 0.64715 0.0503 0.24451 0.0
C139 C 0.34172 0.1328 0.12911 0.0
C140 C 0.631 0.27601 0.9917 0.0
C141 C 0.70913 0.93585 0.93234 0.0
C142 C 0.42946 0.91867 0.77662 0.0
C143 C 0.47134 0.74698 0.09218 0.0
O144 O 0.69023 0.11492 0.18968 0.0
O145 O 0.5643 0.01571 0.20674 0.0
O146 O 0.51144 0.67818 0.64473 0.0
Mg147 Mg 0.40869 0.56006 0.67815 0.0
O148 O 0.442 0.64059 0.49206 0.0
Mg149 Mg 0.47965 0.4684 0.48868 0.0
O150 O 0.48258 0.44757 0.65809 0.0
O151 O 0.42611 0.47734 0.8102 0.0
O152 O 0.53591 0.30692 0.47967 0.0
O153 O 0.64446 0.52635 0.51934 0.0
Mg154 Mg 0.61897 0.48392 0.29001 0.0
O155 O 0.48005 0.49173 0.3049 0.0
O156 O 0.64267 0.33539 0.35895 0.0
O157 O 0.68255 0.60821 0.37922 0.0
O158 O 0.55089 0.56332 0.17117 0.0
C159 C 0.25362 0.44978 0.54587 0.0
C160 C 0.47971 0.70794 0.55772 0.0
C161 C 0.48451 0.43535 0.75674 0.0
C162 C 0.60684 0.28075 0.4324 0.0
C163 C 0.70356 0.58693 0.47268 0.0
C164 C 0.48117 0.55911 0.23102 0.0
O165 O 0.28739 0.53683 0.57657 0.0
O166 O 0.31003 0.395 0.50446 0.0
O167 O 0.98579 0.31583 0.11836 0.0
Mg168 Mg -0.01044 0.47445 0.13819 0.0
O169 O 0.093 0.40327 0.036 0.0
Mg170 Mg -0.00632 0.54534 0.01899 0.0
O171 O 0.94097 0.59536 0.1995 0.0
O172 O 0.95331 0.45945 0.29048 0.0
O173 O 0.93574 0.71127 0.98712 0.0
O174 O 0.8448 0.43711 0.99039 0.0
Mg175 Mg 0.95198 0.59898 0.86154 0.0
O176 O 0.03478 0.49328 0.84034 0.0
O177 O 0.01361 0.74975 0.84913 0.0
O178 O 0.80611 0.56102 0.89678 0.0
O179 O 0.94479 0.55833 0.71213 0.0
C180 C 0.1701 0.60749 0.14398 0.0
C181 C 0.06503 0.32022 0.07742 0.0
C182 C 0.93709 0.55064 0.28938 0.0
C183 C 0.9667 0.77808 0.92053 0.0
C184 C 0.78006 0.47855 0.94073 0.0
C185 C 0.00483 0.49839 0.74146 0.0
O186 O 0.13032 0.52776 0.18089 0.0
O187 O 0.13273 0.64189 0.06094 0.0
loop_
_geom_bond_atom_site_label_1
_geom_bond_atom_site_label_2
_geom_bond_distance
_geom_bond_site_symmetry_2
_ccdc_geom_bond_type
C0 N1 1.317 . S
C0 N2 1.348 . S
C0 C3 1.485 . S
N1 C0 1.317 . S
N1 N5 1.370 . S
N2 C0 1.348 . S
N2 C4 1.346 . S
C3 C0 1.485 . S
C3 H7 0.960 1_455 S
C3 H8 0.961 . S
C3 H9 0.960 . S
C4 N2 1.346 . S
C4 N5 1.307 . S
C4 C6 1.486 1_554 S
N5 N1 1.370 . S
N5 C4 1.307 . S
C6 C4 1.486 1_556 S
C6 H10 0.960 . S
C6 H11 0.960 . S
C6 H12 0.959 . S
H7 C3 0.960 1_655 S
H8 C3 0.961 . S
H9 C3 0.960 . S
H10 C6 0.960 . S
H11 C6 0.960 . S
H12 C6 0.959 . S
C13 N14 1.317 . S
C13 N15 1.348 . S
C13 C16 1.485 . S
N14 C13 1.317 . S
N14 N18 1.370 . S
N15 C13 1.348 . S
N15 C17 1.346 . S
C16 C13 1.485 . S
C16 H20 0.960 . S
C16 H21 0.961 . S
C16 H22 0.960 . S
C17 N15 1.346 . S
C17 N18 1.307 . S
C17 C19 1.486 . S
N18 N14 1.370 . S
N18 C17 1.307 . S
C19 C17 1.486 . S
C19 H23 0.960 . S
C19 H24 0.960 . S
C19 H25 0.959 . S
H20 C16 0.960 . S
H21 C16 0.961 . S
H22 C16 0.960 . S
H23 C19 0.960 . S
H24 C19 0.960 . S
H25 C19 0.959 . S
C26 N27 1.317 . S
C26 N28 1.348 . S
C26 C29 1.485 . S
N27 C26 1.317 . S
N27 N31 1.370 . S
N28 C26 1.348 . S
N28 C30 1.346 . S
C29 C26 1.485 . S
C29 H33 0.960 . S
C29 H34 0.961 . S
C29 H35 0.960 . S
C30 N28 1.346 . S
C30 N31 1.307 . S
C30 C32 1.486 . S
N31 N27 1.370 . S
N31 C30 1.307 . S
C32 C30 1.486 . S
C32 H36 0.960 . S
C32 H37 0.960 . S
C32 H38 0.959 . S
H33 C29 0.960 . S
H34 C29 0.961 . S
H35 C29 0.960 . S
H36 C32 0.960 . S
H37 C32 0.960 . S
H38 C32 0.959 . S
C39 N40 1.317 . S
C39 N41 1.348 . S
C39 C42 1.485 . S
N40 C39 1.317 . S
N40 N44 1.370 . S
N41 C39 1.348 . S
N41 C43 1.346 . S
C42 C39 1.485 . S
C42 H46 0.960 . S
C42 H47 0.961 . S
C42 H48 0.960 . S
C43 N41 1.346 . S
C43 N44 1.307 . S
C43 C45 1.486 . S
N44 N40 1.370 . S
N44 C43 1.307 . S
C45 C43 1.486 . S
C45 H49 0.960 . S
C45 H50 0.960 . S
C45 H51 0.959 . S
H46 C42 0.960 . S
H47 C42 0.961 . S
H48 C42 0.960 . S
H49 C45 0.960 . S
H50 C45 0.960 . S
H51 C45 0.959 . S
C52 N53 1.317 . S
C52 N54 1.348 . S
C52 C55 1.485 1_556 S
N53 C52 1.317 . S
N53 N57 1.370 . S
N54 C52 1.348 . S
N54 C56 1.346 . S
C55 C52 1.485 1_554 S
C55 H59 0.960 . S
C55 H60 0.961 . S
C55 H61 0.960 . S
C56 N54 1.346 . S
C56 N57 1.307 . S
C56 C58 1.486 1_565 S
N57 N53 1.370 . S
N57 C56 1.307 . S
C58 C56 1.486 1_545 S
C58 H62 0.960 . S
C58 H63 0.960 . S
C58 H64 0.959 . S
H59 C55 0.960 . S
H60 C55 0.961 . S
H61 C55 0.960 . S
H62 C58 0.960 . S
H63 C58 0.960 . S
H64 C58 0.959 . S
C65 N66 1.317 . S
C65 N67 1.348 . S
C65 C68 1.485 . S
N66 C65 1.317 . S
N66 N70 1.370 . S
N67 C65 1.348 . S
N67 C69 1.346 . S
C68 C65 1.485 . S
C68 H72 0.960 . S
C68 H73 0.961 . S
C68 H74 0.960 . S
C69 N67 1.346 . S
C69 N70 1.307 . S
C69 C71 1.486 . S
N70 N66 1.370 . S
N70 C69 1.307 . S
C71 C69 1.486 . S
C71 H75 0.960 . S
C71 H76 0.960 . S
C71 H77 0.959 . S
H72 C68 0.960 . S
H73 C68 0.961 . S
H74 C68 0.960 . S
H75 C71 0.960 . S
H76 C71 0.960 . S
H77 C71 0.959 . S
C78 N79 1.317 . S
C78 N80 1.348 . S
C78 C81 1.485 . S
N79 C78 1.317 . S
N79 N83 1.370 . S
N80 C78 1.348 . S
N80 C82 1.346 . S
C81 C78 1.485 . S
C81 H85 0.960 . S
C81 H86 0.961 . S
C81 H87 0.960 . S
C82 N80 1.346 . S
C82 N83 1.307 . S
C82 C84 1.486 1_554 S
N83 N79 1.370 . S
N83 C82 1.307 . S
C84 C82 1.486 1_556 S
C84 H88 0.960 1_556 S
C84 H89 0.960 . S
C84 H90 0.959 . S
H85 C81 0.960 . S
H86 C81 0.961 . S
H87 C81 0.960 . S
H88 C84 0.960 1_554 S
H89 C84 0.960 . S
H90 C84 0.959 . S
C91 N92 1.317 . S
C91 N93 1.348 . S
C91 C94 1.485 1_455 S
N92 C91 1.317 . S
N92 N96 1.370 . S
N93 C91 1.348 . S
N93 C95 1.346 . S
C94 C91 1.485 1_655 S
C94 H98 0.960 . S
C94 H99 0.961 . S
C94 H100 0.960 . S
C95 N93 1.346 . S
C95 N96 1.307 . S
C95 C97 1.486 . S
N96 N92 1.370 . S
N96 C95 1.307 . S
C97 C95 1.486 . S
C97 H101 0.960 . S
C97 H102 0.960 . S
C97 H103 0.959 . S
H98 C94 0.960 . S
H99 C94 0.961 . S
H100 C94 0.960 . S
H101 C97 0.960 . S
H102 C97 0.960 . S
H103 C97 0.959 . S
O104 Mg105 1.990 . S
O104 C118 1.253 1_545 S
Mg105 O104 1.990 . S
Mg105 O108 2.180 . S
Mg105 O109 2.117 . S
Mg105 O123 2.030 1_545 S
O106 Mg107 2.072 1_565 S
O106 C118 1.260 . S
Mg107 O106 2.072 1_545 S
Mg107 O108 2.099 . S
Mg107 O110 2.079 . S
Mg107 O111 2.072 1_455 S
Mg107 O113 2.099 1_545 S
Mg107 O124 2.079 1_545 S
O108 Mg105 2.180 . S
O108 Mg107 2.099 . S
O108 C119 1.279 . S
O109 Mg105 2.117 . S
O109 C119 1.250 . S
O110 Mg107 2.079 . S
O110 C120 1.264 . S
O111 Mg107 2.072 1_655 S
O111 C121 1.260 . S
Mg112 O113 2.180 1_655 S
Mg112 O114 2.030 1_665 S
Mg112 O115 1.990 1_565 S
Mg112 O116 2.117 . S
O113 Mg107 2.099 1_565 S
O113 Mg112 2.180 1_455 S
O113 C122 1.279 1_455 S
O114 Mg112 2.030 1_445 S
O114 C120 1.248 . S
O115 Mg112 1.990 1_545 S
O115 C121 1.253 . S
O116 Mg112 2.117 . S
O116 C122 1.250 . S
C117 O123 1.248 . S
C117 O124 1.264 . S
C118 O104 1.253 1_565 S
C118 O106 1.260 . S
C119 O108 1.279 . S
C119 O109 1.250 . S
C120 O110 1.264 . S
C120 O114 1.248 . S
C121 O111 1.260 . S
C121 O115 1.253 . S
C122 O113 1.279 1_655 S
C122 O116 1.250 . S
O123 Mg105 2.030 1_565 S
O123 C117 1.248 . S
O124 Mg107 2.079 1_565 S
O124 C117 1.264 . S
O125 Mg126 1.990 . S
O125 C139 1.253 . S
Mg126 O125 1.990 . S
Mg126 O129 2.180 . S
Mg126 O130 2.117 1_554 S
Mg126 O144 2.030 . S
O127 Mg128 2.072 . S
O127 C139 1.260 . S
Mg128 O127 2.072 . S
Mg128 O129 2.099 . S
Mg128 O131 2.079 . S
Mg128 O132 2.072 1_554 S
Mg128 O134 2.099 1_545 S
Mg128 O145 2.079 . S
O129 Mg126 2.180 . S
O129 Mg128 2.099 . S
O129 C140 1.279 1_554 S
O130 Mg126 2.117 1_556 S
O130 C140 1.250 . S
O131 Mg128 2.079 . S
O131 C141 1.264 1_544 S
O132 Mg128 2.072 1_556 S
O132 C142 1.260 1_545 S
Mg133 O134 2.180 1_556 S
Mg133 O135 2.030 . S
Mg133 O136 1.990 . S
Mg133 O137 2.117 1_556 S
O134 Mg128 2.099 1_565 S
O134 Mg133 2.180 1_554 S
O134 C143 1.279 . S
O135 Mg133 2.030 . S
O135 C141 1.248 . S
O136 Mg133 1.990 . S
O136 C142 1.253 . S
O137 Mg133 2.117 1_554 S
O137 C143 1.250 . S
C138 O144 1.248 . S
C138 O145 1.264 . S
C139 O125 1.253 . S
C139 O127 1.260 . S
C140 O129 1.279 1_556 S
C140 O130 1.250 . S
C141 O131 1.264 1_566 S
C141 O135 1.248 . S
C142 O132 1.260 1_565 S
C142 O136 1.253 . S
C143 O134 1.279 . S
C143 O137 1.250 . S
O144 Mg126 2.030 . S
O144 C138 1.248 . S
O145 Mg128 2.079 . S
O145 C138 1.264 . S
O146 Mg147 1.990 . S
O146 C160 1.253 . S
Mg147 O146 1.990 . S
Mg147 O150 2.180 . S
Mg147 O151 2.117 . S
Mg147 O165 2.030 . S
O148 Mg149 2.072 . S
O148 C160 1.260 . S
Mg149 O148 2.072 . S
Mg149 O150 2.099 . S
Mg149 O152 2.079 . S
Mg149 O153 2.072 . S
Mg149 O155 2.099 . S
Mg149 O166 2.079 . S
O150 Mg147 2.180 . S
O150 Mg149 2.099 . S
O150 C161 1.279 . S
O151 Mg147 2.117 . S
O151 C161 1.250 . S
O152 Mg149 2.079 . S
O152 C162 1.264 . S
O153 Mg149 2.072 . S
O153 C163 1.260 . S
Mg154 O155 2.180 . S
Mg154 O156 2.030 . S
Mg154 O157 1.990 . S
Mg154 O158 2.117 . S
O155 Mg149 2.099 . S
O155 Mg154 2.180 . S
O155 C164 1.279 . S
O156 Mg154 2.030 . S
O156 C162 1.248 . S
O157 Mg154 1.990 . S
O157 C163 1.253 . S
O158 Mg154 2.117 . S
O158 C164 1.250 . S
C159 O165 1.248 . S
C159 O166 1.264 . S
C160 O146 1.253 . S
C160 O148 1.260 . S
C161 O150 1.279 . S
C161 O151 1.250 . S
C162 O152 1.264 . S
C162 O156 1.248 . S
C163 O153 1.260 . S
C163 O157 1.253 . S
C164 O155 1.279 . S
C164 O158 1.250 . S
O165 Mg147 2.030 . S
O165 C159 1.248 . S
O166 Mg149 2.079 . S
O166 C159 1.264 . S
O167 Mg168 1.990 . S
O167 C181 1.253 . S
Mg168 O167 1.990 . S
Mg168 O171 2.180 . S
Mg168 O172 2.117 1_455 S
Mg168 O186 2.030 . S
O169 Mg170 2.072 . S
O169 C181 1.260 . S
Mg170 O169 2.072 . S
Mg170 O171 2.099 . S
Mg170 O173 2.079 1_454 S
Mg170 O174 2.072 1_454 S
Mg170 O176 2.099 1_554 S
Mg170 O187 2.079 . S
O171 Mg168 2.180 . S
O171 Mg170 2.099 . S
O171 C182 1.279 1_455 S
O172 Mg168 2.117 1_655 S
O172 C182 1.250 . S
O173 Mg170 2.079 1_656 S
O173 C183 1.264 . S
O174 Mg170 2.072 1_656 S
O174 C184 1.260 . S
Mg175 O176 2.180 1_655 S
Mg175 O177 2.030 . S
Mg175 O178 1.990 . S
Mg175 O179 2.117 . S
O176 Mg170 2.099 1_556 S
O176 Mg175 2.180 1_455 S
O176 C185 1.279 . S
O177 Mg175 2.030 . S
O177 C183 1.248 . S
O178 Mg175 1.990 . S
O178 C184 1.253 . S
O179 Mg175 2.117 . S
O179 C185 1.250 1_655 S
C180 O186 1.248 . S
C180 O187 1.264 . S
C181 O167 1.253 . S
C181 O169 1.260 . S
C182 O171 1.279 1_655 S
C182 O172 1.250 . S
C183 O173 1.264 . S
C183 O177 1.248 . S
C184 O174 1.260 . S
C184 O178 1.253 . S
C185 O176 1.279 . S
C185 O179 1.250 1_455 S
O186 Mg168 2.030 . S
O186 C180 1.248 . S
O187 Mg170 2.079 . S
O187 C180 1.264 . S
N1 C120 1.454 . S
N18 C142 1.639 . S
C161 N28 0.882 . S
N40 C182 1.540 . S
C139 N5 2.014 . S
C117 N14 1.563 . S
C184 N31 1.302 . S
C163 N41 1.208 . S
N2 C181 1.558 . S
C140 N27 1.279 . S
N44 C122 1.465 . S
N15 C160 1.354 . S
C118 N57 1.773 1_455 S
N70 C138 1.255 . S
N79 C164 1.242 . S
N93 C185 1.147 . S
N54 C141 1.469 . S
C121 N66 2.121 . S
C180 N80 0.806 . S
C159 N96 1.426 . S
N53 C183 1.541 . S
C143 N83 1.056 . S
C119 N92 1.473 . S
N67 C162 1.707 . S
