# Generated by pormake.
# Topology pyr, (3,6)-cn, num edge types: 1
# Building blocks:
#     Node 0, Type 0, BuildingBlock: INOVEN_clean_linker_0, # of connection points: 3
#     Node 1, Type 0, BuildingBlock: INOVEN_clean_linker_0, # of connection points: 3
#     Node 2, Type 0, BuildingBlock: INOVEN_clean_linker_0, # of connection points: 3
#     Node 3, Type 0, BuildingBlock: INOVEN_clean_linker_0, # of connection points: 3
#     Node 4, Type 0, BuildingBlock: INOVEN_clean_linker_0, # of connection points: 3
#     Node 5, Type 0, BuildingBlock: INOVEN_clean_linker_0, # of connection points: 3
#     Node 6, Type 0, BuildingBlock: INOVEN_clean_linker_0, # of connection points: 3
#     Node 7, Type 0, BuildingBlock: INOVEN_clean_linker_0, # of connection points: 3
#     Node 8, Type 1, BuildingBlock: FUNLAD_clean_sbu_0, # of connection points: 6
#     Node 9, Type 1, BuildingBlock: FUNLAD_clean_sbu_0, # of connection points: 6
#     Node 10, Type 1, BuildingBlock: FUNLAD_clean_sbu_0, # of connection points: 6
#     Node 11, Type 1, BuildingBlock: FUNLAD_clean_sbu_0, # of connection points: 6
#     Edge 12, Type (0, 1), None
#     Edge 13, Type (0, 1), None
#     Edge 14, Type (0, 1), None
#     Edge 15, Type (0, 1), None
#     Edge 16, Type (0, 1), None
#     Edge 17, Type (0, 1), None
#     Edge 18, Type (0, 1), None
#     Edge 19, Type (0, 1), None
#     Edge 20, Type (0, 1), None
#     Edge 21, Type (0, 1), None
#     Edge 22, Type (0, 1), None
#     Edge 23, Type (0, 1), None
#     Edge 24, Type (0, 1), None
#     Edge 25, Type (0, 1), None
#     Edge 26, Type (0, 1), None
#     Edge 27, Type (0, 1), None
#     Edge 28, Type (0, 1), None
#     Edge 29, Type (0, 1), None
#     Edge 30, Type (0, 1), None
#     Edge 31, Type (0, 1), None
#     Edge 32, Type (0, 1), None
#     Edge 33, Type (0, 1), None
#     Edge 34, Type (0, 1), None
#     Edge 35, Type (0, 1), None
# Relax obj value: 0.554
# Max RMSD: 0.234
# Mean RMSD: 0.140
data_MOF--net-pry--node1-FUNLAD_clean_sbu_0--node2-INOVEN_clean_linker_0--edge1-none
_symmetry_space_group_name_H-M    P1
_symmetry_Int_Tables_number       1
_symmetry_cell_setting            triclinic
loop_
_symmetry_equiv_pos_as_xyz
'x, y, z'
_cell_length_a     15.345739
_cell_length_b     16.004039
_cell_length_c     16.216079
_cell_angle_alpha  89.168133
_cell_angle_beta   91.418228
_cell_angle_gamma 83.87814
loop_
_atom_site_label
_atom_site_type_symbol
_atom_site_fract_x
_atom_site_fract_y
_atom_site_fract_z
_atom_type_partial_charge
H0 H 0.02052 0.30627 0.37747 0.0
H1 H 0.23423 0.10681 0.37699 0.0
H2 H 0.22387 0.31269 0.20126 0.0
N3 N 0.07266 0.39441 0.24915 0.0
N4 N 0.10714 0.43294 0.19289 0.0
C5 C 0.08098 0.27778 0.3519 0.0
C6 C 0.12176 0.20088 0.38584 0.0
C7 C 0.11671 0.31797 0.28464 0.0
C8 C 0.196 0.28149 0.25244 0.0
C9 C 0.24018 0.20595 0.28462 0.0
C10 C 0.20134 0.16479 0.35087 0.0
H11 H 0.34524 0.88512 0.76221 0.0
H12 H 0.51215 0.88773 0.97974 0.0
H13 H 0.30635 0.09039 0.92753 0.0
N14 N 0.24819 1.02863 0.78766 0.0
N15 N 0.22331 0.99393 0.72376 0.0
C16 C 0.36564 0.91547 0.81754 0.0
C17 C 0.4372 0.87745 0.86488 0.0
C18 C 0.31923 0.99154 0.83895 0.0
C19 C 0.34267 1.03122 0.91172 0.0
C20 C 0.41052 0.99453 0.9652 0.0
C21 C 0.45797 0.91611 0.94127 0.0
H22 H 0.76069 0.24561 0.92892 0.0
H23 H 0.75294 0.47594 1.06232 0.0
H24 H 0.9384 0.42267 0.8708 0.0
N25 N 0.83017 0.31903 0.80564 0.0
N26 N 0.76307 0.35469 0.76827 0.0
C27 C 0.78782 0.30289 0.94475 0.0
C28 C 0.74697 0.3572 1.00261 0.0
C29 C 0.84714 0.33212 0.89061 0.0
C30 C 0.89091 0.40117 0.91238 0.0
C31 C 0.85743 0.45391 0.97508 0.0
C32 C 0.78432 0.43201 1.01943 0.0
H33 H 0.72102 0.55609 0.59984 0.0
H34 H 0.83421 0.77011 0.69038 0.0
H35 H 0.93568 0.64288 0.47729 0.0
N36 N 0.79363 0.57822 0.45565 0.0
N37 N 0.75574 0.64224 0.41998 0.0
C38 C 0.77559 0.59309 0.60203 0.0
C39 C 0.77665 0.65888 0.65869 0.0
C40 C 0.83026 0.59028 0.53441 0.0
C41 C 0.89793 0.64178 0.533 0.0
C42 C 0.89258 0.71171 0.58303 0.0
C43 C 0.83957 0.71462 0.65233 0.0
H44 H 0.81487 0.12081 0.87261 0.0
H45 H 0.9658 0.8838 0.82195 0.0
H46 H 0.80659 0.90943 1.03585 0.0
N47 N 0.74488 1.06587 1.01236 0.0
N48 N 0.72828 1.03439 1.08059 0.0
C49 C 0.83708 1.05615 0.88872 0.0
C50 C 0.89391 1.00833 0.83566 0.0
C51 C 0.80681 1.02041 0.96116 0.0
C52 C 0.83213 0.93596 0.9809 0.0
C53 C 0.8892 0.88461 0.93398 0.0
C54 C 0.92054 0.92137 0.85974 0.0
H55 H 0.53464 0.33791 0.39175 0.0
H56 H 0.73157 0.12493 0.41867 0.0
H57 H 0.74329 0.34193 0.57225 0.0
N58 N 0.59506 0.42669 0.51398 0.0
N59 N 0.59165 0.4393 0.58963 0.0
C60 C 0.59387 0.30709 0.42132 0.0
C61 C 0.62654 0.22546 0.39786 0.0
C62 C 0.63402 0.3477 0.48581 0.0
C63 C 0.71177 0.30893 0.52391 0.0
C64 C 0.74958 0.22934 0.49968 0.0
C65 C 0.70464 0.18678 0.43769 0.0
H66 H 0.25816 0.83194 0.42414 0.0
H67 H 0.22856 0.83494 0.16215 0.0
H68 H 0.08043 0.68005 0.31244 0.0
N69 N 0.17333 0.68864 0.44664 0.0
N70 N 0.22722 0.67808 0.50613 0.0
C71 C 0.23252 0.80524 0.37024 0.0
C72 C 0.25901 0.83207 0.2937 0.0
C73 C 0.17816 0.74118 0.37565 0.0
C74 C 0.12738 0.72584 0.30694 0.0
C75 C 0.14003 0.76489 0.23075 0.0
C76 C 0.21136 0.81258 0.22238 0.0
H77 H 0.04128 0.582 0.62418 0.0
H78 H 0.28069 0.46767 0.74458 0.0
H79 H 0.23775 0.7331 0.70544 0.0
N80 N 0.0728 0.73723 0.66295 0.0
N81 N 0.04693 0.76697 0.73022 0.0
C82 C 0.10611 0.58579 0.65005 0.0
C83 C 0.15487 0.51405 0.68564 0.0
C84 C 0.1347 0.66504 0.66033 0.0
C85 C 0.21725 0.67138 0.69469 0.0
C86 C 0.2708 0.60071 0.72191 0.0
C87 C 0.23938 0.5218 0.71997 0.0
C88 C 0.08168 0.16225 0.45971 0.0
N89 N 0.04392 0.28002 0.68202 0.0
C90 C 0.13253 0.28222 0.67804 0.0
C91 C 0.16967 0.35739 0.68187 0.0
C92 C 0.11603 0.43283 0.68929 0.0
C93 C 0.02491 0.42954 0.69585 0.0
C94 C -0.00993 0.35245 0.6899 0.0
Zn95 Zn 0.00081 0.16995 0.63939 0.0
C96 C 0.83573 0.19262 0.53917 0.0
N97 N 0.95826 0.94925 0.52268 0.0
C98 C 0.01706 0.88319 0.50393 0.0
C99 C 0.87289 0.93934 0.53683 0.0
C100 C 0.84784 0.86027 0.54774 0.0
C101 C 0.91189 0.79166 0.54628 0.0
C102 C -0.00668 0.80209 0.51335 0.0
Zn103 Zn -0.00588 1.05352 0.57173 0.0
O104 O 0.06417 0.20599 0.52352 0.0
C105 C 0.15112 1.03124 0.67516 0.0
O106 O 0.0589 0.08809 0.45893 0.0
H107 H 0.82642 0.99115 0.55323 0.0
H108 H 0.17563 0.2273 0.66344 0.0
H109 H 0.08441 0.89265 0.49208 0.0
O110 O 0.11752 0.10457 0.69096 0.0
O111 O 0.11531 0.98993 0.61994 0.0
H112 H 0.9201 0.35176 0.68506 0.0
O113 O 0.93587 1.01077 0.69042 0.0
O114 O 0.9395 0.12894 0.75564 0.0
O115 O 0.86997 0.11981 0.5207 0.0
O116 O 0.87714 0.23351 0.59131 0.0
C117 C 0.9246 1.05127 0.75732 0.0
H118 H 0.23953 0.35625 0.67338 0.0
H119 H 0.98017 0.48594 0.70216 0.0
H120 H 0.78148 0.8538 0.56634 0.0
H121 H 0.04066 0.7487 0.50634 0.0
C122 C 0.65751 1.06567 0.12857 0.0
N123 N 0.50524 0.28935 1.09378 0.0
C124 C 0.54779 0.34603 0.1371 0.0
C125 C 0.62633 0.37173 1.10825 0.0
C126 C 0.65829 0.34165 1.03254 0.0
C127 C 0.60295 0.29618 0.98378 0.0
C128 C 0.52452 0.27472 1.01387 0.0
Zn129 Zn 0.48978 0.17796 0.1546 0.0
C130 C 0.43211 1.04113 1.04317 0.0
N131 N 0.49415 0.94687 0.28352 0.0
C132 C 0.48387 0.88157 0.2327 0.0
C133 C 0.44303 0.96106 0.34992 0.0
C134 C 0.36385 0.92668 0.35262 0.0
C135 C 0.34238 0.87052 0.29116 0.0
C136 C 0.40601 0.8438 0.23378 0.0
Zn137 Zn 0.50394 1.05747 0.22441 0.0
O138 O 0.61304 0.13417 1.10825 0.0
C139 C 0.58011 0.18403 0.32934 0.0
O140 O 0.62935 1.01785 0.18271 0.0
H141 H 0.45345 1.01213 0.39069 0.0
H142 H 0.52794 0.36285 0.19868 0.0
H143 H 0.52814 0.86868 0.18243 0.0
O144 O 0.55315 0.22618 0.26483 0.0
O145 O 0.56536 0.10744 0.33386 0.0
H146 H 0.48807 0.23402 0.97742 0.0
O147 O 0.36879 0.10379 0.26763 0.0
O148 O 0.3643 0.22285 0.19944 0.0
O149 O 0.45348 1.00149 1.1102 0.0
O150 O 0.4305 0.1212 1.04402 0.0
C151 C 0.32795 0.17544 0.24892 0.0
H152 H 0.66402 0.4093 0.14762 0.0
H153 H 0.62079 0.2726 0.92401 0.0
H154 H 0.31795 0.94838 0.3993 0.0
H155 H 0.3945 0.79665 0.1887 0.0
C156 C 0.56006 0.51708 0.62469 0.0
N157 N 0.58335 0.53691 0.87338 0.0
C158 C 0.55755 0.45956 0.85743 0.0
C159 C 0.61558 0.39888 0.81912 0.0
C160 C 0.70177 0.41577 0.80555 0.0
C161 C 0.72796 0.49186 0.83369 0.0
C162 C 0.67011 0.54577 0.87888 0.0
Zn163 Zn 0.5325 0.62234 0.78283 0.0
C164 C 0.69254 0.68936 0.69315 0.0
N165 N 0.46555 0.76275 0.56239 0.0
C166 C 0.46141 0.71254 0.49559 0.0
C167 C 0.39209 0.81074 0.58557 0.0
C168 C 0.31056 0.78474 0.56586 0.0
C169 C 0.30649 0.71532 0.51468 0.0
C170 C 0.38173 0.68277 0.47415 0.0
Zn171 Zn 0.51937 0.69372 0.66357 0.0
O172 O 0.54863 0.51869 0.70123 0.0
C173 C 0.36255 0.61224 0.73623 0.0
O174 O 0.55573 0.58622 0.58523 0.0
H175 H 0.39644 0.86004 0.62957 0.0
H176 H 0.48879 0.45039 0.85866 0.0
H177 H 0.52108 0.68368 0.46921 0.0
O178 O 0.40399 0.59317 0.80365 0.0
O179 O 0.39828 0.65033 0.67945 0.0
H180 H 0.69079 0.60508 0.89857 0.0
O181 O 0.48464 0.79738 0.74727 0.0
O182 O 0.5116 0.73235 0.86653 0.0
O183 O 0.63876 0.73321 0.64554 0.0
O184 O 0.66405 0.6471 0.75111 0.0
C185 C 0.48542 0.80012 0.82624 0.0
H186 H 0.59266 0.3412 0.79747 0.0
H187 H 0.79223 0.50973 0.82044 0.0
H188 H 0.25174 0.81672 0.59123 0.0
H189 H 0.37933 0.63284 0.43007 0.0
C190 C 0.91582 0.79719 0.97239 0.0
N191 N 0.83383 0.66318 0.18718 0.0
C192 C 0.80592 0.73479 0.2269 0.0
C193 C 0.76083 0.72963 0.30025 0.0
C194 C 0.74929 0.6502 0.33343 0.0
C195 C 0.76577 0.57943 0.28468 0.0
C196 C 0.80838 0.58753 0.21102 0.0
Zn197 Zn 0.93 0.65614 1.10288 0.0
C198 C 0.8921 0.53537 0.98949 0.0
N199 N 0.14118 0.62994 0.93909 0.0
C200 C 0.17151 0.70574 0.9243 0.0
C201 C 0.10011 0.59214 0.87761 0.0
C202 C 0.05232 0.64259 0.8186 0.0
C203 C 0.0729 0.72513 0.80605 0.0
C204 C 0.13672 0.75585 0.85738 0.0
Zn205 Zn 0.04569 0.64273 1.02538 0.0
O206 O 0.87697 0.7718 1.03592 0.0
C207 C 0.08471 0.74333 0.16123 0.0
O208 O 0.98366 0.75192 0.95095 0.0
H209 H 0.09109 0.52621 0.88286 0.0
H210 H 0.82611 0.79427 0.20648 0.0
H211 H 0.21519 0.73103 0.9685 0.0
O212 O 0.00841 0.72449 0.17685 0.0
O213 O 0.1183 0.72392 1.09266 0.0
H214 H 0.82964 0.53117 0.17815 0.0
O215 O 0.10905 0.54052 1.09581 0.0
O216 O -0.00982 0.53994 0.1678 0.0
O217 O 0.96879 0.54832 0.96848 0.0
O218 O 0.85124 0.58677 1.03616 0.0
C219 C 0.06734 0.50742 0.15209 0.0
H220 H 0.74883 0.78531 0.33726 0.0
H221 H 0.75693 0.5173 0.30827 0.0
H222 H 0.00546 0.61607 0.7785 0.0
H223 H 0.15859 0.81698 0.84581 0.0
loop_
_geom_bond_atom_site_label_1
_geom_bond_atom_site_label_2
_geom_bond_distance
_geom_bond_site_symmetry_2
_ccdc_geom_bond_type
H0 C5 0.929 . S
H1 C10 0.931 . S
H2 C8 0.930 . S
N3 N4 1.234 . S
N3 C7 1.453 . S
N4 N3 1.234 . S
C5 H0 0.929 . S
C5 C6 1.373 . S
C5 C7 1.368 . S
C6 C5 1.373 . S
C6 C10 1.397 . S
C7 N3 1.453 . S
C7 C5 1.368 . S
C7 C8 1.373 . S
C8 H2 0.930 . S
C8 C7 1.373 . S
C8 C9 1.371 . S
C9 C8 1.371 . S
C9 C10 1.383 . S
C10 H1 0.931 . S
C10 C6 1.397 . S
C10 C9 1.383 . S
H11 C16 0.929 . S
H12 C21 0.931 . S
H13 C19 0.930 . S
N14 N15 1.234 . S
N14 C18 1.453 . S
N15 N14 1.234 . S
C16 H11 0.929 . S
C16 C17 1.373 . S
C16 C18 1.368 . S
C17 C16 1.373 . S
C17 C21 1.397 . S
C18 N14 1.453 . S
C18 C16 1.368 . S
C18 C19 1.373 . S
C19 H13 0.930 . S
C19 C18 1.373 . S
C19 C20 1.371 . S
C20 C19 1.371 . S
C20 C21 1.383 . S
C21 H12 0.931 . S
C21 C17 1.397 . S
C21 C20 1.383 . S
H22 C27 0.929 . S
H23 C32 0.931 . S
H24 C30 0.930 . S
N25 N26 1.234 . S
N25 C29 1.453 . S
N26 N25 1.234 . S
C27 H22 0.929 . S
C27 C28 1.373 . S
C27 C29 1.368 . S
C28 C27 1.373 . S
C28 C32 1.397 1_556 S
C29 N25 1.453 . S
C29 C27 1.368 . S
C29 C30 1.373 . S
C30 H24 0.930 . S
C30 C29 1.373 . S
C30 C31 1.371 . S
C31 C30 1.371 . S
C31 C32 1.383 1_556 S
C32 H23 0.931 . S
C32 C28 1.397 1_554 S
C32 C31 1.383 1_554 S
H33 C38 0.929 . S
H34 C43 0.931 . S
H35 C41 0.930 . S
N36 N37 1.234 . S
N36 C40 1.453 . S
N37 N36 1.234 . S
C38 H33 0.929 . S
C38 C39 1.373 . S
C38 C40 1.368 . S
C39 C38 1.373 . S
C39 C43 1.397 . S
C40 N36 1.453 . S
C40 C38 1.368 . S
C40 C41 1.373 . S
C41 H35 0.930 . S
C41 C40 1.373 . S
C41 C42 1.371 . S
C42 C41 1.371 . S
C42 C43 1.383 . S
C43 H34 0.931 . S
C43 C39 1.397 . S
C43 C42 1.383 . S
H44 C49 0.926 1_545 S
H45 C54 0.931 1_455 S
H46 C52 0.930 . S
N47 N48 1.234 . S
N47 C51 1.453 . S
N48 N47 1.234 . S
C49 H44 0.926 1_565 S
C49 C50 1.373 . S
C49 C51 1.368 . S
C50 C49 1.373 . S
C50 C54 1.397 . S
C51 N47 1.453 . S
C51 C49 1.368 . S
C51 C52 1.373 . S
C52 H46 0.930 . S
C52 C51 1.373 . S
C52 C53 1.371 . S
C53 C52 1.371 . S
C53 C54 1.383 . S
C54 H45 0.931 1_655 S
C54 C50 1.397 . S
C54 C53 1.383 . S
H55 C60 0.929 . S
H56 C65 0.931 . S
H57 C63 0.930 . S
N58 N59 1.234 . S
N58 C62 1.453 . S
N59 N58 1.234 . S
C60 H55 0.929 . S
C60 C61 1.373 . S
C60 C62 1.368 . S
C61 C60 1.373 . S
C61 C65 1.397 . S
C62 N58 1.453 . S
C62 C60 1.368 . S
C62 C63 1.373 . S
C63 H57 0.930 . S
C63 C62 1.373 . S
C63 C64 1.371 . S
C64 C63 1.371 . S
C64 C65 1.383 . S
C65 H56 0.931 . S
C65 C61 1.397 . S
C65 C64 1.383 . S
H66 C71 0.929 . S
H67 C76 0.931 1_556 S
H68 C74 0.930 . S
N69 N70 1.234 . S
N69 C73 1.453 . S
N70 N69 1.234 . S
C71 H66 0.929 . S
C71 C72 1.373 . S
C71 C73 1.368 . S
C72 C71 1.373 . S
C72 C76 1.397 . S
C73 N69 1.453 . S
C73 C71 1.368 . S
C73 C74 1.373 . S
C74 H68 0.930 . S
C74 C73 1.373 . S
C74 C75 1.371 . S
C75 C74 1.371 . S
C75 C76 1.383 . S
C76 H67 0.931 1_554 S
C76 C72 1.397 . S
C76 C75 1.383 . S
H77 C82 0.929 . S
H78 C87 0.931 . S
H79 C85 0.930 . S
N80 N81 1.234 . S
N80 C84 1.453 . S
N81 N80 1.234 . S
C82 H77 0.929 . S
C82 C83 1.373 . S
C82 C84 1.368 . S
C83 C82 1.373 . S
C83 C87 1.397 . S
C84 N80 1.453 . S
C84 C82 1.368 . S
C84 C85 1.373 . S
C85 H79 0.930 . S
C85 C84 1.373 . S
C85 C86 1.371 . S
C86 C85 1.371 . S
C86 C87 1.383 . S
C87 H78 0.931 . S
C87 C83 1.397 . S
C87 C86 1.383 . S
C88 O104 1.251 . S
C88 O106 1.254 1_545 S
N89 C90 1.333 . S
N89 C94 1.307 . S
N89 Zn95 2.020 . S
C90 N89 1.333 . S
C90 C91 1.379 . S
C90 H108 0.952 . S
C91 C90 1.379 . S
C91 C92 1.390 . S
C91 H118 0.949 . S
C92 C91 1.390 . S
C92 C93 1.357 . S
C93 C92 1.357 . S
C93 C94 1.370 . S
C93 H119 0.950 . S
C94 N89 1.307 . S
C94 C93 1.370 . S
C94 H112 0.948 . S
Zn95 N89 2.020 . S
Zn95 O104 2.039 . S
Zn95 O110 2.034 . S
Zn95 O114 2.025 1_455 S
Zn95 O116 2.024 1_455 S
C96 O115 1.246 . S
C96 O116 1.249 . S
N97 C98 1.307 . S
N97 C99 1.333 . S
N97 Zn103 2.020 . S
C98 N97 1.307 . S
C98 C102 1.370 . S
C98 H109 0.948 1_655 S
C99 N97 1.333 . S
C99 C100 1.379 . S
C99 H107 0.952 . S
C100 C99 1.379 . S
C100 C101 1.390 . S
C100 H120 0.949 . S
C101 C100 1.390 . S
C101 C102 1.357 . S
C102 C98 1.370 . S
C102 C101 1.357 . S
C102 H121 0.950 . S
Zn103 N97 2.020 . S
Zn103 O106 2.025 1_655 S
Zn103 O111 2.024 1_655 S
Zn103 O113 2.039 . S
Zn103 O115 2.034 1_565 S
O104 C88 1.251 . S
O104 Zn95 2.039 . S
C105 O110 1.246 1_565 S
C105 O111 1.249 . S
O106 C88 1.254 1_565 S
O106 Zn103 2.025 1_455 S
H107 C99 0.952 . S
H108 C90 0.952 . S
H109 C98 0.948 1_455 S
O110 Zn95 2.034 . S
O110 C105 1.246 1_545 S
O111 Zn103 2.024 1_455 S
O111 C105 1.249 . S
H112 C94 0.948 . S
O113 Zn103 2.039 . S
O113 C117 1.251 1_565 S
O114 Zn95 2.025 1_655 S
O114 C117 1.254 . S
O115 C96 1.246 . S
O115 Zn103 2.034 1_545 S
O116 Zn95 2.024 1_655 S
O116 C96 1.249 . S
C117 O113 1.251 1_545 S
C117 O114 1.254 . S
H118 C91 0.949 . S
H119 C93 0.950 . S
H120 C100 0.949 . S
H121 C102 0.950 . S
C122 O138 1.251 1_565 S
C122 O140 1.254 1_556 S
N123 C124 1.333 . S
N123 C128 1.307 . S
N123 Zn129 2.020 . S
C124 N123 1.333 . S
C124 C125 1.379 . S
C124 H142 0.952 . S
C125 C124 1.379 . S
C125 C126 1.390 . S
C125 H152 0.949 . S
C126 C125 1.390 . S
C126 C127 1.357 . S
C127 C126 1.357 . S
C127 C128 1.370 . S
C127 H153 0.950 . S
C128 N123 1.307 . S
C128 C127 1.370 . S
C128 H146 0.948 . S
Zn129 N123 2.020 . S
Zn129 O138 2.039 . S
Zn129 O144 2.034 1_556 S
Zn129 O148 2.025 1_556 S
Zn129 O150 2.024 . S
C130 O149 1.246 1_545 S
C130 O150 1.249 . S
N131 C132 1.307 . S
N131 C133 1.333 . S
N131 Zn137 2.020 . S
C132 N131 1.307 . S
C132 C136 1.370 . S
C132 H143 0.948 . S
C133 N131 1.333 . S
C133 C134 1.379 . S
C133 H141 0.952 . S
C134 C133 1.379 . S
C134 C135 1.390 . S
C134 H154 0.949 . S
C135 C134 1.390 . S
C135 C136 1.357 . S
C136 C132 1.370 . S
C136 C135 1.357 . S
C136 H155 0.950 . S
Zn137 N131 2.020 . S
Zn137 O140 2.025 . S
Zn137 O145 2.025 . S
Zn137 O147 2.039 1_565 S
Zn137 O149 2.034 1_554 S
O138 C122 1.251 1_545 S
O138 Zn129 2.039 . S
C139 O144 1.246 . S
C139 O145 1.246 1_545 S
O140 C122 1.254 1_554 S
O140 Zn137 2.025 . S
H141 C133 0.952 . S
H142 C124 0.952 . S
H143 C132 0.948 . S
O144 Zn129 2.034 1_554 S
O144 C139 1.246 . S
O145 Zn137 2.025 . S
O145 C139 1.246 1_565 S
H146 C128 0.948 . S
O147 Zn137 2.039 1_545 S
O147 C151 1.251 . S
O148 Zn129 2.025 1_554 S
O148 C151 1.254 . S
O149 C130 1.246 1_565 S
O149 Zn137 2.034 1_556 S
O150 Zn129 2.024 . S
O150 C130 1.249 . S
C151 O147 1.251 . S
C151 O148 1.254 . S
H152 C125 0.949 . S
H153 C127 0.950 . S
H154 C134 0.949 . S
H155 C136 0.950 . S
C156 O172 1.251 . S
C156 O174 1.254 . S
N157 C158 1.333 . S
N157 C162 1.307 . S
N157 Zn163 2.020 . S
C158 N157 1.333 . S
C158 C159 1.379 . S
C158 H176 0.952 . S
C159 C158 1.379 . S
C159 C160 1.390 . S
C159 H186 0.949 . S
C160 C159 1.390 . S
C160 C161 1.357 . S
C161 C160 1.357 . S
C161 C162 1.370 . S
C161 H187 0.950 . S
C162 N157 1.307 . S
C162 C161 1.370 . S
C162 H180 0.948 . S
Zn163 N157 2.020 . S
Zn163 O172 2.039 . S
Zn163 O178 2.034 . S
Zn163 O182 2.025 . S
Zn163 O184 2.024 . S
C164 O183 1.246 . S
C164 O184 1.249 . S
N165 C166 1.307 . S
N165 C167 1.333 . S
N165 Zn171 2.020 . S
C166 N165 1.307 . S
C166 C170 1.370 . S
C166 H177 0.948 . S
C167 N165 1.333 . S
C167 C168 1.379 . S
C167 H175 0.952 . S
C168 C167 1.379 . S
C168 C169 1.390 . S
C168 H188 0.949 . S
C169 C168 1.390 . S
C169 C170 1.357 . S
C170 C166 1.370 . S
C170 C169 1.357 . S
C170 H189 0.950 . S
Zn171 N165 2.020 . S
Zn171 O174 2.025 . S
Zn171 O179 2.024 . S
Zn171 O181 2.039 . S
Zn171 O183 2.034 . S
O172 C156 1.251 . S
O172 Zn163 2.039 . S
C173 O178 1.246 . S
C173 O179 1.249 . S
O174 C156 1.254 . S
O174 Zn171 2.025 . S
H175 C167 0.952 . S
H176 C158 0.952 . S
H177 C166 0.948 . S
O178 Zn163 2.034 . S
O178 C173 1.246 . S
O179 Zn171 2.024 . S
O179 C173 1.249 . S
H180 C162 0.948 . S
O181 Zn171 2.039 . S
O181 C185 1.251 . S
O182 Zn163 2.025 . S
O182 C185 1.254 . S
O183 C164 1.246 . S
O183 Zn171 2.034 . S
O184 Zn163 2.024 . S
O184 C164 1.249 . S
C185 O181 1.251 . S
C185 O182 1.254 . S
H186 C159 0.949 . S
H187 C161 0.950 . S
H188 C168 0.949 . S
H189 C170 0.950 . S
C190 O206 1.251 1_556 S
C190 O208 1.254 1_655 S
N191 C192 1.333 . S
N191 C196 1.307 . S
N191 Zn197 2.020 . S
C192 N191 1.333 . S
C192 C193 1.379 . S
C192 H210 0.952 . S
C193 C192 1.379 . S
C193 C194 1.390 . S
C193 H220 0.949 . S
C194 C193 1.390 . S
C194 C195 1.357 . S
C195 C194 1.357 . S
C195 C196 1.370 . S
C195 H221 0.950 . S
C196 N191 1.307 . S
C196 C195 1.370 . S
C196 H214 0.948 . S
Zn197 N191 2.020 . S
Zn197 O206 2.039 . S
Zn197 O212 2.034 1_655 S
Zn197 O216 2.025 1_655 S
Zn197 O218 2.024 . S
C198 O217 1.246 . S
C198 O218 1.249 1_556 S
N199 C200 1.307 . S
N199 C201 1.333 . S
N199 Zn205 2.020 . S
C200 N199 1.307 . S
C200 C204 1.370 . S
C200 H211 0.948 . S
C201 N199 1.333 . S
C201 C202 1.379 . S
C201 H209 0.952 . S
C202 C201 1.379 . S
C202 C203 1.390 . S
C202 H222 0.949 . S
C203 C202 1.390 . S
C203 C204 1.357 . S
C204 C200 1.370 . S
C204 C203 1.357 . S
C204 H223 0.950 . S
Zn205 N199 2.020 . S
Zn205 O208 2.025 . S
Zn205 O213 2.027 . S
Zn205 O215 2.039 . S
Zn205 O217 2.034 1_455 S
O206 C190 1.251 1_554 S
O206 Zn197 2.039 . S
C207 O212 1.246 . S
C207 O213 1.244 1_554 S
O208 C190 1.254 1_455 S
O208 Zn205 2.025 . S
H209 C201 0.952 . S
H210 C192 0.952 . S
H211 C200 0.948 . S
O212 Zn197 2.034 1_455 S
O212 C207 1.246 . S
O213 Zn205 2.027 . S
O213 C207 1.244 1_556 S
H214 C196 0.948 . S
O215 Zn205 2.039 . S
O215 C219 1.251 1_556 S
O216 Zn197 2.025 1_455 S
O216 C219 1.254 . S
O217 C198 1.246 . S
O217 Zn205 2.034 1_655 S
O218 Zn197 2.024 . S
O218 C198 1.249 1_554 S
C219 O215 1.251 1_554 S
C219 O216 1.254 . S
H220 C193 0.949 . S
H221 C195 0.950 . S
H222 C202 0.949 . S
H223 C204 0.950 . S
C6 C88 3.424 . S
C20 C130 3.719 1_565 S
C160 N26 0.859 . S
N37 C194 0.936 . S
C151 C9 2.830 . S
C105 N15 2.141 . S
C198 C31 0.842 . S
C164 C39 0.245 . S
N4 C219 2.807 . S
C126 C28 1.852 . S
C42 C101 1.726 . S
C17 C185 3.233 . S
C117 C50 3.661 1_545 S
C61 C139 3.229 . S
N70 C169 1.139 . S
N81 C203 0.788 . S
N48 C122 1.936 . S
C96 C64 2.721 . S
C207 C75 0.249 . S
C173 C86 0.649 . S
C53 C190 3.430 . S
C135 C72 1.636 . S
C92 C83 1.688 . S
N59 C156 2.736 . S
