# Generated by pormake.
# Topology anh, (6,3)-cn, num edge types: 1
# Building blocks:
#     Node 0, Type 0, BuildingBlock: CUWYAW_clean_sbu_0, # of connection points: 6
#     Node 1, Type 0, BuildingBlock: CUWYAW_clean_sbu_0, # of connection points: 6
#     Node 2, Type 0, BuildingBlock: CUWYAW_clean_sbu_0, # of connection points: 6
#     Node 3, Type 1, BuildingBlock: INOVEN_clean_linker_0, # of connection points: 3
#     Node 4, Type 1, BuildingBlock: INOVEN_clean_linker_0, # of connection points: 3
#     Node 5, Type 1, BuildingBlock: INOVEN_clean_linker_0, # of connection points: 3
#     Node 6, Type 1, BuildingBlock: INOVEN_clean_linker_0, # of connection points: 3
#     Node 7, Type 1, BuildingBlock: INOVEN_clean_linker_0, # of connection points: 3
#     Node 8, Type 1, BuildingBlock: INOVEN_clean_linker_0, # of connection points: 3
#     Edge 9, Type (0, 1), None
#     Edge 10, Type (0, 1), None
#     Edge 11, Type (0, 1), None
#     Edge 12, Type (0, 1), None
#     Edge 13, Type (0, 1), None
#     Edge 14, Type (0, 1), None
#     Edge 15, Type (0, 1), None
#     Edge 16, Type (0, 1), None
#     Edge 17, Type (0, 1), None
#     Edge 18, Type (0, 1), None
#     Edge 19, Type (0, 1), None
#     Edge 20, Type (0, 1), None
#     Edge 21, Type (0, 1), None
#     Edge 22, Type (0, 1), None
#     Edge 23, Type (0, 1), None
#     Edge 24, Type (0, 1), None
#     Edge 25, Type (0, 1), None
#     Edge 26, Type (0, 1), None
# Relax obj value: 0.771
# Max RMSD: 0.226
# Mean RMSD: 0.156
data_MOF--net-anh--node1-CUWYAW_clean_sbu_0--node2-INOVEN_clean_linker_0--edge1-none
_symmetry_space_group_name_H-M    P1
_symmetry_Int_Tables_number       1
_symmetry_cell_setting            triclinic
loop_
_symmetry_equiv_pos_as_xyz
'x, y, z'
_cell_length_a     14.24678
_cell_length_b     14.155749
_cell_length_c     22.37005
_cell_angle_alpha  91.825002
_cell_angle_beta   92.392115
_cell_angle_gamma 120.38862
loop_
_atom_site_label
_atom_site_type_symbol
_atom_site_fract_x
_atom_site_fract_y
_atom_site_fract_z
_atom_type_partial_charge
C0 C 1.07877 0.43244 0.13798 0.0
Eu1 Eu 1.2417 0.61634 0.10789 0.0
C2 C 0.98712 0.43275 0.16619 0.0
C3 C 1.00447 0.47478 0.22571 0.0
C4 C 0.96206 0.54029 0.24335 0.0
C5 C 0.88877 0.55052 0.20473 0.0
C6 C 0.85466 0.49036 0.14914 0.0
C7 C 0.9046 0.43304 0.12949 0.0
C8 C 0.32814 0.74586 0.2144 0.0
C9 C 1.04648 0.69837 0.08672 0.0
C10 C 0.35364 0.9216 0.01893 0.0
Eu11 Eu 0.29346 0.73477 0.06785 0.0
C12 C 0.42259 1.03597 0.04147 0.0
C13 C 0.37356 1.09009 0.06817 0.0
C14 C 0.43185 1.17259 0.11297 0.0
C15 C 0.5391 0.20158 0.12968 0.0
C16 C 0.59361 1.16262 0.0951 0.0
C17 C 0.53554 1.08019 0.05062 0.0
C18 C 1.23605 0.57104 -0.02201 0.0
C19 C 0.49383 0.69294 0.08145 0.0
O20 O 1.09 0.46174 0.08318 0.0
O21 O 1.17227 0.4829 0.16901 0.0
O22 O 0.33622 0.66162 0.199 0.0
O23 O 0.28258 0.76529 0.16928 0.0
O24 O 1.10627 0.65774 0.06391 0.0
O25 O 1.10341 0.65681 0.06293 0.0
O26 O 1.26414 0.86695 0.04579 0.0
O27 O 0.40194 0.86521 0.01239 0.0
O28 O 1.20122 0.63856 -0.01974 0.0
O29 O 0.29784 0.58918 0.02349 0.0
O30 O 0.47678 0.77621 0.07907 0.0
O31 O 0.39856 0.60169 0.08673 0.0
H32 H 1.05918 0.46524 0.25651 0.0
H33 H 0.98224 0.57968 0.28793 0.0
H34 H 0.79151 0.49019 0.12048 0.0
H35 H 0.88587 0.39777 0.08382 0.0
H36 H 0.2871 1.05953 0.06001 0.0
H37 H 0.39023 0.20502 0.13844 0.0
H38 H 0.67828 0.18836 0.10637 0.0
H39 H 0.57638 1.04284 0.02884 0.0
C40 C 0.58984 0.39064 0.43916 0.0
Eu41 Eu 0.6872 0.27484 0.44422 0.0
C42 C 0.6272 0.5055 0.42694 0.0
C43 C 0.58784 0.56515 0.45741 0.0
C44 C 0.65328 0.68006 0.46362 0.0
C45 C 0.76292 0.72814 0.44838 0.0
C46 C 0.77982 0.67657 0.39912 0.0
C47 C 0.71763 0.56296 0.39303 0.0
C48 C 0.75664 0.23027 0.55274 0.0
C49 C 0.96235 0.44783 0.41632 0.0
C50 C 0.90897 1.06607 0.42803 0.0
Eu51 Eu 0.81451 0.18145 0.4213 0.0
C52 C 1.01231 1.07438 0.44888 0.0
C53 C 1.074 1.05788 0.40682 0.0
C54 C 1.15312 1.03301 0.42583 0.0
C55 C 1.16832 1.02149 0.48673 0.0
C56 C 1.12015 1.05578 0.52921 0.0
C57 C 1.0413 1.08107 0.51036 0.0
C58 C 0.73993 0.22658 0.3202 0.0
C59 C 0.53456 1.00303 0.40654 0.0
O60 O 0.59004 0.32956 0.39446 0.0
O61 O 0.63165 0.37635 0.48867 0.0
O62 O 0.6587 0.20993 0.53783 0.0
O63 O 0.81422 0.27103 0.50772 0.0
O64 O 0.85978 0.43103 0.41816 0.0
O65 O 0.96957 0.35832 0.42224 0.0
O66 O 0.8456 1.06726 0.46855 0.0
O67 O 0.91096 1.11965 0.3812 0.0
O68 O 0.84083 0.25236 0.3294 0.0
O69 O 0.68737 0.18295 0.36461 0.0
O70 O 0.63584 1.01811 0.4033 0.0
O71 O 0.53252 1.09417 0.42293 0.0
H72 H 0.51453 0.52374 0.48153 0.0
H73 H 0.6298 0.72411 0.49426 0.0
H74 H 0.85596 0.71565 0.37749 0.0
H75 H 0.74927 0.52124 0.3687 0.0
H76 H 1.05401 1.0538 0.35919 0.0
H77 H 1.19097 1.00791 0.3928 0.0
H78 H 1.13321 1.04915 0.57658 0.0
H79 H 0.99669 1.09586 0.54385 0.0
C80 C 1.17475 0.84771 0.76589 0.0
Eu81 Eu 0.96675 0.76896 0.77827 0.0
C82 C 1.2292 0.78853 0.74573 0.0
C83 C 0.33103 0.81623 0.77254 0.0
C84 C 0.35682 0.73397 0.77969 0.0
C85 C 0.27432 0.62308 0.76751 0.0
C86 C 1.18718 0.60146 0.72665 0.0
C87 C 1.16644 0.68559 0.71458 0.0
C88 C 0.87171 0.73043 0.88714 0.0
C89 C 0.84557 0.48495 0.74275 0.0
C90 C 0.53107 0.54528 0.76882 0.0
Eu91 Eu 0.73977 0.64203 0.75867 0.0
C92 C 0.44172 0.43393 0.77892 0.0
C93 C 0.36607 0.36965 0.7312 0.0
C94 C 0.26835 0.27557 0.74242 0.0
C95 C 1.24459 0.24717 0.80149 0.0
C96 C 0.32642 0.3015 0.84788 0.0
C97 C 0.42417 0.39533 0.83685 0.0
C98 C 0.84705 0.689 0.65768 0.0
C99 C 0.84761 0.9207 0.7516 0.0
O100 O 1.10961 0.85435 0.726 0.0
O101 O 1.13005 0.81901 0.81701 0.0
O102 O 0.9522 0.82346 0.87233 0.0
O103 O 0.84368 0.66004 0.84265 0.0
O104 O 0.93595 0.58647 0.74844 0.0
O105 O 0.75238 0.4833 0.7497 0.0
O106 O 0.60299 0.60035 0.81361 0.0
O107 O 0.5747 0.55829 0.71738 0.0
O108 O 0.76124 0.59445 0.66458 0.0
O109 O 0.86444 0.75407 0.70135 0.0
O110 O 0.75847 0.81958 0.75068 0.0
O111 O 0.94337 0.92354 0.76041 0.0
H112 H 0.38389 0.89684 0.79446 0.0
H113 H 0.43051 0.7545 0.8065 0.0
H114 H 1.12508 0.51829 0.71217 0.0
H115 H 1.09254 0.66537 0.68846 0.0
H116 H 0.37818 0.39686 0.68597 0.0
H117 H 1.20569 0.23425 0.7063 0.0
H118 H 0.30883 0.27975 0.89374 0.0
H119 H 0.48162 0.44189 0.87445 0.0
H120 H 0.58479 0.40409 0.16653 0.0
H121 H 0.6077 1.12605 0.22016 0.0
H122 H 0.79848 0.43503 0.31541 0.0
N123 N 0.73806 0.54607 0.24528 0.0
N124 N 0.83193 0.60125 0.22725 0.0
C125 C 0.61222 0.36619 0.19884 0.0
C126 C 0.59008 0.2591 0.18733 0.0
C127 C 0.68574 0.43025 0.24641 0.0
C128 C 0.7316 0.38396 0.28361 0.0
C129 C 0.7006 0.27426 0.27602 0.0
C130 C 0.62891 0.21084 0.22786 0.0
H131 H 0.98777 0.83019 0.44407 0.0
H132 H 0.73233 0.69771 0.56778 0.0
H133 H 1.05296 0.77042 0.62268 0.0
N134 N 1.14897 0.86033 0.52529 0.0
N135 N 1.20748 0.95089 0.50304 0.0
C136 C 0.96005 0.80662 0.48822 0.0
C137 C 0.84885 0.7645 0.49888 0.0
C138 C 1.03518 0.81362 0.53392 0.0
C139 C 0.99693 0.77045 0.58877 0.0
C140 C 0.88748 0.72872 0.59978 0.0
C141 C 0.81595 0.7304 0.55651 0.0
H142 H 1.16371 0.39426 0.75731 0.0
H143 H 0.32604 0.67252 0.88539 0.0
H144 H 1.13521 0.35068 0.94644 0.0
N145 N 1.09178 0.24202 0.83965 0.0
N146 N 1.13383 0.19179 0.81593 0.0
C147 C 1.18741 0.42892 0.803 0.0
C148 C 1.25425 0.54335 0.81445 0.0
C149 C 1.14913 0.35855 0.85077 0.0
C150 C 1.17063 0.40359 0.90991 0.0
C151 C 1.23574 0.5172 0.92132 0.0
C152 C 0.28074 0.58482 0.8744 0.0
H153 H 0.33805 0.81985 0.45729 0.0
H154 H 0.4851 0.92702 0.28761 0.0
H155 H 1.17694 0.62826 0.29209 0.0
N156 N 1.14978 0.61768 0.41163 0.0
N157 N 1.05233 0.54844 0.38953 0.0
C158 C 0.33472 0.80896 0.40901 0.0
C159 C 0.42714 0.89288 0.37717 0.0
C160 C 1.23886 0.71002 0.379 0.0
C161 C 1.24122 0.70035 0.31559 0.0
C162 C 0.32762 0.77677 0.2816 0.0
C163 C 0.41859 0.87068 0.31328 0.0
H164 H 0.88029 0.30775 0.79227 0.0
H165 H 0.79748 0.40667 0.62612 0.0
H166 H 0.80396 1.10491 0.62686 0.0
N167 N 0.86009 1.10648 0.74654 0.0
N168 N 0.83838 1.01223 0.72347 0.0
C169 C 0.85917 0.29392 0.74451 0.0
C170 C 0.84304 0.37667 0.71372 0.0
C171 C 0.84582 0.19195 0.71431 0.0
C172 C 0.81642 1.17806 0.6513 0.0
C173 C 0.80028 0.25528 0.61904 0.0
C174 C 0.81326 0.3511 0.65098 0.0
H175 H 0.85538 0.69863 0.12754 0.0
H176 H 1.00861 0.70321 0.96404 0.0
H177 H 0.70539 0.70479 0.95669 0.0
N178 N 0.66893 0.69208 0.07772 0.0
N179 N 0.58784 0.69467 0.05236 0.0
C180 C 0.85422 0.69622 0.07929 0.0
C181 C 0.9446 0.69448 0.05088 0.0
C182 C 0.76206 0.69515 0.04652 0.0
C183 C 0.76832 0.70023 -0.01695 0.0
C184 C 0.85718 0.70417 0.95309 0.0
C185 C 0.94135 0.69861 -0.01268 0.0
loop_
_geom_bond_atom_site_label_1
_geom_bond_atom_site_label_2
_geom_bond_distance
_geom_bond_site_symmetry_2
_ccdc_geom_bond_type
C0 Eu1 2.835 . S
C0 C2 1.500 . S
C0 O20 1.257 . S
C0 O21 1.260 . S
Eu1 C0 2.835 . S
Eu1 O20 2.473 . S
Eu1 O21 2.480 . S
Eu1 O22 2.430 . S
Eu1 O23 2.670 1_655 S
Eu1 O24 2.394 . S
Eu1 O29 2.355 . S
Eu1 O31 2.374 1_655 S
C2 C0 1.500 . S
C2 C3 1.377 . S
C2 C7 1.377 . S
C3 C2 1.377 . S
C3 C4 1.395 . S
C3 H32 0.931 . S
C4 C3 1.395 . S
C4 C5 1.383 . S
C4 H33 0.931 . S
C5 C4 1.383 . S
C5 C6 1.394 . S
C6 C5 1.394 . S
C6 C7 1.378 . S
C6 H34 0.931 1_554 S
C7 C2 1.377 . S
C7 C6 1.378 . S
C7 H35 0.931 . S
C8 O22 1.259 1_455 S
C8 O23 1.270 . S
C9 O24 1.251 . S
C9 O25 1.251 . S
C10 Eu11 2.835 . S
C10 C12 1.500 . S
C10 O26 1.257 . S
C10 O27 1.260 . S
Eu11 C10 2.835 . S
Eu11 O23 2.355 . S
Eu11 O25 2.374 1_455 S
Eu11 O26 2.473 . S
Eu11 O27 2.480 . S
Eu11 O28 2.430 1_554 S
Eu11 O29 2.670 1_455 S
Eu11 O30 2.394 . S
C12 C10 1.500 . S
C12 C13 1.377 . S
C12 C17 1.377 . S
C13 C12 1.377 . S
C13 C14 1.395 . S
C13 H36 0.931 . S
C14 C13 1.395 . S
C14 C15 1.383 1_565 S
C14 H37 0.931 1_565 S
C15 C14 1.383 1_545 S
C15 C16 1.394 1_545 S
C16 C15 1.394 1_565 S
C16 C17 1.378 . S
C16 H38 0.931 . S
C17 C12 1.377 . S
C17 C16 1.378 . S
C17 H39 0.931 . S
C18 O28 1.259 . S
C18 O29 1.270 1_456 S
C19 O30 1.251 . S
C19 O31 1.251 . S
O20 C0 1.257 . S
O20 Eu1 2.473 . S
O21 C0 1.260 . S
O21 Eu1 2.480 . S
O22 Eu1 2.430 . S
O22 C8 1.259 1_655 S
O23 Eu1 2.670 1_455 S
O23 C8 1.270 . S
O23 Eu11 2.355 . S
O24 Eu1 2.394 . S
O24 C9 1.251 . S
O25 C9 1.251 . S
O25 Eu11 2.374 1_655 S
O26 C10 1.257 . S
O26 Eu11 2.473 . S
O27 C10 1.260 . S
O27 Eu11 2.480 . S
O28 Eu11 2.430 1_556 S
O28 C18 1.259 . S
O29 Eu1 2.355 . S
O29 Eu11 2.670 1_655 S
O29 C18 1.270 1_654 S
O30 Eu11 2.394 . S
O30 C19 1.251 . S
O31 Eu1 2.374 1_455 S
O31 C19 1.251 . S
H32 C3 0.931 . S
H33 C4 0.931 . S
H34 C6 0.931 1_556 S
H35 C7 0.931 . S
H36 C13 0.931 . S
H37 C14 0.931 1_545 S
H38 C16 0.931 . S
H39 C17 0.931 . S
C40 Eu41 2.835 . S
C40 C42 1.500 . S
C40 O60 1.257 . S
C40 O61 1.260 . S
Eu41 C40 2.835 . S
Eu41 O60 2.473 . S
Eu41 O61 2.480 . S
Eu41 O62 2.430 . S
Eu41 O63 2.670 . S
Eu41 O64 2.394 . S
Eu41 O69 2.355 . S
Eu41 O71 2.374 1_545 S
C42 C40 1.500 . S
C42 C43 1.377 . S
C42 C47 1.377 . S
C43 C42 1.377 . S
C43 C44 1.395 . S
C43 H72 0.931 . S
C44 C43 1.395 . S
C44 C45 1.383 . S
C44 H73 0.931 . S
C45 C44 1.383 . S
C45 C46 1.394 . S
C46 C45 1.394 . S
C46 C47 1.378 . S
C46 H74 0.931 . S
C47 C42 1.377 . S
C47 C46 1.378 . S
C47 H75 0.931 . S
C48 O62 1.259 . S
C48 O63 1.270 . S
C49 O64 1.251 . S
C49 O65 1.251 . S
C50 Eu51 2.835 . S
C50 C52 1.500 . S
C50 O66 1.257 . S
C50 O67 1.260 . S
Eu51 C50 2.835 . S
Eu51 O63 2.355 1_565 S
Eu51 O65 2.374 1_565 S
Eu51 O66 2.473 . S
Eu51 O67 2.480 . S
Eu51 O68 2.430 . S
Eu51 O69 2.670 1_565 S
Eu51 O70 2.394 . S
C52 C50 1.500 . S
C52 C53 1.377 . S
C52 C57 1.377 . S
C53 C52 1.377 . S
C53 C54 1.395 . S
C53 H76 0.931 . S
C54 C53 1.395 . S
C54 C55 1.383 . S
C54 H77 0.931 . S
C55 C54 1.383 . S
C55 C56 1.394 . S
C56 C55 1.394 . S
C56 C57 1.378 . S
C56 H78 0.931 . S
C57 C52 1.377 . S
C57 C56 1.378 . S
C57 H79 0.931 . S
C58 O68 1.259 1_545 S
C58 O69 1.270 . S
C59 O70 1.251 . S
C59 O71 1.251 . S
O60 C40 1.257 . S
O60 Eu41 2.473 . S
O61 C40 1.260 . S
O61 Eu41 2.480 . S
O62 Eu41 2.430 . S
O62 C48 1.259 . S
O63 Eu41 2.670 . S
O63 C48 1.270 . S
O63 Eu51 2.355 1_545 S
O64 Eu41 2.394 . S
O64 C49 1.251 . S
O65 C49 1.251 . S
O65 Eu51 2.374 1_545 S
O66 C50 1.257 . S
O66 Eu51 2.473 . S
O67 C50 1.260 . S
O67 Eu51 2.480 . S
O68 Eu51 2.430 . S
O68 C58 1.259 1_565 S
O69 Eu41 2.355 . S
O69 Eu51 2.670 1_545 S
O69 C58 1.270 . S
O70 Eu51 2.394 . S
O70 C59 1.251 . S
O71 Eu41 2.374 1_565 S
O71 C59 1.251 . S
H72 C43 0.931 . S
H73 C44 0.931 . S
H74 C46 0.931 . S
H75 C47 0.931 . S
H76 C53 0.931 . S
H77 C54 0.931 . S
H78 C56 0.931 . S
H79 C57 0.931 . S
C80 Eu81 2.835 . S
C80 C82 1.500 . S
C80 O100 1.257 . S
C80 O101 1.260 . S
Eu81 C80 2.835 . S
Eu81 O100 2.473 . S
Eu81 O101 2.480 . S
Eu81 O102 2.430 . S
Eu81 O103 2.670 . S
Eu81 O104 2.394 . S
Eu81 O109 2.355 . S
Eu81 O111 2.374 . S
C82 C80 1.500 . S
C82 C83 1.377 . S
C82 C87 1.377 . S
C83 C82 1.377 . S
C83 C84 1.395 . S
C83 H112 0.931 . S
C84 C83 1.395 . S
C84 C85 1.383 . S
C84 H113 0.931 . S
C85 C84 1.383 . S
C85 C86 1.394 . S
C86 C85 1.394 . S
C86 C87 1.378 . S
C86 H114 0.931 . S
C87 C82 1.377 . S
C87 C86 1.378 . S
C87 H115 0.931 . S
C88 O102 1.259 . S
C88 O103 1.270 . S
C89 O104 1.251 . S
C89 O105 1.251 . S
C90 Eu91 2.835 . S
C90 C92 1.500 . S
C90 O106 1.257 . S
C90 O107 1.260 . S
Eu91 C90 2.835 . S
Eu91 O103 2.355 . S
Eu91 O105 2.374 . S
Eu91 O106 2.473 . S
Eu91 O107 2.480 . S
Eu91 O108 2.430 . S
Eu91 O109 2.670 . S
Eu91 O110 2.394 . S
C92 C90 1.500 . S
C92 C93 1.377 . S
C92 C97 1.377 . S
C93 C92 1.377 . S
C93 C94 1.395 . S
C93 H116 0.931 . S
C94 C93 1.395 . S
C94 C95 1.383 . S
C94 H117 0.931 . S
C95 C94 1.383 . S
C95 C96 1.394 . S
C96 C95 1.394 . S
C96 C97 1.378 . S
C96 H118 0.931 . S
C97 C92 1.377 . S
C97 C96 1.378 . S
C97 H119 0.931 . S
C98 O108 1.259 . S
C98 O109 1.270 . S
C99 O110 1.251 . S
C99 O111 1.251 . S
O100 C80 1.257 . S
O100 Eu81 2.473 . S
O101 C80 1.260 . S
O101 Eu81 2.480 . S
O102 Eu81 2.430 . S
O102 C88 1.259 . S
O103 Eu81 2.670 . S
O103 C88 1.270 . S
O103 Eu91 2.355 . S
O104 Eu81 2.394 . S
O104 C89 1.251 . S
O105 C89 1.251 . S
O105 Eu91 2.374 . S
O106 C90 1.257 . S
O106 Eu91 2.473 . S
O107 C90 1.260 . S
O107 Eu91 2.480 . S
O108 Eu91 2.430 . S
O108 C98 1.259 . S
O109 Eu81 2.355 . S
O109 Eu91 2.670 . S
O109 C98 1.270 . S
O110 Eu91 2.394 . S
O110 C99 1.251 . S
O111 Eu81 2.374 . S
O111 C99 1.251 . S
H112 C83 0.931 . S
H113 C84 0.931 . S
H114 C86 0.931 . S
H115 C87 0.931 . S
H116 C93 0.931 . S
H117 C94 0.931 . S
H118 C96 0.931 . S
H119 C97 0.931 . S
H120 C125 0.929 . S
H121 C130 0.931 . S
H122 C128 0.930 . S
N123 N124 1.234 . S
N123 C127 1.453 . S
N124 N123 1.234 . S
C125 H120 0.929 . S
C125 C126 1.373 1_545 S
C125 C127 1.368 . S
C126 C125 1.373 1_565 S
C126 C130 1.397 . S
C127 N123 1.453 . S
C127 C125 1.368 . S
C127 C128 1.373 . S
C128 H122 0.930 . S
C128 C127 1.373 . S
C128 C129 1.371 . S
C129 C128 1.371 . S
C129 C130 1.383 1_545 S
C130 H121 0.931 . S
C130 C126 1.397 . S
C130 C129 1.383 1_565 S
H131 C136 0.929 . S
H132 C141 0.931 . S
H133 C139 0.930 . S
N134 N135 1.234 . S
N134 C138 1.453 . S
N135 N134 1.234 . S
C136 H131 0.929 . S
C136 C137 1.373 . S
C136 C138 1.368 . S
C137 C136 1.373 . S
C137 C141 1.397 . S
C138 N134 1.453 . S
C138 C136 1.368 . S
C138 C139 1.373 . S
C139 H133 0.930 . S
C139 C138 1.373 . S
C139 C140 1.371 . S
C140 C139 1.371 . S
C140 C141 1.383 . S
C141 H132 0.931 . S
C141 C137 1.397 . S
C141 C140 1.383 . S
H142 C147 0.929 . S
H143 C152 0.931 1_554 S
H144 C150 0.930 1_554 S
N145 N146 1.234 . S
N145 C149 1.453 . S
N146 N145 1.234 . S
C147 H142 0.929 . S
C147 C148 1.373 . S
C147 C149 1.368 1_655 S
C148 C147 1.373 . S
C148 C152 1.397 . S
C149 N145 1.453 . S
C149 C147 1.368 1_455 S
C149 C150 1.373 . S
C150 H144 0.930 1_556 S
C150 C149 1.373 . S
C150 C151 1.371 1_456 S
C151 C150 1.371 1_654 S
C151 C152 1.383 1_554 S
C152 H143 0.931 1_556 S
C152 C148 1.397 . S
C152 C151 1.383 1_556 S
H153 C158 0.929 . S
H154 C163 0.931 . S
H155 C161 0.930 1_655 S
N156 N157 1.234 . S
N156 C160 1.453 1_655 S
N157 N156 1.234 . S
C158 H153 0.929 . S
C158 C159 1.373 . S
C158 C160 1.368 . S
C159 C158 1.373 . S
C159 C163 1.397 . S
C160 N156 1.453 1_455 S
C160 C158 1.368 . S
C160 C161 1.373 . S
C161 H155 0.930 1_455 S
C161 C160 1.373 . S
C161 C162 1.371 . S
C162 C161 1.371 . S
C162 C163 1.383 . S
C163 H154 0.931 . S
C163 C159 1.397 . S
C163 C162 1.383 . S
H164 C169 0.929 . S
H165 C174 0.931 . S
H166 C172 0.930 . S
N167 N168 1.234 . S
N167 C171 1.453 . S
N168 N167 1.234 . S
C169 H164 0.929 . S
C169 C170 1.373 . S
C169 C171 1.368 1_545 S
C170 C169 1.373 . S
C170 C174 1.397 . S
C171 N167 1.453 . S
C171 C169 1.368 1_565 S
C171 C172 1.373 . S
C172 H166 0.930 . S
C172 C171 1.373 . S
C172 C173 1.371 1_565 S
C173 C172 1.371 1_545 S
C173 C174 1.383 . S
C174 H165 0.931 . S
C174 C170 1.397 . S
C174 C173 1.383 . S
H175 C180 0.929 . S
H176 C185 0.931 1_556 S
H177 C183 0.930 . S
N178 N179 1.234 . S
N178 C182 1.453 . S
N179 N178 1.234 . S
C180 H175 0.929 . S
C180 C181 1.373 . S
C180 C182 1.368 . S
C181 C180 1.373 . S
C181 C185 1.397 . S
C182 N178 1.453 . S
C182 C180 1.368 . S
C182 C183 1.373 . S
C183 H177 0.930 . S
C183 C182 1.373 . S
C183 C184 1.371 1_554 S
C184 C183 1.371 1_556 S
C184 C185 1.383 1_556 S
C185 H176 0.931 1_554 S
C185 C181 1.397 . S
C185 C184 1.383 1_554 S
C19 N179 4.622 . S
C49 N157 4.726 . S
C99 N168 4.614 . S
C9 C181 4.691 . S
C159 C59 4.628 . S
C170 C89 4.700 . S
C55 N135 3.516 . S
C85 C148 3.362 . S
C15 C126 3.081 1_545 S
C137 C45 3.448 . S
N146 C95 3.487 . S
C5 N124 3.634 . S
C151 C18 1.500 1_654 S
C58 C129 0.954 . S
C98 C140 1.396 . S
C173 C48 1.921 . S
C184 C88 1.958 . S
C8 C162 1.989 . S
