# Generated by pormake.
# Topology ftw, (4,12)-cn, num edge types: 1
# Building blocks:
#     Node 0, Type 0, BuildingBlock: MUDLON_clean_linker_0, # of connection points: 4
#     Node 1, Type 0, BuildingBlock: MUDLON_clean_linker_0, # of connection points: 4
#     Node 2, Type 0, BuildingBlock: MUDLON_clean_linker_0, # of connection points: 4
#     Node 3, Type 1, BuildingBlock: EZIPEK_clean_sbu_0, # of connection points: 12
#     Edge 4, Type (0, 1), None
#     Edge 5, Type (0, 1), None
#     Edge 6, Type (0, 1), None
#     Edge 7, Type (0, 1), None
#     Edge 8, Type (0, 1), None
#     Edge 9, Type (0, 1), None
#     Edge 10, Type (0, 1), None
#     Edge 11, Type (0, 1), None
#     Edge 12, Type (0, 1), None
#     Edge 13, Type (0, 1), None
#     Edge 14, Type (0, 1), None
#     Edge 15, Type (0, 1), None
# Relax obj value: 0.083
# Max RMSD: 0.225
# Mean RMSD: 0.171
data_MOF--net-ftw--node1-EZIPEK_clean_sbu_0--node2-MUDLON_clean_linker_0--edge1-none
_symmetry_space_group_name_H-M    P1
_symmetry_Int_Tables_number       1
_symmetry_cell_setting            triclinic
loop_
_symmetry_equiv_pos_as_xyz
'x, y, z'
_cell_length_a     16.164258
_cell_length_b     22.148938
_cell_length_c     16.35954
_cell_angle_alpha  89.260827
_cell_angle_beta   89.020914
_cell_angle_gamma 90.090429
loop_
_atom_site_label
_atom_site_type_symbol
_atom_site_fract_x
_atom_site_fract_y
_atom_site_fract_z
_atom_type_partial_charge
H0 H 0.92412 0.71098 0.76634 0.0
N1 N 1.02745 0.70976 0.63643 0.0
H2 H 0.94752 0.75587 0.90099 0.0
H3 H 0.17145 0.76034 0.68926 0.0
H4 H 0.19506 0.80475 0.82337 0.0
H5 H 0.09312 0.67623 0.48484 0.0
H6 H 0.10806 0.73898 0.36277 0.0
H7 H 1.00178 0.82986 0.61943 0.0
H8 H 1.01912 0.89276 0.49724 0.0
H9 H 0.9196 0.62364 0.59968 0.0
H10 H 0.17549 0.65243 0.65716 0.0
H11 H 0.94548 0.51543 0.58602 0.0
H12 H 0.20115 0.5444 0.6497 0.0
H13 H 0.08538 0.14754 0.60572 0.0
H14 H 0.06544 0.08632 0.72831 0.0
H15 H 0.1457 0.23462 0.87621 0.0
H16 H 0.16685 0.29615 0.75322 0.0
H17 H 0.25848 0.2396 0.48131 0.0
H18 H 0.23698 0.1964 0.34567 0.0
H19 H 0.97366 0.19601 0.39111 0.0
H20 H 0.99531 0.24046 0.52628 0.0
H21 H 0.9986 0.31714 0.64378 0.0
H22 H 0.97047 0.4252 0.65524 0.0
H23 H 0.21728 0.46441 0.56216 0.0
N24 N 0.14457 0.26546 0.59539 0.0
H25 H 0.24577 0.35641 0.55635 0.0
C26 C 1.0452 0.73343 0.71683 0.0
C27 C 0.98403 0.73032 0.77908 0.0
C28 C 0.99804 0.75461 0.8567 0.0
C29 C 0.07395 0.78221 0.87386 0.0
C30 C 0.13676 0.78209 0.8129 0.0
C31 C 0.12283 0.75782 0.73553 0.0
C32 C 1.04832 0.74785 0.56482 0.0
C33 C 0.07776 0.72354 0.4899 0.0
C34 C 0.08583 0.75958 0.41865 0.0
C35 C 0.06526 0.8212 0.41943 0.0
C36 C 1.03668 0.84567 0.4939 0.0
C37 C 1.02731 0.80956 0.5647 0.0
C38 C 1.04502 0.64598 0.63038 0.0
C39 C 0.98113 0.60631 0.61042 0.0
C40 C 0.99609 0.54436 0.60336 0.0
C41 C 0.07548 0.52048 0.61713 0.0
C42 C 0.1395 0.56071 0.63727 0.0
C43 C 0.12474 0.62275 0.64285 0.0
C44 C 0.1247 0.22862 0.66833 0.0
C45 C 0.09716 0.16821 0.66388 0.0
C46 C 0.08626 0.13247 0.73495 0.0
C47 C 0.10304 0.15541 0.81302 0.0
C48 C 0.13066 0.21543 0.81774 0.0
C49 C 0.14244 0.25095 0.74673 0.0
C50 C 0.12886 0.24173 0.51484 0.0
C51 C 0.196 0.2314 0.46128 0.0
C52 C 0.18356 0.20828 0.38299 0.0
C53 C 0.10346 0.19518 0.35631 0.0
C54 C 1.03583 0.20808 0.40862 0.0
C55 C 1.04821 0.23204 0.48663 0.0
C56 C 0.1249 0.32892 0.60045 0.0
C57 C 1.04656 0.34922 0.62644 0.0
C58 C 1.03049 0.4112 0.63219 0.0
C59 C 0.09172 0.4542 0.61022 0.0
C60 C 0.16915 0.4332 0.58188 0.0
C61 C 0.18552 0.37139 0.57769 0.0
H62 H 0.56684 -0.00542 0.32625 0.0
N63 N 0.58205 0.02569 0.48513 0.0
H64 H 0.44087 -0.01749 0.25635 0.0
H65 H 0.43669 0.07662 0.52867 0.0
H66 H 0.30507 0.06651 0.455 0.0
H67 H 0.73168 -0.00559 0.54683 0.0
H68 H 0.86306 -0.00746 0.47047 0.0
H69 H 0.62445 0.10351 0.35518 0.0
H70 H 0.75436 0.10049 0.27916 0.0
H71 H 0.65107 0.92768 0.40496 0.0
H72 H 0.48752 -0.02149 0.60385 0.0
H73 H 0.63875 0.822 0.44652 0.0
H74 H 0.46579 0.87313 0.63768 0.0
H75 H 0.48687 0.79829 0.96033 0.0
H76 H 0.35261 0.84361 0.9925 0.0
H77 H 0.38374 0.96998 0.79224 0.0
H78 H 0.51555 0.9212 0.75558 0.0
H79 H 0.6424 0.94154 0.78721 0.0
H80 H 0.7697 -0.00707 0.82444 0.0
H81 H 0.84503 0.83513 0.96029 0.0
H82 H 0.7145 0.78493 0.92829 0.0
H83 H 0.46597 0.76241 0.77079 0.0
H84 H 0.45015 0.75234 0.62392 0.0
H85 H 0.70676 0.79524 0.58567 0.0
N86 N 0.59113 0.82675 0.83919 0.0
H87 H 0.72352 0.80911 0.73002 0.0
C88 C 0.51258 0.03779 0.43261 0.0
C89 C 0.51132 0.01272 0.35438 0.0
C90 C 0.43766 0.00493 0.3148 0.0
C91 C 0.36174 0.02313 0.35039 0.0
C92 C 0.36221 0.05118 0.42672 0.0
C93 C 0.43747 0.05847 0.46753 0.0
C94 C 0.66415 0.04213 0.45219 0.0
C95 C 0.73607 0.01833 0.48875 0.0
C96 C 0.81158 0.01751 0.44544 0.0
C97 C 0.81697 0.043 0.3667 0.0
C98 C 0.75023 0.0774 0.33792 0.0
C99 C 0.67518 0.07846 0.38133 0.0
C100 C 0.57532 0.96195 0.50605 0.0
C101 C 0.61209 0.91637 0.45738 0.0
C102 C 0.60266 0.85557 0.47886 0.0
C103 C 0.55356 0.83903 0.54696 0.0
C104 C 0.50678 0.88403 0.5867 0.0
C105 C 0.52014 0.94468 0.56866 0.0
C106 C 0.51397 0.8578 0.8582 0.0
C107 C 0.46491 0.83547 0.92293 0.0
C108 C 0.38749 0.86059 0.94012 0.0
C109 C 0.35712 0.90975 0.89432 0.0
C110 C 0.40456 0.9314 0.82761 0.0
C111 C 0.48164 0.90483 0.80867 0.0
C112 C 0.66588 0.85983 0.85879 0.0
C113 C 0.68468 0.91786 0.82625 0.0
C114 C 0.75925 0.94683 0.84505 0.0
C115 C 0.81807 0.9173 0.89307 0.0
C116 C 0.80155 0.85823 0.92109 0.0
C117 C 0.72626 0.83008 0.90461 0.0
C118 C 0.592 0.79699 0.76047 0.0
C119 C 0.51954 0.76948 0.73118 0.0
C120 C 0.51133 0.76105 0.64713 0.0
C121 C 0.57381 0.78393 0.59462 0.0
C122 C 0.65415 0.7857 0.62575 0.0
C123 C 0.66307 0.79609 0.70897 0.0
H124 H 0.55969 0.18319 0.16084 0.0
N125 N 0.58872 0.27237 1.04506 0.0
H126 H 0.43367 0.12285 0.1777 0.0
H127 H 0.4463 0.2849 0.96615 0.0
H128 H 0.31807 0.22602 0.9856 0.0
H129 H 0.66848 0.20965 0.93039 0.0
H130 H 0.7989 0.15344 0.94302 0.0
H131 H 0.68724 0.26444 0.18149 0.0
H132 H 0.81812 0.21032 0.19277 0.0
H133 H 0.5643 0.31605 0.19887 0.0
H134 H 0.60153 0.36833 0.94674 0.0
H135 H 0.56629 0.42152 0.23856 0.0
H136 H 0.59405 0.47443 0.98356 0.0
H137 H 0.51292 0.79423 0.30357 0.0
H138 H 0.38444 0.85091 0.28339 0.0
H139 H 0.33364 0.74641 1.06942 0.0
H140 H 0.46484 0.69268 1.08596 0.0
H141 H 0.59896 0.80357 1.10015 0.0
H142 H 0.72309 0.86446 1.07985 0.0
H143 H 0.85456 0.75038 0.24916 0.0
H144 H 0.72697 0.69183 0.27513 0.0
H145 H 0.50438 0.61597 0.28662 0.0
H146 H 0.50083 0.51064 0.24617 0.0
H147 H 0.65792 0.55467 1.03649 0.0
N148 N 0.57775 0.70847 0.20916 0.0
H149 H 0.65303 0.6604 1.07305 0.0
C150 C 0.51355 0.23798 1.06065 0.0
C151 C 0.50784 0.19295 0.12192 0.0
C152 C 0.43536 0.15862 0.13185 0.0
C153 C 0.36607 0.16975 1.08279 0.0
C154 C 0.3702 0.21672 1.02455 0.0
C155 C 0.44354 0.25 1.0131 0.0
C156 C 0.66754 0.24189 1.05426 0.0
C157 C 0.70133 0.21074 0.9875 0.0
C158 C 0.77621 0.17939 0.99441 0.0
C159 C 0.81986 0.17963 1.0679 0.0
C160 C 0.78719 0.2115 0.13452 0.0
C161 C 0.71156 0.24207 0.12808 0.0
C162 C 0.58556 0.33451 1.07003 0.0
C163 C 0.573 0.35053 0.15202 0.0
C164 C 0.57241 0.41131 0.17427 0.0
C165 C 0.58082 0.45767 0.11462 0.0
C166 C 0.59014 0.44087 1.03209 0.0
C167 C 0.59353 0.38007 1.01045 0.0
C168 C 0.49914 0.73892 0.19701 0.0
C169 C 0.47398 0.78321 0.25261 0.0
C170 C 0.40021 0.81502 0.24151 0.0
C171 C 0.34831 0.80199 0.17589 0.0
C172 C 0.37156 0.7563 0.12154 0.0
C173 C 0.44708 0.72589 0.13087 0.0
C174 C 0.65237 0.74341 0.19098 0.0
C175 C 0.65369 0.79152 0.13385 0.0
C176 C 0.72545 0.82607 0.12138 0.0
C177 C 0.79911 0.8118 0.16211 0.0
C178 C 0.79916 0.76211 0.21623 0.0
C179 C 0.72618 0.72892 0.23137 0.0
C180 C 0.57994 0.64603 0.18409 0.0
C181 C 0.53769 0.60259 0.23179 0.0
C182 C 0.53663 0.54205 0.20874 0.0
C183 C 0.57993 0.52292 0.13816 0.0
C184 C 0.62244 0.56693 1.09039 0.0
C185 C 0.62102 0.6278 0.11206 0.0
C186 C 0.0958 0.11585 0.88801 0.0
C187 C 0.09378 0.14889 0.29296 0.0
C188 C 0.07822 0.82854 0.93828 0.0
C189 C 0.07251 0.86028 0.3439 0.0
C190 C 0.27949 0.84364 0.15726 0.0
C191 C 0.29367 0.12855 1.08837 0.0
C192 C 0.87231 0.85212 0.15187 0.0
C193 C 0.8881 0.13644 1.08004 0.0
C194 C 0.8852 0.02737 0.30965 0.0
C195 C 0.28664 0.0148 0.30142 0.0
C196 C 0.88316 0.95125 0.93458 0.0
C197 C 0.29017 0.94543 0.9332 0.0
Eu198 Eu 0.08954 0.10582 1.0946 0.0
O199 O 0.15539 0.04764 0.17757 0.0
O200 O 1.01533 0.03888 1.03302 0.0
Eu201 Eu 0.23418 -0.01365 0.11496 0.0
Eu202 Eu 0.93237 -0.00636 0.11813 0.0
O203 O 0.15991 0.03659 1.03112 0.0
O204 O 1.01632 0.05138 0.17962 0.0
Eu205 Eu 0.08652 0.97487 0.96154 0.0
Eu206 Eu 0.08394 0.00173 0.27147 0.0
O207 O 0.15255 0.92642 1.05439 0.0
O208 O 0.15285 0.93841 0.19861 0.0
O209 O 1.00865 0.94211 0.2001 0.0
O210 O 1.01292 0.93181 1.05658 0.0
Eu211 Eu 0.07785 0.87175 0.13777 0.0
O212 O 0.0963 0.14224 0.96177 0.0
O213 O 0.09637 0.16352 0.21252 0.0
O214 O 0.07258 0.81407 1.01886 0.0
O215 O 0.0738 0.83387 0.27017 0.0
O216 O 0.30188 0.90131 0.14994 0.0
O217 O 0.3119 0.07022 1.09643 0.0
O218 O 0.85476 0.91062 0.14365 0.0
O219 O 0.86441 0.07904 1.08595 0.0
O220 O 0.96108 0.01824 0.33849 0.0
O221 O 0.21026 0.0114 0.33463 0.0
O222 O 0.96091 0.95136 0.90438 0.0
O223 O 0.21314 0.9467 0.90327 0.0
O224 O 0.94866 0.8282 0.15102 0.0
O225 O 0.20231 0.8221 0.14977 0.0
O226 O 0.96602 0.15679 1.08548 0.0
O227 O 0.21706 0.15157 1.0852 0.0
O228 O 0.08811 0.09368 0.32509 0.0
O229 O 0.07577 0.91981 0.35624 0.0
O230 O 0.09134 0.05629 0.87546 0.0
O231 O 0.0851 0.88376 0.90648 0.0
O232 O 0.31093 0.96372 1.00652 0.0
O233 O 0.30463 0.00901 0.22315 0.0
O234 O 0.85994 0.969 1.0085 0.0
O235 O 0.86334 0.02104 0.2322 0.0
loop_
_geom_bond_atom_site_label_1
_geom_bond_atom_site_label_2
_geom_bond_distance
_geom_bond_site_symmetry_2
_ccdc_geom_bond_type
H0 C27 0.929 . S
N1 C26 1.433 1_655 S
N1 C32 1.435 1_655 S
N1 C38 1.423 . S
H2 C28 0.930 . S
H3 C31 0.931 . S
H4 C30 0.929 . S
H5 C33 0.930 . S
H6 C34 0.932 . S
H7 C37 0.929 . S
H8 C36 0.931 . S
H9 C39 0.929 . S
H10 C43 0.932 . S
H11 C40 0.931 . S
H12 C42 0.929 . S
H13 C45 0.929 . S
H14 C46 0.930 . S
H15 C48 0.929 . S
H16 C49 0.931 . S
H17 C51 0.930 . S
H18 C52 0.932 . S
H19 C54 0.931 . S
H20 C55 0.929 . S
H21 C57 0.929 . S
H22 C58 0.931 . S
H23 C60 0.929 . S
N24 C44 1.433 1_655 S
N24 C50 1.435 1_655 S
N24 C56 1.423 . S
H25 C61 0.932 . S
C26 N1 1.433 1_455 S
C26 C27 1.363 1_455 S
C26 C31 1.370 . S
C27 H0 0.929 . S
C27 C26 1.363 1_655 S
C27 C28 1.385 . S
C28 H2 0.930 . S
C28 C27 1.385 . S
C28 C29 1.357 1_655 S
C29 C28 1.357 1_455 S
C29 C30 1.406 . S
C30 H4 0.929 . S
C30 C29 1.406 . S
C30 C31 1.391 . S
C31 H3 0.931 . S
C31 C26 1.370 . S
C31 C30 1.391 . S
C32 N1 1.435 1_455 S
C32 C33 1.358 . S
C32 C37 1.371 1_455 S
C33 H5 0.930 . S
C33 C32 1.358 . S
C33 C34 1.405 . S
C34 H6 0.932 . S
C34 C33 1.405 . S
C34 C35 1.383 . S
C35 C34 1.383 . S
C35 C36 1.393 1_455 S
C36 H8 0.931 . S
C36 C35 1.393 1_655 S
C36 C37 1.382 . S
C37 H7 0.929 . S
C37 C32 1.371 1_655 S
C37 C36 1.382 . S
C38 N1 1.423 . S
C38 C39 1.362 . S
C38 C43 1.388 1_655 S
C39 H9 0.929 . S
C39 C38 1.362 . S
C39 C40 1.376 . S
C40 H11 0.931 . S
C40 C39 1.376 . S
C40 C41 1.396 . S
C41 C40 1.396 . S
C41 C42 1.348 1_655 S
C41 C59 1.472 . S
C42 H12 0.929 . S
C42 C41 1.348 1_455 S
C42 C43 1.443 . S
C43 H10 0.932 . S
C43 C38 1.388 1_455 S
C43 C42 1.443 . S
C44 N24 1.433 1_455 S
C44 C45 1.363 1_455 S
C44 C49 1.370 . S
C45 H13 0.929 . S
C45 C44 1.363 1_655 S
C45 C46 1.385 . S
C46 H14 0.930 . S
C46 C45 1.385 . S
C46 C47 1.357 1_655 S
C47 C46 1.357 1_455 S
C47 C48 1.406 . S
C48 H15 0.929 . S
C48 C47 1.406 . S
C48 C49 1.391 . S
C49 H16 0.931 . S
C49 C44 1.370 . S
C49 C48 1.391 . S
C50 N24 1.435 1_455 S
C50 C51 1.358 . S
C50 C55 1.371 1_455 S
C51 H17 0.930 . S
C51 C50 1.358 . S
C51 C52 1.405 . S
C52 H18 0.932 . S
C52 C51 1.405 . S
C52 C53 1.383 . S
C53 C52 1.383 . S
C53 C54 1.393 1_455 S
C54 H19 0.931 . S
C54 C53 1.393 1_655 S
C54 C55 1.382 . S
C55 H20 0.929 . S
C55 C50 1.371 1_655 S
C55 C54 1.382 . S
C56 N24 1.423 . S
C56 C57 1.362 . S
C56 C61 1.388 1_655 S
C57 H21 0.929 . S
C57 C56 1.362 . S
C57 C58 1.376 . S
C58 H22 0.931 . S
C58 C57 1.376 . S
C58 C59 1.396 . S
C59 C41 1.472 . S
C59 C58 1.396 . S
C59 C60 1.348 1_655 S
C60 H23 0.929 . S
C60 C59 1.348 1_455 S
C60 C61 1.443 . S
C61 H25 0.932 . S
C61 C56 1.388 1_455 S
C61 C60 1.443 . S
H62 C89 0.929 . S
N63 C88 1.433 . S
N63 C94 1.435 . S
N63 C100 1.423 . S
H64 C90 0.930 . S
H65 C93 0.931 . S
H66 C92 0.929 . S
H67 C95 0.930 . S
H68 C96 0.932 . S
H69 C99 0.929 . S
H70 C98 0.931 . S
H71 C101 0.929 . S
H72 C105 0.932 1_545 S
H73 C102 0.931 . S
H74 C104 0.929 1_545 S
H75 C107 0.929 . S
H76 C108 0.930 . S
H77 C110 0.929 . S
H78 C111 0.931 . S
H79 C113 0.930 . S
H80 C114 0.932 . S
H81 C116 0.931 . S
H82 C117 0.929 . S
H83 C119 0.929 . S
H84 C120 0.931 . S
H85 C122 0.929 1_545 S
N86 C106 1.433 . S
N86 C112 1.435 . S
N86 C118 1.423 . S
H87 C123 0.932 1_545 S
C88 N63 1.433 . S
C88 C89 1.363 . S
C88 C93 1.370 1_565 S
C89 H62 0.929 . S
C89 C88 1.363 . S
C89 C90 1.385 . S
C90 H64 0.930 . S
C90 C89 1.385 . S
C90 C91 1.357 . S
C91 C90 1.357 . S
C91 C92 1.406 1_565 S
C92 H66 0.929 . S
C92 C91 1.406 1_545 S
C92 C93 1.391 . S
C93 H65 0.931 . S
C93 C88 1.370 1_545 S
C93 C92 1.391 . S
C94 N63 1.435 . S
C94 C95 1.358 1_565 S
C94 C99 1.371 . S
C95 H67 0.930 . S
C95 C94 1.358 1_545 S
C95 C96 1.405 . S
C96 H68 0.932 . S
C96 C95 1.405 . S
C96 C97 1.383 1_545 S
C97 C96 1.383 1_565 S
C97 C98 1.393 . S
C98 H70 0.931 . S
C98 C97 1.393 . S
C98 C99 1.382 . S
C99 H69 0.929 . S
C99 C94 1.371 . S
C99 C98 1.382 . S
C100 N63 1.423 . S
C100 C101 1.362 . S
C100 C105 1.388 . S
C101 H71 0.929 . S
C101 C100 1.362 . S
C101 C102 1.376 . S
C102 H73 0.931 . S
C102 C101 1.376 . S
C102 C103 1.396 . S
C103 C102 1.396 . S
C103 C104 1.348 . S
C103 C121 1.472 . S
C104 H74 0.929 1_565 S
C104 C103 1.348 . S
C104 C105 1.443 . S
C105 H72 0.932 1_565 S
C105 C100 1.388 . S
C105 C104 1.443 . S
C106 N86 1.433 . S
C106 C107 1.363 . S
C106 C111 1.370 1_565 S
C107 H75 0.929 . S
C107 C106 1.363 . S
C107 C108 1.385 . S
C108 H76 0.930 . S
C108 C107 1.385 . S
C108 C109 1.357 . S
C109 C108 1.357 . S
C109 C110 1.406 1_565 S
C110 H77 0.929 . S
C110 C109 1.406 1_545 S
C110 C111 1.391 . S
C111 H78 0.931 . S
C111 C106 1.370 1_545 S
C111 C110 1.391 . S
C112 N86 1.435 . S
C112 C113 1.358 1_565 S
C112 C117 1.371 . S
C113 H79 0.930 . S
C113 C112 1.358 1_545 S
C113 C114 1.405 . S
C114 H80 0.932 . S
C114 C113 1.405 . S
C114 C115 1.383 1_545 S
C115 C114 1.383 1_565 S
C115 C116 1.393 . S
C116 H81 0.931 . S
C116 C115 1.393 . S
C116 C117 1.382 . S
C117 H82 0.929 . S
C117 C112 1.371 . S
C117 C116 1.382 . S
C118 N86 1.423 . S
C118 C119 1.362 . S
C118 C123 1.388 . S
C119 H83 0.929 . S
C119 C118 1.362 . S
C119 C120 1.376 . S
C120 H84 0.931 . S
C120 C119 1.376 . S
C120 C121 1.396 . S
C121 C103 1.472 . S
C121 C120 1.396 . S
C121 C122 1.348 . S
C122 H85 0.929 1_565 S
C122 C121 1.348 . S
C122 C123 1.443 . S
C123 H87 0.932 1_565 S
C123 C118 1.388 . S
C123 C122 1.443 . S
H124 C151 0.929 . S
N125 C150 1.433 . S
N125 C156 1.435 . S
N125 C162 1.423 . S
H126 C152 0.930 . S
H127 C155 0.931 . S
H128 C154 0.929 . S
H129 C157 0.930 . S
H130 C158 0.932 . S
H131 C161 0.929 . S
H132 C160 0.931 . S
H133 C163 0.929 . S
H134 C167 0.932 1_556 S
H135 C164 0.931 . S
H136 C166 0.930 . S
H137 C169 0.929 . S
H138 C170 0.930 . S
H139 C172 0.929 . S
H140 C173 0.931 . S
H141 C175 0.930 . S
H142 C176 0.932 . S
H143 C178 0.931 . S
H144 C179 0.929 . S
H145 C181 0.929 . S
H146 C182 0.931 . S
H147 C184 0.930 . S
N148 C168 1.433 . S
N148 C174 1.435 . S
N148 C180 1.423 . S
H149 C185 0.932 1_556 S
C150 N125 1.433 . S
C150 C151 1.363 . S
C150 C155 1.370 1_554 S
C151 H124 0.929 . S
C151 C150 1.363 . S
C151 C152 1.385 . S
C152 H126 0.930 . S
C152 C151 1.385 . S
C152 C153 1.357 . S
C153 C152 1.357 . S
C153 C154 1.406 1_554 S
C154 H128 0.929 . S
C154 C153 1.406 1_556 S
C154 C155 1.391 . S
C155 H127 0.931 . S
C155 C150 1.370 1_556 S
C155 C154 1.391 . S
C156 N125 1.435 . S
C156 C157 1.358 1_554 S
C156 C161 1.371 . S
C157 H129 0.930 . S
C157 C156 1.358 1_556 S
C157 C158 1.405 . S
C158 H130 0.932 . S
C158 C157 1.405 . S
C158 C159 1.383 1_556 S
C159 C158 1.383 1_554 S
C159 C160 1.393 . S
C160 H132 0.931 . S
C160 C159 1.393 . S
C160 C161 1.382 . S
C161 H131 0.929 . S
C161 C156 1.371 . S
C161 C160 1.382 . S
C162 N125 1.423 . S
C162 C163 1.362 . S
C162 C167 1.388 . S
C163 H133 0.929 . S
C163 C162 1.362 . S
C163 C164 1.376 . S
C164 H135 0.931 . S
C164 C163 1.376 . S
C164 C165 1.396 . S
C165 C164 1.396 . S
C165 C166 1.348 . S
C165 C183 1.472 . S
C166 H136 0.930 . S
C166 C165 1.348 . S
C166 C167 1.443 . S
C167 H134 0.932 1_554 S
C167 C162 1.388 . S
C167 C166 1.443 . S
C168 N148 1.433 . S
C168 C169 1.363 . S
C168 C173 1.370 1_554 S
C169 H137 0.929 . S
C169 C168 1.363 . S
C169 C170 1.385 . S
C170 H138 0.930 . S
C170 C169 1.385 . S
C170 C171 1.357 . S
C171 C170 1.357 . S
C171 C172 1.406 1_554 S
C172 H139 0.929 . S
C172 C171 1.406 1_556 S
C172 C173 1.391 . S
C173 H140 0.931 . S
C173 C168 1.370 1_556 S
C173 C172 1.391 . S
C174 N148 1.435 . S
C174 C175 1.358 1_554 S
C174 C179 1.371 . S
C175 H141 0.930 . S
C175 C174 1.358 1_556 S
C175 C176 1.405 . S
C176 H142 0.932 . S
C176 C175 1.405 . S
C176 C177 1.383 1_556 S
C177 C176 1.383 1_554 S
C177 C178 1.393 . S
C178 H143 0.931 . S
C178 C177 1.393 . S
C178 C179 1.382 . S
C179 H144 0.929 . S
C179 C174 1.371 . S
C179 C178 1.382 . S
C180 N148 1.423 . S
C180 C181 1.362 . S
C180 C185 1.388 . S
C181 H145 0.929 . S
C181 C180 1.362 . S
C181 C182 1.376 . S
C182 H146 0.931 . S
C182 C181 1.376 . S
C182 C183 1.396 . S
C183 C165 1.472 . S
C183 C182 1.396 . S
C183 C184 1.348 . S
C184 H147 0.930 . S
C184 C183 1.348 . S
C184 C185 1.443 . S
C185 H149 0.932 1_554 S
C185 C180 1.388 . S
C185 C184 1.443 . S
C186 O212 1.283 . S
C186 O230 1.283 . S
C187 O213 1.283 . S
C187 O228 1.283 . S
C188 O214 1.283 . S
C188 O231 1.283 . S
C189 O215 1.283 . S
C189 O229 1.283 . S
C190 O216 1.283 . S
C190 O225 1.283 . S
C191 O217 1.283 . S
C191 O227 1.283 . S
C192 O218 1.283 . S
C192 O224 1.283 . S
C193 O219 1.283 . S
C193 O226 1.283 . S
C194 O220 1.283 . S
C194 O235 1.283 . S
C195 O221 1.283 . S
C195 O233 1.283 . S
C196 O222 1.283 . S
C196 O234 1.283 . S
C197 O223 1.283 . S
C197 O232 1.283 . S
Eu198 O199 2.370 . S
Eu198 O200 2.370 1_454 S
Eu198 O203 2.370 1_554 S
Eu198 O204 2.370 1_455 S
Eu198 O212 2.363 1_554 S
Eu198 O213 2.363 . S
Eu198 O226 2.363 1_455 S
Eu198 O227 2.363 . S
O199 Eu198 2.370 . S
O199 Eu201 2.370 . S
O199 Eu206 2.370 . S
O200 Eu198 2.370 1_656 S
O200 Eu202 2.370 1_556 S
O200 Eu205 2.370 1_655 S
Eu201 O199 2.370 . S
Eu201 O203 2.370 1_554 S
Eu201 O207 2.370 1_544 S
Eu201 O208 2.370 1_545 S
Eu201 O216 2.363 1_545 S
Eu201 O217 2.363 . S
Eu201 O232 2.363 1_554 S
Eu201 O233 2.363 . S
Eu202 O200 2.370 1_554 S
Eu202 O204 2.370 . S
Eu202 O209 2.370 1_545 S
Eu202 O210 2.370 1_544 S
Eu202 O218 2.363 1_545 S
Eu202 O219 2.363 . S
Eu202 O234 2.363 1_554 S
Eu202 O235 2.363 . S
O203 Eu198 2.370 1_556 S
O203 Eu201 2.370 1_556 S
O203 Eu205 2.370 . S
O204 Eu198 2.370 1_655 S
O204 Eu202 2.370 . S
O204 Eu206 2.370 1_655 S
Eu205 O200 2.370 1_455 S
Eu205 O203 2.370 . S
Eu205 O207 2.370 1_545 S
Eu205 O210 2.370 1_445 S
Eu205 O222 2.363 1_455 S
Eu205 O223 2.363 . S
Eu205 O230 2.363 . S
Eu205 O231 2.363 1_545 S
Eu206 O199 2.370 . S
Eu206 O204 2.370 1_455 S
Eu206 O208 2.370 1_545 S
Eu206 O209 2.370 1_445 S
Eu206 O220 2.363 1_455 S
Eu206 O221 2.363 . S
Eu206 O228 2.363 . S
Eu206 O229 2.363 1_545 S
O207 Eu201 2.370 1_566 S
O207 Eu205 2.370 1_565 S
O207 Eu211 2.370 1_556 S
O208 Eu201 2.370 1_565 S
O208 Eu206 2.370 1_565 S
O208 Eu211 2.370 . S
O209 Eu202 2.370 1_565 S
O209 Eu206 2.370 1_665 S
O209 Eu211 2.370 1_655 S
O210 Eu202 2.370 1_566 S
O210 Eu205 2.370 1_665 S
O210 Eu211 2.370 1_656 S
Eu211 O207 2.370 1_554 S
Eu211 O208 2.370 . S
Eu211 O209 2.370 1_455 S
Eu211 O210 2.370 1_454 S
Eu211 O214 2.363 1_554 S
Eu211 O215 2.363 . S
Eu211 O224 2.363 1_455 S
Eu211 O225 2.363 . S
O212 C186 1.283 . S
O212 Eu198 2.363 1_556 S
O213 C187 1.283 . S
O213 Eu198 2.363 . S
O214 C188 1.283 . S
O214 Eu211 2.363 1_556 S
O215 C189 1.283 . S
O215 Eu211 2.363 . S
O216 C190 1.283 . S
O216 Eu201 2.363 1_565 S
O217 C191 1.283 . S
O217 Eu201 2.363 . S
O218 C192 1.283 . S
O218 Eu202 2.363 1_565 S
O219 C193 1.283 . S
O219 Eu202 2.363 . S
O220 C194 1.283 . S
O220 Eu206 2.363 1_655 S
O221 C195 1.283 . S
O221 Eu206 2.363 . S
O222 C196 1.283 . S
O222 Eu205 2.363 1_655 S
O223 C197 1.283 . S
O223 Eu205 2.363 . S
O224 C192 1.283 . S
O224 Eu211 2.363 1_655 S
O225 C190 1.283 . S
O225 Eu211 2.363 . S
O226 C193 1.283 . S
O226 Eu198 2.363 1_655 S
O227 C191 1.283 . S
O227 Eu198 2.363 . S
O228 C187 1.283 . S
O228 Eu206 2.363 . S
O229 C189 1.283 . S
O229 Eu206 2.363 1_565 S
O230 C186 1.283 . S
O230 Eu205 2.363 . S
O231 C188 1.283 . S
O231 Eu205 2.363 1_565 S
O232 C197 1.283 . S
O232 Eu201 2.363 1_556 S
O233 C195 1.283 . S
O233 Eu201 2.363 . S
O234 C196 1.283 . S
O234 Eu202 2.363 1_556 S
O235 C194 1.283 . S
O235 Eu202 2.363 . S
C187 C53 3.252 . S
C194 C97 2.703 1_545 S
C189 C35 3.252 . S
C195 C91 1.793 1_545 S
C29 C188 2.739 . S
C197 C109 1.793 1_545 S
C47 C186 2.738 . S
C115 C196 2.704 1_565 S
C153 C191 1.969 . S
C171 C190 1.970 . S
C193 C159 2.512 . S
C192 C177 2.512 . S
