# Generated by pormake.
# Topology tsx, (6,3)-cn, num edge types: 1
# Building blocks:
#     Node 0, Type 0, BuildingBlock: CIFDUS_clean_sbu_1, # of connection points: 6
#     Node 1, Type 0, BuildingBlock: CIFDUS_clean_sbu_1, # of connection points: 6
#     Node 2, Type 1, BuildingBlock: PAMTOO_clean_linker_0, # of connection points: 3
#     Node 3, Type 1, BuildingBlock: PAMTOO_clean_linker_0, # of connection points: 3
#     Node 4, Type 1, BuildingBlock: PAMTOO_clean_linker_0, # of connection points: 3
#     Node 5, Type 1, BuildingBlock: PAMTOO_clean_linker_0, # of connection points: 3
#     Edge 6, Type (0, 1), None
#     Edge 7, Type (0, 1), None
#     Edge 8, Type (0, 1), None
#     Edge 9, Type (0, 1), None
#     Edge 10, Type (0, 1), None
#     Edge 11, Type (0, 1), None
#     Edge 12, Type (0, 1), None
#     Edge 13, Type (0, 1), None
#     Edge 14, Type (0, 1), None
#     Edge 15, Type (0, 1), None
#     Edge 16, Type (0, 1), None
#     Edge 17, Type (0, 1), None
# Relax obj value: 0.131
# Max RMSD: 0.131
# Mean RMSD: 0.128
data_MOF--net-tsx--node1-CIFDUS_clean_sbu_1--node2-PAMTOO_clean_linker_0--edge1-none
_symmetry_space_group_name_H-M    P1
_symmetry_Int_Tables_number       1
_symmetry_cell_setting            triclinic
loop_
_symmetry_equiv_pos_as_xyz
'x, y, z'
_cell_length_a     8.4470114
_cell_length_b     9.2894096
_cell_length_c     16.950599
_cell_angle_alpha  78.269688
_cell_angle_beta   86.828834
_cell_angle_gamma 90.194838
loop_
_atom_site_label
_atom_site_type_symbol
_atom_site_fract_x
_atom_site_fract_y
_atom_site_fract_z
_atom_type_partial_charge
O0 O 0.8939 0.33344 -0.05801 0.0
Mn1 Mn 0.0515 0.15576 -0.04735 0.0
O2 O 0.75576 0.22549 0.86281 0.0
Mn3 Mn 0.8547 1.04634 0.89393 0.0
O4 O 0.20012 0.97397 -0.05563 0.0
O5 O 0.24048 0.29799 -0.0619 0.0
Mn6 Mn 0.40071 0.18534 -0.0229 0.0
O7 O 0.06954 0.13673 0.07281 0.0
O8 O 0.43425 1.07279 0.89791 0.0
O9 O 0.0638 0.2032 0.82411 0.0
O10 O 0.99004 0.98968 0.81643 0.0
O11 O 0.45128 0.37558 -0.01527 0.0
O12 O 0.32759 0.08229 0.08119 0.0
C13 C 0.7505 0.89834 -0.00762 0.0
C14 C 0.78729 0.33965 0.88981 0.0
C15 C 0.32851 0.97406 0.89927 0.0
C16 C 0.30352 0.39836 -0.02888 0.0
C17 C 0.18942 0.09713 0.11386 0.0
C18 C 0.05701 0.1072 0.78125 0.0
O19 O 0.86605 0.98903 0.00225 0.0
O20 O 0.71212 0.9055 0.91966 0.0
O21 O 0.39405 0.83369 0.44204 0.0
Mn22 Mn 0.55167 0.656 0.45264 0.0
O23 O 0.25591 0.72564 0.36291 0.0
Mn24 Mn 0.35496 0.54655 0.39403 0.0
O25 O 0.70039 0.47429 0.4443 0.0
O26 O 0.74064 0.79825 0.43802 0.0
Mn27 Mn 0.90107 0.68586 0.47704 0.0
O28 O 0.56989 0.63691 0.57279 0.0
O29 O 0.93452 0.57322 0.39788 0.0
O30 O 0.56382 0.70349 0.32412 0.0
O31 O 0.49029 0.48989 0.31652 0.0
O32 O 0.95104 0.87647 0.48433 0.0
O33 O 0.82809 0.58297 0.58117 0.0
C34 C 0.25069 0.39848 0.49243 0.0
C35 C 0.28742 0.83985 0.38988 0.0
C36 C 0.82882 0.47445 0.39922 0.0
C37 C 0.80343 0.89948 0.47048 0.0
C38 C 0.68984 0.59752 0.61383 0.0
C39 C 0.55713 0.60743 0.2813 0.0
O40 O 0.36623 0.48917 0.50234 0.0
O41 O 0.21239 0.4057 0.4197 0.0
H42 H 0.31605 0.90271 0.23085 0.0
H43 H 0.02024 0.28159 0.18873 0.0
H44 H 0.15354 0.09353 0.42938 0.0
H45 H 0.78789 0.2543 0.37786 0.0
C46 C 0.85196 0.35706 0.34732 0.0
O47 O 1.01176 0.32816 0.33281 0.0
H48 H 0.79924 0.39697 0.28849 0.0
C49 C 0.24897 0.98564 0.25452 0.0
C50 C 0.23417 0.97952 0.33818 0.0
C51 C 0.17143 0.09175 0.20093 0.0
C52 C 0.08028 0.19784 0.23002 0.0
C53 C 0.07393 0.20453 0.31149 0.0
C54 C 0.15302 0.0938 0.36622 0.0
H55 H 0.26303 0.29911 0.66891 0.0
H56 H 0.83514 1.02511 0.69367 0.0
H57 H 0.9946 0.25652 0.46823 0.0
H58 H 0.58826 1.00011 0.50298 0.0
C59 C 0.70676 0.97634 0.52718 0.0
O60 O 0.77035 0.1076 0.54019 0.0
H61 H 0.68855 0.90048 0.58617 0.0
C62 C 0.16667 0.25264 0.64218 0.0
C63 C 0.14913 0.29264 0.5575 0.0
C64 C 0.05563 0.15001 0.69182 0.0
C65 C 0.92627 0.09405 0.65668 0.0
C66 C 0.90811 0.13277 0.57441 0.0
C67 C 0.01839 0.22857 0.52863 0.0
H68 H 0.81646 0.40294 0.73078 0.0
H69 H 0.52026 0.78157 0.68878 0.0
H70 H 0.65289 0.59293 0.92945 0.0
H71 H 0.28762 0.75383 0.87803 0.0
C72 C 0.35161 0.85659 0.84742 0.0
O73 O 0.51141 0.82778 0.8329 0.0
H74 H 0.29881 0.8964 0.78861 0.0
C75 C 0.74921 0.48574 0.75448 0.0
C76 C 0.7341 0.47937 0.83816 0.0
C77 C 0.67171 0.59191 0.70091 0.0
C78 C 0.58031 0.6978 0.73004 0.0
C79 C 0.57367 0.70424 0.81154 0.0
C80 C 0.65266 0.59344 0.86626 0.0
H81 H 0.76301 0.79928 0.16885 0.0
H82 H 0.33511 0.52526 0.19385 0.0
H83 H 0.49448 0.75619 -0.03172 0.0
H84 H 0.08708 0.49722 0.0047 0.0
C85 C 0.20694 0.47574 0.0276 0.0
O86 O 0.27035 0.60725 0.04033 0.0
H87 H 0.19091 0.40013 0.08681 0.0
C88 C 0.66663 0.75274 0.14217 0.0
C89 C 0.64902 0.79257 0.0575 0.0
C90 C 0.55563 0.65017 0.19188 0.0
C91 C 0.42622 0.59414 0.15681 0.0
C92 C 0.40804 0.63268 0.07453 0.0
C93 C 0.51829 0.72839 0.02869 0.0
loop_
_geom_bond_atom_site_label_1
_geom_bond_atom_site_label_2
_geom_bond_distance
_geom_bond_site_symmetry_2
_ccdc_geom_bond_type
O0 Mn1 2.163 1_654 S
O0 C14 1.244 1_554 S
Mn1 O0 2.163 1_456 S
Mn1 O4 2.160 1_545 S
Mn1 O5 2.221 1_556 S
Mn1 O7 2.163 1_556 S
Mn1 O9 2.160 . S
Mn1 O19 2.221 1_445 S
O2 Mn3 2.087 . S
O2 C14 1.256 . S
Mn3 O2 2.087 . S
Mn3 O10 2.089 . S
Mn3 O19 2.290 1_545 S
Mn3 O20 2.251 1_545 S
O4 Mn1 2.160 1_565 S
O4 C15 1.239 1_556 S
O5 Mn1 2.221 1_554 S
O5 Mn6 2.290 . S
O5 C16 1.278 . S
Mn6 O5 2.290 . S
Mn6 O8 2.089 1_545 S
Mn6 O11 2.251 . S
Mn6 O12 2.087 . S
O7 Mn1 2.163 1_554 S
O7 C17 1.244 . S
O8 Mn6 2.089 1_565 S
O8 C15 1.256 . S
O9 Mn1 2.160 . S
O9 C18 1.239 1_455 S
O10 Mn3 2.089 . S
O10 C18 1.256 . S
O11 Mn6 2.251 . S
O11 C16 1.241 . S
O12 Mn6 2.087 . S
O12 C17 1.256 . S
C13 O19 1.278 1_554 S
C13 O20 1.241 1_554 S
C14 O0 1.244 1_556 S
C14 O2 1.256 . S
C15 O4 1.239 1_554 S
C15 O8 1.256 . S
C16 O5 1.278 . S
C16 O11 1.241 . S
C17 O7 1.244 . S
C17 O12 1.256 . S
C18 O9 1.239 1_655 S
C18 O10 1.256 . S
O19 Mn1 2.221 1_665 S
O19 Mn3 2.290 1_565 S
O19 C13 1.278 1_556 S
O20 Mn3 2.251 1_565 S
O20 C13 1.241 1_556 S
O21 Mn22 2.163 . S
O21 C35 1.244 . S
Mn22 O21 2.163 . S
Mn22 O25 2.160 . S
Mn22 O26 2.221 . S
Mn22 O28 2.163 . S
Mn22 O30 2.160 . S
Mn22 O40 2.221 . S
O23 Mn24 2.087 . S
O23 C35 1.256 . S
Mn24 O23 2.087 . S
Mn24 O31 2.089 . S
Mn24 O40 2.290 . S
Mn24 O41 2.251 . S
O25 Mn22 2.160 . S
O25 C36 1.239 . S
O26 Mn22 2.221 . S
O26 Mn27 2.290 . S
O26 C37 1.278 . S
Mn27 O26 2.290 . S
Mn27 O29 2.089 . S
Mn27 O32 2.251 . S
Mn27 O33 2.087 . S
O28 Mn22 2.163 . S
O28 C38 1.244 . S
O29 Mn27 2.089 . S
O29 C36 1.256 . S
O30 Mn22 2.160 . S
O30 C39 1.239 . S
O31 Mn24 2.089 . S
O31 C39 1.256 . S
O32 Mn27 2.251 . S
O32 C37 1.241 . S
O33 Mn27 2.087 . S
O33 C38 1.256 . S
C34 O40 1.278 . S
C34 O41 1.241 . S
C35 O21 1.244 . S
C35 O23 1.256 . S
C36 O25 1.239 . S
C36 O29 1.256 . S
C37 O26 1.278 . S
C37 O32 1.241 . S
C38 O28 1.244 . S
C38 O33 1.256 . S
C39 O30 1.239 . S
C39 O31 1.256 . S
O40 Mn22 2.221 . S
O40 Mn24 2.290 . S
O40 C34 1.278 . S
O41 Mn24 2.251 . S
O41 C34 1.241 . S
H42 C49 0.929 . S
H43 C52 0.930 1_655 S
H44 C54 0.929 . S
H45 C46 0.969 . S
C46 H45 0.969 . S
C46 O47 1.550 . S
C46 H48 0.973 . S
O47 C46 1.550 . S
O47 C53 1.412 1_655 S
H48 C46 0.973 . S
C49 H42 0.929 . S
C49 C50 1.400 . S
C49 C51 1.364 . S
C50 C49 1.400 . S
C50 C54 1.377 . S
C51 C49 1.364 . S
C51 C52 1.374 1_565 S
C52 H43 0.930 1_455 S
C52 C51 1.374 1_545 S
C52 C53 1.383 . S
C53 O47 1.412 1_455 S
C53 C52 1.383 . S
C53 C54 1.394 1_545 S
C54 H44 0.929 . S
C54 C50 1.377 . S
C54 C53 1.394 1_565 S
H55 C62 0.929 . S
H56 C65 0.930 . S
H57 C67 0.929 . S
H58 C59 0.969 . S
C59 H58 0.969 . S
C59 O60 1.547 1_565 S
C59 H61 0.973 . S
O60 C59 1.547 1_545 S
O60 C66 1.418 . S
H61 C59 0.973 . S
C62 H55 0.929 . S
C62 C63 1.400 . S
C62 C64 1.364 . S
C63 C62 1.400 . S
C63 C67 1.377 . S
C64 C62 1.364 . S
C64 C65 1.374 1_455 S
C65 H56 0.930 . S
C65 C64 1.374 1_655 S
C65 C66 1.383 . S
C66 O60 1.418 . S
C66 C65 1.383 . S
C66 C67 1.394 1_655 S
C67 H57 0.929 . S
C67 C63 1.377 . S
C67 C66 1.394 1_455 S
H68 C75 0.929 . S
H69 C78 0.930 . S
H70 C80 0.929 . S
H71 C72 0.969 1_556 S
C72 H71 0.969 1_554 S
C72 O73 1.550 . S
C72 H74 0.973 1_554 S
O73 C72 1.550 . S
O73 C79 1.412 1_554 S
H74 C72 0.973 1_556 S
C75 H68 0.929 . S
C75 C76 1.400 . S
C75 C77 1.364 . S
C76 C75 1.400 . S
C76 C80 1.377 1_556 S
C77 C75 1.364 . S
C77 C78 1.374 . S
C78 H69 0.930 . S
C78 C77 1.374 . S
C78 C79 1.383 . S
C79 O73 1.412 1_556 S
C79 C78 1.383 . S
C79 C80 1.394 1_556 S
C80 H70 0.929 . S
C80 C76 1.377 1_554 S
C80 C79 1.394 1_554 S
H81 C88 0.929 . S
H82 C91 0.930 . S
H83 C93 0.929 . S
H84 C85 0.969 . S
C85 H84 0.969 . S
C85 O86 1.550 1_554 S
C85 H87 0.973 . S
O86 C85 1.550 1_556 S
O86 C92 1.412 1_556 S
H87 C85 0.973 . S
C88 H81 0.929 . S
C88 C89 1.400 . S
C88 C90 1.364 . S
C89 C88 1.400 . S
C89 C93 1.377 1_554 S
C90 C88 1.364 . S
C90 C91 1.374 . S
C91 H82 0.930 . S
C91 C90 1.374 . S
C91 C92 1.383 . S
C92 O86 1.412 1_554 S
C92 C91 1.383 . S
C92 C93 1.394 1_554 S
C93 H83 0.929 . S
C93 C89 1.377 1_556 S
C93 C92 1.394 1_556 S
C85 C16 1.529 . S
C15 C72 1.623 . S
C13 C89 1.212 . S
C14 C76 1.364 . S
C37 C59 1.529 . S
C36 C46 1.623 . S
C63 C34 1.212 . S
C50 C35 1.364 . S
C17 C51 1.624 1_545 S
C18 C64 1.498 1_655 S
C77 C38 1.624 . S
C39 C90 1.497 . S
