# Generated by pormake.
# Topology tsx, (6,3)-cn, num edge types: 1
# Building blocks:
#     Node 0, Type 0, BuildingBlock: LEVNOQ01_clean_sbu_1, # of connection points: 6
#     Node 1, Type 0, BuildingBlock: LEVNOQ01_clean_sbu_1, # of connection points: 6
#     Node 2, Type 1, BuildingBlock: MIDCAF_clean_linker_0, # of connection points: 3
#     Node 3, Type 1, BuildingBlock: MIDCAF_clean_linker_0, # of connection points: 3
#     Node 4, Type 1, BuildingBlock: MIDCAF_clean_linker_0, # of connection points: 3
#     Node 5, Type 1, BuildingBlock: MIDCAF_clean_linker_0, # of connection points: 3
#     Edge 6, Type (0, 1), None
#     Edge 7, Type (0, 1), None
#     Edge 8, Type (0, 1), None
#     Edge 9, Type (0, 1), None
#     Edge 10, Type (0, 1), None
#     Edge 11, Type (0, 1), None
#     Edge 12, Type (0, 1), None
#     Edge 13, Type (0, 1), None
#     Edge 14, Type (0, 1), None
#     Edge 15, Type (0, 1), None
#     Edge 16, Type (0, 1), None
#     Edge 17, Type (0, 1), None
# Relax obj value: 0.132
# Max RMSD: 0.158
# Mean RMSD: 0.120
data_MOF--net-tsx--node1-LEVNOQ01_clean_sbu_1--node2-MIDCAF_clean_linker_0--edge1-none
_symmetry_space_group_name_H-M    P1
_symmetry_Int_Tables_number       1
_symmetry_cell_setting            triclinic
loop_
_symmetry_equiv_pos_as_xyz
'x, y, z'
_cell_length_a     12.112647
_cell_length_b     14.930988
_cell_length_c     26.254777
_cell_angle_alpha  96.234388
_cell_angle_beta   91.697311
_cell_angle_gamma 91.650434
loop_
_atom_site_label
_atom_site_type_symbol
_atom_site_fract_x
_atom_site_fract_y
_atom_site_fract_z
_atom_type_partial_charge
O0 O 0.2384 0.01799 0.07206 0.0
Mg1 Mg 0.28938 0.0389 -0.0028 0.0
O2 O 0.05694 0.02177 0.05647 0.0
Mg3 Mg 0.03892 0.0163 -0.03116 0.0
O4 O 0.18109 0.12195 -0.03163 0.0
O5 O 0.36039 0.1576 -0.01935 0.0
O6 O 0.0304 0.00891 0.88085 0.0
O7 O 0.93556 0.14958 -0.02702 0.0
Mg8 Mg 0.80348 -0.0093 0.93169 0.0
O9 O 0.89059 0.91268 -0.02377 0.0
O10 O 0.85523 -0.01902 0.85647 0.0
O11 O 0.75719 0.11668 -0.03407 0.0
O12 O 0.71357 0.88403 0.94865 0.0
C13 C 0.24424 0.86489 0.94521 0.0
C14 C 0.13961 0.01614 0.0872 0.0
C15 C 0.26215 0.18055 -0.03181 0.0
C16 C 0.95531 -0.00678 0.84589 0.0
C17 C 0.83553 0.17474 -0.02711 0.0
C18 C 0.79943 0.86351 -0.02529 0.0
O19 O 0.31825 0.92639 0.94772 0.0
O20 O 0.14504 0.88254 0.95766 0.0
O21 O 0.73844 0.51805 0.57207 0.0
Mg22 Mg 0.78941 0.53895 0.4972 0.0
O23 O 0.55698 0.52181 0.55647 0.0
Mg24 Mg 0.53893 0.51634 0.46884 0.0
O25 O 0.68111 0.62199 0.46837 0.0
O26 O 0.8604 0.65765 0.48063 0.0
O27 O 0.53038 0.50894 0.38086 0.0
O28 O 0.43558 0.64963 0.47298 0.0
Mg29 Mg 0.30349 0.49077 0.43173 0.0
O30 O 0.39062 0.41271 0.47624 0.0
O31 O 0.35519 0.48108 0.3565 0.0
O32 O 0.25721 0.61673 0.46599 0.0
O33 O 0.21358 0.38409 0.44868 0.0
C34 C 0.74427 0.36493 0.44522 0.0
C35 C 0.63965 0.51619 0.5872 0.0
C36 C 0.76216 0.68059 0.46818 0.0
C37 C 0.45526 0.4933 0.34591 0.0
C38 C 0.33555 0.67479 0.47293 0.0
C39 C 0.29945 0.36355 0.47473 0.0
O40 O 0.81828 0.42643 0.44773 0.0
O41 O 0.64506 0.38258 0.45766 0.0
C42 C 0.7515 0.21943 0.38877 0.0
C43 C 0.78223 0.27247 0.4346 0.0
C44 C 0.87257 0.24778 0.46415 0.0
C45 C 0.93675 0.17591 0.4463 0.0
H46 H 0.08977 0.90294 0.47571 0.0
H47 H 0.17437 0.78029 0.51485 0.0
H48 H 0.43027 0.77256 0.4039 0.0
H49 H 0.34167 0.89215 0.36267 0.0
H50 H 0.25776 0.94619 0.2471 0.0
H51 H 0.28456 0.95659 0.15638 0.0
H52 H 0.95172 0.04915 0.13996 0.0
H53 H 0.92504 0.03928 0.2307 0.0
H54 H 0.79455 0.1095 0.33409 0.0
H55 H 0.68359 0.2385 0.36486 0.0
H56 H 0.89925 0.28902 0.49915 0.0
H57 H 0.01124 0.16452 0.46753 0.0
N58 N 0.06334 0.01911 0.40535 0.0
N59 N 0.14725 0.95353 0.33165 0.0
N60 N 0.00048 0.051 0.32433 0.0
C61 C 0.13948 0.96287 0.38349 0.0
C62 C 0.07798 -0.00233 0.30198 0.0
C63 C 0.99255 0.06248 0.37583 0.0
C64 C 0.20647 0.90566 0.41492 0.0
C65 C 0.16503 0.87685 0.46014 0.0
C66 C 0.21461 0.80727 0.48323 0.0
C67 C 0.3093 0.76732 0.46272 0.0
C68 C 0.35828 0.80313 0.42112 0.0
C69 C 0.30651 0.87075 0.397 0.0
C70 C 0.08988 -0.00714 0.24611 0.0
C71 C 0.18998 0.96782 0.22403 0.0
C72 C 0.2056 0.97462 0.17218 0.0
C73 C 0.12089 0.00544 0.14138 0.0
C74 C 0.01886 0.02615 0.16289 0.0
C75 C 0.00371 0.02043 0.21486 0.0
C76 C 0.91186 0.1264 0.39885 0.0
C77 C 0.81607 0.14666 0.37097 0.0
C78 C 0.70083 0.8178 0.51626 0.0
C79 C 0.74406 0.7775 0.47069 0.0
C80 C 0.81476 0.82911 0.4433 0.0
C81 C 0.8595 0.91138 0.4664 0.0
H82 H 0.20587 0.06663 0.47861 0.0
H83 H 0.30227 0.18679 0.43918 0.0
H84 H 0.25488 0.36986 0.57484 0.0
H85 H 0.15301 0.25105 0.61264 0.0
H86 H 0.13224 0.11089 0.71349 0.0
H87 H 0.11267 0.09549 0.80475 0.0
H88 H 0.85712 0.8893 0.76663 0.0
H89 H 0.87678 0.90294 0.67646 0.0
H90 H 0.72533 0.92159 0.57863 0.0
H91 H 0.64509 0.77972 0.53798 0.0
H92 H 0.84833 0.8 0.40765 0.0
H93 H 0.92193 0.94456 0.44701 0.0
N94 N 0.00411 0.04575 0.5322 0.0
N95 N 0.08386 0.0771 0.61542 0.0
N96 N 0.92388 -0.0145 0.60135 0.0
C97 C 0.08466 0.08773 0.56483 0.0
C98 C 0.00458 0.02466 0.63363 0.0
C99 C 0.92157 -0.00437 0.55085 0.0
C100 C 0.16713 0.15103 0.54702 0.0
C101 C 0.21719 0.13211 0.49985 0.0
C102 C 0.27492 0.20004 0.47813 0.0
C103 C 0.28666 0.28686 0.50443 0.0
C104 C 0.24866 0.30273 0.55439 0.0
C105 C 0.18927 0.23509 0.57565 0.0
C106 C 0.00403 0.00982 0.68796 0.0
C107 C 0.07326 0.06132 0.72466 0.0
C108 C 0.06267 0.05227 0.77667 0.0
C109 C 0.98229 -0.00772 0.79212 0.0
C110 C 0.91836 0.93708 0.75536 0.0
C111 C 0.92947 0.94537 0.70376 0.0
C112 C 0.8377 0.9407 0.51743 0.0
C113 C 0.74862 0.89867 0.53997 0.0
C114 C 0.25147 0.71938 0.88877 0.0
C115 C 0.28221 0.77243 0.9346 0.0
C116 C 0.37254 0.74774 -0.03585 0.0
C117 C 0.43674 0.67588 0.9463 0.0
H118 H 0.58978 0.40291 -0.0243 0.0
H119 H 0.67437 0.28024 0.01483 0.0
H120 H 0.93027 0.27253 0.90388 0.0
H121 H 0.84168 0.39214 0.86266 0.0
H122 H 0.75781 0.44624 0.7471 0.0
H123 H 0.78462 0.45667 0.65639 0.0
H124 H 0.45175 0.54918 0.63996 0.0
H125 H 0.42506 0.53928 0.7307 0.0
H126 H 0.29454 0.60946 0.83409 0.0
H127 H 0.18356 0.73846 0.86486 0.0
H128 H 0.39923 0.78898 -0.00086 0.0
H129 H 0.51122 0.6645 -0.03247 0.0
N130 N 0.56333 0.51908 0.90535 0.0
N131 N 0.64727 0.45354 0.83165 0.0
N132 N 0.50049 0.551 0.82433 0.0
C133 C 0.63949 0.46286 0.88349 0.0
C134 C 0.578 0.49768 0.80198 0.0
C135 C 0.49254 0.56245 0.87583 0.0
C136 C 0.70647 0.40564 0.91491 0.0
C137 C 0.66503 0.37682 0.96013 0.0
C138 C 0.7146 0.30723 -0.01679 0.0
C139 C 0.80929 0.26727 -0.0373 0.0
C140 C 0.85828 0.3031 0.92111 0.0
C141 C 0.80651 0.37073 0.89699 0.0
C142 C 0.58991 0.49289 0.74611 0.0
C143 C 0.69003 0.46787 0.72404 0.0
C144 C 0.70565 0.47468 0.67219 0.0
C145 C 0.62093 0.5055 0.64138 0.0
C146 C 0.5189 0.52618 0.66289 0.0
C147 C 0.50374 0.52045 0.71486 0.0
C148 C 0.41184 0.62637 0.89885 0.0
C149 C 0.31605 0.64662 0.87097 0.0
C150 C 0.20082 0.31777 0.01626 0.0
C151 C 0.24406 0.27746 -0.0293 0.0
C152 C 0.31477 0.32906 0.9433 0.0
C153 C 0.35951 0.41133 -0.0336 0.0
H154 H 0.70586 0.56659 -0.02138 0.0
H155 H 0.80227 0.68674 0.93918 0.0
H156 H 0.75485 0.86984 0.07482 0.0
H157 H 0.65298 0.75105 0.11263 0.0
H158 H 0.63223 0.61087 0.21349 0.0
H159 H 0.61267 0.59549 0.30475 0.0
H160 H 0.35695 0.38944 0.26665 0.0
H161 H 0.3766 0.40306 0.17648 0.0
H162 H 0.2253 0.42157 0.07862 0.0
H163 H 0.14508 0.27969 0.03798 0.0
H164 H 0.34836 0.29994 0.90766 0.0
H165 H 0.42194 0.44451 0.94701 0.0
N166 N 0.50409 0.54572 0.03219 0.0
N167 N 0.58381 0.57711 0.11542 0.0
N168 N 0.42383 0.48551 0.10136 0.0
C169 C 0.58462 0.58772 0.06483 0.0
C170 C 0.50451 0.52468 0.13363 0.0
C171 C 0.42154 0.49561 0.05085 0.0
C172 C 0.66711 0.65101 0.04702 0.0
C173 C 0.71717 0.63208 -0.00014 0.0
C174 C 0.77491 0.7 -0.02187 0.0
C175 C 0.78664 0.78683 0.00442 0.0
C176 C 0.74863 0.80271 0.05438 0.0
C177 C 0.68924 0.73507 0.07564 0.0
C178 C 0.50394 0.50987 0.18797 0.0
C179 C 0.57321 0.56134 0.22466 0.0
C180 C 0.56263 0.5523 0.27668 0.0
C181 C 0.48221 0.49235 0.29213 0.0
C182 C 0.41823 0.43719 0.25538 0.0
C183 C 0.42933 0.44546 0.20377 0.0
C184 C 0.33769 0.44067 0.01743 0.0
C185 C 0.24861 0.39864 0.03997 0.0
loop_
_geom_bond_atom_site_label_1
_geom_bond_atom_site_label_2
_geom_bond_distance
_geom_bond_site_symmetry_2
_ccdc_geom_bond_type
O0 Mg1 1.990 . S
O0 C14 1.253 . S
Mg1 O0 1.990 . S
Mg1 O4 2.180 . S
Mg1 O5 2.117 . S
Mg1 O19 2.030 1_545 S
O2 Mg3 2.060 1_554 S
O2 C14 1.260 . S
Mg3 O2 2.060 1_556 S
Mg3 O4 2.097 1_556 S
Mg3 O6 2.091 . S
Mg3 O7 2.072 1_456 S
Mg3 O9 2.100 1_445 S
Mg3 O20 2.079 1_545 S
O4 Mg1 2.180 . S
O4 Mg3 2.097 1_554 S
O4 C15 1.279 . S
O5 Mg1 2.117 . S
O5 C15 1.250 . S
O6 Mg3 2.091 . S
O6 C16 1.264 . S
O7 Mg3 2.072 1_654 S
O7 C17 1.260 1_554 S
Mg8 O9 2.180 . S
Mg8 O10 2.030 1_565 S
Mg8 O11 1.990 1_565 S
Mg8 O12 2.117 . S
O9 Mg3 2.100 1_665 S
O9 Mg8 2.180 . S
O9 C18 1.279 1_556 S
O10 Mg8 2.030 1_545 S
O10 C16 1.248 1_655 S
O11 Mg8 1.990 1_545 S
O11 C17 1.253 . S
O12 Mg8 2.117 . S
O12 C18 1.250 1_556 S
C13 O19 1.248 . S
C13 O20 1.264 1_554 S
C14 O0 1.253 . S
C14 O2 1.260 . S
C15 O4 1.279 . S
C15 O5 1.250 . S
C16 O6 1.264 . S
C16 O10 1.248 1_455 S
C17 O7 1.260 1_556 S
C17 O11 1.253 . S
C18 O9 1.279 1_554 S
C18 O12 1.250 1_554 S
O19 Mg1 2.030 1_565 S
O19 C13 1.248 . S
O20 Mg3 2.079 1_565 S
O20 C13 1.264 1_556 S
O21 Mg22 1.990 . S
O21 C35 1.253 . S
Mg22 O21 1.990 . S
Mg22 O25 2.180 . S
Mg22 O26 2.117 . S
Mg22 O40 2.030 . S
O23 Mg24 2.072 . S
O23 C35 1.260 . S
Mg24 O23 2.072 . S
Mg24 O25 2.099 . S
Mg24 O27 2.079 . S
Mg24 O28 2.072 . S
Mg24 O30 2.099 . S
Mg24 O41 2.079 . S
O25 Mg22 2.180 . S
O25 Mg24 2.099 . S
O25 C36 1.279 . S
O26 Mg22 2.117 . S
O26 C36 1.250 . S
O27 Mg24 2.079 . S
O27 C37 1.264 . S
O28 Mg24 2.072 . S
O28 C38 1.260 . S
Mg29 O30 2.180 . S
Mg29 O31 2.030 . S
Mg29 O32 1.990 . S
Mg29 O33 2.117 . S
O30 Mg24 2.099 . S
O30 Mg29 2.180 . S
O30 C39 1.279 . S
O31 Mg29 2.030 . S
O31 C37 1.248 . S
O32 Mg29 1.990 . S
O32 C38 1.253 . S
O33 Mg29 2.117 . S
O33 C39 1.250 . S
C34 O40 1.248 . S
C34 O41 1.264 . S
C35 O21 1.253 . S
C35 O23 1.260 . S
C36 O25 1.279 . S
C36 O26 1.250 . S
C37 O27 1.264 . S
C37 O31 1.248 . S
C38 O28 1.260 . S
C38 O32 1.253 . S
C39 O30 1.279 . S
C39 O33 1.250 . S
O40 Mg22 2.030 . S
O40 C34 1.248 . S
O41 Mg24 2.079 . S
O41 C34 1.264 . S
C42 C43 1.384 . S
C42 H55 0.947 . S
C42 C77 1.382 . S
C43 C42 1.384 . S
C43 C44 1.378 . S
C44 C43 1.378 . S
C44 C45 1.378 . S
C44 H56 0.952 . S
C45 C44 1.378 . S
C45 H57 0.950 . S
C45 C76 1.383 . S
H46 C65 0.947 . S
H47 C66 0.946 . S
H48 C68 0.953 . S
H49 C69 0.945 . S
H50 C71 0.952 . S
H51 C72 0.949 . S
H52 C74 0.950 1_655 S
H53 C75 0.948 1_655 S
H54 C77 0.951 . S
H55 C42 0.947 . S
H56 C44 0.952 . S
H57 C45 0.950 . S
N58 C61 1.382 1_545 S
N58 C63 1.363 . S
N59 C61 1.371 . S
N59 C62 1.372 1_565 S
N60 C62 1.361 . S
N60 C63 1.377 . S
C61 N58 1.382 1_565 S
C61 N59 1.371 . S
C61 C64 1.480 . S
C62 N59 1.372 1_545 S
C62 N60 1.361 . S
C62 C70 1.457 . S
C63 N58 1.363 . S
C63 N60 1.377 . S
C63 C76 1.479 1_455 S
C64 C61 1.480 . S
C64 C65 1.383 . S
C64 C69 1.385 . S
C65 H46 0.947 . S
C65 C64 1.383 . S
C65 C66 1.388 . S
C66 H47 0.946 . S
C66 C65 1.388 . S
C66 C67 1.384 . S
C67 C66 1.384 . S
C67 C68 1.377 . S
C68 H48 0.953 . S
C68 C67 1.377 . S
C68 C69 1.369 . S
C69 H49 0.945 . S
C69 C64 1.385 . S
C69 C68 1.369 . S
C70 C62 1.457 . S
C70 C71 1.372 1_545 S
C70 C75 1.364 . S
C71 H50 0.952 . S
C71 C70 1.372 1_565 S
C71 C72 1.389 . S
C72 H51 0.949 . S
C72 C71 1.389 . S
C72 C73 1.387 . S
C73 C72 1.387 . S
C73 C74 1.372 1_565 S
C74 H52 0.950 1_455 S
C74 C73 1.372 1_545 S
C74 C75 1.379 . S
C75 H53 0.948 1_455 S
C75 C70 1.364 . S
C75 C74 1.379 . S
C76 C45 1.383 . S
C76 C63 1.479 1_655 S
C76 C77 1.398 . S
C77 C42 1.382 . S
C77 H54 0.951 . S
C77 C76 1.398 . S
C78 C79 1.384 . S
C78 H91 0.947 . S
C78 C113 1.382 . S
C79 C78 1.384 . S
C79 C80 1.378 . S
C80 C79 1.378 . S
C80 C81 1.378 . S
C80 H92 0.952 . S
C81 C80 1.378 . S
C81 H93 0.950 . S
C81 C112 1.383 . S
H82 C101 0.947 . S
H83 C102 0.946 . S
H84 C104 0.953 . S
H85 C105 0.945 . S
H86 C107 0.952 . S
H87 C108 0.949 . S
H88 C110 0.950 1_565 S
H89 C111 0.948 1_565 S
H90 C113 0.951 . S
H91 C78 0.947 . S
H92 C80 0.952 . S
H93 C81 0.950 . S
N94 C97 1.382 . S
N94 C99 1.363 1_455 S
N95 C97 1.371 . S
N95 C98 1.372 . S
N96 C98 1.361 1_655 S
N96 C99 1.377 . S
C97 N94 1.382 . S
C97 N95 1.371 . S
C97 C100 1.480 . S
C98 N95 1.372 . S
C98 N96 1.361 1_455 S
C98 C106 1.457 . S
C99 N94 1.363 1_655 S
C99 N96 1.377 . S
C99 C112 1.479 1_545 S
C100 C97 1.480 . S
C100 C101 1.383 . S
C100 C105 1.385 . S
C101 H82 0.947 . S
C101 C100 1.383 . S
C101 C102 1.388 . S
C102 H83 0.946 . S
C102 C101 1.388 . S
C102 C103 1.384 . S
C103 C102 1.384 . S
C103 C104 1.377 . S
C104 H84 0.953 . S
C104 C103 1.377 . S
C104 C105 1.369 . S
C105 H85 0.945 . S
C105 C100 1.385 . S
C105 C104 1.369 . S
C106 C98 1.457 . S
C106 C107 1.372 . S
C106 C111 1.364 1_455 S
C107 H86 0.952 . S
C107 C106 1.372 . S
C107 C108 1.389 . S
C108 H87 0.949 . S
C108 C107 1.389 . S
C108 C109 1.387 . S
C109 C108 1.387 . S
C109 C110 1.372 1_455 S
C110 H88 0.950 1_545 S
C110 C109 1.372 1_655 S
C110 C111 1.379 . S
C111 H89 0.948 1_545 S
C111 C106 1.364 1_655 S
C111 C110 1.379 . S
C112 C81 1.383 . S
C112 C99 1.479 1_565 S
C112 C113 1.398 . S
C113 C78 1.382 . S
C113 H90 0.951 . S
C113 C112 1.398 . S
C114 C115 1.384 1_556 S
C114 H127 0.947 . S
C114 C149 1.382 . S
C115 C114 1.384 1_554 S
C115 C116 1.378 . S
C116 C115 1.378 . S
C116 C117 1.378 . S
C116 H128 0.952 . S
C117 C116 1.378 . S
C117 H129 0.950 . S
C117 C148 1.383 1_554 S
H118 C137 0.947 . S
H119 C138 0.946 . S
H120 C140 0.953 . S
H121 C141 0.945 . S
H122 C143 0.952 . S
H123 C144 0.949 . S
H124 C146 0.950 . S
H125 C147 0.948 . S
H126 C149 0.951 . S
H127 C114 0.947 . S
H128 C116 0.952 . S
H129 C117 0.950 . S
N130 C133 1.382 . S
N130 C135 1.363 . S
N131 C133 1.371 . S
N131 C134 1.372 . S
N132 C134 1.361 . S
N132 C135 1.377 . S
C133 N130 1.382 . S
C133 N131 1.371 . S
C133 C136 1.480 . S
C134 N131 1.372 . S
C134 N132 1.361 . S
C134 C142 1.457 . S
C135 N130 1.363 . S
C135 N132 1.377 . S
C135 C148 1.479 . S
C136 C133 1.480 . S
C136 C137 1.383 1_556 S
C136 C141 1.385 . S
C137 H118 0.947 . S
C137 C136 1.383 1_554 S
C137 C138 1.388 . S
C138 H119 0.946 . S
C138 C137 1.388 . S
C138 C139 1.384 . S
C139 C138 1.384 . S
C139 C140 1.377 1_554 S
C140 H120 0.953 . S
C140 C139 1.377 1_556 S
C140 C141 1.369 . S
C141 H121 0.945 . S
C141 C136 1.385 . S
C141 C140 1.369 . S
C142 C134 1.457 . S
C142 C143 1.372 . S
C142 C147 1.364 . S
C143 H122 0.952 . S
C143 C142 1.372 . S
C143 C144 1.389 . S
C144 H123 0.949 . S
C144 C143 1.389 . S
C144 C145 1.387 . S
C145 C144 1.387 . S
C145 C146 1.372 . S
C146 H124 0.950 . S
C146 C145 1.372 . S
C146 C147 1.379 . S
C147 H125 0.948 . S
C147 C142 1.364 . S
C147 C146 1.379 . S
C148 C117 1.383 1_556 S
C148 C135 1.479 . S
C148 C149 1.398 . S
C149 C114 1.382 . S
C149 H126 0.951 . S
C149 C148 1.398 . S
C150 C151 1.384 1_554 S
C150 H163 0.947 . S
C150 C185 1.382 . S
C151 C150 1.384 1_556 S
C151 C152 1.378 . S
C152 C151 1.378 . S
C152 C153 1.378 . S
C152 H164 0.952 . S
C153 C152 1.378 . S
C153 H165 0.950 . S
C153 C184 1.383 1_556 S
H154 C173 0.947 . S
H155 C174 0.946 . S
H156 C176 0.953 . S
H157 C177 0.945 . S
H158 C179 0.952 . S
H159 C180 0.949 . S
H160 C182 0.950 . S
H161 C183 0.948 . S
H162 C185 0.951 . S
H163 C150 0.947 . S
H164 C152 0.952 . S
H165 C153 0.950 . S
N166 C169 1.382 . S
N166 C171 1.363 . S
N167 C169 1.371 . S
N167 C170 1.372 . S
N168 C170 1.361 . S
N168 C171 1.377 . S
C169 N166 1.382 . S
C169 N167 1.371 . S
C169 C172 1.480 . S
C170 N167 1.372 . S
C170 N168 1.361 . S
C170 C178 1.457 . S
C171 N166 1.363 . S
C171 N168 1.377 . S
C171 C184 1.479 . S
C172 C169 1.480 . S
C172 C173 1.383 1_554 S
C172 C177 1.385 . S
C173 H154 0.947 . S
C173 C172 1.383 1_556 S
C173 C174 1.388 . S
C174 H155 0.946 . S
C174 C173 1.388 . S
C174 C175 1.384 . S
C175 C174 1.384 . S
C175 C176 1.377 1_556 S
C176 H156 0.953 . S
C176 C175 1.377 1_554 S
C176 C177 1.369 . S
C177 H157 0.945 . S
C177 C172 1.385 . S
C177 C176 1.369 . S
C178 C170 1.457 . S
C178 C179 1.372 . S
C178 C183 1.364 . S
C179 H158 0.952 . S
C179 C178 1.372 . S
C179 C180 1.389 . S
C180 H159 0.949 . S
C180 C179 1.389 . S
C180 C181 1.387 . S
C181 C180 1.387 . S
C181 C182 1.372 . S
C182 H160 0.950 . S
C182 C181 1.372 . S
C182 C183 1.379 . S
C183 H161 0.948 . S
C183 C178 1.364 . S
C183 C182 1.379 . S
C184 C153 1.383 1_554 S
C184 C171 1.479 . S
C184 C185 1.398 . S
C185 C150 1.382 . S
C185 H162 0.951 . S
C185 C184 1.398 . S
C151 C15 2.338 1_556 S
C13 C115 1.980 . S
C18 C175 1.309 1_554 S
C17 C139 1.585 1_556 S
C36 C79 2.338 . S
C34 C43 1.980 . S
C103 C39 1.309 . S
C67 C38 1.585 . S
C14 C73 1.556 1_545 S
C16 C109 1.409 . S
C145 C35 1.556 . S
C37 C181 1.409 . S
