# Generated by pormake.
# Topology sit, (3,6)-cn, num edge types: 1
# Building blocks:
#     Node 0, Type 0, BuildingBlock: BETDIP_clean_linker_0, # of connection points: 3
#     Node 1, Type 0, BuildingBlock: BETDIP_clean_linker_0, # of connection points: 3
#     Node 2, Type 0, BuildingBlock: BETDIP_clean_linker_0, # of connection points: 3
#     Node 3, Type 0, BuildingBlock: BETDIP_clean_linker_0, # of connection points: 3
#     Node 4, Type 1, BuildingBlock: MIDCAF_clean_sbu_0, # of connection points: 6
#     Node 5, Type 1, BuildingBlock: MIDCAF_clean_sbu_0, # of connection points: 6
#     Edge 6, Type (0, 1), None
#     Edge 7, Type (0, 1), None
#     Edge 8, Type (0, 1), None
#     Edge 9, Type (0, 1), None
#     Edge 10, Type (0, 1), None
#     Edge 11, Type (0, 1), None
#     Edge 12, Type (0, 1), None
#     Edge 13, Type (0, 1), None
#     Edge 14, Type (0, 1), None
#     Edge 15, Type (0, 1), None
#     Edge 16, Type (0, 1), None
#     Edge 17, Type (0, 1), None
# Relax obj value: 0.071
# Max RMSD: 0.184
# Mean RMSD: 0.099
data_MOF--net-sit--node1-MIDCAF_clean_sbu_0--node2-BETDIP_clean_linker_0--edge1-none
_symmetry_space_group_name_H-M    P1
_symmetry_Int_Tables_number       1
_symmetry_cell_setting            triclinic
loop_
_symmetry_equiv_pos_as_xyz
'x, y, z'
_cell_length_a     9.5837243
_cell_length_b     11.905705
_cell_length_c     20.041168
_cell_angle_alpha  89.993196
_cell_angle_beta   89.866902
_cell_angle_gamma 82.264381
loop_
_atom_site_label
_atom_site_type_symbol
_atom_site_fract_x
_atom_site_fract_y
_atom_site_fract_z
_atom_type_partial_charge
H0 H 0.80827 0.43448 -0.01112 0.0
H1 H 0.25116 0.45732 -0.00158 0.0
H2 H 0.02813 0.52369 0.81313 0.0
H3 H 0.00332 0.24845 0.06259 0.0
C4 C 0.0089 0.32004 0.09565 0.0
C5 C 0.90465 0.45086 -0.03547 0.0
C6 C 0.90345 0.48149 0.89701 0.0
C7 C 0.02942 0.44404 0.00134 0.0
C8 C 0.15407 0.46517 -0.02989 0.0
C9 C 0.15431 0.49302 0.9021 0.0
C10 C 0.02812 0.50346 0.8659 0.0
N11 N 0.02842 0.42148 0.07062 0.0
H12 H 0.75818 0.83528 -0.00151 0.0
H13 H 0.2011 0.85837 -0.01116 0.0
H14 H -0.0169 0.7682 0.81326 0.0
H15 H 0.00927 1.04376 0.06252 0.0
C16 C 0.00217 0.97243 0.0956 0.0
C17 C 0.85554 0.82734 -0.02982 0.0
C18 C 0.85598 0.79924 0.90218 0.0
C19 C -0.02013 0.84872 0.00136 0.0
C20 C 0.10497 0.84182 -0.03546 0.0
C21 C 0.10688 0.8108 0.89708 0.0
C22 C -0.01745 0.78864 0.86601 0.0
N23 N -0.01967 0.87153 0.07064 0.0
H24 H 0.30831 0.9344 0.48884 0.0
H25 H 0.75119 0.95724 0.49839 0.0
H26 H 0.52818 1.02361 0.3131 0.0
H27 H 0.50332 0.74838 0.56257 0.0
C28 C 0.5089 0.81998 0.59563 0.0
C29 C 0.40469 0.95077 0.4645 0.0
C30 C 0.4035 0.98141 0.39697 0.0
C31 C 0.52946 0.94396 0.5013 0.0
C32 C 0.65411 0.96509 0.47008 0.0
C33 C 0.65435 0.99294 0.40207 0.0
C34 C 0.52817 1.00338 0.36587 0.0
N35 N 0.52845 0.92141 0.57059 0.0
H36 H 0.25822 0.3352 0.49852 0.0
H37 H 0.70114 0.35829 0.48887 0.0
H38 H 0.48315 0.26812 0.31329 0.0
H39 H 0.50927 0.5437 0.56253 0.0
C40 C 0.50218 0.47237 0.59563 0.0
C41 C 0.35558 0.32726 0.47021 0.0
C42 C 0.35603 0.29916 0.40221 0.0
C43 C 0.47991 0.34863 0.5014 0.0
C44 C 0.60501 0.34174 0.46457 0.0
C45 C 0.60692 0.31072 0.39711 0.0
C46 C 0.4826 0.28856 0.36604 0.0
N47 N 0.48036 0.37145 0.57067 0.0
Zn48 Zn -0.02506 0.38141 0.30122 0.0
Zn49 Zn 0.03622 0.91083 0.30108 0.0
Zn50 Zn 0.00566 0.14609 0.29288 0.0
C51 C 0.01017 0.98639 0.16439 0.0
C52 C 0.78833 0.99579 0.36713 0.0
O53 O 0.18788 0.2021 0.3453 0.0
O54 O 0.14393 0.38878 0.35755 0.0
C55 C 0.00115 0.30598 0.16445 0.0
O56 O 0.01077 1.08579 0.18956 0.0
O57 O 0.01611 0.89993 0.2016 0.0
O58 O 0.86711 0.9034 0.35764 0.0
O59 O 0.82292 1.09002 0.34516 0.0
O60 O -0.00544 0.39246 0.20169 0.0
O61 O 0.00134 0.20648 0.18961 0.0
O62 O 0.80706 0.20886 0.34351 0.0
O63 O 0.78641 0.39678 0.34576 0.0
C64 C 0.73825 0.30572 0.35915 0.0
O65 O 0.20371 1.08328 0.34353 0.0
O66 O 0.22473 0.89534 0.34535 0.0
C67 C 0.2224 0.29633 0.36721 0.0
C68 C 0.27254 0.98641 0.35898 0.0
Zn69 Zn 0.47491 0.88143 0.80118 0.0
Zn70 Zn 0.53619 0.41085 0.80112 0.0
Zn71 Zn 0.50562 0.64611 0.79288 0.0
C72 C 0.51016 0.48636 0.66441 0.0
C73 C 0.28829 0.49586 0.86715 0.0
O74 O 0.68784 0.70215 0.84529 0.0
O75 O 0.64389 0.88884 0.85752 0.0
C76 C 0.50114 0.80594 0.66443 0.0
O77 O 0.51074 0.58577 0.68957 0.0
O78 O 0.5161 0.39991 0.70163 0.0
O79 O 0.36706 0.40346 0.85767 0.0
O80 O 0.32288 0.59008 0.84517 0.0
O81 O 0.49455 0.89244 0.70165 0.0
O82 O 0.50132 0.70646 0.6896 0.0
O83 O 0.30702 0.70892 0.84349 0.0
O84 O 0.28637 0.89684 0.84571 0.0
C85 C 0.2382 0.80578 0.85911 0.0
O86 O 0.70367 0.58334 0.84354 0.0
O87 O 0.72468 0.39539 0.84539 0.0
C88 C 0.72235 0.7964 0.86719 0.0
C89 C 0.7725 0.48647 0.85902 0.0
loop_
_geom_bond_atom_site_label_1
_geom_bond_atom_site_label_2
_geom_bond_distance
_geom_bond_site_symmetry_2
_ccdc_geom_bond_type
H0 C5 0.930 . S
H1 C8 0.930 . S
H2 C10 0.930 . S
H3 C4 1.016 . S
C4 H3 1.016 . S
C4 N11 1.286 . S
C5 H0 0.930 . S
C5 C6 1.397 1_654 S
C5 C7 1.361 1_655 S
C6 C5 1.397 1_456 S
C6 C10 1.390 . S
C7 C5 1.361 1_455 S
C7 C8 1.393 . S
C7 N11 1.413 . S
C8 H1 0.930 . S
C8 C7 1.393 . S
C8 C9 1.399 1_554 S
C9 C8 1.399 1_556 S
C9 C10 1.381 . S
C10 H2 0.930 . S
C10 C6 1.390 . S
C10 C9 1.381 . S
N11 C4 1.286 . S
N11 C7 1.413 . S
H12 C17 0.930 . S
H13 C20 0.930 . S
H14 C22 0.930 . S
H15 C16 1.016 . S
C16 H15 1.016 . S
C16 N23 1.286 1_455 S
C17 H12 0.930 . S
C17 C18 1.397 1_554 S
C17 C19 1.361 . S
C18 C17 1.397 1_556 S
C18 C22 1.390 1_655 S
C19 C17 1.361 . S
C19 C20 1.393 1_655 S
C19 N23 1.413 . S
C20 H13 0.930 . S
C20 C19 1.393 1_455 S
C20 C21 1.399 1_554 S
C21 C20 1.399 1_556 S
C21 C22 1.381 . S
C22 H14 0.930 . S
C22 C18 1.390 1_455 S
C22 C21 1.381 . S
N23 C16 1.286 1_655 S
N23 C19 1.413 . S
H24 C29 0.930 . S
H25 C32 0.930 . S
H26 C34 0.930 . S
H27 C28 1.016 . S
C28 H27 1.016 . S
C28 N35 1.286 . S
C29 H24 0.930 . S
C29 C30 1.397 . S
C29 C31 1.361 . S
C30 C29 1.397 . S
C30 C34 1.390 . S
C31 C29 1.361 . S
C31 C32 1.393 . S
C31 N35 1.413 . S
C32 H25 0.930 . S
C32 C31 1.393 . S
C32 C33 1.399 . S
C33 C32 1.399 . S
C33 C34 1.381 . S
C34 H26 0.930 . S
C34 C30 1.390 . S
C34 C33 1.381 . S
N35 C28 1.286 . S
N35 C31 1.413 . S
H36 C41 0.930 . S
H37 C44 0.930 . S
H38 C46 0.930 . S
H39 C40 1.016 . S
C40 H39 1.016 . S
C40 N47 1.286 . S
C41 H36 0.930 . S
C41 C42 1.397 . S
C41 C43 1.361 . S
C42 C41 1.397 . S
C42 C46 1.390 . S
C43 C41 1.361 . S
C43 C44 1.393 . S
C43 N47 1.413 . S
C44 H37 0.930 . S
C44 C43 1.393 . S
C44 C45 1.399 . S
C45 C44 1.399 . S
C45 C46 1.381 . S
C46 H38 0.930 . S
C46 C42 1.390 . S
C46 C45 1.381 . S
N47 C40 1.286 . S
N47 C43 1.413 . S
Zn48 O54 1.920 . S
Zn48 O60 1.898 . S
Zn48 O63 1.905 1_455 S
Zn49 O57 1.905 . S
Zn49 O58 1.898 1_455 S
Zn49 O66 1.920 . S
Zn50 O53 2.080 . S
Zn50 O56 2.114 1_445 S
Zn50 O59 2.120 1_445 S
Zn50 O61 2.120 . S
Zn50 O62 2.114 1_455 S
Zn50 O65 2.080 1_545 S
C51 O56 1.166 1_455 S
C51 O57 1.182 . S
C52 O58 1.167 . S
C52 O59 1.299 . S
O53 Zn50 2.080 . S
O53 C67 1.305 . S
O54 Zn48 1.920 . S
O54 C67 1.234 . S
C55 O60 1.167 . S
C55 O61 1.299 . S
O56 Zn50 2.114 1_665 S
O56 C51 1.166 1_655 S
O57 Zn49 1.905 . S
O57 C51 1.182 . S
O58 Zn49 1.898 1_655 S
O58 C52 1.167 . S
O59 Zn50 2.120 1_665 S
O59 C52 1.299 . S
O60 Zn48 1.898 . S
O60 C55 1.167 . S
O61 Zn50 2.120 . S
O61 C55 1.299 . S
O62 Zn50 2.114 1_655 S
O62 C64 1.166 . S
O63 Zn48 1.905 1_655 S
O63 C64 1.182 . S
C64 O62 1.166 . S
C64 O63 1.182 . S
O65 Zn50 2.080 1_565 S
O65 C68 1.305 . S
O66 Zn49 1.920 . S
O66 C68 1.234 . S
C67 O53 1.305 . S
C67 O54 1.234 . S
C68 O65 1.305 . S
C68 O66 1.234 . S
Zn69 O75 1.920 . S
Zn69 O81 1.898 . S
Zn69 O84 1.905 . S
Zn70 O78 1.905 . S
Zn70 O79 1.898 . S
Zn70 O87 1.920 . S
Zn71 O74 2.080 . S
Zn71 O77 2.114 . S
Zn71 O80 2.120 . S
Zn71 O82 2.120 . S
Zn71 O83 2.114 . S
Zn71 O86 2.080 . S
C72 O77 1.166 . S
C72 O78 1.182 . S
C73 O79 1.167 . S
C73 O80 1.299 . S
O74 Zn71 2.080 . S
O74 C88 1.305 . S
O75 Zn69 1.920 . S
O75 C88 1.234 . S
C76 O81 1.167 . S
C76 O82 1.299 . S
O77 Zn71 2.114 . S
O77 C72 1.166 . S
O78 Zn70 1.905 . S
O78 C72 1.182 . S
O79 Zn70 1.898 . S
O79 C73 1.167 . S
O80 Zn71 2.120 . S
O80 C73 1.299 . S
O81 Zn69 1.898 . S
O81 C76 1.167 . S
O82 Zn71 2.120 . S
O82 C76 1.299 . S
O83 Zn71 2.114 . S
O83 C85 1.166 . S
O84 Zn69 1.905 . S
O84 C85 1.182 . S
C85 O83 1.166 . S
C85 O84 1.182 . S
O86 Zn71 2.080 . S
O86 C89 1.305 . S
O87 Zn70 1.920 . S
O87 C89 1.234 . S
C88 O74 1.305 . S
C88 O75 1.234 . S
C89 O86 1.305 . S
C89 O87 1.234 . S
C55 C4 1.617 . S
C51 C16 1.467 . S
C76 C28 1.617 . S
C40 C72 1.467 . S
C9 C73 1.274 . S
C88 C18 1.305 . S
C6 C89 1.690 1_455 S
C85 C21 1.669 . S
C52 C33 1.274 . S
C42 C67 1.304 . S
C68 C30 1.690 . S
C64 C45 1.669 . S
