# Generated by pormake.
# Topology pth, (4,4)-cn, num edge types: 1
# Building blocks:
#     Node 0, Type 0, BuildingBlock: QUQFOY_clean_sbu_1, # of connection points: 4
#     Node 1, Type 0, BuildingBlock: QUQFOY_clean_sbu_1, # of connection points: 4
#     Node 2, Type 0, BuildingBlock: QUQFOY_clean_sbu_1, # of connection points: 4
#     Node 3, Type 1, BuildingBlock: MIFKUJ_clean_linker_1, # of connection points: 4
#     Node 4, Type 1, BuildingBlock: MIFKUJ_clean_linker_1, # of connection points: 4
#     Node 5, Type 1, BuildingBlock: MIFKUJ_clean_linker_1, # of connection points: 4
#     Edge 6, Type (0, 1), None
#     Edge 7, Type (0, 1), None
#     Edge 8, Type (0, 1), None
#     Edge 9, Type (0, 1), None
#     Edge 10, Type (0, 1), None
#     Edge 11, Type (0, 1), None
#     Edge 12, Type (0, 1), None
#     Edge 13, Type (0, 1), None
#     Edge 14, Type (0, 1), None
#     Edge 15, Type (0, 1), None
#     Edge 16, Type (0, 1), None
#     Edge 17, Type (0, 1), None
# Relax obj value: 0.032
# Max RMSD: 0.132
# Mean RMSD: 0.086
data_MOF--net-pth--node1-QUQFOY_clean_sbu_1--node2-MIFKUJ_clean_linker_1--edge1-none
_symmetry_space_group_name_H-M    P1
_symmetry_Int_Tables_number       1
_symmetry_cell_setting            triclinic
loop_
_symmetry_equiv_pos_as_xyz
'x, y, z'
_cell_length_a     16.515307
_cell_length_b     16.993435
_cell_length_c     33.408879
_cell_angle_alpha  90.287213
_cell_angle_beta   89.813929
_cell_angle_gamma 120.0464
loop_
_atom_site_label
_atom_site_type_symbol
_atom_site_fract_x
_atom_site_fract_y
_atom_site_fract_z
_atom_type_partial_charge
O0 O 0.0141 0.13027 1.03345 0.0
Cd1 Cd 0.91383 0.05247 0.07478 0.0
Cd2 Cd 0.00837 0.96853 0.07591 0.0
O3 O 0.11507 0.09257 0.0558 0.0
O4 O 0.86729 0.13307 0.09484 0.0
O5 O 0.95053 0.09088 0.13182 0.0
C6 C 0.91124 0.13974 0.12768 0.0
C7 C 0.02122 0.88319 0.12716 0.0
C8 C 0.09693 0.1439 1.03465 0.0
C9 C 0.82437 0.87499 1.03545 0.0
O10 O 0.90697 0.88773 1.03538 0.0
O11 O 0.80593 0.92828 0.05529 0.0
O12 O 0.06348 0.89361 0.09339 0.0
O13 O -0.02275 0.92734 0.13304 0.0
O14 O 0.91867 0.08623 0.46356 0.0
Cd15 Cd 0.02595 0.11116 0.42508 0.0
Cd16 Cd 0.93834 0.9333 0.42486 0.0
O17 O 0.82688 0.94241 0.44739 0.0
O18 O 0.06793 0.23725 0.40736 0.0
O19 O 0.0011 0.11771 0.36666 0.0
C20 C 0.03329 0.20347 0.37275 0.0
C21 C 0.92844 0.83663 0.3731 0.0
C22 C 0.83995 0.01371 0.46558 0.0
C23 C 0.12143 0.03041 0.46739 0.0
O24 O 0.04232 0.95832 0.46483 0.0
O25 O 0.13651 0.10158 0.44867 0.0
O26 O 0.89002 0.80538 0.40742 0.0
O27 O 0.96756 0.92318 0.36715 0.0
O28 O 0.83717 0.92965 0.70349 0.0
Cd29 Cd 0.92231 0.9112 0.74246 0.0
Cd30 Cd 0.01435 0.08908 0.74164 0.0
O31 O 0.89315 0.07471 0.71736 0.0
O32 O 0.84454 0.78437 0.76185 0.0
O33 O 0.88808 0.90512 0.80063 0.0
C34 C 0.84007 0.8179 0.79597 0.0
C35 C 0.09588 0.18609 0.79453 0.0
C36 C 0.83303 1.00193 0.70005 0.0
C37 C 0.10441 0.99675 0.70102 0.0
O38 O 0.09859 0.06833 0.70311 0.0
O39 O 0.0454 0.92532 0.71938 0.0
O40 O 0.09214 0.2172 0.75986 0.0
O41 O 0.04792 0.09922 0.80001 0.0
H42 H 0.08162 0.44084 0.16579 0.0
H43 H 0.05348 0.31133 0.12347 0.0
H44 H 0.81113 0.13445 0.19408 0.0
H45 H 0.83853 0.26435 0.23649 0.0
H46 H -0.01739 0.51779 0.175 0.0
H47 H 0.10186 0.38384 0.25961 0.0
H48 H 0.12548 0.28019 0.30272 0.0
H49 H 0.90151 0.25049 0.37937 0.0
H50 H 0.87456 0.35006 0.33565 0.0
H51 H 0.83106 0.54928 0.32197 0.0
H52 H 0.81151 0.65469 0.36525 0.0
H53 H 0.06122 0.87928 0.31505 0.0
H54 H 0.08322 0.77279 0.27292 0.0
H55 H -0.0292 0.51422 0.32312 0.0
H56 H 0.86702 0.66531 0.22541 0.0
H57 H 0.88783 0.79341 0.18447 0.0
H58 H 0.13969 0.81629 0.1339 0.0
H59 H 0.12104 0.69123 0.17602 0.0
C60 C 0.96254 0.36254 0.20447 0.0
C61 C 0.02287 0.37425 0.17249 0.0
C62 C 0.00707 0.30035 0.14849 0.0
C63 C 0.93068 0.21356 0.15595 0.0
C64 C 0.87099 0.20087 0.1882 0.0
C65 C 0.88688 0.27494 0.21236 0.0
C66 C -0.02485 0.44252 0.22799 0.0
C67 C -0.019 0.51731 0.20746 0.0
C68 C -0.02386 0.44347 0.2703 0.0
C69 C -0.01414 0.3747 0.29413 0.0
C70 C 0.05599 0.35315 0.28504 0.0
C71 C 0.07007 0.29455 0.30972 0.0
C72 C 0.01532 0.25817 0.34412 0.0
C73 C 0.94453 0.27824 0.35288 0.0
C74 C 0.92942 0.33534 0.328 0.0
C75 C 0.95844 0.65284 0.294 0.0
C76 C 0.88163 0.62123 0.32011 0.0
C77 C 0.87007 0.68158 0.34466 0.0
C78 C 0.93434 0.7752 0.34326 0.0
C79 C 0.00974 0.80753 0.31626 0.0
C80 C 0.02247 0.7467 0.29223 0.0
C81 C -0.02853 0.58581 0.27012 0.0
C82 C -0.0281 0.51398 0.29066 0.0
C83 C -0.01881 0.59004 0.22792 0.0
C84 C -0.00709 0.6689 0.20412 0.0
C85 C 0.92791 0.69925 0.20624 0.0
C86 C 0.94001 0.77267 0.1829 0.0
C87 C 0.01582 0.8153 0.15621 0.0
C88 C 0.08086 0.78512 0.15431 0.0
C89 C 0.0698 0.71313 0.17816 0.0
H90 H 0.70278 0.15972 0.53057 0.0
H91 H 0.82514 0.15966 0.48902 0.0
H92 H 0.68658 0.86675 0.49772 0.0
H93 H 0.56532 0.86794 0.53997 0.0
H94 H 0.48713 0.03366 0.50981 0.0
H95 H 0.70898 0.14578 0.62494 0.0
H96 H 0.83107 0.14764 0.6671 0.0
H97 H 0.66908 0.85465 0.67597 0.0
H98 H 0.54668 0.85397 0.63439 0.0
H99 H 0.27424 0.86543 0.65256 0.0
H100 H 0.15006 0.86272 0.6939 0.0
H101 H 0.22767 0.13201 0.65206 0.0
H102 H 0.35112 0.13402 0.61116 0.0
H103 H 0.46318 0.98395 0.65669 0.0
H104 H 0.22172 0.89137 0.55787 0.0
H105 H 0.10179 0.89631 0.51764 0.0
H106 H 0.30627 0.16255 0.47417 0.0
H107 H 0.42645 0.15697 0.515 0.0
C108 C 0.62606 0.01399 0.53837 0.0
C109 C 0.69939 0.09577 0.52366 0.0
C110 C 0.76889 0.09543 0.49993 0.0
C111 C 0.76504 0.01304 0.49 0.0
C112 C 0.69086 0.93107 0.50462 0.0
C113 C 0.62214 0.93168 0.52891 0.0
C114 C 0.55066 0.01387 0.56198 0.0
C115 C 0.48216 0.02395 0.54199 0.0
C116 C 0.54409 1.0002 0.60364 0.0
C117 C 0.61971 0.9997 0.62657 0.0
C118 C 0.70034 0.08212 0.63592 0.0
C119 C 0.76948 0.08307 0.66018 0.0
C120 C 0.75932 1.00134 0.67499 0.0
C121 C 0.67882 0.91869 0.66497 0.0
C122 C 0.60906 0.91801 0.64121 0.0
C123 C 0.32106 0.99955 0.62854 0.0
C124 C 0.26408 0.92366 0.65235 0.0
C125 C 0.19324 0.9222 0.67591 0.0
C126 C 0.17906 0.99714 0.67633 0.0
C127 C 0.2367 0.07313 0.65251 0.0
C128 C 0.30698 0.07427 0.62886 0.0
C129 C 0.39783 1.00231 0.60456 0.0
C130 C 0.46731 0.99339 0.62449 0.0
C131 C 0.40573 0.01852 0.56281 0.0
C132 C 0.3326 0.02409 0.53969 0.0
C133 C 0.2405 0.95123 0.54007 0.0
C134 C 0.17219 0.95405 0.51678 0.0
C135 C 0.19461 0.02984 0.49255 0.0
C136 C 0.28685 0.1033 0.49249 0.0
C137 C 0.35546 0.10015 0.51573 0.0
H138 H 0.29842 0.25062 0.9017 0.0
H139 H 0.17169 0.14387 0.85791 0.0
H140 H 0.1696 0.36915 0.79962 0.0
H141 H 0.29329 0.47505 0.84431 0.0
H142 H 0.46655 0.50418 0.84785 0.0
H143 H 0.4055 0.3232 0.9934 0.0
H144 H 0.28338 0.19856 1.03231 0.0
H145 H 0.07885 0.26078 0.98443 0.0
H146 H 0.20169 0.38554 0.94583 0.0
H147 H 0.5182 0.6956 0.99109 0.0
H148 H 0.63844 0.82191 1.03026 0.0
H149 H 0.84399 0.75411 0.98798 0.0
H150 H 0.72315 0.62785 0.94918 0.0
H151 H 0.46081 0.50926 0.99614 0.0
H152 H 0.63162 0.76137 0.90025 0.0
H153 H 0.76134 0.86483 0.85702 0.0
H154 H 0.76608 0.63531 0.80347 0.0
H155 H 0.63935 0.5327 0.84767 0.0
C156 C 0.30536 0.37108 0.87647 0.0
C157 C 0.26896 0.27691 0.88027 0.0
C158 C 0.19645 0.2159 0.85521 0.0
C159 C 0.16071 0.24822 0.82537 0.0
C160 C 0.1957 0.34219 0.82231 0.0
C161 C 0.26683 0.40283 0.8477 0.0
C162 C 0.38656 0.43789 0.90064 0.0
C163 C 0.4653 0.5053 0.88032 0.0
C164 C 0.38717 0.43717 0.94296 0.0
C165 C 0.3123 0.36296 0.96658 0.0
C166 C 0.33426 0.30995 0.99146 0.0
C167 C 0.26441 0.23862 1.01357 0.0
C168 C 0.17135 0.21948 1.01138 0.0
C169 C 0.14982 0.27351 0.98672 0.0
C170 C 0.21976 0.34474 0.96456 0.0
C171 C 0.61214 0.65305 0.96703 0.0
C172 C 0.58926 0.70803 0.99043 0.0
C173 C 0.65803 0.78028 1.0127 0.0
C174 C 0.75084 0.79834 1.01216 0.0
C175 C 0.7732 0.74229 0.989 0.0
C176 C 0.7044 0.67018 0.9667 0.0
C177 C 0.53859 0.57773 0.94324 0.0
C178 C 0.46204 0.5082 0.96366 0.0
C179 C 0.54251 0.57405 0.90102 0.0
C180 C 0.62568 0.63903 0.87737 0.0
C181 C 0.66229 0.73348 0.88004 0.0
C182 C 0.73654 0.79261 0.85531 0.0
C183 C 0.77386 0.75809 0.82689 0.0
C184 C 0.73878 0.66392 0.82506 0.0
C185 C 0.6659 0.60517 0.85015 0.0
loop_
_geom_bond_atom_site_label_1
_geom_bond_atom_site_label_2
_geom_bond_distance
_geom_bond_site_symmetry_2
_ccdc_geom_bond_type
O0 Cd1 2.223 1_456 S
O0 C8 1.315 . S
Cd1 O0 2.223 1_654 S
Cd1 O4 2.297 . S
Cd1 O5 2.439 . S
Cd1 O11 2.240 1_545 S
Cd2 O3 2.240 1_565 S
Cd2 O10 2.223 1_454 S
Cd2 O12 2.297 . S
Cd2 O13 2.439 . S
O3 Cd2 2.240 1_545 S
O3 C8 1.279 1_554 S
O4 Cd1 2.297 . S
O4 C6 1.247 . S
O5 Cd1 2.439 . S
O5 C6 1.208 . S
C6 O4 1.247 . S
C6 O5 1.208 . S
C7 O12 1.247 . S
C7 O13 1.208 . S
C8 O0 1.315 . S
C8 O3 1.279 1_556 S
C9 O10 1.315 . S
C9 O11 1.279 1_556 S
O10 Cd2 2.223 1_656 S
O10 C9 1.315 . S
O11 Cd1 2.240 1_565 S
O11 C9 1.279 1_554 S
O12 Cd2 2.297 . S
O12 C7 1.247 . S
O13 Cd2 2.439 . S
O13 C7 1.208 . S
O14 Cd15 2.223 1_655 S
O14 C22 1.315 . S
Cd15 O14 2.223 1_455 S
Cd15 O18 2.297 . S
Cd15 O19 2.439 . S
Cd15 O25 2.240 . S
Cd16 O17 2.240 . S
Cd16 O24 2.223 1_655 S
Cd16 O26 2.297 . S
Cd16 O27 2.439 . S
O17 Cd16 2.240 . S
O17 C22 1.279 1_565 S
O18 Cd15 2.297 . S
O18 C20 1.247 . S
O19 Cd15 2.439 . S
O19 C20 1.208 . S
C20 O18 1.247 . S
C20 O19 1.208 . S
C21 O26 1.247 . S
C21 O27 1.208 . S
C22 O14 1.315 . S
C22 O17 1.279 1_545 S
C23 O24 1.315 . S
C23 O25 1.279 1_565 S
O24 Cd16 2.223 1_455 S
O24 C23 1.315 . S
O25 Cd15 2.240 . S
O25 C23 1.279 1_545 S
O26 Cd16 2.297 . S
O26 C21 1.247 . S
O27 Cd16 2.439 . S
O27 C21 1.208 . S
O28 Cd29 2.223 . S
O28 C36 1.315 . S
Cd29 O28 2.223 . S
Cd29 O32 2.297 . S
Cd29 O33 2.439 . S
Cd29 O39 2.240 1_655 S
Cd30 O31 2.240 1_455 S
Cd30 O38 2.223 . S
Cd30 O40 2.297 . S
Cd30 O41 2.439 . S
O31 Cd30 2.240 1_655 S
O31 C36 1.279 1_545 S
O32 Cd29 2.297 . S
O32 C34 1.247 . S
O33 Cd29 2.439 . S
O33 C34 1.208 . S
C34 O32 1.247 . S
C34 O33 1.208 . S
C35 O40 1.247 . S
C35 O41 1.208 . S
C36 O28 1.315 . S
C36 O31 1.279 1_565 S
C37 O38 1.315 . S
C37 O39 1.279 1_545 S
O38 Cd30 2.223 . S
O38 C37 1.315 . S
O39 Cd29 2.240 1_455 S
O39 C37 1.279 1_565 S
O40 Cd30 2.297 . S
O40 C35 1.247 . S
O41 Cd30 2.439 . S
O41 C35 1.208 . S
H42 C61 0.949 . S
H43 C62 0.950 . S
H44 C64 0.950 . S
H45 C65 0.950 . S
H46 C67 0.950 . S
H47 C70 0.950 . S
H48 C71 0.950 . S
H49 C73 0.951 . S
H50 C74 0.949 . S
H51 C76 0.949 . S
H52 C77 0.950 . S
H53 C79 0.950 . S
H54 C80 0.950 . S
H55 C82 0.950 . S
H56 C85 0.950 . S
H57 C86 0.950 . S
H58 C88 0.951 . S
H59 C89 0.949 . S
C60 C61 1.376 . S
C60 C65 1.386 1_455 S
C60 C66 1.483 . S
C61 H42 0.949 . S
C61 C60 1.376 . S
C61 C62 1.397 . S
C62 H43 0.950 . S
C62 C61 1.397 . S
C62 C63 1.391 . S
C63 C62 1.391 . S
C63 C64 1.405 1_455 S
C64 H44 0.950 . S
C64 C63 1.405 1_655 S
C64 C65 1.367 . S
C65 H45 0.950 . S
C65 C60 1.386 1_655 S
C65 C64 1.367 . S
C66 C60 1.483 . S
C66 C67 1.382 . S
C66 C68 1.403 1_455 S
C67 H46 0.950 . S
C67 C66 1.382 . S
C67 C83 1.411 . S
C68 C66 1.403 1_655 S
C68 C69 1.489 . S
C68 C82 1.411 . S
C69 C68 1.489 . S
C69 C70 1.383 1_655 S
C69 C74 1.382 . S
C70 H47 0.950 . S
C70 C69 1.383 1_455 S
C70 C71 1.395 . S
C71 H48 0.950 . S
C71 C70 1.395 . S
C71 C72 1.288 1_455 S
C72 C71 1.288 1_655 S
C72 C73 1.392 . S
C73 H49 0.951 . S
C73 C72 1.392 . S
C73 C74 1.392 . S
C74 H50 0.949 . S
C74 C69 1.382 . S
C74 C73 1.392 . S
C75 C76 1.376 . S
C75 C80 1.386 1_655 S
C75 C81 1.483 . S
C76 H51 0.949 . S
C76 C75 1.376 . S
C76 C77 1.397 . S
C77 H52 0.950 . S
C77 C76 1.397 . S
C77 C78 1.391 . S
C78 C77 1.391 . S
C78 C79 1.405 1_655 S
C79 H53 0.950 . S
C79 C78 1.405 1_455 S
C79 C80 1.367 . S
C80 H54 0.950 . S
C80 C75 1.386 1_455 S
C80 C79 1.367 . S
C81 C75 1.483 . S
C81 C82 1.382 . S
C81 C83 1.403 1_655 S
C82 H55 0.950 . S
C82 C68 1.411 . S
C82 C81 1.382 . S
C83 C67 1.411 . S
C83 C81 1.403 1_455 S
C83 C84 1.489 . S
C84 C83 1.489 . S
C84 C85 1.383 1_455 S
C84 C89 1.382 . S
C85 H56 0.950 . S
C85 C84 1.383 1_655 S
C85 C86 1.395 . S
C86 H57 0.950 . S
C86 C85 1.395 . S
C86 C87 1.288 1_655 S
C87 C86 1.288 1_455 S
C87 C88 1.392 . S
C88 H58 0.951 . S
C88 C87 1.392 . S
C88 C89 1.392 . S
C89 H59 0.949 . S
C89 C84 1.382 . S
C89 C88 1.392 . S
H90 C109 0.949 . S
H91 C110 0.950 . S
H92 C112 0.950 . S
H93 C113 0.950 . S
H94 C115 0.950 . S
H95 C118 0.950 . S
H96 C119 0.950 . S
H97 C121 0.951 . S
H98 C122 0.949 . S
H99 C124 0.949 . S
H100 C125 0.950 . S
H101 C127 0.950 . S
H102 C128 0.950 . S
H103 C130 0.950 . S
H104 C133 0.950 . S
H105 C134 0.950 . S
H106 C136 0.951 . S
H107 C137 0.949 . S
C108 C109 1.376 . S
C108 C113 1.386 1_545 S
C108 C114 1.483 . S
C109 H90 0.949 . S
C109 C108 1.376 . S
C109 C110 1.397 . S
C110 H91 0.950 . S
C110 C109 1.397 . S
C110 C111 1.391 . S
C111 C110 1.391 . S
C111 C112 1.405 1_545 S
C112 H92 0.950 . S
C112 C111 1.405 1_565 S
C112 C113 1.367 . S
C113 H93 0.950 . S
C113 C108 1.386 1_565 S
C113 C112 1.367 . S
C114 C108 1.483 . S
C114 C115 1.382 . S
C114 C116 1.403 1_545 S
C115 H94 0.950 . S
C115 C114 1.382 . S
C115 C131 1.411 . S
C116 C114 1.403 1_565 S
C116 C117 1.489 . S
C116 C130 1.411 . S
C117 C116 1.489 . S
C117 C118 1.383 1_565 S
C117 C122 1.382 . S
C118 H95 0.950 . S
C118 C117 1.383 1_545 S
C118 C119 1.395 . S
C119 H96 0.950 . S
C119 C118 1.395 . S
C119 C120 1.288 1_545 S
C120 C119 1.288 1_565 S
C120 C121 1.392 . S
C121 H97 0.951 . S
C121 C120 1.392 . S
C121 C122 1.392 . S
C122 H98 0.949 . S
C122 C117 1.382 . S
C122 C121 1.392 . S
C123 C124 1.376 . S
C123 C128 1.386 1_565 S
C123 C129 1.483 . S
C124 H99 0.949 . S
C124 C123 1.376 . S
C124 C125 1.397 . S
C125 H100 0.950 . S
C125 C124 1.397 . S
C125 C126 1.391 . S
C126 C125 1.391 . S
C126 C127 1.405 1_565 S
C127 H101 0.950 . S
C127 C126 1.405 1_545 S
C127 C128 1.367 . S
C128 H102 0.950 . S
C128 C123 1.386 1_545 S
C128 C127 1.367 . S
C129 C123 1.483 . S
C129 C130 1.382 . S
C129 C131 1.403 1_565 S
C130 H103 0.950 . S
C130 C116 1.411 . S
C130 C129 1.382 . S
C131 C115 1.411 . S
C131 C129 1.403 1_545 S
C131 C132 1.489 . S
C132 C131 1.489 . S
C132 C133 1.383 1_545 S
C132 C137 1.382 . S
C133 H104 0.950 . S
C133 C132 1.383 1_565 S
C133 C134 1.395 . S
C134 H105 0.950 . S
C134 C133 1.395 . S
C134 C135 1.288 1_565 S
C135 C134 1.288 1_545 S
C135 C136 1.392 . S
C136 H106 0.951 . S
C136 C135 1.392 . S
C136 C137 1.392 . S
C137 H107 0.949 . S
C137 C132 1.382 . S
C137 C136 1.392 . S
H138 C157 0.949 . S
H139 C158 0.950 . S
H140 C160 0.950 . S
H141 C161 0.950 . S
H142 C163 0.950 . S
H143 C166 0.950 . S
H144 C167 0.950 . S
H145 C169 0.951 . S
H146 C170 0.949 . S
H147 C172 0.949 . S
H148 C173 0.950 . S
H149 C175 0.950 . S
H150 C176 0.950 . S
H151 C178 0.950 . S
H152 C181 0.950 . S
H153 C182 0.950 . S
H154 C184 0.951 . S
H155 C185 0.949 . S
C156 C157 1.376 . S
C156 C161 1.386 . S
C156 C162 1.483 . S
C157 H138 0.949 . S
C157 C156 1.376 . S
C157 C158 1.397 . S
C158 H139 0.950 . S
C158 C157 1.397 . S
C158 C159 1.391 . S
C159 C158 1.391 . S
C159 C160 1.405 . S
C160 H140 0.950 . S
C160 C159 1.405 . S
C160 C161 1.367 . S
C161 H141 0.950 . S
C161 C156 1.386 . S
C161 C160 1.367 . S
C162 C156 1.483 . S
C162 C163 1.382 . S
C162 C164 1.403 . S
C163 H142 0.950 . S
C163 C162 1.382 . S
C163 C179 1.411 . S
C164 C162 1.403 . S
C164 C165 1.489 . S
C164 C178 1.411 . S
C165 C164 1.489 . S
C165 C166 1.383 . S
C165 C170 1.382 . S
C166 H143 0.950 . S
C166 C165 1.383 . S
C166 C167 1.395 . S
C167 H144 0.950 . S
C167 C166 1.395 . S
C167 C168 1.288 . S
C168 C167 1.288 . S
C168 C169 1.392 . S
C169 H145 0.951 . S
C169 C168 1.392 . S
C169 C170 1.392 . S
C170 H146 0.949 . S
C170 C165 1.382 . S
C170 C169 1.392 . S
C171 C172 1.376 . S
C171 C176 1.386 . S
C171 C177 1.483 . S
C172 H147 0.949 . S
C172 C171 1.376 . S
C172 C173 1.397 . S
C173 H148 0.950 . S
C173 C172 1.397 . S
C173 C174 1.391 . S
C174 C173 1.391 . S
C174 C175 1.405 . S
C175 H149 0.950 . S
C175 C174 1.405 . S
C175 C176 1.367 . S
C176 H150 0.950 . S
C176 C171 1.386 . S
C176 C175 1.367 . S
C177 C171 1.483 . S
C177 C178 1.382 . S
C177 C179 1.403 . S
C178 H151 0.950 . S
C178 C164 1.411 . S
C178 C177 1.382 . S
C179 C163 1.411 . S
C179 C177 1.403 . S
C179 C180 1.489 . S
C180 C179 1.489 . S
C180 C181 1.383 . S
C180 C185 1.382 . S
C181 H152 0.950 . S
C181 C180 1.383 . S
C181 C182 1.395 . S
C182 H153 0.950 . S
C182 C181 1.395 . S
C182 C183 1.288 . S
C183 C182 1.288 . S
C183 C184 1.392 . S
C184 H154 0.951 . S
C184 C183 1.392 . S
C184 C185 1.392 . S
C185 H155 0.949 . S
C185 C180 1.382 . S
C185 C184 1.392 . S
C63 C6 1.521 1_455 S
C22 C111 1.672 . S
C34 C183 1.344 . S
C7 C87 1.474 . S
C135 C23 1.695 1_545 S
C35 C159 1.380 . S
C120 C36 1.670 . S
C9 C174 1.991 . S
C78 C21 1.486 . S
C126 C37 1.724 1_565 S
C168 C8 1.974 . S
C20 C72 1.467 1_455 S
