# Generated by pormake.
# Topology tsx, (6,3)-cn, num edge types: 1
# Building blocks:
#     Node 0, Type 0, BuildingBlock: LEVNOQ01_clean_sbu_1, # of connection points: 6
#     Node 1, Type 0, BuildingBlock: LEVNOQ01_clean_sbu_1, # of connection points: 6
#     Node 2, Type 1, BuildingBlock: PAMTOO_clean_linker_0, # of connection points: 3
#     Node 3, Type 1, BuildingBlock: PAMTOO_clean_linker_0, # of connection points: 3
#     Node 4, Type 1, BuildingBlock: PAMTOO_clean_linker_0, # of connection points: 3
#     Node 5, Type 1, BuildingBlock: PAMTOO_clean_linker_0, # of connection points: 3
#     Edge 6, Type (0, 1), BuildingBlock: EYOCIG_clean_linker_4, # of connection points: 2
#     Edge 7, Type (0, 1), BuildingBlock: EYOCIG_clean_linker_4, # of connection points: 2
#     Edge 8, Type (0, 1), BuildingBlock: EYOCIG_clean_linker_4, # of connection points: 2
#     Edge 9, Type (0, 1), BuildingBlock: EYOCIG_clean_linker_4, # of connection points: 2
#     Edge 10, Type (0, 1), BuildingBlock: EYOCIG_clean_linker_4, # of connection points: 2
#     Edge 11, Type (0, 1), BuildingBlock: EYOCIG_clean_linker_4, # of connection points: 2
#     Edge 12, Type (0, 1), BuildingBlock: EYOCIG_clean_linker_4, # of connection points: 2
#     Edge 13, Type (0, 1), BuildingBlock: EYOCIG_clean_linker_4, # of connection points: 2
#     Edge 14, Type (0, 1), BuildingBlock: EYOCIG_clean_linker_4, # of connection points: 2
#     Edge 15, Type (0, 1), BuildingBlock: EYOCIG_clean_linker_4, # of connection points: 2
#     Edge 16, Type (0, 1), BuildingBlock: EYOCIG_clean_linker_4, # of connection points: 2
#     Edge 17, Type (0, 1), BuildingBlock: EYOCIG_clean_linker_4, # of connection points: 2
# Relax obj value: 0.130
# Max RMSD: 0.142
# Mean RMSD: 0.137
data_MOF--net-tsx--node1-LEVNOQ01_clean_sbu_1--node2-PAMTOO_clean_linker_0--edge1-EYOCIG_clean_linker_4
_symmetry_space_group_name_H-M    P1
_symmetry_Int_Tables_number       1
_symmetry_cell_setting            triclinic
loop_
_symmetry_equiv_pos_as_xyz
'x, y, z'
_cell_length_a     14.584648
_cell_length_b     18.009614
_cell_length_c     27.996161
_cell_angle_alpha  88.071459
_cell_angle_beta   93.563524
_cell_angle_gamma 91.270391
loop_
_atom_site_label
_atom_site_type_symbol
_atom_site_fract_x
_atom_site_fract_y
_atom_site_fract_z
_atom_type_partial_charge
O0 O 0.19151 0.0244 0.09204 0.0
Mg1 Mg 0.26717 0.05308 0.03193 0.0
O2 O 0.05171 0.02014 0.05466 0.0
Mg3 Mg 0.067 0.05202 -0.02588 0.0
O4 O 0.19154 0.1296 -0.00796 0.0
O5 O 0.33054 0.15652 0.02487 0.0
O6 O 0.09011 0.08168 0.8936 0.0
O7 O 0.97508 0.1574 -0.01782 0.0
Mg8 Mg 0.88534 0.04342 0.90644 0.0
O9 O 0.94043 0.97371 0.95852 0.0
O10 O 0.96551 0.0527 0.84782 0.0
O11 O 0.84693 0.14235 0.93568 0.0
O12 O 0.80828 0.94952 0.91608 0.0
C13 C 0.23868 0.92444 -0.03023 0.0
C14 C 0.10543 0.01269 0.09227 0.0
C15 C 0.25747 0.17778 0.00045 0.0
C16 C 0.04824 0.07462 0.85259 0.0
C17 C 0.89629 0.17955 0.96536 0.0
C18 C 0.86928 0.93059 0.94929 0.0
O19 O 0.3014 0.96244 -0.00865 0.0
O20 O 0.15606 0.94686 0.96416 0.0
O21 O 0.69327 0.52576 0.59145 0.0
Mg22 Mg 0.76861 0.55352 0.53106 0.0
O23 O 0.55287 0.52238 0.55467 0.0
Mg24 Mg 0.56721 0.55362 0.47399 0.0
O25 O 0.6929 0.63005 0.49132 0.0
O26 O 0.83252 0.65673 0.52335 0.0
O27 O 0.58977 0.58263 0.39338 0.0
O28 O 0.47689 0.66004 0.48219 0.0
Mg29 Mg 0.38522 0.54645 0.40693 0.0
O30 O 0.43939 0.4762 0.45898 0.0
O31 O 0.46447 0.55449 0.34794 0.0
O32 O 0.34831 0.64592 0.43591 0.0
O33 O 0.30647 0.45364 0.41675 0.0
C34 C 0.73725 0.4246 0.46923 0.0
C35 C 0.60711 0.51475 0.59206 0.0
C36 C 0.75911 0.6781 0.49928 0.0
C37 C 0.54748 0.57571 0.35247 0.0
C38 C 0.39833 0.68284 0.46545 0.0
C39 C 0.36737 0.43396 0.44983 0.0
O40 O 0.80069 0.46234 0.49043 0.0
O41 O 0.65481 0.44755 0.46391 0.0
H42 H 0.16951 0.8826 0.34079 0.0
H43 H 0.98469 0.06352 0.31213 0.0
H44 H 0.07887 0.00747 0.45702 0.0
H45 H 0.85473 0.0494 0.42086 0.0
C46 C 0.88053 0.09626 0.3985 0.0
O47 O 0.97527 0.09817 0.40086 0.0
H48 H 0.85327 0.08926 0.36093 0.0
C49 C 0.1283 0.92624 0.35373 0.0
C50 C 0.13175 0.94083 0.40279 0.0
C51 C 0.0739 0.96977 0.32124 0.0
C52 C 0.02436 0.02821 0.33745 0.0
C53 C 0.02414 0.04115 0.3863 0.0
C54 C 0.07732 0.99688 0.41922 0.0
H55 H 0.19027 0.19767 0.61797 0.0
H56 H 0.98142 0.0255 0.61982 0.0
H57 H 0.05579 0.12651 0.4858 0.0
H58 H 0.83819 0.07542 0.49971 0.0
C59 C 0.8593 0.0271 0.523 0.0
O60 O 0.95371 0.0218 0.52656 0.0
H61 H 0.83304 0.03376 0.559 0.0
C62 C 0.1396 0.16271 0.59894 0.0
C63 C 0.13028 0.16679 0.54905 0.0
C64 C 0.08552 0.11262 0.6244 0.0
C65 C 0.02174 0.06591 0.60008 0.0
C66 C 1.01013 0.07098 0.55 0.0
C67 C 0.06362 0.12263 0.52445 0.0
H68 H 0.66979 0.38219 0.8406 0.0
H69 H 0.48736 0.56484 0.81249 0.0
H70 H 0.578 0.50527 0.95736 0.0
H71 H 0.35535 0.54937 0.92089 0.0
C72 C 0.38173 0.59621 0.89871 0.0
O73 O 0.47647 0.5977 0.9014 0.0
H74 H 0.35488 0.58952 0.86105 0.0
C75 C 0.62881 0.42586 0.85368 0.0
C76 C 0.63139 0.43944 0.90287 0.0
C77 C 0.57547 0.47037 0.82128 0.0
C78 C 0.52623 0.52881 0.83772 0.0
C79 C 0.52515 0.54075 0.88665 0.0
C80 C 0.57718 0.49549 0.91947 0.0
H81 H 0.69152 0.69587 0.11772 0.0
H82 H 0.48028 0.52565 0.11974 0.0
H83 H 0.55665 0.62498 -0.01438 0.0
H84 H 0.3376 0.57517 -0.00042 0.0
C85 C 0.35861 0.52703 0.02305 0.0
O86 O 0.453 0.5214 0.02649 0.0
H87 H 0.33261 0.53421 0.05906 0.0
C88 C 0.64044 0.66124 0.09871 0.0
C89 C 0.63141 0.66501 0.04883 0.0
C90 C 0.58553 0.61186 0.12421 0.0
C91 C 0.52122 0.56556 0.09995 0.0
C92 C 0.50987 0.57034 0.04986 0.0
C93 C 0.56421 0.62131 0.02426 0.0
C94 C 0.26111 0.32225 -0.0141 0.0
C95 C 0.24834 0.2558 -0.01103 0.0
C96 C 0.28847 0.39741 -0.00767 0.0
C97 C 0.31795 0.45788 0.00391 0.0
C98 C 0.28708 0.79406 0.94035 0.0
C99 C 0.26164 0.85308 0.95309 0.0
C100 C 0.32 0.72519 0.92675 0.0
C101 C 0.34845 0.66671 0.91479 0.0
C102 C 0.81346 0.81021 -0.00664 0.0
C103 C 0.85088 0.86494 -0.02259 0.0
C104 C 0.75198 0.75443 0.00892 0.0
C105 C 0.69454 0.71241 0.02404 0.0
C106 C 0.81369 0.30447 -0.02703 0.0
C107 C 0.86273 0.25123 -0.02448 0.0
C108 C 0.74838 0.35809 0.95694 0.0
C109 C 0.69325 0.39778 0.93535 0.0
C110 C 0.76264 0.82258 0.4849 0.0
C111 C 0.74988 0.75613 0.48793 0.0
C112 C 0.78987 0.89768 0.49158 0.0
C113 C 0.81911 0.95807 0.50346 0.0
C114 C 0.78467 0.29387 0.43993 0.0
C115 C 0.75933 0.353 0.45256 0.0
C116 C 0.81797 0.22504 0.42645 0.0
C117 C 0.84687 0.16667 0.41455 0.0
C118 C 0.31061 0.31358 0.49364 0.0
C119 C 0.34827 0.36824 0.47773 0.0
C120 C 0.24947 0.25752 0.50916 0.0
C121 C 0.19265 0.21491 0.52429 0.0
C122 C 0.31657 0.80807 0.47296 0.0
C123 C 0.36555 0.75478 0.47564 0.0
C124 C 0.25069 0.86124 0.45686 0.0
C125 C 0.19471 0.90018 0.43528 0.0
C126 C 0.05887 0.97109 0.17783 0.0
C127 C 0.06998 0.98928 0.13687 0.0
C128 C 0.06238 0.95854 0.22772 0.0
C129 C 0.07183 0.95894 0.27067 0.0
C130 C 0.10971 0.10054 0.76854 0.0
C131 C 0.0934 0.09157 0.80981 0.0
C132 C 0.10801 0.10586 0.71841 0.0
C133 C 0.09755 0.10877 0.67554 0.0
C134 C 0.56131 0.47363 0.67784 0.0
C135 C 0.57217 0.49171 0.63684 0.0
C136 C 0.56479 0.46065 0.72769 0.0
C137 C 0.57384 0.46031 0.77066 0.0
C138 C 0.60898 0.60055 0.26833 0.0
C139 C 0.59255 0.59195 0.3096 0.0
C140 C 0.60753 0.60558 0.21822 0.0
C141 C 0.59729 0.60828 0.17535 0.0
loop_
_geom_bond_atom_site_label_1
_geom_bond_atom_site_label_2
_geom_bond_distance
_geom_bond_site_symmetry_2
_ccdc_geom_bond_type
O0 Mg1 1.990 . S
O0 C14 1.253 . S
Mg1 O0 1.990 . S
Mg1 O4 2.180 . S
Mg1 O5 2.117 . S
Mg1 O19 2.030 1_545 S
O2 Mg3 2.072 1_554 S
O2 C14 1.260 . S
Mg3 O2 2.072 1_556 S
Mg3 O4 2.099 1_556 S
Mg3 O6 2.079 . S
Mg3 O7 2.071 1_456 S
Mg3 O9 2.099 1_445 S
Mg3 O20 2.079 1_545 S
O4 Mg1 2.180 . S
O4 Mg3 2.099 1_554 S
O4 C15 1.279 . S
O5 Mg1 2.117 . S
O5 C15 1.250 . S
O6 Mg3 2.079 . S
O6 C16 1.264 . S
O7 Mg3 2.071 1_654 S
O7 C17 1.256 1_554 S
Mg8 O9 2.180 1_545 S
Mg8 O10 2.030 . S
Mg8 O11 1.990 . S
Mg8 O12 2.117 1_545 S
O9 Mg3 2.099 1_665 S
O9 Mg8 2.180 1_565 S
O9 C18 1.279 1_556 S
O10 Mg8 2.030 . S
O10 C16 1.248 1_655 S
O11 Mg8 1.990 . S
O11 C17 1.253 . S
O12 Mg8 2.117 1_565 S
O12 C18 1.250 1_556 S
C13 O19 1.248 . S
C13 O20 1.264 1_554 S
C14 O0 1.253 . S
C14 O2 1.260 . S
C15 O4 1.279 . S
C15 O5 1.250 . S
C16 O6 1.264 . S
C16 O10 1.248 1_455 S
C17 O7 1.256 1_556 S
C17 O11 1.253 . S
C18 O9 1.279 1_554 S
C18 O12 1.250 1_554 S
O19 Mg1 2.030 1_565 S
O19 C13 1.248 . S
O20 Mg3 2.079 1_565 S
O20 C13 1.264 1_556 S
O21 Mg22 1.990 . S
O21 C35 1.253 . S
Mg22 O21 1.990 . S
Mg22 O25 2.180 . S
Mg22 O26 2.117 . S
Mg22 O40 2.030 . S
O23 Mg24 2.072 . S
O23 C35 1.260 . S
Mg24 O23 2.072 . S
Mg24 O25 2.099 . S
Mg24 O27 2.079 . S
Mg24 O28 2.072 . S
Mg24 O30 2.099 . S
Mg24 O41 2.079 . S
O25 Mg22 2.180 . S
O25 Mg24 2.099 . S
O25 C36 1.279 . S
O26 Mg22 2.117 . S
O26 C36 1.250 . S
O27 Mg24 2.079 . S
O27 C37 1.264 . S
O28 Mg24 2.072 . S
O28 C38 1.260 . S
Mg29 O30 2.180 . S
Mg29 O31 2.030 . S
Mg29 O32 1.990 . S
Mg29 O33 2.117 . S
O30 Mg24 2.099 . S
O30 Mg29 2.180 . S
O30 C39 1.279 . S
O31 Mg29 2.030 . S
O31 C37 1.248 . S
O32 Mg29 1.990 . S
O32 C38 1.253 . S
O33 Mg29 2.117 . S
O33 C39 1.250 . S
C34 O40 1.248 . S
C34 O41 1.264 . S
C35 O21 1.253 . S
C35 O23 1.260 . S
C36 O25 1.279 . S
C36 O26 1.250 . S
C37 O27 1.264 . S
C37 O31 1.248 . S
C38 O28 1.260 . S
C38 O32 1.253 . S
C39 O30 1.279 . S
C39 O33 1.250 . S
O40 Mg22 2.030 . S
O40 C34 1.248 . S
O41 Mg24 2.079 . S
O41 C34 1.264 . S
H42 C49 0.929 . S
H43 C52 0.930 1_655 S
H44 C54 0.929 . S
H45 C46 0.969 . S
C46 H45 0.969 . S
C46 O47 1.550 1_655 S
C46 H48 0.973 . S
O47 C46 1.550 1_455 S
O47 C53 1.412 . S
H48 C46 0.973 . S
C49 H42 0.929 . S
C49 C50 1.400 . S
C49 C51 1.364 . S
C50 C49 1.400 . S
C50 C54 1.377 . S
C51 C49 1.364 . S
C51 C52 1.374 1_565 S
C52 H43 0.930 1_455 S
C52 C51 1.374 1_545 S
C52 C53 1.383 . S
C53 O47 1.412 . S
C53 C52 1.383 . S
C53 C54 1.394 1_545 S
C54 H44 0.929 . S
C54 C50 1.377 . S
C54 C53 1.394 1_565 S
H55 C62 0.929 . S
H56 C65 0.930 . S
H57 C67 0.929 . S
H58 C59 0.969 1_545 S
C59 H58 0.969 1_565 S
C59 O60 1.550 1_565 S
C59 H61 0.973 . S
O60 C59 1.550 1_545 S
O60 C66 1.412 . S
H61 C59 0.973 . S
C62 H55 0.929 . S
C62 C63 1.400 . S
C62 C64 1.364 . S
C63 C62 1.400 . S
C63 C67 1.377 . S
C64 C62 1.364 . S
C64 C65 1.374 1_455 S
C65 H56 0.930 . S
C65 C64 1.374 1_655 S
C65 C66 1.383 . S
C66 O60 1.412 . S
C66 C65 1.383 . S
C66 C67 1.394 1_655 S
C67 H57 0.929 . S
C67 C63 1.377 . S
C67 C66 1.394 1_455 S
H68 C75 0.929 . S
H69 C78 0.930 . S
H70 C80 0.929 1_554 S
H71 C72 0.969 . S
C72 H71 0.969 . S
C72 O73 1.550 . S
C72 H74 0.973 . S
O73 C72 1.550 . S
O73 C79 1.412 . S
H74 C72 0.973 . S
C75 H68 0.929 . S
C75 C76 1.400 . S
C75 C77 1.364 . S
C76 C75 1.400 . S
C76 C80 1.377 . S
C77 C75 1.364 . S
C77 C78 1.374 . S
C78 H69 0.930 . S
C78 C77 1.374 . S
C78 C79 1.383 . S
C79 O73 1.412 . S
C79 C78 1.383 . S
C79 C80 1.394 . S
C80 H70 0.929 1_556 S
C80 C76 1.377 . S
C80 C79 1.394 . S
H81 C88 0.929 . S
H82 C91 0.930 . S
H83 C93 0.929 1_556 S
H84 C85 0.969 . S
C85 H84 0.969 . S
C85 O86 1.550 . S
C85 H87 0.973 . S
O86 C85 1.550 . S
O86 C92 1.412 . S
H87 C85 0.973 . S
C88 H81 0.929 . S
C88 C89 1.400 . S
C88 C90 1.364 . S
C89 C88 1.400 . S
C89 C93 1.377 . S
C90 C88 1.364 . S
C90 C91 1.374 . S
C91 H82 0.930 . S
C91 C90 1.374 . S
C91 C92 1.383 . S
C92 O86 1.412 . S
C92 C91 1.383 . S
C92 C93 1.394 . S
C93 H83 0.929 1_554 S
C93 C89 1.377 . S
C93 C92 1.394 . S
C94 C95 1.170 . S
C94 C96 1.380 . S
C95 C94 1.170 . S
C96 C94 1.380 . S
C96 C97 1.170 . S
C97 C96 1.170 . S
C98 C99 1.170 . S
C98 C100 1.380 . S
C99 C98 1.170 . S
C100 C98 1.380 . S
C100 C101 1.170 1_554 S
C101 C100 1.170 1_556 S
C102 C103 1.170 . S
C102 C104 1.380 . S
C103 C102 1.170 . S
C104 C102 1.380 . S
C104 C105 1.170 . S
C105 C104 1.170 . S
C106 C107 1.170 . S
C106 C108 1.380 . S
C107 C106 1.170 . S
C108 C106 1.380 . S
C108 C109 1.170 . S
C109 C108 1.170 . S
C110 C111 1.170 . S
C110 C112 1.380 . S
C111 C110 1.170 . S
C112 C110 1.380 . S
C112 C113 1.170 . S
C113 C112 1.170 . S
C114 C115 1.170 . S
C114 C116 1.380 . S
C115 C114 1.170 . S
C116 C114 1.380 . S
C116 C117 1.170 . S
C117 C116 1.170 . S
C118 C119 1.170 . S
C118 C120 1.380 . S
C119 C118 1.170 . S
C120 C118 1.380 . S
C120 C121 1.170 . S
C121 C120 1.170 . S
C122 C123 1.170 . S
C122 C124 1.380 . S
C123 C122 1.170 . S
C124 C122 1.380 . S
C124 C125 1.170 . S
C125 C124 1.170 . S
C126 C127 1.170 1_565 S
C126 C128 1.380 . S
C127 C126 1.170 1_545 S
C128 C126 1.380 . S
C128 C129 1.170 . S
C129 C128 1.170 . S
C130 C131 1.170 . S
C130 C132 1.380 . S
C131 C130 1.170 . S
C132 C130 1.380 . S
C132 C133 1.170 . S
C133 C132 1.170 . S
C134 C135 1.170 . S
C134 C136 1.380 . S
C135 C134 1.170 . S
C136 C134 1.380 . S
C136 C137 1.170 . S
C137 C136 1.170 . S
C138 C139 1.170 . S
C138 C140 1.380 . S
C139 C138 1.170 . S
C140 C138 1.380 . S
C140 C141 1.170 . S
C141 C140 1.170 . S
C97 C85 1.343 . S
C95 C15 1.317 . S
C99 C13 1.483 . S
C101 C72 1.387 . S
C103 C18 1.343 . S
C105 C89 1.523 . S
C107 C17 1.399 . S
C109 C76 1.474 . S
C111 C36 1.345 . S
C113 C59 1.381 . S
C115 C34 1.498 . S
C117 C46 1.345 . S
C121 C63 1.545 . S
C119 C39 1.272 . S
C125 C50 1.485 . S
C123 C38 1.440 . S
C127 C14 1.561 . S
C129 C51 1.610 . S
C131 C16 1.417 . S
C133 C64 1.482 . S
C137 C77 1.607 . S
C135 C35 1.527 . S
C139 C37 1.414 . S
C141 C90 1.482 . S
