# Generated by pormake.
# Topology tsx, (6,3)-cn, num edge types: 1
# Building blocks:
#     Node 0, Type 0, BuildingBlock: JUFBIX_clean_sbu_0, # of connection points: 6
#     Node 1, Type 0, BuildingBlock: JUFBIX_clean_sbu_0, # of connection points: 6
#     Node 2, Type 1, BuildingBlock: QEWDON_clean_linker_0, # of connection points: 3
#     Node 3, Type 1, BuildingBlock: QEWDON_clean_linker_0, # of connection points: 3
#     Node 4, Type 1, BuildingBlock: QEWDON_clean_linker_0, # of connection points: 3
#     Node 5, Type 1, BuildingBlock: QEWDON_clean_linker_0, # of connection points: 3
#     Edge 6, Type (0, 1), None
#     Edge 7, Type (0, 1), None
#     Edge 8, Type (0, 1), None
#     Edge 9, Type (0, 1), None
#     Edge 10, Type (0, 1), None
#     Edge 11, Type (0, 1), None
#     Edge 12, Type (0, 1), None
#     Edge 13, Type (0, 1), None
#     Edge 14, Type (0, 1), None
#     Edge 15, Type (0, 1), None
#     Edge 16, Type (0, 1), None
#     Edge 17, Type (0, 1), None
# Relax obj value: 0.106
# Max RMSD: 0.163
# Mean RMSD: 0.143
data_MOF--net-tsx--node1-JUFBIX_clean_sbu_0--node2-QEWDON_clean_linker_0--edge1-none
_symmetry_space_group_name_H-M    P1
_symmetry_Int_Tables_number       1
_symmetry_cell_setting            triclinic
loop_
_symmetry_equiv_pos_as_xyz
'x, y, z'
_cell_length_a     8.9605961
_cell_length_b     13.263707
_cell_length_c     13.920656
_cell_angle_alpha  89.988565
_cell_angle_beta   121.53349
_cell_angle_gamma 107.88635
loop_
_atom_site_label
_atom_site_type_symbol
_atom_site_fract_x
_atom_site_fract_y
_atom_site_fract_z
_atom_type_partial_charge
Co0 Co 0.29289 0.95991 0.06068 0.0
C1 C 1.07623 0.97961 0.82877 0.0
Co2 Co 1.09468 0.04584 1.01726 0.0
C3 C 0.53542 0.80438 0.14406 0.0
C4 C 0.61489 0.93871 0.07772 0.0
N5 N 0.47407 0.88474 0.08961 0.0
N6 N 0.70546 0.80813 0.16253 0.0
C7 C 0.75577 0.8971 0.12663 0.0
H8 H 0.46034 0.74696 0.17324 0.0
H9 H 0.61733 0.00734 1.03822 0.0
C10 C 0.34802 0.02859 0.26445 0.0
N11 N 0.96155 0.12762 1.01668 0.0
C12 C 0.94018 0.21299 0.96615 0.0
C13 C 0.93062 0.14167 0.10016 0.0
N14 N 0.89269 0.27578 1.01344 0.0
C15 C 0.87952 0.2285 0.09448 0.0
C16 C 0.88753 0.82415 0.96374 0.0
O17 O 0.38542 0.968 0.21707 0.0
O18 O 0.22001 0.06456 0.19539 0.0
O19 O 0.89142 0.91919 0.97868 0.0
O20 O 1.05291 0.81864 1.00465 0.0
O21 O 0.99278 0.02766 0.85344 0.0
H22 H 0.96428 0.10154 0.17153 0.0
H23 H 0.98105 0.23568 0.90616 0.0
O24 O 0.20695 0.95235 0.90788 0.0
O25 O 0.49451 0.11216 0.10003 0.0
O26 O 0.26557 0.17034 1.03455 0.0
C27 C 0.43056 0.18922 0.06498 0.0
H28 H 0.89225 0.93166 0.14152 0.0
H29 H 0.85342 0.26074 0.15289 0.0
Co30 Co 0.79294 0.45992 0.56069 0.0
C31 C 0.57628 0.47962 0.32878 0.0
Co32 Co 0.59471 0.54584 0.51727 0.0
C33 C 1.03547 0.30438 0.64406 0.0
C34 C 1.11494 0.43872 0.57773 0.0
N35 N 0.97413 0.38475 0.58961 0.0
N36 N 0.20551 0.30813 0.66253 0.0
C37 C 0.25582 0.39711 0.62664 0.0
H38 H 0.96039 0.24696 0.67324 0.0
H39 H 1.11739 0.50735 0.53823 0.0
C40 C 0.84807 0.5286 0.76446 0.0
N41 N 0.46159 0.62763 0.51669 0.0
C42 C 0.44026 0.71301 0.46616 0.0
C43 C 0.43068 0.64169 0.60017 0.0
N44 N 0.3928 0.77581 0.51347 0.0
C45 C 0.37963 0.72854 0.59451 0.0
C46 C 0.38758 0.32415 0.46375 0.0
O47 O 0.88548 0.46801 0.71708 0.0
O48 O 0.72004 0.56456 0.6954 0.0
O49 O 0.39145 0.4192 0.47869 0.0
O50 O 0.55296 0.31865 0.50467 0.0
O51 O 0.49283 0.52766 0.35345 0.0
H52 H 0.46432 0.60155 0.67154 0.0
H53 H 0.48111 0.73569 0.40617 0.0
O54 O 0.707 0.45235 0.40789 0.0
O55 O 0.99456 0.61217 0.60004 0.0
O56 O 0.76561 0.67033 0.53457 0.0
C57 C 0.93061 0.68923 0.565 0.0
H58 H 0.39231 0.43168 0.64153 0.0
H59 H 0.35356 0.7608 0.65292 0.0
H60 H 0.60764 0.17394 0.49395 0.0
C61 C 0.51669 0.09988 0.49287 0.0
C62 C 0.40241 0.01862 0.38707 0.0
C63 C 0.52696 0.07413 0.59856 0.0
H64 H 0.28664 0.84775 0.32641 0.0
C65 C 0.35486 0.91224 0.39913 0.0
C66 C 0.41255 0.88516 0.50493 0.0
C67 C 0.49452 0.96383 0.60248 0.0
C68 C 0.50781 0.13854 0.68604 0.0
H69 H 0.52684 0.93546 0.6807 0.0
C70 C 0.43757 0.22574 0.66905 0.0
C71 C 0.31932 0.23789 0.70657 0.0
C72 C 0.5209 0.0955 0.78183 0.0
H73 H 0.59542 0.04123 0.81795 0.0
C74 C 0.44152 0.12253 0.83702 0.0
H75 H 0.50488 0.29479 0.65023 0.0
C76 C 0.32917 0.18541 0.79431 0.0
H77 H 0.25502 0.19653 0.83215 0.0
H78 H 0.46025 0.08936 0.91043 0.0
H79 H 0.9604 0.07785 0.63612 0.0
C80 C 0.98627 0.00587 0.62511 0.0
C81 C 1.02566 0.94417 0.7114 0.0
C82 C 1.00319 0.98214 0.53252 0.0
H83 H 1.04467 0.79413 0.7538 0.0
C84 C 1.04969 0.84815 0.69627 0.0
C85 C 1.03768 0.80916 0.59922 0.0
C86 C 1.02543 0.8811 0.51933 0.0
C87 C 0.9974 0.06653 0.45526 0.0
H88 H 1.02748 0.85847 0.44607 0.0
C89 C 1.14879 0.1212 0.44318 0.0
C90 C 0.19261 0.23128 0.42332 0.0
C91 C 0.85739 0.10989 0.41463 0.0
H92 H 0.73833 0.07186 0.42008 0.0
C93 C 0.87395 0.20493 0.37211 0.0
H94 H 0.22648 0.07458 0.45681 0.0
C95 C 1.03842 0.26554 0.37854 0.0
H96 H 1.04802 0.34389 0.35469 0.0
H97 H 0.76576 0.23728 0.34473 0.0
H98 H 1.10759 0.67393 0.99398 0.0
C99 C 1.01665 0.59986 0.99287 0.0
C100 C 0.90244 0.5186 0.88708 0.0
C101 C 1.0268 0.57409 0.09853 0.0
H102 H 0.78674 0.34775 0.8264 0.0
C103 C 0.85488 0.41222 0.89911 0.0
C104 C 0.91241 0.38513 1.00489 0.0
C105 C 0.99424 0.46378 0.10243 0.0
C106 C 1.00776 0.63855 0.18604 0.0
H107 H 1.02636 0.4354 0.18062 0.0
C108 C 0.93748 0.72573 0.16903 0.0
C109 C 0.81927 0.73788 0.20657 0.0
C110 C 1.02094 0.59554 0.28186 0.0
H111 H 1.0955 0.54129 0.31798 0.0
C112 C 0.94157 0.62257 0.33706 0.0
H113 H 1.00479 0.79478 0.15021 0.0
C114 C 0.82918 0.68543 0.29433 0.0
H115 H 0.75505 0.69656 0.33218 0.0
H116 H 0.96033 0.58942 0.41048 0.0
H117 H 0.46044 0.57786 0.13614 0.0
C118 C 0.4863 0.50588 0.12512 0.0
C119 C 0.52569 0.44418 0.2114 0.0
C120 C 0.50319 0.48215 1.03252 0.0
H121 H 0.54468 0.29413 0.25379 0.0
C122 C 0.5497 0.34815 0.19627 0.0
C123 C 0.53764 0.30916 0.0992 0.0
C124 C 0.52539 0.38109 1.01931 0.0
C125 C 0.49739 0.56653 0.95526 0.0
H126 H 0.5274 0.35846 0.94604 0.0
C127 C 0.64874 0.6212 0.94314 0.0
C128 C 0.69257 0.73128 0.9233 0.0
C129 C 0.3574 0.60991 0.91467 0.0
H130 H 0.23837 0.57189 0.92015 0.0
C131 C 0.37394 0.70495 0.87215 0.0
H132 H 0.72635 0.57454 0.95666 0.0
C133 C 0.53839 0.76555 0.87855 0.0
H134 H 0.548 0.84391 0.85472 0.0
H135 H 0.26578 0.73732 0.84481 0.0
loop_
_geom_bond_atom_site_label_1
_geom_bond_atom_site_label_2
_geom_bond_distance
_geom_bond_site_symmetry_2
_ccdc_geom_bond_type
Co0 N5 2.057 . S
Co0 O17 2.021 . S
Co0 O20 2.062 1_455 S
Co0 O24 2.117 1_554 S
Co0 O25 2.020 1_565 S
C1 O21 1.259 . S
C1 O24 1.258 1_645 S
Co2 N11 2.057 1_556 S
Co2 O18 2.117 1_656 S
Co2 O19 2.020 1_545 S
Co2 O21 2.021 . S
Co2 O26 2.062 1_656 S
C3 N5 1.316 . S
C3 N6 1.347 . S
C3 H8 0.931 . S
C4 N5 1.375 1_556 S
C4 C7 1.350 . S
C4 H9 0.930 . S
N5 Co0 2.057 . S
N5 C3 1.316 . S
N5 C4 1.375 1_554 S
N6 C3 1.347 . S
N6 C7 1.373 1_554 S
C7 C4 1.350 . S
C7 N6 1.373 1_556 S
C7 H28 0.931 . S
H8 C3 0.931 . S
H9 C4 0.930 . S
C10 O17 1.259 1_545 S
C10 O18 1.258 . S
N11 Co2 2.057 1_554 S
N11 C12 1.316 1_554 S
N11 C13 1.375 . S
C12 N11 1.316 1_556 S
C12 N14 1.347 . S
C12 H23 0.931 . S
C13 N11 1.375 . S
C13 C15 1.350 . S
C13 H22 0.930 . S
N14 C12 1.347 . S
N14 C15 1.373 1_556 S
C15 C13 1.350 . S
C15 N14 1.373 1_554 S
C15 H29 0.931 . S
C16 O19 1.256 . S
C16 O20 1.255 1_556 S
O17 Co0 2.021 . S
O17 C10 1.259 1_565 S
O18 Co2 2.117 1_454 S
O18 C10 1.258 . S
O19 Co2 2.020 1_565 S
O19 C16 1.256 . S
O20 Co0 2.062 1_655 S
O20 C16 1.255 1_554 S
O21 C1 1.259 . S
O21 Co2 2.021 . S
H22 C13 0.930 . S
H23 C12 0.931 . S
O24 Co0 2.117 1_556 S
O24 C1 1.258 1_465 S
O25 Co0 2.020 1_545 S
O25 C27 1.256 . S
O26 Co2 2.062 1_454 S
O26 C27 1.255 . S
C27 O25 1.256 . S
C27 O26 1.255 . S
H28 C7 0.931 . S
H29 C15 0.931 . S
Co30 N35 2.057 . S
Co30 O47 2.021 . S
Co30 O50 2.062 . S
Co30 O54 2.117 . S
Co30 O55 2.020 . S
C31 O51 1.259 . S
C31 O54 1.258 . S
Co32 N41 2.057 . S
Co32 O48 2.117 . S
Co32 O49 2.020 . S
Co32 O51 2.021 . S
Co32 O56 2.062 . S
C33 N35 1.316 . S
C33 N36 1.347 . S
C33 H38 0.931 . S
C34 N35 1.375 . S
C34 C37 1.350 . S
C34 H39 0.930 . S
N35 Co30 2.057 . S
N35 C33 1.316 . S
N35 C34 1.375 . S
N36 C33 1.347 . S
N36 C37 1.373 . S
C37 C34 1.350 . S
C37 N36 1.373 . S
C37 H58 0.931 . S
H38 C33 0.931 . S
H39 C34 0.930 . S
C40 O47 1.259 . S
C40 O48 1.258 . S
N41 Co32 2.057 . S
N41 C42 1.316 . S
N41 C43 1.375 . S
C42 N41 1.316 . S
C42 N44 1.347 . S
C42 H53 0.931 . S
C43 N41 1.375 . S
C43 C45 1.350 . S
C43 H52 0.930 . S
N44 C42 1.347 . S
N44 C45 1.373 . S
C45 C43 1.350 . S
C45 N44 1.373 . S
C45 H59 0.931 . S
C46 O49 1.256 . S
C46 O50 1.255 . S
O47 Co30 2.021 . S
O47 C40 1.259 . S
O48 Co32 2.117 . S
O48 C40 1.258 . S
O49 Co32 2.020 . S
O49 C46 1.256 . S
O50 Co30 2.062 . S
O50 C46 1.255 . S
O51 C31 1.259 . S
O51 Co32 2.021 . S
H52 C43 0.930 . S
H53 C42 0.931 . S
O54 Co30 2.117 . S
O54 C31 1.258 . S
O55 Co30 2.020 . S
O55 C57 1.256 . S
O56 Co32 2.062 . S
O56 C57 1.255 . S
C57 O55 1.256 . S
C57 O56 1.255 . S
H58 C37 0.931 . S
H59 C45 0.931 . S
H60 C61 0.949 . S
C61 H60 0.949 . S
C61 C62 1.395 1_545 S
C61 C63 1.391 . S
C62 C61 1.395 1_565 S
C62 C65 1.390 . S
C63 C61 1.391 . S
C63 C67 1.387 1_545 S
C63 C68 1.491 . S
H64 C65 0.950 . S
C65 C62 1.390 . S
C65 H64 0.950 . S
C65 C66 1.378 . S
C66 C65 1.378 . S
C66 C67 1.409 . S
C67 C63 1.387 1_565 S
C67 C66 1.409 . S
C67 H69 0.951 . S
C68 C63 1.491 . S
C68 C70 1.382 1_455 S
C68 C72 1.404 . S
H69 C67 0.951 . S
C70 C68 1.382 1_655 S
C70 C71 1.390 . S
C70 H75 0.949 . S
C71 C70 1.390 . S
C71 C76 1.399 1_655 S
C72 C68 1.404 . S
C72 H73 0.950 . S
C72 C74 1.375 . S
H73 C72 0.950 . S
C74 C72 1.375 . S
C74 C76 1.382 . S
C74 H78 0.950 . S
H75 C70 0.949 . S
C76 C71 1.399 1_455 S
C76 C74 1.382 . S
C76 H77 0.952 . S
H77 C76 0.952 . S
H78 C74 0.950 . S
H79 C80 0.949 . S
C80 H79 0.949 . S
C80 C81 1.395 1_445 S
C80 C82 1.391 1_455 S
C81 C80 1.395 1_665 S
C81 C84 1.390 . S
C82 C80 1.391 1_655 S
C82 C86 1.387 1_545 S
C82 C87 1.491 1_655 S
H83 C84 0.950 . S
C84 C81 1.390 . S
C84 H83 0.950 . S
C84 C85 1.378 . S
C85 C84 1.378 . S
C85 C86 1.409 . S
C86 C82 1.387 1_565 S
C86 C85 1.409 . S
C86 H88 0.951 . S
C87 C82 1.491 1_455 S
C87 C89 1.382 . S
C87 C91 1.404 1_455 S
H88 C86 0.951 . S
C89 C87 1.382 . S
C89 C90 1.390 . S
C89 H94 0.949 . S
C90 C89 1.390 . S
C90 C95 1.399 . S
C91 C87 1.404 1_655 S
C91 H92 0.950 . S
C91 C93 1.375 . S
H92 C91 0.950 . S
C93 C91 1.375 . S
C93 C95 1.382 1_655 S
C93 H97 0.950 . S
H94 C89 0.949 . S
C95 C90 1.399 . S
C95 C93 1.382 1_455 S
C95 H96 0.952 . S
H96 C95 0.952 . S
H97 C93 0.950 . S
H98 C99 0.949 . S
C99 H98 0.949 . S
C99 C100 1.395 . S
C99 C101 1.391 . S
C100 C99 1.395 . S
C100 C103 1.390 . S
C101 C99 1.391 . S
C101 C105 1.387 1_556 S
C101 C106 1.491 1_556 S
H102 C103 0.950 . S
C103 C100 1.390 . S
C103 H102 0.950 . S
C103 C104 1.378 . S
C104 C103 1.378 . S
C104 C105 1.409 1_556 S
C105 C101 1.387 1_554 S
C105 C104 1.409 1_554 S
C105 H107 0.951 . S
C106 C101 1.491 1_554 S
C106 C108 1.382 . S
C106 C110 1.404 . S
H107 C105 0.951 . S
C108 C106 1.382 . S
C108 C109 1.390 . S
C108 H113 0.949 1_554 S
C109 C108 1.390 . S
C109 C114 1.399 . S
C110 C106 1.404 . S
C110 H111 0.950 . S
C110 C112 1.375 . S
H111 C110 0.950 . S
C112 C110 1.375 . S
C112 C114 1.382 . S
C112 H116 0.950 . S
H113 C108 0.949 1_556 S
C114 C109 1.399 . S
C114 C112 1.382 . S
C114 H115 0.952 . S
H115 C114 0.952 . S
H116 C112 0.950 . S
H117 C118 0.949 . S
C118 H117 0.949 . S
C118 C119 1.395 . S
C118 C120 1.391 . S
C119 C118 1.395 . S
C119 C122 1.390 . S
C120 C118 1.391 . S
C120 C124 1.387 1_554 S
C120 C125 1.491 1_554 S
H121 C122 0.950 . S
C122 C119 1.390 . S
C122 H121 0.950 . S
C122 C123 1.378 . S
C123 C122 1.378 . S
C123 C124 1.409 1_554 S
C124 C120 1.387 1_556 S
C124 C123 1.409 1_556 S
C124 H126 0.951 . S
C125 C120 1.491 1_556 S
C125 C127 1.382 . S
C125 C129 1.404 . S
H126 C124 0.951 . S
C127 C125 1.382 . S
C127 C128 1.390 . S
C127 H132 0.949 1_556 S
C128 C127 1.390 . S
C128 C133 1.399 . S
C129 C125 1.404 . S
C129 H130 0.950 . S
C129 C131 1.375 . S
H130 C129 0.950 . S
C131 C129 1.375 . S
C131 C133 1.382 . S
C131 H135 0.950 . S
H132 C127 0.949 1_554 S
C133 C128 1.399 . S
C133 C131 1.382 . S
C133 H134 0.952 . S
H134 C133 0.952 . S
H135 C131 0.950 . S
C123 C27 1.574 . S
N6 C109 1.606 . S
C16 C128 1.795 . S
N14 C104 1.528 . S
C57 C85 1.574 . S
N36 C71 1.606 . S
C90 C46 1.795 . S
C66 N44 1.528 . S
C10 C62 1.649 1_545 S
C1 C81 1.754 1_545 S
C100 C40 1.649 . S
C31 C119 1.754 . S
