# Generated by pormake.
# Topology nom, (4,4)-cn, num edge types: 1
# Building blocks:
#     Node 0, Type 0, BuildingBlock: GIZVER_clean_linker_0, # of connection points: 4
#     Node 1, Type 0, BuildingBlock: GIZVER_clean_linker_0, # of connection points: 4
#     Node 2, Type 0, BuildingBlock: GIZVER_clean_linker_0, # of connection points: 4
#     Node 3, Type 0, BuildingBlock: GIZVER_clean_linker_0, # of connection points: 4
#     Node 4, Type 0, BuildingBlock: GIZVER_clean_linker_0, # of connection points: 4
#     Node 5, Type 0, BuildingBlock: GIZVER_clean_linker_0, # of connection points: 4
#     Node 6, Type 1, BuildingBlock: TATPOV_clean_sbu_0, # of connection points: 4
#     Node 7, Type 1, BuildingBlock: TATPOV_clean_sbu_0, # of connection points: 4
#     Node 8, Type 1, BuildingBlock: TATPOV_clean_sbu_0, # of connection points: 4
#     Node 9, Type 1, BuildingBlock: TATPOV_clean_sbu_0, # of connection points: 4
#     Node 10, Type 1, BuildingBlock: TATPOV_clean_sbu_0, # of connection points: 4
#     Node 11, Type 1, BuildingBlock: TATPOV_clean_sbu_0, # of connection points: 4
#     Edge 12, Type (0, 1), None
#     Edge 13, Type (0, 1), None
#     Edge 14, Type (0, 1), None
#     Edge 15, Type (0, 1), None
#     Edge 16, Type (0, 1), None
#     Edge 17, Type (0, 1), None
#     Edge 18, Type (0, 1), None
#     Edge 19, Type (0, 1), None
#     Edge 20, Type (0, 1), None
#     Edge 21, Type (0, 1), None
#     Edge 22, Type (0, 1), None
#     Edge 23, Type (0, 1), None
#     Edge 24, Type (0, 1), None
#     Edge 25, Type (0, 1), None
#     Edge 26, Type (0, 1), None
#     Edge 27, Type (0, 1), None
#     Edge 28, Type (0, 1), None
#     Edge 29, Type (0, 1), None
#     Edge 30, Type (0, 1), None
#     Edge 31, Type (0, 1), None
#     Edge 32, Type (0, 1), None
#     Edge 33, Type (0, 1), None
#     Edge 34, Type (0, 1), None
#     Edge 35, Type (0, 1), None
# Relax obj value: 0.022
# Max RMSD: 0.125
# Mean RMSD: 0.095
data_MOF--net-nom--node1-TATPOV_clean_sbu_0--node2-GIZVER_clean_linker_0--edge1-none
_symmetry_space_group_name_H-M    P1
_symmetry_Int_Tables_number       1
_symmetry_cell_setting            triclinic
loop_
_symmetry_equiv_pos_as_xyz
'x, y, z'
_cell_length_a     22.410307
_cell_length_b     22.525576
_cell_length_c     21.984154
_cell_angle_alpha  89.380692
_cell_angle_beta   88.979507
_cell_angle_gamma 122.40515
loop_
_atom_site_label
_atom_site_type_symbol
_atom_site_fract_x
_atom_site_fract_y
_atom_site_fract_z
_atom_type_partial_charge
H0 H 0.88381 0.57485 0.36711 0.0
H1 H 0.9694 0.56097 0.19571 0.0
H2 H 0.75556 0.40428 0.24857 0.0
H3 H -0.00436 0.6688 0.33379 0.0
H4 H 0.01287 0.67605 0.25332 0.0
H5 H 0.01892 0.58293 0.3936 0.0
H6 H 0.22618 0.62865 0.34554 0.0
H7 H 0.11403 0.67989 0.22062 0.0
C8 C 0.87871 0.54543 0.3267 0.0
C9 C 0.81393 0.48475 0.31427 0.0
C10 C 0.93489 0.57206 0.2844 0.0
C11 C 0.92719 0.53699 0.23014 0.0
C12 C 0.86258 0.4762 0.21689 0.0
C13 C 0.80724 0.44797 0.26074 0.0
C14 C 0.00095 0.64144 0.29418 0.0
C15 C 0.0594 0.6295 0.30482 0.0
C16 C 0.06122 0.59908 0.35996 0.0
C17 C 0.12117 0.59824 0.37524 0.0
C18 C 0.17728 0.6234 0.33208 0.0
C19 C 0.17576 0.6547 0.27663 0.0
C20 C 0.11514 0.65445 0.26238 0.0
H21 H 0.31755 0.90625 0.52653 0.0
H22 H 0.43876 0.99624 0.36103 0.0
H23 H 0.38958 0.79355 0.42388 0.0
H24 H 0.32641 0.00792 0.48192 0.0
H25 H 0.35423 0.02857 0.40309 0.0
H26 H 0.42519 0.0377 0.55794 0.0
H27 H 0.61742 0.23575 0.51989 0.0
H28 H 0.46147 0.13779 0.38209 0.0
C29 C 0.34872 0.9041 0.48933 0.0
C30 C 0.35398 0.8452 0.48332 0.0
C31 C 0.37889 0.95795 0.44497 0.0
C32 C 0.41803 0.9553 0.39627 0.0
C33 C 0.42073 0.89545 0.38731 0.0
C34 C 0.39204 0.84207 0.43276 0.0
C35 C 0.36893 0.01841 0.44835 0.0
C36 C 0.43758 0.0803 0.46734 0.0
C37 C 0.46019 0.07988 0.52601 0.0
C38 C 0.52483 0.13566 0.54527 0.0
C39 C 0.56902 0.19054 0.50388 0.0
C40 C 0.54546 0.19315 0.4456 0.0
C41 C 0.48022 0.13675 0.42696 0.0
H42 H 0.35368 0.50082 0.53961 0.0
H43 H 0.41355 0.46291 0.71324 0.0
H44 H 0.4195 0.65395 0.67934 0.0
H45 H 0.34054 0.39048 0.55983 0.0
H46 H 0.33048 0.36545 0.63864 0.0
H47 H 0.46523 0.45715 0.51183 0.0
H48 H 0.59417 0.38276 0.57505 0.0
H49 H 0.41335 0.3431 0.68286 0.0
C50 C 0.37567 0.51947 0.58399 0.0
C51 C 0.38763 0.58379 0.60413 0.0
C52 C 0.38752 0.47694 0.62266 0.0
C53 C 0.41029 0.49854 0.68191 0.0
C54 C 0.42102 0.56195 0.70297 0.0
C55 C 0.41441 0.60647 0.66237 0.0
C56 C 0.36798 0.40483 0.60395 0.0
C57 C 0.43326 0.40187 0.59861 0.0
C58 C 0.47801 0.43199 0.54711 0.0
C59 C 0.53591 0.42512 0.53882 0.0
C60 C 0.55105 0.39059 0.58348 0.0
C61 C 0.50763 0.3614 0.63629 0.0
C62 C 0.44869 0.36743 0.64354 0.0
H63 H 0.85477 0.37126 0.72262 0.0
H64 H 0.94843 0.4511 0.89632 0.0
H65 H 0.75033 0.4264 0.85564 0.0
H66 H 0.95553 0.3682 0.74956 0.0
H67 H 0.96968 0.36793 0.82903 0.0
H68 H 0.01448 0.49317 0.69529 0.0
H69 H 0.23274 0.61993 0.7417 0.0
H70 H 0.08425 0.45091 0.86248 0.0
C71 C 0.85458 0.39356 0.76599 0.0
C72 C 0.79649 0.39829 0.78332 0.0
C73 C 0.91075 0.41421 0.80607 0.0
C74 C 0.9077 0.43885 0.86388 0.0
C75 C 0.84969 0.44312 0.88108 0.0
C76 C 0.79572 0.4247 0.84046 0.0
C77 C 0.9681 0.40014 0.79111 0.0
C78 C 0.04017 0.46689 0.78168 0.0
C79 C 0.05561 0.5075 0.72786 0.0
C80 C 0.12523 0.56227 0.71346 0.0
C81 C 0.17878 0.57898 0.75438 0.0
C82 C 0.16454 0.53989 0.80879 0.0
C83 C 0.095 0.48361 0.82215 0.0
H84 H 0.63205 0.13382 0.02409 0.0
H85 H 0.53543 0.0466 0.85283 0.0
H86 H 0.55749 0.23739 0.91118 0.0
H87 H 0.63831 0.03787 -0.01908 0.0
H88 H 0.61603 0.01654 0.90313 0.0
H89 H 0.53089 0.99093 0.0586 0.0
H90 H 0.37416 0.77427 0.03137 0.0
H91 H 0.51747 0.89967 0.88345 0.0
C92 C 0.60464 0.1348 -0.01563 0.0
C93 C 0.59592 0.19173 -0.0257 0.0
C94 C 0.58078 0.08073 0.94127 0.0
C95 C 0.54952 0.08504 0.88797 0.0
C96 C 0.54146 0.14168 0.87786 0.0
C97 C 0.5623 0.19295 0.92151 0.0
C98 C 0.596 0.02308 0.94761 0.0
C99 C 0.53095 0.95381 -0.03172 0.0
C100 C 0.50555 0.94664 0.0285 0.0
C101 C 0.4497 0.88164 0.05069 0.0
C102 C 0.4172 0.82421 0.01266 0.0
C103 C 0.44006 0.82977 0.95195 0.0
C104 C 0.49793 0.89492 0.92981 0.0
H105 H 0.64178 0.56342 0.04366 0.0
H106 H 0.54506 0.5527 0.21704 0.0
H107 H 0.60015 0.4021 0.17488 0.0
H108 H 0.62802 0.65656 0.07119 0.0
H109 H 0.62091 0.66627 0.15105 0.0
H110 H 0.51125 0.57365 0.01541 0.0
H111 H 0.34631 0.60494 0.07061 0.0
H112 H 0.52167 0.6676 0.18782 0.0
C113 C 0.61725 0.53529 0.08624 0.0
C114 C 0.62159 0.47747 0.10314 0.0
C115 C 0.58789 0.56138 0.12662 0.0
C116 C 0.56204 0.52885 0.18405 0.0
C117 C 0.566 0.47111 0.20174 0.0
C118 C 0.59206 0.44318 0.15968 0.0
C119 C 0.59438 0.6302 0.11272 0.0
C120 C 0.52276 0.619 0.10385 0.0
C121 C 0.48723 0.58906 0.0499 0.0
C122 C 0.42346 0.58376 0.03861 0.0
C123 C 0.39432 0.60688 0.0816 0.0
C124 C 0.42932 0.63764 0.13559 0.0
C125 C 0.49328 0.64263 0.14699 0.0
Zn126 Zn 0.65278 0.5138 0.37781 0.0
Zn127 Zn 0.59182 0.37609 0.36126 0.0
O128 O 0.69309 0.41214 0.34117 0.0
O129 O 0.748 0.52283 0.36721 0.0
O130 O 0.54928 0.2727 0.3711 0.0
O131 O 0.60849 0.50664 0.46037 0.0
O132 O 0.56532 0.39442 0.4459 0.0
C133 C 0.74976 0.47138 0.34655 0.0
C134 C 0.56925 0.45794 0.26708 0.0
O135 O 0.55501 0.39778 0.28567 0.0
O136 O 0.60497 0.51166 0.29945 0.0
C137 C 0.58234 0.26006 0.41041 0.0
O138 O 0.64214 0.31288 0.43032 0.0
C139 C 0.57298 0.44354 0.47948 0.0
Zn140 Zn 0.16077 0.67402 0.5528 0.0
Zn141 Zn 0.24156 0.62424 0.53442 0.0
O142 O 0.3099 0.72749 0.5147 0.0
O143 O 0.24754 0.77281 0.54046 0.0
O144 O 0.30289 0.58401 0.54071 0.0
O145 O 0.11683 0.62947 0.63423 0.0
O146 O 0.19019 0.59393 0.61956 0.0
C147 C 0.30409 0.78033 0.51864 0.0
C148 C 0.13573 0.59815 0.44044 0.0
O149 O 0.18398 0.58837 0.45739 0.0
O150 O 0.11383 0.62728 0.47548 0.0
C151 C 0.35821 0.61985 0.5716 0.0
O152 O 0.37603 0.68306 0.58813 0.0
C153 C 0.14444 0.59663 0.65285 0.0
Zn154 Zn 0.46887 0.17506 0.71774 0.0
Zn155 Zn 0.61049 0.25433 0.7014 0.0
O156 O 0.57525 0.31735 0.67481 0.0
O157 O 0.462 0.26018 0.70071 0.0
O158 O 0.71583 0.31673 0.71196 0.0
O159 O 0.46555 0.13513 0.80096 0.0
O160 O 0.58053 0.2012 0.78343 0.0
C161 C 0.51639 0.31346 0.67628 0.0
C162 C 0.53357 0.14889 0.61058 0.0
O163 O 0.59407 0.195 0.62965 0.0
O164 O 0.47782 0.13077 0.64168 0.0
C165 C 0.73141 0.36671 0.74758 0.0
O166 O 0.6814 0.37777 0.76354 0.0
C167 C 0.52779 0.15767 0.81712 0.0
Zn168 Zn 0.31802 0.50432 0.87714 0.0
Zn169 Zn 0.38585 0.64776 0.86187 0.0
O170 O 0.28302 0.61019 0.84091 0.0
O171 O 0.22399 0.49662 0.86391 0.0
O172 O 0.43594 0.75388 0.87316 0.0
O173 O 0.35609 0.5064 0.96022 0.0
O174 O 0.4055 0.62018 0.9442 0.0
C175 C 0.22517 0.5502 0.84361 0.0
C176 C 0.4132 0.5694 0.76869 0.0
O177 O 0.42765 0.62861 0.78833 0.0
O178 O 0.37316 0.51322 0.79966 0.0
C179 C 0.40405 0.76485 0.91565 0.0
O180 O 0.34251 0.71144 0.93551 0.0
C181 C 0.3947 0.56883 -0.02232 0.0
Zn182 Zn 0.81754 0.5149 0.04029 0.0
Zn183 Zn 0.73849 0.37589 0.06055 0.0
O184 O 0.67005 0.40824 0.07975 0.0
O185 O 0.72925 0.51905 0.0485 0.0
O186 O 0.67809 0.2695 0.04874 0.0
O187 O 0.86277 0.51897 0.95992 0.0
O188 O 0.79274 0.40503 -0.02258 0.0
C189 C 0.67351 0.46611 0.07165 0.0
C190 C 0.84439 0.46126 0.15264 0.0
O191 O 0.79692 0.39956 0.13665 0.0
O192 O 0.86262 0.51425 0.11831 0.0
C193 C 0.62938 0.25574 0.0119 0.0
O194 O 0.61947 0.30655 -0.00244 0.0
C195 C 0.8382 0.45668 0.94368 0.0
Zn196 Zn 0.34455 0.84644 0.20976 0.0
Zn197 Zn 0.40109 0.77503 0.23199 0.0
O198 O 0.29782 0.70528 0.25446 0.0
O199 O 0.24737 0.75766 0.21642 0.0
O200 O 0.43935 0.7134 0.21656 0.0
O201 O 0.3887 0.89627 0.13123 0.0
O202 O 0.42823 0.82693 0.1476 0.0
C203 C 0.24243 0.70529 0.24378 0.0
C204 C 0.42179 0.87667 0.32365 0.0
O205 O 0.43836 0.83266 0.30876 0.0
O206 O 0.38737 0.89109 0.28781 0.0
C207 C 0.403 0.67275 0.17402 0.0
O208 O 0.34702 0.6725 0.15679 0.0
C209 C 0.42443 0.87115 0.11387 0.0
loop_
_geom_bond_atom_site_label_1
_geom_bond_atom_site_label_2
_geom_bond_distance
_geom_bond_site_symmetry_2
_ccdc_geom_bond_type
H0 C8 0.930 . S
H1 C11 0.930 . S
H2 C13 0.930 . S
H3 C14 0.970 1_655 S
H4 C14 0.970 . S
H5 C16 0.930 . S
H6 C18 0.930 . S
H7 C20 0.930 . S
C8 H0 0.930 . S
C8 C9 1.382 . S
C8 C10 1.426 . S
C9 C8 1.382 . S
C9 C13 1.389 . S
C10 C8 1.426 . S
C10 C11 1.375 . S
C10 C14 1.532 1_655 S
C11 H1 0.930 . S
C11 C10 1.375 . S
C11 C12 1.416 . S
C12 C11 1.416 . S
C12 C13 1.371 . S
C13 H2 0.930 . S
C13 C9 1.389 . S
C13 C12 1.371 . S
C14 H3 0.970 1_455 S
C14 H4 0.970 . S
C14 C10 1.532 1_455 S
C14 C15 1.499 . S
C15 C14 1.499 . S
C15 C16 1.370 . S
C15 C20 1.415 . S
C16 H5 0.930 . S
C16 C15 1.370 . S
C16 C17 1.407 . S
C17 C16 1.407 . S
C17 C18 1.365 . S
C18 H6 0.930 . S
C18 C17 1.365 . S
C18 C19 1.393 . S
C19 C18 1.393 . S
C19 C20 1.387 . S
C20 H7 0.930 . S
C20 C15 1.415 . S
C20 C19 1.387 . S
H21 C29 0.930 . S
H22 C32 0.930 . S
H23 C34 0.930 . S
H24 C35 0.970 1_565 S
H25 C35 0.970 . S
H26 C37 0.930 . S
H27 C39 0.930 . S
H28 C41 0.930 . S
C29 H21 0.930 . S
C29 C30 1.382 . S
C29 C31 1.426 . S
C30 C29 1.382 . S
C30 C34 1.389 . S
C31 C29 1.426 . S
C31 C32 1.375 . S
C31 C35 1.532 1_565 S
C32 H22 0.930 . S
C32 C31 1.375 . S
C32 C33 1.416 . S
C33 C32 1.416 . S
C33 C34 1.371 . S
C34 H23 0.930 . S
C34 C30 1.389 . S
C34 C33 1.371 . S
C35 H24 0.970 1_545 S
C35 H25 0.970 . S
C35 C31 1.532 1_545 S
C35 C36 1.499 . S
C36 C35 1.499 . S
C36 C37 1.370 . S
C36 C41 1.415 . S
C37 H26 0.930 . S
C37 C36 1.370 . S
C37 C38 1.407 . S
C38 C37 1.407 . S
C38 C39 1.365 . S
C39 H27 0.930 . S
C39 C38 1.365 . S
C39 C40 1.393 . S
C40 C39 1.393 . S
C40 C41 1.387 . S
C41 H28 0.930 . S
C41 C36 1.415 . S
C41 C40 1.387 . S
H42 C50 0.930 . S
H43 C53 0.930 . S
H44 C55 0.930 . S
H45 C56 0.970 . S
H46 C56 0.970 . S
H47 C58 0.930 . S
H48 C60 0.930 . S
H49 C62 0.930 . S
C50 H42 0.930 . S
C50 C51 1.382 . S
C50 C52 1.426 . S
C51 C50 1.382 . S
C51 C55 1.389 . S
C52 C50 1.426 . S
C52 C53 1.375 . S
C52 C56 1.532 . S
C53 H43 0.930 . S
C53 C52 1.375 . S
C53 C54 1.416 . S
C54 C53 1.416 . S
C54 C55 1.371 . S
C55 H44 0.930 . S
C55 C51 1.389 . S
C55 C54 1.371 . S
C56 H45 0.970 . S
C56 H46 0.970 . S
C56 C52 1.532 . S
C56 C57 1.499 . S
C57 C56 1.499 . S
C57 C58 1.370 . S
C57 C62 1.415 . S
C58 H47 0.930 . S
C58 C57 1.370 . S
C58 C59 1.407 . S
C59 C58 1.407 . S
C59 C60 1.365 . S
C60 H48 0.930 . S
C60 C59 1.365 . S
C60 C61 1.393 . S
C61 C60 1.393 . S
C61 C62 1.387 . S
C62 H49 0.930 . S
C62 C57 1.415 . S
C62 C61 1.387 . S
H63 C71 0.930 . S
H64 C74 0.930 . S
H65 C76 0.930 . S
H66 C77 0.970 1_655 S
H67 C77 0.970 . S
H68 C79 0.930 . S
H69 C81 0.930 . S
H70 C83 0.930 . S
C71 H63 0.930 . S
C71 C72 1.382 . S
C71 C73 1.426 . S
C72 C71 1.382 . S
C72 C76 1.389 . S
C73 C71 1.426 . S
C73 C74 1.375 . S
C73 C77 1.532 1_655 S
C74 H64 0.930 . S
C74 C73 1.375 . S
C74 C75 1.416 . S
C75 C74 1.416 . S
C75 C76 1.371 . S
C76 H65 0.930 . S
C76 C72 1.389 . S
C76 C75 1.371 . S
C77 H66 0.970 1_455 S
C77 H67 0.970 . S
C77 C73 1.532 1_455 S
C77 C78 1.499 . S
C78 C77 1.499 . S
C78 C79 1.370 . S
C78 C83 1.415 . S
C79 H68 0.930 . S
C79 C78 1.370 . S
C79 C80 1.407 . S
C80 C79 1.407 . S
C80 C81 1.365 . S
C81 H69 0.930 . S
C81 C80 1.365 . S
C81 C82 1.393 . S
C82 C81 1.393 . S
C82 C83 1.387 . S
C83 H70 0.930 . S
C83 C78 1.415 . S
C83 C82 1.387 . S
H84 C92 0.930 . S
H85 C95 0.930 . S
H86 C97 0.930 . S
H87 C98 0.970 1_554 S
H88 C98 0.972 . S
H89 C100 0.930 . S
H90 C102 0.930 . S
H91 C104 0.930 . S
C92 H84 0.930 . S
C92 C93 1.382 . S
C92 C94 1.426 1_554 S
C93 C92 1.382 . S
C93 C97 1.389 1_554 S
C94 C92 1.426 1_556 S
C94 C95 1.375 . S
C94 C98 1.532 . S
C95 H85 0.930 . S
C95 C94 1.375 . S
C95 C96 1.416 . S
C96 C95 1.416 . S
C96 C97 1.371 . S
C97 H86 0.930 . S
C97 C93 1.389 1_556 S
C97 C96 1.371 . S
C98 H87 0.970 1_556 S
C98 H88 0.972 . S
C98 C94 1.532 . S
C98 C99 1.499 1_546 S
C99 C98 1.499 1_564 S
C99 C100 1.370 . S
C99 C104 1.415 1_554 S
C100 H89 0.930 . S
C100 C99 1.370 . S
C100 C101 1.407 . S
C101 C100 1.407 . S
C101 C102 1.365 . S
C102 H90 0.930 . S
C102 C101 1.365 . S
C102 C103 1.393 1_554 S
C103 C102 1.393 1_556 S
C103 C104 1.387 . S
C104 H91 0.930 . S
C104 C99 1.415 1_556 S
C104 C103 1.387 . S
H105 C113 0.930 . S
H106 C116 0.930 . S
H107 C118 0.930 . S
H108 C119 0.970 . S
H109 C119 0.970 . S
H110 C121 0.930 . S
H111 C123 0.930 . S
H112 C125 0.930 . S
C113 H105 0.930 . S
C113 C114 1.382 . S
C113 C115 1.426 . S
C114 C113 1.382 . S
C114 C118 1.389 . S
C115 C113 1.426 . S
C115 C116 1.375 . S
C115 C119 1.532 . S
C116 H106 0.930 . S
C116 C115 1.375 . S
C116 C117 1.416 . S
C117 C116 1.416 . S
C117 C118 1.371 . S
C118 H107 0.930 . S
C118 C114 1.389 . S
C118 C117 1.371 . S
C119 H108 0.970 . S
C119 H109 0.970 . S
C119 C115 1.532 . S
C119 C120 1.499 . S
C120 C119 1.499 . S
C120 C121 1.370 . S
C120 C125 1.415 . S
C121 H110 0.930 . S
C121 C120 1.370 . S
C121 C122 1.407 . S
C122 C121 1.407 . S
C122 C123 1.365 . S
C123 H111 0.930 . S
C123 C122 1.365 . S
C123 C124 1.393 . S
C124 C123 1.393 . S
C124 C125 1.387 . S
C125 H112 0.930 . S
C125 C120 1.415 . S
C125 C124 1.387 . S
Zn126 O129 2.031 . S
Zn126 O131 2.049 . S
Zn126 O136 2.067 . S
Zn127 O128 1.962 . S
Zn127 O130 1.986 . S
Zn127 O132 1.996 . S
Zn127 O135 1.943 . S
O128 Zn127 1.962 . S
O128 C133 1.254 . S
O129 Zn126 2.031 . S
O129 C133 1.269 . S
O130 Zn127 1.986 . S
O130 C137 1.262 . S
O131 Zn126 2.049 . S
O131 C139 1.260 . S
O132 Zn127 1.996 . S
O132 C139 1.257 . S
C133 O128 1.254 . S
C133 O129 1.269 . S
C134 O135 1.249 . S
C134 O136 1.270 . S
O135 Zn127 1.943 . S
O135 C134 1.249 . S
O136 Zn126 2.067 . S
O136 C134 1.270 . S
C137 O130 1.262 . S
C137 O138 1.232 . S
O138 C137 1.232 . S
C139 O131 1.260 . S
C139 O132 1.257 . S
Zn140 O143 2.031 . S
Zn140 O145 2.049 . S
Zn140 O150 2.067 . S
Zn141 O142 1.962 . S
Zn141 O144 1.986 . S
Zn141 O146 1.996 . S
Zn141 O149 1.943 . S
O142 Zn141 1.962 . S
O142 C147 1.254 . S
O143 Zn140 2.031 . S
O143 C147 1.269 . S
O144 Zn141 1.986 . S
O144 C151 1.262 . S
O145 Zn140 2.049 . S
O145 C153 1.260 . S
O146 Zn141 1.996 . S
O146 C153 1.257 . S
C147 O142 1.254 . S
C147 O143 1.269 . S
C148 O149 1.249 . S
C148 O150 1.270 . S
O149 Zn141 1.943 . S
O149 C148 1.249 . S
O150 Zn140 2.067 . S
O150 C148 1.270 . S
C151 O144 1.262 . S
C151 O152 1.232 . S
O152 C151 1.232 . S
C153 O145 1.260 . S
C153 O146 1.257 . S
Zn154 O157 2.031 . S
Zn154 O159 2.049 . S
Zn154 O164 2.067 . S
Zn155 O156 1.962 . S
Zn155 O158 1.986 . S
Zn155 O160 1.996 . S
Zn155 O163 1.943 . S
O156 Zn155 1.962 . S
O156 C161 1.254 . S
O157 Zn154 2.031 . S
O157 C161 1.269 . S
O158 Zn155 1.986 . S
O158 C165 1.262 . S
O159 Zn154 2.049 . S
O159 C167 1.260 . S
O160 Zn155 1.996 . S
O160 C167 1.257 . S
C161 O156 1.254 . S
C161 O157 1.269 . S
C162 O163 1.249 . S
C162 O164 1.270 . S
O163 Zn155 1.943 . S
O163 C162 1.249 . S
O164 Zn154 2.067 . S
O164 C162 1.270 . S
C165 O158 1.262 . S
C165 O166 1.232 . S
O166 C165 1.232 . S
C167 O159 1.260 . S
C167 O160 1.257 . S
Zn168 O171 2.031 . S
Zn168 O173 2.049 . S
Zn168 O178 2.067 . S
Zn169 O170 1.962 . S
Zn169 O172 1.986 . S
Zn169 O174 1.996 . S
Zn169 O177 1.943 . S
O170 Zn169 1.962 . S
O170 C175 1.254 . S
O171 Zn168 2.031 . S
O171 C175 1.269 . S
O172 Zn169 1.986 . S
O172 C179 1.262 . S
O173 Zn168 2.049 . S
O173 C181 1.260 1_556 S
O174 Zn169 1.996 . S
O174 C181 1.257 1_556 S
C175 O170 1.254 . S
C175 O171 1.269 . S
C176 O177 1.249 . S
C176 O178 1.270 . S
O177 Zn169 1.943 . S
O177 C176 1.249 . S
O178 Zn168 2.067 . S
O178 C176 1.270 . S
C179 O172 1.262 . S
C179 O180 1.232 . S
O180 C179 1.232 . S
C181 O173 1.260 1_554 S
C181 O174 1.257 1_554 S
Zn182 O185 2.031 . S
Zn182 O187 2.049 1_554 S
Zn182 O192 2.067 . S
Zn183 O184 1.962 . S
Zn183 O186 1.986 . S
Zn183 O188 1.996 1_554 S
Zn183 O191 1.943 . S
O184 Zn183 1.962 . S
O184 C189 1.254 . S
O185 Zn182 2.031 . S
O185 C189 1.269 . S
O186 Zn183 1.986 . S
O186 C193 1.262 . S
O187 Zn182 2.049 1_556 S
O187 C195 1.260 . S
O188 Zn183 1.996 1_556 S
O188 C195 1.257 . S
C189 O184 1.254 . S
C189 O185 1.269 . S
C190 O191 1.249 . S
C190 O192 1.270 . S
O191 Zn183 1.943 . S
O191 C190 1.249 . S
O192 Zn182 2.067 . S
O192 C190 1.270 . S
C193 O186 1.262 . S
C193 O194 1.232 . S
O194 C193 1.232 . S
C195 O187 1.260 . S
C195 O188 1.257 . S
Zn196 O199 2.031 . S
Zn196 O201 2.049 . S
Zn196 O206 2.067 . S
Zn197 O198 1.962 . S
Zn197 O200 1.986 . S
Zn197 O202 1.996 . S
Zn197 O205 1.943 . S
O198 Zn197 1.962 . S
O198 C203 1.254 . S
O199 Zn196 2.031 . S
O199 C203 1.269 . S
O200 Zn197 1.986 . S
O200 C207 1.262 . S
O201 Zn196 2.049 . S
O201 C209 1.260 . S
O202 Zn197 1.996 . S
O202 C209 1.257 . S
C203 O198 1.254 . S
C203 O199 1.269 . S
C204 O205 1.249 . S
C204 O206 1.270 . S
O205 Zn197 1.943 . S
O205 C204 1.249 . S
O206 Zn196 2.067 . S
O206 C204 1.270 . S
C207 O200 1.262 . S
C207 O208 1.232 . S
O208 C207 1.232 . S
C209 O201 1.260 . S
C209 O202 1.257 . S
C203 C19 1.606 . S
C40 C137 1.565 . S
C51 C151 1.509 . S
C72 C165 1.471 . S
C179 C103 1.562 . S
C114 C189 1.611 . S
C30 C147 1.642 . S
C61 C161 1.701 . S
C82 C175 1.665 . S
C193 C93 1.530 . S
C207 C124 1.533 . S
C133 C9 1.571 . S
C17 C148 1.430 . S
C38 C162 1.472 . S
C176 C54 1.502 . S
C75 C195 1.693 . S
C209 C101 1.536 . S
C134 C117 1.390 . S
C204 C33 1.393 . S
C59 C139 1.617 . S
C153 C80 1.700 . S
C96 C167 1.617 . S
C122 C181 1.662 . S
C12 C190 1.482 . S
