# Generated by pormake.
# Topology rtl, (3,6)-cn, num edge types: 1
# Building blocks:
#     Node 0, Type 0, BuildingBlock: QEWDON_clean_linker_0, # of connection points: 3
#     Node 1, Type 0, BuildingBlock: QEWDON_clean_linker_0, # of connection points: 3
#     Node 2, Type 0, BuildingBlock: QEWDON_clean_linker_0, # of connection points: 3
#     Node 3, Type 0, BuildingBlock: QEWDON_clean_linker_0, # of connection points: 3
#     Node 4, Type 1, BuildingBlock: KUMBOL_clean_sbu_1, # of connection points: 6
#     Node 5, Type 1, BuildingBlock: KUMBOL_clean_sbu_1, # of connection points: 6
#     Edge 6, Type (0, 1), None
#     Edge 7, Type (0, 1), None
#     Edge 8, Type (0, 1), None
#     Edge 9, Type (0, 1), None
#     Edge 10, Type (0, 1), None
#     Edge 11, Type (0, 1), None
#     Edge 12, Type (0, 1), None
#     Edge 13, Type (0, 1), None
#     Edge 14, Type (0, 1), None
#     Edge 15, Type (0, 1), None
#     Edge 16, Type (0, 1), None
#     Edge 17, Type (0, 1), None
# Relax obj value: 0.090
# Max RMSD: 0.325
# Mean RMSD: 0.239
data_MOF--net-rtl--node1-KUMBOL_clean_sbu_1--node2-QEWDON_clean_linker_0--edge1-none
_symmetry_space_group_name_H-M    P1
_symmetry_Int_Tables_number       1
_symmetry_cell_setting            triclinic
loop_
_symmetry_equiv_pos_as_xyz
'x, y, z'
_cell_length_a     18.053383
_cell_length_b     18.609203
_cell_length_c     13.769122
_cell_angle_alpha  68.760228
_cell_angle_beta   98.251482
_cell_angle_gamma 91.570956
loop_
_atom_site_label
_atom_site_type_symbol
_atom_site_fract_x
_atom_site_fract_y
_atom_site_fract_z
_atom_type_partial_charge
H0 H 0.26792 0.82798 0.15692 0.0
C1 C 0.24353 0.86244 0.07735 0.0
C2 C 0.17011 0.89465 0.05738 0.0
C3 C 0.28483 0.87545 0.99287 0.0
H4 H 0.08183 0.96132 0.93764 0.0
C5 C 0.1387 0.93811 0.95382 0.0
C6 C 0.17831 0.94955 0.87031 0.0
C7 C 0.25141 0.92 0.89037 0.0
C8 C 0.3632 0.84581 0.00599 0.0
H9 H 0.28287 0.93197 0.82599 0.0
C10 C 0.38145 0.766 0.04161 0.0
C11 C 0.45091 0.74083 0.02626 0.0
C12 C 0.41733 0.8991 0.96276 0.0
H13 H 0.40504 0.96052 0.9349 0.0
C14 C 0.48584 0.87426 0.94899 0.0
H15 H 0.34046 0.72441 0.07549 0.0
C16 C 0.50159 0.79587 0.97751 0.0
H17 H 0.55416 0.77803 0.96264 0.0
H18 H 0.52608 0.91611 0.91309 0.0
H19 H 0.7985 0.68505 0.65121 0.0
C20 C 0.75682 0.6739 0.70393 0.0
C21 C 0.70437 0.61639 0.70574 0.0
C22 C 0.76208 0.70976 0.77867 0.0
H23 H 0.61654 0.55016 0.78198 0.0
C24 C 0.65457 0.59665 0.77998 0.0
C25 C 0.65832 0.63003 0.85726 0.0
C26 C 0.7124 0.68733 0.85541 0.0
C27 C 0.83245 0.75101 0.79558 0.0
H28 H 0.71865 0.71176 0.91635 0.0
C29 C 0.84795 0.82741 0.73082 0.0
C30 C 0.91758 0.86084 0.75187 0.0
C31 C 0.88931 0.70782 0.87374 0.0
H32 H 0.88164 0.64734 0.91645 0.0
C33 C 0.95687 0.74084 0.8955 0.0
H34 H 0.80712 0.85984 0.66452 0.0
C35 C 0.97007 0.81731 0.83722 0.0
H36 H 1.02382 0.84078 0.85441 0.0
H37 H 0.99981 0.70655 0.95693 0.0
H38 H 0.81276 0.17053 0.33077 0.0
C39 C 0.85212 0.17067 0.27846 0.0
C40 C 0.91677 0.12206 0.31693 0.0
C41 C 0.83714 0.2163 0.17059 0.0
H42 H 1.01351 0.08002 0.27863 0.0
C43 C 0.96533 0.11896 0.24852 0.0
C44 C 0.95369 0.16653 0.14284 0.0
C45 C 0.89048 0.21641 0.10492 0.0
C46 C 0.76201 0.25282 0.11918 0.0
H47 H 0.88056 0.25307 0.02239 0.0
C48 C 0.72538 0.30787 0.14715 0.0
C49 C 0.65864 0.347 0.0837 0.0
C50 C 0.72876 0.23404 0.03299 0.0
H51 H 0.754 0.19063 0.01173 0.0
C52 C 0.6647 0.27248 0.97032 0.0
H53 H 0.74976 0.32139 0.21455 0.0
C54 C 0.63134 0.32931 0.99335 0.0
H55 H 0.58303 0.35913 0.93861 0.0
H56 H 0.6414 0.25914 0.90203 0.0
H57 H 0.31021 0.33586 0.56314 0.0
C58 C 0.34347 0.36016 0.49994 0.0
C59 C 0.37305 0.43433 0.48145 0.0
C60 C 0.35483 0.31922 0.43426 0.0
H61 H 0.43631 0.52457 0.3814 0.0
C62 C 0.41536 0.46678 0.39799 0.0
C63 C 0.42747 0.42673 0.33268 0.0
C64 C 0.39631 0.35454 0.3502 0.0
C65 C 0.32213 0.24161 0.44665 0.0
H66 H 0.40312 0.32718 0.2948 0.0
C67 C 0.25256 0.21782 0.48427 0.0
C68 C 0.21813 0.15076 0.47429 0.0
C69 C 0.35942 0.19221 0.41126 0.0
H70 H 0.41539 0.20349 0.39087 0.0
C71 C 0.32416 0.12935 0.39618 0.0
H72 H 0.22447 0.25234 0.51684 0.0
C73 C 0.25292 0.11136 0.42204 0.0
H74 H 0.22781 0.06215 0.40782 0.0
H75 H 0.3521 0.09454 0.36343 0.0
C76 C 0.92538 0.26857 0.49595 0.0
C77 C 0.79211 0.24469 0.47513 0.0
C78 C 0.86654 0.21753 0.51566 0.0
C79 C 0.77766 0.3233 0.41613 0.0
C80 C 0.91086 0.34743 0.43592 0.0
C81 C 0.83683 0.37447 0.39767 0.0
N82 N 0.99661 0.2414 0.53671 0.0
C83 C 0.05554 0.28984 0.52097 0.0
C84 C 0.97115 0.3972 0.41753 0.0
C85 C 0.04385 0.36819 0.46018 0.0
Gd86 Gd 0.07116 0.951 0.54382 0.0
Gd87 Gd 1.00833 0.11138 0.6464 0.0
N88 N 0.88206 0.14158 0.57436 0.0
C89 C 0.73422 0.1922 0.49629 0.0
C90 C 0.82551 0.09093 0.59904 0.0
C91 C 0.75103 0.11506 0.55878 0.0
H92 H 0.83681 0.03244 0.65192 0.0
H93 H 0.70647 0.07441 0.57778 0.0
H94 H 0.24966 0.99811 0.59259 0.0
H95 H 0.11114 0.26893 0.55918 0.0
H96 H 0.37181 0.93038 0.66604 0.0
H97 H 0.67637 0.21085 0.46619 0.0
H98 H 0.72077 0.34529 0.38547 0.0
H99 H 0.94232 0.81195 0.57083 0.0
H100 H 0.96207 0.45817 0.37161 0.0
H101 H 0.09074 0.40642 0.44823 0.0
H102 H 0.30804 0.6674 0.81757 0.0
H103 H 0.82496 0.43523 0.35539 0.0
H104 H 0.05271 0.59758 0.76779 0.0
H105 H 0.93794 0.67123 0.66393 0.0
N106 N 0.05641 0.81899 0.63207 0.0
C107 C 0.12078 0.77946 0.68716 0.0
C108 C 0.99178 0.78097 0.62076 0.0
C109 C 0.05435 0.65972 0.73036 0.0
C110 C 0.98941 0.7011 0.67173 0.0
C111 C 0.12138 0.6985 0.73625 0.0
H112 H 0.1912 0.59607 0.82151 0.0
N113 N 0.18656 0.89737 0.6387 0.0
C114 C 0.18773 0.81928 0.68754 0.0
C115 C 0.3228 0.81898 0.72693 0.0
C116 C 0.25595 0.7786 0.73452 0.0
C117 C 0.25142 0.9369 0.62941 0.0
C118 C 0.32058 0.89843 0.67248 0.0
O119 O 0.97494 0.12868 0.47582 0.0
O120 O 0.958 1.00859 0.4648 0.0
O121 O 0.11481 0.98561 0.3925 0.0
O122 O 0.08211 0.86907 0.47009 0.0
O123 O 0.9738 0.98537 0.72127 0.0
O124 O 0.95415 0.93967 0.58634 0.0
O125 O 0.11555 0.93849 0.7125 0.0
O126 O 0.12075 0.05829 0.72759 0.0
O127 O 0.96065 0.09197 0.78969 0.0
O128 O 1.02413 0.19443 0.72323 0.0
O129 O 0.10961 0.07367 0.47297 0.0
O130 O 0.12544 0.13082 0.59692 0.0
C131 C 0.94285 0.08348 0.42916 0.0
C132 C 0.94235 0.93583 0.67994 0.0
C133 C 0.08705 0.9045 0.29116 0.0
C134 C 0.12153 0.88107 0.14 0.0
C135 C 0.99848 0.84811 0.19248 0.0
C136 C 1.01574 0.87636 0.27305 0.0
C137 C 0.05057 0.85018 0.12617 0.0
C138 C 0.14008 0.90742 0.22399 0.0
C139 C 0.11034 0.91626 0.39045 0.0
C140 C 0.25594 0.69862 0.78358 0.0
C141 C 0.18926 0.65842 0.78517 0.0
H142 H 0.37636 0.78924 0.76173 0.0
C143 C 0.13933 0.98492 0.76242 0.0
C144 C 0.14742 0.11817 0.51675 0.0
C145 C 1.0221 0.14911 0.90529 0.0
C146 C 1.00491 0.1593 0.07158 0.0
C147 C 0.12931 0.13504 0.03908 0.0
C148 C 0.09926 0.13611 0.93926 0.0
C149 C 0.0826 0.1468 0.10493 0.0
C150 C 0.97539 0.16004 0.97145 0.0
C151 C 0.98836 0.15466 0.79997 0.0
H152 H 0.94471 0.82379 0.18313 0.0
H153 H 0.97453 0.87254 0.32464 0.0
H154 H 0.03499 0.82911 0.06249 0.0
H155 H 0.19511 0.92996 0.23697 0.0
H156 H 0.18887 0.12528 0.06542 0.0
H157 H 0.13601 0.12743 0.8886 0.0
H158 H 0.10727 0.14599 0.1818 0.0
H159 H 0.91559 0.16796 0.94499 0.0
C160 C 0.76272 0.64058 0.13665 0.0
C161 C 0.7414 0.7723 0.12421 0.0
C162 C 0.71607 0.69675 0.14302 0.0
C163 C 0.81248 0.79147 0.09483 0.0
C164 C 0.83682 0.65831 0.11708 0.0
C165 C 0.86082 0.73415 0.09431 0.0
N166 N 0.73649 0.56855 0.15198 0.0
C167 C 0.78229 0.51203 0.14969 0.0
C168 C 0.88478 0.59933 0.12089 0.0
C169 C 0.85702 0.52625 0.13546 0.0
Gd170 Gd 0.44972 0.50759 0.98694 0.0
Gd171 Gd 0.61479 0.54958 0.19773 0.0
N172 N 0.64708 0.6771 0.17093 0.0
C173 C 0.69553 0.82584 0.13883 0.0
C174 C 0.60507 0.7269 0.19449 0.0
C175 C 0.62786 0.80242 0.17672 0.0
H176 H 0.55363 0.70894 0.22676 0.0
H177 H 0.59333 0.84237 0.19258 0.0
H178 H 0.49589 0.3164 0.0572 0.0
H179 H 0.76392 0.45442 0.16428 0.0
H180 H 0.43731 0.19196 0.12538 0.0
H181 H 0.71324 0.88437 0.12531 0.0
H182 H 0.83147 0.85003 0.07615 0.0
H183 H 0.32534 0.63649 0.99367 0.0
H184 H 0.94289 0.61004 0.11018 0.0
H185 H 0.8934 0.48042 0.13704 0.0
H186 H 0.19378 0.25337 0.17595 0.0
H187 H 0.91696 0.74894 0.07672 0.0
H188 H 0.12977 0.51772 0.10041 0.0
H189 H 0.19835 0.63902 0.0378 0.0
N190 N 0.33002 0.51566 0.03216 0.0
C191 C 0.2935 0.44815 0.06712 0.0
C192 C 0.29661 0.58338 0.02184 0.0
C193 C 0.18584 0.51638 0.08153 0.0
C194 C 0.22443 0.58487 0.04671 0.0
C195 C 0.22038 0.44682 0.09288 0.0
H196 H 0.12847 0.37416 0.15108 0.0
N197 N 0.40309 0.3824 0.06246 0.0
C198 C 0.33106 0.37978 0.08273 0.0
C199 C 0.33375 0.24077 0.1365 0.0
C200 C 0.29501 0.30874 0.12159 0.0
C201 C 0.44069 0.31572 0.07694 0.0
C202 C 0.40697 0.2443 0.11457 0.0
O203 O 0.62057 0.62035 0.02489 0.0
O204 O 0.56596 0.5406 0.94122 0.0
O205 O 0.41484 0.45374 0.87033 0.0
O206 O 0.4018 0.57803 0.82668 0.0
O207 O 0.50262 0.6171 0.14848 0.0
O208 O 0.46136 0.63167 0.97483 0.0
O209 O 0.42392 0.49725 0.14791 0.0
O210 O 0.53673 0.45026 0.24291 0.0
O211 O 0.59604 0.56319 0.34494 0.0
O212 O 0.69865 0.50741 0.33564 0.0
O213 O 0.55488 0.43482 0.03326 0.0
O214 O 0.6392 0.43531 0.17778 0.0
C215 C 0.61036 0.59791 0.94365 0.0
C216 C 0.47037 0.6584 0.05224 0.0
C217 C 0.36113 0.52637 0.68753 0.0
C218 C 0.35034 0.48397 0.53651 0.0
C219 C 0.28359 0.59963 0.52269 0.0
C220 C 0.31354 0.58976 0.62591 0.0
C221 C 0.30209 0.54749 0.47804 0.0
C222 C 0.37903 0.47264 0.64243 0.0
C223 C 0.3935 0.51926 0.79645 0.0
C224 C 0.22178 0.30745 0.14525 0.0
C225 C 0.18461 0.37625 0.13111 0.0
H226 H 0.30762 0.18532 0.16477 0.0
C227 C 0.46531 0.46286 0.23878 0.0
C228 C 0.61573 0.40837 0.10202 0.0
C229 C 0.69009 0.5185 0.50348 0.0
C230 C 0.71455 0.56195 0.65237 0.0
C231 C 0.76498 0.43835 0.66661 0.0
C232 C 0.73211 0.45065 0.56378 0.0
C233 C 0.75648 0.49367 0.71064 0.0
C234 C 0.68075 0.57428 0.54851 0.0
C235 C 0.6616 0.53226 0.39198 0.0
H236 H 0.24675 0.64871 0.47646 0.0
H237 H 0.29962 0.63225 0.65715 0.0
H238 H 0.27939 0.55727 0.39688 0.0
H239 H 0.41699 0.42425 0.68776 0.0
H240 H 0.79722 0.38577 0.71229 0.0
H241 H 0.73959 0.40692 0.53139 0.0
H242 H 0.78218 0.48293 0.79093 0.0
H243 H 0.64855 0.62701 0.50296 0.0
loop_
_geom_bond_atom_site_label_1
_geom_bond_atom_site_label_2
_geom_bond_distance
_geom_bond_site_symmetry_2
_ccdc_geom_bond_type
H0 C1 0.949 . S
C1 H0 0.949 . S
C1 C2 1.395 . S
C1 C3 1.391 1_554 S
C2 C1 1.395 . S
C2 C5 1.390 1_554 S
C3 C1 1.391 1_556 S
C3 C7 1.387 . S
C3 C8 1.491 . S
H4 C5 0.950 . S
C5 C2 1.390 1_556 S
C5 H4 0.950 . S
C5 C6 1.378 . S
C6 C5 1.378 . S
C6 C7 1.409 . S
C7 C3 1.387 . S
C7 C6 1.409 . S
C7 H9 0.951 . S
C8 C3 1.491 . S
C8 C10 1.382 1_556 S
C8 C12 1.404 . S
H9 C7 0.951 . S
C10 C8 1.382 1_554 S
C10 C11 1.390 . S
C10 H15 0.949 . S
C11 C10 1.390 . S
C11 C16 1.399 . S
C12 C8 1.404 . S
C12 H13 0.950 . S
C12 C14 1.375 . S
H13 C12 0.950 . S
C14 C12 1.375 . S
C14 C16 1.382 1_556 S
C14 H18 0.950 . S
H15 C10 0.949 . S
C16 C11 1.399 . S
C16 C14 1.382 1_554 S
C16 H17 0.952 . S
H17 C16 0.952 . S
H18 C14 0.950 . S
H19 C20 0.949 . S
C20 H19 0.949 . S
C20 C21 1.395 . S
C20 C22 1.391 . S
C21 C20 1.395 . S
C21 C24 1.390 . S
C22 C20 1.391 . S
C22 C26 1.387 . S
C22 C27 1.491 . S
H23 C24 0.950 . S
C24 C21 1.390 . S
C24 H23 0.950 . S
C24 C25 1.378 . S
C25 C24 1.378 . S
C25 C26 1.409 . S
C26 C22 1.387 . S
C26 C25 1.409 . S
C26 H28 0.951 . S
C27 C22 1.491 . S
C27 C29 1.382 . S
C27 C31 1.404 . S
H28 C26 0.951 . S
C29 C27 1.382 . S
C29 C30 1.390 . S
C29 H34 0.949 . S
C30 C29 1.390 . S
C30 C35 1.399 . S
C31 C27 1.404 . S
C31 H32 0.950 . S
C31 C33 1.375 . S
H32 C31 0.950 . S
C33 C31 1.375 . S
C33 C35 1.382 . S
C33 H37 0.950 . S
H34 C29 0.949 . S
C35 C30 1.399 . S
C35 C33 1.382 . S
C35 H36 0.952 . S
H36 C35 0.952 . S
H37 C33 0.950 . S
H38 C39 0.949 . S
C39 H38 0.949 . S
C39 C40 1.395 . S
C39 C41 1.391 . S
C40 C39 1.395 . S
C40 C43 1.390 . S
C41 C39 1.391 . S
C41 C45 1.387 . S
C41 C46 1.491 . S
H42 C43 0.950 . S
C43 C40 1.390 . S
C43 H42 0.950 . S
C43 C44 1.378 . S
C44 C43 1.378 . S
C44 C45 1.409 . S
C45 C41 1.387 . S
C45 C44 1.409 . S
C45 H47 0.951 1_554 S
C46 C41 1.491 . S
C46 C48 1.382 . S
C46 C50 1.404 . S
H47 C45 0.951 1_556 S
C48 C46 1.382 . S
C48 C49 1.390 . S
C48 H53 0.949 . S
C49 C48 1.390 . S
C49 C54 1.399 . S
C50 C46 1.404 . S
C50 H51 0.944 1_554 S
C50 C52 1.375 1_554 S
H51 C50 0.944 1_556 S
C52 C50 1.375 1_556 S
C52 C54 1.382 1_556 S
C52 H56 0.950 . S
H53 C48 0.949 . S
C54 C49 1.399 . S
C54 C52 1.382 1_554 S
C54 H55 0.952 . S
H55 C54 0.952 . S
H56 C52 0.950 . S
H57 C58 0.949 . S
C58 H57 0.949 . S
C58 C59 1.395 . S
C58 C60 1.391 . S
C59 C58 1.395 . S
C59 C62 1.390 . S
C60 C58 1.391 . S
C60 C64 1.387 . S
C60 C65 1.491 . S
H61 C62 0.950 . S
C62 C59 1.390 . S
C62 H61 0.950 . S
C62 C63 1.378 . S
C63 C62 1.378 . S
C63 C64 1.409 . S
C64 C60 1.387 . S
C64 C63 1.409 . S
C64 H66 0.951 . S
C65 C60 1.491 . S
C65 C67 1.382 . S
C65 C69 1.404 . S
H66 C64 0.951 . S
C67 C65 1.382 . S
C67 C68 1.390 . S
C67 H72 0.949 . S
C68 C67 1.390 . S
C68 C73 1.399 . S
C69 C65 1.404 . S
C69 H70 0.950 . S
C69 C71 1.375 . S
H70 C69 0.950 . S
C71 C69 1.375 . S
C71 C73 1.382 . S
C71 H75 0.950 . S
H72 C67 0.949 . S
C73 C68 1.399 . S
C73 C71 1.382 . S
C73 H74 0.952 . S
H74 C73 0.952 . S
H75 C71 0.950 . S
C76 C78 1.422 . S
C76 C80 1.415 . S
C76 N82 1.369 . S
C77 C78 1.421 . S
C77 C79 1.417 . S
C77 C89 1.422 . S
C78 C76 1.422 . S
C78 C77 1.421 . S
C78 N88 1.359 . S
C79 C77 1.417 . S
C79 C81 1.329 . S
C79 H98 0.930 . S
C80 C76 1.415 . S
C80 C81 1.437 . S
C80 C84 1.413 . S
C81 C79 1.329 . S
C81 C80 1.437 . S
C81 H103 0.929 . S
N82 C76 1.369 . S
N82 C83 1.338 1_655 S
N82 Gd87 2.622 . S
C83 N82 1.338 1_455 S
C83 C85 1.378 . S
C83 H95 0.929 . S
C84 C80 1.413 . S
C84 C85 1.348 1_655 S
C84 H100 0.931 . S
C85 C83 1.378 . S
C85 C84 1.348 1_455 S
C85 H101 0.930 . S
Gd86 N106 2.622 . S
Gd86 N113 2.570 . S
Gd86 O120 2.353 1_465 S
Gd86 O121 2.468 . S
Gd86 O122 2.427 . S
Gd86 O124 2.388 1_455 S
Gd86 O125 2.386 . S
Gd86 O129 2.307 1_565 S
Gd86 C139 2.805 . S
Gd87 N82 2.622 . S
Gd87 N88 2.570 . S
Gd87 O119 2.386 . S
Gd87 O123 2.307 1_545 S
Gd87 O126 2.353 1_655 S
Gd87 O127 2.468 . S
Gd87 O128 2.427 . S
Gd87 O130 2.388 1_655 S
Gd87 C151 2.805 . S
N88 C78 1.359 . S
N88 Gd87 2.570 . S
N88 C90 1.343 . S
C89 C77 1.422 . S
C89 C91 1.321 . S
C89 H97 0.931 . S
C90 N88 1.343 . S
C90 C91 1.390 . S
C90 H92 0.931 . S
C91 C89 1.321 . S
C91 C90 1.390 . S
C91 H93 0.930 . S
H92 C90 0.931 . S
H93 C91 0.930 . S
H94 C117 0.931 . S
H95 C83 0.929 . S
H96 C118 0.930 . S
H97 C89 0.931 . S
H98 C79 0.930 . S
H99 C108 0.929 1_655 S
H100 C84 0.931 . S
H101 C85 0.930 . S
H102 C140 0.930 . S
H103 C81 0.929 . S
H104 C109 0.931 . S
H105 C110 0.930 1_655 S
N106 Gd86 2.622 . S
N106 C107 1.369 . S
N106 C108 1.338 . S
C107 N106 1.369 . S
C107 C111 1.415 . S
C107 C114 1.422 . S
C108 H99 0.929 1_455 S
C108 N106 1.338 . S
C108 C110 1.378 . S
C109 H104 0.931 . S
C109 C110 1.348 . S
C109 C111 1.413 . S
C110 H105 0.930 1_455 S
C110 C108 1.378 . S
C110 C109 1.348 . S
C111 C107 1.415 . S
C111 C109 1.413 . S
C111 C141 1.437 . S
H112 C141 0.929 . S
N113 Gd86 2.570 . S
N113 C114 1.359 . S
N113 C117 1.343 . S
C114 C107 1.422 . S
C114 N113 1.359 . S
C114 C116 1.421 . S
C115 C116 1.422 . S
C115 C118 1.321 . S
C115 H142 0.931 . S
C116 C114 1.421 . S
C116 C115 1.422 . S
C116 C140 1.417 . S
C117 H94 0.931 . S
C117 N113 1.343 . S
C117 C118 1.390 . S
C118 H96 0.930 . S
C118 C115 1.321 . S
C118 C117 1.390 . S
O119 Gd87 2.386 . S
O119 C131 1.265 . S
O120 Gd86 2.353 1_645 S
O120 C131 1.242 . S
O121 Gd86 2.468 . S
O121 C139 1.263 . S
O122 Gd86 2.427 . S
O122 C139 1.252 . S
O123 Gd87 2.307 1_565 S
O123 C132 1.261 . S
O124 Gd86 2.388 1_655 S
O124 C132 1.252 . S
O125 Gd86 2.386 . S
O125 C143 1.265 . S
O126 Gd87 2.353 1_455 S
O126 C143 1.242 1_545 S
O127 Gd87 2.468 . S
O127 C151 1.263 . S
O128 Gd87 2.427 . S
O128 C151 1.252 . S
O129 Gd86 2.307 1_545 S
O129 C144 1.261 . S
O130 Gd87 2.388 1_455 S
O130 C144 1.252 . S
C131 O119 1.265 . S
C131 O120 1.242 . S
C132 O123 1.261 . S
C132 O124 1.252 . S
C133 C136 1.394 . S
C133 C138 1.370 . S
C133 C139 1.500 . S
C134 C137 1.383 . S
C134 C138 1.395 . S
C135 C136 1.396 . S
C135 C137 1.365 . S
C135 H152 0.929 . S
C136 C133 1.394 . S
C136 C135 1.396 . S
C136 H153 0.930 . S
C137 C134 1.383 . S
C137 C135 1.365 . S
C137 H154 0.931 . S
C138 C133 1.370 . S
C138 C134 1.395 . S
C138 H155 0.930 . S
C139 Gd86 2.805 . S
C139 O121 1.263 . S
C139 O122 1.252 . S
C139 C133 1.500 . S
C140 H102 0.930 . S
C140 C116 1.417 . S
C140 C141 1.329 . S
C141 C111 1.437 . S
C141 H112 0.929 . S
C141 C140 1.329 . S
H142 C115 0.931 . S
C143 O125 1.265 . S
C143 O126 1.242 1_565 S
C144 O129 1.261 . S
C144 O130 1.252 . S
C145 C148 1.394 . S
C145 C150 1.370 . S
C145 C151 1.500 . S
C146 C149 1.383 . S
C146 C150 1.395 1_554 S
C147 C148 1.396 1_554 S
C147 C149 1.365 . S
C147 H156 0.929 . S
C148 C145 1.394 . S
C148 C147 1.396 1_556 S
C148 H157 0.930 1_655 S
C149 C146 1.383 . S
C149 C147 1.365 . S
C149 H158 0.931 . S
C150 C145 1.370 . S
C150 C146 1.395 1_556 S
C150 H159 0.930 . S
C151 Gd87 2.805 . S
C151 O127 1.263 . S
C151 O128 1.252 . S
C151 C145 1.500 . S
H152 C135 0.929 . S
H153 C136 0.930 . S
H154 C137 0.931 . S
H155 C138 0.930 . S
H156 C147 0.929 . S
H157 C148 0.930 1_455 S
H158 C149 0.931 . S
H159 C150 0.930 . S
C160 C162 1.422 . S
C160 C164 1.415 . S
C160 N166 1.369 . S
C161 C162 1.421 . S
C161 C163 1.417 . S
C161 C173 1.422 . S
C162 C160 1.422 . S
C162 C161 1.421 . S
C162 N172 1.359 . S
C163 C161 1.417 . S
C163 C165 1.329 . S
C163 H182 0.930 . S
C164 C160 1.415 . S
C164 C165 1.437 . S
C164 C168 1.413 . S
C165 C163 1.329 . S
C165 C164 1.437 . S
C165 H187 0.929 . S
N166 C160 1.369 . S
N166 C167 1.338 . S
N166 Gd171 2.622 . S
C167 N166 1.338 . S
C167 C169 1.378 . S
C167 H179 0.929 . S
C168 C164 1.413 . S
C168 C169 1.348 . S
C168 H184 0.931 . S
C169 C167 1.378 . S
C169 C168 1.348 . S
C169 H185 0.930 . S
Gd170 N190 2.622 1_554 S
Gd170 N197 2.570 . S
Gd170 O204 2.353 1_554 S
Gd170 O205 2.468 1_554 S
Gd170 O206 2.427 1_554 S
Gd170 O208 2.388 1_554 S
Gd170 O209 2.386 . S
Gd170 O213 2.307 . S
Gd170 C223 2.805 1_554 S
Gd171 N166 2.622 . S
Gd171 N172 2.570 . S
Gd171 O203 2.386 . S
Gd171 O207 2.307 . S
Gd171 O210 2.353 . S
Gd171 O211 2.468 . S
Gd171 O212 2.427 . S
Gd171 O214 2.388 . S
Gd171 C235 2.805 . S
N172 C162 1.359 . S
N172 Gd171 2.570 . S
N172 C174 1.343 . S
C173 C161 1.422 . S
C173 C175 1.321 . S
C173 H181 0.931 . S
C174 N172 1.343 . S
C174 C175 1.390 . S
C174 H176 0.931 . S
C175 C173 1.321 . S
C175 C174 1.390 . S
C175 H177 0.930 . S
H176 C174 0.931 . S
H177 C175 0.930 . S
H178 C201 0.931 . S
H179 C167 0.929 . S
H180 C202 0.930 . S
H181 C173 0.931 . S
H182 C163 0.930 . S
H183 C192 0.929 . S
H184 C168 0.931 . S
H185 C169 0.930 . S
H186 C224 0.930 . S
H187 C165 0.929 . S
H188 C193 0.931 . S
H189 C194 0.930 . S
N190 Gd170 2.622 1_556 S
N190 C191 1.369 1_556 S
N190 C192 1.338 . S
C191 N190 1.369 1_554 S
C191 C195 1.415 . S
C191 C198 1.422 . S
C192 H183 0.929 . S
C192 N190 1.338 . S
C192 C194 1.378 . S
C193 H188 0.931 . S
C193 C194 1.348 1_554 S
C193 C195 1.413 . S
C194 H189 0.930 . S
C194 C192 1.378 . S
C194 C193 1.348 1_556 S
C195 C191 1.415 . S
C195 C193 1.413 . S
C195 C225 1.437 . S
H196 C225 0.929 . S
N197 Gd170 2.570 . S
N197 C198 1.359 . S
N197 C201 1.343 . S
C198 C191 1.422 . S
C198 N197 1.359 . S
C198 C200 1.421 . S
C199 C200 1.422 . S
C199 C202 1.321 . S
C199 H226 0.931 . S
C200 C198 1.421 . S
C200 C199 1.422 . S
C200 C224 1.417 . S
C201 H178 0.931 . S
C201 N197 1.343 . S
C201 C202 1.390 . S
C202 H180 0.930 . S
C202 C199 1.321 . S
C202 C201 1.390 . S
O203 Gd171 2.386 . S
O203 C215 1.265 1_554 S
O204 Gd170 2.353 1_556 S
O204 C215 1.242 . S
O205 Gd170 2.468 1_556 S
O205 C223 1.263 . S
O206 Gd170 2.427 1_556 S
O206 C223 1.252 . S
O207 Gd171 2.307 . S
O207 C216 1.261 . S
O208 Gd170 2.388 1_556 S
O208 C216 1.252 1_556 S
O209 Gd170 2.386 . S
O209 C227 1.265 . S
O210 Gd171 2.353 . S
O210 C227 1.242 . S
O211 Gd171 2.468 . S
O211 C235 1.263 . S
O212 Gd171 2.427 . S
O212 C235 1.252 . S
O213 Gd170 2.307 . S
O213 C228 1.261 . S
O214 Gd171 2.388 . S
O214 C228 1.252 . S
C215 O203 1.265 1_556 S
C215 O204 1.242 . S
C216 O207 1.261 . S
C216 O208 1.252 1_554 S
C217 C220 1.394 . S
C217 C222 1.370 . S
C217 C223 1.500 . S
C218 C221 1.383 . S
C218 C222 1.395 . S
C219 C220 1.396 . S
C219 C221 1.365 . S
C219 H236 0.929 . S
C220 C217 1.394 . S
C220 C219 1.396 . S
C220 H237 0.930 . S
C221 C218 1.383 . S
C221 C219 1.365 . S
C221 H238 0.931 . S
C222 C217 1.370 . S
C222 C218 1.395 . S
C222 H239 0.930 . S
C223 Gd170 2.805 1_556 S
C223 O205 1.263 . S
C223 O206 1.252 . S
C223 C217 1.500 . S
C224 H186 0.930 . S
C224 C200 1.417 . S
C224 C225 1.329 . S
C225 C195 1.437 . S
C225 H196 0.929 . S
C225 C224 1.329 . S
H226 C199 0.931 . S
C227 O209 1.265 . S
C227 O210 1.242 . S
C228 O213 1.261 . S
C228 O214 1.252 . S
C229 C232 1.394 . S
C229 C234 1.370 . S
C229 C235 1.500 . S
C230 C233 1.383 . S
C230 C234 1.395 . S
C231 C232 1.396 . S
C231 C233 1.365 . S
C231 H240 0.929 . S
C232 C229 1.394 . S
C232 C231 1.396 . S
C232 H241 0.930 . S
C233 C230 1.383 . S
C233 C231 1.365 . S
C233 H242 0.931 . S
C234 C229 1.370 . S
C234 C230 1.395 . S
C234 H243 0.930 . S
C235 Gd171 2.805 . S
C235 O211 1.263 . S
C235 O212 1.252 . S
C235 C229 1.500 . S
H236 C219 0.929 . S
H237 C220 0.930 . S
H238 C221 0.931 . S
H239 C222 0.930 . S
H240 C231 0.929 . S
H241 C232 0.930 . S
H242 C233 0.931 . S
H243 C234 0.930 . S
C144 C68 1.905 . S
C11 C216 1.744 . S
C30 C132 1.891 . S
C49 C228 1.867 . S
C134 C2 1.494 . S
C215 C25 1.967 . S
C40 C131 1.931 . S
C59 C218 1.599 . S
C230 C21 1.535 . S
C146 C44 1.333 . S
C227 C63 1.790 . S
C6 C143 1.899 . S
