# Generated by pormake.
# Topology zzz, (3,6)-cn, num edge types: 1
# Building blocks:
#     Node 0, Type 0, BuildingBlock: QEWDON_clean_linker_0, # of connection points: 3
#     Node 1, Type 0, BuildingBlock: QEWDON_clean_linker_0, # of connection points: 3
#     Node 2, Type 0, BuildingBlock: QEWDON_clean_linker_0, # of connection points: 3
#     Node 3, Type 0, BuildingBlock: QEWDON_clean_linker_0, # of connection points: 3
#     Node 4, Type 0, BuildingBlock: QEWDON_clean_linker_0, # of connection points: 3
#     Node 5, Type 0, BuildingBlock: QEWDON_clean_linker_0, # of connection points: 3
#     Node 6, Type 0, BuildingBlock: QEWDON_clean_linker_0, # of connection points: 3
#     Node 7, Type 0, BuildingBlock: QEWDON_clean_linker_0, # of connection points: 3
#     Node 8, Type 1, BuildingBlock: VOLQOD_clean_sbu_1, # of connection points: 6
#     Node 9, Type 1, BuildingBlock: VOLQOD_clean_sbu_1, # of connection points: 6
#     Node 10, Type 1, BuildingBlock: VOLQOD_clean_sbu_1, # of connection points: 6
#     Node 11, Type 1, BuildingBlock: VOLQOD_clean_sbu_1, # of connection points: 6
#     Edge 12, Type (0, 1), None
#     Edge 13, Type (0, 1), None
#     Edge 14, Type (0, 1), None
#     Edge 15, Type (0, 1), None
#     Edge 16, Type (0, 1), None
#     Edge 17, Type (0, 1), None
#     Edge 18, Type (0, 1), None
#     Edge 19, Type (0, 1), None
#     Edge 20, Type (0, 1), None
#     Edge 21, Type (0, 1), None
#     Edge 22, Type (0, 1), None
#     Edge 23, Type (0, 1), None
#     Edge 24, Type (0, 1), None
#     Edge 25, Type (0, 1), None
#     Edge 26, Type (0, 1), None
#     Edge 27, Type (0, 1), None
#     Edge 28, Type (0, 1), None
#     Edge 29, Type (0, 1), None
#     Edge 30, Type (0, 1), None
#     Edge 31, Type (0, 1), None
#     Edge 32, Type (0, 1), None
#     Edge 33, Type (0, 1), None
#     Edge 34, Type (0, 1), None
#     Edge 35, Type (0, 1), None
# Relax obj value: 0.114
# Max RMSD: 0.221
# Mean RMSD: 0.082
data_MOF--net-zzz--node1-VOLQOD_clean_sbu_1--node2-QEWDON_clean_linker_0--edge1-none
_symmetry_space_group_name_H-M    P1
_symmetry_Int_Tables_number       1
_symmetry_cell_setting            triclinic
loop_
_symmetry_equiv_pos_as_xyz
'x, y, z'
_cell_length_a     25.997935
_cell_length_b     25.741422
_cell_length_c     8.8939413
_cell_angle_alpha  90.382157
_cell_angle_beta   89.096254
_cell_angle_gamma 90.501126
loop_
_atom_site_label
_atom_site_type_symbol
_atom_site_fract_x
_atom_site_fract_y
_atom_site_fract_z
_atom_type_partial_charge
H0 H 0.82005 0.50574 0.90958 0.0
C1 C 0.83426 0.50874 0.02316 0.0
C2 C 0.87707 0.47905 0.06506 0.0
C3 C 0.81269 0.5455 0.12525 0.0
H4 H 0.92842 0.4611 0.24261 0.0
C5 C 0.89608 0.48469 0.20939 0.0
C6 C 0.87919 0.5237 0.30603 0.0
C7 C 0.83663 0.55332 0.2668 0.0
C8 C 0.76896 0.57947 0.08008 0.0
H9 H 0.82195 0.58133 0.3476 0.0
C10 C 0.72811 0.56164 -0.01233 0.0
C11 C 0.68788 0.59565 0.94777 0.0
C12 C 0.76848 0.63139 0.13031 0.0
H13 H 0.79877 0.6469 0.19975 0.0
C14 C 0.72984 0.66497 0.08917 0.0
H15 H 0.72712 0.52158 0.94976 0.0
C16 C 0.69001 0.64754 -0.00066 0.0
H17 H 0.66055 0.67517 -0.02867 0.0
H18 H 0.73098 0.70492 0.1273 0.0
H19 H 0.03231 0.81002 0.93321 0.0
C20 C 0.02657 0.82994 0.0399 0.0
C21 C 0.04964 0.87927 0.06037 0.0
C22 C 0.98872 0.81125 0.14193 0.0
H23 H 0.05416 0.94633 0.20132 0.0
C24 C 0.03797 0.9075 0.19013 0.0
C25 C 0.99851 0.89141 0.28865 0.0
C26 C 0.97579 0.84225 0.26891 0.0
C27 C 0.95601 0.76518 0.10088 0.0
H28 H 0.94585 0.82977 0.34709 0.0
C29 C 0.97653 0.72065 0.02771 0.0
C30 C 0.94401 0.67868 -0.01295 0.0
C31 C 0.90247 0.76723 0.12688 0.0
H32 H 0.88471 0.80136 0.17607 0.0
C33 C 0.87054 0.72607 0.08504 0.0
H34 H 1.01749 0.7182 0.00477 0.0
C35 C 0.89115 0.68179 0.01725 0.0
H36 H 0.86571 0.65027 -0.01518 0.0
H37 H 0.82949 0.72901 0.10391 0.0
H38 H 0.72604 0.09057 0.91191 0.0
C39 C 0.70697 0.06794 -0.0008 0.0
C40 C 0.65305 0.06672 0.00844 0.0
C41 C 0.73636 0.04108 0.10366 0.0
H42 H 0.58684 0.03522 0.12267 0.0
C43 C 0.62854 0.03663 0.11824 0.0
C44 C 0.65693 1.00945 0.22403 0.0
C45 C 0.71106 1.01223 0.21746 0.0
C46 C 0.79296 0.0487 0.10374 0.0
H47 H 0.73334 0.99333 0.30304 0.0
C48 C 0.82346 0.04082 -0.0276 0.0
C49 C 0.87625 0.05373 -0.02758 0.0
C50 C 0.81607 0.0681 0.23452 0.0
H51 H 0.79338 0.07485 0.33591 0.0
C52 C 0.86825 0.08081 0.23434 0.0
H53 H 0.80624 1.02524 0.87132 0.0
C54 C 0.89804 0.07411 0.10418 0.0
H55 H 0.93871 0.08368 0.10757 0.0
H56 H 0.88567 0.0961 0.33536 0.0
H57 H 0.51392 0.73355 0.90084 0.0
C58 C 0.52352 0.71314 0.00247 0.0
C59 C 0.50077 0.66403 0.02994 0.0
C60 C 0.5611 0.7339 0.09916 0.0
H61 H 0.50094 0.59672 0.17057 0.0
C62 C 0.51692 0.63522 0.15197 0.0
C63 C 0.55354 0.65491 0.25039 0.0
C64 C 0.57385 0.70494 0.22804 0.0
C65 C 0.59043 0.78266 0.05913 0.0
H66 H 0.60002 0.72056 0.31063 0.0
C67 C 0.56961 0.82235 -0.03195 0.0
C68 C 0.59982 0.86608 0.9258 0.0
C69 C 0.64164 0.78836 0.10689 0.0
H70 H 0.66001 0.75895 0.17262 0.0
C71 C 0.67104 0.83159 0.06784 0.0
H72 H 0.53023 0.81967 0.93101 0.0
C73 C 0.65058 0.86997 -0.02152 0.0
H74 H 0.67511 0.90288 -0.04927 0.0
H75 H 0.71027 0.83512 0.10601 0.0
H76 H 0.21088 0.57132 0.49559 0.0
C77 C 0.19118 0.55297 0.40243 0.0
C78 C 0.13755 0.55186 0.40312 0.0
C79 C 0.21911 0.53352 0.27793 0.0
H80 H 0.07026 0.52341 0.29622 0.0
C81 C 0.1118 0.52734 0.28713 0.0
C82 C 0.13733 0.50983 0.15774 0.0
C83 C 0.19165 0.5122 0.1533 0.0
C84 C 0.27515 0.54608 0.26798 0.0
H85 H 0.21204 0.50033 0.05183 0.0
C86 C 0.30838 0.54296 0.3943 0.0
C87 C 0.35861 0.5648 0.38706 0.0
C88 C 0.29342 0.56955 0.13548 0.0
H89 H 0.26888 0.57389 0.03914 0.0
C90 C 0.34218 0.59143 0.1284 0.0
H91 H 0.29491 0.52476 0.49723 0.0
C92 C 0.37403 0.58969 0.25212 0.0
H93 H 0.41138 0.60805 0.24023 0.0
H94 H 0.3549 0.61101 0.02701 0.0
H95 H 0.04436 0.21428 0.40344 0.0
C96 C 0.06381 0.19962 0.30373 0.0
C97 C 0.07517 0.14689 0.29645 0.0
C98 C 0.07542 0.23231 0.18158 0.0
H99 H 0.1093 0.08516 0.16622 0.0
C100 C 0.10043 0.12627 0.17032 0.0
C101 C 0.10245 0.15375 0.0375 0.0
C102 C 0.09147 0.20779 0.04321 0.0
C103 C 0.06584 0.29004 0.19892 0.0
H104 H 0.09431 0.2293 0.93957 0.0
C105 C 0.0631 0.31487 0.34372 0.0
C106 C 0.05073 0.36801 0.35854 0.0
C107 C 0.05769 0.32093 0.07155 0.0
H108 H 0.0582 0.30474 -0.04072 0.0
C109 C 0.04702 0.37368 0.08634 0.0
H110 H 0.07038 0.29359 0.44545 0.0
C111 C 0.04293 0.39687 0.22804 0.0
H112 H 0.03268 0.43748 0.23597 0.0
H113 H 0.04085 0.39646 -0.01337 0.0
H114 H 0.34199 0.97092 0.41031 0.0
C115 C 0.35494 0.98716 0.3039 0.0
C116 C 0.40562 1.00398 0.28764 0.0
C117 C 0.32143 0.99011 0.1821 0.0
H118 H 0.46281 0.03882 0.14196 0.0
C119 C 0.42282 0.02645 0.15315 0.0
C120 C 0.39229 0.02774 0.02713 0.0
C121 C 0.34113 1.0081 0.04003 0.0
C122 C 0.26892 0.96696 0.20261 0.0
H123 H 0.31749 1.00586 0.941 0.0
C124 C 0.23797 0.97723 0.3335 0.0
C125 C 0.19145 0.94939 0.35978 0.0
C126 C 0.25241 0.92922 0.09936 0.0
H127 H 0.27549 0.91993 0.00049 0.0
C128 C 0.20748 0.90087 0.12654 0.0
H129 H 0.24966 1.00717 0.41236 0.0
C130 C 0.17778 0.91029 0.25542 0.0
H131 H 0.14311 0.88727 0.27158 0.0
H132 H 0.19564 0.8711 0.04746 0.0
H133 H 0.55356 0.34136 0.44629 0.0
C134 C 0.53887 0.35642 0.34188 0.0
C135 C 0.52379 0.40795 0.33512 0.0
C136 C 0.53724 0.32515 0.21254 0.0
H137 H 0.49327 0.46889 0.19963 0.0
C138 C 0.50406 0.42819 0.20295 0.0
C139 C 0.50493 0.39987 0.07002 0.0
C140 C 0.5226 0.34789 0.07354 0.0
C141 C 0.55993 0.27245 0.22219 0.0
H142 H 0.52632 0.32604 -0.03052 0.0
C143 C 0.54685 0.23769 0.34159 0.0
C144 C 0.5745 0.19109 0.35944 0.0
C145 C 0.60022 0.25987 0.12228 0.0
H146 H 0.61156 0.28607 0.03261 0.0
C147 C 0.62842 0.21495 0.14198 0.0
H148 H 0.51508 0.24651 0.4175 0.0
C149 C 0.61627 0.18143 0.25954 0.0
H150 H 0.63929 0.14677 0.26957 0.0
H151 H 0.66014 0.20608 0.066 0.0
O152 O 0.16193 0.99235 0.59438 0.0
Zn153 Zn 0.10602 1.00729 0.76952 0.0
O154 O 0.03802 1.01489 0.68453 0.0
Zn155 Zn 1.0109 0.08417 0.69718 0.0
Zn156 Zn 0.05084 1.00129 0.4856 0.0
Zn157 Zn 0.98537 0.963 0.715 0.0
O158 O 0.94053 0.08029 0.79924 0.0
O159 O 0.92215 0.99551 0.81497 0.0
O160 O 0.11935 0.07704 0.88923 0.0
O161 O 0.05307 0.12725 0.83485 0.0
O162 O 1.02036 0.12225 0.5024 0.0
O163 O 0.07492 0.06526 0.40386 0.0
O164 O 0.98891 0.97647 0.38134 0.0
O165 O 0.0953 0.94407 0.91494 0.0
O166 O 0.97615 0.91335 0.53905 0.0
O167 O 1.01552 0.91808 0.85855 0.0
C168 C 0.15239 0.96357 0.4794 0.0
C169 C 0.91142 0.04295 0.84397 0.0
C170 C 0.05677 0.11062 0.41088 0.0
C171 C 0.09518 0.12052 0.90174 0.0
C172 C 0.98031 0.92866 0.40451 0.0
C173 C 0.05709 0.9121 0.92825 0.0
O174 O 0.10623 0.95071 0.45331 0.0
O175 O 0.53035 0.15242 0.58262 0.0
Zn176 Zn 0.5196 0.0915 0.74843 0.0
O177 O 0.53921 0.02549 0.6613 0.0
Zn178 Zn 0.49226 0.96856 0.68253 0.0
Zn179 Zn 0.54194 0.03658 0.46384 0.0
Zn180 Zn 0.60943 1.01011 0.67697 0.0
O181 O 0.53423 0.90819 0.7784 0.0
O182 O 0.61124 0.94694 0.8046 0.0
O183 O 0.44766 0.07615 0.85911 0.0
O184 O 0.43823 0.99033 0.83052 0.0
O185 O 0.45076 0.96169 0.48677 0.0
O186 O 0.47243 0.04102 0.41247 0.0
O187 O 0.58078 0.98302 0.34894 0.0
O188 O 0.57468 0.0968 0.91007 0.0
O189 O 0.64823 1.00111 0.48306 0.0
O190 O 0.63824 0.07539 0.75725 0.0
C191 C 0.55847 0.14762 0.4624 0.0
C192 C 0.58027 0.90897 0.83033 0.0
C193 C 0.44227 1.0025 0.40927 0.0
C194 C 0.42253 0.03336 0.88473 0.0
C195 C 0.62917 0.98925 0.35725 0.0
C196 C 0.62259 0.08812 0.88694 0.0
O197 O 0.57248 0.10303 0.41831 0.0
O198 O 0.39405 0.5325 0.62593 0.0
Zn199 Zn 0.45323 0.53137 0.79431 0.0
O200 O 0.52076 0.54605 0.70631 0.0
Zn201 Zn 0.57196 0.49446 0.7227 0.0
Zn202 Zn 0.50367 0.54587 0.51368 0.0
Zn203 Zn 0.5444 0.6151 0.71021 0.0
O204 O 0.63742 0.53219 0.80777 0.0
O205 O 0.60769 0.61332 0.83581 0.0
O206 O 0.46368 0.46148 0.91228 0.0
O207 O 0.54668 0.44289 0.87362 0.0
O208 O 0.57105 0.45203 0.52645 0.0
O209 O 0.49085 0.47415 0.47654 0.0
O210 O 0.55725 0.57586 0.37902 0.0
O211 O 0.45083 0.59278 0.94325 0.0
O212 O 0.55833 0.64806 0.51115 0.0
O213 O 0.4812 0.64947 0.78199 0.0
C214 C 0.3979 0.5618 0.50965 0.0
C215 C 0.6423 0.57909 0.85775 0.0
C216 C 0.52799 0.44319 0.46205 0.0
C217 C 0.50302 0.43222 0.93305 0.0
C218 C 0.56354 0.6248 0.38613 0.0
C219 C 0.46878 0.63837 0.91536 0.0
O220 O 0.44052 0.58416 0.48231 0.0
O221 O 0.93433 0.569 0.47832 0.0
Zn222 Zn 0.99538 0.57556 0.62724 0.0
O223 O 1.00587 0.50989 0.72904 0.0
Zn224 Zn 0.9944 0.51968 0.9321 0.0
Zn225 Zn 0.95725 0.45621 0.66586 0.0
Zn226 Zn 0.07649 0.48386 0.71721 0.0
O227 O 0.06027 0.52269 0.033 0.0
O228 O 0.115 0.47097 0.91512 0.0
O229 O 0.98279 0.63419 0.77964 0.0
O230 O 0.95815 0.58766 -0.02081 0.0
O231 O 0.9589 0.45412 -0.013 0.0
O232 O 0.89942 0.44655 0.82124 0.0
O233 O 0.99555 0.39688 0.55615 0.0
O234 O 0.06112 0.5842 0.50594 0.0
O235 O 0.07685 0.4264 0.55283 0.0
O236 O 0.11653 0.54542 0.65243 0.0
C237 C 0.90757 0.52845 0.44739 0.0
C238 C 0.10353 0.5002 0.02674 0.0
C239 C 0.91153 0.45168 -0.04239 0.0
C240 C 0.96403 0.63129 0.91299 0.0
C241 C 0.04208 0.39469 0.50609 0.0
C242 C 0.10677 0.56884 0.53236 0.0
O243 O 0.9162 0.48551 0.50988 0.0
loop_
_geom_bond_atom_site_label_1
_geom_bond_atom_site_label_2
_geom_bond_distance
_geom_bond_site_symmetry_2
_ccdc_geom_bond_type
H0 C1 0.949 . S
C1 H0 0.949 . S
C1 C2 1.395 . S
C1 C3 1.391 1_556 S
C2 C1 1.395 . S
C2 C5 1.390 1_556 S
C3 C1 1.391 1_554 S
C3 C7 1.387 . S
C3 C8 1.491 . S
H4 C5 0.950 . S
C5 C2 1.390 1_554 S
C5 H4 0.950 . S
C5 C6 1.378 . S
C6 C5 1.378 . S
C6 C7 1.409 . S
C7 C3 1.387 . S
C7 C6 1.409 . S
C7 H9 0.951 . S
C8 C3 1.491 . S
C8 C10 1.382 1_554 S
C8 C12 1.404 . S
H9 C7 0.951 . S
C10 C8 1.382 1_556 S
C10 C11 1.390 . S
C10 H15 0.949 . S
C11 C10 1.390 . S
C11 C16 1.399 1_556 S
C12 C8 1.404 . S
C12 H13 0.950 . S
C12 C14 1.375 . S
H13 C12 0.950 . S
C14 C12 1.375 . S
C14 C16 1.382 . S
C14 H18 0.950 . S
H15 C10 0.949 . S
C16 C11 1.399 1_554 S
C16 C14 1.382 . S
C16 H17 0.952 . S
H17 C16 0.952 . S
H18 C14 0.950 . S
H19 C20 0.949 1_556 S
C20 H19 0.949 1_554 S
C20 C21 1.395 1_655 S
C20 C22 1.391 . S
C21 C20 1.395 1_455 S
C21 C24 1.390 . S
C22 C20 1.391 . S
C22 C26 1.387 . S
C22 C27 1.491 . S
H23 C24 0.950 . S
C24 C21 1.390 . S
C24 H23 0.950 . S
C24 C25 1.378 . S
C25 C24 1.378 . S
C25 C26 1.409 1_455 S
C26 C22 1.387 . S
C26 C25 1.409 1_655 S
C26 H28 0.951 . S
C27 C22 1.491 . S
C27 C29 1.382 . S
C27 C31 1.404 . S
H28 C26 0.951 . S
C29 C27 1.382 . S
C29 C30 1.390 . S
C29 H34 0.949 1_654 S
C30 C29 1.390 . S
C30 C35 1.399 . S
C31 C27 1.404 . S
C31 H32 0.950 . S
C31 C33 1.375 . S
H32 C31 0.950 . S
C33 C31 1.375 . S
C33 C35 1.382 . S
C33 H37 0.950 . S
H34 C29 0.949 1_456 S
C35 C30 1.399 . S
C35 C33 1.382 . S
C35 H36 0.952 . S
H36 C35 0.952 . S
H37 C33 0.950 . S
H38 C39 0.949 . S
C39 H38 0.949 . S
C39 C40 1.392 1_565 S
C39 C41 1.391 1_556 S
C40 C39 1.392 1_545 S
C40 C43 1.392 1_556 S
C41 C39 1.391 1_554 S
C41 C45 1.387 . S
C41 C46 1.491 . S
H42 C43 0.950 . S
C43 C40 1.392 1_554 S
C43 H42 0.950 . S
C43 C44 1.378 . S
C44 C43 1.378 . S
C44 C45 1.409 1_545 S
C45 C41 1.387 . S
C45 C44 1.409 1_565 S
C45 H47 0.951 . S
C46 C41 1.491 . S
C46 C48 1.382 . S
C46 C50 1.404 . S
H47 C45 0.951 . S
C48 C46 1.382 . S
C48 C49 1.390 1_554 S
C48 H53 0.949 1_564 S
C49 C48 1.390 1_556 S
C49 C54 1.399 1_556 S
C50 C46 1.404 . S
C50 H51 0.950 . S
C50 C52 1.375 . S
H51 C50 0.950 . S
C52 C50 1.375 . S
C52 C54 1.382 . S
C52 H56 0.950 . S
H53 C48 0.949 1_546 S
C54 C49 1.399 1_554 S
C54 C52 1.382 . S
C54 H55 0.952 . S
H55 C54 0.952 . S
H56 C52 0.950 . S
H57 C58 0.949 . S
C58 H57 0.949 . S
C58 C59 1.395 . S
C58 C60 1.391 1_556 S
C59 C58 1.395 . S
C59 C62 1.390 1_556 S
C60 C58 1.391 1_554 S
C60 C64 1.387 . S
C60 C65 1.491 . S
H61 C62 0.950 . S
C62 C59 1.390 1_554 S
C62 H61 0.950 . S
C62 C63 1.378 . S
C63 C62 1.378 . S
C63 C64 1.409 . S
C64 C60 1.387 . S
C64 C63 1.409 . S
C64 H66 0.951 . S
C65 C60 1.491 . S
C65 C67 1.382 1_554 S
C65 C69 1.404 . S
H66 C64 0.951 . S
C67 C65 1.382 1_556 S
C67 C68 1.390 . S
C67 H72 0.949 . S
C68 C67 1.390 . S
C68 C73 1.399 1_556 S
C69 C65 1.404 . S
C69 H70 0.950 . S
C69 C71 1.375 . S
H70 C69 0.950 . S
C71 C69 1.375 . S
C71 C73 1.382 . S
C71 H75 0.950 . S
H72 C67 0.949 . S
C73 C68 1.399 1_554 S
C73 C71 1.382 . S
C73 H74 0.952 . S
H74 C73 0.952 . S
H75 C71 0.950 . S
H76 C77 0.949 . S
C77 H76 0.949 . S
C77 C78 1.395 . S
C77 C79 1.391 . S
C78 C77 1.395 . S
C78 C81 1.390 . S
C79 C77 1.391 . S
C79 C83 1.387 . S
C79 C84 1.491 . S
H80 C81 0.950 . S
C81 C78 1.390 . S
C81 H80 0.950 . S
C81 C82 1.378 . S
C82 C81 1.378 . S
C82 C83 1.409 . S
C83 C79 1.387 . S
C83 C82 1.409 . S
C83 H85 0.951 . S
C84 C79 1.491 . S
C84 C86 1.382 . S
C84 C88 1.404 . S
H85 C83 0.951 . S
C86 C84 1.382 . S
C86 C87 1.390 . S
C86 H91 0.949 . S
C87 C86 1.390 . S
C87 C92 1.399 . S
C88 C84 1.404 . S
C88 H89 0.950 . S
C88 C90 1.375 . S
H89 C88 0.950 . S
C90 C88 1.375 . S
C90 C92 1.382 . S
C90 H94 0.950 . S
H91 C86 0.949 . S
C92 C87 1.399 . S
C92 C90 1.382 . S
C92 H93 0.952 . S
H93 C92 0.952 . S
H94 C90 0.950 . S
H95 C96 0.949 . S
C96 H95 0.949 . S
C96 C97 1.395 . S
C96 C98 1.391 . S
C97 C96 1.395 . S
C97 C100 1.390 . S
C98 C96 1.391 . S
C98 C102 1.387 . S
C98 C103 1.491 . S
H99 C100 0.950 . S
C100 C97 1.390 . S
C100 H99 0.950 . S
C100 C101 1.378 . S
C101 C100 1.378 . S
C101 C102 1.409 . S
C102 C98 1.387 . S
C102 C101 1.409 . S
C102 H104 0.951 . S
C103 C98 1.491 . S
C103 C105 1.382 . S
C103 C107 1.404 1_455 S
H104 C102 0.951 . S
C105 C103 1.382 . S
C105 C106 1.390 . S
C105 H110 0.949 . S
C106 C105 1.390 . S
C106 C111 1.399 1_455 S
C107 C103 1.404 1_655 S
C107 H108 0.950 . S
C107 C109 1.375 . S
H108 C107 0.950 . S
C109 C107 1.375 . S
C109 C111 1.382 . S
C109 H113 0.950 . S
H110 C105 0.949 . S
C111 C106 1.399 1_655 S
C111 C109 1.382 . S
C111 H112 0.952 . S
H112 C111 0.952 . S
H113 C109 0.950 . S
H114 C115 0.949 . S
C115 H114 0.949 . S
C115 C116 1.395 . S
C115 C117 1.391 1_545 S
C116 C115 1.395 . S
C116 C119 1.390 . S
C117 C115 1.391 1_565 S
C117 C121 1.387 1_565 S
C117 C122 1.491 . S
H118 C119 0.950 . S
C119 C116 1.390 . S
C119 H118 0.950 . S
C119 C120 1.378 . S
C120 C119 1.378 . S
C120 C121 1.409 . S
C121 C117 1.387 1_545 S
C121 C120 1.409 . S
C121 H123 0.951 1_545 S
C122 C117 1.491 . S
C122 C124 1.382 1_565 S
C122 C126 1.404 . S
H123 C121 0.951 1_565 S
C124 C122 1.382 1_545 S
C124 C125 1.390 1_545 S
C124 H129 0.949 . S
C125 C124 1.390 1_565 S
C125 C130 1.399 . S
C126 C122 1.404 . S
C126 H127 0.950 . S
C126 C128 1.375 . S
H127 C126 0.950 . S
C128 C126 1.375 . S
C128 C130 1.382 . S
C128 H132 0.950 . S
H129 C124 0.949 . S
C130 C125 1.399 . S
C130 C128 1.382 . S
C130 H131 0.952 . S
H131 C130 0.952 . S
H132 C128 0.950 . S
H133 C134 0.949 . S
C134 H133 0.949 . S
C134 C135 1.395 . S
C134 C136 1.391 . S
C135 C134 1.395 . S
C135 C138 1.390 . S
C136 C134 1.391 . S
C136 C140 1.387 . S
C136 C141 1.491 . S
H137 C138 0.950 . S
C138 C135 1.390 . S
C138 H137 0.950 . S
C138 C139 1.378 . S
C139 C138 1.378 . S
C139 C140 1.409 . S
C140 C136 1.387 . S
C140 C139 1.409 . S
C140 H142 0.951 . S
C141 C136 1.491 . S
C141 C143 1.382 . S
C141 C145 1.404 . S
H142 C140 0.951 . S
C143 C141 1.382 . S
C143 C144 1.390 . S
C143 H148 0.949 . S
C144 C143 1.390 . S
C144 C149 1.399 . S
C145 C141 1.404 . S
C145 H146 0.950 . S
C145 C147 1.375 . S
H146 C145 0.950 . S
C147 C145 1.375 . S
C147 C149 1.382 . S
C147 H151 0.950 . S
H148 C143 0.949 . S
C149 C144 1.399 . S
C149 C147 1.382 . S
C149 H150 0.952 . S
H150 C149 0.952 . S
H151 C147 0.950 . S
O152 Zn153 1.953 . S
O152 C168 1.225 1_545 S
Zn153 O152 1.953 . S
Zn153 O154 1.949 1_545 S
Zn153 O160 1.921 1_556 S
Zn153 O165 1.922 1_546 S
O154 Zn153 1.949 1_565 S
O154 Zn155 1.923 1_465 S
O154 Zn156 1.950 . S
O154 Zn157 1.945 1_455 S
Zn155 O154 1.923 1_645 S
Zn155 O158 1.933 . S
Zn155 O161 1.941 . S
Zn155 O162 1.965 . S
Zn156 O154 1.950 . S
Zn156 O163 1.938 1_565 S
Zn156 O164 1.906 . S
Zn156 O174 1.953 . S
Zn157 O154 1.945 1_655 S
Zn157 O159 1.932 . S
Zn157 O166 1.977 . S
Zn157 O167 1.912 . S
O158 Zn155 1.933 . S
O158 C169 1.226 . S
O159 Zn157 1.932 . S
O159 C169 1.307 1_565 S
O160 Zn153 1.921 1_554 S
O160 C171 1.253 . S
O161 Zn155 1.941 . S
O161 C171 1.283 1_656 S
O162 Zn155 1.965 . S
O162 C170 1.303 1_655 S
O163 Zn156 1.938 1_545 S
O163 C170 1.247 . S
O164 Zn156 1.906 . S
O164 C172 1.304 1_455 S
O165 Zn153 1.922 1_564 S
O165 C173 1.311 . S
O166 Zn157 1.977 . S
O166 C172 1.272 . S
O167 Zn157 1.912 . S
O167 C173 1.226 1_656 S
C168 O152 1.225 1_565 S
C168 O174 1.298 . S
C169 O158 1.226 . S
C169 O159 1.307 1_545 S
C170 O162 1.303 1_455 S
C170 O163 1.247 . S
C171 O160 1.253 . S
C171 O161 1.283 1_454 S
C172 O164 1.304 1_655 S
C172 O166 1.272 . S
C173 O165 1.311 . S
C173 O167 1.226 1_454 S
O174 Zn156 1.953 . S
O174 C168 1.298 . S
O175 Zn176 1.953 . S
O175 C191 1.225 . S
Zn176 O175 1.953 . S
Zn176 O177 1.949 . S
Zn176 O183 1.919 1_556 S
Zn176 O188 1.924 . S
O177 Zn176 1.949 . S
O177 Zn178 1.923 1_545 S
O177 Zn179 1.950 . S
O177 Zn180 1.945 1_545 S
Zn178 O177 1.923 1_565 S
Zn178 O181 1.933 . S
Zn178 O184 1.941 . S
Zn178 O185 1.965 . S
Zn179 O177 1.950 . S
Zn179 O186 1.938 . S
Zn179 O187 1.906 . S
Zn179 O197 1.953 . S
Zn180 O177 1.945 1_565 S
Zn180 O182 1.932 . S
Zn180 O189 1.977 . S
Zn180 O190 1.914 . S
O181 Zn178 1.933 . S
O181 C192 1.226 . S
O182 Zn180 1.932 . S
O182 C192 1.307 . S
O183 Zn176 1.919 1_554 S
O183 C194 1.253 . S
O184 Zn178 1.941 . S
O184 C194 1.283 1_566 S
O185 Zn178 1.965 . S
O185 C193 1.303 1_565 S
O186 Zn179 1.938 . S
O186 C193 1.247 . S
O187 Zn179 1.906 . S
O187 C195 1.304 1_545 S
O188 Zn176 1.924 . S
O188 C196 1.311 . S
O189 Zn180 1.977 . S
O189 C195 1.272 . S
O190 Zn180 1.914 . S
O190 C196 1.222 1_565 S
C191 O175 1.225 . S
C191 O197 1.298 . S
C192 O181 1.226 . S
C192 O182 1.307 . S
C193 O185 1.303 1_545 S
C193 O186 1.247 . S
C194 O183 1.253 . S
C194 O184 1.283 1_544 S
C195 O187 1.304 1_565 S
C195 O189 1.272 . S
C196 O188 1.311 . S
C196 O190 1.222 1_545 S
O197 Zn179 1.953 . S
O197 C191 1.298 . S
O198 Zn199 1.953 . S
O198 C214 1.225 . S
Zn199 O198 1.953 . S
Zn199 O200 1.949 . S
Zn199 O206 1.919 1_556 S
Zn199 O211 1.924 . S
O200 Zn199 1.949 . S
O200 Zn201 1.923 . S
O200 Zn202 1.950 . S
O200 Zn203 1.945 . S
Zn201 O200 1.923 . S
Zn201 O204 1.933 . S
Zn201 O207 1.941 . S
Zn201 O208 1.965 . S
Zn202 O200 1.950 . S
Zn202 O209 1.938 . S
Zn202 O210 1.906 . S
Zn202 O220 1.953 . S
Zn203 O200 1.945 . S
Zn203 O205 1.932 . S
Zn203 O212 1.977 . S
Zn203 O213 1.910 . S
O204 Zn201 1.933 . S
O204 C215 1.226 . S
O205 Zn203 1.932 . S
O205 C215 1.307 . S
O206 Zn199 1.919 1_554 S
O206 C217 1.253 . S
O207 Zn201 1.941 . S
O207 C217 1.283 1_556 S
O208 Zn201 1.965 . S
O208 C216 1.303 . S
O209 Zn202 1.938 . S
O209 C216 1.247 . S
O210 Zn202 1.906 . S
O210 C218 1.304 . S
O211 Zn199 1.924 . S
O211 C219 1.311 . S
O212 Zn203 1.977 . S
O212 C218 1.272 . S
O213 Zn203 1.910 . S
O213 C219 1.231 . S
C214 O198 1.225 . S
C214 O220 1.298 . S
C215 O204 1.226 . S
C215 O205 1.307 . S
C216 O208 1.303 . S
C216 O209 1.247 . S
C217 O206 1.253 . S
C217 O207 1.283 1_554 S
C218 O210 1.304 . S
C218 O212 1.272 . S
C219 O211 1.311 . S
C219 O213 1.231 . S
O220 Zn202 1.953 . S
O220 C214 1.298 . S
O221 Zn222 1.953 1_655 S
O221 C237 1.225 . S
Zn222 O221 1.953 1_455 S
Zn222 O223 1.949 . S
Zn222 O229 1.919 . S
Zn222 O234 1.924 . S
O223 Zn222 1.949 . S
O223 Zn224 1.923 1_455 S
O223 Zn225 1.950 1_455 S
O223 Zn226 1.945 . S
Zn224 O223 1.923 1_655 S
Zn224 O227 1.933 1_656 S
Zn224 O230 1.941 . S
Zn224 O231 1.965 . S
Zn225 O223 1.950 1_655 S
Zn225 O232 1.938 . S
Zn225 O233 1.906 . S
Zn225 O243 1.953 . S
Zn226 O223 1.945 . S
Zn226 O228 1.932 . S
Zn226 O235 1.977 . S
Zn226 O236 1.910 . S
O227 Zn224 1.933 1_454 S
O227 C238 1.226 . S
O228 Zn226 1.932 . S
O228 C238 1.307 1_556 S
O229 Zn222 1.919 . S
O229 C240 1.255 . S
O230 Zn224 1.941 . S
O230 C240 1.275 1_655 S
O231 Zn224 1.965 . S
O231 C239 1.303 . S
O232 Zn225 1.938 . S
O232 C239 1.247 . S
O233 Zn225 1.906 . S
O233 C241 1.304 1_655 S
O234 Zn222 1.924 . S
O234 C242 1.311 . S
O235 Zn226 1.977 . S
O235 C241 1.272 . S
O236 Zn226 1.910 . S
O236 C242 1.231 . S
C237 O221 1.225 . S
C237 O243 1.298 . S
C238 O227 1.226 . S
C238 O228 1.307 1_554 S
C239 O231 1.303 . S
C239 O232 1.247 . S
C240 O229 1.255 . S
C240 O230 1.275 1_455 S
C241 O233 1.304 1_455 S
C241 O235 1.272 . S
C242 O234 1.311 . S
C242 O236 1.231 . S
O243 Zn225 1.953 . S
O243 C237 1.298 . S
C125 C168 1.922 . S
C191 C144 1.924 . S
C214 C87 1.894 . S
C241 C106 1.549 . S
C169 C49 1.681 1_545 S
C68 C192 1.721 . S
C11 C215 1.722 . S
C30 C240 1.858 1_654 S
C170 C97 0.799 . S
C193 C116 0.656 . S
C216 C135 0.669 . S
C78 C242 1.014 . S
C21 C173 1.258 . S
C196 C40 1.290 . S
C219 C59 1.272 . S
C2 C239 0.876 . S
C101 C171 1.561 . S
C120 C194 1.510 . S
C217 C139 1.533 . S
C238 C82 1.523 . S
C25 C172 1.754 1_455 S
C195 C44 1.673 1_565 S
C218 C63 1.618 . S
C6 C237 1.775 . S
