# Generated by pormake.
# Topology zzz, (3,6)-cn, num edge types: 1
# Building blocks:
#     Node 0, Type 0, BuildingBlock: INOVEN_clean_linker_0, # of connection points: 3
#     Node 1, Type 0, BuildingBlock: INOVEN_clean_linker_0, # of connection points: 3
#     Node 2, Type 0, BuildingBlock: INOVEN_clean_linker_0, # of connection points: 3
#     Node 3, Type 0, BuildingBlock: INOVEN_clean_linker_0, # of connection points: 3
#     Node 4, Type 0, BuildingBlock: INOVEN_clean_linker_0, # of connection points: 3
#     Node 5, Type 0, BuildingBlock: INOVEN_clean_linker_0, # of connection points: 3
#     Node 6, Type 0, BuildingBlock: INOVEN_clean_linker_0, # of connection points: 3
#     Node 7, Type 0, BuildingBlock: INOVEN_clean_linker_0, # of connection points: 3
#     Node 8, Type 1, BuildingBlock: FUNLAD_clean_sbu_0, # of connection points: 6
#     Node 9, Type 1, BuildingBlock: FUNLAD_clean_sbu_0, # of connection points: 6
#     Node 10, Type 1, BuildingBlock: FUNLAD_clean_sbu_0, # of connection points: 6
#     Node 11, Type 1, BuildingBlock: FUNLAD_clean_sbu_0, # of connection points: 6
#     Edge 12, Type (0, 1), None
#     Edge 13, Type (0, 1), None
#     Edge 14, Type (0, 1), None
#     Edge 15, Type (0, 1), None
#     Edge 16, Type (0, 1), None
#     Edge 17, Type (0, 1), None
#     Edge 18, Type (0, 1), None
#     Edge 19, Type (0, 1), None
#     Edge 20, Type (0, 1), None
#     Edge 21, Type (0, 1), None
#     Edge 22, Type (0, 1), None
#     Edge 23, Type (0, 1), None
#     Edge 24, Type (0, 1), None
#     Edge 25, Type (0, 1), None
#     Edge 26, Type (0, 1), None
#     Edge 27, Type (0, 1), None
#     Edge 28, Type (0, 1), None
#     Edge 29, Type (0, 1), None
#     Edge 30, Type (0, 1), None
#     Edge 31, Type (0, 1), None
#     Edge 32, Type (0, 1), None
#     Edge 33, Type (0, 1), None
#     Edge 34, Type (0, 1), None
#     Edge 35, Type (0, 1), None
# Relax obj value: 0.128
# Max RMSD: 0.191
# Mean RMSD: 0.108
data_MOF--net-zzz--node1-FUNLAD_clean_sbu_0--node2-INOVEN_clean_linker_0--edge1-none
_symmetry_space_group_name_H-M    P1
_symmetry_Int_Tables_number       1
_symmetry_cell_setting            triclinic
loop_
_symmetry_equiv_pos_as_xyz
'x, y, z'
_cell_length_a     22.482662
_cell_length_b     28.686102
_cell_length_c     8.6797807
_cell_angle_alpha  80.091751
_cell_angle_beta   79.811267
_cell_angle_gamma 84.535716
loop_
_atom_site_label
_atom_site_type_symbol
_atom_site_fract_x
_atom_site_fract_y
_atom_site_fract_z
_atom_type_partial_charge
H0 H 0.81418 0.53214 0.72743 0.0
H1 H 0.99973 0.53883 0.49598 0.0
H2 H 0.87785 0.47049 0.30241 0.0
N3 N 0.78089 0.51319 0.44551 0.0
N4 N 0.77208 0.48813 0.34791 0.0
C5 C 0.85027 0.52358 0.63415 0.0
C6 C 0.91154 0.53128 0.6397 0.0
C7 C 0.83727 0.50453 0.5034 0.0
C8 C 0.8859 0.4875 0.39858 0.0
C9 C 0.94221 0.50403 0.38566 0.0
C10 C 0.95498 0.52698 0.50414 0.0
H11 H 0.99232 0.78633 0.5046 0.0
H12 H 1.03619 0.93147 0.43825 0.0
H13 H 0.07563 0.85555 0.04619 0.0
N14 N 1.0333 0.77199 0.21218 0.0
N15 N 1.03874 0.76789 0.06923 0.0
C16 C 1.01067 0.81737 0.42792 0.0
C17 C 1.01047 0.85956 0.48735 0.0
C18 C 1.03426 0.81557 0.26793 0.0
C19 C 0.05879 0.8563 0.17047 0.0
C20 C 0.06011 0.8983 0.23493 0.0
C21 C 1.03667 0.89882 0.39127 0.0
H22 H 0.76248 0.02481 0.56768 0.0
H23 H 0.59162 1.0128 0.42442 0.0
H24 H 0.75006 0.03052 0.07212 0.0
N25 N 0.83023 0.02894 0.27313 0.0
N26 N 0.85639 0.02152 0.13876 0.0
C27 C 0.7363 0.02365 0.47515 0.0
C28 C 0.673 0.01839 0.51452 0.0
C29 C 0.76557 0.0267 0.31477 0.0
C30 C 0.7296 0.02696 0.19598 0.0
C31 C 0.66703 0.02244 0.23652 0.0
C32 C 0.63984 1.01692 0.39456 0.0
H33 H 0.56713 0.68625 0.54791 0.0
H34 H 0.51397 0.55719 0.43737 0.0
H35 H 0.51786 0.68296 0.09111 0.0
N36 N 0.54842 0.74069 0.27632 0.0
N37 N 0.54464 0.76211 0.13999 0.0
C38 C 0.55223 0.66709 0.46596 0.0
C39 C 0.54284 0.61855 0.50958 0.0
C40 C 0.54109 0.69114 0.31695 0.0
C41 C 0.52259 0.66575 0.21007 0.0
C42 C 0.51238 0.61758 0.25341 0.0
C43 C 0.52093 0.59468 0.40465 0.0
H44 H 0.2694 0.51115 0.13222 0.0
H45 H 0.08389 0.50424 0.36389 0.0
H46 H 0.20563 0.57286 0.55704 0.0
N47 N 0.30264 0.53016 0.41416 0.0
N48 N 0.3114 0.55521 0.51182 0.0
C49 C 0.2333 0.51969 0.22551 0.0
C50 C 0.17205 0.51191 0.22004 0.0
C51 C 0.24627 0.53879 0.35621 0.0
C52 C 0.19761 0.55581 0.46097 0.0
C53 C 0.14135 0.53917 0.47405 0.0
C54 C 0.12862 0.51616 0.35565 0.0
H55 H 0.09125 0.25685 0.35507 0.0
H56 H 0.04716 0.11177 0.42134 0.0
H57 H 1.00781 0.18769 0.81341 0.0
N58 N 0.05025 0.27122 0.64747 0.0
N59 N 0.0448 0.2753 0.79043 0.0
C60 C 0.07286 0.22583 0.43173 0.0
C61 C 0.07299 0.18365 0.37229 0.0
C62 C 0.04925 0.22765 0.59171 0.0
C63 C 1.02466 0.18693 0.68914 0.0
C64 C 1.02329 0.14494 0.62467 0.0
C65 C 0.04673 0.14441 0.46834 0.0
H66 H 0.32083 0.01849 0.29174 0.0
H67 H 0.4917 0.03057 0.43491 0.0
H68 H 0.33329 1.01277 0.78728 0.0
N69 N 0.25311 1.01435 0.58633 0.0
N70 N 0.22696 0.02174 0.72073 0.0
C71 C 0.34702 0.01966 0.38426 0.0
C72 C 0.41031 0.02494 0.34485 0.0
C73 C 0.31776 1.0166 0.54465 0.0
C74 C 0.35373 1.01635 0.66341 0.0
C75 C 0.4163 0.0209 0.62285 0.0
C76 C 0.44348 0.02643 0.4648 0.0
H77 H 0.51625 0.35712 0.3118 0.0
H78 H 0.56959 0.48613 0.4223 0.0
H79 H 0.56554 0.36036 0.76862 0.0
N80 N 0.53493 0.30266 0.58336 0.0
N81 N 0.53864 0.28123 0.71972 0.0
C82 C 0.53118 0.37627 0.39375 0.0
C83 C 0.54063 0.42479 0.35012 0.0
C84 C 0.5423 0.35221 0.54277 0.0
C85 C 0.56083 0.37758 0.64966 0.0
C86 C 0.5711 0.42574 0.6063 0.0
C87 C 0.56258 0.44864 0.45504 0.0
C88 C 0.06888 0.94488 0.13692 0.0
N89 N 1.01347 0.94901 0.73524 0.0
C90 C 0.0548 0.91086 0.74555 0.0
C91 C 1.04019 0.86656 0.72515 0.0
C92 C 0.98997 0.86515 0.65249 0.0
C93 C 0.94293 0.90079 0.6724 0.0
C94 C 0.95651 0.94373 0.71016 0.0
Zn95 Zn 1.0335 1.0035 0.83513 0.0
C96 C 0.91995 0.0229 0.08234 0.0
N97 N 0.0699 0.09424 0.12426 0.0
C98 C 0.12686 0.09945 0.14952 0.0
C99 C 1.02862 0.13243 0.11397 0.0
C100 C 0.04329 0.1767 0.13443 0.0
C101 C 0.09351 0.17805 0.20716 0.0
C102 C 0.14049 0.14237 0.18731 0.0
Zn103 Zn 0.04985 0.03974 0.02445 0.0
O104 O 0.05459 0.94902 0.00263 0.0
C105 C 0.1634 0.02035 0.7772 0.0
O106 O 0.07269 0.98233 0.195 0.0
H107 H 0.98432 0.12903 0.08658 0.0
H108 H 0.09909 0.9143 0.77289 0.0
H109 H 0.16086 0.07018 0.14564 0.0
O110 O 0.12771 1.00174 0.71018 0.0
O111 O 0.14212 0.03694 0.9037 0.0
H112 H 0.92246 0.97297 0.71412 0.0
O113 O 1.02877 0.09422 0.85697 0.0
O114 O 1.01067 0.06092 0.66459 0.0
O115 O 0.95564 0.04152 0.14936 0.0
O116 O 0.94124 1.0063 0.95587 0.0
C117 C 1.01448 0.09836 0.72268 0.0
H118 H 0.07563 0.83814 0.72268 0.0
H119 H 0.90109 0.89929 0.62838 0.0
H120 H 1.00789 0.20515 0.13688 0.0
H121 H 0.18233 0.14379 0.23145 0.0
C122 C 0.45519 0.02005 0.74206 0.0
N123 N 0.53494 0.13365 0.85045 0.0
C124 C 0.53435 0.15303 0.69588 0.0
C125 C 0.53398 0.2021 0.64881 0.0
C126 C 0.53469 0.23144 0.76214 0.0
C127 C 0.53464 0.21074 0.92053 0.0
C128 C 0.53453 0.16145 -0.03717 0.0
Zn129 Zn 0.53946 0.06121 0.90725 0.0
C130 C 0.44634 0.02518 0.18464 0.0
N131 N 0.54837 0.90968 0.00899 0.0
C132 C 0.54861 0.88187 0.89672 0.0
C133 C 0.54909 0.89031 0.16352 0.0
C134 C 0.54944 0.84125 0.21067 0.0
C135 C 0.54858 0.8119 0.09747 0.0
C136 C 0.54848 0.83259 0.93912 0.0
Zn137 Zn 0.54386 0.98212 0.95213 0.0
O138 O 0.47398 0.05867 0.76104 0.0
C139 C 0.63698 1.01815 0.67473 0.0
O140 O 0.47807 0.98077 0.80555 0.0
H141 H 0.5484 0.91302 0.25128 0.0
H142 H 0.53515 0.13034 0.60803 0.0
H143 H 0.54795 0.89796 0.77476 0.0
O144 O 0.61183 0.05728 0.71105 0.0
O145 O 0.61618 0.9796 0.75242 0.0
H146 H 0.53508 0.14535 0.08484 0.0
O147 O 0.60937 0.98466 0.09825 0.0
O148 O 0.60522 0.06256 0.05391 0.0
O149 O 0.47152 0.98605 0.14838 0.0
O150 O 0.46711 0.06372 0.1069 0.0
C151 C 0.62814 0.02329 0.1173 0.0
H152 H 0.5345 0.21672 0.52501 0.0
H153 H 0.53547 0.23259 0.01012 0.0
H154 H 0.54905 0.82664 0.33443 0.0
H155 H 0.54752 0.81073 0.84964 0.0
C156 C 0.56995 0.45495 0.73018 0.0
N157 N 0.40623 0.51863 0.89481 0.0
C158 C 0.39427 0.48346 0.81872 0.0
C159 C 0.36607 0.49454 0.68364 0.0
C160 C 0.34838 0.54198 0.63068 0.0
C161 C 0.35409 0.57612 0.72354 0.0
C162 C 0.38239 0.5637 0.85683 0.0
Zn163 Zn 0.492 0.5173 0.95142 0.0
C164 C 0.53232 0.45168 0.19334 0.0
N165 N 0.67726 0.52477 -0.03512 0.0
C166 C 0.70102 0.47967 0.00298 0.0
C167 C 0.68927 0.55992 0.04095 0.0
C168 C 0.71746 0.54883 0.17604 0.0
C169 C 0.73509 0.50138 0.22907 0.0
C170 C 0.72931 0.46723 0.13628 0.0
Zn171 Zn 0.59149 0.52603 0.90827 0.0
O172 O 0.51831 0.46648 0.80247 0.0
C173 C 0.55116 0.59167 0.66636 0.0
O174 O 0.6161 0.47427 0.75 0.0
H175 H 0.67171 0.59598 0.0075 0.0
H176 H 0.41184 0.44741 0.85218 0.0
H177 H 0.6909 0.45183 0.94405 0.0
O178 O 0.50585 0.57112 0.74823 0.0
O179 O 0.60324 0.58095 0.70643 0.0
H180 H 0.39247 0.59154 0.9158 0.0
O181 O 0.56518 0.57686 0.05719 0.0
O182 O 0.46739 0.56905 0.1097 0.0
O183 O 0.57763 0.47223 0.11149 0.0
O184 O 0.48025 0.46238 0.15323 0.0
C185 C 0.51354 0.58838 0.12951 0.0
H186 H 0.35842 0.46654 0.62164 0.0
H187 H 0.33742 0.61256 0.69116 0.0
H188 H 0.72516 0.57683 0.238 0.0
H189 H 0.74593 0.43079 0.16872 0.0
C190 C 0.10286 0.53735 0.62815 0.0
N191 N 0.04689 0.41129 0.91211 0.0
C192 C 1.03687 0.40647 0.76543 0.0
C193 C 1.03602 0.36204 0.72344 0.0
C194 C 0.04482 0.32112 0.83335 0.0
C195 C 0.0539 0.32641 -0.01463 0.0
C196 C 0.05511 0.37224 0.02256 0.0
Zn197 Zn 0.04378 0.48187 0.94316 0.0
C198 C 0.14634 0.51078 0.07402 0.0
N199 N 1.03669 0.6319 0.94763 0.0
C200 C 1.02845 0.67094 0.83717 0.0
C201 C 0.04672 0.63672 0.09429 0.0
C202 C 0.04756 0.68116 0.13625 0.0
C203 C 1.03874 0.72207 0.02633 0.0
C204 C 1.02965 0.71678 0.87433 0.0
Zn205 Zn 1.0398 0.56132 0.91659 0.0
O206 O 0.09338 0.49704 0.71115 0.0
C207 C 0.93724 0.5324 0.78573 0.0
O208 O 0.0887 0.57473 0.68987 0.0
H209 H 0.05483 0.60592 0.1806 0.0
H210 H 1.02878 0.43728 0.67912 0.0
H211 H 1.02133 0.66666 0.72049 0.0
O212 O 0.96192 0.49292 0.84232 0.0
O213 O 0.9583 0.57039 0.80576 0.0
H214 H 0.06222 0.37651 0.13926 0.0
O215 O 0.99021 0.54614 0.14859 0.0
O216 O 0.99487 0.46846 0.16988 0.0
O217 O 0.12166 0.55027 0.01741 0.0
O218 O 0.12527 0.4728 0.05401 0.0
C219 C 0.98072 0.50583 0.2316 0.0
H220 H 1.0279 0.35992 0.6056 0.0
H221 H 0.06052 0.29551 0.07329 0.0
H222 H 0.05569 0.68329 0.25408 0.0
H223 H 1.02301 0.74767 0.78641 0.0
loop_
_geom_bond_atom_site_label_1
_geom_bond_atom_site_label_2
_geom_bond_distance
_geom_bond_site_symmetry_2
_ccdc_geom_bond_type
H0 C5 0.929 . S
H1 C10 0.931 . S
H2 C8 0.930 . S
N3 N4 1.234 . S
N3 C7 1.453 . S
N4 N3 1.234 . S
C5 H0 0.929 . S
C5 C6 1.373 . S
C5 C7 1.368 . S
C6 C5 1.373 . S
C6 C10 1.397 . S
C7 N3 1.453 . S
C7 C5 1.368 . S
C7 C8 1.373 . S
C8 H2 0.930 . S
C8 C7 1.373 . S
C8 C9 1.371 . S
C9 C8 1.371 . S
C9 C10 1.383 . S
C10 H1 0.931 . S
C10 C6 1.397 . S
C10 C9 1.383 . S
H11 C16 0.929 . S
H12 C21 0.931 . S
H13 C19 0.930 . S
N14 N15 1.234 1_454 S
N14 C18 1.453 . S
N15 N14 1.234 1_656 S
C16 H11 0.929 . S
C16 C17 1.373 . S
C16 C18 1.368 . S
C17 C16 1.373 . S
C17 C21 1.397 1_455 S
C18 N14 1.453 . S
C18 C16 1.368 . S
C18 C19 1.373 1_554 S
C19 H13 0.930 . S
C19 C18 1.373 1_556 S
C19 C20 1.371 . S
C20 C19 1.371 . S
C20 C21 1.383 1_456 S
C21 H12 0.931 . S
C21 C17 1.397 1_655 S
C21 C20 1.383 1_654 S
H22 C27 0.929 . S
H23 C32 0.931 . S
H24 C30 0.930 . S
N25 N26 1.234 . S
N25 C29 1.453 . S
N26 N25 1.234 . S
C27 H22 0.929 . S
C27 C28 1.373 . S
C27 C29 1.368 . S
C28 C27 1.373 . S
C28 C32 1.397 . S
C29 N25 1.453 . S
C29 C27 1.368 . S
C29 C30 1.373 . S
C30 H24 0.930 . S
C30 C29 1.373 . S
C30 C31 1.371 . S
C31 C30 1.371 . S
C31 C32 1.383 . S
C32 H23 0.931 . S
C32 C28 1.397 . S
C32 C31 1.383 . S
H33 C38 0.929 . S
H34 C43 0.931 . S
H35 C41 0.930 . S
N36 N37 1.234 . S
N36 C40 1.453 . S
N37 N36 1.234 . S
C38 H33 0.929 . S
C38 C39 1.373 . S
C38 C40 1.368 . S
C39 C38 1.373 . S
C39 C43 1.397 . S
C40 N36 1.453 . S
C40 C38 1.368 . S
C40 C41 1.373 . S
C41 H35 0.930 . S
C41 C40 1.373 . S
C41 C42 1.371 . S
C42 C41 1.371 . S
C42 C43 1.383 . S
C43 H34 0.931 . S
C43 C39 1.397 . S
C43 C42 1.383 . S
H44 C49 0.929 . S
H45 C54 0.931 . S
H46 C52 0.930 . S
N47 N48 1.234 . S
N47 C51 1.453 . S
N48 N47 1.234 . S
C49 H44 0.929 . S
C49 C50 1.373 . S
C49 C51 1.368 . S
C50 C49 1.373 . S
C50 C54 1.397 . S
C51 N47 1.453 . S
C51 C49 1.368 . S
C51 C52 1.373 . S
C52 H46 0.930 . S
C52 C51 1.373 . S
C52 C53 1.371 . S
C53 C52 1.371 . S
C53 C54 1.383 . S
C54 H45 0.931 . S
C54 C50 1.397 . S
C54 C53 1.383 . S
H55 C60 0.929 . S
H56 C65 0.931 . S
H57 C63 0.930 1_554 S
N58 N59 1.234 1_455 S
N58 C62 1.453 . S
N59 N58 1.234 1_655 S
C60 H55 0.929 . S
C60 C61 1.373 . S
C60 C62 1.368 . S
C61 C60 1.373 . S
C61 C65 1.397 1_455 S
C62 N58 1.453 . S
C62 C60 1.368 . S
C62 C63 1.373 . S
C63 H57 0.930 1_556 S
C63 C62 1.373 . S
C63 C64 1.371 . S
C64 C63 1.371 . S
C64 C65 1.383 1_455 S
C65 H56 0.931 . S
C65 C61 1.397 1_655 S
C65 C64 1.383 1_655 S
H66 C71 0.929 . S
H67 C76 0.931 . S
H68 C74 0.930 . S
N69 N70 1.234 . S
N69 C73 1.453 . S
N70 N69 1.234 . S
C71 H66 0.929 . S
C71 C72 1.373 . S
C71 C73 1.368 . S
C72 C71 1.373 . S
C72 C76 1.397 . S
C73 N69 1.453 . S
C73 C71 1.368 . S
C73 C74 1.373 . S
C74 H68 0.930 . S
C74 C73 1.373 . S
C74 C75 1.371 . S
C75 C74 1.371 . S
C75 C76 1.383 . S
C76 H67 0.931 . S
C76 C72 1.397 . S
C76 C75 1.383 . S
H77 C82 0.929 . S
H78 C87 0.931 . S
H79 C85 0.930 . S
N80 N81 1.234 . S
N80 C84 1.453 . S
N81 N80 1.234 . S
C82 H77 0.929 . S
C82 C83 1.373 . S
C82 C84 1.368 . S
C83 C82 1.373 . S
C83 C87 1.397 . S
C84 N80 1.453 . S
C84 C82 1.368 . S
C84 C85 1.373 . S
C85 H79 0.930 . S
C85 C84 1.373 . S
C85 C86 1.371 . S
C86 C85 1.371 . S
C86 C87 1.383 . S
C87 H78 0.931 . S
C87 C83 1.397 . S
C87 C86 1.383 . S
C88 O104 1.251 1_554 S
C88 O106 1.254 . S
N89 C90 1.333 1_655 S
N89 C94 1.310 . S
N89 Zn95 2.020 . S
C90 N89 1.333 1_455 S
C90 C91 1.379 . S
C90 H108 0.952 . S
C91 C90 1.379 . S
C91 C92 1.390 1_455 S
C91 H118 0.949 . S
C92 C91 1.390 1_655 S
C92 C93 1.357 . S
C93 C92 1.357 . S
C93 C94 1.374 . S
C93 H119 0.950 1_565 S
C94 N89 1.310 . S
C94 C93 1.374 . S
C94 H112 0.941 1_565 S
Zn95 N89 2.020 . S
Zn95 O104 2.039 1_655 S
Zn95 O110 2.034 1_655 S
Zn95 O114 2.025 1_565 S
Zn95 O116 2.024 . S
C96 O115 1.246 . S
C96 O116 1.249 1_544 S
N97 C98 1.307 . S
N97 C99 1.333 1_455 S
N97 Zn103 2.020 . S
C98 N97 1.307 . S
C98 C102 1.370 . S
C98 H109 0.948 1_545 S
C99 N97 1.333 1_655 S
C99 C100 1.379 . S
C99 H107 0.952 . S
C100 C99 1.379 . S
C100 C101 1.390 1_655 S
C100 H120 0.949 . S
C101 C100 1.390 1_455 S
C101 C102 1.357 . S
C102 C98 1.370 . S
C102 C101 1.357 . S
C102 H121 0.950 . S
Zn103 N97 2.020 . S
Zn103 O106 2.025 1_545 S
Zn103 O111 2.024 . S
Zn103 O113 2.039 1_454 S
Zn103 O115 2.034 1_455 S
O104 C88 1.251 1_556 S
O104 Zn95 2.039 1_455 S
C105 O110 1.246 1_545 S
C105 O111 1.249 1_556 S
O106 C88 1.254 . S
O106 Zn103 2.025 1_565 S
H107 C99 0.952 . S
H108 C90 0.952 . S
H109 C98 0.948 1_565 S
O110 Zn95 2.034 1_455 S
O110 C105 1.246 1_565 S
O111 Zn103 2.024 . S
O111 C105 1.249 1_554 S
H112 C94 0.941 1_545 S
O113 Zn103 2.039 1_656 S
O113 C117 1.251 . S
O114 Zn95 2.025 1_545 S
O114 C117 1.254 . S
O115 C96 1.246 . S
O115 Zn103 2.034 1_655 S
O116 Zn95 2.024 . S
O116 C96 1.249 1_566 S
C117 O113 1.251 . S
C117 O114 1.254 . S
H118 C91 0.949 . S
H119 C93 0.950 1_545 S
H120 C100 0.949 . S
H121 C102 0.950 . S
C122 O138 1.251 . S
C122 O140 1.254 1_545 S
N123 C124 1.333 . S
N123 C128 1.307 . S
N123 Zn129 2.020 . S
C124 N123 1.333 . S
C124 C125 1.379 . S
C124 H142 0.952 . S
C125 C124 1.379 . S
C125 C126 1.390 . S
C125 H152 0.949 . S
C126 C125 1.390 . S
C126 C127 1.357 . S
C127 C126 1.357 . S
C127 C128 1.370 . S
C127 H153 0.950 . S
C128 N123 1.307 . S
C128 C127 1.370 . S
C128 H146 0.948 1_556 S
Zn129 N123 2.020 . S
Zn129 O138 2.039 . S
Zn129 O144 2.034 . S
Zn129 O148 2.025 1_556 S
Zn129 O150 2.024 1_556 S
C130 O149 1.246 1_545 S
C130 O150 1.249 . S
N131 C132 1.307 1_554 S
N131 C133 1.333 . S
N131 Zn137 2.020 1_554 S
C132 N131 1.307 1_556 S
C132 C136 1.370 1_556 S
C132 H143 0.948 . S
C133 N131 1.333 . S
C133 C134 1.379 . S
C133 H141 0.952 . S
C134 C133 1.379 . S
C134 C135 1.390 . S
C134 H154 0.949 . S
C135 C134 1.390 . S
C135 C136 1.357 . S
C136 C132 1.370 1_554 S
C136 C135 1.357 . S
C136 H155 0.950 1_554 S
Zn137 N131 2.020 1_556 S
Zn137 O140 2.027 . S
Zn137 O145 2.026 . S
Zn137 O147 2.038 1_556 S
Zn137 O149 2.033 1_556 S
O138 C122 1.251 . S
O138 Zn129 2.039 . S
C139 O144 1.246 1_565 S
C139 O145 1.249 . S
O140 C122 1.254 1_565 S
O140 Zn137 2.027 . S
H141 C133 0.952 . S
H142 C124 0.952 . S
H143 C132 0.948 . S
O144 Zn129 2.034 . S
O144 C139 1.246 1_545 S
O145 Zn137 2.026 . S
O145 C139 1.249 . S
H146 C128 0.948 1_554 S
O147 Zn137 2.038 1_554 S
O147 C151 1.251 . S
O148 Zn129 2.025 1_554 S
O148 C151 1.254 1_545 S
O149 C130 1.246 1_565 S
O149 Zn137 2.033 1_554 S
O150 Zn129 2.024 1_554 S
O150 C130 1.249 . S
C151 O147 1.251 . S
C151 O148 1.254 1_565 S
H152 C125 0.949 . S
H153 C127 0.950 . S
H154 C134 0.949 . S
H155 C136 0.950 1_556 S
C156 O172 1.251 . S
C156 O174 1.254 . S
N157 C158 1.333 . S
N157 C162 1.307 1_556 S
N157 Zn163 2.020 . S
C158 N157 1.333 . S
C158 C159 1.379 . S
C158 H176 0.952 . S
C159 C158 1.379 . S
C159 C160 1.390 . S
C159 H186 0.949 . S
C160 C159 1.390 . S
C160 C161 1.357 1_556 S
C161 C160 1.357 1_554 S
C161 C162 1.370 . S
C161 H187 0.950 . S
C162 N157 1.307 1_554 S
C162 C161 1.370 . S
C162 H180 0.948 . S
Zn163 N157 2.020 . S
Zn163 O172 2.039 . S
Zn163 O178 2.034 . S
Zn163 O182 2.025 1_556 S
Zn163 O184 2.024 1_556 S
C164 O183 1.246 . S
C164 O184 1.249 . S
N165 C166 1.307 . S
N165 C167 1.333 1_556 S
N165 Zn171 2.020 . S
C166 N165 1.307 . S
C166 C170 1.370 . S
C166 H177 0.948 . S
C167 N165 1.333 1_554 S
C167 C168 1.379 . S
C167 H175 0.952 . S
C168 C167 1.379 . S
C168 C169 1.390 . S
C168 H188 0.949 . S
C169 C168 1.390 . S
C169 C170 1.357 1_554 S
C170 C166 1.370 . S
C170 C169 1.357 1_556 S
C170 H189 0.950 . S
Zn171 N165 2.020 . S
Zn171 O174 2.025 . S
Zn171 O179 2.024 . S
Zn171 O181 2.039 1_556 S
Zn171 O183 2.034 1_556 S
O172 C156 1.251 . S
O172 Zn163 2.039 . S
C173 O178 1.246 . S
C173 O179 1.249 . S
O174 C156 1.254 . S
O174 Zn171 2.025 . S
H175 C167 0.952 . S
H176 C158 0.952 . S
H177 C166 0.948 . S
O178 Zn163 2.034 . S
O178 C173 1.246 . S
O179 Zn171 2.024 . S
O179 C173 1.249 . S
H180 C162 0.948 . S
O181 Zn171 2.039 1_554 S
O181 C185 1.251 . S
O182 Zn163 2.025 1_554 S
O182 C185 1.254 . S
O183 C164 1.246 . S
O183 Zn171 2.034 1_554 S
O184 Zn163 2.024 1_554 S
O184 C164 1.249 . S
C185 O181 1.251 . S
C185 O182 1.254 . S
H186 C159 0.949 . S
H187 C161 0.950 . S
H188 C168 0.949 . S
H189 C170 0.950 . S
C190 O206 1.251 . S
C190 O208 1.254 . S
N191 C192 1.338 1_655 S
N191 C196 1.303 1_556 S
N191 Zn197 2.019 . S
C192 N191 1.338 1_455 S
C192 C193 1.379 . S
C192 H210 0.952 . S
C193 C192 1.379 . S
C193 C194 1.389 1_456 S
C193 H220 0.949 . S
C194 C193 1.389 1_654 S
C194 C195 1.358 . S
C195 C194 1.358 . S
C195 C196 1.370 . S
C195 H221 0.950 . S
C196 N191 1.303 1_554 S
C196 C195 1.370 . S
C196 H214 0.948 . S
Zn197 N191 2.019 . S
Zn197 O206 2.039 1_655 S
Zn197 O212 2.034 . S
Zn197 O216 2.025 1_556 S
Zn197 O218 2.024 1_656 S
C198 O217 1.246 . S
C198 O218 1.249 . S
N199 C200 1.307 . S
N199 C201 1.333 1_456 S
N199 Zn205 2.020 . S
C200 N199 1.307 . S
C200 C204 1.370 . S
C200 H211 0.948 . S
C201 N199 1.333 1_654 S
C201 C202 1.379 . S
C201 H209 0.952 . S
C202 C201 1.379 . S
C202 C203 1.390 1_654 S
C202 H222 0.949 . S
C203 C202 1.390 1_456 S
C203 C204 1.357 . S
C204 C200 1.370 . S
C204 C203 1.357 . S
C204 H223 0.950 . S
Zn205 N199 2.020 . S
Zn205 O208 2.025 . S
Zn205 O213 2.024 1_455 S
Zn205 O215 2.039 1_456 S
Zn205 O217 2.034 1_556 S
O206 C190 1.251 . S
O206 Zn197 2.039 1_455 S
C207 O212 1.246 . S
C207 O213 1.249 . S
O208 C190 1.254 . S
O208 Zn205 2.025 . S
H209 C201 0.952 . S
H210 C192 0.952 . S
H211 C200 0.948 . S
O212 Zn197 2.034 . S
O212 C207 1.246 . S
O213 Zn205 2.024 1_655 S
O213 C207 1.249 . S
H214 C196 0.948 . S
O215 Zn205 2.039 1_654 S
O215 C219 1.251 . S
O216 Zn197 2.025 1_554 S
O216 C219 1.254 . S
O217 C198 1.246 . S
O217 Zn205 2.034 1_554 S
O218 Zn197 2.024 1_454 S
O218 C198 1.249 . S
C219 O215 1.251 . S
C219 O216 1.254 . S
H220 C193 0.949 . S
H221 C195 0.950 . S
H222 C202 0.949 . S
H223 C204 0.950 . S
N70 C105 2.221 . S
C126 N81 1.512 . S
C160 N48 1.908 . S
C194 N59 1.665 1_554 S
C96 N26 2.243 1_545 S
N37 C135 1.504 . S
N4 C169 1.928 . S
N15 C203 1.690 1_655 S
C117 C64 1.274 1_655 S
C122 C75 1.654 . S
C156 C86 1.431 . S
C53 C190 1.083 . S
C20 C88 1.266 1_556 S
C151 C31 1.638 . S
C185 C42 1.423 . S
C9 C219 1.046 . S
C61 C101 1.812 . S
C72 C130 2.017 . S
C164 C83 1.604 . S
C198 C50 1.831 . S
C17 C92 1.835 1_455 S
C139 C28 1.998 . S
C173 C39 1.649 . S
C6 C207 1.807 . S
