# Generated by pormake.
# Topology anh, (6,3)-cn, num edge types: 1
# Building blocks:
#     Node 0, Type 0, BuildingBlock: MIFKUJ_clean_sbu_0, # of connection points: 6
#     Node 1, Type 0, BuildingBlock: MIFKUJ_clean_sbu_0, # of connection points: 6
#     Node 2, Type 0, BuildingBlock: MIFKUJ_clean_sbu_0, # of connection points: 6
#     Node 3, Type 1, BuildingBlock: BELTOD_clean_linker_0, # of connection points: 3
#     Node 4, Type 1, BuildingBlock: BELTOD_clean_linker_0, # of connection points: 3
#     Node 5, Type 1, BuildingBlock: BELTOD_clean_linker_0, # of connection points: 3
#     Node 6, Type 1, BuildingBlock: BELTOD_clean_linker_0, # of connection points: 3
#     Node 7, Type 1, BuildingBlock: BELTOD_clean_linker_0, # of connection points: 3
#     Node 8, Type 1, BuildingBlock: BELTOD_clean_linker_0, # of connection points: 3
#     Edge 9, Type (0, 1), None
#     Edge 10, Type (0, 1), None
#     Edge 11, Type (0, 1), None
#     Edge 12, Type (0, 1), None
#     Edge 13, Type (0, 1), None
#     Edge 14, Type (0, 1), None
#     Edge 15, Type (0, 1), None
#     Edge 16, Type (0, 1), None
#     Edge 17, Type (0, 1), None
#     Edge 18, Type (0, 1), None
#     Edge 19, Type (0, 1), None
#     Edge 20, Type (0, 1), None
#     Edge 21, Type (0, 1), None
#     Edge 22, Type (0, 1), None
#     Edge 23, Type (0, 1), None
#     Edge 24, Type (0, 1), None
#     Edge 25, Type (0, 1), None
#     Edge 26, Type (0, 1), None
# Relax obj value: 0.122
# Max RMSD: 0.184
# Mean RMSD: 0.155
data_MOF--net-anh--node1-MIFKUJ_clean_sbu_0--node2-BELTOD_clean_linker_0--edge1-none
_symmetry_space_group_name_H-M    P1
_symmetry_Int_Tables_number       1
_symmetry_cell_setting            triclinic
loop_
_symmetry_equiv_pos_as_xyz
'x, y, z'
_cell_length_a     18.727636
_cell_length_b     19.369592
_cell_length_c     28.908506
_cell_angle_alpha  94.461177
_cell_angle_beta   90.486814
_cell_angle_gamma 119.99643
loop_
_atom_site_label
_atom_site_type_symbol
_atom_site_fract_x
_atom_site_fract_y
_atom_site_fract_z
_atom_type_partial_charge
Zn0 Zn 0.0743 0.67022 0.17032 0.0
Zn1 Zn 0.84988 0.50438 0.16777 0.0
C2 C 0.17387 0.60148 0.16735 0.0
O3 O 0.1977 0.6475 0.20676 0.0
C4 C 0.72846 0.55933 0.15144 0.0
O5 O 0.78327 0.6131 0.12635 0.0
O6 O 0.1778 0.77735 0.17655 0.0
O7 O 0.98865 0.67345 0.13046 0.0
O8 O 0.90512 0.54589 0.10822 0.0
C9 C 0.22963 0.79449 0.14514 0.0
O10 O 0.20731 0.74884 0.10562 0.0
O11 O 0.1136 0.59577 0.14311 0.0
C12 C 0.74604 0.34662 0.18748 0.0
O13 O 0.72107 0.38559 0.21586 0.0
O14 O 0.80422 0.38543 0.16116 0.0
O15 O 0.91728 0.53798 0.22883 0.0
O16 O 0.04416 0.64269 0.23456 0.0
O17 O 0.74726 0.51477 0.17238 0.0
C18 C 0.95305 0.61705 0.09834 0.0
C19 C 0.98364 0.58644 0.25263 0.0
Zn20 Zn 0.62062 0.0576 0.48053 0.0
Zn21 Zn 0.5792 0.84255 0.48618 0.0
C22 C 0.78206 0.1921 0.48512 0.0
O23 O 0.7542 0.20714 0.52393 0.0
C24 C 0.39384 0.74262 0.49514 0.0
O25 O 0.39478 0.79916 0.52379 0.0
O26 O 0.56979 0.12637 0.48698 0.0
O27 O 0.55163 0.96139 0.43618 0.0
O28 O 0.61538 0.8931 0.42587 0.0
C29 C 0.59573 0.18705 0.46418 0.0
O30 O 0.64091 0.193 0.42855 0.0
O31 O 0.73599 0.12717 0.45977 0.0
C32 C 0.61635 0.71757 0.47556 0.0
O33 O 0.55988 0.69153 0.44127 0.0
O34 O 0.64009 0.78557 0.49721 0.0
O35 O 0.60197 0.91049 0.547 0.0
O36 O 0.63035 0.03581 0.54535 0.0
O37 O 0.46023 0.7533 0.47757 0.0
C38 C 0.59059 0.93735 0.41028 0.0
C39 C 0.62132 0.97843 0.56759 0.0
Zn40 Zn 0.53329 0.40351 0.82594 0.0
Zn41 Zn 0.39673 0.52058 0.81871 0.0
C42 C 0.56099 0.27764 0.83685 0.0
O43 O 0.59448 0.32497 0.87535 0.0
C44 C 0.45085 0.68103 0.80663 0.0
O45 O 0.37939 0.64373 0.78286 0.0
O46 O 0.65321 0.48835 0.83015 0.0
O47 O 0.46963 0.43599 0.7877 0.0
O48 O 0.40548 0.48351 0.75173 0.0
C49 C 0.70664 0.47809 0.8087 0.0
O50 O 0.68278 0.41248 0.78099 0.0
O51 O 0.52373 0.29631 0.80761 0.0
C52 C 0.28461 0.54722 0.86652 0.0
O53 O 0.34849 0.57697 0.89628 0.0
O54 O 0.28596 0.51076 0.82835 0.0
O55 O 0.42518 0.4674 0.86972 0.0
O56 O 0.48843 0.40182 0.88871 0.0
O57 O 0.47633 0.63991 0.82597 0.0
C58 C 0.45022 0.45152 0.74958 0.0
C59 C 0.44477 0.43361 0.89966 0.0
P60 P 0.5942 -0.00882 0.20562 0.0
H61 H 0.50785 0.90794 0.11634 0.0
H62 H 0.36129 0.83099 0.09115 0.0
H63 H 0.29838 0.88419 0.22776 0.0
H64 H 0.44383 0.95986 0.25247 0.0
H65 H 0.75394 0.1101 0.17367 0.0
H66 H 0.81538 0.25381 0.16581 0.0
H67 H 0.59074 0.2432 0.21026 0.0
H68 H 0.52909 0.10019 0.21657 0.0
H69 H 0.62039 0.87867 0.25502 0.0
H70 H 0.58668 0.08065 0.29057 0.0
O71 O 0.64358 0.95259 0.17528 0.0
H72 H 0.61857 0.85626 0.33737 0.0
H73 H 0.58204 0.05696 0.37206 0.0
C74 C 0.48664 0.93735 0.18668 0.0
C75 C 0.46234 0.90292 0.14076 0.0
C76 C 0.37859 0.85966 0.12631 0.0
C77 C 0.31806 0.85099 0.15755 0.0
C78 C 0.34325 0.88933 0.20283 0.0
C79 C 0.42673 0.93206 0.21721 0.0
C80 C 0.63688 0.09449 0.19551 0.0
C81 C 0.71754 0.13854 0.18091 0.0
C82 C 0.75251 0.22045 0.17639 0.0
C83 C 0.70776 0.25933 0.18764 0.0
C84 C 0.62669 0.21468 0.20162 0.0
C85 C 0.59131 0.13282 0.20509 0.0
C86 C 0.60471 0.98192 0.26653 0.0
C87 C 0.614 0.919 0.2805 0.0
C88 C 0.61276 0.90614 0.32755 0.0
C89 C 0.60002 0.95488 0.36115 0.0
C90 C 0.59206 0.01853 0.34702 0.0
C91 C 0.59503 0.03229 0.30025 0.0
P92 P 0.65677 0.48339 0.58332 0.0
H93 H 0.73396 0.46013 0.50236 0.0
H94 H 0.70678 0.34194 0.45171 0.0
H95 H 0.49838 0.19526 0.5315 0.0
H96 H 0.52518 0.31427 0.58152 0.0
H97 H 0.74749 0.65786 0.58903 0.0
H98 H 0.73286 0.75304 0.54482 0.0
H99 H 0.54235 0.5561 0.45499 0.0
H100 H 0.55663 0.46186 0.49962 0.0
H101 H 0.63739 0.40553 0.66833 0.0
H102 H 0.52119 0.51675 0.59951 0.0
O103 O 0.75237 0.52199 0.6067 0.0
H104 H 0.5523 0.39015 0.73494 0.0
H105 H 0.43824 0.50358 0.66624 0.0
C106 C 0.6328 0.3954 0.54618 0.0
C107 C 0.68193 0.40252 0.50859 0.0
C108 C 0.66551 0.33515 0.47925 0.0
C109 C 0.60028 0.2594 0.48762 0.0
C110 C 0.54896 0.25304 0.52424 0.0
C111 C 0.56488 0.32081 0.55322 0.0
C112 C 0.65386 0.55318 0.54725 0.0
C113 C 0.70385 0.63549 0.55925 0.0
C114 C 0.69551 0.68967 0.53386 0.0
C115 C 0.63654 0.66197 0.49634 0.0
C116 C 0.58892 0.57936 0.48335 0.0
C117 C 0.59693 0.52536 0.50896 0.0
C118 C 0.5871 0.46397 0.62949 0.0
C119 C 0.59338 0.42627 0.66749 0.0
C120 C 0.5449 0.4176 0.70552 0.0
C121 C 0.49002 0.44722 0.70631 0.0
C122 C 0.48042 0.48066 0.66691 0.0
C123 C 0.52839 0.48871 0.62874 0.0
P124 P 0.04926 0.67411 0.89872 0.0
H125 H 0.10302 0.62464 0.81382 0.0
H126 H 0.19377 0.56852 0.80066 0.0
H127 H 0.23833 0.58391 0.94897 0.0
H128 H 0.14667 0.63774 0.96199 0.0
H129 H 0.92449 0.71543 0.87754 0.0
H130 H 0.78356 0.6353 0.84277 0.0
H131 H 0.8269 0.43905 0.80709 0.0
H132 H 0.96489 0.5171 0.84374 0.0
H133 H 0.09756 0.7832 0.98426 0.0
H134 H 0.93196 0.53295 0.94181 0.0
O135 O 0.10001 0.77123 0.89056 0.0
H136 H 0.05945 0.76003 0.06471 0.0
H137 H 0.89301 0.50922 0.0216 0.0
C138 C 0.11612 0.63326 0.88882 0.0
C139 C 0.13111 0.61442 0.84345 0.0
C140 C 0.18235 0.58183 0.83599 0.0
C141 C 0.22158 0.57044 0.87388 0.0
C142 C 0.20774 0.59091 0.9192 0.0
C143 C 0.15539 0.62195 0.92661 0.0
C144 C 0.95618 0.6233 0.86205 0.0
C145 C 0.90436 0.65604 0.86093 0.0
C146 C 0.8239 0.61019 0.84132 0.0
C147 C 0.79474 0.53129 0.82208 0.0
C148 C 0.84827 0.50022 0.82096 0.0
C149 C 0.92782 0.54531 0.84163 0.0
C150 C 0.01639 0.66007 0.9571 0.0
C151 C 0.05204 0.72359 0.99216 0.0
C152 C 0.03031 0.71013 0.03811 0.0
C153 C 0.97299 0.63275 0.04955 0.0
C154 C 0.93704 0.56957 0.01403 0.0
C155 C 0.95895 0.58311 0.96829 0.0
P156 P 0.08661 0.45506 0.40421 0.0
H157 H 0.25318 0.48472 0.42304 0.0
H158 H 0.37775 0.60258 0.4569 0.0
H159 H 0.23384 0.7108 0.50251 0.0
H160 H 0.10828 0.59179 0.46769 0.0
H161 H 0.98492 0.28415 0.37804 0.0
H162 H 0.86197 0.17848 0.40949 0.0
H163 H 0.87985 0.34714 0.52254 0.0
H164 H 0.00323 0.45304 0.49051 0.0
H165 H 0.16575 0.6127 0.36947 0.0
H166 H 0.92324 0.40198 0.35957 0.0
O167 O 0.12432 0.41265 0.36698 0.0
H168 H 0.12359 0.66745 0.30948 0.0
H169 H 0.88098 0.45549 0.29812 0.0
C170 C 0.17148 0.52976 0.44231 0.0
C171 C 0.24773 0.5328 0.44114 0.0
C172 C 0.31927 0.60078 0.46025 0.0
C173 C 0.31595 0.66696 0.48134 0.0
C174 C 0.23846 0.66107 0.48611 0.0
C175 C 0.16659 0.59282 0.4666 0.0
C176 C 0.0042 0.37621 0.43245 0.0
C177 C 0.96359 0.29815 0.41018 0.0
C178 C 0.89288 0.23768 0.42806 0.0
C179 C 0.86119 0.25421 0.46857 0.0
C180 C 0.9031 0.33223 0.49144 0.0
C181 C 0.97379 0.39292 0.47329 0.0
C182 C 0.04755 0.50349 0.36955 0.0
C183 C 0.10233 0.57934 0.35569 0.0
C184 C 0.07801 0.61067 0.32106 0.0
C185 C -0.00092 0.56553 0.29844 0.0
C186 C 0.94219 0.49202 0.31478 0.0
C187 C 0.96648 0.46109 0.34992 0.0
P188 P 0.66096 0.03028 0.77893 0.0
H189 H 0.70554 0.14541 0.86031 0.0
H190 H 0.66558 0.24455 0.88378 0.0
H191 H 0.49479 0.16121 0.76354 0.0
H192 H 0.53389 0.06069 0.74091 0.0
H193 H 0.70139 0.91962 0.82019 0.0
H194 H 0.61653 0.77647 0.82928 0.0
H195 H 0.39847 0.78424 0.78804 0.0
H196 H 0.48325 0.92671 0.77947 0.0
H197 H 0.6971 0.1402 0.70722 0.0
H198 H 0.61618 0.88964 0.71252 0.0
O199 O 0.7591 0.06916 0.79804 0.0
H200 H 0.67859 0.11935 0.62261 0.0
H201 H 0.59774 0.86841 0.62838 0.0
C202 C 0.62452 0.09738 0.79822 0.0
C203 C 0.65903 0.14802 0.83922 0.0
C204 C 0.63582 0.20455 0.85263 0.0
C205 C 0.57769 0.21146 0.82515 0.0
C206 C 0.5403 0.15793 0.78518 0.0
C207 C 0.56291 0.1007 0.77213 0.0
C208 C 0.59835 0.93391 0.79978 0.0
C209 C 0.635 0.89103 0.81474 0.0
C210 C 0.58656 0.80912 0.81958 0.0
C211 C 0.50115 0.76905 0.80863 0.0
C212 C 0.46432 0.81333 0.7962 0.0
C213 C 0.51257 0.89509 0.79185 0.0
C214 C 0.65529 0.01615 0.71639 0.0
C215 C 0.67518 0.08071 0.69024 0.0
C216 C 0.66441 0.06857 0.64184 0.0
C217 C 0.63504 -0.00825 0.61874 0.0
C218 C 0.61922 0.92804 0.64504 0.0
C219 C 0.62965 0.94024 0.6934 0.0
P220 P 0.36797 0.43899 0.10286 0.0
H221 H 0.44949 0.38507 0.16596 0.0
H222 H 0.59467 0.43244 0.18458 0.0
H223 H 0.66323 0.64028 0.1103 0.0
H224 H 0.517 0.59293 0.09266 0.0
H225 H 0.225 0.43909 0.06141 0.0
H226 H 0.14492 0.50208 0.08755 0.0
H227 H 0.3107 0.61334 0.20973 0.0
H228 H 0.39012 0.55079 0.1832 0.0
H229 H 0.37162 0.31757 0.03861 0.0
H230 H 0.39391 0.54923 0.03255 0.0
O231 O 0.3126 0.34662 0.11923 0.0
H232 H 0.40527 0.31626 0.95704 0.0
H233 H 0.43055 0.54927 0.95157 0.0
C234 C 0.47232 0.48503 0.12753 0.0
C235 C 0.49547 0.44196 0.15478 0.0
C236 C 0.5789 0.4692 0.16533 0.0
C237 C 0.64091 0.53962 0.14824 0.0
C238 C 0.61721 0.5855 0.12366 0.0
C239 C 0.53353 0.55854 0.1136 0.0
C240 C 0.31481 0.49211 0.11977 0.0
C241 C 0.24466 0.47811 0.09347 0.0
C242 C 0.19852 0.51357 0.10862 0.0
C243 C 0.22116 0.5626 0.15076 0.0
C244 C 0.29133 0.5759 0.17708 0.0
C245 C 0.33742 0.5407 0.16181 0.0
C246 C 0.37741 0.4322 0.0411 0.0
C247 C 0.3815 0.36714 0.01936 0.0
C248 C 0.40148 0.36678 0.97294 0.0
C249 C 0.41805 0.43176 0.94762 0.0
C250 C 0.41383 0.4968 0.96949 0.0
C251 C 0.39365 0.49705 0.01591 0.0
loop_
_geom_bond_atom_site_label_1
_geom_bond_atom_site_label_2
_geom_bond_distance
_geom_bond_site_symmetry_2
_ccdc_geom_bond_type
Zn0 O6 1.969 . S
Zn0 O7 1.965 . S
Zn0 O11 2.024 . S
Zn0 O16 1.969 . S
Zn1 O8 1.969 . S
Zn1 O14 1.969 . S
Zn1 O15 1.965 . S
Zn1 O17 2.024 . S
C2 O3 1.229 . S
C2 O11 1.058 . S
O3 C2 1.229 . S
C4 O5 1.229 . S
C4 O17 1.058 . S
O5 C4 1.229 . S
O6 Zn0 1.969 . S
O6 C9 1.267 . S
O7 Zn0 1.965 . S
O7 C18 1.260 1_455 S
O8 Zn1 1.969 . S
O8 C18 1.258 . S
C9 O6 1.267 . S
C9 O10 1.228 . S
O10 C9 1.228 . S
O11 Zn0 2.024 . S
O11 C2 1.058 . S
C12 O13 1.228 . S
C12 O14 1.267 . S
O13 C12 1.228 . S
O14 Zn1 1.969 . S
O14 C12 1.267 . S
O15 Zn1 1.965 . S
O15 C19 1.260 1_655 S
O16 Zn0 1.969 . S
O16 C19 1.258 . S
O17 Zn1 2.024 . S
O17 C4 1.058 . S
C18 O7 1.260 1_655 S
C18 O8 1.258 . S
C19 O15 1.260 1_455 S
C19 O16 1.258 . S
Zn20 O26 1.969 . S
Zn20 O27 1.965 . S
Zn20 O31 2.024 . S
Zn20 O36 1.969 . S
Zn21 O28 1.969 . S
Zn21 O34 1.969 . S
Zn21 O35 1.965 . S
Zn21 O37 2.024 . S
C22 O23 1.229 . S
C22 O31 1.058 . S
O23 C22 1.229 . S
C24 O25 1.229 . S
C24 O37 1.058 . S
O25 C24 1.229 . S
O26 Zn20 1.969 . S
O26 C29 1.267 . S
O27 Zn20 1.965 . S
O27 C38 1.260 . S
O28 Zn21 1.969 . S
O28 C38 1.258 1_565 S
C29 O26 1.267 . S
C29 O30 1.228 . S
O30 C29 1.228 . S
O31 Zn20 2.024 . S
O31 C22 1.058 . S
C32 O33 1.228 . S
C32 O34 1.267 . S
O33 C32 1.228 . S
O34 Zn21 1.969 . S
O34 C32 1.267 . S
O35 Zn21 1.965 . S
O35 C39 1.260 1_565 S
O36 Zn20 1.969 . S
O36 C39 1.258 . S
O37 Zn21 2.024 . S
O37 C24 1.058 . S
C38 O27 1.260 . S
C38 O28 1.258 1_545 S
C39 O35 1.260 1_545 S
C39 O36 1.258 . S
Zn40 O46 1.969 . S
Zn40 O47 1.965 . S
Zn40 O51 2.024 . S
Zn40 O56 1.969 . S
Zn41 O48 1.969 . S
Zn41 O54 1.969 . S
Zn41 O55 1.965 . S
Zn41 O57 2.024 . S
C42 O43 1.229 . S
C42 O51 1.058 . S
O43 C42 1.229 . S
C44 O45 1.229 . S
C44 O57 1.058 . S
O45 C44 1.229 . S
O46 Zn40 1.969 . S
O46 C49 1.267 . S
O47 Zn40 1.965 . S
O47 C58 1.260 . S
O48 Zn41 1.969 . S
O48 C58 1.258 . S
C49 O46 1.267 . S
C49 O50 1.228 . S
O50 C49 1.228 . S
O51 Zn40 2.024 . S
O51 C42 1.058 . S
C52 O53 1.228 . S
C52 O54 1.267 . S
O53 C52 1.228 . S
O54 Zn41 1.969 . S
O54 C52 1.267 . S
O55 Zn41 1.965 . S
O55 C59 1.260 . S
O56 Zn40 1.969 . S
O56 C59 1.258 . S
O57 Zn41 2.024 . S
O57 C44 1.058 . S
C58 O47 1.260 . S
C58 O48 1.258 . S
C59 O55 1.260 . S
C59 O56 1.258 . S
P60 O71 1.490 . S
P60 C74 1.812 . S
P60 C80 1.803 1_565 S
P60 C86 1.819 . S
H61 C75 0.941 . S
H62 C76 0.939 . S
H63 C78 0.940 . S
H64 C79 0.940 . S
H65 C81 0.939 . S
H66 C82 0.942 . S
H67 C84 0.940 . S
H68 C85 0.939 . S
H69 C87 0.941 . S
H70 C91 0.939 . S
O71 P60 1.490 . S
H72 C88 0.939 . S
H73 C90 0.940 . S
C74 P60 1.812 . S
C74 C75 1.389 . S
C74 C79 1.391 . S
C75 H61 0.941 . S
C75 C74 1.389 . S
C75 C76 1.397 . S
C76 H62 0.939 . S
C76 C75 1.397 . S
C76 C77 1.378 . S
C77 C76 1.378 . S
C77 C78 1.378 . S
C78 H63 0.940 . S
C78 C77 1.378 . S
C78 C79 1.396 . S
C79 H64 0.940 . S
C79 C74 1.391 . S
C79 C78 1.396 . S
C80 P60 1.803 1_545 S
C80 C81 1.378 . S
C80 C85 1.400 . S
C81 H65 0.939 . S
C81 C80 1.378 . S
C81 C82 1.361 . S
C82 H66 0.942 . S
C82 C81 1.361 . S
C82 C83 1.369 . S
C83 C82 1.369 . S
C83 C84 1.404 . S
C84 H67 0.940 . S
C84 C83 1.404 . S
C84 C85 1.389 . S
C85 H68 0.939 . S
C85 C80 1.400 . S
C85 C84 1.389 . S
C86 P60 1.819 . S
C86 C87 1.391 . S
C86 C91 1.391 1_565 S
C87 H69 0.941 . S
C87 C86 1.391 . S
C87 C88 1.396 . S
C88 H72 0.939 . S
C88 C87 1.396 . S
C88 C89 1.397 1_565 S
C89 C88 1.397 1_545 S
C89 C90 1.385 . S
C90 H73 0.940 . S
C90 C89 1.385 . S
C90 C91 1.388 . S
C91 H70 0.939 . S
C91 C86 1.391 1_545 S
C91 C90 1.388 . S
P92 O103 1.490 . S
P92 C106 1.812 . S
P92 C112 1.803 . S
P92 C118 1.819 . S
H93 C107 0.941 . S
H94 C108 0.939 . S
H95 C110 0.940 . S
H96 C111 0.940 . S
H97 C113 0.939 . S
H98 C114 0.942 . S
H99 C116 0.940 . S
H100 C117 0.939 . S
H101 C119 0.941 . S
H102 C123 0.939 . S
O103 P92 1.490 . S
H104 C120 0.939 . S
H105 C122 0.940 . S
C106 P92 1.812 . S
C106 C107 1.389 . S
C106 C111 1.391 . S
C107 H93 0.941 . S
C107 C106 1.389 . S
C107 C108 1.397 . S
C108 H94 0.939 . S
C108 C107 1.397 . S
C108 C109 1.378 . S
C109 C108 1.378 . S
C109 C110 1.378 . S
C110 H95 0.940 . S
C110 C109 1.378 . S
C110 C111 1.396 . S
C111 H96 0.940 . S
C111 C106 1.391 . S
C111 C110 1.396 . S
C112 P92 1.803 . S
C112 C113 1.378 . S
C112 C117 1.400 . S
C113 H97 0.939 . S
C113 C112 1.378 . S
C113 C114 1.361 . S
C114 H98 0.942 . S
C114 C113 1.361 . S
C114 C115 1.369 . S
C115 C114 1.369 . S
C115 C116 1.404 . S
C116 H99 0.940 . S
C116 C115 1.404 . S
C116 C117 1.389 . S
C117 H100 0.939 . S
C117 C112 1.400 . S
C117 C116 1.389 . S
C118 P92 1.819 . S
C118 C119 1.391 . S
C118 C123 1.391 . S
C119 H101 0.941 . S
C119 C118 1.391 . S
C119 C120 1.396 . S
C120 H104 0.939 . S
C120 C119 1.396 . S
C120 C121 1.397 . S
C121 C120 1.397 . S
C121 C122 1.385 . S
C122 H105 0.940 . S
C122 C121 1.385 . S
C122 C123 1.388 . S
C123 H102 0.939 . S
C123 C118 1.391 . S
C123 C122 1.388 . S
P124 O135 1.490 . S
P124 C138 1.812 . S
P124 C144 1.803 1_455 S
P124 C150 1.819 . S
H125 C139 0.941 . S
H126 C140 0.939 . S
H127 C142 0.940 . S
H128 C143 0.940 . S
H129 C145 0.939 . S
H130 C146 0.942 . S
H131 C148 0.940 . S
H132 C149 0.939 . S
H133 C151 0.941 . S
H134 C155 0.939 . S
O135 P124 1.490 . S
H136 C152 0.939 . S
H137 C154 0.940 . S
C138 P124 1.812 . S
C138 C139 1.389 . S
C138 C143 1.391 . S
C139 H125 0.941 . S
C139 C138 1.389 . S
C139 C140 1.397 . S
C140 H126 0.939 . S
C140 C139 1.397 . S
C140 C141 1.378 . S
C141 C140 1.378 . S
C141 C142 1.378 . S
C142 H127 0.940 . S
C142 C141 1.378 . S
C142 C143 1.396 . S
C143 H128 0.940 . S
C143 C138 1.391 . S
C143 C142 1.396 . S
C144 P124 1.803 1_655 S
C144 C145 1.378 . S
C144 C149 1.400 . S
C145 H129 0.939 . S
C145 C144 1.378 . S
C145 C146 1.361 . S
C146 H130 0.942 . S
C146 C145 1.361 . S
C146 C147 1.369 . S
C147 C146 1.369 . S
C147 C148 1.404 . S
C148 H131 0.940 . S
C148 C147 1.404 . S
C148 C149 1.389 . S
C149 H132 0.939 . S
C149 C144 1.400 . S
C149 C148 1.389 . S
C150 P124 1.819 . S
C150 C151 1.391 . S
C150 C155 1.391 1_455 S
C151 H133 0.941 . S
C151 C150 1.391 . S
C151 C152 1.396 1_556 S
C152 H136 0.939 . S
C152 C151 1.396 1_554 S
C152 C153 1.397 . S
C153 C152 1.397 . S
C153 C154 1.385 1_455 S
C154 H137 0.940 . S
C154 C153 1.385 1_655 S
C154 C155 1.388 1_554 S
C155 H134 0.939 . S
C155 C150 1.391 1_655 S
C155 C154 1.388 1_556 S
P156 O167 1.490 . S
P156 C170 1.812 . S
P156 C176 1.803 1_455 S
P156 C182 1.819 . S
H157 C171 0.941 . S
H158 C172 0.939 . S
H159 C174 0.940 . S
H160 C175 0.940 . S
H161 C177 0.939 . S
H162 C178 0.942 . S
H163 C180 0.940 . S
H164 C181 0.939 . S
H165 C183 0.941 . S
H166 C187 0.939 . S
O167 P156 1.490 . S
H168 C184 0.939 . S
H169 C186 0.940 . S
C170 P156 1.812 . S
C170 C171 1.389 . S
C170 C175 1.391 . S
C171 H157 0.941 . S
C171 C170 1.389 . S
C171 C172 1.397 . S
C172 H158 0.939 . S
C172 C171 1.397 . S
C172 C173 1.378 . S
C173 C172 1.378 . S
C173 C174 1.378 . S
C174 H159 0.940 . S
C174 C173 1.378 . S
C174 C175 1.396 . S
C175 H160 0.940 . S
C175 C170 1.391 . S
C175 C174 1.396 . S
C176 P156 1.803 1_655 S
C176 C177 1.378 . S
C176 C181 1.400 . S
C177 H161 0.939 . S
C177 C176 1.378 . S
C177 C178 1.361 . S
C178 H162 0.942 . S
C178 C177 1.361 . S
C178 C179 1.369 . S
C179 C178 1.369 . S
C179 C180 1.404 . S
C180 H163 0.940 . S
C180 C179 1.404 . S
C180 C181 1.389 . S
C181 H164 0.939 . S
C181 C176 1.400 . S
C181 C180 1.389 . S
C182 P156 1.819 . S
C182 C183 1.391 . S
C182 C187 1.391 1_455 S
C183 H165 0.941 . S
C183 C182 1.391 . S
C183 C184 1.396 . S
C184 H168 0.939 . S
C184 C183 1.396 . S
C184 C185 1.397 . S
C185 C184 1.397 . S
C185 C186 1.385 1_455 S
C186 H169 0.940 . S
C186 C185 1.385 1_655 S
C186 C187 1.388 . S
C187 H166 0.939 . S
C187 C182 1.391 1_655 S
C187 C186 1.388 . S
P188 O199 1.490 . S
P188 C202 1.812 . S
P188 C208 1.803 1_545 S
P188 C214 1.819 . S
H189 C203 0.941 . S
H190 C204 0.939 . S
H191 C206 0.940 . S
H192 C207 0.940 . S
H193 C209 0.939 . S
H194 C210 0.942 . S
H195 C212 0.940 . S
H196 C213 0.939 . S
H197 C215 0.941 . S
H198 C219 0.939 . S
O199 P188 1.490 . S
H200 C216 0.939 . S
H201 C218 0.940 . S
C202 P188 1.812 . S
C202 C203 1.389 . S
C202 C207 1.391 . S
C203 H189 0.941 . S
C203 C202 1.389 . S
C203 C204 1.397 . S
C204 H190 0.939 . S
C204 C203 1.397 . S
C204 C205 1.378 . S
C205 C204 1.378 . S
C205 C206 1.378 . S
C206 H191 0.940 . S
C206 C205 1.378 . S
C206 C207 1.396 . S
C207 H192 0.940 . S
C207 C202 1.391 . S
C207 C206 1.396 . S
C208 P188 1.803 1_565 S
C208 C209 1.378 . S
C208 C213 1.400 . S
C209 H193 0.939 . S
C209 C208 1.378 . S
C209 C210 1.361 . S
C210 H194 0.942 . S
C210 C209 1.361 . S
C210 C211 1.369 . S
C211 C210 1.369 . S
C211 C212 1.404 . S
C212 H195 0.940 . S
C212 C211 1.404 . S
C212 C213 1.389 . S
C213 H196 0.939 . S
C213 C208 1.400 . S
C213 C212 1.389 . S
C214 P188 1.819 . S
C214 C215 1.391 . S
C214 C219 1.391 1_545 S
C215 H197 0.941 . S
C215 C214 1.391 . S
C215 C216 1.396 . S
C216 H200 0.939 . S
C216 C215 1.396 . S
C216 C217 1.397 . S
C217 C216 1.397 . S
C217 C218 1.385 1_545 S
C218 H201 0.940 . S
C218 C217 1.385 1_565 S
C218 C219 1.388 . S
C219 H198 0.939 . S
C219 C214 1.391 1_565 S
C219 C218 1.388 . S
P220 O231 1.490 . S
P220 C234 1.812 . S
P220 C240 1.803 . S
P220 C246 1.819 . S
H221 C235 0.941 . S
H222 C236 0.939 . S
H223 C238 0.940 . S
H224 C239 0.940 . S
H225 C241 0.939 . S
H226 C242 0.942 . S
H227 C244 0.940 . S
H228 C245 0.939 . S
H229 C247 0.941 . S
H230 C251 0.939 . S
O231 P220 1.490 . S
H232 C248 0.939 . S
H233 C250 0.940 . S
C234 P220 1.812 . S
C234 C235 1.389 . S
C234 C239 1.391 . S
C235 H221 0.941 . S
C235 C234 1.389 . S
C235 C236 1.397 . S
C236 H222 0.939 . S
C236 C235 1.397 . S
C236 C237 1.378 . S
C237 C236 1.378 . S
C237 C238 1.378 . S
C238 H223 0.940 . S
C238 C237 1.378 . S
C238 C239 1.396 . S
C239 H224 0.940 . S
C239 C234 1.391 . S
C239 C238 1.396 . S
C240 P220 1.803 . S
C240 C241 1.378 . S
C240 C245 1.400 . S
C241 H225 0.939 . S
C241 C240 1.378 . S
C241 C242 1.361 . S
C242 H226 0.942 . S
C242 C241 1.361 . S
C242 C243 1.369 . S
C243 C242 1.369 . S
C243 C244 1.404 . S
C244 H227 0.940 . S
C244 C243 1.404 . S
C244 C245 1.389 . S
C245 H228 0.939 . S
C245 C240 1.400 . S
C245 C244 1.389 . S
C246 P220 1.819 . S
C246 C247 1.391 . S
C246 C251 1.391 . S
C247 H229 0.941 . S
C247 C246 1.391 . S
C247 C248 1.396 1_554 S
C248 H232 0.939 . S
C248 C247 1.396 1_556 S
C248 C249 1.397 . S
C249 C248 1.397 . S
C249 C250 1.385 . S
C250 H233 0.940 . S
C250 C249 1.385 . S
C250 C251 1.388 1_556 S
C251 H230 0.939 . S
C251 C246 1.391 . S
C251 C250 1.388 1_554 S
C2 C243 1.598 . S
C22 C179 1.600 . S
C44 C211 1.708 . S
C4 C237 1.779 . S
C173 C24 1.824 . S
C205 C42 1.675 . S
C32 C115 1.602 . S
C49 C147 1.434 . S
C9 C77 1.191 . S
C109 C29 1.315 . S
C141 C52 1.323 . S
C12 C83 1.224 . S
C153 C18 1.472 1_455 S
C38 C89 1.336 . S
C58 C121 1.414 . S
C217 C39 1.440 . S
C249 C59 1.416 . S
C19 C185 1.427 . S
