# Generated by pormake.
# Topology rtl, (3,6)-cn, num edge types: 1
# Building blocks:
#     Node 0, Type 0, BuildingBlock: PAMTOO_clean_linker_0, # of connection points: 3
#     Node 1, Type 0, BuildingBlock: PAMTOO_clean_linker_0, # of connection points: 3
#     Node 2, Type 0, BuildingBlock: PAMTOO_clean_linker_0, # of connection points: 3
#     Node 3, Type 0, BuildingBlock: PAMTOO_clean_linker_0, # of connection points: 3
#     Node 4, Type 1, BuildingBlock: CIFDUS_clean_sbu_1, # of connection points: 6
#     Node 5, Type 1, BuildingBlock: CIFDUS_clean_sbu_1, # of connection points: 6
#     Edge 6, Type (0, 1), BuildingBlock: EYOCIG_clean_linker_4, # of connection points: 2
#     Edge 7, Type (0, 1), BuildingBlock: EYOCIG_clean_linker_4, # of connection points: 2
#     Edge 8, Type (0, 1), BuildingBlock: EYOCIG_clean_linker_4, # of connection points: 2
#     Edge 9, Type (0, 1), BuildingBlock: EYOCIG_clean_linker_4, # of connection points: 2
#     Edge 10, Type (0, 1), BuildingBlock: EYOCIG_clean_linker_4, # of connection points: 2
#     Edge 11, Type (0, 1), BuildingBlock: EYOCIG_clean_linker_4, # of connection points: 2
#     Edge 12, Type (0, 1), BuildingBlock: EYOCIG_clean_linker_4, # of connection points: 2
#     Edge 13, Type (0, 1), BuildingBlock: EYOCIG_clean_linker_4, # of connection points: 2
#     Edge 14, Type (0, 1), BuildingBlock: EYOCIG_clean_linker_4, # of connection points: 2
#     Edge 15, Type (0, 1), BuildingBlock: EYOCIG_clean_linker_4, # of connection points: 2
#     Edge 16, Type (0, 1), BuildingBlock: EYOCIG_clean_linker_4, # of connection points: 2
#     Edge 17, Type (0, 1), BuildingBlock: EYOCIG_clean_linker_4, # of connection points: 2
# Relax obj value: 0.021
# Max RMSD: 0.110
# Mean RMSD: 0.087
data_MOF--net-rtl--node1-CIFDUS_clean_sbu_1--node2-PAMTOO_clean_linker_0--edge1-EYOCIG_clean_linker_4
_symmetry_space_group_name_H-M    P1
_symmetry_Int_Tables_number       1
_symmetry_cell_setting            triclinic
loop_
_symmetry_equiv_pos_as_xyz
'x, y, z'
_cell_length_a     27.708273
_cell_length_b     27.867846
_cell_length_c     17.071574
_cell_angle_alpha  91.900609
_cell_angle_beta   98.072487
_cell_angle_gamma 90.29868
loop_
_atom_site_label
_atom_site_type_symbol
_atom_site_fract_x
_atom_site_fract_y
_atom_site_fract_z
_atom_type_partial_charge
H0 H 0.14502 0.92228 0.06934 0.0
H1 H 0.24995 0.84264 0.22263 0.0
H2 H 0.23596 0.81799 0.97038 0.0
H3 H 0.24403 0.73008 0.08553 0.0
C4 C 0.27377 0.74661 0.12864 0.0
O5 O 0.28266 0.79311 0.10845 0.0
H6 H 0.26314 0.74654 0.18902 0.0
C7 C 0.17353 0.8956 0.07711 0.0
C8 C 0.18796 0.87172 1.01054 0.0
C9 C 0.19562 0.8851 0.15369 0.0
C10 C 0.23267 0.8509 0.1637 0.0
C11 C 0.24688 0.82624 0.09783 0.0
C12 C 0.22448 0.83669 0.0212 0.0
H13 H 0.64153 0.64496 0.58028 0.0
H14 H 0.73312 0.7479 0.48672 0.0
H15 H 0.75105 0.72474 0.73691 0.0
H16 H 0.77029 0.8222 0.71059 0.0
C17 C 0.77697 0.82013 0.64791 0.0
O18 O 0.78331 0.77284 0.62492 0.0
H19 H 0.7455 0.83574 0.60976 0.0
C20 C 0.67064 0.67161 0.5894 0.0
C21 C 0.69441 0.68228 0.6663 0.0
C22 C 0.68442 0.69505 0.52421 0.0
C23 C 0.72197 0.72977 0.53654 0.0
C24 C 0.74603 0.74049 0.61331 0.0
C25 C 0.73236 0.71641 0.67786 0.0
H26 H 0.90323 0.14162 0.04 0.0
H27 H 0.81003 0.23225 0.88635 0.0
H28 H 0.81651 0.24984 0.1389 0.0
H29 H 0.71409 0.25076 0.02737 0.0
C30 C 0.72727 0.27316 0.98186 0.0
O31 O 0.77683 0.28136 1.00044 0.0
H32 H 0.71922 0.2544 0.92296 0.0
C33 C 0.87691 0.17038 0.03216 0.0
C34 C 0.86246 0.1942 0.09873 0.0
C35 C 0.85784 0.18373 0.95551 0.0
C36 C 0.82442 0.22133 0.94536 0.0
C37 C 0.80907 0.24492 1.01127 0.0
C38 C 0.82811 0.23129 0.08806 0.0
H39 H 0.3997 0.42087 0.51902 0.0
H40 H 0.31373 0.31229 0.61101 0.0
H41 H 0.30171 0.33018 0.35978 0.0
H42 H 0.21067 0.30165 0.39758 0.0
C43 C 0.22116 0.28774 0.45777 0.0
O44 O 0.27087 0.2805 0.47115 0.0
H45 H 0.21025 0.31394 0.50248 0.0
C46 C 0.37276 0.39211 0.50935 0.0
C47 C 0.35183 0.3788 0.43187 0.0
C48 C 0.35941 0.36817 0.57435 0.0
C49 C 0.32439 0.331 0.56139 0.0
C50 C 0.30344 0.31738 0.48393 0.0
C51 C 0.31754 0.34115 0.41942 0.0
O52 O 0.99175 0.07813 0.46668 0.0
Mn53 Mn 0.02362 0.03106 0.55399 0.0
O54 O 0.94661 0.03256 0.37163 0.0
Mn55 Mn 0.9686 0.97414 0.40986 0.0
O56 O 0.05541 0.98376 0.64132 0.0
O57 O 0.07339 0.08302 0.59356 0.0
Mn58 Mn 0.08048 0.0869 0.69803 0.0
O59 O 0.9756 0.05755 0.63039 0.0
O60 O 0.10347 0.02841 0.73393 0.0
O61 O 0.07204 1.00491 0.47785 0.0
O62 O 0.02888 0.95629 0.38523 0.0
O63 O 0.12188 0.13274 0.6692 0.0
O64 O 0.02042 0.10376 0.72502 0.0
C65 C 0.9405 0.94567 0.50865 0.0
C66 C 0.96198 0.07315 0.40155 0.0
C67 C 0.08652 0.98814 0.70502 0.0
C68 C 0.10515 0.11767 0.59806 0.0
C69 C 0.97991 0.08619 0.69186 0.0
C70 C 0.06882 0.97532 0.4177 0.0
O71 O 0.97364 0.97916 0.51423 0.0
O72 O 0.9255 0.92959 0.43742 0.0
O73 O 0.55189 0.58094 0.14162 0.0
Mn74 Mn 0.52169 0.53209 0.04923 0.0
O75 O 0.59711 0.53792 0.23383 0.0
Mn76 Mn 0.57461 0.47901 0.19136 0.0
O77 O 0.49123 0.48362 0.95663 0.0
O78 O 0.47251 0.58302 1.01126 0.0
Mn79 Mn 0.46942 0.58664 0.90751 0.0
O80 O 0.57204 0.55844 0.97801 0.0
O81 O 0.4476 0.52766 0.86378 0.0
O82 O 0.47142 0.50565 0.12033 0.0
O83 O 0.51396 0.4611 0.21346 0.0
O84 O 0.42597 0.63113 0.93569 0.0
O85 O 0.53028 0.60508 0.88715 0.0
C86 C 0.60295 0.44687 0.09358 0.0
C87 C 0.58135 0.57767 0.20687 0.0
C88 C 0.46239 0.48757 0.89087 0.0
C89 C 0.43967 0.61625 1.00624 0.0
C90 C 0.56984 0.58733 0.92014 0.0
C91 C 0.4741 0.47766 0.17941 0.0
O92 O 0.57093 0.48096 0.08719 0.0
O93 O 0.61722 0.43345 0.16486 0.0
C94 C 0.17094 0.20708 0.47342 0.0
C95 C 0.19475 0.24234 0.4636 0.0
C96 C 0.14272 0.16876 0.49644 0.0
C97 C 0.12123 0.14083 0.53216 0.0
C98 C 0.35206 0.69141 0.12231 0.0
C99 C 0.31782 0.71744 0.12786 0.0
C100 C 0.38944 0.66025 0.10373 0.0
C101 C 0.41685 0.63585 0.07057 0.0
C102 C 0.85486 0.87409 0.63037 0.0
C103 C 0.82084 0.84874 0.64056 0.0
C104 C 0.89174 0.90411 0.60787 0.0
C105 C 0.91845 0.92735 0.57313 0.0
C106 C 0.67614 0.35442 0.98199 0.0
C107 C 0.70077 0.31883 0.9792 0.0
C108 C 0.64598 0.39352 0.99772 0.0
C109 C 0.62206 0.42254 0.02926 0.0
C110 C 0.16325 0.92789 0.27721 0.0
C111 C 0.17869 0.9079 0.22202 0.0
C112 C 0.1389 0.94895 0.33724 0.0
C113 C 0.11104 0.96418 0.38038 0.0
C114 C 0.66404 0.63847 0.78676 0.0
C115 C 0.67881 0.65906 0.73332 0.0
C116 C 0.64044 0.61609 0.84476 0.0
C117 C 0.61281 0.59962 0.8861 0.0
C118 C 0.90305 0.16468 0.23924 0.0
C119 C 0.88319 0.17994 0.1773 0.0
C120 C 0.92674 0.141 0.30642 0.0
C121 C 0.94564 0.1143 0.35612 0.0
C122 C 0.40271 0.39668 0.71758 0.0
C123 C 0.38188 0.38222 0.65387 0.0
C124 C 0.42706 0.41945 0.78811 0.0
C125 C 0.44615 0.44589 0.84149 0.0
C126 C 0.63952 0.66838 0.38102 0.0
C127 C 0.66103 0.68183 0.44485 0.0
C128 C 0.61526 0.64606 0.31 0.0
C129 C 0.59662 0.6196 0.25629 0.0
C130 C 0.88816 0.13861 0.83231 0.0
C131 C 0.87377 0.15971 0.88741 0.0
C132 C 0.91109 0.11569 0.77228 0.0
C133 C 0.93803 0.09902 0.72882 0.0
C134 C 0.38103 0.424 0.31189 0.0
C135 C 0.36697 0.40274 0.36522 0.0
C136 C 0.40393 0.44731 0.25406 0.0
C137 C 0.43119 0.46444 0.2128 0.0
C138 C 0.145 0.89817 0.86942 0.0
C139 C 0.16585 0.88451 0.93187 0.0
C140 C 0.12094 0.92065 0.80126 0.0
C141 C 0.10207 0.94692 0.75084 0.0
loop_
_geom_bond_atom_site_label_1
_geom_bond_atom_site_label_2
_geom_bond_distance
_geom_bond_site_symmetry_2
_ccdc_geom_bond_type
H0 C7 0.929 . S
H1 C10 0.930 . S
H2 C12 0.920 1_556 S
H3 C4 0.969 . S
C4 H3 0.969 . S
C4 O5 1.550 . S
C4 H6 0.973 . S
O5 C4 1.550 . S
O5 C11 1.412 . S
H6 C4 0.973 . S
C7 H0 0.929 . S
C7 C8 1.400 . S
C7 C9 1.364 . S
C8 C7 1.400 . S
C8 C12 1.378 . S
C9 C7 1.364 . S
C9 C10 1.374 . S
C10 H1 0.930 . S
C10 C9 1.374 . S
C10 C11 1.383 . S
C11 O5 1.412 . S
C11 C10 1.383 . S
C11 C12 1.402 . S
C12 H2 0.920 1_554 S
C12 C8 1.378 . S
C12 C11 1.402 . S
H13 C20 0.929 . S
H14 C23 0.930 . S
H15 C25 0.929 . S
H16 C17 0.969 . S
C17 H16 0.969 . S
C17 O18 1.550 . S
C17 H19 0.973 . S
O18 C17 1.550 . S
O18 C24 1.412 . S
H19 C17 0.973 . S
C20 H13 0.929 . S
C20 C21 1.400 . S
C20 C22 1.364 . S
C21 C20 1.400 . S
C21 C25 1.377 . S
C22 C20 1.364 . S
C22 C23 1.374 . S
C23 H14 0.930 . S
C23 C22 1.374 . S
C23 C24 1.383 . S
C24 O18 1.412 . S
C24 C23 1.383 . S
C24 C25 1.394 . S
C25 H15 0.929 . S
C25 C21 1.377 . S
C25 C24 1.394 . S
H26 C33 0.929 . S
H27 C36 0.930 . S
H28 C38 0.929 . S
H29 C30 0.969 . S
C30 H29 0.969 . S
C30 O31 1.550 1_556 S
C30 H32 0.973 . S
O31 C30 1.550 1_554 S
O31 C37 1.412 . S
H32 C30 0.973 . S
C33 H26 0.929 . S
C33 C34 1.400 . S
C33 C35 1.364 1_554 S
C34 C33 1.400 . S
C34 C38 1.377 . S
C35 C33 1.364 1_556 S
C35 C36 1.374 . S
C36 H27 0.930 . S
C36 C35 1.374 . S
C36 C37 1.383 1_556 S
C37 O31 1.412 . S
C37 C36 1.383 1_554 S
C37 C38 1.394 . S
C38 H28 0.929 . S
C38 C34 1.377 . S
C38 C37 1.394 . S
H39 C46 0.929 . S
H40 C49 0.930 . S
H41 C51 0.929 . S
H42 C43 0.969 . S
C43 H42 0.969 . S
C43 O44 1.550 . S
C43 H45 0.973 . S
O44 C43 1.550 . S
O44 C50 1.412 . S
H45 C43 0.973 . S
C46 H39 0.929 . S
C46 C47 1.400 . S
C46 C48 1.364 . S
C47 C46 1.400 . S
C47 C51 1.377 . S
C48 C46 1.364 . S
C48 C49 1.374 . S
C49 H40 0.930 . S
C49 C48 1.374 . S
C49 C50 1.383 . S
C50 O44 1.412 . S
C50 C49 1.383 . S
C50 C51 1.394 . S
C51 H41 0.929 . S
C51 C47 1.377 . S
C51 C50 1.394 . S
O52 Mn53 2.163 1_655 S
O52 C66 1.244 . S
Mn53 O52 2.163 1_455 S
Mn53 O56 2.160 1_545 S
Mn53 O57 2.221 . S
Mn53 O59 2.163 1_455 S
Mn53 O61 2.160 1_545 S
Mn53 O71 2.221 1_445 S
O54 Mn55 2.087 1_545 S
O54 C66 1.256 . S
Mn55 O54 2.087 1_565 S
Mn55 O62 2.089 1_655 S
Mn55 O71 2.290 . S
Mn55 O72 2.251 . S
O56 Mn53 2.160 1_565 S
O56 C67 1.239 . S
O57 Mn53 2.221 . S
O57 Mn58 2.290 . S
O57 C68 1.278 . S
Mn58 O57 2.290 . S
Mn58 O60 2.089 . S
Mn58 O63 2.251 . S
Mn58 O64 2.087 . S
O59 Mn53 2.163 1_655 S
O59 C69 1.244 . S
O60 Mn58 2.089 . S
O60 C67 1.256 1_545 S
O61 Mn53 2.160 1_565 S
O61 C70 1.239 . S
O62 Mn55 2.089 1_455 S
O62 C70 1.256 . S
O63 Mn58 2.251 . S
O63 C68 1.241 . S
O64 Mn58 2.087 . S
O64 C69 1.256 1_455 S
C65 O71 1.278 . S
C65 O72 1.241 . S
C66 O52 1.244 . S
C66 O54 1.256 . S
C67 O56 1.239 . S
C67 O60 1.256 1_565 S
C68 O57 1.278 . S
C68 O63 1.241 . S
C69 O59 1.244 . S
C69 O64 1.256 1_655 S
C70 O61 1.239 . S
C70 O62 1.256 . S
O71 Mn53 2.221 1_665 S
O71 Mn55 2.290 . S
O71 C65 1.278 . S
O72 Mn55 2.251 . S
O72 C65 1.241 . S
O73 Mn74 2.163 . S
O73 C87 1.244 . S
Mn74 O73 2.163 . S
Mn74 O77 2.160 1_554 S
Mn74 O78 2.221 . S
Mn74 O80 2.163 1_554 S
Mn74 O82 2.160 . S
Mn74 O92 2.221 . S
O75 Mn76 2.087 . S
O75 C87 1.256 . S
Mn76 O75 2.087 . S
Mn76 O83 2.089 . S
Mn76 O92 2.290 . S
Mn76 O93 2.251 . S
O77 Mn74 2.160 1_556 S
O77 C88 1.239 . S
O78 Mn74 2.221 . S
O78 Mn79 2.290 1_554 S
O78 C89 1.278 . S
Mn79 O78 2.290 1_556 S
Mn79 O81 2.089 . S
Mn79 O84 2.251 . S
Mn79 O85 2.087 . S
O80 Mn74 2.163 1_556 S
O80 C90 1.244 . S
O81 Mn79 2.089 . S
O81 C88 1.256 . S
O82 Mn74 2.160 . S
O82 C91 1.239 . S
O83 Mn76 2.089 . S
O83 C91 1.256 . S
O84 Mn79 2.251 . S
O84 C89 1.241 1_556 S
O85 Mn79 2.087 . S
O85 C90 1.256 . S
C86 O92 1.278 . S
C86 O93 1.241 . S
C87 O73 1.244 . S
C87 O75 1.256 . S
C88 O77 1.239 . S
C88 O81 1.256 . S
C89 O78 1.278 . S
C89 O84 1.241 1_554 S
C90 O80 1.244 . S
C90 O85 1.256 . S
C91 O82 1.239 . S
C91 O83 1.256 . S
O92 Mn74 2.221 . S
O92 Mn76 2.290 . S
O92 C86 1.278 . S
O93 Mn76 2.251 . S
O93 C86 1.241 . S
C94 C95 1.170 . S
C94 C96 1.380 . S
C95 C94 1.170 . S
C96 C94 1.380 . S
C96 C97 1.170 . S
C97 C96 1.170 . S
C98 C99 1.170 . S
C98 C100 1.380 . S
C99 C98 1.170 . S
C100 C98 1.380 . S
C100 C101 1.170 . S
C101 C100 1.170 . S
C102 C103 1.170 . S
C102 C104 1.380 . S
C103 C102 1.170 . S
C104 C102 1.380 . S
C104 C105 1.170 . S
C105 C104 1.170 . S
C106 C107 1.170 . S
C106 C108 1.380 . S
C107 C106 1.170 . S
C108 C106 1.380 . S
C108 C109 1.170 1_556 S
C109 C108 1.170 1_554 S
C110 C111 1.170 . S
C110 C112 1.380 . S
C111 C110 1.170 . S
C112 C110 1.380 . S
C112 C113 1.170 . S
C113 C112 1.170 . S
C114 C115 1.170 . S
C114 C116 1.380 . S
C115 C114 1.170 . S
C116 C114 1.380 . S
C116 C117 1.170 . S
C117 C116 1.170 . S
C118 C119 1.170 . S
C118 C120 1.380 . S
C119 C118 1.170 . S
C120 C118 1.380 . S
C120 C121 1.170 . S
C121 C120 1.170 . S
C122 C123 1.170 . S
C122 C124 1.380 . S
C123 C122 1.170 . S
C124 C122 1.380 . S
C124 C125 1.170 . S
C125 C124 1.170 . S
C126 C127 1.170 . S
C126 C128 1.380 . S
C127 C126 1.170 . S
C128 C126 1.380 . S
C128 C129 1.170 . S
C129 C128 1.170 . S
C130 C131 1.170 . S
C130 C132 1.380 . S
C131 C130 1.170 . S
C132 C130 1.380 . S
C132 C133 1.170 . S
C133 C132 1.170 . S
C134 C135 1.170 . S
C134 C136 1.380 . S
C135 C134 1.170 . S
C136 C134 1.380 . S
C136 C137 1.170 . S
C137 C136 1.170 . S
C138 C139 1.170 . S
C138 C140 1.380 . S
C139 C138 1.170 . S
C140 C138 1.380 . S
C140 C141 1.170 . S
C141 C140 1.170 . S
C97 C68 1.268 . S
C95 C43 1.391 . S
C99 C4 1.460 . S
C101 C89 1.257 . S
C103 C17 1.507 . S
C105 C65 1.372 . S
C107 C30 1.562 . S
C109 C86 1.424 . S
C113 C70 1.467 . S
C111 C9 1.478 . S
C117 C90 1.514 . S
C115 C21 1.574 . S
C119 C34 1.557 . S
C121 C66 1.494 . S
C123 C48 1.498 . S
C125 C88 1.417 . S
C129 C87 1.478 . S
C127 C22 1.536 . S
C133 C69 1.487 . S
C131 C35 1.533 . S
C137 C91 1.455 . S
C135 C47 1.474 . S
C139 C8 1.496 1_556 S
C141 C67 1.449 . S
