# Generated by pormake.
# Topology rtl, (3,6)-cn, num edge types: 1
# Building blocks:
#     Node 0, Type 0, BuildingBlock: QEWDON_clean_linker_0, # of connection points: 3
#     Node 1, Type 0, BuildingBlock: QEWDON_clean_linker_0, # of connection points: 3
#     Node 2, Type 0, BuildingBlock: QEWDON_clean_linker_0, # of connection points: 3
#     Node 3, Type 0, BuildingBlock: QEWDON_clean_linker_0, # of connection points: 3
#     Node 4, Type 1, BuildingBlock: CIFDUS_clean_sbu_1, # of connection points: 6
#     Node 5, Type 1, BuildingBlock: CIFDUS_clean_sbu_1, # of connection points: 6
#     Edge 6, Type (0, 1), BuildingBlock: AJUNOK_clean_linker_0, # of connection points: 2
#     Edge 7, Type (0, 1), BuildingBlock: AJUNOK_clean_linker_0, # of connection points: 2
#     Edge 8, Type (0, 1), BuildingBlock: AJUNOK_clean_linker_0, # of connection points: 2
#     Edge 9, Type (0, 1), BuildingBlock: AJUNOK_clean_linker_0, # of connection points: 2
#     Edge 10, Type (0, 1), BuildingBlock: AJUNOK_clean_linker_0, # of connection points: 2
#     Edge 11, Type (0, 1), BuildingBlock: AJUNOK_clean_linker_0, # of connection points: 2
#     Edge 12, Type (0, 1), BuildingBlock: AJUNOK_clean_linker_0, # of connection points: 2
#     Edge 13, Type (0, 1), BuildingBlock: AJUNOK_clean_linker_0, # of connection points: 2
#     Edge 14, Type (0, 1), BuildingBlock: AJUNOK_clean_linker_0, # of connection points: 2
#     Edge 15, Type (0, 1), BuildingBlock: AJUNOK_clean_linker_0, # of connection points: 2
#     Edge 16, Type (0, 1), BuildingBlock: AJUNOK_clean_linker_0, # of connection points: 2
#     Edge 17, Type (0, 1), BuildingBlock: AJUNOK_clean_linker_0, # of connection points: 2
# Relax obj value: 0.037
# Max RMSD: 0.165
# Mean RMSD: 0.130
data_MOF--net-rtl--node1-CIFDUS_clean_sbu_1--node2-QEWDON_clean_linker_0--edge1-AJUNOK_clean_linker_0
_symmetry_space_group_name_H-M    P1
_symmetry_Int_Tables_number       1
_symmetry_cell_setting            triclinic
loop_
_symmetry_equiv_pos_as_xyz
'x, y, z'
_cell_length_a     28.23526
_cell_length_b     28.024969
_cell_length_c     15.831124
_cell_angle_alpha  91.786617
_cell_angle_beta   100.1351
_cell_angle_gamma 90.06022
loop_
_atom_site_label
_atom_site_type_symbol
_atom_site_fract_x
_atom_site_fract_y
_atom_site_fract_z
_atom_type_partial_charge
H0 H 0.23375 0.86827 0.21622 0.0
C1 C 0.21297 0.87174 0.15231 0.0
C2 C 0.16888 0.89648 0.14092 0.0
C3 C 0.23216 0.85498 0.08088 0.0
H4 H 0.11213 0.92583 0.04759 0.0
C5 C 0.14457 0.90462 0.05662 0.0
C6 C 0.16311 0.88761 0.98432 0.0
C7 C 0.20611 0.86146 0.99793 0.0
C8 C 0.28359 0.84144 0.08924 0.0
H9 H 0.22155 0.849 0.94324 0.0
C10 C 0.30172 0.79724 0.12124 0.0
C11 C 0.34993 0.78405 0.11749 0.0
C12 C 0.31408 0.8727 0.05614 0.0
H13 H 0.30084 0.90661 0.03082 0.0
C14 C 0.36119 0.86008 0.05222 0.0
H15 H 0.27802 0.77277 0.14561 0.0
C16 C 0.37873 0.81606 0.08114 0.0
H17 H 0.41449 0.80647 0.07115 0.0
H18 H 0.38381 0.88393 0.02404 0.0
H19 H 0.72691 0.72463 0.49906 0.0
C20 C 0.70626 0.71693 0.54862 0.0
C21 C 0.66341 0.68928 0.52758 0.0
C22 C 0.72454 0.73052 0.63543 0.0
H23 H 0.60661 0.65462 0.57849 0.0
C24 C 0.6389 0.67652 0.59368 0.0
C25 C 0.6573 0.68802 0.67967 0.0
C26 C 0.69849 0.71682 0.69958 0.0
C27 C 0.77392 0.75199 0.66417 0.0
H28 H 0.71201 0.72604 0.76651 0.0
C29 C 0.7918 0.79197 0.62593 0.0
C30 C 0.83687 0.81361 0.66332 0.0
C31 C 0.80315 0.73245 0.73601 0.0
H32 H 0.79197 0.7008 0.76506 0.0
C33 C 0.84662 0.7536 0.77305 0.0
H34 H 0.77069 0.80591 0.56836 0.0
C35 C 0.8628 0.79416 0.73848 0.0
H36 H 0.89616 0.81025 0.77125 0.0
H37 H 0.86778 0.73868 0.82972 0.0
H38 H 0.80212 0.21919 0.09368 0.0
C39 C 0.82531 0.20845 0.04887 0.0
C40 C 0.86661 0.18059 0.07731 0.0
C41 C 0.81291 0.21982 0.961 0.0
H42 H 0.92158 0.13687 0.038 0.0
C43 C 0.89302 0.1619 0.01678 0.0
C44 C 0.88137 0.17246 0.92949 0.0
C45 C 0.84365 0.20429 0.90425 0.0
C46 C 0.76555 0.24178 0.92262 0.0
H47 H 0.83672 0.21561 0.83849 0.0
C48 C 0.74368 0.2803 0.96153 0.0
C49 C 0.7002 0.30076 0.91814 0.0
C50 C 0.74209 0.22355 0.84191 0.0
H51 H 0.75602 0.1929 0.81109 0.0
C52 C 0.70071 0.24454 0.79847 0.0
H53 H 0.76035 0.29439 0.02422 0.0
C54 C 0.68039 0.28319 0.8354 0.0
H55 H 0.64886 0.29943 0.79867 0.0
H56 H 0.68431 0.23078 0.73544 0.0
H57 H 0.32749 0.32643 0.60375 0.0
C58 C 0.34022 0.34892 0.55786 0.0
C59 C 0.36817 0.38979 0.58742 0.0
C60 C 0.33096 0.33599 0.46919 0.0
H61 H 0.40299 0.45177 0.55113 0.0
C62 C 0.38447 0.41877 0.52794 0.0
C63 C 0.37984 0.40463 0.44105 0.0
C64 C 0.3516 0.36398 0.41186 0.0
C65 C 0.30442 0.29075 0.43663 0.0
H66 H 0.34698 0.35313 0.34466 0.0
C67 C 0.26189 0.27641 0.46506 0.0
C68 C 0.23862 0.23232 0.43586 0.0
C69 C 0.32243 0.26104 0.37649 0.0
H70 H 0.35534 0.27012 0.35422 0.0
C71 C 0.29899 0.21863 0.34541 0.0
H72 H 0.24702 0.29977 0.50932 0.0
C73 C 0.25776 0.20421 0.37498 0.0
H74 H 0.24191 0.16997 0.35215 0.0
H75 H 0.31357 0.19616 0.29949 0.0
O76 O 0.97953 0.07695 0.43071 0.0
Mn77 Mn 0.0176 0.03345 0.5279 0.0
O78 O 0.94641 0.02469 0.32773 0.0
Mn79 Mn 0.96267 0.96978 0.38633 0.0
O80 O 0.05028 0.98557 0.62526 0.0
O81 O 0.07001 0.09133 0.54909 0.0
Mn82 Mn 0.08198 0.06824 0.65545 0.0
O83 O 0.97612 0.06464 0.61324 0.0
O84 O 0.12084 0.01643 0.66675 0.0
O85 O 0.06073 1.00258 0.44213 0.0
O86 O 0.01902 0.94144 0.36965 0.0
O87 O 0.11625 0.11996 0.67267 0.0
O88 O 0.03543 0.07258 0.72341 0.0
C89 C 0.92521 0.95832 0.48912 0.0
C90 C 0.95309 0.06717 0.3571 0.0
C91 C 0.09368 0.98119 0.66484 0.0
C92 C 0.10187 0.12315 0.59093 0.0
C93 C 0.99127 0.07596 0.69251 0.0
C94 C 0.05803 0.9648 0.39229 0.0
O95 O 0.96839 0.97744 0.49964 0.0
O96 O 0.90954 0.94166 0.41207 0.0
O97 O 0.55264 0.58406 0.15899 0.0
Mn98 Mn 0.51895 0.53736 0.05412 0.0
O99 O 0.62418 0.55417 0.19145 0.0
Mn100 Mn 0.59099 0.49784 0.17483 0.0
O101 O 0.48214 0.49177 0.9522 0.0
O102 O 0.46401 0.58796 0.04059 0.0
Mn103 Mn 0.45388 0.5925 0.92653 0.0
O104 O 0.55782 0.57245 0.97078 0.0
O105 O 0.42852 0.53744 0.87182 0.0
O106 O 0.48197 0.50279 0.13868 0.0
O107 O 0.54399 0.48656 0.24053 0.0
O108 O 0.41084 0.63296 0.95587 0.0
O109 O 0.50567 0.61946 0.88993 0.0
C110 C 0.6082 0.4524 0.08536 0.0
C111 C 0.5963 0.58801 0.19914 0.0
C112 C 0.44618 0.49689 0.89041 0.0
C113 C 0.42933 0.61995 0.03248 0.0
C114 C 0.54805 0.60471 0.91431 0.0
C115 C 0.4989 0.48811 0.21382 0.0
O116 O 0.57321 0.48387 0.06338 0.0
O117 O 0.6289 0.44928 0.16486 0.0
C118 C 0.1605 0.1847 0.4222 0.0
C119 C 0.19746 0.21256 0.47325 0.0
C120 C 0.12707 0.15817 0.4589 0.0
C121 C 0.1286 0.15909 0.54816 0.0
H122 H 0.15856 0.18172 0.35332 0.0
H123 H 0.10153 0.13513 0.4175 0.0
S124 S 0.21443 0.23098 0.70994 0.0
N125 N 0.23136 0.24091 0.61767 0.0
N126 N 0.16689 0.19581 0.68569 0.0
C127 C 0.16274 0.19036 0.59891 0.0
C128 C 0.19749 0.21584 0.56189 0.0
C129 C 0.34008 0.69475 0.10748 0.0
C130 C 0.36893 0.73484 0.13741 0.0
C131 C 0.36101 0.65055 0.09231 0.0
C132 C 0.4114 0.64543 0.10332 0.0
H133 H 0.30178 0.6986 0.08551 0.0
H134 H 0.33787 0.62276 0.05805 0.0
S135 S 0.50129 0.73357 0.21141 0.0
N136 N 0.44933 0.7615 0.20478 0.0
N137 N 0.48847 0.67964 0.16825 0.0
C138 C 0.43977 0.68217 0.14816 0.0
C139 C 0.41851 0.72682 0.16639 0.0
C140 C 0.9096 0.85799 0.63137 0.0
C141 C 0.85899 0.85553 0.62629 0.0
C142 C 0.93217 0.89601 0.59781 0.0
C143 C 0.90532 0.93316 0.55602 0.0
H144 H 0.93226 0.82908 0.65807 0.0
H145 H 0.97047 0.89389 0.5976 0.0
S146 S 0.77274 0.94638 0.52715 0.0
N147 N 0.78339 0.89657 0.58014 0.0
N148 N 0.82574 0.96624 0.51265 0.0
C149 C 0.8551 0.93226 0.5525 0.0
C150 C 0.83199 0.8939 0.58798 0.0
C151 C 0.70114 0.38124 0.99418 0.0
C152 C 0.67509 0.3411 0.95587 0.0
C153 C 0.67785 0.41984 0.02784 0.0
C154 C 0.62754 0.42025 0.02407 0.0
H155 H 0.73986 0.38271 0.99895 0.0
H156 H 0.69976 0.4488 0.06096 0.0
S157 S 0.54255 0.32396 0.93218 0.0
N158 N 0.59563 0.30415 0.91725 0.0
N159 N 0.55249 0.37726 0.97955 0.0
C160 C 0.60084 0.38117 0.98406 0.0
C161 C 0.62446 0.34149 0.95043 0.0
C162 C 0.13337 0.96398 0.21814 0.0
C163 C 0.14903 0.91621 0.21637 0.0
C164 C 0.10837 0.98143 0.28204 0.0
C165 C 0.09766 0.95164 0.34607 0.0
H166 H 0.13885 0.98757 0.16775 0.0
H167 H 0.09421 0.01736 0.27744 0.0
S168 S 0.13507 0.82572 0.37653 0.0
N169 N 0.15591 0.84101 0.28993 0.0
N170 N 0.10806 0.87357 0.40843 0.0
C171 C 0.11571 0.90489 0.34834 0.0
C172 C 0.14172 0.88728 0.28408 0.0
C173 C 0.61669 0.69444 0.80874 0.0
C174 C 0.63584 0.66584 0.74865 0.0
C175 C 0.59124 0.67389 0.86741 0.0
C176 C 0.5853 0.62404 0.86971 0.0
H177 H 0.61921 0.73297 0.80738 0.0
H178 H 0.57425 0.69727 0.90884 0.0
S179 S 0.63242 0.53339 0.73142 0.0
N180 N 0.65 0.58494 0.69906 0.0
N181 N 0.60286 0.54662 0.81026 0.0
C182 C 0.6068 0.595 0.81367 0.0
C183 C 0.6319 0.61585 0.75288 0.0
C184 C 0.85953 0.11849 0.18236 0.0
C185 C 0.87933 0.1624 0.16593 0.0
C186 C 0.88215 0.09015 0.24892 0.0
C187 C 0.92582 0.10419 0.30236 0.0
H188 H 0.82858 0.10398 0.13877 0.0
H189 H 0.86654 0.05537 0.25516 0.0
S190 S 0.98805 0.21999 0.29505 0.0
N191 N 0.94197 0.22154 0.21463 0.0
N192 N 0.98415 0.16835 0.34121 0.0
C193 C 0.94355 0.1501 0.29202 0.0
C194 C 0.92052 0.17903 0.22324 0.0
C195 C 0.43402 0.40061 0.71506 0.0
C196 C 0.38447 0.40265 0.68001 0.0
C197 C 0.45383 0.42682 0.79058 0.0
C198 C 0.42473 0.4565 0.83285 0.0
H199 H 0.45823 0.38172 0.67989 0.0
H200 H 0.49253 0.42741 0.81089 0.0
S201 S 0.29217 0.46939 0.77351 0.0
N202 N 0.30645 0.43263 0.69846 0.0
N203 N 0.34305 0.48177 0.83973 0.0
C204 C 0.37458 0.45529 0.80256 0.0
C205 C 0.35457 0.42848 0.72623 0.0
C206 C 0.63274 0.69046 0.36559 0.0
C207 C 0.64775 0.66514 0.44138 0.0
C208 C 0.61384 0.66624 0.28666 0.0
C209 C 0.6089 0.61611 0.28171 0.0
H210 H 0.63525 0.72905 0.3675 0.0
H211 H 0.60411 0.6866 0.22926 0.0
S212 S 0.64391 0.53363 0.46136 0.0
N213 N 0.65791 0.58718 0.50453 0.0
N214 N 0.62061 0.54253 0.36012 0.0
C215 C 0.6235 0.59093 0.35755 0.0
C216 C 0.64343 0.61513 0.43612 0.0
C217 C 0.95683 0.1386 0.88893 0.0
C218 C 0.90756 0.14831 0.86526 0.0
C219 C 0.98223 0.11384 0.83355 0.0
C220 C 0.96028 0.09831 0.75004 0.0
H221 H 0.97651 0.15057 0.95096 0.0
H222 H 0.02009 0.10777 0.85679 0.0
S223 S 0.83187 0.11413 0.65467 0.0
N224 N 0.83701 0.13871 0.75206 0.0
N225 N 0.88606 0.09474 0.64594 0.0
C226 C 0.91112 0.10796 0.72448 0.0
C227 C 0.88462 0.13246 0.78215 0.0
C228 C 0.39056 0.43586 0.2961 0.0
C229 C 0.40883 0.42933 0.38396 0.0
C230 C 0.41893 0.45635 0.2414 0.0
C231 C 0.46667 0.47128 0.27244 0.0
H232 H 0.35418 0.42473 0.26904 0.0
H233 H 0.40375 0.45934 0.17403 0.0
S234 S 0.53128 0.46484 0.49786 0.0
N235 N 0.47854 0.43982 0.49833 0.0
N236 N 0.52946 0.48146 0.39848 0.0
C237 C 0.48455 0.46678 0.36075 0.0
C238 C 0.45637 0.44502 0.41562 0.0
C239 C 0.17457 0.92004 0.84338 0.0
C240 C 0.1428 0.90344 0.89551 0.0
C241 C 0.15776 0.94038 0.76418 0.0
C242 C 0.10826 0.94598 0.73317 0.0
H243 H 0.21309 0.91986 0.86582 0.0
H244 H 0.18408 0.95482 0.72947 0.0
S245 S 1.00939 0.90319 0.83859 0.0
N246 N 0.05892 0.88914 0.90529 0.0
N247 N 0.02731 0.92928 0.75739 0.0
C248 C 0.07581 0.92693 0.78161 0.0
C249 C 0.09304 0.90562 0.86265 0.0
loop_
_geom_bond_atom_site_label_1
_geom_bond_atom_site_label_2
_geom_bond_distance
_geom_bond_site_symmetry_2
_ccdc_geom_bond_type
H0 C1 0.949 . S
C1 H0 0.949 . S
C1 C2 1.395 . S
C1 C3 1.391 . S
C2 C1 1.395 . S
C2 C5 1.390 . S
C3 C1 1.391 . S
C3 C7 1.387 1_554 S
C3 C8 1.491 . S
H4 C5 0.950 . S
C5 C2 1.390 . S
C5 H4 0.950 . S
C5 C6 1.378 1_554 S
C6 C5 1.378 1_556 S
C6 C7 1.409 . S
C7 C3 1.387 1_556 S
C7 C6 1.409 . S
C7 H9 0.951 . S
C8 C3 1.491 . S
C8 C10 1.382 . S
C8 C12 1.404 1_554 S
H9 C7 0.951 . S
C10 C8 1.382 . S
C10 C11 1.390 . S
C10 H15 0.949 . S
C11 C10 1.390 . S
C11 C16 1.399 . S
C12 C8 1.404 1_556 S
C12 H13 0.950 . S
C12 C14 1.375 . S
H13 C12 0.950 . S
C14 C12 1.375 . S
C14 C16 1.382 1_556 S
C14 H18 0.950 . S
H15 C10 0.949 . S
C16 C11 1.399 . S
C16 C14 1.382 1_554 S
C16 H17 0.952 . S
H17 C16 0.952 . S
H18 C14 0.950 . S
H19 C20 0.949 . S
C20 H19 0.949 . S
C20 C21 1.395 . S
C20 C22 1.391 . S
C21 C20 1.395 . S
C21 C24 1.390 . S
C22 C20 1.391 . S
C22 C26 1.387 . S
C22 C27 1.491 . S
H23 C24 0.950 . S
C24 C21 1.390 . S
C24 H23 0.950 . S
C24 C25 1.378 . S
C25 C24 1.378 . S
C25 C26 1.409 . S
C26 C22 1.387 . S
C26 C25 1.409 . S
C26 H28 0.951 . S
C27 C22 1.491 . S
C27 C29 1.382 . S
C27 C31 1.404 . S
H28 C26 0.951 . S
C29 C27 1.382 . S
C29 C30 1.390 . S
C29 H34 0.949 . S
C30 C29 1.390 . S
C30 C35 1.399 . S
C31 C27 1.404 . S
C31 H32 0.950 . S
C31 C33 1.375 . S
H32 C31 0.950 . S
C33 C31 1.375 . S
C33 C35 1.382 . S
C33 H37 0.950 . S
H34 C29 0.949 . S
C35 C30 1.399 . S
C35 C33 1.382 . S
C35 H36 0.952 . S
H36 C35 0.952 . S
H37 C33 0.950 . S
H38 C39 0.949 . S
C39 H38 0.949 . S
C39 C40 1.395 . S
C39 C41 1.391 1_554 S
C40 C39 1.395 . S
C40 C43 1.388 1_554 S
C41 C39 1.391 1_556 S
C41 C45 1.387 . S
C41 C46 1.491 . S
H42 C43 0.949 1_554 S
C43 C40 1.388 1_556 S
C43 H42 0.949 1_556 S
C43 C44 1.381 . S
C44 C43 1.381 . S
C44 C45 1.409 . S
C45 C41 1.387 . S
C45 C44 1.409 . S
C45 H47 0.951 . S
C46 C41 1.491 . S
C46 C48 1.382 . S
C46 C50 1.404 . S
H47 C45 0.951 . S
C48 C46 1.382 . S
C48 C49 1.390 . S
C48 H53 0.949 1_556 S
C49 C48 1.390 . S
C49 C54 1.399 . S
C50 C46 1.404 . S
C50 H51 0.950 . S
C50 C52 1.375 . S
H51 C50 0.950 . S
C52 C50 1.375 . S
C52 C54 1.382 . S
C52 H56 0.950 . S
H53 C48 0.949 1_554 S
C54 C49 1.399 . S
C54 C52 1.382 . S
C54 H55 0.952 . S
H55 C54 0.952 . S
H56 C52 0.950 . S
H57 C58 0.949 . S
C58 H57 0.949 . S
C58 C59 1.395 . S
C58 C60 1.391 . S
C59 C58 1.395 . S
C59 C62 1.390 . S
C60 C58 1.391 . S
C60 C64 1.387 . S
C60 C65 1.491 . S
H61 C62 0.950 . S
C62 C59 1.390 . S
C62 H61 0.950 . S
C62 C63 1.378 . S
C63 C62 1.378 . S
C63 C64 1.409 . S
C64 C60 1.387 . S
C64 C63 1.409 . S
C64 H66 0.951 . S
C65 C60 1.491 . S
C65 C67 1.382 . S
C65 C69 1.404 . S
H66 C64 0.951 . S
C67 C65 1.382 . S
C67 C68 1.390 . S
C67 H72 0.949 . S
C68 C67 1.390 . S
C68 C73 1.399 . S
C69 C65 1.404 . S
C69 H70 0.950 . S
C69 C71 1.375 . S
H70 C69 0.950 . S
C71 C69 1.375 . S
C71 C73 1.382 . S
C71 H75 0.950 . S
H72 C67 0.949 . S
C73 C68 1.399 . S
C73 C71 1.382 . S
C73 H74 0.952 . S
H74 C73 0.952 . S
H75 C71 0.950 . S
O76 Mn77 2.163 1_655 S
O76 C90 1.244 . S
Mn77 O76 2.163 1_455 S
Mn77 O80 2.160 1_545 S
Mn77 O81 2.221 . S
Mn77 O83 2.163 1_455 S
Mn77 O85 2.160 1_545 S
Mn77 O95 2.221 1_445 S
O78 Mn79 2.087 1_545 S
O78 C90 1.256 . S
Mn79 O78 2.087 1_565 S
Mn79 O86 2.089 1_655 S
Mn79 O95 2.290 . S
Mn79 O96 2.251 . S
O80 Mn77 2.160 1_565 S
O80 C91 1.239 . S
O81 Mn77 2.221 . S
O81 Mn82 2.290 . S
O81 C92 1.278 . S
Mn82 O81 2.290 . S
Mn82 O84 2.089 . S
Mn82 O87 2.251 . S
Mn82 O88 2.087 . S
O83 Mn77 2.163 1_655 S
O83 C93 1.244 . S
O84 Mn82 2.089 . S
O84 C91 1.256 1_545 S
O85 Mn77 2.160 1_565 S
O85 C94 1.239 . S
O86 Mn79 2.089 1_455 S
O86 C94 1.256 . S
O87 Mn82 2.251 . S
O87 C92 1.241 . S
O88 Mn82 2.087 . S
O88 C93 1.256 1_455 S
C89 O95 1.278 . S
C89 O96 1.241 . S
C90 O76 1.244 . S
C90 O78 1.256 . S
C91 O80 1.239 . S
C91 O84 1.256 1_565 S
C92 O81 1.278 . S
C92 O87 1.241 . S
C93 O83 1.244 . S
C93 O88 1.256 1_655 S
C94 O85 1.239 . S
C94 O86 1.256 . S
O95 Mn77 2.221 1_665 S
O95 Mn79 2.290 . S
O95 C89 1.278 . S
O96 Mn79 2.251 . S
O96 C89 1.241 . S
O97 Mn98 2.163 . S
O97 C111 1.244 . S
Mn98 O97 2.163 . S
Mn98 O101 2.160 1_554 S
Mn98 O102 2.221 . S
Mn98 O104 2.163 1_554 S
Mn98 O106 2.160 . S
Mn98 O116 2.221 . S
O99 Mn100 2.087 . S
O99 C111 1.256 . S
Mn100 O99 2.087 . S
Mn100 O107 2.089 . S
Mn100 O116 2.290 . S
Mn100 O117 2.251 . S
O101 Mn98 2.160 1_556 S
O101 C112 1.239 . S
O102 Mn98 2.221 . S
O102 Mn103 2.290 1_554 S
O102 C113 1.278 . S
Mn103 O102 2.290 1_556 S
Mn103 O105 2.089 . S
Mn103 O108 2.251 . S
Mn103 O109 2.087 . S
O104 Mn98 2.163 1_556 S
O104 C114 1.244 . S
O105 Mn103 2.089 . S
O105 C112 1.256 . S
O106 Mn98 2.160 . S
O106 C115 1.239 . S
O107 Mn100 2.089 . S
O107 C115 1.256 . S
O108 Mn103 2.251 . S
O108 C113 1.241 1_556 S
O109 Mn103 2.087 . S
O109 C114 1.256 . S
C110 O116 1.278 . S
C110 O117 1.241 . S
C111 O97 1.244 . S
C111 O99 1.256 . S
C112 O101 1.239 . S
C112 O105 1.256 . S
C113 O102 1.278 . S
C113 O108 1.241 1_554 S
C114 O104 1.244 . S
C114 O109 1.256 . S
C115 O106 1.239 . S
C115 O107 1.256 . S
O116 Mn98 2.221 . S
O116 Mn100 2.290 . S
O116 C110 1.278 . S
O117 Mn100 2.251 . S
O117 C110 1.241 . S
C118 C119 1.369 . S
C118 C120 1.419 . S
C118 H122 0.930 . S
C119 C118 1.369 . S
C119 C128 1.429 . S
C120 C118 1.419 . S
C120 C121 1.363 . S
C120 H123 0.929 . S
C121 C120 1.363 . S
C121 C127 1.428 . S
H122 C118 0.930 . S
H123 C120 0.929 . S
S124 N125 1.613 . S
S124 N126 1.610 . S
N125 S124 1.613 . S
N125 C128 1.350 . S
N126 S124 1.610 . S
N126 C127 1.351 . S
C127 C121 1.428 . S
C127 N126 1.351 . S
C127 C128 1.434 . S
C128 C119 1.429 . S
C128 N125 1.350 . S
C128 C127 1.434 . S
C129 C130 1.369 . S
C129 C131 1.419 . S
C129 H133 0.930 . S
C130 C129 1.369 . S
C130 C139 1.429 . S
C131 C129 1.419 . S
C131 C132 1.363 . S
C131 H134 0.929 . S
C132 C131 1.363 . S
C132 C138 1.428 . S
H133 C129 0.930 . S
H134 C131 0.929 . S
S135 N136 1.613 . S
S135 N137 1.610 . S
N136 S135 1.613 . S
N136 C139 1.350 . S
N137 S135 1.610 . S
N137 C138 1.351 . S
C138 C132 1.428 . S
C138 N137 1.351 . S
C138 C139 1.434 . S
C139 C130 1.429 . S
C139 N136 1.350 . S
C139 C138 1.434 . S
C140 C141 1.369 . S
C140 C142 1.419 . S
C140 H144 0.930 . S
C141 C140 1.369 . S
C141 C150 1.429 . S
C142 C140 1.419 . S
C142 C143 1.363 . S
C142 H145 0.929 . S
C143 C142 1.363 . S
C143 C149 1.428 . S
H144 C140 0.930 . S
H145 C142 0.929 . S
S146 N147 1.613 . S
S146 N148 1.610 . S
N147 S146 1.613 . S
N147 C150 1.350 . S
N148 S146 1.610 . S
N148 C149 1.351 . S
C149 C143 1.428 . S
C149 N148 1.351 . S
C149 C150 1.434 . S
C150 C141 1.429 . S
C150 N147 1.350 . S
C150 C149 1.434 . S
C151 C152 1.369 . S
C151 C153 1.419 . S
C151 H155 0.930 . S
C152 C151 1.369 . S
C152 C161 1.429 1_554 S
C153 C151 1.419 . S
C153 C154 1.363 . S
C153 H156 0.929 . S
C154 C153 1.363 . S
C154 C160 1.428 1_554 S
H155 C151 0.930 . S
H156 C153 0.929 . S
S157 N158 1.613 . S
S157 N159 1.610 . S
N158 S157 1.613 . S
N158 C161 1.350 . S
N159 S157 1.610 . S
N159 C160 1.351 . S
C160 C154 1.428 1_556 S
C160 N159 1.351 . S
C160 C161 1.434 . S
C161 C152 1.429 1_556 S
C161 N158 1.350 . S
C161 C160 1.434 . S
C162 C163 1.369 . S
C162 C164 1.419 . S
C162 H166 0.930 . S
C163 C162 1.369 . S
C163 C172 1.429 . S
C164 C162 1.419 . S
C164 C165 1.363 . S
C164 H167 0.929 . S
C165 C164 1.363 . S
C165 C171 1.428 . S
H166 C162 0.930 . S
H167 C164 0.929 . S
S168 N169 1.613 . S
S168 N170 1.610 . S
N169 S168 1.613 . S
N169 C172 1.350 . S
N170 S168 1.610 . S
N170 C171 1.351 . S
C171 C165 1.428 . S
C171 N170 1.351 . S
C171 C172 1.434 . S
C172 C163 1.429 . S
C172 N169 1.350 . S
C172 C171 1.434 . S
C173 C174 1.369 . S
C173 C175 1.419 . S
C173 H177 0.930 . S
C174 C173 1.369 . S
C174 C183 1.429 . S
C175 C173 1.419 . S
C175 C176 1.363 . S
C175 H178 0.929 . S
C176 C175 1.363 . S
C176 C182 1.428 . S
H177 C173 0.930 . S
H178 C175 0.929 . S
S179 N180 1.613 . S
S179 N181 1.610 . S
N180 S179 1.613 . S
N180 C183 1.350 . S
N181 S179 1.610 . S
N181 C182 1.351 . S
C182 C176 1.428 . S
C182 N181 1.351 . S
C182 C183 1.434 . S
C183 C174 1.429 . S
C183 N180 1.350 . S
C183 C182 1.434 . S
C184 C185 1.369 . S
C184 C186 1.419 . S
C184 H188 0.930 . S
C185 C184 1.369 . S
C185 C194 1.429 . S
C186 C184 1.419 . S
C186 C187 1.363 . S
C186 H189 0.929 . S
C187 C186 1.363 . S
C187 C193 1.428 . S
H188 C184 0.930 . S
H189 C186 0.929 . S
S190 N191 1.613 . S
S190 N192 1.610 . S
N191 S190 1.613 . S
N191 C194 1.350 . S
N192 S190 1.610 . S
N192 C193 1.351 . S
C193 C187 1.428 . S
C193 N192 1.351 . S
C193 C194 1.434 . S
C194 C185 1.429 . S
C194 N191 1.350 . S
C194 C193 1.434 . S
C195 C196 1.369 . S
C195 C197 1.419 . S
C195 H199 0.930 . S
C196 C195 1.369 . S
C196 C205 1.429 . S
C197 C195 1.419 . S
C197 C198 1.363 . S
C197 H200 0.929 . S
C198 C197 1.363 . S
C198 C204 1.428 . S
H199 C195 0.930 . S
H200 C197 0.929 . S
S201 N202 1.613 . S
S201 N203 1.610 . S
N202 S201 1.613 . S
N202 C205 1.350 . S
N203 S201 1.610 . S
N203 C204 1.351 . S
C204 C198 1.428 . S
C204 N203 1.351 . S
C204 C205 1.434 . S
C205 C196 1.429 . S
C205 N202 1.350 . S
C205 C204 1.434 . S
C206 C207 1.369 . S
C206 C208 1.419 . S
C206 H210 0.930 . S
C207 C206 1.369 . S
C207 C216 1.429 . S
C208 C206 1.419 . S
C208 C209 1.363 . S
C208 H211 0.929 . S
C209 C208 1.363 . S
C209 C215 1.428 . S
H210 C206 0.930 . S
H211 C208 0.929 . S
S212 N213 1.613 . S
S212 N214 1.610 . S
N213 S212 1.613 . S
N213 C216 1.350 . S
N214 S212 1.610 . S
N214 C215 1.351 . S
C215 C209 1.428 . S
C215 N214 1.351 . S
C215 C216 1.434 . S
C216 C207 1.429 . S
C216 N213 1.350 . S
C216 C215 1.434 . S
C217 C218 1.369 . S
C217 C219 1.419 . S
C217 H221 0.930 . S
C218 C217 1.369 . S
C218 C227 1.429 . S
C219 C217 1.419 . S
C219 C220 1.363 . S
C219 H222 0.929 . S
C220 C219 1.363 . S
C220 C226 1.428 . S
H221 C217 0.930 . S
H222 C219 0.929 . S
S223 N224 1.613 . S
S223 N225 1.610 . S
N224 S223 1.613 . S
N224 C227 1.350 . S
N225 S223 1.610 . S
N225 C226 1.351 . S
C226 C220 1.428 . S
C226 N225 1.351 . S
C226 C227 1.434 . S
C227 C218 1.429 . S
C227 N224 1.350 . S
C227 C226 1.434 . S
C228 C229 1.369 . S
C228 C230 1.419 . S
C228 H232 0.930 . S
C229 C228 1.369 . S
C229 C238 1.429 . S
C230 C228 1.419 . S
C230 C231 1.363 . S
C230 H233 0.929 . S
C231 C230 1.363 . S
C231 C237 1.428 . S
H232 C228 0.930 . S
H233 C230 0.929 . S
S234 N235 1.613 . S
S234 N236 1.610 . S
N235 S234 1.613 . S
N235 C238 1.350 . S
N236 S234 1.610 . S
N236 C237 1.351 . S
C237 C231 1.428 . S
C237 N236 1.351 . S
C237 C238 1.434 . S
C238 C229 1.429 . S
C238 N235 1.350 . S
C238 C237 1.434 . S
C239 C240 1.369 . S
C239 C241 1.419 . S
C239 H243 0.930 . S
C240 C239 1.369 . S
C240 C249 1.429 . S
C241 C239 1.419 . S
C241 C242 1.363 . S
C241 H244 0.929 . S
C242 C241 1.363 . S
C242 C248 1.428 . S
H243 C239 0.930 . S
H244 C241 0.929 . S
S245 N246 1.613 . S
S245 N247 1.610 . S
N246 S245 1.613 . S
N246 C249 1.350 . S
N247 S245 1.610 . S
N247 C248 1.351 . S
C248 C242 1.428 . S
C248 N247 1.351 . S
C248 C249 1.434 . S
C249 C240 1.429 . S
C249 N246 1.350 . S
C249 C248 1.434 . S
C121 C92 1.275 . S
C119 C68 1.385 . S
C130 C11 1.347 . S
C132 C113 1.361 . S
C141 C30 1.530 . S
C143 C89 1.426 . S
C152 C49 1.497 1_554 S
C154 C110 1.395 . S
C165 C94 1.559 . S
C163 C2 1.536 . S
C176 C114 1.574 . S
C174 C25 1.640 . S
C185 C40 1.617 . S
C187 C90 1.601 . S
C196 C59 1.542 . S
C198 C112 1.496 . S
C209 C111 1.496 . S
C207 C21 1.521 . S
C220 C93 1.487 . S
C218 C44 1.546 . S
C231 C115 1.448 . S
C229 C63 1.476 . S
C240 C6 1.496 . S
C242 C91 1.435 . S
