# Generated by pormake.
# Topology anh, (6,3)-cn, num edge types: 1
# Building blocks:
#     Node 0, Type 0, BuildingBlock: BETGAK_clean_sbu_0, # of connection points: 6
#     Node 1, Type 0, BuildingBlock: BETGAK_clean_sbu_0, # of connection points: 6
#     Node 2, Type 0, BuildingBlock: BETGAK_clean_sbu_0, # of connection points: 6
#     Node 3, Type 1, BuildingBlock: QEWDON_clean_linker_0, # of connection points: 3
#     Node 4, Type 1, BuildingBlock: QEWDON_clean_linker_0, # of connection points: 3
#     Node 5, Type 1, BuildingBlock: QEWDON_clean_linker_0, # of connection points: 3
#     Node 6, Type 1, BuildingBlock: QEWDON_clean_linker_0, # of connection points: 3
#     Node 7, Type 1, BuildingBlock: QEWDON_clean_linker_0, # of connection points: 3
#     Node 8, Type 1, BuildingBlock: QEWDON_clean_linker_0, # of connection points: 3
#     Edge 9, Type (0, 1), None
#     Edge 10, Type (0, 1), None
#     Edge 11, Type (0, 1), None
#     Edge 12, Type (0, 1), None
#     Edge 13, Type (0, 1), None
#     Edge 14, Type (0, 1), None
#     Edge 15, Type (0, 1), None
#     Edge 16, Type (0, 1), None
#     Edge 17, Type (0, 1), None
#     Edge 18, Type (0, 1), None
#     Edge 19, Type (0, 1), None
#     Edge 20, Type (0, 1), None
#     Edge 21, Type (0, 1), None
#     Edge 22, Type (0, 1), None
#     Edge 23, Type (0, 1), None
#     Edge 24, Type (0, 1), None
#     Edge 25, Type (0, 1), None
#     Edge 26, Type (0, 1), None
# Relax obj value: 0.349
# Max RMSD: 0.284
# Mean RMSD: 0.146
data_MOF--net-anh--node1-BETGAK_clean_sbu_0--node2-QEWDON_clean_linker_0--edge1-none
_symmetry_space_group_name_H-M    P1
_symmetry_Int_Tables_number       1
_symmetry_cell_setting            triclinic
loop_
_symmetry_equiv_pos_as_xyz
'x, y, z'
_cell_length_a     14.539255
_cell_length_b     21.136478
_cell_length_c     21.661756
_cell_angle_alpha  97.227422
_cell_angle_beta   87.902732
_cell_angle_gamma 138.04359
loop_
_atom_site_label
_atom_site_type_symbol
_atom_site_fract_x
_atom_site_fract_y
_atom_site_fract_z
_atom_type_partial_charge
La0 La 0.6079 0.7715 0.15153 0.0
La1 La 0.37382 0.7239 0.18355 0.0
C2 C 0.8468 0.85351 0.13437 0.0
C3 C 0.94273 0.88816 0.18718 0.0
C4 C 0.91215 0.90128 0.24676 0.0
C5 C 0.88613 0.84877 0.292 0.0
C6 C 0.89139 0.7852 0.27558 0.0
C7 C 0.98454 0.81128 0.23106 0.0
C8 C 1.00199 0.85775 0.18326 0.0
C9 C 0.55173 0.75206 0.27144 0.0
C10 C 0.648 0.93817 0.17971 0.0
C11 C 1.16407 0.65374 0.23734 0.0
C12 C 1.01676 0.56645 0.2213 0.0
C13 C 0.97025 0.50131 0.16773 0.0
C14 C 0.8337 0.43452 0.14236 0.0
C15 C 0.74475 0.4354 0.16898 0.0
C16 C 0.78705 0.48991 0.22868 0.0
C17 C 0.92262 0.55571 0.25412 0.0
C18 C 0.39571 0.72956 0.06169 0.0
C19 C 0.34048 0.55575 0.13778 0.0
O20 O 0.73677 0.76053 0.12452 0.0
O21 O 0.81351 0.89623 0.1347 0.0
O22 O 0.59291 0.72186 0.24058 0.0
O23 O 0.55241 0.7946 0.23654 0.0
O24 O 0.66832 0.89983 0.1373 0.0
O25 O 0.54209 0.88004 0.21388 0.0
O26 O 1.22389 0.7171 0.1995 0.0
O27 O 1.23628 0.64139 0.25075 0.0
O28 O 0.35343 0.75642 0.0975 0.0
O29 O 0.42432 0.69995 0.09489 0.0
O30 O 1.29378 0.58236 0.17239 0.0
O31 O 0.45932 0.62097 0.11295 0.0
H32 H 0.87645 0.9318 0.25333 0.0
H33 H 0.83036 0.84033 0.33092 0.0
H34 H 1.00622 0.77191 0.22207 0.0
H35 H 1.03469 0.85181 0.13931 0.0
H36 H 1.04203 0.50769 0.14251 0.0
H37 H 0.80356 0.39101 0.09792 0.0
H38 H 0.72295 0.49243 0.25248 0.0
H39 H 0.9568 0.60439 0.29625 0.0
La40 La 1.01116 0.1821 0.47448 0.0
La41 La 0.80057 0.17317 0.45804 0.0
C42 C 1.13544 0.1487 0.50634 0.0
C43 C 1.08194 1.0596 0.52078 0.0
C44 C 1.02404 0.98445 0.47263 0.0
C45 C 0.95275 0.89506 0.4866 0.0
C46 C 0.93829 0.87877 0.54892 0.0
C47 C 1.00438 0.95531 0.59716 0.0
C48 C 1.07574 1.04512 0.5832 0.0
C49 C 0.96338 0.18952 0.35936 0.0
C50 C 0.6973 0.982 0.44935 0.0
C51 C 0.67689 0.20727 0.42995 0.0
C52 C 0.69943 0.28405 0.46306 0.0
C53 C 0.60384 0.26015 0.5045 0.0
C54 C 0.6395 0.33056 0.54906 0.0
C55 C 0.77042 0.4264 0.55232 0.0
C56 C 0.86187 0.45206 0.5077 0.0
C57 C 0.82703 0.38131 0.46351 0.0
C58 C 0.82883 0.15615 0.57138 0.0
C59 C 1.12304 0.37665 0.48804 0.0
O60 O 1.11369 0.14919 0.44839 0.0
O61 O 1.11068 0.18614 0.54565 0.0
O62 O 1.08442 0.23797 0.3842 0.0
O63 O 0.87699 0.13758 0.3974 0.0
O64 O 0.81521 1.03272 0.48135 0.0
O65 O 0.67852 1.02526 0.42286 0.0
O66 O 0.62445 0.14009 0.46299 0.0
O67 O 0.77908 0.23453 0.39966 0.0
O68 O 0.71562 0.11823 0.54527 0.0
O69 O 0.92601 0.21152 0.53732 0.0
O70 O 0.99678 0.32856 0.46859 0.0
O71 O 1.15218 0.33333 0.50024 0.0
H72 H 1.02785 0.99302 0.42403 0.0
H73 H 0.90345 0.8372 0.44855 0.0
H74 H 0.99361 0.94416 0.64552 0.0
H75 H 1.12005 0.10181 0.6213 0.0
H76 H 0.50478 0.18614 0.50513 0.0
H77 H 0.56608 0.30981 0.58222 0.0
H78 H 0.96238 0.52597 0.5089 0.0
H79 H 0.90318 0.40246 0.43213 0.0
La80 La 0.86867 0.6454 0.90517 0.0
La81 La 0.68629 0.43016 0.88139 0.0
C82 C 1.03049 0.81678 0.89213 0.0
C83 C 0.99479 0.8628 0.87766 0.0
C84 C 0.8749 0.83014 0.89953 0.0
C85 C 0.8137 0.84846 0.87098 0.0
C86 C 0.87089 0.8993 0.81993 0.0
C87 C 0.99808 0.94003 0.80208 0.0
C88 C 1.05945 0.92142 0.83066 0.0
C89 C 0.72976 0.54839 -0.00178 0.0
C90 C 0.54719 0.49791 0.87866 0.0
C91 C 0.56424 0.2669 0.89292 0.0
C92 C 0.59474 0.21987 0.85816 0.0
C93 C 0.54911 0.18285 0.79449 0.0
C94 C 0.60809 0.16368 0.75696 0.0
C95 C 0.71299 0.18007 0.78224 0.0
C96 C 0.75099 0.20971 0.84675 0.0
C97 C 0.69262 0.22963 0.88436 0.0
C98 C 0.76143 0.49883 0.7739 0.0
C99 C 1.01141 0.57857 0.90611 0.0
O100 O 1.00164 0.78805 0.94703 0.0
O101 O 0.98983 0.75103 0.84692 0.0
O102 O 0.76131 0.62219 -0.01102 0.0
O103 O 0.78665 0.53827 0.95988 0.0
O104 O 0.67096 0.58652 0.87466 0.0
O105 O 0.53261 0.42969 0.88906 0.0
O106 O 0.50929 0.28145 0.85935 0.0
O107 O 0.66447 0.34267 0.93317 0.0
O108 O 0.68947 0.41197 0.77964 0.0
O109 O 0.78964 0.54162 0.82798 0.0
O110 O 0.89067 0.48899 0.88587 0.0
O111 O 1.02291 0.64795 0.91995 0.0
H112 H 0.8221 0.78394 0.93528 0.0
H113 H 0.71677 0.81765 0.88626 0.0
H114 H 1.04427 0.97972 0.76294 0.0
H115 H 1.15106 0.94627 0.81269 0.0
H116 H 0.47304 0.17345 0.77269 0.0
H117 H 0.57268 0.13712 0.7078 0.0
H118 H 0.82942 0.22084 0.86768 0.0
H119 H 0.72988 0.25782 0.93327 0.0
H120 H 1.1129 0.30736 0.2709 0.0
C121 C 1.0151 0.2357 0.25134 0.0
C122 C 0.92447 0.16797 0.29152 0.0
C123 C 0.98135 0.21075 0.18616 0.0
H124 H 0.72501 1.02463 0.29782 0.0
C125 C 0.79658 0.07533 0.26656 0.0
C126 C 0.76547 1.04423 0.20204 0.0
C127 C 0.85839 0.11298 0.16179 0.0
C128 C 1.08066 0.28529 0.14411 0.0
H129 H 0.8342 0.09023 0.11182 0.0
C130 C 1.15644 0.38251 0.16052 0.0
C131 C 1.25505 0.45226 0.12157 0.0
C132 C 1.10488 0.26004 0.08786 0.0
H133 H 1.0523 0.18777 0.07413 0.0
C134 C 1.2004 0.32812 0.04922 0.0
H135 H 1.14006 0.40406 0.2036 0.0
C136 C 1.27487 0.42305 0.06583 0.0
H137 H 0.34817 0.47378 0.03457 0.0
H138 H 1.21794 0.30733 0.00621 0.0
H139 H 0.79237 0.63303 0.73362 0.0
C140 C 0.80777 0.60104 0.69831 0.0
C141 C 0.80094 0.53455 0.71312 0.0
C142 C 0.81748 0.61656 0.63564 0.0
H143 H 0.78756 0.42811 0.675 0.0
C144 C 0.8021 0.48402 0.66497 0.0
C145 C 0.809 0.49805 0.60295 0.0
C146 C 0.82425 0.56783 0.58901 0.0
C147 C 0.77633 0.65627 0.61312 0.0
H148 H 0.82234 0.5749 0.54041 0.0
C149 C 0.87496 0.75225 0.60284 0.0
C150 C 0.83834 0.77961 0.56272 0.0
C151 C 0.64077 0.58969 0.58542 0.0
H152 H 0.56465 0.51498 0.5913 0.0
C153 C 0.60609 0.61625 0.54462 0.0
H154 H 0.98076 0.80344 0.62248 0.0
C155 C 0.70405 0.71034 0.53306 0.0
H156 H 0.67516 0.72918 0.50054 0.0
H157 H 0.50423 0.56291 0.52023 0.0
H158 H 0.42716 0.6398 0.98377 0.0
C159 C 0.35049 0.63116 0.96402 0.0
C160 C 0.32937 0.68052 -0.00288 0.0
C161 C 1.2659 0.56437 0.9101 0.0
H162 H 1.20833 0.70441 0.00074 0.0
C163 C 1.22594 0.6676 0.9742 0.0
C164 C 1.13485 0.60006 0.92158 0.0
C165 C 1.15596 0.54853 0.88967 0.0
C166 C 1.28354 0.50399 0.88181 0.0
H167 H 1.08623 0.49627 0.84929 0.0
C168 C 0.41145 0.53516 0.88835 0.0
C169 C 0.41837 0.47144 0.8695 0.0
C170 C 1.16702 0.40952 0.85294 0.0
H171 H 1.06746 0.38087 0.84742 0.0
C172 C 1.17431 0.348 0.83309 0.0
H173 H 0.50462 0.60763 0.90926 0.0
C174 C 1.2972 0.37785 0.842 0.0
H175 H 1.29744 0.32717 0.82661 0.0
H176 H 1.08255 0.27542 0.81159 0.0
H177 H 0.4287 0.62731 0.35886 0.0
C178 C 0.47999 0.69785 0.37846 0.0
C179 C 0.55521 0.76964 0.33974 0.0
C180 C 0.47083 0.71824 0.44209 0.0
H181 H 0.68832 0.91745 0.33599 0.0
C182 C 0.6238 0.86118 0.36471 0.0
C183 C 0.61291 0.88212 0.42587 0.0
C184 C 0.53666 0.81128 0.46456 0.0
C185 C 0.39834 0.6457 0.48617 0.0
H186 H 0.52953 0.82966 0.51204 0.0
C187 C 1.28708 0.54574 0.46549 0.0
C188 C 1.22838 0.48041 0.50799 0.0
C189 C 0.44493 0.677 0.55037 0.0
H190 H 0.53326 0.75198 0.56862 0.0
C191 C 0.38424 0.61182 0.59208 0.0
H192 H 1.24787 0.51843 0.41681 0.0
C193 C 1.27705 0.51431 0.57114 0.0
H194 H 1.23389 0.46499 0.60421 0.0
H195 H 0.42435 0.63662 0.64043 0.0
H196 H 0.85409 1.05772 0.61856 0.0
C197 C 0.8438 0.09284 0.65404 0.0
C198 C 0.84269 0.15433 0.63758 0.0
C199 C 0.8121 1.06609 0.71395 0.0
H200 H 0.8002 0.23119 0.66725 0.0
C201 C 0.81026 0.18901 0.68145 0.0
C202 C 0.77719 0.16178 0.74132 0.0
C203 C 0.78362 0.10322 0.75792 0.0
C204 C 0.76479 0.9787 0.72486 0.0
H205 H 0.74992 0.07695 0.80253 0.0
C206 C 0.84649 0.98243 0.76169 0.0
C207 C 0.78856 0.89823 0.78078 0.0
C208 C 0.62633 0.89106 0.70665 0.0
H209 H 0.56121 0.88783 0.67974 0.0
C210 C 0.56855 0.80801 0.72611 0.0
H211 H 0.95233 1.0506 0.77722 0.0
C212 C 0.64907 0.81107 0.76249 0.0
H213 H 0.60206 0.74518 0.7765 0.0
H214 H 0.46017 0.74164 0.71425 0.0
H215 H 0.58861 0.55411 0.08017 0.0
C216 C 0.58681 0.50388 0.08913 0.0
C217 C 0.65481 0.49245 0.05049 0.0
C218 C 0.54203 0.46627 0.14618 0.0
H219 H 0.74757 0.44802 0.04513 0.0
C220 C 0.67724 0.44362 0.0698 0.0
C221 C 0.63832 0.41093 0.12821 0.0
C222 C 0.54277 0.40282 0.15739 0.0
C223 C 0.57124 0.52808 0.20293 0.0
H224 H 0.50961 0.37494 0.20148 0.0
C225 C 0.70516 0.62229 0.2135 0.0
C226 C 0.75626 0.68118 0.27158 0.0
C227 C 0.48491 0.49128 0.25198 0.0
H228 H 0.38264 0.41755 0.24589 0.0
C229 C 0.53284 0.54909 0.31001 0.0
H230 H 0.77092 0.64912 0.17543 0.0
C231 C 0.66759 0.6434 0.31995 0.0
H232 H 0.70134 0.687 0.36485 0.0
H233 H 0.46563 0.52045 0.34765 0.0
loop_
_geom_bond_atom_site_label_1
_geom_bond_atom_site_label_2
_geom_bond_distance
_geom_bond_site_symmetry_2
_ccdc_geom_bond_type
La0 C2 2.928 . S
La0 O20 2.521 . S
La0 O21 2.628 . S
La0 O22 2.554 . S
La0 O23 2.757 . S
La0 O24 2.470 . S
La0 O29 2.482 . S
La0 O31 2.503 1_455 S
La1 C11 2.928 . S
La1 O23 2.482 1_655 S
La1 O25 2.503 1_655 S
La1 O26 2.521 . S
La1 O27 2.628 . S
La1 O28 2.554 . S
La1 O29 2.757 1_655 S
La1 O30 2.470 . S
C2 La0 2.928 . S
C2 C3 1.503 . S
C2 O20 1.261 . S
C2 O21 1.243 . S
C3 C2 1.503 . S
C3 C4 1.394 . S
C3 C8 1.373 . S
C4 C3 1.394 . S
C4 C5 1.380 . S
C4 H32 0.930 . S
C5 C4 1.380 . S
C5 C6 1.376 . S
C5 H33 0.930 . S
C6 C5 1.376 . S
C6 C7 1.370 . S
C7 C6 1.370 . S
C7 C8 1.396 . S
C7 H34 0.929 . S
C8 C3 1.373 . S
C8 C7 1.396 . S
C8 H35 0.929 . S
C9 O22 1.240 . S
C9 O23 1.289 . S
C10 O24 1.258 . S
C10 O25 1.256 . S
C11 La1 2.928 . S
C11 C12 1.503 . S
C11 O26 1.261 . S
C11 O27 1.243 . S
C12 C11 1.503 . S
C12 C13 1.394 . S
C12 C17 1.373 . S
C13 C12 1.394 . S
C13 C14 1.380 . S
C13 H36 0.930 . S
C14 C13 1.380 . S
C14 C15 1.376 . S
C14 H37 0.930 . S
C15 C14 1.376 . S
C15 C16 1.370 . S
C16 C15 1.370 . S
C16 C17 1.396 . S
C16 H38 0.929 . S
C17 C12 1.373 . S
C17 C16 1.396 . S
C17 H39 0.929 . S
C18 O28 1.240 1_455 S
C18 O29 1.289 . S
C19 O30 1.258 . S
C19 O31 1.256 . S
O20 La0 2.521 . S
O20 C2 1.261 . S
O21 La0 2.628 . S
O21 C2 1.243 . S
O22 La0 2.554 . S
O22 C9 1.240 . S
O23 La0 2.757 . S
O23 La1 2.482 1_455 S
O23 C9 1.289 . S
O24 La0 2.470 . S
O24 C10 1.258 . S
O25 La1 2.503 1_455 S
O25 C10 1.256 . S
O26 La1 2.521 . S
O26 C11 1.261 . S
O27 La1 2.628 . S
O27 C11 1.243 . S
O28 La1 2.554 . S
O28 C18 1.240 1_655 S
O29 La0 2.482 . S
O29 La1 2.757 1_455 S
O29 C18 1.289 . S
O30 La1 2.470 . S
O30 C19 1.258 . S
O31 La0 2.503 1_655 S
O31 C19 1.256 . S
H32 C4 0.930 . S
H33 C5 0.930 . S
H34 C7 0.929 . S
H35 C8 0.929 . S
H36 C13 0.930 . S
H37 C14 0.930 . S
H38 C16 0.929 . S
H39 C17 0.929 . S
La40 C42 2.928 1_545 S
La40 O60 2.521 1_545 S
La40 O61 2.628 1_545 S
La40 O62 2.554 1_545 S
La40 O63 2.757 . S
La40 O64 2.470 1_545 S
La40 O69 2.482 . S
La40 O71 2.503 . S
La41 C51 2.928 . S
La41 O63 2.482 . S
La41 O65 2.503 1_545 S
La41 O66 2.521 . S
La41 O67 2.628 . S
La41 O68 2.554 . S
La41 O69 2.757 . S
La41 O70 2.470 . S
C42 La40 2.928 1_565 S
C42 C43 1.503 . S
C42 O60 1.261 . S
C42 O61 1.243 . S
C43 C42 1.503 . S
C43 C44 1.394 . S
C43 C48 1.373 . S
C44 C43 1.394 . S
C44 C45 1.380 . S
C44 H72 0.930 . S
C45 C44 1.380 . S
C45 C46 1.376 . S
C45 H73 0.930 . S
C46 C45 1.376 . S
C46 C47 1.370 . S
C47 C46 1.370 . S
C47 C48 1.396 . S
C47 H74 0.929 . S
C48 C43 1.373 . S
C48 C47 1.396 . S
C48 H75 0.929 . S
C49 O62 1.240 1_545 S
C49 O63 1.289 . S
C50 O64 1.258 . S
C50 O65 1.256 . S
C51 La41 2.928 . S
C51 C52 1.503 . S
C51 O66 1.261 . S
C51 O67 1.243 . S
C52 C51 1.503 . S
C52 C53 1.394 . S
C52 C57 1.373 . S
C53 C52 1.394 . S
C53 C54 1.380 . S
C53 H76 0.930 . S
C54 C53 1.380 . S
C54 C55 1.376 . S
C54 H77 0.930 . S
C55 C54 1.376 . S
C55 C56 1.370 . S
C56 C55 1.370 . S
C56 C57 1.396 . S
C56 H78 0.929 . S
C57 C52 1.373 . S
C57 C56 1.396 . S
C57 H79 0.929 . S
C58 O68 1.240 . S
C58 O69 1.289 . S
C59 O70 1.258 . S
C59 O71 1.256 . S
O60 La40 2.521 1_565 S
O60 C42 1.261 . S
O61 La40 2.628 1_565 S
O61 C42 1.243 . S
O62 La40 2.554 1_565 S
O62 C49 1.240 1_565 S
O63 La40 2.757 . S
O63 La41 2.482 . S
O63 C49 1.289 . S
O64 La40 2.470 1_565 S
O64 C50 1.258 . S
O65 La41 2.503 1_565 S
O65 C50 1.256 . S
O66 La41 2.521 . S
O66 C51 1.261 . S
O67 La41 2.628 . S
O67 C51 1.243 . S
O68 La41 2.554 . S
O68 C58 1.240 . S
O69 La40 2.482 . S
O69 La41 2.757 . S
O69 C58 1.289 . S
O70 La41 2.470 . S
O70 C59 1.258 . S
O71 La40 2.503 . S
O71 C59 1.256 . S
H72 C44 0.930 . S
H73 C45 0.930 . S
H74 C47 0.929 . S
H75 C48 0.929 . S
H76 C53 0.930 . S
H77 C54 0.930 . S
H78 C56 0.929 . S
H79 C57 0.929 . S
La80 C82 2.928 . S
La80 O100 2.521 . S
La80 O101 2.628 . S
La80 O102 2.554 1_556 S
La80 O103 2.757 . S
La80 O104 2.470 . S
La80 O109 2.482 . S
La80 O111 2.503 . S
La81 C91 2.928 . S
La81 O103 2.482 . S
La81 O105 2.503 . S
La81 O106 2.521 . S
La81 O107 2.628 . S
La81 O108 2.554 . S
La81 O109 2.757 . S
La81 O110 2.470 . S
C82 La80 2.928 . S
C82 C83 1.503 . S
C82 O100 1.261 . S
C82 O101 1.243 . S
C83 C82 1.503 . S
C83 C84 1.394 . S
C83 C88 1.373 . S
C84 C83 1.394 . S
C84 C85 1.380 . S
C84 H112 0.930 1_556 S
C85 C84 1.380 . S
C85 C86 1.376 . S
C85 H113 0.930 1_556 S
C86 C85 1.376 . S
C86 C87 1.370 . S
C87 C86 1.370 . S
C87 C88 1.396 . S
C87 H114 0.929 . S
C88 C83 1.373 . S
C88 C87 1.396 . S
C88 H115 0.929 . S
C89 O102 1.240 . S
C89 O103 1.289 1_554 S
C90 O104 1.258 . S
C90 O105 1.256 . S
C91 La81 2.928 . S
C91 C92 1.503 . S
C91 O106 1.261 . S
C91 O107 1.243 . S
C92 C91 1.503 . S
C92 C93 1.394 . S
C92 C97 1.373 . S
C93 C92 1.394 . S
C93 C94 1.380 . S
C93 H116 0.930 . S
C94 C93 1.380 . S
C94 C95 1.376 . S
C94 H117 0.930 . S
C95 C94 1.376 . S
C95 C96 1.370 . S
C96 C95 1.370 . S
C96 C97 1.396 . S
C96 H118 0.929 . S
C97 C92 1.373 . S
C97 C96 1.396 . S
C97 H119 0.929 . S
C98 O108 1.240 . S
C98 O109 1.289 . S
C99 O110 1.258 . S
C99 O111 1.256 . S
O100 La80 2.521 . S
O100 C82 1.261 . S
O101 La80 2.628 . S
O101 C82 1.243 . S
O102 La80 2.554 1_554 S
O102 C89 1.240 . S
O103 La80 2.757 . S
O103 La81 2.482 . S
O103 C89 1.289 1_556 S
O104 La80 2.470 . S
O104 C90 1.258 . S
O105 La81 2.503 . S
O105 C90 1.256 . S
O106 La81 2.521 . S
O106 C91 1.261 . S
O107 La81 2.628 . S
O107 C91 1.243 . S
O108 La81 2.554 . S
O108 C98 1.240 . S
O109 La80 2.482 . S
O109 La81 2.757 . S
O109 C98 1.289 . S
O110 La81 2.470 . S
O110 C99 1.258 . S
O111 La80 2.503 . S
O111 C99 1.256 . S
H112 C84 0.930 1_554 S
H113 C85 0.930 1_554 S
H114 C87 0.929 . S
H115 C88 0.929 . S
H116 C93 0.930 . S
H117 C94 0.930 . S
H118 C96 0.929 . S
H119 C97 0.929 . S
H120 C121 0.949 . S
C121 H120 0.949 . S
C121 C122 1.395 1_545 S
C121 C123 1.391 . S
C122 C121 1.395 1_565 S
C122 C125 1.390 . S
C123 C121 1.391 . S
C123 C127 1.387 1_545 S
C123 C128 1.491 . S
H124 C125 0.950 . S
C125 C122 1.390 . S
C125 H124 0.950 . S
C125 C126 1.378 . S
C126 C125 1.378 . S
C126 C127 1.409 . S
C127 C123 1.387 1_565 S
C127 C126 1.409 . S
C127 H129 0.951 . S
C128 C123 1.491 . S
C128 C130 1.382 . S
C128 C132 1.404 . S
H129 C127 0.951 . S
C130 C128 1.382 . S
C130 C131 1.390 . S
C130 H135 0.949 . S
C131 C130 1.390 . S
C131 C136 1.399 . S
C132 C128 1.404 . S
C132 H133 0.950 . S
C132 C134 1.375 . S
H133 C132 0.950 . S
C134 C132 1.375 . S
C134 C136 1.382 . S
C134 H138 0.950 . S
H135 C130 0.949 . S
C136 C131 1.399 . S
C136 C134 1.382 . S
C136 H137 0.952 . S
H137 C136 0.952 . S
H138 C134 0.950 . S
H139 C140 0.949 . S
C140 H139 0.949 . S
C140 C141 1.395 . S
C140 C142 1.391 . S
C141 C140 1.395 . S
C141 C144 1.390 . S
C142 C140 1.391 . S
C142 C146 1.387 . S
C142 C147 1.491 . S
H143 C144 0.950 . S
C144 C141 1.390 . S
C144 H143 0.950 . S
C144 C145 1.378 . S
C145 C144 1.378 . S
C145 C146 1.409 . S
C146 C142 1.387 . S
C146 C145 1.409 . S
C146 H148 0.951 . S
C147 C142 1.491 . S
C147 C149 1.382 . S
C147 C151 1.404 . S
H148 C146 0.951 . S
C149 C147 1.382 . S
C149 C150 1.390 . S
C149 H154 0.949 . S
C150 C149 1.390 . S
C150 C155 1.399 . S
C151 C147 1.404 . S
C151 H152 0.950 . S
C151 C153 1.375 . S
H152 C151 0.950 . S
C153 C151 1.375 . S
C153 C155 1.382 . S
C153 H157 0.950 . S
H154 C149 0.949 . S
C155 C150 1.399 . S
C155 C153 1.382 . S
C155 H156 0.952 . S
H156 C155 0.952 . S
H157 C153 0.950 . S
H158 C159 0.949 . S
C159 H158 0.949 . S
C159 C160 1.395 1_556 S
C159 C161 1.391 . S
C160 C159 1.395 1_554 S
C160 C163 1.390 1_454 S
C161 C159 1.391 . S
C161 C165 1.387 . S
C161 C166 1.491 . S
H162 C163 0.961 . S
C163 C160 1.390 1_656 S
C163 H162 0.961 . S
C163 C164 1.378 . S
C164 C163 1.378 . S
C164 C165 1.409 1_655 S
C165 C161 1.387 . S
C165 C164 1.409 1_455 S
C165 H167 0.951 . S
C166 C161 1.491 . S
C166 C168 1.382 . S
C166 C170 1.404 . S
H167 C165 0.951 . S
C168 C166 1.382 . S
C168 C169 1.390 . S
C168 H173 0.949 . S
C169 C168 1.390 . S
C169 C174 1.399 . S
C170 C166 1.404 . S
C170 H171 0.950 . S
C170 C172 1.375 . S
H171 C170 0.950 . S
C172 C170 1.375 . S
C172 C174 1.382 . S
C172 H176 0.950 . S
H173 C168 0.949 . S
C174 C169 1.399 . S
C174 C172 1.382 . S
C174 H175 0.952 . S
H175 C174 0.952 . S
H176 C172 0.950 . S
H177 C178 0.949 . S
C178 H177 0.949 . S
C178 C179 1.395 1_655 S
C178 C180 1.391 1_655 S
C179 C178 1.395 1_455 S
C179 C182 1.390 . S
C180 C178 1.391 1_455 S
C180 C184 1.387 . S
C180 C185 1.491 1_455 S
H181 C182 0.950 . S
C182 C179 1.390 . S
C182 H181 0.950 . S
C182 C183 1.378 . S
C183 C182 1.378 . S
C183 C184 1.409 . S
C184 C180 1.387 . S
C184 C183 1.409 . S
C184 H186 0.951 . S
C185 C180 1.491 1_655 S
C185 C187 1.382 . S
C185 C189 1.404 . S
H186 C184 0.951 . S
C187 C185 1.382 . S
C187 C188 1.390 . S
C187 H192 0.949 . S
C188 C187 1.390 . S
C188 C193 1.399 . S
C189 C185 1.404 . S
C189 H190 0.950 . S
C189 C191 1.375 . S
H190 C189 0.950 . S
C191 C189 1.375 . S
C191 C193 1.382 . S
C191 H195 0.950 . S
H192 C187 0.949 . S
C193 C188 1.399 . S
C193 C191 1.382 . S
C193 H194 0.952 . S
H194 C193 0.952 . S
H195 C191 0.950 . S
H196 C197 0.949 1_565 S
C197 H196 0.949 1_545 S
C197 C198 1.395 . S
C197 C199 1.391 . S
C198 C197 1.395 . S
C198 C201 1.390 . S
C199 C197 1.391 . S
C199 C203 1.387 . S
C199 C204 1.491 1_545 S
H200 C201 0.950 . S
C201 C198 1.390 . S
C201 H200 0.950 . S
C201 C202 1.378 . S
C202 C201 1.378 . S
C202 C203 1.409 . S
C203 C199 1.387 . S
C203 C202 1.409 . S
C203 H205 0.951 . S
C204 C199 1.491 1_565 S
C204 C206 1.382 . S
C204 C208 1.404 . S
H205 C203 0.951 . S
C206 C204 1.382 . S
C206 C207 1.390 . S
C206 H211 0.949 . S
C207 C206 1.390 . S
C207 C212 1.399 . S
C208 C204 1.404 . S
C208 H209 0.950 . S
C208 C210 1.375 . S
H209 C208 0.950 . S
C210 C208 1.375 . S
C210 C212 1.382 . S
C210 H214 0.950 . S
H211 C206 0.949 . S
C212 C207 1.399 . S
C212 C210 1.382 . S
C212 H213 0.952 . S
H213 C212 0.952 . S
H214 C210 0.950 . S
H215 C216 0.949 . S
C216 H215 0.949 . S
C216 C217 1.395 1_554 S
C216 C218 1.391 . S
C217 C216 1.395 1_556 S
C217 C220 1.390 1_556 S
C218 C216 1.391 . S
C218 C222 1.387 . S
C218 C223 1.491 . S
H219 C220 0.950 1_556 S
C220 C217 1.390 1_554 S
C220 H219 0.950 1_554 S
C220 C221 1.378 . S
C221 C220 1.378 . S
C221 C222 1.409 . S
C222 C218 1.387 . S
C222 C221 1.409 . S
C222 H224 0.951 . S
C223 C218 1.491 . S
C223 C225 1.382 . S
C223 C227 1.404 . S
H224 C222 0.951 . S
C225 C223 1.382 . S
C225 C226 1.390 . S
C225 H230 0.949 . S
C226 C225 1.390 . S
C226 C231 1.399 . S
C227 C223 1.404 . S
C227 H228 0.950 . S
C227 C229 1.375 . S
H228 C227 0.950 . S
C229 C227 1.375 . S
C229 C231 1.382 . S
C229 H233 0.950 . S
H230 C225 0.949 . S
C231 C226 1.399 . S
C231 C229 1.382 . S
C231 H232 0.952 . S
H232 C231 0.952 . S
H233 C229 0.950 . S
C6 C226 3.970 . S
C59 C188 2.538 . S
C86 C207 2.484 . S
C15 C221 2.806 . S
C183 C50 2.428 . S
C202 C95 1.671 . S
C46 C150 1.485 . S
C99 C164 4.854 . S
C10 C126 2.667 . S
C145 C55 1.801 . S
C169 C90 4.868 . S
C19 C131 2.612 . S
C160 C18 1.955 . S
C49 C122 1.249 1_545 S
C98 C141 1.480 . S
C198 C58 1.430 . S
C217 C89 1.652 1_556 S
C9 C179 1.159 . S
