# Generated by pormake.
# Topology zzz, (3,6)-cn, num edge types: 1
# Building blocks:
#     Node 0, Type 0, BuildingBlock: ESEHIV_clean_linker_0, # of connection points: 3
#     Node 1, Type 0, BuildingBlock: ESEHIV_clean_linker_0, # of connection points: 3
#     Node 2, Type 0, BuildingBlock: ESEHIV_clean_linker_0, # of connection points: 3
#     Node 3, Type 0, BuildingBlock: ESEHIV_clean_linker_0, # of connection points: 3
#     Node 4, Type 0, BuildingBlock: ESEHIV_clean_linker_0, # of connection points: 3
#     Node 5, Type 0, BuildingBlock: ESEHIV_clean_linker_0, # of connection points: 3
#     Node 6, Type 0, BuildingBlock: ESEHIV_clean_linker_0, # of connection points: 3
#     Node 7, Type 0, BuildingBlock: ESEHIV_clean_linker_0, # of connection points: 3
#     Node 8, Type 1, BuildingBlock: BETFAJ_clean_sbu_0, # of connection points: 6
#     Node 9, Type 1, BuildingBlock: BETFAJ_clean_sbu_0, # of connection points: 6
#     Node 10, Type 1, BuildingBlock: BETFAJ_clean_sbu_0, # of connection points: 6
#     Node 11, Type 1, BuildingBlock: BETFAJ_clean_sbu_0, # of connection points: 6
#     Edge 12, Type (0, 1), None
#     Edge 13, Type (0, 1), None
#     Edge 14, Type (0, 1), None
#     Edge 15, Type (0, 1), None
#     Edge 16, Type (0, 1), None
#     Edge 17, Type (0, 1), None
#     Edge 18, Type (0, 1), None
#     Edge 19, Type (0, 1), None
#     Edge 20, Type (0, 1), None
#     Edge 21, Type (0, 1), None
#     Edge 22, Type (0, 1), None
#     Edge 23, Type (0, 1), None
#     Edge 24, Type (0, 1), None
#     Edge 25, Type (0, 1), None
#     Edge 26, Type (0, 1), None
#     Edge 27, Type (0, 1), None
#     Edge 28, Type (0, 1), None
#     Edge 29, Type (0, 1), None
#     Edge 30, Type (0, 1), None
#     Edge 31, Type (0, 1), None
#     Edge 32, Type (0, 1), None
#     Edge 33, Type (0, 1), None
#     Edge 34, Type (0, 1), None
#     Edge 35, Type (0, 1), None
# Relax obj value: 1.063
# Max RMSD: 0.328
# Mean RMSD: 0.245
data_MOF--net-zzz--node1-BETFAJ_clean_sbu_0--node2-ESEHIV_clean_linker_0--edge1-none
_symmetry_space_group_name_H-M    P1
_symmetry_Int_Tables_number       1
_symmetry_cell_setting            triclinic
loop_
_symmetry_equiv_pos_as_xyz
'x, y, z'
_cell_length_a     20.372291
_cell_length_b     20.414417
_cell_length_c     7.8922854
_cell_angle_alpha  88.849629
_cell_angle_beta   89.448107
_cell_angle_gamma 90.435763
loop_
_atom_site_label
_atom_site_type_symbol
_atom_site_fract_x
_atom_site_fract_y
_atom_site_fract_z
_atom_type_partial_charge
H0 H 0.8078 0.55298 0.36686 0.0
H1 H 0.61444 0.51145 0.52585 0.0
H2 H 0.75995 0.55041 0.89546 0.0
C3 C 0.77095 0.55164 0.46735 0.0
C4 C 0.79222 0.54859 0.63295 0.0
C5 C 0.71143 0.52042 0.43708 0.0
C6 C 0.66246 0.52302 0.56084 0.0
C7 C 0.67777 0.53317 0.73004 0.0
C8 C 0.74441 0.54684 0.76564 0.0
H9 H 0.93683 0.81255 0.36205 0.0
H10 H 0.96509 0.61502 0.49027 0.0
H11 H 0.95794 0.75643 0.88476 0.0
C12 C 0.93889 0.77434 0.45954 0.0
C13 C 0.9478 0.79267 0.62649 0.0
C14 C 0.9657 0.71446 0.41618 0.0
C15 C 0.95931 0.6637 0.53497 0.0
C16 C 0.96326 0.67705 0.70879 0.0
C17 C 0.95531 0.74301 0.75448 0.0
H18 H 0.676 0.91229 0.39499 0.0
H19 H 0.87035 0.96103 0.50297 0.0
H20 H 0.72988 0.9414 0.91229 0.0
C21 C 0.71361 0.9186 0.48998 0.0
C22 C 0.69415 0.92696 0.6577 0.0
C23 C 0.77082 0.95108 0.43941 0.0
C24 C 0.82235 0.95052 0.55305 0.0
C25 C 0.80965 0.95183 0.72851 0.0
C26 C 0.74374 0.93891 0.78109 0.0
H27 H 0.56649 0.68392 0.39596 0.0
H28 H 0.56074 0.72902 0.92372 0.0
H29 H 0.5043 0.86916 0.54595 0.0
C30 C 0.56128 0.71936 0.49603 0.0
C31 C 0.52334 0.77421 0.46264 0.0
C32 C 0.56112 0.69693 0.6627 0.0
C33 C 0.55526 0.74434 0.79286 0.0
C34 C 0.53566 0.80973 0.7524 0.0
C35 C 0.52069 0.82282 0.58342 0.0
H36 H 0.1791 0.43549 0.14772 0.0
H37 H 0.37247 0.47703 -0.01133 0.0
H38 H 0.22699 0.43787 0.61916 0.0
C39 C 0.21595 0.43681 0.04724 0.0
C40 C 0.19469 0.43973 0.88162 0.0
C41 C 0.27548 0.46804 0.07749 0.0
C42 C 0.32444 0.46545 0.95374 0.0
C43 C 0.30913 0.45528 0.78459 0.0
C44 C 0.24251 0.44152 0.74898 0.0
H45 H 0.05011 0.17555 0.15298 0.0
H46 H 0.0219 0.37313 0.02475 0.0
H47 H 0.02908 0.23171 0.63029 0.0
C48 C 0.04809 0.21377 0.05551 0.0
C49 C 0.03923 0.19546 0.88851 0.0
C50 C 0.02132 0.27368 0.09887 0.0
C51 C 0.02773 0.32444 -0.01991 0.0
C52 C 0.02378 0.31108 0.80631 0.0
C53 C 0.03174 0.24512 0.76058 0.0
H54 H 0.311 0.07597 0.12025 0.0
H55 H 0.1166 0.02729 0.01229 0.0
H56 H 0.25708 0.04682 0.603 0.0
C57 C 0.27338 0.06968 0.02527 0.0
C58 C 0.29282 0.06133 0.85752 0.0
C59 C 0.21615 0.03724 0.07585 0.0
C60 C 0.16461 0.03784 0.96224 0.0
C61 C 0.17733 0.03648 0.78681 0.0
C62 C 0.24323 0.04937 0.73419 0.0
H63 H 0.4207 0.30449 0.11895 0.0
H64 H 0.42639 0.25932 0.59123 0.0
H65 H 0.48268 0.11916 0.96906 0.0
C66 C 0.42587 0.26904 0.01891 0.0
C67 C 0.46376 0.21415 0.05232 0.0
C68 C 0.42599 0.29144 0.8522 0.0
C69 C 0.43187 0.24403 0.7221 0.0
C70 C 0.45145 0.17864 0.76261 0.0
C71 C 0.46636 0.16552 0.93159 0.0
Sm72 Sm 0.02404 0.97036 0.89694 0.0
Sm73 Sm 0.96286 0.01785 0.61793 0.0
C74 C 0.08595 0.90771 0.14574 0.0
C75 C 0.08234 0.83947 0.20507 0.0
C76 C 0.09861 0.82133 0.37082 0.0
C77 C 0.07725 0.76035 0.43451 0.0
C78 C 0.03153 0.7242 0.33871 0.0
C79 C 0.03299 0.73291 0.16427 0.0
C80 C 0.05835 0.79137 0.09617 0.0
C81 C 0.12351 0.00809 0.67889 0.0
C82 C 0.96692 0.86091 0.65979 0.0
C83 C 0.90082 0.08059 0.3695 0.0
C84 C 0.90451 0.14882 0.31013 0.0
C85 C 0.88828 0.16695 0.14434 0.0
C86 C 0.90973 0.22788 0.08058 0.0
C87 C 0.95549 0.26399 0.17635 0.0
C88 C 0.95402 0.25531 0.3508 0.0
C89 C 0.92859 0.1969 0.41897 0.0
C90 C 0.86356 0.98002 0.83655 0.0
C91 C 0.02014 0.12722 0.8551 0.0
O92 O 0.03483 0.94518 0.17351 0.0
O93 O 0.10774 0.91289 -0.00897 0.0
O94 O 0.0699 0.03789 0.69295 0.0
O95 O 0.10995 0.94737 0.71401 0.0
O96 O 0.9703 0.87798 0.81794 0.0
O97 O 0.97463 0.90747 0.54088 0.0
O98 O 0.95184 0.04303 0.34142 0.0
O99 O 0.87915 0.07545 0.52434 0.0
O100 O 0.91714 0.95027 0.82126 0.0
O101 O 0.87716 0.04077 0.80187 0.0
O102 O 0.01678 0.11014 0.69694 0.0
O103 O 0.01227 0.08069 -0.026 0.0
H104 H 0.122 0.85581 0.45396 0.0
H105 H 0.08218 0.75061 0.56918 0.0
H106 H 0.00454 0.70047 0.08778 0.0
H107 H 0.05356 0.8017 0.96225 0.0
H108 H 0.86484 0.13249 0.06124 0.0
H109 H 0.90483 0.2376 0.94589 0.0
H110 H 0.98255 0.28771 0.42724 0.0
H111 H 0.9334 0.18657 0.55289 0.0
Sm112 Sm 0.51678 0.02224 0.89443 0.0
Sm113 Sm 0.47017 0.96607 0.62039 0.0
C114 C 0.59014 0.08896 0.11053 0.0
C115 C 0.65413 0.07779 0.18973 0.0
C116 C 0.6624 0.08761 0.36284 0.0
C117 C 0.71558 0.05872 0.44479 0.0
C118 C 0.75581 0.01458 0.35571 0.0
C119 C 0.75622 0.01762 0.18014 0.0
C120 C 0.7058 0.05026 0.09604 0.0
C121 C 0.46494 0.1297 0.62525 0.0
C122 C 0.6246 0.94547 0.68772 0.0
C123 C 0.39683 0.89932 0.40431 0.0
C124 C 0.33282 0.91048 0.32522 0.0
C125 C 0.32451 0.90066 0.15212 0.0
C126 C 0.27131 0.92956 0.07028 0.0
C127 C 0.23111 0.97371 0.15945 0.0
C128 C 0.23073 0.97065 0.33501 0.0
C129 C 0.28117 0.938 0.41901 0.0
C130 C 0.52212 0.8587 0.88972 0.0
C131 C 0.36238 0.04285 0.82739 0.0
O132 O 0.54053 0.05152 0.16103 0.0
O133 O 0.59303 0.09669 0.94649 0.0
O134 O 0.49891 0.07636 0.64595 0.0
O135 O 0.49924 0.07606 0.6435 0.0
O136 O 0.60743 0.96109 0.84111 0.0
O137 O 0.58229 0.95438 0.56137 0.0
O138 O 0.44642 0.93679 0.35378 0.0
O139 O 0.39396 0.89158 0.56834 0.0
O140 O 0.48801 0.91192 0.86865 0.0
O141 O 0.48766 0.91223 0.8713 0.0
O142 O 0.37953 0.02725 0.67395 0.0
O143 O 0.40469 0.03393 0.95369 0.0
H144 H 0.62511 0.1121 0.43653 0.0
H145 H 0.7172 0.06058 0.58172 0.0
H146 H 0.79015 0.98762 0.11154 0.0
H147 H 0.70354 0.04806 0.95953 0.0
H148 H 0.36178 0.87618 0.07836 0.0
H149 H 0.26966 0.92772 0.93335 0.0
H150 H 0.19683 0.00065 0.40368 0.0
H151 H 0.28347 0.94021 0.55551 0.0
Sm152 Sm 0.46719 0.51556 0.90038 0.0
Sm153 Sm 0.51974 0.47283 0.614 0.0
C154 C 0.4026 0.58481 0.13003 0.0
C155 C 0.41239 0.64854 0.20866 0.0
C156 C 0.39564 0.65816 0.37858 0.0
C157 C 0.41869 0.71411 0.45919 0.0
C158 C 0.46309 0.75687 0.37259 0.0
C159 C 0.46865 0.7532 0.19803 0.0
C160 C 0.44248 0.69982 0.11498 0.0
C161 C 0.35708 0.46899 0.64184 0.0
C162 C 0.54355 0.6265 0.69157 0.0
C163 C 0.58436 0.40365 0.3843 0.0
C164 C 0.57462 0.3399 0.30583 0.0
C165 C 0.59141 0.3302 0.13597 0.0
C166 C 0.56843 0.27418 0.05554 0.0
C167 C 0.52404 0.23145 0.14226 0.0
C168 C 0.5185 0.23516 0.3168 0.0
C169 C 0.54459 0.28862 0.39967 0.0
C170 C 0.62979 0.51944 0.87275 0.0
C171 C 0.44344 0.36189 0.82319 0.0
O172 O 0.44177 0.53645 0.17292 0.0
O173 O 0.39277 0.58887 0.96751 0.0
O174 O 0.41114 0.50231 0.65726 0.0
O175 O 0.41153 0.50275 0.65481 0.0
O176 O 0.53012 0.60674 0.84622 0.0
O177 O 0.53177 0.58621 0.56378 0.0
O178 O 0.54511 0.45195 0.34143 0.0
O179 O 0.59423 0.39962 0.54679 0.0
O180 O 0.57581 0.48603 0.85692 0.0
O181 O 0.57541 0.48556 0.85957 0.0
O182 O 0.45684 0.38164 0.66847 0.0
O183 O 0.45518 0.40222 0.9509 0.0
H184 H 0.36968 0.62047 0.45156 0.0
H185 H 0.4128 0.71664 0.59555 0.0
H186 H 0.50337 0.78456 0.13374 0.0
H187 H 0.4517 0.69542 -0.0192 0.0
H188 H 0.61734 0.36789 0.06288 0.0
H189 H 0.57434 0.2716 0.9192 0.0
H190 H 0.48382 0.2038 0.3812 0.0
H191 H 0.53535 0.29308 0.53383 0.0
Sm192 Sm 0.96951 0.46554 0.90134 0.0
Sm193 Sm 0.01741 0.52266 0.61319 0.0
C194 C 0.90536 0.40655 0.15684 0.0
C195 C 0.83797 0.41179 0.2188 0.0
C196 C 0.81971 0.39146 0.38278 0.0
C197 C 0.75903 0.4112 0.4477 0.0
C198 C 0.72222 0.45766 0.35389 0.0
C199 C 0.73252 0.46244 0.18044 0.0
C200 C 0.79062 0.43945 0.11184 0.0
C201 C -0.00215 0.36459 0.6918 0.0
C202 C 0.86037 0.52765 0.66453 0.0
C203 C 0.08163 0.58185 0.35812 0.0
C204 C 0.14901 0.57662 0.29611 0.0
C205 C 0.16725 0.597 0.13215 0.0
C206 C 0.22791 0.57726 0.06713 0.0
C207 C 0.26471 0.53076 0.16081 0.0
C208 C 0.25443 0.52591 0.33425 0.0
C209 C 0.19635 0.54889 0.40295 0.0
C210 C 0.98898 0.62344 0.8234 0.0
C211 C 0.12648 0.46048 0.84993 0.0
O212 O 0.94572 0.45612 0.17949 0.0
O213 O 0.90738 0.38529 0.00312 0.0
O214 O 0.03152 0.41616 0.69841 0.0
O215 O 0.93837 0.38141 0.72701 0.0
O216 O 0.87976 0.52457 0.82177 0.0
O217 O 0.90476 0.51615 0.54406 0.0
O218 O 0.04123 0.53234 0.3351 0.0
O219 O 0.07963 0.60294 0.512 0.0
O220 O 0.95536 0.5719 0.81551 0.0
O221 O 0.04849 0.60658 0.78861 0.0
O222 O 0.10709 0.4635 0.69269 0.0
O223 O 0.08212 0.47209 0.97037 0.0
H224 H 0.85388 0.36566 0.46381 0.0
H225 H 0.74962 0.40368 0.5821 0.0
H226 H 0.70411 0.49662 0.10886 0.0
H227 H 0.80145 0.44942 -0.02021 0.0
H228 H 0.13307 0.62283 0.05121 0.0
H229 H 0.2373 0.58481 0.93273 0.0
H230 H 0.2828 0.49164 0.40568 0.0
H231 H 0.18551 0.53885 0.53497 0.0
loop_
_geom_bond_atom_site_label_1
_geom_bond_atom_site_label_2
_geom_bond_distance
_geom_bond_site_symmetry_2
_ccdc_geom_bond_type
H0 C3 0.931 . S
H1 C6 0.928 . S
H2 C8 0.930 . S
C3 H0 0.931 . S
C3 C4 1.413 . S
C3 C5 1.360 . S
C4 C3 1.413 . S
C4 C8 1.429 . S
C5 C3 1.360 . S
C5 C6 1.372 . S
C6 H1 0.928 . S
C6 C5 1.372 . S
C6 C7 1.404 . S
C7 C6 1.404 . S
C7 C8 1.391 . S
C8 H2 0.930 . S
C8 C4 1.429 . S
C8 C7 1.391 . S
H9 C12 0.931 . S
H10 C15 0.928 . S
H11 C17 0.930 . S
C12 H9 0.931 . S
C12 C13 1.413 . S
C12 C14 1.360 . S
C13 C12 1.413 . S
C13 C17 1.429 1_655 S
C14 C12 1.360 . S
C14 C15 1.372 . S
C15 H10 0.928 . S
C15 C14 1.372 . S
C15 C16 1.404 . S
C16 C15 1.404 . S
C16 C17 1.390 1_655 S
C17 H11 0.930 . S
C17 C13 1.429 1_455 S
C17 C16 1.390 1_455 S
H18 C21 0.931 . S
H19 C24 0.928 . S
H20 C26 0.930 . S
C21 H18 0.931 . S
C21 C22 1.414 . S
C21 C23 1.360 . S
C22 C21 1.414 . S
C22 C26 1.429 1_565 S
C23 C21 1.360 . S
C23 C24 1.372 . S
C24 H19 0.928 . S
C24 C23 1.372 . S
C24 C25 1.405 . S
C25 C24 1.405 . S
C25 C26 1.390 1_565 S
C26 H20 0.930 . S
C26 C22 1.429 1_545 S
C26 C25 1.390 1_545 S
H27 C30 0.931 . S
H28 C33 0.928 . S
H29 C35 0.930 . S
C30 H27 0.931 . S
C30 C31 1.413 . S
C30 C32 1.360 . S
C31 C30 1.413 . S
C31 C35 1.429 . S
C32 C30 1.360 . S
C32 C33 1.372 . S
C33 H28 0.928 . S
C33 C32 1.372 . S
C33 C34 1.404 . S
C34 C33 1.404 . S
C34 C35 1.391 . S
C35 H29 0.930 . S
C35 C31 1.429 . S
C35 C34 1.391 . S
H36 C39 0.931 . S
H37 C42 0.928 . S
H38 C44 0.930 . S
C39 H36 0.931 . S
C39 C40 1.413 . S
C39 C41 1.360 1_556 S
C40 C39 1.413 . S
C40 C44 1.429 . S
C41 C39 1.360 1_554 S
C41 C42 1.372 . S
C42 H37 0.928 . S
C42 C41 1.372 . S
C42 C43 1.404 . S
C43 C42 1.404 . S
C43 C44 1.391 1_554 S
C44 H38 0.930 . S
C44 C40 1.429 . S
C44 C43 1.391 1_556 S
H45 C48 0.931 . S
H46 C51 0.928 . S
H47 C53 0.930 . S
C48 H45 0.931 . S
C48 C49 1.413 . S
C48 C50 1.360 1_556 S
C49 C48 1.413 . S
C49 C53 1.429 1_655 S
C50 C48 1.360 1_554 S
C50 C51 1.372 . S
C51 H46 0.928 . S
C51 C50 1.372 . S
C51 C52 1.404 . S
C52 C51 1.404 . S
C52 C53 1.391 1_654 S
C53 H47 0.930 . S
C53 C49 1.429 1_455 S
C53 C52 1.391 1_456 S
H54 C57 0.931 . S
H55 C60 0.928 . S
H56 C62 0.930 . S
C57 H54 0.931 . S
C57 C58 1.413 . S
C57 C59 1.360 1_556 S
C58 C57 1.413 . S
C58 C62 1.429 1_565 S
C59 C57 1.360 1_554 S
C59 C60 1.372 . S
C60 H55 0.928 . S
C60 C59 1.372 . S
C60 C61 1.404 . S
C61 C60 1.404 . S
C61 C62 1.391 1_564 S
C62 H56 0.930 . S
C62 C58 1.429 1_545 S
C62 C61 1.391 1_546 S
H63 C66 0.931 . S
H64 C69 0.928 . S
H65 C71 0.930 . S
C66 H63 0.931 . S
C66 C67 1.413 1_556 S
C66 C68 1.360 . S
C67 C66 1.413 1_554 S
C67 C71 1.429 . S
C68 C66 1.360 . S
C68 C69 1.372 . S
C69 H64 0.928 . S
C69 C68 1.372 . S
C69 C70 1.404 1_556 S
C70 C69 1.404 1_554 S
C70 C71 1.391 . S
C71 H65 0.930 . S
C71 C67 1.429 . S
C71 C70 1.391 . S
Sm72 C74 2.846 1_556 S
Sm72 O92 2.543 1_556 S
Sm72 O93 2.450 1_556 S
Sm72 O94 2.681 1_565 S
Sm72 O95 2.464 . S
Sm72 O96 2.396 . S
Sm72 O100 2.386 1_455 S
Sm72 O103 2.408 1_565 S
Sm73 C83 2.846 . S
Sm73 O94 2.386 1_655 S
Sm73 O97 2.408 1_545 S
Sm73 O98 2.543 . S
Sm73 O99 2.450 . S
Sm73 O100 2.681 1_545 S
Sm73 O101 2.464 . S
Sm73 O102 2.396 . S
C74 Sm72 2.846 1_554 S
C74 C75 1.506 . S
C74 O92 1.261 . S
C74 O93 1.242 . S
C75 C74 1.506 . S
C75 C76 1.358 . S
C75 C80 1.382 . S
C76 C75 1.358 . S
C76 C77 1.385 . S
C76 H104 0.930 . S
C77 C76 1.385 . S
C77 C78 1.395 . S
C77 H105 0.929 . S
C78 C77 1.395 . S
C78 C79 1.335 . S
C79 C78 1.335 . S
C79 C80 1.398 . S
C79 H106 0.930 . S
C80 C75 1.382 . S
C80 C79 1.398 . S
C80 H107 0.929 . S
C81 O94 1.271 1_565 S
C81 O95 1.251 . S
C82 O96 1.252 1_655 S
C82 O97 1.272 . S
C83 Sm73 2.846 . S
C83 C84 1.506 . S
C83 O98 1.261 . S
C83 O99 1.242 . S
C84 C83 1.506 . S
C84 C85 1.358 . S
C84 C89 1.382 . S
C85 C84 1.358 . S
C85 C86 1.385 . S
C85 H108 0.930 . S
C86 C85 1.385 . S
C86 C87 1.395 . S
C86 H109 0.929 . S
C87 C86 1.395 . S
C87 C88 1.335 . S
C88 C87 1.335 . S
C88 C89 1.398 . S
C88 H110 0.930 . S
C89 C84 1.382 . S
C89 C88 1.398 . S
C89 H111 0.929 . S
C90 O100 1.271 1_544 S
C90 O101 1.251 1_554 S
C91 O102 1.252 1_455 S
C91 O103 1.272 . S
O92 Sm72 2.543 1_554 S
O92 C74 1.261 . S
O93 Sm72 2.450 1_554 S
O93 C74 1.242 . S
O94 Sm72 2.681 1_545 S
O94 Sm73 2.386 1_455 S
O94 C81 1.271 1_545 S
O95 Sm72 2.464 . S
O95 C81 1.251 . S
O96 Sm72 2.396 . S
O96 C82 1.252 1_455 S
O97 Sm73 2.408 1_565 S
O97 C82 1.272 . S
O98 Sm73 2.543 . S
O98 C83 1.261 . S
O99 Sm73 2.450 . S
O99 C83 1.242 . S
O100 Sm72 2.386 1_655 S
O100 Sm73 2.681 1_565 S
O100 C90 1.271 1_566 S
O101 Sm73 2.464 . S
O101 C90 1.251 1_556 S
O102 Sm73 2.396 . S
O102 C91 1.252 1_655 S
O103 Sm72 2.408 1_545 S
O103 C91 1.272 . S
H104 C76 0.930 . S
H105 C77 0.929 . S
H106 C79 0.930 . S
H107 C80 0.929 . S
H108 C85 0.930 . S
H109 C86 0.929 . S
H110 C88 0.930 . S
H111 C89 0.929 . S
Sm112 C114 2.846 1_556 S
Sm112 O132 2.543 1_556 S
Sm112 O133 2.450 1_556 S
Sm112 O134 2.681 . S
Sm112 O135 2.464 . S
Sm112 O136 2.396 . S
Sm112 O140 2.386 1_545 S
Sm112 O143 2.408 . S
Sm113 C123 2.846 . S
Sm113 O134 2.386 1_565 S
Sm113 O137 2.408 . S
Sm113 O138 2.543 . S
Sm113 O139 2.450 . S
Sm113 O140 2.681 . S
Sm113 O141 2.464 . S
Sm113 O142 2.396 . S
C114 Sm112 2.846 1_554 S
C114 C115 1.506 . S
C114 O132 1.261 . S
C114 O133 1.242 . S
C115 C114 1.506 . S
C115 C116 1.358 . S
C115 C120 1.382 . S
C116 C115 1.358 . S
C116 C117 1.385 . S
C116 H144 0.930 . S
C117 C116 1.385 . S
C117 C118 1.395 . S
C117 H145 0.929 . S
C118 C117 1.395 . S
C118 C119 1.335 . S
C119 C118 1.335 . S
C119 C120 1.398 . S
C119 H146 0.930 . S
C120 C115 1.382 . S
C120 C119 1.398 . S
C120 H147 0.929 . S
C121 O134 1.271 . S
C121 O135 1.251 . S
C122 O136 1.252 1_565 S
C122 O137 1.272 . S
C123 Sm113 2.846 . S
C123 C124 1.506 . S
C123 O138 1.261 . S
C123 O139 1.242 . S
C124 C123 1.506 . S
C124 C125 1.358 . S
C124 C129 1.382 . S
C125 C124 1.358 . S
C125 C126 1.385 . S
C125 H148 0.930 . S
C126 C125 1.385 . S
C126 C127 1.395 . S
C126 H149 0.929 . S
C127 C126 1.395 . S
C127 C128 1.335 . S
C128 C127 1.335 . S
C128 C129 1.398 . S
C128 H150 0.930 . S
C129 C124 1.382 . S
C129 C128 1.398 . S
C129 H151 0.929 . S
C130 O140 1.271 1_554 S
C130 O141 1.251 1_554 S
C131 O142 1.252 1_545 S
C131 O143 1.272 . S
O132 Sm112 2.543 1_554 S
O132 C114 1.261 . S
O133 Sm112 2.450 1_554 S
O133 C114 1.242 . S
O134 Sm112 2.681 . S
O134 Sm113 2.386 1_545 S
O134 C121 1.271 . S
O135 Sm112 2.464 . S
O135 C121 1.251 . S
O136 Sm112 2.396 . S
O136 C122 1.252 1_545 S
O137 Sm113 2.408 . S
O137 C122 1.272 . S
O138 Sm113 2.543 . S
O138 C123 1.261 . S
O139 Sm113 2.450 . S
O139 C123 1.242 . S
O140 Sm112 2.386 1_565 S
O140 Sm113 2.681 . S
O140 C130 1.271 1_556 S
O141 Sm113 2.464 . S
O141 C130 1.251 1_556 S
O142 Sm113 2.396 . S
O142 C131 1.252 1_565 S
O143 Sm112 2.408 . S
O143 C131 1.272 . S
H144 C116 0.930 . S
H145 C117 0.929 . S
H146 C119 0.930 . S
H147 C120 0.929 . S
H148 C125 0.930 . S
H149 C126 0.929 . S
H150 C128 0.930 . S
H151 C129 0.929 . S
Sm152 C154 2.846 1_556 S
Sm152 O172 2.543 1_556 S
Sm152 O173 2.450 1_556 S
Sm152 O174 2.681 . S
Sm152 O175 2.464 . S
Sm152 O176 2.396 . S
Sm152 O180 2.386 . S
Sm152 O183 2.408 . S
Sm153 C163 2.846 . S
Sm153 O174 2.386 . S
Sm153 O177 2.408 . S
Sm153 O178 2.543 . S
Sm153 O179 2.450 . S
Sm153 O180 2.681 . S
Sm153 O181 2.464 . S
Sm153 O182 2.396 . S
C154 Sm152 2.846 1_554 S
C154 C155 1.506 . S
C154 O172 1.261 . S
C154 O173 1.242 . S
C155 C154 1.506 . S
C155 C156 1.358 . S
C155 C160 1.382 . S
C156 C155 1.358 . S
C156 C157 1.385 . S
C156 H184 0.930 . S
C157 C156 1.385 . S
C157 C158 1.395 . S
C157 H185 0.929 . S
C158 C157 1.395 . S
C158 C159 1.335 . S
C159 C158 1.335 . S
C159 C160 1.398 . S
C159 H186 0.930 . S
C160 C155 1.382 . S
C160 C159 1.398 . S
C160 H187 0.929 . S
C161 O174 1.271 . S
C161 O175 1.251 . S
C162 O176 1.252 . S
C162 O177 1.272 . S
C163 Sm153 2.846 . S
C163 C164 1.506 . S
C163 O178 1.261 . S
C163 O179 1.242 . S
C164 C163 1.506 . S
C164 C165 1.358 . S
C164 C169 1.382 . S
C165 C164 1.358 . S
C165 C166 1.385 . S
C165 H188 0.930 . S
C166 C165 1.385 . S
C166 C167 1.395 . S
C166 H189 0.929 . S
C167 C166 1.395 . S
C167 C168 1.335 . S
C168 C167 1.335 . S
C168 C169 1.398 . S
C168 H190 0.930 . S
C169 C164 1.382 . S
C169 C168 1.398 . S
C169 H191 0.929 . S
C170 O180 1.271 1_554 S
C170 O181 1.251 1_554 S
C171 O182 1.252 . S
C171 O183 1.272 . S
O172 Sm152 2.543 1_554 S
O172 C154 1.261 . S
O173 Sm152 2.450 1_554 S
O173 C154 1.242 . S
O174 Sm152 2.681 . S
O174 Sm153 2.386 . S
O174 C161 1.271 . S
O175 Sm152 2.464 . S
O175 C161 1.251 . S
O176 Sm152 2.396 . S
O176 C162 1.252 . S
O177 Sm153 2.408 . S
O177 C162 1.272 . S
O178 Sm153 2.543 . S
O178 C163 1.261 . S
O179 Sm153 2.450 . S
O179 C163 1.242 . S
O180 Sm152 2.386 . S
O180 Sm153 2.681 . S
O180 C170 1.271 1_556 S
O181 Sm153 2.464 . S
O181 C170 1.251 1_556 S
O182 Sm153 2.396 . S
O182 C171 1.252 . S
O183 Sm152 2.408 . S
O183 C171 1.272 . S
H184 C156 0.930 . S
H185 C157 0.929 . S
H186 C159 0.930 . S
H187 C160 0.929 . S
H188 C165 0.930 . S
H189 C166 0.929 . S
H190 C168 0.930 . S
H191 C169 0.929 . S
Sm192 C194 2.846 1_556 S
Sm192 O212 2.543 1_556 S
Sm192 O213 2.450 1_556 S
Sm192 O214 2.681 1_655 S
Sm192 O215 2.464 . S
Sm192 O216 2.396 . S
Sm192 O220 2.386 . S
Sm192 O223 2.408 1_655 S
Sm193 C203 2.846 . S
Sm193 O214 2.386 . S
Sm193 O217 2.408 1_455 S
Sm193 O218 2.543 . S
Sm193 O219 2.450 . S
Sm193 O220 2.681 1_455 S
Sm193 O221 2.464 . S
Sm193 O222 2.396 . S
C194 Sm192 2.846 1_554 S
C194 C195 1.506 . S
C194 O212 1.261 . S
C194 O213 1.242 . S
C195 C194 1.506 . S
C195 C196 1.358 . S
C195 C200 1.382 . S
C196 C195 1.358 . S
C196 C197 1.385 . S
C196 H224 0.930 . S
C197 C196 1.385 . S
C197 C198 1.395 . S
C197 H225 0.929 . S
C198 C197 1.395 . S
C198 C199 1.335 . S
C199 C198 1.335 . S
C199 C200 1.398 . S
C199 H226 0.930 . S
C200 C195 1.382 . S
C200 C199 1.398 . S
C200 H227 0.929 . S
C201 O214 1.269 1_655 S
C201 O215 1.254 . S
C202 O216 1.252 . S
C202 O217 1.272 . S
C203 Sm193 2.846 . S
C203 C204 1.506 . S
C203 O218 1.261 . S
C203 O219 1.242 . S
C204 C203 1.506 . S
C204 C205 1.358 . S
C204 C209 1.382 . S
C205 C204 1.358 . S
C205 C206 1.385 . S
C205 H228 0.930 . S
C206 C205 1.385 . S
C206 C207 1.395 . S
C206 H229 0.929 . S
C207 C206 1.395 . S
C207 C208 1.335 . S
C208 C207 1.335 . S
C208 C209 1.398 . S
C208 H230 0.930 . S
C209 C204 1.382 . S
C209 C208 1.398 . S
C209 H231 0.929 . S
C210 O220 1.268 1_455 S
C210 O221 1.256 . S
C211 O222 1.252 . S
C211 O223 1.272 . S
O212 Sm192 2.543 1_554 S
O212 C194 1.261 . S
O213 Sm192 2.450 1_554 S
O213 C194 1.242 . S
O214 Sm192 2.681 1_455 S
O214 Sm193 2.386 . S
O214 C201 1.269 1_455 S
O215 Sm192 2.464 . S
O215 C201 1.254 . S
O216 Sm192 2.396 . S
O216 C202 1.252 . S
O217 Sm193 2.408 1_655 S
O217 C202 1.272 . S
O218 Sm193 2.543 . S
O218 C203 1.261 . S
O219 Sm193 2.450 . S
O219 C203 1.242 . S
O220 Sm192 2.386 . S
O220 Sm193 2.681 1_655 S
O220 C210 1.268 1_655 S
O221 Sm193 2.464 . S
O221 C210 1.256 . S
O222 Sm193 2.396 . S
O222 C211 1.252 . S
O223 Sm192 2.408 1_455 S
O223 C211 1.272 . S
H224 C196 0.930 . S
H225 C197 0.929 . S
H226 C199 0.930 . S
H227 C200 0.929 . S
H228 C205 0.930 . S
H229 C206 0.929 . S
H230 C208 0.930 . S
H231 C209 0.929 . S
C61 C81 3.664 1_554 S
C121 C70 3.634 1_556 S
C161 C43 3.697 1_556 S
C201 C52 3.640 1_556 S
C90 C25 3.664 1_544 S
C34 C130 3.638 1_556 S
C7 C170 3.692 1_556 S
C16 C210 3.639 1_655 S
C87 C50 3.176 . S
C127 C59 2.941 . S
C167 C67 2.851 . S
C41 C207 3.006 . S
C14 C78 3.202 1_655 S
C118 C23 2.967 1_545 S
C158 C31 2.832 . S
C5 C198 3.044 . S
C49 C91 4.175 1_655 S
C58 C131 4.095 1_565 S
C171 C68 4.098 . S
C211 C40 4.177 . S
C13 C82 4.178 . S
C122 C22 4.094 . S
C162 C32 4.111 . S
C4 C202 4.175 . S
