# Generated by pormake.
# Topology pth, (4,4)-cn, num edge types: 1
# Building blocks:
#     Node 0, Type 0, BuildingBlock: TATPOV_clean_sbu_0, # of connection points: 4
#     Node 1, Type 0, BuildingBlock: TATPOV_clean_sbu_0, # of connection points: 4
#     Node 2, Type 0, BuildingBlock: TATPOV_clean_sbu_0, # of connection points: 4
#     Node 3, Type 1, BuildingBlock: MUDLON_clean_linker_0, # of connection points: 4
#     Node 4, Type 1, BuildingBlock: MUDLON_clean_linker_0, # of connection points: 4
#     Node 5, Type 1, BuildingBlock: MUDLON_clean_linker_0, # of connection points: 4
#     Edge 6, Type (0, 1), None
#     Edge 7, Type (0, 1), None
#     Edge 8, Type (0, 1), None
#     Edge 9, Type (0, 1), None
#     Edge 10, Type (0, 1), None
#     Edge 11, Type (0, 1), None
#     Edge 12, Type (0, 1), None
#     Edge 13, Type (0, 1), None
#     Edge 14, Type (0, 1), None
#     Edge 15, Type (0, 1), None
#     Edge 16, Type (0, 1), None
#     Edge 17, Type (0, 1), None
# Relax obj value: 0.063
# Max RMSD: 0.169
# Mean RMSD: 0.112
data_MOF--net-pth--node1-TATPOV_clean_sbu_0--node2-MUDLON_clean_linker_0--edge1-none
_symmetry_space_group_name_H-M    P1
_symmetry_Int_Tables_number       1
_symmetry_cell_setting            triclinic
loop_
_symmetry_equiv_pos_as_xyz
'x, y, z'
_cell_length_a     20.251874
_cell_length_b     20.175176
_cell_length_c     38.676561
_cell_angle_alpha  92.714144
_cell_angle_beta   92.389878
_cell_angle_gamma 120.34407
loop_
_atom_site_label
_atom_site_type_symbol
_atom_site_fract_x
_atom_site_fract_y
_atom_site_fract_z
_atom_type_partial_charge
Zn0 Zn 0.07923 0.93206 0.0169 0.0
Zn1 Zn -0.00405 -0.00481 0.03738 0.0
O2 O 0.00116 0.93084 0.07545 0.0
O3 O 0.07505 0.88421 0.06265 0.0
O4 O 0.95893 0.05751 0.06359 0.0
O5 O 0.16792 0.03489 0.00479 0.0
O6 O 0.09068 0.07816 0.01659 0.0
C7 C 0.03178 0.89139 0.0833 0.0
C8 C 0.93091 0.88538 0.97535 0.0
O9 O 0.92089 0.92889 0.99683 0.0
O10 O -0.01066 0.87782 0.97952 0.0
C11 C 0.90798 0.02753 0.08518 0.0
O12 O 0.8697 0.95227 0.08611 0.0
C13 C 0.15249 0.08843 0.00465 0.0
Zn14 Zn 0.15547 0.10465 0.34336 0.0
Zn15 Zn 0.02038 0.03771 0.37127 0.0
O16 O 0.10497 0.06468 0.40989 0.0
O17 O 0.21787 0.13531 0.3897 0.0
O18 O 0.93191 0.02204 0.39908 0.0
O19 O 0.13462 0.17637 0.31618 0.0
O20 O 0.02237 0.11434 0.33782 0.0
C21 C 0.17783 0.10306 0.41461 0.0
C22 C 0.04362 0.93807 0.32151 0.0
O23 O -0.00341 0.94177 0.34135 0.0
O24 O 0.11049 -0.00399 0.32011 0.0
C25 C 0.91575 -0.01052 0.42738 0.0
O26 O 0.9497 0.95179 0.4371 0.0
C27 C 0.06669 0.16305 0.31763 0.0
Zn28 Zn 0.08297 0.93827 0.72362 0.0
Zn29 Zn 0.01887 0.02049 0.70426 0.0
O30 O 0.08758 0.02069 0.66697 0.0
O31 O 0.13319 0.94521 0.67818 0.0
O32 O 0.95541 0.05561 0.67799 0.0
O33 O 0.98186 0.84685 0.73536 0.0
O34 O 0.93764 0.92378 0.72468 0.0
C35 C 0.12787 -0.00879 0.65868 0.0
C36 C 0.12575 0.08572 0.76643 0.0
O37 O 0.08217 0.09559 0.74519 0.0
O38 O 0.13453 0.02788 0.76167 0.0
C39 C -0.01397 0.10969 0.6579 0.0
O40 O 0.06123 0.15087 0.65861 0.0
C41 C 0.92808 0.86161 0.73609 0.0
H42 H 0.85362 0.72355 0.25432 0.0
N43 N 0.93775 0.7196 0.204 0.0
H44 H 0.89761 0.81536 0.3058 0.0
H45 H 0.08687 0.8226 0.22633 0.0
H46 H 0.13141 0.91262 0.27752 0.0
H47 H 0.05864 0.74368 0.1657 0.0
H48 H 0.09844 0.81739 0.11443 0.0
H49 H 0.87691 0.79436 0.17467 0.0
H50 H 0.9174 0.86973 0.12423 0.0
H51 H 0.82638 0.58679 0.17353 0.0
H52 H 0.04702 0.68928 0.23119 0.0
H53 H 0.81975 0.46219 0.16981 0.0
H54 H 0.03877 0.56541 0.22963 0.0
H55 H 0.85984 0.16975 0.26598 0.0
H56 H 0.92709 0.15328 0.31585 0.0
H57 H 0.12817 0.22993 0.25804 0.0
H58 H 0.0602 0.24572 0.20841 0.0
H59 H 0.00536 0.26074 0.15028 0.0
H60 H 0.00153 0.183 0.09957 0.0
H61 H 0.80547 -0.01612 0.1353 0.0
H62 H 0.80897 0.06319 0.18613 0.0
H63 H 0.79462 0.23691 0.20456 0.0
H64 H 0.80083 0.36102 0.20367 0.0
H65 H 0.04554 0.4731 0.19396 0.0
N66 N 0.91016 0.21057 0.20391 0.0
H67 H 0.03917 0.35019 0.19728 0.0
C68 C 0.96661 0.76682 0.23635 0.0
C69 C 0.91441 0.76394 0.25977 0.0
C70 C 0.93971 0.81605 0.28922 0.0
C71 C 0.01793 0.8718 0.29562 0.0
C72 C 0.07066 0.87081 0.27332 0.0
C73 C 0.04529 0.81934 0.24388 0.0
C74 C 0.96343 0.76221 0.17362 0.0
C75 C 0.02707 0.77038 0.1566 0.0
C76 C 0.05016 0.813 0.1274 0.0
C77 C 0.01113 0.84944 0.11518 0.0
C78 C 0.94895 0.84264 0.13289 0.0
C79 C 0.92529 0.79922 0.16161 0.0
C80 C 0.93621 0.64727 0.20299 0.0
C81 C 0.87287 0.58217 0.18571 0.0
C82 C 0.86908 0.51102 0.18383 0.0
C83 C 0.92856 0.50344 0.19958 0.0
C84 C -0.00762 0.56907 0.21671 0.0
C85 C -0.00334 0.64032 0.21807 0.0
C86 C 0.95419 0.20733 0.23336 0.0
C87 C 0.91873 0.1838 0.26434 0.0
C88 C 0.95754 0.1751 0.29286 0.0
C89 C 0.03304 0.19009 0.29095 0.0
C90 C 0.07028 0.21836 0.26052 0.0
C91 C 0.03114 0.22669 0.23191 0.0
C92 C 0.90708 0.16783 0.17225 0.0
C93 C 0.96062 0.20094 0.14716 0.0
C94 C 0.95823 0.15615 0.1179 0.0
C95 C 0.90311 0.0771 0.11329 0.0
C96 C 0.84853 0.0446 0.13796 0.0
C97 C 0.85054 0.08967 0.16706 0.0
C98 C 0.9159 0.284 0.20069 0.0
C99 C 0.84934 0.28847 0.20206 0.0
C100 C 0.85308 0.35939 0.20131 0.0
C101 C 0.92377 0.42737 0.19875 0.0
C102 C -0.0097 0.42233 0.19657 0.0
C103 C -0.01339 0.35159 0.19795 0.0
H104 H 0.95799 0.21484 0.55793 0.0
N105 N 0.81454 0.1091 0.53627 0.0
H106 H 0.03228 0.2173 0.6101 0.0
H107 H 0.75938 0.01131 0.58814 0.0
H108 H 0.83235 0.01365 0.64042 0.0
H109 H 0.80944 0.97018 0.53327 0.0
H110 H 0.85421 0.9201 0.48658 0.0
H111 H 0.84471 0.15857 0.47328 0.0
H112 H 0.88614 0.1072 0.42588 0.0
H113 H 0.79103 0.22669 0.53925 0.0
H114 H 0.67307 0.97906 0.5352 0.0
H115 H 0.66914 0.22321 0.54204 0.0
H116 H 0.55015 0.9745 0.53936 0.0
H117 H 0.25312 0.17348 0.58008 0.0
H118 H 0.1679 0.12198 0.62677 0.0
H119 H 0.19454 0.92235 0.62245 0.0
H120 H 0.27771 0.97317 0.57454 0.0
H121 H 0.1878 -0.00709 0.51574 0.0
H122 H 0.12508 -0.00787 0.46026 0.0
H123 H 0.31567 0.21765 0.44501 0.0
H124 H 0.37655 0.21995 0.5017 0.0
H125 H 0.45642 0.2032 0.58263 0.0
H126 H 0.57403 0.1976 0.58148 0.0
H127 H 0.45778 -0.00334 0.50831 0.0
N128 N 0.32318 0.11182 0.54675 0.0
H129 H 0.33933 0.00119 0.51092 0.0
C130 C 0.85343 0.11315 0.56909 0.0
C131 C 0.93014 0.1716 0.57621 0.0
C132 C 0.97233 0.1729 0.60603 0.0
C133 C 0.93835 0.11559 0.62944 0.0
C134 C 0.86028 0.05892 0.62305 0.0
C135 C 0.81831 0.05742 0.59307 0.0
C136 C 0.82577 0.06958 0.50706 0.0
C137 C 0.8253 -1e-05 0.5098 0.0
C138 C 0.85062 0.97114 0.483 0.0
C139 C 0.8747 0.01013 0.45268 0.0
C140 C 0.86828 0.07572 0.44887 0.0
C141 C 0.84469 0.10536 0.47593 0.0
C142 C 0.74097 0.1035 0.53726 0.0
C143 C 0.73849 0.17156 0.53918 0.0
C144 C 0.66878 0.1693 0.54108 0.0
C145 C 0.59966 0.09857 0.54141 0.0
C146 C 0.60213 0.02993 0.539 0.0
C147 C 0.67227 0.03236 0.53686 0.0
C148 C 0.273 0.07833 0.57426 0.0
C149 C 0.24023 0.11846 0.5891 0.0
C150 C 0.19114 0.08855 0.61563 0.0
C151 C 0.17457 0.01803 0.6284 0.0
C152 C 0.20654 0.97695 0.61325 0.0
C153 C 0.25451 0.00627 0.58601 0.0
C154 C 0.28655 0.1073 0.51317 0.0
C155 C 0.21584 0.04262 0.50076 0.0
C156 C 0.17993 0.0423 0.46906 0.0
C157 C 0.21522 0.10526 0.44858 0.0
C158 C 0.28707 0.16862 0.46039 0.0
C159 C 0.32189 0.16991 0.49261 0.0
C160 C 0.38983 0.10354 0.54659 0.0
C161 C 0.45642 0.1577 0.5666 0.0
C162 C 0.52362 0.15464 0.56564 0.0
C163 C 0.52593 0.09743 0.54431 0.0
C164 C 0.45811 0.04134 0.52509 0.0
C165 C 0.39049 0.04415 0.52632 0.0
H166 H 0.7297 0.84546 0.89761 0.0
N167 N 0.73928 0.75484 0.84834 0.0
H168 H 0.80843 0.89953 0.95279 0.0
H169 H 0.85921 0.73672 0.87086 0.0
H170 H 0.93703 0.78948 0.92519 0.0
H171 H 0.80622 0.68138 0.81612 0.0
H172 H 0.8872 0.72738 0.76732 0.0
H173 H 0.74912 0.85871 0.8066 0.0
H174 H 0.8253 0.90202 0.75662 0.0
H175 H 0.59572 0.71989 0.83533 0.0
H176 H 0.73337 0.62289 0.86715 0.0
H177 H 0.47957 0.60092 0.84659 0.0
H178 H 0.61858 0.50579 0.88059 0.0
H179 H 0.15272 0.26737 0.93497 0.0
H180 H 0.10985 0.18986 0.98456 0.0
H181 H 0.28718 0.13236 0.97364 0.0
H182 H 0.33246 0.21435 0.92519 0.0
H183 H 0.27069 0.1554 0.87143 0.0
H184 H 0.21731 0.07657 0.81731 0.0
H185 H 0.11463 0.21099 0.7886 0.0
H186 H 0.16942 0.29089 0.84361 0.0
H187 H 0.29771 0.42513 0.90725 0.0
H188 H 0.41806 0.53945 0.89576 0.0
H189 H 0.50408 0.3936 0.85881 0.0
N190 N 0.25743 0.27954 0.89318 0.0
H191 H 0.38579 0.28062 0.87243 0.0
C192 C 0.78908 0.78821 0.87975 0.0
C193 C 0.77528 0.83361 0.90357 0.0
C194 C 0.81976 0.86373 0.93516 0.0
C195 C 0.87891 0.84866 0.94349 0.0
C196 C 0.89192 0.80228 0.9197 0.0
C197 C 0.8476 0.7724 0.88823 0.0
C198 C 0.77474 0.7694 0.81592 0.0
C199 C 0.81022 0.72954 0.80324 0.0
C200 C 0.85549 0.75505 0.77492 0.0
C201 C 0.864 0.8193 0.75838 0.0
C202 C 0.82089 0.85284 0.76882 0.0
C203 C 0.77757 0.82862 0.79754 0.0
C204 C 0.67277 0.6805 0.85074 0.0
C205 C 0.60057 0.67254 0.84454 0.0
C206 C 0.5346 0.60504 0.85152 0.0
C207 C 0.53988 0.54448 0.86535 0.0
C208 C 0.61233 0.55118 0.86995 0.0
C209 C 0.67826 0.61842 0.8624 0.0
C210 C 0.24343 0.2441 0.92559 0.0
C211 C 0.18353 0.23969 0.94393 0.0
C212 C 0.15952 0.19559 0.97242 0.0
C213 C 0.19402 0.15331 0.98265 0.0
C214 C 0.25881 0.16345 0.96619 0.0
C215 C 0.28405 0.20943 0.93812 0.0
C216 C 0.22314 0.2288 0.86198 0.0
C217 C 0.23646 0.1681 0.85388 0.0
C218 C 0.20622 0.12314 0.82252 0.0
C219 C 0.16183 0.13756 0.79846 0.0
C220 C 0.14884 0.19853 0.80647 0.0
C221 C 0.17943 0.24374 0.83794 0.0
C222 C 0.33244 0.34474 0.89037 0.0
C223 C 0.34334 0.41833 0.89731 0.0
C224 C 0.41163 0.48328 0.89022 0.0
C225 C 0.47006 0.4756 0.87553 0.0
C226 C 0.4604 0.4017 0.87013 0.0
C227 C 0.39241 0.33679 0.87777 0.0
loop_
_geom_bond_atom_site_label_1
_geom_bond_atom_site_label_2
_geom_bond_distance
_geom_bond_site_symmetry_2
_ccdc_geom_bond_type
Zn0 O3 2.031 1_556 S
Zn0 O5 2.049 1_565 S
Zn0 O10 2.067 . S
Zn1 O2 1.962 . S
Zn1 O4 1.986 . S
Zn1 O6 1.996 . S
Zn1 O9 1.943 1_445 S
O2 Zn1 1.962 . S
O2 C7 1.254 1_545 S
O3 Zn0 2.031 1_554 S
O3 C7 1.269 . S
O4 Zn1 1.986 . S
O4 C11 1.262 . S
O5 Zn0 2.049 1_545 S
O5 C13 1.260 . S
O6 Zn1 1.996 . S
O6 C13 1.257 1_554 S
C7 O2 1.254 1_565 S
C7 O3 1.269 . S
C8 O9 1.249 1_556 S
C8 O10 1.270 1_655 S
O9 Zn1 1.943 1_665 S
O9 C8 1.249 1_554 S
O10 Zn0 2.067 . S
O10 C8 1.270 1_455 S
C11 O4 1.262 . S
C11 O12 1.232 1_455 S
O12 C11 1.232 1_655 S
C13 O5 1.260 . S
C13 O6 1.257 1_556 S
Zn14 O17 2.031 . S
Zn14 O19 2.049 . S
Zn14 O24 2.067 . S
Zn15 O16 1.973 . S
Zn15 O18 1.971 1_455 S
Zn15 O20 1.998 . S
Zn15 O23 1.946 1_445 S
O16 Zn15 1.973 . S
O16 C21 1.254 . S
O17 Zn14 2.031 . S
O17 C21 1.269 . S
O18 Zn15 1.971 1_655 S
O18 C25 1.262 . S
O19 Zn14 2.049 . S
O19 C27 1.260 . S
O20 Zn15 1.998 . S
O20 C27 1.257 . S
C21 O16 1.254 . S
C21 O17 1.269 . S
C22 O23 1.249 1_455 S
C22 O24 1.270 1_565 S
O23 Zn15 1.946 1_665 S
O23 C22 1.249 1_655 S
O24 Zn14 2.067 . S
O24 C22 1.270 1_545 S
C25 O18 1.262 . S
C25 O26 1.232 1_545 S
O26 C25 1.232 1_565 S
C27 O19 1.260 . S
C27 O20 1.257 . S
Zn28 O31 2.031 1_565 S
Zn28 O33 2.049 . S
Zn28 O38 2.067 1_565 S
Zn29 O30 1.962 1_655 S
Zn29 O32 1.986 . S
Zn29 O34 1.996 . S
Zn29 O37 1.943 1_665 S
O30 Zn29 1.962 1_455 S
O30 C35 1.254 . S
O31 Zn28 2.031 1_545 S
O31 C35 1.269 1_545 S
O32 Zn29 1.986 . S
O32 C39 1.262 1_565 S
O33 Zn28 2.049 . S
O33 C41 1.260 1_455 S
O34 Zn29 1.996 . S
O34 C41 1.257 . S
C35 O30 1.254 . S
C35 O31 1.269 1_565 S
C36 O37 1.249 . S
C36 O38 1.270 . S
O37 Zn29 1.943 1_445 S
O37 C36 1.249 . S
O38 Zn28 2.067 1_545 S
O38 C36 1.270 . S
C39 O32 1.262 1_545 S
C39 O40 1.232 . S
O40 C39 1.232 . S
C41 O33 1.260 1_655 S
C41 O34 1.257 . S
H42 C69 0.929 . S
N43 C68 1.433 1_655 S
N43 C74 1.435 1_655 S
N43 C80 1.423 . S
H44 C70 0.930 . S
H45 C73 0.931 . S
H46 C72 0.929 . S
H47 C75 0.930 . S
H48 C76 0.932 1_545 S
H49 C79 0.929 . S
H50 C78 0.931 . S
H51 C81 0.929 . S
H52 C85 0.932 . S
H53 C82 0.931 . S
H54 C84 0.929 . S
H55 C87 0.929 . S
H56 C88 0.930 . S
H57 C90 0.929 . S
H58 C91 0.931 . S
H59 C93 0.930 . S
H60 C94 0.932 . S
H61 C96 0.931 . S
H62 C97 0.929 . S
H63 C99 0.929 . S
H64 C100 0.931 . S
H65 C102 0.929 . S
N66 C86 1.433 1_655 S
N66 C92 1.435 1_655 S
N66 C98 1.423 . S
H67 C103 0.932 . S
C68 N43 1.433 1_455 S
C68 C69 1.363 1_455 S
C68 C73 1.370 . S
C69 H42 0.929 . S
C69 C68 1.363 1_655 S
C69 C70 1.385 . S
C70 H44 0.930 . S
C70 C69 1.385 . S
C70 C71 1.357 1_655 S
C71 C70 1.357 1_455 S
C71 C72 1.406 . S
C72 H46 0.929 . S
C72 C71 1.406 . S
C72 C73 1.391 . S
C73 H45 0.931 . S
C73 C68 1.370 . S
C73 C72 1.391 . S
C74 N43 1.435 1_455 S
C74 C75 1.358 . S
C74 C79 1.371 1_455 S
C75 H47 0.930 . S
C75 C74 1.358 . S
C75 C76 1.405 . S
C76 H48 0.932 1_565 S
C76 C75 1.405 . S
C76 C77 1.383 . S
C77 C76 1.383 . S
C77 C78 1.393 1_455 S
C78 H50 0.931 . S
C78 C77 1.393 1_655 S
C78 C79 1.382 . S
C79 H49 0.929 . S
C79 C74 1.371 1_655 S
C79 C78 1.382 . S
C80 N43 1.423 . S
C80 C81 1.362 . S
C80 C85 1.388 1_655 S
C81 H51 0.929 . S
C81 C80 1.362 . S
C81 C82 1.376 . S
C82 H53 0.931 . S
C82 C81 1.376 . S
C82 C83 1.396 . S
C83 C82 1.396 . S
C83 C84 1.348 1_655 S
C83 C101 1.472 . S
C84 H54 0.929 . S
C84 C83 1.348 1_455 S
C84 C85 1.443 . S
C85 H52 0.932 . S
C85 C80 1.388 1_455 S
C85 C84 1.443 . S
C86 N66 1.433 1_455 S
C86 C87 1.363 1_455 S
C86 C91 1.370 . S
C87 H55 0.929 . S
C87 C86 1.363 1_655 S
C87 C88 1.385 . S
C88 H56 0.930 . S
C88 C87 1.385 . S
C88 C89 1.357 1_655 S
C89 C88 1.357 1_455 S
C89 C90 1.406 . S
C90 H57 0.929 . S
C90 C89 1.406 . S
C90 C91 1.391 . S
C91 H58 0.931 . S
C91 C86 1.370 . S
C91 C90 1.391 . S
C92 N66 1.435 1_455 S
C92 C93 1.358 . S
C92 C97 1.371 1_455 S
C93 H59 0.930 . S
C93 C92 1.358 . S
C93 C94 1.405 . S
C94 H60 0.932 . S
C94 C93 1.405 . S
C94 C95 1.383 . S
C95 C94 1.383 . S
C95 C96 1.393 1_455 S
C96 H61 0.931 . S
C96 C95 1.393 1_655 S
C96 C97 1.382 . S
C97 H62 0.929 . S
C97 C92 1.371 1_655 S
C97 C96 1.382 . S
C98 N66 1.423 . S
C98 C99 1.362 . S
C98 C103 1.388 1_655 S
C99 H63 0.929 . S
C99 C98 1.362 . S
C99 C100 1.376 . S
C100 H64 0.931 . S
C100 C99 1.376 . S
C100 C101 1.396 . S
C101 C83 1.472 . S
C101 C100 1.396 . S
C101 C102 1.348 1_655 S
C102 H65 0.929 . S
C102 C101 1.348 1_455 S
C102 C103 1.443 . S
C103 H67 0.932 . S
C103 C98 1.388 1_455 S
C103 C102 1.443 . S
H104 C131 0.929 . S
N105 C130 1.433 . S
N105 C136 1.435 . S
N105 C142 1.423 . S
H106 C132 0.930 . S
H107 C135 0.931 1_565 S
H108 C134 0.929 . S
H109 C137 0.930 1_565 S
H110 C138 0.932 . S
H111 C141 0.929 . S
H112 C140 0.931 . S
H113 C143 0.929 . S
H114 C147 0.932 . S
H115 C144 0.931 . S
H116 C146 0.929 . S
H117 C149 0.929 . S
H118 C150 0.930 . S
H119 C152 0.929 . S
H120 C153 0.931 1_565 S
H121 C155 0.930 1_565 S
H122 C156 0.932 . S
H123 C158 0.931 . S
H124 C159 0.929 . S
H125 C161 0.929 . S
H126 C162 0.931 . S
H127 C164 0.929 . S
N128 C148 1.433 . S
N128 C154 1.435 . S
N128 C160 1.423 . S
H129 C165 0.932 . S
C130 N105 1.433 . S
C130 C131 1.363 . S
C130 C135 1.370 . S
C131 H104 0.929 . S
C131 C130 1.363 . S
C131 C132 1.385 . S
C132 H106 0.930 . S
C132 C131 1.385 . S
C132 C133 1.357 . S
C133 C132 1.357 . S
C133 C134 1.406 1_545 S
C134 H108 0.929 . S
C134 C133 1.406 1_565 S
C134 C135 1.391 1_565 S
C135 H107 0.931 1_545 S
C135 C130 1.370 . S
C135 C134 1.391 1_545 S
C136 N105 1.435 . S
C136 C137 1.358 . S
C136 C141 1.371 . S
C137 H109 0.930 1_545 S
C137 C136 1.358 . S
C137 C138 1.405 1_545 S
C138 H110 0.932 . S
C138 C137 1.405 1_565 S
C138 C139 1.383 1_565 S
C139 C138 1.383 1_545 S
C139 C140 1.393 . S
C140 H112 0.931 . S
C140 C139 1.393 . S
C140 C141 1.382 . S
C141 H111 0.929 . S
C141 C136 1.371 . S
C141 C140 1.382 . S
C142 N105 1.423 . S
C142 C143 1.362 . S
C142 C147 1.388 . S
C143 H113 0.929 . S
C143 C142 1.362 . S
C143 C144 1.376 . S
C144 H115 0.931 . S
C144 C143 1.376 . S
C144 C145 1.396 . S
C145 C144 1.396 . S
C145 C146 1.348 . S
C145 C163 1.472 . S
C146 H116 0.929 . S
C146 C145 1.348 . S
C146 C147 1.443 . S
C147 H114 0.932 . S
C147 C142 1.388 . S
C147 C146 1.443 . S
C148 N128 1.433 . S
C148 C149 1.363 . S
C148 C153 1.370 . S
C149 H117 0.929 . S
C149 C148 1.363 . S
C149 C150 1.385 . S
C150 H118 0.930 . S
C150 C149 1.385 . S
C150 C151 1.357 . S
C151 C150 1.357 . S
C151 C152 1.406 1_545 S
C152 H119 0.929 . S
C152 C151 1.406 1_565 S
C152 C153 1.391 1_565 S
C153 H120 0.931 1_545 S
C153 C148 1.370 . S
C153 C152 1.391 1_545 S
C154 N128 1.435 . S
C154 C155 1.358 . S
C154 C159 1.371 . S
C155 H121 0.930 1_545 S
C155 C154 1.358 . S
C155 C156 1.405 1_545 S
C156 H122 0.932 . S
C156 C155 1.405 1_565 S
C156 C157 1.383 1_565 S
C157 C156 1.383 1_545 S
C157 C158 1.393 . S
C158 H123 0.931 . S
C158 C157 1.393 . S
C158 C159 1.382 . S
C159 H124 0.929 . S
C159 C154 1.371 . S
C159 C158 1.382 . S
C160 N128 1.423 . S
C160 C161 1.362 . S
C160 C165 1.388 . S
C161 H125 0.929 . S
C161 C160 1.362 . S
C161 C162 1.376 . S
C162 H126 0.931 . S
C162 C161 1.376 . S
C162 C163 1.396 . S
C163 C145 1.472 . S
C163 C162 1.396 . S
C163 C164 1.348 . S
C164 H127 0.929 . S
C164 C163 1.348 . S
C164 C165 1.443 . S
C165 H129 0.932 . S
C165 C160 1.388 . S
C165 C164 1.443 . S
H166 C193 0.929 . S
N167 C192 1.433 . S
N167 C198 1.435 . S
N167 C204 1.423 . S
H168 C194 0.930 . S
H169 C197 0.931 . S
H170 C196 0.929 . S
H171 C199 0.930 . S
H172 C200 0.932 1_455 S
H173 C203 0.929 . S
H174 C202 0.931 . S
H175 C205 0.929 . S
H176 C209 0.932 . S
H177 C206 0.931 . S
H178 C208 0.929 . S
H179 C211 0.929 . S
H180 C212 0.930 . S
H181 C214 0.929 . S
H182 C215 0.931 . S
H183 C217 0.930 . S
H184 C218 0.932 . S
H185 C220 0.931 . S
H186 C221 0.929 . S
H187 C223 0.929 . S
H188 C224 0.931 . S
H189 C226 0.929 . S
N190 C210 1.433 . S
N190 C216 1.435 . S
N190 C222 1.423 . S
H191 C227 0.932 . S
C192 N167 1.433 . S
C192 C193 1.363 . S
C192 C197 1.370 . S
C193 H166 0.929 . S
C193 C192 1.363 . S
C193 C194 1.385 . S
C194 H168 0.930 . S
C194 C193 1.385 . S
C194 C195 1.357 . S
C195 C194 1.357 . S
C195 C196 1.406 . S
C196 H170 0.929 . S
C196 C195 1.406 . S
C196 C197 1.391 . S
C197 H169 0.931 . S
C197 C192 1.370 . S
C197 C196 1.391 . S
C198 N167 1.435 . S
C198 C199 1.358 . S
C198 C203 1.371 . S
C199 H171 0.930 . S
C199 C198 1.358 . S
C199 C200 1.405 . S
C200 H172 0.932 1_655 S
C200 C199 1.405 . S
C200 C201 1.383 . S
C201 C200 1.383 . S
C201 C202 1.393 . S
C202 H174 0.931 . S
C202 C201 1.393 . S
C202 C203 1.382 . S
C203 H173 0.929 . S
C203 C198 1.371 . S
C203 C202 1.382 . S
C204 N167 1.423 . S
C204 C205 1.362 . S
C204 C209 1.388 . S
C205 H175 0.929 . S
C205 C204 1.362 . S
C205 C206 1.376 . S
C206 H177 0.931 . S
C206 C205 1.376 . S
C206 C207 1.396 . S
C207 C206 1.396 . S
C207 C208 1.348 . S
C207 C225 1.472 . S
C208 H178 0.929 . S
C208 C207 1.348 . S
C208 C209 1.443 . S
C209 H176 0.932 . S
C209 C204 1.388 . S
C209 C208 1.443 . S
C210 N190 1.433 . S
C210 C211 1.363 . S
C210 C215 1.370 . S
C211 H179 0.929 . S
C211 C210 1.363 . S
C211 C212 1.385 . S
C212 H180 0.930 . S
C212 C211 1.385 . S
C212 C213 1.357 . S
C213 C212 1.357 . S
C213 C214 1.406 . S
C214 H181 0.929 . S
C214 C213 1.406 . S
C214 C215 1.391 . S
C215 H182 0.931 . S
C215 C210 1.370 . S
C215 C214 1.391 . S
C216 N190 1.435 . S
C216 C217 1.358 . S
C216 C221 1.371 . S
C217 H183 0.930 . S
C217 C216 1.358 . S
C217 C218 1.405 . S
C218 H184 0.932 . S
C218 C217 1.405 . S
C218 C219 1.383 . S
C219 C218 1.383 . S
C219 C220 1.393 . S
C220 H185 0.931 . S
C220 C219 1.393 . S
C220 C221 1.382 . S
C221 H186 0.929 . S
C221 C216 1.371 . S
C221 C220 1.382 . S
C222 N190 1.423 . S
C222 C223 1.362 . S
C222 C227 1.388 . S
C223 H187 0.929 . S
C223 C222 1.362 . S
C223 C224 1.376 . S
C224 H188 0.931 . S
C224 C223 1.376 . S
C224 C225 1.396 . S
C225 C207 1.472 . S
C225 C224 1.396 . S
C225 C226 1.348 . S
C226 H189 0.929 . S
C226 C225 1.348 . S
C226 C227 1.443 . S
C227 H191 0.932 . S
C227 C222 1.388 . S
C227 C226 1.443 . S
C95 C11 1.593 . S
C25 C139 1.628 . S
C41 C201 1.593 . S
C7 C77 1.991 . S
C157 C21 1.946 . S
C36 C219 1.737 . S
C133 C39 1.565 . S
C8 C195 1.714 . S
C71 C22 1.673 . S
C151 C35 1.729 1_545 S
C213 C13 1.560 . S
C27 C89 1.890 . S
