# Generated by pormake.
# Topology sit, (3,6)-cn, num edge types: 1
# Building blocks:
#     Node 0, Type 0, BuildingBlock: QEWDON_clean_linker_0, # of connection points: 3
#     Node 1, Type 0, BuildingBlock: QEWDON_clean_linker_0, # of connection points: 3
#     Node 2, Type 0, BuildingBlock: QEWDON_clean_linker_0, # of connection points: 3
#     Node 3, Type 0, BuildingBlock: QEWDON_clean_linker_0, # of connection points: 3
#     Node 4, Type 1, BuildingBlock: MIDCAF_clean_sbu_0, # of connection points: 6
#     Node 5, Type 1, BuildingBlock: MIDCAF_clean_sbu_0, # of connection points: 6
#     Edge 6, Type (0, 1), BuildingBlock: AJUNOK_clean_linker_0, # of connection points: 2
#     Edge 7, Type (0, 1), BuildingBlock: AJUNOK_clean_linker_0, # of connection points: 2
#     Edge 8, Type (0, 1), BuildingBlock: AJUNOK_clean_linker_0, # of connection points: 2
#     Edge 9, Type (0, 1), BuildingBlock: AJUNOK_clean_linker_0, # of connection points: 2
#     Edge 10, Type (0, 1), BuildingBlock: AJUNOK_clean_linker_0, # of connection points: 2
#     Edge 11, Type (0, 1), BuildingBlock: AJUNOK_clean_linker_0, # of connection points: 2
#     Edge 12, Type (0, 1), BuildingBlock: AJUNOK_clean_linker_0, # of connection points: 2
#     Edge 13, Type (0, 1), BuildingBlock: AJUNOK_clean_linker_0, # of connection points: 2
#     Edge 14, Type (0, 1), BuildingBlock: AJUNOK_clean_linker_0, # of connection points: 2
#     Edge 15, Type (0, 1), BuildingBlock: AJUNOK_clean_linker_0, # of connection points: 2
#     Edge 16, Type (0, 1), BuildingBlock: AJUNOK_clean_linker_0, # of connection points: 2
#     Edge 17, Type (0, 1), BuildingBlock: AJUNOK_clean_linker_0, # of connection points: 2
# Relax obj value: 0.077
# Max RMSD: 0.186
# Mean RMSD: 0.145
data_MOF--net-sit--node1-MIDCAF_clean_sbu_0--node2-QEWDON_clean_linker_0--edge1-AJUNOK_clean_linker_0
_symmetry_space_group_name_H-M    P1
_symmetry_Int_Tables_number       1
_symmetry_cell_setting            triclinic
loop_
_symmetry_equiv_pos_as_xyz
'x, y, z'
_cell_length_a     16.589539
_cell_length_b     23.782597
_cell_length_c     29.632889
_cell_angle_alpha  88.956926
_cell_angle_beta   83.194184
_cell_angle_gamma 81.787179
loop_
_atom_site_label
_atom_site_type_symbol
_atom_site_fract_x
_atom_site_fract_y
_atom_site_fract_z
_atom_type_partial_charge
H0 H 0.17335 0.34612 0.01318 0.0
C1 C 0.11356 0.37183 0.01465 0.0
C2 C 0.10761 0.42934 1.00243 0.0
C3 C 0.04267 0.34655 0.02588 0.0
H4 H 0.02725 0.50614 0.99191 0.0
C5 C 0.03069 0.4621 1.00265 0.0
C6 C -0.04102 0.43668 0.01085 0.0
C7 C -0.03442 0.37883 0.02353 0.0
C8 C 0.04958 0.28491 0.035 0.0
H9 H 0.91182 0.35737 0.02801 0.0
C10 C 0.02754 0.26492 0.07888 0.0
C11 C 0.03574 0.20613 0.0881 0.0
C12 C 0.07998 0.24592 1.0 0.0
H13 H 0.09754 0.26068 0.96593 0.0
C14 C 0.0877 0.18759 0.00879 0.0
H15 H 0.00669 0.29532 0.10607 0.0
C16 C 0.06604 0.16769 0.05259 0.0
H17 H 0.07299 0.12231 0.05874 0.0
H18 H 0.11103 0.15771 0.98161 0.0
H19 H 0.07446 0.75371 0.08518 0.0
C20 C 0.02751 0.73799 0.06847 0.0
C21 C 0.05025 0.70468 0.02901 0.0
C22 C -0.056 0.75225 0.08537 0.0
H23 H 0.00685 0.65879 0.97683 0.0
C24 C -0.0103 0.68443 0.00731 0.0
C25 C 0.907 0.69906 0.02304 0.0
C26 C 0.88427 0.73277 0.06193 0.0
C27 C 0.91765 0.78872 0.12636 0.0
H28 H 0.81965 0.7459 0.07261 0.0
C29 C -0.04149 0.8348 0.13532 0.0
C30 C -0.06885 0.86946 0.17375 0.0
C31 C 0.84939 0.77796 0.15659 0.0
H32 H 0.81771 0.7422 0.15153 0.0
C33 C 0.82135 0.8128 0.19407 0.0
H34 H 0.01079 0.84415 0.1124 0.0
C35 C 0.8617 0.85822 0.20263 0.0
H36 H 0.84012 0.88347 0.23288 0.0
H37 H 0.76881 0.80402 0.21701 0.0
H38 H 0.65893 0.857 0.52613 0.0
C39 C 0.60198 0.88535 0.52452 0.0
C40 C 0.60393 0.94152 0.50965 0.0
C41 C 0.52719 0.86428 0.5334 0.0
H42 H 0.53298 1.02015 0.49244 0.0
C43 C 0.53059 0.97742 0.50544 0.0
C44 C 0.45518 0.95647 0.51297 0.0
C45 C 0.45418 0.89963 0.52724 0.0
C46 C 0.52631 0.8033 0.54302 0.0
H47 H 0.39748 0.88143 0.53063 0.0
C48 C 0.52388 0.78293 0.58777 0.0
C49 C 0.52309 0.72464 0.59697 0.0
C50 C 0.5282 0.76525 0.50719 0.0
H51 H 0.53015 0.78037 0.47242 0.0
C52 C 0.52759 0.70739 0.51607 0.0
H53 H 0.52291 0.81245 0.61536 0.0
C54 C 0.52492 0.68708 0.5607 0.0
H55 H 0.52296 0.64224 0.56691 0.0
H56 H 0.52874 0.67825 0.48829 0.0
H57 H 0.56094 0.26169 0.58188 0.0
C58 C 0.51523 0.25412 0.56037 0.0
C59 C 0.53924 0.22496 0.51881 0.0
C60 C 0.4319 0.27291 0.57469 0.0
H61 H 0.49511 0.1907 0.46067 0.0
C62 C 0.47831 0.21265 0.49288 0.0
C63 C 0.39531 0.22861 0.50785 0.0
C64 C 0.37252 0.25978 0.54804 0.0
C65 C 0.40572 0.3065 0.61712 0.0
H66 H 0.30813 0.27468 0.55801 0.0
C67 C 0.44946 0.34962 0.62922 0.0
C68 C 0.42081 0.38327 0.66802 0.0
C69 C 0.33436 0.29672 0.64512 0.0
H70 H 0.30038 0.26312 0.63747 0.0
C71 C 0.30615 0.32982 0.68358 0.0
H72 H 0.50468 0.35775 0.60823 0.0
C73 C 0.34883 0.37282 0.69498 0.0
H74 H 0.32679 0.39688 0.72578 0.0
H75 H 0.25137 0.32173 0.70491 0.0
Zn76 Zn 0.00021 0.20213 0.36546 0.0
Zn77 Zn 0.06569 0.98589 0.37823 0.0
Zn78 Zn 0.02155 0.09109 0.37427 0.0
C79 C 0.0673 1.00332 0.28844 0.0
C80 C 0.90385 1.00813 0.41965 0.0
O81 O 0.11799 0.12897 0.40307 0.0
O82 O 0.10462 0.2201 0.38405 0.0
C83 C -0.00109 0.15865 0.27966 0.0
O84 O 0.03283 1.05172 0.30537 0.0
O85 O 0.10091 0.96633 0.31391 0.0
O86 O -0.04298 0.96807 0.40352 0.0
O87 O 0.91726 1.06001 0.41481 0.0
O88 O -0.01654 0.20528 0.30071 0.0
O89 O 0.01849 0.11196 0.30107 0.0
O90 O 0.9024 0.12069 0.41397 0.0
O91 O 0.90168 0.21377 0.41069 0.0
C92 C 0.86872 0.17141 0.42561 0.0
O93 O 0.13343 1.07054 0.41032 0.0
O94 O 0.14737 0.97752 0.42077 0.0
C95 C 0.14225 0.17812 0.4031 0.0
C96 C 0.16923 1.02485 0.42759 0.0
Zn97 Zn 0.51038 0.69943 0.87787 0.0
Zn98 Zn 0.5619 0.4819 0.87532 0.0
Zn99 Zn 0.52756 0.58633 0.87741 0.0
C100 C 0.56705 0.50638 0.78739 0.0
C101 C 0.39881 0.50625 0.91201 0.0
O102 O 0.62704 0.61514 0.90966 0.0
O103 O 0.61366 0.70885 0.90212 0.0
C104 C 0.51589 0.66523 0.78772 0.0
O105 O 0.5342 0.55374 0.80672 0.0
O106 O 0.60313 0.46785 0.81068 0.0
O107 O 0.44913 0.46651 0.89302 0.0
O108 O 0.41862 0.55644 0.91378 0.0
O109 O 0.50312 0.70911 0.81231 0.0
O110 O 0.52866 0.61551 0.80576 0.0
O111 O 0.41109 0.61586 0.91902 0.0
O112 O 0.4073 0.70948 0.91983 0.0
C113 C 0.37642 0.66553 0.93264 0.0
O114 O 0.63753 0.55616 0.91255 0.0
O115 O 0.63629 0.46385 0.92174 0.0
C116 C 0.65154 0.66314 0.91579 0.0
C117 C 0.66551 0.50813 0.92973 0.0
C118 C 0.07485 0.14553 0.15459 0.0
C119 C 0.01739 0.18553 0.13533 0.0
C120 C 0.06522 0.13284 0.20125 0.0
C121 C -0.0018 0.16013 0.22998 0.0
H122 H 0.13009 0.12649 0.13409 0.0
H123 H 0.11329 0.10472 0.21535 0.0
S124 S 0.82275 0.25897 0.195 0.0
N125 N 0.88477 0.24497 0.1475 0.0
N126 N 0.86806 0.22247 0.23522 0.0
C127 C -0.06274 0.19652 0.21055 0.0
C128 C -0.05349 0.20892 0.1632 0.0
C129 C -0.06447 0.96695 0.20301 0.0
C130 C -0.0221 0.91399 0.18737 0.0
C131 C -0.02931 1.00163 0.23069 0.0
C132 C 0.04896 0.98398 0.24403 0.0
H133 H 0.87207 0.97916 0.19732 0.0
H134 H -0.06756 1.03875 0.24597 0.0
S135 S 0.19311 0.857 0.20213 0.0
N136 N 0.10819 0.85156 0.17958 0.0
N137 N 0.17438 0.91689 0.23131 0.0
C138 C 0.09621 0.93558 0.22298 0.0
C139 C 0.06052 0.90035 0.19476 0.0
C140 C 0.45949 0.73272 0.67752 0.0
C141 C 0.51805 0.70394 0.64463 0.0
C142 C 0.4574 0.7178 0.72342 0.0
C143 C 0.51361 0.67341 0.73834 0.0
H144 H 0.41569 0.76778 0.66779 0.0
H145 H 0.41231 0.74215 0.74765 0.0
S146 S 0.67832 0.58394 0.66583 0.0
N147 N 0.63251 0.62787 0.62986 0.0
N148 N 0.62893 0.6003 0.71665 0.0
C149 C 0.57081 0.64291 0.70577 0.0
C150 C 0.5729 0.65806 0.65876 0.0
C151 C 0.54981 0.40784 0.69303 0.0
C152 C 0.46892 0.42553 0.68389 0.0
C153 C 0.58701 0.43942 0.72205 0.0
C154 C 0.54432 0.48949 0.7431 0.0
H155 H 0.58145 0.36665 0.68153 0.0
H156 H 0.64624 0.42134 0.73171 0.0
S157 S 0.34006 0.56145 0.71922 0.0
N158 N 0.35456 0.50214 0.68939 0.0
N159 N 0.42336 0.56103 0.74472 0.0
C160 C 0.4682 0.51162 0.72876 0.0
C161 C 0.43054 0.47951 0.69909 0.0
C162 C 0.21531 0.49373 0.9986 0.0
C163 C 0.1796 0.45145 0.97899 0.0
C164 C 0.28485 0.51367 0.97581 0.0
C165 C 0.31904 0.49258 0.93271 0.0
H166 H 0.19082 0.51014 0.03206 0.0
H167 H 0.31432 0.54344 0.99283 0.0
S168 S 0.24053 0.38703 0.865 0.0
N169 N 0.17839 0.39268 0.91303 0.0
N170 N 0.30772 0.43087 0.86987 0.0
C171 C 0.28099 0.45234 0.91209 0.0
C172 C 0.21137 0.43168 0.93533 0.0
C173 C 0.84703 0.70298 0.94996 0.0
C174 C 0.84456 0.68472 0.99546 0.0
C175 C 0.78524 0.69422 0.92376 0.0
C176 C 0.72019 0.66597 0.942 0.0
H177 H 0.89562 0.72588 0.93504 0.0
H178 H 0.78759 0.71043 0.88928 0.0
S179 S 0.68654 0.60897 0.05885 0.0
N180 N 0.77299 0.63627 0.05734 0.0
N181 N 0.6563 0.6197 0.00784 0.0
C182 C 0.71792 0.64626 0.987 0.0
C183 C 0.78038 0.65571 0.01386 0.0
C184 C 0.88248 0.4979 0.95572 0.0
C185 C 0.88084 0.46671 0.99683 0.0
C186 C 0.81067 0.5161 0.93604 0.0
C187 C 0.73523 0.5027 0.95624 0.0
H188 H -0.05999 0.50484 0.93664 0.0
H189 H 0.81513 0.53679 0.90312 0.0
S190 S 0.69399 0.43344 0.06784 0.0
N191 N 0.79435 0.43302 0.06083 0.0
N192 N 0.65989 0.46403 0.02193 0.0
C193 C 0.73127 0.47575 0.99876 0.0
C194 C 0.80401 0.45861 0.01955 0.0
C195 C 0.14989 0.70808 0.95998 0.0
C196 C 0.13551 0.69543 0.00659 0.0
C197 C 0.2283 0.69714 0.93638 0.0
C198 C 0.29503 0.67315 0.95848 0.0
H199 H 0.09994 0.72667 0.94155 0.0
H200 H 0.23687 0.70761 0.90053 0.0
S201 S 0.29191 0.63469 0.0802 0.0
N202 N 0.19521 0.65866 0.07417 0.0
N203 N 0.34418 0.63969 0.02955 0.0
C204 C 0.28262 0.66146 0.00513 0.0
C205 C 0.20232 0.67231 0.02932 0.0
C206 C 0.71857 1.00028 0.50669 0.0
C207 C 0.68129 0.95819 0.48787 0.0
C208 C 0.79091 1.01707 0.48439 0.0
C209 C 0.82589 0.99337 0.44219 0.0
H210 H 0.69205 1.01984 0.53879 0.0
H211 H 0.81971 1.0485 0.50019 0.0
S212 S 0.74809 0.88403 0.37809 0.0
N213 N 0.68277 0.89433 0.42472 0.0
N214 N 0.81684 0.92691 0.38221 0.0
C215 C 0.7882 0.95179 0.42305 0.0
C216 C 0.71597 0.93417 0.44596 0.0
C217 C 0.33436 0.22774 0.43473 0.0
C218 C 0.33218 0.21318 0.48104 0.0
C219 C 0.27318 0.21537 0.40925 0.0
C220 C 0.20918 0.18703 0.42912 0.0
H221 H 0.38256 0.25003 0.41844 0.0
H222 H 0.27564 0.22827 0.37392 0.0
S223 S 0.17548 0.14037 0.54902 0.0
N224 N 0.26117 0.1688 0.54558 0.0
N225 N 0.14573 0.14597 0.49767 0.0
C226 C 0.20679 0.17169 0.47515 0.0
C227 C 0.26851 0.18467 0.50115 0.0
C228 C 0.38514 1.016 0.45443 0.0
C229 C 0.38033 0.98952 0.49754 0.0
C230 C 0.3144 1.034 0.43349 0.0
C231 C 0.23714 1.02548 0.45483 0.0
H232 H 0.44402 1.01847 0.43494 0.0
H233 H 0.32088 1.04978 0.3989 0.0
S234 S 0.18926 0.97064 0.57117 0.0
N235 N 0.29023 0.96635 0.56402 0.0
N236 N 0.15776 0.99719 0.52335 0.0
C237 C 0.23066 1.00434 0.49937 0.0
C238 C 0.30222 0.98723 0.52113 0.0
C239 C 0.6521 0.15741 0.47654 0.0
C240 C 0.62717 0.20868 0.50084 0.0
C241 C 0.73075 0.14513 0.45294 0.0
C242 C 0.78914 0.18196 0.45456 0.0
H243 H 0.6096 0.12727 0.47425 0.0
H244 H 0.74452 0.10779 0.43157 0.0
S245 S 0.75794 0.32005 0.51523 0.0
N246 N 0.66854 0.29663 0.52485 0.0
N247 N 0.81867 0.27056 0.48429 0.0
C248 C 0.76675 0.23196 0.48054 0.0
C249 C 0.6856 0.24571 0.50312 0.0
loop_
_geom_bond_atom_site_label_1
_geom_bond_atom_site_label_2
_geom_bond_distance
_geom_bond_site_symmetry_2
_ccdc_geom_bond_type
H0 C1 0.949 . S
C1 H0 0.949 . S
C1 C2 1.395 1_554 S
C1 C3 1.391 . S
C2 C1 1.395 1_556 S
C2 C5 1.390 . S
C3 C1 1.391 . S
C3 C7 1.387 . S
C3 C8 1.491 . S
H4 C5 0.950 . S
C5 C2 1.390 . S
C5 H4 0.950 . S
C5 C6 1.378 . S
C6 C5 1.378 . S
C6 C7 1.409 1_556 S
C7 C3 1.387 . S
C7 C6 1.409 1_554 S
C7 H9 0.951 . S
C8 C3 1.491 . S
C8 C10 1.382 . S
C8 C12 1.404 . S
H9 C7 0.951 . S
C10 C8 1.382 . S
C10 C11 1.390 . S
C10 H15 0.949 . S
C11 C10 1.390 . S
C11 C16 1.399 . S
C12 C8 1.404 . S
C12 H13 0.950 . S
C12 C14 1.375 . S
H13 C12 0.950 . S
C14 C12 1.375 . S
C14 C16 1.382 . S
C14 H18 0.950 . S
H15 C10 0.949 . S
C16 C11 1.399 . S
C16 C14 1.382 . S
C16 H17 0.952 . S
H17 C16 0.952 . S
H18 C14 0.950 . S
H19 C20 0.949 . S
C20 H19 0.949 . S
C20 C21 1.395 1_554 S
C20 C22 1.391 1_455 S
C21 C20 1.395 1_556 S
C21 C24 1.390 . S
C22 C20 1.391 1_655 S
C22 C26 1.387 . S
C22 C27 1.491 . S
H23 C24 0.950 . S
C24 C21 1.390 . S
C24 H23 0.950 . S
C24 C25 1.378 1_455 S
C25 C24 1.378 1_655 S
C25 C26 1.409 1_556 S
C26 C22 1.387 . S
C26 C25 1.409 1_554 S
C26 H28 0.951 . S
C27 C22 1.491 . S
C27 C29 1.382 . S
C27 C31 1.404 . S
H28 C26 0.951 . S
C29 C27 1.382 . S
C29 C30 1.390 . S
C29 H34 0.949 1_655 S
C30 C29 1.390 . S
C30 C35 1.399 . S
C31 C27 1.404 . S
C31 H32 0.950 . S
C31 C33 1.375 . S
H32 C31 0.950 . S
C33 C31 1.375 . S
C33 C35 1.382 . S
C33 H37 0.950 . S
H34 C29 0.949 1_455 S
C35 C30 1.399 . S
C35 C33 1.382 . S
C35 H36 0.952 . S
H36 C35 0.952 . S
H37 C33 0.950 . S
H38 C39 0.949 . S
C39 H38 0.949 . S
C39 C40 1.395 . S
C39 C41 1.391 . S
C40 C39 1.395 . S
C40 C43 1.390 . S
C41 C39 1.391 . S
C41 C45 1.387 . S
C41 C46 1.491 . S
H42 C43 0.950 . S
C43 C40 1.390 . S
C43 H42 0.950 . S
C43 C44 1.378 . S
C44 C43 1.378 . S
C44 C45 1.409 . S
C45 C41 1.387 . S
C45 C44 1.409 . S
C45 H47 0.951 . S
C46 C41 1.491 . S
C46 C48 1.382 . S
C46 C50 1.404 . S
H47 C45 0.951 . S
C48 C46 1.382 . S
C48 C49 1.390 . S
C48 H53 0.949 . S
C49 C48 1.390 . S
C49 C54 1.399 . S
C50 C46 1.404 . S
C50 H51 0.950 . S
C50 C52 1.375 . S
H51 C50 0.950 . S
C52 C50 1.375 . S
C52 C54 1.382 . S
C52 H56 0.950 . S
H53 C48 0.949 . S
C54 C49 1.399 . S
C54 C52 1.382 . S
C54 H55 0.952 . S
H55 C54 0.952 . S
H56 C52 0.950 . S
H57 C58 0.949 . S
C58 H57 0.949 . S
C58 C59 1.395 . S
C58 C60 1.391 . S
C59 C58 1.395 . S
C59 C62 1.390 . S
C60 C58 1.391 . S
C60 C64 1.387 . S
C60 C65 1.491 . S
H61 C62 0.950 . S
C62 C59 1.390 . S
C62 H61 0.950 . S
C62 C63 1.378 . S
C63 C62 1.378 . S
C63 C64 1.409 . S
C64 C60 1.387 . S
C64 C63 1.409 . S
C64 H66 0.951 . S
C65 C60 1.491 . S
C65 C67 1.382 . S
C65 C69 1.404 . S
H66 C64 0.951 . S
C67 C65 1.382 . S
C67 C68 1.390 . S
C67 H72 0.949 . S
C68 C67 1.390 . S
C68 C73 1.399 . S
C69 C65 1.404 . S
C69 H70 0.950 . S
C69 C71 1.375 . S
H70 C69 0.950 . S
C71 C69 1.375 . S
C71 C73 1.382 . S
C71 H75 0.950 . S
H72 C67 0.949 . S
C73 C68 1.399 . S
C73 C71 1.382 . S
C73 H74 0.952 . S
H74 C73 0.952 . S
H75 C71 0.950 . S
Zn76 O82 1.920 . S
Zn76 O88 1.898 . S
Zn76 O91 1.905 1_455 S
Zn77 O85 1.905 . S
Zn77 O86 1.898 . S
Zn77 O94 1.920 . S
Zn78 O81 2.080 . S
Zn78 O84 2.114 1_545 S
Zn78 O87 2.120 1_545 S
Zn78 O89 2.120 . S
Zn78 O90 2.114 1_455 S
Zn78 O93 2.080 1_545 S
C79 O84 1.166 . S
C79 O85 1.182 . S
C80 O86 1.167 1_655 S
C80 O87 1.299 1_655 S
O81 Zn78 2.080 . S
O81 C95 1.305 . S
O82 Zn76 1.920 . S
O82 C95 1.234 . S
C83 O88 1.167 . S
C83 O89 1.299 . S
O84 Zn78 2.114 1_565 S
O84 C79 1.166 . S
O85 Zn77 1.905 . S
O85 C79 1.182 . S
O86 Zn77 1.898 . S
O86 C80 1.167 1_455 S
O87 Zn78 2.120 1_565 S
O87 C80 1.299 1_455 S
O88 Zn76 1.898 . S
O88 C83 1.167 . S
O89 Zn78 2.120 . S
O89 C83 1.299 . S
O90 Zn78 2.114 1_655 S
O90 C92 1.166 . S
O91 Zn76 1.905 1_655 S
O91 C92 1.182 . S
C92 O90 1.166 . S
C92 O91 1.182 . S
O93 Zn78 2.080 1_565 S
O93 C96 1.305 . S
O94 Zn77 1.920 . S
O94 C96 1.234 . S
C95 O81 1.305 . S
C95 O82 1.234 . S
C96 O93 1.305 . S
C96 O94 1.234 . S
Zn97 O103 1.920 . S
Zn97 O109 1.898 . S
Zn97 O112 1.905 . S
Zn98 O106 1.905 . S
Zn98 O107 1.898 . S
Zn98 O115 1.920 . S
Zn99 O102 2.080 . S
Zn99 O105 2.114 . S
Zn99 O108 2.120 . S
Zn99 O110 2.120 . S
Zn99 O111 2.114 . S
Zn99 O114 2.080 . S
C100 O105 1.166 . S
C100 O106 1.182 . S
C101 O107 1.167 . S
C101 O108 1.299 . S
O102 Zn99 2.080 . S
O102 C116 1.305 . S
O103 Zn97 1.920 . S
O103 C116 1.234 . S
C104 O109 1.167 . S
C104 O110 1.299 . S
O105 Zn99 2.114 . S
O105 C100 1.166 . S
O106 Zn98 1.905 . S
O106 C100 1.182 . S
O107 Zn98 1.898 . S
O107 C101 1.167 . S
O108 Zn99 2.120 . S
O108 C101 1.299 . S
O109 Zn97 1.898 . S
O109 C104 1.167 . S
O110 Zn99 2.120 . S
O110 C104 1.299 . S
O111 Zn99 2.114 . S
O111 C113 1.166 . S
O112 Zn97 1.905 . S
O112 C113 1.182 . S
C113 O111 1.166 . S
C113 O112 1.182 . S
O114 Zn99 2.080 . S
O114 C117 1.305 . S
O115 Zn98 1.920 . S
O115 C117 1.234 . S
C116 O102 1.305 . S
C116 O103 1.234 . S
C117 O114 1.305 . S
C117 O115 1.234 . S
C118 C119 1.369 . S
C118 C120 1.419 . S
C118 H122 0.930 . S
C119 C118 1.369 . S
C119 C128 1.429 . S
C120 C118 1.419 . S
C120 C121 1.363 . S
C120 H123 0.929 . S
C121 C120 1.363 . S
C121 C127 1.428 . S
H122 C118 0.930 . S
H123 C120 0.929 . S
S124 N125 1.613 . S
S124 N126 1.610 . S
N125 S124 1.613 . S
N125 C128 1.350 . S
N126 S124 1.610 . S
N126 C127 1.351 . S
C127 C121 1.428 . S
C127 N126 1.351 . S
C127 C128 1.434 . S
C128 C119 1.429 . S
C128 N125 1.350 . S
C128 C127 1.434 . S
C129 C130 1.369 1_655 S
C129 C131 1.419 . S
C129 H133 0.930 . S
C130 C129 1.369 1_455 S
C130 C139 1.429 . S
C131 C129 1.419 . S
C131 C132 1.363 1_655 S
C131 H134 0.929 . S
C132 C131 1.363 1_455 S
C132 C138 1.428 . S
H133 C129 0.930 . S
H134 C131 0.929 . S
S135 N136 1.613 . S
S135 N137 1.610 . S
N136 S135 1.613 . S
N136 C139 1.350 . S
N137 S135 1.610 . S
N137 C138 1.351 . S
C138 C132 1.428 . S
C138 N137 1.351 . S
C138 C139 1.434 . S
C139 C130 1.429 . S
C139 N136 1.350 . S
C139 C138 1.434 . S
C140 C141 1.369 . S
C140 C142 1.419 . S
C140 H144 0.930 . S
C141 C140 1.369 . S
C141 C150 1.429 . S
C142 C140 1.419 . S
C142 C143 1.363 . S
C142 H145 0.929 . S
C143 C142 1.363 . S
C143 C149 1.428 . S
H144 C140 0.930 . S
H145 C142 0.929 . S
S146 N147 1.613 . S
S146 N148 1.610 . S
N147 S146 1.613 . S
N147 C150 1.350 . S
N148 S146 1.610 . S
N148 C149 1.351 . S
C149 C143 1.428 . S
C149 N148 1.351 . S
C149 C150 1.434 . S
C150 C141 1.429 . S
C150 N147 1.350 . S
C150 C149 1.434 . S
C151 C152 1.369 . S
C151 C153 1.419 . S
C151 H155 0.930 . S
C152 C151 1.369 . S
C152 C161 1.429 . S
C153 C151 1.419 . S
C153 C154 1.363 . S
C153 H156 0.929 . S
C154 C153 1.363 . S
C154 C160 1.428 . S
H155 C151 0.930 . S
H156 C153 0.929 . S
S157 N158 1.613 . S
S157 N159 1.610 . S
N158 S157 1.613 . S
N158 C161 1.350 . S
N159 S157 1.610 . S
N159 C160 1.351 . S
C160 C154 1.428 . S
C160 N159 1.351 . S
C160 C161 1.434 . S
C161 C152 1.429 . S
C161 N158 1.350 . S
C161 C160 1.434 . S
C162 C163 1.369 . S
C162 C164 1.419 . S
C162 H166 0.930 . S
C163 C162 1.369 . S
C163 C172 1.429 . S
C164 C162 1.419 . S
C164 C165 1.363 . S
C164 H167 0.929 . S
C165 C164 1.363 . S
C165 C171 1.428 . S
H166 C162 0.930 . S
H167 C164 0.929 . S
S168 N169 1.613 . S
S168 N170 1.610 . S
N169 S168 1.613 . S
N169 C172 1.350 . S
N170 S168 1.610 . S
N170 C171 1.351 . S
C171 C165 1.428 . S
C171 N170 1.351 . S
C171 C172 1.434 . S
C172 C163 1.429 . S
C172 N169 1.350 . S
C172 C171 1.434 . S
C173 C174 1.369 . S
C173 C175 1.419 . S
C173 H177 0.930 . S
C174 C173 1.369 . S
C174 C183 1.429 1_556 S
C175 C173 1.419 . S
C175 C176 1.363 . S
C175 H178 0.929 . S
C176 C175 1.363 . S
C176 C182 1.428 . S
H177 C173 0.930 . S
H178 C175 0.929 . S
S179 N180 1.613 . S
S179 N181 1.610 . S
N180 S179 1.613 . S
N180 C183 1.350 . S
N181 S179 1.610 . S
N181 C182 1.351 1_554 S
C182 C176 1.428 . S
C182 N181 1.351 1_556 S
C182 C183 1.434 1_556 S
C183 C174 1.429 1_554 S
C183 N180 1.350 . S
C183 C182 1.434 1_554 S
C184 C185 1.369 1_455 S
C184 C186 1.419 1_455 S
C184 H188 0.930 . S
C185 C184 1.369 1_655 S
C185 C194 1.429 . S
C186 C184 1.419 1_655 S
C186 C187 1.363 . S
C186 H189 0.929 . S
C187 C186 1.363 . S
C187 C193 1.428 . S
H188 C184 0.930 . S
H189 C186 0.929 . S
S190 N191 1.613 . S
S190 N192 1.610 1_554 S
N191 S190 1.613 . S
N191 C194 1.350 1_554 S
N192 S190 1.610 1_556 S
N192 C193 1.351 . S
C193 C187 1.428 . S
C193 N192 1.351 . S
C193 C194 1.434 . S
C194 C185 1.429 . S
C194 N191 1.350 1_556 S
C194 C193 1.434 . S
C195 C196 1.369 . S
C195 C197 1.419 . S
C195 H199 0.930 . S
C196 C195 1.369 . S
C196 C205 1.429 . S
C197 C195 1.419 . S
C197 C198 1.363 . S
C197 H200 0.929 . S
C198 C197 1.363 . S
C198 C204 1.428 . S
H199 C195 0.930 . S
H200 C197 0.929 . S
S201 N202 1.613 . S
S201 N203 1.610 1_554 S
N202 S201 1.613 . S
N202 C205 1.350 1_554 S
N203 S201 1.610 1_556 S
N203 C204 1.351 . S
C204 C198 1.428 . S
C204 N203 1.351 . S
C204 C205 1.434 . S
C205 C196 1.429 . S
C205 N202 1.350 1_556 S
C205 C204 1.434 . S
C206 C207 1.369 . S
C206 C208 1.419 . S
C206 H210 0.930 . S
C207 C206 1.369 . S
C207 C216 1.429 . S
C208 C206 1.419 . S
C208 C209 1.363 . S
C208 H211 0.929 . S
C209 C208 1.363 . S
C209 C215 1.428 . S
H210 C206 0.930 . S
H211 C208 0.929 . S
S212 N213 1.613 . S
S212 N214 1.610 . S
N213 S212 1.613 . S
N213 C216 1.350 . S
N214 S212 1.610 . S
N214 C215 1.351 . S
C215 C209 1.428 . S
C215 N214 1.351 . S
C215 C216 1.434 . S
C216 C207 1.429 . S
C216 N213 1.350 . S
C216 C215 1.434 . S
C217 C218 1.369 . S
C217 C219 1.419 . S
C217 H221 0.930 . S
C218 C217 1.369 . S
C218 C227 1.429 . S
C219 C217 1.419 . S
C219 C220 1.363 . S
C219 H222 0.929 . S
C220 C219 1.363 . S
C220 C226 1.428 . S
H221 C217 0.930 . S
H222 C219 0.929 . S
S223 N224 1.613 . S
S223 N225 1.610 . S
N224 S223 1.613 . S
N224 C227 1.350 . S
N225 S223 1.610 . S
N225 C226 1.351 . S
C226 C220 1.428 . S
C226 N225 1.351 . S
C226 C227 1.434 . S
C227 C218 1.429 . S
C227 N224 1.350 . S
C227 C226 1.434 . S
C228 C229 1.369 . S
C228 C230 1.419 . S
C228 H232 0.930 . S
C229 C228 1.369 . S
C229 C238 1.429 . S
C230 C228 1.419 . S
C230 C231 1.363 . S
C230 H233 0.929 . S
C231 C230 1.363 . S
C231 C237 1.428 . S
H232 C228 0.930 . S
H233 C230 0.929 . S
S234 N235 1.613 . S
S234 N236 1.610 . S
N235 S234 1.613 . S
N235 C238 1.350 . S
N236 S234 1.610 . S
N236 C237 1.351 . S
C237 C231 1.428 . S
C237 N236 1.351 . S
C237 C238 1.434 . S
C238 C229 1.429 . S
C238 N235 1.350 . S
C238 C237 1.434 . S
C239 C240 1.369 . S
C239 C241 1.419 . S
C239 H243 0.930 . S
C240 C239 1.369 . S
C240 C249 1.429 . S
C241 C239 1.419 . S
C241 C242 1.363 . S
C241 H244 0.929 . S
C242 C241 1.363 . S
C242 C248 1.428 . S
H243 C239 0.930 . S
H244 C241 0.929 . S
S245 N246 1.613 . S
S245 N247 1.610 . S
N246 S245 1.613 . S
N246 C249 1.350 . S
N247 S245 1.610 . S
N247 C248 1.351 . S
C248 C242 1.428 . S
C248 N247 1.351 . S
C248 C249 1.434 . S
C249 C240 1.429 . S
C249 N246 1.350 . S
C249 C248 1.434 . S
C121 C83 1.454 . S
C119 C11 1.442 . S
C132 C79 1.424 . S
C130 C30 1.397 1_455 S
C143 C104 1.464 . S
C141 C49 1.435 . S
C152 C68 1.407 . S
C154 C100 1.433 . S
C163 C2 1.371 . S
C165 C101 1.188 . S
C176 C116 1.205 . S
C174 C25 1.360 . S
C185 C6 1.740 1_655 S
C187 C117 1.582 . S
C198 C113 1.612 . S
C196 C21 1.743 . S
C209 C80 1.187 . S
C207 C40 1.368 . S
C218 C63 1.361 . S
C220 C95 1.205 . S
C231 C96 1.585 . S
C229 C44 1.740 . S
C242 C92 1.605 . S
C240 C59 1.746 . S
