# Generated by pormake.
# Topology zzz, (3,6)-cn, num edge types: 1
# Building blocks:
#     Node 0, Type 0, BuildingBlock: ESEHIV_clean_linker_0, # of connection points: 3
#     Node 1, Type 0, BuildingBlock: ESEHIV_clean_linker_0, # of connection points: 3
#     Node 2, Type 0, BuildingBlock: ESEHIV_clean_linker_0, # of connection points: 3
#     Node 3, Type 0, BuildingBlock: ESEHIV_clean_linker_0, # of connection points: 3
#     Node 4, Type 0, BuildingBlock: ESEHIV_clean_linker_0, # of connection points: 3
#     Node 5, Type 0, BuildingBlock: ESEHIV_clean_linker_0, # of connection points: 3
#     Node 6, Type 0, BuildingBlock: ESEHIV_clean_linker_0, # of connection points: 3
#     Node 7, Type 0, BuildingBlock: ESEHIV_clean_linker_0, # of connection points: 3
#     Node 8, Type 1, BuildingBlock: BETDIP_clean_sbu_0, # of connection points: 6
#     Node 9, Type 1, BuildingBlock: BETDIP_clean_sbu_0, # of connection points: 6
#     Node 10, Type 1, BuildingBlock: BETDIP_clean_sbu_0, # of connection points: 6
#     Node 11, Type 1, BuildingBlock: BETDIP_clean_sbu_0, # of connection points: 6
#     Edge 12, Type (0, 1), None
#     Edge 13, Type (0, 1), None
#     Edge 14, Type (0, 1), None
#     Edge 15, Type (0, 1), None
#     Edge 16, Type (0, 1), None
#     Edge 17, Type (0, 1), None
#     Edge 18, Type (0, 1), None
#     Edge 19, Type (0, 1), None
#     Edge 20, Type (0, 1), None
#     Edge 21, Type (0, 1), None
#     Edge 22, Type (0, 1), None
#     Edge 23, Type (0, 1), None
#     Edge 24, Type (0, 1), None
#     Edge 25, Type (0, 1), None
#     Edge 26, Type (0, 1), None
#     Edge 27, Type (0, 1), None
#     Edge 28, Type (0, 1), None
#     Edge 29, Type (0, 1), None
#     Edge 30, Type (0, 1), None
#     Edge 31, Type (0, 1), None
#     Edge 32, Type (0, 1), None
#     Edge 33, Type (0, 1), None
#     Edge 34, Type (0, 1), None
#     Edge 35, Type (0, 1), None
# Relax obj value: 1.060
# Max RMSD: 0.304
# Mean RMSD: 0.236
data_MOF--net-zzz--node1-BETDIP_clean_sbu_0--node2-ESEHIV_clean_linker_0--edge1-none
_symmetry_space_group_name_H-M    P1
_symmetry_Int_Tables_number       1
_symmetry_cell_setting            triclinic
loop_
_symmetry_equiv_pos_as_xyz
'x, y, z'
_cell_length_a     20.032563
_cell_length_b     20.036995
_cell_length_c     8.289845
_cell_angle_alpha  88.189185
_cell_angle_beta   89.751043
_cell_angle_gamma 90.989479
loop_
_atom_site_label
_atom_site_type_symbol
_atom_site_fract_x
_atom_site_fract_y
_atom_site_fract_z
_atom_type_partial_charge
H0 H 0.81646 0.55483 0.34425 0.0
H1 H 0.61751 0.51534 0.48819 0.0
H2 H 0.76314 0.5566 0.84372 0.0
C3 C 0.77818 0.55382 0.43758 0.0
C4 C 0.79827 0.55129 0.59649 0.0
C5 C 0.71625 0.52476 0.40483 0.0
C6 C 0.66643 0.52545 0.52288 0.0
C7 C 0.68153 0.53456 0.68478 0.0
C8 C 0.74875 0.55014 0.71996 0.0
H9 H 0.93163 0.82438 0.36336 0.0
H10 H 0.97037 0.62317 0.46237 0.0
H11 H 0.9645 0.75755 0.85254 0.0
C12 C 0.93646 0.7835 0.45154 0.0
C13 C 0.94903 0.79911 0.61048 0.0
C14 C 0.96577 0.72522 0.40193 0.0
C15 C 0.96376 0.67116 0.51093 0.0
C16 C 0.96853 0.68156 0.67809 0.0
C17 C 0.95924 0.74685 0.72754 0.0
H18 H 0.67255 0.92092 0.37373 0.0
H19 H 0.87009 0.97396 0.4925 0.0
H20 H 0.72802 0.93171 0.87173 0.0
C21 C 0.71103 0.92485 0.46508 0.0
C22 C 0.69152 0.9293 0.62522 0.0
C23 C 0.77086 0.95655 0.42059 0.0
C24 C 0.82174 0.9586 0.53402 0.0
C25 C 0.80797 0.95145 0.70047 0.0
C26 C 0.74159 0.93514 0.74584 0.0
H27 H 0.57041 0.68196 0.3719 0.0
H28 H 0.56653 0.73175 0.86963 0.0
H29 H 0.5077 0.87169 0.50295 0.0
C30 C 0.56486 0.71884 0.46416 0.0
C31 C 0.52843 0.77552 0.42599 0.0
C32 C 0.5639 0.69717 0.62412 0.0
C33 C 0.55848 0.74606 0.74467 0.0
C34 C 0.53668 0.81158 0.70389 0.0
C35 C 0.52312 0.82459 0.54111 0.0
H36 H 0.17609 0.44233 0.11641 0.0
H37 H 0.37593 0.47676 -0.02571 0.0
H38 H 0.22885 0.44374 0.61648 0.0
C39 C 0.21435 0.44297 0.02306 0.0
C40 C 0.19422 0.44786 0.86429 0.0
C41 C 0.27674 0.47083 0.05661 0.0
C42 C 0.32666 0.46883 0.93867 0.0
C43 C 0.31125 0.46115 0.77616 0.0
C44 C 0.24357 0.44838 0.74058 0.0
H45 H 0.05403 0.16896 0.06219 0.0
H46 H 0.01988 0.3746 -0.00537 0.0
H47 H 0.04998 0.25468 0.58312 0.0
C48 C 0.0527 0.21295 -0.01772 0.0
C49 C 0.04877 0.20454 0.81717 0.0
C50 C 0.02626 0.27108 0.04103 0.0
C51 C 0.02733 0.32781 0.9402 0.0
C52 C 0.02794 0.32218 0.77098 0.0
C53 C 0.04507 0.26052 0.7109 0.0
H54 H 0.32077 0.07946 0.08007 0.0
H55 H 0.11897 0.0434 -0.01657 0.0
H56 H 0.26033 0.04456 0.59389 0.0
C57 C 0.28137 0.07266 -0.00781 0.0
C58 C 0.29931 0.06046 0.83329 0.0
C59 C 0.22143 0.0439 0.04687 0.0
C60 C 0.16911 0.04375 0.93677 0.0
C61 C 0.18214 0.03345 0.77228 0.0
C62 C 0.24816 0.04656 0.71942 0.0
H63 H 0.42244 0.31119 0.08605 0.0
H64 H 0.42609 0.2613 0.58841 0.0
H65 H 0.48358 0.12081 -0.04446 0.0
C66 C 0.42791 0.27427 -0.00619 0.0
C67 C 0.4642 0.21753 0.03203 0.0
C68 C 0.429 0.29595 0.83388 0.0
C69 C 0.4341 0.24696 0.71337 0.0
C70 C 0.45526 0.18116 0.75423 0.0
C71 C 0.46904 0.16822 0.91705 0.0
Tb72 Tb 0.01934 0.97661 0.85052 0.0
Tb73 Tb 0.96884 0.01895 0.65674 0.0
C74 C 0.07023 0.93101 0.11064 0.0
C75 C 0.06594 0.86277 0.18168 0.0
C76 C 0.08757 0.84727 0.3382 0.0
C77 C 0.07511 0.78274 0.4032 0.0
C78 C 0.03045 0.74009 0.32046 0.0
C79 C 0.0277 0.74796 0.1541 0.0
C80 C 0.04708 0.80934 0.08413 0.0
C81 C 0.12736 0.00259 0.67233 0.0
C82 C 0.97174 0.86673 0.64592 0.0
C83 C 0.91903 0.0869 0.42281 0.0
C84 C 0.92228 0.15126 0.33535 0.0
C85 C 0.90091 0.15623 0.17547 0.0
C86 C 0.91895 0.21273 0.08198 0.0
C87 C 0.96683 0.25788 0.14344 0.0
C88 C 0.97359 0.26107 0.31004 0.0
C89 C 0.94849 0.20804 0.4073 0.0
C90 C 0.86059 0.9766 0.81329 0.0
C91 C 0.02949 0.13992 0.75549 0.0
O92 O 0.01724 0.96888 0.10804 0.0
O93 O 0.09752 0.92987 -0.02997 0.0
O94 O 0.07575 0.03651 0.67216 0.0
O95 O 0.10686 0.94351 0.7176 0.0
O96 O 0.97617 0.88177 0.79492 0.0
O97 O 0.97485 0.91863 0.54531 0.0
O98 O 0.96809 0.04549 0.40642 0.0
O99 O 0.90017 0.08909 0.57172 0.0
O100 O 0.91493 0.94642 0.80609 0.0
O101 O 0.87692 0.03834 0.78931 0.0
O102 O 0.00756 0.08817 0.83743 0.0
O103 O 0.00604 0.08956 0.85584 0.0
H104 H 0.11039 0.88509 0.4115 0.0
H105 H 0.08488 0.77368 0.53036 0.0
H106 H 0.00197 0.71105 0.08383 0.0
H107 H 0.04543 0.81583 -0.04447 0.0
H108 H 0.87543 0.11476 0.11994 0.0
H109 H 0.90921 0.21216 -0.04651 0.0
H110 H 0.00451 0.2998 0.36072 0.0
H111 H 0.9535 0.20806 0.53603 0.0
Tb112 Tb 0.51985 0.02107 0.86061 0.0
Tb113 Tb 0.47138 0.97105 0.59569 0.0
C114 C 0.58948 0.08186 0.06739 0.0
C115 C 0.65418 0.07139 0.14589 0.0
C116 C 0.66463 0.09017 0.30475 0.0
C117 C 0.72008 0.06606 0.38835 0.0
C118 C 0.75973 0.01676 0.31839 0.0
C119 C 0.75702 0.00946 0.15204 0.0
C120 C 0.70538 0.03911 0.0648 0.0
C121 C 0.46986 0.13252 0.62183 0.0
C122 C 0.62232 0.95036 0.65607 0.0
C123 C 0.40229 0.91029 0.38725 0.0
C124 C 0.33771 0.92058 0.30725 0.0
C125 C 0.32948 0.90725 0.14422 0.0
C126 C 0.27444 0.93317 0.06219 0.0
C127 C 0.23414 0.98054 0.13835 0.0
C128 C 0.23387 0.98097 0.30636 0.0
C129 C 0.28425 0.94778 0.39128 0.0
C130 C 0.52089 0.8598 0.83607 0.0
C131 C 0.36873 0.04065 0.80171 0.0
O132 O 0.53979 0.04067 0.10707 0.0
O133 O 0.59351 0.09241 0.912 0.0
O134 O 0.50227 0.07642 0.63986 0.0
O135 O 0.50216 0.07669 0.63803 0.0
O136 O 0.60652 0.96375 0.80419 0.0
O137 O 0.57867 0.96202 0.53772 0.0
O138 O 0.45201 0.95162 0.34869 0.0
O139 O 0.39797 0.89964 0.54257 0.0
O140 O 0.48849 0.9158 0.81675 0.0
O141 O 0.48855 0.91557 0.81882 0.0
O142 O 0.38437 0.02745 0.65328 0.0
O143 O 0.41275 0.02999 0.91972 0.0
H144 H 0.62768 0.11871 0.36742 0.0
H145 H 0.72291 0.07435 0.51676 0.0
H146 H 0.78873 0.97391 0.09519 0.0
H147 H 0.70183 0.03228 0.93696 0.0
H148 H 0.3676 0.88155 0.07833 0.0
H149 H 0.2724 0.92778 0.93274 0.0
H150 H 0.1999 0.01273 0.36889 0.0
H151 H 0.2852 0.94793 0.52109 0.0
Tb152 Tb 0.47344 0.51866 0.8668 0.0
Tb153 Tb 0.51997 0.47447 0.59253 0.0
C154 C 0.41527 0.58398 0.08305 0.0
C155 C 0.42518 0.64827 0.16082 0.0
C156 C 0.40306 0.65748 0.31862 0.0
C157 C 0.42264 0.71516 0.39804 0.0
C158 C 0.47046 0.75944 0.3252 0.0
C159 C 0.48182 0.75613 0.15988 0.0
C160 C 0.45716 0.7016 0.07687 0.0
C161 C 0.35971 0.47481 0.6386 0.0
C162 C 0.54496 0.62583 0.65718 0.0
C163 C 0.57808 0.40894 0.37637 0.0
C164 C 0.56779 0.34477 0.29795 0.0
C165 C 0.58975 0.33568 0.13994 0.0
C166 C 0.57 0.27812 0.0601 0.0
C167 C 0.52225 0.23369 0.13281 0.0
C168 C 0.51097 0.23693 0.29824 0.0
C169 C 0.53568 0.29141 0.38152 0.0
C170 C 0.63331 0.51927 0.82198 0.0
C171 C 0.44804 0.36733 0.80103 0.0
O172 O 0.45675 0.53537 0.11655 0.0
O173 O 0.40348 0.58961 0.92921 0.0
O174 O 0.41724 0.50596 0.65078 0.0
O175 O 0.41704 0.50594 0.64895 0.0
O176 O 0.53338 0.6069 0.80692 0.0
O177 O 0.53123 0.58369 0.53917 0.0
O178 O 0.537 0.45791 0.34281 0.0
O179 O 0.5896 0.40308 0.53035 0.0
O180 O 0.57624 0.48739 0.80865 0.0
O181 O 0.57638 0.48736 0.81066 0.0
O182 O 0.45954 0.38643 0.6514 0.0
O183 O 0.46208 0.40932 0.91921 0.0
H184 H 0.3748 0.61856 0.38349 0.0
H185 H 0.41196 0.71745 0.52605 0.0
H186 H 0.51814 0.78946 0.10259 0.0
H187 H 0.46726 0.6981 0.95014 0.0
H188 H 0.61811 0.37461 0.07531 0.0
H189 H 0.5806 0.27598 0.93204 0.0
H190 H 0.47477 0.20351 0.35561 0.0
H191 H 0.52559 0.29479 0.5083 0.0
Tb192 Tb 0.96987 0.47275 0.86863 0.0
Tb193 Tb 0.02408 0.53055 0.58831 0.0
C194 C 0.90873 0.41824 0.10755 0.0
C195 C 0.84093 0.42351 0.1714 0.0
C196 C 0.82311 0.39742 0.32421 0.0
C197 C 0.76117 0.4138 0.38959 0.0
C198 C 0.72362 0.46437 0.31095 0.0
C199 C 0.73339 0.47563 0.14611 0.0
C200 C 0.79197 0.45398 0.07569 0.0
C201 C -0.00115 0.3772 0.66875 0.0
C202 C 0.86726 0.53106 0.63302 0.0
C203 C 0.0846 0.58257 0.34532 0.0
C204 C 0.15267 0.57616 0.28339 0.0
C205 C 0.17136 0.60077 0.12983 0.0
C206 C 0.23319 0.58286 0.0663 0.0
C207 C 0.2697 0.53217 0.14767 0.0
C208 C 0.25932 0.52243 0.31278 0.0
C209 C 0.20096 0.54567 0.38125 0.0
C210 C -0.00342 0.627 0.78452 0.0
C211 C 0.12621 0.47115 0.82858 0.0
O212 O 0.95001 0.46965 0.12022 0.0
O213 O 0.90853 0.39571 -0.03748 0.0
O214 O 0.03079 0.43044 0.6843 0.0
O215 O 0.93923 0.39189 0.71137 0.0
O216 O 0.88461 0.52855 0.78518 0.0
O217 O 0.91498 0.52206 0.5228 0.0
O218 O 0.04348 0.53088 0.3367 0.0
O219 O 0.08424 0.60732 0.48794 0.0
O220 O 0.9638 0.57374 0.77212 0.0
O221 O 0.0561 0.6115 0.74318 0.0
O222 O 0.10948 0.47563 0.6759 0.0
O223 O 0.07821 0.47871 0.93865 0.0
H224 H 0.85825 0.36893 0.39623 0.0
H225 H 0.75204 0.40109 0.51593 0.0
H226 H 0.70374 0.51211 0.08236 0.0
H227 H 0.80196 0.46559 0.9507 0.0
H228 H 0.13687 0.62926 0.05589 0.0
H229 H 0.24287 0.59454 0.9397 0.0
H230 H 0.28843 0.48622 0.37897 0.0
H231 H 0.19071 0.53531 0.50665 0.0
loop_
_geom_bond_atom_site_label_1
_geom_bond_atom_site_label_2
_geom_bond_distance
_geom_bond_site_symmetry_2
_ccdc_geom_bond_type
H0 C3 0.931 . S
H1 C6 0.928 . S
H2 C8 0.930 . S
C3 H0 0.931 . S
C3 C4 1.413 . S
C3 C5 1.360 . S
C4 C3 1.413 . S
C4 C8 1.429 . S
C5 C3 1.360 . S
C5 C6 1.372 . S
C6 H1 0.928 . S
C6 C5 1.372 . S
C6 C7 1.404 . S
C7 C6 1.404 . S
C7 C8 1.391 . S
C8 H2 0.930 . S
C8 C4 1.429 . S
C8 C7 1.391 . S
H9 C12 0.931 . S
H10 C15 0.928 . S
H11 C17 0.930 . S
C12 H9 0.931 . S
C12 C13 1.413 . S
C12 C14 1.360 . S
C13 C12 1.413 . S
C13 C17 1.429 1_655 S
C14 C12 1.360 . S
C14 C15 1.372 . S
C15 H10 0.928 . S
C15 C14 1.372 . S
C15 C16 1.404 . S
C16 C15 1.404 . S
C16 C17 1.390 1_655 S
C17 H11 0.930 . S
C17 C13 1.429 1_455 S
C17 C16 1.390 1_455 S
H18 C21 0.931 . S
H19 C24 0.928 . S
H20 C26 0.930 . S
C21 H18 0.931 . S
C21 C22 1.414 . S
C21 C23 1.360 . S
C22 C21 1.414 . S
C22 C26 1.429 1_565 S
C23 C21 1.360 . S
C23 C24 1.372 . S
C24 H19 0.928 . S
C24 C23 1.372 . S
C24 C25 1.405 . S
C25 C24 1.405 . S
C25 C26 1.390 1_565 S
C26 H20 0.930 . S
C26 C22 1.429 1_545 S
C26 C25 1.390 1_545 S
H27 C30 0.931 . S
H28 C33 0.928 . S
H29 C35 0.930 . S
C30 H27 0.931 . S
C30 C31 1.413 . S
C30 C32 1.360 . S
C31 C30 1.413 . S
C31 C35 1.429 . S
C32 C30 1.360 . S
C32 C33 1.372 . S
C33 H28 0.928 . S
C33 C32 1.372 . S
C33 C34 1.404 . S
C34 C33 1.404 . S
C34 C35 1.391 . S
C35 H29 0.930 . S
C35 C31 1.429 . S
C35 C34 1.391 . S
H36 C39 0.931 . S
H37 C42 0.928 . S
H38 C44 0.930 . S
C39 H36 0.931 . S
C39 C40 1.413 . S
C39 C41 1.360 1_556 S
C40 C39 1.413 . S
C40 C44 1.429 . S
C41 C39 1.360 1_554 S
C41 C42 1.372 . S
C42 H37 0.928 . S
C42 C41 1.372 . S
C42 C43 1.404 . S
C43 C42 1.404 . S
C43 C44 1.391 1_554 S
C44 H38 0.930 . S
C44 C40 1.429 . S
C44 C43 1.391 1_556 S
H45 C48 0.931 . S
H46 C51 0.928 . S
H47 C53 0.930 . S
C48 H45 0.931 . S
C48 C49 1.413 . S
C48 C50 1.360 1_556 S
C49 C48 1.413 . S
C49 C53 1.429 1_655 S
C50 C48 1.360 1_554 S
C50 C51 1.372 . S
C51 H46 0.928 . S
C51 C50 1.372 . S
C51 C52 1.404 . S
C52 C51 1.404 . S
C52 C53 1.391 1_654 S
C53 H47 0.930 . S
C53 C49 1.429 1_455 S
C53 C52 1.391 1_456 S
H54 C57 0.931 . S
H55 C60 0.928 . S
H56 C62 0.930 . S
C57 H54 0.931 . S
C57 C58 1.413 . S
C57 C59 1.360 1_556 S
C58 C57 1.413 . S
C58 C62 1.429 1_565 S
C59 C57 1.360 1_554 S
C59 C60 1.372 . S
C60 H55 0.928 . S
C60 C59 1.372 . S
C60 C61 1.404 . S
C61 C60 1.404 . S
C61 C62 1.391 1_564 S
C62 H56 0.930 . S
C62 C58 1.429 1_545 S
C62 C61 1.391 1_546 S
H63 C66 0.931 . S
H64 C69 0.928 . S
H65 C71 0.930 . S
C66 H63 0.931 . S
C66 C67 1.413 1_556 S
C66 C68 1.360 . S
C67 C66 1.413 1_554 S
C67 C71 1.429 . S
C68 C66 1.360 . S
C68 C69 1.372 . S
C69 H64 0.928 . S
C69 C68 1.372 . S
C69 C70 1.404 1_556 S
C70 C69 1.404 1_554 S
C70 C71 1.391 . S
C71 H65 0.930 . S
C71 C67 1.429 . S
C71 C70 1.391 . S
Tb72 C74 2.809 1_556 S
Tb72 O92 2.484 1_556 S
Tb72 O93 2.440 1_556 S
Tb72 O94 2.658 1_565 S
Tb72 O95 2.409 . S
Tb72 O96 2.378 . S
Tb72 O100 2.325 1_455 S
Tb72 O103 2.341 1_565 S
Tb73 C83 2.809 . S
Tb73 O94 2.325 1_655 S
Tb73 O97 2.341 1_545 S
Tb73 O98 2.484 . S
Tb73 O99 2.440 . S
Tb73 O100 2.658 1_545 S
Tb73 O101 2.409 . S
Tb73 O102 2.378 . S
C74 Tb72 2.809 1_554 S
C74 C75 1.514 . S
C74 O92 1.248 . S
C74 O93 1.266 . S
C75 C74 1.514 . S
C75 C76 1.359 . S
C75 C80 1.348 . S
C76 C75 1.359 . S
C76 C77 1.380 . S
C76 H104 0.929 . S
C77 C76 1.380 . S
C77 C78 1.347 . S
C77 H105 0.931 . S
C78 C77 1.347 . S
C78 C79 1.369 . S
C79 C78 1.369 . S
C79 C80 1.408 . S
C79 H106 0.930 . S
C80 C75 1.348 . S
C80 C79 1.408 . S
C80 H107 0.930 . S
C81 O94 1.281 1_565 S
C81 O95 1.254 . S
C82 O96 1.236 1_655 S
C82 O97 1.266 . S
C83 Tb73 2.809 . S
C83 C84 1.514 . S
C83 O98 1.248 . S
C83 O99 1.266 . S
C84 C83 1.514 . S
C84 C85 1.359 . S
C84 C89 1.348 . S
C85 C84 1.359 . S
C85 C86 1.380 . S
C85 H108 0.929 . S
C86 C85 1.380 . S
C86 C87 1.347 . S
C86 H109 0.931 . S
C87 C86 1.347 . S
C87 C88 1.369 . S
C88 C87 1.369 . S
C88 C89 1.408 . S
C88 H110 0.930 . S
C89 C84 1.348 . S
C89 C88 1.408 . S
C89 H111 0.930 . S
C90 O100 1.281 1_545 S
C90 O101 1.254 . S
C91 O102 1.236 1_455 S
C91 O103 1.266 . S
O92 Tb72 2.484 1_554 S
O92 C74 1.248 . S
O93 Tb72 2.440 1_554 S
O93 C74 1.266 . S
O94 Tb72 2.658 1_545 S
O94 Tb73 2.325 1_455 S
O94 C81 1.281 1_545 S
O95 Tb72 2.409 . S
O95 C81 1.254 . S
O96 Tb72 2.378 . S
O96 C82 1.236 1_455 S
O97 Tb73 2.341 1_565 S
O97 C82 1.266 . S
O98 Tb73 2.484 . S
O98 C83 1.248 . S
O99 Tb73 2.440 . S
O99 C83 1.266 . S
O100 Tb72 2.325 1_655 S
O100 Tb73 2.658 1_565 S
O100 C90 1.281 1_565 S
O101 Tb73 2.409 . S
O101 C90 1.254 . S
O102 Tb73 2.378 . S
O102 C91 1.236 1_655 S
O103 Tb72 2.341 1_545 S
O103 C91 1.266 . S
H104 C76 0.929 . S
H105 C77 0.931 . S
H106 C79 0.930 . S
H107 C80 0.930 . S
H108 C85 0.929 . S
H109 C86 0.931 . S
H110 C88 0.930 . S
H111 C89 0.930 . S
Tb112 C114 2.809 1_556 S
Tb112 O132 2.484 1_556 S
Tb112 O133 2.440 1_556 S
Tb112 O134 2.658 . S
Tb112 O135 2.409 . S
Tb112 O136 2.378 . S
Tb112 O140 2.325 1_545 S
Tb112 O143 2.341 . S
Tb113 C123 2.809 . S
Tb113 O134 2.325 1_565 S
Tb113 O137 2.341 . S
Tb113 O138 2.484 . S
Tb113 O139 2.440 . S
Tb113 O140 2.658 . S
Tb113 O141 2.409 . S
Tb113 O142 2.378 . S
C114 Tb112 2.809 1_554 S
C114 C115 1.514 . S
C114 O132 1.248 . S
C114 O133 1.266 . S
C115 C114 1.514 . S
C115 C116 1.359 . S
C115 C120 1.348 . S
C116 C115 1.359 . S
C116 C117 1.380 . S
C116 H144 0.929 . S
C117 C116 1.380 . S
C117 C118 1.347 . S
C117 H145 0.931 . S
C118 C117 1.347 . S
C118 C119 1.369 . S
C119 C118 1.369 . S
C119 C120 1.408 . S
C119 H146 0.930 . S
C120 C115 1.348 . S
C120 C119 1.408 . S
C120 H147 0.930 . S
C121 O134 1.281 . S
C121 O135 1.254 . S
C122 O136 1.236 1_565 S
C122 O137 1.266 . S
C123 Tb113 2.809 . S
C123 C124 1.514 . S
C123 O138 1.248 . S
C123 O139 1.266 . S
C124 C123 1.514 . S
C124 C125 1.359 . S
C124 C129 1.348 . S
C125 C124 1.359 . S
C125 C126 1.380 . S
C125 H148 0.929 . S
C126 C125 1.380 . S
C126 C127 1.347 . S
C126 H149 0.931 . S
C127 C126 1.347 . S
C127 C128 1.369 . S
C128 C127 1.369 . S
C128 C129 1.408 . S
C128 H150 0.930 . S
C129 C124 1.348 . S
C129 C128 1.408 . S
C129 H151 0.930 . S
C130 O140 1.282 . S
C130 O141 1.256 . S
C131 O142 1.236 1_545 S
C131 O143 1.266 . S
O132 Tb112 2.484 1_554 S
O132 C114 1.248 . S
O133 Tb112 2.440 1_554 S
O133 C114 1.266 . S
O134 Tb112 2.658 . S
O134 Tb113 2.325 1_545 S
O134 C121 1.281 . S
O135 Tb112 2.409 . S
O135 C121 1.254 . S
O136 Tb112 2.378 . S
O136 C122 1.236 1_545 S
O137 Tb113 2.341 . S
O137 C122 1.266 . S
O138 Tb113 2.484 . S
O138 C123 1.248 . S
O139 Tb113 2.440 . S
O139 C123 1.266 . S
O140 Tb112 2.325 1_565 S
O140 Tb113 2.658 . S
O140 C130 1.282 . S
O141 Tb113 2.409 . S
O141 C130 1.256 . S
O142 Tb113 2.378 . S
O142 C131 1.236 1_565 S
O143 Tb112 2.341 . S
O143 C131 1.266 . S
H144 C116 0.929 . S
H145 C117 0.931 . S
H146 C119 0.930 . S
H147 C120 0.930 . S
H148 C125 0.929 . S
H149 C126 0.931 . S
H150 C128 0.930 . S
H151 C129 0.930 . S
Tb152 C154 2.809 1_556 S
Tb152 O172 2.484 1_556 S
Tb152 O173 2.440 1_556 S
Tb152 O174 2.658 . S
Tb152 O175 2.409 . S
Tb152 O176 2.378 . S
Tb152 O180 2.325 . S
Tb152 O183 2.341 . S
Tb153 C163 2.809 . S
Tb153 O174 2.325 . S
Tb153 O177 2.341 . S
Tb153 O178 2.484 . S
Tb153 O179 2.440 . S
Tb153 O180 2.658 . S
Tb153 O181 2.409 . S
Tb153 O182 2.378 . S
C154 Tb152 2.809 1_554 S
C154 C155 1.514 . S
C154 O172 1.248 . S
C154 O173 1.266 . S
C155 C154 1.514 . S
C155 C156 1.359 . S
C155 C160 1.348 . S
C156 C155 1.359 . S
C156 C157 1.380 . S
C156 H184 0.929 . S
C157 C156 1.380 . S
C157 C158 1.347 . S
C157 H185 0.931 . S
C158 C157 1.347 . S
C158 C159 1.369 . S
C159 C158 1.369 . S
C159 C160 1.408 . S
C159 H186 0.930 . S
C160 C155 1.348 . S
C160 C159 1.408 . S
C160 H187 0.930 . S
C161 O174 1.281 . S
C161 O175 1.254 . S
C162 O176 1.236 . S
C162 O177 1.266 . S
C163 Tb153 2.809 . S
C163 C164 1.514 . S
C163 O178 1.248 . S
C163 O179 1.266 . S
C164 C163 1.514 . S
C164 C165 1.359 . S
C164 C169 1.348 . S
C165 C164 1.359 . S
C165 C166 1.380 . S
C165 H188 0.929 . S
C166 C165 1.380 . S
C166 C167 1.347 . S
C166 H189 0.931 . S
C167 C166 1.347 . S
C167 C168 1.369 . S
C168 C167 1.369 . S
C168 C169 1.408 . S
C168 H190 0.930 . S
C169 C164 1.348 . S
C169 C168 1.408 . S
C169 H191 0.930 . S
C170 O180 1.281 . S
C170 O181 1.254 . S
C171 O182 1.236 . S
C171 O183 1.266 . S
O172 Tb152 2.484 1_554 S
O172 C154 1.248 . S
O173 Tb152 2.440 1_554 S
O173 C154 1.266 . S
O174 Tb152 2.658 . S
O174 Tb153 2.325 . S
O174 C161 1.281 . S
O175 Tb152 2.409 . S
O175 C161 1.254 . S
O176 Tb152 2.378 . S
O176 C162 1.236 . S
O177 Tb153 2.341 . S
O177 C162 1.266 . S
O178 Tb153 2.484 . S
O178 C163 1.248 . S
O179 Tb153 2.440 . S
O179 C163 1.266 . S
O180 Tb152 2.325 . S
O180 Tb153 2.658 . S
O180 C170 1.281 . S
O181 Tb153 2.409 . S
O181 C170 1.254 . S
O182 Tb153 2.378 . S
O182 C171 1.236 . S
O183 Tb152 2.341 . S
O183 C171 1.266 . S
H184 C156 0.929 . S
H185 C157 0.931 . S
H186 C159 0.930 . S
H187 C160 0.930 . S
H188 C165 0.929 . S
H189 C166 0.931 . S
H190 C168 0.930 . S
H191 C169 0.930 . S
Tb192 C194 2.809 1_556 S
Tb192 O212 2.484 1_556 S
Tb192 O213 2.440 1_556 S
Tb192 O214 2.658 1_655 S
Tb192 O215 2.409 . S
Tb192 O216 2.378 . S
Tb192 O220 2.325 . S
Tb192 O223 2.341 1_655 S
Tb193 C203 2.809 . S
Tb193 O214 2.325 . S
Tb193 O217 2.341 1_455 S
Tb193 O218 2.484 . S
Tb193 O219 2.440 . S
Tb193 O220 2.658 1_455 S
Tb193 O221 2.409 . S
Tb193 O222 2.378 . S
C194 Tb192 2.809 1_554 S
C194 C195 1.514 . S
C194 O212 1.248 . S
C194 O213 1.266 . S
C195 C194 1.514 . S
C195 C196 1.359 . S
C195 C200 1.348 . S
C196 C195 1.359 . S
C196 C197 1.380 . S
C196 H224 0.929 . S
C197 C196 1.380 . S
C197 C198 1.347 . S
C197 H225 0.931 . S
C198 C197 1.347 . S
C198 C199 1.369 . S
C199 C198 1.369 . S
C199 C200 1.408 . S
C199 H226 0.930 . S
C200 C195 1.348 . S
C200 C199 1.408 . S
C200 H227 0.930 . S
C201 O214 1.277 1_655 S
C201 O215 1.258 . S
C202 O216 1.236 . S
C202 O217 1.266 . S
C203 Tb193 2.809 . S
C203 C204 1.514 . S
C203 O218 1.248 . S
C203 O219 1.266 . S
C204 C203 1.514 . S
C204 C205 1.359 . S
C204 C209 1.348 . S
C205 C204 1.359 . S
C205 C206 1.380 . S
C205 H228 0.929 . S
C206 C205 1.380 . S
C206 C207 1.347 . S
C206 H229 0.931 . S
C207 C206 1.347 . S
C207 C208 1.369 . S
C208 C207 1.369 . S
C208 C209 1.408 . S
C208 H230 0.930 . S
C209 C204 1.348 . S
C209 C208 1.408 . S
C209 H231 0.930 . S
C210 O220 1.276 1_455 S
C210 O221 1.260 . S
C211 O222 1.236 . S
C211 O223 1.266 . S
O212 Tb192 2.484 1_554 S
O212 C194 1.248 . S
O213 Tb192 2.440 1_554 S
O213 C194 1.266 . S
O214 Tb192 2.658 1_455 S
O214 Tb193 2.325 . S
O214 C201 1.277 1_455 S
O215 Tb192 2.409 . S
O215 C201 1.258 . S
O216 Tb192 2.378 . S
O216 C202 1.236 . S
O217 Tb193 2.341 1_655 S
O217 C202 1.266 . S
O218 Tb193 2.484 . S
O218 C203 1.248 . S
O219 Tb193 2.440 . S
O219 C203 1.266 . S
O220 Tb192 2.325 . S
O220 Tb193 2.658 1_655 S
O220 C210 1.276 1_655 S
O221 Tb193 2.409 . S
O221 C210 1.260 . S
O222 Tb193 2.378 . S
O222 C211 1.236 . S
O223 Tb192 2.341 1_455 S
O223 C211 1.266 . S
H224 C196 0.929 . S
H225 C197 0.931 . S
H226 C199 0.930 . S
H227 C200 0.930 . S
H228 C205 0.929 . S
H229 C206 0.931 . S
H230 C208 0.930 . S
H231 C209 0.930 . S
C61 C81 3.688 1_554 S
C121 C70 3.659 1_556 S
C161 C43 3.723 1_556 S
C201 C52 3.661 1_556 S
C90 C25 3.687 1_545 S
C34 C130 3.666 . S
C7 C170 3.719 . S
C16 C210 3.661 1_655 S
C87 C50 2.976 . S
C127 C59 2.727 . S
C167 C67 2.634 . S
C41 C207 2.796 . S
C14 C78 3.001 1_655 S
C118 C23 2.754 1_545 S
C158 C31 2.614 . S
C5 C198 2.834 . S
C49 C91 4.155 1_655 S
C58 C131 4.066 1_565 S
C171 C68 4.065 . S
C211 C40 4.153 . S
C13 C82 4.158 . S
C122 C22 4.065 . S
C162 C32 4.077 . S
C4 C202 4.151 . S
