# Generated by pormake.
# Topology tsx, (6,3)-cn, num edge types: 1
# Building blocks:
#     Node 0, Type 0, BuildingBlock: VOLQOD_clean_sbu_1, # of connection points: 6
#     Node 1, Type 0, BuildingBlock: VOLQOD_clean_sbu_1, # of connection points: 6
#     Node 2, Type 1, BuildingBlock: QEWDON_clean_linker_0, # of connection points: 3
#     Node 3, Type 1, BuildingBlock: QEWDON_clean_linker_0, # of connection points: 3
#     Node 4, Type 1, BuildingBlock: QEWDON_clean_linker_0, # of connection points: 3
#     Node 5, Type 1, BuildingBlock: QEWDON_clean_linker_0, # of connection points: 3
#     Edge 6, Type (0, 1), BuildingBlock: EYOCIG_clean_linker_4, # of connection points: 2
#     Edge 7, Type (0, 1), BuildingBlock: EYOCIG_clean_linker_4, # of connection points: 2
#     Edge 8, Type (0, 1), BuildingBlock: EYOCIG_clean_linker_4, # of connection points: 2
#     Edge 9, Type (0, 1), BuildingBlock: EYOCIG_clean_linker_4, # of connection points: 2
#     Edge 10, Type (0, 1), BuildingBlock: EYOCIG_clean_linker_4, # of connection points: 2
#     Edge 11, Type (0, 1), BuildingBlock: EYOCIG_clean_linker_4, # of connection points: 2
#     Edge 12, Type (0, 1), BuildingBlock: EYOCIG_clean_linker_4, # of connection points: 2
#     Edge 13, Type (0, 1), BuildingBlock: EYOCIG_clean_linker_4, # of connection points: 2
#     Edge 14, Type (0, 1), BuildingBlock: EYOCIG_clean_linker_4, # of connection points: 2
#     Edge 15, Type (0, 1), BuildingBlock: EYOCIG_clean_linker_4, # of connection points: 2
#     Edge 16, Type (0, 1), BuildingBlock: EYOCIG_clean_linker_4, # of connection points: 2
#     Edge 17, Type (0, 1), BuildingBlock: EYOCIG_clean_linker_4, # of connection points: 2
# Relax obj value: 0.079
# Max RMSD: 0.172
# Mean RMSD: 0.146
data_MOF--net-tsx--node1-VOLQOD_clean_sbu_1--node2-QEWDON_clean_linker_0--edge1-EYOCIG_clean_linker_4
_symmetry_space_group_name_H-M    P1
_symmetry_Int_Tables_number       1
_symmetry_cell_setting            triclinic
loop_
_symmetry_equiv_pos_as_xyz
'x, y, z'
_cell_length_a     18.732091
_cell_length_b     18.682464
_cell_length_c     30.691956
_cell_angle_alpha  90.596903
_cell_angle_beta   103.25775
_cell_angle_gamma 89.991107
loop_
_atom_site_label
_atom_site_type_symbol
_atom_site_fract_x
_atom_site_fract_y
_atom_site_fract_z
_atom_type_partial_charge
O0 O 0.05788 0.98748 0.09055 0.0
Zn1 Zn 0.07583 -0.00243 0.0281 0.0
O2 O -0.01729 0.01191 -0.01557 0.0
Zn3 Zn 0.959 0.92985 0.94428 0.0
Zn4 Zn 0.90495 0.02296 0.01608 0.0
Zn5 Zn -0.01268 0.09546 0.94814 0.0
O6 O 0.9392 0.95636 0.87927 0.0
O7 O -0.01153 0.06558 0.88458 0.0
O8 O 0.12957 0.91041 0.01089 0.0
O9 O 0.04624 0.86874 0.9523 0.0
O10 O 0.88217 0.86618 0.9596 0.0
O11 O 0.84897 0.93127 0.01266 0.0
O12 O 0.83649 0.10409 -0.00929 0.0
O13 O 0.14044 0.08521 0.03005 0.0
O14 O 0.89572 0.15579 0.94407 0.0
O15 O 0.07846 0.15435 0.97546 0.0
C16 C 0.00537 0.01047 0.10691 0.0
C17 C 0.96213 0.01053 0.86163 0.0
C18 C 0.84604 0.87408 -0.01035 0.0
C19 C 0.1086 0.86545 0.97893 0.0
C20 C 0.84118 0.15216 0.96233 0.0
C21 C 0.13386 0.14271 0.0075 0.0
O22 O 0.9462 0.03459 0.0824 0.0
O23 O 0.55835 0.48425 0.58997 0.0
Zn24 Zn 0.57592 0.49659 0.52749 0.0
O25 O 0.48248 0.51143 0.48424 0.0
Zn26 Zn 0.45739 0.42927 0.4443 0.0
Zn27 Zn 0.40583 0.52395 0.51654 0.0
Zn28 Zn 0.48697 0.59458 0.4477 0.0
O29 O 0.43896 0.45527 0.37922 0.0
O30 O 0.48982 0.5638 0.38446 0.0
O31 O 0.62944 0.41008 0.50904 0.0
O32 O 0.54365 0.36669 0.4523 0.0
O33 O 0.37895 0.36761 0.45961 0.0
O34 O 0.34815 0.43364 0.51309 0.0
O35 O 0.33795 0.60562 0.49173 0.0
O36 O 0.63981 0.58514 0.53014 0.0
O37 O 0.3948 0.65455 0.44298 0.0
O38 O 0.5773 0.6541 0.47559 0.0
C39 C 0.50662 0.508 0.60679 0.0
C40 C 0.46332 0.50868 0.36161 0.0
C41 C 0.3434 0.37656 0.48987 0.0
C42 C 0.60702 0.36414 0.47784 0.0
C43 C 0.34137 0.65224 0.46227 0.0
C44 C 0.63259 0.6429 0.50779 0.0
O45 O 0.44812 0.53423 0.58276 0.0
H46 H 0.95218 0.05324 0.33684 0.0
C47 C -0.01418 0.00847 0.35147 0.0
C48 C 0.02303 0.96754 0.32513 0.0
C49 C -0.00338 0.9948 0.39739 0.0
H50 H 0.09997 0.88188 0.32417 0.0
C51 C 0.0701 0.91236 0.34446 0.0
C52 C 0.08051 0.89769 0.39009 0.0
C53 C 0.04306 0.93828 0.41632 0.0
C54 C 0.97174 0.0467 0.42722 0.0
H55 H 0.05232 0.92757 0.45183 0.0
C56 C 0.88667 0.08631 0.41382 0.0
C57 C 0.85259 0.15159 0.44383 0.0
C58 C 0.03494 0.07044 0.47495 0.0
H59 H 0.08852 0.04417 0.48119 0.0
C60 C -0.01741 0.16947 0.51959 0.0
H61 H 0.85013 0.06813 0.38311 0.0
C62 C 0.89563 0.19164 0.49296 0.0
H63 H 0.86706 0.23175 0.50812 0.0
H64 H 0.00608 0.19789 0.55097 0.0
H65 H 0.01581 0.05536 0.6313 0.0
C66 C -0.01889 0.01086 0.61654 0.0
C67 C 0.94442 0.97064 0.64305 0.0
C68 C 0.96864 0.99672 0.57042 0.0
H69 H 0.86671 0.88582 0.64421 0.0
C70 C 0.89601 0.91583 0.6237 0.0
C71 C 0.88418 0.90042 0.57792 0.0
C72 C 0.92119 0.94024 0.5515 0.0
C73 C -0.0067 0.04789 0.54065 0.0
H74 H 0.91112 0.92865 0.51591 0.0
C75 C 0.07794 0.08876 0.55423 0.0
C76 C 0.11138 0.15391 0.52455 0.0
C77 C 0.92993 0.07 0.49302 0.0
H78 H 0.87656 0.04311 0.4867 0.0
C79 C -0.01876 0.16877 0.44878 0.0
H80 H 0.11453 0.07187 0.585 0.0
C81 C 0.06801 0.19245 0.47553 0.0
H82 H 0.09611 0.2328 0.46065 0.0
H83 H 0.95742 0.19635 0.41754 0.0
H84 H 0.45116 0.55248 0.8366 0.0
C85 C 0.485 0.50788 0.85131 0.0
C86 C 0.52188 0.46656 0.82492 0.0
C87 C 0.49654 0.49483 0.89737 0.0
H88 H 0.59911 0.38114 0.82406 0.0
C89 C 0.56939 0.41179 0.84437 0.0
C90 C 0.58046 0.39772 0.89008 0.0
C91 C 0.54318 0.43845 0.91631 0.0
C92 C 0.47249 0.54716 0.92733 0.0
H93 H 0.55284 0.42797 0.95187 0.0
C94 C 0.38784 0.58764 0.91438 0.0
C95 C 0.35479 0.65309 0.94479 0.0
C96 C 0.5363 0.57008 0.97496 0.0
H97 H 0.58961 0.54331 0.98091 0.0
C98 C 0.48562 0.66937 0.0202 0.0
H99 H 0.35078 0.56984 0.88376 0.0
C100 C 0.39873 0.69252 -0.00605 0.0
H101 H 0.37075 0.73277 0.00939 0.0
H102 H 0.50973 0.69741 0.05162 0.0
H103 H 0.51814 0.55344 0.13163 0.0
C104 C 0.48336 0.50914 0.11663 0.0
C105 C 0.44705 0.46815 0.143 0.0
C106 C 0.4705 0.49597 0.07038 0.0
H107 H 0.36953 0.38295 0.1437 0.0
C108 C 0.39857 0.41356 0.12332 0.0
C109 C 0.38635 0.39914 0.07739 0.0
C110 C 0.42295 0.43975 0.05114 0.0
C111 C 0.49516 0.54758 0.04084 0.0
H112 H 0.41258 0.42891 0.01546 0.0
C113 C 0.58028 0.58752 0.05424 0.0
C114 C 0.61411 0.65246 0.02459 0.0
C115 C 0.43165 0.57056 -0.00653 0.0
H116 H 0.37804 0.54415 -0.01275 0.0
C117 C 0.48348 0.66905 0.94929 0.0
H118 H 0.61703 0.56989 0.08476 0.0
C119 C 0.57068 0.69175 0.97582 0.0
H120 H 0.59909 0.73177 0.96089 0.0
H121 H 0.45967 0.697 0.91819 0.0
C122 C 0.23578 0.24364 0.02946 0.0
C123 C 0.1895 0.19737 0.01962 0.0
C124 C 0.28907 0.29829 0.04315 0.0
C125 C 0.33376 0.34463 0.05729 0.0
C126 C 0.18953 0.76523 0.95452 0.0
C127 C 0.15739 0.81243 0.96882 0.0
C128 C 0.23117 0.71444 0.937 0.0
C129 C 0.28114 0.67795 0.93137 0.0
C130 C 0.78016 0.76597 0.0183 0.0
C131 C 0.81104 0.81328 0.00363 0.0
C132 C 0.73811 0.71468 0.0346 0.0
C133 C 0.68767 0.67786 0.03892 0.0
C134 C 0.73465 0.24747 0.93903 0.0
C135 C 0.78274 0.20358 0.95004 0.0
C136 C 0.67931 0.29947 0.9245 0.0
C137 C 0.63387 0.34461 0.91021 0.0
C138 C 0.73361 0.74457 0.53051 0.0
C139 C 0.68756 0.69816 0.52018 0.0
C140 C 0.78682 0.79929 0.54426 0.0
C141 C 0.83156 0.84572 0.55814 0.0
C142 C 0.68718 0.26388 0.45254 0.0
C143 C 0.65528 0.31113 0.467 0.0
C144 C 0.7288 0.21284 0.43517 0.0
C145 C 0.7789 0.17622 0.42987 0.0
C146 C 0.27577 0.2702 0.51894 0.0
C147 C 0.30736 0.31674 0.50409 0.0
C148 C 0.23395 0.21885 0.53533 0.0
C149 C 0.18418 0.18095 0.53941 0.0
C150 C 0.23421 0.74692 0.43892 0.0
C151 C 0.28266 0.70337 0.44994 0.0
C152 C 0.17872 0.7988 0.42442 0.0
C153 C 0.13355 0.84421 0.41018 0.0
C154 C 0.01344 0.00174 0.19376 0.0
C155 C 0.01082 0.00528 0.15421 0.0
C156 C 0.01457 0.99399 0.23964 0.0
C157 C 0.01663 0.98399 0.27865 0.0
C158 C 0.95914 0.00443 0.77527 0.0
C159 C 0.96091 0.00812 0.81473 0.0
C160 C 0.95705 0.99689 0.72921 0.0
C161 C 0.95323 0.98709 0.68988 0.0
C162 C 0.51368 0.49789 0.69346 0.0
C163 C 0.51208 0.50178 0.65405 0.0
C164 C 0.51354 0.49102 0.73923 0.0
C165 C 0.51521 0.4823 0.77832 0.0
C166 C 0.4624 0.50078 0.27551 0.0
C167 C 0.46326 0.50532 0.31484 0.0
C168 C 0.46048 0.49293 0.22945 0.0
C169 C 0.45618 0.48369 0.19 0.0
loop_
_geom_bond_atom_site_label_1
_geom_bond_atom_site_label_2
_geom_bond_distance
_geom_bond_site_symmetry_2
_ccdc_geom_bond_type
O0 Zn1 1.953 . S
O0 C16 1.221 1_565 S
Zn1 O0 1.953 . S
Zn1 O2 1.945 1_564 S
Zn1 O8 1.919 . S
Zn1 O13 1.924 1_565 S
O2 Zn1 1.945 1_546 S
O2 Zn3 1.927 1_445 S
O2 Zn4 1.945 1_456 S
O2 Zn5 1.949 . S
Zn3 O2 1.927 1_665 S
Zn3 O6 1.933 . S
Zn3 O9 1.941 1_655 S
Zn3 O10 1.965 . S
Zn4 O2 1.945 1_654 S
Zn4 O11 1.938 1_545 S
Zn4 O12 1.906 . S
Zn4 O22 1.953 . S
Zn5 O2 1.949 . S
Zn5 O7 1.932 . S
Zn5 O14 1.977 1_455 S
Zn5 O15 1.910 . S
O6 Zn3 1.933 . S
O6 C17 1.226 1_565 S
O7 Zn5 1.932 . S
O7 C17 1.307 1_455 S
O8 Zn1 1.919 . S
O8 C19 1.253 1_554 S
O9 Zn3 1.941 1_455 S
O9 C19 1.283 . S
O10 Zn3 1.965 . S
O10 C18 1.303 1_556 S
O11 Zn4 1.938 1_565 S
O11 C18 1.247 . S
O12 Zn4 1.906 . S
O12 C20 1.304 1_554 S
O13 Zn1 1.924 1_545 S
O13 C21 1.311 . S
O14 Zn5 1.977 1_655 S
O14 C20 1.272 . S
O15 Zn5 1.910 . S
O15 C21 1.231 1_556 S
C16 O0 1.221 1_545 S
C16 O22 1.303 1_455 S
C17 O6 1.226 1_545 S
C17 O7 1.307 1_655 S
C18 O10 1.303 1_554 S
C18 O11 1.247 . S
C19 O8 1.253 1_556 S
C19 O9 1.283 . S
C20 O12 1.304 1_556 S
C20 O14 1.272 . S
C21 O13 1.311 . S
C21 O15 1.231 1_554 S
O22 Zn4 1.953 . S
O22 C16 1.303 1_655 S
O23 Zn24 1.953 . S
O23 C39 1.225 . S
Zn24 O23 1.953 . S
Zn24 O25 1.949 . S
Zn24 O31 1.919 . S
Zn24 O36 1.924 . S
O25 Zn24 1.949 . S
O25 Zn26 1.923 . S
O25 Zn27 1.950 . S
O25 Zn28 1.945 . S
Zn26 O25 1.923 . S
Zn26 O29 1.933 . S
Zn26 O32 1.941 . S
Zn26 O33 1.965 . S
Zn27 O25 1.950 . S
Zn27 O34 1.938 . S
Zn27 O35 1.906 . S
Zn27 O45 1.953 . S
Zn28 O25 1.945 . S
Zn28 O30 1.932 . S
Zn28 O37 1.977 . S
Zn28 O38 1.910 . S
O29 Zn26 1.933 . S
O29 C40 1.226 . S
O30 Zn28 1.932 . S
O30 C40 1.307 . S
O31 Zn24 1.919 . S
O31 C42 1.253 . S
O32 Zn26 1.941 . S
O32 C42 1.283 . S
O33 Zn26 1.965 . S
O33 C41 1.303 . S
O34 Zn27 1.938 . S
O34 C41 1.247 . S
O35 Zn27 1.906 . S
O35 C43 1.304 . S
O36 Zn24 1.924 . S
O36 C44 1.311 . S
O37 Zn28 1.977 . S
O37 C43 1.272 . S
O38 Zn28 1.910 . S
O38 C44 1.231 . S
C39 O23 1.225 . S
C39 O45 1.298 . S
C40 O29 1.226 . S
C40 O30 1.307 . S
C41 O33 1.303 . S
C41 O34 1.247 . S
C42 O31 1.253 . S
C42 O32 1.283 . S
C43 O35 1.304 . S
C43 O37 1.272 . S
C44 O36 1.311 . S
C44 O38 1.231 . S
O45 Zn27 1.953 . S
O45 C39 1.298 . S
H46 C47 0.949 1_655 S
C47 H46 0.949 1_455 S
C47 C48 1.395 1_545 S
C47 C49 1.391 . S
C48 C47 1.395 1_565 S
C48 C51 1.390 . S
C49 C47 1.391 . S
C49 C53 1.387 1_545 S
C49 C54 1.491 . S
H50 C51 0.950 . S
C51 C48 1.390 . S
C51 H50 0.950 . S
C51 C52 1.378 . S
C52 C51 1.378 . S
C52 C53 1.409 . S
C53 C49 1.387 1_565 S
C53 C52 1.409 . S
C53 H55 0.951 . S
C54 C49 1.491 . S
C54 C56 1.382 1_455 S
C54 C58 1.404 . S
H55 C53 0.951 . S
C56 C54 1.382 1_655 S
C56 C57 1.390 . S
C56 H61 0.949 . S
C57 C56 1.390 . S
C57 C62 1.399 . S
C58 C54 1.404 . S
C58 H59 0.950 . S
C58 C60 1.375 . S
H59 C58 0.950 . S
C60 C58 1.375 . S
C60 C62 1.382 1_455 S
C60 H64 0.950 . S
H61 C56 0.949 . S
C62 C57 1.399 . S
C62 C60 1.382 1_655 S
C62 H63 0.952 . S
H63 C62 0.952 . S
H64 C60 0.950 . S
H65 C66 0.949 . S
C66 H65 0.949 . S
C66 C67 1.395 1_445 S
C66 C68 1.391 1_455 S
C67 C66 1.395 1_665 S
C67 C70 1.390 . S
C68 C66 1.391 1_655 S
C68 C72 1.387 1_545 S
C68 C73 1.491 1_655 S
H69 C70 0.950 . S
C70 C67 1.390 . S
C70 H69 0.950 . S
C70 C71 1.378 . S
C71 C70 1.378 . S
C71 C72 1.409 . S
C72 C68 1.387 1_565 S
C72 C71 1.409 . S
C72 H74 0.951 . S
C73 C68 1.491 1_455 S
C73 C75 1.382 . S
C73 C77 1.404 1_455 S
H74 C72 0.951 . S
C75 C73 1.382 . S
C75 C76 1.390 . S
C75 H80 0.949 . S
C76 C75 1.390 . S
C76 C81 1.399 . S
C77 C73 1.404 1_655 S
C77 H78 0.950 . S
C77 C79 1.375 . S
H78 C77 0.950 . S
C79 C77 1.375 . S
C79 C81 1.382 1_655 S
C79 H83 0.950 . S
H80 C75 0.949 . S
C81 C76 1.399 . S
C81 C79 1.382 1_455 S
C81 H82 0.952 . S
H82 C81 0.952 . S
H83 C79 0.950 . S
H84 C85 0.949 . S
C85 H84 0.949 . S
C85 C86 1.395 . S
C85 C87 1.391 . S
C86 C85 1.395 . S
C86 C89 1.390 . S
C87 C85 1.391 . S
C87 C91 1.387 . S
C87 C92 1.491 . S
H88 C89 0.950 . S
C89 C86 1.390 . S
C89 H88 0.950 . S
C89 C90 1.378 . S
C90 C89 1.378 . S
C90 C91 1.409 . S
C91 C87 1.387 . S
C91 C90 1.409 . S
C91 H93 0.951 . S
C92 C87 1.491 . S
C92 C94 1.382 . S
C92 C96 1.418 . S
H93 C91 0.951 . S
C94 C92 1.382 . S
C94 C95 1.390 . S
C94 H99 0.949 . S
C95 C94 1.390 . S
C95 C100 1.399 1_556 S
C96 C92 1.418 . S
C96 H97 0.949 1_556 S
C96 C98 1.362 1_556 S
H97 C96 0.949 1_554 S
C98 C96 1.362 1_554 S
C98 C100 1.382 . S
C98 H102 0.950 . S
H99 C94 0.949 . S
C100 C95 1.399 1_554 S
C100 C98 1.382 . S
C100 H101 0.952 . S
H101 C100 0.952 . S
H102 C98 0.950 . S
H103 C104 0.949 . S
C104 H103 0.949 . S
C104 C105 1.395 . S
C104 C106 1.391 . S
C105 C104 1.395 . S
C105 C108 1.390 . S
C106 C104 1.391 . S
C106 C110 1.387 . S
C106 C111 1.491 . S
H107 C108 0.950 . S
C108 C105 1.390 . S
C108 H107 0.950 . S
C108 C109 1.378 . S
C109 C108 1.378 . S
C109 C110 1.409 . S
C110 C106 1.387 . S
C110 C109 1.409 . S
C110 H112 0.951 . S
C111 C106 1.491 . S
C111 C113 1.382 . S
C111 C115 1.404 . S
H112 C110 0.951 . S
C113 C111 1.382 . S
C113 C114 1.390 . S
C113 H118 0.949 . S
C114 C113 1.390 . S
C114 C119 1.399 1_554 S
C115 C111 1.404 . S
C115 H116 0.950 1_554 S
C115 C117 1.375 1_554 S
H116 C115 0.950 1_556 S
C117 C115 1.375 1_556 S
C117 C119 1.382 . S
C117 H121 0.950 . S
H118 C113 0.949 . S
C119 C114 1.399 1_556 S
C119 C117 1.382 . S
C119 H120 0.952 . S
H120 C119 0.952 . S
H121 C117 0.950 . S
C122 C123 1.170 . S
C122 C124 1.380 . S
C123 C122 1.170 . S
C124 C122 1.380 . S
C124 C125 1.170 . S
C125 C124 1.170 . S
C126 C127 1.170 . S
C126 C128 1.380 . S
C127 C126 1.170 . S
C128 C126 1.380 . S
C128 C129 1.170 . S
C129 C128 1.170 . S
C130 C131 1.170 . S
C130 C132 1.380 . S
C131 C130 1.170 . S
C132 C130 1.380 . S
C132 C133 1.170 . S
C133 C132 1.170 . S
C134 C135 1.170 . S
C134 C136 1.380 . S
C135 C134 1.170 . S
C136 C134 1.380 . S
C136 C137 1.170 . S
C137 C136 1.170 . S
C138 C139 1.170 . S
C138 C140 1.380 . S
C139 C138 1.170 . S
C140 C138 1.380 . S
C140 C141 1.170 . S
C141 C140 1.170 . S
C142 C143 1.170 . S
C142 C144 1.380 . S
C143 C142 1.170 . S
C144 C142 1.380 . S
C144 C145 1.170 . S
C145 C144 1.170 . S
C146 C147 1.170 . S
C146 C148 1.380 . S
C147 C146 1.170 . S
C148 C146 1.380 . S
C148 C149 1.170 . S
C149 C148 1.170 . S
C150 C151 1.170 . S
C150 C152 1.380 . S
C151 C150 1.170 . S
C152 C150 1.380 . S
C152 C153 1.170 . S
C153 C152 1.170 . S
C154 C155 1.170 . S
C154 C156 1.380 1_545 S
C155 C154 1.170 . S
C156 C154 1.380 1_565 S
C156 C157 1.170 . S
C157 C156 1.170 . S
C158 C159 1.170 . S
C158 C160 1.381 . S
C159 C158 1.170 . S
C160 C158 1.381 . S
C160 C161 1.169 1_545 S
C161 C160 1.169 1_565 S
C162 C163 1.170 . S
C162 C164 1.380 . S
C163 C162 1.170 . S
C164 C162 1.380 . S
C164 C165 1.170 . S
C165 C164 1.170 . S
C166 C167 1.170 . S
C166 C168 1.380 . S
C167 C166 1.170 . S
C168 C166 1.380 . S
C168 C169 1.170 . S
C169 C168 1.170 . S
C125 C109 1.580 . S
C123 C21 1.552 . S
C127 C19 1.421 . S
C129 C95 1.362 . S
C131 C18 1.408 . S
C133 C114 1.370 . S
C135 C20 1.558 . S
C137 C90 1.554 . S
C139 C44 1.570 . S
C141 C71 1.574 . S
C143 C42 1.435 . S
C145 C57 1.404 . S
C149 C76 1.352 . S
C147 C41 1.379 . S
C153 C52 1.559 . S
C151 C43 1.553 . S
C155 C16 1.564 . S
C157 C48 1.548 . S
C159 C17 1.526 . S
C161 C67 1.513 . S
C165 C86 1.545 . S
C163 C39 1.561 . S
C167 C40 1.522 . S
C169 C105 1.516 . S
