# Generated by pormake.
# Topology anh, (6,3)-cn, num edge types: 1
# Building blocks:
#     Node 0, Type 0, BuildingBlock: BETDEL_clean_sbu_0, # of connection points: 6
#     Node 1, Type 0, BuildingBlock: BETDEL_clean_sbu_0, # of connection points: 6
#     Node 2, Type 0, BuildingBlock: BETDEL_clean_sbu_0, # of connection points: 6
#     Node 3, Type 1, BuildingBlock: ESEHIV_clean_linker_0, # of connection points: 3
#     Node 4, Type 1, BuildingBlock: ESEHIV_clean_linker_0, # of connection points: 3
#     Node 5, Type 1, BuildingBlock: ESEHIV_clean_linker_0, # of connection points: 3
#     Node 6, Type 1, BuildingBlock: ESEHIV_clean_linker_0, # of connection points: 3
#     Node 7, Type 1, BuildingBlock: ESEHIV_clean_linker_0, # of connection points: 3
#     Node 8, Type 1, BuildingBlock: ESEHIV_clean_linker_0, # of connection points: 3
#     Edge 9, Type (0, 1), None
#     Edge 10, Type (0, 1), None
#     Edge 11, Type (0, 1), None
#     Edge 12, Type (0, 1), None
#     Edge 13, Type (0, 1), None
#     Edge 14, Type (0, 1), None
#     Edge 15, Type (0, 1), None
#     Edge 16, Type (0, 1), None
#     Edge 17, Type (0, 1), None
#     Edge 18, Type (0, 1), None
#     Edge 19, Type (0, 1), None
#     Edge 20, Type (0, 1), None
#     Edge 21, Type (0, 1), None
#     Edge 22, Type (0, 1), None
#     Edge 23, Type (0, 1), None
#     Edge 24, Type (0, 1), None
#     Edge 25, Type (0, 1), None
#     Edge 26, Type (0, 1), None
# Relax obj value: 0.247
# Max RMSD: 0.180
# Mean RMSD: 0.155
data_MOF--net-anh--node1-BETDEL_clean_sbu_0--node2-ESEHIV_clean_linker_0--edge1-none
_symmetry_space_group_name_H-M    P1
_symmetry_Int_Tables_number       1
_symmetry_cell_setting            triclinic
loop_
_symmetry_equiv_pos_as_xyz
'x, y, z'
_cell_length_a     10.913139
_cell_length_b     10.913184
_cell_length_c     21.191368
_cell_angle_alpha  89.993906
_cell_angle_beta   89.994367
_cell_angle_gamma 119.99917
loop_
_atom_site_label
_atom_site_type_symbol
_atom_site_fract_x
_atom_site_fract_y
_atom_site_fract_z
_atom_type_partial_charge
Dy0 Dy 0.19997 0.49709 0.12915 0.0
C1 C 0.87942 0.75066 0.13454 0.0
C2 C 0.38218 0.41751 0.085 0.0
Dy3 Dy 1.06755 0.65883 0.13572 0.0
O4 O 0.3537 0.42258 0.14404 0.0
O5 O 0.29235 0.43356 0.05121 0.0
O6 O 0.12941 0.40294 0.22458 0.0
O7 O 0.18122 0.61515 0.20755 0.0
C8 C 0.1328 0.51545 0.24712 0.0
C9 C 0.14342 0.63717 0.01698 0.0
O10 O 0.27205 0.83139 0.17305 0.0
O11 O 0.39105 0.72681 0.13179 0.0
O12 O 1.0042 0.81668 0.1096 0.0
O13 O 0.87861 0.65978 0.17425 0.0
O14 O 0.15688 0.7513 0.04128 0.0
O15 O 1.0841 0.53729 0.05627 0.0
O16 O 0.98064 0.30601 0.12869 0.0
O17 O 0.88133 0.43999 0.15726 0.0
C18 C 0.39286 0.84052 0.15632 0.0
C19 C 0.86931 0.31429 0.1474 0.0
Dy20 Dy 0.46296 1.02304 0.46248 0.0
C21 C 1.03709 0.3436 0.4679 0.0
C22 C 0.2012 0.84087 0.41833 0.0
Dy23 Dy 0.75714 0.15546 0.46906 0.0
O24 O 0.23473 0.86931 0.47737 0.0
O25 O 0.3071 0.93072 0.38454 0.0
O26 O 0.43935 0.09353 0.55792 0.0
O27 O 0.59975 1.04173 0.54088 0.0
C28 C 0.54848 0.09013 0.58045 0.0
C29 C 0.65966 0.07965 0.35032 0.0
O30 O 0.72518 0.95093 0.50638 0.0
O31 O 0.50161 0.83196 0.46513 0.0
O32 O 0.97836 0.21883 0.44295 0.0
O33 O 0.947 0.34438 0.50759 0.0
O34 O 0.76033 1.06619 0.37462 0.0
O35 O 0.61908 0.13895 0.3896 0.0
O36 O 0.49123 0.24238 0.46202 0.0
O37 O 0.7245 0.34166 0.49059 0.0
C38 C 0.61351 0.83013 0.48966 0.0
C39 C 0.61083 0.35369 0.48074 0.0
Dy40 Dy 0.72609 0.75996 0.79578 0.0
C41 C 0.47252 0.18585 0.80125 0.0
C42 C 0.80564 1.02173 0.75161 0.0
Dy43 Dy 0.56435 0.4658 0.80241 0.0
O44 O 0.8006 0.9882 0.81065 0.0
O45 O 0.78959 0.91585 0.71783 0.0
O46 O 0.82022 0.78359 0.89121 0.0
O47 O 0.60801 0.62319 0.87421 0.0
C48 C 0.7077 0.67447 0.91377 0.0
C49 C 0.58597 0.56328 0.68365 0.0
O50 O 0.3918 0.49777 0.83974 0.0
O51 O 0.49637 0.72131 0.79843 0.0
O52 O 0.40649 0.24461 0.77632 0.0
O53 O 0.56342 0.27591 0.84093 0.0
O54 O 0.47186 0.46263 0.70798 0.0
O55 O 0.68587 0.60385 0.72292 0.0
O56 O 0.91717 0.73171 0.79532 0.0
O57 O 0.78319 0.49845 0.82394 0.0
C58 C 0.38265 0.60943 0.82299 0.0
C59 C 0.90889 0.61212 0.81406 0.0
H60 H 0.44981 0.88353 0.27828 0.0
H61 H 0.83786 0.27897 0.27046 0.0
H62 H 0.63132 0.06824 0.09711 0.0
C63 C 0.53199 0.96807 0.25036 0.0
C64 C 0.52521 0.96006 0.184 0.0
C65 C 0.64412 0.08223 0.28128 0.0
C66 C 0.75099 0.19161 0.24585 0.0
C67 C 0.74944 0.18907 0.17951 0.0
C68 C 0.63588 0.0712 0.14817 0.0
H69 H 0.59965 0.77315 0.61161 0.0
H70 H 0.60704 0.3851 0.60379 0.0
H71 H 0.60271 0.59168 0.43044 0.0
C72 C 0.60199 0.69097 0.58369 0.0
C73 C 0.6007 0.69776 0.51734 0.0
C74 C 0.60404 0.57883 0.61461 0.0
C75 C 0.60653 0.47198 0.57918 0.0
C76 C 0.60548 0.47354 0.51284 0.0
C77 C 0.60115 0.58711 0.4815 0.0
H78 H 0.94417 0.61606 0.93712 0.0
H79 H 0.33959 0.62342 0.94494 0.0
H80 H 0.15496 0.62015 0.76377 0.0
C81 C 1.03153 0.61654 0.91251 0.0
C82 C 1.0341 0.6175 0.84617 0.0
C83 C 0.1409 0.61906 0.94794 0.0
C84 C 0.25506 0.62106 0.91702 0.0
C85 C 0.26311 0.62226 0.85067 0.0
C86 C 0.15198 0.62178 0.81483 0.0
H87 H 1.09625 0.33846 0.34337 0.0
H88 H 0.14753 0.74561 0.29948 0.0
H89 H 0.10916 0.61131 0.49254 0.0
C90 C 0.10716 0.43801 0.35903 0.0
C91 C 1.09874 0.46248 0.42359 0.0
C92 C 0.12081 0.53823 0.31422 0.0
C93 C 0.12987 0.6647 0.33386 0.0
C94 C 0.13138 0.69388 0.39808 0.0
C95 C 0.11171 0.5909 0.44258 0.0
H96 H 0.40812 0.1267 0.67674 0.0
H97 H 0.76394 0.0754 0.63277 0.0
H98 H 0.66817 0.11375 0.82585 0.0
C99 C 0.49677 0.11578 0.69238 0.0
C100 C 0.52971 0.1242 0.75693 0.0
C101 C 0.58329 0.10212 0.64754 0.0
C102 C 0.70072 0.09306 0.66716 0.0
C103 C 0.72844 0.09154 0.73138 0.0
C104 C 0.64517 0.11121 0.7759 0.0
H105 H 0.47752 0.45906 0.96615 0.0
H106 H 0.88464 0.81492 0.01001 0.0
H107 H 0.61168 0.55504 0.1592 0.0
C108 C 0.55841 0.52231 0.00052 0.0
C109 C 0.52918 0.49467 0.06475 0.0
C110 C 0.68489 0.63972 -0.01913 0.0
C111 C 0.78508 0.72629 0.02568 0.0
C112 C 0.76056 0.69341 0.09024 0.0
C113 C 0.63213 0.57798 0.10925 0.0
loop_
_geom_bond_atom_site_label_1
_geom_bond_atom_site_label_2
_geom_bond_distance
_geom_bond_site_symmetry_2
_ccdc_geom_bond_type
Dy0 O4 2.398 . S
Dy0 O5 2.491 . S
Dy0 O6 2.403 . S
Dy0 O7 2.664 1_455 S
Dy0 O11 2.326 . S
Dy0 O15 2.310 . S
Dy0 O16 2.351 1_455 S
C1 O12 1.185 . S
C1 O13 1.355 . S
C2 O4 1.185 . S
C2 O5 1.355 . S
Dy3 O7 2.310 . S
Dy3 O10 2.351 1_655 S
Dy3 O12 2.398 . S
Dy3 O13 2.491 . S
Dy3 O14 2.403 . S
Dy3 O15 2.664 1_655 S
Dy3 O17 2.326 . S
O4 Dy0 2.398 . S
O4 C2 1.185 . S
O5 Dy0 2.491 . S
O5 C2 1.355 . S
O6 Dy0 2.403 . S
O6 C8 1.254 . S
O7 Dy0 2.664 1_655 S
O7 Dy3 2.310 . S
O7 C8 1.268 1_655 S
C8 O6 1.254 . S
C8 O7 1.268 1_455 S
C9 O14 1.254 1_455 S
C9 O15 1.268 . S
O10 Dy3 2.351 1_455 S
O10 C18 1.249 . S
O11 Dy0 2.326 . S
O11 C18 1.267 . S
O12 C1 1.185 . S
O12 Dy3 2.398 . S
O13 C1 1.355 . S
O13 Dy3 2.491 . S
O14 Dy3 2.403 . S
O14 C9 1.254 1_655 S
O15 Dy0 2.310 . S
O15 Dy3 2.664 1_455 S
O15 C9 1.268 . S
O16 Dy0 2.351 1_655 S
O16 C19 1.249 . S
O17 Dy3 2.326 . S
O17 C19 1.267 . S
C18 O10 1.249 . S
C18 O11 1.267 . S
C19 O16 1.249 . S
C19 O17 1.267 . S
Dy20 O24 2.398 . S
Dy20 O25 2.491 . S
Dy20 O26 2.403 . S
Dy20 O27 2.664 1_565 S
Dy20 O31 2.326 . S
Dy20 O35 2.310 . S
Dy20 O36 2.351 1_565 S
C21 O32 1.185 . S
C21 O33 1.355 . S
C22 O24 1.185 . S
C22 O25 1.355 . S
Dy23 O27 2.310 . S
Dy23 O30 2.351 1_545 S
Dy23 O32 2.398 . S
Dy23 O33 2.491 . S
Dy23 O34 2.403 . S
Dy23 O35 2.664 1_545 S
Dy23 O37 2.326 . S
O24 Dy20 2.398 . S
O24 C22 1.185 . S
O25 Dy20 2.491 . S
O25 C22 1.355 . S
O26 Dy20 2.403 . S
O26 C28 1.254 1_565 S
O27 Dy20 2.664 1_545 S
O27 Dy23 2.310 . S
O27 C28 1.268 . S
C28 O26 1.254 1_545 S
C28 O27 1.268 . S
C29 O34 1.254 . S
C29 O35 1.268 1_545 S
O30 Dy23 2.351 1_565 S
O30 C38 1.249 . S
O31 Dy20 2.326 . S
O31 C38 1.267 . S
O32 C21 1.185 . S
O32 Dy23 2.398 . S
O33 C21 1.355 . S
O33 Dy23 2.491 . S
O34 Dy23 2.403 . S
O34 C29 1.254 . S
O35 Dy20 2.310 . S
O35 Dy23 2.664 1_565 S
O35 C29 1.268 1_565 S
O36 Dy20 2.351 1_545 S
O36 C39 1.249 . S
O37 Dy23 2.326 . S
O37 C39 1.267 . S
C38 O30 1.249 . S
C38 O31 1.267 . S
C39 O36 1.249 . S
C39 O37 1.267 . S
Dy40 O44 2.398 . S
Dy40 O45 2.491 . S
Dy40 O46 2.403 . S
Dy40 O47 2.664 . S
Dy40 O51 2.326 . S
Dy40 O55 2.310 . S
Dy40 O56 2.351 . S
C41 O52 1.185 . S
C41 O53 1.355 . S
C42 O44 1.185 . S
C42 O45 1.355 . S
Dy43 O47 2.310 . S
Dy43 O50 2.351 . S
Dy43 O52 2.398 . S
Dy43 O53 2.491 . S
Dy43 O54 2.403 . S
Dy43 O55 2.664 . S
Dy43 O57 2.326 . S
O44 Dy40 2.398 . S
O44 C42 1.185 . S
O45 Dy40 2.491 . S
O45 C42 1.355 . S
O46 Dy40 2.403 . S
O46 C48 1.254 . S
O47 Dy40 2.664 . S
O47 Dy43 2.310 . S
O47 C48 1.268 . S
C48 O46 1.254 . S
C48 O47 1.268 . S
C49 O54 1.254 . S
C49 O55 1.268 . S
O50 Dy43 2.351 . S
O50 C58 1.249 . S
O51 Dy40 2.326 . S
O51 C58 1.267 . S
O52 C41 1.185 . S
O52 Dy43 2.398 . S
O53 C41 1.355 . S
O53 Dy43 2.491 . S
O54 Dy43 2.403 . S
O54 C49 1.254 . S
O55 Dy40 2.310 . S
O55 Dy43 2.664 . S
O55 C49 1.268 . S
O56 Dy40 2.351 . S
O56 C59 1.249 . S
O57 Dy43 2.326 . S
O57 C59 1.267 . S
C58 O50 1.249 . S
C58 O51 1.267 . S
C59 O56 1.249 . S
C59 O57 1.267 . S
H60 C63 0.931 . S
H61 C66 0.928 . S
H62 C68 0.931 . S
C63 H60 0.931 . S
C63 C64 1.413 . S
C63 C65 1.360 1_565 S
C64 C63 1.413 . S
C64 C68 1.429 1_565 S
C65 C63 1.360 1_545 S
C65 C66 1.372 . S
C66 H61 0.928 . S
C66 C65 1.372 . S
C66 C67 1.404 . S
C67 C66 1.404 . S
C67 C68 1.391 . S
C68 H62 0.931 . S
C68 C64 1.429 1_545 S
C68 C67 1.391 . S
H69 C72 0.931 . S
H70 C75 0.928 . S
H71 C77 0.930 . S
C72 H69 0.931 . S
C72 C73 1.413 . S
C72 C74 1.360 . S
C73 C72 1.413 . S
C73 C77 1.429 . S
C74 C72 1.360 . S
C74 C75 1.372 . S
C75 H70 0.928 . S
C75 C74 1.372 . S
C75 C76 1.404 . S
C76 C75 1.404 . S
C76 C77 1.391 . S
C77 H71 0.930 . S
C77 C73 1.429 . S
C77 C76 1.391 . S
H78 C81 0.931 . S
H79 C84 0.928 . S
H80 C86 0.930 . S
C81 H78 0.931 . S
C81 C82 1.413 . S
C81 C83 1.360 1_655 S
C82 C81 1.413 . S
C82 C86 1.429 1_655 S
C83 C81 1.360 1_455 S
C83 C84 1.372 . S
C84 H79 0.928 . S
C84 C83 1.372 . S
C84 C85 1.404 . S
C85 C84 1.404 . S
C85 C86 1.391 . S
C86 H80 0.930 . S
C86 C82 1.429 1_455 S
C86 C85 1.391 . S
H87 C90 0.931 . S
H88 C93 0.928 . S
H89 C95 0.930 1_655 S
C90 H87 0.931 . S
C90 C91 1.413 . S
C90 C92 1.360 1_655 S
C91 C90 1.413 . S
C91 C95 1.429 1_655 S
C92 C90 1.360 1_455 S
C92 C93 1.372 . S
C93 H88 0.928 . S
C93 C92 1.372 . S
C93 C94 1.404 . S
C94 C93 1.404 . S
C94 C95 1.391 . S
C95 H89 0.930 1_455 S
C95 C91 1.429 1_455 S
C95 C94 1.391 . S
H96 C99 0.931 . S
H97 C102 0.928 . S
H98 C104 0.930 . S
C99 H96 0.931 . S
C99 C100 1.413 . S
C99 C101 1.360 . S
C100 C99 1.413 . S
C100 C104 1.429 . S
C101 C99 1.360 . S
C101 C102 1.372 1_545 S
C102 H97 0.928 . S
C102 C101 1.372 1_565 S
C102 C103 1.404 . S
C103 C102 1.404 . S
C103 C104 1.391 1_565 S
C104 H98 0.930 . S
C104 C100 1.429 . S
C104 C103 1.391 1_545 S
H105 C108 0.931 . S
H106 C111 0.928 . S
H107 C113 0.930 . S
C108 H105 0.931 . S
C108 C109 1.413 . S
C108 C110 1.360 . S
C109 C108 1.413 . S
C109 C113 1.429 . S
C110 C108 1.360 . S
C110 C111 1.372 . S
C111 H106 0.928 . S
C111 C110 1.372 . S
C111 C112 1.404 . S
C112 C111 1.404 . S
C112 C113 1.391 . S
C113 H107 0.930 . S
C113 C109 1.429 . S
C113 C112 1.391 . S
C2 C109 1.078 . S
C21 C91 1.069 . S
C42 C103 1.077 . S
C1 C112 1.077 . S
C94 C22 1.076 . S
C100 C41 1.069 . S
C38 C73 2.321 . S
C59 C82 2.414 . S
C18 C64 2.321 . S
C76 C39 2.391 . S
C85 C58 2.298 . S
C19 C67 2.391 . S
C83 C9 1.586 1_556 S
C29 C65 1.590 . S
C49 C74 1.590 . S
C101 C28 1.258 . S
C110 C48 1.278 1_554 S
C8 C92 1.260 . S
