# Generated by pormake.
# Topology pyr, (3,6)-cn, num edge types: 1
# Building blocks:
#     Node 0, Type 0, BuildingBlock: BETDAH_clean_linker_0, # of connection points: 3
#     Node 1, Type 0, BuildingBlock: BETDAH_clean_linker_0, # of connection points: 3
#     Node 2, Type 0, BuildingBlock: BETDAH_clean_linker_0, # of connection points: 3
#     Node 3, Type 0, BuildingBlock: BETDAH_clean_linker_0, # of connection points: 3
#     Node 4, Type 0, BuildingBlock: BETDAH_clean_linker_0, # of connection points: 3
#     Node 5, Type 0, BuildingBlock: BETDAH_clean_linker_0, # of connection points: 3
#     Node 6, Type 0, BuildingBlock: BETDAH_clean_linker_0, # of connection points: 3
#     Node 7, Type 0, BuildingBlock: BETDAH_clean_linker_0, # of connection points: 3
#     Node 8, Type 1, BuildingBlock: LEVNOQ01_clean_sbu_1, # of connection points: 6
#     Node 9, Type 1, BuildingBlock: LEVNOQ01_clean_sbu_1, # of connection points: 6
#     Node 10, Type 1, BuildingBlock: LEVNOQ01_clean_sbu_1, # of connection points: 6
#     Node 11, Type 1, BuildingBlock: LEVNOQ01_clean_sbu_1, # of connection points: 6
#     Edge 12, Type (0, 1), None
#     Edge 13, Type (0, 1), None
#     Edge 14, Type (0, 1), None
#     Edge 15, Type (0, 1), None
#     Edge 16, Type (0, 1), None
#     Edge 17, Type (0, 1), None
#     Edge 18, Type (0, 1), None
#     Edge 19, Type (0, 1), None
#     Edge 20, Type (0, 1), None
#     Edge 21, Type (0, 1), None
#     Edge 22, Type (0, 1), None
#     Edge 23, Type (0, 1), None
#     Edge 24, Type (0, 1), None
#     Edge 25, Type (0, 1), None
#     Edge 26, Type (0, 1), None
#     Edge 27, Type (0, 1), None
#     Edge 28, Type (0, 1), None
#     Edge 29, Type (0, 1), None
#     Edge 30, Type (0, 1), None
#     Edge 31, Type (0, 1), None
#     Edge 32, Type (0, 1), None
#     Edge 33, Type (0, 1), None
#     Edge 34, Type (0, 1), None
#     Edge 35, Type (0, 1), None
# Relax obj value: 0.091
# Max RMSD: 0.167
# Mean RMSD: 0.127
data_MOF--net-pry--node1-LEVNOQ01_clean_sbu_1--node2-BETDAH_clean_linker_0--edge1-none
_symmetry_space_group_name_H-M    P1
_symmetry_Int_Tables_number       1
_symmetry_cell_setting            triclinic
loop_
_symmetry_equiv_pos_as_xyz
'x, y, z'
_cell_length_a     16.302757
_cell_length_b     15.82409
_cell_length_c     16.022275
_cell_angle_alpha  94.122555
_cell_angle_beta   92.379001
_cell_angle_gamma 102.15441
loop_
_atom_site_label
_atom_site_type_symbol
_atom_site_fract_x
_atom_site_fract_y
_atom_site_fract_z
_atom_type_partial_charge
H0 H 0.21974 0.03816 0.25523 0.0
H1 H 0.20659 0.16514 0.02741 0.0
H2 H 0.00335 0.14298 0.19179 0.0
C3 C 0.18599 0.07079 0.21262 0.0
C4 C 0.10633 0.08634 0.23306 0.0
C5 C 0.22273 0.0988 0.13785 0.0
C6 C 0.17817 0.14076 0.08339 0.0
C7 C 0.10102 0.15943 0.10391 0.0
C8 C 0.06509 0.13204 0.17841 0.0
N9 N 0.05996 0.20474 0.04779 0.0
C10 C 0.04371 0.28585 0.07081 0.0
H11 H 0.5241 0.87787 0.80469 0.0
H12 H 0.35905 0.02704 0.70333 0.0
H13 H 0.43442 0.82724 0.54694 0.0
C14 C 0.49255 0.89696 0.75072 0.0
C15 C 0.48399 0.84355 0.67514 0.0
C16 C 0.44578 0.9619 0.76333 0.0
C17 C 0.39896 0.98085 0.69407 0.0
C18 C 0.39881 0.93488 0.6145 0.0
C19 C 0.44224 0.86746 0.60564 0.0
N20 N 0.34647 0.94626 0.54502 0.0
C21 C 0.27261 0.97514 0.55464 0.0
H22 H 0.70664 0.38007 0.05662 0.0
H23 H 0.71915 0.42838 0.79725 0.0
H24 H 0.52112 0.23079 0.87455 0.0
C25 C 0.68391 0.36213 0.99175 0.0
C26 C 0.61194 0.29714 0.97208 0.0
C27 C 0.72173 0.40972 0.92906 0.0
C28 C 0.69139 0.38906 0.84582 0.0
C29 C 0.6194 0.32391 0.82554 0.0
C30 C 0.58096 0.27575 0.88869 0.0
N31 N 0.57152 0.32869 0.75168 0.0
C32 C 0.542 0.40428 0.74832 0.0
H33 H 0.80894 0.76712 0.55574 0.0
H34 H -0.00541 0.68314 0.41056 0.0
H35 H 0.82927 0.50114 0.54159 0.0
C36 C 0.84676 0.71906 0.54443 0.0
C37 C 0.81322 0.63251 0.56024 0.0
C38 C 0.91397 0.73756 0.49128 0.0
C39 C 0.95057 0.67077 0.45953 0.0
C40 C 0.91443 0.58531 0.47201 0.0
C41 C 0.85823 0.56863 0.53537 0.0
N42 N 0.91012 0.52076 0.40471 0.0
C43 C 0.90618 0.54299 0.31234 0.0
H44 H 0.98401 0.82647 0.76321 0.0
H45 H 0.88197 0.83892 1.00772 0.0
H46 H 0.87567 0.04128 0.84423 0.0
C47 C 0.95109 0.85768 0.80952 0.0
C48 C 0.92981 0.93726 0.79238 0.0
C49 C 0.93394 0.82048 0.88754 0.0
C50 C 0.89575 0.86534 0.94807 0.0
C51 C 0.87262 0.94333 0.93097 0.0
C52 C 0.88981 0.97866 0.85409 0.0
N53 N 0.83661 -0.01058 0.99347 0.0
C54 C 0.75065 0.98587 0.99124 0.0
H55 H 0.69322 0.0321 0.29044 0.0
H56 H 0.75188 0.138 0.54804 0.0
H57 H 0.53228 0.17737 0.4127 0.0
C58 C 0.67684 0.06488 0.34708 0.0
C59 C 0.60571 0.10187 0.34352 0.0
C60 C 0.73049 0.07667 0.42132 0.0
C61 C 0.71066 0.12572 0.49169 0.0
C62 C 0.63952 0.1627 0.488 0.0
C63 C 0.58648 0.14773 0.41531 0.0
N64 N 0.62556 0.22153 0.55431 0.0
C65 C 0.59528 0.29509 0.53752 0.0
H66 H 0.2612 0.78479 0.07485 0.0
H67 H 0.25373 0.56772 0.22333 0.0
H68 H 0.48887 0.73269 0.18769 0.0
C69 C 0.29224 0.74936 0.11718 0.0
C70 C 0.38043 0.76917 0.13037 0.0
C71 C 0.24568 0.67802 0.15305 0.0
C72 C 0.2876 0.62709 0.19984 0.0
C73 C 0.37337 0.64812 0.21442 0.0
C74 C 0.42077 0.72068 0.18177 0.0
N75 N 0.41078 0.58678 0.25053 0.0
C76 C 0.4626 0.60755 0.32184 0.0
H77 H 0.24759 0.33557 0.57635 0.0
H78 H 0.18283 0.58265 0.62219 0.0
H79 H -0.00859 0.35098 0.61034 0.0
C80 C 0.19977 0.374 0.57827 0.0
C81 C 0.11472 0.33209 0.58225 0.0
C82 C 0.22469 0.46451 0.59313 0.0
C83 C 0.16374 0.51349 0.60471 0.0
C84 C 0.0802 0.4728 0.6109 0.0
C85 C 0.05485 0.38227 0.59715 0.0
N86 N 0.03055 0.51935 0.65692 0.0
C87 C 0.02345 0.50656 0.74119 0.0
O88 O 0.02332 0.05724 0.74829 0.0
Mg89 Mg 0.0949 0.10656 0.65216 0.0
O90 O 0.9541 0.96859 0.64508 0.0
Mg91 Mg 0.00193 0.02684 0.50974 0.0
O92 O 0.0572 0.17656 0.55848 0.0
O93 O 0.1313 0.23303 0.67941 0.0
O94 O 0.05433 0.07368 0.37411 0.0
O95 O 0.86653 0.06206 0.48136 0.0
Mg96 Mg 0.9102 0.91743 0.34627 0.0
O97 O 0.94696 0.88785 0.4612 0.0
O98 O 0.0109 0.9668 0.27451 0.0
O99 O 0.81382 0.98607 0.3614 0.0
O100 O 0.88366 0.78771 0.36098 0.0
C101 C 0.19975 0.00845 0.57225 0.0
C102 C 0.96931 -0.01023 0.72447 0.0
C103 C 0.09788 0.24316 0.60767 0.0
C104 C 0.05756 0.03943 0.29887 0.0
C105 C 0.80788 0.04005 0.42221 0.0
C106 C 0.91631 0.80757 0.43648 0.0
O107 O 0.20394 0.0617 0.63513 0.0
O108 O 0.13305 0.9867 0.52426 0.0
O109 O 0.35664 0.18516 0.15936 0.0
Mg110 Mg 0.4864 0.22786 0.15896 0.0
O111 O 0.34967 0.0567 0.08899 0.0
Mg112 Mg 0.49242 0.04432 0.05772 0.0
O113 O 0.53271 0.18872 0.05104 0.0
O114 O 0.54351 0.32801 0.09369 0.0
O115 O 0.62972 0.03164 0.0341 0.0
O116 O 0.4681 0.0344 0.90322 0.0
Mg117 Mg 0.48199 0.87979 0.95385 0.0
O118 O 0.44806 0.89813 0.07182 0.0
O119 O 0.61495 0.91687 0.9426 0.0
O120 O 0.38415 0.90879 0.87942 0.0
O121 O 0.44619 0.76752 1.00423 0.0
C122 C 0.56394 0.11557 0.26328 0.0
C123 C 0.31467 0.11193 0.12949 0.0
C124 C 0.55977 0.26956 0.04026 0.0
C125 C 0.66125 0.97977 0.98704 0.0
C126 C 0.42095 0.9774 0.85085 0.0
C127 C 0.42905 0.81416 0.06785 0.0
O128 O 0.55439 0.19203 0.25614 0.0
O129 O 0.53931 0.05516 0.20395 0.0
O130 O 0.49018 0.72347 0.75058 0.0
Mg131 Mg 0.43554 0.5945 0.77363 0.0
O132 O 0.49377 0.70193 0.61112 0.0
Mg133 Mg 0.51619 0.55704 0.58385 0.0
O134 O 0.52184 0.54274 0.71726 0.0
O135 O 0.47867 0.49499 0.83554 0.0
O136 O 0.54345 0.4199 0.56713 0.0
O137 O 0.66506 0.61326 0.59054 0.0
Mg138 Mg 0.59688 0.5217 0.39841 0.0
O139 O 0.49487 0.5607 0.44473 0.0
O140 O 0.5816 0.39244 0.43811 0.0
O141 O 0.70539 0.56556 0.46781 0.0
O142 O 0.5883 0.65264 0.38548 0.0
C143 C 0.31148 0.50493 0.62326 0.0
C144 C 0.49518 0.75263 0.67838 0.0
C145 C 0.51606 0.48371 0.768 0.0
C146 C 0.56692 0.37001 0.51156 0.0
C147 C 0.72239 0.60232 0.5408 0.0
C148 C 0.51152 0.62356 0.39813 0.0
O149 O 0.32249 0.54349 0.69681 0.0
O150 O 0.3725 0.4991 0.57743 0.0
O151 O 0.01736 0.38817 0.17167 0.0
Mg152 Mg 0.01535 0.51696 0.21255 0.0
O153 O 0.02174 0.42357 0.04022 0.0
Mg154 Mg 0.98278 0.55723 0.01707 0.0
O155 O 0.92734 0.56399 0.14985 0.0
O156 O 0.91517 0.54768 0.27651 0.0
O157 O 0.94574 0.69671 0.97208 0.0
O158 O 0.8581 0.46593 0.98221 0.0
Mg159 Mg 0.91079 0.55937 0.85314 0.0
O160 O 0.0283 0.53881 0.88488 0.0
O161 O 0.95487 0.68595 0.83325 0.0
O162 O 0.7972 0.54922 0.91228 0.0
O163 O 0.9272 0.43482 0.81969 0.0
C164 C 0.15464 0.6474 0.14086 0.0
C165 C 0.02688 0.36972 0.0952 0.0
C166 C 0.88631 0.57285 0.21688 0.0
C167 C 0.94907 0.73158 0.90007 0.0
C168 C 0.79206 0.48194 0.9501 0.0
C169 C 0.00187 0.48103 0.82255 0.0
O170 O 0.12158 0.61167 0.20321 0.0
O171 O 0.1173 0.63622 0.06745 0.0
loop_
_geom_bond_atom_site_label_1
_geom_bond_atom_site_label_2
_geom_bond_distance
_geom_bond_site_symmetry_2
_ccdc_geom_bond_type
H0 C3 0.929 . S
H1 C6 0.929 . S
H2 C8 0.930 . S
C3 H0 0.929 . S
C3 C4 1.398 . S
C3 C5 1.396 . S
C4 C3 1.398 . S
C4 C8 1.407 . S
C5 C3 1.396 . S
C5 C6 1.394 . S
C6 H1 0.929 . S
C6 C5 1.394 . S
C6 C7 1.382 . S
C7 C6 1.382 . S
C7 C8 1.392 . S
C7 N9 1.420 . S
C8 H2 0.930 . S
C8 C4 1.407 . S
C8 C7 1.392 . S
N9 C7 1.420 . S
N9 C10 1.244 . S
C10 N9 1.244 . S
H11 C14 0.929 . S
H12 C17 0.929 1_545 S
H13 C19 0.930 . S
C14 H11 0.929 . S
C14 C15 1.398 . S
C14 C16 1.396 . S
C15 C14 1.398 . S
C15 C19 1.407 . S
C16 C14 1.396 . S
C16 C17 1.394 . S
C17 H12 0.929 1_565 S
C17 C16 1.394 . S
C17 C18 1.382 . S
C18 C17 1.382 . S
C18 C19 1.392 . S
C18 N20 1.420 . S
C19 H13 0.930 . S
C19 C15 1.407 . S
C19 C18 1.392 . S
N20 C18 1.420 . S
N20 C21 1.244 . S
C21 N20 1.244 . S
H22 C25 0.929 . S
H23 C28 0.929 . S
H24 C30 0.930 . S
C25 H22 0.929 . S
C25 C26 1.398 1_554 S
C25 C27 1.396 1_554 S
C26 C25 1.398 1_556 S
C26 C30 1.407 . S
C27 C25 1.396 1_556 S
C27 C28 1.394 . S
C28 H23 0.929 . S
C28 C27 1.394 . S
C28 C29 1.382 . S
C29 C28 1.382 . S
C29 C30 1.392 . S
C29 N31 1.420 . S
C30 H24 0.930 . S
C30 C26 1.407 . S
C30 C29 1.392 . S
N31 C29 1.420 . S
N31 C32 1.244 . S
C32 N31 1.244 . S
H33 C36 0.929 . S
H34 C39 0.929 . S
H35 C41 0.930 . S
C36 H33 0.929 . S
C36 C37 1.398 . S
C36 C38 1.396 . S
C37 C36 1.398 . S
C37 C41 1.407 . S
C38 C36 1.396 . S
C38 C39 1.394 . S
C39 H34 0.929 . S
C39 C38 1.394 . S
C39 C40 1.382 . S
C40 C39 1.382 . S
C40 C41 1.392 . S
C40 N42 1.420 . S
C41 H35 0.930 . S
C41 C37 1.407 . S
C41 C40 1.392 . S
N42 C40 1.420 . S
N42 C43 1.244 . S
C43 N42 1.244 . S
H44 C47 0.929 1_455 S
H45 C50 0.929 . S
H46 C52 0.930 1_545 S
C47 H44 0.929 1_655 S
C47 C48 1.398 . S
C47 C49 1.396 . S
C48 C47 1.398 . S
C48 C52 1.407 . S
C49 C47 1.396 . S
C49 C50 1.394 . S
C50 H45 0.929 . S
C50 C49 1.394 . S
C50 C51 1.382 . S
C51 C50 1.382 . S
C51 C52 1.392 . S
C51 N53 1.420 1_565 S
C52 H46 0.930 1_565 S
C52 C48 1.407 . S
C52 C51 1.392 . S
N53 C51 1.420 1_545 S
N53 C54 1.244 1_545 S
C54 N53 1.244 1_565 S
H55 C58 0.929 . S
H56 C61 0.929 . S
H57 C63 0.930 . S
C58 H55 0.929 . S
C58 C59 1.398 . S
C58 C60 1.396 . S
C59 C58 1.398 . S
C59 C63 1.407 . S
C60 C58 1.396 . S
C60 C61 1.394 . S
C61 H56 0.929 . S
C61 C60 1.394 . S
C61 C62 1.382 . S
C62 C61 1.382 . S
C62 C63 1.392 . S
C62 N64 1.420 . S
C63 H57 0.930 . S
C63 C59 1.407 . S
C63 C62 1.392 . S
N64 C62 1.420 . S
N64 C65 1.244 . S
C65 N64 1.244 . S
H66 C69 0.929 . S
H67 C72 0.929 . S
H68 C74 0.930 . S
C69 H66 0.929 . S
C69 C70 1.398 . S
C69 C71 1.396 . S
C70 C69 1.398 . S
C70 C74 1.407 . S
C71 C69 1.396 . S
C71 C72 1.394 . S
C72 H67 0.929 . S
C72 C71 1.394 . S
C72 C73 1.382 . S
C73 C72 1.382 . S
C73 C74 1.392 . S
C73 N75 1.420 . S
C74 H68 0.930 . S
C74 C70 1.407 . S
C74 C73 1.392 . S
N75 C73 1.420 . S
N75 C76 1.244 . S
C76 N75 1.244 . S
H77 C80 0.929 . S
H78 C83 0.929 . S
H79 C85 0.930 1_655 S
C80 H77 0.929 . S
C80 C81 1.398 . S
C80 C82 1.396 . S
C81 C80 1.398 . S
C81 C85 1.407 . S
C82 C80 1.396 . S
C82 C83 1.394 . S
C83 H78 0.929 . S
C83 C82 1.394 . S
C83 C84 1.382 . S
C84 C83 1.382 . S
C84 C85 1.392 . S
C84 N86 1.420 . S
C85 H79 0.930 1_455 S
C85 C81 1.407 . S
C85 C84 1.392 . S
N86 C84 1.420 . S
N86 C87 1.244 . S
C87 N86 1.244 . S
O88 Mg89 1.990 . S
O88 C102 1.253 1_445 S
Mg89 O88 1.990 . S
Mg89 O92 2.180 . S
Mg89 O93 2.117 . S
Mg89 O107 2.030 . S
O90 Mg91 2.072 1_665 S
O90 C102 1.260 . S
Mg91 O90 2.072 1_445 S
Mg91 O92 2.099 . S
Mg91 O94 2.079 . S
Mg91 O95 2.072 1_455 S
Mg91 O97 2.099 1_445 S
Mg91 O108 2.079 1_545 S
O92 Mg89 2.180 . S
O92 Mg91 2.099 . S
O92 C103 1.279 . S
O93 Mg89 2.117 . S
O93 C103 1.250 . S
O94 Mg91 2.079 . S
O94 C104 1.264 . S
O95 Mg91 2.072 1_655 S
O95 C105 1.260 . S
Mg96 O97 2.180 . S
Mg96 O98 2.030 1_565 S
Mg96 O99 1.990 1_565 S
Mg96 O100 2.117 . S
O97 Mg91 2.099 1_665 S
O97 Mg96 2.180 . S
O97 C106 1.279 . S
O98 Mg96 2.030 1_545 S
O98 C104 1.248 1_655 S
O99 Mg96 1.990 1_545 S
O99 C105 1.253 . S
O100 Mg96 2.117 . S
O100 C106 1.250 . S
C101 O107 1.248 1_565 S
C101 O108 1.264 . S
C102 O88 1.253 1_665 S
C102 O90 1.260 . S
C103 O92 1.279 . S
C103 O93 1.250 . S
C104 O94 1.264 . S
C104 O98 1.248 1_455 S
C105 O95 1.260 . S
C105 O99 1.253 . S
C106 O97 1.279 . S
C106 O100 1.250 . S
O107 Mg89 2.030 . S
O107 C101 1.248 1_545 S
O108 Mg91 2.079 1_565 S
O108 C101 1.264 . S
O109 Mg110 1.990 . S
O109 C123 1.253 . S
Mg110 O109 1.990 . S
Mg110 O113 2.180 . S
Mg110 O114 2.117 . S
Mg110 O128 2.030 . S
O111 Mg112 2.072 . S
O111 C123 1.260 . S
Mg112 O111 2.072 . S
Mg112 O113 2.099 . S
Mg112 O115 2.079 . S
Mg112 O116 2.072 1_554 S
Mg112 O118 2.099 1_545 S
Mg112 O129 2.079 . S
O113 Mg110 2.180 . S
O113 Mg112 2.099 . S
O113 C124 1.279 1_554 S
O114 Mg110 2.117 . S
O114 C124 1.250 1_554 S
O115 Mg112 2.079 . S
O115 C125 1.264 1_544 S
O116 Mg112 2.072 1_556 S
O116 C126 1.260 1_545 S
Mg117 O118 2.180 1_556 S
Mg117 O119 2.030 . S
Mg117 O120 1.990 . S
Mg117 O121 2.117 1_556 S
O118 Mg112 2.099 1_565 S
O118 Mg117 2.180 1_554 S
O118 C127 1.279 . S
O119 Mg117 2.030 . S
O119 C125 1.248 . S
O120 Mg117 1.990 . S
O120 C126 1.253 . S
O121 Mg117 2.117 1_554 S
O121 C127 1.250 . S
C122 O128 1.248 . S
C122 O129 1.264 . S
C123 O109 1.253 . S
C123 O111 1.260 . S
C124 O113 1.279 1_556 S
C124 O114 1.250 1_556 S
C125 O115 1.264 1_566 S
C125 O119 1.248 . S
C126 O116 1.260 1_565 S
C126 O120 1.253 . S
C127 O118 1.279 . S
C127 O121 1.250 . S
O128 Mg110 2.030 . S
O128 C122 1.248 . S
O129 Mg112 2.079 . S
O129 C122 1.264 . S
O130 Mg131 1.990 . S
O130 C144 1.253 . S
Mg131 O130 1.990 . S
Mg131 O134 2.180 . S
Mg131 O135 2.117 . S
Mg131 O149 2.030 . S
O132 Mg133 2.072 . S
O132 C144 1.260 . S
Mg133 O132 2.072 . S
Mg133 O134 2.099 . S
Mg133 O136 2.079 . S
Mg133 O137 2.072 . S
Mg133 O139 2.099 . S
Mg133 O150 2.079 . S
O134 Mg131 2.180 . S
O134 Mg133 2.099 . S
O134 C145 1.279 . S
O135 Mg131 2.117 . S
O135 C145 1.250 . S
O136 Mg133 2.079 . S
O136 C146 1.264 . S
O137 Mg133 2.072 . S
O137 C147 1.260 . S
Mg138 O139 2.180 . S
Mg138 O140 2.030 . S
Mg138 O141 1.990 . S
Mg138 O142 2.117 . S
O139 Mg133 2.099 . S
O139 Mg138 2.180 . S
O139 C148 1.279 . S
O140 Mg138 2.030 . S
O140 C146 1.248 . S
O141 Mg138 1.990 . S
O141 C147 1.253 . S
O142 Mg138 2.117 . S
O142 C148 1.250 . S
C143 O149 1.248 . S
C143 O150 1.264 . S
C144 O130 1.253 . S
C144 O132 1.260 . S
C145 O134 1.279 . S
C145 O135 1.250 . S
C146 O136 1.264 . S
C146 O140 1.248 . S
C147 O137 1.260 . S
C147 O141 1.253 . S
C148 O139 1.279 . S
C148 O142 1.250 . S
O149 Mg131 2.030 . S
O149 C143 1.248 . S
O150 Mg133 2.079 . S
O150 C143 1.264 . S
O151 Mg152 1.990 . S
O151 C165 1.253 . S
Mg152 O151 1.990 . S
Mg152 O155 2.180 . S
Mg152 O156 2.117 1_455 S
Mg152 O170 2.030 . S
O153 Mg154 2.072 . S
O153 C165 1.260 . S
Mg154 O153 2.072 . S
Mg154 O155 2.099 . S
Mg154 O157 2.079 1_554 S
Mg154 O158 2.072 1_454 S
Mg154 O160 2.099 1_554 S
Mg154 O171 2.079 . S
O155 Mg152 2.180 . S
O155 Mg154 2.099 . S
O155 C166 1.279 1_455 S
O156 Mg152 2.117 1_655 S
O156 C166 1.250 . S
O157 Mg154 2.079 1_556 S
O157 C167 1.264 1_455 S
O158 Mg154 2.072 1_656 S
O158 C168 1.260 . S
Mg159 O160 2.180 1_655 S
Mg159 O161 2.030 . S
Mg159 O162 1.990 . S
Mg159 O163 2.117 1_655 S
O160 Mg154 2.099 1_556 S
O160 Mg159 2.180 1_455 S
O160 C169 1.279 . S
O161 Mg159 2.030 . S
O161 C167 1.248 . S
O162 Mg159 1.990 . S
O162 C168 1.253 . S
O163 Mg159 2.117 1_455 S
O163 C169 1.250 . S
C164 O170 1.248 . S
C164 O171 1.264 . S
C165 O151 1.253 . S
C165 O153 1.260 . S
C166 O155 1.279 1_655 S
C166 O156 1.250 . S
C167 O157 1.264 1_655 S
C167 O161 1.248 . S
C168 O158 1.260 . S
C168 O162 1.253 . S
C169 O160 1.279 . S
C169 O163 1.250 . S
O170 Mg152 2.030 . S
O170 C164 1.248 . S
O171 Mg154 2.079 . S
O171 C164 1.264 . S
C4 C104 1.914 . S
C16 C126 1.812 . S
C145 C32 0.847 . S
C43 C166 1.218 . S
C123 C5 2.228 . S
C101 C21 1.287 . S
C168 C27 1.490 . S
C147 C37 1.337 . S
C10 C165 1.802 . S
C124 C26 1.484 . S
C38 C106 1.550 . S
C15 C144 1.689 . S
C102 C48 1.864 . S
C59 C122 1.744 . S
C76 C148 1.173 . S
C87 C169 0.987 . S
C54 C125 1.451 . S
C105 C60 2.132 . S
C164 C71 1.033 . S
C143 C82 1.691 . S
C49 C167 1.807 . S
C127 C70 0.845 . S
C103 C81 1.676 . S
C65 C146 1.770 . S
