# Generated by pormake.
# Topology rtl, (3,6)-cn, num edge types: 1
# Building blocks:
#     Node 0, Type 0, BuildingBlock: PAMTOO_clean_linker_0, # of connection points: 3
#     Node 1, Type 0, BuildingBlock: PAMTOO_clean_linker_0, # of connection points: 3
#     Node 2, Type 0, BuildingBlock: PAMTOO_clean_linker_0, # of connection points: 3
#     Node 3, Type 0, BuildingBlock: PAMTOO_clean_linker_0, # of connection points: 3
#     Node 4, Type 1, BuildingBlock: VOLQOD_clean_sbu_1, # of connection points: 6
#     Node 5, Type 1, BuildingBlock: VOLQOD_clean_sbu_1, # of connection points: 6
#     Edge 6, Type (0, 1), BuildingBlock: OJICUG_clean_linker_0, # of connection points: 2
#     Edge 7, Type (0, 1), BuildingBlock: OJICUG_clean_linker_0, # of connection points: 2
#     Edge 8, Type (0, 1), BuildingBlock: OJICUG_clean_linker_0, # of connection points: 2
#     Edge 9, Type (0, 1), BuildingBlock: OJICUG_clean_linker_0, # of connection points: 2
#     Edge 10, Type (0, 1), BuildingBlock: OJICUG_clean_linker_0, # of connection points: 2
#     Edge 11, Type (0, 1), BuildingBlock: OJICUG_clean_linker_0, # of connection points: 2
#     Edge 12, Type (0, 1), BuildingBlock: OJICUG_clean_linker_0, # of connection points: 2
#     Edge 13, Type (0, 1), BuildingBlock: OJICUG_clean_linker_0, # of connection points: 2
#     Edge 14, Type (0, 1), BuildingBlock: OJICUG_clean_linker_0, # of connection points: 2
#     Edge 15, Type (0, 1), BuildingBlock: OJICUG_clean_linker_0, # of connection points: 2
#     Edge 16, Type (0, 1), BuildingBlock: OJICUG_clean_linker_0, # of connection points: 2
#     Edge 17, Type (0, 1), BuildingBlock: OJICUG_clean_linker_0, # of connection points: 2
# Relax obj value: 0.042
# Max RMSD: 0.144
# Mean RMSD: 0.091
data_MOF--net-rtl--node1-VOLQOD_clean_sbu_1--node2-PAMTOO_clean_linker_0--edge1-OJICUG_clean_linker_0
_symmetry_space_group_name_H-M    P1
_symmetry_Int_Tables_number       1
_symmetry_cell_setting            triclinic
loop_
_symmetry_equiv_pos_as_xyz
'x, y, z'
_cell_length_a     27.724959
_cell_length_b     27.987473
_cell_length_c     16.803823
_cell_angle_alpha  92.990664
_cell_angle_beta   90.739417
_cell_angle_gamma 89.961
loop_
_atom_site_label
_atom_site_type_symbol
_atom_site_fract_x
_atom_site_fract_y
_atom_site_fract_z
_atom_type_partial_charge
H0 H 0.12729 0.89902 -0.02175 0.0
H1 H 0.21577 0.79973 0.10186 0.0
H2 H 0.22046 0.80167 0.84645 0.0
H3 H 0.22396 0.70475 0.91278 0.0
C4 C 0.24452 0.71411 0.96877 0.0
O5 O 0.25558 0.76213 -0.02714 0.0
H6 H 0.22147 0.70549 0.01987 0.0
C7 C 0.15387 0.87054 -0.02289 0.0
C8 C 0.17204 0.85297 0.90377 0.0
C9 C 0.16921 0.85167 0.04892 0.0
C10 C 0.20285 0.81421 0.04694 0.0
C11 C 0.22118 0.79628 -0.02607 0.0
C12 C 0.20555 0.81534 0.90242 0.0
H13 H 0.63407 0.606 0.48699 0.0
H14 H 0.73522 0.69221 0.36582 0.0
H15 H 0.7361 0.69425 0.62194 0.0
H16 H 0.736 0.78747 0.54461 0.0
C17 C 0.76087 0.7785 0.49447 0.0
O18 O 0.77422 0.73099 0.49657 0.0
H19 H 0.74155 0.78447 0.43741 0.0
C20 C 0.66387 0.63115 0.48894 0.0
C21 C 0.68299 0.64775 0.56294 0.0
C22 C 0.68221 0.64689 0.4175 0.0
C23 C 0.72129 0.67879 0.42033 0.0
C24 C 0.74042 0.69612 0.49408 0.0
C25 C 0.72178 0.68002 0.56526 0.0
H26 H 0.9087 0.1192 0.00038 0.0
H27 H 0.82393 0.22196 0.8788 0.0
H28 H 0.80134 0.20323 0.1275 0.0
H29 H 0.71333 0.21284 0.02212 0.0
C30 C 0.72779 0.23941 -0.01852 0.0
O31 O 0.77463 0.25058 0.00398 0.0
H32 H 0.72695 0.22336 0.91949 0.0
C33 C 0.88082 0.14637 0.00164 0.0
C34 C 0.85653 0.15796 0.07296 0.0
C35 C 0.86911 0.16872 0.93123 0.0
C36 C 0.83346 0.20428 0.93267 0.0
C37 C 0.80944 0.21681 0.00358 0.0
C38 C 0.82086 0.19373 0.07352 0.0
H39 H 0.39937 0.39887 0.45852 0.0
H40 H 0.31186 0.29947 0.57957 0.0
H41 H 0.30597 0.30125 0.32395 0.0
H42 H 0.21217 0.29305 0.40069 0.0
C43 C 0.22325 0.2737 0.45419 0.0
O44 O 0.27143 0.26181 0.44951 0.0
H45 H 0.21689 0.29801 0.50764 0.0
C46 C 0.37278 0.37041 0.45658 0.0
C47 C 0.35434 0.3528 0.38282 0.0
C48 C 0.35765 0.35179 0.52788 0.0
C49 C 0.32454 0.31388 0.525 0.0
C50 C 0.30584 0.29593 0.45147 0.0
C51 C 0.32112 0.31494 0.38037 0.0
O52 O 0.90832 0.95876 0.50362 0.0
Zn53 Zn 0.9449 0.02053 0.4984 0.0
O54 O 0.014 0.007 0.48841 0.0
Zn55 Zn 0.04895 0.03832 0.5782 0.0
Zn56 Zn 0.02618 0.93736 0.48375 0.0
Zn57 Zn 0.03659 0.03352 0.3915 0.0
O58 O 0.09545 0.08853 0.54374 0.0
O59 O 0.08222 0.0882 0.4134 0.0
O60 O 0.93089 0.06129 0.59751 0.0
O61 O 1.00315 0.07239 0.65363 0.0
O62 O 0.08467 0.98972 0.63987 0.0
O63 O 0.06662 0.91939 0.57931 0.0
O64 O 0.06287 0.91578 0.38363 0.0
O65 O 0.91815 0.05506 0.40454 0.0
O66 O 0.07144 0.98444 0.32503 0.0
O67 O 0.98192 0.05738 0.32594 0.0
C68 C 0.9193 0.91452 0.49638 0.0
C69 C 0.1034 0.10529 0.47613 0.0
C70 C 0.08787 0.94425 0.63508 0.0
C71 C 0.95772 0.07908 0.6535 0.0
C72 C 0.07899 0.93972 0.32714 0.0
C73 C 0.93761 0.0655 0.33956 0.0
O74 O 0.96283 0.90091 0.48609 0.0
O75 O 0.61777 0.44723 -0.02458 0.0
Zn76 Zn 0.58481 0.51234 -0.02331 0.0
O77 O 0.51398 0.50504 -0.02616 0.0
Zn78 Zn 0.48748 0.53491 0.88128 0.0
Zn79 Zn 0.49662 0.43703 0.96828 0.0
Zn80 Zn 0.48533 0.53626 0.06823 0.0
O81 O 0.43606 0.58315 0.90945 0.0
O82 O 0.43468 0.58492 0.04128 0.0
O83 O 0.60815 0.54856 0.88239 0.0
O84 O 0.53939 0.56668 0.82175 0.0
O85 O 0.45581 0.48621 0.80692 0.0
O86 O 0.46037 0.41766 0.8671 0.0
O87 O 0.45568 0.4198 0.0603 0.0
O88 O 0.60596 0.54965 0.07793 0.0
O89 O 0.45125 0.48835 0.13221 0.0
O90 O 0.53677 0.56772 0.13778 0.0
C91 C 0.60111 0.40472 -0.02491 0.0
C92 C 0.41863 0.59912 -0.02477 0.0
C93 C 0.44687 0.4417 0.8086 0.0
C94 C 0.5852 0.56877 0.82707 0.0
C95 C 0.44123 0.44407 0.1215 0.0
C96 C 0.58265 0.56972 0.13548 0.0
O97 O 0.55593 0.39668 -0.02715 0.0
C98 C 0.18602 0.20975 0.53383 0.0
C99 C 0.19368 0.22913 0.45968 0.0
H100 H 0.15134 0.15538 0.59746 0.0
C101 C 0.17408 0.20605 0.39063 0.0
H102 H 0.20159 0.22664 0.58766 0.0
C103 C 0.14546 0.16533 0.39591 0.0
C104 C 0.13626 0.14665 0.4704 0.0
H105 H 0.18031 0.21997 0.33269 0.0
H106 H 0.1301 0.14888 0.34159 0.0
C107 C 0.15742 0.16895 0.53924 0.0
C108 C 0.31435 0.6727 0.89986 0.0
C109 C 0.29046 0.68567 -0.02919 0.0
H110 H 0.37367 0.63535 0.84547 0.0
C111 C 0.31086 0.6733 0.04378 0.0
H112 H 0.29974 0.68282 0.84304 0.0
C113 C 0.35333 0.64636 0.04555 0.0
C114 C 0.37639 0.63163 -0.02571 0.0
H115 H 0.29351 0.68389 0.09934 0.0
H116 H 0.36751 0.63632 0.10268 0.0
C117 C 0.35678 0.64578 0.90149 0.0
C118 C 0.79668 0.8594 0.52739 0.0
C119 C 0.8038 0.81164 0.50052 0.0
H120 H 0.82732 0.92902 0.54777 0.0
C121 C 0.84953 0.79756 0.47254 0.0
H122 H 0.76154 0.87142 0.54762 0.0
C123 C 0.88754 0.83058 0.4729 0.0
C124 C 0.88019 0.87854 0.49937 0.0
H125 H 0.85581 0.76127 0.44948 0.0
H126 H 0.92229 0.81882 0.45061 0.0
C127 C 0.83434 0.89243 0.52696 0.0
C128 C 0.71463 0.32852 0.96659 0.0
C129 C 0.69637 0.28341 -0.01591 0.0
H130 H 0.69903 0.4026 0.95133 0.0
C131 C 0.64684 0.27857 -0.00258 0.0
H132 H 0.7525 0.33304 0.95385 0.0
C133 C 0.61621 0.31802 -0.00519 0.0
C134 C 0.63436 0.36337 -0.02152 0.0
H135 H 0.6317 0.244 0.00921 0.0
H136 H 0.57818 0.31285 0.00558 0.0
C137 C 0.68399 0.36828 0.96479 0.0
C138 C 0.13152 0.84444 0.18336 0.0
C139 C 0.15082 0.87297 0.12513 0.0
H140 H 0.09316 0.84312 0.2935 0.0
C141 C 0.14968 0.9229 0.1373 0.0
H142 H 0.13199 0.8058 0.17519 0.0
C143 C 0.12764 0.9441 0.20411 0.0
C144 C 0.10607 0.91593 0.26074 0.0
H145 H 0.16509 0.94572 0.09409 0.0
H146 H 0.1267 0.98281 0.2103 0.0
C147 C 0.10919 0.86579 0.25074 0.0
C148 C 0.60929 0.63603 0.64248 0.0
C149 C 0.65964 0.63296 0.63652 0.0
H150 H 0.54662 0.61876 0.70706 0.0
C151 C 0.68623 0.61226 0.69756 0.0
H152 H 0.58801 0.65246 0.59675 0.0
C153 C 0.6624 0.59253 0.76132 0.0
C154 C 0.61167 0.59352 0.76501 0.0
H155 H 0.72512 0.60947 0.69412 0.0
H156 H 0.68356 0.57523 0.80617 0.0
C157 C 0.58562 0.61665 0.70585 0.0
C158 C 0.88168 0.08364 0.13944 0.0
C159 C 0.86945 0.13253 0.14579 0.0
H160 H 0.91348 0.02437 0.19647 0.0
C161 C 0.87391 0.15736 0.22056 0.0
H162 H 0.87735 0.06298 0.08349 0.0
C163 C 0.89324 0.13452 0.286 0.0
C164 C 0.9087 0.08685 0.27713 0.0
H165 H 0.86502 0.19501 0.22749 0.0
H166 H 0.89874 0.15483 0.34205 0.0
C167 C 0.90185 0.06129 0.20412 0.0
C168 C 0.37763 0.42394 0.61473 0.0
C169 C 0.37579 0.37387 0.60432 0.0
H170 H 0.40141 0.48441 0.68693 0.0
C171 C 0.39442 0.34587 0.66446 0.0
H172 H 0.36266 0.4464 0.56995 0.0
C173 C 0.41668 0.36775 0.7322 0.0
C174 C 0.42055 0.41791 0.74055 0.0
H175 H 0.39347 0.30718 0.65767 0.0
H176 H 0.43202 0.34539 0.77674 0.0
C177 C 0.39986 0.4457 0.68183 0.0
C178 C 0.60739 0.63363 0.33556 0.0
C179 C 0.65792 0.63174 0.34126 0.0
H180 H 0.54424 0.6161 0.26648 0.0
C181 C 0.68412 0.61279 0.27596 0.0
H182 H 0.58634 0.64884 0.38453 0.0
C183 C 0.65989 0.59378 0.20771 0.0
C184 C 0.60911 0.59375 0.20361 0.0
H185 H 0.72312 0.61097 0.27894 0.0
H186 H 0.6809 0.57796 0.15924 0.0
C187 C 0.58329 0.61494 0.26768 0.0
C188 C 0.94258 0.14468 0.85428 0.0
C189 C 0.89251 0.1522 0.85606 0.0
H190 H 1.00247 0.11595 0.78897 0.0
C191 C 0.86445 0.13895 0.78836 0.0
H192 H 0.96506 0.15499 0.90553 0.0
C193 C 0.88577 0.11628 0.72156 0.0
C194 C 0.93561 0.10672 0.72114 0.0
H195 H 0.82571 0.14402 0.78849 0.0
H196 H 0.86296 0.10511 0.67119 0.0
C197 C 0.96394 0.1223 0.78748 0.0
C198 C 0.38753 0.34785 0.2444 0.0
C199 C 0.36993 0.37545 0.30985 0.0
H200 H 0.42429 0.34796 0.13302 0.0
C201 C 0.37174 0.42557 0.30901 0.0
H202 H 0.38661 0.30914 0.24381 0.0
C203 C 0.39349 0.44774 0.2465 0.0
C204 C 0.41376 0.42029 0.18307 0.0
H205 H 0.35763 0.44769 0.35822 0.0
H206 H 0.39551 0.48644 0.24909 0.0
C207 C 0.40932 0.37011 0.18139 0.0
C208 C 0.15571 0.92544 0.8276 0.0
C209 C 0.15617 0.87538 0.8299 0.0
H210 H 0.13443 0.98627 0.76441 0.0
C211 C 0.13785 0.84767 0.76428 0.0
H212 H 0.17022 0.94762 0.87701 0.0
C213 C 0.11695 0.86986 0.69935 0.0
C214 C 0.11442 0.92011 0.69887 0.0
H215 H 0.13773 0.80899 0.76479 0.0
H216 H 0.10151 0.84766 0.65082 0.0
C217 C 0.13522 0.94754 0.76288 0.0
loop_
_geom_bond_atom_site_label_1
_geom_bond_atom_site_label_2
_geom_bond_distance
_geom_bond_site_symmetry_2
_ccdc_geom_bond_type
H0 C7 0.929 . S
H1 C10 0.930 . S
H2 C12 0.929 . S
H3 C4 0.969 . S
C4 H3 0.969 . S
C4 O5 1.550 1_554 S
C4 H6 0.973 . S
O5 C4 1.550 1_556 S
O5 C11 1.412 . S
H6 C4 0.973 . S
C7 H0 0.929 . S
C7 C8 1.400 1_554 S
C7 C9 1.364 . S
C8 C7 1.400 1_556 S
C8 C12 1.377 . S
C9 C7 1.364 . S
C9 C10 1.374 . S
C10 H1 0.930 . S
C10 C9 1.374 . S
C10 C11 1.383 1_554 S
C11 O5 1.412 . S
C11 C10 1.383 1_556 S
C11 C12 1.394 . S
C12 H2 0.929 . S
C12 C8 1.377 . S
C12 C11 1.394 . S
H13 C20 0.929 . S
H14 C23 0.930 . S
H15 C25 0.929 . S
H16 C17 0.969 . S
C17 H16 0.969 . S
C17 O18 1.550 . S
C17 H19 0.973 . S
O18 C17 1.550 . S
O18 C24 1.412 . S
H19 C17 0.973 . S
C20 H13 0.929 . S
C20 C21 1.400 . S
C20 C22 1.364 . S
C21 C20 1.400 . S
C21 C25 1.377 . S
C22 C20 1.364 . S
C22 C23 1.374 . S
C23 H14 0.930 . S
C23 C22 1.374 . S
C23 C24 1.383 . S
C24 O18 1.412 . S
C24 C23 1.383 . S
C24 C25 1.394 . S
C25 H15 0.929 . S
C25 C21 1.377 . S
C25 C24 1.394 . S
H26 C33 0.929 . S
H27 C36 0.930 . S
H28 C38 0.929 . S
H29 C30 0.969 . S
C30 H29 0.969 . S
C30 O31 1.550 1_556 S
C30 H32 0.973 . S
O31 C30 1.550 1_554 S
O31 C37 1.412 . S
H32 C30 0.973 . S
C33 H26 0.929 . S
C33 C34 1.400 . S
C33 C35 1.364 1_554 S
C34 C33 1.400 . S
C34 C38 1.377 . S
C35 C33 1.364 1_556 S
C35 C36 1.374 . S
C36 H27 0.930 . S
C36 C35 1.374 . S
C36 C37 1.383 1_556 S
C37 O31 1.412 . S
C37 C36 1.383 1_554 S
C37 C38 1.394 . S
C38 H28 0.929 . S
C38 C34 1.377 . S
C38 C37 1.394 . S
H39 C46 0.929 . S
H40 C49 0.930 . S
H41 C51 0.929 . S
H42 C43 0.969 . S
C43 H42 0.969 . S
C43 O44 1.550 . S
C43 H45 0.973 . S
O44 C43 1.550 . S
O44 C50 1.412 . S
H45 C43 0.973 . S
C46 H39 0.929 . S
C46 C47 1.400 . S
C46 C48 1.364 . S
C47 C46 1.400 . S
C47 C51 1.377 . S
C48 C46 1.364 . S
C48 C49 1.374 . S
C49 H40 0.930 . S
C49 C48 1.374 . S
C49 C50 1.383 . S
C50 O44 1.412 . S
C50 C49 1.383 . S
C50 C51 1.394 . S
C51 H41 0.929 . S
C51 C47 1.377 . S
C51 C50 1.394 . S
O52 Zn53 1.953 1_565 S
O52 C68 1.225 . S
Zn53 O52 1.953 1_545 S
Zn53 O54 1.949 1_655 S
Zn53 O60 1.919 . S
Zn53 O65 1.924 . S
O54 Zn53 1.949 1_455 S
O54 Zn55 1.923 . S
O54 Zn56 1.950 1_545 S
O54 Zn57 1.945 . S
Zn55 O54 1.923 . S
Zn55 O58 1.933 . S
Zn55 O61 1.941 . S
Zn55 O62 1.965 1_545 S
Zn56 O54 1.950 1_565 S
Zn56 O63 1.938 . S
Zn56 O64 1.906 . S
Zn56 O74 1.953 1_455 S
Zn57 O54 1.945 . S
Zn57 O59 1.932 . S
Zn57 O66 1.977 1_545 S
Zn57 O67 1.910 1_455 S
O58 Zn55 1.933 . S
O58 C69 1.226 . S
O59 Zn57 1.932 . S
O59 C69 1.307 . S
O60 Zn53 1.919 . S
O60 C71 1.253 . S
O61 Zn55 1.941 . S
O61 C71 1.283 1_455 S
O62 Zn55 1.965 1_565 S
O62 C70 1.303 . S
O63 Zn56 1.938 . S
O63 C70 1.247 . S
O64 Zn56 1.906 . S
O64 C72 1.304 . S
O65 Zn53 1.924 . S
O65 C73 1.311 . S
O66 Zn57 1.977 1_565 S
O66 C72 1.272 . S
O67 Zn57 1.910 1_655 S
O67 C73 1.231 . S
C68 O52 1.225 . S
C68 O74 1.298 . S
C69 O58 1.226 . S
C69 O59 1.307 . S
C70 O62 1.303 . S
C70 O63 1.247 . S
C71 O60 1.253 . S
C71 O61 1.283 1_655 S
C72 O64 1.304 . S
C72 O66 1.272 . S
C73 O65 1.311 . S
C73 O67 1.231 . S
O74 Zn56 1.953 1_655 S
O74 C68 1.298 . S
O75 Zn76 1.953 . S
O75 C91 1.225 1_556 S
Zn76 O75 1.953 . S
Zn76 O77 1.949 1_556 S
Zn76 O83 1.919 . S
Zn76 O88 1.924 1_556 S
O77 Zn76 1.949 1_554 S
O77 Zn78 1.923 1_554 S
O77 Zn79 1.950 . S
O77 Zn80 1.945 . S
Zn78 O77 1.923 1_556 S
Zn78 O81 1.933 . S
Zn78 O84 1.941 . S
Zn78 O85 1.965 . S
Zn79 O77 1.950 . S
Zn79 O86 1.938 1_554 S
Zn79 O87 1.906 . S
Zn79 O97 1.953 . S
Zn80 O77 1.945 . S
Zn80 O82 1.932 . S
Zn80 O89 1.977 . S
Zn80 O90 1.910 . S
O81 Zn78 1.933 . S
O81 C92 1.226 1_556 S
O82 Zn80 1.932 . S
O82 C92 1.307 . S
O83 Zn76 1.919 . S
O83 C94 1.253 . S
O84 Zn78 1.941 . S
O84 C94 1.283 . S
O85 Zn78 1.965 . S
O85 C93 1.303 . S
O86 Zn79 1.938 1_556 S
O86 C93 1.247 . S
O87 Zn79 1.906 . S
O87 C95 1.304 . S
O88 Zn76 1.924 1_554 S
O88 C96 1.311 . S
O89 Zn80 1.977 . S
O89 C95 1.272 . S
O90 Zn80 1.910 . S
O90 C96 1.231 . S
C91 O75 1.225 1_554 S
C91 O97 1.298 . S
C92 O81 1.226 1_554 S
C92 O82 1.307 . S
C93 O85 1.303 . S
C93 O86 1.247 . S
C94 O83 1.253 . S
C94 O84 1.283 . S
C95 O87 1.304 . S
C95 O89 1.272 . S
C96 O88 1.311 . S
C96 O90 1.231 . S
O97 Zn79 1.953 . S
O97 C91 1.298 . S
C98 C99 1.387 . S
C98 H102 0.950 . S
C98 C107 1.390 . S
C99 C98 1.387 . S
C99 C101 1.387 . S
H100 C107 0.950 . S
C101 C99 1.387 . S
C101 C103 1.390 . S
C101 H105 0.950 . S
H102 C98 0.950 . S
C103 C101 1.390 . S
C103 C104 1.387 . S
C103 H106 0.950 . S
C104 C103 1.387 . S
C104 C107 1.387 . S
H105 C101 0.950 . S
H106 C103 0.950 . S
C107 C98 1.390 . S
C107 H100 0.950 . S
C107 C104 1.387 . S
C108 C109 1.387 1_556 S
C108 H112 0.950 . S
C108 C117 1.390 . S
C109 C108 1.387 1_554 S
C109 C111 1.387 . S
H110 C117 0.950 . S
C111 C109 1.387 . S
C111 C113 1.390 . S
C111 H115 0.950 . S
H112 C108 0.950 . S
C113 C111 1.390 . S
C113 C114 1.387 . S
C113 H116 0.950 . S
C114 C113 1.387 . S
C114 C117 1.387 1_554 S
H115 C111 0.950 . S
H116 C113 0.950 . S
C117 C108 1.390 . S
C117 H110 0.950 . S
C117 C114 1.387 1_556 S
C118 C119 1.387 . S
C118 H122 0.950 . S
C118 C127 1.390 . S
C119 C118 1.387 . S
C119 C121 1.387 . S
H120 C127 0.950 . S
C121 C119 1.387 . S
C121 C123 1.390 . S
C121 H125 0.950 . S
H122 C118 0.950 . S
C123 C121 1.390 . S
C123 C124 1.387 . S
C123 H126 0.950 . S
C124 C123 1.387 . S
C124 C127 1.387 . S
H125 C121 0.950 . S
H126 C123 0.950 . S
C127 C118 1.390 . S
C127 H120 0.950 . S
C127 C124 1.387 . S
C128 C129 1.399 . S
C128 H132 0.950 . S
C128 C137 1.390 . S
C129 C128 1.399 . S
C129 C131 1.376 1_556 S
H130 C137 0.950 . S
C131 C129 1.376 1_554 S
C131 C133 1.390 . S
C131 H135 0.950 . S
H132 C128 0.950 . S
C133 C131 1.390 . S
C133 C134 1.387 . S
C133 H136 0.950 . S
C134 C133 1.387 . S
C134 C137 1.387 1_554 S
H135 C131 0.950 . S
H136 C133 0.950 . S
C137 C128 1.390 . S
C137 H130 0.950 . S
C137 C134 1.387 1_556 S
C138 C139 1.387 . S
C138 H142 0.950 . S
C138 C147 1.390 . S
C139 C138 1.387 . S
C139 C141 1.387 . S
H140 C147 0.950 . S
C141 C139 1.387 . S
C141 C143 1.390 . S
C141 H145 0.950 . S
H142 C138 0.950 . S
C143 C141 1.390 . S
C143 C144 1.387 . S
C143 H146 0.950 . S
C144 C143 1.387 . S
C144 C147 1.387 . S
H145 C141 0.950 . S
H146 C143 0.950 . S
C147 C138 1.390 . S
C147 H140 0.950 . S
C147 C144 1.387 . S
C148 C149 1.387 . S
C148 H152 0.950 . S
C148 C157 1.390 . S
C149 C148 1.387 . S
C149 C151 1.387 . S
H150 C157 0.950 . S
C151 C149 1.387 . S
C151 C153 1.390 . S
C151 H155 0.950 . S
H152 C148 0.950 . S
C153 C151 1.390 . S
C153 C154 1.387 . S
C153 H156 0.950 . S
C154 C153 1.387 . S
C154 C157 1.387 . S
H155 C151 0.950 . S
H156 C153 0.950 . S
C157 C148 1.390 . S
C157 H150 0.950 . S
C157 C154 1.387 . S
C158 C159 1.387 . S
C158 H162 0.950 . S
C158 C167 1.390 . S
C159 C158 1.387 . S
C159 C161 1.387 . S
H160 C167 0.950 . S
C161 C159 1.387 . S
C161 C163 1.390 . S
C161 H165 0.950 . S
H162 C158 0.950 . S
C163 C161 1.390 . S
C163 C164 1.387 . S
C163 H166 0.950 . S
C164 C163 1.387 . S
C164 C167 1.387 . S
H165 C161 0.950 . S
H166 C163 0.950 . S
C167 C158 1.390 . S
C167 H160 0.950 . S
C167 C164 1.387 . S
C168 C169 1.387 . S
C168 H172 0.950 . S
C168 C177 1.390 . S
C169 C168 1.387 . S
C169 C171 1.387 . S
H170 C177 0.950 . S
C171 C169 1.387 . S
C171 C173 1.390 . S
C171 H175 0.950 . S
H172 C168 0.950 . S
C173 C171 1.390 . S
C173 C174 1.387 . S
C173 H176 0.950 . S
C174 C173 1.387 . S
C174 C177 1.387 . S
H175 C171 0.950 . S
H176 C173 0.950 . S
C177 C168 1.390 . S
C177 H170 0.950 . S
C177 C174 1.387 . S
C178 C179 1.387 . S
C178 H182 0.950 . S
C178 C187 1.390 . S
C179 C178 1.387 . S
C179 C181 1.387 . S
H180 C187 0.950 . S
C181 C179 1.387 . S
C181 C183 1.390 . S
C181 H185 0.950 . S
H182 C178 0.950 . S
C183 C181 1.390 . S
C183 C184 1.387 . S
C183 H186 0.950 . S
C184 C183 1.387 . S
C184 C187 1.387 . S
H185 C181 0.950 . S
H186 C183 0.950 . S
C187 C178 1.390 . S
C187 H180 0.950 . S
C187 C184 1.387 . S
C188 C189 1.387 . S
C188 H192 0.950 . S
C188 C197 1.390 . S
C189 C188 1.387 . S
C189 C191 1.387 . S
H190 C197 0.950 . S
C191 C189 1.387 . S
C191 C193 1.390 . S
C191 H195 0.950 . S
H192 C188 0.950 . S
C193 C191 1.390 . S
C193 C194 1.387 . S
C193 H196 0.950 . S
C194 C193 1.387 . S
C194 C197 1.387 . S
H195 C191 0.950 . S
H196 C193 0.950 . S
C197 C188 1.390 . S
C197 H190 0.950 . S
C197 C194 1.387 . S
C198 C199 1.387 . S
C198 H202 0.950 . S
C198 C207 1.390 . S
C199 C198 1.387 . S
C199 C201 1.387 . S
H200 C207 0.950 . S
C201 C199 1.387 . S
C201 C203 1.390 . S
C201 H205 0.950 . S
H202 C198 0.950 . S
C203 C201 1.390 . S
C203 C204 1.387 . S
C203 H206 0.950 . S
C204 C203 1.387 . S
C204 C207 1.387 . S
H205 C201 0.950 . S
H206 C203 0.950 . S
C207 C198 1.390 . S
C207 H200 0.950 . S
C207 C204 1.387 . S
C208 C209 1.387 . S
C208 H212 0.950 . S
C208 C217 1.390 . S
C209 C208 1.387 . S
C209 C211 1.387 . S
H210 C217 0.950 . S
C211 C209 1.387 . S
C211 C213 1.390 . S
C211 H215 0.950 . S
H212 C208 0.950 . S
C213 C211 1.390 . S
C213 C214 1.387 . S
C213 H216 0.950 . S
C214 C213 1.387 . S
C214 C217 1.387 . S
H215 C211 0.950 . S
H216 C213 0.950 . S
C217 C208 1.390 . S
C217 H210 0.950 . S
C217 C214 1.387 . S
C104 C69 1.488 . S
C99 C43 1.439 . S
C109 C4 1.452 . S
C114 C92 1.493 . S
C119 C17 1.470 . S
C124 C68 1.517 . S
C129 C30 1.469 . S
C134 C91 1.514 . S
C144 C72 1.450 . S
C139 C9 1.481 . S
C154 C94 1.470 . S
C149 C21 1.528 . S
C159 C34 1.519 . S
C164 C73 1.453 . S
C169 C48 1.524 . S
C174 C93 1.467 . S
C184 C96 1.450 . S
C179 C22 1.492 . S
C194 C71 1.477 . S
C189 C35 1.529 . S
C204 C95 1.451 . S
C199 C47 1.506 . S
C209 C8 1.520 . S
C214 C70 1.461 . S
