# Generated by pormake.
# Topology tsx, (6,3)-cn, num edge types: 1
# Building blocks:
#     Node 0, Type 0, BuildingBlock: CIFDUS_clean_sbu_1, # of connection points: 6
#     Node 1, Type 0, BuildingBlock: CIFDUS_clean_sbu_1, # of connection points: 6
#     Node 2, Type 1, BuildingBlock: QEWDON_clean_linker_0, # of connection points: 3
#     Node 3, Type 1, BuildingBlock: QEWDON_clean_linker_0, # of connection points: 3
#     Node 4, Type 1, BuildingBlock: QEWDON_clean_linker_0, # of connection points: 3
#     Node 5, Type 1, BuildingBlock: QEWDON_clean_linker_0, # of connection points: 3
#     Edge 6, Type (0, 1), BuildingBlock: OJICUG_clean_linker_0, # of connection points: 2
#     Edge 7, Type (0, 1), BuildingBlock: OJICUG_clean_linker_0, # of connection points: 2
#     Edge 8, Type (0, 1), BuildingBlock: OJICUG_clean_linker_0, # of connection points: 2
#     Edge 9, Type (0, 1), BuildingBlock: OJICUG_clean_linker_0, # of connection points: 2
#     Edge 10, Type (0, 1), BuildingBlock: OJICUG_clean_linker_0, # of connection points: 2
#     Edge 11, Type (0, 1), BuildingBlock: OJICUG_clean_linker_0, # of connection points: 2
#     Edge 12, Type (0, 1), BuildingBlock: OJICUG_clean_linker_0, # of connection points: 2
#     Edge 13, Type (0, 1), BuildingBlock: OJICUG_clean_linker_0, # of connection points: 2
#     Edge 14, Type (0, 1), BuildingBlock: OJICUG_clean_linker_0, # of connection points: 2
#     Edge 15, Type (0, 1), BuildingBlock: OJICUG_clean_linker_0, # of connection points: 2
#     Edge 16, Type (0, 1), BuildingBlock: OJICUG_clean_linker_0, # of connection points: 2
#     Edge 17, Type (0, 1), BuildingBlock: OJICUG_clean_linker_0, # of connection points: 2
# Relax obj value: 0.106
# Max RMSD: 0.195
# Mean RMSD: 0.143
data_MOF--net-tsx--node1-CIFDUS_clean_sbu_1--node2-QEWDON_clean_linker_0--edge1-OJICUG_clean_linker_0
_symmetry_space_group_name_H-M    P1
_symmetry_Int_Tables_number       1
_symmetry_cell_setting            triclinic
loop_
_symmetry_equiv_pos_as_xyz
'x, y, z'
_cell_length_a     12.909271
_cell_length_b     17.979661
_cell_length_c     21.985715
_cell_angle_alpha  95.408748
_cell_angle_beta   114.16299
_cell_angle_gamma 92.39571
loop_
_atom_site_label
_atom_site_type_symbol
_atom_site_fract_x
_atom_site_fract_y
_atom_site_fract_z
_atom_type_partial_charge
O0 O 0.14103 0.11691 0.08197 0.0
Mn1 Mn 0.21068 0.01153 0.08174 0.0
O2 O 0.96672 0.08784 1.0654 0.0
Mn3 Mn 0.99747 0.02151 1.00853 0.0
O4 O 0.30466 0.91489 0.09644 0.0
O5 O 0.35785 0.07663 0.10795 0.0
Mn6 Mn 0.45414 0.06032 0.18789 0.0
O7 O 0.229 0.0154 0.18441 0.0
O8 O 0.47447 0.9597 0.18162 0.0
O9 O 0.19646 0.00755 0.98199 0.0
O10 O 1.03738 0.06126 0.94486 0.0
O11 O 0.53154 0.12842 0.161 0.0
O12 O 0.38874 0.09029 0.24509 0.0
C13 C 0.95097 0.91155 0.99946 0.0
C14 C 1.05201 0.13452 0.09004 0.0
C15 C 0.40566 0.90604 0.14148 0.0
C16 C 0.43655 0.12395 0.10784 0.0
C17 C 0.29788 0.05505 0.24021 0.0
C18 C 1.12131 0.03852 0.93547 0.0
O19 O 1.05437 0.93761 1.04685 0.0
O20 O 0.8841 0.95579 0.96142 0.0
O21 O 0.64248 0.61665 0.58179 0.0
Mn22 Mn 0.71146 0.51108 0.58148 0.0
O23 O 0.46846 0.58785 0.56585 0.0
Mn24 Mn 0.49834 0.52152 0.5086 0.0
O25 O 0.80487 0.4142 0.59605 0.0
O26 O 0.85902 0.57591 0.60772 0.0
Mn27 Mn 0.95484 0.55928 0.68769 0.0
O28 O 0.72963 0.51497 0.68412 0.0
O29 O 0.97467 0.45859 0.68141 0.0
O30 O 0.69708 0.50713 0.48172 0.0
O31 O 0.53823 0.56117 0.44487 0.0
O32 O 1.03308 0.62713 0.66118 0.0
O33 O 0.8896 0.58957 0.74487 0.0
C34 C 0.45111 0.41166 0.49935 0.0
C35 C 0.5539 0.63439 0.59029 0.0
C36 C 0.90568 0.4051 0.64115 0.0
C37 C 0.93826 0.62306 0.60794 0.0
C38 C 0.79853 0.55459 0.73993 0.0
C39 C 0.62198 0.53829 0.43533 0.0
O40 O 0.55485 0.43738 0.54656 0.0
O41 O 0.38438 0.45617 0.46158 0.0
H42 H 0.34657 0.12955 0.55158 0.0
C43 C 0.36886 0.07478 0.56415 0.0
C44 C 0.36987 0.02005 0.51383 0.0
C45 C 0.39103 0.05796 0.62971 0.0
H46 H 0.41583 0.90885 0.49632 0.0
C47 C 0.40916 0.95091 0.533 0.0
C48 C 0.4418 0.93536 0.59932 0.0
C49 C 0.42927 0.98756 0.64694 0.0
C50 C 0.37191 0.11253 0.6796 0.0
H51 H 0.44873 0.97309 0.697 0.0
C52 C 0.27001 0.14833 0.66153 0.0
C53 C 0.24914 0.19974 0.70727 0.0
C54 C 0.45358 0.1273 0.74626 0.0
H55 H 0.53275 0.10081 0.7624 0.0
C56 C 0.43456 0.17731 0.79261 0.0
H57 H 0.20611 0.13506 0.61188 0.0
C58 C 0.33399 0.21348 0.77344 0.0
H59 H 0.3243 0.25332 0.81042 0.0
H60 H 0.49885 0.18875 0.84371 0.0
H61 H 1.02807 0.11353 0.62774 0.0
C62 C 1.01814 0.05555 0.60809 0.0
C63 C 1.03401 1.00041 0.65203 0.0
C64 C 0.99235 0.03617 0.5391 0.0
H65 H 1.01619 0.88167 0.65596 0.0
C66 C 1.01001 0.92516 0.6239 0.0
C67 C 0.97416 0.90464 0.55458 0.0
C68 C 0.96892 0.95991 0.51242 0.0
C69 C 0.9893 0.09633 0.49577 0.0
H70 H 0.94556 0.94385 0.4594 0.0
C71 C 1.08793 0.12131 0.48782 0.0
C72 C 1.0954 0.19016 0.46272 0.0
C73 C 0.89184 0.13514 0.46895 0.0
H74 H 0.81487 0.11736 0.47405 0.0
C75 C 0.8939 0.19833 0.4367 0.0
H76 H 0.15988 0.08908 0.50509 0.0
C77 C 0.99521 0.22657 0.43481 0.0
H78 H 0.99655 0.27892 0.41435 0.0
H79 H 0.81817 0.22801 0.41629 0.0
H80 H 0.84646 0.63009 1.05103 0.0
C81 C 0.8684 0.57527 1.06367 0.0
C82 C 0.86902 0.52029 1.01341 0.0
C83 C 0.8905 0.55864 0.12927 0.0
H84 H 0.91404 0.40877 0.99601 0.0
C85 C 0.90769 0.45103 1.03265 0.0
C86 C 0.94025 0.43565 0.099 0.0
C87 C 0.92828 0.48818 0.14661 0.0
C88 C 0.87191 0.61354 0.17912 0.0
H89 H 0.94777 0.47391 0.19673 0.0
C90 C 0.76974 0.64898 0.16133 0.0
C91 C 0.74946 0.70083 0.20702 0.0
C92 C 0.95447 0.62904 0.24548 0.0
H93 H 1.03384 0.6028 0.26138 0.0
C94 C 0.93609 0.67949 0.29179 0.0
H95 H 0.70526 0.63518 0.11192 0.0
C96 C 0.83524 0.71535 0.27287 0.0
H97 H 0.82608 0.75557 0.30979 0.0
H98 H 1.00107 0.69153 0.34265 0.0
H99 H 0.52842 0.61388 0.12771 0.0
C100 C 0.51762 0.55591 0.10788 0.0
C101 C 0.53305 0.50069 0.1517 0.0
C102 C 0.49119 0.53659 1.03879 0.0
H103 H 0.51398 0.38197 0.15538 0.0
C104 C 0.50809 0.4255 0.1234 0.0
C105 C 0.47179 0.4051 1.05404 0.0
C106 C 0.46686 0.4604 1.01195 0.0
C107 C 0.48847 0.59672 0.99551 0.0
H108 H 0.44312 0.4444 0.95889 0.0
C109 C 0.58733 0.62162 0.98777 0.0
C110 C 0.59497 0.69038 0.96258 0.0
C111 C 0.39103 0.63548 0.96841 0.0
H112 H 0.31388 0.61773 0.97332 0.0
C113 C 0.39334 0.69861 0.93612 0.0
H114 H 0.6593 0.58944 1.00528 0.0
C115 C 0.49484 0.72678 0.93443 0.0
H116 H 0.49637 0.77908 0.91392 0.0
H117 H 0.31764 0.72827 0.9155 0.0
C118 C 0.32628 0.217 1.03453 0.0
C119 C 0.42321 0.17705 1.05816 0.0
H120 H 0.26576 0.32524 1.01371 0.0
C121 C 0.52272 0.20579 1.05374 0.0
H122 H 0.2476 0.1953 1.03506 0.0
C123 C 0.53219 0.27907 1.03924 0.0
C124 C 0.44243 0.32442 1.02924 0.0
H125 H 0.59849 0.17557 1.07047 0.0
H126 H 0.61465 0.30343 1.04552 0.0
C127 C 0.33636 0.29119 1.02136 0.0
C128 C 0.49296 0.80375 0.10111 0.0
C129 C 0.45533 0.83306 0.14877 0.0
H130 H 0.61257 0.74066 0.08194 0.0
C131 C 0.50456 0.81055 0.21364 0.0
H132 H 0.45952 0.82161 1.05144 0.0
C133 C 0.5961 0.76527 0.23191 0.0
C134 C 0.64186 0.74151 0.18589 0.0
H135 H 0.47865 0.83347 0.25212 0.0
H136 H 0.63319 0.75133 0.28287 0.0
C137 C 0.58436 0.75871 0.11954 0.0
C138 C 0.87958 0.81218 1.04859 0.0
C139 C 0.89341 0.83617 0.99355 0.0
H140 H 0.77766 0.74786 0.0826 0.0
C141 C 0.81851 0.80234 0.92859 0.0
H142 H 0.93307 0.83834 0.09898 0.0
C143 C 0.7259 0.75138 0.9187 0.0
C144 C 0.70687 0.73105 0.97354 0.0
H145 H 0.82539 0.82075 0.88475 0.0
H146 H 0.66589 0.73074 0.86793 0.0
C147 C 0.78714 0.76105 1.0386 0.0
C148 C 0.93394 0.23019 0.1135 0.0
C149 C 1.03638 0.21296 0.10916 0.0
H150 H 0.82453 0.31608 0.1155 0.0
C151 C 1.11632 0.27191 0.1154 0.0
H152 H 0.87132 0.1861 0.11013 0.0
C153 C 1.08848 0.34608 0.11763 0.0
C154 C 0.98199 0.36226 0.1159 0.0
H155 H 0.1972 0.26075 0.11433 0.0
H156 H 0.14722 0.39038 0.11672 0.0
C157 C 0.90712 0.30441 0.11699 0.0
C158 C 1.02568 0.70534 0.55479 0.0
C159 C 0.92568 0.67642 0.55854 0.0
H160 H 1.11808 0.80314 0.54723 0.0
C161 C 0.8287 0.71627 0.53445 0.0
H162 H 1.10151 0.67519 0.57187 0.0
C163 C 0.839 0.79052 0.52142 0.0
C164 C 0.94535 0.8239 0.52991 0.0
H165 H 0.74967 0.69441 0.53443 0.0
H166 H 0.76817 0.82447 0.51333 0.0
C167 C 1.03539 0.77867 0.54045 0.0
C168 C 0.99398 0.30343 0.60098 0.0
C169 C 0.95505 0.33204 0.64825 0.0
H170 H 1.11477 0.24107 0.5824 0.0
C171 C 1.00316 0.30897 0.71294 0.0
H172 H 0.96153 0.32182 0.55152 0.0
C173 C 1.0948 0.26377 0.73145 0.0
C174 C 0.14177 0.24065 0.68588 0.0
H175 H 0.97631 0.33142 0.75114 0.0
H176 H 1.13098 0.24936 0.78227 0.0
C177 C 1.08549 0.25849 0.61966 0.0
C178 C 0.38037 0.31172 0.54833 0.0
C179 C 0.39331 0.33628 0.49323 0.0
H180 H 0.27944 0.24674 0.58254 0.0
C181 C 0.31772 0.3029 0.42826 0.0
H182 H 0.43446 0.33748 0.59876 0.0
C183 C 0.22532 0.25181 0.41849 0.0
C184 C 0.20716 0.23089 0.47343 0.0
H185 H 0.32393 0.32173 0.38438 0.0
H186 H 0.1648 0.23152 0.36775 0.0
C187 C 0.28814 0.26045 0.53845 0.0
C188 C 0.6179 0.77178 0.61468 0.0
C189 C 0.53868 0.71287 0.60953 0.0
H190 H 0.64793 0.89013 0.61509 0.0
C191 C 0.4371 0.73015 0.61495 0.0
H192 H 0.69815 0.76058 0.61276 0.0
C193 C 0.41019 0.80435 0.61842 0.0
C194 C 0.48409 0.8621 0.61617 0.0
H195 H 0.37512 0.68607 0.61245 0.0
H196 H 0.32815 0.81603 0.61779 0.0
C197 C 0.58992 0.8459 0.61685 0.0
C198 C 0.34497 0.11029 0.35857 0.0
C199 C 0.28822 0.05195 0.30564 0.0
H200 H 0.41655 0.14597 0.46462 0.0
C201 C 0.24639 0.98629 0.32112 0.0
H202 H 0.37873 0.16184 0.34886 0.0
C203 C 0.26822 0.97741 0.38825 0.0
C204 C 0.33228 0.03391 0.44165 0.0
H205 H 0.20372 0.93987 0.28222 0.0
H206 H 0.23836 0.92496 0.39866 0.0
C207 C 0.36686 0.10137 0.42536 0.0
C208 C 0.17359 0.98642 0.84132 0.0
C209 C 1.11845 0.0387 0.86646 0.0
H210 H 0.19122 0.93392 0.75455 0.0
C211 C 1.04585 0.08463 0.82147 0.0
H212 H 0.22976 0.95 0.87403 0.0
C213 C 1.02335 0.07535 0.75283 0.0
C214 C 1.07189 0.01933 0.72673 0.0
H215 H 1.00212 0.12592 0.83882 0.0
H216 H 0.96284 0.1093 0.71962 0.0
C217 C 0.15034 0.97673 0.77247 0.0
C218 C 0.84557 0.61005 0.85821 0.0
C219 C 0.78857 0.55174 0.80529 0.0
H220 H 0.917 0.64582 0.96423 0.0
C221 C 0.74606 0.48632 0.82073 0.0
H222 H 0.87982 0.66142 0.84852 0.0
C223 C 0.76747 0.47761 0.88784 0.0
C224 C 0.8318 0.53404 0.94123 0.0
H225 H 0.70315 0.43993 0.78183 0.0
H226 H 0.73709 0.42532 0.89824 0.0
C227 C 0.86708 0.60129 0.92496 0.0
C228 C 0.67313 0.48592 0.34084 0.0
C229 C 0.61891 0.53857 0.3663 0.0
H230 H 0.68959 0.43325 0.25375 0.0
C231 C 0.54691 0.58499 0.32159 0.0
H232 H 0.72881 0.44912 0.37332 0.0
C233 C 0.52403 0.57585 0.25289 0.0
C234 C 0.57154 0.51946 0.22646 0.0
H235 H 0.50392 0.62659 0.33921 0.0
H236 H 0.46398 0.61022 0.21991 0.0
C237 C 0.64947 0.47636 0.27192 0.0
loop_
_geom_bond_atom_site_label_1
_geom_bond_atom_site_label_2
_geom_bond_distance
_geom_bond_site_symmetry_2
_ccdc_geom_bond_type
O0 Mn1 2.163 . S
O0 C14 1.244 1_455 S
Mn1 O0 2.163 . S
Mn1 O4 2.160 1_545 S
Mn1 O5 2.221 1_556 S
Mn1 O7 2.167 1_556 S
Mn1 O9 2.160 . S
Mn1 O19 2.221 1_445 S
O2 Mn3 2.087 1_545 S
O2 C14 1.256 . S
Mn3 O2 2.087 1_565 S
Mn3 O10 2.089 1_565 S
Mn3 O19 2.290 . S
Mn3 O20 2.251 . S
O4 Mn1 2.160 1_565 S
O4 C15 1.239 1_556 S
O5 Mn1 2.221 1_554 S
O5 Mn6 2.290 . S
O5 C16 1.278 . S
Mn6 O5 2.290 . S
Mn6 O8 2.089 1_545 S
Mn6 O11 2.251 . S
Mn6 O12 2.087 . S
O7 Mn1 2.167 1_554 S
O7 C17 1.245 . S
O8 Mn6 2.089 1_565 S
O8 C15 1.256 . S
O9 Mn1 2.160 . S
O9 C18 1.239 . S
O10 Mn3 2.089 1_545 S
O10 C18 1.256 1_655 S
O11 Mn6 2.251 . S
O11 C16 1.241 . S
O12 Mn6 2.087 . S
O12 C17 1.256 . S
C13 O19 1.278 . S
C13 O20 1.241 . S
C14 O0 1.244 1_655 S
C14 O2 1.256 . S
C15 O4 1.239 1_554 S
C15 O8 1.256 . S
C16 O5 1.278 . S
C16 O11 1.241 . S
C17 O7 1.245 . S
C17 O12 1.256 . S
C18 O9 1.239 . S
C18 O10 1.256 1_455 S
O19 Mn1 2.221 1_665 S
O19 Mn3 2.290 . S
O19 C13 1.278 . S
O20 Mn3 2.251 . S
O20 C13 1.241 . S
O21 Mn22 2.163 . S
O21 C35 1.244 . S
Mn22 O21 2.163 . S
Mn22 O25 2.160 . S
Mn22 O26 2.221 . S
Mn22 O28 2.163 . S
Mn22 O30 2.160 . S
Mn22 O40 2.221 . S
O23 Mn24 2.087 . S
O23 C35 1.256 . S
Mn24 O23 2.087 . S
Mn24 O31 2.089 . S
Mn24 O40 2.290 . S
Mn24 O41 2.251 . S
O25 Mn22 2.160 . S
O25 C36 1.239 . S
O26 Mn22 2.221 . S
O26 Mn27 2.290 . S
O26 C37 1.278 . S
Mn27 O26 2.290 . S
Mn27 O29 2.089 . S
Mn27 O32 2.251 . S
Mn27 O33 2.087 . S
O28 Mn22 2.163 . S
O28 C38 1.244 . S
O29 Mn27 2.089 . S
O29 C36 1.256 . S
O30 Mn22 2.160 . S
O30 C39 1.239 . S
O31 Mn24 2.089 . S
O31 C39 1.256 . S
O32 Mn27 2.251 . S
O32 C37 1.241 . S
O33 Mn27 2.087 . S
O33 C38 1.256 . S
C34 O40 1.278 . S
C34 O41 1.241 . S
C35 O21 1.244 . S
C35 O23 1.256 . S
C36 O25 1.239 . S
C36 O29 1.256 . S
C37 O26 1.278 . S
C37 O32 1.241 . S
C38 O28 1.244 . S
C38 O33 1.256 . S
C39 O30 1.239 . S
C39 O31 1.256 . S
O40 Mn22 2.221 . S
O40 Mn24 2.290 . S
O40 C34 1.278 . S
O41 Mn24 2.251 . S
O41 C34 1.241 . S
H42 C43 0.949 . S
C43 H42 0.949 . S
C43 C44 1.395 1_545 S
C43 C45 1.391 . S
C44 C43 1.395 1_565 S
C44 C47 1.390 . S
C45 C43 1.391 . S
C45 C49 1.387 1_545 S
C45 C50 1.491 . S
H46 C47 0.950 . S
C47 C44 1.390 . S
C47 H46 0.950 . S
C47 C48 1.378 . S
C48 C47 1.378 . S
C48 C49 1.409 . S
C49 C45 1.387 1_565 S
C49 C48 1.409 . S
C49 H51 0.951 . S
C50 C45 1.491 . S
C50 C52 1.382 . S
C50 C54 1.404 . S
H51 C49 0.951 . S
C52 C50 1.382 . S
C52 C53 1.390 1_455 S
C52 H57 0.949 1_455 S
C53 C52 1.390 1_655 S
C53 C58 1.399 1_655 S
C54 C50 1.404 . S
C54 H55 0.950 . S
C54 C56 1.375 . S
H55 C54 0.950 . S
C56 C54 1.375 . S
C56 C58 1.382 . S
C56 H60 0.950 . S
H57 C52 0.949 1_655 S
C58 C53 1.399 1_455 S
C58 C56 1.382 . S
C58 H59 0.952 . S
H59 C58 0.952 . S
H60 C56 0.950 . S
H61 C62 0.953 . S
C62 H61 0.953 . S
C62 C63 1.390 1_455 S
C62 C64 1.391 1_455 S
C63 C62 1.390 1_655 S
C63 C66 1.390 1_545 S
C64 C62 1.391 1_655 S
C64 C68 1.390 . S
C64 C69 1.491 1_655 S
H65 C66 0.950 . S
C66 C63 1.390 1_565 S
C66 H65 0.950 . S
C66 C67 1.378 . S
C67 C66 1.378 . S
C67 C68 1.407 1_565 S
C68 C64 1.390 . S
C68 C67 1.407 1_545 S
C68 H70 0.950 1_545 S
C69 C64 1.491 1_455 S
C69 C71 1.382 . S
C69 C73 1.404 1_455 S
H70 C68 0.950 1_565 S
C71 C69 1.382 . S
C71 C72 1.390 . S
C71 H76 0.949 . S
C72 C71 1.390 . S
C72 C77 1.399 . S
C73 C69 1.404 1_655 S
C73 H74 0.950 . S
C73 C75 1.375 . S
H74 C73 0.950 . S
C75 C73 1.375 . S
C75 C77 1.382 1_655 S
C75 H79 0.950 . S
H76 C71 0.949 . S
C77 C72 1.399 . S
C77 C75 1.382 1_455 S
C77 H78 0.952 . S
H78 C77 0.952 . S
H79 C75 0.950 . S
H80 C81 0.949 . S
C81 H80 0.949 . S
C81 C82 1.395 . S
C81 C83 1.391 . S
C82 C81 1.395 . S
C82 C85 1.390 . S
C83 C81 1.391 . S
C83 C87 1.387 . S
C83 C88 1.491 1_556 S
H84 C85 0.950 . S
C85 C82 1.390 . S
C85 H84 0.950 . S
C85 C86 1.378 . S
C86 C85 1.378 . S
C86 C87 1.409 . S
C87 C83 1.387 . S
C87 C86 1.409 . S
C87 H89 0.951 1_556 S
C88 C83 1.491 1_554 S
C88 C90 1.382 1_554 S
C88 C92 1.404 . S
H89 C87 0.951 1_554 S
C90 C88 1.382 1_556 S
C90 C91 1.390 1_556 S
C90 H95 0.949 . S
C91 C90 1.390 1_554 S
C91 C96 1.399 . S
C92 C88 1.404 . S
C92 H93 0.950 . S
C92 C94 1.375 . S
H93 C92 0.950 . S
C94 C92 1.375 . S
C94 C96 1.382 . S
C94 H98 0.950 . S
H95 C90 0.949 . S
C96 C91 1.399 . S
C96 C94 1.382 . S
C96 H97 0.952 . S
H97 C96 0.952 . S
H98 C94 0.950 . S
H99 C100 0.949 . S
C100 H99 0.949 . S
C100 C101 1.395 . S
C100 C102 1.391 . S
C101 C100 1.395 . S
C101 C104 1.390 . S
C102 C100 1.391 . S
C102 C106 1.387 . S
C102 C107 1.491 1_554 S
H103 C104 0.950 . S
C104 C101 1.390 . S
C104 H103 0.950 . S
C104 C105 1.378 . S
C105 C104 1.378 . S
C105 C106 1.409 . S
C106 C102 1.387 . S
C106 C105 1.409 . S
C106 H108 0.951 1_554 S
C107 C102 1.491 1_556 S
C107 C109 1.382 1_556 S
C107 C111 1.404 . S
H108 C106 0.951 1_556 S
C109 C107 1.382 1_554 S
C109 C110 1.390 1_554 S
C109 H114 0.949 . S
C110 C109 1.390 1_556 S
C110 C115 1.399 . S
C111 C107 1.404 . S
C111 H112 0.950 . S
C111 C113 1.375 . S
H112 C111 0.950 . S
C113 C111 1.375 . S
C113 C115 1.382 . S
C113 H117 0.950 . S
H114 C109 0.949 . S
C115 C110 1.399 . S
C115 C113 1.382 . S
C115 H116 0.952 . S
H116 C115 0.952 . S
H117 C113 0.950 . S
C118 C119 1.387 1_556 S
C118 H122 0.950 . S
C118 C127 1.390 . S
C119 C118 1.387 1_554 S
C119 C121 1.387 . S
H120 C127 0.950 . S
C121 C119 1.387 . S
C121 C123 1.390 . S
C121 H125 0.950 . S
H122 C118 0.950 . S
C123 C121 1.390 . S
C123 C124 1.387 . S
C123 H126 0.950 . S
C124 C123 1.387 . S
C124 C127 1.387 1_554 S
H125 C121 0.950 . S
H126 C123 0.950 . S
C127 C118 1.390 . S
C127 H120 0.950 . S
C127 C124 1.387 1_556 S
C128 C129 1.387 1_556 S
C128 H132 0.950 . S
C128 C137 1.390 . S
C129 C128 1.387 1_554 S
C129 C131 1.387 . S
H130 C137 0.950 . S
C131 C129 1.387 . S
C131 C133 1.390 . S
C131 H135 0.950 . S
H132 C128 0.950 . S
C133 C131 1.390 . S
C133 C134 1.387 . S
C133 H136 0.950 . S
C134 C133 1.387 . S
C134 C137 1.387 1_554 S
H135 C131 0.950 . S
H136 C133 0.950 . S
C137 C128 1.390 . S
C137 H130 0.950 . S
C137 C134 1.387 1_556 S
C138 C139 1.403 . S
C138 H142 0.950 . S
C138 C147 1.390 . S
C139 C138 1.403 . S
C139 C141 1.376 1_554 S
H140 C147 0.950 . S
C141 C139 1.376 1_556 S
C141 C143 1.390 . S
C141 H145 0.950 . S
H142 C138 0.950 . S
C143 C141 1.390 . S
C143 C144 1.387 . S
C143 H146 0.950 . S
C144 C143 1.387 . S
C144 C147 1.387 1_556 S
H145 C141 0.950 . S
H146 C143 0.950 . S
C147 C138 1.390 . S
C147 H140 0.950 . S
C147 C144 1.387 1_554 S
C148 C149 1.387 1_554 S
C148 H152 0.950 . S
C148 C157 1.390 . S
C149 C148 1.387 1_556 S
C149 C151 1.387 . S
H150 C157 0.950 . S
C151 C149 1.387 . S
C151 C153 1.390 . S
C151 H155 0.950 . S
H152 C148 0.950 . S
C153 C151 1.390 . S
C153 C154 1.387 . S
C153 H156 0.950 . S
C154 C153 1.387 . S
C154 C157 1.387 1_556 S
H155 C151 0.950 . S
H156 C153 0.950 . S
C157 C148 1.390 . S
C157 H150 0.950 . S
C157 C154 1.387 1_554 S
C158 C159 1.387 . S
C158 H162 0.950 . S
C158 C167 1.390 . S
C159 C158 1.387 . S
C159 C161 1.387 . S
H160 C167 0.950 . S
C161 C159 1.387 . S
C161 C163 1.390 . S
C161 H165 0.950 . S
H162 C158 0.950 . S
C163 C161 1.390 . S
C163 C164 1.387 . S
C163 H166 0.950 . S
C164 C163 1.387 . S
C164 C167 1.387 . S
H165 C161 0.950 . S
H166 C163 0.950 . S
C167 C158 1.390 . S
C167 H160 0.950 . S
C167 C164 1.387 . S
C168 C169 1.387 . S
C168 H172 0.950 . S
C168 C177 1.390 . S
C169 C168 1.387 . S
C169 C171 1.387 . S
H170 C177 0.950 . S
C171 C169 1.387 . S
C171 C173 1.390 . S
C171 H175 0.950 . S
H172 C168 0.950 . S
C173 C171 1.390 . S
C173 C174 1.387 . S
C173 H176 0.950 . S
C174 C173 1.387 . S
C174 C177 1.387 . S
H175 C171 0.950 . S
H176 C173 0.950 . S
C177 C168 1.390 . S
C177 H170 0.950 . S
C177 C174 1.387 . S
C178 C179 1.387 . S
C178 H182 0.950 . S
C178 C187 1.390 . S
C179 C178 1.387 . S
C179 C181 1.387 . S
H180 C187 0.950 . S
C181 C179 1.387 . S
C181 C183 1.390 . S
C181 H185 0.950 . S
H182 C178 0.950 . S
C183 C181 1.390 . S
C183 C184 1.387 . S
C183 H186 0.950 . S
C184 C183 1.387 . S
C184 C187 1.387 . S
H185 C181 0.950 . S
H186 C183 0.950 . S
C187 C178 1.390 . S
C187 H180 0.950 . S
C187 C184 1.387 . S
C188 C189 1.387 . S
C188 H192 0.950 . S
C188 C197 1.390 . S
C189 C188 1.387 . S
C189 C191 1.387 . S
H190 C197 0.950 . S
C191 C189 1.387 . S
C191 C193 1.390 . S
C191 H195 0.950 . S
H192 C188 0.950 . S
C193 C191 1.390 . S
C193 C194 1.387 . S
C193 H196 0.950 . S
C194 C193 1.387 . S
C194 C197 1.387 . S
H195 C191 0.950 . S
H196 C193 0.950 . S
C197 C188 1.390 . S
C197 H190 0.950 . S
C197 C194 1.387 . S
C198 C199 1.387 1_545 S
C198 H202 0.950 . S
C198 C207 1.390 . S
C199 C198 1.387 1_565 S
C199 C201 1.387 . S
H200 C207 0.950 . S
C201 C199 1.387 . S
C201 C203 1.390 . S
C201 H205 0.950 . S
H202 C198 0.950 . S
C203 C201 1.390 . S
C203 C204 1.387 . S
C203 H206 0.950 . S
C204 C203 1.387 . S
C204 C207 1.387 1_565 S
H205 C201 0.950 . S
H206 C203 0.950 . S
C207 C198 1.390 . S
C207 H200 0.950 . S
C207 C204 1.387 1_545 S
C208 C209 1.387 1_665 S
C208 H212 0.950 . S
C208 C217 1.390 . S
C209 C208 1.387 1_445 S
C209 C211 1.387 . S
H210 C217 0.950 . S
C211 C209 1.387 . S
C211 C213 1.390 . S
C211 H215 0.950 . S
H212 C208 0.950 . S
C213 C211 1.390 . S
C213 C214 1.387 1_455 S
C213 H216 0.950 . S
C214 C213 1.387 1_655 S
C214 C217 1.387 1_545 S
H215 C211 0.950 . S
H216 C213 0.950 . S
C217 C208 1.390 . S
C217 H210 0.950 . S
C217 C214 1.387 1_565 S
C218 C219 1.387 . S
C218 H222 0.950 . S
C218 C227 1.390 . S
C219 C218 1.387 . S
C219 C221 1.387 . S
H220 C227 0.950 . S
C221 C219 1.387 . S
C221 C223 1.390 . S
C221 H225 0.950 . S
H222 C218 0.950 . S
C223 C221 1.390 . S
C223 C224 1.387 . S
C223 H226 0.950 . S
C224 C223 1.387 . S
C224 C227 1.387 . S
H225 C221 0.950 . S
H226 C223 0.950 . S
C227 C218 1.390 . S
C227 H220 0.950 . S
C227 C224 1.387 . S
C228 C229 1.387 . S
C228 H232 0.950 . S
C228 C237 1.390 . S
C229 C228 1.387 . S
C229 C231 1.387 . S
H230 C237 0.950 . S
C231 C229 1.387 . S
C231 C233 1.390 . S
C231 H235 0.950 . S
H232 C228 0.950 . S
C233 C231 1.390 . S
C233 C234 1.387 . S
C233 H236 0.950 . S
C234 C233 1.387 . S
C234 C237 1.387 . S
H235 C231 0.950 . S
H236 C233 0.950 . S
C237 C228 1.390 . S
C237 H230 0.950 . S
C237 C234 1.387 . S
C124 C105 1.534 . S
C119 C16 1.452 . S
C129 C15 1.482 . S
C134 C91 1.476 . S
C139 C13 1.268 1_554 S
C144 C110 1.499 . S
C149 C14 1.501 . S
C154 C86 1.519 . S
C159 C37 1.451 . S
C164 C67 1.534 . S
C169 C36 1.482 . S
C174 C53 1.476 . S
C184 C72 1.499 . S
C179 C34 1.276 . S
C194 C48 1.519 . S
C189 C35 1.503 . S
C199 C17 1.633 1_565 S
C204 C44 1.663 . S
C209 C18 1.422 . S
C214 C63 1.444 . S
C224 C82 1.663 . S
C219 C38 1.634 . S
C229 C39 1.422 . S
C234 C101 1.444 . S
