# Generated by pormake.
# Topology rtl, (3,6)-cn, num edge types: 1
# Building blocks:
#     Node 0, Type 0, BuildingBlock: BETDIP_clean_linker_0, # of connection points: 3
#     Node 1, Type 0, BuildingBlock: BETDIP_clean_linker_0, # of connection points: 3
#     Node 2, Type 0, BuildingBlock: BETDIP_clean_linker_0, # of connection points: 3
#     Node 3, Type 0, BuildingBlock: BETDIP_clean_linker_0, # of connection points: 3
#     Node 4, Type 1, BuildingBlock: CIFDUS_clean_sbu_1, # of connection points: 6
#     Node 5, Type 1, BuildingBlock: CIFDUS_clean_sbu_1, # of connection points: 6
#     Edge 6, Type (0, 1), BuildingBlock: EYOCIG_clean_linker_4, # of connection points: 2
#     Edge 7, Type (0, 1), BuildingBlock: EYOCIG_clean_linker_4, # of connection points: 2
#     Edge 8, Type (0, 1), BuildingBlock: EYOCIG_clean_linker_4, # of connection points: 2
#     Edge 9, Type (0, 1), BuildingBlock: EYOCIG_clean_linker_4, # of connection points: 2
#     Edge 10, Type (0, 1), BuildingBlock: EYOCIG_clean_linker_4, # of connection points: 2
#     Edge 11, Type (0, 1), BuildingBlock: EYOCIG_clean_linker_4, # of connection points: 2
#     Edge 12, Type (0, 1), BuildingBlock: EYOCIG_clean_linker_4, # of connection points: 2
#     Edge 13, Type (0, 1), BuildingBlock: EYOCIG_clean_linker_4, # of connection points: 2
#     Edge 14, Type (0, 1), BuildingBlock: EYOCIG_clean_linker_4, # of connection points: 2
#     Edge 15, Type (0, 1), BuildingBlock: EYOCIG_clean_linker_4, # of connection points: 2
#     Edge 16, Type (0, 1), BuildingBlock: EYOCIG_clean_linker_4, # of connection points: 2
#     Edge 17, Type (0, 1), BuildingBlock: EYOCIG_clean_linker_4, # of connection points: 2
# Relax obj value: 0.018
# Max RMSD: 0.111
# Mean RMSD: 0.086
data_MOF--net-rtl--node1-CIFDUS_clean_sbu_1--node2-BETDIP_clean_linker_0--edge1-EYOCIG_clean_linker_4
_symmetry_space_group_name_H-M    P1
_symmetry_Int_Tables_number       1
_symmetry_cell_setting            triclinic
loop_
_symmetry_equiv_pos_as_xyz
'x, y, z'
_cell_length_a     28.077196
_cell_length_b     28.214846
_cell_length_c     17.259917
_cell_angle_alpha  91.191866
_cell_angle_beta   98.788521
_cell_angle_gamma 89.913508
loop_
_atom_site_label
_atom_site_type_symbol
_atom_site_fract_x
_atom_site_fract_y
_atom_site_fract_z
_atom_type_partial_charge
H0 H 0.2222 0.82596 0.95314 0.0
H1 H 0.23637 0.82853 0.20543 0.0
H2 H 0.13926 0.9246 0.07085 0.0
H3 H 0.30637 0.79059 0.1986 0.0
C4 C 0.30186 0.77109 0.14323 0.0
C5 C 0.21272 0.84103 0.00706 0.0
C6 C 0.17853 0.87726 1.00398 0.0
C7 C 0.23473 0.82365 0.07911 0.0
C8 C 0.22137 0.84261 0.14914 0.0
C9 C 0.18702 0.87915 0.14621 0.0
C10 C 0.16606 0.89668 0.07347 0.0
N11 N 0.26864 0.78613 0.07799 0.0
H12 H 0.71659 0.73062 0.72815 0.0
H13 H 0.70777 0.74131 0.47753 0.0
H14 H 0.62746 0.63368 0.5738 0.0
H15 H 0.78216 0.77268 0.51033 0.0
C16 C 0.78112 0.79256 0.56449 0.0
C17 C 0.70245 0.71811 0.66934 0.0
C18 C 0.67064 0.67945 0.65844 0.0
C19 C 0.71723 0.74008 0.60481 0.0
C20 C 0.69814 0.72409 0.52844 0.0
C21 C 0.66569 0.68599 0.51747 0.0
C22 C 0.65225 0.66348 0.58242 0.0
N23 N 0.75118 0.77794 0.61891 0.0
H24 H 0.81913 0.22916 0.86716 0.0
H25 H 0.82467 0.24112 0.11769 0.0
H26 H 0.90546 0.13224 0.01817 0.0
H27 H 0.75026 0.27347 0.08241 0.0
C28 C 0.75238 0.29236 0.02895 0.0
C29 C 0.83248 0.21683 0.92556 0.0
C30 C 0.86358 0.17796 0.93525 0.0
C31 C 0.81716 0.23925 0.99046 0.0
C32 C 0.83497 0.22353 0.06645 0.0
C33 C 0.8671 0.18522 0.07631 0.0
C34 C 0.88105 0.16223 0.01064 0.0
N35 N 0.78389 0.27726 0.97661 0.0
H36 H 0.28836 0.34636 0.36083 0.0
H37 H 0.29253 0.3356 0.61063 0.0
H38 H 0.39553 0.42287 0.51991 0.0
H39 H 0.25412 0.2674 0.5789 0.0
C40 C 0.23411 0.27023 0.5203 0.0
C41 C 0.30431 0.35613 0.42022 0.0
C42 C 0.3437 0.38717 0.43304 0.0
C43 C 0.28602 0.33635 0.48344 0.0
C44 C 0.30677 0.34922 0.56068 0.0
C45 C 0.34633 0.38022 0.5737 0.0
C46 C 0.36475 0.39912 0.50985 0.0
N47 N 0.24743 0.30326 0.46658 0.0
O48 O 0.98536 0.0686 0.44638 0.0
Mn49 Mn 0.01669 0.02425 0.5362 0.0
O50 O 0.94102 0.02242 0.35519 0.0
Mn51 Mn 0.96323 0.9663 0.39969 0.0
O52 O 0.04831 0.98022 0.62712 0.0
O53 O 0.06563 0.07701 0.56884 0.0
Mn54 Mn 0.07189 0.08246 0.67192 0.0
O55 O 0.9693 0.05267 0.60861 0.0
O56 O 0.09594 0.02671 0.71389 0.0
O57 O 0.06471 0.99564 0.46403 0.0
O58 O 0.02183 0.94635 0.37612 0.0
O59 O 0.11247 0.12712 0.64524 0.0
O60 O 0.01345 0.10025 0.69829 0.0
C61 C 0.93374 0.93896 0.49418 0.0
C62 C 0.95621 0.06273 0.38197 0.0
C63 C 0.07924 0.98649 0.68966 0.0
C64 C 0.09677 0.11157 0.57491 0.0
C65 C 0.9736 0.08218 0.66712 0.0
C66 C 0.06144 0.96499 0.40706 0.0
O67 O 0.96657 0.97217 0.50289 0.0
O68 O 0.92031 0.923 0.42339 0.0
O69 O 0.54764 0.57004 0.1382 0.0
Mn70 Mn 0.51568 0.52481 0.04687 0.0
O71 O 0.59238 0.52474 0.22694 0.0
Mn72 Mn 0.56991 0.46839 0.1801 0.0
O73 O 0.48299 0.47957 0.9549 0.0
O74 O 0.46629 0.57743 0.01758 0.0
Mn75 Mn 0.46025 0.58147 0.91446 0.0
O76 O 0.56274 0.5526 0.97464 0.0
O77 O 0.43567 0.5254 0.87014 0.0
O78 O 0.46851 0.49705 0.11922 0.0
O79 O 0.51187 0.44853 0.20426 0.0
O80 O 0.41949 0.6264 0.94193 0.0
O81 O 0.51834 0.59942 0.88776 0.0
C82 C 0.59879 0.43978 0.08501 0.0
C83 C 0.57698 0.56475 0.20218 0.0
C84 C 0.45168 0.48525 0.89303 0.0
C85 C 0.43474 0.61173 0.01187 0.0
C86 C 0.55833 0.58177 0.91762 0.0
C87 C 0.47223 0.46703 0.17501 0.0
O88 O 0.56601 0.47298 0.07705 0.0
O89 O 0.61256 0.42481 0.15527 0.0
C90 C 0.16909 0.20284 0.4819 0.0
C91 C 0.19809 0.23469 0.49426 0.0
C92 C 0.13695 0.16462 0.48501 0.0
C93 C 0.11335 0.13488 0.5111 0.0
C94 C 0.36147 0.70005 0.12505 0.0
C95 C 0.33413 0.73218 0.13392 0.0
C96 C 0.39285 0.66336 0.10713 0.0
C97 C 0.41659 0.63506 0.076 0.0
C98 C 0.84595 0.86129 0.59022 0.0
C99 C 0.8155 0.8306 0.58399 0.0
C100 C 0.88202 0.89517 0.58194 0.0
C101 C 0.91019 0.92016 0.55523 0.0
C102 C 0.6871 0.35945 0.99575 0.0
C103 C 0.71768 0.32917 0.00657 0.0
C104 C 0.65064 0.39381 0.99888 0.0
C105 C 0.62205 0.41989 0.02352 0.0
C106 C 0.15499 0.91513 0.27193 0.0
C107 C 0.17106 0.89738 0.21697 0.0
C108 C 0.1303 0.9359 0.32998 0.0
C109 C 0.10289 0.95228 0.37119 0.0
C110 C 0.64405 0.6354 0.77907 0.0
C111 C 0.65674 0.65608 0.72515 0.0
C112 C 0.62386 0.61212 0.8382 0.0
C113 C 0.59897 0.59475 0.88128 0.0
C114 C 0.90326 0.15277 0.21549 0.0
C115 C 0.88576 0.16895 0.15354 0.0
C116 C 0.92425 0.12886 0.28318 0.0
C117 C 0.94137 0.10241 0.33383 0.0
C118 C 0.38931 0.40414 0.71647 0.0
C119 C 0.36869 0.39233 0.65248 0.0
C120 C 0.41444 0.4227 0.78781 0.0
C121 C 0.43484 0.44598 0.84226 0.0
C122 C 0.62879 0.65385 0.37621 0.0
C123 C 0.64635 0.6695 0.43958 0.0
C124 C 0.6081 0.63073 0.30598 0.0
C125 C 0.59121 0.60462 0.25287 0.0
C126 C 0.88936 0.13389 0.81155 0.0
C127 C 0.8774 0.15421 0.86756 0.0
C128 C 0.90856 0.11132 0.74955 0.0
C129 C 0.93305 0.09441 0.70457 0.0
C130 C 0.38063 0.42189 0.31358 0.0
C131 C 0.36333 0.40573 0.36726 0.0
C132 C 0.40486 0.44058 0.25485 0.0
C133 C 0.43153 0.45568 0.2125 0.0
C134 C 0.13545 0.90683 0.86658 0.0
C135 C 0.15515 0.89327 0.92909 0.0
C136 C 0.1124 0.92543 0.79539 0.0
C137 C 0.0939 0.9481 0.74055 0.0
loop_
_geom_bond_atom_site_label_1
_geom_bond_atom_site_label_2
_geom_bond_distance
_geom_bond_site_symmetry_2
_ccdc_geom_bond_type
H0 C5 0.938 . S
H1 C8 0.930 . S
H2 C10 0.930 . S
H3 C4 1.016 . S
C4 H3 1.016 . S
C4 N11 1.286 . S
C5 H0 0.938 . S
C5 C6 1.396 1_556 S
C5 C7 1.354 1_556 S
C6 C5 1.396 1_554 S
C6 C10 1.390 . S
C7 C5 1.354 1_554 S
C7 C8 1.393 . S
C7 N11 1.413 . S
C8 H1 0.930 . S
C8 C7 1.393 . S
C8 C9 1.399 . S
C9 C8 1.399 . S
C9 C10 1.381 . S
C10 H2 0.930 . S
C10 C6 1.390 . S
C10 C9 1.381 . S
N11 C4 1.286 . S
N11 C7 1.413 . S
H12 C17 0.930 . S
H13 C20 0.930 . S
H14 C22 0.930 . S
H15 C16 1.016 . S
C16 H15 1.016 . S
C16 N23 1.286 . S
C17 H12 0.930 . S
C17 C18 1.397 . S
C17 C19 1.361 . S
C18 C17 1.397 . S
C18 C22 1.390 . S
C19 C17 1.361 . S
C19 C20 1.393 . S
C19 N23 1.413 . S
C20 H13 0.930 . S
C20 C19 1.393 . S
C20 C21 1.399 . S
C21 C20 1.399 . S
C21 C22 1.381 . S
C22 H14 0.930 . S
C22 C18 1.390 . S
C22 C21 1.381 . S
N23 C16 1.286 . S
N23 C19 1.413 . S
H24 C29 0.930 . S
H25 C32 0.930 . S
H26 C34 0.930 . S
H27 C28 1.016 . S
C28 H27 1.016 . S
C28 N35 1.286 1_554 S
C29 H24 0.930 . S
C29 C30 1.397 . S
C29 C31 1.361 . S
C30 C29 1.397 . S
C30 C34 1.390 1_556 S
C31 C29 1.361 . S
C31 C32 1.393 1_556 S
C31 N35 1.413 . S
C32 H25 0.930 . S
C32 C31 1.393 1_554 S
C32 C33 1.399 . S
C33 C32 1.399 . S
C33 C34 1.381 . S
C34 H26 0.930 . S
C34 C30 1.390 1_554 S
C34 C33 1.381 . S
N35 C28 1.286 1_556 S
N35 C31 1.413 . S
H36 C41 0.930 . S
H37 C44 0.930 . S
H38 C46 0.930 . S
H39 C40 1.016 . S
C40 H39 1.016 . S
C40 N47 1.286 . S
C41 H36 0.930 . S
C41 C42 1.397 . S
C41 C43 1.361 . S
C42 C41 1.397 . S
C42 C46 1.390 . S
C43 C41 1.361 . S
C43 C44 1.393 . S
C43 N47 1.413 . S
C44 H37 0.930 . S
C44 C43 1.393 . S
C44 C45 1.399 . S
C45 C44 1.399 . S
C45 C46 1.381 . S
C46 H38 0.930 . S
C46 C42 1.390 . S
C46 C45 1.381 . S
N47 C40 1.286 . S
N47 C43 1.413 . S
O48 Mn49 2.163 1_655 S
O48 C62 1.244 . S
Mn49 O48 2.163 1_455 S
Mn49 O52 2.160 1_545 S
Mn49 O53 2.221 . S
Mn49 O55 2.163 1_455 S
Mn49 O57 2.160 1_545 S
Mn49 O67 2.221 1_445 S
O50 Mn51 2.087 1_545 S
O50 C62 1.256 . S
Mn51 O50 2.087 1_565 S
Mn51 O58 2.089 1_655 S
Mn51 O67 2.290 . S
Mn51 O68 2.251 . S
O52 Mn49 2.160 1_565 S
O52 C63 1.239 . S
O53 Mn49 2.221 . S
O53 Mn54 2.290 . S
O53 C64 1.278 . S
Mn54 O53 2.290 . S
Mn54 O56 2.089 . S
Mn54 O59 2.251 . S
Mn54 O60 2.087 . S
O55 Mn49 2.163 1_655 S
O55 C65 1.244 . S
O56 Mn54 2.089 . S
O56 C63 1.256 1_545 S
O57 Mn49 2.160 1_565 S
O57 C66 1.239 . S
O58 Mn51 2.089 1_455 S
O58 C66 1.256 . S
O59 Mn54 2.251 . S
O59 C64 1.241 . S
O60 Mn54 2.087 . S
O60 C65 1.256 1_455 S
C61 O67 1.278 . S
C61 O68 1.241 . S
C62 O48 1.244 . S
C62 O50 1.256 . S
C63 O52 1.239 . S
C63 O56 1.256 1_565 S
C64 O53 1.278 . S
C64 O59 1.241 . S
C65 O55 1.244 . S
C65 O60 1.256 1_655 S
C66 O57 1.239 . S
C66 O58 1.256 . S
O67 Mn49 2.221 1_665 S
O67 Mn51 2.290 . S
O67 C61 1.278 . S
O68 Mn51 2.251 . S
O68 C61 1.241 . S
O69 Mn70 2.163 . S
O69 C83 1.244 . S
Mn70 O69 2.163 . S
Mn70 O73 2.160 1_554 S
Mn70 O74 2.221 . S
Mn70 O76 2.163 1_554 S
Mn70 O78 2.160 . S
Mn70 O88 2.221 . S
O71 Mn72 2.087 . S
O71 C83 1.256 . S
Mn72 O71 2.087 . S
Mn72 O79 2.089 . S
Mn72 O88 2.290 . S
Mn72 O89 2.251 . S
O73 Mn70 2.160 1_556 S
O73 C84 1.239 . S
O74 Mn70 2.221 . S
O74 Mn75 2.290 1_554 S
O74 C85 1.278 . S
Mn75 O74 2.290 1_556 S
Mn75 O77 2.089 . S
Mn75 O80 2.251 . S
Mn75 O81 2.087 . S
O76 Mn70 2.163 1_556 S
O76 C86 1.244 . S
O77 Mn75 2.089 . S
O77 C84 1.256 . S
O78 Mn70 2.160 . S
O78 C87 1.239 . S
O79 Mn72 2.089 . S
O79 C87 1.256 . S
O80 Mn75 2.251 . S
O80 C85 1.241 1_556 S
O81 Mn75 2.087 . S
O81 C86 1.256 . S
C82 O88 1.278 . S
C82 O89 1.241 . S
C83 O69 1.244 . S
C83 O71 1.256 . S
C84 O73 1.239 . S
C84 O77 1.256 . S
C85 O74 1.278 . S
C85 O80 1.241 1_554 S
C86 O76 1.244 . S
C86 O81 1.256 . S
C87 O78 1.239 . S
C87 O79 1.256 . S
O88 Mn70 2.221 . S
O88 Mn72 2.290 . S
O88 C82 1.278 . S
O89 Mn72 2.251 . S
O89 C82 1.241 . S
C90 C91 1.170 . S
C90 C92 1.380 . S
C91 C90 1.170 . S
C92 C90 1.380 . S
C92 C93 1.170 . S
C93 C92 1.170 . S
C94 C95 1.170 . S
C94 C96 1.380 . S
C95 C94 1.170 . S
C96 C94 1.380 . S
C96 C97 1.170 . S
C97 C96 1.170 . S
C98 C99 1.170 . S
C98 C100 1.380 . S
C99 C98 1.170 . S
C100 C98 1.380 . S
C100 C101 1.170 . S
C101 C100 1.170 . S
C102 C103 1.170 . S
C102 C104 1.380 . S
C103 C102 1.170 . S
C104 C102 1.380 . S
C104 C105 1.170 . S
C105 C104 1.170 . S
C106 C107 1.170 . S
C106 C108 1.380 . S
C107 C106 1.170 . S
C108 C106 1.380 . S
C108 C109 1.170 . S
C109 C108 1.170 . S
C110 C111 1.170 . S
C110 C112 1.380 . S
C111 C110 1.170 . S
C112 C110 1.380 . S
C112 C113 1.170 . S
C113 C112 1.170 . S
C114 C115 1.170 . S
C114 C116 1.380 . S
C115 C114 1.170 . S
C116 C114 1.380 . S
C116 C117 1.170 . S
C117 C116 1.170 . S
C118 C119 1.170 . S
C118 C120 1.380 . S
C119 C118 1.170 . S
C120 C118 1.380 . S
C120 C121 1.170 . S
C121 C120 1.170 . S
C122 C123 1.170 . S
C122 C124 1.380 . S
C123 C122 1.170 . S
C124 C122 1.380 . S
C124 C125 1.170 . S
C125 C124 1.170 . S
C126 C127 1.170 . S
C126 C128 1.380 . S
C127 C126 1.170 . S
C128 C126 1.380 . S
C128 C129 1.170 . S
C129 C128 1.170 . S
C130 C131 1.170 . S
C130 C132 1.380 . S
C131 C130 1.170 . S
C132 C130 1.380 . S
C132 C133 1.170 . S
C133 C132 1.170 . S
C134 C135 1.170 . S
C134 C136 1.380 . S
C135 C134 1.170 . S
C136 C134 1.380 . S
C136 C137 1.170 . S
C137 C136 1.170 . S
C93 C64 1.244 . S
C91 C40 1.432 . S
C95 C4 1.480 . S
C97 C85 1.262 . S
C99 C16 1.564 . S
C101 C61 1.372 . S
C103 C28 1.576 . S
C105 C82 1.400 . S
C109 C66 1.498 . S
C107 C9 1.485 . S
C113 C86 1.518 . S
C111 C18 1.584 . S
C115 C33 1.583 . S
C117 C62 1.542 . S
C119 C45 1.507 . S
C121 C84 1.439 . S
C125 C83 1.462 . S
C123 C21 1.514 . S
C129 C65 1.480 . S
C127 C30 1.535 . S
C133 C87 1.412 . S
C131 C42 1.460 . S
C135 C6 1.457 1_556 S
C137 C63 1.429 . S
