# Generated by pormake.
# Topology rtl, (3,6)-cn, num edge types: 1
# Building blocks:
#     Node 0, Type 0, BuildingBlock: INOVEN_clean_linker_0, # of connection points: 3
#     Node 1, Type 0, BuildingBlock: INOVEN_clean_linker_0, # of connection points: 3
#     Node 2, Type 0, BuildingBlock: INOVEN_clean_linker_0, # of connection points: 3
#     Node 3, Type 0, BuildingBlock: INOVEN_clean_linker_0, # of connection points: 3
#     Node 4, Type 1, BuildingBlock: FUNLAD_clean_sbu_0, # of connection points: 6
#     Node 5, Type 1, BuildingBlock: FUNLAD_clean_sbu_0, # of connection points: 6
#     Edge 6, Type (0, 1), BuildingBlock: OJICUG_clean_linker_0, # of connection points: 2
#     Edge 7, Type (0, 1), BuildingBlock: OJICUG_clean_linker_0, # of connection points: 2
#     Edge 8, Type (0, 1), BuildingBlock: OJICUG_clean_linker_0, # of connection points: 2
#     Edge 9, Type (0, 1), BuildingBlock: OJICUG_clean_linker_0, # of connection points: 2
#     Edge 10, Type (0, 1), BuildingBlock: OJICUG_clean_linker_0, # of connection points: 2
#     Edge 11, Type (0, 1), BuildingBlock: OJICUG_clean_linker_0, # of connection points: 2
#     Edge 12, Type (0, 1), BuildingBlock: OJICUG_clean_linker_0, # of connection points: 2
#     Edge 13, Type (0, 1), BuildingBlock: OJICUG_clean_linker_0, # of connection points: 2
#     Edge 14, Type (0, 1), BuildingBlock: OJICUG_clean_linker_0, # of connection points: 2
#     Edge 15, Type (0, 1), BuildingBlock: OJICUG_clean_linker_0, # of connection points: 2
#     Edge 16, Type (0, 1), BuildingBlock: OJICUG_clean_linker_0, # of connection points: 2
#     Edge 17, Type (0, 1), BuildingBlock: OJICUG_clean_linker_0, # of connection points: 2
# Relax obj value: 0.003
# Max RMSD: 0.043
# Mean RMSD: 0.027
data_MOF--net-rtl--node1-FUNLAD_clean_sbu_0--node2-INOVEN_clean_linker_0--edge1-OJICUG_clean_linker_0
_symmetry_space_group_name_H-M    P1
_symmetry_Int_Tables_number       1
_symmetry_cell_setting            triclinic
loop_
_symmetry_equiv_pos_as_xyz
'x, y, z'
_cell_length_a     30.067161
_cell_length_b     30.413474
_cell_length_c     15.329052
_cell_angle_alpha  91.740546
_cell_angle_beta   92.613959
_cell_angle_gamma 90.039996
loop_
_atom_site_label
_atom_site_type_symbol
_atom_site_fract_x
_atom_site_fract_y
_atom_site_fract_z
_atom_type_partial_charge
H0 H 0.18828 0.83181 0.8533 0.0
H1 H 0.11761 0.93175 -0.00539 0.0
H2 H 0.1918 0.83355 0.13475 0.0
N3 N 0.22396 0.79274 -0.00974 0.0
N4 N 0.24723 0.7817 0.05537 0.0
C5 C 0.17856 0.84667 0.91472 0.0
C6 C 0.15159 0.88423 0.9149 0.0
C7 C 0.19429 0.82893 -0.00644 0.0
C8 C 0.18091 0.84771 0.07339 0.0
C9 C 0.15324 0.88488 0.07374 0.0
C10 C 0.13949 0.9034 -0.00551 0.0
H11 H 0.69845 0.67761 0.68824 0.0
H12 H 0.60083 0.59884 0.54122 0.0
H13 H 0.69841 0.67053 0.40669 0.0
N14 N 0.73749 0.70962 0.55226 0.0
N15 N 0.75932 0.71771 0.48729 0.0
C16 C 0.68447 0.66495 0.62603 0.0
C17 C 0.64777 0.63636 0.62361 0.0
C18 C 0.70278 0.67783 0.54811 0.0
C19 C 0.68474 0.66087 0.46746 0.0
C20 C 0.64768 0.63278 0.46502 0.0
C21 C 0.6292 0.62098 0.54308 0.0
H22 H 0.8381 0.17408 0.84269 0.0
H23 H 0.91459 0.07999 -0.01045 0.0
H24 H 0.83786 0.17763 0.1241 0.0
N25 N 0.8024 0.21447 0.97683 0.0
N26 N 0.79248 0.23753 0.04176 0.0
C27 C 0.84916 0.16089 0.9049 0.0
C28 C 0.87825 0.12489 0.90719 0.0
C29 C 0.83396 0.17985 0.98255 0.0
C30 C 0.84904 0.16315 0.0635 0.0
C31 C 0.87765 0.12668 0.0659 0.0
C32 C 0.8917 0.10755 -0.01236 0.0
H33 H 0.34822 0.32688 0.35477 0.0
H34 H 0.42523 0.42299 0.50762 0.0
H35 H 0.34339 0.33118 0.63569 0.0
N36 N 0.30892 0.29145 0.48602 0.0
N37 N 0.28365 0.28369 0.54606 0.0
C38 C 0.359 0.3412 0.41785 0.0
C39 C 0.38868 0.37681 0.42259 0.0
C40 C 0.34151 0.32528 0.4941 0.0
C41 C 0.35587 0.34377 0.5761 0.0
C42 C 0.38631 0.37886 0.58086 0.0
C43 C 0.40193 0.39566 0.504 0.0
C44 C 0.06411 0.96401 0.36254 0.0
N45 N 0.08502 0.08413 0.5009 0.0
C46 C 0.1288 0.07325 0.4966 0.0
C47 C 0.16159 0.10579 0.50238 0.0
C48 C 0.14938 0.14999 0.51416 0.0
C49 C 0.10405 0.16042 0.51914 0.0
C50 C 0.07219 0.1268 0.51166 0.0
Zn51 Zn 0.0391 0.03411 0.49352 0.0
C52 C 0.96551 0.04812 0.36306 0.0
N53 N 0.94739 0.92606 0.48032 0.0
C54 C 0.96211 0.88388 0.47176 0.0
C55 C 0.90341 0.935 0.48868 0.0
C56 C 0.87246 0.90082 0.49058 0.0
C57 C 0.88681 0.85707 0.48228 0.0
C58 C 0.93216 0.84873 0.47175 0.0
Zn59 Zn 0.99233 0.97691 0.4857 0.0
O60 O 0.07545 1.00153 0.39492 0.0
C61 C 0.06555 0.96311 0.61638 0.0
O62 O 0.02942 0.94541 0.38823 0.0
H63 H 0.8923 0.96871 0.4948 0.0
H64 H 0.13845 0.03915 0.48928 0.0
H65 H 0.99723 0.8774 0.46604 0.0
O66 O 0.07663 1.00095 0.59178 0.0
O67 O 0.03088 0.94457 0.58208 0.0
H68 H 0.03724 0.13478 0.51479 0.0
O69 O 0.95628 0.00922 0.58482 0.0
O70 O 1.00187 0.06574 0.59066 0.0
O71 O 0.95435 0.01029 0.38807 0.0
O72 O 1.00055 0.06651 0.39648 0.0
C73 C 0.96752 0.0468 0.61708 0.0
H74 H 0.19625 0.09642 0.49925 0.0
H75 H 0.09337 0.19422 0.52768 0.0
H76 H 0.83763 0.9085 0.49792 0.0
H77 H 0.94445 0.81535 0.46569 0.0
C78 C 0.47069 0.46342 0.88538 0.0
N79 N 0.59172 0.43418 0.02136 0.0
C80 C 0.58027 0.39111 0.00796 0.0
C81 C 0.613 0.3585 0.00884 0.0
C82 C 0.65781 0.37027 0.02521 0.0
C83 C 0.66872 0.41486 0.03902 0.0
C84 C 0.63504 0.44647 0.036 0.0
Zn85 Zn 0.543 0.48143 0.02186 0.0
C86 C 0.56253 0.55498 0.90483 0.0
N87 N 0.44187 0.58038 0.02397 0.0
C88 C 0.39826 0.56855 0.01257 0.0
C89 C 0.45394 0.62314 0.03957 0.0
C90 C 0.42157 0.65582 0.04586 0.0
C91 C 0.3764 0.64448 0.03453 0.0
C92 C 0.36482 0.60031 0.01685 0.0
Zn93 Zn 0.49026 0.53308 0.02172 0.0
O94 O 0.50709 0.44797 0.9169 0.0
C95 C 0.47063 0.46015 0.13929 0.0
O96 O 0.45592 0.49944 0.91653 0.0
H97 H 0.48875 0.63195 0.0478 0.0
H98 H 0.54566 0.38194 -0.00284 0.0
H99 H 0.38934 0.53435 0.00098 0.0
O100 O 0.50726 0.44534 0.11235 0.0
O101 O 0.45572 0.49647 0.11147 0.0
H102 H 0.64357 0.48087 0.04576 0.0
O103 O 0.52526 0.56584 0.12711 0.0
O104 O 0.57766 0.51574 0.12677 0.0
O105 O 0.52569 0.56913 0.9319 0.0
O106 O 0.57787 0.51858 0.93169 0.0
C107 C 0.56192 0.55118 0.15854 0.0
H108 H 0.60331 0.32435 -0.00148 0.0
H109 H 0.703 0.42519 0.05108 0.0
H110 H 0.43174 0.68967 0.05861 0.0
H111 H 0.33026 0.59036 0.00819 0.0
C112 C 0.21745 0.24879 0.59786 0.0
C113 C 0.25081 0.25007 0.53712 0.0
H114 H 0.15864 0.21639 0.63771 0.0
C115 C 0.25068 0.21832 0.46839 0.0
H116 H 0.21714 0.27298 0.65116 0.0
C117 C 0.21771 0.18583 0.4611 0.0
C118 C 0.18396 0.18482 0.52152 0.0
H119 H 0.27612 0.21843 0.42064 0.0
H120 H 0.21831 0.16173 0.40765 0.0
C121 C 0.18403 0.21671 0.5898 0.0
C122 C 0.2763 0.71569 0.97953 0.0
C123 C 0.27755 0.74604 0.05078 0.0
H124 H 0.30666 0.65939 0.91926 0.0
C125 C 0.31037 0.74185 0.11772 0.0
H126 H 0.25112 0.71803 0.9271 0.0
C127 C 0.34246 0.70875 0.11265 0.0
C128 C 0.34163 0.67871 0.04111 0.0
H129 H 0.31168 0.76491 0.17303 0.0
H130 H 0.36789 0.70656 0.16471 0.0
C131 C 0.30791 0.68208 0.97518 0.0
C132 C 0.79395 0.78458 0.55578 0.0
C133 C 0.79206 0.75143 0.48966 0.0
H134 H 0.82542 0.84427 0.60447 0.0
C135 C 0.82177 0.7529 0.42205 0.0
H136 H 0.7711 0.78447 0.60835 0.0
C137 C 0.85315 0.78679 0.42033 0.0
C138 C 0.8546 0.82035 0.48544 0.0
H139 H 0.82047 0.72779 0.37036 0.0
H140 H 0.87562 0.78733 0.36711 0.0
C141 C 0.82476 0.81891 0.55323 0.0
C142 C 0.72853 0.27199 0.96371 0.0
C143 C 0.7594 0.27075 0.03545 0.0
H144 H 0.6719 0.30445 0.90495 0.0
C145 C 0.75671 0.30235 0.10335 0.0
H146 H 0.72959 0.24775 0.91064 0.0
C147 C 0.7241 0.33512 0.09954 0.0
C148 C 0.69297 0.33616 0.02839 0.0
H149 H 0.78006 0.30168 0.15923 0.0
H150 H 0.72269 0.35918 0.15292 0.0
C151 C 0.6954 0.30422 0.96065 0.0
C152 C 0.10862 0.87791 0.2058 0.0
C153 C 0.13591 0.90348 0.15543 0.0
H154 H 0.06383 0.87727 0.31053 0.0
C155 C 0.14173 0.94835 0.177 0.0
H156 H 0.1033 0.84334 0.18949 0.0
C157 C 0.11959 0.96771 0.24642 0.0
C158 C 0.09046 0.94268 0.29423 0.0
H159 H 0.16248 0.96866 0.13849 0.0
H160 H 0.12396 1.00261 0.26043 0.0
C161 C 0.08576 0.89743 0.27427 0.0
C162 C 0.5844 0.63137 0.72162 0.0
C163 C 0.62864 0.62112 0.70415 0.0
H164 H 0.52896 0.61892 0.79999 0.0
C165 C 0.65222 0.59141 0.75688 0.0
H166 H 0.5656 0.65394 0.68091 0.0
C167 C 0.63108 0.57056 0.8238 0.0
C168 C 0.58625 0.57968 0.8396 0.0
H169 H 0.68623 0.58272 0.74351 0.0
H170 H 0.6495 0.54662 0.86181 0.0
C171 C 0.56351 0.61121 0.78942 0.0
C172 C 0.92215 0.13413 0.20708 0.0
C173 C 0.89458 0.1086 0.14922 0.0
H174 H 0.9668 0.13477 0.32017 0.0
C175 C 0.88786 0.064 0.16569 0.0
H176 H 0.92809 0.16849 0.19489 0.0
C177 C 0.90951 0.04479 0.23742 0.0
C178 C 0.93903 0.06966 0.29294 0.0
H179 H 0.86685 0.04373 0.12144 0.0
H180 H 0.90455 0.01003 0.24719 0.0
C181 C 0.94451 0.11472 0.27808 0.0
C182 C 0.43373 0.37505 0.71796 0.0
C183 C 0.40308 0.3982 0.66527 0.0
H184 H 0.47979 0.37782 0.82894 0.0
C185 C 0.39302 0.442 0.68761 0.0
H186 H 0.44231 0.34138 0.70084 0.0
C187 C 0.41401 0.46274 0.76088 0.0
C188 C 0.44617 0.44029 0.81189 0.0
H189 H 0.36978 0.46047 0.64697 0.0
H190 H 0.40618 0.49684 0.77571 0.0
C191 C 0.45538 0.39603 0.79048 0.0
C192 C 0.65145 0.5869 0.32776 0.0
C193 C 0.6275 0.61549 0.38157 0.0
H194 H 0.64913 0.54342 0.21489 0.0
C195 C 0.58273 0.62447 0.3595 0.0
H196 H 0.68597 0.57935 0.34433 0.0
C197 C 0.56184 0.60453 0.28539 0.0
C198 C 0.58516 0.57451 0.23313 0.0
H199 H 0.56372 0.64637 0.40056 0.0
H200 H 0.52703 0.61157 0.27067 0.0
C201 C 0.63031 0.56621 0.25438 0.0
C202 C 0.89199 0.06098 0.80628 0.0
C203 C 0.8966 0.10609 0.82665 0.0
H204 H 0.91036 0.00694 0.72287 0.0
C205 C 0.92266 0.13217 0.77484 0.0
H206 H 0.87213 0.04031 0.84579 0.0
C207 C 0.94533 0.11302 0.70575 0.0
C208 C 0.94159 0.06764 0.68652 0.0
H209 H 0.92696 0.16697 0.79012 0.0
H210 H 0.96623 0.13362 0.66814 0.0
C211 C 0.91389 0.04199 0.73619 0.0
C212 C 0.39382 0.43856 0.3214 0.0
C213 C 0.40563 0.39558 0.34323 0.0
H214 H 0.40466 0.49244 0.23868 0.0
C215 C 0.43693 0.37265 0.29442 0.0
H216 H 0.36986 0.45676 0.35888 0.0
C217 C 0.45757 0.39323 0.22653 0.0
C218 C 0.44663 0.4368 0.20598 0.0
H219 H 0.44666 0.33954 0.31108 0.0
H220 H 0.48261 0.37538 0.19128 0.0
C221 C 0.4138 0.45886 0.25282 0.0
C222 C 0.14037 0.94783 0.8176 0.0
C223 C 0.13424 0.903 0.83262 0.0
H224 H 0.12395 1.00191 0.7362 0.0
C225 C 0.10799 0.87726 0.77278 0.0
H226 H 0.16056 0.96821 0.86314 0.0
C227 C 0.08638 0.8966 0.70104 0.0
C228 C 0.09137 0.94181 0.68739 0.0
H229 H 0.10261 0.84266 0.78364 0.0
H230 H 0.06511 0.87636 0.65725 0.0
C231 C 0.11948 0.96701 0.74508 0.0
loop_
_geom_bond_atom_site_label_1
_geom_bond_atom_site_label_2
_geom_bond_distance
_geom_bond_site_symmetry_2
_ccdc_geom_bond_type
H0 C5 0.929 . S
H1 C10 0.931 . S
H2 C8 0.930 . S
N3 N4 1.234 1_556 S
N3 C7 1.453 1_556 S
N4 N3 1.234 1_554 S
C5 H0 0.929 . S
C5 C6 1.373 . S
C5 C7 1.368 1_556 S
C6 C5 1.373 . S
C6 C10 1.397 1_556 S
C7 N3 1.453 1_554 S
C7 C5 1.368 1_554 S
C7 C8 1.373 . S
C8 H2 0.930 . S
C8 C7 1.373 . S
C8 C9 1.371 . S
C9 C8 1.371 . S
C9 C10 1.383 . S
C10 H1 0.931 . S
C10 C6 1.397 1_554 S
C10 C9 1.383 . S
H11 C16 0.929 . S
H12 C21 0.931 . S
H13 C19 0.930 . S
N14 N15 1.234 . S
N14 C18 1.453 . S
N15 N14 1.234 . S
C16 H11 0.929 . S
C16 C17 1.373 . S
C16 C18 1.368 . S
C17 C16 1.373 . S
C17 C21 1.397 . S
C18 N14 1.453 . S
C18 C16 1.368 . S
C18 C19 1.373 . S
C19 H13 0.930 . S
C19 C18 1.373 . S
C19 C20 1.371 . S
C20 C19 1.371 . S
C20 C21 1.383 . S
C21 H12 0.931 . S
C21 C17 1.397 . S
C21 C20 1.383 . S
H22 C27 0.929 . S
H23 C32 0.931 . S
H24 C30 0.930 . S
N25 N26 1.234 1_556 S
N25 C29 1.453 . S
N26 N25 1.234 1_554 S
C27 H22 0.929 . S
C27 C28 1.373 . S
C27 C29 1.368 . S
C28 C27 1.373 . S
C28 C32 1.397 1_556 S
C29 N25 1.453 . S
C29 C27 1.368 . S
C29 C30 1.373 1_556 S
C30 H24 0.930 . S
C30 C29 1.373 1_554 S
C30 C31 1.371 . S
C31 C30 1.371 . S
C31 C32 1.383 . S
C32 H23 0.931 . S
C32 C28 1.397 1_554 S
C32 C31 1.383 . S
H33 C38 0.929 . S
H34 C43 0.931 . S
H35 C41 0.930 . S
N36 N37 1.234 . S
N36 C40 1.453 . S
N37 N36 1.234 . S
C38 H33 0.929 . S
C38 C39 1.373 . S
C38 C40 1.368 . S
C39 C38 1.373 . S
C39 C43 1.397 . S
C40 N36 1.453 . S
C40 C38 1.368 . S
C40 C41 1.373 . S
C41 H35 0.930 . S
C41 C40 1.373 . S
C41 C42 1.371 . S
C42 C41 1.371 . S
C42 C43 1.383 . S
C43 H34 0.931 . S
C43 C39 1.397 . S
C43 C42 1.383 . S
C44 O60 1.251 . S
C44 O62 1.254 . S
N45 C46 1.333 . S
N45 C50 1.307 . S
N45 Zn51 2.020 . S
C46 N45 1.333 . S
C46 C47 1.379 . S
C46 H64 0.952 . S
C47 C46 1.379 . S
C47 C48 1.390 . S
C47 H74 0.949 . S
C48 C47 1.390 . S
C48 C49 1.357 . S
C49 C48 1.357 . S
C49 C50 1.370 . S
C49 H75 0.950 . S
C50 N45 1.307 . S
C50 C49 1.370 . S
C50 H68 0.948 . S
Zn51 N45 2.020 . S
Zn51 O60 2.039 1_545 S
Zn51 O66 2.034 1_545 S
Zn51 O70 2.008 1_455 S
Zn51 O72 2.024 1_455 S
C52 O71 1.246 . S
C52 O72 1.249 . S
N53 C54 1.307 . S
N53 C55 1.333 . S
N53 Zn59 2.020 . S
C54 N53 1.307 . S
C54 C58 1.370 . S
C54 H65 0.948 . S
C55 N53 1.333 . S
C55 C56 1.379 . S
C55 H63 0.952 . S
C56 C55 1.379 . S
C56 C57 1.390 . S
C56 H76 0.949 . S
C57 C56 1.390 . S
C57 C58 1.357 . S
C58 C54 1.370 . S
C58 C57 1.357 . S
C58 H77 0.950 . S
Zn59 N53 2.020 . S
Zn59 O62 2.025 1_655 S
Zn59 O67 2.024 1_655 S
Zn59 O69 2.039 1_565 S
Zn59 O71 2.034 1_565 S
O60 C44 1.251 . S
O60 Zn51 2.039 1_565 S
C61 O66 1.246 . S
C61 O67 1.249 . S
O62 C44 1.254 . S
O62 Zn59 2.025 1_455 S
H63 C55 0.952 . S
H64 C46 0.952 . S
H65 C54 0.948 . S
O66 Zn51 2.034 1_565 S
O66 C61 1.246 . S
O67 Zn59 2.024 1_455 S
O67 C61 1.249 . S
H68 C50 0.948 . S
O69 Zn59 2.039 1_545 S
O69 C73 1.251 . S
O70 Zn51 2.008 1_655 S
O70 C73 1.276 . S
O71 C52 1.246 . S
O71 Zn59 2.034 1_545 S
O72 Zn51 2.024 1_655 S
O72 C52 1.249 . S
C73 O69 1.251 . S
C73 O70 1.276 . S
H74 C47 0.949 . S
H75 C49 0.950 . S
H76 C56 0.949 . S
H77 C58 0.950 . S
C78 O94 1.251 . S
C78 O96 1.254 . S
N79 C80 1.333 . S
N79 C84 1.307 . S
N79 Zn85 2.020 . S
C80 N79 1.333 . S
C80 C81 1.379 . S
C80 H98 0.952 1_554 S
C81 C80 1.379 . S
C81 C82 1.390 . S
C81 H108 0.949 1_554 S
C82 C81 1.390 . S
C82 C83 1.357 . S
C83 C82 1.357 . S
C83 C84 1.370 . S
C83 H109 0.950 . S
C84 N79 1.307 . S
C84 C83 1.370 . S
C84 H102 0.948 . S
Zn85 N79 2.020 . S
Zn85 O94 2.039 1_554 S
Zn85 O100 2.034 . S
Zn85 O104 2.025 . S
Zn85 O106 2.024 1_554 S
C86 O105 1.246 . S
C86 O106 1.249 . S
N87 C88 1.307 . S
N87 C89 1.333 . S
N87 Zn93 2.020 . S
C88 N87 1.307 . S
C88 C92 1.370 . S
C88 H99 0.948 1_554 S
C89 N87 1.333 . S
C89 C90 1.379 . S
C89 H97 0.952 . S
C90 C89 1.379 . S
C90 C91 1.390 . S
C90 H110 0.949 . S
C91 C90 1.390 . S
C91 C92 1.357 . S
C92 C88 1.370 . S
C92 C91 1.357 . S
C92 H111 0.950 1_554 S
Zn93 N87 2.020 . S
Zn93 O96 2.025 1_554 S
Zn93 O101 2.024 . S
Zn93 O103 2.039 . S
Zn93 O105 2.034 1_554 S
O94 C78 1.251 . S
O94 Zn85 2.039 1_556 S
C95 O100 1.246 . S
C95 O101 1.249 . S
O96 C78 1.254 . S
O96 Zn93 2.025 1_556 S
H97 C89 0.952 . S
H98 C80 0.952 1_556 S
H99 C88 0.948 1_556 S
O100 Zn85 2.034 . S
O100 C95 1.246 . S
O101 Zn93 2.024 . S
O101 C95 1.249 . S
H102 C84 0.948 . S
O103 Zn93 2.039 . S
O103 C107 1.251 . S
O104 Zn85 2.025 . S
O104 C107 1.254 . S
O105 C86 1.246 . S
O105 Zn93 2.034 1_556 S
O106 Zn85 2.024 1_556 S
O106 C86 1.249 . S
C107 O103 1.251 . S
C107 O104 1.254 . S
H108 C81 0.949 1_556 S
H109 C83 0.950 . S
H110 C90 0.949 . S
H111 C92 0.950 1_556 S
C112 C113 1.387 . S
C112 H116 0.950 . S
C112 C121 1.390 . S
C113 C112 1.387 . S
C113 C115 1.387 . S
H114 C121 0.950 . S
C115 C113 1.387 . S
C115 C117 1.390 . S
C115 H119 0.950 . S
H116 C112 0.950 . S
C117 C115 1.390 . S
C117 C118 1.387 . S
C117 H120 0.950 . S
C118 C117 1.387 . S
C118 C121 1.387 . S
H119 C115 0.950 . S
H120 C117 0.950 . S
C121 C112 1.390 . S
C121 H114 0.950 . S
C121 C118 1.387 . S
C122 C123 1.387 1_556 S
C122 H126 0.950 . S
C122 C131 1.390 . S
C123 C122 1.387 1_554 S
C123 C125 1.387 . S
H124 C131 0.950 . S
C125 C123 1.387 . S
C125 C127 1.390 . S
C125 H129 0.950 . S
H126 C122 0.950 . S
C127 C125 1.390 . S
C127 C128 1.387 . S
C127 H130 0.950 . S
C128 C127 1.387 . S
C128 C131 1.387 1_554 S
H129 C125 0.950 . S
H130 C127 0.950 . S
C131 C122 1.390 . S
C131 H124 0.950 . S
C131 C128 1.387 1_556 S
C132 C133 1.387 . S
C132 H136 0.950 . S
C132 C141 1.390 . S
C133 C132 1.387 . S
C133 C135 1.387 . S
H134 C141 0.950 . S
C135 C133 1.387 . S
C135 C137 1.390 . S
C135 H139 0.950 . S
H136 C132 0.950 . S
C137 C135 1.390 . S
C137 C138 1.387 . S
C137 H140 0.950 . S
C138 C137 1.387 . S
C138 C141 1.387 . S
H139 C135 0.950 . S
H140 C137 0.950 . S
C141 C132 1.390 . S
C141 H134 0.950 . S
C141 C138 1.387 . S
C142 C143 1.387 1_556 S
C142 H146 0.950 . S
C142 C151 1.390 . S
C143 C142 1.387 1_554 S
C143 C145 1.387 . S
H144 C151 0.950 . S
C145 C143 1.387 . S
C145 C147 1.390 . S
C145 H149 0.950 . S
H146 C142 0.950 . S
C147 C145 1.390 . S
C147 C148 1.387 . S
C147 H150 0.950 . S
C148 C147 1.387 . S
C148 C151 1.387 1_554 S
H149 C145 0.950 . S
H150 C147 0.950 . S
C151 C142 1.390 . S
C151 H144 0.950 . S
C151 C148 1.387 1_556 S
C152 C153 1.387 . S
C152 H156 0.950 . S
C152 C161 1.390 . S
C153 C152 1.387 . S
C153 C155 1.387 . S
H154 C161 0.950 . S
C155 C153 1.387 . S
C155 C157 1.390 . S
C155 H159 0.950 . S
H156 C152 0.950 . S
C157 C155 1.390 . S
C157 C158 1.387 . S
C157 H160 0.950 . S
C158 C157 1.387 . S
C158 C161 1.387 . S
H159 C155 0.950 . S
H160 C157 0.950 . S
C161 C152 1.390 . S
C161 H154 0.950 . S
C161 C158 1.387 . S
C162 C163 1.387 . S
C162 H166 0.950 . S
C162 C171 1.390 . S
C163 C162 1.387 . S
C163 C165 1.387 . S
H164 C171 0.950 . S
C165 C163 1.387 . S
C165 C167 1.390 . S
C165 H169 0.950 . S
H166 C162 0.950 . S
C167 C165 1.390 . S
C167 C168 1.387 . S
C167 H170 0.950 . S
C168 C167 1.387 . S
C168 C171 1.387 . S
H169 C165 0.950 . S
H170 C167 0.950 . S
C171 C162 1.390 . S
C171 H164 0.950 . S
C171 C168 1.387 . S
C172 C173 1.387 . S
C172 H176 0.950 . S
C172 C181 1.390 . S
C173 C172 1.387 . S
C173 C175 1.387 . S
H174 C181 0.950 . S
C175 C173 1.387 . S
C175 C177 1.390 . S
C175 H179 0.950 . S
H176 C172 0.950 . S
C177 C175 1.390 . S
C177 C178 1.387 . S
C177 H180 0.950 . S
C178 C177 1.387 . S
C178 C181 1.387 . S
H179 C175 0.950 . S
H180 C177 0.950 . S
C181 C172 1.390 . S
C181 H174 0.950 . S
C181 C178 1.387 . S
C182 C183 1.387 . S
C182 H186 0.950 . S
C182 C191 1.390 . S
C183 C182 1.387 . S
C183 C185 1.387 . S
H184 C191 0.950 . S
C185 C183 1.387 . S
C185 C187 1.390 . S
C185 H189 0.950 . S
H186 C182 0.950 . S
C187 C185 1.390 . S
C187 C188 1.387 . S
C187 H190 0.950 . S
C188 C187 1.387 . S
C188 C191 1.387 . S
H189 C185 0.950 . S
H190 C187 0.950 . S
C191 C182 1.390 . S
C191 H184 0.950 . S
C191 C188 1.387 . S
C192 C193 1.387 . S
C192 H196 0.950 . S
C192 C201 1.390 . S
C193 C192 1.387 . S
C193 C195 1.387 . S
H194 C201 0.950 . S
C195 C193 1.387 . S
C195 C197 1.390 . S
C195 H199 0.950 . S
H196 C192 0.950 . S
C197 C195 1.390 . S
C197 C198 1.387 . S
C197 H200 0.950 . S
C198 C197 1.387 . S
C198 C201 1.387 . S
H199 C195 0.950 . S
H200 C197 0.950 . S
C201 C192 1.390 . S
C201 H194 0.950 . S
C201 C198 1.387 . S
C202 C203 1.387 . S
C202 H206 0.950 . S
C202 C211 1.390 . S
C203 C202 1.387 . S
C203 C205 1.387 . S
H204 C211 0.950 . S
C205 C203 1.387 . S
C205 C207 1.390 . S
C205 H209 0.950 . S
H206 C202 0.950 . S
C207 C205 1.390 . S
C207 C208 1.387 . S
C207 H210 0.950 . S
C208 C207 1.387 . S
C208 C211 1.387 . S
H209 C205 0.950 . S
H210 C207 0.950 . S
C211 C202 1.390 . S
C211 H204 0.950 . S
C211 C208 1.387 . S
C212 C213 1.387 . S
C212 H216 0.950 . S
C212 C221 1.390 . S
C213 C212 1.387 . S
C213 C215 1.387 . S
H214 C221 0.950 . S
C215 C213 1.387 . S
C215 C217 1.390 . S
C215 H219 0.950 . S
H216 C212 0.950 . S
C217 C215 1.390 . S
C217 C218 1.387 . S
C217 H220 0.950 . S
C218 C217 1.387 . S
C218 C221 1.387 . S
H219 C215 0.950 . S
H220 C217 0.950 . S
C221 C212 1.390 . S
C221 H214 0.950 . S
C221 C218 1.387 . S
C222 C223 1.387 . S
C222 H226 0.950 . S
C222 C231 1.390 . S
C223 C222 1.387 . S
C223 C225 1.387 . S
H224 C231 0.950 . S
C225 C223 1.387 . S
C225 C227 1.390 . S
C225 H229 0.950 . S
H226 C222 0.950 . S
C227 C225 1.390 . S
C227 C228 1.387 . S
C227 H230 0.950 . S
C228 C227 1.387 . S
C228 C231 1.387 . S
H229 C225 0.950 . S
H230 C227 0.950 . S
C231 C222 1.390 . S
C231 H224 0.950 . S
C231 C228 1.387 . S
C118 C48 1.504 . S
C113 N37 1.506 . S
C123 N4 1.506 . S
C128 C91 1.507 . S
C133 N15 1.498 . S
C138 C57 1.507 . S
C143 N26 1.502 . S
C148 C82 1.505 . S
C158 C44 1.559 . S
C153 C9 1.530 . S
C168 C86 1.537 . S
C163 C17 1.536 . S
C173 C31 1.533 . S
C178 C52 1.554 . S
C183 C42 1.516 . S
C188 C78 1.539 . S
C198 C107 1.472 . S
C193 C20 1.453 . S
C208 C73 1.456 . S
C203 C28 1.451 . S
C218 C95 1.472 . S
C213 C39 1.469 . S
C223 C6 1.453 . S
C228 C61 1.455 . S
