# Generated by pormake.
# Topology ftw, (4,12)-cn, num edge types: 1
# Building blocks:
#     Node 0, Type 0, BuildingBlock: KUFVIS_clean_linker_0, # of connection points: 4
#     Node 1, Type 0, BuildingBlock: KUFVIS_clean_linker_0, # of connection points: 4
#     Node 2, Type 0, BuildingBlock: KUFVIS_clean_linker_0, # of connection points: 4
#     Node 3, Type 1, BuildingBlock: EZIPEK_clean_sbu_0, # of connection points: 12
#     Edge 4, Type (0, 1), BuildingBlock: EYOCIG_clean_linker_4, # of connection points: 2
#     Edge 5, Type (0, 1), BuildingBlock: EYOCIG_clean_linker_4, # of connection points: 2
#     Edge 6, Type (0, 1), BuildingBlock: EYOCIG_clean_linker_4, # of connection points: 2
#     Edge 7, Type (0, 1), BuildingBlock: EYOCIG_clean_linker_4, # of connection points: 2
#     Edge 8, Type (0, 1), BuildingBlock: EYOCIG_clean_linker_4, # of connection points: 2
#     Edge 9, Type (0, 1), BuildingBlock: EYOCIG_clean_linker_4, # of connection points: 2
#     Edge 10, Type (0, 1), BuildingBlock: EYOCIG_clean_linker_4, # of connection points: 2
#     Edge 11, Type (0, 1), BuildingBlock: EYOCIG_clean_linker_4, # of connection points: 2
#     Edge 12, Type (0, 1), BuildingBlock: EYOCIG_clean_linker_4, # of connection points: 2
#     Edge 13, Type (0, 1), BuildingBlock: EYOCIG_clean_linker_4, # of connection points: 2
#     Edge 14, Type (0, 1), BuildingBlock: EYOCIG_clean_linker_4, # of connection points: 2
#     Edge 15, Type (0, 1), BuildingBlock: EYOCIG_clean_linker_4, # of connection points: 2
# Relax obj value: 0.081
# Max RMSD: 0.235
# Mean RMSD: 0.179
data_MOF--net-ftw--node1-EZIPEK_clean_sbu_0--node2-KUFVIS_clean_linker_0--edge1-EYOCIG_clean_linker_4
_symmetry_space_group_name_H-M    P1
_symmetry_Int_Tables_number       1
_symmetry_cell_setting            triclinic
loop_
_symmetry_equiv_pos_as_xyz
'x, y, z'
_cell_length_a     19.706533
_cell_length_b     20.161811
_cell_length_c     19.795511
_cell_angle_alpha  89.989833
_cell_angle_beta   90.028646
_cell_angle_gamma 89.992403
loop_
_atom_site_label
_atom_site_type_symbol
_atom_site_fract_x
_atom_site_fract_y
_atom_site_fract_z
_atom_type_partial_charge
H0 H -0.02065 0.31245 0.52011 0.0
H1 H -0.00995 0.49406 0.62979 0.0
H2 H 0.97404 0.4944 0.41056 0.0
H3 H -0.00891 0.5961 0.41076 0.0
H4 H -0.0188 0.77776 0.52044 0.0
H5 H 0.97352 0.59584 0.62986 0.0
C6 C -0.01985 0.36627 0.52013 0.0
C7 C -0.02176 0.40088 0.45904 0.0
C8 C -0.01685 0.40074 0.58124 0.0
C9 C -0.01458 0.47032 0.58125 0.0
C10 C -0.01801 0.5073 0.5202 0.0
C11 C -0.0221 0.47049 0.45909 0.0
C12 C -0.01769 0.5829 0.52029 0.0
C13 C -0.01357 0.61987 0.45928 0.0
C14 C -0.01529 0.68946 0.45931 0.0
C15 C -0.01838 0.72393 0.52041 0.0
C16 C -0.02109 0.68932 0.58145 0.0
C17 C -0.02198 0.61972 0.58138 0.0
H18 H 0.4778 0.04469 0.7556 0.0
H19 H 0.58655 1.02108 0.57066 0.0
H20 H 0.3702 0.06115 0.56916 0.0
H21 H 0.37046 1.02074 0.47032 0.0
H22 H 0.47896 1.04077 0.28483 0.0
H23 H 0.5871 0.05927 0.47078 0.0
C24 C 0.47798 1.04362 0.70079 0.0
C25 C 0.41739 0.05026 0.66501 0.0
C26 C 0.53879 1.03555 0.66574 0.0
C27 C 0.53882 1.03148 0.59532 0.0
C28 C 0.47843 1.04095 0.55811 0.0
C29 C 0.41779 0.05165 0.5945 0.0
C30 C 0.47874 1.04011 0.48235 0.0
C31 C 0.41823 1.03036 0.44542 0.0
C32 C 0.41816 1.03329 0.37496 0.0
C33 C 0.47893 1.04039 0.33966 0.0
C34 C 0.53964 0.04721 0.37518 0.0
C35 C 0.53941 0.04965 0.44568 0.0
H36 H 0.4795 0.77729 0.02084 0.0
H37 H 0.58831 0.59528 0.0393 0.0
H38 H 0.36982 0.59526 1.00886 0.0
H39 H 0.36959 0.49519 0.03822 0.0
H40 H 0.47902 0.31308 0.02446 0.0
H41 H 0.58846 0.49508 1.01078 0.0
C42 C 0.47937 0.72347 0.02178 0.0
C43 C 0.41814 0.68896 0.01705 0.0
C44 C 0.54041 0.68885 0.02783 0.0
C45 C 0.54015 0.61941 0.03107 0.0
C46 C 0.47908 0.5828 0.02402 0.0
C47 C 0.4181 0.61944 0.01611 0.0
C48 C 0.47904 0.5076 0.02458 0.0
C49 C 0.41791 0.471 0.03126 0.0
C50 C 0.41782 0.40149 0.02919 0.0
C51 C 0.47903 0.36691 0.02462 0.0
C52 C 0.54022 0.40148 0.02 0.0
C53 C 0.54015 0.47095 0.01801 0.0
C54 C -0.02027 0.20527 0.85515 0.0
C55 C -0.02174 0.20526 0.18531 0.0
C56 C -0.02231 0.88492 0.85518 0.0
C57 C -0.01913 0.885 0.18543 0.0
C58 C 0.14462 0.88544 0.01707 0.0
C59 C 0.14444 0.2049 0.02364 0.0
C60 C 0.81368 0.88524 0.02388 0.0
C61 C 0.81364 0.20505 0.01868 0.0
C62 C 0.81499 0.04715 0.18262 0.0
C63 C 0.14291 1.04125 0.18243 0.0
C64 C 0.81451 1.0417 0.85807 0.0
C65 C 0.14225 0.04821 0.85743 0.0
Eu66 Eu -0.02103 0.17216 0.02025 0.0
O67 O 0.0389 0.10468 0.08029 0.0
O68 O 0.91881 0.10482 0.96014 0.0
Eu69 Eu 0.10625 0.04517 0.02002 0.0
Eu70 Eu 0.85157 0.04513 0.02035 0.0
O71 O 0.03852 0.1046 0.96017 0.0
O72 O 0.91923 0.1046 0.0802 0.0
Eu73 Eu -0.02147 0.04512 0.89241 0.0
Eu74 Eu -0.02098 0.04512 0.14804 0.0
O75 O 0.03862 0.98549 0.96009 0.0
O76 O 0.03866 0.98566 0.07997 0.0
O77 O 0.91924 0.98544 0.08027 0.0
O78 O 0.91912 0.98548 0.96048 0.0
Eu79 Eu -0.02095 0.91789 0.02027 0.0
O80 O -0.01953 0.22675 0.91908 0.0
O81 O -0.02225 0.22674 0.12137 0.0
O82 O -0.02274 0.86339 0.9191 0.0
O83 O -0.01865 0.86347 0.12151 0.0
O84 O 0.16453 0.94856 0.01736 0.0
O85 O 0.16445 0.14181 0.02306 0.0
O86 O 0.79361 0.94833 0.0231 0.0
O87 O 0.79358 0.14197 0.01876 0.0
O88 O 0.87895 0.04597 0.20434 0.0
O89 O 0.07905 1.04312 0.20426 0.0
O90 O 0.87838 1.0432 0.83621 0.0
O91 O 0.07829 0.04658 0.83582 0.0
O92 O 0.87772 0.86353 0.02281 0.0
O93 O 0.08059 0.86366 0.01826 0.0
O94 O 0.8777 0.22671 0.01929 0.0
O95 O 0.08037 0.22659 0.02241 0.0
O96 O -0.02074 0.14219 0.20544 0.0
O97 O -0.02069 0.94807 0.20549 0.0
O98 O -0.02169 0.14222 0.83503 0.0
O99 O -0.02124 0.94799 0.83507 0.0
O100 O 0.16308 0.04807 0.92131 0.0
O101 O 0.16348 1.04167 0.11849 0.0
O102 O 0.79405 1.04223 0.92204 0.0
O103 O 0.79432 0.04714 0.11871 0.0
C104 C -0.02343 0.3321 0.34462 0.0
C105 C -0.0227 0.36451 0.39601 0.0
C106 C -0.02316 0.29155 0.28611 0.0
C107 C -0.02255 0.25425 0.23829 0.0
C108 C 0.65515 0.05164 0.30851 0.0
C109 C 0.60278 0.04967 0.3394 0.0
C110 C 0.71463 0.05086 0.26956 0.0
C111 C 0.76269 0.04914 0.23235 0.0
C112 C -0.0149 0.75837 0.34492 0.0
C113 C -0.01502 0.72592 0.39631 0.0
C114 C -0.01607 0.79887 0.28637 0.0
C115 C -0.01742 0.83609 0.23848 0.0
C116 C 0.30261 1.03134 0.30821 0.0
C117 C 0.35502 1.03218 0.3391 0.0
C118 C 0.24315 1.03401 0.2693 0.0
C119 C 0.19518 1.03736 0.23209 0.0
C120 C -0.02359 0.75809 0.69587 0.0
C121 C -0.02249 0.72568 0.64449 0.0
C122 C -0.02363 0.79864 0.75437 0.0
C123 C -0.02307 0.83595 0.80219 0.0
C124 C 0.30164 0.05495 0.73119 0.0
C125 C 0.35411 0.05285 0.7005 0.0
C126 C 0.24219 0.05359 0.77015 0.0
C127 C 0.19434 0.0511 0.80754 0.0
C128 C -0.01694 0.33191 0.69567 0.0
C129 C -0.01684 0.36431 0.64425 0.0
C130 C -0.01797 0.29147 0.75425 0.0
C131 C -0.01897 0.25424 0.80214 0.0
C132 C 0.65425 1.03305 0.73274 0.0
C133 C 0.60184 1.03414 0.7018 0.0
C134 C 0.71388 1.03526 0.77149 0.0
C135 C 0.76207 1.03823 0.8085 0.0
C136 C 0.30331 0.33251 0.03033 0.0
C137 C 0.35462 0.36524 0.02991 0.0
C138 C 0.24514 0.29141 0.02854 0.0
C139 C 0.19756 0.25374 0.0263 0.0
C140 C 0.30375 0.75805 1.01311 0.0
C141 C 0.35504 0.72533 1.01482 0.0
C142 C 0.24551 0.79908 1.01366 0.0
C143 C 0.19784 0.83667 1.01523 0.0
C144 C 0.65478 0.33268 0.01687 0.0
C145 C 0.60339 0.36525 0.01821 0.0
C146 C 0.71301 0.29168 0.01702 0.0
C147 C 0.76058 0.25396 0.01778 0.0
C148 C 0.65499 0.75759 0.03002 0.0
C149 C 0.60365 0.72495 0.02916 0.0
C150 C 0.71312 0.79868 0.02859 0.0
C151 C 0.76063 0.8364 0.02644 0.0
loop_
_geom_bond_atom_site_label_1
_geom_bond_atom_site_label_2
_geom_bond_distance
_geom_bond_site_symmetry_2
_ccdc_geom_bond_type
H0 C6 0.930 1_655 S
H1 C9 0.931 . S
H2 C11 0.932 . S
H3 C13 0.930 . S
H4 C15 0.930 . S
H5 C17 0.931 . S
C6 H0 0.930 1_455 S
C6 C7 1.380 1_455 S
C6 C8 1.394 . S
C7 C6 1.380 1_655 S
C7 C11 1.382 . S
C8 C6 1.394 . S
C8 C9 1.400 . S
C9 H1 0.931 . S
C9 C8 1.400 . S
C9 C10 1.375 . S
C10 C9 1.375 . S
C10 C11 1.414 1_455 S
C10 C12 1.501 . S
C11 H2 0.932 . S
C11 C7 1.382 . S
C11 C10 1.414 1_655 S
C12 C10 1.501 . S
C12 C13 1.384 . S
C12 C17 1.408 1_455 S
C13 H3 0.930 . S
C13 C12 1.384 . S
C13 C14 1.389 . S
C14 C13 1.389 . S
C14 C15 1.405 . S
C15 H4 0.930 . S
C15 C14 1.405 . S
C15 C16 1.363 1_455 S
C16 C15 1.363 1_655 S
C16 C17 1.400 . S
C17 H5 0.931 . S
C17 C12 1.408 1_655 S
C17 C16 1.400 . S
H18 C24 0.930 . S
H19 C27 0.931 . S
H20 C29 0.931 . S
H21 C31 0.930 . S
H22 C33 0.930 . S
H23 C35 0.931 . S
C24 H18 0.930 . S
C24 C25 1.380 . S
C24 C26 1.394 1_545 S
C25 C24 1.380 . S
C25 C29 1.382 . S
C26 C24 1.394 1_565 S
C26 C27 1.400 . S
C27 H19 0.931 . S
C27 C26 1.400 . S
C27 C28 1.375 . S
C28 C27 1.375 . S
C28 C29 1.415 1_565 S
C28 C30 1.501 . S
C29 H20 0.931 . S
C29 C25 1.382 . S
C29 C28 1.415 1_545 S
C30 C28 1.501 . S
C30 C31 1.384 . S
C30 C35 1.408 1_565 S
C31 H21 0.930 . S
C31 C30 1.384 . S
C31 C32 1.389 . S
C32 C31 1.389 . S
C32 C33 1.405 . S
C33 H22 0.930 . S
C33 C32 1.405 . S
C33 C34 1.364 1_565 S
C34 C33 1.364 1_545 S
C34 C35 1.400 . S
C35 H23 0.931 . S
C35 C30 1.408 1_545 S
C35 C34 1.400 . S
H36 C42 0.929 1_556 S
H37 C45 0.931 . S
H38 C47 0.931 1_556 S
H39 C49 0.930 . S
H40 C51 0.930 . S
H41 C53 0.931 1_556 S
C42 H36 0.929 1_554 S
C42 C43 1.380 1_554 S
C42 C44 1.394 . S
C43 C42 1.380 1_556 S
C43 C47 1.382 1_556 S
C44 C42 1.394 . S
C44 C45 1.400 . S
C45 H37 0.931 . S
C45 C44 1.400 . S
C45 C46 1.375 . S
C46 C45 1.375 . S
C46 C47 1.415 . S
C46 C48 1.501 . S
C47 H38 0.931 1_554 S
C47 C43 1.382 1_554 S
C47 C46 1.415 . S
C48 C46 1.501 . S
C48 C49 1.384 . S
C48 C53 1.408 . S
C49 H39 0.930 . S
C49 C48 1.384 . S
C49 C50 1.389 . S
C50 C49 1.389 . S
C50 C51 1.405 . S
C51 H40 0.930 . S
C51 C50 1.405 . S
C51 C52 1.366 . S
C52 C51 1.366 . S
C52 C53 1.401 . S
C53 H41 0.931 1_554 S
C53 C48 1.408 . S
C53 C52 1.401 . S
C54 O80 1.283 . S
C54 O98 1.283 . S
C55 O81 1.283 . S
C55 O96 1.283 . S
C56 O82 1.283 . S
C56 O99 1.283 . S
C57 O83 1.283 . S
C57 O97 1.283 . S
C58 O84 1.283 . S
C58 O93 1.283 . S
C59 O85 1.283 . S
C59 O95 1.283 . S
C60 O86 1.283 . S
C60 O92 1.283 . S
C61 O87 1.283 . S
C61 O94 1.283 . S
C62 O88 1.283 . S
C62 O103 1.283 . S
C63 O89 1.283 . S
C63 O101 1.283 . S
C64 O90 1.283 . S
C64 O102 1.283 . S
C65 O91 1.283 1_565 S
C65 O100 1.283 . S
Eu66 O67 2.370 . S
Eu66 O68 2.370 1_454 S
Eu66 O71 2.370 1_554 S
Eu66 O72 2.370 1_455 S
Eu66 O80 2.363 1_554 S
Eu66 O81 2.363 . S
Eu66 O94 2.363 1_455 S
Eu66 O95 2.363 . S
O67 Eu66 2.370 . S
O67 Eu69 2.369 . S
O67 Eu74 2.371 . S
O68 Eu66 2.370 1_656 S
O68 Eu70 2.371 1_556 S
O68 Eu73 2.370 1_655 S
Eu69 O67 2.369 . S
Eu69 O71 2.369 1_554 S
Eu69 O75 2.371 1_544 S
Eu69 O76 2.371 1_545 S
Eu69 O84 2.364 1_545 S
Eu69 O85 2.362 . S
Eu69 O100 2.363 1_544 S
Eu69 O101 2.363 . S
Eu70 O68 2.371 1_554 S
Eu70 O72 2.371 . S
Eu70 O77 2.369 1_545 S
Eu70 O78 2.369 1_544 S
Eu70 O86 2.362 1_545 S
Eu70 O87 2.364 . S
Eu70 O102 2.363 1_554 S
Eu70 O103 2.363 . S
O71 Eu66 2.370 1_556 S
O71 Eu69 2.369 1_556 S
O71 Eu73 2.370 . S
O72 Eu66 2.370 1_655 S
O72 Eu70 2.371 . S
O72 Eu74 2.371 1_655 S
Eu73 O68 2.370 1_455 S
Eu73 O71 2.370 . S
Eu73 O75 2.371 1_545 S
Eu73 O78 2.371 1_445 S
Eu73 O90 2.363 1_455 S
Eu73 O91 2.363 . S
Eu73 O98 2.362 . S
Eu73 O99 2.364 1_545 S
Eu74 O67 2.371 . S
Eu74 O72 2.371 1_455 S
Eu74 O76 2.370 1_545 S
Eu74 O77 2.370 1_445 S
Eu74 O88 2.363 1_455 S
Eu74 O89 2.363 . S
Eu74 O96 2.364 . S
Eu74 O97 2.362 1_545 S
O75 Eu69 2.371 1_566 S
O75 Eu73 2.371 1_565 S
O75 Eu79 2.370 1_556 S
O76 Eu69 2.371 1_565 S
O76 Eu74 2.370 1_565 S
O76 Eu79 2.370 . S
O77 Eu70 2.369 1_565 S
O77 Eu74 2.370 1_665 S
O77 Eu79 2.370 1_655 S
O78 Eu70 2.369 1_566 S
O78 Eu73 2.371 1_665 S
O78 Eu79 2.370 1_656 S
Eu79 O75 2.370 1_554 S
Eu79 O76 2.370 . S
Eu79 O77 2.370 1_455 S
Eu79 O78 2.370 1_454 S
Eu79 O82 2.363 1_554 S
Eu79 O83 2.363 . S
Eu79 O92 2.363 1_455 S
Eu79 O93 2.363 . S
O80 C54 1.283 . S
O80 Eu66 2.363 1_556 S
O81 C55 1.283 . S
O81 Eu66 2.363 . S
O82 C56 1.283 . S
O82 Eu79 2.363 1_556 S
O83 C57 1.283 . S
O83 Eu79 2.363 . S
O84 C58 1.283 . S
O84 Eu69 2.364 1_565 S
O85 C59 1.283 . S
O85 Eu69 2.362 . S
O86 C60 1.283 . S
O86 Eu70 2.362 1_565 S
O87 C61 1.283 . S
O87 Eu70 2.364 . S
O88 C62 1.283 . S
O88 Eu74 2.363 1_655 S
O89 C63 1.283 . S
O89 Eu74 2.363 . S
O90 C64 1.283 . S
O90 Eu73 2.363 1_655 S
O91 C65 1.283 1_545 S
O91 Eu73 2.363 . S
O92 C60 1.283 . S
O92 Eu79 2.363 1_655 S
O93 C58 1.283 . S
O93 Eu79 2.363 . S
O94 C61 1.283 . S
O94 Eu66 2.363 1_655 S
O95 C59 1.283 . S
O95 Eu66 2.363 . S
O96 C55 1.283 . S
O96 Eu74 2.364 . S
O97 C57 1.283 . S
O97 Eu74 2.362 1_565 S
O98 C54 1.283 . S
O98 Eu73 2.362 . S
O99 C56 1.283 . S
O99 Eu73 2.364 1_565 S
O100 C65 1.283 . S
O100 Eu69 2.363 1_566 S
O101 C63 1.283 . S
O101 Eu69 2.363 . S
O102 C64 1.283 . S
O102 Eu70 2.363 1_556 S
O103 C62 1.283 . S
O103 Eu70 2.363 . S
C104 C105 1.170 1_455 S
C104 C106 1.380 . S
C105 C104 1.170 1_655 S
C106 C104 1.380 . S
C106 C107 1.170 . S
C107 C106 1.170 . S
C108 C109 1.170 . S
C108 C110 1.381 . S
C109 C108 1.170 . S
C110 C108 1.381 . S
C110 C111 1.170 1_545 S
C111 C110 1.170 1_565 S
C112 C113 1.170 . S
C112 C114 1.380 . S
C113 C112 1.170 . S
C114 C112 1.380 . S
C114 C115 1.170 . S
C115 C114 1.170 . S
C116 C117 1.170 . S
C116 C118 1.380 . S
C117 C116 1.170 . S
C118 C116 1.380 . S
C118 C119 1.170 . S
C119 C118 1.170 . S
C120 C121 1.170 . S
C120 C122 1.380 . S
C121 C120 1.170 . S
C122 C120 1.380 . S
C122 C123 1.170 1_655 S
C123 C122 1.170 1_455 S
C124 C125 1.170 . S
C124 C126 1.380 . S
C125 C124 1.170 . S
C126 C124 1.380 . S
C126 C127 1.170 . S
C127 C126 1.170 . S
C128 C129 1.170 . S
C128 C130 1.381 . S
C129 C128 1.170 . S
C130 C128 1.381 . S
C130 C131 1.170 . S
C131 C130 1.170 . S
C132 C133 1.170 . S
C132 C134 1.380 . S
C133 C132 1.170 . S
C134 C132 1.380 . S
C134 C135 1.170 . S
C135 C134 1.170 . S
C136 C137 1.170 . S
C136 C138 1.380 . S
C137 C136 1.170 . S
C138 C136 1.380 . S
C138 C139 1.170 . S
C139 C138 1.170 . S
C140 C141 1.170 . S
C140 C142 1.380 1_556 S
C141 C140 1.170 . S
C142 C140 1.380 1_554 S
C142 C143 1.170 . S
C143 C142 1.170 . S
C144 C145 1.170 . S
C144 C146 1.380 . S
C145 C144 1.170 . S
C146 C144 1.380 . S
C146 C147 1.170 . S
C147 C146 1.170 . S
C148 C149 1.170 . S
C148 C150 1.380 . S
C149 C148 1.170 . S
C150 C148 1.380 . S
C150 C151 1.170 . S
C151 C150 1.170 . S
C107 C55 1.847 . S
C105 C7 1.828 . S
C111 C62 1.278 1_565 S
C109 C34 1.261 . S
C115 C57 1.844 . S
C113 C14 1.832 . S
C119 C63 1.278 1_565 S
C117 C32 1.279 . S
C121 C16 1.827 . S
C123 C56 1.843 . S
C127 C65 1.283 1_545 S
C125 C25 1.280 . S
C129 C8 1.828 . S
C131 C54 1.840 . S
C133 C26 1.270 . S
C135 C64 1.271 1_565 S
C137 C50 1.536 . S
C139 C59 1.544 . S
C141 C43 1.516 . S
C143 C58 1.548 . S
C147 C61 1.544 . S
C145 C52 1.519 . S
C151 C60 1.539 . S
C149 C44 1.527 . S
