# Generated by pormake.
# Topology tsx, (6,3)-cn, num edge types: 1
# Building blocks:
#     Node 0, Type 0, BuildingBlock: VOLQOD_clean_sbu_1, # of connection points: 6
#     Node 1, Type 0, BuildingBlock: VOLQOD_clean_sbu_1, # of connection points: 6
#     Node 2, Type 1, BuildingBlock: ESEHIV_clean_linker_0, # of connection points: 3
#     Node 3, Type 1, BuildingBlock: ESEHIV_clean_linker_0, # of connection points: 3
#     Node 4, Type 1, BuildingBlock: ESEHIV_clean_linker_0, # of connection points: 3
#     Node 5, Type 1, BuildingBlock: ESEHIV_clean_linker_0, # of connection points: 3
#     Edge 6, Type (0, 1), None
#     Edge 7, Type (0, 1), None
#     Edge 8, Type (0, 1), None
#     Edge 9, Type (0, 1), None
#     Edge 10, Type (0, 1), None
#     Edge 11, Type (0, 1), None
#     Edge 12, Type (0, 1), None
#     Edge 13, Type (0, 1), None
#     Edge 14, Type (0, 1), None
#     Edge 15, Type (0, 1), None
#     Edge 16, Type (0, 1), None
#     Edge 17, Type (0, 1), None
# Relax obj value: 0.075
# Max RMSD: 0.108
# Mean RMSD: 0.081
data_MOF--net-tsx--node1-VOLQOD_clean_sbu_1--node2-ESEHIV_clean_linker_0--edge1-none
_symmetry_space_group_name_H-M    P1
_symmetry_Int_Tables_number       1
_symmetry_cell_setting            triclinic
loop_
_symmetry_equiv_pos_as_xyz
'x, y, z'
_cell_length_a     7.6291995
_cell_length_b     8.5814705
_cell_length_c     18.097437
_cell_angle_alpha  89.469839
_cell_angle_beta   92.769828
_cell_angle_gamma 92.055155
loop_
_atom_site_label
_atom_site_type_symbol
_atom_site_fract_x
_atom_site_fract_y
_atom_site_fract_z
_atom_type_partial_charge
O0 O 0.11563 0.90444 0.12369 0.0
Zn1 Zn 0.23371 0.92991 0.02536 0.0
O2 O 0.05057 0.00848 -0.0352 0.0
Zn3 Zn 0.95953 0.84921 0.9036 0.0
Zn4 Zn 0.85868 0.06459 0.01728 0.0
Zn5 Zn 0.12323 0.18427 0.91297 0.0
O6 O 0.8921 0.95843 0.80757 0.0
O7 O 0.14515 0.10247 0.81046 0.0
O8 O 0.35036 0.75844 -0.03922 0.0
O9 O 0.15324 0.73144 0.86694 0.0
O10 O 0.8119 0.70235 -0.02776 0.0
O11 O 0.73022 0.87582 0.05219 0.0
O12 O 0.7087 0.20346 0.94501 0.0
O13 O 0.4091 0.10048 0.05728 0.0
O14 O 0.92556 0.32516 0.88793 0.0
O15 O 0.31819 0.29027 -0.0178 0.0
C16 C 0.0404 0.01719 0.15517 0.0
C17 C 1.01356 0.03589 0.77448 0.0
C18 C 0.74019 0.73525 0.0328 0.0
C19 C 0.30356 0.70578 0.89579 0.0
C20 C 0.7626 0.30394 0.89752 0.0
C21 C 0.41661 0.24244 0.03689 0.0
O22 O 0.96471 0.12546 0.11718 0.0
O23 O 0.61565 0.40445 0.62369 0.0
Zn24 Zn 0.73373 0.42992 0.52536 0.0
O25 O 0.55059 0.50849 0.4648 0.0
Zn26 Zn 0.45955 0.34922 0.40361 0.0
Zn27 Zn 0.3587 0.5646 0.51728 0.0
Zn28 Zn 0.62325 0.68428 0.41297 0.0
O29 O 0.39211 0.45843 0.30758 0.0
O30 O 0.64516 0.60247 0.31045 0.0
O31 O 0.85038 0.25844 0.46078 0.0
O32 O 0.65325 0.23145 0.36694 0.0
O33 O 0.31192 0.20236 0.47224 0.0
O34 O 0.23023 0.37582 0.55219 0.0
O35 O 0.20872 0.70347 0.44501 0.0
O36 O 0.90911 0.60049 0.55728 0.0
O37 O 0.42558 0.82518 0.38793 0.0
O38 O 0.81822 0.79028 0.48219 0.0
C39 C 0.54041 0.5172 0.65517 0.0
C40 C 0.51356 0.53589 0.27448 0.0
C41 C 0.24021 0.23526 0.5328 0.0
C42 C 0.80358 0.20579 0.39579 0.0
C43 C 0.26262 0.80395 0.39752 0.0
C44 C 0.91663 0.74244 0.53689 0.0
O45 O 0.46472 0.62547 0.61718 0.0
H46 H 0.84132 0.19474 0.24388 0.0
H47 H 0.23668 0.84462 0.25065 0.0
H48 H 1.00563 0.99516 0.44641 0.0
C49 C 0.92501 0.11521 0.27472 0.0
C50 C 0.9209 0.10858 0.35258 0.0
C51 C 1.03712 0.01784 0.23704 0.0
C52 C 0.14648 0.91677 0.27829 0.0
C53 C 0.13896 0.90568 0.35513 0.0
C54 C 1.02323 1.00099 0.38997 0.0
H55 H 0.86856 0.80695 0.68243 0.0
H56 H 0.14157 0.25552 0.67863 0.0
H57 H 0.2265 0.9261 0.51559 0.0
C58 C 0.95758 0.8894 0.65631 0.0
C59 C 1.01554 0.85852 0.58574 0.0
C60 C 1.02127 0.02507 0.69364 0.0
C61 C 0.11011 0.14312 0.65353 0.0
C62 C 0.16608 0.11123 0.58251 0.0
C63 C 0.15071 0.95693 0.56 0.0
H64 H 0.34133 0.69475 0.74388 0.0
H65 H 0.73667 0.34462 0.75065 0.0
H66 H 0.5056 0.49514 0.9464 0.0
C67 C 0.42501 0.61521 0.77472 0.0
C68 C 0.42088 0.60857 0.85258 0.0
C69 C 0.53712 0.51785 0.73704 0.0
C70 C 0.64647 0.41677 0.77829 0.0
C71 C 0.63894 0.40567 0.85513 0.0
C72 C 0.5232 0.50098 0.88997 0.0
H73 H 0.36855 0.30694 0.18244 0.0
H74 H 0.64156 0.75552 0.17863 0.0
H75 H 0.72648 0.42609 0.01558 0.0
C76 C 0.45757 0.38939 0.15632 0.0
C77 C 0.51552 0.35851 0.08574 0.0
C78 C 0.52127 0.52507 0.19364 0.0
C79 C 0.61009 0.64311 0.15353 0.0
C80 C 0.66606 0.61122 0.08251 0.0
C81 C 0.65069 0.45693 0.06 0.0
loop_
_geom_bond_atom_site_label_1
_geom_bond_atom_site_label_2
_geom_bond_distance
_geom_bond_site_symmetry_2
_ccdc_geom_bond_type
O0 Zn1 1.953 . S
O0 C16 1.225 1_565 S
Zn1 O0 1.953 . S
Zn1 O2 1.949 1_565 S
Zn1 O8 1.919 . S
Zn1 O13 1.924 1_565 S
O2 Zn1 1.949 1_545 S
O2 Zn3 1.923 1_444 S
O2 Zn4 1.950 1_455 S
O2 Zn5 1.945 1_554 S
Zn3 O2 1.923 1_666 S
Zn3 O6 1.933 . S
Zn3 O9 1.941 1_655 S
Zn3 O10 1.965 . S
Zn4 O2 1.950 1_655 S
Zn4 O11 1.938 1_545 S
Zn4 O12 1.906 . S
Zn4 O22 1.953 . S
Zn5 O2 1.945 1_556 S
Zn5 O7 1.932 . S
Zn5 O14 1.977 1_455 S
Zn5 O15 1.910 . S
O6 Zn3 1.933 . S
O6 C17 1.226 1_665 S
O7 Zn5 1.932 . S
O7 C17 1.307 . S
O8 Zn1 1.919 . S
O8 C19 1.253 1_554 S
O9 Zn3 1.941 1_455 S
O9 C19 1.283 . S
O10 Zn3 1.965 . S
O10 C18 1.303 1_556 S
O11 Zn4 1.938 1_565 S
O11 C18 1.247 . S
O12 Zn4 1.906 . S
O12 C20 1.304 1_554 S
O13 Zn1 1.924 1_545 S
O13 C21 1.311 . S
O14 Zn5 1.977 1_655 S
O14 C20 1.272 . S
O15 Zn5 1.910 . S
O15 C21 1.231 1_556 S
C16 O0 1.225 1_545 S
C16 O22 1.298 1_455 S
C17 O6 1.226 1_445 S
C17 O7 1.307 . S
C18 O10 1.303 1_554 S
C18 O11 1.247 . S
C19 O8 1.253 1_556 S
C19 O9 1.283 . S
C20 O12 1.304 1_556 S
C20 O14 1.272 . S
C21 O13 1.311 . S
C21 O15 1.231 1_554 S
O22 Zn4 1.953 . S
O22 C16 1.298 1_655 S
O23 Zn24 1.953 . S
O23 C39 1.225 . S
Zn24 O23 1.953 . S
Zn24 O25 1.949 . S
Zn24 O31 1.919 . S
Zn24 O36 1.924 . S
O25 Zn24 1.949 . S
O25 Zn26 1.923 . S
O25 Zn27 1.950 . S
O25 Zn28 1.945 . S
Zn26 O25 1.923 . S
Zn26 O29 1.933 . S
Zn26 O32 1.941 . S
Zn26 O33 1.965 . S
Zn27 O25 1.950 . S
Zn27 O34 1.938 . S
Zn27 O35 1.906 . S
Zn27 O45 1.953 . S
Zn28 O25 1.945 . S
Zn28 O30 1.932 . S
Zn28 O37 1.977 . S
Zn28 O38 1.910 . S
O29 Zn26 1.933 . S
O29 C40 1.226 . S
O30 Zn28 1.932 . S
O30 C40 1.307 . S
O31 Zn24 1.919 . S
O31 C42 1.253 . S
O32 Zn26 1.941 . S
O32 C42 1.283 . S
O33 Zn26 1.965 . S
O33 C41 1.303 . S
O34 Zn27 1.938 . S
O34 C41 1.247 . S
O35 Zn27 1.906 . S
O35 C43 1.304 . S
O36 Zn24 1.924 . S
O36 C44 1.311 . S
O37 Zn28 1.977 . S
O37 C43 1.272 . S
O38 Zn28 1.910 . S
O38 C44 1.231 . S
C39 O23 1.225 . S
C39 O45 1.298 . S
C40 O29 1.226 . S
C40 O30 1.307 . S
C41 O33 1.303 . S
C41 O34 1.247 . S
C42 O31 1.253 . S
C42 O32 1.283 . S
C43 O35 1.304 . S
C43 O37 1.272 . S
C44 O36 1.311 . S
C44 O38 1.231 . S
O45 Zn27 1.953 . S
O45 C39 1.298 . S
H46 C49 0.931 . S
H47 C52 0.928 . S
H48 C54 0.930 1_545 S
C49 H46 0.931 . S
C49 C50 1.413 . S
C49 C51 1.364 1_545 S
C50 C49 1.413 . S
C50 C54 1.428 1_645 S
C51 C49 1.364 1_565 S
C51 C52 1.368 1_655 S
C52 H47 0.928 . S
C52 C51 1.368 1_455 S
C52 C53 1.404 . S
C53 C52 1.404 . S
C53 C54 1.392 . S
C54 H48 0.930 1_565 S
C54 C50 1.428 1_465 S
C54 C53 1.392 . S
H55 C58 0.931 . S
H56 C61 0.928 . S
H57 C63 0.930 . S
C58 H55 0.931 . S
C58 C59 1.413 . S
C58 C60 1.360 1_665 S
C59 C58 1.413 . S
C59 C63 1.429 1_665 S
C60 C58 1.360 1_445 S
C60 C61 1.372 . S
C61 H56 0.928 . S
C61 C60 1.372 . S
C61 C62 1.404 . S
C62 C61 1.404 . S
C62 C63 1.391 . S
C63 H57 0.930 . S
C63 C59 1.429 1_445 S
C63 C62 1.391 . S
H64 C67 0.931 . S
H65 C70 0.928 . S
H66 C72 0.930 1_554 S
C67 H64 0.931 . S
C67 C68 1.413 . S
C67 C69 1.360 . S
C68 C67 1.413 . S
C68 C72 1.429 . S
C69 C67 1.360 . S
C69 C70 1.372 . S
C70 H65 0.928 . S
C70 C69 1.372 . S
C70 C71 1.404 . S
C71 C70 1.404 . S
C71 C72 1.391 . S
C72 H66 0.930 1_556 S
C72 C68 1.429 . S
C72 C71 1.391 . S
H73 C76 0.931 . S
H74 C79 0.928 . S
H75 C81 0.930 1_556 S
C76 H73 0.931 . S
C76 C77 1.413 . S
C76 C78 1.360 . S
C77 C76 1.413 . S
C77 C81 1.429 . S
C78 C76 1.360 . S
C78 C79 1.372 . S
C79 H74 0.928 . S
C79 C78 1.372 . S
C79 C80 1.404 . S
C80 C79 1.404 . S
C80 C81 1.391 . S
C81 H75 0.930 1_554 S
C81 C77 1.429 . S
C81 C80 1.391 . S
C77 C21 1.492 . S
C19 C68 1.505 . S
C18 C80 1.465 . S
C20 C71 1.493 . S
C44 C59 1.492 . S
C42 C50 1.505 . S
C62 C41 1.465 . S
C53 C43 1.493 . S
C16 C51 1.507 1_445 S
C17 C60 1.462 . S
C69 C39 1.507 . S
C40 C78 1.462 . S
