# Generated by pormake.
# Topology tsx, (6,3)-cn, num edge types: 1
# Building blocks:
#     Node 0, Type 0, BuildingBlock: CIFDUS_clean_sbu_1, # of connection points: 6
#     Node 1, Type 0, BuildingBlock: CIFDUS_clean_sbu_1, # of connection points: 6
#     Node 2, Type 1, BuildingBlock: QEWDON_clean_linker_0, # of connection points: 3
#     Node 3, Type 1, BuildingBlock: QEWDON_clean_linker_0, # of connection points: 3
#     Node 4, Type 1, BuildingBlock: QEWDON_clean_linker_0, # of connection points: 3
#     Node 5, Type 1, BuildingBlock: QEWDON_clean_linker_0, # of connection points: 3
#     Edge 6, Type (0, 1), BuildingBlock: AJUNOK_clean_linker_0, # of connection points: 2
#     Edge 7, Type (0, 1), BuildingBlock: AJUNOK_clean_linker_0, # of connection points: 2
#     Edge 8, Type (0, 1), BuildingBlock: AJUNOK_clean_linker_0, # of connection points: 2
#     Edge 9, Type (0, 1), BuildingBlock: AJUNOK_clean_linker_0, # of connection points: 2
#     Edge 10, Type (0, 1), BuildingBlock: AJUNOK_clean_linker_0, # of connection points: 2
#     Edge 11, Type (0, 1), BuildingBlock: AJUNOK_clean_linker_0, # of connection points: 2
#     Edge 12, Type (0, 1), BuildingBlock: AJUNOK_clean_linker_0, # of connection points: 2
#     Edge 13, Type (0, 1), BuildingBlock: AJUNOK_clean_linker_0, # of connection points: 2
#     Edge 14, Type (0, 1), BuildingBlock: AJUNOK_clean_linker_0, # of connection points: 2
#     Edge 15, Type (0, 1), BuildingBlock: AJUNOK_clean_linker_0, # of connection points: 2
#     Edge 16, Type (0, 1), BuildingBlock: AJUNOK_clean_linker_0, # of connection points: 2
#     Edge 17, Type (0, 1), BuildingBlock: AJUNOK_clean_linker_0, # of connection points: 2
# Relax obj value: 0.106
# Max RMSD: 0.195
# Mean RMSD: 0.143
data_MOF--net-tsx--node1-CIFDUS_clean_sbu_1--node2-QEWDON_clean_linker_0--edge1-AJUNOK_clean_linker_0
_symmetry_space_group_name_H-M    P1
_symmetry_Int_Tables_number       1
_symmetry_cell_setting            triclinic
loop_
_symmetry_equiv_pos_as_xyz
'x, y, z'
_cell_length_a     13.69093
_cell_length_b     17.736617
_cell_length_c     22.344523
_cell_angle_alpha  96.25343
_cell_angle_beta   111.51467
_cell_angle_gamma 90.032424
loop_
_atom_site_label
_atom_site_type_symbol
_atom_site_fract_x
_atom_site_fract_y
_atom_site_fract_z
_atom_type_partial_charge
O0 O 0.11277 0.10664 0.06763 0.0
Mn1 Mn 0.19593 1.00353 0.07003 0.0
O2 O 0.95041 0.06908 1.04042 0.0
Mn3 Mn 1.00228 1.0015 0.99433 0.0
O4 O 0.29728 0.91085 0.08593 0.0
O5 O 0.32228 0.08029 0.0882 0.0
Mn6 Mn 0.39485 0.0623 0.16803 0.0
O7 O 0.20558 1.00583 0.16894 0.0
O8 O 0.43134 0.96224 0.17437 0.0
O9 O 0.1949 0.99556 0.97538 0.0
O10 O 1.03958 0.03842 0.93035 0.0
O11 O 0.48103 0.1279 0.15421 0.0
O12 O 0.32044 0.10059 0.21584 0.0
C13 C 0.96959 0.89147 0.99616 0.0
C14 C 1.02042 0.11999 0.0672 0.0
C15 C 0.38472 0.90534 0.13419 0.0
C16 C 0.40223 0.1287 0.09981 0.0
C17 C 0.25545 0.05319 0.21932 0.0
C18 C 0.12628 0.02054 0.92696 0.0
O19 O 1.06103 0.92233 1.04023 0.0
O20 O 0.90903 0.93021 0.95248 0.0
O21 O 0.5382 0.6254 0.573 0.0
Mn22 Mn 0.62412 0.52581 0.56978 0.0
O23 O 0.37805 0.58906 0.55393 0.0
Mn24 Mn 0.42808 0.52741 0.50165 0.0
O25 O 0.74097 0.4405 0.58227 0.0
O26 O 0.74352 0.60435 0.59574 0.0
Mn27 Mn 0.82561 0.59708 0.67498 0.0
O28 O 0.63955 0.51656 0.66764 0.0
O29 O 0.86935 0.49964 0.67225 0.0
O30 O 0.61559 0.53001 0.47355 0.0
O31 O 0.4594 0.57423 0.44025 0.0
O32 O 0.88515 0.67487 0.65069 0.0
O33 O 0.74009 0.61786 0.72033 0.0
C34 C 0.39532 0.41725 0.49518 0.0
C35 C 0.44933 0.63954 0.57773 0.0
C36 C 0.83473 0.44353 0.6282 0.0
C37 C 0.80253 0.6625 0.5982 0.0
C38 C 0.68277 0.56221 0.72008 0.0
C39 C 0.54101 0.55794 0.42937 0.0
O40 O 0.49069 0.44334 0.53768 0.0
O41 O 0.33375 0.45917 0.45485 0.0
H42 H 0.30653 0.14235 0.51559 0.0
C43 C 0.30004 0.0875 0.52928 0.0
C44 C 0.28764 0.02191 0.48458 0.0
C45 C 0.30881 0.0831 0.59352 0.0
H46 H 0.28517 0.90068 0.47334 0.0
C47 C 0.28988 0.95141 0.5064 0.0
C48 C 0.31652 0.94539 0.57247 0.0
C49 C 0.32327 1.01097 0.61608 0.0
C50 C 0.31013 0.15485 0.63684 0.0
H51 H 0.3424 1.00618 0.66701 0.0
C52 C 0.21601 0.18804 0.63685 0.0
C53 C 0.21182 0.25879 0.67084 0.0
C54 C 0.40491 0.19439 0.674 0.0
H55 H 0.47869 0.17232 0.67406 0.0
C56 C 0.40494 0.2629 0.7115 0.0
H57 H 0.14534 0.15924 0.61005 0.0
C58 C 0.31039 0.29413 0.71081 0.0
H59 H 0.31627 0.34634 0.74193 0.0
H60 H 0.47892 0.29259 0.74101 0.0
H61 H 0.1422 0.04887 0.62408 0.0
C62 C 1.06129 0.03218 0.60802 0.0
C63 C 1.02929 1.00086 0.65387 0.0
C64 C 0.9915 0.0336 0.54202 0.0
H65 H 0.91255 0.92914 0.66423 0.0
C66 C 0.93432 0.95875 0.63069 0.0
C67 C 0.87321 0.94693 0.56437 0.0
C68 C 0.89697 0.98915 0.52163 0.0
C69 C 1.01929 0.06751 0.48991 0.0
H70 H 0.84546 0.98207 0.47106 0.0
C71 C 1.04929 0.14547 0.49163 0.0
C72 C 1.08498 0.16999 0.44426 0.0
C73 C 1.00342 0.02053 0.43194 0.0
H74 H 0.9784 0.96139 0.42632 0.0
C75 C 1.01405 0.04962 0.37904 0.0
H76 H 1.04122 0.18819 0.52696 0.0
C77 C 1.05874 0.12221 0.3858 0.0
H78 H 1.07537 0.13991 0.34554 0.0
H79 H 0.99419 1.01361 0.33355 0.0
H80 H 0.83982 0.62526 1.02471 0.0
C81 C 0.84407 0.56944 1.03849 0.0
C82 C 0.82445 0.50762 0.99006 0.0
C83 C 0.86198 0.55892 0.10351 0.0
H84 H 0.83789 0.38798 0.97218 0.0
C85 C 0.84566 0.43547 1.00887 0.0
C86 C 0.88087 0.42427 0.07457 0.0
C87 C 0.88436 0.48533 0.12177 0.0
C88 C 0.85572 0.62501 0.15046 0.0
H89 H 0.90499 0.47572 0.1719 0.0
C90 C 0.75837 0.64604 0.15529 0.0
C91 C 0.74594 0.71862 0.18501 0.0
C92 C 0.94402 0.67381 0.18368 0.0
H93 H 1.01935 0.66022 0.1807 0.0
C94 C 0.93515 0.74185 0.21931 0.0
H95 H 0.69178 0.60737 0.13287 0.0
C96 C 0.83695 0.76476 0.21906 0.0
H97 H 0.83123 0.82059 0.24228 0.0
H98 H 1.00395 0.77925 0.24421 0.0
H99 H 0.5031 0.63997 0.13354 0.0
C100 C 0.49912 0.5809 0.11593 0.0
C101 C 0.50447 0.52623 0.15824 0.0
C102 C 0.49331 0.5594 1.0517 0.0
H103 H 0.48708 0.40743 0.1645 0.0
C104 C 0.4883 0.44972 0.13308 0.0
C105 C 0.46929 0.42692 0.06748 0.0
C106 C 0.47609 0.48147 1.0273 0.0
C107 C 0.50527 0.61897 1.01125 0.0
H108 H 0.4667 0.46358 0.97752 0.0
C109 C 0.60429 0.63882 1.00915 0.0
C110 C 0.61982 0.70137 0.97838 0.0
C111 C 0.41908 0.66057 0.97851 0.0
H112 H 0.34246 0.64787 0.97967 0.0
C113 C 0.43124 0.7194 0.94439 0.0
H114 H 0.66788 0.60467 1.03115 0.0
C115 C 0.53035 0.73992 0.9446 0.0
H116 H 0.53776 0.78812 0.92044 0.0
H117 H 0.36385 0.7511 0.91935 0.0
C118 C 0.5066 0.21851 0.06718 0.0
C119 C 0.40582 0.19057 1.06023 0.0
C120 C 0.52526 0.29432 1.06036 0.0
C121 C 0.44339 0.34487 1.04452 0.0
H122 H 0.57417 0.18406 0.08565 0.0
H123 H 0.60579 0.31542 0.07442 0.0
S124 S 0.16072 0.2953 1.00035 0.0
N125 N 0.21966 0.21573 1.02178 0.0
N126 N 0.25491 0.35835 1.0084 0.0
C127 C 0.34026 0.31509 1.02783 0.0
C128 C 0.32117 0.23766 1.0353 0.0
C129 C 0.5007 0.82536 0.09548 0.0
C130 C 0.44967 0.83759 0.13921 0.0
C131 C 0.59447 0.78679 0.11114 0.0
C132 C 0.64003 0.75381 0.16927 0.0
H133 H 0.47466 0.85315 1.0517 0.0
H134 H 0.63419 0.78885 0.07864 0.0
S135 S 0.53643 0.77008 0.3016 0.0
N136 N 0.45202 0.81569 0.24518 0.0
N137 N 0.62492 0.73797 0.27203 0.0
C138 C 0.5879 0.76388 0.21317 0.0
C139 C 0.49325 0.80577 0.19826 0.0
C140 C 0.8923 0.80868 1.05306 0.0
C141 C 0.91648 0.81886 0.99871 0.0
C142 C 0.80111 0.76608 1.04679 0.0
C143 C 0.7276 0.73328 0.98616 0.0
H144 H 0.9382 0.8394 0.09973 0.0
H145 H 0.78739 0.76214 0.09007 0.0
S146 S 0.76332 0.73594 0.83032 0.0
N147 N 0.86855 0.78316 0.88346 0.0
N148 N 0.69422 0.70869 0.8717 0.0
C149 C 0.75627 0.7381 0.93253 0.0
C150 C 0.85139 0.77857 0.9391 0.0
C151 C 0.87945 0.21213 1.05708 0.0
C152 C 0.98746 0.19739 0.08217 0.0
C153 C 0.84439 0.2857 1.06106 0.0
C154 C 0.91549 0.34775 0.09074 0.0
H155 H 0.82113 0.16716 1.03064 0.0
H156 H 0.76158 0.29481 1.03663 0.0
S157 S 0.20406 0.33995 0.17305 0.0
N158 N 0.16386 0.25052 0.14554 0.0
N159 N 0.09737 0.38998 0.1511 0.0
C160 C 1.02261 0.3338 0.12049 0.0
C161 C 1.05875 0.25833 0.11668 0.0
C162 C 0.72906 0.78653 0.58777 0.0
C163 C 0.76794 0.72531 0.55926 0.0
C164 C 0.74124 0.8609 0.57589 0.0
C165 C 0.80408 0.87725 0.54107 0.0
H166 H 0.70108 0.77814 0.62621 0.0
H167 H 0.71847 0.90645 0.60392 0.0
S168 S 0.91501 0.73632 0.45087 0.0
N169 N 0.85724 0.68453 0.48661 0.0
N170 N 0.89292 0.82552 0.47021 0.0
C171 C 0.83375 0.81615 0.50639 0.0
C172 C 0.81492 0.73976 0.5154 0.0
C173 C 1.02445 0.42207 0.65688 0.0
C174 C 0.92095 0.38969 0.63107 0.0
C175 C 0.11367 0.37903 0.67224 0.0
C176 C 0.10811 0.29938 0.66022 0.0
H177 H 1.03815 0.4832 0.6655 0.0
H178 H 0.18773 0.41105 0.68936 0.0
S179 S 0.85306 0.1838 0.59837 0.0
N180 N 0.81608 0.27231 0.5988 0.0
N181 N 0.98267 0.18911 0.62419 0.0
C182 C 1.00345 0.26508 0.63466 0.0
C183 C 0.91095 0.31039 0.62042 0.0
C184 C 0.3317 0.28426 0.45563 0.0
C185 C 0.33766 0.34847 0.49937 0.0
C186 C 0.24513 0.23184 0.434 0.0
C187 C 0.16318 0.23696 0.45855 0.0
H188 H 0.38975 0.27816 0.43332 0.0
H189 H 0.24409 0.18563 0.39847 0.0
S190 S 0.11251 0.41606 0.5407 0.0
N191 N 0.23424 0.42873 0.54533 0.0
N192 N 1.07583 0.32757 0.50823 0.0
C193 C 0.16314 0.30473 0.49751 0.0
C194 C 0.2498 0.35998 0.51771 0.0
C195 C 0.47695 0.77657 0.5758 0.0
C196 C 0.42166 0.71902 0.58975 0.0
C197 C 0.45071 0.85211 0.58055 0.0
C198 C 0.36103 0.87284 0.59373 0.0
H199 H 0.53426 0.76202 0.55463 0.0
H200 H 0.49393 0.89349 0.56638 0.0
S201 S 0.18031 0.74343 0.62746 0.0
N202 N 0.27145 0.68776 0.61755 0.0
N203 N 0.21313 0.82995 0.61829 0.0
C204 C 0.30299 0.81632 0.60723 0.0
C205 C 0.33421 0.73917 0.60619 0.0
C206 C 0.19676 0.99135 0.29895 0.0
C207 C 0.26438 0.04198 0.28668 0.0
C208 C 0.20806 0.98182 0.36309 0.0
C209 C 0.28348 0.02542 0.41707 0.0
H210 H 0.13485 0.95914 0.25907 0.0
H211 H 0.15481 0.94188 0.3704 0.0
S212 S 0.50249 0.14417 0.4128 0.0
N213 N 0.42729 0.12113 0.33614 0.0
N214 N 0.44361 0.10394 0.45438 0.0
C215 C 0.35844 0.06898 0.40568 0.0
C216 C 0.34899 0.07799 0.34115 0.0
C217 C 0.12828 0.94629 0.82556 0.0
C218 C 0.13733 0.01683 0.86302 0.0
C219 C 0.1062 0.9416 0.75839 0.0
C220 C 1.09227 1.00729 0.72588 0.0
H221 H 0.12945 0.89429 0.84712 0.0
H222 H 1.09133 0.88588 0.73074 0.0
S223 S 0.13061 0.20563 0.80615 0.0
N224 N 0.14569 0.15338 0.86545 0.0
N225 N 0.10857 0.14501 0.74053 0.0
C226 C 0.11352 0.0779 0.76486 0.0
C227 C 0.13412 0.08259 0.83295 0.0
C228 C 0.81803 0.52806 0.8213 0.0
C229 C 0.71037 0.53529 0.78462 0.0
C230 C 0.854 0.51937 0.88744 0.0
C231 C 0.78382 0.51719 0.91977 0.0
H232 H 0.87585 0.53218 0.7991 0.0
H233 H 0.93755 0.51549 0.9137 0.0
S234 S 0.49338 0.52414 0.84487 0.0
N235 N 0.53356 0.53496 0.78488 0.0
N236 N 0.60035 0.51374 0.9086 0.0
C237 C 0.67541 0.51955 0.88298 0.0
C238 C 0.63877 0.52969 0.81552 0.0
C239 C 0.6219 0.53432 0.34322 0.0
C240 C 0.53904 0.56121 0.36181 0.0
C241 C 0.61271 0.52691 0.27764 0.0
C242 C 0.52097 0.54693 0.22811 0.0
H243 H 0.69267 0.51603 0.37906 0.0
H244 H 0.67655 0.503 0.26522 0.0
S245 S 0.28216 0.62152 0.2495 0.0
N246 N 0.3623 0.6098 0.32345 0.0
N247 N 0.34716 0.59546 0.20195 0.0
C248 C 0.4395 0.57612 0.24604 0.0
C249 C 0.44808 0.58345 0.3123 0.0
loop_
_geom_bond_atom_site_label_1
_geom_bond_atom_site_label_2
_geom_bond_distance
_geom_bond_site_symmetry_2
_ccdc_geom_bond_type
O0 Mn1 2.163 . S
O0 C14 1.244 1_455 S
Mn1 O0 2.163 . S
Mn1 O4 2.160 1_545 S
Mn1 O5 2.221 1_556 S
Mn1 O7 2.166 1_556 S
Mn1 O9 2.160 . S
Mn1 O19 2.221 1_445 S
O2 Mn3 2.087 1_545 S
O2 C14 1.256 . S
Mn3 O2 2.087 1_565 S
Mn3 O10 2.089 1_565 S
Mn3 O19 2.290 . S
Mn3 O20 2.251 . S
O4 Mn1 2.160 1_565 S
O4 C15 1.239 1_556 S
O5 Mn1 2.221 1_554 S
O5 Mn6 2.290 . S
O5 C16 1.278 . S
Mn6 O5 2.290 . S
Mn6 O8 2.089 1_545 S
Mn6 O11 2.251 . S
Mn6 O12 2.087 . S
O7 Mn1 2.166 1_554 S
O7 C17 1.245 . S
O8 Mn6 2.089 1_565 S
O8 C15 1.256 . S
O9 Mn1 2.160 . S
O9 C18 1.239 . S
O10 Mn3 2.089 1_545 S
O10 C18 1.256 1_655 S
O11 Mn6 2.251 . S
O11 C16 1.241 . S
O12 Mn6 2.087 . S
O12 C17 1.256 . S
C13 O19 1.278 . S
C13 O20 1.241 . S
C14 O0 1.244 1_655 S
C14 O2 1.256 . S
C15 O4 1.239 1_554 S
C15 O8 1.256 . S
C16 O5 1.278 . S
C16 O11 1.241 . S
C17 O7 1.245 . S
C17 O12 1.256 . S
C18 O9 1.239 . S
C18 O10 1.256 1_455 S
O19 Mn1 2.221 1_665 S
O19 Mn3 2.290 . S
O19 C13 1.278 . S
O20 Mn3 2.251 . S
O20 C13 1.241 . S
O21 Mn22 2.163 . S
O21 C35 1.244 . S
Mn22 O21 2.163 . S
Mn22 O25 2.160 . S
Mn22 O26 2.221 . S
Mn22 O28 2.163 . S
Mn22 O30 2.160 . S
Mn22 O40 2.221 . S
O23 Mn24 2.087 . S
O23 C35 1.256 . S
Mn24 O23 2.087 . S
Mn24 O31 2.089 . S
Mn24 O40 2.290 . S
Mn24 O41 2.251 . S
O25 Mn22 2.160 . S
O25 C36 1.239 . S
O26 Mn22 2.221 . S
O26 Mn27 2.290 . S
O26 C37 1.278 . S
Mn27 O26 2.290 . S
Mn27 O29 2.089 . S
Mn27 O32 2.251 . S
Mn27 O33 2.087 . S
O28 Mn22 2.163 . S
O28 C38 1.244 . S
O29 Mn27 2.089 . S
O29 C36 1.256 . S
O30 Mn22 2.160 . S
O30 C39 1.239 . S
O31 Mn24 2.089 . S
O31 C39 1.256 . S
O32 Mn27 2.251 . S
O32 C37 1.241 . S
O33 Mn27 2.087 . S
O33 C38 1.256 . S
C34 O40 1.278 . S
C34 O41 1.241 . S
C35 O21 1.244 . S
C35 O23 1.256 . S
C36 O25 1.239 . S
C36 O29 1.256 . S
C37 O26 1.278 . S
C37 O32 1.241 . S
C38 O28 1.244 . S
C38 O33 1.256 . S
C39 O30 1.239 . S
C39 O31 1.256 . S
O40 Mn22 2.221 . S
O40 Mn24 2.290 . S
O40 C34 1.278 . S
O41 Mn24 2.251 . S
O41 C34 1.241 . S
H42 C43 0.949 . S
C43 H42 0.949 . S
C43 C44 1.395 1_545 S
C43 C45 1.391 . S
C44 C43 1.395 1_565 S
C44 C47 1.390 . S
C45 C43 1.391 . S
C45 C49 1.387 1_545 S
C45 C50 1.491 . S
H46 C47 0.950 . S
C47 C44 1.390 . S
C47 H46 0.950 . S
C47 C48 1.378 . S
C48 C47 1.378 . S
C48 C49 1.409 . S
C49 C45 1.387 1_565 S
C49 C48 1.409 . S
C49 H51 0.951 . S
C50 C45 1.491 . S
C50 C52 1.382 . S
C50 C54 1.404 . S
H51 C49 0.951 . S
C52 C50 1.382 . S
C52 C53 1.390 1_455 S
C52 H57 0.949 1_455 S
C53 C52 1.390 1_655 S
C53 C58 1.399 1_655 S
C54 C50 1.404 . S
C54 H55 0.950 . S
C54 C56 1.375 . S
H55 C54 0.950 . S
C56 C54 1.375 . S
C56 C58 1.382 . S
C56 H60 0.950 . S
H57 C52 0.949 1_655 S
C58 C53 1.399 1_455 S
C58 C56 1.382 . S
C58 H59 0.952 . S
H59 C58 0.952 . S
H60 C56 0.950 . S
H61 C62 0.953 . S
C62 H61 0.953 . S
C62 C63 1.391 1_455 S
C62 C64 1.391 1_455 S
C63 C62 1.391 1_655 S
C63 C66 1.390 1_545 S
C64 C62 1.391 1_655 S
C64 C68 1.398 . S
C64 C69 1.491 1_655 S
H65 C66 0.950 . S
C66 C63 1.390 1_565 S
C66 H65 0.950 . S
C66 C67 1.378 . S
C67 C66 1.378 . S
C67 C68 1.400 1_565 S
C68 C64 1.398 . S
C68 C67 1.400 1_545 S
C68 H70 0.950 1_545 S
C69 C64 1.491 1_455 S
C69 C71 1.382 . S
C69 C73 1.404 1_455 S
H70 C68 0.950 1_565 S
C71 C69 1.382 . S
C71 C72 1.390 . S
C71 H76 0.949 . S
C72 C71 1.390 . S
C72 C77 1.399 . S
C73 C69 1.404 1_655 S
C73 H74 0.950 . S
C73 C75 1.375 . S
H74 C73 0.950 . S
C75 C73 1.375 . S
C75 C77 1.382 1_655 S
C75 H79 0.950 . S
H76 C71 0.949 . S
C77 C72 1.399 . S
C77 C75 1.382 1_455 S
C77 H78 0.952 . S
H78 C77 0.952 . S
H79 C75 0.950 . S
H80 C81 0.949 . S
C81 H80 0.949 . S
C81 C82 1.395 . S
C81 C83 1.391 . S
C82 C81 1.395 . S
C82 C85 1.390 . S
C83 C81 1.391 . S
C83 C87 1.387 . S
C83 C88 1.491 1_556 S
H84 C85 0.950 . S
C85 C82 1.390 . S
C85 H84 0.950 . S
C85 C86 1.378 . S
C86 C85 1.378 . S
C86 C87 1.409 . S
C87 C83 1.387 . S
C87 C86 1.409 . S
C87 H89 0.951 1_556 S
C88 C83 1.491 1_554 S
C88 C90 1.382 1_554 S
C88 C92 1.404 . S
H89 C87 0.951 1_554 S
C90 C88 1.382 1_556 S
C90 C91 1.390 1_556 S
C90 H95 0.949 . S
C91 C90 1.390 1_554 S
C91 C96 1.399 . S
C92 C88 1.404 . S
C92 H93 0.950 . S
C92 C94 1.375 . S
H93 C92 0.950 . S
C94 C92 1.375 . S
C94 C96 1.382 . S
C94 H98 0.950 . S
H95 C90 0.949 . S
C96 C91 1.399 . S
C96 C94 1.382 . S
C96 H97 0.952 . S
H97 C96 0.952 . S
H98 C94 0.950 . S
H99 C100 0.949 . S
C100 H99 0.949 . S
C100 C101 1.395 . S
C100 C102 1.391 . S
C101 C100 1.395 . S
C101 C104 1.390 . S
C102 C100 1.391 . S
C102 C106 1.387 . S
C102 C107 1.487 1_554 S
H103 C104 0.950 . S
C104 C101 1.390 . S
C104 H103 0.950 . S
C104 C105 1.378 . S
C105 C104 1.378 . S
C105 C106 1.409 . S
C106 C102 1.387 . S
C106 C105 1.409 . S
C106 H108 0.951 1_554 S
C107 C102 1.487 1_556 S
C107 C109 1.382 1_556 S
C107 C111 1.407 . S
H108 C106 0.951 1_556 S
C109 C107 1.382 1_554 S
C109 C110 1.390 1_554 S
C109 H114 0.949 . S
C110 C109 1.390 1_556 S
C110 C115 1.399 . S
C111 C107 1.407 . S
C111 H112 0.950 . S
C111 C113 1.375 . S
H112 C111 0.950 . S
C113 C111 1.375 . S
C113 C115 1.382 . S
C113 H117 0.950 . S
H114 C109 0.949 . S
C115 C110 1.399 . S
C115 C113 1.382 . S
C115 H116 0.952 . S
H116 C115 0.952 . S
H117 C113 0.950 . S
C118 C119 1.369 . S
C118 C120 1.419 . S
C118 H122 0.930 . S
C119 C118 1.369 . S
C119 C128 1.429 1_554 S
C120 C118 1.419 . S
C120 C121 1.363 . S
C120 H123 0.929 . S
C121 C120 1.363 . S
C121 C127 1.428 1_554 S
H122 C118 0.930 . S
H123 C120 0.929 . S
S124 N125 1.613 . S
S124 N126 1.610 . S
N125 S124 1.613 . S
N125 C128 1.350 . S
N126 S124 1.610 . S
N126 C127 1.351 . S
C127 C121 1.428 1_556 S
C127 N126 1.351 . S
C127 C128 1.434 . S
C128 C119 1.429 1_556 S
C128 N125 1.350 . S
C128 C127 1.434 . S
C129 C130 1.369 1_556 S
C129 C131 1.419 . S
C129 H133 0.930 . S
C130 C129 1.369 1_554 S
C130 C139 1.429 . S
C131 C129 1.419 . S
C131 C132 1.363 1_556 S
C131 H134 0.929 . S
C132 C131 1.363 1_554 S
C132 C138 1.428 . S
H133 C129 0.930 . S
H134 C131 0.929 . S
S135 N136 1.613 . S
S135 N137 1.610 . S
N136 S135 1.613 . S
N136 C139 1.350 . S
N137 S135 1.610 . S
N137 C138 1.351 . S
C138 C132 1.428 . S
C138 N137 1.351 . S
C138 C139 1.434 . S
C139 C130 1.429 . S
C139 N136 1.350 . S
C139 C138 1.434 . S
C140 C141 1.367 1_556 S
C140 C142 1.419 . S
C140 H144 0.930 . S
C141 C140 1.367 1_554 S
C141 C150 1.437 . S
C142 C140 1.419 . S
C142 C143 1.363 . S
C142 H145 0.929 . S
C143 C142 1.363 . S
C143 C149 1.428 1_556 S
H144 C140 0.930 . S
H145 C142 0.929 . S
S146 N147 1.613 . S
S146 N148 1.610 . S
N147 S146 1.613 . S
N147 C150 1.350 . S
N148 S146 1.610 . S
N148 C149 1.351 . S
C149 C143 1.428 1_554 S
C149 N148 1.351 . S
C149 C150 1.434 . S
C150 C141 1.437 . S
C150 N147 1.350 . S
C150 C149 1.434 . S
C151 C152 1.369 . S
C151 C153 1.419 . S
C151 H155 0.930 1_556 S
C152 C151 1.369 . S
C152 C161 1.429 . S
C153 C151 1.419 . S
C153 C154 1.363 . S
C153 H156 0.929 . S
C154 C153 1.363 . S
C154 C160 1.428 . S
H155 C151 0.930 1_554 S
H156 C153 0.929 . S
S157 N158 1.613 . S
S157 N159 1.610 . S
N158 S157 1.613 . S
N158 C161 1.350 . S
N159 S157 1.610 . S
N159 C160 1.351 . S
C160 C154 1.428 . S
C160 N159 1.351 . S
C160 C161 1.434 . S
C161 C152 1.429 . S
C161 N158 1.350 . S
C161 C160 1.434 . S
C162 C163 1.369 . S
C162 C164 1.419 . S
C162 H166 0.930 . S
C163 C162 1.369 . S
C163 C172 1.429 . S
C164 C162 1.419 . S
C164 C165 1.363 . S
C164 H167 0.929 . S
C165 C164 1.363 . S
C165 C171 1.428 . S
H166 C162 0.930 . S
H167 C164 0.929 . S
S168 N169 1.613 . S
S168 N170 1.610 . S
N169 S168 1.613 . S
N169 C172 1.350 . S
N170 S168 1.610 . S
N170 C171 1.351 . S
C171 C165 1.428 . S
C171 N170 1.351 . S
C171 C172 1.434 . S
C172 C163 1.429 . S
C172 N169 1.350 . S
C172 C171 1.434 . S
C173 C174 1.369 . S
C173 C175 1.419 . S
C173 H177 0.930 . S
C174 C173 1.369 . S
C174 C183 1.429 . S
C175 C173 1.419 . S
C175 C176 1.363 . S
C175 H178 0.929 . S
C176 C175 1.363 . S
C176 C182 1.428 . S
H177 C173 0.930 . S
H178 C175 0.929 . S
S179 N180 1.613 . S
S179 N181 1.610 . S
N180 S179 1.613 . S
N180 C183 1.350 . S
N181 S179 1.610 . S
N181 C182 1.351 . S
C182 C176 1.428 . S
C182 N181 1.351 . S
C182 C183 1.434 . S
C183 C174 1.429 . S
C183 N180 1.350 . S
C183 C182 1.434 . S
C184 C185 1.369 . S
C184 C186 1.419 . S
C184 H188 0.930 . S
C185 C184 1.369 . S
C185 C194 1.429 . S
C186 C184 1.419 . S
C186 C187 1.363 . S
C186 H189 0.929 . S
C187 C186 1.363 . S
C187 C193 1.428 . S
H188 C184 0.930 . S
H189 C186 0.929 . S
S190 N191 1.613 . S
S190 N192 1.610 . S
N191 S190 1.613 . S
N191 C194 1.350 . S
N192 S190 1.610 . S
N192 C193 1.351 . S
C193 C187 1.428 . S
C193 N192 1.351 . S
C193 C194 1.434 . S
C194 C185 1.429 . S
C194 N191 1.350 . S
C194 C193 1.434 . S
C195 C196 1.369 . S
C195 C197 1.419 . S
C195 H199 0.930 . S
C196 C195 1.369 . S
C196 C205 1.429 . S
C197 C195 1.419 . S
C197 C198 1.363 . S
C197 H200 0.929 . S
C198 C197 1.363 . S
C198 C204 1.428 . S
H199 C195 0.930 . S
H200 C197 0.929 . S
S201 N202 1.613 . S
S201 N203 1.610 . S
N202 S201 1.613 . S
N202 C205 1.350 . S
N203 S201 1.610 . S
N203 C204 1.351 . S
C204 C198 1.428 . S
C204 N203 1.351 . S
C204 C205 1.434 . S
C205 C196 1.429 . S
C205 N202 1.350 . S
C205 C204 1.434 . S
C206 C207 1.369 . S
C206 C208 1.419 . S
C206 H210 0.930 1_455 S
C207 C206 1.369 . S
C207 C216 1.429 1_565 S
C208 C206 1.419 . S
C208 C209 1.363 . S
C208 H211 0.929 . S
C209 C208 1.363 . S
C209 C215 1.428 1_565 S
H210 C206 0.930 1_655 S
H211 C208 0.929 . S
S212 N213 1.613 . S
S212 N214 1.610 . S
N213 S212 1.613 . S
N213 C216 1.350 . S
N214 S212 1.610 . S
N214 C215 1.351 . S
C215 C209 1.428 1_545 S
C215 N214 1.351 . S
C215 C216 1.434 . S
C216 C207 1.429 1_545 S
C216 N213 1.350 . S
C216 C215 1.434 . S
C217 C218 1.369 1_665 S
C217 C219 1.419 . S
C217 H221 0.930 . S
C218 C217 1.369 1_445 S
C218 C227 1.429 . S
C219 C217 1.419 . S
C219 C220 1.363 1_565 S
C219 H222 0.929 . S
C220 C219 1.363 1_545 S
C220 C226 1.428 1_655 S
H221 C217 0.930 . S
H222 C219 0.929 . S
S223 N224 1.613 . S
S223 N225 1.610 . S
N224 S223 1.613 . S
N224 C227 1.350 . S
N225 S223 1.610 . S
N225 C226 1.351 . S
C226 C220 1.428 1_455 S
C226 N225 1.351 . S
C226 C227 1.434 . S
C227 C218 1.429 . S
C227 N224 1.350 . S
C227 C226 1.434 . S
C228 C229 1.369 . S
C228 C230 1.419 . S
C228 H232 0.930 . S
C229 C228 1.369 . S
C229 C238 1.429 . S
C230 C228 1.419 . S
C230 C231 1.363 . S
C230 H233 0.929 . S
C231 C230 1.363 . S
C231 C237 1.428 . S
H232 C228 0.930 . S
H233 C230 0.929 . S
S234 N235 1.613 . S
S234 N236 1.610 . S
N235 S234 1.613 . S
N235 C238 1.350 . S
N236 S234 1.610 . S
N236 C237 1.351 . S
C237 C231 1.428 . S
C237 N236 1.351 . S
C237 C238 1.434 . S
C238 C229 1.429 . S
C238 N235 1.350 . S
C238 C237 1.434 . S
C239 C240 1.369 . S
C239 C241 1.419 . S
C239 H243 0.930 . S
C240 C239 1.369 . S
C240 C249 1.429 . S
C241 C239 1.419 . S
C241 C242 1.363 . S
C241 H244 0.929 . S
C242 C241 1.363 . S
C242 C248 1.428 . S
H243 C239 0.930 . S
H244 C241 0.929 . S
S245 N246 1.613 . S
S245 N247 1.610 . S
N246 S245 1.613 . S
N246 C249 1.350 . S
N247 S245 1.610 . S
N247 C248 1.351 . S
C248 C242 1.428 . S
C248 N247 1.351 . S
C248 C249 1.434 . S
C249 C240 1.429 . S
C249 N246 1.350 . S
C249 C248 1.434 . S
C121 C105 1.536 . S
C119 C16 1.455 . S
C130 C15 1.475 . S
C132 C91 1.472 . S
C141 C13 1.270 1_554 S
C143 C110 1.499 . S
C152 C14 1.505 . S
C154 C86 1.519 . S
C163 C37 1.449 . S
C165 C67 1.535 . S
C174 C36 1.483 . S
C176 C53 1.478 . S
C187 C72 1.499 . S
C185 C34 1.283 . S
C198 C48 1.519 . S
C196 C35 1.498 . S
C207 C17 1.631 1_565 S
C209 C44 1.662 . S
C218 C18 1.421 . S
C220 C63 1.446 . S
C231 C82 1.663 . S
C229 C38 1.634 . S
C240 C39 1.417 . S
C242 C101 1.442 . S
