# Generated by pormake.
# Topology the, (3,8)-cn, num edge types: 1
# Building blocks:
#     Node 0, Type 0, BuildingBlock: INOVEN_clean_linker_0, # of connection points: 3
#     Node 1, Type 0, BuildingBlock: INOVEN_clean_linker_0, # of connection points: 3
#     Node 2, Type 0, BuildingBlock: INOVEN_clean_linker_0, # of connection points: 3
#     Node 3, Type 0, BuildingBlock: INOVEN_clean_linker_0, # of connection points: 3
#     Node 4, Type 0, BuildingBlock: INOVEN_clean_linker_0, # of connection points: 3
#     Node 5, Type 0, BuildingBlock: INOVEN_clean_linker_0, # of connection points: 3
#     Node 6, Type 0, BuildingBlock: INOVEN_clean_linker_0, # of connection points: 3
#     Node 7, Type 0, BuildingBlock: INOVEN_clean_linker_0, # of connection points: 3
#     Node 8, Type 1, BuildingBlock: GIZVER_clean_sbu_0, # of connection points: 8
#     Node 9, Type 1, BuildingBlock: GIZVER_clean_sbu_0, # of connection points: 8
#     Node 10, Type 1, BuildingBlock: GIZVER_clean_sbu_0, # of connection points: 8
#     Edge 11, Type (0, 1), None
#     Edge 12, Type (0, 1), None
#     Edge 13, Type (0, 1), None
#     Edge 14, Type (0, 1), None
#     Edge 15, Type (0, 1), None
#     Edge 16, Type (0, 1), None
#     Edge 17, Type (0, 1), None
#     Edge 18, Type (0, 1), None
#     Edge 19, Type (0, 1), None
#     Edge 20, Type (0, 1), None
#     Edge 21, Type (0, 1), None
#     Edge 22, Type (0, 1), None
#     Edge 23, Type (0, 1), None
#     Edge 24, Type (0, 1), None
#     Edge 25, Type (0, 1), None
#     Edge 26, Type (0, 1), None
#     Edge 27, Type (0, 1), None
#     Edge 28, Type (0, 1), None
#     Edge 29, Type (0, 1), None
#     Edge 30, Type (0, 1), None
#     Edge 31, Type (0, 1), None
#     Edge 32, Type (0, 1), None
#     Edge 33, Type (0, 1), None
#     Edge 34, Type (0, 1), None
# Relax obj value: 0.085
# Max RMSD: 0.211
# Mean RMSD: 0.106
data_MOF--net-the--node1-GIZVER_clean_sbu_0--node2-INOVEN_clean_linker_0--edge1-none
_symmetry_space_group_name_H-M    P1
_symmetry_Int_Tables_number       1
_symmetry_cell_setting            triclinic
loop_
_symmetry_equiv_pos_as_xyz
'x, y, z'
_cell_length_a     19.146783
_cell_length_b     18.364383
_cell_length_c     17.651269
_cell_angle_alpha  87.959186
_cell_angle_beta   101.92412
_cell_angle_gamma 125.54275
loop_
_atom_site_label
_atom_site_type_symbol
_atom_site_fract_x
_atom_site_fract_y
_atom_site_fract_z
_atom_type_partial_charge
H0 H 0.32762 0.38998 0.29733 0.0
H1 H 0.48527 0.29008 0.32528 0.0
H2 H 0.32195 0.23351 0.4861 0.0
N3 N 0.262 0.3268 0.42154 0.0
N4 N 0.27868 0.40315 0.42584 0.0
C5 C 0.35093 0.35376 0.32947 0.0
C6 C 0.40915 0.34419 0.30305 0.0
C7 C 0.32088 0.31558 0.39625 0.0
C8 C 0.34818 0.26581 0.43647 0.0
C9 C 0.40984 0.25859 0.41289 0.0
C10 C 0.44032 0.29818 0.34583 0.0
H11 H 0.5995 0.19255 0.26534 0.0
H12 H 0.80922 0.30719 0.4708 0.0
H13 H 0.83439 0.45883 0.27455 0.0
N14 N 0.66317 0.33386 0.19613 0.0
N15 N 0.69237 0.40338 0.1626 0.0
C16 C 0.66681 0.24502 0.29509 0.0
C17 C 0.69792 0.24027 0.37254 0.0
C18 C 0.71426 0.32311 0.25954 0.0
C19 C 0.79974 0.39539 0.29935 0.0
C20 C 0.83611 0.38881 0.37524 0.0
C21 C 0.7847 0.31027 0.41093 0.0
H22 H 0.73232 0.79769 0.22638 0.0
H23 H 0.85337 0.66077 0.27493 0.0
H24 H 0.90156 0.85075 0.45007 0.0
N25 N 0.78081 0.87219 0.36679 0.0
N26 N 0.81684 0.92884 0.42465 0.0
C27 C 0.78212 0.79275 0.26302 0.0
C28 C 0.79431 0.72963 0.2399 0.0
C29 C 0.82085 0.83712 0.33861 0.0
C30 C 0.87673 0.8216 0.39035 0.0
C31 C 0.88827 0.75741 0.36733 0.0
C32 C 0.84971 0.71481 0.29117 0.0
H33 H 0.25267 0.58126 0.28647 0.0
H34 H 0.32895 0.79559 0.45423 0.0
H35 H 0.52344 0.80376 0.36085 0.0
N36 N 0.4119 0.64216 0.27604 0.0
N37 N 0.48235 0.6501 0.29996 0.0
C38 C 0.30164 0.64678 0.3192 0.0
C39 C 0.27801 0.68277 0.36974 0.0
C40 C 0.38977 0.68839 0.31772 0.0
C41 C 0.45512 0.77184 0.36182 0.0
C42 C 0.43365 0.81327 0.40878 0.0
C43 C 0.34471 0.76808 0.41285 0.0
H44 H 0.5831 0.84445 0.80006 0.0
H45 H 0.38747 0.84552 0.6285 0.0
H46 H 0.31836 0.607 0.73681 0.0
N47 N 0.47985 0.6689 0.81063 0.0
N48 N 0.53308 0.69241 0.87474 0.0
C49 C 0.51485 0.81336 0.77089 0.0
C50 C 0.49282 0.85903 0.71633 0.0
C51 C 0.45185 0.72221 0.7783 0.0
C52 C 0.36517 0.67873 0.7351 0.0
C53 C 0.34172 0.72357 0.68174 0.0
C54 C 0.40475 0.81416 0.67448 0.0
H55 H 0.3291 0.23046 0.62061 0.0
H56 H 0.55069 0.30925 0.80679 0.0
H57 H 0.38849 0.3962 0.824 0.0
N58 N 0.29449 0.33387 0.67786 0.0
N59 N 0.32988 0.41555 0.67294 0.0
C60 C 0.36603 0.25988 0.67969 0.0
C61 C 0.44059 0.2615 0.71 0.0
C62 C 0.3475 0.30893 0.72042 0.0
C63 C 0.39959 0.35368 0.7954 0.0
C64 C 0.47292 0.35389 0.82803 0.0
C65 C 0.49167 0.30616 0.78473 0.0
H66 H 0.75424 0.27623 0.79734 0.0
H67 H 0.85375 0.36457 0.59213 0.0
H68 H 1.0064 0.52812 0.81125 0.0
N69 N 0.86857 0.42819 0.87999 0.0
N70 N 0.89543 0.50711 0.89699 0.0
C71 C 0.80876 0.32213 0.77049 0.0
C72 C 0.79628 0.31016 0.68992 0.0
C73 C 0.88275 0.40214 0.81392 0.0
C74 C 0.95081 0.46491 0.77829 0.0
C75 C 0.94264 0.4496 0.69849 0.0
C76 C 0.86417 0.37285 0.65449 0.0
H77 H 0.76374 0.77011 0.73372 0.0
H78 H 0.89164 0.63882 0.74316 0.0
H79 H 0.92129 0.82259 0.57151 0.0
N80 N 0.82126 0.86251 0.61935 0.0
N81 N 0.8353 0.92102 0.66639 0.0
C82 C 0.80484 0.75739 0.71131 0.0
C83 C 0.824 0.7001 0.74688 0.0
C84 C 0.83917 0.80122 0.64853 0.0
C85 C 0.89167 0.78584 0.61811 0.0
C86 C 0.9096 0.72613 0.65103 0.0
C87 C 0.87521 0.68233 0.7156 0.0
Co88 Co 0.23131 0.51163 0.57814 0.0
Co89 Co 0.13256 0.45701 0.4365 0.0
Co90 Co 0.09209 0.57094 0.52117 0.0
O91 O 0.11382 0.476 0.53091 0.0
H92 H 0.06747 0.42079 0.547 0.0
O93 O 0.07179 0.66561 0.51475 0.0
Co94 Co 0.95944 0.63978 0.47044 0.0
Co95 Co 1.0541 0.68106 0.6111 0.0
H96 H 0.12008 0.72162 0.50153 0.0
O97 O 0.13427 0.35942 0.4119 0.0
O98 O 0.24767 0.49457 0.47523 0.0
O99 O 0.14161 0.53987 0.36091 0.0
O100 O 0.1803 0.64238 0.45342 0.0
O101 O 0.99265 0.4956 0.42722 0.0
O102 O 0.86232 0.62803 0.42558 0.0
O103 O 1.00008 0.75647 0.46064 0.0
O104 O 0.90145 0.51319 0.46864 0.0
O105 O 1.00579 0.50061 0.58877 0.0
O106 O 1.05185 0.60136 0.68658 0.0
O107 O 0.93827 0.64409 0.5761 0.0
O108 O 1.05434 0.77516 0.64603 0.0
C109 C 0.2865 0.45077 0.63136 0.0
C110 C 0.26725 0.66941 0.61524 0.0
C111 C 0.19021 0.6215 0.39013 0.0
C112 C 0.218 0.41741 0.44114 0.0
C113 C 0.91782 0.71425 0.42348 0.0
C114 C 0.91446 0.47115 0.42431 0.0
C115 C 1.00791 0.52019 0.65818 0.0
C116 C 0.96989 0.71566 0.62173 0.0
O117 O 0.33428 0.53581 0.62303 0.0
O118 O 0.20159 0.40066 0.60112 0.0
O119 O 0.18995 0.6445 0.61543 0.0
O120 O 0.27763 0.63112 0.56502 0.0
Co121 Co 0.68483 0.96172 0.50297 0.0
Co122 Co 0.72591 1.02006 0.64879 0.0
Co123 Co 0.5999 0.06653 0.55603 0.0
O124 O 0.69787 0.05683 0.55682 0.0
H125 H 0.75045 0.11396 0.55077 0.0
O126 O 0.50665 0.08523 0.55638 0.0
Co127 Co 0.53897 0.19729 0.60478 0.0
Co128 Co 0.4831 0.12437 0.46379 0.0
H129 H 0.45363 1.03245 0.56754 0.0
O130 O 0.83585 1.04564 0.68594 0.0
O131 O 0.71914 0.92651 0.60317 0.0
O132 O 0.64247 0.96847 0.71385 0.0
O133 O 0.54098 0.96888 0.62624 0.0
O134 O 0.67876 0.15745 0.64781 0.0
O135 O 0.55844 0.2919 0.65504 0.0
O136 O 0.4304 0.15366 0.62211 0.0
O137 O 0.66104 0.25971 0.60012 0.0
O138 O 0.66008 0.16324 0.48531 0.0
O139 O 0.55266 0.14186 0.3904 0.0
O140 O 0.51005 0.23479 0.49921 0.0
O141 O 0.38105 0.11469 0.42647 0.0
C142 C 0.76407 0.9454 0.45516 0.0
C143 C 0.50735 0.89271 0.46444 0.0
C144 C 0.56326 0.94097 0.68755 0.0
C145 C 0.79864 0.96858 0.6468 0.0
C146 C 0.4769 0.23408 0.65978 0.0
C147 C 0.70846 0.23916 0.64269 0.0
C148 C 0.63315 0.17345 0.41635 0.0
C149 C 0.43305 0.19991 0.45123 0.0
O150 O 0.68198 0.87938 0.45121 0.0
O151 O 0.79769 1.02366 0.49106 0.0
O152 O 0.51913 0.96912 0.46492 0.0
O153 O 0.56452 0.88473 0.50676 0.0
Co154 Co 0.55911 0.56935 0.1914 0.0
Co155 Co 0.48535 0.41005 0.12687 0.0
Co156 Co 0.62247 0.56205 0.02967 0.0
O157 O 0.52493 0.51921 0.08534 0.0
H158 H 0.47684 0.51872 0.05401 0.0
O159 O 0.72401 0.60612 0.98061 0.0
Co160 Co 0.73699 0.52521 0.92984 0.0
Co161 Co 0.70459 0.62894 0.88471 0.0
H162 H 0.77957 0.65632 1.0114 0.0
O163 O 0.38139 0.33734 0.16339 0.0
O164 O 0.51443 0.45118 0.2325 0.0
O165 O 0.55157 0.36379 0.11765 0.0
O166 O 0.66377 0.4924 0.08832 0.0
O167 O 0.53085 0.45655 0.94609 0.0
O168 O 0.75251 0.45417 0.89046 0.0
O169 O 0.85794 0.58986 0.95829 0.0
O170 O 0.62022 0.44972 0.89174 0.0
O171 O 0.58797 0.63793 0.97182 0.0
O172 O 0.59895 0.62559 0.8501 0.0
O173 O 0.74408 0.58305 0.82811 0.0
O174 O 0.80193 0.72848 0.86537 0.0
C175 C 0.50809 0.60822 0.25798 0.0
C176 C 0.72488 0.65584 0.18072 0.0
C177 C 0.63219 0.41642 0.11477 0.0
C178 C 0.43498 0.38067 0.22987 0.0
C179 C 0.83473 0.51638 0.92023 0.0
C180 C 0.5436 0.42118 0.89448 0.0
C181 C 0.57087 0.64582 0.89917 0.0
C182 C 0.7947 0.66911 0.81984 0.0
O183 O 0.58287 0.62025 0.28623 0.0
O184 O 0.46039 0.56202 0.19016 0.0
O185 O 0.70921 0.66807 0.11003 0.0
O186 O 0.66661 0.58534 0.20515 0.0
loop_
_geom_bond_atom_site_label_1
_geom_bond_atom_site_label_2
_geom_bond_distance
_geom_bond_site_symmetry_2
_ccdc_geom_bond_type
H0 C5 0.929 . S
H1 C10 0.931 . S
H2 C8 0.930 . S
N3 N4 1.234 . S
N3 C7 1.453 . S
N4 N3 1.234 . S
C5 H0 0.929 . S
C5 C6 1.373 . S
C5 C7 1.368 . S
C6 C5 1.373 . S
C6 C10 1.397 . S
C7 N3 1.453 . S
C7 C5 1.368 . S
C7 C8 1.373 . S
C8 H2 0.930 . S
C8 C7 1.373 . S
C8 C9 1.371 . S
C9 C8 1.371 . S
C9 C10 1.383 . S
C10 H1 0.931 . S
C10 C6 1.397 . S
C10 C9 1.383 . S
H11 C16 0.929 . S
H12 C21 0.931 . S
H13 C19 0.930 . S
N14 N15 1.234 . S
N14 C18 1.453 . S
N15 N14 1.234 . S
C16 H11 0.929 . S
C16 C17 1.373 . S
C16 C18 1.368 . S
C17 C16 1.373 . S
C17 C21 1.397 . S
C18 N14 1.453 . S
C18 C16 1.368 . S
C18 C19 1.373 . S
C19 H13 0.930 . S
C19 C18 1.373 . S
C19 C20 1.371 . S
C20 C19 1.371 . S
C20 C21 1.383 . S
C21 H12 0.931 . S
C21 C17 1.397 . S
C21 C20 1.383 . S
H22 C27 0.929 . S
H23 C32 0.931 . S
H24 C30 0.930 . S
N25 N26 1.234 . S
N25 C29 1.453 . S
N26 N25 1.234 . S
C27 H22 0.929 . S
C27 C28 1.373 . S
C27 C29 1.368 . S
C28 C27 1.373 . S
C28 C32 1.397 . S
C29 N25 1.453 . S
C29 C27 1.368 . S
C29 C30 1.373 . S
C30 H24 0.930 . S
C30 C29 1.373 . S
C30 C31 1.371 . S
C31 C30 1.371 . S
C31 C32 1.383 . S
C32 H23 0.931 . S
C32 C28 1.397 . S
C32 C31 1.383 . S
H33 C38 0.929 . S
H34 C43 0.931 . S
H35 C41 0.930 . S
N36 N37 1.234 . S
N36 C40 1.453 . S
N37 N36 1.234 . S
C38 H33 0.929 . S
C38 C39 1.373 . S
C38 C40 1.368 . S
C39 C38 1.373 . S
C39 C43 1.397 . S
C40 N36 1.453 . S
C40 C38 1.368 . S
C40 C41 1.373 . S
C41 H35 0.930 . S
C41 C40 1.373 . S
C41 C42 1.371 . S
C42 C41 1.371 . S
C42 C43 1.383 . S
C43 H34 0.931 . S
C43 C39 1.397 . S
C43 C42 1.383 . S
H44 C49 0.929 . S
H45 C54 0.931 . S
H46 C52 0.930 . S
N47 N48 1.234 . S
N47 C51 1.453 . S
N48 N47 1.234 . S
C49 H44 0.929 . S
C49 C50 1.373 . S
C49 C51 1.368 . S
C50 C49 1.373 . S
C50 C54 1.397 . S
C51 N47 1.453 . S
C51 C49 1.368 . S
C51 C52 1.373 . S
C52 H46 0.930 . S
C52 C51 1.373 . S
C52 C53 1.371 . S
C53 C52 1.371 . S
C53 C54 1.383 . S
C54 H45 0.931 . S
C54 C50 1.397 . S
C54 C53 1.383 . S
H55 C60 0.929 . S
H56 C65 0.931 . S
H57 C63 0.930 . S
N58 N59 1.234 . S
N58 C62 1.453 . S
N59 N58 1.234 . S
C60 H55 0.929 . S
C60 C61 1.373 . S
C60 C62 1.368 . S
C61 C60 1.373 . S
C61 C65 1.397 . S
C62 N58 1.453 . S
C62 C60 1.368 . S
C62 C63 1.373 . S
C63 H57 0.930 . S
C63 C62 1.373 . S
C63 C64 1.371 . S
C64 C63 1.371 . S
C64 C65 1.383 . S
C65 H56 0.931 . S
C65 C61 1.397 . S
C65 C64 1.383 . S
H66 C71 0.929 . S
H67 C76 0.931 . S
H68 C74 0.930 . S
N69 N70 1.234 . S
N69 C73 1.453 . S
N70 N69 1.234 . S
C71 H66 0.929 . S
C71 C72 1.373 . S
C71 C73 1.368 . S
C72 C71 1.373 . S
C72 C76 1.397 . S
C73 N69 1.453 . S
C73 C71 1.368 . S
C73 C74 1.373 . S
C74 H68 0.930 . S
C74 C73 1.373 . S
C74 C75 1.371 . S
C75 C74 1.371 . S
C75 C76 1.383 . S
C76 H67 0.931 . S
C76 C72 1.397 . S
C76 C75 1.383 . S
H77 C82 0.929 . S
H78 C87 0.931 . S
H79 C85 0.930 . S
N80 N81 1.234 . S
N80 C84 1.453 . S
N81 N80 1.234 . S
C82 H77 0.929 . S
C82 C83 1.373 . S
C82 C84 1.368 . S
C83 C82 1.373 . S
C83 C87 1.397 . S
C84 N80 1.453 . S
C84 C82 1.368 . S
C84 C85 1.373 . S
C85 H79 0.930 . S
C85 C84 1.373 . S
C85 C86 1.371 . S
C86 C85 1.371 . S
C86 C87 1.383 . S
C87 H78 0.931 . S
C87 C83 1.397 . S
C87 C86 1.383 . S
Co88 O91 2.042 . S
Co88 O98 2.264 . S
Co88 O117 2.286 . S
Co88 O118 2.069 . S
Co88 O120 2.015 . S
Co89 O91 2.122 . S
Co89 O97 2.073 . S
Co89 O98 2.327 . S
Co89 O99 1.976 . S
Co90 O91 2.087 . S
Co90 O93 2.079 1_455 S
Co90 O100 2.111 . S
Co90 O101 2.143 1_455 S
Co90 O105 2.111 1_455 S
Co90 O119 2.143 . S
O91 Co88 2.042 . S
O91 Co89 2.122 . S
O91 Co90 2.087 . S
O91 H92 0.980 . S
H92 O91 0.980 . S
O93 Co90 2.079 1_655 S
O93 Co94 2.050 . S
O93 Co95 2.128 . S
O93 H96 0.975 1_655 S
Co94 O93 2.050 . S
Co94 O102 2.286 . S
Co94 O103 2.069 . S
Co94 O104 2.015 . S
Co94 O107 2.264 . S
Co95 O93 2.128 . S
Co95 O106 1.976 . S
Co95 O107 2.327 . S
Co95 O108 2.073 . S
H96 O93 0.975 1_455 S
O97 Co89 2.073 . S
O97 C112 1.245 . S
O98 Co88 2.264 . S
O98 Co89 2.327 . S
O98 C112 1.257 . S
O99 Co89 1.976 . S
O99 C111 1.251 . S
O100 Co90 2.111 . S
O100 C111 1.274 . S
O101 Co90 2.143 1_655 S
O101 C114 1.246 . S
O102 Co94 2.286 . S
O102 C113 1.259 . S
O103 Co94 2.069 . S
O103 C113 1.289 . S
O104 Co94 2.015 . S
O104 C114 1.257 . S
O105 Co90 2.111 1_655 S
O105 C115 1.274 . S
O106 Co95 1.976 . S
O106 C115 1.251 . S
O107 Co94 2.264 . S
O107 Co95 2.327 . S
O107 C116 1.257 . S
O108 Co95 2.073 . S
O108 C116 1.245 . S
C109 O117 1.259 . S
C109 O118 1.289 . S
C110 O119 1.246 . S
C110 O120 1.257 . S
C111 O99 1.251 . S
C111 O100 1.274 . S
C112 O97 1.245 . S
C112 O98 1.257 . S
C113 O102 1.259 . S
C113 O103 1.289 . S
C114 O101 1.246 . S
C114 O104 1.257 . S
C115 O105 1.274 . S
C115 O106 1.251 . S
C116 O107 1.257 . S
C116 O108 1.245 . S
O117 Co88 2.286 . S
O117 C109 1.259 . S
O118 Co88 2.069 . S
O118 C109 1.289 . S
O119 Co90 2.143 . S
O119 C110 1.246 . S
O120 Co88 2.015 . S
O120 C110 1.257 . S
Co121 O124 2.042 . S
Co121 O131 2.264 . S
Co121 O150 2.286 . S
Co121 O151 2.069 . S
Co121 O153 2.015 . S
Co122 O124 2.122 . S
Co122 O130 2.073 . S
Co122 O131 2.327 . S
Co122 O132 1.976 . S
Co123 O124 2.087 1_545 S
Co123 O126 2.087 . S
Co123 O133 2.111 1_545 S
Co123 O134 2.143 . S
Co123 O138 2.111 . S
Co123 O152 2.143 1_545 S
O124 Co121 2.042 . S
O124 Co122 2.122 . S
O124 Co123 2.087 1_565 S
O124 H125 0.980 1_565 S
H125 O124 0.980 1_545 S
O126 Co123 2.087 . S
O126 Co127 2.042 . S
O126 Co128 2.122 . S
O126 H129 0.980 . S
Co127 O126 2.042 . S
Co127 O135 2.286 . S
Co127 O136 2.069 . S
Co127 O137 2.015 . S
Co127 O140 2.264 . S
Co128 O126 2.122 . S
Co128 O139 1.976 . S
Co128 O140 2.327 . S
Co128 O141 2.073 . S
H129 O126 0.980 . S
O130 Co122 2.073 . S
O130 C145 1.245 . S
O131 Co121 2.264 . S
O131 Co122 2.327 . S
O131 C145 1.257 . S
O132 Co122 1.976 . S
O132 C144 1.251 . S
O133 Co123 2.111 1_565 S
O133 C144 1.274 . S
O134 Co123 2.143 . S
O134 C147 1.246 . S
O135 Co127 2.286 . S
O135 C146 1.259 . S
O136 Co127 2.069 . S
O136 C146 1.289 . S
O137 Co127 2.015 . S
O137 C147 1.257 . S
O138 Co123 2.111 . S
O138 C148 1.274 . S
O139 Co128 1.976 . S
O139 C148 1.251 . S
O140 Co127 2.264 . S
O140 Co128 2.327 . S
O140 C149 1.257 . S
O141 Co128 2.073 . S
O141 C149 1.245 . S
C142 O150 1.259 . S
C142 O151 1.289 . S
C143 O152 1.246 . S
C143 O153 1.257 . S
C144 O132 1.251 . S
C144 O133 1.274 . S
C145 O130 1.245 . S
C145 O131 1.257 . S
C146 O135 1.259 . S
C146 O136 1.289 . S
C147 O134 1.246 . S
C147 O137 1.257 . S
C148 O138 1.274 . S
C148 O139 1.251 . S
C149 O140 1.257 . S
C149 O141 1.245 . S
O150 Co121 2.286 . S
O150 C142 1.259 . S
O151 Co121 2.069 . S
O151 C142 1.289 . S
O152 Co123 2.143 1_565 S
O152 C143 1.246 . S
O153 Co121 2.015 . S
O153 C143 1.257 . S
Co154 O157 2.042 . S
Co154 O164 2.264 . S
Co154 O183 2.286 . S
Co154 O184 2.069 . S
Co154 O186 2.015 . S
Co155 O157 2.122 . S
Co155 O163 2.073 . S
Co155 O164 2.327 . S
Co155 O165 1.976 . S
Co156 O157 2.087 . S
Co156 O159 2.087 1_554 S
Co156 O166 2.111 . S
Co156 O167 2.143 1_554 S
Co156 O171 2.111 1_554 S
Co156 O185 2.143 . S
O157 Co154 2.042 . S
O157 Co155 2.122 . S
O157 Co156 2.087 . S
O157 H158 0.980 . S
H158 O157 0.980 . S
O159 Co156 2.087 1_556 S
O159 Co160 2.042 . S
O159 Co161 2.122 . S
O159 H162 0.980 . S
Co160 O159 2.042 . S
Co160 O168 2.286 . S
Co160 O169 2.069 . S
Co160 O170 2.015 . S
Co160 O173 2.264 . S
Co161 O159 2.122 . S
Co161 O172 1.976 . S
Co161 O173 2.327 . S
Co161 O174 2.073 . S
H162 O159 0.980 . S
O163 Co155 2.073 . S
O163 C178 1.245 . S
O164 Co154 2.264 . S
O164 Co155 2.327 . S
O164 C178 1.257 . S
O165 Co155 1.976 . S
O165 C177 1.251 . S
O166 Co156 2.111 . S
O166 C177 1.274 . S
O167 Co156 2.143 1_556 S
O167 C180 1.246 . S
O168 Co160 2.286 . S
O168 C179 1.259 . S
O169 Co160 2.069 . S
O169 C179 1.289 . S
O170 Co160 2.015 . S
O170 C180 1.257 . S
O171 Co156 2.111 1_556 S
O171 C181 1.274 . S
O172 Co161 1.976 . S
O172 C181 1.251 . S
O173 Co160 2.264 . S
O173 Co161 2.327 . S
O173 C182 1.257 . S
O174 Co161 2.073 . S
O174 C182 1.245 . S
C175 O183 1.259 . S
C175 O184 1.289 . S
C176 O185 1.246 . S
C176 O186 1.257 . S
C177 O165 1.251 . S
C177 O166 1.274 . S
C178 O163 1.245 . S
C178 O164 1.257 . S
C179 O168 1.259 . S
C179 O169 1.289 . S
C180 O167 1.246 . S
C180 O170 1.257 . S
C181 O171 1.274 . S
C181 O172 1.251 . S
C182 O173 1.257 . S
C182 O174 1.245 . S
O183 Co154 2.286 . S
O183 C175 1.259 . S
O184 Co154 2.069 . S
O184 C175 1.289 . S
O185 Co156 2.143 . S
O185 C176 1.246 . S
O186 Co154 2.015 . S
O186 C176 1.257 . S
C112 N4 1.599 . S
C148 C17 1.633 . S
C113 C31 1.791 . S
C143 C42 1.759 . S
C110 C53 1.528 . S
C61 C146 2.212 . S
C75 C115 0.574 . S
C145 N81 1.791 . S
C149 C9 1.710 . S
C114 C20 1.410 . S
C142 N26 1.737 . S
C111 C39 1.141 . S
C144 C50 1.948 . S
N59 C109 1.102 . S
C72 C147 1.504 . S
C116 C86 1.582 . S
C178 C6 1.725 . S
N48 C181 2.336 . S
C180 C64 2.173 . S
N70 C179 1.409 . S
C182 C83 1.809 . S
C28 C176 2.065 . S
C175 N37 2.364 . S
N15 C177 1.457 . S
