# Generated by pormake.
# Topology pts, (4,4)-cn, num edge types: 1
# Building blocks:
#     Node 0, Type 0, BuildingBlock: KUFVIS_clean_linker_0, # of connection points: 4
#     Node 1, Type 0, BuildingBlock: KUFVIS_clean_linker_0, # of connection points: 4
#     Node 2, Type 1, BuildingBlock: AZAVOO_clean_sbu_0, # of connection points: 4
#     Node 3, Type 1, BuildingBlock: AZAVOO_clean_sbu_0, # of connection points: 4
#     Edge 4, Type (0, 1), BuildingBlock: CIFDUS_clean_linker_0, # of connection points: 2
#     Edge 5, Type (0, 1), BuildingBlock: CIFDUS_clean_linker_0, # of connection points: 2
#     Edge 6, Type (0, 1), BuildingBlock: CIFDUS_clean_linker_0, # of connection points: 2
#     Edge 7, Type (0, 1), BuildingBlock: CIFDUS_clean_linker_0, # of connection points: 2
#     Edge 8, Type (0, 1), BuildingBlock: CIFDUS_clean_linker_0, # of connection points: 2
#     Edge 9, Type (0, 1), BuildingBlock: CIFDUS_clean_linker_0, # of connection points: 2
#     Edge 10, Type (0, 1), BuildingBlock: CIFDUS_clean_linker_0, # of connection points: 2
#     Edge 11, Type (0, 1), BuildingBlock: CIFDUS_clean_linker_0, # of connection points: 2
# Relax obj value: 0.013
# Max RMSD: 0.077
# Mean RMSD: 0.072
data_MOF--net-pts--node1-AZAVOO_clean_sbu_0--node2-KUFVIS_clean_linker_0--edge1-CIFDUS_clean_linker_0
_symmetry_space_group_name_H-M    P1
_symmetry_Int_Tables_number       1
_symmetry_cell_setting            triclinic
loop_
_symmetry_equiv_pos_as_xyz
'x, y, z'
_cell_length_a     21.492209
_cell_length_b     22.799224
_cell_length_c     31.722471
_cell_angle_alpha  90.528069
_cell_angle_beta   97.079391
_cell_angle_gamma 87.900152
loop_
_atom_site_label
_atom_site_type_symbol
_atom_site_fract_x
_atom_site_fract_y
_atom_site_fract_z
_atom_type_partial_charge
H0 H 0.32844 0.05965 0.9618 0.0
H1 H 0.49519 0.01199 0.90773 0.0
H2 H 0.50642 0.0686 0.03864 0.0
H3 H 0.6049 0.03965 0.04249 0.0
H4 H 0.76278 0.04334 -0.02729 0.0
H5 H 0.57859 0.0599 0.90561 0.0
C6 C 0.3789 0.05256 0.96546 0.0
C7 C 0.41356 0.06067 0.00546 0.0
C8 C 0.40804 0.03502 0.93014 0.0
C9 C 0.47363 0.02931 0.93447 0.0
C10 C 0.51085 0.04503 -0.02745 0.0
C11 C 0.47975 0.0592 0.00841 0.0
C12 C 0.58129 0.04667 -0.02623 0.0
C13 C 0.62264 0.04336 0.01224 0.0
C14 C 0.68804 0.04557 0.01187 0.0
C15 C 0.71236 0.04638 -0.02705 0.0
C16 C 0.673 0.05001 0.93458 0.0
C17 C 0.60794 0.05259 0.93541 0.0
H18 H 0.07751 0.71919 0.46082 0.0
H19 H 0.04369 0.56761 0.53261 0.0
H20 H 0.08488 0.55003 0.40263 0.0
H21 H 1.02472 0.47164 0.40511 0.0
H22 H 0.04327 0.31627 0.48105 0.0
H23 H 0.09799 0.47986 0.53872 0.0
C24 C 0.07335 0.67211 0.46325 0.0
C25 C 0.0795 0.63743 0.42744 0.0
C26 C 0.06001 0.6476 0.50128 0.0
C27 C 0.05643 0.58638 0.50379 0.0
C28 C 0.06625 0.5499 0.46865 0.0
C29 C 0.07801 0.57632 0.43037 0.0
C30 C 0.06143 0.48486 0.47161 0.0
C31 C 0.03884 0.45114 0.4356 0.0
C32 C 0.03263 0.39045 0.43904 0.0
C33 C 0.04797 0.36331 0.47839 0.0
C34 C 0.07091 0.39556 0.51418 0.0
C35 C 0.07849 0.45595 0.51082 0.0
Mg36 Mg 0.09262 1.00226 0.24493 0.0
O37 O 0.99256 1.00068 0.20835 0.0
O38 O 0.92464 0.98482 0.25498 0.0
Mg39 Mg 0.97969 0.98247 0.32117 0.0
C40 C 0.93685 0.99298 0.21716 0.0
C41 C 0.18802 0.05392 0.18837 0.0
O42 O 0.21817 0.06628 0.22579 0.0
O43 O 0.07153 0.09591 0.26684 0.0
O44 O 1.00441 0.07896 0.31355 0.0
O45 O 0.10452 0.90424 0.24124 0.0
O46 O 0.06262 0.95215 0.29232 0.0
C47 C 0.03589 0.11409 0.29401 0.0
C48 C 0.07676 0.90289 0.27511 0.0
O49 O 0.13404 0.03208 0.18622 0.0
Mg50 Mg 0.99513 0.01506 0.69228 0.0
O51 O 0.08648 0.99881 0.7364 0.0
O52 O 0.16576 0.99099 0.69711 0.0
Mg53 Mg 0.1234 0.99654 0.62735 0.0
C54 C 0.14486 0.99202 0.73306 0.0
C55 C 0.88842 0.02967 0.74745 0.0
O56 O 0.86226 1.00035 0.71447 0.0
O57 O 1.02189 0.10895 0.68024 0.0
O58 O 0.09695 0.09363 0.63793 0.0
O59 O 0.98112 0.91826 0.68508 0.0
O60 O 0.03058 0.97143 0.64259 0.0
C61 C 0.06171 0.12809 0.65741 0.0
C62 C 1.01102 0.92123 0.65219 0.0
O63 O 0.94537 0.04338 0.74855 0.0
H64 H 0.30495 1.01048 0.01879 0.0
H65 H 0.44462 0.12599 0.07904 0.0
H66 H 0.38699 0.13479 0.14084 0.0
H67 H 0.29632 0.10898 0.17778 0.0
H68 H 0.15334 1.00121 0.11239 0.0
H69 H 0.21169 0.99284 0.05157 0.0
C70 C 0.32244 0.03913 0.04469 0.0
C71 C 0.37919 0.06793 0.0436 0.0
C72 C 0.28797 0.04592 0.07917 0.0
C73 C 0.40166 0.10261 0.0788 0.0
C74 C 0.36833 0.10816 0.11408 0.0
C75 C 0.27769 0.0842 0.15002 0.0
C76 C 0.22058 0.05553 0.14986 0.0
C77 C 0.31135 0.07993 0.11461 0.0
C78 C 0.19695 0.02387 0.11351 0.0
C79 C 0.23051 0.0187 0.07872 0.0
H80 H 0.99372 0.36927 0.57138 0.0
H81 H 0.18416 0.34686 0.54352 0.0
H82 H 0.20249 0.26553 0.59387 0.0
H83 H 0.15703 0.18902 0.63313 0.0
H84 H 0.96482 0.20881 0.65873 0.0
H85 H 0.95469 0.30377 0.62303 0.0
C86 C 0.03989 0.34808 0.57794 0.0
C87 C 0.08773 0.36365 0.55426 0.0
C88 C 0.04925 0.30025 0.60584 0.0
C89 C 0.14716 0.33567 0.56201 0.0
C90 C 0.15729 0.28882 0.59034 0.0
C91 C 0.11345 0.21489 0.63189 0.0
C92 C 0.06132 0.19138 0.6476 0.0
C93 C 0.10762 0.26879 0.61056 0.0
C94 C 1.00552 0.22574 0.64658 0.0
C95 C 0.99954 0.27988 0.62586 0.0
H96 H 0.69499 0.97589 0.0826 0.0
H97 H 0.78278 0.12031 0.0292 0.0
H98 H 0.86843 0.1155 0.08705 0.0
H99 H 0.92182 0.0671 0.15065 0.0
H100 H 0.83256 0.92714 0.20777 0.0
H101 H 0.74441 0.93305 0.15081 0.0
C102 C 0.73226 1.00693 0.08419 0.0
C103 C 0.73305 0.04774 0.05131 0.0
C104 C 0.78168 1.0041 0.11783 0.0
C105 C 0.78171 0.08778 0.05377 0.0
C106 C 0.83081 0.08505 0.08677 0.0
C107 C 0.88314 0.03776 0.15044 0.0
C108 C 0.88399 0.99612 0.18275 0.0
C109 C 0.83205 0.04257 0.11841 0.0
C110 C 0.83296 0.95929 0.18288 0.0
C111 C 0.78256 0.96275 0.15043 0.0
H112 H 0.9955 0.75178 0.49562 0.0
H113 H 0.0953 0.63294 0.58748 0.0
H114 H 0.08425 0.70541 0.64404 0.0
H115 H 0.05401 0.80719 0.66592 0.0
H116 H 0.96867 0.92764 0.56984 0.0
H117 H 0.9681 0.85069 0.51607 0.0
C118 C 1.01578 0.74171 0.52787 0.0
C119 C 0.04751 0.68745 0.53701 0.0
C120 C 1.0125 0.78443 0.55941 0.0
C121 C 0.07072 0.67441 0.57944 0.0
C122 C 0.06495 0.71608 0.61172 0.0
C123 C 0.03527 0.81606 0.63319 0.0
C124 C 1.01162 0.8727 0.62153 0.0
C125 C 0.03724 0.7719 0.6019 0.0
C126 C 0.9876 0.88432 0.5792 0.0
C127 C 0.987 0.84038 0.54854 0.0
H128 H 0.29465 0.98332 0.91657 0.0
H129 H 0.43447 0.06118 0.85006 0.0
H130 H 0.36796 0.0489 0.78271 0.0
H131 H 0.26657 0.02349 0.74335 0.0
H132 H 0.12326 0.95457 0.81109 0.0
H133 H 0.19426 0.95695 0.87738 0.0
C134 C 0.31055 0.99812 0.88745 0.0
C135 C 0.36947 0.02362 0.88867 0.0
C136 C 0.27116 0.99291 0.849 0.0
C137 C 0.38974 0.04088 0.85026 0.0
C138 C 0.35146 0.03434 0.81168 0.0
C139 C 0.25119 1.00829 0.77254 0.0
C140 C 0.18975 0.98888 0.77232 0.0
C141 C 0.29165 0.01135 0.81076 0.0
C142 C 0.17023 0.96997 0.81047 0.0
C143 C 0.21079 0.97131 0.84837 0.0
H144 H 0.09866 0.36022 0.37448 0.0
H145 H 0.92382 0.33387 0.42367 0.0
H146 H 0.90438 0.24902 0.37681 0.0
H147 H 0.94632 0.17313 0.33208 0.0
H148 H 0.12408 0.19561 0.28531 0.0
H149 H 0.13285 0.29159 0.32023 0.0
C150 C 0.05527 0.33709 0.37354 0.0
C151 C 1.01246 0.353 0.40209 0.0
C152 C 0.04569 0.28701 0.34765 0.0
C153 C 0.95692 0.32238 0.40153 0.0
C154 C 0.94622 0.2736 0.37512 0.0
C155 C 0.98648 0.19947 0.32887 0.0
C156 C 0.03509 0.17672 0.30691 0.0
C157 C 0.99172 0.25395 0.34963 0.0
C158 C 0.0862 0.21188 0.3023 0.0
C159 C 0.09141 0.26667 0.32247 0.0
H160 H 0.77769 0.10357 0.91584 0.0
H161 H 0.63041 0.99184 0.86143 0.0
H162 H 0.68187 0.97942 0.79739 0.0
H163 H 0.77297 0.99334 0.75945 0.0
H164 H 0.92387 0.09932 0.81612 0.0
H165 H 0.86726 0.11978 0.87709 0.0
C166 C 0.75686 0.07631 0.89006 0.0
C167 C 0.70048 0.04829 0.89372 0.0
C168 C 0.78776 0.06767 0.85394 0.0
C169 C 0.67341 0.01443 0.85943 0.0
C170 C 0.70316 1.00677 0.82293 0.0
C171 C 0.79335 0.02124 0.78499 0.0
C172 C 0.85275 0.04445 0.78334 0.0
C173 C 0.76099 0.03215 0.82024 0.0
C174 C 0.87841 0.08055 0.81672 0.0
C175 C 0.84603 0.09237 0.85157 0.0
H176 H 0.98909 0.70724 0.38793 0.0
H177 H 0.17577 0.63791 0.37815 0.0
H178 H 0.18792 0.71059 0.3232 0.0
H179 H 0.15123 0.80446 0.28776 0.0
H180 H 0.96769 0.87717 0.30404 0.0
H181 H 0.94795 0.79274 0.3465 0.0
C182 C 0.03169 0.70711 0.37274 0.0
C183 C 0.08157 0.66785 0.3868 0.0
C184 C 0.03914 0.75046 0.34306 0.0
C185 C 0.13675 0.66771 0.36738 0.0
C186 C 0.14383 0.70966 0.33644 0.0
C187 C 0.10649 0.80086 0.29988 0.0
C188 C 0.0613 0.84717 0.29363 0.0
C189 C 0.09632 0.75288 0.32545 0.0
C190 C 1.00357 0.8426 0.30943 0.0
C191 C 0.9922 0.79425 0.33349 0.0
loop_
_geom_bond_atom_site_label_1
_geom_bond_atom_site_label_2
_geom_bond_distance
_geom_bond_site_symmetry_2
_ccdc_geom_bond_type
H0 C6 0.927 1_565 S
H1 C9 0.931 . S
H2 C11 0.931 1_565 S
H3 C13 0.930 . S
H4 C15 0.930 . S
H5 C17 0.931 1_565 S
C6 H0 0.927 1_545 S
C6 C7 1.360 1_546 S
C6 C8 1.416 . S
C7 C6 1.360 1_564 S
C7 C11 1.382 1_565 S
C8 C6 1.416 . S
C8 C9 1.400 . S
C9 H1 0.931 . S
C9 C8 1.400 . S
C9 C10 1.374 1_556 S
C10 C9 1.374 1_554 S
C10 C11 1.416 . S
C10 C12 1.501 . S
C11 H2 0.931 1_545 S
C11 C7 1.382 1_545 S
C11 C10 1.416 . S
C12 C10 1.501 . S
C12 C13 1.384 . S
C12 C17 1.408 1_554 S
C13 H3 0.930 . S
C13 C12 1.384 . S
C13 C14 1.389 . S
C14 C13 1.389 . S
C14 C15 1.405 . S
C15 H4 0.930 . S
C15 C14 1.405 . S
C15 C16 1.364 1_554 S
C16 C15 1.364 1_556 S
C16 C17 1.400 . S
C17 H5 0.931 1_545 S
C17 C12 1.408 1_556 S
C17 C16 1.400 . S
H18 C24 0.930 . S
H19 C27 0.931 1_655 S
H20 C29 0.931 . S
H21 C31 0.930 . S
H22 C33 0.930 . S
H23 C35 0.931 . S
C24 H18 0.930 . S
C24 C25 1.380 . S
C24 C26 1.394 . S
C25 C24 1.380 . S
C25 C29 1.382 . S
C26 C24 1.394 . S
C26 C27 1.400 . S
C27 H19 0.931 1_455 S
C27 C26 1.400 . S
C27 C28 1.375 . S
C28 C27 1.375 . S
C28 C29 1.415 . S
C28 C30 1.501 . S
C29 H20 0.931 . S
C29 C25 1.382 . S
C29 C28 1.415 . S
C30 C28 1.501 . S
C30 C31 1.384 . S
C30 C35 1.408 . S
C31 H21 0.930 . S
C31 C30 1.384 . S
C31 C32 1.389 . S
C32 C31 1.389 . S
C32 C33 1.405 . S
C33 H22 0.930 . S
C33 C32 1.405 . S
C33 C34 1.364 . S
C34 C33 1.364 . S
C34 C35 1.400 . S
C35 H23 0.931 . S
C35 C30 1.408 . S
C35 C34 1.400 . S
Mg36 O37 2.028 . S
Mg36 O43 1.986 . S
Mg36 O45 2.114 1_545 S
Mg36 O46 2.251 1_545 S
Mg36 O49 2.010 . S
O37 Mg36 2.028 . S
O37 C40 1.251 1_455 S
O38 Mg39 2.028 . S
O38 C40 1.248 . S
Mg39 O38 2.028 . S
Mg39 O44 2.032 . S
Mg39 O46 2.079 1_645 S
C40 O37 1.251 1_655 S
C40 O38 1.248 . S
C41 O42 1.264 . S
C41 O49 1.249 . S
O42 C41 1.264 . S
O43 Mg36 1.986 . S
O43 C47 1.246 . S
O44 Mg39 2.032 . S
O44 C47 1.259 1_655 S
O45 Mg36 2.114 1_565 S
O45 C48 1.252 . S
O46 Mg36 2.251 1_565 S
O46 Mg39 2.079 1_465 S
O46 C48 1.273 . S
C47 O43 1.246 . S
C47 O44 1.259 1_455 S
C48 O45 1.252 . S
C48 O46 1.273 . S
O49 Mg36 2.010 . S
O49 C41 1.249 . S
Mg50 O51 2.028 1_655 S
Mg50 O57 1.986 . S
Mg50 O59 2.114 1_545 S
Mg50 O60 2.251 1_645 S
Mg50 O63 2.010 . S
O51 Mg50 2.028 1_455 S
O51 C54 1.250 . S
O52 Mg53 2.028 . S
O52 C54 1.248 . S
Mg53 O52 2.028 . S
Mg53 O58 2.032 . S
Mg53 O60 2.079 1_545 S
C54 O51 1.250 . S
C54 O52 1.248 . S
C55 O56 1.264 . S
C55 O63 1.249 . S
O56 C55 1.264 . S
O57 Mg50 1.986 . S
O57 C61 1.246 1_655 S
O58 Mg53 2.032 . S
O58 C61 1.259 . S
O59 Mg50 2.114 1_565 S
O59 C62 1.252 1_655 S
O60 Mg50 2.251 1_465 S
O60 Mg53 2.079 1_565 S
O60 C62 1.273 . S
C61 O57 1.246 1_455 S
C61 O58 1.259 . S
C62 O59 1.252 1_455 S
C62 O60 1.273 . S
O63 Mg50 2.010 . S
O63 C55 1.249 . S
H64 C70 0.930 . S
H65 C73 0.930 . S
H66 C74 0.930 . S
H67 C75 0.930 . S
H68 C78 0.930 . S
H69 C79 0.930 . S
C70 H64 0.930 . S
C70 C71 1.355 1_565 S
C70 C72 1.415 . S
C71 C70 1.355 1_545 S
C71 C73 1.419 . S
C72 C70 1.415 . S
C72 C77 1.425 1_565 S
C72 C79 1.409 . S
C73 H65 0.930 . S
C73 C71 1.419 . S
C73 C74 1.362 . S
C74 H66 0.930 . S
C74 C73 1.362 . S
C74 C77 1.409 . S
C75 H67 0.930 . S
C75 C76 1.355 . S
C75 C77 1.415 . S
C76 C75 1.355 . S
C76 C78 1.419 1_545 S
C77 C72 1.425 1_545 S
C77 C74 1.409 . S
C77 C75 1.415 . S
C78 H68 0.930 . S
C78 C76 1.419 1_565 S
C78 C79 1.362 . S
C79 H69 0.930 . S
C79 C72 1.409 . S
C79 C78 1.362 . S
H80 C86 0.930 . S
H81 C89 0.930 . S
H82 C90 0.930 . S
H83 C91 0.930 . S
H84 C94 0.930 . S
H85 C95 0.930 . S
C86 H80 0.930 . S
C86 C87 1.355 1_655 S
C86 C88 1.415 . S
C87 C86 1.355 1_455 S
C87 C89 1.419 . S
C88 C86 1.415 . S
C88 C93 1.425 1_655 S
C88 C95 1.409 . S
C89 H81 0.930 . S
C89 C87 1.419 . S
C89 C90 1.362 . S
C90 H82 0.930 . S
C90 C89 1.362 . S
C90 C93 1.409 . S
C91 H83 0.930 . S
C91 C92 1.355 . S
C91 C93 1.415 . S
C92 C91 1.355 . S
C92 C94 1.419 1_455 S
C93 C88 1.425 1_455 S
C93 C90 1.409 . S
C93 C91 1.415 . S
C94 H84 0.930 . S
C94 C92 1.419 1_655 S
C94 C95 1.362 . S
C95 H85 0.930 . S
C95 C88 1.409 . S
C95 C94 1.362 . S
H96 C102 0.930 . S
H97 C105 0.930 . S
H98 C106 0.930 . S
H99 C107 0.930 . S
H100 C110 0.928 1_565 S
H101 C111 0.930 . S
C102 H96 0.930 . S
C102 C103 1.355 . S
C102 C104 1.415 . S
C103 C102 1.355 . S
C103 C105 1.419 . S
C104 C102 1.415 . S
C104 C109 1.425 . S
C104 C111 1.409 1_545 S
C105 H97 0.930 . S
C105 C103 1.419 . S
C105 C106 1.362 . S
C106 H98 0.930 . S
C106 C105 1.362 . S
C106 C109 1.409 . S
C107 H99 0.930 . S
C107 C108 1.355 . S
C107 C109 1.415 . S
C108 C107 1.355 . S
C108 C110 1.422 . S
C109 C104 1.425 . S
C109 C106 1.409 . S
C109 C107 1.415 . S
C110 H100 0.928 1_545 S
C110 C108 1.422 . S
C110 C111 1.362 1_545 S
C111 H101 0.930 . S
C111 C104 1.409 1_565 S
C111 C110 1.362 1_565 S
H112 C118 0.930 . S
H113 C121 0.930 . S
H114 C122 0.930 . S
H115 C123 0.930 . S
H116 C126 0.930 . S
H117 C127 0.930 . S
C118 H112 0.930 . S
C118 C119 1.355 1_655 S
C118 C120 1.415 . S
C119 C118 1.355 1_455 S
C119 C121 1.419 . S
C120 C118 1.415 . S
C120 C125 1.425 1_655 S
C120 C127 1.409 . S
C121 H113 0.930 . S
C121 C119 1.419 . S
C121 C122 1.362 . S
C122 H114 0.930 . S
C122 C121 1.362 . S
C122 C125 1.409 . S
C123 H115 0.930 . S
C123 C124 1.355 . S
C123 C125 1.415 . S
C124 C123 1.355 . S
C124 C126 1.419 1_455 S
C125 C120 1.425 1_455 S
C125 C122 1.409 . S
C125 C123 1.415 . S
C126 H116 0.930 . S
C126 C124 1.419 1_655 S
C126 C127 1.362 . S
C127 H117 0.930 . S
C127 C120 1.409 . S
C127 C126 1.362 . S
H128 C134 0.930 . S
H129 C137 0.930 . S
H130 C138 0.930 . S
H131 C139 0.930 . S
H132 C142 0.930 . S
H133 C143 0.930 . S
C134 H128 0.930 . S
C134 C135 1.355 1_565 S
C134 C136 1.415 . S
C135 C134 1.355 1_545 S
C135 C137 1.419 . S
C136 C134 1.415 . S
C136 C141 1.425 1_565 S
C136 C143 1.409 . S
C137 H129 0.930 . S
C137 C135 1.419 . S
C137 C138 1.362 . S
C138 H130 0.930 . S
C138 C137 1.362 . S
C138 C141 1.409 . S
C139 H131 0.930 . S
C139 C140 1.355 . S
C139 C141 1.415 . S
C140 C139 1.355 . S
C140 C142 1.419 1_545 S
C141 C136 1.425 1_545 S
C141 C138 1.409 . S
C141 C139 1.415 . S
C142 H132 0.930 . S
C142 C140 1.419 1_565 S
C142 C143 1.362 . S
C143 H133 0.930 . S
C143 C136 1.409 . S
C143 C142 1.362 . S
H144 C150 0.930 . S
H145 C153 0.930 . S
H146 C154 0.930 . S
H147 C155 0.930 1_655 S
H148 C158 0.930 . S
H149 C159 0.930 . S
C150 H144 0.930 . S
C150 C151 1.355 . S
C150 C152 1.415 . S
C151 C150 1.355 . S
C151 C153 1.419 1_455 S
C152 C150 1.415 . S
C152 C157 1.425 . S
C152 C159 1.409 . S
C153 H145 0.930 . S
C153 C151 1.419 1_655 S
C153 C154 1.362 . S
C154 H146 0.930 . S
C154 C153 1.362 . S
C154 C157 1.409 1_655 S
C155 H147 0.930 1_455 S
C155 C156 1.355 . S
C155 C157 1.415 . S
C156 C155 1.355 . S
C156 C158 1.419 . S
C157 C152 1.425 . S
C157 C154 1.409 1_455 S
C157 C155 1.415 . S
C158 H148 0.930 . S
C158 C156 1.419 . S
C158 C159 1.362 . S
C159 H149 0.930 . S
C159 C152 1.409 . S
C159 C158 1.362 . S
H160 C166 0.930 . S
H161 C169 0.930 . S
H162 C170 0.930 . S
H163 C171 0.930 . S
H164 C174 0.930 . S
H165 C175 0.930 . S
C166 H160 0.930 . S
C166 C167 1.355 1_565 S
C166 C168 1.415 1_565 S
C167 C166 1.355 1_545 S
C167 C169 1.419 . S
C168 C166 1.415 1_545 S
C168 C173 1.425 . S
C168 C175 1.409 1_545 S
C169 H161 0.930 . S
C169 C167 1.419 . S
C169 C170 1.362 . S
C170 H162 0.930 . S
C170 C169 1.362 . S
C170 C173 1.409 . S
C171 H163 0.930 . S
C171 C172 1.355 . S
C171 C173 1.415 . S
C172 C171 1.355 . S
C172 C174 1.419 . S
C173 C168 1.425 . S
C173 C170 1.409 . S
C173 C171 1.415 . S
C174 H164 0.930 . S
C174 C172 1.419 . S
C174 C175 1.362 1_545 S
C175 H165 0.930 . S
C175 C168 1.409 1_565 S
C175 C174 1.362 1_565 S
H176 C182 0.916 1_655 S
H177 C185 0.930 . S
H178 C186 0.930 . S
H179 C187 0.930 . S
H180 C190 0.930 . S
H181 C191 0.930 . S
C182 H176 0.916 1_455 S
C182 C183 1.365 . S
C182 C184 1.418 . S
C183 C182 1.365 . S
C183 C185 1.419 . S
C184 C182 1.418 . S
C184 C189 1.425 . S
C184 C191 1.409 1_455 S
C185 H177 0.930 . S
C185 C183 1.419 . S
C185 C186 1.362 . S
C186 H178 0.930 . S
C186 C185 1.362 . S
C186 C189 1.409 . S
C187 H179 0.930 . S
C187 C188 1.355 . S
C187 C189 1.415 . S
C188 C187 1.355 . S
C188 C190 1.419 1_455 S
C189 C184 1.425 . S
C189 C186 1.409 . S
C189 C187 1.415 . S
C190 H180 0.930 . S
C190 C188 1.419 1_655 S
C190 C191 1.362 . S
C191 H181 0.930 . S
C191 C184 1.409 1_655 S
C191 C190 1.362 . S
C76 C41 1.319 . S
C71 C7 1.512 1_545 S
C92 C61 1.508 . S
C87 C34 1.516 . S
C108 C40 1.453 . S
C103 C14 1.465 . S
C124 C62 1.533 . S
C119 C26 1.504 . S
C140 C54 1.510 . S
C135 C8 1.518 . S
C156 C47 1.508 . S
C151 C32 1.525 . S
C172 C55 1.335 . S
C167 C16 1.516 . S
C183 C25 1.493 . S
C188 C48 1.543 . S
