# Generated by pormake.
# Topology rtl, (3,6)-cn, num edge types: 1
# Building blocks:
#     Node 0, Type 0, BuildingBlock: BETDAH_clean_linker_0, # of connection points: 3
#     Node 1, Type 0, BuildingBlock: BETDAH_clean_linker_0, # of connection points: 3
#     Node 2, Type 0, BuildingBlock: BETDAH_clean_linker_0, # of connection points: 3
#     Node 3, Type 0, BuildingBlock: BETDAH_clean_linker_0, # of connection points: 3
#     Node 4, Type 1, BuildingBlock: FUNLAD_clean_sbu_0, # of connection points: 6
#     Node 5, Type 1, BuildingBlock: FUNLAD_clean_sbu_0, # of connection points: 6
#     Edge 6, Type (0, 1), BuildingBlock: AJUNOK_clean_linker_0, # of connection points: 2
#     Edge 7, Type (0, 1), BuildingBlock: AJUNOK_clean_linker_0, # of connection points: 2
#     Edge 8, Type (0, 1), BuildingBlock: AJUNOK_clean_linker_0, # of connection points: 2
#     Edge 9, Type (0, 1), BuildingBlock: AJUNOK_clean_linker_0, # of connection points: 2
#     Edge 10, Type (0, 1), BuildingBlock: AJUNOK_clean_linker_0, # of connection points: 2
#     Edge 11, Type (0, 1), BuildingBlock: AJUNOK_clean_linker_0, # of connection points: 2
#     Edge 12, Type (0, 1), BuildingBlock: AJUNOK_clean_linker_0, # of connection points: 2
#     Edge 13, Type (0, 1), BuildingBlock: AJUNOK_clean_linker_0, # of connection points: 2
#     Edge 14, Type (0, 1), BuildingBlock: AJUNOK_clean_linker_0, # of connection points: 2
#     Edge 15, Type (0, 1), BuildingBlock: AJUNOK_clean_linker_0, # of connection points: 2
#     Edge 16, Type (0, 1), BuildingBlock: AJUNOK_clean_linker_0, # of connection points: 2
#     Edge 17, Type (0, 1), BuildingBlock: AJUNOK_clean_linker_0, # of connection points: 2
# Relax obj value: 0.003
# Max RMSD: 0.037
# Mean RMSD: 0.024
data_MOF--net-rtl--node1-FUNLAD_clean_sbu_0--node2-BETDAH_clean_linker_0--edge1-AJUNOK_clean_linker_0
_symmetry_space_group_name_H-M    P1
_symmetry_Int_Tables_number       1
_symmetry_cell_setting            triclinic
loop_
_symmetry_equiv_pos_as_xyz
'x, y, z'
_cell_length_a     30.614906
_cell_length_b     30.600952
_cell_length_c     15.227267
_cell_angle_alpha  91.899833
_cell_angle_beta   92.73237
_cell_angle_gamma 89.777124
loop_
_atom_site_label
_atom_site_type_symbol
_atom_site_fract_x
_atom_site_fract_y
_atom_site_fract_z
_atom_type_partial_charge
H0 H 0.11489 0.92736 0.01824 0.0
H1 H 0.1596 0.81296 0.15314 0.0
H2 H 0.15187 0.81196 0.8708 0.0
C3 C 0.12898 0.89477 0.01644 0.0
C4 C 0.1334 0.87282 0.93513 0.0
C5 C 0.13834 0.87359 0.09548 0.0
C6 C 0.15391 0.83028 0.09271 0.0
C7 C 0.15971 0.80845 0.0115 0.0
C8 C 0.14912 0.82966 0.93315 0.0
N9 N 0.16906 0.76316 0.0078 0.0
C10 C 0.2108 0.74636 0.0236 0.0
H11 H 0.60189 0.60163 0.50798 0.0
H12 H 0.6784 0.70745 0.41658 0.0
H13 H 0.6602 0.69513 0.69362 0.0
C14 C 0.62229 0.63021 0.52172 0.0
C15 C 0.62968 0.64543 0.60853 0.0
C16 C 0.63981 0.6522 0.45225 0.0
C17 C 0.66559 0.68979 0.47019 0.0
C18 C 0.67325 0.70507 0.55803 0.0
C19 C 0.65507 0.6828 0.62634 0.0
N20 N 0.69629 0.74421 0.58077 0.0
C21 C 0.72975 0.76165 0.53453 0.0
H22 H 0.90982 0.09714 0.00013 0.0
H23 H 0.87627 0.2132 0.14902 0.0
H24 H 0.86956 0.21334 0.86658 0.0
C25 C 0.89673 0.13014 0.00221 0.0
C26 C 0.88858 0.15187 0.92346 0.0
C27 C 0.89224 0.15183 0.08379 0.0
C28 C 0.87846 0.19563 0.08638 0.0
C29 C 0.86895 0.2174 0.00816 0.0
C30 C 0.87451 0.19567 0.92677 0.0
N31 N 0.86048 0.26286 0.01187 0.0
C32 C 0.81844 0.28002 0.0049 0.0
H33 H 0.43789 0.4065 0.53255 0.0
H34 H 0.32613 0.34262 0.63272 0.0
H35 H 0.33451 0.3591 0.35481 0.0
C36 C 0.40753 0.38857 0.52114 0.0
C37 C 0.38952 0.38345 0.43532 0.0
C38 C 0.38477 0.37448 0.59295 0.0
C39 C 0.34442 0.35277 0.57774 0.0
C40 C 0.32665 0.34675 0.49119 0.0
C41 C 0.34908 0.36257 0.42098 0.0
N42 N 0.28418 0.32961 0.4726 0.0
C43 C 0.2668 0.29381 0.51228 0.0
C44 C 0.05999 0.96656 0.38587 0.0
N45 N 0.08622 0.08464 0.52866 0.0
C46 C 0.12923 0.07321 0.53622 0.0
C47 C 0.16163 0.10542 0.54461 0.0
C48 C 0.14965 0.14979 0.54564 0.0
C49 C 0.10503 0.16056 0.5378 0.0
C50 C 0.07377 0.12739 0.52961 0.0
Zn51 Zn 0.03867 0.03736 0.5156 0.0
C52 C 0.96987 0.05813 0.37764 0.0
N53 N 0.93836 0.93987 0.49008 0.0
C54 C 0.94946 0.89675 0.48699 0.0
C55 C 0.89571 0.95267 0.48647 0.0
C56 C 0.86229 0.92162 0.48122 0.0
C57 C 0.87273 0.87687 0.47889 0.0
C58 C 0.91703 0.86458 0.48143 0.0
Zn59 Zn 0.98628 0.98671 0.50272 0.0
O60 O 0.07471 1.00225 0.42049 0.0
C61 C 0.05456 0.96525 0.64016 0.0
O62 O 0.02321 0.95247 0.4081 0.0
H63 H 0.88753 0.98708 0.48927 0.0
H64 H 0.13846 0.03906 0.53529 0.0
H65 H 0.98354 0.88722 0.49 0.0
O66 O 0.07061 1.00121 0.61731 0.0
O67 O 0.01887 0.95176 0.60299 0.0
H68 H 0.03946 0.13586 0.52312 0.0
O69 O 0.95037 0.02195 0.59841 0.0
O70 O 1.00187 0.07165 0.6098 0.0
O71 O 0.95441 0.02233 0.40222 0.0
O72 O 1.00555 0.0724 0.41387 0.0
C73 C 0.96516 0.05772 0.63252 0.0
H74 H 0.19569 0.09574 0.55004 0.0
H75 H 0.09437 0.19431 0.53573 0.0
H76 H 0.82864 0.93262 0.48197 0.0
H77 H 0.9265 0.83044 0.48008 0.0
C78 C 0.46687 0.45949 0.90155 0.0
N79 N 0.59236 0.44412 0.02237 0.0
C80 C 0.58548 0.40028 0.02595 0.0
C81 C 0.62055 0.37091 0.0208 0.0
C82 C 0.66291 0.38686 0.01087 0.0
C83 C 0.6691 0.43222 0.00886 0.0
C84 C 0.63329 0.46035 0.01477 0.0
Zn85 Zn 0.54098 0.48761 0.02445 0.0
C86 C 0.54945 0.55573 0.88843 0.0
N87 N 0.4356 0.58038 0.02397 0.0
C88 C 0.39439 0.56451 0.02938 0.0
C89 C 0.44302 0.62418 0.02182 0.0
C90 C 0.40821 0.65386 0.02594 0.0
C91 C 0.36549 0.6383 0.03316 0.0
C92 C 0.35877 0.59297 0.03407 0.0
Zn93 Zn 0.4868 0.53674 0.02189 0.0
O94 O 0.5049 0.44807 0.92952 0.0
C95 C 0.4767 0.46896 0.15686 0.0
O96 O 0.45103 0.49552 0.92958 0.0
H97 H 0.47601 0.63615 0.01739 0.0
H98 H 0.5527 0.38802 0.03191 0.0
H99 H 0.38906 0.52962 0.03032 0.0
O100 O 0.51215 0.45379 0.12759 0.0
O101 O 0.4604 0.50354 0.12503 0.0
H102 H 0.63821 0.49527 0.01265 0.0
O103 O 0.52389 0.57705 0.11431 0.0
O104 O 0.57614 0.52787 0.11903 0.0
O105 O 0.51358 0.56915 0.91815 0.0
O106 O 0.56834 0.52258 0.92146 0.0
C107 C 0.56122 0.56474 0.14457 0.0
H108 H 0.61454 0.33611 0.02294 0.0
H109 H 0.70141 0.44585 0.00322 0.0
H110 H 0.41466 0.68861 0.02468 0.0
H111 H 0.32621 0.57959 0.03744 0.0
C112 C 0.24692 0.21689 0.4833 0.0
C113 C 0.24255 0.25562 0.53408 0.0
C114 C 0.21796 0.18191 0.4906 0.0
C115 C 0.18343 0.18473 0.54845 0.0
H116 H 0.27161 0.21435 0.43468 0.0
H117 H 0.22131 0.15339 0.44736 0.0
S118 S 0.16123 0.27807 0.70203 0.0
N119 N 0.20355 0.29414 0.64801 0.0
N120 N 0.14927 0.22827 0.66313 0.0
C121 C 0.18026 0.22269 0.60275 0.0
C122 C 0.20982 0.25822 0.59519 0.0
C123 C 0.28389 0.72762 0.97169 0.0
C124 C 0.25181 0.72313 0.03357 0.0
C125 C 0.32148 0.7011 0.97384 0.0
C126 C 0.32779 0.66895 0.03738 0.0
H127 H 0.27932 0.75084 0.9198 0.0
H128 H 0.3449 0.70462 0.92343 0.0
S129 S 0.25436 0.64712 0.21781 0.0
N130 N 0.2294 0.68634 0.16258 0.0
N131 N 0.29997 0.63653 0.16727 0.0
C132 C 0.29642 0.6654 0.10138 0.0
C133 C 0.25838 0.69252 0.09928 0.0
C134 C 0.80694 0.7818 0.55642 0.0
C135 C 0.76722 0.78529 0.50735 0.0
C136 C 0.84169 0.81026 0.54369 0.0
C137 C 0.83771 0.84339 0.48174 0.0
H138 H 0.81053 0.75824 0.60791 0.0
H139 H 0.87102 0.80769 0.58591 0.0
S140 S 0.74133 0.86261 0.33047 0.0
N141 N 0.72638 0.8218 0.39072 0.0
N142 N 0.79187 0.87508 0.36511 0.0
C143 C 0.79867 0.84558 0.4291 0.0
C144 C 0.76332 0.81654 0.44234 0.0
C145 C 0.7472 0.29894 0.06616 0.0
C146 C 0.77727 0.30328 0.00025 0.0
C147 C 0.70934 0.32506 0.06758 0.0
C148 C 0.70078 0.35662 0.00365 0.0
H149 H 0.75352 0.27608 0.11814 0.0
H150 H 0.68745 0.32165 0.12076 0.0
S151 S 0.76834 0.37781 0.8137 0.0
N152 N 0.7953 0.33928 0.86728 0.0
N153 N 0.7243 0.38836 0.86942 0.0
C154 C 0.73015 0.36004 0.93588 0.0
C155 C 0.76842 0.33334 0.93434 0.0
C156 C 0.09287 0.87529 0.22707 0.0
C157 C 0.12496 0.89499 0.17871 0.0
C158 C 0.07294 0.89834 0.29552 0.0
C159 C 0.08462 0.94185 0.31872 0.0
H160 H 0.08142 0.84263 0.20884 0.0
H161 H 0.04737 0.88221 0.32899 0.0
S162 S 0.17013 1.00654 0.21706 0.0
N163 N 0.16976 0.95915 0.16189 0.0
N164 N 0.13286 1.00253 0.29129 0.0
C165 C 0.11843 0.96106 0.27376 0.0
C166 C 0.1384 0.93765 0.20351 0.0
C167 C 0.63447 0.60031 0.74211 0.0
C168 C 0.6089 0.62333 0.68012 0.0
C169 C 0.61491 0.57797 0.80887 0.0
C170 C 0.56926 0.57877 0.81659 0.0
H171 H 0.66971 0.59916 0.73822 0.0
H172 H 0.63572 0.56044 0.85535 0.0
S173 S 0.48834 0.63478 0.6696 0.0
N174 N 0.53612 0.64556 0.62931 0.0
N175 N 0.49916 0.60449 0.75578 0.0
C176 C 0.54348 0.60208 0.75504 0.0
C177 C 0.56338 0.62412 0.68642 0.0
C178 C 0.94108 0.14846 0.21945 0.0
C179 C 0.90734 0.1298 0.16489 0.0
C180 C 0.96061 0.12531 0.28893 0.0
C181 C 0.94689 0.08275 0.30682 0.0
H182 H 0.95371 0.18047 0.20609 0.0
H183 H 0.98718 0.14068 0.32789 0.0
S184 S 0.85706 0.02098 0.18659 0.0
N185 N 0.8592 0.06767 0.13568 0.0
N186 N 0.89543 0.02402 0.26648 0.0
C187 C 0.91186 0.06449 0.2546 0.0
C188 C 0.89225 0.08802 0.18356 0.0
C189 C 0.445 0.37924 0.70927 0.0
C190 C 0.40144 0.38841 0.68248 0.0
C191 C 0.46515 0.40064 0.78321 0.0
C192 C 0.4427 0.4326 0.83236 0.0
H193 H 0.46429 0.3569 0.67014 0.0
H194 H 0.4993 0.39368 0.79898 0.0
S195 S 0.32656 0.4653 0.794 0.0
N196 N 0.33537 0.4289 0.71426 0.0
N197 N 0.37304 0.46929 0.85328 0.0
C198 C 0.39825 0.44013 0.80918 0.0
C199 C 0.37766 0.41796 0.73429 0.0
C200 C 0.64186 0.59456 0.33382 0.0
C201 C 0.6276 0.63615 0.36194 0.0
C202 C 0.62174 0.57278 0.26035 0.0
C203 C 0.58598 0.59147 0.21326 0.0
H204 H 0.66714 0.57774 0.37192 0.0
H205 H 0.63284 0.54005 0.24349 0.0
S206 S 0.53908 0.7018 0.25673 0.0
N207 N 0.57816 0.69675 0.33435 0.0
N208 N 0.53988 0.65603 0.19619 0.0
C209 C 0.57315 0.63427 0.23796 0.0
C210 C 0.59407 0.65655 0.31238 0.0
C211 C 0.93367 0.14947 0.79132 0.0
C212 C 0.90146 0.13023 0.84006 0.0
C213 C 0.9531 0.12613 0.72267 0.0
C214 C 0.94082 0.08276 0.69964 0.0
H215 H 0.94563 0.18197 0.80941 0.0
H216 H 0.97881 0.14192 0.68897 0.0
S217 S 0.8546 0.01933 0.80191 0.0
N218 N 0.85573 0.06672 0.85709 0.0
N219 N 0.89181 0.02278 0.7274 0.0
C220 C 0.90685 0.06403 0.74486 0.0
C221 C 0.88734 0.08776 0.81528 0.0
C222 C 0.45457 0.39428 0.34455 0.0
C223 C 0.41086 0.40408 0.36206 0.0
C224 C 0.47559 0.4149 0.27725 0.0
C225 C 0.45381 0.44661 0.2263 0.0
H226 H 0.47256 0.37045 0.38311 0.0
H227 H 0.50929 0.4064 0.26603 0.0
S228 S 0.33908 0.48434 0.24827 0.0
N229 N 0.34663 0.44764 0.32455 0.0
N230 N 0.3857 0.48653 0.19853 0.0
C231 C 0.40998 0.45662 0.24363 0.0
C232 C 0.38861 0.43533 0.31138 0.0
C233 C 0.1297 0.93638 0.8357 0.0
C234 C 0.11656 0.89377 0.85386 0.0
C235 C 0.11035 0.95882 0.765 0.0
C236 C 0.07667 0.93969 0.71057 0.0
H237 H 0.1546 0.95277 0.87752 0.0
H238 H 0.12109 0.99185 0.75456 0.0
S239 S 0.03123 0.82813 0.72964 0.0
N240 N 0.06855 0.8329 0.81121 0.0
N241 N 0.03224 0.87471 0.67816 0.0
C242 C 0.064 0.89659 0.72695 0.0
C243 C 0.08394 0.87371 0.79856 0.0
loop_
_geom_bond_atom_site_label_1
_geom_bond_atom_site_label_2
_geom_bond_distance
_geom_bond_site_symmetry_2
_ccdc_geom_bond_type
H0 C3 0.929 . S
H1 C6 0.929 . S
H2 C8 0.930 . S
C3 H0 0.929 . S
C3 C4 1.398 1_554 S
C3 C5 1.396 . S
C4 C3 1.398 1_556 S
C4 C8 1.407 . S
C5 C3 1.396 . S
C5 C6 1.394 . S
C6 H1 0.929 . S
C6 C5 1.394 . S
C6 C7 1.382 . S
C7 C6 1.382 . S
C7 C8 1.392 1_554 S
C7 N9 1.420 1_554 S
C8 H2 0.930 . S
C8 C4 1.407 . S
C8 C7 1.392 1_556 S
N9 C7 1.420 1_556 S
N9 C10 1.244 1_556 S
C10 N9 1.244 1_554 S
H11 C14 0.929 . S
H12 C17 0.929 . S
H13 C19 0.930 . S
C14 H11 0.929 . S
C14 C15 1.398 . S
C14 C16 1.396 . S
C15 C14 1.398 . S
C15 C19 1.407 . S
C16 C14 1.396 . S
C16 C17 1.394 . S
C17 H12 0.929 . S
C17 C16 1.394 . S
C17 C18 1.382 . S
C18 C17 1.382 . S
C18 C19 1.392 . S
C18 N20 1.420 . S
C19 H13 0.930 . S
C19 C15 1.407 . S
C19 C18 1.392 . S
N20 C18 1.420 . S
N20 C21 1.244 . S
C21 N20 1.244 . S
H22 C25 0.929 . S
H23 C28 0.929 . S
H24 C30 0.930 . S
C25 H22 0.929 . S
C25 C26 1.398 1_554 S
C25 C27 1.396 . S
C26 C25 1.398 1_556 S
C26 C30 1.407 . S
C27 C25 1.396 . S
C27 C28 1.394 . S
C28 H23 0.929 . S
C28 C27 1.394 . S
C28 C29 1.382 1_554 S
C29 C28 1.382 1_556 S
C29 C30 1.392 . S
C29 N31 1.420 . S
C30 H24 0.930 . S
C30 C26 1.407 . S
C30 C29 1.392 . S
N31 C29 1.420 . S
N31 C32 1.244 1_556 S
C32 N31 1.244 1_554 S
H33 C36 0.929 . S
H34 C39 0.929 . S
H35 C41 0.930 . S
C36 H33 0.929 . S
C36 C37 1.398 . S
C36 C38 1.396 . S
C37 C36 1.398 . S
C37 C41 1.407 . S
C38 C36 1.396 . S
C38 C39 1.394 . S
C39 H34 0.929 . S
C39 C38 1.394 . S
C39 C40 1.382 . S
C40 C39 1.382 . S
C40 C41 1.392 . S
C40 N42 1.420 . S
C41 H35 0.930 . S
C41 C37 1.407 . S
C41 C40 1.392 . S
N42 C40 1.420 . S
N42 C43 1.244 . S
C43 N42 1.244 . S
C44 O60 1.251 1_565 S
C44 O62 1.254 . S
N45 C46 1.333 . S
N45 C50 1.307 . S
N45 Zn51 2.020 . S
C46 N45 1.333 . S
C46 C47 1.379 . S
C46 H64 0.952 . S
C47 C46 1.379 . S
C47 C48 1.390 . S
C47 H74 0.949 . S
C48 C47 1.390 . S
C48 C49 1.357 . S
C49 C48 1.357 . S
C49 C50 1.370 . S
C49 H75 0.950 . S
C50 N45 1.307 . S
C50 C49 1.370 . S
C50 H68 0.948 . S
Zn51 N45 2.020 . S
Zn51 O60 2.039 . S
Zn51 O66 2.034 . S
Zn51 O70 2.025 1_455 S
Zn51 O72 2.024 1_455 S
C52 O71 1.246 . S
C52 O72 1.249 . S
N53 C54 1.307 . S
N53 C55 1.333 . S
N53 Zn59 2.020 . S
C54 N53 1.307 . S
C54 C58 1.370 . S
C54 H65 0.948 . S
C55 N53 1.333 . S
C55 C56 1.379 . S
C55 H63 0.952 . S
C56 C55 1.379 . S
C56 C57 1.390 . S
C56 H76 0.949 . S
C57 C56 1.390 . S
C57 C58 1.357 . S
C58 C54 1.370 . S
C58 C57 1.357 . S
C58 H77 0.950 . S
Zn59 N53 2.020 . S
Zn59 O62 2.025 1_655 S
Zn59 O67 2.024 1_655 S
Zn59 O69 2.039 1_565 S
Zn59 O71 2.034 1_565 S
O60 C44 1.251 1_545 S
O60 Zn51 2.039 . S
C61 O66 1.246 1_565 S
C61 O67 1.249 . S
O62 C44 1.254 . S
O62 Zn59 2.025 1_455 S
H63 C55 0.952 . S
H64 C46 0.952 . S
H65 C54 0.948 . S
O66 Zn51 2.034 . S
O66 C61 1.246 1_545 S
O67 Zn59 2.024 1_455 S
O67 C61 1.249 . S
H68 C50 0.948 . S
O69 Zn59 2.039 1_545 S
O69 C73 1.251 . S
O70 Zn51 2.025 1_655 S
O70 C73 1.254 . S
O71 C52 1.246 . S
O71 Zn59 2.034 1_545 S
O72 Zn51 2.024 1_655 S
O72 C52 1.249 . S
C73 O69 1.251 . S
C73 O70 1.254 . S
H74 C47 0.949 . S
H75 C49 0.950 . S
H76 C56 0.949 . S
H77 C58 0.950 . S
C78 O94 1.251 . S
C78 O96 1.254 . S
N79 C80 1.333 . S
N79 C84 1.307 . S
N79 Zn85 2.020 . S
C80 N79 1.333 . S
C80 C81 1.379 . S
C80 H98 0.952 1_554 S
C81 C80 1.379 . S
C81 C82 1.390 . S
C81 H108 0.949 1_554 S
C82 C81 1.390 . S
C82 C83 1.357 . S
C83 C82 1.357 . S
C83 C84 1.370 . S
C83 H109 0.950 . S
C84 N79 1.307 . S
C84 C83 1.370 . S
C84 H102 0.948 . S
Zn85 N79 2.020 . S
Zn85 O94 2.039 1_554 S
Zn85 O100 2.034 . S
Zn85 O104 2.025 . S
Zn85 O106 2.024 1_554 S
C86 O105 1.246 . S
C86 O106 1.249 . S
N87 C88 1.307 . S
N87 C89 1.333 . S
N87 Zn93 2.020 . S
C88 N87 1.307 . S
C88 C92 1.370 . S
C88 H99 0.948 1_554 S
C89 N87 1.333 . S
C89 C90 1.379 . S
C89 H97 0.952 . S
C90 C89 1.379 . S
C90 C91 1.390 . S
C90 H110 0.949 . S
C91 C90 1.390 . S
C91 C92 1.357 . S
C92 C88 1.370 . S
C92 C91 1.357 . S
C92 H111 0.950 1_554 S
Zn93 N87 2.020 . S
Zn93 O96 2.025 1_554 S
Zn93 O101 2.024 . S
Zn93 O103 2.039 . S
Zn93 O105 2.034 1_554 S
O94 C78 1.251 . S
O94 Zn85 2.039 1_556 S
C95 O100 1.246 . S
C95 O101 1.249 . S
O96 C78 1.254 . S
O96 Zn93 2.025 1_556 S
H97 C89 0.952 . S
H98 C80 0.952 1_556 S
H99 C88 0.948 1_556 S
O100 Zn85 2.034 . S
O100 C95 1.246 . S
O101 Zn93 2.024 . S
O101 C95 1.249 . S
H102 C84 0.948 . S
O103 Zn93 2.039 . S
O103 C107 1.251 . S
O104 Zn85 2.025 . S
O104 C107 1.254 . S
O105 C86 1.246 . S
O105 Zn93 2.034 1_556 S
O106 Zn85 2.024 1_556 S
O106 C86 1.249 . S
C107 O103 1.251 . S
C107 O104 1.254 . S
H108 C81 0.949 1_556 S
H109 C83 0.950 . S
H110 C90 0.949 . S
H111 C92 0.950 1_556 S
C112 C113 1.369 . S
C112 C114 1.419 . S
C112 H116 0.930 . S
C113 C112 1.369 . S
C113 C122 1.429 . S
C114 C112 1.419 . S
C114 C115 1.363 . S
C114 H117 0.929 . S
C115 C114 1.363 . S
C115 C121 1.428 . S
H116 C112 0.930 . S
H117 C114 0.929 . S
S118 N119 1.613 . S
S118 N120 1.610 . S
N119 S118 1.613 . S
N119 C122 1.350 . S
N120 S118 1.610 . S
N120 C121 1.351 . S
C121 C115 1.428 . S
C121 N120 1.351 . S
C121 C122 1.434 . S
C122 C113 1.429 . S
C122 N119 1.350 . S
C122 C121 1.434 . S
C123 C124 1.369 . S
C123 C125 1.419 . S
C123 H127 0.930 . S
C124 C123 1.369 . S
C124 C133 1.429 . S
C125 C123 1.419 . S
C125 C126 1.363 . S
C125 H128 0.929 . S
C126 C125 1.363 . S
C126 C132 1.428 . S
H127 C123 0.930 . S
H128 C125 0.929 . S
S129 N130 1.613 . S
S129 N131 1.610 . S
N130 S129 1.613 . S
N130 C133 1.350 . S
N131 S129 1.610 . S
N131 C132 1.351 . S
C132 C126 1.428 . S
C132 N131 1.351 . S
C132 C133 1.434 . S
C133 C124 1.429 . S
C133 N130 1.350 . S
C133 C132 1.434 . S
C134 C135 1.369 . S
C134 C136 1.419 . S
C134 H138 0.930 . S
C135 C134 1.369 . S
C135 C144 1.429 . S
C136 C134 1.419 . S
C136 C137 1.363 . S
C136 H139 0.929 . S
C137 C136 1.363 . S
C137 C143 1.428 . S
H138 C134 0.930 . S
H139 C136 0.929 . S
S140 N141 1.613 . S
S140 N142 1.610 . S
N141 S140 1.613 . S
N141 C144 1.350 . S
N142 S140 1.610 . S
N142 C143 1.351 . S
C143 C137 1.428 . S
C143 N142 1.351 . S
C143 C144 1.434 . S
C144 C135 1.429 . S
C144 N141 1.350 . S
C144 C143 1.434 . S
C145 C146 1.369 . S
C145 C147 1.419 . S
C145 H149 0.930 . S
C146 C145 1.369 . S
C146 C155 1.429 1_554 S
C147 C145 1.419 . S
C147 C148 1.363 . S
C147 H150 0.929 . S
C148 C147 1.363 . S
C148 C154 1.428 1_554 S
H149 C145 0.930 . S
H150 C147 0.929 . S
S151 N152 1.613 . S
S151 N153 1.610 . S
N152 S151 1.613 . S
N152 C155 1.350 . S
N153 S151 1.610 . S
N153 C154 1.351 . S
C154 C148 1.428 1_556 S
C154 N153 1.351 . S
C154 C155 1.434 . S
C155 C146 1.429 1_556 S
C155 N152 1.350 . S
C155 C154 1.434 . S
C156 C157 1.369 . S
C156 C158 1.419 . S
C156 H160 0.930 . S
C157 C156 1.369 . S
C157 C166 1.429 . S
C158 C156 1.419 . S
C158 C159 1.363 . S
C158 H161 0.929 . S
C159 C158 1.363 . S
C159 C165 1.428 . S
H160 C156 0.930 . S
H161 C158 0.929 . S
S162 N163 1.613 . S
S162 N164 1.610 . S
N163 S162 1.613 . S
N163 C166 1.350 . S
N164 S162 1.610 . S
N164 C165 1.351 . S
C165 C159 1.428 . S
C165 N164 1.351 . S
C165 C166 1.434 . S
C166 C157 1.429 . S
C166 N163 1.350 . S
C166 C165 1.434 . S
C167 C168 1.369 . S
C167 C169 1.419 . S
C167 H171 0.930 . S
C168 C167 1.369 . S
C168 C177 1.429 . S
C169 C167 1.419 . S
C169 C170 1.363 . S
C169 H172 0.929 . S
C170 C169 1.363 . S
C170 C176 1.428 . S
H171 C167 0.930 . S
H172 C169 0.929 . S
S173 N174 1.613 . S
S173 N175 1.610 . S
N174 S173 1.613 . S
N174 C177 1.350 . S
N175 S173 1.610 . S
N175 C176 1.351 . S
C176 C170 1.428 . S
C176 N175 1.351 . S
C176 C177 1.434 . S
C177 C168 1.429 . S
C177 N174 1.350 . S
C177 C176 1.434 . S
C178 C179 1.369 . S
C178 C180 1.419 . S
C178 H182 0.930 . S
C179 C178 1.369 . S
C179 C188 1.429 . S
C180 C178 1.419 . S
C180 C181 1.363 . S
C180 H183 0.929 . S
C181 C180 1.363 . S
C181 C187 1.428 . S
H182 C178 0.930 . S
H183 C180 0.929 . S
S184 N185 1.613 . S
S184 N186 1.610 . S
N185 S184 1.613 . S
N185 C188 1.350 . S
N186 S184 1.610 . S
N186 C187 1.351 . S
C187 C181 1.428 . S
C187 N186 1.351 . S
C187 C188 1.434 . S
C188 C179 1.429 . S
C188 N185 1.350 . S
C188 C187 1.434 . S
C189 C190 1.369 . S
C189 C191 1.419 . S
C189 H193 0.930 . S
C190 C189 1.369 . S
C190 C199 1.429 . S
C191 C189 1.419 . S
C191 C192 1.363 . S
C191 H194 0.929 . S
C192 C191 1.363 . S
C192 C198 1.428 . S
H193 C189 0.930 . S
H194 C191 0.929 . S
S195 N196 1.613 . S
S195 N197 1.610 . S
N196 S195 1.613 . S
N196 C199 1.350 . S
N197 S195 1.610 . S
N197 C198 1.351 . S
C198 C192 1.428 . S
C198 N197 1.351 . S
C198 C199 1.434 . S
C199 C190 1.429 . S
C199 N196 1.350 . S
C199 C198 1.434 . S
C200 C201 1.369 . S
C200 C202 1.419 . S
C200 H204 0.930 . S
C201 C200 1.369 . S
C201 C210 1.429 . S
C202 C200 1.419 . S
C202 C203 1.363 . S
C202 H205 0.929 . S
C203 C202 1.363 . S
C203 C209 1.428 . S
H204 C200 0.930 . S
H205 C202 0.929 . S
S206 N207 1.613 . S
S206 N208 1.610 . S
N207 S206 1.613 . S
N207 C210 1.350 . S
N208 S206 1.610 . S
N208 C209 1.351 . S
C209 C203 1.428 . S
C209 N208 1.351 . S
C209 C210 1.434 . S
C210 C201 1.429 . S
C210 N207 1.350 . S
C210 C209 1.434 . S
C211 C212 1.369 . S
C211 C213 1.419 . S
C211 H215 0.930 . S
C212 C211 1.369 . S
C212 C221 1.429 . S
C213 C211 1.419 . S
C213 C214 1.363 . S
C213 H216 0.929 . S
C214 C213 1.363 . S
C214 C220 1.428 . S
H215 C211 0.930 . S
H216 C213 0.929 . S
S217 N218 1.613 1_565 S
S217 N219 1.613 . S
N218 S217 1.613 1_545 S
N218 C221 1.350 . S
N219 S217 1.613 . S
N219 C220 1.341 1_565 S
C220 C214 1.428 . S
C220 N219 1.341 1_545 S
C220 C221 1.434 . S
C221 C212 1.429 . S
C221 N218 1.350 . S
C221 C220 1.434 . S
C222 C223 1.369 . S
C222 C224 1.419 . S
C222 H226 0.930 . S
C223 C222 1.369 . S
C223 C232 1.429 . S
C224 C222 1.419 . S
C224 C225 1.363 . S
C224 H227 0.929 . S
C225 C224 1.363 . S
C225 C231 1.428 . S
H226 C222 0.930 . S
H227 C224 0.929 . S
S228 N229 1.613 . S
S228 N230 1.610 . S
N229 S228 1.613 . S
N229 C232 1.350 . S
N230 S228 1.610 . S
N230 C231 1.351 . S
C231 C225 1.428 . S
C231 N230 1.351 . S
C231 C232 1.434 . S
C232 C223 1.429 . S
C232 N229 1.350 . S
C232 C231 1.434 . S
C233 C234 1.369 . S
C233 C235 1.419 . S
C233 H237 0.930 . S
C234 C233 1.369 . S
C234 C243 1.429 . S
C235 C233 1.419 . S
C235 C236 1.363 . S
C235 H238 0.929 . S
C236 C235 1.363 . S
C236 C242 1.428 . S
H237 C233 0.930 . S
H238 C235 0.929 . S
S239 N240 1.613 1_655 S
S239 N241 1.610 1_655 S
N240 S239 1.613 1_455 S
N240 C243 1.350 . S
N241 S239 1.610 1_455 S
N241 C242 1.351 . S
C242 C236 1.428 . S
C242 N241 1.351 . S
C242 C243 1.434 . S
C243 C234 1.429 . S
C243 N240 1.350 . S
C243 C242 1.434 . S
C115 C48 1.504 . S
C113 C43 1.507 . S
C124 C10 1.507 . S
C126 C91 1.507 . S
C135 C21 1.501 . S
C137 C57 1.508 . S
C146 C32 1.506 . S
C148 C82 1.505 . S
C159 C44 1.555 . S
C157 C5 1.532 . S
C170 C86 1.536 . S
C168 C15 1.532 . S
C179 C27 1.534 . S
C181 C52 1.549 . S
C190 C38 1.512 . S
C192 C78 1.537 . S
C203 C107 1.478 . S
C201 C16 1.456 . S
C214 C73 1.464 . S
C212 C26 1.458 . S
C225 C95 1.476 . S
C223 C37 1.475 . S
C234 C4 1.459 . S
C236 C61 1.462 . S
