# Generated by pormake.
# Topology tsx, (6,3)-cn, num edge types: 1
# Building blocks:
#     Node 0, Type 0, BuildingBlock: CIFDUS_clean_sbu_1, # of connection points: 6
#     Node 1, Type 0, BuildingBlock: CIFDUS_clean_sbu_1, # of connection points: 6
#     Node 2, Type 1, BuildingBlock: ESEHIV_clean_linker_0, # of connection points: 3
#     Node 3, Type 1, BuildingBlock: ESEHIV_clean_linker_0, # of connection points: 3
#     Node 4, Type 1, BuildingBlock: ESEHIV_clean_linker_0, # of connection points: 3
#     Node 5, Type 1, BuildingBlock: ESEHIV_clean_linker_0, # of connection points: 3
#     Edge 6, Type (0, 1), BuildingBlock: OJICUG_clean_linker_0, # of connection points: 2
#     Edge 7, Type (0, 1), BuildingBlock: OJICUG_clean_linker_0, # of connection points: 2
#     Edge 8, Type (0, 1), BuildingBlock: OJICUG_clean_linker_0, # of connection points: 2
#     Edge 9, Type (0, 1), BuildingBlock: OJICUG_clean_linker_0, # of connection points: 2
#     Edge 10, Type (0, 1), BuildingBlock: OJICUG_clean_linker_0, # of connection points: 2
#     Edge 11, Type (0, 1), BuildingBlock: OJICUG_clean_linker_0, # of connection points: 2
#     Edge 12, Type (0, 1), BuildingBlock: OJICUG_clean_linker_0, # of connection points: 2
#     Edge 13, Type (0, 1), BuildingBlock: OJICUG_clean_linker_0, # of connection points: 2
#     Edge 14, Type (0, 1), BuildingBlock: OJICUG_clean_linker_0, # of connection points: 2
#     Edge 15, Type (0, 1), BuildingBlock: OJICUG_clean_linker_0, # of connection points: 2
#     Edge 16, Type (0, 1), BuildingBlock: OJICUG_clean_linker_0, # of connection points: 2
#     Edge 17, Type (0, 1), BuildingBlock: OJICUG_clean_linker_0, # of connection points: 2
# Relax obj value: 0.128
# Max RMSD: 0.155
# Mean RMSD: 0.117
data_MOF--net-tsx--node1-CIFDUS_clean_sbu_1--node2-ESEHIV_clean_linker_0--edge1-OJICUG_clean_linker_0
_symmetry_space_group_name_H-M    P1
_symmetry_Int_Tables_number       1
_symmetry_cell_setting            triclinic
loop_
_symmetry_equiv_pos_as_xyz
'x, y, z'
_cell_length_a     10.883316
_cell_length_b     14.543944
_cell_length_c     26.794026
_cell_angle_alpha  96.166123
_cell_angle_beta   97.021133
_cell_angle_gamma 93.965138
loop_
_atom_site_label
_atom_site_type_symbol
_atom_site_fract_x
_atom_site_fract_y
_atom_site_fract_z
_atom_type_partial_charge
O0 O 0.99089 0.1054 0.96098 0.0
Mn1 Mn 0.10347 0.9942 -0.03143 0.0
O2 O 0.83272 0.04318 0.90053 0.0
Mn3 Mn 0.87709 0.92287 0.88629 0.0
O4 O 0.20561 0.8763 -0.0332 0.0
O5 O 0.25453 0.08334 -0.00299 0.0
Mn6 Mn 0.3397 0.01819 0.04044 0.0
O7 O 0.06177 0.98453 0.04257 0.0
O8 O 0.39595 0.91698 0.00637 0.0
O9 O 0.14343 0.0062 0.89465 0.0
O10 O 0.99701 0.91224 0.8431 0.0
O11 O 0.43348 0.12654 0.04539 0.0
O12 O 0.2462 0.99666 0.09171 0.0
C13 C 0.8808 0.83897 0.94831 0.0
C14 C 0.889 0.11122 0.93119 0.0
C15 C 0.31938 0.8597 -0.02255 0.0
C16 C 0.3454 0.14698 0.01232 0.0
C17 C 0.12825 0.98544 0.08578 0.0
C18 C 0.09906 0.9635 0.85086 0.0
O19 O 0.95819 0.90641 0.94389 0.0
O20 O 0.79566 0.82121 0.9098 0.0
O21 O 0.48379 0.68446 0.47941 0.0
Mn22 Mn 0.58285 0.56611 0.47315 0.0
O23 O 0.28398 0.63791 0.44974 0.0
Mn24 Mn 0.31277 0.52098 0.42189 0.0
O25 O 0.68287 0.44726 0.46163 0.0
O26 O 0.73775 0.65158 0.4831 0.0
Mn27 Mn 0.86177 0.60251 0.51573 0.0
O28 O 0.60109 0.55896 0.551 0.0
O29 O 0.88503 0.49868 0.47406 0.0
O30 O 0.56998 0.57442 0.39536 0.0
O31 O 0.37626 0.52008 0.36115 0.0
O32 O 0.91982 0.72132 0.50681 0.0
O33 O 0.80757 0.58024 0.577 0.0
C34 C 0.34178 0.41599 0.47032 0.0
C35 C 0.36961 0.70085 0.46822 0.0
C36 C 0.79831 0.43506 0.45884 0.0
C37 C 0.80619 0.72863 0.4879 0.0
C38 C 0.69544 0.56399 0.58558 0.0
C39 C 0.48584 0.55265 0.35711 0.0
O40 O 0.42543 0.48089 0.46525 0.0
O41 O 0.23718 0.41678 0.44169 0.0
H42 H 0.91471 0.12262 0.29386 0.0
H43 H 0.18002 0.916 0.30639 0.0
H44 H 0.09202 0.07305 0.43961 0.0
C45 C 0.97748 0.0843 0.3166 0.0
C46 C 0.9943 0.10581 0.36952 0.0
C47 C 1.0457 0.01708 0.29287 0.0
C48 C 0.12687 0.96813 0.32358 0.0
C49 C 0.14096 0.98653 0.37669 0.0
C50 C 0.07659 0.05654 0.39892 0.0
H51 H 0.95641 0.97389 0.64206 0.0
H52 H 0.27781 0.16767 0.65885 0.0
H53 H 1.02372 0.13598 0.52109 0.0
C54 C 1.00986 0.02684 0.62659 0.0
C55 C 0.97244 0.04914 0.57739 0.0
C56 C 0.11893 0.06903 0.65618 0.0
C57 C 0.19268 0.13569 0.63662 0.0
C58 C 0.15966 0.15778 0.58736 0.0
C59 C 1.04881 0.1161 0.55847 0.0
H60 H 0.50873 0.62545 0.80036 0.0
H61 H 0.746 0.39993 0.79713 0.0
H62 H 0.59108 0.48579 0.93225 0.0
C63 C 0.55334 0.57131 0.81872 0.0
C64 C 0.54218 0.5634 0.86973 0.0
C65 C 0.62763 0.51322 0.79223 0.0
C66 C 0.69033 0.44639 0.81736 0.0
C67 C 0.67785 0.43678 0.86802 0.0
C68 C 0.60289 0.49472 0.89371 0.0
H69 H 0.42822 0.47421 0.13289 0.0
H70 H 0.72472 0.69257 0.16087 0.0
H71 H 0.61838 0.55032 0.01122 0.0
C72 C 0.49577 0.51943 0.11861 0.0
C73 C 0.51191 0.50559 0.06743 0.0
C74 C 0.57206 0.58622 0.15258 0.0
C75 C 0.66576 0.64069 0.13496 0.0
C76 C 0.68313 0.62747 0.08369 0.0
C77 C 0.60555 0.56025 0.05054 0.0
C78 C 0.27362 0.30365 0.02205 0.0
C79 C 0.34948 0.24199 -0.00067 0.0
H80 H 0.26593 0.43912 0.06141 0.0
C81 C 0.46297 0.27656 -0.01363 0.0
H82 H 0.18601 0.27808 0.03293 0.0
C83 C 0.51091 0.36691 0.004 0.0
C84 C 0.44417 0.42492 0.03409 0.0
H85 H 0.52366 0.22907 -0.02967 0.0
H86 H 0.60645 0.38636 -0.00045 0.0
C87 C 0.32087 0.39511 0.0394 0.0
C88 C 0.30103 0.72434 0.90906 0.0
C89 C 0.36671 0.77534 0.95304 0.0
H90 H 0.3056 0.61673 0.8477 0.0
C91 C 0.48606 0.75157 -0.02946 0.0
H92 H 0.20938 0.74155 0.89429 0.0
C93 C 0.54052 0.68139 0.9438 0.0
C94 C 0.47711 0.63221 0.89928 0.0
H95 H 0.53952 0.78949 0.00407 0.0
H96 H 0.63471 0.668 0.95672 0.0
C97 C 0.35623 0.65358 0.8822 0.0
C98 C 0.82283 0.83635 0.03444 0.0
C99 C 0.87624 0.79297 -0.006 0.0
H100 H 0.72008 0.81643 0.09626 0.0
C101 C 0.89351 0.69827 -0.00825 0.0
H102 H 0.80756 0.90941 0.03626 0.0
C103 C 0.84497 0.6453 0.02628 0.0
C104 C 0.7755 0.68626 0.06243 0.0
H105 H 0.93383 0.66372 0.96054 0.0
H106 H 0.84974 0.57076 0.02114 0.0
C107 C 0.77296 0.78318 0.06877 0.0
C108 C 0.707 0.20015 0.90996 0.0
C109 C 0.83481 0.20132 0.92695 0.0
H110 H 0.55859 0.27384 0.87806 0.0
C111 C 0.90987 0.28476 0.92906 0.0
H112 H 0.6465 0.13703 0.90768 0.0
C113 C 0.85867 0.36343 0.91145 0.0
C114 C 0.73199 0.35952 0.89216 0.0
H115 H 1.00893 0.2874 0.94099 0.0
H116 H 0.91849 0.42603 0.91116 0.0
C117 C 0.6564 0.27817 0.89275 0.0
C118 C 0.81779 0.88678 0.46579 0.0
C119 C 0.76038 0.8213 0.49201 0.0
H120 H 0.92638 0.01529 0.47203 0.0
C121 C 0.72495 0.85213 0.53917 0.0
H122 H 0.84193 0.86621 0.42837 0.0
C123 C 0.77862 0.93674 0.56541 0.0
C124 C 0.86683 0.99106 0.54417 0.0
H125 H 0.67599 0.80417 0.55969 0.0
H126 H 0.76224 0.95324 0.60427 0.0
C127 C 0.86992 0.97192 0.49173 0.0
C128 C 0.95884 0.32289 0.45543 0.0
C129 C 0.83764 0.34427 0.43912 0.0
H130 H 0.10283 0.23446 0.44501 0.0
C131 C 0.76321 0.28294 0.40146 0.0
H132 H 1.01853 0.36788 0.48479 0.0
C133 C 0.81222 0.20391 0.37903 0.0
C134 C 0.93577 0.18517 0.39427 0.0
H135 H 0.66949 0.29782 0.38812 0.0
H136 H 0.75424 0.15827 0.34948 0.0
C137 C 1.00722 0.24535 0.43303 0.0
C138 C 0.31525 0.38086 0.55632 0.0
C139 C 0.35076 0.35167 0.50888 0.0
H140 H 0.22568 0.34115 0.61882 0.0
C141 C 0.34428 0.25638 0.49239 0.0
H142 H 0.31565 0.45418 0.56897 0.0
C143 C 0.2902 0.19209 0.52017 0.0
C144 C 0.2421 0.22237 0.56481 0.0
H145 H 0.36798 0.23248 0.45532 0.0
H146 H 0.27757 0.11952 0.50487 0.0
C147 C 0.26167 0.31645 0.58432 0.0
C148 C 0.39731 0.84198 0.42593 0.0
C149 C 0.33874 0.79582 0.46131 0.0
H150 H 0.379 0.9375 0.37008 0.0
C151 C 0.22526 0.82414 0.47431 0.0
H152 H 0.48382 0.81997 0.41445 0.0
C153 C 0.16574 0.89087 0.44893 0.0
C154 C 0.21703 0.92958 0.40947 0.0
H155 H 0.17711 0.7884 0.50065 0.0
H156 H 0.0747 0.90617 0.45734 0.0
C157 C 0.33614 0.90762 0.3997 0.0
C158 C 0.07303 0.90767 0.15919 0.0
C159 C 0.06994 0.98536 0.13242 0.0
H160 H 0.06229 0.8553 0.23035 0.0
C161 C 1.04344 0.07041 0.15679 0.0
H162 H 0.09553 0.8417 0.14123 0.0
C163 C 1.02912 0.07949 0.2082 0.0
C164 C 1.03991 0.00326 0.23636 0.0
H165 H 1.04422 0.13181 0.13717 0.0
H166 H 1.01848 0.14805 0.22641 0.0
C167 C 0.05646 0.91618 0.2105 0.0
C168 C 0.1766 0.08159 0.79883 0.0
C169 C 0.15042 0.98784 0.80516 0.0
H170 H 0.1862 0.1815 0.74564 0.0
C171 C 0.14122 0.92044 0.76299 0.0
H172 H 0.18296 0.13496 0.83074 0.0
C173 C 0.14351 0.94691 0.71461 0.0
C174 C 0.15337 0.04133 0.70746 0.0
H175 H 0.12159 0.8477 0.76696 0.0
H176 H 0.12784 0.89372 0.68241 0.0
C177 C 0.17767 0.10828 0.75011 0.0
C178 C 0.77781 0.53722 0.67367 0.0
C179 C 0.67575 0.54966 0.63807 0.0
H180 H 0.84251 0.51653 0.74992 0.0
C181 C 0.55678 0.5488 0.65347 0.0
H182 H 0.87089 0.5372 0.66326 0.0
C183 C 0.54069 0.5366 0.70347 0.0
C184 C 0.64312 0.52442 0.73891 0.0
H185 H 0.47639 0.55861 0.62713 0.0
H186 H 0.44803 0.53615 0.71435 0.0
C187 C 0.76162 0.52459 0.72337 0.0
C188 C 0.63452 0.57766 0.29398 0.0
C189 C 0.51254 0.57071 0.30625 0.0
H190 H 0.74959 0.58845 0.23484 0.0
C191 C 0.41329 0.58113 0.26908 0.0
H192 H 0.71278 0.57096 0.32211 0.0
C193 C 0.43442 0.5929 0.21999 0.0
C194 C 0.55509 0.59349 0.20668 0.0
H195 H 0.31845 0.57879 0.27764 0.0
H196 H 0.35554 0.59805 0.19183 0.0
C197 C 0.65566 0.58861 0.24432 0.0
loop_
_geom_bond_atom_site_label_1
_geom_bond_atom_site_label_2
_geom_bond_distance
_geom_bond_site_symmetry_2
_ccdc_geom_bond_type
O0 Mn1 2.163 1_654 S
O0 C14 1.244 1_554 S
Mn1 O0 2.163 1_456 S
Mn1 O4 2.160 1_545 S
Mn1 O5 2.221 1_556 S
Mn1 O7 2.154 1_556 S
Mn1 O9 2.169 . S
Mn1 O19 2.222 1_445 S
O2 Mn3 2.087 1_545 S
O2 C14 1.256 . S
Mn3 O2 2.087 1_565 S
Mn3 O10 2.089 1_565 S
Mn3 O19 2.290 . S
Mn3 O20 2.251 . S
O4 Mn1 2.160 1_565 S
O4 C15 1.239 1_556 S
O5 Mn1 2.221 1_554 S
O5 Mn6 2.290 . S
O5 C16 1.278 . S
Mn6 O5 2.290 . S
Mn6 O8 2.089 1_545 S
Mn6 O11 2.251 . S
Mn6 O12 2.087 . S
O7 Mn1 2.154 1_554 S
O7 C17 1.244 . S
O8 Mn6 2.089 1_565 S
O8 C15 1.256 . S
O9 Mn1 2.169 . S
O9 C18 1.239 . S
O10 Mn3 2.089 1_545 S
O10 C18 1.256 1_655 S
O11 Mn6 2.251 . S
O11 C16 1.241 . S
O12 Mn6 2.087 . S
O12 C17 1.256 . S
C13 O19 1.278 1_554 S
C13 O20 1.241 1_554 S
C14 O0 1.244 1_556 S
C14 O2 1.256 . S
C15 O4 1.239 1_554 S
C15 O8 1.256 . S
C16 O5 1.278 . S
C16 O11 1.241 . S
C17 O7 1.244 . S
C17 O12 1.256 . S
C18 O9 1.239 . S
C18 O10 1.256 1_455 S
O19 Mn1 2.222 1_665 S
O19 Mn3 2.290 . S
O19 C13 1.278 1_556 S
O20 Mn3 2.251 . S
O20 C13 1.241 1_556 S
O21 Mn22 2.163 . S
O21 C35 1.244 . S
Mn22 O21 2.163 . S
Mn22 O25 2.160 . S
Mn22 O26 2.221 . S
Mn22 O28 2.163 . S
Mn22 O30 2.160 . S
Mn22 O40 2.221 . S
O23 Mn24 2.087 . S
O23 C35 1.256 . S
Mn24 O23 2.087 . S
Mn24 O31 2.089 . S
Mn24 O40 2.290 . S
Mn24 O41 2.251 . S
O25 Mn22 2.160 . S
O25 C36 1.239 . S
O26 Mn22 2.221 . S
O26 Mn27 2.290 . S
O26 C37 1.278 . S
Mn27 O26 2.290 . S
Mn27 O29 2.089 . S
Mn27 O32 2.251 . S
Mn27 O33 2.087 . S
O28 Mn22 2.163 . S
O28 C38 1.244 . S
O29 Mn27 2.089 . S
O29 C36 1.256 . S
O30 Mn22 2.160 . S
O30 C39 1.239 . S
O31 Mn24 2.089 . S
O31 C39 1.256 . S
O32 Mn27 2.251 . S
O32 C37 1.241 . S
O33 Mn27 2.087 . S
O33 C38 1.256 . S
C34 O40 1.278 . S
C34 O41 1.241 . S
C35 O21 1.244 . S
C35 O23 1.256 . S
C36 O25 1.239 . S
C36 O29 1.256 . S
C37 O26 1.278 . S
C37 O32 1.241 . S
C38 O28 1.244 . S
C38 O33 1.256 . S
C39 O30 1.239 . S
C39 O31 1.256 . S
O40 Mn22 2.221 . S
O40 Mn24 2.290 . S
O40 C34 1.278 . S
O41 Mn24 2.251 . S
O41 C34 1.241 . S
H42 C45 0.931 . S
H43 C48 0.928 . S
H44 C50 0.930 . S
C45 H42 0.931 . S
C45 C46 1.413 . S
C45 C47 1.360 1_645 S
C46 C45 1.413 . S
C46 C50 1.429 1_655 S
C47 C45 1.360 1_465 S
C47 C48 1.372 . S
C48 H43 0.928 . S
C48 C47 1.372 . S
C48 C49 1.404 . S
C49 C48 1.404 . S
C49 C50 1.391 1_565 S
C50 H44 0.930 . S
C50 C46 1.429 1_455 S
C50 C49 1.391 1_545 S
H51 C54 0.931 1_565 S
H52 C57 0.928 . S
H53 C59 0.930 . S
C54 H51 0.931 1_545 S
C54 C55 1.413 . S
C54 C56 1.360 1_655 S
C55 C54 1.413 . S
C55 C59 1.429 . S
C56 C54 1.360 1_455 S
C56 C57 1.372 . S
C57 H52 0.928 . S
C57 C56 1.372 . S
C57 C58 1.404 . S
C58 C57 1.404 . S
C58 C59 1.391 1_455 S
C59 H53 0.930 . S
C59 C55 1.429 . S
C59 C58 1.391 1_655 S
H60 C63 0.931 . S
H61 C66 0.928 . S
H62 C68 0.930 1_554 S
C63 H60 0.931 . S
C63 C64 1.413 . S
C63 C65 1.360 . S
C64 C63 1.413 . S
C64 C68 1.429 . S
C65 C63 1.360 . S
C65 C66 1.372 . S
C66 H61 0.928 . S
C66 C65 1.372 . S
C66 C67 1.404 . S
C67 C66 1.404 . S
C67 C68 1.391 . S
C68 H62 0.930 1_556 S
C68 C64 1.429 . S
C68 C67 1.391 . S
H69 C72 0.931 . S
H70 C75 0.928 . S
H71 C77 0.930 . S
C72 H69 0.931 . S
C72 C73 1.413 . S
C72 C74 1.360 . S
C73 C72 1.413 . S
C73 C77 1.429 . S
C74 C72 1.360 . S
C74 C75 1.372 . S
C75 H70 0.928 . S
C75 C74 1.372 . S
C75 C76 1.404 . S
C76 C75 1.404 . S
C76 C77 1.391 . S
C77 H71 0.930 . S
C77 C73 1.429 . S
C77 C76 1.391 . S
C78 C79 1.387 . S
C78 H82 0.950 . S
C78 C87 1.390 . S
C79 C78 1.387 . S
C79 C81 1.387 1_554 S
H80 C87 0.950 . S
C81 C79 1.387 1_556 S
C81 C83 1.390 . S
C81 H85 0.950 . S
H82 C78 0.950 . S
C83 C81 1.390 . S
C83 C84 1.387 1_556 S
C83 H86 0.950 . S
C84 C83 1.387 1_554 S
C84 C87 1.387 . S
H85 C81 0.950 . S
H86 C83 0.950 . S
C87 C78 1.390 . S
C87 H80 0.950 . S
C87 C84 1.387 . S
C88 C89 1.387 . S
C88 H92 0.950 . S
C88 C97 1.390 . S
C89 C88 1.387 . S
C89 C91 1.387 1_556 S
H90 C97 0.950 . S
C91 C89 1.387 1_554 S
C91 C93 1.390 . S
C91 H95 0.950 . S
H92 C88 0.950 . S
C93 C91 1.390 . S
C93 C94 1.387 1_554 S
C93 H96 0.950 . S
C94 C93 1.387 1_556 S
C94 C97 1.387 . S
H95 C91 0.950 . S
H96 C93 0.950 . S
C97 C88 1.390 . S
C97 H90 0.950 . S
C97 C94 1.387 . S
C98 C99 1.387 . S
C98 H102 0.950 . S
C98 C107 1.390 . S
C99 C98 1.387 . S
C99 C101 1.387 1_554 S
H100 C107 0.950 . S
C101 C99 1.387 1_556 S
C101 C103 1.390 . S
C101 H105 0.950 . S
H102 C98 0.950 . S
C103 C101 1.390 . S
C103 C104 1.387 1_556 S
C103 H106 0.950 . S
C104 C103 1.387 1_554 S
C104 C107 1.387 . S
H105 C101 0.950 . S
H106 C103 0.950 . S
C107 C98 1.390 . S
C107 H100 0.950 . S
C107 C104 1.387 . S
C108 C109 1.387 1_554 S
C108 H112 0.950 . S
C108 C117 1.390 . S
C109 C108 1.387 1_556 S
C109 C111 1.387 . S
H110 C117 0.950 . S
C111 C109 1.387 . S
C111 C113 1.390 . S
C111 H115 0.950 . S
H112 C108 0.950 . S
C113 C111 1.390 . S
C113 C114 1.387 . S
C113 H116 0.950 . S
C114 C113 1.387 . S
C114 C117 1.387 1_556 S
H115 C111 0.950 . S
H116 C113 0.950 . S
C117 C108 1.390 . S
C117 H110 0.950 . S
C117 C114 1.387 1_554 S
C118 C119 1.387 . S
C118 H122 0.950 . S
C118 C127 1.390 . S
C119 C118 1.387 . S
C119 C121 1.387 . S
H120 C127 0.950 . S
C121 C119 1.387 . S
C121 C123 1.390 . S
C121 H125 0.950 . S
H122 C118 0.950 . S
C123 C121 1.390 . S
C123 C124 1.387 . S
C123 H126 0.950 . S
C124 C123 1.387 . S
C124 C127 1.387 . S
H125 C121 0.950 . S
H126 C123 0.950 . S
C127 C118 1.390 . S
C127 H120 0.950 . S
C127 C124 1.387 . S
C128 C129 1.387 . S
C128 H132 0.950 . S
C128 C137 1.390 . S
C129 C128 1.387 . S
C129 C131 1.387 . S
H130 C137 0.942 1_455 S
C131 C129 1.387 . S
C131 C133 1.390 . S
C131 H135 0.950 . S
H132 C128 0.950 . S
C133 C131 1.390 . S
C133 C134 1.387 . S
C133 H136 0.950 . S
C134 C133 1.387 . S
C134 C137 1.387 . S
H135 C131 0.950 . S
H136 C133 0.950 . S
C137 C128 1.390 . S
C137 H130 0.942 1_655 S
C137 C134 1.387 . S
C138 C139 1.387 . S
C138 H142 0.950 . S
C138 C147 1.390 . S
C139 C138 1.387 . S
C139 C141 1.387 . S
H140 C147 0.950 . S
C141 C139 1.387 . S
C141 C143 1.390 . S
C141 H145 0.950 . S
H142 C138 0.950 . S
C143 C141 1.390 . S
C143 C144 1.387 . S
C143 H146 0.950 . S
C144 C143 1.387 . S
C144 C147 1.387 . S
H145 C141 0.950 . S
H146 C143 0.950 . S
C147 C138 1.390 . S
C147 H140 0.950 . S
C147 C144 1.387 . S
C148 C149 1.387 . S
C148 H152 0.950 . S
C148 C157 1.390 . S
C149 C148 1.387 . S
C149 C151 1.387 . S
H150 C157 0.950 . S
C151 C149 1.387 . S
C151 C153 1.390 . S
C151 H155 0.950 . S
H152 C148 0.950 . S
C153 C151 1.390 . S
C153 C154 1.387 . S
C153 H156 0.950 . S
C154 C153 1.387 . S
C154 C157 1.387 . S
H155 C151 0.950 . S
H156 C153 0.950 . S
C157 C148 1.390 . S
C157 H150 0.950 . S
C157 C154 1.387 . S
C158 C159 1.387 1_565 S
C158 H162 0.950 . S
C158 C167 1.390 . S
C159 C158 1.387 1_545 S
C159 C161 1.387 1_455 S
H160 C167 0.950 . S
C161 C159 1.387 1_655 S
C161 C163 1.390 . S
C161 H165 0.950 . S
H162 C158 0.950 . S
C163 C161 1.390 . S
C163 C164 1.381 1_645 S
C163 H166 0.950 . S
C164 C163 1.381 1_465 S
C164 C167 1.392 . S
H165 C161 0.950 . S
H166 C163 0.950 . S
C167 C158 1.390 . S
C167 H160 0.950 . S
C167 C164 1.392 . S
C168 C169 1.387 1_655 S
C168 H172 0.950 . S
C168 C177 1.390 . S
C169 C168 1.387 1_455 S
C169 C171 1.387 1_545 S
H170 C177 0.950 . S
C171 C169 1.387 1_565 S
C171 C173 1.390 1_565 S
C171 H175 0.950 . S
H172 C168 0.950 . S
C173 C171 1.390 1_545 S
C173 C174 1.387 . S
C173 H176 0.950 1_545 S
C174 C173 1.387 . S
C174 C177 1.387 1_455 S
H175 C171 0.950 . S
H176 C173 0.950 1_565 S
C177 C168 1.390 . S
C177 H170 0.950 . S
C177 C174 1.387 1_655 S
C178 C179 1.387 . S
C178 H182 0.950 . S
C178 C187 1.390 . S
C179 C178 1.387 . S
C179 C181 1.387 . S
H180 C187 0.950 . S
C181 C179 1.387 . S
C181 C183 1.390 . S
C181 H185 0.950 . S
H182 C178 0.950 . S
C183 C181 1.390 . S
C183 C184 1.387 . S
C183 H186 0.950 . S
C184 C183 1.387 . S
C184 C187 1.387 . S
H185 C181 0.950 . S
H186 C183 0.950 . S
C187 C178 1.390 . S
C187 H180 0.950 . S
C187 C184 1.387 . S
C188 C189 1.387 . S
C188 H192 0.950 . S
C188 C197 1.390 . S
C189 C188 1.387 . S
C189 C191 1.387 . S
H190 C197 0.950 . S
C191 C189 1.387 . S
C191 C193 1.390 . S
C191 H195 0.950 . S
H192 C188 0.950 . S
C193 C191 1.390 . S
C193 C194 1.387 . S
C193 H196 0.950 . S
C194 C193 1.387 . S
C194 C197 1.387 . S
H195 C191 0.950 . S
H196 C193 0.950 . S
C197 C188 1.390 . S
C197 H190 0.950 . S
C197 C194 1.387 . S
C84 C73 1.431 . S
C79 C16 1.246 . S
C89 C15 1.484 1_556 S
C94 C64 1.485 . S
C99 C13 1.290 . S
C104 C76 1.451 . S
C109 C14 1.350 . S
C114 C67 1.419 . S
C119 C37 1.242 . S
C124 C55 1.433 1_565 S
C129 C36 1.482 . S
C134 C46 1.486 . S
C144 C58 1.451 . S
C139 C34 1.290 . S
C154 C49 1.419 . S
C149 C35 1.352 . S
C159 C17 1.505 . S
C164 C47 1.550 . S
C169 C18 1.386 . S
C174 C56 1.442 . S
C184 C65 1.549 . S
C179 C38 1.503 . S
C189 C39 1.388 . S
C194 C74 1.442 . S
