# Generated by pormake.
# Topology pts, (4,4)-cn, num edge types: 1
# Building blocks:
#     Node 0, Type 0, BuildingBlock: KUFVIS_clean_linker_0, # of connection points: 4
#     Node 1, Type 0, BuildingBlock: KUFVIS_clean_linker_0, # of connection points: 4
#     Node 2, Type 1, BuildingBlock: AZAVOO_clean_sbu_0, # of connection points: 4
#     Node 3, Type 1, BuildingBlock: AZAVOO_clean_sbu_0, # of connection points: 4
#     Edge 4, Type (0, 1), None
#     Edge 5, Type (0, 1), None
#     Edge 6, Type (0, 1), None
#     Edge 7, Type (0, 1), None
#     Edge 8, Type (0, 1), None
#     Edge 9, Type (0, 1), None
#     Edge 10, Type (0, 1), None
#     Edge 11, Type (0, 1), None
# Relax obj value: 0.012
# Max RMSD: 0.077
# Mean RMSD: 0.071
data_MOF--net-pts--node1-AZAVOO_clean_sbu_0--node2-KUFVIS_clean_linker_0--edge1-none
_symmetry_space_group_name_H-M    P1
_symmetry_Int_Tables_number       1
_symmetry_cell_setting            triclinic
loop_
_symmetry_equiv_pos_as_xyz
'x, y, z'
_cell_length_a     12.918815
_cell_length_b     11.844925
_cell_length_c     15.597457
_cell_angle_alpha  94.796543
_cell_angle_beta   96.178244
_cell_angle_gamma 86.683646
loop_
_atom_site_label
_atom_site_type_symbol
_atom_site_fract_x
_atom_site_fract_y
_atom_site_fract_z
_atom_type_partial_charge
H0 H 0.12591 0.04033 0.98634 0.0
H1 H 0.40144 1.00645 0.85449 0.0
H2 H 0.42424 0.05374 0.13373 0.0
H3 H 0.57879 0.97825 0.12783 0.0
H4 H 0.84992 0.03397 0.00495 0.0
H5 H 0.54882 0.08371 0.867 0.0
C6 C 0.21012 0.03824 0.9884 0.0
C7 C 0.2707 0.04276 0.06877 0.0
C8 C 0.2572 0.02822 0.91077 0.0
C9 C 0.3665 0.02054 0.91457 0.0
C10 C 0.42968 0.03131 0.99436 0.0
C11 C 0.37964 0.04309 0.07117 0.0
C12 C 0.54675 0.03115 0.99719 0.0
C13 C 0.61181 1.00393 0.07221 0.0
C14 C 0.72078 1.00862 0.07651 0.0
C15 C 0.76584 0.03336 0.00293 0.0
C16 C 0.70384 0.05624 0.92645 0.0
C17 C 0.59493 0.05892 0.92496 0.0
H18 H 0.0559 0.92559 0.48307 0.0
H19 H -0.00934 0.65854 0.63255 0.0
H20 H 0.0188 0.59404 0.35739 0.0
H21 H 0.95154 0.43323 0.3705 0.0
H22 H 0.95416 0.16726 0.54117 0.0
H23 H 0.05749 0.48887 0.64454 0.0
C24 C 0.04473 0.83626 0.48779 0.0
C25 C 0.03302 0.76468 0.41172 0.0
C26 C 0.02698 0.79958 0.56709 0.0
C27 C 0.01028 0.68449 0.57174 0.0
C28 C 0.01409 0.60545 0.49798 0.0
C29 C 0.02291 0.64831 0.41672 0.0
C30 C 0.00224 0.48119 0.50669 0.0
C31 C -0.03182 0.40528 0.43492 0.0
C32 C 0.9516 0.2917 0.44697 0.0
C33 C -0.03318 0.25457 0.53082 0.0
C34 C 0.00284 0.32607 0.60153 0.0
C35 C 0.02398 0.43741 0.58907 0.0
Mg36 Mg 0.03148 1.00337 0.25539 0.0
O37 O 0.88658 0.99129 0.15794 0.0
O38 O 0.74509 0.98674 0.22782 0.0
Mg39 Mg 0.79936 0.95705 0.36869 0.0
C40 C 0.78778 0.99208 0.15835 0.0
C41 C 0.22053 0.03897 0.14968 0.0
O42 O 0.27336 0.99776 0.21784 0.0
O43 O -0.01865 0.18333 0.3149 0.0
O44 O 0.86131 0.13225 0.39591 0.0
O45 O 0.07496 0.81245 0.27123 0.0
O46 O 0.95786 0.91533 0.33646 0.0
C47 C 0.92204 0.20495 0.37594 0.0
C48 C 0.01308 0.82319 0.33133 0.0
O49 O 0.12276 0.05909 0.14961 0.0
Mg50 Mg 0.94217 0.05469 0.73441 0.0
O51 O 0.09359 0.0488 0.82645 0.0
O52 O 0.23599 0.02422 0.75613 0.0
Mg53 Mg 0.17202 0.07671 0.62168 0.0
C54 C 0.19208 0.03133 0.82623 0.0
C55 C 0.75383 0.07071 0.84727 0.0
O56 O 0.69984 0.06169 0.77087 0.0
O57 O 0.94276 0.24676 0.71785 0.0
O58 O 0.10786 0.22627 0.70437 0.0
O59 O 0.95851 0.86574 0.70265 0.0
O60 O 0.02288 0.99185 0.62927 0.0
C61 C 0.02198 0.28104 0.68741 0.0
C62 C 0.00787 0.88711 0.63832 0.0
O63 O 0.85216 0.07649 0.85197 0.0
loop_
_geom_bond_atom_site_label_1
_geom_bond_atom_site_label_2
_geom_bond_distance
_geom_bond_site_symmetry_2
_ccdc_geom_bond_type
H0 C6 0.930 1_565 S
H1 C9 0.931 . S
H2 C11 0.931 . S
H3 C13 0.930 . S
H4 C15 0.930 . S
H5 C17 0.930 1_565 S
C6 H0 0.930 1_545 S
C6 C7 1.380 1_546 S
C6 C8 1.394 . S
C7 C6 1.380 1_564 S
C7 C11 1.382 . S
C8 C6 1.394 . S
C8 C9 1.400 . S
C9 H1 0.931 . S
C9 C8 1.400 . S
C9 C10 1.379 . S
C10 C9 1.379 . S
C10 C11 1.410 1_546 S
C10 C12 1.501 1_556 S
C11 H2 0.931 . S
C11 C7 1.382 . S
C11 C10 1.410 1_564 S
C12 C10 1.501 1_554 S
C12 C13 1.384 . S
C12 C17 1.408 1_554 S
C13 H3 0.930 . S
C13 C12 1.384 . S
C13 C14 1.389 . S
C14 C13 1.389 . S
C14 C15 1.405 . S
C15 H4 0.930 . S
C15 C14 1.405 . S
C15 C16 1.364 1_544 S
C16 C15 1.364 1_566 S
C16 C17 1.400 1_565 S
C17 H5 0.930 1_545 S
C17 C12 1.408 1_556 S
C17 C16 1.400 1_545 S
H18 C24 0.930 . S
H19 C27 0.931 1_655 S
H20 C29 0.931 . S
H21 C31 0.930 . S
H22 C33 0.930 . S
H23 C35 0.931 . S
C24 H18 0.930 . S
C24 C25 1.380 . S
C24 C26 1.394 . S
C25 C24 1.380 . S
C25 C29 1.382 . S
C26 C24 1.394 . S
C26 C27 1.400 . S
C27 H19 0.931 1_455 S
C27 C26 1.400 . S
C27 C28 1.375 . S
C28 C27 1.375 . S
C28 C29 1.415 . S
C28 C30 1.501 . S
C29 H20 0.931 . S
C29 C25 1.382 . S
C29 C28 1.415 . S
C30 C28 1.501 . S
C30 C31 1.384 . S
C30 C35 1.408 . S
C31 H21 0.930 . S
C31 C30 1.384 . S
C31 C32 1.389 . S
C32 C31 1.389 . S
C32 C33 1.405 . S
C33 H22 0.930 . S
C33 C32 1.405 . S
C33 C34 1.364 . S
C34 C33 1.364 . S
C34 C35 1.400 . S
C35 H23 0.931 . S
C35 C30 1.408 . S
C35 C34 1.400 . S
Mg36 O37 2.028 1_455 S
Mg36 O43 1.986 . S
Mg36 O45 2.114 1_545 S
Mg36 O46 2.251 1_445 S
Mg36 O49 2.010 . S
O37 Mg36 2.028 1_655 S
O37 C40 1.250 . S
O38 Mg39 2.028 . S
O38 C40 1.248 . S
Mg39 O38 2.028 . S
Mg39 O44 2.032 . S
Mg39 O46 2.079 1_545 S
C40 O37 1.250 . S
C40 O38 1.248 . S
C41 O42 1.263 1_545 S
C41 O49 1.249 . S
O42 C41 1.263 1_565 S
O43 Mg36 1.986 . S
O43 C47 1.246 . S
O44 Mg39 2.032 . S
O44 C47 1.259 1_655 S
O45 Mg36 2.114 1_565 S
O45 C48 1.252 . S
O46 Mg36 2.251 1_665 S
O46 Mg39 2.079 1_565 S
O46 C48 1.273 1_655 S
C47 O43 1.246 . S
C47 O44 1.259 1_455 S
C48 O45 1.252 . S
C48 O46 1.273 1_455 S
O49 Mg36 2.010 . S
O49 C41 1.249 . S
Mg50 O51 2.028 1_655 S
Mg50 O57 1.986 . S
Mg50 O59 2.114 1_545 S
Mg50 O60 2.251 1_645 S
Mg50 O63 2.010 . S
O51 Mg50 2.028 1_455 S
O51 C54 1.250 . S
O52 Mg53 2.028 . S
O52 C54 1.248 . S
Mg53 O52 2.028 . S
Mg53 O58 2.032 . S
Mg53 O60 2.079 1_545 S
C54 O51 1.250 . S
C54 O52 1.248 . S
C55 O56 1.263 1_545 S
C55 O63 1.249 . S
O56 C55 1.263 1_565 S
O57 Mg50 1.986 . S
O57 C61 1.246 1_655 S
O58 Mg53 2.032 . S
O58 C61 1.259 . S
O59 Mg50 2.114 1_565 S
O59 C62 1.252 1_655 S
O60 Mg50 2.251 1_465 S
O60 Mg53 2.079 1_565 S
O60 C62 1.273 . S
C61 O57 1.246 1_455 S
C61 O58 1.259 . S
C62 O59 1.252 1_455 S
C62 O60 1.273 . S
O63 Mg50 2.010 . S
O63 C55 1.249 . S
C41 C7 1.411 1_545 S
C61 C34 1.421 . S
C40 C14 1.553 . S
C62 C26 1.528 . S
C54 C8 1.547 . S
C47 C32 1.430 . S
C55 C16 1.411 1_545 S
C25 C48 1.522 . S
