# Generated by pormake.
# Topology pts, (4,4)-cn, num edge types: 1
# Building blocks:
#     Node 0, Type 0, BuildingBlock: NAWXER_clean_linker_0, # of connection points: 4
#     Node 1, Type 0, BuildingBlock: NAWXER_clean_linker_0, # of connection points: 4
#     Node 2, Type 1, BuildingBlock: QUQFOY_clean_sbu_1, # of connection points: 4
#     Node 3, Type 1, BuildingBlock: QUQFOY_clean_sbu_1, # of connection points: 4
#     Edge 4, Type (0, 1), BuildingBlock: AJUNOK_clean_linker_0, # of connection points: 2
#     Edge 5, Type (0, 1), BuildingBlock: AJUNOK_clean_linker_0, # of connection points: 2
#     Edge 6, Type (0, 1), BuildingBlock: AJUNOK_clean_linker_0, # of connection points: 2
#     Edge 7, Type (0, 1), BuildingBlock: AJUNOK_clean_linker_0, # of connection points: 2
#     Edge 8, Type (0, 1), BuildingBlock: AJUNOK_clean_linker_0, # of connection points: 2
#     Edge 9, Type (0, 1), BuildingBlock: AJUNOK_clean_linker_0, # of connection points: 2
#     Edge 10, Type (0, 1), BuildingBlock: AJUNOK_clean_linker_0, # of connection points: 2
#     Edge 11, Type (0, 1), BuildingBlock: AJUNOK_clean_linker_0, # of connection points: 2
# Relax obj value: 0.094
# Max RMSD: 0.251
# Mean RMSD: 0.144
data_MOF--net-pts--node1-QUQFOY_clean_sbu_1--node2-NAWXER_clean_linker_0--edge1-AJUNOK_clean_linker_0
_symmetry_space_group_name_H-M    P1
_symmetry_Int_Tables_number       1
_symmetry_cell_setting            triclinic
loop_
_symmetry_equiv_pos_as_xyz
'x, y, z'
_cell_length_a     22.389024
_cell_length_b     24.204373
_cell_length_c     34.482452
_cell_angle_alpha  89.848909
_cell_angle_beta   89.882846
_cell_angle_gamma 88.997514
loop_
_atom_site_label
_atom_site_type_symbol
_atom_site_fract_x
_atom_site_fract_y
_atom_site_fract_z
_atom_type_partial_charge
C0 C 0.65012 0.05732 0.92677 0.0
C1 C 0.67949 0.00695 0.91808 0.0
C2 C 0.60238 0.0589 0.95289 0.0
C3 C 0.58488 0.01068 0.97198 0.0
C4 C 0.66213 0.95884 0.93786 0.0
C5 C 0.61551 0.96081 0.9648 0.0
C6 C 0.53043 0.01108 0.99581 0.0
C7 C 0.6356 0.95246 0.11498 0.0
C8 C 0.67947 0.99312 0.11348 0.0
C9 C 0.58869 0.95319 0.08838 0.0
C10 C 0.58515 0.99416 0.05953 0.0
C11 C 0.67707 0.03305 0.08383 0.0
C12 C 0.63007 0.03383 0.05726 0.0
C13 C 0.53043 0.9994 0.03582 0.0
C14 C 0.31767 0.95839 0.11476 0.0
C15 C 0.27331 1.00001 0.11311 0.0
C16 C 0.36531 0.95843 0.08866 0.0
C17 C 0.36934 0.99976 0.06019 0.0
C18 C 0.27658 0.0408 0.08411 0.0
C19 C 0.32449 0.04096 0.05805 0.0
C20 C 0.42381 1.00234 0.03601 0.0
C21 C 0.31789 0.05783 0.91626 0.0
C22 C 0.27363 0.01759 0.91878 0.0
C23 C 0.36533 0.0576 0.94243 0.0
C24 C 0.3695 0.01719 0.97163 0.0
C25 C 0.27748 0.9774 0.94821 0.0
C26 C 0.32518 0.97698 0.97426 0.0
C27 C 0.42391 0.0137 0.99578 0.0
H28 H 0.66372 0.09554 0.9133 0.0
H29 H 0.57894 0.09772 0.95812 0.0
H30 H 0.68351 0.91932 0.93178 0.0
H31 H 0.60181 0.92302 0.9789 0.0
H32 H 0.63644 0.92125 0.13757 0.0
H33 H 0.55422 0.92251 0.09097 0.0
H34 H 0.71091 0.06435 0.08169 0.0
H35 H 0.62757 0.06697 0.03616 0.0
H36 H 0.31634 0.9266 0.13689 0.0
H37 H 0.39969 0.92652 0.09113 0.0
H38 H 0.2424 0.07288 0.08183 0.0
H39 H 0.32727 0.07413 0.03704 0.0
H40 H 0.31685 0.08851 0.89332 0.0
H41 H 0.39956 0.08842 0.93937 0.0
H42 H 0.24402 0.94579 0.95069 0.0
H43 H 0.32835 0.94412 0.99557 0.0
N44 N 0.47736 0.01775 0.97735 0.0
N45 N 0.47709 0.99551 0.05429 0.0
C46 C 0.0182 0.68211 0.58519 0.0
C47 C 0.97538 0.68662 0.61489 0.0
C48 C 0.01807 0.63699 0.55989 0.0
C49 C 0.97433 0.59624 0.56338 0.0
C50 C 0.93139 0.64618 0.61809 0.0
C51 C 0.93108 0.60131 0.59273 0.0
C52 C 0.97551 0.54631 0.53855 0.0
C53 C 0.94344 0.68898 0.45579 0.0
C54 C -0.01249 0.69433 0.427 0.0
C55 C 0.94244 0.64197 0.4795 0.0
C56 C -0.01414 0.59977 0.47505 0.0
C57 C 0.03105 0.65224 0.42283 0.0
C58 C 0.03009 0.60539 0.4465 0.0
C59 C -0.01674 0.5479 0.49785 0.0
C60 C 0.9391 0.31194 0.45199 0.0
C61 C -0.01744 0.30533 0.42288 0.0
C62 C 0.93899 0.35848 0.4759 0.0
C63 C -0.0172 0.39897 0.47146 0.0
C64 C 0.02591 0.34613 0.41815 0.0
C65 C 0.02592 0.39257 0.44216 0.0
C66 C -0.01783 0.44927 0.4959 0.0
C67 C 0.02426 0.30911 0.57774 0.0
C68 C 0.97733 0.29788 0.60345 0.0
C69 C 0.02317 0.35749 0.55552 0.0
C70 C 0.97527 0.39549 0.55889 0.0
C71 C 0.92908 0.33547 0.60644 0.0
C72 C 0.92841 0.38427 0.58464 0.0
C73 C 0.97503 0.44769 0.53653 0.0
H74 H 0.05288 0.71252 0.58237 0.0
H75 H 0.05306 0.63331 0.53828 0.0
H76 H 0.89745 0.64908 0.64047 0.0
H77 H 0.8971 0.57033 0.59614 0.0
H78 H 0.90849 0.72014 0.45902 0.0
H79 H 0.90676 0.63792 0.50051 0.0
H80 H 0.06552 0.6553 0.40086 0.0
H81 H 0.06376 0.57324 0.44233 0.0
H82 H 0.90418 0.28192 0.45555 0.0
H83 H 0.90387 0.36333 0.49732 0.0
H84 H 0.05977 0.34212 0.39581 0.0
H85 H 0.05977 0.42347 0.43791 0.0
H86 H 0.06199 0.28071 0.57519 0.0
H87 H 0.06022 0.36573 0.53623 0.0
H88 H 0.89276 0.32776 0.62644 0.0
H89 H 0.89125 0.41321 0.58777 0.0
N90 N 0.9715 0.49619 0.55626 0.0
N91 N -0.01353 0.49927 0.47818 0.0
O92 O 0.89912 0.95116 0.23446 0.0
Cd93 Cd 0.97766 0.94073 0.26471 0.0
Cd94 Cd 0.97375 0.05451 0.26522 0.0
O95 O 0.89512 0.04217 0.23581 0.0
O96 O -0.01946 0.86057 0.27753 0.0
O97 O 0.97846 0.92548 0.32234 0.0
C98 C -0.01975 0.87357 0.31373 0.0
C99 C 0.97431 0.12323 0.31289 0.0
C100 C 0.87322 0.99649 0.22541 0.0
C101 C 0.07675 0.99905 0.22367 0.0
O102 O 0.05139 0.04408 0.23382 0.0
O103 O 0.05494 0.95305 0.23367 0.0
O104 O 0.97221 0.13509 0.27649 0.0
O105 O 0.97551 0.07161 0.32249 0.0
O106 O 0.89321 0.04191 0.79203 0.0
Cd107 Cd 0.9732 0.05254 0.76356 0.0
Cd108 Cd -0.01764 0.93936 0.77146 0.0
O109 O 0.90613 0.95274 0.80391 0.0
O110 O 0.97376 0.13215 0.74919 0.0
O111 O 0.97545 0.06518 0.70558 0.0
C112 C 0.97597 0.11729 0.71343 0.0
C113 C -0.01804 0.86723 0.72631 0.0
C114 C 0.87609 0.9974 0.80781 0.0
C115 C 0.07873 0.00394 0.80801 0.0
O116 O 0.06119 0.95609 0.79896 0.0
O117 O 0.04952 0.04653 0.79689 0.0
O118 O -0.0149 0.85808 0.76306 0.0
O119 O -0.02078 0.91811 0.71492 0.0
C120 C 0.19294 0.95227 0.14999 0.0
C121 C 0.22425 1.00084 0.14204 0.0
C122 C 0.14643 0.95182 0.17717 0.0
C123 C 0.12928 1.00002 0.19744 0.0
H124 H 0.20383 0.91442 0.1346 0.0
H125 H 0.12293 0.91358 0.18162 0.0
S126 S 0.20103 0.13684 0.18958 0.0
N127 N 0.23789 0.09741 0.15836 0.0
N128 N 0.14988 0.09703 0.20913 0.0
C129 C 0.16124 0.04865 0.19036 0.0
C130 C 0.20876 0.04898 0.16272 0.0
C131 C 0.93617 0.20847 0.62759 0.0
C132 C -0.01957 0.24898 0.62918 0.0
C133 C 0.93653 0.16387 0.65378 0.0
C134 C -0.01976 0.15949 0.68286 0.0
H135 H 0.90078 0.21172 0.60629 0.0
H136 H 0.90113 0.134 0.65232 0.0
S137 S 0.10652 0.25373 0.69846 0.0
N138 N 0.07019 0.28058 0.66105 0.0
N139 N 0.06963 0.19792 0.71103 0.0
C140 C 0.02512 0.19916 0.68428 0.0
C141 C 0.02556 0.24367 0.6572 0.0
C142 C 0.75981 0.94635 0.15241 0.0
C143 C 0.72677 0.99455 0.14342 0.0
C144 C 0.80573 0.94703 0.17991 0.0
C145 C 0.82037 0.99597 0.19951 0.0
H146 H 0.75102 0.90807 0.13743 0.0
H147 H 0.8309 0.90909 0.185 0.0
S148 S 0.74228 0.13193 0.18935 0.0
N149 N 0.7081 0.09137 0.15838 0.0
N150 N 0.79476 0.09307 0.20984 0.0
C151 C 0.78613 0.04408 0.19169 0.0
C152 C 0.73933 0.04328 0.16367 0.0
C153 C -0.0207 0.78754 0.63117 0.0
C154 C 0.97793 0.73216 0.64352 0.0
C155 C -0.01944 0.831 0.65806 0.0
C156 C -0.01887 0.82062 0.6983 0.0
H157 H 0.97851 0.79734 0.60049 0.0
H158 H -0.01898 0.873 0.64717 0.0
S159 S -0.01818 0.68205 0.74519 0.0
N160 N -0.02012 0.66895 0.69828 0.0
N161 N -0.01777 0.75002 0.74888 0.0
C162 C -0.01919 0.76513 0.71088 0.0
C163 C -0.0208 0.72109 0.6835 0.0
C164 C 0.21175 0.96585 0.87133 0.0
C165 C 0.22496 0.0159 0.88974 0.0
C166 C 0.1656 0.9628 0.84413 0.0
C167 C 0.13075 0.00973 0.83423 0.0
H168 H 0.23742 0.92864 0.87794 0.0
H169 H 0.15684 0.92308 0.83113 0.0
S170 S 0.14728 0.15083 0.87477 0.0
N171 N 0.19954 0.11336 0.89666 0.0
N172 N 0.11323 0.10818 0.84518 0.0
C173 C 0.1442 0.06036 0.8521 0.0
C174 C 0.19114 0.06332 0.87992 0.0
C175 C -0.01758 0.26714 0.35573 0.0
C176 C -0.0192 0.25769 0.39592 0.0
C177 C -0.02004 0.22338 0.32939 0.0
C178 C 0.97615 0.16817 0.3421 0.0
H179 H -0.01514 0.30889 0.34448 0.0
H180 H -0.01878 0.23315 0.29873 0.0
S181 S 0.97225 0.12129 0.4447 0.0
N182 N 0.97629 0.18924 0.44746 0.0
N183 N 0.97161 0.1066 0.39795 0.0
C184 C 0.9748 0.15806 0.38233 0.0
C185 C 0.97703 0.20288 0.40922 0.0
C186 C 0.77964 0.97154 0.89582 0.0
C187 C 0.7282 0.00427 0.88866 0.0
C188 C 0.82638 0.96834 0.86887 0.0
C189 C 0.82408 0.9986 0.83406 0.0
H190 H 0.78444 0.94888 0.92279 0.0
H191 H 0.86545 0.94326 0.87592 0.0
S192 S 0.69804 0.08665 0.79949 0.0
N193 N 0.67602 0.06395 0.84231 0.0
N194 N 0.76571 0.06015 0.79273 0.0
C195 C 0.77298 0.031 0.82617 0.0
C196 C 0.72463 0.03333 0.85321 0.0
C197 C -0.01116 0.73084 0.3593 0.0
C198 C -0.01417 0.74142 0.39931 0.0
C199 C -0.0131 0.77388 0.33218 0.0
C200 C -0.0179 0.82953 0.34383 0.0
H201 H -0.00799 0.68875 0.34878 0.0
H202 H -0.01081 0.76316 0.30173 0.0
S203 S 0.97432 0.8794 0.44552 0.0
N204 N -0.02107 0.81144 0.44956 0.0
N205 N 0.97509 0.89278 0.39852 0.0
C206 C -0.02072 0.8408 0.38387 0.0
C207 C -0.01894 0.79669 0.41158 0.0
loop_
_geom_bond_atom_site_label_1
_geom_bond_atom_site_label_2
_geom_bond_distance
_geom_bond_site_symmetry_2
_ccdc_geom_bond_type
C0 C1 1.384 1_545 S
C0 C2 1.384 . S
C0 H28 0.931 . S
C1 C0 1.384 1_565 S
C1 C4 1.382 . S
C2 C0 1.384 . S
C2 C3 1.381 1_545 S
C2 H29 0.930 . S
C3 C2 1.381 1_565 S
C3 C5 1.381 . S
C3 C6 1.487 . S
C4 C1 1.382 . S
C4 C5 1.387 . S
C4 H30 0.930 . S
C5 C3 1.381 . S
C5 C4 1.387 . S
C5 H31 0.931 . S
C6 C3 1.487 . S
C6 C13 1.399 1_566 S
C6 N44 1.343 . S
C7 C8 1.384 1_565 S
C7 C9 1.384 . S
C7 H32 0.931 . S
C8 C7 1.384 1_545 S
C8 C11 1.382 . S
C9 C7 1.384 . S
C9 C10 1.381 1_565 S
C9 H33 0.930 . S
C10 C9 1.381 1_545 S
C10 C12 1.381 . S
C10 C13 1.487 . S
C11 C8 1.382 . S
C11 C12 1.387 . S
C11 H34 0.930 . S
C12 C10 1.381 . S
C12 C11 1.387 . S
C12 H35 0.931 . S
C13 C6 1.399 1_544 S
C13 C10 1.487 . S
C13 N45 1.343 . S
C14 C15 1.384 1_565 S
C14 C16 1.384 . S
C14 H36 0.931 . S
C15 C14 1.384 1_545 S
C15 C18 1.382 . S
C16 C14 1.384 . S
C16 C17 1.381 1_565 S
C16 H37 0.930 . S
C17 C16 1.381 1_545 S
C17 C19 1.381 . S
C17 C20 1.487 . S
C18 C15 1.382 . S
C18 C19 1.387 . S
C18 H38 0.930 . S
C19 C17 1.381 . S
C19 C18 1.387 . S
C19 H39 0.931 . S
C20 C17 1.487 . S
C20 C27 1.399 1_544 S
C20 N45 1.343 . S
C21 C22 1.384 1_545 S
C21 C23 1.384 . S
C21 H40 0.931 . S
C22 C21 1.384 1_565 S
C22 C25 1.382 . S
C23 C21 1.384 . S
C23 C24 1.381 1_545 S
C23 H41 0.930 . S
C24 C23 1.381 1_565 S
C24 C26 1.381 . S
C24 C27 1.487 . S
C25 C22 1.382 . S
C25 C26 1.387 . S
C25 H42 0.930 . S
C26 C24 1.381 . S
C26 C25 1.387 . S
C26 H43 0.931 . S
C27 C20 1.399 1_566 S
C27 C24 1.487 . S
C27 N44 1.343 . S
H28 C0 0.931 . S
H29 C2 0.930 . S
H30 C4 0.930 . S
H31 C5 0.931 . S
H32 C7 0.931 . S
H33 C9 0.930 . S
H34 C11 0.930 . S
H35 C12 0.931 . S
H36 C14 0.931 . S
H37 C16 0.930 . S
H38 C18 0.930 . S
H39 C19 0.931 . S
H40 C21 0.931 . S
H41 C23 0.930 . S
H42 C25 0.930 . S
H43 C26 0.931 . S
N44 C6 1.343 . S
N44 C27 1.343 . S
N45 C13 1.343 . S
N45 C20 1.343 . S
C46 C47 1.384 1_455 S
C46 C48 1.384 . S
C46 H74 0.931 . S
C47 C46 1.384 1_655 S
C47 C50 1.382 . S
C48 C46 1.384 . S
C48 C49 1.381 1_455 S
C48 H75 0.930 . S
C49 C48 1.381 1_655 S
C49 C51 1.381 . S
C49 C52 1.487 . S
C50 C47 1.382 . S
C50 C51 1.387 . S
C50 H76 0.930 . S
C51 C49 1.381 . S
C51 C50 1.387 . S
C51 H77 0.931 . S
C52 C49 1.487 . S
C52 C59 1.399 1_655 S
C52 N90 1.343 . S
C53 C54 1.384 1_655 S
C53 C55 1.384 . S
C53 H78 0.931 . S
C54 C53 1.384 1_455 S
C54 C57 1.382 . S
C55 C53 1.384 . S
C55 C56 1.381 1_655 S
C55 H79 0.930 . S
C56 C55 1.381 1_455 S
C56 C58 1.381 . S
C56 C59 1.487 . S
C57 C54 1.382 . S
C57 C58 1.387 . S
C57 H80 0.930 . S
C58 C56 1.381 . S
C58 C57 1.387 . S
C58 H81 0.931 . S
C59 C52 1.399 1_455 S
C59 C56 1.487 . S
C59 N91 1.343 . S
C60 C61 1.384 1_655 S
C60 C62 1.384 . S
C60 H82 0.931 . S
C61 C60 1.384 1_455 S
C61 C64 1.382 . S
C62 C60 1.384 . S
C62 C63 1.381 1_655 S
C62 H83 0.930 . S
C63 C62 1.381 1_455 S
C63 C65 1.381 . S
C63 C66 1.487 . S
C64 C61 1.382 . S
C64 C65 1.387 . S
C64 H84 0.930 . S
C65 C63 1.381 . S
C65 C64 1.387 . S
C65 H85 0.931 . S
C66 C63 1.487 . S
C66 C73 1.399 1_455 S
C66 N91 1.343 . S
C67 C68 1.384 1_455 S
C67 C69 1.384 . S
C67 H86 0.931 . S
C68 C67 1.384 1_655 S
C68 C71 1.382 . S
C69 C67 1.384 . S
C69 C70 1.381 1_455 S
C69 H87 0.930 . S
C70 C69 1.381 1_655 S
C70 C72 1.381 . S
C70 C73 1.487 . S
C71 C68 1.382 . S
C71 C72 1.387 . S
C71 H88 0.930 . S
C72 C70 1.381 . S
C72 C71 1.387 . S
C72 H89 0.931 . S
C73 C66 1.399 1_655 S
C73 C70 1.487 . S
C73 N90 1.343 . S
H74 C46 0.931 . S
H75 C48 0.930 . S
H76 C50 0.930 . S
H77 C51 0.931 . S
H78 C53 0.931 . S
H79 C55 0.930 . S
H80 C57 0.930 . S
H81 C58 0.931 . S
H82 C60 0.931 . S
H83 C62 0.930 . S
H84 C64 0.930 . S
H85 C65 0.931 . S
H86 C67 0.931 . S
H87 C69 0.930 . S
H88 C71 0.930 . S
H89 C72 0.931 . S
N90 C52 1.343 . S
N90 C73 1.343 . S
N91 C59 1.343 . S
N91 C66 1.343 . S
O92 Cd93 2.223 1_655 S
O92 C100 1.315 . S
Cd93 O92 2.223 1_455 S
Cd93 O96 2.297 1_455 S
Cd93 O97 2.439 1_455 S
Cd93 O103 2.240 1_565 S
Cd94 O95 2.240 1_545 S
Cd94 O102 2.223 1_655 S
Cd94 O104 2.297 1_655 S
Cd94 O105 2.439 1_655 S
O95 Cd94 2.240 1_565 S
O95 C100 1.279 . S
O96 Cd93 2.297 1_655 S
O96 C98 1.247 . S
O97 Cd93 2.439 1_655 S
O97 C98 1.208 . S
C98 O96 1.247 . S
C98 O97 1.208 . S
C99 O104 1.247 . S
C99 O105 1.208 . S
C100 O92 1.315 . S
C100 O95 1.279 . S
C101 O102 1.315 . S
C101 O103 1.279 . S
O102 Cd94 2.223 1_455 S
O102 C101 1.315 . S
O103 Cd93 2.240 1_545 S
O103 C101 1.279 . S
O104 Cd94 2.297 1_455 S
O104 C99 1.247 . S
O105 Cd94 2.439 1_455 S
O105 C99 1.208 . S
O106 Cd107 2.223 1_655 S
O106 C114 1.315 . S
Cd107 O106 2.223 1_455 S
Cd107 O110 2.297 1_455 S
Cd107 O111 2.439 1_455 S
Cd107 O117 2.240 1_545 S
Cd108 O109 2.240 1_565 S
Cd108 O116 2.223 1_655 S
Cd108 O118 2.297 1_655 S
Cd108 O119 2.439 1_655 S
O109 Cd108 2.240 1_545 S
O109 C114 1.279 . S
O110 Cd107 2.297 1_655 S
O110 C112 1.247 . S
O111 Cd107 2.439 1_655 S
O111 C112 1.208 . S
C112 O110 1.247 . S
C112 O111 1.208 . S
C113 O118 1.247 . S
C113 O119 1.208 . S
C114 O106 1.315 . S
C114 O109 1.279 . S
C115 O116 1.315 . S
C115 O117 1.279 . S
O116 Cd108 2.223 1_455 S
O116 C115 1.315 . S
O117 Cd107 2.240 1_565 S
O117 C115 1.279 . S
O118 Cd108 2.297 1_455 S
O118 C113 1.247 . S
O119 Cd108 2.439 1_455 S
O119 C113 1.208 . S
C120 C121 1.369 1_565 S
C120 C122 1.419 . S
C120 H124 0.930 . S
C121 C120 1.369 1_545 S
C121 C130 1.429 . S
C122 C120 1.419 . S
C122 C123 1.363 1_565 S
C122 H125 0.929 . S
C123 C122 1.363 1_545 S
C123 C129 1.428 . S
H124 C120 0.930 . S
H125 C122 0.929 . S
S126 N127 1.613 . S
S126 N128 1.610 . S
N127 S126 1.613 . S
N127 C130 1.350 . S
N128 S126 1.610 . S
N128 C129 1.351 . S
C129 C123 1.428 . S
C129 N128 1.351 . S
C129 C130 1.434 . S
C130 C121 1.429 . S
C130 N127 1.350 . S
C130 C129 1.434 . S
C131 C132 1.369 . S
C131 C133 1.419 . S
C131 H135 0.930 . S
C132 C131 1.369 . S
C132 C141 1.429 1_655 S
C133 C131 1.419 . S
C133 C134 1.363 . S
C133 H136 0.929 . S
C134 C133 1.363 . S
C134 C140 1.428 1_655 S
H135 C131 0.930 . S
H136 C133 0.929 . S
S137 N138 1.613 . S
S137 N139 1.610 . S
N138 S137 1.613 . S
N138 C141 1.350 . S
N139 S137 1.610 . S
N139 C140 1.351 . S
C140 C134 1.428 1_455 S
C140 N139 1.351 . S
C140 C141 1.434 . S
C141 C132 1.429 1_455 S
C141 N138 1.350 . S
C141 C140 1.434 . S
C142 C143 1.369 . S
C142 C144 1.419 . S
C142 H146 0.930 . S
C143 C142 1.369 . S
C143 C152 1.429 . S
C144 C142 1.419 . S
C144 C145 1.363 . S
C144 H147 0.929 . S
C145 C144 1.363 . S
C145 C151 1.428 . S
H146 C142 0.930 . S
H147 C144 0.929 . S
S148 N149 1.613 . S
S148 N150 1.610 1_545 S
N149 S148 1.613 . S
N149 C152 1.350 1_545 S
N150 S148 1.610 1_565 S
N150 C151 1.351 . S
C151 C145 1.428 . S
C151 N150 1.351 . S
C151 C152 1.434 . S
C152 C143 1.429 . S
C152 N149 1.350 1_565 S
C152 C151 1.434 . S
C153 C154 1.367 1_655 S
C153 C155 1.416 1_655 S
C153 H157 0.935 . S
C154 C153 1.367 1_455 S
C154 C163 1.429 . S
C155 C153 1.416 1_455 S
C155 C156 1.363 . S
C155 H158 0.929 . S
C156 C155 1.363 . S
C156 C162 1.428 . S
H157 C153 0.935 . S
H158 C155 0.929 . S
S159 N160 1.613 . S
S159 N161 1.610 . S
N160 S159 1.613 . S
N160 C163 1.350 . S
N161 S159 1.610 . S
N161 C162 1.351 . S
C162 C156 1.428 . S
C162 N161 1.351 . S
C162 C163 1.434 . S
C163 C154 1.429 . S
C163 N160 1.350 . S
C163 C162 1.434 . S
C164 C165 1.369 . S
C164 C166 1.419 . S
C164 H168 0.930 . S
C165 C164 1.369 . S
C165 C174 1.429 1_565 S
C166 C164 1.419 . S
C166 C167 1.363 . S
C166 H169 0.929 . S
C167 C166 1.363 . S
C167 C173 1.428 1_565 S
H168 C164 0.930 . S
H169 C166 0.929 . S
S170 N171 1.613 . S
S170 N172 1.610 . S
N171 S170 1.613 . S
N171 C174 1.350 . S
N172 S170 1.610 . S
N172 C173 1.351 . S
C173 C167 1.428 1_545 S
C173 N172 1.351 . S
C173 C174 1.434 . S
C174 C165 1.429 1_545 S
C174 N171 1.350 . S
C174 C173 1.434 . S
C175 C176 1.369 . S
C175 C177 1.419 . S
C175 H179 0.930 . S
C176 C175 1.369 . S
C176 C185 1.429 1_455 S
C177 C175 1.419 . S
C177 C178 1.363 . S
C177 H180 0.929 . S
C178 C177 1.363 . S
C178 C184 1.428 1_455 S
H179 C175 0.930 . S
H180 C177 0.929 . S
S181 N182 1.613 . S
S181 N183 1.610 . S
N182 S181 1.613 . S
N182 C185 1.350 . S
N183 S181 1.610 . S
N183 C184 1.351 . S
C184 C178 1.428 1_655 S
C184 N183 1.351 . S
C184 C185 1.434 . S
C185 C176 1.429 1_655 S
C185 N182 1.350 . S
C185 C184 1.434 . S
C186 C187 1.369 . S
C186 C188 1.419 . S
C186 H190 0.930 1_545 S
C187 C186 1.369 . S
C187 C196 1.429 . S
C188 C186 1.419 . S
C188 C189 1.363 . S
C188 H191 0.929 . S
C189 C188 1.363 . S
C189 C195 1.428 . S
H190 C186 0.930 1_565 S
H191 C188 0.929 . S
S192 N193 1.613 . S
S192 N194 1.610 . S
N193 S192 1.613 . S
N193 C196 1.350 . S
N194 S192 1.610 . S
N194 C195 1.351 . S
C195 C189 1.428 . S
C195 N194 1.351 . S
C195 C196 1.434 . S
C196 C187 1.429 . S
C196 N193 1.350 . S
C196 C195 1.434 . S
C197 C198 1.369 . S
C197 C199 1.419 . S
C197 H201 0.930 . S
C198 C197 1.369 . S
C198 C207 1.429 1_655 S
C199 C197 1.419 . S
C199 C200 1.363 . S
C199 H202 0.929 . S
C200 C199 1.363 . S
C200 C206 1.428 . S
H201 C197 0.930 . S
H202 C199 0.929 . S
S203 N204 1.613 . S
S203 N205 1.610 . S
N204 S203 1.613 . S
N204 C207 1.350 . S
N205 S203 1.610 . S
N205 C206 1.351 1_455 S
C206 C200 1.428 . S
C206 N205 1.351 1_655 S
C206 C207 1.434 1_655 S
C207 C198 1.429 1_455 S
C207 N204 1.350 . S
C207 C206 1.434 1_455 S
C123 C101 1.614 . S
C121 C15 1.603 . S
C134 C112 1.525 . S
C132 C68 1.604 . S
C145 C100 1.614 . S
C143 C8 1.613 1_565 S
C156 C113 1.524 . S
C154 C47 1.613 1_455 S
C167 C115 1.615 . S
C165 C22 1.609 . S
C178 C99 1.527 . S
C176 C61 1.603 . S
C189 C114 1.614 . S
C187 C1 1.617 1_545 S
C198 C54 1.611 1_655 S
C200 C98 1.528 . S
