# Generated by pormake.
# Topology rtl, (3,6)-cn, num edge types: 1
# Building blocks:
#     Node 0, Type 0, BuildingBlock: QEWDON_clean_linker_0, # of connection points: 3
#     Node 1, Type 0, BuildingBlock: QEWDON_clean_linker_0, # of connection points: 3
#     Node 2, Type 0, BuildingBlock: QEWDON_clean_linker_0, # of connection points: 3
#     Node 3, Type 0, BuildingBlock: QEWDON_clean_linker_0, # of connection points: 3
#     Node 4, Type 1, BuildingBlock: LEVNOQ01_clean_sbu_1, # of connection points: 6
#     Node 5, Type 1, BuildingBlock: LEVNOQ01_clean_sbu_1, # of connection points: 6
#     Edge 6, Type (0, 1), BuildingBlock: OJICUG_clean_linker_0, # of connection points: 2
#     Edge 7, Type (0, 1), BuildingBlock: OJICUG_clean_linker_0, # of connection points: 2
#     Edge 8, Type (0, 1), BuildingBlock: OJICUG_clean_linker_0, # of connection points: 2
#     Edge 9, Type (0, 1), BuildingBlock: OJICUG_clean_linker_0, # of connection points: 2
#     Edge 10, Type (0, 1), BuildingBlock: OJICUG_clean_linker_0, # of connection points: 2
#     Edge 11, Type (0, 1), BuildingBlock: OJICUG_clean_linker_0, # of connection points: 2
#     Edge 12, Type (0, 1), BuildingBlock: OJICUG_clean_linker_0, # of connection points: 2
#     Edge 13, Type (0, 1), BuildingBlock: OJICUG_clean_linker_0, # of connection points: 2
#     Edge 14, Type (0, 1), BuildingBlock: OJICUG_clean_linker_0, # of connection points: 2
#     Edge 15, Type (0, 1), BuildingBlock: OJICUG_clean_linker_0, # of connection points: 2
#     Edge 16, Type (0, 1), BuildingBlock: OJICUG_clean_linker_0, # of connection points: 2
#     Edge 17, Type (0, 1), BuildingBlock: OJICUG_clean_linker_0, # of connection points: 2
# Relax obj value: 0.038
# Max RMSD: 0.166
# Mean RMSD: 0.132
data_MOF--net-rtl--node1-LEVNOQ01_clean_sbu_1--node2-QEWDON_clean_linker_0--edge1-OJICUG_clean_linker_0
_symmetry_space_group_name_H-M    P1
_symmetry_Int_Tables_number       1
_symmetry_cell_setting            triclinic
loop_
_symmetry_equiv_pos_as_xyz
'x, y, z'
_cell_length_a     28.063902
_cell_length_b     28.056335
_cell_length_c     16.037935
_cell_angle_alpha  92.548179
_cell_angle_beta   104.28017
_cell_angle_gamma 90.159091
loop_
_atom_site_label
_atom_site_type_symbol
_atom_site_fract_x
_atom_site_fract_y
_atom_site_fract_z
_atom_type_partial_charge
H0 H 0.20748 0.85278 0.25582 0.0
C1 C 0.19547 0.85858 0.18751 0.0
C2 C 0.15069 0.88138 0.15532 0.0
C3 C 0.22506 0.84344 0.13252 0.0
H4 H 0.10187 0.90801 0.04221 0.0
C5 C 0.13504 0.8881 0.06655 0.0
C6 C 0.1635 0.8728 0.00986 0.0
C7 C 0.20848 0.85015 0.04348 0.0
C8 C 0.27463 0.82368 0.16942 0.0
H9 H 0.23144 0.83938 1.00085 0.0
C10 C 0.29233 0.78442 0.12884 0.0
C11 C 0.3399 0.76665 0.16282 0.0
C12 C 0.30499 0.84481 0.24529 0.0
H13 H 0.29291 0.87555 0.27741 0.0
C14 C 0.35181 0.8272 0.27966 0.0
H15 H 0.2687 0.76733 0.0715 0.0
C16 C 0.3693 0.78856 0.23879 0.0
H17 H 0.40631 0.77658 0.26582 0.0
H18 H 0.37494 0.84403 0.3377 0.0
H19 H 0.72788 0.72119 0.51172 0.0
C20 C 0.70642 0.70745 0.55318 0.0
C21 C 0.66047 0.68527 0.516 0.0
C22 C 0.72586 0.70997 0.64326 0.0
H23 H 0.59839 0.64949 0.54278 0.0
C24 C 0.63357 0.66675 0.57071 0.0
C25 C 0.6525 0.66782 0.66054 0.0
C26 C 0.69837 0.69016 0.69606 0.0
C27 C 0.77619 0.73037 0.68209 0.0
H28 H 0.71337 0.69113 0.76506 0.0
C29 C 0.79382 0.77023 0.64766 0.0
C30 C 0.8422 0.78806 0.68158 0.0
C31 C 0.80756 0.7092 0.7528 0.0
H32 H 0.79606 0.67782 0.77998 0.0
C33 C 0.85488 0.72749 0.78822 0.0
H34 H 0.76977 0.78753 0.5945 0.0
C35 C 0.87225 0.76648 0.75286 0.0
H36 H 0.90976 0.77871 0.77975 0.0
H37 H 0.87862 0.71066 0.8423 0.0
H38 H 0.7959 0.20633 0.0835 0.0
C39 C 0.81872 0.19567 0.04058 0.0
C40 C 0.86477 0.17477 0.074 0.0
C41 C 0.80102 0.201 0.95129 0.0
H42 H 0.92739 0.14195 0.04053 0.0
C43 C 0.89315 0.16029 0.01661 0.0
C44 C 0.87643 0.16612 0.92768 0.0
C45 C 0.83045 0.18661 0.89573 0.0
C46 C 0.7508 0.21911 0.91467 0.0
H47 H 0.81749 0.19152 0.82722 0.0
C48 C 0.73339 0.25986 0.95139 0.0
C49 C 0.68568 0.27692 0.91626 0.0
C50 C 0.71999 0.1955 0.84194 0.0
H51 H 0.73212 0.1637 0.81279 0.0
C52 C 0.67287 0.21219 0.80676 0.0
H53 H 0.75745 0.27877 0.0062 0.0
C54 C 0.6557 0.25252 0.84355 0.0
H55 H 0.61857 0.264 0.81593 0.0
H56 H 0.64937 0.19351 0.75113 0.0
H57 H 0.33657 0.2989 0.55676 0.0
C58 C 0.35043 0.32053 0.51338 0.0
C59 C 0.38579 0.35646 0.54799 0.0
C60 C 0.33438 0.3117 0.42337 0.0
H61 H 0.43372 0.40963 0.5193 0.0
C62 C 0.40553 0.38303 0.49204 0.0
C63 C 0.38877 0.37633 0.40219 0.0
C64 C 0.3524 0.3412 0.36888 0.0
C65 C 0.30091 0.2705 0.38524 0.0
H66 H 0.33777 0.33673 0.29992 0.0
C67 C 0.26315 0.25553 0.4225 0.0
C68 C 0.23393 0.21454 0.38914 0.0
C69 C 0.30795 0.24464 0.31199 0.0
H70 H 0.33725 0.25408 0.28248 0.0
C71 C 0.27823 0.20525 0.27698 0.0
H72 H 0.25663 0.27574 0.4776 0.0
C73 C 0.24178 0.19002 0.31537 0.0
H74 H 0.22111 0.15789 0.28887 0.0
H75 H 0.28441 0.18558 0.22106 0.0
O76 O 0.04261 0.08775 0.74254 0.0
Mg77 Mg 0.08759 0.06336 0.6631 0.0
O78 O 0.97901 0.0707 0.63485 0.0
Mg79 Mg 0.01721 0.02633 0.54319 0.0
O80 O 0.07993 0.086 0.54106 0.0
O81 O 0.13216 0.11805 0.66005 0.0
O82 O 0.05415 0.98182 0.45127 0.0
O83 O 0.97604 0.07709 0.42931 0.0
Mg84 Mg 0.94548 0.99326 0.428 0.0
O85 O 0.95617 0.96501 0.54617 0.0
O86 O 0.98927 0.97136 0.34319 0.0
O87 O 0.90017 0.05219 0.40237 0.0
O88 O 0.90055 0.93805 0.42698 0.0
C89 C 0.10332 0.97195 0.69921 0.0
C90 C 0.99685 0.08889 0.71039 0.0
C91 C 0.11549 0.11605 0.57767 0.0
C92 C 0.03494 0.96681 0.37418 0.0
C93 C 0.93057 0.08324 0.39332 0.0
C94 C 0.92036 0.93564 0.50805 0.0
O95 O 0.13289 0.00564 0.69929 0.0
O96 O 0.05873 0.97575 0.65599 0.0
O97 O 0.62681 0.56533 0.16823 0.0
Mg98 Mg 0.5834 0.50326 0.15026 0.0
O99 O 0.54983 0.58305 0.14892 0.0
Mg100 Mg 0.51485 0.52673 0.02943 0.0
O101 O 0.57605 0.46609 0.03568 0.0
O102 O 0.62825 0.44713 0.15988 0.0
O103 O 0.48065 0.4708 0.91094 0.0
O104 O 0.55544 0.56938 0.9469 0.0
Mg105 Mg 0.44398 0.55149 0.90348 0.0
O106 O 0.4525 0.58571 0.02177 0.0
O107 O 0.40287 0.48762 0.8785 0.0
O108 O 0.49528 0.56639 0.82909 0.0
O109 O 0.39852 0.60686 0.90102 0.0
C110 C 0.48965 0.47938 0.19152 0.0
C111 C 0.59503 0.59396 0.18223 0.0
C112 C 0.61065 0.43917 0.07833 0.0
C113 C 0.43644 0.45916 0.87193 0.0
C114 C 0.53955 0.57641 0.86706 0.0
C115 C 0.41703 0.61291 0.98276 0.0
O116 O 0.53344 0.49128 0.22927 0.0
O117 O 0.47419 0.48405 0.11097 0.0
C118 C 0.15606 0.16878 0.39129 0.0
C119 C 0.19884 0.19457 0.43551 0.0
H120 H 0.09587 0.12346 0.401 0.0
C121 C 0.21042 0.19756 0.52588 0.0
H122 H 0.14526 0.16645 0.3216 0.0
C123 C 0.18161 0.174 0.57076 0.0
C124 C 0.14066 0.14591 0.52701 0.0
H125 H 0.24324 0.21613 0.5628 0.0
H126 H 0.19303 0.17631 0.64046 0.0
C127 C 0.12742 0.1444 0.43662 0.0
C128 C 0.34812 0.72297 0.02728 0.0
C129 C 0.35945 0.72649 0.11767 0.0
H130 H 0.35723 0.68474 0.91452 0.0
C131 C 0.39045 0.69209 0.16398 0.0
H132 H 0.32543 0.74929 0.98931 0.0
C133 C 0.40966 0.65524 0.12073 0.0
C134 C 0.39781 0.65175 0.03033 0.0
H135 H 0.39957 0.69331 0.23369 0.0
H136 H 0.43334 0.62931 0.15802 0.0
C137 C 0.36679 0.68602 0.98428 0.0
C138 C 0.89512 0.86212 0.68704 0.0
C139 C 0.86223 0.82697 0.63914 0.0
H140 H 0.93973 0.92418 0.6836 0.0
C141 C 0.84971 0.82798 0.54899 0.0
H142 H 0.90541 0.86257 0.75672 0.0
C143 C 0.86884 0.86322 0.5077 0.0
C144 C 0.90151 0.89848 0.55506 0.0
H145 H 0.8257 0.8009 0.5097 0.0
H146 H 0.85815 0.86239 0.43797 0.0
C147 C 0.91473 0.8975 0.64532 0.0
C148 C 0.67857 0.32627 0.04668 0.0
C149 C 0.66673 0.31924 0.95667 0.0
H150 H 0.67037 0.36926 0.15502 0.0
C151 C 0.63598 0.35236 0.90626 0.0
H152 H 0.70116 0.30108 0.08774 0.0
C153 C 0.61744 0.3914 0.94519 0.0
C154 C 0.62968 0.39832 0.03525 0.0
H155 H 0.62653 0.34839 0.83663 0.0
H156 H 0.59388 0.41624 0.90484 0.0
C157 C 0.66052 0.36535 0.08536 0.0
C158 C 0.06979 0.89834 0.1899 0.0
C159 C 0.1214 0.90088 0.21441 0.0
H160 H 1.00227 0.91717 0.22069 0.0
C161 C 0.14457 0.92416 0.29372 0.0
H162 H 0.05076 0.88004 0.12999 0.0
C163 C 0.11666 0.94512 0.34646 0.0
C164 C 0.06505 0.94352 0.32062 0.0
H165 H 0.18426 0.92736 0.31405 0.0
H166 H 0.13551 0.96335 0.40654 0.0
C167 C 0.04198 0.91956 0.24211 0.0
C168 C 0.59731 0.60155 0.68493 0.0
C169 C 0.62545 0.6432 0.71624 0.0
H170 H 0.54768 0.54842 0.70789 0.0
C171 C 0.62735 0.66072 0.80081 0.0
H172 H 0.59619 0.58559 0.62179 0.0
C173 C 0.6012 0.6377 0.85169 0.0
C174 C 0.57158 0.5976 0.81817 0.0
H175 H 0.64799 0.69288 0.82724 0.0
H176 H 0.60249 0.6524 0.91585 0.0
C177 C 0.56999 0.57964 0.73466 0.0
C178 C 0.8473 0.14385 0.20831 0.0
C179 C 0.88121 0.16238 0.16634 0.0
H180 H 0.83638 0.10561 0.31437 0.0
C181 C 0.93158 0.16278 0.20938 0.0
H182 H 0.80833 0.14267 0.17763 0.0
C183 C 0.9479 0.14069 0.28793 0.0
C184 C 0.91411 0.11805 0.32528 0.0
H185 H 0.95871 0.17787 0.18006 0.0
H186 H 0.98707 0.13851 0.31606 0.0
C187 C 0.86354 0.12219 0.28688 0.0
C188 C 0.44972 0.37901 0.68407 0.0
C189 C 0.40009 0.36981 0.64174 0.0
H190 H 0.5005 0.41368 0.79189 0.0
C191 C 0.36369 0.38186 0.68497 0.0
H192 H 0.4786 0.36961 0.65256 0.0
C193 C 0.37617 0.40731 0.76456 0.0
C194 C 0.42534 0.42088 0.80276 0.0
H195 H 0.32519 0.37531 0.65399 0.0
H196 H 0.34686 0.4193 0.79315 0.0
C197 C 0.46227 0.40409 0.7641 0.0
C198 C 0.67717 0.65987 0.37382 0.0
C199 C 0.64332 0.67474 0.42091 0.0
H200 H 0.68825 0.62419 0.25997 0.0
C201 C 0.59272 0.67204 0.37935 0.0
H202 H 0.71633 0.66114 0.40289 0.0
C203 C 0.57642 0.64968 0.29714 0.0
C204 C 0.61045 0.63012 0.25452 0.0
H205 H 0.56551 0.68449 0.41247 0.0
H206 H 0.53727 0.64462 0.27008 0.0
C207 C 0.66093 0.63818 0.29154 0.0
C208 C 0.88463 0.12391 0.79001 0.0
C209 C 0.90645 0.14888 0.86833 0.0
H210 H 0.89604 0.08527 0.67819 0.0
C211 C 0.95766 0.15578 0.89151 0.0
H212 H 0.84526 0.11761 0.77072 0.0
C213 C 0.98658 0.13693 0.83922 0.0
C214 C 0.96505 0.11091 0.76205 0.0
H215 H 0.97551 0.17557 0.95055 0.0
H216 H 0.02603 0.14251 0.85989 0.0
C217 C 0.91367 0.10519 0.73721 0.0
C218 C 0.41486 0.38525 0.2636 0.0
C219 C 0.41036 0.40501 0.34367 0.0
H220 H 0.44232 0.39421 0.15164 0.0
C221 C 0.42888 0.45165 0.36891 0.0
H222 H 0.40218 0.34929 0.24199 0.0
C223 C 0.45382 0.47636 0.31844 0.0
C224 C 0.45888 0.45593 0.23992 0.0
H225 H 0.42487 0.46909 0.42827 0.0
H226 H 0.46942 0.51136 0.34097 0.0
C227 C 0.43817 0.4108 0.21172 0.0
C228 C 0.18378 0.90669 0.88048 0.0
C229 C 0.14877 0.88673 0.91844 0.0
H230 H 0.19671 0.94831 0.77975 0.0
C231 C 0.09883 0.88691 0.87314 0.0
H232 H 0.22246 0.90741 0.91326 0.0
C233 C 0.08389 0.91088 0.79634 0.0
C234 C 0.11866 0.93509 0.76356 0.0
H235 H 0.07098 0.87096 0.89977 0.0
H236 H 0.04495 0.91349 0.76657 0.0
C237 C 0.1689 0.93049 0.80392 0.0
loop_
_geom_bond_atom_site_label_1
_geom_bond_atom_site_label_2
_geom_bond_distance
_geom_bond_site_symmetry_2
_ccdc_geom_bond_type
H0 C1 0.949 . S
C1 H0 0.949 . S
C1 C2 1.395 . S
C1 C3 1.391 . S
C2 C1 1.395 . S
C2 C5 1.390 . S
C3 C1 1.391 . S
C3 C7 1.387 1_554 S
C3 C8 1.491 . S
H4 C5 0.950 . S
C5 C2 1.390 . S
C5 H4 0.950 . S
C5 C6 1.378 1_554 S
C6 C5 1.378 1_556 S
C6 C7 1.409 . S
C7 C3 1.387 1_556 S
C7 C6 1.409 . S
C7 H9 0.951 . S
C8 C3 1.491 . S
C8 C10 1.382 . S
C8 C12 1.404 1_554 S
H9 C7 0.951 . S
C10 C8 1.382 . S
C10 C11 1.390 . S
C10 H15 0.949 . S
C11 C10 1.390 . S
C11 C16 1.399 . S
C12 C8 1.404 1_556 S
C12 H13 0.950 . S
C12 C14 1.375 . S
H13 C12 0.950 . S
C14 C12 1.375 . S
C14 C16 1.382 1_556 S
C14 H18 0.950 . S
H15 C10 0.949 . S
C16 C11 1.399 . S
C16 C14 1.382 1_554 S
C16 H17 0.952 . S
H17 C16 0.952 . S
H18 C14 0.950 . S
H19 C20 0.949 . S
C20 H19 0.949 . S
C20 C21 1.395 . S
C20 C22 1.391 . S
C21 C20 1.395 . S
C21 C24 1.390 . S
C22 C20 1.391 . S
C22 C26 1.387 . S
C22 C27 1.491 . S
H23 C24 0.950 . S
C24 C21 1.390 . S
C24 H23 0.950 . S
C24 C25 1.378 . S
C25 C24 1.378 . S
C25 C26 1.409 . S
C26 C22 1.387 . S
C26 C25 1.409 . S
C26 H28 0.951 . S
C27 C22 1.491 . S
C27 C29 1.382 . S
C27 C31 1.404 . S
H28 C26 0.951 . S
C29 C27 1.382 . S
C29 C30 1.390 . S
C29 H34 0.949 . S
C30 C29 1.390 . S
C30 C35 1.399 . S
C31 C27 1.404 . S
C31 H32 0.950 . S
C31 C33 1.375 . S
H32 C31 0.950 . S
C33 C31 1.375 . S
C33 C35 1.382 . S
C33 H37 0.950 . S
H34 C29 0.949 . S
C35 C30 1.399 . S
C35 C33 1.382 . S
C35 H36 0.952 . S
H36 C35 0.952 . S
H37 C33 0.950 . S
H38 C39 0.949 . S
C39 H38 0.949 . S
C39 C40 1.395 . S
C39 C41 1.391 1_554 S
C40 C39 1.395 . S
C40 C43 1.387 1_554 S
C41 C39 1.391 1_556 S
C41 C45 1.387 . S
C41 C46 1.491 . S
H42 C43 0.949 1_554 S
C43 C40 1.387 1_556 S
C43 H42 0.949 1_556 S
C43 C44 1.382 . S
C44 C43 1.382 . S
C44 C45 1.409 . S
C45 C41 1.387 . S
C45 C44 1.409 . S
C45 H47 0.951 . S
C46 C41 1.491 . S
C46 C48 1.390 . S
C46 C50 1.404 . S
H47 C45 0.951 . S
C48 C46 1.390 . S
C48 C49 1.391 . S
C48 H53 0.940 1_556 S
C49 C48 1.391 . S
C49 C54 1.399 . S
C50 C46 1.404 . S
C50 H51 0.950 . S
C50 C52 1.375 . S
H51 C50 0.950 . S
C52 C50 1.375 . S
C52 C54 1.382 . S
C52 H56 0.950 . S
H53 C48 0.940 1_554 S
C54 C49 1.399 . S
C54 C52 1.382 . S
C54 H55 0.952 . S
H55 C54 0.952 . S
H56 C52 0.950 . S
H57 C58 0.949 . S
C58 H57 0.949 . S
C58 C59 1.395 . S
C58 C60 1.391 . S
C59 C58 1.395 . S
C59 C62 1.390 . S
C60 C58 1.391 . S
C60 C64 1.387 . S
C60 C65 1.491 . S
H61 C62 0.950 . S
C62 C59 1.390 . S
C62 H61 0.950 . S
C62 C63 1.378 . S
C63 C62 1.378 . S
C63 C64 1.409 . S
C64 C60 1.387 . S
C64 C63 1.409 . S
C64 H66 0.951 . S
C65 C60 1.491 . S
C65 C67 1.382 . S
C65 C69 1.404 . S
H66 C64 0.951 . S
C67 C65 1.382 . S
C67 C68 1.390 . S
C67 H72 0.949 . S
C68 C67 1.390 . S
C68 C73 1.399 . S
C69 C65 1.404 . S
C69 H70 0.950 . S
C69 C71 1.375 . S
H70 C69 0.950 . S
C71 C69 1.375 . S
C71 C73 1.382 . S
C71 H75 0.950 . S
H72 C67 0.949 . S
C73 C68 1.399 . S
C73 C71 1.382 . S
C73 H74 0.952 . S
H74 C73 0.952 . S
H75 C71 0.950 . S
O76 Mg77 1.990 . S
O76 C90 1.253 1_455 S
Mg77 O76 1.990 . S
Mg77 O80 2.180 . S
Mg77 O81 2.117 . S
Mg77 O95 2.030 . S
O78 Mg79 2.072 1_655 S
O78 C90 1.260 . S
Mg79 O78 2.072 1_455 S
Mg79 O80 2.099 . S
Mg79 O82 2.079 1_545 S
Mg79 O83 2.072 1_455 S
Mg79 O85 2.099 1_445 S
Mg79 O96 2.079 1_545 S
O80 Mg77 2.180 . S
O80 Mg79 2.099 . S
O80 C91 1.279 . S
O81 Mg77 2.117 . S
O81 C91 1.250 . S
O82 Mg79 2.079 1_565 S
O82 C92 1.264 . S
O83 Mg79 2.072 1_655 S
O83 C93 1.260 . S
Mg84 O85 2.180 . S
Mg84 O86 2.030 1_655 S
Mg84 O87 1.990 1_565 S
Mg84 O88 2.117 . S
O85 Mg79 2.099 1_665 S
O85 Mg84 2.180 . S
O85 C94 1.279 . S
O86 Mg84 2.030 1_455 S
O86 C92 1.248 . S
O87 Mg84 1.990 1_545 S
O87 C93 1.253 . S
O88 Mg84 2.117 . S
O88 C94 1.250 . S
C89 O95 1.248 1_565 S
C89 O96 1.264 . S
C90 O76 1.253 1_655 S
C90 O78 1.260 . S
C91 O80 1.279 . S
C91 O81 1.250 . S
C92 O82 1.264 . S
C92 O86 1.248 . S
C93 O83 1.260 . S
C93 O87 1.253 . S
C94 O85 1.279 . S
C94 O88 1.250 . S
O95 Mg77 2.030 . S
O95 C89 1.248 1_545 S
O96 Mg79 2.079 1_565 S
O96 C89 1.264 . S
O97 Mg98 1.990 . S
O97 C111 1.253 . S
Mg98 O97 1.990 . S
Mg98 O101 2.180 . S
Mg98 O102 2.117 . S
Mg98 O116 2.030 . S
O99 Mg100 2.072 . S
O99 C111 1.260 . S
Mg100 O99 2.072 . S
Mg100 O101 2.099 . S
Mg100 O103 2.079 1_554 S
Mg100 O104 2.072 1_554 S
Mg100 O106 2.099 . S
Mg100 O117 2.079 . S
O101 Mg98 2.180 . S
O101 Mg100 2.099 . S
O101 C112 1.279 . S
O102 Mg98 2.117 . S
O102 C112 1.250 . S
O103 Mg100 2.079 1_556 S
O103 C113 1.264 . S
O104 Mg100 2.072 1_556 S
O104 C114 1.260 . S
Mg105 O106 2.180 1_556 S
Mg105 O107 2.030 . S
Mg105 O108 1.990 . S
Mg105 O109 2.117 . S
O106 Mg100 2.099 . S
O106 Mg105 2.180 1_554 S
O106 C115 1.279 . S
O107 Mg105 2.030 . S
O107 C113 1.248 . S
O108 Mg105 1.990 . S
O108 C114 1.253 . S
O109 Mg105 2.117 . S
O109 C115 1.250 1_556 S
C110 O116 1.248 . S
C110 O117 1.264 . S
C111 O97 1.253 . S
C111 O99 1.260 . S
C112 O101 1.279 . S
C112 O102 1.250 . S
C113 O103 1.264 . S
C113 O107 1.248 . S
C114 O104 1.260 . S
C114 O108 1.253 . S
C115 O106 1.279 . S
C115 O109 1.250 1_554 S
O116 Mg98 2.030 . S
O116 C110 1.248 . S
O117 Mg100 2.079 . S
O117 C110 1.264 . S
C118 C119 1.387 . S
C118 H122 0.950 . S
C118 C127 1.390 . S
C119 C118 1.387 . S
C119 C121 1.387 . S
H120 C127 0.950 . S
C121 C119 1.387 . S
C121 C123 1.390 . S
C121 H125 0.950 . S
H122 C118 0.950 . S
C123 C121 1.390 . S
C123 C124 1.387 . S
C123 H126 0.950 . S
C124 C123 1.387 . S
C124 C127 1.387 . S
H125 C121 0.950 . S
H126 C123 0.950 . S
C127 C118 1.390 . S
C127 H120 0.950 . S
C127 C124 1.387 . S
C128 C129 1.387 . S
C128 H132 0.950 1_554 S
C128 C137 1.390 . S
C129 C128 1.387 . S
C129 C131 1.387 . S
H130 C137 0.950 1_556 S
C131 C129 1.387 . S
C131 C133 1.390 . S
C131 H135 0.950 . S
H132 C128 0.950 1_556 S
C133 C131 1.390 . S
C133 C134 1.387 . S
C133 H136 0.950 . S
C134 C133 1.387 . S
C134 C137 1.387 . S
H135 C131 0.950 . S
H136 C133 0.950 . S
C137 C128 1.390 . S
C137 H130 0.950 1_554 S
C137 C134 1.387 . S
C138 C139 1.387 . S
C138 H142 0.950 . S
C138 C147 1.390 . S
C139 C138 1.387 . S
C139 C141 1.387 . S
H140 C147 0.950 . S
C141 C139 1.387 . S
C141 C143 1.390 . S
C141 H145 0.950 . S
H142 C138 0.950 . S
C143 C141 1.390 . S
C143 C144 1.387 . S
C143 H146 0.950 . S
C144 C143 1.387 . S
C144 C147 1.387 . S
H145 C141 0.950 . S
H146 C143 0.950 . S
C147 C138 1.390 . S
C147 H140 0.950 . S
C147 C144 1.387 . S
C148 C149 1.387 . S
C148 H152 0.950 . S
C148 C157 1.390 . S
C149 C148 1.387 . S
C149 C151 1.387 1_554 S
H150 C157 0.950 . S
C151 C149 1.387 1_556 S
C151 C153 1.390 . S
C151 H155 0.950 . S
H152 C148 0.950 . S
C153 C151 1.390 . S
C153 C154 1.387 1_556 S
C153 H156 0.950 . S
C154 C153 1.387 1_554 S
C154 C157 1.387 . S
H155 C151 0.950 . S
H156 C153 0.950 . S
C157 C148 1.390 . S
C157 H150 0.950 . S
C157 C154 1.387 . S
C158 C159 1.387 . S
C158 H162 0.950 . S
C158 C167 1.390 . S
C159 C158 1.387 . S
C159 C161 1.387 . S
H160 C167 0.950 . S
C161 C159 1.387 . S
C161 C163 1.390 . S
C161 H165 0.950 . S
H162 C158 0.950 . S
C163 C161 1.390 . S
C163 C164 1.387 . S
C163 H166 0.950 . S
C164 C163 1.387 . S
C164 C167 1.387 . S
H165 C161 0.950 . S
H166 C163 0.950 . S
C167 C158 1.390 . S
C167 H160 0.950 . S
C167 C164 1.387 . S
C168 C169 1.387 . S
C168 H172 0.950 . S
C168 C177 1.390 . S
C169 C168 1.387 . S
C169 C171 1.387 . S
H170 C177 0.950 . S
C171 C169 1.387 . S
C171 C173 1.390 . S
C171 H175 0.950 . S
H172 C168 0.950 . S
C173 C171 1.390 . S
C173 C174 1.387 . S
C173 H176 0.950 . S
C174 C173 1.387 . S
C174 C177 1.387 . S
H175 C171 0.950 . S
H176 C173 0.950 . S
C177 C168 1.390 . S
C177 H170 0.950 . S
C177 C174 1.387 . S
C178 C179 1.387 . S
C178 H182 0.950 . S
C178 C187 1.390 . S
C179 C178 1.387 . S
C179 C181 1.387 . S
H180 C187 0.950 . S
C181 C179 1.387 . S
C181 C183 1.390 . S
C181 H185 0.950 . S
H182 C178 0.950 . S
C183 C181 1.390 . S
C183 C184 1.387 . S
C183 H186 0.950 . S
C184 C183 1.387 . S
C184 C187 1.387 . S
H185 C181 0.950 . S
H186 C183 0.950 . S
C187 C178 1.390 . S
C187 H180 0.950 . S
C187 C184 1.387 . S
C188 C189 1.387 . S
C188 H192 0.950 . S
C188 C197 1.390 . S
C189 C188 1.387 . S
C189 C191 1.387 . S
H190 C197 0.950 . S
C191 C189 1.387 . S
C191 C193 1.390 . S
C191 H195 0.950 . S
H192 C188 0.950 . S
C193 C191 1.390 . S
C193 C194 1.387 . S
C193 H196 0.950 . S
C194 C193 1.387 . S
C194 C197 1.387 . S
H195 C191 0.950 . S
H196 C193 0.950 . S
C197 C188 1.390 . S
C197 H190 0.950 . S
C197 C194 1.387 . S
C198 C199 1.387 . S
C198 H202 0.950 . S
C198 C207 1.390 . S
C199 C198 1.387 . S
C199 C201 1.387 . S
H200 C207 0.950 . S
C201 C199 1.387 . S
C201 C203 1.390 . S
C201 H205 0.950 . S
H202 C198 0.950 . S
C203 C201 1.390 . S
C203 C204 1.387 . S
C203 H206 0.950 . S
C204 C203 1.387 . S
C204 C207 1.387 . S
H205 C201 0.950 . S
H206 C203 0.950 . S
C207 C198 1.390 . S
C207 H200 0.950 . S
C207 C204 1.387 . S
C208 C209 1.387 . S
C208 H212 0.950 . S
C208 C217 1.390 . S
C209 C208 1.387 . S
C209 C211 1.387 . S
H210 C217 0.950 . S
C211 C209 1.387 . S
C211 C213 1.390 . S
C211 H215 0.950 . S
H212 C208 0.950 . S
C213 C211 1.390 . S
C213 C214 1.387 . S
C213 H216 0.950 1_655 S
C214 C213 1.387 . S
C214 C217 1.387 . S
H215 C211 0.950 . S
H216 C213 0.950 1_455 S
C217 C208 1.390 . S
C217 H210 0.950 . S
C217 C214 1.387 . S
C218 C219 1.387 . S
C218 H222 0.950 . S
C218 C227 1.390 . S
C219 C218 1.387 . S
C219 C221 1.387 . S
H220 C227 0.950 . S
C221 C219 1.387 . S
C221 C223 1.390 . S
C221 H225 0.950 . S
H222 C218 0.950 . S
C223 C221 1.390 . S
C223 C224 1.387 . S
C223 H226 0.950 . S
C224 C223 1.387 . S
C224 C227 1.387 . S
H225 C221 0.950 . S
H226 C223 0.950 . S
C227 C218 1.390 . S
C227 H220 0.950 . S
C227 C224 1.387 . S
C228 C229 1.387 . S
C228 H232 0.950 . S
C228 C237 1.390 . S
C229 C228 1.387 . S
C229 C231 1.387 . S
H230 C237 0.950 1_545 S
C231 C229 1.387 . S
C231 C233 1.390 . S
C231 H235 0.950 . S
H232 C228 0.950 . S
C233 C231 1.390 . S
C233 C234 1.387 . S
C233 H236 0.950 . S
C234 C233 1.387 . S
C234 C237 1.387 . S
H235 C231 0.950 . S
H236 C233 0.950 . S
C237 C228 1.390 . S
C237 H230 0.950 1_565 S
C237 C234 1.387 . S
C124 C91 1.288 . S
C119 C68 1.394 . S
C129 C11 1.363 . S
C134 C115 1.373 . S
C139 C30 1.519 . S
C144 C94 1.423 . S
C149 C49 1.494 1_554 S
C154 C112 1.382 . S
C164 C92 1.557 . S
C159 C2 1.532 . S
C174 C114 1.570 . S
C169 C25 1.645 . S
C179 C40 1.622 . S
C184 C93 1.594 . S
C189 C59 1.537 . S
C194 C113 1.496 . S
C204 C111 1.496 . S
C199 C21 1.531 . S
C214 C90 1.481 . S
C209 C44 1.551 . S
C224 C110 1.449 . S
C219 C63 1.477 . S
C229 C6 1.493 . S
C234 C89 1.429 . S
