# Generated by pormake.
# Topology anh, (6,3)-cn, num edge types: 1
# Building blocks:
#     Node 0, Type 0, BuildingBlock: BETDIP_clean_sbu_0, # of connection points: 6
#     Node 1, Type 0, BuildingBlock: BETDIP_clean_sbu_0, # of connection points: 6
#     Node 2, Type 0, BuildingBlock: BETDIP_clean_sbu_0, # of connection points: 6
#     Node 3, Type 1, BuildingBlock: BETDAH_clean_linker_0, # of connection points: 3
#     Node 4, Type 1, BuildingBlock: BETDAH_clean_linker_0, # of connection points: 3
#     Node 5, Type 1, BuildingBlock: BETDAH_clean_linker_0, # of connection points: 3
#     Node 6, Type 1, BuildingBlock: BETDAH_clean_linker_0, # of connection points: 3
#     Node 7, Type 1, BuildingBlock: BETDAH_clean_linker_0, # of connection points: 3
#     Node 8, Type 1, BuildingBlock: BETDAH_clean_linker_0, # of connection points: 3
#     Edge 9, Type (0, 1), None
#     Edge 10, Type (0, 1), None
#     Edge 11, Type (0, 1), None
#     Edge 12, Type (0, 1), None
#     Edge 13, Type (0, 1), None
#     Edge 14, Type (0, 1), None
#     Edge 15, Type (0, 1), None
#     Edge 16, Type (0, 1), None
#     Edge 17, Type (0, 1), None
#     Edge 18, Type (0, 1), None
#     Edge 19, Type (0, 1), None
#     Edge 20, Type (0, 1), None
#     Edge 21, Type (0, 1), None
#     Edge 22, Type (0, 1), None
#     Edge 23, Type (0, 1), None
#     Edge 24, Type (0, 1), None
#     Edge 25, Type (0, 1), None
#     Edge 26, Type (0, 1), None
# Relax obj value: 0.757
# Max RMSD: 0.222
# Mean RMSD: 0.156
data_MOF--net-anh--node1-BETDIP_clean_sbu_0--node2-BETDAH_clean_linker_0--edge1-none
_symmetry_space_group_name_H-M    P1
_symmetry_Int_Tables_number       1
_symmetry_cell_setting            triclinic
loop_
_symmetry_equiv_pos_as_xyz
'x, y, z'
_cell_length_a     13.775588
_cell_length_b     13.735808
_cell_length_c     21.913978
_cell_angle_alpha  93.121607
_cell_angle_beta   92.322186
_cell_angle_gamma 119.52079
loop_
_atom_site_label
_atom_site_type_symbol
_atom_site_fract_x
_atom_site_fract_y
_atom_site_fract_z
_atom_type_partial_charge
Tb0 Tb 0.33483 0.78201 0.07747 0.0
Tb1 Tb 1.24413 0.60611 0.13997 0.0
C2 C 0.45019 0.94429 0.01492 0.0
C3 C 0.56789 1.02936 0.01506 0.0
C4 C 0.6404 1.01725 0.05642 0.0
C5 C 0.68676 1.09399 0.10769 0.0
C6 C 0.67106 1.18804 0.11163 0.0
C7 C 0.63942 0.21859 0.05703 0.0
C8 C 0.58681 1.1376 0.00783 0.0
C9 C 1.20903 0.58905 0.00661 0.0
C10 C 0.49064 0.68105 0.10484 0.0
C11 C 1.09576 0.43676 0.18203 0.0
C12 C 0.99238 0.43869 0.19627 0.0
C13 C 0.91894 0.43222 0.14765 0.0
C14 C 0.84687 0.47483 0.15631 0.0
C15 C 0.84141 0.51911 0.21426 0.0
C16 C 0.90957 0.52014 0.26382 0.0
C17 C 0.98414 0.47986 0.25493 0.0
C18 C 0.3567 0.77671 0.22439 0.0
C19 C 1.09277 0.72031 0.09109 0.0
O20 O 0.40203 0.95212 0.06388 0.0
O21 O 0.42575 0.8414 0.00023 0.0
O22 O 1.28195 0.60843 0.04865 0.0
O23 O 1.2028 0.6791 0.00559 0.0
O24 O 0.48935 0.77641 0.1039 0.0
O25 O 0.39375 0.59055 0.1144 0.0
O26 O 1.11473 0.43788 0.12412 0.0
O27 O 1.18569 0.50932 0.21555 0.0
O28 O 0.2985 0.77712 0.17643 0.0
O29 O 0.36455 0.68695 0.218 0.0
O30 O 1.09608 0.63238 0.11217 0.0
O31 O 1.18888 0.80451 0.07902 0.0
H32 H 0.63885 0.9379 0.05734 0.0
H33 H 0.71885 1.06979 0.14629 0.0
H34 H 0.6393 0.29705 0.05514 0.0
H35 H 0.53992 1.15205 0.97202 0.0
H36 H 0.92146 0.40032 0.10178 0.0
H37 H 0.79035 0.46707 0.11811 0.0
H38 H 0.90214 0.54782 0.30969 0.0
H39 H 1.03772 0.4837 0.29356 0.0
Tb40 Tb 0.83334 0.2035 0.43286 0.0
Tb41 Tb 0.70206 0.30648 0.46438 0.0
C42 C 0.93252 1.09266 0.43764 0.0
C43 C 1.04501 1.11346 0.45702 0.0
C44 C 1.09027 1.15052 0.51786 0.0
C45 C 1.18067 1.13898 0.53904 0.0
C46 C 1.22359 1.08773 0.49995 0.0
C47 C 1.19301 1.07158 0.43698 0.0
C48 C 1.10229 1.08257 0.41564 0.0
C49 C 0.76038 0.26259 0.33793 0.0
C50 C 0.55767 1.04065 0.41947 0.0
C51 C 0.60975 0.42627 0.46628 0.0
C52 C 0.64251 0.53145 0.43771 0.0
C53 C 0.73405 0.57161 0.40124 0.0
C54 C 0.8166 0.68441 0.40987 0.0
C55 C 0.8072 0.75103 0.45745 0.0
C56 C 0.69728 0.7233 0.47011 0.0
C57 C 0.61596 0.60917 0.46501 0.0
C58 C 0.77446 0.2474 0.56513 0.0
C59 C 0.96718 0.46509 0.43042 0.0
O60 O 0.86985 1.09587 0.48045 0.0
O61 O 0.92562 1.1406 0.38914 0.0
O62 O 0.71072 0.22352 0.38447 0.0
O63 O 0.85312 0.25978 0.34006 0.0
O64 O 0.659 1.0501 0.41537 0.0
O65 O 0.554 1.13272 0.43914 0.0
O66 O 0.57575 0.33665 0.42919 0.0
O67 O 0.682 0.4337 0.50942 0.0
O68 O 0.82891 0.29093 0.51868 0.0
O69 O 0.67568 0.23476 0.55318 0.0
O70 O 0.86488 0.45347 0.43526 0.0
O71 O 0.9786 0.37584 0.43698 0.0
H72 H 1.04965 1.17794 0.55039 0.0
H73 H 1.20366 1.15231 0.58794 0.0
H74 H 1.22516 1.03166 0.40616 0.0
H75 H 1.07002 1.05585 0.36818 0.0
H76 H 0.75294 0.51483 0.37557 0.0
H77 H 0.89672 0.70821 0.39192 0.0
H78 H 0.68412 0.77972 0.50069 0.0
H79 H 0.54285 0.58139 0.49093 0.0
Tb80 Tb 0.7637 0.66639 0.77317 0.0
Tb81 Tb 1.00258 0.79083 0.79698 0.0
C82 C 0.55862 0.57048 0.78606 0.0
C83 C 0.47687 0.45513 0.79947 0.0
C84 C 0.46797 0.42408 0.85986 0.0
C85 C 0.37693 0.3239 0.87404 0.0
C86 C 1.2927 0.25466 0.82847 0.0
C87 C 0.31051 0.2762 0.76698 0.0
C88 C 0.40129 0.37723 0.75256 0.0
C89 C 0.87449 0.70478 0.67405 0.0
C90 C 0.88528 0.93972 0.77204 0.0
C91 C 1.20904 0.86142 0.79062 0.0
C92 C 1.26379 0.79944 0.767 0.0
C93 C 1.19816 0.69694 0.7313 0.0
C94 C 1.20777 0.60355 0.74457 0.0
C95 C 1.28683 0.61647 0.79121 0.0
C96 C 0.37816 0.72559 0.80654 0.0
C97 C 0.36276 0.81751 0.79819 0.0
C98 C 0.89464 0.75385 0.90104 0.0
C99 C 0.8737 0.51666 0.75647 0.0
O100 O 0.6347 0.63426 0.83017 0.0
O101 O 0.59961 0.58109 0.73254 0.0
O102 O 0.89718 0.77043 0.72094 0.0
O103 O 0.77719 0.61756 0.67831 0.0
O104 O 0.78946 0.84208 0.77103 0.0
O105 O 0.98213 0.94027 0.7812 0.0
O106 O 1.14828 0.87947 0.75074 0.0
O107 O 1.15636 0.82384 0.83981 0.0
O108 O 0.87096 0.68452 0.85385 0.0
O109 O 0.98177 0.84626 0.88869 0.0
O110 O 0.96792 0.61622 0.76223 0.0
O111 O 0.77879 0.5139 0.76729 0.0
H112 H 0.52587 0.48086 0.89705 0.0
H113 H 0.36422 0.30935 0.92195 0.0
H114 H 1.24553 0.22486 0.73116 0.0
H115 H 0.40705 0.39814 0.7054 0.0
H116 H 1.12755 0.68361 0.70163 0.0
H117 H 1.14056 0.52085 0.72772 0.0
H118 H 0.44554 0.73785 0.83899 0.0
H119 H 0.41819 0.89713 0.82402 0.0
H120 H 0.77488 1.19685 0.22315 0.0
H121 H 0.62867 0.35221 0.32898 0.0
H122 H 0.55611 0.30092 0.13741 0.0
C123 C 0.71721 0.22874 0.2254 0.0
C124 C 0.6607 0.2347 0.17216 0.0
C125 C 0.70083 0.26609 0.28233 0.0
C126 C 0.63149 0.31328 0.28609 0.0
C127 C 0.59478 0.34136 0.23324 0.0
C128 C 0.5938 0.28621 0.17747 0.0
N129 N 0.62681 0.4562 0.23224 0.0
C130 C 0.74041 0.52188 0.2253 0.0
H131 H 0.76105 0.69954 0.57466 0.0
H132 H 1.09248 0.79973 0.64594 0.0
H133 H 1.03678 0.85863 0.46113 0.0
C134 C 0.84944 0.7396 0.56773 0.0
C135 C 0.8895 0.7813 0.51132 0.0
C136 C 0.92105 0.74446 0.61573 0.0
C137 C 1.03587 0.79348 0.60876 0.0
C138 C 1.07901 0.83825 0.55399 0.0
C139 C 1.00494 0.82977 0.50477 0.0
N140 N 1.197 0.90092 0.5509 0.0
C141 C 1.23996 1.00296 0.52557 0.0
H142 H 1.28665 0.68122 0.90711 0.0
H143 H 1.11536 0.35966 0.97865 0.0
H144 H 1.1801 0.38435 0.78695 0.0
C145 C 1.24812 0.59071 0.89965 0.0
C146 C 1.24428 0.54127 0.84157 0.0
C147 C 1.20018 0.52691 0.94836 0.0
C148 C 1.14804 0.40951 0.94013 0.0
C149 C 1.14241 0.35715 0.8821 0.0
C150 C 1.18694 0.42385 0.83226 0.0
N151 N 1.10978 0.24119 0.87612 0.0
C152 C 1.18114 0.21461 0.8459 0.0
H153 H 0.51585 0.96052 0.29782 0.0
H154 H 1.18913 0.66725 0.30214 0.0
H155 H 0.35857 0.87972 0.4684 0.0
C156 C 0.44483 0.90833 0.32313 0.0
C157 C 0.45107 0.93537 0.38759 0.0
C158 C 0.34987 0.81426 0.29071 0.0
C159 C 1.25915 0.74121 0.32548 0.0
C160 C 1.25989 0.76173 0.39011 0.0
C161 C 0.35625 0.86139 0.41951 0.0
N162 N 1.16858 0.68937 0.42781 0.0
C163 C 1.07014 0.57845 0.42068 0.0
H164 H 0.82014 0.43535 0.63599 0.0
H165 H 0.82947 1.12583 0.6452 0.0
H166 H 0.91227 0.35399 0.8079 0.0
C167 C 0.83788 0.38041 0.66215 0.0
C168 C 0.86986 0.41029 0.72584 0.0
C169 C 0.82432 0.27941 0.63164 0.0
C170 C 0.84274 0.20445 0.66714 0.0
C171 C 0.87524 0.23007 0.7313 0.0
C172 C 0.88884 0.33388 0.75916 0.0
N173 N 0.89351 1.1568 0.77085 0.0
C174 C 0.88449 1.04803 0.76295 0.0
H175 H 1.04791 0.73878 0.97245 0.0
H176 H 0.72031 0.70741 0.97904 0.0
H177 H 0.89742 0.69615 0.14396 0.0
C178 C 0.97752 0.72496 -0.00159 0.0
C179 C 0.98433 0.7123 0.06192 0.0
C180 C 0.88392 0.72304 0.96729 0.0
C181 C 0.79152 0.70736 0.0018 0.0
C182 C 0.79348 0.69494 0.06618 0.0
C183 C 0.89188 0.69952 0.0949 0.0
N184 N 0.70239 0.67764 0.10486 0.0
C185 C 0.59859 0.67855 0.09714 0.0
loop_
_geom_bond_atom_site_label_1
_geom_bond_atom_site_label_2
_geom_bond_distance
_geom_bond_site_symmetry_2
_ccdc_geom_bond_type
Tb0 C2 2.809 . S
Tb0 O20 2.484 . S
Tb0 O21 2.440 . S
Tb0 O22 2.658 1_455 S
Tb0 O23 2.409 1_554 S
Tb0 O24 2.378 . S
Tb0 O28 2.325 . S
Tb0 O31 2.341 1_455 S
Tb1 C11 2.809 . S
Tb1 O22 2.325 . S
Tb1 O25 2.341 1_655 S
Tb1 O26 2.484 . S
Tb1 O27 2.440 . S
Tb1 O28 2.658 1_655 S
Tb1 O29 2.409 . S
Tb1 O30 2.378 . S
C2 Tb0 2.809 . S
C2 C3 1.514 . S
C2 O20 1.248 . S
C2 O21 1.266 . S
C3 C2 1.514 . S
C3 C4 1.359 . S
C3 C8 1.348 . S
C4 C3 1.359 . S
C4 C5 1.380 . S
C4 H32 0.929 . S
C5 C4 1.380 . S
C5 C6 1.347 . S
C5 H33 0.931 . S
C6 C5 1.347 . S
C6 C7 1.369 . S
C7 C6 1.369 . S
C7 C8 1.408 . S
C7 H34 0.931 1_565 S
C8 C3 1.348 . S
C8 C7 1.408 . S
C8 H35 0.930 . S
C9 O22 1.281 1_456 S
C9 O23 1.254 . S
C10 O24 1.236 . S
C10 O25 1.266 . S
C11 Tb1 2.809 . S
C11 C12 1.514 . S
C11 O26 1.248 . S
C11 O27 1.266 . S
C12 C11 1.514 . S
C12 C13 1.359 . S
C12 C17 1.348 . S
C13 C12 1.359 . S
C13 C14 1.380 . S
C13 H36 0.929 . S
C14 C13 1.380 . S
C14 C15 1.347 . S
C14 H37 0.917 1_554 S
C15 C14 1.347 . S
C15 C16 1.369 . S
C16 C15 1.369 . S
C16 C17 1.408 . S
C16 H38 0.930 . S
C17 C12 1.348 . S
C17 C16 1.408 . S
C17 H39 0.930 . S
C18 O28 1.281 . S
C18 O29 1.254 1_455 S
C19 O30 1.236 . S
C19 O31 1.266 . S
O20 Tb0 2.484 . S
O20 C2 1.248 . S
O21 Tb0 2.440 . S
O21 C2 1.266 . S
O22 Tb0 2.658 1_655 S
O22 Tb1 2.325 . S
O22 C9 1.281 1_654 S
O23 Tb0 2.409 1_556 S
O23 C9 1.254 . S
O24 Tb0 2.378 . S
O24 C10 1.236 . S
O25 Tb1 2.341 1_455 S
O25 C10 1.266 . S
O26 Tb1 2.484 . S
O26 C11 1.248 . S
O27 Tb1 2.440 . S
O27 C11 1.266 . S
O28 Tb0 2.325 . S
O28 Tb1 2.658 1_455 S
O28 C18 1.281 . S
O29 Tb1 2.409 . S
O29 C18 1.254 1_655 S
O30 Tb1 2.378 . S
O30 C19 1.236 . S
O31 Tb0 2.341 1_655 S
O31 C19 1.266 . S
H32 C4 0.929 . S
H33 C5 0.931 . S
H34 C7 0.931 1_545 S
H35 C8 0.930 . S
H36 C13 0.929 . S
H37 C14 0.917 1_556 S
H38 C16 0.930 . S
H39 C17 0.930 . S
Tb40 C42 2.809 . S
Tb40 O60 2.484 . S
Tb40 O61 2.440 . S
Tb40 O62 2.658 1_565 S
Tb40 O63 2.409 . S
Tb40 O64 2.378 . S
Tb40 O68 2.325 1_565 S
Tb40 O71 2.341 1_565 S
Tb41 C51 2.809 . S
Tb41 O62 2.325 . S
Tb41 O65 2.341 1_545 S
Tb41 O66 2.484 . S
Tb41 O67 2.440 . S
Tb41 O68 2.658 . S
Tb41 O69 2.409 . S
Tb41 O70 2.378 . S
C42 Tb40 2.809 . S
C42 C43 1.514 . S
C42 O60 1.248 . S
C42 O61 1.266 . S
C43 C42 1.514 . S
C43 C44 1.359 . S
C43 C48 1.348 . S
C44 C43 1.359 . S
C44 C45 1.380 . S
C44 H72 0.929 . S
C45 C44 1.380 . S
C45 C46 1.347 . S
C45 H73 0.931 . S
C46 C45 1.347 . S
C46 C47 1.369 . S
C47 C46 1.369 . S
C47 C48 1.408 . S
C47 H74 0.930 . S
C48 C43 1.348 . S
C48 C47 1.408 . S
C48 H75 0.930 . S
C49 O62 1.281 . S
C49 O63 1.254 1_545 S
C50 O64 1.236 . S
C50 O65 1.266 . S
C51 Tb41 2.809 . S
C51 C52 1.514 . S
C51 O66 1.248 . S
C51 O67 1.266 . S
C52 C51 1.514 . S
C52 C53 1.359 . S
C52 C57 1.348 . S
C53 C52 1.359 . S
C53 C54 1.380 . S
C53 H76 0.929 . S
C54 C53 1.380 . S
C54 C55 1.347 . S
C54 H77 0.931 . S
C55 C54 1.347 . S
C55 C56 1.369 . S
C56 C55 1.369 . S
C56 C57 1.408 . S
C56 H78 0.930 . S
C57 C52 1.348 . S
C57 C56 1.408 . S
C57 H79 0.930 . S
C58 O68 1.281 . S
C58 O69 1.254 . S
C59 O70 1.236 . S
C59 O71 1.266 . S
O60 Tb40 2.484 . S
O60 C42 1.248 . S
O61 Tb40 2.440 . S
O61 C42 1.266 . S
O62 Tb40 2.658 1_545 S
O62 Tb41 2.325 . S
O62 C49 1.281 . S
O63 Tb40 2.409 . S
O63 C49 1.254 1_565 S
O64 Tb40 2.378 . S
O64 C50 1.236 . S
O65 Tb41 2.341 1_565 S
O65 C50 1.266 . S
O66 Tb41 2.484 . S
O66 C51 1.248 . S
O67 Tb41 2.440 . S
O67 C51 1.266 . S
O68 Tb40 2.325 1_545 S
O68 Tb41 2.658 . S
O68 C58 1.281 . S
O69 Tb41 2.409 . S
O69 C58 1.254 . S
O70 Tb41 2.378 . S
O70 C59 1.236 . S
O71 Tb40 2.341 1_545 S
O71 C59 1.266 . S
H72 C44 0.929 . S
H73 C45 0.931 . S
H74 C47 0.930 . S
H75 C48 0.930 . S
H76 C53 0.929 . S
H77 C54 0.931 . S
H78 C56 0.930 . S
H79 C57 0.930 . S
Tb80 C82 2.809 . S
Tb80 O100 2.484 . S
Tb80 O101 2.440 . S
Tb80 O102 2.658 . S
Tb80 O103 2.409 . S
Tb80 O104 2.378 . S
Tb80 O108 2.325 . S
Tb80 O111 2.341 . S
Tb81 C91 2.809 . S
Tb81 O102 2.325 . S
Tb81 O105 2.341 . S
Tb81 O106 2.484 . S
Tb81 O107 2.440 . S
Tb81 O108 2.658 . S
Tb81 O109 2.409 . S
Tb81 O110 2.378 . S
C82 Tb80 2.809 . S
C82 C83 1.514 . S
C82 O100 1.248 . S
C82 O101 1.266 . S
C83 C82 1.514 . S
C83 C84 1.359 . S
C83 C88 1.348 . S
C84 C83 1.359 . S
C84 C85 1.380 . S
C84 H112 0.929 . S
C85 C84 1.380 . S
C85 C86 1.347 . S
C85 H113 0.931 . S
C86 C85 1.347 . S
C86 C87 1.369 . S
C87 C86 1.369 . S
C87 C88 1.408 . S
C87 H114 0.930 . S
C88 C83 1.348 . S
C88 C87 1.408 . S
C88 H115 0.930 . S
C89 O102 1.281 . S
C89 O103 1.254 . S
C90 O104 1.236 . S
C90 O105 1.266 . S
C91 Tb81 2.809 . S
C91 C92 1.514 . S
C91 O106 1.248 . S
C91 O107 1.266 . S
C92 C91 1.514 . S
C92 C93 1.359 . S
C92 C97 1.348 . S
C93 C92 1.359 . S
C93 C94 1.380 . S
C93 H116 0.929 . S
C94 C93 1.380 . S
C94 C95 1.347 . S
C94 H117 0.931 . S
C95 C94 1.347 . S
C95 C96 1.369 . S
C96 C95 1.369 . S
C96 C97 1.408 . S
C96 H118 0.930 . S
C97 C92 1.348 . S
C97 C96 1.408 . S
C97 H119 0.930 . S
C98 O108 1.281 . S
C98 O109 1.254 . S
C99 O110 1.236 . S
C99 O111 1.266 . S
O100 Tb80 2.484 . S
O100 C82 1.248 . S
O101 Tb80 2.440 . S
O101 C82 1.266 . S
O102 Tb80 2.658 . S
O102 Tb81 2.325 . S
O102 C89 1.281 . S
O103 Tb80 2.409 . S
O103 C89 1.254 . S
O104 Tb80 2.378 . S
O104 C90 1.236 . S
O105 Tb81 2.341 . S
O105 C90 1.266 . S
O106 Tb81 2.484 . S
O106 C91 1.248 . S
O107 Tb81 2.440 . S
O107 C91 1.266 . S
O108 Tb80 2.325 . S
O108 Tb81 2.658 . S
O108 C98 1.281 . S
O109 Tb81 2.409 . S
O109 C98 1.254 . S
O110 Tb81 2.378 . S
O110 C99 1.236 . S
O111 Tb80 2.341 . S
O111 C99 1.266 . S
H112 C84 0.929 . S
H113 C85 0.931 . S
H114 C87 0.930 . S
H115 C88 0.930 . S
H116 C93 0.929 . S
H117 C94 0.931 . S
H118 C96 0.930 . S
H119 C97 0.930 . S
H120 C123 0.929 . S
H121 C126 0.929 . S
H122 C128 0.930 1_565 S
C123 H120 0.929 . S
C123 C124 1.398 . S
C123 C125 1.396 1_565 S
C124 C123 1.398 . S
C124 C128 1.407 1_565 S
C125 C123 1.396 1_545 S
C125 C126 1.394 . S
C126 H121 0.929 . S
C126 C125 1.394 . S
C126 C127 1.382 . S
C127 C126 1.382 . S
C127 C128 1.392 . S
C127 N129 1.420 . S
C128 H122 0.930 1_545 S
C128 C124 1.407 1_545 S
C128 C127 1.392 . S
N129 C127 1.420 . S
N129 C130 1.244 . S
C130 N129 1.244 . S
H131 C134 0.929 . S
H132 C137 0.929 . S
H133 C139 0.930 . S
C134 H131 0.929 . S
C134 C135 1.398 . S
C134 C136 1.396 . S
C135 C134 1.398 . S
C135 C139 1.407 . S
C136 C134 1.396 . S
C136 C137 1.394 . S
C137 H132 0.929 . S
C137 C136 1.394 . S
C137 C138 1.382 . S
C138 C137 1.382 . S
C138 C139 1.392 . S
C138 N140 1.420 . S
C139 H133 0.930 . S
C139 C135 1.407 . S
C139 C138 1.392 . S
N140 C138 1.420 . S
N140 C141 1.244 . S
C141 N140 1.244 . S
H142 C145 0.929 1_554 S
H143 C148 0.929 1_554 S
H144 C150 0.930 . S
C145 H142 0.929 1_556 S
C145 C146 1.398 . S
C145 C147 1.396 1_556 S
C146 C145 1.398 . S
C146 C150 1.407 . S
C147 C145 1.396 1_554 S
C147 C148 1.394 1_654 S
C148 H143 0.929 1_556 S
C148 C147 1.394 1_456 S
C148 C149 1.382 . S
C149 C148 1.382 . S
C149 C150 1.392 1_455 S
C149 N151 1.420 . S
C150 H144 0.930 . S
C150 C146 1.407 . S
C150 C149 1.392 1_655 S
N151 C149 1.420 . S
N151 C152 1.244 . S
C152 N151 1.244 . S
H153 C156 0.929 . S
H154 C159 0.929 . S
H155 C161 0.930 . S
C156 H153 0.929 . S
C156 C157 1.398 . S
C156 C158 1.396 . S
C157 C156 1.398 . S
C157 C161 1.407 . S
C158 C156 1.396 . S
C158 C159 1.394 1_455 S
C159 H154 0.929 . S
C159 C158 1.394 1_655 S
C159 C160 1.382 1_655 S
C160 C159 1.382 1_455 S
C160 C161 1.392 . S
C160 N162 1.420 1_455 S
C161 H155 0.930 . S
C161 C157 1.407 . S
C161 C160 1.392 . S
N162 C160 1.420 1_655 S
N162 C163 1.244 . S
C163 N162 1.244 . S
H164 C167 0.929 . S
H165 C170 0.929 . S
H166 C172 0.930 . S
C167 H164 0.929 . S
C167 C168 1.398 . S
C167 C169 1.396 . S
C168 C167 1.398 . S
C168 C172 1.407 . S
C169 C167 1.396 . S
C169 C170 1.394 1_545 S
C170 H165 0.929 . S
C170 C169 1.394 1_565 S
C170 C171 1.382 . S
C171 C170 1.382 . S
C171 C172 1.392 1_565 S
C171 N173 1.420 . S
C172 H166 0.930 . S
C172 C168 1.407 . S
C172 C171 1.392 1_545 S
N173 C171 1.420 . S
N173 C174 1.244 . S
C174 N173 1.244 . S
H175 C178 0.929 1_556 S
H176 C181 0.929 . S
H177 C183 0.930 . S
C178 H175 0.929 1_554 S
C178 C179 1.398 . S
C178 C180 1.396 1_554 S
C179 C178 1.398 . S
C179 C183 1.407 . S
C180 C178 1.396 1_556 S
C180 C181 1.394 1_556 S
C181 H176 0.929 . S
C181 C180 1.394 1_554 S
C181 C182 1.382 . S
C182 C181 1.382 . S
C182 C183 1.392 . S
C182 N184 1.420 . S
C183 H177 0.930 . S
C183 C179 1.407 . S
C183 C182 1.392 . S
N184 C182 1.420 . S
N184 C185 1.244 . S
C185 N184 1.244 . S
C10 C185 4.657 . S
C59 C163 4.743 . S
C90 C174 4.646 . S
C19 C179 4.680 . S
C157 C50 4.625 . S
C168 C99 4.694 . S
C46 C141 3.401 . S
C95 C146 3.233 . S
C6 C124 3.010 . S
C135 C55 3.305 . S
C152 C86 3.359 . S
C15 C130 3.462 . S
C147 C9 1.375 1_654 S
C49 C125 0.796 . S
C89 C136 1.256 . S
C169 C58 1.954 . S
C180 C98 1.975 . S
C18 C158 1.998 . S
