# Generated by pormake.
# Topology zzz, (3,6)-cn, num edge types: 1
# Building blocks:
#     Node 0, Type 0, BuildingBlock: BETDIP_clean_linker_0, # of connection points: 3
#     Node 1, Type 0, BuildingBlock: BETDIP_clean_linker_0, # of connection points: 3
#     Node 2, Type 0, BuildingBlock: BETDIP_clean_linker_0, # of connection points: 3
#     Node 3, Type 0, BuildingBlock: BETDIP_clean_linker_0, # of connection points: 3
#     Node 4, Type 0, BuildingBlock: BETDIP_clean_linker_0, # of connection points: 3
#     Node 5, Type 0, BuildingBlock: BETDIP_clean_linker_0, # of connection points: 3
#     Node 6, Type 0, BuildingBlock: BETDIP_clean_linker_0, # of connection points: 3
#     Node 7, Type 0, BuildingBlock: BETDIP_clean_linker_0, # of connection points: 3
#     Node 8, Type 1, BuildingBlock: FUNLAD_clean_sbu_0, # of connection points: 6
#     Node 9, Type 1, BuildingBlock: FUNLAD_clean_sbu_0, # of connection points: 6
#     Node 10, Type 1, BuildingBlock: FUNLAD_clean_sbu_0, # of connection points: 6
#     Node 11, Type 1, BuildingBlock: FUNLAD_clean_sbu_0, # of connection points: 6
#     Edge 12, Type (0, 1), None
#     Edge 13, Type (0, 1), None
#     Edge 14, Type (0, 1), None
#     Edge 15, Type (0, 1), None
#     Edge 16, Type (0, 1), None
#     Edge 17, Type (0, 1), None
#     Edge 18, Type (0, 1), None
#     Edge 19, Type (0, 1), None
#     Edge 20, Type (0, 1), None
#     Edge 21, Type (0, 1), None
#     Edge 22, Type (0, 1), None
#     Edge 23, Type (0, 1), None
#     Edge 24, Type (0, 1), None
#     Edge 25, Type (0, 1), None
#     Edge 26, Type (0, 1), None
#     Edge 27, Type (0, 1), None
#     Edge 28, Type (0, 1), None
#     Edge 29, Type (0, 1), None
#     Edge 30, Type (0, 1), None
#     Edge 31, Type (0, 1), None
#     Edge 32, Type (0, 1), None
#     Edge 33, Type (0, 1), None
#     Edge 34, Type (0, 1), None
#     Edge 35, Type (0, 1), None
# Relax obj value: 0.126
# Max RMSD: 0.195
# Mean RMSD: 0.106
data_MOF--net-zzz--node1-FUNLAD_clean_sbu_0--node2-BETDIP_clean_linker_0--edge1-none
_symmetry_space_group_name_H-M    P1
_symmetry_Int_Tables_number       1
_symmetry_cell_setting            triclinic
loop_
_symmetry_equiv_pos_as_xyz
'x, y, z'
_cell_length_a     22.524335
_cell_length_b     29.181915
_cell_length_c     8.5847549
_cell_angle_alpha  80.223937
_cell_angle_beta   80.368759
_cell_angle_gamma 83.36115
loop_
_atom_site_label
_atom_site_type_symbol
_atom_site_fract_x
_atom_site_fract_y
_atom_site_fract_z
_atom_type_partial_charge
H0 H 0.82566 0.53148 0.72781 0.0
H1 H 0.85633 0.50382 0.24086 0.0
H2 H 1.00135 0.54185 0.43977 0.0
H3 H 0.75853 0.44316 0.44766 0.0
C4 C 0.7521 0.48012 0.40133 0.0
C5 C 0.85492 0.5307 0.6143 0.0
C6 C 0.91669 0.53899 0.59925 0.0
C7 C 0.83219 0.5191 0.48243 0.0
C8 C 0.87204 0.51347 0.34232 0.0
C9 C 0.93213 0.52159 0.32876 0.0
C10 C 0.95382 0.53631 0.45285 0.0
N11 N 0.77018 0.51199 0.49021 0.0
H12 H 1.01795 0.78307 0.4691 0.0
H13 H 0.1008 0.85284 0.01288 0.0
H14 H 1.03515 0.9303 0.39464 0.0
H15 H 0.06101 0.79324 0.91977 0.0
C16 C 0.06472 0.76319 0.01161 0.0
C17 C 1.03185 0.81448 0.39125 0.0
C18 C 1.02302 0.85721 0.44846 0.0
C19 C 0.05803 0.81273 0.23146 0.0
C20 C 0.07993 0.8536 0.13555 0.0
C21 C 0.07374 0.89589 0.19947 0.0
C22 C 1.04294 0.89718 0.35027 0.0
N23 N 0.0621 0.76934 0.17384 0.0
H24 H 0.76838 0.021 0.55032 0.0
H25 H 0.75498 0.02863 0.04877 0.0
H26 H 0.59845 1.00927 0.40139 0.0
H27 H 0.8469 0.98852 0.04969 0.0
C28 C 0.86958 1.00784 0.11652 0.0
C29 C 0.74232 0.02 0.45594 0.0
C30 C 0.67947 1.01513 0.49351 0.0
C31 C 0.77136 0.02267 0.29499 0.0
C32 C 0.7353 0.02385 0.17375 0.0
C33 C 0.67318 0.01897 0.21366 0.0
C34 C 0.64642 1.01339 0.37222 0.0
N35 N 0.83582 0.02425 0.25627 0.0
H36 H 0.58359 0.67848 0.51931 0.0
H37 H 0.52798 0.67878 0.0603 0.0
H38 H 0.52336 0.55505 0.4065 0.0
H39 H 0.58359 0.73894 -0.01451 0.0
C40 C 0.57406 0.75813 0.086 0.0
C41 C 0.56708 0.66071 0.43629 0.0
C42 C 0.5556 0.61353 0.47989 0.0
C43 C 0.55624 0.6852 0.28566 0.0
C44 C 0.53453 0.66155 0.17883 0.0
C45 C 0.52264 0.61468 0.22236 0.0
C46 C 0.53175 0.59152 0.37397 0.0
N47 N 0.56673 0.73341 0.24533 0.0
H48 H 0.27039 0.50459 0.08006 0.0
H49 H 0.23972 0.53224 0.56701 0.0
H50 H 0.09471 0.49419 0.36811 0.0
H51 H 0.33756 0.5929 0.36015 0.0
C52 C 0.34394 0.55595 0.40655 0.0
C53 C 0.24113 0.50536 0.19358 0.0
C54 C 0.17937 0.49706 0.20863 0.0
C55 C 0.26386 0.51696 0.32544 0.0
C56 C 0.22401 0.52259 0.46556 0.0
C57 C 0.16393 0.51446 0.47911 0.0
C58 C 0.14223 0.49974 0.35503 0.0
N59 N 0.32587 0.52408 0.31765 0.0
H60 H 0.07814 0.25297 0.33877 0.0
H61 H 0.99523 0.18323 0.79497 0.0
H62 H 0.06088 0.10575 0.41325 0.0
H63 H 1.03507 0.24281 0.88808 0.0
C64 C 1.03135 0.27286 0.79624 0.0
C65 C 0.06423 0.22156 0.41663 0.0
C66 C 0.07305 0.17883 0.35943 0.0
C67 C 1.03804 0.22332 0.57641 0.0
C68 C 1.01612 0.18246 0.67231 0.0
C69 C 1.02229 0.14017 0.60839 0.0
C70 C 0.05311 0.13887 0.45762 0.0
N71 N 1.03397 0.26671 0.63401 0.0
H72 H 0.32761 1.01505 0.25755 0.0
H73 H 0.34101 1.00742 0.7591 0.0
H74 H 0.49755 0.02677 0.4065 0.0
H75 H 0.2491 0.04755 0.75816 0.0
C76 C 0.22642 0.02822 0.69133 0.0
C77 C 0.35368 1.01605 0.35193 0.0
C78 C 0.41653 0.02092 0.31436 0.0
C79 C 0.32463 1.01338 0.51288 0.0
C80 C 0.36069 1.0122 0.63412 0.0
C81 C 0.42281 0.01707 0.59422 0.0
C82 C 0.44958 0.02266 0.43566 0.0
N83 N 0.26017 1.01181 0.55159 0.0
H84 H 0.51232 0.35759 0.28876 0.0
H85 H 0.56795 0.35728 0.74775 0.0
H86 H 0.57251 0.48103 0.40161 0.0
H87 H 0.51238 0.2971 0.82255 0.0
C88 C 0.52191 0.27791 0.72202 0.0
C89 C 0.52882 0.37536 0.37179 0.0
C90 C 0.54028 0.42254 0.3282 0.0
C91 C 0.53968 0.35086 0.5224 0.0
C92 C 0.56139 0.37451 0.62923 0.0
C93 C 0.57326 0.4214 0.58572 0.0
C94 C 0.56412 0.44455 0.43413 0.0
N95 N 0.52922 0.30265 0.5627 0.0
C96 C 0.08245 0.94153 0.10182 0.0
N97 N 1.02535 0.94653 0.69835 0.0
C98 C 0.07022 0.91074 0.69833 0.0
C99 C 0.05885 0.86652 0.67788 0.0
C100 C 1.00636 0.86264 0.61638 0.0
C101 C 0.95702 0.89596 0.6459 0.0
C102 C 0.96814 0.93889 0.68289 0.0
Zn103 Zn 1.04261 0.99947 0.80712 0.0
C104 C 0.92832 1.01379 0.06127 0.0
N105 N 0.07063 0.08954 0.10943 0.0
C106 C 0.12785 0.09714 0.12498 0.0
C107 C 1.02578 0.12535 0.10953 0.0
C108 C 1.03719 0.16956 0.13002 0.0
C109 C 0.0897 0.1734 0.19151 0.0
C110 C 0.13901 0.14006 0.16198 0.0
Zn111 Zn 0.05339 0.0366 0.00074 0.0
O112 O 0.06949 0.94506 -0.03528 0.0
C113 C 0.16767 0.02227 0.74658 0.0
O114 O 0.08196 0.97862 0.16319 0.0
H115 H 0.98125 0.1203 0.088 0.0
H116 H 0.11475 0.91582 0.71984 0.0
H117 H 0.1643 0.06981 0.11332 0.0
O118 O 0.13508 1.00145 0.67845 0.0
O119 O 0.14398 0.0382 0.8738 0.0
H120 H 0.93165 0.9662 0.6946 0.0
O121 O 1.0265 0.091 0.84317 0.0
O122 O 1.01405 0.05744 0.64467 0.0
O123 O 0.96092 0.03461 0.1294 0.0
O124 O 0.95202 0.99787 0.93404 0.0
C125 C 1.01355 0.09454 0.70604 0.0
H126 H 0.09692 0.84028 0.66612 0.0
H127 H 0.91403 0.89273 0.6099 0.0
H128 H 0.99915 0.19581 0.1418 0.0
H129 H 0.18201 0.14323 0.19805 0.0
C130 C 0.46193 0.01645 0.71407 0.0
N131 N 0.5369 0.12908 0.82916 0.0
C132 C 0.53948 0.14988 0.67376 0.0
C133 C 0.53458 0.19861 0.6346 0.0
C134 C 0.52656 0.22617 0.75674 0.0
C135 C 0.52371 0.20385 0.91584 0.0
C136 C 0.52917 0.15508 0.94961 0.0
Zn137 Zn 0.54468 0.05719 0.88102 0.0
C138 C 0.45245 0.02075 0.15479 0.0
N139 N 0.55909 0.90697 -0.02126 0.0
C140 C 0.56683 0.88096 0.85831 0.0
C141 C 0.55651 0.88617 0.13415 0.0
C142 C 0.5614 0.83744 0.17335 0.0
C143 C 0.56942 0.80988 0.05124 0.0
C144 C 0.57228 0.83219 0.89213 0.0
Zn145 Zn 0.55131 0.97885 0.92686 0.0
O146 O 0.48004 0.05461 0.73179 0.0
C147 C 0.64355 1.0153 0.65309 0.0
O148 O 0.48619 0.9778 0.77725 0.0
H149 H 0.55057 0.90741 0.22828 0.0
H150 H 0.54542 0.12865 0.57961 0.0
H151 H 0.56868 0.89807 0.73573 0.0
O152 O 0.61694 0.05396 0.68734 0.0
O153 O 0.62362 0.97743 0.72946 0.0
H154 H 0.52732 0.13796 0.07218 0.0
O155 O 0.61595 0.98144 0.07609 0.0
O156 O 0.6098 0.05824 0.03063 0.0
O157 O 0.47906 0.98209 0.12054 0.0
O158 O 0.47238 0.05862 0.07842 0.0
C159 C 0.63407 0.01959 0.09381 0.0
H160 H 0.537 0.2144 0.51034 0.0
H161 H 0.51772 0.22396 0.01334 0.0
H162 H 0.55897 0.82167 0.29762 0.0
H163 H 0.57827 0.81207 0.79464 0.0
C164 C 0.57377 0.45027 0.70968 0.0
N165 N 0.41085 0.52195 0.85357 0.0
C166 C 0.39754 0.48637 0.78372 0.0
C167 C 0.37276 0.49598 0.64024 0.0
C168 C 0.35965 0.54253 0.57193 0.0
C169 C 0.36457 0.57779 0.66076 0.0
C170 C 0.38937 0.56667 0.8032 0.0
Zn171 Zn 0.49715 0.51722 0.92077 0.0
C172 C 0.53378 0.44965 0.1693 0.0
N173 N 0.68504 0.51418 0.9545 0.0
C174 C 0.70645 0.46943 0.00491 0.0
C175 C 0.69842 0.54974 0.02431 0.0
C176 C 0.72324 0.5401 0.16773 0.0
C177 C 0.73632 0.49355 0.23603 0.0
C178 C 0.7313 0.4583 0.14727 0.0
Zn179 Zn 0.59875 0.51885 0.88732 0.0
O180 O 0.52251 0.46577 0.77443 0.0
C181 C 0.56211 0.58642 0.6388 0.0
O182 O 0.62132 0.46624 0.73312 0.0
H183 H 0.68233 0.58534 -0.01755 0.0
H184 H 0.41364 0.45077 0.82564 0.0
H185 H 0.69537 0.44132 0.95057 0.0
O186 O 0.51511 0.56898 0.71763 0.0
O187 O 0.61346 0.57219 0.68222 0.0
H188 H 0.40039 0.5948 0.85758 0.0
O189 O 0.57339 0.5703 0.03363 0.0
O190 O 0.47458 0.56982 0.07499 0.0
O191 O 0.58078 0.4671 0.09049 0.0
O192 O 0.48242 0.46388 0.12585 0.0
C193 C 0.52213 0.5858 0.0984 0.0
H194 H 0.36816 0.46755 0.57811 0.0
H195 H 0.35359 0.61414 0.61441 0.0
H196 H 0.72791 0.56853 0.22982 0.0
H197 H 0.74224 0.42194 0.19362 0.0
C198 C 0.12397 0.52001 0.62598 0.0
N199 N 1.03819 0.40981 0.9049 0.0
C200 C 1.0303 0.40377 0.75574 0.0
C201 C 1.02726 0.35954 0.71915 0.0
C202 C 1.03228 0.32031 0.83657 0.0
C203 C 1.03954 0.32699 -0.00928 0.0
C204 C 1.04254 0.37238 0.02264 0.0
Zn205 Zn 1.04339 0.4793 0.92488 0.0
C206 C 0.14668 0.49882 0.07168 0.0
N207 N 0.05787 0.62625 0.90298 0.0
C208 C 0.05353 0.66367 0.78523 0.0
C209 C 0.06575 0.63228 0.05214 0.0
C210 C 0.06881 0.67651 0.08872 0.0
C211 C 0.06379 0.71574 -0.02871 0.0
C212 C 0.05653 0.70907 0.81714 0.0
Zn213 Zn 0.05266 0.55675 0.883 0.0
O214 O 0.10248 0.48406 0.70989 0.0
C215 C 0.94937 0.53723 0.7362 0.0
O216 O 0.11157 0.55979 0.67055 0.0
H217 H 0.06924 0.60263 0.14545 0.0
H218 H 1.02681 0.43343 0.66243 0.0
H219 H 1.04736 0.65845 0.66737 0.0
O220 O 0.9679 0.49673 0.79943 0.0
O221 O 0.97693 0.57196 0.74951 0.0
H222 H 0.04872 0.3776 0.14049 0.0
O223 O 0.99357 0.552 0.09798 0.0
O224 O 0.98449 0.47627 0.13733 0.0
O225 O 0.12815 0.53932 0.00845 0.0
O226 O 0.11913 0.46409 0.05836 0.0
C227 C 0.97208 0.51604 0.18189 0.0
H228 H 1.02136 0.35635 0.59892 0.0
H229 H 1.04352 0.29743 0.08465 0.0
H230 H 0.0747 0.6797 0.20895 0.0
H231 H 0.05256 0.73862 0.7232 0.0
loop_
_geom_bond_atom_site_label_1
_geom_bond_atom_site_label_2
_geom_bond_distance
_geom_bond_site_symmetry_2
_ccdc_geom_bond_type
H0 C5 0.930 . S
H1 C8 0.930 . S
H2 C10 0.930 . S
H3 C4 1.016 . S
C4 H3 1.016 . S
C4 N11 1.286 . S
C5 H0 0.930 . S
C5 C6 1.397 . S
C5 C7 1.361 . S
C6 C5 1.397 . S
C6 C10 1.390 . S
C7 C5 1.361 . S
C7 C8 1.393 . S
C7 N11 1.413 . S
C8 H1 0.930 . S
C8 C7 1.393 . S
C8 C9 1.399 . S
C9 C8 1.399 . S
C9 C10 1.381 . S
C10 H2 0.930 . S
C10 C6 1.390 . S
C10 C9 1.381 . S
N11 C4 1.286 . S
N11 C7 1.413 . S
H12 C17 0.930 . S
H13 C20 0.930 . S
H14 C22 0.930 . S
H15 C16 1.016 . S
C16 H15 1.016 . S
C16 N23 1.286 1_656 S
C17 H12 0.930 . S
C17 C18 1.397 . S
C17 C19 1.361 . S
C18 C17 1.397 . S
C18 C22 1.390 1_455 S
C19 C17 1.361 . S
C19 C20 1.393 1_554 S
C19 N23 1.413 . S
C20 H13 0.930 . S
C20 C19 1.393 1_556 S
C20 C21 1.399 . S
C21 C20 1.399 . S
C21 C22 1.381 1_456 S
C22 H14 0.930 . S
C22 C18 1.390 1_655 S
C22 C21 1.381 1_654 S
N23 C16 1.286 1_454 S
N23 C19 1.413 . S
H24 C29 0.930 . S
H25 C32 0.930 . S
H26 C34 0.930 . S
H27 C28 1.016 . S
C28 H27 1.016 . S
C28 N35 1.286 . S
C29 H24 0.930 . S
C29 C30 1.397 . S
C29 C31 1.361 . S
C30 C29 1.397 . S
C30 C34 1.390 . S
C31 C29 1.361 . S
C31 C32 1.393 . S
C31 N35 1.413 . S
C32 H25 0.930 . S
C32 C31 1.393 . S
C32 C33 1.399 . S
C33 C32 1.399 . S
C33 C34 1.381 . S
C34 H26 0.930 . S
C34 C30 1.390 . S
C34 C33 1.381 . S
N35 C28 1.286 . S
N35 C31 1.413 . S
H36 C41 0.930 . S
H37 C44 0.930 . S
H38 C46 0.930 . S
H39 C40 1.016 . S
C40 H39 1.016 . S
C40 N47 1.286 . S
C41 H36 0.930 . S
C41 C42 1.397 . S
C41 C43 1.361 . S
C42 C41 1.397 . S
C42 C46 1.390 . S
C43 C41 1.361 . S
C43 C44 1.393 . S
C43 N47 1.413 . S
C44 H37 0.930 . S
C44 C43 1.393 . S
C44 C45 1.399 . S
C45 C44 1.399 . S
C45 C46 1.381 . S
C46 H38 0.930 . S
C46 C42 1.390 . S
C46 C45 1.381 . S
N47 C40 1.286 . S
N47 C43 1.413 . S
H48 C53 0.930 . S
H49 C56 0.930 . S
H50 C58 0.930 . S
H51 C52 1.016 . S
C52 H51 1.016 . S
C52 N59 1.286 . S
C53 H48 0.930 . S
C53 C54 1.397 . S
C53 C55 1.361 . S
C54 C53 1.397 . S
C54 C58 1.390 . S
C55 C53 1.361 . S
C55 C56 1.393 . S
C55 N59 1.413 . S
C56 H49 0.930 . S
C56 C55 1.393 . S
C56 C57 1.399 . S
C57 C56 1.399 . S
C57 C58 1.381 . S
C58 H50 0.930 . S
C58 C54 1.390 . S
C58 C57 1.381 . S
N59 C52 1.286 . S
N59 C55 1.413 . S
H60 C65 0.930 . S
H61 C68 0.930 1_554 S
H62 C70 0.930 . S
H63 C64 1.016 1_554 S
C64 H63 1.016 1_556 S
C64 N71 1.286 1_655 S
C65 H60 0.930 . S
C65 C66 1.397 . S
C65 C67 1.361 . S
C66 C65 1.397 . S
C66 C70 1.390 1_455 S
C67 C65 1.361 . S
C67 C68 1.393 . S
C67 N71 1.413 . S
C68 H61 0.930 1_556 S
C68 C67 1.393 . S
C68 C69 1.399 . S
C69 C68 1.399 . S
C69 C70 1.381 1_455 S
C70 H62 0.930 . S
C70 C66 1.390 1_655 S
C70 C69 1.381 1_655 S
N71 C64 1.286 1_455 S
N71 C67 1.413 . S
H72 C77 0.930 . S
H73 C80 0.930 . S
H74 C82 0.930 . S
H75 C76 1.016 . S
C76 H75 1.016 . S
C76 N83 1.286 . S
C77 H72 0.930 . S
C77 C78 1.397 . S
C77 C79 1.361 . S
C78 C77 1.397 . S
C78 C82 1.390 . S
C79 C77 1.361 . S
C79 C80 1.393 . S
C79 N83 1.413 . S
C80 H73 0.930 . S
C80 C79 1.393 . S
C80 C81 1.399 . S
C81 C80 1.399 . S
C81 C82 1.381 . S
C82 H74 0.930 . S
C82 C78 1.390 . S
C82 C81 1.381 . S
N83 C76 1.286 . S
N83 C79 1.413 . S
H84 C89 0.930 . S
H85 C92 0.930 . S
H86 C94 0.930 . S
H87 C88 1.016 . S
C88 H87 1.016 . S
C88 N95 1.286 . S
C89 H84 0.930 . S
C89 C90 1.397 . S
C89 C91 1.361 . S
C90 C89 1.397 . S
C90 C94 1.390 . S
C91 C89 1.361 . S
C91 C92 1.393 . S
C91 N95 1.413 . S
C92 H85 0.930 . S
C92 C91 1.393 . S
C92 C93 1.399 . S
C93 C92 1.399 . S
C93 C94 1.381 . S
C94 H86 0.930 . S
C94 C90 1.390 . S
C94 C93 1.381 . S
N95 C88 1.286 . S
N95 C91 1.413 . S
C96 O112 1.251 1_554 S
C96 O114 1.254 . S
N97 C98 1.333 1_655 S
N97 C102 1.307 . S
N97 Zn103 2.020 . S
C98 N97 1.333 1_455 S
C98 C99 1.379 . S
C98 H116 0.952 . S
C99 C98 1.379 . S
C99 C100 1.390 1_455 S
C99 H126 0.949 . S
C100 C99 1.390 1_655 S
C100 C101 1.357 . S
C101 C100 1.357 . S
C101 C102 1.370 . S
C101 H127 0.950 1_565 S
C102 N97 1.307 . S
C102 C101 1.370 . S
C102 H120 0.948 1_565 S
Zn103 N97 2.020 . S
Zn103 O112 2.039 1_655 S
Zn103 O118 2.034 1_655 S
Zn103 O122 2.025 1_565 S
Zn103 O124 2.024 . S
C104 O123 1.246 1_565 S
C104 O124 1.249 1_554 S
N105 C106 1.307 . S
N105 C107 1.333 1_455 S
N105 Zn111 2.020 . S
C106 N105 1.307 . S
C106 C110 1.370 . S
C106 H117 0.948 1_545 S
C107 N105 1.333 1_655 S
C107 C108 1.379 . S
C107 H115 0.952 . S
C108 C107 1.379 . S
C108 C109 1.390 1_655 S
C108 H128 0.949 . S
C109 C108 1.390 1_455 S
C109 C110 1.357 . S
C110 C106 1.370 . S
C110 C109 1.357 . S
C110 H129 0.957 . S
Zn111 N105 2.020 . S
Zn111 O114 2.025 1_545 S
Zn111 O119 2.024 . S
Zn111 O121 2.039 1_454 S
Zn111 O123 2.034 1_455 S
O112 C96 1.251 1_556 S
O112 Zn103 2.039 1_455 S
C113 O118 1.246 1_545 S
C113 O119 1.249 1_556 S
O114 C96 1.254 . S
O114 Zn111 2.025 1_565 S
H115 C107 0.952 . S
H116 C98 0.952 . S
H117 C106 0.948 1_565 S
O118 Zn103 2.034 1_455 S
O118 C113 1.246 1_565 S
O119 Zn111 2.024 . S
O119 C113 1.249 1_554 S
H120 C102 0.948 1_545 S
O121 Zn111 2.039 1_656 S
O121 C125 1.251 . S
O122 Zn103 2.025 1_545 S
O122 C125 1.254 . S
O123 C104 1.246 1_545 S
O123 Zn111 2.034 1_655 S
O124 Zn103 2.024 . S
O124 C104 1.249 1_556 S
C125 O121 1.251 . S
C125 O122 1.254 . S
H126 C99 0.949 . S
H127 C101 0.950 1_545 S
H128 C108 0.949 . S
H129 C110 0.957 . S
C130 O146 1.251 . S
C130 O148 1.254 1_545 S
N131 C132 1.333 . S
N131 C136 1.307 . S
N131 Zn137 2.020 . S
C132 N131 1.333 . S
C132 C133 1.379 . S
C132 H150 0.952 . S
C133 C132 1.379 . S
C133 C134 1.390 . S
C133 H160 0.949 . S
C134 C133 1.390 . S
C134 C135 1.357 . S
C135 C134 1.357 . S
C135 C136 1.370 . S
C135 H161 0.950 . S
C136 N131 1.307 . S
C136 C135 1.370 . S
C136 H154 0.948 1_556 S
Zn137 N131 2.020 . S
Zn137 O146 2.039 . S
Zn137 O152 2.034 . S
Zn137 O156 2.025 1_556 S
Zn137 O158 2.024 1_556 S
C138 O157 1.246 1_545 S
C138 O158 1.249 . S
N139 C140 1.307 1_554 S
N139 C141 1.333 . S
N139 Zn145 2.020 1_554 S
C140 N139 1.307 1_556 S
C140 C144 1.370 . S
C140 H151 0.948 . S
C141 N139 1.333 . S
C141 C142 1.379 . S
C141 H149 0.952 . S
C142 C141 1.379 . S
C142 C143 1.390 . S
C142 H162 0.949 . S
C143 C142 1.390 . S
C143 C144 1.357 1_554 S
C144 C140 1.370 . S
C144 C143 1.357 1_556 S
C144 H163 0.950 . S
Zn145 N139 2.020 1_556 S
Zn145 O148 2.025 . S
Zn145 O153 2.024 . S
Zn145 O155 2.039 1_556 S
Zn145 O157 2.034 1_556 S
O146 C130 1.251 . S
O146 Zn137 2.039 . S
C147 O152 1.246 1_565 S
C147 O153 1.249 . S
O148 C130 1.254 1_565 S
O148 Zn145 2.025 . S
H149 C141 0.952 . S
H150 C132 0.952 . S
H151 C140 0.948 . S
O152 Zn137 2.034 . S
O152 C147 1.246 1_545 S
O153 Zn145 2.024 . S
O153 C147 1.249 . S
H154 C136 0.948 1_554 S
O155 Zn145 2.039 1_554 S
O155 C159 1.251 . S
O156 Zn137 2.025 1_554 S
O156 C159 1.254 1_545 S
O157 C138 1.246 1_565 S
O157 Zn145 2.034 1_554 S
O158 Zn137 2.024 1_554 S
O158 C138 1.249 . S
C159 O155 1.251 . S
C159 O156 1.254 1_565 S
H160 C133 0.949 . S
H161 C135 0.950 . S
H162 C142 0.949 . S
H163 C144 0.950 . S
C164 O180 1.251 . S
C164 O182 1.254 . S
N165 C166 1.333 . S
N165 C170 1.307 1_556 S
N165 Zn171 2.020 . S
C166 N165 1.333 . S
C166 C167 1.379 . S
C166 H184 0.952 . S
C167 C166 1.379 . S
C167 C168 1.390 . S
C167 H194 0.949 . S
C168 C167 1.390 . S
C168 C169 1.357 1_556 S
C169 C168 1.357 1_554 S
C169 C170 1.370 . S
C169 H195 0.950 . S
C170 N165 1.307 1_554 S
C170 C169 1.370 . S
C170 H188 0.948 . S
Zn171 N165 2.020 . S
Zn171 O180 2.039 . S
Zn171 O186 2.034 . S
Zn171 O190 2.025 1_556 S
Zn171 O192 2.024 1_556 S
C172 O191 1.246 . S
C172 O192 1.249 . S
N173 C174 1.307 . S
N173 C175 1.333 1_556 S
N173 Zn179 2.020 . S
C174 N173 1.307 . S
C174 C178 1.370 . S
C174 H185 0.948 . S
C175 N173 1.333 1_554 S
C175 C176 1.379 . S
C175 H183 0.952 . S
C176 C175 1.379 . S
C176 C177 1.390 . S
C176 H196 0.949 . S
C177 C176 1.390 . S
C177 C178 1.357 1_554 S
C178 C174 1.370 . S
C178 C177 1.357 1_556 S
C178 H197 0.950 . S
Zn179 N173 2.020 . S
Zn179 O182 2.025 . S
Zn179 O187 2.024 . S
Zn179 O189 2.039 1_556 S
Zn179 O191 2.034 1_556 S
O180 C164 1.251 . S
O180 Zn171 2.039 . S
C181 O186 1.246 . S
C181 O187 1.249 . S
O182 C164 1.254 . S
O182 Zn179 2.025 . S
H183 C175 0.952 . S
H184 C166 0.952 . S
H185 C174 0.948 . S
O186 Zn171 2.034 . S
O186 C181 1.246 . S
O187 Zn179 2.024 . S
O187 C181 1.249 . S
H188 C170 0.948 . S
O189 Zn179 2.039 1_554 S
O189 C193 1.251 . S
O190 Zn171 2.025 1_554 S
O190 C193 1.254 . S
O191 C172 1.246 . S
O191 Zn179 2.034 1_554 S
O192 Zn171 2.024 1_554 S
O192 C172 1.249 . S
C193 O189 1.251 . S
C193 O190 1.254 . S
H194 C167 0.949 . S
H195 C169 0.950 . S
H196 C176 0.949 . S
H197 C178 0.950 . S
C198 O214 1.251 . S
C198 O216 1.254 . S
N199 C200 1.333 1_655 S
N199 C204 1.307 1_556 S
N199 Zn205 2.020 . S
C200 N199 1.333 1_455 S
C200 C201 1.379 . S
C200 H218 0.952 . S
C201 C200 1.379 . S
C201 C202 1.390 1_455 S
C201 H228 0.949 . S
C202 C201 1.390 1_655 S
C202 C203 1.357 1_556 S
C203 C202 1.357 1_554 S
C203 C204 1.370 . S
C203 H229 0.950 . S
C204 N199 1.307 1_554 S
C204 C203 1.370 . S
C204 H222 0.948 . S
Zn205 N199 2.020 . S
Zn205 O214 2.039 1_655 S
Zn205 O220 2.034 . S
Zn205 O224 2.025 1_556 S
Zn205 O226 2.024 1_656 S
C206 O225 1.246 . S
C206 O226 1.249 . S
N207 C208 1.307 . S
N207 C209 1.333 1_456 S
N207 Zn213 2.020 . S
C208 N207 1.307 . S
C208 C212 1.370 . S
C208 H219 0.948 . S
C209 N207 1.333 1_654 S
C209 C210 1.379 . S
C209 H217 0.952 . S
C210 C209 1.379 . S
C210 C211 1.390 1_654 S
C210 H230 0.949 . S
C211 C210 1.390 1_456 S
C211 C212 1.357 . S
C212 C208 1.370 . S
C212 C211 1.357 . S
C212 H231 0.950 . S
Zn213 N207 2.020 . S
Zn213 O216 2.025 . S
Zn213 O221 2.024 1_455 S
Zn213 O223 2.039 1_456 S
Zn213 O225 2.034 1_556 S
O214 C198 1.251 . S
O214 Zn205 2.039 1_455 S
C215 O220 1.246 . S
C215 O221 1.249 . S
O216 C198 1.254 . S
O216 Zn213 2.025 . S
H217 C209 0.952 . S
H218 C200 0.952 . S
H219 C208 0.948 . S
O220 Zn205 2.034 . S
O220 C215 1.246 . S
O221 Zn213 2.024 1_655 S
O221 C215 1.249 . S
H222 C204 0.948 . S
O223 Zn213 2.039 1_654 S
O223 C227 1.251 . S
O224 Zn205 2.025 1_554 S
O224 C227 1.254 . S
O225 C206 1.246 . S
O225 Zn213 2.034 1_554 S
O226 Zn205 2.024 1_454 S
O226 C206 1.249 . S
C227 O223 1.251 . S
C227 O224 1.254 . S
H228 C201 0.949 . S
H229 C203 0.950 . S
H230 C210 0.949 . S
H231 C212 0.950 . S
C76 C113 2.220 . S
C134 C88 1.511 . S
C168 C52 1.935 . S
C202 C64 1.643 . S
C104 C28 2.245 . S
C40 C143 1.502 . S
C4 C177 1.957 . S
C16 C211 1.671 1_655 S
C125 C69 1.304 1_655 S
C130 C81 1.642 . S
C164 C93 1.413 . S
C57 C198 1.063 . S
C21 C96 1.296 1_556 S
C159 C33 1.626 . S
C193 C45 1.404 . S
C9 C227 1.022 . S
C66 C109 1.834 . S
C78 C138 2.021 . S
C172 C90 1.606 . S
C206 C54 1.812 . S
C18 C100 1.858 1_455 S
C147 C30 2.001 . S
C181 C42 1.654 . S
C6 C215 1.787 . S
