# Generated by pormake.
# Topology tsx, (6,3)-cn, num edge types: 1
# Building blocks:
#     Node 0, Type 0, BuildingBlock: CIFDUS_clean_sbu_1, # of connection points: 6
#     Node 1, Type 0, BuildingBlock: CIFDUS_clean_sbu_1, # of connection points: 6
#     Node 2, Type 1, BuildingBlock: ESEHIV_clean_linker_0, # of connection points: 3
#     Node 3, Type 1, BuildingBlock: ESEHIV_clean_linker_0, # of connection points: 3
#     Node 4, Type 1, BuildingBlock: ESEHIV_clean_linker_0, # of connection points: 3
#     Node 5, Type 1, BuildingBlock: ESEHIV_clean_linker_0, # of connection points: 3
#     Edge 6, Type (0, 1), None
#     Edge 7, Type (0, 1), None
#     Edge 8, Type (0, 1), None
#     Edge 9, Type (0, 1), None
#     Edge 10, Type (0, 1), None
#     Edge 11, Type (0, 1), None
#     Edge 12, Type (0, 1), None
#     Edge 13, Type (0, 1), None
#     Edge 14, Type (0, 1), None
#     Edge 15, Type (0, 1), None
#     Edge 16, Type (0, 1), None
#     Edge 17, Type (0, 1), None
# Relax obj value: 0.129
# Max RMSD: 0.155
# Mean RMSD: 0.116
data_MOF--net-tsx--node1-CIFDUS_clean_sbu_1--node2-ESEHIV_clean_linker_0--edge1-none
_symmetry_space_group_name_H-M    P1
_symmetry_Int_Tables_number       1
_symmetry_cell_setting            triclinic
loop_
_symmetry_equiv_pos_as_xyz
'x, y, z'
_cell_length_a     6.5923679
_cell_length_b     7.9763974
_cell_length_c     16.463963
_cell_angle_alpha  85.503148
_cell_angle_beta   92.460256
_cell_angle_gamma 90.587469
loop_
_atom_site_label
_atom_site_type_symbol
_atom_site_fract_x
_atom_site_fract_y
_atom_site_fract_z
_atom_type_partial_charge
O0 O 0.88673 0.31267 0.90052 0.0
Mn1 Mn 0.09248 0.13683 -0.03258 0.0
O2 O 0.58835 0.17399 0.88942 0.0
Mn3 Mn 0.73724 0.99113 0.87316 0.0
O4 O 0.2198 0.99032 0.87691 0.0
O5 O 0.35154 0.28508 -0.01334 0.0
Mn6 Mn 0.32317 0.0543 0.02396 0.0
O7 O 0.99805 0.22699 0.07499 0.0
O8 O 0.4062 0.86737 -0.02869 0.0
O9 O 0.15074 0.12674 0.83475 0.0
O10 O 0.85271 0.07443 0.77693 0.0
O11 O 0.54025 0.13238 0.08035 0.0
O12 O 0.15429 0.99881 0.10846 0.0
C13 C 0.84593 0.81685 -0.01812 0.0
C14 C 0.68873 0.31126 0.88792 0.0
C15 C 0.33821 0.86746 0.89894 0.0
C16 C 0.50118 0.27699 0.04354 0.0
C17 C 0.04751 0.11606 0.13039 0.0
C18 C 1.02848 0.13601 0.76891 0.0
O19 O 0.85326 0.97852 -0.02392 0.0
O20 O 0.79115 0.7691 0.91176 0.0
O21 O 0.38672 0.81267 0.40052 0.0
Mn22 Mn 0.59247 0.63683 0.46742 0.0
O23 O 0.08835 0.67399 0.38942 0.0
Mn24 Mn 0.23723 0.49113 0.37316 0.0
O25 O 0.7198 0.49032 0.37691 0.0
O26 O 0.85154 0.78508 0.48666 0.0
Mn27 Mn 0.82317 0.5543 0.52396 0.0
O28 O 0.49805 0.72699 0.57499 0.0
O29 O 0.9062 0.36737 0.47131 0.0
O30 O 0.65074 0.62674 0.33475 0.0
O31 O 0.35271 0.57443 0.27693 0.0
O32 O 0.04025 0.63238 0.58035 0.0
O33 O 0.65428 0.49881 0.60846 0.0
C34 C 0.34593 0.31685 0.48188 0.0
C35 C 0.18873 0.81126 0.38792 0.0
C36 C 0.83821 0.36746 0.39894 0.0
C37 C 1.00118 0.77699 0.54354 0.0
C38 C 0.54751 0.61606 0.63039 0.0
C39 C 0.52848 0.63601 0.26891 0.0
O40 O 0.35325 0.47852 0.47608 0.0
O41 O 0.29115 0.2691 0.41176 0.0
H42 H 0.88957 0.36998 0.22545 0.0
H43 H 0.16436 0.8786 0.23737 0.0
H44 H 0.92988 0.06147 0.44835 0.0
C45 C 0.92392 0.25167 0.25893 0.0
C46 C 0.89927 0.23115 0.34489 0.0
C47 C 1.0087 0.11823 0.21845 0.0
C48 C 0.08917 0.97866 0.26519 0.0
C49 C 0.08111 0.96137 0.34795 0.0
C50 C 0.96192 0.0773 0.38556 0.0
H51 H 0.94671 0.87974 0.68554 0.0
H52 H 0.23816 0.36883 0.65374 0.0
H53 H 0.3219 0.99656 0.48849 0.0
C54 C 0.04236 0.9701 0.65196 0.0
C55 C 0.10019 0.92934 0.57691 0.0
C56 C 0.10692 0.11985 0.68543 0.0
C57 C 0.21438 0.2438 0.6344 0.0
C58 C 0.28064 0.20102 0.55637 0.0
C59 C 0.24625 1.03383 0.53847 0.0
H60 H 0.38957 0.86998 0.72545 0.0
H61 H 0.66436 0.3786 0.73737 0.0
H62 H 0.42988 0.56147 -0.05165 0.0
C63 C 0.42392 0.75167 0.75893 0.0
C64 C 0.39927 0.73115 0.84489 0.0
C65 C 0.5087 0.61823 0.71845 0.0
C66 C 0.58917 0.47866 0.76519 0.0
C67 C 0.58112 0.46137 0.84795 0.0
C68 C 0.46193 0.5773 0.88556 0.0
H69 H 0.44671 0.37974 0.18554 0.0
H70 H 0.73816 0.86883 0.15374 0.0
H71 H 0.82191 0.49656 -0.01151 0.0
C72 C 0.54236 0.4701 0.15196 0.0
C73 C 0.60019 0.42934 0.07691 0.0
C74 C 0.60692 0.61986 0.18543 0.0
C75 C 0.71438 0.7438 0.1344 0.0
C76 C 0.78064 0.70102 0.05637 0.0
C77 C 0.74625 0.53383 0.03847 0.0
loop_
_geom_bond_atom_site_label_1
_geom_bond_atom_site_label_2
_geom_bond_distance
_geom_bond_site_symmetry_2
_ccdc_geom_bond_type
O0 Mn1 2.163 1_655 S
O0 C14 1.242 1_554 S
Mn1 O0 2.163 1_455 S
Mn1 O4 2.160 1_544 S
Mn1 O5 2.221 . S
Mn1 O7 2.163 1_545 S
Mn1 O9 2.160 1_554 S
Mn1 O19 2.221 1_444 S
O2 Mn3 2.087 1_545 S
O2 C14 1.258 . S
Mn3 O2 2.087 1_565 S
Mn3 O10 2.089 1_565 S
Mn3 O19 2.290 . S
Mn3 O20 2.251 . S
O4 Mn1 2.160 1_566 S
O4 C15 1.239 1_556 S
O5 Mn1 2.221 . S
O5 Mn6 2.290 . S
O5 C16 1.278 . S
Mn6 O5 2.290 . S
Mn6 O8 2.089 1_545 S
Mn6 O11 2.251 . S
Mn6 O12 2.087 . S
O7 Mn1 2.163 1_565 S
O7 C17 1.244 1_565 S
O8 Mn6 2.089 1_565 S
O8 C15 1.256 . S
O9 Mn1 2.160 1_556 S
O9 C18 1.239 1_455 S
O10 Mn3 2.089 1_545 S
O10 C18 1.256 . S
O11 Mn6 2.251 . S
O11 C16 1.241 . S
O12 Mn6 2.087 . S
O12 C17 1.256 . S
C13 O19 1.278 1_554 S
C13 O20 1.241 1_554 S
C14 O0 1.242 1_556 S
C14 O2 1.258 . S
C15 O4 1.239 1_554 S
C15 O8 1.256 . S
C16 O5 1.278 . S
C16 O11 1.241 . S
C17 O7 1.244 1_545 S
C17 O12 1.256 . S
C18 O9 1.239 1_655 S
C18 O10 1.256 . S
O19 Mn1 2.221 1_666 S
O19 Mn3 2.290 . S
O19 C13 1.278 1_556 S
O20 Mn3 2.251 . S
O20 C13 1.241 1_556 S
O21 Mn22 2.163 . S
O21 C35 1.244 . S
Mn22 O21 2.163 . S
Mn22 O25 2.160 . S
Mn22 O26 2.221 . S
Mn22 O28 2.163 . S
Mn22 O30 2.160 . S
Mn22 O40 2.221 . S
O23 Mn24 2.087 . S
O23 C35 1.256 . S
Mn24 O23 2.087 . S
Mn24 O31 2.089 . S
Mn24 O40 2.290 . S
Mn24 O41 2.251 . S
O25 Mn22 2.160 . S
O25 C36 1.239 . S
O26 Mn22 2.221 . S
O26 Mn27 2.291 . S
O26 C37 1.278 . S
Mn27 O26 2.291 . S
Mn27 O29 2.089 . S
Mn27 O32 2.252 . S
Mn27 O33 2.089 . S
O28 Mn22 2.163 . S
O28 C38 1.244 . S
O29 Mn27 2.089 . S
O29 C36 1.256 . S
O30 Mn22 2.160 . S
O30 C39 1.239 . S
O31 Mn24 2.089 . S
O31 C39 1.256 . S
O32 Mn27 2.252 . S
O32 C37 1.241 . S
O33 Mn27 2.089 . S
O33 C38 1.256 . S
C34 O40 1.278 . S
C34 O41 1.241 . S
C35 O21 1.244 . S
C35 O23 1.256 . S
C36 O25 1.239 . S
C36 O29 1.256 . S
C37 O26 1.278 . S
C37 O32 1.241 . S
C38 O28 1.244 . S
C38 O33 1.256 . S
C39 O30 1.239 . S
C39 O31 1.256 . S
O40 Mn22 2.221 . S
O40 Mn24 2.290 . S
O40 C34 1.278 . S
O41 Mn24 2.251 . S
O41 C34 1.241 . S
H42 C45 0.931 . S
H43 C48 0.928 . S
H44 C50 0.930 . S
C45 H42 0.931 . S
C45 C46 1.413 . S
C45 C47 1.360 1_645 S
C46 C45 1.413 . S
C46 C50 1.429 1_655 S
C47 C45 1.360 1_465 S
C47 C48 1.372 . S
C48 H43 0.928 . S
C48 C47 1.372 . S
C48 C49 1.404 . S
C49 C48 1.404 . S
C49 C50 1.391 1_565 S
C50 H44 0.930 . S
C50 C46 1.429 1_455 S
C50 C49 1.391 1_545 S
H51 C54 0.931 . S
H52 C57 0.928 . S
H53 C59 0.930 . S
C54 H51 0.931 . S
C54 C55 1.413 . S
C54 C56 1.360 1_665 S
C55 C54 1.413 . S
C55 C59 1.429 1_565 S
C56 C54 1.360 1_445 S
C56 C57 1.372 . S
C57 H52 0.928 . S
C57 C56 1.372 . S
C57 C58 1.404 . S
C58 C57 1.404 . S
C58 C59 1.391 1_455 S
C59 H53 0.930 . S
C59 C55 1.429 1_545 S
C59 C58 1.391 1_655 S
H60 C63 0.931 . S
H61 C66 0.928 . S
H62 C68 0.930 . S
C63 H60 0.931 . S
C63 C64 1.413 . S
C63 C65 1.360 . S
C64 C63 1.413 . S
C64 C68 1.429 1_556 S
C65 C63 1.360 . S
C65 C66 1.372 . S
C66 H61 0.928 . S
C66 C65 1.372 . S
C66 C67 1.404 . S
C67 C66 1.404 . S
C67 C68 1.391 1_556 S
C68 H62 0.930 . S
C68 C64 1.429 1_554 S
C68 C67 1.391 1_554 S
H69 C72 0.931 . S
H70 C75 0.928 . S
H71 C77 0.930 1_556 S
C72 H69 0.931 . S
C72 C73 1.413 . S
C72 C74 1.360 . S
C73 C72 1.413 . S
C73 C77 1.429 . S
C74 C72 1.360 . S
C74 C75 1.372 . S
C75 H70 0.928 . S
C75 C74 1.372 . S
C75 C76 1.404 . S
C76 C75 1.404 . S
C76 C77 1.391 . S
C77 H71 0.930 1_554 S
C77 C73 1.429 . S
C77 C76 1.391 . S
C73 C16 1.309 . S
C15 C64 1.654 1_554 S
C13 C76 1.293 . S
C14 C67 1.339 . S
C37 C55 1.309 . S
C36 C46 1.654 . S
C58 C34 1.293 . S
C49 C35 1.337 . S
C17 C47 1.559 1_545 S
C18 C56 1.342 1_655 S
C65 C38 1.559 . S
C39 C74 1.342 . S
