# Generated by pormake.
# Topology rtl, (3,6)-cn, num edge types: 1
# Building blocks:
#     Node 0, Type 0, BuildingBlock: CUQRIR_clean_linker_1, # of connection points: 3
#     Node 1, Type 0, BuildingBlock: CUQRIR_clean_linker_1, # of connection points: 3
#     Node 2, Type 0, BuildingBlock: CUQRIR_clean_linker_1, # of connection points: 3
#     Node 3, Type 0, BuildingBlock: CUQRIR_clean_linker_1, # of connection points: 3
#     Node 4, Type 1, BuildingBlock: CIFDUS_clean_sbu_1, # of connection points: 6
#     Node 5, Type 1, BuildingBlock: CIFDUS_clean_sbu_1, # of connection points: 6
#     Edge 6, Type (0, 1), BuildingBlock: OJICUG_clean_linker_0, # of connection points: 2
#     Edge 7, Type (0, 1), BuildingBlock: OJICUG_clean_linker_0, # of connection points: 2
#     Edge 8, Type (0, 1), BuildingBlock: OJICUG_clean_linker_0, # of connection points: 2
#     Edge 9, Type (0, 1), BuildingBlock: OJICUG_clean_linker_0, # of connection points: 2
#     Edge 10, Type (0, 1), BuildingBlock: OJICUG_clean_linker_0, # of connection points: 2
#     Edge 11, Type (0, 1), BuildingBlock: OJICUG_clean_linker_0, # of connection points: 2
#     Edge 12, Type (0, 1), BuildingBlock: OJICUG_clean_linker_0, # of connection points: 2
#     Edge 13, Type (0, 1), BuildingBlock: OJICUG_clean_linker_0, # of connection points: 2
#     Edge 14, Type (0, 1), BuildingBlock: OJICUG_clean_linker_0, # of connection points: 2
#     Edge 15, Type (0, 1), BuildingBlock: OJICUG_clean_linker_0, # of connection points: 2
#     Edge 16, Type (0, 1), BuildingBlock: OJICUG_clean_linker_0, # of connection points: 2
#     Edge 17, Type (0, 1), BuildingBlock: OJICUG_clean_linker_0, # of connection points: 2
# Relax obj value: 0.023
# Max RMSD: 0.118
# Mean RMSD: 0.099
data_MOF--net-rtl--node1-CIFDUS_clean_sbu_1--node2-CUQRIR_clean_linker_1--edge1-OJICUG_clean_linker_0
_symmetry_space_group_name_H-M    P1
_symmetry_Int_Tables_number       1
_symmetry_cell_setting            triclinic
loop_
_symmetry_equiv_pos_as_xyz
'x, y, z'
_cell_length_a     23.611468
_cell_length_b     23.718885
_cell_length_c     13.482398
_cell_angle_alpha  90.271692
_cell_angle_beta   100.02216
_cell_angle_gamma 89.730221
loop_
_atom_site_label
_atom_site_type_symbol
_atom_site_fract_x
_atom_site_fract_y
_atom_site_fract_z
_atom_type_partial_charge
C0 C 0.2155 0.76862 0.06593 0.0
N1 N 0.17805 0.80991 0.08112 0.0
N2 N 0.24428 0.74905 0.15502 0.0
C3 C 0.22912 0.75239 0.96441 0.0
C4 C 0.22426 0.78085 0.22498 0.0
N5 N 0.1842 0.81815 0.18027 0.0
C6 C 0.24281 0.77407 0.33665 0.0
H7 H 0.19512 0.72373 0.9261 0.0
H8 H 0.27125 0.73062 0.97093 0.0
H9 H 0.2297 0.79023 0.91652 0.0
H10 H 0.26212 0.73184 0.35492 0.0
H11 H 0.20579 0.78012 0.37629 0.0
H12 H 0.27563 0.80644 0.36427 0.0
C13 C 0.76487 0.72091 0.73088 0.0
N14 N 0.72506 0.68269 0.68935 0.0
N15 N 0.78604 0.74901 0.65843 0.0
C16 C 0.77971 0.73389 0.84154 0.0
C17 C 0.75686 0.72762 0.57109 0.0
N18 N 0.71914 0.68783 0.58967 0.0
C19 C 0.76545 0.74574 0.4679 0.0
H20 H 0.73987 0.7376 0.87433 0.0
H21 H 0.80485 0.77335 0.85608 0.0
H22 H 0.80562 0.69862 0.87988 0.0
H23 H 0.76098 0.70932 0.41519 0.0
H24 H 0.80826 0.7652 0.47017 0.0
H25 H 0.73213 0.77747 0.43854 0.0
C26 C 0.81645 0.27013 0.09356 0.0
N27 N 0.85395 0.22888 0.07837 0.0
N28 N 0.78767 0.28971 1.00447 0.0
C29 C 0.80278 0.28629 0.19508 0.0
C30 C 0.80777 0.25797 0.9345 0.0
N31 N 0.84784 0.22069 0.9792 0.0
C32 C 0.78924 0.26479 0.82283 0.0
H33 H 0.76068 0.30812 0.18855 0.0
H34 H 0.83681 0.31486 0.23354 0.0
H35 H 0.80212 0.2484 0.24283 0.0
H36 H 0.82625 0.25871 0.7832 0.0
H37 H 0.77 0.30706 0.80462 0.0
H38 H 0.75637 0.23248 0.79517 0.0
C39 C 0.26647 0.31779 0.4282 0.0
N40 N 0.30635 0.35595 0.46973 0.0
N41 N 0.24523 0.28976 0.50065 0.0
C42 C 0.25164 0.3048 0.31754 0.0
C43 C 0.27444 0.31112 0.588 0.0
N44 N 0.31224 0.35082 0.56941 0.0
C45 C 0.26583 0.29303 0.6912 0.0
H46 H 0.22592 0.34015 0.27913 0.0
H47 H 0.22633 0.26544 0.30298 0.0
H48 H 0.2915 0.30089 0.28486 0.0
H49 H 0.29907 0.26121 0.7205 0.0
H50 H 0.22297 0.27369 0.68896 0.0
H51 H 0.27041 0.32944 0.74393 0.0
O52 O 0.9788 0.07322 0.45917 0.0
Mn53 Mn 0.01586 0.01929 0.5797 0.0
O54 O 0.89608 0.03371 0.39347 0.0
Mn55 Mn 0.92675 0.96539 0.43155 0.0
O56 O 0.05292 0.96537 0.70024 0.0
O57 O 0.08305 0.07705 0.59563 0.0
Mn58 Mn 0.10509 0.07312 0.7278 0.0
O59 O 0.97456 0.06585 0.68019 0.0
O60 O 0.13577 0.00476 0.76554 0.0
O61 O 0.0572 0.97275 0.47925 0.0
O62 O 0.98409 0.93978 0.36579 0.0
O63 O 0.15424 0.12336 0.69558 0.0
O64 O 0.04776 0.09866 0.7937 0.0
C65 C 0.90604 0.92502 0.5532 0.0
C66 C 0.93048 0.07433 0.39814 0.0
C67 C 0.10131 0.9642 0.76106 0.0
C68 C 0.12561 0.11358 0.60605 0.0
C69 C 0.99415 0.09301 0.76189 0.0
C70 C 0.03768 0.94551 0.39761 0.0
O71 O 0.94864 0.96152 0.56379 0.0
O72 O 0.87753 0.91519 0.4636 0.0
O73 O 0.56496 0.56025 0.20423 0.0
Mn74 Mn 0.51579 0.51918 0.07958 0.0
O75 O 0.60308 0.48942 0.30373 0.0
Mn76 Mn 0.57445 0.43243 0.2165 0.0
O77 O 0.46662 0.47814 0.95491 0.0
O78 O 0.45718 0.58557 0.06875 0.0
Mn79 Mn 0.4572 0.60598 0.94272 0.0
O80 O 0.5688 0.55499 0.98247 0.0
O81 O 0.42868 0.54901 0.85537 0.0
O82 O 0.46278 0.48337 0.17668 0.0
O83 O 0.50586 0.40377 0.23336 0.0
O84 O 0.40769 0.65516 0.97947 0.0
O85 O 0.52581 0.63469 0.92611 0.0
C86 C 0.61163 0.41087 0.09592 0.0
C87 C 0.59535 0.54177 0.28645 0.0
C88 C 0.43633 0.49665 0.87264 0.0
C89 C 0.41991 0.62745 0.06325 0.0
C90 C 0.56786 0.60132 0.93268 0.0
C91 C 0.46377 0.4371 0.22663 0.0
O92 O 0.57438 0.45277 0.0904 0.0
O93 O 0.62387 0.38318 0.17972 0.0
C94 C 0.2284 0.1879 0.48425 0.0
C95 C 0.20664 0.24264 0.48963 0.0
H96 H 0.21558 0.10031 0.51018 0.0
C97 C 0.14923 0.25024 0.50094 0.0
H98 H 0.27283 0.18157 0.47622 0.0
C99 C 0.11592 0.20374 0.51813 0.0
C100 C 0.14016 0.14934 0.52592 0.0
H101 H 0.13215 0.2924 0.50596 0.0
H102 H 0.0744 0.21129 0.53967 0.0
C103 C 0.19519 0.14146 0.50162 0.0
C104 C 0.282 0.65364 0.13553 0.0
C105 C 0.29117 0.70932 0.16954 0.0
H106 H 0.31981 0.5795 0.08332 0.0
C107 C 0.3476 0.72825 0.20111 0.0
H108 H 0.23861 0.6386 0.11054 0.0
C109 C 0.39417 0.69438 0.1862 0.0
C110 C 0.38469 0.64134 0.13939 0.0
H111 H 0.35531 0.7713 0.22691 0.0
H112 H 0.43669 0.7129 0.19769 0.0
C113 C 0.32859 0.61951 0.12201 0.0
C114 C 0.80285 0.85089 0.67442 0.0
C115 C 0.82463 0.79614 0.66947 0.0
H116 H 0.81576 0.93843 0.64823 0.0
C117 C 0.88212 0.78849 0.65864 0.0
H118 H 0.75836 0.85726 0.68207 0.0
C119 C 0.9155 0.83495 0.6415 0.0
C120 C 0.89128 0.88935 0.6333 0.0
H121 H 0.89923 0.74631 0.65397 0.0
H122 H 0.95711 0.82734 0.62034 0.0
C123 C 0.83614 0.89729 0.65712 0.0
C124 C 0.74963 0.385 1.02376 0.0
C125 C 0.74065 0.32927 0.98992 0.0
H126 H 0.71157 0.45908 0.07568 0.0
C127 C 0.68428 0.31015 0.95844 0.0
H128 H 0.79297 0.40019 0.04869 0.0
C129 C 0.6376 0.34389 0.97324 0.0
C130 C 0.64689 0.397 1.01984 0.0
H131 H 0.67671 0.26706 0.93278 0.0
H132 H 0.59514 0.32523 0.96183 0.0
C133 C 0.70292 0.41901 1.03714 0.0
C134 C 0.08894 0.85227 0.20203 0.0
C135 C 0.14872 0.85474 0.22979 0.0
H136 H 0.0075 0.87862 0.23233 0.0
C137 C 0.17276 0.89089 0.30901 0.0
H138 H 0.06954 0.82482 0.14122 0.0
C139 C 0.1372 0.92168 0.36314 0.0
C140 C 0.07706 0.9171 0.33806 0.0
H141 H 0.21896 0.89459 0.32983 0.0
H142 H 0.15672 0.94823 0.42522 0.0
C143 C 0.05357 0.88303 0.2551 0.0
C144 C 0.62712 0.665 0.71692 0.0
C145 C 0.68585 0.65348 0.74195 0.0
H146 H 0.54445 0.65684 0.75663 0.0
C147 C 0.70585 0.61843 0.825 0.0
H148 H 0.61079 0.69186 0.65353 0.0
C149 C 0.6677 0.5983 0.88608 0.0
C150 C 0.60941 0.61378 0.86492 0.0
H151 H 0.75116 0.60833 0.84428 0.0
H152 H 0.68409 0.57317 0.95177 0.0
C153 C 0.58944 0.64541 0.77728 0.0
C154 C 0.91659 0.20939 0.24344 0.0
C155 C 0.88165 0.19021 0.15406 0.0
H156 H 0.96036 0.18763 0.39277 0.0
C157 C 0.8683 0.13301 0.14362 0.0
H158 H 0.9278 0.25354 0.25236 0.0
C159 C 0.88634 0.09608 0.22241 0.0
C160 C 0.91819 0.11525 0.31453 0.0
H161 H 0.84125 0.11731 0.07608 0.0
H162 H 0.87384 0.05227 0.21163 0.0
C163 C 0.93513 0.17195 0.32337 0.0
C164 C 0.38339 0.36318 0.72742 0.0
C165 C 0.34743 0.38617 0.64274 0.0
H166 H 0.43986 0.3799 0.8677 0.0
C167 C 0.34364 0.44468 0.63233 0.0
H168 H 0.38791 0.31796 0.73585 0.0
C169 C 0.37334 0.47984 0.70632 0.0
C170 C 0.40773 0.45743 0.79341 0.0
H171 H 0.31613 0.46322 0.568 0.0
H172 H 0.36821 0.52492 0.69559 0.0
C173 C 0.4132 0.39856 0.8025 0.0
C174 C 0.64802 0.67533 0.43167 0.0
C175 C 0.68406 0.65242 0.51632 0.0
H176 H 0.59155 0.65852 0.29143 0.0
C177 C 0.68804 0.59391 0.52667 0.0
H178 H 0.64337 0.72054 0.42327 0.0
C179 C 0.65843 0.55869 0.45266 0.0
C180 C 0.62393 0.58104 0.36563 0.0
H181 H 0.71563 0.57541 0.59096 0.0
H182 H 0.6637 0.51362 0.46334 0.0
C183 C 0.6183 0.63991 0.35658 0.0
C184 C 0.85917 0.14794 0.85042 0.0
C185 C 0.88327 0.18403 0.92968 0.0
H186 H 0.87511 0.09057 0.73418 0.0
C187 C 0.94305 0.18635 0.95753 0.0
H188 H 0.81296 0.14435 0.82954 0.0
C189 C 0.97837 0.1555 0.90448 0.0
C190 C 0.95483 0.12149 0.82147 0.0
H191 H 0.96251 0.21374 1.01838 0.0
H192 H 0.02445 0.15978 0.92732 0.0
C193 C 0.89467 0.11706 0.79631 0.0
C194 C 0.40431 0.37335 0.44213 0.0
C195 C 0.34562 0.38504 0.41714 0.0
H196 H 0.487 0.38133 0.40246 0.0
C197 C 0.32571 0.42019 0.33419 0.0
H198 H 0.42057 0.34641 0.50545 0.0
C199 C 0.36392 0.44027 0.27317 0.0
C200 C 0.42217 0.42462 0.29428 0.0
H201 H 0.28043 0.43042 0.31496 0.0
H202 H 0.3476 0.46549 0.20757 0.0
C203 C 0.44204 0.39288 0.38183 0.0
C204 C 0.11533 0.82925 0.91606 0.0
C205 C 0.15027 0.84852 1.00538 0.0
H206 H 0.07152 0.85089 0.76669 0.0
C207 C 0.16353 0.90574 1.01572 0.0
H208 H 0.10418 0.78509 0.90723 0.0
C209 C 0.14543 0.94261 0.93686 0.0
C210 C 0.11361 0.92335 0.84478 0.0
H211 H 0.19057 0.92151 0.08321 0.0
H212 H 0.15787 0.98644 0.94754 0.0
C213 C 0.09674 0.86663 0.83605 0.0
loop_
_geom_bond_atom_site_label_1
_geom_bond_atom_site_label_2
_geom_bond_distance
_geom_bond_site_symmetry_2
_ccdc_geom_bond_type
C0 N1 1.317 . S
C0 N2 1.348 . S
C0 C3 1.485 1_554 S
N1 C0 1.317 . S
N1 N5 1.370 . S
N2 C0 1.348 . S
N2 C4 1.346 . S
C3 C0 1.485 1_556 S
C3 H7 0.960 . S
C3 H8 0.961 . S
C3 H9 0.960 . S
C4 N2 1.346 . S
C4 N5 1.307 . S
C4 C6 1.486 . S
N5 N1 1.370 . S
N5 C4 1.307 . S
C6 C4 1.486 . S
C6 H10 0.960 . S
C6 H11 0.960 . S
C6 H12 0.959 . S
H7 C3 0.960 . S
H8 C3 0.961 . S
H9 C3 0.960 . S
H10 C6 0.960 . S
H11 C6 0.960 . S
H12 C6 0.959 . S
C13 N14 1.317 . S
C13 N15 1.348 . S
C13 C16 1.485 . S
N14 C13 1.317 . S
N14 N18 1.370 . S
N15 C13 1.348 . S
N15 C17 1.346 . S
C16 C13 1.485 . S
C16 H20 0.960 . S
C16 H21 0.961 . S
C16 H22 0.960 . S
C17 N15 1.346 . S
C17 N18 1.307 . S
C17 C19 1.486 . S
N18 N14 1.370 . S
N18 C17 1.307 . S
C19 C17 1.486 . S
C19 H23 0.960 . S
C19 H24 0.960 . S
C19 H25 0.959 . S
H20 C16 0.960 . S
H21 C16 0.961 . S
H22 C16 0.960 . S
H23 C19 0.960 . S
H24 C19 0.960 . S
H25 C19 0.959 . S
C26 N27 1.317 . S
C26 N28 1.343 1_554 S
C26 C29 1.485 . S
N27 C26 1.317 . S
N27 N31 1.370 1_554 S
N28 C26 1.343 1_556 S
N28 C30 1.352 . S
C29 C26 1.485 . S
C29 H33 0.960 . S
C29 H34 0.961 . S
C29 H35 0.960 . S
C30 N28 1.352 . S
C30 N31 1.307 . S
C30 C32 1.486 . S
N31 N27 1.370 1_556 S
N31 C30 1.307 . S
C32 C30 1.486 . S
C32 H36 0.960 . S
C32 H37 0.960 . S
C32 H38 0.959 . S
H33 C29 0.960 . S
H34 C29 0.961 . S
H35 C29 0.960 . S
H36 C32 0.960 . S
H37 C32 0.960 . S
H38 C32 0.959 . S
C39 N40 1.317 . S
C39 N41 1.348 . S
C39 C42 1.485 . S
N40 C39 1.317 . S
N40 N44 1.370 . S
N41 C39 1.348 . S
N41 C43 1.346 . S
C42 C39 1.485 . S
C42 H46 0.960 . S
C42 H47 0.961 . S
C42 H48 0.960 . S
C43 N41 1.346 . S
C43 N44 1.307 . S
C43 C45 1.486 . S
N44 N40 1.370 . S
N44 C43 1.307 . S
C45 C43 1.486 . S
C45 H49 0.960 . S
C45 H50 0.960 . S
C45 H51 0.959 . S
H46 C42 0.960 . S
H47 C42 0.961 . S
H48 C42 0.960 . S
H49 C45 0.960 . S
H50 C45 0.960 . S
H51 C45 0.959 . S
O52 Mn53 2.163 1_655 S
O52 C66 1.244 . S
Mn53 O52 2.163 1_455 S
Mn53 O56 2.160 1_545 S
Mn53 O57 2.221 . S
Mn53 O59 2.163 1_455 S
Mn53 O61 2.160 1_545 S
Mn53 O71 2.221 1_445 S
O54 Mn55 2.087 1_545 S
O54 C66 1.256 . S
Mn55 O54 2.087 1_565 S
Mn55 O62 2.089 1_655 S
Mn55 O71 2.290 . S
Mn55 O72 2.251 . S
O56 Mn53 2.160 1_565 S
O56 C67 1.239 . S
O57 Mn53 2.221 . S
O57 Mn58 2.290 . S
O57 C68 1.278 . S
Mn58 O57 2.290 . S
Mn58 O60 2.089 . S
Mn58 O63 2.251 . S
Mn58 O64 2.087 . S
O59 Mn53 2.163 1_655 S
O59 C69 1.244 . S
O60 Mn58 2.089 . S
O60 C67 1.256 1_545 S
O61 Mn53 2.160 1_565 S
O61 C70 1.239 . S
O62 Mn55 2.089 1_455 S
O62 C70 1.256 . S
O63 Mn58 2.251 . S
O63 C68 1.241 . S
O64 Mn58 2.087 . S
O64 C69 1.256 1_455 S
C65 O71 1.278 . S
C65 O72 1.241 . S
C66 O52 1.244 . S
C66 O54 1.256 . S
C67 O56 1.239 . S
C67 O60 1.256 1_565 S
C68 O57 1.278 . S
C68 O63 1.241 . S
C69 O59 1.244 . S
C69 O64 1.256 1_655 S
C70 O61 1.239 . S
C70 O62 1.256 . S
O71 Mn53 2.221 1_665 S
O71 Mn55 2.290 . S
O71 C65 1.278 . S
O72 Mn55 2.251 . S
O72 C65 1.241 . S
O73 Mn74 2.163 . S
O73 C87 1.244 . S
Mn74 O73 2.163 . S
Mn74 O77 2.160 1_554 S
Mn74 O78 2.223 . S
Mn74 O80 2.163 1_554 S
Mn74 O82 2.160 . S
Mn74 O92 2.221 . S
O75 Mn76 2.087 . S
O75 C87 1.256 . S
Mn76 O75 2.087 . S
Mn76 O83 2.089 . S
Mn76 O92 2.290 . S
Mn76 O93 2.251 . S
O77 Mn74 2.160 1_556 S
O77 C88 1.239 . S
O78 Mn74 2.223 . S
O78 Mn79 2.278 1_554 S
O78 C89 1.280 . S
Mn79 O78 2.278 1_556 S
Mn79 O81 2.089 . S
Mn79 O84 2.251 . S
Mn79 O85 2.087 . S
O80 Mn74 2.163 1_556 S
O80 C90 1.244 . S
O81 Mn79 2.089 . S
O81 C88 1.256 . S
O82 Mn74 2.160 . S
O82 C91 1.239 . S
O83 Mn76 2.089 . S
O83 C91 1.256 . S
O84 Mn79 2.251 . S
O84 C89 1.241 1_556 S
O85 Mn79 2.087 . S
O85 C90 1.256 . S
C86 O92 1.278 . S
C86 O93 1.241 . S
C87 O73 1.244 . S
C87 O75 1.256 . S
C88 O77 1.239 . S
C88 O81 1.256 . S
C89 O78 1.280 . S
C89 O84 1.241 1_554 S
C90 O80 1.244 . S
C90 O85 1.256 . S
C91 O82 1.239 . S
C91 O83 1.256 . S
O92 Mn74 2.221 . S
O92 Mn76 2.290 . S
O92 C86 1.278 . S
O93 Mn76 2.251 . S
O93 C86 1.241 . S
C94 C95 1.387 . S
C94 H98 0.950 . S
C94 C103 1.390 . S
C95 C94 1.387 . S
C95 C97 1.387 . S
H96 C103 0.950 . S
C97 C95 1.387 . S
C97 C99 1.390 . S
C97 H101 0.950 . S
H98 C94 0.950 . S
C99 C97 1.390 . S
C99 C100 1.387 . S
C99 H102 0.950 . S
C100 C99 1.387 . S
C100 C103 1.387 . S
H101 C97 0.950 . S
H102 C99 0.950 . S
C103 C94 1.390 . S
C103 H96 0.950 . S
C103 C100 1.387 . S
C104 C105 1.387 1_556 S
C104 H108 0.950 . S
C104 C113 1.390 . S
C105 C104 1.387 1_554 S
C105 C107 1.387 . S
H106 C113 0.950 . S
C107 C105 1.387 . S
C107 C109 1.390 . S
C107 H111 0.950 . S
H108 C104 0.950 . S
C109 C107 1.390 . S
C109 C110 1.387 . S
C109 H112 0.950 . S
C110 C109 1.387 . S
C110 C113 1.387 1_554 S
H111 C107 0.950 . S
H112 C109 0.950 . S
C113 C104 1.390 . S
C113 H106 0.950 . S
C113 C110 1.387 1_556 S
C114 C115 1.387 . S
C114 H118 0.950 . S
C114 C123 1.390 . S
C115 C114 1.387 . S
C115 C117 1.387 . S
H116 C123 0.950 . S
C117 C115 1.387 . S
C117 C119 1.390 . S
C117 H121 0.950 . S
H118 C114 0.950 . S
C119 C117 1.390 . S
C119 C120 1.387 . S
C119 H122 0.950 . S
C120 C119 1.387 . S
C120 C123 1.387 . S
H121 C117 0.950 . S
H122 C119 0.950 . S
C123 C114 1.390 . S
C123 H116 0.950 . S
C123 C120 1.387 . S
C124 C125 1.394 . S
C124 H128 0.950 . S
C124 C133 1.390 . S
C125 C124 1.394 . S
C125 C127 1.380 1_556 S
H126 C133 0.950 . S
C127 C125 1.380 1_554 S
C127 C129 1.390 . S
C127 H131 0.950 . S
H128 C124 0.950 . S
C129 C127 1.390 . S
C129 C130 1.387 . S
C129 H132 0.950 . S
C130 C129 1.387 . S
C130 C133 1.387 1_554 S
H131 C127 0.950 . S
H132 C129 0.950 . S
C133 C124 1.390 . S
C133 H126 0.950 . S
C133 C130 1.387 1_556 S
C134 C135 1.387 . S
C134 H138 0.950 . S
C134 C143 1.390 . S
C135 C134 1.387 . S
C135 C137 1.387 . S
H136 C143 0.950 . S
C137 C135 1.387 . S
C137 C139 1.390 . S
C137 H141 0.950 . S
H138 C134 0.950 . S
C139 C137 1.390 . S
C139 C140 1.387 . S
C139 H142 0.950 . S
C140 C139 1.387 . S
C140 C143 1.387 . S
H141 C137 0.950 . S
H142 C139 0.950 . S
C143 C134 1.390 . S
C143 H136 0.950 . S
C143 C140 1.387 . S
C144 C145 1.387 . S
C144 H148 0.950 . S
C144 C153 1.390 . S
C145 C144 1.387 . S
C145 C147 1.387 . S
H146 C153 0.950 . S
C147 C145 1.387 . S
C147 C149 1.390 . S
C147 H151 0.950 . S
H148 C144 0.950 . S
C149 C147 1.390 . S
C149 C150 1.387 . S
C149 H152 0.950 . S
C150 C149 1.387 . S
C150 C153 1.387 . S
H151 C147 0.950 . S
H152 C149 0.950 . S
C153 C144 1.390 . S
C153 H146 0.950 . S
C153 C150 1.387 . S
C154 C155 1.387 . S
C154 H158 0.950 . S
C154 C163 1.390 . S
C155 C154 1.387 . S
C155 C157 1.387 . S
H156 C163 0.950 . S
C157 C155 1.387 . S
C157 C159 1.390 . S
C157 H161 0.950 . S
H158 C154 0.950 . S
C159 C157 1.390 . S
C159 C160 1.387 . S
C159 H162 0.950 . S
C160 C159 1.387 . S
C160 C163 1.387 . S
H161 C157 0.950 . S
H162 C159 0.950 . S
C163 C154 1.390 . S
C163 H156 0.950 . S
C163 C160 1.387 . S
C164 C165 1.387 . S
C164 H168 0.950 . S
C164 C173 1.390 . S
C165 C164 1.387 . S
C165 C167 1.387 . S
H166 C173 0.950 . S
C167 C165 1.387 . S
C167 C169 1.390 . S
C167 H171 0.950 . S
H168 C164 0.950 . S
C169 C167 1.390 . S
C169 C170 1.387 . S
C169 H172 0.950 . S
C170 C169 1.387 . S
C170 C173 1.387 . S
H171 C167 0.950 . S
H172 C169 0.950 . S
C173 C164 1.390 . S
C173 H166 0.950 . S
C173 C170 1.387 . S
C174 C175 1.387 . S
C174 H178 0.950 . S
C174 C183 1.390 . S
C175 C174 1.387 . S
C175 C177 1.387 . S
H176 C183 0.950 . S
C177 C175 1.387 . S
C177 C179 1.390 . S
C177 H181 0.950 . S
H178 C174 0.950 . S
C179 C177 1.390 . S
C179 C180 1.387 . S
C179 H182 0.950 . S
C180 C179 1.387 . S
C180 C183 1.387 . S
H181 C177 0.950 . S
H182 C179 0.950 . S
C183 C174 1.390 . S
C183 H176 0.950 . S
C183 C180 1.387 . S
C184 C185 1.387 . S
C184 H188 0.950 . S
C184 C193 1.390 . S
C185 C184 1.387 . S
C185 C187 1.387 . S
H186 C193 0.950 . S
C187 C185 1.387 . S
C187 C189 1.390 . S
C187 H191 0.950 . S
H188 C184 0.950 . S
C189 C187 1.390 . S
C189 C190 1.387 . S
C189 H192 0.950 . S
C190 C189 1.387 . S
C190 C193 1.387 . S
H191 C187 0.950 . S
H192 C189 0.950 . S
C193 C184 1.390 . S
C193 H186 0.950 . S
C193 C190 1.387 . S
C194 C195 1.387 . S
C194 H198 0.950 . S
C194 C203 1.390 . S
C195 C194 1.387 . S
C195 C197 1.387 . S
H196 C203 0.950 . S
C197 C195 1.387 . S
C197 C199 1.390 . S
C197 H201 0.950 . S
H198 C194 0.950 . S
C199 C197 1.390 . S
C199 C200 1.387 . S
C199 H202 0.950 . S
C200 C199 1.387 . S
C200 C203 1.387 . S
H201 C197 0.950 . S
H202 C199 0.950 . S
C203 C194 1.390 . S
C203 H196 0.950 . S
C203 C200 1.387 . S
C204 C205 1.387 . S
C204 H208 0.950 . S
C204 C213 1.390 . S
C205 C204 1.387 . S
C205 C207 1.387 . S
H206 C213 0.950 . S
C207 C205 1.387 . S
C207 C209 1.390 . S
C207 H211 0.950 1_556 S
H208 C204 0.950 . S
C209 C207 1.390 . S
C209 C210 1.387 . S
C209 H212 0.950 . S
C210 C209 1.387 . S
C210 C213 1.387 . S
H211 C207 0.950 1_554 S
H212 C209 0.950 . S
C213 C204 1.390 . S
C213 H206 0.950 . S
C213 C210 1.387 . S
C100 C68 1.286 . S
C95 N41 1.475 . S
C105 N2 1.474 . S
C110 C89 1.286 . S
C115 N15 1.587 . S
C120 C65 1.371 . S
C125 N28 1.583 . S
C130 C86 1.371 . S
C140 C70 1.458 . S
C135 N5 1.489 . S
C150 C90 1.502 . S
C145 N14 1.565 . S
C155 N27 1.539 . S
C160 C66 1.503 . S
C165 N44 1.484 . S
C170 C88 1.439 . S
C180 C87 1.503 . S
C175 N18 1.541 . S
C190 C69 1.505 . S
C185 N31 1.571 . S
C200 C91 1.458 . S
C195 N40 1.483 . S
C205 N1 1.486 1_556 S
C210 C67 1.439 . S
