# Generated by pormake.
# Topology cml, (3,6)-cn, num edge types: 1
# Building blocks:
#     Node 0, Type 0, BuildingBlock: PAMTOO_clean_linker_0, # of connection points: 3
#     Node 1, Type 0, BuildingBlock: PAMTOO_clean_linker_0, # of connection points: 3
#     Node 2, Type 0, BuildingBlock: PAMTOO_clean_linker_0, # of connection points: 3
#     Node 3, Type 0, BuildingBlock: PAMTOO_clean_linker_0, # of connection points: 3
#     Node 4, Type 0, BuildingBlock: PAMTOO_clean_linker_0, # of connection points: 3
#     Node 5, Type 0, BuildingBlock: PAMTOO_clean_linker_0, # of connection points: 3
#     Node 6, Type 0, BuildingBlock: PAMTOO_clean_linker_0, # of connection points: 3
#     Node 7, Type 0, BuildingBlock: PAMTOO_clean_linker_0, # of connection points: 3
#     Node 8, Type 1, BuildingBlock: OJICUG_clean_sbu_0, # of connection points: 6
#     Node 9, Type 1, BuildingBlock: OJICUG_clean_sbu_0, # of connection points: 6
#     Node 10, Type 1, BuildingBlock: OJICUG_clean_sbu_0, # of connection points: 6
#     Node 11, Type 1, BuildingBlock: OJICUG_clean_sbu_0, # of connection points: 6
#     Edge 12, Type (0, 1), None
#     Edge 13, Type (0, 1), None
#     Edge 14, Type (0, 1), None
#     Edge 15, Type (0, 1), None
#     Edge 16, Type (0, 1), None
#     Edge 17, Type (0, 1), None
#     Edge 18, Type (0, 1), None
#     Edge 19, Type (0, 1), None
#     Edge 20, Type (0, 1), None
#     Edge 21, Type (0, 1), None
#     Edge 22, Type (0, 1), None
#     Edge 23, Type (0, 1), None
#     Edge 24, Type (0, 1), None
#     Edge 25, Type (0, 1), None
#     Edge 26, Type (0, 1), None
#     Edge 27, Type (0, 1), None
#     Edge 28, Type (0, 1), None
#     Edge 29, Type (0, 1), None
#     Edge 30, Type (0, 1), None
#     Edge 31, Type (0, 1), None
#     Edge 32, Type (0, 1), None
#     Edge 33, Type (0, 1), None
#     Edge 34, Type (0, 1), None
#     Edge 35, Type (0, 1), None
# Relax obj value: 0.007
# Max RMSD: 0.041
# Mean RMSD: 0.040
data_MOF--net-cml--node1-OJICUG_clean_sbu_0--node2-PAMTOO_clean_linker_0--edge1-none
_symmetry_space_group_name_H-M    P1
_symmetry_Int_Tables_number       1
_symmetry_cell_setting            triclinic
loop_
_symmetry_equiv_pos_as_xyz
'x, y, z'
_cell_length_a     17.78106
_cell_length_b     18.665333
_cell_length_c     16.730071
_cell_angle_alpha  88.910896
_cell_angle_beta   89.591267
_cell_angle_gamma 89.759919
loop_
_atom_site_label
_atom_site_type_symbol
_atom_site_fract_x
_atom_site_fract_y
_atom_site_fract_z
_atom_type_partial_charge
H0 H 0.43862 0.48497 0.04615 0.0
H1 H 0.26028 0.45033 0.88239 0.0
H2 H 0.29404 0.30136 0.07946 0.0
H3 H 0.25031 0.2455 0.90657 0.0
C4 C 0.21212 0.29089 0.89086 0.0
O5 O 0.20717 0.33582 0.95544 0.0
H6 H 0.23569 0.32036 0.83794 0.0
C7 C 0.38971 0.45397 0.03009 0.0
C8 C 0.37168 0.39071 0.07296 0.0
C9 C 0.35147 0.4749 0.96118 0.0
C10 C 0.28956 0.43517 0.93675 0.0
C11 C 0.26747 0.37349 -0.01963 0.0
C12 C 0.30961 0.3502 0.04765 0.0
H13 H 0.6213 0.48318 0.5555 0.0
H14 H 0.73477 0.68714 0.56127 0.0
H15 H 0.7556 0.55361 0.35622 0.0
H16 H 0.88951 0.60227 0.3927 0.0
C17 C 0.87873 0.65343 0.4241 0.0
O18 O 0.80323 0.66948 0.4228 0.0
H19 H 0.89789 0.64645 0.48703 0.0
C20 C 0.66074 0.52164 0.53009 0.0
C21 C 0.68909 0.50966 0.45334 0.0
C22 C 0.67336 0.58705 0.56844 0.0
C23 C 0.72268 0.637 0.53252 0.0
C24 C 0.75404 0.62337 0.45706 0.0
C25 C 0.73505 0.56122 0.41665 0.0
H26 H 0.58006 0.45282 0.04452 0.0
H27 H 0.77206 0.31231 0.05849 0.0
H28 H 0.74906 0.46193 0.86035 0.0
H29 H 0.82838 0.35882 0.80267 0.0
C30 C 0.83551 0.32197 0.85514 0.0
O31 O 0.83444 0.36153 0.92399 0.0
H32 H 0.78848 0.28273 0.8557 0.0
C33 C 0.6331 0.43405 0.01991 0.0
C34 C 0.65955 0.46324 0.94799 0.0
C35 C 0.67268 0.37969 0.05981 0.0
C36 C 0.74063 0.35413 0.02762 0.0
C37 C 0.76883 0.38481 0.95592 0.0
C38 C 0.72804 0.43933 0.91628 0.0
H39 H 0.45099 0.50999 0.55064 0.0
H40 H 0.33516 0.56412 0.33306 0.0
H41 H 0.30423 0.69359 0.54074 0.0
H42 H 0.16836 0.61183 0.43349 0.0
C43 C 0.18978 0.64079 0.37913 0.0
O44 O 0.25951 0.66979 0.39301 0.0
H45 H 0.19407 0.60186 0.32973 0.0
C46 C 0.41049 0.54285 0.5182 0.0
C47 C 0.3795 0.60298 0.55517 0.0
C48 C 0.39598 0.5288 0.43793 0.0
C49 C 0.34726 0.57409 0.39526 0.0
C50 C 0.31192 0.6315 0.43315 0.0
C51 C 0.32927 0.64731 0.51272 0.0
H52 H 0.93867 0.98509 0.04601 0.0
H53 H 0.75986 0.95076 0.88275 0.0
H54 H 0.79409 0.80148 0.07945 0.0
H55 H 0.751 0.74671 0.90393 0.0
C56 C 0.71167 0.79177 0.89049 0.0
O57 O 0.70698 0.83605 0.95565 0.0
H58 H 0.73412 0.82226 0.83773 0.0
C59 C 0.88971 0.95413 0.03005 0.0
C60 C 0.87171 0.89086 0.07293 0.0
C61 C 0.8513 0.97515 0.96128 0.0
C62 C 0.78929 0.9355 0.937 0.0
C63 C 0.76731 0.87373 -0.01946 0.0
C64 C 0.8096 0.85036 0.04768 0.0
H65 H 0.12128 0.98313 0.55552 0.0
H66 H 0.23485 0.18704 0.56141 0.0
H67 H 0.2557 0.05355 0.35633 0.0
H68 H 0.38953 0.10215 0.39264 0.0
C69 C 0.37883 0.15329 0.42412 0.0
O70 O 0.30334 0.1694 0.42293 0.0
H71 H 0.39806 0.14623 0.48701 0.0
C72 C 0.16074 0.0216 0.53014 0.0
C73 C 0.18914 0.00961 0.45341 0.0
C74 C 0.17338 0.08699 0.56852 0.0
C75 C 0.22275 0.13692 0.53264 0.0
C76 C 0.25414 0.12329 0.45718 0.0
C77 C 0.23513 0.06115 0.41675 0.0
H78 H 0.07994 0.95266 0.04456 0.0
H79 H 0.27208 0.81234 0.05839 0.0
H80 H 0.24861 0.96164 0.86004 0.0
H81 H 0.32649 0.85729 0.80193 0.0
C82 C 0.33484 0.82139 0.855 0.0
O83 O 0.33411 0.86131 0.92359 0.0
H84 H 0.28821 0.78172 0.85724 0.0
C85 C 0.13295 0.93391 0.01988 0.0
C86 C 0.15925 0.96302 0.94785 0.0
C87 C 0.17266 0.87965 0.0598 0.0
C88 C 0.24059 0.85412 0.02753 0.0
C89 C 0.26863 0.88471 0.95572 0.0
C90 C 0.22771 0.93913 0.91606 0.0
H91 H 0.95119 0.01023 0.55066 0.0
H92 H 0.83535 0.06429 0.33306 0.0
H93 H 0.80434 0.19376 0.54073 0.0
H94 H 0.66856 0.11187 0.43344 0.0
C95 C 0.68996 0.14087 0.37909 0.0
O96 O 0.75966 0.16993 0.393 0.0
H97 H 0.6943 0.10196 0.32968 0.0
C98 C 0.9107 0.04308 0.51821 0.0
C99 C 0.87966 0.1032 0.55518 0.0
C100 C 0.89618 0.029 0.43794 0.0
C101 C 0.84746 0.07428 0.39526 0.0
C102 C 0.81209 0.13168 0.43314 0.0
C103 C 0.82942 0.14749 0.51271 0.0
Sc104 Sc 1.02096 0.75861 0.23042 0.0
Sc105 Sc 0.04524 0.94001 0.25533 0.0
Sc106 Sc 0.03911 0.83006 0.42335 0.0
O107 O 0.0337 0.84245 0.30397 0.0
C108 C 0.92327 0.71152 0.38466 0.0
C109 C 0.92276 0.86963 0.13994 0.0
C110 C 0.93922 0.97247 0.39771 0.0
C111 C 0.14157 0.85606 0.13699 0.0
C112 C 0.13552 0.69849 0.35749 0.0
C113 C 0.15211 0.95583 0.40498 0.0
O114 O 0.94914 0.7013 0.31459 0.0
O115 O 0.97012 0.91665 0.16012 0.0
O116 O 0.97003 0.9239 0.44128 0.0
O117 O 0.09353 0.80552 0.13743 0.0
O118 O 0.10929 0.73616 0.41401 0.0
O119 O 0.11911 0.97977 0.3434 0.0
O120 O 0.11622 0.70581 0.28451 0.0
O121 O 0.14133 0.90355 0.19007 0.0
O122 O 0.13809 0.89465 0.43572 0.0
O123 O 0.92342 0.80662 0.17074 0.0
O124 O 0.94107 0.76439 0.42693 0.0
O125 O 0.95188 0.97976 0.323 0.0
Sc126 Sc 0.02914 0.22028 0.72416 0.0
Sc127 Sc 1.0034 0.03775 0.76003 0.0
Sc128 Sc 1.00558 0.15323 0.92136 0.0
O129 O 1.01287 0.13737 0.80216 0.0
C130 C 0.13654 0.26059 0.87031 0.0
C131 C 0.12557 0.10503 0.63838 0.0
C132 C 0.11092 0.01423 0.9051 0.0
C133 C 0.90976 0.12124 0.63373 0.0
C134 C 0.90746 0.28097 0.84671 0.0
C135 C 0.8897 0.0272 0.90841 0.0
O136 O 0.11212 0.27049 0.79951 0.0
O137 O 0.08167 0.0565 0.66456 0.0
O138 O 0.07812 0.06246 0.94583 0.0
O139 O 0.95198 0.17622 0.6372 0.0
O140 O 0.92995 0.24342 0.90625 0.0
O141 O 0.92375 0.00134 0.84875 0.0
O142 O 0.93598 0.27689 0.77693 0.0
O143 O 0.9121 0.07017 0.68501 0.0
O144 O 0.90719 0.08717 0.93755 0.0
O145 O 0.12198 0.16907 0.66278 0.0
O146 O 0.10519 0.2186 0.92078 0.0
O147 O 0.09529 0.00142 0.83277 0.0
Sc148 Sc 0.521 0.25854 0.23042 0.0
Sc149 Sc 0.54516 0.43996 0.25534 0.0
Sc150 Sc 0.53913 0.33001 0.42335 0.0
O151 O 0.53369 0.34239 0.30398 0.0
C152 C 0.42337 0.21138 0.38468 0.0
C153 C 0.4227 0.3695 0.14 0.0
C154 C 0.43907 0.47231 0.3977 0.0
C155 C 0.64152 0.35609 0.13697 0.0
C156 C 0.63564 0.19853 0.35747 0.0
C157 C 0.65205 0.45587 0.40495 0.0
O158 O 0.44922 0.20118 0.3146 0.0
O159 O 0.47004 0.41654 0.16018 0.0
O160 O 0.46993 0.42377 0.44127 0.0
O161 O 0.59352 0.30551 0.13741 0.0
O162 O 0.6094 0.23618 0.41399 0.0
O163 O 0.61901 0.47979 0.34337 0.0
O164 O 0.6163 0.20581 0.2845 0.0
O165 O 0.64125 0.40357 0.19006 0.0
O166 O 0.63805 0.39469 0.43571 0.0
O167 O 0.42341 0.30648 0.17077 0.0
O168 O 0.44116 0.26425 0.42696 0.0
O169 O 0.45176 0.47964 0.323 0.0
Sc170 Sc 0.52889 0.72027 0.724 0.0
Sc171 Sc 0.50356 0.53766 0.76006 0.0
Sc172 Sc 0.50568 0.65331 0.92133 0.0
O173 O 0.5129 0.63736 0.80211 0.0
C174 C 0.63622 0.76113 0.87002 0.0
C175 C 0.62558 0.60508 0.63831 0.0
C176 C 0.61128 0.51448 0.90517 0.0
C177 C 0.40968 0.62102 0.63369 0.0
C178 C 0.40667 0.78022 0.84649 0.0
C179 C 0.38995 0.52699 0.90844 0.0
O180 O 0.61191 0.77057 0.79912 0.0
O181 O 0.58195 0.55643 0.66473 0.0
O182 O 0.57873 0.56291 0.94581 0.0
O183 O 0.45168 0.67614 0.63718 0.0
O184 O 0.42947 0.743 0.90615 0.0
O185 O 0.42375 0.50125 0.84857 0.0
O186 O 0.43567 0.77677 0.77689 0.0
O187 O 0.41231 0.56988 0.68486 0.0
O188 O 0.40769 0.58679 0.9378 0.0
O189 O 0.6217 0.66919 0.66245 0.0
O190 O 0.60491 0.7193 0.92069 0.0
O191 O 0.59534 0.50137 0.83299 0.0
loop_
_geom_bond_atom_site_label_1
_geom_bond_atom_site_label_2
_geom_bond_distance
_geom_bond_site_symmetry_2
_ccdc_geom_bond_type
H0 C7 0.929 . S
H1 C10 0.930 . S
H2 C12 0.929 . S
H3 C4 0.969 . S
C4 H3 0.969 . S
C4 O5 1.550 1_556 S
C4 H6 0.973 . S
O5 C4 1.550 1_554 S
O5 C11 1.412 . S
H6 C4 0.973 . S
C7 H0 0.929 . S
C7 C8 1.400 . S
C7 C9 1.364 1_554 S
C8 C7 1.400 . S
C8 C12 1.377 . S
C9 C7 1.364 1_556 S
C9 C10 1.374 . S
C10 H1 0.930 . S
C10 C9 1.374 . S
C10 C11 1.383 1_556 S
C11 O5 1.412 . S
C11 C10 1.383 1_554 S
C11 C12 1.394 . S
C12 H2 0.929 . S
C12 C8 1.377 . S
C12 C11 1.394 . S
H13 C20 0.929 . S
H14 C23 0.930 . S
H15 C25 0.929 . S
H16 C17 0.969 . S
C17 H16 0.969 . S
C17 O18 1.550 . S
C17 H19 0.973 . S
O18 C17 1.550 . S
O18 C24 1.412 . S
H19 C17 0.973 . S
C20 H13 0.929 . S
C20 C21 1.400 . S
C20 C22 1.364 . S
C21 C20 1.400 . S
C21 C25 1.377 . S
C22 C20 1.364 . S
C22 C23 1.374 . S
C23 H14 0.930 . S
C23 C22 1.374 . S
C23 C24 1.383 . S
C24 O18 1.412 . S
C24 C23 1.383 . S
C24 C25 1.394 . S
C25 H15 0.929 . S
C25 C21 1.377 . S
C25 C24 1.394 . S
H26 C33 0.929 . S
H27 C36 0.930 . S
H28 C38 0.929 . S
H29 C30 0.969 . S
C30 H29 0.969 . S
C30 O31 1.550 . S
C30 H32 0.973 1_556 S
O31 C30 1.550 . S
O31 C37 1.412 . S
H32 C30 0.973 1_554 S
C33 H26 0.929 . S
C33 C34 1.400 1_554 S
C33 C35 1.364 . S
C34 C33 1.400 1_556 S
C34 C38 1.377 . S
C35 C33 1.364 . S
C35 C36 1.374 . S
C36 H27 0.930 . S
C36 C35 1.374 . S
C36 C37 1.383 1_554 S
C37 O31 1.412 . S
C37 C36 1.383 1_556 S
C37 C38 1.394 . S
C38 H28 0.929 . S
C38 C34 1.377 . S
C38 C37 1.394 . S
H39 C46 0.929 . S
H40 C49 0.930 . S
H41 C51 0.929 . S
H42 C43 0.969 . S
C43 H42 0.969 . S
C43 O44 1.550 . S
C43 H45 0.973 . S
O44 C43 1.550 . S
O44 C50 1.412 . S
H45 C43 0.973 . S
C46 H39 0.929 . S
C46 C47 1.400 . S
C46 C48 1.364 . S
C47 C46 1.400 . S
C47 C51 1.377 . S
C48 C46 1.364 . S
C48 C49 1.374 . S
C49 H40 0.930 . S
C49 C48 1.374 . S
C49 C50 1.383 . S
C50 O44 1.412 . S
C50 C49 1.383 . S
C50 C51 1.394 . S
C51 H41 0.929 . S
C51 C47 1.377 . S
C51 C50 1.394 . S
H52 C59 0.929 . S
H53 C62 0.930 . S
H54 C64 0.929 . S
H55 C56 0.969 . S
C56 H55 0.969 . S
C56 O57 1.550 1_556 S
C56 H58 0.973 . S
O57 C56 1.550 1_554 S
O57 C63 1.412 . S
H58 C56 0.973 . S
C59 H52 0.929 . S
C59 C60 1.400 . S
C59 C61 1.364 1_554 S
C60 C59 1.400 . S
C60 C64 1.377 . S
C61 C59 1.364 1_556 S
C61 C62 1.374 . S
C62 H53 0.930 . S
C62 C61 1.374 . S
C62 C63 1.383 1_556 S
C63 O57 1.412 . S
C63 C62 1.383 1_554 S
C63 C64 1.394 . S
C64 H54 0.929 . S
C64 C60 1.377 . S
C64 C63 1.394 . S
H65 C72 0.929 . S
H66 C75 0.930 . S
H67 C77 0.929 . S
H68 C69 0.969 . S
C69 H68 0.969 . S
C69 O70 1.550 . S
C69 H71 0.973 . S
O70 C69 1.550 . S
O70 C76 1.412 . S
H71 C69 0.973 . S
C72 H65 0.929 . S
C72 C73 1.400 . S
C72 C74 1.364 . S
C73 C72 1.400 . S
C73 C77 1.377 . S
C74 C72 1.364 . S
C74 C75 1.374 . S
C75 H66 0.930 . S
C75 C74 1.374 . S
C75 C76 1.383 . S
C76 O70 1.412 . S
C76 C75 1.383 . S
C76 C77 1.394 . S
C77 H67 0.929 . S
C77 C73 1.377 . S
C77 C76 1.394 . S
H78 C85 0.929 . S
H79 C88 0.930 . S
H80 C90 0.929 . S
H81 C82 0.969 . S
C82 H81 0.969 . S
C82 O83 1.550 . S
C82 H84 0.973 1_556 S
O83 C82 1.550 . S
O83 C89 1.412 . S
H84 C82 0.973 1_554 S
C85 H78 0.929 . S
C85 C86 1.400 1_554 S
C85 C87 1.364 . S
C86 C85 1.400 1_556 S
C86 C90 1.377 . S
C87 C85 1.364 . S
C87 C88 1.374 . S
C88 H79 0.930 . S
C88 C87 1.374 . S
C88 C89 1.383 1_554 S
C89 O83 1.412 . S
C89 C88 1.383 1_556 S
C89 C90 1.394 . S
C90 H80 0.929 . S
C90 C86 1.377 . S
C90 C89 1.394 . S
H91 C98 0.929 . S
H92 C101 0.930 . S
H93 C103 0.929 . S
H94 C95 0.969 . S
C95 H94 0.969 . S
C95 O96 1.550 . S
C95 H97 0.973 . S
O96 C95 1.550 . S
O96 C102 1.412 . S
H97 C95 0.973 . S
C98 H91 0.929 . S
C98 C99 1.400 . S
C98 C100 1.364 . S
C99 C98 1.400 . S
C99 C103 1.377 . S
C100 C98 1.364 . S
C100 C101 1.374 . S
C101 H92 0.930 . S
C101 C100 1.374 . S
C101 C102 1.383 . S
C102 O96 1.412 . S
C102 C101 1.383 . S
C102 C103 1.394 . S
C103 H93 0.929 . S
C103 C99 1.377 . S
C103 C102 1.394 . S
Sc104 O107 2.025 . S
Sc104 O114 2.105 1_455 S
Sc104 O117 2.105 . S
Sc104 O120 2.105 . S
Sc104 O123 2.105 1_455 S
Sc105 O107 2.025 . S
Sc105 O115 2.105 1_455 S
Sc105 O119 2.105 1_565 S
Sc105 O121 2.105 . S
Sc105 O125 2.105 1_465 S
Sc106 O107 2.026 1_655 S
Sc106 O116 2.105 . S
Sc106 O118 2.105 1_655 S
Sc106 O122 2.105 1_655 S
Sc106 O124 2.105 . S
O107 Sc104 2.025 . S
O107 Sc105 2.025 . S
O107 Sc106 2.026 1_455 S
C108 O114 1.268 . S
C108 O124 1.268 . S
C109 O115 1.268 . S
C109 O123 1.268 . S
C110 O116 1.268 . S
C110 O125 1.268 1_565 S
C111 O117 1.268 . S
C111 O121 1.268 . S
C112 O118 1.268 . S
C112 O120 1.268 . S
C113 O119 1.268 1_565 S
C113 O122 1.268 . S
O114 Sc104 2.105 1_655 S
O114 C108 1.268 . S
O115 Sc105 2.105 1_655 S
O115 C109 1.268 . S
O116 Sc106 2.105 . S
O116 C110 1.268 . S
O117 Sc104 2.105 . S
O117 C111 1.268 . S
O118 Sc106 2.105 1_455 S
O118 C112 1.268 . S
O119 Sc105 2.105 1_545 S
O119 C113 1.268 1_545 S
O120 Sc104 2.105 . S
O120 C112 1.268 . S
O121 Sc105 2.105 . S
O121 C111 1.268 . S
O122 Sc106 2.105 1_455 S
O122 C113 1.268 . S
O123 Sc104 2.105 1_655 S
O123 C109 1.268 . S
O124 Sc106 2.105 . S
O124 C108 1.268 . S
O125 Sc105 2.105 1_645 S
O125 C110 1.268 1_545 S
Sc126 O129 2.025 . S
Sc126 O136 2.105 . S
Sc126 O139 2.105 1_455 S
Sc126 O142 2.105 1_455 S
Sc126 O145 2.105 . S
Sc127 O129 2.025 . S
Sc127 O137 2.105 . S
Sc127 O141 2.105 1_445 S
Sc127 O143 2.105 1_455 S
Sc127 O147 2.105 1_545 S
Sc128 O129 2.026 1_655 S
Sc128 O138 2.105 1_655 S
Sc128 O140 2.105 . S
Sc128 O144 2.105 . S
Sc128 O146 2.105 1_655 S
O129 Sc126 2.025 . S
O129 Sc127 2.025 . S
O129 Sc128 2.026 1_455 S
C130 O136 1.268 . S
C130 O146 1.268 . S
C131 O137 1.268 . S
C131 O145 1.268 . S
C132 O138 1.268 . S
C132 O147 1.268 1_545 S
C133 O139 1.268 . S
C133 O143 1.268 . S
C134 O140 1.268 . S
C134 O142 1.268 . S
C135 O141 1.268 1_545 S
C135 O144 1.268 . S
O136 Sc126 2.105 . S
O136 C130 1.268 . S
O137 Sc127 2.105 . S
O137 C131 1.268 . S
O138 Sc128 2.105 1_455 S
O138 C132 1.268 . S
O139 Sc126 2.105 1_655 S
O139 C133 1.268 . S
O140 Sc128 2.105 . S
O140 C134 1.268 . S
O141 Sc127 2.105 1_665 S
O141 C135 1.268 1_565 S
O142 Sc126 2.105 1_655 S
O142 C134 1.268 . S
O143 Sc127 2.105 1_655 S
O143 C133 1.268 . S
O144 Sc128 2.105 . S
O144 C135 1.268 . S
O145 Sc126 2.105 . S
O145 C131 1.268 . S
O146 Sc128 2.105 1_455 S
O146 C130 1.268 . S
O147 Sc127 2.105 1_565 S
O147 C132 1.268 1_565 S
Sc148 O151 2.025 . S
Sc148 O158 2.105 . S
Sc148 O161 2.105 . S
Sc148 O164 2.105 . S
Sc148 O167 2.105 . S
Sc149 O151 2.025 . S
Sc149 O159 2.105 . S
Sc149 O163 2.105 . S
Sc149 O165 2.105 . S
Sc149 O169 2.105 . S
Sc150 O151 2.025 . S
Sc150 O160 2.105 . S
Sc150 O162 2.105 . S
Sc150 O166 2.105 . S
Sc150 O168 2.105 . S
O151 Sc148 2.025 . S
O151 Sc149 2.025 . S
O151 Sc150 2.025 . S
C152 O158 1.268 . S
C152 O168 1.268 . S
C153 O159 1.268 . S
C153 O167 1.268 . S
C154 O160 1.268 . S
C154 O169 1.268 . S
C155 O161 1.268 . S
C155 O165 1.268 . S
C156 O162 1.268 . S
C156 O164 1.268 . S
C157 O163 1.268 . S
C157 O166 1.268 . S
O158 Sc148 2.105 . S
O158 C152 1.268 . S
O159 Sc149 2.105 . S
O159 C153 1.268 . S
O160 Sc150 2.105 . S
O160 C154 1.268 . S
O161 Sc148 2.105 . S
O161 C155 1.268 . S
O162 Sc150 2.105 . S
O162 C156 1.268 . S
O163 Sc149 2.105 . S
O163 C157 1.268 . S
O164 Sc148 2.105 . S
O164 C156 1.268 . S
O165 Sc149 2.105 . S
O165 C155 1.268 . S
O166 Sc150 2.105 . S
O166 C157 1.268 . S
O167 Sc148 2.105 . S
O167 C153 1.268 . S
O168 Sc150 2.105 . S
O168 C152 1.268 . S
O169 Sc149 2.105 . S
O169 C154 1.268 . S
Sc170 O173 2.025 . S
Sc170 O180 2.105 . S
Sc170 O183 2.105 . S
Sc170 O186 2.105 . S
Sc170 O189 2.105 . S
Sc171 O173 2.025 . S
Sc171 O181 2.105 . S
Sc171 O185 2.105 . S
Sc171 O187 2.105 . S
Sc171 O191 2.105 . S
Sc172 O173 2.025 . S
Sc172 O182 2.105 . S
Sc172 O184 2.105 . S
Sc172 O188 2.105 . S
Sc172 O190 2.105 . S
O173 Sc170 2.025 . S
O173 Sc171 2.025 . S
O173 Sc172 2.025 . S
C174 O180 1.268 . S
C174 O190 1.268 . S
C175 O181 1.268 . S
C175 O189 1.268 . S
C176 O182 1.268 . S
C176 O191 1.268 . S
C177 O183 1.268 . S
C177 O187 1.268 . S
C178 O184 1.268 . S
C178 O186 1.268 . S
C179 O185 1.268 . S
C179 O188 1.268 . S
O180 Sc170 2.105 . S
O180 C174 1.268 . S
O181 Sc171 2.105 . S
O181 C175 1.268 . S
O182 Sc172 2.105 . S
O182 C176 1.268 . S
O183 Sc170 2.105 . S
O183 C177 1.268 . S
O184 Sc172 2.105 . S
O184 C178 1.268 . S
O185 Sc171 2.105 . S
O185 C179 1.268 . S
O186 Sc170 2.105 . S
O186 C178 1.268 . S
O187 Sc171 2.105 . S
O187 C177 1.268 . S
O188 Sc172 2.105 . S
O188 C179 1.268 . S
O189 Sc170 2.105 . S
O189 C175 1.268 . S
O190 Sc172 2.105 . S
O190 C174 1.268 . S
O191 Sc171 2.105 . S
O191 C176 1.268 . S
C4 C130 1.536 . S
C108 C17 1.487 . S
C134 C30 1.381 . S
C112 C43 1.619 . S
C174 C56 1.537 . S
C152 C69 1.487 . S
C82 C178 1.381 . S
C156 C95 1.618 . S
C9 C179 1.570 . S
C157 C21 1.476 . S
C34 C176 1.455 . S
C48 C154 1.579 . S
C135 C61 1.571 1_545 S
C73 C113 1.477 1_545 S
C132 C86 1.455 1_545 S
C110 C100 1.578 1_565 S
C153 C8 1.527 . S
C175 C22 1.508 . S
C35 C155 1.499 . S
C177 C47 1.548 . S
C109 C60 1.528 . S
C74 C131 1.508 . S
C87 C111 1.498 . S
C99 C133 1.548 . S
