# Generated by pormake.
# Topology tsx, (6,3)-cn, num edge types: 1
# Building blocks:
#     Node 0, Type 0, BuildingBlock: MIDCAF_clean_sbu_0, # of connection points: 6
#     Node 1, Type 0, BuildingBlock: MIDCAF_clean_sbu_0, # of connection points: 6
#     Node 2, Type 1, BuildingBlock: KAKCAD_clean_linker_0, # of connection points: 3
#     Node 3, Type 1, BuildingBlock: KAKCAD_clean_linker_0, # of connection points: 3
#     Node 4, Type 1, BuildingBlock: KAKCAD_clean_linker_0, # of connection points: 3
#     Node 5, Type 1, BuildingBlock: KAKCAD_clean_linker_0, # of connection points: 3
#     Edge 6, Type (0, 1), None
#     Edge 7, Type (0, 1), None
#     Edge 8, Type (0, 1), None
#     Edge 9, Type (0, 1), None
#     Edge 10, Type (0, 1), None
#     Edge 11, Type (0, 1), None
#     Edge 12, Type (0, 1), None
#     Edge 13, Type (0, 1), None
#     Edge 14, Type (0, 1), None
#     Edge 15, Type (0, 1), None
#     Edge 16, Type (0, 1), None
#     Edge 17, Type (0, 1), None
# Relax obj value: 0.118
# Max RMSD: 0.182
# Mean RMSD: 0.113
data_MOF--net-tsx--node1-MIDCAF_clean_sbu_0--node2-KAKCAD_clean_linker_0--edge1-none
_symmetry_space_group_name_H-M    P1
_symmetry_Int_Tables_number       1
_symmetry_cell_setting            triclinic
loop_
_symmetry_equiv_pos_as_xyz
'x, y, z'
_cell_length_a     11.810328
_cell_length_b     14.216218
_cell_length_c     26.88282
_cell_angle_alpha  97.022429
_cell_angle_beta   106.0475
_cell_angle_gamma 91.766576
loop_
_atom_site_label
_atom_site_type_symbol
_atom_site_fract_x
_atom_site_fract_y
_atom_site_fract_z
_atom_type_partial_charge
Zn0 Zn 0.97021 0.89387 0.9426 0.0
Zn1 Zn 0.32196 0.00364 0.06375 0.0
Zn2 Zn 0.12516 0.97161 0.00363 0.0
C3 C 0.26175 0.16685 0.01306 0.0
C4 C 0.32503 0.83837 0.99579 0.0
O5 O 0.99465 0.90842 0.03772 0.0
O6 O 0.95282 0.7811 0.97895 0.0
C7 C 0.92083 0.08597 0.96041 0.0
O8 O 0.16123 0.11973 0.99292 0.0
O9 O 0.34708 0.12897 0.04149 0.0
O10 O 0.39147 0.88972 0.03549 0.0
O11 O 0.21877 0.85907 0.97697 0.0
O12 O 0.86594 0.00527 0.95349 0.0
O13 O 1.03404 0.08927 0.96872 0.0
O14 O 0.10764 0.04495 0.93392 0.0
O15 O 0.05928 0.90315 0.8884 0.0
C16 C 0.09743 -0.01134 0.89129 0.0
O17 O 0.08676 0.97304 0.07678 0.0
O18 O 0.2683 0.0059 0.12861 0.0
C19 C 0.94672 0.82344 0.02231 0.0
C20 C 0.159 -0.00924 0.12253 0.0
Zn21 Zn 0.82301 0.50404 0.56391 0.0
Zn22 Zn 0.47117 0.39412 0.44285 0.0
Zn23 Zn 0.62613 0.47191 0.50379 0.0
C24 C 0.59811 0.48871 0.39138 0.0
C25 C 0.42178 0.58624 0.46056 0.0
O26 O 0.58778 0.47339 0.57694 0.0
O27 O 0.7693 0.50642 0.62877 0.0
C28 C 0.82607 0.33869 0.496 0.0
O29 O 0.60845 0.54508 0.434 0.0
O30 O 0.56003 0.4032 0.38858 0.0
O31 O 0.36691 0.50555 0.45371 0.0
O32 O 0.53499 0.58953 0.46883 0.0
O33 O 0.89252 0.39007 0.53569 0.0
O34 O 0.71981 0.35939 0.47717 0.0
O35 O 0.66215 0.62001 0.49302 0.0
O36 O 0.84803 0.62931 0.54156 0.0
C37 C 0.76266 0.66715 0.51312 0.0
O38 O 0.49564 0.40872 0.53793 0.0
O39 O 0.45374 0.28137 0.47919 0.0
C40 C 0.66 0.49121 0.62269 0.0
C41 C 0.44767 0.32374 0.52255 0.0
C42 C 0.07669 0.89948 0.1784 0.0
C43 C 0.11717 -0.01325 0.16831 0.0
C44 C 1.05187 0.89294 0.22565 0.0
C45 C 0.0678 0.97375 0.26316 0.0
C46 C 0.1031 0.06197 0.25179 0.0
C47 C 0.12866 0.06822 0.20469 0.0
C48 C 0.06494 0.9643 0.31665 0.0
C49 C 0.13368 0.89806 0.34356 0.0
C50 C 0.14758 0.89739 0.39686 0.0
C51 C 0.09192 0.96351 0.42355 0.0
C52 C 1.02018 0.02846 0.39638 0.0
C53 C 1.00654 0.02832 0.34298 0.0
C54 C 0.96922 0.10361 0.42413 0.0
C55 C 0.84642 0.10797 0.41315 0.0
C56 C 1.04404 0.17637 0.45822 0.0
C57 C 0.9971 0.25189 0.48214 0.0
C58 C 0.87412 0.25693 0.47137 0.0
C59 C 0.22212 0.82719 0.42342 0.0
C60 C 0.34319 0.83102 0.42737 0.0
C61 C 0.16939 0.74765 0.43636 0.0
C62 C 0.23561 0.6704 0.45039 0.0
C63 C 0.35568 0.672 0.4519 0.0
C64 C 0.40983 0.75428 0.44195 0.0
C65 C 0.799 0.18432 0.43662 0.0
H66 H 0.07016 0.83568 0.15097 0.0
H67 H 1.02517 0.82422 0.23383 0.0
H68 H 0.11779 0.12485 0.28054 0.0
H69 H 0.16105 0.13585 0.19737 0.0
H70 H 0.18027 0.84897 0.32346 0.0
H71 H 0.95484 0.08087 0.32249 0.0
H72 H 0.1066 0.96595 0.46522 0.0
H73 H 0.78756 0.05289 0.38607 0.0
H74 H 0.13874 0.17554 0.46543 0.0
H75 H 0.0573 0.3074 0.50818 0.0
H76 H 0.38484 0.89162 0.41686 0.0
H77 H 0.0756 0.74294 0.43248 0.0
H78 H 0.70395 0.18657 0.42759 0.0
H79 H 0.50208 0.75762 0.44278 0.0
H80 H 0.1918 0.60816 0.45828 0.0
C81 C 0.09521 0.11623 0.83334 0.0
C82 C 0.11248 0.022 0.84332 0.0
C83 C 0.08644 0.14028 0.78319 0.0
C84 C 0.09493 0.07026 0.74289 0.0
C85 C 0.12064 -0.02169 0.75422 0.0
C86 C 0.12941 0.9545 0.80375 0.0
C87 C 0.06753 0.08767 0.68775 0.0
C88 C 0.14446 0.14568 0.67107 0.0
C89 C 0.133 0.14303 0.6174 0.0
C90 C 1.04158 0.08497 0.58079 0.0
C91 C 0.96361 0.02742 0.59677 0.0
C92 C 0.9759 0.03076 0.6504 0.0
C93 C 0.8882 0.94926 0.55923 0.0
C94 C 0.93878 0.89045 0.52643 0.0
C95 C 0.77517 0.92196 0.56247 0.0
C96 C 0.72086 0.83243 0.53848 0.0
C97 C 0.77973 0.76927 0.51153 0.0
C98 C 0.22456 0.18968 0.59888 0.0
C99 C 0.25156 0.28817 0.6102 0.0
C100 C 0.28015 0.13517 0.56647 0.0
C101 C 0.35663 0.17866 0.54357 0.0
C102 C 0.37918 0.27771 0.5525 0.0
C103 C 0.32777 0.33203 0.58685 0.0
C104 C 0.88466 0.80162 0.50256 0.0
H105 H 0.08167 0.16961 0.86315 0.0
H106 H 0.06703 0.21181 0.77522 0.0
H107 H 0.1293 0.92354 0.72394 0.0
H108 H 0.14443 0.88166 0.81038 0.0
H109 H 0.21854 0.18621 0.69959 0.0
H110 H 0.92081 -0.01753 0.66349 0.0
H111 H 1.03532 0.08016 0.53965 0.0
H112 H 1.0269 0.90766 0.52428 0.0
H113 H 0.73374 0.96614 0.58722 0.0
H114 H 0.64077 0.80835 0.54669 0.0
H115 H 0.20968 0.33149 0.63511 0.0
H116 H 0.26166 0.05886 0.55762 0.0
H117 H 0.93267 0.75334 0.48291 0.0
H118 H 0.34314 0.40864 0.5942 0.0
H119 H 0.39525 0.13483 0.51752 0.0
C120 C 0.57746 0.39984 0.67845 0.0
C121 C 0.61814 0.48713 0.66846 0.0
C122 C 0.55232 0.39322 0.72561 0.0
C123 C 0.56813 0.47396 0.76316 0.0
C124 C 0.60372 0.5622 0.7519 0.0
C125 C 0.6296 0.56853 0.70488 0.0
C126 C 0.56485 0.46439 0.81657 0.0
C127 C 0.63337 0.39807 0.8435 0.0
C128 C 0.64684 0.39723 0.89675 0.0
C129 C 0.59093 0.46325 0.92338 0.0
C130 C 0.51941 0.52829 0.89619 0.0
C131 C 0.50623 0.52834 0.84283 0.0
C132 C 0.46834 0.60341 0.92391 0.0
C133 C 0.34553 0.60774 0.91288 0.0
C134 C 0.5431 0.67614 0.95804 0.0
C135 C 0.49611 0.75162 0.98196 0.0
C136 C 0.37311 0.75664 0.97114 0.0
C137 C 0.72128 0.327 0.92334 0.0
C138 C 0.8424 0.33087 0.9274 0.0
C139 C 0.66844 0.2474 0.93617 0.0
C140 C 0.73462 0.17011 0.95019 0.0
C141 C 0.85475 0.17175 0.95179 0.0
C142 C 0.90899 0.2541 0.94195 0.0
C143 C 0.29804 0.68406 0.93635 0.0
H144 H 0.57099 0.33609 0.65099 0.0
H145 H 0.52542 0.32448 0.73371 0.0
H146 H 0.61833 0.62503 0.78069 0.0
H147 H 0.66213 0.63617 0.69764 0.0
H148 H 0.68015 0.34904 0.82346 0.0
H149 H 0.45471 0.58097 0.82234 0.0
H150 H 0.6053 0.46557 0.96502 0.0
H151 H 0.28671 0.55267 0.88577 0.0
H152 H 0.6378 0.67534 0.96528 0.0
H153 H 0.55627 0.80711 0.00803 0.0
H154 H 0.88413 0.39152 0.91697 0.0
H155 H 0.57462 0.24266 0.93222 0.0
H156 H 0.20299 0.6863 0.92729 0.0
H157 H 1.00128 0.25747 0.94286 0.0
H158 H 0.69075 0.10782 0.95799 0.0
C159 C 0.5956 0.61616 0.33333 0.0
C160 C 0.61285 0.52194 0.34334 0.0
C161 C 0.5865 0.64012 0.28315 0.0
C162 C 0.59463 0.57001 0.24281 0.0
C163 C 0.62031 0.47805 0.25415 0.0
C164 C 0.62943 0.45434 0.30373 0.0
C165 C 0.56704 0.58738 0.18766 0.0
C166 C 0.64385 0.64538 0.17092 0.0
C167 C 0.63223 0.64272 0.11725 0.0
C168 C 0.54074 0.58467 0.08067 0.0
C169 C 0.46288 0.52709 0.09671 0.0
C170 C 0.47535 0.53043 0.15036 0.0
C171 C 0.38743 0.44893 0.0592 0.0
C172 C 0.43795 0.39011 0.02638 0.0
C173 C 0.27444 0.42165 0.06249 0.0
C174 C 0.22008 0.33213 0.03849 0.0
C175 C 0.27887 0.26898 0.0115 0.0
C176 C 0.7237 0.68935 0.09867 0.0
C177 C 0.75079 0.78783 0.11003 0.0
C178 C 0.77917 0.63485 0.06621 0.0
C179 C 0.85561 0.67834 0.04328 0.0
C180 C 0.87825 0.77738 0.05226 0.0
C181 C 0.82697 0.83169 0.08666 0.0
C182 C 0.38378 0.3013 0.00251 0.0
H183 H 0.58233 0.66961 0.36318 0.0
H184 H 0.56714 0.71165 0.27517 0.0
H185 H 0.62873 0.42322 0.22385 0.0
H186 H 0.64443 0.38151 0.31037 0.0
H187 H 0.71798 0.68592 0.19941 0.0
H188 H 0.42034 0.48214 0.16349 0.0
H189 H 0.53435 0.57986 0.03952 0.0
H190 H 0.52606 0.40731 0.02421 0.0
H191 H 0.23307 0.46583 0.08726 0.0
H192 H 0.14001 0.30806 0.04672 0.0
H193 H 0.70901 0.83115 0.13498 0.0
H194 H 0.76061 0.55855 0.05733 0.0
H195 H 0.43174 0.25301 0.98282 0.0
H196 H 0.84241 0.90829 0.09405 0.0
H197 H 0.89414 0.63452 0.0172 0.0
loop_
_geom_bond_atom_site_label_1
_geom_bond_atom_site_label_2
_geom_bond_distance
_geom_bond_site_symmetry_2
_ccdc_geom_bond_type
Zn0 O6 1.920 1_545 S
Zn0 O12 1.898 . S
Zn0 O15 1.905 1_545 S
Zn1 O9 1.905 . S
Zn1 O10 1.898 1_545 S
Zn1 O18 1.920 1_545 S
Zn2 O5 2.080 1_445 S
Zn2 O8 2.114 . S
Zn2 O11 2.120 1_545 S
Zn2 O13 2.120 1_455 S
Zn2 O14 2.114 1_554 S
Zn2 O17 2.080 . S
C3 O8 1.166 . S
C3 O9 1.182 . S
C4 O10 1.167 . S
C4 O11 1.299 . S
O5 Zn2 2.080 1_665 S
O5 C19 1.305 . S
O6 Zn0 1.920 1_565 S
O6 C19 1.234 1_556 S
C7 O12 1.167 . S
C7 O13 1.299 1_556 S
O8 Zn2 2.114 . S
O8 C3 1.166 . S
O9 Zn1 1.905 . S
O9 C3 1.182 . S
O10 Zn1 1.898 1_565 S
O10 C4 1.167 . S
O11 Zn2 2.120 1_565 S
O11 C4 1.299 . S
O12 Zn0 1.898 . S
O12 C7 1.167 . S
O13 Zn2 2.120 1_655 S
O13 C7 1.299 1_554 S
O14 Zn2 2.114 1_556 S
O14 C16 1.166 1_445 S
O15 Zn0 1.905 1_565 S
O15 C16 1.182 . S
C16 O14 1.166 1_665 S
C16 O15 1.182 . S
O17 Zn2 2.080 . S
O17 C20 1.305 1_545 S
O18 Zn1 1.920 1_565 S
O18 C20 1.234 . S
C19 O5 1.305 . S
C19 O6 1.234 1_554 S
C20 O17 1.305 1_565 S
C20 O18 1.234 . S
Zn21 O27 1.920 . S
Zn21 O33 1.898 . S
Zn21 O36 1.905 . S
Zn22 O30 1.905 . S
Zn22 O31 1.898 . S
Zn22 O39 1.920 . S
Zn23 O26 2.080 . S
Zn23 O29 2.114 . S
Zn23 O32 2.120 . S
Zn23 O34 2.120 . S
Zn23 O35 2.114 . S
Zn23 O38 2.080 . S
C24 O29 1.166 . S
C24 O30 1.182 . S
C25 O31 1.167 . S
C25 O32 1.299 . S
O26 Zn23 2.080 . S
O26 C40 1.305 . S
O27 Zn21 1.920 . S
O27 C40 1.234 . S
C28 O33 1.167 . S
C28 O34 1.299 . S
O29 Zn23 2.114 . S
O29 C24 1.166 . S
O30 Zn22 1.905 . S
O30 C24 1.182 . S
O31 Zn22 1.898 . S
O31 C25 1.167 . S
O32 Zn23 2.120 . S
O32 C25 1.299 . S
O33 Zn21 1.898 . S
O33 C28 1.167 . S
O34 Zn23 2.120 . S
O34 C28 1.299 . S
O35 Zn23 2.114 . S
O35 C37 1.166 . S
O36 Zn21 1.905 . S
O36 C37 1.182 . S
C37 O35 1.166 . S
C37 O36 1.182 . S
O38 Zn23 2.080 . S
O38 C41 1.305 . S
O39 Zn22 1.920 . S
O39 C41 1.234 . S
C40 O26 1.305 . S
C40 O27 1.234 . S
C41 O38 1.305 . S
C41 O39 1.234 . S
C42 C43 1.386 1_565 S
C42 C44 1.397 . S
C42 H66 0.931 . S
C43 C42 1.386 1_545 S
C43 C47 1.397 . S
C44 C42 1.397 . S
C44 C45 1.384 1_565 S
C44 H67 0.930 . S
C45 C44 1.384 1_545 S
C45 C46 1.377 . S
C45 C48 1.481 . S
C46 C45 1.377 . S
C46 C47 1.389 . S
C46 H68 0.929 . S
C47 C43 1.397 . S
C47 C46 1.389 . S
C47 H69 0.931 . S
C48 C45 1.481 . S
C48 C49 1.387 1_545 S
C48 C53 1.390 . S
C49 C48 1.387 1_565 S
C49 C50 1.401 . S
C49 H70 0.930 . S
C50 C49 1.401 . S
C50 C51 1.376 1_565 S
C50 C59 1.511 . S
C51 C50 1.376 1_545 S
C51 C52 1.392 . S
C51 H72 0.931 . S
C52 C51 1.392 . S
C52 C53 1.361 . S
C52 C54 1.500 1_455 S
C53 C48 1.390 . S
C53 C52 1.361 . S
C53 H71 0.931 1_455 S
C54 C52 1.500 1_655 S
C54 C55 1.371 . S
C54 C56 1.365 . S
C55 C54 1.371 . S
C55 C65 1.386 . S
C55 H73 0.931 . S
C56 C54 1.365 . S
C56 C57 1.409 . S
C56 H74 0.929 . S
C57 C56 1.409 . S
C57 C58 1.380 . S
C57 H75 0.930 . S
C58 C57 1.380 . S
C58 C65 1.357 . S
C59 C50 1.511 . S
C59 C60 1.341 . S
C59 C61 1.371 . S
C60 C59 1.341 . S
C60 C64 1.394 . S
C60 H76 0.930 . S
C61 C59 1.371 . S
C61 C62 1.392 . S
C61 H77 0.931 . S
C62 C61 1.392 . S
C62 C63 1.331 . S
C62 H80 0.932 . S
C63 C62 1.331 . S
C63 C64 1.336 . S
C64 C60 1.394 . S
C64 C63 1.336 . S
C64 H79 0.929 . S
C65 C55 1.386 . S
C65 C58 1.357 . S
C65 H78 0.928 . S
H66 C42 0.931 . S
H67 C44 0.930 . S
H68 C46 0.929 . S
H69 C47 0.931 . S
H70 C49 0.930 . S
H71 C53 0.931 1_655 S
H72 C51 0.931 . S
H73 C55 0.931 . S
H74 C56 0.929 . S
H75 C57 0.930 . S
H76 C60 0.930 . S
H77 C61 0.931 . S
H78 C65 0.928 . S
H79 C64 0.929 . S
H80 C62 0.932 . S
C81 C82 1.386 . S
C81 C83 1.397 . S
C81 H105 0.931 . S
C82 C81 1.386 . S
C82 C86 1.397 1_545 S
C83 C81 1.397 . S
C83 C84 1.384 . S
C83 H106 0.930 . S
C84 C83 1.384 . S
C84 C85 1.377 1_545 S
C84 C87 1.481 . S
C85 C84 1.377 1_565 S
C85 C86 1.389 . S
C85 H107 0.929 . S
C86 C82 1.397 1_565 S
C86 C85 1.389 . S
C86 H108 0.931 . S
C87 C84 1.481 . S
C87 C88 1.387 . S
C87 C92 1.390 1_445 S
C88 C87 1.387 . S
C88 C89 1.401 . S
C88 H109 0.930 . S
C89 C88 1.401 . S
C89 C90 1.376 1_455 S
C89 C98 1.511 . S
C90 C89 1.376 1_655 S
C90 C91 1.392 1_545 S
C90 H111 0.931 . S
C91 C90 1.392 1_565 S
C91 C92 1.361 . S
C91 C93 1.500 . S
C92 C87 1.390 1_665 S
C92 C91 1.361 . S
C92 H110 0.931 . S
C93 C91 1.500 . S
C93 C94 1.371 . S
C93 C95 1.365 . S
C94 C93 1.371 . S
C94 C104 1.386 . S
C94 H112 0.931 . S
C95 C93 1.365 . S
C95 C96 1.409 . S
C95 H113 0.929 . S
C96 C95 1.409 . S
C96 C97 1.380 . S
C96 H114 0.930 . S
C97 C96 1.380 . S
C97 C104 1.357 . S
C98 C89 1.511 . S
C98 C99 1.341 . S
C98 C100 1.371 . S
C99 C98 1.341 . S
C99 C103 1.394 . S
C99 H115 0.930 . S
C100 C98 1.371 . S
C100 C101 1.392 . S
C100 H116 0.931 . S
C101 C100 1.392 . S
C101 C102 1.331 . S
C101 H119 0.932 . S
C102 C101 1.331 . S
C102 C103 1.336 . S
C103 C99 1.394 . S
C103 C102 1.336 . S
C103 H118 0.929 . S
C104 C94 1.386 . S
C104 C97 1.357 . S
C104 H117 0.928 . S
H105 C81 0.931 . S
H106 C83 0.930 . S
H107 C85 0.929 . S
H108 C86 0.931 . S
H109 C88 0.930 . S
H110 C92 0.931 . S
H111 C90 0.931 . S
H112 C94 0.931 . S
H113 C95 0.929 . S
H114 C96 0.930 . S
H115 C99 0.930 . S
H116 C100 0.931 . S
H117 C104 0.928 . S
H118 C103 0.929 . S
H119 C101 0.932 . S
C120 C121 1.386 . S
C120 C122 1.397 . S
C120 H144 0.931 . S
C121 C120 1.386 . S
C121 C125 1.397 . S
C122 C120 1.397 . S
C122 C123 1.384 . S
C122 H145 0.930 . S
C123 C122 1.384 . S
C123 C124 1.377 . S
C123 C126 1.481 . S
C124 C123 1.377 . S
C124 C125 1.389 . S
C124 H146 0.929 . S
C125 C121 1.397 . S
C125 C124 1.389 . S
C125 H147 0.931 . S
C126 C123 1.481 . S
C126 C127 1.387 . S
C126 C131 1.390 . S
C127 C126 1.387 . S
C127 C128 1.401 . S
C127 H148 0.930 . S
C128 C127 1.401 . S
C128 C129 1.376 . S
C128 C137 1.511 . S
C129 C128 1.376 . S
C129 C130 1.392 . S
C129 H150 0.931 . S
C130 C129 1.392 . S
C130 C131 1.361 . S
C130 C132 1.500 . S
C131 C126 1.390 . S
C131 C130 1.361 . S
C131 H149 0.931 . S
C132 C130 1.500 . S
C132 C133 1.371 . S
C132 C134 1.365 . S
C133 C132 1.371 . S
C133 C143 1.386 1_556 S
C133 H151 0.931 1_556 S
C134 C132 1.365 . S
C134 C135 1.409 . S
C134 H152 0.929 . S
C135 C134 1.409 . S
C135 C136 1.373 1_556 S
C135 H153 0.930 . S
C136 C135 1.373 1_554 S
C136 C143 1.360 . S
C137 C128 1.511 . S
C137 C138 1.341 . S
C137 C139 1.371 1_556 S
C138 C137 1.341 . S
C138 C142 1.394 . S
C138 H154 0.930 . S
C139 C137 1.371 1_554 S
C139 C140 1.392 . S
C139 H155 0.931 . S
C140 C139 1.392 . S
C140 C141 1.331 . S
C140 H158 0.932 . S
C141 C140 1.331 . S
C141 C142 1.336 1_554 S
C142 C138 1.394 . S
C142 C141 1.336 1_556 S
C142 H157 0.929 . S
C143 C133 1.386 1_554 S
C143 C136 1.360 . S
C143 H156 0.928 . S
H144 C120 0.931 . S
H145 C122 0.930 . S
H146 C124 0.929 . S
H147 C125 0.931 . S
H148 C127 0.930 . S
H149 C131 0.931 . S
H150 C129 0.931 . S
H151 C133 0.931 1_554 S
H152 C134 0.929 . S
H153 C135 0.930 . S
H154 C138 0.930 . S
H155 C139 0.931 . S
H156 C143 0.928 . S
H157 C142 0.929 . S
H158 C140 0.932 . S
C159 C160 1.386 . S
C159 C161 1.397 . S
C159 H183 0.931 . S
C160 C159 1.386 . S
C160 C164 1.397 . S
C161 C159 1.397 . S
C161 C162 1.384 . S
C161 H184 0.930 . S
C162 C161 1.384 . S
C162 C163 1.377 . S
C162 C165 1.481 . S
C163 C162 1.377 . S
C163 C164 1.389 . S
C163 H185 0.929 . S
C164 C160 1.397 . S
C164 C163 1.389 . S
C164 H186 0.931 . S
C165 C162 1.481 . S
C165 C166 1.387 . S
C165 C170 1.390 . S
C166 C165 1.387 . S
C166 C167 1.401 . S
C166 H187 0.930 . S
C167 C166 1.401 . S
C167 C168 1.376 . S
C167 C176 1.511 . S
C168 C167 1.376 . S
C168 C169 1.392 . S
C168 H189 0.931 . S
C169 C168 1.392 . S
C169 C170 1.361 . S
C169 C171 1.500 . S
C170 C165 1.390 . S
C170 C169 1.361 . S
C170 H188 0.931 . S
C171 C169 1.500 . S
C171 C172 1.371 . S
C171 C173 1.365 . S
C172 C171 1.371 . S
C172 C182 1.386 1_554 S
C172 H190 0.931 1_554 S
C173 C171 1.365 . S
C173 C174 1.409 . S
C173 H191 0.929 . S
C174 C173 1.409 . S
C174 C175 1.380 . S
C174 H192 0.930 . S
C175 C174 1.380 . S
C175 C182 1.357 1_554 S
C176 C167 1.511 . S
C176 C177 1.341 . S
C176 C178 1.371 . S
C177 C176 1.341 . S
C177 C181 1.394 . S
C177 H193 0.930 . S
C178 C176 1.371 . S
C178 C179 1.392 1_554 S
C178 H194 0.931 1_554 S
C179 C178 1.392 1_556 S
C179 C180 1.331 1_556 S
C179 H197 0.932 . S
C180 C179 1.331 1_554 S
C180 C181 1.336 . S
C181 C177 1.394 . S
C181 C180 1.336 . S
C181 H196 0.929 . S
C182 C172 1.386 1_556 S
C182 C175 1.357 1_556 S
C182 H195 0.928 . S
H183 C159 0.931 . S
H184 C161 0.930 . S
H185 C163 0.929 . S
H186 C164 0.931 . S
H187 C166 0.930 . S
H188 C170 0.931 . S
H189 C168 0.931 . S
H190 C172 0.931 1_556 S
H191 C173 0.929 . S
H192 C174 0.930 . S
H193 C177 0.930 . S
H194 C178 0.931 1_556 S
H195 C182 0.928 . S
H196 C181 0.929 . S
H197 C179 0.932 . S
C175 C3 1.524 . S
C4 C136 1.579 . S
C19 C180 1.622 . S
C7 C141 1.575 1_556 S
C37 C97 1.524 . S
C28 C58 1.579 . S
C102 C41 1.622 . S
C63 C25 1.575 . S
C20 C43 1.500 1_565 S
C16 C82 1.547 1_665 S
C121 C40 1.500 . S
C24 C160 1.547 . S
