# Generated by pormake.
# Topology pyr, (3,6)-cn, num edge types: 1
# Building blocks:
#     Node 0, Type 0, BuildingBlock: ESEHIV_clean_linker_0, # of connection points: 3
#     Node 1, Type 0, BuildingBlock: ESEHIV_clean_linker_0, # of connection points: 3
#     Node 2, Type 0, BuildingBlock: ESEHIV_clean_linker_0, # of connection points: 3
#     Node 3, Type 0, BuildingBlock: ESEHIV_clean_linker_0, # of connection points: 3
#     Node 4, Type 0, BuildingBlock: ESEHIV_clean_linker_0, # of connection points: 3
#     Node 5, Type 0, BuildingBlock: ESEHIV_clean_linker_0, # of connection points: 3
#     Node 6, Type 0, BuildingBlock: ESEHIV_clean_linker_0, # of connection points: 3
#     Node 7, Type 0, BuildingBlock: ESEHIV_clean_linker_0, # of connection points: 3
#     Node 8, Type 1, BuildingBlock: MIFKUJ_clean_sbu_0, # of connection points: 6
#     Node 9, Type 1, BuildingBlock: MIFKUJ_clean_sbu_0, # of connection points: 6
#     Node 10, Type 1, BuildingBlock: MIFKUJ_clean_sbu_0, # of connection points: 6
#     Node 11, Type 1, BuildingBlock: MIFKUJ_clean_sbu_0, # of connection points: 6
#     Edge 12, Type (0, 1), None
#     Edge 13, Type (0, 1), None
#     Edge 14, Type (0, 1), None
#     Edge 15, Type (0, 1), None
#     Edge 16, Type (0, 1), None
#     Edge 17, Type (0, 1), None
#     Edge 18, Type (0, 1), None
#     Edge 19, Type (0, 1), None
#     Edge 20, Type (0, 1), None
#     Edge 21, Type (0, 1), None
#     Edge 22, Type (0, 1), None
#     Edge 23, Type (0, 1), None
#     Edge 24, Type (0, 1), None
#     Edge 25, Type (0, 1), None
#     Edge 26, Type (0, 1), None
#     Edge 27, Type (0, 1), None
#     Edge 28, Type (0, 1), None
#     Edge 29, Type (0, 1), None
#     Edge 30, Type (0, 1), None
#     Edge 31, Type (0, 1), None
#     Edge 32, Type (0, 1), None
#     Edge 33, Type (0, 1), None
#     Edge 34, Type (0, 1), None
#     Edge 35, Type (0, 1), None
# Relax obj value: 0.068
# Max RMSD: 0.110
# Mean RMSD: 0.064
data_MOF--net-pyr--node1-MIFKUJ_clean_sbu_0--node2-ESEHIV_clean_linker_0--edge1-none
_symmetry_space_group_name_H-M    P1
_symmetry_Int_Tables_number       1
_symmetry_cell_setting            triclinic
loop_
_symmetry_equiv_pos_as_xyz
'x, y, z'
_cell_length_a     16.343893
_cell_length_b     14.19295
_cell_length_c     14.638354
_cell_angle_alpha  78.60651
_cell_angle_beta   85.483205
_cell_angle_gamma 94.177425
loop_
_atom_site_label
_atom_site_type_symbol
_atom_site_fract_x
_atom_site_fract_y
_atom_site_fract_z
_atom_type_partial_charge
H0 H 0.06317 0.27013 0.27529 0.0
H1 H 0.18694 1.0106 0.30605 0.0
H2 H 0.24056 0.23023 0.05587 0.0
C3 C 0.10447 0.22526 0.24564 0.0
C4 C 0.14851 0.26002 0.15745 0.0
C5 C 0.11778 0.13467 0.29828 0.0
C6 C 0.17452 0.07849 0.26291 0.0
C7 C 0.21989 0.11303 0.17601 0.0
C8 C 0.20532 0.20295 0.12299 0.0
H9 H 0.36931 1.00841 0.81046 0.0
H10 H 0.51653 0.80504 0.71123 0.0
H11 H 0.29943 0.88479 0.57799 0.0
C12 C 0.38071 0.96185 0.76126 0.0
C13 C 0.32593 0.95458 0.69265 0.0
C14 C 0.44892 0.90667 0.7684 0.0
C15 C 0.46358 0.84687 0.70531 0.0
C16 C 0.41025 0.83836 0.63662 0.0
C17 C 0.34129 0.89216 0.63051 0.0
H18 H 0.71222 0.27625 0.95963 0.0
H19 H 0.70948 0.50912 0.72179 0.0
H20 H 0.51443 0.27938 0.78197 0.0
C21 C 0.68278 0.31097 0.89967 0.0
C22 C 0.60859 0.26774 0.87804 0.0
C23 C 0.71965 0.39811 0.84372 0.0
C24 C 0.68122 0.44224 0.76562 0.0
C25 C 0.60723 0.39988 0.7427 0.0
C26 C 0.57121 0.31283 0.7996 0.0
H27 H 0.7365 0.65331 0.41874 0.0
H28 H 0.96427 0.71252 0.23895 0.0
H29 H 0.78687 0.47785 0.21889 0.0
C30 C 0.77798 0.63657 0.36386 0.0
C31 C 0.75355 0.56012 0.32209 0.0
C32 C 0.85334 0.69294 0.3348 0.0
C33 C 0.90586 0.67007 0.26193 0.0
C34 C 0.88275 0.59099 0.21998 0.0
C35 C 0.80599 0.53774 0.25055 0.0
H36 H 0.83782 0.01451 0.72222 0.0
H37 H 0.96159 0.75497 0.75298 0.0
H38 H 0.7842 0.79488 0.9724 0.0
C39 C 0.85025 0.94662 0.76536 0.0
C40 C 0.80488 0.91208 0.85226 0.0
C41 C 0.907 0.89044 0.73 0.0
C42 C 0.92029 0.79985 0.78264 0.0
C43 C 0.87625 0.76509 0.87082 0.0
C44 C 0.81944 0.82216 0.90528 0.0
H45 H 0.50822 0.22006 0.31705 0.0
H46 H 0.65544 0.0167 0.21782 0.0
H47 H 0.72533 0.14031 0.45029 0.0
C48 C 0.56117 0.17823 0.32297 0.0
C49 C 0.6145 0.18674 0.39166 0.0
C50 C 0.57584 0.11843 0.25988 0.0
C51 C 0.64405 0.06325 0.26701 0.0
C52 C 0.69883 0.07052 0.33562 0.0
C53 C 0.68347 0.13295 0.39777 0.0
H54 H 0.31254 0.74885 0.06864 0.0
H55 H 0.31528 0.51599 0.30648 0.0
H56 H 0.51034 0.74573 0.2463 0.0
C57 C 0.34198 0.71414 0.12861 0.0
C58 C 0.41617 0.75737 0.15023 0.0
C59 C 0.30511 0.62699 0.18455 0.0
C60 C 0.34354 0.58287 0.26265 0.0
C61 C 0.41753 0.62523 0.28557 0.0
C62 C 0.45355 0.71227 0.22867 0.0
H63 H 0.06048 0.31259 0.78932 0.0
H64 H 0.28826 0.37179 0.60954 0.0
H65 H 0.23789 0.54725 0.80938 0.0
C66 C 0.1189 0.35504 0.76635 0.0
C67 C 0.14201 0.43412 0.8083 0.0
C68 C 0.17142 0.33216 0.69348 0.0
C69 C 0.24678 0.38853 0.66442 0.0
C70 C 0.27121 0.46498 0.70618 0.0
C71 C 0.21877 0.48736 0.77773 0.0
Zn72 Zn 0.10231 0.07618 0.59756 0.0
Zn73 Zn 0.92245 0.94893 0.43072 0.0
C74 C 0.15234 0.25072 0.64513 0.0
O75 O 0.20103 0.24318 0.57155 0.0
C76 C 0.87241 0.77438 0.38315 0.0
O77 O 0.82373 0.78192 0.45673 0.0
O78 O 0.20114 0.9999 0.62766 0.0
O79 O 1.0019 0.98091 0.60679 0.0
O80 O 0.89932 0.89101 0.56978 0.0
C81 C 0.25288 0.01132 0.68608 0.0
O82 O 0.24226 0.07543 0.73851 0.0
O83 O 0.09503 0.18347 0.67532 0.0
C84 C 0.77187 0.01379 0.3422 0.0
O85 O 0.7825 0.94969 0.28977 0.0
O86 O 0.82362 0.0252 0.40062 0.0
O87 O 0.02286 0.0442 0.42148 0.0
O88 O 0.12543 0.1341 0.4585 0.0
O89 O 0.92973 0.84164 0.35295 0.0
C90 C 0.93944 0.91993 0.63172 0.0
C91 C 0.08532 0.10519 0.39655 0.0
Zn92 Zn 0.58265 0.97823 0.98727 0.0
Zn93 Zn 0.44212 0.04688 0.041 0.0
C94 C 0.50436 0.90781 0.84281 0.0
O95 O 0.54844 0.83501 0.86877 0.0
C96 C 0.5204 0.11729 0.18547 0.0
O97 O 0.47632 0.19009 0.15951 0.0
O98 O 0.68557 0.92216 0.95183 0.0
O99 O 0.61496 0.11888 0.98661 0.0
O100 O 0.49735 0.14446 0.92847 0.0
C101 C 0.73629 0.96401 0.88328 0.0
O102 O 0.72178 0.04841 0.83479 0.0
O103 O 0.50975 0.97869 0.8829 0.0
C104 C 0.28848 0.0611 0.14499 0.0
O105 O 0.30298 0.9767 0.19347 0.0
O106 O 0.3392 0.10295 0.07643 0.0
O107 O 0.4098 0.90623 0.04166 0.0
O108 O 0.52741 0.88065 0.0998 0.0
O109 O 0.51501 0.04642 0.14537 0.0
C110 C 0.57163 0.17397 0.93492 0.0
C111 C 0.45313 0.85113 0.09335 0.0
Zn112 Zn 0.52652 0.42923 0.48078 0.0
Zn113 Zn 0.49824 0.59587 0.54749 0.0
C114 C 0.67303 0.50379 0.35388 0.0
O115 O 0.64012 0.44873 0.3016 0.0
C116 C 0.35173 0.52131 0.6744 0.0
O117 O 0.38465 0.57636 0.72668 0.0
O118 O 0.53786 0.30679 0.43837 0.0
O119 O 0.51809 0.39411 0.62188 0.0
O120 O 0.58885 0.53182 0.61752 0.0
C121 C 0.60014 0.25857 0.45009 0.0
O122 O 0.6571 0.28452 0.50102 0.0
O123 O 0.63514 0.50811 0.43222 0.0
C124 C 0.42461 0.76653 0.5782 0.0
O125 O 0.36765 0.74058 0.52726 0.0
O126 O 0.4869 0.71831 0.5899 0.0
O127 O 0.50667 0.63099 0.40639 0.0
O128 O 0.43591 0.49329 0.41075 0.0
O129 O 0.38961 0.51699 0.59606 0.0
C130 C 0.56908 0.44435 0.65782 0.0
C131 C 0.45568 0.58076 0.37045 0.0
Zn132 Zn 0.93214 0.4797 0.97631 0.0
Zn133 Zn 0.09262 0.54541 0.05197 0.0
C134 C 0.79875 0.44249 0.86552 0.0
O135 O 0.84209 0.51024 0.80247 0.0
C136 C 0.22601 0.58262 0.16275 0.0
O137 O 0.18267 0.51486 0.2258 0.0
O138 O 0.94106 0.61746 0.90375 0.0
O139 O 0.91564 0.48524 0.11544 0.0
O140 O 1.00086 0.61452 0.10527 0.0
C141 C 0.88253 0.66625 0.92374 0.0
O142 O 0.82386 0.62507 0.98901 0.0
O143 O 0.82543 0.41615 0.94519 0.0
C144 C 0.14223 0.35886 0.10453 0.0
O145 O 0.2009 0.40004 0.03926 0.0
O146 O 0.0837 0.40765 0.12453 0.0
O147 O 0.10912 0.53986 0.91283 0.0
O148 O 0.0239 0.41059 0.923 0.0
O149 O 0.19933 0.60896 0.08309 0.0
C150 C 0.93635 0.5621 0.14421 0.0
C151 C 0.08841 0.46301 0.88407 0.0
loop_
_geom_bond_atom_site_label_1
_geom_bond_atom_site_label_2
_geom_bond_distance
_geom_bond_site_symmetry_2
_ccdc_geom_bond_type
H0 C3 0.931 . S
H1 C6 0.928 . S
H2 C8 0.930 . S
C3 H0 0.931 . S
C3 C4 1.413 . S
C3 C5 1.360 . S
C4 C3 1.413 . S
C4 C8 1.429 . S
C5 C3 1.360 . S
C5 C6 1.372 . S
C6 H1 0.928 . S
C6 C5 1.372 . S
C6 C7 1.404 . S
C7 C6 1.404 . S
C7 C8 1.391 . S
C8 H2 0.930 . S
C8 C4 1.429 . S
C8 C7 1.391 . S
H9 C12 0.931 . S
H10 C15 0.928 . S
H11 C17 0.930 . S
C12 H9 0.931 . S
C12 C13 1.413 . S
C12 C14 1.360 . S
C13 C12 1.413 . S
C13 C17 1.429 . S
C14 C12 1.360 . S
C14 C15 1.372 . S
C15 H10 0.928 . S
C15 C14 1.372 . S
C15 C16 1.404 . S
C16 C15 1.404 . S
C16 C17 1.391 . S
C17 H11 0.930 . S
C17 C13 1.429 . S
C17 C16 1.391 . S
H18 C21 0.931 . S
H19 C24 0.928 . S
H20 C26 0.930 . S
C21 H18 0.931 . S
C21 C22 1.413 . S
C21 C23 1.360 . S
C22 C21 1.413 . S
C22 C26 1.429 . S
C23 C21 1.360 . S
C23 C24 1.372 . S
C24 H19 0.928 . S
C24 C23 1.372 . S
C24 C25 1.404 . S
C25 C24 1.404 . S
C25 C26 1.391 . S
C26 H20 0.930 . S
C26 C22 1.429 . S
C26 C25 1.391 . S
H27 C30 0.931 . S
H28 C33 0.928 . S
H29 C35 0.930 . S
C30 H27 0.931 . S
C30 C31 1.413 . S
C30 C32 1.360 . S
C31 C30 1.413 . S
C31 C35 1.429 . S
C32 C30 1.360 . S
C32 C33 1.372 . S
C33 H28 0.928 . S
C33 C32 1.372 . S
C33 C34 1.404 . S
C34 C33 1.404 . S
C34 C35 1.391 . S
C35 H29 0.930 . S
C35 C31 1.429 . S
C35 C34 1.391 . S
H36 C39 0.931 . S
H37 C42 0.928 . S
H38 C44 0.930 . S
C39 H36 0.931 . S
C39 C40 1.413 . S
C39 C41 1.360 . S
C40 C39 1.413 . S
C40 C44 1.429 . S
C41 C39 1.360 . S
C41 C42 1.372 . S
C42 H37 0.928 . S
C42 C41 1.372 . S
C42 C43 1.404 . S
C43 C42 1.404 . S
C43 C44 1.391 . S
C44 H38 0.930 . S
C44 C40 1.429 . S
C44 C43 1.391 . S
H45 C48 0.931 . S
H46 C51 0.928 . S
H47 C53 0.930 . S
C48 H45 0.931 . S
C48 C49 1.413 . S
C48 C50 1.360 . S
C49 C48 1.413 . S
C49 C53 1.429 . S
C50 C48 1.360 . S
C50 C51 1.372 . S
C51 H46 0.928 . S
C51 C50 1.372 . S
C51 C52 1.404 . S
C52 C51 1.404 . S
C52 C53 1.391 . S
C53 H47 0.930 . S
C53 C49 1.429 . S
C53 C52 1.391 . S
H54 C57 0.931 . S
H55 C60 0.928 . S
H56 C62 0.930 . S
C57 H54 0.931 . S
C57 C58 1.413 . S
C57 C59 1.360 . S
C58 C57 1.413 . S
C58 C62 1.429 . S
C59 C57 1.360 . S
C59 C60 1.372 . S
C60 H55 0.928 . S
C60 C59 1.372 . S
C60 C61 1.404 . S
C61 C60 1.404 . S
C61 C62 1.391 . S
C62 H56 0.930 . S
C62 C58 1.429 . S
C62 C61 1.391 . S
H63 C66 0.931 . S
H64 C69 0.928 . S
H65 C71 0.930 . S
C66 H63 0.931 . S
C66 C67 1.413 . S
C66 C68 1.360 . S
C67 C66 1.413 . S
C67 C71 1.429 . S
C68 C66 1.360 . S
C68 C69 1.372 . S
C69 H64 0.928 . S
C69 C68 1.372 . S
C69 C70 1.404 . S
C70 C69 1.404 . S
C70 C71 1.391 . S
C71 H65 0.930 . S
C71 C67 1.429 . S
C71 C70 1.391 . S
Zn72 O78 1.969 1_545 S
Zn72 O79 1.965 1_545 S
Zn72 O83 2.024 . S
Zn72 O88 1.969 . S
Zn73 O80 1.969 . S
Zn73 O86 1.969 1_565 S
Zn73 O87 1.965 1_665 S
Zn73 O89 2.024 . S
C74 O75 1.229 . S
C74 O83 1.058 . S
O75 C74 1.229 . S
C76 O77 1.229 . S
C76 O89 1.058 . S
O77 C76 1.229 . S
O78 Zn72 1.969 1_565 S
O78 C81 1.267 . S
O79 Zn72 1.965 1_565 S
O79 C90 1.260 1_455 S
O80 Zn73 1.969 . S
O80 C90 1.258 . S
C81 O78 1.267 . S
C81 O82 1.228 . S
O82 C81 1.228 . S
O83 Zn72 2.024 . S
O83 C74 1.058 . S
C84 O85 1.228 . S
C84 O86 1.267 . S
O85 C84 1.228 . S
O86 Zn73 1.969 1_545 S
O86 C84 1.267 . S
O87 Zn73 1.965 1_445 S
O87 C91 1.260 . S
O88 Zn72 1.969 . S
O88 C91 1.258 . S
O89 Zn73 2.024 . S
O89 C76 1.058 . S
C90 O79 1.260 1_655 S
C90 O80 1.258 . S
C91 O87 1.260 . S
C91 O88 1.258 . S
Zn92 O98 1.969 . S
Zn92 O99 1.965 1_565 S
Zn92 O103 2.024 . S
Zn92 O108 1.969 1_556 S
Zn93 O100 1.969 1_554 S
Zn93 O106 1.969 . S
Zn93 O107 1.965 1_545 S
Zn93 O109 2.024 . S
C94 O95 1.229 . S
C94 O103 1.058 . S
O95 C94 1.229 . S
C96 O97 1.229 . S
C96 O109 1.058 . S
O97 C96 1.229 . S
O98 Zn92 1.969 . S
O98 C101 1.267 . S
O99 Zn92 1.965 1_545 S
O99 C110 1.260 . S
O100 Zn93 1.969 1_556 S
O100 C110 1.258 . S
C101 O98 1.267 . S
C101 O102 1.228 . S
O102 C101 1.228 . S
O103 Zn92 2.024 . S
O103 C94 1.058 . S
C104 O105 1.228 . S
C104 O106 1.267 . S
O105 C104 1.228 . S
O106 Zn93 1.969 . S
O106 C104 1.267 . S
O107 Zn93 1.965 1_565 S
O107 C111 1.260 . S
O108 Zn92 1.969 1_554 S
O108 C111 1.258 . S
O109 Zn93 2.024 . S
O109 C96 1.058 . S
C110 O99 1.260 . S
C110 O100 1.258 . S
C111 O107 1.260 . S
C111 O108 1.258 . S
Zn112 O118 1.969 . S
Zn112 O119 1.965 . S
Zn112 O123 2.024 . S
Zn112 O128 1.969 . S
Zn113 O120 1.969 . S
Zn113 O126 1.969 . S
Zn113 O127 1.965 . S
Zn113 O129 2.024 . S
C114 O115 1.229 . S
C114 O123 1.058 . S
O115 C114 1.229 . S
C116 O117 1.229 . S
C116 O129 1.058 . S
O117 C116 1.229 . S
O118 Zn112 1.969 . S
O118 C121 1.267 . S
O119 Zn112 1.965 . S
O119 C130 1.260 . S
O120 Zn113 1.969 . S
O120 C130 1.258 . S
C121 O118 1.267 . S
C121 O122 1.228 . S
O122 C121 1.228 . S
O123 Zn112 2.024 . S
O123 C114 1.058 . S
C124 O125 1.228 . S
C124 O126 1.267 . S
O125 C124 1.228 . S
O126 Zn113 1.969 . S
O126 C124 1.267 . S
O127 Zn113 1.965 . S
O127 C131 1.260 . S
O128 Zn112 1.969 . S
O128 C131 1.258 . S
O129 Zn113 2.024 . S
O129 C116 1.058 . S
C130 O119 1.260 . S
C130 O120 1.258 . S
C131 O127 1.260 . S
C131 O128 1.258 . S
Zn132 O138 1.969 . S
Zn132 O139 1.965 1_556 S
Zn132 O143 2.024 . S
Zn132 O148 1.969 1_655 S
Zn133 O140 1.969 . S
Zn133 O146 1.969 . S
Zn133 O147 1.965 1_554 S
Zn133 O149 2.024 . S
C134 O135 1.229 . S
C134 O143 1.058 . S
O135 C134 1.229 . S
C136 O137 1.229 . S
C136 O149 1.058 . S
O137 C136 1.229 . S
O138 Zn132 1.969 . S
O138 C141 1.267 . S
O139 Zn132 1.965 1_554 S
O139 C150 1.260 . S
O140 Zn133 1.969 . S
O140 C150 1.258 1_455 S
C141 O138 1.267 . S
C141 O142 1.228 . S
O142 C141 1.228 . S
O143 Zn132 2.024 . S
O143 C134 1.058 . S
C144 O145 1.228 . S
C144 O146 1.267 . S
O145 C144 1.228 . S
O146 Zn133 1.969 . S
O146 C144 1.267 . S
O147 Zn133 1.965 1_556 S
O147 C151 1.260 . S
O148 Zn132 1.969 1_455 S
O148 C151 1.258 . S
O149 Zn133 2.024 . S
O149 C136 1.058 . S
C150 O139 1.260 . S
C150 O140 1.258 1_655 S
C151 O147 1.260 . S
C151 O148 1.258 . S
C5 C91 1.350 . S
C14 C94 1.167 . S
C130 C25 2.247 . S
C34 C150 2.017 . S
C104 C7 1.608 . S
C81 C13 1.559 . S
C134 C23 1.721 . S
C114 C31 1.328 . S
C4 C144 1.154 . S
C110 C22 1.958 . S
C32 C76 1.836 . S
C16 C124 1.113 . S
C90 C41 1.332 . S
C50 C96 1.173 . S
C61 C131 2.247 . S
C67 C151 2.027 . S
C40 C101 1.632 . S
C84 C52 1.514 . S
C136 C59 1.733 . S
C116 C70 1.327 . S
C43 C141 1.149 . S
C111 C58 1.969 . S
C74 C68 1.815 . S
C49 C121 1.121 . S
