# Generated by pormake.
# Topology pts, (4,4)-cn, num edge types: 1
# Building blocks:
#     Node 0, Type 0, BuildingBlock: GIZVER_clean_linker_0, # of connection points: 4
#     Node 1, Type 0, BuildingBlock: GIZVER_clean_linker_0, # of connection points: 4
#     Node 2, Type 1, BuildingBlock: UXUYUI_clean_sbu_0, # of connection points: 4
#     Node 3, Type 1, BuildingBlock: UXUYUI_clean_sbu_0, # of connection points: 4
#     Edge 4, Type (0, 1), None
#     Edge 5, Type (0, 1), None
#     Edge 6, Type (0, 1), None
#     Edge 7, Type (0, 1), None
#     Edge 8, Type (0, 1), None
#     Edge 9, Type (0, 1), None
#     Edge 10, Type (0, 1), None
#     Edge 11, Type (0, 1), None
# Relax obj value: 0.010
# Max RMSD: 0.058
# Mean RMSD: 0.057
data_MOF--net-pts--node1-UXUYUI_clean_sbu_0--node2-GIZVER_clean_linker_0--edge1-none
_symmetry_space_group_name_H-M    P1
_symmetry_Int_Tables_number       1
_symmetry_cell_setting            triclinic
loop_
_symmetry_equiv_pos_as_xyz
'x, y, z'
_cell_length_a     17.400373
_cell_length_b     17.398391
_cell_length_c     25.223492
_cell_angle_alpha  90.700505
_cell_angle_beta   89.30013
_cell_angle_gamma 90.116858
loop_
_atom_site_label
_atom_site_type_symbol
_atom_site_fract_x
_atom_site_fract_y
_atom_site_fract_z
_atom_type_partial_charge
H0 H 0.63356 0.13584 0.05219 0.0
H1 H 0.6327 0.13483 0.88122 0.0
H2 H 0.81681 1.027 -0.03545 0.0
H3 H 0.55031 0.22357 0.00412 0.0
H4 H 0.55184 0.22559 0.93343 0.0
H5 H 0.46874 0.13068 0.05215 0.0
H6 H 0.28445 1.02805 -0.03621 0.0
H7 H 0.46948 0.13991 0.88136 0.0
C8 C 0.65843 0.11745 0.01453 0.0
C9 C 0.72791 0.07669 0.0136 0.0
C10 C 0.62259 0.13705 -0.03319 0.0
C11 C 0.65812 0.1169 0.91808 0.0
C12 C 0.72798 0.07639 0.917 0.0
C13 C 0.76114 0.05503 -0.03506 0.0
C14 C 0.55123 0.18632 -0.03207 0.0
C15 C 0.47902 0.13799 -0.03319 0.0
C16 C 0.44331 0.11494 0.01452 0.0
C17 C 0.3732 0.07458 0.01372 0.0
C18 C 0.34035 0.05577 -0.03521 0.0
C19 C 0.37432 0.07936 0.91715 0.0
C20 C 0.44396 0.12008 0.91817 0.0
H21 H 0.1372 0.63224 0.37798 0.0
H22 H 0.13619 0.63138 0.54894 0.0
H23 H 1.02834 0.8155 0.46561 0.0
H24 H 0.22493 0.54899 0.42605 0.0
H25 H 0.22694 0.55052 0.49674 0.0
H26 H 0.13205 0.46742 0.37802 0.0
H27 H 1.02937 0.28313 0.46637 0.0
H28 H 0.14126 0.46816 0.5488 0.0
C29 C 0.11881 0.65711 0.41564 0.0
C30 C 0.07805 0.7266 0.41657 0.0
C31 C 0.13842 0.62128 0.46336 0.0
C32 C 0.11827 0.65681 0.51208 0.0
C33 C 0.07774 0.72667 0.51317 0.0
C34 C 0.05638 0.75982 0.46522 0.0
C35 C 0.18768 0.54991 0.46223 0.0
C36 C 0.13935 0.4777 0.46335 0.0
C37 C 0.1163 0.442 0.41564 0.0
C38 C 0.07592 0.37188 0.41644 0.0
C39 C 0.0571 0.33903 0.46537 0.0
C40 C 0.0807 0.37301 0.51301 0.0
C41 C 0.12144 0.44264 0.512 0.0
Li42 Li 0.04873 0.11859 0.2492 0.0
Li43 Li 0.04485 0.97635 0.25061 0.0
Li44 Li 0.11991 0.0474 0.18095 0.0
Li45 Li 0.97768 0.04353 0.17954 0.0
C46 C 0.16931 0.06637 0.30527 0.0
N47 N 0.23492 0.11176 0.39985 0.0
C48 C 0.13247 0.05033 0.35344 0.0
C49 C 0.23995 0.1047 0.30519 0.0
C50 C 0.16644 0.07394 0.40084 0.0
C51 C 0.27208 0.12739 0.35344 0.0
C52 C 0.89949 1.02499 0.28952 0.0
C53 C 0.77729 0.96142 0.30166 0.0
N54 N 0.78233 0.97307 0.35493 0.0
C55 C 0.90317 0.0368 0.34439 0.0
C56 C 0.83588 0.9873 0.26793 0.0
C57 C 0.8435 1.00988 0.37677 0.0
C58 C 0.98838 0.22716 0.32276 0.0
N59 N 0.05035 0.20987 0.29163 0.0
C60 C 0.12314 0.31144 0.33152 0.0
C61 C 0.11567 0.25283 0.29351 0.0
C62 C 0.06245 0.32591 0.36746 0.0
C63 C 0.9932 0.28525 0.3612 0.0
H64 H 0.93637 0.19355 0.31941 0.0
H65 H 0.16355 0.23874 0.26746 0.0
C66 C 0.12073 0.86041 0.30456 0.0
N67 N 0.0491 0.88744 0.29462 0.0
C68 C 0.1311 0.80206 0.34133 0.0
C69 C 0.99348 0.79755 0.35496 0.0
C70 C 0.98571 0.85505 0.31731 0.0
C71 C 0.06704 0.77197 0.36821 0.0
H72 H 0.17016 0.8867 0.28565 0.0
H73 H 0.92918 0.87512 0.30769 0.0
C74 C 0.06771 0.168 0.12487 0.0
N75 N 0.11314 0.23361 0.03031 0.0
C76 C 0.05167 0.13117 0.0767 0.0
C77 C 0.10606 0.23864 0.12496 0.0
C78 C 0.0753 0.16514 0.02931 0.0
C79 C 0.12877 0.27077 0.07672 0.0
C80 C 1.0263 0.89815 0.14062 0.0
C81 C 0.03809 0.90184 0.08575 0.0
C82 C 0.98862 0.83453 0.16222 0.0
C83 C 1.01116 0.84216 0.05337 0.0
C84 C 0.96274 0.77594 0.12849 0.0
N85 N 0.97436 0.78098 0.07522 0.0
C86 C 0.22845 0.98705 0.10738 0.0
C87 C 0.25415 0.11434 0.13664 0.0
C88 C 0.28655 0.99186 0.06894 0.0
N89 N 0.21118 0.04902 0.13851 0.0
C90 C 0.31276 0.1218 0.09864 0.0
C91 C 0.32723 0.06111 0.0627 0.0
H92 H 0.19483 0.93504 0.11072 0.0
H93 H 0.24007 0.16222 0.1627 0.0
C94 C 0.86175 0.11941 0.12558 0.0
N95 N 0.88877 0.04777 0.13552 0.0
C96 C 0.80339 0.12978 0.08882 0.0
C97 C 0.79887 0.99214 0.07521 0.0
C98 C 0.85637 0.98437 0.11285 0.0
C99 C 0.77329 0.0657 0.06195 0.0
H100 H 0.88804 0.16885 0.14448 0.0
H101 H 0.87643 0.92784 0.12248 0.0
O102 O 0.13592 0.04568 0.25837 0.0
O103 O 0.9572 0.05099 0.25701 0.0
O104 O 0.047 0.1346 0.17177 0.0
O105 O 0.05232 0.95587 0.17313 0.0
H106 H 0.07817 1.02015 0.35422 0.0
H107 H 0.26918 0.11753 0.26819 0.0
H108 H 0.13834 0.06225 0.4384 0.0
H109 H 0.32646 0.15761 0.35398 0.0
H110 H 0.7279 0.9319 0.2855 0.0
H111 H 0.95149 0.06638 0.36189 0.0
H112 H 0.832 0.97751 0.22568 0.0
H113 H 0.84578 1.01831 0.41927 0.0
H114 H 0.17767 0.34103 0.33521 0.0
H115 H 0.94478 0.29534 0.38777 0.0
H116 H 0.18879 0.78447 0.3513 0.0
H117 H 0.9429 0.7757 0.37525 0.0
H118 H 1.02148 0.07688 0.07591 0.0
H119 H 0.11889 0.26785 0.16196 0.0
H120 H 0.06361 0.13705 -0.00826 0.0
H121 H 0.15901 0.32514 0.07619 0.0
H122 H 0.06767 0.95016 0.06825 0.0
H123 H 0.97885 0.83065 0.20447 0.0
H124 H 1.01957 0.84444 0.01088 0.0
H125 H 0.93323 0.72654 0.14466 0.0
H126 H 0.29664 0.94344 0.04237 0.0
H127 H 0.34237 0.17633 0.09497 0.0
H128 H 0.78581 0.18747 0.07884 0.0
H129 H 0.777 0.94154 0.05493 0.0
Li130 Li 0.98274 0.05485 0.74938 0.0
Li131 Li 0.12549 0.05261 0.75058 0.0
Li132 Li 0.05392 0.12418 0.67961 0.0
Li133 Li 0.05616 0.98142 0.6808 0.0
C134 C 1.03392 0.20051 0.79094 0.0
N135 N 0.9899 0.31847 0.85905 0.0
C136 C 0.05583 0.19975 0.8441 0.0
C137 C 0.9911 0.26215 0.7722 0.0
C138 C 1.03261 0.25968 0.87796 0.0
C139 C 0.96895 0.32097 0.80733 0.0
C140 C 0.0613 0.9306 0.80665 0.0
C141 C 0.09216 0.8202 0.85915 0.0
N142 N 0.08254 0.8634 0.90405 0.0
C143 C 0.05141 0.97377 0.85331 0.0
C144 C 0.08159 0.8531 0.8095 0.0
C145 C 0.06246 0.93882 0.90218 0.0
C146 C 0.87032 0.99251 0.81906 0.0
N147 N 0.89089 0.05669 0.79209 0.0
C148 C 0.79061 0.12867 0.83519 0.0
C149 C 0.84969 0.12277 0.7973 0.0
C150 C 0.77368 0.06557 0.86748 0.0
C151 C 0.81196 0.99582 0.85744 0.0
H152 H 0.90155 0.93956 0.81263 0.0
H153 H 0.86468 0.17195 0.77366 0.0
C154 C 0.24368 0.12777 0.80531 0.0
N155 N 0.21448 0.0571 0.79365 0.0
C156 C 0.30197 0.13581 0.84258 0.0
C157 C 0.30185 0.99781 0.85282 0.0
C158 C 0.2445 0.99235 0.81475 0.0
C159 C 0.32956 0.07044 0.8681 0.0
H160 H 0.21904 0.17821 0.78757 0.0
H161 H 0.22183 0.93669 0.80374 0.0
C162 C 0.93192 0.05997 0.62353 0.0
N163 N 0.86473 0.08119 0.52613 0.0
C164 C 0.97509 0.05009 0.57688 0.0
C165 C 0.85443 0.08025 0.62068 0.0
C166 C 0.94014 0.06113 0.528 0.0
C167 C 0.82153 0.09081 0.57103 0.0
C168 C 0.2018 1.03262 0.63924 0.0
C169 C 0.20104 0.05453 0.58608 0.0
C170 C 0.26344 0.98979 0.65798 0.0
C171 C 0.26097 1.03131 0.55222 0.0
C172 C 0.32225 0.96764 0.62285 0.0
N173 N 0.31976 0.9886 0.57113 0.0
C174 C 0.12907 0.24238 0.62487 0.0
C175 C 0.99368 0.24319 0.61541 0.0
C176 C 0.13712 0.30066 0.5876 0.0
N177 N 0.05841 0.21317 0.63653 0.0
C178 C 0.99914 0.30053 0.57734 0.0
C179 C 0.07176 0.32824 0.56206 0.0
H180 H 0.1795 0.21775 0.64263 0.0
H181 H 0.93802 0.22052 0.62642 0.0
C182 C 0.99384 0.86899 0.61111 0.0
N183 N 0.05801 0.88956 0.63809 0.0
C184 C 0.99717 0.81063 0.57273 0.0
C185 C 0.13 0.78929 0.59499 0.0
C186 C 0.12409 0.84836 0.63288 0.0
C187 C 0.06692 0.77236 0.56269 0.0
H188 H 0.9409 0.90022 0.61754 0.0
H189 H 0.17325 0.86336 0.65654 0.0
O190 O 0.05655 0.14271 0.75696 0.0
O191 O 0.05261 0.96412 0.7583 0.0
O192 O 0.96544 0.0513 0.67188 0.0
O193 O 0.144 0.05524 0.67322 0.0
H194 H 0.09095 0.15385 0.85907 0.0
H195 H 0.97432 0.26408 0.7311 0.0
H196 H 0.04884 0.25964 0.91922 0.0
H197 H 0.93511 0.36861 0.79346 0.0
H198 H 0.10817 0.76036 0.86198 0.0
H199 H 1.0348 1.03341 0.85173 0.0
H200 H 0.08969 0.81898 0.77369 0.0
H201 H 0.05501 0.9716 0.93861 0.0
H202 H 0.76243 0.1835 0.84167 0.0
H203 H 0.79978 0.94558 0.88109 0.0
H204 H 0.32123 0.1928 0.85409 0.0
H205 H 0.32169 0.94628 0.87203 0.0
H206 H 1.03473 1.03349 0.57846 0.0
H207 H 0.82031 0.08835 0.65649 0.0
H208 H 0.97293 0.05367 0.49157 0.0
H209 H 0.7617 0.10681 0.5682 0.0
H210 H 0.15514 0.08966 0.57112 0.0
H211 H 0.26537 0.97301 0.69908 0.0
H212 H 0.26092 0.04756 0.51096 0.0
H213 H 0.36989 0.93381 0.63672 0.0
H214 H 0.1941 0.31993 0.5761 0.0
H215 H 0.94762 0.32037 0.55812 0.0
H216 H 0.94694 0.79845 0.54907 0.0
H217 H 0.18483 0.76111 0.58852 0.0
loop_
_geom_bond_atom_site_label_1
_geom_bond_atom_site_label_2
_geom_bond_distance
_geom_bond_site_symmetry_2
_ccdc_geom_bond_type
H0 C8 0.930 . S
H1 C11 0.930 . S
H2 C13 0.930 1_565 S
H3 C14 0.970 . S
H4 C14 0.970 1_556 S
H5 C16 0.930 . S
H6 C18 0.930 1_565 S
H7 C20 0.930 . S
C8 H0 0.930 . S
C8 C9 1.382 . S
C8 C10 1.426 . S
C9 C8 1.382 . S
C9 C13 1.389 . S
C10 C8 1.426 . S
C10 C11 1.375 1_554 S
C10 C14 1.532 . S
C11 H1 0.930 . S
C11 C10 1.375 1_556 S
C11 C12 1.416 . S
C12 C11 1.416 . S
C12 C13 1.371 1_556 S
C13 H2 0.930 1_545 S
C13 C9 1.389 . S
C13 C12 1.371 1_554 S
C14 H3 0.970 . S
C14 H4 0.970 1_554 S
C14 C10 1.532 . S
C14 C15 1.499 . S
C15 C14 1.499 . S
C15 C16 1.370 . S
C15 C20 1.415 1_554 S
C16 H5 0.930 . S
C16 C15 1.370 . S
C16 C17 1.407 . S
C17 C16 1.407 . S
C17 C18 1.365 . S
C18 H6 0.930 1_545 S
C18 C17 1.365 . S
C18 C19 1.393 1_554 S
C19 C18 1.393 1_556 S
C19 C20 1.387 . S
C20 H7 0.930 . S
C20 C15 1.415 1_556 S
C20 C19 1.387 . S
H21 C29 0.930 . S
H22 C32 0.930 . S
H23 C34 0.930 1_655 S
H24 C35 0.970 . S
H25 C35 0.970 . S
H26 C37 0.930 . S
H27 C39 0.930 1_655 S
H28 C41 0.930 . S
C29 H21 0.930 . S
C29 C30 1.382 . S
C29 C31 1.426 . S
C30 C29 1.382 . S
C30 C34 1.389 . S
C31 C29 1.426 . S
C31 C32 1.375 . S
C31 C35 1.532 . S
C32 H22 0.930 . S
C32 C31 1.375 . S
C32 C33 1.416 . S
C33 C32 1.416 . S
C33 C34 1.371 . S
C34 H23 0.930 1_455 S
C34 C30 1.389 . S
C34 C33 1.371 . S
C35 H24 0.970 . S
C35 H25 0.970 . S
C35 C31 1.532 . S
C35 C36 1.499 . S
C36 C35 1.499 . S
C36 C37 1.370 . S
C36 C41 1.415 . S
C37 H26 0.930 . S
C37 C36 1.370 . S
C37 C38 1.407 . S
C38 C37 1.407 . S
C38 C39 1.365 . S
C39 H27 0.930 1_455 S
C39 C38 1.365 . S
C39 C40 1.393 . S
C40 C39 1.393 . S
C40 C41 1.387 . S
C41 H28 0.930 . S
C41 C36 1.415 . S
C41 C40 1.387 . S
Li42 N59 1.990 . S
Li42 O102 1.956 . S
Li42 O103 1.970 1_455 S
Li42 O104 1.961 . S
Li43 N67 1.990 . S
Li43 O102 1.970 1_565 S
Li43 O103 1.956 1_465 S
Li43 O105 1.961 . S
Li44 N89 1.990 . S
Li44 O102 1.961 . S
Li44 O104 1.956 . S
Li44 O105 1.970 1_545 S
Li45 N95 1.990 . S
Li45 O103 1.961 . S
Li45 O104 1.970 1_655 S
Li45 O105 1.956 1_645 S
C46 C48 1.348 1_545 S
C46 C49 1.356 . S
C46 O102 1.325 . S
N47 C50 1.314 1_545 S
N47 C51 1.279 . S
C48 C46 1.348 1_565 S
C48 C50 1.353 . S
C48 H106 0.929 . S
C49 C46 1.356 . S
C49 C51 1.358 . S
C49 H107 0.930 . S
C50 N47 1.314 1_565 S
C50 C48 1.353 . S
C50 H108 0.930 . S
C51 N47 1.279 . S
C51 C49 1.358 . S
C51 H109 0.930 . S
C52 C55 1.348 . S
C52 C56 1.356 1_545 S
C52 O103 1.325 . S
C53 N54 1.279 1_565 S
C53 C56 1.358 . S
C53 H110 0.930 . S
N54 C53 1.279 1_545 S
N54 C57 1.314 . S
C55 C52 1.348 . S
C55 C57 1.353 . S
C55 H111 0.929 . S
C56 C52 1.356 1_565 S
C56 C53 1.358 . S
C56 H112 0.930 . S
C57 N54 1.314 . S
C57 C55 1.353 . S
C57 H113 0.930 . S
C58 N59 1.314 1_655 S
C58 C63 1.353 . S
C58 H64 0.930 . S
N59 Li42 1.990 . S
N59 C58 1.314 1_455 S
N59 C61 1.279 . S
C60 C61 1.358 . S
C60 C62 1.356 . S
C60 H114 0.930 . S
C61 N59 1.279 . S
C61 C60 1.358 . S
C61 H65 0.930 . S
C62 C60 1.356 . S
C62 C63 1.348 1_455 S
C63 C58 1.353 . S
C63 C62 1.348 1_655 S
C63 H115 0.929 . S
H64 C58 0.930 . S
H65 C61 0.930 . S
C66 N67 1.314 . S
C66 C68 1.353 . S
C66 H72 0.930 . S
N67 Li43 1.990 . S
N67 C66 1.314 . S
N67 C70 1.279 1_455 S
C68 C66 1.353 . S
C68 C71 1.348 . S
C68 H116 0.929 . S
C69 C70 1.358 . S
C69 C71 1.356 1_655 S
C69 H117 0.930 . S
C70 N67 1.279 1_655 S
C70 C69 1.358 . S
C70 H73 0.930 . S
C71 C68 1.348 . S
C71 C69 1.356 1_455 S
H72 C66 0.930 . S
H73 C70 0.930 . S
C74 C76 1.348 1_455 S
C74 C77 1.356 . S
C74 O104 1.325 . S
N75 C78 1.314 1_455 S
N75 C79 1.279 . S
C76 C74 1.348 1_655 S
C76 C78 1.353 . S
C76 H118 0.929 . S
C77 C74 1.356 . S
C77 C79 1.358 . S
C77 H119 0.930 . S
C78 N75 1.314 1_655 S
C78 C76 1.353 . S
C78 H120 0.930 . S
C79 N75 1.279 . S
C79 C77 1.358 . S
C79 H121 0.930 . S
C80 C81 1.348 . S
C80 C82 1.356 1_455 S
C80 O105 1.325 . S
C81 C80 1.348 . S
C81 C83 1.353 . S
C81 H122 0.929 . S
C82 C80 1.356 1_655 S
C82 C84 1.358 . S
C82 H123 0.930 . S
C83 C81 1.353 . S
C83 N85 1.314 . S
C83 H124 0.930 . S
C84 C82 1.358 . S
C84 N85 1.279 1_655 S
C84 H125 0.930 . S
N85 C83 1.314 . S
N85 C84 1.279 1_455 S
C86 C88 1.353 . S
C86 N89 1.314 1_565 S
C86 H92 0.930 . S
C87 N89 1.279 . S
C87 C90 1.358 . S
C87 H93 0.930 . S
C88 C86 1.353 . S
C88 C91 1.348 1_565 S
C88 H126 0.929 . S
N89 Li44 1.990 . S
N89 C86 1.314 1_545 S
N89 C87 1.279 . S
C90 C87 1.358 . S
C90 C91 1.356 . S
C90 H127 0.930 . S
C91 C88 1.348 1_545 S
C91 C90 1.356 . S
H92 C86 0.930 . S
H93 C87 0.930 . S
C94 N95 1.314 . S
C94 C96 1.353 . S
C94 H100 0.930 . S
N95 Li45 1.990 . S
N95 C94 1.314 . S
N95 C98 1.279 1_545 S
C96 C94 1.353 . S
C96 C99 1.348 . S
C96 H128 0.929 . S
C97 C98 1.358 . S
C97 C99 1.356 1_565 S
C97 H129 0.930 . S
C98 N95 1.279 1_565 S
C98 C97 1.358 . S
C98 H101 0.930 . S
C99 C96 1.348 . S
C99 C97 1.356 1_545 S
H100 C94 0.930 . S
H101 C98 0.930 . S
O102 Li42 1.956 . S
O102 Li43 1.970 1_545 S
O102 Li44 1.961 . S
O102 C46 1.325 . S
O103 Li42 1.970 1_655 S
O103 Li43 1.956 1_645 S
O103 Li45 1.961 . S
O103 C52 1.325 . S
O104 Li42 1.961 . S
O104 Li44 1.956 . S
O104 Li45 1.970 1_455 S
O104 C74 1.325 . S
O105 Li43 1.961 . S
O105 Li44 1.970 1_565 S
O105 Li45 1.956 1_465 S
O105 C80 1.325 . S
H106 C48 0.929 . S
H107 C49 0.930 . S
H108 C50 0.930 . S
H109 C51 0.930 . S
H110 C53 0.930 . S
H111 C55 0.929 . S
H112 C56 0.930 . S
H113 C57 0.930 . S
H114 C60 0.930 . S
H115 C63 0.929 . S
H116 C68 0.929 . S
H117 C69 0.930 . S
H118 C76 0.929 . S
H119 C77 0.930 . S
H120 C78 0.930 . S
H121 C79 0.930 . S
H122 C81 0.929 . S
H123 C82 0.930 . S
H124 C83 0.930 . S
H125 C84 0.930 . S
H126 C88 0.929 . S
H127 C90 0.930 . S
H128 C96 0.929 . S
H129 C97 0.930 . S
Li130 N147 1.990 . S
Li130 O190 1.956 1_655 S
Li130 O191 1.970 1_645 S
Li130 O192 1.961 . S
Li131 N155 1.990 . S
Li131 O190 1.970 . S
Li131 O191 1.956 1_545 S
Li131 O193 1.961 . S
Li132 N177 1.990 . S
Li132 O190 1.961 . S
Li132 O192 1.956 1_455 S
Li132 O193 1.970 . S
Li133 N183 1.990 . S
Li133 O191 1.961 . S
Li133 O192 1.970 1_465 S
Li133 O193 1.956 1_565 S
C134 C136 1.348 . S
C134 C137 1.356 1_455 S
C134 O190 1.325 . S
N135 C138 1.314 . S
N135 C139 1.279 1_455 S
C136 C134 1.348 . S
C136 C138 1.353 . S
C136 H194 0.929 . S
C137 C134 1.356 1_655 S
C137 C139 1.358 . S
C137 H195 0.930 . S
C138 N135 1.314 . S
C138 C136 1.353 . S
C138 H196 0.930 . S
C139 N135 1.279 1_655 S
C139 C137 1.358 . S
C139 H197 0.930 . S
C140 C143 1.348 1_455 S
C140 C144 1.356 . S
C140 O191 1.325 . S
C141 N142 1.279 . S
C141 C144 1.358 . S
C141 H198 0.930 . S
N142 C141 1.279 . S
N142 C145 1.314 1_455 S
C143 C140 1.348 1_655 S
C143 C145 1.353 . S
C143 H199 0.929 . S
C144 C140 1.356 . S
C144 C141 1.358 . S
C144 H200 0.930 . S
C145 N142 1.314 1_655 S
C145 C143 1.353 . S
C145 H201 0.930 . S
C146 N147 1.314 1_565 S
C146 C151 1.353 . S
C146 H152 0.930 . S
N147 Li130 1.990 . S
N147 C146 1.314 1_545 S
N147 C149 1.279 . S
C148 C149 1.358 . S
C148 C150 1.356 . S
C148 H202 0.930 . S
C149 N147 1.279 . S
C149 C148 1.358 . S
C149 H153 0.930 . S
C150 C148 1.356 . S
C150 C151 1.348 1_545 S
C151 C146 1.353 . S
C151 C150 1.348 1_565 S
C151 H203 0.929 . S
H152 C146 0.930 . S
H153 C149 0.930 . S
C154 N155 1.314 . S
C154 C156 1.353 . S
C154 H160 0.930 . S
N155 Li131 1.990 . S
N155 C154 1.314 . S
N155 C158 1.279 1_545 S
C156 C154 1.353 . S
C156 C159 1.348 . S
C156 H204 0.929 . S
C157 C158 1.358 . S
C157 C159 1.356 1_565 S
C157 H205 0.930 . S
C158 N155 1.279 1_565 S
C158 C157 1.358 . S
C158 H161 0.930 . S
C159 C156 1.348 . S
C159 C157 1.356 1_545 S
H160 C154 0.930 . S
H161 C158 0.930 . S
C162 C164 1.348 1_545 S
C162 C165 1.356 . S
C162 O192 1.325 . S
N163 C166 1.314 1_545 S
N163 C167 1.279 . S
C164 C162 1.348 1_565 S
C164 C166 1.353 . S
C164 H206 0.929 . S
C165 C162 1.356 . S
C165 C167 1.358 . S
C165 H207 0.930 . S
C166 N163 1.314 1_565 S
C166 C164 1.353 . S
C166 H208 0.930 . S
C167 N163 1.279 . S
C167 C165 1.358 . S
C167 H209 0.930 . S
C168 C169 1.348 . S
C168 C170 1.356 1_545 S
C168 O193 1.325 . S
C169 C168 1.348 . S
C169 C171 1.353 . S
C169 H210 0.929 . S
C170 C168 1.356 1_565 S
C170 C172 1.358 . S
C170 H211 0.930 . S
C171 C169 1.353 . S
C171 N173 1.314 . S
C171 H212 0.930 . S
C172 C170 1.358 . S
C172 N173 1.279 1_565 S
C172 H213 0.930 . S
N173 C171 1.314 . S
N173 C172 1.279 1_545 S
C174 C176 1.353 . S
C174 N177 1.314 . S
C174 H180 0.930 . S
C175 N177 1.279 1_655 S
C175 C178 1.358 . S
C175 H181 0.930 . S
C176 C174 1.353 . S
C176 C179 1.348 . S
C176 H214 0.929 . S
N177 Li132 1.990 . S
N177 C174 1.314 . S
N177 C175 1.279 1_455 S
C178 C175 1.358 . S
C178 C179 1.356 1_655 S
C178 H215 0.930 . S
C179 C176 1.348 . S
C179 C178 1.356 1_455 S
H180 C174 0.930 . S
H181 C175 0.930 . S
C182 N183 1.314 1_655 S
C182 C184 1.353 . S
C182 H188 0.930 . S
N183 Li133 1.990 . S
N183 C182 1.314 1_455 S
N183 C186 1.279 . S
C184 C182 1.353 . S
C184 C187 1.348 1_655 S
C184 H216 0.929 . S
C185 C186 1.358 . S
C185 C187 1.356 . S
C185 H217 0.930 . S
C186 N183 1.279 . S
C186 C185 1.358 . S
C186 H189 0.930 . S
C187 C184 1.348 1_455 S
C187 C185 1.356 . S
H188 C182 0.930 . S
H189 C186 0.930 . S
O190 Li130 1.956 1_455 S
O190 Li131 1.970 . S
O190 Li132 1.961 . S
O190 C134 1.325 . S
O191 Li130 1.970 1_465 S
O191 Li131 1.956 1_565 S
O191 Li133 1.961 . S
O191 C140 1.325 . S
O192 Li130 1.961 . S
O192 Li132 1.956 1_655 S
O192 Li133 1.970 1_645 S
O192 C162 1.325 . S
O193 Li131 1.961 . S
O193 Li132 1.970 . S
O193 Li133 1.956 1_545 S
O193 C168 1.325 . S
H194 C136 0.929 . S
H195 C137 0.930 . S
H196 C138 0.930 . S
H197 C139 0.930 . S
H198 C141 0.930 . S
H199 C143 0.929 . S
H200 C144 0.930 . S
H201 C145 0.930 . S
H202 C148 0.930 . S
H203 C151 0.929 . S
H204 C156 0.929 . S
H205 C157 0.930 . S
H206 C164 0.929 . S
H207 C165 0.930 . S
H208 C166 0.930 . S
H209 C167 0.930 . S
H210 C169 0.929 . S
H211 C170 0.930 . S
H212 C171 0.930 . S
H213 C172 0.930 . S
H214 C176 0.929 . S
H215 C178 0.930 . S
H216 C184 0.929 . S
H217 C185 0.930 . S
C91 C17 1.427 . S
C179 C40 1.474 . S
C99 C9 1.481 . S
C187 C33 1.409 . S
C159 C19 1.474 . S
C62 C38 1.427 . S
C150 C12 1.409 . S
C30 C71 1.481 . S
