# Generated by pormake.
# Topology cml, (3,6)-cn, num edge types: 1
# Building blocks:
#     Node 0, Type 0, BuildingBlock: BETDAH_clean_linker_0, # of connection points: 3
#     Node 1, Type 0, BuildingBlock: BETDAH_clean_linker_0, # of connection points: 3
#     Node 2, Type 0, BuildingBlock: BETDAH_clean_linker_0, # of connection points: 3
#     Node 3, Type 0, BuildingBlock: BETDAH_clean_linker_0, # of connection points: 3
#     Node 4, Type 0, BuildingBlock: BETDAH_clean_linker_0, # of connection points: 3
#     Node 5, Type 0, BuildingBlock: BETDAH_clean_linker_0, # of connection points: 3
#     Node 6, Type 0, BuildingBlock: BETDAH_clean_linker_0, # of connection points: 3
#     Node 7, Type 0, BuildingBlock: BETDAH_clean_linker_0, # of connection points: 3
#     Node 8, Type 1, BuildingBlock: IZENUY_clean_sbu_0, # of connection points: 6
#     Node 9, Type 1, BuildingBlock: IZENUY_clean_sbu_0, # of connection points: 6
#     Node 10, Type 1, BuildingBlock: IZENUY_clean_sbu_0, # of connection points: 6
#     Node 11, Type 1, BuildingBlock: IZENUY_clean_sbu_0, # of connection points: 6
#     Edge 12, Type (0, 1), None
#     Edge 13, Type (0, 1), None
#     Edge 14, Type (0, 1), None
#     Edge 15, Type (0, 1), None
#     Edge 16, Type (0, 1), None
#     Edge 17, Type (0, 1), None
#     Edge 18, Type (0, 1), None
#     Edge 19, Type (0, 1), None
#     Edge 20, Type (0, 1), None
#     Edge 21, Type (0, 1), None
#     Edge 22, Type (0, 1), None
#     Edge 23, Type (0, 1), None
#     Edge 24, Type (0, 1), None
#     Edge 25, Type (0, 1), None
#     Edge 26, Type (0, 1), None
#     Edge 27, Type (0, 1), None
#     Edge 28, Type (0, 1), None
#     Edge 29, Type (0, 1), None
#     Edge 30, Type (0, 1), None
#     Edge 31, Type (0, 1), None
#     Edge 32, Type (0, 1), None
#     Edge 33, Type (0, 1), None
#     Edge 34, Type (0, 1), None
#     Edge 35, Type (0, 1), None
# Relax obj value: 0.005
# Max RMSD: 0.054
# Mean RMSD: 0.046
data_MOF--net-cml--node1-IZENUY_clean_sbu_0--node2-BETDAH_clean_linker_0--edge1-none
_symmetry_space_group_name_H-M    P1
_symmetry_Int_Tables_number       1
_symmetry_cell_setting            triclinic
loop_
_symmetry_equiv_pos_as_xyz
'x, y, z'
_cell_length_a     16.4316
_cell_length_b     18.78804
_cell_length_c     15.922737
_cell_angle_alpha  90.176429
_cell_angle_beta   91.231659
_cell_angle_gamma 91.611201
loop_
_atom_site_label
_atom_site_type_symbol
_atom_site_fract_x
_atom_site_fract_y
_atom_site_fract_z
_atom_type_partial_charge
H0 H 0.42489 0.52334 0.11758 0.0
H1 H 0.31042 0.42639 0.89884 0.0
H2 H 0.34543 0.30373 0.12101 0.0
C3 C 0.38895 0.47986 0.0894 0.0
C4 C 0.38359 0.4144 0.13174 0.0
C5 C 0.36419 0.48436 1.00449 0.0
C6 C 0.32466 0.42518 0.96565 0.0
C7 C 0.31591 0.36063 1.0085 0.0
C8 C 0.34547 0.35554 0.09116 0.0
N9 N 0.30079 0.2972 0.96227 0.0
C10 C 0.22348 0.27181 0.93941 0.0
H11 H 0.64371 0.50475 0.61761 0.0
H12 H 0.74236 0.60163 0.39594 0.0
H13 H 0.70931 0.72718 0.61772 0.0
C14 C 0.67033 0.55054 0.58608 0.0
C15 C 0.67157 0.61644 0.62743 0.0
C16 C 0.68924 0.54518 0.50064 0.0
C17 C 0.72745 0.60398 0.46182 0.0
C18 C 0.73937 0.66847 0.50647 0.0
C19 C 0.70802 0.67535 0.58759 0.0
N20 N 0.76915 0.73029 0.46551 0.0
C21 C 0.8479 0.73759 0.43593 0.0
H22 H 0.56856 0.45119 0.07711 0.0
H23 H 0.7594 0.45686 0.89823 0.0
H24 H 0.78952 0.34126 0.13018 0.0
C25 C 0.62812 0.43449 0.05811 0.0
C26 C 0.67488 0.3939 0.11367 0.0
C27 C 0.65845 0.45947 0.98209 0.0
C28 C 0.73396 0.43639 0.95588 0.0
C29 C 0.78002 0.39123 1.00752 0.0
C30 C 0.75103 0.37071 0.08742 0.0
N31 N 0.86182 0.38004 0.98637 0.0
C32 C 0.88847 0.31732 0.95119 0.0
H33 H 0.43426 0.50042 0.61831 0.0
H34 H 0.32166 0.70431 0.59709 0.0
H35 H 0.3427 0.57144 0.38004 0.0
C36 C 0.39798 0.53751 0.5825 0.0
C37 C 0.38756 0.52663 0.49582 0.0
C38 C 0.37519 0.60195 0.61994 0.0
C39 C 0.33543 0.65301 0.57043 0.0
C40 C 0.32039 0.64007 0.48428 0.0
C41 C 0.34738 0.57761 0.44777 0.0
N42 N 0.29533 0.69491 0.42979 0.0
C43 C 0.21956 0.72539 0.43183 0.0
H44 H 0.92615 0.02228 0.11803 0.0
H45 H 0.81295 0.92792 0.89723 0.0
H46 H 0.84168 0.80381 0.11937 0.0
C47 C 0.88981 0.97938 0.08911 0.0
C48 C 0.88228 0.91388 0.13111 0.0
C49 C 0.8666 0.98451 1.00388 0.0
C50 C 0.82648 0.92615 0.96416 0.0
C51 C 0.81524 0.86172 1.00659 0.0
C52 C 0.84353 0.85568 0.08968 0.0
N53 N 0.79702 0.79915 0.95972 0.0
C54 C 0.71815 0.77391 0.94398 0.0
H55 H 0.14457 1.00487 0.61626 0.0
H56 H 0.24086 0.10142 0.39339 0.0
H57 H 0.21202 0.22696 0.61604 0.0
C58 C 0.17105 0.05058 0.58449 0.0
C59 C 0.17338 0.11644 0.62604 0.0
C60 C 0.18868 0.0452 0.49874 0.0
C61 C 0.22688 0.1038 0.45951 0.0
C62 C 0.24019 0.16814 0.50418 0.0
C63 C 0.20989 0.17517 0.5858 0.0
N64 N 0.26991 0.22977 0.46274 0.0
C65 C 0.34905 0.23745 0.43416 0.0
H66 H 0.06805 0.95001 0.0749 0.0
H67 H 0.26377 0.9557 0.90139 0.0
H68 H 0.28803 0.8412 0.13463 0.0
C69 C 0.12803 0.93322 0.05738 0.0
C70 C 0.17351 0.89288 0.11427 0.0
C71 C 0.16042 0.95827 0.98226 0.0
C72 C 0.23659 0.93498 0.95805 0.0
C73 C 0.28142 0.89016 0.0114 0.0
C74 C 0.25039 0.87005 0.09044 0.0
N75 N 0.36443 0.88039 0.99465 0.0
C76 C 0.39328 0.82268 0.95067 0.0
H77 H 0.93411 0.99955 0.61873 0.0
H78 H 0.82485 0.20489 0.59872 0.0
H79 H 0.84123 0.07166 0.38145 0.0
C80 C 0.89798 0.03702 0.58334 0.0
C81 C 0.88658 0.0263 0.49675 0.0
C82 C 0.87667 0.10177 0.62102 0.0
C83 C 0.83734 0.15334 0.57194 0.0
C84 C 0.82116 0.14058 0.48598 0.0
C85 C 0.84659 0.07772 0.44916 0.0
N86 N 0.79716 0.19603 0.43189 0.0
C87 C 0.72094 0.22574 0.43243 0.0
Fe88 Fe 0.036 0.80189 0.28874 0.0
Fe89 Fe 0.04065 0.8647 0.46805 0.0
O90 O 0.04122 0.87725 0.35721 0.0
Fe91 Fe 0.04546 0.96486 0.31615 0.0
O92 O 0.95025 0.95125 0.25719 0.0
O93 O 0.97453 0.84469 0.2074 0.0
O94 O 0.94004 0.77209 0.33339 0.0
C95 C 0.92742 0.76126 0.40987 0.0
C96 C 0.14111 0.88712 0.20043 0.0
O97 O 0.97859 0.78207 0.46529 0.0
C98 C 0.1484 0.98523 0.45085 0.0
O99 O 0.09783 0.74609 0.35916 0.0
O100 O 0.13449 0.81724 0.46468 0.0
O101 O 0.10392 0.94108 0.2253 0.0
O102 O 0.13006 0.82715 0.23494 0.0
C103 C 0.93822 0.97626 0.45259 0.0
O104 O 0.10175 0.94446 0.49204 0.0
O105 O 0.14138 0.98738 0.37177 0.0
C106 C 0.14594 0.76356 0.4196 0.0
O107 O 0.94699 0.91347 0.47911 0.0
O108 O 0.98588 1.00329 0.39931 0.0
C109 C 0.93418 0.90104 0.20612 0.0
Fe110 Fe 0.02744 0.14104 0.96839 0.0
Fe111 Fe 1.01455 0.04824 0.81026 0.0
O112 O 1.02336 0.13367 0.85727 0.0
Fe113 Fe 0.02817 0.21173 0.794 0.0
O114 O 0.09843 0.26117 0.86671 0.0
O115 O 0.12768 0.18254 0.96472 0.0
O116 O 0.07695 0.05674 0.98563 0.0
C117 C 0.11735 0.01649 0.93961 0.0
C118 C 0.93245 0.25765 0.92095 0.0
O119 O 0.10829 0.01803 0.86086 0.0
C120 C 0.91426 0.11993 0.70387 0.0
O121 O 0.92751 0.0982 0.97895 0.0
O122 O 0.95203 0.00975 0.89304 0.0
O123 O 0.93845 0.24755 0.84293 0.0
O124 O 0.97879 0.22719 0.97272 0.0
C125 C 0.12349 0.12357 0.70251 0.0
O126 O 0.92064 0.07031 0.75637 0.0
O127 O 0.96078 0.17491 0.7092 0.0
C128 C 0.9109 0.03622 0.95119 0.0
O129 O 0.07503 0.07227 0.71941 0.0
O130 O 0.1183 0.18282 0.73943 0.0
C131 C 0.14554 0.23772 0.92367 0.0
Fe132 Fe 0.53817 0.30254 0.28831 0.0
Fe133 Fe 0.54169 0.36477 0.46798 0.0
O134 O 0.54317 0.37768 0.35718 0.0
Fe135 Fe 0.54815 0.46547 0.31662 0.0
O136 O 0.45332 0.45252 0.25675 0.0
O137 O 0.47692 0.34569 0.20718 0.0
O138 O 0.44196 0.27254 0.33245 0.0
C139 C 0.42876 0.26149 0.40877 0.0
C140 C 0.64393 0.38789 0.20057 0.0
O141 O 0.47946 0.28225 0.46462 0.0
C142 C 0.64992 0.48509 0.45225 0.0
O143 O 0.5998 0.24655 0.35868 0.0
O144 O 0.63537 0.31713 0.46515 0.0
O145 O 0.60723 0.4419 0.22613 0.0
O146 O 0.63241 0.32778 0.23462 0.0
C147 C 0.43981 0.4767 0.45223 0.0
O148 O 0.60279 0.44429 0.49281 0.0
O149 O 0.64372 0.48738 0.37314 0.0
C150 C 0.64729 0.26374 0.41975 0.0
O151 O 0.44809 0.41376 0.47847 0.0
O152 O 0.48802 0.50379 0.3995 0.0
C153 C 0.43687 0.40222 0.20591 0.0
Fe154 Fe 0.52362 0.64102 0.96842 0.0
Fe155 Fe 0.51109 0.5485 0.81009 0.0
O156 O 0.51999 0.63384 0.85729 0.0
Fe157 Fe 0.52542 0.71191 0.79416 0.0
O158 O 0.5958 0.76089 0.86714 0.0
O159 O 0.62404 0.68235 0.9657 0.0
O160 O 0.57271 0.5565 0.98571 0.0
C161 C 0.61369 0.51676 0.93965 0.0
C162 C 0.4314 0.75981 0.92071 0.0
O163 O 0.60471 0.51834 0.86089 0.0
C164 C 0.41153 0.62039 0.70332 0.0
O165 O 0.42339 0.59851 0.97823 0.0
O166 O 0.44835 0.50995 0.89273 0.0
O167 O 0.43583 0.74834 0.84282 0.0
O168 O 0.47581 0.7275 0.97264 0.0
C169 C 0.62079 0.62351 0.70316 0.0
O170 O 0.41736 0.57082 0.75598 0.0
O171 O 0.45813 0.67533 0.70902 0.0
C172 C 0.40708 0.53634 0.95084 0.0
O173 O 0.57184 0.57241 0.71938 0.0
O174 O 0.6156 0.68268 0.74014 0.0
C175 C 0.64206 0.73773 0.92505 0.0
loop_
_geom_bond_atom_site_label_1
_geom_bond_atom_site_label_2
_geom_bond_distance
_geom_bond_site_symmetry_2
_ccdc_geom_bond_type
H0 C3 0.929 . S
H1 C6 0.929 . S
H2 C8 0.930 . S
C3 H0 0.929 . S
C3 C4 1.398 . S
C3 C5 1.396 1_554 S
C4 C3 1.398 . S
C4 C8 1.407 . S
C5 C3 1.396 1_556 S
C5 C6 1.394 . S
C6 H1 0.929 . S
C6 C5 1.394 . S
C6 C7 1.382 1_556 S
C7 C6 1.382 1_554 S
C7 C8 1.392 . S
C7 N9 1.420 1_554 S
C8 H2 0.930 . S
C8 C4 1.407 . S
C8 C7 1.392 . S
N9 C7 1.420 1_556 S
N9 C10 1.244 . S
C10 N9 1.244 . S
H11 C14 0.929 . S
H12 C17 0.929 . S
H13 C19 0.930 . S
C14 H11 0.929 . S
C14 C15 1.398 . S
C14 C16 1.396 . S
C15 C14 1.398 . S
C15 C19 1.407 . S
C16 C14 1.396 . S
C16 C17 1.394 . S
C17 H12 0.929 . S
C17 C16 1.394 . S
C17 C18 1.382 . S
C18 C17 1.382 . S
C18 C19 1.392 . S
C18 N20 1.420 . S
C19 H13 0.930 . S
C19 C15 1.407 . S
C19 C18 1.392 . S
N20 C18 1.420 . S
N20 C21 1.244 . S
C21 N20 1.244 . S
H22 C25 0.929 . S
H23 C28 0.929 . S
H24 C30 0.930 . S
C25 H22 0.929 . S
C25 C26 1.398 . S
C25 C27 1.396 1_554 S
C26 C25 1.398 . S
C26 C30 1.407 . S
C27 C25 1.396 1_556 S
C27 C28 1.394 . S
C28 H23 0.929 . S
C28 C27 1.394 . S
C28 C29 1.382 1_556 S
C29 C28 1.382 1_554 S
C29 C30 1.392 . S
C29 N31 1.420 . S
C30 H24 0.930 . S
C30 C26 1.407 . S
C30 C29 1.392 . S
N31 C29 1.420 . S
N31 C32 1.244 1_554 S
C32 N31 1.244 1_556 S
H33 C36 0.929 . S
H34 C39 0.929 . S
H35 C41 0.930 . S
C36 H33 0.929 . S
C36 C37 1.398 . S
C36 C38 1.396 . S
C37 C36 1.398 . S
C37 C41 1.407 . S
C38 C36 1.396 . S
C38 C39 1.394 . S
C39 H34 0.929 . S
C39 C38 1.394 . S
C39 C40 1.382 . S
C40 C39 1.382 . S
C40 C41 1.392 . S
C40 N42 1.420 . S
C41 H35 0.930 . S
C41 C37 1.407 . S
C41 C40 1.392 . S
N42 C40 1.420 . S
N42 C43 1.244 . S
C43 N42 1.244 . S
H44 C47 0.929 . S
H45 C50 0.929 . S
H46 C52 0.930 . S
C47 H44 0.929 . S
C47 C48 1.398 . S
C47 C49 1.396 1_554 S
C48 C47 1.398 . S
C48 C52 1.407 . S
C49 C47 1.396 1_556 S
C49 C50 1.394 . S
C50 H45 0.929 . S
C50 C49 1.394 . S
C50 C51 1.382 1_556 S
C51 C50 1.382 1_554 S
C51 C52 1.392 . S
C51 N53 1.420 1_554 S
C52 H46 0.930 . S
C52 C48 1.407 . S
C52 C51 1.392 . S
N53 C51 1.420 1_556 S
N53 C54 1.244 . S
C54 N53 1.244 . S
H55 C58 0.929 . S
H56 C61 0.929 . S
H57 C63 0.930 . S
C58 H55 0.929 . S
C58 C59 1.398 . S
C58 C60 1.396 . S
C59 C58 1.398 . S
C59 C63 1.407 . S
C60 C58 1.396 . S
C60 C61 1.394 . S
C61 H56 0.929 . S
C61 C60 1.394 . S
C61 C62 1.382 . S
C62 C61 1.382 . S
C62 C63 1.392 . S
C62 N64 1.420 . S
C63 H57 0.930 . S
C63 C59 1.407 . S
C63 C62 1.392 . S
N64 C62 1.420 . S
N64 C65 1.244 . S
C65 N64 1.244 . S
H66 C69 0.929 . S
H67 C72 0.929 . S
H68 C74 0.930 . S
C69 H66 0.929 . S
C69 C70 1.398 . S
C69 C71 1.396 1_554 S
C70 C69 1.398 . S
C70 C74 1.407 . S
C71 C69 1.396 1_556 S
C71 C72 1.394 . S
C72 H67 0.929 . S
C72 C71 1.394 . S
C72 C73 1.382 1_556 S
C73 C72 1.382 1_554 S
C73 C74 1.392 . S
C73 N75 1.420 . S
C74 H68 0.930 . S
C74 C70 1.407 . S
C74 C73 1.392 . S
N75 C73 1.420 . S
N75 C76 1.244 1_554 S
C76 N75 1.244 1_556 S
H77 C80 0.929 . S
H78 C83 0.929 . S
H79 C85 0.930 . S
C80 H77 0.929 . S
C80 C81 1.398 . S
C80 C82 1.396 . S
C81 C80 1.398 . S
C81 C85 1.407 . S
C82 C80 1.396 . S
C82 C83 1.394 . S
C83 H78 0.929 . S
C83 C82 1.394 . S
C83 C84 1.382 . S
C84 C83 1.382 . S
C84 C85 1.392 . S
C84 N86 1.420 . S
C85 H79 0.930 . S
C85 C81 1.407 . S
C85 C84 1.392 . S
N86 C84 1.420 . S
N86 C87 1.244 . S
C87 N86 1.244 . S
Fe88 O90 1.918 . S
Fe88 O93 1.997 1_455 S
Fe88 O94 2.002 1_455 S
Fe88 O99 1.976 . S
Fe88 O102 1.996 . S
Fe89 O90 1.918 . S
Fe89 O97 1.997 1_455 S
Fe89 O100 1.996 . S
Fe89 O104 1.976 . S
Fe89 O107 2.002 1_455 S
O90 Fe88 1.918 . S
O90 Fe89 1.918 . S
O90 Fe91 1.918 . S
Fe91 O90 1.918 . S
Fe91 O92 2.002 1_455 S
Fe91 O101 1.976 . S
Fe91 O105 1.996 1_565 S
Fe91 O108 1.997 1_465 S
O92 Fe91 2.002 1_655 S
O92 C109 1.295 . S
O93 Fe88 1.997 1_655 S
O93 C109 1.235 . S
O94 Fe88 2.002 1_655 S
O94 C95 1.295 . S
C95 O94 1.295 . S
C95 O97 1.235 . S
C96 O101 1.287 . S
C96 O102 1.255 . S
O97 Fe89 1.997 1_655 S
O97 C95 1.235 . S
C98 O104 1.287 1_545 S
C98 O105 1.255 . S
O99 Fe88 1.976 . S
O99 C106 1.287 . S
O100 Fe89 1.996 . S
O100 C106 1.255 . S
O101 Fe91 1.976 . S
O101 C96 1.287 . S
O102 Fe88 1.996 . S
O102 C96 1.255 . S
C103 O107 1.297 . S
C103 O108 1.235 1_565 S
O104 Fe89 1.976 . S
O104 C98 1.287 1_565 S
O105 Fe91 1.996 1_545 S
O105 C98 1.255 . S
C106 O99 1.287 . S
C106 O100 1.255 . S
O107 Fe89 2.002 1_655 S
O107 C103 1.297 . S
O108 Fe91 1.997 1_645 S
O108 C103 1.235 1_545 S
C109 O92 1.295 . S
C109 O93 1.235 . S
Fe110 O112 1.918 . S
Fe110 O115 1.986 1_655 S
Fe110 O116 1.991 1_655 S
Fe110 O121 1.987 . S
Fe110 O124 2.006 . S
Fe111 O112 1.918 . S
Fe111 O119 1.997 1_645 S
Fe111 O122 1.996 1_545 S
Fe111 O126 1.976 . S
Fe111 O129 2.002 1_655 S
O112 Fe110 1.918 . S
O112 Fe111 1.918 . S
O112 Fe113 1.918 . S
Fe113 O112 1.918 . S
Fe113 O114 2.002 1_655 S
Fe113 O123 1.976 . S
Fe113 O127 1.996 . S
Fe113 O130 1.997 1_655 S
O114 Fe113 2.002 1_455 S
O114 C131 1.295 . S
O115 Fe110 1.986 1_455 S
O115 C131 1.235 . S
O116 Fe110 1.991 1_455 S
O116 C117 1.295 . S
C117 O116 1.295 . S
C117 O119 1.235 1_545 S
C118 O123 1.287 . S
C118 O124 1.255 . S
O119 Fe111 1.997 1_465 S
O119 C117 1.235 1_565 S
C120 O126 1.287 . S
C120 O127 1.255 . S
O121 Fe110 1.987 . S
O121 C128 1.287 1_545 S
O122 Fe111 1.996 1_565 S
O122 C128 1.255 . S
O123 Fe113 1.976 . S
O123 C118 1.287 . S
O124 Fe110 2.006 . S
O124 C118 1.255 . S
C125 O129 1.295 . S
C125 O130 1.235 . S
O126 Fe111 1.976 . S
O126 C120 1.287 . S
O127 Fe113 1.996 . S
O127 C120 1.255 . S
C128 O121 1.287 1_565 S
C128 O122 1.255 . S
O129 Fe111 2.002 1_455 S
O129 C125 1.295 . S
O130 Fe113 1.997 1_455 S
O130 C125 1.235 . S
C131 O114 1.295 . S
C131 O115 1.235 . S
Fe132 O134 1.918 . S
Fe132 O137 1.997 . S
Fe132 O138 2.002 . S
Fe132 O143 1.976 . S
Fe132 O146 1.996 . S
Fe133 O134 1.918 . S
Fe133 O141 1.997 . S
Fe133 O144 1.996 . S
Fe133 O148 1.976 . S
Fe133 O151 2.002 . S
O134 Fe132 1.918 . S
O134 Fe133 1.918 . S
O134 Fe135 1.918 . S
Fe135 O134 1.918 . S
Fe135 O136 2.002 . S
Fe135 O145 1.976 . S
Fe135 O149 1.996 . S
Fe135 O152 1.997 . S
O136 Fe135 2.002 . S
O136 C153 1.295 . S
O137 Fe132 1.997 . S
O137 C153 1.235 . S
O138 Fe132 2.002 . S
O138 C139 1.295 . S
C139 O138 1.295 . S
C139 O141 1.235 . S
C140 O145 1.287 . S
C140 O146 1.255 . S
O141 Fe133 1.997 . S
O141 C139 1.235 . S
C142 O148 1.287 . S
C142 O149 1.255 . S
O143 Fe132 1.976 . S
O143 C150 1.287 . S
O144 Fe133 1.996 . S
O144 C150 1.255 . S
O145 Fe135 1.976 . S
O145 C140 1.287 . S
O146 Fe132 1.996 . S
O146 C140 1.255 . S
C147 O151 1.295 . S
C147 O152 1.235 . S
O148 Fe133 1.976 . S
O148 C142 1.287 . S
O149 Fe135 1.996 . S
O149 C142 1.255 . S
C150 O143 1.287 . S
C150 O144 1.255 . S
O151 Fe133 2.002 . S
O151 C147 1.295 . S
O152 Fe135 1.997 . S
O152 C147 1.235 . S
C153 O136 1.295 . S
C153 O137 1.235 . S
Fe154 O156 1.918 . S
Fe154 O159 1.997 . S
Fe154 O160 2.002 . S
Fe154 O165 1.976 . S
Fe154 O168 1.996 . S
Fe155 O156 1.918 . S
Fe155 O163 1.997 . S
Fe155 O166 1.996 . S
Fe155 O170 1.976 . S
Fe155 O173 2.002 . S
O156 Fe154 1.918 . S
O156 Fe155 1.918 . S
O156 Fe157 1.918 . S
Fe157 O156 1.918 . S
Fe157 O158 2.002 . S
Fe157 O167 1.976 . S
Fe157 O171 1.996 . S
Fe157 O174 1.997 . S
O158 Fe157 2.002 . S
O158 C175 1.295 . S
O159 Fe154 1.997 . S
O159 C175 1.235 . S
O160 Fe154 2.002 . S
O160 C161 1.295 . S
C161 O160 1.295 . S
C161 O163 1.235 . S
C162 O167 1.287 . S
C162 O168 1.255 . S
O163 Fe155 1.997 . S
O163 C161 1.235 . S
C164 O170 1.287 . S
C164 O171 1.255 . S
O165 Fe154 1.976 . S
O165 C172 1.287 . S
O166 Fe155 1.996 . S
O166 C172 1.255 . S
O167 Fe157 1.976 . S
O167 C162 1.287 . S
O168 Fe154 1.996 . S
O168 C162 1.255 . S
C169 O173 1.295 . S
C169 O174 1.235 . S
O170 Fe155 1.976 . S
O170 C164 1.287 . S
O171 Fe157 1.996 . S
O171 C164 1.255 . S
C172 O165 1.287 . S
C172 O166 1.255 . S
O173 Fe155 2.002 . S
O173 C169 1.295 . S
O174 Fe157 1.997 . S
O174 C169 1.235 . S
C175 O158 1.295 . S
C175 O159 1.235 . S
C10 C131 1.558 . S
C95 C21 1.555 . S
C118 C32 1.669 . S
C106 C43 1.509 . S
C175 C54 1.558 . S
C139 C65 1.556 . S
C76 C162 1.669 . S
C150 C87 1.509 . S
C5 C172 1.583 . S
C142 C16 1.526 . S
C27 C161 1.669 . S
C37 C147 1.485 . S
C128 C49 1.583 . S
C60 C98 1.526 . S
C117 C71 1.669 1_545 S
C103 C81 1.484 1_565 S
C153 C4 1.522 . S
C169 C15 1.534 . S
C26 C140 1.543 . S
C164 C38 1.504 . S
C109 C48 1.522 . S
C59 C125 1.534 . S
C70 C96 1.543 . S
C82 C120 1.504 . S
