# Generated by pormake.
# Topology tsx, (6,3)-cn, num edge types: 1
# Building blocks:
#     Node 0, Type 0, BuildingBlock: VOLQOD_clean_sbu_1, # of connection points: 6
#     Node 1, Type 0, BuildingBlock: VOLQOD_clean_sbu_1, # of connection points: 6
#     Node 2, Type 1, BuildingBlock: QEWDON_clean_linker_0, # of connection points: 3
#     Node 3, Type 1, BuildingBlock: QEWDON_clean_linker_0, # of connection points: 3
#     Node 4, Type 1, BuildingBlock: QEWDON_clean_linker_0, # of connection points: 3
#     Node 5, Type 1, BuildingBlock: QEWDON_clean_linker_0, # of connection points: 3
#     Edge 6, Type (0, 1), None
#     Edge 7, Type (0, 1), None
#     Edge 8, Type (0, 1), None
#     Edge 9, Type (0, 1), None
#     Edge 10, Type (0, 1), None
#     Edge 11, Type (0, 1), None
#     Edge 12, Type (0, 1), None
#     Edge 13, Type (0, 1), None
#     Edge 14, Type (0, 1), None
#     Edge 15, Type (0, 1), None
#     Edge 16, Type (0, 1), None
#     Edge 17, Type (0, 1), None
# Relax obj value: 0.082
# Max RMSD: 0.159
# Mean RMSD: 0.140
data_MOF--net-tsx--node1-VOLQOD_clean_sbu_1--node2-QEWDON_clean_linker_0--edge1-none
_symmetry_space_group_name_H-M    P1
_symmetry_Int_Tables_number       1
_symmetry_cell_setting            triclinic
loop_
_symmetry_equiv_pos_as_xyz
'x, y, z'
_cell_length_a     10.382134
_cell_length_b     12.989675
_cell_length_c     19.02673
_cell_angle_alpha  90.137602
_cell_angle_beta   123.72554
_cell_angle_gamma 90.358388
loop_
_atom_site_label
_atom_site_type_symbol
_atom_site_fract_x
_atom_site_fract_y
_atom_site_fract_z
_atom_type_partial_charge
O0 O 0.25645 -0.05267 0.23033 0.0
Zn1 Zn 0.27542 -0.02888 0.13277 0.0
O2 O 0.06939 -0.02197 0.02961 0.0
Zn3 Zn 1.02368 0.84785 0.97163 0.0
Zn4 Zn 0.916 0.0084 0.05688 0.0
Zn5 Zn 0.07155 0.08321 0.95803 0.0
O6 O 0.96927 0.86668 0.85482 0.0
O7 O 1.03834 0.02662 0.8492 0.0
O8 O 0.40487 0.85723 0.13069 0.0
O9 O 0.21673 0.76274 0.02563 0.0
O10 O 0.84626 0.77277 0.964 0.0
O11 O 0.75797 0.88962 1.01274 0.0
O12 O 0.80768 0.14777 1.00755 0.0
O13 O 0.38236 0.10648 0.15049 0.0
O14 O 0.90051 0.17923 0.92874 0.0
O15 O 0.2642 0.17336 1.02204 0.0
C16 C 0.15291 -0.02833 0.24346 0.0
C17 C 0.98911 -0.06224 0.81587 0.0
C18 C 0.74719 0.8019 0.97916 0.0
C19 C 0.35876 0.77692 0.08438 0.0
C20 C 0.81142 0.20208 0.95279 0.0
C21 C 0.37001 0.17709 0.10075 0.0
O22 O 1.02107 0.00562 0.18466 0.0
O23 O 0.75652 0.44734 0.73036 0.0
Zn24 Zn 0.7755 0.47113 0.6328 0.0
O25 O 0.56949 0.47803 0.52964 0.0
Zn26 Zn 0.52378 0.34785 0.47167 0.0
Zn27 Zn 0.41608 0.50841 0.5569 0.0
Zn28 Zn 0.57163 0.58321 0.45805 0.0
O29 O 0.46935 0.36667 0.35485 0.0
O30 O 0.53839 0.52661 0.34921 0.0
O31 O 0.90497 0.35724 0.63073 0.0
O32 O 0.71684 0.26275 0.52567 0.0
O33 O 0.34638 0.27277 0.46405 0.0
O34 O 0.25806 0.38963 0.51276 0.0
O35 O 0.30776 0.64778 0.50757 0.0
O36 O 0.88244 0.60649 0.65051 0.0
O37 O 0.4006 0.67925 0.42876 0.0
O38 O 0.7643 0.67335 0.52205 0.0
C39 C 0.65297 0.47169 0.74348 0.0
C40 C 0.48915 0.43775 0.31589 0.0
C41 C 0.2473 0.3019 0.4792 0.0
C42 C 0.85887 0.27692 0.58442 0.0
C43 C 0.31151 0.70209 0.45281 0.0
C44 C 0.8701 0.67709 0.60076 0.0
O45 O 0.52113 0.50564 0.68467 0.0
H46 H 0.1842 0.08815 0.36853 0.0
C47 C 0.17157 0.00817 0.37829 0.0
C48 C 0.17364 -0.06126 0.32286 0.0
C49 C 0.16175 -0.02697 0.44595 0.0
H50 H 0.21126 0.78298 0.3029 0.0
C51 C 0.19994 0.8353 0.34373 0.0
C52 C 0.2252 0.80002 0.41969 0.0
C53 C 0.19379 0.86671 0.46712 0.0
C54 C 0.1379 0.04416 0.5034 0.0
H55 H 0.20295 0.83694 0.52279 0.0
C56 C 0.93499 0.17795 0.48971 0.0
C57 C 0.97125 0.20859 0.58535 0.0
C58 C 0.26686 0.0159 0.60892 0.0
H59 H 0.35893 -0.03835 0.62748 0.0
C60 C 0.25484 0.0709 0.68598 0.0
H61 H 0.83206 0.21261 0.43496 0.0
C62 C 0.12395 0.15891 0.67527 0.0
H63 H 0.14032 0.18575 0.73364 0.0
H64 H 0.34216 0.04829 0.74995 0.0
H65 H 0.94447 0.06268 0.69081 0.0
C66 C 0.96781 -0.01488 0.68123 0.0
C67 C 0.97274 0.91037 0.73562 0.0
C68 C 0.98603 -0.04242 0.6148 0.0
H69 H 0.95369 0.74852 0.75153 0.0
C70 C 0.96194 0.80664 0.71339 0.0
C71 C 0.94495 0.77764 0.638 0.0
C72 C 0.96845 0.85179 0.59249 0.0
C73 C 1.0022 0.03431 0.55828 0.0
H74 H 0.96636 0.82676 0.53754 0.0
C75 C 0.18442 0.18701 0.57301 0.0
C76 C 0.1436 0.2237 0.47803 0.0
C77 C 0.87736 0.00334 0.45237 0.0
H78 H 0.79267 -0.05777 0.43313 0.0
C79 C 0.88128 0.06712 0.37588 0.0
H80 H 0.28232 0.22667 0.62793 0.0
C81 C 0.99945 0.16696 0.3877 0.0
H82 H 0.9795 0.19779 0.32966 0.0
H83 H 0.79735 0.04221 0.31165 0.0
H84 H 0.68419 0.58816 0.86854 0.0
C85 C 0.67155 0.50818 0.87829 0.0
C86 C 0.67365 0.43875 0.82287 0.0
C87 C 0.66169 0.47302 0.94593 0.0
H88 H 0.71125 0.28299 0.80289 0.0
C89 C 0.69991 0.33531 0.84373 0.0
C90 C 0.72513 0.30001 0.91968 0.0
C91 C 0.69371 0.36671 0.9671 0.0
C92 C 0.63782 0.54416 1.00338 0.0
H93 H 0.70284 0.33693 1.02276 0.0
C94 C 0.43489 0.67793 0.98968 0.0
C95 C 0.47115 0.70858 0.08531 0.0
C96 C 0.76678 0.5159 0.1089 0.0
H97 H 0.85885 0.46166 0.12746 0.0
C98 C 0.75475 0.57091 0.18595 0.0
H99 H 0.33196 0.71259 0.93492 0.0
C100 C 0.62385 0.65891 0.17524 0.0
H101 H 0.64021 0.68576 0.2336 0.0
H102 H 0.84207 0.5483 0.24993 0.0
H103 H 0.44443 0.56267 0.19081 0.0
C104 C 0.46777 0.48511 0.18122 0.0
C105 C 0.47273 0.41035 0.23562 0.0
C106 C 0.48595 0.45757 0.11478 0.0
H107 H 0.45367 0.24851 0.25153 0.0
C108 C 0.46191 0.30663 0.21338 0.0
C109 C 0.44488 0.27763 0.13799 0.0
C110 C 0.46837 0.35178 0.09247 0.0
C111 C 0.50212 0.5343 0.05826 0.0
H112 H 0.46625 0.32675 0.03751 0.0
C113 C 0.68432 0.68701 0.07298 0.0
C114 C 0.6435 0.72369 0.97799 0.0
C115 C 0.37728 0.50333 0.95234 0.0
H116 H 0.29259 0.44221 0.93311 0.0
C117 C 0.3812 0.5671 0.87586 0.0
H118 H 0.78221 0.72668 0.12789 0.0
C119 C 0.49936 0.66694 0.88767 0.0
H120 H 0.47941 0.69776 0.82963 0.0
H121 H 0.29727 0.54218 0.81163 0.0
loop_
_geom_bond_atom_site_label_1
_geom_bond_atom_site_label_2
_geom_bond_distance
_geom_bond_site_symmetry_2
_ccdc_geom_bond_type
O0 Zn1 1.953 . S
O0 C16 1.225 1_565 S
Zn1 O0 1.953 . S
Zn1 O2 1.949 1_565 S
Zn1 O8 1.919 . S
Zn1 O13 1.924 1_565 S
O2 Zn1 1.949 1_545 S
O2 Zn3 1.923 1_444 S
O2 Zn4 1.950 1_455 S
O2 Zn5 1.945 1_554 S
Zn3 O2 1.923 1_666 S
Zn3 O6 1.933 . S
Zn3 O9 1.941 1_655 S
Zn3 O10 1.965 . S
Zn4 O2 1.950 1_655 S
Zn4 O11 1.938 1_545 S
Zn4 O12 1.906 . S
Zn4 O22 1.953 . S
Zn5 O2 1.945 1_556 S
Zn5 O7 1.932 . S
Zn5 O14 1.977 1_455 S
Zn5 O15 1.910 . S
O6 Zn3 1.933 . S
O6 C17 1.226 1_565 S
O7 Zn5 1.932 . S
O7 C17 1.307 1_455 S
O8 Zn1 1.919 . S
O8 C19 1.253 . S
O9 Zn3 1.941 1_455 S
O9 C19 1.283 1_556 S
O10 Zn3 1.965 . S
O10 C18 1.303 1_556 S
O11 Zn4 1.938 1_565 S
O11 C18 1.247 . S
O12 Zn4 1.906 . S
O12 C20 1.304 1_554 S
O13 Zn1 1.924 1_545 S
O13 C21 1.311 . S
O14 Zn5 1.977 1_655 S
O14 C20 1.272 . S
O15 Zn5 1.910 . S
O15 C21 1.231 1_556 S
C16 O0 1.225 1_545 S
C16 O22 1.298 1_455 S
C17 O6 1.226 1_545 S
C17 O7 1.307 1_655 S
C18 O10 1.303 1_554 S
C18 O11 1.247 . S
C19 O8 1.253 . S
C19 O9 1.283 1_554 S
C20 O12 1.304 1_556 S
C20 O14 1.272 . S
C21 O13 1.311 . S
C21 O15 1.231 1_554 S
O22 Zn4 1.953 . S
O22 C16 1.298 1_655 S
O23 Zn24 1.953 . S
O23 C39 1.225 . S
Zn24 O23 1.953 . S
Zn24 O25 1.949 . S
Zn24 O31 1.919 . S
Zn24 O36 1.924 . S
O25 Zn24 1.949 . S
O25 Zn26 1.923 . S
O25 Zn27 1.950 . S
O25 Zn28 1.945 . S
Zn26 O25 1.923 . S
Zn26 O29 1.933 . S
Zn26 O32 1.941 . S
Zn26 O33 1.965 . S
Zn27 O25 1.950 . S
Zn27 O34 1.938 . S
Zn27 O35 1.906 . S
Zn27 O45 1.953 . S
Zn28 O25 1.945 . S
Zn28 O30 1.932 . S
Zn28 O37 1.977 . S
Zn28 O38 1.910 . S
O29 Zn26 1.933 . S
O29 C40 1.226 . S
O30 Zn28 1.932 . S
O30 C40 1.307 . S
O31 Zn24 1.919 . S
O31 C42 1.253 . S
O32 Zn26 1.941 . S
O32 C42 1.283 . S
O33 Zn26 1.965 . S
O33 C41 1.303 . S
O34 Zn27 1.938 . S
O34 C41 1.247 . S
O35 Zn27 1.906 . S
O35 C43 1.304 . S
O36 Zn24 1.924 . S
O36 C44 1.311 . S
O37 Zn28 1.977 . S
O37 C43 1.272 . S
O38 Zn28 1.910 . S
O38 C44 1.231 . S
C39 O23 1.225 . S
C39 O45 1.298 . S
C40 O29 1.226 . S
C40 O30 1.307 . S
C41 O33 1.303 . S
C41 O34 1.247 . S
C42 O31 1.253 . S
C42 O32 1.283 . S
C43 O35 1.304 . S
C43 O37 1.272 . S
C44 O36 1.311 . S
C44 O38 1.231 . S
O45 Zn27 1.953 . S
O45 C39 1.298 . S
H46 C47 0.949 1_655 S
C47 H46 0.949 1_455 S
C47 C48 1.395 1_545 S
C47 C49 1.391 . S
C48 C47 1.395 1_565 S
C48 C51 1.390 . S
C49 C47 1.391 . S
C49 C53 1.387 1_545 S
C49 C54 1.491 . S
H50 C51 0.950 . S
C51 C48 1.390 . S
C51 H50 0.950 . S
C51 C52 1.378 . S
C52 C51 1.378 . S
C52 C53 1.409 . S
C53 C49 1.387 1_565 S
C53 C52 1.409 . S
C53 H55 0.951 . S
C54 C49 1.491 . S
C54 C56 1.382 1_455 S
C54 C58 1.404 . S
H55 C53 0.951 . S
C56 C54 1.382 1_655 S
C56 C57 1.390 . S
C56 H61 0.949 . S
C57 C56 1.390 . S
C57 C62 1.399 . S
C58 C54 1.404 . S
C58 H59 0.950 . S
C58 C60 1.375 . S
H59 C58 0.950 . S
C60 C58 1.375 . S
C60 C62 1.382 1_455 S
C60 H64 0.950 . S
H61 C56 0.949 . S
C62 C57 1.399 . S
C62 C60 1.382 1_655 S
C62 H63 0.952 . S
H63 C62 0.952 . S
H64 C60 0.950 . S
H65 C66 0.949 . S
C66 H65 0.949 . S
C66 C67 1.395 1_445 S
C66 C68 1.391 1_455 S
C67 C66 1.395 1_665 S
C67 C70 1.390 . S
C68 C66 1.391 1_655 S
C68 C72 1.387 1_545 S
C68 C73 1.491 1_655 S
H69 C70 0.950 . S
C70 C67 1.390 . S
C70 H69 0.950 . S
C70 C71 1.378 . S
C71 C70 1.378 . S
C71 C72 1.409 . S
C72 C68 1.387 1_565 S
C72 C71 1.409 . S
C72 H74 0.951 . S
C73 C68 1.491 1_455 S
C73 C75 1.382 . S
C73 C77 1.404 1_455 S
H74 C72 0.951 . S
C75 C73 1.382 . S
C75 C76 1.390 . S
C75 H80 0.949 . S
C76 C75 1.390 . S
C76 C81 1.399 . S
C77 C73 1.404 1_655 S
C77 H78 0.950 . S
C77 C79 1.375 . S
H78 C77 0.950 . S
C79 C77 1.375 . S
C79 C81 1.382 1_655 S
C79 H83 0.950 . S
H80 C75 0.949 . S
C81 C76 1.399 . S
C81 C79 1.382 1_455 S
C81 H82 0.952 . S
H82 C81 0.952 . S
H83 C79 0.950 . S
H84 C85 0.949 . S
C85 H84 0.949 . S
C85 C86 1.395 . S
C85 C87 1.391 . S
C86 C85 1.395 . S
C86 C89 1.390 . S
C87 C85 1.391 . S
C87 C91 1.387 . S
C87 C92 1.491 . S
H88 C89 0.950 . S
C89 C86 1.390 . S
C89 H88 0.950 . S
C89 C90 1.378 . S
C90 C89 1.378 . S
C90 C91 1.409 . S
C91 C87 1.387 . S
C91 C90 1.409 . S
C91 H93 0.951 1_556 S
C92 C87 1.491 . S
C92 C94 1.382 . S
C92 C96 1.404 1_556 S
H93 C91 0.951 1_554 S
C94 C92 1.382 . S
C94 C95 1.390 1_556 S
C94 H99 0.949 . S
C95 C94 1.390 1_554 S
C95 C100 1.399 . S
C96 C92 1.404 1_554 S
C96 H97 0.950 . S
C96 C98 1.375 . S
H97 C96 0.950 . S
C98 C96 1.375 . S
C98 C100 1.382 . S
C98 H102 0.950 . S
H99 C94 0.949 . S
C100 C95 1.399 . S
C100 C98 1.382 . S
C100 H101 0.952 . S
H101 C100 0.952 . S
H102 C98 0.950 . S
H103 C104 0.949 . S
C104 H103 0.949 . S
C104 C105 1.395 . S
C104 C106 1.391 . S
C105 C104 1.395 . S
C105 C108 1.390 . S
C106 C104 1.391 . S
C106 C110 1.387 . S
C106 C111 1.491 . S
H107 C108 0.950 . S
C108 C105 1.390 . S
C108 H107 0.950 . S
C108 C109 1.378 . S
C109 C108 1.378 . S
C109 C110 1.409 . S
C110 C106 1.387 . S
C110 C109 1.409 . S
C110 H112 0.951 1_554 S
C111 C106 1.491 . S
C111 C113 1.382 . S
C111 C115 1.404 1_554 S
H112 C110 0.951 1_556 S
C113 C111 1.382 . S
C113 C114 1.390 1_554 S
C113 H118 0.949 . S
C114 C113 1.390 1_556 S
C114 C119 1.399 . S
C115 C111 1.404 1_556 S
C115 H116 0.950 . S
C115 C117 1.375 . S
H116 C115 0.950 . S
C117 C115 1.375 . S
C117 C119 1.382 . S
C117 H121 0.950 . S
H118 C113 0.949 . S
C119 C114 1.399 . S
C119 C117 1.382 . S
C119 H120 0.952 . S
H120 C119 0.952 . S
H121 C117 0.950 . S
C109 C21 1.615 . S
C19 C95 1.496 . S
C18 C114 1.385 1_554 S
C20 C90 1.561 . S
C44 C71 1.615 . S
C42 C57 1.496 . S
C76 C41 1.385 . S
C52 C43 1.561 . S
C16 C48 1.690 1_545 S
C17 C67 1.639 1_545 S
C86 C39 1.690 . S
C40 C105 1.639 . S
