# Generated by pormake.
# Topology pts, (4,4)-cn, num edge types: 1
# Building blocks:
#     Node 0, Type 0, BuildingBlock: KUFVIS_clean_linker_0, # of connection points: 4
#     Node 1, Type 0, BuildingBlock: KUFVIS_clean_linker_0, # of connection points: 4
#     Node 2, Type 1, BuildingBlock: AZAVOO_clean_sbu_0, # of connection points: 4
#     Node 3, Type 1, BuildingBlock: AZAVOO_clean_sbu_0, # of connection points: 4
#     Edge 4, Type (0, 1), BuildingBlock: KIFKEQ_clean_linker_1, # of connection points: 2
#     Edge 5, Type (0, 1), BuildingBlock: KIFKEQ_clean_linker_1, # of connection points: 2
#     Edge 6, Type (0, 1), BuildingBlock: KIFKEQ_clean_linker_1, # of connection points: 2
#     Edge 7, Type (0, 1), BuildingBlock: KIFKEQ_clean_linker_1, # of connection points: 2
#     Edge 8, Type (0, 1), BuildingBlock: KIFKEQ_clean_linker_1, # of connection points: 2
#     Edge 9, Type (0, 1), BuildingBlock: KIFKEQ_clean_linker_1, # of connection points: 2
#     Edge 10, Type (0, 1), BuildingBlock: KIFKEQ_clean_linker_1, # of connection points: 2
#     Edge 11, Type (0, 1), BuildingBlock: KIFKEQ_clean_linker_1, # of connection points: 2
# Relax obj value: 0.013
# Max RMSD: 0.077
# Mean RMSD: 0.073
data_MOF--net-pts--node1-AZAVOO_clean_sbu_0--node2-KUFVIS_clean_linker_0--edge1-KIFKEQ_clean_linker_1
_symmetry_space_group_name_H-M    P1
_symmetry_Int_Tables_number       1
_symmetry_cell_setting            triclinic
loop_
_symmetry_equiv_pos_as_xyz
'x, y, z'
_cell_length_a     24.914115
_cell_length_b     26.347375
_cell_length_c     35.734164
_cell_angle_alpha  90.092914
_cell_angle_beta   96.184124
_cell_angle_gamma 89.066803
loop_
_atom_site_label
_atom_site_type_symbol
_atom_site_fract_x
_atom_site_fract_y
_atom_site_fract_z
_atom_type_partial_charge
H0 H 0.36329 0.04004 0.97826 0.0
H1 H 0.50445 0.03375 0.92016 0.0
H2 H 0.51739 0.0612 0.04075 0.0
H3 H 0.5989 0.02879 0.04013 0.0
H4 H 0.73688 0.06312 -0.01604 0.0
H5 H 0.57989 0.07574 0.92303 0.0
C6 C 0.40686 0.04224 0.9789 0.0
C7 C 0.43817 0.04881 0.01328 0.0
C8 C 0.43046 0.03836 0.94534 0.0
C9 C 0.48697 0.0393 0.9463 0.0
C10 C 0.51998 0.04799 -0.01941 0.0
C11 C 0.49433 0.05355 0.014 0.0
C12 C 0.58049 0.0518 -0.01852 0.0
C13 C 0.61504 0.0414 0.0149 0.0
C14 C 0.67117 0.0475 0.01619 0.0
C15 C 0.69335 0.06117 -0.01655 0.0
C16 C 0.66076 0.07028 0.94975 0.0
C17 C 0.60446 0.06641 0.94898 0.0
H18 H 0.05112 0.69294 0.48303 0.0
H19 H 1.01554 0.55358 0.53545 0.0
H20 H 0.08319 0.55291 0.42841 0.0
H21 H 0.03901 0.48102 0.42013 0.0
H22 H 0.04383 0.34031 0.47991 0.0
H23 H 0.05737 0.47895 0.54237 0.0
C24 C 0.05074 0.65176 0.48273 0.0
C25 C 0.0683 0.6256 0.45218 0.0
C26 C 0.03247 0.62588 0.51286 0.0
C27 C 0.03151 0.57274 0.5124 0.0
C28 C 0.04932 0.5451 0.48189 0.0
C29 C 0.0679 0.57242 0.45183 0.0
C30 C 0.04818 0.48823 0.48134 0.0
C31 C 0.04306 0.4613 0.44684 0.0
C32 C 0.04307 0.40816 0.44651 0.0
C33 C 0.04496 0.38148 0.48032 0.0
C34 C 0.0487 0.40715 0.51466 0.0
C35 C 0.05201 0.46017 0.51531 0.0
Mg36 Mg 0.09985 1.0055 0.2553 0.0
O37 O 1.01653 0.99892 0.22034 0.0
O38 O 0.95619 0.98318 0.26076 0.0
Mg39 Mg 0.99959 0.98036 0.32034 0.0
C40 C 0.96807 0.99071 0.22735 0.0
C41 C 0.18691 0.05426 0.21459 0.0
O42 O 0.20498 0.05853 0.25037 0.0
O43 O 0.07554 0.08454 0.27422 0.0
O44 O 1.01677 0.06556 0.31501 0.0
O45 O 0.11489 0.92163 0.25243 0.0
O46 O 0.07477 0.96005 0.29703 0.0
C47 C 0.04312 0.09793 0.29794 0.0
C48 C 0.0912 0.91843 0.28283 0.0
O49 O 0.14013 0.03622 0.20597 0.0
Mg50 Mg 0.99839 1.00712 0.70915 0.0
O51 O 0.08242 1.00041 0.74383 0.0
O52 O 0.1419 0.98344 0.70259 0.0
Mg53 Mg 0.09794 0.97952 0.64335 0.0
C54 C 0.13082 0.99166 0.73616 0.0
C55 C 0.90665 0.04903 0.74747 0.0
O56 O 0.88826 0.04131 0.71209 0.0
O57 O 1.02068 0.08539 0.68908 0.0
O58 O 0.07909 0.06504 0.64789 0.0
O59 O 0.985 0.92342 0.71294 0.0
O60 O 1.02419 0.96045 0.66795 0.0
C61 C 0.05234 0.09799 0.66495 0.0
C62 C 1.00855 0.91932 0.68249 0.0
O63 O 0.95649 0.0402 0.7576 0.0
H64 H 0.43929 0.12302 0.06748 0.0
H65 H 0.37288 0.97694 0.03594 0.0
H66 H 0.37862 0.1299 0.1173 0.0
H67 H 0.31296 0.98345 0.08528 0.0
H68 H 0.16761 0.03643 0.13896 0.0
H69 H 0.23265 0.03767 0.09273 0.0
H70 H 0.35556 0.09001 0.17782 0.0
H71 H 0.29031 0.08935 0.22419 0.0
C72 C 0.41266 0.09198 0.07184 0.0
C73 C 0.41033 0.04964 0.04784 0.0
C74 C 0.3778 0.09598 0.10009 0.0
C75 C 0.34014 0.05774 0.10453 0.0
C76 C 0.3404 0.01417 0.08187 0.0
C77 C 0.37505 1.01019 0.0539 0.0
C78 C 0.20824 0.04892 0.14776 0.0
C79 C 0.22388 0.06222 0.18538 0.0
C80 C 0.24564 0.04926 0.12133 0.0
C81 C 0.2995 0.06302 0.13185 0.0
C82 C 0.31441 0.07915 0.16892 0.0
C83 C 0.27699 0.07863 0.19546 0.0
H84 H 0.9642 0.3583 0.53813 0.0
H85 H 0.1335 0.38632 0.56726 0.0
H86 H 0.96786 0.29141 0.58551 0.0
H87 H 0.13762 0.3192 0.61511 0.0
H88 H 0.13069 0.14125 0.62858 0.0
H89 H 0.13124 0.22664 0.60317 0.0
H90 H 0.98433 0.26318 0.6522 0.0
H91 H 0.98348 0.17705 0.67763 0.0
C92 C 1.00172 0.35119 0.55579 0.0
C93 C 0.04854 0.37714 0.54936 0.0
C94 C 1.00388 0.31306 0.58297 0.0
C95 C 0.05315 0.29977 0.60386 0.0
C96 C 0.09921 0.3284 0.59921 0.0
C97 C 0.09687 0.36694 0.57215 0.0
C98 C 0.0989 0.16764 0.63451 0.0
C99 C 0.05655 0.15207 0.65461 0.0
C100 C 0.09957 0.21686 0.62027 0.0
C101 C 0.05771 0.25162 0.62556 0.0
C102 C 1.01693 0.23704 0.64748 0.0
C103 C 1.01653 0.18779 0.66208 0.0
H104 H 0.67677 0.96689 0.06543 0.0
H105 H 0.75002 0.11032 0.04544 0.0
H106 H 0.74786 0.94951 0.11717 0.0
H107 H 0.82057 0.09309 0.09659 0.0
H108 H 0.97288 0.02034 0.15432 0.0
H109 H 0.89792 0.03243 0.10527 0.0
H110 H 0.78669 0.98028 0.18098 0.0
H111 H 0.86163 0.96764 0.2301 0.0
C112 C 0.70741 0.99503 0.07257 0.0
C113 C 0.70827 0.03966 0.05119 0.0
C114 C 0.7482 0.98503 0.10199 0.0
C115 C 0.79046 0.01946 0.11037 0.0
C116 C 0.78946 0.06518 0.09017 0.0
C117 C 0.74886 0.07519 0.06105 0.0
C118 C 0.9326 0.01091 0.16048 0.0
C119 C 0.92339 0.99338 0.19631 0.0
C120 C 0.88955 0.01821 0.13243 0.0
C121 C 0.83629 1.00793 0.13944 0.0
C122 C 0.82724 0.98845 0.17471 0.0
C123 C 0.87027 0.98143 0.20288 0.0
H124 H 0.95657 0.70077 0.50976 0.0
H125 H 0.07349 0.62066 0.58686 0.0
H126 H 0.9489 0.76724 0.55663 0.0
H127 H 0.06537 0.68748 0.63422 0.0
H128 H 0.98856 0.82388 0.70833 0.0
H129 H 0.98768 0.74405 0.67243 0.0
H130 H 0.03816 0.82459 0.57756 0.0
H131 H 0.03982 0.90347 0.61294 0.0
C132 C 0.97914 0.69659 0.53728 0.0
C133 C 1.016 0.65607 0.5447 0.0
C134 C 0.97492 0.73459 0.56396 0.0
C135 C 1.0072 0.7326 0.59862 0.0
C136 C 0.04009 0.68961 0.60762 0.0
C137 C 0.04454 0.65143 0.58069 0.0
C138 C 1.00023 0.82426 0.68 0.0
C139 C 1.01412 0.87 0.66342 0.0
C140 C 0.99965 0.77871 0.65959 0.0
C141 C 1.01205 0.77868 0.62221 0.0
C142 C 0.02775 0.82395 0.60623 0.0
C143 C 0.02906 0.86903 0.62664 0.0
H144 H 0.34912 0.10273 0.92013 0.0
H145 H 0.42879 0.96358 0.89164 0.0
H146 H 0.27813 0.0892 0.86886 0.0
H147 H 0.357 0.94941 0.84011 0.0
H148 H 0.23782 0.97046 0.73105 0.0
H149 H 0.31377 0.98215 0.77904 0.0
H150 H 0.20359 0.02986 0.85812 0.0
H151 H 0.12753 0.01901 0.81003 0.0
C152 C 0.35168 0.06953 0.90243 0.0
C153 C 0.39419 0.03406 0.90984 0.0
C154 C 0.31077 0.06147 0.87335 0.0
C155 C 0.31124 0.01767 0.85094 0.0
C156 C 0.35546 0.98352 0.85694 0.0
C157 C 0.39667 0.99166 0.88622 0.0
C158 C 0.22962 0.98317 0.75874 0.0
C159 C 0.17639 0.99419 0.76653 0.0
C160 C 0.27328 0.98964 0.78628 0.0
C161 C 0.26485 1.00752 0.82224 0.0
C162 C 0.21156 0.01699 0.83042 0.0
C163 C 0.16786 1.01036 0.80293 0.0
H164 H 0.95633 0.3863 0.39658 0.0
H165 H 0.12809 0.3617 0.41965 0.0
H166 H 0.95238 0.31913 0.3488 0.0
H167 H 0.12462 0.29436 0.37258 0.0
H168 H 0.10867 0.17662 0.28305 0.0
H169 H 0.10594 0.26324 0.30761 0.0
H170 H 0.96295 0.22788 0.3603 0.0
H171 H 0.96517 0.14218 0.33558 0.0
C172 C 0.99341 0.36768 0.39033 0.0
C173 C 0.04252 0.37892 0.41136 0.0
C174 C 0.99121 0.32903 0.36333 0.0
C175 C 0.03811 0.30104 0.35719 0.0
C176 C 0.08787 0.31544 0.37625 0.0
C177 C 0.08996 0.35389 0.40325 0.0
C178 C 0.07604 0.18772 0.29923 0.0
C179 C 0.03763 0.15225 0.30787 0.0
C180 C 0.07457 0.23728 0.31335 0.0
C181 C 0.0344 0.25239 0.33605 0.0
C182 C 0.9941 0.21779 0.34257 0.0
C183 C 0.99575 0.16834 0.32872 0.0
H184 H 0.74122 0.13723 0.94172 0.0
H185 H 0.64162 0.02549 0.8807 0.0
H186 H 0.79859 0.14022 0.89058 0.0
H187 H 0.699 0.02839 0.82945 0.0
H188 H 0.79772 0.06428 0.73389 0.0
H189 H 0.73329 0.07907 0.77955 0.0
H190 H 0.86415 0.07854 0.86927 0.0
H191 H 0.92886 0.0642 0.82352 0.0
C192 C 0.73106 0.11399 0.91701 0.0
C193 C 0.6873 0.08069 0.91534 0.0
C194 C 0.76409 0.11549 0.88786 0.0
C195 C 0.75394 0.08391 0.85627 0.0
C196 C 0.70781 0.05337 0.85334 0.0
C197 C 0.67477 0.0518 0.88262 0.0
C198 C 0.81293 0.06785 0.76332 0.0
C199 C 0.86851 0.06275 0.7751 0.0
C200 C 0.77586 0.07611 0.78948 0.0
C201 C 0.79349 0.07979 0.82803 0.0
C202 C 0.84926 0.07647 0.8397 0.0
C203 C 0.88638 0.06797 0.81352 0.0
H204 H 0.14391 0.69859 0.45575 0.0
H205 H 1.02768 0.62183 0.37806 0.0
H206 H 0.15146 0.76507 0.40921 0.0
H207 H 0.03576 0.68858 0.33102 0.0
H208 H 0.11132 0.82227 0.25709 0.0
H209 H 0.11258 0.74264 0.29309 0.0
H210 H 0.06301 0.82529 0.38818 0.0
H211 H 0.06091 0.90403 0.35267 0.0
C212 C 0.12143 0.69512 0.42819 0.0
C213 C 0.08478 0.65558 0.42052 0.0
C214 C 0.12559 0.73314 0.40169 0.0
C215 C 0.09349 0.73211 0.36696 0.0
C216 C 0.06087 0.68998 0.3577 0.0
C217 C 0.05646 0.65183 0.38445 0.0
C218 C 0.09998 0.82319 0.28551 0.0
C219 C 0.08616 0.86943 0.3021 0.0
C220 C 0.10077 0.77775 0.30597 0.0
C221 C 0.0887 0.7783 0.34343 0.0
C222 C 0.07319 0.82417 0.35946 0.0
C223 C 0.07162 0.86917 0.33898 0.0
loop_
_geom_bond_atom_site_label_1
_geom_bond_atom_site_label_2
_geom_bond_distance
_geom_bond_site_symmetry_2
_ccdc_geom_bond_type
H0 C6 0.931 . S
H1 C9 0.931 . S
H2 C11 0.930 1_565 S
H3 C13 0.930 . S
H4 C15 0.930 . S
H5 C17 0.928 1_565 S
C6 H0 0.931 . S
C6 C7 1.373 1_556 S
C6 C8 1.403 . S
C7 C6 1.373 1_554 S
C7 C11 1.382 . S
C8 C6 1.403 . S
C8 C9 1.400 . S
C9 H1 0.931 . S
C9 C8 1.400 . S
C9 C10 1.368 1_556 S
C10 C9 1.368 1_554 S
C10 C11 1.422 . S
C10 C12 1.500 . S
C11 H2 0.930 1_545 S
C11 C7 1.382 . S
C11 C10 1.422 . S
C12 C10 1.500 . S
C12 C13 1.384 . S
C12 C17 1.408 1_554 S
C13 H3 0.930 . S
C13 C12 1.384 . S
C13 C14 1.389 . S
C14 C13 1.389 . S
C14 C15 1.405 . S
C15 H4 0.930 . S
C15 C14 1.405 . S
C15 C16 1.364 1_554 S
C16 C15 1.364 1_556 S
C16 C17 1.400 . S
C17 H5 0.928 1_545 S
C17 C12 1.408 1_556 S
C17 C16 1.400 . S
H18 C24 0.930 . S
H19 C27 0.928 1_655 S
H20 C29 0.931 . S
H21 C31 0.930 . S
H22 C33 0.930 . S
H23 C35 0.931 . S
C24 H18 0.930 . S
C24 C25 1.380 . S
C24 C26 1.394 . S
C25 C24 1.380 . S
C25 C29 1.382 . S
C26 C24 1.394 . S
C26 C27 1.400 . S
C27 H19 0.928 1_455 S
C27 C26 1.400 . S
C27 C28 1.375 . S
C28 C27 1.375 . S
C28 C29 1.415 . S
C28 C30 1.501 . S
C29 H20 0.931 . S
C29 C25 1.382 . S
C29 C28 1.415 . S
C30 C28 1.501 . S
C30 C31 1.384 . S
C30 C35 1.408 . S
C31 H21 0.930 . S
C31 C30 1.384 . S
C31 C32 1.389 . S
C32 C31 1.389 . S
C32 C33 1.405 . S
C33 H22 0.930 . S
C33 C32 1.405 . S
C33 C34 1.364 . S
C34 C33 1.364 . S
C34 C35 1.400 . S
C35 H23 0.931 . S
C35 C30 1.408 . S
C35 C34 1.400 . S
Mg36 O37 2.028 . S
Mg36 O43 1.986 . S
Mg36 O45 2.114 1_545 S
Mg36 O46 2.251 1_545 S
Mg36 O49 2.010 . S
O37 Mg36 2.028 . S
O37 C40 1.250 1_455 S
O38 Mg39 2.028 . S
O38 C40 1.248 . S
Mg39 O38 2.028 . S
Mg39 O44 2.032 . S
Mg39 O46 2.079 1_645 S
C40 O37 1.250 1_655 S
C40 O38 1.248 . S
C41 O42 1.264 . S
C41 O49 1.249 . S
O42 C41 1.264 . S
O43 Mg36 1.986 . S
O43 C47 1.246 . S
O44 Mg39 2.032 . S
O44 C47 1.259 1_655 S
O45 Mg36 2.114 1_565 S
O45 C48 1.252 . S
O46 Mg36 2.251 1_565 S
O46 Mg39 2.079 1_465 S
O46 C48 1.273 . S
C47 O43 1.246 . S
C47 O44 1.259 1_455 S
C48 O45 1.252 . S
C48 O46 1.273 . S
O49 Mg36 2.010 . S
O49 C41 1.249 . S
Mg50 O51 2.028 1_655 S
Mg50 O57 1.986 . S
Mg50 O59 2.114 1_545 S
Mg50 O60 2.251 1_645 S
Mg50 O63 2.010 . S
O51 Mg50 2.028 1_455 S
O51 C54 1.250 . S
O52 Mg53 2.028 . S
O52 C54 1.248 . S
Mg53 O52 2.028 . S
Mg53 O58 2.032 . S
Mg53 O60 2.079 1_545 S
C54 O51 1.250 . S
C54 O52 1.248 . S
C55 O56 1.264 . S
C55 O63 1.249 . S
O56 C55 1.264 . S
O57 Mg50 1.986 . S
O57 C61 1.246 1_655 S
O58 Mg53 2.032 . S
O58 C61 1.259 . S
O59 Mg50 2.114 1_565 S
O59 C62 1.252 1_655 S
O60 Mg50 2.251 1_465 S
O60 Mg53 2.079 1_565 S
O60 C62 1.273 . S
C61 O57 1.246 1_455 S
C61 O58 1.259 . S
C62 O59 1.252 1_455 S
C62 O60 1.273 . S
O63 Mg50 2.010 . S
O63 C55 1.249 . S
H64 C72 0.950 . S
H65 C77 0.950 . S
H66 C74 0.950 . S
H67 C76 0.950 . S
H68 C78 0.950 . S
H69 C80 0.950 . S
H70 C82 0.950 . S
H71 C83 0.950 . S
C72 H64 0.950 . S
C72 C73 1.386 . S
C72 C74 1.391 . S
C73 C72 1.386 . S
C73 C77 1.393 1_545 S
C74 H66 0.950 . S
C74 C72 1.391 . S
C74 C75 1.400 . S
C75 C74 1.400 . S
C75 C76 1.398 1_545 S
C75 C81 1.491 . S
C76 H67 0.950 . S
C76 C75 1.398 1_565 S
C76 C77 1.391 . S
C77 H65 0.950 . S
C77 C73 1.393 1_565 S
C77 C76 1.391 . S
C78 H68 0.950 . S
C78 C79 1.386 1_565 S
C78 C80 1.391 . S
C79 C78 1.386 1_545 S
C79 C83 1.393 . S
C80 H69 0.950 . S
C80 C78 1.391 . S
C80 C81 1.400 1_565 S
C81 C75 1.491 . S
C81 C80 1.400 1_545 S
C81 C82 1.398 . S
C82 H70 0.950 . S
C82 C81 1.398 . S
C82 C83 1.391 . S
C83 H71 0.950 . S
C83 C79 1.393 . S
C83 C82 1.391 . S
H84 C92 0.950 . S
H85 C97 0.950 . S
H86 C94 0.950 1_655 S
H87 C96 0.950 . S
H88 C98 0.950 . S
H89 C100 0.950 . S
H90 C102 0.949 1_655 S
H91 C103 0.942 1_655 S
C92 H84 0.950 . S
C92 C93 1.386 . S
C92 C94 1.391 . S
C93 C92 1.386 . S
C93 C97 1.393 . S
C94 H86 0.950 1_455 S
C94 C92 1.391 . S
C94 C95 1.400 . S
C95 C94 1.400 . S
C95 C96 1.398 . S
C95 C101 1.491 . S
C96 H87 0.950 . S
C96 C95 1.398 . S
C96 C97 1.391 . S
C97 H85 0.950 . S
C97 C93 1.393 . S
C97 C96 1.391 . S
C98 H88 0.950 . S
C98 C99 1.386 . S
C98 C100 1.391 . S
C99 C98 1.386 . S
C99 C103 1.398 . S
C100 H89 0.950 . S
C100 C98 1.391 . S
C100 C101 1.400 . S
C101 C95 1.491 . S
C101 C100 1.400 . S
C101 C102 1.398 . S
C102 H90 0.949 1_455 S
C102 C101 1.398 . S
C102 C103 1.394 . S
C103 H91 0.942 1_455 S
C103 C99 1.398 . S
C103 C102 1.394 . S
H104 C112 0.950 . S
H105 C117 0.950 1_565 S
H106 C114 0.950 . S
H107 C116 0.950 1_565 S
H108 C118 0.950 . S
H109 C120 0.950 . S
H110 C122 0.950 . S
H111 C123 0.950 . S
C112 H104 0.950 . S
C112 C113 1.386 . S
C112 C114 1.391 . S
C113 C112 1.386 . S
C113 C117 1.393 . S
C114 H106 0.950 . S
C114 C112 1.391 . S
C114 C115 1.400 . S
C115 C114 1.400 . S
C115 C116 1.398 . S
C115 C121 1.491 . S
C116 H107 0.950 1_545 S
C116 C115 1.398 . S
C116 C117 1.391 . S
C117 H105 0.950 1_545 S
C117 C113 1.393 . S
C117 C116 1.391 . S
C118 H108 0.950 . S
C118 C119 1.386 . S
C118 C120 1.391 . S
C119 C118 1.386 . S
C119 C123 1.393 . S
C120 H109 0.950 . S
C120 C118 1.391 . S
C120 C121 1.400 . S
C121 C115 1.491 . S
C121 C120 1.400 . S
C121 C122 1.398 . S
C122 H110 0.950 . S
C122 C121 1.398 . S
C122 C123 1.391 . S
C123 H111 0.950 . S
C123 C119 1.393 . S
C123 C122 1.391 . S
H124 C132 0.950 . S
H125 C137 0.950 . S
H126 C134 0.950 . S
H127 C136 0.950 . S
H128 C138 0.950 . S
H129 C140 0.950 . S
H130 C142 0.950 . S
H131 C143 0.950 . S
C132 H124 0.950 . S
C132 C133 1.386 1_655 S
C132 C134 1.391 . S
C133 C132 1.386 1_455 S
C133 C137 1.393 . S
C134 H126 0.950 . S
C134 C132 1.391 . S
C134 C135 1.400 1_655 S
C135 C134 1.400 1_455 S
C135 C136 1.398 . S
C135 C141 1.491 . S
C136 H127 0.950 . S
C136 C135 1.398 . S
C136 C137 1.391 . S
C137 H125 0.950 . S
C137 C133 1.393 . S
C137 C136 1.391 . S
C138 H128 0.950 . S
C138 C139 1.386 . S
C138 C140 1.391 . S
C139 C138 1.386 . S
C139 C143 1.393 1_455 S
C140 H129 0.950 . S
C140 C138 1.391 . S
C140 C141 1.400 . S
C141 C135 1.491 . S
C141 C140 1.400 . S
C141 C142 1.398 1_455 S
C142 H130 0.950 . S
C142 C141 1.398 1_655 S
C142 C143 1.391 . S
C143 H131 0.950 . S
C143 C139 1.393 1_655 S
C143 C142 1.391 . S
H144 C152 0.950 . S
H145 C157 0.950 . S
H146 C154 0.950 . S
H147 C156 0.950 . S
H148 C158 0.950 . S
H149 C160 0.950 . S
H150 C162 0.950 . S
H151 C163 0.950 . S
C152 H144 0.950 . S
C152 C153 1.386 . S
C152 C154 1.391 . S
C153 C152 1.386 . S
C153 C157 1.393 1_545 S
C154 H146 0.950 . S
C154 C152 1.391 . S
C154 C155 1.400 . S
C155 C154 1.400 . S
C155 C156 1.398 1_545 S
C155 C161 1.491 . S
C156 H147 0.950 . S
C156 C155 1.398 1_565 S
C156 C157 1.391 . S
C157 H145 0.950 . S
C157 C153 1.393 1_565 S
C157 C156 1.391 . S
C158 H148 0.950 . S
C158 C159 1.386 1_565 S
C158 C160 1.391 . S
C159 C158 1.386 1_545 S
C159 C163 1.393 . S
C160 H149 0.950 . S
C160 C158 1.391 . S
C160 C161 1.400 1_565 S
C161 C155 1.491 . S
C161 C160 1.400 1_545 S
C161 C162 1.398 . S
C162 H150 0.950 . S
C162 C161 1.398 . S
C162 C163 1.391 . S
C163 H151 0.950 . S
C163 C159 1.393 . S
C163 C162 1.391 . S
H164 C172 0.950 1_655 S
H165 C177 0.950 . S
H166 C174 0.950 1_655 S
H167 C176 0.950 . S
H168 C178 0.950 . S
H169 C180 0.950 . S
H170 C182 0.950 . S
H171 C183 0.950 . S
C172 H164 0.950 1_455 S
C172 C173 1.386 . S
C172 C174 1.391 . S
C173 C172 1.386 . S
C173 C177 1.393 . S
C174 H166 0.950 1_455 S
C174 C172 1.391 . S
C174 C175 1.400 . S
C175 C174 1.400 . S
C175 C176 1.398 . S
C175 C181 1.491 . S
C176 H167 0.950 . S
C176 C175 1.398 . S
C176 C177 1.391 . S
C177 H165 0.950 . S
C177 C173 1.393 . S
C177 C176 1.391 . S
C178 H168 0.950 . S
C178 C179 1.386 . S
C178 C180 1.391 . S
C179 C178 1.386 . S
C179 C183 1.393 . S
C180 H169 0.950 . S
C180 C178 1.391 . S
C180 C181 1.400 . S
C181 C175 1.491 . S
C181 C180 1.400 . S
C181 C182 1.398 . S
C182 H170 0.950 . S
C182 C181 1.398 . S
C182 C183 1.391 . S
C183 H171 0.950 . S
C183 C179 1.393 . S
C183 C182 1.391 . S
H184 C192 0.950 . S
H185 C197 0.950 . S
H186 C194 0.950 . S
H187 C196 0.950 . S
H188 C198 0.950 . S
H189 C200 0.950 . S
H190 C202 0.950 . S
H191 C203 0.950 . S
C192 H184 0.950 . S
C192 C193 1.386 1_545 S
C192 C194 1.391 . S
C193 C192 1.386 1_565 S
C193 C197 1.393 . S
C194 H186 0.950 . S
C194 C192 1.391 . S
C194 C195 1.400 . S
C195 C194 1.400 . S
C195 C196 1.398 1_545 S
C195 C201 1.491 . S
C196 H187 0.950 . S
C196 C195 1.398 1_565 S
C196 C197 1.391 . S
C197 H185 0.950 . S
C197 C193 1.393 . S
C197 C196 1.391 . S
C198 H188 0.950 . S
C198 C199 1.386 1_565 S
C198 C200 1.391 . S
C199 C198 1.386 1_545 S
C199 C203 1.393 . S
C200 H189 0.950 . S
C200 C198 1.391 . S
C200 C201 1.400 1_565 S
C201 C195 1.491 . S
C201 C200 1.400 1_545 S
C201 C202 1.398 . S
C202 H190 0.950 . S
C202 C201 1.398 . S
C202 C203 1.391 . S
C203 H191 0.950 . S
C203 C199 1.393 . S
C203 C202 1.391 . S
H204 C212 0.950 . S
H205 C217 0.953 . S
H206 C214 0.950 . S
H207 C216 0.950 . S
H208 C218 0.950 1_655 S
H209 C220 0.950 1_655 S
H210 C222 0.950 . S
H211 C223 0.950 . S
C212 H204 0.950 . S
C212 C213 1.386 . S
C212 C214 1.391 . S
C213 C212 1.386 . S
C213 C217 1.393 . S
C214 H206 0.950 . S
C214 C212 1.391 . S
C214 C215 1.400 . S
C215 C214 1.400 . S
C215 C216 1.398 . S
C215 C221 1.491 . S
C216 H207 0.950 . S
C216 C215 1.398 . S
C216 C217 1.391 . S
C217 H205 0.953 . S
C217 C213 1.393 . S
C217 C216 1.391 . S
C218 H208 0.950 1_455 S
C218 C219 1.386 . S
C218 C220 1.391 . S
C219 C218 1.386 . S
C219 C223 1.393 . S
C220 H209 0.950 1_455 S
C220 C218 1.391 . S
C220 C221 1.400 . S
C221 C215 1.491 . S
C221 C220 1.400 . S
C221 C222 1.398 . S
C222 H210 0.950 . S
C222 C221 1.398 . S
C222 C223 1.391 . S
C223 H211 0.950 . S
C223 C219 1.393 . S
C223 C222 1.391 . S
C79 C41 1.266 . S
C73 C7 1.502 . S
C99 C61 1.512 . S
C93 C34 1.485 . S
C119 C40 1.493 . S
C113 C14 1.503 . S
C139 C62 1.546 . S
C133 C26 1.509 . S
C159 C54 1.497 . S
C153 C8 1.507 . S
C179 C47 1.531 . S
C173 C32 1.509 . S
C199 C55 1.269 . S
C193 C16 1.506 1_565 S
C213 C25 1.511 . S
C219 C48 1.553 . S
