# Generated by pormake.
# Topology zzz, (3,6)-cn, num edge types: 1
# Building blocks:
#     Node 0, Type 0, BuildingBlock: INOVEN_clean_linker_0, # of connection points: 3
#     Node 1, Type 0, BuildingBlock: INOVEN_clean_linker_0, # of connection points: 3
#     Node 2, Type 0, BuildingBlock: INOVEN_clean_linker_0, # of connection points: 3
#     Node 3, Type 0, BuildingBlock: INOVEN_clean_linker_0, # of connection points: 3
#     Node 4, Type 0, BuildingBlock: INOVEN_clean_linker_0, # of connection points: 3
#     Node 5, Type 0, BuildingBlock: INOVEN_clean_linker_0, # of connection points: 3
#     Node 6, Type 0, BuildingBlock: INOVEN_clean_linker_0, # of connection points: 3
#     Node 7, Type 0, BuildingBlock: INOVEN_clean_linker_0, # of connection points: 3
#     Node 8, Type 1, BuildingBlock: CIFDUS_clean_sbu_1, # of connection points: 6
#     Node 9, Type 1, BuildingBlock: CIFDUS_clean_sbu_1, # of connection points: 6
#     Node 10, Type 1, BuildingBlock: CIFDUS_clean_sbu_1, # of connection points: 6
#     Node 11, Type 1, BuildingBlock: CIFDUS_clean_sbu_1, # of connection points: 6
#     Edge 12, Type (0, 1), None
#     Edge 13, Type (0, 1), None
#     Edge 14, Type (0, 1), None
#     Edge 15, Type (0, 1), None
#     Edge 16, Type (0, 1), None
#     Edge 17, Type (0, 1), None
#     Edge 18, Type (0, 1), None
#     Edge 19, Type (0, 1), None
#     Edge 20, Type (0, 1), None
#     Edge 21, Type (0, 1), None
#     Edge 22, Type (0, 1), None
#     Edge 23, Type (0, 1), None
#     Edge 24, Type (0, 1), None
#     Edge 25, Type (0, 1), None
#     Edge 26, Type (0, 1), None
#     Edge 27, Type (0, 1), None
#     Edge 28, Type (0, 1), None
#     Edge 29, Type (0, 1), None
#     Edge 30, Type (0, 1), None
#     Edge 31, Type (0, 1), None
#     Edge 32, Type (0, 1), None
#     Edge 33, Type (0, 1), None
#     Edge 34, Type (0, 1), None
#     Edge 35, Type (0, 1), None
# Relax obj value: 0.120
# Max RMSD: 0.173
# Mean RMSD: 0.108
data_MOF--net-zzz--node1-CIFDUS_clean_sbu_1--node2-INOVEN_clean_linker_0--edge1-none
_symmetry_space_group_name_H-M    P1
_symmetry_Int_Tables_number       1
_symmetry_cell_setting            triclinic
loop_
_symmetry_equiv_pos_as_xyz
'x, y, z'
_cell_length_a     19.188943
_cell_length_b     19.188765
_cell_length_c     8.2099355
_cell_angle_alpha  89.999683
_cell_angle_beta   90.001343
_cell_angle_gamma 90.00114
loop_
_atom_site_label
_atom_site_type_symbol
_atom_site_fract_x
_atom_site_fract_y
_atom_site_fract_z
_atom_type_partial_charge
H0 H 0.82713 0.56328 0.32872 0.0
H1 H 1.01905 0.6706 0.2278 0.0
H2 H 0.85578 0.68086 0.88878 0.0
N3 N 0.78713 0.57377 0.00748 0.0
N4 N 0.76738 0.58907 0.86585 0.0
C5 C 0.85575 0.60133 0.25791 0.0
C6 C 0.92218 0.62659 0.31414 0.0
C7 C 0.83118 0.61982 0.09939 0.0
C8 C 0.87128 0.66786 0.01211 0.0
C9 C 0.94243 0.6656 0.04196 0.0
C10 C 0.96425 0.66209 0.20235 0.0
H11 H 0.12298 0.82894 0.32871 0.0
H12 H 1.01565 1.02086 0.22779 0.0
H13 H 1.00539 0.85758 0.88878 0.0
N14 N 0.11248 0.78894 0.00748 0.0
N15 N 0.09718 0.76919 0.86585 0.0
C16 C 1.08493 0.85756 0.25791 0.0
C17 C 1.05967 0.92398 0.31413 0.0
C18 C 1.06643 0.83299 0.09939 0.0
C19 C 1.01839 0.87308 0.0121 0.0
C20 C 1.02065 0.94423 0.04195 0.0
C21 C 1.02416 0.96605 0.20234 0.0
H22 H 0.85732 0.12479 0.32872 0.0
H23 H 0.6654 1.01745 0.22779 0.0
H24 H 0.82868 1.0072 0.88879 0.0
N25 N 0.89732 0.11429 0.00748 0.0
N26 N 0.91708 0.099 0.86586 0.0
C27 C 0.8287 0.08674 0.25791 0.0
C28 C 0.76228 1.06147 0.31414 0.0
C29 C 0.85327 1.06824 0.09939 0.0
C30 C 0.81318 1.0202 0.01211 0.0
C31 C 0.74203 1.02245 0.04196 0.0
C32 C 0.72021 1.02596 0.20234 0.0
H33 H 0.56147 0.85913 0.32872 0.0
H34 H 0.66881 0.66721 0.22781 0.0
H35 H 0.67905 0.83049 0.88879 0.0
N36 N 0.57196 0.89913 0.00749 0.0
N37 N 0.58726 0.91888 0.86586 0.0
C38 C 0.59952 0.83051 0.25792 0.0
C39 C 0.62479 0.76409 0.31415 0.0
C40 C 0.61802 0.85508 0.09939 0.0
C41 C 0.66606 0.81499 0.01211 0.0
C42 C 0.6638 0.74384 0.04197 0.0
C43 C 0.66029 0.72202 0.20236 0.0
H44 H 0.35719 0.62465 0.04119 0.0
H45 H 0.16535 0.51715 0.14201 0.0
H46 H 0.32862 0.50704 0.4811 0.0
N47 N 0.39715 0.61422 0.36244 0.0
N48 N 0.41685 0.59898 0.50414 0.0
C49 C 0.32859 0.58658 0.11198 0.0
C50 C 0.2622 0.56125 0.05572 0.0
C51 C 0.35316 0.56811 0.27052 0.0
C52 C 0.31311 0.52003 0.35777 0.0
C53 C 0.24196 0.52223 0.3279 0.0
C54 C 0.22015 0.52572 0.1675 0.0
H55 H 1.06162 0.35899 0.04119 0.0
H56 H 0.16912 0.16716 0.14203 0.0
H57 H 0.17924 0.33043 0.4811 0.0
N58 N 1.07205 0.39895 0.36245 0.0
N59 N 0.08728 0.41866 0.50415 0.0
C60 C 0.09969 0.3304 0.11198 0.0
C61 C 0.12502 0.26401 0.05573 0.0
C62 C 0.11816 0.35497 0.27052 0.0
C63 C 0.16625 0.31492 0.35778 0.0
C64 C 0.16404 0.24377 0.32791 0.0
C65 C 0.16056 0.22196 0.16751 0.0
H66 H 0.32727 1.06342 0.04119 0.0
H67 H 0.5191 0.17093 0.14202 0.0
H68 H 0.35584 0.18104 0.48109 0.0
N69 N 0.28731 1.07385 0.36244 0.0
N70 N 0.2676 0.08909 0.50414 0.0
C71 C 0.35586 0.1015 0.11198 0.0
C72 C 0.42226 0.12683 0.05572 0.0
C73 C 0.33129 0.11996 0.27052 0.0
C74 C 0.37134 0.16805 0.35777 0.0
C75 C 0.4425 0.16585 0.32791 0.0
C76 C 0.46431 0.16237 0.1675 0.0
H77 H 0.62284 0.32908 0.04118 0.0
H78 H 0.51533 0.5209 0.14201 0.0
H79 H 0.50523 0.35764 0.48109 0.0
N80 N 0.61242 0.28912 0.36244 0.0
N81 N 0.59718 0.26941 0.50414 0.0
C82 C 0.58477 0.35767 0.11197 0.0
C83 C 0.55944 0.42406 0.05571 0.0
C84 C 0.56631 0.3331 0.27052 0.0
C85 C 0.51822 0.37314 0.35777 0.0
C86 C 0.52042 0.4443 0.3279 0.0
C87 C 0.5239 0.46611 0.16749 0.0
O88 O 0.11586 0.16589 0.87222 0.0
Mn89 Mn 0.09235 0.094 0.68494 0.0
O90 O 1.06177 0.26671 0.80935 0.0
Mn91 Mn 1.00525 0.23113 0.64584 0.0
O92 O 1.06883 1.0221 0.49767 0.0
O93 O 0.18511 1.04861 0.70188 0.0
Mn94 Mn 0.17947 0.95686 0.72399 0.0
O95 O 1.04709 1.02822 0.84719 0.0
O96 O 0.12298 0.92128 0.56043 0.0
O97 O 0.1376 0.15978 0.52269 0.0
O98 O 1.05267 0.23394 0.44809 0.0
O99 O 0.26574 0.97712 0.62808 0.0
O100 O 0.13201 0.95401 0.9217 0.0
C101 C 0.94561 0.1496 0.75794 0.0
C102 C 0.10135 0.23089 0.90089 0.0
C103 C 1.08336 0.9571 0.46895 0.0
C104 C 0.23909 1.03844 0.612 0.0
C105 C 1.07025 0.97945 -0.06435 0.0
C106 C 0.11444 0.20852 0.43416 0.0
O107 O 0.99958 0.13939 0.66802 0.0
O108 O 0.91899 0.21093 0.74178 0.0
O109 O 0.65804 1.0489 0.84719 0.0
Mn110 Mn 0.59227 0.09415 0.68494 0.0
O111 O 0.73225 0.13381 0.9217 0.0
Mn112 Mn 0.7294 0.18127 0.72399 0.0
O113 O 0.52648 0.13941 0.52269 0.0
O114 O 0.54687 1.00139 0.66802 0.0
Mn115 Mn 0.45513 1.00706 0.64584 0.0
O116 O 0.52038 0.11767 0.87222 0.0
O117 O 0.45233 1.05448 0.44808 0.0
O118 O 0.66416 1.07063 0.49767 0.0
O119 O 0.76498 0.12478 0.56044 0.0
O120 O 0.47532 0.9208 0.74179 0.0
O121 O 0.41955 1.06358 0.80934 0.0
C122 C 0.64783 0.2409 0.612 0.0
C123 C 0.70681 1.07205 -0.06434 0.0
C124 C 0.47775 0.11625 0.43416 0.0
C125 C 0.53665 0.94742 0.75794 0.0
C126 C 0.45538 0.10316 0.90089 0.0
C127 C 0.72916 1.08516 0.46895 0.0
O128 O 0.63766 0.18691 0.70189 0.0
O129 O 0.70915 0.26754 0.62808 0.0
O130 O 0.63736 0.65985 0.8472 0.0
Mn131 Mn 0.59211 0.59407 0.68494 0.0
O132 O 0.55244 0.73405 0.92171 0.0
Mn133 Mn 0.50499 0.7312 0.72399 0.0
O134 O 0.54685 0.52829 0.52268 0.0
O135 O 0.68487 0.54868 0.66802 0.0
Mn136 Mn 0.6792 0.45694 0.64583 0.0
O137 O 0.56859 0.52218 0.87222 0.0
O138 O 0.63178 0.45414 0.44807 0.0
O139 O 0.61562 0.66597 0.49767 0.0
O140 O 0.56148 0.76679 0.56044 0.0
O141 O 0.76547 0.47714 0.74178 0.0
O142 O 0.62269 0.42135 0.80934 0.0
C143 C 0.44536 0.64963 0.61201 0.0
C144 C 0.6142 0.70861 -0.06433 0.0
C145 C 0.57002 0.47955 0.43414 0.0
C146 C 0.73884 0.53846 0.75793 0.0
C147 C 0.58311 0.45718 0.90088 0.0
C148 C 0.60109 0.73097 0.46896 0.0
O149 O 0.49935 0.63946 0.70189 0.0
O150 O 0.41872 0.71095 0.62809 0.0
O151 O 0.16408 0.5704 0.87221 0.0
Mn152 Mn 0.09219 0.59391 0.68494 0.0
O153 O 0.26491 0.62451 0.80934 0.0
Mn154 Mn 0.22932 0.68102 0.64583 0.0
O155 O 1.02029 0.61743 0.49767 0.0
O156 O 1.04681 0.50115 0.70189 0.0
Mn157 Mn 0.95506 0.50678 0.72399 0.0
O158 O 1.02641 0.63916 0.8472 0.0
O159 O 0.91948 0.56327 0.56043 0.0
O160 O 0.15797 0.54866 0.52268 0.0
O161 O 0.23212 0.6336 0.44808 0.0
O162 O 0.97532 0.42051 0.62809 0.0
O163 O 0.95221 0.55424 0.9217 0.0
C164 C 0.14779 0.74065 0.75793 0.0
C165 C 0.22908 0.58492 0.90088 0.0
C166 C 0.9553 0.60289 0.46896 0.0
C167 C 1.03664 0.44716 0.61201 0.0
C168 C 0.97765 0.616 -0.06434 0.0
C169 C 0.20671 0.57183 0.43415 0.0
O170 O 0.13758 0.68668 0.66801 0.0
O171 O 0.20912 0.76729 0.74177 0.0
loop_
_geom_bond_atom_site_label_1
_geom_bond_atom_site_label_2
_geom_bond_distance
_geom_bond_site_symmetry_2
_ccdc_geom_bond_type
H0 C5 0.929 . S
H1 C10 0.931 . S
H2 C8 0.930 . S
N3 N4 1.234 1_554 S
N3 C7 1.453 . S
N4 N3 1.234 1_556 S
C5 H0 0.929 . S
C5 C6 1.373 . S
C5 C7 1.368 . S
C6 C5 1.373 . S
C6 C10 1.397 . S
C7 N3 1.453 . S
C7 C5 1.368 . S
C7 C8 1.373 1_554 S
C8 H2 0.930 . S
C8 C7 1.373 1_556 S
C8 C9 1.371 . S
C9 C8 1.371 . S
C9 C10 1.378 1_556 S
C10 H1 0.931 . S
C10 C6 1.397 . S
C10 C9 1.378 1_554 S
H11 C16 0.929 . S
H12 C21 0.931 . S
H13 C19 0.930 . S
N14 N15 1.234 1_554 S
N14 C18 1.453 . S
N15 N14 1.234 1_556 S
C16 H11 0.929 . S
C16 C17 1.373 . S
C16 C18 1.368 . S
C17 C16 1.373 . S
C17 C21 1.397 . S
C18 N14 1.453 . S
C18 C16 1.368 . S
C18 C19 1.373 1_554 S
C19 H13 0.930 . S
C19 C18 1.373 1_556 S
C19 C20 1.371 . S
C20 C19 1.371 . S
C20 C21 1.378 1_556 S
C21 H12 0.931 . S
C21 C17 1.397 . S
C21 C20 1.378 1_554 S
H22 C27 0.929 . S
H23 C32 0.931 . S
H24 C30 0.930 . S
N25 N26 1.234 1_554 S
N25 C29 1.453 . S
N26 N25 1.234 1_556 S
C27 H22 0.929 . S
C27 C28 1.373 . S
C27 C29 1.368 . S
C28 C27 1.373 . S
C28 C32 1.397 . S
C29 N25 1.453 . S
C29 C27 1.368 . S
C29 C30 1.373 1_554 S
C30 H24 0.930 . S
C30 C29 1.373 1_556 S
C30 C31 1.371 . S
C31 C30 1.371 . S
C31 C32 1.378 1_556 S
C32 H23 0.931 . S
C32 C28 1.397 . S
C32 C31 1.378 1_554 S
H33 C38 0.929 . S
H34 C43 0.931 . S
H35 C41 0.930 . S
N36 N37 1.234 1_554 S
N36 C40 1.453 . S
N37 N36 1.234 1_556 S
C38 H33 0.929 . S
C38 C39 1.373 . S
C38 C40 1.368 . S
C39 C38 1.373 . S
C39 C43 1.397 . S
C40 N36 1.453 . S
C40 C38 1.368 . S
C40 C41 1.373 1_554 S
C41 H35 0.930 . S
C41 C40 1.373 1_556 S
C41 C42 1.371 . S
C42 C41 1.371 . S
C42 C43 1.378 1_556 S
C43 H34 0.931 . S
C43 C39 1.397 . S
C43 C42 1.378 1_554 S
H44 C49 0.929 . S
H45 C54 0.931 . S
H46 C52 0.930 . S
N47 N48 1.234 . S
N47 C51 1.453 . S
N48 N47 1.234 . S
C49 H44 0.929 . S
C49 C50 1.373 . S
C49 C51 1.368 . S
C50 C49 1.373 . S
C50 C54 1.397 . S
C51 N47 1.453 . S
C51 C49 1.368 . S
C51 C52 1.373 . S
C52 H46 0.930 . S
C52 C51 1.373 . S
C52 C53 1.371 . S
C53 C52 1.371 . S
C53 C54 1.383 . S
C54 H45 0.931 . S
C54 C50 1.397 . S
C54 C53 1.383 . S
H55 C60 0.929 . S
H56 C65 0.931 . S
H57 C63 0.930 . S
N58 N59 1.234 . S
N58 C62 1.453 . S
N59 N58 1.234 . S
C60 H55 0.929 . S
C60 C61 1.373 . S
C60 C62 1.368 . S
C61 C60 1.373 . S
C61 C65 1.397 . S
C62 N58 1.453 . S
C62 C60 1.368 . S
C62 C63 1.373 . S
C63 H57 0.930 . S
C63 C62 1.373 . S
C63 C64 1.371 . S
C64 C63 1.371 . S
C64 C65 1.383 . S
C65 H56 0.931 . S
C65 C61 1.397 . S
C65 C64 1.383 . S
H66 C71 0.929 . S
H67 C76 0.931 . S
H68 C74 0.930 . S
N69 N70 1.234 . S
N69 C73 1.453 . S
N70 N69 1.234 . S
C71 H66 0.929 . S
C71 C72 1.373 . S
C71 C73 1.368 . S
C72 C71 1.373 . S
C72 C76 1.397 . S
C73 N69 1.453 . S
C73 C71 1.368 . S
C73 C74 1.373 . S
C74 H68 0.930 . S
C74 C73 1.373 . S
C74 C75 1.371 . S
C75 C74 1.371 . S
C75 C76 1.383 . S
C76 H67 0.931 . S
C76 C72 1.397 . S
C76 C75 1.383 . S
H77 C82 0.929 . S
H78 C87 0.931 . S
H79 C85 0.930 . S
N80 N81 1.234 . S
N80 C84 1.453 . S
N81 N80 1.234 . S
C82 H77 0.929 . S
C82 C83 1.373 . S
C82 C84 1.368 . S
C83 C82 1.373 . S
C83 C87 1.397 . S
C84 N80 1.453 . S
C84 C82 1.368 . S
C84 C85 1.373 . S
C85 H79 0.930 . S
C85 C84 1.373 . S
C85 C86 1.371 . S
C86 C85 1.371 . S
C86 C87 1.383 . S
C87 H78 0.931 . S
C87 C83 1.397 . S
C87 C86 1.383 . S
O88 Mn89 2.163 . S
O88 C102 1.244 1_556 S
Mn89 O88 2.163 . S
Mn89 O92 2.160 1_445 S
Mn89 O93 2.221 1_545 S
Mn89 O95 2.163 1_445 S
Mn89 O97 2.160 . S
Mn89 O107 2.221 1_455 S
O90 Mn91 2.087 1_554 S
O90 C102 1.256 1_655 S
Mn91 O90 2.087 1_556 S
Mn91 O98 2.089 . S
Mn91 O107 2.290 . S
Mn91 O108 2.251 1_556 S
O92 Mn89 2.160 1_665 S
O92 C103 1.239 . S
O93 Mn89 2.221 1_565 S
O93 Mn94 2.290 . S
O93 C104 1.278 . S
Mn94 O93 2.290 . S
Mn94 O96 2.089 . S
Mn94 O99 2.251 . S
Mn94 O100 2.087 . S
O95 Mn89 2.163 1_665 S
O95 C105 1.244 1_655 S
O96 Mn94 2.089 . S
O96 C103 1.256 1_455 S
O97 Mn89 2.160 . S
O97 C106 1.239 1_455 S
O98 Mn91 2.089 . S
O98 C106 1.256 . S
O99 Mn94 2.251 . S
O99 C104 1.241 . S
O100 Mn94 2.087 . S
O100 C105 1.256 . S
C101 O107 1.278 . S
C101 O108 1.241 1_556 S
C102 O88 1.244 1_554 S
C102 O90 1.256 1_455 S
C103 O92 1.239 . S
C103 O96 1.256 1_655 S
C104 O93 1.278 . S
C104 O99 1.241 . S
C105 O95 1.244 1_455 S
C105 O100 1.256 . S
C106 O97 1.239 1_655 S
C106 O98 1.256 . S
O107 Mn89 2.221 1_655 S
O107 Mn91 2.290 . S
O107 C101 1.278 . S
O108 Mn91 2.251 1_554 S
O108 C101 1.241 1_554 S
O109 Mn110 2.163 1_565 S
O109 C123 1.244 1_565 S
Mn110 O109 2.163 1_545 S
Mn110 O113 2.160 . S
Mn110 O114 2.221 1_545 S
Mn110 O116 2.163 . S
Mn110 O118 2.160 1_545 S
Mn110 O128 2.221 . S
O111 Mn112 2.087 . S
O111 C123 1.256 . S
Mn112 O111 2.087 . S
Mn112 O119 2.089 . S
Mn112 O128 2.290 . S
Mn112 O129 2.251 . S
O113 Mn110 2.160 . S
O113 C124 1.239 1_545 S
O114 Mn110 2.221 1_565 S
O114 Mn115 2.290 . S
O114 C125 1.278 . S
Mn115 O114 2.290 . S
Mn115 O117 2.089 . S
Mn115 O120 2.251 1_556 S
Mn115 O121 2.087 1_556 S
O116 Mn110 2.163 . S
O116 C126 1.244 1_556 S
O117 Mn115 2.089 . S
O117 C124 1.256 . S
O118 Mn110 2.160 1_565 S
O118 C127 1.239 . S
O119 Mn112 2.089 . S
O119 C127 1.256 1_545 S
O120 Mn115 2.251 1_554 S
O120 C125 1.241 1_554 S
O121 Mn115 2.087 1_554 S
O121 C126 1.256 1_565 S
C122 O128 1.278 . S
C122 O129 1.241 . S
C123 O109 1.244 1_545 S
C123 O111 1.256 . S
C124 O113 1.239 1_565 S
C124 O117 1.256 . S
C125 O114 1.278 . S
C125 O120 1.241 1_556 S
C126 O116 1.244 1_554 S
C126 O121 1.256 1_545 S
C127 O118 1.239 . S
C127 O119 1.256 1_565 S
O128 Mn110 2.221 . S
O128 Mn112 2.290 . S
O128 C122 1.278 . S
O129 Mn112 2.251 . S
O129 C122 1.241 . S
O130 Mn131 2.163 . S
O130 C144 1.244 . S
Mn131 O130 2.163 . S
Mn131 O134 2.160 . S
Mn131 O135 2.221 . S
Mn131 O137 2.163 . S
Mn131 O139 2.160 . S
Mn131 O149 2.221 . S
O132 Mn133 2.087 . S
O132 C144 1.256 . S
Mn133 O132 2.087 . S
Mn133 O140 2.089 . S
Mn133 O149 2.290 . S
Mn133 O150 2.251 . S
O134 Mn131 2.160 . S
O134 C145 1.239 . S
O135 Mn131 2.221 . S
O135 Mn136 2.290 . S
O135 C146 1.278 . S
Mn136 O135 2.290 . S
Mn136 O138 2.089 . S
Mn136 O141 2.251 1_556 S
Mn136 O142 2.087 1_556 S
O137 Mn131 2.163 . S
O137 C147 1.244 1_556 S
O138 Mn136 2.089 . S
O138 C145 1.256 . S
O139 Mn131 2.160 . S
O139 C148 1.239 . S
O140 Mn133 2.089 . S
O140 C148 1.256 . S
O141 Mn136 2.251 1_554 S
O141 C146 1.241 1_554 S
O142 Mn136 2.087 1_554 S
O142 C147 1.256 . S
C143 O149 1.278 . S
C143 O150 1.241 . S
C144 O130 1.244 . S
C144 O132 1.256 . S
C145 O134 1.239 . S
C145 O138 1.256 . S
C146 O135 1.278 . S
C146 O141 1.241 1_556 S
C147 O137 1.244 1_554 S
C147 O142 1.256 . S
C148 O139 1.239 . S
C148 O140 1.256 . S
O149 Mn131 2.221 . S
O149 Mn133 2.290 . S
O149 C143 1.278 . S
O150 Mn133 2.251 . S
O150 C143 1.241 . S
O151 Mn152 2.163 . S
O151 C165 1.244 1_556 S
Mn152 O151 2.163 . S
Mn152 O155 2.160 1_455 S
Mn152 O156 2.221 1_455 S
Mn152 O158 2.163 1_455 S
Mn152 O160 2.160 . S
Mn152 O170 2.221 . S
O153 Mn154 2.087 1_554 S
O153 C165 1.256 . S
Mn154 O153 2.087 1_556 S
Mn154 O161 2.089 . S
Mn154 O170 2.290 . S
Mn154 O171 2.251 1_556 S
O155 Mn152 2.160 1_655 S
O155 C166 1.239 . S
O156 Mn152 2.221 1_655 S
O156 Mn157 2.290 . S
O156 C167 1.278 . S
Mn157 O156 2.290 . S
Mn157 O159 2.089 . S
Mn157 O162 2.251 . S
Mn157 O163 2.087 . S
O158 Mn152 2.163 1_655 S
O158 C168 1.244 . S
O159 Mn157 2.089 . S
O159 C166 1.256 . S
O160 Mn152 2.160 . S
O160 C169 1.239 . S
O161 Mn154 2.089 . S
O161 C169 1.256 . S
O162 Mn157 2.251 . S
O162 C167 1.241 . S
O163 Mn157 2.087 . S
O163 C168 1.256 . S
C164 O170 1.278 . S
C164 O171 1.241 1_556 S
C165 O151 1.244 1_554 S
C165 O153 1.256 . S
C166 O155 1.239 . S
C166 O159 1.256 . S
C167 O156 1.278 . S
C167 O162 1.241 . S
C168 O158 1.244 . S
C168 O163 1.256 . S
C169 O160 1.239 . S
C169 O161 1.256 . S
O170 Mn152 2.221 . S
O170 Mn154 2.290 . S
O170 C164 1.278 . S
O171 Mn154 2.251 1_554 S
O171 C164 1.241 1_554 S
N70 C104 1.936 1_545 S
C122 N81 1.936 . S
C143 N48 1.936 . S
C167 N59 1.936 1_655 S
C101 N26 1.591 1_545 S
N37 C125 1.592 . S
N4 C146 1.591 . S
N15 C164 1.592 1_655 S
C106 C64 1.289 1_655 S
C124 C75 1.289 1_565 S
C145 C86 1.289 . S
C53 C169 1.289 . S
C20 C105 1.291 1_655 S
C123 C31 1.290 1_545 S
C144 C42 1.291 . S
C9 C168 1.290 . S
C61 C102 1.600 . S
C72 C126 1.600 . S
C147 C83 1.600 . S
C165 C50 1.600 . S
C17 C103 1.368 . S
C127 C28 1.368 . S
C148 C39 1.368 . S
C6 C166 1.368 . S
