# Generated by pormake.
# Topology tsx, (6,3)-cn, num edge types: 1
# Building blocks:
#     Node 0, Type 0, BuildingBlock: JUFBIX_clean_sbu_0, # of connection points: 6
#     Node 1, Type 0, BuildingBlock: JUFBIX_clean_sbu_0, # of connection points: 6
#     Node 2, Type 1, BuildingBlock: CUQRIR_clean_linker_1, # of connection points: 3
#     Node 3, Type 1, BuildingBlock: CUQRIR_clean_linker_1, # of connection points: 3
#     Node 4, Type 1, BuildingBlock: CUQRIR_clean_linker_1, # of connection points: 3
#     Node 5, Type 1, BuildingBlock: CUQRIR_clean_linker_1, # of connection points: 3
#     Edge 6, Type (0, 1), BuildingBlock: AJUNOK_clean_linker_0, # of connection points: 2
#     Edge 7, Type (0, 1), BuildingBlock: AJUNOK_clean_linker_0, # of connection points: 2
#     Edge 8, Type (0, 1), BuildingBlock: AJUNOK_clean_linker_0, # of connection points: 2
#     Edge 9, Type (0, 1), BuildingBlock: AJUNOK_clean_linker_0, # of connection points: 2
#     Edge 10, Type (0, 1), BuildingBlock: AJUNOK_clean_linker_0, # of connection points: 2
#     Edge 11, Type (0, 1), BuildingBlock: AJUNOK_clean_linker_0, # of connection points: 2
#     Edge 12, Type (0, 1), BuildingBlock: AJUNOK_clean_linker_0, # of connection points: 2
#     Edge 13, Type (0, 1), BuildingBlock: AJUNOK_clean_linker_0, # of connection points: 2
#     Edge 14, Type (0, 1), BuildingBlock: AJUNOK_clean_linker_0, # of connection points: 2
#     Edge 15, Type (0, 1), BuildingBlock: AJUNOK_clean_linker_0, # of connection points: 2
#     Edge 16, Type (0, 1), BuildingBlock: AJUNOK_clean_linker_0, # of connection points: 2
#     Edge 17, Type (0, 1), BuildingBlock: AJUNOK_clean_linker_0, # of connection points: 2
# Relax obj value: 0.137
# Max RMSD: 0.164
# Mean RMSD: 0.148
data_MOF--net-tsx--node1-JUFBIX_clean_sbu_0--node2-CUQRIR_clean_linker_1--edge1-AJUNOK_clean_linker_0
_symmetry_space_group_name_H-M    P1
_symmetry_Int_Tables_number       1
_symmetry_cell_setting            triclinic
loop_
_symmetry_equiv_pos_as_xyz
'x, y, z'
_cell_length_a     13.013333
_cell_length_b     15.588782
_cell_length_c     23.715039
_cell_angle_alpha  80.387672
_cell_angle_beta   90.647571
_cell_angle_gamma 104.5221
loop_
_atom_site_label
_atom_site_type_symbol
_atom_site_fract_x
_atom_site_fract_y
_atom_site_fract_z
_atom_type_partial_charge
Co0 Co 0.17031 0.04535 -0.03379 0.0
C1 C 0.11588 0.12657 0.85967 0.0
Co2 Co 1.03992 0.11354 -0.03127 0.0
C3 C 0.28651 0.91284 0.94828 0.0
C4 C 0.38836 0.0438 0.94786 0.0
N5 N 0.28599 0.99641 0.95712 0.0
N6 N 0.38459 0.90714 0.93372 0.0
C7 C 0.44856 0.98946 0.93404 0.0
H8 H 0.21607 0.85793 0.95097 0.0
H9 H 0.4179 0.115 0.94723 0.0
C10 C 0.10158 1.03427 0.07361 0.0
N11 N 0.9234 0.1626 -0.02644 0.0
C12 C 0.90266 0.23705 0.94217 0.0
C13 C 0.8325 0.12084 0.00392 0.0
N14 N 0.80218 0.24288 0.95156 0.0
C15 C 0.75804 0.16916 -0.00992 0.0
C16 C 0.97152 0.92903 -0.03256 0.0
O17 O 0.17131 1.01477 0.04483 0.0
O18 O 1.03533 0.07503 0.049 0.0
O19 O 0.9441 1.00257 -0.03838 0.0
O20 O 0.0701 0.93193 -0.03522 0.0
O21 O 1.04882 0.15106 0.88775 0.0
H22 H 0.81942 0.05681 0.03228 0.0
H23 H 0.95827 0.28321 0.91067 0.0
O24 O 0.17159 0.07778 0.88623 0.0
O25 O 0.26417 0.15753 -0.02715 0.0
O26 O 0.13553 0.22308 -0.02024 0.0
C27 C 0.23334 0.22416 -0.01609 0.0
H28 H 0.53222 1.01057 0.92185 0.0
H29 H 0.67667 0.14983 0.00598 0.0
Co30 Co 0.64091 0.53686 0.46279 0.0
C31 C 0.58868 0.62945 0.35867 0.0
Co32 Co 0.51626 0.60911 0.4693 0.0
C33 C 0.74263 0.39651 0.44721 0.0
C34 C 0.84296 0.52927 0.42244 0.0
N35 N 0.74834 0.48391 0.44844 0.0
N36 N 0.82873 0.38669 0.42063 0.0
C37 C 0.89232 0.46954 0.40521 0.0
H38 H 0.67412 0.34168 0.46176 0.0
H39 H 0.87101 0.60167 0.41242 0.0
C40 C 0.57908 0.51942 0.57179 0.0
N41 N 0.4053 0.66334 0.47911 0.0
C42 C 0.37606 0.72998 0.44344 0.0
C43 C 0.32595 0.6331 0.51931 0.0
N44 N 0.28136 0.74119 0.45934 0.0
C45 C 0.24964 0.68027 0.50708 0.0
C46 C 0.43711 0.42835 0.46307 0.0
O47 O 0.64332 0.49768 0.54055 0.0
O48 O 0.51599 0.56554 0.54956 0.0
O49 O 0.41339 0.50288 0.46134 0.0
O50 O 0.53438 0.42881 0.45741 0.0
O51 O 0.52188 0.65228 0.38795 0.0
H52 H 0.32131 0.57753 0.55404 0.0
H53 H 0.42066 0.76677 0.4049 0.0
O54 O 0.64189 0.57762 0.38386 0.0
O55 O 0.74304 0.64289 0.47315 0.0
O56 O 0.61946 0.7136 0.48126 0.0
C57 C 0.71618 0.71064 0.48539 0.0
H58 H 0.96676 0.48566 0.38103 0.0
H59 H 0.17584 0.66985 0.53096 0.0
C60 C 0.97668 1.0195 0.37833 0.0
N61 N 1.04694 0.98828 0.35088 0.0
N62 N 0.98025 0.10601 0.35541 0.0
C63 C 0.88494 0.95892 0.41409 0.0
C64 C 1.0522 0.12434 0.31152 0.0
N65 N 0.08856 0.05182 0.30726 0.0
C66 C 0.08955 0.21336 0.27231 0.0
H67 H 0.81851 0.99107 0.41657 0.0
H68 H 0.9132 0.94229 0.45697 0.0
H69 H 0.85502 0.89595 0.39659 0.0
H70 H 0.08809 0.27005 0.29474 0.0
H71 H 1.03754 0.21509 0.23496 0.0
H72 H 0.1718 0.2223 0.25609 0.0
C73 C 0.1072 1.03224 0.55465 0.0
N74 N 0.15001 0.10231 0.58186 0.0
N75 N 1.02572 0.97213 0.58636 0.0
C76 C 0.14236 1.02538 0.49595 0.0
C77 C 1.02231 1.00727 0.6344 0.0
N78 N 0.09532 0.08711 0.63114 0.0
C79 C 0.95469 0.95894 0.68697 0.0
H80 H 0.15226 0.0905 0.46662 0.0
H81 H 0.08604 0.97252 0.47814 0.0
H82 H 0.22007 1.00811 0.49858 0.0
H83 H 1.00302 0.96277 0.72576 0.0
H84 H 0.91937 0.88723 0.68422 0.0
H85 H 0.88987 0.99192 0.69193 0.0
C86 C 0.53598 0.5517 0.88127 0.0
N87 N 0.58678 0.50885 0.85019 0.0
N88 N 0.53629 0.63414 0.85317 0.0
C89 C 0.46319 0.50661 0.93082 0.0
C90 C 0.58726 0.64023 0.80313 0.0
N91 N 0.61655 0.56335 0.8008 0.0
C92 C 0.59603 0.71615 0.7537 0.0
H93 H 0.47694 0.55 -0.03593 0.0
H94 H 0.47288 0.43844 0.94654 0.0
H95 H 0.38019 0.50068 0.91718 0.0
H96 H 0.67162 0.72774 0.72902 0.0
H97 H 0.59166 0.77893 0.76867 0.0
H98 H 0.52946 0.69778 0.72475 0.0
C99 C 0.61699 0.54801 0.05963 0.0
N100 N 0.65666 0.62056 0.085 0.0
N101 N 0.52094 0.5006 0.08359 0.0
C102 C 0.67231 0.52563 0.01066 0.0
C103 C 0.50437 0.5462 0.12476 0.0
N104 N 0.58597 0.62011 0.12535 0.0
C105 C 0.41441 0.51143 0.16888 0.0
H106 H 0.74907 0.51234 0.0247 0.0
H107 H 0.68961 0.58378 -0.02493 0.0
H108 H 0.62635 0.46512 -0.00494 0.0
H109 H 0.37189 0.44077 0.16718 0.0
H110 H 0.35694 0.55363 0.16102 0.0
H111 H 0.4445 0.51452 0.21263 0.0
C112 C 0.27727 0.3714 0.0199 0.0
C113 C 0.307 0.29358 0.01124 0.0
C114 C 0.34502 0.43656 0.04685 0.0
C115 C 0.44558 0.42692 0.0649 0.0
H116 H 0.2024 0.38318 0.00466 0.0
H117 H 0.32186 0.49758 0.05029 0.0
S118 S 0.54706 0.22541 0.0691 0.0
N119 N 0.43448 0.20276 0.03525 0.0
N120 N 0.56148 0.32719 0.08417 0.0
C121 C 0.47177 0.34639 0.06174 0.0
C122 C 0.40294 0.27953 0.03492 0.0
C123 C 0.52076 0.82437 0.92679 0.0
C124 C 0.41687 0.83324 0.91618 0.0
C125 C 0.55897 0.75901 0.90601 0.0
C126 C 0.49488 0.70052 0.87365 0.0
H127 H 0.57321 0.86906 0.95103 0.0
H128 H 0.63939 0.75427 0.91475 0.0
S129 S 0.21775 0.69267 0.83378 0.0
N130 N 0.25038 0.77593 0.87081 0.0
N131 N 0.32334 0.65214 0.83252 0.0
C132 C 0.39074 0.7067 0.86327 0.0
C133 C 0.35125 0.77327 0.88447 0.0
C134 C 0.78517 0.84797 0.00136 0.0
C135 C 0.89134 0.84471 -0.00718 0.0
C136 C 0.71097 0.77641 0.03426 0.0
C137 C 0.73897 0.69809 0.05981 0.0
H138 H 0.75919 0.90727 -0.01663 0.0
H139 H 0.63003 0.78124 0.03884 0.0
S140 S 1.00572 0.65497 0.0545 0.0
N141 N 1.02031 0.75549 0.01514 0.0
N142 N 0.88022 0.62192 0.07724 0.0
C143 C 0.84432 0.6935 0.05255 0.0
C144 C 0.92035 0.76628 0.01885 0.0
C145 C 0.64041 0.28566 0.9124 0.0
C146 C 0.74962 0.30999 0.92429 0.0
C147 C 0.58702 0.35023 0.88758 0.0
C148 C 0.64105 0.44139 0.87377 0.0
H149 H 0.59606 0.21604 0.9221 0.0
H150 H 0.5032 0.32908 0.87935 0.0
S151 S 0.92361 0.54203 0.89911 0.0
N152 N 0.90738 0.43337 0.92238 0.0
N153 N 0.80747 0.5536 0.87494 0.0
C154 C 0.74955 0.46667 0.88522 0.0
C155 C 0.80376 0.40138 0.91069 0.0
C156 C 0.89928 0.76976 0.51997 0.0
C157 C 0.79344 0.77659 0.5135 0.0
C158 C 0.97407 0.8309 0.5465 0.0
C159 C 0.94555 0.90061 0.56804 0.0
H160 H 0.92528 0.71774 0.50351 0.0
H161 H 1.05556 0.8258 0.54839 0.0
S162 S 0.67499 0.93792 0.57211 0.0
N163 N 0.66152 0.85204 0.53795 0.0
N164 N 0.8012 0.9652 0.58853 0.0
C165 C 0.83817 0.90338 0.56642 0.0
C166 C 0.76239 0.84203 0.53881 0.0
C167 C 0.84875 0.29605 0.34829 0.0
C168 C 0.84591 0.30624 0.4058 0.0
C169 C 0.88371 0.22517 0.33252 0.0
C170 C 0.92301 0.16578 0.37342 0.0
H171 H 0.82641 0.34459 0.31541 0.0
H172 H 0.88431 0.2193 0.28775 0.0
S173 S 0.91281 0.15779 0.53038 0.0
N174 N 0.86665 0.24498 0.50421 0.0
N175 N 0.94304 0.11641 0.47492 0.0
C176 C 0.91319 0.17246 0.43151 0.0
C177 C 0.87271 0.24211 0.44752 0.0
C178 C 0.38638 0.26083 0.49749 0.0
C179 C 0.35808 0.34355 0.48856 0.0
C180 C 0.32093 0.18335 0.53054 0.0
C181 C 0.22485 0.18522 0.55648 0.0
H182 H 0.46066 0.25606 0.47972 0.0
H183 H 0.3456 0.12124 0.53584 0.0
S184 S 0.11614 0.38483 0.5498 0.0
N185 N 0.22614 0.42158 0.50972 0.0
N186 N 0.10816 0.27776 0.57381 0.0
C187 C 0.1971 0.2676 0.54932 0.0
C188 C 0.26181 0.34591 0.51454 0.0
C189 C 0.11289 0.77363 0.42305 0.0
C190 C 0.2233 0.80238 0.43024 0.0
C191 C 1.05478 0.83345 0.39627 0.0
C192 C 0.10512 0.92434 0.37643 0.0
H193 H 0.07149 0.70413 0.43788 0.0
H194 H 0.97066 0.80813 0.39086 0.0
S195 S 0.39163 1.03372 0.38712 0.0
N196 N 0.37964 0.92767 0.4162 0.0
N197 N 0.2717 1.04002 0.36668 0.0
C198 C 0.2157 0.95324 0.38293 0.0
C199 C 0.2744 0.89249 0.40979 0.0
C200 C 0.19733 0.06054 0.16171 0.0
C201 C 0.10488 1.01949 0.13541 0.0
C202 C 0.19493 0.0654 0.21999 0.0
C203 C 0.10055 1.02819 0.25263 0.0
H204 H 0.26916 0.09474 0.13636 0.0
H205 H 0.26444 0.10294 0.2388 0.0
S206 S 0.8434 0.90122 0.20469 0.0
N207 N 0.92136 0.9326 0.14653 0.0
N208 N 0.91698 0.93994 0.25662 0.0
C209 C 1.01085 0.97989 0.2276 0.0
C210 C 1.01284 0.97625 0.16849 0.0
C211 C 0.21135 0.13001 0.76848 0.0
C212 C 0.12508 0.14693 0.79642 0.0
C213 C 0.20919 0.12416 0.7102 0.0
C214 C 0.12077 0.13471 0.67829 0.0
H215 H 0.2772 0.11393 0.79264 0.0
H216 H 0.2708 0.10091 0.69172 0.0
S217 S 0.8877 0.20193 0.72687 0.0
N218 N 0.95884 0.19172 0.7846 0.0
N219 N 0.95511 0.17946 0.675 0.0
C220 C 1.0415 0.16394 0.70353 0.0
C221 C 1.04339 0.17014 0.76283 0.0
C222 C 0.69252 0.54456 0.65416 0.0
C223 C 0.59235 0.50759 0.63328 0.0
C224 C 0.70301 0.55608 0.71133 0.0
C225 C 0.61405 0.52896 0.74864 0.0
H226 H 0.76109 0.57165 0.62516 0.0
H227 H 0.77865 0.59186 0.7255 0.0
S228 S 0.3388 0.41651 0.71639 0.0
N229 N 0.40576 0.43589 0.65484 0.0
N230 N 0.42616 0.45468 0.76321 0.0
C231 C 0.5159 0.48421 0.72942 0.0
C232 C 0.5047 0.47447 0.67117 0.0
C233 C 0.68904 0.63725 0.26839 0.0
C234 C 0.60395 0.65708 0.29565 0.0
C235 C 0.69248 0.63958 0.20926 0.0
C236 C 0.61113 0.66171 0.17528 0.0
H237 H 0.74922 0.61257 0.29326 0.0
H238 H 0.75178 0.61323 0.19118 0.0
S239 S 0.39076 0.74715 0.22205 0.0
N240 N 0.45049 0.72011 0.28185 0.0
N241 N 0.4589 0.7258 0.16996 0.0
C242 C 0.53607 0.69622 0.20027 0.0
C243 C 0.5315 0.69297 0.26085 0.0
loop_
_geom_bond_atom_site_label_1
_geom_bond_atom_site_label_2
_geom_bond_distance
_geom_bond_site_symmetry_2
_ccdc_geom_bond_type
Co0 N5 2.056 1_554 S
Co0 O17 2.021 . S
Co0 O20 2.062 1_455 S
Co0 O24 2.117 1_564 S
Co0 O25 2.020 1_565 S
C1 O21 1.259 1_455 S
C1 O24 1.258 . S
Co2 N11 2.058 . S
Co2 O18 2.120 . S
Co2 O19 2.019 1_545 S
Co2 O21 2.017 1_554 S
Co2 O26 2.062 1_654 S
C3 N5 1.314 1_554 S
C3 N6 1.347 . S
C3 H8 0.931 . S
C4 N5 1.379 . S
C4 C7 1.350 . S
C4 H9 0.930 . S
N5 Co0 2.056 1_556 S
N5 C3 1.314 1_556 S
N5 C4 1.379 . S
N6 C3 1.347 . S
N6 C7 1.373 1_554 S
C7 C4 1.350 . S
C7 N6 1.373 1_556 S
C7 H28 0.931 . S
H8 C3 0.931 . S
H9 C4 0.930 . S
C10 O17 1.259 1_545 S
C10 O18 1.258 1_455 S
N11 Co2 2.058 . S
N11 C12 1.316 1_554 S
N11 C13 1.375 . S
C12 N11 1.316 1_556 S
C12 N14 1.347 1_556 S
C12 H23 0.931 . S
C13 N11 1.375 . S
C13 C15 1.350 . S
C13 H22 0.930 . S
N14 C12 1.347 1_554 S
N14 C15 1.373 . S
C15 C13 1.350 . S
C15 N14 1.373 . S
C15 H29 0.931 . S
C16 O19 1.256 . S
C16 O20 1.255 . S
O17 Co0 2.021 . S
O17 C10 1.259 1_565 S
O18 Co2 2.120 . S
O18 C10 1.258 1_655 S
O19 Co2 2.019 1_565 S
O19 C16 1.256 . S
O20 Co0 2.062 1_655 S
O20 C16 1.255 . S
O21 C1 1.259 1_655 S
O21 Co2 2.017 1_556 S
H22 C13 0.930 . S
H23 C12 0.931 . S
O24 Co0 2.117 1_546 S
O24 C1 1.258 . S
O25 Co0 2.020 1_545 S
O25 C27 1.256 . S
O26 Co2 2.062 1_456 S
O26 C27 1.255 1_556 S
C27 O25 1.256 . S
C27 O26 1.255 1_554 S
H28 C7 0.931 . S
H29 C15 0.931 . S
Co30 N35 2.057 . S
Co30 O47 2.021 . S
Co30 O50 2.062 . S
Co30 O54 2.117 . S
Co30 O55 2.020 . S
C31 O51 1.259 . S
C31 O54 1.258 . S
Co32 N41 2.057 . S
Co32 O48 2.117 . S
Co32 O49 2.020 . S
Co32 O51 2.021 . S
Co32 O56 2.062 . S
C33 N35 1.316 . S
C33 N36 1.347 . S
C33 H38 0.931 . S
C34 N35 1.375 . S
C34 C37 1.350 . S
C34 H39 0.930 . S
N35 Co30 2.057 . S
N35 C33 1.316 . S
N35 C34 1.375 . S
N36 C33 1.347 . S
N36 C37 1.373 . S
C37 C34 1.350 . S
C37 N36 1.373 . S
C37 H58 0.931 . S
H38 C33 0.931 . S
H39 C34 0.930 . S
C40 O47 1.259 . S
C40 O48 1.258 . S
N41 Co32 2.057 . S
N41 C42 1.316 . S
N41 C43 1.375 . S
C42 N41 1.316 . S
C42 N44 1.347 . S
C42 H53 0.931 . S
C43 N41 1.375 . S
C43 C45 1.350 . S
C43 H52 0.930 . S
N44 C42 1.347 . S
N44 C45 1.373 . S
C45 C43 1.350 . S
C45 N44 1.373 . S
C45 H59 0.931 . S
C46 O49 1.256 . S
C46 O50 1.255 . S
O47 Co30 2.021 . S
O47 C40 1.259 . S
O48 Co32 2.117 . S
O48 C40 1.258 . S
O49 Co32 2.020 . S
O49 C46 1.256 . S
O50 Co30 2.062 . S
O50 C46 1.255 . S
O51 C31 1.259 . S
O51 Co32 2.021 . S
H52 C43 0.930 . S
H53 C42 0.931 . S
O54 Co30 2.117 . S
O54 C31 1.258 . S
O55 Co30 2.020 . S
O55 C57 1.256 . S
O56 Co32 2.062 . S
O56 C57 1.255 . S
C57 O55 1.256 . S
C57 O56 1.255 . S
H58 C37 0.931 . S
H59 C45 0.931 . S
C60 N61 1.317 1_545 S
C60 N62 1.348 1_455 S
C60 C63 1.485 1_545 S
N61 C60 1.317 1_565 S
N61 N65 1.372 . S
N62 C60 1.348 1_655 S
N62 C64 1.346 . S
C63 C60 1.485 1_565 S
C63 H67 0.960 1_455 S
C63 H68 0.961 1_565 S
C63 H69 0.960 . S
C64 N62 1.346 . S
C64 N65 1.302 1_645 S
C64 C66 1.486 . S
N65 N61 1.372 . S
N65 C64 1.302 1_465 S
C66 C64 1.486 . S
C66 H70 0.960 . S
C66 H71 0.960 . S
C66 H72 0.959 . S
H67 C63 0.960 1_655 S
H68 C63 0.961 1_545 S
H69 C63 0.960 . S
H70 C66 0.960 . S
H71 C66 0.960 . S
H72 C66 0.959 . S
C73 N74 1.317 . S
C73 N75 1.348 1_445 S
C73 C76 1.485 . S
N74 C73 1.317 . S
N74 N78 1.370 . S
N75 C73 1.348 1_665 S
N75 C77 1.346 . S
C76 C73 1.485 . S
C76 H80 0.955 1_455 S
C76 H81 0.961 . S
C76 H82 0.960 . S
C77 N75 1.346 . S
C77 N78 1.307 1_665 S
C77 C79 1.486 . S
N78 N74 1.370 . S
N78 C77 1.307 1_445 S
C79 C77 1.486 . S
C79 H83 0.960 . S
C79 H84 0.960 . S
C79 H85 0.959 . S
H80 C76 0.955 1_655 S
H81 C76 0.961 . S
H82 C76 0.960 . S
H83 C79 0.960 . S
H84 C79 0.960 . S
H85 C79 0.959 . S
C86 N87 1.317 . S
C86 N88 1.348 . S
C86 C89 1.485 1_556 S
N87 C86 1.317 . S
N87 N91 1.370 . S
N88 C86 1.348 . S
N88 C90 1.346 . S
C89 C86 1.485 1_554 S
C89 H93 0.960 . S
C89 H94 0.961 . S
C89 H95 0.960 . S
C90 N88 1.346 . S
C90 N91 1.307 . S
C90 C92 1.486 . S
N91 N87 1.370 . S
N91 C90 1.307 . S
C92 C90 1.486 . S
C92 H96 0.960 . S
C92 H97 0.960 . S
C92 H98 0.959 . S
H93 C89 0.960 . S
H94 C89 0.961 . S
H95 C89 0.960 . S
H96 C92 0.960 . S
H97 C92 0.960 . S
H98 C92 0.959 . S
C99 N100 1.317 . S
C99 N101 1.348 . S
C99 C102 1.485 1_554 S
N100 C99 1.317 . S
N100 N104 1.370 . S
N101 C99 1.348 . S
N101 C103 1.346 . S
C102 C99 1.485 1_556 S
C102 H106 0.960 . S
C102 H107 0.961 . S
C102 H108 0.960 . S
C103 N101 1.346 . S
C103 N104 1.307 . S
C103 C105 1.486 . S
N104 N100 1.370 . S
N104 C103 1.307 . S
C105 C103 1.486 . S
C105 H109 0.960 . S
C105 H110 0.960 . S
C105 H111 0.959 . S
H106 C102 0.960 . S
H107 C102 0.961 . S
H108 C102 0.960 . S
H109 C105 0.960 . S
H110 C105 0.960 . S
H111 C105 0.959 . S
C112 C113 1.369 1_556 S
C112 C114 1.419 . S
C112 H116 0.930 . S
C113 C112 1.369 1_554 S
C113 C122 1.429 . S
C114 C112 1.419 . S
C114 C115 1.363 1_556 S
C114 H117 0.929 . S
C115 C114 1.363 1_554 S
C115 C121 1.428 . S
H116 C112 0.930 . S
H117 C114 0.929 . S
S118 N119 1.613 . S
S118 N120 1.610 . S
N119 S118 1.613 . S
N119 C122 1.350 . S
N120 S118 1.610 . S
N120 C121 1.351 . S
C121 C115 1.428 . S
C121 N120 1.351 . S
C121 C122 1.434 . S
C122 C113 1.429 . S
C122 N119 1.350 . S
C122 C121 1.434 . S
C123 C124 1.369 . S
C123 C125 1.419 . S
C123 H127 0.930 . S
C124 C123 1.369 . S
C124 C133 1.429 1_554 S
C125 C123 1.419 . S
C125 C126 1.363 1_554 S
C125 H128 0.929 . S
C126 C125 1.363 1_556 S
C126 C132 1.428 . S
H127 C123 0.930 . S
H128 C125 0.929 . S
S129 N130 1.613 . S
S129 N131 1.610 . S
N130 S129 1.613 . S
N130 C133 1.350 . S
N131 S129 1.610 . S
N131 C132 1.351 . S
C132 C126 1.428 . S
C132 N131 1.351 . S
C132 C133 1.434 . S
C133 C124 1.429 1_556 S
C133 N130 1.350 . S
C133 C132 1.434 . S
C134 C135 1.369 1_556 S
C134 C136 1.419 1_556 S
C134 H138 0.930 . S
C135 C134 1.369 1_554 S
C135 C144 1.429 . S
C136 C134 1.419 1_554 S
C136 C137 1.363 . S
C136 H139 0.929 1_554 S
C137 C136 1.363 . S
C137 C143 1.428 . S
H138 C134 0.930 . S
H139 C136 0.929 1_556 S
S140 N141 1.613 . S
S140 N142 1.610 . S
N141 S140 1.613 . S
N141 C144 1.350 . S
N142 S140 1.610 . S
N142 C143 1.351 . S
C143 C137 1.428 . S
C143 N142 1.351 . S
C143 C144 1.434 . S
C144 C135 1.429 . S
C144 N141 1.350 . S
C144 C143 1.434 . S
C145 C146 1.369 . S
C145 C147 1.419 . S
C145 H149 0.930 . S
C146 C145 1.369 . S
C146 C155 1.429 1_556 S
C147 C145 1.419 . S
C147 C148 1.363 . S
C147 H150 0.929 . S
C148 C147 1.363 . S
C148 C154 1.428 . S
H149 C145 0.930 . S
H150 C147 0.929 . S
S151 N152 1.613 . S
S151 N153 1.610 . S
N152 S151 1.613 . S
N152 C155 1.350 . S
N153 S151 1.610 . S
N153 C154 1.351 1_554 S
C154 C148 1.428 . S
C154 N153 1.351 1_556 S
C154 C155 1.434 1_556 S
C155 C146 1.429 1_554 S
C155 N152 1.350 . S
C155 C154 1.434 1_554 S
C156 C157 1.369 . S
C156 C158 1.419 . S
C156 H160 0.930 . S
C157 C156 1.369 . S
C157 C166 1.429 . S
C158 C156 1.419 . S
C158 C159 1.363 . S
C158 H161 0.929 . S
C159 C158 1.363 . S
C159 C165 1.428 . S
H160 C156 0.930 . S
H161 C158 0.929 . S
S162 N163 1.613 . S
S162 N164 1.610 . S
N163 S162 1.613 . S
N163 C166 1.350 . S
N164 S162 1.610 . S
N164 C165 1.351 . S
C165 C159 1.428 . S
C165 N164 1.351 . S
C165 C166 1.434 . S
C166 C157 1.429 . S
C166 N163 1.350 . S
C166 C165 1.434 . S
C167 C168 1.369 . S
C167 C169 1.419 . S
C167 H171 0.930 . S
C168 C167 1.369 . S
C168 C177 1.429 . S
C169 C167 1.419 . S
C169 C170 1.363 . S
C169 H172 0.929 . S
C170 C169 1.363 . S
C170 C176 1.428 . S
H171 C167 0.930 . S
H172 C169 0.929 . S
S173 N174 1.613 1_455 S
S173 N175 1.610 . S
N174 S173 1.613 1_655 S
N174 C177 1.350 . S
N175 S173 1.610 . S
N175 C176 1.351 1_455 S
C176 C170 1.428 . S
C176 N175 1.351 1_655 S
C176 C177 1.434 . S
C177 C168 1.429 . S
C177 N174 1.350 . S
C177 C176 1.434 . S
C178 C179 1.369 . S
C178 C180 1.419 . S
C178 H182 0.930 . S
C179 C178 1.369 . S
C179 C188 1.429 . S
C180 C178 1.419 . S
C180 C181 1.363 . S
C180 H183 0.929 . S
C181 C180 1.363 . S
C181 C187 1.428 . S
H182 C178 0.930 . S
H183 C180 0.929 . S
S184 N185 1.613 . S
S184 N186 1.610 . S
N185 S184 1.613 . S
N185 C188 1.350 . S
N186 S184 1.610 . S
N186 C187 1.351 . S
C187 C181 1.428 . S
C187 N186 1.351 . S
C187 C188 1.434 . S
C188 C179 1.429 . S
C188 N185 1.350 . S
C188 C187 1.434 . S
C189 C190 1.369 . S
C189 C191 1.419 . S
C189 H193 0.930 . S
C190 C189 1.369 . S
C190 C199 1.429 . S
C191 C189 1.419 . S
C191 C192 1.363 . S
C191 H194 0.929 . S
C192 C191 1.363 . S
C192 C198 1.428 . S
H193 C189 0.930 . S
H194 C191 0.929 . S
S195 N196 1.613 1_545 S
S195 N197 1.610 . S
N196 S195 1.613 1_565 S
N196 C199 1.350 . S
N197 S195 1.610 . S
N197 C198 1.351 1_545 S
C198 C192 1.428 . S
C198 N197 1.351 1_565 S
C198 C199 1.434 . S
C199 C190 1.429 . S
C199 N196 1.350 . S
C199 C198 1.434 . S
C200 C201 1.369 1_545 S
C200 C202 1.419 . S
C200 H204 0.930 . S
C201 C200 1.369 1_565 S
C201 C210 1.429 1_455 S
C202 C200 1.419 . S
C202 C203 1.363 1_545 S
C202 H205 0.929 . S
C203 C202 1.363 1_565 S
C203 C209 1.428 1_455 S
H204 C200 0.930 . S
H205 C202 0.929 . S
S206 N207 1.613 . S
S206 N208 1.610 . S
N207 S206 1.613 . S
N207 C210 1.350 . S
N208 S206 1.610 . S
N208 C209 1.351 . S
C209 C203 1.428 1_655 S
C209 N208 1.351 . S
C209 C210 1.434 . S
C210 C201 1.429 1_655 S
C210 N207 1.350 . S
C210 C209 1.434 . S
C211 C212 1.369 1_565 S
C211 C213 1.419 . S
C211 H215 0.930 . S
C212 C211 1.369 1_545 S
C212 C221 1.429 . S
C213 C211 1.419 . S
C213 C214 1.363 1_565 S
C213 H216 0.929 . S
C214 C213 1.363 1_545 S
C214 C220 1.428 . S
H215 C211 0.930 . S
H216 C213 0.929 . S
S217 N218 1.613 . S
S217 N219 1.610 . S
N218 S217 1.613 . S
N218 C221 1.350 1_655 S
N219 S217 1.610 . S
N219 C220 1.351 1_655 S
C220 C214 1.428 . S
C220 N219 1.351 1_455 S
C220 C221 1.434 . S
C221 C212 1.429 . S
C221 N218 1.350 1_455 S
C221 C220 1.434 . S
C222 C223 1.369 . S
C222 C224 1.419 . S
C222 H226 0.930 . S
C223 C222 1.369 . S
C223 C232 1.429 . S
C224 C222 1.419 . S
C224 C225 1.363 . S
C224 H227 0.929 . S
C225 C224 1.363 . S
C225 C231 1.428 . S
H226 C222 0.930 . S
H227 C224 0.929 . S
S228 N229 1.613 . S
S228 N230 1.610 . S
N229 S228 1.613 . S
N229 C232 1.350 . S
N230 S228 1.610 . S
N230 C231 1.351 . S
C231 C225 1.428 . S
C231 N230 1.351 . S
C231 C232 1.434 . S
C232 C223 1.429 . S
C232 N229 1.350 . S
C232 C231 1.434 . S
C233 C234 1.369 . S
C233 C235 1.419 . S
C233 H237 0.930 . S
C234 C233 1.369 . S
C234 C243 1.429 . S
C235 C233 1.419 . S
C235 C236 1.363 . S
C235 H238 0.929 . S
C236 C235 1.363 . S
C236 C242 1.428 . S
H237 C233 0.930 . S
H238 C235 0.929 . S
S239 N240 1.613 . S
S239 N241 1.610 . S
N240 S239 1.613 . S
N240 C243 1.350 . S
N241 S239 1.610 . S
N241 C242 1.351 . S
C242 C236 1.428 . S
C242 N241 1.351 . S
C242 C243 1.434 . S
C243 C234 1.429 . S
C243 N240 1.350 . S
C243 C242 1.434 . S
C115 N101 1.446 . S
C113 C27 1.462 . S
C124 N6 1.391 . S
C126 N88 1.456 . S
C135 C16 1.496 . S
C137 N100 1.492 . S
C146 N14 1.438 1_556 S
C148 N87 1.465 . S
C157 C57 1.463 . S
C159 N75 1.450 . S
C168 N36 1.394 . S
C170 N62 1.458 . S
C181 N74 1.494 . S
C179 C46 1.496 . S
C192 N61 1.464 . S
C190 N44 1.440 . S
C201 C10 1.471 1_565 S
C203 N65 1.452 . S
C212 C1 1.558 . S
C214 N78 1.539 . S
C225 N91 1.452 . S
C223 C40 1.471 . S
C234 C31 1.560 . S
C236 N104 1.541 . S
