# Generated by pormake.
# Topology cml, (3,6)-cn, num edge types: 1
# Building blocks:
#     Node 0, Type 0, BuildingBlock: BETDIP_clean_linker_0, # of connection points: 3
#     Node 1, Type 0, BuildingBlock: BETDIP_clean_linker_0, # of connection points: 3
#     Node 2, Type 0, BuildingBlock: BETDIP_clean_linker_0, # of connection points: 3
#     Node 3, Type 0, BuildingBlock: BETDIP_clean_linker_0, # of connection points: 3
#     Node 4, Type 0, BuildingBlock: BETDIP_clean_linker_0, # of connection points: 3
#     Node 5, Type 0, BuildingBlock: BETDIP_clean_linker_0, # of connection points: 3
#     Node 6, Type 0, BuildingBlock: BETDIP_clean_linker_0, # of connection points: 3
#     Node 7, Type 0, BuildingBlock: BETDIP_clean_linker_0, # of connection points: 3
#     Node 8, Type 1, BuildingBlock: OJICUG_clean_sbu_0, # of connection points: 6
#     Node 9, Type 1, BuildingBlock: OJICUG_clean_sbu_0, # of connection points: 6
#     Node 10, Type 1, BuildingBlock: OJICUG_clean_sbu_0, # of connection points: 6
#     Node 11, Type 1, BuildingBlock: OJICUG_clean_sbu_0, # of connection points: 6
#     Edge 12, Type (0, 1), None
#     Edge 13, Type (0, 1), None
#     Edge 14, Type (0, 1), None
#     Edge 15, Type (0, 1), None
#     Edge 16, Type (0, 1), None
#     Edge 17, Type (0, 1), None
#     Edge 18, Type (0, 1), None
#     Edge 19, Type (0, 1), None
#     Edge 20, Type (0, 1), None
#     Edge 21, Type (0, 1), None
#     Edge 22, Type (0, 1), None
#     Edge 23, Type (0, 1), None
#     Edge 24, Type (0, 1), None
#     Edge 25, Type (0, 1), None
#     Edge 26, Type (0, 1), None
#     Edge 27, Type (0, 1), None
#     Edge 28, Type (0, 1), None
#     Edge 29, Type (0, 1), None
#     Edge 30, Type (0, 1), None
#     Edge 31, Type (0, 1), None
#     Edge 32, Type (0, 1), None
#     Edge 33, Type (0, 1), None
#     Edge 34, Type (0, 1), None
#     Edge 35, Type (0, 1), None
# Relax obj value: 0.006
# Max RMSD: 0.042
# Mean RMSD: 0.039
data_MOF--net-cml--node1-OJICUG_clean_sbu_0--node2-BETDIP_clean_linker_0--edge1-none
_symmetry_space_group_name_H-M    P1
_symmetry_Int_Tables_number       1
_symmetry_cell_setting            triclinic
loop_
_symmetry_equiv_pos_as_xyz
'x, y, z'
_cell_length_a     17.82513
_cell_length_b     18.41967
_cell_length_c     17.445388
_cell_angle_alpha  90.0
_cell_angle_beta   90.0
_cell_angle_gamma 90.050034
loop_
_atom_site_label
_atom_site_type_symbol
_atom_site_fract_x
_atom_site_fract_y
_atom_site_fract_z
_atom_type_partial_charge
H0 H 0.29819 0.29841 0.06647 0.0
H1 H 0.29624 0.43039 0.86117 0.0
H2 H 0.44416 0.48304 0.045 0.0
H3 H 0.2198 0.35021 0.81852 0.0
C4 C 0.19776 0.31564 0.86347 0.0
C5 C 0.31766 0.34518 0.03442 0.0
C6 C 0.3738 0.39 0.0653 0.0
C7 C 0.2869 0.36023 -0.03835 0.0
C8 C 0.31585 0.4188 0.91842 0.0
C9 C 0.372 0.46329 0.94909 0.0
C10 C 0.3983 0.4502 0.02315 0.0
N11 N 0.22756 0.31512 0.93451 0.0
H12 H 0.75237 0.67207 0.56647 0.0
H13 H 0.75432 0.5401 0.36117 0.0
H14 H 0.60639 0.48745 0.545 0.0
H15 H 0.83076 0.62028 0.31852 0.0
C16 C 0.85279 0.65484 0.36347 0.0
C17 C 0.7329 0.6253 0.53442 0.0
C18 C 0.67675 0.58048 0.5653 0.0
C19 C 0.76366 0.61025 0.46165 0.0
C20 C 0.7347 0.55168 0.41842 0.0
C21 C 0.67856 0.50719 0.44909 0.0
C22 C 0.65226 0.52029 0.52315 0.0
N23 N 0.823 0.65536 0.43451 0.0
H24 H 0.75308 0.2992 0.06605 0.0
H25 H 0.7528 0.43027 0.86014 0.0
H26 H 0.60593 0.48261 0.04516 0.0
H27 H 0.82942 0.34995 0.81725 0.0
C28 C 0.85198 0.31595 0.86237 0.0
C29 C 0.73312 0.3457 0.03395 0.0
C30 C 0.67703 0.39027 0.06509 0.0
C31 C 0.76321 0.36065 -0.03912 0.0
C32 C 0.73358 0.41883 0.91758 0.0
C33 C 0.67737 0.46307 0.94852 0.0
C34 C 0.65178 0.45007 0.02291 0.0
N35 N 0.82264 0.31585 0.93362 0.0
H36 H 0.29747 0.67129 0.56605 0.0
H37 H 0.29776 0.54021 0.36014 0.0
H38 H 0.44462 0.48787 0.54516 0.0
H39 H 0.22113 0.62053 0.31725 0.0
C40 C 0.19858 0.65454 0.36237 0.0
C41 C 0.31744 0.62478 0.53395 0.0
C42 C 0.37352 0.58022 0.56509 0.0
C43 C 0.28735 0.60983 0.46088 0.0
C44 C 0.31698 0.55166 0.41758 0.0
C45 C 0.37319 0.50742 0.44852 0.0
C46 C 0.39877 0.52041 0.52291 0.0
N47 N 0.22791 0.65464 0.43362 0.0
H48 H 0.79819 0.79841 0.06647 0.0
H49 H 0.79624 0.93039 0.86117 0.0
H50 H 0.94416 0.98304 0.045 0.0
H51 H 0.7198 0.85021 0.81852 0.0
C52 C 0.69776 0.81564 0.86347 0.0
C53 C 0.81766 0.84518 0.03442 0.0
C54 C 0.8738 0.89 0.0653 0.0
C55 C 0.7869 0.86023 -0.03835 0.0
C56 C 0.81585 0.9188 0.91842 0.0
C57 C 0.872 0.96329 0.94909 0.0
C58 C 0.8983 0.9502 0.02315 0.0
N59 N 0.72756 0.81512 0.93451 0.0
H60 H 0.25237 0.17207 0.56647 0.0
H61 H 0.25432 0.0401 0.36117 0.0
H62 H 0.10639 -0.01255 0.545 0.0
H63 H 0.33076 0.12028 0.31852 0.0
C64 C 0.35279 0.15484 0.36347 0.0
C65 C 0.2329 0.1253 0.53442 0.0
C66 C 0.17675 0.08048 0.5653 0.0
C67 C 0.26366 0.11025 0.46165 0.0
C68 C 0.23471 0.05168 0.41842 0.0
C69 C 0.17856 0.00719 0.44909 0.0
C70 C 0.15226 0.02029 0.52315 0.0
N71 N 0.323 0.15536 0.43451 0.0
H72 H 0.25308 0.7992 0.06605 0.0
H73 H 0.2528 0.93027 0.86014 0.0
H74 H 0.10593 0.98261 0.04516 0.0
H75 H 0.32942 0.84995 0.81725 0.0
C76 C 0.35198 0.81595 0.86237 0.0
C77 C 0.23312 0.8457 0.03395 0.0
C78 C 0.17703 0.89027 0.06509 0.0
C79 C 0.26321 0.86065 -0.03912 0.0
C80 C 0.23358 0.91883 0.91758 0.0
C81 C 0.17737 0.96307 0.94852 0.0
C82 C 0.15178 0.95007 0.02291 0.0
N83 N 0.32264 0.81585 0.93362 0.0
H84 H 0.79747 0.17129 0.56605 0.0
H85 H 0.79776 0.04021 0.36014 0.0
H86 H 0.94462 -0.01213 0.54516 0.0
H87 H 0.72113 0.12053 0.31725 0.0
C88 C 0.69858 0.15454 0.36237 0.0
C89 C 0.81744 0.12478 0.53395 0.0
C90 C 0.87352 0.08022 0.56509 0.0
C91 C 0.78735 0.10983 0.46088 0.0
C92 C 0.81698 0.05166 0.41758 0.0
C93 C 0.87319 0.00742 0.44852 0.0
C94 C 0.89877 0.02041 0.52291 0.0
N95 N 0.72791 0.15464 0.43362 0.0
Sc96 Sc 0.0254 0.75821 0.21648 0.0
Sc97 Sc 0.02597 0.94561 0.25796 0.0
Sc98 Sc 0.02608 0.82003 0.40864 0.0
O99 O 0.02582 0.84121 0.29421 0.0
C100 C 0.91262 0.70051 0.34591 0.0
C101 C 0.91612 0.87194 0.13563 0.0
C102 C 0.9163 0.95637 0.40099 0.0
C103 C 0.13534 0.87211 0.13573 0.0
C104 C 0.13871 0.70015 0.34497 0.0
C105 C 0.13584 0.95609 0.40127 0.0
O106 O 0.9385 0.7001 0.27791 0.0
O107 O 0.94177 0.92542 0.17339 0.0
O108 O 0.94193 0.89986 0.43346 0.0
O109 O 0.1109 0.80763 0.14443 0.0
O110 O 0.11217 0.73951 0.39817 0.0
O111 O 0.11126 0.97939 0.33759 0.0
O112 O 0.11337 0.70061 0.27676 0.0
O113 O 0.11158 0.92557 0.17477 0.0
O114 O 0.1117 0.89859 0.43302 0.0
O115 O 0.93863 0.80702 0.14562 0.0
O116 O 0.93867 0.74068 0.3987 0.0
O117 O 0.93928 0.97878 0.3363 0.0
Sc118 Sc 0.02515 0.21227 0.71648 0.0
Sc119 Sc 1.02458 0.02488 0.75796 0.0
Sc120 Sc 1.02448 0.15046 0.90864 0.0
O121 O 1.02473 0.12928 0.79421 0.0
C122 C 0.13793 0.26998 0.84591 0.0
C123 C 0.13444 0.09854 0.63563 0.0
C124 C 0.13425 0.01411 0.90099 0.0
C125 C 0.91522 0.09837 0.63573 0.0
C126 C 0.91185 0.27034 0.84497 0.0
C127 C 0.91472 0.01439 0.90127 0.0
O128 O 0.11206 0.27039 0.77791 0.0
O129 O 0.10878 0.04507 0.67339 0.0
O130 O 0.10862 0.07063 0.93346 0.0
O131 O 0.93965 0.16285 0.64443 0.0
O132 O 0.93838 0.23098 0.89816 0.0
O133 O 0.93929 -0.0089 0.83759 0.0
O134 O 0.93719 0.26987 0.77676 0.0
O135 O 0.93897 0.04492 0.67477 0.0
O136 O 0.93886 0.07189 0.93302 0.0
O137 O 0.11193 0.16346 0.64562 0.0
O138 O 0.11189 0.2298 0.8987 0.0
O139 O 0.11128 -0.00829 0.8363 0.0
Sc140 Sc 0.5254 0.25821 0.21648 0.0
Sc141 Sc 0.52597 0.44561 0.25796 0.0
Sc142 Sc 0.52608 0.32003 0.40864 0.0
O143 O 0.52582 0.34121 0.29421 0.0
C144 C 0.41262 0.20051 0.34591 0.0
C145 C 0.41612 0.37194 0.13563 0.0
C146 C 0.4163 0.45637 0.40099 0.0
C147 C 0.63534 0.37211 0.13573 0.0
C148 C 0.63871 0.20015 0.34497 0.0
C149 C 0.63584 0.45609 0.40127 0.0
O150 O 0.4385 0.2001 0.27791 0.0
O151 O 0.44177 0.42542 0.17339 0.0
O152 O 0.44193 0.39986 0.43346 0.0
O153 O 0.6109 0.30763 0.14443 0.0
O154 O 0.61217 0.23951 0.39817 0.0
O155 O 0.61126 0.47939 0.33759 0.0
O156 O 0.61337 0.20061 0.27676 0.0
O157 O 0.61158 0.42557 0.17477 0.0
O158 O 0.6117 0.39859 0.43302 0.0
O159 O 0.43863 0.30702 0.14562 0.0
O160 O 0.43867 0.24068 0.3987 0.0
O161 O 0.43928 0.47878 0.3363 0.0
Sc162 Sc 0.52515 0.71227 0.71648 0.0
Sc163 Sc 0.52458 0.52488 0.75796 0.0
Sc164 Sc 0.52448 0.65046 0.90864 0.0
O165 O 0.52473 0.62928 0.79421 0.0
C166 C 0.63793 0.76998 0.84591 0.0
C167 C 0.63444 0.59854 0.63563 0.0
C168 C 0.63425 0.51411 0.90099 0.0
C169 C 0.41522 0.59837 0.63573 0.0
C170 C 0.41185 0.77034 0.84497 0.0
C171 C 0.41472 0.51439 0.90127 0.0
O172 O 0.61206 0.77039 0.77791 0.0
O173 O 0.60878 0.54507 0.67339 0.0
O174 O 0.60862 0.57063 0.93346 0.0
O175 O 0.43965 0.66285 0.64443 0.0
O176 O 0.43838 0.73098 0.89816 0.0
O177 O 0.43929 0.4911 0.83759 0.0
O178 O 0.43719 0.76987 0.77676 0.0
O179 O 0.43897 0.54492 0.67477 0.0
O180 O 0.43886 0.57189 0.93302 0.0
O181 O 0.61193 0.66346 0.64562 0.0
O182 O 0.61189 0.7298 0.8987 0.0
O183 O 0.61128 0.49171 0.8363 0.0
loop_
_geom_bond_atom_site_label_1
_geom_bond_atom_site_label_2
_geom_bond_distance
_geom_bond_site_symmetry_2
_ccdc_geom_bond_type
H0 C5 0.930 . S
H1 C8 0.930 . S
H2 C10 0.930 . S
H3 C4 1.016 . S
C4 H3 1.016 . S
C4 N11 1.286 . S
C5 H0 0.930 . S
C5 C6 1.397 . S
C5 C7 1.361 . S
C6 C5 1.397 . S
C6 C10 1.390 . S
C7 C5 1.361 . S
C7 C8 1.393 1_554 S
C7 N11 1.413 1_554 S
C8 H1 0.930 . S
C8 C7 1.393 1_556 S
C8 C9 1.399 . S
C9 C8 1.399 . S
C9 C10 1.381 1_556 S
C10 H2 0.930 . S
C10 C6 1.390 . S
C10 C9 1.381 1_554 S
N11 C4 1.286 . S
N11 C7 1.413 1_556 S
H12 C17 0.930 . S
H13 C20 0.930 . S
H14 C22 0.930 . S
H15 C16 1.016 . S
C16 H15 1.016 . S
C16 N23 1.286 . S
C17 H12 0.930 . S
C17 C18 1.397 . S
C17 C19 1.361 . S
C18 C17 1.397 . S
C18 C22 1.390 . S
C19 C17 1.361 . S
C19 C20 1.393 . S
C19 N23 1.413 . S
C20 H13 0.930 . S
C20 C19 1.393 . S
C20 C21 1.399 . S
C21 C20 1.399 . S
C21 C22 1.381 . S
C22 H14 0.930 . S
C22 C18 1.390 . S
C22 C21 1.381 . S
N23 C16 1.286 . S
N23 C19 1.413 . S
H24 C29 0.930 . S
H25 C32 0.930 . S
H26 C34 0.930 . S
H27 C28 1.016 . S
C28 H27 1.016 . S
C28 N35 1.286 1_556 S
C29 H24 0.930 . S
C29 C30 1.397 . S
C29 C31 1.361 . S
C30 C29 1.397 . S
C30 C34 1.390 . S
C31 C29 1.361 . S
C31 C32 1.393 1_554 S
C31 N35 1.413 . S
C32 H25 0.930 . S
C32 C31 1.393 1_556 S
C32 C33 1.399 . S
C33 C32 1.399 . S
C33 C34 1.381 1_556 S
C34 H26 0.930 . S
C34 C30 1.390 . S
C34 C33 1.381 1_554 S
N35 C28 1.286 1_554 S
N35 C31 1.413 . S
H36 C41 0.930 . S
H37 C44 0.930 . S
H38 C46 0.930 . S
H39 C40 1.016 . S
C40 H39 1.016 . S
C40 N47 1.286 . S
C41 H36 0.930 . S
C41 C42 1.397 . S
C41 C43 1.361 . S
C42 C41 1.397 . S
C42 C46 1.390 . S
C43 C41 1.361 . S
C43 C44 1.393 . S
C43 N47 1.413 . S
C44 H37 0.930 . S
C44 C43 1.393 . S
C44 C45 1.399 . S
C45 C44 1.399 . S
C45 C46 1.381 . S
C46 H38 0.930 . S
C46 C42 1.390 . S
C46 C45 1.381 . S
N47 C40 1.286 . S
N47 C43 1.413 . S
H48 C53 0.930 . S
H49 C56 0.930 . S
H50 C58 0.930 1_545 S
H51 C52 1.016 . S
C52 H51 1.016 . S
C52 N59 1.286 . S
C53 H48 0.930 . S
C53 C54 1.397 . S
C53 C55 1.361 . S
C54 C53 1.397 . S
C54 C58 1.390 . S
C55 C53 1.361 . S
C55 C56 1.393 1_554 S
C55 N59 1.413 1_554 S
C56 H49 0.930 . S
C56 C55 1.393 1_556 S
C56 C57 1.399 . S
C57 C56 1.399 . S
C57 C58 1.381 1_556 S
C58 H50 0.930 1_565 S
C58 C54 1.390 . S
C58 C57 1.381 1_554 S
N59 C52 1.286 . S
N59 C55 1.413 1_556 S
H60 C65 0.930 . S
H61 C68 0.930 . S
H62 C70 0.930 1_565 S
H63 C64 1.016 . S
C64 H63 1.016 . S
C64 N71 1.286 . S
C65 H60 0.930 . S
C65 C66 1.397 . S
C65 C67 1.361 . S
C66 C65 1.397 . S
C66 C70 1.390 . S
C67 C65 1.361 . S
C67 C68 1.393 . S
C67 N71 1.413 . S
C68 H61 0.930 . S
C68 C67 1.393 . S
C68 C69 1.399 . S
C69 C68 1.399 . S
C69 C70 1.381 . S
C70 H62 0.930 1_545 S
C70 C66 1.390 . S
C70 C69 1.381 . S
N71 C64 1.286 . S
N71 C67 1.413 . S
H72 C77 0.930 . S
H73 C80 0.930 . S
H74 C82 0.930 . S
H75 C76 1.016 . S
C76 H75 1.016 . S
C76 N83 1.286 1_556 S
C77 H72 0.930 . S
C77 C78 1.397 . S
C77 C79 1.361 . S
C78 C77 1.397 . S
C78 C82 1.390 . S
C79 C77 1.361 . S
C79 C80 1.393 1_554 S
C79 N83 1.413 . S
C80 H73 0.930 . S
C80 C79 1.393 1_556 S
C80 C81 1.399 . S
C81 C80 1.399 . S
C81 C82 1.381 1_556 S
C82 H74 0.930 . S
C82 C78 1.390 . S
C82 C81 1.381 1_554 S
N83 C76 1.286 1_554 S
N83 C79 1.413 . S
H84 C89 0.930 . S
H85 C92 0.930 . S
H86 C94 0.930 . S
H87 C88 1.016 . S
C88 H87 1.016 . S
C88 N95 1.286 . S
C89 H84 0.930 . S
C89 C90 1.397 . S
C89 C91 1.361 . S
C90 C89 1.397 . S
C90 C94 1.390 . S
C91 C89 1.361 . S
C91 C92 1.393 . S
C91 N95 1.413 . S
C92 H85 0.930 . S
C92 C91 1.393 . S
C92 C93 1.399 . S
C93 C92 1.399 . S
C93 C94 1.381 . S
C94 H86 0.930 . S
C94 C90 1.390 . S
C94 C93 1.381 . S
N95 C88 1.286 . S
N95 C91 1.413 . S
Sc96 O99 2.025 . S
Sc96 O106 2.104 1_455 S
Sc96 O109 2.106 . S
Sc96 O112 2.106 . S
Sc96 O115 2.104 1_455 S
Sc97 O99 2.025 . S
Sc97 O107 2.104 1_455 S
Sc97 O111 2.106 1_565 S
Sc97 O113 2.106 . S
Sc97 O117 2.104 1_465 S
Sc98 O99 2.025 . S
Sc98 O108 2.104 1_455 S
Sc98 O110 2.106 . S
Sc98 O114 2.106 . S
Sc98 O116 2.104 1_455 S
O99 Sc96 2.025 . S
O99 Sc97 2.025 . S
O99 Sc98 2.025 . S
C100 O106 1.268 . S
C100 O116 1.268 . S
C101 O107 1.268 . S
C101 O115 1.268 . S
C102 O108 1.268 1_545 S
C102 O117 1.268 . S
C103 O109 1.268 . S
C103 O113 1.268 . S
C104 O110 1.268 . S
C104 O112 1.268 . S
C105 O111 1.268 . S
C105 O114 1.268 1_545 S
O106 Sc96 2.104 1_655 S
O106 C100 1.268 . S
O107 Sc97 2.104 1_655 S
O107 C101 1.268 . S
O108 Sc98 2.104 1_655 S
O108 C102 1.268 1_565 S
O109 Sc96 2.106 . S
O109 C103 1.268 . S
O110 Sc98 2.106 . S
O110 C104 1.268 . S
O111 Sc97 2.106 1_545 S
O111 C105 1.268 . S
O112 Sc96 2.106 . S
O112 C104 1.268 . S
O113 Sc97 2.106 . S
O113 C103 1.268 . S
O114 Sc98 2.106 . S
O114 C105 1.268 1_565 S
O115 Sc96 2.104 1_655 S
O115 C101 1.268 . S
O116 Sc98 2.104 1_655 S
O116 C100 1.268 . S
O117 Sc97 2.104 1_645 S
O117 C102 1.268 . S
Sc118 O121 2.025 . S
Sc118 O128 2.106 . S
Sc118 O131 2.104 1_455 S
Sc118 O134 2.104 1_455 S
Sc118 O137 2.106 . S
Sc119 O121 2.025 . S
Sc119 O129 2.106 . S
Sc119 O133 2.104 1_445 S
Sc119 O135 2.104 1_455 S
Sc119 O139 2.106 1_545 S
Sc120 O121 2.025 . S
Sc120 O130 2.106 . S
Sc120 O132 2.104 1_455 S
Sc120 O136 2.104 1_455 S
Sc120 O138 2.106 . S
O121 Sc118 2.025 . S
O121 Sc119 2.025 . S
O121 Sc120 2.025 . S
C122 O128 1.268 . S
C122 O138 1.268 . S
C123 O129 1.268 . S
C123 O137 1.268 . S
C124 O130 1.268 1_565 S
C124 O139 1.268 . S
C125 O131 1.268 . S
C125 O135 1.268 . S
C126 O132 1.268 . S
C126 O134 1.268 . S
C127 O133 1.268 . S
C127 O136 1.268 1_565 S
O128 Sc118 2.106 . S
O128 C122 1.268 . S
O129 Sc119 2.106 . S
O129 C123 1.268 . S
O130 Sc120 2.106 . S
O130 C124 1.268 1_545 S
O131 Sc118 2.104 1_655 S
O131 C125 1.268 . S
O132 Sc120 2.104 1_655 S
O132 C126 1.268 . S
O133 Sc119 2.104 1_665 S
O133 C127 1.268 . S
O134 Sc118 2.104 1_655 S
O134 C126 1.268 . S
O135 Sc119 2.104 1_655 S
O135 C125 1.268 . S
O136 Sc120 2.104 1_655 S
O136 C127 1.268 1_545 S
O137 Sc118 2.106 . S
O137 C123 1.268 . S
O138 Sc120 2.106 . S
O138 C122 1.268 . S
O139 Sc119 2.106 1_565 S
O139 C124 1.268 . S
Sc140 O143 2.025 . S
Sc140 O150 2.105 . S
Sc140 O153 2.105 . S
Sc140 O156 2.105 . S
Sc140 O159 2.105 . S
Sc141 O143 2.025 . S
Sc141 O151 2.105 . S
Sc141 O155 2.105 . S
Sc141 O157 2.105 . S
Sc141 O161 2.105 . S
Sc142 O143 2.025 . S
Sc142 O152 2.105 . S
Sc142 O154 2.105 . S
Sc142 O158 2.105 . S
Sc142 O160 2.105 . S
O143 Sc140 2.025 . S
O143 Sc141 2.025 . S
O143 Sc142 2.025 . S
C144 O150 1.268 . S
C144 O160 1.268 . S
C145 O151 1.268 . S
C145 O159 1.268 . S
C146 O152 1.268 . S
C146 O161 1.268 . S
C147 O153 1.268 . S
C147 O157 1.268 . S
C148 O154 1.268 . S
C148 O156 1.268 . S
C149 O155 1.268 . S
C149 O158 1.268 . S
O150 Sc140 2.105 . S
O150 C144 1.268 . S
O151 Sc141 2.105 . S
O151 C145 1.268 . S
O152 Sc142 2.105 . S
O152 C146 1.268 . S
O153 Sc140 2.105 . S
O153 C147 1.268 . S
O154 Sc142 2.105 . S
O154 C148 1.268 . S
O155 Sc141 2.105 . S
O155 C149 1.268 . S
O156 Sc140 2.105 . S
O156 C148 1.268 . S
O157 Sc141 2.105 . S
O157 C147 1.268 . S
O158 Sc142 2.105 . S
O158 C149 1.268 . S
O159 Sc140 2.105 . S
O159 C145 1.268 . S
O160 Sc142 2.105 . S
O160 C144 1.268 . S
O161 Sc141 2.105 . S
O161 C146 1.268 . S
Sc162 O165 2.025 . S
Sc162 O172 2.105 . S
Sc162 O175 2.105 . S
Sc162 O178 2.105 . S
Sc162 O181 2.105 . S
Sc163 O165 2.025 . S
Sc163 O173 2.105 . S
Sc163 O177 2.105 . S
Sc163 O179 2.105 . S
Sc163 O183 2.105 . S
Sc164 O165 2.025 . S
Sc164 O174 2.105 . S
Sc164 O176 2.105 . S
Sc164 O180 2.105 . S
Sc164 O182 2.105 . S
O165 Sc162 2.025 . S
O165 Sc163 2.025 . S
O165 Sc164 2.025 . S
C166 O172 1.268 . S
C166 O182 1.268 . S
C167 O173 1.268 . S
C167 O181 1.268 . S
C168 O174 1.268 . S
C168 O183 1.268 . S
C169 O175 1.268 . S
C169 O179 1.268 . S
C170 O176 1.268 . S
C170 O178 1.268 . S
C171 O177 1.268 . S
C171 O180 1.268 . S
O172 Sc162 2.105 . S
O172 C166 1.268 . S
O173 Sc163 2.105 . S
O173 C167 1.268 . S
O174 Sc164 2.105 . S
O174 C168 1.268 . S
O175 Sc162 2.105 . S
O175 C169 1.268 . S
O176 Sc164 2.105 . S
O176 C170 1.268 . S
O177 Sc163 2.105 . S
O177 C171 1.268 . S
O178 Sc162 2.105 . S
O178 C170 1.268 . S
O179 Sc163 2.105 . S
O179 C169 1.268 . S
O180 Sc164 2.105 . S
O180 C171 1.268 . S
O181 Sc162 2.105 . S
O181 C167 1.268 . S
O182 Sc164 2.105 . S
O182 C166 1.268 . S
O183 Sc163 2.105 . S
O183 C168 1.268 . S
C4 C122 1.533 . S
C100 C16 1.533 . S
C126 C28 1.515 . S
C104 C40 1.515 . S
C166 C52 1.533 . S
C144 C64 1.533 . S
C76 C170 1.515 . S
C148 C88 1.515 . S
C9 C171 1.550 . S
C149 C21 1.550 . S
C33 C168 1.581 . S
C45 C146 1.581 . S
C127 C57 1.550 . S
C69 C105 1.550 . S
C124 C81 1.581 . S
C102 C93 1.581 . S
C145 C6 1.464 . S
C167 C18 1.464 . S
C30 C147 1.516 . S
C169 C42 1.516 . S
C101 C54 1.464 . S
C66 C123 1.464 . S
C78 C103 1.516 . S
C90 C125 1.516 . S
