# Generated by pormake.
# Topology sit, (3,6)-cn, num edge types: 1
# Building blocks:
#     Node 0, Type 0, BuildingBlock: QEWDON_clean_linker_0, # of connection points: 3
#     Node 1, Type 0, BuildingBlock: QEWDON_clean_linker_0, # of connection points: 3
#     Node 2, Type 0, BuildingBlock: QEWDON_clean_linker_0, # of connection points: 3
#     Node 3, Type 0, BuildingBlock: QEWDON_clean_linker_0, # of connection points: 3
#     Node 4, Type 1, BuildingBlock: MIDCAF_clean_sbu_0, # of connection points: 6
#     Node 5, Type 1, BuildingBlock: MIDCAF_clean_sbu_0, # of connection points: 6
#     Edge 6, Type (0, 1), None
#     Edge 7, Type (0, 1), None
#     Edge 8, Type (0, 1), None
#     Edge 9, Type (0, 1), None
#     Edge 10, Type (0, 1), None
#     Edge 11, Type (0, 1), None
#     Edge 12, Type (0, 1), None
#     Edge 13, Type (0, 1), None
#     Edge 14, Type (0, 1), None
#     Edge 15, Type (0, 1), None
#     Edge 16, Type (0, 1), None
#     Edge 17, Type (0, 1), None
# Relax obj value: 0.076
# Max RMSD: 0.193
# Mean RMSD: 0.133
data_MOF--net-sit--node1-MIDCAF_clean_sbu_0--node2-QEWDON_clean_linker_0--edge1-none
_symmetry_space_group_name_H-M    P1
_symmetry_Int_Tables_number       1
_symmetry_cell_setting            triclinic
loop_
_symmetry_equiv_pos_as_xyz
'x, y, z'
_cell_length_a     9.4974028
_cell_length_b     15.645728
_cell_length_c     21.196011
_cell_angle_alpha  90.487788
_cell_angle_beta   86.001674
_cell_angle_gamma 80.552752
loop_
_atom_site_label
_atom_site_type_symbol
_atom_site_fract_x
_atom_site_fract_y
_atom_site_fract_z
_atom_type_partial_charge
H0 H 0.27633 0.31149 0.0014 0.0
C1 C 0.17403 0.33695 -0.01675 0.0
C2 C 0.16786 0.39826 0.93529 0.0
C3 C 0.05352 0.30069 0.00283 0.0
H4 H 0.03717 0.4627 0.86535 0.0
C5 C 0.03793 0.42517 0.90789 0.0
C6 C 0.9146 0.39201 0.92883 0.0
C7 C 0.92325 0.32946 -0.02356 0.0
C8 C 0.07388 0.22071 0.03985 0.0
H9 H 0.83161 0.29841 -0.01059 0.0
C10 C 0.03226 0.22134 0.10476 0.0
C11 C 0.06643 0.14578 0.1403 0.0
C12 C 0.14661 0.14397 0.01015 0.0
H13 H 0.17977 0.14254 -0.03988 0.0
C14 C 0.18061 0.06924 0.04497 0.0
H15 H -0.02324 0.28088 0.12755 0.0
C16 C 0.14319 0.07043 0.10976 0.0
H17 H 0.17676 1.01258 0.136 0.0
H18 H 0.23888 1.01069 0.02194 0.0
H19 H 0.15316 0.75856 0.00125 0.0
C20 C 0.06469 0.73045 -0.01502 0.0
C21 C 0.08915 0.67059 0.93417 0.0
C22 C 0.92517 0.7616 0.00993 0.0
H23 H -0.01027 0.60392 0.86491 0.0
C24 C -0.02672 0.64019 0.90918 0.0
C25 C 0.83365 0.66781 0.93557 0.0
C26 C 0.8105 0.72847 -0.014 0.0
C27 C 0.89766 0.83878 0.05261 0.0
H28 H 0.70189 0.75437 0.00386 0.0
C29 C -0.03133 0.84104 0.10855 0.0
C30 C 0.94334 0.91587 0.14784 0.0
C31 C 0.80335 0.91245 0.0356 0.0
H32 H 0.7495 0.91273 -0.00784 0.0
C33 C 0.77922 0.98691 0.0739 0.0
H34 H 0.04101 0.78416 0.12191 0.0
C35 C 0.84751 0.98853 0.12986 0.0
H36 H 0.82212 0.04616 0.1598 0.0
H37 H 0.70596 0.04327 0.06055 0.0
H38 H 0.7764 0.81147 0.5014 0.0
C39 C 0.6741 0.83693 0.48324 0.0
C40 C 0.66794 0.89824 0.43528 0.0
C41 C 0.55359 0.80066 0.50283 0.0
H42 H 0.53726 0.96267 0.36533 0.0
C43 C 0.53802 0.92514 0.40788 0.0
C44 C 0.41468 0.89199 0.42882 0.0
C45 C 0.42332 0.82944 0.47643 0.0
C46 C 0.57394 0.7207 0.53985 0.0
H47 H 0.33168 0.79839 0.4894 0.0
C48 C 0.53227 0.72133 0.60476 0.0
C49 C 0.56643 0.64578 0.6403 0.0
C50 C 0.64671 0.64395 0.51016 0.0
H51 H 0.6799 0.64252 0.46014 0.0
C52 C 0.68069 0.56923 0.54499 0.0
H53 H 0.47674 0.78088 0.62754 0.0
C54 C 0.64322 0.57043 0.60978 0.0
H55 H 0.67678 0.51258 0.63602 0.0
H56 H 0.73898 0.51068 0.52197 0.0
H57 H 0.65323 0.25854 0.50126 0.0
C58 C 0.56476 0.23044 0.48498 0.0
C59 C 0.58923 0.17057 0.43418 0.0
C60 C 0.42524 0.26158 0.50992 0.0
H61 H 0.48982 0.10389 0.36492 0.0
C62 C 0.47337 0.14016 0.40918 0.0
C63 C 0.33373 0.16778 0.43557 0.0
C64 C 0.31057 0.22845 0.486 0.0
C65 C 0.39772 0.33877 0.55261 0.0
H66 H 0.20196 0.25435 0.50386 0.0
C67 C 0.46869 0.34104 0.60855 0.0
C68 C 0.44334 0.41587 0.64783 0.0
C69 C 0.30343 0.41244 0.53557 0.0
H70 H 0.24961 0.41272 0.49213 0.0
C71 C 0.27928 0.48691 0.57387 0.0
H72 H 0.54101 0.28415 0.62193 0.0
C73 C 0.34753 0.48853 0.62985 0.0
H74 H 0.32212 0.54616 0.65978 0.0
H75 H 0.20603 0.54326 0.56051 0.0
Zn76 Zn -0.03329 0.20502 0.33279 0.0
Zn77 Zn 0.0633 0.86106 0.32965 0.0
Zn78 Zn 0.01328 1.03238 0.33854 0.0
C79 C 0.00268 0.91587 0.21062 0.0
C80 C 0.80323 0.91347 0.40298 0.0
O81 O 0.19137 0.07535 0.38573 0.0
O82 O 0.12478 0.21806 0.38612 0.0
C83 C 0.02969 0.14645 0.20944 0.0
O84 O -0.00077 0.98821 0.24081 0.0
O85 O 0.03953 0.84487 0.23763 0.0
O86 O 0.89454 0.84766 0.38645 0.0
O87 O 0.82557 0.99003 0.38824 0.0
O88 O -0.00186 0.21787 0.23947 0.0
O89 O 0.03355 0.07458 0.23924 0.0
O90 O 0.80462 0.0816 0.39015 0.0
O91 O 0.77293 0.22354 0.37568 0.0
C92 C 0.72907 0.15764 0.39852 0.0
O93 O 0.21372 0.98236 0.38583 0.0
O94 O 0.24891 0.8403 0.36787 0.0
C95 C 0.21044 0.15226 0.40137 0.0
C96 C 0.28707 0.9061 0.39206 0.0
Zn97 Zn 0.46664 0.70504 0.83279 0.0
Zn98 Zn 0.56322 0.36107 0.82966 0.0
Zn99 Zn 0.51321 0.5324 0.83854 0.0
C100 C 0.50264 0.41588 0.71063 0.0
C101 C 0.30315 0.41349 0.90299 0.0
O102 O 0.69129 0.57537 0.88574 0.0
O103 O 0.62469 0.71808 0.88612 0.0
C104 C 0.52965 0.64646 0.70944 0.0
O105 O 0.49918 0.48822 0.74081 0.0
O106 O 0.53948 0.34488 0.73764 0.0
O107 O 0.39446 0.34769 0.88646 0.0
O108 O 0.32549 0.49005 0.88825 0.0
O109 O 0.49809 0.71787 0.73947 0.0
O110 O 0.5335 0.57458 0.73924 0.0
O111 O 0.30454 0.58163 0.89015 0.0
O112 O 0.27284 0.72356 0.87567 0.0
C113 C 0.22899 0.65766 0.89852 0.0
O114 O 0.71364 0.48238 0.88584 0.0
O115 O 0.74882 0.34032 0.86788 0.0
C116 C 0.71036 0.65229 0.90137 0.0
C117 C 0.78698 0.40612 0.89208 0.0
loop_
_geom_bond_atom_site_label_1
_geom_bond_atom_site_label_2
_geom_bond_distance
_geom_bond_site_symmetry_2
_ccdc_geom_bond_type
H0 C1 0.949 . S
C1 H0 0.949 . S
C1 C2 1.395 1_554 S
C1 C3 1.391 . S
C2 C1 1.395 1_556 S
C2 C5 1.390 . S
C3 C1 1.391 . S
C3 C7 1.391 1_455 S
C3 C8 1.491 . S
H4 C5 0.950 . S
C5 C2 1.390 . S
C5 H4 0.950 . S
C5 C6 1.378 . S
C6 C5 1.378 . S
C6 C7 1.398 1_456 S
C7 C3 1.391 1_655 S
C7 C6 1.398 1_654 S
C7 H9 0.959 . S
C8 C3 1.491 . S
C8 C10 1.382 . S
C8 C12 1.404 . S
H9 C7 0.959 . S
C10 C8 1.382 . S
C10 C11 1.390 . S
C10 H15 0.949 . S
C11 C10 1.390 . S
C11 C16 1.399 . S
C12 C8 1.404 . S
C12 H13 0.950 1_455 S
C12 C14 1.375 1_455 S
H13 C12 0.950 1_655 S
C14 C12 1.375 1_655 S
C14 C16 1.382 1_655 S
C14 H18 0.950 . S
H15 C10 0.949 . S
C16 C11 1.399 . S
C16 C14 1.382 1_455 S
C16 H17 0.952 . S
H17 C16 0.952 . S
H18 C14 0.950 . S
H19 C20 0.949 . S
C20 H19 0.949 . S
C20 C21 1.395 1_554 S
C20 C22 1.391 1_455 S
C21 C20 1.395 1_556 S
C21 C24 1.390 . S
C22 C20 1.391 1_655 S
C22 C26 1.387 . S
C22 C27 1.491 . S
H23 C24 0.950 . S
C24 C21 1.390 . S
C24 H23 0.950 . S
C24 C25 1.378 1_455 S
C25 C24 1.378 1_655 S
C25 C26 1.409 1_556 S
C26 C22 1.387 . S
C26 C25 1.409 1_554 S
C26 H28 0.951 . S
C27 C22 1.491 . S
C27 C29 1.382 . S
C27 C31 1.404 . S
H28 C26 0.951 . S
C29 C27 1.382 . S
C29 C30 1.390 . S
C29 H34 0.949 1_655 S
C30 C29 1.390 . S
C30 C35 1.399 . S
C31 C27 1.404 . S
C31 H32 0.950 . S
C31 C33 1.375 . S
H32 C31 0.950 . S
C33 C31 1.375 . S
C33 C35 1.382 . S
C33 H37 0.950 . S
H34 C29 0.949 1_455 S
C35 C30 1.399 . S
C35 C33 1.382 . S
C35 H36 0.952 . S
H36 C35 0.952 . S
H37 C33 0.950 . S
H38 C39 0.949 . S
C39 H38 0.949 . S
C39 C40 1.395 . S
C39 C41 1.391 . S
C40 C39 1.395 . S
C40 C43 1.390 . S
C41 C39 1.391 . S
C41 C45 1.387 . S
C41 C46 1.491 . S
H42 C43 0.950 . S
C43 C40 1.390 . S
C43 H42 0.950 . S
C43 C44 1.378 . S
C44 C43 1.378 . S
C44 C45 1.409 . S
C45 C41 1.387 . S
C45 C44 1.409 . S
C45 H47 0.951 . S
C46 C41 1.491 . S
C46 C48 1.382 . S
C46 C50 1.404 . S
H47 C45 0.951 . S
C48 C46 1.382 . S
C48 C49 1.390 . S
C48 H53 0.949 . S
C49 C48 1.390 . S
C49 C54 1.399 . S
C50 C46 1.404 . S
C50 H51 0.950 . S
C50 C52 1.375 . S
H51 C50 0.950 . S
C52 C50 1.375 . S
C52 C54 1.382 . S
C52 H56 0.950 . S
H53 C48 0.949 . S
C54 C49 1.399 . S
C54 C52 1.382 . S
C54 H55 0.952 . S
H55 C54 0.952 . S
H56 C52 0.950 . S
H57 C58 0.949 . S
C58 H57 0.949 . S
C58 C59 1.395 . S
C58 C60 1.391 . S
C59 C58 1.395 . S
C59 C62 1.390 . S
C60 C58 1.391 . S
C60 C64 1.387 . S
C60 C65 1.491 . S
H61 C62 0.950 . S
C62 C59 1.390 . S
C62 H61 0.950 . S
C62 C63 1.378 . S
C63 C62 1.378 . S
C63 C64 1.409 . S
C64 C60 1.387 . S
C64 C63 1.409 . S
C64 H66 0.951 . S
C65 C60 1.491 . S
C65 C67 1.382 . S
C65 C69 1.404 . S
H66 C64 0.951 . S
C67 C65 1.382 . S
C67 C68 1.390 . S
C67 H72 0.949 . S
C68 C67 1.390 . S
C68 C73 1.399 . S
C69 C65 1.404 . S
C69 H70 0.950 . S
C69 C71 1.375 . S
H70 C69 0.950 . S
C71 C69 1.375 . S
C71 C73 1.382 . S
C71 H75 0.950 . S
H72 C67 0.949 . S
C73 C68 1.399 . S
C73 C71 1.382 . S
C73 H74 0.952 . S
H74 C73 0.952 . S
H75 C71 0.950 . S
Zn76 O82 1.920 . S
Zn76 O88 1.898 . S
Zn76 O91 1.905 1_455 S
Zn77 O85 1.905 . S
Zn77 O86 1.898 1_455 S
Zn77 O94 1.920 . S
Zn78 O81 2.080 . S
Zn78 O84 2.114 1_445 S
Zn78 O87 2.120 1_445 S
Zn78 O89 2.120 . S
Zn78 O90 2.114 1_455 S
Zn78 O93 2.080 1_545 S
C79 O84 1.166 1_455 S
C79 O85 1.182 . S
C80 O86 1.167 . S
C80 O87 1.299 . S
O81 Zn78 2.080 . S
O81 C95 1.305 . S
O82 Zn76 1.920 . S
O82 C95 1.234 . S
C83 O88 1.167 . S
C83 O89 1.299 . S
O84 Zn78 2.114 1_665 S
O84 C79 1.166 1_655 S
O85 Zn77 1.905 . S
O85 C79 1.182 . S
O86 Zn77 1.898 1_655 S
O86 C80 1.167 . S
O87 Zn78 2.120 1_665 S
O87 C80 1.299 . S
O88 Zn76 1.898 . S
O88 C83 1.167 . S
O89 Zn78 2.120 . S
O89 C83 1.299 . S
O90 Zn78 2.114 1_655 S
O90 C92 1.166 . S
O91 Zn76 1.905 1_655 S
O91 C92 1.182 . S
C92 O90 1.166 . S
C92 O91 1.182 . S
O93 Zn78 2.080 1_565 S
O93 C96 1.305 . S
O94 Zn77 1.920 . S
O94 C96 1.234 . S
C95 O81 1.305 . S
C95 O82 1.234 . S
C96 O93 1.305 . S
C96 O94 1.234 . S
Zn97 O103 1.920 . S
Zn97 O109 1.898 . S
Zn97 O112 1.905 . S
Zn98 O106 1.905 . S
Zn98 O107 1.898 . S
Zn98 O115 1.920 . S
Zn99 O102 2.080 . S
Zn99 O105 2.114 . S
Zn99 O108 2.120 . S
Zn99 O110 2.120 . S
Zn99 O111 2.114 . S
Zn99 O114 2.080 . S
C100 O105 1.166 . S
C100 O106 1.182 . S
C101 O107 1.167 . S
C101 O108 1.299 . S
O102 Zn99 2.080 . S
O102 C116 1.305 . S
O103 Zn97 1.920 . S
O103 C116 1.234 . S
C104 O109 1.167 . S
C104 O110 1.299 . S
O105 Zn99 2.114 . S
O105 C100 1.166 . S
O106 Zn98 1.905 . S
O106 C100 1.182 . S
O107 Zn98 1.898 . S
O107 C101 1.167 . S
O108 Zn99 2.120 . S
O108 C101 1.299 . S
O109 Zn97 1.898 . S
O109 C104 1.167 . S
O110 Zn99 2.120 . S
O110 C104 1.299 . S
O111 Zn99 2.114 . S
O111 C113 1.166 . S
O112 Zn97 1.905 . S
O112 C113 1.182 . S
C113 O111 1.166 . S
C113 O112 1.182 . S
O114 Zn99 2.080 . S
O114 C117 1.305 . S
O115 Zn98 1.920 . S
O115 C117 1.234 . S
C116 O102 1.305 . S
C116 O103 1.234 . S
C117 O114 1.305 . S
C117 O115 1.234 . S
C83 C11 1.738 . S
C79 C30 1.308 1_455 S
C104 C49 1.738 . S
C68 C100 1.308 . S
C2 C101 1.291 . S
C116 C25 1.298 . S
C6 C117 1.766 1_455 S
C113 C21 1.727 . S
C80 C40 1.291 . S
C63 C95 1.298 . S
C96 C44 1.766 . S
C92 C59 1.728 . S
