# Generated by pormake.
# Topology tsx, (6,3)-cn, num edge types: 1
# Building blocks:
#     Node 0, Type 0, BuildingBlock: JUFBIX_clean_sbu_0, # of connection points: 6
#     Node 1, Type 0, BuildingBlock: JUFBIX_clean_sbu_0, # of connection points: 6
#     Node 2, Type 1, BuildingBlock: INOVEN_clean_linker_0, # of connection points: 3
#     Node 3, Type 1, BuildingBlock: INOVEN_clean_linker_0, # of connection points: 3
#     Node 4, Type 1, BuildingBlock: INOVEN_clean_linker_0, # of connection points: 3
#     Node 5, Type 1, BuildingBlock: INOVEN_clean_linker_0, # of connection points: 3
#     Edge 6, Type (0, 1), BuildingBlock: OJICUG_clean_linker_0, # of connection points: 2
#     Edge 7, Type (0, 1), BuildingBlock: OJICUG_clean_linker_0, # of connection points: 2
#     Edge 8, Type (0, 1), BuildingBlock: OJICUG_clean_linker_0, # of connection points: 2
#     Edge 9, Type (0, 1), BuildingBlock: OJICUG_clean_linker_0, # of connection points: 2
#     Edge 10, Type (0, 1), BuildingBlock: OJICUG_clean_linker_0, # of connection points: 2
#     Edge 11, Type (0, 1), BuildingBlock: OJICUG_clean_linker_0, # of connection points: 2
#     Edge 12, Type (0, 1), BuildingBlock: OJICUG_clean_linker_0, # of connection points: 2
#     Edge 13, Type (0, 1), BuildingBlock: OJICUG_clean_linker_0, # of connection points: 2
#     Edge 14, Type (0, 1), BuildingBlock: OJICUG_clean_linker_0, # of connection points: 2
#     Edge 15, Type (0, 1), BuildingBlock: OJICUG_clean_linker_0, # of connection points: 2
#     Edge 16, Type (0, 1), BuildingBlock: OJICUG_clean_linker_0, # of connection points: 2
#     Edge 17, Type (0, 1), BuildingBlock: OJICUG_clean_linker_0, # of connection points: 2
# Relax obj value: 0.097
# Max RMSD: 0.126
# Mean RMSD: 0.112
data_MOF--net-tsx--node1-JUFBIX_clean_sbu_0--node2-INOVEN_clean_linker_0--edge1-OJICUG_clean_linker_0
_symmetry_space_group_name_H-M    P1
_symmetry_Int_Tables_number       1
_symmetry_cell_setting            triclinic
loop_
_symmetry_equiv_pos_as_xyz
'x, y, z'
_cell_length_a     14.747738
_cell_length_b     17.423838
_cell_length_c     24.292328
_cell_angle_alpha  93.090079
_cell_angle_beta   98.371074
_cell_angle_gamma 102.75619
loop_
_atom_site_label
_atom_site_type_symbol
_atom_site_fract_x
_atom_site_fract_y
_atom_site_fract_z
_atom_type_partial_charge
Co0 Co 0.11036 0.98294 -0.02345 0.0
C1 C 0.98771 0.99381 0.87943 0.0
Co2 Co 1.01115 0.05874 -0.01347 0.0
C3 C 0.22184 0.861 -0.01746 0.0
C4 C 0.25466 0.94507 0.92301 0.0
N5 N 0.19757 0.92531 0.96129 0.0
N6 N 0.29321 0.84214 0.95966 0.0
C7 C 0.31359 0.8946 0.92224 0.0
H8 H 0.18825 0.82893 0.0139 0.0
H9 H 0.25302 0.99292 0.8966 0.0
C10 C 0.13651 0.04839 0.08285 0.0
N11 N 0.92855 0.11974 0.00117 0.0
C12 C 0.89992 0.17275 0.96861 0.0
C13 C 0.89432 0.12936 0.04908 0.0
N14 N 0.85061 0.21584 -0.0055 0.0
C15 C 0.84678 0.18913 0.04522 0.0
C16 C 0.94598 0.90087 0.00622 0.0
O17 O 0.16361 0.99918 0.05242 0.0
O18 O 0.07224 0.0812 0.06201 0.0
O19 O 0.92963 0.96943 0.00622 0.0
O20 O 1.02213 0.88979 -0.0085 0.0
O21 O 0.9523 0.03646 0.91038 0.0
H22 H 0.9061 0.09702 0.08521 0.0
H23 H 0.91887 0.18233 0.92767 0.0
O24 O 0.05657 0.96645 0.90049 0.0
O25 O 0.19717 0.07846 0.96354 0.0
O26 O 0.09167 0.14792 0.96777 0.0
C27 C 0.17396 0.14438 0.96091 0.0
H28 H 0.36575 0.89473 0.89511 0.0
H29 H 0.81294 0.21172 0.07714 0.0
Co30 Co 0.54062 0.45021 0.46835 0.0
C31 C 0.44195 0.48806 0.36993 0.0
Co32 Co 0.45677 0.53974 0.47896 0.0
C33 C 0.69473 0.36778 0.46381 0.0
C34 C 0.55788 0.29783 0.42897 0.0
N35 N 0.60261 0.37024 0.4538 0.0
N36 N 0.70797 0.29616 0.44712 0.0
C37 C 0.62194 0.25234 0.42527 0.0
H38 H 0.7508 0.4172 0.48294 0.0
H39 H 0.48316 0.27922 0.41352 0.0
C40 C 0.5594 0.50338 0.57658 0.0
N41 N 0.39235 0.61659 0.49377 0.0
C42 C 0.3794 0.67757 0.46407 0.0
C43 C 0.34875 0.62359 0.53831 0.0
N44 N 0.32964 0.72241 0.48839 0.0
C45 C 0.31045 0.68872 0.53523 0.0
C46 C 0.35617 0.38901 0.48696 0.0
O47 O 0.58391 0.45399 0.54494 0.0
O48 O 0.50507 0.54554 0.55608 0.0
O49 O 0.35068 0.46069 0.48886 0.0
O50 O 0.4319 0.37192 0.47703 0.0
O51 O 0.41163 0.53409 0.4013 0.0
H52 H 0.34465 0.58359 0.57088 0.0
H53 H 0.40672 0.6892 0.42558 0.0
O54 O 0.49686 0.44696 0.39133 0.0
O55 O 0.6491 0.5316 0.46172 0.0
O56 O 0.56199 0.61796 0.46972 0.0
C57 C 0.64063 0.60298 0.46375 0.0
H58 H 0.60689 0.19235 0.40616 0.0
H59 H 0.26979 0.70862 0.56442 0.0
H60 H 0.11436 1.00156 0.45993 0.0
H61 H 0.29342 0.9937 0.33634 0.0
H62 H 0.09473 0.14168 0.3214 0.0
N63 N 0.03538 0.11372 0.41821 0.0
N64 N 1.0234 0.1804 0.40737 0.0
C65 C 0.14026 0.02267 0.42283 0.0
C66 C 0.20783 0.98973 0.40105 0.0
C67 C 0.10443 0.08165 0.39604 0.0
C68 C 0.13062 0.10279 0.34464 0.0
C69 C 0.195 0.06781 0.32105 0.0
C70 C 0.23904 1.01693 0.35225 0.0
H71 H 0.95806 0.94575 0.4831 0.0
H72 H 0.85151 0.84244 0.62447 0.0
H73 H 1.01757 0.08111 0.64295 0.0
N74 N 0.05389 0.08196 0.5378 0.0
N75 N 0.07426 0.152 0.55829 0.0
C76 C 0.95035 0.95065 0.52675 0.0
C77 C 0.89932 0.88597 0.54982 0.0
C78 C 0.99286 0.02126 0.56015 0.0
C79 C 0.98211 0.02761 0.61663 0.0
C80 C 0.93223 0.9629 0.64027 0.0
C81 C 0.891 0.89239 0.60657 0.0
H82 H 0.67119 0.51452 -0.02418 0.0
H83 H 0.74744 0.44576 0.81981 0.0
H84 H 0.56181 0.60373 0.82576 0.0
N85 N 0.56642 0.61176 0.93485 0.0
N86 N 0.48134 0.60867 0.91862 0.0
C87 C 0.66846 0.51876 0.93153 0.0
C88 C 0.71162 0.47077 0.90066 0.0
C89 C 0.61501 0.56707 0.90444 0.0
C90 C 0.60674 0.56892 0.84648 0.0
C91 C 0.65415 0.52512 0.81547 0.0
C92 C 0.70911 0.47854 0.84331 0.0
H93 H 0.51626 0.47905 -0.01257 0.0
H94 H 0.34077 0.39293 0.10651 0.0
H95 H 0.56696 0.59947 0.15264 0.0
N96 N 0.62662 0.60212 0.0522 0.0
N97 N 0.66259 0.66705 0.07952 0.0
C98 C 0.49843 0.48522 0.02868 0.0
C99 C 0.42255 0.43055 0.04243 0.0
C100 C 0.54982 0.54756 0.06771 0.0
C101 C 0.52533 0.55352 0.12146 0.0
C102 C 0.4508 0.4969 0.13598 0.0
C103 C 0.39854 0.43683 0.09574 0.0
C104 C 0.34098 0.2218 -0.02 0.0
C105 C 0.24514 0.21894 0.96222 0.0
H106 H 0.47444 0.29409 0.01951 0.0
C107 C 0.21543 0.29013 0.95828 0.0
H108 H 0.36591 0.16797 -0.01662 0.0
C109 C 0.27731 0.36176 -0.02088 0.0
C110 C 0.36985 0.36315 0.00321 0.0
H111 H 0.14218 0.28985 0.94414 0.0
H112 H 0.25074 0.41493 -0.01903 0.0
C113 C 0.40309 0.29379 0.00065 0.0
C114 C 0.28516 0.70154 0.94005 0.0
C115 C 0.33447 0.77553 0.96644 0.0
H116 H 0.29602 0.58941 0.90379 0.0
C117 C 0.43153 0.78838 -0.01431 0.0
H118 H 0.21072 0.69141 0.92381 0.0
C119 C 0.48009 0.73029 -0.02527 0.0
C120 C 0.43202 0.65908 0.9433 0.0
H121 H 0.47077 0.84582 0.00512 0.0
H122 H 0.55595 0.74388 -0.0135 0.0
C123 C 0.33389 0.64384 0.92825 0.0
C124 C 0.86614 0.75742 0.00907 0.0
C125 C 0.87764 0.8376 0.02661 0.0
H126 H 0.78748 0.63873 0.01226 0.0
C127 C 0.82045 0.85882 0.0637 0.0
H128 H 0.90948 0.73941 -0.01924 0.0
C129 C 0.75206 0.80162 0.08199 0.0
C130 C 0.7377 0.72223 0.06289 0.0
H131 H 0.82829 0.92005 0.07859 0.0
H132 H 0.70817 0.81958 0.10997 0.0
C133 C 0.79597 0.70004 0.02673 0.0
C134 C 0.76943 0.27126 0.91688 0.0
C135 C 0.81388 0.27935 0.97246 0.0
H136 H 0.69923 0.32345 0.85156 0.0
C137 C 0.82493 0.35066 0.00524 0.0
H138 H 0.75925 0.21626 0.89126 0.0
C139 C 0.79354 0.41385 -0.01793 0.0
C140 C 0.74916 0.40597 0.92601 0.0
H141 H 0.86 0.35801 0.0482 0.0
H142 H 0.80503 0.46888 0.00783 0.0
C143 C 0.73628 0.33328 0.89412 0.0
C144 C 0.71159 0.7425 0.45076 0.0
C145 C 0.72298 0.67014 0.47029 0.0
H146 H 0.76129 0.86854 0.46018 0.0
C147 C 0.80405 0.66853 0.50802 0.0
H148 H 0.64916 0.74513 0.42194 0.0
C149 C 0.86683 0.73928 0.53086 0.0
C150 C 0.85037 0.81212 0.51517 0.0
H151 H 0.81368 0.61367 0.52429 0.0
H152 H 0.92439 0.7375 0.56366 0.0
C153 C 0.77545 0.813 0.47266 0.0
C154 C 0.87237 0.3207 0.42954 0.0
C155 C 0.79471 0.27125 0.44672 0.0
H156 H 1.00667 0.32855 0.40286 0.0
C157 C 0.79844 0.19313 0.4567 0.0
H158 H 0.87088 0.38086 0.42119 0.0
C159 C 0.87593 0.16363 0.44679 0.0
C160 C 0.95069 0.21164 0.42589 0.0
H161 H 0.73962 0.15407 0.47034 0.0
H162 H 0.87513 0.1024 0.45293 0.0
C163 C 0.94938 0.29077 0.41875 0.0
C164 C 0.28583 0.24763 0.49839 0.0
C165 C 0.27916 0.32694 0.50116 0.0
H166 H 0.22692 0.12978 0.51621 0.0
C167 C 0.20226 0.34683 0.52194 0.0
H168 H 0.3445 0.2303 0.48313 0.0
C169 C 0.13469 0.28876 0.54065 0.0
C170 C 0.14196 0.20997 0.53801 0.0
H171 H 0.19546 0.40749 0.52505 0.0
H172 H 0.07653 0.30515 0.55711 0.0
C173 C 0.21825 0.18986 0.51694 0.0
C174 C 0.27932 0.79428 0.40949 0.0
C175 C 0.29924 0.78973 0.46724 0.0
H176 H 0.2319 0.85891 0.34365 0.0
C177 C 0.28745 0.85101 0.50376 0.0
H178 H 0.28546 0.74715 0.38038 0.0
C179 C 0.2577 0.91625 0.48271 0.0
C180 C 0.23884 0.92106 0.42477 0.0
H181 H 0.30269 0.84907 0.54854 0.0
H182 H 0.25081 0.96328 0.5117 0.0
C183 C 0.24883 0.85867 0.38854 0.0
C184 C 0.16811 0.13071 0.1738 0.0
C185 C 0.17125 0.06103 0.14308 0.0
H186 H 0.17985 0.19023 0.25468 0.0
C187 C 0.19757 0.9994 0.17114 0.0
H188 H 0.14936 0.17962 0.15274 0.0
C189 C 0.21141 1.00399 0.22917 0.0
C190 C 0.2019 0.07145 0.26062 0.0
H191 H 0.20017 0.94494 0.14832 0.0
H192 H 0.2225 0.95172 0.24867 0.0
C193 C 0.18489 0.13642 0.23214 0.0
C194 C 0.96996 0.91311 0.78965 0.0
C195 C 0.9563 0.98043 0.81867 0.0
H196 H 0.97237 0.85484 0.71044 0.0
C197 C 0.92487 0.03869 0.78851 0.0
H198 H 0.99411 0.86731 0.81201 0.0
C199 C 0.91354 0.032 0.73008 0.0
C200 C 0.93176 0.96628 0.70123 0.0
H201 H 0.91453 0.0914 0.81004 0.0
H202 H 0.89319 0.0791 0.70752 0.0
C203 C 0.95723 0.90585 0.73152 0.0
C204 C 0.60144 0.58288 0.66837 0.0
C205 C 0.59145 0.51079 0.63688 0.0
H206 H 0.63383 0.64517 0.74953 0.0
C207 C 0.6084 0.44504 0.66368 0.0
H208 H 0.58977 0.63466 0.64823 0.0
C209 C 0.63067 0.45021 0.72163 0.0
C210 C 0.63886 0.52192 0.75369 0.0
H211 H 0.60041 0.38871 0.64007 0.0
H212 H 0.63785 0.39704 0.74122 0.0
C213 C 0.62613 0.58869 0.72627 0.0
C214 C 0.42447 0.55883 0.2838 0.0
C215 C 0.42459 0.48808 0.30891 0.0
H216 H 0.43423 0.61762 0.20861 0.0
C217 C 0.42437 0.41951 0.27591 0.0
H218 H 0.42593 0.61269 0.30874 0.0
C219 C 0.42875 0.42224 0.21924 0.0
C220 C 0.43457 0.49386 0.19453 0.0
H221 H 0.425 0.3644 0.29449 0.0
H222 H 0.43259 0.36901 0.19539 0.0
C223 C 0.43041 0.5619 0.22692 0.0
loop_
_geom_bond_atom_site_label_1
_geom_bond_atom_site_label_2
_geom_bond_distance
_geom_bond_site_symmetry_2
_ccdc_geom_bond_type
Co0 N5 2.057 1_554 S
Co0 O17 2.021 . S
Co0 O20 2.062 1_455 S
Co0 O24 2.117 1_554 S
Co0 O25 2.020 1_565 S
C1 O21 1.269 . S
C1 O24 1.251 1_645 S
Co2 N11 2.057 1_556 S
Co2 O18 2.117 1_556 S
Co2 O19 2.020 1_545 S
Co2 O21 2.021 . S
Co2 O26 2.062 1_656 S
C3 N5 1.316 1_554 S
C3 N6 1.347 . S
C3 H8 0.931 . S
C4 N5 1.375 . S
C4 C7 1.350 . S
C4 H9 0.930 . S
N5 Co0 2.057 1_556 S
N5 C3 1.316 1_556 S
N5 C4 1.375 . S
N6 C3 1.347 . S
N6 C7 1.373 1_554 S
C7 C4 1.350 . S
C7 N6 1.373 1_556 S
C7 H28 0.931 . S
H8 C3 0.931 . S
H9 C4 0.930 . S
C10 O17 1.259 1_545 S
C10 O18 1.258 1_455 S
N11 Co2 2.057 1_554 S
N11 C12 1.316 1_554 S
N11 C13 1.375 . S
C12 N11 1.316 1_556 S
C12 N14 1.347 1_556 S
C12 H23 0.931 . S
C13 N11 1.375 . S
C13 C15 1.350 . S
C13 H22 0.930 . S
N14 C12 1.347 1_554 S
N14 C15 1.373 . S
C15 C13 1.350 . S
C15 N14 1.373 . S
C15 H29 0.931 . S
C16 O19 1.256 1_554 S
C16 O20 1.255 . S
O17 Co0 2.021 . S
O17 C10 1.259 1_565 S
O18 Co2 2.117 1_554 S
O18 C10 1.258 1_655 S
O19 Co2 2.020 1_565 S
O19 C16 1.256 1_556 S
O20 Co0 2.062 1_655 S
O20 C16 1.255 . S
O21 C1 1.269 . S
O21 Co2 2.021 . S
H22 C13 0.930 . S
H23 C12 0.931 . S
O24 Co0 2.117 1_556 S
O24 C1 1.251 1_465 S
O25 Co0 2.020 1_545 S
O25 C27 1.256 . S
O26 Co2 2.062 1_454 S
O26 C27 1.255 . S
C27 O25 1.256 . S
C27 O26 1.255 . S
H28 C7 0.931 . S
H29 C15 0.931 . S
Co30 N35 2.057 . S
Co30 O47 2.021 . S
Co30 O50 2.062 . S
Co30 O54 2.117 . S
Co30 O55 2.020 . S
C31 O51 1.259 . S
C31 O54 1.258 . S
Co32 N41 2.057 . S
Co32 O48 2.117 . S
Co32 O49 2.020 . S
Co32 O51 2.021 . S
Co32 O56 2.062 . S
C33 N35 1.316 . S
C33 N36 1.347 . S
C33 H38 0.931 . S
C34 N35 1.375 . S
C34 C37 1.350 . S
C34 H39 0.930 . S
N35 Co30 2.057 . S
N35 C33 1.316 . S
N35 C34 1.375 . S
N36 C33 1.347 . S
N36 C37 1.373 . S
C37 C34 1.350 . S
C37 N36 1.373 . S
C37 H58 0.931 . S
H38 C33 0.931 . S
H39 C34 0.930 . S
C40 O47 1.259 . S
C40 O48 1.258 . S
N41 Co32 2.057 . S
N41 C42 1.316 . S
N41 C43 1.375 . S
C42 N41 1.316 . S
C42 N44 1.347 . S
C42 H53 0.931 . S
C43 N41 1.375 . S
C43 C45 1.350 . S
C43 H52 0.930 . S
N44 C42 1.347 . S
N44 C45 1.373 . S
C45 C43 1.350 . S
C45 N44 1.373 . S
C45 H59 0.931 . S
C46 O49 1.256 . S
C46 O50 1.255 . S
O47 Co30 2.021 . S
O47 C40 1.259 . S
O48 Co32 2.117 . S
O48 C40 1.258 . S
O49 Co32 2.020 . S
O49 C46 1.256 . S
O50 Co30 2.062 . S
O50 C46 1.255 . S
O51 C31 1.259 . S
O51 Co32 2.021 . S
H52 C43 0.930 . S
H53 C42 0.931 . S
O54 Co30 2.117 . S
O54 C31 1.258 . S
O55 Co30 2.020 . S
O55 C57 1.256 . S
O56 Co32 2.062 . S
O56 C57 1.255 . S
C57 O55 1.256 . S
C57 O56 1.255 . S
H58 C37 0.931 . S
H59 C45 0.931 . S
H60 C65 0.929 . S
H61 C70 0.931 . S
H62 C68 0.930 1_655 S
N63 N64 1.234 . S
N63 C67 1.453 1_655 S
N64 N63 1.234 . S
C65 H60 0.929 . S
C65 C66 1.373 . S
C65 C67 1.368 1_565 S
C66 C65 1.373 . S
C66 C70 1.397 . S
C67 N63 1.453 1_455 S
C67 C65 1.368 1_545 S
C67 C68 1.373 . S
C68 H62 0.930 1_455 S
C68 C67 1.373 . S
C68 C69 1.371 1_545 S
C69 C68 1.371 1_565 S
C69 C70 1.383 . S
C70 H61 0.931 . S
C70 C66 1.397 . S
C70 C69 1.383 . S
H71 C76 0.929 . S
H72 C81 0.931 . S
H73 C79 0.930 . S
N74 N75 1.234 . S
N74 C78 1.453 . S
N75 N74 1.234 . S
C76 H71 0.929 . S
C76 C77 1.373 . S
C76 C78 1.368 1_665 S
C77 C76 1.373 . S
C77 C81 1.397 . S
C78 N74 1.453 . S
C78 C76 1.368 1_445 S
C78 C79 1.373 . S
C79 H73 0.930 . S
C79 C78 1.373 . S
C79 C80 1.371 1_445 S
C80 C79 1.371 1_665 S
C80 C81 1.383 . S
C81 H72 0.931 . S
C81 C77 1.397 . S
C81 C80 1.383 . S
H82 C87 0.929 1_554 S
H83 C92 0.931 . S
H84 C90 0.930 . S
N85 N86 1.240 . S
N85 C89 1.464 . S
N86 N85 1.240 . S
C87 H82 0.929 1_556 S
C87 C88 1.373 . S
C87 C89 1.368 . S
C88 C87 1.373 . S
C88 C92 1.397 . S
C89 N85 1.464 . S
C89 C87 1.368 . S
C89 C90 1.373 . S
C90 H84 0.930 . S
C90 C89 1.373 . S
C90 C91 1.371 . S
C91 C90 1.371 . S
C91 C92 1.383 . S
C92 H83 0.931 . S
C92 C88 1.397 . S
C92 C91 1.383 . S
H93 C98 0.929 1_556 S
H94 C103 0.931 . S
H95 C101 0.930 . S
N96 N97 1.234 . S
N96 C100 1.453 . S
N97 N96 1.234 . S
C98 H93 0.929 1_554 S
C98 C99 1.373 . S
C98 C100 1.368 . S
C99 C98 1.373 . S
C99 C103 1.397 . S
C100 N96 1.453 . S
C100 C98 1.368 . S
C100 C101 1.373 . S
C101 H95 0.930 . S
C101 C100 1.373 . S
C101 C102 1.371 . S
C102 C101 1.371 . S
C102 C103 1.383 . S
C103 H94 0.931 . S
C103 C99 1.397 . S
C103 C102 1.383 . S
C104 C105 1.387 . S
C104 H108 0.950 . S
C104 C113 1.390 . S
C105 C104 1.387 . S
C105 C107 1.387 1_554 S
H106 C113 0.950 . S
C107 C105 1.387 1_556 S
C107 C109 1.390 . S
C107 H111 0.950 . S
H108 C104 0.950 . S
C109 C107 1.390 . S
C109 C110 1.387 1_556 S
C109 H112 0.950 . S
C110 C109 1.387 1_554 S
C110 C113 1.387 . S
H111 C107 0.950 . S
H112 C109 0.950 . S
C113 C104 1.390 . S
C113 H106 0.950 . S
C113 C110 1.387 . S
C114 C115 1.387 1_556 S
C114 H118 0.950 . S
C114 C123 1.390 . S
C115 C114 1.387 1_554 S
C115 C117 1.387 . S
H116 C123 0.950 . S
C117 C115 1.387 . S
C117 C119 1.390 . S
C117 H121 0.950 . S
H118 C114 0.950 . S
C119 C117 1.390 . S
C119 C120 1.387 . S
C119 H122 0.950 . S
C120 C119 1.387 . S
C120 C123 1.387 1_554 S
H121 C117 0.950 . S
H122 C119 0.950 . S
C123 C114 1.390 . S
C123 H116 0.950 . S
C123 C120 1.387 1_556 S
C124 C125 1.372 1_556 S
C124 H128 0.950 . S
C124 C133 1.390 . S
C125 C124 1.372 1_554 S
C125 C127 1.407 . S
H126 C133 0.950 . S
C127 C125 1.407 . S
C127 C129 1.390 . S
C127 H131 0.950 . S
H128 C124 0.950 . S
C129 C127 1.390 . S
C129 C130 1.387 . S
C129 H132 0.950 . S
C130 C129 1.387 . S
C130 C133 1.387 1_554 S
H131 C127 0.950 . S
H132 C129 0.950 . S
C133 C124 1.390 . S
C133 H126 0.950 . S
C133 C130 1.387 1_556 S
C134 C135 1.387 . S
C134 H138 0.950 . S
C134 C143 1.390 . S
C135 C134 1.387 . S
C135 C137 1.387 1_556 S
H136 C143 0.950 . S
C137 C135 1.387 1_554 S
C137 C139 1.390 . S
C137 H141 0.950 . S
H138 C134 0.950 . S
C139 C137 1.390 . S
C139 C140 1.387 1_554 S
C139 H142 0.950 . S
C140 C139 1.387 1_556 S
C140 C143 1.387 . S
H141 C137 0.950 . S
H142 C139 0.950 . S
C143 C134 1.390 . S
C143 H136 0.950 . S
C143 C140 1.387 . S
C144 C145 1.387 . S
C144 H148 0.950 . S
C144 C153 1.390 . S
C145 C144 1.387 . S
C145 C147 1.387 . S
H146 C153 0.950 . S
C147 C145 1.387 . S
C147 C149 1.390 . S
C147 H151 0.950 . S
H148 C144 0.950 . S
C149 C147 1.390 . S
C149 C150 1.387 . S
C149 H152 0.950 . S
C150 C149 1.387 . S
C150 C153 1.387 . S
H151 C147 0.950 . S
H152 C149 0.950 . S
C153 C144 1.390 . S
C153 H146 0.950 . S
C153 C150 1.387 . S
C154 C155 1.387 . S
C154 H158 0.950 . S
C154 C163 1.390 . S
C155 C154 1.387 . S
C155 C157 1.387 . S
H156 C163 0.950 . S
C157 C155 1.387 . S
C157 C159 1.390 . S
C157 H161 0.950 . S
H158 C154 0.950 . S
C159 C157 1.390 . S
C159 C160 1.387 . S
C159 H162 0.950 . S
C160 C159 1.387 . S
C160 C163 1.387 . S
H161 C157 0.950 . S
H162 C159 0.950 . S
C163 C154 1.390 . S
C163 H156 0.950 . S
C163 C160 1.387 . S
C164 C165 1.387 . S
C164 H168 0.950 . S
C164 C173 1.390 . S
C165 C164 1.387 . S
C165 C167 1.387 . S
H166 C173 0.950 . S
C167 C165 1.387 . S
C167 C169 1.390 . S
C167 H171 0.950 . S
H168 C164 0.950 . S
C169 C167 1.390 . S
C169 C170 1.387 . S
C169 H172 0.950 . S
C170 C169 1.387 . S
C170 C173 1.387 . S
H171 C167 0.950 . S
H172 C169 0.950 . S
C173 C164 1.390 . S
C173 H166 0.950 . S
C173 C170 1.387 . S
C174 C175 1.387 . S
C174 H178 0.950 . S
C174 C183 1.390 . S
C175 C174 1.387 . S
C175 C177 1.387 . S
H176 C183 0.950 . S
C177 C175 1.387 . S
C177 C179 1.390 . S
C177 H181 0.950 . S
H178 C174 0.950 . S
C179 C177 1.390 . S
C179 C180 1.387 . S
C179 H182 0.950 . S
C180 C179 1.387 . S
C180 C183 1.387 . S
H181 C177 0.950 . S
H182 C179 0.950 . S
C183 C174 1.390 . S
C183 H176 0.950 . S
C183 C180 1.387 . S
C184 C185 1.395 . S
C184 H188 0.950 . S
C184 C193 1.390 . S
C185 C184 1.395 . S
C185 C187 1.379 1_545 S
H186 C193 0.950 . S
C187 C185 1.379 1_565 S
C187 C189 1.390 . S
C187 H191 0.950 . S
H188 C184 0.950 . S
C189 C187 1.390 . S
C189 C190 1.387 . S
C189 H192 0.950 . S
C190 C189 1.387 . S
C190 C193 1.387 1_565 S
H191 C187 0.950 . S
H192 C189 0.950 . S
C193 C184 1.390 . S
C193 H186 0.950 . S
C193 C190 1.387 1_545 S
C194 C195 1.379 1_465 S
C194 H198 0.950 . S
C194 C203 1.390 . S
C195 C194 1.379 1_645 S
C195 C197 1.394 . S
H196 C203 0.950 . S
C197 C195 1.394 . S
C197 C199 1.390 . S
C197 H201 0.950 . S
H198 C194 0.950 . S
C199 C197 1.390 . S
C199 C200 1.387 1_545 S
C199 H202 0.950 . S
C200 C199 1.387 1_565 S
C200 C203 1.387 1_655 S
H201 C197 0.950 . S
H202 C199 0.950 . S
C203 C194 1.390 . S
C203 H196 0.950 . S
C203 C200 1.387 1_455 S
C204 C205 1.387 . S
C204 H208 0.950 . S
C204 C213 1.390 . S
C205 C204 1.387 . S
C205 C207 1.387 . S
H206 C213 0.950 . S
C207 C205 1.387 . S
C207 C209 1.390 . S
C207 H211 0.950 . S
H208 C204 0.950 . S
C209 C207 1.390 . S
C209 C210 1.387 . S
C209 H212 0.950 . S
C210 C209 1.387 . S
C210 C213 1.387 . S
H211 C207 0.950 . S
H212 C209 0.950 . S
C213 C204 1.390 . S
C213 H206 0.950 . S
C213 C210 1.387 . S
C214 C215 1.387 . S
C214 H218 0.950 . S
C214 C223 1.390 . S
C215 C214 1.387 . S
C215 C217 1.387 . S
H216 C223 0.950 . S
C217 C215 1.387 . S
C217 C219 1.390 . S
C217 H221 0.950 . S
H218 C214 0.950 . S
C219 C217 1.390 . S
C219 C220 1.387 . S
C219 H222 0.950 . S
C220 C219 1.387 . S
C220 C223 1.387 . S
H221 C217 0.950 . S
H222 C219 0.950 . S
C223 C214 1.390 . S
C223 H216 0.950 . S
C223 C220 1.387 . S
C110 C99 1.472 . S
C105 C27 1.501 . S
C115 N6 1.400 . S
C120 N86 1.422 1_554 S
C125 C16 1.473 . S
C130 N97 1.425 . S
C135 N14 1.451 1_556 S
C140 C88 1.451 . S
C145 C57 1.501 . S
C150 C77 1.473 . S
C155 N36 1.400 . S
C160 N64 1.422 . S
C170 N75 1.424 . S
C165 C46 1.476 . S
C180 C66 1.451 . S
C175 N44 1.451 . S
C185 C10 1.472 . S
C190 C69 1.471 . S
C195 C1 1.545 . S
C200 C80 1.541 . S
C210 C91 1.471 . S
C205 C40 1.472 . S
C215 C31 1.546 . S
C220 C102 1.542 . S
