# Generated by pormake.
# Topology tsx, (6,3)-cn, num edge types: 1
# Building blocks:
#     Node 0, Type 0, BuildingBlock: JUFBIX_clean_sbu_0, # of connection points: 6
#     Node 1, Type 0, BuildingBlock: JUFBIX_clean_sbu_0, # of connection points: 6
#     Node 2, Type 1, BuildingBlock: PAMTOO_clean_linker_0, # of connection points: 3
#     Node 3, Type 1, BuildingBlock: PAMTOO_clean_linker_0, # of connection points: 3
#     Node 4, Type 1, BuildingBlock: PAMTOO_clean_linker_0, # of connection points: 3
#     Node 5, Type 1, BuildingBlock: PAMTOO_clean_linker_0, # of connection points: 3
#     Edge 6, Type (0, 1), BuildingBlock: OJICUG_clean_linker_0, # of connection points: 2
#     Edge 7, Type (0, 1), BuildingBlock: OJICUG_clean_linker_0, # of connection points: 2
#     Edge 8, Type (0, 1), BuildingBlock: OJICUG_clean_linker_0, # of connection points: 2
#     Edge 9, Type (0, 1), BuildingBlock: OJICUG_clean_linker_0, # of connection points: 2
#     Edge 10, Type (0, 1), BuildingBlock: OJICUG_clean_linker_0, # of connection points: 2
#     Edge 11, Type (0, 1), BuildingBlock: OJICUG_clean_linker_0, # of connection points: 2
#     Edge 12, Type (0, 1), BuildingBlock: OJICUG_clean_linker_0, # of connection points: 2
#     Edge 13, Type (0, 1), BuildingBlock: OJICUG_clean_linker_0, # of connection points: 2
#     Edge 14, Type (0, 1), BuildingBlock: OJICUG_clean_linker_0, # of connection points: 2
#     Edge 15, Type (0, 1), BuildingBlock: OJICUG_clean_linker_0, # of connection points: 2
#     Edge 16, Type (0, 1), BuildingBlock: OJICUG_clean_linker_0, # of connection points: 2
#     Edge 17, Type (0, 1), BuildingBlock: OJICUG_clean_linker_0, # of connection points: 2
# Relax obj value: 0.107
# Max RMSD: 0.129
# Mean RMSD: 0.122
data_MOF--net-tsx--node1-JUFBIX_clean_sbu_0--node2-PAMTOO_clean_linker_0--edge1-OJICUG_clean_linker_0
_symmetry_space_group_name_H-M    P1
_symmetry_Int_Tables_number       1
_symmetry_cell_setting            triclinic
loop_
_symmetry_equiv_pos_as_xyz
'x, y, z'
_cell_length_a     14.914506
_cell_length_b     17.199265
_cell_length_c     24.409943
_cell_angle_alpha  83.899388
_cell_angle_beta   88.511803
_cell_angle_gamma 102.86566
loop_
_atom_site_label
_atom_site_type_symbol
_atom_site_fract_x
_atom_site_fract_y
_atom_site_fract_z
_atom_type_partial_charge
Co0 Co 0.06901 0.979 -0.02646 0.0
C1 C 1.02832 0.06873 0.87887 0.0
Co2 Co 0.96186 0.0477 -0.01463 0.0
C3 C 0.15886 0.846 0.96544 0.0
C4 C 0.24457 0.95992 0.93376 0.0
N5 N 0.16161 0.9257 0.95912 0.0
N6 N 0.23626 0.82932 0.94426 0.0
C7 C 0.29042 0.90108 0.92461 0.0
H8 H 0.09953 0.80081 -0.01717 0.0
H9 H 0.26895 1.02347 0.92086 0.0
C10 C 1.00661 0.96169 0.0805 0.0
N11 N 0.86699 0.09819 -0.00035 0.0
C12 C 0.84723 0.16507 -0.02662 0.0
C13 C 0.79576 0.06841 0.03681 0.0
N14 N 0.7662 0.1776 -0.00754 0.0
C15 C 0.73408 0.11697 0.0326 0.0
C16 C 0.89307 0.891 0.96196 0.0
O17 O 0.06298 0.93977 0.0489 0.0
O18 O 0.95639 1.00709 0.06046 0.0
O19 O 0.87272 0.95645 0.97103 0.0
O20 O 0.97718 0.88707 0.9602 0.0
O21 O 0.96976 0.08818 0.91025 0.0
H22 H 0.78725 1.01309 0.064 0.0
H23 H 0.88924 0.20161 0.93916 0.0
O24 O 0.0759 1.02033 0.89817 0.0
O25 O 0.15848 0.07145 -0.01169 0.0
O26 O 0.05226 0.13932 0.0002 0.0
C27 C 0.13662 0.13564 -0.00034 0.0
H28 H 0.35784 0.91039 0.90415 0.0
H29 H 0.6697 0.10739 0.05656 0.0
Co30 Co 0.65384 0.57737 0.47009 0.0
C31 C 0.58301 0.63471 0.37264 0.0
Co32 Co 0.54559 0.64476 0.48077 0.0
C33 C 0.75488 0.44969 0.46201 0.0
C34 C 0.82974 0.56604 0.42701 0.0
N35 N 0.74991 0.52778 0.45478 0.0
N36 N 0.8343 0.43832 0.43947 0.0
C37 C 0.88152 0.51174 0.41792 0.0
H38 H 0.69956 0.40168 0.48092 0.0
H39 H 0.84822 0.62921 0.41197 0.0
C40 C 0.61534 0.58571 0.57795 0.0
N41 N 0.4537 0.69631 0.49507 0.0
C42 C 0.44182 0.76555 0.46835 0.0
C43 C 0.38548 0.67478 0.53476 0.0
N44 N 0.36841 0.78824 0.4894 0.0
C45 C 0.33272 0.73114 0.5313 0.0
C46 C 0.47945 0.48031 0.47967 0.0
O47 O 0.66477 0.55602 0.54653 0.0
O48 O 0.56097 0.62685 0.55735 0.0
O49 O 0.45844 0.54691 0.48427 0.0
O50 O 0.56366 0.47795 0.47223 0.0
O51 O 0.5307 0.66152 0.40399 0.0
H52 H 0.37422 0.62105 0.56381 0.0
H53 H 0.48635 0.79836 0.43389 0.0
O54 O 0.64164 0.59842 0.39351 0.0
O55 O 0.74095 0.67788 0.46977 0.0
O56 O 0.63181 0.74284 0.47759 0.0
C57 C 0.71663 0.74343 0.47357 0.0
H58 H 0.94803 0.5252 0.39584 0.0
H59 H 0.27083 0.72841 0.55627 0.0
H60 H 0.14149 0.90795 0.32694 0.0
H61 H 0.98679 0.09014 0.29965 0.0
H62 H 0.14262 0.07828 0.44406 0.0
H63 H 0.91197 0.09345 0.44577 0.0
C64 C 0.93002 0.13815 0.40898 0.0
O65 O 1.02178 0.1478 0.39267 0.0
H66 H 0.88545 0.11508 0.37573 0.0
C67 C 0.11984 0.95963 0.33979 0.0
C68 C 0.15268 0.99059 0.38822 0.0
C69 C 0.06133 0.99536 0.30696 0.0
C70 C 1.03022 0.05996 0.32497 0.0
C71 C 0.05526 0.08695 0.3757 0.0
C72 C 0.11813 0.05342 0.40692 0.0
H73 H 0.21167 0.26333 0.64353 0.0
H74 H 0.95184 0.09483 0.64022 0.0
H75 H 0.11015 0.18855 0.4893 0.0
H76 H 0.98705 0.97849 0.5843 0.0
C77 C 0.98775 1.00369 0.54033 0.0
O78 O 0.96922 0.07912 0.53701 0.0
H79 H 0.05725 1.00911 0.52164 0.0
C80 C 0.15841 0.22946 0.62041 0.0
C81 C 0.16908 0.23448 0.56264 0.0
C82 C 0.07902 0.18067 0.64847 0.0
C83 C 1.01085 0.13638 0.61873 0.0
C84 C 1.02382 0.13679 0.56201 0.0
C85 C 0.10102 0.188 0.53348 0.0
H86 H 0.6582 0.42049 0.81973 0.0
H87 H 0.46039 0.56906 0.82022 0.0
H88 H 0.48982 0.41654 0.96565 0.0
H89 H 0.2883 0.47498 0.95743 0.0
C90 C 0.32093 0.52136 0.92327 0.0
O91 O 0.41536 0.53371 0.925 0.0
H92 H 0.2969 0.49966 0.88362 0.0
C93 C 0.6041 0.44098 0.84045 0.0
C94 C 0.57854 0.41127 0.89561 0.0
C95 C 0.56046 0.49625 0.81196 0.0
C96 C 0.49381 0.52505 0.84061 0.0
C97 C 0.46869 0.49677 0.89595 0.0
C98 C 0.50872 0.43776 0.9228 0.0
H99 H 0.65578 0.70899 0.11242 0.0
H100 H 0.41818 0.51647 0.1572 0.0
H101 H 0.53891 0.55817 -0.0082 0.0
H102 H 0.40635 0.37621 0.1217 0.0
C103 C 0.41564 0.3888 0.07603 0.0
O104 O 0.40655 0.46605 0.05977 0.0
H105 H 0.48613 0.38314 0.06369 0.0
C106 C 0.6031 0.65949 0.10128 0.0
C107 C 0.60245 0.64015 0.0471 0.0
C108 C 0.53788 0.61473 0.14147 0.0
C109 C 0.46865 0.55214 0.12642 0.0
C110 C 0.46905 0.53075 0.07255 0.0
C111 C 0.53667 0.57467 0.033 0.0
C112 C 0.29925 0.19423 0.02138 0.0
C113 C 0.20849 0.20321 0.01516 0.0
H114 H 0.4342 0.24513 0.04646 0.0
C115 C 0.1866 0.27538 0.02692 0.0
H116 H 0.31846 0.13919 0.01337 0.0
C117 C 0.25377 0.33662 0.04518 0.0
C118 C 0.34437 0.32727 0.05139 0.0
H119 H 0.11719 0.28401 0.02304 0.0
H120 H 0.23449 0.3907 0.0553 0.0
C121 C 0.36589 0.2551 0.03995 0.0
C122 C 0.21972 0.68546 -0.0213 0.0
C123 C 0.25453 0.7514 0.93884 0.0
H124 H 0.21408 0.56115 0.00549 0.0
C125 C 0.30828 0.74033 0.89335 0.0
H126 H 0.17854 0.69226 0.01429 0.0
C127 C 0.32755 0.66557 0.88804 0.0
C128 C 0.29441 0.60014 0.92831 0.0
H129 H 0.33489 0.7894 0.86147 0.0
H130 H 0.36939 0.65906 0.85266 0.0
C131 C 0.24007 0.61061 -0.0263 0.0
C132 C 0.72682 0.82496 0.95978 0.0
C133 C 0.81844 0.81777 0.96492 0.0
H134 H 0.58455 0.77123 -0.01886 0.0
C135 C 0.83539 0.74291 -0.01512 0.0
H136 H 0.7117 0.8818 0.94426 0.0
C137 C 0.76236 0.67985 0.00618 0.0
C138 C 0.67183 0.69058 0.00667 0.0
H139 H 0.90519 0.73561 -0.0105 0.0
H140 H 0.77732 0.62562 0.02691 0.0
C141 C 0.65398 0.76168 -0.01947 0.0
C142 C 0.62235 0.22302 -0.02559 0.0
C143 C 0.71925 0.23817 0.97099 0.0
H144 H 0.50214 0.26571 0.95205 0.0
C145 C 0.76924 0.31243 0.94483 0.0
H146 H 0.58155 0.16597 -0.00662 0.0
C147 C 0.72343 0.36956 0.92176 0.0
C148 C 0.62671 0.35356 0.92429 0.0
H149 H 0.84376 0.32632 0.94213 0.0
H150 H 0.7636 0.42611 0.90141 0.0
C151 C 0.57663 0.28011 0.95111 0.0
C152 C 0.75823 0.88164 0.50194 0.0
C153 C 0.78557 0.81728 0.48044 0.0
H154 H 0.80107 0.99127 0.53816 0.0
C155 C 0.87971 0.82048 0.47186 0.0
H156 H 0.68602 0.88076 0.50919 0.0
C157 C 0.94521 0.88426 0.48779 0.0
C158 C 0.91796 0.9461 0.51239 0.0
H159 H 0.90283 0.77192 0.45526 0.0
H160 H 1.01706 0.88285 0.48345 0.0
C161 C 0.82391 0.94504 0.51843 0.0
C162 C 0.83024 0.29609 0.47274 0.0
C163 C 0.86 0.36351 0.43339 0.0
H164 H 0.83044 0.17216 0.49637 0.0
C165 C 0.91506 0.35679 0.38718 0.0
H166 H 0.7881 0.2995 0.50879 0.0
C167 C 0.93926 0.28455 0.38021 0.0
C168 C 0.91008 0.21743 0.41957 0.0
H169 H 0.93758 0.40684 0.35544 0.0
H170 H 0.9797 0.28069 0.34349 0.0
C171 C 0.85509 0.22362 0.46588 0.0
C172 C 0.41718 0.34311 0.52792 0.0
C173 C 0.40579 0.40703 0.49005 0.0
H174 H 0.3496 0.23809 0.58152 0.0
C175 C 0.31782 0.40784 0.47107 0.0
H176 H 0.48415 0.34202 0.54376 0.0
C177 C 0.24143 0.3482 0.49201 0.0
C178 C 0.25158 0.28806 0.53332 0.0
H179 H 0.30748 0.45706 0.44218 0.0
H180 H 0.1737 0.35217 0.47865 0.0
C181 C 0.34031 0.28442 0.54991 0.0
C182 C 0.26722 0.88236 0.49909 0.0
C183 C 0.3285 0.85271 0.46676 0.0
H184 H 0.16597 0.95189 0.50016 0.0
C185 C 0.34395 0.88217 0.4106 0.0
H186 H 0.25629 0.86315 0.5429 0.0
C187 C 0.29234 0.93341 0.38632 0.0
C188 C 0.22321 0.95553 0.41736 0.0
H189 H 0.39131 0.86172 0.38433 0.0
H190 H 0.30265 0.95172 0.34232 0.0
C191 C 0.21556 0.93383 0.47461 0.0
C192 C 0.93967 0.96126 0.17484 0.0
C193 C 1.01102 0.94856 0.14064 0.0
H194 H 0.89867 0.98387 0.25513 0.0
C195 C 0.09358 0.93902 0.16357 0.0
H196 H 0.87491 0.96808 0.15809 0.0
C197 C 0.10814 0.95033 0.21855 0.0
C198 C 0.03963 0.96978 0.25183 0.0
H199 H 0.14992 0.92976 0.13802 0.0
H200 H 0.17554 0.94929 0.23365 0.0
C201 C 0.95367 0.97129 0.23013 0.0
C202 C 0.12635 0.10361 0.79182 0.0
C203 C 0.04406 0.10417 0.82098 0.0
H204 H 0.2028 0.13012 0.71411 0.0
C205 C 0.97769 0.1388 0.79435 0.0
H206 H 0.17928 0.07832 0.81163 0.0
C207 C 0.99125 0.16826 0.73853 0.0
C208 C 0.07213 0.16496 0.70902 0.0
H209 H 0.91401 0.14052 0.81607 0.0
H210 H 0.93744 0.19126 0.7179 0.0
C211 C 0.14053 0.13431 0.73636 0.0
C212 C 0.59474 0.622 0.67249 0.0
C213 C 0.61355 0.56687 0.63792 0.0
H214 H 0.56756 0.64453 0.7549 0.0
C215 C 0.62067 0.49049 0.66082 0.0
H216 H 0.58932 0.68149 0.65547 0.0
C217 C 0.60453 0.46801 0.71737 0.0
C218 C 0.58344 0.52234 0.75231 0.0
H219 H 0.63365 0.44663 0.63468 0.0
H220 H 0.60512 0.4069 0.73319 0.0
C221 C 0.58113 0.60036 0.72929 0.0
C222 C 0.48704 0.64096 0.29044 0.0
C223 C 0.5727 0.63976 0.31277 0.0
H224 H 0.40814 0.63268 0.218 0.0
C225 C 0.64721 0.63534 0.27793 0.0
H226 H 0.42839 0.64369 0.3167 0.0
C227 C 0.63587 0.6298 0.22202 0.0
C228 C 0.5495 0.6276 0.1999 0.0
H229 H 0.71395 0.63431 0.29415 0.0
H230 H 0.69402 0.6242 0.19641 0.0
C231 C 0.47523 0.63401 0.23434 0.0
loop_
_geom_bond_atom_site_label_1
_geom_bond_atom_site_label_2
_geom_bond_distance
_geom_bond_site_symmetry_2
_ccdc_geom_bond_type
Co0 N5 2.057 1_554 S
Co0 O17 2.021 . S
Co0 O20 2.062 1_455 S
Co0 O24 2.117 1_564 S
Co0 O25 2.020 1_565 S
C1 O21 1.259 1_455 S
C1 O24 1.258 . S
Co2 N11 2.057 1_556 S
Co2 O18 2.117 1_556 S
Co2 O19 2.020 1_546 S
Co2 O21 2.021 . S
Co2 O26 2.062 1_655 S
C3 N5 1.316 1_554 S
C3 N6 1.347 . S
C3 H8 0.931 . S
C4 N5 1.375 . S
C4 C7 1.350 . S
C4 H9 0.930 . S
N5 Co0 2.057 1_556 S
N5 C3 1.316 1_556 S
N5 C4 1.375 . S
N6 C3 1.347 . S
N6 C7 1.373 1_554 S
C7 C4 1.350 . S
C7 N6 1.373 1_556 S
C7 H28 0.931 . S
H8 C3 0.931 . S
H9 C4 0.930 . S
C10 O17 1.259 1_545 S
C10 O18 1.258 1_455 S
N11 Co2 2.057 1_554 S
N11 C12 1.316 1_554 S
N11 C13 1.375 . S
C12 N11 1.316 1_556 S
C12 N14 1.347 1_556 S
C12 H23 0.931 . S
C13 N11 1.375 . S
C13 C15 1.350 . S
C13 H22 0.930 . S
N14 C12 1.347 1_554 S
N14 C15 1.373 . S
C15 C13 1.350 . S
C15 N14 1.373 . S
C15 H29 0.931 . S
C16 O19 1.256 . S
C16 O20 1.255 . S
O17 Co0 2.021 . S
O17 C10 1.259 1_565 S
O18 Co2 2.117 1_554 S
O18 C10 1.258 1_655 S
O19 Co2 2.020 1_564 S
O19 C16 1.256 . S
O20 Co0 2.062 1_655 S
O20 C16 1.255 . S
O21 C1 1.259 1_655 S
O21 Co2 2.021 . S
H22 C13 0.930 . S
H23 C12 0.931 . S
O24 Co0 2.117 1_546 S
O24 C1 1.258 . S
O25 Co0 2.020 1_545 S
O25 C27 1.256 1_554 S
O26 Co2 2.062 1_455 S
O26 C27 1.255 . S
C27 O25 1.256 1_556 S
C27 O26 1.255 . S
H28 C7 0.931 . S
H29 C15 0.931 . S
Co30 N35 2.057 . S
Co30 O47 2.021 . S
Co30 O50 2.062 . S
Co30 O54 2.117 . S
Co30 O55 2.020 . S
C31 O51 1.259 . S
C31 O54 1.258 . S
Co32 N41 2.057 . S
Co32 O48 2.117 . S
Co32 O49 2.020 . S
Co32 O51 2.021 . S
Co32 O56 2.062 . S
C33 N35 1.316 . S
C33 N36 1.347 . S
C33 H38 0.931 . S
C34 N35 1.375 . S
C34 C37 1.350 . S
C34 H39 0.930 . S
N35 Co30 2.057 . S
N35 C33 1.316 . S
N35 C34 1.375 . S
N36 C33 1.347 . S
N36 C37 1.373 . S
C37 C34 1.350 . S
C37 N36 1.373 . S
C37 H58 0.931 . S
H38 C33 0.931 . S
H39 C34 0.930 . S
C40 O47 1.259 . S
C40 O48 1.258 . S
N41 Co32 2.057 . S
N41 C42 1.316 . S
N41 C43 1.375 . S
C42 N41 1.316 . S
C42 N44 1.347 . S
C42 H53 0.931 . S
C43 N41 1.375 . S
C43 C45 1.350 . S
C43 H52 0.930 . S
N44 C42 1.347 . S
N44 C45 1.373 . S
C45 C43 1.350 . S
C45 N44 1.373 . S
C45 H59 0.931 . S
C46 O49 1.256 . S
C46 O50 1.255 . S
O47 Co30 2.021 . S
O47 C40 1.259 . S
O48 Co32 2.117 . S
O48 C40 1.258 . S
O49 Co32 2.020 . S
O49 C46 1.256 . S
O50 Co30 2.062 . S
O50 C46 1.255 . S
O51 C31 1.259 . S
O51 Co32 2.021 . S
H52 C43 0.930 . S
H53 C42 0.931 . S
O54 Co30 2.117 . S
O54 C31 1.258 . S
O55 Co30 2.020 . S
O55 C57 1.256 . S
O56 Co32 2.062 . S
O56 C57 1.255 . S
C57 O55 1.256 . S
C57 O56 1.255 . S
H58 C37 0.931 . S
H59 C45 0.931 . S
H60 C67 0.929 . S
H61 C70 0.930 . S
H62 C72 0.929 . S
H63 C64 0.969 . S
C64 H63 0.969 . S
C64 O65 1.550 . S
C64 H66 0.973 . S
O65 C64 1.550 . S
O65 C71 1.412 . S
H66 C64 0.973 . S
C67 H60 0.929 . S
C67 C68 1.400 . S
C67 C69 1.364 . S
C68 C67 1.400 . S
C68 C72 1.377 . S
C69 C67 1.364 . S
C69 C70 1.374 1_465 S
C70 H61 0.930 . S
C70 C69 1.374 1_645 S
C70 C71 1.383 . S
C71 O65 1.412 . S
C71 C70 1.383 . S
C71 C72 1.394 1_645 S
C72 H62 0.929 . S
C72 C68 1.377 . S
C72 C71 1.394 1_465 S
H73 C80 0.929 . S
H74 C83 0.930 1_565 S
H75 C85 0.929 . S
H76 C77 0.969 . S
C77 H76 0.969 . S
C77 O78 1.550 . S
C77 H79 0.973 . S
O78 C77 1.550 . S
O78 C84 1.412 1_565 S
H79 C77 0.973 . S
C80 H73 0.929 . S
C80 C81 1.400 . S
C80 C82 1.364 . S
C81 C80 1.400 . S
C81 C85 1.377 . S
C82 C80 1.364 . S
C82 C83 1.374 1_455 S
C83 H74 0.930 1_545 S
C83 C82 1.374 1_655 S
C83 C84 1.383 . S
C84 O78 1.412 1_545 S
C84 C83 1.383 . S
C84 C85 1.394 1_655 S
C85 H75 0.929 . S
C85 C81 1.377 . S
C85 C84 1.394 1_455 S
H86 C93 0.929 . S
H87 C96 0.930 . S
H88 C98 0.929 1_554 S
H89 C90 0.969 . S
C90 H89 0.969 . S
C90 O91 1.555 . S
C90 H92 0.973 . S
O91 C90 1.555 . S
O91 C97 1.424 . S
H92 C90 0.973 . S
C93 H86 0.929 . S
C93 C94 1.400 . S
C93 C95 1.364 . S
C94 C93 1.400 . S
C94 C98 1.377 . S
C95 C93 1.364 . S
C95 C96 1.374 . S
C96 H87 0.930 . S
C96 C95 1.374 . S
C96 C97 1.383 . S
C97 O91 1.424 . S
C97 C96 1.383 . S
C97 C98 1.394 . S
C98 H88 0.929 1_556 S
C98 C94 1.377 . S
C98 C97 1.394 . S
H99 C106 0.929 . S
H100 C109 0.930 . S
H101 C111 0.929 1_556 S
H102 C103 0.969 . S
C103 H102 0.969 . S
C103 O104 1.550 . S
C103 H105 0.973 . S
O104 C103 1.550 . S
O104 C110 1.412 . S
H105 C103 0.973 . S
C106 H99 0.929 . S
C106 C107 1.400 . S
C106 C108 1.364 . S
C107 C106 1.400 . S
C107 C111 1.377 . S
C108 C106 1.364 . S
C108 C109 1.374 . S
C109 H100 0.930 . S
C109 C108 1.374 . S
C109 C110 1.383 . S
C110 O104 1.412 . S
C110 C109 1.383 . S
C110 C111 1.394 . S
C111 H101 0.929 1_554 S
C111 C107 1.377 . S
C111 C110 1.394 . S
C112 C113 1.387 1_554 S
C112 H116 0.950 . S
C112 C121 1.390 . S
C113 C112 1.387 1_556 S
C113 C115 1.387 . S
H114 C121 0.950 . S
C115 C113 1.387 . S
C115 C117 1.390 . S
C115 H119 0.950 . S
H116 C112 0.950 . S
C117 C115 1.390 . S
C117 C118 1.387 1_556 S
C117 H120 0.950 . S
C118 C117 1.387 1_554 S
C118 C121 1.387 . S
H119 C115 0.950 . S
H120 C117 0.950 . S
C121 C112 1.390 . S
C121 H114 0.950 . S
C121 C118 1.387 . S
C122 C123 1.387 . S
C122 H126 0.950 . S
C122 C131 1.390 . S
C123 C122 1.387 . S
C123 C125 1.387 1_554 S
H124 C131 0.950 . S
C125 C123 1.387 1_556 S
C125 C127 1.390 . S
C125 H129 0.950 . S
H126 C122 0.950 . S
C127 C125 1.390 . S
C127 C128 1.387 1_556 S
C127 H130 0.950 . S
C128 C127 1.387 1_554 S
C128 C131 1.387 . S
H129 C125 0.950 . S
H130 C127 0.950 . S
C131 C122 1.390 . S
C131 H124 0.950 . S
C131 C128 1.387 . S
C132 C133 1.387 1_556 S
C132 H136 0.950 . S
C132 C141 1.390 . S
C133 C132 1.387 1_554 S
C133 C135 1.387 . S
H134 C141 0.950 . S
C135 C133 1.387 . S
C135 C137 1.390 . S
C135 H139 0.950 . S
H136 C132 0.950 . S
C137 C135 1.390 . S
C137 C138 1.387 . S
C137 H140 0.950 . S
C138 C137 1.387 . S
C138 C141 1.387 1_554 S
H139 C135 0.950 . S
H140 C137 0.950 . S
C141 C132 1.390 . S
C141 H134 0.950 . S
C141 C138 1.387 1_556 S
C142 C143 1.387 1_554 S
C142 H146 0.950 . S
C142 C151 1.390 . S
C143 C142 1.387 1_556 S
C143 C145 1.387 . S
H144 C151 0.950 . S
C145 C143 1.387 . S
C145 C147 1.390 . S
C145 H149 0.950 . S
H146 C142 0.950 . S
C147 C145 1.390 . S
C147 C148 1.387 . S
C147 H150 0.950 . S
C148 C147 1.387 . S
C148 C151 1.387 1_556 S
H149 C145 0.950 . S
H150 C147 0.950 . S
C151 C142 1.390 . S
C151 H144 0.950 . S
C151 C148 1.387 1_554 S
C152 C153 1.387 . S
C152 H156 0.950 . S
C152 C161 1.390 . S
C153 C152 1.387 . S
C153 C155 1.387 . S
H154 C161 0.950 . S
C155 C153 1.387 . S
C155 C157 1.390 . S
C155 H159 0.950 . S
H156 C152 0.950 . S
C157 C155 1.390 . S
C157 C158 1.387 . S
C157 H160 0.950 . S
C158 C157 1.387 . S
C158 C161 1.387 . S
H159 C155 0.950 . S
H160 C157 0.950 . S
C161 C152 1.390 . S
C161 H154 0.950 . S
C161 C158 1.387 . S
C162 C163 1.387 . S
C162 H166 0.950 . S
C162 C171 1.390 . S
C163 C162 1.387 . S
C163 C165 1.387 . S
H164 C171 0.950 . S
C165 C163 1.387 . S
C165 C167 1.390 . S
C165 H169 0.950 . S
H166 C162 0.950 . S
C167 C165 1.390 . S
C167 C168 1.387 . S
C167 H170 0.950 . S
C168 C167 1.387 . S
C168 C171 1.387 . S
H169 C165 0.950 . S
H170 C167 0.950 . S
C171 C162 1.390 . S
C171 H164 0.950 . S
C171 C168 1.387 . S
C172 C173 1.387 . S
C172 H176 0.950 . S
C172 C181 1.390 . S
C173 C172 1.387 . S
C173 C175 1.387 . S
H174 C181 0.950 . S
C175 C173 1.387 . S
C175 C177 1.390 . S
C175 H179 0.950 . S
H176 C172 0.950 . S
C177 C175 1.390 . S
C177 C178 1.387 . S
C177 H180 0.950 . S
C178 C177 1.387 . S
C178 C181 1.387 . S
H179 C175 0.950 . S
H180 C177 0.950 . S
C181 C172 1.390 . S
C181 H174 0.950 . S
C181 C178 1.387 . S
C182 C183 1.387 . S
C182 H186 0.950 . S
C182 C191 1.390 . S
C183 C182 1.387 . S
C183 C185 1.387 . S
H184 C191 0.950 . S
C185 C183 1.387 . S
C185 C187 1.390 . S
C185 H189 0.950 . S
H186 C182 0.950 . S
C187 C185 1.390 . S
C187 C188 1.387 . S
C187 H190 0.950 . S
C188 C187 1.387 . S
C188 C191 1.387 . S
H189 C185 0.950 . S
H190 C187 0.950 . S
C191 C182 1.390 . S
C191 H184 0.950 . S
C191 C188 1.387 . S
C192 C193 1.387 1_655 S
C192 H196 0.950 . S
C192 C201 1.390 . S
C193 C192 1.387 1_455 S
C193 C195 1.388 1_545 S
H194 C201 0.950 . S
C195 C193 1.388 1_565 S
C195 C197 1.390 . S
C195 H199 0.950 . S
H196 C192 0.950 . S
C197 C195 1.390 . S
C197 C198 1.387 . S
C197 H200 0.950 . S
C198 C197 1.387 . S
C198 C201 1.387 1_465 S
H199 C195 0.950 . S
H200 C197 0.950 . S
C201 C192 1.390 . S
C201 H194 0.950 . S
C201 C198 1.387 1_645 S
C202 C203 1.387 1_565 S
C202 H206 0.950 . S
C202 C211 1.390 . S
C203 C202 1.387 1_545 S
C203 C205 1.387 . S
H204 C211 0.950 . S
C205 C203 1.387 . S
C205 C207 1.390 . S
C205 H209 0.950 1_455 S
H206 C202 0.950 . S
C207 C205 1.390 . S
C207 C208 1.387 . S
C207 H210 0.950 1_455 S
C208 C207 1.387 . S
C208 C211 1.387 1_545 S
H209 C205 0.950 1_655 S
H210 C207 0.950 1_655 S
C211 C202 1.390 . S
C211 H204 0.950 . S
C211 C208 1.387 1_565 S
C212 C213 1.387 . S
C212 H216 0.950 . S
C212 C221 1.390 . S
C213 C212 1.387 . S
C213 C215 1.387 . S
H214 C221 0.950 . S
C215 C213 1.387 . S
C215 C217 1.390 . S
C215 H219 0.950 . S
H216 C212 0.950 . S
C217 C215 1.390 . S
C217 C218 1.387 . S
C217 H220 0.950 . S
C218 C217 1.387 . S
C218 C221 1.387 . S
H219 C215 0.950 . S
H220 C217 0.950 . S
C221 C212 1.390 . S
C221 H214 0.950 . S
C221 C218 1.387 . S
C222 C223 1.387 . S
C222 H226 0.950 . S
C222 C231 1.390 . S
C223 C222 1.387 . S
C223 C225 1.387 . S
H224 C231 0.950 . S
C225 C223 1.387 . S
C225 C227 1.390 . S
C225 H229 0.950 . S
H226 C222 0.950 . S
C227 C225 1.390 . S
C227 C228 1.387 . S
C227 H230 0.950 . S
C228 C227 1.387 . S
C228 C231 1.387 . S
H229 C225 0.950 . S
H230 C227 0.950 . S
C231 C222 1.390 . S
C231 H224 0.950 . S
C231 C228 1.387 . S
C118 C103 1.354 . S
C113 C27 1.490 . S
C123 N6 1.424 . S
C128 C90 1.361 1_554 S
C133 C16 1.503 . S
C138 C107 1.482 . S
C143 N14 1.445 1_556 S
C148 C94 1.461 . S
C153 C57 1.491 . S
C158 C77 1.351 . S
C163 N36 1.423 . S
C168 C64 1.362 . S
C178 C81 1.483 . S
C173 C46 1.504 . S
C188 C68 1.460 . S
C183 N44 1.442 . S
C193 C10 1.472 . S
C198 C69 1.473 . S
C203 C1 1.557 . S
C208 C82 1.559 . S
C218 C95 1.474 . S
C213 C40 1.472 . S
C223 C31 1.557 . S
C228 C108 1.559 . S
