# Generated by pormake.
# Topology anh, (6,3)-cn, num edge types: 1
# Building blocks:
#     Node 0, Type 0, BuildingBlock: BETFEN_clean_sbu_0, # of connection points: 6
#     Node 1, Type 0, BuildingBlock: BETFEN_clean_sbu_0, # of connection points: 6
#     Node 2, Type 0, BuildingBlock: BETFEN_clean_sbu_0, # of connection points: 6
#     Node 3, Type 1, BuildingBlock: INOVEN_clean_linker_0, # of connection points: 3
#     Node 4, Type 1, BuildingBlock: INOVEN_clean_linker_0, # of connection points: 3
#     Node 5, Type 1, BuildingBlock: INOVEN_clean_linker_0, # of connection points: 3
#     Node 6, Type 1, BuildingBlock: INOVEN_clean_linker_0, # of connection points: 3
#     Node 7, Type 1, BuildingBlock: INOVEN_clean_linker_0, # of connection points: 3
#     Node 8, Type 1, BuildingBlock: INOVEN_clean_linker_0, # of connection points: 3
#     Edge 9, Type (0, 1), None
#     Edge 10, Type (0, 1), None
#     Edge 11, Type (0, 1), None
#     Edge 12, Type (0, 1), None
#     Edge 13, Type (0, 1), None
#     Edge 14, Type (0, 1), None
#     Edge 15, Type (0, 1), None
#     Edge 16, Type (0, 1), None
#     Edge 17, Type (0, 1), None
#     Edge 18, Type (0, 1), None
#     Edge 19, Type (0, 1), None
#     Edge 20, Type (0, 1), None
#     Edge 21, Type (0, 1), None
#     Edge 22, Type (0, 1), None
#     Edge 23, Type (0, 1), None
#     Edge 24, Type (0, 1), None
#     Edge 25, Type (0, 1), None
#     Edge 26, Type (0, 1), None
# Relax obj value: 0.402
# Max RMSD: 0.284
# Mean RMSD: 0.149
data_MOF--net-anh--node1-BETFEN_clean_sbu_0--node2-INOVEN_clean_linker_0--edge1-none
_symmetry_space_group_name_H-M    P1
_symmetry_Int_Tables_number       1
_symmetry_cell_setting            triclinic
loop_
_symmetry_equiv_pos_as_xyz
'x, y, z'
_cell_length_a     13.152387
_cell_length_b     13.423733
_cell_length_c     22.793039
_cell_angle_alpha  92.861284
_cell_angle_beta   94.888299
_cell_angle_gamma 82.330164
loop_
_atom_site_label
_atom_site_type_symbol
_atom_site_fract_x
_atom_site_fract_y
_atom_site_fract_z
_atom_type_partial_charge
Pr0 Pr 0.09634 0.66192 0.11132 0.0
Pr1 Pr 0.08855 0.87061 0.10389 0.0
C2 C 0.06334 0.47585 0.13477 0.0
C3 C 0.98476 0.44394 0.16855 0.0
C4 C 0.94149 0.35633 0.15161 0.0
C5 C 0.86223 0.32972 0.1821 0.0
C6 C 0.82451 0.392 0.22915 0.0
C7 C 0.86693 0.47997 0.24535 0.0
C8 C 0.94528 0.5067 0.21458 0.0
C9 C 0.10928 0.71324 -0.00489 0.0
C10 C 0.86876 0.795 0.0966 0.0
C11 C 0.11273 1.06168 0.08765 0.0
C12 C 0.18623 1.12314 0.11946 0.0
C13 C 0.15622 1.1862 0.16764 0.0
C14 C 0.22845 0.23303 0.20349 0.0
C15 C 0.3335 1.21372 0.19371 0.0
C16 C 0.36309 1.15137 0.14485 0.0
C17 C 0.29019 1.10837 0.10756 0.0
C18 C 0.07857 0.81912 0.22037 0.0
C19 C 0.3216 0.73337 0.1103 0.0
O20 O 0.13227 0.52319 0.1652 0.0
O21 O 1.02819 0.5185 0.08561 0.0
O22 O 0.04544 0.75798 0.02916 0.0
O23 O 0.17029 0.64225 0.02118 0.0
O24 O 0.91943 0.85535 0.07018 0.0
O25 O 0.92229 0.72332 0.12798 0.0
O26 O 0.15205 0.9868 0.05414 0.0
O27 O 0.04119 1.03737 0.11859 0.0
O28 O 0.14029 0.77309 0.18574 0.0
O29 O 1.02156 0.89386 0.19563 0.0
O30 O 0.27474 0.6558 0.11959 0.0
O31 O 0.26803 0.82204 0.10039 0.0
H32 H 0.9678 0.30959 0.11434 0.0
H33 H 0.82911 0.26189 0.16822 0.0
H34 H 0.83558 0.53046 0.2798 0.0
H35 H 0.97183 0.57849 0.225 0.0
H36 H 0.07759 1.19555 0.17942 0.0
H37 H 0.20175 0.28209 0.23968 0.0
H38 H 0.44309 1.13182 0.13629 0.0
H39 H 0.31655 1.05904 0.07132 0.0
Pr40 Pr 0.60389 0.29318 0.51448 0.0
Pr41 Pr 0.37063 0.29831 0.50151 0.0
C42 C 0.8043 0.28821 0.49674 0.0
C43 C 0.86884 0.36559 0.48321 0.0
C44 C 0.91083 0.42814 0.52779 0.0
C45 C 0.96406 0.50628 0.51329 0.0
C46 C 0.97821 0.52185 0.45434 0.0
C47 C 0.94027 0.4565 0.41013 0.0
C48 C 0.88483 0.38063 0.4243 0.0
C49 C 0.50684 0.32873 0.6188 0.0
C50 C 0.46862 0.5162 0.52166 0.0
C51 C 0.17524 0.25858 0.49824 0.0
C52 C 0.1326 1.16498 0.47833 0.0
C53 C 0.06426 1.16598 0.42771 0.0
C54 C 0.0402 1.07645 0.39984 0.0
C55 C 0.0874 0.98322 0.42061 0.0
C56 C 0.15047 0.98169 0.47366 0.0
C57 C 0.17263 1.07187 0.50244 0.0
C58 C 0.45777 0.32277 0.397 0.0
C59 C 0.51757 1.07013 0.51547 0.0
O60 O 0.73453 0.26723 0.45519 0.0
O61 O 0.77112 0.29174 0.54945 0.0
O62 O 0.48614 0.26631 0.57846 0.0
O63 O 0.58939 0.36733 0.60988 0.0
O64 O 0.39377 0.46726 0.53759 0.0
O65 O 0.54734 0.46441 0.49668 0.0
O66 O 0.23581 0.25631 0.5468 0.0
O67 O 0.20985 0.30513 0.45669 0.0
O68 O 0.49303 0.2591 0.43483 0.0
O69 O 0.37415 0.37585 0.41271 0.0
O70 O 0.59796 1.12036 0.52448 0.0
O71 O 0.42377 1.11835 0.50221 0.0
H72 H 0.90007 0.41872 0.57367 0.0
H73 H 0.99226 0.55611 0.54796 0.0
H74 H 0.9505 0.46596 0.3643 0.0
H75 H 0.85421 0.3337 0.38882 0.0
H76 H 0.03577 0.23574 0.40686 0.0
H77 H 0.98956 1.0805 0.35975 0.0
H78 H 0.1884 0.91117 0.4907 0.0
H79 H 0.2266 1.06823 0.54115 0.0
Pr80 Pr 0.69638 0.6003 0.8154 0.0
Pr81 Pr 0.63457 0.79973 0.79928 0.0
C82 C 0.7812 0.41142 0.83857 0.0
C83 C 0.73287 0.3367 0.86755 0.0
C84 C 0.64581 0.3752 0.89745 0.0
C85 C 0.55084 0.34563 0.87721 0.0
C86 C 0.54791 0.27372 0.83069 0.0
C87 C 0.63913 1.2091 0.82092 0.0
C88 C 0.73343 0.24242 0.83854 0.0
C89 C 0.65428 0.70485 0.921 0.0
C90 C 0.88031 0.73738 0.811 0.0
C91 C 0.53465 0.9869 0.80406 0.0
C92 C 0.43097 1.03436 0.78312 0.0
C93 C 0.40507 1.05311 0.72319 0.0
C94 C 0.31127 1.10934 0.70558 0.0
C95 C 0.24331 1.14894 0.74775 0.0
C96 C 0.26355 1.1204 0.8062 0.0
C97 C 0.35745 1.06453 0.82399 0.0
C98 C 0.64132 0.70543 0.68771 0.0
C99 C 0.44852 0.65356 0.80798 0.0
O100 O 0.80226 0.48914 0.87165 0.0
O101 O 0.73595 0.43674 0.78694 0.0
O102 O 0.71068 0.73098 0.8841 0.0
O103 O 0.61076 0.62771 0.9018 0.0
O104 O 0.80918 0.8079 0.82919 0.0
O105 O 0.84933 0.65416 0.78728 0.0
O106 O 0.53839 0.9249 0.84676 0.0
O107 O 0.60023 0.95674 0.7647 0.0
O108 O 0.60658 0.6688 0.73101 0.0
O109 O 0.68832 0.78235 0.70468 0.0
O110 O 0.52176 0.57651 0.80628 0.0
O111 O 0.47283 0.74575 0.80944 0.0
H112 H 0.64624 0.44289 0.9252 0.0
H113 H 0.48137 0.39284 0.88867 0.0
H114 H 0.63846 1.14974 0.78706 0.0
H115 H 0.80119 1.20768 0.81779 0.0
H116 H 0.45911 1.02925 0.69037 0.0
H117 H 0.2962 1.1306 0.66012 0.0
H118 H 0.21196 1.1508 0.83914 0.0
H119 H 0.37484 1.04987 0.87032 0.0
H120 H 0.51824 0.26519 0.16868 0.0
H121 H 0.32817 0.25528 0.313 0.0
H122 H 0.62913 0.34643 0.34436 0.0
N123 N 0.67433 0.3223 0.22976 0.0
N124 N 0.73711 0.37324 0.25645 0.0
C125 C 0.50562 0.27329 0.2151 0.0
C126 C 0.41265 0.25439 0.2353 0.0
C127 C 0.58344 0.30505 0.25382 0.0
C128 C 0.56896 0.32112 0.31403 0.0
C129 C 0.47556 0.30538 0.33469 0.0
C130 C 0.39813 0.2713 0.29562 0.0
H131 H 0.42091 0.71328 0.47658 0.0
H132 H 0.56005 0.55028 0.6286 0.0
H133 H 0.5908 0.86148 0.61773 0.0
N134 N 0.47699 0.89891 0.51769 0.0
N135 N 0.53431 0.96605 0.53113 0.0
C136 C 0.46448 0.71134 0.5191 0.0
C137 C 0.48664 0.61831 0.54907 0.0
C138 C 0.50161 0.80124 0.54404 0.0
C139 C 0.56298 0.79427 0.59781 0.0
C140 C 0.58432 0.70453 0.6283 0.0
C141 C 0.54383 0.61848 0.6044 0.0
H142 H 0.06982 0.71465 0.75842 0.0
H143 H 0.93437 0.75429 0.92476 0.0
H144 H 0.2606 0.68419 0.92195 0.0
N145 N 0.26945 0.69746 0.8074 0.0
N146 N 0.34859 0.63884 0.82278 0.0
C147 C 0.07754 0.71568 0.80612 0.0
C148 C 0.98839 0.73385 0.8382 0.0
C149 C 0.17701 0.69913 0.83652 0.0
C150 C 0.18519 0.69731 0.89834 0.0
C151 C 0.09831 0.71901 0.9303 0.0
C152 C 1.00124 0.73972 0.90004 0.0
H153 H 0.06203 0.7938 0.45285 0.0
H154 H 0.09359 0.96608 0.30232 0.0
H155 H 0.08635 0.6488 0.2811 0.0
N156 N 0.04159 0.61984 0.38817 0.0
N157 N 1.02075 0.60862 0.43966 0.0
C158 C 0.07227 0.79739 0.40639 0.0
C159 C 0.08209 0.8903 0.38274 0.0
C160 C 0.07114 0.71024 0.36921 0.0
C161 C 0.08493 0.71593 0.30921 0.0
C162 C 0.08777 0.80878 0.28469 0.0
C163 C 0.0877 0.89506 0.3216 0.0
H164 H 0.33621 0.30638 0.82104 0.0
H165 H 0.60304 0.30815 0.72413 0.0
H166 H 0.30232 0.35636 0.63501 0.0
N167 N 0.20048 0.31894 0.72522 0.0
N168 N 0.17193 0.23613 0.73528 0.0
C169 C 0.36998 0.31599 0.78032 0.0
C170 C 0.47714 0.30112 0.77855 0.0
C171 C 0.30631 0.33364 0.72796 0.0
C172 C 0.35092 0.34553 0.67546 0.0
C173 C 0.45824 0.33602 0.67448 0.0
C174 C 0.52019 0.31637 0.72595 0.0
H175 H 0.68204 0.80696 0.1516 0.0
H176 H 0.81847 0.75573 -0.01404 0.0
H177 H 0.50245 0.72106 -0.006 0.0
N178 N 0.48743 0.77861 0.10555 0.0
N179 N 0.42575 0.71519 0.0962 0.0
C180 C 0.67593 0.78705 0.10492 0.0
C181 C 0.76315 0.78224 0.07179 0.0
C182 C 0.5805 0.76553 0.07652 0.0
C183 C 0.57482 0.73796 0.01614 0.0
C184 C 0.65976 0.73707 -0.01661 0.0
C185 C 0.75233 0.7603 0.01119 0.0
loop_
_geom_bond_atom_site_label_1
_geom_bond_atom_site_label_2
_geom_bond_distance
_geom_bond_site_symmetry_2
_ccdc_geom_bond_type
Pr0 C2 2.880 . S
Pr0 O20 2.562 . S
Pr0 O21 2.490 . S
Pr0 O22 2.695 1_655 S
Pr0 O23 2.512 . S
Pr0 O25 2.437 . S
Pr0 O28 2.436 . S
Pr0 O30 2.438 1_655 S
Pr1 C11 2.880 . S
Pr1 O22 2.436 . S
Pr1 O24 2.438 1_455 S
Pr1 O26 2.562 . S
Pr1 O27 2.490 . S
Pr1 O28 2.695 1_455 S
Pr1 O29 2.512 . S
Pr1 O31 2.437 . S
C2 Pr0 2.880 . S
C2 C3 1.491 . S
C2 O20 1.254 . S
C2 O21 1.225 . S
C3 C2 1.491 . S
C3 C4 1.392 . S
C3 C8 1.356 . S
C4 C3 1.392 . S
C4 C5 1.368 . S
C4 H32 0.929 . S
C5 C4 1.368 . S
C5 C6 1.386 . S
C5 H33 0.929 . S
C6 C5 1.386 . S
C6 C7 1.373 . S
C7 C6 1.373 . S
C7 C8 1.409 . S
C7 H34 0.931 . S
C8 C3 1.356 . S
C8 C7 1.409 . S
C8 H35 0.930 . S
C9 O22 1.270 . S
C9 O23 1.248 1_455 S
C10 O24 1.267 . S
C10 O25 1.278 . S
C11 Pr1 2.880 . S
C11 C12 1.491 . S
C11 O26 1.254 . S
C11 O27 1.225 . S
C12 C11 1.491 . S
C12 C13 1.392 . S
C12 C17 1.356 . S
C13 C12 1.392 . S
C13 C14 1.368 . S
C13 H36 0.929 . S
C14 C13 1.368 . S
C14 C15 1.386 . S
C14 H37 0.929 . S
C15 C14 1.386 . S
C15 C16 1.373 . S
C16 C15 1.373 . S
C16 C17 1.409 . S
C16 H38 0.931 . S
C17 C12 1.356 . S
C17 C16 1.409 . S
C17 H39 0.930 . S
C18 O28 1.270 1_455 S
C18 O29 1.248 . S
C19 O30 1.267 . S
C19 O31 1.278 . S
O20 Pr0 2.562 . S
O20 C2 1.254 . S
O21 Pr0 2.490 . S
O21 C2 1.225 . S
O22 Pr0 2.695 1_455 S
O22 Pr1 2.436 . S
O22 C9 1.270 . S
O23 Pr0 2.512 . S
O23 C9 1.248 1_655 S
O24 Pr1 2.438 1_655 S
O24 C10 1.267 . S
O25 Pr0 2.437 . S
O25 C10 1.278 . S
O26 Pr1 2.562 . S
O26 C11 1.254 . S
O27 Pr1 2.490 . S
O27 C11 1.225 . S
O28 Pr0 2.436 . S
O28 Pr1 2.695 1_655 S
O28 C18 1.270 1_655 S
O29 Pr1 2.512 . S
O29 C18 1.248 . S
O30 Pr0 2.438 1_455 S
O30 C19 1.267 . S
O31 Pr1 2.437 . S
O31 C19 1.278 . S
H32 C4 0.929 . S
H33 C5 0.929 . S
H34 C7 0.931 . S
H35 C8 0.930 . S
H36 C13 0.929 . S
H37 C14 0.929 . S
H38 C16 0.931 . S
H39 C17 0.930 . S
Pr40 C42 2.880 . S
Pr40 O60 2.562 . S
Pr40 O61 2.490 . S
Pr40 O62 2.695 . S
Pr40 O63 2.512 . S
Pr40 O65 2.437 . S
Pr40 O68 2.436 . S
Pr40 O70 2.438 1_545 S
Pr41 C51 2.880 1_545 S
Pr41 O62 2.436 . S
Pr41 O64 2.438 . S
Pr41 O66 2.562 1_545 S
Pr41 O67 2.490 1_545 S
Pr41 O68 2.695 . S
Pr41 O69 2.512 . S
Pr41 O71 2.437 1_545 S
C42 Pr40 2.880 . S
C42 C43 1.491 . S
C42 O60 1.254 . S
C42 O61 1.225 . S
C43 C42 1.491 . S
C43 C44 1.392 . S
C43 C48 1.356 . S
C44 C43 1.392 . S
C44 C45 1.368 . S
C44 H72 0.929 . S
C45 C44 1.368 . S
C45 C46 1.386 . S
C45 H73 0.929 . S
C46 C45 1.386 . S
C46 C47 1.373 . S
C47 C46 1.373 . S
C47 C48 1.409 . S
C47 H74 0.931 . S
C48 C43 1.356 . S
C48 C47 1.409 . S
C48 H75 0.930 . S
C49 O62 1.270 . S
C49 O63 1.248 . S
C50 O64 1.267 . S
C50 O65 1.278 . S
C51 Pr41 2.880 1_565 S
C51 C52 1.491 . S
C51 O66 1.254 . S
C51 O67 1.225 . S
C52 C51 1.491 . S
C52 C53 1.392 . S
C52 C57 1.356 . S
C53 C52 1.392 . S
C53 C54 1.368 . S
C53 H76 0.929 . S
C54 C53 1.368 . S
C54 C55 1.386 . S
C54 H77 0.929 . S
C55 C54 1.386 . S
C55 C56 1.373 . S
C56 C55 1.373 . S
C56 C57 1.409 . S
C56 H78 0.931 . S
C57 C52 1.356 . S
C57 C56 1.409 . S
C57 H79 0.930 . S
C58 O68 1.270 . S
C58 O69 1.248 . S
C59 O70 1.267 . S
C59 O71 1.278 . S
O60 Pr40 2.562 . S
O60 C42 1.254 . S
O61 Pr40 2.490 . S
O61 C42 1.225 . S
O62 Pr40 2.695 . S
O62 Pr41 2.436 . S
O62 C49 1.270 . S
O63 Pr40 2.512 . S
O63 C49 1.248 . S
O64 Pr41 2.438 . S
O64 C50 1.267 . S
O65 Pr40 2.437 . S
O65 C50 1.278 . S
O66 Pr41 2.562 1_565 S
O66 C51 1.254 . S
O67 Pr41 2.490 1_565 S
O67 C51 1.225 . S
O68 Pr40 2.436 . S
O68 Pr41 2.695 . S
O68 C58 1.270 . S
O69 Pr41 2.512 . S
O69 C58 1.248 . S
O70 Pr40 2.438 1_565 S
O70 C59 1.267 . S
O71 Pr41 2.437 1_565 S
O71 C59 1.278 . S
H72 C44 0.929 . S
H73 C45 0.929 . S
H74 C47 0.931 . S
H75 C48 0.930 . S
H76 C53 0.929 . S
H77 C54 0.929 . S
H78 C56 0.931 . S
H79 C57 0.930 . S
Pr80 C82 2.880 . S
Pr80 O100 2.562 . S
Pr80 O101 2.490 . S
Pr80 O102 2.695 . S
Pr80 O103 2.505 1_556 S
Pr80 O105 2.437 . S
Pr80 O108 2.436 . S
Pr80 O110 2.438 . S
Pr81 C91 2.880 . S
Pr81 O102 2.436 . S
Pr81 O104 2.438 . S
Pr81 O106 2.562 . S
Pr81 O107 2.490 . S
Pr81 O108 2.695 . S
Pr81 O109 2.512 . S
Pr81 O111 2.437 . S
C82 Pr80 2.880 . S
C82 C83 1.491 . S
C82 O100 1.254 . S
C82 O101 1.225 . S
C83 C82 1.491 . S
C83 C84 1.392 . S
C83 C88 1.356 . S
C84 C83 1.392 . S
C84 C85 1.368 . S
C84 H112 0.929 . S
C85 C84 1.368 . S
C85 C86 1.386 . S
C85 H113 0.929 . S
C86 C85 1.386 . S
C86 C87 1.373 . S
C87 C86 1.373 . S
C87 C88 1.409 . S
C87 H114 0.931 . S
C88 C83 1.356 . S
C88 C87 1.409 . S
C88 H115 0.930 . S
C89 O102 1.283 . S
C89 O103 1.247 1_556 S
C90 O104 1.267 . S
C90 O105 1.278 . S
C91 Pr81 2.880 . S
C91 C92 1.491 . S
C91 O106 1.254 . S
C91 O107 1.225 . S
C92 C91 1.491 . S
C92 C93 1.392 . S
C92 C97 1.356 . S
C93 C92 1.392 . S
C93 C94 1.368 . S
C93 H116 0.929 . S
C94 C93 1.368 . S
C94 C95 1.386 . S
C94 H117 0.929 . S
C95 C94 1.386 . S
C95 C96 1.373 . S
C96 C95 1.373 . S
C96 C97 1.409 . S
C96 H118 0.931 . S
C97 C92 1.356 . S
C97 C96 1.409 . S
C97 H119 0.930 . S
C98 O108 1.270 . S
C98 O109 1.248 . S
C99 O110 1.267 . S
C99 O111 1.278 . S
O100 Pr80 2.562 . S
O100 C82 1.254 . S
O101 Pr80 2.490 . S
O101 C82 1.225 . S
O102 Pr80 2.695 . S
O102 Pr81 2.436 . S
O102 C89 1.283 . S
O103 Pr80 2.505 1_554 S
O103 C89 1.247 1_554 S
O104 Pr81 2.438 . S
O104 C90 1.267 . S
O105 Pr80 2.437 . S
O105 C90 1.278 . S
O106 Pr81 2.562 . S
O106 C91 1.254 . S
O107 Pr81 2.490 . S
O107 C91 1.225 . S
O108 Pr80 2.436 . S
O108 Pr81 2.695 . S
O108 C98 1.270 . S
O109 Pr81 2.512 . S
O109 C98 1.248 . S
O110 Pr80 2.438 . S
O110 C99 1.267 . S
O111 Pr81 2.437 . S
O111 C99 1.278 . S
H112 C84 0.929 . S
H113 C85 0.929 . S
H114 C87 0.931 . S
H115 C88 0.930 . S
H116 C93 0.929 . S
H117 C94 0.929 . S
H118 C96 0.931 . S
H119 C97 0.930 . S
H120 C125 0.929 . S
H121 C130 0.931 . S
H122 C128 0.930 . S
N123 N124 1.234 . S
N123 C127 1.453 . S
N124 N123 1.234 . S
C125 H120 0.929 . S
C125 C126 1.373 . S
C125 C127 1.368 1_565 S
C126 C125 1.373 . S
C126 C130 1.397 . S
C127 N123 1.453 . S
C127 C125 1.368 1_545 S
C127 C128 1.373 . S
C128 H122 0.930 . S
C128 C127 1.373 . S
C128 C129 1.371 . S
C129 C128 1.371 . S
C129 C130 1.383 1_545 S
C130 H121 0.931 . S
C130 C126 1.397 . S
C130 C129 1.383 1_565 S
H131 C136 0.929 . S
H132 C141 0.931 . S
H133 C139 0.930 . S
N134 N135 1.234 . S
N134 C138 1.453 . S
N135 N134 1.234 . S
C136 H131 0.929 . S
C136 C137 1.373 . S
C136 C138 1.368 . S
C137 C136 1.373 . S
C137 C141 1.397 . S
C138 N134 1.453 . S
C138 C136 1.368 . S
C138 C139 1.373 . S
C139 H133 0.930 . S
C139 C138 1.373 . S
C139 C140 1.371 . S
C140 C139 1.371 . S
C140 C141 1.383 . S
C141 H132 0.931 . S
C141 C137 1.397 . S
C141 C140 1.383 . S
H142 C147 0.929 . S
H143 C152 0.931 . S
H144 C150 0.930 . S
N145 N146 1.234 . S
N145 C149 1.453 . S
N146 N145 1.234 . S
C147 H142 0.929 . S
C147 C148 1.373 . S
C147 C149 1.368 1_655 S
C148 C147 1.373 . S
C148 C152 1.397 . S
C149 N145 1.453 . S
C149 C147 1.368 1_455 S
C149 C150 1.373 . S
C150 H144 0.930 . S
C150 C149 1.373 . S
C150 C151 1.371 . S
C151 C150 1.371 . S
C151 C152 1.383 1_455 S
C152 H143 0.931 . S
C152 C148 1.397 . S
C152 C151 1.383 1_655 S
H153 C158 0.929 . S
H154 C163 0.931 . S
H155 C161 0.930 . S
N156 N157 1.234 . S
N156 C160 1.453 1_655 S
N157 N156 1.234 . S
C158 H153 0.929 . S
C158 C159 1.373 . S
C158 C160 1.368 . S
C159 C158 1.373 . S
C159 C163 1.397 . S
C160 N156 1.453 1_455 S
C160 C158 1.368 . S
C160 C161 1.373 1_455 S
C161 H155 0.930 . S
C161 C160 1.373 1_655 S
C161 C162 1.371 1_655 S
C162 C161 1.371 1_455 S
C162 C163 1.383 . S
C163 H154 0.931 . S
C163 C159 1.397 . S
C163 C162 1.383 . S
H164 C169 0.929 . S
H165 C174 0.931 . S
H166 C172 0.930 . S
N167 N168 1.234 . S
N167 C171 1.453 . S
N168 N167 1.234 . S
C169 H164 0.929 . S
C169 C170 1.373 . S
C169 C171 1.368 1_545 S
C170 C169 1.373 . S
C170 C174 1.397 . S
C171 N167 1.453 . S
C171 C169 1.368 1_565 S
C171 C172 1.373 . S
C172 H166 0.930 . S
C172 C171 1.373 . S
C172 C173 1.371 1_565 S
C173 C172 1.371 1_545 S
C173 C174 1.383 . S
C174 H165 0.931 . S
C174 C170 1.397 . S
C174 C173 1.383 . S
H175 C180 0.929 . S
H176 C185 0.931 . S
H177 C183 0.930 . S
N178 N179 1.234 . S
N178 C182 1.453 . S
N179 N178 1.234 . S
C180 H175 0.929 . S
C180 C181 1.373 . S
C180 C182 1.368 . S
C181 C180 1.373 . S
C181 C185 1.397 . S
C182 N178 1.453 . S
C182 C180 1.368 . S
C182 C183 1.373 . S
C183 H177 0.930 . S
C183 C182 1.373 . S
C183 C184 1.371 . S
C184 C183 1.371 . S
C184 C185 1.383 . S
C185 H176 0.931 . S
C185 C181 1.397 . S
C185 C184 1.383 . S
C19 N179 2.382 . S
C46 N157 2.960 . S
C95 N168 3.257 . S
C10 C181 2.417 . S
C159 C55 2.290 . S
C170 C86 4.069 . S
C59 N135 4.759 . S
C90 C148 2.621 . S
C15 C126 2.220 . S
C137 C50 4.774 . S
N146 C99 2.486 . S
C6 N124 2.283 . S
C151 C9 1.090 1_556 S
C58 C129 1.483 . S
C98 C140 2.024 . S
C173 C49 0.766 . S
C184 C89 1.180 1_554 S
C18 C162 1.381 . S
