# Generated by pormake.
# Topology rtl, (3,6)-cn, num edge types: 1
# Building blocks:
#     Node 0, Type 0, BuildingBlock: ESEHIV_clean_linker_0, # of connection points: 3
#     Node 1, Type 0, BuildingBlock: ESEHIV_clean_linker_0, # of connection points: 3
#     Node 2, Type 0, BuildingBlock: ESEHIV_clean_linker_0, # of connection points: 3
#     Node 3, Type 0, BuildingBlock: ESEHIV_clean_linker_0, # of connection points: 3
#     Node 4, Type 1, BuildingBlock: LEVNOQ01_clean_sbu_1, # of connection points: 6
#     Node 5, Type 1, BuildingBlock: LEVNOQ01_clean_sbu_1, # of connection points: 6
#     Edge 6, Type (0, 1), BuildingBlock: AJUNOK_clean_linker_0, # of connection points: 2
#     Edge 7, Type (0, 1), BuildingBlock: AJUNOK_clean_linker_0, # of connection points: 2
#     Edge 8, Type (0, 1), BuildingBlock: AJUNOK_clean_linker_0, # of connection points: 2
#     Edge 9, Type (0, 1), BuildingBlock: AJUNOK_clean_linker_0, # of connection points: 2
#     Edge 10, Type (0, 1), BuildingBlock: AJUNOK_clean_linker_0, # of connection points: 2
#     Edge 11, Type (0, 1), BuildingBlock: AJUNOK_clean_linker_0, # of connection points: 2
#     Edge 12, Type (0, 1), BuildingBlock: AJUNOK_clean_linker_0, # of connection points: 2
#     Edge 13, Type (0, 1), BuildingBlock: AJUNOK_clean_linker_0, # of connection points: 2
#     Edge 14, Type (0, 1), BuildingBlock: AJUNOK_clean_linker_0, # of connection points: 2
#     Edge 15, Type (0, 1), BuildingBlock: AJUNOK_clean_linker_0, # of connection points: 2
#     Edge 16, Type (0, 1), BuildingBlock: AJUNOK_clean_linker_0, # of connection points: 2
#     Edge 17, Type (0, 1), BuildingBlock: AJUNOK_clean_linker_0, # of connection points: 2
# Relax obj value: 0.026
# Max RMSD: 0.059
# Mean RMSD: 0.044
data_MOF--net-rtl--node1-LEVNOQ01_clean_sbu_1--node2-ESEHIV_clean_linker_0--edge1-AJUNOK_clean_linker_0
_symmetry_space_group_name_H-M    P1
_symmetry_Int_Tables_number       1
_symmetry_cell_setting            triclinic
loop_
_symmetry_equiv_pos_as_xyz
'x, y, z'
_cell_length_a     20.961941
_cell_length_b     23.331564
_cell_length_c     16.641924
_cell_angle_alpha  90.232486
_cell_angle_beta   98.913169
_cell_angle_gamma 89.729193
loop_
_atom_site_label
_atom_site_type_symbol
_atom_site_fract_x
_atom_site_fract_y
_atom_site_fract_z
_atom_type_partial_charge
H0 H 0.19706 0.99883 0.07247 0.0
H1 H 0.28205 0.8583 0.22013 0.0
H2 H 0.28413 0.85799 0.96292 0.0
C3 C 0.22157 0.95784 0.07843 0.0
C4 C 0.23516 0.92998 0.00809 0.0
C5 C 0.23588 0.93192 0.15535 0.0
C6 C 0.27066 0.87974 0.16202 0.0
C7 C 0.28856 0.85358 0.09276 0.0
C8 C 0.27063 0.87874 0.01626 0.0
H9 H 0.69072 0.5517 0.587 0.0
H10 H 0.7803 0.67922 0.45676 0.0
H11 H 0.79839 0.69005 0.71585 0.0
C12 C 0.71911 0.59037 0.58713 0.0
C13 C 0.74128 0.61833 0.66135 0.0
C14 C 0.73015 0.61298 0.51242 0.0
C15 C 0.77081 0.66069 0.51326 0.0
C16 C 0.79807 0.68634 0.58707 0.0
C17 C 0.7811 0.66678 0.66046 0.0
H18 H 0.80716 0.03829 0.00929 0.0
H19 H 0.72274 0.1812 0.11768 0.0
H20 H 0.7245 0.17915 0.86052 0.0
C21 C 0.78307 0.07948 0.00298 0.0
C22 C 0.76897 0.10511 0.92583 0.0
C23 C 0.77019 0.10811 0.07308 0.0
C24 C 0.73558 0.15978 0.06446 0.0
C25 C 0.71819 0.18476 0.98776 0.0
C26 C 0.73528 0.15778 0.91875 0.0
H27 H 0.33321 0.47483 0.47669 0.0
H28 H 0.22962 0.36532 0.61829 0.0
H29 H 0.18586 0.36122 0.35852 0.0
C30 C 0.29623 0.44309 0.47999 0.0
C31 C 0.26366 0.41838 0.40757 0.0
C32 C 0.28274 0.42598 0.55681 0.0
C33 C 0.23733 0.38225 0.56005 0.0
C34 C 0.20293 0.35847 0.48873 0.0
C35 C 0.21466 0.3781 0.41303 0.0
O36 O 0.88799 0.09953 0.61015 0.0
Mg37 Mg 0.9906 0.10041 0.62429 0.0
O38 O 0.93084 0.01659 0.63817 0.0
Mg39 Mg 0.0031 0.02071 0.54101 0.0
O40 O 0.03645 0.12119 0.53049 0.0
O41 O 0.01373 0.18308 0.62607 0.0
O42 O 0.07528 0.02363 0.44343 0.0
O43 O 0.91964 0.04067 0.43977 0.0
Mg44 Mg 0.01504 0.93945 0.45801 0.0
O45 O 0.96911 0.92097 0.55256 0.0
O46 O 0.11761 0.94059 0.47246 0.0
O47 O 0.95383 0.97789 0.35699 0.0
O48 O 0.99137 0.85686 0.45932 0.0
C49 C 0.09009 0.02192 0.71264 0.0
C50 C 0.88547 0.05184 0.64412 0.0
C51 C 0.03892 0.17284 0.56165 0.0
C52 C 0.12038 0.98797 0.43776 0.0
C53 C 0.91586 0.01833 0.36943 0.0
C54 C 0.96659 0.86877 0.52353 0.0
O55 O 0.05165 0.06186 0.72551 0.0
O56 O 0.08673 1.00038 0.64189 0.0
O57 O 0.54487 0.47794 0.22271 0.0
Mg58 Mg 0.50253 0.4345 0.11316 0.0
O59 O 0.58042 0.543 0.14621 0.0
Mg60 Mg 0.50315 0.52023 0.03616 0.0
O61 O 0.5523 0.42767 0.01893 0.0
O62 O 0.5462 0.35812 0.11106 0.0
O63 O 0.42709 0.49895 0.92388 0.0
O64 O 0.58144 0.53259 0.94835 0.0
Mg65 Mg 0.50858 0.61032 0.95594 0.0
O66 O 0.45745 0.61393 0.05088 0.0
O67 O 0.46241 0.56571 0.84868 0.0
O68 O 0.61065 0.61972 0.97825 0.0
O69 O 0.46837 0.68746 0.96643 0.0
C70 C 0.38667 0.46134 0.12407 0.0
C71 C 0.58053 0.52077 0.21581 0.0
C72 C 0.56621 0.37619 0.04642 0.0
C73 C 0.42749 0.52211 0.85471 0.0
C74 C 0.62178 0.57282 0.9456 0.0
C75 C 0.44609 0.66694 0.02821 0.0
O76 O 0.40323 0.41795 0.0875 0.0
O77 O 0.42248 0.50547 0.12461 0.0
C78 C 0.10741 0.32102 0.54337 0.0
C79 C 0.15553 0.31225 0.49473 0.0
C80 C 0.06736 0.27627 0.55975 0.0
C81 C 0.07415 0.22046 0.52908 0.0
H82 H 0.10193 0.36253 0.571 0.0
H83 H 0.03235 0.2853 0.59972 0.0
S84 S 0.18952 0.17646 0.3921 0.0
N85 N 0.20511 0.24503 0.41064 0.0
N86 N 0.12984 0.16028 0.44211 0.0
C87 C 0.11969 0.21183 0.4763 0.0
C88 C 0.16044 0.25786 0.4591 0.0
C89 C 0.39242 0.80034 0.12462 0.0
C90 C 0.32551 0.79934 0.09805 0.0
C91 C 0.43148 0.75379 0.10934 0.0
C92 C 0.40453 0.70459 0.06864 0.0
H93 H 0.41521 0.83902 0.15125 0.0
H94 H 0.48345 0.75795 0.12411 0.0
S95 S 0.2313 0.679 0.99435 0.0
N96 N 0.23337 0.74393 0.03473 0.0
N97 N 0.30683 0.65585 0.00775 0.0
C98 C 0.33725 0.70134 0.0478 0.0
C99 C 0.29762 0.74899 0.06211 0.0
C100 C 0.83108 0.78986 0.60205 0.0
C101 C 0.84605 0.73246 0.58618 0.0
C102 C 0.8731 0.83447 0.58823 0.0
C103 C 0.93099 0.82265 0.55811 0.0
H104 H 0.78526 0.80046 0.62095 0.0
H105 H 0.85818 0.87841 0.59598 0.0
S106 S -0.00386 0.67837 0.52062 0.0
N107 N 0.92536 0.66568 0.5486 0.0
N108 N 0.00454 0.74871 0.52353 0.0
C109 C 0.94834 0.76495 0.54846 0.0
C110 C 0.90571 0.72001 0.56212 0.0
C111 C 0.61745 0.2419 0.95064 0.0
C112 C 0.68361 0.24014 0.98195 0.0
C113 C 0.57981 0.28985 0.96408 0.0
C114 C 0.60765 0.33757 0.00769 0.0
H115 H 0.59382 0.20433 0.92159 0.0
H116 H 0.52796 0.28785 0.9457 0.0
S117 S 0.77995 0.35622 0.0937 0.0
N118 N 0.7764 0.29168 0.05201 0.0
N119 N 0.70563 0.38219 0.07601 0.0
C120 C 0.67453 0.33809 0.03325 0.0
C121 C 0.71265 0.28915 0.02061 0.0
C122 C 0.24563 0.95206 0.30582 0.0
C123 C 0.20993 0.95665 0.22695 0.0
C124 C 0.21843 0.96717 0.37494 0.0
C125 C 0.15555 0.98966 0.3677 0.0
H126 H 0.29406 0.93441 0.31467 0.0
H127 H 0.24562 0.95871 0.43458 0.0
S128 S 0.04215 0.01389 0.17664 0.0
N129 N 0.10711 0.98581 0.1472 0.0
N130 N 0.05978 0.01981 0.27633 0.0
C131 C 0.1212 0.99895 0.28949 0.0
C132 C 0.14737 0.98105 0.21929 0.0
C133 C 0.65189 0.58085 0.73006 0.0
C134 C 0.71625 0.60006 0.73677 0.0
C135 C 0.62411 0.56747 0.79848 0.0
C136 C 0.65835 0.57466 0.87709 0.0
H137 H 0.6211 0.5784 0.6716 0.0
H138 H 0.57384 0.55488 0.78963 0.0
S139 S 0.82922 0.61802 0.93076 0.0
N140 N 0.81563 0.61919 0.83028 0.0
N141 N 0.76037 0.59897 0.95946 0.0
C142 C 0.72285 0.59236 0.88584 0.0
C143 C 0.75243 0.60398 0.81565 0.0
C144 C 0.80074 0.02765 0.17148 0.0
C145 C 0.79941 0.08683 0.15476 0.0
C146 C 0.837 0.00576 0.24261 0.0
C147 C 0.87168 0.04238 0.30054 0.0
H148 H 0.77518 0.99779 0.1281 0.0
H149 H 0.83881 0.95978 0.25174 0.0
S150 S 0.88475 0.20016 0.28727 0.0
N151 N 0.83739 0.18145 0.20265 0.0
N152 N 0.9023 0.14013 0.33822 0.0
C153 C 0.86874 0.10162 0.28674 0.0
C154 C 0.83325 0.12393 0.21345 0.0
C155 C 0.38483 0.46359 0.64035 0.0
C156 C 0.31834 0.45146 0.63366 0.0
C157 C 0.41948 0.4868 0.71192 0.0
C158 C 0.38961 0.49738 0.78052 0.0
H159 H 0.41078 0.45441 0.59035 0.0
H160 H 0.47045 0.49556 0.71411 0.0
S161 S 0.21662 0.47766 0.79471 0.0
N162 N 0.22332 0.45647 0.70156 0.0
N163 N 0.28998 0.49644 0.83738 0.0
C164 C 0.3236 0.48564 0.77537 0.0
C165 C 0.28766 0.46357 0.70174 0.0
C166 C 0.62894 0.5734 0.43159 0.0
C167 C 0.69414 0.5894 0.43478 0.0
C168 C 0.59298 0.55107 0.36062 0.0
C169 C 0.61993 0.54531 0.28895 0.0
H170 H 0.60492 0.57863 0.4843 0.0
H171 H 0.54321 0.53907 0.36153 0.0
S172 S 0.7883 0.57857 0.26354 0.0
N173 N 0.78473 0.59503 0.35939 0.0
N174 N 0.71538 0.55615 0.2245 0.0
C175 C 0.68447 0.56163 0.29013 0.0
C176 C 0.72193 0.58301 0.36327 0.0
C177 C 0.75928 0.08506 0.77556 0.0
C178 C 0.79483 0.08015 0.85448 0.0
C179 C 0.7869 0.07095 0.70645 0.0
C180 C 0.85006 0.04915 0.71379 0.0
H181 H 0.71072 0.10246 0.76674 0.0
H182 H 0.75986 0.07975 0.64683 0.0
S183 S 0.96295 0.02389 0.90501 0.0
N184 N 0.89751 0.05097 0.93448 0.0
N185 N 0.94584 0.01892 0.80518 0.0
C186 C 0.88421 0.03929 0.79197 0.0
C187 C 0.85753 0.05614 0.86223 0.0
C188 C 0.30499 0.4868 0.30984 0.0
C189 C 0.28457 0.43128 0.32742 0.0
C190 C 0.33368 0.49764 0.2404 0.0
C191 C 0.34215 0.4536 0.1849 0.0
H192 H 0.30083 0.52193 0.35147 0.0
H193 H 0.35203 0.5402 0.23232 0.0
S194 S 0.29102 0.3018 0.19755 0.0
N195 N 0.27276 0.33227 0.28057 0.0
N196 N 0.32105 0.35352 0.14778 0.0
C197 C 0.31707 0.39901 0.19827 0.0
C198 C 0.28983 0.38758 0.27 0.0
C199 C 0.20424 0.01134 0.91128 0.0
C200 C 0.20634 0.95193 0.92656 0.0
C201 C 0.16805 0.03374 0.84045 0.0
C202 C 0.13427 0.99748 0.78129 0.0
H203 H 0.22909 0.04096 0.95559 0.0
H204 H 0.16559 0.07982 0.83252 0.0
S205 S 0.12392 0.83928 0.79012 0.0
N206 N 0.17035 0.85746 0.87571 0.0
N207 N 0.10565 0.8998 0.74067 0.0
C208 C 0.13817 0.93807 0.79352 0.0
C209 C 0.17355 0.9152 0.86655 0.0
loop_
_geom_bond_atom_site_label_1
_geom_bond_atom_site_label_2
_geom_bond_distance
_geom_bond_site_symmetry_2
_ccdc_geom_bond_type
H0 C3 0.931 . S
H1 C6 0.928 . S
H2 C8 0.930 1_556 S
C3 H0 0.931 . S
C3 C4 1.413 . S
C3 C5 1.360 . S
C4 C3 1.413 . S
C4 C8 1.429 . S
C5 C3 1.360 . S
C5 C6 1.372 . S
C6 H1 0.928 . S
C6 C5 1.372 . S
C6 C7 1.404 . S
C7 C6 1.404 . S
C7 C8 1.391 . S
C8 H2 0.930 1_554 S
C8 C4 1.429 . S
C8 C7 1.391 . S
H9 C12 0.931 . S
H10 C15 0.928 . S
H11 C17 0.930 . S
C12 H9 0.931 . S
C12 C13 1.413 . S
C12 C14 1.360 . S
C13 C12 1.413 . S
C13 C17 1.429 . S
C14 C12 1.360 . S
C14 C15 1.372 . S
C15 H10 0.928 . S
C15 C14 1.372 . S
C15 C16 1.404 . S
C16 C15 1.404 . S
C16 C17 1.391 . S
C17 H11 0.930 . S
C17 C13 1.429 . S
C17 C16 1.391 . S
H18 C21 0.931 . S
H19 C24 0.928 . S
H20 C26 0.930 . S
C21 H18 0.931 . S
C21 C22 1.413 1_554 S
C21 C23 1.360 . S
C22 C21 1.413 1_556 S
C22 C26 1.429 . S
C23 C21 1.360 . S
C23 C24 1.372 . S
C24 H19 0.928 . S
C24 C23 1.372 . S
C24 C25 1.400 1_554 S
C25 C24 1.400 1_556 S
C25 C26 1.394 . S
C26 H20 0.930 . S
C26 C22 1.429 . S
C26 C25 1.394 . S
H27 C30 0.931 . S
H28 C33 0.928 . S
H29 C35 0.930 . S
C30 H27 0.931 . S
C30 C31 1.413 . S
C30 C32 1.360 . S
C31 C30 1.413 . S
C31 C35 1.429 . S
C32 C30 1.360 . S
C32 C33 1.372 . S
C33 H28 0.928 . S
C33 C32 1.372 . S
C33 C34 1.404 . S
C34 C33 1.404 . S
C34 C35 1.391 . S
C35 H29 0.930 . S
C35 C31 1.429 . S
C35 C34 1.391 . S
O36 Mg37 1.990 1_655 S
O36 C50 1.253 . S
Mg37 O36 1.990 1_455 S
Mg37 O40 2.180 . S
Mg37 O41 2.117 . S
Mg37 O55 2.030 . S
O38 Mg39 2.072 1_655 S
O38 C50 1.260 . S
Mg39 O38 2.072 1_455 S
Mg39 O40 2.099 . S
Mg39 O42 2.079 1_545 S
Mg39 O43 2.072 1_455 S
Mg39 O45 2.099 1_445 S
Mg39 O56 2.079 1_545 S
O40 Mg37 2.180 . S
O40 Mg39 2.099 . S
O40 C51 1.279 . S
O41 Mg37 2.117 . S
O41 C51 1.250 . S
O42 Mg39 2.079 1_565 S
O42 C52 1.264 . S
O43 Mg39 2.072 1_655 S
O43 C53 1.260 . S
Mg44 O45 2.180 . S
Mg44 O46 2.030 1_655 S
Mg44 O47 1.990 . S
Mg44 O48 2.117 . S
O45 Mg39 2.099 1_665 S
O45 Mg44 2.180 . S
O45 C54 1.279 . S
O46 Mg44 2.030 1_455 S
O46 C52 1.248 . S
O47 Mg44 1.990 . S
O47 C53 1.253 1_565 S
O48 Mg44 2.117 . S
O48 C54 1.250 . S
C49 O55 1.248 1_565 S
C49 O56 1.264 . S
C50 O36 1.253 . S
C50 O38 1.260 . S
C51 O40 1.279 . S
C51 O41 1.250 . S
C52 O42 1.264 . S
C52 O46 1.248 . S
C53 O43 1.260 . S
C53 O47 1.253 1_545 S
C54 O45 1.279 . S
C54 O48 1.250 . S
O55 Mg37 2.030 . S
O55 C49 1.248 1_545 S
O56 Mg39 2.079 1_565 S
O56 C49 1.264 . S
O57 Mg58 1.990 . S
O57 C71 1.253 . S
Mg58 O57 1.990 . S
Mg58 O61 2.180 . S
Mg58 O62 2.117 . S
Mg58 O76 2.030 . S
O59 Mg60 2.072 . S
O59 C71 1.260 . S
Mg60 O59 2.072 . S
Mg60 O61 2.099 . S
Mg60 O63 2.079 1_554 S
Mg60 O64 2.072 1_554 S
Mg60 O66 2.099 . S
Mg60 O77 2.079 . S
O61 Mg58 2.180 . S
O61 Mg60 2.099 . S
O61 C72 1.279 . S
O62 Mg58 2.117 . S
O62 C72 1.250 . S
O63 Mg60 2.079 1_556 S
O63 C73 1.264 . S
O64 Mg60 2.072 1_556 S
O64 C74 1.260 . S
Mg65 O66 2.180 1_556 S
Mg65 O67 2.030 . S
Mg65 O68 1.990 . S
Mg65 O69 2.117 . S
O66 Mg60 2.099 . S
O66 Mg65 2.180 1_554 S
O66 C75 1.279 . S
O67 Mg65 2.030 . S
O67 C73 1.248 . S
O68 Mg65 1.990 . S
O68 C74 1.253 . S
O69 Mg65 2.117 . S
O69 C75 1.250 1_556 S
C70 O76 1.248 . S
C70 O77 1.264 . S
C71 O57 1.253 . S
C71 O59 1.260 . S
C72 O61 1.279 . S
C72 O62 1.250 . S
C73 O63 1.264 . S
C73 O67 1.248 . S
C74 O64 1.260 . S
C74 O68 1.253 . S
C75 O66 1.279 . S
C75 O69 1.250 1_554 S
O76 Mg58 2.030 . S
O76 C70 1.248 . S
O77 Mg60 2.079 . S
O77 C70 1.264 . S
C78 C79 1.369 . S
C78 C80 1.419 . S
C78 H82 0.930 . S
C79 C78 1.369 . S
C79 C88 1.429 . S
C80 C78 1.419 . S
C80 C81 1.363 . S
C80 H83 0.929 . S
C81 C80 1.363 . S
C81 C87 1.428 . S
H82 C78 0.930 . S
H83 C80 0.929 . S
S84 N85 1.613 . S
S84 N86 1.610 . S
N85 S84 1.613 . S
N85 C88 1.350 . S
N86 S84 1.610 . S
N86 C87 1.351 . S
C87 C81 1.428 . S
C87 N86 1.351 . S
C87 C88 1.434 . S
C88 C79 1.429 . S
C88 N85 1.350 . S
C88 C87 1.434 . S
C89 C90 1.369 . S
C89 C91 1.419 . S
C89 H93 0.930 . S
C90 C89 1.369 . S
C90 C99 1.429 . S
C91 C89 1.419 . S
C91 C92 1.363 . S
C91 H94 0.929 . S
C92 C91 1.363 . S
C92 C98 1.424 1_554 S
H93 C89 0.930 . S
H94 C91 0.929 . S
S95 N96 1.613 . S
S95 N97 1.610 . S
N96 S95 1.613 . S
N96 C99 1.350 1_556 S
N97 S95 1.610 . S
N97 C98 1.357 . S
C98 C92 1.424 1_556 S
C98 N97 1.357 . S
C98 C99 1.433 1_556 S
C99 C90 1.429 . S
C99 N96 1.350 1_554 S
C99 C98 1.433 1_554 S
C100 C101 1.369 . S
C100 C102 1.419 . S
C100 H104 0.930 . S
C101 C100 1.369 . S
C101 C110 1.429 . S
C102 C100 1.419 . S
C102 C103 1.363 . S
C102 H105 0.929 . S
C103 C102 1.363 . S
C103 C109 1.428 . S
H104 C100 0.930 . S
H105 C102 0.929 . S
S106 N107 1.613 . S
S106 N108 1.610 . S
N107 S106 1.613 . S
N107 C110 1.350 . S
N108 S106 1.610 . S
N108 C109 1.351 . S
C109 C103 1.428 . S
C109 N108 1.351 . S
C109 C110 1.434 . S
C110 C101 1.429 . S
C110 N107 1.350 . S
C110 C109 1.434 . S
C111 C112 1.369 1_556 S
C111 C113 1.419 . S
C111 H115 0.930 . S
C112 C111 1.369 1_554 S
C112 C121 1.429 . S
C113 C111 1.419 . S
C113 C114 1.363 1_556 S
C113 H116 0.929 . S
C114 C113 1.363 1_554 S
C114 C120 1.428 . S
H115 C111 0.930 . S
H116 C113 0.929 . S
S117 N118 1.613 . S
S117 N119 1.610 . S
N118 S117 1.613 . S
N118 C121 1.350 . S
N119 S117 1.610 . S
N119 C120 1.351 . S
C120 C114 1.428 . S
C120 N119 1.351 . S
C120 C121 1.434 . S
C121 C112 1.429 . S
C121 N118 1.350 . S
C121 C120 1.434 . S
C122 C123 1.369 . S
C122 C124 1.419 . S
C122 H126 0.930 . S
C123 C122 1.369 . S
C123 C132 1.429 . S
C124 C122 1.419 . S
C124 C125 1.363 . S
C124 H127 0.929 . S
C125 C124 1.363 . S
C125 C131 1.428 . S
H126 C122 0.930 . S
H127 C124 0.929 . S
S128 N129 1.613 . S
S128 N130 1.610 . S
N129 S128 1.613 . S
N129 C132 1.350 . S
N130 S128 1.610 . S
N130 C131 1.351 . S
C131 C125 1.428 . S
C131 N130 1.351 . S
C131 C132 1.434 . S
C132 C123 1.429 . S
C132 N129 1.350 . S
C132 C131 1.434 . S
C133 C134 1.369 . S
C133 C135 1.419 . S
C133 H137 0.930 . S
C134 C133 1.369 . S
C134 C143 1.429 . S
C135 C133 1.419 . S
C135 C136 1.363 . S
C135 H138 0.929 . S
C136 C135 1.363 . S
C136 C142 1.428 . S
H137 C133 0.930 . S
H138 C135 0.929 . S
S139 N140 1.613 . S
S139 N141 1.610 . S
N140 S139 1.613 . S
N140 C143 1.350 . S
N141 S139 1.610 . S
N141 C142 1.351 . S
C142 C136 1.428 . S
C142 N141 1.351 . S
C142 C143 1.434 . S
C143 C134 1.429 . S
C143 N140 1.350 . S
C143 C142 1.434 . S
C144 C145 1.369 . S
C144 C146 1.419 . S
C144 H148 0.930 . S
C145 C144 1.369 . S
C145 C154 1.429 . S
C146 C144 1.419 . S
C146 C147 1.363 . S
C146 H149 0.929 . S
C147 C146 1.363 . S
C147 C153 1.428 . S
H148 C144 0.930 . S
H149 C146 0.929 . S
S150 N151 1.613 . S
S150 N152 1.610 . S
N151 S150 1.613 . S
N151 C154 1.350 . S
N152 S150 1.610 . S
N152 C153 1.351 . S
C153 C147 1.428 . S
C153 N152 1.351 . S
C153 C154 1.434 . S
C154 C145 1.429 . S
C154 N151 1.350 . S
C154 C153 1.434 . S
C155 C156 1.369 . S
C155 C157 1.419 . S
C155 H159 0.930 . S
C156 C155 1.369 . S
C156 C165 1.429 . S
C157 C155 1.419 . S
C157 C158 1.363 . S
C157 H160 0.929 . S
C158 C157 1.363 . S
C158 C164 1.428 . S
H159 C155 0.930 . S
H160 C157 0.929 . S
S161 N162 1.613 . S
S161 N163 1.610 . S
N162 S161 1.613 . S
N162 C165 1.350 . S
N163 S161 1.610 . S
N163 C164 1.351 . S
C164 C158 1.428 . S
C164 N163 1.351 . S
C164 C165 1.434 . S
C165 C156 1.429 . S
C165 N162 1.350 . S
C165 C164 1.434 . S
C166 C167 1.369 . S
C166 C168 1.419 . S
C166 H170 0.930 . S
C167 C166 1.369 . S
C167 C176 1.429 . S
C168 C166 1.419 . S
C168 C169 1.363 . S
C168 H171 0.929 . S
C169 C168 1.363 . S
C169 C175 1.428 . S
H170 C166 0.930 . S
H171 C168 0.929 . S
S172 N173 1.613 . S
S172 N174 1.610 . S
N173 S172 1.613 . S
N173 C176 1.350 . S
N174 S172 1.610 . S
N174 C175 1.351 . S
C175 C169 1.428 . S
C175 N174 1.351 . S
C175 C176 1.434 . S
C176 C167 1.429 . S
C176 N173 1.350 . S
C176 C175 1.434 . S
C177 C178 1.369 . S
C177 C179 1.419 . S
C177 H181 0.930 . S
C178 C177 1.369 . S
C178 C187 1.429 . S
C179 C177 1.419 . S
C179 C180 1.363 . S
C179 H182 0.929 . S
C180 C179 1.363 . S
C180 C186 1.428 . S
H181 C177 0.930 . S
H182 C179 0.929 . S
S183 N184 1.613 1_565 S
S183 N185 1.610 1_565 S
N184 S183 1.613 1_545 S
N184 C187 1.350 . S
N185 S183 1.610 1_545 S
N185 C186 1.351 . S
C186 C180 1.428 . S
C186 N185 1.351 . S
C186 C187 1.434 . S
C187 C178 1.429 . S
C187 N184 1.350 . S
C187 C186 1.434 . S
C188 C189 1.369 . S
C188 C190 1.419 . S
C188 H192 0.930 . S
C189 C188 1.369 . S
C189 C198 1.429 . S
C190 C188 1.419 . S
C190 C191 1.363 . S
C190 H193 0.929 . S
C191 C190 1.363 . S
C191 C197 1.428 . S
H192 C188 0.930 . S
H193 C190 0.929 . S
S194 N195 1.613 . S
S194 N196 1.610 . S
N195 S194 1.613 . S
N195 C198 1.350 . S
N196 S194 1.610 . S
N196 C197 1.351 . S
C197 C191 1.428 . S
C197 N196 1.351 . S
C197 C198 1.434 . S
C198 C189 1.429 . S
C198 N195 1.350 . S
C198 C197 1.434 . S
C199 C200 1.369 . S
C199 C201 1.419 . S
C199 H203 0.930 1_565 S
C200 C199 1.369 . S
C200 C209 1.429 . S
C201 C199 1.419 . S
C201 C202 1.363 . S
C201 H204 0.929 1_565 S
C202 C201 1.363 . S
C202 C208 1.428 . S
H203 C199 0.930 1_545 S
H204 C201 0.929 1_545 S
S205 N206 1.613 . S
S205 N207 1.610 . S
N206 S205 1.613 . S
N206 C209 1.350 . S
N207 S205 1.610 . S
N207 C208 1.351 . S
C208 C202 1.428 . S
C208 N207 1.351 . S
C208 C209 1.434 . S
C209 C200 1.429 . S
C209 N206 1.350 . S
C209 C208 1.434 . S
C81 C51 1.289 . S
C79 C34 1.463 . S
C90 C7 1.467 . S
C92 C75 1.277 . S
C101 C16 1.569 . S
C103 C54 1.357 . S
C112 C25 1.566 1_554 S
C114 C72 1.358 . S
C125 C52 1.482 . S
C123 C5 1.501 . S
C136 C74 1.498 . S
C134 C13 1.552 . S
C145 C23 1.543 . S
C147 C53 1.479 . S
C156 C32 1.500 . S
C158 C73 1.435 . S
C169 C71 1.475 . S
C167 C14 1.544 . S
C180 C50 1.494 . S
C178 C22 1.547 . S
C191 C70 1.481 . S
C189 C31 1.494 . S
C200 C4 1.498 1_556 S
C202 C49 1.440 . S
