# Generated by pormake.
# Topology anh, (6,3)-cn, num edge types: 1
# Building blocks:
#     Node 0, Type 0, BuildingBlock: MIFKUJ_clean_sbu_0, # of connection points: 6
#     Node 1, Type 0, BuildingBlock: MIFKUJ_clean_sbu_0, # of connection points: 6
#     Node 2, Type 0, BuildingBlock: MIFKUJ_clean_sbu_0, # of connection points: 6
#     Node 3, Type 1, BuildingBlock: BETDIP_clean_linker_0, # of connection points: 3
#     Node 4, Type 1, BuildingBlock: BETDIP_clean_linker_0, # of connection points: 3
#     Node 5, Type 1, BuildingBlock: BETDIP_clean_linker_0, # of connection points: 3
#     Node 6, Type 1, BuildingBlock: BETDIP_clean_linker_0, # of connection points: 3
#     Node 7, Type 1, BuildingBlock: BETDIP_clean_linker_0, # of connection points: 3
#     Node 8, Type 1, BuildingBlock: BETDIP_clean_linker_0, # of connection points: 3
#     Edge 9, Type (0, 1), None
#     Edge 10, Type (0, 1), None
#     Edge 11, Type (0, 1), None
#     Edge 12, Type (0, 1), None
#     Edge 13, Type (0, 1), None
#     Edge 14, Type (0, 1), None
#     Edge 15, Type (0, 1), None
#     Edge 16, Type (0, 1), None
#     Edge 17, Type (0, 1), None
#     Edge 18, Type (0, 1), None
#     Edge 19, Type (0, 1), None
#     Edge 20, Type (0, 1), None
#     Edge 21, Type (0, 1), None
#     Edge 22, Type (0, 1), None
#     Edge 23, Type (0, 1), None
#     Edge 24, Type (0, 1), None
#     Edge 25, Type (0, 1), None
#     Edge 26, Type (0, 1), None
# Relax obj value: 0.082
# Max RMSD: 0.199
# Mean RMSD: 0.131
data_MOF--net-anh--node1-MIFKUJ_clean_sbu_0--node2-BETDIP_clean_linker_0--edge1-none
_symmetry_space_group_name_H-M    P1
_symmetry_Int_Tables_number       1
_symmetry_cell_setting            triclinic
loop_
_symmetry_equiv_pos_as_xyz
'x, y, z'
_cell_length_a     15.787512
_cell_length_b     15.650175
_cell_length_c     18.915193
_cell_angle_alpha  98.157637
_cell_angle_beta   91.361619
_cell_angle_gamma 120.54963
loop_
_atom_site_label
_atom_site_type_symbol
_atom_site_fract_x
_atom_site_fract_y
_atom_site_fract_z
_atom_type_partial_charge
Zn0 Zn 0.13306 0.58671 0.13191 0.0
Zn1 Zn 0.83941 0.46492 0.1532 0.0
C2 C 0.31925 0.59903 0.13626 0.0
O3 O 0.32841 0.6471 0.20151 0.0
C4 C 0.75046 0.59009 0.1528 0.0
O5 O 0.66847 0.50499 0.12684 0.0
O6 O 0.19737 0.73579 0.16109 0.0
O7 O 0.02766 0.52828 0.05205 0.0
O8 O 0.86488 0.44763 0.04965 0.0
C9 C 0.27138 0.80218 0.13544 0.0
O10 O 0.29846 0.77668 0.0748 0.0
O11 O 0.23863 0.5618 0.09617 0.0
C12 C 0.66308 0.34979 0.21729 0.0
O13 O 0.70494 0.4328 0.26567 0.0
O14 O 0.70631 0.34459 0.16251 0.0
O15 O 0.93469 0.47633 0.2345 0.0
O16 O 0.09422 0.53472 0.22301 0.0
O17 O 0.8291 0.58988 0.16893 0.0
C18 C 0.94239 0.48183 0.01754 0.0
C19 C 0.02071 0.49847 0.25913 0.0
Zn20 Zn 0.53019 0.12224 0.50052 0.0
Zn21 Zn 0.44558 0.85066 0.48431 0.0
C22 C 0.73778 0.23687 0.49188 0.0
O23 O 0.73467 0.28836 0.55191 0.0
C24 C 0.24998 0.663 0.48573 0.0
O25 O 0.28509 0.65432 0.54623 0.0
O26 O 0.5256 0.24807 0.52215 0.0
O27 O 0.41633 0.02758 0.42845 0.0
O28 O 0.47614 0.92846 0.401 0.0
C29 C 0.5504 0.31771 0.48551 0.0
O30 O 0.58334 0.31101 0.42311 0.0
O31 O 0.659 0.1584 0.4605 0.0
C32 C 0.60746 0.81861 0.50824 0.0
O33 O 0.65053 0.90974 0.54673 0.0
O34 O 0.5211 0.77915 0.47609 0.0
O35 O 0.46946 0.91752 0.59063 0.0
O36 O 0.5225 0.0796 0.59443 0.0
O37 O 0.30282 0.73916 0.45653 0.0
C38 C 0.43165 0.97177 0.38222 0.0
C39 C 0.4997 0.00553 0.62574 0.0
Zn40 Zn 0.55563 0.42321 0.82243 0.0
Zn41 Zn 0.42767 0.59085 0.81634 0.0
C42 C 0.51774 0.23105 0.84338 0.0
O43 O 0.57287 0.28521 0.90425 0.0
C44 C 0.54702 0.80553 0.83112 0.0
O45 O 0.47521 0.79094 0.78541 0.0
O46 O 0.69752 0.4672 0.83519 0.0
O47 O 0.5288 0.46975 0.7368 0.0
O48 O 0.45723 0.55583 0.71711 0.0
C49 C 0.75026 0.44697 0.79462 0.0
O50 O 0.71501 0.39827 0.7284 0.0
O51 O 0.48848 0.27198 0.80336 0.0
C52 C 0.28698 0.65172 0.84851 0.0
O53 O 0.35391 0.71025 0.90326 0.0
O54 O 0.30106 0.59243 0.80425 0.0
O55 O 0.40903 0.4952 0.88538 0.0
O56 O 0.53776 0.48438 0.91643 0.0
O57 O 0.54182 0.73081 0.8543 0.0
C58 C 0.50069 0.5093 0.69498 0.0
C59 C 0.47673 0.51173 0.93279 0.0
H60 H 0.39602 0.99046 0.10359 0.0
H61 H 0.53097 0.13525 0.32094 0.0
H62 H 0.30868 0.82208 0.27736 0.0
H63 H 0.53512 0.27067 0.27668 0.0
C64 C 0.56943 0.26265 0.22912 0.0
C65 C 0.40193 0.98725 0.16023 0.0
C66 C 0.34167 0.89624 0.18472 0.0
C67 C 0.46845 0.07498 0.20939 0.0
C68 C 0.47732 0.06959 0.28265 0.0
C69 C 0.42032 0.97819 0.30652 0.0
C70 C 0.35233 0.89245 0.25794 0.0
N71 N 0.52923 0.16671 0.18425 0.0
H72 H 0.59273 0.48331 0.42486 0.0
H73 H 0.54732 0.64735 0.60778 0.0
H74 H 0.50316 0.35568 0.61676 0.0
H75 H 0.71572 0.78402 0.55012 0.0
C76 C 0.65327 0.75763 0.51 0.0
C77 C 0.57236 0.48765 0.47899 0.0
C78 C 0.54732 0.40808 0.51661 0.0
C79 C 0.57425 0.57484 0.51214 0.0
C80 C 0.54695 0.58066 0.58214 0.0
C81 C 0.52123 0.50141 0.61968 0.0
C82 C 0.52197 0.41606 0.58682 0.0
N83 N 0.60212 0.65562 0.47428 0.0
H84 H 0.92685 0.50612 0.7378 0.0
H85 H 0.09017 0.5321 0.93278 0.0
H86 H 0.78079 0.42752 0.92838 0.0
H87 H 0.18702 0.70428 0.88138 0.0
C88 C 0.1948 0.65233 0.84128 0.0
C89 C 0.92845 0.49529 0.79303 0.0
C90 C 0.84281 0.46238 0.82846 0.0
C91 C 0.01835 0.52283 0.83153 0.0
C92 C 0.0205 0.51112 0.90361 0.0
C93 C 0.93521 0.47714 0.93901 0.0
C94 C 0.84657 0.45176 0.90081 0.0
N95 N 0.10828 0.56925 0.80008 0.0
H96 H 0.09356 0.51658 0.54155 0.0
H97 H 0.8955 0.37525 0.34498 0.0
H98 H 0.18899 0.62669 0.34505 0.0
H99 H 0.82783 0.23721 0.40417 0.0
C100 C 0.82876 0.27647 0.45663 0.0
C101 C 0.07969 0.51133 0.48424 0.0
C102 C 0.15278 0.58114 0.44774 0.0
C103 C 0.9874 0.43559 0.44751 0.0
C104 C 0.96768 0.43043 0.37339 0.0
C105 C 0.04072 0.49834 0.33596 0.0
C106 C 0.13292 0.57296 0.37355 0.0
N107 N 0.91355 0.37059 0.48749 0.0
H108 H 0.57927 0.12639 0.91075 0.0
H109 H 0.57476 0.93738 0.72063 0.0
H110 H 0.45874 0.13085 0.70617 0.0
H111 H 0.69606 0.91017 0.88499 0.0
C112 C 0.6342 0.90669 0.85556 0.0
C113 C 0.55591 0.09608 0.85391 0.0
C114 C 0.51509 0.13691 0.81271 0.0
C115 C 0.57412 0.02135 0.822 0.0
C116 C 0.55192 0.98729 0.74698 0.0
C117 C 0.5087 0.02573 0.70518 0.0
C118 C 0.48852 0.09852 0.73887 0.0
N119 N 0.62985 0.99608 0.86557 0.0
H120 H 0.49906 0.67116 0.20861 0.0
H121 H 0.63541 0.60306 0.03413 0.0
H122 H 0.3309 0.52201 0.00046 0.0
H123 H 0.82282 0.75296 0.18857 0.0
C124 C 0.75251 0.68621 0.16597 0.0
C125 C 0.49304 0.63744 0.15315 0.0
C126 C 0.40421 0.59533 0.10816 0.0
C127 C 0.57595 0.63911 0.12739 0.0
C128 C 0.57017 0.59826 0.05506 0.0
C129 C 0.4814 0.55489 0.00886 0.0
C130 C 0.39892 0.5542 0.03583 0.0
N131 N 0.66593 0.69158 0.17421 0.0
loop_
_geom_bond_atom_site_label_1
_geom_bond_atom_site_label_2
_geom_bond_distance
_geom_bond_site_symmetry_2
_ccdc_geom_bond_type
Zn0 O6 1.969 . S
Zn0 O7 1.965 . S
Zn0 O11 2.024 . S
Zn0 O16 1.969 . S
Zn1 O8 1.969 . S
Zn1 O14 1.969 . S
Zn1 O15 1.965 . S
Zn1 O17 2.024 . S
C2 O3 1.229 . S
C2 O11 1.058 . S
O3 C2 1.229 . S
C4 O5 1.229 . S
C4 O17 1.058 . S
O5 C4 1.229 . S
O6 Zn0 1.969 . S
O6 C9 1.267 . S
O7 Zn0 1.965 . S
O7 C18 1.260 . S
O8 Zn1 1.969 . S
O8 C18 1.258 1_655 S
C9 O6 1.267 . S
C9 O10 1.228 . S
O10 C9 1.228 . S
O11 Zn0 2.024 . S
O11 C2 1.058 . S
C12 O13 1.228 . S
C12 O14 1.267 . S
O13 C12 1.228 . S
O14 Zn1 1.969 . S
O14 C12 1.267 . S
O15 Zn1 1.965 . S
O15 C19 1.260 1_655 S
O16 Zn0 1.969 . S
O16 C19 1.258 . S
O17 Zn1 2.024 . S
O17 C4 1.058 . S
C18 O7 1.260 . S
C18 O8 1.258 1_455 S
C19 O15 1.260 1_455 S
C19 O16 1.258 . S
Zn20 O26 1.969 . S
Zn20 O27 1.965 . S
Zn20 O31 2.024 . S
Zn20 O36 1.969 . S
Zn21 O28 1.969 . S
Zn21 O34 1.969 . S
Zn21 O35 1.965 . S
Zn21 O37 2.024 . S
C22 O23 1.229 . S
C22 O31 1.058 . S
O23 C22 1.229 . S
C24 O25 1.229 . S
C24 O37 1.058 . S
O25 C24 1.229 . S
O26 Zn20 1.969 . S
O26 C29 1.267 . S
O27 Zn20 1.965 . S
O27 C38 1.260 . S
O28 Zn21 1.969 . S
O28 C38 1.258 1_565 S
C29 O26 1.267 . S
C29 O30 1.228 . S
O30 C29 1.228 . S
O31 Zn20 2.024 . S
O31 C22 1.058 . S
C32 O33 1.228 . S
C32 O34 1.267 . S
O33 C32 1.228 . S
O34 Zn21 1.969 . S
O34 C32 1.267 . S
O35 Zn21 1.965 . S
O35 C39 1.260 1_565 S
O36 Zn20 1.969 . S
O36 C39 1.258 . S
O37 Zn21 2.024 . S
O37 C24 1.058 . S
C38 O27 1.260 . S
C38 O28 1.258 1_545 S
C39 O35 1.260 1_545 S
C39 O36 1.258 . S
Zn40 O46 1.969 . S
Zn40 O47 1.965 . S
Zn40 O51 2.024 . S
Zn40 O56 1.969 . S
Zn41 O48 1.969 . S
Zn41 O54 1.969 . S
Zn41 O55 1.965 . S
Zn41 O57 2.024 . S
C42 O43 1.229 . S
C42 O51 1.058 . S
O43 C42 1.229 . S
C44 O45 1.229 . S
C44 O57 1.058 . S
O45 C44 1.229 . S
O46 Zn40 1.969 . S
O46 C49 1.267 . S
O47 Zn40 1.965 . S
O47 C58 1.260 . S
O48 Zn41 1.969 . S
O48 C58 1.258 . S
C49 O46 1.267 . S
C49 O50 1.228 . S
O50 C49 1.228 . S
O51 Zn40 2.024 . S
O51 C42 1.058 . S
C52 O53 1.228 . S
C52 O54 1.267 . S
O53 C52 1.228 . S
O54 Zn41 1.969 . S
O54 C52 1.267 . S
O55 Zn41 1.965 . S
O55 C59 1.260 . S
O56 Zn40 1.969 . S
O56 C59 1.258 . S
O57 Zn41 2.024 . S
O57 C44 1.058 . S
C58 O47 1.260 . S
C58 O48 1.258 . S
C59 O55 1.260 . S
C59 O56 1.258 . S
H60 C65 0.930 . S
H61 C68 0.930 . S
H62 C70 0.930 . S
H63 C64 1.016 . S
C64 H63 1.016 . S
C64 N71 1.286 . S
C65 H60 0.930 . S
C65 C66 1.397 . S
C65 C67 1.361 1_565 S
C66 C65 1.397 . S
C66 C70 1.390 . S
C67 C65 1.361 1_545 S
C67 C68 1.393 . S
C67 N71 1.413 . S
C68 H61 0.930 . S
C68 C67 1.393 . S
C68 C69 1.399 . S
C69 C68 1.399 . S
C69 C70 1.381 1_545 S
C70 H62 0.930 . S
C70 C66 1.390 . S
C70 C69 1.381 1_565 S
N71 C64 1.286 . S
N71 C67 1.413 . S
H72 C77 0.930 . S
H73 C80 0.930 . S
H74 C82 0.930 . S
H75 C76 1.016 . S
C76 H75 1.016 . S
C76 N83 1.286 . S
C77 H72 0.930 . S
C77 C78 1.397 . S
C77 C79 1.361 . S
C78 C77 1.397 . S
C78 C82 1.390 . S
C79 C77 1.361 . S
C79 C80 1.393 . S
C79 N83 1.413 . S
C80 H73 0.930 . S
C80 C79 1.393 . S
C80 C81 1.399 . S
C81 C80 1.399 . S
C81 C82 1.381 . S
C82 H74 0.930 . S
C82 C78 1.390 . S
C82 C81 1.381 . S
N83 C76 1.286 . S
N83 C79 1.413 . S
H84 C89 0.930 . S
H85 C92 0.930 . S
H86 C94 0.930 . S
H87 C88 1.016 . S
C88 H87 1.016 . S
C88 N95 1.286 . S
C89 H84 0.930 . S
C89 C90 1.397 . S
C89 C91 1.361 1_655 S
C90 C89 1.397 . S
C90 C94 1.390 . S
C91 C89 1.361 1_455 S
C91 C92 1.393 . S
C91 N95 1.413 . S
C92 H85 0.930 . S
C92 C91 1.393 . S
C92 C93 1.399 1_455 S
C93 C92 1.399 1_655 S
C93 C94 1.381 . S
C94 H86 0.930 . S
C94 C90 1.390 . S
C94 C93 1.381 . S
N95 C88 1.286 . S
N95 C91 1.413 . S
H96 C101 0.930 . S
H97 C104 0.930 . S
H98 C106 0.930 . S
H99 C100 1.016 . S
C100 H99 1.016 . S
C100 N107 1.286 . S
C101 H96 0.930 . S
C101 C102 1.397 . S
C101 C103 1.361 . S
C102 C101 1.397 . S
C102 C106 1.390 . S
C103 C101 1.361 . S
C103 C104 1.393 1_455 S
C103 N107 1.413 1_455 S
C104 H97 0.930 . S
C104 C103 1.393 1_655 S
C104 C105 1.399 1_655 S
C105 C104 1.399 1_455 S
C105 C106 1.381 . S
C106 H98 0.930 . S
C106 C102 1.390 . S
C106 C105 1.381 . S
N107 C100 1.286 . S
N107 C103 1.413 1_655 S
H108 C113 0.930 . S
H109 C116 0.930 . S
H110 C118 0.930 . S
H111 C112 1.016 . S
C112 H111 1.016 . S
C112 N119 1.286 . S
C113 H108 0.930 . S
C113 C114 1.397 . S
C113 C115 1.361 . S
C114 C113 1.397 . S
C114 C118 1.390 . S
C115 C113 1.361 . S
C115 C116 1.393 1_545 S
C115 N119 1.413 1_545 S
C116 H109 0.930 . S
C116 C115 1.393 1_565 S
C116 C117 1.399 1_565 S
C117 C116 1.399 1_545 S
C117 C118 1.381 . S
C118 H110 0.930 . S
C118 C114 1.390 . S
C118 C117 1.381 . S
N119 C112 1.286 . S
N119 C115 1.413 1_565 S
H120 C125 0.930 . S
H121 C128 0.930 . S
H122 C130 0.930 . S
H123 C124 1.016 . S
C124 H123 1.016 . S
C124 N131 1.286 . S
C125 H120 0.930 . S
C125 C126 1.397 . S
C125 C127 1.361 . S
C126 C125 1.397 . S
C126 C130 1.390 . S
C127 C125 1.361 . S
C127 C128 1.393 . S
C127 N131 1.413 . S
C128 H121 0.930 . S
C128 C127 1.393 . S
C128 C129 1.399 . S
C129 C128 1.399 . S
C129 C130 1.381 . S
C130 H122 0.930 . S
C130 C126 1.390 . S
C130 C129 1.381 . S
N131 C124 1.286 . S
N131 C127 1.413 . S
C2 C126 1.888 . S
C22 C100 1.642 . S
C44 C112 1.578 . S
C4 C124 1.397 . S
C102 C24 1.462 . S
C114 C42 1.456 . S
C32 C76 1.373 . S
C49 C90 1.719 . S
C9 C66 1.139 . S
C78 C29 1.269 . S
C88 C52 0.984 . S
C12 C64 1.139 . S
C93 C18 1.460 1_656 S
C38 C69 1.416 . S
C58 C81 1.442 . S
C117 C39 1.543 . S
C129 C59 1.819 1_554 S
C19 C105 1.513 . S
