# Generated by pormake.
# Topology pts, (4,4)-cn, num edge types: 1
# Building blocks:
#     Node 0, Type 0, BuildingBlock: KUFVIS_clean_linker_0, # of connection points: 4
#     Node 1, Type 0, BuildingBlock: KUFVIS_clean_linker_0, # of connection points: 4
#     Node 2, Type 1, BuildingBlock: QUQFOY_clean_sbu_1, # of connection points: 4
#     Node 3, Type 1, BuildingBlock: QUQFOY_clean_sbu_1, # of connection points: 4
#     Edge 4, Type (0, 1), BuildingBlock: KIFKEQ_clean_linker_1, # of connection points: 2
#     Edge 5, Type (0, 1), BuildingBlock: KIFKEQ_clean_linker_1, # of connection points: 2
#     Edge 6, Type (0, 1), BuildingBlock: KIFKEQ_clean_linker_1, # of connection points: 2
#     Edge 7, Type (0, 1), BuildingBlock: KIFKEQ_clean_linker_1, # of connection points: 2
#     Edge 8, Type (0, 1), BuildingBlock: KIFKEQ_clean_linker_1, # of connection points: 2
#     Edge 9, Type (0, 1), BuildingBlock: KIFKEQ_clean_linker_1, # of connection points: 2
#     Edge 10, Type (0, 1), BuildingBlock: KIFKEQ_clean_linker_1, # of connection points: 2
#     Edge 11, Type (0, 1), BuildingBlock: KIFKEQ_clean_linker_1, # of connection points: 2
# Relax obj value: 0.103
# Max RMSD: 0.274
# Mean RMSD: 0.186
data_MOF--net-pts--node1-QUQFOY_clean_sbu_1--node2-KUFVIS_clean_linker_0--edge1-KIFKEQ_clean_linker_1
_symmetry_space_group_name_H-M    P1
_symmetry_Int_Tables_number       1
_symmetry_cell_setting            triclinic
loop_
_symmetry_equiv_pos_as_xyz
'x, y, z'
_cell_length_a     23.734501
_cell_length_b     25.590835
_cell_length_c     40.071622
_cell_angle_alpha  89.935416
_cell_angle_beta   89.552836
_cell_angle_gamma 91.15551
loop_
_atom_site_label
_atom_site_type_symbol
_atom_site_fract_x
_atom_site_fract_y
_atom_site_fract_z
_atom_type_partial_charge
H0 H 0.338 0.07388 -0.04035 0.0
H1 H 0.49389 0.07621 0.90518 0.0
H2 H 0.49076 1.04149 0.01091 0.0
H3 H 0.57623 0.0756 0.0089 0.0
H4 H 0.72764 1.04261 0.95507 0.0
H5 H 0.56902 1.02769 0.90546 0.0
C6 C 0.38346 0.07038 -0.04083 0.0
C7 C 0.41175 0.05981 -0.01113 0.0
C8 C 0.4128 0.07468 0.92881 0.0
C9 C 0.47155 0.06971 0.9285 0.0
C10 C 0.50102 0.05764 -0.04209 0.0
C11 C 0.47001 0.05172 -0.01205 0.0
C12 C 0.56381 0.05222 -0.04271 0.0
C13 C 0.59608 0.06261 -0.01394 0.0
C14 C 0.65484 0.05806 -0.01446 0.0
C15 C 0.68208 1.0449 -0.04431 0.0
C16 C 0.65126 1.03518 0.9266 0.0
C17 C 0.59227 1.03765 0.92775 0.0
H18 H 0.03231 0.73766 0.45782 0.0
H19 H 0.06191 0.59486 0.5094 0.0
H20 H 1.00039 0.5932 0.40759 0.0
H21 H 0.03429 0.51609 0.40467 0.0
H22 H 1.02922 0.37312 0.45963 0.0
H23 H 1.02642 0.51711 0.51314 0.0
C24 C 0.032 0.69527 0.45803 0.0
C25 C 1.01624 0.66798 0.42932 0.0
C26 C 0.04735 0.6689 0.48699 0.0
C27 C 0.04759 0.61402 0.48708 0.0
C28 C 1.03102 0.5849 0.45855 0.0
C29 C 1.01503 0.61309 0.42974 0.0
C30 C 1.03043 0.52581 0.45886 0.0
C31 C 0.03163 0.49684 0.42865 0.0
C32 C 1.02877 0.44199 0.42898 0.0
C33 C 1.02948 0.41554 0.4594 0.0
C34 C 1.03064 0.44265 0.48956 0.0
C35 C 1.0287 0.49744 0.48935 0.0
O36 O 0.95429 1.01418 0.17719 0.0
Cd37 Cd 1.02562 0.9965 0.20355 0.0
Cd38 Cd 0.03522 0.10697 0.20635 0.0
O39 O 0.96325 0.10021 0.17809 0.0
O40 O 1.01775 0.92033 0.21351 0.0
O41 O 1.02066 0.98109 0.2527 0.0
C42 C 1.01648 0.93223 0.24474 0.0
C43 C 0.03558 0.17213 0.24716 0.0
C44 C 0.93674 0.05901 0.16911 0.0
C45 C 0.1305 1.04742 0.17447 0.0
O46 O 0.11124 0.09103 0.18387 0.0
O47 O 0.10265 1.00522 0.1797 0.0
O48 O 0.04128 0.18332 0.21597 0.0
O49 O 1.02992 0.12344 0.25535 0.0
O50 O 0.9526 0.08576 0.7357 0.0
Cd51 Cd 1.02719 0.10767 0.71248 0.0
Cd52 Cd 0.04044 0.99762 0.712 0.0
O53 O 0.96362 1.00029 0.73631 0.0
O54 O 1.01891 0.18365 0.70301 0.0
O55 O 1.03051 0.12451 0.6635 0.0
C56 C 1.02409 0.17285 0.67176 0.0
C57 C 0.05047 0.93394 0.67075 0.0
C58 C 0.93483 1.04014 0.7435 0.0
C59 C 0.12853 0.06391 0.74706 0.0
O60 O 0.11174 1.01857 0.73821 0.0
O61 O 0.10067 0.104 0.73938 0.0
O62 O 0.05018 0.922 0.70198 0.0
O63 O 0.045 0.98252 0.66279 0.0
H64 H 0.41407 0.98566 0.0384 0.0
H65 H 0.33742 0.13105 0.01113 0.0
H66 H 0.35561 0.98175 0.08916 0.0
H67 H 0.27864 0.12677 0.06103 0.0
H68 H 0.20375 0.12889 0.16192 0.0
H69 H 0.28136 0.13145 0.12186 0.0
H70 H 0.25345 0.9675 0.10087 0.0
H71 H 0.17634 0.96453 0.14144 0.0
C72 C 0.38521 1.01698 0.04348 0.0
C73 C 0.37983 0.05844 0.02078 0.0
C74 C 0.35159 1.01461 0.07235 0.0
C75 C 0.3126 0.05398 0.07911 0.0
C76 C 0.30878 0.09618 0.05684 0.0
C77 C 0.34195 0.09835 0.02803 0.0
C78 C 0.21471 0.09312 0.14921 0.0
C79 C 0.18318 1.0467 0.15446 0.0
C80 C 0.2591 0.09467 0.12618 0.0
C81 C 0.27289 1.0499 0.10781 0.0
C82 C 0.24399 1.0026 0.11472 0.0
C83 C 0.19958 1.00099 0.13786 0.0
H84 H 0.10994 0.3724 0.50461 0.0
H85 H 0.95981 0.44277 0.54403 0.0
H86 H 0.10865 0.3096 0.55035 0.0
H87 H 0.95799 0.37922 0.59006 0.0
H88 H 1.00527 0.27679 0.68165 0.0
H89 H 1.00916 0.34695 0.64025 0.0
H90 H 0.04609 0.23433 0.56334 0.0
H91 H 0.04279 0.16433 0.60465 0.0
C92 C 0.07708 0.37476 0.52345 0.0
C93 C 0.03472 0.41202 0.52076 0.0
C94 C 0.07604 0.33858 0.54945 0.0
C95 C 0.03255 0.33874 0.57339 0.0
C96 C 0.99202 0.37813 0.57193 0.0
C97 C 0.99311 0.41457 0.54575 0.0
C98 C 1.0141 0.26699 0.65587 0.0
C99 C 1.024 0.21498 0.64643 0.0
C100 C 1.01608 0.3072 0.63218 0.0
C101 C 1.02844 0.29626 0.59862 0.0
C102 C 0.03745 0.24414 0.58914 0.0
C103 C 0.03518 0.20395 0.61276 0.0
H104 H 0.75074 0.11731 -0.00721 0.0
H105 H 0.63457 1.01634 0.04723 0.0
H106 H 0.81222 0.12164 0.04124 0.0
H107 H 0.69579 1.02127 0.09606 0.0
H108 H 0.86606 0.98021 0.14805 0.0
H109 H 0.79095 0.98573 0.10719 0.0
H110 H 0.81947 0.15256 0.09982 0.0
H111 H 0.89503 0.14719 0.14051 0.0
C112 C 0.73809 0.09661 0.01532 0.0
C113 C 0.68824 0.06613 0.01622 0.0
C114 C 0.77298 0.09945 0.04314 0.0
C115 C 0.75888 0.07161 0.07238 0.0
C116 C 0.70789 1.04276 0.07374 0.0
C117 C 0.67271 1.04027 0.04594 0.0
C118 C 0.85592 1.01819 0.13805 0.0
C119 C 0.887 0.06316 0.14728 0.0
C120 C 0.81258 1.02138 0.11481 0.0
C121 C 0.79959 0.06954 0.10019 0.0
C122 C 0.82904 0.11483 0.11042 0.0
C123 C 0.87217 0.11172 0.13382 0.0
H124 H 0.1198 0.7524 0.49205 0.0
H125 H 1.00314 0.65658 0.54965 0.0
H126 H 0.12674 0.81443 0.53809 0.0
H127 H 1.00942 0.71896 0.59574 0.0
H128 H 0.06005 0.82883 0.68053 0.0
H129 H 0.06815 0.76069 0.63836 0.0
H130 H 0.06151 0.87771 0.56077 0.0
H131 H 0.05434 0.94592 0.60291 0.0
C132 C 0.09633 0.74428 0.51484 0.0
C133 C 0.06055 0.69999 0.51724 0.0
C134 C 0.09996 0.77995 0.54108 0.0
C135 C 0.0678 0.77218 0.57032 0.0
C136 C 0.0349 0.72603 0.57359 0.0
C137 C 0.03139 0.69019 0.54728 0.0
C138 C 0.06059 0.84007 0.65446 0.0
C139 C 0.05646 0.89284 0.64506 0.0
C140 C 0.06503 0.80094 0.63032 0.0
C141 C 0.06565 0.81371 0.59621 0.0
C142 C 0.06209 0.86657 0.58685 0.0
C143 C 0.05754 0.90568 0.61099 0.0
H144 H 0.32597 0.14078 0.91731 0.0
H145 H 0.42778 1.02408 0.86952 0.0
H146 H 0.26443 0.14196 0.86902 0.0
H147 H 0.36737 1.02666 0.82055 0.0
H148 H 0.19514 0.98662 0.77094 0.0
H149 H 0.27169 0.99522 0.81062 0.0
H150 H 0.25417 0.16295 0.81036 0.0
H151 H 0.17655 0.15435 0.77112 0.0
C152 C 0.33569 0.11602 0.89622 0.0
C153 C 0.38123 0.08184 0.89738 0.0
C154 C 0.3008 0.11709 0.86837 0.0
C155 C 0.31073 0.08406 0.84103 0.0
C156 C 0.35817 0.05203 0.84142 0.0
C157 C 0.39311 1.05096 0.86931 0.0
C158 C 0.20796 1.02542 0.77901 0.0
C159 C 0.1792 0.06973 0.76815 0.0
C160 C 0.25223 1.03039 0.80159 0.0
C161 C 0.26886 0.07977 0.81379 0.0
C162 C 0.24179 0.1243 0.80178 0.0
C163 C 0.19744 0.11935 0.77921 0.0
H164 H 0.09867 0.4446 0.37409 0.0
H165 H 0.94995 0.36775 0.41484 0.0
H166 H 0.10005 0.38095 0.32828 0.0
H167 H 0.95083 0.3048 0.3693 0.0
H168 H 1.01665 0.16249 0.31427 0.0
H169 H 1.01303 0.23217 0.35563 0.0
H170 H 0.0484 0.34673 0.27864 0.0
H171 H 0.05266 0.27696 0.23724 0.0
C172 C 0.06561 0.4149 0.37274 0.0
C173 C 1.02454 0.41064 0.39804 0.0
C174 C 0.06643 0.3784 0.34667 0.0
C175 C 1.02617 0.33724 0.3456 0.0
C176 C 0.98324 0.3352 0.36989 0.0
C177 C 0.98246 0.37144 0.39579 0.0
C178 C 1.02378 0.20249 0.30616 0.0
C179 C 0.03475 0.21416 0.27248 0.0
C180 C 1.02134 0.24248 0.3298 0.0
C181 C 1.02996 0.29503 0.32033 0.0
C182 C 0.04185 0.30665 0.28673 0.0
C183 C 0.04403 0.26665 0.26303 0.0
H184 H 0.63189 0.07907 0.86574 0.0
H185 H 0.73951 0.97026 0.91576 0.0
H186 H 0.69093 0.07388 0.81568 0.0
H187 H 0.79939 0.96626 0.86625 0.0
H188 H 0.88765 0.94956 0.76854 0.0
H189 H 0.80899 0.94098 0.80783 0.0
H190 H 0.78591 0.10788 0.80383 0.0
H191 H 0.86361 0.11645 0.76421 0.0
C192 C 0.66748 0.05322 0.86579 0.0
C193 C 0.68149 1.02549 0.89475 0.0
C194 C 0.70156 1.05063 0.83725 0.0
C195 C 0.75015 1.0201 0.8371 0.0
C196 C 0.76207 0.98987 0.86541 0.0
C197 C 0.72811 0.99256 0.89392 0.0
C198 C 0.86518 0.98433 0.77559 0.0
C199 C 0.88245 1.03381 0.76356 0.0
C200 C 0.82025 0.97939 0.7982 0.0
C201 C 0.79155 1.02377 0.80919 0.0
C202 C 0.80675 0.07282 0.79566 0.0
C203 C 0.85166 0.07778 0.7731 0.0
H204 H 0.94393 0.74865 0.42336 0.0
H205 H 0.06163 0.65668 0.36704 0.0
H206 H 0.938 0.81011 0.377 0.0
H207 H 0.05654 0.7186 0.32065 0.0
H208 H 1.00829 0.82665 0.23509 0.0
H209 H 0.99948 0.75822 0.27734 0.0
H210 H 1.00346 0.87564 0.35473 0.0
H211 H 1.01125 0.94406 0.3125 0.0
C212 C 0.96781 0.74121 0.40077 0.0
C213 C 1.00357 0.69822 0.39881 0.0
C214 C 0.96481 0.77659 0.37434 0.0
C215 C 0.99766 0.76986 0.34539 0.0
C216 C 1.03054 0.72486 0.34256 0.0
C217 C 0.03338 0.68928 0.36904 0.0
C218 C 1.00705 0.83789 0.26113 0.0
C219 C 1.01053 0.89085 0.27045 0.0
C220 C 1.0022 0.79861 0.28533 0.0
C221 C 1.00053 0.8114 0.3194 0.0
C222 C 1.00362 0.86443 0.32867 0.0
C223 C 1.00855 0.90368 0.30449 0.0
loop_
_geom_bond_atom_site_label_1
_geom_bond_atom_site_label_2
_geom_bond_distance
_geom_bond_site_symmetry_2
_ccdc_geom_bond_type
H0 C6 0.929 1_565 S
H1 C9 0.931 . S
H2 C11 0.931 1_565 S
H3 C13 0.930 . S
H4 C15 0.930 . S
H5 C17 0.931 1_565 S
C6 H0 0.929 1_545 S
C6 C7 1.379 1_545 S
C6 C8 1.394 1_554 S
C7 C6 1.379 1_565 S
C7 C11 1.382 1_565 S
C8 C6 1.394 1_556 S
C8 C9 1.400 . S
C9 H1 0.931 . S
C9 C8 1.400 . S
C9 C10 1.375 1_556 S
C10 C9 1.375 1_554 S
C10 C11 1.415 . S
C10 C12 1.501 . S
C11 H2 0.931 1_545 S
C11 C7 1.382 1_545 S
C11 C10 1.415 . S
C12 C10 1.501 . S
C12 C13 1.384 . S
C12 C17 1.408 1_554 S
C13 H3 0.930 . S
C13 C12 1.384 . S
C13 C14 1.389 . S
C14 C13 1.389 . S
C14 C15 1.405 . S
C15 H4 0.930 . S
C15 C14 1.405 . S
C15 C16 1.367 1_554 S
C16 C15 1.367 1_556 S
C16 C17 1.401 . S
C17 H5 0.931 1_545 S
C17 C12 1.408 1_556 S
C17 C16 1.401 . S
H18 C24 0.930 . S
H19 C27 0.931 . S
H20 C29 0.931 . S
H21 C31 0.930 . S
H22 C33 0.930 . S
H23 C35 0.931 . S
C24 H18 0.930 . S
C24 C25 1.380 . S
C24 C26 1.394 1_455 S
C25 C24 1.380 . S
C25 C29 1.382 . S
C26 C24 1.394 1_655 S
C26 C27 1.400 . S
C27 H19 0.931 . S
C27 C26 1.400 . S
C27 C28 1.375 . S
C28 C27 1.375 . S
C28 C29 1.415 1_655 S
C28 C30 1.501 . S
C29 H20 0.931 . S
C29 C25 1.382 . S
C29 C28 1.415 1_455 S
C30 C28 1.501 . S
C30 C31 1.384 . S
C30 C35 1.408 1_655 S
C31 H21 0.930 . S
C31 C30 1.384 . S
C31 C32 1.389 . S
C32 C31 1.389 . S
C32 C33 1.405 . S
C33 H22 0.930 . S
C33 C32 1.405 . S
C33 C34 1.364 1_655 S
C34 C33 1.364 1_455 S
C34 C35 1.400 . S
C35 H23 0.931 . S
C35 C30 1.408 1_455 S
C35 C34 1.400 . S
O36 Cd37 2.223 1_655 S
O36 C44 1.315 . S
Cd37 O36 2.223 1_455 S
Cd37 O40 2.297 1_455 S
Cd37 O41 2.439 1_455 S
Cd37 O47 2.240 1_565 S
Cd38 O39 2.240 1_545 S
Cd38 O46 2.223 1_655 S
Cd38 O48 2.297 1_655 S
Cd38 O49 2.439 1_655 S
O39 Cd38 2.240 1_565 S
O39 C44 1.279 . S
O40 Cd37 2.297 1_655 S
O40 C42 1.247 . S
O41 Cd37 2.439 1_655 S
O41 C42 1.208 . S
C42 O40 1.247 . S
C42 O41 1.208 . S
C43 O48 1.247 . S
C43 O49 1.208 . S
C44 O36 1.315 . S
C44 O39 1.279 . S
C45 O46 1.315 . S
C45 O47 1.279 . S
O46 Cd38 2.223 1_455 S
O46 C45 1.315 . S
O47 Cd37 2.240 1_545 S
O47 C45 1.279 . S
O48 Cd38 2.297 1_455 S
O48 C43 1.247 . S
O49 Cd38 2.439 1_455 S
O49 C43 1.208 . S
O50 Cd51 2.223 1_655 S
O50 C58 1.315 . S
Cd51 O50 2.223 1_455 S
Cd51 O54 2.297 1_455 S
Cd51 O55 2.439 1_455 S
Cd51 O61 2.240 1_545 S
Cd52 O53 2.240 1_565 S
Cd52 O60 2.223 1_655 S
Cd52 O62 2.297 1_655 S
Cd52 O63 2.439 1_655 S
O53 Cd52 2.240 1_545 S
O53 C58 1.279 . S
O54 Cd51 2.297 1_655 S
O54 C56 1.247 . S
O55 Cd51 2.439 1_655 S
O55 C56 1.208 . S
C56 O54 1.247 . S
C56 O55 1.208 . S
C57 O62 1.247 . S
C57 O63 1.208 . S
C58 O50 1.315 . S
C58 O53 1.279 . S
C59 O60 1.315 . S
C59 O61 1.279 . S
O60 Cd52 2.223 1_455 S
O60 C59 1.315 . S
O61 Cd51 2.240 1_565 S
O61 C59 1.279 . S
O62 Cd52 2.297 1_455 S
O62 C57 1.247 . S
O63 Cd52 2.439 1_455 S
O63 C57 1.208 . S
H64 C72 0.950 . S
H65 C77 0.950 . S
H66 C74 0.950 . S
H67 C76 0.950 . S
H68 C78 0.950 . S
H69 C80 0.950 . S
H70 C82 0.950 1_565 S
H71 C83 0.950 1_565 S
C72 H64 0.950 . S
C72 C73 1.386 . S
C72 C74 1.391 . S
C73 C72 1.386 . S
C73 C77 1.393 1_565 S
C74 H66 0.950 . S
C74 C72 1.391 . S
C74 C75 1.400 1_565 S
C75 C74 1.400 1_545 S
C75 C76 1.398 . S
C75 C81 1.491 . S
C76 H67 0.950 . S
C76 C75 1.398 . S
C76 C77 1.391 . S
C77 H65 0.950 . S
C77 C73 1.393 1_545 S
C77 C76 1.391 . S
C78 H68 0.950 . S
C78 C79 1.386 . S
C78 C80 1.391 . S
C79 C78 1.386 . S
C79 C83 1.393 . S
C80 H69 0.950 . S
C80 C78 1.391 . S
C80 C81 1.400 . S
C81 C75 1.491 . S
C81 C80 1.400 . S
C81 C82 1.398 . S
C82 H70 0.950 1_545 S
C82 C81 1.398 . S
C82 C83 1.391 . S
C83 H71 0.950 1_545 S
C83 C79 1.393 . S
C83 C82 1.391 . S
H84 C92 0.950 . S
H85 C97 0.950 . S
H86 C94 0.950 . S
H87 C96 0.950 . S
H88 C98 0.950 . S
H89 C100 0.950 . S
H90 C102 0.950 . S
H91 C103 0.950 . S
C92 H84 0.950 . S
C92 C93 1.386 . S
C92 C94 1.391 . S
C93 C92 1.386 . S
C93 C97 1.393 1_455 S
C94 H86 0.950 . S
C94 C92 1.391 . S
C94 C95 1.400 1_455 S
C95 C94 1.400 1_655 S
C95 C96 1.398 . S
C95 C101 1.491 . S
C96 H87 0.950 . S
C96 C95 1.398 . S
C96 C97 1.391 . S
C97 H85 0.950 . S
C97 C93 1.393 1_655 S
C97 C96 1.391 . S
C98 H88 0.950 . S
C98 C99 1.386 . S
C98 C100 1.391 . S
C99 C98 1.386 . S
C99 C103 1.393 1_655 S
C100 H89 0.950 . S
C100 C98 1.391 . S
C100 C101 1.400 . S
C101 C95 1.491 . S
C101 C100 1.400 . S
C101 C102 1.398 1_655 S
C102 H90 0.950 . S
C102 C101 1.398 1_455 S
C102 C103 1.391 . S
C103 H91 0.950 . S
C103 C99 1.393 1_455 S
C103 C102 1.391 . S
H104 C112 0.950 . S
H105 C117 0.950 . S
H106 C114 0.950 . S
H107 C116 0.950 . S
H108 C118 0.950 . S
H109 C120 0.950 . S
H110 C122 0.950 1_545 S
H111 C123 0.950 . S
C112 H104 0.950 . S
C112 C113 1.386 . S
C112 C114 1.391 . S
C113 C112 1.386 . S
C113 C117 1.393 1_545 S
C114 H106 0.950 . S
C114 C112 1.391 . S
C114 C115 1.400 1_545 S
C115 C114 1.400 1_565 S
C115 C116 1.398 . S
C115 C121 1.491 . S
C116 H107 0.950 . S
C116 C115 1.398 . S
C116 C117 1.391 . S
C117 H105 0.950 . S
C117 C113 1.393 1_565 S
C117 C116 1.391 . S
C118 H108 0.950 . S
C118 C119 1.386 . S
C118 C120 1.391 . S
C119 C118 1.386 . S
C119 C123 1.393 . S
C120 H109 0.950 . S
C120 C118 1.391 . S
C120 C121 1.400 . S
C121 C115 1.491 . S
C121 C120 1.400 . S
C121 C122 1.398 . S
C122 H110 0.950 1_565 S
C122 C121 1.398 . S
C122 C123 1.391 . S
C123 H111 0.950 . S
C123 C119 1.393 . S
C123 C122 1.391 . S
H124 C132 0.950 . S
H125 C137 0.950 . S
H126 C134 0.950 . S
H127 C136 0.950 . S
H128 C138 0.950 . S
H129 C140 0.950 1_655 S
H130 C142 0.950 . S
H131 C143 0.950 . S
C132 H124 0.950 . S
C132 C133 1.386 1_455 S
C132 C134 1.391 . S
C133 C132 1.386 1_655 S
C133 C137 1.393 . S
C134 H126 0.950 . S
C134 C132 1.391 . S
C134 C135 1.400 . S
C135 C134 1.400 . S
C135 C136 1.398 1_455 S
C135 C141 1.491 . S
C136 H127 0.950 . S
C136 C135 1.398 1_655 S
C136 C137 1.391 . S
C137 H125 0.950 . S
C137 C133 1.393 . S
C137 C136 1.391 . S
C138 H128 0.950 . S
C138 C139 1.386 . S
C138 C140 1.391 . S
C139 C138 1.386 . S
C139 C143 1.393 . S
C140 H129 0.950 1_455 S
C140 C138 1.391 . S
C140 C141 1.400 . S
C141 C135 1.491 . S
C141 C140 1.400 . S
C141 C142 1.398 . S
C142 H130 0.950 . S
C142 C141 1.398 . S
C142 C143 1.391 . S
C143 H131 0.950 . S
C143 C139 1.393 . S
C143 C142 1.391 . S
H144 C152 0.950 . S
H145 C157 0.950 . S
H146 C154 0.950 . S
H147 C156 0.950 . S
H148 C158 0.950 . S
H149 C160 0.950 . S
H150 C162 0.950 . S
H151 C163 0.950 . S
C152 H144 0.950 . S
C152 C153 1.386 . S
C152 C154 1.391 . S
C153 C152 1.386 . S
C153 C157 1.393 1_545 S
C154 H146 0.950 . S
C154 C152 1.391 . S
C154 C155 1.400 1_545 S
C155 C154 1.400 1_565 S
C155 C156 1.398 . S
C155 C161 1.491 . S
C156 H147 0.950 . S
C156 C155 1.398 . S
C156 C157 1.391 . S
C157 H145 0.950 . S
C157 C153 1.393 1_565 S
C157 C156 1.391 . S
C158 H148 0.950 . S
C158 C159 1.386 . S
C158 C160 1.391 . S
C159 C158 1.386 . S
C159 C163 1.393 1_565 S
C160 H149 0.950 . S
C160 C158 1.391 . S
C160 C161 1.400 . S
C161 C155 1.491 . S
C161 C160 1.400 . S
C161 C162 1.398 1_565 S
C162 H150 0.950 . S
C162 C161 1.398 1_545 S
C162 C163 1.391 . S
C163 H151 0.950 . S
C163 C159 1.393 1_545 S
C163 C162 1.391 . S
H164 C172 0.950 . S
H165 C177 0.950 . S
H166 C174 0.950 . S
H167 C176 0.950 . S
H168 C178 0.950 . S
H169 C180 0.950 . S
H170 C182 0.950 . S
H171 C183 0.950 . S
C172 H164 0.950 . S
C172 C173 1.386 . S
C172 C174 1.391 . S
C173 C172 1.386 . S
C173 C177 1.393 1_455 S
C174 H166 0.950 . S
C174 C172 1.391 . S
C174 C175 1.400 . S
C175 C174 1.400 . S
C175 C176 1.398 . S
C175 C181 1.491 . S
C176 H167 0.950 . S
C176 C175 1.398 . S
C176 C177 1.391 1_455 S
C177 H165 0.950 . S
C177 C173 1.393 1_655 S
C177 C176 1.391 1_655 S
C178 H168 0.950 . S
C178 C179 1.386 . S
C178 C180 1.391 . S
C179 C178 1.386 . S
C179 C183 1.393 . S
C180 H169 0.950 . S
C180 C178 1.391 . S
C180 C181 1.400 . S
C181 C175 1.491 . S
C181 C180 1.400 . S
C181 C182 1.398 . S
C182 H170 0.950 . S
C182 C181 1.398 . S
C182 C183 1.391 . S
C183 H171 0.950 . S
C183 C179 1.393 . S
C183 C182 1.391 . S
H184 C192 0.950 . S
H185 C197 0.950 . S
H186 C194 0.950 . S
H187 C196 0.950 . S
H188 C198 0.950 . S
H189 C200 0.950 . S
H190 C202 0.950 . S
H191 C203 0.950 . S
C192 H184 0.950 . S
C192 C193 1.387 . S
C192 C194 1.391 . S
C193 C192 1.387 . S
C193 C197 1.392 1_545 S
C194 H186 0.950 . S
C194 C192 1.391 . S
C194 C195 1.400 . S
C195 C194 1.400 . S
C195 C196 1.398 1_545 S
C195 C201 1.491 . S
C196 H187 0.950 . S
C196 C195 1.398 1_565 S
C196 C197 1.391 . S
C197 H185 0.950 . S
C197 C193 1.392 1_565 S
C197 C196 1.391 . S
C198 H188 0.950 . S
C198 C199 1.386 1_565 S
C198 C200 1.391 . S
C199 C198 1.386 1_545 S
C199 C203 1.393 . S
C200 H189 0.950 . S
C200 C198 1.391 . S
C200 C201 1.400 1_565 S
C201 C195 1.491 . S
C201 C200 1.400 1_545 S
C201 C202 1.398 . S
C202 H190 0.950 . S
C202 C201 1.398 . S
C202 C203 1.391 . S
C203 H191 0.950 . S
C203 C199 1.393 . S
C203 C202 1.391 . S
H204 C212 0.950 . S
H205 C217 0.950 . S
H206 C214 0.950 . S
H207 C216 0.950 . S
H208 C218 0.950 . S
H209 C220 0.950 . S
H210 C222 0.950 . S
H211 C223 0.950 . S
C212 H204 0.950 . S
C212 C213 1.386 1_655 S
C212 C214 1.391 . S
C213 C212 1.386 1_455 S
C213 C217 1.393 . S
C214 H206 0.950 . S
C214 C212 1.391 . S
C214 C215 1.400 . S
C215 C214 1.400 . S
C215 C216 1.398 1_655 S
C215 C221 1.491 . S
C216 H207 0.950 . S
C216 C215 1.398 1_455 S
C216 C217 1.391 . S
C217 H205 0.950 . S
C217 C213 1.393 . S
C217 C216 1.391 . S
C218 H208 0.950 . S
C218 C219 1.386 1_455 S
C218 C220 1.391 . S
C219 C218 1.386 1_655 S
C219 C223 1.393 . S
C220 H209 0.950 . S
C220 C218 1.391 . S
C220 C221 1.400 1_455 S
C221 C215 1.491 . S
C221 C220 1.400 1_655 S
C221 C222 1.398 . S
C222 H210 0.950 . S
C222 C221 1.398 . S
C222 C223 1.391 . S
C223 H211 0.950 . S
C223 C219 1.393 . S
C223 C222 1.391 . S
C79 C45 1.673 . S
C73 C7 1.636 . S
C99 C56 1.571 . S
C93 C34 1.596 . S
C119 C44 1.675 . S
C113 C14 1.635 . S
C139 C57 1.573 . S
C133 C26 1.598 . S
C159 C59 1.668 . S
C153 C8 1.631 . S
C179 C43 1.559 . S
C173 C32 1.599 1_455 S
C199 C58 1.666 . S
C193 C16 1.613 . S
C213 C25 1.585 . S
C219 C42 1.566 . S
