# Generated by pormake.
# Topology pyr, (3,6)-cn, num edge types: 1
# Building blocks:
#     Node 0, Type 0, BuildingBlock: ESEHIV_clean_linker_0, # of connection points: 3
#     Node 1, Type 0, BuildingBlock: ESEHIV_clean_linker_0, # of connection points: 3
#     Node 2, Type 0, BuildingBlock: ESEHIV_clean_linker_0, # of connection points: 3
#     Node 3, Type 0, BuildingBlock: ESEHIV_clean_linker_0, # of connection points: 3
#     Node 4, Type 0, BuildingBlock: ESEHIV_clean_linker_0, # of connection points: 3
#     Node 5, Type 0, BuildingBlock: ESEHIV_clean_linker_0, # of connection points: 3
#     Node 6, Type 0, BuildingBlock: ESEHIV_clean_linker_0, # of connection points: 3
#     Node 7, Type 0, BuildingBlock: ESEHIV_clean_linker_0, # of connection points: 3
#     Node 8, Type 1, BuildingBlock: JUFBIX_clean_sbu_0, # of connection points: 6
#     Node 9, Type 1, BuildingBlock: JUFBIX_clean_sbu_0, # of connection points: 6
#     Node 10, Type 1, BuildingBlock: JUFBIX_clean_sbu_0, # of connection points: 6
#     Node 11, Type 1, BuildingBlock: JUFBIX_clean_sbu_0, # of connection points: 6
#     Edge 12, Type (0, 1), None
#     Edge 13, Type (0, 1), None
#     Edge 14, Type (0, 1), None
#     Edge 15, Type (0, 1), None
#     Edge 16, Type (0, 1), None
#     Edge 17, Type (0, 1), None
#     Edge 18, Type (0, 1), None
#     Edge 19, Type (0, 1), None
#     Edge 20, Type (0, 1), None
#     Edge 21, Type (0, 1), None
#     Edge 22, Type (0, 1), None
#     Edge 23, Type (0, 1), None
#     Edge 24, Type (0, 1), None
#     Edge 25, Type (0, 1), None
#     Edge 26, Type (0, 1), None
#     Edge 27, Type (0, 1), None
#     Edge 28, Type (0, 1), None
#     Edge 29, Type (0, 1), None
#     Edge 30, Type (0, 1), None
#     Edge 31, Type (0, 1), None
#     Edge 32, Type (0, 1), None
#     Edge 33, Type (0, 1), None
#     Edge 34, Type (0, 1), None
#     Edge 35, Type (0, 1), None
# Relax obj value: 0.282
# Max RMSD: 0.148
# Mean RMSD: 0.067
data_MOF--net-pyr--node1-JUFBIX_clean_sbu_0--node2-ESEHIV_clean_linker_0--edge1-none
_symmetry_space_group_name_H-M    P1
_symmetry_Int_Tables_number       1
_symmetry_cell_setting            triclinic
loop_
_symmetry_equiv_pos_as_xyz
'x, y, z'
_cell_length_a     13.99277
_cell_length_b     14.099468
_cell_length_c     14.363688
_cell_angle_alpha  78.01792
_cell_angle_beta   89.975949
_cell_angle_gamma 89.245812
loop_
_atom_site_label
_atom_site_type_symbol
_atom_site_fract_x
_atom_site_fract_y
_atom_site_fract_z
_atom_type_partial_charge
H0 H 0.10146 0.17882 0.28817 0.0
H1 H 0.33042 0.96782 0.31544 0.0
H2 H 0.32787 0.2171 0.08101 0.0
C3 C 0.16657 0.15226 0.26071 0.0
C4 C 0.21082 0.20967 0.18152 0.0
C5 C 0.20692 0.06535 0.31021 0.0
C6 C 0.29643 0.03343 0.27611 0.0
C7 C 0.3405 0.08517 0.18968 0.0
C8 C 0.29511 0.17383 0.14377 0.0
H9 H 0.57872 0.952 0.6622 0.0
H10 H 0.4924 0.67235 0.80763 0.0
H11 H 0.44771 0.76953 0.50593 0.0
C12 C 0.5574 0.87981 0.65859 0.0
C13 C 0.49796 0.87477 0.58319 0.0
C14 C 0.53344 0.81929 0.74471 0.0
C15 C 0.50022 0.72635 0.74247 0.0
C16 C 0.47903 0.70498 0.65367 0.0
C17 C 0.47439 0.78141 0.57336 0.0
H18 H 0.81232 0.24879 0.10078 0.0
H19 H 0.84498 0.4883 0.85861 0.0
H20 H 0.6225 0.27987 0.86144 0.0
C21 C 0.78854 0.28978 1.03225 0.0
C22 C 0.71167 0.25317 0.98402 0.0
C23 C 0.83847 0.37627 0.98953 0.0
C24 C 0.80758 0.42447 0.89489 0.0
C25 C 0.7273 0.39134 0.84815 0.0
C26 C 0.68194 0.30696 0.89572 0.0
H27 H 0.98459 0.67442 0.65215 0.0
H28 H 0.22882 0.63175 0.50701 0.0
H29 H 0.97076 0.72576 0.34966 0.0
C30 C 1.02071 0.67942 0.58451 0.0
C31 C 0.96815 0.70547 0.49968 0.0
C32 C 0.11752 0.70079 0.57574 0.0
C33 C 0.16034 0.66914 0.49756 0.0
C34 C 0.1014 0.66531 0.41772 0.0
C35 C 1.01451 0.71491 0.41326 0.0
H36 H 0.86388 -0.00488 0.84825 0.0
H37 H 1.09283 0.78412 0.87556 0.0
H38 H 0.86637 0.74583 0.08267 0.0
C39 C 0.89786 0.92951 0.88759 0.0
C40 C 0.85377 0.87777 0.974 0.0
C41 C 0.98736 0.89757 0.85349 0.0
C42 C 1.02771 0.81067 0.90301 0.0
C43 C 0.98344 0.75326 0.98218 0.0
C44 C 0.89914 0.78911 1.01991 0.0
H45 H 0.70192 0.29054 0.35603 0.0
H46 H 0.61556 0.01103 0.50137 0.0
H47 H 0.7467 0.19352 0.65773 0.0
C48 C 0.69413 0.23657 0.42121 0.0
C49 C 0.71535 0.25799 0.50998 0.0
C50 C 0.6609 0.14362 0.41903 0.0
C51 C 0.63696 0.08314 0.50518 0.0
C52 C 0.69641 0.08822 0.58055 0.0
C53 C 0.72 0.18159 0.59031 0.0
H54 H 0.38192 0.71418 1.06291 0.0
H55 H 0.34936 0.47464 0.30507 0.0
H56 H 0.57183 0.68309 0.30217 0.0
C57 C 0.40572 0.67318 0.13142 0.0
C58 C 0.48261 0.70979 0.17962 0.0
C59 C 0.35581 0.58668 0.17415 0.0
C60 C 0.38674 0.53847 0.26877 0.0
C61 C 0.46704 0.57161 0.31549 0.0
C62 C 0.51238 0.656 0.26791 0.0
H63 H 0.96543 0.33083 0.65683 0.0
H64 H 0.20968 0.28859 0.51142 0.0
H65 H 0.22358 0.23729 0.81404 0.0
C66 C 1.03403 0.29366 0.66614 0.0
C67 C 1.09298 0.29759 0.74595 0.0
C68 C 1.07692 0.26211 0.58794 0.0
C69 C 0.1737 0.28355 0.57913 0.0
C70 C 0.22627 0.25752 0.66394 0.0
C71 C 0.17995 0.24812 0.75037 0.0
Co72 Co 1.02735 -0.0085 0.55067 0.0
C73 C 0.12568 0.80425 0.58034 0.0
Co74 Co 0.16695 0.97142 0.61306 0.0
C75 C 0.84364 0.03956 0.51761 0.0
C76 C 0.85903 0.89205 0.58434 0.0
N77 N 0.90382 0.96487 0.52376 0.0
N78 N 0.77427 0.02283 0.58294 0.0
C79 C 0.78046 0.92844 0.62266 0.0
H80 H 0.85582 0.10974 0.4725 0.0
H81 H 0.89236 0.82423 0.61767 0.0
C82 C 1.06861 0.15866 0.58342 0.0
N83 N 0.29048 -0.00195 0.63996 0.0
C84 C 0.35068 0.92337 0.64611 0.0
C85 C 0.33526 0.07089 0.57939 0.0
N86 N 0.42008 0.94014 0.5808 0.0
C87 C 0.41386 0.03453 0.54108 0.0
C88 C 0.15908 0.02103 0.40421 0.0
O89 O 0.99946 0.12589 0.54594 0.0
O90 O 0.13884 0.1019 0.61121 0.0
O91 O 0.20934 -0.00032 0.47872 0.0
O92 O 1.06832 0.02339 0.41603 0.0
O93 O 0.19484 0.83705 0.61778 0.0
H94 H 0.30192 0.13869 0.54603 0.0
H95 H 0.33851 0.85318 0.69119 0.0
O96 O 1.05546 0.86101 0.55252 0.0
O97 O 0.98496 0.96325 0.68499 0.0
O98 O 0.12598 0.93953 0.74769 0.0
C99 C 1.03522 0.9419 0.7595 0.0
H100 H 0.73851 0.89097 0.68151 0.0
H101 H 0.45582 0.07202 0.48226 0.0
Co102 Co 0.56087 -0.00962 1.01423 0.0
C103 C 0.53128 0.80665 0.14492 0.0
Co104 Co 0.6334 0.97259 0.14943 0.0
C105 C 0.54922 0.94432 0.83978 0.0
C106 C 0.41451 0.93799 0.90895 0.0
N107 N 0.49971 -0.01663 0.9028 0.0
N108 N 0.50625 0.86654 0.81945 0.0
C109 C 0.42009 0.86337 0.86117 0.0
H110 H 0.61925 0.96839 0.81354 0.0
H111 H 0.35874 0.94544 0.95914 0.0
C112 C 0.66299 0.15632 1.01873 0.0
N113 N 0.69455 -0.0204 0.26086 0.0
C114 C 0.64505 0.01865 0.32388 0.0
C115 C 0.77976 0.02496 0.25471 0.0
N116 N 0.68805 0.0964 0.34424 0.0
C117 C 0.77421 0.09956 0.30252 0.0
C118 C 0.76097 0.91347 1.01638 0.0
O119 O 0.60655 0.12081 0.9651 0.0
O120 O 0.68002 0.10524 0.10043 0.0
O121 O 0.75436 0.91827 0.10382 0.0
O122 O 0.68575 0.93847 0.96674 0.0
O123 O 0.58771 0.84217 0.19855 0.0
H124 H 0.83553 0.0175 0.20451 0.0
H125 H 0.57502 -0.0054 0.35011 0.0
O126 O 0.51425 0.85773 1.06322 0.0
O127 O 0.4399 0.04469 1.05984 0.0
O128 O 0.50852 0.02449 0.19691 0.0
C129 C 0.43329 0.04949 0.14728 0.0
H130 H 0.3651 0.81101 0.85731 0.0
H131 H 0.82923 0.15189 0.3064 0.0
Co132 Co 0.65992 0.5185 0.55701 0.0
C133 C 0.50914 0.52647 0.41376 0.0
Co134 Co 0.53447 0.44448 0.60661 0.0
C135 C 0.82977 0.61057 0.53647 0.0
C136 C 0.72093 0.70027 0.45649 0.0
N137 N 0.73902 0.61144 0.51094 0.0
N138 N 0.86941 0.69516 0.50115 0.0
C139 C 0.80352 0.75187 0.44789 0.0
H140 H 0.86745 0.54793 0.57728 0.0
H141 H 0.65206 0.72641 0.42738 0.0
C142 C 0.68523 0.4365 0.74987 0.0
N143 N 0.45538 0.35155 0.65267 0.0
C144 C 0.36464 0.35242 0.62714 0.0
C145 C 0.47348 0.2627 0.70712 0.0
N146 N 0.325 0.26782 0.66244 0.0
C147 C 0.39088 0.21111 0.71571 0.0
C148 C 0.68477 0.34993 0.52767 0.0
O149 O 0.73132 0.488 0.68201 0.0
O150 O 0.60118 0.41337 0.72963 0.0
O151 O 0.60347 0.3507 0.56443 0.0
O152 O 0.73459 0.42534 0.51233 0.0
O153 O 0.46306 0.47498 0.48162 0.0
H154 H 0.54235 0.23656 0.73623 0.0
H155 H 0.32695 0.41506 0.58634 0.0
O156 O 0.5932 0.5496 0.43398 0.0
O157 O 0.59091 0.61229 0.59918 0.0
O158 O 0.4598 0.53763 0.65131 0.0
C159 C 0.50961 0.61305 0.63594 0.0
H160 H 0.81519 0.82381 0.40565 0.0
H161 H 0.37922 0.13917 0.75795 0.0
Co162 Co 0.13079 0.48653 1.01277 0.0
C163 C 0.92848 0.41101 1.03694 0.0
Co164 Co 1.06347 0.4764 0.15093 0.0
C165 C 0.13951 0.38093 0.87237 0.0
C166 C 0.12226 0.52968 0.80759 0.0
N167 N 0.15482 0.47096 0.88858 0.0
N168 N 1.09413 0.38029 0.79004 0.0
C169 C 1.08645 0.47405 0.74681 0.0
H170 H 0.15343 0.31432 0.92303 0.0
H171 H 0.11668 0.60782 0.79621 0.0
C172 C 0.26579 0.55193 0.12676 0.0
N173 N 1.03941 0.49195 0.27512 0.0
C174 C 1.05472 0.58197 0.29134 0.0
C175 C 1.07199 0.43321 0.3561 0.0
N176 N 0.10014 0.5826 0.37365 0.0
C177 C 0.10782 0.48884 0.41687 0.0
C178 C 0.16863 0.3091 0.14489 0.0
O179 O 0.25955 0.54266 1.03944 0.0
O180 O 0.19152 0.52896 0.17721 0.0
O181 O 0.11371 0.34795 0.19726 0.0
O182 O 0.18598 0.35719 1.06219 0.0
O183 O 0.93472 0.42027 0.12426 0.0
H184 H 1.07756 0.35508 0.36747 0.0
H185 H 1.04079 0.64858 0.24069 0.0
O186 O 1.00275 0.43398 0.9865 0.0
O187 O 1.08054 0.61498 0.96644 0.0
O188 O 1.00828 0.60574 0.10151 0.0
C189 C 1.02563 0.65383 1.01881 0.0
H190 H 1.05867 0.49953 0.67583 0.0
H191 H 0.13563 0.46335 0.48784 0.0
loop_
_geom_bond_atom_site_label_1
_geom_bond_atom_site_label_2
_geom_bond_distance
_geom_bond_site_symmetry_2
_ccdc_geom_bond_type
H0 C3 0.931 . S
H1 C6 0.928 1_565 S
H2 C8 0.930 . S
C3 H0 0.931 . S
C3 C4 1.413 . S
C3 C5 1.360 . S
C4 C3 1.413 . S
C4 C8 1.429 . S
C5 C3 1.360 . S
C5 C6 1.372 . S
C6 H1 0.928 1_545 S
C6 C5 1.372 . S
C6 C7 1.404 . S
C7 C6 1.404 . S
C7 C8 1.391 . S
C8 H2 0.930 . S
C8 C4 1.429 . S
C8 C7 1.391 . S
H9 C12 0.931 . S
H10 C15 0.928 . S
H11 C17 0.930 . S
C12 H9 0.931 . S
C12 C13 1.413 . S
C12 C14 1.360 . S
C13 C12 1.413 . S
C13 C17 1.429 . S
C14 C12 1.360 . S
C14 C15 1.372 . S
C15 H10 0.928 . S
C15 C14 1.372 . S
C15 C16 1.404 . S
C16 C15 1.404 . S
C16 C17 1.391 . S
C17 H11 0.930 . S
C17 C13 1.429 . S
C17 C16 1.391 . S
H18 C21 0.935 . S
H19 C24 0.928 . S
H20 C26 0.930 . S
C21 H18 0.935 . S
C21 C22 1.413 . S
C21 C23 1.360 . S
C22 C21 1.413 . S
C22 C26 1.429 . S
C23 C21 1.360 . S
C23 C24 1.372 . S
C24 H19 0.928 . S
C24 C23 1.372 . S
C24 C25 1.404 . S
C25 C24 1.404 . S
C25 C26 1.391 . S
C26 H20 0.930 . S
C26 C22 1.429 . S
C26 C25 1.391 . S
H27 C30 0.931 . S
H28 C33 0.928 . S
H29 C35 0.930 . S
C30 H27 0.931 . S
C30 C31 1.413 . S
C30 C32 1.360 . S
C31 C30 1.413 . S
C31 C35 1.429 . S
C32 C30 1.360 . S
C32 C33 1.372 1_655 S
C33 H28 0.928 . S
C33 C32 1.372 1_455 S
C33 C34 1.404 1_455 S
C34 C33 1.404 1_655 S
C34 C35 1.391 . S
C35 H29 0.930 . S
C35 C31 1.429 . S
C35 C34 1.391 . S
H36 C39 0.931 1_545 S
H37 C42 0.928 . S
H38 C44 0.930 1_554 S
C39 H36 0.931 1_565 S
C39 C40 1.413 . S
C39 C41 1.360 . S
C40 C39 1.413 . S
C40 C44 1.429 . S
C41 C39 1.360 . S
C41 C42 1.372 . S
C42 H37 0.928 . S
C42 C41 1.372 . S
C42 C43 1.404 . S
C43 C42 1.404 . S
C43 C44 1.391 . S
C44 H38 0.930 1_556 S
C44 C40 1.429 . S
C44 C43 1.391 . S
H45 C48 0.931 . S
H46 C51 0.928 . S
H47 C53 0.930 . S
C48 H45 0.931 . S
C48 C49 1.413 . S
C48 C50 1.360 . S
C49 C48 1.413 . S
C49 C53 1.429 . S
C50 C48 1.360 . S
C50 C51 1.372 . S
C51 H46 0.928 . S
C51 C50 1.372 . S
C51 C52 1.404 . S
C52 C51 1.404 . S
C52 C53 1.391 . S
C53 H47 0.930 . S
C53 C49 1.429 . S
C53 C52 1.391 . S
H54 C57 0.931 . S
H55 C60 0.928 . S
H56 C62 0.930 . S
C57 H54 0.931 . S
C57 C58 1.413 . S
C57 C59 1.360 . S
C58 C57 1.413 . S
C58 C62 1.429 . S
C59 C57 1.360 . S
C59 C60 1.372 . S
C60 H55 0.928 . S
C60 C59 1.372 . S
C60 C61 1.404 . S
C61 C60 1.404 . S
C61 C62 1.391 . S
C62 H56 0.930 . S
C62 C58 1.429 . S
C62 C61 1.391 . S
H63 C66 0.931 . S
H64 C69 0.928 . S
H65 C71 0.930 . S
C66 H63 0.931 . S
C66 C67 1.413 1_655 S
C66 C68 1.360 1_655 S
C67 C66 1.413 1_455 S
C67 C71 1.429 . S
C68 C66 1.360 1_455 S
C68 C69 1.372 . S
C69 H64 0.928 . S
C69 C68 1.372 . S
C69 C70 1.404 . S
C70 C69 1.404 . S
C70 C71 1.391 . S
C71 H65 0.930 . S
C71 C67 1.429 . S
C71 C70 1.391 . S
Co72 N77 2.057 . S
Co72 O89 2.021 . S
Co72 O92 2.062 . S
Co72 O96 2.117 1_545 S
Co72 O97 2.020 1_545 S
C73 O93 1.259 1_655 S
C73 O96 1.258 . S
Co74 N83 2.057 . S
Co74 O90 2.117 1_565 S
Co74 O91 2.020 1_565 S
Co74 O93 2.021 . S
Co74 O98 2.062 . S
C75 N77 1.316 . S
C75 N78 1.347 . S
C75 H80 0.931 . S
C76 N77 1.375 1_565 S
C76 C79 1.350 1_565 S
C76 H81 0.930 . S
N77 Co72 2.057 . S
N77 C75 1.316 . S
N77 C76 1.375 1_545 S
N78 C75 1.347 . S
N78 C79 1.373 . S
C79 C76 1.350 1_545 S
C79 N78 1.373 . S
C79 H100 0.928 1_545 S
H80 C75 0.931 . S
H81 C76 0.930 . S
C82 O89 1.259 1_455 S
C82 O90 1.258 . S
N83 Co74 2.057 . S
N83 C84 1.316 . S
N83 C85 1.375 1_565 S
C84 N83 1.316 . S
C84 N86 1.347 . S
C84 H95 0.931 . S
C85 N83 1.375 1_545 S
C85 C87 1.350 1_545 S
C85 H94 0.930 . S
N86 C84 1.347 . S
N86 C87 1.373 . S
C87 C85 1.350 1_565 S
C87 N86 1.373 . S
C87 H101 0.931 1_565 S
C88 O91 1.256 . S
C88 O92 1.255 1_455 S
O89 Co72 2.021 . S
O89 C82 1.259 1_655 S
O90 Co74 2.117 1_545 S
O90 C82 1.258 . S
O91 Co74 2.020 1_545 S
O91 C88 1.256 . S
O92 Co72 2.062 . S
O92 C88 1.255 1_655 S
O93 C73 1.259 1_455 S
O93 Co74 2.021 . S
H94 C85 0.930 . S
H95 C84 0.931 . S
O96 Co72 2.117 1_565 S
O96 C73 1.258 . S
O97 Co72 2.020 1_565 S
O97 C99 1.256 . S
O98 Co74 2.062 . S
O98 C99 1.255 1_455 S
C99 O97 1.256 . S
C99 O98 1.255 1_655 S
H100 C79 0.928 1_565 S
H101 C87 0.931 1_545 S
Co102 N107 2.057 . S
Co102 O119 2.021 1_565 S
Co102 O122 2.062 . S
Co102 O126 2.117 1_556 S
Co102 O127 2.020 1_565 S
C103 O123 1.259 . S
C103 O126 1.258 . S
Co104 N113 2.057 . S
Co104 O120 2.117 . S
Co104 O121 2.020 1_545 S
Co104 O123 2.021 1_545 S
Co104 O128 2.062 . S
C105 N107 1.316 . S
C105 N108 1.347 . S
C105 H110 0.931 1_565 S
C106 N107 1.375 . S
C106 C109 1.350 . S
C106 H111 0.930 . S
N107 Co102 2.057 . S
N107 C105 1.316 . S
N107 C106 1.375 . S
N108 C105 1.347 . S
N108 C109 1.373 . S
C109 C106 1.350 . S
C109 N108 1.373 . S
C109 H130 0.931 . S
H110 C105 0.931 1_545 S
H111 C106 0.930 . S
C112 O119 1.259 . S
C112 O120 1.258 1_556 S
N113 Co104 2.057 . S
N113 C114 1.316 . S
N113 C115 1.375 . S
C114 N113 1.316 . S
C114 N116 1.347 . S
C114 H125 0.931 1_545 S
C115 N113 1.375 . S
C115 C117 1.350 . S
C115 H124 0.930 . S
N116 C114 1.347 . S
N116 C117 1.373 . S
C117 C115 1.350 . S
C117 N116 1.373 . S
C117 H131 0.931 . S
C118 O121 1.256 1_556 S
C118 O122 1.255 . S
O119 Co102 2.021 1_545 S
O119 C112 1.259 . S
O120 Co104 2.117 . S
O120 C112 1.258 1_554 S
O121 Co104 2.020 1_565 S
O121 C118 1.256 1_554 S
O122 Co102 2.062 . S
O122 C118 1.255 . S
O123 C103 1.259 . S
O123 Co104 2.021 1_565 S
H124 C115 0.930 . S
H125 C114 0.931 1_565 S
O126 Co102 2.117 1_554 S
O126 C103 1.258 . S
O127 Co102 2.020 1_545 S
O127 C129 1.256 1_556 S
O128 Co104 2.062 . S
O128 C129 1.255 . S
C129 O127 1.256 1_554 S
C129 O128 1.255 . S
H130 C109 0.931 . S
H131 C117 0.931 . S
Co132 N137 2.057 . S
Co132 O149 2.021 . S
Co132 O152 2.062 . S
Co132 O156 2.117 . S
Co132 O157 2.020 . S
C133 O153 1.259 . S
C133 O156 1.258 . S
Co134 N143 2.057 . S
Co134 O150 2.117 . S
Co134 O151 2.020 . S
Co134 O153 2.021 . S
Co134 O158 2.062 . S
C135 N137 1.316 . S
C135 N138 1.347 . S
C135 H140 0.931 . S
C136 N137 1.375 . S
C136 C139 1.350 . S
C136 H141 0.930 . S
N137 Co132 2.057 . S
N137 C135 1.316 . S
N137 C136 1.375 . S
N138 C135 1.347 . S
N138 C139 1.373 . S
C139 C136 1.350 . S
C139 N138 1.373 . S
C139 H160 0.931 . S
H140 C135 0.931 . S
H141 C136 0.930 . S
C142 O149 1.259 . S
C142 O150 1.258 . S
N143 Co134 2.057 . S
N143 C144 1.316 . S
N143 C145 1.375 . S
C144 N143 1.316 . S
C144 N146 1.347 . S
C144 H155 0.931 . S
C145 N143 1.375 . S
C145 C147 1.350 . S
C145 H154 0.930 . S
N146 C144 1.347 . S
N146 C147 1.373 . S
C147 C145 1.350 . S
C147 N146 1.373 . S
C147 H161 0.931 . S
C148 O151 1.256 . S
C148 O152 1.255 . S
O149 Co132 2.021 . S
O149 C142 1.259 . S
O150 Co134 2.117 . S
O150 C142 1.258 . S
O151 Co134 2.020 . S
O151 C148 1.256 . S
O152 Co132 2.062 . S
O152 C148 1.255 . S
O153 C133 1.259 . S
O153 Co134 2.021 . S
H154 C145 0.930 . S
H155 C144 0.931 . S
O156 Co132 2.117 . S
O156 C133 1.258 . S
O157 Co132 2.020 . S
O157 C159 1.256 . S
O158 Co134 2.062 . S
O158 C159 1.255 . S
C159 O157 1.256 . S
C159 O158 1.255 . S
H160 C139 0.931 . S
H161 C147 0.931 . S
Co162 N167 2.057 . S
Co162 O179 2.021 . S
Co162 O182 2.062 . S
Co162 O186 2.117 1_455 S
Co162 O187 2.020 1_455 S
C163 O183 1.259 1_556 S
C163 O186 1.258 . S
Co164 N173 2.057 . S
Co164 O180 2.117 1_655 S
Co164 O181 2.020 1_655 S
Co164 O183 2.021 . S
Co164 O188 2.062 . S
C165 N167 1.316 . S
C165 N168 1.347 . S
C165 H170 0.931 . S
C166 N167 1.375 1_655 S
C166 C169 1.350 1_655 S
C166 H171 0.930 . S
N167 Co162 2.057 . S
N167 C165 1.316 . S
N167 C166 1.375 1_455 S
N168 C165 1.347 . S
N168 C169 1.373 . S
C169 C166 1.350 1_455 S
C169 N168 1.373 . S
C169 H190 0.931 1_455 S
H170 C165 0.931 . S
H171 C166 0.930 . S
C172 O179 1.259 1_554 S
C172 O180 1.258 . S
N173 Co164 2.057 . S
N173 C174 1.316 . S
N173 C175 1.375 1_655 S
C174 N173 1.316 . S
C174 N176 1.347 . S
C174 H185 0.931 . S
C175 N173 1.375 1_455 S
C175 C177 1.356 . S
C175 H184 0.930 . S
N176 C174 1.347 . S
N176 C177 1.359 1_655 S
C177 C175 1.356 . S
C177 N176 1.359 1_455 S
C177 H191 0.938 . S
C178 O181 1.256 . S
C178 O182 1.255 1_554 S
O179 Co162 2.021 . S
O179 C172 1.259 1_556 S
O180 Co164 2.117 1_455 S
O180 C172 1.258 . S
O181 Co164 2.020 1_455 S
O181 C178 1.256 . S
O182 Co162 2.062 . S
O182 C178 1.255 1_556 S
O183 C163 1.259 1_554 S
O183 Co164 2.021 . S
H184 C175 0.930 . S
H185 C174 0.931 . S
O186 Co162 2.117 1_655 S
O186 C163 1.258 . S
O187 Co162 2.020 1_655 S
O187 C189 1.256 . S
O188 Co164 2.062 . S
O188 C189 1.255 1_554 S
C189 O187 1.256 . S
C189 O188 1.255 1_556 S
H190 C169 0.931 1_655 S
H191 C177 0.938 . S
C5 C88 2.704 . S
C14 N108 1.132 . S
C142 C25 2.516 . S
C34 N176 1.297 . S
C129 C7 2.902 . S
N86 C13 1.226 . S
C163 C23 2.727 . S
N138 C31 1.060 . S
C4 C178 2.016 . S
C112 C22 1.991 . S
C32 C73 1.125 . S
C16 C159 1.116 . S
C99 C41 2.686 . S
C50 N116 1.129 . S
C61 C133 2.502 . S
C67 N168 1.282 . S
C40 C118 2.920 . S
N78 C52 1.174 . S
C172 C59 2.721 . S
N146 C70 1.046 . S
C43 C189 2.008 . S
C103 C58 1.989 . S
C82 C68 1.111 . S
C49 C148 1.127 . S
