# Generated by pormake.
# Topology rtl, (3,6)-cn, num edge types: 1
# Building blocks:
#     Node 0, Type 0, BuildingBlock: ESEHIV_clean_linker_0, # of connection points: 3
#     Node 1, Type 0, BuildingBlock: ESEHIV_clean_linker_0, # of connection points: 3
#     Node 2, Type 0, BuildingBlock: ESEHIV_clean_linker_0, # of connection points: 3
#     Node 3, Type 0, BuildingBlock: ESEHIV_clean_linker_0, # of connection points: 3
#     Node 4, Type 1, BuildingBlock: KUMBOL_clean_sbu_1, # of connection points: 6
#     Node 5, Type 1, BuildingBlock: KUMBOL_clean_sbu_1, # of connection points: 6
#     Edge 6, Type (0, 1), None
#     Edge 7, Type (0, 1), None
#     Edge 8, Type (0, 1), None
#     Edge 9, Type (0, 1), None
#     Edge 10, Type (0, 1), None
#     Edge 11, Type (0, 1), None
#     Edge 12, Type (0, 1), None
#     Edge 13, Type (0, 1), None
#     Edge 14, Type (0, 1), None
#     Edge 15, Type (0, 1), None
#     Edge 16, Type (0, 1), None
#     Edge 17, Type (0, 1), None
# Relax obj value: 0.021
# Max RMSD: 0.219
# Mean RMSD: 0.135
data_MOF--net-rtl--node1-KUMBOL_clean_sbu_1--node2-ESEHIV_clean_linker_0--edge1-none
_symmetry_space_group_name_H-M    P1
_symmetry_Int_Tables_number       1
_symmetry_cell_setting            triclinic
loop_
_symmetry_equiv_pos_as_xyz
'x, y, z'
_cell_length_a     13.569955
_cell_length_b     14.75334
_cell_length_c     13.912563
_cell_angle_alpha  64.081235
_cell_angle_beta   95.454381
_cell_angle_gamma 93.817222
loop_
_atom_site_label
_atom_site_type_symbol
_atom_site_fract_x
_atom_site_fract_y
_atom_site_fract_z
_atom_type_partial_charge
H0 H 0.08419 0.91196 0.95582 0.0
H1 H 0.3213 0.72481 0.14715 0.0
H2 H 0.25731 0.76636 0.82395 0.0
C3 C 0.14553 0.86535 0.96331 0.0
C4 C 0.16657 0.84854 0.87431 0.0
C5 C 0.197 0.81383 0.06435 0.0
C6 C 0.27925 0.75864 0.07028 0.0
C7 C 0.29904 0.73372 0.98743 0.0
C8 C 0.24256 0.78137 0.88867 0.0
H9 H 0.58482 0.54963 0.80625 0.0
H10 H 0.74079 0.77793 0.56466 0.0
H11 H 0.73928 0.77981 0.87462 0.0
C12 C 0.6315 0.61574 0.78287 0.0
C13 C 0.64868 0.6615 0.85112 0.0
C14 C 0.66991 0.65182 0.6842 0.0
C15 C 0.72339 0.74292 0.6472 0.0
C16 C 0.75879 0.78585 0.71735 0.0
C17 C 0.71724 0.74659 0.82024 0.0
H18 H 0.89189 0.08029 0.24702 0.0
H19 H 0.71877 0.22589 0.37889 0.0
H20 H 0.65478 0.26744 0.05569 0.0
C21 C 0.83055 0.1269 0.23953 0.0
C22 C 0.77909 0.17842 0.13849 0.0
C23 C 0.80952 0.14371 0.32853 0.0
C24 C 0.73352 0.21089 0.31417 0.0
C25 C 0.67706 0.25855 0.21541 0.0
C26 C 0.69684 0.23361 0.13256 0.0
H27 H 0.39126 0.44262 0.39658 0.0
H28 H 0.2353 0.21433 0.63817 0.0
H29 H 0.2368 0.21244 0.32822 0.0
C30 C 0.34458 0.37651 0.41996 0.0
C31 C 0.3274 0.33076 0.35172 0.0
C32 C 0.30617 0.34044 0.51864 0.0
C33 C 0.25269 0.24933 0.55563 0.0
C34 C 0.21729 0.2064 0.48549 0.0
C35 C 0.25884 0.24567 0.3826 0.0
C36 C 0.87839 0.29698 0.55336 0.0
C37 C 0.70167 0.29099 0.51208 0.0
C38 C 0.78979 0.24183 0.56116 0.0
C39 C 0.70678 0.3942 0.44609 0.0
C40 C 0.87979 0.40262 0.50023 0.0
C41 C 0.79371 0.45123 0.44493 0.0
N42 N 0.96218 0.24752 0.60313 0.0
C43 C 0.04536 0.2988 0.61688 0.0
C44 C 0.96755 0.4561 0.50443 0.0
C45 C 0.05029 0.40387 0.56599 0.0
Gd46 Gd 0.03003 0.91925 0.52211 0.0
Gd47 Gd 0.94605 0.07301 0.68073 0.0
N48 N 0.79126 0.13969 0.61074 0.0
C49 C 0.61321 0.23342 0.52239 0.0
C50 C 0.70607 0.08246 0.62386 0.0
C51 C 0.61536 0.12862 0.58016 0.0
H52 H 0.70796 0.00157 0.66808 0.0
H53 H 0.54767 0.08341 0.58908 0.0
H54 H 0.26812 -0.00932 0.53476 0.0
H55 H 0.10489 0.2589 0.67287 0.0
H56 H 0.42841 0.90884 0.61376 0.0
H57 H 0.54367 0.26856 0.48398 0.0
H58 H 0.64336 0.42965 0.39478 0.0
H59 H 0.87119 0.73336 0.52997 0.0
H60 H 0.96989 0.53761 0.46553 0.0
H61 H 0.11631 0.44428 0.57749 0.0
H62 H 0.33273 0.5626 0.80806 0.0
H63 H 0.79536 0.53216 0.39884 0.0
H64 H 0.00619 0.45464 0.73731 0.0
H65 H 0.85977 0.54798 0.62534 0.0
N66 N 0.0139 0.74473 0.59972 0.0
C67 C 0.0977 0.69527 0.64948 0.0
C68 C 0.93072 0.69345 0.58596 0.0
C69 C 0.00853 0.53616 0.69841 0.0
C70 C 0.92579 0.58838 0.63685 0.0
C71 C 0.09629 0.58963 0.70261 0.0
H72 H 0.18072 0.46009 0.804 0.0
N73 N 0.18482 0.85257 0.5921 0.0
C74 C 0.1863 0.75042 0.64168 0.0
C75 C 0.36288 0.75883 0.68045 0.0
C76 C 0.27442 0.70127 0.69076 0.0
C77 C 0.27001 0.90979 0.57899 0.0
C78 C 0.36072 0.86364 0.62268 0.0
O79 O 0.89643 0.13378 0.49826 0.0
O80 O 0.885 -0.00483 0.46323 0.0
O81 O 0.11475 0.95137 0.38311 0.0
O82 O 0.97453 0.87406 0.39671 0.0
O83 O 0.87959 0.91204 0.73672 0.0
O84 O 0.8753 0.88485 0.58471 0.0
O85 O 0.07965 0.85847 0.70458 0.0
O86 O 0.09108 -0.00292 0.7396 0.0
O87 O 0.86134 0.04088 0.81973 0.0
O88 O 0.00155 0.1182 0.80613 0.0
O89 O 0.0965 0.08021 0.46612 0.0
O90 O 0.10078 0.10741 0.61813 0.0
C91 C 0.8679 0.08975 0.4345 0.0
C92 C 0.84226 0.86501 0.67904 0.0
C93 C 0.09117 0.83356 0.30537 0.0
C94 C 0.15574 0.79148 0.16974 0.0
C95 C 0.12697 0.66071 0.34785 0.0
C96 C 0.09656 0.73158 0.37784 0.0
C97 C 0.15465 0.68949 0.24549 0.0
C98 C 0.11926 0.86365 0.19881 0.0
C99 C 0.05208 0.90484 0.34201 0.0
C100 C 0.2693 0.59805 0.75674 0.0
C101 C 0.18237 0.54102 0.75791 0.0
H102 H 0.43241 0.7237 0.71886 0.0
C103 C 0.10818 0.90251 0.76834 0.0
C104 C 0.13382 0.12725 0.5238 0.0
C105 C 0.88492 0.15869 0.89747 0.0
C106 C 0.82035 0.20077 0.0331 0.0
C107 C 0.84912 0.33155 0.85499 0.0
C108 C 0.87953 0.26067 0.825 0.0
C109 C 0.82143 0.30276 0.95735 0.0
C110 C 0.85683 0.1286 0.00403 0.0
C111 C 0.924 0.08742 0.86083 0.0
H112 H 0.12982 0.58245 0.40443 0.0
H113 H 0.07507 0.70506 0.4577 0.0
H114 H 0.17662 0.63049 0.22606 0.0
H115 H 0.11444 0.94153 0.14024 0.0
H116 H 0.84626 0.40981 0.79841 0.0
H117 H 0.90102 0.28719 0.74514 0.0
H118 H 0.79947 0.36176 0.97678 0.0
H119 H 0.86165 0.05072 0.0626 0.0
C120 C 0.77239 0.65098 0.12383 0.0
C121 C 0.75829 0.83375 0.04873 0.0
C122 C 0.71437 0.73639 0.09083 0.0
C123 C 0.86083 0.84457 0.04186 0.0
C124 C 0.87512 0.66389 0.11271 0.0
C125 C 0.91771 0.7604 0.07036 0.0
N126 N 0.72998 0.55647 0.17045 0.0
C127 C 0.78941 0.47449 0.21249 0.0
C128 C 0.93389 0.57953 0.14941 0.0
C129 C 0.89085 0.48439 0.20078 0.0
Gd130 Gd 0.41741 0.43331 0.01215 0.0
Gd131 Gd 0.55867 0.55895 0.19069 0.0
N132 N 0.61472 0.7242 0.09939 0.0
C133 C 0.69772 0.91701 0.0155 0.0
C134 C 0.55643 0.80442 0.07435 0.0
C135 C 0.59654 0.90229 0.02928 0.0
H136 H 0.47942 0.79253 0.08987 0.0
H137 H 0.54981 0.96618 0.00663 0.0
H138 H 0.49665 0.19973 0.11296 0.0
H139 H 0.76335 0.40141 0.26356 0.0
H140 H 0.42627 0.02608 0.1962 0.0
H141 H 0.72778 -0.00701 0.97915 0.0
H142 H 0.89793 0.91683 0.01734 0.0
H143 H 0.21274 0.59085 0.93927 0.0
H144 H 0.01321 0.58727 0.14292 0.0
H145 H 0.93639 0.41851 0.23572 0.0
H146 H 0.07814 0.07544 0.18551 0.0
H147 H -0.00455 0.76953 0.06254 0.0
H148 H 0.96287 0.40501 0.05991 0.0
H149 H 0.03969 0.57376 0.96712 0.0
N150 N 0.2461 0.43579 0.03237 0.0
C151 C 0.20368 0.34128 0.07901 0.0
C152 C 0.18668 0.51778 0.99036 0.0
C153 C 0.04219 0.41274 0.05342 0.0
C154 C 0.08523 0.50788 0.00206 0.0
C155 C 0.10095 0.32838 0.09012 0.0
H156 H 0.98062 0.22274 0.14031 0.0
N157 N 0.36135 0.26806 0.10343 0.0
C158 C 0.2617 0.25588 0.112 0.0
C159 C 0.27835 0.07525 0.18734 0.0
C160 C 0.21778 0.15851 0.1541 0.0
C161 C 0.41964 0.18785 0.12848 0.0
C162 C 0.37953 0.08997 0.17355 0.0
O163 O 0.574 0.6508 0.01166 0.0
O164 O 0.57107 0.51111 0.98482 0.0
O165 O 0.33395 0.38461 0.90055 0.0
O166 O 0.4888 0.40353 0.89463 0.0
O167 O 0.40748 0.61061 0.11589 0.0
O168 O 0.38123 0.60275 0.9547 0.0
O169 O 0.40208 0.34146 0.19117 0.0
O170 O 0.40501 0.48115 0.21802 0.0
O171 O 0.64214 0.60764 0.30228 0.0
O172 O 0.48728 0.58874 0.3082 0.0
O173 O 0.56859 0.38163 0.08696 0.0
O174 O 0.59486 0.38951 0.24814 0.0
C175 C 0.59578 0.60745 0.95308 0.0
C176 C 0.37174 0.65013 0.01569 0.0
C177 C 0.39387 0.42215 0.73559 0.0
C178 C 0.32471 0.40273 0.57839 0.0
C179 C 0.3732 0.56901 0.56525 0.0
C180 C 0.41227 0.52469 0.67069 0.0
C181 C 0.32717 0.5088 0.52003 0.0
C182 C 0.3529 0.36009 0.68843 0.0
C183 C 0.40845 0.3803 0.85259 0.0
C184 C 0.11524 0.14769 0.16099 0.0
C185 C 0.05836 0.23186 0.13248 0.0
H186 H 0.24829 -0.00073 0.22369 0.0
C187 C 0.3803 0.3848 0.24975 0.0
C188 C 0.60434 0.34213 0.18715 0.0
C189 C 0.58221 0.57011 0.46724 0.0
C190 C 0.65137 0.58953 0.62444 0.0
C191 C 0.60288 0.42325 0.63758 0.0
C192 C 0.56381 0.46757 0.53215 0.0
C193 C 0.64892 0.48346 0.68281 0.0
C194 C 0.62319 0.63217 0.5144 0.0
C195 C 0.56763 0.61196 0.35025 0.0
H196 H 0.38114 0.64962 0.51778 0.0
H197 H 0.44951 0.57277 0.70305 0.0
H198 H 0.30137 0.54481 0.43623 0.0
H199 H 0.34637 0.27938 0.73647 0.0
H200 H 0.59494 0.34264 0.68505 0.0
H201 H 0.52658 0.41949 0.49978 0.0
H202 H 0.67472 0.44745 0.7666 0.0
H203 H 0.62972 0.71288 0.46636 0.0
loop_
_geom_bond_atom_site_label_1
_geom_bond_atom_site_label_2
_geom_bond_distance
_geom_bond_site_symmetry_2
_ccdc_geom_bond_type
H0 C3 0.931 1_545 S
H1 C6 0.928 . S
H2 C8 0.930 . S
C3 H0 0.931 1_565 S
C3 C4 1.413 . S
C3 C5 1.360 1_556 S
C4 C3 1.413 . S
C4 C8 1.429 . S
C5 C3 1.360 1_554 S
C5 C6 1.372 . S
C6 H1 0.928 . S
C6 C5 1.372 . S
C6 C7 1.404 . S
C7 C6 1.404 . S
C7 C8 1.391 1_554 S
C8 H2 0.930 . S
C8 C4 1.429 . S
C8 C7 1.391 1_556 S
H9 C12 0.931 . S
H10 C15 0.928 . S
H11 C17 0.930 . S
C12 H9 0.931 . S
C12 C13 1.413 . S
C12 C14 1.360 . S
C13 C12 1.413 . S
C13 C17 1.429 . S
C14 C12 1.360 . S
C14 C15 1.372 . S
C15 H10 0.928 . S
C15 C14 1.372 . S
C15 C16 1.404 . S
C16 C15 1.404 . S
C16 C17 1.391 . S
C17 H11 0.930 . S
C17 C13 1.429 . S
C17 C16 1.391 . S
H18 C21 0.931 . S
H19 C24 0.928 . S
H20 C26 0.930 . S
C21 H18 0.931 . S
C21 C22 1.413 . S
C21 C23 1.360 . S
C22 C21 1.413 . S
C22 C26 1.429 . S
C23 C21 1.360 . S
C23 C24 1.372 . S
C24 H19 0.928 . S
C24 C23 1.372 . S
C24 C25 1.404 . S
C25 C24 1.404 . S
C25 C26 1.391 . S
C26 H20 0.930 . S
C26 C22 1.429 . S
C26 C25 1.391 . S
H27 C30 0.931 . S
H28 C33 0.928 . S
H29 C35 0.930 . S
C30 H27 0.931 . S
C30 C31 1.413 . S
C30 C32 1.360 . S
C31 C30 1.413 . S
C31 C35 1.429 . S
C32 C30 1.360 . S
C32 C33 1.372 . S
C33 H28 0.928 . S
C33 C32 1.372 . S
C33 C34 1.404 . S
C34 C33 1.404 . S
C34 C35 1.391 . S
C35 H29 0.930 . S
C35 C31 1.429 . S
C35 C34 1.391 . S
C36 C38 1.422 . S
C36 C40 1.415 . S
C36 N42 1.369 . S
C37 C38 1.421 . S
C37 C39 1.417 . S
C37 C49 1.422 . S
C38 C36 1.422 . S
C38 C37 1.421 . S
C38 N48 1.359 . S
C39 C37 1.417 . S
C39 C41 1.329 . S
C39 H58 0.930 . S
C40 C36 1.415 . S
C40 C41 1.437 . S
C40 C44 1.413 . S
C41 C39 1.329 . S
C41 C40 1.437 . S
C41 H63 0.929 . S
N42 C36 1.369 . S
N42 C43 1.338 . S
N42 Gd47 2.622 . S
C43 N42 1.338 . S
C43 C45 1.378 . S
C43 H55 0.929 1_655 S
C44 C40 1.413 . S
C44 C45 1.348 . S
C44 H60 0.931 . S
C45 C43 1.378 . S
C45 C44 1.348 . S
C45 H61 0.930 1_655 S
Gd46 N66 2.622 . S
Gd46 N73 2.570 . S
Gd46 O80 2.353 1_465 S
Gd46 O81 2.468 . S
Gd46 O82 2.427 . S
Gd46 O84 2.388 1_455 S
Gd46 O85 2.386 . S
Gd46 O89 2.307 1_565 S
Gd46 C99 2.805 . S
Gd47 N42 2.622 . S
Gd47 N48 2.570 . S
Gd47 O79 2.386 . S
Gd47 O83 2.307 1_545 S
Gd47 O86 2.353 1_655 S
Gd47 O87 2.468 . S
Gd47 O88 2.427 . S
Gd47 O90 2.388 1_655 S
Gd47 C111 2.805 . S
N48 C38 1.359 . S
N48 Gd47 2.570 . S
N48 C50 1.343 . S
C49 C37 1.422 . S
C49 C51 1.321 . S
C49 H57 0.931 . S
C50 N48 1.343 . S
C50 C51 1.390 . S
C50 H52 0.931 . S
C51 C49 1.321 . S
C51 C50 1.390 . S
C51 H53 0.930 . S
H52 C50 0.931 . S
H53 C51 0.930 . S
H54 C77 0.931 . S
H55 C43 0.929 1_455 S
H56 C78 0.930 . S
H57 C49 0.931 . S
H58 C39 0.930 . S
H59 C68 0.929 1_655 S
H60 C44 0.931 . S
H61 C45 0.930 1_455 S
H62 C100 0.930 . S
H63 C41 0.929 . S
H64 C69 0.931 . S
H65 C70 0.930 1_655 S
N66 Gd46 2.622 . S
N66 C67 1.369 . S
N66 C68 1.338 . S
C67 N66 1.369 . S
C67 C71 1.415 . S
C67 C74 1.422 . S
C68 H59 0.929 1_455 S
C68 N66 1.338 . S
C68 C70 1.378 . S
C69 H64 0.931 . S
C69 C70 1.348 . S
C69 C71 1.413 . S
C70 H65 0.930 1_455 S
C70 C68 1.378 . S
C70 C69 1.348 . S
C71 C67 1.415 . S
C71 C69 1.413 . S
C71 C101 1.437 . S
H72 C101 0.929 . S
N73 Gd46 2.570 . S
N73 C74 1.359 . S
N73 C77 1.343 . S
C74 C67 1.422 . S
C74 N73 1.359 . S
C74 C76 1.421 . S
C75 C76 1.422 . S
C75 C78 1.321 . S
C75 H102 0.931 . S
C76 C74 1.421 . S
C76 C75 1.422 . S
C76 C100 1.417 . S
C77 H54 0.931 . S
C77 N73 1.343 . S
C77 C78 1.390 . S
C78 H56 0.930 . S
C78 C75 1.321 . S
C78 C77 1.390 . S
O79 Gd47 2.386 . S
O79 C91 1.265 . S
O80 Gd46 2.353 1_645 S
O80 C91 1.242 . S
O81 Gd46 2.468 . S
O81 C99 1.263 . S
O82 Gd46 2.427 . S
O82 C99 1.252 . S
O83 Gd47 2.307 1_565 S
O83 C92 1.261 . S
O84 Gd46 2.388 1_655 S
O84 C92 1.252 . S
O85 Gd46 2.386 . S
O85 C103 1.265 . S
O86 Gd47 2.353 1_455 S
O86 C103 1.242 1_545 S
O87 Gd47 2.468 . S
O87 C111 1.263 . S
O88 Gd47 2.427 . S
O88 C111 1.252 . S
O89 Gd46 2.307 1_545 S
O89 C104 1.261 . S
O90 Gd47 2.388 1_455 S
O90 C104 1.252 . S
C91 O79 1.265 . S
C91 O80 1.242 . S
C92 O83 1.261 . S
C92 O84 1.252 . S
C93 C96 1.394 . S
C93 C98 1.370 . S
C93 C99 1.500 . S
C94 C97 1.383 . S
C94 C98 1.395 . S
C95 C96 1.396 . S
C95 C97 1.365 . S
C95 H112 0.929 . S
C96 C93 1.394 . S
C96 C95 1.396 . S
C96 H113 0.930 . S
C97 C94 1.383 . S
C97 C95 1.365 . S
C97 H114 0.931 . S
C98 C93 1.370 . S
C98 C94 1.395 . S
C98 H115 0.930 . S
C99 Gd46 2.805 . S
C99 O81 1.263 . S
C99 O82 1.252 . S
C99 C93 1.500 . S
C100 H62 0.930 . S
C100 C76 1.417 . S
C100 C101 1.329 . S
C101 C71 1.437 . S
C101 H72 0.929 . S
C101 C100 1.329 . S
H102 C75 0.931 . S
C103 O85 1.265 . S
C103 O86 1.242 1_565 S
C104 O89 1.261 . S
C104 O90 1.252 . S
C105 C108 1.394 . S
C105 C110 1.370 . S
C105 C111 1.500 . S
C106 C109 1.383 . S
C106 C110 1.395 1_554 S
C107 C108 1.396 . S
C107 C109 1.365 1_556 S
C107 H116 0.929 . S
C108 C105 1.394 . S
C108 C107 1.396 . S
C108 H117 0.930 . S
C109 C106 1.383 . S
C109 C107 1.365 1_554 S
C109 H118 0.931 . S
C110 C105 1.370 . S
C110 C106 1.395 1_556 S
C110 H119 0.930 . S
C111 Gd47 2.805 . S
C111 O87 1.263 . S
C111 O88 1.252 . S
C111 C105 1.500 . S
H112 C95 0.929 . S
H113 C96 0.930 . S
H114 C97 0.931 . S
H115 C98 0.930 . S
H116 C107 0.929 . S
H117 C108 0.930 . S
H118 C109 0.931 . S
H119 C110 0.930 . S
C120 C122 1.422 . S
C120 C124 1.415 . S
C120 N126 1.369 . S
C121 C122 1.421 . S
C121 C123 1.417 . S
C121 C133 1.422 . S
C122 C120 1.422 . S
C122 C121 1.421 . S
C122 N132 1.359 . S
C123 C121 1.417 . S
C123 C125 1.329 1_655 S
C123 H142 0.930 1_655 S
C124 C120 1.415 . S
C124 C125 1.437 1_655 S
C124 C128 1.413 1_655 S
C125 C123 1.329 1_455 S
C125 C124 1.437 1_455 S
C125 H147 0.929 . S
N126 C120 1.369 . S
N126 C127 1.338 . S
N126 Gd131 2.622 . S
C127 N126 1.338 . S
C127 C129 1.378 . S
C127 H139 0.929 . S
C128 C124 1.413 1_455 S
C128 C129 1.348 1_455 S
C128 H144 0.931 . S
C129 C127 1.378 . S
C129 C128 1.348 1_655 S
C129 H145 0.930 1_655 S
Gd130 N150 2.620 . S
Gd130 N157 2.570 . S
Gd130 O164 2.353 1_554 S
Gd130 O165 2.468 1_554 S
Gd130 O166 2.427 1_554 S
Gd130 O168 2.388 1_554 S
Gd130 O169 2.386 . S
Gd130 O173 2.307 . S
Gd130 C183 2.805 1_554 S
Gd131 N126 2.622 . S
Gd131 N132 2.570 . S
Gd131 O163 2.386 . S
Gd131 O167 2.307 . S
Gd131 O170 2.353 . S
Gd131 O171 2.468 . S
Gd131 O172 2.427 . S
Gd131 O174 2.388 . S
Gd131 C195 2.805 . S
N132 C122 1.359 . S
N132 Gd131 2.570 . S
N132 C134 1.343 . S
C133 C121 1.422 . S
C133 C135 1.321 . S
C133 H141 0.931 1_554 S
C134 N132 1.343 . S
C134 C135 1.390 . S
C134 H136 0.931 . S
C135 C133 1.321 . S
C135 C134 1.390 . S
C135 H137 0.930 . S
H136 C134 0.931 . S
H137 C135 0.930 . S
H138 C161 0.931 . S
H139 C127 0.929 . S
H140 C162 0.930 . S
H141 C133 0.931 1_556 S
H142 C123 0.930 1_455 S
H143 C152 0.929 . S
H144 C128 0.931 . S
H145 C129 0.930 1_455 S
H146 C184 0.930 1_655 S
H147 C125 0.929 . S
H148 C153 0.931 . S
H149 C154 0.930 1_655 S
N150 Gd130 2.620 . S
N150 C151 1.370 . S
N150 C152 1.338 1_554 S
C151 N150 1.370 . S
C151 C155 1.415 . S
C151 C158 1.422 . S
C152 H143 0.929 . S
C152 N150 1.338 1_556 S
C152 C154 1.378 . S
C153 H148 0.931 . S
C153 C154 1.348 1_654 S
C153 C155 1.413 1_655 S
C154 H149 0.930 1_455 S
C154 C152 1.378 . S
C154 C153 1.348 1_456 S
C155 C151 1.415 . S
C155 C153 1.413 1_455 S
C155 C185 1.437 1_455 S
H156 C185 0.929 . S
N157 Gd130 2.570 . S
N157 C158 1.359 . S
N157 C161 1.343 . S
C158 C151 1.422 . S
C158 N157 1.359 . S
C158 C160 1.421 . S
C159 C160 1.422 . S
C159 C162 1.321 . S
C159 H186 0.931 . S
C160 C158 1.421 . S
C160 C159 1.422 . S
C160 C184 1.417 . S
C161 H138 0.931 . S
C161 N157 1.343 . S
C161 C162 1.390 . S
C162 H140 0.930 . S
C162 C159 1.321 . S
C162 C161 1.390 . S
O163 Gd131 2.386 . S
O163 C175 1.265 1_554 S
O164 Gd130 2.353 1_556 S
O164 C175 1.242 . S
O165 Gd130 2.468 1_556 S
O165 C183 1.263 . S
O166 Gd130 2.427 1_556 S
O166 C183 1.252 . S
O167 Gd131 2.307 . S
O167 C176 1.261 . S
O168 Gd130 2.388 1_556 S
O168 C176 1.252 1_556 S
O169 Gd130 2.386 . S
O169 C187 1.265 . S
O170 Gd131 2.353 . S
O170 C187 1.242 . S
O171 Gd131 2.468 . S
O171 C195 1.263 . S
O172 Gd131 2.427 . S
O172 C195 1.252 . S
O173 Gd130 2.307 . S
O173 C188 1.261 . S
O174 Gd131 2.388 . S
O174 C188 1.252 . S
C175 O163 1.265 1_556 S
C175 O164 1.242 . S
C176 O167 1.261 . S
C176 O168 1.252 1_554 S
C177 C180 1.394 . S
C177 C182 1.370 . S
C177 C183 1.500 . S
C178 C181 1.383 . S
C178 C182 1.395 . S
C179 C180 1.396 . S
C179 C181 1.365 . S
C179 H196 0.929 . S
C180 C177 1.394 . S
C180 C179 1.396 . S
C180 H197 0.930 . S
C181 C178 1.383 . S
C181 C179 1.365 . S
C181 H198 0.931 . S
C182 C177 1.370 . S
C182 C178 1.395 . S
C182 H199 0.930 . S
C183 Gd130 2.805 1_556 S
C183 O165 1.263 . S
C183 O166 1.252 . S
C183 C177 1.500 . S
C184 H146 0.930 1_455 S
C184 C160 1.417 . S
C184 C185 1.329 1_455 S
C185 C155 1.437 1_655 S
C185 H156 0.929 . S
C185 C184 1.329 1_655 S
H186 C159 0.931 . S
C187 O169 1.265 . S
C187 O170 1.242 . S
C188 O173 1.261 . S
C188 O174 1.252 . S
C189 C192 1.394 . S
C189 C194 1.370 . S
C189 C195 1.500 . S
C190 C193 1.383 . S
C190 C194 1.395 . S
C191 C192 1.396 . S
C191 C193 1.365 . S
C191 H200 0.929 . S
C192 C189 1.394 . S
C192 C191 1.396 . S
C192 H201 0.930 . S
C193 C190 1.383 . S
C193 C191 1.365 . S
C193 H202 0.931 . S
C194 C189 1.370 . S
C194 C190 1.395 . S
C194 H203 0.930 . S
C195 Gd131 2.805 . S
C195 O171 1.263 . S
C195 O172 1.252 . S
C195 C189 1.500 . S
H196 C179 0.929 . S
H197 C180 0.930 . S
H198 C181 0.931 . S
H199 C182 0.930 . S
H200 C191 0.929 . S
H201 C192 0.930 . S
H202 C193 0.931 . S
H203 C194 0.930 . S
C104 C34 1.645 . S
C7 C176 1.612 . S
C16 C92 1.638 . S
C25 C188 1.604 . S
C94 C5 1.303 . S
C175 C13 1.654 . S
C23 C91 1.737 . S
C32 C178 1.338 . S
C190 C14 1.320 . S
C106 C22 1.297 . S
C187 C31 1.656 . S
C4 C103 1.730 . S
