# Generated by pormake.
# Topology tsx, (6,3)-cn, num edge types: 1
# Building blocks:
#     Node 0, Type 0, BuildingBlock: VOLQOD_clean_sbu_1, # of connection points: 6
#     Node 1, Type 0, BuildingBlock: VOLQOD_clean_sbu_1, # of connection points: 6
#     Node 2, Type 1, BuildingBlock: KAKCAD_clean_linker_0, # of connection points: 3
#     Node 3, Type 1, BuildingBlock: KAKCAD_clean_linker_0, # of connection points: 3
#     Node 4, Type 1, BuildingBlock: KAKCAD_clean_linker_0, # of connection points: 3
#     Node 5, Type 1, BuildingBlock: KAKCAD_clean_linker_0, # of connection points: 3
#     Edge 6, Type (0, 1), None
#     Edge 7, Type (0, 1), None
#     Edge 8, Type (0, 1), None
#     Edge 9, Type (0, 1), None
#     Edge 10, Type (0, 1), None
#     Edge 11, Type (0, 1), None
#     Edge 12, Type (0, 1), None
#     Edge 13, Type (0, 1), None
#     Edge 14, Type (0, 1), None
#     Edge 15, Type (0, 1), None
#     Edge 16, Type (0, 1), None
#     Edge 17, Type (0, 1), None
# Relax obj value: 0.075
# Max RMSD: 0.108
# Mean RMSD: 0.082
data_MOF--net-tsx--node1-VOLQOD_clean_sbu_1--node2-KAKCAD_clean_linker_0--edge1-none
_symmetry_space_group_name_H-M    P1
_symmetry_Int_Tables_number       1
_symmetry_cell_setting            triclinic
loop_
_symmetry_equiv_pos_as_xyz
'x, y, z'
_cell_length_a     14.023031
_cell_length_b     14.528476
_cell_length_c     28.496186
_cell_angle_alpha  91.384309
_cell_angle_beta   88.642177
_cell_angle_gamma 90.18135
loop_
_atom_site_label
_atom_site_type_symbol
_atom_site_fract_x
_atom_site_fract_y
_atom_site_fract_z
_atom_type_partial_charge
O0 O 0.08395 0.96592 0.09996 0.0
Zn1 Zn 0.12418 0.97459 0.03166 0.0
O2 O 0.01353 0.00096 -0.00493 0.0
Zn3 Zn 0.98123 0.89509 0.95598 0.0
Zn4 Zn 0.90775 0.03429 0.03727 0.0
Zn5 Zn 0.03997 0.10388 0.95557 0.0
O6 O 0.97813 0.92985 0.88772 0.0
O7 O 0.05861 0.06234 0.88861 0.0
O8 O 0.19039 0.85647 0.00857 0.0
O9 O 0.08412 0.80021 0.95889 0.0
O10 O 0.8582 0.8361 0.97883 0.0
O11 O 0.81548 0.92884 0.03878 0.0
O12 O 0.83303 0.14339 0.01487 0.0
O13 O 0.21515 0.08266 0.02898 0.0
O14 O 0.92402 0.18238 0.95365 0.0
O15 O 0.15127 0.17907 0.97919 0.0
C16 C 0.01938 0.00972 0.12351 0.0
C17 C 0.01995 -0.00458 0.86636 0.0
C18 C 0.80231 0.85671 0.01345 0.0
C19 C 0.16289 0.79355 0.97985 0.0
C20 C 0.84863 0.19195 0.9789 0.0
C21 C 0.2155 0.15959 0.00827 0.0
O22 O 0.95264 0.05217 0.10351 0.0
O23 O 0.58394 0.46591 0.59996 0.0
Zn24 Zn 0.62417 0.47459 0.53166 0.0
O25 O 0.51352 0.50095 0.49507 0.0
Zn26 Zn 0.48122 0.39509 0.45598 0.0
Zn27 Zn 0.40774 0.53428 0.53727 0.0
Zn28 Zn 0.53996 0.60388 0.45557 0.0
O29 O 0.47812 0.42985 0.38772 0.0
O30 O 0.5586 0.56234 0.38861 0.0
O31 O 0.69038 0.35647 0.50857 0.0
O32 O 0.58411 0.3002 0.45889 0.0
O33 O 0.35819 0.3361 0.47882 0.0
O34 O 0.31546 0.42884 0.53878 0.0
O35 O 0.33302 0.64338 0.51487 0.0
O36 O 0.71514 0.58266 0.52898 0.0
O37 O 0.42401 0.68237 0.45365 0.0
O38 O 0.65126 0.67906 0.47919 0.0
C39 C 0.51936 0.50971 0.62351 0.0
C40 C 0.51994 0.49542 0.36636 0.0
C41 C 0.3023 0.3567 0.51344 0.0
C42 C 0.66288 0.29355 0.47985 0.0
C43 C 0.34861 0.69195 0.4789 0.0
C44 C 0.71548 0.65959 0.50828 0.0
O45 O 0.45263 0.55216 0.60351 0.0
C46 C 0.05226 0.92951 0.19759 0.0
C47 C 0.01938 0.00771 0.17517 0.0
C48 C 0.04773 0.92488 0.24641 0.0
C49 C 0.01283 -0.00045 0.27419 0.0
C50 C 0.98197 0.07883 0.25149 0.0
C51 C 0.98402 0.08231 0.20247 0.0
C52 C 0.00655 0.99273 0.32637 0.0
C53 C 0.07374 0.9408 0.35004 0.0
C54 C 0.06288 0.92296 0.39827 0.0
C55 C 0.9875 0.96619 0.42365 0.0
C56 C 0.92502 0.02558 0.40147 0.0
C57 C 0.9327 0.03572 0.35269 0.0
C58 C 0.85412 0.08137 0.42881 0.0
C59 C 0.75832 0.08068 0.41591 0.0
C60 C 0.88426 0.14524 0.46323 0.0
C61 C 0.82086 0.21147 0.48213 0.0
C62 C 0.72631 0.21484 0.46678 0.0
C63 C 0.13086 0.85957 0.42118 0.0
C64 C 0.17809 0.79036 0.39416 0.0
C65 C 0.15156 0.86802 0.46939 0.0
C66 C 0.22085 0.8123 0.4891 0.0
C67 C 0.27186 0.74863 0.46072 0.0
C68 C 0.24886 0.73725 0.4134 0.0
C69 C 0.69498 0.14635 0.43482 0.0
H70 H 0.07873 0.87054 0.17729 0.0
H71 H 0.06978 0.86156 0.26217 0.0
H72 H 0.95647 0.13853 0.27142 0.0
H73 H 0.95886 0.14375 0.18592 0.0
H74 H 0.13531 0.91464 0.33051 0.0
H75 H 0.88108 0.07787 0.33551 0.0
H76 H 0.97562 0.95249 0.46024 0.0
H77 H 0.73348 0.03181 0.38956 0.0
H78 H 0.95827 0.14779 0.47324 0.0
H79 H 0.84732 0.26279 0.50679 0.0
H80 H 0.16112 0.77662 0.35782 0.0
H81 H 0.11618 0.91859 0.4919 0.0
H82 H 0.62243 0.14587 0.4226 0.0
H83 H 0.2852 0.68616 0.39119 0.0
H84 H 0.23661 0.82099 0.52598 0.0
C85 C 0.01997 0.08172 0.79197 0.0
C86 C 0.01939 -0.00291 0.81468 0.0
C87 C 0.01592 0.08456 0.74319 0.0
C88 C 0.01353 0.00273 0.71579 0.0
C89 C 0.01436 0.91787 0.7387 0.0
C90 C 0.0161 0.91514 0.7877 0.0
C91 C 0.0092 0.00649 0.66368 0.0
C92 C 0.05633 0.07694 0.63935 0.0
C93 C 0.04967 0.08358 0.59046 0.0
C94 C -0.00337 0.01744 0.56559 0.0
C95 C 0.95225 0.94423 0.58891 0.0
C96 C 0.95752 0.9403 0.63799 0.0
C97 C 0.90036 0.87093 0.56274 0.0
C98 C 0.83239 0.89259 0.52932 0.0
C99 C 0.91459 0.77825 0.57355 0.0
C100 C 0.85801 0.70913 0.55374 0.0
C101 C 0.78572 0.73097 0.52256 0.0
C102 C 0.10246 0.15748 0.56575 0.0
C103 C 0.10393 0.24735 0.58498 0.0
C104 C 0.1584 0.1372 0.52526 0.0
C105 C 0.21971 0.20355 0.50642 0.0
C106 C 0.22619 0.29153 0.52777 0.0
C107 C 0.16506 0.31364 0.56622 0.0
C108 C 0.77559 0.82319 0.50934 0.0
H109 H 0.0211 0.14605 0.812 0.0
H110 H 0.01302 0.15124 0.72713 0.0
H111 H 0.01445 0.85335 0.71889 0.0
H112 H 0.01618 0.84896 0.80442 0.0
H113 H 0.10052 0.12575 0.65832 0.0
H114 H 0.91925 0.8864 0.65618 0.0
H115 H 0.99111 0.02272 0.52817 0.0
H116 H 0.82006 0.96351 0.5203 0.0
H117 H 0.96791 0.75942 0.59847 0.0
H118 H 0.86877 0.63886 0.56429 0.0
H119 H 0.06007 0.26558 0.61559 0.0
H120 H 0.15894 0.06873 0.50964 0.0
H121 H 0.72085 0.8425 0.4853 0.0
H122 H 0.16704 0.38115 0.58316 0.0
H123 H 0.26532 0.18434 0.4766 0.0
C124 C 0.55225 0.4295 0.69759 0.0
C125 C 0.51937 0.50771 0.67517 0.0
C126 C 0.54772 0.42487 0.74641 0.0
C127 C 0.51283 0.49954 0.77419 0.0
C128 C 0.48196 0.57882 0.75149 0.0
C129 C 0.48401 0.5823 0.70247 0.0
C130 C 0.50655 0.49273 0.82637 0.0
C131 C 0.57375 0.4408 0.85004 0.0
C132 C 0.56288 0.42296 0.89827 0.0
C133 C 0.48751 0.46619 0.92365 0.0
C134 C 0.42503 0.52558 0.90147 0.0
C135 C 0.4327 0.53572 0.85269 0.0
C136 C 0.35413 0.58137 0.92881 0.0
C137 C 0.25832 0.58068 0.91591 0.0
C138 C 0.38427 0.64525 0.96323 0.0
C139 C 0.32087 0.71148 0.98213 0.0
C140 C 0.22632 0.71485 0.96678 0.0
C141 C 0.63087 0.35958 0.92118 0.0
C142 C 0.6781 0.29036 0.89416 0.0
C143 C 0.65157 0.36803 0.96939 0.0
C144 C 0.72087 0.31231 -0.0109 0.0
C145 C 0.77187 0.24863 0.96072 0.0
C146 C 0.74887 0.23725 0.9134 0.0
C147 C 0.19499 0.64635 0.93483 0.0
H148 H 0.57872 0.37053 0.67729 0.0
H149 H 0.56977 0.36156 0.76217 0.0
H150 H 0.45647 0.63852 0.77142 0.0
H151 H 0.45885 0.64374 0.68592 0.0
H152 H 0.63531 0.41464 0.83051 0.0
H153 H 0.38108 0.57787 0.83551 0.0
H154 H 0.47563 0.45249 0.96024 0.0
H155 H 0.23348 0.53181 0.88957 0.0
H156 H 0.45829 0.6478 0.97324 0.0
H157 H 0.34733 0.7628 0.00679 0.0
H158 H 0.66112 0.27663 0.85782 0.0
H159 H 0.61619 0.4186 -0.0081 0.0
H160 H 0.12244 0.64587 0.92261 0.0
H161 H 0.78521 0.18616 0.89119 0.0
H162 H 0.73663 0.321 0.02598 0.0
C163 C 0.51996 0.58172 0.29197 0.0
C164 C 0.51939 0.49709 0.31468 0.0
C165 C 0.51592 0.58456 0.24319 0.0
C166 C 0.51353 0.50273 0.21579 0.0
C167 C 0.51435 0.41787 0.2387 0.0
C168 C 0.5161 0.41514 0.28769 0.0
C169 C 0.5092 0.50649 0.16368 0.0
C170 C 0.55634 0.57694 0.13935 0.0
C171 C 0.54968 0.58359 0.09046 0.0
C172 C 0.49664 0.51744 0.06559 0.0
C173 C 0.45226 0.44424 0.08891 0.0
C174 C 0.45752 0.44031 0.13799 0.0
C175 C 0.40037 0.37093 0.06274 0.0
C176 C 0.3324 0.3926 0.02932 0.0
C177 C 0.4146 0.27825 0.07355 0.0
C178 C 0.35802 0.20913 0.05374 0.0
C179 C 0.28573 0.23098 0.02256 0.0
C180 C 0.60247 0.65748 0.06575 0.0
C181 C 0.60395 0.74736 0.08498 0.0
C182 C 0.65841 0.6372 0.02526 0.0
C183 C 0.71972 0.70356 0.00642 0.0
C184 C 0.7262 0.79154 0.02777 0.0
C185 C 0.66507 0.81364 0.06622 0.0
C186 C 0.2756 0.3232 0.00934 0.0
H187 H 0.52109 0.64605 0.312 0.0
H188 H 0.51302 0.65124 0.22713 0.0
H189 H 0.51446 0.35335 0.21889 0.0
H190 H 0.51617 0.34896 0.30442 0.0
H191 H 0.60052 0.62575 0.15832 0.0
H192 H 0.41926 0.38641 0.15618 0.0
H193 H 0.49112 0.52273 0.02817 0.0
H194 H 0.32007 0.46352 0.0203 0.0
H195 H 0.46793 0.25942 0.09846 0.0
H196 H 0.36878 0.13887 0.06429 0.0
H197 H 0.56008 0.76559 0.11559 0.0
H198 H 0.65895 0.56874 0.00964 0.0
H199 H 0.22086 0.34251 0.98529 0.0
H200 H 0.66705 0.88115 0.08316 0.0
H201 H 0.76533 0.68434 0.9766 0.0
loop_
_geom_bond_atom_site_label_1
_geom_bond_atom_site_label_2
_geom_bond_distance
_geom_bond_site_symmetry_2
_ccdc_geom_bond_type
O0 Zn1 1.953 . S
O0 C16 1.225 1_565 S
Zn1 O0 1.953 . S
Zn1 O2 1.949 1_565 S
Zn1 O8 1.919 . S
Zn1 O13 1.924 1_565 S
O2 Zn1 1.949 1_545 S
O2 Zn3 1.923 1_444 S
O2 Zn4 1.950 1_455 S
O2 Zn5 1.945 1_554 S
Zn3 O2 1.923 1_666 S
Zn3 O6 1.933 . S
Zn3 O9 1.941 1_655 S
Zn3 O10 1.965 . S
Zn4 O2 1.950 1_655 S
Zn4 O11 1.938 1_545 S
Zn4 O12 1.906 . S
Zn4 O22 1.953 . S
Zn5 O2 1.945 1_556 S
Zn5 O7 1.932 . S
Zn5 O14 1.977 1_455 S
Zn5 O15 1.910 . S
O6 Zn3 1.933 . S
O6 C17 1.226 1_665 S
O7 Zn5 1.932 . S
O7 C17 1.307 . S
O8 Zn1 1.919 . S
O8 C19 1.253 1_554 S
O9 Zn3 1.941 1_455 S
O9 C19 1.283 . S
O10 Zn3 1.965 . S
O10 C18 1.303 1_556 S
O11 Zn4 1.938 1_565 S
O11 C18 1.247 . S
O12 Zn4 1.906 . S
O12 C20 1.304 1_554 S
O13 Zn1 1.924 1_545 S
O13 C21 1.311 . S
O14 Zn5 1.977 1_655 S
O14 C20 1.272 . S
O15 Zn5 1.910 . S
O15 C21 1.231 1_556 S
C16 O0 1.225 1_545 S
C16 O22 1.298 1_455 S
C17 O6 1.226 1_445 S
C17 O7 1.307 . S
C18 O10 1.303 1_554 S
C18 O11 1.247 . S
C19 O8 1.253 1_556 S
C19 O9 1.283 . S
C20 O12 1.304 1_556 S
C20 O14 1.272 . S
C21 O13 1.311 . S
C21 O15 1.231 1_554 S
O22 Zn4 1.953 . S
O22 C16 1.298 1_655 S
O23 Zn24 1.953 . S
O23 C39 1.225 . S
Zn24 O23 1.953 . S
Zn24 O25 1.949 . S
Zn24 O31 1.919 . S
Zn24 O36 1.924 . S
O25 Zn24 1.949 . S
O25 Zn26 1.923 . S
O25 Zn27 1.950 . S
O25 Zn28 1.945 . S
Zn26 O25 1.923 . S
Zn26 O29 1.933 . S
Zn26 O32 1.941 . S
Zn26 O33 1.965 . S
Zn27 O25 1.950 . S
Zn27 O34 1.938 . S
Zn27 O35 1.906 . S
Zn27 O45 1.953 . S
Zn28 O25 1.945 . S
Zn28 O30 1.932 . S
Zn28 O37 1.977 . S
Zn28 O38 1.910 . S
O29 Zn26 1.933 . S
O29 C40 1.226 . S
O30 Zn28 1.932 . S
O30 C40 1.307 . S
O31 Zn24 1.919 . S
O31 C42 1.253 . S
O32 Zn26 1.941 . S
O32 C42 1.283 . S
O33 Zn26 1.965 . S
O33 C41 1.303 . S
O34 Zn27 1.938 . S
O34 C41 1.247 . S
O35 Zn27 1.906 . S
O35 C43 1.304 . S
O36 Zn24 1.924 . S
O36 C44 1.311 . S
O37 Zn28 1.977 . S
O37 C43 1.272 . S
O38 Zn28 1.910 . S
O38 C44 1.231 . S
C39 O23 1.225 . S
C39 O45 1.298 . S
C40 O29 1.226 . S
C40 O30 1.307 . S
C41 O33 1.303 . S
C41 O34 1.247 . S
C42 O31 1.253 . S
C42 O32 1.283 . S
C43 O35 1.304 . S
C43 O37 1.272 . S
C44 O36 1.311 . S
C44 O38 1.231 . S
O45 Zn27 1.953 . S
O45 C39 1.298 . S
C46 C47 1.392 1_455 S
C46 C48 1.397 . S
C46 H70 0.931 . S
C47 C46 1.392 1_655 S
C47 C51 1.392 1_665 S
C48 C46 1.397 . S
C48 C49 1.384 . S
C48 H71 0.930 . S
C49 C48 1.384 . S
C49 C50 1.377 1_565 S
C49 C52 1.481 . S
C50 C49 1.377 1_545 S
C50 C51 1.389 . S
C50 H72 0.929 . S
C51 C47 1.392 1_445 S
C51 C50 1.389 . S
C51 H73 0.931 . S
C52 C49 1.481 . S
C52 C53 1.387 . S
C52 C57 1.390 1_465 S
C53 C52 1.387 . S
C53 C54 1.401 . S
C53 H74 0.930 . S
C54 C53 1.401 . S
C54 C55 1.376 1_455 S
C54 C63 1.511 . S
C55 C54 1.376 1_655 S
C55 C56 1.392 1_565 S
C55 H76 0.931 . S
C56 C55 1.392 1_545 S
C56 C57 1.361 . S
C56 C58 1.500 . S
C57 C52 1.390 1_645 S
C57 C56 1.361 . S
C57 H75 0.931 . S
C58 C56 1.500 . S
C58 C59 1.371 . S
C58 C60 1.365 . S
C59 C58 1.371 . S
C59 C69 1.386 . S
C59 H77 0.931 . S
C60 C58 1.365 . S
C60 C61 1.409 . S
C60 H78 0.929 . S
C61 C60 1.409 . S
C61 C62 1.380 . S
C61 H79 0.930 . S
C62 C61 1.380 . S
C62 C69 1.357 . S
C63 C54 1.511 . S
C63 C64 1.341 . S
C63 C65 1.371 . S
C64 C63 1.341 . S
C64 C68 1.394 . S
C64 H80 0.930 . S
C65 C63 1.371 . S
C65 C66 1.392 . S
C65 H81 0.931 . S
C66 C65 1.392 . S
C66 C67 1.331 . S
C66 H84 0.932 . S
C67 C66 1.331 . S
C67 C68 1.336 . S
C68 C64 1.394 . S
C68 C67 1.336 . S
C68 H83 0.929 . S
C69 C59 1.386 . S
C69 C62 1.357 . S
C69 H82 0.928 . S
H70 C46 0.931 . S
H71 C48 0.930 . S
H72 C50 0.929 . S
H73 C51 0.931 . S
H74 C53 0.930 . S
H75 C57 0.931 . S
H76 C55 0.931 . S
H77 C59 0.931 . S
H78 C60 0.929 . S
H79 C61 0.930 . S
H80 C64 0.930 . S
H81 C65 0.931 . S
H82 C69 0.928 . S
H83 C68 0.929 . S
H84 C66 0.932 . S
C85 C86 1.386 . S
C85 C87 1.397 . S
C85 H109 0.931 . S
C86 C85 1.386 . S
C86 C90 1.397 1_545 S
C87 C85 1.397 . S
C87 C88 1.384 . S
C87 H110 0.930 . S
C88 C87 1.384 . S
C88 C89 1.377 1_545 S
C88 C91 1.481 . S
C89 C88 1.377 1_565 S
C89 C90 1.389 . S
C89 H111 0.929 . S
C90 C86 1.397 1_565 S
C90 C89 1.389 . S
C90 H112 0.931 . S
C91 C88 1.481 . S
C91 C92 1.387 . S
C91 C96 1.390 1_445 S
C92 C91 1.387 . S
C92 C93 1.401 . S
C92 H113 0.930 . S
C93 C92 1.401 . S
C93 C94 1.376 . S
C93 C102 1.511 . S
C94 C93 1.376 . S
C94 C95 1.392 1_445 S
C94 H115 0.931 . S
C95 C94 1.392 1_665 S
C95 C96 1.361 . S
C95 C97 1.500 . S
C96 C91 1.390 1_665 S
C96 C95 1.361 . S
C96 H114 0.931 . S
C97 C95 1.500 . S
C97 C98 1.371 . S
C97 C99 1.365 . S
C98 C97 1.371 . S
C98 C108 1.386 . S
C98 H116 0.931 . S
C99 C97 1.365 . S
C99 C100 1.409 . S
C99 H117 0.929 . S
C100 C99 1.409 . S
C100 C101 1.380 . S
C100 H118 0.930 . S
C101 C100 1.380 . S
C101 C108 1.357 . S
C102 C93 1.511 . S
C102 C103 1.341 . S
C102 C104 1.371 . S
C103 C102 1.341 . S
C103 C107 1.394 . S
C103 H119 0.930 . S
C104 C102 1.371 . S
C104 C105 1.392 . S
C104 H120 0.931 . S
C105 C104 1.392 . S
C105 C106 1.331 . S
C105 H123 0.932 . S
C106 C105 1.331 . S
C106 C107 1.336 . S
C107 C103 1.394 . S
C107 C106 1.336 . S
C107 H122 0.929 . S
C108 C98 1.386 . S
C108 C101 1.357 . S
C108 H121 0.928 . S
H109 C85 0.931 . S
H110 C87 0.930 . S
H111 C89 0.929 . S
H112 C90 0.931 . S
H113 C92 0.930 . S
H114 C96 0.931 . S
H115 C94 0.931 . S
H116 C98 0.931 . S
H117 C99 0.929 . S
H118 C100 0.930 . S
H119 C103 0.930 . S
H120 C104 0.931 . S
H121 C108 0.928 . S
H122 C107 0.929 . S
H123 C105 0.932 . S
C124 C125 1.386 . S
C124 C126 1.397 . S
C124 H148 0.931 . S
C125 C124 1.386 . S
C125 C129 1.397 . S
C126 C124 1.397 . S
C126 C127 1.384 . S
C126 H149 0.930 . S
C127 C126 1.384 . S
C127 C128 1.377 . S
C127 C130 1.481 . S
C128 C127 1.377 . S
C128 C129 1.389 . S
C128 H150 0.929 . S
C129 C125 1.397 . S
C129 C128 1.389 . S
C129 H151 0.931 . S
C130 C127 1.481 . S
C130 C131 1.387 . S
C130 C135 1.390 . S
C131 C130 1.387 . S
C131 C132 1.401 . S
C131 H152 0.930 . S
C132 C131 1.401 . S
C132 C133 1.376 . S
C132 C141 1.511 . S
C133 C132 1.376 . S
C133 C134 1.392 . S
C133 H154 0.931 . S
C134 C133 1.392 . S
C134 C135 1.361 . S
C134 C136 1.500 . S
C135 C130 1.390 . S
C135 C134 1.361 . S
C135 H153 0.931 . S
C136 C134 1.500 . S
C136 C137 1.371 . S
C136 C138 1.365 . S
C137 C136 1.371 . S
C137 C147 1.386 1_556 S
C137 H155 0.931 1_556 S
C138 C136 1.365 . S
C138 C139 1.409 . S
C138 H156 0.929 . S
C139 C138 1.409 . S
C139 C140 1.380 . S
C139 H157 0.930 . S
C140 C139 1.380 . S
C140 C147 1.357 1_556 S
C141 C132 1.511 . S
C141 C142 1.341 . S
C141 C143 1.371 . S
C142 C141 1.341 . S
C142 C146 1.394 . S
C142 H158 0.930 . S
C143 C141 1.371 . S
C143 C144 1.392 1_556 S
C143 H159 0.931 1_556 S
C144 C143 1.392 1_554 S
C144 C145 1.331 1_554 S
C144 H162 0.932 . S
C145 C144 1.331 1_556 S
C145 C146 1.336 . S
C146 C142 1.394 . S
C146 C145 1.336 . S
C146 H161 0.929 . S
C147 C137 1.386 1_554 S
C147 C140 1.357 1_554 S
C147 H160 0.928 . S
H148 C124 0.931 . S
H149 C126 0.930 . S
H150 C128 0.929 . S
H151 C129 0.931 . S
H152 C131 0.930 . S
H153 C135 0.931 . S
H154 C133 0.931 . S
H155 C137 0.931 1_554 S
H156 C138 0.929 . S
H157 C139 0.930 . S
H158 C142 0.930 . S
H159 C143 0.931 1_554 S
H160 C147 0.928 . S
H161 C146 0.929 . S
H162 C144 0.932 . S
C163 C164 1.386 . S
C163 C165 1.397 . S
C163 H187 0.931 . S
C164 C163 1.386 . S
C164 C168 1.397 . S
C165 C163 1.397 . S
C165 C166 1.384 . S
C165 H188 0.930 . S
C166 C165 1.384 . S
C166 C167 1.377 . S
C166 C169 1.481 . S
C167 C166 1.377 . S
C167 C168 1.389 . S
C167 H189 0.929 . S
C168 C164 1.397 . S
C168 C167 1.389 . S
C168 H190 0.931 . S
C169 C166 1.481 . S
C169 C170 1.387 . S
C169 C174 1.390 . S
C170 C169 1.387 . S
C170 C171 1.401 . S
C170 H191 0.930 . S
C171 C170 1.401 . S
C171 C172 1.376 . S
C171 C180 1.511 . S
C172 C171 1.376 . S
C172 C173 1.392 . S
C172 H193 0.931 . S
C173 C172 1.392 . S
C173 C174 1.361 . S
C173 C175 1.500 . S
C174 C169 1.390 . S
C174 C173 1.361 . S
C174 H192 0.931 . S
C175 C173 1.500 . S
C175 C176 1.371 . S
C175 C177 1.365 . S
C176 C175 1.371 . S
C176 C186 1.386 . S
C176 H194 0.931 . S
C177 C175 1.365 . S
C177 C178 1.409 . S
C177 H195 0.929 . S
C178 C177 1.409 . S
C178 C179 1.380 . S
C178 H196 0.930 . S
C179 C178 1.380 . S
C179 C186 1.357 . S
C180 C171 1.511 . S
C180 C181 1.341 . S
C180 C182 1.371 . S
C181 C180 1.341 . S
C181 C185 1.394 . S
C181 H197 0.930 . S
C182 C180 1.371 . S
C182 C183 1.392 1_554 S
C182 H198 0.931 . S
C183 C182 1.392 1_556 S
C183 C184 1.331 1_556 S
C183 H201 0.932 . S
C184 C183 1.331 1_554 S
C184 C185 1.336 . S
C185 C181 1.394 . S
C185 C184 1.336 . S
C185 H200 0.929 . S
C186 C176 1.386 . S
C186 C179 1.357 . S
C186 H199 0.928 1_554 S
H187 C163 0.931 . S
H188 C165 0.930 . S
H189 C167 0.929 . S
H190 C168 0.931 . S
H191 C170 0.930 . S
H192 C174 0.931 . S
H193 C172 0.931 . S
H194 C176 0.931 . S
H195 C177 0.929 . S
H196 C178 0.930 . S
H197 C181 0.930 . S
H198 C182 0.931 . S
H199 C186 0.928 1_556 S
H200 C185 0.929 . S
H201 C183 0.932 . S
C179 C21 1.593 . S
C19 C140 1.570 . S
C18 C184 1.588 . S
C20 C145 1.605 . S
C44 C101 1.593 . S
C42 C62 1.571 . S
C106 C41 1.588 . S
C67 C43 1.605 . S
C16 C47 1.506 1_445 S
C17 C86 1.446 . S
C125 C39 1.506 . S
C40 C164 1.446 . S
