# Generated by pormake.
# Topology pts, (4,4)-cn, num edge types: 1
# Building blocks:
#     Node 0, Type 0, BuildingBlock: MUDLON_clean_linker_0, # of connection points: 4
#     Node 1, Type 0, BuildingBlock: MUDLON_clean_linker_0, # of connection points: 4
#     Node 2, Type 1, BuildingBlock: AZAVOO_clean_sbu_0, # of connection points: 4
#     Node 3, Type 1, BuildingBlock: AZAVOO_clean_sbu_0, # of connection points: 4
#     Edge 4, Type (0, 1), BuildingBlock: AJUNOK_clean_linker_0, # of connection points: 2
#     Edge 5, Type (0, 1), BuildingBlock: AJUNOK_clean_linker_0, # of connection points: 2
#     Edge 6, Type (0, 1), BuildingBlock: AJUNOK_clean_linker_0, # of connection points: 2
#     Edge 7, Type (0, 1), BuildingBlock: AJUNOK_clean_linker_0, # of connection points: 2
#     Edge 8, Type (0, 1), BuildingBlock: AJUNOK_clean_linker_0, # of connection points: 2
#     Edge 9, Type (0, 1), BuildingBlock: AJUNOK_clean_linker_0, # of connection points: 2
#     Edge 10, Type (0, 1), BuildingBlock: AJUNOK_clean_linker_0, # of connection points: 2
#     Edge 11, Type (0, 1), BuildingBlock: AJUNOK_clean_linker_0, # of connection points: 2
# Relax obj value: 0.019
# Max RMSD: 0.069
# Mean RMSD: 0.065
data_MOF--net-pts--node1-AZAVOO_clean_sbu_0--node2-MUDLON_clean_linker_0--edge1-AJUNOK_clean_linker_0
_symmetry_space_group_name_H-M    P1
_symmetry_Int_Tables_number       1
_symmetry_cell_setting            triclinic
loop_
_symmetry_equiv_pos_as_xyz
'x, y, z'
_cell_length_a     26.886453
_cell_length_b     28.043872
_cell_length_c     35.510842
_cell_angle_alpha  89.794578
_cell_angle_beta   96.423436
_cell_angle_gamma 90.12664
loop_
_atom_site_label
_atom_site_type_symbol
_atom_site_fract_x
_atom_site_fract_y
_atom_site_fract_z
_atom_type_partial_charge
H0 H 0.73437 0.13183 0.06888 0.0
N1 N 0.7129 0.07249 0.01109 0.0
H2 H 0.79463 0.11979 0.12539 0.0
H3 H 0.76701 0.99109 0.02988 0.0
H4 H 0.82664 0.97885 0.0861 0.0
H5 H 0.71289 0.99106 0.96846 0.0
H6 H 0.75591 0.97957 0.91218 0.0
H7 H 0.7637 0.13698 0.97579 0.0
H8 H 0.80631 0.1259 0.91879 0.0
H9 H 0.63262 0.12494 0.98921 0.0
H10 H 0.67672 0.9857 0.03236 0.0
H11 H 0.54446 0.10187 0.98692 0.0
H12 H 0.58924 0.96298 0.03161 0.0
H13 H 0.30102 0.05058 0.02298 0.0
H14 H 0.24801 0.05717 0.07449 0.0
H15 H 0.29544 0.9171 0.11444 0.0
H16 H 0.34779 0.91051 0.0624 0.0
H17 H 0.29483 0.90241 0.97518 0.0
H18 H 0.23335 0.90706 0.91876 0.0
H19 H 0.27757 0.05257 0.90059 0.0
H20 H 0.33846 0.04806 0.9575 0.0
H21 H 0.39166 0.06056 0.02318 0.0
H22 H 0.47926 0.08479 0.02535 0.0
H23 H 0.51741 0.94362 0.98945 0.0
N24 N 0.35336 0.97148 0.00572 0.0
H25 H 0.42992 0.9194 0.98885 0.0
C26 C 0.74619 0.0627 0.04504 0.0
C27 C 0.75424 0.0983 0.07264 0.0
C28 C 0.78861 0.09138 0.10478 0.0
C29 C 0.81585 0.04867 0.10978 0.0
C30 C 0.807 0.01253 0.08254 0.0
C31 C 0.77253 0.01941 0.05048 0.0
C32 C 0.73469 0.06522 0.9762 0.0
C33 C 0.73259 0.02089 0.95766 0.0
C34 C 0.7571 0.01439 0.92535 0.0
C35 C 0.784 0.05202 0.91084 0.0
C36 C 0.78588 0.09629 0.92934 0.0
C37 C 0.76138 0.10276 0.96166 0.0
C38 C 0.66143 0.05746 0.01115 0.0
C39 C 0.62323 0.08956 0.99853 0.0
C40 C 0.57286 0.07636 0.99748 0.0
C41 C 0.55947 0.03052 0.00916 0.0
C42 C 0.59795 -0.00166 0.02189 0.0
C43 C 0.64831 0.01151 0.0227 0.0
C44 C 0.32844 0.9799 0.03897 0.0
C45 C 0.30093 0.02178 0.04332 0.0
C46 C 0.2707 0.02555 0.07282 0.0
C47 C 0.26758 0.98761 0.09846 0.0
C48 C 0.29688 0.94675 0.09494 0.0
C49 C 0.32702 0.94304 0.0655 0.0
C50 C 0.32149 0.97454 0.97034 0.0
C51 C 0.29159 0.9351 0.95877 0.0
C52 C 0.25637 0.93792 0.92683 0.0
C53 C 0.25062 0.98028 0.90567 0.0
C54 C 0.28147 0.01952 0.91653 0.0
C55 C 0.31633 0.0169 0.9489 0.0
C56 C 0.40434 0.98783 0.00623 0.0
C57 C 0.41886 0.03478 0.01597 0.0
C58 C 0.46909 0.0487 0.01689 0.0
C59 C 0.50575 0.01613 0.0078 0.0
C60 C 0.49064 0.96946 0.99742 0.0
C61 C 0.44059 0.95558 0.99675 0.0
H62 H 0.88698 0.73043 0.53294 0.0
N63 N 0.95595 0.68217 0.5009 0.0
H64 H 0.89863 0.77727 0.59144 0.0
H65 H 0.04113 0.68554 0.55159 0.0
H66 H 0.05285 0.73219 0.60986 0.0
H67 H 0.03806 0.73979 0.49606 0.0
H68 H 0.05014 0.79564 0.44529 0.0
H69 H 0.89821 0.69373 0.43535 0.0
H70 H 0.91131 0.74959 0.3835 0.0
H71 H 0.90876 0.60388 0.51952 0.0
H72 H 0.04771 0.65227 0.48222 0.0
H73 H 0.94083 0.52197 0.52333 0.0
H74 H 0.07936 0.57094 0.48554 0.0
H75 H 1.00091 0.32327 0.53586 0.0
H76 H 0.98223 0.26521 0.58365 0.0
H77 H 0.14008 0.25108 0.62038 0.0
H78 H 0.1587 0.30939 0.5722 0.0
H79 H 0.17112 0.3161 0.48601 0.0
H80 H 0.16763 0.26598 0.42932 0.0
H81 H 1.00591 0.27052 0.4197 0.0
H82 H 0.01012 0.32411 0.47339 0.0
H83 H 0.04735 0.40078 0.57209 0.0
H84 H 0.01201 0.47992 0.56479 0.0
H85 H 0.06082 0.49119 0.45351 0.0
N86 N 0.09452 0.35017 0.51925 0.0
H87 H 0.09576 0.41137 0.46002 0.0
C88 C 0.96291 0.70462 0.53769 0.0
C89 C 0.92294 0.72989 0.55005 0.0
C90 C 0.92958 0.75626 0.58355 0.0
C91 C 0.97656 0.75792 0.60527 0.0
C92 C 0.01623 0.73127 0.59367 0.0
C93 C 0.00947 0.7046 0.56033 0.0
C94 C 0.96648 0.71288 0.46994 0.0
C95 C 0.00994 0.74134 0.47186 0.0
C96 C 0.01711 0.77314 0.4427 0.0
C97 C 0.98159 0.77667 0.4108 0.0
C98 C 0.9392 0.74713 0.40792 0.0
C99 C 0.9317 0.71551 0.43742 0.0
C100 C 0.97526 0.63423 0.50022 0.0
C101 C 0.94584 0.59675 0.51175 0.0
C102 C 0.96427 0.5502 0.51412 0.0
C103 C 0.0125 0.54024 0.50465 0.0
C104 C 0.0418 0.5776 0.49254 0.0
C105 C 0.02359 0.62423 0.49061 0.0
C106 C 0.08154 0.32044 0.55015 0.0
C107 C 0.0316 0.30792 0.55417 0.0
C108 C 0.02086 0.27507 0.58178 0.0
C109 C 0.05965 0.2539 0.6059 0.0
C110 C 0.10934 0.26759 0.60275 0.0
C111 C 0.12008 0.30054 0.5751 0.0
C112 C 0.09107 0.32299 0.48449 0.0
C113 C 0.13508 0.30691 0.47104 0.0
C114 C 0.13292 0.27822 0.43875 0.0
C115 C 0.0865 0.26428 0.41959 0.0
C116 C 0.04242 0.28148 0.43274 0.0
C117 C 0.04468 0.31119 0.46433 0.0
C118 C 0.07139 0.39723 0.51538 0.0
C119 C 0.04915 0.41877 0.54531 0.0
C120 C 0.02913 0.46465 0.5414 0.0
C121 C 0.03268 0.49119 0.50827 0.0
C122 C 0.05698 0.4712 0.47919 0.0
C123 C 0.07645 0.42512 0.48283 0.0
Mg124 Mg 0.07497 0.00039 0.28425 0.0
O125 O 1.00399 0.01356 0.24294 0.0
O126 O 0.93962 0.02164 0.27693 0.0
Mg127 Mg 0.96813 0.0121 0.33957 0.0
C128 C 0.9575 0.02077 0.24512 0.0
C129 C 0.12417 0.98376 0.21028 0.0
O130 O 0.09367 0.94708 0.21023 0.0
O131 O 0.07805 0.07851 0.303 0.0
O132 O 0.01411 0.08097 0.33846 0.0
O133 O 0.06068 0.92115 0.2842 0.0
O134 O 0.03257 0.97145 0.32421 0.0
C135 C 0.05094 0.10061 0.3246 0.0
C136 C 0.03535 0.92834 0.31258 0.0
O137 O 0.12448 0.01407 0.23685 0.0
Mg138 Mg 0.98286 -0.00158 0.73615 0.0
O139 O 0.05555 0.9914 0.77637 0.0
O140 O 0.11774 0.97845 0.74098 0.0
Mg141 Mg 0.08433 0.97032 0.67902 0.0
C142 C 0.1019 0.98507 0.77314 0.0
C143 C 0.8969 0.01516 0.78298 0.0
O144 O 0.8786 0.98725 0.75516 0.0
O145 O 1.00729 0.07175 0.71557 0.0
O146 O 0.06242 0.04916 0.67614 0.0
O147 O 0.96707 0.91994 0.73879 0.0
O148 O 0.01073 0.95342 0.69694 0.0
C149 C 0.03676 0.08111 0.69063 0.0
C150 C 0.99208 0.91529 0.70994 0.0
O151 O 0.94205 0.02913 0.78365 0.0
C152 C 0.19823 0.94991 0.12938 0.0
C153 C 0.23103 0.98863 0.12693 0.0
C154 C 0.16337 0.9493 0.15586 0.0
C155 C 0.15995 0.98727 0.18129 0.0
H156 H 0.1993 0.9198 0.11045 0.0
H157 H 0.13931 0.91836 0.15658 0.0
S158 S 0.23738 0.09747 0.18627 0.0
N159 N 0.25792 0.06616 0.15189 0.0
N160 N 0.19236 0.06526 0.20183 0.0
C161 C 0.19229 0.02656 0.1789 0.0
C162 C 0.22773 0.02722 0.15168 0.0
C163 C 0.02003 0.17492 0.61469 0.0
C164 C 0.04873 0.21332 0.63064 0.0
C165 C 0.01417 0.13321 0.63541 0.0
C166 C 0.03613 0.12856 0.67299 0.0
H167 H 1.00402 0.17613 0.58531 0.0
H168 H 0.99385 0.10358 0.62145 0.0
S169 S 0.1112 0.2197 0.72909 0.0
N170 N 0.09675 0.24506 0.68721 0.0
N171 N 0.08531 0.16612 0.72624 0.0
C172 C 0.06294 0.1672 0.69002 0.0
C173 C 0.06938 0.20974 0.66878 0.0
C174 C 0.83936 0.05063 0.17997 0.0
C175 C 0.853 0.04176 0.1436 0.0
C176 C 0.87339 0.0438 0.21241 0.0
C177 C 0.92274 0.02819 0.20987 0.0
H178 H 0.80178 0.06236 0.18345 0.0
H179 H 0.86071 0.05095 0.23973 0.0
S180 S 0.9776 0.00192 0.12067 0.0
N181 N 0.91943 0.01799 0.10655 0.0
N182 N 0.98357 0.00498 0.16738 0.0
C183 C 0.93703 0.01976 0.17346 0.0
C184 C 0.90215 0.02649 0.14042 0.0
C185 C 0.0236 0.82639 0.63641 0.0
C186 C 0.98553 0.7921 0.63704 0.0
C187 C 0.0276 0.86447 0.66194 0.0
C188 C 0.99398 0.86954 0.68933 0.0
H189 H 0.04869 0.82542 0.61458 0.0
H190 H 0.05593 0.89118 0.65894 0.0
S191 S 0.89216 0.78502 0.70612 0.0
N192 N 0.91695 0.76243 0.66961 0.0
N193 N 0.92453 0.83387 0.718 0.0
C194 C 0.95809 0.83339 0.69209 0.0
C195 C 0.95374 0.7948 0.66576 0.0
C196 C 0.22556 0.99388 0.83645 0.0
C197 C 0.2119 0.98342 0.87261 0.0
C198 C 0.18973 0.99439 0.80451 0.0
C199 C 0.13874 0.98526 0.80765 0.0
H200 H 0.26439 0.00071 0.83273 0.0
H201 H 0.20216 0.00211 0.77716 0.0
S202 S 0.08384 0.95822 0.89681 0.0
N203 N 0.14423 0.9651 0.91021 0.0
N204 N 0.07662 0.96663 0.85047 0.0
C205 C 0.12458 0.97583 0.84397 0.0
C206 C 0.16122 0.97471 0.87634 0.0
C207 C 0.11532 0.18746 0.39346 0.0
C208 C 0.08377 0.22766 0.38901 0.0
C209 C 0.10744 0.14795 0.3695 0.0
C210 C 0.06747 0.14696 0.34052 0.0
H211 H 0.14418 0.18486 0.41722 0.0
H212 H 0.13031 0.11649 0.37562 0.0
S213 S 0.97965 0.2454 0.31224 0.0
N214 N 0.01595 0.26652 0.34905 0.0
N215 N 0.99946 0.19065 0.30568 0.0
C216 C 0.03787 0.18779 0.3339 0.0
C217 C 0.04649 0.22858 0.35771 0.0
C218 C 0.8618 0.05823 0.87809 0.0
C219 C 0.81124 0.04469 0.87712 0.0
C220 C 0.88894 0.04951 0.84727 0.0
C221 C 0.86653 0.02698 0.81423 0.0
H222 H 0.88093 0.07465 0.90325 0.0
H223 H 0.92805 0.05968 0.84976 0.0
S224 S 0.7335 0.98872 0.79628 0.0
N225 N 0.73882 0.01076 0.83957 0.0
N226 N 0.78948 0.99401 0.78176 0.0
C227 C 0.81546 0.01457 0.81255 0.0
C228 C 0.78795 0.02346 0.84395 0.0
C229 C 0.98392 0.86192 0.39266 0.0
C230 C 0.98778 0.814 0.38233 0.0
C231 C 0.99654 0.8986 0.3687 0.0
C232 C 0.01423 0.88874 0.33365 0.0
H233 H 0.97265 0.87106 0.42009 0.0
H234 H 0.99466 0.93488 0.37876 0.0
S235 S 0.02724 0.76839 0.29263 0.0
N236 N 1.00705 0.758 0.33417 0.0
N237 N 0.03156 0.82698 0.28887 0.0
C238 C 0.01601 0.84074 0.32226 0.0
C239 C 1.00261 0.80333 0.3467 0.0
loop_
_geom_bond_atom_site_label_1
_geom_bond_atom_site_label_2
_geom_bond_distance
_geom_bond_site_symmetry_2
_ccdc_geom_bond_type
H0 C27 0.929 . S
N1 C26 1.433 . S
N1 C32 1.435 1_554 S
N1 C38 1.423 . S
H2 C28 0.930 . S
H3 C31 0.931 . S
H4 C30 0.929 . S
H5 C33 0.930 . S
H6 C34 0.932 . S
H7 C37 0.929 . S
H8 C36 0.931 . S
H9 C39 0.929 . S
H10 C43 0.932 1_565 S
H11 C40 0.931 . S
H12 C42 0.920 1_565 S
H13 C45 0.929 . S
H14 C46 0.930 . S
H15 C48 0.929 . S
H16 C49 0.931 . S
H17 C51 0.930 . S
H18 C52 0.932 . S
H19 C54 0.931 . S
H20 C55 0.929 . S
H21 C57 0.929 . S
H22 C58 0.931 . S
H23 C60 0.920 1_565 S
N24 C44 1.438 . S
N24 C50 1.430 1_554 S
N24 C56 1.422 1_554 S
H25 C61 0.932 1_565 S
C26 N1 1.433 . S
C26 C27 1.363 . S
C26 C31 1.370 1_545 S
C27 H0 0.929 . S
C27 C26 1.363 . S
C27 C28 1.385 . S
C28 H2 0.930 . S
C28 C27 1.385 . S
C28 C29 1.357 . S
C29 C28 1.357 . S
C29 C30 1.406 1_545 S
C30 H4 0.929 . S
C30 C29 1.406 1_565 S
C30 C31 1.391 . S
C31 H3 0.931 . S
C31 C26 1.370 1_565 S
C31 C30 1.391 . S
C32 N1 1.435 1_556 S
C32 C33 1.358 1_545 S
C32 C37 1.371 . S
C33 H5 0.930 . S
C33 C32 1.358 1_565 S
C33 C34 1.405 . S
C34 H6 0.932 . S
C34 C33 1.405 . S
C34 C35 1.383 1_565 S
C35 C34 1.383 1_545 S
C35 C36 1.393 . S
C36 H8 0.931 . S
C36 C35 1.393 . S
C36 C37 1.382 . S
C37 H7 0.929 . S
C37 C32 1.371 . S
C37 C36 1.382 . S
C38 N1 1.423 . S
C38 C39 1.362 . S
C38 C43 1.388 1_554 S
C39 H9 0.929 . S
C39 C38 1.362 . S
C39 C40 1.376 . S
C40 H11 0.931 . S
C40 C39 1.376 . S
C40 C41 1.396 1_554 S
C41 C40 1.396 1_556 S
C41 C42 1.348 . S
C41 C59 1.472 . S
C42 H12 0.920 1_545 S
C42 C41 1.348 . S
C42 C43 1.443 . S
C43 H10 0.932 1_545 S
C43 C38 1.388 1_556 S
C43 C42 1.443 . S
C44 N24 1.438 . S
C44 C45 1.363 . S
C44 C49 1.370 1_545 S
C45 H13 0.929 . S
C45 C44 1.363 . S
C45 C46 1.385 . S
C46 H14 0.930 . S
C46 C45 1.385 . S
C46 C47 1.357 . S
C47 C46 1.357 . S
C47 C48 1.406 1_545 S
C48 H15 0.929 . S
C48 C47 1.406 1_565 S
C48 C49 1.391 . S
C49 H16 0.931 . S
C49 C44 1.370 1_565 S
C49 C48 1.391 . S
C50 N24 1.430 1_556 S
C50 C51 1.358 1_545 S
C50 C55 1.371 . S
C51 H17 0.930 . S
C51 C50 1.358 1_565 S
C51 C52 1.405 . S
C52 H18 0.932 . S
C52 C51 1.405 . S
C52 C53 1.383 1_565 S
C53 C52 1.383 1_545 S
C53 C54 1.393 . S
C54 H19 0.931 . S
C54 C53 1.393 . S
C54 C55 1.382 . S
C55 H20 0.929 . S
C55 C50 1.371 . S
C55 C54 1.382 . S
C56 N24 1.422 1_556 S
C56 C57 1.362 1_556 S
C56 C61 1.388 . S
C57 H21 0.929 . S
C57 C56 1.362 1_554 S
C57 C58 1.376 . S
C58 H22 0.931 . S
C58 C57 1.376 . S
C58 C59 1.396 1_554 S
C59 C41 1.472 . S
C59 C58 1.396 1_556 S
C59 C60 1.348 . S
C60 H23 0.920 1_545 S
C60 C59 1.348 . S
C60 C61 1.443 . S
C61 H25 0.932 1_545 S
C61 C56 1.388 . S
C61 C60 1.443 . S
H62 C89 0.929 . S
N63 C88 1.433 . S
N63 C94 1.435 . S
N63 C100 1.423 1_455 S
H64 C90 0.930 . S
H65 C93 0.931 . S
H66 C92 0.929 . S
H67 C95 0.930 . S
H68 C96 0.932 . S
H69 C99 0.929 . S
H70 C98 0.931 . S
H71 C101 0.929 . S
H72 C105 0.932 . S
H73 C102 0.931 . S
H74 C104 0.929 . S
H75 C107 0.929 . S
H76 C108 0.930 . S
H77 C110 0.929 . S
H78 C111 0.931 . S
H79 C113 0.930 . S
H80 C114 0.932 . S
H81 C116 0.931 . S
H82 C117 0.929 . S
H83 C119 0.929 . S
H84 C120 0.931 . S
H85 C122 0.929 . S
N86 C106 1.433 . S
N86 C112 1.435 . S
N86 C118 1.423 1_455 S
H87 C123 0.932 . S
C88 N63 1.433 . S
C88 C89 1.363 1_455 S
C88 C93 1.370 . S
C89 H62 0.929 . S
C89 C88 1.363 1_655 S
C89 C90 1.385 . S
C90 H64 0.930 . S
C90 C89 1.385 . S
C90 C91 1.357 1_655 S
C91 C90 1.357 1_455 S
C91 C92 1.406 . S
C92 H66 0.929 . S
C92 C91 1.406 . S
C92 C93 1.391 . S
C93 H65 0.931 . S
C93 C88 1.370 . S
C93 C92 1.391 . S
C94 N63 1.435 . S
C94 C95 1.358 . S
C94 C99 1.371 1_455 S
C95 H67 0.930 . S
C95 C94 1.358 . S
C95 C96 1.405 . S
C96 H68 0.932 . S
C96 C95 1.405 . S
C96 C97 1.383 . S
C97 C96 1.383 . S
C97 C98 1.393 1_455 S
C98 H70 0.931 . S
C98 C97 1.393 1_655 S
C98 C99 1.382 . S
C99 H69 0.929 . S
C99 C94 1.371 1_655 S
C99 C98 1.382 . S
C100 N63 1.423 1_655 S
C100 C101 1.362 . S
C100 C105 1.388 1_655 S
C101 H71 0.929 . S
C101 C100 1.362 . S
C101 C102 1.376 . S
C102 H73 0.931 . S
C102 C101 1.376 . S
C102 C103 1.396 . S
C103 C102 1.396 . S
C103 C104 1.348 1_655 S
C103 C121 1.472 . S
C104 H74 0.929 . S
C104 C103 1.348 1_455 S
C104 C105 1.443 . S
C105 H72 0.932 . S
C105 C100 1.388 1_455 S
C105 C104 1.443 . S
C106 N86 1.433 . S
C106 C107 1.363 1_455 S
C106 C111 1.370 . S
C107 H75 0.929 . S
C107 C106 1.363 1_655 S
C107 C108 1.385 . S
C108 H76 0.930 . S
C108 C107 1.385 . S
C108 C109 1.357 1_655 S
C109 C108 1.357 1_455 S
C109 C110 1.406 . S
C110 H77 0.929 . S
C110 C109 1.406 . S
C110 C111 1.391 . S
C111 H78 0.931 . S
C111 C106 1.370 . S
C111 C110 1.391 . S
C112 N86 1.435 . S
C112 C113 1.358 . S
C112 C117 1.371 1_455 S
C113 H79 0.930 . S
C113 C112 1.358 . S
C113 C114 1.405 . S
C114 H80 0.932 . S
C114 C113 1.405 . S
C114 C115 1.383 . S
C115 C114 1.383 . S
C115 C116 1.393 1_455 S
C116 H81 0.931 . S
C116 C115 1.393 1_655 S
C116 C117 1.382 . S
C117 H82 0.929 . S
C117 C112 1.371 1_655 S
C117 C116 1.382 . S
C118 N86 1.423 1_655 S
C118 C119 1.362 . S
C118 C123 1.388 1_655 S
C119 H83 0.929 . S
C119 C118 1.362 . S
C119 C120 1.376 . S
C120 H84 0.931 . S
C120 C119 1.376 . S
C120 C121 1.396 . S
C121 C103 1.472 . S
C121 C120 1.396 . S
C121 C122 1.348 1_655 S
C122 H85 0.929 . S
C122 C121 1.348 1_455 S
C122 C123 1.443 . S
C123 H87 0.932 . S
C123 C118 1.388 1_455 S
C123 C122 1.443 . S
Mg124 O125 2.028 . S
Mg124 O131 1.986 . S
Mg124 O133 2.114 1_545 S
Mg124 O134 2.251 1_545 S
Mg124 O137 2.010 . S
O125 Mg124 2.028 . S
O125 C128 1.250 1_455 S
O126 Mg127 2.028 . S
O126 C128 1.248 . S
Mg127 O126 2.028 . S
Mg127 O132 2.032 . S
Mg127 O134 2.079 1_645 S
C128 O125 1.250 1_655 S
C128 O126 1.248 . S
C129 O130 1.264 . S
C129 O137 1.249 . S
O130 C129 1.264 . S
O131 Mg124 1.986 . S
O131 C135 1.246 . S
O132 Mg127 2.032 . S
O132 C135 1.259 1_655 S
O133 Mg124 2.114 1_565 S
O133 C136 1.252 . S
O134 Mg124 2.251 1_565 S
O134 Mg127 2.079 1_465 S
O134 C136 1.273 . S
C135 O131 1.246 . S
C135 O132 1.259 1_455 S
C136 O133 1.252 . S
C136 O134 1.273 . S
O137 Mg124 2.010 . S
O137 C129 1.249 . S
Mg138 O139 2.028 1_655 S
Mg138 O145 1.986 . S
Mg138 O147 2.114 1_545 S
Mg138 O148 2.251 1_645 S
Mg138 O151 2.010 . S
O139 Mg138 2.028 1_455 S
O139 C142 1.250 . S
O140 Mg141 2.028 . S
O140 C142 1.248 . S
Mg141 O140 2.028 . S
Mg141 O146 2.032 . S
Mg141 O148 2.079 1_545 S
C142 O139 1.250 . S
C142 O140 1.248 . S
C143 O144 1.264 . S
C143 O151 1.249 . S
O144 C143 1.264 . S
O145 Mg138 1.986 . S
O145 C149 1.246 1_655 S
O146 Mg141 2.032 . S
O146 C149 1.259 . S
O147 Mg138 2.114 1_565 S
O147 C150 1.252 1_655 S
O148 Mg138 2.251 1_465 S
O148 Mg141 2.079 1_565 S
O148 C150 1.273 . S
C149 O145 1.246 1_455 S
C149 O146 1.259 . S
C150 O147 1.252 1_455 S
C150 O148 1.273 . S
O151 Mg138 2.010 . S
O151 C143 1.249 . S
C152 C153 1.369 1_565 S
C152 C154 1.419 . S
C152 H156 0.930 . S
C153 C152 1.369 1_545 S
C153 C162 1.429 . S
C154 C152 1.419 . S
C154 C155 1.363 1_565 S
C154 H157 0.929 . S
C155 C154 1.363 1_545 S
C155 C161 1.428 . S
H156 C152 0.930 . S
H157 C154 0.929 . S
S158 N159 1.613 . S
S158 N160 1.610 . S
N159 S158 1.613 . S
N159 C162 1.350 . S
N160 S158 1.610 . S
N160 C161 1.351 . S
C161 C155 1.428 . S
C161 N160 1.351 . S
C161 C162 1.434 . S
C162 C153 1.429 . S
C162 N159 1.350 . S
C162 C161 1.434 . S
C163 C164 1.369 1_655 S
C163 C165 1.419 . S
C163 H167 0.930 . S
C164 C163 1.369 1_455 S
C164 C173 1.429 . S
C165 C163 1.419 . S
C165 C166 1.363 1_655 S
C165 H168 0.929 . S
C166 C165 1.363 1_455 S
C166 C172 1.428 . S
H167 C163 0.930 . S
H168 C165 0.929 . S
S169 N170 1.613 . S
S169 N171 1.610 . S
N170 S169 1.613 . S
N170 C173 1.350 . S
N171 S169 1.610 . S
N171 C172 1.351 . S
C172 C166 1.428 . S
C172 N171 1.351 . S
C172 C173 1.434 . S
C173 C164 1.429 . S
C173 N170 1.350 . S
C173 C172 1.434 . S
C174 C175 1.369 . S
C174 C176 1.419 . S
C174 H178 0.930 . S
C175 C174 1.369 . S
C175 C184 1.429 1_545 S
C176 C174 1.419 . S
C176 C177 1.363 . S
C176 H179 0.929 . S
C177 C176 1.363 . S
C177 C183 1.428 1_545 S
H178 C174 0.930 . S
H179 C176 0.929 . S
S180 N181 1.613 . S
S180 N182 1.610 . S
N181 S180 1.613 . S
N181 C184 1.350 . S
N182 S180 1.610 . S
N182 C183 1.351 . S
C183 C177 1.428 1_565 S
C183 N182 1.351 . S
C183 C184 1.434 . S
C184 C175 1.429 1_565 S
C184 N181 1.350 . S
C184 C183 1.434 . S
C185 C186 1.369 . S
C185 C187 1.419 . S
C185 H189 0.930 . S
C186 C185 1.369 . S
C186 C195 1.429 1_455 S
C187 C185 1.419 . S
C187 C188 1.363 . S
C187 H190 0.929 . S
C188 C187 1.363 . S
C188 C194 1.428 1_455 S
H189 C185 0.930 . S
H190 C187 0.929 . S
S191 N192 1.613 . S
S191 N193 1.610 . S
N192 S191 1.613 . S
N192 C195 1.350 . S
N193 S191 1.610 . S
N193 C194 1.351 . S
C194 C188 1.428 1_655 S
C194 N193 1.351 . S
C194 C195 1.434 . S
C195 C186 1.429 1_655 S
C195 N192 1.350 . S
C195 C194 1.434 . S
C196 C197 1.369 . S
C196 C198 1.419 . S
C196 H200 0.930 . S
C197 C196 1.369 . S
C197 C206 1.429 . S
C198 C196 1.419 . S
C198 C199 1.363 . S
C198 H201 0.929 . S
C199 C198 1.363 . S
C199 C205 1.428 . S
H200 C196 0.930 . S
H201 C198 0.929 . S
S202 N203 1.613 . S
S202 N204 1.610 1_565 S
N203 S202 1.613 . S
N203 C206 1.350 1_565 S
N204 S202 1.610 1_545 S
N204 C205 1.351 . S
C205 C199 1.428 . S
C205 N204 1.351 . S
C205 C206 1.434 . S
C206 C197 1.429 . S
C206 N203 1.350 1_545 S
C206 C205 1.434 . S
C207 C208 1.369 . S
C207 C209 1.419 . S
C207 H211 0.930 . S
C208 C207 1.369 . S
C208 C217 1.429 . S
C209 C207 1.419 . S
C209 C210 1.363 . S
C209 H212 0.929 . S
C210 C209 1.363 . S
C210 C216 1.428 . S
H211 C207 0.930 . S
H212 C209 0.929 . S
S213 N214 1.613 . S
S213 N215 1.610 . S
N214 S213 1.613 . S
N214 C217 1.350 . S
N215 S213 1.610 . S
N215 C216 1.351 . S
C216 C210 1.428 . S
C216 N215 1.351 . S
C216 C217 1.434 . S
C217 C208 1.429 . S
C217 N214 1.350 . S
C217 C216 1.434 . S
C218 C219 1.369 . S
C218 C220 1.419 . S
C218 H222 0.930 . S
C219 C218 1.369 . S
C219 C228 1.429 1_545 S
C220 C218 1.419 . S
C220 C221 1.363 . S
C220 H223 0.929 . S
C221 C220 1.363 . S
C221 C227 1.428 1_545 S
H222 C218 0.930 . S
H223 C220 0.929 . S
S224 N225 1.613 . S
S224 N226 1.610 . S
N225 S224 1.613 . S
N225 C228 1.350 . S
N226 S224 1.610 . S
N226 C227 1.351 . S
C227 C221 1.428 1_565 S
C227 N226 1.351 . S
C227 C228 1.434 . S
C228 C219 1.429 1_565 S
C228 N225 1.350 . S
C228 C227 1.434 . S
C229 C230 1.369 . S
C229 C231 1.419 . S
C229 H233 0.930 . S
C230 C229 1.369 . S
C230 C239 1.429 . S
C231 C229 1.419 . S
C231 C232 1.363 . S
C231 H234 0.929 . S
C232 C231 1.363 . S
C232 C238 1.428 . S
H233 C229 0.930 . S
H234 C231 0.929 . S
S235 N236 1.613 . S
S235 N237 1.610 . S
N236 S235 1.613 . S
N236 C239 1.350 . S
N237 S235 1.610 . S
N237 C238 1.351 . S
C238 C232 1.428 . S
C238 N237 1.351 . S
C238 C239 1.434 . S
C239 C230 1.429 . S
C239 N236 1.350 . S
C239 C238 1.434 . S
C155 C129 1.394 . S
C153 C47 1.597 . S
C166 C149 1.711 . S
C164 C109 1.600 . S
C177 C128 1.649 . S
C175 C29 1.600 . S
C188 C150 1.731 . S
C186 C91 1.605 . S
C199 C142 1.423 . S
C197 C53 1.430 . S
C210 C135 1.383 . S
C208 C115 1.416 . S
C221 C143 1.264 . S
C219 C35 1.440 . S
C230 C97 1.426 . S
C232 C136 1.426 . S
