# Generated by pormake.
# Topology rtl, (3,6)-cn, num edge types: 1
# Building blocks:
#     Node 0, Type 0, BuildingBlock: PAMTOO_clean_linker_0, # of connection points: 3
#     Node 1, Type 0, BuildingBlock: PAMTOO_clean_linker_0, # of connection points: 3
#     Node 2, Type 0, BuildingBlock: PAMTOO_clean_linker_0, # of connection points: 3
#     Node 3, Type 0, BuildingBlock: PAMTOO_clean_linker_0, # of connection points: 3
#     Node 4, Type 1, BuildingBlock: KUMBUR_clean_sbu_1, # of connection points: 6
#     Node 5, Type 1, BuildingBlock: KUMBUR_clean_sbu_1, # of connection points: 6
#     Edge 6, Type (0, 1), None
#     Edge 7, Type (0, 1), None
#     Edge 8, Type (0, 1), None
#     Edge 9, Type (0, 1), None
#     Edge 10, Type (0, 1), None
#     Edge 11, Type (0, 1), None
#     Edge 12, Type (0, 1), None
#     Edge 13, Type (0, 1), None
#     Edge 14, Type (0, 1), None
#     Edge 15, Type (0, 1), None
#     Edge 16, Type (0, 1), None
#     Edge 17, Type (0, 1), None
# Relax obj value: 0.056
# Max RMSD: 0.285
# Mean RMSD: 0.204
data_MOF--net-rtl--node1-KUMBUR_clean_sbu_1--node2-PAMTOO_clean_linker_0--edge1-none
_symmetry_space_group_name_H-M    P1
_symmetry_Int_Tables_number       1
_symmetry_cell_setting            triclinic
loop_
_symmetry_equiv_pos_as_xyz
'x, y, z'
_cell_length_a     15.66625
_cell_length_b     16.800741
_cell_length_c     13.973269
_cell_angle_alpha  65.873882
_cell_angle_beta   96.123652
_cell_angle_gamma 93.30182
loop_
_atom_site_label
_atom_site_type_symbol
_atom_site_fract_x
_atom_site_fract_y
_atom_site_fract_z
_atom_type_partial_charge
H0 H 0.05144 0.92478 0.9711 0.0
H1 H 0.26622 0.77001 0.15934 0.0
H2 H 0.24606 0.85361 0.82544 0.0
H3 H 0.28072 0.6624 0.96279 0.0
C4 C 0.32342 0.67013 0.02706 0.0
O5 O 0.3332 0.75832 0.00359 0.0
H6 H 0.29292 0.63767 0.10225 0.0
C7 C 0.11242 0.89576 0.97616 0.0
C8 C 0.14475 0.89903 0.88321 0.0
C9 C 0.15603 0.84928 0.07678 0.0
C10 C 0.23306 0.80782 0.08304 0.0
C11 C 0.2642 0.80764 0.99313 0.0
C12 C 0.22048 0.85356 0.89389 0.0
H13 H 0.58107 0.5449 0.78615 0.0
H14 H 0.78368 0.69551 0.60317 0.0
H15 H 0.72355 0.73394 0.87309 0.0
H16 H 0.76666 0.89305 0.7156 0.0
C17 C 0.80831 0.87312 0.66975 0.0
O18 O 0.82394 0.78455 0.72039 0.0
H19 H 0.77408 0.88747 0.59069 0.0
C20 C 0.6303 0.59514 0.77109 0.0
C21 C 0.64492 0.63718 0.83872 0.0
C22 C 0.68016 0.61403 0.68718 0.0
C23 C 0.74442 0.67983 0.668 0.0
C24 C 0.75998 0.72344 0.73548 0.0
C25 C 0.71077 0.70083 0.82148 0.0
H26 H 0.97579 0.07667 0.27418 0.0
H27 H 0.83661 0.28504 0.0233 0.0
H28 H 0.84357 0.26118 0.34171 0.0
H29 H 0.69062 0.29021 0.26739 0.0
C30 C 0.68953 0.322 0.18022 0.0
O31 O 0.77262 0.34312 0.15243 0.0
H32 H 0.66359 0.27442 0.14868 0.0
C33 C 0.93449 0.13243 0.24807 0.0
C34 C 0.90933 0.16068 0.32161 0.0
C35 C 0.91234 0.17871 0.14016 0.0
C36 C 0.85675 0.25015 0.10619 0.0
C37 C 0.83075 0.27879 0.18033 0.0
C38 C 0.8614 0.23673 0.28646 0.0
H39 H 0.44794 0.51138 0.36916 0.0
H40 H 0.27446 0.33898 0.58413 0.0
H41 H 0.35097 0.27892 0.33705 0.0
H42 H 0.15212 0.2502 0.38622 0.0
C43 C 0.16649 0.23108 0.47222 0.0
O44 O 0.25446 0.22911 0.49658 0.0
H45 H 0.13783 0.28052 0.4924 0.0
C46 C 0.40764 0.45352 0.39527 0.0
C47 C 0.40342 0.39958 0.3409 0.0
C48 C 0.36285 0.43226 0.48423 0.0
C49 C 0.31052 0.35664 0.51648 0.0
C50 C 0.30423 0.30246 0.46214 0.0
C51 C 0.35185 0.32336 0.375 0.0
Tb52 Tb 0.06739 0.95474 0.53495 0.0
C53 C 0.9799 0.31065 0.58502 0.0
N54 N 1.02899 0.24118 0.64812 0.0
C55 C 0.1325 0.33645 0.68837 0.0
C56 C 1.0062 0.39634 0.56952 0.0
C57 C 0.1036 0.25253 0.70155 0.0
C58 C 0.08428 0.40878 0.6209 0.0
C59 C 0.84342 0.36423 0.48504 0.0
C60 C 0.89936 0.29491 0.54366 0.0
C61 C 0.87103 0.45021 0.46477 0.0
C62 C 0.95194 0.46613 0.50758 0.0
Tb63 Tb 0.97255 0.10826 0.66616 0.0
N64 N 0.87357 0.21074 0.56807 0.0
C65 C 0.76008 0.34453 0.45319 0.0
C66 C 0.7902 0.19082 0.54514 0.0
C67 C 0.7325 0.25755 0.48596 0.0
H68 H 0.14134 0.19698 0.75353 0.0
H69 H 0.66716 0.24196 0.46484 0.0
H70 H 0.97699 0.75746 0.62204 0.0
H71 H 0.40304 0.05977 0.52153 0.0
H72 H 0.769 0.12358 0.57033 0.0
H73 H 0.71602 0.39587 0.40557 0.0
H74 H 0.2499 0.07875 0.46899 0.0
H75 H 0.19197 0.34533 0.73027 0.0
H76 H 0.82907 0.50453 0.41997 0.0
H77 H 0.97044 0.53229 0.49582 0.0
H78 H 1.02315 0.60665 0.72983 0.0
H79 H 0.10669 0.47362 0.61137 0.0
H80 H 0.45901 0.91515 0.64313 0.0
N81 N 0.10245 0.81269 0.62745 0.0
C82 C 0.18702 0.79722 0.65861 0.0
C83 C 0.06976 0.65972 0.71118 0.0
C84 C 0.21597 0.71205 0.72019 0.0
C85 C 0.04381 0.74551 0.6509 0.0
C86 C 0.1562 0.64292 0.74689 0.0
N87 N 0.21417 0.94875 0.56987 0.0
C88 C 0.27075 0.01646 0.52728 0.0
C89 C 0.33335 0.85288 0.65863 0.0
C90 C 0.24468 0.86725 0.62893 0.0
C91 C 0.39049 0.92359 0.62228 0.0
C92 C 0.3591 1.00537 0.5545 0.0
H93 H 0.17624 0.57642 0.79385 0.0
H94 H 0.32579 0.63378 0.80214 0.0
H95 H 0.42976 0.75628 0.74798 0.0
O96 O 0.1238 0.96209 0.39926 0.0
O97 O 0.08849 0.90823 0.70973 0.0
O98 O 0.08862 0.03219 0.7442 0.0
O99 O 1.00078 0.90206 0.43466 0.0
O100 O 0.10504 0.09335 0.47938 0.0
O101 O 0.10594 0.12103 0.62744 0.0
O102 O 0.94327 0.02456 0.81996 0.0
O103 O 0.94418 0.15388 0.4958 0.0
O104 O 0.94909 0.02827 0.46952 0.0
O105 O 0.91563 0.16068 0.75597 0.0
O106 O 0.88422 1.00725 0.64885 0.0
O107 O 0.95535 0.89799 0.62494 0.0
C108 C 0.09943 0.94756 0.77571 0.0
C109 C 0.07699 0.85872 0.32467 0.0
C110 C 0.11578 0.82681 0.17735 0.0
C111 C 0.09489 0.73868 0.23487 0.0
C112 C 0.05713 0.76987 0.37917 0.0
C113 C 0.06621 0.71068 0.33455 0.0
C114 C 0.10642 0.8872 0.2227 0.0
C115 C 0.12575 0.14324 0.53067 0.0
C116 C 0.05977 0.92238 0.36956 0.0
C117 C 0.30337 0.69848 0.7532 0.0
C118 C 0.36215 0.76839 0.72263 0.0
C119 C 0.93716 0.11236 0.43381 0.0
C120 C 0.96218 0.10119 0.93144 0.0
C121 C 0.9579 0.15657 0.06694 0.0
C122 C 0.04803 0.15643 0.0795 0.0
C123 C 0.05218 0.10063 0.94676 0.0
C124 C 0.91478 0.12954 0.99165 0.0
C125 C 0.09485 0.12841 0.0203 0.0
C126 C 0.89021 0.92719 0.65405 0.0
C127 C 0.91946 0.08909 0.83977 0.0
H128 H 0.10244 0.69072 0.2031 0.0
H129 H 0.03321 0.74596 0.45581 0.0
H130 H 0.0513 0.64242 0.37755 0.0
H131 H 0.12284 0.95525 0.17987 0.0
H132 H 0.08185 0.17776 0.13617 0.0
H133 H 0.0897 0.08151 0.89938 0.0
H134 H 0.84528 0.13115 0.97947 0.0
H135 H 0.16433 0.12876 0.03103 0.0
Tb136 Tb 0.45077 0.45862 0.00448 0.0
C137 C 0.75947 0.68405 0.08761 0.0
N138 N 0.73725 0.59886 0.14067 0.0
C139 C 0.88416 0.55745 0.15885 0.0
C140 C 0.84531 0.70906 0.06673 0.0
C141 C 0.7982 0.53564 0.17744 0.0
C142 C 0.90782 0.64447 0.10297 0.0
C143 C 0.71575 0.83466 0.99421 0.0
C144 C 0.69492 0.74586 0.05068 0.0
C145 C 0.80129 0.85988 0.97399 0.0
C146 C 0.86582 0.7973 0.00979 0.0
Tb147 Tb 0.59632 0.57339 0.17298 0.0
N148 N 0.61213 0.71894 0.06937 0.0
C149 C 0.65011 0.89569 0.96026 0.0
C150 C 0.54946 0.77944 0.04352 0.0
C151 C 0.56683 0.86802 0.98627 0.0
H152 H 0.78127 0.46878 0.22409 0.0
H153 H 0.51633 0.91522 0.96475 0.0
H154 H 0.25264 0.52581 0.99094 0.0
H155 H 0.56107 0.13026 0.11659 0.0
H156 H 0.48694 0.76141 0.07077 0.0
H157 H 0.6635 0.96448 0.9167 0.0
H158 H 0.56169 0.28981 0.01816 0.0
H159 H 0.93222 0.50719 0.18852 0.0
H160 H 0.81802 0.92773 0.93075 0.0
H161 H 0.93134 0.81774 0.99289 0.0
H162 H 0.11753 0.4642 0.07111 0.0
H163 H 0.97444 0.66112 0.08842 0.0
H164 H 0.44468 0.05743 0.2305 0.0
N165 N 0.3201 0.40728 0.06731 0.0
C166 C 0.31406 0.31992 0.12567 0.0
C167 C 0.17275 0.42309 0.08835 0.0
C168 C 0.23831 0.28135 0.17249 0.0
C169 C 0.24957 0.45833 0.04413 0.0
C170 C 0.16752 0.3345 0.15437 0.0
N171 N 0.45534 0.30929 0.0889 0.0
C172 C 0.51366 0.25967 0.07272 0.0
C173 C 0.37947 0.17811 0.19326 0.0
C174 C 0.38467 0.26958 0.13837 0.0
C175 C 0.44626 0.12789 0.18989 0.0
C176 C 0.51223 0.16874 0.12621 0.0
H177 H 0.10801 0.30749 0.18874 0.0
H178 H 0.18005 0.16074 0.27634 0.0
H179 H 0.30173 0.06972 0.28958 0.0
O180 O 0.47748 0.42122 0.88456 0.0
O181 O 0.40968 0.44533 0.15596 0.0
O182 O 0.53414 0.44716 0.25861 0.0
O183 O 0.35481 0.47256 0.88182 0.0
O184 O 0.58749 0.4227 0.05011 0.0
O185 O 0.62424 0.43714 0.20806 0.0
O186 O 0.56133 0.62431 0.27853 0.0
O187 O 0.63924 0.5891 0.02315 0.0
O188 O 0.51442 0.58526 0.92225 0.0
O189 O 0.68452 0.56793 0.29833 0.0
O190 O 0.45948 0.61052 0.12751 0.0
O191 O 0.42059 0.59378 0.97164 0.0
C192 C 0.45262 0.42591 0.2482 0.0
C193 C 0.40093 0.49092 0.71938 0.0
C194 C 0.37659 0.48527 0.54754 0.0
C195 C 0.39195 0.57604 0.49997 0.0
C196 C 0.41989 0.58028 0.67146 0.0
C197 C 0.41427 0.62291 0.56191 0.0
C198 C 0.3807 0.44375 0.6577 0.0
C199 C 0.63376 0.40114 0.14158 0.0
C200 C 0.40265 0.44359 0.83343 0.0
C201 C 0.2361 0.19137 0.23581 0.0
C202 C 0.30602 0.13963 0.24487 0.0
C203 C 0.5961 0.60664 0.93193 0.0
C204 C 0.63074 0.559 0.45033 0.0
C205 C 0.66265 0.56344 0.62171 0.0
C206 C 0.64439 0.47313 0.66927 0.0
C207 C 0.61029 0.46986 0.49855 0.0
C208 C 0.65652 0.60569 0.51178 0.0
C209 C 0.6176 0.42703 0.60783 0.0
C210 C 0.4081 0.62631 0.04031 0.0
C211 C 0.63376 0.6028 0.33675 0.0
H212 H 0.38778 0.61077 0.41515 0.0
H213 H 0.43994 0.61657 0.71852 0.0
H214 H 0.42796 0.69221 0.52496 0.0
H215 H 0.37085 0.37379 0.69656 0.0
H216 H 0.64978 0.43827 0.75415 0.0
H217 H 0.59032 0.43311 0.45187 0.0
H218 H 0.67068 0.67498 0.47389 0.0
H219 H 0.60273 0.35799 0.64496 0.0
loop_
_geom_bond_atom_site_label_1
_geom_bond_atom_site_label_2
_geom_bond_distance
_geom_bond_site_symmetry_2
_ccdc_geom_bond_type
H0 C7 0.929 . S
H1 C10 0.930 . S
H2 C12 0.929 . S
H3 C4 0.969 . S
C4 H3 0.969 . S
C4 O5 1.550 . S
C4 H6 0.973 . S
O5 C4 1.550 . S
O5 C11 1.412 . S
H6 C4 0.973 . S
C7 H0 0.929 . S
C7 C8 1.400 . S
C7 C9 1.364 1_556 S
C8 C7 1.400 . S
C8 C12 1.377 . S
C9 C7 1.364 1_554 S
C9 C10 1.374 . S
C10 H1 0.930 . S
C10 C9 1.374 . S
C10 C11 1.383 . S
C11 O5 1.412 . S
C11 C10 1.383 . S
C11 C12 1.394 1_554 S
C12 H2 0.929 . S
C12 C8 1.377 . S
C12 C11 1.394 1_556 S
H13 C20 0.929 . S
H14 C23 0.930 . S
H15 C25 0.929 . S
H16 C17 0.969 . S
C17 H16 0.969 . S
C17 O18 1.550 . S
C17 H19 0.973 . S
O18 C17 1.550 . S
O18 C24 1.412 . S
H19 C17 0.973 . S
C20 H13 0.929 . S
C20 C21 1.400 . S
C20 C22 1.364 . S
C21 C20 1.400 . S
C21 C25 1.377 . S
C22 C20 1.364 . S
C22 C23 1.374 . S
C23 H14 0.930 . S
C23 C22 1.374 . S
C23 C24 1.383 . S
C24 O18 1.412 . S
C24 C23 1.383 . S
C24 C25 1.394 . S
C25 H15 0.929 . S
C25 C21 1.377 . S
C25 C24 1.394 . S
H26 C33 0.929 . S
H27 C36 0.930 . S
H28 C38 0.929 . S
H29 C30 0.969 . S
C30 H29 0.969 . S
C30 O31 1.550 . S
C30 H32 0.973 . S
O31 C30 1.550 . S
O31 C37 1.412 . S
H32 C30 0.973 . S
C33 H26 0.929 . S
C33 C34 1.400 . S
C33 C35 1.364 . S
C34 C33 1.400 . S
C34 C38 1.377 . S
C35 C33 1.364 . S
C35 C36 1.374 . S
C36 H27 0.930 . S
C36 C35 1.374 . S
C36 C37 1.383 . S
C37 O31 1.412 . S
C37 C36 1.383 . S
C37 C38 1.394 . S
C38 H28 0.929 . S
C38 C34 1.377 . S
C38 C37 1.394 . S
H39 C46 0.929 . S
H40 C49 0.930 . S
H41 C51 0.929 . S
H42 C43 0.969 . S
C43 H42 0.969 . S
C43 O44 1.550 . S
C43 H45 0.973 . S
O44 C43 1.550 . S
O44 C50 1.412 . S
H45 C43 0.973 . S
C46 H39 0.929 . S
C46 C47 1.400 . S
C46 C48 1.364 . S
C47 C46 1.400 . S
C47 C51 1.377 . S
C48 C46 1.364 . S
C48 C49 1.374 . S
C49 H40 0.930 . S
C49 C48 1.374 . S
C49 C50 1.383 . S
C50 O44 1.412 . S
C50 C49 1.383 . S
C50 C51 1.394 . S
C51 H41 0.929 . S
C51 C47 1.377 . S
C51 C50 1.394 . S
Tb52 N81 2.617 . S
Tb52 N87 2.572 . S
Tb52 O96 2.465 . S
Tb52 O97 2.387 . S
Tb52 O99 2.428 . S
Tb52 O100 2.308 1_565 S
Tb52 O104 2.349 1_465 S
Tb52 O107 2.393 1_455 S
Tb52 C116 2.802 . S
C53 N54 1.379 . S
C53 C56 1.416 . S
C53 C60 1.424 . S
N54 C53 1.379 . S
N54 C57 1.334 1_655 S
N54 Tb63 2.617 . S
C55 C57 1.390 1_655 S
C55 C58 1.339 . S
C55 H75 0.930 1_655 S
C56 C53 1.416 . S
C56 C58 1.416 . S
C56 C62 1.448 . S
C57 N54 1.334 1_455 S
C57 C55 1.390 1_455 S
C57 H68 0.930 . S
C58 C55 1.339 . S
C58 C56 1.416 . S
C58 H79 0.930 . S
C59 C60 1.413 . S
C59 C61 1.427 . S
C59 C65 1.416 . S
C60 C53 1.424 . S
C60 C59 1.413 . S
C60 N64 1.361 . S
C61 C59 1.427 . S
C61 C62 1.328 . S
C61 H76 0.929 . S
C62 C56 1.448 . S
C62 C61 1.328 . S
C62 H77 0.930 . S
Tb63 N54 2.617 . S
Tb63 N64 2.572 . S
Tb63 O98 2.349 1_655 S
Tb63 O101 2.393 1_655 S
Tb63 O102 2.465 . S
Tb63 O103 2.387 . S
Tb63 O105 2.428 . S
Tb63 O106 2.308 1_545 S
Tb63 C127 2.802 . S
N64 C60 1.361 . S
N64 Tb63 2.572 . S
N64 C66 1.340 . S
C65 C59 1.416 . S
C65 C67 1.332 . S
C65 H73 0.931 . S
C66 N64 1.340 . S
C66 C67 1.407 . S
C66 H72 0.930 . S
C67 C65 1.332 . S
C67 C66 1.407 . S
C67 H69 0.929 . S
H68 C57 0.930 . S
H69 C67 0.929 . S
H70 C85 0.930 1_655 S
H71 C92 0.929 . S
H72 C66 0.930 . S
H73 C65 0.931 . S
H74 C88 0.930 . S
H75 C55 0.930 1_455 S
H76 C61 0.929 . S
H77 C62 0.930 . S
H78 C83 0.930 1_655 S
H79 C58 0.930 . S
H80 C91 0.931 . S
N81 Tb52 2.617 . S
N81 C82 1.379 . S
N81 C85 1.334 . S
C82 N81 1.379 . S
C82 C84 1.416 . S
C82 C90 1.424 . S
C83 H78 0.930 1_455 S
C83 C85 1.390 . S
C83 C86 1.339 . S
C84 C82 1.416 . S
C84 C86 1.416 . S
C84 C117 1.448 . S
C85 H70 0.930 1_455 S
C85 N81 1.334 . S
C85 C83 1.390 . S
C86 C83 1.339 . S
C86 C84 1.416 . S
C86 H93 0.930 . S
N87 Tb52 2.572 . S
N87 C88 1.340 . S
N87 C90 1.361 . S
C88 H74 0.930 . S
C88 N87 1.340 . S
C88 C92 1.407 . S
C89 C90 1.413 . S
C89 C91 1.416 . S
C89 C118 1.427 . S
C90 C82 1.424 . S
C90 N87 1.361 . S
C90 C89 1.413 . S
C91 H80 0.931 . S
C91 C89 1.416 . S
C91 C92 1.332 . S
C92 H71 0.929 . S
C92 C88 1.407 . S
C92 C91 1.332 . S
H93 C86 0.930 . S
H94 C117 0.930 . S
H95 C118 0.929 . S
O96 Tb52 2.465 . S
O96 C116 1.264 . S
O97 Tb52 2.387 . S
O97 C108 1.264 . S
O98 Tb63 2.349 1_455 S
O98 C108 1.243 1_545 S
O99 Tb52 2.428 . S
O99 C116 1.256 . S
O100 Tb52 2.308 1_545 S
O100 C115 1.266 . S
O101 Tb63 2.393 1_455 S
O101 C115 1.248 . S
O102 Tb63 2.465 . S
O102 C127 1.264 . S
O103 Tb63 2.387 . S
O103 C119 1.264 . S
O104 Tb52 2.349 1_645 S
O104 C119 1.243 . S
O105 Tb63 2.428 . S
O105 C127 1.256 . S
O106 Tb63 2.308 1_565 S
O106 C126 1.266 . S
O107 Tb52 2.393 1_655 S
O107 C126 1.248 . S
C108 O97 1.264 . S
C108 O98 1.243 1_565 S
C109 C112 1.399 . S
C109 C114 1.383 . S
C109 C116 1.496 . S
C110 C111 1.399 . S
C110 C114 1.389 . S
C111 C110 1.399 . S
C111 C113 1.380 . S
C111 H128 0.929 . S
C112 C109 1.399 . S
C112 C113 1.392 . S
C112 H129 0.929 . S
C113 C111 1.380 . S
C113 C112 1.392 . S
C113 H130 0.929 . S
C114 C109 1.383 . S
C114 C110 1.389 . S
C114 H131 0.931 . S
C115 O100 1.266 . S
C115 O101 1.248 . S
C116 Tb52 2.802 . S
C116 O96 1.264 . S
C116 O99 1.256 . S
C116 C109 1.496 . S
C117 C84 1.448 . S
C117 H94 0.930 . S
C117 C118 1.328 . S
C118 C89 1.427 . S
C118 H95 0.929 . S
C118 C117 1.328 . S
C119 O103 1.264 . S
C119 O104 1.243 . S
C120 C123 1.399 . S
C120 C124 1.383 . S
C120 C127 1.496 . S
C121 C122 1.399 . S
C121 C124 1.389 1_554 S
C122 C121 1.399 . S
C122 C125 1.380 . S
C122 H132 0.929 . S
C123 C120 1.399 . S
C123 C125 1.392 1_556 S
C123 H133 0.929 . S
C124 C120 1.383 . S
C124 C121 1.389 1_556 S
C124 H134 0.931 . S
C125 C122 1.380 . S
C125 C123 1.392 1_554 S
C125 H135 0.929 . S
C126 O106 1.266 . S
C126 O107 1.248 . S
C127 Tb63 2.802 . S
C127 O102 1.264 . S
C127 O105 1.256 . S
C127 C120 1.496 . S
H128 C111 0.929 . S
H129 C112 0.929 . S
H130 C113 0.929 . S
H131 C114 0.931 . S
H132 C122 0.929 . S
H133 C123 0.929 . S
H134 C124 0.931 . S
H135 C125 0.929 . S
Tb136 N165 2.616 . S
Tb136 N171 2.571 1_556 S
Tb136 O180 2.474 . S
Tb136 O181 2.377 1_556 S
Tb136 O183 2.436 . S
Tb136 O184 2.306 1_556 S
Tb136 O188 2.353 . S
Tb136 O191 2.389 . S
Tb136 C200 2.812 . S
C137 N138 1.379 . S
C137 C140 1.416 . S
C137 C144 1.424 . S
N138 C137 1.379 . S
N138 C141 1.334 . S
N138 Tb147 2.617 . S
C139 C141 1.390 . S
C139 C142 1.339 . S
C139 H159 0.930 . S
C140 C137 1.416 . S
C140 C142 1.416 . S
C140 C146 1.448 . S
C141 N138 1.334 . S
C141 C139 1.390 . S
C141 H152 0.930 . S
C142 C139 1.339 . S
C142 C140 1.416 . S
C142 H163 0.930 . S
C143 C144 1.413 . S
C143 C145 1.427 . S
C143 C149 1.416 . S
C144 C137 1.424 . S
C144 C143 1.413 . S
C144 N148 1.361 . S
C145 C143 1.427 . S
C145 C146 1.328 . S
C145 H160 0.929 . S
C146 C140 1.448 . S
C146 C145 1.328 . S
C146 H161 0.930 . S
Tb147 N138 2.617 . S
Tb147 N148 2.572 . S
Tb147 O182 2.349 . S
Tb147 O185 2.393 . S
Tb147 O186 2.465 . S
Tb147 O187 2.387 . S
Tb147 O189 2.428 . S
Tb147 O190 2.308 . S
Tb147 C211 2.802 . S
N148 C144 1.361 . S
N148 Tb147 2.572 . S
N148 C150 1.340 . S
C149 C143 1.416 . S
C149 C151 1.332 . S
C149 H157 0.931 . S
C150 N148 1.340 . S
C150 C151 1.407 . S
C150 H156 0.930 . S
C151 C149 1.332 . S
C151 C150 1.407 . S
C151 H153 0.929 . S
H152 C141 0.930 . S
H153 C151 0.929 . S
H154 C169 0.930 . S
H155 C176 0.929 . S
H156 C150 0.930 . S
H157 C149 0.931 . S
H158 C172 0.930 . S
H159 C139 0.930 . S
H160 C145 0.929 . S
H161 C146 0.930 . S
H162 C167 0.930 . S
H163 C142 0.930 . S
H164 C175 0.931 . S
N165 Tb136 2.616 . S
N165 C166 1.379 1_556 S
N165 C169 1.334 . S
C166 N165 1.379 1_554 S
C166 C168 1.416 . S
C166 C174 1.424 . S
C167 H162 0.930 . S
C167 C169 1.390 . S
C167 C170 1.339 1_556 S
C168 C166 1.416 . S
C168 C170 1.416 . S
C168 C201 1.448 . S
C169 H154 0.930 . S
C169 N165 1.334 . S
C169 C167 1.390 . S
C170 C167 1.339 1_554 S
C170 C168 1.416 . S
C170 H177 0.930 . S
N171 Tb136 2.571 1_554 S
N171 C172 1.340 . S
N171 C174 1.361 . S
C172 H158 0.930 . S
C172 N171 1.340 . S
C172 C176 1.407 . S
C173 C174 1.413 . S
C173 C175 1.416 . S
C173 C202 1.427 . S
C174 C166 1.424 . S
C174 N171 1.361 . S
C174 C173 1.413 . S
C175 H164 0.931 . S
C175 C173 1.416 . S
C175 C176 1.332 . S
C176 H155 0.929 . S
C176 C172 1.407 . S
C176 C175 1.332 . S
H177 C170 0.930 . S
H178 C201 0.930 . S
H179 C202 0.929 . S
O180 Tb136 2.474 . S
O180 C200 1.264 . S
O181 Tb136 2.377 1_554 S
O181 C192 1.264 . S
O182 Tb147 2.349 . S
O182 C192 1.243 . S
O183 Tb136 2.436 . S
O183 C200 1.256 . S
O184 Tb136 2.306 1_554 S
O184 C199 1.266 . S
O185 Tb147 2.393 . S
O185 C199 1.248 . S
O186 Tb147 2.465 . S
O186 C211 1.264 . S
O187 Tb147 2.387 . S
O187 C203 1.264 1_554 S
O188 Tb136 2.353 . S
O188 C203 1.243 . S
O189 Tb147 2.428 . S
O189 C211 1.256 . S
O190 Tb147 2.308 . S
O190 C210 1.266 . S
O191 Tb136 2.389 . S
O191 C210 1.248 1_556 S
C192 O181 1.264 . S
C192 O182 1.243 . S
C193 C196 1.399 . S
C193 C198 1.383 . S
C193 C200 1.496 . S
C194 C195 1.399 . S
C194 C198 1.389 . S
C195 C194 1.399 . S
C195 C197 1.380 . S
C195 H212 0.929 . S
C196 C193 1.399 . S
C196 C197 1.392 . S
C196 H213 0.929 . S
C197 C195 1.380 . S
C197 C196 1.392 . S
C197 H214 0.929 . S
C198 C193 1.383 . S
C198 C194 1.389 . S
C198 H215 0.931 . S
C199 O184 1.266 . S
C199 O185 1.248 . S
C200 Tb136 2.812 . S
C200 O180 1.264 . S
C200 O183 1.256 . S
C200 C193 1.496 . S
C201 C168 1.448 . S
C201 H178 0.930 . S
C201 C202 1.328 . S
C202 C173 1.427 . S
C202 H179 0.929 . S
C202 C201 1.328 . S
C203 O187 1.264 1_556 S
C203 O188 1.243 . S
C204 C207 1.399 . S
C204 C208 1.383 . S
C204 C211 1.496 . S
C205 C206 1.399 . S
C205 C208 1.389 . S
C206 C205 1.399 . S
C206 C209 1.380 . S
C206 H216 0.929 . S
C207 C204 1.399 . S
C207 C209 1.392 . S
C207 H217 0.929 . S
C208 C204 1.383 . S
C208 C205 1.389 . S
C208 H218 0.931 . S
C209 C206 1.380 . S
C209 C207 1.392 . S
C209 H219 0.929 . S
C210 O190 1.266 . S
C210 O191 1.248 1_554 S
C211 Tb147 2.802 . S
C211 O186 1.264 . S
C211 O189 1.256 . S
C211 C204 1.496 . S
H212 C195 0.929 . S
H213 C196 0.929 . S
H214 C197 0.929 . S
H215 C198 0.931 . S
H216 C206 0.929 . S
H217 C207 0.929 . S
H218 C208 0.931 . S
H219 C209 0.929 . S
C115 C43 1.518 . S
C4 C210 1.808 . S
C17 C126 1.630 . S
C30 C199 1.951 . S
C110 C9 1.295 . S
C203 C21 1.778 . S
C34 C119 1.841 . S
C48 C194 1.404 . S
C205 C22 1.412 . S
C121 C35 1.302 . S
C192 C47 1.767 . S
C8 C108 1.818 . S
