# Generated by pormake.
# Topology pth, (4,4)-cn, num edge types: 1
# Building blocks:
#     Node 0, Type 0, BuildingBlock: CEKHIL_clean_sbu_0, # of connection points: 4
#     Node 1, Type 0, BuildingBlock: CEKHIL_clean_sbu_0, # of connection points: 4
#     Node 2, Type 0, BuildingBlock: CEKHIL_clean_sbu_0, # of connection points: 4
#     Node 3, Type 1, BuildingBlock: AZAVOO_clean_linker_0, # of connection points: 4
#     Node 4, Type 1, BuildingBlock: AZAVOO_clean_linker_0, # of connection points: 4
#     Node 5, Type 1, BuildingBlock: AZAVOO_clean_linker_0, # of connection points: 4
#     Edge 6, Type (0, 1), None
#     Edge 7, Type (0, 1), None
#     Edge 8, Type (0, 1), None
#     Edge 9, Type (0, 1), None
#     Edge 10, Type (0, 1), None
#     Edge 11, Type (0, 1), None
#     Edge 12, Type (0, 1), None
#     Edge 13, Type (0, 1), None
#     Edge 14, Type (0, 1), None
#     Edge 15, Type (0, 1), None
#     Edge 16, Type (0, 1), None
#     Edge 17, Type (0, 1), None
# Relax obj value: 0.159
# Max RMSD: 0.225
# Mean RMSD: 0.146
data_MOF--net-pth--node1-CEKHIL_clean_sbu_0--node2-AZAVOO_clean_linker_0--edge1-none
_symmetry_space_group_name_H-M    P1
_symmetry_Int_Tables_number       1
_symmetry_cell_setting            triclinic
loop_
_symmetry_equiv_pos_as_xyz
'x, y, z'
_cell_length_a     13.746238
_cell_length_b     14.07755
_cell_length_c     37.743797
_cell_angle_alpha  93.789132
_cell_angle_beta   88.117133
_cell_angle_gamma 120.39429
loop_
_atom_site_label
_atom_site_type_symbol
_atom_site_fract_x
_atom_site_fract_y
_atom_site_fract_z
_atom_type_partial_charge
Co0 Co 0.19609 0.10511 0.11001 0.0
O1 O 0.10351 0.96601 0.12965 0.0
O2 O 0.26943 0.01841 0.10414 0.0
C3 C 0.18141 0.19864 0.15876 0.0
O4 O 0.31403 0.24335 0.08674 0.0
Co5 Co 0.09468 0.25185 0.09814 0.0
O6 O 0.25117 0.36231 0.08631 0.0
C7 C 0.06148 0.07637 0.04376 0.0
C8 C 0.18369 0.94571 0.12179 0.0
C9 C 0.32643 0.33672 0.07943 0.0
O10 O 0.117 0.04758 0.06292 0.0
O11 O 0.03868 0.1516 0.05392 0.0
O12 O 0.25811 0.17102 0.15681 0.0
O13 O 0.11276 0.16542 0.13211 0.0
Co14 Co 0.12552 0.10007 0.41451 0.0
O15 O 0.04161 0.13573 0.383 0.0
O16 O 0.20162 0.25875 0.40892 0.0
C17 C 0.1203 0.95888 0.38041 0.0
O18 O 0.23658 0.09512 0.44716 0.0
Co19 Co 0.01578 0.86574 0.44576 0.0
O20 O 0.17322 0.91924 0.45992 0.0
C21 C 0.99025 0.04496 0.48333 0.0
C22 C 0.12136 0.23813 0.38694 0.0
C23 C 0.24837 0.02128 0.46156 0.0
O24 O 0.04191 0.11216 0.45844 0.0
O25 O 0.96833 0.9449 0.4817 0.0
O26 O 0.19305 0.0604 0.37394 0.0
O27 O 0.04518 0.94614 0.40388 0.0
Co28 Co 0.1749 0.16296 0.75634 0.0
O29 O 0.29413 0.23086 0.72203 0.0
O30 O 0.2642 0.09122 0.7535 0.0
C31 C 0.03565 0.15179 0.7223 0.0
O32 O 0.06066 0.06802 0.79358 0.0
Co33 Co 0.0516 0.27901 0.78866 0.0
O34 O 0.95114 0.13791 0.81135 0.0
C35 C 0.29015 0.36592 0.80604 0.0
C36 C 0.32558 0.16232 0.73035 0.0
C37 C 0.97668 0.0626 0.81152 0.0
O38 O 0.27957 0.27384 0.79364 0.0
O39 O 0.21127 0.38846 0.80386 0.0
O40 O 0.0642 0.07649 0.7188 0.0
O41 O 0.09649 0.23413 0.74427 0.0
H42 H 0.9715 0.35995 0.03368 0.0
H43 H 0.26471 0.28937 0.29491 0.0
H44 H 0.97366 0.3026 0.23282 0.0
H45 H 0.98837 0.17689 0.18795 0.0
H46 H 0.35 0.35543 0.20085 0.0
H47 H 0.33532 0.48464 0.24427 0.0
H48 H 0.96141 0.42254 0.18806 0.0
H49 H 0.93185 0.374 0.12444 0.0
H50 H 0.2903 0.57929 0.10712 0.0
H51 H 0.31954 0.62043 0.17107 0.0
H52 H 0.99839 0.64229 0.18717 0.0
H53 H 0.00642 0.74899 0.13756 0.0
H54 H 0.36673 0.95409 0.15079 0.0
H55 H 0.35912 0.84274 0.19945 0.0
H56 H 0.9899 0.74155 0.26757 0.0
H57 H 0.98637 0.91355 0.27683 0.0
H58 H 0.35102 0.09785 0.27766 0.0
H59 H 0.35316 0.92492 0.26829 0.0
H60 H 0.97411 0.60453 0.3302 0.0
H61 H 0.95454 0.74622 0.36562 0.0
H62 H 0.31588 0.95967 0.36511 0.0
H63 H 0.33532 0.81586 0.33128 0.0
H64 H 0.97357 0.34529 0.299 0.0
H65 H 0.96252 0.21354 0.33997 0.0
H66 H 0.28904 0.45621 0.38259 0.0
H67 H 0.30181 0.58715 0.33997 0.0
O68 O 0.98585 0.37606 0.05893 0.0
O69 O 0.16694 0.49909 0.05097 0.0
O70 O 0.0775 0.12323 0.28475 0.0
O71 O 0.26414 0.22064 0.29027 0.0
C72 C 0.15122 0.50618 0.25053 0.0
C73 C 0.15714 0.56817 0.22171 0.0
C74 C 0.17138 0.67349 0.22789 0.0
C75 C 0.1724 0.71539 0.26267 0.0
C76 C 0.16291 0.65272 0.29205 0.0
C77 C 0.15268 0.54696 0.28615 0.0
C78 C 0.15353 0.40358 0.24147 0.0
C79 C 0.05557 0.3114 0.22731 0.0
C80 C 0.06423 0.24138 0.20108 0.0
C81 C 0.17065 0.26001 0.19013 0.0
C82 C 0.26722 0.34134 0.20841 0.0
C83 C 0.25877 0.41359 0.2338 0.0
C84 C 0.14295 0.52238 0.1843 0.0
C85 C 0.03398 0.45283 0.17063 0.0
C86 C 0.01714 0.42674 0.13419 0.0
C87 C 0.10869 0.47269 0.1106 0.0
C88 C 0.21802 0.54146 0.12448 0.0
C89 C 0.23514 0.56458 0.16105 0.0
C90 C 0.17779 0.73704 0.19732 0.0
C91 C 0.07927 0.70889 0.1789 0.0
C92 C 0.0841 0.7689 0.15042 0.0
C93 C 0.18685 0.85969 0.1406 0.0
C94 C 0.28674 0.88321 0.15749 0.0
C95 C 0.28213 0.82188 0.18579 0.0
C96 C 0.17171 0.82086 0.26783 0.0
C97 C 0.06887 0.81922 0.26978 0.0
C98 C 0.06715 0.91756 0.27501 0.0
C99 C 0.16849 0.01952 0.27819 0.0
C100 C 0.2715 0.02081 0.27552 0.0
C101 C 0.27304 0.92228 0.27015 0.0
C102 C 0.15612 0.69991 0.32776 0.0
C103 C 0.0495 0.67861 0.33979 0.0
C104 C 0.03827 0.76089 0.35922 0.0
C105 C 0.13341 0.86545 0.36642 0.0
C106 C 0.24093 0.88087 0.3588 0.0
C107 C 0.25228 0.79743 0.34036 0.0
C108 C 0.13897 0.47614 0.316 0.0
C109 C 0.04252 0.3709 0.31736 0.0
C110 C 0.03599 0.29556 0.34108 0.0
C111 C 0.12462 0.32392 0.36481 0.0
C112 C 0.2189 0.43155 0.36482 0.0
C113 C 0.22613 0.50681 0.34057 0.0
C114 C 0.08943 0.45037 0.0717 0.0
C115 C 0.16687 0.124 0.28451 0.0
H116 H 0.78929 0.04885 0.36653 0.0
H117 H 0.05209 0.22507 0.62437 0.0
H118 H 0.76505 0.96915 0.58272 0.0
H119 H 0.85436 0.91756 0.53552 0.0
H120 H 0.04929 0.25729 0.5074 0.0
H121 H 0.96271 0.30953 0.55695 0.0
H122 H 0.65221 0.9783 0.51536 0.0
H123 H 0.69585 0.9741 0.45207 0.0
H124 H 0.83429 0.32689 0.45286 0.0
H125 H 0.7913 0.3299 0.51626 0.0
H126 H 0.4445 0.94683 0.54169 0.0
H127 H 0.30442 0.89025 0.49511 0.0
H128 H 0.40884 0.23278 0.48289 0.0
H129 H 0.55087 0.28807 0.52951 0.0
H130 H 0.35587 0.97507 0.6155 0.0
H131 H 0.17337 0.96489 0.62372 0.0
H132 H 0.33661 0.31754 0.61454 0.0
H133 H 0.51836 0.32631 0.60637 0.0
H134 H 0.50469 0.99193 0.6732 0.0
H135 H 0.36303 0.99051 0.7148 0.0
H136 H 0.5152 0.34239 0.7084 0.0
H137 H 0.65835 0.34383 0.66807 0.0
H138 H 0.73287 0.9787 0.64349 0.0
H139 H 0.86484 0.97581 0.68501 0.0
H140 H 0.01073 0.32617 0.70802 0.0
H141 H 0.88199 0.32915 0.66516 0.0
O142 O 0.77464 0.05265 0.39169 0.0
O143 O 0.82844 0.23075 0.39249 0.0
O144 O 0.04289 0.04533 0.62527 0.0
O145 O 0.12352 0.22721 0.62276 0.0
C146 C 0.76143 0.15848 0.58568 0.0
C147 C 0.69154 0.15717 0.55868 0.0
C148 C 0.5893 0.1514 0.56741 0.0
C149 C 0.55914 0.15628 0.60296 0.0
C150 C 0.62969 0.16174 0.63053 0.0
C151 C 0.72963 0.15857 0.62202 0.0
C152 C 0.85672 0.14322 0.57361 0.0
C153 C 0.83318 0.03421 0.56844 0.0
C154 C 0.88181 0.00424 0.54022 0.0
C155 C 0.95435 0.08252 0.51628 0.0
C156 C 0.99044 0.19434 0.52451 0.0
C157 C 0.94355 0.22477 0.55354 0.0
C158 C 0.72056 0.15468 0.52042 0.0
C159 C 0.69305 0.05464 0.50185 0.0
C160 C 0.71771 0.05248 0.46571 0.0
C161 C 0.76874 0.15021 0.44744 0.0
C162 C 0.79515 0.25019 0.46615 0.0
C163 C 0.77092 0.25225 0.50233 0.0
C164 C 0.50556 0.12099 0.53912 0.0
C165 C 0.43707 0.00937 0.52876 0.0
C166 C 0.35788 0.97751 0.50198 0.0
C167 C 0.34511 0.057 0.48534 0.0
C168 C 0.41687 0.16957 0.49509 0.0
C169 C 0.49692 0.20139 0.52189 0.0
C170 C 0.45014 0.15157 0.61079 0.0
C171 C 0.35202 0.0501 0.61574 0.0
C172 C 0.24798 0.04453 0.62027 0.0
C173 C 0.24038 0.14044 0.61967 0.0
C174 C 0.33943 0.24217 0.61514 0.0
C175 C 0.44334 0.24753 0.61056 0.0
C176 C 0.59205 0.16801 0.66747 0.0
C177 C 0.51224 0.06971 0.6827 0.0
C178 C 0.42987 0.06868 0.70591 0.0
C179 C 0.42615 0.16579 0.71371 0.0
C180 C 0.51482 0.26598 0.70216 0.0
C181 C 0.5984 0.26731 0.67975 0.0
C182 C 0.79983 0.15472 0.65046 0.0
C183 C 0.79397 0.05502 0.65723 0.0
C184 C 0.86876 0.05327 0.6812 0.0
C185 C 0.94907 0.15089 0.69951 0.0
C186 C 0.95011 0.24953 0.69425 0.0
C187 C 0.87672 0.25153 0.66975 0.0
C188 C 0.79277 0.14745 0.40892 0.0
C189 C 0.12952 0.13437 0.62288 0.0
H190 H 0.84374 0.95867 0.15961 0.0
H191 H 0.10319 0.96658 0.90283 0.0
H192 H 0.80553 0.95795 0.95195 0.0
H193 H 0.92164 0.09531 0.99804 0.0
H194 H 0.10304 0.92235 0.00987 0.0
H195 H 0.98761 0.78692 0.96332 0.0
H196 H 0.69383 0.84261 0.01171 0.0
H197 H 0.73872 0.90854 0.07381 0.0
H198 H 0.86509 0.68677 0.08556 0.0
H199 H 0.82347 0.62418 0.02275 0.0
H200 H 0.49884 0.63803 0.01071 0.0
H201 H 0.38088 0.54059 0.05999 0.0
H202 H 0.47928 0.29357 0.04384 0.0
H203 H 0.60329 0.39668 0.9951 0.0
H204 H 0.37152 0.5126 0.9356 0.0
H205 H 0.19502 0.33706 0.92573 0.0
H206 H 0.38457 0.16877 0.91036 0.0
H207 H 0.56034 0.34506 0.92003 0.0
H208 H 0.49658 0.67764 0.88059 0.0
H209 H 0.34009 0.56363 0.8401 0.0
H210 H 0.48075 0.35337 0.81485 0.0
H211 H 0.63759 0.46916 0.85531 0.0
H212 H 0.68172 0.86734 0.88995 0.0
H213 H 0.78248 0.01225 0.84832 0.0
H214 H 0.01959 0.89905 0.82768 0.0
H215 H 0.91768 0.7543 0.86974 0.0
O216 O 0.82935 0.93303 0.13486 0.0
O217 O 0.84238 0.78506 0.14338 0.0
O218 O 0.07884 0.12905 0.9105 0.0
O219 O 0.17152 0.0372 0.90655 0.0
C220 C 0.7829 0.75416 0.9463 0.0
C221 C 0.72473 0.68762 0.97501 0.0
C222 C 0.62725 0.58444 0.9687 0.0
C223 C 0.58536 0.54812 0.93397 0.0
C224 C 0.63847 0.61758 0.9054 0.0
C225 C 0.7381 0.72139 0.91146 0.0
C226 C 0.88626 0.86097 0.95493 0.0
C227 C 0.87525 0.95383 0.96275 0.0
C228 C 0.94011 0.0309 0.98986 0.0
C229 C 0.01668 0.0156 0.00911 0.0
C230 C 0.04151 0.93394 0.99656 0.0
C231 C 0.97737 0.85773 0.96927 0.0
C232 C 0.75806 0.73071 0.01247 0.0
C233 C 0.73374 0.81023 0.02748 0.0
C234 C 0.75867 0.84718 0.06303 0.0
C235 C 0.80551 0.80296 0.08459 0.0
C236 C 0.829 0.72243 0.06961 0.0
C237 C 0.80572 0.68683 0.03378 0.0
C238 C 0.55855 0.52375 0.99924 0.0
C239 C 0.49674 0.56409 0.01828 0.0
C240 C 0.42957 0.50824 0.04662 0.0
C241 C 0.41971 0.40863 0.05591 0.0
C242 C 0.48546 0.37043 0.0376 0.0
C243 C 0.55488 0.42805 0.00945 0.0
C244 C 0.4784 0.44131 0.92825 0.0
C245 C 0.37454 0.43766 0.93001 0.0
C246 C 0.274 0.33737 0.92436 0.0
C247 C 0.2757 0.23884 0.91718 0.0
C248 C 0.3802 0.24301 0.9158 0.0
C249 C 0.48069 0.34346 0.92131 0.0
C250 C 0.57917 0.58242 0.87075 0.0
C251 C 0.49699 0.61067 0.86483 0.0
C252 C 0.40598 0.5436 0.84221 0.0
C253 C 0.3956 0.44693 0.82513 0.0
C254 C 0.48469 0.42582 0.82814 0.0
C255 C 0.57596 0.49335 0.85067 0.0
C256 C 0.79143 0.79934 0.88264 0.0
C257 C 0.75408 0.87246 0.87591 0.0
C258 C 0.81252 0.95589 0.85222 0.0
C259 C 0.90988 0.96815 0.83458 0.0
C260 C 0.94496 0.89222 0.8406 0.0
C261 C 0.88663 0.80907 0.86455 0.0
C262 C 0.82726 0.83957 0.1227 0.0
C263 C 0.1692 0.13201 0.91122 0.0
loop_
_geom_bond_atom_site_label_1
_geom_bond_atom_site_label_2
_geom_bond_distance
_geom_bond_site_symmetry_2
_ccdc_geom_bond_type
Co0 O1 2.216 1_545 S
Co0 O2 2.091 . S
Co0 O4 2.004 . S
Co0 O10 2.021 . S
Co0 O12 2.137 . S
Co0 O13 2.244 . S
O1 Co0 2.216 1_565 S
O1 C8 1.247 . S
O2 Co0 2.091 . S
O2 C8 1.261 1_545 S
C3 O12 1.247 . S
C3 O13 1.272 . S
O4 Co0 2.004 . S
O4 C9 1.259 . S
Co5 O6 2.061 . S
Co5 O11 2.052 1_455 S
Co5 O13 2.135 . S
O6 Co5 2.061 . S
O6 C9 1.235 . S
C7 O10 1.238 . S
C7 O11 1.241 1_455 S
C8 O1 1.247 . S
C8 O2 1.261 1_565 S
C9 O4 1.259 . S
C9 O6 1.235 . S
O10 Co0 2.021 . S
O10 C7 1.238 . S
O11 Co5 2.052 1_655 S
O11 C7 1.241 1_655 S
O12 Co0 2.137 . S
O12 C3 1.247 . S
O13 Co0 2.244 . S
O13 C3 1.272 . S
O13 Co5 2.135 . S
Co14 O15 2.216 . S
Co14 O16 2.091 . S
Co14 O18 2.004 . S
Co14 O24 2.021 . S
Co14 O26 2.137 . S
Co14 O27 2.244 1_545 S
O15 Co14 2.216 . S
O15 C22 1.247 . S
O16 Co14 2.091 . S
O16 C22 1.261 . S
C17 O26 1.247 1_565 S
C17 O27 1.272 . S
O18 Co14 2.004 . S
O18 C23 1.259 . S
Co19 O20 2.061 . S
Co19 O25 2.052 1_455 S
Co19 O27 2.135 . S
O20 Co19 2.061 . S
O20 C23 1.235 1_565 S
C21 O24 1.238 . S
C21 O25 1.241 1_445 S
C22 O15 1.247 . S
C22 O16 1.261 . S
C23 O18 1.259 . S
C23 O20 1.235 1_545 S
O24 Co14 2.021 . S
O24 C21 1.238 . S
O25 Co19 2.052 1_655 S
O25 C21 1.241 1_665 S
O26 Co14 2.137 . S
O26 C17 1.247 1_545 S
O27 Co14 2.244 1_565 S
O27 C17 1.272 . S
O27 Co19 2.135 . S
Co28 O29 2.216 . S
Co28 O30 2.091 . S
Co28 O32 2.004 . S
Co28 O38 2.021 . S
Co28 O40 2.137 . S
Co28 O41 2.244 . S
O29 Co28 2.216 . S
O29 C36 1.247 . S
O30 Co28 2.091 . S
O30 C36 1.261 . S
C31 O40 1.247 . S
C31 O41 1.272 . S
O32 Co28 2.004 . S
O32 C37 1.259 . S
Co33 O34 2.061 . S
Co33 O39 2.052 . S
Co33 O41 2.135 . S
O34 Co33 2.061 . S
O34 C37 1.235 . S
C35 O38 1.238 . S
C35 O39 1.241 . S
C36 O29 1.247 . S
C36 O30 1.261 . S
C37 O32 1.259 . S
C37 O34 1.235 . S
O38 Co28 2.021 . S
O38 C35 1.238 . S
O39 Co33 2.052 . S
O39 C35 1.241 . S
O40 Co28 2.137 . S
O40 C31 1.247 . S
O41 Co28 2.244 . S
O41 C31 1.272 . S
O41 Co33 2.135 . S
H42 O68 0.856 . S
H43 O71 0.854 . S
H44 C79 0.930 1_655 S
H45 C80 0.930 . S
H46 C82 0.930 . S
H47 C83 0.930 . S
H48 C85 0.931 1_655 S
H49 C86 0.930 . S
H50 C88 0.930 . S
H51 C89 0.929 . S
H52 C91 0.930 1_655 S
H53 C92 0.931 . S
H54 C94 0.930 . S
H55 C95 0.929 . S
H56 C97 0.931 1_655 S
H57 C98 0.930 1_655 S
H58 C100 0.930 . S
H59 C101 0.932 . S
H60 C103 0.930 . S
H61 C104 0.929 . S
H62 C106 0.931 . S
H63 C107 0.930 . S
H64 C109 0.929 1_655 S
H65 C110 0.931 1_655 S
H66 C112 0.930 . S
H67 C113 0.929 . S
O68 H42 0.856 . S
O68 C114 1.300 . S
O69 C114 1.209 . S
O70 C115 1.199 . S
O71 H43 0.854 . S
O71 C115 1.297 . S
C72 C73 1.404 . S
C72 C77 1.397 . S
C72 C78 1.492 . S
C73 C72 1.404 . S
C73 C74 1.396 . S
C73 C84 1.492 . S
C74 C73 1.396 . S
C74 C75 1.397 . S
C74 C90 1.509 . S
C75 C74 1.397 . S
C75 C76 1.412 . S
C75 C96 1.485 . S
C76 C75 1.412 . S
C76 C77 1.388 . S
C76 C102 1.490 . S
C77 C72 1.397 . S
C77 C76 1.388 . S
C77 C108 1.519 . S
C78 C72 1.492 . S
C78 C79 1.363 . S
C78 C83 1.390 . S
C79 H44 0.930 1_455 S
C79 C78 1.363 . S
C79 C80 1.372 1_455 S
C80 H45 0.930 . S
C80 C79 1.372 1_655 S
C80 C81 1.383 1_655 S
C81 C80 1.383 1_455 S
C81 C82 1.395 . S
C82 H46 0.930 . S
C82 C81 1.395 . S
C82 C83 1.362 . S
C83 H47 0.930 . S
C83 C78 1.390 . S
C83 C82 1.362 . S
C84 C73 1.492 . S
C84 C85 1.377 . S
C84 C89 1.397 . S
C85 H48 0.931 1_455 S
C85 C84 1.377 . S
C85 C86 1.376 . S
C86 H49 0.930 . S
C86 C85 1.376 . S
C86 C87 1.376 . S
C87 C86 1.376 . S
C87 C88 1.378 . S
C87 C114 1.486 . S
C88 H50 0.930 . S
C88 C87 1.378 . S
C88 C89 1.376 . S
C89 H51 0.929 . S
C89 C84 1.397 . S
C89 C88 1.376 . S
C90 C74 1.509 . S
C90 C91 1.391 . S
C90 C95 1.386 . S
C91 H52 0.930 1_455 S
C91 C90 1.391 . S
C91 C92 1.375 . S
C92 H53 0.931 . S
C92 C91 1.375 . S
C92 C93 1.375 . S
C93 C92 1.375 . S
C93 C94 1.361 . S
C94 H54 0.930 . S
C94 C93 1.361 . S
C94 C95 1.399 . S
C95 H55 0.929 . S
C95 C90 1.386 . S
C95 C94 1.399 . S
C96 C75 1.485 . S
C96 C97 1.394 . S
C96 C101 1.360 . S
C97 H56 0.931 1_455 S
C97 C96 1.394 . S
C97 C98 1.372 . S
C98 H57 0.930 1_455 S
C98 C97 1.372 . S
C98 C99 1.397 1_565 S
C99 C98 1.397 1_545 S
C99 C100 1.390 . S
C99 C115 1.476 . S
C100 H58 0.930 . S
C100 C99 1.390 . S
C100 C101 1.366 1_545 S
C101 H59 0.932 . S
C101 C96 1.360 . S
C101 C100 1.366 1_565 S
C102 C76 1.490 . S
C102 C103 1.380 1_455 S
C102 C107 1.386 . S
C103 H60 0.930 . S
C103 C102 1.380 1_655 S
C103 C104 1.381 . S
C104 H61 0.929 . S
C104 C103 1.381 . S
C104 C105 1.371 1_655 S
C105 C104 1.371 1_455 S
C105 C106 1.380 . S
C106 H62 0.931 . S
C106 C105 1.380 . S
C106 C107 1.387 . S
C107 H63 0.930 . S
C107 C102 1.386 . S
C107 C106 1.387 . S
C108 C77 1.519 . S
C108 C109 1.377 . S
C108 C113 1.361 . S
C109 H64 0.929 1_455 S
C109 C108 1.377 . S
C109 C110 1.386 . S
C110 H65 0.931 1_455 S
C110 C109 1.386 . S
C110 C111 1.363 . S
C111 C110 1.363 . S
C111 C112 1.385 . S
C112 H66 0.930 . S
C112 C111 1.385 . S
C112 C113 1.396 . S
C113 H67 0.929 . S
C113 C108 1.361 . S
C113 C112 1.396 . S
C114 O68 1.300 . S
C114 O69 1.209 . S
C114 C87 1.486 . S
C115 O70 1.199 . S
C115 O71 1.297 . S
C115 C99 1.476 . S
H116 O142 0.856 . S
H117 O145 0.854 . S
H118 C153 0.930 1_565 S
H119 C154 0.930 1_565 S
H120 C156 0.930 . S
H121 C157 0.930 . S
H122 C159 0.931 1_565 S
H123 C160 0.930 1_565 S
H124 C162 0.930 . S
H125 C163 0.929 . S
H126 C165 0.930 1_565 S
H127 C166 0.931 . S
H128 C168 0.930 . S
H129 C169 0.929 . S
H130 C171 0.931 . S
H131 C172 0.930 . S
H132 C174 0.930 . S
H133 C175 0.932 . S
H134 C177 0.920 1_565 S
H135 C178 0.929 1_565 S
H136 C180 0.931 . S
H137 C181 0.930 . S
H138 C183 0.929 . S
H139 C184 0.931 . S
H140 C186 0.930 1_455 S
H141 C187 0.929 . S
O142 H116 0.856 . S
O142 C188 1.300 . S
O143 C188 1.209 . S
O144 C189 1.199 . S
O145 H117 0.854 . S
O145 C189 1.297 . S
C146 C147 1.404 . S
C146 C151 1.397 . S
C146 C152 1.492 . S
C147 C146 1.404 . S
C147 C148 1.396 . S
C147 C158 1.492 . S
C148 C147 1.396 . S
C148 C149 1.397 . S
C148 C164 1.509 . S
C149 C148 1.397 . S
C149 C150 1.412 . S
C149 C170 1.485 . S
C150 C149 1.412 . S
C150 C151 1.388 . S
C150 C176 1.490 . S
C151 C146 1.397 . S
C151 C150 1.388 . S
C151 C182 1.519 . S
C152 C146 1.492 . S
C152 C153 1.363 . S
C152 C157 1.390 . S
C153 H118 0.930 1_545 S
C153 C152 1.363 . S
C153 C154 1.372 . S
C154 H119 0.930 1_545 S
C154 C153 1.372 . S
C154 C155 1.383 1_655 S
C155 C154 1.383 1_455 S
C155 C156 1.395 . S
C156 H120 0.930 . S
C156 C155 1.395 . S
C156 C157 1.362 1_455 S
C157 H121 0.930 . S
C157 C152 1.390 . S
C157 C156 1.362 1_655 S
C158 C147 1.492 . S
C158 C159 1.377 . S
C158 C163 1.397 . S
C159 H122 0.931 1_545 S
C159 C158 1.377 . S
C159 C160 1.376 . S
C160 H123 0.930 1_545 S
C160 C159 1.376 . S
C160 C161 1.376 . S
C161 C160 1.376 . S
C161 C162 1.378 . S
C161 C188 1.486 . S
C162 H124 0.930 . S
C162 C161 1.378 . S
C162 C163 1.376 . S
C163 H125 0.929 . S
C163 C158 1.397 . S
C163 C162 1.376 . S
C164 C148 1.509 . S
C164 C165 1.391 . S
C164 C169 1.386 . S
C165 H126 0.930 1_545 S
C165 C164 1.391 . S
C165 C166 1.375 . S
C166 H127 0.931 . S
C166 C165 1.375 . S
C166 C167 1.375 . S
C167 C166 1.375 . S
C167 C168 1.361 . S
C168 H128 0.930 . S
C168 C167 1.361 . S
C168 C169 1.399 . S
C169 H129 0.929 . S
C169 C164 1.386 . S
C169 C168 1.399 . S
C170 C149 1.485 . S
C170 C171 1.394 . S
C170 C175 1.360 . S
C171 H130 0.931 . S
C171 C170 1.394 . S
C171 C172 1.372 . S
C172 H131 0.930 . S
C172 C171 1.372 . S
C172 C173 1.397 . S
C173 C172 1.397 . S
C173 C174 1.390 . S
C173 C189 1.476 . S
C174 H132 0.930 . S
C174 C173 1.390 . S
C174 C175 1.366 . S
C175 H133 0.932 . S
C175 C170 1.360 . S
C175 C174 1.366 . S
C176 C150 1.490 . S
C176 C177 1.380 . S
C176 C181 1.386 . S
C177 H134 0.920 1_545 S
C177 C176 1.380 . S
C177 C178 1.381 . S
C178 H135 0.929 1_545 S
C178 C177 1.381 . S
C178 C179 1.371 . S
C179 C178 1.371 . S
C179 C180 1.380 . S
C180 H136 0.931 . S
C180 C179 1.380 . S
C180 C181 1.387 . S
C181 H137 0.930 . S
C181 C176 1.386 . S
C181 C180 1.387 . S
C182 C151 1.519 . S
C182 C183 1.377 . S
C182 C187 1.361 . S
C183 H138 0.929 . S
C183 C182 1.377 . S
C183 C184 1.386 . S
C184 H139 0.931 . S
C184 C183 1.386 . S
C184 C185 1.363 . S
C185 C184 1.363 . S
C185 C186 1.385 . S
C186 H140 0.930 1_655 S
C186 C185 1.385 . S
C186 C187 1.396 . S
C187 H141 0.929 . S
C187 C182 1.361 . S
C187 C186 1.396 . S
C188 O142 1.300 . S
C188 O143 1.209 . S
C188 C161 1.486 . S
C189 O144 1.199 . S
C189 O145 1.297 . S
C189 C173 1.476 . S
H190 O216 0.856 . S
H191 O219 0.854 1_565 S
H192 C227 0.930 . S
H193 C228 0.930 1_554 S
H194 C230 0.930 . S
H195 C231 0.930 . S
H196 C233 0.931 . S
H197 C234 0.930 . S
H198 C236 0.930 . S
H199 C237 0.929 . S
H200 C239 0.930 1_556 S
H201 C240 0.931 . S
H202 C242 0.930 . S
H203 C243 0.929 . S
H204 C245 0.931 . S
H205 C246 0.930 . S
H206 C248 0.930 . S
H207 C249 0.932 . S
H208 C251 0.930 . S
H209 C252 0.929 . S
H210 C254 0.931 . S
H211 C255 0.930 . S
H212 C257 0.929 . S
H213 C258 0.931 1_545 S
H214 C260 0.930 . S
H215 C261 0.929 . S
O216 H190 0.856 . S
O216 C262 1.300 . S
O217 C262 1.209 . S
O218 C263 1.199 . S
O219 H191 0.854 1_545 S
O219 C263 1.297 . S
C220 C221 1.404 . S
C220 C225 1.397 . S
C220 C226 1.492 . S
C221 C220 1.404 . S
C221 C222 1.396 . S
C221 C232 1.492 1_556 S
C222 C221 1.396 . S
C222 C223 1.397 . S
C222 C238 1.533 . S
C223 C222 1.397 . S
C223 C224 1.412 . S
C223 C244 1.485 . S
C224 C223 1.412 . S
C224 C225 1.388 . S
C224 C250 1.490 . S
C225 C220 1.397 . S
C225 C224 1.388 . S
C225 C256 1.519 . S
C226 C220 1.492 . S
C226 C227 1.363 . S
C226 C231 1.390 . S
C227 H192 0.930 . S
C227 C226 1.363 . S
C227 C228 1.372 1_565 S
C228 H193 0.930 1_556 S
C228 C227 1.372 1_545 S
C228 C229 1.383 1_655 S
C229 C228 1.383 1_455 S
C229 C230 1.395 1_545 S
C230 H194 0.930 . S
C230 C229 1.395 1_565 S
C230 C231 1.362 1_455 S
C231 H195 0.930 . S
C231 C226 1.390 . S
C231 C230 1.362 1_655 S
C232 C221 1.492 1_554 S
C232 C233 1.377 . S
C232 C237 1.397 . S
C233 H196 0.931 . S
C233 C232 1.377 . S
C233 C234 1.376 . S
C234 H197 0.930 . S
C234 C233 1.376 . S
C234 C235 1.376 . S
C235 C234 1.376 . S
C235 C236 1.378 . S
C235 C262 1.486 . S
C236 H198 0.930 . S
C236 C235 1.378 . S
C236 C237 1.376 . S
C237 H199 0.929 . S
C237 C232 1.397 . S
C237 C236 1.376 . S
C238 C222 1.533 . S
C238 C239 1.384 1_556 S
C238 C243 1.370 1_556 S
C239 H200 0.930 1_554 S
C239 C238 1.384 1_554 S
C239 C240 1.375 . S
C240 H201 0.931 . S
C240 C239 1.375 . S
C240 C241 1.375 . S
C241 C240 1.375 . S
C241 C242 1.361 . S
C242 H202 0.930 . S
C242 C241 1.361 . S
C242 C243 1.399 . S
C243 H203 0.929 . S
C243 C238 1.370 1_554 S
C243 C242 1.399 . S
C244 C223 1.485 . S
C244 C245 1.394 . S
C244 C249 1.360 . S
C245 H204 0.931 . S
C245 C244 1.394 . S
C245 C246 1.372 . S
C246 H205 0.930 . S
C246 C245 1.372 . S
C246 C247 1.397 . S
C247 C246 1.397 . S
C247 C248 1.390 . S
C247 C263 1.476 . S
C248 H206 0.930 . S
C248 C247 1.390 . S
C248 C249 1.366 . S
C249 H207 0.932 . S
C249 C244 1.360 . S
C249 C248 1.366 . S
C250 C224 1.490 . S
C250 C251 1.380 . S
C250 C255 1.386 . S
C251 H208 0.930 . S
C251 C250 1.380 . S
C251 C252 1.381 . S
C252 H209 0.929 . S
C252 C251 1.381 . S
C252 C253 1.371 . S
C253 C252 1.371 . S
C253 C254 1.380 . S
C254 H210 0.931 . S
C254 C253 1.380 . S
C254 C255 1.387 . S
C255 H211 0.930 . S
C255 C250 1.386 . S
C255 C254 1.387 . S
C256 C225 1.519 . S
C256 C257 1.377 . S
C256 C261 1.361 . S
C257 H212 0.929 . S
C257 C256 1.377 . S
C257 C258 1.386 . S
C258 H213 0.931 1_565 S
C258 C257 1.386 . S
C258 C259 1.363 . S
C259 C258 1.363 . S
C259 C260 1.385 . S
C260 H214 0.930 . S
C260 C259 1.385 . S
C260 C261 1.396 . S
C261 H215 0.929 . S
C261 C256 1.361 . S
C261 C260 1.396 . S
C262 O216 1.300 . S
C262 O217 1.209 . S
C262 C235 1.486 . S
C263 O218 1.199 . S
C263 O219 1.297 . S
C263 C247 1.476 . S
C81 C3 2.286 . S
C21 C155 2.184 . S
C37 C259 2.430 1_445 S
C8 C93 0.669 . S
C167 C23 1.106 . S
C35 C253 2.629 . S
C185 C31 2.460 1_655 S
C7 C229 2.141 1_554 S
C105 C17 2.655 . S
C179 C36 2.407 . S
C241 C9 0.662 . S
C22 C111 2.486 . S
