# Generated by pormake.
# Topology tsx, (6,3)-cn, num edge types: 1
# Building blocks:
#     Node 0, Type 0, BuildingBlock: VOLQOD_clean_sbu_1, # of connection points: 6
#     Node 1, Type 0, BuildingBlock: VOLQOD_clean_sbu_1, # of connection points: 6
#     Node 2, Type 1, BuildingBlock: BETDAH_clean_linker_0, # of connection points: 3
#     Node 3, Type 1, BuildingBlock: BETDAH_clean_linker_0, # of connection points: 3
#     Node 4, Type 1, BuildingBlock: BETDAH_clean_linker_0, # of connection points: 3
#     Node 5, Type 1, BuildingBlock: BETDAH_clean_linker_0, # of connection points: 3
#     Edge 6, Type (0, 1), BuildingBlock: EYOCIG_clean_linker_4, # of connection points: 2
#     Edge 7, Type (0, 1), BuildingBlock: EYOCIG_clean_linker_4, # of connection points: 2
#     Edge 8, Type (0, 1), BuildingBlock: EYOCIG_clean_linker_4, # of connection points: 2
#     Edge 9, Type (0, 1), BuildingBlock: EYOCIG_clean_linker_4, # of connection points: 2
#     Edge 10, Type (0, 1), BuildingBlock: EYOCIG_clean_linker_4, # of connection points: 2
#     Edge 11, Type (0, 1), BuildingBlock: EYOCIG_clean_linker_4, # of connection points: 2
#     Edge 12, Type (0, 1), BuildingBlock: EYOCIG_clean_linker_4, # of connection points: 2
#     Edge 13, Type (0, 1), BuildingBlock: EYOCIG_clean_linker_4, # of connection points: 2
#     Edge 14, Type (0, 1), BuildingBlock: EYOCIG_clean_linker_4, # of connection points: 2
#     Edge 15, Type (0, 1), BuildingBlock: EYOCIG_clean_linker_4, # of connection points: 2
#     Edge 16, Type (0, 1), BuildingBlock: EYOCIG_clean_linker_4, # of connection points: 2
#     Edge 17, Type (0, 1), BuildingBlock: EYOCIG_clean_linker_4, # of connection points: 2
# Relax obj value: 0.054
# Max RMSD: 0.109
# Mean RMSD: 0.099
data_MOF--net-tsx--node1-VOLQOD_clean_sbu_1--node2-BETDAH_clean_linker_0--edge1-EYOCIG_clean_linker_4
_symmetry_space_group_name_H-M    P1
_symmetry_Int_Tables_number       1
_symmetry_cell_setting            triclinic
loop_
_symmetry_equiv_pos_as_xyz
'x, y, z'
_cell_length_a     17.140859
_cell_length_b     17.785254
_cell_length_c     29.987609
_cell_angle_alpha  90.225
_cell_angle_beta   97.968667
_cell_angle_gamma 90.029653
loop_
_atom_site_label
_atom_site_type_symbol
_atom_site_fract_x
_atom_site_fract_y
_atom_site_fract_z
_atom_type_partial_charge
O0 O 0.06807 0.9747 0.1039 0.0
Zn1 Zn 0.0924 0.98668 0.03977 0.0
O2 O -0.00439 -0.0004 -0.00215 0.0
Zn3 Zn 0.97613 0.91185 0.95877 0.0
Zn4 Zn 0.90867 0.0136 0.03228 0.0
Zn5 Zn 0.00422 0.08747 0.9606 0.0
O6 O 0.95979 0.9421 0.8928 0.0
O7 O 0.01116 0.05755 0.89656 0.0
O8 O 0.15701 0.8998 0.01984 0.0
O9 O 0.07389 0.8482 0.96439 0.0
O10 O 0.88595 0.84869 0.97662 0.0
O11 O 0.84118 0.92128 0.0282 0.0
O12 O 0.84071 0.10193 0.00988 0.0
O13 O 0.15814 0.08085 0.04095 0.0
O14 O 0.9076 0.15165 0.95864 0.0
O15 O 0.09732 0.15115 0.98541 0.0
C16 C 0.00984 -0.00015 0.12172 0.0
C17 C 0.98486 -0.0001 0.87408 0.0
C18 C 0.83902 0.86082 0.00538 0.0
C19 C 0.14061 0.85058 0.98891 0.0
C20 C 0.84859 0.1509 0.98002 0.0
C21 C 0.15263 0.14072 0.01768 0.0
O22 O 0.94782 0.02468 0.09821 0.0
O23 O 0.56949 0.47642 0.60403 0.0
Zn24 Zn 0.59307 0.487 0.53954 0.0
O25 O 0.49601 0.50035 0.49795 0.0
Zn26 Zn 0.47532 0.4128 0.45885 0.0
Zn27 Zn 0.40985 0.51482 0.53285 0.0
Zn28 Zn 0.50438 0.58792 0.4605 0.0
O29 O 0.45731 0.44302 0.39281 0.0
O30 O 0.51055 0.55768 0.39645 0.0
O31 O 0.65658 0.39934 0.51936 0.0
O32 O 0.57289 0.34915 0.46366 0.0
O33 O 0.38627 0.34948 0.47784 0.0
O34 O 0.34328 0.42201 0.53006 0.0
O35 O 0.34104 0.60221 0.50992 0.0
O36 O 0.65947 0.58063 0.53997 0.0
O37 O 0.40781 0.65213 0.45868 0.0
O38 O 0.59793 0.65133 0.48482 0.0
C39 C 0.51194 0.5028 0.62199 0.0
C40 C 0.48303 0.50044 0.374 0.0
C41 C 0.34068 0.36143 0.50733 0.0
C42 C 0.63967 0.35073 0.48812 0.0
C43 C 0.34872 0.65113 0.48 0.0
C44 C 0.65383 0.64053 0.51671 0.0
O45 O 0.44994 0.52785 0.59855 0.0
H46 H 0.10759 0.89962 0.34057 0.0
H47 H 0.9237 0.05765 0.35885 0.0
H48 H 0.038 0.93008 0.47121 0.0
C49 C 0.07093 0.92759 0.36231 0.0
C50 C 0.07904 0.90957 0.40796 0.0
C51 C 0.01507 0.98081 0.34446 0.0
C52 C 0.96741 0.01701 0.37273 0.0
C53 C 0.97575 -0.00152 0.41888 0.0
C54 C 0.03148 0.94467 0.4359 0.0
N55 N 0.92839 0.02991 0.44945 0.0
C56 C 0.88087 0.09323 0.44284 0.0
H57 H 0.88581 0.90097 0.65546 0.0
H58 H 0.06839 0.0597 0.6361 0.0
H59 H 0.95169 0.93139 0.52406 0.0
C60 C 0.92149 0.92927 0.63343 0.0
C61 C 0.91242 0.91088 0.58771 0.0
C62 C 0.97762 0.98276 0.65103 0.0
C63 C 0.02429 0.01905 0.6224 0.0
C64 C 0.01476 0.00038 0.57617 0.0
C65 C 0.95885 0.94631 0.55941 0.0
N66 N 0.06151 0.03152 0.54533 0.0
C67 C 0.10906 0.09494 0.55185 0.0
H68 H 0.61 0.40255 0.84073 0.0
H69 H 0.42476 0.55896 0.85929 0.0
H70 H 0.53696 0.42836 0.97087 0.0
C71 C 0.57272 0.42969 0.86245 0.0
C72 C 0.57989 0.41031 0.90789 0.0
C73 C 0.51689 0.4831 0.84475 0.0
C74 C 0.46848 0.51822 0.87304 0.0
C75 C 0.47584 0.49827 0.91896 0.0
C76 C 0.53136 0.44416 0.93576 0.0
N77 N 0.42742 0.52826 0.94941 0.0
C78 C 0.38147 0.59271 0.94368 0.0
H79 H 0.3839 0.40355 0.1558 0.0
H80 H 0.56792 0.56026 0.13569 0.0
H81 H 0.45123 0.43012 0.02444 0.0
C82 C 0.41992 0.43109 0.13364 0.0
C83 C 0.41105 0.4117 0.08808 0.0
C84 C 0.47641 0.48441 0.15099 0.0
C85 C 0.5235 0.51977 0.1222 0.0
C86 C 0.51416 0.50009 0.0761 0.0
C87 C 0.45807 0.44597 0.05965 0.0
N88 N 0.56156 0.52993 0.04518 0.0
C89 C 0.60734 0.59462 0.05064 0.0
C90 C 0.25511 0.24923 0.04109 0.0
C91 C 0.20791 0.20017 0.03002 0.0
C92 C 0.30918 0.30654 0.05633 0.0
C93 C 0.35567 0.35449 0.07067 0.0
C94 C 0.24622 0.75318 0.96784 0.0
C95 C 0.20028 0.7988 0.97887 0.0
C96 C 0.29024 0.70612 0.95639 0.0
C97 C 0.34006 0.64704 0.94601 0.0
C98 C 0.74081 0.75623 0.02632 0.0
C99 C 0.78639 0.80248 0.01575 0.0
C100 C 0.6973 0.70873 0.03765 0.0
C101 C 0.64826 0.64923 0.04814 0.0
C102 C 0.73932 0.25309 0.95719 0.0
C103 C 0.78785 0.20553 0.96862 0.0
C104 C 0.68355 0.30816 0.94107 0.0
C105 C 0.63628 0.35472 0.92601 0.0
C106 C 0.75699 0.74857 0.53981 0.0
C107 C 0.70943 0.69977 0.52885 0.0
C108 C 0.81108 0.80573 0.55526 0.0
C109 C 0.85733 0.85368 0.56992 0.0
C110 C 0.74427 0.25291 0.46628 0.0
C111 C 0.6988 0.29868 0.47765 0.0
C112 C 0.78812 0.20582 0.45468 0.0
C113 C 0.83843 0.14696 0.44456 0.0
C114 C 0.24404 0.25633 0.52939 0.0
C115 C 0.28882 0.30295 0.51839 0.0
C116 C 0.19367 0.20005 0.54256 0.0
C117 C 0.15125 0.14879 0.55001 0.0
C118 C 0.23895 0.75278 0.45715 0.0
C119 C 0.28777 0.70549 0.46854 0.0
C120 C 0.18291 0.80768 0.44119 0.0
C121 C 0.13548 0.85415 0.4262 0.0
C122 C 0.01114 0.00075 0.20991 0.0
C123 C 0.01281 -0.00059 0.16982 0.0
C124 C 0.00745 0.00038 0.2567 0.0
C125 C 0.00679 -0.00481 0.29676 0.0
C126 C 0.98718 0.00143 0.78612 0.0
C127 C 0.98569 -0.00023 0.82622 0.0
C128 C 0.9891 0.00158 0.73913 0.0
C129 C 0.98791 -0.00331 0.69889 0.0
C130 C 0.51392 0.50485 0.71029 0.0
C131 C 0.5153 0.50295 0.67016 0.0
C132 C 0.51018 0.50432 0.75712 0.0
C133 C 0.50909 0.49838 0.79712 0.0
C134 C 0.48505 0.50254 0.286 0.0
C135 C 0.48353 0.5003 0.3261 0.0
C136 C 0.4875 0.50339 0.23906 0.0
C137 C 0.4868 0.49868 0.19883 0.0
loop_
_geom_bond_atom_site_label_1
_geom_bond_atom_site_label_2
_geom_bond_distance
_geom_bond_site_symmetry_2
_ccdc_geom_bond_type
O0 Zn1 1.953 . S
O0 C16 1.225 1_565 S
Zn1 O0 1.953 . S
Zn1 O2 1.949 1_565 S
Zn1 O8 1.919 . S
Zn1 O13 1.924 1_565 S
O2 Zn1 1.949 1_545 S
O2 Zn3 1.923 1_444 S
O2 Zn4 1.950 1_455 S
O2 Zn5 1.945 1_554 S
Zn3 O2 1.923 1_666 S
Zn3 O6 1.933 . S
Zn3 O9 1.941 1_655 S
Zn3 O10 1.965 . S
Zn4 O2 1.950 1_655 S
Zn4 O11 1.938 1_545 S
Zn4 O12 1.906 . S
Zn4 O22 1.953 . S
Zn5 O2 1.945 1_556 S
Zn5 O7 1.932 . S
Zn5 O14 1.977 1_455 S
Zn5 O15 1.910 . S
O6 Zn3 1.933 . S
O6 C17 1.226 1_565 S
O7 Zn5 1.932 . S
O7 C17 1.307 1_455 S
O8 Zn1 1.919 . S
O8 C19 1.253 1_554 S
O9 Zn3 1.941 1_455 S
O9 C19 1.283 . S
O10 Zn3 1.965 . S
O10 C18 1.303 1_556 S
O11 Zn4 1.938 1_565 S
O11 C18 1.247 . S
O12 Zn4 1.906 . S
O12 C20 1.304 1_554 S
O13 Zn1 1.924 1_545 S
O13 C21 1.311 . S
O14 Zn5 1.977 1_655 S
O14 C20 1.272 . S
O15 Zn5 1.910 . S
O15 C21 1.231 1_556 S
C16 O0 1.225 1_545 S
C16 O22 1.298 1_455 S
C17 O6 1.226 1_545 S
C17 O7 1.307 1_655 S
C18 O10 1.303 1_554 S
C18 O11 1.247 . S
C19 O8 1.253 1_556 S
C19 O9 1.283 . S
C20 O12 1.304 1_556 S
C20 O14 1.272 . S
C21 O13 1.311 . S
C21 O15 1.231 1_554 S
O22 Zn4 1.953 . S
O22 C16 1.298 1_655 S
O23 Zn24 1.953 . S
O23 C39 1.225 . S
Zn24 O23 1.953 . S
Zn24 O25 1.949 . S
Zn24 O31 1.919 . S
Zn24 O36 1.924 . S
O25 Zn24 1.949 . S
O25 Zn26 1.923 . S
O25 Zn27 1.950 . S
O25 Zn28 1.945 . S
Zn26 O25 1.923 . S
Zn26 O29 1.933 . S
Zn26 O32 1.941 . S
Zn26 O33 1.965 . S
Zn27 O25 1.950 . S
Zn27 O34 1.938 . S
Zn27 O35 1.906 . S
Zn27 O45 1.953 . S
Zn28 O25 1.945 . S
Zn28 O30 1.932 . S
Zn28 O37 1.977 . S
Zn28 O38 1.910 . S
O29 Zn26 1.933 . S
O29 C40 1.226 . S
O30 Zn28 1.932 . S
O30 C40 1.307 . S
O31 Zn24 1.919 . S
O31 C42 1.253 . S
O32 Zn26 1.941 . S
O32 C42 1.283 . S
O33 Zn26 1.965 . S
O33 C41 1.303 . S
O34 Zn27 1.938 . S
O34 C41 1.247 . S
O35 Zn27 1.906 . S
O35 C43 1.304 . S
O36 Zn24 1.924 . S
O36 C44 1.311 . S
O37 Zn28 1.977 . S
O37 C43 1.272 . S
O38 Zn28 1.910 . S
O38 C44 1.231 . S
C39 O23 1.225 . S
C39 O45 1.298 . S
C40 O29 1.226 . S
C40 O30 1.307 . S
C41 O33 1.303 . S
C41 O34 1.247 . S
C42 O31 1.253 . S
C42 O32 1.283 . S
C43 O35 1.304 . S
C43 O37 1.272 . S
C44 O36 1.311 . S
C44 O38 1.231 . S
O45 Zn27 1.953 . S
O45 C39 1.298 . S
H46 C49 0.929 . S
H47 C52 0.929 . S
H48 C54 0.930 . S
C49 H46 0.929 . S
C49 C50 1.398 . S
C49 C51 1.396 . S
C50 C49 1.398 . S
C50 C54 1.407 . S
C51 C49 1.396 . S
C51 C52 1.394 1_465 S
C52 H47 0.929 . S
C52 C51 1.394 1_645 S
C52 C53 1.382 . S
C53 C52 1.382 . S
C53 C54 1.392 1_645 S
C53 N55 1.420 . S
C54 H48 0.930 . S
C54 C50 1.407 . S
C54 C53 1.392 1_465 S
N55 C53 1.420 . S
N55 C56 1.244 . S
C56 N55 1.244 . S
H57 C60 0.929 . S
H58 C63 0.929 . S
H59 C65 0.930 . S
C60 H57 0.929 . S
C60 C61 1.398 . S
C60 C62 1.396 . S
C61 C60 1.398 . S
C61 C65 1.407 . S
C62 C60 1.396 . S
C62 C63 1.394 1_665 S
C63 H58 0.929 . S
C63 C62 1.394 1_445 S
C63 C64 1.382 . S
C64 C63 1.382 . S
C64 C65 1.392 1_445 S
C64 N66 1.420 . S
C65 H59 0.930 . S
C65 C61 1.407 . S
C65 C64 1.392 1_665 S
N66 C64 1.420 . S
N66 C67 1.244 . S
C67 N66 1.244 . S
H68 C71 0.929 . S
H69 C74 0.929 . S
H70 C76 0.930 . S
C71 H68 0.929 . S
C71 C72 1.398 . S
C71 C73 1.396 . S
C72 C71 1.398 . S
C72 C76 1.407 . S
C73 C71 1.396 . S
C73 C74 1.394 . S
C74 H69 0.929 . S
C74 C73 1.394 . S
C74 C75 1.382 . S
C75 C74 1.382 . S
C75 C76 1.392 . S
C75 N77 1.420 . S
C76 H70 0.930 . S
C76 C72 1.407 . S
C76 C75 1.392 . S
N77 C75 1.420 . S
N77 C78 1.244 . S
C78 N77 1.244 . S
H79 C82 0.929 . S
H80 C85 0.929 . S
H81 C87 0.930 . S
C82 H79 0.929 . S
C82 C83 1.398 . S
C82 C84 1.396 . S
C83 C82 1.398 . S
C83 C87 1.407 . S
C84 C82 1.396 . S
C84 C85 1.394 . S
C85 H80 0.929 . S
C85 C84 1.394 . S
C85 C86 1.382 . S
C86 C85 1.382 . S
C86 C87 1.392 . S
C86 N88 1.420 . S
C87 H81 0.930 . S
C87 C83 1.407 . S
C87 C86 1.392 . S
N88 C86 1.420 . S
N88 C89 1.244 . S
C89 N88 1.244 . S
C90 C91 1.170 . S
C90 C92 1.380 . S
C91 C90 1.170 . S
C92 C90 1.380 . S
C92 C93 1.170 . S
C93 C92 1.170 . S
C94 C95 1.170 . S
C94 C96 1.380 . S
C95 C94 1.170 . S
C96 C94 1.380 . S
C96 C97 1.170 . S
C97 C96 1.170 . S
C98 C99 1.170 . S
C98 C100 1.380 . S
C99 C98 1.170 . S
C100 C98 1.380 . S
C100 C101 1.170 . S
C101 C100 1.170 . S
C102 C103 1.170 . S
C102 C104 1.380 . S
C103 C102 1.170 . S
C104 C102 1.380 . S
C104 C105 1.170 . S
C105 C104 1.170 . S
C106 C107 1.170 . S
C106 C108 1.380 . S
C107 C106 1.170 . S
C108 C106 1.380 . S
C108 C109 1.170 . S
C109 C108 1.170 . S
C110 C111 1.170 . S
C110 C112 1.380 . S
C111 C110 1.170 . S
C112 C110 1.380 . S
C112 C113 1.170 . S
C113 C112 1.170 . S
C114 C115 1.170 . S
C114 C116 1.380 . S
C115 C114 1.170 . S
C116 C114 1.380 . S
C116 C117 1.170 . S
C117 C116 1.170 . S
C118 C119 1.170 . S
C118 C120 1.380 . S
C119 C118 1.170 . S
C120 C118 1.380 . S
C120 C121 1.170 . S
C121 C120 1.170 . S
C122 C123 1.169 1_565 S
C122 C124 1.380 . S
C123 C122 1.169 1_545 S
C124 C122 1.380 . S
C124 C125 1.170 . S
C125 C124 1.170 . S
C126 C127 1.170 1_565 S
C126 C128 1.380 . S
C127 C126 1.170 1_545 S
C128 C126 1.380 . S
C128 C129 1.170 . S
C129 C128 1.170 . S
C130 C131 1.170 . S
C130 C132 1.380 . S
C131 C130 1.170 . S
C132 C130 1.380 . S
C132 C133 1.170 . S
C133 C132 1.170 . S
C134 C135 1.170 . S
C134 C136 1.380 . S
C135 C134 1.170 . S
C136 C134 1.380 . S
C136 C137 1.170 . S
C137 C136 1.170 . S
C93 C83 1.500 . S
C91 C21 1.518 . S
C95 C19 1.434 . S
C97 C78 1.417 . S
C99 C18 1.394 . S
C101 C89 1.407 . S
C103 C20 1.495 . S
C105 C72 1.504 . S
C107 C44 1.501 . S
C109 C61 1.510 . S
C111 C42 1.443 . S
C113 C56 1.404 . S
C117 C67 1.387 . S
C115 C41 1.401 . S
C121 C50 1.500 . S
C119 C43 1.500 . S
C123 C16 1.528 . S
C125 C51 1.518 . S
C127 C17 1.493 . S
C129 C62 1.487 . S
C133 C73 1.521 . S
C131 C39 1.529 . S
C135 C40 1.494 . S
C137 C84 1.485 . S
