# Generated by pormake.
# Topology pth, (4,4)-cn, num edge types: 1
# Building blocks:
#     Node 0, Type 0, BuildingBlock: CEKHIL_clean_sbu_0, # of connection points: 4
#     Node 1, Type 0, BuildingBlock: CEKHIL_clean_sbu_0, # of connection points: 4
#     Node 2, Type 0, BuildingBlock: CEKHIL_clean_sbu_0, # of connection points: 4
#     Node 3, Type 1, BuildingBlock: NAWXER_clean_linker_0, # of connection points: 4
#     Node 4, Type 1, BuildingBlock: NAWXER_clean_linker_0, # of connection points: 4
#     Node 5, Type 1, BuildingBlock: NAWXER_clean_linker_0, # of connection points: 4
#     Edge 6, Type (0, 1), None
#     Edge 7, Type (0, 1), None
#     Edge 8, Type (0, 1), None
#     Edge 9, Type (0, 1), None
#     Edge 10, Type (0, 1), None
#     Edge 11, Type (0, 1), None
#     Edge 12, Type (0, 1), None
#     Edge 13, Type (0, 1), None
#     Edge 14, Type (0, 1), None
#     Edge 15, Type (0, 1), None
#     Edge 16, Type (0, 1), None
#     Edge 17, Type (0, 1), None
# Relax obj value: 0.006
# Max RMSD: 0.048
# Mean RMSD: 0.036
data_MOF--net-pth--node1-CEKHIL_clean_sbu_0--node2-NAWXER_clean_linker_0--edge1-none
_symmetry_space_group_name_H-M    P1
_symmetry_Int_Tables_number       1
_symmetry_cell_setting            triclinic
loop_
_symmetry_equiv_pos_as_xyz
'x, y, z'
_cell_length_a     15.459257
_cell_length_b     15.512765
_cell_length_c     34.722796
_cell_angle_alpha  91.432351
_cell_angle_beta   89.818616
_cell_angle_gamma 120.40108
loop_
_atom_site_label
_atom_site_type_symbol
_atom_site_fract_x
_atom_site_fract_y
_atom_site_fract_z
_atom_type_partial_charge
Co0 Co 0.0469 0.03947 0.08851 0.0
O1 O 0.98028 0.93993 0.12662 0.0
O2 O 0.10969 0.95861 0.09271 0.0
C3 C 0.05812 0.16542 0.12632 0.0
O4 O 0.1369 0.13813 0.0477 0.0
Co5 Co 0.94255 0.15009 0.05731 0.0
O6 O 0.07355 0.23601 0.03309 0.0
C7 C 0.88029 0.94648 0.02734 0.0
C8 C 0.04549 0.91266 0.11995 0.0
C9 C 0.14117 0.21239 0.02994 0.0
O10 O 0.95039 0.94595 0.04717 0.0
O11 O 0.86139 0.01786 0.02954 0.0
O12 O 0.1244 0.13808 0.12911 0.0
O13 O 0.98408 0.11173 0.10296 0.0
Co14 Co 0.01947 0.0418 0.3938 0.0
O15 O 0.95714 0.07726 0.3544 0.0
O16 O 0.08319 0.18624 0.39154 0.0
C17 C 0.03499 0.92963 0.35624 0.0
O18 O 0.10492 0.03096 0.43614 0.0
Co19 Co 0.91075 0.82419 0.42246 0.0
O20 O 0.03529 0.86997 0.45284 0.0
C21 C 0.84338 0.96224 0.44907 0.0
C22 C 0.0223 0.16975 0.36277 0.0
C23 C 0.10468 0.96132 0.45578 0.0
O24 O 0.91982 0.03567 0.43325 0.0
O25 O 0.82146 0.87114 0.44481 0.0
O26 O 0.10091 0.02415 0.35497 0.0
O27 O 0.95824 0.90686 0.37771 0.0
Co28 Co 0.0203 0.04811 0.72756 0.0
O29 O 0.12167 0.11718 0.68983 0.0
O30 O 0.10286 0.98731 0.72184 0.0
C31 C 0.89575 0.03835 0.69034 0.0
O32 O 0.9215 0.95639 0.76771 0.0
Co33 Co 0.90517 0.14645 0.76208 0.0
O34 O 0.81717 0.01279 0.78348 0.0
C35 C 0.11058 0.21267 0.78957 0.0
C36 C 0.14997 0.05291 0.69544 0.0
C37 C 0.84424 0.94789 0.78542 0.0
O38 O 0.11095 0.1417 0.76974 0.0
O39 O 0.03948 0.23216 0.78784 0.0
O40 O 0.92353 0.97249 0.68645 0.0
O41 O 0.94742 0.11061 0.71489 0.0
C42 C 0.96888 0.22607 0.30535 0.0
C43 C 0.03133 0.25032 0.33808 0.0
C44 C 0.9803 0.30019 0.28033 0.0
C45 C 0.05491 0.40014 0.28734 0.0
C46 C 0.10508 0.35058 0.34539 0.0
C47 C 0.11621 0.42486 0.32037 0.0
C48 C 0.0629 0.48055 0.26283 0.0
C49 C 0.13179 0.28974 0.18135 0.0
C50 C 0.06242 0.24685 0.15063 0.0
C51 C 0.13264 0.36401 0.20534 0.0
C52 C 0.06426 0.39649 0.19884 0.0
C53 C 0.99452 0.27992 0.14416 0.0
C54 C 0.996 0.35454 0.16787 0.0
C55 C 0.06665 0.47858 0.22214 0.0
C56 C 0.12465 0.81336 0.14005 0.0
C57 C 0.04997 0.83874 0.14477 0.0
C58 C 0.13086 0.74763 0.16529 0.0
C59 C 0.06349 0.7072 0.19598 0.0
C60 C 0.98149 0.79664 0.1751 0.0
C61 C 0.98789 0.73127 0.2003 0.0
C62 C 0.06686 0.63252 0.22071 0.0
C63 C 0.9748 0.75232 0.33636 0.0
C64 C 0.04339 0.8545 0.33222 0.0
C65 C 0.98103 0.68138 0.3129 0.0
C66 C 0.05492 0.71125 0.2845 0.0
C67 C 0.11828 0.88446 0.3041 0.0
C68 C 0.124 0.81334 0.28039 0.0
C69 C 0.06208 0.63397 0.26139 0.0
H70 H 0.9111 0.14952 0.29887 0.0
H71 H 0.92955 0.27949 0.25592 0.0
H72 H 0.15443 0.37161 0.37026 0.0
H73 H 0.17311 0.50185 0.32674 0.0
H74 H 0.18491 0.26545 0.18703 0.0
H75 H 0.18741 0.39692 0.22854 0.0
H76 H 0.94027 0.24829 0.12074 0.0
H77 H 0.94315 0.3792 0.16214 0.0
H78 H 0.17853 0.84462 0.11705 0.0
H79 H 0.18872 0.7286 0.16095 0.0
H80 H 0.92271 0.8143 0.17952 0.0
H81 H 0.93259 0.69829 0.22274 0.0
H82 H 0.9164 0.72706 0.35777 0.0
H83 H 0.92752 0.60284 0.31677 0.0
H84 H 0.17218 0.96286 0.30027 0.0
H85 H 0.18303 0.83794 0.25927 0.0
N86 N 0.06074 0.55823 0.2807 0.0
N87 N 0.06889 0.55478 0.20284 0.0
C88 C 0.81816 0.07209 0.49687 0.0
C89 C 0.77877 0.98274 0.47465 0.0
C90 C 0.75713 0.08703 0.52296 0.0
C91 C 0.6557 0.01356 0.52656 0.0
C92 C 0.67729 0.90957 0.4786 0.0
C93 C 0.61621 0.92544 0.5039 0.0
C94 C 0.58718 0.0293 0.55149 0.0
C95 C 0.77314 0.96497 0.63519 0.0
C96 C 0.8191 0.03785 0.66489 0.0
C97 C 0.703 0.9668 0.61033 0.0
C98 C 0.67826 0.04199 0.61464 0.0
C99 C 0.79416 0.11285 0.6691 0.0
C100 C 0.72414 0.11454 0.64434 0.0
C101 C 0.59601 0.03937 0.59206 0.0
C102 C 0.26122 0.98453 0.67699 0.0
C103 C 0.22713 0.05141 0.67064 0.0
C104 C 0.33095 0.98125 0.65214 0.0
C105 C 0.36651 0.04353 0.62021 0.0
C106 C 0.26438 0.11505 0.63906 0.0
C107 C 0.33339 0.11117 0.6141 0.0
C108 C 0.44241 0.04088 0.59499 0.0
C109 C 0.28409 0.06902 0.47749 0.0
C110 C 0.18784 0.98664 0.48321 0.0
C111 C 0.36399 0.08614 0.5016 0.0
C112 C 0.34837 0.02295 0.5324 0.0
C113 C 0.17221 0.92475 0.51458 0.0
C114 C 0.25161 0.94295 0.53901 0.0
C115 C 0.43498 0.03341 0.55438 0.0
H116 H 0.89639 0.12936 0.49464 0.0
H117 H 0.78852 0.15616 0.53985 0.0
H118 H 0.64475 0.8401 0.46187 0.0
H119 H 0.53783 0.86831 0.50602 0.0
H120 H 0.79093 0.90619 0.63125 0.0
H121 H 0.66609 0.90779 0.58861 0.0
H122 H 0.82844 0.17015 0.69161 0.0
H123 H 0.70504 0.17235 0.64862 0.0
H124 H 0.23389 0.93462 0.70102 0.0
H125 H 0.35641 0.92916 0.65762 0.0
H126 H 0.23966 0.16758 0.63335 0.0
H127 H 0.36172 0.16188 0.59033 0.0
H128 H 0.29846 0.11771 0.45352 0.0
H129 H 0.4385 0.14767 0.49579 0.0
H130 H 0.09872 0.86099 0.5199 0.0
H131 H 0.23818 0.8921 0.56212 0.0
N132 N 0.50724 0.02713 0.53431 0.0
N133 N 0.52302 0.04443 0.6121 0.0
C134 C 0.25073 0.23598 0.83315 0.0
C135 C 0.19589 0.27494 0.81589 0.0
C136 C 0.3314 0.29606 0.85811 0.0
C137 C 0.35916 0.39613 0.86539 0.0
C138 C 0.2226 0.37444 0.82422 0.0
C139 C 0.30433 0.43477 0.84827 0.0
C140 C 0.45136 0.46515 0.88711 0.0
C141 C 0.21353 0.33267 0.97645 0.0
C142 C 0.22443 0.27159 1.003 0.0
C143 C 0.29036 0.39101 0.9513 0.0
C144 C 0.38037 0.3898 0.95163 0.0
C145 C 0.31453 0.26968 1.0033 0.0
C146 C 0.39246 0.32942 0.97809 0.0
C147 C 0.46395 0.45993 0.92706 0.0
C148 C 0.76064 0.8733 0.97152 0.0
C149 C 0.81902 0.86229 0.99984 0.0
C150 C 0.69958 0.79424 0.94629 0.0
C151 C 0.69557 0.7021 0.94844 0.0
C152 C 0.81634 0.77042 1.00166 0.0
C153 C 0.75414 0.69063 0.97644 0.0
C154 C 0.61979 0.615 0.9253 0.0
C155 C 0.83041 0.81753 0.831 0.0
C156 C 0.78519 0.86177 0.81041 0.0
C157 C 0.77391 0.74058 0.85666 0.0
C158 C 0.6713 0.70595 0.8614 0.0
C159 C 0.68278 0.82713 0.81564 0.0
C160 C 0.62638 0.74944 0.84046 0.0
C161 C 0.60648 0.61918 0.88524 0.0
H162 H 0.23111 0.15918 0.82744 0.0
H163 H 0.37388 0.26555 0.87071 0.0
H164 H 0.18193 0.40655 0.81133 0.0
H165 H 0.32547 0.51227 0.85331 0.0
H166 H 0.14547 0.33634 0.97515 0.0
H167 H 0.28024 0.43957 0.93227 0.0
H168 H 0.32555 0.22386 0.02347 0.0
H169 H 0.46219 0.32891 0.97936 0.0
H170 H 0.76076 0.94284 0.96912 0.0
H171 H 0.65231 0.80421 0.92609 0.0
H172 H 0.86007 0.7593 0.02318 0.0
H173 H 0.75055 0.61947 0.97918 0.0
H174 H 0.90954 0.84362 0.8278 0.0
H175 H 0.80962 0.707 0.87217 0.0
H176 H 0.64583 0.85966 0.80024 0.0
H177 H 0.54714 0.72338 0.84346 0.0
N178 N 0.5229 0.54412 0.86795 0.0
N179 N 0.54815 0.53501 0.94463 0.0
loop_
_geom_bond_atom_site_label_1
_geom_bond_atom_site_label_2
_geom_bond_distance
_geom_bond_site_symmetry_2
_ccdc_geom_bond_type
Co0 O1 2.216 1_445 S
Co0 O2 2.091 1_545 S
Co0 O4 2.004 . S
Co0 O10 2.021 1_445 S
Co0 O12 2.137 . S
Co0 O13 2.244 1_455 S
O1 Co0 2.216 1_665 S
O1 C8 1.247 1_655 S
O2 Co0 2.091 1_565 S
O2 C8 1.261 . S
C3 O12 1.247 . S
C3 O13 1.272 1_455 S
O4 Co0 2.004 . S
O4 C9 1.259 . S
Co5 O6 2.061 1_655 S
Co5 O11 2.052 . S
Co5 O13 2.135 . S
O6 Co5 2.061 1_455 S
O6 C9 1.235 . S
C7 O10 1.238 . S
C7 O11 1.241 1_565 S
C8 O1 1.247 1_455 S
C8 O2 1.261 . S
C9 O4 1.259 . S
C9 O6 1.235 . S
O10 Co0 2.021 1_665 S
O10 C7 1.238 . S
O11 Co5 2.052 . S
O11 C7 1.241 1_545 S
O12 Co0 2.137 . S
O12 C3 1.247 . S
O13 Co0 2.244 1_655 S
O13 C3 1.272 1_655 S
O13 Co5 2.135 . S
Co14 O15 2.216 1_455 S
Co14 O16 2.091 . S
Co14 O18 2.004 . S
Co14 O24 2.021 1_455 S
Co14 O26 2.137 . S
Co14 O27 2.244 1_445 S
O15 Co14 2.216 1_655 S
O15 C22 1.247 1_655 S
O16 Co14 2.091 . S
O16 C22 1.261 . S
C17 O26 1.247 1_565 S
C17 O27 1.272 1_455 S
O18 Co14 2.004 . S
O18 C23 1.259 . S
Co19 O20 2.061 1_655 S
Co19 O25 2.052 . S
Co19 O27 2.135 . S
O20 Co19 2.061 1_455 S
O20 C23 1.235 1_565 S
C21 O24 1.238 . S
C21 O25 1.241 1_545 S
C22 O15 1.247 1_455 S
C22 O16 1.261 . S
C23 O18 1.259 . S
C23 O20 1.235 1_545 S
O24 Co14 2.021 1_655 S
O24 C21 1.238 . S
O25 Co19 2.052 . S
O25 C21 1.241 1_565 S
O26 Co14 2.137 . S
O26 C17 1.247 1_545 S
O27 Co14 2.244 1_665 S
O27 C17 1.272 1_655 S
O27 Co19 2.135 . S
Co28 O29 2.216 . S
Co28 O30 2.091 1_545 S
Co28 O32 2.004 1_445 S
Co28 O38 2.021 . S
Co28 O40 2.137 1_445 S
Co28 O41 2.244 1_455 S
O29 Co28 2.216 . S
O29 C36 1.247 . S
O30 Co28 2.091 1_565 S
O30 C36 1.261 1_565 S
C31 O40 1.247 1_545 S
C31 O41 1.272 . S
O32 Co28 2.004 1_665 S
O32 C37 1.259 . S
Co33 O34 2.061 1_545 S
Co33 O39 2.052 1_655 S
Co33 O41 2.135 . S
O34 Co33 2.061 1_565 S
O34 C37 1.235 . S
C35 O38 1.238 . S
C35 O39 1.241 . S
C36 O29 1.247 . S
C36 O30 1.261 1_545 S
C37 O32 1.259 . S
C37 O34 1.235 . S
O38 Co28 2.021 . S
O38 C35 1.238 . S
O39 Co33 2.052 1_455 S
O39 C35 1.241 . S
O40 Co28 2.137 1_665 S
O40 C31 1.247 1_565 S
O41 Co28 2.244 1_655 S
O41 C31 1.272 . S
O41 Co33 2.135 . S
C42 C43 1.384 1_655 S
C42 C44 1.384 . S
C42 H70 0.931 . S
C43 C42 1.384 1_455 S
C43 C46 1.382 . S
C44 C42 1.384 . S
C44 C45 1.381 1_655 S
C44 H71 0.930 . S
C45 C44 1.381 1_455 S
C45 C47 1.381 . S
C45 C48 1.487 . S
C46 C43 1.382 . S
C46 C47 1.387 . S
C46 H72 0.930 . S
C47 C45 1.381 . S
C47 C46 1.387 . S
C47 H73 0.931 . S
C48 C45 1.487 . S
C48 C55 1.399 . S
C48 N86 1.343 . S
C49 C50 1.384 . S
C49 C51 1.384 . S
C49 H74 0.931 . S
C50 C49 1.384 . S
C50 C53 1.382 1_455 S
C51 C49 1.384 . S
C51 C52 1.381 . S
C51 H75 0.930 . S
C52 C51 1.381 . S
C52 C54 1.381 1_455 S
C52 C55 1.487 . S
C53 C50 1.382 1_655 S
C53 C54 1.387 . S
C53 H76 0.930 . S
C54 C52 1.381 1_655 S
C54 C53 1.387 . S
C54 H77 0.931 . S
C55 C48 1.399 . S
C55 C52 1.487 . S
C55 N87 1.343 . S
C56 C57 1.384 . S
C56 C58 1.384 . S
C56 H78 0.931 . S
C57 C56 1.384 . S
C57 C60 1.382 1_455 S
C58 C56 1.384 . S
C58 C59 1.381 . S
C58 H79 0.930 . S
C59 C58 1.381 . S
C59 C61 1.381 1_455 S
C59 C62 1.487 . S
C60 C57 1.382 1_655 S
C60 C61 1.387 . S
C60 H80 0.930 . S
C61 C59 1.381 1_655 S
C61 C60 1.387 . S
C61 H81 0.931 . S
C62 C59 1.487 . S
C62 C69 1.399 . S
C62 N87 1.343 . S
C63 C64 1.384 1_655 S
C63 C65 1.384 . S
C63 H82 0.931 . S
C64 C63 1.384 1_455 S
C64 C67 1.382 . S
C65 C63 1.384 . S
C65 C66 1.381 1_655 S
C65 H83 0.930 . S
C66 C65 1.381 1_455 S
C66 C68 1.381 . S
C66 C69 1.487 . S
C67 C64 1.382 . S
C67 C68 1.387 . S
C67 H84 0.930 . S
C68 C66 1.381 . S
C68 C67 1.387 . S
C68 H85 0.931 . S
C69 C62 1.399 . S
C69 C66 1.487 . S
C69 N86 1.343 . S
H70 C42 0.931 . S
H71 C44 0.930 . S
H72 C46 0.930 . S
H73 C47 0.931 . S
H74 C49 0.931 . S
H75 C51 0.930 . S
H76 C53 0.930 . S
H77 C54 0.931 . S
H78 C56 0.931 . S
H79 C58 0.930 . S
H80 C60 0.930 . S
H81 C61 0.931 . S
H82 C63 0.931 . S
H83 C65 0.930 . S
H84 C67 0.930 . S
H85 C68 0.931 . S
N86 C48 1.343 . S
N86 C69 1.343 . S
N87 C55 1.343 . S
N87 C62 1.343 . S
C88 C89 1.384 . S
C88 C90 1.384 . S
C88 H116 0.931 . S
C89 C88 1.384 . S
C89 C92 1.382 1_545 S
C90 C88 1.384 . S
C90 C91 1.381 . S
C90 H117 0.930 . S
C91 C90 1.381 . S
C91 C93 1.381 1_545 S
C91 C94 1.487 . S
C92 C89 1.382 1_565 S
C92 C93 1.387 . S
C92 H118 0.930 . S
C93 C91 1.381 1_565 S
C93 C92 1.387 . S
C93 H119 0.931 . S
C94 C91 1.487 . S
C94 C101 1.399 . S
C94 N132 1.343 . S
C95 C96 1.384 1_565 S
C95 C97 1.384 . S
C95 H120 0.931 . S
C96 C95 1.384 1_545 S
C96 C99 1.382 . S
C97 C95 1.384 . S
C97 C98 1.381 1_565 S
C97 H121 0.930 . S
C98 C97 1.381 1_545 S
C98 C100 1.381 . S
C98 C101 1.487 . S
C99 C96 1.382 . S
C99 C100 1.387 . S
C99 H122 0.930 . S
C100 C98 1.381 . S
C100 C99 1.387 . S
C100 H123 0.931 . S
C101 C94 1.399 . S
C101 C98 1.487 . S
C101 N133 1.343 . S
C102 C103 1.384 1_565 S
C102 C104 1.384 . S
C102 H124 0.931 . S
C103 C102 1.384 1_545 S
C103 C106 1.382 . S
C104 C102 1.384 . S
C104 C105 1.381 1_565 S
C104 H125 0.930 . S
C105 C104 1.381 1_545 S
C105 C107 1.381 . S
C105 C108 1.487 . S
C106 C103 1.382 . S
C106 C107 1.387 . S
C106 H126 0.930 . S
C107 C105 1.381 . S
C107 C106 1.387 . S
C107 H127 0.931 . S
C108 C105 1.487 . S
C108 C115 1.399 . S
C108 N133 1.343 . S
C109 C110 1.384 . S
C109 C111 1.384 . S
C109 H128 0.931 . S
C110 C109 1.384 . S
C110 C113 1.382 1_545 S
C111 C109 1.384 . S
C111 C112 1.381 . S
C111 H129 0.930 . S
C112 C111 1.381 . S
C112 C114 1.381 1_545 S
C112 C115 1.487 . S
C113 C110 1.382 1_565 S
C113 C114 1.387 . S
C113 H130 0.930 . S
C114 C112 1.381 1_565 S
C114 C113 1.387 . S
C114 H131 0.931 . S
C115 C108 1.399 . S
C115 C112 1.487 . S
C115 N132 1.343 . S
H116 C88 0.931 . S
H117 C90 0.930 . S
H118 C92 0.930 . S
H119 C93 0.931 . S
H120 C95 0.931 . S
H121 C97 0.930 . S
H122 C99 0.930 . S
H123 C100 0.931 . S
H124 C102 0.931 . S
H125 C104 0.930 . S
H126 C106 0.930 . S
H127 C107 0.931 . S
H128 C109 0.931 . S
H129 C111 0.930 . S
H130 C113 0.930 . S
H131 C114 0.931 . S
N132 C94 1.343 . S
N132 C115 1.343 . S
N133 C101 1.343 . S
N133 C108 1.343 . S
C134 C135 1.384 . S
C134 C136 1.384 . S
C134 H162 0.931 . S
C135 C134 1.384 . S
C135 C138 1.382 . S
C136 C134 1.384 . S
C136 C137 1.381 . S
C136 H163 0.930 . S
C137 C136 1.381 . S
C137 C139 1.381 . S
C137 C140 1.487 . S
C138 C135 1.382 . S
C138 C139 1.387 . S
C138 H164 0.930 . S
C139 C137 1.381 . S
C139 C138 1.387 . S
C139 H165 0.931 . S
C140 C137 1.487 . S
C140 C147 1.399 . S
C140 N178 1.343 . S
C141 C142 1.384 . S
C141 C143 1.384 . S
C141 H166 0.931 . S
C142 C141 1.384 . S
C142 C145 1.382 . S
C143 C141 1.384 . S
C143 C144 1.381 . S
C143 H167 0.930 . S
C144 C143 1.381 . S
C144 C146 1.381 . S
C144 C147 1.487 . S
C145 C142 1.382 . S
C145 C146 1.387 . S
C145 H168 0.930 1_556 S
C146 C144 1.381 . S
C146 C145 1.387 . S
C146 H169 0.931 . S
C147 C140 1.399 . S
C147 C144 1.487 . S
C147 N179 1.343 . S
C148 C149 1.384 . S
C148 C150 1.384 . S
C148 H170 0.931 . S
C149 C148 1.384 . S
C149 C152 1.382 . S
C150 C148 1.384 . S
C150 C151 1.381 . S
C150 H171 0.930 . S
C151 C150 1.381 . S
C151 C153 1.381 . S
C151 C154 1.487 . S
C152 C149 1.382 . S
C152 C153 1.387 . S
C152 H172 0.930 1_556 S
C153 C151 1.381 . S
C153 C152 1.387 . S
C153 H173 0.931 . S
C154 C151 1.487 . S
C154 C161 1.399 . S
C154 N179 1.343 . S
C155 C156 1.384 . S
C155 C157 1.384 . S
C155 H174 0.931 . S
C156 C155 1.384 . S
C156 C159 1.382 . S
C157 C155 1.384 . S
C157 C158 1.381 . S
C157 H175 0.930 . S
C158 C157 1.381 . S
C158 C160 1.381 . S
C158 C161 1.487 . S
C159 C156 1.382 . S
C159 C160 1.387 . S
C159 H176 0.930 . S
C160 C158 1.381 . S
C160 C159 1.387 . S
C160 H177 0.931 . S
C161 C154 1.399 . S
C161 C158 1.487 . S
C161 N178 1.343 . S
H162 C134 0.931 . S
H163 C136 0.930 . S
H164 C138 0.930 . S
H165 C139 0.931 . S
H166 C141 0.931 . S
H167 C143 0.930 . S
H168 C145 0.930 1_554 S
H169 C146 0.931 . S
H170 C148 0.931 . S
H171 C150 0.930 . S
H172 C152 0.930 1_554 S
H173 C153 0.931 . S
H174 C155 0.931 . S
H175 C157 0.930 . S
H176 C159 0.930 . S
H177 C160 0.931 . S
N178 C140 1.343 . S
N178 C161 1.343 . S
N179 C147 1.343 . S
N179 C154 1.343 . S
C50 C3 1.496 . S
C21 C89 1.526 . S
C37 C156 1.487 . S
C8 C57 1.524 . S
C110 C23 1.477 . S
C35 C135 1.475 . S
C96 C31 1.495 . S
C7 C149 1.479 1_554 S
C64 C17 1.492 . S
C103 C36 1.464 . S
C142 C9 1.480 1_556 S
C22 C43 1.515 . S
