# Generated by pormake.
# Topology rtl, (3,6)-cn, num edge types: 1
# Building blocks:
#     Node 0, Type 0, BuildingBlock: MIDCAF_clean_linker_0, # of connection points: 3
#     Node 1, Type 0, BuildingBlock: MIDCAF_clean_linker_0, # of connection points: 3
#     Node 2, Type 0, BuildingBlock: MIDCAF_clean_linker_0, # of connection points: 3
#     Node 3, Type 0, BuildingBlock: MIDCAF_clean_linker_0, # of connection points: 3
#     Node 4, Type 1, BuildingBlock: CIFDUS_clean_sbu_1, # of connection points: 6
#     Node 5, Type 1, BuildingBlock: CIFDUS_clean_sbu_1, # of connection points: 6
#     Edge 6, Type (0, 1), BuildingBlock: EYOCIG_clean_linker_4, # of connection points: 2
#     Edge 7, Type (0, 1), BuildingBlock: EYOCIG_clean_linker_4, # of connection points: 2
#     Edge 8, Type (0, 1), BuildingBlock: EYOCIG_clean_linker_4, # of connection points: 2
#     Edge 9, Type (0, 1), BuildingBlock: EYOCIG_clean_linker_4, # of connection points: 2
#     Edge 10, Type (0, 1), BuildingBlock: EYOCIG_clean_linker_4, # of connection points: 2
#     Edge 11, Type (0, 1), BuildingBlock: EYOCIG_clean_linker_4, # of connection points: 2
#     Edge 12, Type (0, 1), BuildingBlock: EYOCIG_clean_linker_4, # of connection points: 2
#     Edge 13, Type (0, 1), BuildingBlock: EYOCIG_clean_linker_4, # of connection points: 2
#     Edge 14, Type (0, 1), BuildingBlock: EYOCIG_clean_linker_4, # of connection points: 2
#     Edge 15, Type (0, 1), BuildingBlock: EYOCIG_clean_linker_4, # of connection points: 2
#     Edge 16, Type (0, 1), BuildingBlock: EYOCIG_clean_linker_4, # of connection points: 2
#     Edge 17, Type (0, 1), BuildingBlock: EYOCIG_clean_linker_4, # of connection points: 2
# Relax obj value: 0.029
# Max RMSD: 0.064
# Mean RMSD: 0.049
data_MOF--net-rtl--node1-CIFDUS_clean_sbu_1--node2-MIDCAF_clean_linker_0--edge1-EYOCIG_clean_linker_4
_symmetry_space_group_name_H-M    P1
_symmetry_Int_Tables_number       1
_symmetry_cell_setting            triclinic
loop_
_symmetry_equiv_pos_as_xyz
'x, y, z'
_cell_length_a     30.426746
_cell_length_b     34.70076
_cell_length_c     24.387654
_cell_angle_alpha  89.974772
_cell_angle_beta   97.589668
_cell_angle_gamma 89.984738
loop_
_atom_site_label
_atom_site_type_symbol
_atom_site_fract_x
_atom_site_fract_y
_atom_site_fract_z
_atom_type_partial_charge
C0 C 0.21477 0.96998 0.23386 0.0
C1 C 0.22931 0.95395 0.28575 0.0
C2 C 0.26566 0.92861 0.29131 0.0
C3 C 0.28556 0.91791 0.24468 0.0
H4 H 0.36154 0.83075 0.18564 0.0
H5 H 0.40346 0.77072 0.18625 0.0
H6 H 0.41051 0.78282 0.01177 0.0
H7 H 0.36859 0.84315 0.01041 0.0
H8 H 0.29681 0.89423 0.94105 0.0
H9 H 0.25817 0.91474 0.85192 0.0
H10 H 0.1939 0.00572 0.93158 0.0
H11 H 0.23254 0.98544 0.0217 0.0
H12 H 0.22138 0.97172 0.14786 0.0
H13 H 0.18695 0.98975 0.22872 0.0
H14 H 0.27767 0.91611 0.33119 0.0
H15 H 0.31273 0.89749 0.24987 0.0
N16 N 0.31634 0.88899 0.14306 0.0
N17 N 0.31499 0.89177 0.04668 0.0
N18 N 0.27188 0.93474 0.09095 0.0
C19 C 0.33067 0.87543 0.09604 0.0
C20 C 0.2858 0.92156 0.04368 0.0
C21 C 0.28704 0.91881 0.14092 0.0
C22 C 0.36085 0.84158 0.09782 0.0
C23 C 0.37249 0.82113 0.14745 0.0
C24 C 0.39661 0.78681 0.14798 0.0
C25 C 0.40957 0.77229 0.09909 0.0
C26 C 0.40054 0.79357 0.04999 0.0
C27 C 0.37634 0.82798 0.04932 0.0
C28 C 0.26704 0.93755 0.98896 0.0
C29 C 0.27505 0.919 0.93991 0.0
C30 C 0.25305 0.93073 0.88871 0.0
C31 C 0.22267 0.96115 0.88545 0.0
C32 C 0.21691 0.98177 0.93346 0.0
C33 C 0.23888 0.96999 0.98496 0.0
C34 C 0.26947 0.93253 0.19182 0.0
C35 C 0.23458 0.9595 0.18749 0.0
C36 C 0.6767 0.57754 0.42764 0.0
C37 C 0.69082 0.59189 0.37921 0.0
C38 C 0.7284 0.6154 0.38262 0.0
C39 C 0.74991 0.62692 0.43416 0.0
H40 H 0.82683 0.71562 0.50267 0.0
H41 H 0.87149 0.77429 0.50587 0.0
H42 H 0.88775 0.77161 0.68405 0.0
H43 H 0.84287 0.71285 0.68152 0.0
H44 H 0.76858 0.66387 0.73934 0.0
H45 H 0.73546 0.64214 0.8204 0.0
H46 H 0.67041 0.54902 0.7249 0.0
H47 H 0.70307 0.57014 0.64395 0.0
H48 H 0.68553 0.57862 0.51609 0.0
H49 H 0.64789 0.55898 0.42557 0.0
H50 H 0.73995 0.6263 0.3454 0.0
H51 H 0.77789 0.64632 0.43544 0.0
N52 N 0.7833 0.66022 0.54031 0.0
N53 N 0.78519 0.66262 0.63678 0.0
N54 N 0.73973 0.6177 0.58456 0.0
C55 C 0.7995 0.67624 0.5898 0.0
C56 C 0.75539 0.6332 0.6344 0.0
C57 C 0.75355 0.63083 0.53738 0.0
C58 C 0.83043 0.70969 0.59188 0.0
C59 C 0.84013 0.72717 0.54269 0.0
C60 C 0.86577 0.76081 0.54438 0.0
C61 C 0.88242 0.77762 0.5952 0.0
C62 C 0.87484 0.7593 0.64436 0.0
C63 C 0.84904 0.7257 0.64279 0.0
C64 C 0.7383 0.61897 0.6849 0.0
C65 C 0.7476 0.63855 0.73566 0.0
C66 C 0.72874 0.62621 0.782 0.0
C67 C 0.70061 0.5941 0.77822 0.0
C68 C 0.69212 0.57391 0.72837 0.0
C69 C 0.71079 0.58617 0.6821 0.0
C70 C 0.73423 0.61483 0.48311 0.0
C71 C 0.69826 0.58892 0.47932 0.0
C72 C 0.84535 0.08081 0.86386 0.0
C73 C 0.83476 0.09935 0.81298 0.0
C74 C 0.80691 0.1317 0.80889 0.0
C75 C 0.79071 0.14605 0.85602 0.0
H76 H 0.69741 0.22059 0.91259 0.0
H77 H 0.64663 0.2754 0.90974 0.0
H78 H 0.66378 0.27923 0.08792 0.0
H79 H 0.71453 0.22432 0.09148 0.0
H80 H 0.76138 0.15223 0.15591 0.0
H81 H 0.7939 0.12634 0.24516 0.0
H82 H 0.8892 0.06237 0.16562 0.0
H83 H 0.85694 0.08791 0.07575 0.0
H84 H 0.8387 0.08017 0.94966 0.0
H85 H 0.86681 0.05573 0.86757 0.0
H86 H 0.79851 0.14632 0.76964 0.0
H87 H 0.76987 0.17146 0.85211 0.0
N88 N 0.75768 0.17319 0.95674 0.0
N89 N 0.7603 0.17046 0.05329 0.0
N90 N 0.80351 0.12821 0.0082 0.0
C91 C 0.74384 0.18665 1.00407 0.0
C92 C 0.79003 0.14112 0.05556 0.0
C93 C 0.78753 0.14385 0.95864 0.0
C94 C 0.71082 0.21837 1.00222 0.0
C95 C 0.69028 0.23285 0.95128 0.0
C96 C 0.66098 0.26408 0.94952 0.0
C97 C 0.65187 0.28159 0.99852 0.0
C98 C 0.67057 0.26622 0.04953 0.0
C99 C 0.69978 0.23488 0.05142 0.0
C100 C 0.8072 0.12291 0.10885 0.0
C101 C 0.78896 0.13239 0.15712 0.0
C102 C 0.80719 0.11737 0.20808 0.0
C103 C 0.84409 0.0931 0.21153 0.0
C104 C 0.86073 0.08137 0.16339 0.0
C105 C 0.84241 0.09623 0.1122 0.0
C106 C 0.8024 0.12819 0.90771 0.0
C107 C 0.82935 0.09503 0.91081 0.0
C108 C 0.31992 0.47624 0.65518 0.0
C109 C 0.31284 0.4571 0.70386 0.0
C110 C 0.28331 0.42608 0.70122 0.0
C111 C 0.26388 0.41205 0.65008 0.0
H112 H 0.17232 0.33448 0.57775 0.0
H113 H 0.12407 0.27787 0.57362 0.0
H114 H 0.1318 0.2666 0.39916 0.0
H115 H 0.18012 0.32292 0.40255 0.0
H116 H 0.22566 0.39204 0.34076 0.0
H117 H 0.25581 0.41497 0.25805 0.0
H118 H 0.35085 0.48485 0.3604 0.0
H119 H 0.32132 0.46246 0.44281 0.0
H120 H 0.30791 0.47658 0.56668 0.0
H121 H 0.3423 0.50062 0.65661 0.0
H122 H 0.27719 0.4113 0.73863 0.0
H123 H 0.2428 0.38687 0.6494 0.0
N124 N 0.22838 0.38133 0.54325 0.0
N125 N 0.22726 0.37918 0.4469 0.0
N126 N 0.27105 0.42494 0.49948 0.0
C127 C 0.21307 0.36518 0.49365 0.0
C128 C 0.25621 0.40917 0.4495 0.0
C129 C 0.25719 0.41138 0.54648 0.0
C130 C 0.18092 0.33287 0.49064 0.0
C131 C 0.1635 0.32025 0.53831 0.0
C132 C 0.13556 0.28809 0.53599 0.0
C133 C 0.12483 0.26809 0.4861 0.0
C134 C 0.13986 0.2818 0.43798 0.0
C135 C 0.16777 0.31387 0.44017 0.0
C136 C 0.27163 0.42478 0.39867 0.0
C137 C 0.25279 0.41248 0.34566 0.0
C138 C 0.26973 0.42575 0.29831 0.0
C139 C 0.30582 0.45123 0.30345 0.0
C140 C 0.32308 0.46504 0.35575 0.0
C141 C 0.3062 0.452 0.4029 0.0
C142 C 0.27361 0.42902 0.60068 0.0
C143 C 0.3005 0.46222 0.60382 0.0
O144 O 0.98283 0.04495 0.48407 0.0
Mn145 Mn 0.0243 0.01799 0.54842 0.0
O146 O 0.95996 0.99997 0.42125 0.0
Mn147 Mn 0.99264 0.96075 0.4559 0.0
O148 O 0.06717 0.99329 0.61558 0.0
O149 O 0.04997 0.07205 0.56535 0.0
Mn150 Mn 0.05397 0.07838 0.63753 0.0
O151 O 0.97489 0.0275 0.59996 0.0
O152 O 0.09211 0.04256 0.67159 0.0
O153 O 0.07347 0.00758 0.4949 0.0
O154 O 0.04959 0.95789 0.43863 0.0
O155 O 0.07519 0.1232 0.61383 0.0
O156 O 0.99753 0.07719 0.6561 0.0
C157 C 0.96848 0.93611 0.52544 0.0
C158 C 0.96049 0.03417 0.43854 0.0
C159 C 0.09148 0.00724 0.65859 0.0
C160 C 0.06512 0.10729 0.5658 0.0
C161 C 0.96885 0.05233 0.63749 0.0
C162 C 0.07894 0.98259 0.45674 0.0
O163 O 0.99823 0.96369 0.52913 0.0
O164 O 0.95797 0.92227 0.47621 0.0
O165 O 0.54699 0.54659 0.10767 0.0
Mn166 Mn 0.50685 0.51932 0.04201 0.0
O167 O 0.57224 0.50133 0.16995 0.0
Mn168 Mn 0.53986 0.46198 0.13568 0.0
O169 O 0.46527 0.49365 0.97421 0.0
O170 O 0.48029 0.57289 0.02372 0.0
Mn171 Mn 0.47723 0.57876 0.95152 0.0
O172 O 0.5567 0.52903 0.99143 0.0
O173 O 0.4395 0.54263 0.91784 0.0
O174 O 0.45742 0.5082 0.09385 0.0
O175 O 0.4821 0.45941 0.15125 0.0
O176 O 0.45536 0.62363 0.97408 0.0
O177 O 0.53386 0.57756 0.93343 0.0
C178 C 0.55911 0.43507 0.06477 0.0
C179 C 0.57006 0.53579 0.15308 0.0
C180 C 0.44074 0.50733 0.93107 0.0
C181 C 0.46466 0.608 0.02244 0.0
C182 C 0.56273 0.55317 0.95312 0.0
C183 C 0.45229 0.48344 0.13213 0.0
O184 O 0.53763 0.46773 0.06298 0.0
O185 O 0.57052 0.42106 0.11364 0.0
C186 C 0.08691 0.19944 0.48643 0.0
C187 C 0.10421 0.23068 0.48565 0.0
C188 C 0.07356 0.16127 0.49602 0.0
C189 C 0.06678 0.13119 0.51827 0.0
C190 C 0.44234 0.70148 0.09823 0.0
C191 C 0.42741 0.73374 0.09859 0.0
C192 C 0.45485 0.66277 0.09027 0.0
C193 C 0.46214 0.6323 0.06938 0.0
C194 C 0.92299 0.84585 0.59524 0.0
C195 C 0.90469 0.8148 0.59664 0.0
C196 C 0.94256 0.88257 0.58759 0.0
C197 C 0.95804 0.91155 0.56968 0.0
C198 C 0.6064 0.3473 0.99596 0.0
C199 C 0.62702 0.31736 0.9963 0.0
C200 C 0.58596 0.38378 1.00147 0.0
C201 C 0.57053 0.41279 0.01899 0.0
C202 C 0.1805 0.96958 0.366 0.0
C203 C 0.20414 0.96136 0.33132 0.0
C204 C 0.14881 0.9778 0.40259 0.0
C205 C 0.1188 0.98266 0.43014 0.0
C206 C 0.65903 0.57137 0.86109 0.0
C207 C 0.67863 0.58264 0.82436 0.0
C208 C 0.63156 0.55952 0.90021 0.0
C209 C 0.60291 0.55287 0.92856 0.0
C210 C 0.88773 0.07907 0.31007 0.0
C211 C 0.86832 0.08513 0.26473 0.0
C212 C 0.91281 0.07258 0.36188 0.0
C213 C 0.93574 0.06087 0.40232 0.0
C214 C 0.36184 0.47002 0.80006 0.0
C215 C 0.34023 0.46514 0.75543 0.0
C216 C 0.38942 0.47432 0.85117 0.0
C217 C 0.41413 0.4832 0.89211 0.0
C218 C 0.64281 0.58127 0.28184 0.0
C219 C 0.66444 0.58592 0.32643 0.0
C220 C 0.61651 0.5748 0.23055 0.0
C221 C 0.59382 0.5628 0.18996 0.0
C222 C 0.87353 0.07335 0.72964 0.0
C223 C 0.855 0.08629 0.76628 0.0
C224 C 0.90043 0.05997 0.69077 0.0
C225 C 0.92878 0.0525 0.66233 0.0
C226 C 0.35085 0.46961 0.22131 0.0
C227 C 0.32871 0.46015 0.25675 0.0
C228 C 0.38197 0.47831 0.18463 0.0
C229 C 0.41219 0.48324 0.15773 0.0
C230 C 0.17167 0.9713 0.78957 0.0
C231 C 0.19417 0.96771 0.83401 0.0
C232 C 0.14363 0.97483 0.73851 0.0
C233 C 0.11863 0.98338 0.69757 0.0
loop_
_geom_bond_atom_site_label_1
_geom_bond_atom_site_label_2
_geom_bond_distance
_geom_bond_site_symmetry_2
_ccdc_geom_bond_type
C0 C1 1.384 . S
C0 H13 0.947 . S
C0 C35 1.382 . S
C1 C0 1.384 . S
C1 C2 1.378 . S
C2 C1 1.378 . S
C2 C3 1.378 . S
C2 H14 0.952 . S
C3 C2 1.378 . S
C3 H15 0.950 . S
C3 C34 1.383 . S
H4 C23 0.947 . S
H5 C24 0.946 . S
H6 C26 0.953 . S
H7 C27 0.945 . S
H8 C29 0.952 . S
H9 C30 0.949 . S
H10 C32 0.938 1_545 S
H11 C33 0.948 1_554 S
H12 C35 0.951 . S
H13 C0 0.947 . S
H14 C2 0.952 . S
H15 C3 0.950 . S
N16 C19 1.382 . S
N16 C21 1.363 . S
N17 C19 1.371 . S
N17 C20 1.372 . S
N18 C20 1.361 . S
N18 C21 1.377 . S
C19 N16 1.382 . S
C19 N17 1.371 . S
C19 C22 1.480 . S
C20 N17 1.372 . S
C20 N18 1.361 . S
C20 C28 1.457 1_554 S
C21 N16 1.363 . S
C21 N18 1.377 . S
C21 C34 1.479 . S
C22 C19 1.480 . S
C22 C23 1.383 . S
C22 C27 1.385 . S
C23 H4 0.947 . S
C23 C22 1.383 . S
C23 C24 1.388 . S
C24 H5 0.946 . S
C24 C23 1.388 . S
C24 C25 1.384 . S
C25 C24 1.384 . S
C25 C26 1.377 . S
C26 H6 0.953 . S
C26 C25 1.377 . S
C26 C27 1.369 . S
C27 H7 0.945 . S
C27 C22 1.385 . S
C27 C26 1.369 . S
C28 C20 1.457 1_556 S
C28 C29 1.372 . S
C28 C33 1.364 . S
C29 H8 0.952 . S
C29 C28 1.372 . S
C29 C30 1.389 . S
C30 H9 0.949 . S
C30 C29 1.389 . S
C30 C31 1.387 . S
C31 C30 1.387 . S
C31 C32 1.372 . S
C32 H10 0.938 1_565 S
C32 C31 1.372 . S
C32 C33 1.379 . S
C33 H11 0.948 1_556 S
C33 C28 1.364 . S
C33 C32 1.379 . S
C34 C3 1.383 . S
C34 C21 1.479 . S
C34 C35 1.398 . S
C35 C0 1.382 . S
C35 H12 0.951 . S
C35 C34 1.398 . S
C36 C37 1.384 . S
C36 H49 0.947 . S
C36 C71 1.382 . S
C37 C36 1.384 . S
C37 C38 1.378 . S
C38 C37 1.378 . S
C38 C39 1.378 . S
C38 H50 0.952 . S
C39 C38 1.378 . S
C39 H51 0.950 . S
C39 C70 1.383 . S
H40 C59 0.947 . S
H41 C60 0.946 . S
H42 C62 0.953 . S
H43 C63 0.945 . S
H44 C65 0.952 . S
H45 C66 0.949 . S
H46 C68 0.950 . S
H47 C69 0.948 . S
H48 C71 0.951 . S
H49 C36 0.947 . S
H50 C38 0.952 . S
H51 C39 0.950 . S
N52 C55 1.382 . S
N52 C57 1.363 . S
N53 C55 1.371 . S
N53 C56 1.372 . S
N54 C56 1.361 . S
N54 C57 1.377 . S
C55 N52 1.382 . S
C55 N53 1.371 . S
C55 C58 1.480 . S
C56 N53 1.372 . S
C56 N54 1.361 . S
C56 C64 1.457 . S
C57 N52 1.363 . S
C57 N54 1.377 . S
C57 C70 1.479 . S
C58 C55 1.480 . S
C58 C59 1.383 . S
C58 C63 1.385 . S
C59 H40 0.947 . S
C59 C58 1.383 . S
C59 C60 1.388 . S
C60 H41 0.946 . S
C60 C59 1.388 . S
C60 C61 1.384 . S
C61 C60 1.384 . S
C61 C62 1.377 . S
C62 H42 0.953 . S
C62 C61 1.377 . S
C62 C63 1.369 . S
C63 H43 0.945 . S
C63 C58 1.385 . S
C63 C62 1.369 . S
C64 C56 1.457 . S
C64 C65 1.372 . S
C64 C69 1.364 . S
C65 H44 0.952 . S
C65 C64 1.372 . S
C65 C66 1.389 . S
C66 H45 0.949 . S
C66 C65 1.389 . S
C66 C67 1.387 . S
C67 C66 1.387 . S
C67 C68 1.372 . S
C68 H46 0.950 . S
C68 C67 1.372 . S
C68 C69 1.379 . S
C69 H47 0.948 . S
C69 C64 1.364 . S
C69 C68 1.379 . S
C70 C39 1.383 . S
C70 C57 1.479 . S
C70 C71 1.398 . S
C71 C36 1.382 . S
C71 H48 0.951 . S
C71 C70 1.398 . S
C72 C73 1.384 . S
C72 H85 0.947 . S
C72 C107 1.382 . S
C73 C72 1.384 . S
C73 C74 1.378 . S
C74 C73 1.378 . S
C74 C75 1.378 . S
C74 H86 0.952 . S
C75 C74 1.378 . S
C75 H87 0.950 . S
C75 C106 1.383 . S
H76 C95 0.947 . S
H77 C96 0.946 . S
H78 C98 0.953 . S
H79 C99 0.945 . S
H80 C101 0.952 . S
H81 C102 0.949 . S
H82 C104 0.950 . S
H83 C105 0.948 . S
H84 C107 0.951 . S
H85 C72 0.947 . S
H86 C74 0.952 . S
H87 C75 0.950 . S
N88 C91 1.382 1_556 S
N88 C93 1.363 . S
N89 C91 1.371 . S
N89 C92 1.372 . S
N90 C92 1.361 . S
N90 C93 1.377 1_554 S
C91 N88 1.382 1_554 S
C91 N89 1.371 . S
C91 C94 1.480 1_554 S
C92 N89 1.372 . S
C92 N90 1.361 . S
C92 C100 1.457 . S
C93 N88 1.363 . S
C93 N90 1.377 1_556 S
C93 C106 1.479 . S
C94 C91 1.480 1_556 S
C94 C95 1.390 . S
C94 C99 1.377 1_556 S
C95 H76 0.947 . S
C95 C94 1.390 . S
C95 C96 1.388 . S
C96 H77 0.946 . S
C96 C95 1.388 . S
C96 C97 1.384 . S
C97 C96 1.384 . S
C97 C98 1.377 1_556 S
C98 H78 0.953 . S
C98 C97 1.377 1_554 S
C98 C99 1.369 . S
C99 H79 0.945 . S
C99 C94 1.377 1_554 S
C99 C98 1.369 . S
C100 C92 1.457 . S
C100 C101 1.372 . S
C100 C105 1.364 . S
C101 H80 0.952 . S
C101 C100 1.372 . S
C101 C102 1.389 . S
C102 H81 0.949 . S
C102 C101 1.389 . S
C102 C103 1.387 . S
C103 C102 1.387 . S
C103 C104 1.372 . S
C104 H82 0.950 . S
C104 C103 1.372 . S
C104 C105 1.379 . S
C105 H83 0.948 . S
C105 C100 1.364 . S
C105 C104 1.379 . S
C106 C75 1.383 . S
C106 C93 1.479 . S
C106 C107 1.398 . S
C107 C72 1.382 . S
C107 H84 0.951 . S
C107 C106 1.398 . S
C108 C109 1.384 . S
C108 H121 0.947 . S
C108 C143 1.382 . S
C109 C108 1.384 . S
C109 C110 1.378 . S
C110 C109 1.378 . S
C110 C111 1.378 . S
C110 H122 0.952 . S
C111 C110 1.378 . S
C111 H123 0.950 . S
C111 C142 1.383 . S
H112 C131 0.947 . S
H113 C132 0.946 . S
H114 C134 0.953 . S
H115 C135 0.945 . S
H116 C137 0.952 . S
H117 C138 0.949 . S
H118 C140 0.950 . S
H119 C141 0.948 . S
H120 C143 0.951 . S
H121 C108 0.947 . S
H122 C110 0.952 . S
H123 C111 0.950 . S
N124 C127 1.382 . S
N124 C129 1.363 . S
N125 C127 1.371 . S
N125 C128 1.372 . S
N126 C128 1.361 . S
N126 C129 1.377 . S
C127 N124 1.382 . S
C127 N125 1.371 . S
C127 C130 1.480 . S
C128 N125 1.372 . S
C128 N126 1.361 . S
C128 C136 1.457 . S
C129 N124 1.363 . S
C129 N126 1.377 . S
C129 C142 1.479 . S
C130 C127 1.480 . S
C130 C131 1.383 . S
C130 C135 1.385 . S
C131 H112 0.947 . S
C131 C130 1.383 . S
C131 C132 1.388 . S
C132 H113 0.946 . S
C132 C131 1.388 . S
C132 C133 1.384 . S
C133 C132 1.384 . S
C133 C134 1.377 . S
C134 H114 0.953 . S
C134 C133 1.377 . S
C134 C135 1.369 . S
C135 H115 0.945 . S
C135 C130 1.385 . S
C135 C134 1.369 . S
C136 C128 1.457 . S
C136 C137 1.372 . S
C136 C141 1.364 . S
C137 H116 0.952 . S
C137 C136 1.372 . S
C137 C138 1.389 . S
C138 H117 0.949 . S
C138 C137 1.389 . S
C138 C139 1.387 . S
C139 C138 1.387 . S
C139 C140 1.372 . S
C140 H118 0.950 . S
C140 C139 1.372 . S
C140 C141 1.379 . S
C141 H119 0.948 . S
C141 C136 1.364 . S
C141 C140 1.379 . S
C142 C111 1.383 . S
C142 C129 1.479 . S
C142 C143 1.398 . S
C143 C108 1.382 . S
C143 H120 0.951 . S
C143 C142 1.398 . S
O144 Mn145 2.163 1_655 S
O144 C158 1.244 . S
Mn145 O144 2.163 1_455 S
Mn145 O148 2.160 1_545 S
Mn145 O149 2.221 . S
Mn145 O151 2.163 1_455 S
Mn145 O153 2.160 1_545 S
Mn145 O163 2.221 1_445 S
O146 Mn147 2.087 1_545 S
O146 C158 1.256 . S
Mn147 O146 2.087 1_565 S
Mn147 O154 2.089 1_655 S
Mn147 O163 2.290 . S
Mn147 O164 2.251 . S
O148 Mn145 2.160 1_565 S
O148 C159 1.239 . S
O149 Mn145 2.221 . S
O149 Mn150 2.290 . S
O149 C160 1.278 . S
Mn150 O149 2.290 . S
Mn150 O152 2.089 . S
Mn150 O155 2.251 . S
Mn150 O156 2.087 1_455 S
O151 Mn145 2.163 1_655 S
O151 C161 1.244 . S
O152 Mn150 2.089 . S
O152 C159 1.256 1_545 S
O153 Mn145 2.160 1_565 S
O153 C162 1.239 . S
O154 Mn147 2.089 1_455 S
O154 C162 1.256 . S
O155 Mn150 2.251 . S
O155 C160 1.241 . S
O156 Mn150 2.087 1_655 S
O156 C161 1.256 . S
C157 O163 1.278 . S
C157 O164 1.241 . S
C158 O144 1.244 . S
C158 O146 1.256 . S
C159 O148 1.239 . S
C159 O152 1.256 1_565 S
C160 O149 1.278 . S
C160 O155 1.241 . S
C161 O151 1.244 . S
C161 O156 1.256 . S
C162 O153 1.239 . S
C162 O154 1.256 . S
O163 Mn145 2.221 1_665 S
O163 Mn147 2.290 . S
O163 C157 1.278 . S
O164 Mn147 2.251 . S
O164 C157 1.241 . S
O165 Mn166 2.163 . S
O165 C179 1.244 . S
Mn166 O165 2.163 . S
Mn166 O169 2.160 1_554 S
Mn166 O170 2.221 . S
Mn166 O172 2.163 1_554 S
Mn166 O174 2.160 . S
Mn166 O184 2.221 . S
O167 Mn168 2.087 . S
O167 C179 1.256 . S
Mn168 O167 2.087 . S
Mn168 O175 2.089 . S
Mn168 O184 2.290 . S
Mn168 O185 2.251 . S
O169 Mn166 2.160 1_556 S
O169 C180 1.239 . S
O170 Mn166 2.221 . S
O170 Mn171 2.290 1_554 S
O170 C181 1.278 . S
Mn171 O170 2.290 1_556 S
Mn171 O173 2.089 . S
Mn171 O176 2.251 . S
Mn171 O177 2.087 . S
O172 Mn166 2.163 1_556 S
O172 C182 1.244 . S
O173 Mn171 2.089 . S
O173 C180 1.256 . S
O174 Mn166 2.160 . S
O174 C183 1.239 . S
O175 Mn168 2.089 . S
O175 C183 1.256 . S
O176 Mn171 2.251 . S
O176 C181 1.241 1_556 S
O177 Mn171 2.087 . S
O177 C182 1.256 . S
C178 O184 1.278 . S
C178 O185 1.241 . S
C179 O165 1.244 . S
C179 O167 1.256 . S
C180 O169 1.239 . S
C180 O173 1.256 . S
C181 O170 1.278 . S
C181 O176 1.241 1_554 S
C182 O172 1.244 . S
C182 O177 1.256 . S
C183 O174 1.239 . S
C183 O175 1.256 . S
O184 Mn166 2.221 . S
O184 Mn168 2.290 . S
O184 C178 1.278 . S
O185 Mn168 2.251 . S
O185 C178 1.241 . S
C186 C187 1.170 . S
C186 C188 1.380 . S
C187 C186 1.170 . S
C188 C186 1.380 . S
C188 C189 1.170 . S
C189 C188 1.170 . S
C190 C191 1.170 . S
C190 C192 1.380 . S
C191 C190 1.170 . S
C192 C190 1.380 . S
C192 C193 1.170 . S
C193 C192 1.170 . S
C194 C195 1.170 . S
C194 C196 1.380 . S
C195 C194 1.170 . S
C196 C194 1.380 . S
C196 C197 1.170 . S
C197 C196 1.170 . S
C198 C199 1.167 1_554 S
C198 C200 1.384 . S
C199 C198 1.167 1_556 S
C200 C198 1.384 . S
C200 C201 1.170 . S
C201 C200 1.170 . S
C202 C203 1.170 . S
C202 C204 1.380 . S
C203 C202 1.170 . S
C204 C202 1.380 . S
C204 C205 1.170 . S
C205 C204 1.170 . S
C206 C207 1.170 . S
C206 C208 1.380 . S
C207 C206 1.170 . S
C208 C206 1.380 . S
C208 C209 1.170 . S
C209 C208 1.170 . S
C210 C211 1.170 . S
C210 C212 1.380 . S
C211 C210 1.170 . S
C212 C210 1.380 . S
C212 C213 1.170 . S
C213 C212 1.170 . S
C214 C215 1.170 . S
C214 C216 1.380 . S
C215 C214 1.170 . S
C216 C214 1.380 . S
C216 C217 1.170 . S
C217 C216 1.170 . S
C218 C219 1.170 . S
C218 C220 1.380 . S
C219 C218 1.170 . S
C220 C218 1.380 . S
C220 C221 1.170 . S
C221 C220 1.170 . S
C222 C223 1.170 . S
C222 C224 1.380 . S
C223 C222 1.170 . S
C224 C222 1.380 . S
C224 C225 1.170 . S
C225 C224 1.170 . S
C226 C227 1.170 . S
C226 C228 1.380 . S
C227 C226 1.170 . S
C228 C226 1.380 . S
C228 C229 1.170 . S
C229 C228 1.170 . S
C230 C231 1.170 . S
C230 C232 1.380 . S
C231 C230 1.170 . S
C232 C230 1.380 . S
C232 C233 1.170 . S
C233 C232 1.170 . S
C189 C160 1.419 . S
C187 C133 1.540 . S
C191 C25 1.583 . S
C193 C181 1.406 . S
C195 C61 1.701 . S
C197 C157 1.483 . S
C199 C97 1.659 . S
C201 C178 1.513 . S
C205 C162 1.689 . S
C203 C1 1.677 . S
C209 C182 1.619 . S
C207 C67 1.634 . S
C211 C103 1.579 . S
C213 C158 1.502 . S
C215 C109 1.607 . S
C217 C180 1.560 . S
C221 C179 1.547 . S
C219 C37 1.600 . S
C225 C161 1.595 . S
C223 C73 1.586 . S
C229 C183 1.688 . S
C227 C139 1.625 . S
C231 C31 1.661 . S
C233 C159 1.551 . S
