# Generated by pormake.
# Topology pth, (4,4)-cn, num edge types: 1
# Building blocks:
#     Node 0, Type 0, BuildingBlock: GALJAG_clean_sbu_0, # of connection points: 4
#     Node 1, Type 0, BuildingBlock: GALJAG_clean_sbu_0, # of connection points: 4
#     Node 2, Type 0, BuildingBlock: GALJAG_clean_sbu_0, # of connection points: 4
#     Node 3, Type 1, BuildingBlock: MIFKUJ_clean_linker_1, # of connection points: 4
#     Node 4, Type 1, BuildingBlock: MIFKUJ_clean_linker_1, # of connection points: 4
#     Node 5, Type 1, BuildingBlock: MIFKUJ_clean_linker_1, # of connection points: 4
#     Edge 6, Type (0, 1), None
#     Edge 7, Type (0, 1), None
#     Edge 8, Type (0, 1), None
#     Edge 9, Type (0, 1), None
#     Edge 10, Type (0, 1), None
#     Edge 11, Type (0, 1), None
#     Edge 12, Type (0, 1), None
#     Edge 13, Type (0, 1), None
#     Edge 14, Type (0, 1), None
#     Edge 15, Type (0, 1), None
#     Edge 16, Type (0, 1), None
#     Edge 17, Type (0, 1), None
# Relax obj value: 0.002
# Max RMSD: 0.043
# Mean RMSD: 0.028
data_MOF--net-pth--node1-GALJAG_clean_sbu_0--node2-MIFKUJ_clean_linker_1--edge1-none
_symmetry_space_group_name_H-M    P1
_symmetry_Int_Tables_number       1
_symmetry_cell_setting            triclinic
loop_
_symmetry_equiv_pos_as_xyz
'x, y, z'
_cell_length_a     16.26097
_cell_length_b     16.261627
_cell_length_c     33.556847
_cell_angle_alpha  90.207213
_cell_angle_beta   90.15307
_cell_angle_gamma 120.00103
loop_
_atom_site_label
_atom_site_type_symbol
_atom_site_fract_x
_atom_site_fract_y
_atom_site_fract_z
_atom_type_partial_charge
In0 In 0.00598 0.00269 0.03863 0.0
O1 O 0.93385 0.08185 0.0632 0.0
O2 O 0.06597 0.11186 0.08871 0.0
C3 C 0.87203 0.87571 0.98878 0.0
C4 C 0.13965 0.12824 0.98907 0.0
C5 C 0.01383 0.87696 0.08834 0.0
O6 O 0.85475 0.92352 0.0137 0.0
O7 O 0.95687 0.89333 0.98866 0.0
O8 O 0.07851 0.92428 0.06343 0.0
O9 O 0.94649 0.89442 0.08854 0.0
C10 C 0.99876 0.1295 0.08832 0.0
O11 O 0.157 0.0811 0.01419 0.0
O12 O 0.05483 0.11074 0.98862 0.0
In13 In 0.00792 0.00603 0.37198 0.0
O14 O 0.08018 0.15722 0.34765 0.0
O15 O 0.94828 0.05489 0.32193 0.0
C16 C 0.14142 0.01291 0.42186 0.0
C17 C 0.8738 0.99782 0.42149 0.0
C18 C 0.00038 0.87214 0.3221 0.0
O19 O 0.15894 0.07812 0.39717 0.0
O20 O 0.05657 0.94568 0.42176 0.0
O21 O 0.93551 0.85499 0.34694 0.0
O22 O 0.06777 0.95693 0.32205 0.0
C23 C 0.01546 0.13976 0.32245 0.0
O24 O 0.8567 0.93346 0.39615 0.0
O25 O 0.95861 0.06514 0.42218 0.0
In26 In 0.00459 0.99605 0.70528 0.0
O27 O 0.92549 0.84489 0.7297 0.0
O28 O 0.89637 0.94753 0.75519 0.0
C29 C 0.13104 0.98932 0.65556 0.0
C30 C 0.8785 0.00438 0.6556 0.0
C31 C 0.13098 0.13019 0.7552 0.0
O32 O 0.0837 0.92418 0.68029 0.0
O33 O 0.11314 0.05635 0.65555 0.0
O34 O 0.08301 0.14709 0.73026 0.0
O35 O 0.11385 0.0455 0.75534 0.0
C36 C 0.87844 0.86259 0.75477 0.0
O37 O 0.92618 0.06886 0.68088 0.0
O38 O 0.89566 0.93683 0.65505 0.0
H39 H 0.13495 0.36732 0.18446 0.0
H40 H 0.1308 0.23946 0.14425 0.0
H41 H 0.86726 0.18702 0.09017 0.0
H42 H 0.87144 0.31444 0.13076 0.0
H43 H 0.00669 0.50365 0.1314 0.0
H44 H 0.14335 0.4515 0.28004 0.0
H45 H 0.14714 0.32874 0.3207 0.0
H46 H 0.88366 0.11713 0.26646 0.0
H47 H 0.87988 0.24036 0.22621 0.0
H48 H 0.87268 0.55961 0.27952 0.0
H49 H 0.86893 0.68318 0.32 0.0
H50 H 0.13188 0.89387 0.2665 0.0
H51 H 0.13556 0.76979 0.22637 0.0
H52 H 0.0084 0.50583 0.27921 0.0
H53 H 0.87929 0.64109 0.18418 0.0
H54 H 0.8826 0.768 0.14401 0.0
H55 H 0.14546 0.81966 0.09035 0.0
H56 H 0.14211 0.69321 0.13089 0.0
C57 C 0.00324 0.34996 0.16074 0.0
C58 C 0.07582 0.32758 0.16426 0.0
C59 C 0.07341 0.25468 0.1412 0.0
C60 C 0.99859 0.20322 0.1141 0.0
C61 C 0.92567 0.2253 0.11085 0.0
C62 C 0.92818 0.29826 0.13388 0.0
C63 C 0.00622 0.42869 0.18426 0.0
C64 C 0.00707 0.50412 0.16374 0.0
C65 C 0.00887 0.43038 0.2264 0.0
C66 C 0.01162 0.35493 0.24998 0.0
C67 C 0.08654 0.37857 0.2769 0.0
C68 C 0.08882 0.3084 0.29998 0.0
C69 C 0.01582 0.21339 0.2967 0.0
C70 C 0.94112 0.18975 0.26954 0.0
C71 C 0.93893 0.25997 0.24645 0.0
C72 C 0.00414 0.65564 0.24984 0.0
C73 C 0.92939 0.63251 0.2765 0.0
C74 C 0.92712 0.70315 0.29947 0.0
C75 C -1e-05 0.79813 0.29635 0.0
C76 C 0.07453 0.82128 0.26944 0.0
C77 C 0.07668 0.75057 0.24644 0.0
C78 C 0.00673 0.57968 0.22634 0.0
C79 C 0.00806 0.50536 0.24687 0.0
C80 C 0.00836 0.58012 0.18421 0.0
C81 C 0.01072 0.65815 0.16066 0.0
C82 C 0.93808 0.68045 0.16408 0.0
C83 C 0.94001 0.75281 0.14104 0.0
C84 C 0.01442 0.80379 0.11408 0.0
C85 C 0.08737 0.78175 0.11092 0.0
C86 C 0.08533 0.70934 0.13393 0.0
H87 H 0.77143 0.13009 0.51864 0.0
H88 H 0.8955 0.12775 0.47835 0.0
H89 H 0.68483 0.86635 0.42236 0.0
H90 H 0.56128 0.86877 0.46299 0.0
H91 H 0.50744 0.00451 0.46475 0.0
H92 H 0.69529 0.13405 0.61397 0.0
H93 H 0.82167 0.13632 0.65455 0.0
H94 H 0.76928 0.87429 0.59885 0.0
H95 H 0.64248 0.87214 0.55857 0.0
H96 H 0.31633 0.86328 0.61214 0.0
H97 H 0.18883 0.85802 0.65267 0.0
H98 H 0.24092 0.12262 0.60081 0.0
H99 H 0.36889 0.12792 0.56072 0.0
H100 H 0.50537 0.99808 0.61252 0.0
H101 H 0.242 0.87446 0.51665 0.0
H102 H 0.11875 0.87957 0.47658 0.0
H103 H 0.33039 0.14458 0.42488 0.0
H104 H 0.45319 0.13946 0.46538 0.0
C105 C 0.6573 0.99933 0.49394 0.0
C106 C 0.75222 0.07184 0.49799 0.0
C107 C 0.82291 0.07047 0.47488 0.0
C108 C 0.79976 0.99675 0.44724 0.0
C109 C 0.7048 0.92393 0.44346 0.0
C110 C 0.63417 0.92543 0.46652 0.0
C111 C 0.58133 0.00115 0.51752 0.0
C112 C 0.50699 0.00313 0.49708 0.0
C113 C 0.58178 0.00141 0.55966 0.0
C114 C 0.65988 0.00318 0.58316 0.0
C115 C 0.71125 0.07724 0.61048 0.0
C116 C 0.78362 0.07865 0.63352 0.0
C117 C 0.80538 0.00557 0.62982 0.0
C118 C 0.75425 0.93174 0.60226 0.0
C119 C 0.68197 0.93048 0.57916 0.0
C120 C 0.35168 0.99571 0.58328 0.0
C121 C 0.30007 0.92004 0.6095 0.0
C122 C 0.22705 0.91689 0.6325 0.0
C123 C 0.2048 0.98975 0.62983 0.0
C124 C 0.25622 0.06522 0.60338 0.0
C125 C 0.3292 0.06829 0.58039 0.0
C126 C 0.43035 0.99928 0.55973 0.0
C127 C 0.50578 0.99945 0.58019 0.0
C128 C 0.43204 0.0033 0.51762 0.0
C129 C 0.35659 0.00684 0.49414 0.0
C130 C 0.26161 0.93412 0.49702 0.0
C131 C 0.19138 0.9371 0.47404 0.0
C132 C 0.21503 0.01261 0.44763 0.0
C133 C 0.31005 0.08566 0.44502 0.0
C134 C 0.38024 0.0826 0.46799 0.0
H135 H 0.36882 0.23369 0.85134 0.0
H136 H 0.24108 0.10912 0.81117 0.0
H137 H 0.188 0.31901 0.75701 0.0
H138 H 0.31532 0.44304 0.79749 0.0
H139 H 0.50518 0.4968 0.79805 0.0
H140 H 0.45167 0.31146 0.94698 0.0
H141 H 0.32859 0.18554 0.98757 0.0
H142 H 0.11738 0.2366 0.93291 0.0
H143 H 0.24096 0.36297 0.89267 0.0
H144 H 0.55975 0.69024 0.94587 0.0
H145 H 0.68301 0.81819 0.98641 0.0
H146 H 0.89413 0.76518 0.93336 0.0
H147 H 0.7704 0.63677 0.89321 0.0
H148 H 0.50586 0.50109 0.94586 0.0
H149 H 0.6424 0.76307 0.85054 0.0
H150 H 0.76944 0.88582 0.81032 0.0
H151 H 0.82083 0.67352 0.7569 0.0
H152 H 0.69426 0.55121 0.79755 0.0
C153 C 0.35116 0.34745 0.8275 0.0
C154 C 0.32898 0.25261 0.83111 0.0
C155 C 0.25615 0.18164 0.80809 0.0
C156 C 0.20455 0.20443 0.78099 0.0
C157 C 0.2264 0.29931 0.77769 0.0
C158 C 0.2993 0.37022 0.80066 0.0
C159 C 0.42976 0.42371 0.85096 0.0
C160 C 0.50538 0.49774 0.83039 0.0
C161 C 0.43098 0.42386 0.8931 0.0
C162 C 0.35533 0.34616 0.91669 0.0
C163 C 0.37876 0.29532 0.94373 0.0
C164 C 0.3084 0.22321 0.96677 0.0
C165 C 0.21342 0.20116 0.96334 0.0
C166 C 0.18998 0.25182 0.93609 0.0
C167 C 0.2604 0.32386 0.91301 0.0
C168 C 0.65604 0.65437 0.91642 0.0
C169 C 0.63268 0.70641 0.94296 0.0
C170 C 0.70314 0.77967 0.96597 0.0
C171 C 0.79815 0.80175 0.96299 0.0
C172 C 0.82151 0.74997 0.93619 0.0
C173 C 0.751 0.67675 0.91317 0.0
C174 C 0.58027 0.5753 0.89295 0.0
C175 C 0.50573 0.50016 0.91352 0.0
C176 C 0.58118 0.57301 0.85082 0.0
C177 C 0.65935 0.64817 0.82721 0.0
C178 C 0.68174 0.74319 0.8305 0.0
C179 C 0.75417 0.81315 0.80742 0.0
C180 C 0.80512 0.78919 0.7805 0.0
C181 C 0.78295 0.69411 0.77743 0.0
C182 C 0.71048 0.62419 0.80051 0.0
loop_
_geom_bond_atom_site_label_1
_geom_bond_atom_site_label_2
_geom_bond_distance
_geom_bond_site_symmetry_2
_ccdc_geom_bond_type
In0 O1 2.294 1_455 S
In0 O2 2.326 . S
In0 O6 2.266 1_445 S
In0 O7 2.326 1_444 S
In0 O8 2.266 1_545 S
In0 O9 2.326 1_445 S
In0 O11 2.294 . S
In0 O12 2.326 1_554 S
O1 In0 2.294 1_655 S
O1 C10 1.240 1_655 S
O2 In0 2.326 . S
O2 C10 1.252 . S
C3 O6 1.252 1_556 S
C3 O7 1.260 . S
C4 O11 1.240 1_556 S
C4 O12 1.252 . S
C5 O8 1.252 1_655 S
C5 O9 1.260 . S
O6 In0 2.266 1_665 S
O6 C3 1.252 1_554 S
O7 In0 2.326 1_666 S
O7 C3 1.260 . S
O8 In0 2.266 1_565 S
O8 C5 1.252 1_455 S
O9 In0 2.326 1_665 S
O9 C5 1.260 . S
C10 O1 1.240 1_455 S
C10 O2 1.252 . S
O11 In0 2.294 . S
O11 C4 1.240 1_554 S
O12 In0 2.326 1_556 S
O12 C4 1.252 . S
In13 O14 2.294 . S
In13 O15 2.326 1_455 S
In13 O19 2.266 . S
In13 O20 2.326 1_545 S
In13 O21 2.266 1_445 S
In13 O22 2.326 1_545 S
In13 O24 2.294 1_445 S
In13 O25 2.326 1_455 S
O14 In13 2.294 . S
O14 C23 1.240 1_455 S
O15 In13 2.326 1_655 S
O15 C23 1.252 . S
C16 O19 1.252 1_565 S
C16 O20 1.260 . S
C17 O24 1.240 1_545 S
C17 O25 1.252 . S
C18 O21 1.252 1_455 S
C18 O22 1.260 . S
O19 In13 2.266 . S
O19 C16 1.252 1_545 S
O20 In13 2.326 1_565 S
O20 C16 1.260 . S
O21 In13 2.266 1_665 S
O21 C18 1.252 1_655 S
O22 In13 2.326 1_565 S
O22 C18 1.260 . S
C23 O14 1.240 1_655 S
C23 O15 1.252 . S
O24 In13 2.294 1_665 S
O24 C17 1.240 1_565 S
O25 In13 2.326 1_655 S
O25 C17 1.252 . S
In26 O27 2.291 1_445 S
In26 O28 2.327 1_445 S
In26 O32 2.263 1_545 S
In26 O33 2.326 . S
In26 O34 2.269 . S
In26 O35 2.325 . S
In26 O37 2.297 1_455 S
In26 O38 2.326 1_445 S
O27 In26 2.291 1_665 S
O27 C36 1.240 . S
O28 In26 2.327 1_665 S
O28 C36 1.252 . S
C29 O32 1.252 1_545 S
C29 O33 1.260 . S
C30 O37 1.240 1_565 S
C30 O38 1.252 . S
C31 O34 1.252 . S
C31 O35 1.260 . S
O32 In26 2.263 1_565 S
O32 C29 1.252 1_565 S
O33 In26 2.326 . S
O33 C29 1.260 . S
O34 In26 2.269 . S
O34 C31 1.252 . S
O35 In26 2.325 . S
O35 C31 1.260 . S
C36 O27 1.240 . S
C36 O28 1.252 . S
O37 In26 2.297 1_655 S
O37 C30 1.240 1_545 S
O38 In26 2.326 1_665 S
O38 C30 1.252 . S
H39 C58 0.949 . S
H40 C59 0.950 . S
H41 C61 0.950 . S
H42 C62 0.950 . S
H43 C64 0.950 . S
H44 C67 0.950 . S
H45 C68 0.950 . S
H46 C70 0.951 . S
H47 C71 0.949 . S
H48 C73 0.949 . S
H49 C74 0.950 . S
H50 C76 0.950 . S
H51 C77 0.950 . S
H52 C79 0.950 . S
H53 C82 0.950 . S
H54 C83 0.950 . S
H55 C85 0.951 . S
H56 C86 0.949 . S
C57 C58 1.376 . S
C57 C62 1.386 1_455 S
C57 C63 1.483 . S
C58 H39 0.949 . S
C58 C57 1.376 . S
C58 C59 1.397 . S
C59 H40 0.950 . S
C59 C58 1.397 . S
C59 C60 1.391 . S
C60 C59 1.391 . S
C60 C61 1.405 1_455 S
C61 H41 0.950 . S
C61 C60 1.405 1_655 S
C61 C62 1.367 . S
C62 H42 0.950 . S
C62 C57 1.386 1_655 S
C62 C61 1.367 . S
C63 C57 1.483 . S
C63 C64 1.382 . S
C63 C65 1.403 1_455 S
C64 H43 0.950 . S
C64 C63 1.382 . S
C64 C80 1.411 . S
C65 C63 1.403 1_655 S
C65 C66 1.489 . S
C65 C79 1.411 . S
C66 C65 1.489 . S
C66 C67 1.383 1_655 S
C66 C71 1.382 . S
C67 H44 0.950 . S
C67 C66 1.383 1_455 S
C67 C68 1.395 . S
C68 H45 0.950 . S
C68 C67 1.395 . S
C68 C69 1.288 1_455 S
C69 C68 1.288 1_655 S
C69 C70 1.392 . S
C70 H46 0.951 . S
C70 C69 1.392 . S
C70 C71 1.392 . S
C71 H47 0.949 . S
C71 C66 1.382 . S
C71 C70 1.392 . S
C72 C73 1.376 . S
C72 C77 1.386 1_655 S
C72 C78 1.488 . S
C73 H48 0.949 . S
C73 C72 1.376 . S
C73 C74 1.397 . S
C74 H49 0.950 . S
C74 C73 1.397 . S
C74 C75 1.391 1_655 S
C75 C74 1.391 1_455 S
C75 C76 1.405 . S
C76 H50 0.950 . S
C76 C75 1.405 . S
C76 C77 1.367 . S
C77 H51 0.950 . S
C77 C72 1.386 1_455 S
C77 C76 1.367 . S
C78 C72 1.488 . S
C78 C79 1.378 . S
C78 C80 1.401 1_655 S
C79 H52 0.950 . S
C79 C65 1.411 . S
C79 C78 1.378 . S
C80 C64 1.411 . S
C80 C78 1.401 1_455 S
C80 C81 1.489 . S
C81 C80 1.489 . S
C81 C82 1.383 1_455 S
C81 C86 1.382 . S
C82 H53 0.950 . S
C82 C81 1.383 1_655 S
C82 C83 1.395 . S
C83 H54 0.950 . S
C83 C82 1.395 . S
C83 C84 1.288 1_655 S
C84 C83 1.288 1_455 S
C84 C85 1.392 . S
C85 H55 0.951 . S
C85 C84 1.392 . S
C85 C86 1.392 . S
C86 H56 0.949 . S
C86 C81 1.382 . S
C86 C85 1.392 . S
H87 C106 0.949 . S
H88 C107 0.950 . S
H89 C109 0.950 . S
H90 C110 0.950 . S
H91 C112 0.950 . S
H92 C115 0.950 . S
H93 C116 0.950 . S
H94 C118 0.951 . S
H95 C119 0.949 . S
H96 C121 0.949 . S
H97 C122 0.950 . S
H98 C124 0.950 . S
H99 C125 0.950 . S
H100 C127 0.950 . S
H101 C130 0.950 . S
H102 C131 0.950 . S
H103 C133 0.951 . S
H104 C134 0.949 . S
C105 C106 1.376 . S
C105 C110 1.386 1_545 S
C105 C111 1.483 . S
C106 H87 0.949 . S
C106 C105 1.376 . S
C106 C107 1.397 . S
C107 H88 0.950 . S
C107 C106 1.397 . S
C107 C108 1.391 . S
C108 C107 1.391 . S
C108 C109 1.405 1_545 S
C109 H89 0.950 . S
C109 C108 1.405 1_565 S
C109 C110 1.367 . S
C110 H90 0.950 . S
C110 C105 1.386 1_565 S
C110 C109 1.367 . S
C111 C105 1.483 . S
C111 C112 1.382 . S
C111 C113 1.403 1_545 S
C112 H91 0.950 . S
C112 C111 1.382 . S
C112 C128 1.411 . S
C113 C111 1.403 1_565 S
C113 C114 1.489 . S
C113 C127 1.411 . S
C114 C113 1.489 . S
C114 C115 1.383 1_565 S
C114 C119 1.382 . S
C115 H92 0.950 . S
C115 C114 1.383 1_545 S
C115 C116 1.395 . S
C116 H93 0.950 . S
C116 C115 1.395 . S
C116 C117 1.288 1_545 S
C117 C116 1.288 1_565 S
C117 C118 1.392 . S
C118 H94 0.951 . S
C118 C117 1.392 . S
C118 C119 1.392 . S
C119 H95 0.949 . S
C119 C114 1.382 . S
C119 C118 1.392 . S
C120 C121 1.376 . S
C120 C125 1.386 1_565 S
C120 C126 1.483 . S
C121 H96 0.949 . S
C121 C120 1.376 . S
C121 C122 1.397 . S
C122 H97 0.950 . S
C122 C121 1.397 . S
C122 C123 1.391 . S
C123 C122 1.391 . S
C123 C124 1.405 1_565 S
C124 H98 0.950 . S
C124 C123 1.405 1_545 S
C124 C125 1.367 . S
C125 H99 0.950 . S
C125 C120 1.386 1_545 S
C125 C124 1.367 . S
C126 C120 1.483 . S
C126 C127 1.382 . S
C126 C128 1.403 1_565 S
C127 H100 0.950 . S
C127 C113 1.411 . S
C127 C126 1.382 . S
C128 C112 1.411 . S
C128 C126 1.403 1_545 S
C128 C129 1.489 . S
C129 C128 1.489 . S
C129 C130 1.383 1_545 S
C129 C134 1.382 . S
C130 H101 0.950 . S
C130 C129 1.383 1_565 S
C130 C131 1.395 . S
C131 H102 0.950 . S
C131 C130 1.395 . S
C131 C132 1.288 1_565 S
C132 C131 1.288 1_545 S
C132 C133 1.392 . S
C133 H103 0.951 . S
C133 C132 1.392 . S
C133 C134 1.392 . S
C134 H104 0.949 . S
C134 C129 1.382 . S
C134 C133 1.392 . S
H135 C154 0.949 . S
H136 C155 0.950 . S
H137 C157 0.950 . S
H138 C158 0.950 . S
H139 C160 0.950 . S
H140 C163 0.950 . S
H141 C164 0.950 . S
H142 C166 0.951 . S
H143 C167 0.949 . S
H144 C169 0.949 . S
H145 C170 0.950 . S
H146 C172 0.950 . S
H147 C173 0.950 . S
H148 C175 0.950 . S
H149 C178 0.950 . S
H150 C179 0.950 . S
H151 C181 0.951 . S
H152 C182 0.949 . S
C153 C154 1.376 . S
C153 C158 1.386 . S
C153 C159 1.483 . S
C154 H135 0.949 . S
C154 C153 1.376 . S
C154 C155 1.397 . S
C155 H136 0.950 . S
C155 C154 1.397 . S
C155 C156 1.391 . S
C156 C155 1.391 . S
C156 C157 1.405 . S
C157 H137 0.950 . S
C157 C156 1.405 . S
C157 C158 1.367 . S
C158 H138 0.950 . S
C158 C153 1.386 . S
C158 C157 1.367 . S
C159 C153 1.483 . S
C159 C160 1.382 . S
C159 C161 1.403 . S
C160 H139 0.950 . S
C160 C159 1.382 . S
C160 C176 1.411 . S
C161 C159 1.403 . S
C161 C162 1.489 . S
C161 C175 1.411 . S
C162 C161 1.489 . S
C162 C163 1.383 . S
C162 C167 1.382 . S
C163 H140 0.950 . S
C163 C162 1.383 . S
C163 C164 1.395 . S
C164 H141 0.950 . S
C164 C163 1.395 . S
C164 C165 1.288 . S
C165 C164 1.288 . S
C165 C166 1.392 . S
C166 H142 0.951 . S
C166 C165 1.392 . S
C166 C167 1.392 . S
C167 H143 0.949 . S
C167 C162 1.382 . S
C167 C166 1.392 . S
C168 C169 1.376 . S
C168 C173 1.386 . S
C168 C174 1.483 . S
C169 H144 0.949 . S
C169 C168 1.376 . S
C169 C170 1.397 . S
C170 H145 0.950 . S
C170 C169 1.397 . S
C170 C171 1.391 . S
C171 C170 1.391 . S
C171 C172 1.405 . S
C172 H146 0.950 . S
C172 C171 1.405 . S
C172 C173 1.367 . S
C173 H147 0.950 . S
C173 C168 1.386 . S
C173 C172 1.367 . S
C174 C168 1.483 . S
C174 C175 1.382 . S
C174 C176 1.403 . S
C175 H148 0.950 . S
C175 C161 1.411 . S
C175 C174 1.382 . S
C176 C160 1.411 . S
C176 C174 1.403 . S
C176 C177 1.489 . S
C177 C176 1.489 . S
C177 C178 1.383 . S
C177 C182 1.382 . S
C178 H149 0.950 . S
C178 C177 1.383 . S
C178 C179 1.395 . S
C179 H150 0.950 . S
C179 C178 1.395 . S
C179 C180 1.288 . S
C180 C179 1.288 . S
C180 C181 1.392 . S
C181 H151 0.951 . S
C181 C180 1.392 . S
C181 C182 1.392 . S
C182 H152 0.949 . S
C182 C177 1.382 . S
C182 C181 1.392 . S
C60 C10 1.540 . S
C17 C108 1.540 . S
C36 C180 1.554 . S
C5 C84 1.550 1_655 S
C132 C16 1.550 1_545 S
C31 C156 1.540 . S
C117 C30 1.526 . S
C3 C171 1.545 . S
C75 C18 1.550 . S
C123 C29 1.549 1_565 S
C165 C4 1.527 . S
C23 C69 1.526 . S
