# Generated by pormake.
# Topology dag, (6,3)-cn, num edge types: 1
# Building blocks:
#     Node 0, Type 0, BuildingBlock: OJICUG_clean_sbu_0, # of connection points: 6
#     Node 1, Type 0, BuildingBlock: OJICUG_clean_sbu_0, # of connection points: 6
#     Node 2, Type 0, BuildingBlock: OJICUG_clean_sbu_0, # of connection points: 6
#     Node 3, Type 0, BuildingBlock: OJICUG_clean_sbu_0, # of connection points: 6
#     Node 4, Type 1, BuildingBlock: BETDIP_clean_linker_0, # of connection points: 3
#     Node 5, Type 1, BuildingBlock: BETDIP_clean_linker_0, # of connection points: 3
#     Node 6, Type 1, BuildingBlock: BETDIP_clean_linker_0, # of connection points: 3
#     Node 7, Type 1, BuildingBlock: BETDIP_clean_linker_0, # of connection points: 3
#     Node 8, Type 1, BuildingBlock: BETDIP_clean_linker_0, # of connection points: 3
#     Node 9, Type 1, BuildingBlock: BETDIP_clean_linker_0, # of connection points: 3
#     Node 10, Type 1, BuildingBlock: BETDIP_clean_linker_0, # of connection points: 3
#     Node 11, Type 1, BuildingBlock: BETDIP_clean_linker_0, # of connection points: 3
#     Edge 12, Type (0, 1), None
#     Edge 13, Type (0, 1), None
#     Edge 14, Type (0, 1), None
#     Edge 15, Type (0, 1), None
#     Edge 16, Type (0, 1), None
#     Edge 17, Type (0, 1), None
#     Edge 18, Type (0, 1), None
#     Edge 19, Type (0, 1), None
#     Edge 20, Type (0, 1), None
#     Edge 21, Type (0, 1), None
#     Edge 22, Type (0, 1), None
#     Edge 23, Type (0, 1), None
#     Edge 24, Type (0, 1), None
#     Edge 25, Type (0, 1), None
#     Edge 26, Type (0, 1), None
#     Edge 27, Type (0, 1), None
#     Edge 28, Type (0, 1), None
#     Edge 29, Type (0, 1), None
#     Edge 30, Type (0, 1), None
#     Edge 31, Type (0, 1), None
#     Edge 32, Type (0, 1), None
#     Edge 33, Type (0, 1), None
#     Edge 34, Type (0, 1), None
#     Edge 35, Type (0, 1), None
# Relax obj value: 0.086
# Max RMSD: 0.130
# Mean RMSD: 0.112
data_MOF--net-dag--node1-OJICUG_clean_sbu_0--node2-BETDIP_clean_linker_0--edge1-none
_symmetry_space_group_name_H-M    P1
_symmetry_Int_Tables_number       1
_symmetry_cell_setting            triclinic
loop_
_symmetry_equiv_pos_as_xyz
'x, y, z'
_cell_length_a     17.525129
_cell_length_b     17.157453
_cell_length_c     18.272682
_cell_angle_alpha  85.753616
_cell_angle_beta   89.996823
_cell_angle_gamma 90.000214
loop_
_atom_site_label
_atom_site_type_symbol
_atom_site_fract_x
_atom_site_fract_y
_atom_site_fract_z
_atom_type_partial_charge
Sc0 Sc 0.0676 0.92188 0.00488 0.0
Sc1 Sc 0.12351 0.7331 0.01122 0.0
Sc2 Sc 0.2512 0.88683 0.96202 0.0
O3 O 0.14874 0.84584 0.99166 0.0
C4 C 0.14316 0.99394 0.86953 0.0
C5 C 0.97509 0.80485 0.9258 0.0
C6 C 0.23375 0.7307 0.87831 0.0
C7 C 0.03722 0.8084 0.13273 0.0
C8 C 0.19682 0.00372 0.08047 0.0
C9 C 0.2916 0.74865 0.07463 0.0
O10 O 0.11954 0.0072 0.93236 0.0
O11 O 0.00613 0.74976 0.96692 0.0
O12 O 0.27199 0.78775 0.89973 0.0
O13 O 0.00722 0.84345 0.07743 0.0
O14 O 0.2396 0.99052 0.0259 0.0
O15 O 0.23533 0.70861 0.05456 0.0
O16 O 0.13486 0.96569 0.09213 0.0
O17 O 0.08665 0.75569 0.12377 0.0
O18 O 0.30108 0.82141 0.05624 0.0
O19 O 0.00588 0.87239 0.91746 0.0
O20 O 0.19967 0.94819 0.86333 0.0
O21 O 0.16799 0.71012 0.90368 0.0
Sc22 Sc 0.75122 0.59433 0.57011 0.0
Sc23 Sc 0.62348 0.74808 0.52116 0.0
Sc24 Sc 0.56761 0.55928 0.52732 0.0
O25 O 0.64874 0.63532 0.54058 0.0
C26 C 0.69681 0.47757 0.45157 0.0
C27 C 0.79154 0.73265 0.45762 0.0
C28 C 0.53716 0.6729 0.39959 0.0
C29 C 0.73378 0.75033 0.65403 0.0
C30 C 0.64324 0.48707 0.66255 0.0
C31 C 0.4751 0.6762 0.60657 0.0
O32 O 0.73961 0.49072 0.50612 0.0
O33 O 0.73527 0.77264 0.47778 0.0
O34 O 0.50718 0.63779 0.45488 0.0
O35 O 0.77202 0.69332 0.6325 0.0
O36 O 0.61959 0.47389 0.59972 0.0
O37 O 0.50612 0.73133 0.5655 0.0
O38 O 0.69975 0.53284 0.66878 0.0
O39 O 0.66801 0.77092 0.62871 0.0
O40 O 0.50591 0.60865 0.61483 0.0
O41 O 0.80104 0.65988 0.47593 0.0
O42 O 0.63484 0.5156 0.43997 0.0
O43 O 0.58658 0.72561 0.40858 0.0
Sc44 Sc 0.8709 0.23874 -0.00274 0.0
Sc45 Sc 0.75543 0.09214 0.09198 0.0
Sc46 Sc 0.92788 0.05233 0.02521 0.0
O47 O 0.8497 0.13026 0.03901 0.0
C48 C 0.96353 0.1538 0.88466 0.0
C49 C 0.69629 0.20445 0.95712 0.0
C50 C 0.79089 0.96881 0.9736 0.0
C51 C 0.78513 0.2622 0.14863 0.0
C52 C 0.01992 0.17961 0.08745 0.0
C53 C 0.86985 0.98143 0.17156 0.0
O54 O 0.90867 0.20159 0.88902 0.0
O55 O 0.68597 0.14691 0.00447 0.0
O56 O 0.85018 0.00627 0.95038 0.0
O57 O 0.83313 0.28514 0.09903 0.0
O58 O 0.99317 0.11085 0.1017 0.0
O59 O 0.82213 0.03451 0.18491 0.0
O60 O 0.98813 0.23056 0.04207 0.0
O61 O 0.75086 0.19642 0.15069 0.0
O62 O 0.88341 0.96924 0.10597 0.0
O63 O 0.75733 0.24527 0.9517 0.0
O64 O 0.98935 0.11932 0.94246 0.0
O65 O 0.75583 0.98487 0.03232 0.0
Sc66 Sc 0.42784 0.42887 0.50692 0.0
Sc67 Sc 0.25539 0.38909 0.44015 0.0
Sc68 Sc 0.3709 0.24244 0.53473 0.0
O69 O 0.34967 0.35094 0.49307 0.0
C70 C 0.51988 0.30169 0.44451 0.0
C71 C 0.36978 0.49988 0.36064 0.0
C72 C 0.28511 0.2191 0.38335 0.0
C73 C 0.29085 0.51229 0.55865 0.0
C74 C 0.46355 0.32728 0.64737 0.0
C75 C 0.19628 0.27665 0.57494 0.0
O76 O 0.49312 0.37045 0.43034 0.0
O77 O 0.32208 0.44681 0.34725 0.0
O78 O 0.33311 0.19613 0.43293 0.0
O79 O 0.35014 0.47481 0.58183 0.0
O80 O 0.40869 0.27949 0.64299 0.0
O81 O 0.18595 0.33423 0.52764 0.0
O82 O 0.48935 0.36181 0.58958 0.0
O83 O 0.25578 0.4963 0.49992 0.0
O84 O 0.25734 0.23585 0.58032 0.0
O85 O 0.38332 0.51202 0.42625 0.0
O86 O 0.48811 0.25068 0.48988 0.0
O87 O 0.25083 0.28488 0.38135 0.0
H88 H 0.08871 0.24427 0.20254 0.0
H89 H 0.25602 0.06137 0.20901 0.0
H90 H 0.12812 0.12054 0.01227 0.0
H91 H 0.30225 0.11791 0.31454 0.0
C92 C 0.26728 0.16836 0.32406 0.0
C93 C 0.12312 0.20418 0.17333 0.0
C94 C 0.10115 0.18546 0.10362 0.0
C95 C 0.18445 0.16533 0.20904 0.0
C96 C 0.21782 0.10037 0.17748 0.0
C97 C 0.19593 0.08347 0.10589 0.0
C98 C 0.14676 0.13495 0.0662 0.0
N99 N 0.20396 0.19018 0.27889 0.0
H100 H 0.19804 0.57214 0.66144 0.0
H101 H 0.38291 0.72029 0.72107 0.0
H102 H 0.3812 0.62434 0.51191 0.0
H103 H 0.33382 0.67731 0.83185 0.0
C104 C 0.27254 0.68458 0.82567 0.0
C105 C 0.2483 0.6062 0.64564 0.0
C106 C 0.28767 0.59173 0.58184 0.0
C107 C 0.27934 0.65693 0.69423 0.0
C108 C 0.35357 0.68847 0.68057 0.0
C109 C 0.39097 0.67578 0.61437 0.0
C110 C 0.35169 0.63672 0.56165 0.0
N111 N 0.23735 0.66935 0.75878 0.0
H112 H 0.98801 0.71574 0.25579 0.0
H113 H 0.81884 0.88825 0.29599 0.0
H114 H 0.01531 0.95227 0.16714 0.0
H115 H 0.85599 0.83755 0.42379 0.0
C116 C 0.84879 0.77619 0.41409 0.0
C117 C 0.97123 0.77669 0.25261 0.0
C118 C 0.0074 0.831 0.20371 0.0
C119 C 0.90919 0.80094 0.29393 0.0
C120 C 0.87525 0.8753 0.27591 0.0
C121 C 0.91221 0.92921 0.2265 0.0
C122 C 0.98621 0.91013 0.20444 0.0
N123 N 0.87784 0.74812 0.34897 0.0
H124 H 0.5267 0.23062 0.76544 0.0
H125 H 0.70848 0.39552 0.77686 0.0
H126 H 0.4955 0.46837 0.68092 0.0
H127 H 0.57735 0.21015 0.91311 0.0
C128 C 0.63708 0.22294 0.90187 0.0
C129 C 0.54447 0.29123 0.76048 0.0
C130 C 0.50305 0.34701 0.71602 0.0
C131 C 0.61522 0.31334 0.79056 0.0
C132 C 0.64851 0.38524 0.76666 0.0
C133 C 0.60636 0.43985 0.72358 0.0
C134 C 0.52828 0.42502 0.71383 0.0
N135 N 0.66075 0.2605 0.83413 0.0
H136 H 0.58863 0.23715 0.32933 0.0
H137 H 0.75599 0.42 0.32296 0.0
H138 H 0.6281 0.36071 0.51969 0.0
H139 H 0.80228 0.36342 0.21742 0.0
C140 C 0.76728 0.313 0.20788 0.0
C141 C 0.62306 0.27721 0.35857 0.0
C142 C 0.6011 0.29587 0.4283 0.0
C143 C 0.6844 0.31606 0.32287 0.0
C144 C 0.71779 0.38099 0.35446 0.0
C145 C 0.6959 0.39784 0.42607 0.0
C146 C 0.64673 0.34634 0.46574 0.0
N147 N 0.70389 0.29126 0.253 0.0
H148 H 0.02671 0.25037 0.76654 0.0
H149 H 0.20842 0.08538 0.75517 0.0
H150 H 0.99542 0.01267 0.85118 0.0
H151 H 0.07735 0.27094 0.61899 0.0
C152 C 0.13708 0.25809 0.63019 0.0
C153 C 0.04446 0.18975 0.77152 0.0
C154 C 0.00301 0.13402 0.81601 0.0
C155 C 0.1152 0.1676 0.74144 0.0
C156 C 0.14845 0.09569 0.76537 0.0
C157 C 0.10629 0.04112 0.80849 0.0
C158 C 0.02821 0.05599 0.81824 0.0
N159 N 0.16076 0.22039 0.69786 0.0
H160 H 0.48797 0.76561 0.27656 0.0
H161 H 0.31884 0.59312 0.23621 0.0
H162 H 0.51524 0.52906 0.36513 0.0
H163 H 0.35619 0.64383 0.10843 0.0
C164 C 0.34891 0.70519 0.11814 0.0
C165 C 0.47118 0.70467 0.27971 0.0
C166 C 0.50733 0.65034 0.3286 0.0
C167 C 0.40918 0.68043 0.23835 0.0
C168 C 0.37523 0.60606 0.25633 0.0
C169 C 0.41216 0.55214 0.30574 0.0
C170 C 0.48615 0.57121 0.32784 0.0
N171 N 0.37786 0.73325 0.1833 0.0
H172 H 0.69807 0.9089 0.87087 0.0
H173 H 0.88291 0.76065 0.81135 0.0
H174 H 0.88119 0.85676 0.02043 0.0
H175 H 0.83387 0.80359 0.70055 0.0
C176 C 0.77258 0.79637 0.70672 0.0
C177 C 0.74831 0.87483 0.88669 0.0
C178 C 0.78768 0.88934 0.95049 0.0
C179 C 0.77934 0.82406 0.83814 0.0
C180 C 0.85357 0.79251 0.85182 0.0
C181 C 0.89096 0.80523 0.91801 0.0
C182 C 0.85168 0.84434 0.9707 0.0
N183 N 0.73737 0.81162 0.77359 0.0
loop_
_geom_bond_atom_site_label_1
_geom_bond_atom_site_label_2
_geom_bond_distance
_geom_bond_site_symmetry_2
_ccdc_geom_bond_type
Sc0 O3 2.025 . S
Sc0 O10 2.105 1_564 S
Sc0 O13 2.105 . S
Sc0 O16 2.105 1_565 S
Sc0 O19 2.105 1_454 S
Sc1 O3 2.025 . S
Sc1 O11 2.105 1_554 S
Sc1 O15 2.105 . S
Sc1 O17 2.105 . S
Sc1 O21 2.105 1_554 S
Sc2 O3 2.025 1_556 S
Sc2 O12 2.105 . S
Sc2 O14 2.105 1_556 S
Sc2 O18 2.105 1_556 S
Sc2 O20 2.105 . S
O3 Sc0 2.025 . S
O3 Sc1 2.025 . S
O3 Sc2 2.025 1_554 S
C4 O10 1.268 . S
C4 O20 1.268 1_545 S
C5 O11 1.268 1_655 S
C5 O19 1.268 . S
C6 O12 1.268 . S
C6 O21 1.268 . S
C7 O13 1.268 . S
C7 O17 1.268 . S
C8 O14 1.268 1_545 S
C8 O16 1.268 . S
C9 O15 1.268 . S
C9 O18 1.268 . S
O10 Sc0 2.105 1_546 S
O10 C4 1.268 . S
O11 Sc1 2.105 1_556 S
O11 C5 1.268 1_455 S
O12 Sc2 2.105 . S
O12 C6 1.268 . S
O13 Sc0 2.105 . S
O13 C7 1.268 . S
O14 Sc2 2.105 1_554 S
O14 C8 1.268 1_565 S
O15 Sc1 2.105 . S
O15 C9 1.268 . S
O16 Sc0 2.105 1_545 S
O16 C8 1.268 . S
O17 Sc1 2.105 . S
O17 C7 1.268 . S
O18 Sc2 2.105 1_554 S
O18 C9 1.268 . S
O19 Sc0 2.105 1_656 S
O19 C5 1.268 . S
O20 Sc2 2.105 . S
O20 C4 1.268 1_565 S
O21 Sc1 2.105 1_556 S
O21 C6 1.268 . S
Sc22 O25 2.025 . S
Sc22 O32 2.105 . S
Sc22 O35 2.105 . S
Sc22 O38 2.105 . S
Sc22 O41 2.105 . S
Sc23 O25 2.025 . S
Sc23 O33 2.105 . S
Sc23 O37 2.105 . S
Sc23 O39 2.105 . S
Sc23 O43 2.105 . S
Sc24 O25 2.025 . S
Sc24 O34 2.105 . S
Sc24 O36 2.105 . S
Sc24 O40 2.105 . S
Sc24 O42 2.105 . S
O25 Sc22 2.025 . S
O25 Sc23 2.025 . S
O25 Sc24 2.025 . S
C26 O32 1.268 . S
C26 O42 1.268 . S
C27 O33 1.268 . S
C27 O41 1.268 . S
C28 O34 1.268 . S
C28 O43 1.268 . S
C29 O35 1.268 . S
C29 O39 1.268 . S
C30 O36 1.268 . S
C30 O38 1.268 . S
C31 O37 1.268 . S
C31 O40 1.268 . S
O32 Sc22 2.105 . S
O32 C26 1.268 . S
O33 Sc23 2.105 . S
O33 C27 1.268 . S
O34 Sc24 2.105 . S
O34 C28 1.268 . S
O35 Sc22 2.105 . S
O35 C29 1.268 . S
O36 Sc24 2.105 . S
O36 C30 1.268 . S
O37 Sc23 2.105 . S
O37 C31 1.268 . S
O38 Sc22 2.105 . S
O38 C30 1.268 . S
O39 Sc23 2.105 . S
O39 C29 1.268 . S
O40 Sc24 2.105 . S
O40 C31 1.268 . S
O41 Sc22 2.105 . S
O41 C27 1.268 . S
O42 Sc24 2.105 . S
O42 C26 1.268 . S
O43 Sc23 2.105 . S
O43 C28 1.268 . S
Sc44 O47 2.025 . S
Sc44 O54 2.105 1_554 S
Sc44 O57 2.105 . S
Sc44 O60 2.105 . S
Sc44 O63 2.105 1_554 S
Sc45 O47 2.025 . S
Sc45 O55 2.105 1_554 S
Sc45 O59 2.105 . S
Sc45 O61 2.105 . S
Sc45 O65 2.108 1_554 S
Sc46 O47 2.025 . S
Sc46 O56 2.105 1_544 S
Sc46 O58 2.105 1_655 S
Sc46 O62 2.105 1_545 S
Sc46 O64 2.105 1_554 S
O47 Sc44 2.025 . S
O47 Sc45 2.025 . S
O47 Sc46 2.025 . S
C48 O54 1.268 . S
C48 O64 1.268 . S
C49 O55 1.268 . S
C49 O63 1.268 . S
C50 O56 1.268 . S
C50 O65 1.266 1_565 S
C51 O57 1.268 . S
C51 O61 1.268 . S
C52 O58 1.268 . S
C52 O60 1.268 1_455 S
C53 O59 1.268 1_565 S
C53 O62 1.268 . S
O54 Sc44 2.105 1_556 S
O54 C48 1.268 . S
O55 Sc45 2.105 1_556 S
O55 C49 1.268 . S
O56 Sc46 2.105 1_566 S
O56 C50 1.268 . S
O57 Sc44 2.105 . S
O57 C51 1.268 . S
O58 Sc46 2.105 1_455 S
O58 C52 1.268 . S
O59 Sc45 2.105 . S
O59 C53 1.268 1_545 S
O60 Sc44 2.105 . S
O60 C52 1.268 1_655 S
O61 Sc45 2.105 . S
O61 C51 1.268 . S
O62 Sc46 2.105 1_565 S
O62 C53 1.268 . S
O63 Sc44 2.105 1_556 S
O63 C49 1.268 . S
O64 Sc46 2.105 1_556 S
O64 C48 1.268 . S
O65 Sc45 2.108 1_556 S
O65 C50 1.266 1_545 S
Sc66 O69 2.025 . S
Sc66 O76 2.105 . S
Sc66 O79 2.105 . S
Sc66 O82 2.105 . S
Sc66 O85 2.105 . S
Sc67 O69 2.025 . S
Sc67 O77 2.105 . S
Sc67 O81 2.105 . S
Sc67 O83 2.105 . S
Sc67 O87 2.105 . S
Sc68 O69 2.025 . S
Sc68 O78 2.105 . S
Sc68 O80 2.105 . S
Sc68 O84 2.105 . S
Sc68 O86 2.105 . S
O69 Sc66 2.025 . S
O69 Sc67 2.025 . S
O69 Sc68 2.025 . S
C70 O76 1.268 . S
C70 O86 1.268 . S
C71 O77 1.268 . S
C71 O85 1.268 . S
C72 O78 1.268 . S
C72 O87 1.268 . S
C73 O79 1.268 . S
C73 O83 1.268 . S
C74 O80 1.268 . S
C74 O82 1.268 . S
C75 O81 1.268 . S
C75 O84 1.268 . S
O76 Sc66 2.105 . S
O76 C70 1.268 . S
O77 Sc67 2.105 . S
O77 C71 1.268 . S
O78 Sc68 2.105 . S
O78 C72 1.268 . S
O79 Sc66 2.105 . S
O79 C73 1.268 . S
O80 Sc68 2.105 . S
O80 C74 1.268 . S
O81 Sc67 2.105 . S
O81 C75 1.268 . S
O82 Sc66 2.105 . S
O82 C74 1.268 . S
O83 Sc67 2.105 . S
O83 C73 1.268 . S
O84 Sc68 2.105 . S
O84 C75 1.268 . S
O85 Sc66 2.105 . S
O85 C71 1.268 . S
O86 Sc68 2.105 . S
O86 C70 1.268 . S
O87 Sc67 2.105 . S
O87 C72 1.268 . S
H88 C93 0.930 . S
H89 C96 0.930 . S
H90 C98 0.930 . S
H91 C92 1.016 . S
C92 H91 1.016 . S
C92 N99 1.286 . S
C93 H88 0.930 . S
C93 C94 1.397 . S
C93 C95 1.361 . S
C94 C93 1.397 . S
C94 C98 1.390 . S
C95 C93 1.361 . S
C95 C96 1.393 . S
C95 N99 1.413 . S
C96 H89 0.930 . S
C96 C95 1.393 . S
C96 C97 1.399 . S
C97 C96 1.399 . S
C97 C98 1.381 . S
C98 H90 0.930 . S
C98 C94 1.390 . S
C98 C97 1.381 . S
N99 C92 1.286 . S
N99 C95 1.413 . S
H100 C105 0.930 . S
H101 C108 0.930 . S
H102 C110 0.930 . S
H103 C104 1.016 . S
C104 H103 1.016 . S
C104 N111 1.286 . S
C105 H100 0.930 . S
C105 C106 1.397 . S
C105 C107 1.361 . S
C106 C105 1.397 . S
C106 C110 1.390 . S
C107 C105 1.361 . S
C107 C108 1.393 . S
C107 N111 1.413 . S
C108 H101 0.930 . S
C108 C107 1.393 . S
C108 C109 1.399 . S
C109 C108 1.399 . S
C109 C110 1.381 . S
C110 H102 0.930 . S
C110 C106 1.390 . S
C110 C109 1.381 . S
N111 C104 1.286 . S
N111 C107 1.413 . S
H112 C117 0.930 . S
H113 C120 0.930 . S
H114 C122 0.930 . S
H115 C116 1.016 . S
C116 H115 1.016 . S
C116 N123 1.286 . S
C117 H112 0.930 . S
C117 C118 1.397 . S
C117 C119 1.361 . S
C118 C117 1.397 . S
C118 C122 1.390 . S
C119 C117 1.361 . S
C119 C120 1.393 . S
C119 N123 1.413 . S
C120 H113 0.930 . S
C120 C119 1.393 . S
C120 C121 1.399 . S
C121 C120 1.399 . S
C121 C122 1.381 . S
C122 H114 0.930 . S
C122 C118 1.390 . S
C122 C121 1.381 . S
N123 C116 1.286 . S
N123 C119 1.413 . S
H124 C129 0.930 . S
H125 C132 0.930 . S
H126 C134 0.930 . S
H127 C128 1.016 . S
C128 H127 1.016 . S
C128 N135 1.286 . S
C129 H124 0.930 . S
C129 C130 1.397 . S
C129 C131 1.361 . S
C130 C129 1.397 . S
C130 C134 1.390 . S
C131 C129 1.361 . S
C131 C132 1.393 . S
C131 N135 1.413 . S
C132 H125 0.930 . S
C132 C131 1.393 . S
C132 C133 1.399 . S
C133 C132 1.399 . S
C133 C134 1.381 . S
C134 H126 0.930 . S
C134 C130 1.390 . S
C134 C133 1.381 . S
N135 C128 1.286 . S
N135 C131 1.413 . S
H136 C141 0.930 . S
H137 C144 0.930 . S
H138 C146 0.930 . S
H139 C140 1.016 . S
C140 H139 1.016 . S
C140 N147 1.286 . S
C141 H136 0.930 . S
C141 C142 1.397 . S
C141 C143 1.361 . S
C142 C141 1.397 . S
C142 C146 1.390 . S
C143 C141 1.361 . S
C143 C144 1.393 . S
C143 N147 1.413 . S
C144 H137 0.930 . S
C144 C143 1.393 . S
C144 C145 1.399 . S
C145 C144 1.399 . S
C145 C146 1.381 . S
C146 H138 0.930 . S
C146 C142 1.390 . S
C146 C145 1.381 . S
N147 C140 1.286 . S
N147 C143 1.413 . S
H148 C153 0.930 1_655 S
H149 C156 0.930 . S
H150 C158 0.930 . S
H151 C152 1.016 . S
C152 H151 1.016 . S
C152 N159 1.286 . S
C153 H148 0.930 1_455 S
C153 C154 1.397 1_455 S
C153 C155 1.361 . S
C154 C153 1.397 1_655 S
C154 C158 1.390 1_655 S
C155 C153 1.361 . S
C155 C156 1.393 . S
C155 N159 1.413 . S
C156 H149 0.930 . S
C156 C155 1.393 . S
C156 C157 1.399 . S
C157 C156 1.399 . S
C157 C158 1.381 . S
C158 H150 0.930 . S
C158 C154 1.390 1_455 S
C158 C157 1.381 . S
N159 C152 1.286 . S
N159 C155 1.413 . S
H160 C165 0.930 . S
H161 C168 0.930 . S
H162 C170 0.930 . S
H163 C164 1.016 . S
C164 H163 1.016 . S
C164 N171 1.286 . S
C165 H160 0.930 . S
C165 C166 1.397 . S
C165 C167 1.361 . S
C166 C165 1.397 . S
C166 C170 1.390 . S
C167 C165 1.361 . S
C167 C168 1.393 . S
C167 N171 1.413 . S
C168 H161 0.930 . S
C168 C167 1.393 . S
C168 C169 1.399 . S
C169 C168 1.399 . S
C169 C170 1.381 . S
C170 H162 0.930 . S
C170 C166 1.390 . S
C170 C169 1.381 . S
N171 C164 1.286 . S
N171 C167 1.413 . S
H172 C177 0.930 . S
H173 C180 0.930 . S
H174 C182 0.930 . S
H175 C176 1.016 . S
C176 H175 1.016 . S
C176 N183 1.286 . S
C177 H172 0.930 . S
C177 C178 1.397 . S
C177 C179 1.361 . S
C178 C177 1.397 . S
C178 C182 1.390 . S
C179 C177 1.361 . S
C179 C180 1.393 . S
C179 N183 1.413 . S
C180 H173 0.930 . S
C180 C179 1.393 . S
C180 C181 1.399 . S
C181 C180 1.399 . S
C181 C182 1.381 . S
C182 H174 0.930 . S
C182 C178 1.390 . S
C182 C181 1.381 . S
N183 C176 1.286 . S
N183 C179 1.413 . S
C8 C97 1.352 . S
C31 C109 1.425 . S
C53 C121 1.469 . S
C130 C74 1.437 . S
C145 C26 1.352 . S
C48 C154 1.437 . S
C71 C169 1.469 . S
C5 C181 1.425 . S
C50 C178 1.197 . S
C142 C70 1.235 . S
C157 C4 1.519 . S
C28 C166 1.376 . S
C106 C73 1.197 . S
C7 C118 1.376 1_455 S
C133 C30 1.519 . S
C94 C52 1.235 . S
C164 C9 1.391 . S
C176 C29 1.529 . S
C51 C140 1.632 . S
C152 C75 1.349 . S
C116 C27 1.391 . S
C49 C128 1.349 . S
C92 C72 1.632 . S
C104 C6 1.529 . S
