# Generated by pormake.
# Topology pyr, (3,6)-cn, num edge types: 1
# Building blocks:
#     Node 0, Type 0, BuildingBlock: BETDIP_clean_linker_0, # of connection points: 3
#     Node 1, Type 0, BuildingBlock: BETDIP_clean_linker_0, # of connection points: 3
#     Node 2, Type 0, BuildingBlock: BETDIP_clean_linker_0, # of connection points: 3
#     Node 3, Type 0, BuildingBlock: BETDIP_clean_linker_0, # of connection points: 3
#     Node 4, Type 0, BuildingBlock: BETDIP_clean_linker_0, # of connection points: 3
#     Node 5, Type 0, BuildingBlock: BETDIP_clean_linker_0, # of connection points: 3
#     Node 6, Type 0, BuildingBlock: BETDIP_clean_linker_0, # of connection points: 3
#     Node 7, Type 0, BuildingBlock: BETDIP_clean_linker_0, # of connection points: 3
#     Node 8, Type 1, BuildingBlock: CIFDUS_clean_sbu_1, # of connection points: 6
#     Node 9, Type 1, BuildingBlock: CIFDUS_clean_sbu_1, # of connection points: 6
#     Node 10, Type 1, BuildingBlock: CIFDUS_clean_sbu_1, # of connection points: 6
#     Node 11, Type 1, BuildingBlock: CIFDUS_clean_sbu_1, # of connection points: 6
#     Edge 12, Type (0, 1), None
#     Edge 13, Type (0, 1), None
#     Edge 14, Type (0, 1), None
#     Edge 15, Type (0, 1), None
#     Edge 16, Type (0, 1), None
#     Edge 17, Type (0, 1), None
#     Edge 18, Type (0, 1), None
#     Edge 19, Type (0, 1), None
#     Edge 20, Type (0, 1), None
#     Edge 21, Type (0, 1), None
#     Edge 22, Type (0, 1), None
#     Edge 23, Type (0, 1), None
#     Edge 24, Type (0, 1), None
#     Edge 25, Type (0, 1), None
#     Edge 26, Type (0, 1), None
#     Edge 27, Type (0, 1), None
#     Edge 28, Type (0, 1), None
#     Edge 29, Type (0, 1), None
#     Edge 30, Type (0, 1), None
#     Edge 31, Type (0, 1), None
#     Edge 32, Type (0, 1), None
#     Edge 33, Type (0, 1), None
#     Edge 34, Type (0, 1), None
#     Edge 35, Type (0, 1), None
# Relax obj value: 0.091
# Max RMSD: 0.164
# Mean RMSD: 0.128
data_MOF--net-pry--node1-CIFDUS_clean_sbu_1--node2-BETDIP_clean_linker_0--edge1-none
_symmetry_space_group_name_H-M    P1
_symmetry_Int_Tables_number       1
_symmetry_cell_setting            triclinic
loop_
_symmetry_equiv_pos_as_xyz
'x, y, z'
_cell_length_a     16.407057
_cell_length_b     15.430724
_cell_length_c     14.464004
_cell_angle_alpha  97.216222
_cell_angle_beta   81.384958
_cell_angle_gamma 101.61816
loop_
_atom_site_label
_atom_site_type_symbol
_atom_site_fract_x
_atom_site_fract_y
_atom_site_fract_z
_atom_type_partial_charge
H0 H 0.00865 0.11578 0.29406 0.0
H1 H 0.21051 0.17355 1.07312 0.0
H2 H 0.23363 0.0111 0.28799 0.0
H3 H 0.12203 0.25932 1.02814 0.0
C4 C 0.06955 0.26031 0.08349 0.0
C5 C 0.07094 0.10794 0.26066 0.0
C6 C 0.11697 0.06001 0.30241 0.0
C7 C 0.10264 0.14732 0.17776 0.0
C8 C 0.18358 0.13886 0.13433 0.0
C9 C 0.23203 0.08931 0.173 0.0
C10 C 0.19735 0.04845 0.25682 0.0
N11 N 0.0537 0.20434 0.15131 0.0
H12 H 0.38943 0.01518 0.80541 0.0
H13 H 0.30594 0.77217 0.63636 0.0
H14 H 0.51525 0.79389 0.78832 0.0
H15 H 0.20498 0.85125 0.59941 0.0
C16 C 0.20861 0.9097 0.65007 0.0
C17 C 0.39892 0.9495 0.77488 0.0
C18 C 0.45975 0.91203 0.80391 0.0
C19 C 0.34505 0.90072 0.71275 0.0
C20 C 0.35155 0.81236 0.67855 0.0
C21 C 0.41515 0.77478 0.70447 0.0
C22 C 0.4701 0.82584 0.76448 0.0
N23 N 0.28015 0.94234 0.6971 0.0
H24 H 0.71177 0.50688 0.91703 0.0
H25 H 0.53453 0.2673 0.95081 0.0
H26 H 0.74759 0.32449 0.10435 0.0
H27 H 0.60439 0.44603 0.75894 0.0
C28 C 0.55281 0.44922 0.81521 0.0
C29 C 0.69516 0.44294 0.94524 0.0
C30 C 0.74566 0.41885 1.00548 0.0
C31 C 0.61959 0.38755 0.92617 0.0
C32 C 0.59604 0.30571 0.96204 0.0
C33 C 0.63878 0.28366 1.0296 0.0
C34 C 0.7151 0.33974 1.05024 0.0
N35 N 0.55459 0.42249 0.89906 0.0
H36 H 0.7926 0.50867 0.58078 0.0
H37 H -0.0068 0.726 0.53342 0.0
H38 H 0.74617 0.77368 0.63148 0.0
H39 H 0.89559 0.61657 0.37397 0.0
C40 C 0.93075 0.56899 0.39031 0.0
C41 C 0.8169 0.57914 0.5957 0.0
C42 C 0.76029 0.63781 0.61732 0.0
C43 C 0.89973 0.61131 0.56033 0.0
C44 C 0.93089 0.70251 0.56888 0.0
C45 C 0.87491 0.76142 0.59212 0.0
C46 C 0.79088 0.72937 0.62535 0.0
N47 N 0.93746 0.55878 0.48578 0.0
H48 H 0.76469 0.88072 0.14161 0.0
H49 H 0.97624 0.89617 0.92732 0.0
H50 H 0.77276 0.02764 0.90425 0.0
H51 H 0.0276 0.85688 1.054 0.0
C52 C 0.97867 0.80463 0.08211 0.0
C53 C 0.79831 0.90827 0.07818 0.0
C54 C 0.75975 0.95824 1.02891 0.0
C55 C 0.87485 0.88413 1.04264 0.0
C56 C 0.91678 0.91484 0.9566 0.0
C57 C 0.88136 0.96789 0.90607 0.0
C58 C 0.80216 0.98953 0.94316 0.0
N59 N 0.89935 0.81638 0.08578 0.0
H60 H 0.62228 0.03567 0.36096 0.0
H61 H 0.70246 0.27472 0.53694 0.0
H62 H 0.47446 0.2415 0.41529 0.0
H63 H 0.78725 0.18327 0.58527 0.0
C64 C 0.79195 0.13057 0.52854 0.0
C65 C 0.60929 0.09779 0.39852 0.0
C66 C 0.54084 0.13139 0.38082 0.0
C67 C 0.66521 0.14639 0.45911 0.0
C68 C 0.65467 0.23244 0.49913 0.0
C69 C 0.58467 0.266 0.48307 0.0
C70 C 0.52578 0.21266 0.42972 0.0
N71 N 0.73589 0.10892 0.46644 0.0
H72 H 0.28795 0.53677 0.25416 0.0
H73 H 0.46364 0.77908 0.22944 0.0
H74 H 0.25082 0.72677 0.07638 0.0
H75 H 0.38844 0.59273 0.41744 0.0
C76 C 0.44169 0.59132 0.36299 0.0
C77 C 0.30436 0.60201 0.22885 0.0
C78 C 0.25468 0.62792 0.16881 0.0
C79 C 0.37903 0.65747 0.25108 0.0
C80 C 0.40237 0.74059 0.21745 0.0
C81 C 0.35854 0.76517 0.15211 0.0
C82 C 0.28342 0.70943 0.12929 0.0
N83 N 0.44325 0.62233 0.28022 0.0
H84 H -0.00069 0.3042 0.64844 0.0
H85 H 0.1987 0.51666 0.57705 0.0
H86 H 0.24876 0.25604 0.57576 0.0
H87 H 0.10694 0.42922 0.79289 0.0
C88 C 0.0684 0.47251 0.77433 0.0
C89 C 0.06209 0.32476 0.61265 0.0
C90 C 0.11879 0.26693 0.60257 0.0
C91 C 0.09253 0.41565 0.60876 0.0
C92 C 0.17557 0.44534 0.57197 0.0
C93 C 0.23324 0.38867 0.565 0.0
C94 C 0.20369 0.29768 0.5712 0.0
N95 N 0.05636 0.47358 0.67859 0.0
O96 O 0.90222 0.08612 0.58459 0.0
Mn97 Mn -0.00434 0.01583 0.60203 0.0
O98 O 0.85123 0.01608 0.45232 0.0
Mn99 Mn 0.91142 0.92451 0.42902 0.0
O100 O 0.08859 0.94442 0.61596 0.0
O101 O 0.06002 0.12466 0.66374 0.0
Mn102 Mn 0.09178 0.10719 0.76888 0.0
O103 O 0.92922 0.98095 0.73787 0.0
O104 O 0.15915 0.02424 0.7306 0.0
O105 O 0.06377 0.05122 0.46785 0.0
O106 O 0.01535 0.94562 0.35837 0.0
O107 O 0.13608 0.22421 0.74999 0.0
O108 O -0.00407 0.07149 0.84939 0.0
C109 C 0.88753 0.82914 0.52799 0.0
C110 C 0.85218 0.07663 0.52152 0.0
C111 C 0.14947 0.95988 0.66601 0.0
C112 C 0.10281 0.20367 0.67258 0.0
C113 C 0.93543 0.0114 0.82541 0.0
C114 C 0.07016 0.01162 0.3829 0.0
O115 O 0.93046 0.90763 0.54061 0.0
O116 O 0.85844 0.81015 0.44802 0.0
O117 O 0.46325 0.99712 0.95505 0.0
Mn118 Mn 0.49716 0.02516 0.09197 0.0
O119 O 0.55674 0.91446 0.90497 0.0
Mn120 Mn 0.53422 0.85706 1.01285 0.0
O121 O 0.53235 0.05142 0.22773 0.0
O122 O 0.53125 0.15858 1.07279 0.0
Mn123 Mn 0.46063 0.19363 0.17236 0.0
O124 O 0.36657 0.03727 0.14011 0.0
O125 O 0.4437 0.13886 0.282 0.0
O126 O 0.62741 0.0132 1.04613 0.0
O127 O 0.62887 0.87278 1.06602 0.0
O128 O 0.55384 0.27906 0.17077 0.0
O129 O 0.36126 0.17801 0.12634 0.0
C130 C 0.41087 0.82102 0.08268 0.0
C131 C 0.50097 0.95224 0.88753 0.0
C132 C 0.49783 0.09705 0.2967 0.0
C133 C 0.58417 0.22979 0.10019 0.0
C134 C 0.32346 0.09905 0.13718 0.0
C135 C 0.66806 0.95117 1.05522 0.0
O136 O 0.46297 0.89214 0.11122 0.0
O137 O 0.4408 0.77304 1.01076 0.0
O138 O 0.61573 0.57455 0.62253 0.0
Mn139 Mn 0.49575 0.51878 0.5908 0.0
O140 O 0.69421 0.60253 0.48402 0.0
Mn141 Mn 0.62565 0.52346 0.40947 0.0
O142 O 0.37582 0.4613 0.55952 0.0
O143 O 0.46569 0.49572 0.72311 0.0
Mn144 Mn 0.36671 0.51551 0.77366 0.0
O145 O 0.46026 0.6439 0.62425 0.0
O146 O 0.29706 0.43716 0.69905 0.0
O147 O 0.53228 0.39436 0.55841 0.0
O148 O 0.62347 0.40478 0.42479 0.0
O149 O 0.41715 0.4787 0.86636 0.0
O150 O 0.37252 0.63528 0.76072 0.0
C151 C 0.51357 0.56374 0.37925 0.0
C152 C 0.68378 0.60789 0.57363 0.0
C153 C 0.30823 0.42771 0.60929 0.0
C154 C 0.47966 0.47486 0.80088 0.0
C155 C 0.41253 0.67795 0.69242 0.0
C156 C 0.58392 0.36214 0.49338 0.0
O157 O 0.52552 0.54189 0.45776 0.0
O158 O 0.5771 0.55981 0.31512 0.0
O159 O 0.88126 0.4545 1.06423 0.0
Mn160 Mn 0.00286 0.52469 0.08124 0.0
O161 O 0.8501 0.54685 0.97553 0.0
Mn162 Mn 0.96244 0.59186 0.93481 0.0
O163 O 0.12397 0.59298 0.10077 0.0
O164 O 0.97172 0.53236 0.23136 0.0
Mn165 Mn 0.03738 0.45307 0.22649 0.0
O166 O 0.04934 0.40128 1.05567 0.0
O167 O 0.15015 0.50018 0.1933 0.0
O168 O 0.96287 0.65203 0.10349 0.0
O169 O 0.01621 0.70314 0.97121 0.0
O170 O 0.01235 0.46757 0.34751 0.0
O171 O 0.98862 0.34267 0.18078 0.0
C172 C 0.02792 0.52079 0.84113 0.0
C173 C 0.82861 0.4777 1.01944 0.0
C174 C 0.17353 0.56938 0.14975 0.0
C175 C 0.97098 0.52176 0.32169 0.0
C176 C 0.027 0.33225 0.10056 0.0
C177 C -0.00514 0.71913 1.05671 0.0
O178 O 0.03112 0.51541 0.93171 0.0
O179 O 0.98204 0.56959 0.81383 0.0
loop_
_geom_bond_atom_site_label_1
_geom_bond_atom_site_label_2
_geom_bond_distance
_geom_bond_site_symmetry_2
_ccdc_geom_bond_type
H0 C5 0.930 . S
H1 C8 0.930 . S
H2 C10 0.930 . S
H3 C4 1.016 . S
C4 H3 1.016 . S
C4 N11 1.286 . S
C5 H0 0.930 . S
C5 C6 1.397 . S
C5 C7 1.361 . S
C6 C5 1.397 . S
C6 C10 1.390 . S
C7 C5 1.361 . S
C7 C8 1.393 . S
C7 N11 1.413 . S
C8 H1 0.930 . S
C8 C7 1.393 . S
C8 C9 1.399 . S
C9 C8 1.399 . S
C9 C10 1.381 . S
C10 H2 0.930 . S
C10 C6 1.390 . S
C10 C9 1.381 . S
N11 C4 1.286 . S
N11 C7 1.413 . S
H12 C17 0.930 . S
H13 C20 0.930 . S
H14 C22 0.930 . S
H15 C16 1.016 . S
C16 H15 1.016 . S
C16 N23 1.286 . S
C17 H12 0.930 . S
C17 C18 1.397 . S
C17 C19 1.361 . S
C18 C17 1.397 . S
C18 C22 1.390 . S
C19 C17 1.361 . S
C19 C20 1.393 . S
C19 N23 1.413 . S
C20 H13 0.930 . S
C20 C19 1.393 . S
C20 C21 1.399 . S
C21 C20 1.399 . S
C21 C22 1.381 . S
C22 H14 0.930 . S
C22 C18 1.390 . S
C22 C21 1.381 . S
N23 C16 1.286 . S
N23 C19 1.413 . S
H24 C29 0.930 . S
H25 C32 0.930 . S
H26 C34 0.930 1_554 S
H27 C28 1.016 . S
C28 H27 1.016 . S
C28 N35 1.286 . S
C29 H24 0.930 . S
C29 C30 1.397 . S
C29 C31 1.361 . S
C30 C29 1.397 . S
C30 C34 1.390 . S
C31 C29 1.361 . S
C31 C32 1.393 . S
C31 N35 1.413 . S
C32 H25 0.930 . S
C32 C31 1.393 . S
C32 C33 1.399 . S
C33 C32 1.399 . S
C33 C34 1.381 . S
C34 H26 0.930 1_556 S
C34 C30 1.390 . S
C34 C33 1.381 . S
N35 C28 1.286 . S
N35 C31 1.413 . S
H36 C41 0.930 . S
H37 C44 0.930 . S
H38 C46 0.930 . S
H39 C40 1.016 . S
C40 H39 1.016 . S
C40 N47 1.286 . S
C41 H36 0.930 . S
C41 C42 1.397 . S
C41 C43 1.361 . S
C42 C41 1.397 . S
C42 C46 1.390 . S
C43 C41 1.361 . S
C43 C44 1.393 . S
C43 N47 1.413 . S
C44 H37 0.930 . S
C44 C43 1.393 . S
C44 C45 1.399 . S
C45 C44 1.399 . S
C45 C46 1.381 . S
C46 H38 0.930 . S
C46 C42 1.390 . S
C46 C45 1.381 . S
N47 C40 1.286 . S
N47 C43 1.413 . S
H48 C53 0.930 1_554 S
H49 C56 0.930 . S
H50 C58 0.930 . S
H51 C52 1.016 . S
C52 H51 1.016 . S
C52 N59 1.286 . S
C53 H48 0.930 1_556 S
C53 C54 1.397 . S
C53 C55 1.361 . S
C54 C53 1.397 . S
C54 C58 1.390 1_565 S
C55 C53 1.361 . S
C55 C56 1.393 . S
C55 N59 1.413 . S
C56 H49 0.930 . S
C56 C55 1.393 . S
C56 C57 1.399 . S
C57 C56 1.399 . S
C57 C58 1.381 1_565 S
C58 H50 0.930 . S
C58 C54 1.390 1_545 S
C58 C57 1.381 1_545 S
N59 C52 1.286 . S
N59 C55 1.413 . S
H60 C65 0.930 . S
H61 C68 0.930 . S
H62 C70 0.930 . S
H63 C64 1.016 . S
C64 H63 1.016 . S
C64 N71 1.286 . S
C65 H60 0.930 . S
C65 C66 1.397 . S
C65 C67 1.361 . S
C66 C65 1.397 . S
C66 C70 1.390 . S
C67 C65 1.361 . S
C67 C68 1.393 . S
C67 N71 1.413 . S
C68 H61 0.930 . S
C68 C67 1.393 . S
C68 C69 1.399 . S
C69 C68 1.399 . S
C69 C70 1.381 . S
C70 H62 0.930 . S
C70 C66 1.390 . S
C70 C69 1.381 . S
N71 C64 1.286 . S
N71 C67 1.413 . S
H72 C77 0.930 . S
H73 C80 0.930 . S
H74 C82 0.930 . S
H75 C76 1.016 . S
C76 H75 1.016 . S
C76 N83 1.286 . S
C77 H72 0.930 . S
C77 C78 1.397 . S
C77 C79 1.361 . S
C78 C77 1.397 . S
C78 C82 1.390 . S
C79 C77 1.361 . S
C79 C80 1.393 . S
C79 N83 1.413 . S
C80 H73 0.930 . S
C80 C79 1.393 . S
C80 C81 1.399 . S
C81 C80 1.399 . S
C81 C82 1.381 . S
C82 H74 0.930 . S
C82 C78 1.390 . S
C82 C81 1.381 . S
N83 C76 1.286 . S
N83 C79 1.413 . S
H84 C89 0.930 . S
H85 C92 0.930 . S
H86 C94 0.930 . S
H87 C88 1.016 . S
C88 H87 1.016 . S
C88 N95 1.286 . S
C89 H84 0.930 . S
C89 C90 1.397 . S
C89 C91 1.361 . S
C90 C89 1.397 . S
C90 C94 1.390 . S
C91 C89 1.361 . S
C91 C92 1.393 . S
C91 N95 1.413 . S
C92 H85 0.930 . S
C92 C91 1.393 . S
C92 C93 1.399 . S
C93 C92 1.399 . S
C93 C94 1.381 . S
C94 H86 0.930 . S
C94 C90 1.390 . S
C94 C93 1.381 . S
N95 C88 1.286 . S
N95 C91 1.413 . S
O96 Mn97 2.163 1_655 S
O96 C110 1.244 . S
Mn97 O96 2.163 1_455 S
Mn97 O100 2.160 1_545 S
Mn97 O101 2.221 . S
Mn97 O103 2.163 1_445 S
Mn97 O105 2.160 . S
Mn97 O115 2.221 1_445 S
O98 Mn99 2.087 . S
O98 C110 1.256 1_565 S
Mn99 O98 2.087 . S
Mn99 O106 2.089 1_565 S
Mn99 O115 2.290 . S
Mn99 O116 2.251 . S
O100 Mn97 2.160 1_565 S
O100 C111 1.239 . S
O101 Mn97 2.221 . S
O101 Mn102 2.290 . S
O101 C112 1.278 . S
Mn102 O101 2.290 . S
Mn102 O104 2.089 1_545 S
Mn102 O107 2.251 . S
Mn102 O108 2.087 . S
O103 Mn97 2.163 1_665 S
O103 C113 1.244 . S
O104 Mn102 2.089 1_565 S
O104 C111 1.256 . S
O105 Mn97 2.160 . S
O105 C114 1.239 . S
O106 Mn99 2.089 1_545 S
O106 C114 1.256 1_655 S
O107 Mn102 2.251 . S
O107 C112 1.241 . S
O108 Mn102 2.087 . S
O108 C113 1.256 1_445 S
C109 O115 1.278 . S
C109 O116 1.241 . S
C110 O96 1.244 . S
C110 O98 1.256 1_545 S
C111 O100 1.239 . S
C111 O104 1.256 . S
C112 O101 1.278 . S
C112 O107 1.241 . S
C113 O103 1.244 . S
C113 O108 1.256 1_665 S
C114 O105 1.239 . S
C114 O106 1.256 1_455 S
O115 Mn97 2.221 1_665 S
O115 Mn99 2.290 . S
O115 C109 1.278 . S
O116 Mn99 2.251 . S
O116 C109 1.241 . S
O117 Mn118 2.163 1_556 S
O117 C131 1.244 1_545 S
Mn118 O117 2.163 1_554 S
Mn118 O121 2.160 . S
Mn118 O122 2.221 . S
Mn118 O124 2.163 . S
Mn118 O126 2.160 1_554 S
Mn118 O136 2.221 1_545 S
O119 Mn120 2.087 . S
O119 C131 1.256 . S
Mn120 O119 2.087 . S
Mn120 O127 2.089 . S
Mn120 O136 2.290 1_556 S
Mn120 O137 2.251 1_556 S
O121 Mn118 2.160 . S
O121 C132 1.239 . S
O122 Mn118 2.221 . S
O122 Mn123 2.290 . S
O122 C133 1.278 1_554 S
Mn123 O122 2.290 . S
Mn123 O125 2.089 . S
Mn123 O128 2.251 1_554 S
Mn123 O129 2.087 . S
O124 Mn118 2.163 . S
O124 C134 1.244 . S
O125 Mn123 2.089 . S
O125 C132 1.256 . S
O126 Mn118 2.160 1_556 S
O126 C135 1.239 1_545 S
O127 Mn120 2.089 . S
O127 C135 1.256 . S
O128 Mn123 2.251 1_556 S
O128 C133 1.241 . S
O129 Mn123 2.087 . S
O129 C134 1.256 . S
C130 O136 1.278 . S
C130 O137 1.241 . S
C131 O117 1.244 1_565 S
C131 O119 1.256 . S
C132 O121 1.239 . S
C132 O125 1.256 . S
C133 O122 1.278 1_556 S
C133 O128 1.241 . S
C134 O124 1.244 . S
C134 O129 1.256 . S
C135 O126 1.239 1_565 S
C135 O127 1.256 . S
O136 Mn118 2.221 1_565 S
O136 Mn120 2.290 1_554 S
O136 C130 1.278 . S
O137 Mn120 2.251 1_554 S
O137 C130 1.241 . S
O138 Mn139 2.163 . S
O138 C152 1.244 . S
Mn139 O138 2.163 . S
Mn139 O142 2.160 . S
Mn139 O143 2.221 . S
Mn139 O145 2.163 . S
Mn139 O147 2.160 . S
Mn139 O157 2.221 . S
O140 Mn141 2.087 . S
O140 C152 1.256 . S
Mn141 O140 2.087 . S
Mn141 O148 2.089 . S
Mn141 O157 2.290 . S
Mn141 O158 2.251 . S
O142 Mn139 2.160 . S
O142 C153 1.239 . S
O143 Mn139 2.221 . S
O143 Mn144 2.290 . S
O143 C154 1.278 . S
Mn144 O143 2.290 . S
Mn144 O146 2.089 . S
Mn144 O149 2.251 . S
Mn144 O150 2.087 . S
O145 Mn139 2.163 . S
O145 C155 1.244 . S
O146 Mn144 2.089 . S
O146 C153 1.256 . S
O147 Mn139 2.160 . S
O147 C156 1.239 . S
O148 Mn141 2.089 . S
O148 C156 1.256 . S
O149 Mn144 2.251 . S
O149 C154 1.241 . S
O150 Mn144 2.087 . S
O150 C155 1.256 . S
C151 O157 1.278 . S
C151 O158 1.241 . S
C152 O138 1.244 . S
C152 O140 1.256 . S
C153 O142 1.239 . S
C153 O146 1.256 . S
C154 O143 1.278 . S
C154 O149 1.241 . S
C155 O145 1.244 . S
C155 O150 1.256 . S
C156 O147 1.239 . S
C156 O148 1.256 . S
O157 Mn139 2.221 . S
O157 Mn141 2.290 . S
O157 C151 1.278 . S
O158 Mn141 2.251 . S
O158 C151 1.241 . S
O159 Mn160 2.163 1_655 S
O159 C173 1.244 1_554 S
Mn160 O159 2.163 1_455 S
Mn160 O163 2.160 . S
Mn160 O164 2.221 1_455 S
Mn160 O166 2.163 . S
Mn160 O168 2.160 1_554 S
Mn160 O178 2.221 1_554 S
O161 Mn162 2.087 . S
O161 C173 1.256 . S
Mn162 O161 2.087 . S
Mn162 O169 2.089 . S
Mn162 O178 2.290 1_655 S
Mn162 O179 2.251 1_655 S
O163 Mn160 2.160 . S
O163 C174 1.239 . S
O164 Mn160 2.221 1_655 S
O164 Mn165 2.290 1_655 S
O164 C175 1.277 . S
Mn165 O164 2.290 1_455 S
Mn165 O167 2.089 . S
Mn165 O170 2.251 1_455 S
Mn165 O171 2.087 . S
O166 Mn160 2.163 . S
O166 C176 1.244 . S
O167 Mn165 2.089 . S
O167 C174 1.256 . S
O168 Mn160 2.160 1_556 S
O168 C177 1.239 1_455 S
O169 Mn162 2.089 . S
O169 C177 1.256 . S
O170 Mn165 2.251 1_655 S
O170 C175 1.241 . S
O171 Mn165 2.087 . S
O171 C176 1.256 . S
C172 O178 1.278 . S
C172 O179 1.241 . S
C173 O159 1.244 1_556 S
C173 O161 1.256 . S
C174 O163 1.239 . S
C174 O167 1.256 . S
C175 O164 1.277 . S
C175 O170 1.241 . S
C176 O166 1.244 . S
C176 O171 1.256 . S
C177 O168 1.239 1_655 S
C177 O169 1.256 . S
O178 Mn160 2.221 1_556 S
O178 Mn162 2.290 1_455 S
O178 C172 1.278 . S
O179 Mn162 2.251 1_455 S
O179 C172 1.241 . S
C6 C114 1.836 . S
C18 C131 1.734 . S
C154 C28 1.291 . S
C40 C175 0.954 . S
C134 C9 2.114 . S
C111 C16 1.698 . S
C173 C30 1.501 . S
C152 C42 1.351 . S
C4 C176 1.711 . S
C133 C33 1.412 . S
C45 C109 1.504 . S
C21 C155 1.795 . S
C113 C57 1.952 . S
C66 C132 1.598 . S
C76 C151 1.286 . S
C88 C172 0.902 . S
C54 C135 2.000 . S
C110 C64 1.872 . S
C174 C78 1.201 . S
C153 C93 1.469 . S
C52 C177 1.362 . S
C130 C81 1.238 . S
C112 C90 1.603 . S
C69 C156 1.705 . S
