# Generated by pormake.
# Topology anh, (6,3)-cn, num edge types: 1
# Building blocks:
#     Node 0, Type 0, BuildingBlock: HISSIN_clean_sbu_0, # of connection points: 6
#     Node 1, Type 0, BuildingBlock: HISSIN_clean_sbu_0, # of connection points: 6
#     Node 2, Type 0, BuildingBlock: HISSIN_clean_sbu_0, # of connection points: 6
#     Node 3, Type 1, BuildingBlock: QEWDON_clean_linker_0, # of connection points: 3
#     Node 4, Type 1, BuildingBlock: QEWDON_clean_linker_0, # of connection points: 3
#     Node 5, Type 1, BuildingBlock: QEWDON_clean_linker_0, # of connection points: 3
#     Node 6, Type 1, BuildingBlock: QEWDON_clean_linker_0, # of connection points: 3
#     Node 7, Type 1, BuildingBlock: QEWDON_clean_linker_0, # of connection points: 3
#     Node 8, Type 1, BuildingBlock: QEWDON_clean_linker_0, # of connection points: 3
#     Edge 9, Type (0, 1), None
#     Edge 10, Type (0, 1), None
#     Edge 11, Type (0, 1), None
#     Edge 12, Type (0, 1), None
#     Edge 13, Type (0, 1), None
#     Edge 14, Type (0, 1), None
#     Edge 15, Type (0, 1), None
#     Edge 16, Type (0, 1), None
#     Edge 17, Type (0, 1), None
#     Edge 18, Type (0, 1), None
#     Edge 19, Type (0, 1), None
#     Edge 20, Type (0, 1), None
#     Edge 21, Type (0, 1), None
#     Edge 22, Type (0, 1), None
#     Edge 23, Type (0, 1), None
#     Edge 24, Type (0, 1), None
#     Edge 25, Type (0, 1), None
#     Edge 26, Type (0, 1), None
# Relax obj value: 0.631
# Max RMSD: 0.213
# Mean RMSD: 0.144
data_MOF--net-anh--node1-HISSIN_clean_sbu_0--node2-QEWDON_clean_linker_0--edge1-none
_symmetry_space_group_name_H-M    P1
_symmetry_Int_Tables_number       1
_symmetry_cell_setting            triclinic
loop_
_symmetry_equiv_pos_as_xyz
'x, y, z'
_cell_length_a     14.984565
_cell_length_b     15.047675
_cell_length_c     22.652242
_cell_angle_alpha  95.281206
_cell_angle_beta   92.62689
_cell_angle_gamma 119.41141
loop_
_atom_site_label
_atom_site_type_symbol
_atom_site_fract_x
_atom_site_fract_y
_atom_site_fract_z
_atom_type_partial_charge
Eu0 Eu 0.37922 0.72323 0.04931 0.0
Eu1 Eu 0.4369 0.93842 0.11803 0.0
C2 C 0.40377 0.7671 0.20238 0.0
C3 C 1.20946 0.45082 -0.01342 0.0
C4 C 1.19056 0.37879 0.02658 0.0
C5 C 1.08983 0.49229 0.03047 0.0
C6 C 1.14635 0.38864 0.07817 0.0
C7 C 1.13537 0.48173 -0.02012 0.0
C8 C 1.1086 0.45792 0.0827 0.0
C9 C 0.31658 0.53774 -0.00505 0.0
O10 O 0.59556 0.93797 0.11326 0.0
O11 O 0.55259 0.79602 0.04575 0.0
C12 C 0.6237 0.87782 0.08029 0.0
O13 O 0.38537 0.82948 -0.01852 0.0
O14 O 0.48359 1.05547 0.19447 0.0
O15 O 0.42095 1.0735 0.11106 0.0
O16 O 0.50414 0.98235 0.03347 0.0
C17 C 0.44847 0.92903 -0.01582 0.0
O18 O 1.22605 0.72411 0.02879 0.0
O19 O 1.26269 0.87056 0.08803 0.0
O20 O 0.41687 0.85856 0.19865 0.0
O21 O 0.33668 0.61582 0.96655 0.0
O22 O 0.35438 0.5688 0.05063 0.0
O23 O 0.3874 0.70387 0.15248 0.0
C24 C 0.52934 0.2219 0.17783 0.0
C25 C 0.61342 0.26521 0.1444 0.0
C26 C 0.62621 0.35163 0.26131 0.0
C27 C 0.70686 0.34484 0.17236 0.0
C28 C 0.53199 0.27308 0.23333 0.0
C29 C 0.71495 0.3744 0.23386 0.0
C30 C 0.4573 1.11246 0.16629 0.0
C31 C 1.19776 0.79103 0.04921 0.0
H32 H 1.23649 0.34137 0.02805 0.0
H33 H 1.05235 0.53824 0.03115 0.0
H34 H 1.15579 0.35505 0.1166 0.0
H35 H 1.13565 0.52417 0.94368 0.0
H36 H 0.61168 0.22756 0.10085 0.0
H37 H 0.63285 0.37945 0.30786 0.0
H38 H 0.77551 0.36514 0.14999 0.0
H39 H 0.46614 0.24158 0.25881 0.0
Eu40 Eu 0.88609 1.08976 0.42648 0.0
Eu41 Eu 0.73902 1.18063 0.41756 0.0
C42 C 0.79938 1.15103 0.55071 0.0
C43 C 0.88259 0.87624 0.46802 0.0
C44 C 0.86882 0.89113 0.52854 0.0
C45 C 0.70116 0.74475 0.44945 0.0
C46 C 0.77029 0.84264 0.54714 0.0
C47 C 0.79975 0.79415 0.43049 0.0
C48 C 0.68513 0.77496 0.50654 0.0
C49 C 0.95514 0.96794 0.44098 0.0
O50 O 0.90544 0.32628 0.42005 0.0
O51 O 1.01551 0.26113 0.42561 0.0
C52 C 1.00177 0.34145 0.42113 0.0
O53 O 0.92813 1.1663 0.34257 0.0
O54 O 0.60189 1.1536 0.36355 0.0
O55 O 0.69512 0.29891 0.41971 0.0
O56 O 0.76451 1.11153 0.33333 0.0
C57 C 0.8515 1.16554 0.31271 0.0
O58 O 0.72121 0.95436 0.385 0.0
O59 O 0.62068 1.01141 0.42545 0.0
O60 O 0.75065 0.18546 0.51817 0.0
O61 O 0.92139 0.97324 0.38784 0.0
O62 O 0.99311 1.05599 0.47548 0.0
O63 O 0.85085 1.10994 0.52477 0.0
C64 C 0.51757 0.22774 0.41347 0.0
C65 C 0.48021 0.2936 0.40175 0.0
C66 C 0.43292 0.19359 0.50352 0.0
C67 C 0.42833 0.31735 0.44394 0.0
C68 C 0.48546 1.17023 0.46133 0.0
C69 C 0.41593 0.27649 0.49838 0.0
C70 C 0.60815 0.23888 0.38671 0.0
C71 C 0.62737 0.9349 0.39663 0.0
H72 H 0.93121 0.95074 0.55963 0.0
H73 H 0.63658 0.68846 0.4183 0.0
H74 H 0.75967 0.86127 0.59251 0.0
H75 H 0.80778 0.77811 0.38402 0.0
H76 H 0.50196 0.3368 0.36435 0.0
H77 H 0.42132 1.15904 0.54444 0.0
H78 H 0.41451 0.38025 0.43778 0.0
H79 H 0.51245 1.11739 0.47025 0.0
Eu80 Eu 0.70055 0.50676 0.81202 0.0
Eu81 Eu 0.87066 0.61387 0.73097 0.0
C82 C 0.90957 0.64913 0.88065 0.0
C83 C 0.48969 0.50839 0.86714 0.0
C84 C 0.53329 0.60174 0.90547 0.0
C85 C 0.43797 0.58698 0.79338 0.0
C86 C 0.54159 0.68958 0.88472 0.0
C87 C 0.43242 0.49948 0.81361 0.0
C88 C 0.49974 0.68457 0.82665 0.0
C89 C 0.54174 0.4463 0.86928 0.0
O90 O 0.85157 0.45245 0.71442 0.0
O91 O 0.72162 0.3678 0.77217 0.0
C92 C 0.78689 0.36615 0.73434 0.0
O93 O 0.62715 0.53159 0.73397 0.0
O94 O 0.95215 0.72012 0.66762 0.0
O95 O 1.02235 0.6432 0.71103 0.0
O96 O 0.72382 0.50818 0.66811 0.0
C97 C 0.63512 0.49875 0.68093 0.0
O98 O 0.74264 0.68252 0.81421 0.0
O99 O 0.80972 0.72503 0.72652 0.0
O100 O 0.92876 0.69032 0.83027 0.0
O101 O 0.53844 0.39544 0.81834 0.0
O102 O 0.63494 0.49581 0.89701 0.0
O103 O 0.83329 0.55636 0.87955 0.0
C104 C 1.12417 0.81783 0.71012 0.0
C105 C 1.11143 0.86777 0.76203 0.0
C106 C 0.30782 0.91377 0.73566 0.0
C107 C 1.19635 0.93488 0.80283 0.0
C108 C 1.22297 0.84516 0.69569 0.0
C109 C 0.29509 0.95479 0.79124 0.0
C110 C 1.03739 0.71993 0.68223 0.0
C111 C 0.77293 0.74808 0.77297 0.0
H112 H 0.57556 0.61106 0.94786 0.0
H113 H 0.3995 0.57878 0.74993 0.0
H114 H 0.58903 0.76227 0.91266 0.0
H115 H 0.39474 0.42792 0.78357 0.0
H116 H 1.0351 0.8477 0.77367 0.0
H117 H 0.38223 0.92646 0.72498 0.0
H118 H 1.1842 0.96576 0.84487 0.0
H119 H 1.23413 0.80648 0.65633 0.0
H120 H 1.03187 0.33061 0.28928 0.0
C121 C 0.96659 0.34322 0.28735 0.0
C122 C 0.86803 0.26191 0.29156 0.0
C123 C 0.97984 0.43894 0.2759 0.0
H124 H 0.70613 0.21055 0.27462 0.0
C125 C 0.7835 0.27601 0.27943 0.0
C126 C 0.79787 0.37232 0.26869 0.0
C127 C 0.89594 0.45541 0.27223 0.0
C128 C 1.06233 0.50208 0.24193 0.0
H129 H 0.90481 0.52667 0.259 0.0
C130 C 1.06678 0.45308 0.18736 0.0
C131 C 1.11007 0.50993 0.14146 0.0
C132 C 1.10708 0.60956 0.25178 0.0
H133 H 1.10045 0.6476 0.29297 0.0
C134 C 1.15581 0.66732 0.20697 0.0
H135 H 1.02685 0.36971 0.17824 0.0
C136 C 1.15746 0.61755 0.1524 0.0
H137 H 1.19899 0.66337 0.11965 0.0
H138 H 1.19147 0.75034 0.21423 0.0
H139 H 0.52626 0.58923 0.66562 0.0
C140 C 0.49326 0.51711 0.63673 0.0
C141 C 0.5452 0.46153 0.63697 0.0
C142 C 0.41949 0.4967 0.58959 0.0
H143 H 0.55473 0.33424 0.59444 0.0
C144 C 0.51115 0.37428 0.5955 0.0
C145 C 0.42657 0.34433 0.55258 0.0
C146 C 0.37785 0.4038 0.55188 0.0
C147 C 0.43917 0.58821 0.56221 0.0
H148 H 0.32188 0.38913 0.51482 0.0
C149 C 0.52539 0.62763 0.52997 0.0
C150 C 0.58063 0.73214 0.52538 0.0
C151 C 0.3986 0.65066 0.58182 0.0
H152 H 0.33331 0.62178 0.60774 0.0
C153 C 0.44778 0.7536 0.57147 0.0
H154 H 0.55852 0.57987 0.51643 0.0
C155 C 0.54168 0.79579 0.54636 0.0
H156 H 0.5837 0.87754 0.54326 0.0
H157 H 0.41741 0.80261 0.58704 0.0
H158 H 0.62083 1.04083 0.93608 0.0
C159 C 0.5552 1.03739 0.91134 0.0
C160 C 0.45766 0.98178 0.93139 0.0
C161 C 0.55759 1.04399 0.85008 0.0
H162 H 0.29352 0.90968 0.9061 0.0
C163 C 0.36968 0.96167 0.8943 0.0
C164 C 0.38188 1.00196 0.83929 0.0
C165 C 0.48225 1.06142 0.82386 0.0
C166 C 0.56787 0.96192 0.81359 0.0
H167 H 0.49206 1.08851 0.78064 0.0
C168 C 0.54479 0.86971 0.83688 0.0
C169 C 0.52558 0.78079 0.80021 0.0
C170 C 0.57521 0.96372 0.75212 0.0
H171 H 0.58912 1.03105 0.73182 0.0
C172 C 0.55959 0.87694 0.71543 0.0
H173 H 0.53388 0.8637 0.88333 0.0
C174 C 0.53358 0.7858 0.7389 0.0
H175 H 0.52183 0.7205 0.70901 0.0
H176 H 0.56831 0.88112 0.66863 0.0
H177 H 1.27797 0.60727 0.27095 0.0
C178 C 0.34566 0.66938 0.29667 0.0
C179 C 0.42232 0.74746 0.26617 0.0
C180 C 0.3525 0.67652 0.36064 0.0
H181 H 0.57146 0.88642 0.27812 0.0
C182 C 0.5135 0.82707 0.30071 0.0
C183 C 0.52895 0.83799 0.36358 0.0
C184 C 0.44629 0.763 0.39232 0.0
C185 C 1.25709 0.6118 0.39608 0.0
H186 H 0.45373 0.77372 0.4402 0.0
C187 C 1.18067 0.50045 0.38748 0.0
C188 C 1.09422 0.45473 0.42483 0.0
C189 C 1.24163 0.67076 0.44215 0.0
H190 H 0.29159 0.75339 0.4507 0.0
C191 C 1.16128 0.62775 0.47773 0.0
H192 H 1.18791 0.45123 0.35245 0.0
C193 C 1.08947 0.52318 0.46915 0.0
H194 H 1.02838 0.49534 0.49819 0.0
H195 H 1.15371 0.67726 0.51254 0.0
H196 H 0.81394 1.03217 0.63535 0.0
C197 C 0.80548 1.09492 0.65587 0.0
C198 C 0.79866 1.16396 0.6187 0.0
C199 C 0.80071 1.10604 0.71896 0.0
H200 H 0.78865 0.30266 0.61865 0.0
C201 C 0.79076 0.24849 0.64628 0.0
C202 C 0.78613 0.26597 0.70837 0.0
C203 C 0.78854 0.19241 0.74338 0.0
C204 C 0.80723 1.02954 0.76016 0.0
H205 H 0.78018 0.20393 0.79004 0.0
C206 C 0.78957 0.92531 0.74209 0.0
C207 C 0.7855 0.85714 0.78555 0.0
C208 C 0.82947 1.06249 0.82213 0.0
H209 H 0.85212 1.14024 0.84032 0.0
C210 C 0.82372 0.99729 0.86352 0.0
H211 H 0.77564 0.89605 0.69533 0.0
C212 C 0.80022 0.8966 0.84583 0.0
H213 H 0.79795 0.85051 0.88035 0.0
H214 H 0.83869 1.02592 0.91062 0.0
H215 H 0.83248 0.74678 0.95075 0.0
C216 C 0.90347 0.75646 0.97201 0.0
C217 C 0.95618 0.71306 0.94044 0.0
C218 C 0.94237 0.81411 0.02952 0.0
H219 H 1.08626 0.6888 0.94288 0.0
C220 C 1.04831 0.72363 0.96743 0.0
C221 C 1.09287 0.77885 0.02477 0.0
C222 C 1.03882 0.82415 0.05501 0.0
C223 C 0.88854 0.87102 0.06032 0.0
H224 H 1.072 0.86622 0.09896 0.0
C225 C 0.77887 0.84141 0.05258 0.0
C226 C 0.73831 0.90261 0.08319 0.0
C227 C 0.95284 0.9636 0.09787 0.0
H228 H 1.03513 0.99393 0.10433 0.0
C229 C 0.91487 1.02214 0.1268 0.0
H230 H 0.7257 0.77143 0.02382 0.0
C231 C 0.81061 0.99248 0.11993 0.0
H232 H 0.78677 1.04162 0.14394 0.0
H233 H 0.96791 1.09287 0.15513 0.0
loop_
_geom_bond_atom_site_label_1
_geom_bond_atom_site_label_2
_geom_bond_distance
_geom_bond_site_symmetry_2
_ccdc_geom_bond_type
Eu0 C9 2.828 . S
Eu0 O11 2.392 1_655 S
Eu0 O13 2.418 1_554 S
Eu0 O18 2.373 . S
Eu0 O21 2.488 . S
Eu0 O22 2.471 . S
Eu0 O23 2.349 1_655 S
Eu1 O10 2.373 . S
Eu1 O14 2.488 . S
Eu1 O15 2.471 . S
Eu1 O16 2.349 . S
Eu1 O19 2.392 1_455 S
Eu1 O20 2.418 . S
Eu1 C30 2.828 . S
C2 O20 1.244 . S
C2 O23 1.265 . S
C3 C4 1.379 . S
C3 C7 1.373 . S
C3 C9 1.505 . S
C4 C3 1.379 . S
C4 C6 1.369 . S
C4 H32 0.930 . S
C5 C7 1.383 . S
C5 C8 1.382 . S
C5 H33 0.930 1_554 S
C6 C4 1.369 . S
C6 C8 1.392 . S
C6 H34 0.930 . S
C7 C3 1.373 . S
C7 C5 1.383 . S
C7 H35 0.931 1_554 S
C8 C5 1.382 . S
C8 C6 1.392 . S
C9 Eu0 2.828 . S
C9 C3 1.505 . S
C9 O21 1.249 . S
C9 O22 1.244 . S
O10 Eu1 2.373 . S
O10 C12 1.258 . S
O11 Eu0 2.392 1_455 S
O11 C12 1.242 . S
C12 O10 1.258 . S
C12 O11 1.242 . S
O13 Eu0 2.418 1_556 S
O13 C17 1.244 1_655 S
O14 Eu1 2.488 . S
O14 C30 1.249 . S
O15 Eu1 2.471 . S
O15 C30 1.244 . S
O16 Eu1 2.349 . S
O16 C17 1.265 1_554 S
C17 O13 1.244 1_455 S
C17 O16 1.265 1_556 S
O18 Eu0 2.373 . S
O18 C31 1.258 . S
O19 Eu1 2.392 1_655 S
O19 C31 1.242 . S
O20 Eu1 2.418 . S
O20 C2 1.244 . S
O21 Eu0 2.488 . S
O21 C9 1.249 . S
O22 Eu0 2.471 . S
O22 C9 1.244 . S
O23 Eu0 2.349 1_455 S
O23 C2 1.265 . S
C24 C25 1.379 . S
C24 C28 1.373 . S
C24 C30 1.505 . S
C25 C24 1.379 . S
C25 C27 1.369 . S
C25 H36 0.930 . S
C26 C28 1.383 . S
C26 C29 1.382 . S
C26 H37 0.930 1_565 S
C27 C25 1.369 . S
C27 C29 1.392 . S
C27 H38 0.930 . S
C28 C24 1.373 . S
C28 C26 1.383 . S
C28 H39 0.931 . S
C29 C26 1.382 . S
C29 C27 1.392 . S
C30 Eu1 2.828 . S
C30 O14 1.249 . S
C30 O15 1.244 . S
C30 C24 1.505 . S
C31 O18 1.258 . S
C31 O19 1.242 . S
H32 C4 0.930 . S
H33 C5 0.930 1_556 S
H34 C6 0.930 . S
H35 C7 0.931 1_556 S
H36 C25 0.930 . S
H37 C26 0.930 1_545 S
H38 C27 0.930 . S
H39 C28 0.931 . S
Eu40 C49 2.828 . S
Eu40 O51 2.392 1_565 S
Eu40 O53 2.418 . S
Eu40 O58 2.373 . S
Eu40 O61 2.488 . S
Eu40 O62 2.471 . S
Eu40 O63 2.349 1_565 S
Eu41 O50 2.373 . S
Eu41 O54 2.488 . S
Eu41 O55 2.471 . S
Eu41 O56 2.349 . S
Eu41 O59 2.392 1_545 S
Eu41 O60 2.418 . S
Eu41 C70 2.828 . S
C42 O60 1.244 . S
C42 O63 1.265 . S
C43 C44 1.379 . S
C43 C47 1.373 . S
C43 C49 1.505 . S
C44 C43 1.379 . S
C44 C46 1.369 . S
C44 H72 0.930 . S
C45 C47 1.383 . S
C45 C48 1.382 . S
C45 H73 0.930 . S
C46 C44 1.369 . S
C46 C48 1.392 . S
C46 H74 0.930 . S
C47 C43 1.373 . S
C47 C45 1.383 . S
C47 H75 0.931 . S
C48 C45 1.382 . S
C48 C46 1.392 . S
C49 Eu40 2.828 . S
C49 C43 1.505 . S
C49 O61 1.249 . S
C49 O62 1.244 . S
O50 Eu41 2.373 . S
O50 C52 1.258 . S
O51 Eu40 2.392 1_545 S
O51 C52 1.242 . S
C52 O50 1.258 . S
C52 O51 1.242 . S
O53 Eu40 2.418 . S
O53 C57 1.244 1_565 S
O54 Eu41 2.488 . S
O54 C70 1.249 . S
O55 Eu41 2.471 . S
O55 C70 1.244 . S
O56 Eu41 2.349 . S
O56 C57 1.265 . S
C57 O53 1.244 1_545 S
C57 O56 1.265 . S
O58 Eu40 2.373 . S
O58 C71 1.258 . S
O59 Eu41 2.392 1_565 S
O59 C71 1.242 . S
O60 Eu41 2.418 . S
O60 C42 1.244 . S
O61 Eu40 2.488 . S
O61 C49 1.249 . S
O62 Eu40 2.471 . S
O62 C49 1.244 . S
O63 Eu40 2.349 1_545 S
O63 C42 1.265 . S
C64 C65 1.379 . S
C64 C68 1.373 . S
C64 C70 1.505 . S
C65 C64 1.379 . S
C65 C67 1.369 . S
C65 H76 0.930 . S
C66 C68 1.383 . S
C66 C69 1.382 . S
C66 H77 0.930 . S
C67 C65 1.369 . S
C67 C69 1.392 . S
C67 H78 0.930 . S
C68 C64 1.373 . S
C68 C66 1.383 . S
C68 H79 0.931 . S
C69 C66 1.382 . S
C69 C67 1.392 . S
C70 Eu41 2.828 . S
C70 O54 1.249 . S
C70 O55 1.244 . S
C70 C64 1.505 . S
C71 O58 1.258 . S
C71 O59 1.242 . S
H72 C44 0.930 . S
H73 C45 0.930 . S
H74 C46 0.930 . S
H75 C47 0.931 . S
H76 C65 0.930 . S
H77 C66 0.930 . S
H78 C67 0.930 . S
H79 C68 0.931 . S
Eu80 C89 2.828 . S
Eu80 O91 2.392 . S
Eu80 O93 2.418 . S
Eu80 O98 2.373 . S
Eu80 O101 2.488 . S
Eu80 O102 2.471 . S
Eu80 O103 2.349 . S
Eu81 O90 2.373 . S
Eu81 O94 2.488 . S
Eu81 O95 2.471 . S
Eu81 O96 2.349 . S
Eu81 O99 2.392 . S
Eu81 O100 2.418 . S
Eu81 C110 2.828 . S
C82 O100 1.244 . S
C82 O103 1.265 . S
C83 C84 1.379 . S
C83 C87 1.373 . S
C83 C89 1.505 . S
C84 C83 1.379 . S
C84 C86 1.369 . S
C84 H112 0.930 . S
C85 C87 1.383 . S
C85 C88 1.382 . S
C85 H113 0.930 . S
C86 C84 1.369 . S
C86 C88 1.392 . S
C86 H114 0.930 . S
C87 C83 1.373 . S
C87 C85 1.383 . S
C87 H115 0.931 . S
C88 C85 1.382 . S
C88 C86 1.392 . S
C89 Eu80 2.828 . S
C89 C83 1.505 . S
C89 O101 1.249 . S
C89 O102 1.244 . S
O90 Eu81 2.373 . S
O90 C92 1.258 . S
O91 Eu80 2.392 . S
O91 C92 1.242 . S
C92 O90 1.258 . S
C92 O91 1.242 . S
O93 Eu80 2.418 . S
O93 C97 1.244 . S
O94 Eu81 2.488 . S
O94 C110 1.249 . S
O95 Eu81 2.471 . S
O95 C110 1.244 . S
O96 Eu81 2.349 . S
O96 C97 1.265 . S
C97 O93 1.244 . S
C97 O96 1.265 . S
O98 Eu80 2.373 . S
O98 C111 1.258 . S
O99 Eu81 2.392 . S
O99 C111 1.242 . S
O100 Eu81 2.418 . S
O100 C82 1.244 . S
O101 Eu80 2.488 . S
O101 C89 1.249 . S
O102 Eu80 2.471 . S
O102 C89 1.244 . S
O103 Eu80 2.349 . S
O103 C82 1.265 . S
C104 C105 1.379 . S
C104 C108 1.373 . S
C104 C110 1.505 . S
C105 C104 1.379 . S
C105 C107 1.369 . S
C105 H116 0.930 . S
C106 C108 1.383 . S
C106 C109 1.382 . S
C106 H117 0.930 1_655 S
C107 C105 1.369 . S
C107 C109 1.392 . S
C107 H118 0.930 . S
C108 C104 1.373 . S
C108 C106 1.383 . S
C108 H119 0.931 . S
C109 C106 1.382 . S
C109 C107 1.392 . S
C110 Eu81 2.828 . S
C110 O94 1.249 . S
C110 O95 1.244 . S
C110 C104 1.505 . S
C111 O98 1.258 . S
C111 O99 1.242 . S
H112 C84 0.930 . S
H113 C85 0.930 . S
H114 C86 0.930 . S
H115 C87 0.931 . S
H116 C105 0.930 . S
H117 C106 0.930 1_455 S
H118 C107 0.930 . S
H119 C108 0.931 . S
H120 C121 0.949 . S
C121 H120 0.949 . S
C121 C122 1.395 . S
C121 C123 1.391 . S
C122 C121 1.395 . S
C122 C125 1.390 1_545 S
C123 C121 1.391 . S
C123 C127 1.387 1_545 S
C123 C128 1.491 . S
H124 C125 0.950 . S
C125 C122 1.390 1_565 S
C125 H124 0.950 . S
C125 C126 1.378 . S
C126 C125 1.378 . S
C126 C127 1.409 . S
C127 C123 1.387 1_565 S
C127 C126 1.409 . S
C127 H129 0.951 . S
C128 C123 1.491 . S
C128 C130 1.382 . S
C128 C132 1.404 . S
H129 C127 0.951 . S
C130 C128 1.382 . S
C130 C131 1.390 . S
C130 H135 0.949 . S
C131 C130 1.390 . S
C131 C136 1.399 . S
C132 C128 1.404 . S
C132 H133 0.950 . S
C132 C134 1.375 . S
H133 C132 0.950 . S
C134 C132 1.375 . S
C134 C136 1.382 . S
C134 H138 0.950 . S
H135 C130 0.949 . S
C136 C131 1.399 . S
C136 C134 1.382 . S
C136 H137 0.952 . S
H137 C136 0.952 . S
H138 C134 0.950 . S
H139 C140 0.949 . S
C140 H139 0.949 . S
C140 C141 1.395 . S
C140 C142 1.391 . S
C141 C140 1.395 . S
C141 C144 1.390 . S
C142 C140 1.391 . S
C142 C146 1.387 . S
C142 C147 1.491 . S
H143 C144 0.950 . S
C144 C141 1.390 . S
C144 H143 0.950 . S
C144 C145 1.378 . S
C145 C144 1.378 . S
C145 C146 1.409 . S
C146 C142 1.387 . S
C146 C145 1.409 . S
C146 H148 0.951 . S
C147 C142 1.491 . S
C147 C149 1.382 . S
C147 C151 1.404 . S
H148 C146 0.951 . S
C149 C147 1.382 . S
C149 C150 1.390 . S
C149 H154 0.949 . S
C150 C149 1.390 . S
C150 C155 1.399 . S
C151 C147 1.404 . S
C151 H152 0.950 . S
C151 C153 1.375 . S
H152 C151 0.950 . S
C153 C151 1.375 . S
C153 C155 1.382 . S
C153 H157 0.950 . S
H154 C149 0.949 . S
C155 C150 1.399 . S
C155 C153 1.382 . S
C155 H156 0.952 . S
H156 C155 0.952 . S
H157 C153 0.950 . S
H158 C159 0.949 1_554 S
C159 H158 0.949 1_556 S
C159 C160 1.395 1_556 S
C159 C161 1.391 . S
C160 C159 1.395 1_554 S
C160 C163 1.390 1_454 S
C161 C159 1.391 . S
C161 C165 1.387 . S
C161 C166 1.491 . S
H162 C163 0.950 1_554 S
C163 C160 1.390 1_656 S
C163 H162 0.950 1_556 S
C163 C164 1.378 . S
C164 C163 1.378 . S
C164 C165 1.409 1_655 S
C165 C161 1.387 . S
C165 C164 1.409 1_455 S
C165 H167 0.951 . S
C166 C161 1.491 . S
C166 C168 1.382 . S
C166 C170 1.404 . S
H167 C165 0.951 . S
C168 C166 1.382 . S
C168 C169 1.390 . S
C168 H173 0.949 . S
C169 C168 1.390 . S
C169 C174 1.399 . S
C170 C166 1.404 . S
C170 H171 0.950 . S
C170 C172 1.375 . S
H171 C170 0.950 . S
C172 C170 1.375 . S
C172 C174 1.382 . S
C172 H176 0.950 . S
H173 C168 0.949 . S
C174 C169 1.399 . S
C174 C172 1.382 . S
C174 H175 0.952 . S
H175 C174 0.952 . S
H176 C172 0.950 . S
H177 C178 0.949 1_655 S
C178 H177 0.949 1_455 S
C178 C179 1.395 . S
C178 C180 1.391 . S
C179 C178 1.395 . S
C179 C182 1.390 . S
C180 C178 1.391 . S
C180 C184 1.387 . S
C180 C185 1.491 1_455 S
H181 C182 0.950 . S
C182 C179 1.390 . S
C182 H181 0.950 . S
C182 C183 1.378 . S
C183 C182 1.378 . S
C183 C184 1.409 . S
C184 C180 1.387 . S
C184 C183 1.409 . S
C184 H186 0.951 . S
C185 C180 1.491 1_655 S
C185 C187 1.382 . S
C185 C189 1.404 . S
H186 C184 0.951 . S
C187 C185 1.382 . S
C187 C188 1.390 . S
C187 H192 0.949 . S
C188 C187 1.390 . S
C188 C193 1.399 . S
C189 C185 1.404 . S
C189 H190 0.950 . S
C189 C191 1.375 . S
H190 C189 0.950 . S
C191 C189 1.375 . S
C191 C193 1.382 . S
C191 H195 0.950 . S
H192 C187 0.949 . S
C193 C188 1.399 . S
C193 C191 1.382 . S
C193 H194 0.952 . S
H194 C193 0.952 . S
H195 C191 0.950 . S
H196 C197 0.949 1_565 S
C197 H196 0.949 1_545 S
C197 C198 1.395 . S
C197 C199 1.391 . S
C198 C197 1.395 . S
C198 C201 1.390 . S
C199 C197 1.391 . S
C199 C203 1.387 . S
C199 C204 1.491 1_545 S
H200 C201 0.950 . S
C201 C198 1.390 . S
C201 H200 0.950 . S
C201 C202 1.378 . S
C202 C201 1.378 . S
C202 C203 1.409 . S
C203 C199 1.387 . S
C203 C202 1.409 . S
C203 H205 0.951 . S
C204 C199 1.491 1_565 S
C204 C206 1.382 . S
C204 C208 1.404 . S
H205 C203 0.951 . S
C206 C204 1.382 . S
C206 C207 1.390 . S
C206 H211 0.949 . S
C207 C206 1.390 . S
C207 C212 1.399 . S
C208 C204 1.404 . S
C208 H209 0.950 . S
C208 C210 1.375 . S
H209 C208 0.950 . S
C210 C208 1.375 . S
C210 C212 1.382 . S
C210 H214 0.950 . S
H211 C206 0.949 . S
C212 C207 1.399 . S
C212 C210 1.382 . S
C212 H213 0.952 . S
H213 C212 0.952 . S
H214 C210 0.950 . S
H215 C216 0.949 . S
C216 H215 0.949 . S
C216 C217 1.395 1_554 S
C216 C218 1.391 . S
C217 C216 1.395 1_556 S
C217 C220 1.390 1_556 S
C218 C216 1.391 . S
C218 C222 1.387 . S
C218 C223 1.491 . S
H219 C220 0.956 . S
C220 C217 1.390 1_554 S
C220 H219 0.956 . S
C220 C221 1.378 . S
C221 C220 1.378 . S
C221 C222 1.409 . S
C222 C218 1.387 . S
C222 C221 1.409 . S
C222 H224 0.951 . S
C223 C218 1.491 . S
C223 C225 1.382 . S
C223 C227 1.404 . S
H224 C222 0.951 . S
C225 C223 1.382 . S
C225 C226 1.390 . S
C225 H230 0.949 . S
C226 C225 1.390 . S
C226 C231 1.399 . S
C227 C223 1.404 . S
C227 H228 0.950 . S
C227 C229 1.375 . S
H228 C227 0.950 . S
C229 C227 1.375 . S
C229 C231 1.382 . S
C229 H233 0.950 . S
H230 C225 0.949 . S
C231 C226 1.399 . S
C231 C229 1.382 . S
C231 H232 0.952 . S
H232 C231 0.952 . S
H233 C229 0.950 . S
C12 C226 4.667 . S
C52 C188 4.672 . S
C111 C207 4.726 . S
C31 C221 4.745 . S
C183 C71 4.741 . S
C202 C92 4.690 . S
C48 C150 2.636 . S
C109 C164 2.903 . S
C29 C126 2.666 . S
C145 C69 3.053 . S
C169 C88 2.627 . S
C8 C131 2.694 . S
C160 C17 0.768 1_554 S
C57 C122 0.560 . S
C97 C141 1.130 . S
C198 C42 1.992 . S
C217 C82 2.020 . S
C2 C179 2.078 . S
