# Generated by pormake.
# Topology zzz, (3,6)-cn, num edge types: 1
# Building blocks:
#     Node 0, Type 0, BuildingBlock: PAMTOO_clean_linker_0, # of connection points: 3
#     Node 1, Type 0, BuildingBlock: PAMTOO_clean_linker_0, # of connection points: 3
#     Node 2, Type 0, BuildingBlock: PAMTOO_clean_linker_0, # of connection points: 3
#     Node 3, Type 0, BuildingBlock: PAMTOO_clean_linker_0, # of connection points: 3
#     Node 4, Type 0, BuildingBlock: PAMTOO_clean_linker_0, # of connection points: 3
#     Node 5, Type 0, BuildingBlock: PAMTOO_clean_linker_0, # of connection points: 3
#     Node 6, Type 0, BuildingBlock: PAMTOO_clean_linker_0, # of connection points: 3
#     Node 7, Type 0, BuildingBlock: PAMTOO_clean_linker_0, # of connection points: 3
#     Node 8, Type 1, BuildingBlock: FUNLAD_clean_sbu_0, # of connection points: 6
#     Node 9, Type 1, BuildingBlock: FUNLAD_clean_sbu_0, # of connection points: 6
#     Node 10, Type 1, BuildingBlock: FUNLAD_clean_sbu_0, # of connection points: 6
#     Node 11, Type 1, BuildingBlock: FUNLAD_clean_sbu_0, # of connection points: 6
#     Edge 12, Type (0, 1), None
#     Edge 13, Type (0, 1), None
#     Edge 14, Type (0, 1), None
#     Edge 15, Type (0, 1), None
#     Edge 16, Type (0, 1), None
#     Edge 17, Type (0, 1), None
#     Edge 18, Type (0, 1), None
#     Edge 19, Type (0, 1), None
#     Edge 20, Type (0, 1), None
#     Edge 21, Type (0, 1), None
#     Edge 22, Type (0, 1), None
#     Edge 23, Type (0, 1), None
#     Edge 24, Type (0, 1), None
#     Edge 25, Type (0, 1), None
#     Edge 26, Type (0, 1), None
#     Edge 27, Type (0, 1), None
#     Edge 28, Type (0, 1), None
#     Edge 29, Type (0, 1), None
#     Edge 30, Type (0, 1), None
#     Edge 31, Type (0, 1), None
#     Edge 32, Type (0, 1), None
#     Edge 33, Type (0, 1), None
#     Edge 34, Type (0, 1), None
#     Edge 35, Type (0, 1), None
# Relax obj value: 0.126
# Max RMSD: 0.192
# Mean RMSD: 0.105
data_MOF--net-zzz--node1-FUNLAD_clean_sbu_0--node2-PAMTOO_clean_linker_0--edge1-none
_symmetry_space_group_name_H-M    P1
_symmetry_Int_Tables_number       1
_symmetry_cell_setting            triclinic
loop_
_symmetry_equiv_pos_as_xyz
'x, y, z'
_cell_length_a     21.967974
_cell_length_b     28.42277
_cell_length_c     8.6321194
_cell_angle_alpha  80.494513
_cell_angle_beta   80.185391
_cell_angle_gamma 85.500281
loop_
_atom_site_label
_atom_site_type_symbol
_atom_site_fract_x
_atom_site_fract_y
_atom_site_fract_z
_atom_type_partial_charge
H0 H 1.01191 0.49556 0.4417 0.0
H1 H 0.86805 0.54342 0.16894 0.0
H2 H 0.85163 0.57653 0.64204 0.0
H3 H 0.70468 0.58729 0.41091 0.0
C4 C 0.74459 0.56459 0.36312 0.0
O5 O 0.79803 0.58496 0.37947 0.0
H6 H 0.74088 0.52852 0.43661 0.0
C7 C 0.96524 0.51081 0.43762 0.0
C8 C 0.93419 0.53378 0.56334 0.0
C9 C 0.94111 0.51408 0.29634 0.0
C10 C 0.88408 0.53773 0.28286 0.0
C11 C 0.85058 0.55892 0.40706 0.0
C12 C 0.87581 0.55768 0.54851 0.0
H13 H 1.05054 0.94771 0.37017 0.0
H14 H 0.11794 0.86221 0.00636 0.0
H15 H 0.98222 0.808 0.40427 0.0
H16 H 1.02044 0.80944 0.93326 0.0
C17 C 1.01496 0.78096 0.03781 0.0
O18 O 1.05378 0.78776 0.14195 0.0
H19 H 0.96621 0.78306 0.09893 0.0
C20 C 1.05187 0.91421 0.32414 0.0
C21 C 1.01014 0.87964 0.3987 0.0
C22 C 0.08936 0.90936 0.18162 0.0
C23 C 0.0907 0.86603 0.12106 0.0
C24 C 1.05254 0.82914 0.20155 0.0
C25 C 1.01193 0.83605 0.34156 0.0
H26 H 0.60516 1.02463 0.37629 0.0
H27 H 0.77268 1.02058 0.03982 0.0
H28 H 0.78075 1.00646 0.54199 0.0
H29 H 0.89801 0.05437 0.32605 0.0
C30 C 0.88638 0.04599 0.21354 0.0
O31 O 0.84775 1.00795 0.25026 0.0
H32 H 0.86246 0.0783 0.15468 0.0
C33 C 0.65524 1.02192 0.3519 0.0
C34 C 0.68858 1.01526 0.47785 0.0
C35 C 0.68493 1.02446 0.19534 0.0
C36 C 0.74966 1.01988 0.1616 0.0
C37 C 0.78491 1.01362 0.28571 0.0
C38 C 0.7541 1.01132 0.44538 0.0
H39 H 0.51906 0.55403 0.3909 0.0
H40 H 0.52206 0.67982 0.03864 0.0
H41 H 0.57361 0.68673 0.49243 0.0
H42 H 0.48648 0.77237 0.34498 0.0
C43 C 0.50661 0.7704 0.21868 0.0
O44 O 0.55492 0.73627 0.21463 0.0
H45 H 0.47012 0.75998 0.15764 0.0
C46 C 0.5239 0.59227 0.35807 0.0
C47 C 0.54672 0.61767 0.46134 0.0
C48 C 0.51485 0.61423 0.20517 0.0
C49 C 0.5256 0.66286 0.1591 0.0
C50 C 0.54504 0.68933 0.26338 0.0
C51 C 0.55675 0.66655 0.41387 0.0
H52 H 0.11952 0.56706 0.31011 0.0
H53 H 0.26076 0.51367 0.58648 0.0
H54 H 0.27427 0.4798 0.11556 0.0
H55 H 0.38848 0.52269 0.32327 0.0
C56 C 0.3829 0.48612 0.39239 0.0
O57 O 0.32716 0.46876 0.37877 0.0
H58 H 0.42103 0.46332 0.3367 0.0
C59 C 0.16534 0.55023 0.31533 0.0
C60 C 0.19496 0.52611 0.19075 0.0
C61 C 0.18914 0.54583 0.45763 0.0
C62 C 0.24495 0.52012 0.47224 0.0
C63 C 0.2768 0.49745 0.3494 0.0
C64 C 0.25159 0.4998 0.20765 0.0
H65 H 0.06498 0.11387 0.39677 0.0
H66 H 0.99953 0.19857 0.76401 0.0
H67 H 0.12976 0.25506 0.35709 0.0
H68 H 0.15267 0.27414 0.66681 0.0
C69 C 0.1043 0.27863 0.72852 0.0
O70 O 0.06335 0.27297 0.62841 0.0
H71 H 0.09722 0.25096 0.83536 0.0
C72 C 0.06325 0.14746 0.44249 0.0
C73 C 0.10274 0.18316 0.36335 0.0
C74 C 1.0262 0.15211 0.58594 0.0
C75 C 1.02557 0.19516 0.64764 0.0
C76 C 0.06305 0.2323 0.56604 0.0
C77 C 0.1014 0.22643 0.4219 0.0
H78 H 0.50156 0.04476 0.40098 0.0
H79 H 0.34142 1.00587 0.74651 0.0
H80 H 0.33425 1.0159 0.24585 0.0
H81 H 0.20302 0.03665 0.41482 0.0
C82 C 0.22 0.03652 0.52885 0.0
O83 O 0.26813 1.00201 0.53885 0.0
H84 H 0.23697 0.07245 0.52875 0.0
C85 C 0.45332 0.03621 0.428 0.0
C86 C 0.42168 0.03242 0.30425 0.0
C87 C 0.42573 1.02482 0.58626 0.0
C88 C 0.36323 1.01384 0.62339 0.0
C89 C 0.32893 1.01254 0.50093 0.0
C90 C 0.35913 1.01996 0.34052 0.0
H91 H 0.61352 0.48854 0.36438 0.0
H92 H 0.62058 0.36116 0.70746 0.0
H93 H 0.56215 0.35524 0.26057 0.0
H94 H 0.49391 0.29302 0.55782 0.0
C95 C 0.53264 0.28778 0.62786 0.0
O96 O 0.58578 0.30499 0.53238 0.0
H97 H 0.51962 0.30794 0.7299 0.0
C98 C 0.61034 0.4501 0.39562 0.0
C99 C 0.58786 0.42453 0.29241 0.0
C100 C 0.6217 0.42784 0.54629 0.0
C101 C 0.61452 0.37858 0.58912 0.0
C102 C 0.5936 0.35231 0.48626 0.0
C103 C 0.57919 0.37546 0.33873 0.0
C104 C 0.09814 0.95437 0.07407 0.0
N105 N 0.99605 0.95932 0.71691 0.0
C106 C 1.0239 0.91455 0.74299 0.0
C107 C 1.00905 0.87783 0.67127 0.0
C108 C 0.974 0.88934 0.54986 0.0
C109 C 0.93651 0.93202 0.54506 0.0
C110 C 0.94911 0.96735 0.62957 0.0
Zn111 Zn 1.03017 1.01306 0.81065 0.0
C112 C 0.94571 0.03556 0.10293 0.0
N113 N 0.11415 0.10242 0.05014 0.0
C114 C 0.16533 0.09838 0.12167 0.0
C115 C 0.07975 0.14469 0.03505 0.0
C116 C 0.0943 0.1834 0.09727 0.0
C117 C 0.13502 0.17518 0.20652 0.0
C118 C 0.17694 0.13503 0.20208 0.0
Zn119 Zn 0.08235 0.04809 0.95782 0.0
O120 O 0.06481 0.95996 -0.0329 0.0
C121 C 0.16661 0.02769 0.66512 0.0
O122 O 0.11646 0.99115 0.11583 0.0
H123 H 1.03671 0.148 -0.01017 0.0
H124 H 0.06303 0.90718 0.80375 0.0
H125 H 0.19355 0.0654 0.12873 0.0
O126 O 0.11685 1.01112 0.64296 0.0
O127 O 0.16655 0.04512 0.79189 0.0
H128 H 0.92564 1.00226 0.61314 0.0
O129 O 1.04933 0.10097 0.8 0.0
O130 O 0.99629 0.07079 0.65253 0.0
O131 O 0.99612 0.05153 0.12224 0.0
O132 O 0.94487 1.01708 -0.02149 0.0
C133 C 1.01615 0.10715 0.69305 0.0
H134 H 1.03886 0.84553 0.67694 0.0
H135 H 0.90719 0.94154 0.45462 0.0
H136 H 0.06134 0.21392 0.0976 0.0
H137 H 0.21078 0.12832 0.28183 0.0
C138 C 0.46517 1.02266 0.70789 0.0
N139 N 0.55397 0.13755 0.79679 0.0
C140 C 0.55528 0.15342 0.6384 0.0
C141 C 0.54958 0.20222 0.58126 0.0
C142 C 0.54242 0.2352 0.68772 0.0
C143 C 0.54279 0.21817 0.85008 0.0
C144 C 0.54849 0.16887 0.90249 0.0
Zn145 Zn 0.55564 0.06455 0.86845 0.0
C146 C 0.45993 0.03269 0.14579 0.0
N147 N 0.5534 0.91173 -0.00695 0.0
C148 C 0.54218 0.87963 0.90168 0.0
C149 C 0.55555 0.89809 0.15122 0.0
C150 C 0.54385 0.85147 0.22462 0.0
C151 C 0.52898 0.81837 0.13553 0.0
C152 C 0.52983 0.83239 -0.02891 0.0
Zn153 Zn 0.55528 0.98448 0.91431 0.0
O154 O 0.4878 0.06086 0.72483 0.0
C155 C 0.65136 1.01558 0.63751 0.0
O156 O 0.48604 0.98254 0.77244 0.0
H157 H 0.56304 0.92401 0.22365 0.0
H158 H 0.55946 0.12811 0.55593 0.0
H159 H 0.53994 0.89113 0.77682 0.0
O160 O 0.62855 0.05567 0.67374 0.0
O161 O 0.6277 0.97733 0.71513 0.0
H162 H 0.5474 0.15561 0.02778 0.0
O163 O 0.62449 0.98863 0.0535 0.0
O164 O 0.62351 0.06711 0.01271 0.0
O165 O 0.48316 0.99296 0.109 0.0
O166 O 0.48287 0.07109 0.06794 0.0
C167 C 0.64589 0.02702 0.0731 0.0
H168 H 0.54961 0.2141 0.45535 0.0
H169 H 0.53756 0.24264 0.9358 0.0
H170 H 0.54349 0.84203 0.3516 0.0
H171 H 0.51846 0.80765 0.89871 0.0
C172 C 0.61441 0.45758 0.67279 0.0
N173 N 0.43333 0.49239 0.8461 0.0
C174 C 0.43346 0.4488 0.79912 0.0
C175 C 0.41257 0.44495 0.65676 0.0
C176 C 0.38959 0.48597 0.56559 0.0
C177 C 0.3796 0.52828 0.63277 0.0
C178 C 0.40042 0.53035 0.7764 0.0
Zn179 Zn 0.51797 0.50985 0.89829 0.0
C180 C 0.5749 0.45085 0.13786 0.0
N181 N 0.70121 0.55053 0.90819 0.0
C182 C 0.73301 0.51362 -0.01322 0.0
C183 C 0.70063 0.59525 0.94705 0.0
C184 C 0.71939 0.60162 0.08975 0.0
C185 C 0.74128 0.562 0.18933 0.0
C186 C 0.75177 0.51823 0.13097 0.0
Zn187 Zn 0.61705 0.53198 0.85508 0.0
O188 O 0.55974 0.46309 0.74435 0.0
C189 C 0.55968 0.59119 0.61585 0.0
O190 O 0.6566 0.48308 0.69437 0.0
H191 H 0.67564 0.6245 0.88388 0.0
H192 H 0.45913 0.41866 0.85573 0.0
H193 H 0.73403 0.47835 0.9544 0.0
O194 O 0.51818 0.56478 0.69761 0.0
O195 O 0.61346 0.58767 0.65499 0.0
H196 H 0.40007 0.56473 0.81489 0.0
O197 O 0.57558 0.57854 0.00738 0.0
O198 O 0.4788 0.5586 0.0602 0.0
O199 O 0.61647 0.47722 0.05606 0.0
O200 O 0.52121 0.45414 0.09828 0.0
C201 C 0.52128 0.58403 0.08042 0.0
H202 H 0.41997 0.41136 0.61086 0.0
H203 H 0.36095 0.56058 0.56797 0.0
H204 H 0.71121 0.63616 0.12913 0.0
H205 H 0.76943 0.48685 0.20259 0.0
C206 C 0.14653 0.54819 0.60509 0.0
N207 N 0.0829 0.41968 0.85577 0.0
C208 C 0.08458 0.41339 0.70172 0.0
C209 C 0.09121 0.3679 0.65903 0.0
C210 C 0.09508 0.32785 0.77579 0.0
C211 C 0.09397 0.33487 0.93405 0.0
C212 C 0.08761 0.38143 -0.02815 0.0
Zn213 Zn 0.07033 0.49019 0.8939 0.0
C214 C 0.15981 0.52418 0.05921 0.0
N215 N 1.04557 0.64109 0.89995 0.0
C216 C 1.03823 0.6796 0.78656 0.0
C217 C 1.04441 0.64684 0.05437 0.0
C218 C 1.03522 0.69193 0.10041 0.0
C219 C 1.02781 0.73222 -0.01317 0.0
C220 C 1.02917 0.72579 0.8278 0.0
Zn221 Zn 0.05889 0.57051 0.85979 0.0
O222 O 0.13259 0.50842 0.68873 0.0
C223 C 0.969 0.53623 0.69521 0.0
O224 O 0.12197 0.58703 0.64719 0.0
H225 H 1.05022 0.61626 0.144 0.0
H226 H 0.08053 0.44381 0.61022 0.0
H227 H 1.03907 0.67456 0.66469 0.0
O228 O 0.9963 0.49796 0.75448 0.0
O229 O 0.98459 0.57619 0.72099 0.0
H230 H 0.08624 0.38696 0.09346 0.0
O231 O 0.99671 0.55215 0.06507 0.0
O232 O 1.00784 0.47357 0.10564 0.0
O233 O 0.1328 0.5626 -0.0 0.0
O234 O 0.14439 0.48434 0.03214 0.0
C235 C 0.98334 0.51225 0.14857 0.0
H236 H 0.09309 0.36404 0.53547 0.0
H237 H 0.09802 0.30474 0.02722 0.0
H238 H 1.03349 0.6952 0.22439 0.0
H239 H 1.02269 0.75604 0.73682 0.0
loop_
_geom_bond_atom_site_label_1
_geom_bond_atom_site_label_2
_geom_bond_distance
_geom_bond_site_symmetry_2
_ccdc_geom_bond_type
H0 C7 0.929 . S
H1 C10 0.930 . S
H2 C12 0.929 . S
H3 C4 0.969 . S
C4 H3 0.969 . S
C4 O5 1.550 . S
C4 H6 0.973 . S
O5 C4 1.550 . S
O5 C11 1.412 . S
H6 C4 0.973 . S
C7 H0 0.929 . S
C7 C8 1.400 . S
C7 C9 1.364 . S
C8 C7 1.400 . S
C8 C12 1.377 . S
C9 C7 1.364 . S
C9 C10 1.374 . S
C10 H1 0.930 . S
C10 C9 1.374 . S
C10 C11 1.383 . S
C11 O5 1.412 . S
C11 C10 1.383 . S
C11 C12 1.394 . S
C12 H2 0.929 . S
C12 C8 1.377 . S
C12 C11 1.394 . S
H13 C20 0.930 1_655 S
H14 C23 0.932 . S
H15 C25 0.930 1_655 S
H16 C17 0.969 . S
C17 H16 0.969 . S
C17 O18 1.550 1_456 S
C17 H19 0.973 1_455 S
O18 C17 1.550 1_654 S
O18 C24 1.412 1_655 S
H19 C17 0.973 1_655 S
C20 H13 0.930 1_455 S
C20 C21 1.398 . S
C20 C22 1.365 1_554 S
C21 C20 1.398 . S
C21 C25 1.375 . S
C22 C20 1.365 1_556 S
C22 C23 1.373 1_455 S
C23 H14 0.932 . S
C23 C22 1.373 1_655 S
C23 C24 1.382 1_656 S
C24 O18 1.412 1_455 S
C24 C23 1.382 1_454 S
C24 C25 1.394 . S
C25 H15 0.930 1_455 S
C25 C21 1.375 . S
C25 C24 1.394 . S
H26 C33 0.929 . S
H27 C36 0.930 . S
H28 C38 0.929 . S
H29 C30 0.969 1_545 S
C30 H29 0.969 1_565 S
C30 O31 1.550 . S
C30 H32 0.973 . S
O31 C30 1.550 . S
O31 C37 1.412 . S
H32 C30 0.973 . S
C33 H26 0.929 . S
C33 C34 1.400 . S
C33 C35 1.364 . S
C34 C33 1.400 . S
C34 C38 1.377 . S
C35 C33 1.364 . S
C35 C36 1.374 . S
C36 H27 0.930 . S
C36 C35 1.374 . S
C36 C37 1.383 . S
C37 O31 1.412 . S
C37 C36 1.383 . S
C37 C38 1.394 . S
C38 H28 0.929 . S
C38 C34 1.377 . S
C38 C37 1.394 . S
H39 C46 0.929 . S
H40 C49 0.930 . S
H41 C51 0.929 . S
H42 C43 0.969 . S
C43 H42 0.969 . S
C43 O44 1.550 . S
C43 H45 0.973 . S
O44 C43 1.550 . S
O44 C50 1.412 . S
H45 C43 0.973 . S
C46 H39 0.929 . S
C46 C47 1.400 . S
C46 C48 1.364 . S
C47 C46 1.400 . S
C47 C51 1.377 . S
C48 C46 1.364 . S
C48 C49 1.374 . S
C49 H40 0.930 . S
C49 C48 1.374 . S
C49 C50 1.383 . S
C50 O44 1.412 . S
C50 C49 1.383 . S
C50 C51 1.394 . S
C51 H41 0.929 . S
C51 C47 1.377 . S
C51 C50 1.394 . S
H52 C59 0.929 . S
H53 C62 0.930 . S
H54 C64 0.929 . S
H55 C56 0.969 . S
C56 H55 0.969 . S
C56 O57 1.550 . S
C56 H58 0.973 . S
O57 C56 1.550 . S
O57 C63 1.412 . S
H58 C56 0.973 . S
C59 H52 0.929 . S
C59 C60 1.400 . S
C59 C61 1.364 . S
C60 C59 1.400 . S
C60 C64 1.377 . S
C61 C59 1.364 . S
C61 C62 1.374 . S
C62 H53 0.930 . S
C62 C61 1.374 . S
C62 C63 1.383 . S
C63 O57 1.412 . S
C63 C62 1.383 . S
C63 C64 1.394 . S
C64 H54 0.929 . S
C64 C60 1.377 . S
C64 C63 1.394 . S
H65 C72 0.927 1_655 S
H66 C75 0.930 1_554 S
H67 C77 0.927 1_655 S
H68 C69 0.969 . S
C69 H68 0.969 . S
C69 O70 1.550 1_455 S
C69 H71 0.973 1_456 S
O70 C69 1.550 1_655 S
O70 C76 1.412 1_655 S
H71 C69 0.973 1_654 S
C72 H65 0.927 1_455 S
C72 C73 1.399 . S
C72 C74 1.363 . S
C73 C72 1.399 . S
C73 C77 1.376 . S
C74 C72 1.363 . S
C74 C75 1.376 1_455 S
C75 H66 0.930 1_556 S
C75 C74 1.376 1_655 S
C75 C76 1.383 1_655 S
C76 O70 1.412 1_455 S
C76 C75 1.383 1_455 S
C76 C77 1.396 . S
C77 H67 0.927 1_455 S
C77 C73 1.376 . S
C77 C76 1.396 . S
H78 C85 0.929 . S
H79 C88 0.930 . S
H80 C90 0.929 . S
H81 C82 0.969 . S
C82 H81 0.969 . S
C82 O83 1.550 . S
C82 H84 0.973 . S
O83 C82 1.550 . S
O83 C89 1.412 . S
H84 C82 0.973 . S
C85 H78 0.929 . S
C85 C86 1.400 . S
C85 C87 1.364 . S
C86 C85 1.400 . S
C86 C90 1.377 . S
C87 C85 1.364 . S
C87 C88 1.374 . S
C88 H79 0.930 . S
C88 C87 1.374 . S
C88 C89 1.383 . S
C89 O83 1.412 . S
C89 C88 1.383 . S
C89 C90 1.394 . S
C90 H80 0.929 . S
C90 C86 1.377 . S
C90 C89 1.394 . S
H91 C98 0.929 . S
H92 C101 0.930 . S
H93 C103 0.929 . S
H94 C95 0.969 . S
C95 H94 0.969 . S
C95 O96 1.550 . S
C95 H97 0.973 . S
O96 C95 1.550 . S
O96 C102 1.412 . S
H97 C95 0.973 . S
C98 H91 0.929 . S
C98 C99 1.400 . S
C98 C100 1.364 . S
C99 C98 1.400 . S
C99 C103 1.377 . S
C100 C98 1.364 . S
C100 C101 1.374 . S
C101 H92 0.930 . S
C101 C100 1.374 . S
C101 C102 1.383 . S
C102 O96 1.412 . S
C102 C101 1.383 . S
C102 C103 1.394 . S
C103 H93 0.929 . S
C103 C99 1.377 . S
C103 C102 1.394 . S
C104 O120 1.251 1_554 S
C104 O122 1.254 . S
N105 C106 1.333 1_655 S
N105 C110 1.307 . S
N105 Zn111 2.020 . S
C106 N105 1.333 1_455 S
C106 C107 1.379 . S
C106 H124 0.952 . S
C107 C106 1.379 . S
C107 C108 1.390 1_455 S
C107 H134 0.949 . S
C108 C107 1.390 1_655 S
C108 C109 1.357 . S
C109 C108 1.357 . S
C109 C110 1.370 . S
C109 H135 0.950 1_565 S
C110 N105 1.307 . S
C110 C109 1.370 . S
C110 H128 0.948 1_565 S
Zn111 N105 2.020 . S
Zn111 O120 2.039 1_655 S
Zn111 O126 2.034 1_655 S
Zn111 O130 2.025 1_565 S
Zn111 O132 2.024 . S
C112 O131 1.244 1_565 S
C112 O132 1.250 1_554 S
N113 C114 1.307 . S
N113 C115 1.333 1_455 S
N113 Zn119 2.020 . S
C114 N113 1.307 . S
C114 C118 1.370 . S
C114 H125 0.948 1_545 S
C115 N113 1.333 1_655 S
C115 C116 1.379 . S
C115 H123 0.952 . S
C116 C115 1.379 . S
C116 C117 1.390 1_655 S
C116 H136 0.949 . S
C117 C116 1.390 1_455 S
C117 C118 1.357 . S
C118 C114 1.370 . S
C118 C117 1.357 . S
C118 H137 0.951 . S
Zn119 N113 2.020 . S
Zn119 O122 2.025 1_545 S
Zn119 O127 2.024 1_554 S
Zn119 O129 2.039 1_454 S
Zn119 O131 2.034 1_455 S
O120 C104 1.251 1_556 S
O120 Zn111 2.039 1_455 S
C121 O126 1.246 1_545 S
C121 O127 1.249 . S
O122 C104 1.254 . S
O122 Zn119 2.025 1_565 S
H123 C115 0.952 . S
H124 C106 0.952 . S
H125 C114 0.948 1_565 S
O126 Zn111 2.034 1_455 S
O126 C121 1.246 1_565 S
O127 Zn119 2.024 1_556 S
O127 C121 1.249 . S
H128 C110 0.948 1_545 S
O129 Zn119 2.039 1_656 S
O129 C133 1.251 . S
O130 Zn111 2.025 1_545 S
O130 C133 1.254 . S
O131 C112 1.244 1_545 S
O131 Zn119 2.034 1_655 S
O132 Zn111 2.024 . S
O132 C112 1.250 1_556 S
C133 O129 1.251 . S
C133 O130 1.254 . S
H134 C107 0.949 . S
H135 C109 0.950 1_545 S
H136 C116 0.949 . S
H137 C118 0.951 . S
C138 O154 1.251 . S
C138 O156 1.254 1_545 S
N139 C140 1.333 . S
N139 C144 1.307 . S
N139 Zn145 2.020 . S
C140 N139 1.333 . S
C140 C141 1.379 . S
C140 H158 0.952 . S
C141 C140 1.379 . S
C141 C142 1.390 . S
C141 H168 0.949 . S
C142 C141 1.390 . S
C142 C143 1.357 . S
C143 C142 1.357 . S
C143 C144 1.370 . S
C143 H169 0.950 . S
C144 N139 1.307 . S
C144 C143 1.370 . S
C144 H162 0.948 1_556 S
Zn145 N139 2.020 . S
Zn145 O154 2.039 . S
Zn145 O160 2.034 . S
Zn145 O164 2.025 1_556 S
Zn145 O166 2.024 1_556 S
C146 O165 1.246 1_545 S
C146 O166 1.249 . S
N147 C148 1.307 1_554 S
N147 C149 1.333 . S
N147 Zn153 2.020 1_554 S
C148 N147 1.307 1_556 S
C148 C152 1.370 . S
C148 H159 0.948 . S
C149 N147 1.333 . S
C149 C150 1.379 . S
C149 H157 0.952 . S
C150 C149 1.379 . S
C150 C151 1.390 . S
C150 H170 0.949 . S
C151 C150 1.390 . S
C151 C152 1.357 1_554 S
C152 C148 1.370 . S
C152 C151 1.357 1_556 S
C152 H171 0.950 . S
Zn153 N147 2.020 1_556 S
Zn153 O156 2.025 . S
Zn153 O161 2.024 . S
Zn153 O163 2.039 1_556 S
Zn153 O165 2.034 1_556 S
O154 C138 1.251 . S
O154 Zn145 2.039 . S
C155 O160 1.246 1_565 S
C155 O161 1.249 . S
O156 C138 1.254 1_565 S
O156 Zn153 2.025 . S
H157 C149 0.952 . S
H158 C140 0.952 . S
H159 C148 0.948 . S
O160 Zn145 2.034 . S
O160 C155 1.246 1_545 S
O161 Zn153 2.024 . S
O161 C155 1.249 . S
H162 C144 0.948 1_554 S
O163 Zn153 2.039 1_554 S
O163 C167 1.251 . S
O164 Zn145 2.025 1_554 S
O164 C167 1.254 1_545 S
O165 C146 1.246 1_565 S
O165 Zn153 2.034 1_554 S
O166 Zn145 2.024 1_554 S
O166 C146 1.249 . S
C167 O163 1.251 . S
C167 O164 1.254 1_565 S
H168 C141 0.949 . S
H169 C143 0.950 . S
H170 C150 0.949 . S
H171 C152 0.950 . S
C172 O188 1.251 . S
C172 O190 1.254 . S
N173 C174 1.333 . S
N173 C178 1.307 1_556 S
N173 Zn179 2.020 . S
C174 N173 1.333 . S
C174 C175 1.379 . S
C174 H192 0.952 . S
C175 C174 1.379 . S
C175 C176 1.390 . S
C175 H202 0.949 . S
C176 C175 1.390 . S
C176 C177 1.357 . S
C177 C176 1.357 . S
C177 C178 1.370 1_556 S
C177 H203 0.950 1_556 S
C178 N173 1.307 1_554 S
C178 C177 1.370 1_554 S
C178 H196 0.948 . S
Zn179 N173 2.020 . S
Zn179 O188 2.039 . S
Zn179 O194 2.034 . S
Zn179 O198 2.025 1_556 S
Zn179 O200 2.024 1_556 S
C180 O199 1.246 . S
C180 O200 1.249 . S
N181 C182 1.307 . S
N181 C183 1.333 1_556 S
N181 Zn187 2.020 . S
C182 N181 1.307 . S
C182 C186 1.370 . S
C182 H193 0.948 . S
C183 N181 1.333 1_554 S
C183 C184 1.379 . S
C183 H191 0.952 . S
C184 C183 1.379 . S
C184 C185 1.390 1_554 S
C184 H204 0.949 . S
C185 C184 1.390 1_556 S
C185 C186 1.357 . S
C186 C182 1.370 . S
C186 C185 1.357 . S
C186 H205 0.950 . S
Zn187 N181 2.020 . S
Zn187 O190 2.025 . S
Zn187 O195 2.024 . S
Zn187 O197 2.039 1_556 S
Zn187 O199 2.034 1_556 S
O188 C172 1.251 . S
O188 Zn179 2.039 . S
C189 O194 1.246 . S
C189 O195 1.249 . S
O190 C172 1.254 . S
O190 Zn187 2.025 . S
H191 C183 0.952 . S
H192 C174 0.952 . S
H193 C182 0.948 . S
O194 Zn179 2.034 . S
O194 C189 1.246 . S
O195 Zn187 2.024 . S
O195 C189 1.249 . S
H196 C178 0.948 . S
O197 Zn187 2.039 1_554 S
O197 C201 1.251 . S
O198 Zn179 2.025 1_554 S
O198 C201 1.254 . S
O199 C180 1.246 . S
O199 Zn187 2.034 1_554 S
O200 Zn179 2.024 1_554 S
O200 C180 1.249 . S
C201 O197 1.251 . S
C201 O198 1.254 . S
H202 C175 0.949 . S
H203 C177 0.950 1_554 S
H204 C184 0.949 . S
H205 C186 0.950 . S
C206 O222 1.251 . S
C206 O224 1.254 . S
N207 C208 1.333 1_655 S
N207 C212 1.307 1_556 S
N207 Zn213 2.020 . S
C208 N207 1.333 1_455 S
C208 C209 1.379 . S
C208 H226 0.952 . S
C209 C208 1.379 . S
C209 C210 1.390 1_455 S
C209 H236 0.949 . S
C210 C209 1.390 1_655 S
C210 C211 1.357 1_556 S
C211 C210 1.357 1_554 S
C211 C212 1.370 . S
C211 H237 0.950 . S
C212 N207 1.307 1_554 S
C212 C211 1.370 . S
C212 H230 0.948 . S
Zn213 N207 2.020 . S
Zn213 O222 2.039 1_655 S
Zn213 O228 2.034 . S
Zn213 O232 2.025 1_556 S
Zn213 O234 2.024 1_656 S
C214 O233 1.246 . S
C214 O234 1.249 . S
N215 C216 1.307 . S
N215 C217 1.333 1_456 S
N215 Zn221 2.020 . S
C216 N215 1.307 . S
C216 C220 1.370 . S
C216 H227 0.948 . S
C217 N215 1.333 1_654 S
C217 C218 1.379 . S
C217 H225 0.952 . S
C218 C217 1.379 . S
C218 C219 1.390 1_654 S
C218 H238 0.949 . S
C219 C218 1.390 1_456 S
C219 C220 1.357 . S
C220 C216 1.370 . S
C220 C219 1.357 . S
C220 H239 0.950 . S
Zn221 N215 2.020 . S
Zn221 O224 2.025 . S
Zn221 O229 2.024 1_455 S
Zn221 O231 2.039 1_456 S
Zn221 O233 2.034 1_556 S
O222 C206 1.251 . S
O222 Zn213 2.039 1_455 S
C223 O228 1.246 . S
C223 O229 1.249 . S
O224 C206 1.254 . S
O224 Zn221 2.025 . S
H225 C217 0.952 . S
H226 C208 0.952 . S
H227 C216 0.948 . S
O228 Zn213 2.034 . S
O228 C223 1.246 . S
O229 Zn221 2.024 1_655 S
O229 C223 1.249 . S
H230 C212 0.948 . S
O231 Zn221 2.039 1_654 S
O231 C235 1.251 . S
O232 Zn213 2.025 1_554 S
O232 C235 1.254 . S
O233 C214 1.246 . S
O233 Zn221 2.034 1_554 S
O234 Zn213 2.024 1_454 S
O234 C214 1.249 . S
C235 O231 1.251 . S
C235 O232 1.254 . S
H236 C209 0.949 . S
H237 C211 0.950 . S
H238 C218 0.949 . S
H239 C220 0.950 . S
C82 C121 2.201 . S
C142 C95 1.432 . S
C176 C56 1.805 . S
C210 C69 1.691 1_655 S
C112 C30 2.091 . S
C43 C151 1.482 . S
C4 C185 1.670 1_554 S
C17 C219 1.543 . S
C133 C74 1.281 1_655 S
C138 C87 1.658 . S
C172 C100 1.437 . S
C61 C206 1.056 . S
C22 C104 1.285 1_556 S
C167 C35 1.653 . S
C201 C48 1.434 . S
C9 C235 1.040 . S
C73 C117 1.813 . S
C86 C146 2.007 . S
C180 C99 1.620 . S
C214 C60 1.819 . S
C21 C108 1.820 1_455 S
C155 C34 2.000 . S
C189 C47 1.636 . S
C8 C223 1.811 . S
