# Generated by pormake.
# Topology scu, (8,4)-cn, num edge types: 1
# Building blocks:
#     Node 0, Type 0, BuildingBlock: TAGTUT_clean_sbu_3, # of connection points: 8
#     Node 1, Type 1, BuildingBlock: IZENUY_clean_linker_0, # of connection points: 4
#     Node 2, Type 1, BuildingBlock: IZENUY_clean_linker_0, # of connection points: 4
#     Edge 3, Type (0, 1), BuildingBlock: XIVTED_clean_linker_0, # of connection points: 2
#     Edge 4, Type (0, 1), BuildingBlock: XIVTED_clean_linker_0, # of connection points: 2
#     Edge 5, Type (0, 1), BuildingBlock: XIVTED_clean_linker_0, # of connection points: 2
#     Edge 6, Type (0, 1), BuildingBlock: XIVTED_clean_linker_0, # of connection points: 2
#     Edge 7, Type (0, 1), BuildingBlock: XIVTED_clean_linker_0, # of connection points: 2
#     Edge 8, Type (0, 1), BuildingBlock: XIVTED_clean_linker_0, # of connection points: 2
#     Edge 9, Type (0, 1), BuildingBlock: XIVTED_clean_linker_0, # of connection points: 2
#     Edge 10, Type (0, 1), BuildingBlock: XIVTED_clean_linker_0, # of connection points: 2
# Relax obj value: 0.053
# Max RMSD: 0.183
# Mean RMSD: 0.141
data_MOF--net-scu--node1-TAGTUT_clean_sbu_3--node2-IZENUY_clean_linker_0--edge1-XIVTED_clean_linker_0
_symmetry_space_group_name_H-M    P1
_symmetry_Int_Tables_number       1
_symmetry_cell_setting            triclinic
loop_
_symmetry_equiv_pos_as_xyz
'x, y, z'
_cell_length_a     29.697809
_cell_length_b     25.728034
_cell_length_c     20.867624
_cell_angle_alpha  91.884921
_cell_angle_beta   89.820267
_cell_angle_gamma 88.250256
loop_
_atom_site_label
_atom_site_type_symbol
_atom_site_fract_x
_atom_site_fract_y
_atom_site_fract_z
_atom_type_partial_charge
C0 C 1.02498 0.93156 0.03544 0.0
C1 C 0.86205 1.02193 0.01213 0.0
C2 C 0.90927 0.05681 0.82563 0.0
Mg3 Mg 0.11909 0.96359 -0.02689 0.0
Mg4 Mg 0.13637 0.08604 0.94337 0.0
O5 O 0.10066 0.02799 0.9262 0.0
Mg6 Mg 1.0354 0.03393 -0.04958 0.0
O7 O 0.97038 0.03487 -0.0247 0.0
Mg8 Mg 0.95126 0.96912 0.93013 0.0
Mg9 Mg 0.93485 0.09483 -0.04123 0.0
C10 C 0.05327 0.13873 0.87096 0.0
O11 O 0.04327 0.10258 0.02278 0.0
O12 O 0.18723 0.96746 0.91608 0.0
O13 O 0.97909 0.15007 0.0069 0.0
O14 O 0.15094 1.00867 0.05714 0.0
O15 O 0.19563 0.05251 0.89709 0.0
O16 O 0.15315 0.09386 0.04341 0.0
O17 O 1.02129 0.96706 0.87874 0.0
O18 O 0.08437 0.91872 0.89214 0.0
C19 C 0.04582 0.92612 0.86602 0.0
C20 C 0.20937 1.00476 0.89242 0.0
O21 O 1.02825 0.09925 0.87789 0.0
O22 O 0.88398 0.98161 -0.01133 0.0
O23 O 0.09237 0.1427 0.89677 0.0
O24 O 0.9183 1.01194 0.84739 0.0
O25 O 0.87568 0.06839 0.00621 0.0
O26 O 0.91806 0.09811 0.85811 0.0
O27 O 0.04899 0.9701 0.02158 0.0
O28 O 0.98599 0.92573 0.01074 0.0
C29 C 0.16018 0.05435 0.07766 0.0
C30 C 1.01847 0.14417 0.03182 0.0
H31 H 0.07877 0.46183 0.36332 0.0
H32 H 0.06258 0.45395 0.5678 0.0
H33 H 0.05722 0.31513 0.44667 0.0
H34 H 0.06749 0.60964 0.53415 0.0
H35 H 0.09212 0.60628 0.33098 0.0
H36 H 0.06939 0.75239 0.43191 0.0
N37 N 0.07224 0.5193 0.47445 0.0
N38 N 0.07917 0.54681 0.42754 0.0
C39 C 0.07354 0.43943 0.40562 0.0
C40 C 0.07015 0.38541 0.39888 0.0
C41 C 0.07031 0.46433 0.46677 0.0
C42 C 0.06402 0.4345 0.521 0.0
C43 C 0.06005 0.38013 0.51479 0.0
C44 C 0.06243 0.35645 0.45317 0.0
C45 C 0.07161 0.63022 0.4902 0.0
C46 C 0.06899 0.68507 0.49115 0.0
C47 C 0.07949 0.60189 0.43202 0.0
C48 C 0.08591 0.62838 0.37543 0.0
C49 C 0.08346 0.68276 0.37557 0.0
C50 C 0.07425 0.71054 0.43314 0.0
H51 H 0.58479 1.01799 0.35394 0.0
H52 H 0.61379 0.04579 0.5543 0.0
H53 H 0.72128 0.03834 0.41561 0.0
H54 H 0.48386 1.00458 0.55037 0.0
H55 H 0.44726 0.03765 0.3558 0.0
H56 H 0.34507 1.0043 0.49382 0.0
N57 N 0.54755 0.0288 0.47359 0.0
N58 N 0.51683 0.02744 0.43298 0.0
C59 C 0.60856 0.02595 0.39204 0.0
C60 C 0.65475 0.02723 0.37765 0.0
C61 C 0.59361 0.03268 0.45617 0.0
C62 C 0.62517 0.04137 0.50496 0.0
C63 C 0.67115 0.04458 0.49041 0.0
C64 C 0.6856 0.03741 0.42679 0.0
C65 C 0.45848 1.00943 0.51368 0.0
C66 C 0.41309 1.00185 0.52877 0.0
C67 C 0.47099 1.02201 0.45084 0.0
C68 C 0.43755 0.02818 0.40404 0.0
C69 C 0.39195 1.0216 0.41906 0.0
C70 C 0.38026 1.00823 0.48138 0.0
H71 H 0.98612 0.2448 0.04401 0.0
H72 H 0.12232 0.29999 0.36545 0.0
H73 H 0.08717 0.13928 0.11904 0.0
H74 H 1.02461 0.40846 0.28889 0.0
H75 H 0.11807 0.24666 0.26683 0.0
H76 H 1.00724 0.31052 0.12446 0.0
C77 C 1.01308 0.23559 0.07699 0.0
C78 C 1.03459 0.18618 0.07519 0.0
C79 C 0.09796 0.28244 0.27104 0.0
C80 C 0.05884 0.2613 0.16755 0.0
C81 C 0.10039 0.31283 0.32731 0.0
C82 C 0.0733 0.3582 0.33541 0.0
C83 C 0.0678 0.29719 0.22277 0.0
C84 C 0.04593 0.37363 0.28442 0.0
C85 C 1.02521 0.27324 0.1228 0.0
C86 C 0.06968 0.17676 0.11854 0.0
N87 N 0.04333 0.3427 0.23053 0.0
N88 N 0.08033 0.21375 0.16343 0.0
H89 H 0.79393 0.09328 0.0376 0.0
H90 H 0.70806 0.94527 0.33712 0.0
H91 H 0.83721 0.9359 0.07678 0.0
H92 H 0.64295 0.08548 0.27148 0.0
H93 H 0.74983 0.9363 0.2359 0.0
H94 H 0.73321 0.08726 0.11569 0.0
C95 C 0.7903 0.05715 0.06209 0.0
C96 C 0.82112 1.01526 0.05133 0.0
C97 C 0.72575 0.96847 0.24283 0.0
C98 C 0.75181 1.00834 0.14153 0.0
C99 C 0.7019 0.97348 0.30048 0.0
C100 C 0.67226 1.01618 0.31222 0.0
C101 C 0.72062 1.00713 0.19722 0.0
C102 C 0.66547 0.05195 0.26381 0.0
C103 C 0.75548 0.0537 0.10657 0.0
C104 C 0.81438 0.96923 0.08381 0.0
N105 N 0.69011 0.04714 0.20872 0.0
N106 N 0.78093 0.96732 0.12832 0.0
H107 H 0.09604 0.93669 0.11922 0.0
H108 H 0.04423 0.65971 0.26015 0.0
H109 H 0.99528 0.83322 0.04568 0.0
H110 H 0.12971 0.77103 0.35445 0.0
H111 H 0.03946 0.71526 0.16772 0.0
H112 H 0.12086 0.86964 0.19334 0.0
C113 C 0.07949 0.89976 0.11824 0.0
C114 C 0.04307 0.89081 0.07711 0.0
C115 C 0.05975 0.72727 0.20829 0.0
C116 C 0.07128 0.81417 0.16101 0.0
C117 C 0.06278 0.69532 0.26083 0.0
C118 C 0.0868 0.71125 0.31535 0.0
C119 C 0.08074 0.77552 0.21047 0.0
C120 C 0.11001 0.75795 0.31378 0.0
C121 C 0.09361 0.86156 0.16047 0.0
C122 C 1.02292 0.84219 0.07745 0.0
N123 N 0.10593 0.78885 0.2625 0.0
N124 N 1.03711 0.80589 0.11903 0.0
H125 H 0.21631 0.13214 0.1168 0.0
H126 H 0.31997 0.96028 0.39643 0.0
H127 H 0.16384 0.98623 0.17477 0.0
H128 H 0.3815 0.09925 0.33219 0.0
H129 H 0.25823 0.97474 0.32208 0.0
H130 H 0.27121 0.12778 0.20419 0.0
C131 C 0.21559 0.09988 0.14881 0.0
C132 C 0.18579 0.05918 0.13806 0.0
C133 C 0.28512 1.00222 0.32413 0.0
C134 C 0.24883 0.05353 0.2371 0.0
C135 C 0.32043 0.99398 0.36667 0.0
C136 C 0.35593 0.02867 0.37064 0.0
C137 C 0.28514 0.04547 0.28481 0.0
C138 C 0.35503 0.07126 0.33018 0.0
C139 C 0.24725 0.09713 0.19822 0.0
C140 C 0.18652 1.01817 0.18078 0.0
N141 N 0.32013 0.07851 0.28891 0.0
N142 N 0.2178 1.01617 0.22792 0.0
H143 H 1.01148 0.94591 0.74824 0.0
H144 H 1.01703 0.66117 0.5965 0.0
H145 H 0.05207 0.82075 0.86998 0.0
H146 H 0.10006 0.78168 0.52421 0.0
H147 H 0.9999 0.7176 0.69147 0.0
H148 H 1.00917 0.88314 0.65686 0.0
C149 C 1.01823 0.90499 0.75609 0.0
C150 C 1.03237 0.88822 0.81612 0.0
C151 C 1.02137 0.73135 0.65396 0.0
C152 C 1.02919 0.81704 0.71317 0.0
C153 C 1.03171 0.69913 0.6002 0.0
C154 C 0.05963 0.71669 0.55125 0.0
C155 C 1.03799 0.78173 0.6576 0.0
C156 C 0.07711 0.76676 0.55898 0.0
C157 C 1.01718 0.86947 0.70416 0.0
C158 C 0.04136 0.83493 0.82399 0.0
N159 N 0.06556 0.79764 0.6106 0.0
N160 N 0.03996 0.80102 0.77279 0.0
H161 H 0.23338 0.91472 0.82459 0.0
H162 H 0.43078 0.05447 0.64144 0.0
H163 H 0.27935 0.06851 0.87311 0.0
H164 H 0.36058 0.92249 0.56403 0.0
H165 H 0.39139 0.04554 0.74387 0.0
H166 H 0.29519 0.90346 0.74652 0.0
C167 C 0.25704 0.94561 0.81988 0.0
C168 C 0.25079 0.99297 0.85447 0.0
C169 C 0.38532 1.01786 0.70486 0.0
C170 C 0.3213 0.98042 0.7656 0.0
C171 C 0.40805 0.02273 0.6467 0.0
C172 C 0.39836 0.98958 0.59427 0.0
C173 C 0.35291 0.97949 0.7104 0.0
C174 C 0.36843 0.94924 0.60328 0.0
C175 C 0.29215 0.93927 0.77516 0.0
C176 C 0.28244 0.03172 0.84651 0.0
N177 N 0.3463 0.94571 0.65995 0.0
N178 N 0.31602 0.02481 0.80248 0.0
H179 H 0.06482 0.24313 0.88456 0.0
H180 H 0.09097 0.27976 0.53147 0.0
H181 H 1.01174 0.12577 0.75579 0.0
H182 H 1.01508 0.40515 0.62909 0.0
H183 H 0.07546 0.22408 0.62 0.0
H184 H 0.05711 0.30672 0.79953 0.0
C185 C 0.05058 0.23118 0.83885 0.0
C186 C 0.03923 0.17926 0.82659 0.0
C187 C 0.06195 0.26371 0.62147 0.0
C188 C 1.03166 0.25075 0.72989 0.0
C189 C 0.07051 0.29569 0.57083 0.0
C190 C 0.05342 0.34732 0.5715 0.0
C191 C 1.03764 0.28371 0.67461 0.0
C192 C 1.02921 0.36589 0.6262 0.0
C193 C 0.04609 0.26737 0.79077 0.0
C194 C 1.02087 0.16548 0.7669 0.0
N195 N 1.02244 0.33419 0.67613 0.0
N196 N 1.0189 0.20075 0.71989 0.0
H197 H 0.87646 0.14353 0.7634 0.0
H198 H 0.68496 0.98477 0.59379 0.0
H199 H 0.8765 0.97544 0.75541 0.0
H200 H 0.73464 0.11924 0.50151 0.0
H201 H 0.74657 0.99051 0.67138 0.0
H202 H 0.81805 0.14423 0.67973 0.0
C203 C 0.86486 0.10691 0.74354 0.0
C204 C 0.88116 0.05939 0.76713 0.0
C205 C 0.74375 1.01895 0.63435 0.0
C206 C 0.81385 0.0602 0.67372 0.0
C207 C 0.70848 1.01597 0.59065 0.0
C208 C 0.70494 0.05158 0.54154 0.0
C209 C 0.77516 0.05837 0.62954 0.0
C210 C 0.73652 0.09104 0.53888 0.0
C211 C 0.83148 0.10742 0.69616 0.0
C212 C 0.86481 1.01311 0.73948 0.0
N213 N 0.77039 0.09362 0.58258 0.0
N214 N 0.83157 1.01474 0.69523 0.0
loop_
_geom_bond_atom_site_label_1
_geom_bond_atom_site_label_2
_geom_bond_distance
_geom_bond_site_symmetry_2
_ccdc_geom_bond_type
C0 O27 1.308 1_655 S
C0 O28 1.213 . S
C1 O22 1.331 . S
C1 O25 1.244 1_565 S
C2 O24 1.264 1_545 S
C2 O26 1.273 . S
Mg3 O5 1.936 1_565 S
Mg3 O12 2.081 . S
Mg3 O14 2.023 1_556 S
Mg3 O18 2.031 . S
Mg3 O27 2.291 1_556 S
Mg4 O5 1.963 . S
Mg4 O15 1.942 . S
Mg4 O16 1.955 1_556 S
Mg4 O23 1.986 . S
O5 Mg3 1.936 1_545 S
O5 Mg4 1.963 . S
O5 Mg6 1.912 1_556 S
Mg6 O5 1.912 1_554 S
Mg6 O7 1.918 1_455 S
Mg6 O11 2.019 . S
Mg6 O17 2.108 1_444 S
Mg6 O21 2.006 1_454 S
Mg6 O27 2.119 1_545 S
O7 Mg6 1.918 1_655 S
O7 Mg8 1.936 1_545 S
O7 Mg9 1.963 . S
Mg8 O7 1.936 1_565 S
Mg8 O17 2.291 1_554 S
Mg8 O22 2.081 . S
Mg8 O24 2.023 1_554 S
Mg8 O28 2.031 . S
Mg9 O7 1.963 . S
Mg9 O13 1.986 . S
Mg9 O25 1.942 . S
Mg9 O26 1.955 1_554 S
C10 O21 1.191 1_455 S
C10 O23 1.307 . S
O11 Mg6 2.019 . S
O11 C30 1.191 1_455 S
O12 Mg3 2.081 . S
O12 C20 1.331 . S
O13 Mg9 1.986 . S
O13 C30 1.307 . S
O14 Mg3 2.023 1_554 S
O14 C29 1.264 1_565 S
O15 Mg4 1.942 . S
O15 C20 1.244 1_545 S
O16 Mg4 1.955 1_554 S
O16 C29 1.273 . S
O17 Mg6 2.108 1_666 S
O17 Mg8 2.291 1_556 S
O17 C19 1.312 1_655 S
O18 Mg3 2.031 . S
O18 C19 1.208 . S
C19 O17 1.312 1_455 S
C19 O18 1.208 . S
C20 O12 1.331 . S
C20 O15 1.244 1_565 S
O21 Mg6 2.006 1_656 S
O21 C10 1.191 1_655 S
O22 C1 1.331 . S
O22 Mg8 2.081 . S
O23 Mg4 1.986 . S
O23 C10 1.307 . S
O24 C2 1.264 1_565 S
O24 Mg8 2.023 1_556 S
O25 C1 1.244 1_545 S
O25 Mg9 1.942 . S
O26 C2 1.273 . S
O26 Mg9 1.955 1_556 S
O27 C0 1.308 1_455 S
O27 Mg3 2.291 1_554 S
O27 Mg6 2.119 1_565 S
O28 C0 1.213 . S
O28 Mg8 2.031 . S
C29 O14 1.264 1_545 S
C29 O16 1.273 . S
C30 O11 1.191 1_655 S
C30 O13 1.307 . S
H31 C39 0.940 . S
H32 C42 0.940 . S
H33 C44 0.940 1_655 S
H34 C45 0.940 . S
H35 C48 0.940 . S
H36 C50 0.940 1_655 S
N37 N38 1.190 . S
N37 C41 1.477 . S
N38 N37 1.190 . S
N38 C47 1.477 . S
C39 H31 0.940 . S
C39 C40 1.390 . S
C39 C41 1.322 . S
C40 C39 1.390 . S
C40 C44 1.370 . S
C41 N37 1.477 . S
C41 C39 1.322 . S
C41 C42 1.447 . S
C42 H32 0.940 . S
C42 C41 1.447 . S
C42 C43 1.373 . S
C43 C42 1.373 . S
C43 C44 1.417 . S
C44 H33 0.940 1_455 S
C44 C40 1.370 . S
C44 C43 1.417 . S
C45 H34 0.940 . S
C45 C46 1.390 . S
C45 C47 1.322 . S
C46 C45 1.390 . S
C46 C50 1.370 . S
C47 N38 1.477 . S
C47 C45 1.322 . S
C47 C48 1.447 . S
C48 H35 0.940 . S
C48 C47 1.447 . S
C48 C49 1.373 . S
C49 C48 1.373 . S
C49 C50 1.417 . S
C50 H36 0.940 1_455 S
C50 C46 1.370 . S
C50 C49 1.417 . S
H51 C59 0.940 . S
H52 C62 0.940 . S
H53 C64 0.937 1_565 S
H54 C65 0.940 . S
H55 C68 0.940 . S
H56 C70 0.936 1_565 S
N57 N58 1.190 . S
N57 C61 1.477 . S
N58 N57 1.190 . S
N58 C67 1.477 . S
C59 H51 0.940 . S
C59 C60 1.390 . S
C59 C61 1.322 . S
C60 C59 1.390 . S
C60 C64 1.371 . S
C61 N57 1.477 . S
C61 C59 1.322 . S
C61 C62 1.447 . S
C62 H52 0.940 . S
C62 C61 1.447 . S
C62 C63 1.373 . S
C63 C62 1.373 . S
C63 C64 1.420 . S
C64 H53 0.937 1_545 S
C64 C60 1.371 . S
C64 C63 1.420 . S
C65 H54 0.940 . S
C65 C66 1.390 . S
C65 C67 1.322 . S
C66 C65 1.390 . S
C66 C70 1.370 . S
C67 N58 1.477 . S
C67 C65 1.322 . S
C67 C68 1.447 . S
C68 H55 0.940 . S
C68 C67 1.447 . S
C68 C69 1.373 . S
C69 C68 1.373 . S
C69 C70 1.421 . S
C70 H56 0.936 1_545 S
C70 C66 1.370 . S
C70 C69 1.421 . S
H71 C77 0.930 . S
H72 C81 0.930 . S
H73 C86 0.929 . S
H74 C84 0.929 . S
H75 C79 0.929 . S
H76 C85 0.929 . S
C77 H71 0.930 . S
C77 C78 1.367 1_655 S
C77 C85 1.378 . S
C78 C77 1.367 1_455 S
C78 C86 1.433 . S
C79 H75 0.929 . S
C79 C81 1.378 . S
C79 C83 1.350 . S
C80 C83 1.463 . S
C80 C85 1.350 1_455 S
C80 N88 1.427 . S
C81 H72 0.930 . S
C81 C79 1.378 . S
C81 C82 1.367 . S
C82 C81 1.367 . S
C82 C84 1.433 1_455 S
C83 C79 1.350 . S
C83 C80 1.463 . S
C83 N87 1.427 1_455 S
C84 H74 0.929 . S
C84 C82 1.433 1_655 S
C84 N87 1.384 . S
C85 H76 0.929 . S
C85 C77 1.378 . S
C85 C80 1.350 1_655 S
C86 H73 0.929 . S
C86 C78 1.433 . S
C86 N88 1.384 . S
N87 C83 1.427 1_655 S
N87 C84 1.384 . S
N88 C80 1.427 . S
N88 C86 1.384 . S
H89 C95 0.930 . S
H90 C99 0.930 . S
H91 C104 0.929 . S
H92 C102 0.929 . S
H93 C97 0.929 . S
H94 C103 0.929 . S
C95 H89 0.930 . S
C95 C96 1.367 1_545 S
C95 C103 1.378 . S
C96 C95 1.367 1_565 S
C96 C104 1.433 . S
C97 H93 0.929 . S
C97 C99 1.378 . S
C97 C101 1.350 . S
C98 C101 1.463 . S
C98 C103 1.350 1_565 S
C98 N106 1.427 . S
C99 H90 0.930 . S
C99 C97 1.378 . S
C99 C100 1.367 . S
C100 C99 1.367 . S
C100 C102 1.433 1_565 S
C101 C97 1.350 . S
C101 C98 1.463 . S
C101 N105 1.427 1_565 S
C102 H92 0.929 . S
C102 C100 1.433 1_545 S
C102 N105 1.384 . S
C103 H94 0.929 . S
C103 C95 1.378 . S
C103 C98 1.350 1_545 S
C104 H91 0.929 . S
C104 C96 1.433 . S
C104 N106 1.384 . S
N105 C101 1.427 1_545 S
N105 C102 1.384 . S
N106 C98 1.427 . S
N106 C104 1.384 . S
H107 C113 0.930 . S
H108 C117 0.930 . S
H109 C122 0.929 . S
H110 C120 0.929 . S
H111 C115 0.929 . S
H112 C121 0.929 . S
C113 H107 0.930 . S
C113 C114 1.367 . S
C113 C121 1.378 . S
C114 C113 1.367 . S
C114 C122 1.433 1_455 S
C115 H111 0.929 . S
C115 C117 1.378 . S
C115 C119 1.350 1_655 S
C116 C119 1.463 . S
C116 C121 1.350 . S
C116 N124 1.427 1_455 S
C117 H108 0.930 . S
C117 C115 1.378 . S
C117 C118 1.367 1_655 S
C118 C117 1.367 1_455 S
C118 C120 1.433 . S
C119 C115 1.350 1_455 S
C119 C116 1.463 . S
C119 N123 1.427 . S
C120 H110 0.929 . S
C120 C118 1.433 . S
C120 N123 1.384 . S
C121 H112 0.929 . S
C121 C113 1.378 . S
C121 C116 1.350 . S
C122 H109 0.929 . S
C122 C114 1.433 1_655 S
C122 N124 1.384 . S
N123 C119 1.427 . S
N123 C120 1.384 . S
N124 C116 1.427 1_655 S
N124 C122 1.384 . S
H125 C131 0.930 . S
H126 C135 0.930 . S
H127 C140 0.929 1_565 S
H128 C138 0.929 . S
H129 C133 0.929 . S
H130 C139 0.929 . S
C131 H125 0.930 . S
C131 C132 1.367 . S
C131 C139 1.378 . S
C132 C131 1.367 . S
C132 C140 1.433 . S
C133 H129 0.929 . S
C133 C135 1.378 . S
C133 C137 1.350 1_565 S
C134 C137 1.463 . S
C134 C139 1.350 . S
C134 N142 1.429 . S
C135 H126 0.930 . S
C135 C133 1.378 . S
C135 C136 1.367 1_565 S
C136 C135 1.367 1_545 S
C136 C138 1.433 . S
C137 C133 1.350 1_545 S
C137 C134 1.463 . S
C137 N141 1.427 . S
C138 H128 0.929 . S
C138 C136 1.433 . S
C138 N141 1.384 . S
C139 H130 0.929 . S
C139 C131 1.378 . S
C139 C134 1.350 . S
C140 H127 0.929 1_545 S
C140 C132 1.433 . S
C140 N142 1.384 . S
N141 C137 1.427 . S
N141 C138 1.384 . S
N142 C134 1.429 . S
N142 C140 1.384 . S
H143 C149 0.930 . S
H144 C153 0.930 . S
H145 C158 0.929 . S
H146 C156 0.929 . S
H147 C151 0.929 . S
H148 C157 0.929 . S
C149 H143 0.930 . S
C149 C150 1.367 . S
C149 C157 1.378 . S
C150 C149 1.367 . S
C150 C158 1.433 1_455 S
C151 H147 0.929 . S
C151 C153 1.378 . S
C151 C155 1.338 1_655 S
C152 C155 1.464 . S
C152 C157 1.350 . S
C152 N160 1.427 1_455 S
C153 H144 0.930 . S
C153 C151 1.378 . S
C153 C154 1.362 1_655 S
C154 C153 1.362 1_455 S
C154 C156 1.438 . S
C155 C151 1.338 1_455 S
C155 C152 1.464 . S
C155 N159 1.440 . S
C156 H146 0.929 . S
C156 C154 1.438 . S
C156 N159 1.384 . S
C157 H148 0.929 . S
C157 C149 1.378 . S
C157 C152 1.350 . S
C158 H145 0.929 . S
C158 C150 1.433 1_655 S
C158 N160 1.384 . S
N159 C155 1.440 . S
N159 C156 1.384 . S
N160 C152 1.427 1_655 S
N160 C158 1.384 . S
H161 C167 0.930 . S
H162 C171 0.930 . S
H163 C176 0.929 . S
H164 C174 0.929 . S
H165 C169 0.929 . S
H166 C175 0.929 . S
C167 H161 0.930 . S
C167 C168 1.367 . S
C167 C175 1.378 . S
C168 C167 1.367 . S
C168 C176 1.433 1_565 S
C169 H165 0.929 . S
C169 C171 1.378 . S
C169 C173 1.350 1_545 S
C170 C173 1.463 . S
C170 C175 1.350 . S
C170 N178 1.427 1_565 S
C171 H162 0.930 . S
C171 C169 1.378 . S
C171 C172 1.367 1_545 S
C172 C171 1.367 1_565 S
C172 C174 1.433 . S
C173 C169 1.350 1_565 S
C173 C170 1.463 . S
C173 N177 1.427 . S
C174 H164 0.929 . S
C174 C172 1.433 . S
C174 N177 1.384 . S
C175 H166 0.929 . S
C175 C167 1.378 . S
C175 C170 1.350 . S
C176 H163 0.929 . S
C176 C168 1.433 1_545 S
C176 N178 1.384 . S
N177 C173 1.427 . S
N177 C174 1.384 . S
N178 C170 1.427 1_545 S
N178 C176 1.384 . S
H179 C185 0.930 . S
H180 C189 0.930 . S
H181 C194 0.929 . S
H182 C192 0.929 . S
H183 C187 0.929 . S
H184 C193 0.929 . S
C185 H179 0.930 . S
C185 C186 1.367 . S
C185 C193 1.378 . S
C186 C185 1.367 . S
C186 C194 1.433 1_455 S
C187 H183 0.929 . S
C187 C189 1.378 . S
C187 C191 1.350 1_655 S
C188 C191 1.463 . S
C188 C193 1.350 . S
C188 N196 1.427 1_455 S
C189 H180 0.930 . S
C189 C187 1.378 . S
C189 C190 1.367 1_655 S
C190 C189 1.367 1_455 S
C190 C192 1.433 . S
C191 C187 1.350 1_455 S
C191 C188 1.463 . S
C191 N195 1.427 . S
C192 H182 0.929 . S
C192 C190 1.433 . S
C192 N195 1.384 . S
C193 H184 0.929 . S
C193 C185 1.378 . S
C193 C188 1.350 . S
C194 H181 0.929 . S
C194 C186 1.433 1_655 S
C194 N196 1.384 . S
N195 C191 1.427 . S
N195 C192 1.384 . S
N196 C188 1.427 1_655 S
N196 C194 1.384 . S
H197 C203 0.930 . S
H198 C207 0.930 . S
H199 C212 0.929 . S
H200 C210 0.929 . S
H201 C205 0.929 . S
H202 C211 0.929 . S
C203 H197 0.930 . S
C203 C204 1.367 . S
C203 C211 1.378 . S
C204 C203 1.367 . S
C204 C212 1.433 1_545 S
C205 H201 0.929 . S
C205 C207 1.378 . S
C205 C209 1.350 1_565 S
C206 C209 1.463 . S
C206 C211 1.350 . S
C206 N214 1.427 1_545 S
C207 H198 0.930 . S
C207 C205 1.378 . S
C207 C208 1.367 1_565 S
C208 C207 1.367 1_545 S
C208 C210 1.433 . S
C209 C205 1.350 1_545 S
C209 C206 1.463 . S
C209 N213 1.427 . S
C210 H200 0.929 . S
C210 C208 1.433 . S
C210 N213 1.384 . S
C211 H202 0.929 . S
C211 C203 1.378 . S
C211 C206 1.350 . S
C212 H199 0.929 . S
C212 C204 1.433 1_565 S
C212 N214 1.384 . S
N213 C209 1.427 . S
N213 C210 1.384 . S
N214 C206 1.427 1_565 S
N214 C212 1.384 . S
C78 C30 1.471 1_455 S
C82 C40 1.456 . S
C96 C1 1.664 . S
C100 C60 1.628 1_565 S
C114 C0 1.448 1_455 S
C118 C49 1.488 . S
C132 C29 1.680 . S
C136 C69 1.686 . S
C150 C19 1.469 . S
C154 C46 1.483 . S
C168 C20 1.675 . S
C172 C66 1.641 1_565 S
C190 C43 1.470 . S
C186 C10 1.448 . S
C204 C2 1.685 . S
C208 C63 1.690 . S
