# Generated by pormake.
# Topology anh, (6,3)-cn, num edge types: 1
# Building blocks:
#     Node 0, Type 0, BuildingBlock: CUKXOW_clean_sbu_0, # of connection points: 6
#     Node 1, Type 0, BuildingBlock: CUKXOW_clean_sbu_0, # of connection points: 6
#     Node 2, Type 0, BuildingBlock: CUKXOW_clean_sbu_0, # of connection points: 6
#     Node 3, Type 1, BuildingBlock: ESEHIV_clean_linker_0, # of connection points: 3
#     Node 4, Type 1, BuildingBlock: ESEHIV_clean_linker_0, # of connection points: 3
#     Node 5, Type 1, BuildingBlock: ESEHIV_clean_linker_0, # of connection points: 3
#     Node 6, Type 1, BuildingBlock: ESEHIV_clean_linker_0, # of connection points: 3
#     Node 7, Type 1, BuildingBlock: ESEHIV_clean_linker_0, # of connection points: 3
#     Node 8, Type 1, BuildingBlock: ESEHIV_clean_linker_0, # of connection points: 3
#     Edge 9, Type (0, 1), None
#     Edge 10, Type (0, 1), None
#     Edge 11, Type (0, 1), None
#     Edge 12, Type (0, 1), None
#     Edge 13, Type (0, 1), None
#     Edge 14, Type (0, 1), None
#     Edge 15, Type (0, 1), None
#     Edge 16, Type (0, 1), None
#     Edge 17, Type (0, 1), None
#     Edge 18, Type (0, 1), None
#     Edge 19, Type (0, 1), None
#     Edge 20, Type (0, 1), None
#     Edge 21, Type (0, 1), None
#     Edge 22, Type (0, 1), None
#     Edge 23, Type (0, 1), None
#     Edge 24, Type (0, 1), None
#     Edge 25, Type (0, 1), None
#     Edge 26, Type (0, 1), None
# Relax obj value: 0.173
# Max RMSD: 0.204
# Mean RMSD: 0.153
data_MOF--net-anh--node1-CUKXOW_clean_sbu_0--node2-ESEHIV_clean_linker_0--edge1-none
_symmetry_space_group_name_H-M    P1
_symmetry_Int_Tables_number       1
_symmetry_cell_setting            triclinic
loop_
_symmetry_equiv_pos_as_xyz
'x, y, z'
_cell_length_a     9.7140104
_cell_length_b     9.7192498
_cell_length_c     21.483257
_cell_angle_alpha  93.376594
_cell_angle_beta   90.312887
_cell_angle_gamma 101.66194
loop_
_atom_site_label
_atom_site_type_symbol
_atom_site_fract_x
_atom_site_fract_y
_atom_site_fract_z
_atom_type_partial_charge
Tb0 Tb 0.18868 0.69184 0.14107 0.0
C1 C 0.14036 0.5364 0.26644 0.0
Tb2 Tb 1.0783 0.38155 0.13252 0.0
O3 O 0.9927 0.74362 0.10687 0.0
O4 O 0.98582 0.56053 0.15215 0.0
O5 O 0.18824 0.65625 0.24009 0.0
C6 C 0.89153 0.14679 0.14882 0.0
O7 O 1.08912 0.41745 0.23355 0.0
C8 C 0.35694 0.45009 0.11569 0.0
C9 C 0.12527 0.53576 0.00925 0.0
O10 O 1.01794 0.1781 0.17282 0.0
O11 O 0.87736 0.24182 0.11076 0.0
O12 O 0.27386 0.33688 0.09129 0.0
O13 O 0.28049 0.51312 0.1504 0.0
O14 O 1.05349 0.42469 0.03568 0.0
O15 O 0.20046 0.64554 0.04152 0.0
C16 C 0.38612 0.92362 0.15793 0.0
O17 O 0.26717 0.89874 0.18701 0.0
O18 O 0.38709 0.82215 0.1162 0.0
C19 C 0.90953 0.62838 0.12261 0.0
Tb20 Tb 0.51919 0.97807 0.47712 0.0
C21 C 0.66609 0.03701 0.35225 0.0
Tb22 Tb 0.83351 0.08686 0.48031 0.0
O23 O 0.47695 0.18846 0.45717 0.0
O24 O 0.65574 0.17225 0.50164 0.0
O25 O 0.56521 0.95159 0.37976 0.0
C26 C 1.06639 0.27664 0.46054 0.0
O27 O 0.77241 0.11639 0.3844 0.0
C28 C 0.76212 0.80711 0.48083 0.0
C29 C 0.67563 0.04057 0.6085 0.0
O30 O 1.02617 0.15644 0.42939 0.0
O31 O 0.98257 0.28123 0.50696 0.0
O32 O 0.87967 0.88368 0.50396 0.0
O33 O 0.69823 0.89099 0.4547 0.0
O34 O 0.79385 0.09885 0.58079 0.0
O35 O 0.55882 0.97955 0.57717 0.0
C36 C 0.27971 0.78783 0.47073 0.0
O37 O 0.30139 0.90921 0.44611 0.0
O38 O 0.38929 0.78203 0.50441 0.0
C39 C 0.5997 0.26123 0.47578 0.0
Tb40 Tb 0.51703 0.48022 0.79957 0.0
C41 C 0.63369 0.57109 0.92625 0.0
Tb42 Tb 0.75716 0.64953 0.80369 0.0
O43 O 0.60336 0.32399 0.8454 0.0
O44 O 0.71621 0.42951 0.77682 0.0
O45 O 0.5202 0.57512 0.89375 0.0
C46 C 1.02835 0.76163 0.81839 0.0
O47 O 0.74795 0.56541 0.89501 0.0
C48 C 0.57262 0.81053 0.80868 0.0
C49 C 0.63957 0.55398 0.671 0.0
O50 O 0.92951 0.79305 0.85245 0.0
O51 O 0.96583 0.71177 0.76601 0.0
O52 O 0.66836 0.81331 0.85035 0.0
O53 O 0.56094 0.69637 0.77664 0.0
O54 O 0.73562 0.64755 0.70309 0.0
O55 O 0.54329 0.46423 0.69943 0.0
C56 C 0.24621 0.353 0.80429 0.0
O57 O 0.34757 0.32932 0.83801 0.0
O58 O 0.30815 0.41664 0.75755 0.0
C59 C 0.70728 0.32417 0.80878 0.0
H60 H 0.43357 0.97091 0.28029 0.0
H61 H 0.88108 0.11231 0.27254 0.0
H62 H 0.63148 0.032 0.10285 0.0
C63 C 0.52756 1.00318 0.25338 0.0
C64 C 0.51742 0.99787 0.18825 0.0
C65 C 0.65851 0.04118 0.28398 0.0
C66 C 0.78003 0.07848 0.24887 0.0
C67 C 0.77048 0.07709 0.18347 0.0
C68 C 0.63909 0.03524 0.15333 0.0
H69 H 0.7219 0.76993 0.59941 0.0
H70 H 0.56908 0.32511 0.59398 0.0
H71 H 0.67841 0.52959 0.42263 0.0
C72 C 0.68862 0.67149 0.57211 0.0
C73 C 0.69676 0.66937 0.50712 0.0
C74 C 0.64108 0.5488 0.60285 0.0
C75 C 0.60277 0.41982 0.56905 0.0
C76 C 0.61771 0.40889 0.50434 0.0
C77 C 0.66311 0.5356 0.47252 0.0
H78 H 1.08938 0.75084 0.94211 0.0
H79 H 0.16441 0.32979 0.92568 0.0
H80 H 0.12247 0.54897 0.76109 0.0
C81 C 1.10786 0.66131 0.91316 0.0
C82 C 1.10095 0.66337 0.84787 0.0
C83 C 0.12261 0.53821 0.9411 0.0
C84 C 0.14106 0.42036 0.90374 0.0
C85 C 0.15164 0.42834 0.83872 0.0
C86 C 0.12238 0.54613 0.81154 0.0
H87 H 1.08466 0.30899 0.33713 0.0
H88 H 0.21275 0.75941 0.3494 0.0
H89 H 0.18276 0.53186 0.51616 0.0
C90 C 1.11922 0.407 0.3648 0.0
C91 C 0.12865 0.40554 0.43011 0.0
C92 C 0.14764 0.53456 0.33527 0.0
C93 C 0.18656 0.66077 0.37189 0.0
C94 C 0.20209 0.66022 0.43687 0.0
C95 C 0.17211 0.53247 0.4659 0.0
H96 H 0.77047 0.26802 0.6869 0.0
H97 H 0.55752 0.83527 0.68215 0.0
H98 H 0.64029 0.07424 0.85788 0.0
C99 C 0.72569 0.17562 0.71152 0.0
C100 C 0.70765 0.18704 0.77651 0.0
C101 C 0.66981 0.04911 0.67724 0.0
C102 C 0.59969 0.93315 0.70868 0.0
C103 C 0.59471 0.9397 0.77435 0.0
C104 C 0.6482 0.06728 0.80743 0.0
H105 H 0.40795 0.49665 -0.00189 0.0
H106 H 0.85601 0.62306 0.00361 0.0
H107 H 0.63332 0.52762 0.17429 0.0
C108 C 0.50498 0.52162 0.02526 0.0
C109 C 0.50093 0.50872 0.08994 0.0
C110 C 0.63191 0.56211 -0.00551 0.0
C111 C 0.75895 0.58947 0.02819 0.0
C112 C 0.76447 0.57723 0.09273 0.0
C113 C 0.63299 0.53674 0.12432 0.0
loop_
_geom_bond_atom_site_label_1
_geom_bond_atom_site_label_2
_geom_bond_distance
_geom_bond_site_symmetry_2
_ccdc_geom_bond_type
Tb0 O3 2.453 1_455 S
Tb0 O4 2.596 1_455 S
Tb0 O5 2.374 . S
Tb0 O13 2.343 . S
Tb0 O15 2.353 . S
Tb0 O17 2.427 . S
Tb0 O18 2.513 . S
C1 O5 1.251 . S
C1 O7 1.263 . S
Tb2 O4 2.343 . S
Tb2 O7 2.353 1_655 S
Tb2 O10 2.427 . S
Tb2 O11 2.513 . S
Tb2 O12 2.453 1_655 S
Tb2 O13 2.596 1_655 S
Tb2 O14 2.374 1_655 S
O3 Tb0 2.453 1_655 S
O3 C19 1.245 . S
O4 Tb0 2.596 1_655 S
O4 Tb2 2.343 . S
O4 C19 1.259 . S
O5 Tb0 2.374 . S
O5 C1 1.251 . S
C6 O10 1.275 . S
C6 O11 1.246 . S
O7 C1 1.263 . S
O7 Tb2 2.353 1_455 S
C8 O12 1.245 . S
C8 O13 1.259 . S
C9 O14 1.250 . S
C9 O15 1.263 . S
O10 Tb2 2.427 . S
O10 C6 1.275 . S
O11 Tb2 2.513 . S
O11 C6 1.246 . S
O12 Tb2 2.453 1_455 S
O12 C8 1.245 . S
O13 Tb0 2.343 . S
O13 Tb2 2.596 1_455 S
O13 C8 1.259 . S
O14 Tb2 2.374 1_455 S
O14 C9 1.250 . S
O15 Tb0 2.353 . S
O15 C9 1.263 . S
C16 O17 1.275 . S
C16 O18 1.246 . S
O17 Tb0 2.427 . S
O17 C16 1.275 . S
O18 Tb0 2.513 . S
O18 C16 1.246 . S
C19 O3 1.245 . S
C19 O4 1.259 . S
Tb20 O23 2.453 1_565 S
Tb20 O24 2.596 1_565 S
Tb20 O25 2.374 1_565 S
Tb20 O33 2.343 . S
Tb20 O35 2.353 1_565 S
Tb20 O37 2.427 . S
Tb20 O38 2.513 . S
C21 O25 1.251 . S
C21 O27 1.263 . S
Tb22 O24 2.343 . S
Tb22 O27 2.353 . S
Tb22 O30 2.427 . S
Tb22 O31 2.513 . S
Tb22 O32 2.453 1_545 S
Tb22 O33 2.596 1_545 S
Tb22 O34 2.374 . S
O23 Tb20 2.453 1_545 S
O23 C39 1.245 . S
O24 Tb20 2.596 1_545 S
O24 Tb22 2.343 . S
O24 C39 1.259 . S
O25 Tb20 2.374 1_545 S
O25 C21 1.251 . S
C26 O30 1.275 . S
C26 O31 1.246 . S
O27 C21 1.263 . S
O27 Tb22 2.353 . S
C28 O32 1.245 . S
C28 O33 1.259 . S
C29 O34 1.250 . S
C29 O35 1.263 . S
O30 Tb22 2.427 . S
O30 C26 1.275 . S
O31 Tb22 2.513 . S
O31 C26 1.246 . S
O32 Tb22 2.453 1_565 S
O32 C28 1.245 . S
O33 Tb20 2.343 . S
O33 Tb22 2.596 1_565 S
O33 C28 1.259 . S
O34 Tb22 2.374 . S
O34 C29 1.250 . S
O35 Tb20 2.353 1_545 S
O35 C29 1.263 . S
C36 O37 1.275 . S
C36 O38 1.246 . S
O37 Tb20 2.427 . S
O37 C36 1.275 . S
O38 Tb20 2.513 . S
O38 C36 1.246 . S
C39 O23 1.245 . S
C39 O24 1.259 . S
Tb40 O43 2.453 . S
Tb40 O44 2.596 . S
Tb40 O45 2.374 . S
Tb40 O53 2.343 . S
Tb40 O55 2.353 . S
Tb40 O57 2.427 . S
Tb40 O58 2.513 . S
C41 O45 1.251 . S
C41 O47 1.263 . S
Tb42 O44 2.343 . S
Tb42 O47 2.353 . S
Tb42 O50 2.427 . S
Tb42 O51 2.513 . S
Tb42 O52 2.453 . S
Tb42 O53 2.596 . S
Tb42 O54 2.374 . S
O43 Tb40 2.453 . S
O43 C59 1.245 . S
O44 Tb40 2.596 . S
O44 Tb42 2.343 . S
O44 C59 1.259 . S
O45 Tb40 2.374 . S
O45 C41 1.251 . S
C46 O50 1.275 . S
C46 O51 1.246 . S
O47 C41 1.263 . S
O47 Tb42 2.353 . S
C48 O52 1.245 . S
C48 O53 1.259 . S
C49 O54 1.250 . S
C49 O55 1.263 . S
O50 Tb42 2.427 . S
O50 C46 1.275 . S
O51 Tb42 2.513 . S
O51 C46 1.246 . S
O52 Tb42 2.453 . S
O52 C48 1.245 . S
O53 Tb40 2.343 . S
O53 Tb42 2.596 . S
O53 C48 1.259 . S
O54 Tb42 2.374 . S
O54 C49 1.250 . S
O55 Tb40 2.353 . S
O55 C49 1.263 . S
C56 O57 1.275 . S
C56 O58 1.246 . S
O57 Tb40 2.427 . S
O57 C56 1.275 . S
O58 Tb40 2.513 . S
O58 C56 1.246 . S
C59 O43 1.245 . S
C59 O44 1.259 . S
H60 C63 0.931 . S
H61 C66 0.928 . S
H62 C68 0.930 . S
C63 H60 0.931 . S
C63 C64 1.413 . S
C63 C65 1.360 1_565 S
C64 C63 1.413 . S
C64 C68 1.429 1_565 S
C65 C63 1.360 1_545 S
C65 C66 1.372 . S
C66 H61 0.928 . S
C66 C65 1.372 . S
C66 C67 1.404 . S
C67 C66 1.404 . S
C67 C68 1.391 . S
C68 H62 0.930 . S
C68 C64 1.429 1_545 S
C68 C67 1.391 . S
H69 C72 0.931 . S
H70 C75 0.928 . S
H71 C77 0.930 . S
C72 H69 0.931 . S
C72 C73 1.413 . S
C72 C74 1.360 . S
C73 C72 1.413 . S
C73 C77 1.429 . S
C74 C72 1.360 . S
C74 C75 1.372 . S
C75 H70 0.928 . S
C75 C74 1.372 . S
C75 C76 1.404 . S
C76 C75 1.404 . S
C76 C77 1.391 . S
C77 H71 0.930 . S
C77 C73 1.429 . S
C77 C76 1.391 . S
H78 C81 0.931 . S
H79 C84 0.928 . S
H80 C86 0.930 . S
C81 H78 0.931 . S
C81 C82 1.413 . S
C81 C83 1.360 1_655 S
C82 C81 1.413 . S
C82 C86 1.429 1_655 S
C83 C81 1.360 1_455 S
C83 C84 1.372 . S
C84 H79 0.928 . S
C84 C83 1.372 . S
C84 C85 1.404 . S
C85 C84 1.404 . S
C85 C86 1.391 . S
C86 H80 0.930 . S
C86 C82 1.429 1_455 S
C86 C85 1.391 . S
H87 C90 0.931 . S
H88 C93 0.928 . S
H89 C95 0.930 . S
C90 H87 0.931 . S
C90 C91 1.413 . S
C90 C92 1.358 1_655 S
C91 C90 1.413 . S
C91 C95 1.429 1_655 S
C92 C90 1.358 1_455 S
C92 C93 1.374 . S
C93 H88 0.928 . S
C93 C92 1.374 . S
C93 C94 1.404 . S
C94 C93 1.404 . S
C94 C95 1.391 . S
C95 H89 0.930 . S
C95 C91 1.429 1_455 S
C95 C94 1.391 . S
H96 C99 0.931 . S
H97 C102 0.928 . S
H98 C104 0.930 . S
C99 H96 0.931 . S
C99 C100 1.413 . S
C99 C101 1.360 . S
C100 C99 1.413 . S
C100 C104 1.429 . S
C101 C99 1.360 . S
C101 C102 1.372 1_545 S
C102 H97 0.928 . S
C102 C101 1.372 1_565 S
C102 C103 1.404 . S
C103 C102 1.404 . S
C103 C104 1.391 1_565 S
C104 H98 0.930 . S
C104 C100 1.429 . S
C104 C103 1.391 1_545 S
H105 C108 0.931 . S
H106 C111 0.928 . S
H107 C113 0.930 . S
C108 H105 0.931 . S
C108 C109 1.413 . S
C108 C110 1.360 . S
C109 C108 1.413 . S
C109 C113 1.429 . S
C110 C108 1.360 . S
C110 C111 1.372 . S
C111 H106 0.928 . S
C111 C110 1.372 . S
C111 C112 1.404 . S
C112 C111 1.404 . S
C112 C113 1.391 . S
C113 H107 0.930 . S
C113 C109 1.429 . S
C113 C112 1.391 . S
C8 C109 2.330 . S
C26 C91 1.482 . S
C48 C103 1.551 . S
C19 C112 2.324 . S
C94 C36 1.390 . S
C100 C59 1.655 . S
C28 C73 1.604 . S
C46 C82 1.079 . S
C16 C64 1.395 . S
C76 C39 1.648 . S
C85 C56 0.945 . S
C6 C67 1.921 . S
C83 C9 1.397 1_556 S
C21 C65 1.496 . S
C49 C74 1.434 . S
C101 C29 1.424 . S
C110 C41 1.648 1_554 S
C1 C92 1.489 . S
