# Generated by pormake.
# Topology hwx, (6,3)-cn, num edge types: 1
# Building blocks:
#     Node 0, Type 0, BuildingBlock: OJICUG_clean_sbu_0, # of connection points: 6
#     Node 1, Type 0, BuildingBlock: OJICUG_clean_sbu_0, # of connection points: 6
#     Node 2, Type 0, BuildingBlock: OJICUG_clean_sbu_0, # of connection points: 6
#     Node 3, Type 0, BuildingBlock: OJICUG_clean_sbu_0, # of connection points: 6
#     Node 4, Type 1, BuildingBlock: BETDAH_clean_linker_0, # of connection points: 3
#     Node 5, Type 1, BuildingBlock: BETDAH_clean_linker_0, # of connection points: 3
#     Node 6, Type 1, BuildingBlock: BETDAH_clean_linker_0, # of connection points: 3
#     Node 7, Type 1, BuildingBlock: BETDAH_clean_linker_0, # of connection points: 3
#     Node 8, Type 1, BuildingBlock: BETDAH_clean_linker_0, # of connection points: 3
#     Node 9, Type 1, BuildingBlock: BETDAH_clean_linker_0, # of connection points: 3
#     Node 10, Type 1, BuildingBlock: BETDAH_clean_linker_0, # of connection points: 3
#     Node 11, Type 1, BuildingBlock: BETDAH_clean_linker_0, # of connection points: 3
#     Edge 12, Type (0, 1), None
#     Edge 13, Type (0, 1), None
#     Edge 14, Type (0, 1), None
#     Edge 15, Type (0, 1), None
#     Edge 16, Type (0, 1), None
#     Edge 17, Type (0, 1), None
#     Edge 18, Type (0, 1), None
#     Edge 19, Type (0, 1), None
#     Edge 20, Type (0, 1), None
#     Edge 21, Type (0, 1), None
#     Edge 22, Type (0, 1), None
#     Edge 23, Type (0, 1), None
#     Edge 24, Type (0, 1), None
#     Edge 25, Type (0, 1), None
#     Edge 26, Type (0, 1), None
#     Edge 27, Type (0, 1), None
#     Edge 28, Type (0, 1), None
#     Edge 29, Type (0, 1), None
#     Edge 30, Type (0, 1), None
#     Edge 31, Type (0, 1), None
#     Edge 32, Type (0, 1), None
#     Edge 33, Type (0, 1), None
#     Edge 34, Type (0, 1), None
#     Edge 35, Type (0, 1), None
# Relax obj value: 0.008
# Max RMSD: 0.046
# Mean RMSD: 0.034
data_MOF--net-hwx--node1-OJICUG_clean_sbu_0--node2-BETDAH_clean_linker_0--edge1-none
_symmetry_space_group_name_H-M    P1
_symmetry_Int_Tables_number       1
_symmetry_cell_setting            triclinic
loop_
_symmetry_equiv_pos_as_xyz
'x, y, z'
_cell_length_a     24.227976
_cell_length_b     24.190908
_cell_length_c     9.5478496
_cell_angle_alpha  93.584714
_cell_angle_beta   92.948544
_cell_angle_gamma 89.710045
loop_
_atom_site_label
_atom_site_type_symbol
_atom_site_fract_x
_atom_site_fract_y
_atom_site_fract_z
_atom_type_partial_charge
Sc0 Sc 0.22682 0.26476 0.08577 0.0
Sc1 Sc 0.16883 0.15014 0.88896 0.0
Sc2 Sc 0.24286 0.24859 0.72721 0.0
O3 O 0.21272 0.22165 0.90113 0.0
C4 C 0.20306 0.36081 0.87695 0.0
C5 C 0.1094 0.22039 0.13231 0.0
C6 C 0.12067 0.20502 0.62691 0.0
C7 C 0.24602 0.13726 0.15487 0.0
C8 C 0.34112 0.28069 0.95135 0.0
C9 C 0.25675 0.12336 0.6557 0.0
O10 O 0.21158 0.34399 -0.00043 0.0
O11 O 0.11861 0.17501 0.06331 0.0
O12 O 0.16853 0.22385 0.60718 0.0
O13 O 0.24326 0.1891 0.18808 0.0
O14 O 0.31988 0.27646 0.82717 0.0
O15 O 0.21221 0.11257 0.71318 0.0
O16 O 0.31436 0.27296 0.05936 0.0
O17 O 0.22736 0.11556 0.03668 0.0
O18 O 0.28117 0.16951 0.68106 0.0
O19 O 0.14062 0.26219 0.12945 0.0
O20 O 0.20787 0.3302 0.76482 0.0
O21 O 0.10868 0.18319 0.73964 0.0
Sc22 Sc 0.25098 0.73025 0.28416 0.0
Sc23 Sc 0.35025 0.65219 0.45526 0.0
Sc24 Sc 0.2838 0.7583 0.63897 0.0
O25 O 0.29423 0.7142 0.4594 0.0
C26 C 0.27218 0.85176 0.41954 0.0
C27 C 0.37904 0.71703 0.20107 0.0
C28 C 0.40431 0.73305 0.70023 0.0
C29 C 0.26368 0.60653 0.21229 0.0
C30 C 0.1608 0.74886 0.51452 0.0
C31 C 0.28494 0.62931 0.71248 0.0
O32 O 0.26643 0.81762 0.31318 0.0
O33 O 0.39807 0.69851 0.3167 0.0
O34 O 0.37134 0.77139 0.66835 0.0
O35 O 0.2293 0.64405 0.24507 0.0
O36 O 0.19594 0.75113 0.61794 0.0
O37 O 0.30017 0.60875 0.59384 0.0
O38 O 0.17342 0.74244 0.38666 0.0
O39 O 0.31264 0.60837 0.26719 0.0
O40 O 0.28567 0.68143 0.74679 0.0
O41 O 0.32711 0.72231 0.1704 0.0
O42 O 0.27743 0.83743 0.54535 0.0
O43 O 0.39759 0.68446 0.64352 0.0
Sc44 Sc 0.76044 0.75863 0.88436 0.0
Sc45 Sc 0.86149 0.83819 0.08504 0.0
Sc46 Sc 0.75526 0.77436 0.24562 0.0
O47 O 0.79238 0.79051 0.07069 0.0
C48 C 0.65085 0.789 0.03657 0.0
C49 C 0.79663 0.88213 0.82315 0.0
C50 C 0.78936 0.89591 0.32537 0.0
C51 C 0.88623 0.75091 0.82944 0.0
C52 C 0.75316 0.65786 0.07888 0.0
C53 C 0.88457 0.76532 0.33762 0.0
O54 O 0.67765 0.78733 0.92555 0.0
O55 O 0.82385 0.89424 0.93894 0.0
O56 O 0.7502 0.86115 0.30634 0.0
O57 O 0.83928 0.72761 0.82407 0.0
O58 O 0.7598 0.6871 0.19343 0.0
O59 O 0.90418 0.78456 0.22948 0.0
O60 O 0.74604 0.67798 0.95964 0.0
O61 O 0.89807 0.79323 0.91095 0.0
O62 O 0.83309 0.76625 0.35793 0.0
O63 O 0.77528 0.83483 0.79004 0.0
O64 O 0.67267 0.78028 0.15638 0.0
O65 O 0.83469 0.88954 0.26454 0.0
Sc66 Sc 0.75176 0.27565 0.67797 0.0
Sc67 Sc 0.65109 0.34855 0.49711 0.0
Sc68 Sc 0.72781 0.24626 0.31956 0.0
O69 O 0.71022 0.28929 0.49781 0.0
C70 C 0.84798 0.26629 0.46302 0.0
C71 C 0.73235 0.3991 0.74305 0.0
C72 C 0.71707 0.37419 0.24275 0.0
C73 C 0.62249 0.28475 0.75132 0.0
C74 C 0.73338 0.1539 0.54297 0.0
C75 C 0.60492 0.2651 0.24676 0.0
O76 O 0.83174 0.27018 0.5876 0.0
O77 O 0.6847 0.39585 0.68198 0.0
O78 O 0.72355 0.32239 0.21154 0.0
O79 O 0.6742 0.27957 0.7831 0.0
O80 O 0.73175 0.16746 0.41619 0.0
O81 O 0.60603 0.3119 0.31449 0.0
O82 O 0.73894 0.18827 0.64853 0.0
O83 O 0.60413 0.30291 0.63524 0.0
O84 O 0.64226 0.2291 0.26586 0.0
O85 O 0.76854 0.36255 0.71741 0.0
O86 O 0.81542 0.25973 0.35482 0.0
O87 O 0.69853 0.39363 0.35855 0.0
H88 H 0.29999 0.64628 -0.00988 0.0
H89 H 0.20352 0.51245 0.1151 0.0
H90 H 0.2245 0.53302 0.67525 0.0
C91 C 0.27741 0.60891 0.96163 0.0
C92 C 0.26703 0.59253 0.8197 0.0
C93 C 0.25597 0.58032 0.06886 0.0
C94 C 0.22265 0.53366 0.03354 0.0
C95 C 0.2121 0.51612 0.89076 0.0
C96 C 0.2346 0.54542 0.78457 0.0
N97 N 0.17415 0.47294 0.85195 0.0
C98 C 0.18838 0.41787 0.86526 0.0
H99 H 0.85174 0.72214 0.56888 0.0
H100 H 0.99916 0.77385 0.3793 0.0
H101 H 0.99803 0.76056 0.82461 0.0
C102 C 0.89545 0.73192 0.57638 0.0
C103 C 0.92153 0.73952 0.7099 0.0
C104 C 0.92126 0.74863 0.45732 0.0
C105 C 0.97827 0.76039 0.46881 0.0
C106 C 0.00661 0.7611 0.6017 0.0
C107 C 0.97755 0.75299 0.72154 0.0
N108 N 0.06095 0.78146 0.62331 0.0
C109 C 0.10553 0.76357 0.54742 0.0
H110 H 0.70609 0.35158 -0.03249 0.0
H111 H 0.76944 0.50422 0.83523 0.0
H112 H 0.75589 0.48056 0.27576 0.0
C113 C 0.72158 0.39303 -0.0068 0.0
C114 C 0.72853 0.41219 0.13383 0.0
C115 C 0.73578 0.42567 0.88521 0.0
C116 C 0.75642 0.47922 0.91782 0.0
C117 C 0.76283 0.49908 0.05959 0.0
C118 C 0.74881 0.46563 0.16691 0.0
N119 N 0.79075 0.54909 0.09712 0.0
C120 C 0.76638 0.60035 0.08199 0.0
H121 H 0.13996 0.17492 0.36454 0.0
H122 H 0.01463 0.2475 0.62154 0.0
H123 H 0.00922 0.26986 0.17786 0.0
C124 C 0.10037 0.19584 0.37351 0.0
C125 C 0.07568 0.21866 0.25509 0.0
C126 C 0.08019 0.20778 0.50697 0.0
C127 C 0.02976 0.23624 0.51875 0.0
C128 C 1.00275 0.25663 0.39807 0.0
C129 C 0.02705 0.24956 0.26765 0.0
N130 N 0.95753 0.2934 0.41078 0.0
C131 C 0.90524 0.27628 0.44204 0.0
H132 H 0.82744 0.86154 0.5647 0.0
H133 H 0.74513 0.99973 0.38379 0.0
H134 H 0.75152 0.9858 0.83166 0.0
C135 C 0.80766 0.90181 0.57804 0.0
C136 C 0.79332 0.92139 0.71221 0.0
C137 C 0.78994 0.92917 0.45914 0.0
C138 C 0.76141 0.97959 0.47542 0.0
C139 C 0.74954 1.00112 0.61126 0.0
C140 C 0.76486 0.97149 0.72892 0.0
N141 N 0.71488 0.0477 0.63072 0.0
C142 C 0.72377 0.09761 0.57212 0.0
H143 H 0.64644 0.24218 0.0004 0.0
H144 H 0.49667 0.29144 0.19469 0.0
H145 H 0.51303 0.3142 0.75763 0.0
C146 C 0.6039 0.25616 -0.00981 0.0
C147 C 0.58354 0.27627 0.86273 0.0
C148 C 0.57347 0.26259 0.11102 0.0
C149 C 0.51951 0.28358 0.10077 0.0
C150 C 0.4971 0.2999 -0.02837 0.0
C151 C 0.5293 0.29703 0.85352 0.0
N152 N 0.44643 0.32878 0.96613 0.0
C153 C 0.39624 0.30184 -0.03129 0.0
H154 H 0.27686 0.16844 0.42146 0.0
H155 H 0.25322 0.0098 0.58895 0.0
H156 H 0.24632 0.02445 0.14339 0.0
C157 C 0.27274 0.12386 0.40502 0.0
C158 C 0.26216 0.10058 0.26835 0.0
C159 C 0.26794 0.09221 0.52188 0.0
C160 C 0.25973 0.03452 0.50048 0.0
C161 C 0.25503 0.01 0.36237 0.0
C162 C 0.25535 0.04329 0.24805 0.0
N163 N 0.23849 0.95443 0.33296 0.0
C164 C 0.26118 0.90858 0.3944 0.0
H165 H 0.36545 0.69452 0.92434 0.0
H166 H 0.49888 0.78987 0.79228 0.0
H167 H 0.47661 0.77597 0.23377 0.0
C168 C 0.40209 0.71826 0.95117 0.0
C169 C 0.41735 0.73148 0.09267 0.0
C170 C 0.43087 0.73873 0.84243 0.0
C171 C 0.47748 0.77182 0.87524 0.0
C172 C 0.4949 0.78381 0.01656 0.0
C173 C 0.46465 0.76401 0.1252 0.0
N174 N 0.53937 0.82056 0.05005 0.0
C175 C 0.59356 0.80422 0.0313 0.0
loop_
_geom_bond_atom_site_label_1
_geom_bond_atom_site_label_2
_geom_bond_distance
_geom_bond_site_symmetry_2
_ccdc_geom_bond_type
Sc0 O3 2.025 . S
Sc0 O10 2.105 . S
Sc0 O13 2.105 . S
Sc0 O16 2.105 . S
Sc0 O19 2.105 . S
Sc1 O3 2.025 1_556 S
Sc1 O11 2.105 1_556 S
Sc1 O15 2.105 . S
Sc1 O17 2.105 1_556 S
Sc1 O21 2.105 . S
Sc2 O3 2.025 1_556 S
Sc2 O12 2.105 . S
Sc2 O14 2.105 . S
Sc2 O18 2.105 . S
Sc2 O20 2.105 . S
O3 Sc0 2.025 . S
O3 Sc1 2.025 1_554 S
O3 Sc2 2.025 1_554 S
C4 O10 1.268 . S
C4 O20 1.268 1_554 S
C5 O11 1.268 . S
C5 O19 1.268 . S
C6 O12 1.268 . S
C6 O21 1.268 . S
C7 O13 1.268 . S
C7 O17 1.268 . S
C8 O14 1.268 1_554 S
C8 O16 1.268 . S
C9 O15 1.268 . S
C9 O18 1.268 . S
O10 Sc0 2.105 . S
O10 C4 1.268 . S
O11 Sc1 2.105 1_554 S
O11 C5 1.268 . S
O12 Sc2 2.105 . S
O12 C6 1.268 . S
O13 Sc0 2.105 . S
O13 C7 1.268 . S
O14 Sc2 2.105 . S
O14 C8 1.268 1_556 S
O15 Sc1 2.105 . S
O15 C9 1.268 . S
O16 Sc0 2.105 . S
O16 C8 1.268 . S
O17 Sc1 2.105 1_554 S
O17 C7 1.268 . S
O18 Sc2 2.105 . S
O18 C9 1.268 . S
O19 Sc0 2.105 . S
O19 C5 1.268 . S
O20 Sc2 2.105 . S
O20 C4 1.268 1_556 S
O21 Sc1 2.105 . S
O21 C6 1.268 . S
Sc22 O25 2.025 . S
Sc22 O32 2.105 . S
Sc22 O35 2.105 . S
Sc22 O38 2.105 . S
Sc22 O41 2.105 . S
Sc23 O25 2.025 . S
Sc23 O33 2.105 . S
Sc23 O37 2.105 . S
Sc23 O39 2.105 . S
Sc23 O43 2.105 . S
Sc24 O25 2.025 . S
Sc24 O34 2.105 . S
Sc24 O36 2.105 . S
Sc24 O40 2.105 . S
Sc24 O42 2.105 . S
O25 Sc22 2.025 . S
O25 Sc23 2.025 . S
O25 Sc24 2.025 . S
C26 O32 1.268 . S
C26 O42 1.268 . S
C27 O33 1.268 . S
C27 O41 1.268 . S
C28 O34 1.268 . S
C28 O43 1.268 . S
C29 O35 1.268 . S
C29 O39 1.268 . S
C30 O36 1.268 . S
C30 O38 1.268 . S
C31 O37 1.268 . S
C31 O40 1.268 . S
O32 Sc22 2.105 . S
O32 C26 1.268 . S
O33 Sc23 2.105 . S
O33 C27 1.268 . S
O34 Sc24 2.105 . S
O34 C28 1.268 . S
O35 Sc22 2.105 . S
O35 C29 1.268 . S
O36 Sc24 2.105 . S
O36 C30 1.268 . S
O37 Sc23 2.105 . S
O37 C31 1.268 . S
O38 Sc22 2.105 . S
O38 C30 1.268 . S
O39 Sc23 2.105 . S
O39 C29 1.268 . S
O40 Sc24 2.105 . S
O40 C31 1.268 . S
O41 Sc22 2.105 . S
O41 C27 1.268 . S
O42 Sc24 2.105 . S
O42 C26 1.268 . S
O43 Sc23 2.105 . S
O43 C28 1.268 . S
Sc44 O47 2.025 1_556 S
Sc44 O54 2.105 . S
Sc44 O57 2.105 . S
Sc44 O60 2.105 . S
Sc44 O63 2.105 . S
Sc45 O47 2.025 . S
Sc45 O55 2.105 1_554 S
Sc45 O59 2.105 . S
Sc45 O61 2.105 1_554 S
Sc45 O65 2.105 . S
Sc46 O47 2.025 . S
Sc46 O56 2.105 . S
Sc46 O58 2.105 . S
Sc46 O62 2.105 . S
Sc46 O64 2.105 . S
O47 Sc44 2.025 1_554 S
O47 Sc45 2.025 . S
O47 Sc46 2.025 . S
C48 O54 1.268 1_554 S
C48 O64 1.268 . S
C49 O55 1.268 . S
C49 O63 1.268 . S
C50 O56 1.268 . S
C50 O65 1.268 . S
C51 O57 1.268 . S
C51 O61 1.268 . S
C52 O58 1.268 . S
C52 O60 1.268 1_554 S
C53 O59 1.268 . S
C53 O62 1.268 . S
O54 Sc44 2.105 . S
O54 C48 1.268 1_556 S
O55 Sc45 2.105 1_556 S
O55 C49 1.268 . S
O56 Sc46 2.105 . S
O56 C50 1.268 . S
O57 Sc44 2.105 . S
O57 C51 1.268 . S
O58 Sc46 2.105 . S
O58 C52 1.268 . S
O59 Sc45 2.105 . S
O59 C53 1.268 . S
O60 Sc44 2.105 . S
O60 C52 1.268 1_556 S
O61 Sc45 2.105 1_556 S
O61 C51 1.268 . S
O62 Sc46 2.105 . S
O62 C53 1.268 . S
O63 Sc44 2.105 . S
O63 C49 1.268 . S
O64 Sc46 2.105 . S
O64 C48 1.268 . S
O65 Sc45 2.105 . S
O65 C50 1.268 . S
Sc66 O69 2.025 . S
Sc66 O76 2.105 . S
Sc66 O79 2.105 . S
Sc66 O82 2.105 . S
Sc66 O85 2.105 . S
Sc67 O69 2.025 . S
Sc67 O77 2.105 . S
Sc67 O81 2.105 . S
Sc67 O83 2.105 . S
Sc67 O87 2.105 . S
Sc68 O69 2.025 . S
Sc68 O78 2.105 . S
Sc68 O80 2.105 . S
Sc68 O84 2.105 . S
Sc68 O86 2.105 . S
O69 Sc66 2.025 . S
O69 Sc67 2.025 . S
O69 Sc68 2.025 . S
C70 O76 1.268 . S
C70 O86 1.268 . S
C71 O77 1.268 . S
C71 O85 1.268 . S
C72 O78 1.268 . S
C72 O87 1.268 . S
C73 O79 1.268 . S
C73 O83 1.268 . S
C74 O80 1.268 . S
C74 O82 1.268 . S
C75 O81 1.268 . S
C75 O84 1.268 . S
O76 Sc66 2.105 . S
O76 C70 1.268 . S
O77 Sc67 2.105 . S
O77 C71 1.268 . S
O78 Sc68 2.105 . S
O78 C72 1.268 . S
O79 Sc66 2.105 . S
O79 C73 1.268 . S
O80 Sc68 2.105 . S
O80 C74 1.268 . S
O81 Sc67 2.105 . S
O81 C75 1.268 . S
O82 Sc66 2.105 . S
O82 C74 1.268 . S
O83 Sc67 2.105 . S
O83 C73 1.268 . S
O84 Sc68 2.105 . S
O84 C75 1.268 . S
O85 Sc66 2.105 . S
O85 C71 1.268 . S
O86 Sc68 2.105 . S
O86 C70 1.268 . S
O87 Sc67 2.105 . S
O87 C72 1.268 . S
H88 C91 0.929 . S
H89 C94 0.929 . S
H90 C96 0.930 . S
C91 H88 0.929 . S
C91 C92 1.398 1_554 S
C91 C93 1.396 . S
C92 C91 1.398 1_556 S
C92 C96 1.407 . S
C93 C91 1.396 . S
C93 C94 1.394 . S
C94 H89 0.929 . S
C94 C93 1.394 . S
C94 C95 1.382 1_554 S
C95 C94 1.382 1_556 S
C95 C96 1.392 . S
C95 N97 1.420 . S
C96 H90 0.930 . S
C96 C92 1.407 . S
C96 C95 1.392 . S
N97 C95 1.420 . S
N97 C98 1.244 1_556 S
C98 N97 1.244 1_554 S
H99 C102 0.929 . S
H100 C105 0.922 1_455 S
H101 C107 0.930 . S
C102 H99 0.929 . S
C102 C103 1.398 . S
C102 C104 1.396 . S
C103 C102 1.398 . S
C103 C107 1.407 . S
C104 C102 1.396 . S
C104 C105 1.394 . S
C105 H100 0.922 1_655 S
C105 C104 1.394 . S
C105 C106 1.382 1_655 S
C106 C105 1.382 1_455 S
C106 C107 1.392 1_455 S
C106 N108 1.420 . S
C107 H101 0.930 . S
C107 C103 1.407 . S
C107 C106 1.392 1_655 S
N108 C106 1.420 . S
N108 C109 1.244 . S
C109 N108 1.244 . S
H110 C113 0.929 . S
H111 C116 0.929 . S
H112 C118 0.930 . S
C113 H110 0.929 . S
C113 C114 1.398 . S
C113 C115 1.396 1_554 S
C114 C113 1.398 . S
C114 C118 1.407 . S
C115 C113 1.396 1_556 S
C115 C116 1.394 . S
C116 H111 0.929 . S
C116 C115 1.394 . S
C116 C117 1.382 1_556 S
C117 C116 1.382 1_554 S
C117 C118 1.392 . S
C117 N119 1.420 . S
C118 H112 0.930 . S
C118 C114 1.407 . S
C118 C117 1.392 . S
N119 C117 1.420 . S
N119 C120 1.244 1_554 S
C120 N119 1.244 1_556 S
H121 C124 0.929 . S
H122 C127 0.929 . S
H123 C129 0.930 . S
C124 H121 0.929 . S
C124 C125 1.398 . S
C124 C126 1.396 . S
C125 C124 1.398 . S
C125 C129 1.407 . S
C126 C124 1.396 . S
C126 C127 1.394 . S
C127 H122 0.929 . S
C127 C126 1.394 . S
C127 C128 1.379 1_455 S
C128 C127 1.379 1_655 S
C128 C129 1.388 1_655 S
C128 N130 1.427 . S
C129 H123 0.930 . S
C129 C125 1.407 . S
C129 C128 1.388 1_455 S
N130 C128 1.427 . S
N130 C131 1.244 . S
C131 N130 1.244 . S
H132 C135 0.929 . S
H133 C138 0.929 . S
H134 C140 0.930 . S
C135 H132 0.929 . S
C135 C136 1.398 . S
C135 C137 1.396 . S
C136 C135 1.398 . S
C136 C140 1.407 . S
C137 C135 1.396 . S
C137 C138 1.394 . S
C138 H133 0.929 . S
C138 C137 1.394 . S
C138 C139 1.377 1_565 S
C139 C138 1.377 1_545 S
C139 C140 1.385 1_545 S
C139 N141 1.431 . S
C140 H134 0.930 . S
C140 C136 1.407 . S
C140 C139 1.385 1_565 S
N141 C139 1.431 . S
N141 C142 1.244 . S
C142 N141 1.244 . S
H143 C146 0.929 . S
H144 C149 0.929 . S
H145 C151 0.930 . S
C146 H143 0.929 . S
C146 C147 1.398 1_554 S
C146 C148 1.396 . S
C147 C146 1.398 1_556 S
C147 C151 1.407 . S
C148 C146 1.396 . S
C148 C149 1.394 . S
C149 H144 0.929 . S
C149 C148 1.394 . S
C149 C150 1.382 1_554 S
C150 C149 1.382 1_556 S
C150 C151 1.392 . S
C150 N152 1.420 . S
C151 H145 0.930 . S
C151 C147 1.407 . S
C151 C150 1.392 . S
N152 C150 1.420 . S
N152 C153 1.244 1_556 S
C153 N152 1.244 1_554 S
H154 C157 0.929 . S
H155 C160 0.925 1_565 S
H156 C162 0.930 . S
C157 H154 0.929 . S
C157 C158 1.398 . S
C157 C159 1.396 . S
C158 C157 1.398 . S
C158 C162 1.407 . S
C159 C157 1.396 . S
C159 C160 1.394 . S
C160 H155 0.925 1_545 S
C160 C159 1.394 . S
C160 C161 1.382 1_545 S
C161 C160 1.382 1_565 S
C161 C162 1.392 1_565 S
C161 N163 1.420 . S
C162 H156 0.930 . S
C162 C158 1.407 . S
C162 C161 1.392 1_545 S
N163 C161 1.420 . S
N163 C164 1.244 . S
C164 N163 1.244 . S
H165 C168 0.929 . S
H166 C171 0.929 . S
H167 C173 0.930 . S
C168 H165 0.929 . S
C168 C169 1.398 . S
C168 C170 1.396 1_554 S
C169 C168 1.398 . S
C169 C173 1.407 . S
C170 C168 1.396 1_556 S
C170 C171 1.394 . S
C171 H166 0.929 . S
C171 C170 1.394 . S
C171 C172 1.382 1_556 S
C172 C171 1.382 1_554 S
C172 C173 1.392 . S
C172 N174 1.420 . S
C173 H167 0.930 . S
C173 C169 1.407 . S
C173 C172 1.392 . S
N174 C172 1.420 . S
N174 C175 1.244 1_554 S
C175 N174 1.244 1_556 S
C5 C125 1.440 . S
C31 C92 1.502 . S
C104 C53 1.490 . S
C71 C115 1.428 . S
C148 C75 1.428 . S
C159 C9 1.490 . S
C169 C27 1.502 . S
C136 C49 1.440 . S
C51 C103 1.413 . S
C72 C114 1.469 . S
C6 C126 1.510 . S
C93 C29 1.445 . S
C28 C170 1.445 . S
C137 C50 1.510 . S
C147 C73 1.469 . S
C7 C158 1.413 . S
C98 C4 1.556 . S
C109 C30 1.572 . S
C52 C120 1.579 1_554 S
C70 C131 1.549 . S
C142 C74 1.549 . S
C8 C153 1.579 . S
C26 C164 1.572 . S
C48 C175 1.556 1_554 S
