# Generated by pormake.
# Topology rtl, (3,6)-cn, num edge types: 1
# Building blocks:
#     Node 0, Type 0, BuildingBlock: BETDAH_clean_linker_0, # of connection points: 3
#     Node 1, Type 0, BuildingBlock: BETDAH_clean_linker_0, # of connection points: 3
#     Node 2, Type 0, BuildingBlock: BETDAH_clean_linker_0, # of connection points: 3
#     Node 3, Type 0, BuildingBlock: BETDAH_clean_linker_0, # of connection points: 3
#     Node 4, Type 1, BuildingBlock: FUNLAD_clean_sbu_0, # of connection points: 6
#     Node 5, Type 1, BuildingBlock: FUNLAD_clean_sbu_0, # of connection points: 6
#     Edge 6, Type (0, 1), BuildingBlock: OJICUG_clean_linker_0, # of connection points: 2
#     Edge 7, Type (0, 1), BuildingBlock: OJICUG_clean_linker_0, # of connection points: 2
#     Edge 8, Type (0, 1), BuildingBlock: OJICUG_clean_linker_0, # of connection points: 2
#     Edge 9, Type (0, 1), BuildingBlock: OJICUG_clean_linker_0, # of connection points: 2
#     Edge 10, Type (0, 1), BuildingBlock: OJICUG_clean_linker_0, # of connection points: 2
#     Edge 11, Type (0, 1), BuildingBlock: OJICUG_clean_linker_0, # of connection points: 2
#     Edge 12, Type (0, 1), BuildingBlock: OJICUG_clean_linker_0, # of connection points: 2
#     Edge 13, Type (0, 1), BuildingBlock: OJICUG_clean_linker_0, # of connection points: 2
#     Edge 14, Type (0, 1), BuildingBlock: OJICUG_clean_linker_0, # of connection points: 2
#     Edge 15, Type (0, 1), BuildingBlock: OJICUG_clean_linker_0, # of connection points: 2
#     Edge 16, Type (0, 1), BuildingBlock: OJICUG_clean_linker_0, # of connection points: 2
#     Edge 17, Type (0, 1), BuildingBlock: OJICUG_clean_linker_0, # of connection points: 2
# Relax obj value: 0.003
# Max RMSD: 0.037
# Mean RMSD: 0.024
data_MOF--net-rtl--node1-FUNLAD_clean_sbu_0--node2-BETDAH_clean_linker_0--edge1-OJICUG_clean_linker_0
_symmetry_space_group_name_H-M    P1
_symmetry_Int_Tables_number       1
_symmetry_cell_setting            triclinic
loop_
_symmetry_equiv_pos_as_xyz
'x, y, z'
_cell_length_a     30.067683
_cell_length_b     30.148597
_cell_length_c     15.345597
_cell_angle_alpha  91.188054
_cell_angle_beta   93.434952
_cell_angle_gamma 89.803673
loop_
_atom_site_label
_atom_site_type_symbol
_atom_site_fract_x
_atom_site_fract_y
_atom_site_fract_z
_atom_type_partial_charge
H0 H 0.11387 0.92156 0.0445 0.0
H1 H 0.14858 0.8066 0.19508 0.0
H2 H 0.16396 0.80424 0.91831 0.0
C3 C 0.12789 0.88841 0.04855 0.0
C4 C 0.13897 0.86576 0.97195 0.0
C5 C 0.131 0.86733 0.1292 0.0
C6 C 0.14653 0.82347 0.13325 0.0
C7 C 0.16002 0.8012 0.05829 0.0
C8 C 0.15584 0.82221 0.97717 0.0
N9 N 0.1743 0.75654 0.06568 0.0
C10 C 0.21069 0.73903 0.02498 0.0
H11 H 0.6121 0.59911 0.47583 0.0
H12 H 0.64492 0.71853 0.34553 0.0
H13 H 0.64964 0.71686 0.62562 0.0
C14 C 0.62432 0.63295 0.47881 0.0
C15 C 0.63113 0.65479 0.56014 0.0
C16 C 0.62892 0.65569 0.40106 0.0
C17 C 0.64211 0.70031 0.40511 0.0
C18 C 0.65104 0.72186 0.48591 0.0
C19 C 0.64503 0.69931 0.56339 0.0
N20 N 0.66079 0.76768 0.48838 0.0
C21 C 0.7035 0.7836 0.5085 0.0
H22 H 0.9199 0.09602 0.04835 0.0
H23 H 0.88556 0.21653 0.18406 0.0
H24 H 0.89105 0.215 0.90535 0.0
C25 C 0.90843 0.13016 0.04687 0.0
C26 C 0.90501 0.15222 0.96709 0.0
C27 C 0.90183 0.15306 0.12566 0.0
C28 C 0.88964 0.19808 0.12367 0.0
C29 C 0.88461 0.22 0.04405 0.0
C30 C 0.89281 0.19723 0.96615 0.0
N31 N 0.87775 0.26636 0.04355 0.0
C32 C 0.83543 0.28491 0.03632 0.0
H33 H 0.44736 0.40118 0.46071 0.0
H34 H 0.33659 0.33796 0.57306 0.0
H35 H 0.33793 0.35126 0.29487 0.0
C36 C 0.41622 0.38306 0.45277 0.0
C37 C 0.39581 0.37682 0.36899 0.0
C38 C 0.39489 0.36979 0.52686 0.0
C39 C 0.35361 0.34774 0.51626 0.0
C40 C 0.3335 0.34041 0.43199 0.0
C41 C 0.35427 0.35584 0.35934 0.0
N42 N 0.29089 0.32076 0.41777 0.0
C43 C 0.27483 0.2868 0.46685 0.0
C44 C 0.05799 0.96117 0.41995 0.0
N45 N 0.09647 0.07934 0.5568 0.0
C46 C 0.13991 0.06677 0.55409 0.0
C47 C 0.17344 0.09877 0.55177 0.0
C48 C 0.16217 0.1441 0.55231 0.0
C49 C 0.11713 0.15592 0.55704 0.0
C50 C 0.08481 0.12297 0.55924 0.0
Zn51 Zn 0.04614 0.0334 0.55318 0.0
C52 C 0.97244 0.05844 0.42496 0.0
N53 N 0.93857 0.94015 0.54362 0.0
C54 C 0.94502 0.89545 0.53914 0.0
C55 C 0.8969 0.95764 0.54665 0.0
C56 C 0.85978 0.93007 0.54601 0.0
C57 C 0.86527 0.88384 0.54179 0.0
C58 C 0.9086 0.86652 0.53774 0.0
Zn59 Zn 0.99069 0.98406 0.54707 0.0
O60 O 0.07598 0.99645 0.45238 0.0
C61 C 0.06493 0.95886 0.67444 0.0
O62 O 0.02146 0.94786 0.4479 0.0
H63 H 0.89234 0.99321 0.54949 0.0
H64 H 0.14848 0.03192 0.55237 0.0
H65 H 0.97843 0.88221 0.53686 0.0
O66 O 0.08132 0.99495 0.64927 0.0
O67 O 0.0269 0.94622 0.64253 0.0
H68 H 0.05013 0.13238 0.56099 0.0
O69 O 0.96082 0.02118 0.64765 0.0
O70 O 0.01525 0.06951 0.65237 0.0
O71 O 0.95572 0.02255 0.44999 0.0
O72 O 1.01021 0.07087 0.45787 0.0
C73 C 0.97857 0.05652 0.67975 0.0
H74 H 0.20776 0.0881 0.54881 0.0
H75 H 0.10663 0.19029 0.55585 0.0
H76 H 0.82698 0.94492 0.54746 0.0
H77 H 0.91429 0.83105 0.53467 0.0
C78 C 0.47709 0.45646 0.8317 0.0
N79 N 0.60099 0.44343 0.97323 0.0
C80 C 0.59546 0.39867 0.97525 0.0
C81 C 0.63248 0.37056 0.98551 0.0
C82 C 0.67552 0.38877 -0.00568 0.0
C83 C 0.68013 0.43502 -0.00948 0.0
C84 C 0.64236 0.46178 0.97987 0.0
Zn85 Zn 0.54716 0.48541 0.96515 0.0
C86 C 0.55925 0.55798 0.83889 0.0
N87 N 0.43635 0.57556 0.95241 0.0
C88 C 0.39438 0.55873 0.95089 0.0
C89 C 0.44337 0.62015 0.95336 0.0
C90 C 0.40744 0.64969 0.95485 0.0
C91 C 0.36376 0.63326 0.95555 0.0
C92 C 0.35753 0.58704 0.95247 0.0
Zn93 Zn 0.48984 0.53288 0.95841 0.0
O94 O 0.51533 0.44544 0.86439 0.0
C95 C 0.4781 0.46119 0.08587 0.0
O96 O 0.45879 0.4919 0.85855 0.0
H97 H 0.47698 0.63292 0.9544 0.0
H98 H 0.56227 0.38476 0.97017 0.0
H99 H 0.38946 0.5232 0.95036 0.0
O100 O 0.51582 0.44883 0.0608 0.0
O101 O 0.4595 0.49544 0.05317 0.0
H102 H 0.64611 0.4974 0.97788 0.0
O103 O 0.52166 0.57268 0.05873 0.0
O104 O 0.57769 0.52583 0.0662 0.0
O105 O 0.52145 0.56983 0.86432 0.0
O106 O 0.57775 0.52315 0.86951 0.0
C107 C 0.55932 0.56114 0.09309 0.0
H108 H 0.62741 0.3351 -0.01139 0.0
H109 H 0.71269 0.45045 -0.0045 0.0
H110 H 0.41389 0.68501 0.95614 0.0
H111 H 0.32461 0.57274 0.9543 0.0
C112 C 0.25722 0.20743 0.46132 0.0
C113 C 0.25256 0.24928 0.50105 0.0
H114 H 0.23218 0.14125 0.44611 0.0
C115 C 0.22134 0.25547 0.5643 0.0
H116 H 0.28084 0.20232 0.41138 0.0
C117 C 0.19352 0.22052 0.58474 0.0
C118 C 0.19627 0.17898 0.54149 0.0
H119 H 0.21711 0.28777 0.59508 0.0
H120 H 0.16887 0.22647 0.63231 0.0
C121 C 0.2294 0.1725 0.48144 0.0
C122 C 0.24616 0.68076 0.93763 0.0
C123 C 0.24998 0.71663 -0.00299 0.0
H124 H 0.27948 0.62667 0.87616 0.0
C125 C 0.29162 0.72712 0.03778 0.0
H126 H 0.21408 0.67202 0.9061 0.0
C127 C 0.32893 0.70104 0.02174 0.0
C128 C 0.32516 0.66384 0.96476 0.0
H129 H 0.29498 0.75441 0.08479 0.0
H130 H 0.36023 0.70885 0.05724 0.0
C131 C 0.28348 0.65463 0.92135 0.0
C132 C 0.78158 0.79385 0.47221 0.0
C133 C 0.7462 0.80481 0.52411 0.0
H134 H 0.84743 0.81037 0.43723 0.0
C135 C 0.75108 0.83946 0.58598 0.0
H136 H 0.77811 0.76732 0.42358 0.0
C137 C 0.79047 0.86405 0.59392 0.0
C138 C 0.82561 0.85444 0.53983 0.0
H139 H 0.72396 0.84838 0.62641 0.0
H140 H 0.79311 0.89118 0.64132 0.0
C141 C 0.82115 0.81838 0.48024 0.0
C142 C 0.78915 0.34784 0.0791 0.0
C143 C 0.79383 0.30881 0.02955 0.0
H144 H 0.74769 0.40341 0.10779 0.0
C145 C 0.75904 0.2948 0.97069 0.0
H146 H 0.81579 0.35907 0.12491 0.0
C147 C 0.72003 0.32021 0.96037 0.0
C148 C 0.71557 0.36012 0.00841 0.0
H149 H 0.76234 0.26475 0.93162 0.0
H150 H 0.69398 0.30933 0.91301 0.0
C151 C 0.75036 0.37328 0.06874 0.0
C152 C 0.12852 0.93377 0.22958 0.0
C153 C 0.11483 0.89026 0.20752 0.0
H154 H 0.12174 0.99016 0.31504 0.0
C155 C 0.08364 0.86965 0.25779 0.0
H156 H 0.15263 0.9503 0.19185 0.0
C157 C 0.06551 0.89257 0.32738 0.0
C158 C 0.07872 0.93632 0.34885 0.0
H159 H 0.07224 0.83628 0.24156 0.0
H160 H 0.04088 0.8761 0.36396 0.0
C161 C 0.11093 0.95646 0.30011 0.0
C162 C 0.63254 0.58902 0.65744 0.0
C163 C 0.61785 0.63234 0.6394 0.0
H164 H 0.62589 0.53163 0.73565 0.0
C165 C 0.58591 0.65202 0.69108 0.0
H166 H 0.65705 0.57314 0.6182 0.0
C167 C 0.56743 0.62807 0.75695 0.0
C168 C 0.58105 0.58421 0.77325 0.0
H169 H 0.57363 0.68516 0.67773 0.0
H170 H 0.54189 0.64365 0.79408 0.0
C171 C 0.61463 0.56531 0.72439 0.0
C172 C 0.94497 0.15166 0.2697 0.0
C173 C 0.91414 0.13128 0.20937 0.0
H174 H 0.98775 0.14443 0.38503 0.0
C175 C 0.89957 0.08805 0.22476 0.0
H176 H 0.95716 0.18475 0.25888 0.0
C177 C 0.91688 0.06498 0.2974 0.0
C178 C 0.94966 0.0845 0.35495 0.0
H179 H 0.8758 0.07166 0.17913 0.0
H180 H 0.9061 0.03121 0.3062 0.0
C181 C 0.96277 0.12841 0.34145 0.0
C182 C 0.45884 0.37732 0.63818 0.0
C183 C 0.41367 0.3847 0.61387 0.0
H184 H 0.51427 0.39383 0.727 0.0
C185 C 0.38854 0.41265 0.66637 0.0
H186 H 0.47892 0.35607 0.59833 0.0
C187 C 0.4089 0.435 0.73882 0.0
C188 C 0.45462 0.42929 0.76081 0.0
H189 H 0.35381 0.41932 0.64831 0.0
H190 H 0.3891 0.45774 0.77612 0.0
C191 C 0.47904 0.39907 0.71151 0.0
C192 C 0.63118 0.59121 0.29624 0.0
C193 C 0.61528 0.63377 0.31664 0.0
H194 H 0.62642 0.5351 0.20854 0.0
C195 C 0.58303 0.65356 0.25984 0.0
H196 H 0.65608 0.57534 0.33913 0.0
C197 C 0.56552 0.63036 0.18588 0.0
C198 C 0.58045 0.58722 0.16679 0.0
H199 H 0.56993 0.68619 0.27472 0.0
H200 H 0.53968 0.64587 0.14464 0.0
C201 C 0.61423 0.56829 0.22155 0.0
C202 C 0.90529 0.08633 0.8647 0.0
C203 C 0.91993 0.12946 0.8875 0.0
H204 H 0.91202 0.02953 0.78028 0.0
C205 C 0.95234 0.14919 0.83876 0.0
H206 H 0.88034 0.07043 0.90139 0.0
C207 C 0.97095 0.12565 0.77052 0.0
C208 C 0.95713 0.0821 0.74898 0.0
H209 H 0.96464 0.18218 0.8557 0.0
H210 H 0.99662 0.14139 0.73542 0.0
C211 C 0.92345 0.06299 0.79555 0.0
C212 C 0.46146 0.38809 0.27881 0.0
C213 C 0.41628 0.39561 0.29265 0.0
H214 H 0.51639 0.40244 0.20134 0.0
C215 C 0.39117 0.42321 0.23579 0.0
H216 H 0.48143 0.36682 0.32176 0.0
C217 C 0.41116 0.44397 0.16777 0.0
C218 C 0.45653 0.43704 0.15458 0.0
H219 H 0.35637 0.42987 0.24564 0.0
H220 H 0.39116 0.46582 0.12606 0.0
C221 C 0.48134 0.40832 0.20985 0.0
C222 C 0.09601 0.86539 0.82778 0.0
C223 C 0.12702 0.8863 0.88696 0.0
H224 H 0.05158 0.87221 0.71438 0.0
C225 C 0.14062 0.92976 0.87103 0.0
H226 H 0.08458 0.8321 0.83935 0.0
C227 C 0.12204 0.95265 0.7993 0.0
C228 C 0.08881 0.93278 0.74327 0.0
H229 H 0.16432 0.94661 0.91616 0.0
H230 H 0.13209 0.98664 0.79035 0.0
C231 C 0.07681 0.88853 0.75693 0.0
loop_
_geom_bond_atom_site_label_1
_geom_bond_atom_site_label_2
_geom_bond_distance
_geom_bond_site_symmetry_2
_ccdc_geom_bond_type
H0 C3 0.929 . S
H1 C6 0.929 . S
H2 C8 0.930 . S
C3 H0 0.929 . S
C3 C4 1.398 1_554 S
C3 C5 1.396 . S
C4 C3 1.398 1_556 S
C4 C8 1.407 . S
C5 C3 1.396 . S
C5 C6 1.394 . S
C6 H1 0.929 . S
C6 C5 1.394 . S
C6 C7 1.382 . S
C7 C6 1.382 . S
C7 C8 1.392 1_554 S
C7 N9 1.420 1_554 S
C8 H2 0.930 . S
C8 C4 1.407 . S
C8 C7 1.392 1_556 S
N9 C7 1.420 1_556 S
N9 C10 1.244 1_556 S
C10 N9 1.244 1_554 S
H11 C14 0.929 . S
H12 C17 0.929 . S
H13 C19 0.930 . S
C14 H11 0.929 . S
C14 C15 1.398 . S
C14 C16 1.396 . S
C15 C14 1.398 . S
C15 C19 1.407 . S
C16 C14 1.396 . S
C16 C17 1.394 . S
C17 H12 0.929 . S
C17 C16 1.394 . S
C17 C18 1.382 . S
C18 C17 1.382 . S
C18 C19 1.392 . S
C18 N20 1.420 . S
C19 H13 0.930 . S
C19 C15 1.407 . S
C19 C18 1.392 . S
N20 C18 1.420 . S
N20 C21 1.244 . S
C21 N20 1.244 . S
H22 C25 0.929 . S
H23 C28 0.929 . S
H24 C30 0.930 . S
C25 H22 0.929 . S
C25 C26 1.398 1_554 S
C25 C27 1.396 . S
C26 C25 1.398 1_556 S
C26 C30 1.407 . S
C27 C25 1.396 . S
C27 C28 1.394 . S
C28 H23 0.929 . S
C28 C27 1.394 . S
C28 C29 1.382 1_554 S
C29 C28 1.382 1_556 S
C29 C30 1.392 . S
C29 N31 1.420 . S
C30 H24 0.930 . S
C30 C26 1.407 . S
C30 C29 1.392 . S
N31 C29 1.420 . S
N31 C32 1.244 1_556 S
C32 N31 1.244 1_554 S
H33 C36 0.929 . S
H34 C39 0.929 . S
H35 C41 0.930 . S
C36 H33 0.929 . S
C36 C37 1.398 . S
C36 C38 1.396 . S
C37 C36 1.398 . S
C37 C41 1.407 . S
C38 C36 1.396 . S
C38 C39 1.394 . S
C39 H34 0.929 . S
C39 C38 1.394 . S
C39 C40 1.382 . S
C40 C39 1.382 . S
C40 C41 1.392 . S
C40 N42 1.420 . S
C41 H35 0.930 . S
C41 C37 1.407 . S
C41 C40 1.392 . S
N42 C40 1.420 . S
N42 C43 1.244 . S
C43 N42 1.244 . S
C44 O60 1.251 . S
C44 O62 1.254 . S
N45 C46 1.333 . S
N45 C50 1.307 . S
N45 Zn51 2.020 . S
C46 N45 1.333 . S
C46 C47 1.379 . S
C46 H64 0.952 . S
C47 C46 1.379 . S
C47 C48 1.390 . S
C47 H74 0.949 . S
C48 C47 1.390 . S
C48 C49 1.357 . S
C49 C48 1.357 . S
C49 C50 1.370 . S
C49 H75 0.950 . S
C50 N45 1.307 . S
C50 C49 1.370 . S
C50 H68 0.948 . S
Zn51 N45 2.020 . S
Zn51 O60 2.039 1_545 S
Zn51 O66 2.034 1_545 S
Zn51 O70 2.025 1_455 S
Zn51 O72 2.024 1_455 S
C52 O71 1.246 . S
C52 O72 1.249 . S
N53 C54 1.307 . S
N53 C55 1.333 . S
N53 Zn59 2.020 . S
C54 N53 1.307 . S
C54 C58 1.370 . S
C54 H65 0.948 . S
C55 N53 1.333 . S
C55 C56 1.379 . S
C55 H63 0.952 . S
C56 C55 1.379 . S
C56 C57 1.390 . S
C56 H76 0.949 . S
C57 C56 1.390 . S
C57 C58 1.357 . S
C58 C54 1.370 . S
C58 C57 1.357 . S
C58 H77 0.950 . S
Zn59 N53 2.020 . S
Zn59 O62 2.025 1_655 S
Zn59 O67 2.024 1_655 S
Zn59 O69 2.039 1_565 S
Zn59 O71 2.034 1_565 S
O60 C44 1.251 . S
O60 Zn51 2.039 1_565 S
C61 O66 1.246 . S
C61 O67 1.249 . S
O62 C44 1.254 . S
O62 Zn59 2.025 1_455 S
H63 C55 0.952 . S
H64 C46 0.952 . S
H65 C54 0.948 . S
O66 Zn51 2.034 1_565 S
O66 C61 1.246 . S
O67 Zn59 2.024 1_455 S
O67 C61 1.249 . S
H68 C50 0.948 . S
O69 Zn59 2.039 1_545 S
O69 C73 1.251 . S
O70 Zn51 2.025 1_655 S
O70 C73 1.254 . S
O71 C52 1.246 . S
O71 Zn59 2.034 1_545 S
O72 Zn51 2.024 1_655 S
O72 C52 1.249 . S
C73 O69 1.251 . S
C73 O70 1.254 . S
H74 C47 0.949 . S
H75 C49 0.950 . S
H76 C56 0.949 . S
H77 C58 0.950 . S
C78 O94 1.251 . S
C78 O96 1.254 . S
N79 C80 1.333 . S
N79 C84 1.307 . S
N79 Zn85 2.020 . S
C80 N79 1.333 . S
C80 C81 1.379 . S
C80 H98 0.952 1_554 S
C81 C80 1.379 . S
C81 C82 1.390 . S
C81 H108 0.949 1_554 S
C82 C81 1.390 . S
C82 C83 1.357 . S
C83 C82 1.357 . S
C83 C84 1.370 . S
C83 H109 0.950 . S
C84 N79 1.307 . S
C84 C83 1.370 . S
C84 H102 0.948 . S
Zn85 N79 2.020 . S
Zn85 O94 2.039 1_554 S
Zn85 O100 2.034 . S
Zn85 O104 2.025 . S
Zn85 O106 2.024 1_554 S
C86 O105 1.246 . S
C86 O106 1.249 . S
N87 C88 1.307 . S
N87 C89 1.333 . S
N87 Zn93 2.020 . S
C88 N87 1.307 . S
C88 C92 1.370 . S
C88 H99 0.948 1_554 S
C89 N87 1.333 . S
C89 C90 1.379 . S
C89 H97 0.952 . S
C90 C89 1.379 . S
C90 C91 1.390 . S
C90 H110 0.949 . S
C91 C90 1.390 . S
C91 C92 1.357 . S
C92 C88 1.370 . S
C92 C91 1.357 . S
C92 H111 0.950 1_554 S
Zn93 N87 2.020 . S
Zn93 O96 2.025 1_554 S
Zn93 O101 2.024 . S
Zn93 O103 2.039 . S
Zn93 O105 2.034 1_554 S
O94 C78 1.251 . S
O94 Zn85 2.039 1_556 S
C95 O100 1.246 . S
C95 O101 1.249 . S
O96 C78 1.254 . S
O96 Zn93 2.025 1_556 S
H97 C89 0.952 . S
H98 C80 0.952 1_556 S
H99 C88 0.948 1_556 S
O100 Zn85 2.034 . S
O100 C95 1.246 . S
O101 Zn93 2.024 . S
O101 C95 1.249 . S
H102 C84 0.948 . S
O103 Zn93 2.039 . S
O103 C107 1.251 . S
O104 Zn85 2.025 . S
O104 C107 1.254 . S
O105 C86 1.246 . S
O105 Zn93 2.034 1_556 S
O106 Zn85 2.024 1_556 S
O106 C86 1.249 . S
C107 O103 1.251 . S
C107 O104 1.254 . S
H108 C81 0.949 1_556 S
H109 C83 0.950 . S
H110 C90 0.949 . S
H111 C92 0.950 1_556 S
C112 C113 1.387 . S
C112 H116 0.950 . S
C112 C121 1.390 . S
C113 C112 1.387 . S
C113 C115 1.387 . S
H114 C121 0.950 . S
C115 C113 1.387 . S
C115 C117 1.390 . S
C115 H119 0.950 . S
H116 C112 0.950 . S
C117 C115 1.390 . S
C117 C118 1.387 . S
C117 H120 0.950 . S
C118 C117 1.387 . S
C118 C121 1.387 . S
H119 C115 0.950 . S
H120 C117 0.950 . S
C121 C112 1.390 . S
C121 H114 0.950 . S
C121 C118 1.387 . S
C122 C123 1.387 1_556 S
C122 H126 0.950 . S
C122 C131 1.390 . S
C123 C122 1.387 1_554 S
C123 C125 1.387 . S
H124 C131 0.950 . S
C125 C123 1.387 . S
C125 C127 1.390 . S
C125 H129 0.950 . S
H126 C122 0.950 . S
C127 C125 1.390 . S
C127 C128 1.387 . S
C127 H130 0.950 . S
C128 C127 1.387 . S
C128 C131 1.387 1_554 S
H129 C125 0.950 . S
H130 C127 0.950 . S
C131 C122 1.390 . S
C131 H124 0.950 . S
C131 C128 1.387 1_556 S
C132 C133 1.387 . S
C132 H136 0.950 . S
C132 C141 1.390 . S
C133 C132 1.387 . S
C133 C135 1.387 . S
H134 C141 0.950 . S
C135 C133 1.387 . S
C135 C137 1.390 . S
C135 H139 0.950 . S
H136 C132 0.950 . S
C137 C135 1.390 . S
C137 C138 1.387 . S
C137 H140 0.950 . S
C138 C137 1.387 . S
C138 C141 1.387 . S
H139 C135 0.950 . S
H140 C137 0.950 . S
C141 C132 1.390 . S
C141 H134 0.950 . S
C141 C138 1.387 . S
C142 C143 1.387 . S
C142 H146 0.950 . S
C142 C151 1.390 . S
C143 C142 1.387 . S
C143 C145 1.387 1_554 S
H144 C151 0.950 . S
C145 C143 1.387 1_556 S
C145 C147 1.390 . S
C145 H149 0.950 . S
H146 C142 0.950 . S
C147 C145 1.390 . S
C147 C148 1.387 1_556 S
C147 H150 0.950 . S
C148 C147 1.387 1_554 S
C148 C151 1.387 . S
H149 C145 0.950 . S
H150 C147 0.950 . S
C151 C142 1.390 . S
C151 H144 0.950 . S
C151 C148 1.387 . S
C152 C153 1.387 . S
C152 H156 0.950 . S
C152 C161 1.390 . S
C153 C152 1.387 . S
C153 C155 1.387 . S
H154 C161 0.950 . S
C155 C153 1.387 . S
C155 C157 1.390 . S
C155 H159 0.950 . S
H156 C152 0.950 . S
C157 C155 1.390 . S
C157 C158 1.387 . S
C157 H160 0.950 . S
C158 C157 1.387 . S
C158 C161 1.387 . S
H159 C155 0.950 . S
H160 C157 0.950 . S
C161 C152 1.390 . S
C161 H154 0.950 . S
C161 C158 1.387 . S
C162 C163 1.387 . S
C162 H166 0.950 . S
C162 C171 1.390 . S
C163 C162 1.387 . S
C163 C165 1.387 . S
H164 C171 0.950 . S
C165 C163 1.387 . S
C165 C167 1.390 . S
C165 H169 0.950 . S
H166 C162 0.950 . S
C167 C165 1.390 . S
C167 C168 1.387 . S
C167 H170 0.950 . S
C168 C167 1.387 . S
C168 C171 1.387 . S
H169 C165 0.950 . S
H170 C167 0.950 . S
C171 C162 1.390 . S
C171 H164 0.950 . S
C171 C168 1.387 . S
C172 C173 1.387 . S
C172 H176 0.950 . S
C172 C181 1.390 . S
C173 C172 1.387 . S
C173 C175 1.387 . S
H174 C181 0.950 . S
C175 C173 1.387 . S
C175 C177 1.390 . S
C175 H179 0.950 . S
H176 C172 0.950 . S
C177 C175 1.390 . S
C177 C178 1.387 . S
C177 H180 0.950 . S
C178 C177 1.387 . S
C178 C181 1.387 . S
H179 C175 0.950 . S
H180 C177 0.950 . S
C181 C172 1.390 . S
C181 H174 0.950 . S
C181 C178 1.387 . S
C182 C183 1.387 . S
C182 H186 0.950 . S
C182 C191 1.390 . S
C183 C182 1.387 . S
C183 C185 1.387 . S
H184 C191 0.950 . S
C185 C183 1.387 . S
C185 C187 1.390 . S
C185 H189 0.950 . S
H186 C182 0.950 . S
C187 C185 1.390 . S
C187 C188 1.387 . S
C187 H190 0.950 . S
C188 C187 1.387 . S
C188 C191 1.387 . S
H189 C185 0.950 . S
H190 C187 0.950 . S
C191 C182 1.390 . S
C191 H184 0.950 . S
C191 C188 1.387 . S
C192 C193 1.387 . S
C192 H196 0.950 . S
C192 C201 1.390 . S
C193 C192 1.387 . S
C193 C195 1.387 . S
H194 C201 0.950 . S
C195 C193 1.387 . S
C195 C197 1.390 . S
C195 H199 0.950 . S
H196 C192 0.950 . S
C197 C195 1.390 . S
C197 C198 1.387 . S
C197 H200 0.950 . S
C198 C197 1.387 . S
C198 C201 1.387 . S
H199 C195 0.950 . S
H200 C197 0.950 . S
C201 C192 1.390 . S
C201 H194 0.950 . S
C201 C198 1.387 . S
C202 C203 1.387 . S
C202 H206 0.950 . S
C202 C211 1.390 . S
C203 C202 1.387 . S
C203 C205 1.387 . S
H204 C211 0.950 . S
C205 C203 1.387 . S
C205 C207 1.390 . S
C205 H209 0.950 . S
H206 C202 0.950 . S
C207 C205 1.390 . S
C207 C208 1.387 . S
C207 H210 0.950 . S
C208 C207 1.387 . S
C208 C211 1.387 . S
H209 C205 0.950 . S
H210 C207 0.950 . S
C211 C202 1.390 . S
C211 H204 0.950 . S
C211 C208 1.387 . S
C212 C213 1.387 . S
C212 H216 0.950 . S
C212 C221 1.390 . S
C213 C212 1.387 . S
C213 C215 1.387 . S
H214 C221 0.950 . S
C215 C213 1.387 . S
C215 C217 1.390 . S
C215 H219 0.950 . S
H216 C212 0.950 . S
C217 C215 1.390 . S
C217 C218 1.387 . S
C217 H220 0.950 . S
C218 C217 1.387 . S
C218 C221 1.387 . S
H219 C215 0.950 . S
H220 C217 0.950 . S
C221 C212 1.390 . S
C221 H214 0.950 . S
C221 C218 1.387 . S
C222 C223 1.387 . S
C222 H226 0.950 . S
C222 C231 1.390 . S
C223 C222 1.387 . S
C223 C225 1.387 . S
H224 C231 0.950 . S
C225 C223 1.387 . S
C225 C227 1.390 . S
C225 H229 0.950 . S
H226 C222 0.950 . S
C227 C225 1.390 . S
C227 C228 1.387 . S
C227 H230 0.964 . S
C228 C227 1.387 . S
C228 C231 1.387 . S
H229 C225 0.950 . S
H230 C227 0.964 . S
C231 C222 1.390 . S
C231 H224 0.950 . S
C231 C228 1.387 . S
C118 C48 1.505 . S
C113 C43 1.507 . S
C123 C10 1.508 . S
C128 C91 1.507 . S
C133 C21 1.502 . S
C138 C57 1.508 . S
C143 C32 1.505 . S
C148 C82 1.505 . S
C158 C44 1.556 . S
C153 C5 1.530 . S
C168 C86 1.535 . S
C163 C15 1.532 . S
C173 C27 1.530 . S
C178 C52 1.550 . S
C183 C38 1.516 . S
C188 C78 1.537 . S
C198 C107 1.478 . S
C193 C16 1.459 . S
C208 C73 1.464 . S
C203 C26 1.458 . S
C218 C95 1.477 . S
C213 C37 1.473 . S
C223 C4 1.461 . S
C228 C61 1.463 . S
