# Generated by pormake.
# Topology rtl, (3,6)-cn, num edge types: 1
# Building blocks:
#     Node 0, Type 0, BuildingBlock: PAMTOO_clean_linker_0, # of connection points: 3
#     Node 1, Type 0, BuildingBlock: PAMTOO_clean_linker_0, # of connection points: 3
#     Node 2, Type 0, BuildingBlock: PAMTOO_clean_linker_0, # of connection points: 3
#     Node 3, Type 0, BuildingBlock: PAMTOO_clean_linker_0, # of connection points: 3
#     Node 4, Type 1, BuildingBlock: KUMBOL_clean_sbu_1, # of connection points: 6
#     Node 5, Type 1, BuildingBlock: KUMBOL_clean_sbu_1, # of connection points: 6
#     Edge 6, Type (0, 1), None
#     Edge 7, Type (0, 1), None
#     Edge 8, Type (0, 1), None
#     Edge 9, Type (0, 1), None
#     Edge 10, Type (0, 1), None
#     Edge 11, Type (0, 1), None
#     Edge 12, Type (0, 1), None
#     Edge 13, Type (0, 1), None
#     Edge 14, Type (0, 1), None
#     Edge 15, Type (0, 1), None
#     Edge 16, Type (0, 1), None
#     Edge 17, Type (0, 1), None
# Relax obj value: 0.056
# Max RMSD: 0.285
# Mean RMSD: 0.204
data_MOF--net-rtl--node1-KUMBOL_clean_sbu_1--node2-PAMTOO_clean_linker_0--edge1-none
_symmetry_space_group_name_H-M    P1
_symmetry_Int_Tables_number       1
_symmetry_cell_setting            triclinic
loop_
_symmetry_equiv_pos_as_xyz
'x, y, z'
_cell_length_a     15.655686
_cell_length_b     16.824518
_cell_length_c     14.130484
_cell_angle_alpha  66.155829
_cell_angle_beta   95.689019
_cell_angle_gamma 93.261668
loop_
_atom_site_label
_atom_site_type_symbol
_atom_site_fract_x
_atom_site_fract_y
_atom_site_fract_z
_atom_type_partial_charge
H0 H 0.04892 0.92728 0.96271 0.0
H1 H 0.26161 0.77283 0.15 0.0
H2 H 0.24417 0.85288 0.821 0.0
H3 H 0.27716 0.66196 0.95964 0.0
C4 C 0.3197 0.67125 0.02212 0.0
O5 O 0.3298 0.7594 -0.00277 0.0
H6 H 0.28921 0.64006 0.09672 0.0
C7 C 0.10964 0.89763 0.96824 0.0
C8 C 0.14271 0.89962 0.8771 0.0
C9 C 0.15229 0.85182 0.06763 0.0
C10 C 0.22921 0.81013 0.07452 0.0
C11 C 0.26103 0.8089 0.98626 0.0
C12 C 0.21815 0.85379 0.8882 0.0
H13 H 0.58049 0.54322 0.7812 0.0
H14 H 0.77947 0.69658 0.59371 0.0
H15 H 0.72355 0.73364 0.86322 0.0
H16 H 0.7621 0.89176 0.70868 0.0
C17 C 0.80333 0.87328 0.66129 0.0
O18 O 0.82056 0.78546 0.70914 0.0
H19 H 0.76841 0.88777 0.58384 0.0
C20 C 0.62928 0.59397 0.76463 0.0
C21 C 0.64494 0.63635 0.8312 0.0
C22 C 0.67753 0.61382 0.67954 0.0
C23 C 0.74121 0.68018 0.6591 0.0
C24 C 0.75759 0.72357 0.72582 0.0
C25 C 0.71011 0.70042 0.8124 0.0
H26 H 0.98235 0.08139 0.27053 0.0
H27 H 0.84329 0.28604 0.02112 0.0
H28 H 0.84608 0.26575 0.33387 0.0
H29 H 0.69073 0.28692 0.25493 0.0
C30 C 0.69302 0.32205 0.16953 0.0
O31 O 0.77707 0.34495 0.14684 0.0
H32 H 0.6697 0.2776 0.13241 0.0
C33 C 0.94097 0.13688 0.2438 0.0
C34 C 0.91402 0.16572 0.31552 0.0
C35 C 0.91919 0.1816 0.13717 0.0
C36 C 0.86335 0.25249 0.10289 0.0
C37 C 0.8362 0.28191 0.17515 0.0
C38 C 0.8656 0.24112 0.27994 0.0
H39 H 0.45061 0.51188 0.36523 0.0
H40 H 0.27888 0.3393 0.58134 0.0
H41 H 0.35114 0.28036 0.33392 0.0
H42 H 0.15481 0.25511 0.38497 0.0
C43 C 0.16935 0.23433 0.47002 0.0
O44 O 0.25708 0.23086 0.49349 0.0
H45 H 0.14156 0.28275 0.49255 0.0
C46 C 0.41054 0.454 0.39205 0.0
C47 C 0.40466 0.40035 0.33763 0.0
C48 C 0.36726 0.4323 0.48167 0.0
C49 C 0.31474 0.357 0.51398 0.0
C50 C 0.30745 0.30332 0.45972 0.0
C51 C 0.35343 0.32434 0.37225 0.0
C52 C 0.97789 0.31615 0.57905 0.0
C53 C 0.84269 0.36913 0.4777 0.0
C54 C 0.89761 0.29998 0.53755 0.0
C55 C 0.87019 0.4549 0.45791 0.0
C56 C 1.00406 0.40188 0.56306 0.0
C57 C 0.9502 0.47111 0.50133 0.0
N58 N 1.02757 0.24769 0.64101 0.0
C59 C 0.10219 0.25975 0.69253 0.0
C60 C 0.08209 0.41516 0.61286 0.0
C61 C 0.1308 0.34371 0.67882 0.0
Gd62 Gd 0.06781 0.9567 0.52821 0.0
Gd63 Gd 0.97151 0.11073 0.66068 0.0
N64 N 0.87144 0.21618 0.56053 0.0
C65 C 0.76053 0.34965 0.44295 0.0
C66 C 0.78907 0.19647 0.53447 0.0
C67 C 0.73264 0.26307 0.47391 0.0
H68 H 0.76806 0.12942 0.55789 0.0
H69 H 0.66819 0.24772 0.45008 0.0
H70 H 0.25531 0.07749 0.4727 0.0
H71 H 0.13998 0.20462 0.74352 0.0
H72 H 0.40791 0.05687 0.52822 0.0
H73 H 0.71769 0.40089 0.39382 0.0
H74 H 0.82893 0.509 0.41233 0.0
H75 H 0.97844 0.7577 0.61287 0.0
H76 H 0.1043 0.48007 0.60281 0.0
H77 H 0.19035 0.35329 0.71917 0.0
H78 H 0.4291 0.75411 0.74954 0.0
H79 H 0.96865 0.53721 0.48945 0.0
H80 H 0.17471 0.57642 0.78738 0.0
H81 H 1.02281 0.60693 0.71982 0.0
N82 N 0.1037 0.81173 0.62175 0.0
C83 C 0.18789 0.7964 0.65454 0.0
C84 C 0.04474 0.74517 0.64285 0.0
C85 C 0.15548 0.64272 0.74051 0.0
C86 C 0.06969 0.65965 0.70278 0.0
C87 C 0.21572 0.71139 0.71601 0.0
H88 H 0.32393 0.63284 0.80003 0.0
N89 N 0.21778 0.94762 0.56784 0.0
C90 C 0.24648 0.86595 0.62675 0.0
C91 C 0.39279 0.92095 0.62512 0.0
C92 C 0.33462 0.85093 0.65871 0.0
C93 C 0.27527 1.01484 0.52899 0.0
C94 C 0.36308 1.00291 0.55834 0.0
O95 O 0.94557 0.16031 0.48717 0.0
O96 O 0.9471 0.03391 0.46421 0.0
O97 O 0.12646 0.96138 0.39051 0.0
O98 O 0.99995 0.90618 0.42224 0.0
O99 O 0.88012 1.00576 0.64571 0.0
O100 O 0.94954 0.89909 0.61458 0.0
O101 O 0.08632 0.90791 0.70643 0.0
O102 O 0.09066 0.03249 0.73871 0.0
O103 O 0.94057 0.02859 0.8181 0.0
O104 O 0.91449 0.16545 0.75373 0.0
O105 O 0.10868 0.09822 0.47333 0.0
O106 O 0.10922 0.12276 0.62178 0.0
C107 C 0.93915 0.11823 0.42664 0.0
C108 C 0.8847 0.92758 0.64498 0.0
C109 C 0.0748 0.86122 0.31361 0.0
C110 C 0.1109 0.83 0.16625 0.0
C111 C 0.05652 0.71511 0.31887 0.0
C112 C 0.05097 0.77343 0.36528 0.0
C113 C 0.08599 0.74294 0.22058 0.0
C114 C 0.10504 0.88948 0.21324 0.0
C115 C 0.06077 0.92428 0.35996 0.0
C116 C 0.36198 0.76662 0.72257 0.0
C117 C 0.30248 0.6974 0.7511 0.0
H118 H 0.46091 0.91192 0.64785 0.0
C119 C 0.09885 0.9478 0.77095 0.0
C120 C 0.12838 0.14698 0.52549 0.0
C121 C 0.96353 0.10623 0.92646 0.0
C122 C 0.9632 0.15752 0.06472 0.0
C123 C 0.09806 0.12727 0.01488 0.0
C124 C 0.0535 0.10341 0.94007 0.0
C125 C 0.05319 0.15403 0.07663 0.0
C126 C 0.91819 0.13411 0.98845 0.0
C127 C 0.91898 0.09438 0.83682 0.0
H128 H 0.03832 0.64768 0.35936 0.0
H129 H 1.02678 0.74984 0.44112 0.0
H130 H 0.09126 0.69561 0.18755 0.0
H131 H 0.12476 0.95662 0.17289 0.0
H132 H 0.16749 0.1255 0.0247 0.0
H133 H 0.08954 0.08502 0.89092 0.0
H134 H 0.08856 0.17242 0.13406 0.0
H135 H 0.84879 0.13791 0.97711 0.0
C136 C 0.76021 0.68985 0.07306 0.0
C137 C 0.71414 0.83872 0.97705 0.0
C138 C 0.69466 0.75053 0.03658 0.0
C139 C 0.79895 0.86452 0.95329 0.0
C140 C 0.84538 0.71569 0.0486 0.0
C141 C 0.8643 0.80329 0.98854 0.0
N142 N 0.73992 0.60493 0.12863 0.0
C143 C 0.80166 0.54309 0.1648 0.0
C144 C 0.90887 0.65244 0.08405 0.0
C145 C 0.88695 0.56585 0.14284 0.0
Gd146 Gd 0.44983 0.45813 0.00055 0.0
Gd147 Gd 0.59625 0.57512 0.16539 0.0
N148 N 0.61224 0.72341 0.05787 0.0
C149 C 0.64777 0.89864 0.94296 0.0
C150 C 0.54874 0.78283 0.03099 0.0
C151 C 0.56495 0.87069 0.97119 0.0
H152 H 0.48629 0.7643 0.05863 0.0
H153 H 0.51384 0.91712 0.94885 0.0
H154 H 0.55896 0.28451 0.02132 0.0
H155 H 0.78548 0.47652 0.21244 0.0
H156 H 0.55924 0.12598 0.12455 0.0
H157 H 0.66021 0.96688 0.89701 0.0
H158 H 0.8143 0.93182 0.90725 0.0
H159 H 0.24916 0.52283 0.99029 0.0
H160 H 0.97488 0.66978 0.06636 0.0
H161 H 0.93576 0.51668 0.1716 0.0
H162 H 0.29902 0.07016 0.29526 0.0
H163 H 0.92918 0.8242 0.96847 0.0
H164 H 0.10487 0.30669 0.19059 0.0
H165 H 0.11391 0.46194 0.07136 0.0
N166 N 0.31626 0.40497 0.06664 0.0
C167 C 0.31093 0.31832 0.12656 0.0
C168 C 0.24588 0.45578 0.04358 0.0
C169 C 0.1643 0.33334 0.15565 0.0
C170 C 0.1692 0.42108 0.08858 0.0
C171 C 0.23534 0.28048 0.17442 0.0
H172 H 0.17712 0.16152 0.27983 0.0
N173 N 0.45253 0.30584 0.08982 0.0
C174 C 0.38167 0.26764 0.13984 0.0
C175 C 0.44379 0.12599 0.19576 0.0
C176 C 0.37664 0.17686 0.19699 0.0
C177 C 0.5115 0.25544 0.07654 0.0
C178 C 0.51017 0.16524 0.13232 0.0
O179 O 0.64142 0.5894 0.01357 0.0
O180 O 0.51516 0.58819 0.91693 0.0
O181 O 0.47472 0.41697 0.87903 0.0
O182 O 0.35246 0.47215 0.87487 0.0
O183 O 0.45515 0.6128 0.12117 0.0
O184 O 0.41872 0.59688 0.96679 0.0
O185 O 0.40733 0.44608 0.15446 0.0
O186 O 0.5339 0.44463 0.25175 0.0
O187 O 0.56242 0.62685 0.27522 0.0
O188 O 0.6866 0.57116 0.29247 0.0
O189 O 0.5907 0.42171 0.04399 0.0
O190 O 0.62738 0.43566 0.20007 0.0
C191 C 0.5975 0.60694 0.92435 0.0
C192 C 0.4044 0.62816 0.03526 0.0
C193 C 0.40149 0.48967 0.7154 0.0
C194 C 0.38153 0.48467 0.54506 0.0
C195 C 0.41754 0.62154 0.56142 0.0
C196 C 0.42039 0.57884 0.6693 0.0
C197 C 0.39738 0.5751 0.49928 0.0
C198 C 0.38381 0.44292 0.65363 0.0
C199 C 0.40083 0.44235 0.82768 0.0
C200 C 0.30325 0.13948 0.24922 0.0
C201 C 0.23331 0.19141 0.23921 0.0
H202 H 0.44228 0.05604 0.23821 0.0
C203 C 0.45167 0.42603 0.24437 0.0
C204 C 0.63707 0.40024 0.1337 0.0
C205 C 0.63151 0.56029 0.44383 0.0
C206 C 0.65957 0.56398 0.61393 0.0
C207 C 0.61625 0.42831 0.59784 0.0
C208 C 0.61113 0.47134 0.49018 0.0
C209 C 0.64101 0.47397 0.6596 0.0
C210 C 0.65527 0.60649 0.50554 0.0
C211 C 0.63493 0.60462 0.33177 0.0
H212 H 0.43141 0.69064 0.52592 0.0
H213 H 0.43851 0.6149 0.71657 0.0
H214 H 0.39478 0.61001 0.41579 0.0
H215 H 0.37403 0.37317 0.69132 0.0
H216 H 0.60127 0.35945 0.63348 0.0
H217 H 0.59244 0.435 0.44324 0.0
H218 H 0.64513 0.43882 0.74317 0.0
H219 H 0.66939 0.67562 0.46898 0.0
loop_
_geom_bond_atom_site_label_1
_geom_bond_atom_site_label_2
_geom_bond_distance
_geom_bond_site_symmetry_2
_ccdc_geom_bond_type
H0 C7 0.929 . S
H1 C10 0.930 . S
H2 C12 0.929 . S
H3 C4 0.969 . S
C4 H3 0.969 . S
C4 O5 1.550 . S
C4 H6 0.973 . S
O5 C4 1.550 . S
O5 C11 1.412 . S
H6 C4 0.973 . S
C7 H0 0.929 . S
C7 C8 1.400 . S
C7 C9 1.364 1_556 S
C8 C7 1.400 . S
C8 C12 1.377 . S
C9 C7 1.364 1_554 S
C9 C10 1.374 . S
C10 H1 0.930 . S
C10 C9 1.374 . S
C10 C11 1.383 . S
C11 O5 1.412 . S
C11 C10 1.383 . S
C11 C12 1.394 1_554 S
C12 H2 0.929 . S
C12 C8 1.377 . S
C12 C11 1.394 1_556 S
H13 C20 0.929 . S
H14 C23 0.930 . S
H15 C25 0.929 . S
H16 C17 0.969 . S
C17 H16 0.969 . S
C17 O18 1.550 . S
C17 H19 0.973 . S
O18 C17 1.550 . S
O18 C24 1.412 . S
H19 C17 0.973 . S
C20 H13 0.929 . S
C20 C21 1.400 . S
C20 C22 1.364 . S
C21 C20 1.400 . S
C21 C25 1.377 . S
C22 C20 1.364 . S
C22 C23 1.374 . S
C23 H14 0.930 . S
C23 C22 1.374 . S
C23 C24 1.383 . S
C24 O18 1.412 . S
C24 C23 1.383 . S
C24 C25 1.394 . S
C25 H15 0.929 . S
C25 C21 1.377 . S
C25 C24 1.394 . S
H26 C33 0.929 . S
H27 C36 0.930 . S
H28 C38 0.929 . S
H29 C30 0.969 . S
C30 H29 0.969 . S
C30 O31 1.550 . S
C30 H32 0.973 . S
O31 C30 1.550 . S
O31 C37 1.412 . S
H32 C30 0.973 . S
C33 H26 0.929 . S
C33 C34 1.400 . S
C33 C35 1.364 . S
C34 C33 1.400 . S
C34 C38 1.377 . S
C35 C33 1.364 . S
C35 C36 1.374 . S
C36 H27 0.930 . S
C36 C35 1.374 . S
C36 C37 1.383 . S
C37 O31 1.412 . S
C37 C36 1.383 . S
C37 C38 1.394 . S
C38 H28 0.929 . S
C38 C34 1.377 . S
C38 C37 1.394 . S
H39 C46 0.929 . S
H40 C49 0.930 . S
H41 C51 0.929 . S
H42 C43 0.969 . S
C43 H42 0.969 . S
C43 O44 1.550 . S
C43 H45 0.973 . S
O44 C43 1.550 . S
O44 C50 1.412 . S
H45 C43 0.973 . S
C46 H39 0.929 . S
C46 C47 1.400 . S
C46 C48 1.364 . S
C47 C46 1.400 . S
C47 C51 1.377 . S
C48 C46 1.364 . S
C48 C49 1.374 . S
C49 H40 0.930 . S
C49 C48 1.374 . S
C49 C50 1.383 . S
C50 O44 1.412 . S
C50 C49 1.383 . S
C50 C51 1.394 . S
C51 H41 0.929 . S
C51 C47 1.377 . S
C51 C50 1.394 . S
C52 C54 1.422 . S
C52 C56 1.415 . S
C52 N58 1.369 . S
C53 C54 1.421 . S
C53 C55 1.417 . S
C53 C65 1.422 . S
C54 C52 1.422 . S
C54 C53 1.421 . S
C54 N64 1.359 . S
C55 C53 1.417 . S
C55 C57 1.329 . S
C55 H74 0.930 . S
C56 C52 1.415 . S
C56 C57 1.437 . S
C56 C60 1.413 . S
C57 C55 1.329 . S
C57 C56 1.437 . S
C57 H79 0.929 . S
N58 C52 1.369 . S
N58 C59 1.338 1_655 S
N58 Gd63 2.622 . S
C59 N58 1.338 1_455 S
C59 C61 1.378 1_455 S
C59 H71 0.929 . S
C60 C56 1.413 . S
C60 C61 1.348 . S
C60 H76 0.931 . S
C61 C59 1.378 1_655 S
C61 C60 1.348 . S
C61 H77 0.930 1_655 S
Gd62 N82 2.622 . S
Gd62 N89 2.570 . S
Gd62 O96 2.353 1_465 S
Gd62 O97 2.468 . S
Gd62 O98 2.427 . S
Gd62 O100 2.388 1_455 S
Gd62 O101 2.386 . S
Gd62 O105 2.307 1_565 S
Gd62 C115 2.805 . S
Gd63 N58 2.622 . S
Gd63 N64 2.570 . S
Gd63 O95 2.386 . S
Gd63 O99 2.307 1_545 S
Gd63 O102 2.353 1_655 S
Gd63 O103 2.468 . S
Gd63 O104 2.427 . S
Gd63 O106 2.388 1_655 S
Gd63 C127 2.805 . S
N64 C54 1.359 . S
N64 Gd63 2.570 . S
N64 C66 1.343 . S
C65 C53 1.422 . S
C65 C67 1.321 . S
C65 H73 0.931 . S
C66 N64 1.343 . S
C66 C67 1.390 . S
C66 H68 0.931 . S
C67 C65 1.321 . S
C67 C66 1.390 . S
C67 H69 0.930 . S
H68 C66 0.931 . S
H69 C67 0.930 . S
H70 C93 0.931 . S
H71 C59 0.929 . S
H72 C94 0.930 . S
H73 C65 0.931 . S
H74 C55 0.930 . S
H75 C84 0.929 1_655 S
H76 C60 0.931 . S
H77 C61 0.930 1_455 S
H78 C116 0.930 . S
H79 C57 0.929 . S
H80 C85 0.931 . S
H81 C86 0.930 1_655 S
N82 Gd62 2.622 . S
N82 C83 1.369 . S
N82 C84 1.338 . S
C83 N82 1.369 . S
C83 C87 1.415 . S
C83 C90 1.422 . S
C84 H75 0.929 1_455 S
C84 N82 1.338 . S
C84 C86 1.378 . S
C85 H80 0.931 . S
C85 C86 1.348 . S
C85 C87 1.413 . S
C86 H81 0.930 1_455 S
C86 C84 1.378 . S
C86 C85 1.348 . S
C87 C83 1.415 . S
C87 C85 1.413 . S
C87 C117 1.437 . S
H88 C117 0.929 . S
N89 Gd62 2.570 . S
N89 C90 1.359 . S
N89 C93 1.343 . S
C90 C83 1.422 . S
C90 N89 1.359 . S
C90 C92 1.421 . S
C91 C92 1.422 . S
C91 C94 1.321 . S
C91 H118 0.931 . S
C92 C90 1.421 . S
C92 C91 1.422 . S
C92 C116 1.417 . S
C93 H70 0.931 . S
C93 N89 1.343 . S
C93 C94 1.390 . S
C94 H72 0.930 . S
C94 C91 1.321 . S
C94 C93 1.390 . S
O95 Gd63 2.386 . S
O95 C107 1.265 . S
O96 Gd62 2.353 1_645 S
O96 C107 1.242 . S
O97 Gd62 2.468 . S
O97 C115 1.263 . S
O98 Gd62 2.427 . S
O98 C115 1.252 . S
O99 Gd63 2.307 1_565 S
O99 C108 1.261 . S
O100 Gd62 2.388 1_655 S
O100 C108 1.252 . S
O101 Gd62 2.386 . S
O101 C119 1.265 . S
O102 Gd63 2.353 1_455 S
O102 C119 1.242 1_545 S
O103 Gd63 2.468 . S
O103 C127 1.263 . S
O104 Gd63 2.427 . S
O104 C127 1.252 . S
O105 Gd62 2.307 1_545 S
O105 C120 1.261 . S
O106 Gd63 2.388 1_455 S
O106 C120 1.252 . S
C107 O95 1.265 . S
C107 O96 1.242 . S
C108 O99 1.261 . S
C108 O100 1.252 . S
C109 C112 1.394 . S
C109 C114 1.370 . S
C109 C115 1.500 . S
C110 C113 1.383 . S
C110 C114 1.395 . S
C111 C112 1.396 . S
C111 C113 1.365 . S
C111 H128 0.929 . S
C112 C109 1.394 . S
C112 C111 1.396 . S
C112 H129 0.930 . S
C113 C110 1.383 . S
C113 C111 1.365 . S
C113 H130 0.931 . S
C114 C109 1.370 . S
C114 C110 1.395 . S
C114 H131 0.930 . S
C115 Gd62 2.805 . S
C115 O97 1.263 . S
C115 O98 1.252 . S
C115 C109 1.500 . S
C116 H78 0.930 . S
C116 C92 1.417 . S
C116 C117 1.329 . S
C117 C87 1.437 . S
C117 H88 0.929 . S
C117 C116 1.329 . S
H118 C91 0.931 . S
C119 O101 1.265 . S
C119 O102 1.242 1_565 S
C120 O105 1.261 . S
C120 O106 1.252 . S
C121 C124 1.394 . S
C121 C126 1.370 . S
C121 C127 1.500 . S
C122 C125 1.383 . S
C122 C126 1.395 1_554 S
C123 C124 1.396 1_554 S
C123 C125 1.365 . S
C123 H132 0.929 . S
C124 C121 1.394 . S
C124 C123 1.396 1_556 S
C124 H133 0.930 . S
C125 C122 1.383 . S
C125 C123 1.365 . S
C125 H134 0.931 . S
C126 C121 1.370 . S
C126 C122 1.395 1_556 S
C126 H135 0.930 . S
C127 Gd63 2.805 . S
C127 O103 1.263 . S
C127 O104 1.252 . S
C127 C121 1.500 . S
H128 C111 0.929 . S
H129 C112 0.930 . S
H130 C113 0.931 . S
H131 C114 0.930 . S
H132 C123 0.929 . S
H133 C124 0.930 . S
H134 C125 0.931 . S
H135 C126 0.930 . S
C136 C138 1.422 . S
C136 C140 1.415 . S
C136 N142 1.369 . S
C137 C138 1.421 . S
C137 C139 1.417 . S
C137 C149 1.422 . S
C138 C136 1.422 . S
C138 C137 1.421 . S
C138 N148 1.359 . S
C139 C137 1.417 . S
C139 C141 1.329 . S
C139 H158 0.930 . S
C140 C136 1.415 . S
C140 C141 1.437 . S
C140 C144 1.413 . S
C141 C139 1.329 . S
C141 C140 1.437 . S
C141 H163 0.929 . S
N142 C136 1.369 . S
N142 C143 1.338 . S
N142 Gd147 2.622 . S
C143 N142 1.338 . S
C143 C145 1.378 . S
C143 H155 0.929 . S
C144 C140 1.413 . S
C144 C145 1.348 . S
C144 H160 0.931 . S
C145 C143 1.378 . S
C145 C144 1.348 . S
C145 H161 0.930 . S
Gd146 N166 2.620 . S
Gd146 N173 2.570 1_556 S
Gd146 O180 2.356 . S
Gd146 O181 2.474 . S
Gd146 O182 2.433 . S
Gd146 O184 2.385 . S
Gd146 O185 2.379 1_556 S
Gd146 O189 2.305 1_556 S
Gd146 C199 2.812 . S
Gd147 N142 2.622 . S
Gd147 N148 2.570 . S
Gd147 O179 2.386 . S
Gd147 O183 2.307 . S
Gd147 O186 2.353 . S
Gd147 O187 2.468 . S
Gd147 O188 2.427 . S
Gd147 O190 2.388 . S
Gd147 C211 2.805 . S
N148 C138 1.359 . S
N148 Gd147 2.570 . S
N148 C150 1.343 . S
C149 C137 1.422 . S
C149 C151 1.321 . S
C149 H157 0.931 . S
C150 N148 1.343 . S
C150 C151 1.390 . S
C150 H152 0.931 . S
C151 C149 1.321 . S
C151 C150 1.390 . S
C151 H153 0.930 . S
H152 C150 0.931 . S
H153 C151 0.930 . S
H154 C177 0.931 . S
H155 C143 0.929 . S
H156 C178 0.930 . S
H157 C149 0.931 . S
H158 C139 0.930 . S
H159 C168 0.929 . S
H160 C144 0.931 . S
H161 C145 0.930 . S
H162 C200 0.930 . S
H163 C141 0.929 . S
H164 C169 0.931 . S
H165 C170 0.930 . S
N166 Gd146 2.620 . S
N166 C167 1.369 1_556 S
N166 C168 1.338 . S
C167 N166 1.369 1_554 S
C167 C171 1.415 . S
C167 C174 1.422 . S
C168 H159 0.929 . S
C168 N166 1.338 . S
C168 C170 1.378 . S
C169 H164 0.931 . S
C169 C170 1.348 1_554 S
C169 C171 1.413 . S
C170 H165 0.930 . S
C170 C168 1.378 . S
C170 C169 1.348 1_556 S
C171 C167 1.415 . S
C171 C169 1.413 . S
C171 C201 1.437 . S
H172 C201 0.929 . S
N173 Gd146 2.570 1_554 S
N173 C174 1.359 . S
N173 C177 1.343 . S
C174 C167 1.422 . S
C174 N173 1.359 . S
C174 C176 1.421 . S
C175 C176 1.422 . S
C175 C178 1.321 . S
C175 H202 0.931 . S
C176 C174 1.421 . S
C176 C175 1.422 . S
C176 C200 1.417 . S
C177 H154 0.931 . S
C177 N173 1.343 . S
C177 C178 1.390 . S
C178 H156 0.930 . S
C178 C175 1.321 . S
C178 C177 1.390 . S
O179 Gd147 2.386 . S
O179 C191 1.265 1_554 S
O180 Gd146 2.356 . S
O180 C191 1.242 . S
O181 Gd146 2.474 . S
O181 C199 1.263 . S
O182 Gd146 2.433 . S
O182 C199 1.252 . S
O183 Gd147 2.307 . S
O183 C192 1.261 . S
O184 Gd146 2.385 . S
O184 C192 1.252 1_556 S
O185 Gd146 2.379 1_554 S
O185 C203 1.265 . S
O186 Gd147 2.353 . S
O186 C203 1.242 . S
O187 Gd147 2.468 . S
O187 C211 1.263 . S
O188 Gd147 2.427 . S
O188 C211 1.252 . S
O189 Gd146 2.305 1_554 S
O189 C204 1.261 . S
O190 Gd147 2.388 . S
O190 C204 1.252 . S
C191 O179 1.265 1_556 S
C191 O180 1.242 . S
C192 O183 1.261 . S
C192 O184 1.252 1_554 S
C193 C196 1.394 . S
C193 C198 1.370 . S
C193 C199 1.500 . S
C194 C197 1.383 . S
C194 C198 1.395 . S
C195 C196 1.396 . S
C195 C197 1.365 . S
C195 H212 0.929 . S
C196 C193 1.394 . S
C196 C195 1.396 . S
C196 H213 0.930 . S
C197 C194 1.383 . S
C197 C195 1.365 . S
C197 H214 0.931 . S
C198 C193 1.370 . S
C198 C194 1.395 . S
C198 H215 0.930 . S
C199 Gd146 2.812 . S
C199 O181 1.263 . S
C199 O182 1.252 . S
C199 C193 1.500 . S
C200 H162 0.930 . S
C200 C176 1.417 . S
C200 C201 1.329 . S
C201 C171 1.437 . S
C201 H172 0.929 . S
C201 C200 1.329 . S
H202 C175 0.931 . S
C203 O185 1.265 . S
C203 O186 1.242 . S
C204 O189 1.261 . S
C204 O190 1.252 . S
C205 C208 1.394 . S
C205 C210 1.370 . S
C205 C211 1.500 . S
C206 C209 1.383 . S
C206 C210 1.395 . S
C207 C208 1.396 . S
C207 C209 1.365 . S
C207 H216 0.929 . S
C208 C205 1.394 . S
C208 C207 1.396 . S
C208 H217 0.930 . S
C209 C206 1.383 . S
C209 C207 1.365 . S
C209 H218 0.931 . S
C210 C205 1.370 . S
C210 C206 1.395 . S
C210 H219 0.930 . S
C211 Gd147 2.805 . S
C211 O187 1.263 . S
C211 O188 1.252 . S
C211 C205 1.500 . S
H212 C195 0.929 . S
H213 C196 0.930 . S
H214 C197 0.931 . S
H215 C198 0.930 . S
H216 C207 0.929 . S
H217 C208 0.930 . S
H218 C209 0.931 . S
H219 C210 0.930 . S
C120 C43 1.518 . S
C4 C192 1.807 . S
C17 C108 1.627 . S
C30 C204 1.946 . S
C110 C9 1.291 . S
C191 C21 1.777 . S
C34 C107 1.840 . S
C48 C194 1.401 . S
C206 C22 1.409 . S
C122 C35 1.298 . S
C203 C47 1.766 . S
C8 C119 1.816 . S
