# Generated by pormake.
# Topology pyr, (3,6)-cn, num edge types: 1
# Building blocks:
#     Node 0, Type 0, BuildingBlock: PAMTOO_clean_linker_0, # of connection points: 3
#     Node 1, Type 0, BuildingBlock: PAMTOO_clean_linker_0, # of connection points: 3
#     Node 2, Type 0, BuildingBlock: PAMTOO_clean_linker_0, # of connection points: 3
#     Node 3, Type 0, BuildingBlock: PAMTOO_clean_linker_0, # of connection points: 3
#     Node 4, Type 0, BuildingBlock: PAMTOO_clean_linker_0, # of connection points: 3
#     Node 5, Type 0, BuildingBlock: PAMTOO_clean_linker_0, # of connection points: 3
#     Node 6, Type 0, BuildingBlock: PAMTOO_clean_linker_0, # of connection points: 3
#     Node 7, Type 0, BuildingBlock: PAMTOO_clean_linker_0, # of connection points: 3
#     Node 8, Type 1, BuildingBlock: JUFBIX_clean_sbu_0, # of connection points: 6
#     Node 9, Type 1, BuildingBlock: JUFBIX_clean_sbu_0, # of connection points: 6
#     Node 10, Type 1, BuildingBlock: JUFBIX_clean_sbu_0, # of connection points: 6
#     Node 11, Type 1, BuildingBlock: JUFBIX_clean_sbu_0, # of connection points: 6
#     Edge 12, Type (0, 1), None
#     Edge 13, Type (0, 1), None
#     Edge 14, Type (0, 1), None
#     Edge 15, Type (0, 1), None
#     Edge 16, Type (0, 1), None
#     Edge 17, Type (0, 1), None
#     Edge 18, Type (0, 1), None
#     Edge 19, Type (0, 1), None
#     Edge 20, Type (0, 1), None
#     Edge 21, Type (0, 1), None
#     Edge 22, Type (0, 1), None
#     Edge 23, Type (0, 1), None
#     Edge 24, Type (0, 1), None
#     Edge 25, Type (0, 1), None
#     Edge 26, Type (0, 1), None
#     Edge 27, Type (0, 1), None
#     Edge 28, Type (0, 1), None
#     Edge 29, Type (0, 1), None
#     Edge 30, Type (0, 1), None
#     Edge 31, Type (0, 1), None
#     Edge 32, Type (0, 1), None
#     Edge 33, Type (0, 1), None
#     Edge 34, Type (0, 1), None
#     Edge 35, Type (0, 1), None
# Relax obj value: 0.284
# Max RMSD: 0.222
# Mean RMSD: 0.149
data_MOF--net-pry--node1-JUFBIX_clean_sbu_0--node2-PAMTOO_clean_linker_0--edge1-none
_symmetry_space_group_name_H-M    P1
_symmetry_Int_Tables_number       1
_symmetry_cell_setting            triclinic
loop_
_symmetry_equiv_pos_as_xyz
'x, y, z'
_cell_length_a     15.640841
_cell_length_b     15.048181
_cell_length_c     16.112232
_cell_angle_alpha  78.172999
_cell_angle_beta   86.181648
_cell_angle_gamma 98.44056
loop_
_atom_site_label
_atom_site_type_symbol
_atom_site_fract_x
_atom_site_fract_y
_atom_site_fract_z
_atom_type_partial_charge
H0 H 0.09479 0.23779 0.337 0.0
H1 H 0.29211 0.06441 0.36244 0.0
H2 H 0.28224 0.25335 0.12406 0.0
H3 H 0.33063 0.07798 0.10274 0.0
C4 C 0.36869 0.06123 0.15815 0.0
O5 O 0.36873 0.12944 0.20504 0.0
H6 H 0.33624 0.9942 0.19859 0.0
C7 C 0.14969 0.21361 0.30941 0.0
C8 C 0.18216 0.25363 0.22368 0.0
C9 C 0.18793 0.14522 0.36108 0.0
C10 C 0.26073 0.11576 0.32425 0.0
C11 C 0.29441 0.15356 0.23818 0.0
C12 C 0.25454 0.22222 0.18873 0.0
H13 H 0.43336 0.05057 0.67676 0.0
H14 H 0.46335 0.79082 0.62111 0.0
H15 H 0.67671 0.9543 0.70166 0.0
H16 H 0.73488 0.80421 0.57441 0.0
C17 C 0.66335 0.78179 0.58163 0.0
O18 O 0.62665 0.80212 0.654 0.0
H19 H 0.63495 0.81573 0.52471 0.0
C20 C 0.47632 1.00356 0.66462 0.0
C21 C 0.5576 1.01105 0.69464 0.0
C22 C 0.44069 0.92315 0.64112 0.0
C23 C 0.49177 0.85536 0.63538 0.0
C24 C 0.57898 0.86995 0.65203 0.0
C25 C 0.61255 0.94889 0.67969 0.0
H26 H 0.82018 0.24829 0.14437 0.0
H27 H 0.66929 0.2981 0.92948 0.0
H28 H 0.86221 0.51377 0.96849 0.0
H29 H 0.65824 0.55839 0.86069 0.0
C30 C 0.65792 0.48727 0.85134 0.0
O31 O 0.73987 0.463 0.8668 0.0
H32 H 0.60615 0.44146 0.89791 0.0
C33 C 0.80216 0.29554 0.09064 0.0
C34 C 0.84966 0.3866 1.06581 0.0
C35 C 0.73618 0.26331 1.04169 0.0
C36 C 0.71744 0.32244 0.96862 0.0
C37 C 0.75897 0.41291 0.94301 0.0
C38 C 0.82576 0.44509 0.99138 0.0
H39 H 0.89048 0.74363 0.58628 0.0
H40 H 0.07401 0.61081 0.46981 0.0
H41 H 0.12001 0.90331 0.43327 0.0
H42 H 0.24287 0.75291 0.28161 0.0
C43 C 0.17479 0.74126 0.31113 0.0
O44 O 0.17645 0.7603 0.39138 0.0
H45 H 0.13837 0.78889 0.27076 0.0
C46 C 0.94886 0.74767 0.54478 0.0
C47 C 1.00318 0.83335 0.515 0.0
C48 C 0.97292 0.66762 0.52242 0.0
C49 C 1.05323 0.67351 0.47868 0.0
C50 C 0.10276 0.75798 0.44104 0.0
C51 C 0.07701 0.83835 0.45741 0.0
H52 H 0.84047 0.02281 0.85083 0.0
H53 H 0.86098 0.84267 0.09308 0.0
H54 H 1.06638 0.89149 0.89276 0.0
H55 H 1.01424 0.72467 0.93565 0.0
C56 C 0.99497 0.70943 1.00557 0.0
O57 O 1.00353 0.78945 1.03615 0.0
H58 H 0.92566 0.67594 1.01755 0.0
C59 C 0.87653 0.9792 0.89219 0.0
C60 C 0.9592 0.96205 0.85885 0.0
C61 C 0.84143 0.94044 0.97991 0.0
C62 C 0.88785 0.87907 1.0294 0.0
C63 C 0.96723 0.86071 0.99601 0.0
C64 C 1.00448 0.90716 0.91486 0.0
H65 H 0.78805 0.06786 0.42837 0.0
H66 H 0.51889 0.09268 0.43927 0.0
H67 H 0.7072 0.30771 0.48948 0.0
H68 H 0.56602 0.1989 0.62064 0.0
C69 C 0.52767 0.24686 0.58408 0.0
O70 O 0.54322 0.24879 0.49776 0.0
H71 H 0.45726 0.22315 0.60398 0.0
C72 C 0.73764 0.1072 0.43897 0.0
C73 C 0.75715 0.19085 0.46355 0.0
C74 C 0.65352 0.07209 0.4277 0.0
C75 C 0.58557 0.12021 0.4454 0.0
C76 C 0.6055 0.20578 0.46863 0.0
C77 C 0.69189 0.24301 0.47111 0.0
H78 H 0.37605 0.73611 1.03892 0.0
H79 H 0.33398 0.50383 0.25536 0.0
H80 H 0.54923 0.71767 0.23853 0.0
H81 H 0.60006 0.57437 0.30403 0.0
C82 C 0.54479 0.53488 0.35022 0.0
O83 O 0.46788 0.56948 0.33357 0.0
H84 H 0.53686 0.4628 0.34177 0.0
C85 C 0.39712 0.69816 0.09642 0.0
C86 C 0.47178 0.73803 0.13128 0.0
C87 C 0.34596 0.61198 0.1404 0.0
C88 C 0.37293 0.56708 0.21897 0.0
C89 C 0.44698 0.60559 0.25344 0.0
C90 C 0.49441 0.68922 0.20903 0.0
H91 H 0.16429 0.24066 0.79706 0.0
H92 H 0.13519 0.51604 0.68326 0.0
H93 H 0.21201 0.34285 0.52392 0.0
H94 H 0.19773 0.64125 0.56091 0.0
C95 C 0.24008 0.59628 0.5382 0.0
O96 O 0.1896 0.51391 0.5321 0.0
H97 H 0.27333 0.63324 0.47515 0.0
C98 C 0.1742 0.29701 0.74152 0.0
C99 C 0.19041 0.28083 0.65954 0.0
C100 C 0.15525 0.38268 0.74967 0.0
C101 C 0.15221 0.45023 0.67712 0.0
C102 C 0.17748 0.43885 0.59698 0.0
C103 C 0.19863 0.35421 0.58748 0.0
Co104 Co 1.022 0.07799 0.59247 0.0
C105 C 1.00742 0.90614 0.56434 0.0
Co106 Co 0.13459 1.01897 0.62736 0.0
C107 C 0.90225 0.16309 0.49478 0.0
C108 C 0.90104 0.19332 0.61862 0.0
N109 N 0.93897 0.14685 0.56741 0.0
N110 N 0.83596 0.2099 0.50096 0.0
C111 C 0.83751 0.2323 0.57783 0.0
H112 H 0.91825 0.13267 0.44164 0.0
H113 H 0.91506 0.19396 0.68337 0.0
C114 C 0.15643 0.19019 0.64697 0.0
N115 N 0.22066 0.95185 0.65467 0.0
C116 C 0.3006 0.96836 0.61324 0.0
C117 C 0.21737 0.87279 0.71291 0.0
N118 N 0.34856 0.90422 0.64384 0.0
C119 C 0.29683 0.84434 0.70742 0.0
C120 C 0.1506 0.10774 0.45299 0.0
O121 O 0.07924 0.17836 0.62821 0.0
O122 O 0.20026 0.12546 0.65178 0.0
O123 O 0.18777 0.05635 0.50719 0.0
O124 O 0.07922 0.12812 0.47903 0.0
O125 O 0.07449 0.91372 0.60317 0.0
H126 H 0.16197 0.83979 0.75815 0.0
H127 H 0.32629 0.0307 0.56621 0.0
O128 O 0.96516 0.97333 0.5508 0.0
O129 O 0.95985 0.03014 0.7069 0.0
O130 O 0.07892 0.98356 0.74643 0.0
C131 C 1.00096 0.99464 0.76692 0.0
H132 H 0.7886 0.26303 0.60749 0.0
H133 H 0.31783 0.78984 0.75234 0.0
Co134 Co 0.58666 1.01355 1.01317 0.0
C135 C 0.52297 0.83457 0.09954 0.0
Co136 Co 0.62673 0.99012 0.13958 0.0
C137 C 0.59058 1.01045 0.83981 0.0
C138 C 0.52735 0.11819 0.87006 0.0
N139 N 0.56564 0.0471 0.90453 0.0
N140 N 0.56823 0.05448 0.76523 0.0
C141 C 0.52646 0.12121 0.78507 0.0
H142 H 0.61827 0.94771 0.8485 0.0
H143 H 0.49869 0.1625 0.90497 0.0
C144 C 0.68866 0.16672 1.05974 0.0
N145 N 0.64507 0.96629 0.25212 0.0
C146 C 0.61598 1.0184 0.30313 0.0
C147 C 0.69186 0.91169 0.30016 0.0
N148 N 0.64234 1.00068 0.38082 0.0
C149 C 0.69204 0.93441 0.37893 0.0
C150 C 0.75556 0.95894 1.01973 0.0
O151 O 0.64698 0.13724 1.00291 0.0
O152 O 0.68804 0.11211 0.13043 0.0
O153 O 0.73908 0.9537 0.10019 0.0
O154 O 0.69649 0.98029 0.97284 0.0
O155 O 0.56729 0.8685 0.15244 0.0
H156 H 0.72976 0.86551 0.27709 0.0
H157 H 0.58725 0.07891 0.28021 0.0
O158 O 0.52281 0.88558 1.0255 0.0
O159 O 0.47753 0.04907 1.04779 0.0
O160 O 0.51491 0.02566 0.17555 0.0
C161 C 0.45971 0.04972 0.12527 0.0
H162 H 0.48868 0.16279 0.74479 0.0
H163 H 0.73502 0.91289 0.42625 0.0
Co164 Co 0.66631 0.50459 0.58089 0.0
C165 C 0.56998 0.53507 0.44048 0.0
Co166 Co 0.53398 0.51497 0.62054 0.0
C167 C 0.84021 0.55865 0.58515 0.0
C168 C 0.82095 0.48286 0.48688 0.0
N169 N 0.78041 0.50233 0.55541 0.0
N170 N 0.91394 0.58252 0.53371 0.0
C171 C 0.9036 0.53166 0.47387 0.0
H172 H 0.82528 0.59336 0.63551 0.0
H173 H 0.78929 0.44898 0.44155 0.0
C174 C 0.63264 0.48439 0.76094 0.0
N175 N 0.42194 0.52787 0.6474 0.0
C176 C 0.36357 0.52329 0.59054 0.0
C177 C 0.39453 0.58326 0.69632 0.0
N178 N 0.30555 0.57884 0.597 0.0
C179 C 0.32216 0.61493 0.66497 0.0
C180 C 0.5562 0.34033 0.60235 0.0
O181 O 0.69001 0.48821 0.70046 0.0
O182 O 0.55523 0.49014 0.74188 0.0
O183 O 0.49999 0.38726 0.62272 0.0
O184 O 0.63629 0.37576 0.59156 0.0
O185 O 0.51482 0.54103 0.49931 0.0
H186 H 0.43081 0.60836 0.74405 0.0
H187 H 0.3669 0.48563 0.54025 0.0
O188 O 0.64463 0.52012 0.46094 0.0
O189 O 0.6955 0.63524 0.56607 0.0
O190 O 0.56459 0.6411 0.61557 0.0
C191 C 0.64041 0.68141 0.58789 0.0
H192 H 0.94701 0.53984 0.41718 0.0
H193 H 0.2869 0.66339 0.68721 0.0
Co194 Co 0.12632 0.48536 1.04933 0.0
C195 C 0.93568 0.41419 0.10206 0.0
Co196 Co 1.06761 0.49565 0.1734 0.0
C197 C 0.16884 0.41398 0.89448 0.0
C198 C 1.06446 0.49083 0.89448 0.0
N199 N 0.13226 0.46865 0.93839 0.0
N200 N 0.1232 0.39958 0.82851 0.0
C201 C 1.0557 0.44452 0.83195 0.0
H202 H 0.22671 0.38524 0.91034 0.0
H203 H 1.01737 0.53162 0.91115 0.0
C204 C 0.25803 0.57307 0.11448 0.0
N205 N 1.05572 0.52253 0.28317 0.0
C206 C 1.0638 0.61375 0.28404 0.0
C207 C 0.11668 0.49421 0.33405 0.0
N208 N 0.13606 0.64479 0.31723 0.0
C209 C 0.1701 0.56955 0.34805 0.0
C210 C 0.14557 0.33493 0.17634 0.0
O211 O 0.24807 0.54592 1.04497 0.0
O212 O 0.19119 0.55777 0.16853 0.0
O213 O 0.10247 0.37895 0.21902 0.0
O214 O 0.16158 0.36627 0.09584 0.0
O215 O 0.94393 0.43535 0.17467 0.0
H216 H 0.13437 0.42639 0.34503 0.0
H217 H 1.02357 0.65979 0.25184 0.0
O218 O 1.00462 0.42603 1.05264 0.0
O219 O 0.0946 0.60371 1.00493 0.0
O220 O 1.02984 0.60717 0.12652 0.0
C221 C 1.04803 0.64243 1.04875 0.0
H222 H 1.00779 0.45067 0.78634 0.0
H223 H 0.23351 0.56944 0.37034 0.0
loop_
_geom_bond_atom_site_label_1
_geom_bond_atom_site_label_2
_geom_bond_distance
_geom_bond_site_symmetry_2
_ccdc_geom_bond_type
H0 C7 0.929 . S
H1 C10 0.930 . S
H2 C12 0.929 . S
H3 C4 0.969 1_565 S
C4 H3 0.969 1_545 S
C4 O5 1.550 . S
C4 H6 0.975 . S
O5 C4 1.550 . S
O5 C11 1.412 . S
H6 C4 0.975 . S
C7 H0 0.929 . S
C7 C8 1.400 . S
C7 C9 1.364 . S
C8 C7 1.400 . S
C8 C12 1.377 . S
C9 C7 1.364 . S
C9 C10 1.374 . S
C10 H1 0.930 . S
C10 C9 1.374 . S
C10 C11 1.383 . S
C11 O5 1.412 . S
C11 C10 1.383 . S
C11 C12 1.394 . S
C12 H2 0.929 . S
C12 C8 1.377 . S
C12 C11 1.394 . S
H13 C20 0.929 . S
H14 C23 0.930 . S
H15 C25 0.929 . S
H16 C17 0.969 . S
C17 H16 0.969 . S
C17 O18 1.550 . S
C17 H19 0.973 . S
O18 C17 1.550 . S
O18 C24 1.412 . S
H19 C17 0.973 . S
C20 H13 0.929 . S
C20 C21 1.400 . S
C20 C22 1.364 . S
C21 C20 1.400 . S
C21 C25 1.377 . S
C22 C20 1.364 . S
C22 C23 1.374 . S
C23 H14 0.930 . S
C23 C22 1.374 . S
C23 C24 1.383 . S
C24 O18 1.412 . S
C24 C23 1.383 . S
C24 C25 1.394 . S
C25 H15 0.929 . S
C25 C21 1.377 . S
C25 C24 1.394 . S
H26 C33 0.929 1_554 S
H27 C36 0.930 . S
H28 C38 0.929 . S
H29 C30 0.969 . S
C30 H29 0.969 . S
C30 O31 1.550 . S
C30 H32 0.973 . S
O31 C30 1.550 . S
O31 C37 1.412 . S
H32 C30 0.973 . S
C33 H26 0.929 1_556 S
C33 C34 1.400 . S
C33 C35 1.364 . S
C34 C33 1.400 . S
C34 C38 1.377 . S
C35 C33 1.364 . S
C35 C36 1.374 . S
C36 H27 0.930 . S
C36 C35 1.374 . S
C36 C37 1.383 . S
C37 O31 1.412 . S
C37 C36 1.383 . S
C37 C38 1.394 . S
C38 H28 0.929 . S
C38 C34 1.377 . S
C38 C37 1.394 . S
H39 C46 0.929 . S
H40 C49 0.930 . S
H41 C51 0.929 . S
H42 C43 0.969 . S
C43 H42 0.969 . S
C43 O44 1.550 1_655 S
C43 H45 0.973 . S
O44 C43 1.550 1_455 S
O44 C50 1.412 1_455 S
H45 C43 0.973 . S
C46 H39 0.929 . S
C46 C47 1.400 . S
C46 C48 1.364 . S
C47 C46 1.400 . S
C47 C51 1.377 1_655 S
C48 C46 1.364 . S
C48 C49 1.374 . S
C49 H40 0.930 . S
C49 C48 1.374 . S
C49 C50 1.383 . S
C50 O44 1.412 1_655 S
C50 C49 1.383 . S
C50 C51 1.394 1_655 S
C51 H41 0.929 . S
C51 C47 1.377 1_455 S
C51 C50 1.394 1_455 S
H52 C59 0.929 1_545 S
H53 C62 0.930 . S
H54 C64 0.929 . S
H55 C56 0.969 . S
C56 H55 0.969 . S
C56 O57 1.550 . S
C56 H58 0.973 1_556 S
O57 C56 1.550 . S
O57 C63 1.412 . S
H58 C56 0.973 1_554 S
C59 H52 0.929 1_565 S
C59 C60 1.400 . S
C59 C61 1.364 . S
C60 C59 1.400 . S
C60 C64 1.377 . S
C61 C59 1.364 . S
C61 C62 1.374 . S
C62 H53 0.930 . S
C62 C61 1.374 . S
C62 C63 1.383 . S
C63 O57 1.412 . S
C63 C62 1.383 . S
C63 C64 1.394 . S
C64 H54 0.929 . S
C64 C60 1.377 . S
C64 C63 1.394 . S
H65 C72 0.929 . S
H66 C75 0.930 . S
H67 C77 0.929 . S
H68 C69 0.969 . S
C69 H68 0.969 . S
C69 O70 1.550 . S
C69 H71 0.973 . S
O70 C69 1.550 . S
O70 C76 1.412 . S
H71 C69 0.973 . S
C72 H65 0.929 . S
C72 C73 1.400 . S
C72 C74 1.364 . S
C73 C72 1.400 . S
C73 C77 1.377 . S
C74 C72 1.364 . S
C74 C75 1.374 . S
C75 H66 0.930 . S
C75 C74 1.374 . S
C75 C76 1.383 . S
C76 O70 1.412 . S
C76 C75 1.383 . S
C76 C77 1.394 . S
C77 H67 0.929 . S
C77 C73 1.377 . S
C77 C76 1.394 . S
H78 C85 0.929 1_556 S
H79 C88 0.930 . S
H80 C90 0.929 . S
H81 C82 0.969 . S
C82 H81 0.969 . S
C82 O83 1.550 . S
C82 H84 0.973 . S
O83 C82 1.550 . S
O83 C89 1.412 . S
H84 C82 0.973 . S
C85 H78 0.929 1_554 S
C85 C86 1.400 . S
C85 C87 1.364 . S
C86 C85 1.400 . S
C86 C90 1.377 . S
C87 C85 1.364 . S
C87 C88 1.374 . S
C88 H79 0.930 . S
C88 C87 1.374 . S
C88 C89 1.383 . S
C89 O83 1.412 . S
C89 C88 1.383 . S
C89 C90 1.394 . S
C90 H80 0.929 . S
C90 C86 1.377 . S
C90 C89 1.394 . S
H91 C98 0.929 . S
H92 C101 0.930 . S
H93 C103 0.929 . S
H94 C95 0.969 . S
C95 H94 0.969 . S
C95 O96 1.550 . S
C95 H97 0.973 . S
O96 C95 1.550 . S
O96 C102 1.412 . S
H97 C95 0.973 . S
C98 H91 0.929 . S
C98 C99 1.400 1_655 S
C98 C100 1.364 1_655 S
C99 C98 1.400 1_455 S
C99 C103 1.376 . S
C100 C98 1.364 1_455 S
C100 C101 1.374 . S
C101 H92 0.930 . S
C101 C100 1.374 . S
C101 C102 1.383 . S
C102 O96 1.412 . S
C102 C101 1.383 . S
C102 C103 1.394 . S
C103 H93 0.929 . S
C103 C99 1.376 . S
C103 C102 1.394 . S
Co104 N109 2.057 . S
Co104 O121 2.021 . S
Co104 O124 2.062 . S
Co104 O128 2.117 1_545 S
Co104 O129 2.020 1_545 S
C105 O125 1.259 1_655 S
C105 O128 1.258 . S
Co106 N115 2.057 . S
Co106 O122 2.117 1_565 S
Co106 O123 2.020 1_565 S
Co106 O125 2.021 . S
Co106 O130 2.062 . S
C107 N109 1.316 . S
C107 N110 1.347 . S
C107 H112 0.931 . S
C108 N109 1.375 1_565 S
C108 C111 1.350 . S
C108 H113 0.930 . S
N109 Co104 2.057 . S
N109 C107 1.316 . S
N109 C108 1.375 1_545 S
N110 C107 1.347 . S
N110 C111 1.373 1_545 S
C111 C108 1.350 . S
C111 N110 1.373 1_565 S
C111 H132 0.931 . S
H112 C107 0.931 . S
H113 C108 0.930 . S
C114 O121 1.259 1_455 S
C114 O122 1.258 . S
N115 Co106 2.057 . S
N115 C116 1.316 . S
N115 C117 1.375 1_565 S
C116 N115 1.316 . S
C116 N118 1.347 . S
C116 H127 0.931 . S
C117 N115 1.375 1_545 S
C117 C119 1.350 . S
C117 H126 0.930 . S
N118 C116 1.347 . S
N118 C119 1.373 1_565 S
C119 C117 1.350 . S
C119 N118 1.373 1_545 S
C119 H133 0.931 . S
C120 O123 1.256 . S
C120 O124 1.255 1_455 S
O121 Co104 2.021 . S
O121 C114 1.259 1_655 S
O122 Co106 2.117 1_545 S
O122 C114 1.258 . S
O123 Co106 2.020 1_545 S
O123 C120 1.256 . S
O124 Co104 2.062 . S
O124 C120 1.255 1_655 S
O125 C105 1.259 1_455 S
O125 Co106 2.021 . S
H126 C117 0.930 . S
H127 C116 0.931 . S
O128 Co104 2.117 1_565 S
O128 C105 1.258 . S
O129 Co104 2.020 1_565 S
O129 C131 1.256 . S
O130 Co106 2.062 . S
O130 C131 1.255 1_455 S
C131 O129 1.256 . S
C131 O130 1.255 1_655 S
H132 C111 0.931 . S
H133 C119 0.931 . S
Co134 N139 2.057 1_545 S
Co134 O151 2.021 . S
Co134 O154 2.061 1_545 S
Co134 O158 2.116 1_546 S
Co134 O159 2.020 . S
C135 O155 1.259 . S
C135 O158 1.258 . S
Co136 N145 2.057 . S
Co136 O152 2.117 . S
Co136 O153 2.020 1_545 S
Co136 O155 2.021 1_545 S
Co136 O160 2.062 . S
C137 N139 1.316 . S
C137 N140 1.347 . S
C137 H142 0.931 1_565 S
C138 N139 1.375 . S
C138 C141 1.350 . S
C138 H143 0.930 . S
N139 Co134 2.057 1_565 S
N139 C137 1.316 . S
N139 C138 1.375 . S
N140 C137 1.347 . S
N140 C141 1.373 . S
C141 C138 1.350 . S
C141 N140 1.373 . S
C141 H162 0.931 . S
H142 C137 0.931 1_545 S
H143 C138 0.930 . S
C144 O151 1.259 . S
C144 O152 1.258 1_556 S
N145 Co136 2.057 . S
N145 C146 1.316 . S
N145 C147 1.375 . S
C146 N145 1.316 . S
C146 N148 1.347 . S
C146 H157 0.931 1_545 S
C147 N145 1.375 . S
C147 C149 1.350 . S
C147 H156 0.930 . S
N148 C146 1.347 . S
N148 C149 1.373 . S
C149 C147 1.350 . S
C149 N148 1.373 . S
C149 H163 0.931 . S
C150 O153 1.256 1_556 S
C150 O154 1.255 . S
O151 Co134 2.021 . S
O151 C144 1.259 . S
O152 Co136 2.117 . S
O152 C144 1.258 1_554 S
O153 Co136 2.020 1_565 S
O153 C150 1.256 1_554 S
O154 Co134 2.061 1_565 S
O154 C150 1.255 . S
O155 C135 1.259 . S
O155 Co136 2.021 1_565 S
H156 C147 0.930 . S
H157 C146 0.931 1_565 S
O158 Co134 2.116 1_564 S
O158 C135 1.258 . S
O159 Co134 2.020 . S
O159 C161 1.256 1_556 S
O160 Co136 2.062 . S
O160 C161 1.255 . S
C161 O159 1.256 1_554 S
C161 O160 1.255 . S
H162 C141 0.931 . S
H163 C149 0.931 . S
Co164 N169 2.057 . S
Co164 O181 2.021 . S
Co164 O184 2.062 . S
Co164 O188 2.117 . S
Co164 O189 2.020 . S
C165 O185 1.259 . S
C165 O188 1.258 . S
Co166 N175 2.057 . S
Co166 O182 2.117 . S
Co166 O183 2.020 . S
Co166 O185 2.021 . S
Co166 O190 2.062 . S
C167 N169 1.316 . S
C167 N170 1.347 . S
C167 H172 0.931 . S
C168 N169 1.375 . S
C168 C171 1.350 . S
C168 H173 0.930 . S
N169 Co164 2.057 . S
N169 C167 1.316 . S
N169 C168 1.375 . S
N170 C167 1.347 . S
N170 C171 1.373 . S
C171 C168 1.350 . S
C171 N170 1.373 . S
C171 H192 0.931 . S
H172 C167 0.931 . S
H173 C168 0.930 . S
C174 O181 1.259 . S
C174 O182 1.258 . S
N175 Co166 2.057 . S
N175 C176 1.316 . S
N175 C177 1.375 . S
C176 N175 1.316 . S
C176 N178 1.347 . S
C176 H187 0.931 . S
C177 N175 1.375 . S
C177 C179 1.350 . S
C177 H186 0.930 . S
N178 C176 1.347 . S
N178 C179 1.373 . S
C179 C177 1.350 . S
C179 N178 1.373 . S
C179 H193 0.931 . S
C180 O183 1.256 . S
C180 O184 1.255 . S
O181 Co164 2.021 . S
O181 C174 1.259 . S
O182 Co166 2.117 . S
O182 C174 1.258 . S
O183 Co166 2.020 . S
O183 C180 1.256 . S
O184 Co164 2.062 . S
O184 C180 1.255 . S
O185 C165 1.259 . S
O185 Co166 2.021 . S
H186 C177 0.930 . S
H187 C176 0.931 . S
O188 Co164 2.117 . S
O188 C165 1.258 . S
O189 Co164 2.020 . S
O189 C191 1.256 . S
O190 Co166 2.062 . S
O190 C191 1.255 . S
C191 O189 1.256 . S
C191 O190 1.255 . S
H192 C171 0.931 . S
H193 C179 0.931 . S
Co194 N199 2.057 . S
Co194 O211 2.021 . S
Co194 O214 2.062 1_556 S
Co194 O218 2.117 1_455 S
Co194 O219 2.020 . S
C195 O215 1.259 . S
C195 O218 1.258 1_554 S
Co196 N205 2.057 . S
Co196 O212 2.117 . S
Co196 O213 2.020 . S
Co196 O215 2.021 1_455 S
Co196 O220 2.062 1_455 S
C197 N199 1.316 . S
C197 N200 1.347 . S
C197 H202 0.931 . S
C198 N199 1.375 1_655 S
C198 C201 1.350 1_655 S
C198 H203 0.930 . S
N199 Co194 2.057 . S
N199 C197 1.316 . S
N199 C198 1.375 1_455 S
N200 C197 1.347 . S
N200 C201 1.373 . S
C201 C198 1.350 1_455 S
C201 N200 1.373 . S
C201 H222 0.931 1_455 S
H202 C197 0.931 . S
H203 C198 0.930 . S
C204 O211 1.259 1_554 S
C204 O212 1.258 . S
N205 Co196 2.057 . S
N205 C206 1.316 1_455 S
N205 C207 1.375 . S
C206 N205 1.316 1_655 S
C206 N208 1.347 . S
C206 H217 0.931 . S
C207 N205 1.375 . S
C207 C209 1.350 . S
C207 H216 0.930 . S
N208 C206 1.347 . S
N208 C209 1.373 1_655 S
C209 C207 1.350 . S
C209 N208 1.373 1_455 S
C209 H223 0.931 . S
C210 O213 1.256 . S
C210 O214 1.255 . S
O211 Co194 2.021 . S
O211 C204 1.259 1_556 S
O212 Co196 2.117 . S
O212 C204 1.258 . S
O213 Co196 2.020 . S
O213 C210 1.256 . S
O214 Co194 2.062 1_554 S
O214 C210 1.255 . S
O215 C195 1.259 . S
O215 Co196 2.021 1_655 S
H216 C207 0.930 . S
H217 C206 0.931 . S
O218 Co194 2.117 1_655 S
O218 C195 1.258 1_556 S
O219 Co194 2.020 . S
O219 C221 1.256 1_455 S
O220 Co196 2.062 1_655 S
O220 C221 1.255 1_554 S
C221 O219 1.256 1_655 S
C221 O220 1.255 1_556 S
H222 C201 0.931 1_655 S
H223 C209 0.931 . S
C9 C120 3.229 . S
C21 N140 0.902 . S
C174 C30 2.214 . S
C43 N208 0.911 . S
C161 C4 2.926 . S
N118 C22 1.616 . S
C195 C34 2.268 1_554 S
N170 C48 1.457 . S
C8 C210 2.176 . S
C144 C35 2.268 . S
C47 C105 1.444 . S
C17 C191 1.478 . S
C131 C60 2.938 . S
C74 N148 1.325 . S
C82 C165 2.185 . S
C100 N200 1.862 . S
C61 C150 3.414 . S
N110 C73 0.915 . S
C204 C87 2.807 . S
N178 C95 0.635 . S
C56 C221 2.266 . S
C135 C86 2.449 . S
C114 C99 1.723 . S
C69 C180 1.663 . S
