# Generated by pormake.
# Topology sit, (3,6)-cn, num edge types: 1
# Building blocks:
#     Node 0, Type 0, BuildingBlock: ESEHIV_clean_linker_0, # of connection points: 3
#     Node 1, Type 0, BuildingBlock: ESEHIV_clean_linker_0, # of connection points: 3
#     Node 2, Type 0, BuildingBlock: ESEHIV_clean_linker_0, # of connection points: 3
#     Node 3, Type 0, BuildingBlock: ESEHIV_clean_linker_0, # of connection points: 3
#     Node 4, Type 1, BuildingBlock: MIDCAF_clean_sbu_0, # of connection points: 6
#     Node 5, Type 1, BuildingBlock: MIDCAF_clean_sbu_0, # of connection points: 6
#     Edge 6, Type (0, 1), BuildingBlock: OJICUG_clean_linker_0, # of connection points: 2
#     Edge 7, Type (0, 1), BuildingBlock: OJICUG_clean_linker_0, # of connection points: 2
#     Edge 8, Type (0, 1), BuildingBlock: OJICUG_clean_linker_0, # of connection points: 2
#     Edge 9, Type (0, 1), BuildingBlock: OJICUG_clean_linker_0, # of connection points: 2
#     Edge 10, Type (0, 1), BuildingBlock: OJICUG_clean_linker_0, # of connection points: 2
#     Edge 11, Type (0, 1), BuildingBlock: OJICUG_clean_linker_0, # of connection points: 2
#     Edge 12, Type (0, 1), BuildingBlock: OJICUG_clean_linker_0, # of connection points: 2
#     Edge 13, Type (0, 1), BuildingBlock: OJICUG_clean_linker_0, # of connection points: 2
#     Edge 14, Type (0, 1), BuildingBlock: OJICUG_clean_linker_0, # of connection points: 2
#     Edge 15, Type (0, 1), BuildingBlock: OJICUG_clean_linker_0, # of connection points: 2
#     Edge 16, Type (0, 1), BuildingBlock: OJICUG_clean_linker_0, # of connection points: 2
#     Edge 17, Type (0, 1), BuildingBlock: OJICUG_clean_linker_0, # of connection points: 2
# Relax obj value: 0.110
# Max RMSD: 0.194
# Mean RMSD: 0.106
data_MOF--net-sit--node1-MIDCAF_clean_sbu_0--node2-ESEHIV_clean_linker_0--edge1-OJICUG_clean_linker_0
_symmetry_space_group_name_H-M    P1
_symmetry_Int_Tables_number       1
_symmetry_cell_setting            triclinic
loop_
_symmetry_equiv_pos_as_xyz
'x, y, z'
_cell_length_a     17.24644
_cell_length_b     17.270594
_cell_length_c     25.377473
_cell_angle_alpha  90.004328
_cell_angle_beta   89.910806
_cell_angle_gamma 83.721651
loop_
_atom_site_label
_atom_site_type_symbol
_atom_site_fract_x
_atom_site_fract_y
_atom_site_fract_z
_atom_type_partial_charge
H0 H 0.03422 0.56326 0.93436 0.0
H1 H 0.15964 0.42047 0.05324 0.0
H2 H 0.91195 0.4222 0.03702 0.0
C3 C 0.03632 0.52188 -0.03351 0.0
C4 C -0.03309 0.49376 -0.01784 0.0
C5 C 0.10727 0.49615 -0.00837 0.0
C6 C 0.10602 0.44331 0.03401 0.0
C7 C 0.03579 0.41727 0.05118 0.0
C8 C -0.03349 0.44236 0.02463 0.0
H9 H 0.00876 0.75466 0.90092 0.0
H10 H 0.87221 0.9045 0.00989 0.0
H11 H 0.11952 0.91638 -0.00602 0.0
C12 C 0.00382 0.80076 0.9301 0.0
C13 C 0.07111 0.83238 0.94592 0.0
C14 C -0.06897 0.82782 0.95201 0.0
C15 C 0.92771 0.88512 -0.00816 0.0
C16 C -0.00442 0.91671 0.00876 0.0
C17 C 0.0667 0.89112 -0.01606 0.0
H18 H 0.48342 0.99283 0.40178 0.0
H19 H 0.6201 0.84254 0.51008 0.0
H20 H 0.37289 0.83015 0.49442 0.0
C21 C 0.48839 0.94658 0.43084 0.0
C22 C 0.42116 0.91466 0.44661 0.0
C23 C 0.56116 0.91953 0.45259 0.0
C24 C 0.56457 0.86192 0.49218 0.0
C25 C 0.4968 0.82995 0.50902 0.0
C26 C 0.42564 0.85562 0.48441 0.0
H27 H 0.45785 0.18306 0.43452 0.0
H28 H 0.3324 0.32615 0.55355 0.0
H29 H 0.58035 0.32301 0.53756 0.0
C30 C 0.45577 0.22434 0.46673 0.0
C31 C 0.52531 0.25194 0.48254 0.0
C32 C 0.38477 0.25039 0.49183 0.0
C33 C 0.38605 0.30306 0.53432 0.0
C34 C 0.45637 0.32866 0.55157 0.0
C35 C 0.52572 0.30318 0.52509 0.0
Zn36 Zn -0.04097 0.26551 0.35473 0.0
Zn37 Zn -0.01875 0.97013 0.3109 0.0
Zn38 Zn -0.02737 0.12065 0.32547 0.0
C39 C -0.02993 1.04435 0.21209 0.0
C40 C 0.85019 1.00304 0.36871 0.0
O41 O 0.07237 0.14505 0.37447 0.0
O42 O 0.03658 0.2583 0.41307 0.0
C43 C -0.00464 0.25627 0.24573 0.0
O44 O -0.02239 1.10579 0.23941 0.0
O45 O -0.03518 0.97978 0.23431 0.0
O46 O 0.89387 0.94316 0.35496 0.0
O47 O 0.86916 1.07172 0.35873 0.0
O48 O -0.00504 0.30079 0.28526 0.0
O49 O -0.01944 0.18525 0.25132 0.0
O50 O 0.86014 0.15226 0.36564 0.0
O51 O 0.84632 0.28098 0.37117 0.0
C52 C 0.81905 0.21678 0.37733 0.0
O53 O 0.08122 1.0654 0.36071 0.0
O54 O 0.08966 0.94242 0.33467 0.0
C55 C 0.08551 0.19905 0.40725 0.0
C56 C 0.11878 0.99692 0.35788 0.0
Zn57 Zn 0.51174 0.77597 0.81033 0.0
Zn58 Zn 0.53316 0.4812 0.85483 0.0
Zn59 Zn 0.52019 0.62578 0.82536 0.0
C60 C 0.49707 0.4899 0.74592 0.0
C61 C 0.40686 0.54808 0.90744 0.0
O62 O 0.62367 0.67475 0.85846 0.0
O63 O 0.59863 0.80326 0.85453 0.0
C64 C 0.52338 0.70135 0.71176 0.0
O65 O 0.51225 0.56083 0.75136 0.0
O66 O 0.4971 0.44561 0.78554 0.0
O67 O 0.45565 0.48877 0.91335 0.0
O68 O 0.42024 0.60184 0.87453 0.0
O69 O 0.52898 0.76598 0.7338 0.0
O70 O 0.51535 0.6402 0.73927 0.0
O71 O 0.41156 0.68135 0.86052 0.0
O72 O 0.40305 0.80397 0.83375 0.0
C73 C 0.37391 0.74973 0.8573 0.0
O74 O 0.6326 0.59417 0.86547 0.0
O75 O 0.64585 0.46547 0.87102 0.0
C76 C 0.6424 0.74354 0.86836 0.0
C77 C 0.67342 0.52952 0.87712 0.0
C78 C 0.0716 0.38817 0.14464 0.0
C79 C 0.03371 0.36766 0.0987 0.0
H80 H 0.08916 0.3684 0.22695 0.0
C81 C -0.01116 0.30422 0.10015 0.0
H82 H 0.10607 0.43699 0.14485 0.0
C83 C -0.0207 0.26442 0.14744 0.0
C84 C 0.01363 0.28834 0.19391 0.0
H85 H -0.04046 0.28678 0.06507 0.0
H86 H -0.058 0.21794 0.14819 0.0
C87 C 0.06137 0.34921 0.19173 0.0
C88 C 0.92516 1.01678 0.07058 0.0
C89 C -0.0061 0.97007 0.05534 0.0
H90 H 0.86328 1.07926 0.13387 0.0
C91 C 0.05932 0.96762 0.08881 0.0
H92 H 0.87431 1.02304 0.0454 0.0
C93 C 0.05388 1.00396 0.13776 0.0
C94 C -0.01732 1.04177 0.15521 0.0
H95 H 0.11323 0.93199 0.0799 0.0
H96 H 0.1031 0.99476 0.16443 0.0
C97 C 0.91914 1.05107 0.12067 0.0
C98 C 0.56768 0.72952 0.57021 0.0
C99 C 0.4987 0.77601 0.55531 0.0
H100 H 0.63005 0.66711 0.63318 0.0
C101 C 0.43333 0.77774 0.5889 0.0
H102 H 0.6185 0.72371 0.54489 0.0
C103 C 0.43907 0.74111 0.63774 0.0
C104 C 0.51053 0.70373 0.65493 0.0
H105 H 0.37921 0.8131 0.58022 0.0
H106 H 0.38988 0.74984 0.66456 0.0
C107 C 0.57401 0.69499 0.62019 0.0
C108 C 0.42044 0.35805 0.64507 0.0
C109 C 0.45847 0.37835 0.59905 0.0
H110 H 0.4029 0.37801 0.7274 0.0
C111 C 0.50356 0.44161 0.60038 0.0
H112 H 0.38579 0.30937 0.64536 0.0
C113 C 0.5132 0.48144 0.64762 0.0
C114 C 0.47876 0.45773 0.69417 0.0
H115 H 0.53296 0.45887 0.56523 0.0
H116 H 0.55066 0.5278 0.64826 0.0
C117 C 0.43079 0.39703 0.69212 0.0
C118 C 0.24785 0.52092 0.00528 0.0
C119 C 0.18266 0.52044 -0.02823 0.0
H120 H 0.37105 0.52869 0.01084 0.0
C121 C 0.19175 0.5387 0.91809 0.0
H122 H 0.24334 0.5102 0.04711 0.0
C123 C 0.26404 0.55366 0.89831 0.0
C124 C 0.32944 0.54816 0.93118 0.0
H125 H 0.14444 0.5377 0.89029 0.0
H126 H 0.26985 0.5646 0.8565 0.0
C127 C 0.32095 0.53279 -0.01511 0.0
C128 C 0.85191 0.77944 0.87828 0.0
C129 C 0.85869 0.79795 0.93205 0.0
H130 H 0.77786 0.74561 0.81655 0.0
C131 C 0.79449 0.79123 -0.03446 0.0
H132 H 0.89907 0.78526 0.85087 0.0
C133 C 0.72426 0.77083 0.94517 0.0
C134 C 0.71802 0.75409 0.89148 0.0
H135 H 0.79783 0.80292 0.00732 0.0
H136 H 0.67454 0.76912 -0.02887 0.0
C137 C 0.78243 0.75711 0.85835 0.0
C138 C 0.88548 0.47147 0.90477 0.0
C139 C 0.89537 0.51239 0.95152 0.0
H140 H 0.80577 0.44498 0.84437 0.0
C141 C 0.83389 0.5639 -0.02853 0.0
H142 H -0.06764 0.43083 0.88936 0.0
C143 C 0.76209 0.57257 0.94553 0.0
C144 C 0.75129 0.52931 0.89988 0.0
H145 H 0.84066 0.59512 0.00791 0.0
H146 H 0.71385 0.60957 -0.03734 0.0
C147 C 0.8135 0.47934 0.87932 0.0
C148 C 0.16194 0.82455 0.86991 0.0
C149 C 0.14674 0.80514 0.92218 0.0
H150 H 0.24752 0.82239 0.80855 0.0
C151 C 0.20546 0.76416 0.95261 0.0
H152 H 0.11717 0.85661 0.84615 0.0
C153 C 0.2794 0.74377 0.93104 0.0
C154 C 0.29524 0.7652 0.87919 0.0
H155 H 0.19435 0.74909 -0.00683 0.0
H156 H 0.3248 0.71383 0.95532 0.0
C157 C 0.23611 0.80539 0.84869 0.0
C158 C 0.64044 0.96794 0.37882 0.0
C159 C 0.63348 0.94953 0.4326 0.0
H160 H 0.71483 1.00134 0.317 0.0
C161 C 0.69757 0.95624 0.46605 0.0
H162 H 0.59333 0.96218 0.35146 0.0
C163 C 0.76794 0.9764 0.44562 0.0
C164 C 0.77442 0.99285 0.39189 0.0
H165 H 0.69406 0.94464 0.50784 0.0
H166 H 0.81758 0.97806 0.47154 0.0
C167 C 0.71008 0.98999 0.35882 0.0
C168 C 0.30057 0.20842 0.41812 0.0
C169 C 0.30935 0.22658 0.47183 0.0
H170 H 0.22286 0.18264 0.35643 0.0
C171 C 0.24388 0.2263 0.50525 0.0
H172 H 0.34809 0.20933 0.39037 0.0
C173 C 0.17089 0.21457 0.48476 0.0
C174 C 0.16276 0.19916 0.43104 0.0
H175 H 0.24811 0.23699 0.54709 0.0
H176 H 0.1206 0.21872 0.51066 0.0
C177 C 0.22838 0.1936 0.39824 0.0
C178 C 0.33054 0.92169 0.37072 0.0
C179 C 0.34561 0.94171 0.42286 0.0
H180 H 0.2452 0.92337 0.30943 0.0
C181 C 0.28689 0.98324 0.45313 0.0
H182 H 0.37532 0.88923 0.34709 0.0
C183 C 0.21306 1.00358 0.43152 0.0
C184 C 0.19736 0.98159 0.37979 0.0
H185 H 0.29791 0.99878 0.49359 0.0
H186 H 0.16763 1.03391 0.45568 0.0
C187 C 0.2565 0.94084 0.34946 0.0
C188 C 0.60645 0.27284 0.40457 0.0
C189 C 0.59696 0.23311 0.45189 0.0
H190 H 0.68596 0.29875 0.34371 0.0
C191 C 0.65894 0.18289 0.47235 0.0
H192 H 0.55918 0.31251 0.38874 0.0
C193 C 0.73081 0.17437 0.44637 0.0
C194 C 0.74121 0.21661 0.40019 0.0
H195 H 0.65247 0.15258 0.50921 0.0
H196 H 0.77937 0.1383 0.46381 0.0
C197 C 0.67853 0.26523 0.3791 0.0
loop_
_geom_bond_atom_site_label_1
_geom_bond_atom_site_label_2
_geom_bond_distance
_geom_bond_site_symmetry_2
_ccdc_geom_bond_type
H0 C3 0.931 . S
H1 C6 0.928 . S
H2 C8 0.930 1_655 S
C3 H0 0.931 . S
C3 C4 1.413 . S
C3 C5 1.360 1_556 S
C4 C3 1.413 . S
C4 C8 1.429 1_556 S
C5 C3 1.360 1_554 S
C5 C6 1.372 . S
C6 H1 0.928 . S
C6 C5 1.372 . S
C6 C7 1.404 . S
C7 C6 1.404 . S
C7 C8 1.391 . S
C8 H2 0.930 1_455 S
C8 C4 1.429 1_554 S
C8 C7 1.391 . S
H9 C12 0.931 . S
H10 C15 0.928 . S
H11 C17 0.930 . S
C12 H9 0.931 . S
C12 C13 1.413 1_556 S
C12 C14 1.360 1_456 S
C13 C12 1.413 1_554 S
C13 C17 1.429 . S
C14 C12 1.360 1_654 S
C14 C15 1.372 . S
C15 H10 0.928 . S
C15 C14 1.372 . S
C15 C16 1.404 1_655 S
C16 C15 1.404 1_455 S
C16 C17 1.391 . S
C17 H11 0.930 . S
C17 C13 1.429 . S
C17 C16 1.391 . S
H18 C21 0.931 . S
H19 C24 0.928 . S
H20 C26 0.930 . S
C21 H18 0.931 . S
C21 C22 1.413 . S
C21 C23 1.360 . S
C22 C21 1.413 . S
C22 C26 1.429 . S
C23 C21 1.360 . S
C23 C24 1.372 . S
C24 H19 0.928 . S
C24 C23 1.372 . S
C24 C25 1.404 . S
C25 C24 1.404 . S
C25 C26 1.391 . S
C26 H20 0.930 . S
C26 C22 1.429 . S
C26 C25 1.391 . S
H27 C30 0.931 . S
H28 C33 0.928 . S
H29 C35 0.930 . S
C30 H27 0.931 . S
C30 C31 1.413 . S
C30 C32 1.360 . S
C31 C30 1.413 . S
C31 C35 1.429 . S
C32 C30 1.360 . S
C32 C33 1.372 . S
C33 H28 0.928 . S
C33 C32 1.372 . S
C33 C34 1.404 . S
C34 C33 1.404 . S
C34 C35 1.391 . S
C35 H29 0.930 . S
C35 C31 1.429 . S
C35 C34 1.391 . S
Zn36 O42 1.920 . S
Zn36 O48 1.898 . S
Zn36 O51 1.905 1_455 S
Zn37 O45 1.905 . S
Zn37 O46 1.898 1_455 S
Zn37 O54 1.920 . S
Zn38 O41 2.080 . S
Zn38 O44 2.114 1_545 S
Zn38 O47 2.120 1_545 S
Zn38 O49 2.120 . S
Zn38 O50 2.114 1_455 S
Zn38 O53 2.080 1_545 S
C39 O44 1.166 . S
C39 O45 1.182 . S
C40 O46 1.167 . S
C40 O47 1.299 1_655 S
O41 Zn38 2.080 . S
O41 C55 1.305 . S
O42 Zn36 1.920 . S
O42 C55 1.234 . S
C43 O48 1.167 . S
C43 O49 1.299 . S
O44 Zn38 2.114 1_565 S
O44 C39 1.166 . S
O45 Zn37 1.905 . S
O45 C39 1.182 . S
O46 Zn37 1.898 1_655 S
O46 C40 1.167 . S
O47 Zn38 2.120 1_565 S
O47 C40 1.299 1_455 S
O48 Zn36 1.898 . S
O48 C43 1.167 . S
O49 Zn38 2.120 . S
O49 C43 1.299 . S
O50 Zn38 2.114 1_655 S
O50 C52 1.166 . S
O51 Zn36 1.905 1_655 S
O51 C52 1.182 . S
C52 O50 1.166 . S
C52 O51 1.182 . S
O53 Zn38 2.080 1_565 S
O53 C56 1.305 . S
O54 Zn37 1.920 . S
O54 C56 1.234 . S
C55 O41 1.305 . S
C55 O42 1.234 . S
C56 O53 1.305 . S
C56 O54 1.234 . S
Zn57 O63 1.920 . S
Zn57 O69 1.898 . S
Zn57 O72 1.905 . S
Zn58 O66 1.905 . S
Zn58 O67 1.898 . S
Zn58 O75 1.920 . S
Zn59 O62 2.080 . S
Zn59 O65 2.114 . S
Zn59 O68 2.120 . S
Zn59 O70 2.120 . S
Zn59 O71 2.114 . S
Zn59 O74 2.080 . S
C60 O65 1.166 . S
C60 O66 1.182 . S
C61 O67 1.167 . S
C61 O68 1.299 . S
O62 Zn59 2.080 . S
O62 C76 1.305 . S
O63 Zn57 1.920 . S
O63 C76 1.234 . S
C64 O69 1.167 . S
C64 O70 1.299 . S
O65 Zn59 2.114 . S
O65 C60 1.166 . S
O66 Zn58 1.905 . S
O66 C60 1.182 . S
O67 Zn58 1.898 . S
O67 C61 1.167 . S
O68 Zn59 2.120 . S
O68 C61 1.299 . S
O69 Zn57 1.898 . S
O69 C64 1.167 . S
O70 Zn59 2.120 . S
O70 C64 1.299 . S
O71 Zn59 2.114 . S
O71 C73 1.166 . S
O72 Zn57 1.905 . S
O72 C73 1.182 . S
C73 O71 1.166 . S
C73 O72 1.182 . S
O74 Zn59 2.080 . S
O74 C77 1.305 . S
O75 Zn58 1.920 . S
O75 C77 1.234 . S
C76 O62 1.305 . S
C76 O63 1.234 . S
C77 O74 1.305 . S
C77 O75 1.234 . S
C78 C79 1.387 . S
C78 H82 0.950 . S
C78 C87 1.390 . S
C79 C78 1.387 . S
C79 C81 1.387 . S
H80 C87 0.950 . S
C81 C79 1.387 . S
C81 C83 1.390 . S
C81 H85 0.950 1_455 S
H82 C78 0.950 . S
C83 C81 1.390 . S
C83 C84 1.387 . S
C83 H86 0.950 1_455 S
C84 C83 1.387 . S
C84 C87 1.387 . S
H85 C81 0.950 1_655 S
H86 C83 0.950 1_655 S
C87 C78 1.390 . S
C87 H80 0.950 . S
C87 C84 1.387 . S
C88 C89 1.387 1_655 S
C88 H92 0.950 . S
C88 C97 1.390 . S
C89 C88 1.387 1_455 S
C89 C91 1.387 . S
H90 C97 0.950 . S
C91 C89 1.387 . S
C91 C93 1.390 . S
C91 H95 0.950 . S
H92 C88 0.950 . S
C93 C91 1.390 . S
C93 C94 1.387 . S
C93 H96 0.950 . S
C94 C93 1.387 . S
C94 C97 1.387 1_455 S
H95 C91 0.950 . S
H96 C93 0.950 . S
C97 C88 1.390 . S
C97 H90 0.950 . S
C97 C94 1.387 1_655 S
C98 C99 1.387 . S
C98 H102 0.950 . S
C98 C107 1.390 . S
C99 C98 1.387 . S
C99 C101 1.387 . S
H100 C107 0.950 . S
C101 C99 1.387 . S
C101 C103 1.390 . S
C101 H105 0.950 . S
H102 C98 0.950 . S
C103 C101 1.390 . S
C103 C104 1.387 . S
C103 H106 0.950 . S
C104 C103 1.387 . S
C104 C107 1.387 . S
H105 C101 0.950 . S
H106 C103 0.950 . S
C107 C98 1.390 . S
C107 H100 0.950 . S
C107 C104 1.387 . S
C108 C109 1.387 . S
C108 H112 0.950 . S
C108 C117 1.390 . S
C109 C108 1.387 . S
C109 C111 1.387 . S
H110 C117 0.950 . S
C111 C109 1.387 . S
C111 C113 1.390 . S
C111 H115 0.950 . S
H112 C108 0.950 . S
C113 C111 1.390 . S
C113 C114 1.387 . S
C113 H116 0.950 . S
C114 C113 1.387 . S
C114 C117 1.387 . S
H115 C111 0.950 . S
H116 C113 0.950 . S
C117 C108 1.390 . S
C117 H110 0.950 . S
C117 C114 1.387 . S
C118 C119 1.387 1_554 S
C118 H122 0.950 . S
C118 C127 1.390 . S
C119 C118 1.387 1_556 S
C119 C121 1.387 . S
H120 C127 0.950 . S
C121 C119 1.387 . S
C121 C123 1.390 . S
C121 H125 0.950 . S
H122 C118 0.950 . S
C123 C121 1.390 . S
C123 C124 1.387 . S
C123 H126 0.950 . S
C124 C123 1.387 . S
C124 C127 1.387 1_556 S
H125 C121 0.950 . S
H126 C123 0.950 . S
C127 C118 1.390 . S
C127 H120 0.950 . S
C127 C124 1.387 1_554 S
C128 C129 1.387 . S
C128 H132 0.950 . S
C128 C137 1.390 . S
C129 C128 1.387 . S
C129 C131 1.387 1_556 S
H130 C137 0.950 . S
C131 C129 1.387 1_554 S
C131 C133 1.390 . S
C131 H135 0.950 . S
H132 C128 0.950 . S
C133 C131 1.390 . S
C133 C134 1.387 1_554 S
C133 H136 0.950 . S
C134 C133 1.387 1_556 S
C134 C137 1.387 . S
H135 C131 0.950 . S
H136 C133 0.950 . S
C137 C128 1.390 . S
C137 H130 0.950 . S
C137 C134 1.387 . S
C138 C139 1.387 . S
C138 H142 0.950 . S
C138 C147 1.390 . S
C139 C138 1.387 . S
C139 C141 1.387 1_556 S
H140 C147 0.950 . S
C141 C139 1.387 1_554 S
C141 C143 1.389 1_554 S
C141 H145 0.951 . S
H142 C138 0.950 . S
C143 C141 1.389 1_556 S
C143 C144 1.387 . S
C143 H146 0.950 . S
C144 C143 1.387 . S
C144 C147 1.387 . S
H145 C141 0.951 . S
H146 C143 0.950 . S
C147 C138 1.390 . S
C147 H140 0.950 . S
C147 C144 1.387 . S
C148 C149 1.387 . S
C148 H152 0.950 . S
C148 C157 1.390 . S
C149 C148 1.387 . S
C149 C151 1.387 . S
H150 C157 0.950 . S
C151 C149 1.387 . S
C151 C153 1.390 . S
C151 H155 0.950 1_556 S
H152 C148 0.950 . S
C153 C151 1.390 . S
C153 C154 1.387 . S
C153 H156 0.950 . S
C154 C153 1.387 . S
C154 C157 1.387 . S
H155 C151 0.950 1_554 S
H156 C153 0.950 . S
C157 C148 1.390 . S
C157 H150 0.950 . S
C157 C154 1.387 . S
C158 C159 1.387 . S
C158 H162 0.950 . S
C158 C167 1.390 . S
C159 C158 1.387 . S
C159 C161 1.387 . S
H160 C167 0.950 . S
C161 C159 1.387 . S
C161 C163 1.390 . S
C161 H165 0.950 . S
H162 C158 0.950 . S
C163 C161 1.390 . S
C163 C164 1.387 . S
C163 H166 0.950 . S
C164 C163 1.387 . S
C164 C167 1.387 . S
H165 C161 0.950 . S
H166 C163 0.950 . S
C167 C158 1.390 . S
C167 H160 0.950 . S
C167 C164 1.387 . S
C168 C169 1.387 . S
C168 H172 0.950 . S
C168 C177 1.390 . S
C169 C168 1.387 . S
C169 C171 1.387 . S
H170 C177 0.950 . S
C171 C169 1.387 . S
C171 C173 1.390 . S
C171 H175 0.950 . S
H172 C168 0.950 . S
C173 C171 1.390 . S
C173 C174 1.387 . S
C173 H176 0.950 . S
C174 C173 1.387 . S
C174 C177 1.387 . S
H175 C171 0.950 . S
H176 C173 0.950 . S
C177 C168 1.390 . S
C177 H170 0.950 . S
C177 C174 1.387 . S
C178 C179 1.387 . S
C178 H182 0.950 . S
C178 C187 1.390 . S
C179 C178 1.387 . S
C179 C181 1.387 . S
H180 C187 0.950 . S
C181 C179 1.387 . S
C181 C183 1.390 . S
C181 H185 0.950 . S
H182 C178 0.950 . S
C183 C181 1.390 . S
C183 C184 1.387 . S
C183 H186 0.950 . S
C184 C183 1.387 . S
C184 C187 1.387 . S
H185 C181 0.950 . S
H186 C183 0.950 . S
C187 C178 1.390 . S
C187 H180 0.950 . S
C187 C184 1.387 . S
C188 C189 1.387 . S
C188 H192 0.950 . S
C188 C197 1.390 . S
C189 C188 1.387 . S
C189 C191 1.387 . S
H190 C197 0.950 . S
C191 C189 1.387 . S
C191 C193 1.390 . S
C191 H195 0.950 . S
H192 C188 0.950 . S
C193 C191 1.390 . S
C193 C194 1.387 . S
C193 H196 0.950 . S
C194 C193 1.387 . S
C194 C197 1.387 . S
H195 C191 0.950 . S
H196 C193 0.950 . S
C197 C188 1.390 . S
C197 H190 0.950 . S
C197 C194 1.387 . S
C84 C43 1.390 . S
C79 C7 1.500 . S
C94 C39 1.397 . S
C89 C16 1.500 . S
C104 C64 1.391 . S
C99 C25 1.500 . S
C109 C34 1.500 . S
C114 C60 1.398 . S
C119 C5 1.370 1_556 S
C124 C61 1.197 . S
C134 C76 1.221 . S
C129 C14 1.390 1_556 S
C139 C4 1.614 1_655 S
C144 C77 1.487 . S
C154 C73 1.507 . S
C149 C13 1.626 1_556 S
C164 C40 1.201 . S
C159 C23 1.371 . S
C169 C32 1.390 . S
C174 C55 1.221 . S
C184 C56 1.488 . S
C179 C22 1.614 . S
C194 C52 1.507 . S
C189 C31 1.626 . S
