# Generated by pormake.
# Topology rtl, (3,6)-cn, num edge types: 1
# Building blocks:
#     Node 0, Type 0, BuildingBlock: BETDIP_clean_linker_0, # of connection points: 3
#     Node 1, Type 0, BuildingBlock: BETDIP_clean_linker_0, # of connection points: 3
#     Node 2, Type 0, BuildingBlock: BETDIP_clean_linker_0, # of connection points: 3
#     Node 3, Type 0, BuildingBlock: BETDIP_clean_linker_0, # of connection points: 3
#     Node 4, Type 1, BuildingBlock: FUNLAD_clean_sbu_0, # of connection points: 6
#     Node 5, Type 1, BuildingBlock: FUNLAD_clean_sbu_0, # of connection points: 6
#     Edge 6, Type (0, 1), None
#     Edge 7, Type (0, 1), None
#     Edge 8, Type (0, 1), None
#     Edge 9, Type (0, 1), None
#     Edge 10, Type (0, 1), None
#     Edge 11, Type (0, 1), None
#     Edge 12, Type (0, 1), None
#     Edge 13, Type (0, 1), None
#     Edge 14, Type (0, 1), None
#     Edge 15, Type (0, 1), None
#     Edge 16, Type (0, 1), None
#     Edge 17, Type (0, 1), None
# Relax obj value: 0.003
# Max RMSD: 0.070
# Mean RMSD: 0.050
data_MOF--net-rtl--node1-FUNLAD_clean_sbu_0--node2-BETDIP_clean_linker_0--edge1-none
_symmetry_space_group_name_H-M    P1
_symmetry_Int_Tables_number       1
_symmetry_cell_setting            triclinic
loop_
_symmetry_equiv_pos_as_xyz
'x, y, z'
_cell_length_a     20.246361
_cell_length_b     20.616199
_cell_length_c     8.8303242
_cell_angle_alpha  91.781749
_cell_angle_beta   92.609299
_cell_angle_gamma 89.968614
loop_
_atom_site_label
_atom_site_type_symbol
_atom_site_fract_x
_atom_site_fract_y
_atom_site_fract_z
_atom_type_partial_charge
H0 H 0.16543 0.83909 0.74305 0.0
H1 H 0.17546 0.84434 0.23181 0.0
H2 H 0.06626 0.99004 -0.01034 0.0
H3 H 0.3003 0.82936 0.12849 0.0
C4 C 0.28394 0.78525 0.06724 0.0
C5 C 0.15278 0.86216 0.84986 0.0
C6 C 0.11306 0.91766 0.85094 0.0
C7 C 0.17844 0.83784 0.98686 0.0
C8 C 0.15913 0.86559 0.12582 0.0
C9 C 0.1172 0.91977 0.12635 0.0
C10 C 0.09723 0.94731 -0.01092 0.0
N11 N 0.22276 0.78482 0.98235 0.0
H12 H 0.67122 0.66954 0.78706 0.0
H13 H 0.67527 0.66282 0.2993 0.0
H14 H 0.57422 0.51438 0.52758 0.0
H15 H 0.79469 0.68274 0.39246 0.0
C16 C 0.7808 0.72614 0.45657 0.0
C17 C 0.6584 0.64549 0.67883 0.0
C18 C 0.61987 0.58877 0.67287 0.0
C19 C 0.68223 0.66989 0.54476 0.0
C20 C 0.66147 0.64129 0.40375 0.0
C21 C 0.6217 0.58576 0.39777 0.0
C22 C 0.60419 0.55784 0.53251 0.0
N23 N 0.72651 0.72335 0.55266 0.0
H24 H 0.85753 0.16951 0.73457 0.0
H25 H 0.85123 0.16588 0.2216 0.0
H26 H 0.96093 0.02103 0.97974 0.0
H27 H 0.72682 0.18164 0.10693 0.0
C28 C 0.74228 0.22524 0.05199 0.0
C29 C 0.87125 0.147 0.84077 0.0
C30 C 0.91191 0.09204 0.8417 0.0
C31 C 0.84628 0.1716 0.97666 0.0
C32 C 0.86713 0.14459 0.11559 0.0
C33 C 0.90995 0.09105 0.11658 0.0
C34 C 0.92934 0.06332 0.97915 0.0
N35 N 0.80139 0.22433 0.97146 0.0
H36 H 0.3329 0.36587 0.24371 0.0
H37 H 0.33624 0.36192 0.73273 0.0
H38 H 0.46812 0.48713 0.51186 0.0
H39 H 0.31213 0.24921 0.64695 0.0
C40 C 0.27016 0.26084 0.57145 0.0
C41 C 0.35271 0.38325 0.35367 0.0
C42 C 0.40467 0.42814 0.36321 0.0
C43 C 0.32756 0.35915 0.48643 0.0
C44 C 0.35499 0.38032 0.62941 0.0
C45 C 0.40573 0.42674 0.63818 0.0
C46 C 0.42933 0.45105 0.50507 0.0
N47 N 0.27501 0.31353 0.47317 0.0
C48 C 0.08681 0.94414 0.26459 0.0
N49 N 0.11777 0.11968 0.50725 0.0
C50 C 0.18096 0.10111 0.54358 0.0
C51 C 0.23103 0.14706 0.567 0.0
C52 C 0.21678 0.21261 0.54675 0.0
C53 C 0.15196 0.23085 0.50381 0.0
C54 C 0.10253 0.18325 0.48656 0.0
Zn55 Zn 0.04791 0.04721 0.49036 0.0
C56 C 0.94063 0.06664 0.25751 0.0
N57 N 0.91201 0.88728 0.46542 0.0
C58 C 0.93484 0.82646 0.43354 0.0
C59 C 0.84728 0.89758 0.49487 0.0
C60 C 0.8031 0.8454 0.49527 0.0
C61 C 0.82562 0.78256 0.46106 0.0
C62 C 0.89203 0.77341 0.42823 0.0
Zn63 Zn 0.97843 0.96282 0.47669 0.0
O64 O 0.10549 0.99798 0.3258 0.0
C65 C 0.08347 0.9432 0.71082 0.0
O66 O 0.03352 0.91831 0.30354 0.0
H67 H 0.82984 0.9462 0.51912 0.0
H68 H 0.19287 0.05038 0.55541 0.0
H69 H 0.98654 0.81874 0.41354 0.0
O70 O 0.09847 0.99982 0.672 0.0
O71 O 0.03519 0.91362 0.64347 0.0
H72 H 0.0521 0.1971 0.45767 0.0
O73 O 0.9261 0.00977 0.65298 0.0
O74 O 0.99021 0.09588 0.65182 0.0
O75 O 0.92177 0.01266 0.30677 0.0
O76 O 0.99386 0.0928 0.31198 0.0
C77 C 0.94136 0.06647 0.70357 0.0
H78 H 0.28075 0.13135 0.59831 0.0
H79 H 0.13939 0.28131 0.48748 0.0
H80 H 0.75187 0.85421 0.51966 0.0
H81 H 0.91099 0.72541 0.40181 0.0
C82 C 0.43701 0.44969 0.78314 0.0
N83 N 0.60844 0.38401 0.02052 0.0
C84 C 0.585 0.32358 0.04582 0.0
C85 C 0.62836 0.27101 0.0579 0.0
C86 C 0.69606 0.28044 0.03978 0.0
C87 C 0.71889 0.34281 0.01086 0.0
C88 C 0.67412 0.39432 0.0036 0.0
Zn89 Zn 0.54558 0.46233 0.01873 0.0
C90 C 0.58899 0.56454 0.80754 0.0
N91 N 0.41852 0.62828 0.02296 0.0
C92 C 0.35261 0.61745 -0.00363 0.0
C93 C 0.44204 0.68868 0.06176 0.0
C94 C 0.39846 0.74074 0.07824 0.0
C95 C 0.33045 0.7307 0.05099 0.0
C96 C 0.30755 0.66839 0.00807 0.0
Zn97 Zn 0.4812 0.55037 0.01851 0.0
O98 O 0.48506 0.41801 0.84185 0.0
C99 C 0.43671 0.44995 0.22852 0.0
O100 O 0.42501 0.50684 0.83262 0.0
H101 H 0.49454 0.6964 0.08224 0.0
H102 H 0.53271 0.31615 0.05843 0.0
H103 H 0.33465 0.56897 0.96866 0.0
O104 O 0.48772 0.42036 0.18423 0.0
O105 O 0.42179 0.5049 0.17613 0.0
H106 H 0.69216 0.44276 0.98655 0.0
O107 O 0.53913 0.59148 0.20183 0.0
O108 O 0.60512 0.50689 0.19808 0.0
O109 O 0.54123 0.59597 0.86269 0.0
O110 O 0.60128 0.50722 0.85014 0.0
C111 C 0.58967 0.56189 0.25467 0.0
H112 H 0.6091 0.22335 0.0798 0.0
H113 H 0.77094 0.35202 -0.00242 0.0
H114 H 0.41772 0.78842 0.11088 0.0
H115 H 0.25529 0.65874 -0.01277 0.0
loop_
_geom_bond_atom_site_label_1
_geom_bond_atom_site_label_2
_geom_bond_distance
_geom_bond_site_symmetry_2
_ccdc_geom_bond_type
H0 C5 0.930 . S
H1 C8 0.930 . S
H2 C10 0.930 . S
H3 C4 1.016 . S
C4 H3 1.016 . S
C4 N11 1.286 1_554 S
C5 H0 0.930 . S
C5 C6 1.397 . S
C5 C7 1.361 . S
C6 C5 1.397 . S
C6 C10 1.390 1_556 S
C7 C5 1.361 . S
C7 C8 1.393 1_556 S
C7 N11 1.413 . S
C8 H1 0.930 . S
C8 C7 1.393 1_554 S
C8 C9 1.399 . S
C9 C8 1.399 . S
C9 C10 1.381 . S
C10 H2 0.930 . S
C10 C6 1.390 1_554 S
C10 C9 1.381 . S
N11 C4 1.286 1_556 S
N11 C7 1.413 . S
H12 C17 0.930 . S
H13 C20 0.930 . S
H14 C22 0.930 . S
H15 C16 1.016 . S
C16 H15 1.016 . S
C16 N23 1.286 . S
C17 H12 0.930 . S
C17 C18 1.397 . S
C17 C19 1.361 . S
C18 C17 1.397 . S
C18 C22 1.390 . S
C19 C17 1.361 . S
C19 C20 1.393 . S
C19 N23 1.413 . S
C20 H13 0.930 . S
C20 C19 1.393 . S
C20 C21 1.399 . S
C21 C20 1.399 . S
C21 C22 1.381 . S
C22 H14 0.930 . S
C22 C18 1.390 . S
C22 C21 1.381 . S
N23 C16 1.286 . S
N23 C19 1.413 . S
H24 C29 0.930 . S
H25 C32 0.930 . S
H26 C34 0.930 . S
H27 C28 1.016 . S
C28 H27 1.016 . S
C28 N35 1.286 1_554 S
C29 H24 0.930 . S
C29 C30 1.397 . S
C29 C31 1.361 . S
C30 C29 1.397 . S
C30 C34 1.390 1_556 S
C31 C29 1.361 . S
C31 C32 1.393 1_556 S
C31 N35 1.413 . S
C32 H25 0.930 . S
C32 C31 1.393 1_554 S
C32 C33 1.399 . S
C33 C32 1.399 . S
C33 C34 1.381 . S
C34 H26 0.930 . S
C34 C30 1.390 1_554 S
C34 C33 1.381 . S
N35 C28 1.286 1_556 S
N35 C31 1.413 . S
H36 C41 0.930 . S
H37 C44 0.930 . S
H38 C46 0.930 . S
H39 C40 1.016 . S
C40 H39 1.016 . S
C40 N47 1.286 . S
C41 H36 0.930 . S
C41 C42 1.397 . S
C41 C43 1.361 . S
C42 C41 1.397 . S
C42 C46 1.390 . S
C43 C41 1.361 . S
C43 C44 1.393 . S
C43 N47 1.413 . S
C44 H37 0.930 . S
C44 C43 1.393 . S
C44 C45 1.399 . S
C45 C44 1.399 . S
C45 C46 1.381 . S
C46 H38 0.930 . S
C46 C42 1.390 . S
C46 C45 1.381 . S
N47 C40 1.286 . S
N47 C43 1.413 . S
C48 O64 1.251 . S
C48 O66 1.254 . S
N49 C50 1.333 . S
N49 C54 1.307 . S
N49 Zn55 2.020 . S
C50 N49 1.333 . S
C50 C51 1.379 . S
C50 H68 0.952 . S
C51 C50 1.379 . S
C51 C52 1.390 . S
C51 H78 0.949 . S
C52 C51 1.390 . S
C52 C53 1.357 . S
C53 C52 1.357 . S
C53 C54 1.370 . S
C53 H79 0.950 . S
C54 N49 1.307 . S
C54 C53 1.370 . S
C54 H72 0.948 . S
Zn55 N49 2.020 . S
Zn55 O64 2.039 1_545 S
Zn55 O70 2.034 1_545 S
Zn55 O74 2.025 1_455 S
Zn55 O76 2.024 1_455 S
C56 O75 1.246 . S
C56 O76 1.249 . S
N57 C58 1.307 . S
N57 C59 1.333 . S
N57 Zn63 2.020 . S
C58 N57 1.307 . S
C58 C62 1.370 . S
C58 H69 0.948 . S
C59 N57 1.333 . S
C59 C60 1.379 . S
C59 H67 0.952 . S
C60 C59 1.379 . S
C60 C61 1.390 . S
C60 H80 0.949 . S
C61 C60 1.390 . S
C61 C62 1.357 . S
C62 C58 1.370 . S
C62 C61 1.357 . S
C62 H81 0.950 . S
Zn63 N57 2.020 . S
Zn63 O66 2.025 1_655 S
Zn63 O71 2.024 1_655 S
Zn63 O73 2.039 1_565 S
Zn63 O75 2.034 1_565 S
O64 C48 1.251 . S
O64 Zn55 2.039 1_565 S
C65 O70 1.246 . S
C65 O71 1.249 . S
O66 C48 1.254 . S
O66 Zn63 2.025 1_455 S
H67 C59 0.952 . S
H68 C50 0.952 . S
H69 C58 0.948 . S
O70 Zn55 2.034 1_565 S
O70 C65 1.246 . S
O71 Zn63 2.024 1_455 S
O71 C65 1.249 . S
H72 C54 0.948 . S
O73 Zn63 2.039 1_545 S
O73 C77 1.251 . S
O74 Zn55 2.025 1_655 S
O74 C77 1.254 . S
O75 C56 1.246 . S
O75 Zn63 2.034 1_545 S
O76 Zn55 2.024 1_655 S
O76 C56 1.249 . S
C77 O73 1.251 . S
C77 O74 1.254 . S
H78 C51 0.949 . S
H79 C53 0.950 . S
H80 C60 0.949 . S
H81 C62 0.950 . S
C82 O98 1.251 . S
C82 O100 1.254 . S
N83 C84 1.333 1_554 S
N83 C88 1.307 . S
N83 Zn89 2.020 . S
C84 N83 1.333 1_556 S
C84 C85 1.379 . S
C84 H102 0.952 . S
C85 C84 1.379 . S
C85 C86 1.390 1_556 S
C85 H112 0.949 . S
C86 C85 1.390 1_554 S
C86 C87 1.357 . S
C87 C86 1.357 . S
C87 C88 1.370 . S
C87 H113 0.950 . S
C88 N83 1.307 . S
C88 C87 1.370 . S
C88 H106 0.948 . S
Zn89 N83 2.020 . S
Zn89 O98 2.039 1_554 S
Zn89 O104 2.034 . S
Zn89 O108 2.025 . S
Zn89 O110 2.024 1_554 S
C90 O109 1.246 . S
C90 O110 1.249 . S
N91 C92 1.307 1_554 S
N91 C93 1.333 . S
N91 Zn97 2.020 . S
C92 N91 1.307 1_556 S
C92 C96 1.370 . S
C92 H103 0.948 . S
C93 N91 1.333 . S
C93 C94 1.379 . S
C93 H101 0.952 . S
C94 C93 1.379 . S
C94 C95 1.390 . S
C94 H114 0.949 . S
C95 C94 1.390 . S
C95 C96 1.357 1_554 S
C96 C92 1.370 . S
C96 C95 1.357 1_556 S
C96 H115 0.950 . S
Zn97 N91 2.020 . S
Zn97 O100 2.025 1_554 S
Zn97 O105 2.024 . S
Zn97 O107 2.039 . S
Zn97 O109 2.034 1_554 S
O98 C82 1.251 . S
O98 Zn89 2.039 1_556 S
C99 O104 1.246 . S
C99 O105 1.249 . S
O100 C82 1.254 . S
O100 Zn97 2.025 1_556 S
H101 C93 0.952 . S
H102 C84 0.952 . S
H103 C92 0.948 . S
O104 Zn89 2.034 . S
O104 C99 1.246 . S
O105 Zn97 2.024 . S
O105 C99 1.249 . S
H106 C88 0.948 . S
O107 Zn97 2.039 . S
O107 C111 1.251 . S
O108 Zn89 2.025 . S
O108 C111 1.254 . S
O109 C90 1.246 . S
O109 Zn97 2.034 1_556 S
O110 Zn89 2.024 1_556 S
O110 C90 1.249 . S
C111 O107 1.251 . S
C111 O108 1.254 . S
H112 C85 0.949 . S
H113 C87 0.950 . S
H114 C94 0.949 . S
H115 C96 0.950 . S
C52 C40 1.519 . S
C4 C95 1.526 . S
C16 C61 1.494 . S
C28 C86 1.507 . S
C48 C9 1.559 . S
C90 C18 1.571 . S
C33 C56 1.566 . S
C45 C82 1.541 . S
C111 C21 1.457 . S
C77 C30 1.450 . S
C99 C42 1.474 . S
C6 C65 1.466 . S
