# Generated by pormake.
# Topology anh, (6,3)-cn, num edge types: 1
# Building blocks:
#     Node 0, Type 0, BuildingBlock: CUWYAW_clean_sbu_0, # of connection points: 6
#     Node 1, Type 0, BuildingBlock: CUWYAW_clean_sbu_0, # of connection points: 6
#     Node 2, Type 0, BuildingBlock: CUWYAW_clean_sbu_0, # of connection points: 6
#     Node 3, Type 1, BuildingBlock: PAMTOO_clean_linker_0, # of connection points: 3
#     Node 4, Type 1, BuildingBlock: PAMTOO_clean_linker_0, # of connection points: 3
#     Node 5, Type 1, BuildingBlock: PAMTOO_clean_linker_0, # of connection points: 3
#     Node 6, Type 1, BuildingBlock: PAMTOO_clean_linker_0, # of connection points: 3
#     Node 7, Type 1, BuildingBlock: PAMTOO_clean_linker_0, # of connection points: 3
#     Node 8, Type 1, BuildingBlock: PAMTOO_clean_linker_0, # of connection points: 3
#     Edge 9, Type (0, 1), None
#     Edge 10, Type (0, 1), None
#     Edge 11, Type (0, 1), None
#     Edge 12, Type (0, 1), None
#     Edge 13, Type (0, 1), None
#     Edge 14, Type (0, 1), None
#     Edge 15, Type (0, 1), None
#     Edge 16, Type (0, 1), None
#     Edge 17, Type (0, 1), None
#     Edge 18, Type (0, 1), None
#     Edge 19, Type (0, 1), None
#     Edge 20, Type (0, 1), None
#     Edge 21, Type (0, 1), None
#     Edge 22, Type (0, 1), None
#     Edge 23, Type (0, 1), None
#     Edge 24, Type (0, 1), None
#     Edge 25, Type (0, 1), None
#     Edge 26, Type (0, 1), None
# Relax obj value: 0.769
# Max RMSD: 0.225
# Mean RMSD: 0.156
data_MOF--net-anh--node1-CUWYAW_clean_sbu_0--node2-PAMTOO_clean_linker_0--edge1-none
_symmetry_space_group_name_H-M    P1
_symmetry_Int_Tables_number       1
_symmetry_cell_setting            triclinic
loop_
_symmetry_equiv_pos_as_xyz
'x, y, z'
_cell_length_a     12.924961
_cell_length_b     13.179867
_cell_length_c     22.449017
_cell_angle_alpha  84.970262
_cell_angle_beta   93.443117
_cell_angle_gamma 121.07077
loop_
_atom_site_label
_atom_site_type_symbol
_atom_site_fract_x
_atom_site_fract_y
_atom_site_fract_z
_atom_type_partial_charge
C0 C 1.16165 0.34112 0.06145 0.0
Eu1 Eu 1.29039 0.56015 0.09065 0.0
C2 C 1.03252 0.28431 0.04476 0.0
C3 C 0.95218 1.17668 0.07535 0.0
C4 C 0.84827 1.16327 0.0995 0.0
C5 C 0.8319 0.26173 0.0972 0.0
C6 C 0.8926 0.35251 0.05232 0.0
C7 C 0.99004 0.3603 0.02399 0.0
C8 C 1.30304 0.62155 0.20535 0.0
C9 C 1.15803 0.71477 0.06564 0.0
C10 C 0.5225 1.01852 0.15684 0.0
Eu11 Eu 0.44376 0.82005 0.10847 0.0
C12 C 0.47975 1.09852 0.169 0.0
C13 C 0.46821 1.17172 0.12297 0.0
C14 C 0.46899 0.27326 0.13693 0.0
C15 C 0.48306 0.30218 0.19674 0.0
C16 C 0.4697 1.21685 0.24254 0.0
C17 C 0.47005 1.11606 0.2287 0.0
C18 C 0.43918 0.76535 -0.00334 0.0
C19 C 0.5894 0.6867 0.09309 0.0
O20 O 1.23665 0.42714 0.02492 0.0
O21 O 1.18471 0.3706 0.11687 0.0
O22 O 1.20473 0.54519 0.17873 0.0
O23 O 0.39057 0.66199 0.17032 0.0
O24 O 1.15438 0.61517 0.05613 0.0
O25 O 1.25688 0.8028 0.08967 0.0
O26 O 0.54411 1.01297 0.10128 0.0
O27 O 0.47225 0.91579 0.18734 0.0
O28 O 0.53311 0.85514 0.02001 0.0
O29 O 1.34995 0.71866 0.03067 0.0
O30 O 0.5987 0.78297 0.11326 0.0
O31 O 0.48188 0.59319 0.08076 0.0
H32 H 0.97907 1.11262 0.08921 0.0
H33 H 0.79457 1.08508 0.12874 0.0
H34 H 0.87844 0.42677 0.04536 0.0
H35 H 1.04523 0.43863 -0.0048 0.0
H36 H 0.4724 1.15845 0.07645 0.0
H37 H 0.47797 0.33771 0.10102 0.0
H38 H 0.47894 1.23705 0.28901 0.0
H39 H 0.4764 1.0594 0.26495 0.0
C40 C 0.77245 0.44827 0.47068 0.0
Eu41 Eu 0.84108 0.30646 0.44477 0.0
C42 C 0.87131 0.56428 0.49088 0.0
C43 C 0.892 0.57212 0.55274 0.0
C44 C 1.00727 0.60621 0.57591 0.0
C45 C 1.10317 0.63812 0.53771 0.0
C46 C 1.08861 0.66344 0.47697 0.0
C47 C 0.97291 0.62989 0.45373 0.0
C48 C 0.96652 0.27392 0.5408 0.0
C49 C 1.11612 0.45978 0.40469 0.0
C50 C 1.07612 1.1064 0.37744 0.0
Eu51 Eu 0.93986 1.18372 0.40885 0.0
C52 C 1.19366 1.12508 0.39671 0.0
C53 C 1.26098 1.20774 0.43945 0.0
C54 C 1.32962 1.1841 0.48214 0.0
C55 C 1.3275 1.07675 0.48218 0.0
C56 C 1.2859 1.01195 0.43057 0.0
C57 C 1.21737 1.03559 0.38796 0.0
C58 C 0.82414 1.23941 0.31758 0.0
C59 C 0.65944 1.02158 0.42313 0.0
O60 O 0.77735 0.4286 0.41524 0.0
O61 O 0.75257 0.35649 0.50659 0.0
O62 O 0.98144 0.37363 0.51804 0.0
O63 O 0.89745 1.19338 0.50534 0.0
O64 O 1.01166 0.45449 0.39786 0.0
O65 O 1.11222 0.36124 0.42422 0.0
O66 O 1.07554 1.19747 0.35029 0.0
O67 O 0.99257 1.05115 0.41795 0.0
O68 O 0.81732 1.1382 0.32615 0.0
O69 O 0.89465 0.30741 0.35545 0.0
O70 O 0.75832 1.01642 0.42333 0.0
O71 O 0.66785 1.12568 0.42773 0.0
H72 H 0.81675 0.52897 0.58311 0.0
H73 H 1.01744 0.59363 0.6236 0.0
H74 H 1.16311 0.69674 0.44676 0.0
H75 H 0.96142 0.63462 0.40556 0.0
H76 H 1.24631 0.27959 0.44574 0.0
H77 H 1.36464 1.23734 0.52061 0.0
H78 H 1.28515 0.92984 0.42846 0.0
H79 H 1.16775 0.97263 0.35424 0.0
C80 C 0.4056 1.05779 0.78356 0.0
Eu81 Eu 1.1687 0.93548 0.78069 0.0
C82 C 0.49583 1.02585 0.7718 0.0
C83 C 0.59777 1.06001 0.8091 0.0
C84 C 0.64962 0.9887 0.81497 0.0
C85 C 0.5826 0.8736 0.79344 0.0
C86 C 0.51543 0.86543 0.74064 0.0
C87 C 0.46696 0.93876 0.73185 0.0
C88 C 1.01899 0.84756 0.87729 0.0
C89 C 1.06622 0.64517 0.75902 0.0
C90 C 0.68175 0.6479 0.74072 0.0
Eu91 Eu 0.91514 0.77178 0.7456 0.0
C92 C 0.58489 0.53758 0.76901 0.0
C93 C 0.47637 0.47226 0.73713 0.0
C94 C 1.37021 0.39604 0.76813 0.0
C95 C 1.37315 0.38707 0.83093 0.0
C96 C 0.48475 0.43481 0.86154 0.0
C97 C 0.59085 0.51032 0.83054 0.0
C98 C 1.07192 0.86277 0.65419 0.0
C99 C 1.01419 1.06186 0.73421 0.0
O100 O 1.33997 1.06014 0.73756 0.0
O101 O 1.33976 1.00222 0.83073 0.0
O102 O 1.10588 0.95709 0.86785 0.0
O103 O 1.01377 0.78872 0.83399 0.0
O104 O 1.15922 0.75708 0.76299 0.0
O105 O 0.95479 0.62297 0.76073 0.0
O106 O 0.74298 0.73566 0.77576 0.0
O107 O 0.74911 0.63817 0.70318 0.0
O108 O 0.98036 0.75514 0.65752 0.0
O109 O 1.07047 0.91573 0.69705 0.0
O110 O 0.92315 0.95157 0.72762 0.0
O111 O 1.12059 1.08015 0.75502 0.0
H112 H 0.62901 1.13294 0.83763 0.0
H113 H 0.72168 1.01025 0.84778 0.0
H114 H 0.47774 0.78855 0.71446 0.0
H115 H 0.39663 0.91815 0.69927 0.0
H116 H 0.47098 0.49095 0.68944 0.0
H117 H 1.28473 0.35909 0.74386 0.0
H118 H 0.48872 0.42789 0.90997 0.0
H119 H 0.67482 0.55786 0.85564 0.0
H120 H 0.84201 1.18269 0.21154 0.0
H121 H 0.74687 0.39698 0.29915 0.0
H122 H 0.73344 0.40554 0.10749 0.0
H123 H 0.5292 0.48357 0.17984 0.0
C124 C 0.55829 0.43122 0.20992 0.0
O125 O 0.68113 0.47549 0.20189 0.0
H126 H 0.54438 0.44352 0.25652 0.0
C127 C 0.80789 1.24267 0.20782 0.0
C128 C 0.78996 0.28784 0.1515 0.0
C129 C 0.79429 0.28236 0.2606 0.0
C130 C 0.75954 0.36712 0.25829 0.0
C131 C 0.73294 0.4078 0.20319 0.0
C132 C 0.75149 0.37094 0.14979 0.0
H133 H 1.18873 1.04896 0.57449 0.0
H134 H 1.1894 0.74575 0.65828 0.0
H135 H 0.41451 0.93291 0.51026 0.0
H136 H 1.18562 0.56436 0.60037 0.0
C137 C 1.21218 0.62877 0.56075 0.0
O138 O 1.31224 0.73472 0.57755 0.0
H139 H 1.23958 0.59283 0.52634 0.0
C140 C 1.22977 0.99471 0.58027 0.0
C141 C 1.31629 1.00905 0.53955 0.0
C142 C 1.18189 0.89801 0.62243 0.0
C143 C 1.22704 0.82233 0.62725 0.0
C144 C 1.30689 0.8319 0.58558 0.0
C145 C 1.35639 0.92835 0.54381 0.0
H146 H 0.60841 0.87437 0.91618 0.0
H147 H 1.26114 0.56628 0.94706 0.0
H148 H 0.4193 0.63091 0.77765 0.0
H149 H 1.18313 0.28883 0.84727 0.0
C150 C 1.26574 0.36808 0.86327 0.0
O151 O 1.2538 0.46661 0.85068 0.0
H152 H 1.27429 0.35368 0.91247 0.0
C153 C 0.53381 0.79332 0.89993 0.0
C154 C 0.52325 0.76992 0.83915 0.0
C155 C 0.43785 0.72341 0.93832 0.0
C156 C 1.33936 0.61761 0.91956 0.0
C157 C 1.34075 0.57796 0.86446 0.0
C158 C 0.42911 0.65642 0.82294 0.0
H159 H 1.13361 0.48488 0.28685 0.0
H160 H 0.49454 0.78949 0.2718 0.0
H161 H 1.34095 0.64424 0.4447 0.0
H162 H 0.5104 0.86992 0.46575 0.0
C163 C 0.53501 0.90856 0.41938 0.0
O164 O 0.53086 0.82057 0.38711 0.0
H165 H 0.46811 0.93268 0.40104 0.0
C166 C 1.21533 0.55368 0.30742 0.0
C167 C 1.22296 0.5546 0.37005 0.0
C168 C 1.31291 0.63571 0.2712 0.0
C169 C 0.41801 0.7262 0.29863 0.0
C170 C 0.4271 0.73288 0.3613 0.0
C171 C 1.33106 0.64301 0.39679 0.0
H172 H 0.98617 1.09987 0.61478 0.0
H173 H 0.95273 0.40501 0.62148 0.0
H174 H 1.02145 0.25363 0.78346 0.0
H175 H 1.16678 0.57584 0.72027 0.0
C176 C 1.09166 0.54346 0.75204 0.0
O177 O 0.99263 0.43386 0.73544 0.0
H178 H 1.1258 0.52812 0.796 0.0
C179 C 0.98796 1.1674 0.63986 0.0
C180 C 1.00453 1.16376 0.70333 0.0
C181 C 0.97601 0.25891 0.60872 0.0
C182 C 0.97614 0.34424 0.64315 0.0
C183 C 0.99825 0.34896 0.70528 0.0
C184 C 1.01116 0.25625 0.73532 0.0
H185 H 1.14645 0.77215 0.9483 0.0
H186 H 0.83768 0.81488 0.94855 0.0
H187 H 0.96603 0.72017 0.11353 0.0
H188 H 0.72557 0.65984 0.13803 0.0
C189 C 0.70004 0.67285 0.09128 0.0
O190 O 0.80134 0.76989 0.0643 0.0
H191 H 0.67372 0.59122 0.0682 0.0
C192 C 1.07328 0.76724 0.97215 0.0
C193 C 1.06526 0.73916 0.0346 0.0
C194 C 0.99251 0.79557 0.94053 0.0
C195 C 0.89853 0.79079 0.97197 0.0
C196 C 0.88689 0.76255 0.03432 0.0
C197 C 0.97234 0.73891 0.06551 0.0
loop_
_geom_bond_atom_site_label_1
_geom_bond_atom_site_label_2
_geom_bond_distance
_geom_bond_site_symmetry_2
_ccdc_geom_bond_type
C0 Eu1 2.835 . S
C0 C2 1.500 . S
C0 O20 1.257 . S
C0 O21 1.260 . S
Eu1 C0 2.835 . S
Eu1 O20 2.473 . S
Eu1 O21 2.480 . S
Eu1 O22 2.430 . S
Eu1 O23 2.670 1_655 S
Eu1 O24 2.394 . S
Eu1 O29 2.355 . S
Eu1 O31 2.374 1_655 S
C2 C0 1.500 . S
C2 C3 1.377 . S
C2 C7 1.377 . S
C3 C2 1.377 . S
C3 C4 1.395 . S
C3 H32 0.931 . S
C4 C3 1.395 . S
C4 C5 1.383 . S
C4 H33 0.931 . S
C5 C4 1.383 . S
C5 C6 1.394 . S
C6 C5 1.394 . S
C6 C7 1.378 . S
C6 H34 0.931 . S
C7 C2 1.377 . S
C7 C6 1.378 . S
C7 H35 0.931 . S
C8 O22 1.259 1_455 S
C8 O23 1.270 . S
C9 O24 1.251 . S
C9 O25 1.251 . S
C10 Eu11 2.835 . S
C10 C12 1.500 . S
C10 O26 1.257 . S
C10 O27 1.260 . S
Eu11 C10 2.835 . S
Eu11 O23 2.355 . S
Eu11 O25 2.374 1_455 S
Eu11 O26 2.473 . S
Eu11 O27 2.480 . S
Eu11 O28 2.430 1_554 S
Eu11 O29 2.670 1_455 S
Eu11 O30 2.394 . S
C12 C10 1.500 . S
C12 C13 1.377 . S
C12 C17 1.377 . S
C13 C12 1.377 . S
C13 C14 1.395 . S
C13 H36 0.931 . S
C14 C13 1.395 . S
C14 C15 1.383 . S
C14 H37 0.931 . S
C15 C14 1.383 . S
C15 C16 1.394 . S
C16 C15 1.394 . S
C16 C17 1.378 . S
C16 H38 0.931 . S
C17 C12 1.377 . S
C17 C16 1.378 . S
C17 H39 0.931 . S
C18 O28 1.259 . S
C18 O29 1.270 1_456 S
C19 O30 1.251 . S
C19 O31 1.251 . S
O20 C0 1.257 . S
O20 Eu1 2.473 . S
O21 C0 1.260 . S
O21 Eu1 2.480 . S
O22 Eu1 2.430 . S
O22 C8 1.259 1_655 S
O23 Eu1 2.670 1_455 S
O23 C8 1.270 . S
O23 Eu11 2.355 . S
O24 Eu1 2.394 . S
O24 C9 1.251 . S
O25 C9 1.251 . S
O25 Eu11 2.374 1_655 S
O26 C10 1.257 . S
O26 Eu11 2.473 . S
O27 C10 1.260 . S
O27 Eu11 2.480 . S
O28 Eu11 2.430 1_556 S
O28 C18 1.259 . S
O29 Eu1 2.355 . S
O29 Eu11 2.670 1_655 S
O29 C18 1.270 1_654 S
O30 Eu11 2.394 . S
O30 C19 1.251 . S
O31 Eu1 2.374 1_455 S
O31 C19 1.251 . S
H32 C3 0.931 . S
H33 C4 0.931 . S
H34 C6 0.931 . S
H35 C7 0.931 . S
H36 C13 0.931 . S
H37 C14 0.931 . S
H38 C16 0.931 . S
H39 C17 0.931 . S
C40 Eu41 2.835 . S
C40 C42 1.500 . S
C40 O60 1.257 . S
C40 O61 1.260 . S
Eu41 C40 2.835 . S
Eu41 O60 2.473 . S
Eu41 O61 2.480 . S
Eu41 O62 2.430 . S
Eu41 O63 2.670 1_545 S
Eu41 O64 2.394 . S
Eu41 O69 2.355 . S
Eu41 O71 2.374 1_545 S
C42 C40 1.500 . S
C42 C43 1.377 . S
C42 C47 1.377 . S
C43 C42 1.377 . S
C43 C44 1.395 . S
C43 H72 0.931 . S
C44 C43 1.395 . S
C44 C45 1.383 . S
C44 H73 0.931 . S
C45 C44 1.383 . S
C45 C46 1.394 . S
C46 C45 1.394 . S
C46 C47 1.378 . S
C46 H74 0.931 . S
C47 C42 1.377 . S
C47 C46 1.378 . S
C47 H75 0.931 . S
C48 O62 1.259 . S
C48 O63 1.270 1_545 S
C49 O64 1.251 . S
C49 O65 1.251 . S
C50 Eu51 2.835 . S
C50 C52 1.500 . S
C50 O66 1.257 . S
C50 O67 1.260 . S
Eu51 C50 2.835 . S
Eu51 O63 2.355 . S
Eu51 O65 2.374 1_565 S
Eu51 O66 2.473 . S
Eu51 O67 2.480 . S
Eu51 O68 2.430 . S
Eu51 O69 2.670 1_565 S
Eu51 O70 2.394 . S
C52 C50 1.500 . S
C52 C53 1.377 . S
C52 C57 1.377 . S
C53 C52 1.377 . S
C53 C54 1.395 . S
C53 H76 0.931 . S
C54 C53 1.395 . S
C54 C55 1.383 . S
C54 H77 0.931 . S
C55 C54 1.383 . S
C55 C56 1.394 . S
C56 C55 1.394 . S
C56 C57 1.378 . S
C56 H78 0.931 . S
C57 C52 1.377 . S
C57 C56 1.378 . S
C57 H79 0.931 . S
C58 O68 1.259 1_545 S
C58 O69 1.270 . S
C59 O70 1.251 . S
C59 O71 1.251 . S
O60 C40 1.257 . S
O60 Eu41 2.473 . S
O61 C40 1.260 . S
O61 Eu41 2.480 . S
O62 Eu41 2.430 . S
O62 C48 1.259 . S
O63 Eu41 2.670 1_565 S
O63 C48 1.270 1_565 S
O63 Eu51 2.355 . S
O64 Eu41 2.394 . S
O64 C49 1.251 . S
O65 C49 1.251 . S
O65 Eu51 2.374 1_545 S
O66 C50 1.257 . S
O66 Eu51 2.473 . S
O67 C50 1.260 . S
O67 Eu51 2.480 . S
O68 Eu51 2.430 . S
O68 C58 1.259 1_565 S
O69 Eu41 2.355 . S
O69 Eu51 2.670 1_545 S
O69 C58 1.270 . S
O70 Eu51 2.394 . S
O70 C59 1.251 . S
O71 Eu41 2.374 1_565 S
O71 C59 1.251 . S
H72 C43 0.931 . S
H73 C44 0.931 . S
H74 C46 0.931 . S
H75 C47 0.931 . S
H76 C53 0.931 . S
H77 C54 0.931 . S
H78 C56 0.931 . S
H79 C57 0.931 . S
C80 Eu81 2.835 . S
C80 C82 1.500 . S
C80 O100 1.257 . S
C80 O101 1.260 . S
Eu81 C80 2.835 . S
Eu81 O100 2.473 . S
Eu81 O101 2.480 . S
Eu81 O102 2.430 . S
Eu81 O103 2.670 . S
Eu81 O104 2.394 . S
Eu81 O109 2.355 . S
Eu81 O111 2.374 . S
C82 C80 1.500 . S
C82 C83 1.377 . S
C82 C87 1.377 . S
C83 C82 1.377 . S
C83 C84 1.395 . S
C83 H112 0.931 . S
C84 C83 1.395 . S
C84 C85 1.383 1_655 S
C84 H113 0.931 1_655 S
C85 C84 1.383 1_455 S
C85 C86 1.394 1_455 S
C86 C85 1.394 1_655 S
C86 C87 1.378 . S
C86 H114 0.931 . S
C87 C82 1.377 . S
C87 C86 1.378 . S
C87 H115 0.931 . S
C88 O102 1.259 . S
C88 O103 1.270 . S
C89 O104 1.251 . S
C89 O105 1.251 . S
C90 Eu91 2.835 . S
C90 C92 1.500 . S
C90 O106 1.257 . S
C90 O107 1.260 . S
Eu91 C90 2.835 . S
Eu91 O103 2.355 . S
Eu91 O105 2.374 . S
Eu91 O106 2.473 . S
Eu91 O107 2.480 . S
Eu91 O108 2.430 . S
Eu91 O109 2.670 . S
Eu91 O110 2.394 . S
C92 C90 1.500 . S
C92 C93 1.377 . S
C92 C97 1.377 . S
C93 C92 1.377 . S
C93 C94 1.395 . S
C93 H116 0.931 . S
C94 C93 1.395 . S
C94 C95 1.383 . S
C94 H117 0.931 . S
C95 C94 1.383 . S
C95 C96 1.394 . S
C96 C95 1.394 . S
C96 C97 1.378 . S
C96 H118 0.931 . S
C97 C92 1.377 . S
C97 C96 1.378 . S
C97 H119 0.931 . S
C98 O108 1.259 . S
C98 O109 1.270 . S
C99 O110 1.251 . S
C99 O111 1.251 . S
O100 C80 1.257 . S
O100 Eu81 2.473 . S
O101 C80 1.260 . S
O101 Eu81 2.480 . S
O102 Eu81 2.430 . S
O102 C88 1.259 . S
O103 Eu81 2.670 . S
O103 C88 1.270 . S
O103 Eu91 2.355 . S
O104 Eu81 2.394 . S
O104 C89 1.251 . S
O105 C89 1.251 . S
O105 Eu91 2.374 . S
O106 C90 1.257 . S
O106 Eu91 2.473 . S
O107 C90 1.260 . S
O107 Eu91 2.480 . S
O108 Eu91 2.430 . S
O108 C98 1.259 . S
O109 Eu81 2.355 . S
O109 Eu91 2.670 . S
O109 C98 1.270 . S
O110 Eu91 2.394 . S
O110 C99 1.251 . S
O111 Eu81 2.374 . S
O111 C99 1.251 . S
H112 C83 0.931 . S
H113 C84 0.931 1_455 S
H114 C86 0.931 . S
H115 C87 0.931 . S
H116 C93 0.931 . S
H117 C94 0.931 . S
H118 C96 0.931 . S
H119 C97 0.931 . S
H120 C127 0.929 . S
H121 C130 0.930 1_565 S
H122 C132 0.929 . S
H123 C124 0.969 . S
C124 H123 0.969 . S
C124 O125 1.550 . S
C124 H126 0.973 . S
O125 C124 1.550 . S
O125 C131 1.412 1_565 S
H126 C124 0.973 . S
C127 H120 0.929 . S
C127 C128 1.400 . S
C127 C129 1.364 . S
C128 C127 1.400 . S
C128 C132 1.377 . S
C129 C127 1.364 . S
C129 C130 1.374 . S
C130 H121 0.930 1_545 S
C130 C129 1.374 . S
C130 C131 1.383 . S
C131 O125 1.412 1_545 S
C131 C130 1.383 . S
C131 C132 1.394 . S
C132 H122 0.929 . S
C132 C128 1.377 . S
C132 C131 1.394 . S
H133 C140 0.929 . S
H134 C143 0.930 . S
H135 C145 0.929 . S
H136 C137 0.969 . S
C137 H136 0.969 . S
C137 O138 1.550 . S
C137 H139 0.973 . S
O138 C137 1.550 . S
O138 C144 1.412 . S
H139 C137 0.973 . S
C140 H133 0.929 . S
C140 C141 1.400 . S
C140 C142 1.364 . S
C141 C140 1.400 . S
C141 C145 1.377 . S
C142 C140 1.364 . S
C142 C143 1.374 . S
C143 H134 0.930 . S
C143 C142 1.374 . S
C143 C144 1.383 . S
C144 O138 1.412 . S
C144 C143 1.383 . S
C144 C145 1.394 . S
C145 H135 0.929 . S
C145 C141 1.377 . S
C145 C144 1.394 . S
H146 C153 0.929 . S
H147 C156 0.923 1_554 S
H148 C158 0.929 . S
H149 C150 0.969 . S
C150 H149 0.969 . S
C150 O151 1.550 . S
C150 H152 0.973 . S
O151 C150 1.550 . S
O151 C157 1.412 . S
H152 C150 0.973 . S
C153 H146 0.929 . S
C153 C154 1.400 1_554 S
C153 C155 1.364 . S
C154 C153 1.400 1_556 S
C154 C158 1.377 . S
C155 C153 1.364 . S
C155 C156 1.364 1_654 S
C156 H147 0.923 1_556 S
C156 C155 1.364 1_456 S
C156 C157 1.402 . S
C157 O151 1.412 . S
C157 C156 1.402 . S
C157 C158 1.394 1_455 S
C158 H148 0.929 . S
C158 C154 1.377 . S
C158 C157 1.394 1_655 S
H159 C166 0.929 . S
H160 C169 0.930 . S
H161 C171 0.929 . S
H162 C163 0.969 . S
C163 H162 0.969 . S
C163 O164 1.550 . S
C163 H165 0.973 . S
O164 C163 1.550 . S
O164 C170 1.412 . S
H165 C163 0.973 . S
C166 H159 0.929 . S
C166 C167 1.400 . S
C166 C168 1.364 1_655 S
C167 C166 1.400 . S
C167 C171 1.377 1_655 S
C168 C166 1.364 1_455 S
C168 C169 1.374 . S
C169 H160 0.930 . S
C169 C168 1.374 . S
C169 C170 1.383 . S
C170 O164 1.412 . S
C170 C169 1.383 . S
C170 C171 1.394 . S
C171 H161 0.929 . S
C171 C167 1.377 1_455 S
C171 C170 1.394 . S
H172 C179 0.929 . S
H173 C182 0.930 . S
H174 C184 0.929 . S
H175 C176 0.969 . S
C176 H175 0.969 . S
C176 O177 1.550 . S
C176 H178 0.973 . S
O177 C176 1.550 . S
O177 C183 1.412 . S
H178 C176 0.973 . S
C179 H172 0.929 . S
C179 C180 1.400 . S
C179 C181 1.364 . S
C180 C179 1.400 . S
C180 C184 1.377 . S
C181 C179 1.364 . S
C181 C182 1.374 1_565 S
C182 H173 0.930 . S
C182 C181 1.374 1_545 S
C182 C183 1.383 . S
C183 O177 1.412 . S
C183 C182 1.383 . S
C183 C184 1.394 1_545 S
C184 H174 0.929 . S
C184 C180 1.377 . S
C184 C183 1.394 1_565 S
H185 C192 0.932 . S
H186 C195 0.930 . S
H187 C197 0.929 . S
H188 C189 0.969 . S
C189 H188 0.969 . S
C189 O190 1.550 . S
C189 H191 0.973 . S
O190 C189 1.550 . S
O190 C196 1.412 . S
H191 C189 0.973 . S
C192 H185 0.932 . S
C192 C193 1.400 . S
C192 C194 1.364 1_554 S
C193 C192 1.400 . S
C193 C197 1.377 . S
C194 C192 1.364 1_556 S
C194 C195 1.374 1_556 S
C195 H186 0.930 . S
C195 C194 1.374 1_554 S
C195 C196 1.383 . S
C196 O190 1.412 . S
C196 C195 1.383 . S
C196 C197 1.394 . S
C197 H187 0.929 . S
C197 C193 1.377 . S
C197 C196 1.394 . S
C19 C189 4.466 . S
C49 C167 4.689 . S
C99 C180 4.627 . S
C9 C193 4.699 . S
C163 C59 4.484 . S
C176 C89 4.591 . S
C55 C141 3.069 . S
C85 C154 3.436 1_455 S
C15 C124 3.726 . S
C137 C45 3.787 . S
C150 C95 3.765 . S
C5 C128 3.346 . S
C155 C18 1.377 1_654 S
C58 C129 1.488 . S
C98 C142 0.926 . S
C181 C48 1.996 1_565 S
C194 C88 1.928 . S
C8 C168 1.969 . S
