# Generated by pormake.
# Topology llj, (12,3)-cn, num edge types: 1
# Building blocks:
#     Node 0, Type 0, BuildingBlock: QEWDON_clean_sbu_0, # of connection points: 12
#     Node 1, Type 0, BuildingBlock: QEWDON_clean_sbu_0, # of connection points: 12
#     Node 2, Type 1, BuildingBlock: BETDIP_clean_linker_0, # of connection points: 3
#     Node 3, Type 1, BuildingBlock: BETDIP_clean_linker_0, # of connection points: 3
#     Node 4, Type 1, BuildingBlock: BETDIP_clean_linker_0, # of connection points: 3
#     Node 5, Type 1, BuildingBlock: BETDIP_clean_linker_0, # of connection points: 3
#     Node 6, Type 1, BuildingBlock: BETDIP_clean_linker_0, # of connection points: 3
#     Node 7, Type 1, BuildingBlock: BETDIP_clean_linker_0, # of connection points: 3
#     Node 8, Type 1, BuildingBlock: BETDIP_clean_linker_0, # of connection points: 3
#     Node 9, Type 1, BuildingBlock: BETDIP_clean_linker_0, # of connection points: 3
#     Edge 10, Type (0, 1), None
#     Edge 11, Type (0, 1), None
#     Edge 12, Type (0, 1), None
#     Edge 13, Type (0, 1), None
#     Edge 14, Type (0, 1), None
#     Edge 15, Type (0, 1), None
#     Edge 16, Type (0, 1), None
#     Edge 17, Type (0, 1), None
#     Edge 18, Type (0, 1), None
#     Edge 19, Type (0, 1), None
#     Edge 20, Type (0, 1), None
#     Edge 21, Type (0, 1), None
#     Edge 22, Type (0, 1), None
#     Edge 23, Type (0, 1), None
#     Edge 24, Type (0, 1), None
#     Edge 25, Type (0, 1), None
#     Edge 26, Type (0, 1), None
#     Edge 27, Type (0, 1), None
#     Edge 28, Type (0, 1), None
#     Edge 29, Type (0, 1), None
#     Edge 30, Type (0, 1), None
#     Edge 31, Type (0, 1), None
#     Edge 32, Type (0, 1), None
#     Edge 33, Type (0, 1), None
# Relax obj value: 0.010
# Max RMSD: 0.075
# Mean RMSD: 0.066
data_MOF--net-llj--node1-QEWDON_clean_sbu_0--node2-BETDIP_clean_linker_0--edge1-none
_symmetry_space_group_name_H-M    P1
_symmetry_Int_Tables_number       1
_symmetry_cell_setting            triclinic
loop_
_symmetry_equiv_pos_as_xyz
'x, y, z'
_cell_length_a     20.623673
_cell_length_b     20.57474
_cell_length_c     11.536987
_cell_angle_alpha  91.062711
_cell_angle_beta   94.026724
_cell_angle_gamma 91.021819
loop_
_atom_site_label
_atom_site_type_symbol
_atom_site_fract_x
_atom_site_fract_y
_atom_site_fract_z
_atom_type_partial_charge
Zn0 Zn 0.9008 0.15178 0.91191 0.0
Zn1 Zn 0.89564 0.11796 0.17889 0.0
O2 O 0.95324 0.11355 0.04735 0.0
H3 H 0.98731 0.08263 0.03869 0.0
C4 C 0.84005 0.00427 0.719 0.0
O5 O 0.82911 0.03406 0.81724 0.0
Zn6 Zn 0.10495 0.87748 0.18573 0.0
Zn7 Zn 0.09643 0.85681 0.90851 0.0
O8 O 0.04713 0.88999 0.04141 0.0
H9 H 0.01193 0.92019 0.03296 0.0
Zn10 Zn 0.86875 0.89549 0.87407 0.0
O11 O 0.88393 0.94899 0.021 0.0
Zn12 Zn 0.86998 0.88719 0.14913 0.0
H13 H 0.91418 0.98544 0.02519 0.0
Zn14 Zn 0.13615 0.10293 0.9253 0.0
O15 O 0.11519 0.04917 0.06203 0.0
H16 H 0.08454 0.01318 0.0535 0.0
Zn17 Zn 0.12797 0.10793 0.20173 0.0
C18 C 0.16048 -0.00364 0.76788 0.0
O19 O 0.17053 0.96743 0.86794 0.0
O20 O 0.82555 0.20993 0.95942 0.0
O21 O 0.82297 0.18094 0.14446 0.0
O22 O 0.17314 0.79919 0.96055 0.0
O23 O 0.17888 0.81669 0.1529 0.0
O24 O 0.81005 0.81548 0.89294 0.0
O25 O 0.80749 0.81246 0.08612 0.0
C26 C 0.00858 0.14739 0.33088 0.0
O27 O 0.19324 0.18292 0.97104 0.0
O28 O 0.18522 0.1872 0.16341 0.0
O29 O 0.04924 0.84818 0.74333 0.0
C30 C 0.8013 0.21368 0.05812 0.0
O31 O 0.94567 0.15992 0.7564 0.0
C32 C 0.98988 0.8436 0.3004 0.0
O33 O 0.85782 0.94543 0.72059 0.0
C34 C 0.1994 0.7898 0.06209 0.0
O35 O 0.14509 0.05585 0.7675 0.0
C36 C 0.8408 -0.00181 0.28773 0.0
O37 O 0.94691 0.14818 0.32427 0.0
O38 O 0.03682 0.13132 0.24016 0.0
C39 C 0.78951 0.79051 0.98387 0.0
O40 O 0.05162 0.84192 0.30955 0.0
O41 O 0.96157 0.86017 0.20391 0.0
C42 C 0.15886 0.99452 0.33534 0.0
O43 O 0.83391 0.93665 0.28291 0.0
O44 O 0.8633 0.02658 0.20194 0.0
C45 C 0.20688 0.20967 0.07036 0.0
O46 O 0.16561 0.05621 0.33756 0.0
O47 O 0.13773 0.96687 0.24013 0.0
C48 C 0.99053 0.82785 0.73213 0.0
O49 O 0.9618 0.8109 0.82536 0.0
C50 C 0.0065 0.17234 0.76205 0.0
O51 O 0.03722 0.18279 0.86451 0.0
Zn52 Zn 0.38882 0.62919 0.37057 0.0
Zn53 Zn 0.38473 0.63219 0.64527 0.0
O54 O 0.44477 0.62021 0.51894 0.0
H55 H 0.4809 0.59109 0.52166 0.0
C56 C 0.32632 0.50487 0.1985 0.0
O57 O 0.30797 0.53071 0.2956 0.0
Zn58 Zn 0.60054 0.37718 0.66579 0.0
Zn59 Zn 0.59977 0.35305 0.39352 0.0
O60 O 0.54341 0.38241 0.51999 0.0
H61 H 0.50725 0.4112 0.5074 0.0
Zn62 Zn 0.36248 0.40069 0.35789 0.0
O63 O 0.38297 0.45614 0.5025 0.0
Zn64 Zn 0.36877 0.39773 0.63512 0.0
H65 H 0.41403 0.49185 0.50484 0.0
Zn66 Zn 0.63993 0.59648 0.40229 0.0
O67 O 0.59984 0.55133 0.53343 0.0
H68 H 0.5682 0.51621 0.52263 0.0
Zn69 Zn 0.61354 0.61116 0.67284 0.0
C70 C 0.6651 0.48922 0.23752 0.0
O71 O 0.67823 0.45743 0.33379 0.0
O72 O 0.30943 0.68547 0.39253 0.0
O73 O 0.31061 0.69244 0.58638 0.0
O74 O 0.67276 0.29178 0.45063 0.0
O75 O 0.67504 0.31423 0.64096 0.0
O76 O 0.30849 0.31804 0.38745 0.0
O77 O 0.30883 0.32132 0.58125 0.0
C78 C 0.49795 0.66158 0.79855 0.0
O79 O 0.69627 0.67664 0.45415 0.0
O80 O 0.67484 0.68635 0.64089 0.0
O81 O 0.55545 0.34541 0.22689 0.0
C82 C 0.28668 0.7074 0.48491 0.0
O83 O 0.43742 0.63955 0.22094 0.0
C84 C 0.48627 0.34988 0.78844 0.0
O85 O 0.35038 0.44839 0.20047 0.0
C86 C 0.6965 0.28388 0.55434 0.0
O87 O 0.64853 0.54837 0.24403 0.0
C88 C 0.33697 0.51071 0.7681 0.0
O89 O 0.4364 0.66728 0.79036 0.0
O90 O 0.52514 0.64226 0.70893 0.0
C91 C 0.29091 0.29521 0.48249 0.0
O92 O 0.54778 0.34499 0.79417 0.0
O93 O 0.45812 0.36909 0.69375 0.0
C94 C 0.64617 0.49898 0.80434 0.0
O95 O 0.33285 0.44898 0.76449 0.0
O96 O 0.35522 0.5401 0.67938 0.0
C97 C 0.70349 0.70573 0.55289 0.0
O98 O 0.64884 0.56068 0.80914 0.0
O99 O 0.62764 0.47063 0.70832 0.0
C100 C 0.49507 0.33125 0.21972 0.0
O101 O 0.46634 0.32019 0.31572 0.0
C102 C 0.49715 0.65645 0.23007 0.0
O103 O 0.5261 0.66673 0.33404 0.0
H104 H 0.35786 0.31445 0.80605 0.0
H105 H 0.36981 0.29482 0.17751 0.0
H106 H 0.53756 0.35738 0.0085 0.0
H107 H 0.26229 0.29043 0.16115 0.0
C108 C 0.25262 0.2653 0.07812 0.0
C109 C 0.38529 0.31959 0.8893 0.0
C110 C 0.45141 0.3382 0.89448 0.0
C111 C 0.35503 0.3044 0.99124 0.0
C112 C 0.39159 0.30838 0.09884 0.0
C113 C 0.45727 0.32773 0.10573 0.0
C114 C 0.48668 0.34264 1.00339 0.0
N115 N 0.2899 0.2796 0.98194 0.0
H116 H 0.69411 0.37875 0.82001 0.0
H117 H 0.70972 0.36834 0.19175 0.0
H118 H 0.63484 0.53969 0.02582 0.0
H119 H 0.7298 0.26333 0.16076 0.0
C120 C 0.7499 0.26014 0.07644 0.0
C121 C 0.68533 0.39976 0.9036 0.0
C122 C 0.66077 0.46223 0.91078 0.0
C123 C 0.70239 0.36511 1.00328 0.0
C124 C 0.69498 0.39382 0.11346 0.0
C125 C 0.67071 0.45719 0.12251 0.0
C126 C 0.65353 0.49088 0.02034 0.0
N127 N 0.73201 0.30416 0.98767 0.0
H128 H 0.62312 0.69571 0.22041 0.0
H129 H 0.62393 0.70214 0.84792 0.0
H130 H 0.45099 0.64175 1.00564 0.0
H131 H 0.73085 0.71638 0.88155 0.0
C132 C 0.73968 0.73847 0.96745 0.0
C133 C 0.59828 0.68764 0.13527 0.0
C134 C 0.53297 0.66681 0.12507 0.0
C135 C 0.63206 0.70007 0.03685 0.0
C136 C 0.59974 0.69089 0.92527 0.0
C137 C 0.53419 0.66989 0.91365 0.0
C138 C 0.50145 0.65794 0.01408 0.0
N139 N 0.69637 0.72658 0.05518 0.0
H140 H 0.29929 0.63575 0.79908 0.0
H141 H 0.28583 0.62822 0.16885 0.0
H142 H 0.34946 0.46156 0.98268 0.0
H143 H 0.27496 0.73513 0.16149 0.0
C144 C 0.25198 0.74311 0.07558 0.0
C145 C 0.30629 0.60976 0.87963 0.0
C146 C 0.32629 0.54513 0.87823 0.0
C147 C 0.29215 0.64048 0.98389 0.0
C148 C 0.29835 0.60585 0.08823 0.0
C149 C 0.31958 0.54132 0.08869 0.0
C150 C 0.3335 0.51148 0.98325 0.0
N151 N 0.2666 0.70408 0.97845 0.0
H152 H 0.86318 0.80594 0.3097 0.0
H153 H 0.86519 0.79069 0.68083 0.0
H154 H 0.03756 0.85298 0.52382 0.0
H155 H 0.75694 0.78503 0.65185 0.0
C156 C 0.74993 0.76028 0.56789 0.0
C157 C 0.88851 0.81241 0.39466 0.0
C158 C 0.95403 0.83192 0.40458 0.0
C159 C 0.85573 0.79842 0.49354 0.0
C160 C 0.8893 0.80346 0.60407 0.0
C161 C 0.95499 0.82332 0.61584 0.0
C162 C 0.98682 0.83775 0.51557 0.0
N163 N 0.7909 0.77392 0.47733 0.0
H164 H 0.19704 0.87127 0.74051 0.0
H165 H 0.19682 0.86914 0.36744 0.0
H166 H 0.14359 0.04185 0.54932 0.0
H167 H 0.21207 0.76304 0.3857 0.0
C168 C 0.23487 0.75535 0.47185 0.0
C169 C 0.18809 0.89572 0.65867 0.0
C170 C 0.16862 0.96062 0.65754 0.0
C171 C 0.19806 0.86184 0.55551 0.0
C172 C 0.18761 0.89349 0.44813 0.0
C173 C 0.16811 0.9587 0.4455 0.0
C174 C 0.15871 0.99165 0.5507 0.0
N175 N 0.22364 0.79822 0.56554 0.0
H176 H 0.13239 0.21078 0.7432 0.0
H177 H 0.13289 0.18958 0.37168 0.0
H178 H 0.96102 0.14071 0.54198 0.0
H179 H 0.23628 0.21364 0.39456 0.0
C180 C 0.24495 0.23993 0.4766 0.0
C181 C 0.1077 0.19615 0.66057 0.0
C182 C 0.0424 0.17495 0.6552 0.0
C183 C 0.1413 0.20116 0.5596 0.0
C184 C 0.10919 0.18371 0.45127 0.0
C185 C 0.04434 0.16162 0.4444 0.0
C186 C 0.01134 0.15735 0.54681 0.0
N187 N 0.20503 0.2293 0.57006 0.0
H188 H 0.79134 0.11866 0.30941 0.0
H189 H 0.79421 0.12562 0.68202 0.0
H190 H 0.86033 0.95595 0.50558 0.0
H191 H 0.76749 0.22863 0.66372 0.0
C192 C 0.74673 0.23492 0.57575 0.0
C193 C 0.80397 0.09695 0.39209 0.0
C194 C 0.8289 0.03416 0.39557 0.0
C195 C 0.79178 0.1309 0.49428 0.0
C196 C 0.80468 0.10097 0.60218 0.0
C197 C 0.82919 0.03756 0.60693 0.0
C198 C 0.84125 0.00472 0.50309 0.0
N199 N 0.76215 0.19264 0.48327 0.0
loop_
_geom_bond_atom_site_label_1
_geom_bond_atom_site_label_2
_geom_bond_distance
_geom_bond_site_symmetry_2
_ccdc_geom_bond_type
Zn0 O2 1.933 1_556 S
Zn0 O20 1.985 . S
Zn0 O31 1.955 . S
Zn1 O2 1.911 . S
Zn1 O21 1.970 . S
Zn1 O37 1.945 . S
Zn1 O44 1.981 . S
O2 Zn0 1.933 1_554 S
O2 Zn1 1.911 . S
O2 H3 0.841 1_655 S
H3 O2 0.841 1_455 S
C4 O5 1.246 . S
C4 O33 1.276 1_545 S
O5 C4 1.246 . S
Zn6 O8 1.911 . S
Zn6 O23 1.970 . S
Zn6 O40 1.945 . S
Zn6 O47 1.981 . S
Zn7 O8 1.933 1_556 S
Zn7 O22 1.985 . S
Zn7 O29 1.955 . S
O8 Zn6 1.911 . S
O8 Zn7 1.933 1_554 S
O8 H9 0.841 1_455 S
H9 O8 0.841 1_655 S
Zn10 O11 1.933 1_556 S
Zn10 O24 1.985 . S
Zn10 O33 1.955 . S
O11 Zn10 1.933 1_554 S
O11 Zn12 1.911 . S
O11 H13 0.841 1_565 S
Zn12 O11 1.911 . S
Zn12 O25 1.970 . S
Zn12 O41 1.981 . S
Zn12 O43 1.945 . S
H13 O11 0.841 1_545 S
Zn14 O15 1.933 1_556 S
Zn14 O27 1.985 . S
Zn14 O35 1.955 . S
O15 Zn14 1.933 1_554 S
O15 H16 0.841 1_545 S
O15 Zn17 1.911 . S
H16 O15 0.841 1_565 S
Zn17 O15 1.911 . S
Zn17 O28 1.970 . S
Zn17 O38 1.981 . S
Zn17 O46 1.945 . S
C18 O19 1.246 . S
C18 O35 1.276 1_565 S
O19 C18 1.246 . S
O20 Zn0 1.985 . S
O20 C30 1.245 1_556 S
O21 Zn1 1.970 . S
O21 C30 1.263 . S
O22 Zn7 1.985 . S
O22 C34 1.245 1_556 S
O23 Zn6 1.970 . S
O23 C34 1.263 . S
O24 Zn10 1.985 . S
O24 C39 1.245 1_556 S
O25 Zn12 1.970 . S
O25 C39 1.263 . S
C26 O37 1.262 1_455 S
C26 O38 1.245 . S
O27 Zn14 1.985 . S
O27 C45 1.245 1_556 S
O28 Zn17 1.970 . S
O28 C45 1.263 . S
O29 Zn7 1.955 . S
O29 C48 1.276 1_455 S
C30 O20 1.245 1_554 S
C30 O21 1.263 . S
O31 Zn0 1.955 . S
O31 C50 1.276 1_655 S
C32 O40 1.262 1_655 S
C32 O41 1.245 . S
O33 C4 1.276 1_565 S
O33 Zn10 1.955 . S
C34 O22 1.245 1_554 S
C34 O23 1.263 . S
O35 Zn14 1.955 . S
O35 C18 1.276 1_545 S
C36 O43 1.262 1_545 S
C36 O44 1.245 . S
O37 Zn1 1.945 . S
O37 C26 1.262 1_655 S
O38 Zn17 1.981 . S
O38 C26 1.245 . S
C39 O24 1.245 1_554 S
C39 O25 1.263 . S
O40 Zn6 1.945 . S
O40 C32 1.262 1_455 S
O41 Zn12 1.981 . S
O41 C32 1.245 . S
C42 O46 1.262 1_565 S
C42 O47 1.245 . S
O43 Zn12 1.945 . S
O43 C36 1.262 1_565 S
O44 Zn1 1.981 . S
O44 C36 1.245 . S
C45 O27 1.245 1_554 S
C45 O28 1.263 . S
O46 Zn17 1.945 . S
O46 C42 1.262 1_545 S
O47 Zn6 1.981 . S
O47 C42 1.245 . S
C48 O29 1.276 1_655 S
C48 O49 1.246 . S
O49 C48 1.246 . S
C50 O31 1.276 1_455 S
C50 O51 1.246 . S
O51 C50 1.246 . S
Zn52 O54 1.933 . S
Zn52 O72 1.985 . S
Zn52 O83 1.955 . S
Zn53 O54 1.911 . S
Zn53 O73 1.970 . S
Zn53 O89 1.945 . S
Zn53 O96 1.981 . S
O54 Zn52 1.933 . S
O54 Zn53 1.911 . S
O54 H55 0.841 . S
H55 O54 0.841 . S
C56 O57 1.246 . S
C56 O85 1.276 . S
O57 C56 1.246 . S
Zn58 O60 1.911 . S
Zn58 O75 1.970 . S
Zn58 O92 1.945 . S
Zn58 O99 1.981 . S
Zn59 O60 1.933 . S
Zn59 O74 1.985 . S
Zn59 O81 1.955 . S
O60 Zn58 1.911 . S
O60 Zn59 1.933 . S
O60 H61 0.841 . S
H61 O60 0.841 . S
Zn62 O63 1.933 . S
Zn62 O76 1.985 . S
Zn62 O85 1.955 . S
O63 Zn62 1.933 . S
O63 Zn64 1.911 . S
O63 H65 0.841 . S
Zn64 O63 1.911 . S
Zn64 O77 1.970 . S
Zn64 O93 1.981 . S
Zn64 O95 1.945 . S
H65 O63 0.841 . S
Zn66 O67 1.933 . S
Zn66 O79 1.985 . S
Zn66 O87 1.955 . S
O67 Zn66 1.933 . S
O67 H68 0.841 . S
O67 Zn69 1.911 . S
H68 O67 0.841 . S
Zn69 O67 1.911 . S
Zn69 O80 1.970 . S
Zn69 O90 1.981 . S
Zn69 O98 1.945 . S
C70 O71 1.246 . S
C70 O87 1.276 . S
O71 C70 1.246 . S
O72 Zn52 1.985 . S
O72 C82 1.245 . S
O73 Zn53 1.970 . S
O73 C82 1.263 . S
O74 Zn59 1.985 . S
O74 C86 1.245 . S
O75 Zn58 1.970 . S
O75 C86 1.263 . S
O76 Zn62 1.985 . S
O76 C91 1.245 . S
O77 Zn64 1.970 . S
O77 C91 1.263 . S
C78 O89 1.262 . S
C78 O90 1.245 . S
O79 Zn66 1.985 . S
O79 C97 1.245 . S
O80 Zn69 1.970 . S
O80 C97 1.263 . S
O81 Zn59 1.955 . S
O81 C100 1.276 . S
C82 O72 1.245 . S
C82 O73 1.263 . S
O83 Zn52 1.955 . S
O83 C102 1.276 . S
C84 O92 1.262 . S
C84 O93 1.245 . S
O85 C56 1.276 . S
O85 Zn62 1.955 . S
C86 O74 1.245 . S
C86 O75 1.263 . S
O87 Zn66 1.955 . S
O87 C70 1.276 . S
C88 O95 1.262 . S
C88 O96 1.245 . S
O89 Zn53 1.945 . S
O89 C78 1.262 . S
O90 Zn69 1.981 . S
O90 C78 1.245 . S
C91 O76 1.245 . S
C91 O77 1.263 . S
O92 Zn58 1.945 . S
O92 C84 1.262 . S
O93 Zn64 1.981 . S
O93 C84 1.245 . S
C94 O98 1.262 . S
C94 O99 1.245 . S
O95 Zn64 1.945 . S
O95 C88 1.262 . S
O96 Zn53 1.981 . S
O96 C88 1.245 . S
C97 O79 1.245 . S
C97 O80 1.263 . S
O98 Zn69 1.945 . S
O98 C94 1.262 . S
O99 Zn58 1.981 . S
O99 C94 1.245 . S
C100 O81 1.276 . S
C100 O101 1.246 . S
O101 C100 1.246 . S
C102 O83 1.276 . S
C102 O103 1.246 . S
O103 C102 1.246 . S
H104 C109 0.930 . S
H105 C112 0.930 . S
H106 C114 0.930 . S
H107 C108 1.016 . S
C108 H107 1.016 . S
C108 N115 1.286 1_554 S
C109 H104 0.930 . S
C109 C110 1.397 . S
C109 C111 1.361 . S
C110 C109 1.397 . S
C110 C114 1.390 1_556 S
C111 C109 1.361 . S
C111 C112 1.393 1_556 S
C111 N115 1.413 . S
C112 H105 0.930 . S
C112 C111 1.393 1_554 S
C112 C113 1.399 . S
C113 C112 1.399 . S
C113 C114 1.381 . S
C114 H106 0.930 . S
C114 C110 1.390 1_554 S
C114 C113 1.381 . S
N115 C108 1.286 1_556 S
N115 C111 1.413 . S
H116 C121 0.930 . S
H117 C124 0.930 . S
H118 C126 0.930 . S
H119 C120 1.016 . S
C120 H119 1.016 . S
C120 N127 1.286 1_554 S
C121 H116 0.930 . S
C121 C122 1.397 . S
C121 C123 1.367 . S
C122 C121 1.397 . S
C122 C126 1.390 1_556 S
C123 C121 1.367 . S
C123 C124 1.387 1_556 S
C123 N127 1.414 . S
C124 H117 0.930 . S
C124 C123 1.387 1_554 S
C124 C125 1.399 . S
C125 C124 1.399 . S
C125 C126 1.381 . S
C126 H118 0.930 . S
C126 C122 1.390 1_554 S
C126 C125 1.381 . S
N127 C120 1.286 1_556 S
N127 C123 1.414 . S
H128 C133 0.930 . S
H129 C136 0.930 . S
H130 C138 0.930 . S
H131 C132 1.016 . S
C132 H131 1.016 . S
C132 N139 1.286 1_556 S
C133 H128 0.930 . S
C133 C134 1.397 . S
C133 C135 1.361 . S
C134 C133 1.397 . S
C134 C138 1.390 . S
C135 C133 1.361 . S
C135 C136 1.393 1_554 S
C135 N139 1.413 . S
C136 H129 0.930 . S
C136 C135 1.393 1_556 S
C136 C137 1.399 . S
C137 C136 1.399 . S
C137 C138 1.381 1_556 S
C138 H130 0.930 . S
C138 C134 1.390 . S
C138 C137 1.381 1_554 S
N139 C132 1.286 1_554 S
N139 C135 1.413 . S
H140 C145 0.930 . S
H141 C148 0.930 . S
H142 C150 0.930 . S
H143 C144 1.016 . S
C144 H143 1.016 . S
C144 N151 1.286 1_554 S
C145 H140 0.930 . S
C145 C146 1.397 . S
C145 C147 1.361 . S
C146 C145 1.397 . S
C146 C150 1.390 1_556 S
C147 C145 1.361 . S
C147 C148 1.393 1_556 S
C147 N151 1.413 . S
C148 H141 0.930 . S
C148 C147 1.393 1_554 S
C148 C149 1.399 . S
C149 C148 1.399 . S
C149 C150 1.381 . S
C150 H142 0.930 . S
C150 C146 1.390 1_554 S
C150 C149 1.381 . S
N151 C144 1.286 1_556 S
N151 C147 1.413 . S
H152 C157 0.930 . S
H153 C160 0.930 . S
H154 C162 0.930 1_455 S
H155 C156 1.016 . S
C156 H155 1.016 . S
C156 N163 1.286 . S
C157 H152 0.930 . S
C157 C158 1.397 . S
C157 C159 1.361 . S
C158 C157 1.397 . S
C158 C162 1.390 . S
C159 C157 1.361 . S
C159 C160 1.393 . S
C159 N163 1.413 . S
C160 H153 0.930 . S
C160 C159 1.393 . S
C160 C161 1.399 . S
C161 C160 1.399 . S
C161 C162 1.381 . S
C162 H154 0.930 1_655 S
C162 C158 1.390 . S
C162 C161 1.381 . S
N163 C156 1.286 . S
N163 C159 1.413 . S
H164 C169 0.930 . S
H165 C172 0.930 . S
H166 C174 0.930 . S
H167 C168 1.016 . S
C168 H167 1.016 . S
C168 N175 1.286 . S
C169 H164 0.930 . S
C169 C170 1.397 . S
C169 C171 1.361 . S
C170 C169 1.397 . S
C170 C174 1.390 . S
C171 C169 1.361 . S
C171 C172 1.393 . S
C171 N175 1.413 . S
C172 H165 0.930 . S
C172 C171 1.393 . S
C172 C173 1.399 . S
C173 C172 1.399 . S
C173 C174 1.381 . S
C174 H166 0.930 . S
C174 C170 1.390 . S
C174 C173 1.381 . S
N175 C168 1.286 . S
N175 C171 1.413 . S
H176 C181 0.930 . S
H177 C184 0.930 . S
H178 C186 0.930 . S
H179 C180 1.016 . S
C180 H179 1.016 . S
C180 N187 1.286 . S
C181 H176 0.930 . S
C181 C182 1.397 . S
C181 C183 1.361 . S
C182 C181 1.397 . S
C182 C186 1.390 . S
C183 C181 1.361 . S
C183 C184 1.393 . S
C183 N187 1.413 . S
C184 H177 0.930 . S
C184 C183 1.393 . S
C184 C185 1.399 . S
C185 C184 1.399 . S
C185 C186 1.381 . S
C186 H178 0.930 . S
C186 C182 1.390 . S
C186 C185 1.381 . S
N187 C180 1.286 . S
N187 C183 1.413 . S
H188 C193 0.930 . S
H189 C196 0.930 . S
H190 C198 0.930 1_565 S
H191 C192 1.016 . S
C192 H191 1.016 . S
C192 N199 1.286 . S
C193 H188 0.930 . S
C193 C194 1.397 . S
C193 C195 1.361 . S
C194 C193 1.397 . S
C194 C198 1.390 . S
C195 C193 1.361 . S
C195 C196 1.393 . S
C195 N199 1.413 . S
C196 H189 0.930 . S
C196 C195 1.393 . S
C196 C197 1.399 . S
C197 C196 1.399 . S
C197 C198 1.381 . S
C198 H190 0.930 1_545 S
C198 C194 1.390 . S
C198 C197 1.381 . S
N199 C192 1.286 . S
N199 C195 1.413 . S
C45 C108 1.575 . S
C30 C120 1.616 . S
C39 C132 1.569 1_554 S
C144 C34 1.586 . S
C97 C156 1.587 . S
C168 C82 1.567 . S
C180 C91 1.554 . S
C192 C86 1.602 . S
C185 C26 1.491 . S
C194 C36 1.453 . S
C158 C32 1.495 . S
C173 C42 1.533 . S
C18 C170 1.581 . S
C182 C50 1.605 . S
C4 C197 1.609 . S
C48 C161 1.576 . S
C137 C78 1.539 . S
C88 C146 1.472 . S
C110 C84 1.518 . S
C122 C94 1.435 . S
C125 C70 1.653 . S
C134 C102 1.565 . S
C56 C149 1.595 . S
C100 C113 1.548 . S
