# Generated by pormake.
# Topology tsx, (6,3)-cn, num edge types: 1
# Building blocks:
#     Node 0, Type 0, BuildingBlock: MIDCAF_clean_sbu_0, # of connection points: 6
#     Node 1, Type 0, BuildingBlock: MIDCAF_clean_sbu_0, # of connection points: 6
#     Node 2, Type 1, BuildingBlock: CUQRIR_clean_linker_1, # of connection points: 3
#     Node 3, Type 1, BuildingBlock: CUQRIR_clean_linker_1, # of connection points: 3
#     Node 4, Type 1, BuildingBlock: CUQRIR_clean_linker_1, # of connection points: 3
#     Node 5, Type 1, BuildingBlock: CUQRIR_clean_linker_1, # of connection points: 3
#     Edge 6, Type (0, 1), BuildingBlock: OJICUG_clean_linker_0, # of connection points: 2
#     Edge 7, Type (0, 1), BuildingBlock: OJICUG_clean_linker_0, # of connection points: 2
#     Edge 8, Type (0, 1), BuildingBlock: OJICUG_clean_linker_0, # of connection points: 2
#     Edge 9, Type (0, 1), BuildingBlock: OJICUG_clean_linker_0, # of connection points: 2
#     Edge 10, Type (0, 1), BuildingBlock: OJICUG_clean_linker_0, # of connection points: 2
#     Edge 11, Type (0, 1), BuildingBlock: OJICUG_clean_linker_0, # of connection points: 2
#     Edge 12, Type (0, 1), BuildingBlock: OJICUG_clean_linker_0, # of connection points: 2
#     Edge 13, Type (0, 1), BuildingBlock: OJICUG_clean_linker_0, # of connection points: 2
#     Edge 14, Type (0, 1), BuildingBlock: OJICUG_clean_linker_0, # of connection points: 2
#     Edge 15, Type (0, 1), BuildingBlock: OJICUG_clean_linker_0, # of connection points: 2
#     Edge 16, Type (0, 1), BuildingBlock: OJICUG_clean_linker_0, # of connection points: 2
#     Edge 17, Type (0, 1), BuildingBlock: OJICUG_clean_linker_0, # of connection points: 2
# Relax obj value: 0.119
# Max RMSD: 0.171
# Mean RMSD: 0.149
data_MOF--net-tsx--node1-MIDCAF_clean_sbu_0--node2-CUQRIR_clean_linker_1--edge1-OJICUG_clean_linker_0
_symmetry_space_group_name_H-M    P1
_symmetry_Int_Tables_number       1
_symmetry_cell_setting            triclinic
loop_
_symmetry_equiv_pos_as_xyz
'x, y, z'
_cell_length_a     11.771977
_cell_length_b     13.538032
_cell_length_c     24.998167
_cell_angle_alpha  82.002425
_cell_angle_beta   100.06011
_cell_angle_gamma 92.790752
loop_
_atom_site_label
_atom_site_type_symbol
_atom_site_fract_x
_atom_site_fract_y
_atom_site_fract_z
_atom_type_partial_charge
Zn0 Zn 0.97122 0.89753 0.92754 0.0
Zn1 Zn 0.30696 0.98103 0.02385 0.0
Zn2 Zn 0.11327 0.96471 -0.01533 0.0
C3 C 0.22525 0.17644 -0.01308 0.0
C4 C 0.31209 0.85947 0.94651 0.0
O5 O 0.9931 0.88332 0.03334 0.0
O6 O 0.97099 0.76715 -0.02088 0.0
C7 C 0.89848 0.08603 0.93732 0.0
O8 O 0.13314 0.12915 0.96725 0.0
O9 O 0.31209 0.12853 0.01245 0.0
O10 O 0.38272 0.91137 -0.0243 0.0
O11 O 0.20462 0.8619 0.94849 0.0
O12 O 0.85266 0.99996 0.93391 0.0
O13 O 1.00966 0.09442 0.94682 0.0
O14 O 0.09793 0.07513 0.91073 0.0
O15 O 0.06478 0.94435 0.86611 0.0
C16 C 0.09701 0.03529 0.8667 0.0
O17 O 0.10201 0.94115 0.0703 0.0
O18 O 0.28759 0.92078 0.09968 0.0
C19 C 0.95652 0.79564 0.02367 0.0
C20 C 0.18628 0.92346 0.10994 0.0
Zn21 Zn 0.83962 0.53198 0.53865 0.0
Zn22 Zn 0.46219 0.44728 0.42085 0.0
Zn23 Zn 0.63408 0.50991 0.4843 0.0
C24 C 0.62915 0.4352 0.36363 0.0
C25 C 0.44202 0.65728 0.42845 0.0
O26 O 0.62269 0.43198 0.56577 0.0
O27 O 0.80123 0.4563 0.60737 0.0
C28 C 0.8878 0.43488 0.46219 0.0
O29 O 0.68124 0.46654 0.40817 0.0
O30 O 0.52262 0.41475 0.35752 0.0
O31 O 0.38838 0.58087 0.41194 0.0
O32 O 0.54496 0.6495 0.45599 0.0
O33 O 0.94805 0.47314 0.50123 0.0
O34 O 0.77717 0.4455 0.45204 0.0
O35 O 0.64921 0.67061 0.49379 0.0
O36 O 0.83207 0.67829 0.53379 0.0
C37 C 0.73753 0.72065 0.51486 0.0
O38 O 0.51736 0.40722 0.53067 0.0
O39 O 0.3986 0.33788 0.46705 0.0
C40 C 0.69967 0.42301 0.60942 0.0
C41 C 0.43412 0.34518 0.51679 0.0
C42 C 0.19536 0.10201 0.39056 0.0
N43 N 0.21162 0.02902 0.3611 0.0
N44 N 0.11491 0.16596 0.36149 0.0
C45 C 0.25892 0.11052 0.44736 0.0
C46 C 0.08448 0.13005 0.31298 0.0
N47 N 0.14301 0.04641 0.31275 0.0
C48 C 1.00409 0.18163 0.2648 0.0
H49 H 0.26557 0.03608 0.47246 0.0
H50 H 0.21768 0.16297 0.46784 0.0
H51 H 0.34807 0.13861 0.4446 0.0
H52 H 0.99356 0.26082 0.2695 0.0
H53 H 0.91816 0.14338 0.26194 0.0
H54 H 1.03701 0.1786 0.22611 0.0
C55 C 0.99594 0.10115 0.56825 0.0
N56 N 0.06497 0.15114 0.6052 0.0
N57 N 0.89036 0.08204 0.58256 0.0
C58 C 1.03682 0.05858 0.5226 0.0
C59 C 0.89918 0.12268 0.62991 0.0
N60 N 1.00627 0.16323 0.64449 0.0
C61 C 0.80482 0.11728 0.66395 0.0
H62 H 1.01087 0.10801 0.48364 0.0
H63 H 0.99968 0.9829 0.51802 0.0
H64 H 0.13096 0.05107 0.53037 0.0
H65 H 0.72118 0.09254 0.64119 0.0
H66 H 0.79379 0.19187 0.67557 0.0
H67 H 0.829 0.06505 0.7022 0.0
C68 C 0.5972 0.50262 0.88977 0.0
N69 N 0.62527 0.43146 0.862 0.0
N70 N 0.51608 0.56211 0.85761 0.0
C71 C 0.6565 0.51853 0.94632 0.0
C72 C 0.49861 0.52633 0.80889 0.0
N73 N 0.56549 0.44635 0.81146 0.0
C74 C 0.42783 0.57775 0.75736 0.0
H75 H 0.67316 0.44611 -0.02719 0.0
H76 H 0.60561 0.56548 0.96542 0.0
H77 H 0.74097 0.55707 0.94339 0.0
H78 H 0.40036 0.65228 0.76299 0.0
H79 H 0.34965 0.53127 0.74556 0.0
H80 H 0.47808 0.58703 0.72327 0.0
C81 C 0.49898 0.56652 0.06938 0.0
N82 N 0.5941 0.5691 0.1084 0.0
N83 N 0.43041 0.48568 0.08033 0.0
C84 C 0.46738 0.64742 0.02276 0.0
C85 C 0.4877 0.43905 0.12835 0.0
N86 N 0.58798 0.48903 0.14514 0.0
C87 C 0.44495 0.34434 0.1589 0.0
H88 H 0.41803 0.6156 -0.01286 0.0
H89 H 0.54443 0.68981 0.01143 0.0
H90 H 0.41096 0.69991 0.03549 0.0
H91 H 0.49809 0.28133 0.15471 0.0
H92 H 0.35399 0.3254 0.14346 0.0
H93 H 0.45206 0.35143 0.20303 0.0
C94 C 0.33174 0.33269 -0.03167 0.0
C95 C 0.23364 0.2852 -0.01412 0.0
H96 H 0.4744 0.43173 -0.01243 0.0
C97 C 0.18253 0.32723 0.024 0.0
H98 H 0.37345 0.30129 0.93937 0.0
C99 C 0.24033 0.40432 0.05099 0.0
C100 C 0.35012 0.43807 0.04058 0.0
H101 H 0.10742 0.29133 0.03866 0.0
H102 H 0.20638 0.42867 0.08441 0.0
C103 C 0.39043 0.40723 -0.00381 0.0
C104 C 0.47444 0.80197 0.90773 0.0
C105 C 0.35736 0.79282 0.91363 0.0
H106 H 0.61721 0.7333 0.88584 0.0
C107 C 0.28976 0.71335 0.89336 0.0
H108 H 0.52839 0.86345 0.92191 0.0
C109 C 0.34144 0.63926 0.87261 0.0
C110 C 0.46055 0.64428 0.87181 0.0
H111 H 0.19928 0.70493 0.89686 0.0
H112 H 0.29017 0.57527 0.86 0.0
C113 C 0.52572 0.72779 0.88737 0.0
C114 C 0.80177 0.78148 0.08193 0.0
C115 C 0.88045 0.73501 0.05765 0.0
H116 H 0.64592 0.7639 0.11681 0.0
C117 C 0.87217 0.63095 0.05819 0.0
H118 H 0.80494 0.86172 0.08136 0.0
C119 C 0.78325 0.57537 0.07964 0.0
C120 C 0.6995 0.62287 0.0998 0.0
H121 H 0.93099 0.59319 0.03947 0.0
H122 H 0.77458 0.49617 0.0768 0.0
C123 C 0.71094 0.72592 0.10218 0.0
C124 C 0.87647 0.27122 0.92586 0.0
C125 C 0.82693 0.17533 0.92172 0.0
H126 H 0.84991 0.42912 0.90971 0.0
C127 C 0.70927 0.16569 0.89959 0.0
H128 H 0.96694 0.28107 0.94241 0.0
C129 C 0.64345 0.25021 0.88062 0.0
C130 C 0.69338 0.34553 0.88417 0.0
H131 H 0.6685 0.09297 0.89567 0.0
H132 H 0.55342 0.24159 0.86275 0.0
C133 C 0.80989 0.35578 0.90745 0.0
C134 C 0.74068 0.90616 0.4899 0.0
C135 C 0.72869 0.8219 0.52827 0.0
H136 H 0.79311 0.06072 0.47785 0.0
C137 C 0.745 0.83256 0.5841 0.0
H138 H 0.73255 0.89911 0.44676 0.0
C139 C 0.78757 0.92219 0.60199 0.0
C140 C 0.81045 1.00436 0.56418 0.0
H141 H 0.73839 0.76798 0.61447 0.0
H142 H 0.81424 0.92329 0.64556 0.0
C143 C 0.77697 0.99809 0.5078 0.0
C144 C 0.88214 0.29304 0.40783 0.0
C145 C 0.9437 0.37287 0.43069 0.0
H146 H 0.88997 0.1641 0.36774 0.0
C147 C 0.06148 0.38737 0.42722 0.0
H148 H 0.79221 0.27845 0.41112 0.0
C149 C 0.11691 0.32182 0.40229 0.0
C150 C 0.05618 0.24001 0.38155 0.0
H151 H 0.11104 0.4484 0.44449 0.0
H152 H 0.20753 0.33335 0.40005 0.0
C153 C 0.93787 0.22744 0.38325 0.0
C154 C 0.2667 0.35416 0.56238 0.0
C155 C 0.36013 0.29948 0.55543 0.0
H156 H 0.09818 0.34762 0.58451 0.0
C157 C 0.36416 0.19705 0.57438 0.0
H158 H 0.26136 0.43308 0.5472 0.0
C159 C 0.27135 0.14872 0.59638 0.0
C160 C 0.17249 0.20194 0.59773 0.0
H161 H 0.43483 0.15348 0.56863 0.0
H162 H 0.27262 0.0687 0.60818 0.0
C163 C 0.17358 0.30563 0.58349 0.0
C164 C 0.2641 0.75603 0.39458 0.0
C165 C 0.38341 0.75421 0.41475 0.0
H166 H 0.11659 0.8459 0.36228 0.0
C167 C 0.44477 0.84513 0.41916 0.0
H168 H 0.2136 0.68751 0.39085 0.0
C169 C 0.38857 0.93602 0.40274 0.0
C170 C 0.27004 0.93693 0.38159 0.0
H171 H 0.53639 0.84584 0.43364 0.0
H172 H 0.43795 1.00535 0.40492 0.0
C173 C 0.20826 0.84638 0.37821 0.0
C174 C 0.26983 0.94399 0.20606 0.0
C175 C 0.17145 0.92922 0.16687 0.0
H176 H 0.3372 0.99818 0.28163 0.0
C177 C 0.0617 0.93978 0.18005 0.0
H178 H 0.35586 0.93653 0.19749 0.0
C179 C 0.05138 0.97232 0.22974 0.0
C180 C 0.15053 0.99702 0.26605 0.0
H181 H 0.98428 0.92823 0.15086 0.0
H182 H 0.96636 0.98251 0.23865 0.0
C183 C 0.25943 0.97914 0.25458 0.0
C184 C 0.16447 0.05103 0.77809 0.0
C185 C 0.10961 0.0945 0.81411 0.0
H186 H 0.17455 0.04092 0.69478 0.0
C187 C 1.04271 0.17918 0.79419 0.0
H188 H 0.21635 0.98559 0.79266 0.0
C189 C 1.01883 0.21123 0.73761 0.0
C190 C 0.06149 0.15868 0.70096 0.0
H191 H 0.999 0.21352 0.82134 0.0
H192 H 0.95893 0.27065 0.72221 0.0
C193 C 0.14101 0.08314 0.72204 0.0
C194 C 0.55042 0.38182 0.67032 0.0
C195 C 0.66677 0.39529 0.66417 0.0
H196 H 0.42643 0.38205 0.7238 0.0
C197 C 0.7502 0.40432 0.71098 0.0
H198 H 0.48394 0.37643 0.63551 0.0
C199 C 0.71679 0.41346 0.76067 0.0
C200 C 0.59956 0.41022 0.76525 0.0
H201 H 0.84078 0.41524 0.70814 0.0
H202 H 0.78234 0.43254 0.79392 0.0
C203 C 0.51719 0.38718 0.72081 0.0
C204 C 0.68435 0.54533 0.28625 0.0
C205 C 0.68239 0.44833 0.31434 0.0
H206 H 0.65113 0.63448 0.20814 0.0
C207 C 0.6882 0.36697 0.2859 0.0
H208 H 0.6795 0.60916 0.30751 0.0
C209 C 0.67893 0.38222 0.22881 0.0
C210 C 0.65401 0.47758 0.19991 0.0
H211 H 0.68709 0.2914 0.30686 0.0
H212 H 0.67541 0.31805 0.20714 0.0
C213 C 0.66821 0.55992 0.22913 0.0
loop_
_geom_bond_atom_site_label_1
_geom_bond_atom_site_label_2
_geom_bond_distance
_geom_bond_site_symmetry_2
_ccdc_geom_bond_type
Zn0 O6 1.920 1_545 S
Zn0 O12 1.898 . S
Zn0 O15 1.905 1_545 S
Zn1 O9 1.905 1_565 S
Zn1 O10 1.898 . S
Zn1 O18 1.920 . S
Zn2 O5 2.080 1_445 S
Zn2 O8 2.114 . S
Zn2 O11 2.120 1_545 S
Zn2 O13 2.120 1_455 S
Zn2 O14 2.114 1_554 S
Zn2 O17 2.080 . S
C3 O8 1.166 . S
C3 O9 1.182 . S
C4 O10 1.167 . S
C4 O11 1.299 . S
O5 Zn2 2.080 1_665 S
O5 C19 1.305 . S
O6 Zn0 1.920 1_565 S
O6 C19 1.234 1_556 S
C7 O12 1.167 . S
C7 O13 1.299 1_556 S
O8 Zn2 2.114 . S
O8 C3 1.166 . S
O9 Zn1 1.905 1_545 S
O9 C3 1.182 . S
O10 Zn1 1.898 . S
O10 C4 1.167 . S
O11 Zn2 2.120 1_565 S
O11 C4 1.299 . S
O12 Zn0 1.898 . S
O12 C7 1.167 . S
O13 Zn2 2.120 1_655 S
O13 C7 1.299 1_554 S
O14 Zn2 2.114 1_556 S
O14 C16 1.166 1_545 S
O15 Zn0 1.905 1_565 S
O15 C16 1.182 1_655 S
C16 O14 1.166 1_565 S
C16 O15 1.182 1_455 S
O17 Zn2 2.080 . S
O17 C20 1.305 1_545 S
O18 Zn1 1.920 . S
O18 C20 1.234 . S
C19 O5 1.305 . S
C19 O6 1.234 1_554 S
C20 O17 1.305 1_565 S
C20 O18 1.234 . S
Zn21 O27 1.920 . S
Zn21 O33 1.898 . S
Zn21 O36 1.905 . S
Zn22 O30 1.905 . S
Zn22 O31 1.898 . S
Zn22 O39 1.920 . S
Zn23 O26 2.080 . S
Zn23 O29 2.114 . S
Zn23 O32 2.120 . S
Zn23 O34 2.120 . S
Zn23 O35 2.114 . S
Zn23 O38 2.080 . S
C24 O29 1.166 . S
C24 O30 1.182 . S
C25 O31 1.167 . S
C25 O32 1.299 . S
O26 Zn23 2.080 . S
O26 C40 1.305 . S
O27 Zn21 1.920 . S
O27 C40 1.234 . S
C28 O33 1.167 . S
C28 O34 1.299 . S
O29 Zn23 2.114 . S
O29 C24 1.166 . S
O30 Zn22 1.905 . S
O30 C24 1.182 . S
O31 Zn22 1.898 . S
O31 C25 1.167 . S
O32 Zn23 2.120 . S
O32 C25 1.299 . S
O33 Zn21 1.898 . S
O33 C28 1.167 . S
O34 Zn23 2.120 . S
O34 C28 1.299 . S
O35 Zn23 2.114 . S
O35 C37 1.166 . S
O36 Zn21 1.905 . S
O36 C37 1.182 . S
C37 O35 1.166 . S
C37 O36 1.182 . S
O38 Zn23 2.080 . S
O38 C41 1.305 . S
O39 Zn22 1.920 . S
O39 C41 1.234 . S
C40 O26 1.305 . S
C40 O27 1.234 . S
C41 O38 1.305 . S
C41 O39 1.234 . S
C42 N43 1.317 1_545 S
C42 N44 1.348 . S
C42 C45 1.485 . S
N43 C42 1.317 1_565 S
N43 N47 1.370 1_565 S
N44 C42 1.348 . S
N44 C46 1.346 . S
C45 C42 1.485 . S
C45 H49 0.960 1_545 S
C45 H50 0.961 . S
C45 H51 0.960 1_545 S
C46 N44 1.346 . S
C46 N47 1.307 . S
C46 C48 1.486 1_455 S
N47 N43 1.370 1_545 S
N47 C46 1.307 . S
C48 C46 1.486 1_655 S
C48 H52 0.960 . S
C48 H53 0.960 . S
C48 H54 0.959 . S
H49 C45 0.960 1_565 S
H50 C45 0.961 . S
H51 C45 0.960 1_565 S
H52 C48 0.960 . S
H53 C48 0.960 . S
H54 C48 0.959 . S
C55 N56 1.317 . S
C55 N57 1.348 1_445 S
C55 C58 1.485 . S
N56 C55 1.317 . S
N56 N60 1.370 . S
N57 C55 1.348 1_665 S
N57 C59 1.346 . S
C58 C55 1.485 . S
C58 H62 0.960 1_455 S
C58 H63 0.961 1_545 S
C58 H64 0.960 . S
C59 N57 1.346 . S
C59 N60 1.307 1_665 S
C59 C61 1.486 . S
N60 N56 1.370 . S
N60 C59 1.307 1_445 S
C61 C59 1.486 . S
C61 H65 0.960 . S
C61 H66 0.960 . S
C61 H67 0.959 . S
H62 C58 0.960 1_655 S
H63 C58 0.961 1_565 S
H64 C58 0.960 . S
H65 C61 0.960 . S
H66 C61 0.960 . S
H67 C61 0.959 . S
C68 N69 1.317 . S
C68 N70 1.348 . S
C68 C71 1.485 1_556 S
N69 C68 1.317 . S
N69 N73 1.370 . S
N70 C68 1.348 . S
N70 C72 1.346 . S
C71 C68 1.485 1_554 S
C71 H75 0.960 . S
C71 H76 0.961 . S
C71 H77 0.960 . S
C72 N70 1.346 . S
C72 N73 1.307 . S
C72 C74 1.486 . S
N73 N69 1.370 . S
N73 C72 1.307 . S
C74 C72 1.486 . S
C74 H78 0.960 . S
C74 H79 0.960 . S
C74 H80 0.959 . S
H75 C71 0.960 . S
H76 C71 0.961 . S
H77 C71 0.960 . S
H78 C74 0.960 . S
H79 C74 0.960 . S
H80 C74 0.959 . S
C81 N82 1.317 . S
C81 N83 1.348 . S
C81 C84 1.485 1_554 S
N82 C81 1.317 . S
N82 N86 1.370 . S
N83 C81 1.348 . S
N83 C85 1.346 . S
C84 C81 1.485 1_556 S
C84 H88 0.960 . S
C84 H89 0.961 . S
C84 H90 0.960 . S
C85 N83 1.346 . S
C85 N86 1.307 . S
C85 C87 1.486 . S
N86 N82 1.370 . S
N86 C85 1.307 . S
C87 C85 1.486 . S
C87 H91 0.960 . S
C87 H92 0.960 . S
C87 H93 0.959 . S
H88 C84 0.960 . S
H89 C84 0.961 . S
H90 C84 0.960 . S
H91 C87 0.960 . S
H92 C87 0.960 . S
H93 C87 0.959 . S
C94 C95 1.387 1_556 S
C94 H98 0.950 . S
C94 C103 1.390 . S
C95 C94 1.387 1_554 S
C95 C97 1.387 . S
H96 C103 0.950 . S
C97 C95 1.387 . S
C97 C99 1.390 . S
C97 H101 0.950 . S
H98 C94 0.950 . S
C99 C97 1.390 . S
C99 C100 1.387 . S
C99 H102 0.950 . S
C100 C99 1.387 . S
C100 C103 1.387 1_554 S
H101 C97 0.950 . S
H102 C99 0.950 . S
C103 C94 1.390 . S
C103 H96 0.950 . S
C103 C100 1.387 1_556 S
C104 C105 1.387 1_554 S
C104 H108 0.950 . S
C104 C113 1.390 . S
C105 C104 1.387 1_556 S
C105 C107 1.387 . S
H106 C113 0.950 . S
C107 C105 1.387 . S
C107 C109 1.390 . S
C107 H111 0.950 . S
H108 C104 0.950 . S
C109 C107 1.390 . S
C109 C110 1.387 . S
C109 H112 0.950 . S
C110 C109 1.387 . S
C110 C113 1.387 1_556 S
H111 C107 0.950 . S
H112 C109 0.950 . S
C113 C104 1.390 . S
C113 H106 0.950 . S
C113 C110 1.387 1_554 S
C114 C115 1.387 . S
C114 H118 0.950 1_554 S
C114 C123 1.390 . S
C115 C114 1.387 . S
C115 C117 1.387 . S
H116 C123 0.950 1_556 S
C117 C115 1.387 . S
C117 C119 1.390 . S
C117 H121 0.950 . S
H118 C114 0.950 1_556 S
C119 C117 1.390 . S
C119 C120 1.387 . S
C119 H122 0.950 . S
C120 C119 1.387 . S
C120 C123 1.387 . S
H121 C117 0.950 . S
H122 C119 0.950 . S
C123 C114 1.390 . S
C123 H116 0.950 1_554 S
C123 C120 1.387 . S
C124 C125 1.387 . S
C124 H128 0.950 . S
C124 C133 1.390 . S
C125 C124 1.387 . S
C125 C127 1.387 1_556 S
H126 C133 0.950 . S
C127 C125 1.387 1_554 S
C127 C129 1.391 . S
C127 H131 0.950 . S
H128 C124 0.950 . S
C129 C127 1.391 . S
C129 C130 1.376 1_554 S
C129 H132 0.960 . S
C130 C129 1.376 1_556 S
C130 C133 1.387 . S
H131 C127 0.950 . S
H132 C129 0.960 . S
C133 C124 1.390 . S
C133 H126 0.950 . S
C133 C130 1.387 . S
C134 C135 1.387 . S
C134 H138 0.950 . S
C134 C143 1.390 . S
C135 C134 1.387 . S
C135 C137 1.387 . S
H136 C143 0.950 . S
C137 C135 1.387 . S
C137 C139 1.390 . S
C137 H141 0.950 . S
H138 C134 0.950 . S
C139 C137 1.390 . S
C139 C140 1.387 . S
C139 H142 0.950 . S
C140 C139 1.387 . S
C140 C143 1.387 . S
H141 C137 0.950 . S
H142 C139 0.950 . S
C143 C134 1.390 . S
C143 H136 0.950 . S
C143 C140 1.387 . S
C144 C145 1.387 . S
C144 H148 0.950 . S
C144 C153 1.390 . S
C145 C144 1.387 . S
C145 C147 1.387 . S
H146 C153 0.950 . S
C147 C145 1.387 . S
C147 C149 1.390 . S
C147 H151 0.950 . S
H148 C144 0.950 . S
C149 C147 1.390 . S
C149 C150 1.387 . S
C149 H152 0.950 . S
C150 C149 1.387 . S
C150 C153 1.387 . S
H151 C147 0.950 . S
H152 C149 0.950 . S
C153 C144 1.390 . S
C153 H146 0.950 . S
C153 C150 1.387 . S
C154 C155 1.387 . S
C154 H158 0.950 . S
C154 C163 1.390 . S
C155 C154 1.387 . S
C155 C157 1.387 . S
H156 C163 0.950 . S
C157 C155 1.387 . S
C157 C159 1.390 . S
C157 H161 0.950 . S
H158 C154 0.950 . S
C159 C157 1.390 . S
C159 C160 1.387 . S
C159 H162 0.950 . S
C160 C159 1.387 . S
C160 C163 1.387 . S
H161 C157 0.950 . S
H162 C159 0.950 . S
C163 C154 1.390 . S
C163 H156 0.950 . S
C163 C160 1.387 . S
C164 C165 1.387 . S
C164 H168 0.950 . S
C164 C173 1.390 . S
C165 C164 1.387 . S
C165 C167 1.387 . S
H166 C173 0.950 . S
C167 C165 1.387 . S
C167 C169 1.390 . S
C167 H171 0.950 . S
H168 C164 0.950 . S
C169 C167 1.390 . S
C169 C170 1.387 . S
C169 H172 0.950 . S
C170 C169 1.387 . S
C170 C173 1.387 . S
H171 C167 0.950 . S
H172 C169 0.950 . S
C173 C164 1.390 . S
C173 H166 0.950 . S
C173 C170 1.387 . S
C174 C175 1.387 . S
C174 H178 0.950 . S
C174 C183 1.390 . S
C175 C174 1.387 . S
C175 C177 1.387 1_455 S
H176 C183 0.950 . S
C177 C175 1.387 1_655 S
C177 C179 1.390 1_565 S
C177 H181 0.950 . S
H178 C174 0.950 . S
C179 C177 1.390 1_545 S
C179 C180 1.387 1_645 S
C179 H182 0.950 . S
C180 C179 1.387 1_465 S
C180 C183 1.387 . S
H181 C177 0.950 . S
H182 C179 0.950 . S
C183 C174 1.390 . S
C183 H176 0.950 . S
C183 C180 1.387 . S
C184 C185 1.387 . S
C184 H188 0.950 . S
C184 C193 1.390 . S
C185 C184 1.387 . S
C185 C187 1.387 1_465 S
H186 C193 0.950 . S
C187 C185 1.387 1_645 S
C187 C189 1.390 . S
C187 H191 0.950 . S
H188 C184 0.950 . S
C189 C187 1.390 . S
C189 C190 1.387 1_655 S
C189 H192 0.950 . S
C190 C189 1.387 1_455 S
C190 C193 1.387 1_545 S
H191 C187 0.950 . S
H192 C189 0.950 . S
C193 C184 1.390 . S
C193 H186 0.950 . S
C193 C190 1.387 1_565 S
C194 C195 1.387 . S
C194 H198 0.950 . S
C194 C203 1.390 . S
C195 C194 1.387 . S
C195 C197 1.387 . S
H196 C203 0.950 . S
C197 C195 1.387 . S
C197 C199 1.390 . S
C197 H201 0.950 . S
H198 C194 0.950 . S
C199 C197 1.390 . S
C199 C200 1.387 . S
C199 H202 0.950 . S
C200 C199 1.387 . S
C200 C203 1.387 . S
H201 C197 0.950 . S
H202 C199 0.950 . S
C203 C194 1.390 . S
C203 H196 0.950 . S
C203 C200 1.387 . S
C204 C205 1.387 . S
C204 H208 0.950 . S
C204 C213 1.390 . S
C205 C204 1.387 . S
C205 C207 1.387 . S
H206 C213 0.950 . S
C207 C205 1.387 . S
C207 C209 1.390 . S
C207 H211 0.950 . S
H208 C204 0.950 . S
C209 C207 1.390 . S
C209 C210 1.387 . S
C209 H212 0.950 . S
C210 C209 1.387 . S
C210 C213 1.387 . S
H211 C207 0.950 . S
H212 C209 0.950 . S
C213 C204 1.390 . S
C213 H206 0.950 . S
C213 C210 1.387 . S
C100 N83 1.339 . S
C95 C3 1.192 . S
C105 C4 1.453 1_556 S
C110 N70 1.526 . S
C115 C19 1.486 . S
C120 N82 1.616 . S
C125 C7 1.229 . S
C130 N69 1.410 . S
C135 C37 1.198 . S
C140 N57 1.338 . S
C145 C28 1.452 . S
C150 N44 1.525 1_655 S
C160 N56 1.616 . S
C155 C41 1.487 . S
C170 N43 1.410 . S
C165 C25 1.228 . S
C175 C20 1.375 . S
C180 N47 1.570 1_565 S
C185 C16 1.391 . S
C190 N60 1.501 . S
C200 N73 1.571 . S
C195 C40 1.375 . S
C205 C24 1.393 . S
C210 N86 1.503 . S
