# Generated by pormake.
# Topology nom, (4,4)-cn, num edge types: 1
# Building blocks:
#     Node 0, Type 0, BuildingBlock: GIZVER_clean_linker_0, # of connection points: 4
#     Node 1, Type 0, BuildingBlock: GIZVER_clean_linker_0, # of connection points: 4
#     Node 2, Type 0, BuildingBlock: GIZVER_clean_linker_0, # of connection points: 4
#     Node 3, Type 0, BuildingBlock: GIZVER_clean_linker_0, # of connection points: 4
#     Node 4, Type 0, BuildingBlock: GIZVER_clean_linker_0, # of connection points: 4
#     Node 5, Type 0, BuildingBlock: GIZVER_clean_linker_0, # of connection points: 4
#     Node 6, Type 1, BuildingBlock: NAHDIM_clean_sbu_0, # of connection points: 4
#     Node 7, Type 1, BuildingBlock: NAHDIM_clean_sbu_0, # of connection points: 4
#     Node 8, Type 1, BuildingBlock: NAHDIM_clean_sbu_0, # of connection points: 4
#     Node 9, Type 1, BuildingBlock: NAHDIM_clean_sbu_0, # of connection points: 4
#     Node 10, Type 1, BuildingBlock: NAHDIM_clean_sbu_0, # of connection points: 4
#     Node 11, Type 1, BuildingBlock: NAHDIM_clean_sbu_0, # of connection points: 4
#     Edge 12, Type (0, 1), None
#     Edge 13, Type (0, 1), None
#     Edge 14, Type (0, 1), None
#     Edge 15, Type (0, 1), None
#     Edge 16, Type (0, 1), None
#     Edge 17, Type (0, 1), None
#     Edge 18, Type (0, 1), None
#     Edge 19, Type (0, 1), None
#     Edge 20, Type (0, 1), None
#     Edge 21, Type (0, 1), None
#     Edge 22, Type (0, 1), None
#     Edge 23, Type (0, 1), None
#     Edge 24, Type (0, 1), None
#     Edge 25, Type (0, 1), None
#     Edge 26, Type (0, 1), None
#     Edge 27, Type (0, 1), None
#     Edge 28, Type (0, 1), None
#     Edge 29, Type (0, 1), None
#     Edge 30, Type (0, 1), None
#     Edge 31, Type (0, 1), None
#     Edge 32, Type (0, 1), None
#     Edge 33, Type (0, 1), None
#     Edge 34, Type (0, 1), None
#     Edge 35, Type (0, 1), None
# Relax obj value: 0.023
# Max RMSD: 0.129
# Mean RMSD: 0.095
data_MOF--net-nom--node1-NAHDIM_clean_sbu_0--node2-GIZVER_clean_linker_0--edge1-none
_symmetry_space_group_name_H-M    P1
_symmetry_Int_Tables_number       1
_symmetry_cell_setting            triclinic
loop_
_symmetry_equiv_pos_as_xyz
'x, y, z'
_cell_length_a     21.532776
_cell_length_b     22.399861
_cell_length_c     21.608653
_cell_angle_alpha  90.000994
_cell_angle_beta   90.520063
_cell_angle_gamma 121.33572
loop_
_atom_site_label
_atom_site_type_symbol
_atom_site_fract_x
_atom_site_fract_y
_atom_site_fract_z
_atom_type_partial_charge
H0 H 0.88583 0.55323 0.36927 0.0
H1 H 0.97057 0.57354 0.18626 0.0
H2 H 0.75814 0.39994 0.22935 0.0
H3 H 0.98794 0.66267 0.33707 0.0
H4 H 0.01488 0.67572 0.25813 0.0
H5 H 0.03219 0.6046 0.40923 0.0
H6 H 0.24467 0.64352 0.36611 0.0
H7 H 0.11694 0.66904 0.22617 0.0
C8 C 0.88038 0.53212 0.32305 0.0
C9 C 0.81555 0.47117 0.30505 0.0
C10 C 0.93668 0.56876 0.28054 0.0
C11 C 0.92835 0.54351 0.21965 0.0
C12 C 0.86418 0.48233 0.20081 0.0
C13 C 0.80891 0.4455 0.24431 0.0
C14 C 0.00121 0.6393 0.29772 0.0
C15 C 0.06639 0.63442 0.31511 0.0
C16 C 0.0745 0.61701 0.37587 0.0
C17 C 0.13864 0.6199 0.39468 0.0
C18 C 0.19391 0.63837 0.35117 0.0
C19 C 0.18726 0.65737 0.29042 0.0
C20 C 0.12246 0.65358 0.27245 0.0
H21 H 0.35584 0.89054 0.53961 0.0
H22 H 0.42398 0.97689 0.35759 0.0
H23 H 0.43644 0.79927 0.41319 0.0
H24 H 0.32814 0.97589 0.50039 0.0
H25 H 0.34998 0.00685 0.42265 0.0
H26 H 0.42251 0.02782 0.58359 0.0
H27 H 0.60479 0.23411 0.55043 0.0
H28 H 0.46375 0.11274 0.39953 0.0
C29 C 0.38017 0.89142 0.49565 0.0
C30 C 0.39636 0.83979 0.48202 0.0
C31 C 0.39229 0.94243 0.45152 0.0
C32 C 0.41887 0.94025 0.3929 0.0
C33 C 0.43473 0.88848 0.37869 0.0
C34 C 0.42689 0.84092 0.42468 0.0
C35 C 0.37181 0.99588 0.46519 0.0
C36 C 0.43736 0.06227 0.4887 0.0
C37 C 0.45626 0.06958 0.55185 0.0
C38 C 0.51685 0.13141 0.57439 0.0
C39 C 0.5596 0.18526 0.53279 0.0
C40 C 0.54004 0.17974 0.46996 0.0
C41 C 0.47938 0.11757 0.44795 0.0
H42 H 0.32758 0.44564 0.55446 0.0
H43 H 0.42422 0.45233 0.73132 0.0
H44 H 0.39712 0.62168 0.67619 0.0
H45 H 0.32236 0.34293 0.5927 0.0
H46 H 0.34565 0.33996 0.67174 0.0
H47 H 0.42142 0.39692 0.51286 0.0
H48 H 0.60704 0.37908 0.55237 0.0
H49 H 0.45909 0.35046 0.69768 0.0
C50 C 0.35417 0.47367 0.59678 0.0
C51 C 0.36025 0.53795 0.60959 0.0
C52 C 0.37839 0.4432 0.6401 0.0
C53 C 0.40904 0.47753 0.6966 0.0
C54 C 0.41656 0.54234 0.70967 0.0
C55 C 0.39432 0.57316 0.66503 0.0
C56 C 0.36542 0.37125 0.62859 0.0
C57 C 0.4344 0.37592 0.60798 0.0
C58 C 0.45538 0.38984 0.54573 0.0
C59 C 0.5178 0.39117 0.52533 0.0
C60 C 0.56042 0.38077 0.56838 0.0
C61 C 0.53887 0.36455 0.6303 0.0
C62 C 0.4764 0.36335 0.65008 0.0
H63 H 0.88175 0.32825 0.72683 0.0
H64 H 0.97612 0.41088 0.90614 0.0
H65 H 0.76805 0.38116 0.85722 0.0
H66 H 0.98818 0.32884 0.75776 0.0
H67 H 0.0147 0.34264 0.8376 0.0
H68 H 0.02669 0.43599 0.68897 0.0
H69 H 0.23467 0.61427 0.73814 0.0
H70 H 0.12084 0.44759 0.86842 0.0
C71 C 0.87971 0.35001 0.77104 0.0
C72 C 0.81804 0.35246 0.78664 0.0
C73 C 0.9374 0.37216 0.81352 0.0
C74 C 0.93318 0.39688 0.87225 0.0
C75 C 0.87263 0.40136 0.88787 0.0
C76 C 0.8164 0.38093 0.84413 0.0
C77 C 0.00119 0.3652 0.79752 0.0
C78 C 0.06555 0.4356 0.78144 0.0
C79 C 0.06965 0.46481 0.72287 0.0
C80 C 0.13016 0.5299 0.70737 0.0
C81 C 0.18633 0.56564 0.75116 0.0
C82 C 0.18463 0.53549 0.80864 0.0
C83 C 0.12299 0.47132 0.82415 0.0
H84 H 0.67515 0.11936 0.04086 0.0
H85 H 0.5783 0.02941 0.86406 0.0
H86 H 0.60553 0.22589 0.91924 0.0
H87 H 0.68028 0.02184 0.00257 0.0
H88 H 0.65692 0.99559 0.92354 0.0
H89 H 0.58126 0.97685 0.08247 0.0
H90 H 0.39562 0.77339 0.04306 0.0
H91 H 0.5435 0.89263 0.89767 0.0
C92 C 0.64851 0.1208 -0.00143 0.0
C93 C 0.64244 0.17901 -0.01421 0.0
C94 C 0.62423 0.06611 0.95525 0.0
C95 C 0.59353 0.06979 0.89878 0.0
C96 C 0.58602 0.12709 0.88574 0.0
C97 C 0.60832 0.18016 0.93038 0.0
C98 C 0.6372 0.00712 0.96671 0.0
C99 C 0.56823 0.94282 -0.01264 0.0
C100 C 0.54729 0.9358 0.04962 0.0
C101 C 0.48488 0.87473 0.07005 0.0
C102 C 0.44224 0.82169 0.02702 0.0
C103 C 0.46375 0.82698 0.9651 0.0
C104 C 0.52621 0.88823 0.94528 0.0
H105 H 0.64686 0.53599 0.05581 0.0
H106 H 0.57867 0.55418 0.23782 0.0
H107 H 0.56629 0.36414 0.18222 0.0
H108 H 0.67451 0.64903 0.09502 0.0
H109 H 0.65269 0.65814 0.17278 0.0
H110 H 0.58009 0.60653 0.01185 0.0
H111 H 0.39785 0.63063 0.04504 0.0
H112 H 0.53895 0.65034 0.1959 0.0
C113 C 0.62253 0.51255 0.09977 0.0
C114 C 0.60635 0.44473 0.11339 0.0
C115 C 0.61038 0.55143 0.1439 0.0
C116 C 0.5838 0.52266 0.20251 0.0
C117 C 0.56796 0.45504 0.21672 0.0
C118 C 0.57582 0.41533 0.17073 0.0
C119 C 0.63085 0.62535 0.13023 0.0
C120 C 0.56528 0.62618 0.10674 0.0
C121 C 0.54636 0.61457 0.04359 0.0
C122 C 0.48577 0.61583 0.02106 0.0
C123 C 0.44304 0.62695 0.06266 0.0
C124 C 0.46263 0.64103 0.12549 0.0
C125 C 0.52329 0.63951 0.14749 0.0
C126 C 0.5779 0.24238 0.43045 0.0
O127 O 0.64013 0.29633 0.44933 0.0
O128 O 0.69248 0.38634 0.32806 0.0
Zn129 Zn 0.59239 0.35176 0.3618 0.0
O130 O 0.59166 0.3987 0.44087 0.0
C131 C 0.55964 0.43157 0.28168 0.0
O132 O 0.59379 0.47871 0.32534 0.0
O133 O 0.54503 0.25047 0.38505 0.0
C134 C 0.53152 0.39057 0.45846 0.0
O135 O 0.47639 0.36423 0.41931 0.0
C136 C 0.75126 0.44027 0.34602 0.0
O137 O 0.75063 0.47452 0.39513 0.0
O138 O 0.54159 0.36871 0.29229 0.0
C139 C 0.36959 0.77721 0.52111 0.0
O140 O 0.39444 0.73538 0.51207 0.0
O141 O 0.32388 0.61901 0.58687 0.0
Zn142 Zn 0.25461 0.64941 0.56124 0.0
O143 O 0.20757 0.61147 0.47772 0.0
C144 C 0.14233 0.5552 0.64287 0.0
O145 O 0.12758 0.51025 0.5978 0.0
O146 O 0.31008 0.75369 0.54972 0.0
C147 C 0.1533 0.61601 0.4613 0.0
O148 O 0.12112 0.63307 0.50303 0.0
C149 C 0.32152 0.56331 0.57088 0.0
O150 O 0.27424 0.52267 0.52842 0.0
O151 O 0.18656 0.61983 0.63309 0.0
C152 C 0.57651 0.33983 0.67076 0.0
O153 O 0.63928 0.34898 0.6536 0.0
O154 O 0.69513 0.31606 0.76544 0.0
Zn155 Zn 0.5931 0.24671 0.73882 0.0
O156 O 0.58944 0.19618 0.6609 0.0
C157 C 0.56995 0.13954 0.822 0.0
O158 O 0.59614 0.12184 0.77555 0.0
O159 O 0.5433 0.29832 0.71519 0.0
C160 C 0.52906 0.14512 0.64164 0.0
O161 O 0.47311 0.11736 0.67892 0.0
C162 C 0.75122 0.31601 0.74802 0.0
O163 O 0.74494 0.27273 0.70395 0.0
O164 O 0.55227 0.18495 0.81312 0.0
C165 C 0.42609 0.76461 0.92466 0.0
O166 O 0.36331 0.711 0.94185 0.0
O167 O 0.30742 0.62214 0.83004 0.0
Zn168 Zn 0.40946 0.65484 0.85665 0.0
O169 O 0.41315 0.608 0.93457 0.0
C170 C 0.43258 0.5708 0.77342 0.0
O171 O 0.40635 0.52689 0.81985 0.0
O172 O 0.45928 0.75627 0.88023 0.0
C173 C 0.47353 0.61729 0.95381 0.0
O174 O 0.52947 0.64545 0.91651 0.0
C175 C 0.25137 0.56592 0.84736 0.0
O176 O 0.2577 0.52887 0.89136 0.0
O177 O 0.45028 0.6339 0.78234 0.0
C178 C 0.63314 0.40893 0.07431 0.0
O179 O 0.60826 0.34223 0.0833 0.0
O180 O 0.67889 0.29646 0.0085 0.0
Zn181 Zn 0.74817 0.39612 0.03418 0.0
O182 O 0.7952 0.40514 0.11769 0.0
C183 C 0.86045 0.41431 0.95242 0.0
O184 O 0.87525 0.38403 -0.00261 0.0
O185 O 0.69269 0.44492 0.04575 0.0
C186 C 0.84947 0.4639 0.13416 0.0
O187 O 0.88165 0.51321 0.09249 0.0
C188 C 0.68122 0.2431 0.02449 0.0
O189 O 0.72847 0.24969 0.06696 0.0
O190 O 0.8162 0.43466 0.96231 0.0
C191 C 0.42479 0.66584 0.16499 0.0
O192 O 0.36256 0.65757 0.14612 0.0
O193 O 0.31024 0.69534 0.26734 0.0
Zn194 Zn 0.41035 0.7608 0.23361 0.0
O195 O 0.41106 0.80844 0.15453 0.0
C196 C 0.44306 0.87333 0.31373 0.0
O197 O 0.40889 0.88631 0.27007 0.0
O198 O 0.45768 0.70683 0.21037 0.0
C199 C 0.4712 0.86045 0.13693 0.0
O200 O 0.52634 0.88925 0.17606 0.0
C201 C 0.25151 0.69061 0.2494 0.0
O202 O 0.2522 0.72555 0.20031 0.0
O203 O 0.46115 0.82855 0.30312 0.0
loop_
_geom_bond_atom_site_label_1
_geom_bond_atom_site_label_2
_geom_bond_distance
_geom_bond_site_symmetry_2
_ccdc_geom_bond_type
H0 C8 0.930 . S
H1 C11 0.930 . S
H2 C13 0.930 . S
H3 C14 0.970 1_655 S
H4 C14 0.970 . S
H5 C16 0.930 . S
H6 C18 0.930 . S
H7 C20 0.930 . S
C8 H0 0.930 . S
C8 C9 1.382 . S
C8 C10 1.426 . S
C9 C8 1.382 . S
C9 C13 1.389 . S
C10 C8 1.426 . S
C10 C11 1.375 . S
C10 C14 1.532 1_655 S
C11 H1 0.930 . S
C11 C10 1.375 . S
C11 C12 1.416 . S
C12 C11 1.416 . S
C12 C13 1.371 . S
C13 H2 0.930 . S
C13 C9 1.389 . S
C13 C12 1.371 . S
C14 H3 0.970 1_455 S
C14 H4 0.970 . S
C14 C10 1.532 1_455 S
C14 C15 1.499 . S
C15 C14 1.499 . S
C15 C16 1.370 . S
C15 C20 1.415 . S
C16 H5 0.930 . S
C16 C15 1.370 . S
C16 C17 1.407 . S
C17 C16 1.407 . S
C17 C18 1.365 . S
C18 H6 0.930 . S
C18 C17 1.365 . S
C18 C19 1.393 . S
C19 C18 1.393 . S
C19 C20 1.387 . S
C20 H7 0.930 . S
C20 C15 1.415 . S
C20 C19 1.387 . S
H21 C29 0.930 . S
H22 C32 0.930 . S
H23 C34 0.930 . S
H24 C35 0.970 1_565 S
H25 C35 0.970 . S
H26 C37 0.930 . S
H27 C39 0.930 . S
H28 C41 0.930 . S
C29 H21 0.930 . S
C29 C30 1.382 . S
C29 C31 1.426 . S
C30 C29 1.382 . S
C30 C34 1.389 . S
C31 C29 1.426 . S
C31 C32 1.375 . S
C31 C35 1.532 1_565 S
C32 H22 0.930 . S
C32 C31 1.375 . S
C32 C33 1.416 . S
C33 C32 1.416 . S
C33 C34 1.371 . S
C34 H23 0.930 . S
C34 C30 1.389 . S
C34 C33 1.371 . S
C35 H24 0.970 1_545 S
C35 H25 0.970 . S
C35 C31 1.532 1_545 S
C35 C36 1.499 . S
C36 C35 1.499 . S
C36 C37 1.370 . S
C36 C41 1.415 . S
C37 H26 0.930 . S
C37 C36 1.370 . S
C37 C38 1.407 . S
C38 C37 1.407 . S
C38 C39 1.365 . S
C39 H27 0.930 . S
C39 C38 1.365 . S
C39 C40 1.393 . S
C40 C39 1.393 . S
C40 C41 1.387 . S
C41 H28 0.930 . S
C41 C36 1.415 . S
C41 C40 1.387 . S
H42 C50 0.930 . S
H43 C53 0.930 . S
H44 C55 0.930 . S
H45 C56 0.970 . S
H46 C56 0.970 . S
H47 C58 0.930 . S
H48 C60 0.930 . S
H49 C62 0.930 . S
C50 H42 0.930 . S
C50 C51 1.382 . S
C50 C52 1.426 . S
C51 C50 1.382 . S
C51 C55 1.389 . S
C52 C50 1.426 . S
C52 C53 1.375 . S
C52 C56 1.532 . S
C53 H43 0.930 . S
C53 C52 1.375 . S
C53 C54 1.416 . S
C54 C53 1.416 . S
C54 C55 1.371 . S
C55 H44 0.930 . S
C55 C51 1.389 . S
C55 C54 1.371 . S
C56 H45 0.970 . S
C56 H46 0.970 . S
C56 C52 1.532 . S
C56 C57 1.499 . S
C57 C56 1.499 . S
C57 C58 1.370 . S
C57 C62 1.415 . S
C58 H47 0.930 . S
C58 C57 1.370 . S
C58 C59 1.407 . S
C59 C58 1.407 . S
C59 C60 1.365 . S
C60 H48 0.930 . S
C60 C59 1.365 . S
C60 C61 1.393 . S
C61 C60 1.393 . S
C61 C62 1.387 . S
C62 H49 0.930 . S
C62 C57 1.415 . S
C62 C61 1.387 . S
H63 C71 0.930 . S
H64 C74 0.930 . S
H65 C76 0.930 . S
H66 C77 0.970 1_655 S
H67 C77 0.970 . S
H68 C79 0.930 . S
H69 C81 0.930 . S
H70 C83 0.930 . S
C71 H63 0.930 . S
C71 C72 1.382 . S
C71 C73 1.426 . S
C72 C71 1.382 . S
C72 C76 1.389 . S
C73 C71 1.426 . S
C73 C74 1.375 . S
C73 C77 1.532 1_655 S
C74 H64 0.930 . S
C74 C73 1.375 . S
C74 C75 1.416 . S
C75 C74 1.416 . S
C75 C76 1.371 . S
C76 H65 0.930 . S
C76 C72 1.389 . S
C76 C75 1.371 . S
C77 H66 0.970 1_455 S
C77 H67 0.970 . S
C77 C73 1.532 1_455 S
C77 C78 1.499 . S
C78 C77 1.499 . S
C78 C79 1.370 . S
C78 C83 1.415 . S
C79 H68 0.930 . S
C79 C78 1.370 . S
C79 C80 1.407 . S
C80 C79 1.407 . S
C80 C81 1.365 . S
C81 H69 0.930 . S
C81 C80 1.365 . S
C81 C82 1.393 . S
C82 C81 1.393 . S
C82 C83 1.387 . S
C83 H70 0.930 . S
C83 C78 1.415 . S
C83 C82 1.387 . S
H84 C92 0.930 . S
H85 C95 0.930 . S
H86 C97 0.930 . S
H87 C98 0.970 1_554 S
H88 C98 0.980 . S
H89 C100 0.930 . S
H90 C102 0.930 . S
H91 C104 0.930 . S
C92 H84 0.930 . S
C92 C93 1.382 . S
C92 C94 1.426 1_554 S
C93 C92 1.382 . S
C93 C97 1.389 1_554 S
C94 C92 1.426 1_556 S
C94 C95 1.375 . S
C94 C98 1.532 . S
C95 H85 0.930 . S
C95 C94 1.375 . S
C95 C96 1.416 . S
C96 C95 1.416 . S
C96 C97 1.371 . S
C97 H86 0.930 . S
C97 C93 1.389 1_556 S
C97 C96 1.371 . S
C98 H87 0.970 1_556 S
C98 H88 0.980 . S
C98 C94 1.532 . S
C98 C99 1.499 1_546 S
C99 C98 1.499 1_564 S
C99 C100 1.370 . S
C99 C104 1.415 1_554 S
C100 H89 0.930 . S
C100 C99 1.370 . S
C100 C101 1.407 . S
C101 C100 1.407 . S
C101 C102 1.365 . S
C102 H90 0.930 . S
C102 C101 1.365 . S
C102 C103 1.393 1_554 S
C103 C102 1.393 1_556 S
C103 C104 1.387 . S
C104 H91 0.930 . S
C104 C99 1.415 1_556 S
C104 C103 1.387 . S
H105 C113 0.930 . S
H106 C116 0.930 . S
H107 C118 0.930 . S
H108 C119 0.970 . S
H109 C119 0.970 . S
H110 C121 0.930 . S
H111 C123 0.930 . S
H112 C125 0.930 . S
C113 H105 0.930 . S
C113 C114 1.382 . S
C113 C115 1.426 . S
C114 C113 1.382 . S
C114 C118 1.389 . S
C115 C113 1.426 . S
C115 C116 1.375 . S
C115 C119 1.532 . S
C116 H106 0.930 . S
C116 C115 1.375 . S
C116 C117 1.416 . S
C117 C116 1.416 . S
C117 C118 1.371 . S
C118 H107 0.930 . S
C118 C114 1.389 . S
C118 C117 1.371 . S
C119 H108 0.970 . S
C119 H109 0.970 . S
C119 C115 1.532 . S
C119 C120 1.499 . S
C120 C119 1.499 . S
C120 C121 1.370 . S
C120 C125 1.415 . S
C121 H110 0.930 . S
C121 C120 1.370 . S
C121 C122 1.407 . S
C122 C121 1.407 . S
C122 C123 1.365 . S
C123 H111 0.930 . S
C123 C122 1.365 . S
C123 C124 1.393 . S
C124 C123 1.393 . S
C124 C125 1.387 . S
C125 H112 0.930 . S
C125 C120 1.415 . S
C125 C124 1.387 . S
C126 O127 1.160 . S
C126 O133 1.185 . S
O127 C126 1.160 . S
O128 Zn129 1.899 . S
O128 C136 1.284 . S
Zn129 O128 1.899 . S
Zn129 O130 2.032 . S
Zn129 O133 2.086 . S
Zn129 O138 1.977 . S
O130 Zn129 2.032 . S
O130 C134 1.278 . S
C131 O132 1.203 . S
C131 O138 1.267 . S
O132 C131 1.203 . S
O133 C126 1.185 . S
O133 Zn129 2.086 . S
C134 O130 1.278 . S
C134 O135 1.211 . S
O135 C134 1.211 . S
C136 O128 1.284 . S
C136 O137 1.273 . S
O137 C136 1.273 . S
O138 Zn129 1.977 . S
O138 C131 1.267 . S
C139 O140 1.160 . S
C139 O146 1.185 . S
O140 C139 1.160 . S
O141 Zn142 1.899 . S
O141 C149 1.284 . S
Zn142 O141 1.899 . S
Zn142 O143 2.032 . S
Zn142 O146 2.086 . S
Zn142 O151 1.977 . S
O143 Zn142 2.032 . S
O143 C147 1.278 . S
C144 O145 1.203 . S
C144 O151 1.267 . S
O145 C144 1.203 . S
O146 C139 1.185 . S
O146 Zn142 2.086 . S
C147 O143 1.278 . S
C147 O148 1.211 . S
O148 C147 1.211 . S
C149 O141 1.284 . S
C149 O150 1.273 . S
O150 C149 1.273 . S
O151 Zn142 1.977 . S
O151 C144 1.267 . S
C152 O153 1.160 . S
C152 O159 1.185 . S
O153 C152 1.160 . S
O154 Zn155 1.899 . S
O154 C162 1.284 . S
Zn155 O154 1.899 . S
Zn155 O156 2.032 . S
Zn155 O159 2.086 . S
Zn155 O164 1.977 . S
O156 Zn155 2.032 . S
O156 C160 1.278 . S
C157 O158 1.203 . S
C157 O164 1.267 . S
O158 C157 1.203 . S
O159 C152 1.185 . S
O159 Zn155 2.086 . S
C160 O156 1.278 . S
C160 O161 1.211 . S
O161 C160 1.211 . S
C162 O154 1.284 . S
C162 O163 1.273 . S
O163 C162 1.273 . S
O164 Zn155 1.977 . S
O164 C157 1.267 . S
C165 O166 1.160 . S
C165 O172 1.185 . S
O166 C165 1.160 . S
O167 Zn168 1.899 . S
O167 C175 1.284 . S
Zn168 O167 1.899 . S
Zn168 O169 2.032 . S
Zn168 O172 2.086 . S
Zn168 O177 1.977 . S
O169 Zn168 2.032 . S
O169 C173 1.278 . S
C170 O171 1.203 . S
C170 O177 1.267 . S
O171 C170 1.203 . S
O172 C165 1.185 . S
O172 Zn168 2.086 . S
C173 O169 1.278 . S
C173 O174 1.211 . S
O174 C173 1.211 . S
C175 O167 1.284 . S
C175 O176 1.273 . S
O176 C175 1.273 . S
O177 Zn168 1.977 . S
O177 C170 1.267 . S
C178 O179 1.160 . S
C178 O185 1.185 . S
O179 C178 1.160 . S
O180 Zn181 1.899 . S
O180 C188 1.284 . S
Zn181 O180 1.899 . S
Zn181 O182 2.032 . S
Zn181 O185 2.086 . S
Zn181 O190 1.977 1_554 S
O182 Zn181 2.032 . S
O182 C186 1.278 . S
C183 O184 1.203 . S
C183 O190 1.267 . S
O184 C183 1.203 . S
O185 C178 1.185 . S
O185 Zn181 2.086 . S
C186 O182 1.278 . S
C186 O187 1.211 . S
O187 C186 1.211 . S
C188 O180 1.284 . S
C188 O189 1.273 . S
O189 C188 1.273 . S
O190 Zn181 1.977 1_556 S
O190 C183 1.267 . S
C191 O192 1.160 . S
C191 O198 1.185 . S
O192 C191 1.160 . S
O193 Zn194 1.899 . S
O193 C201 1.284 . S
Zn194 O193 1.899 . S
Zn194 O195 2.032 . S
Zn194 O198 2.086 . S
Zn194 O203 1.977 . S
O195 Zn194 2.032 . S
O195 C199 1.278 . S
C196 O197 1.203 . S
C196 O203 1.267 . S
O197 C196 1.203 . S
O198 C191 1.185 . S
O198 Zn194 2.086 . S
C199 O195 1.278 . S
C199 O200 1.211 . S
O200 C199 1.211 . S
C201 O193 1.284 . S
C201 O202 1.273 . S
O202 C201 1.273 . S
O203 Zn194 1.977 . S
O203 C196 1.267 . S
C201 C19 1.790 . S
C40 C126 1.504 . S
C51 C149 1.744 . S
C72 C162 1.543 . S
C165 C103 1.556 . S
C114 C178 1.385 . S
C30 C139 1.392 . S
C61 C152 1.556 . S
C82 C175 1.560 . S
C188 C93 1.734 . S
C191 C124 1.504 . S
C136 C9 1.768 . S
C17 C147 1.615 . S
C38 C160 1.420 . S
C170 C54 1.309 . S
C75 C183 1.360 . S
C199 C101 1.454 . S
C131 C117 1.250 . S
C196 C33 1.249 . S
C59 C134 1.456 . S
C144 C80 1.356 . S
C96 C157 1.310 . S
C122 C173 1.419 1_554 S
C12 C186 1.632 . S
