# Generated by pormake.
# Topology pts, (4,4)-cn, num edge types: 1
# Building blocks:
#     Node 0, Type 0, BuildingBlock: MUDLON_clean_linker_0, # of connection points: 4
#     Node 1, Type 0, BuildingBlock: MUDLON_clean_linker_0, # of connection points: 4
#     Node 2, Type 1, BuildingBlock: QUQFOY_clean_sbu_1, # of connection points: 4
#     Node 3, Type 1, BuildingBlock: QUQFOY_clean_sbu_1, # of connection points: 4
#     Edge 4, Type (0, 1), None
#     Edge 5, Type (0, 1), None
#     Edge 6, Type (0, 1), None
#     Edge 7, Type (0, 1), None
#     Edge 8, Type (0, 1), None
#     Edge 9, Type (0, 1), None
#     Edge 10, Type (0, 1), None
#     Edge 11, Type (0, 1), None
# Relax obj value: 0.112
# Max RMSD: 0.272
# Mean RMSD: 0.179
data_MOF--net-pts--node1-QUQFOY_clean_sbu_1--node2-MUDLON_clean_linker_0--edge1-none
_symmetry_space_group_name_H-M    P1
_symmetry_Int_Tables_number       1
_symmetry_cell_setting            triclinic
loop_
_symmetry_equiv_pos_as_xyz
'x, y, z'
_cell_length_a     21.495094
_cell_length_b     20.819906
_cell_length_c     24.977936
_cell_angle_alpha  90.176661
_cell_angle_beta   90.951696
_cell_angle_gamma 90.121324
loop_
_atom_site_label
_atom_site_type_symbol
_atom_site_fract_x
_atom_site_fract_y
_atom_site_fract_z
_atom_type_partial_charge
H0 H 0.70713 0.08289 0.12939 0.0
N1 N 0.65376 0.96792 0.09967 0.0
H2 H 0.77915 0.10071 0.20363 0.0
H3 H 0.68505 0.88517 0.17635 0.0
H4 H 0.75988 0.90208 0.25036 0.0
H5 H 0.71835 0.87769 1.05038 0.0
H6 H 0.78908 0.89133 0.97562 0.0
H7 H 0.66581 0.07683 1.0392 0.0
H8 H 0.73696 0.09147 0.96499 0.0
H9 H 0.60175 0.08506 0.1254 0.0
H10 H 0.55945 0.89359 0.06928 0.0
H11 H 0.49213 0.11181 0.12282 0.0
H12 H 0.44896 0.92104 0.06402 0.0
H13 H 0.17444 0.17034 0.16873 0.0
H14 H 0.10386 0.15452 0.24384 0.0
H15 H 0.07985 0.9559 0.19704 0.0
H16 H 0.14768 0.97262 0.12178 0.0
H17 H 0.18763 0.97668 1.03205 0.0
H18 H 0.11281 0.96066 0.95861 0.0
H19 H 0.06149 0.16107 0.96782 0.0
H20 H 0.13592 0.17612 1.04186 0.0
H21 H 0.29651 0.16061 0.06532 0.0
H22 H 0.40703 0.13294 0.06424 0.0
H23 H 0.3625 0.94161 0.11872 0.0
N24 N 0.20173 0.08651 0.09212 0.0
H25 H 0.25293 0.96859 0.11712 0.0
C26 C 0.68968 0.98258 0.14755 0.0
C27 C 0.71616 0.04361 0.15654 0.0
C28 C 0.75788 0.05374 0.19917 0.0
C29 C 0.77546 1.00277 0.23293 0.0
C30 C 0.74726 0.94237 0.22512 0.0
C31 C 0.70448 0.93262 0.18299 0.0
C32 C 0.68734 0.97608 1.05068 0.0
C33 C 0.72133 0.92406 1.03103 0.0
C34 C 0.76173 0.93209 0.98834 0.0
C35 C 0.76929 0.99274 0.96462 0.0
C36 C 0.73256 0.04419 0.98249 0.0
C37 C 0.69184 0.03593 1.02508 0.0
C38 C 0.58913 0.98653 0.09829 0.0
C39 C 0.56919 0.04853 0.11243 0.0
C40 C 0.506 0.06418 0.11032 0.0
C41 C 0.46137 0.01862 0.09331 0.0
C42 C 0.4817 0.95703 0.07833 0.0
C43 C 0.54483 0.94129 0.08098 0.0
C44 C 0.16713 0.07286 0.13984 0.0
C45 C 0.15475 0.12318 0.17547 0.0
C46 C 0.11444 0.11405 0.21824 0.0
C47 C 0.08634 0.0539 0.22649 0.0
C48 C 0.10119 1.00267 0.19225 0.0
C49 C 0.14045 1.01219 0.14902 0.0
C50 C 0.16676 0.07768 1.04288 0.0
C51 C 0.1611 1.01739 1.01771 0.0
C52 C 0.11826 1.00834 0.97554 0.0
C53 C 0.08052 0.0594 0.95765 0.0
C54 C 0.08954 0.12058 0.98058 0.0
C55 C 0.13206 0.12941 1.02288 0.0
C56 C 0.2662 0.06738 0.09182 0.0
C57 C 0.31083 0.11268 0.07682 0.0
C58 C 0.37397 0.09684 0.07663 0.0
C59 C 0.39395 0.03509 0.09181 0.0
C60 C 0.34894 0.98939 0.1062 0.0
C61 C 0.28578 1.00514 0.10586 0.0
H62 H 0.89086 0.82747 0.61861 0.0
N63 N -0.00311 0.75871 0.59815 0.0
H64 H 0.86977 0.88898 0.70042 0.0
H65 H 0.06356 0.76085 0.68879 0.0
H66 H 0.04037 0.8185 0.77197 0.0
H67 H 0.01061 0.88766 0.58421 0.0
H68 H -0.00611 0.9494 0.503 0.0
H69 H -0.03017 0.71269 0.49615 0.0
H70 H -0.04529 0.77478 0.41523 0.0
H71 H 0.87861 0.71292 0.58257 0.0
H72 H 0.06782 0.65645 0.61574 0.0
H73 H 0.84642 0.60022 0.58146 0.0
H74 H 0.03607 0.54392 0.61832 0.0
H75 H 0.80392 0.18767 0.62122 0.0
H76 H 0.81786 0.12245 0.70223 0.0
H77 H -0.04815 0.25938 0.76385 0.0
H78 H -0.05818 0.32199 0.682 0.0
H79 H -0.04415 0.20651 0.58136 0.0
H80 H -0.02436 0.14501 0.49973 0.0
H81 H 0.83071 0.25005 0.41677 0.0
H82 H 0.80806 0.30864 0.49959 0.0
H83 H 0.79653 0.39593 0.62797 0.0
H84 H 0.82786 0.50883 0.63165 0.0
H85 H 0.00619 0.45768 0.56597 0.0
N86 N 0.86308 0.29583 0.59531 0.0
H87 H -0.02414 0.34504 0.56634 0.0
C88 C -0.02009 0.79101 0.64715 0.0
C89 C 0.92389 0.82555 0.65176 0.0
C90 C 0.91183 0.86056 0.69838 0.0
C91 C -0.04626 0.85857 0.74204 0.0
C92 C 0.00748 0.82076 0.73868 0.0
C93 C 0.0208 0.78802 0.69136 0.0
C94 C -0.01351 0.7951 0.54879 0.0
C95 C -0.00364 0.86221 0.54819 0.0
C96 C -0.01257 0.89781 0.50137 0.0
C97 C -0.02857 0.86714 0.45299 0.0
C98 C -0.03427 0.79998 0.45221 0.0
C99 C -0.02633 0.76436 0.49922 0.0
C100 C -0.02408 0.69273 0.59832 0.0
C101 C 0.91307 0.67605 0.59009 0.0
C102 C 0.89477 0.61145 0.58995 0.0
C103 C 0.9386 0.56225 0.59947 0.0
C104 C 0.0011 0.5798 0.60933 0.0
C105 C 0.01944 0.64419 0.60836 0.0
C106 C 0.87134 0.26006 0.6448 0.0
C107 C 0.83661 0.2035 0.652 0.0
C108 C 0.84461 0.16627 0.6981 0.0
C109 C 0.88567 0.18633 0.73902 0.0
C110 C 0.91958 0.24336 0.73279 0.0
C111 C 0.91357 0.27926 0.68575 0.0
C112 C 0.87907 0.26128 0.54701 0.0
C113 C 0.92768 0.2159 0.54594 0.0
C114 C -0.06078 0.18091 0.49924 0.0
C115 C 0.90446 0.19271 0.45223 0.0
C116 C 0.85815 0.24013 0.45256 0.0
C117 C 0.84508 0.27343 0.49972 0.0
C118 C 0.88322 0.36219 0.59622 0.0
C119 C 0.84239 0.40941 0.61458 0.0
C120 C 0.86034 0.47403 0.61616 0.0
C121 C 0.91957 0.49309 0.59873 0.0
C122 C -0.03942 0.44528 0.58053 0.0
C123 C -0.057 0.38058 0.57997 0.0
O124 O 0.85806 0.96202 0.2877 0.0
Cd125 Cd -0.05603 0.96476 0.3258 0.0
Cd126 Cd 0.92672 0.09295 0.32608 0.0
O127 O 0.84826 0.06721 0.28201 0.0
O128 O -0.04035 0.87768 0.35714 0.0
O129 O -0.04693 0.96639 0.40571 0.0
C130 C -0.03879 0.90503 0.40359 0.0
C131 C 0.91501 0.15454 0.40341 0.0
C132 C 0.82836 1.01102 0.27114 0.0
C133 C 0.03664 0.04599 0.26633 0.0
O134 O 0.00851 0.09526 0.28395 0.0
O135 O 0.01799 0.98979 0.2782 0.0
O136 O 0.90877 0.17993 0.35658 0.0
O137 O 0.92878 0.09434 0.40637 0.0
O138 O 0.83223 0.06037 0.9106 0.0
Cd139 Cd 0.90782 0.08774 0.86578 0.0
Cd140 Cd 0.93332 0.96102 0.86663 0.0
O141 O 0.8537 0.9566 0.91169 0.0
O142 O 0.89341 0.175 0.83454 0.0
O143 O 0.901 0.0865 0.78557 0.0
C144 C 0.89339 0.1479 0.78804 0.0
C145 C -0.05683 0.89755 0.79027 0.0
C146 C 0.81962 1.00351 0.92571 0.0
C147 C 0.02725 0.04752 0.92036 0.0
O148 O 0.01316 0.99031 0.90698 0.0
O149 O -0.00814 0.09375 0.90685 0.0
O150 O -0.04703 0.87397 0.83734 0.0
O151 O 0.92684 0.957 0.78647 0.0
loop_
_geom_bond_atom_site_label_1
_geom_bond_atom_site_label_2
_geom_bond_distance
_geom_bond_site_symmetry_2
_ccdc_geom_bond_type
H0 C27 0.929 . S
N1 C26 1.433 . S
N1 C32 1.435 1_554 S
N1 C38 1.423 . S
H2 C28 0.930 . S
H3 C31 0.931 . S
H4 C30 0.929 . S
H5 C33 0.947 . S
H6 C34 0.932 . S
H7 C37 0.929 . S
H8 C36 0.931 . S
H9 C39 0.929 . S
H10 C43 0.932 1_565 S
H11 C40 0.931 . S
H12 C42 0.929 1_565 S
H13 C45 0.929 . S
H14 C46 0.930 . S
H15 C48 0.929 . S
H16 C49 0.931 . S
H17 C51 0.947 . S
H18 C52 0.932 . S
H19 C54 0.931 . S
H20 C55 0.929 . S
H21 C57 0.929 . S
H22 C58 0.931 . S
H23 C60 0.929 1_565 S
N24 C44 1.433 . S
N24 C50 1.435 1_554 S
N24 C56 1.423 . S
H25 C61 0.932 1_565 S
C26 N1 1.433 . S
C26 C27 1.363 . S
C26 C31 1.370 1_545 S
C27 H0 0.929 . S
C27 C26 1.363 . S
C27 C28 1.385 . S
C28 H2 0.930 . S
C28 C27 1.385 . S
C28 C29 1.357 . S
C29 C28 1.357 . S
C29 C30 1.406 1_545 S
C30 H4 0.929 . S
C30 C29 1.406 1_565 S
C30 C31 1.391 . S
C31 H3 0.931 . S
C31 C26 1.370 1_565 S
C31 C30 1.391 . S
C32 N1 1.435 1_556 S
C32 C33 1.357 1_546 S
C32 C37 1.371 . S
C33 H5 0.947 . S
C33 C32 1.357 1_564 S
C33 C34 1.390 1_554 S
C34 H6 0.932 . S
C34 C33 1.390 1_556 S
C34 C35 1.383 1_565 S
C35 C34 1.383 1_545 S
C35 C36 1.393 . S
C36 H8 0.931 . S
C36 C35 1.393 . S
C36 C37 1.382 . S
C37 H7 0.929 . S
C37 C32 1.371 . S
C37 C36 1.382 . S
C38 N1 1.423 . S
C38 C39 1.362 . S
C38 C43 1.388 1_554 S
C39 H9 0.929 . S
C39 C38 1.362 . S
C39 C40 1.376 . S
C40 H11 0.931 . S
C40 C39 1.376 . S
C40 C41 1.396 . S
C41 C40 1.396 . S
C41 C42 1.348 1_554 S
C41 C59 1.472 . S
C42 H12 0.929 1_545 S
C42 C41 1.348 1_556 S
C42 C43 1.443 . S
C43 H10 0.932 1_545 S
C43 C38 1.388 1_556 S
C43 C42 1.443 . S
C44 N24 1.433 . S
C44 C45 1.363 . S
C44 C49 1.370 1_545 S
C45 H13 0.929 . S
C45 C44 1.363 . S
C45 C46 1.385 . S
C46 H14 0.930 . S
C46 C45 1.385 . S
C46 C47 1.357 . S
C47 C46 1.357 . S
C47 C48 1.406 1_545 S
C48 H15 0.929 . S
C48 C47 1.406 1_565 S
C48 C49 1.391 . S
C49 H16 0.931 . S
C49 C44 1.370 1_565 S
C49 C48 1.391 . S
C50 N24 1.435 1_556 S
C50 C51 1.357 1_546 S
C50 C55 1.371 . S
C51 H17 0.947 . S
C51 C50 1.357 1_564 S
C51 C52 1.390 1_554 S
C52 H18 0.932 . S
C52 C51 1.390 1_556 S
C52 C53 1.383 1_565 S
C53 C52 1.383 1_545 S
C53 C54 1.393 . S
C54 H19 0.931 . S
C54 C53 1.393 . S
C54 C55 1.382 . S
C55 H20 0.929 . S
C55 C50 1.371 . S
C55 C54 1.382 . S
C56 N24 1.423 . S
C56 C57 1.362 . S
C56 C61 1.388 1_554 S
C57 H21 0.929 . S
C57 C56 1.362 . S
C57 C58 1.376 . S
C58 H22 0.931 . S
C58 C57 1.376 . S
C58 C59 1.396 . S
C59 C41 1.472 . S
C59 C58 1.396 . S
C59 C60 1.348 1_554 S
C60 H23 0.929 1_545 S
C60 C59 1.348 1_556 S
C60 C61 1.443 . S
C61 H25 0.932 1_545 S
C61 C56 1.388 1_556 S
C61 C60 1.443 . S
H62 C89 0.929 . S
N63 C88 1.433 . S
N63 C94 1.435 . S
N63 C100 1.423 . S
H64 C90 0.930 . S
H65 C93 0.931 . S
H66 C92 0.929 . S
H67 C95 0.930 . S
H68 C96 0.932 . S
H69 C99 0.929 . S
H70 C98 0.931 . S
H71 C101 0.929 . S
H72 C105 0.932 1_455 S
H73 C102 0.931 . S
H74 C104 0.929 1_455 S
H75 C107 0.929 . S
H76 C108 0.930 . S
H77 C110 0.929 . S
H78 C111 0.931 . S
H79 C113 0.930 . S
H80 C114 0.932 . S
H81 C116 0.931 . S
H82 C117 0.929 . S
H83 C119 0.929 . S
H84 C120 0.931 . S
H85 C122 0.929 1_455 S
N86 C106 1.433 . S
N86 C112 1.435 . S
N86 C118 1.423 . S
H87 C123 0.932 1_455 S
C88 N63 1.433 . S
C88 C89 1.363 . S
C88 C93 1.370 1_655 S
C89 H62 0.929 . S
C89 C88 1.363 . S
C89 C90 1.385 . S
C90 H64 0.930 . S
C90 C89 1.385 . S
C90 C91 1.357 . S
C91 C90 1.357 . S
C91 C92 1.406 1_655 S
C92 H66 0.929 . S
C92 C91 1.406 1_455 S
C92 C93 1.391 . S
C93 H65 0.931 . S
C93 C88 1.370 1_455 S
C93 C92 1.391 . S
C94 N63 1.435 . S
C94 C95 1.358 1_655 S
C94 C99 1.371 . S
C95 H67 0.930 . S
C95 C94 1.358 1_455 S
C95 C96 1.405 . S
C96 H68 0.932 . S
C96 C95 1.405 . S
C96 C97 1.383 1_455 S
C97 C96 1.383 1_655 S
C97 C98 1.393 . S
C98 H70 0.931 . S
C98 C97 1.393 . S
C98 C99 1.382 . S
C99 H69 0.929 . S
C99 C94 1.371 . S
C99 C98 1.382 . S
C100 N63 1.423 . S
C100 C101 1.362 . S
C100 C105 1.388 . S
C101 H71 0.929 . S
C101 C100 1.362 . S
C101 C102 1.376 . S
C102 H73 0.931 . S
C102 C101 1.376 . S
C102 C103 1.396 . S
C103 C102 1.396 . S
C103 C104 1.348 . S
C103 C121 1.472 . S
C104 H74 0.929 1_655 S
C104 C103 1.348 . S
C104 C105 1.443 . S
C105 H72 0.932 1_655 S
C105 C100 1.388 . S
C105 C104 1.443 . S
C106 N86 1.433 . S
C106 C107 1.363 . S
C106 C111 1.370 1_655 S
C107 H75 0.929 . S
C107 C106 1.363 . S
C107 C108 1.385 . S
C108 H76 0.930 . S
C108 C107 1.385 . S
C108 C109 1.357 . S
C109 C108 1.357 . S
C109 C110 1.406 1_655 S
C110 H77 0.929 . S
C110 C109 1.406 1_455 S
C110 C111 1.391 . S
C111 H78 0.931 . S
C111 C106 1.370 1_455 S
C111 C110 1.391 . S
C112 N86 1.435 . S
C112 C113 1.358 1_655 S
C112 C117 1.371 . S
C113 H79 0.930 . S
C113 C112 1.358 1_455 S
C113 C114 1.405 . S
C114 H80 0.932 . S
C114 C113 1.405 . S
C114 C115 1.383 1_455 S
C115 C114 1.383 1_655 S
C115 C116 1.393 . S
C116 H81 0.931 . S
C116 C115 1.393 . S
C116 C117 1.382 . S
C117 H82 0.929 . S
C117 C112 1.371 . S
C117 C116 1.382 . S
C118 N86 1.423 . S
C118 C119 1.362 . S
C118 C123 1.388 . S
C119 H83 0.929 . S
C119 C118 1.362 . S
C119 C120 1.376 . S
C120 H84 0.931 . S
C120 C119 1.376 . S
C120 C121 1.396 . S
C121 C103 1.472 . S
C121 C120 1.396 . S
C121 C122 1.348 . S
C122 H85 0.929 1_655 S
C122 C121 1.348 . S
C122 C123 1.443 . S
C123 H87 0.932 1_655 S
C123 C118 1.388 . S
C123 C122 1.443 . S
O124 Cd125 2.223 1_655 S
O124 C132 1.315 . S
Cd125 O124 2.223 1_455 S
Cd125 O128 2.297 1_455 S
Cd125 O129 2.439 1_455 S
Cd125 O135 2.240 1_565 S
Cd126 O127 2.240 1_545 S
Cd126 O134 2.223 1_655 S
Cd126 O136 2.297 1_655 S
Cd126 O137 2.439 1_655 S
O127 Cd126 2.240 1_565 S
O127 C132 1.279 . S
O128 Cd125 2.297 1_655 S
O128 C130 1.247 . S
O129 Cd125 2.439 1_655 S
O129 C130 1.208 . S
C130 O128 1.247 . S
C130 O129 1.208 . S
C131 O136 1.247 . S
C131 O137 1.208 . S
C132 O124 1.315 . S
C132 O127 1.279 . S
C133 O134 1.315 . S
C133 O135 1.279 . S
O134 Cd126 2.223 1_455 S
O134 C133 1.315 . S
O135 Cd125 2.240 1_545 S
O135 C133 1.279 . S
O136 Cd126 2.297 1_455 S
O136 C131 1.247 . S
O137 Cd126 2.439 1_455 S
O137 C131 1.208 . S
O138 Cd139 2.223 1_655 S
O138 C146 1.315 . S
Cd139 O138 2.223 1_455 S
Cd139 O142 2.297 1_455 S
Cd139 O143 2.439 1_455 S
Cd139 O149 2.240 1_545 S
Cd140 O141 2.240 1_565 S
Cd140 O148 2.223 1_655 S
Cd140 O150 2.297 1_655 S
Cd140 O151 2.439 1_655 S
O141 Cd140 2.240 1_545 S
O141 C146 1.279 . S
O142 Cd139 2.297 1_655 S
O142 C144 1.247 . S
O143 Cd139 2.439 1_655 S
O143 C144 1.208 . S
C144 O142 1.247 . S
C144 O143 1.208 . S
C145 O150 1.247 . S
C145 O151 1.208 . S
C146 O138 1.315 . S
C146 O141 1.279 . S
C147 O148 1.315 . S
C147 O149 1.279 . S
O148 Cd140 2.223 1_455 S
O148 C147 1.315 . S
O149 Cd139 2.240 1_565 S
O149 C147 1.279 . S
O150 Cd140 2.297 1_455 S
O150 C145 1.247 . S
O151 Cd140 2.439 1_455 S
O151 C145 1.208 . S
C133 C47 2.025 . S
C144 C109 1.841 . S
C132 C29 2.131 1_565 S
C145 C91 1.929 1_455 S
C147 C53 2.282 1_565 S
C131 C115 1.981 1_455 S
C146 C35 2.234 . S
C97 C130 1.938 . S
