# Generated by pormake.
# Topology tsx, (6,3)-cn, num edge types: 1
# Building blocks:
#     Node 0, Type 0, BuildingBlock: CIFDUS_clean_sbu_1, # of connection points: 6
#     Node 1, Type 0, BuildingBlock: CIFDUS_clean_sbu_1, # of connection points: 6
#     Node 2, Type 1, BuildingBlock: INOVEN_clean_linker_0, # of connection points: 3
#     Node 3, Type 1, BuildingBlock: INOVEN_clean_linker_0, # of connection points: 3
#     Node 4, Type 1, BuildingBlock: INOVEN_clean_linker_0, # of connection points: 3
#     Node 5, Type 1, BuildingBlock: INOVEN_clean_linker_0, # of connection points: 3
#     Edge 6, Type (0, 1), BuildingBlock: EYOCIG_clean_linker_4, # of connection points: 2
#     Edge 7, Type (0, 1), BuildingBlock: EYOCIG_clean_linker_4, # of connection points: 2
#     Edge 8, Type (0, 1), BuildingBlock: EYOCIG_clean_linker_4, # of connection points: 2
#     Edge 9, Type (0, 1), BuildingBlock: EYOCIG_clean_linker_4, # of connection points: 2
#     Edge 10, Type (0, 1), BuildingBlock: EYOCIG_clean_linker_4, # of connection points: 2
#     Edge 11, Type (0, 1), BuildingBlock: EYOCIG_clean_linker_4, # of connection points: 2
#     Edge 12, Type (0, 1), BuildingBlock: EYOCIG_clean_linker_4, # of connection points: 2
#     Edge 13, Type (0, 1), BuildingBlock: EYOCIG_clean_linker_4, # of connection points: 2
#     Edge 14, Type (0, 1), BuildingBlock: EYOCIG_clean_linker_4, # of connection points: 2
#     Edge 15, Type (0, 1), BuildingBlock: EYOCIG_clean_linker_4, # of connection points: 2
#     Edge 16, Type (0, 1), BuildingBlock: EYOCIG_clean_linker_4, # of connection points: 2
#     Edge 17, Type (0, 1), BuildingBlock: EYOCIG_clean_linker_4, # of connection points: 2
# Relax obj value: 0.089
# Max RMSD: 0.134
# Mean RMSD: 0.101
data_MOF--net-tsx--node1-CIFDUS_clean_sbu_1--node2-INOVEN_clean_linker_0--edge1-EYOCIG_clean_linker_4
_symmetry_space_group_name_H-M    P1
_symmetry_Int_Tables_number       1
_symmetry_cell_setting            triclinic
loop_
_symmetry_equiv_pos_as_xyz
'x, y, z'
_cell_length_a     14.084989
_cell_length_b     17.764183
_cell_length_c     28.009867
_cell_angle_alpha  96.095233
_cell_angle_beta   105.59443
_cell_angle_gamma 92.51205
loop_
_atom_site_label
_atom_site_type_symbol
_atom_site_fract_x
_atom_site_fract_y
_atom_site_fract_z
_atom_type_partial_charge
O0 O 1.00295 0.12974 -0.00967 0.0
Mn1 Mn 0.07256 0.02807 -0.01381 0.0
O2 O 0.85338 0.10905 0.9332 0.0
Mn3 Mn 0.86708 0.01133 0.90631 0.0
O4 O 0.14078 0.92606 0.97933 0.0
O5 O 0.20394 0.08656 0.01681 0.0
Mn6 Mn 0.2832 0.03569 0.05984 0.0
O7 O 0.06153 0.01034 0.05709 0.0
O8 O 0.30129 0.9481 0.02248 0.0
O9 O 0.08602 0.04457 0.9154 0.0
O10 O 0.93884 0.00684 0.85981 0.0
O11 O 0.35211 0.12725 0.06067 0.0
O12 O 0.21764 0.02159 0.10785 0.0
C13 C 0.86874 0.9206 0.95168 0.0
C14 C 0.91846 0.15129 0.96719 0.0
C15 C 0.23008 0.90643 -0.00779 0.0
C16 C 0.27246 0.14111 0.0282 0.0
C17 C 0.12438 0.01019 0.09992 0.0
C18 C 0.03027 0.02858 0.87055 0.0
O19 O 0.94084 0.97036 0.95652 0.0
O20 O 0.79205 0.92806 0.91539 0.0
O21 O 0.50367 0.62896 0.49027 0.0
Mn22 Mn 0.57355 0.5274 0.48631 0.0
O23 O 0.35424 0.608 0.43303 0.0
Mn24 Mn 0.36829 0.51029 0.40626 0.0
O25 O 0.64206 0.4255 0.47965 0.0
O26 O 0.70478 0.58607 0.51702 0.0
Mn27 Mn 0.78401 0.53541 0.56019 0.0
O28 O 0.56225 0.50981 0.55719 0.0
O29 O 0.80245 0.44777 0.52299 0.0
O30 O 0.58727 0.54379 0.41556 0.0
O31 O 0.44028 0.50583 0.35986 0.0
O32 O 0.85278 0.62701 0.56098 0.0
O33 O 0.71821 0.52138 0.60812 0.0
C34 C 0.36998 0.41963 0.4517 0.0
C35 C 0.41916 0.65037 0.46703 0.0
C36 C 0.73141 0.40599 0.49267 0.0
C37 C 0.77319 0.6407 0.5284 0.0
C38 C 0.62494 0.50986 0.60009 0.0
C39 C 0.53168 0.52769 0.37068 0.0
O40 O 0.442 0.46948 0.45657 0.0
O41 O 0.29336 0.42694 0.41534 0.0
H42 H 0.14027 1.00057 0.47231 0.0
H43 H 0.20931 0.89719 0.34092 0.0
H44 H 1.00006 0.06757 0.32799 0.0
N45 N 1.00758 0.0906 0.42575 0.0
N46 N 0.93728 0.1218 0.40008 0.0
C47 C 0.12964 0.99553 0.43236 0.0
C48 C 0.18168 0.94336 0.41004 0.0
C49 C 0.06241 0.03979 0.40296 0.0
C50 C 0.05018 0.03287 0.35114 0.0
C51 C 0.10348 0.98219 0.329 0.0
C52 C 0.16865 0.937 0.3583 0.0
H53 H 0.99257 0.01388 0.49761 0.0
H54 H 0.94641 0.93731 0.63053 0.0
H55 H 0.16136 0.12222 0.64281 0.0
N56 N 0.13632 0.12206 0.54363 0.0
N57 N 0.21057 0.16375 0.56844 0.0
C58 C 1.01023 0.01927 0.53784 0.0
C59 C 0.96143 0.96935 0.56062 0.0
C60 C 0.08406 0.07402 0.56712 0.0
C61 C 0.10579 0.07981 0.61952 0.0
C62 C 0.0555 0.03121 0.6421 0.0
C63 C 0.98397 0.97584 0.61275 0.0
H64 H 0.63918 0.5013 0.97236 0.0
H65 H 0.70901 0.39787 0.84121 0.0
H66 H 0.49919 0.56785 0.82788 0.0
N67 N 0.50633 0.59106 0.92559 0.0
N68 N 0.43601 0.62214 0.89983 0.0
C69 C 0.62869 0.49619 0.93243 0.0
C70 C 0.68099 0.4441 0.91023 0.0
C71 C 0.56139 0.54029 0.90292 0.0
C72 C 0.54935 0.53328 0.85112 0.0
C73 C 0.60291 0.48266 0.82909 0.0
C74 C 0.66815 0.43763 0.8585 0.0
H75 H 0.49152 0.51476 -0.00229 0.0
H76 H 0.44692 0.43718 0.13067 0.0
H77 H 0.66157 0.62228 0.14289 0.0
N78 N 0.63555 0.62274 0.04369 0.0
N79 N 0.70992 0.66435 0.06844 0.0
C80 C 0.5096 0.51987 0.03794 0.0
C81 C 0.46116 0.46971 0.06074 0.0
C82 C 0.58362 0.5745 0.0672 0.0
C83 C 0.60587 0.57996 0.11961 0.0
C84 C 0.55591 0.53115 0.14221 0.0
C85 C 0.48422 0.47587 0.11288 0.0
C86 C 0.28591 0.2794 0.00699 0.0
C87 C 0.26366 0.2144 0.01087 0.0
C88 C 0.33645 0.35225 0.01539 0.0
C89 C 0.39324 0.40773 0.03176 0.0
C90 C 0.2872 0.7789 0.95579 0.0
C91 C 0.25381 0.83544 0.97037 0.0
C92 C 0.33702 0.71905 0.93852 0.0
C93 C 0.3833 0.67254 0.92186 0.0
C94 C 0.84448 0.81399 0.00622 0.0
C95 C 0.86657 0.86452 -0.01526 0.0
C96 C 0.80207 0.75738 0.02772 0.0
C97 C 0.75942 0.71254 0.04575 0.0
C98 C 0.85751 0.28822 0.97351 0.0
C99 C 0.89621 0.2289 0.97581 0.0
C100 C 0.80009 0.34965 0.95917 0.0
C101 C 0.74493 0.3946 0.93963 0.0
C102 C 0.78652 0.77885 0.50696 0.0
C103 C 0.76433 0.71388 0.51093 0.0
C104 C 0.83699 0.85173 0.5153 0.0
C105 C 0.8937 0.90725 0.53166 0.0
C106 C 0.78884 0.27854 0.45632 0.0
C107 C 0.7554 0.33506 0.47088 0.0
C108 C 0.83861 0.21872 0.43898 0.0
C109 C 0.88476 0.17221 0.42223 0.0
C110 C 0.34568 0.31311 0.50629 0.0
C111 C 0.3678 0.36362 0.48481 0.0
C112 C 0.30316 0.25654 0.52777 0.0
C113 C 0.26034 0.21179 0.54578 0.0
C114 C 0.35799 0.78724 0.47319 0.0
C115 C 0.39672 0.72794 0.47554 0.0
C116 C 0.30062 0.8487 0.45885 0.0
C117 C 0.24555 0.89373 0.43935 0.0
C118 C 0.0791 0.98625 0.18217 0.0
C119 C 0.09017 0.9963 0.14212 0.0
C120 C 0.08236 0.97944 0.23223 0.0
C121 C 0.0935 0.97941 0.27637 0.0
C122 C 0.08727 0.04014 0.78989 0.0
C123 C 0.07045 0.0371 0.82953 0.0
C124 C 0.08802 0.04046 0.7398 0.0
C125 C 0.07598 0.03853 0.69551 0.0
C126 C 0.57924 0.48623 0.68229 0.0
C127 C 0.59053 0.49612 0.64225 0.0
C128 C 0.58222 0.47962 0.73234 0.0
C129 C 0.59313 0.47977 0.77648 0.0
C130 C 0.58873 0.53941 0.29006 0.0
C131 C 0.57196 0.53632 0.32971 0.0
C132 C 0.58923 0.5399 0.23995 0.0
C133 C 0.57682 0.5382 0.19564 0.0
loop_
_geom_bond_atom_site_label_1
_geom_bond_atom_site_label_2
_geom_bond_distance
_geom_bond_site_symmetry_2
_ccdc_geom_bond_type
O0 Mn1 2.163 1_654 S
O0 C14 1.242 1_554 S
Mn1 O0 2.163 1_456 S
Mn1 O4 2.160 1_545 S
Mn1 O5 2.221 1_556 S
Mn1 O7 2.163 1_556 S
Mn1 O9 2.160 . S
Mn1 O19 2.221 1_445 S
O2 Mn3 2.087 1_545 S
O2 C14 1.256 . S
Mn3 O2 2.087 1_565 S
Mn3 O10 2.089 1_565 S
Mn3 O19 2.290 . S
Mn3 O20 2.251 . S
O4 Mn1 2.160 1_565 S
O4 C15 1.239 1_556 S
O5 Mn1 2.221 1_554 S
O5 Mn6 2.290 . S
O5 C16 1.278 . S
Mn6 O5 2.290 . S
Mn6 O8 2.089 1_545 S
Mn6 O11 2.251 . S
Mn6 O12 2.087 . S
O7 Mn1 2.163 1_554 S
O7 C17 1.244 . S
O8 Mn6 2.089 1_565 S
O8 C15 1.256 . S
O9 Mn1 2.160 . S
O9 C18 1.239 . S
O10 Mn3 2.089 1_545 S
O10 C18 1.256 1_655 S
O11 Mn6 2.251 . S
O11 C16 1.241 . S
O12 Mn6 2.087 . S
O12 C17 1.256 . S
C13 O19 1.278 . S
C13 O20 1.241 . S
C14 O0 1.242 1_556 S
C14 O2 1.256 . S
C15 O4 1.239 1_554 S
C15 O8 1.256 . S
C16 O5 1.278 . S
C16 O11 1.241 . S
C17 O7 1.244 . S
C17 O12 1.256 . S
C18 O9 1.239 . S
C18 O10 1.256 1_455 S
O19 Mn1 2.221 1_665 S
O19 Mn3 2.290 . S
O19 C13 1.278 . S
O20 Mn3 2.251 . S
O20 C13 1.241 . S
O21 Mn22 2.163 . S
O21 C35 1.244 . S
Mn22 O21 2.163 . S
Mn22 O25 2.160 . S
Mn22 O26 2.221 . S
Mn22 O28 2.163 . S
Mn22 O30 2.160 . S
Mn22 O40 2.221 . S
O23 Mn24 2.087 . S
O23 C35 1.256 . S
Mn24 O23 2.087 . S
Mn24 O31 2.089 . S
Mn24 O40 2.290 . S
Mn24 O41 2.251 . S
O25 Mn22 2.160 . S
O25 C36 1.239 . S
O26 Mn22 2.221 . S
O26 Mn27 2.290 . S
O26 C37 1.278 . S
Mn27 O26 2.290 . S
Mn27 O29 2.089 . S
Mn27 O32 2.251 . S
Mn27 O33 2.087 . S
O28 Mn22 2.163 . S
O28 C38 1.244 . S
O29 Mn27 2.089 . S
O29 C36 1.256 . S
O30 Mn22 2.160 . S
O30 C39 1.239 . S
O31 Mn24 2.089 . S
O31 C39 1.256 . S
O32 Mn27 2.251 . S
O32 C37 1.241 . S
O33 Mn27 2.087 . S
O33 C38 1.256 . S
C34 O40 1.278 . S
C34 O41 1.241 . S
C35 O21 1.244 . S
C35 O23 1.256 . S
C36 O25 1.239 . S
C36 O29 1.256 . S
C37 O26 1.278 . S
C37 O32 1.241 . S
C38 O28 1.244 . S
C38 O33 1.256 . S
C39 O30 1.239 . S
C39 O31 1.256 . S
O40 Mn22 2.221 . S
O40 Mn24 2.290 . S
O40 C34 1.278 . S
O41 Mn24 2.251 . S
O41 C34 1.241 . S
H42 C47 0.929 . S
H43 C52 0.931 . S
H44 C50 0.931 . S
N45 N46 1.234 . S
N45 C49 1.453 1_655 S
N46 N45 1.234 . S
C47 H42 0.929 . S
C47 C48 1.373 . S
C47 C49 1.368 1_565 S
C48 C47 1.373 . S
C48 C52 1.397 . S
C49 N45 1.453 1_455 S
C49 C47 1.368 1_545 S
C49 C50 1.373 . S
C50 H44 0.931 . S
C50 C49 1.373 . S
C50 C51 1.371 1_545 S
C51 C50 1.371 1_565 S
C51 C52 1.383 . S
C52 H43 0.931 . S
C52 C48 1.397 . S
C52 C51 1.383 . S
H53 C58 0.929 . S
H54 C63 0.931 . S
H55 C61 0.930 . S
N56 N57 1.234 . S
N56 C60 1.453 . S
N57 N56 1.234 . S
C58 H53 0.929 . S
C58 C59 1.373 1_545 S
C58 C60 1.368 1_655 S
C59 C58 1.373 1_565 S
C59 C63 1.397 . S
C60 N56 1.453 . S
C60 C58 1.368 1_455 S
C60 C61 1.373 . S
C61 H55 0.930 . S
C61 C60 1.373 . S
C61 C62 1.371 1_455 S
C62 C61 1.371 1_655 S
C62 C63 1.383 1_545 S
C63 H54 0.931 . S
C63 C59 1.397 . S
C63 C62 1.383 1_565 S
H64 C69 0.929 1_554 S
H65 C74 0.931 . S
H66 C72 0.930 . S
N67 N68 1.234 . S
N67 C71 1.453 . S
N68 N67 1.234 . S
C69 H64 0.929 1_556 S
C69 C70 1.373 . S
C69 C71 1.368 . S
C70 C69 1.373 . S
C70 C74 1.397 . S
C71 N67 1.453 . S
C71 C69 1.368 . S
C71 C72 1.373 . S
C72 H66 0.930 . S
C72 C71 1.373 . S
C72 C73 1.371 . S
C73 C72 1.371 . S
C73 C74 1.383 . S
C74 H65 0.931 . S
C74 C70 1.397 . S
C74 C73 1.383 . S
H75 C80 0.929 1_556 S
H76 C85 0.931 . S
H77 C83 0.930 . S
N78 N79 1.234 . S
N78 C82 1.453 . S
N79 N78 1.234 . S
C80 H75 0.929 1_554 S
C80 C81 1.373 . S
C80 C82 1.368 . S
C81 C80 1.373 . S
C81 C85 1.397 . S
C82 N78 1.453 . S
C82 C80 1.368 . S
C82 C83 1.373 . S
C83 H77 0.930 . S
C83 C82 1.373 . S
C83 C84 1.371 . S
C84 C83 1.371 . S
C84 C85 1.383 . S
C85 H76 0.931 . S
C85 C81 1.397 . S
C85 C84 1.383 . S
C86 C87 1.170 . S
C86 C88 1.380 . S
C87 C86 1.170 . S
C88 C86 1.380 . S
C88 C89 1.170 . S
C89 C88 1.170 . S
C90 C91 1.171 . S
C90 C92 1.380 1_554 S
C91 C90 1.171 . S
C92 C90 1.380 1_556 S
C92 C93 1.170 . S
C93 C92 1.170 . S
C94 C95 1.170 . S
C94 C96 1.380 . S
C95 C94 1.170 . S
C96 C94 1.380 . S
C96 C97 1.170 . S
C97 C96 1.170 . S
C98 C99 1.170 . S
C98 C100 1.380 . S
C99 C98 1.170 . S
C100 C98 1.380 . S
C100 C101 1.170 . S
C101 C100 1.170 . S
C102 C103 1.170 . S
C102 C104 1.380 . S
C103 C102 1.170 . S
C104 C102 1.380 . S
C104 C105 1.170 . S
C105 C104 1.170 . S
C106 C107 1.170 . S
C106 C108 1.380 . S
C107 C106 1.170 . S
C108 C106 1.380 . S
C108 C109 1.170 . S
C109 C108 1.170 . S
C110 C111 1.170 . S
C110 C112 1.380 . S
C111 C110 1.170 . S
C112 C110 1.380 . S
C112 C113 1.170 . S
C113 C112 1.170 . S
C114 C115 1.170 . S
C114 C116 1.380 . S
C115 C114 1.170 . S
C116 C114 1.380 . S
C116 C117 1.170 . S
C117 C116 1.170 . S
C118 C119 1.172 . S
C118 C120 1.380 . S
C119 C118 1.172 . S
C120 C118 1.380 . S
C120 C121 1.170 . S
C121 C120 1.170 . S
C122 C123 1.170 . S
C122 C124 1.380 . S
C123 C122 1.170 . S
C124 C122 1.380 . S
C124 C125 1.170 1_455 S
C125 C124 1.170 1_655 S
C126 C127 1.170 . S
C126 C128 1.380 . S
C127 C126 1.170 . S
C128 C126 1.380 . S
C128 C129 1.170 . S
C129 C128 1.170 . S
C130 C131 1.170 . S
C130 C132 1.380 . S
C131 C130 1.170 . S
C132 C130 1.380 . S
C132 C133 1.170 . S
C133 C132 1.170 . S
C89 C81 1.472 . S
C87 C16 1.345 . S
C91 C15 1.459 . S
C93 N68 1.413 . S
C95 C13 1.240 1_554 S
C97 N79 1.438 . S
C99 C14 1.438 . S
C101 C70 1.463 . S
C103 C37 1.359 . S
C105 C59 1.478 . S
C107 C36 1.448 . S
C109 N46 1.432 . S
C113 N57 1.423 . S
C111 C34 1.306 . S
C117 C48 1.462 . S
C115 C35 1.419 . S
C119 C17 1.576 1_565 S
C121 C51 1.606 . S
C123 C18 1.397 . S
C125 C62 1.433 . S
C129 C73 1.602 . S
C127 C38 1.576 . S
C131 C39 1.381 . S
C133 C84 1.413 . S
