# Generated by pormake.
# Topology tsx, (6,3)-cn, num edge types: 1
# Building blocks:
#     Node 0, Type 0, BuildingBlock: CIFDUS_clean_sbu_1, # of connection points: 6
#     Node 1, Type 0, BuildingBlock: CIFDUS_clean_sbu_1, # of connection points: 6
#     Node 2, Type 1, BuildingBlock: BETDIP_clean_linker_0, # of connection points: 3
#     Node 3, Type 1, BuildingBlock: BETDIP_clean_linker_0, # of connection points: 3
#     Node 4, Type 1, BuildingBlock: BETDIP_clean_linker_0, # of connection points: 3
#     Node 5, Type 1, BuildingBlock: BETDIP_clean_linker_0, # of connection points: 3
#     Edge 6, Type (0, 1), BuildingBlock: AJUNOK_clean_linker_0, # of connection points: 2
#     Edge 7, Type (0, 1), BuildingBlock: AJUNOK_clean_linker_0, # of connection points: 2
#     Edge 8, Type (0, 1), BuildingBlock: AJUNOK_clean_linker_0, # of connection points: 2
#     Edge 9, Type (0, 1), BuildingBlock: AJUNOK_clean_linker_0, # of connection points: 2
#     Edge 10, Type (0, 1), BuildingBlock: AJUNOK_clean_linker_0, # of connection points: 2
#     Edge 11, Type (0, 1), BuildingBlock: AJUNOK_clean_linker_0, # of connection points: 2
#     Edge 12, Type (0, 1), BuildingBlock: AJUNOK_clean_linker_0, # of connection points: 2
#     Edge 13, Type (0, 1), BuildingBlock: AJUNOK_clean_linker_0, # of connection points: 2
#     Edge 14, Type (0, 1), BuildingBlock: AJUNOK_clean_linker_0, # of connection points: 2
#     Edge 15, Type (0, 1), BuildingBlock: AJUNOK_clean_linker_0, # of connection points: 2
#     Edge 16, Type (0, 1), BuildingBlock: AJUNOK_clean_linker_0, # of connection points: 2
#     Edge 17, Type (0, 1), BuildingBlock: AJUNOK_clean_linker_0, # of connection points: 2
# Relax obj value: 0.098
# Max RMSD: 0.144
# Mean RMSD: 0.109
data_MOF--net-tsx--node1-CIFDUS_clean_sbu_1--node2-BETDIP_clean_linker_0--edge1-AJUNOK_clean_linker_0
_symmetry_space_group_name_H-M    P1
_symmetry_Int_Tables_number       1
_symmetry_cell_setting            triclinic
loop_
_symmetry_equiv_pos_as_xyz
'x, y, z'
_cell_length_a     13.838625
_cell_length_b     16.616162
_cell_length_c     25.968735
_cell_angle_alpha  96.888313
_cell_angle_beta   103.04083
_cell_angle_gamma 90.584394
loop_
_atom_site_label
_atom_site_type_symbol
_atom_site_fract_x
_atom_site_fract_y
_atom_site_fract_z
_atom_type_partial_charge
O0 O 0.97816 0.13512 -0.01112 0.0
Mn1 Mn 0.05682 0.02803 -0.01505 0.0
O2 O 0.82891 0.10357 0.93401 0.0
Mn3 Mn 0.85422 0.99628 0.91457 0.0
O4 O 0.13323 0.91772 0.97692 0.0
O5 O 0.18145 0.1058 0.00116 0.0
Mn6 Mn 0.26568 0.04458 0.03922 0.0
O7 O 0.06625 0.0212 0.06644 0.0
O8 O 0.2926 0.95556 -0.00165 0.0
O9 O 0.05413 0.03425 0.90417 0.0
O10 O 0.91044 0.97645 0.85698 0.0
O11 O 0.34255 0.13124 0.04101 0.0
O12 O 0.22963 0.02756 0.10085 0.0
C13 C 0.84887 0.90794 0.96435 0.0
C14 C 0.89072 0.15417 0.96575 0.0
C15 C 0.22492 0.90208 -0.02088 0.0
C16 C 0.2612 0.15436 0.01181 0.0
C17 C 0.14127 0.01878 0.10585 0.0
C18 C 0.99712 0.00418 0.85987 0.0
O19 O 0.92773 0.95607 0.97035 0.0
O20 O 0.77435 0.91714 0.92546 0.0
O21 O 0.45622 0.63115 0.48312 0.0
Mn22 Mn 0.55158 0.52959 0.48466 0.0
O23 O 0.3082 0.57215 0.4708 0.0
Mn24 Mn 0.34593 0.48843 0.4285 0.0
O25 O 0.64166 0.42725 0.47989 0.0
O26 O 0.66764 0.61667 0.49834 0.0
Mn27 Mn 0.75653 0.56253 0.54126 0.0
O28 O 0.56081 0.52789 0.56651 0.0
O29 O 0.79795 0.47145 0.50719 0.0
O30 O 0.54265 0.53063 0.40369 0.0
O31 O 0.38065 0.51175 0.36688 0.0
O32 O 0.82626 0.65172 0.53979 0.0
O33 O 0.7216 0.55104 0.60428 0.0
C34 C 0.36718 0.38453 0.46314 0.0
C35 C 0.36186 0.63597 0.47898 0.0
C36 C 0.73482 0.4154 0.4854 0.0
C37 C 0.74407 0.66906 0.50855 0.0
C38 C 0.63353 0.53549 0.60769 0.0
C39 C 0.46901 0.52641 0.36341 0.0
O40 O 0.43874 0.44077 0.47152 0.0
O41 O 0.28655 0.39256 0.42762 0.0
H42 H 0.10679 0.9751 0.46997 0.0
H43 H 0.00643 0.08102 0.32442 0.0
H44 H 0.18075 0.86856 0.32607 0.0
H45 H 0.85507 0.0782 0.37117 0.0
C46 C 0.90038 0.11724 0.40468 0.0
C47 C 0.10191 0.97507 0.42791 0.0
C48 C 0.1495 0.91483 0.40129 0.0
C49 C 0.04677 0.0335 0.39961 0.0
C50 C 0.04392 0.03337 0.34528 0.0
C51 C 0.09528 0.97596 0.31897 0.0
C52 C 0.14462 0.91544 0.34683 0.0
N53 N 0.99908 0.09527 0.42627 0.0
H54 H 0.95863 0.01372 0.48963 0.0
H55 H 0.13403 0.09598 0.6476 0.0
H56 H 0.88132 0.93558 0.62603 0.0
H57 H 0.18969 0.19214 0.61226 0.0
C58 C 0.19097 0.16964 0.57149 0.0
C59 C 0.97262 0.01705 0.53213 0.0
C60 C 0.91037 0.9699 0.55346 0.0
C61 C 0.0528 0.06527 0.56529 0.0
C62 C 0.07042 0.06404 0.62083 0.0
C63 C 0.00857 0.01758 0.64262 0.0
C64 C 0.92786 0.97242 0.60889 0.0
N65 N 0.11737 0.11013 0.54204 0.0
H66 H 0.64383 0.50036 0.97517 0.0
H67 H 0.49795 0.57729 0.82699 0.0
H68 H 0.69754 0.38295 0.82702 0.0
H69 H 0.35897 0.56483 0.87346 0.0
C70 C 0.39913 0.60557 0.90764 0.0
C71 C 0.62944 0.49131 0.9323 0.0
C72 C 0.68178 0.43377 0.90576 0.0
C73 C 0.55756 0.53828 0.90321 0.0
C74 C 0.5454 0.53467 0.84806 0.0
C75 C 0.59938 0.4812 0.82089 0.0
C76 C 0.66222 0.42796 0.84949 0.0
N77 N 0.50085 0.59244 0.92978 0.0
H78 H 0.47922 0.50271 -0.00572 0.0
H79 H 0.60632 0.6259 0.15144 0.0
H80 H 0.37966 0.44141 0.13001 0.0
H81 H 0.63272 0.72596 0.10798 0.0
C82 C 0.65521 0.69847 0.07273 0.0
C83 C 0.48232 0.51309 0.03619 0.0
C84 C 0.41989 0.46514 0.0573 0.0
C85 C 0.54802 0.57373 0.06914 0.0
C86 C 0.55317 0.58352 0.12435 0.0
C87 C 0.49091 0.53693 0.14558 0.0
C88 C 0.42448 0.47885 0.11222 0.0
N89 N 0.60961 0.62242 0.04659 0.0
C90 C 0.21929 0.2985 0.02285 0.0
C91 C 0.2649 0.2365 -0.00346 0.0
C92 C 0.26365 0.37697 0.03627 0.0
C93 C 0.35594 0.39537 0.02477 0.0
H94 H 0.15659 0.28411 0.03913 0.0
H95 H 0.23068 0.42112 0.06066 0.0
S96 S 0.48962 0.25733 0.94366 0.0
N97 N 0.39402 0.20187 0.94942 0.0
N98 N 0.47856 0.34805 0.97509 0.0
C99 C 0.39335 0.33672 -0.00871 0.0
C100 C 0.34723 0.2575 0.97703 0.0
C101 C 0.35806 0.80262 -0.01271 0.0
C102 C 0.2592 0.82006 0.96409 0.0
C103 C 0.40171 0.73232 0.97004 0.0
C104 C 0.34835 0.67551 0.92906 0.0
H105 H 0.40401 0.84498 0.01839 0.0
H106 H 0.47886 0.72418 -0.01197 0.0
S107 S 0.08444 0.68555 0.85912 0.0
N108 N 0.10668 0.77057 0.90076 0.0
N109 N 0.18915 0.63669 0.86854 0.0
C110 C 0.24791 0.68917 0.9074 0.0
C111 C 0.20303 0.76161 0.92497 0.0
C112 C 0.81157 0.7687 -0.01879 0.0
C113 C 0.83303 0.85113 0.0015 0.0
C114 C 0.75701 0.71798 0.00503 0.0
C115 C 0.72121 0.74831 0.04986 0.0
H116 H 0.83106 0.74473 0.94435 0.0
H117 H 0.73939 0.65588 -0.01312 0.0
S118 S 0.75522 0.95954 0.11779 0.0
N119 N 0.81303 0.96016 0.06868 0.0
N120 N 0.71308 0.86531 0.11426 0.0
C121 C 0.74579 0.82957 0.07178 0.0
C122 C 0.80105 0.88091 0.04748 0.0
C123 C 0.88394 0.27993 0.92433 0.0
C124 C 0.86521 0.23994 0.96574 0.0
C125 C 0.83225 0.34858 0.90971 0.0
C126 C 0.75603 0.37831 0.93424 0.0
H127 H 0.93365 0.25445 0.90037 0.0
H128 H 0.84859 0.37525 0.87645 0.0
S129 S 0.70652 0.31008 0.05797 0.0
N130 N 0.78573 0.24489 0.03997 0.0
N131 N 0.68797 0.37459 0.01328 0.0
C132 C 0.74782 0.34546 -0.01886 0.0
C133 C 0.80158 0.27533 -0.00382 0.0
C134 C 0.82389 0.77129 0.47003 0.0
C135 C 0.74263 0.75015 0.49081 0.0
C136 C 0.87147 0.84844 0.48441 0.0
C137 C 0.83797 0.90724 0.51936 0.0
H138 H 0.86035 0.72437 0.44951 0.0
H139 H 0.9416 0.85803 0.47366 0.0
S140 S 0.60827 0.89122 0.5686 0.0
N141 N 0.61703 0.80022 0.5368 0.0
N142 N 0.70312 0.94663 0.5616 0.0
C143 C 0.74611 0.89163 0.53162 0.0
C144 C 0.6987 0.81267 0.51761 0.0
C145 C 0.87607 0.32369 0.48027 0.0
C146 C 0.77276 0.33564 0.46717 0.0
C147 C 0.91684 0.25222 0.46147 0.0
C148 C 0.85621 0.18971 0.42825 0.0
H149 H 0.92683 0.37049 0.50485 0.0
H150 H 0.99669 0.2471 0.47194 0.0
S151 S 0.58164 0.18573 0.38534 0.0
N152 N 0.61065 0.27514 0.4214 0.0
N153 N 0.68786 0.14122 0.38553 0.0
C154 C 0.75298 0.19922 0.41603 0.0
C155 C 0.71107 0.27188 0.43561 0.0
C156 C 0.35292 0.3417 0.54902 0.0
C157 C 0.36398 0.31981 0.49684 0.0
C158 C 0.30103 0.29023 0.5735 0.0
C159 C 0.25775 0.21526 0.54652 0.0
H160 H 0.37519 0.40215 0.56881 0.0
H161 H 0.28906 0.31185 0.61256 0.0
S162 S 0.2867 0.12309 0.41365 0.0
N163 N 0.34184 0.21378 0.4222 0.0
N164 N 0.24654 0.11599 0.46833 0.0
C165 C 0.27765 0.18927 0.49651 0.0
C166 C 0.33061 0.24175 0.47179 0.0
C167 C 0.33971 0.78932 0.48587 0.0
C168 C 0.30745 0.70959 0.46304 0.0
C169 C 0.28558 0.8568 0.46838 0.0
C170 C 0.19816 0.84614 0.42743 0.0
H171 H 0.40673 0.79948 0.51705 0.0
H172 H 0.31392 0.91744 0.48556 0.0
S173 S 0.08318 0.65152 0.35365 0.0
N174 N 0.18284 0.62589 0.39554 0.0
N175 N 0.08135 0.75101 0.36575 0.0
C176 C 0.1646 0.76714 0.40544 0.0
C177 C 0.21931 0.69942 0.42224 0.0
C178 C 0.03487 0.00905 0.17232 0.0
C179 C 0.12834 0.00462 0.15953 0.0
C180 C 0.02358 0.99838 0.22362 0.0
C181 C 0.10571 0.98345 0.26404 0.0
H182 H 0.9705 0.02256 0.14289 0.0
H183 H 0.95027 0.00229 0.23177 0.0
S184 S 0.36719 0.96759 0.25222 0.0
N185 N 0.30475 0.98239 0.19233 0.0
N186 N 0.28382 0.9677 0.28854 0.0
C187 C 0.19944 0.97917 0.2519 0.0
C188 C 0.21074 0.98846 0.1998 0.0
C189 C 0.03608 0.0818 0.79049 0.0
C190 C 0.0271 0.00696 0.80939 0.0
C191 C 0.0367 0.08513 0.73675 0.0
C192 C 0.0286 0.01362 0.70075 0.0
H193 H 0.0351 0.13796 0.8163 0.0
H194 H 0.03691 0.14386 0.72262 0.0
S195 S 0.02157 0.80289 0.73355 0.0
N196 N 0.02141 0.86029 0.79006 0.0
N197 N 0.02683 0.86618 0.68978 0.0
C198 C 0.02877 0.93859 0.72062 0.0
C199 C 0.0267 0.93534 0.77483 0.0
C200 C 0.70316 0.50802 0.70091 0.0
C201 C 0.61912 0.52087 0.66094 0.0
C202 C 0.69483 0.49271 0.75143 0.0
C203 C 0.60207 0.48909 0.76468 0.0
H204 H 0.77699 0.50989 0.69342 0.0
H205 H 0.76248 0.48585 0.78088 0.0
S206 S 0.35836 0.51783 0.67497 0.0
N207 N 0.43974 0.53027 0.63856 0.0
N208 N 0.42342 0.49767 0.73328 0.0
C209 C 0.51689 0.5008 0.72515 0.0
C210 C 0.52556 0.51744 0.67345 0.0
C211 C 0.41502 0.57988 0.27639 0.0
C212 C 0.48514 0.53814 0.31056 0.0
C213 C 0.42084 0.5835 0.22358 0.0
C214 C 0.49678 0.54535 0.2033 0.0
H215 H 0.35369 0.60813 0.29021 0.0
H216 H 0.3636 0.61366 0.19786 0.0
S217 S 0.69821 0.42878 0.27595 0.0
N218 N 0.63355 0.45921 0.32049 0.0
N219 N 0.64386 0.46572 0.22076 0.0
C220 C 0.56912 0.50585 0.2373 0.0
C221 C 0.56357 0.50244 0.2912 0.0
loop_
_geom_bond_atom_site_label_1
_geom_bond_atom_site_label_2
_geom_bond_distance
_geom_bond_site_symmetry_2
_ccdc_geom_bond_type
O0 Mn1 2.162 1_654 S
O0 C14 1.242 1_554 S
Mn1 O0 2.162 1_456 S
Mn1 O4 2.160 1_545 S
Mn1 O5 2.221 1_556 S
Mn1 O7 2.163 1_556 S
Mn1 O9 2.160 . S
Mn1 O19 2.221 1_445 S
O2 Mn3 2.087 1_545 S
O2 C14 1.256 . S
Mn3 O2 2.087 1_565 S
Mn3 O10 2.089 1_565 S
Mn3 O19 2.290 . S
Mn3 O20 2.251 . S
O4 Mn1 2.160 1_565 S
O4 C15 1.239 1_556 S
O5 Mn1 2.221 1_554 S
O5 Mn6 2.290 . S
O5 C16 1.278 . S
Mn6 O5 2.290 . S
Mn6 O8 2.089 1_545 S
Mn6 O11 2.251 . S
Mn6 O12 2.087 . S
O7 Mn1 2.163 1_554 S
O7 C17 1.244 . S
O8 Mn6 2.089 1_565 S
O8 C15 1.256 . S
O9 Mn1 2.160 . S
O9 C18 1.239 . S
O10 Mn3 2.089 1_545 S
O10 C18 1.256 1_655 S
O11 Mn6 2.251 . S
O11 C16 1.241 . S
O12 Mn6 2.087 . S
O12 C17 1.256 . S
C13 O19 1.278 . S
C13 O20 1.241 . S
C14 O0 1.242 1_556 S
C14 O2 1.256 . S
C15 O4 1.239 1_554 S
C15 O8 1.256 . S
C16 O5 1.278 . S
C16 O11 1.241 . S
C17 O7 1.244 . S
C17 O12 1.256 . S
C18 O9 1.239 . S
C18 O10 1.256 1_455 S
O19 Mn1 2.221 1_665 S
O19 Mn3 2.290 . S
O19 C13 1.278 . S
O20 Mn3 2.251 . S
O20 C13 1.241 . S
O21 Mn22 2.163 . S
O21 C35 1.244 . S
Mn22 O21 2.163 . S
Mn22 O25 2.160 . S
Mn22 O26 2.221 . S
Mn22 O28 2.163 . S
Mn22 O30 2.160 . S
Mn22 O40 2.221 . S
O23 Mn24 2.087 . S
O23 C35 1.256 . S
Mn24 O23 2.087 . S
Mn24 O31 2.089 . S
Mn24 O40 2.290 . S
Mn24 O41 2.251 . S
O25 Mn22 2.160 . S
O25 C36 1.239 . S
O26 Mn22 2.221 . S
O26 Mn27 2.290 . S
O26 C37 1.278 . S
Mn27 O26 2.290 . S
Mn27 O29 2.089 . S
Mn27 O32 2.251 . S
Mn27 O33 2.087 . S
O28 Mn22 2.163 . S
O28 C38 1.244 . S
O29 Mn27 2.089 . S
O29 C36 1.256 . S
O30 Mn22 2.160 . S
O30 C39 1.239 . S
O31 Mn24 2.089 . S
O31 C39 1.256 . S
O32 Mn27 2.251 . S
O32 C37 1.241 . S
O33 Mn27 2.087 . S
O33 C38 1.256 . S
C34 O40 1.278 . S
C34 O41 1.241 . S
C35 O21 1.244 . S
C35 O23 1.256 . S
C36 O25 1.239 . S
C36 O29 1.256 . S
C37 O26 1.278 . S
C37 O32 1.241 . S
C38 O28 1.244 . S
C38 O33 1.256 . S
C39 O30 1.239 . S
C39 O31 1.256 . S
O40 Mn22 2.221 . S
O40 Mn24 2.290 . S
O40 C34 1.278 . S
O41 Mn24 2.251 . S
O41 C34 1.241 . S
H42 C47 0.930 . S
H43 C50 0.929 1_655 S
H44 C52 0.930 . S
H45 C46 1.016 . S
C46 H45 1.016 . S
C46 N53 1.286 . S
C47 H42 0.930 . S
C47 C48 1.397 . S
C47 C49 1.361 1_565 S
C48 C47 1.397 . S
C48 C52 1.390 . S
C49 C47 1.361 1_545 S
C49 C50 1.393 . S
C49 N53 1.413 1_455 S
C50 H43 0.929 1_455 S
C50 C49 1.393 . S
C50 C51 1.399 1_545 S
C51 C50 1.399 1_565 S
C51 C52 1.381 . S
C52 H44 0.930 . S
C52 C48 1.390 . S
C52 C51 1.381 . S
N53 C46 1.286 . S
N53 C49 1.413 1_655 S
H54 C59 0.930 1_565 S
H55 C62 0.930 . S
H56 C64 0.930 . S
H57 C58 1.016 . S
C58 H57 1.016 . S
C58 N65 1.286 . S
C59 H54 0.930 1_545 S
C59 C60 1.397 1_545 S
C59 C61 1.361 1_655 S
C60 C59 1.397 1_565 S
C60 C64 1.390 . S
C61 C59 1.361 1_455 S
C61 C62 1.393 . S
C61 N65 1.413 . S
C62 H55 0.930 . S
C62 C61 1.393 . S
C62 C63 1.399 1_455 S
C63 C62 1.399 1_655 S
C63 C64 1.381 1_545 S
C64 H56 0.930 . S
C64 C60 1.390 . S
C64 C63 1.381 1_565 S
N65 C58 1.286 . S
N65 C61 1.413 . S
H66 C71 0.930 1_554 S
H67 C74 0.930 . S
H68 C76 0.930 . S
H69 C70 1.016 . S
C70 H69 1.016 . S
C70 N77 1.286 . S
C71 H66 0.930 1_556 S
C71 C72 1.397 . S
C71 C73 1.361 . S
C72 C71 1.397 . S
C72 C76 1.390 . S
C73 C71 1.361 . S
C73 C74 1.393 . S
C73 N77 1.413 . S
C74 H67 0.930 . S
C74 C73 1.393 . S
C74 C75 1.399 . S
C75 C74 1.399 . S
C75 C76 1.381 . S
C76 H68 0.930 . S
C76 C72 1.390 . S
C76 C75 1.381 . S
N77 C70 1.286 . S
N77 C73 1.413 . S
H78 C83 0.930 1_556 S
H79 C86 0.930 . S
H80 C88 0.930 . S
H81 C82 1.016 . S
C82 H81 1.016 . S
C82 N89 1.286 . S
C83 H78 0.930 1_554 S
C83 C84 1.397 . S
C83 C85 1.361 . S
C84 C83 1.397 . S
C84 C88 1.390 . S
C85 C83 1.361 . S
C85 C86 1.393 . S
C85 N89 1.413 . S
C86 H79 0.930 . S
C86 C85 1.393 . S
C86 C87 1.399 . S
C87 C86 1.399 . S
C87 C88 1.381 . S
C88 H80 0.930 . S
C88 C84 1.390 . S
C88 C87 1.381 . S
N89 C82 1.286 . S
N89 C85 1.413 . S
C90 C91 1.369 1_556 S
C90 C92 1.419 . S
C90 H94 0.930 . S
C91 C90 1.369 1_554 S
C91 C100 1.429 . S
C92 C90 1.419 . S
C92 C93 1.363 1_556 S
C92 H95 0.929 . S
C93 C92 1.363 1_554 S
C93 C99 1.428 . S
H94 C90 0.930 . S
H95 C92 0.929 . S
S96 N97 1.613 . S
S96 N98 1.610 . S
N97 S96 1.613 . S
N97 C100 1.350 . S
N98 S96 1.610 . S
N98 C99 1.351 . S
C99 C93 1.428 . S
C99 N98 1.351 . S
C99 C100 1.434 . S
C100 C91 1.429 . S
C100 N97 1.350 . S
C100 C99 1.434 . S
C101 C102 1.369 . S
C101 C103 1.419 . S
C101 H105 0.930 . S
C102 C101 1.369 . S
C102 C111 1.429 1_554 S
C103 C101 1.419 . S
C103 C104 1.363 . S
C103 H106 0.929 . S
C104 C103 1.363 . S
C104 C110 1.428 1_554 S
H105 C101 0.930 . S
H106 C103 0.929 . S
S107 N108 1.613 . S
S107 N109 1.610 . S
N108 S107 1.613 . S
N108 C111 1.350 . S
N109 S107 1.610 . S
N109 C110 1.351 . S
C110 C104 1.428 1_556 S
C110 N109 1.351 . S
C110 C111 1.434 . S
C111 C102 1.429 1_556 S
C111 N108 1.350 . S
C111 C110 1.434 . S
C112 C113 1.370 . S
C112 C114 1.422 . S
C112 H116 0.926 1_554 S
C113 C112 1.370 . S
C113 C122 1.429 . S
C114 C112 1.422 . S
C114 C115 1.363 . S
C114 H117 0.929 1_554 S
C115 C114 1.363 . S
C115 C121 1.428 . S
H116 C112 0.926 1_556 S
H117 C114 0.929 1_556 S
S118 N119 1.613 . S
S118 N120 1.610 . S
N119 S118 1.613 . S
N119 C122 1.350 . S
N120 S118 1.610 . S
N120 C121 1.351 . S
C121 C115 1.428 . S
C121 N120 1.351 . S
C121 C122 1.434 . S
C122 C113 1.429 . S
C122 N119 1.350 . S
C122 C121 1.434 . S
C123 C124 1.369 . S
C123 C125 1.419 . S
C123 H127 0.930 . S
C124 C123 1.369 . S
C124 C133 1.429 1_556 S
C125 C123 1.419 . S
C125 C126 1.363 . S
C125 H128 0.929 . S
C126 C125 1.363 . S
C126 C132 1.428 1_556 S
H127 C123 0.930 . S
H128 C125 0.929 . S
S129 N130 1.613 . S
S129 N131 1.610 . S
N130 S129 1.613 . S
N130 C133 1.350 . S
N131 S129 1.610 . S
N131 C132 1.351 . S
C132 C126 1.428 1_554 S
C132 N131 1.351 . S
C132 C133 1.434 . S
C133 C124 1.429 1_554 S
C133 N130 1.350 . S
C133 C132 1.434 . S
C134 C135 1.369 . S
C134 C136 1.419 . S
C134 H138 0.930 . S
C135 C134 1.369 . S
C135 C144 1.429 . S
C136 C134 1.419 . S
C136 C137 1.363 . S
C136 H139 0.929 . S
C137 C136 1.363 . S
C137 C143 1.428 . S
H138 C134 0.930 . S
H139 C136 0.929 . S
S140 N141 1.613 . S
S140 N142 1.610 . S
N141 S140 1.613 . S
N141 C144 1.350 . S
N142 S140 1.610 . S
N142 C143 1.351 . S
C143 C137 1.428 . S
C143 N142 1.351 . S
C143 C144 1.434 . S
C144 C135 1.429 . S
C144 N141 1.350 . S
C144 C143 1.434 . S
C145 C146 1.369 . S
C145 C147 1.419 . S
C145 H149 0.930 . S
C146 C145 1.369 . S
C146 C155 1.429 . S
C147 C145 1.419 . S
C147 C148 1.363 . S
C147 H150 0.929 1_655 S
C148 C147 1.363 . S
C148 C154 1.428 . S
H149 C145 0.930 . S
H150 C147 0.929 1_455 S
S151 N152 1.613 . S
S151 N153 1.610 . S
N152 S151 1.613 . S
N152 C155 1.350 . S
N153 S151 1.610 . S
N153 C154 1.351 . S
C154 C148 1.428 . S
C154 N153 1.351 . S
C154 C155 1.434 . S
C155 C146 1.429 . S
C155 N152 1.350 . S
C155 C154 1.434 . S
C156 C157 1.369 . S
C156 C158 1.419 . S
C156 H160 0.930 . S
C157 C156 1.369 . S
C157 C166 1.429 . S
C158 C156 1.419 . S
C158 C159 1.363 . S
C158 H161 0.929 . S
C159 C158 1.363 . S
C159 C165 1.428 . S
H160 C156 0.930 . S
H161 C158 0.929 . S
S162 N163 1.613 . S
S162 N164 1.610 . S
N163 S162 1.613 . S
N163 C166 1.350 . S
N164 S162 1.610 . S
N164 C165 1.351 . S
C165 C159 1.428 . S
C165 N164 1.351 . S
C165 C166 1.434 . S
C166 C157 1.429 . S
C166 N163 1.350 . S
C166 C165 1.434 . S
C167 C168 1.369 . S
C167 C169 1.419 . S
C167 H171 0.930 . S
C168 C167 1.369 . S
C168 C177 1.429 . S
C169 C167 1.419 . S
C169 C170 1.363 . S
C169 H172 0.929 . S
C170 C169 1.363 . S
C170 C176 1.428 . S
H171 C167 0.930 . S
H172 C169 0.929 . S
S173 N174 1.613 . S
S173 N175 1.610 . S
N174 S173 1.613 . S
N174 C177 1.350 . S
N175 S173 1.610 . S
N175 C176 1.351 . S
C176 C170 1.428 . S
C176 N175 1.351 . S
C176 C177 1.434 . S
C177 C168 1.429 . S
C177 N174 1.350 . S
C177 C176 1.434 . S
C178 C179 1.369 1_545 S
C178 C180 1.419 . S
C178 H182 0.930 1_455 S
C179 C178 1.369 1_565 S
C179 C188 1.429 . S
C180 C178 1.419 . S
C180 C181 1.363 1_545 S
C180 H183 0.929 1_455 S
C181 C180 1.363 1_565 S
C181 C187 1.428 . S
H182 C178 0.930 1_655 S
H183 C180 0.929 1_655 S
S184 N185 1.613 . S
S184 N186 1.610 . S
N185 S184 1.613 . S
N185 C188 1.350 . S
N186 S184 1.610 . S
N186 C187 1.351 . S
C187 C181 1.428 . S
C187 N186 1.351 . S
C187 C188 1.434 . S
C188 C179 1.429 . S
C188 N185 1.350 . S
C188 C187 1.434 . S
C189 C190 1.369 . S
C189 C191 1.419 . S
C189 H193 0.930 . S
C190 C189 1.369 . S
C190 C199 1.429 1_445 S
C191 C189 1.419 . S
C191 C192 1.363 1_455 S
C191 H194 0.929 . S
C192 C191 1.363 1_655 S
C192 C198 1.428 1_545 S
H193 C189 0.930 . S
H194 C191 0.929 . S
S195 N196 1.613 . S
S195 N197 1.610 . S
N196 S195 1.613 . S
N196 C199 1.350 . S
N197 S195 1.610 . S
N197 C198 1.351 . S
C198 C192 1.428 1_565 S
C198 N197 1.351 . S
C198 C199 1.434 . S
C199 C190 1.429 1_665 S
C199 N196 1.350 . S
C199 C198 1.434 . S
C200 C201 1.369 . S
C200 C202 1.419 . S
C200 H204 0.930 . S
C201 C200 1.369 . S
C201 C210 1.429 . S
C202 C200 1.419 . S
C202 C203 1.363 . S
C202 H205 0.929 . S
C203 C202 1.363 . S
C203 C209 1.428 . S
H204 C200 0.930 . S
H205 C202 0.929 . S
S206 N207 1.613 . S
S206 N208 1.610 . S
N207 S206 1.613 . S
N207 C210 1.350 . S
N208 S206 1.610 . S
N208 C209 1.351 . S
C209 C203 1.428 . S
C209 N208 1.351 . S
C209 C210 1.434 . S
C210 C201 1.429 . S
C210 N207 1.350 . S
C210 C209 1.434 . S
C211 C212 1.369 . S
C211 C213 1.419 . S
C211 H215 0.930 . S
C212 C211 1.369 . S
C212 C221 1.429 . S
C213 C211 1.419 . S
C213 C214 1.363 . S
C213 H216 0.929 . S
C214 C213 1.363 . S
C214 C220 1.428 . S
H215 C211 0.930 . S
H216 C213 0.929 . S
S217 N218 1.613 . S
S217 N219 1.610 . S
N218 S217 1.613 . S
N218 C221 1.350 . S
N219 S217 1.610 . S
N219 C220 1.351 . S
C220 C214 1.428 . S
C220 N219 1.351 . S
C220 C221 1.434 . S
C221 C212 1.429 . S
C221 N218 1.350 . S
C221 C220 1.434 . S
C93 C84 1.468 . S
C91 C16 1.362 . S
C102 C15 1.476 . S
C104 C70 1.439 1_554 S
C113 C13 1.275 1_554 S
C115 C82 1.443 . S
C124 C14 1.440 . S
C126 C72 1.470 . S
C135 C37 1.376 . S
C137 C60 1.474 . S
C146 C36 1.476 . S
C148 C46 1.440 . S
C159 C58 1.448 . S
C157 C34 1.270 . S
C170 C48 1.467 . S
C168 C35 1.437 . S
C179 C17 1.578 1_565 S
C181 C51 1.614 . S
C190 C18 1.400 . S
C192 C63 1.430 . S
C203 C75 1.615 . S
C201 C38 1.581 . S
C212 C39 1.405 . S
C214 C87 1.431 . S
