# Generated by pormake.
# Topology scu, (8,4)-cn, num edge types: 1
# Building blocks:
#     Node 0, Type 0, BuildingBlock: GIZVER_clean_sbu_0, # of connection points: 8
#     Node 1, Type 1, BuildingBlock: IZENUY_clean_linker_0, # of connection points: 4
#     Node 2, Type 1, BuildingBlock: IZENUY_clean_linker_0, # of connection points: 4
#     Edge 3, Type (0, 1), BuildingBlock: XIVTED_clean_linker_0, # of connection points: 2
#     Edge 4, Type (0, 1), BuildingBlock: XIVTED_clean_linker_0, # of connection points: 2
#     Edge 5, Type (0, 1), BuildingBlock: XIVTED_clean_linker_0, # of connection points: 2
#     Edge 6, Type (0, 1), BuildingBlock: XIVTED_clean_linker_0, # of connection points: 2
#     Edge 7, Type (0, 1), BuildingBlock: XIVTED_clean_linker_0, # of connection points: 2
#     Edge 8, Type (0, 1), BuildingBlock: XIVTED_clean_linker_0, # of connection points: 2
#     Edge 9, Type (0, 1), BuildingBlock: XIVTED_clean_linker_0, # of connection points: 2
#     Edge 10, Type (0, 1), BuildingBlock: XIVTED_clean_linker_0, # of connection points: 2
# Relax obj value: 0.121
# Max RMSD: 0.250
# Mean RMSD: 0.211
data_MOF--net-scu--node1-GIZVER_clean_sbu_0--node2-IZENUY_clean_linker_0--edge1-XIVTED_clean_linker_0
_symmetry_space_group_name_H-M    P1
_symmetry_Int_Tables_number       1
_symmetry_cell_setting            triclinic
loop_
_symmetry_equiv_pos_as_xyz
'x, y, z'
_cell_length_a     26.895879
_cell_length_b     27.291322
_cell_length_c     22.346349
_cell_angle_alpha  100.92486
_cell_angle_beta   80.4896
_cell_angle_gamma 111.04715
loop_
_atom_site_label
_atom_site_type_symbol
_atom_site_fract_x
_atom_site_fract_y
_atom_site_fract_z
_atom_type_partial_charge
Co0 Co 0.05042 0.98019 0.11779 0.0
Co1 Co 0.13478 0.04678 0.06728 0.0
Co2 Co 1.03553 1.03446 1.00061 0.0
O3 O 0.07348 0.99848 0.0369 0.0
H4 H 0.08196 0.97059 0.00824 0.0
O5 O 0.99728 0.07092 0.96503 0.0
Co6 Co 1.02214 0.09462 0.88685 0.0
Co7 Co 0.93873 1.02355 0.92921 0.0
H8 H 0.98666 0.09683 0.9951 0.0
O9 O 0.19022 1.02514 0.07501 0.0
O10 O 0.12059 1.02896 0.1458 0.0
O11 O 0.14392 0.12097 0.07639 0.0
O12 O 0.06065 0.1046 0.05685 0.0
O13 O 0.09989 0.05752 0.94063 0.0
O14 O 0.04457 0.12111 0.81767 0.0
O15 O 0.99841 0.15116 0.90108 0.0
O16 O 0.05337 1.04084 0.86184 0.0
O17 O 1.01095 0.96435 0.9441 0.0
O18 O 0.93132 0.95003 0.91468 0.0
O19 O 0.95253 0.04806 0.85441 0.0
O20 O 0.88172 1.0433 0.92693 0.0
C21 C 0.05036 0.92194 0.16365 0.0
C22 C 0.97572 1.02724 0.11786 0.0
C23 C 0.10385 0.13569 0.07899 0.0
C24 C 0.16689 1.02193 0.13059 0.0
C25 C 1.02345 0.15623 0.84599 0.0
C26 C 0.09704 0.04806 0.88303 0.0
C27 C 0.9698 0.93437 0.91723 0.0
C28 C 0.90506 0.05216 0.87233 0.0
O29 O 1.03005 0.95826 0.18984 0.0
O30 O 0.074 0.92392 0.10765 0.0
O31 O 0.97123 1.01145 0.06097 0.0
O32 O 1.01927 1.03448 0.13936 0.0
H33 H 0.05264 0.46501 0.40898 0.0
H34 H 1.0294 0.46315 0.60429 0.0
H35 H 0.06472 0.33526 0.4816 0.0
H36 H 1.01917 0.60214 0.59033 0.0
H37 H 0.04452 0.60658 0.39535 0.0
H38 H 1.00887 0.73354 0.5199 0.0
N39 N 1.03354 0.52064 0.52022 0.0
N40 N 0.03941 0.54775 0.47875 0.0
C41 C 0.05065 0.44586 0.448 0.0
C42 C 0.05989 0.39727 0.43832 0.0
C43 C 0.04018 0.47012 0.50818 0.0
C44 C 1.03733 0.44446 0.55815 0.0
C45 C 0.04671 0.39606 0.549 0.0
C46 C 0.05808 0.37298 0.48901 0.0
C47 C 1.02176 0.62186 0.5516 0.0
C48 C 1.01268 0.67049 0.56187 0.0
C49 C 1.03278 0.5983 0.4912 0.0
C50 C 1.03623 0.62473 0.44165 0.0
C51 C 1.02707 0.67333 0.45151 0.0
C52 C 1.01532 0.69569 0.51174 0.0
H53 H 0.62309 0.06571 0.41422 0.0
H54 H 0.62112 0.07457 0.60919 0.0
H55 H 0.76675 0.086 0.49023 0.0
H56 H 0.47267 0.06186 0.59197 0.0
H57 H 0.46935 1.04166 0.39608 0.0
H58 H 0.32752 1.03968 0.5185 0.0
N59 N 0.56006 0.06274 0.52369 0.0
N60 N 0.53239 0.0557 0.48111 0.0
C61 C 0.64356 0.07003 0.45379 0.0
C62 C 0.69865 0.07779 0.44594 0.0
C63 C 0.61547 0.06895 0.51311 0.0
C64 C 0.64287 0.07496 0.56382 0.0
C65 C 0.69779 0.08176 0.55628 0.0
C66 C 0.72492 0.08284 0.49711 0.0
C67 C 0.45111 0.05486 0.55256 0.0
C68 C 0.39737 0.0521 0.56165 0.0
C69 C 0.47722 0.05055 0.49237 0.0
C70 C 0.44882 1.04336 0.44202 0.0
C71 C 0.3949 1.04045 0.45105 0.0
C72 C 0.36954 1.04339 0.5109 0.0
H73 H 0.18555 0.2097 0.14015 0.0
H74 H 1.0005 0.36819 0.34055 0.0
H75 H 1.02119 0.17598 0.11028 0.0
H76 H 0.14572 0.36538 0.39507 0.0
H77 H 1.01521 0.31299 0.24312 0.0
H78 H 0.17925 0.28258 0.21972 0.0
C79 C 0.14837 0.21809 0.14944 0.0
C80 C 0.10366 0.18605 0.11864 0.0
C81 C 0.04419 0.32511 0.27611 0.0
C82 C 0.09614 0.26961 0.21056 0.0
C83 C 1.03599 0.35682 0.33139 0.0
C84 C 0.07184 0.371 0.37584 0.0
C85 C 0.08891 0.30818 0.26511 0.0
C86 C 0.11695 0.35491 0.36211 0.0
C87 C 0.14476 0.25966 0.19523 0.0
C88 C 0.05668 0.19933 0.13285 0.0
N89 N 0.12408 0.32426 0.30817 0.0
N90 N 0.05397 0.23971 0.17819 0.0
H91 H 0.98523 0.1008 0.22008 0.0
H92 H 0.67863 1.00485 0.34179 0.0
H93 H 0.86794 0.98736 0.10668 0.0
H94 H 0.79192 0.15369 0.41302 0.0
H95 H 0.74394 0.99848 0.25213 0.0
H96 H 0.91319 0.121 0.29008 0.0
C97 C 0.94419 0.08021 0.20991 0.0
C98 C 0.93239 1.04193 0.15799 0.0
C99 C 0.75394 1.0331 0.28674 0.0
C100 C 0.8495 0.06456 0.23819 0.0
C101 C 0.71658 1.03688 0.33758 0.0
C102 C 0.73035 0.0795 0.38502 0.0
C103 C 0.80527 0.07196 0.28413 0.0
C104 C 0.78016 0.11979 0.37775 0.0
C105 C 0.90305 0.09202 0.24963 0.0
C106 C 0.87859 1.01702 0.14646 0.0
N107 N 0.81613 0.11459 0.32891 0.0
N108 N 0.83892 1.02812 0.18684 0.0
H109 H 0.97592 0.88897 0.25777 0.0
H110 H 0.10298 0.69493 0.35159 0.0
H111 H 0.11262 0.85762 0.14981 0.0
H112 H 0.95348 0.71482 0.43398 0.0
H113 H 0.10758 0.75032 0.27419 0.0
H114 H 0.96787 0.82269 0.32033 0.0
C115 C 1.00439 0.86798 0.24714 0.0
C116 C 0.04523 0.87914 0.19866 0.0
C117 C 0.07359 0.74203 0.3089 0.0
C118 C 1.03634 0.80247 0.27102 0.0
C119 C 0.07083 0.7103 0.35284 0.0
C120 C 1.02816 0.70096 0.39977 0.0
C121 C 1.0333 0.76427 0.31215 0.0
C122 C 0.98764 0.72187 0.39942 0.0
C123 C 0.99961 0.82978 0.2829 0.0
C124 C 0.08049 0.8501 0.18676 0.0
N125 N 0.99145 0.7527 0.35677 0.0
N126 N 0.07559 0.81331 0.22319 0.0
H127 H 0.1457 1.04033 0.25523 0.0
H128 H 0.39423 0.98019 0.3365 0.0
H129 H 0.25536 0.99151 0.11349 0.0
H130 H 0.32613 0.09281 0.44814 0.0
H131 H 0.33625 0.97004 0.25719 0.0
H132 H 0.20171 1.04205 0.33189 0.0
C133 C 0.18119 1.0294 0.24027 0.0
C134 C 0.19633 1.01655 0.17786 0.0
C135 C 0.33422 0.99685 0.29925 0.0
C136 C 0.26048 1.01843 0.26521 0.0
C137 C 0.36749 1.00296 0.34421 0.0
C138 C 0.36443 1.03669 0.39954 0.0
C139 C 0.29749 1.02424 0.31025 0.0
C140 C 0.32884 0.06513 0.4071 0.0
C141 C 0.2133 1.03071 0.28397 0.0
C142 C 0.24265 1.00239 0.16114 0.0
N143 N 0.29651 0.05786 0.36337 0.0
N144 N 0.27328 1.00387 0.20459 0.0
H145 H 0.05228 0.89361 0.89209 0.0
H146 H 0.92339 0.69599 0.60507 0.0
H147 H 0.89015 0.85987 0.85378 0.0
H148 H 0.07293 0.7041 0.65918 0.0
H149 H 0.90782 0.75033 0.70164 0.0
H150 H 0.05829 0.81917 0.81401 0.0
C151 C 1.01755 0.87 0.86825 0.0
C152 C 0.97082 0.88364 0.87919 0.0
C153 C 0.94373 0.73971 0.69311 0.0
C154 C 0.97781 0.79871 0.78907 0.0
C155 C 0.95252 0.70863 0.63799 0.0
C156 C 0.99949 0.69575 0.62434 0.0
C157 C 0.98272 0.75907 0.7346 0.0
C158 C 1.0361 0.7131 0.66832 0.0
C159 C 1.02112 0.82755 0.82347 0.0
C160 C 0.92723 0.85144 0.84665 0.0
N161 N 1.02737 0.74463 0.72119 0.0
N162 N 0.93207 0.81109 0.80266 0.0
H163 H 0.1187 0.07263 0.76694 0.0
H164 H 0.37303 0.99397 0.65728 0.0
H165 H 0.18621 1.02865 0.90222 0.0
H166 H 0.3544 0.12915 0.60281 0.0
H167 H 0.30341 0.99607 0.74411 0.0
H168 H 0.20083 0.08039 0.69825 0.0
C169 C 0.15071 0.06432 0.78208 0.0
C170 C 0.14576 0.05019 0.84041 0.0
C171 C 0.31579 1.026 0.71391 0.0
C172 C 0.23968 0.05855 0.76172 0.0
C173 C 0.35562 1.02507 0.6649 0.0
C174 C 0.36895 0.06125 0.62296 0.0
C175 C 0.28898 0.06263 0.71952 0.0
C176 C 0.34483 0.10038 0.63406 0.0
C177 C 0.1977 0.06917 0.74307 0.0
C178 C 0.18871 1.03996 0.85762 0.0
N179 N 0.30521 0.09933 0.68042 0.0
N180 N 0.23391 0.04379 0.81809 0.0
H181 H 0.95413 0.21247 0.85439 0.0
H182 H 0.12273 0.35881 0.56871 0.0
H183 H 0.10415 0.19981 0.76264 0.0
H184 H 0.97045 0.37337 0.64825 0.0
H185 H 0.11936 0.30804 0.64862 0.0
H186 H 0.96157 0.27857 0.78855 0.0
C187 C 0.98893 0.22426 0.82124 0.0
C188 C 1.02843 0.2005 0.81359 0.0
C189 C 0.0866 0.32239 0.64914 0.0
C190 C 1.03715 0.27534 0.73861 0.0
C191 C 0.08856 0.35135 0.60332 0.0
C192 C 0.04653 0.36972 0.60145 0.0
C193 C 0.04197 0.311 0.69354 0.0
C194 C 1.00364 0.35975 0.64812 0.0
C195 C 0.99304 0.26164 0.78353 0.0
C196 C 0.07245 0.21666 0.76966 0.0
N197 N 1.0021 0.33047 0.69201 0.0
N198 N 0.07546 0.25273 0.73393 0.0
H199 H 0.79841 1.03794 0.88534 0.0
H200 H 0.80141 0.14378 0.57616 0.0
H201 H 0.94214 0.0889 0.76098 0.0
H202 H 0.66167 1.02862 0.65668 0.0
H203 H 0.85262 0.14047 0.65506 0.0
H204 H 0.74732 0.05087 0.81279 0.0
C205 C 0.81942 0.05225 0.84297 0.0
C206 C 0.87477 0.06219 0.82916 0.0
C207 C 0.81068 0.11619 0.65547 0.0
C208 C 0.81624 0.07747 0.74623 0.0
C209 C 0.78134 0.11784 0.61041 0.0
C210 C 0.72717 0.08565 0.60892 0.0
C211 C 0.78555 0.0829 0.7002 0.0
C212 C 0.70312 0.05428 0.65591 0.0
C213 C 0.79007 0.05943 0.80156 0.0
C214 C 0.89959 0.08058 0.77344 0.0
N215 N 0.73254 0.05356 0.69951 0.0
N216 N 0.87013 0.08779 0.73398 0.0
loop_
_geom_bond_atom_site_label_1
_geom_bond_atom_site_label_2
_geom_bond_distance
_geom_bond_site_symmetry_2
_ccdc_geom_bond_type
Co0 O3 2.042 . S
Co0 O10 2.264 1_565 S
Co0 O29 2.286 1_455 S
Co0 O30 2.069 . S
Co0 O32 2.015 1_455 S
Co1 O3 2.122 1_545 S
Co1 O9 2.073 . S
Co1 O10 2.327 . S
Co1 O11 1.976 . S
Co2 O3 2.086 1_545 S
Co2 O5 2.087 1_454 S
Co2 O12 2.117 . S
Co2 O13 2.147 1_554 S
Co2 O17 2.106 1_444 S
Co2 O31 2.140 1_445 S
O3 Co0 2.042 . S
O3 Co1 2.122 1_565 S
O3 Co2 2.086 1_565 S
O3 H4 0.980 . S
H4 O3 0.980 . S
O5 Co2 2.087 1_656 S
O5 Co6 2.042 . S
O5 Co7 2.122 1_545 S
O5 H8 0.980 . S
Co6 O5 2.042 . S
Co6 O14 2.286 1_655 S
Co6 O15 2.069 . S
Co6 O16 2.015 1_655 S
Co6 O19 2.260 1_545 S
Co7 O5 2.122 1_565 S
Co7 O18 1.976 . S
Co7 O19 2.337 . S
Co7 O20 2.073 . S
H8 O5 0.980 . S
O9 Co1 2.073 . S
O9 C24 1.245 1_545 S
O10 Co0 2.264 1_545 S
O10 Co1 2.327 . S
O10 C24 1.257 1_545 S
O11 Co1 1.976 . S
O11 C23 1.251 . S
O12 Co2 2.117 . S
O12 C23 1.274 . S
O13 Co2 2.147 1_556 S
O13 C26 1.246 . S
O14 Co6 2.286 1_455 S
O14 C25 1.259 1_455 S
O15 Co6 2.069 . S
O15 C25 1.289 . S
O16 Co6 2.015 1_455 S
O16 C26 1.257 . S
O17 Co2 2.106 1_666 S
O17 C27 1.274 . S
O18 Co7 1.976 . S
O18 C27 1.251 . S
O19 Co6 2.260 1_565 S
O19 Co7 2.337 . S
O19 C28 1.251 1_565 S
O20 Co7 2.073 . S
O20 C28 1.245 1_565 S
C21 O29 1.259 1_455 S
C21 O30 1.289 . S
C22 O31 1.246 . S
C22 O32 1.257 . S
C23 O11 1.251 . S
C23 O12 1.274 . S
C24 O9 1.245 1_565 S
C24 O10 1.257 1_565 S
C25 O14 1.259 1_655 S
C25 O15 1.289 . S
C26 O13 1.246 . S
C26 O16 1.257 . S
C27 O17 1.274 . S
C27 O18 1.251 . S
C28 O19 1.251 1_545 S
C28 O20 1.245 1_545 S
O29 Co0 2.286 1_655 S
O29 C21 1.259 1_655 S
O30 Co0 2.069 . S
O30 C21 1.289 . S
O31 Co2 2.140 1_665 S
O31 C22 1.246 . S
O32 Co0 2.015 1_655 S
O32 C22 1.257 . S
H33 C41 0.940 . S
H34 C44 0.940 . S
H35 C46 0.940 . S
H36 C47 0.940 . S
H37 C50 0.940 . S
H38 C52 0.940 . S
N39 N40 1.190 . S
N39 C43 1.477 . S
N40 N39 1.190 . S
N40 C49 1.477 . S
C41 H33 0.940 . S
C41 C42 1.390 1_455 S
C41 C43 1.322 . S
C42 C41 1.390 1_655 S
C42 C46 1.370 . S
C43 N39 1.477 . S
C43 C41 1.322 . S
C43 C44 1.447 . S
C44 H34 0.940 . S
C44 C43 1.447 . S
C44 C45 1.373 . S
C45 C44 1.373 . S
C45 C46 1.417 1_455 S
C46 H35 0.940 . S
C46 C42 1.370 . S
C46 C45 1.417 1_655 S
C47 H36 0.940 . S
C47 C48 1.390 1_455 S
C47 C49 1.322 . S
C48 C47 1.390 1_655 S
C48 C52 1.370 . S
C49 N40 1.477 . S
C49 C47 1.322 . S
C49 C50 1.447 . S
C50 H37 0.940 . S
C50 C49 1.447 . S
C50 C51 1.373 . S
C51 C50 1.373 . S
C51 C52 1.417 1_455 S
C52 H38 0.940 . S
C52 C48 1.370 . S
C52 C51 1.417 1_655 S
H53 C61 0.940 . S
H54 C64 0.940 . S
H55 C66 0.940 . S
H56 C67 0.940 . S
H57 C70 0.940 . S
H58 C72 0.940 . S
N59 N60 1.190 . S
N59 C63 1.477 . S
N60 N59 1.190 . S
N60 C69 1.477 . S
C61 H53 0.940 . S
C61 C62 1.390 1_545 S
C61 C63 1.322 . S
C62 C61 1.390 1_565 S
C62 C66 1.370 . S
C63 N59 1.477 . S
C63 C61 1.322 . S
C63 C64 1.447 . S
C64 H54 0.940 . S
C64 C63 1.447 . S
C64 C65 1.373 . S
C65 C64 1.373 . S
C65 C66 1.417 1_545 S
C66 H55 0.940 . S
C66 C62 1.370 . S
C66 C65 1.417 1_565 S
C67 H56 0.940 . S
C67 C68 1.390 1_545 S
C67 C69 1.322 . S
C68 C67 1.390 1_565 S
C68 C72 1.370 . S
C69 N60 1.477 . S
C69 C67 1.322 . S
C69 C70 1.447 . S
C70 H57 0.940 . S
C70 C69 1.447 . S
C70 C71 1.373 . S
C71 C70 1.373 . S
C71 C72 1.417 1_545 S
C72 H58 0.940 . S
C72 C68 1.370 . S
C72 C71 1.417 1_565 S
H73 C79 0.930 . S
H74 C83 0.930 . S
H75 C88 0.929 . S
H76 C86 0.929 . S
H77 C81 0.929 . S
H78 C87 0.929 . S
C79 H73 0.930 . S
C79 C80 1.367 1_455 S
C79 C87 1.378 . S
C80 C79 1.367 1_655 S
C80 C88 1.433 . S
C81 H77 0.929 . S
C81 C83 1.378 . S
C81 C85 1.350 . S
C82 C85 1.463 . S
C82 C87 1.350 1_655 S
C82 N90 1.427 . S
C83 H74 0.930 . S
C83 C81 1.378 . S
C83 C84 1.367 . S
C84 C83 1.367 . S
C84 C86 1.433 1_655 S
C85 C81 1.350 . S
C85 C82 1.463 . S
C85 N89 1.427 1_655 S
C86 H76 0.929 . S
C86 C84 1.433 1_455 S
C86 N89 1.384 . S
C87 H78 0.929 . S
C87 C79 1.378 . S
C87 C82 1.350 1_455 S
C88 H75 0.929 . S
C88 C80 1.433 . S
C88 N90 1.384 . S
N89 C85 1.427 1_455 S
N89 C86 1.384 . S
N90 C82 1.427 . S
N90 C88 1.384 . S
H91 C97 0.930 1_545 S
H92 C101 0.930 . S
H93 C106 0.929 . S
H94 C104 0.929 . S
H95 C99 0.929 . S
H96 C105 0.925 . S
C97 H91 0.930 1_565 S
C97 C98 1.367 . S
C97 C105 1.378 . S
C98 C97 1.367 . S
C98 C106 1.433 . S
C99 H95 0.929 . S
C99 C101 1.378 . S
C99 C103 1.350 . S
C100 C103 1.463 . S
C100 C105 1.350 . S
C100 N108 1.427 . S
C101 H92 0.930 . S
C101 C99 1.378 . S
C101 C102 1.367 . S
C102 C101 1.367 . S
C102 C104 1.433 . S
C103 C99 1.350 . S
C103 C100 1.463 . S
C103 N107 1.427 . S
C104 H94 0.929 . S
C104 C102 1.433 . S
C104 N107 1.384 . S
C105 H96 0.925 . S
C105 C97 1.378 . S
C105 C100 1.350 . S
C106 H93 0.929 . S
C106 C98 1.433 . S
C106 N108 1.384 . S
N107 C103 1.427 . S
N107 C104 1.384 . S
N108 C100 1.427 . S
N108 C106 1.384 . S
H109 C115 0.930 . S
H110 C119 0.930 . S
H111 C124 0.929 . S
H112 C122 0.929 . S
H113 C117 0.929 . S
H114 C123 0.929 . S
C115 H109 0.930 . S
C115 C116 1.367 1_655 S
C115 C123 1.378 . S
C116 C115 1.367 1_455 S
C116 C124 1.433 . S
C117 H113 0.929 . S
C117 C119 1.378 . S
C117 C121 1.350 . S
C118 C121 1.463 . S
C118 C123 1.350 1_455 S
C118 N126 1.427 . S
C119 H110 0.930 . S
C119 C117 1.378 . S
C119 C120 1.367 . S
C120 C119 1.367 . S
C120 C122 1.433 1_455 S
C121 C117 1.350 . S
C121 C118 1.463 . S
C121 N125 1.427 1_455 S
C122 H112 0.929 . S
C122 C120 1.433 1_655 S
C122 N125 1.384 . S
C123 H114 0.929 . S
C123 C115 1.378 . S
C123 C118 1.350 1_655 S
C124 H111 0.929 . S
C124 C116 1.433 . S
C124 N126 1.384 . S
N125 C121 1.427 1_655 S
N125 C122 1.384 . S
N126 C118 1.427 . S
N126 C124 1.384 . S
H127 C133 0.930 . S
H128 C137 0.930 . S
H129 C142 0.929 . S
H130 C140 0.929 . S
H131 C135 0.929 . S
H132 C141 0.929 1_545 S
C133 H127 0.930 . S
C133 C134 1.367 . S
C133 C141 1.378 . S
C134 C133 1.367 . S
C134 C142 1.433 . S
C135 H131 0.929 . S
C135 C137 1.378 . S
C135 C139 1.350 . S
C136 C139 1.463 . S
C136 C141 1.350 . S
C136 N144 1.427 . S
C137 H128 0.930 . S
C137 C135 1.378 . S
C137 C138 1.367 1_565 S
C138 C137 1.367 1_545 S
C138 C140 1.433 . S
C139 C135 1.350 . S
C139 C136 1.463 . S
C139 N143 1.427 1_565 S
C140 H130 0.929 . S
C140 C138 1.433 . S
C140 N143 1.384 . S
C141 H132 0.929 1_565 S
C141 C133 1.378 . S
C141 C136 1.350 . S
C142 H129 0.929 . S
C142 C134 1.433 . S
C142 N144 1.384 . S
N143 C139 1.427 1_545 S
N143 C140 1.384 . S
N144 C136 1.427 . S
N144 C142 1.384 . S
H145 C151 0.930 . S
H146 C155 0.930 . S
H147 C160 0.929 . S
H148 C158 0.929 . S
H149 C153 0.929 . S
H150 C159 0.929 . S
C151 H145 0.930 . S
C151 C152 1.367 . S
C151 C159 1.378 . S
C152 C151 1.367 . S
C152 C160 1.433 1_455 S
C153 H149 0.929 . S
C153 C155 1.378 . S
C153 C157 1.350 . S
C154 C157 1.461 . S
C154 C159 1.346 1_655 S
C154 N162 1.433 . S
C155 H146 0.930 . S
C155 C153 1.378 . S
C155 C156 1.367 . S
C156 C155 1.367 . S
C156 C158 1.433 1_655 S
C157 C153 1.350 . S
C157 C154 1.461 . S
C157 N161 1.427 1_655 S
C158 H148 0.929 . S
C158 C156 1.433 1_455 S
C158 N161 1.384 . S
C159 H150 0.929 . S
C159 C151 1.378 . S
C159 C154 1.346 1_455 S
C160 H147 0.929 . S
C160 C152 1.433 1_655 S
C160 N162 1.384 . S
N161 C157 1.427 1_455 S
N161 C158 1.384 . S
N162 C154 1.433 . S
N162 C160 1.384 . S
H163 C169 0.930 . S
H164 C173 0.930 1_545 S
H165 C178 0.929 . S
H166 C176 0.929 . S
H167 C171 0.928 . S
H168 C177 0.929 . S
C169 H163 0.930 . S
C169 C170 1.367 1_565 S
C169 C177 1.378 . S
C170 C169 1.367 1_545 S
C170 C178 1.433 . S
C171 H167 0.928 . S
C171 C173 1.378 1_545 S
C171 C175 1.350 1_545 S
C172 C175 1.464 . S
C172 C177 1.346 . S
C172 N180 1.430 1_565 S
C173 H164 0.930 1_565 S
C173 C171 1.378 1_565 S
C173 C174 1.367 . S
C174 C173 1.367 . S
C174 C176 1.433 . S
C175 C171 1.350 1_565 S
C175 C172 1.464 . S
C175 N179 1.427 . S
C176 H166 0.929 . S
C176 C174 1.433 . S
C176 N179 1.384 . S
C177 H168 0.929 . S
C177 C169 1.378 . S
C177 C172 1.346 . S
C178 H165 0.929 . S
C178 C170 1.433 . S
C178 N180 1.384 . S
N179 C175 1.427 . S
N179 C176 1.384 . S
N180 C172 1.430 1_545 S
N180 C178 1.384 . S
H181 C187 0.930 . S
H182 C191 0.930 . S
H183 C196 0.927 1_455 S
H184 C194 0.929 . S
H185 C189 0.929 . S
H186 C195 0.929 . S
C187 H181 0.930 . S
C187 C188 1.367 . S
C187 C195 1.378 . S
C188 C187 1.367 . S
C188 C196 1.433 . S
C189 H185 0.929 . S
C189 C191 1.378 . S
C189 C193 1.350 1_455 S
C190 C193 1.463 . S
C190 C195 1.350 . S
C190 N198 1.430 . S
C191 H182 0.930 . S
C191 C189 1.378 . S
C191 C192 1.367 . S
C192 C191 1.367 . S
C192 C194 1.433 1_455 S
C193 C189 1.350 1_655 S
C193 C190 1.463 . S
C193 N197 1.427 . S
C194 H184 0.929 . S
C194 C192 1.433 1_655 S
C194 N197 1.384 . S
C195 H186 0.929 . S
C195 C187 1.378 . S
C195 C190 1.350 . S
C196 H183 0.927 1_655 S
C196 C188 1.433 . S
C196 N198 1.381 . S
N197 C193 1.427 . S
N197 C194 1.384 . S
N198 C190 1.430 . S
N198 C196 1.381 . S
H199 C205 0.930 . S
H200 C209 0.930 . S
H201 C214 0.929 . S
H202 C212 0.929 . S
H203 C207 0.929 . S
H204 C213 0.929 . S
C205 H199 0.930 . S
C205 C206 1.367 1_565 S
C205 C213 1.378 . S
C206 C205 1.367 1_545 S
C206 C214 1.433 . S
C207 H203 0.929 . S
C207 C209 1.378 . S
C207 C211 1.350 . S
C208 C211 1.463 . S
C208 C213 1.350 1_545 S
C208 N216 1.427 . S
C209 H200 0.930 . S
C209 C207 1.378 . S
C209 C210 1.367 . S
C210 C209 1.367 . S
C210 C212 1.433 1_545 S
C211 C207 1.350 . S
C211 C208 1.463 . S
C211 N215 1.427 1_545 S
C212 H202 0.929 . S
C212 C210 1.433 1_565 S
C212 N215 1.384 . S
C213 H204 0.929 . S
C213 C205 1.378 . S
C213 C208 1.350 1_565 S
C214 H201 0.929 . S
C214 C206 1.433 . S
C214 N216 1.384 . S
N215 C211 1.427 1_565 S
N215 C212 1.384 . S
N216 C208 1.427 . S
N216 C214 1.384 . S
C80 C23 1.508 1_655 S
C84 C42 1.572 . S
C98 C22 1.644 . S
C102 C62 1.663 . S
C116 C21 1.940 . S
C120 C51 1.931 . S
C134 C24 1.690 . S
C138 C71 1.761 . S
C152 C27 1.513 1_455 S
C156 C48 1.565 . S
C170 C26 1.650 . S
C174 C68 1.662 . S
C192 C45 1.932 . S
C188 C25 1.947 . S
C206 C28 1.682 . S
C210 C65 1.747 . S
