# Generated by pormake.
# Topology rtl, (3,6)-cn, num edge types: 1
# Building blocks:
#     Node 0, Type 0, BuildingBlock: PAMTOO_clean_linker_0, # of connection points: 3
#     Node 1, Type 0, BuildingBlock: PAMTOO_clean_linker_0, # of connection points: 3
#     Node 2, Type 0, BuildingBlock: PAMTOO_clean_linker_0, # of connection points: 3
#     Node 3, Type 0, BuildingBlock: PAMTOO_clean_linker_0, # of connection points: 3
#     Node 4, Type 1, BuildingBlock: LEVNOQ01_clean_sbu_1, # of connection points: 6
#     Node 5, Type 1, BuildingBlock: LEVNOQ01_clean_sbu_1, # of connection points: 6
#     Edge 6, Type (0, 1), BuildingBlock: OJICUG_clean_linker_0, # of connection points: 2
#     Edge 7, Type (0, 1), BuildingBlock: OJICUG_clean_linker_0, # of connection points: 2
#     Edge 8, Type (0, 1), BuildingBlock: OJICUG_clean_linker_0, # of connection points: 2
#     Edge 9, Type (0, 1), BuildingBlock: OJICUG_clean_linker_0, # of connection points: 2
#     Edge 10, Type (0, 1), BuildingBlock: OJICUG_clean_linker_0, # of connection points: 2
#     Edge 11, Type (0, 1), BuildingBlock: OJICUG_clean_linker_0, # of connection points: 2
#     Edge 12, Type (0, 1), BuildingBlock: OJICUG_clean_linker_0, # of connection points: 2
#     Edge 13, Type (0, 1), BuildingBlock: OJICUG_clean_linker_0, # of connection points: 2
#     Edge 14, Type (0, 1), BuildingBlock: OJICUG_clean_linker_0, # of connection points: 2
#     Edge 15, Type (0, 1), BuildingBlock: OJICUG_clean_linker_0, # of connection points: 2
#     Edge 16, Type (0, 1), BuildingBlock: OJICUG_clean_linker_0, # of connection points: 2
#     Edge 17, Type (0, 1), BuildingBlock: OJICUG_clean_linker_0, # of connection points: 2
# Relax obj value: 0.021
# Max RMSD: 0.110
# Mean RMSD: 0.087
data_MOF--net-rtl--node1-LEVNOQ01_clean_sbu_1--node2-PAMTOO_clean_linker_0--edge1-OJICUG_clean_linker_0
_symmetry_space_group_name_H-M    P1
_symmetry_Int_Tables_number       1
_symmetry_cell_setting            triclinic
loop_
_symmetry_equiv_pos_as_xyz
'x, y, z'
_cell_length_a     25.881921
_cell_length_b     25.665607
_cell_length_c     16.148069
_cell_angle_alpha  92.801922
_cell_angle_beta   100.6901
_cell_angle_gamma 89.898319
loop_
_atom_site_label
_atom_site_type_symbol
_atom_site_fract_x
_atom_site_fract_y
_atom_site_fract_z
_atom_type_partial_charge
H0 H 0.07775 0.88968 0.01172 0.0
H1 H 0.18366 0.81456 0.20681 0.0
H2 H 0.20344 0.79397 0.94974 0.0
H3 H 0.21281 0.70153 0.06507 0.0
C4 C 0.24491 0.72094 0.1118 0.0
O5 O 0.24275 0.7745 0.10642 0.0
H6 H 0.24004 0.71107 0.17619 0.0
C7 C 0.11 0.86322 0.03035 0.0
C8 C 0.13709 0.8418 0.96892 0.0
C9 C 0.12611 0.8537 0.11638 0.0
C10 C 0.17019 0.82221 0.14095 0.0
C11 C 0.19783 0.8009 0.08089 0.0
C12 C 0.18126 0.81043 0.99522 0.0
H13 H 0.65834 0.58891 0.6246 0.0
H14 H 0.74182 0.69823 0.5015 0.0
H15 H 0.78131 0.68537 0.76926 0.0
H16 H 0.81447 0.78386 0.74363 0.0
C17 C 0.79667 0.78227 0.67537 0.0
O18 O 0.80335 0.73272 0.64138 0.0
H19 H 0.75414 0.79157 0.6703 0.0
C20 C 0.68847 0.61836 0.62688 0.0
C21 C 0.7176 0.63538 0.70588 0.0
C22 C 0.69645 0.64027 0.5517 0.0
C23 C 0.73545 0.67937 0.55732 0.0
C24 C 0.76635 0.69483 0.63567 0.0
C25 C 0.75793 0.67219 0.70911 0.0
H26 H 0.9348 0.15699 0.05413 0.0
H27 H 0.86066 0.25924 0.86457 0.0
H28 H 0.83185 0.27833 0.11764 0.0
H29 H 0.74919 0.26337 0.90744 0.0
C30 C 0.76007 0.30557 0.91629 0.0
O31 O 0.80989 0.31299 0.9642 0.0
H32 H 0.75987 0.31995 0.85242 0.0
C33 C 0.91024 0.19034 0.03613 0.0
C34 C 0.88636 0.21703 0.09696 0.0
C35 C 0.90079 0.20451 0.95178 0.0
C36 C 0.86771 0.24685 0.92887 0.0
C37 C 0.84249 0.27299 0.98823 0.0
C38 C 0.85137 0.25781 0.07205 0.0
H39 H 0.37831 0.45546 0.47302 0.0
H40 H 0.29376 0.35202 0.60362 0.0
H41 H 0.26964 0.34196 0.33362 0.0
H42 H 0.17644 0.30789 0.38968 0.0
C43 C 0.19369 0.30096 0.45657 0.0
O44 O 0.24778 0.29988 0.46598 0.0
H45 H 0.18137 0.33299 0.49753 0.0
C46 C 0.34856 0.42565 0.47172 0.0
C47 C 0.32414 0.4024 0.39363 0.0
C48 C 0.3379 0.40843 0.54838 0.0
C49 C 0.30224 0.36672 0.5458 0.0
C50 C 0.27789 0.34304 0.46818 0.0
C51 C 0.28842 0.36118 0.39274 0.0
O52 O 0.04033 0.06581 0.72885 0.0
Mg53 Mg 0.08321 0.04129 0.63333 0.0
O54 O 0.97033 0.07496 0.63083 0.0
Mg55 Mg 0.00256 0.02399 0.53012 0.0
O56 O 0.07437 0.08521 0.53032 0.0
O57 O 0.14091 0.09396 0.64145 0.0
O58 O 0.03627 0.97306 0.42933 0.0
O59 O 0.96805 0.08603 0.42792 0.0
Mg60 Mg 0.91937 0.99906 0.41475 0.0
O61 O 0.92955 0.96559 0.52888 0.0
O62 O 0.96617 0.96993 0.32857 0.0
O63 O 0.88356 0.07197 0.39899 0.0
O64 O 0.8637 0.94607 0.41977 0.0
C65 C 0.08216 0.94327 0.65596 0.0
C66 C 0.99386 0.08231 0.70708 0.0
C67 C 0.11741 0.10883 0.56919 0.0
C68 C 0.01418 0.95956 0.35405 0.0
C69 C 0.92205 0.10074 0.39421 0.0
C70 C 0.88685 0.93919 0.4962 0.0
O71 O 0.11944 0.96789 0.63551 0.0
O72 O 0.03581 0.96111 0.63373 0.0
O73 O 0.56104 0.49956 0.25351 0.0
Mg74 Mg 0.53898 0.44688 0.14574 0.0
O75 O 0.57142 0.5616 0.16888 0.0
Mg76 Mg 0.51868 0.52278 0.04871 0.0
O77 O 0.57708 0.45017 0.04631 0.0
O78 O 0.59401 0.39153 0.14669 0.0
O79 O 0.4663 0.48579 0.9267 0.0
O80 O 0.58284 0.54771 0.96887 0.0
Mg81 Mg 0.50403 0.59955 0.96241 0.0
O82 O 0.4593 0.59569 0.05292 0.0
O83 O 0.47631 0.5524 0.85055 0.0
O84 O 0.5806 0.63167 0.98826 0.0
O85 O 0.45387 0.65918 0.96082 0.0
C86 C 0.43731 0.44951 0.13584 0.0
C87 C 0.5774 0.54478 0.24292 0.0
C88 C 0.60279 0.40961 0.07748 0.0
C89 C 0.45863 0.50681 0.8555 0.0
C90 C 0.60393 0.5921 0.96512 0.0
C91 C 0.43751 0.63824 0.02217 0.0
O92 O 0.46482 0.41118 0.12016 0.0
O93 O 0.45467 0.49513 0.12769 0.0
C94 C 0.19776 0.23054 0.55995 0.0
C95 C 0.17452 0.24988 0.48228 0.0
H96 H 0.199 0.17067 0.64686 0.0
C97 C 0.13272 0.22183 0.43126 0.0
H98 H 0.22958 0.25175 0.60082 0.0
C99 C 0.1146 0.1751 0.45786 0.0
C100 C 0.13804 0.15578 0.53583 0.0
H101 H 0.11382 0.23627 0.37129 0.0
H102 H 0.08202 0.15452 0.41807 0.0
C103 C 0.18013 0.18394 0.58604 0.0
C104 C 0.31832 0.72251 0.02903 0.0
C105 C 0.29684 0.70127 0.09361 0.0
H106 H 0.3799 0.72051 0.95806 0.0
C107 C 0.32265 0.65944 0.13671 0.0
H108 H 0.29877 0.75393 0.99342 0.0
C109 C 0.36936 0.63952 0.11575 0.0
C110 C 0.39088 0.66109 0.05117 0.0
H111 H 0.30631 0.64176 0.18579 0.0
H112 H 0.38801 0.60677 0.14894 0.0
C113 C 0.36497 0.70315 0.0088 0.0
C114 C 0.86696 0.85013 0.66934 0.0
C115 C 0.82154 0.82225 0.62987 0.0
H116 H 0.92323 0.90968 0.65839 0.0
C117 C 0.79833 0.83283 0.54714 0.0
H118 H 0.8856 0.84246 0.73331 0.0
C119 C 0.81958 0.87101 0.50464 0.0
C120 C 0.86477 0.89951 0.54382 0.0
H121 H 0.76339 0.81171 0.51561 0.0
H122 H 0.80036 0.87807 0.44073 0.0
C123 C 0.88839 0.88858 0.62666 0.0
C124 C 0.70725 0.31478 0.0315 0.0
C125 C 0.72012 0.3338 0.95806 0.0
H126 H 0.6601 0.32355 0.12637 0.0
C127 C 0.69474 0.37853 0.92396 0.0
H128 H 0.72642 0.28041 0.0588 0.0
C129 C 0.65637 0.40335 0.96227 0.0
C130 C 0.64306 0.38398 0.03554 0.0
H131 H 0.70426 0.39399 0.86735 0.0
H132 H 0.63715 0.43754 0.93454 0.0
C133 C 0.66916 0.33954 0.06984 0.0
C134 C 0.04277 0.88263 0.16204 0.0
C135 C 0.0978 0.87855 0.18006 0.0
H136 H 0.97359 0.91129 0.20224 0.0
C137 C 0.12532 0.90004 0.25765 0.0
H138 H 0.02023 0.8657 0.10371 0.0
C139 C 0.09837 0.9259 0.31504 0.0
C140 C 0.04344 0.93102 0.29568 0.0
H141 H 0.16779 0.8981 0.27316 0.0
H142 H 0.12062 0.94265 0.37373 0.0
C143 C 0.016 0.9087 0.21883 0.0
C144 C 0.68279 0.56935 0.79261 0.0
C145 C 0.70061 0.62027 0.78452 0.0
H146 H 0.63883 0.52003 0.85773 0.0
C147 C 0.69486 0.65899 0.84677 0.0
H148 H 0.68747 0.53846 0.7465 0.0
C149 C 0.66739 0.64837 0.91073 0.0
C150 C 0.64504 0.59883 0.91385 0.0
H151 H 0.70786 0.69868 0.84242 0.0
H152 H 0.6605 0.68003 0.95415 0.0
C153 C 0.65535 0.55868 0.85687 0.0
C154 C 0.94793 0.18752 0.2244 0.0
C155 C 0.8964 0.19915 0.18458 0.0
H156 H 0.99667 0.14803 0.32331 0.0
C157 C 0.85438 0.18656 0.22393 0.0
H158 H 0.98114 0.19741 0.1959 0.0
C159 C 0.86329 0.15828 0.29715 0.0
C160 C 0.91442 0.14235 0.33257 0.0
H161 H 0.8143 0.19504 0.19472 0.0
H162 H 0.82971 0.14595 0.32275 0.0
C163 C 0.95688 0.15956 0.29783 0.0
C164 C 0.37665 0.48705 0.63638 0.0
C165 C 0.36607 0.43315 0.62997 0.0
H166 H 0.41423 0.55189 0.7111 0.0
C167 C 0.38496 0.40342 0.70029 0.0
H168 H 0.36178 0.51154 0.58461 0.0
C169 C 0.41474 0.42699 0.77425 0.0
C170 C 0.42664 0.48061 0.77895 0.0
H171 H 0.37799 0.36173 0.69749 0.0
H172 H 0.42924 0.40311 0.82698 0.0
C173 C 0.40678 0.51029 0.70932 0.0
C174 C 0.61161 0.60426 0.46447 0.0
C175 C 0.66361 0.6221 0.46868 0.0
H176 H 0.54425 0.56516 0.39022 0.0
C177 C 0.68448 0.61945 0.39384 0.0
H178 H 0.59286 0.60745 0.51906 0.0
C179 C 0.65515 0.59723 0.31849 0.0
C180 C 0.60493 0.57619 0.31698 0.0
H181 H 0.72428 0.63238 0.394 0.0
H182 H 0.67287 0.59384 0.26274 0.0
C183 C 0.58317 0.58065 0.39018 0.0
C184 C 0.8952 0.16111 0.80711 0.0
C185 C 0.92455 0.174 0.88794 0.0
H186 H 0.89377 0.12159 0.68659 0.0
C187 C 0.97643 0.15603 0.90853 0.0
H188 H 0.85486 0.17373 0.78967 0.0
C189 C 0.99834 0.12561 0.85018 0.0
C190 C 0.9691 0.11266 0.7694 0.0
H191 H 0.00039 0.16583 0.96972 0.0
H192 H 0.03856 0.11276 0.86834 0.0
C193 C 0.91729 0.1308 0.74835 0.0
C194 C 0.35422 0.46914 0.30296 0.0
C195 C 0.34121 0.41709 0.31477 0.0
H196 H 0.39425 0.52077 0.23518 0.0
C197 C 0.35089 0.37805 0.25559 0.0
H198 H 0.34615 0.50033 0.34632 0.0
C199 C 0.37758 0.3899 0.19134 0.0
C200 C 0.39559 0.44094 0.18515 0.0
H201 H 0.34162 0.33756 0.26251 0.0
H202 H 0.3876 0.35822 0.15047 0.0
C203 C 0.3812 0.48099 0.23864 0.0
C204 C 0.16063 0.86933 0.83301 0.0
C205 C 0.12186 0.85689 0.87948 0.0
H206 H 0.17832 0.90502 0.72467 0.0
C207 C 0.06871 0.86467 0.84311 0.0
H208 H 0.20192 0.86412 0.85866 0.0
C209 C 0.0551 0.88885 0.76621 0.0
C210 C 0.09433 0.90551 0.72369 0.0
H211 H 0.03765 0.85431 0.87603 0.0
H212 H 0.01414 0.89737 0.74299 0.0
C213 C 0.14701 0.8931 0.75596 0.0
loop_
_geom_bond_atom_site_label_1
_geom_bond_atom_site_label_2
_geom_bond_distance
_geom_bond_site_symmetry_2
_ccdc_geom_bond_type
H0 C7 0.929 . S
H1 C10 0.930 . S
H2 C12 0.929 . S
H3 C4 0.969 . S
C4 H3 0.969 . S
C4 O5 1.550 . S
C4 H6 0.973 . S
O5 C4 1.550 . S
O5 C11 1.412 . S
H6 C4 0.973 . S
C7 H0 0.929 . S
C7 C8 1.393 1_554 S
C7 C9 1.364 . S
C8 C7 1.393 1_556 S
C8 C12 1.378 . S
C9 C7 1.364 . S
C9 C10 1.374 . S
C10 H1 0.930 . S
C10 C9 1.374 . S
C10 C11 1.383 . S
C11 O5 1.412 . S
C11 C10 1.383 . S
C11 C12 1.394 1_554 S
C12 H2 0.929 . S
C12 C8 1.378 . S
C12 C11 1.394 1_556 S
H13 C20 0.929 . S
H14 C23 0.930 . S
H15 C25 0.929 . S
H16 C17 0.969 . S
C17 H16 0.969 . S
C17 O18 1.550 . S
C17 H19 0.973 . S
O18 C17 1.550 . S
O18 C24 1.412 . S
H19 C17 0.973 . S
C20 H13 0.929 . S
C20 C21 1.400 . S
C20 C22 1.364 . S
C21 C20 1.400 . S
C21 C25 1.377 . S
C22 C20 1.364 . S
C22 C23 1.374 . S
C23 H14 0.930 . S
C23 C22 1.374 . S
C23 C24 1.383 . S
C24 O18 1.412 . S
C24 C23 1.383 . S
C24 C25 1.394 . S
C25 H15 0.929 . S
C25 C21 1.377 . S
C25 C24 1.394 . S
H26 C33 0.929 . S
H27 C36 0.930 . S
H28 C38 0.929 . S
H29 C30 0.969 . S
C30 H29 0.969 . S
C30 O31 1.550 1_556 S
C30 H32 0.973 . S
O31 C30 1.550 1_554 S
O31 C37 1.412 . S
H32 C30 0.973 . S
C33 H26 0.929 . S
C33 C34 1.400 . S
C33 C35 1.364 1_554 S
C34 C33 1.400 . S
C34 C38 1.377 . S
C35 C33 1.364 1_556 S
C35 C36 1.374 . S
C36 H27 0.930 . S
C36 C35 1.374 . S
C36 C37 1.383 1_556 S
C37 O31 1.412 . S
C37 C36 1.383 1_554 S
C37 C38 1.394 . S
C38 H28 0.929 . S
C38 C34 1.377 . S
C38 C37 1.394 . S
H39 C46 0.929 . S
H40 C49 0.930 . S
H41 C51 0.929 . S
H42 C43 0.969 . S
C43 H42 0.969 . S
C43 O44 1.550 . S
C43 H45 0.973 . S
O44 C43 1.550 . S
O44 C50 1.412 . S
H45 C43 0.973 . S
C46 H39 0.929 . S
C46 C47 1.400 . S
C46 C48 1.364 . S
C47 C46 1.400 . S
C47 C51 1.377 . S
C48 C46 1.364 . S
C48 C49 1.374 . S
C49 H40 0.930 . S
C49 C48 1.374 . S
C49 C50 1.383 . S
C50 O44 1.412 . S
C50 C49 1.383 . S
C50 C51 1.394 . S
C51 H41 0.929 . S
C51 C47 1.377 . S
C51 C50 1.394 . S
O52 Mg53 1.990 . S
O52 C66 1.253 1_455 S
Mg53 O52 1.990 . S
Mg53 O56 2.180 . S
Mg53 O57 2.117 . S
Mg53 O71 2.030 . S
O54 Mg55 2.072 1_655 S
O54 C66 1.260 . S
Mg55 O54 2.072 1_455 S
Mg55 O56 2.099 . S
Mg55 O58 2.079 1_545 S
Mg55 O59 2.072 1_455 S
Mg55 O61 2.099 1_445 S
Mg55 O72 2.079 1_545 S
O56 Mg53 2.180 . S
O56 Mg55 2.099 . S
O56 C67 1.279 . S
O57 Mg53 2.117 . S
O57 C67 1.250 . S
O58 Mg55 2.079 1_565 S
O58 C68 1.264 . S
O59 Mg55 2.072 1_655 S
O59 C69 1.260 . S
Mg60 O61 2.180 . S
Mg60 O62 2.030 1_655 S
Mg60 O63 1.990 1_565 S
Mg60 O64 2.117 . S
O61 Mg55 2.099 1_665 S
O61 Mg60 2.180 . S
O61 C70 1.279 . S
O62 Mg60 2.030 1_455 S
O62 C68 1.248 . S
O63 Mg60 1.990 1_545 S
O63 C69 1.253 . S
O64 Mg60 2.117 . S
O64 C70 1.250 . S
C65 O71 1.248 1_565 S
C65 O72 1.264 . S
C66 O52 1.253 1_655 S
C66 O54 1.260 . S
C67 O56 1.279 . S
C67 O57 1.250 . S
C68 O58 1.264 . S
C68 O62 1.248 . S
C69 O59 1.260 . S
C69 O63 1.253 . S
C70 O61 1.279 . S
C70 O64 1.250 . S
O71 Mg53 2.030 . S
O71 C65 1.248 1_545 S
O72 Mg55 2.079 1_565 S
O72 C65 1.264 . S
O73 Mg74 1.990 . S
O73 C87 1.253 . S
Mg74 O73 1.990 . S
Mg74 O77 2.180 . S
Mg74 O78 2.117 . S
Mg74 O92 2.030 . S
O75 Mg76 2.072 . S
O75 C87 1.260 . S
Mg76 O75 2.072 . S
Mg76 O77 2.099 . S
Mg76 O79 2.079 1_554 S
Mg76 O80 2.072 1_554 S
Mg76 O82 2.099 . S
Mg76 O93 2.079 . S
O77 Mg74 2.180 . S
O77 Mg76 2.099 . S
O77 C88 1.279 . S
O78 Mg74 2.117 . S
O78 C88 1.250 . S
O79 Mg76 2.079 1_556 S
O79 C89 1.264 . S
O80 Mg76 2.072 1_556 S
O80 C90 1.260 . S
Mg81 O82 2.180 1_556 S
Mg81 O83 2.030 . S
Mg81 O84 1.990 . S
Mg81 O85 2.117 . S
O82 Mg76 2.099 . S
O82 Mg81 2.180 1_554 S
O82 C91 1.279 . S
O83 Mg81 2.030 . S
O83 C89 1.248 . S
O84 Mg81 1.990 . S
O84 C90 1.253 . S
O85 Mg81 2.117 . S
O85 C91 1.250 1_556 S
C86 O92 1.248 . S
C86 O93 1.264 . S
C87 O73 1.253 . S
C87 O75 1.260 . S
C88 O77 1.279 . S
C88 O78 1.250 . S
C89 O79 1.264 . S
C89 O83 1.248 . S
C90 O80 1.260 . S
C90 O84 1.253 . S
C91 O82 1.279 . S
C91 O85 1.250 1_554 S
O92 Mg74 2.030 . S
O92 C86 1.248 . S
O93 Mg76 2.079 . S
O93 C86 1.264 . S
C94 C95 1.387 . S
C94 H98 0.950 . S
C94 C103 1.390 . S
C95 C94 1.387 . S
C95 C97 1.387 . S
H96 C103 0.950 . S
C97 C95 1.387 . S
C97 C99 1.390 . S
C97 H101 0.950 . S
H98 C94 0.950 . S
C99 C97 1.390 . S
C99 C100 1.387 . S
C99 H102 0.950 . S
C100 C99 1.387 . S
C100 C103 1.387 . S
H101 C97 0.950 . S
H102 C99 0.950 . S
C103 C94 1.390 . S
C103 H96 0.950 . S
C103 C100 1.387 . S
C104 C105 1.387 . S
C104 H108 0.950 1_554 S
C104 C113 1.390 . S
C105 C104 1.387 . S
C105 C107 1.387 . S
H106 C113 0.950 1_556 S
C107 C105 1.387 . S
C107 C109 1.390 . S
C107 H111 0.950 . S
H108 C104 0.950 1_556 S
C109 C107 1.390 . S
C109 C110 1.387 . S
C109 H112 0.950 . S
C110 C109 1.387 . S
C110 C113 1.387 . S
H111 C107 0.950 . S
H112 C109 0.950 . S
C113 C104 1.390 . S
C113 H106 0.950 1_554 S
C113 C110 1.387 . S
C114 C115 1.387 . S
C114 H118 0.950 . S
C114 C123 1.390 . S
C115 C114 1.387 . S
C115 C117 1.387 . S
H116 C123 0.950 . S
C117 C115 1.387 . S
C117 C119 1.390 . S
C117 H121 0.950 . S
H118 C114 0.950 . S
C119 C117 1.390 . S
C119 C120 1.387 . S
C119 H122 0.950 . S
C120 C119 1.387 . S
C120 C123 1.387 . S
H121 C117 0.950 . S
H122 C119 0.950 . S
C123 C114 1.390 . S
C123 H116 0.950 . S
C123 C120 1.387 . S
C124 C125 1.387 1_554 S
C124 H128 0.950 . S
C124 C133 1.390 . S
C125 C124 1.387 1_556 S
C125 C127 1.387 . S
H126 C133 0.950 . S
C127 C125 1.387 . S
C127 C129 1.390 . S
C127 H131 0.950 . S
H128 C124 0.950 . S
C129 C127 1.390 . S
C129 C130 1.387 1_556 S
C129 H132 0.950 . S
C130 C129 1.387 1_554 S
C130 C133 1.387 . S
H131 C127 0.950 . S
H132 C129 0.950 . S
C133 C124 1.390 . S
C133 H126 0.950 . S
C133 C130 1.387 . S
C134 C135 1.387 . S
C134 H138 0.950 . S
C134 C143 1.390 . S
C135 C134 1.387 . S
C135 C137 1.387 . S
H136 C143 0.950 . S
C137 C135 1.387 . S
C137 C139 1.390 . S
C137 H141 0.950 . S
H138 C134 0.950 . S
C139 C137 1.390 . S
C139 C140 1.387 . S
C139 H142 0.950 . S
C140 C139 1.387 . S
C140 C143 1.387 . S
H141 C137 0.950 . S
H142 C139 0.950 . S
C143 C134 1.390 . S
C143 H136 0.950 . S
C143 C140 1.387 . S
C144 C145 1.387 . S
C144 H148 0.950 . S
C144 C153 1.390 . S
C145 C144 1.387 . S
C145 C147 1.387 . S
H146 C153 0.950 . S
C147 C145 1.387 . S
C147 C149 1.390 . S
C147 H151 0.950 . S
H148 C144 0.950 . S
C149 C147 1.390 . S
C149 C150 1.387 . S
C149 H152 0.950 . S
C150 C149 1.387 . S
C150 C153 1.387 . S
H151 C147 0.950 . S
H152 C149 0.950 . S
C153 C144 1.390 . S
C153 H146 0.950 . S
C153 C150 1.387 . S
C154 C155 1.387 . S
C154 H158 0.950 . S
C154 C163 1.390 . S
C155 C154 1.387 . S
C155 C157 1.387 . S
H156 C163 0.950 . S
C157 C155 1.387 . S
C157 C159 1.390 . S
C157 H161 0.950 . S
H158 C154 0.950 . S
C159 C157 1.390 . S
C159 C160 1.387 . S
C159 H162 0.950 . S
C160 C159 1.387 . S
C160 C163 1.387 . S
H161 C157 0.950 . S
H162 C159 0.950 . S
C163 C154 1.390 . S
C163 H156 0.950 . S
C163 C160 1.387 . S
C164 C165 1.387 . S
C164 H168 0.950 . S
C164 C173 1.390 . S
C165 C164 1.387 . S
C165 C167 1.387 . S
H166 C173 0.950 . S
C167 C165 1.387 . S
C167 C169 1.390 . S
C167 H171 0.950 . S
H168 C164 0.950 . S
C169 C167 1.390 . S
C169 C170 1.387 . S
C169 H172 0.950 . S
C170 C169 1.387 . S
C170 C173 1.387 . S
H171 C167 0.950 . S
H172 C169 0.950 . S
C173 C164 1.390 . S
C173 H166 0.950 . S
C173 C170 1.387 . S
C174 C175 1.387 . S
C174 H178 0.950 . S
C174 C183 1.390 . S
C175 C174 1.387 . S
C175 C177 1.387 . S
H176 C183 0.950 . S
C177 C175 1.387 . S
C177 C179 1.390 . S
C177 H181 0.950 . S
H178 C174 0.950 . S
C179 C177 1.390 . S
C179 C180 1.387 . S
C179 H182 0.950 . S
C180 C179 1.387 . S
C180 C183 1.387 . S
H181 C177 0.950 . S
H182 C179 0.950 . S
C183 C174 1.390 . S
C183 H176 0.950 . S
C183 C180 1.387 . S
C184 C185 1.387 . S
C184 H188 0.950 . S
C184 C193 1.390 . S
C185 C184 1.387 . S
C185 C187 1.387 . S
H186 C193 0.950 . S
C187 C185 1.387 . S
C187 C189 1.390 . S
C187 H191 0.950 . S
H188 C184 0.950 . S
C189 C187 1.390 . S
C189 C190 1.387 . S
C189 H192 0.950 . S
C190 C189 1.387 . S
C190 C193 1.387 . S
H191 C187 0.950 . S
H192 C189 0.950 . S
C193 C184 1.390 . S
C193 H186 0.950 . S
C193 C190 1.387 . S
C194 C195 1.387 . S
C194 H198 0.950 . S
C194 C203 1.390 . S
C195 C194 1.387 . S
C195 C197 1.387 . S
H196 C203 0.950 . S
C197 C195 1.387 . S
C197 C199 1.390 . S
C197 H201 0.950 . S
H198 C194 0.950 . S
C199 C197 1.390 . S
C199 C200 1.387 . S
C199 H202 0.950 . S
C200 C199 1.387 . S
C200 C203 1.387 . S
H201 C197 0.950 . S
H202 C199 0.950 . S
C203 C194 1.390 . S
C203 H196 0.950 . S
C203 C200 1.387 . S
C204 C205 1.387 . S
C204 H208 0.950 . S
C204 C213 1.390 . S
C205 C204 1.387 . S
C205 C207 1.387 . S
H206 C213 0.950 1_545 S
C207 C205 1.387 . S
C207 C209 1.390 . S
C207 H211 0.950 . S
H208 C204 0.950 . S
C209 C207 1.390 . S
C209 C210 1.387 . S
C209 H212 0.950 . S
C210 C209 1.387 . S
C210 C213 1.387 . S
H211 C207 0.950 . S
H212 C209 0.950 . S
C213 C204 1.390 . S
C213 H206 0.950 1_565 S
C213 C210 1.387 . S
C100 C67 1.288 . S
C95 C43 1.404 . S
C105 C4 1.462 . S
C110 C91 1.309 . S
C115 C17 1.502 . S
C120 C70 1.368 . S
C125 C30 1.566 . S
C130 C88 1.388 . S
C140 C68 1.459 . S
C135 C9 1.460 . S
C150 C90 1.497 . S
C145 C21 1.573 . S
C155 C34 1.566 . S
C160 C69 1.511 . S
C165 C48 1.483 . S
C170 C89 1.426 . S
C180 C87 1.495 . S
C175 C22 1.546 . S
C190 C66 1.502 . S
C185 C35 1.547 . S
C200 C86 1.440 . S
C195 C47 1.476 . S
C205 C8 1.500 . S
C210 C65 1.432 . S
