# Generated by pormake.
# Topology apo, (3,6)-cn, num edge types: 1
# Building blocks:
#     Node 0, Type 0, BuildingBlock: QEWDON_clean_linker_0, # of connection points: 3
#     Node 1, Type 0, BuildingBlock: QEWDON_clean_linker_0, # of connection points: 3
#     Node 2, Type 0, BuildingBlock: QEWDON_clean_linker_0, # of connection points: 3
#     Node 3, Type 0, BuildingBlock: QEWDON_clean_linker_0, # of connection points: 3
#     Node 4, Type 0, BuildingBlock: QEWDON_clean_linker_0, # of connection points: 3
#     Node 5, Type 0, BuildingBlock: QEWDON_clean_linker_0, # of connection points: 3
#     Node 6, Type 0, BuildingBlock: QEWDON_clean_linker_0, # of connection points: 3
#     Node 7, Type 0, BuildingBlock: QEWDON_clean_linker_0, # of connection points: 3
#     Node 8, Type 1, BuildingBlock: MIDCAF_clean_sbu_0, # of connection points: 6
#     Node 9, Type 1, BuildingBlock: MIDCAF_clean_sbu_0, # of connection points: 6
#     Node 10, Type 1, BuildingBlock: MIDCAF_clean_sbu_0, # of connection points: 6
#     Node 11, Type 1, BuildingBlock: MIDCAF_clean_sbu_0, # of connection points: 6
#     Edge 12, Type (0, 1), None
#     Edge 13, Type (0, 1), None
#     Edge 14, Type (0, 1), None
#     Edge 15, Type (0, 1), None
#     Edge 16, Type (0, 1), None
#     Edge 17, Type (0, 1), None
#     Edge 18, Type (0, 1), None
#     Edge 19, Type (0, 1), None
#     Edge 20, Type (0, 1), None
#     Edge 21, Type (0, 1), None
#     Edge 22, Type (0, 1), None
#     Edge 23, Type (0, 1), None
#     Edge 24, Type (0, 1), None
#     Edge 25, Type (0, 1), None
#     Edge 26, Type (0, 1), None
#     Edge 27, Type (0, 1), None
#     Edge 28, Type (0, 1), None
#     Edge 29, Type (0, 1), None
#     Edge 30, Type (0, 1), None
#     Edge 31, Type (0, 1), None
#     Edge 32, Type (0, 1), None
#     Edge 33, Type (0, 1), None
#     Edge 34, Type (0, 1), None
#     Edge 35, Type (0, 1), None
# Relax obj value: 0.010
# Max RMSD: 0.085
# Mean RMSD: 0.076
data_MOF--net-apo--node1-MIDCAF_clean_sbu_0--node2-QEWDON_clean_linker_0--edge1-none
_symmetry_space_group_name_H-M    P1
_symmetry_Int_Tables_number       1
_symmetry_cell_setting            triclinic
loop_
_symmetry_equiv_pos_as_xyz
'x, y, z'
_cell_length_a     17.884141
_cell_length_b     21.130107
_cell_length_c     14.544949
_cell_angle_alpha  90.00018
_cell_angle_beta   90.001853
_cell_angle_gamma 90.081117
loop_
_atom_site_label
_atom_site_type_symbol
_atom_site_fract_x
_atom_site_fract_y
_atom_site_fract_z
_atom_type_partial_charge
H0 H 0.40094 0.37961 0.27573 0.0
C1 C 0.41664 0.35704 0.33979 0.0
C2 C 0.4461 0.39417 0.41082 0.0
C3 C 0.40164 0.29232 0.35428 0.0
H4 H 0.48416 0.39603 0.5505 0.0
C5 C 0.46087 0.36686 0.49615 0.0
C6 C 0.45196 0.30175 0.5102 0.0
C7 C 0.42304 0.26422 0.43884 0.0
C8 C 0.35645 0.25644 0.28561 0.0
H9 H 0.41685 0.2137 0.44924 0.0
C10 C 0.29847 0.21728 0.3165 0.0
C11 C 0.24886 0.18746 0.25484 0.0
C12 C 0.36513 0.26533 0.19039 0.0
H13 H 0.40895 0.29573 0.16416 0.0
C14 C 0.31655 0.23544 0.12829 0.0
H15 H 0.28988 0.21227 0.38993 0.0
C16 C 0.2582 0.19694 0.16021 0.0
H17 H 0.22126 0.17439 0.11127 0.0
H18 H 0.32378 0.24257 0.05517 0.0
H19 H 0.14701 0.03471 0.77574 0.0
C20 C 0.13132 0.05729 0.8398 0.0
C21 C 0.10185 0.02016 0.91083 0.0
C22 C 0.14636 0.122 0.85428 0.0
H23 H 0.06378 0.01832 0.0505 0.0
C24 C 0.08709 0.04749 0.99615 0.0
C25 C 0.09603 0.11259 1.0102 0.0
C26 C 0.12497 0.15011 0.93884 0.0
C27 C 0.19156 0.15787 0.78561 0.0
H28 H 0.13117 0.20063 0.94924 0.0
C29 C 0.24954 0.19703 0.8165 0.0
C30 C 0.29915 0.22685 0.75484 0.0
C31 C 0.18288 0.14897 0.69039 0.0
H32 H 0.13905 0.11857 0.66416 0.0
C33 C 0.23146 0.17885 0.6283 0.0
H34 H 0.25812 0.20205 0.88993 0.0
C35 C 0.28981 0.21735 0.66021 0.0
H36 H 0.32675 0.2399 0.61127 0.0
H37 H 0.22423 0.17171 0.55517 0.0
H38 H 0.90081 0.03454 0.8209 0.0
C39 C 0.9165 0.05715 0.75683 0.0
C40 C 0.94622 0.0201 0.68592 0.0
C41 C 0.90127 0.12179 0.74221 0.0
H42 H 0.98438 0.01834 0.54629 0.0
C43 C 0.96096 0.04744 0.60058 0.0
C44 C 0.9518 0.11248 0.58639 0.0
C45 C 0.92267 0.14992 0.65763 0.0
C46 C 0.85605 0.15761 0.81086 0.0
H47 H 0.91635 0.20041 0.64713 0.0
C48 C 0.79825 0.19685 0.77995 0.0
C49 C 0.74879 0.22674 0.84162 0.0
C50 C 0.86467 0.14872 0.90609 0.0
H51 H 0.90837 0.11831 0.93235 0.0
C52 C 0.81621 0.17864 0.96817 0.0
H53 H 0.78969 0.20189 0.70654 0.0
C54 C 0.75807 0.21722 0.93625 0.0
H55 H 0.72124 0.23981 0.98519 0.0
H56 H 0.8234 0.17149 1.04129 0.0
H57 H 0.64713 0.37987 0.3209 0.0
C58 C 0.63145 0.35726 0.25684 0.0
C59 C 0.60172 0.3943 0.18593 0.0
C60 C 0.64672 0.29262 0.24222 0.0
H61 H 0.56356 0.39605 1.04629 0.0
C62 C 0.587 0.36696 0.10058 0.0
C63 C 0.59619 0.30192 0.08638 0.0
C64 C 0.62534 0.26448 0.15763 0.0
C65 C 0.69195 0.25682 0.31086 0.0
H66 H 0.63167 0.214 0.14713 0.0
C67 C 0.74976 0.21759 0.27996 0.0
C68 C 0.79923 0.18769 0.34162 0.0
C69 C 0.68334 0.26571 0.40609 0.0
H70 H 0.63963 0.29611 0.43236 0.0
C71 C 0.73181 0.23578 0.46817 0.0
H72 H 0.75832 0.21255 0.20654 0.0
C73 C 0.78995 0.19721 0.43625 0.0
H74 H 0.82678 0.17462 0.48519 0.0
H75 H 0.72462 0.24293 0.54129 0.0
H76 H 0.64695 0.53477 0.821 0.0
C77 C 0.63126 0.55734 0.75694 0.0
C78 C 0.60181 0.5202 0.6859 0.0
C79 C 0.64626 0.62206 0.74245 0.0
H80 H 0.56375 0.51834 0.54622 0.0
C81 C 0.58704 0.54752 0.60058 0.0
C82 C 0.59594 0.61263 0.58653 0.0
C83 C 0.62486 0.65016 0.65789 0.0
C84 C 0.69145 0.65794 0.81112 0.0
H85 H 0.63105 0.70068 0.64748 0.0
C86 C 0.74943 0.6971 0.78022 0.0
C87 C 0.79904 0.72692 0.84188 0.0
C88 C 0.68276 0.64905 0.90634 0.0
H89 H 0.63894 0.61866 0.93257 0.0
C90 C 0.73135 0.67894 0.96843 0.0
H91 H 0.75802 0.7021 0.7068 0.0
C92 C 0.7897 0.71743 0.93652 0.0
H93 H 0.82664 0.73999 0.98546 0.0
H94 H 0.72411 0.67181 1.04155 0.0
H95 H 0.9009 0.87965 0.32099 0.0
C96 C 0.91659 0.85708 0.25693 0.0
C97 C 0.94606 0.8942 0.1859 0.0
C98 C 0.90155 0.79236 0.24244 0.0
H99 H 0.98412 0.89604 1.04622 0.0
C100 C 0.96081 0.86688 0.10057 0.0
C101 C 0.95188 0.80177 0.08652 0.0
C102 C 0.92295 0.76425 0.15789 0.0
C103 C 0.85636 0.75649 0.31112 0.0
H104 H 0.91674 0.71374 0.14748 0.0
C105 C 0.79838 0.71733 0.28022 0.0
C106 C 0.74876 0.68752 0.34188 0.0
C107 C 0.86504 0.76539 0.40634 0.0
H108 H 0.90887 0.79578 0.43256 0.0
C109 C 0.81646 0.7355 0.46843 0.0
H110 H 0.78979 0.71232 0.2068 0.0
C111 C 0.7581 0.69701 0.43652 0.0
H112 H 0.72117 0.67446 0.48546 0.0
H113 H 0.82369 0.74264 0.54155 0.0
H114 H 0.14709 0.87982 0.27582 0.0
C115 C 0.13139 0.85721 0.33988 0.0
C116 C 0.10169 0.89426 0.4108 0.0
C117 C 0.14663 0.79257 0.35451 0.0
H118 H 0.06353 0.89603 0.55043 0.0
C119 C 0.08695 0.86693 0.49614 0.0
C120 C 0.0961 0.80188 0.51033 0.0
C121 C 0.12523 0.76444 0.43909 0.0
C122 C 0.19184 0.75675 0.28586 0.0
H123 H 0.13154 0.71396 0.44959 0.0
C124 C 0.24965 0.71752 0.31677 0.0
C125 C 0.29911 0.68762 0.2551 0.0
C126 C 0.18322 0.76564 0.19063 0.0
H127 H 0.13952 0.79605 0.16437 0.0
C128 C 0.23169 0.73572 0.12855 0.0
H129 H 0.25821 0.71248 0.39018 0.0
C130 C 0.28983 0.69715 0.16047 0.0
H131 H 0.32666 0.67455 0.11153 0.0
H132 H 0.22449 0.74286 0.05543 0.0
H133 H 0.40078 0.53451 0.77581 0.0
C134 C 0.41646 0.55712 0.83988 0.0
C135 C 0.44619 0.52008 0.91079 0.0
C136 C 0.40119 0.62176 0.8545 0.0
H137 H 0.48434 0.51833 0.05043 0.0
C138 C 0.46091 0.54742 0.99614 0.0
C139 C 0.45172 0.61246 1.01034 0.0
C140 C 0.42258 0.64989 0.93909 0.0
C141 C 0.35596 0.65756 0.78586 0.0
H142 H 0.41624 0.70037 0.94959 0.0
C143 C 0.29815 0.69678 0.81676 0.0
C144 C 0.24869 0.72668 0.7551 0.0
C145 C 0.36458 0.64867 0.69063 0.0
H146 H 0.40829 0.61828 0.66436 0.0
C147 C 0.31611 0.6786 0.62855 0.0
H148 H 0.28959 0.70182 0.89018 0.0
C149 C 0.25796 0.71716 0.66047 0.0
H150 H 0.22113 0.73976 0.61153 0.0
H151 H 0.3233 0.67146 0.55543 0.0
Zn152 Zn 0.11079 0.09147 0.4305 0.0
Zn153 Zn 0.9368 0.09141 0.16605 0.0
Zn154 Zn 0.02385 0.08297 0.29829 0.0
C155 C 0.05788 0.13883 0.09126 0.0
C156 C 0.95675 -0.03743 0.1971 0.0
O157 O 0.96758 0.11971 0.4254 0.0
O158 O 0.05864 0.14748 0.51801 0.0
C159 C 0.18868 0.14756 0.29383 0.0
O160 O 0.08013 0.11977 0.17117 0.0
O161 O 0.98913 0.14734 0.07844 0.0
O162 O 0.92843 -0.00067 0.13823 0.0
O163 O 0.99563 -0.01514 0.26406 0.0
O164 O 0.1977 0.1285 0.37496 0.0
O165 O 0.12672 0.13573 0.25156 0.0
O166 O 0.05205 -0.01517 0.33259 0.0
O167 O 0.11911 -0.00055 0.45851 0.0
C168 C 0.09089 -0.03738 0.39958 0.0
O169 O 0.92109 0.13577 0.34492 0.0
O170 O 0.85002 0.12854 0.22157 0.0
C171 C 0.98988 0.13883 0.50528 0.0
C172 C 0.85918 0.14766 0.30266 0.0
Zn173 Zn 0.61119 0.323 0.66606 0.0
Zn174 Zn 0.4372 0.32287 0.93049 0.0
Zn175 Zn 0.52412 0.3314 0.79829 0.0
C176 C 0.45702 0.45173 0.89958 0.0
C177 C 0.35933 0.26676 0.79383 0.0
O178 O 0.62691 0.27864 0.84491 0.0
O179 O 0.69799 0.2859 0.72158 0.0
C180 C 0.59115 0.45183 0.6971 0.0
O181 O 0.49587 0.42954 0.83258 0.0
O182 O 0.42883 0.41489 0.95852 0.0
O183 O 0.3503 0.28581 0.87496 0.0
O184 O 0.42127 0.2786 0.75155 0.0
O185 O 0.6195 0.41508 0.63824 0.0
O186 O 0.55229 0.42953 0.76406 0.0
O187 O 0.46786 0.29457 0.67116 0.0
O188 O 0.55888 0.26705 0.57845 0.0
C189 C 0.49013 0.27553 0.59126 0.0
O190 O 0.58041 0.29468 0.92539 0.0
O191 O 0.48937 0.26687 1.018 0.0
C192 C 0.68883 0.26677 0.80266 0.0
C193 C 0.55813 0.27556 1.00527 0.0
Zn194 Zn 0.11111 0.82295 0.93067 0.0
Zn195 Zn 0.93712 0.82289 0.66622 0.0
Zn196 Zn 0.02405 0.8314 0.79843 0.0
C197 C 0.95701 0.95174 0.69714 0.0
C198 C 0.85923 0.76681 0.80289 0.0
O199 O 0.12682 0.7786 0.7518 0.0
O200 O 0.19788 0.78582 0.87516 0.0
C201 C 0.09116 0.95179 0.89962 0.0
O202 O 0.99585 0.92954 0.76413 0.0
O203 O 0.9288 0.91491 0.6382 0.0
O204 O 0.85021 0.78586 0.72176 0.0
O205 O 0.92118 0.77863 0.84516 0.0
O206 O 0.11947 0.91503 0.95849 0.0
O207 O 0.05228 0.92951 0.83266 0.0
O208 O 0.96778 0.79459 0.92556 0.0
O209 O 0.05878 0.76702 1.01828 0.0
C210 C 0.99003 0.77553 1.00547 0.0
O211 O 0.08032 0.79466 0.67133 0.0
O212 O 0.98926 0.76688 0.57871 0.0
C213 C 0.18872 0.76671 0.79406 0.0
C214 C 0.05802 0.77554 0.59144 0.0
Zn215 Zn 0.6107 0.59151 0.16623 0.0
Zn216 Zn 0.43672 0.59138 0.43067 0.0
Zn217 Zn 0.52379 0.58297 0.29844 0.0
C218 C 0.55778 0.63885 0.50546 0.0
C219 C 0.45675 0.46255 0.39962 0.0
O220 O 0.46749 0.61969 0.17133 0.0
O221 O 0.55854 0.64751 0.07872 0.0
C222 C 0.68858 0.64762 0.3029 0.0
O223 O 0.58004 0.6198 0.42556 0.0
O224 O 0.48903 0.64733 0.51827 0.0
O225 O 0.42842 0.4993 0.45849 0.0
O226 O 0.49562 0.48485 0.33267 0.0
O227 O 0.6976 0.62856 0.22176 0.0
O228 O 0.62664 0.63577 0.34517 0.0
O229 O 0.55204 0.48484 0.26414 0.0
O230 O 0.61907 0.49949 0.1382 0.0
C231 C 0.59089 0.46265 0.19714 0.0
O232 O 0.421 0.63574 0.25181 0.0
O233 O 0.34992 0.62847 0.37515 0.0
C234 C 0.48978 0.63882 0.09145 0.0
C235 C 0.35908 0.6476 0.29406 0.0
loop_
_geom_bond_atom_site_label_1
_geom_bond_atom_site_label_2
_geom_bond_distance
_geom_bond_site_symmetry_2
_ccdc_geom_bond_type
H0 C1 0.949 . S
C1 H0 0.949 . S
C1 C2 1.395 . S
C1 C3 1.391 . S
C2 C1 1.395 . S
C2 C5 1.390 . S
C3 C1 1.391 . S
C3 C7 1.387 . S
C3 C8 1.491 . S
H4 C5 0.950 . S
C5 C2 1.390 . S
C5 H4 0.950 . S
C5 C6 1.378 . S
C6 C5 1.378 . S
C6 C7 1.409 . S
C7 C3 1.387 . S
C7 C6 1.409 . S
C7 H9 0.951 . S
C8 C3 1.491 . S
C8 C10 1.382 . S
C8 C12 1.404 . S
H9 C7 0.951 . S
C10 C8 1.382 . S
C10 C11 1.390 . S
C10 H15 0.949 . S
C11 C10 1.390 . S
C11 C16 1.399 . S
C12 C8 1.404 . S
C12 H13 0.950 . S
C12 C14 1.375 . S
H13 C12 0.950 . S
C14 C12 1.375 . S
C14 C16 1.382 . S
C14 H18 0.950 . S
H15 C10 0.949 . S
C16 C11 1.399 . S
C16 C14 1.382 . S
C16 H17 0.952 . S
H17 C16 0.952 . S
H18 C14 0.950 . S
H19 C20 0.949 . S
C20 H19 0.949 . S
C20 C21 1.395 . S
C20 C22 1.391 . S
C21 C20 1.395 . S
C21 C24 1.390 . S
C22 C20 1.391 . S
C22 C26 1.387 . S
C22 C27 1.491 . S
H23 C24 0.950 . S
C24 C21 1.390 . S
C24 H23 0.950 . S
C24 C25 1.378 1_556 S
C25 C24 1.378 1_554 S
C25 C26 1.409 1_554 S
C26 C22 1.387 . S
C26 C25 1.409 1_556 S
C26 H28 0.951 1_556 S
C27 C22 1.491 . S
C27 C29 1.382 . S
C27 C31 1.404 . S
H28 C26 0.951 1_554 S
C29 C27 1.382 . S
C29 C30 1.390 . S
C29 H34 0.949 . S
C30 C29 1.390 . S
C30 C35 1.399 . S
C31 C27 1.404 . S
C31 H32 0.950 1_556 S
C31 C33 1.375 . S
H32 C31 0.950 1_554 S
C33 C31 1.375 . S
C33 C35 1.382 . S
C33 H37 0.950 1_556 S
H34 C29 0.949 . S
C35 C30 1.399 . S
C35 C33 1.382 . S
C35 H36 0.952 . S
H36 C35 0.952 . S
H37 C33 0.950 1_554 S
H38 C39 0.949 . S
C39 H38 0.949 . S
C39 C40 1.395 . S
C39 C41 1.391 . S
C40 C39 1.395 . S
C40 C43 1.390 . S
C41 C39 1.391 . S
C41 C45 1.387 . S
C41 C46 1.491 . S
H42 C43 0.950 . S
C43 C40 1.390 . S
C43 H42 0.950 . S
C43 C44 1.378 . S
C44 C43 1.378 . S
C44 C45 1.409 . S
C45 C41 1.387 . S
C45 C44 1.409 . S
C45 H47 0.951 . S
C46 C41 1.491 . S
C46 C48 1.382 . S
C46 C50 1.404 . S
H47 C45 0.951 . S
C48 C46 1.382 . S
C48 C49 1.390 . S
C48 H53 0.949 . S
C49 C48 1.390 . S
C49 C54 1.399 . S
C50 C46 1.404 . S
C50 H51 0.950 . S
C50 C52 1.375 . S
H51 C50 0.950 . S
C52 C50 1.375 . S
C52 C54 1.382 . S
C52 H56 0.950 . S
H53 C48 0.949 . S
C54 C49 1.399 . S
C54 C52 1.382 . S
C54 H55 0.952 . S
H55 C54 0.952 . S
H56 C52 0.950 . S
H57 C58 0.949 . S
C58 H57 0.949 . S
C58 C59 1.395 . S
C58 C60 1.391 . S
C59 C58 1.395 . S
C59 C62 1.390 . S
C60 C58 1.391 . S
C60 C64 1.387 . S
C60 C65 1.491 . S
H61 C62 0.950 . S
C62 C59 1.390 . S
C62 H61 0.950 . S
C62 C63 1.378 . S
C63 C62 1.378 . S
C63 C64 1.409 . S
C64 C60 1.387 . S
C64 C63 1.409 . S
C64 H66 0.951 1_554 S
C65 C60 1.491 . S
C65 C67 1.382 . S
C65 C69 1.404 . S
H66 C64 0.951 1_556 S
C67 C65 1.382 . S
C67 C68 1.390 . S
C67 H72 0.949 . S
C68 C67 1.390 . S
C68 C73 1.399 . S
C69 C65 1.404 . S
C69 H70 0.950 1_554 S
C69 C71 1.375 . S
H70 C69 0.950 1_556 S
C71 C69 1.375 . S
C71 C73 1.382 . S
C71 H75 0.950 1_554 S
H72 C67 0.949 . S
C73 C68 1.399 . S
C73 C71 1.382 . S
C73 H74 0.952 . S
H74 C73 0.952 . S
H75 C71 0.950 1_556 S
H76 C77 0.949 . S
C77 H76 0.949 . S
C77 C78 1.395 . S
C77 C79 1.391 . S
C78 C77 1.395 . S
C78 C81 1.390 . S
C79 C77 1.391 . S
C79 C83 1.387 . S
C79 C84 1.491 . S
H80 C81 0.950 . S
C81 C78 1.390 . S
C81 H80 0.950 . S
C81 C82 1.378 . S
C82 C81 1.378 . S
C82 C83 1.409 . S
C83 C79 1.387 . S
C83 C82 1.409 . S
C83 H85 0.951 . S
C84 C79 1.491 . S
C84 C86 1.382 . S
C84 C88 1.404 . S
H85 C83 0.951 . S
C86 C84 1.382 . S
C86 C87 1.390 . S
C86 H91 0.949 . S
C87 C86 1.390 . S
C87 C92 1.399 . S
C88 C84 1.404 . S
C88 H89 0.950 . S
C88 C90 1.375 . S
H89 C88 0.950 . S
C90 C88 1.375 . S
C90 C92 1.382 . S
C90 H94 0.950 . S
H91 C86 0.949 . S
C92 C87 1.399 . S
C92 C90 1.382 . S
C92 H93 0.952 . S
H93 C92 0.952 . S
H94 C90 0.950 . S
H95 C96 0.949 . S
C96 H95 0.949 . S
C96 C97 1.395 . S
C96 C98 1.391 . S
C97 C96 1.395 . S
C97 C100 1.390 . S
C98 C96 1.391 . S
C98 C102 1.387 . S
C98 C103 1.491 . S
H99 C100 0.950 . S
C100 C97 1.390 . S
C100 H99 0.950 . S
C100 C101 1.378 1_554 S
C101 C100 1.378 1_556 S
C101 C102 1.409 1_556 S
C102 C98 1.387 . S
C102 C101 1.409 1_554 S
C102 H104 0.951 1_554 S
C103 C98 1.491 . S
C103 C105 1.382 . S
C103 C107 1.404 . S
H104 C102 0.951 1_556 S
C105 C103 1.382 . S
C105 C106 1.390 . S
C105 H110 0.949 . S
C106 C105 1.390 . S
C106 C111 1.399 . S
C107 C103 1.404 . S
C107 H108 0.950 . S
C107 C109 1.375 . S
H108 C107 0.950 . S
C109 C107 1.375 . S
C109 C111 1.382 . S
C109 H113 0.950 . S
H110 C105 0.949 . S
C111 C106 1.399 . S
C111 C109 1.382 . S
C111 H112 0.952 . S
H112 C111 0.952 . S
H113 C109 0.950 . S
H114 C115 0.949 . S
C115 H114 0.949 . S
C115 C116 1.395 . S
C115 C117 1.391 . S
C116 C115 1.395 . S
C116 C119 1.390 . S
C117 C115 1.391 . S
C117 C121 1.387 . S
C117 C122 1.491 . S
H118 C119 0.950 . S
C119 C116 1.390 . S
C119 H118 0.950 . S
C119 C120 1.378 . S
C120 C119 1.378 . S
C120 C121 1.409 . S
C121 C117 1.387 . S
C121 C120 1.409 . S
C121 H123 0.951 . S
C122 C117 1.491 . S
C122 C124 1.382 . S
C122 C126 1.404 . S
H123 C121 0.951 . S
C124 C122 1.382 . S
C124 C125 1.390 . S
C124 H129 0.949 . S
C125 C124 1.390 . S
C125 C130 1.399 . S
C126 C122 1.404 . S
C126 H127 0.950 . S
C126 C128 1.375 . S
H127 C126 0.950 . S
C128 C126 1.375 . S
C128 C130 1.382 . S
C128 H132 0.950 . S
H129 C124 0.949 . S
C130 C125 1.399 . S
C130 C128 1.382 . S
C130 H131 0.952 . S
H131 C130 0.952 . S
H132 C128 0.950 . S
H133 C134 0.949 . S
C134 H133 0.949 . S
C134 C135 1.395 . S
C134 C136 1.391 . S
C135 C134 1.395 . S
C135 C138 1.390 . S
C136 C134 1.391 . S
C136 C140 1.387 . S
C136 C141 1.491 . S
H137 C138 0.950 . S
C138 C135 1.390 . S
C138 H137 0.950 . S
C138 C139 1.378 . S
C139 C138 1.378 . S
C139 C140 1.409 . S
C140 C136 1.387 . S
C140 C139 1.409 . S
C140 H142 0.951 1_556 S
C141 C136 1.491 . S
C141 C143 1.382 . S
C141 C145 1.404 . S
H142 C140 0.951 1_554 S
C143 C141 1.382 . S
C143 C144 1.390 . S
C143 H148 0.949 . S
C144 C143 1.390 . S
C144 C149 1.399 . S
C145 C141 1.404 . S
C145 H146 0.950 . S
C145 C147 1.375 . S
H146 C145 0.950 . S
C147 C145 1.375 . S
C147 C149 1.382 . S
C147 H151 0.950 . S
H148 C143 0.949 . S
C149 C144 1.399 . S
C149 C147 1.382 . S
C149 H150 0.952 . S
H150 C149 0.952 . S
H151 C147 0.950 . S
Zn152 O158 1.931 . S
Zn152 O164 1.898 . S
Zn152 O167 1.905 1_545 S
Zn153 O161 1.905 1_655 S
Zn153 O162 1.898 1_545 S
Zn153 O170 1.920 . S
Zn154 O157 2.080 1_455 S
Zn154 O160 2.114 . S
Zn154 O163 2.120 1_455 S
Zn154 O165 2.120 . S
Zn154 O166 2.114 . S
Zn154 O169 2.080 1_455 S
C155 O160 1.166 . S
C155 O161 1.182 . S
C156 O162 1.167 . S
C156 O163 1.299 1_565 S
O157 Zn154 2.080 1_655 S
O157 C171 1.305 . S
O158 Zn152 1.931 . S
O158 C171 1.224 1_455 S
C159 O164 1.167 . S
C159 O165 1.299 . S
O160 Zn154 2.114 . S
O160 C155 1.166 . S
O161 Zn153 1.905 1_455 S
O161 C155 1.182 . S
O162 Zn153 1.898 1_565 S
O162 C156 1.167 . S
O163 Zn154 2.120 1_655 S
O163 C156 1.299 1_545 S
O164 Zn152 1.898 . S
O164 C159 1.167 . S
O165 Zn154 2.120 . S
O165 C159 1.299 . S
O166 Zn154 2.114 . S
O166 C168 1.166 1_545 S
O167 Zn152 1.905 1_565 S
O167 C168 1.182 . S
C168 O166 1.166 1_565 S
C168 O167 1.182 . S
O169 Zn154 2.080 1_655 S
O169 C172 1.305 . S
O170 Zn153 1.920 . S
O170 C172 1.234 . S
C171 O157 1.305 . S
C171 O158 1.224 1_655 S
C172 O169 1.305 . S
C172 O170 1.234 . S
Zn173 O179 1.920 . S
Zn173 O185 1.898 . S
Zn173 O188 1.905 . S
Zn174 O182 1.905 . S
Zn174 O183 1.898 . S
Zn174 O191 1.920 . S
Zn175 O178 2.080 . S
Zn175 O181 2.114 . S
Zn175 O184 2.120 . S
Zn175 O186 2.120 . S
Zn175 O187 2.114 . S
Zn175 O190 2.080 . S
C176 O181 1.166 . S
C176 O182 1.182 . S
C177 O183 1.167 . S
C177 O184 1.299 . S
O178 Zn175 2.080 . S
O178 C192 1.305 . S
O179 Zn173 1.920 . S
O179 C192 1.234 . S
C180 O185 1.167 . S
C180 O186 1.299 . S
O181 Zn175 2.114 . S
O181 C176 1.166 . S
O182 Zn174 1.905 . S
O182 C176 1.182 . S
O183 Zn174 1.898 . S
O183 C177 1.167 . S
O184 Zn175 2.120 . S
O184 C177 1.299 . S
O185 Zn173 1.898 . S
O185 C180 1.167 . S
O186 Zn175 2.120 . S
O186 C180 1.299 . S
O187 Zn175 2.114 . S
O187 C189 1.166 . S
O188 Zn173 1.905 . S
O188 C189 1.182 . S
C189 O187 1.166 . S
C189 O188 1.182 . S
O190 Zn175 2.080 . S
O190 C193 1.305 . S
O191 Zn174 1.920 . S
O191 C193 1.234 . S
C192 O178 1.305 . S
C192 O179 1.234 . S
C193 O190 1.305 . S
C193 O191 1.234 . S
Zn194 O200 1.920 . S
Zn194 O206 1.898 1_565 S
Zn194 O209 1.905 1_455 S
Zn195 O203 1.905 1_565 S
Zn195 O204 1.898 . S
Zn195 O212 1.920 1_655 S
Zn196 O199 2.080 . S
Zn196 O202 2.114 1_455 S
Zn196 O205 2.120 1_455 S
Zn196 O207 2.120 . S
Zn196 O208 2.114 1_455 S
Zn196 O211 2.080 . S
C197 O202 1.166 1_545 S
C197 O203 1.182 . S
C198 O204 1.167 . S
C198 O205 1.299 . S
O199 Zn196 2.080 . S
O199 C213 1.305 . S
O200 Zn194 1.920 . S
O200 C213 1.234 . S
C201 O206 1.167 . S
C201 O207 1.299 1_545 S
O202 Zn196 2.114 1_655 S
O202 C197 1.166 1_565 S
O203 Zn195 1.905 1_545 S
O203 C197 1.182 . S
O204 Zn195 1.898 . S
O204 C198 1.167 . S
O205 Zn196 2.120 1_655 S
O205 C198 1.299 . S
O206 Zn194 1.898 1_545 S
O206 C201 1.167 . S
O207 Zn196 2.120 . S
O207 C201 1.299 1_565 S
O208 Zn196 2.114 1_655 S
O208 C210 1.166 . S
O209 Zn194 1.905 1_655 S
O209 C210 1.182 . S
C210 O208 1.166 . S
C210 O209 1.182 . S
O211 Zn196 2.080 . S
O211 C214 1.305 . S
O212 Zn195 1.920 1_455 S
O212 C214 1.234 . S
C213 O199 1.305 . S
C213 O200 1.234 . S
C214 O211 1.305 . S
C214 O212 1.234 . S
Zn215 O221 1.920 . S
Zn215 O227 1.898 . S
Zn215 O230 1.905 . S
Zn216 O224 1.905 . S
Zn216 O225 1.898 . S
Zn216 O233 1.920 . S
Zn217 O220 2.080 . S
Zn217 O223 2.114 . S
Zn217 O226 2.120 . S
Zn217 O228 2.120 . S
Zn217 O229 2.114 . S
Zn217 O232 2.080 . S
C218 O223 1.166 . S
C218 O224 1.182 . S
C219 O225 1.167 . S
C219 O226 1.299 . S
O220 Zn217 2.080 . S
O220 C234 1.305 . S
O221 Zn215 1.920 . S
O221 C234 1.234 . S
C222 O227 1.167 . S
C222 O228 1.299 . S
O223 Zn217 2.114 . S
O223 C218 1.166 . S
O224 Zn216 1.905 . S
O224 C218 1.182 . S
O225 Zn216 1.898 . S
O225 C219 1.167 . S
O226 Zn217 2.120 . S
O226 C219 1.299 . S
O227 Zn215 1.898 . S
O227 C222 1.167 . S
O228 Zn217 2.120 . S
O228 C222 1.299 . S
O229 Zn217 2.114 . S
O229 C231 1.166 . S
O230 Zn215 1.905 . S
O230 C231 1.182 . S
C231 O229 1.166 . S
C231 O230 1.182 . S
O232 Zn217 2.080 . S
O232 C235 1.305 . S
O233 Zn216 1.920 . S
O233 C235 1.234 . S
C234 O220 1.305 . S
C234 O221 1.234 . S
C235 O232 1.305 . S
C235 O233 1.234 . S
C116 C168 1.292 . S
C176 C135 1.292 . S
C180 C78 1.290 . S
C97 C156 1.290 . S
C197 C40 1.287 . S
C231 C59 1.287 . S
C2 C219 1.285 . S
C21 C201 1.285 . S
C155 C25 1.341 . S
C189 C6 1.341 . S
C193 C63 1.329 1_556 S
C171 C44 1.329 . S
C210 C101 1.344 . S
C82 C218 1.344 . S
C234 C139 1.330 1_554 S
C120 C214 1.330 . S
C159 C11 1.050 . S
C177 C30 1.050 . S
C49 C192 1.070 . S
C172 C68 1.070 . S
C198 C87 1.223 . S
C106 C222 1.223 . S
C125 C235 1.221 . S
C144 C213 1.221 . S
