# Generated by pormake.
# Topology pth, (4,4)-cn, num edge types: 1
# Building blocks:
#     Node 0, Type 0, BuildingBlock: QUQFOY_clean_sbu_1, # of connection points: 4
#     Node 1, Type 0, BuildingBlock: QUQFOY_clean_sbu_1, # of connection points: 4
#     Node 2, Type 0, BuildingBlock: QUQFOY_clean_sbu_1, # of connection points: 4
#     Node 3, Type 1, BuildingBlock: NAWXER_clean_linker_0, # of connection points: 4
#     Node 4, Type 1, BuildingBlock: NAWXER_clean_linker_0, # of connection points: 4
#     Node 5, Type 1, BuildingBlock: NAWXER_clean_linker_0, # of connection points: 4
#     Edge 6, Type (0, 1), None
#     Edge 7, Type (0, 1), None
#     Edge 8, Type (0, 1), None
#     Edge 9, Type (0, 1), None
#     Edge 10, Type (0, 1), None
#     Edge 11, Type (0, 1), None
#     Edge 12, Type (0, 1), None
#     Edge 13, Type (0, 1), None
#     Edge 14, Type (0, 1), None
#     Edge 15, Type (0, 1), None
#     Edge 16, Type (0, 1), None
#     Edge 17, Type (0, 1), None
# Relax obj value: 0.027
# Max RMSD: 0.125
# Mean RMSD: 0.071
data_MOF--net-pth--node1-QUQFOY_clean_sbu_1--node2-NAWXER_clean_linker_0--edge1-none
_symmetry_space_group_name_H-M    P1
_symmetry_Int_Tables_number       1
_symmetry_cell_setting            triclinic
loop_
_symmetry_equiv_pos_as_xyz
'x, y, z'
_cell_length_a     16.27908
_cell_length_b     16.802208
_cell_length_c     34.167772
_cell_angle_alpha  89.826348
_cell_angle_beta   90.100467
_cell_angle_gamma 120.20088
loop_
_atom_site_label
_atom_site_type_symbol
_atom_site_fract_x
_atom_site_fract_y
_atom_site_fract_z
_atom_type_partial_charge
O0 O 0.03075 0.13082 0.04346 0.0
Cd1 Cd 0.92288 0.05064 0.08122 0.0
Cd2 Cd 0.01683 0.95981 0.08429 0.0
O3 O 0.12708 0.07997 0.06026 0.0
O4 O 0.87277 0.13081 0.09878 0.0
O5 O 0.95023 0.08561 0.13796 0.0
C6 C 0.91096 0.13516 0.13241 0.0
C7 C 0.03078 0.87384 0.13444 0.0
C8 C 0.11181 0.13733 1.04184 0.0
C9 C 0.8269 0.86983 0.04364 0.0
O10 O 0.90656 0.87445 0.04806 0.0
O11 O 0.81223 0.93099 0.05831 0.0
O12 O 0.06341 0.87543 0.09992 0.0
O13 O -0.00193 0.92816 0.14174 0.0
O14 O 0.88955 0.05632 0.47087 0.0
Cd15 Cd -0.00448 0.08248 0.43199 0.0
Cd16 Cd 0.90607 0.90094 0.43168 0.0
O17 O 0.79487 0.90978 0.45666 0.0
O18 O 0.04308 0.21144 0.4147 0.0
O19 O -0.03287 0.09152 0.3753 0.0
C20 C 0.00547 0.17912 0.38099 0.0
C21 C 0.8933 0.80234 0.38162 0.0
C22 C 0.81015 0.9825 0.47444 0.0
C23 C 0.09695 1.00264 0.47111 0.0
O24 O 0.01841 0.92799 0.46766 0.0
O25 O 0.10905 0.07597 0.45495 0.0
O26 O 0.86338 0.77196 0.41644 0.0
O27 O 0.92288 0.88797 0.37408 0.0
O28 O 0.83307 0.94993 0.71113 0.0
Cd29 Cd 0.91633 0.92452 0.74788 0.0
Cd30 Cd 0.01189 0.10502 0.75009 0.0
O31 O 0.88983 0.09545 0.72636 0.0
O32 O 0.82758 0.79626 0.76512 0.0
O33 O 0.88967 0.91533 0.80573 0.0
C34 C 0.83179 0.82877 0.79967 0.0
C35 C 0.09479 0.1982 0.80289 0.0
C36 C 0.82913 0.0232 0.70852 0.0
C37 C 0.09945 0.00987 0.70732 0.0
O38 O 0.09852 0.08417 0.71281 0.0
O39 O 0.03559 0.93463 0.72234 0.0
O40 O 0.09334 0.23294 0.76936 0.0
O41 O 0.04338 0.11001 0.80729 0.0
C42 C 0.92724 0.20581 0.32303 0.0
C43 C -0.00018 0.24052 0.35135 0.0
C44 C 0.91456 0.266 0.2986 0.0
C45 C -0.02381 0.36168 0.30132 0.0
C46 C 0.06115 0.33607 0.35394 0.0
C47 C 0.04956 0.39584 0.32916 0.0
C48 C -0.03645 0.42843 0.27732 0.0
C49 C -0.0103 0.23738 0.19029 0.0
C50 C 0.91699 0.20196 0.16202 0.0
C51 C 0.00311 0.30996 0.21465 0.0
C52 C 0.94212 0.34633 0.21194 0.0
C53 C 0.85637 0.23859 0.15939 0.0
C54 C 0.86871 0.30976 0.18411 0.0
C55 C 0.95528 0.42503 0.23615 0.0
C56 C 0.05399 0.81677 0.19926 0.0
C57 C 0.01426 0.7993 0.16166 0.0
C58 C 0.03774 0.74324 0.22388 0.0
C59 C -0.02253 0.65123 0.21196 0.0
C60 C 0.95634 0.70804 0.14937 0.0
C61 C 0.93744 0.63493 0.17432 0.0
C62 C -0.03747 0.57128 0.23634 0.0
C63 C 0.87036 0.72629 0.31612 0.0
C64 C 0.90919 0.74469 0.35389 0.0
C65 C 0.88584 0.66922 0.29098 0.0
C66 C 0.94464 0.63389 0.30255 0.0
C67 C -0.03428 0.7079 0.3658 0.0
C68 C -0.01595 0.65401 0.34034 0.0
C69 C 0.95829 0.5686 0.27775 0.0
H70 H 0.87773 0.13251 0.32091 0.0
H71 H 0.85559 0.23787 0.27823 0.0
H72 H 0.11734 0.36492 0.37561 0.0
H73 H 0.09763 0.46931 0.33204 0.0
H74 H 0.03877 0.2118 0.19243 0.0
H75 H 0.06214 0.3387 0.23499 0.0
H76 H 0.80017 0.21325 0.13772 0.0
H77 H 0.82114 0.33698 0.18123 0.0
H78 H 0.09963 0.88689 0.20907 0.0
H79 H 0.07365 0.75863 0.25187 0.0
H80 H 0.92467 0.69321 0.12045 0.0
H81 H 0.89184 0.56528 0.16393 0.0
H82 H 0.82583 0.75353 0.30657 0.0
H83 H 0.85035 0.65162 0.26288 0.0
H84 H -0.00319 0.72181 0.39482 0.0
H85 H 0.02858 0.62723 0.35047 0.0
N86 N -0.03746 0.49893 0.29631 0.0
N87 N 0.95723 0.49755 0.21743 0.0
C88 C 0.76268 0.05773 0.52527 0.0
C89 C 0.73712 0.98304 0.49987 0.0
C90 C 0.69473 0.0612 0.54875 0.0
C91 C 0.59978 0.99003 0.54742 0.0
C92 C 0.64202 0.91134 0.49874 0.0
C93 C 0.57365 0.91535 0.52209 0.0
C94 C 0.52687 0.99663 0.57042 0.0
C95 C 0.70088 0.94812 0.65855 0.0
C96 C 0.7549 0.0232 0.68355 0.0
C97 C 0.63079 0.94656 0.63461 0.0
C98 C 0.61322 0.02004 0.63505 0.0
C99 C 0.73705 0.09676 0.68407 0.0
C100 C 0.66596 0.09469 0.66025 0.0
C101 C 0.53619 0.01637 0.61092 0.0
C102 C 0.15525 0.93423 0.65996 0.0
C103 C 0.17384 0.01157 0.68227 0.0
C104 C 0.22492 0.93749 0.63511 0.0
C105 C 0.31459 0.01747 0.63284 0.0
C106 C 0.26333 0.092 0.67947 0.0
C107 C 0.33373 0.09438 0.65539 0.0
C108 C 0.39075 0.01738 0.60982 0.0
C109 C 0.23396 0.08179 0.51723 0.0
C110 C 0.17205 1.00344 0.49545 0.0
C111 C 0.30073 0.07971 0.54232 0.0
C112 C 0.30763 0.99994 0.54532 0.0
C113 C 0.17887 0.92354 0.49874 0.0
C114 C 0.24724 0.92234 0.52304 0.0
C115 C 0.38277 1.00013 0.56932 0.0
H116 H 0.83536 0.11416 0.52692 0.0
H117 H 0.71611 0.12056 0.56736 0.0
H118 H 0.62017 0.85318 0.47937 0.0
H119 H 0.50034 0.86018 0.5204 0.0
H120 H 0.71264 0.8902 0.65739 0.0
H121 H 0.58934 0.88721 0.61613 0.0
H122 H 0.77722 0.15532 0.7031 0.0
H123 H 0.65252 0.15159 0.66128 0.0
H124 H 0.08658 0.87171 0.66136 0.0
H125 H 0.20963 0.8769 0.61836 0.0
H126 H 0.2794 0.15253 0.69643 0.0
H127 H 0.40306 0.15617 0.65431 0.0
H128 H 0.22946 0.14387 0.51545 0.0
H129 H 0.34806 0.14078 0.5589 0.0
H130 H 0.13189 0.86225 0.48221 0.0
H131 H 0.25255 0.86067 0.52469 0.0
N132 N 0.45065 0.98965 0.55107 0.0
N133 N 0.46747 0.02559 0.62918 0.0
C134 C 0.19454 0.22047 0.86238 0.0
C135 C 0.16136 0.25752 0.83361 0.0
C136 C 0.26918 0.27866 0.8873 0.0
C137 C 0.31013 0.37481 0.88453 0.0
C138 C 0.20118 0.3534 0.83142 0.0
C139 C 0.27451 0.41126 0.85663 0.0
C140 C 0.39418 0.43926 0.90811 0.0
C141 C 0.16556 0.26903 0.99516 0.0
C142 C 0.18727 0.21235 1.01819 0.0
C143 C 0.23554 0.34013 0.9727 0.0
C144 C 0.32854 0.35574 0.97257 0.0
C145 C 0.28097 0.22902 1.01844 0.0
C146 C 0.35125 0.30073 0.996 0.0
C147 C 0.40274 0.43089 0.94885 0.0
C148 C 0.69204 0.80731 0.99598 0.0
C149 C 0.75291 0.79342 1.02056 0.0
C150 C 0.62711 0.73608 0.97192 0.0
C151 C 0.62093 0.64965 0.97279 0.0
C152 C 0.74621 0.7067 1.02144 0.0
C153 C 0.67948 0.63485 0.99825 0.0
C154 C 0.5497 0.57339 0.94878 0.0
C155 C 0.78846 0.74901 0.86486 0.0
C156 C 0.76155 0.77098 0.8293 0.0
C157 C 0.71884 0.68805 0.89111 0.0
C158 C 0.62134 0.65128 0.88284 0.0
C159 C 0.66495 0.7347 0.82096 0.0
C160 C 0.59573 0.67639 0.84756 0.0
C161 C 0.545 0.57868 0.90764 0.0
H162 H 0.16631 0.14685 0.86429 0.0
H163 H 0.29692 0.24848 0.90764 0.0
H164 H 0.17735 0.38402 0.80949 0.0
H165 H 0.30482 0.48507 0.85378 0.0
H166 H 0.09427 0.25856 0.99438 0.0
H167 H 0.21705 0.38309 0.95546 0.0
H168 H 0.3001 0.18706 1.03603 0.0
H169 H 0.4231 0.31257 0.99654 0.0
H170 H 0.69634 0.87373 0.99465 0.0
H171 H 0.58115 0.74811 0.95287 0.0
H172 H 0.79228 0.69432 1.04028 0.0
H173 H 0.67473 0.56822 0.99963 0.0
H174 H 0.86287 0.7757 0.87152 0.0
H175 H 0.74181 0.66711 0.91688 0.0
H176 H 0.6429 0.75125 0.79364 0.0
H177 H 0.52167 0.64915 0.84 0.0
N178 N 0.4664 0.512 0.88922 0.0
N179 N 0.47964 0.49878 0.96768 0.0
loop_
_geom_bond_atom_site_label_1
_geom_bond_atom_site_label_2
_geom_bond_distance
_geom_bond_site_symmetry_2
_ccdc_geom_bond_type
O0 Cd1 2.223 1_456 S
O0 C8 1.315 . S
Cd1 O0 2.223 1_654 S
Cd1 O4 2.297 . S
Cd1 O5 2.439 . S
Cd1 O11 2.240 1_545 S
Cd2 O3 2.240 1_565 S
Cd2 O10 2.223 1_454 S
Cd2 O12 2.297 . S
Cd2 O13 2.439 . S
O3 Cd2 2.240 1_545 S
O3 C8 1.279 1_554 S
O4 Cd1 2.297 . S
O4 C6 1.247 . S
O5 Cd1 2.439 . S
O5 C6 1.208 . S
C6 O4 1.247 . S
C6 O5 1.208 . S
C7 O12 1.247 . S
C7 O13 1.208 . S
C8 O0 1.315 . S
C8 O3 1.279 1_556 S
C9 O10 1.315 . S
C9 O11 1.279 1_556 S
O10 Cd2 2.223 1_656 S
O10 C9 1.315 . S
O11 Cd1 2.240 1_565 S
O11 C9 1.279 1_554 S
O12 Cd2 2.297 . S
O12 C7 1.247 . S
O13 Cd2 2.439 . S
O13 C7 1.208 . S
O14 Cd15 2.223 1_655 S
O14 C22 1.315 . S
Cd15 O14 2.223 1_455 S
Cd15 O18 2.297 . S
Cd15 O19 2.439 . S
Cd15 O25 2.240 . S
Cd16 O17 2.240 . S
Cd16 O24 2.223 1_655 S
Cd16 O26 2.297 . S
Cd16 O27 2.439 . S
O17 Cd16 2.240 . S
O17 C22 1.279 1_565 S
O18 Cd15 2.297 . S
O18 C20 1.247 . S
O19 Cd15 2.439 . S
O19 C20 1.208 . S
C20 O18 1.247 . S
C20 O19 1.208 . S
C21 O26 1.247 . S
C21 O27 1.208 . S
C22 O14 1.315 . S
C22 O17 1.279 1_545 S
C23 O24 1.315 . S
C23 O25 1.279 1_565 S
O24 Cd16 2.223 1_455 S
O24 C23 1.315 . S
O25 Cd15 2.240 . S
O25 C23 1.279 1_545 S
O26 Cd16 2.297 . S
O26 C21 1.247 . S
O27 Cd16 2.439 . S
O27 C21 1.208 . S
O28 Cd29 2.223 . S
O28 C36 1.315 . S
Cd29 O28 2.223 . S
Cd29 O32 2.297 . S
Cd29 O33 2.439 . S
Cd29 O39 2.240 1_655 S
Cd30 O31 2.240 1_455 S
Cd30 O38 2.223 . S
Cd30 O40 2.297 . S
Cd30 O41 2.439 . S
O31 Cd30 2.240 1_655 S
O31 C36 1.279 1_545 S
O32 Cd29 2.297 . S
O32 C34 1.247 . S
O33 Cd29 2.439 . S
O33 C34 1.208 . S
C34 O32 1.247 . S
C34 O33 1.208 . S
C35 O40 1.247 . S
C35 O41 1.208 . S
C36 O28 1.315 . S
C36 O31 1.279 1_565 S
C37 O38 1.315 . S
C37 O39 1.279 1_545 S
O38 Cd30 2.223 . S
O38 C37 1.315 . S
O39 Cd29 2.240 1_455 S
O39 C37 1.279 1_565 S
O40 Cd30 2.297 . S
O40 C35 1.247 . S
O41 Cd30 2.439 . S
O41 C35 1.208 . S
C42 C43 1.384 1_655 S
C42 C44 1.384 . S
C42 H70 0.931 . S
C43 C42 1.384 1_455 S
C43 C46 1.382 . S
C44 C42 1.384 . S
C44 C45 1.381 1_655 S
C44 H71 0.930 . S
C45 C44 1.381 1_455 S
C45 C47 1.381 . S
C45 C48 1.487 . S
C46 C43 1.382 . S
C46 C47 1.387 . S
C46 H72 0.930 . S
C47 C45 1.381 . S
C47 C46 1.387 . S
C47 H73 0.931 . S
C48 C45 1.487 . S
C48 C55 1.399 1_455 S
C48 N86 1.343 . S
C49 C50 1.384 1_455 S
C49 C51 1.384 . S
C49 H74 0.931 . S
C50 C49 1.384 1_655 S
C50 C53 1.382 . S
C51 C49 1.384 . S
C51 C52 1.381 1_455 S
C51 H75 0.930 . S
C52 C51 1.381 1_655 S
C52 C54 1.381 . S
C52 C55 1.487 . S
C53 C50 1.382 . S
C53 C54 1.387 . S
C53 H76 0.930 . S
C54 C52 1.381 . S
C54 C53 1.387 . S
C54 H77 0.931 . S
C55 C48 1.399 1_655 S
C55 C52 1.487 . S
C55 N87 1.343 . S
C56 C57 1.384 1_455 S
C56 C58 1.384 . S
C56 H78 0.931 . S
C57 C56 1.384 1_655 S
C57 C60 1.382 . S
C58 C56 1.384 . S
C58 C59 1.381 1_455 S
C58 H79 0.930 . S
C59 C58 1.381 1_655 S
C59 C61 1.381 . S
C59 C62 1.487 . S
C60 C57 1.382 . S
C60 C61 1.387 . S
C60 H80 0.930 . S
C61 C59 1.381 . S
C61 C60 1.387 . S
C61 H81 0.931 . S
C62 C59 1.487 . S
C62 C69 1.399 1_655 S
C62 N87 1.343 . S
C63 C64 1.384 1_655 S
C63 C65 1.384 . S
C63 H82 0.931 . S
C64 C63 1.384 1_455 S
C64 C67 1.382 . S
C65 C63 1.384 . S
C65 C66 1.381 1_655 S
C65 H83 0.930 . S
C66 C65 1.381 1_455 S
C66 C68 1.381 . S
C66 C69 1.487 . S
C67 C64 1.382 . S
C67 C68 1.387 . S
C67 H84 0.930 . S
C68 C66 1.381 . S
C68 C67 1.387 . S
C68 H85 0.931 . S
C69 C62 1.399 1_455 S
C69 C66 1.487 . S
C69 N86 1.343 . S
H70 C42 0.931 . S
H71 C44 0.930 . S
H72 C46 0.930 . S
H73 C47 0.931 . S
H74 C49 0.931 . S
H75 C51 0.930 . S
H76 C53 0.930 . S
H77 C54 0.931 . S
H78 C56 0.931 . S
H79 C58 0.930 . S
H80 C60 0.930 . S
H81 C61 0.931 . S
H82 C63 0.931 . S
H83 C65 0.930 . S
H84 C67 0.930 . S
H85 C68 0.931 . S
N86 C48 1.343 . S
N86 C69 1.343 . S
N87 C55 1.343 . S
N87 C62 1.343 . S
C88 C89 1.384 1_545 S
C88 C90 1.384 . S
C88 H116 0.931 . S
C89 C88 1.384 1_565 S
C89 C92 1.382 . S
C90 C88 1.384 . S
C90 C91 1.381 1_545 S
C90 H117 0.930 . S
C91 C90 1.381 1_565 S
C91 C93 1.381 . S
C91 C94 1.487 . S
C92 C89 1.382 . S
C92 C93 1.387 . S
C92 H118 0.930 . S
C93 C91 1.381 . S
C93 C92 1.387 . S
C93 H119 0.931 . S
C94 C91 1.487 . S
C94 C101 1.399 1_565 S
C94 N132 1.343 . S
C95 C96 1.384 1_565 S
C95 C97 1.384 . S
C95 H120 0.931 . S
C96 C95 1.384 1_545 S
C96 C99 1.382 . S
C97 C95 1.384 . S
C97 C98 1.381 1_565 S
C97 H121 0.930 . S
C98 C97 1.381 1_545 S
C98 C100 1.381 . S
C98 C101 1.487 . S
C99 C96 1.382 . S
C99 C100 1.387 . S
C99 H122 0.930 . S
C100 C98 1.381 . S
C100 C99 1.387 . S
C100 H123 0.931 . S
C101 C94 1.399 1_545 S
C101 C98 1.487 . S
C101 N133 1.343 . S
C102 C103 1.384 1_565 S
C102 C104 1.384 . S
C102 H124 0.931 . S
C103 C102 1.384 1_545 S
C103 C106 1.382 . S
C104 C102 1.384 . S
C104 C105 1.381 1_565 S
C104 H125 0.930 . S
C105 C104 1.381 1_545 S
C105 C107 1.381 . S
C105 C108 1.487 . S
C106 C103 1.382 . S
C106 C107 1.387 . S
C106 H126 0.930 . S
C107 C105 1.381 . S
C107 C106 1.387 . S
C107 H127 0.931 . S
C108 C105 1.487 . S
C108 C115 1.399 1_545 S
C108 N133 1.343 . S
C109 C110 1.384 1_545 S
C109 C111 1.384 . S
C109 H128 0.931 . S
C110 C109 1.384 1_565 S
C110 C113 1.382 . S
C111 C109 1.384 . S
C111 C112 1.381 1_545 S
C111 H129 0.930 . S
C112 C111 1.381 1_565 S
C112 C114 1.381 . S
C112 C115 1.487 . S
C113 C110 1.382 . S
C113 C114 1.387 . S
C113 H130 0.930 . S
C114 C112 1.381 . S
C114 C113 1.387 . S
C114 H131 0.931 . S
C115 C108 1.399 1_565 S
C115 C112 1.487 . S
C115 N132 1.343 . S
H116 C88 0.931 . S
H117 C90 0.930 . S
H118 C92 0.930 . S
H119 C93 0.931 . S
H120 C95 0.931 . S
H121 C97 0.930 . S
H122 C99 0.930 . S
H123 C100 0.931 . S
H124 C102 0.931 . S
H125 C104 0.930 . S
H126 C106 0.930 . S
H127 C107 0.931 . S
H128 C109 0.931 . S
H129 C111 0.930 . S
H130 C113 0.930 . S
H131 C114 0.931 . S
N132 C94 1.343 . S
N132 C115 1.343 . S
N133 C101 1.343 . S
N133 C108 1.343 . S
C134 C135 1.384 . S
C134 C136 1.384 . S
C134 H162 0.931 . S
C135 C134 1.384 . S
C135 C138 1.382 . S
C136 C134 1.384 . S
C136 C137 1.381 . S
C136 H163 0.930 . S
C137 C136 1.381 . S
C137 C139 1.381 . S
C137 C140 1.487 . S
C138 C135 1.382 . S
C138 C139 1.387 . S
C138 H164 0.930 . S
C139 C137 1.381 . S
C139 C138 1.387 . S
C139 H165 0.931 . S
C140 C137 1.487 . S
C140 C147 1.399 . S
C140 N178 1.343 . S
C141 C142 1.384 . S
C141 C143 1.384 . S
C141 H166 0.931 . S
C142 C141 1.384 . S
C142 C145 1.382 . S
C143 C141 1.384 . S
C143 C144 1.381 . S
C143 H167 0.930 . S
C144 C143 1.381 . S
C144 C146 1.381 . S
C144 C147 1.487 . S
C145 C142 1.382 . S
C145 C146 1.387 . S
C145 H168 0.930 . S
C146 C144 1.381 . S
C146 C145 1.387 . S
C146 H169 0.931 . S
C147 C140 1.399 . S
C147 C144 1.487 . S
C147 N179 1.343 . S
C148 C149 1.384 . S
C148 C150 1.384 . S
C148 H170 0.931 . S
C149 C148 1.384 . S
C149 C152 1.382 . S
C150 C148 1.384 . S
C150 C151 1.381 . S
C150 H171 0.930 . S
C151 C150 1.381 . S
C151 C153 1.381 . S
C151 C154 1.487 . S
C152 C149 1.382 . S
C152 C153 1.387 . S
C152 H172 0.930 . S
C153 C151 1.381 . S
C153 C152 1.387 . S
C153 H173 0.931 . S
C154 C151 1.487 . S
C154 C161 1.399 . S
C154 N179 1.343 . S
C155 C156 1.384 . S
C155 C157 1.384 . S
C155 H174 0.931 . S
C156 C155 1.384 . S
C156 C159 1.382 . S
C157 C155 1.384 . S
C157 C158 1.381 . S
C157 H175 0.930 . S
C158 C157 1.381 . S
C158 C160 1.381 . S
C158 C161 1.487 . S
C159 C156 1.382 . S
C159 C160 1.387 . S
C159 H176 0.930 . S
C160 C158 1.381 . S
C160 C159 1.387 . S
C160 H177 0.931 . S
C161 C154 1.399 . S
C161 C158 1.487 . S
C161 N178 1.343 . S
H162 C134 0.931 . S
H163 C136 0.930 . S
H164 C138 0.930 . S
H165 C139 0.931 . S
H166 C141 0.931 . S
H167 C143 0.930 . S
H168 C145 0.930 . S
H169 C146 0.931 . S
H170 C148 0.931 . S
H171 C150 0.930 . S
H172 C152 0.930 . S
H173 C153 0.931 . S
H174 C155 0.931 . S
H175 C157 0.930 . S
H176 C159 0.930 . S
H177 C160 0.931 . S
N178 C140 1.343 . S
N178 C161 1.343 . S
N179 C147 1.343 . S
N179 C154 1.343 . S
C50 C6 1.493 . S
C22 C89 1.654 1_545 S
C34 C156 1.356 . S
C7 C57 1.504 1_455 S
C110 C23 1.636 . S
C35 C135 1.360 . S
C96 C36 1.690 1_545 S
C9 C149 1.956 . S
C64 C21 1.474 1_455 S
C103 C37 1.668 . S
C142 C8 1.963 . S
C20 C43 1.469 . S
