# Generated by pormake.
# Topology hwx, (6,3)-cn, num edge types: 1
# Building blocks:
#     Node 0, Type 0, BuildingBlock: OJICUG_clean_sbu_0, # of connection points: 6
#     Node 1, Type 0, BuildingBlock: OJICUG_clean_sbu_0, # of connection points: 6
#     Node 2, Type 0, BuildingBlock: OJICUG_clean_sbu_0, # of connection points: 6
#     Node 3, Type 0, BuildingBlock: OJICUG_clean_sbu_0, # of connection points: 6
#     Node 4, Type 1, BuildingBlock: INOVEN_clean_linker_0, # of connection points: 3
#     Node 5, Type 1, BuildingBlock: INOVEN_clean_linker_0, # of connection points: 3
#     Node 6, Type 1, BuildingBlock: INOVEN_clean_linker_0, # of connection points: 3
#     Node 7, Type 1, BuildingBlock: INOVEN_clean_linker_0, # of connection points: 3
#     Node 8, Type 1, BuildingBlock: INOVEN_clean_linker_0, # of connection points: 3
#     Node 9, Type 1, BuildingBlock: INOVEN_clean_linker_0, # of connection points: 3
#     Node 10, Type 1, BuildingBlock: INOVEN_clean_linker_0, # of connection points: 3
#     Node 11, Type 1, BuildingBlock: INOVEN_clean_linker_0, # of connection points: 3
#     Edge 12, Type (0, 1), None
#     Edge 13, Type (0, 1), None
#     Edge 14, Type (0, 1), None
#     Edge 15, Type (0, 1), None
#     Edge 16, Type (0, 1), None
#     Edge 17, Type (0, 1), None
#     Edge 18, Type (0, 1), None
#     Edge 19, Type (0, 1), None
#     Edge 20, Type (0, 1), None
#     Edge 21, Type (0, 1), None
#     Edge 22, Type (0, 1), None
#     Edge 23, Type (0, 1), None
#     Edge 24, Type (0, 1), None
#     Edge 25, Type (0, 1), None
#     Edge 26, Type (0, 1), None
#     Edge 27, Type (0, 1), None
#     Edge 28, Type (0, 1), None
#     Edge 29, Type (0, 1), None
#     Edge 30, Type (0, 1), None
#     Edge 31, Type (0, 1), None
#     Edge 32, Type (0, 1), None
#     Edge 33, Type (0, 1), None
#     Edge 34, Type (0, 1), None
#     Edge 35, Type (0, 1), None
# Relax obj value: 0.009
# Max RMSD: 0.048
# Mean RMSD: 0.036
data_MOF--net-hwx--node1-OJICUG_clean_sbu_0--node2-INOVEN_clean_linker_0--edge1-none
_symmetry_space_group_name_H-M    P1
_symmetry_Int_Tables_number       1
_symmetry_cell_setting            triclinic
loop_
_symmetry_equiv_pos_as_xyz
'x, y, z'
_cell_length_a     24.301744
_cell_length_b     24.301104
_cell_length_c     9.7804666
_cell_angle_alpha  93.667091
_cell_angle_beta   93.661933
_cell_angle_gamma 90.520058
loop_
_atom_site_label
_atom_site_type_symbol
_atom_site_fract_x
_atom_site_fract_y
_atom_site_fract_z
_atom_type_partial_charge
Sc0 Sc 0.27272 0.27373 0.19339 0.0
Sc1 Sc 0.1815 0.18184 -0.01051 0.0
Sc2 Sc 0.26855 0.27598 0.8412 0.0
O3 O 0.24061 0.24349 0.00811 0.0
C4 C 0.26206 0.38441 0.0391 0.0
C5 C 0.1455 0.25427 0.2492 0.0
C6 C 0.14186 0.25824 0.74732 0.0
C7 C 0.25972 0.14668 0.24513 0.0
C8 C 0.38036 0.26949 0.02532 0.0
C9 C 0.2541 0.14763 0.74119 0.0
O10 O 0.26104 0.35896 0.14827 0.0
O11 O 0.13163 0.22316 0.14221 0.0
O12 O 0.18612 0.28701 0.75676 0.0
O13 O 0.28626 0.19229 0.2597 0.0
O14 O 0.35417 0.26689 0.90825 0.0
O15 O 0.22404 0.13254 0.83468 0.0
O16 O 0.35659 0.27488 0.13671 0.0
O17 O 0.22073 0.13681 0.15322 0.0
O18 O 0.27128 0.1969 0.73729 0.0
O19 O 0.19381 0.27415 0.27398 0.0
O20 O 0.26739 0.35991 0.92244 0.0
O21 O 0.13406 0.21839 0.8227 0.0
Sc22 Sc 0.22953 0.77974 0.3 0.0
Sc23 Sc 0.30984 0.68309 0.47233 0.0
Sc24 Sc 0.21317 0.76335 0.64474 0.0
O25 O 0.25083 0.74208 0.47235 0.0
C26 C 0.22844 0.88041 0.52616 0.0
C27 C 0.35365 0.76313 0.2525 0.0
C28 C 0.34057 0.75056 0.7498 0.0
C29 C 0.24236 0.65235 0.19488 0.0
C30 C 0.11249 0.76444 0.41865 0.0
C31 C 0.22981 0.63924 0.69216 0.0
O32 O 0.22644 0.86052 0.40246 0.0
O33 O 0.35611 0.71915 0.3163 0.0
O34 O 0.28994 0.76106 0.76382 0.0
O35 O 0.23183 0.70298 0.18088 0.0
O36 O 0.13238 0.76644 0.54234 0.0
O37 O 0.27379 0.6368 0.62837 0.0
O38 O 0.14236 0.76585 0.31703 0.0
O39 O 0.26445 0.63491 0.30598 0.0
O40 O 0.19615 0.67863 0.68058 0.0
O41 O 0.31424 0.79677 0.26407 0.0
O42 O 0.22704 0.85052 0.62777 0.0
O43 O 0.35802 0.72849 0.63868 0.0
Sc44 Sc 0.71925 0.72013 0.75166 0.0
Sc45 Sc 0.81108 0.81139 0.95553 0.0
Sc46 Sc 0.71688 0.72444 0.10383 0.0
O47 O 0.74943 0.75229 0.93692 0.0
C48 C 0.60852 0.73087 0.90569 0.0
C49 C 0.73874 0.84735 0.69576 0.0
C50 C 0.73465 0.8511 0.19763 0.0
C51 C 0.84628 0.73311 0.69996 0.0
C52 C 0.72341 0.61256 0.91999 0.0
C53 C 0.84523 0.73886 0.20391 0.0
O54 O 0.63401 0.73192 0.79658 0.0
O55 O 0.76972 0.86128 0.80293 0.0
O56 O 0.70576 0.80691 0.18798 0.0
O57 O 0.80072 0.70647 0.68557 0.0
O58 O 0.72605 0.63879 0.03702 0.0
O59 O 0.86038 0.76879 0.11021 0.0
O60 O 0.71798 0.6363 0.80855 0.0
O61 O 0.85607 0.77219 0.79167 0.0
O62 O 0.79593 0.72181 0.20794 0.0
O63 O 0.71896 0.799 0.67088 0.0
O64 O 0.63298 0.72551 0.02238 0.0
O65 O 0.77459 0.85881 0.12246 0.0
Sc66 Sc 0.76013 0.2175 0.64523 0.0
Sc67 Sc 0.6792 0.31372 0.47269 0.0
Sc68 Sc 0.77541 0.2328 0.3001 0.0
O69 O 0.73822 0.2547 0.47268 0.0
C70 C 0.87652 0.23206 0.52559 0.0
C71 C 0.74583 0.34492 0.75204 0.0
C72 C 0.76013 0.35682 0.25474 0.0
C73 C 0.63612 0.23278 0.69065 0.0
C74 C 0.76087 0.11641 0.41968 0.0
C75 C 0.648 0.24709 0.19334 0.0
O76 O 0.84684 0.23245 0.62777 0.0
O77 O 0.72381 0.36229 0.64077 0.0
O78 O 0.79339 0.31711 0.26526 0.0
O79 O 0.67583 0.19952 0.68011 0.0
O80 O 0.76047 0.14609 0.31753 0.0
O81 O 0.63063 0.2691 0.30462 0.0
O82 O 0.76438 0.1365 0.54331 0.0
O83 O 0.63318 0.27674 0.62687 0.0
O84 O 0.69861 0.23603 0.18032 0.0
O85 O 0.7569 0.29431 0.76505 0.0
O86 O 0.85642 0.22854 0.40197 0.0
O87 O 0.71617 0.35974 0.31852 0.0
H88 H 0.24188 0.52723 0.72224 0.0
H89 H 0.21904 0.683 0.93961 0.0
H90 H 0.25095 0.53931 0.16548 0.0
N91 N 0.25227 0.46809 0.94056 0.0
N92 N 0.25532 0.44226 0.04708 0.0
C93 C 0.23838 0.55146 0.81815 0.0
C94 C 0.22801 0.6081 0.81697 0.0
C95 C 0.2444 0.52595 0.94353 0.0
C96 C 0.24362 0.55819 0.06873 0.0
C97 C 0.23489 0.61513 0.06847 0.0
C98 C 0.22477 0.63886 0.94196 0.0
H99 H 0.95943 0.74655 0.69276 0.0
H100 H 0.81029 0.71463 0.4438 0.0
H101 H 0.95937 0.7518 0.25199 0.0
N102 N 0.0247 0.75504 0.49118 0.0
N103 N 0.05471 0.75825 0.39313 0.0
C104 C 0.93784 0.74114 0.59228 0.0
C105 C 0.8813 0.72901 0.58125 0.0
C106 C 0.96681 0.74663 0.47374 0.0
C107 C 0.93799 0.74418 0.34288 0.0
C108 C 0.88102 0.73273 0.33121 0.0
C109 C 0.8544 0.72229 0.4506 0.0
H110 H 0.74891 0.46823 0.22966 0.0
H111 H 0.77037 0.31368 0.00612 0.0
H112 H 0.73565 0.45855 0.78636 0.0
N113 N 0.7365 0.52858 0.01632 0.0
N114 N 0.72893 0.55463 0.91127 0.0
C115 C 0.75164 0.44456 0.1326 0.0
C116 C 0.76204 0.38809 0.131 0.0
C117 C 0.74413 0.47068 0.00904 0.0
C118 C 0.74386 0.4391 0.88201 0.0
C119 C 0.7532 0.38202 0.8795 0.0
C120 C 0.76442 0.35782 0.00502 0.0
H121 H 0.03176 0.24182 0.2528 0.0
H122 H 0.18001 0.27291 0.50963 0.0
H123 H 0.02824 0.24508 0.69479 0.0
N124 N 0.96473 0.23809 0.45276 0.0
N125 N 0.93433 0.23745 0.55065 0.0
C126 C 0.05279 0.24801 0.35379 0.0
C127 C 0.10966 0.25847 0.36661 0.0
C128 C 0.02273 0.24536 0.4716 0.0
C129 C 0.05051 0.24998 0.60379 0.0
C130 C 0.10748 0.26086 0.61719 0.0
C131 C 0.13567 0.26678 0.49862 0.0
H132 H 0.75116 0.96109 0.6923 0.0
H133 H 0.72006 0.81288 0.43525 0.0
H134 H 0.74781 0.96471 0.25031 0.0
N135 N 0.75485 0.02817 0.49243 0.0
N136 N 0.75547 0.05859 0.39458 0.0
C137 C 0.74496 0.94008 0.59128 0.0
C138 C 0.73452 0.88321 0.57839 0.0
C139 C 0.74758 0.97017 0.47352 0.0
C140 C 0.74294 0.94242 0.34129 0.0
C141 C 0.73207 0.88545 0.32782 0.0
C142 C 0.72618 0.85722 0.44635 0.0
H143 H 0.52471 0.244 0.71574 0.0
H144 H 0.67925 0.22254 0.93926 0.0
H145 H 0.53437 0.25726 0.15904 0.0
N146 N 0.46435 0.25641 0.92907 0.0
N147 N 0.43829 0.26396 0.03411 0.0
C148 C 0.54837 0.24127 0.81279 0.0
C149 C 0.60485 0.23086 0.81438 0.0
C150 C 0.52225 0.24878 0.93636 0.0
C151 C 0.55383 0.24905 0.06339 0.0
C152 C 0.6109 0.23972 0.06589 0.0
C153 C 0.6351 0.22849 0.94036 0.0
H154 H 0.24627 0.03351 0.2522 0.0
H155 H 0.27828 0.18261 0.50134 0.0
H156 H 0.24112 0.03349 0.69298 0.0
N157 N 0.23782 0.96821 0.45371 0.0
N158 N 0.23463 0.93818 0.55173 0.0
C159 C 0.25171 0.05509 0.3527 0.0
C160 C 0.26384 0.11163 0.36379 0.0
C161 C 0.24624 0.0261 0.4712 0.0
C162 C 0.24872 0.05489 0.6021 0.0
C163 C 0.2602 0.11185 0.61384 0.0
C164 C 0.27061 0.1385 0.49447 0.0
H165 H 0.46567 0.75107 0.22243 0.0
H166 H 0.30991 0.77392 0.00505 0.0
H167 H 0.45361 0.74197 0.77919 0.0
N168 N 0.52482 0.74066 0.00413 0.0
N169 N 0.55067 0.73762 0.89764 0.0
C170 C 0.44144 0.75457 0.12652 0.0
C171 C 0.3848 0.76494 0.1277 0.0
C172 C 0.46696 0.74854 0.00115 0.0
C173 C 0.43473 0.74931 0.87594 0.0
C174 C 0.37778 0.75804 0.8762 0.0
C175 C 0.35405 0.76817 0.00271 0.0
loop_
_geom_bond_atom_site_label_1
_geom_bond_atom_site_label_2
_geom_bond_distance
_geom_bond_site_symmetry_2
_ccdc_geom_bond_type
Sc0 O3 2.025 . S
Sc0 O10 2.105 . S
Sc0 O13 2.105 . S
Sc0 O16 2.105 . S
Sc0 O19 2.105 . S
Sc1 O3 2.025 1_556 S
Sc1 O11 2.105 1_556 S
Sc1 O15 2.105 . S
Sc1 O17 2.105 1_556 S
Sc1 O21 2.105 . S
Sc2 O3 2.025 1_556 S
Sc2 O12 2.105 . S
Sc2 O14 2.105 . S
Sc2 O18 2.105 . S
Sc2 O20 2.105 . S
O3 Sc0 2.025 . S
O3 Sc1 2.025 1_554 S
O3 Sc2 2.025 1_554 S
C4 O10 1.268 . S
C4 O20 1.268 1_554 S
C5 O11 1.268 . S
C5 O19 1.268 . S
C6 O12 1.268 . S
C6 O21 1.268 . S
C7 O13 1.268 . S
C7 O17 1.268 . S
C8 O14 1.268 1_554 S
C8 O16 1.268 . S
C9 O15 1.268 . S
C9 O18 1.268 . S
O10 Sc0 2.105 . S
O10 C4 1.268 . S
O11 Sc1 2.105 1_554 S
O11 C5 1.268 . S
O12 Sc2 2.105 . S
O12 C6 1.268 . S
O13 Sc0 2.105 . S
O13 C7 1.268 . S
O14 Sc2 2.105 . S
O14 C8 1.268 1_556 S
O15 Sc1 2.105 . S
O15 C9 1.268 . S
O16 Sc0 2.105 . S
O16 C8 1.268 . S
O17 Sc1 2.105 1_554 S
O17 C7 1.268 . S
O18 Sc2 2.105 . S
O18 C9 1.268 . S
O19 Sc0 2.105 . S
O19 C5 1.268 . S
O20 Sc2 2.105 . S
O20 C4 1.268 1_556 S
O21 Sc1 2.105 . S
O21 C6 1.268 . S
Sc22 O25 2.025 . S
Sc22 O32 2.105 . S
Sc22 O35 2.105 . S
Sc22 O38 2.105 . S
Sc22 O41 2.105 . S
Sc23 O25 2.025 . S
Sc23 O33 2.105 . S
Sc23 O37 2.105 . S
Sc23 O39 2.105 . S
Sc23 O43 2.105 . S
Sc24 O25 2.025 . S
Sc24 O34 2.105 . S
Sc24 O36 2.105 . S
Sc24 O40 2.105 . S
Sc24 O42 2.105 . S
O25 Sc22 2.025 . S
O25 Sc23 2.025 . S
O25 Sc24 2.025 . S
C26 O32 1.268 . S
C26 O42 1.268 . S
C27 O33 1.268 . S
C27 O41 1.268 . S
C28 O34 1.268 . S
C28 O43 1.268 . S
C29 O35 1.268 . S
C29 O39 1.268 . S
C30 O36 1.268 . S
C30 O38 1.268 . S
C31 O37 1.268 . S
C31 O40 1.268 . S
O32 Sc22 2.105 . S
O32 C26 1.268 . S
O33 Sc23 2.105 . S
O33 C27 1.268 . S
O34 Sc24 2.105 . S
O34 C28 1.268 . S
O35 Sc22 2.105 . S
O35 C29 1.268 . S
O36 Sc24 2.105 . S
O36 C30 1.268 . S
O37 Sc23 2.105 . S
O37 C31 1.268 . S
O38 Sc22 2.105 . S
O38 C30 1.268 . S
O39 Sc23 2.105 . S
O39 C29 1.268 . S
O40 Sc24 2.105 . S
O40 C31 1.268 . S
O41 Sc22 2.105 . S
O41 C27 1.268 . S
O42 Sc24 2.105 . S
O42 C26 1.268 . S
O43 Sc23 2.105 . S
O43 C28 1.268 . S
Sc44 O47 2.025 1_556 S
Sc44 O54 2.105 . S
Sc44 O57 2.105 . S
Sc44 O60 2.105 . S
Sc44 O63 2.105 . S
Sc45 O47 2.025 . S
Sc45 O55 2.105 1_554 S
Sc45 O59 2.105 . S
Sc45 O61 2.105 1_554 S
Sc45 O65 2.105 . S
Sc46 O47 2.025 . S
Sc46 O56 2.105 . S
Sc46 O58 2.105 . S
Sc46 O62 2.105 . S
Sc46 O64 2.105 . S
O47 Sc44 2.025 1_554 S
O47 Sc45 2.025 . S
O47 Sc46 2.025 . S
C48 O54 1.268 1_554 S
C48 O64 1.268 . S
C49 O55 1.268 . S
C49 O63 1.268 . S
C50 O56 1.268 . S
C50 O65 1.268 . S
C51 O57 1.268 . S
C51 O61 1.268 . S
C52 O58 1.268 . S
C52 O60 1.268 1_554 S
C53 O59 1.268 . S
C53 O62 1.268 . S
O54 Sc44 2.105 . S
O54 C48 1.268 1_556 S
O55 Sc45 2.105 1_556 S
O55 C49 1.268 . S
O56 Sc46 2.105 . S
O56 C50 1.268 . S
O57 Sc44 2.105 . S
O57 C51 1.268 . S
O58 Sc46 2.105 . S
O58 C52 1.268 . S
O59 Sc45 2.105 . S
O59 C53 1.268 . S
O60 Sc44 2.105 . S
O60 C52 1.268 1_556 S
O61 Sc45 2.105 1_556 S
O61 C51 1.268 . S
O62 Sc46 2.105 . S
O62 C53 1.268 . S
O63 Sc44 2.105 . S
O63 C49 1.268 . S
O64 Sc46 2.105 . S
O64 C48 1.268 . S
O65 Sc45 2.105 . S
O65 C50 1.268 . S
Sc66 O69 2.025 . S
Sc66 O76 2.105 . S
Sc66 O79 2.105 . S
Sc66 O82 2.105 . S
Sc66 O85 2.105 . S
Sc67 O69 2.025 . S
Sc67 O77 2.105 . S
Sc67 O81 2.105 . S
Sc67 O83 2.105 . S
Sc67 O87 2.105 . S
Sc68 O69 2.025 . S
Sc68 O78 2.105 . S
Sc68 O80 2.105 . S
Sc68 O84 2.105 . S
Sc68 O86 2.105 . S
O69 Sc66 2.025 . S
O69 Sc67 2.025 . S
O69 Sc68 2.025 . S
C70 O76 1.268 . S
C70 O86 1.268 . S
C71 O77 1.268 . S
C71 O85 1.268 . S
C72 O78 1.268 . S
C72 O87 1.268 . S
C73 O79 1.268 . S
C73 O83 1.268 . S
C74 O80 1.268 . S
C74 O82 1.268 . S
C75 O81 1.268 . S
C75 O84 1.268 . S
O76 Sc66 2.105 . S
O76 C70 1.268 . S
O77 Sc67 2.105 . S
O77 C71 1.268 . S
O78 Sc68 2.105 . S
O78 C72 1.268 . S
O79 Sc66 2.105 . S
O79 C73 1.268 . S
O80 Sc68 2.105 . S
O80 C74 1.268 . S
O81 Sc67 2.105 . S
O81 C75 1.268 . S
O82 Sc66 2.105 . S
O82 C74 1.268 . S
O83 Sc67 2.105 . S
O83 C73 1.268 . S
O84 Sc68 2.105 . S
O84 C75 1.268 . S
O85 Sc66 2.105 . S
O85 C71 1.268 . S
O86 Sc68 2.105 . S
O86 C70 1.268 . S
O87 Sc67 2.105 . S
O87 C72 1.268 . S
H88 C93 0.929 . S
H89 C98 0.931 . S
H90 C96 0.930 . S
N91 N92 1.234 1_556 S
N91 C95 1.453 . S
N92 N91 1.234 1_554 S
C93 H88 0.929 . S
C93 C94 1.373 . S
C93 C95 1.368 . S
C94 C93 1.373 . S
C94 C98 1.397 1_556 S
C95 N91 1.453 . S
C95 C93 1.368 . S
C95 C96 1.373 1_556 S
C96 H90 0.930 . S
C96 C95 1.373 1_554 S
C96 C97 1.371 . S
C97 C96 1.371 . S
C97 C98 1.383 . S
C98 H89 0.931 . S
C98 C94 1.397 1_554 S
C98 C97 1.383 . S
H99 C104 0.929 . S
H100 C109 0.931 . S
H101 C107 0.930 1_455 S
N102 N103 1.234 . S
N102 C106 1.453 . S
N103 N102 1.234 . S
C104 H99 0.929 . S
C104 C105 1.373 . S
C104 C106 1.368 1_655 S
C105 C104 1.373 . S
C105 C109 1.397 . S
C106 N102 1.453 . S
C106 C104 1.368 1_455 S
C106 C107 1.373 1_455 S
C107 H101 0.930 1_655 S
C107 C106 1.373 1_655 S
C107 C108 1.371 . S
C108 C107 1.371 . S
C108 C109 1.383 . S
C109 H100 0.931 . S
C109 C105 1.397 . S
C109 C108 1.383 . S
H110 C115 0.929 . S
H111 C120 0.931 . S
H112 C118 0.930 . S
N113 N114 1.234 1_554 S
N113 C117 1.453 . S
N114 N113 1.234 1_556 S
C115 H110 0.929 . S
C115 C116 1.373 . S
C115 C117 1.368 . S
C116 C115 1.373 . S
C116 C120 1.397 . S
C117 N113 1.453 . S
C117 C115 1.368 . S
C117 C118 1.373 1_554 S
C118 H112 0.930 . S
C118 C117 1.373 1_556 S
C118 C119 1.371 . S
C119 C118 1.371 . S
C119 C120 1.383 1_556 S
C120 H111 0.931 . S
C120 C116 1.397 . S
C120 C119 1.383 1_554 S
H121 C126 0.929 . S
H122 C131 0.931 . S
H123 C129 0.930 . S
N124 N125 1.234 . S
N124 C128 1.453 . S
N125 N124 1.234 . S
C126 H121 0.929 . S
C126 C127 1.373 . S
C126 C128 1.368 1_455 S
C127 C126 1.373 . S
C127 C131 1.397 . S
C128 N124 1.453 . S
C128 C126 1.368 1_655 S
C128 C129 1.373 1_655 S
C129 H123 0.930 . S
C129 C128 1.373 1_455 S
C129 C130 1.371 . S
C130 C129 1.371 . S
C130 C131 1.383 . S
C131 H122 0.931 . S
C131 C127 1.397 . S
C131 C130 1.383 . S
H132 C137 0.929 . S
H133 C142 0.931 . S
H134 C140 0.930 . S
N135 N136 1.234 . S
N135 C139 1.469 . S
N136 N135 1.234 . S
C137 H132 0.929 . S
C137 C138 1.373 . S
C137 C139 1.358 1_565 S
C138 C137 1.373 . S
C138 C142 1.397 . S
C139 N135 1.469 . S
C139 C137 1.358 1_545 S
C139 C140 1.367 1_545 S
C140 H134 0.930 . S
C140 C139 1.367 1_565 S
C140 C141 1.371 . S
C141 C140 1.371 . S
C141 C142 1.383 . S
C142 H133 0.931 . S
C142 C138 1.397 . S
C142 C141 1.383 . S
H143 C148 0.929 . S
H144 C153 0.931 . S
H145 C151 0.930 . S
N146 N147 1.234 1_556 S
N146 C150 1.453 . S
N147 N146 1.234 1_554 S
C148 H143 0.929 . S
C148 C149 1.373 . S
C148 C150 1.368 . S
C149 C148 1.373 . S
C149 C153 1.397 1_556 S
C150 N146 1.453 . S
C150 C148 1.368 . S
C150 C151 1.373 1_556 S
C151 H145 0.930 . S
C151 C150 1.373 1_554 S
C151 C152 1.371 . S
C152 C151 1.371 . S
C152 C153 1.383 . S
C153 H144 0.931 . S
C153 C149 1.397 1_554 S
C153 C152 1.383 . S
H154 C159 0.929 . S
H155 C164 0.931 . S
H156 C162 0.930 1_565 S
N157 N158 1.234 . S
N157 C161 1.453 . S
N158 N157 1.234 . S
C159 H154 0.929 . S
C159 C160 1.373 . S
C159 C161 1.368 1_545 S
C160 C159 1.373 . S
C160 C164 1.397 . S
C161 N157 1.453 . S
C161 C159 1.368 1_565 S
C161 C162 1.373 1_565 S
C162 H156 0.930 1_545 S
C162 C161 1.373 1_545 S
C162 C163 1.371 . S
C163 C162 1.371 . S
C163 C164 1.383 . S
C164 H155 0.931 . S
C164 C160 1.397 . S
C164 C163 1.383 . S
H165 C170 0.929 . S
H166 C175 0.931 . S
H167 C173 0.930 . S
N168 N169 1.234 1_554 S
N168 C172 1.453 . S
N169 N168 1.234 1_556 S
C170 H165 0.929 . S
C170 C171 1.373 . S
C170 C172 1.368 . S
C171 C170 1.373 . S
C171 C175 1.397 . S
C172 N168 1.453 . S
C172 C170 1.368 . S
C172 C173 1.373 1_554 S
C173 H167 0.930 . S
C173 C172 1.373 1_556 S
C173 C174 1.371 . S
C174 C173 1.371 . S
C174 C175 1.383 1_556 S
C175 H166 0.931 . S
C175 C171 1.397 . S
C175 C174 1.383 1_554 S
C5 C127 1.441 . S
C31 C94 1.511 . S
C108 C53 1.491 . S
C71 C119 1.423 . S
C152 C75 1.423 . S
C163 C9 1.491 . S
C171 C27 1.511 . S
C138 C49 1.441 . S
C51 C105 1.406 . S
C72 C116 1.467 . S
C6 C130 1.516 . S
C97 C29 1.443 . S
C28 C174 1.443 . S
C141 C50 1.515 . S
C149 C73 1.466 . S
C7 C160 1.405 . S
N92 C4 1.554 . S
N103 C30 1.571 . S
C52 N114 1.580 1_554 S
C70 N125 1.545 . S
N136 C74 1.545 . S
C8 N147 1.580 . S
C26 N158 1.571 . S
C48 N169 1.554 1_554 S
