# Generated by pormake.
# Topology scu, (8,4)-cn, num edge types: 1
# Building blocks:
#     Node 0, Type 0, BuildingBlock: VETTIZ_charged_sbu_0, # of connection points: 8
#     Node 1, Type 1, BuildingBlock: IZENUY_clean_linker_0, # of connection points: 4
#     Node 2, Type 1, BuildingBlock: IZENUY_clean_linker_0, # of connection points: 4
#     Edge 3, Type (0, 1), BuildingBlock: XIVTED_clean_linker_0, # of connection points: 2
#     Edge 4, Type (0, 1), BuildingBlock: XIVTED_clean_linker_0, # of connection points: 2
#     Edge 5, Type (0, 1), BuildingBlock: XIVTED_clean_linker_0, # of connection points: 2
#     Edge 6, Type (0, 1), BuildingBlock: XIVTED_clean_linker_0, # of connection points: 2
#     Edge 7, Type (0, 1), BuildingBlock: XIVTED_clean_linker_0, # of connection points: 2
#     Edge 8, Type (0, 1), BuildingBlock: XIVTED_clean_linker_0, # of connection points: 2
#     Edge 9, Type (0, 1), BuildingBlock: XIVTED_clean_linker_0, # of connection points: 2
#     Edge 10, Type (0, 1), BuildingBlock: XIVTED_clean_linker_0, # of connection points: 2
# Relax obj value: 0.029
# Max RMSD: 0.128
# Mean RMSD: 0.109
data_MOF--net-scu--node1-VETTIZ_charged_sbu_0--node2-IZENUY_clean_linker_0--edge1-XIVTED_clean_linker_0
_symmetry_space_group_name_H-M    P1
_symmetry_Int_Tables_number       1
_symmetry_cell_setting            triclinic
loop_
_symmetry_equiv_pos_as_xyz
'x, y, z'
_cell_length_a     29.274073
_cell_length_b     29.278217
_cell_length_c     18.381097
_cell_angle_alpha  90.075213
_cell_angle_beta   86.978087
_cell_angle_gamma 91.34782
loop_
_atom_site_label
_atom_site_type_symbol
_atom_site_fract_x
_atom_site_fract_y
_atom_site_fract_z
_atom_type_partial_charge
Fe0 Fe 0.03493 0.03999 0.16078 0.0
O1 O 0.0322 0.0384 0.05448 0.0
Fe2 Fe 0.04961 0.97746 1.00008 0.0
Fe3 Fe 0.97614 0.05321 0.00242 0.0
O4 O 0.03569 0.03522 0.0541 0.0
O5 O 0.99315 0.99173 0.94884 0.0
O6 O 0.98974 0.99509 0.94905 0.0
Fe7 Fe 0.99071 0.98947 0.84256 0.0
C8 C 0.93102 0.02415 0.14544 0.0
O9 O 0.03064 0.10942 0.14214 0.0
O10 O 0.97049 0.11306 0.06582 0.0
O11 O 0.06099 0.9863 0.82394 0.0
O12 O 0.09089 0.01341 0.92436 0.0
O13 O 0.10798 0.97147 0.06168 0.0
O14 O 0.10459 0.03355 0.13967 0.0
O15 O 0.01526 0.09153 0.92793 0.0
O16 O 0.99486 0.05944 0.82398 0.0
C17 C 0.1262 1.00065 0.10618 0.0
O18 O 0.99338 0.92019 0.86303 0.0
O19 O 0.05498 0.91739 0.9367 0.0
O20 O 0.96448 0.03983 0.1804 0.0
O21 O 0.93406 0.01781 0.07692 0.0
C22 C 0.9992 0.13131 0.11006 0.0
C23 C 1.01039 0.09334 0.85965 0.0
C24 C 0.89993 0.03117 0.89567 0.0
O25 O 0.91835 0.06007 0.94023 0.0
O26 O 0.92112 0.9979 0.86254 0.0
C27 C 0.09485 1.00247 0.85735 0.0
O28 O 1.01117 0.93862 0.07483 0.0
O29 O 0.03301 0.96999 0.17827 0.0
C30 C 0.02547 0.89861 0.89418 0.0
C31 C 0.0169 0.93636 0.14279 0.0
H32 H 0.99557 0.46047 0.39592 0.0
H33 H 0.02755 0.43224 0.61816 0.0
H34 H 0.99864 0.32215 0.47091 0.0
H35 H 0.03053 0.5697 0.60754 0.0
H36 H 0.99936 0.59764 0.38486 0.0
H37 H 0.02764 0.70793 0.53203 0.0
N38 N 0.01593 0.49996 0.5251 0.0
N39 N 1.01062 0.53006 0.47823 0.0
C40 C 1.0002 0.43657 0.43971 0.0
C41 C 0.99529 0.38957 0.42644 0.0
C42 C 1.01109 0.45237 0.50957 0.0
C43 C 0.01818 0.4203 0.56503 0.0
C44 C 0.01469 0.37302 0.55108 0.0
C45 C 1.00215 0.35843 0.48215 0.0
C46 C 0.02605 0.59355 0.56363 0.0
C47 C 0.03087 0.64058 0.57679 0.0
C48 C 0.01542 0.57766 0.4937 0.0
C49 C 1.00853 0.60965 0.43805 0.0
C50 C 1.01195 0.65694 0.45187 0.0
C51 C 0.0242 0.67164 0.52089 0.0
H52 H 0.58689 1.00924 0.41594 0.0
H53 H 0.56996 0.04062 0.64549 0.0
H54 H 0.70411 0.04103 0.53993 0.0
H55 H 0.44186 1.00853 0.5926 0.0
H56 H 0.45511 1.00141 0.35752 0.0
H57 H 0.32383 0.98011 0.46899 0.0
N58 N 0.52376 0.01957 0.53065 0.0
N59 N 0.50304 1.01253 0.47393 0.0
C60 C 0.60122 0.01934 0.46682 0.0
C61 C 0.64914 0.02395 0.47059 0.0
C62 C 0.57224 0.0258 0.53027 0.0
C63 C 0.59178 0.03694 0.59644 0.0
C64 C 0.63922 0.04322 0.59955 0.0
C65 C 0.6673 0.03715 0.53664 0.0
C66 C 0.42684 1.00345 0.54051 0.0
C67 C 0.37951 0.99373 0.53847 0.0
C68 C 0.45463 1.0054 0.47484 0.0
C69 C 0.4342 0.99919 0.4079 0.0
C70 C 0.38713 0.98958 0.40578 0.0
C71 C 0.3604 0.98662 0.47098 0.0
H72 H 0.06811 0.19337 0.12702 0.0
H73 H 0.91797 0.34658 0.38316 0.0
H74 H 0.921 0.1795 0.13859 0.0
H75 H 0.0551 0.38604 0.30874 0.0
H76 H 0.91445 0.29248 0.28175 0.0
H77 H 0.06204 0.26941 0.18065 0.0
C78 C 0.03445 0.2068 0.1398 0.0
C79 C 0.99501 0.18006 0.12924 0.0
C80 C 0.94478 0.31403 0.28592 0.0
C81 C 0.9877 0.26674 0.19221 0.0
C82 C 0.94658 0.34515 0.34343 0.0
C83 C 0.98678 0.3708 0.35371 0.0
C84 C 0.98396 0.3077 0.23984 0.0
C85 C 0.02338 0.3671 0.30202 0.0
C86 C 0.03095 0.2503 0.17019 0.0
C87 C 0.95222 0.19911 0.1461 0.0
N88 N 0.02152 0.33529 0.24821 0.0
N89 N 0.94968 0.24095 0.17841 0.0
H90 H 0.91649 0.99554 0.28584 0.0
H91 H 0.6561 0.05973 0.331 0.0
H92 H 0.84423 0.03439 0.09789 0.0
H93 H 0.71857 0.96442 0.47165 0.0
H94 H 0.72253 0.05326 0.24329 0.0
H95 H 0.84346 0.98759 0.35588 0.0
C96 C 0.88515 1.00216 0.25923 0.0
C97 C 0.88645 0.01568 0.18602 0.0
C98 C 0.72112 0.03312 0.29276 0.0
C99 C 0.80246 1.00736 0.26633 0.0
C100 C 0.68313 0.03657 0.34244 0.0
C101 C 0.68211 0.01292 0.40892 0.0
C102 C 0.75829 1.00632 0.31051 0.0
C103 C 0.71826 0.98369 0.42143 0.0
C104 C 0.84341 0.99744 0.29911 0.0
C105 C 0.84468 0.02364 0.15419 0.0
N106 N 0.75507 0.98184 0.37352 0.0
N107 N 0.80436 0.02005 0.19483 0.0
H108 H 0.02188 0.84929 0.087 0.0
H109 H 0.95821 0.73094 0.4722 0.0
H110 H 0.99213 0.92305 0.28657 0.0
H111 H 0.0429 0.66411 0.30717 0.0
H112 H 0.9531 0.79659 0.39182 0.0
H113 H 0.01385 0.77705 0.15547 0.0
C114 C 0.01303 0.85027 0.14496 0.0
C115 C 1.00787 0.89229 0.1813 0.0
C116 C 0.97248 0.76745 0.37277 0.0
C117 C 0.99822 0.80998 0.25932 0.0
C118 C 0.97538 0.72988 0.41855 0.0
C119 C 1.00184 0.6923 0.39698 0.0
C120 C 0.99583 0.76764 0.3042 0.0
C121 C 0.02236 0.69244 0.32611 0.0
C122 C 1.00874 0.80909 0.1839 0.0
C123 C 0.99676 0.89154 0.25646 0.0
N124 N 0.01935 0.72983 0.28236 0.0
N125 N 0.99223 0.85114 0.29281 0.0
H126 H 0.17246 0.92117 0.12266 0.0
H127 H 0.38241 0.05318 0.2984 0.0
H128 H 0.18891 0.06777 0.13266 0.0
H129 H 0.33709 0.91673 0.35881 0.0
H130 H 0.32702 0.05271 0.20256 0.0
H131 H 0.2475 0.91385 0.17519 0.0
C132 C 0.19236 0.95174 0.13421 0.0
C133 C 0.17431 0.99513 0.12441 0.0
C134 C 0.33005 0.02244 0.2356 0.0
C135 C 0.25979 0.98707 0.18372 0.0
C136 C 0.36188 0.02258 0.28969 0.0
C137 C 0.36395 0.98504 0.33647 0.0
C138 C 0.3004 0.9844 0.22829 0.0
C139 C 0.33623 0.94638 0.3238 0.0
C140 C 0.23498 0.94757 0.16443 0.0
C141 C 0.20135 0.03368 0.14051 0.0
N142 N 0.30518 0.94722 0.27143 0.0
N143 N 0.24255 0.02876 0.16986 0.0
H144 H 0.95696 0.83586 0.87831 0.0
H145 H 0.10795 0.68384 0.62045 0.0
H146 H 0.10395 0.85122 0.86411 0.0
H147 H 0.97079 0.64404 0.69418 0.0
H148 H 0.11114 0.73793 0.72192 0.0
H149 H 0.96343 0.75997 0.82421 0.0
C150 C 0.99068 0.82279 0.86488 0.0
C151 C 0.02996 0.8499 0.87487 0.0
C152 C 0.08087 0.71633 0.71758 0.0
C153 C 0.03771 0.7634 0.81135 0.0
C154 C 0.07925 0.68521 0.66004 0.0
C155 C 0.03915 0.65945 0.64955 0.0
C156 C 0.0416 0.72253 0.76352 0.0
C157 C 1.00244 0.66307 0.70106 0.0
C158 C 0.99442 0.77938 0.8342 0.0
C159 C 0.07285 0.83131 0.85714 0.0
N160 N 1.00412 0.69486 0.75493 0.0
N161 N 0.07558 0.78955 0.82461 0.0
H162 H 0.17292 0.05344 0.88629 0.0
H163 H 0.32489 0.92186 0.58193 0.0
H164 H 0.12217 0.94992 0.74186 0.0
H165 H 0.36067 0.05984 0.64229 0.0
H166 H 0.25888 0.92333 0.66874 0.0
H167 H 0.2487 0.04967 0.82081 0.0
C168 C 0.17764 0.03001 0.84101 0.0
C169 C 0.14091 1.00233 0.81906 0.0
C170 C 0.28152 0.9531 0.66404 0.0
C171 C 0.22739 0.99697 0.74586 0.0
C172 C 0.31945 0.95209 0.61506 0.0
C173 C 0.34814 0.99083 0.60474 0.0
C174 C 0.27188 0.99318 0.70337 0.0
C175 C 0.33945 0.0292 0.64897 0.0
C176 C 0.2208 0.02789 0.80386 0.0
C177 C 0.14909 0.97241 0.76026 0.0
N178 N 0.30166 0.02967 0.69592 0.0
N179 N 0.19129 0.97039 0.72625 0.0
H180 H 1.00608 0.18044 0.91541 0.0
H181 H 0.06818 0.2989 0.52989 0.0
H182 H 0.0345 0.10662 0.71546 0.0
H183 H 0.9844 0.36575 0.69608 0.0
H184 H 0.07348 0.23312 0.60994 0.0
H185 H 0.01398 0.25264 0.84697 0.0
C186 C 0.01464 0.17942 0.85737 0.0
C187 C 0.01949 0.13737 0.82096 0.0
C188 C 0.05426 0.26229 0.62931 0.0
C189 C 0.02896 0.2197 0.74293 0.0
C190 C 0.05126 0.29994 0.58371 0.0
C191 C 0.02498 0.33757 0.60571 0.0
C192 C 0.03123 0.26208 0.69813 0.0
C193 C 1.00479 0.33739 0.6768 0.0
C194 C 0.01886 0.2206 0.81844 0.0
C195 C 0.03019 0.13813 0.74567 0.0
N196 N 1.00791 0.29993 0.72036 0.0
N197 N 0.03464 0.17854 0.70932 0.0
H198 H 0.83553 0.96468 0.87624 0.0
H199 H 0.69078 0.11736 0.63688 0.0
H200 H 0.85564 0.11101 0.87291 0.0
H201 H 0.64115 0.9859 0.71549 0.0
H202 H 0.74624 0.11951 0.73218 0.0
H203 H 0.76046 0.97352 0.82684 0.0
C204 C 0.82371 0.99877 0.86607 0.0
C205 C 0.85188 0.03716 0.87783 0.0
C206 C 0.7223 0.09082 0.73019 0.0
C207 C 0.76636 0.04758 0.81994 0.0
C208 C 0.69055 0.08974 0.6761 0.0
C209 C 0.66149 0.05144 0.66878 0.0
C210 C 0.72578 0.05271 0.77573 0.0
C211 C 0.66284 0.01614 0.71989 0.0
C212 C 0.78076 1.00384 0.8382 0.0
C213 C 0.83488 0.08057 0.8644 0.0
N214 N 0.69526 0.01711 0.77025 0.0
N215 N 0.79356 0.0846 0.83453 0.0
loop_
_geom_bond_atom_site_label_1
_geom_bond_atom_site_label_2
_geom_bond_distance
_geom_bond_site_symmetry_2
_ccdc_geom_bond_type
Fe0 O1 1.886 . S
Fe0 O4 1.715 1_645 S
Fe0 O9 2.077 1_655 S
Fe0 O14 1.935 1_655 S
Fe0 O20 2.077 1_545 S
Fe0 O29 1.935 1_545 S
O1 Fe0 1.886 . S
O1 Fe3 1.715 . S
Fe2 O4 1.885 . S
Fe2 O5 1.715 1_554 S
Fe2 O12 1.935 1_554 S
Fe2 O13 2.077 . S
Fe2 O19 1.935 1_554 S
Fe2 O28 2.077 . S
Fe3 O1 1.715 . S
Fe3 O6 1.885 1_554 S
Fe3 O10 1.935 . S
Fe3 O15 2.077 1_554 S
Fe3 O21 1.935 . S
Fe3 O25 2.077 1_554 S
O4 Fe0 1.715 1_465 S
O4 Fe2 1.885 . S
O5 Fe2 1.715 1_556 S
O5 Fe7 1.886 . S
O6 Fe3 1.885 1_556 S
O6 Fe7 1.715 1_645 S
Fe7 O5 1.886 . S
Fe7 O6 1.715 1_465 S
Fe7 O11 2.077 1_565 S
Fe7 O16 1.935 1_565 S
Fe7 O18 2.077 1_455 S
Fe7 O26 1.935 1_455 S
C8 O20 1.377 1_545 S
C8 O21 1.421 . S
O9 Fe0 2.077 1_455 S
O9 C22 1.375 1_455 S
O10 Fe3 1.935 . S
O10 C22 1.421 . S
O11 Fe7 2.077 1_545 S
O11 C27 1.375 1_545 S
O12 Fe2 1.935 1_556 S
O12 C27 1.421 . S
O13 Fe2 2.077 . S
O13 C17 1.381 . S
O14 Fe0 1.935 1_455 S
O14 C17 1.421 1_545 S
O15 Fe3 2.077 1_556 S
O15 C23 1.381 . S
O16 Fe7 1.935 1_545 S
O16 C23 1.421 1_455 S
C17 O13 1.381 . S
C17 O14 1.421 1_565 S
O18 Fe7 2.077 1_655 S
O18 C30 1.377 1_655 S
O19 Fe2 1.935 1_556 S
O19 C30 1.421 . S
O20 Fe0 2.077 1_565 S
O20 C8 1.377 1_565 S
O21 Fe3 1.935 . S
O21 C8 1.421 . S
C22 O9 1.375 1_655 S
C22 O10 1.421 . S
C23 O15 1.381 . S
C23 O16 1.421 1_655 S
C24 O25 1.381 . S
C24 O26 1.421 1_545 S
O25 Fe3 2.077 1_556 S
O25 C24 1.381 . S
O26 Fe7 1.935 1_655 S
O26 C24 1.421 1_565 S
C27 O11 1.375 1_565 S
C27 O12 1.421 . S
O28 Fe2 2.077 . S
O28 C31 1.381 . S
O29 Fe0 1.935 1_565 S
O29 C31 1.421 1_655 S
C30 O18 1.377 1_455 S
C30 O19 1.421 . S
C31 O28 1.381 . S
C31 O29 1.421 1_455 S
H32 C40 0.940 . S
H33 C43 0.940 . S
H34 C45 0.940 . S
H35 C46 0.940 . S
H36 C49 0.940 . S
H37 C51 0.940 . S
N38 N39 1.190 . S
N38 C42 1.477 . S
N39 N38 1.190 . S
N39 C48 1.477 . S
C40 H32 0.940 . S
C40 C41 1.390 1_455 S
C40 C42 1.322 . S
C41 C40 1.390 1_655 S
C41 C45 1.370 . S
C42 N38 1.477 . S
C42 C40 1.322 . S
C42 C43 1.447 . S
C43 H33 0.940 . S
C43 C42 1.447 . S
C43 C44 1.373 . S
C44 C43 1.373 . S
C44 C45 1.417 1_455 S
C45 H34 0.940 . S
C45 C41 1.370 . S
C45 C44 1.417 1_655 S
C46 H35 0.940 . S
C46 C47 1.390 1_455 S
C46 C48 1.322 . S
C47 C46 1.390 1_655 S
C47 C51 1.370 . S
C48 N39 1.477 . S
C48 C46 1.322 . S
C48 C49 1.447 . S
C49 H36 0.940 . S
C49 C48 1.447 . S
C49 C50 1.373 . S
C50 C49 1.373 . S
C50 C51 1.417 1_455 S
C51 H37 0.940 . S
C51 C47 1.370 . S
C51 C50 1.417 1_655 S
H52 C60 0.940 . S
H53 C63 0.940 . S
H54 C65 0.940 . S
H55 C66 0.940 . S
H56 C69 0.940 . S
H57 C71 0.940 . S
N58 N59 1.190 . S
N58 C62 1.477 . S
N59 N58 1.190 . S
N59 C68 1.477 . S
C60 H52 0.940 . S
C60 C61 1.390 1_545 S
C60 C62 1.322 . S
C61 C60 1.390 1_565 S
C61 C65 1.370 . S
C62 N58 1.477 . S
C62 C60 1.322 . S
C62 C63 1.447 . S
C63 H53 0.940 . S
C63 C62 1.447 . S
C63 C64 1.373 . S
C64 C63 1.373 . S
C64 C65 1.417 1_545 S
C65 H54 0.940 . S
C65 C61 1.370 . S
C65 C64 1.417 1_565 S
C66 H55 0.940 . S
C66 C67 1.390 1_545 S
C66 C68 1.322 . S
C67 C66 1.390 1_565 S
C67 C71 1.370 . S
C68 N59 1.477 . S
C68 C66 1.322 . S
C68 C69 1.447 . S
C69 H56 0.940 . S
C69 C68 1.447 . S
C69 C70 1.373 . S
C70 C69 1.373 . S
C70 C71 1.417 1_545 S
C71 H57 0.940 . S
C71 C67 1.370 . S
C71 C70 1.417 1_565 S
H72 C78 0.931 . S
H73 C82 0.930 . S
H74 C87 0.929 . S
H75 C85 0.931 . S
H76 C80 0.929 . S
H77 C86 0.927 1_455 S
C78 H72 0.931 . S
C78 C79 1.366 1_455 S
C78 C86 1.378 1_455 S
C79 C78 1.366 1_655 S
C79 C87 1.433 . S
C80 H76 0.929 . S
C80 C82 1.378 . S
C80 C84 1.350 . S
C81 C84 1.463 . S
C81 C86 1.350 . S
C81 N89 1.427 . S
C82 H73 0.930 . S
C82 C80 1.378 . S
C82 C83 1.367 . S
C83 C82 1.367 . S
C83 C85 1.433 . S
C84 C80 1.350 . S
C84 C81 1.463 . S
C84 N88 1.427 . S
C85 H75 0.931 . S
C85 C83 1.433 . S
C85 N88 1.384 . S
C86 H77 0.927 1_655 S
C86 C78 1.378 1_655 S
C86 C81 1.350 . S
C87 H74 0.929 . S
C87 C79 1.433 . S
C87 N89 1.384 . S
N88 C84 1.427 . S
N88 C85 1.384 . S
N89 C81 1.427 . S
N89 C87 1.384 . S
H90 C96 0.930 . S
H91 C100 0.930 . S
H92 C105 0.929 . S
H93 C103 0.929 . S
H94 C98 0.929 . S
H95 C104 0.929 . S
C96 H90 0.930 . S
C96 C97 1.366 . S
C96 C104 1.378 . S
C97 C96 1.366 . S
C97 C105 1.434 1_565 S
C98 H94 0.929 . S
C98 C100 1.378 . S
C98 C102 1.350 1_545 S
C99 C102 1.463 . S
C99 C104 1.350 . S
C99 N107 1.427 1_565 S
C100 H91 0.930 . S
C100 C98 1.378 . S
C100 C101 1.367 1_545 S
C101 C100 1.367 1_565 S
C101 C103 1.433 . S
C102 C98 1.350 1_565 S
C102 C99 1.463 . S
C102 N106 1.427 . S
C103 H93 0.929 . S
C103 C101 1.433 . S
C103 N106 1.384 . S
C104 H95 0.929 . S
C104 C96 1.378 . S
C104 C99 1.350 . S
C105 H92 0.929 . S
C105 C97 1.434 1_545 S
C105 N107 1.384 . S
N106 C102 1.427 . S
N106 C103 1.384 . S
N107 C99 1.427 1_545 S
N107 C105 1.384 . S
H108 C114 0.930 . S
H109 C118 0.930 . S
H110 C123 0.929 . S
H111 C121 0.929 . S
H112 C116 0.929 . S
H113 C122 0.929 . S
C114 H108 0.930 . S
C114 C115 1.370 . S
C114 C122 1.378 . S
C115 C114 1.370 . S
C115 C123 1.430 1_455 S
C116 H112 0.929 . S
C116 C118 1.378 . S
C116 C120 1.350 1_655 S
C117 C120 1.463 . S
C117 C122 1.350 . S
C117 N125 1.427 1_455 S
C118 H109 0.930 . S
C118 C116 1.378 . S
C118 C119 1.367 1_655 S
C119 C118 1.367 1_455 S
C119 C121 1.433 . S
C120 C116 1.350 1_455 S
C120 C117 1.463 . S
C120 N124 1.427 . S
C121 H111 0.929 . S
C121 C119 1.433 . S
C121 N124 1.384 . S
C122 H113 0.929 . S
C122 C114 1.378 . S
C122 C117 1.350 . S
C123 H110 0.929 . S
C123 C115 1.430 1_655 S
C123 N125 1.384 . S
N124 C120 1.427 . S
N124 C121 1.384 . S
N125 C117 1.427 1_655 S
N125 C123 1.384 . S
H126 C132 0.930 . S
H127 C136 0.930 . S
H128 C141 0.929 . S
H129 C139 0.929 . S
H130 C134 0.929 . S
H131 C140 0.929 . S
C132 H126 0.930 . S
C132 C133 1.359 1_565 S
C132 C140 1.378 . S
C133 C132 1.359 1_545 S
C133 C141 1.441 . S
C134 H130 0.929 . S
C134 C136 1.378 . S
C134 C138 1.350 . S
C135 C138 1.463 . S
C135 C140 1.350 1_545 S
C135 N143 1.427 . S
C136 H127 0.930 . S
C136 C134 1.378 . S
C136 C137 1.367 . S
C137 C136 1.367 . S
C137 C139 1.433 1_545 S
C138 C134 1.350 . S
C138 C135 1.463 . S
C138 N142 1.427 1_545 S
C139 H129 0.929 . S
C139 C137 1.433 1_565 S
C139 N142 1.384 . S
C140 H131 0.929 . S
C140 C132 1.378 . S
C140 C135 1.350 1_565 S
C141 H128 0.929 . S
C141 C133 1.441 . S
C141 N143 1.384 . S
N142 C138 1.427 1_565 S
N142 C139 1.384 . S
N143 C135 1.427 . S
N143 C141 1.384 . S
H144 C150 0.930 . S
H145 C154 0.930 . S
H146 C159 0.929 . S
H147 C157 0.929 . S
H148 C152 0.929 . S
H149 C158 0.929 . S
C150 H144 0.930 . S
C150 C151 1.365 1_655 S
C150 C158 1.378 . S
C151 C150 1.365 1_455 S
C151 C159 1.435 . S
C152 H148 0.929 . S
C152 C154 1.378 . S
C152 C156 1.350 1_455 S
C153 C156 1.463 . S
C153 C158 1.350 . S
C153 N161 1.427 1_655 S
C154 H145 0.930 . S
C154 C152 1.378 . S
C154 C155 1.367 1_455 S
C155 C154 1.367 1_655 S
C155 C157 1.433 . S
C156 C152 1.350 1_655 S
C156 C153 1.463 . S
C156 N160 1.427 . S
C157 H147 0.929 . S
C157 C155 1.433 . S
C157 N160 1.384 . S
C158 H149 0.929 . S
C158 C150 1.378 . S
C158 C153 1.350 . S
C159 H146 0.929 . S
C159 C151 1.435 . S
C159 N161 1.384 . S
N160 C156 1.427 . S
N160 C157 1.384 . S
N161 C153 1.427 1_455 S
N161 C159 1.384 . S
H162 C168 0.930 . S
H163 C172 0.930 . S
H164 C177 0.929 . S
H165 C175 0.929 . S
H166 C170 0.929 . S
H167 C176 0.929 . S
C168 H162 0.930 . S
C168 C169 1.355 1_545 S
C168 C176 1.378 . S
C169 C168 1.355 1_565 S
C169 C177 1.446 . S
C170 H166 0.929 . S
C170 C172 1.378 . S
C170 C174 1.350 . S
C171 C174 1.463 . S
C171 C176 1.350 1_565 S
C171 N179 1.427 . S
C172 H163 0.930 . S
C172 C170 1.378 . S
C172 C173 1.367 . S
C173 C172 1.367 . S
C173 C175 1.433 1_565 S
C174 C170 1.350 . S
C174 C171 1.463 . S
C174 N178 1.427 1_565 S
C175 H165 0.929 . S
C175 C173 1.433 1_545 S
C175 N178 1.384 . S
C176 H167 0.929 . S
C176 C168 1.378 . S
C176 C171 1.350 1_545 S
C177 H164 0.929 . S
C177 C169 1.446 . S
C177 N179 1.384 . S
N178 C174 1.427 1_545 S
N178 C175 1.384 . S
N179 C171 1.427 . S
N179 C177 1.384 . S
H180 C186 0.930 . S
H181 C190 0.930 . S
H182 C195 0.929 . S
H183 C193 0.929 . S
H184 C188 0.929 . S
H185 C194 0.929 . S
C186 H180 0.930 . S
C186 C187 1.367 . S
C186 C194 1.378 . S
C187 C186 1.367 . S
C187 C195 1.433 1_455 S
C188 H184 0.929 . S
C188 C190 1.378 . S
C188 C192 1.350 1_655 S
C189 C192 1.463 . S
C189 C194 1.350 . S
C189 N197 1.427 1_455 S
C190 H181 0.930 . S
C190 C188 1.378 . S
C190 C191 1.367 1_655 S
C191 C190 1.367 1_455 S
C191 C193 1.433 . S
C192 C188 1.350 1_455 S
C192 C189 1.463 . S
C192 N196 1.427 . S
C193 H183 0.929 . S
C193 C191 1.433 . S
C193 N196 1.384 . S
C194 H185 0.929 . S
C194 C186 1.378 . S
C194 C189 1.350 . S
C195 H182 0.929 . S
C195 C187 1.433 1_655 S
C195 N197 1.384 . S
N196 C192 1.427 . S
N196 C193 1.384 . S
N197 C189 1.427 1_655 S
N197 C195 1.384 . S
H198 C204 0.930 . S
H199 C208 0.930 . S
H200 C213 0.929 . S
H201 C211 0.929 . S
H202 C206 0.929 . S
H203 C212 0.929 . S
C204 H198 0.930 . S
C204 C205 1.367 . S
C204 C212 1.378 . S
C205 C204 1.367 . S
C205 C213 1.433 1_565 S
C206 H202 0.929 . S
C206 C208 1.378 . S
C206 C210 1.350 . S
C207 C210 1.463 . S
C207 C212 1.346 1_545 S
C207 N215 1.431 . S
C208 H199 0.930 . S
C208 C206 1.378 . S
C208 C209 1.367 . S
C209 C208 1.367 . S
C209 C211 1.433 1_545 S
C210 C206 1.350 . S
C210 C207 1.463 . S
C210 N214 1.427 1_545 S
C211 H201 0.929 . S
C211 C209 1.433 1_565 S
C211 N214 1.384 . S
C212 H203 0.929 . S
C212 C204 1.378 . S
C212 C207 1.346 1_565 S
C213 H200 0.929 . S
C213 C205 1.433 1_545 S
C213 N215 1.384 . S
N214 C210 1.427 1_565 S
N214 C211 1.384 . S
N215 C207 1.431 . S
N215 C213 1.384 . S
C79 C22 1.572 . S
C83 C41 1.550 . S
C97 C8 1.584 1_565 S
C101 C61 1.547 . S
C115 C31 1.543 . S
C119 C50 1.553 . S
C133 C17 1.540 1_545 S
C137 C70 1.556 . S
C151 C30 1.583 . S
C155 C47 1.553 . S
C169 C27 1.583 . S
C173 C67 1.541 . S
C191 C44 1.552 . S
C187 C23 1.551 1_455 S
C205 C24 1.547 1_565 S
C209 C64 1.560 . S
