# Generated by pormake.
# Topology pyr, (3,6)-cn, num edge types: 1
# Building blocks:
#     Node 0, Type 0, BuildingBlock: PAMTOO_clean_linker_0, # of connection points: 3
#     Node 1, Type 0, BuildingBlock: PAMTOO_clean_linker_0, # of connection points: 3
#     Node 2, Type 0, BuildingBlock: PAMTOO_clean_linker_0, # of connection points: 3
#     Node 3, Type 0, BuildingBlock: PAMTOO_clean_linker_0, # of connection points: 3
#     Node 4, Type 0, BuildingBlock: PAMTOO_clean_linker_0, # of connection points: 3
#     Node 5, Type 0, BuildingBlock: PAMTOO_clean_linker_0, # of connection points: 3
#     Node 6, Type 0, BuildingBlock: PAMTOO_clean_linker_0, # of connection points: 3
#     Node 7, Type 0, BuildingBlock: PAMTOO_clean_linker_0, # of connection points: 3
#     Node 8, Type 1, BuildingBlock: MIFKUJ_clean_sbu_0, # of connection points: 6
#     Node 9, Type 1, BuildingBlock: MIFKUJ_clean_sbu_0, # of connection points: 6
#     Node 10, Type 1, BuildingBlock: MIFKUJ_clean_sbu_0, # of connection points: 6
#     Node 11, Type 1, BuildingBlock: MIFKUJ_clean_sbu_0, # of connection points: 6
#     Edge 12, Type (0, 1), None
#     Edge 13, Type (0, 1), None
#     Edge 14, Type (0, 1), None
#     Edge 15, Type (0, 1), None
#     Edge 16, Type (0, 1), None
#     Edge 17, Type (0, 1), None
#     Edge 18, Type (0, 1), None
#     Edge 19, Type (0, 1), None
#     Edge 20, Type (0, 1), None
#     Edge 21, Type (0, 1), None
#     Edge 22, Type (0, 1), None
#     Edge 23, Type (0, 1), None
#     Edge 24, Type (0, 1), None
#     Edge 25, Type (0, 1), None
#     Edge 26, Type (0, 1), None
#     Edge 27, Type (0, 1), None
#     Edge 28, Type (0, 1), None
#     Edge 29, Type (0, 1), None
#     Edge 30, Type (0, 1), None
#     Edge 31, Type (0, 1), None
#     Edge 32, Type (0, 1), None
#     Edge 33, Type (0, 1), None
#     Edge 34, Type (0, 1), None
#     Edge 35, Type (0, 1), None
# Relax obj value: 0.127
# Max RMSD: 0.228
# Mean RMSD: 0.140
data_MOF--net-pyr--node1-MIFKUJ_clean_sbu_0--node2-PAMTOO_clean_linker_0--edge1-none
_symmetry_space_group_name_H-M    P1
_symmetry_Int_Tables_number       1
_symmetry_cell_setting            triclinic
loop_
_symmetry_equiv_pos_as_xyz
'x, y, z'
_cell_length_a     17.968652
_cell_length_b     16.349849
_cell_length_c     16.1295
_cell_angle_alpha  84.134775
_cell_angle_beta   88.950854
_cell_angle_gamma 103.15591
loop_
_atom_site_label
_atom_site_type_symbol
_atom_site_fract_x
_atom_site_fract_y
_atom_site_fract_z
_atom_type_partial_charge
H0 H 0.0987 0.25364 0.32729 0.0
H1 H 0.23685 0.07822 0.40346 0.0
H2 H 0.30762 0.25762 0.18863 0.0
H3 H 0.27714 0.06268 0.18387 0.0
C4 C 0.31787 0.05517 0.23381 0.0
O5 O 0.33454 0.12574 0.27641 0.0
H6 H 0.29085 0.99902 0.27798 0.0
C7 C 0.15031 0.23099 0.31937 0.0
C8 C 0.20345 0.26768 0.2531 0.0
C9 C 0.16289 0.16353 0.3747 0.0
C10 C 0.22851 0.13264 0.36355 0.0
C11 C 0.2791 0.1653 0.2951 0.0
C12 C 0.26747 0.23338 0.24115 0.0
H13 H 0.37788 0.01944 0.82452 0.0
H14 H 0.29218 0.92068 0.59693 0.0
H15 H 0.46654 0.82507 0.72317 0.0
H16 H 0.49248 0.88667 0.55053 0.0
C17 C 0.44374 0.83664 0.5333 0.0
O18 O 0.38481 0.81839 0.5934 0.0
H19 H 0.4216 0.85854 0.4732 0.0
C20 C 0.3781 0.9774 0.77681 0.0
C21 C 0.42911 0.92285 0.78176 0.0
C22 C 0.3261 0.97562 0.71141 0.0
C23 C 0.3295 0.92202 0.64903 0.0
C24 C 0.38053 0.86877 0.65375 0.0
C25 C 0.42785 0.86731 0.72101 0.0
H26 H 0.76046 0.24259 0.98678 0.0
H27 H 0.56086 0.26608 0.84927 0.0
H28 H 0.77211 0.45006 0.79676 0.0
H29 H 0.66342 0.52836 0.77764 0.0
C30 C 0.614 0.48179 0.7567 0.0
O31 O 0.63163 0.40399 0.75499 0.0
H32 H 0.56334 0.47572 0.7994 0.0
C33 C 0.73261 0.2763 0.94006 0.0
C34 C 0.77432 0.35076 0.89523 0.0
C35 C 0.65577 0.24406 0.92284 0.0
C36 C 0.61989 0.29026 0.86387 0.0
C37 C 0.66238 0.36458 0.81854 0.0
C38 C 0.73964 0.39319 0.833 0.0
H39 H 0.77348 0.68395 0.47698 0.0
H40 H 0.85409 0.51524 0.32787 0.0
H41 H 0.99401 0.76245 0.34685 0.0
H42 H 0.03391 0.70236 0.18385 0.0
C43 C 0.98913 0.64282 0.19658 0.0
O44 O 0.98426 0.61886 0.28161 0.0
H45 H 0.93412 0.65562 0.17409 0.0
C46 C 0.81766 0.67067 0.43731 0.0
C47 C 0.88484 0.73334 0.41616 0.0
C48 C 0.80555 0.59201 0.40569 0.0
C49 C 0.86228 0.57545 0.35308 0.0
C50 C 0.93027 0.6364 0.33246 0.0
C51 C 0.94156 0.71536 0.36389 0.0
H52 H 0.83763 0.03079 0.71188 0.0
H53 H 0.75659 0.8209 0.90206 0.0
H54 H 0.96245 0.8364 0.75786 0.0
H55 H 0.87189 0.67143 0.78488 0.0
C56 C 0.84543 0.67047 0.84801 0.0
O57 O 0.86894 0.74851 0.87633 0.0
H58 H 0.78196 0.65413 0.84588 0.0
C59 C 0.84231 0.97114 0.74489 0.0
C60 C 0.90494 0.93695 0.72581 0.0
C61 C 0.78846 0.93058 0.80966 0.0
C62 C 0.7969 0.85372 0.85214 0.0
C63 C 0.85909 0.81987 0.83269 0.0
C64 C 0.91338 0.86207 0.77071 0.0
H65 H 0.71155 0.01972 0.23585 0.0
H66 H 0.61237 0.22003 0.30937 0.0
H67 H 0.78465 0.14359 0.4549 0.0
H68 H 0.67367 0.19819 0.5614 0.0
C69 C 0.64606 0.22839 0.50939 0.0
O70 O 0.69398 0.2451 0.43908 0.0
H71 H 0.59031 0.18627 0.4968 0.0
C72 C 0.70739 0.06579 0.27841 0.0
C73 C 0.75525 0.07456 0.34749 0.0
C74 C 0.65531 0.11844 0.26359 0.0
C75 C 0.65158 0.17874 0.31878 0.0
C76 C 0.69756 0.18626 0.38744 0.0
C77 C 0.74889 0.13488 0.40164 0.0
H78 H 0.35761 0.77741 0.03356 0.0
H79 H 0.35236 0.58404 0.23835 0.0
H80 H 0.54367 0.79591 0.20089 0.0
H81 H 0.57847 0.62513 0.26606 0.0
C82 C 0.52251 0.59784 0.30005 0.0
O83 O 0.48007 0.6582 0.29709 0.0
H84 H 0.49155 0.54124 0.27152 0.0
C85 C 0.38378 0.7515 0.08703 0.0
C86 C 0.45542 0.79548 0.11119 0.0
C87 C 0.34672 0.67371 0.13115 0.0
C88 C 0.38074 0.64235 0.20146 0.0
C89 C 0.45125 0.68634 0.22612 0.0
C90 C 0.48936 0.76184 0.18029 0.0
H91 H 0.06783 0.28728 0.87654 0.0
H92 H 0.23166 0.52697 0.83898 0.0
H93 H 0.22968 0.34519 0.66571 0.0
H94 H 0.3714 0.41883 0.68682 0.0
C95 C 0.36832 0.4792 0.71141 0.0
O96 O 0.29603 0.49304 0.70321 0.0
H97 H 0.38269 0.47483 0.77836 0.0
C98 C 0.11509 0.32987 0.84047 0.0
C99 C 0.14632 0.3044 0.76888 0.0
C100 C 0.14576 0.41038 0.86621 0.0
C101 C 0.20733 0.4651 0.81998 0.0
C102 C 0.2362 0.44127 0.74738 0.0
C103 C 0.20539 0.36209 0.72172 0.0
Zn104 Zn 0.12978 0.08201 0.63535 0.0
Zn105 Zn 0.94924 0.99398 0.4609 0.0
C106 C 0.11949 0.21835 0.74266 0.0
O107 O 0.05945 0.16547 0.78034 0.0
C108 C 0.89328 0.81722 0.44766 0.0
O109 O 0.84344 0.82872 0.50341 0.0
O110 O 0.217 0.01931 0.653 0.0
O111 O 0.03154 0.0138 0.69358 0.0
O112 O 0.95612 0.98494 0.58767 0.0
C113 C 0.2679 0.02815 0.70788 0.0
O114 O 0.26739 0.08257 0.7623 0.0
O115 O 0.15557 0.1952 0.68356 0.0
C116 C 0.81468 0.02529 0.36302 0.0
O117 O 0.83049 0.97676 0.30832 0.0
O118 O 0.85495 0.03597 0.42717 0.0
O119 O 0.03947 0.07788 0.404 0.0
O120 O 0.11335 0.10273 0.51108 0.0
O121 O 0.94616 0.88 0.41904 0.0
C122 C 0.96644 0.98282 0.66576 0.0
C123 C 0.10171 0.11476 0.4336 0.0
Zn124 Zn 0.60401 0.98484 0.95776 0.0
Zn125 Zn 0.50296 0.04948 0.06887 0.0
C126 C 0.48535 0.92261 0.84795 0.0
O127 O 0.51014 0.85395 0.86878 0.0
C128 C 0.6043 0.11323 0.19175 0.0
O129 O 0.57193 0.17613 0.1697 0.0
O130 O 0.68423 0.93687 0.90129 0.0
O131 O 0.65435 0.10371 0.97827 0.0
O132 O 0.54392 0.13971 0.97323 0.0
C133 C 0.72677 0.97029 0.83704 0.0
O134 O 0.71917 0.0429 0.79941 0.0
O135 O 0.51673 0.98991 0.87864 0.0
C136 C 0.38886 0.04108 0.19431 0.0
O137 O 0.41872 0.97908 0.22572 0.0
O138 O 0.41724 0.08461 0.12665 0.0
O139 O 0.45394 0.93113 0.04427 0.0
O140 O 0.56541 0.90057 0.05845 0.0
O141 O 0.58606 0.04709 0.1545 0.0
C142 C 0.61613 0.15936 0.96143 0.0
C143 C 0.49315 0.87829 0.06728 0.0
Zn144 Zn 0.58173 0.46284 0.50631 0.0
Zn145 Zn 0.54519 0.62559 0.55468 0.0
C146 C 0.73266 0.52883 0.42587 0.0
O147 O 0.71384 0.46288 0.38395 0.0
C148 C 0.42527 0.54952 0.66435 0.0
O149 O 0.46308 0.61098 0.70432 0.0
O150 O 0.58975 0.34675 0.48578 0.0
O151 O 0.5558 0.45695 0.62795 0.0
O152 O 0.61639 0.5885 0.64027 0.0
C153 C 0.63212 0.30999 0.53091 0.0
O154 O 0.67047 0.34875 0.5897 0.0
O155 O 0.68602 0.54014 0.48148 0.0
C156 C 0.47075 0.75789 0.52481 0.0
O157 O 0.43486 0.70345 0.47616 0.0
O158 O 0.52452 0.74 0.56836 0.0
O159 O 0.57202 0.63042 0.4318 0.0
O160 O 0.51164 0.49897 0.42255 0.0
O161 O 0.44549 0.54446 0.58937 0.0
C162 C 0.5956 0.51101 0.67032 0.0
C163 C 0.53642 0.57414 0.38904 0.0
Zn164 Zn 0.96207 0.50103 0.97926 0.0
Zn165 Zn 0.14142 0.47993 0.12462 0.0
C166 C 0.85348 0.38709 0.9134 0.0
O167 O 0.90243 0.42082 0.85092 0.0
C168 C 0.27212 0.62538 0.10632 0.0
O169 O 0.23237 0.65898 0.05041 0.0
O170 O 0.93494 0.58888 0.89558 0.0
O171 O 0.97514 0.55915 0.08323 0.0
O172 O 0.07115 0.5511 0.16571 0.0
C173 C 0.87043 0.60669 0.90698 0.0
O174 O 0.82629 0.57006 0.97237 0.0
O175 O 0.86916 0.40684 0.98624 0.0
C176 C 0.19267 0.34024 0.19514 0.0
O177 O 0.24423 0.37345 0.1349 0.0
O178 O 0.13616 0.37397 0.20408 0.0
O179 O 0.14568 0.44837 1.00498 0.0
O180 O 0.04661 0.45923 0.92751 0.0
O181 O 0.24494 0.55127 0.14185 0.0
C182 C 0.01128 0.57729 0.14815 0.0
C183 C 0.1106 0.44015 0.93736 0.0
loop_
_geom_bond_atom_site_label_1
_geom_bond_atom_site_label_2
_geom_bond_distance
_geom_bond_site_symmetry_2
_ccdc_geom_bond_type
H0 C7 0.929 . S
H1 C10 0.930 . S
H2 C12 0.929 . S
H3 C4 0.969 . S
C4 H3 0.969 . S
C4 O5 1.550 . S
C4 H6 0.973 . S
O5 C4 1.550 . S
O5 C11 1.412 . S
H6 C4 0.973 . S
C7 H0 0.929 . S
C7 C8 1.400 . S
C7 C9 1.364 . S
C8 C7 1.400 . S
C8 C12 1.377 . S
C9 C7 1.364 . S
C9 C10 1.374 . S
C10 H1 0.930 . S
C10 C9 1.374 . S
C10 C11 1.383 . S
C11 O5 1.412 . S
C11 C10 1.383 . S
C11 C12 1.394 . S
C12 H2 0.929 . S
C12 C8 1.377 . S
C12 C11 1.394 . S
H13 C20 0.929 . S
H14 C23 0.930 . S
H15 C25 0.929 . S
H16 C17 0.969 . S
C17 H16 0.969 . S
C17 O18 1.550 . S
C17 H19 0.973 . S
O18 C17 1.550 . S
O18 C24 1.412 . S
H19 C17 0.973 . S
C20 H13 0.929 . S
C20 C21 1.400 . S
C20 C22 1.364 . S
C21 C20 1.400 . S
C21 C25 1.377 . S
C22 C20 1.364 . S
C22 C23 1.374 . S
C23 H14 0.930 . S
C23 C22 1.374 . S
C23 C24 1.383 . S
C24 O18 1.412 . S
C24 C23 1.383 . S
C24 C25 1.394 . S
C25 H15 0.929 . S
C25 C21 1.377 . S
C25 C24 1.394 . S
H26 C33 0.929 . S
H27 C36 0.930 . S
H28 C38 0.929 . S
H29 C30 0.969 . S
C30 H29 0.969 . S
C30 O31 1.550 . S
C30 H32 0.973 . S
O31 C30 1.550 . S
O31 C37 1.412 . S
H32 C30 0.973 . S
C33 H26 0.929 . S
C33 C34 1.400 . S
C33 C35 1.364 . S
C34 C33 1.400 . S
C34 C38 1.377 . S
C35 C33 1.364 . S
C35 C36 1.374 . S
C36 H27 0.930 . S
C36 C35 1.374 . S
C36 C37 1.383 . S
C37 O31 1.412 . S
C37 C36 1.383 . S
C37 C38 1.394 . S
C38 H28 0.929 . S
C38 C34 1.377 . S
C38 C37 1.394 . S
H39 C46 0.929 . S
H40 C49 0.930 . S
H41 C51 0.929 1_455 S
H42 C43 0.969 . S
C43 H42 0.969 . S
C43 O44 1.550 . S
C43 H45 0.973 . S
O44 C43 1.550 . S
O44 C50 1.412 . S
H45 C43 0.973 . S
C46 H39 0.929 . S
C46 C47 1.400 . S
C46 C48 1.364 . S
C47 C46 1.400 . S
C47 C51 1.377 . S
C48 C46 1.364 . S
C48 C49 1.374 . S
C49 H40 0.930 . S
C49 C48 1.374 . S
C49 C50 1.383 . S
C50 O44 1.412 . S
C50 C49 1.383 . S
C50 C51 1.394 . S
C51 H41 0.929 1_655 S
C51 C47 1.377 . S
C51 C50 1.394 . S
H52 C59 0.929 . S
H53 C62 0.930 . S
H54 C64 0.929 . S
H55 C56 0.969 . S
C56 H55 0.969 . S
C56 O57 1.550 . S
C56 H58 0.973 . S
O57 C56 1.550 . S
O57 C63 1.412 . S
H58 C56 0.973 . S
C59 H52 0.929 . S
C59 C60 1.400 . S
C59 C61 1.364 . S
C60 C59 1.400 . S
C60 C64 1.377 . S
C61 C59 1.364 . S
C61 C62 1.374 . S
C62 H53 0.930 . S
C62 C61 1.374 . S
C62 C63 1.383 . S
C63 O57 1.412 . S
C63 C62 1.383 . S
C63 C64 1.394 . S
C64 H54 0.929 . S
C64 C60 1.377 . S
C64 C63 1.394 . S
H65 C72 0.929 . S
H66 C75 0.930 . S
H67 C77 0.929 . S
H68 C69 0.969 . S
C69 H68 0.969 . S
C69 O70 1.550 . S
C69 H71 0.973 . S
O70 C69 1.550 . S
O70 C76 1.412 . S
H71 C69 0.973 . S
C72 H65 0.929 . S
C72 C73 1.400 . S
C72 C74 1.364 . S
C73 C72 1.400 . S
C73 C77 1.377 . S
C74 C72 1.364 . S
C74 C75 1.374 . S
C75 H66 0.930 . S
C75 C74 1.374 . S
C75 C76 1.383 . S
C76 O70 1.412 . S
C76 C75 1.383 . S
C76 C77 1.394 . S
C77 H67 0.929 . S
C77 C73 1.377 . S
C77 C76 1.394 . S
H78 C85 0.929 . S
H79 C88 0.930 . S
H80 C90 0.929 . S
H81 C82 0.969 . S
C82 H81 0.969 . S
C82 O83 1.550 . S
C82 H84 0.973 . S
O83 C82 1.550 . S
O83 C89 1.412 . S
H84 C82 0.973 . S
C85 H78 0.929 . S
C85 C86 1.400 . S
C85 C87 1.364 . S
C86 C85 1.400 . S
C86 C90 1.377 . S
C87 C85 1.364 . S
C87 C88 1.374 . S
C88 H79 0.930 . S
C88 C87 1.374 . S
C88 C89 1.383 . S
C89 O83 1.412 . S
C89 C88 1.383 . S
C89 C90 1.394 . S
C90 H80 0.929 . S
C90 C86 1.377 . S
C90 C89 1.394 . S
H91 C98 0.929 . S
H92 C101 0.930 . S
H93 C103 0.929 . S
H94 C95 0.969 . S
C95 H94 0.969 . S
C95 O96 1.550 . S
C95 H97 0.973 . S
O96 C95 1.550 . S
O96 C102 1.412 . S
H97 C95 0.973 . S
C98 H91 0.929 . S
C98 C99 1.400 . S
C98 C100 1.364 . S
C99 C98 1.400 . S
C99 C103 1.377 . S
C100 C98 1.364 . S
C100 C101 1.374 . S
C101 H92 0.930 . S
C101 C100 1.374 . S
C101 C102 1.383 . S
C102 O96 1.412 . S
C102 C101 1.383 . S
C102 C103 1.394 . S
C103 H93 0.929 . S
C103 C99 1.377 . S
C103 C102 1.394 . S
Zn104 O110 1.969 1_545 S
Zn104 O111 1.965 1_545 S
Zn104 O115 2.024 . S
Zn104 O120 1.969 . S
Zn105 O112 1.969 . S
Zn105 O118 1.969 1_565 S
Zn105 O119 1.965 1_665 S
Zn105 O121 2.024 . S
C106 O107 1.229 . S
C106 O115 1.058 . S
O107 C106 1.229 . S
C108 O109 1.229 . S
C108 O121 1.058 . S
O109 C108 1.229 . S
O110 Zn104 1.969 1_565 S
O110 C113 1.267 . S
O111 Zn104 1.965 1_565 S
O111 C122 1.260 1_455 S
O112 Zn105 1.969 . S
O112 C122 1.258 . S
C113 O110 1.267 . S
C113 O114 1.228 . S
O114 C113 1.228 . S
O115 Zn104 2.024 . S
O115 C106 1.058 . S
C116 O117 1.228 . S
C116 O118 1.267 . S
O117 C116 1.228 . S
O118 Zn105 1.969 1_545 S
O118 C116 1.267 . S
O119 Zn105 1.965 1_445 S
O119 C123 1.260 . S
O120 Zn104 1.969 . S
O120 C123 1.258 . S
O121 Zn105 2.024 . S
O121 C108 1.058 . S
C122 O111 1.260 1_655 S
C122 O112 1.258 . S
C123 O119 1.260 . S
C123 O120 1.258 . S
Zn124 O130 1.969 . S
Zn124 O131 1.965 1_565 S
Zn124 O135 2.024 . S
Zn124 O140 1.969 1_556 S
Zn125 O132 1.969 . S
Zn125 O138 1.969 . S
Zn125 O139 1.965 1_545 S
Zn125 O141 2.024 . S
C126 O127 1.229 . S
C126 O135 1.058 . S
O127 C126 1.229 . S
C128 O129 1.229 . S
C128 O141 1.058 . S
O129 C128 1.229 . S
O130 Zn124 1.969 . S
O130 C133 1.267 . S
O131 Zn124 1.965 1_545 S
O131 C142 1.260 . S
O132 Zn125 1.969 . S
O132 C142 1.258 1_554 S
C133 O130 1.267 . S
C133 O134 1.228 . S
O134 C133 1.228 . S
O135 Zn124 2.024 . S
O135 C126 1.058 . S
C136 O137 1.228 . S
C136 O138 1.267 . S
O137 C136 1.228 . S
O138 Zn125 1.969 . S
O138 C136 1.267 . S
O139 Zn125 1.965 1_565 S
O139 C143 1.260 . S
O140 Zn124 1.969 1_554 S
O140 C143 1.258 . S
O141 Zn125 2.024 . S
O141 C128 1.058 . S
C142 O131 1.260 . S
C142 O132 1.258 1_556 S
C143 O139 1.260 . S
C143 O140 1.258 . S
Zn144 O150 1.969 . S
Zn144 O151 1.965 . S
Zn144 O155 2.024 . S
Zn144 O160 1.969 . S
Zn145 O152 1.969 . S
Zn145 O158 1.969 . S
Zn145 O159 1.965 . S
Zn145 O161 2.024 . S
C146 O147 1.229 . S
C146 O155 1.058 . S
O147 C146 1.229 . S
C148 O149 1.229 . S
C148 O161 1.058 . S
O149 C148 1.229 . S
O150 Zn144 1.969 . S
O150 C153 1.267 . S
O151 Zn144 1.965 . S
O151 C162 1.260 . S
O152 Zn145 1.969 . S
O152 C162 1.258 . S
C153 O150 1.267 . S
C153 O154 1.228 . S
O154 C153 1.228 . S
O155 Zn144 2.024 . S
O155 C146 1.058 . S
C156 O157 1.228 . S
C156 O158 1.267 . S
O157 C156 1.228 . S
O158 Zn145 1.969 . S
O158 C156 1.267 . S
O159 Zn145 1.965 . S
O159 C163 1.260 . S
O160 Zn144 1.969 . S
O160 C163 1.258 . S
O161 Zn145 2.024 . S
O161 C148 1.058 . S
C162 O151 1.260 . S
C162 O152 1.258 . S
C163 O159 1.260 . S
C163 O160 1.258 . S
Zn164 O170 1.969 . S
Zn164 O171 1.965 1_656 S
Zn164 O175 2.024 . S
Zn164 O180 1.969 1_655 S
Zn165 O172 1.969 . S
Zn165 O178 1.969 . S
Zn165 O179 1.965 . S
Zn165 O181 2.024 . S
C166 O167 1.229 . S
C166 O175 1.058 . S
O167 C166 1.229 . S
C168 O169 1.229 . S
C168 O181 1.058 . S
O169 C168 1.229 . S
O170 Zn164 1.969 . S
O170 C173 1.267 . S
O171 Zn164 1.965 1_454 S
O171 C182 1.260 1_455 S
O172 Zn165 1.969 . S
O172 C182 1.258 1_455 S
C173 O170 1.267 . S
C173 O174 1.228 . S
O174 C173 1.228 . S
O175 Zn164 2.024 . S
O175 C166 1.058 . S
C176 O177 1.228 . S
C176 O178 1.267 . S
O177 C176 1.228 . S
O178 Zn165 1.969 . S
O178 C176 1.267 . S
O179 Zn165 1.965 . S
O179 C183 1.260 1_554 S
O180 Zn164 1.969 1_455 S
O180 C183 1.258 . S
O181 Zn165 2.024 . S
O181 C168 1.058 . S
C182 O171 1.260 1_655 S
C182 O172 1.258 1_655 S
C183 O179 1.260 1_556 S
C183 O180 1.258 . S
C9 C123 1.888 . S
C21 C126 1.887 . S
C162 C30 1.814 . S
C43 C182 1.950 . S
C136 C4 1.478 . S
C113 C22 2.166 . S
C166 C34 1.470 . S
C146 C48 1.197 . S
C8 C176 1.390 . S
C142 C35 2.057 . S
C47 C108 1.989 . S
C17 C156 1.321 . S
C122 C60 1.584 . S
C74 C128 1.492 . S
C82 C163 1.725 . S
C100 C183 2.445 . S
C61 C133 1.996 . S
C116 C73 1.508 . S
C168 C87 2.113 . S
C148 C95 1.476 . S
C56 C173 1.535 . S
C143 C86 2.034 . S
C106 C99 2.372 . S
C69 C153 1.179 . S
