# Generated by pormake.
# Topology tsx, (6,3)-cn, num edge types: 1
# Building blocks:
#     Node 0, Type 0, BuildingBlock: LEVNOQ01_clean_sbu_1, # of connection points: 6
#     Node 1, Type 0, BuildingBlock: LEVNOQ01_clean_sbu_1, # of connection points: 6
#     Node 2, Type 1, BuildingBlock: ESEHIV_clean_linker_0, # of connection points: 3
#     Node 3, Type 1, BuildingBlock: ESEHIV_clean_linker_0, # of connection points: 3
#     Node 4, Type 1, BuildingBlock: ESEHIV_clean_linker_0, # of connection points: 3
#     Node 5, Type 1, BuildingBlock: ESEHIV_clean_linker_0, # of connection points: 3
#     Edge 6, Type (0, 1), BuildingBlock: EYOCIG_clean_linker_4, # of connection points: 2
#     Edge 7, Type (0, 1), BuildingBlock: EYOCIG_clean_linker_4, # of connection points: 2
#     Edge 8, Type (0, 1), BuildingBlock: EYOCIG_clean_linker_4, # of connection points: 2
#     Edge 9, Type (0, 1), BuildingBlock: EYOCIG_clean_linker_4, # of connection points: 2
#     Edge 10, Type (0, 1), BuildingBlock: EYOCIG_clean_linker_4, # of connection points: 2
#     Edge 11, Type (0, 1), BuildingBlock: EYOCIG_clean_linker_4, # of connection points: 2
#     Edge 12, Type (0, 1), BuildingBlock: EYOCIG_clean_linker_4, # of connection points: 2
#     Edge 13, Type (0, 1), BuildingBlock: EYOCIG_clean_linker_4, # of connection points: 2
#     Edge 14, Type (0, 1), BuildingBlock: EYOCIG_clean_linker_4, # of connection points: 2
#     Edge 15, Type (0, 1), BuildingBlock: EYOCIG_clean_linker_4, # of connection points: 2
#     Edge 16, Type (0, 1), BuildingBlock: EYOCIG_clean_linker_4, # of connection points: 2
#     Edge 17, Type (0, 1), BuildingBlock: EYOCIG_clean_linker_4, # of connection points: 2
# Relax obj value: 0.131
# Max RMSD: 0.158
# Mean RMSD: 0.119
data_MOF--net-tsx--node1-LEVNOQ01_clean_sbu_1--node2-ESEHIV_clean_linker_0--edge1-EYOCIG_clean_linker_4
_symmetry_space_group_name_H-M    P1
_symmetry_Int_Tables_number       1
_symmetry_cell_setting            triclinic
loop_
_symmetry_equiv_pos_as_xyz
'x, y, z'
_cell_length_a     12.989668
_cell_length_b     16.227214
_cell_length_c     28.71842
_cell_angle_alpha  97.128436
_cell_angle_beta   95.238722
_cell_angle_gamma 92.637185
loop_
_atom_site_label
_atom_site_type_symbol
_atom_site_fract_x
_atom_site_fract_y
_atom_site_fract_z
_atom_type_partial_charge
O0 O 0.19773 0.01695 0.09246 0.0
Mg1 Mg 0.28389 0.0333 0.03472 0.0
O2 O 0.03922 0.0037 0.05383 0.0
Mg3 Mg 0.0536 0.01849 -0.02522 0.0
O4 O 0.19796 0.10535 -0.00514 0.0
O5 O 0.355 0.14827 0.02781 0.0
O6 O 0.07241 0.0317 0.89555 0.0
O7 O 0.95821 0.13791 -0.01861 0.0
Mg8 Mg 0.83441 -0.01309 0.90425 0.0
O9 O 0.90659 0.93506 0.95737 0.0
O10 O 0.93039 0.98036 0.8496 0.0
O11 O 0.81148 0.10948 0.93367 0.0
O12 O 0.75393 0.884 0.92232 0.0
C13 C 0.23968 0.87477 -0.02973 0.0
C14 C 0.10025 0.00483 0.09149 0.0
C15 C 0.27121 0.16331 0.00354 0.0
C16 C 0.023 0.01037 0.85494 0.0
C17 C 0.87131 0.15883 0.963 0.0
C18 C 0.82885 0.88172 0.95466 0.0
O19 O 0.31223 0.92234 -0.00709 0.0
O20 O 0.14706 0.8977 0.96412 0.0
O21 O 0.70064 0.51936 0.59194 0.0
Mg22 Mg 0.78591 0.53548 0.53388 0.0
O23 O 0.54148 0.50617 0.55392 0.0
Mg24 Mg 0.55489 0.52 0.47471 0.0
O25 O 0.69908 0.60727 0.49422 0.0
O26 O 0.85647 0.65047 0.52661 0.0
O27 O 0.57357 0.53217 0.39539 0.0
O28 O 0.45905 0.63916 0.48103 0.0
Mg29 Mg 0.3366 0.48706 0.40414 0.0
O30 O 0.40791 0.43612 0.45788 0.0
O31 O 0.43245 0.47905 0.34945 0.0
O32 O 0.31315 0.60997 0.43281 0.0
O33 O 0.25546 0.38489 0.42253 0.0
C34 C 0.74105 0.37647 0.4701 0.0
C35 C 0.6032 0.50746 0.59138 0.0
C36 C 0.77222 0.66536 0.50264 0.0
C37 C 0.52476 0.50969 0.35478 0.0
C38 C 0.37228 0.65965 0.46226 0.0
C39 C 0.32987 0.38302 0.45516 0.0
O40 O 0.81401 0.42434 0.49216 0.0
O41 O 0.64834 0.39929 0.46434 0.0
H42 H 0.92187 0.06996 0.3151 0.0
H43 H 0.15565 0.89159 0.32484 0.0
H44 H 0.03607 0.00475 0.45031 0.0
C45 C 0.9711 0.03351 0.3362 0.0
C46 C 0.97069 0.0437 0.38521 0.0
C47 C 0.03697 0.97838 0.31437 0.0
C48 C 0.10326 0.93332 0.34169 0.0
C49 C 0.10297 0.94357 0.39093 0.0
C50 C 0.03577 -0.00216 0.41248 0.0
H51 H 0.9135 0.96603 0.6198 0.0
H52 H 0.15786 0.15858 0.63958 0.0
H53 H 0.98494 0.09657 0.50402 0.0
C54 C 0.95753 0.01431 0.60592 0.0
C55 C 0.94056 0.02465 0.5581 0.0
C56 C 0.03428 0.06402 0.63541 0.0
C57 C 0.09563 0.12257 0.61711 0.0
C58 C 0.07944 0.13264 0.56952 0.0
C59 C 0.99868 0.0867 0.54049 0.0
H60 H 0.42579 0.57161 0.81524 0.0
H61 H 0.6601 0.39365 0.82494 0.0
H62 H 0.53792 0.50444 0.95026 0.0
C63 C 0.47491 0.53505 0.83631 0.0
C64 C 0.47359 0.54444 0.88527 0.0
C65 C 0.54133 0.4804 0.81449 0.0
C66 C 0.60738 0.43508 0.84178 0.0
C67 C 0.6062 0.44455 0.89098 0.0
C68 C 0.53841 0.4983 0.91249 0.0
H69 H 0.41636 0.46324 0.11992 0.0
H70 H 0.66136 0.65521 0.13885 0.0
H71 H 0.48497 0.59446 0.00403 0.0
C72 C 0.46022 0.51144 0.10589 0.0
C73 C 0.44223 0.52202 0.05814 0.0
C74 C 0.53754 0.56097 0.13512 0.0
C75 C 0.59869 0.61936 0.11659 0.0
C76 C 0.58143 0.62967 0.06908 0.0
C77 C 0.49985 0.58415 0.04037 0.0
C78 C 0.27602 0.32076 -0.00566 0.0
C79 C 0.25791 0.24704 -0.0062 0.0
C80 C 0.32154 0.40207 0.00761 0.0
C81 C 0.37688 0.46058 0.02682 0.0
C82 C 0.30069 0.72833 0.93754 0.0
C83 C 0.26495 0.79328 0.95096 0.0
C84 C 0.3558 0.65889 0.922 0.0
C85 C 0.41072 0.60594 0.90709 0.0
C86 C 0.77949 0.77831 0.0121 0.0
C87 C 0.81598 0.82778 -0.01049 0.0
C88 C 0.71512 0.72515 0.03333 0.0
C89 C 0.65373 0.68147 0.04928 0.0
C90 C 0.79736 0.30426 0.96251 0.0
C91 C 0.84388 0.24357 -0.03106 0.0
C92 C 0.73305 0.36074 0.94231 0.0
C93 C 0.67458 0.39957 0.91965 0.0
C94 C 0.77598 0.82292 0.49375 0.0
C95 C 0.75828 0.74913 0.4931 0.0
C96 C 0.82102 0.90435 0.50721 0.0
C97 C 0.87593 0.96298 0.52659 0.0
C98 C 0.80073 0.22942 0.43765 0.0
C99 C 0.76581 0.29471 0.45104 0.0
C100 C 0.85472 0.15941 0.42203 0.0
C101 C 0.90881 0.10593 0.40703 0.0
C102 C 0.27892 0.28088 0.51303 0.0
C103 C 0.3161 0.3298 0.4903 0.0
C104 C 0.21397 0.22806 0.53421 0.0
C105 C 0.15225 0.18441 0.55 0.0
C106 C 0.29647 0.80445 0.46201 0.0
C107 C 0.34377 0.7441 0.4683 0.0
C108 C 0.23116 0.86056 0.44209 0.0
C109 C 0.17201 0.89912 0.41961 0.0
C110 C 0.04287 0.97971 0.17405 0.0
C111 C 0.05988 -0.0097 0.13466 0.0
C112 C 0.03783 0.97234 0.22216 0.0
C113 C 0.04009 0.97298 0.26419 0.0
C114 C 0.07998 0.03546 0.77315 0.0
C115 C 0.06698 0.02766 0.81326 0.0
C116 C 0.07136 0.04439 0.72496 0.0
C117 C 0.05399 0.05297 0.6841 0.0
C118 C 0.54734 0.48276 0.67426 0.0
C119 C 0.56373 0.49319 0.63478 0.0
C120 C 0.54268 0.47522 0.72236 0.0
C121 C 0.54479 0.47542 0.76436 0.0
C122 C 0.58282 0.53347 0.27296 0.0
C123 C 0.56906 0.52633 0.31307 0.0
C124 C 0.57487 0.54186 0.22472 0.0
C125 C 0.55749 0.5503 0.18384 0.0
loop_
_geom_bond_atom_site_label_1
_geom_bond_atom_site_label_2
_geom_bond_distance
_geom_bond_site_symmetry_2
_ccdc_geom_bond_type
O0 Mg1 1.990 . S
O0 C14 1.253 . S
Mg1 O0 1.990 . S
Mg1 O4 2.180 . S
Mg1 O5 2.117 . S
Mg1 O19 2.030 1_545 S
O2 Mg3 2.057 1_554 S
O2 C14 1.260 . S
Mg3 O2 2.057 1_556 S
Mg3 O4 2.097 1_556 S
Mg3 O6 2.094 . S
Mg3 O7 2.073 1_456 S
Mg3 O9 2.101 1_445 S
Mg3 O20 2.079 1_545 S
O4 Mg1 2.180 . S
O4 Mg3 2.097 1_554 S
O4 C15 1.279 . S
O5 Mg1 2.117 . S
O5 C15 1.250 . S
O6 Mg3 2.094 . S
O6 C16 1.264 . S
O7 Mg3 2.073 1_654 S
O7 C17 1.260 1_554 S
Mg8 O9 2.173 1_545 S
Mg8 O10 2.036 . S
Mg8 O11 2.001 . S
Mg8 O12 2.108 1_545 S
O9 Mg3 2.101 1_665 S
O9 Mg8 2.173 1_565 S
O9 C18 1.279 1_556 S
O10 Mg8 2.036 . S
O10 C16 1.248 1_655 S
O11 Mg8 2.001 . S
O11 C17 1.253 . S
O12 Mg8 2.108 1_565 S
O12 C18 1.250 1_556 S
C13 O19 1.248 . S
C13 O20 1.264 1_554 S
C14 O0 1.253 . S
C14 O2 1.260 . S
C15 O4 1.279 . S
C15 O5 1.250 . S
C16 O6 1.264 . S
C16 O10 1.248 1_455 S
C17 O7 1.260 1_556 S
C17 O11 1.253 . S
C18 O9 1.279 1_554 S
C18 O12 1.250 1_554 S
O19 Mg1 2.030 1_565 S
O19 C13 1.248 . S
O20 Mg3 2.079 1_565 S
O20 C13 1.264 1_556 S
O21 Mg22 1.990 . S
O21 C35 1.253 . S
Mg22 O21 1.990 . S
Mg22 O25 2.180 . S
Mg22 O26 2.117 . S
Mg22 O40 2.030 . S
O23 Mg24 2.072 . S
O23 C35 1.260 . S
Mg24 O23 2.072 . S
Mg24 O25 2.099 . S
Mg24 O27 2.079 . S
Mg24 O28 2.072 . S
Mg24 O30 2.099 . S
Mg24 O41 2.079 . S
O25 Mg22 2.180 . S
O25 Mg24 2.099 . S
O25 C36 1.279 . S
O26 Mg22 2.117 . S
O26 C36 1.250 . S
O27 Mg24 2.079 . S
O27 C37 1.264 . S
O28 Mg24 2.072 . S
O28 C38 1.260 . S
Mg29 O30 2.180 . S
Mg29 O31 2.030 . S
Mg29 O32 1.990 . S
Mg29 O33 2.117 . S
O30 Mg24 2.099 . S
O30 Mg29 2.180 . S
O30 C39 1.279 . S
O31 Mg29 2.030 . S
O31 C37 1.248 . S
O32 Mg29 1.990 . S
O32 C38 1.253 . S
O33 Mg29 2.117 . S
O33 C39 1.250 . S
C34 O40 1.248 . S
C34 O41 1.264 . S
C35 O21 1.253 . S
C35 O23 1.260 . S
C36 O25 1.279 . S
C36 O26 1.250 . S
C37 O27 1.264 . S
C37 O31 1.248 . S
C38 O28 1.260 . S
C38 O32 1.253 . S
C39 O30 1.279 . S
C39 O33 1.250 . S
O40 Mg22 2.030 . S
O40 C34 1.248 . S
O41 Mg24 2.079 . S
O41 C34 1.264 . S
H42 C45 0.931 . S
H43 C48 0.928 . S
H44 C50 0.930 . S
C45 H42 0.931 . S
C45 C46 1.413 . S
C45 C47 1.360 1_645 S
C46 C45 1.413 . S
C46 C50 1.429 1_655 S
C47 C45 1.360 1_465 S
C47 C48 1.372 . S
C48 H43 0.928 . S
C48 C47 1.372 . S
C48 C49 1.404 . S
C49 C48 1.404 . S
C49 C50 1.391 1_565 S
C50 H44 0.930 . S
C50 C46 1.429 1_455 S
C50 C49 1.391 1_545 S
H51 C54 0.931 1_565 S
H52 C57 0.928 . S
H53 C59 0.930 . S
C54 H51 0.931 1_545 S
C54 C55 1.413 . S
C54 C56 1.360 1_655 S
C55 C54 1.413 . S
C55 C59 1.429 . S
C56 C54 1.360 1_455 S
C56 C57 1.372 . S
C57 H52 0.928 . S
C57 C56 1.372 . S
C57 C58 1.404 . S
C58 C57 1.404 . S
C58 C59 1.391 1_455 S
C59 H53 0.930 . S
C59 C55 1.429 . S
C59 C58 1.391 1_655 S
H60 C63 0.931 . S
H61 C66 0.928 . S
H62 C68 0.930 1_554 S
C63 H60 0.931 . S
C63 C64 1.413 . S
C63 C65 1.360 . S
C64 C63 1.413 . S
C64 C68 1.429 . S
C65 C63 1.360 . S
C65 C66 1.372 . S
C66 H61 0.928 . S
C66 C65 1.372 . S
C66 C67 1.404 . S
C67 C66 1.404 . S
C67 C68 1.391 . S
C68 H62 0.930 1_556 S
C68 C64 1.429 . S
C68 C67 1.391 . S
H69 C72 0.931 . S
H70 C75 0.928 . S
H71 C77 0.930 . S
C72 H69 0.931 . S
C72 C73 1.413 . S
C72 C74 1.360 . S
C73 C72 1.413 . S
C73 C77 1.429 . S
C74 C72 1.360 . S
C74 C75 1.372 . S
C75 H70 0.928 . S
C75 C74 1.372 . S
C75 C76 1.404 . S
C76 C75 1.404 . S
C76 C77 1.391 . S
C77 H71 0.930 . S
C77 C73 1.429 . S
C77 C76 1.391 . S
C78 C79 1.170 . S
C78 C80 1.380 . S
C79 C78 1.170 . S
C80 C78 1.380 . S
C80 C81 1.170 . S
C81 C80 1.170 . S
C82 C83 1.170 . S
C82 C84 1.380 . S
C83 C82 1.170 . S
C84 C82 1.380 . S
C84 C85 1.170 . S
C85 C84 1.170 . S
C86 C87 1.170 . S
C86 C88 1.380 . S
C87 C86 1.170 . S
C88 C86 1.380 . S
C88 C89 1.170 . S
C89 C88 1.170 . S
C90 C91 1.170 . S
C90 C92 1.380 . S
C91 C90 1.170 . S
C92 C90 1.380 . S
C92 C93 1.170 . S
C93 C92 1.170 . S
C94 C95 1.170 . S
C94 C96 1.380 . S
C95 C94 1.170 . S
C96 C94 1.380 . S
C96 C97 1.170 . S
C97 C96 1.170 . S
C98 C99 1.170 . S
C98 C100 1.380 . S
C99 C98 1.170 . S
C100 C98 1.380 . S
C100 C101 1.170 . S
C101 C100 1.170 . S
C102 C103 1.170 . S
C102 C104 1.380 . S
C103 C102 1.170 . S
C104 C102 1.380 . S
C104 C105 1.170 . S
C105 C104 1.170 . S
C106 C107 1.170 . S
C106 C108 1.380 . S
C107 C106 1.170 . S
C108 C106 1.380 . S
C108 C109 1.170 . S
C109 C108 1.170 . S
C110 C111 1.172 . S
C110 C112 1.379 1_545 S
C111 C110 1.172 . S
C112 C110 1.379 1_565 S
C112 C113 1.170 . S
C113 C112 1.170 . S
C114 C115 1.170 . S
C114 C116 1.380 . S
C115 C114 1.170 . S
C116 C114 1.380 . S
C116 C117 1.170 . S
C117 C116 1.170 . S
C118 C119 1.170 . S
C118 C120 1.380 . S
C119 C118 1.170 . S
C120 C118 1.380 . S
C120 C121 1.170 . S
C121 C120 1.170 . S
C122 C123 1.170 . S
C122 C124 1.380 . S
C123 C122 1.170 . S
C124 C122 1.380 . S
C124 C125 1.170 . S
C125 C124 1.170 . S
C81 C73 1.404 . S
C79 C15 1.200 . S
C83 C13 1.466 1_556 S
C85 C64 1.458 . S
C87 C18 1.291 . S
C89 C76 1.453 . S
C91 C17 1.334 . S
C93 C67 1.400 . S
C95 C36 1.220 . S
C97 C55 1.420 1_565 S
C99 C34 1.467 . S
C101 C46 1.459 . S
C105 C58 1.432 . S
C103 C39 1.299 . S
C109 C49 1.413 . S
C107 C38 1.363 . S
C111 C14 1.514 . S
C113 C47 1.547 . S
C115 C16 1.366 . S
C117 C56 1.438 . S
C121 C65 1.548 . S
C119 C35 1.478 . S
C123 C37 1.389 . S
C125 C74 1.431 . S
