# Generated by pormake.
# Topology tsx, (6,3)-cn, num edge types: 1
# Building blocks:
#     Node 0, Type 0, BuildingBlock: VOLQOD_clean_sbu_1, # of connection points: 6
#     Node 1, Type 0, BuildingBlock: VOLQOD_clean_sbu_1, # of connection points: 6
#     Node 2, Type 1, BuildingBlock: ESEHIV_clean_linker_0, # of connection points: 3
#     Node 3, Type 1, BuildingBlock: ESEHIV_clean_linker_0, # of connection points: 3
#     Node 4, Type 1, BuildingBlock: ESEHIV_clean_linker_0, # of connection points: 3
#     Node 5, Type 1, BuildingBlock: ESEHIV_clean_linker_0, # of connection points: 3
#     Edge 6, Type (0, 1), BuildingBlock: AJUNOK_clean_linker_0, # of connection points: 2
#     Edge 7, Type (0, 1), BuildingBlock: AJUNOK_clean_linker_0, # of connection points: 2
#     Edge 8, Type (0, 1), BuildingBlock: AJUNOK_clean_linker_0, # of connection points: 2
#     Edge 9, Type (0, 1), BuildingBlock: AJUNOK_clean_linker_0, # of connection points: 2
#     Edge 10, Type (0, 1), BuildingBlock: AJUNOK_clean_linker_0, # of connection points: 2
#     Edge 11, Type (0, 1), BuildingBlock: AJUNOK_clean_linker_0, # of connection points: 2
#     Edge 12, Type (0, 1), BuildingBlock: AJUNOK_clean_linker_0, # of connection points: 2
#     Edge 13, Type (0, 1), BuildingBlock: AJUNOK_clean_linker_0, # of connection points: 2
#     Edge 14, Type (0, 1), BuildingBlock: AJUNOK_clean_linker_0, # of connection points: 2
#     Edge 15, Type (0, 1), BuildingBlock: AJUNOK_clean_linker_0, # of connection points: 2
#     Edge 16, Type (0, 1), BuildingBlock: AJUNOK_clean_linker_0, # of connection points: 2
#     Edge 17, Type (0, 1), BuildingBlock: AJUNOK_clean_linker_0, # of connection points: 2
# Relax obj value: 0.075
# Max RMSD: 0.108
# Mean RMSD: 0.082
data_MOF--net-tsx--node1-VOLQOD_clean_sbu_1--node2-ESEHIV_clean_linker_0--edge1-AJUNOK_clean_linker_0
_symmetry_space_group_name_H-M    P1
_symmetry_Int_Tables_number       1
_symmetry_cell_setting            triclinic
loop_
_symmetry_equiv_pos_as_xyz
'x, y, z'
_cell_length_a     14.074899
_cell_length_b     14.511926
_cell_length_c     28.629585
_cell_angle_alpha  91.155345
_cell_angle_beta   89.942437
_cell_angle_gamma 90.12497
loop_
_atom_site_label
_atom_site_type_symbol
_atom_site_fract_x
_atom_site_fract_y
_atom_site_fract_z
_atom_type_partial_charge
O0 O 0.0854 0.95435 0.10608 0.0
Zn1 Zn 0.13128 0.96141 0.03923 0.0
O2 O 0.02584 0.98173 -0.00233 0.0
Zn3 Zn -0.00104 0.87195 0.96038 0.0
Zn4 Zn 0.91589 0.01504 0.03423 0.0
Zn5 Zn 0.05674 0.08095 0.95621 0.0
O6 O 0.99345 0.90407 0.89172 0.0
O7 O 0.08507 0.02966 0.89188 0.0
O8 O 0.20574 0.84831 0.01835 0.0
O9 O 0.10846 0.78399 0.96581 0.0
O10 O 0.87935 0.80753 0.98289 0.0
O11 O 0.82442 0.91045 0.03432 0.0
O12 O 0.84754 0.1233 0.00708 0.0
O13 O 0.21668 0.07193 0.03897 0.0
O14 O 0.94289 0.16297 0.94904 0.0
O15 O 0.16451 0.15937 0.98186 0.0
C16 C 0.01471 0.99428 0.12572 0.0
C17 C 0.04335 0.96344 0.87023 0.0
C18 C 0.81791 0.83269 0.01334 0.0
C19 C 0.18587 0.78403 0.98885 0.0
C20 C 0.86572 0.17271 0.97186 0.0
C21 C 0.22153 0.14541 0.01554 0.0
O22 O 0.94965 0.03245 0.10196 0.0
O23 O 0.56559 0.48759 0.60241 0.0
Zn24 Zn 0.60303 0.50303 0.53531 0.0
O25 O 0.49232 0.53341 0.49916 0.0
Zn26 Zn 0.4602 0.42872 0.45937 0.0
Zn27 Zn 0.38761 0.55916 0.54133 0.0
Zn28 Zn 0.51749 0.64061 0.462 0.0
O29 O 0.44392 0.4687 0.39342 0.0
O30 O 0.52163 0.60291 0.3937 0.0
O31 O 0.66955 0.38966 0.50982 0.0
O32 O 0.56857 0.34019 0.45565 0.0
O33 O 0.34861 0.3574 0.48466 0.0
O34 O 0.30321 0.44726 0.54406 0.0
O35 O 0.30998 0.66866 0.51993 0.0
O36 O 0.69655 0.60751 0.53398 0.0
O37 O 0.40775 0.72819 0.46755 0.0
O38 O 0.63869 0.70616 0.48302 0.0
C39 C 0.50301 0.53084 0.62639 0.0
C40 C 0.48204 0.53548 0.37194 0.0
C41 C 0.29529 0.37291 0.51996 0.0
C42 C 0.64679 0.33257 0.47735 0.0
C43 C 0.33 0.73043 0.49035 0.0
C44 C 0.70228 0.6831 0.51229 0.0
O45 O 0.43652 0.57618 0.60723 0.0
H46 H 0.87599 0.10546 0.33048 0.0
H47 H 0.10478 0.91021 0.3395 0.0
H48 H 0.96836 0.01219 0.46409 0.0
C49 C 0.92119 0.0616 0.35107 0.0
C50 C 0.91429 0.06551 0.39997 0.0
C51 C 0.98811 0.00409 0.3287 0.0
C52 C 0.05134 0.95347 0.35612 0.0
C53 C 0.04547 0.95747 0.40507 0.0
C54 C 0.97488 0.01104 0.42663 0.0
H55 H 0.96064 0.85695 0.65535 0.0
H56 H 0.13418 0.1006 0.66796 0.0
H57 H 0.02703 0.0137 0.53403 0.0
C58 C 0.99677 0.91453 0.63951 0.0
C59 C 0.98694 0.92837 0.59138 0.0
C60 C 0.04992 0.97608 0.66759 0.0
C61 C 0.09455 0.05155 0.64661 0.0
C62 C 0.08667 0.06551 0.59834 0.0
C63 C 0.03351 0.00301 0.57098 0.0
H64 H 0.39343 0.58193 0.84254 0.0
H65 H 0.63353 0.40049 0.82563 0.0
H66 H 0.5254 0.46565 0.96245 0.0
C67 C 0.44844 0.53916 0.85721 0.0
C68 C 0.4533 0.53038 0.90573 0.0
C69 C 0.51436 0.49417 0.82788 0.0
C70 C 0.58264 0.43631 0.84783 0.0
C71 C 0.58543 0.42377 0.8963 0.0
C72 C 0.52149 0.47253 0.92511 0.0
H73 H 0.38815 0.41084 0.16379 0.0
H74 H 0.58391 0.63841 0.16266 0.0
H75 H 0.49244 0.51094 0.03355 0.0
C76 C 0.43266 0.45819 0.14472 0.0
C77 C 0.43772 0.4502 0.09592 0.0
C78 C 0.48565 0.52531 0.16913 0.0
C79 C 0.54068 0.58794 0.14398 0.0
C80 C 0.54388 0.58297 0.09493 0.0
C81 C 0.49078 0.51483 0.07113 0.0
C82 C 0.27771 0.31002 0.01447 0.0
C83 C 0.28717 0.21995 0.03156 0.0
C84 C 0.32906 0.38415 0.03423 0.0
C85 C 0.39149 0.37081 0.07173 0.0
H86 H 0.22746 0.3243 0.98693 0.0
H87 H 0.31689 0.45283 0.02147 0.0
S88 S 0.45505 0.14746 0.12401 0.0
N89 N 0.37311 0.12096 0.08477 0.0
N90 N 0.46967 0.26002 0.12113 0.0
C91 C 0.40619 0.28067 0.08713 0.0
C92 C 0.35405 0.20536 0.06726 0.0
C93 C 0.22804 0.62631 0.95901 0.0
C94 C 0.25769 0.71309 0.97659 0.0
C95 C 0.29305 0.56429 0.9387 0.0
C96 C 0.38979 0.58681 0.93556 0.0
H97 H 0.15344 0.60778 0.95914 0.0
H98 H 0.267 0.50001 0.92359 0.0
S99 S 0.50375 0.80479 0.97476 0.0
N100 N 0.39094 0.8176 0.9893 0.0
N101 N 0.51272 0.70037 0.95121 0.0
C102 C 0.42118 0.67129 0.95452 0.0
C103 C 0.35519 0.73458 0.97518 0.0
C104 C 0.6719 0.80082 0.06012 0.0
C105 C 0.74195 0.76858 0.02855 0.0
C106 C 0.60611 0.74082 0.08004 0.0
C107 C 0.60741 0.64604 0.06929 0.0
H108 H 0.66864 0.87299 0.0704 0.0
H109 H 0.55463 0.76869 0.10465 0.0
S110 S 0.77643 0.52544 -0.01012 0.0
N111 N 0.80775 0.63486 0.98748 0.0
N112 N 0.68449 0.52191 0.0256 0.0
C113 C 0.67523 0.61276 0.03707 0.0
C114 C 0.74235 0.67402 0.01657 0.0
C115 C 0.81957 0.30604 0.92259 0.0
C116 C 0.7936 0.23869 0.95501 0.0
C117 C 0.75193 0.36535 0.9037 0.0
C118 C 0.65578 0.36024 0.91677 0.0
H119 H 0.8928 0.313 0.9115 0.0
H120 H 0.77536 0.41654 0.87916 0.0
S121 S 0.54886 0.19064 -0.00354 0.0
N122 N 0.66341 0.167 -0.00298 0.0
N123 N 0.53664 0.27892 0.96156 0.0
C124 C 0.62847 0.29287 0.94872 0.0
C125 C 0.69724 0.23216 0.96787 0.0
C126 C 0.86303 0.71247 0.54656 0.0
C127 C 0.78133 0.74712 0.5246 0.0
C128 C 0.93208 0.7716 0.56576 0.0
C129 C 0.92236 0.86772 0.56369 0.0
H130 H 0.87224 0.63893 0.55047 0.0
H131 H 0.99198 0.74196 0.5838 0.0
S132 S 0.72478 0.99413 0.5085 0.0
N133 N 0.69749 0.88435 0.5 0.0
N134 N 0.8272 0.99538 0.53657 0.0
C135 C 0.84388 0.90352 0.53979 0.0
C136 C 0.77342 0.84325 0.52008 0.0
C137 C 0.68654 0.19493 0.42706 0.0
C138 C 0.7145 0.2598 0.46175 0.0
C139 C 0.75106 0.13133 0.40794 0.0
C140 C 0.84598 0.12944 0.42295 0.0
H141 H 0.61453 0.19416 0.41373 0.0
H142 H 0.72658 0.08353 0.38096 0.0
S143 S 0.9561 0.28357 0.51252 0.0
N144 N 0.84426 0.31695 0.51057 0.0
N145 N 0.96546 0.19742 0.47432 0.0
C146 C 0.87473 0.19217 0.45825 0.0
C147 C 0.80904 0.25721 0.47775 0.0
C148 C 0.23715 0.20909 0.51666 0.0
C149 C 0.23183 0.2984 0.53688 0.0
C150 C 0.18845 0.1346 0.5361 0.0
C151 C 0.13273 0.14632 0.57659 0.0
H152 H 0.28183 0.19561 0.48648 0.0
H153 H 0.19699 0.06676 0.52016 0.0
S154 S 0.08274 0.36748 0.63895 0.0
N155 N 0.15755 0.39523 0.59706 0.0
N156 N 0.06606 0.25525 0.63313 0.0
C157 C 0.12286 0.23565 0.59582 0.0
C158 C 0.17212 0.31162 0.57602 0.0
C159 C 0.15979 0.77947 0.48222 0.0
C160 C 0.2574 0.79922 0.47707 0.0
C161 C 0.0904 0.83366 0.46067 0.0
C162 C 0.11664 0.90895 0.43336 0.0
H163 H 0.13696 0.7188 0.50062 0.0
H164 H 0.01635 0.8139 0.46342 0.0
S165 S 0.3595 0.0016 0.41728 0.0
N166 N 0.37455 0.90855 0.44869 0.0
N167 N 0.24401 0.00904 0.40806 0.0
C168 C 0.21273 0.9339 0.43118 0.0
C169 C 0.28318 0.87942 0.45316 0.0
C170 C 0.08874 1.00022 0.20515 0.0
C171 C 0.00673 0.99504 0.17721 0.0
C172 C 0.08225 0.00287 0.25406 0.0
C173 C 0.99355 0.99908 0.2768 0.0
H174 H 0.15835 0.00416 0.18911 0.0
H175 H 0.14715 0.00946 0.27416 0.0
S176 S 0.75829 0.97433 0.21923 0.0
N177 N 0.83465 0.98053 0.1756 0.0
N178 N 0.82252 0.98217 0.26737 0.0
C179 C 0.91122 0.99101 0.24912 0.0
C180 C 0.9178 0.98977 0.1994 0.0
C181 C 0.96658 0.94099 0.79243 0.0
C182 C 0.04882 0.95907 0.81879 0.0
C183 C 0.9681 0.94504 0.74357 0.0
C184 C 0.0524 0.96556 0.71921 0.0
H185 H 0.89971 0.92718 0.80975 0.0
H186 H 0.90191 0.93479 0.7249 0.0
S187 S 0.28994 0.0048 0.7724 0.0
N188 N 0.21819 0.9911 0.81743 0.0
N189 N 0.22245 0.9943 0.72543 0.0
C190 C 0.13621 0.97919 0.74529 0.0
C191 C 0.13409 0.97696 0.7951 0.0
C192 C 0.52233 0.43843 0.69775 0.0
C193 C 0.5054 0.52418 0.67754 0.0
C194 C 0.52417 0.42939 0.74629 0.0
C195 C 0.51137 0.50623 0.77644 0.0
H196 H 0.53245 0.37745 0.67585 0.0
H197 H 0.53475 0.36134 0.76022 0.0
S198 S 0.47306 0.74779 0.74008 0.0
N199 N 0.47839 0.68778 0.69052 0.0
N200 N 0.4874 0.67247 0.78195 0.0
C201 C 0.49643 0.59301 0.7564 0.0
C202 C 0.49216 0.60158 0.70689 0.0
C203 C 0.47505 0.61346 0.29497 0.0
C204 C 0.48389 0.53216 0.32047 0.0
C205 C 0.47579 0.6109 0.24597 0.0
C206 C 0.48665 0.52709 0.22094 0.0
H207 H 0.46581 0.67922 0.31297 0.0
H208 H 0.46656 0.67476 0.22757 0.0
S209 S 0.52501 0.29676 0.2718 0.0
N210 N 0.51053 0.36668 0.31744 0.0
N211 N 0.5154 0.36218 0.22555 0.0
C212 C 0.49886 0.44581 0.24622 0.0
C213 C 0.49661 0.44827 0.29594 0.0
loop_
_geom_bond_atom_site_label_1
_geom_bond_atom_site_label_2
_geom_bond_distance
_geom_bond_site_symmetry_2
_ccdc_geom_bond_type
O0 Zn1 1.953 . S
O0 C16 1.225 1_565 S
Zn1 O0 1.953 . S
Zn1 O2 1.949 1_565 S
Zn1 O8 1.919 . S
Zn1 O13 1.924 1_565 S
O2 Zn1 1.949 1_545 S
O2 Zn3 1.923 1_444 S
O2 Zn4 1.950 1_455 S
O2 Zn5 1.945 1_554 S
Zn3 O2 1.923 1_666 S
Zn3 O6 1.933 . S
Zn3 O9 1.941 1_655 S
Zn3 O10 1.965 . S
Zn4 O2 1.950 1_655 S
Zn4 O11 1.938 1_545 S
Zn4 O12 1.906 . S
Zn4 O22 1.953 . S
Zn5 O2 1.945 1_556 S
Zn5 O7 1.932 . S
Zn5 O14 1.977 1_455 S
Zn5 O15 1.910 . S
O6 Zn3 1.933 . S
O6 C17 1.226 1_665 S
O7 Zn5 1.932 . S
O7 C17 1.307 . S
O8 Zn1 1.919 . S
O8 C19 1.253 1_554 S
O9 Zn3 1.941 1_455 S
O9 C19 1.283 . S
O10 Zn3 1.965 . S
O10 C18 1.303 1_556 S
O11 Zn4 1.938 1_565 S
O11 C18 1.247 . S
O12 Zn4 1.906 . S
O12 C20 1.304 1_554 S
O13 Zn1 1.924 1_545 S
O13 C21 1.311 . S
O14 Zn5 1.977 1_655 S
O14 C20 1.272 . S
O15 Zn5 1.910 . S
O15 C21 1.231 1_556 S
C16 O0 1.225 1_545 S
C16 O22 1.298 1_455 S
C17 O6 1.226 1_445 S
C17 O7 1.307 . S
C18 O10 1.303 1_554 S
C18 O11 1.247 . S
C19 O8 1.253 1_556 S
C19 O9 1.283 . S
C20 O12 1.304 1_556 S
C20 O14 1.272 . S
C21 O13 1.311 . S
C21 O15 1.231 1_554 S
O22 Zn4 1.953 . S
O22 C16 1.298 1_655 S
O23 Zn24 1.953 . S
O23 C39 1.225 . S
Zn24 O23 1.953 . S
Zn24 O25 1.949 . S
Zn24 O31 1.919 . S
Zn24 O36 1.924 . S
O25 Zn24 1.949 . S
O25 Zn26 1.923 . S
O25 Zn27 1.950 . S
O25 Zn28 1.945 . S
Zn26 O25 1.923 . S
Zn26 O29 1.933 . S
Zn26 O32 1.941 . S
Zn26 O33 1.965 . S
Zn27 O25 1.950 . S
Zn27 O34 1.938 . S
Zn27 O35 1.906 . S
Zn27 O45 1.953 . S
Zn28 O25 1.945 . S
Zn28 O30 1.932 . S
Zn28 O37 1.977 . S
Zn28 O38 1.910 . S
O29 Zn26 1.933 . S
O29 C40 1.226 . S
O30 Zn28 1.932 . S
O30 C40 1.307 . S
O31 Zn24 1.919 . S
O31 C42 1.253 . S
O32 Zn26 1.941 . S
O32 C42 1.283 . S
O33 Zn26 1.965 . S
O33 C41 1.303 . S
O34 Zn27 1.938 . S
O34 C41 1.247 . S
O35 Zn27 1.906 . S
O35 C43 1.304 . S
O36 Zn24 1.924 . S
O36 C44 1.311 . S
O37 Zn28 1.977 . S
O37 C43 1.272 . S
O38 Zn28 1.910 . S
O38 C44 1.231 . S
C39 O23 1.225 . S
C39 O45 1.298 . S
C40 O29 1.226 . S
C40 O30 1.307 . S
C41 O33 1.303 . S
C41 O34 1.247 . S
C42 O31 1.253 . S
C42 O32 1.283 . S
C43 O35 1.304 . S
C43 O37 1.272 . S
C44 O36 1.311 . S
C44 O38 1.231 . S
O45 Zn27 1.953 . S
O45 C39 1.298 . S
H46 C49 0.931 . S
H47 C52 0.928 . S
H48 C54 0.930 1_545 S
C49 H46 0.931 . S
C49 C50 1.413 . S
C49 C51 1.365 1_545 S
C50 C49 1.413 . S
C50 C54 1.422 1_645 S
C51 C49 1.365 1_565 S
C51 C52 1.367 1_655 S
C52 H47 0.928 . S
C52 C51 1.367 1_455 S
C52 C53 1.404 . S
C53 C52 1.404 . S
C53 C54 1.398 . S
C54 H48 0.930 1_565 S
C54 C50 1.422 1_465 S
C54 C53 1.398 . S
H55 C58 0.931 . S
H56 C61 0.928 . S
H57 C63 0.930 . S
C58 H55 0.931 . S
C58 C59 1.413 . S
C58 C60 1.360 1_665 S
C59 C58 1.413 . S
C59 C63 1.429 1_665 S
C60 C58 1.360 1_445 S
C60 C61 1.372 . S
C61 H56 0.928 . S
C61 C60 1.372 . S
C61 C62 1.404 . S
C62 C61 1.404 . S
C62 C63 1.391 . S
C63 H57 0.930 . S
C63 C59 1.429 1_445 S
C63 C62 1.391 . S
H64 C67 0.931 . S
H65 C70 0.928 . S
H66 C72 0.930 . S
C67 H64 0.931 . S
C67 C68 1.413 . S
C67 C69 1.360 . S
C68 C67 1.413 . S
C68 C72 1.429 . S
C69 C67 1.360 . S
C69 C70 1.372 . S
C70 H65 0.928 . S
C70 C69 1.372 . S
C70 C71 1.404 . S
C71 C70 1.404 . S
C71 C72 1.391 . S
C72 H66 0.930 . S
C72 C68 1.429 . S
C72 C71 1.391 . S
H73 C76 0.931 . S
H74 C79 0.928 . S
H75 C81 0.930 . S
C76 H73 0.931 . S
C76 C77 1.413 . S
C76 C78 1.360 . S
C77 C76 1.413 . S
C77 C81 1.429 . S
C78 C76 1.360 . S
C78 C79 1.372 . S
C79 H74 0.928 . S
C79 C78 1.372 . S
C79 C80 1.404 . S
C80 C79 1.404 . S
C80 C81 1.391 . S
C81 H75 0.930 . S
C81 C77 1.429 . S
C81 C80 1.391 . S
C82 C83 1.369 . S
C82 C84 1.419 . S
C82 H86 0.930 . S
C83 C82 1.369 . S
C83 C92 1.429 . S
C84 C82 1.419 . S
C84 C85 1.363 . S
C84 H87 0.929 . S
C85 C84 1.363 . S
C85 C91 1.428 . S
H86 C82 0.930 . S
H87 C84 0.929 . S
S88 N89 1.613 . S
S88 N90 1.610 1_556 S
N89 S88 1.613 . S
N89 C92 1.350 1_556 S
N90 S88 1.610 1_554 S
N90 C91 1.351 . S
C91 C85 1.428 . S
C91 N90 1.351 . S
C91 C92 1.434 . S
C92 C83 1.429 . S
C92 N89 1.350 1_554 S
C92 C91 1.434 . S
C93 C94 1.369 . S
C93 C95 1.419 . S
C93 H97 0.930 . S
C94 C93 1.369 . S
C94 C103 1.429 1_556 S
C95 C93 1.419 . S
C95 C96 1.363 . S
C95 H98 0.929 . S
C96 C95 1.363 . S
C96 C102 1.428 . S
H97 C93 0.930 . S
H98 C95 0.929 . S
S99 N100 1.613 . S
S99 N101 1.610 . S
N100 S99 1.613 . S
N100 C103 1.350 . S
N101 S99 1.610 . S
N101 C102 1.351 1_554 S
C102 C96 1.428 . S
C102 N101 1.351 1_556 S
C102 C103 1.434 1_556 S
C103 C94 1.429 1_554 S
C103 N100 1.350 . S
C103 C102 1.434 1_554 S
C104 C105 1.369 . S
C104 C106 1.419 . S
C104 H108 0.930 . S
C105 C104 1.369 . S
C105 C114 1.429 . S
C106 C104 1.419 . S
C106 C107 1.363 . S
C106 H109 0.929 . S
C107 C106 1.363 . S
C107 C113 1.428 . S
H108 C104 0.930 . S
H109 C106 0.929 . S
S110 N111 1.613 . S
S110 N112 1.610 . S
N111 S110 1.613 . S
N111 C114 1.350 . S
N112 S110 1.610 . S
N112 C113 1.351 . S
C113 C107 1.428 . S
C113 N112 1.351 . S
C113 C114 1.434 . S
C114 C105 1.429 . S
C114 N111 1.350 . S
C114 C113 1.434 . S
C115 C116 1.369 . S
C115 C117 1.419 . S
C115 H119 0.930 . S
C116 C115 1.369 . S
C116 C125 1.429 . S
C117 C115 1.419 . S
C117 C118 1.363 . S
C117 H120 0.929 . S
C118 C117 1.363 . S
C118 C124 1.428 . S
H119 C115 0.930 . S
H120 C117 0.929 . S
S121 N122 1.613 . S
S121 N123 1.610 . S
N122 S121 1.613 . S
N122 C125 1.350 . S
N123 S121 1.610 . S
N123 C124 1.351 . S
C124 C118 1.428 . S
C124 N123 1.351 . S
C124 C125 1.434 . S
C125 C116 1.429 . S
C125 N122 1.350 . S
C125 C124 1.434 . S
C126 C127 1.369 . S
C126 C128 1.419 . S
C126 H130 0.930 . S
C127 C126 1.369 . S
C127 C136 1.429 . S
C128 C126 1.419 . S
C128 C129 1.363 . S
C128 H131 0.929 . S
C129 C128 1.363 . S
C129 C135 1.428 . S
H130 C126 0.930 . S
H131 C128 0.929 . S
S132 N133 1.613 . S
S132 N134 1.610 . S
N133 S132 1.613 . S
N133 C136 1.350 . S
N134 S132 1.610 . S
N134 C135 1.351 . S
C135 C129 1.428 . S
C135 N134 1.351 . S
C135 C136 1.434 . S
C136 C127 1.429 . S
C136 N133 1.350 . S
C136 C135 1.434 . S
C137 C138 1.369 . S
C137 C139 1.419 . S
C137 H141 0.930 . S
C138 C137 1.369 . S
C138 C147 1.429 . S
C139 C137 1.419 . S
C139 C140 1.363 . S
C139 H142 0.929 . S
C140 C139 1.363 . S
C140 C146 1.428 . S
H141 C137 0.930 . S
H142 C139 0.929 . S
S143 N144 1.613 . S
S143 N145 1.610 . S
N144 S143 1.613 . S
N144 C147 1.350 . S
N145 S143 1.610 . S
N145 C146 1.351 . S
C146 C140 1.428 . S
C146 N145 1.351 . S
C146 C147 1.434 . S
C147 C138 1.429 . S
C147 N144 1.350 . S
C147 C146 1.434 . S
C148 C149 1.369 . S
C148 C150 1.419 . S
C148 H152 0.930 . S
C149 C148 1.369 . S
C149 C158 1.429 . S
C150 C148 1.419 . S
C150 C151 1.363 . S
C150 H153 0.929 . S
C151 C150 1.363 . S
C151 C157 1.428 . S
H152 C148 0.930 . S
H153 C150 0.929 . S
S154 N155 1.613 . S
S154 N156 1.610 . S
N155 S154 1.613 . S
N155 C158 1.350 . S
N156 S154 1.610 . S
N156 C157 1.351 . S
C157 C151 1.428 . S
C157 N156 1.351 . S
C157 C158 1.434 . S
C158 C149 1.429 . S
C158 N155 1.350 . S
C158 C157 1.434 . S
C159 C160 1.369 . S
C159 C161 1.419 . S
C159 H163 0.930 . S
C160 C159 1.369 . S
C160 C169 1.429 . S
C161 C159 1.419 . S
C161 C162 1.363 . S
C161 H164 0.929 . S
C162 C161 1.363 . S
C162 C168 1.428 . S
H163 C159 0.930 . S
H164 C161 0.929 . S
S165 N166 1.613 . S
S165 N167 1.610 . S
N166 S165 1.613 . S
N166 C169 1.350 . S
N167 S165 1.610 . S
N167 C168 1.351 . S
C168 C162 1.428 . S
C168 N167 1.351 . S
C168 C169 1.434 . S
C169 C160 1.429 . S
C169 N166 1.350 . S
C169 C168 1.434 . S
C170 C171 1.369 1_565 S
C170 C172 1.419 . S
C170 H174 0.930 . S
C171 C170 1.369 1_545 S
C171 C180 1.429 1_455 S
C172 C170 1.419 . S
C172 C173 1.368 1_565 S
C172 H175 0.929 . S
C173 C172 1.368 1_545 S
C173 C179 1.424 1_455 S
H174 C170 0.930 . S
H175 C172 0.929 . S
S176 N177 1.613 . S
S176 N178 1.610 . S
N177 S176 1.613 . S
N177 C180 1.350 . S
N178 S176 1.610 . S
N178 C179 1.351 . S
C179 C173 1.424 1_655 S
C179 N178 1.351 . S
C179 C180 1.434 . S
C180 C171 1.429 1_655 S
C180 N177 1.350 . S
C180 C179 1.434 . S
C181 C182 1.369 1_655 S
C181 C183 1.418 . S
C181 H185 0.930 1_545 S
C182 C181 1.369 1_455 S
C182 C191 1.429 . S
C183 C181 1.418 . S
C183 C184 1.363 1_655 S
C183 H186 0.929 1_545 S
C184 C183 1.363 1_455 S
C184 C190 1.428 . S
H185 C181 0.930 1_565 S
H186 C183 0.929 1_565 S
S187 N188 1.613 . S
S187 N189 1.610 . S
N188 S187 1.613 . S
N188 C191 1.350 . S
N189 S187 1.610 . S
N189 C190 1.351 . S
C190 C184 1.428 . S
C190 N189 1.351 . S
C190 C191 1.434 . S
C191 C182 1.429 . S
C191 N188 1.350 . S
C191 C190 1.434 . S
C192 C193 1.369 . S
C192 C194 1.419 . S
C192 H196 0.930 . S
C193 C192 1.369 . S
C193 C202 1.429 . S
C194 C192 1.419 . S
C194 C195 1.363 . S
C194 H197 0.929 . S
C195 C194 1.363 . S
C195 C201 1.428 . S
H196 C192 0.930 . S
H197 C194 0.929 . S
S198 N199 1.613 . S
S198 N200 1.610 . S
N199 S198 1.613 . S
N199 C202 1.350 . S
N200 S198 1.610 . S
N200 C201 1.351 . S
C201 C195 1.428 . S
C201 N200 1.351 . S
C201 C202 1.434 . S
C202 C193 1.429 . S
C202 N199 1.350 . S
C202 C201 1.434 . S
C203 C204 1.369 . S
C203 C205 1.419 . S
C203 H207 0.930 . S
C204 C203 1.369 . S
C204 C213 1.429 . S
C205 C203 1.419 . S
C205 C206 1.363 . S
C205 H208 0.929 . S
C206 C205 1.363 . S
C206 C212 1.428 . S
H207 C203 0.930 . S
H208 C205 0.929 . S
S209 N210 1.613 . S
S209 N211 1.610 . S
N210 S209 1.613 . S
N210 C213 1.350 . S
N211 S209 1.610 . S
N211 C212 1.351 . S
C212 C206 1.428 . S
C212 N211 1.351 . S
C212 C213 1.434 . S
C213 C204 1.429 . S
C213 N210 1.350 . S
C213 C212 1.434 . S
C85 C77 1.453 . S
C83 C21 1.451 . S
C94 C19 1.451 . S
C96 C68 1.454 . S
C105 C18 1.429 . S
C107 C80 1.434 . S
C116 C20 1.447 . S
C118 C71 1.444 . S
C127 C44 1.453 . S
C129 C59 1.453 . S
C138 C42 1.452 . S
C140 C50 1.454 . S
C151 C62 1.432 . S
C149 C41 1.428 . S
C162 C53 1.445 . S
C160 C43 1.443 . S
C171 C16 1.499 . S
C173 C51 1.499 1_445 S
C182 C17 1.473 . S
C184 C60 1.474 . S
C195 C69 1.499 . S
C193 C39 1.499 . S
C204 C40 1.473 . S
C206 C78 1.474 . S
