# Generated by pormake.
# Topology rtl, (3,6)-cn, num edge types: 1
# Building blocks:
#     Node 0, Type 0, BuildingBlock: QEWDON_clean_linker_0, # of connection points: 3
#     Node 1, Type 0, BuildingBlock: QEWDON_clean_linker_0, # of connection points: 3
#     Node 2, Type 0, BuildingBlock: QEWDON_clean_linker_0, # of connection points: 3
#     Node 3, Type 0, BuildingBlock: QEWDON_clean_linker_0, # of connection points: 3
#     Node 4, Type 1, BuildingBlock: VOLQOD_clean_sbu_1, # of connection points: 6
#     Node 5, Type 1, BuildingBlock: VOLQOD_clean_sbu_1, # of connection points: 6
#     Edge 6, Type (0, 1), BuildingBlock: AJUNOK_clean_linker_0, # of connection points: 2
#     Edge 7, Type (0, 1), BuildingBlock: AJUNOK_clean_linker_0, # of connection points: 2
#     Edge 8, Type (0, 1), BuildingBlock: AJUNOK_clean_linker_0, # of connection points: 2
#     Edge 9, Type (0, 1), BuildingBlock: AJUNOK_clean_linker_0, # of connection points: 2
#     Edge 10, Type (0, 1), BuildingBlock: AJUNOK_clean_linker_0, # of connection points: 2
#     Edge 11, Type (0, 1), BuildingBlock: AJUNOK_clean_linker_0, # of connection points: 2
#     Edge 12, Type (0, 1), BuildingBlock: AJUNOK_clean_linker_0, # of connection points: 2
#     Edge 13, Type (0, 1), BuildingBlock: AJUNOK_clean_linker_0, # of connection points: 2
#     Edge 14, Type (0, 1), BuildingBlock: AJUNOK_clean_linker_0, # of connection points: 2
#     Edge 15, Type (0, 1), BuildingBlock: AJUNOK_clean_linker_0, # of connection points: 2
#     Edge 16, Type (0, 1), BuildingBlock: AJUNOK_clean_linker_0, # of connection points: 2
#     Edge 17, Type (0, 1), BuildingBlock: AJUNOK_clean_linker_0, # of connection points: 2
# Relax obj value: 0.049
# Max RMSD: 0.148
# Mean RMSD: 0.131
data_MOF--net-rtl--node1-VOLQOD_clean_sbu_1--node2-QEWDON_clean_linker_0--edge1-AJUNOK_clean_linker_0
_symmetry_space_group_name_H-M    P1
_symmetry_Int_Tables_number       1
_symmetry_cell_setting            triclinic
loop_
_symmetry_equiv_pos_as_xyz
'x, y, z'
_cell_length_a     29.727767
_cell_length_b     29.789885
_cell_length_c     16.654273
_cell_angle_alpha  92.267397
_cell_angle_beta   92.914329
_cell_angle_gamma 89.992263
loop_
_atom_site_label
_atom_site_type_symbol
_atom_site_fract_x
_atom_site_fract_y
_atom_site_fract_z
_atom_type_partial_charge
H0 H 0.23391 0.8763 0.12123 0.0
C1 C 0.2185 0.87978 0.06138 0.0
C2 C 0.175 0.89776 0.05195 0.0
C3 C 0.24364 0.86972 -0.00628 0.0
H4 H 0.12327 0.91923 0.96675 0.0
C5 C 0.15651 0.90445 -0.02557 0.0
C6 C 0.18147 0.89533 0.90681 0.0
C7 C 0.22504 0.8776 0.91624 0.0
C8 C 0.29175 0.8587 0.0055 0.0
H9 H 0.24523 0.87246 0.86427 0.0
C10 C 0.30657 0.8139 0.00661 0.0
C11 C 0.35247 0.80442 0.02294 0.0
C12 C 0.32291 0.89383 0.01961 0.0
H13 H 0.31188 0.9285 0.01923 0.0
C14 C 0.3684 0.8845 0.03525 0.0
H15 H 0.28247 0.7867 -0.00339 0.0
C16 C 0.38314 0.84009 0.03735 0.0
H17 H 0.41861 0.83353 0.04974 0.0
H18 H 0.39227 0.91176 0.04627 0.0
H19 H 0.74143 0.6855 0.43766 0.0
C20 C 0.72463 0.67759 0.4916 0.0
C21 C 0.68203 0.65675 0.48531 0.0
C22 C 0.74637 0.68641 0.56765 0.0
H23 H 0.6289 0.62862 0.55104 0.0
C24 C 0.66109 0.64593 0.55564 0.0
C25 C 0.68222 0.65468 0.6317 0.0
C26 C 0.72479 0.6751 0.63737 0.0
C27 C 0.79339 0.70307 0.57505 0.0
H28 H 0.74141 0.68183 0.69607 0.0
C29 C 0.80623 0.74321 0.54022 0.0
C30 C 0.85117 0.75847 0.54998 0.0
C31 C 0.82584 0.67828 0.61868 0.0
H32 H 0.81677 0.64721 0.64553 0.0
C33 C 0.8703 0.69303 0.62758 0.0
H34 H 0.78141 0.76255 0.50651 0.0
C35 C 0.88294 0.73281 0.59367 0.0
H36 H 0.91759 0.74395 0.60265 0.0
H37 H 0.89504 0.67368 0.66129 0.0
H38 H 0.78245 0.18606 0.10046 0.0
C39 C 0.80064 0.17826 0.04691 0.0
C40 C 0.84364 0.15851 0.05362 0.0
C41 C 0.78023 0.18589 0.9706 0.0
H42 H 0.8986 0.13073 -0.01179 0.0
C43 C 0.86621 0.14745 -0.01653 0.0
C44 C 0.84622 0.15479 0.90711 0.0
C45 C 0.8034 0.17448 0.90121 0.0
C46 C 0.7326 0.20005 0.96167 0.0
H47 H 0.78751 0.18008 0.84241 0.0
C48 C 0.71793 0.24217 -0.00818 0.0
C49 C 0.67256 0.25523 -0.02134 0.0
C50 C 0.70163 0.17099 0.91977 0.0
H51 H 0.71227 0.13846 0.89625 0.0
C52 C 0.65675 0.18348 0.90783 0.0
H53 H 0.74172 0.26468 0.02424 0.0
C54 C 0.64229 0.22526 0.93672 0.0
H55 H 0.6074 0.23451 0.92494 0.0
H56 H 0.63315 0.16086 0.87534 0.0
H57 H 0.34364 0.32584 0.6284 0.0
C58 C 0.3427 0.34502 0.5744 0.0
C59 C 0.35843 0.38957 0.57754 0.0
C60 C 0.32894 0.32371 0.50053 0.0
H61 H 0.37322 0.44631 0.50741 0.0
C62 C 0.35975 0.41249 0.50567 0.0
C63 C 0.34828 0.39099 0.43101 0.0
C64 C 0.33202 0.34662 0.42897 0.0
C65 C 0.31877 0.27527 0.4974 0.0
H66 H 0.32416 0.32909 0.37168 0.0
C67 C 0.27418 0.25952 0.49764 0.0
C68 C 0.26572 0.21314 0.49961 0.0
C69 C 0.35454 0.24455 0.49755 0.0
H70 H 0.38905 0.25628 0.49756 0.0
C71 C 0.34607 0.19853 0.49846 0.0
H72 H 0.24644 0.28314 0.49826 0.0
C73 C 0.30192 0.18285 0.49993 0.0
H74 H 0.29594 0.14701 0.50143 0.0
H75 H 0.37381 0.17498 0.49876 0.0
O76 O 0.91756 0.96414 0.47698 0.0
Zn77 Zn 0.9449 0.02713 0.47828 0.0
O78 O 0.01112 0.02509 0.48131 0.0
Zn79 Zn 0.03604 0.05419 0.5808 0.0
Zn80 Zn 0.03107 0.96244 0.4754 0.0
Zn81 Zn 0.03355 0.05672 0.39094 0.0
O82 O 0.08122 0.10196 0.55947 0.0
O83 O 0.08049 0.10358 0.42665 0.0
O84 O 0.92411 0.06051 0.57761 0.0
O85 O 0.98703 0.08094 0.64697 0.0
O86 O 0.07099 1.00998 0.64707 0.0
O87 O 0.07138 0.94709 0.5713 0.0
O88 O 0.06513 0.94859 0.37651 0.0
O89 O 0.92053 0.06076 0.38138 0.0
O90 O 0.06435 1.01344 0.31573 0.0
O91 O 0.98243 0.0858 0.3285 0.0
C92 C 0.93566 0.9253 0.47492 0.0
C93 C 0.09616 0.11742 0.49584 0.0
C94 C 0.08348 0.96945 0.63541 0.0
C95 C 0.94417 0.08016 0.63869 0.0
C96 C 0.07541 0.97217 0.31812 0.0
C97 C 0.93962 0.08357 0.32943 0.0
O98 O 0.97819 0.92075 0.47328 0.0
O99 O 0.60422 0.46507 0.03812 0.0
Zn100 Zn 0.57872 0.52863 0.04132 0.0
O101 O 0.51226 0.52851 0.03493 0.0
Zn102 Zn 0.49024 0.55864 0.93867 0.0
Zn103 Zn 0.49063 0.46651 0.02923 0.0
Zn104 Zn 0.48851 0.55986 0.12924 0.0
O105 O 0.44922 0.61062 0.96461 0.0
O106 O 0.45132 0.61378 0.09796 0.0
O107 O 0.60332 0.56132 0.94861 0.0
O108 O 0.54162 0.58357 0.88109 0.0
O109 O 0.45724 0.51553 0.86091 0.0
O110 O 0.45396 0.45219 0.92662 0.0
O111 O 0.45172 0.45398 0.11987 0.0
O112 O 0.60201 0.56124 0.14394 0.0
O113 O 0.44868 0.5188 0.18978 0.0
O114 O 0.53996 0.58281 0.20351 0.0
C115 C 0.58511 0.42669 0.03613 0.0
C116 C 0.43781 0.62917 0.03066 0.0
C117 C 0.44448 0.47496 0.86506 0.0
C118 C 0.58434 0.58187 0.89044 0.0
C119 C 0.43734 0.47767 0.1783 0.0
C120 C 0.58279 0.58128 0.20189 0.0
O121 O 0.54237 0.42314 0.03388 0.0
C122 C 0.19023 0.19368 0.43462 0.0
C123 C 0.21949 0.19546 0.50352 0.0
C124 C 0.14923 0.17016 0.43374 0.0
C125 C 0.13597 0.14793 0.502 0.0
H126 H 0.20007 0.20877 0.38002 0.0
H127 H 0.12854 0.16815 0.37827 0.0
S128 S 0.20015 0.14626 0.6995 0.0
N129 N 0.23202 0.17575 0.6426 0.0
N130 N 0.15497 0.13214 0.64232 0.0
C131 C 0.16422 0.15175 0.57267 0.0
C132 C 0.20604 0.17527 0.573 0.0
C133 C 0.39366 0.74385 0.09526 0.0
C134 C 0.36914 0.75763 0.02619 0.0
C135 C 0.41405 0.70147 0.09721 0.0
C136 C 0.41138 0.6715 0.02957 0.0
H137 H 0.39783 0.76642 0.14775 0.0
H138 H 0.4335 0.69294 0.15122 0.0
S139 S 0.3487 0.69089 0.83538 0.0
N140 N 0.34125 0.73752 0.89004 0.0
N141 N 0.37997 0.6579 0.89283 0.0
C142 C 0.38566 0.68442 0.96088 0.0
C143 C 0.3644 0.72744 0.95944 0.0
C144 C 0.9054 0.80188 0.47379 0.0
C145 C 0.86607 0.80139 0.51717 0.0
C146 C 0.92596 0.84231 0.45607 0.0
C147 C 0.90803 0.88407 0.48082 0.0
H148 H 0.92159 0.77062 0.45651 0.0
H149 H 0.95727 0.84069 0.4255 0.0
S150 S 0.80312 0.90122 0.58975 0.0
N151 N 0.80802 0.84607 0.5796 0.0
N152 N 0.84642 0.92239 0.54558 0.0
C153 C 0.86693 0.88417 0.51939 0.0
C154 C 0.84601 0.84275 0.53773 0.0
C155 C 0.61468 0.30314 0.04383 0.0
C156 C 0.65577 0.30016 0.00562 0.0
C157 C 0.5933 0.34448 0.05669 0.0
C158 C 0.61222 0.38478 0.03249 0.0
H159 H 0.598 0.27296 0.06127 0.0
H160 H 0.56093 0.34462 0.08378 0.0
S161 S 0.72108 0.39584 0.93524 0.0
N162 N 0.7159 0.34136 0.94752 0.0
N163 N 0.67612 0.4194 0.97315 0.0
C164 C 0.65469 0.3827 -0.00134 0.0
C165 C 0.67638 0.34034 -0.01506 0.0
C166 C 0.13472 0.9598 0.12225 0.0
C167 C 0.15076 0.9154 0.12197 0.0
C168 C 0.11053 0.97759 0.18578 0.0
C169 C 0.10125 0.95174 0.25193 0.0
H170 H 0.14109 0.98115 0.07284 0.0
H171 H 0.09897 1.01199 0.18257 0.0
S172 S 0.1363 0.83326 0.27989 0.0
N173 N 0.15612 0.8458 0.19267 0.0
N174 N 0.11069 0.87903 0.31317 0.0
C175 C 0.11749 0.90718 0.25267 0.0
C176 C 0.14233 0.88913 0.18762 0.0
C177 C 0.61458 0.65058 0.71387 0.0
C178 C 0.66008 0.63999 0.70408 0.0
C179 C 0.59097 0.63268 0.77574 0.0
C180 C 0.61184 0.60334 0.83049 0.0
H181 H 0.59679 0.6722 0.67218 0.0
H182 H 0.55573 0.64135 0.77955 0.0
S183 S 0.73112 0.56602 0.83183 0.0
N184 N 0.72564 0.59919 0.75484 0.0
N185 N 0.68148 0.56573 0.87205 0.0
C186 C 0.6579 0.5937 0.82305 0.0
C187 C 0.68195 0.61198 0.75969 0.0
C188 C 0.90989 0.15593 0.15168 0.0
C189 C 0.86446 0.14536 0.13222 0.0
C190 C 0.93321 0.13712 0.2173 0.0
C191 C 0.91214 0.10681 0.26638 0.0
H192 H 0.92805 0.17775 0.11401 0.0
H193 H 0.9685 0.14555 0.22805 0.0
S194 S 0.79248 0.07034 0.24369 0.0
N195 N 0.79845 0.10439 0.16909 0.0
N196 N 0.84197 0.06931 0.29331 0.0
C197 C 0.86594 0.09774 0.25 0.0
C198 C 0.8422 0.11696 0.1828 0.0
C199 C 0.41944 0.43545 0.64998 0.0
C200 C 0.37914 0.41071 0.65314 0.0
C201 C 0.43969 0.4567 0.71878 0.0
C202 C 0.42139 0.45288 0.79406 0.0
H203 H 0.43596 0.43818 0.5939 0.0
H204 H 0.47053 0.47548 0.71327 0.0
S205 S 0.31686 0.39261 0.83686 0.0
N206 N 0.32115 0.38489 0.73875 0.0
N207 N 0.36123 0.42278 0.86933 0.0
C208 C 0.38182 0.42769 0.79922 0.0
C209 C 0.36029 0.40699 0.72852 0.0
C210 C 0.61379 0.65197 0.3915 0.0
C211 C 0.65977 0.64269 0.40645 0.0
C212 C 0.58964 0.63276 0.3244 0.0
C213 C 0.61043 0.60345 0.26918 0.0
H214 H 0.59598 0.67327 0.43348 0.0
H215 H 0.55409 0.64042 0.31678 0.0
S216 S 0.73092 0.56979 0.27952 0.0
N217 N 0.72569 0.60341 0.3597 0.0
N218 N 0.68063 0.5677 0.23259 0.0
C219 C 0.65697 0.59534 0.2817 0.0
C220 C 0.68154 0.6149 0.35044 0.0
C221 C 0.91499 0.14845 0.82662 0.0
C222 C 0.86918 0.13864 0.83423 0.0
C223 C 0.93859 0.13021 0.76234 0.0
C224 C 0.91735 0.10135 0.70294 0.0
H225 H 0.93292 0.17001 0.87138 0.0
H226 H 0.97397 0.13846 0.75988 0.0
S227 S 0.79767 0.06465 0.69615 0.0
N228 N 0.80339 0.09793 0.77765 0.0
N229 N 0.84736 0.06407 0.65615 0.0
C230 C 0.87119 0.09197 0.70906 0.0
C231 C 0.84722 0.1105 0.77479 0.0
C232 C 0.38954 0.38769 0.30427 0.0
C233 C 0.36223 0.41214 0.35683 0.0
C234 C 0.41222 0.40902 0.24475 0.0
C235 C 0.40894 0.45575 0.23601 0.0
H236 H 0.39577 0.35227 0.31222 0.0
H237 H 0.4343 0.38896 0.20804 0.0
S238 S 0.33566 0.53366 0.34925 0.0
N239 N 0.32822 0.48446 0.38903 0.0
N240 N 0.37194 0.52489 0.27842 0.0
C241 C 0.3795 0.48014 0.28468 0.0
C242 C 0.35584 0.45825 0.34462 0.0
C243 C 0.16217 0.95827 0.81937 0.0
C244 C 0.16363 0.91173 0.82929 0.0
C245 C 0.13726 0.97636 0.75502 0.0
C246 C 0.11277 0.94854 0.69813 0.0
H247 H 0.17889 0.98097 0.86381 0.0
H248 H 0.13635 1.01257 0.75109 0.0
S249 S 0.10768 0.82391 0.69633 0.0
N250 N 0.14028 0.83788 0.77674 0.0
N251 N 0.09347 0.87157 0.65438 0.0
C252 C 0.11567 0.90162 0.70557 0.0
C253 C 0.14105 0.88327 0.77166 0.0
loop_
_geom_bond_atom_site_label_1
_geom_bond_atom_site_label_2
_geom_bond_distance
_geom_bond_site_symmetry_2
_ccdc_geom_bond_type
H0 C1 0.949 . S
C1 H0 0.949 . S
C1 C2 1.395 . S
C1 C3 1.391 . S
C2 C1 1.395 . S
C2 C5 1.390 . S
C3 C1 1.391 . S
C3 C7 1.387 1_554 S
C3 C8 1.489 1_554 S
H4 C5 0.950 . S
C5 C2 1.390 . S
C5 H4 0.950 . S
C5 C6 1.378 1_554 S
C6 C5 1.378 1_556 S
C6 C7 1.409 . S
C7 C3 1.387 1_556 S
C7 C6 1.409 . S
C7 H9 0.951 . S
C8 C3 1.489 1_556 S
C8 C10 1.374 1_556 S
C8 C12 1.413 . S
H9 C7 0.951 . S
C10 C8 1.374 1_554 S
C10 C11 1.390 . S
C10 H15 0.949 . S
C11 C10 1.390 . S
C11 C16 1.399 1_554 S
C12 C8 1.413 . S
C12 H13 0.950 . S
C12 C14 1.375 . S
H13 C12 0.950 . S
C14 C12 1.375 . S
C14 C16 1.382 . S
C14 H18 0.950 . S
H15 C10 0.949 . S
C16 C11 1.399 1_556 S
C16 C14 1.382 . S
C16 H17 0.952 . S
H17 C16 0.952 . S
H18 C14 0.950 . S
H19 C20 0.949 . S
C20 H19 0.949 . S
C20 C21 1.395 . S
C20 C22 1.391 . S
C21 C20 1.395 . S
C21 C24 1.390 . S
C22 C20 1.391 . S
C22 C26 1.387 . S
C22 C27 1.491 . S
H23 C24 0.950 . S
C24 C21 1.390 . S
C24 H23 0.950 . S
C24 C25 1.378 . S
C25 C24 1.378 . S
C25 C26 1.409 . S
C26 C22 1.387 . S
C26 C25 1.409 . S
C26 H28 0.951 . S
C27 C22 1.491 . S
C27 C29 1.382 . S
C27 C31 1.404 . S
H28 C26 0.951 . S
C29 C27 1.382 . S
C29 C30 1.390 . S
C29 H34 0.949 . S
C30 C29 1.390 . S
C30 C35 1.399 . S
C31 C27 1.404 . S
C31 H32 0.950 . S
C31 C33 1.375 . S
H32 C31 0.950 . S
C33 C31 1.375 . S
C33 C35 1.382 . S
C33 H37 0.950 . S
H34 C29 0.949 . S
C35 C30 1.399 . S
C35 C33 1.382 . S
C35 H36 0.952 . S
H36 C35 0.952 . S
H37 C33 0.950 . S
H38 C39 0.949 . S
C39 H38 0.949 . S
C39 C40 1.395 . S
C39 C41 1.391 . S
C40 C39 1.395 . S
C40 C43 1.390 . S
C41 C39 1.391 . S
C41 C45 1.387 1_554 S
C41 C46 1.491 1_554 S
H42 C43 0.950 . S
C43 C40 1.390 . S
C43 H42 0.950 . S
C43 C44 1.378 1_554 S
C44 C43 1.378 1_556 S
C44 C45 1.409 . S
C45 C41 1.387 1_556 S
C45 C44 1.409 . S
C45 H47 0.951 . S
C46 C41 1.491 1_556 S
C46 C48 1.382 1_556 S
C46 C50 1.404 . S
H47 C45 0.951 . S
C48 C46 1.382 1_554 S
C48 C49 1.390 . S
C48 H53 0.949 . S
C49 C48 1.390 . S
C49 C54 1.399 1_554 S
C50 C46 1.404 . S
C50 H51 0.950 . S
C50 C52 1.375 . S
H51 C50 0.950 . S
C52 C50 1.375 . S
C52 C54 1.382 . S
C52 H56 0.950 . S
H53 C48 0.949 . S
C54 C49 1.399 1_556 S
C54 C52 1.382 . S
C54 H55 0.952 . S
H55 C54 0.952 . S
H56 C52 0.950 . S
H57 C58 0.949 . S
C58 H57 0.949 . S
C58 C59 1.395 . S
C58 C60 1.391 . S
C59 C58 1.395 . S
C59 C62 1.390 . S
C60 C58 1.391 . S
C60 C64 1.387 . S
C60 C65 1.491 . S
H61 C62 0.950 . S
C62 C59 1.390 . S
C62 H61 0.950 . S
C62 C63 1.378 . S
C63 C62 1.378 . S
C63 C64 1.409 . S
C64 C60 1.387 . S
C64 C63 1.409 . S
C64 H66 0.951 . S
C65 C60 1.491 . S
C65 C67 1.382 . S
C65 C69 1.404 . S
H66 C64 0.951 . S
C67 C65 1.382 . S
C67 C68 1.390 . S
C67 H72 0.949 . S
C68 C67 1.390 . S
C68 C73 1.399 . S
C69 C65 1.404 . S
C69 H70 0.950 . S
C69 C71 1.375 . S
H70 C69 0.950 . S
C71 C69 1.375 . S
C71 C73 1.382 . S
C71 H75 0.950 . S
H72 C67 0.949 . S
C73 C68 1.399 . S
C73 C71 1.382 . S
C73 H74 0.952 . S
H74 C73 0.952 . S
H75 C71 0.950 . S
O76 Zn77 1.953 1_565 S
O76 C92 1.225 . S
Zn77 O76 1.953 1_545 S
Zn77 O78 1.949 1_655 S
Zn77 O84 1.919 . S
Zn77 O89 1.924 . S
O78 Zn77 1.949 1_455 S
O78 Zn79 1.923 . S
O78 Zn80 1.950 1_545 S
O78 Zn81 1.945 . S
Zn79 O78 1.923 . S
Zn79 O82 1.933 . S
Zn79 O85 1.941 . S
Zn79 O86 1.965 1_545 S
Zn80 O78 1.950 1_565 S
Zn80 O87 1.938 . S
Zn80 O88 1.906 . S
Zn80 O98 1.953 1_455 S
Zn81 O78 1.945 . S
Zn81 O83 1.932 . S
Zn81 O90 1.977 1_545 S
Zn81 O91 1.910 1_455 S
O82 Zn79 1.933 . S
O82 C93 1.226 . S
O83 Zn81 1.932 . S
O83 C93 1.307 . S
O84 Zn77 1.919 . S
O84 C95 1.253 . S
O85 Zn79 1.941 . S
O85 C95 1.283 1_455 S
O86 Zn79 1.965 1_565 S
O86 C94 1.303 . S
O87 Zn80 1.938 . S
O87 C94 1.247 . S
O88 Zn80 1.906 . S
O88 C96 1.304 . S
O89 Zn77 1.924 . S
O89 C97 1.311 . S
O90 Zn81 1.977 1_565 S
O90 C96 1.272 . S
O91 Zn81 1.910 1_655 S
O91 C97 1.231 . S
C92 O76 1.225 . S
C92 O98 1.298 . S
C93 O82 1.226 . S
C93 O83 1.307 . S
C94 O86 1.303 . S
C94 O87 1.247 . S
C95 O84 1.253 . S
C95 O85 1.283 1_655 S
C96 O88 1.304 . S
C96 O90 1.272 . S
C97 O89 1.311 . S
C97 O91 1.231 . S
O98 Zn80 1.953 1_655 S
O98 C92 1.298 . S
O99 Zn100 1.953 . S
O99 C115 1.225 . S
Zn100 O99 1.953 . S
Zn100 O101 1.949 . S
Zn100 O107 1.919 1_554 S
Zn100 O112 1.924 . S
O101 Zn100 1.949 . S
O101 Zn102 1.923 1_554 S
O101 Zn103 1.950 . S
O101 Zn104 1.945 . S
Zn102 O101 1.923 1_556 S
Zn102 O105 1.933 . S
Zn102 O108 1.941 . S
Zn102 O109 1.965 . S
Zn103 O101 1.950 . S
Zn103 O110 1.938 1_554 S
Zn103 O111 1.906 . S
Zn103 O121 1.953 . S
Zn104 O101 1.945 . S
Zn104 O106 1.932 . S
Zn104 O113 1.977 . S
Zn104 O114 1.910 . S
O105 Zn102 1.933 . S
O105 C116 1.226 1_556 S
O106 Zn104 1.932 . S
O106 C116 1.307 . S
O107 Zn100 1.919 1_556 S
O107 C118 1.253 . S
O108 Zn102 1.941 . S
O108 C118 1.283 . S
O109 Zn102 1.965 . S
O109 C117 1.303 . S
O110 Zn103 1.938 1_556 S
O110 C117 1.247 . S
O111 Zn103 1.906 . S
O111 C119 1.304 . S
O112 Zn100 1.924 . S
O112 C120 1.311 . S
O113 Zn104 1.977 . S
O113 C119 1.272 . S
O114 Zn104 1.910 . S
O114 C120 1.231 . S
C115 O99 1.225 . S
C115 O121 1.298 . S
C116 O105 1.226 1_554 S
C116 O106 1.307 . S
C117 O109 1.303 . S
C117 O110 1.247 . S
C118 O107 1.253 . S
C118 O108 1.283 . S
C119 O111 1.304 . S
C119 O113 1.272 . S
C120 O112 1.311 . S
C120 O114 1.231 . S
O121 Zn103 1.953 . S
O121 C115 1.298 . S
C122 C123 1.369 . S
C122 C124 1.419 . S
C122 H126 0.930 . S
C123 C122 1.369 . S
C123 C132 1.429 . S
C124 C122 1.419 . S
C124 C125 1.363 . S
C124 H127 0.929 . S
C125 C124 1.363 . S
C125 C131 1.428 . S
H126 C122 0.930 . S
H127 C124 0.929 . S
S128 N129 1.613 . S
S128 N130 1.610 . S
N129 S128 1.613 . S
N129 C132 1.350 . S
N130 S128 1.610 . S
N130 C131 1.351 . S
C131 C125 1.428 . S
C131 N130 1.351 . S
C131 C132 1.434 . S
C132 C123 1.429 . S
C132 N129 1.350 . S
C132 C131 1.434 . S
C133 C134 1.369 . S
C133 C135 1.419 . S
C133 H137 0.930 . S
C134 C133 1.369 . S
C134 C143 1.429 1_554 S
C135 C133 1.419 . S
C135 C136 1.363 . S
C135 H138 0.929 . S
C136 C135 1.363 . S
C136 C142 1.428 1_554 S
H137 C133 0.930 . S
H138 C135 0.929 . S
S139 N140 1.613 . S
S139 N141 1.610 . S
N140 S139 1.613 . S
N140 C143 1.350 . S
N141 S139 1.610 . S
N141 C142 1.351 . S
C142 C136 1.428 1_556 S
C142 N141 1.351 . S
C142 C143 1.434 . S
C143 C134 1.429 1_556 S
C143 N140 1.350 . S
C143 C142 1.434 . S
C144 C145 1.369 . S
C144 C146 1.419 . S
C144 H148 0.930 . S
C145 C144 1.369 . S
C145 C154 1.429 . S
C146 C144 1.419 . S
C146 C147 1.363 . S
C146 H149 0.929 . S
C147 C146 1.363 . S
C147 C153 1.428 . S
H148 C144 0.930 . S
H149 C146 0.929 . S
S150 N151 1.613 . S
S150 N152 1.610 . S
N151 S150 1.613 . S
N151 C154 1.350 . S
N152 S150 1.610 . S
N152 C153 1.351 . S
C153 C147 1.428 . S
C153 N152 1.351 . S
C153 C154 1.434 . S
C154 C145 1.429 . S
C154 N151 1.350 . S
C154 C153 1.434 . S
C155 C156 1.369 . S
C155 C157 1.419 . S
C155 H159 0.930 . S
C156 C155 1.369 . S
C156 C165 1.429 . S
C157 C155 1.419 . S
C157 C158 1.363 . S
C157 H160 0.929 . S
C158 C157 1.363 . S
C158 C164 1.428 . S
H159 C155 0.930 . S
H160 C157 0.929 . S
S161 N162 1.613 . S
S161 N163 1.610 . S
N162 S161 1.613 . S
N162 C165 1.350 . S
N163 S161 1.610 . S
N163 C164 1.351 . S
C164 C158 1.428 . S
C164 N163 1.351 . S
C164 C165 1.434 . S
C165 C156 1.429 . S
C165 N162 1.350 . S
C165 C164 1.434 . S
C166 C167 1.369 . S
C166 C168 1.419 . S
C166 H170 0.930 . S
C167 C166 1.369 . S
C167 C176 1.429 . S
C168 C166 1.419 . S
C168 C169 1.363 . S
C168 H171 0.929 . S
C169 C168 1.363 . S
C169 C175 1.428 . S
H170 C166 0.930 . S
H171 C168 0.929 . S
S172 N173 1.613 . S
S172 N174 1.610 . S
N173 S172 1.613 . S
N173 C176 1.350 . S
N174 S172 1.610 . S
N174 C175 1.351 . S
C175 C169 1.428 . S
C175 N174 1.351 . S
C175 C176 1.434 . S
C176 C167 1.429 . S
C176 N173 1.350 . S
C176 C175 1.434 . S
C177 C178 1.369 . S
C177 C179 1.419 . S
C177 H181 0.930 . S
C178 C177 1.369 . S
C178 C187 1.429 . S
C179 C177 1.419 . S
C179 C180 1.363 . S
C179 H182 0.929 . S
C180 C179 1.363 . S
C180 C186 1.428 . S
H181 C177 0.930 . S
H182 C179 0.929 . S
S183 N184 1.613 . S
S183 N185 1.610 . S
N184 S183 1.613 . S
N184 C187 1.350 . S
N185 S183 1.610 . S
N185 C186 1.351 . S
C186 C180 1.428 . S
C186 N185 1.351 . S
C186 C187 1.434 . S
C187 C178 1.429 . S
C187 N184 1.350 . S
C187 C186 1.434 . S
C188 C189 1.369 . S
C188 C190 1.419 . S
C188 H192 0.930 . S
C189 C188 1.369 . S
C189 C198 1.429 . S
C190 C188 1.419 . S
C190 C191 1.363 . S
C190 H193 0.929 . S
C191 C190 1.363 . S
C191 C197 1.428 . S
H192 C188 0.930 . S
H193 C190 0.929 . S
S194 N195 1.613 . S
S194 N196 1.610 . S
N195 S194 1.613 . S
N195 C198 1.350 . S
N196 S194 1.610 . S
N196 C197 1.351 . S
C197 C191 1.428 . S
C197 N196 1.351 . S
C197 C198 1.434 . S
C198 C189 1.429 . S
C198 N195 1.350 . S
C198 C197 1.434 . S
C199 C200 1.369 . S
C199 C201 1.419 . S
C199 H203 0.930 . S
C200 C199 1.369 . S
C200 C209 1.429 . S
C201 C199 1.419 . S
C201 C202 1.363 . S
C201 H204 0.929 . S
C202 C201 1.363 . S
C202 C208 1.428 . S
H203 C199 0.930 . S
H204 C201 0.929 . S
S205 N206 1.613 . S
S205 N207 1.610 . S
N206 S205 1.613 . S
N206 C209 1.350 . S
N207 S205 1.610 . S
N207 C208 1.351 . S
C208 C202 1.428 . S
C208 N207 1.351 . S
C208 C209 1.434 . S
C209 C200 1.429 . S
C209 N206 1.350 . S
C209 C208 1.434 . S
C210 C211 1.369 . S
C210 C212 1.419 . S
C210 H214 0.930 . S
C211 C210 1.369 . S
C211 C220 1.429 . S
C212 C210 1.419 . S
C212 C213 1.363 . S
C212 H215 0.929 . S
C213 C212 1.363 . S
C213 C219 1.428 . S
H214 C210 0.930 . S
H215 C212 0.929 . S
S216 N217 1.613 . S
S216 N218 1.610 . S
N217 S216 1.613 . S
N217 C220 1.350 . S
N218 S216 1.610 . S
N218 C219 1.351 . S
C219 C213 1.428 . S
C219 N218 1.351 . S
C219 C220 1.434 . S
C220 C211 1.429 . S
C220 N217 1.350 . S
C220 C219 1.434 . S
C221 C222 1.369 . S
C221 C223 1.419 . S
C221 H225 0.930 . S
C222 C221 1.369 . S
C222 C231 1.429 . S
C223 C221 1.419 . S
C223 C224 1.363 . S
C223 H226 0.929 . S
C224 C223 1.363 . S
C224 C230 1.428 . S
H225 C221 0.930 . S
H226 C223 0.929 . S
S227 N228 1.613 . S
S227 N229 1.610 . S
N228 S227 1.613 . S
N228 C231 1.350 . S
N229 S227 1.610 . S
N229 C230 1.351 . S
C230 C224 1.428 . S
C230 N229 1.351 . S
C230 C231 1.434 . S
C231 C222 1.429 . S
C231 N228 1.350 . S
C231 C230 1.434 . S
C232 C233 1.369 . S
C232 C234 1.419 . S
C232 H236 0.930 . S
C233 C232 1.369 . S
C233 C242 1.429 . S
C234 C232 1.419 . S
C234 C235 1.363 . S
C234 H237 0.929 . S
C235 C234 1.363 . S
C235 C241 1.428 . S
H236 C232 0.930 . S
H237 C234 0.929 . S
S238 N239 1.613 . S
S238 N240 1.610 . S
N239 S238 1.613 . S
N239 C242 1.350 . S
N240 S238 1.610 . S
N240 C241 1.351 . S
C241 C235 1.428 . S
C241 N240 1.351 . S
C241 C242 1.434 . S
C242 C233 1.429 . S
C242 N239 1.350 . S
C242 C241 1.434 . S
C243 C244 1.369 . S
C243 C245 1.419 . S
C243 H247 0.930 . S
C244 C243 1.369 . S
C244 C253 1.429 . S
C245 C243 1.419 . S
C245 C246 1.363 . S
C245 H248 0.929 . S
C246 C245 1.363 . S
C246 C252 1.428 . S
H247 C243 0.930 . S
H248 C245 0.929 . S
S249 N250 1.613 . S
S249 N251 1.610 . S
N250 S249 1.613 . S
N250 C253 1.350 . S
N251 S249 1.610 . S
N251 C252 1.351 . S
C252 C246 1.428 . S
C252 N251 1.351 . S
C252 C253 1.434 . S
C253 C244 1.429 . S
C253 N250 1.350 . S
C253 C252 1.434 . S
C125 C93 1.525 . S
C123 C68 1.381 . S
C134 C11 1.390 . S
C136 C116 1.527 . S
C145 C30 1.427 . S
C147 C92 1.546 . S
C156 C49 1.419 . S
C158 C115 1.547 . S
C169 C96 1.534 . S
C167 C2 1.541 . S
C180 C118 1.533 . S
C178 C25 1.604 . S
C189 C40 1.564 . S
C191 C97 1.535 . S
C200 C59 1.565 . S
C202 C117 1.520 . S
C213 C120 1.432 . S
C211 C21 1.470 . S
C224 C95 1.441 . S
C222 C44 1.518 . S
C235 C119 1.443 . S
C233 C63 1.491 . S
C244 C6 1.498 . S
C246 C94 1.441 . S
