# Generated by pormake.
# Topology tsx, (6,3)-cn, num edge types: 1
# Building blocks:
#     Node 0, Type 0, BuildingBlock: VOLQOD_clean_sbu_1, # of connection points: 6
#     Node 1, Type 0, BuildingBlock: VOLQOD_clean_sbu_1, # of connection points: 6
#     Node 2, Type 1, BuildingBlock: ESEHIV_clean_linker_0, # of connection points: 3
#     Node 3, Type 1, BuildingBlock: ESEHIV_clean_linker_0, # of connection points: 3
#     Node 4, Type 1, BuildingBlock: ESEHIV_clean_linker_0, # of connection points: 3
#     Node 5, Type 1, BuildingBlock: ESEHIV_clean_linker_0, # of connection points: 3
#     Edge 6, Type (0, 1), BuildingBlock: OJICUG_clean_linker_0, # of connection points: 2
#     Edge 7, Type (0, 1), BuildingBlock: OJICUG_clean_linker_0, # of connection points: 2
#     Edge 8, Type (0, 1), BuildingBlock: OJICUG_clean_linker_0, # of connection points: 2
#     Edge 9, Type (0, 1), BuildingBlock: OJICUG_clean_linker_0, # of connection points: 2
#     Edge 10, Type (0, 1), BuildingBlock: OJICUG_clean_linker_0, # of connection points: 2
#     Edge 11, Type (0, 1), BuildingBlock: OJICUG_clean_linker_0, # of connection points: 2
#     Edge 12, Type (0, 1), BuildingBlock: OJICUG_clean_linker_0, # of connection points: 2
#     Edge 13, Type (0, 1), BuildingBlock: OJICUG_clean_linker_0, # of connection points: 2
#     Edge 14, Type (0, 1), BuildingBlock: OJICUG_clean_linker_0, # of connection points: 2
#     Edge 15, Type (0, 1), BuildingBlock: OJICUG_clean_linker_0, # of connection points: 2
#     Edge 16, Type (0, 1), BuildingBlock: OJICUG_clean_linker_0, # of connection points: 2
#     Edge 17, Type (0, 1), BuildingBlock: OJICUG_clean_linker_0, # of connection points: 2
# Relax obj value: 0.075
# Max RMSD: 0.108
# Mean RMSD: 0.082
data_MOF--net-tsx--node1-VOLQOD_clean_sbu_1--node2-ESEHIV_clean_linker_0--edge1-OJICUG_clean_linker_0
_symmetry_space_group_name_H-M    P1
_symmetry_Int_Tables_number       1
_symmetry_cell_setting            triclinic
loop_
_symmetry_equiv_pos_as_xyz
'x, y, z'
_cell_length_a     14.072961
_cell_length_b     14.448357
_cell_length_c     28.46434
_cell_angle_alpha  91.147566
_cell_angle_beta   89.972636
_cell_angle_gamma 90.283615
loop_
_atom_site_label
_atom_site_type_symbol
_atom_site_fract_x
_atom_site_fract_y
_atom_site_fract_z
_atom_type_partial_charge
O0 O 0.07639 0.97328 0.1 0.0
Zn1 Zn 0.11597 0.97997 0.03192 0.0
O2 O 0.00786 0.01237 -0.00605 0.0
Zn3 Zn 0.97411 0.90867 0.95306 0.0
Zn4 Zn 0.9026 0.03854 0.03544 0.0
Zn5 Zn 0.03459 0.12086 0.9574 0.0
O6 O 0.96009 0.94979 0.88679 0.0
O7 O 0.03466 0.08638 0.88833 0.0
O8 O 0.17723 0.86052 0.00904 0.0
O9 O 0.07953 0.81682 0.95154 0.0
O10 O 0.86008 0.83843 0.97675 0.0
O11 O 0.82426 0.9225 0.04055 0.0
O12 O 0.82293 0.14468 0.01147 0.0
O13 O 0.21393 0.0812 0.02872 0.0
O14 O 0.92675 0.21086 0.9637 0.0
O15 O 0.15828 0.1828 0.9781 0.0
C16 C 0.01405 0.02029 0.12251 0.0
C17 C -0.0049 0.01927 0.86586 0.0
C18 C 0.81296 0.85057 0.01452 0.0
C19 C 0.15415 0.80448 0.97574 0.0
C20 C 0.84582 0.20954 0.98378 0.0
C21 C 0.22199 0.15699 0.00688 0.0
O22 O 0.94917 0.06435 0.1013 0.0
O23 O 0.57384 0.45988 0.60049 0.0
Zn24 Zn 0.6107 0.47115 0.53208 0.0
O25 O 0.49891 0.49666 0.49508 0.0
Zn26 Zn 0.46535 0.38917 0.45684 0.0
Zn27 Zn 0.39589 0.53182 0.53699 0.0
Zn28 Zn 0.52338 0.59886 0.45459 0.0
O29 O 0.4599 0.42187 0.38822 0.0
O30 O 0.5398 0.55535 0.38808 0.0
O31 O 0.67784 0.35464 0.50819 0.0
O32 O 0.56866 0.29444 0.46012 0.0
O33 O 0.34283 0.33155 0.47947 0.0
O34 O 0.30123 0.42831 0.53753 0.0
O35 O 0.32272 0.64353 0.51494 0.0
O36 O 0.69894 0.58175 0.5299 0.0
O37 O 0.40811 0.67764 0.45198 0.0
O38 O 0.63439 0.67559 0.47798 0.0
C39 C 0.51033 0.50381 0.62377 0.0
C40 C 0.50089 0.48716 0.36636 0.0
C41 C 0.28691 0.35509 0.51286 0.0
C42 C 0.64942 0.29027 0.4801 0.0
C43 C 0.3356 0.68997 0.47793 0.0
C44 C 0.69837 0.6582 0.5082 0.0
O45 O 0.44345 0.54682 0.60343 0.0
H46 H 0.87223 0.08683 0.33343 0.0
H47 H 0.12558 0.92337 0.3308 0.0
H48 H 0.96446 0.95447 0.45842 0.0
C49 C 0.92338 0.04376 0.35101 0.0
C50 C 0.91513 0.03127 0.39964 0.0
C51 C -0.00282 0.00151 0.32538 0.0
C52 C 0.06389 0.94867 0.34963 0.0
C53 C 0.05213 0.92813 0.39743 0.0
C54 C 0.97685 0.97034 0.42216 0.0
H55 H 0.88449 0.90475 0.65639 0.0
H56 H 0.06543 0.14548 0.65725 0.0
H57 H 0.97048 0.0254 0.52661 0.0
C58 C 0.92413 0.95704 0.63779 0.0
C59 C 0.92377 0.95518 0.58847 0.0
C60 C 0.97415 0.02597 0.66313 0.0
C61 C 0.02281 0.09448 0.63829 0.0
C62 C 0.02116 0.09517 0.58899 0.0
C63 C 0.97104 0.02551 0.56438 0.0
H64 H 0.37437 0.57881 0.83174 0.0
H65 H 0.62961 0.416 0.83551 0.0
H66 H 0.48456 0.4896 0.96342 0.0
C67 C 0.4277 0.5418 0.85119 0.0
C68 C 0.42206 0.54107 0.90044 0.0
C69 C 0.50221 0.49699 0.82708 0.0
C70 C 0.57078 0.44984 0.85326 0.0
C71 C 0.56432 0.44579 0.90244 0.0
C72 C 0.48962 0.49139 0.9257 0.0
H73 H 0.43178 0.36518 0.15149 0.0
H74 H 0.61355 0.60269 0.16383 0.0
H75 H 0.56635 0.47091 0.02872 0.0
C76 C 0.4796 0.41459 0.13559 0.0
C77 C 0.49224 0.41236 0.08678 0.0
C78 C 0.52489 0.48209 0.16368 0.0
C79 C 0.58176 0.54904 0.14202 0.0
C80 C 0.59748 0.5474 0.09306 0.0
C81 C 0.55301 0.47696 0.06588 0.0
C82 C 0.30152 0.31344 0.00694 0.0
C83 C 0.30236 0.21965 0.01937 0.0
H84 H 0.36158 0.44867 0.01916 0.0
C85 C 0.37561 0.18829 0.04863 0.0
H86 H 0.24624 0.33993 0.9845 0.0
C87 C 0.44178 0.25036 0.06798 0.0
C88 C 0.43657 0.34491 0.05826 0.0
H89 H 0.3792 0.11639 0.05852 0.0
H90 H 0.49431 0.22525 0.09239 0.0
C91 C 0.36789 0.37567 0.02647 0.0
C92 C 0.31025 0.72195 0.98083 0.0
C93 C 0.21827 0.72761 0.96199 0.0
H94 H 0.44687 0.65877 0.97577 0.0
C95 C 0.1906 0.66349 0.92665 0.0
H96 H 0.33383 0.77003 0.00814 0.0
C97 C 0.2553 0.59928 0.90844 0.0
C98 C 0.3491 0.59771 0.92511 0.0
H99 H 0.11983 0.66495 0.91174 0.0
H100 H 0.23283 0.55282 0.88019 0.0
C101 C 0.37502 0.65768 0.96249 0.0
C102 C 0.69427 0.72132 0.00489 0.0
C103 C 0.75763 0.77282 0.03306 0.0
H104 H 0.59303 0.61138 0.00145 0.0
C105 C 0.77382 0.74596 0.07934 0.0
H106 H 0.68236 0.73976 0.96867 0.0
C107 C 0.7262 0.67007 0.09765 0.0
C108 C 0.65723 0.62123 0.07095 0.0
H109 H 0.82543 0.78248 0.10116 0.0
H110 H 0.74461 0.65025 0.1329 0.0
C111 C 0.64365 0.64704 0.02381 0.0
C112 C 0.67747 0.26771 0.98066 0.0
C113 C 0.77439 0.27907 0.96982 0.0
H114 H 0.53457 0.3113 0.9671 0.0
C115 C 0.80157 0.35223 0.9407 0.0
H116 H 0.65396 0.21216 0.00293 0.0
C117 C 0.73335 0.40875 0.9205 0.0
C118 C 0.63639 0.39378 0.92901 0.0
H119 H 0.87553 0.36379 0.93194 0.0
H120 H 0.75629 0.46261 0.89703 0.0
C121 C 0.60905 0.32448 0.96028 0.0
C122 C 0.83477 0.71448 0.55748 0.0
C123 C 0.76658 0.73197 0.52274 0.0
H124 H 0.93838 0.77134 0.60495 0.0
C125 C 0.75789 0.8227 0.50606 0.0
H126 H 0.8443 0.64547 0.57084 0.0
C127 C 0.81188 0.89516 0.52594 0.0
C128 C 0.87531 0.87811 0.56282 0.0
H129 H 0.70636 0.83865 0.47919 0.0
H130 H 0.80066 0.96502 0.51405 0.0
C131 C 0.88837 0.78669 0.57728 0.0
C132 C 0.80933 0.21258 0.48137 0.0
C133 C 0.71428 0.21373 0.46607 0.0
H134 H 0.94774 0.15333 0.47185 0.0
C135 C 0.68387 0.1459 0.43305 0.0
H136 H 0.83524 0.26356 0.50673 0.0
C137 C 0.74821 0.0829 0.41337 0.0
C138 C 0.84407 0.08557 0.42661 0.0
H139 H 0.61112 0.14398 0.42066 0.0
H140 H 0.72388 0.03437 0.38641 0.0
C141 C 0.87367 0.1491 0.4617 0.0
C142 C 0.20252 0.20199 0.5079 0.0
C143 C 0.20833 0.29274 0.52638 0.0
H144 H 0.13899 0.06817 0.51355 0.0
C145 C 0.14342 0.32085 0.56138 0.0
H146 H 0.25113 0.17821 0.48077 0.0
C147 C 0.07877 0.25782 0.57984 0.0
C148 C 0.07773 0.16533 0.5638 0.0
H149 H 0.14487 0.39072 0.5759 0.0
H150 H 0.03182 0.28064 0.60789 0.0
C151 C 0.13789 0.13887 0.52653 0.0
C152 C 0.20899 0.81108 0.48855 0.0
C153 C 0.25894 0.7481 0.45986 0.0
H154 H 0.10514 0.9183 0.49164 0.0
C155 C 0.23493 0.73888 0.41227 0.0
H156 H 0.22536 0.81798 0.52564 0.0
C157 C 0.16468 0.79369 0.39306 0.0
C158 C 0.11889 0.8625 0.4204 0.0
H159 H 0.27018 0.68826 0.38977 0.0
H160 H 0.14706 0.78176 0.35644 0.0
C161 C 0.14 0.86844 0.46889 0.0
C162 C 0.04437 0.93927 0.19722 0.0
C163 C 0.01308 0.01839 0.17426 0.0
H164 H 0.05945 0.87004 0.26202 0.0
C165 C 0.97754 0.09324 0.20103 0.0
H166 H 0.0706 0.87993 0.17737 0.0
C167 C 0.97404 0.08913 0.25009 0.0
C168 C 0.00383 0.00906 0.27325 0.0
H169 H 0.95324 0.15525 0.18405 0.0
H170 H 0.94835 0.14888 0.26971 0.0
C171 C 0.0385 0.93408 0.24596 0.0
C172 C 0.98758 0.10611 0.79095 0.0
C173 C 0.98982 0.02148 0.81423 0.0
H174 H 0.97677 0.17413 0.72524 0.0
C175 C 0.98627 0.9385 0.78781 0.0
H176 H 0.98925 0.1711 0.8106 0.0
C177 C 0.98172 0.94 0.7389 0.0
C178 C 0.97845 0.0246 0.71533 0.0
H179 H 0.98882 0.87223 0.80492 0.0
H180 H 0.9823 0.87462 0.71964 0.0
C181 C 0.9809 0.10769 0.74202 0.0
C182 C 0.47845 0.5797 0.7016 0.0
C183 C 0.51265 0.50349 0.67554 0.0
H184 H 0.45292 0.6397 0.76945 0.0
C185 C 0.54644 0.42617 0.69935 0.0
H186 H 0.45309 0.64068 0.68405 0.0
C187 C 0.54321 0.42394 0.7484 0.0
C188 C 0.50831 0.50002 0.77478 0.0
H189 H 0.57253 0.36617 0.67998 0.0
H190 H 0.56605 0.36156 0.76545 0.0
C191 C 0.47758 0.57858 0.75062 0.0
C192 C 0.5033 0.40067 0.2894 0.0
C193 C 0.50253 0.48507 0.31463 0.0
H194 H 0.51401 0.33339 0.22203 0.0
C195 C 0.50462 0.56828 0.29007 0.0
H196 H 0.50201 0.33553 0.3076 0.0
C197 C 0.50862 0.56729 0.24114 0.0
C198 C 0.51311 0.48299 0.21564 0.0
H199 H 0.50242 0.63437 0.30872 0.0
H200 H 0.50829 0.63285 0.22338 0.0
C201 C 0.50953 0.3996 0.24038 0.0
loop_
_geom_bond_atom_site_label_1
_geom_bond_atom_site_label_2
_geom_bond_distance
_geom_bond_site_symmetry_2
_ccdc_geom_bond_type
O0 Zn1 1.953 . S
O0 C16 1.225 1_565 S
Zn1 O0 1.953 . S
Zn1 O2 1.949 1_565 S
Zn1 O8 1.919 . S
Zn1 O13 1.924 1_565 S
O2 Zn1 1.949 1_545 S
O2 Zn3 1.923 1_444 S
O2 Zn4 1.950 1_455 S
O2 Zn5 1.945 1_554 S
Zn3 O2 1.923 1_666 S
Zn3 O6 1.933 . S
Zn3 O9 1.941 1_655 S
Zn3 O10 1.965 . S
Zn4 O2 1.950 1_655 S
Zn4 O11 1.938 1_545 S
Zn4 O12 1.906 . S
Zn4 O22 1.953 . S
Zn5 O2 1.945 1_556 S
Zn5 O7 1.932 . S
Zn5 O14 1.977 1_455 S
Zn5 O15 1.910 . S
O6 Zn3 1.933 . S
O6 C17 1.226 1_665 S
O7 Zn5 1.932 . S
O7 C17 1.307 . S
O8 Zn1 1.919 . S
O8 C19 1.253 1_554 S
O9 Zn3 1.941 1_455 S
O9 C19 1.283 . S
O10 Zn3 1.965 . S
O10 C18 1.303 1_556 S
O11 Zn4 1.938 1_565 S
O11 C18 1.247 . S
O12 Zn4 1.906 . S
O12 C20 1.304 1_554 S
O13 Zn1 1.924 1_545 S
O13 C21 1.311 . S
O14 Zn5 1.977 1_655 S
O14 C20 1.272 . S
O15 Zn5 1.910 . S
O15 C21 1.231 1_556 S
C16 O0 1.225 1_545 S
C16 O22 1.298 1_455 S
C17 O6 1.226 1_445 S
C17 O7 1.307 . S
C18 O10 1.303 1_554 S
C18 O11 1.247 . S
C19 O8 1.253 1_556 S
C19 O9 1.283 . S
C20 O12 1.304 1_556 S
C20 O14 1.272 . S
C21 O13 1.311 . S
C21 O15 1.231 1_554 S
O22 Zn4 1.953 . S
O22 C16 1.298 1_655 S
O23 Zn24 1.953 . S
O23 C39 1.225 . S
Zn24 O23 1.953 . S
Zn24 O25 1.949 . S
Zn24 O31 1.919 . S
Zn24 O36 1.924 . S
O25 Zn24 1.949 . S
O25 Zn26 1.923 . S
O25 Zn27 1.950 . S
O25 Zn28 1.945 . S
Zn26 O25 1.923 . S
Zn26 O29 1.933 . S
Zn26 O32 1.941 . S
Zn26 O33 1.965 . S
Zn27 O25 1.950 . S
Zn27 O34 1.938 . S
Zn27 O35 1.906 . S
Zn27 O45 1.953 . S
Zn28 O25 1.945 . S
Zn28 O30 1.932 . S
Zn28 O37 1.977 . S
Zn28 O38 1.910 . S
O29 Zn26 1.933 . S
O29 C40 1.226 . S
O30 Zn28 1.932 . S
O30 C40 1.307 . S
O31 Zn24 1.919 . S
O31 C42 1.253 . S
O32 Zn26 1.941 . S
O32 C42 1.283 . S
O33 Zn26 1.965 . S
O33 C41 1.303 . S
O34 Zn27 1.938 . S
O34 C41 1.247 . S
O35 Zn27 1.906 . S
O35 C43 1.304 . S
O36 Zn24 1.924 . S
O36 C44 1.311 . S
O37 Zn28 1.977 . S
O37 C43 1.272 . S
O38 Zn28 1.910 . S
O38 C44 1.231 . S
C39 O23 1.225 . S
C39 O45 1.298 . S
C40 O29 1.226 . S
C40 O30 1.307 . S
C41 O33 1.303 . S
C41 O34 1.247 . S
C42 O31 1.253 . S
C42 O32 1.283 . S
C43 O35 1.304 . S
C43 O37 1.272 . S
C44 O36 1.311 . S
C44 O38 1.231 . S
O45 Zn27 1.953 . S
O45 C39 1.298 . S
H46 C49 0.931 . S
H47 C52 0.928 . S
H48 C54 0.930 1_545 S
C49 H46 0.931 . S
C49 C50 1.413 . S
C49 C51 1.365 1_545 S
C50 C49 1.413 . S
C50 C54 1.422 1_645 S
C51 C49 1.365 1_565 S
C51 C52 1.367 1_655 S
C52 H47 0.928 . S
C52 C51 1.367 1_455 S
C52 C53 1.404 . S
C53 C52 1.404 . S
C53 C54 1.398 . S
C54 H48 0.930 1_565 S
C54 C50 1.422 1_465 S
C54 C53 1.398 . S
H55 C58 0.931 . S
H56 C61 0.928 . S
H57 C63 0.930 . S
C58 H55 0.931 . S
C58 C59 1.413 . S
C58 C60 1.360 1_665 S
C59 C58 1.413 . S
C59 C63 1.429 1_665 S
C60 C58 1.360 1_445 S
C60 C61 1.372 . S
C61 H56 0.928 . S
C61 C60 1.372 . S
C61 C62 1.404 . S
C62 C61 1.404 . S
C62 C63 1.391 . S
C63 H57 0.930 . S
C63 C59 1.429 1_445 S
C63 C62 1.391 . S
H64 C67 0.931 . S
H65 C70 0.928 . S
H66 C72 0.930 . S
C67 H64 0.931 . S
C67 C68 1.413 . S
C67 C69 1.360 . S
C68 C67 1.413 . S
C68 C72 1.429 . S
C69 C67 1.360 . S
C69 C70 1.372 . S
C70 H65 0.928 . S
C70 C69 1.372 . S
C70 C71 1.404 . S
C71 C70 1.404 . S
C71 C72 1.391 . S
C72 H66 0.930 . S
C72 C68 1.429 . S
C72 C71 1.391 . S
H73 C76 0.931 . S
H74 C79 0.928 . S
H75 C81 0.930 . S
C76 H73 0.931 . S
C76 C77 1.413 . S
C76 C78 1.360 . S
C77 C76 1.413 . S
C77 C81 1.429 . S
C78 C76 1.360 . S
C78 C79 1.372 . S
C79 H74 0.928 . S
C79 C78 1.372 . S
C79 C80 1.404 . S
C80 C79 1.404 . S
C80 C81 1.391 . S
C81 H75 0.930 . S
C81 C77 1.429 . S
C81 C80 1.391 . S
C82 C83 1.387 . S
C82 H86 0.950 1_554 S
C82 C91 1.390 . S
C83 C82 1.387 . S
C83 C85 1.387 . S
H84 C91 0.950 . S
C85 C83 1.387 . S
C85 C87 1.390 . S
C85 H89 0.950 . S
H86 C82 0.950 1_556 S
C87 C85 1.390 . S
C87 C88 1.387 . S
C87 H90 0.950 . S
C88 C87 1.387 . S
C88 C91 1.387 . S
H89 C85 0.950 . S
H90 C87 0.950 . S
C91 C82 1.390 . S
C91 H84 0.950 . S
C91 C88 1.387 . S
C92 C93 1.387 . S
C92 H96 0.950 . S
C92 C101 1.390 . S
C93 C92 1.387 . S
C93 C95 1.387 . S
H94 C101 0.950 . S
C95 C93 1.387 . S
C95 C97 1.390 . S
C95 H99 0.950 . S
H96 C92 0.950 . S
C97 C95 1.390 . S
C97 C98 1.387 . S
C97 H100 0.950 . S
C98 C97 1.387 . S
C98 C101 1.387 . S
H99 C95 0.950 . S
H100 C97 0.950 . S
C101 C92 1.390 . S
C101 H94 0.950 . S
C101 C98 1.387 . S
C102 C103 1.387 . S
C102 H106 0.950 1_554 S
C102 C111 1.390 . S
C103 C102 1.387 . S
C103 C105 1.387 . S
H104 C111 0.950 . S
C105 C103 1.387 . S
C105 C107 1.390 . S
C105 H109 0.950 . S
H106 C102 0.950 1_556 S
C107 C105 1.390 . S
C107 C108 1.387 . S
C107 H110 0.950 . S
C108 C107 1.387 . S
C108 C111 1.387 . S
H109 C105 0.950 . S
H110 C107 0.950 . S
C111 C102 1.390 . S
C111 H104 0.950 . S
C111 C108 1.387 . S
C112 C113 1.387 . S
C112 H116 0.950 . S
C112 C121 1.390 . S
C113 C112 1.387 . S
C113 C115 1.387 1_556 S
H114 C121 0.950 . S
C115 C113 1.387 1_554 S
C115 C117 1.390 1_554 S
C115 H119 0.950 . S
H116 C112 0.950 . S
C117 C115 1.390 1_556 S
C117 C118 1.387 . S
C117 H120 0.950 1_556 S
C118 C117 1.387 . S
C118 C121 1.387 . S
H119 C115 0.950 . S
H120 C117 0.950 1_554 S
C121 C112 1.390 . S
C121 H114 0.950 . S
C121 C118 1.387 . S
C122 C123 1.387 . S
C122 H126 0.950 . S
C122 C131 1.390 . S
C123 C122 1.387 . S
C123 C125 1.387 . S
H124 C131 0.950 . S
C125 C123 1.387 . S
C125 C127 1.390 . S
C125 H129 0.950 . S
H126 C122 0.950 . S
C127 C125 1.390 . S
C127 C128 1.387 . S
C127 H130 0.950 . S
C128 C127 1.387 . S
C128 C131 1.387 . S
H129 C125 0.950 . S
H130 C127 0.950 . S
C131 C122 1.390 . S
C131 H124 0.950 . S
C131 C128 1.387 . S
C132 C133 1.387 . S
C132 H136 0.950 . S
C132 C141 1.390 . S
C133 C132 1.387 . S
C133 C135 1.387 . S
H134 C141 0.950 . S
C135 C133 1.387 . S
C135 C137 1.390 . S
C135 H139 0.950 . S
H136 C132 0.950 . S
C137 C135 1.390 . S
C137 C138 1.387 . S
C137 H140 0.950 . S
C138 C137 1.387 . S
C138 C141 1.387 . S
H139 C135 0.950 . S
H140 C137 0.950 . S
C141 C132 1.390 . S
C141 H134 0.950 . S
C141 C138 1.387 . S
C142 C143 1.387 . S
C142 H146 0.950 . S
C142 C151 1.390 . S
C143 C142 1.387 . S
C143 C145 1.387 . S
H144 C151 0.950 . S
C145 C143 1.387 . S
C145 C147 1.390 . S
C145 H149 0.950 . S
H146 C142 0.950 . S
C147 C145 1.390 . S
C147 C148 1.387 . S
C147 H150 0.950 . S
C148 C147 1.387 . S
C148 C151 1.387 . S
H149 C145 0.950 . S
H150 C147 0.950 . S
C151 C142 1.390 . S
C151 H144 0.950 . S
C151 C148 1.387 . S
C152 C153 1.387 . S
C152 H156 0.950 . S
C152 C161 1.390 . S
C153 C152 1.387 . S
C153 C155 1.387 . S
H154 C161 0.950 . S
C155 C153 1.387 . S
C155 C157 1.390 . S
C155 H159 0.950 . S
H156 C152 0.950 . S
C157 C155 1.390 . S
C157 C158 1.387 . S
C157 H160 0.950 . S
C158 C157 1.387 . S
C158 C161 1.387 . S
H159 C155 0.950 . S
H160 C157 0.950 . S
C161 C152 1.390 . S
C161 H154 0.950 . S
C161 C158 1.387 . S
C162 C163 1.387 1_565 S
C162 H166 0.950 . S
C162 C171 1.390 . S
C163 C162 1.387 1_545 S
C163 C165 1.387 1_455 S
H164 C171 0.950 . S
C165 C163 1.387 1_655 S
C165 C167 1.390 . S
C165 H169 0.950 . S
H166 C162 0.950 . S
C167 C165 1.390 . S
C167 C168 1.387 1_655 S
C167 H170 0.950 . S
C168 C167 1.387 1_455 S
C168 C171 1.387 1_545 S
H169 C165 0.950 . S
H170 C167 0.950 . S
C171 C162 1.390 . S
C171 H164 0.950 . S
C171 C168 1.387 1_565 S
C172 C173 1.387 . S
C172 H176 0.950 . S
C172 C181 1.390 . S
C173 C172 1.387 . S
C173 C175 1.387 1_445 S
H174 C181 0.950 . S
C175 C173 1.387 1_665 S
C175 C177 1.390 . S
C175 H179 0.950 . S
H176 C172 0.950 . S
C177 C175 1.390 . S
C177 C178 1.387 1_665 S
C177 H180 0.950 . S
C178 C177 1.387 1_445 S
C178 C181 1.387 . S
H179 C175 0.950 . S
H180 C177 0.950 . S
C181 C172 1.390 . S
C181 H174 0.950 . S
C181 C178 1.387 . S
C182 C183 1.387 . S
C182 H186 0.950 . S
C182 C191 1.390 . S
C183 C182 1.387 . S
C183 C185 1.387 . S
H184 C191 0.950 . S
C185 C183 1.387 . S
C185 C187 1.390 . S
C185 H189 0.950 . S
H186 C182 0.950 . S
C187 C185 1.390 . S
C187 C188 1.387 . S
C187 H190 0.950 . S
C188 C187 1.387 . S
C188 C191 1.387 . S
H189 C185 0.950 . S
H190 C187 0.950 . S
C191 C182 1.390 . S
C191 H184 0.950 . S
C191 C188 1.387 . S
C192 C193 1.387 . S
C192 H196 0.950 . S
C192 C201 1.390 . S
C193 C192 1.387 . S
C193 C195 1.387 . S
H194 C201 0.950 . S
C195 C193 1.387 . S
C195 C197 1.390 . S
C195 H199 0.950 . S
H196 C192 0.950 . S
C197 C195 1.390 . S
C197 C198 1.387 . S
C197 H200 0.950 . S
C198 C197 1.387 . S
C198 C201 1.387 . S
H199 C195 0.950 . S
H200 C197 0.950 . S
C201 C192 1.390 . S
C201 H194 0.950 . S
C201 C198 1.387 . S
C88 C77 1.454 . S
C83 C21 1.453 . S
C93 C19 1.452 . S
C98 C68 1.455 . S
C103 C18 1.428 . S
C108 C80 1.435 . S
C113 C20 1.446 . S
C118 C71 1.445 . S
C123 C44 1.454 . S
C128 C59 1.454 . S
C133 C42 1.452 . S
C138 C50 1.455 . S
C148 C62 1.435 . S
C143 C41 1.428 . S
C158 C53 1.445 . S
C153 C43 1.447 . S
C163 C16 1.499 . S
C168 C51 1.499 1_445 S
C173 C17 1.473 . S
C178 C60 1.474 . S
C188 C69 1.499 . S
C183 C39 1.499 . S
C193 C40 1.473 . S
C198 C78 1.474 . S
