# Generated by pormake.
# Topology sit, (3,6)-cn, num edge types: 1
# Building blocks:
#     Node 0, Type 0, BuildingBlock: QEWDON_clean_linker_0, # of connection points: 3
#     Node 1, Type 0, BuildingBlock: QEWDON_clean_linker_0, # of connection points: 3
#     Node 2, Type 0, BuildingBlock: QEWDON_clean_linker_0, # of connection points: 3
#     Node 3, Type 0, BuildingBlock: QEWDON_clean_linker_0, # of connection points: 3
#     Node 4, Type 1, BuildingBlock: MIDCAF_clean_sbu_0, # of connection points: 6
#     Node 5, Type 1, BuildingBlock: MIDCAF_clean_sbu_0, # of connection points: 6
#     Edge 6, Type (0, 1), BuildingBlock: OJICUG_clean_linker_0, # of connection points: 2
#     Edge 7, Type (0, 1), BuildingBlock: OJICUG_clean_linker_0, # of connection points: 2
#     Edge 8, Type (0, 1), BuildingBlock: OJICUG_clean_linker_0, # of connection points: 2
#     Edge 9, Type (0, 1), BuildingBlock: OJICUG_clean_linker_0, # of connection points: 2
#     Edge 10, Type (0, 1), BuildingBlock: OJICUG_clean_linker_0, # of connection points: 2
#     Edge 11, Type (0, 1), BuildingBlock: OJICUG_clean_linker_0, # of connection points: 2
#     Edge 12, Type (0, 1), BuildingBlock: OJICUG_clean_linker_0, # of connection points: 2
#     Edge 13, Type (0, 1), BuildingBlock: OJICUG_clean_linker_0, # of connection points: 2
#     Edge 14, Type (0, 1), BuildingBlock: OJICUG_clean_linker_0, # of connection points: 2
#     Edge 15, Type (0, 1), BuildingBlock: OJICUG_clean_linker_0, # of connection points: 2
#     Edge 16, Type (0, 1), BuildingBlock: OJICUG_clean_linker_0, # of connection points: 2
#     Edge 17, Type (0, 1), BuildingBlock: OJICUG_clean_linker_0, # of connection points: 2
# Relax obj value: 0.077
# Max RMSD: 0.186
# Mean RMSD: 0.145
data_MOF--net-sit--node1-MIDCAF_clean_sbu_0--node2-QEWDON_clean_linker_0--edge1-OJICUG_clean_linker_0
_symmetry_space_group_name_H-M    P1
_symmetry_Int_Tables_number       1
_symmetry_cell_setting            triclinic
loop_
_symmetry_equiv_pos_as_xyz
'x, y, z'
_cell_length_a     16.337072
_cell_length_b     24.264079
_cell_length_c     29.371611
_cell_angle_alpha  90.871371
_cell_angle_beta   82.47725
_cell_angle_gamma 80.812369
loop_
_atom_site_label
_atom_site_type_symbol
_atom_site_fract_x
_atom_site_fract_y
_atom_site_fract_z
_atom_type_partial_charge
H0 H 0.17416 0.34174 0.03182 0.0
C1 C 0.11215 0.36315 0.02794 0.0
C2 C 0.09959 0.41937 0.01489 0.0
C3 C 0.04566 0.33265 0.03243 0.0
H4 H 0.00702 0.48777 0.99832 0.0
C5 C 0.01854 0.44483 0.00861 0.0
C6 C -0.04594 0.4133 0.00961 0.0
C7 C -0.03287 0.35761 0.02249 0.0
C8 C 0.05958 0.27279 0.04232 0.0
H9 H 0.91758 0.33276 0.02209 0.0
C10 C 0.04511 0.25582 0.08763 0.0
C11 C 0.05134 0.19864 0.09729 0.0
C12 C 0.08185 0.23254 0.00625 0.0
H13 H 0.09244 0.24511 0.971 0.0
C14 C 0.0892 0.17579 0.01545 0.0
H15 H 0.02901 0.28744 0.1152 0.0
C16 C 0.07376 0.15881 0.0606 0.0
H17 H 0.0781 0.11459 0.06663 0.0
H18 H 0.1059 0.14486 0.98745 0.0
H19 H 0.04357 0.77391 0.08172 0.0
C20 C 0.00244 0.75249 0.06445 0.0
C21 C 0.03806 0.70743 0.03367 0.0
C22 C 0.91484 0.7695 0.07253 0.0
H23 H 0.01359 0.64392 0.98748 0.0
C24 C -0.0138 0.67809 0.01179 0.0
C25 C 0.89952 0.69469 0.0189 0.0
C26 C 0.86453 0.74055 0.04866 0.0
C27 C 0.87503 0.81716 0.1053 0.0
H28 H 0.79774 0.75487 0.0516 0.0
C29 C 0.91779 0.86144 0.11451 0.0
C30 C 0.88237 0.90368 0.14823 0.0
C31 C 0.79391 0.81774 0.12886 0.0
H32 H 0.75939 0.78397 0.12445 0.0
C33 C 0.7564 0.86125 0.15985 0.0
H34 H -0.02057 0.86262 0.0963 0.0
C35 C 0.80022 0.90358 0.16985 0.0
H36 H 0.77104 0.93427 0.19663 0.0
H37 H 0.69418 0.86087 0.17773 0.0
H38 H 0.66719 0.83974 0.5456 0.0
C39 C 0.61198 0.86013 0.53229 0.0
C40 C 0.61005 0.91262 0.51147 0.0
C41 C 0.54408 0.83104 0.53316 0.0
H42 H 0.53035 0.97541 0.47771 0.0
C43 C 0.53488 0.93696 0.49594 0.0
C44 C 0.46613 0.90916 0.49881 0.0
C45 C 0.4711 0.85595 0.5167 0.0
C46 C 0.55331 0.77146 0.54425 0.0
H47 H 0.41968 0.83284 0.51573 0.0
C48 C 0.54247 0.75514 0.58991 0.0
C49 C 0.54505 0.69821 0.60003 0.0
C50 C 0.56858 0.73073 0.50842 0.0
H51 H 0.57658 0.74274 0.47293 0.0
C52 C 0.57283 0.67431 0.51811 0.0
H53 H 0.53138 0.78692 0.61733 0.0
C54 C 0.5608 0.65803 0.56357 0.0
H55 H 0.56217 0.6141 0.57006 0.0
H56 H 0.58432 0.64313 0.49028 0.0
H57 H 0.55139 0.26815 0.58212 0.0
C58 C 0.51038 0.24695 0.5646 0.0
C59 C 0.54646 0.20292 0.53297 0.0
C60 C 0.42267 0.2636 0.57274 0.0
H61 H 0.52325 0.14091 0.48503 0.0
C62 C 0.49522 0.17406 0.51016 0.0
C63 C 0.40835 0.19008 0.51746 0.0
C64 C 0.37287 0.23504 0.54808 0.0
C65 C 0.38225 0.3109 0.60591 0.0
H66 H 0.30606 0.24909 0.55087 0.0
C67 C 0.4253 0.35444 0.61687 0.0
C68 C 0.38829 0.39672 0.65026 0.0
C69 C 0.2998 0.31209 0.62793 0.0
H70 H 0.26488 0.27883 0.6225 0.0
C71 C 0.26113 0.35561 0.65863 0.0
H72 H 0.48819 0.35527 0.60027 0.0
C73 C 0.30488 0.39739 0.67001 0.0
H74 H 0.27455 0.42825 0.69643 0.0
H75 H 0.19785 0.35573 0.67517 0.0
Zn76 Zn 0.01822 0.17594 0.37872 0.0
Zn77 Zn 0.05768 0.96334 0.36474 0.0
Zn78 Zn 0.02496 0.06737 0.37707 0.0
C79 C 0.03471 0.99523 0.28013 0.0
C80 C 0.90694 0.98973 0.42594 0.0
O81 O 0.13353 0.08858 0.40725 0.0
O82 O 0.12787 0.17969 0.39908 0.0
C83 C 0.01231 0.14867 0.2891 0.0
O84 O 0.0204 1.04233 0.30322 0.0
O85 O 0.05612 0.95057 0.29982 0.0
O86 O -0.03996 0.94969 0.40708 0.0
O87 O 0.91725 1.04055 0.41863 0.0
O88 O 0.00409 0.19203 0.31457 0.0
O89 O 0.0223 0.09987 0.30645 0.0
O90 O 0.90973 0.10083 0.42466 0.0
O91 O 0.91783 0.19106 0.4251 0.0
C92 C 0.88081 0.1515 0.43937 0.0
O93 O 0.14285 1.02993 0.40464 0.0
O94 O 0.16469 0.94 0.38465 0.0
C95 C 0.16412 0.13381 0.41179 0.0
C96 C 0.18715 0.98071 0.40377 0.0
Zn97 Zn 0.51108 0.6753 0.88159 0.0
Zn98 Zn 0.5457 0.46161 0.87449 0.0
Zn99 Zn 0.51911 0.56764 0.88015 0.0
C100 C 0.5285 0.49136 0.78675 0.0
C101 C 0.3964 0.49444 0.93296 0.0
O102 O 0.62664 0.58916 0.91057 0.0
O103 O 0.62085 0.68003 0.90097 0.0
C104 C 0.50718 0.64679 0.79164 0.0
O105 O 0.5184 0.54004 0.80697 0.0
O106 O 0.54222 0.448 0.80943 0.0
O107 O 0.44832 0.45153 0.91883 0.0
O108 O 0.40947 0.54342 0.92089 0.0
O109 O 0.49643 0.69001 0.81749 0.0
O110 O 0.51911 0.59786 0.80867 0.0
O111 O 0.40227 0.60321 0.92607 0.0
O112 O 0.41164 0.6931 0.92819 0.0
C113 C 0.37348 0.65369 0.9414 0.0
O114 O 0.63473 0.53066 0.91011 0.0
O115 O 0.65308 0.4397 0.89447 0.0
C116 C 0.65712 0.63454 0.9143 0.0
C117 C 0.67697 0.48111 0.91172 0.0
C118 C 0.08267 0.13343 0.16123 0.0
C119 C 0.03463 0.18109 0.14554 0.0
H120 H 0.11259 0.08534 0.21933 0.0
C121 C -0.02727 0.21363 0.17699 0.0
H122 H 0.13124 0.10753 0.13812 0.0
C123 C -0.03689 0.20126 0.22337 0.0
C124 C 0.01376 0.15535 0.23928 0.0
H125 H -0.06731 0.24955 0.16603 0.0
H126 H 0.91724 0.22848 0.24709 0.0
C127 C 0.072 0.12054 0.20772 0.0
C128 C 0.89819 0.99322 0.18892 0.0
C129 C -0.06518 0.94118 0.16719 0.0
H130 H 0.90328 1.05307 0.24264 0.0
C131 C 0.01794 0.91967 0.17281 0.0
H132 H 0.83563 1.01239 0.18391 0.0
C133 C 0.05731 0.94404 0.2053 0.0
C134 C 0.01408 0.98978 0.23313 0.0
H135 H 0.04932 0.88023 0.1566 0.0
H136 H 0.11729 0.92266 0.21278 0.0
C137 C -0.06253 1.01726 0.22203 0.0
C138 C 0.47029 0.71467 0.68033 0.0
C139 C 0.52987 0.68112 0.64843 0.0
H140 H 0.416 0.72943 0.75052 0.0
C141 C 0.57576 0.63216 0.66349 0.0
H142 H 0.43198 0.75166 0.66979 0.0
C143 C 0.56505 0.61871 0.70987 0.0
C144 C 0.50882 0.65422 0.74188 0.0
H145 H 0.62246 0.60545 0.6399 0.0
H146 H 0.60391 0.58234 0.721 0.0
C147 C 0.46039 0.7016 0.72652 0.0
C148 C 0.52007 0.41079 0.68019 0.0
C149 C 0.43959 0.43362 0.67089 0.0
H150 H 0.61364 0.4135 0.72418 0.0
C151 C 0.40292 0.48673 0.69052 0.0
H152 H 0.55102 0.37034 0.66573 0.0
C153 C 0.43914 0.5114 0.72467 0.0
C154 C 0.51258 0.48332 0.73911 0.0
H155 H 0.34224 0.50652 0.68291 0.0
H156 H 0.40457 0.54855 0.74336 0.0
C157 C 0.55625 0.43556 0.71392 0.0
C158 C 0.24697 0.4355 0.01935 0.0
C159 C 0.17223 0.44797 0.9999 0.0
H160 H 0.37786 0.44052 0.01268 0.0
C161 C 0.17063 0.48304 0.96196 0.0
H162 H 0.25041 0.4098 0.04906 0.0
C163 C 0.24272 0.50224 0.94247 0.0
C164 C 0.31808 0.48587 0.95985 0.0
H165 H 0.1155 0.49282 0.94496 0.0
H166 H 0.2409 0.52659 0.91188 0.0
C167 C 0.31967 0.45352 0.99895 0.0
C168 C 0.86303 0.66213 0.94413 0.0
C169 C 0.84505 0.6679 0.99226 0.0
H170 H 0.81597 0.64637 0.88108 0.0
C171 C 0.76968 0.65433 0.01426 0.0
H172 H 0.92036 0.67299 0.92639 0.0
C173 C 0.71069 0.63908 0.98841 0.0
C174 C 0.72673 0.6365 0.94035 0.0
H175 H 0.75471 0.65825 0.05133 0.0
H176 H 0.65062 0.63231 0.00584 0.0
C177 C 0.80368 0.64699 0.91826 0.0
C178 C 0.82116 0.47844 1.00234 0.0
C179 C 0.88307 0.43343 0.98516 0.0
H180 H 0.70392 0.52791 0.99256 0.0
C181 C 0.88073 0.40842 0.94219 0.0
H182 H 0.82286 0.49846 0.03534 0.0
C183 C 0.81588 0.42679 0.91718 0.0
C184 C 0.75181 0.47027 0.93484 0.0
H185 H 0.92923 0.37444 0.92801 0.0
H186 H 0.81457 0.40589 0.88447 0.0
C187 C 0.75483 0.49623 0.97748 0.0
C188 C 0.17335 0.64079 0.01907 0.0
C189 C 0.12905 0.69537 0.01877 0.0
H190 H 0.28882 0.58601 0.99788 0.0
C191 C 0.16896 0.73702 0.99747 0.0
H192 H 0.14384 0.6081 0.03576 0.0
C193 C 0.24962 0.7235 0.97382 0.0
C194 C 0.2924 0.66813 0.97144 0.0
H195 H 0.13575 0.77929 0.9965 0.0
H196 H 0.27683 0.75614 0.95563 0.0
C197 C 0.25517 0.62768 0.99636 0.0
C198 C 0.68482 0.99254 0.48294 0.0
C199 C 0.68838 0.93735 0.49857 0.0
H200 H 0.74874 1.05 0.44315 0.0
C201 C 0.76777 0.9036 0.49526 0.0
H202 H 0.62708 1.02191 0.48654 0.0
C203 C 0.83901 0.92278 0.4746 0.0
C204 C 0.83326 0.97542 0.45503 0.0
H205 H 0.77605 0.86094 0.50591 0.0
H206 H 0.89838 0.89482 0.47173 0.0
C207 C 0.75561 1.01018 0.45949 0.0
C208 C 0.37044 0.16132 0.44183 0.0
C209 C 0.35397 0.16407 0.49007 0.0
H210 H 0.32165 0.1491 0.37863 0.0
C211 C 0.2796 0.14864 0.51174 0.0
H212 H 0.42691 0.17368 0.42435 0.0
C213 C 0.22018 0.13437 0.48565 0.0
C214 C 0.23455 0.13489 0.4376 0.0
H215 H 0.26567 0.15038 0.54888 0.0
H216 H 0.16091 0.12609 0.50303 0.0
C217 C 0.31054 0.14736 0.41572 0.0
C218 C 0.39488 0.9092 0.43003 0.0
C219 C 0.39617 0.9309 0.47425 0.0
H220 H 0.32785 0.90992 0.37233 0.0
C221 C 0.33232 0.97345 0.49384 0.0
H222 H 0.44457 0.87685 0.41434 0.0
C223 C 0.26521 0.99226 0.46991 0.0
C224 C 0.26287 0.96943 0.42604 0.0
H225 H 0.33316 0.99067 0.52799 0.0
H226 H 0.21317 1.02203 0.48661 0.0
C227 C 0.32878 0.9284 0.40604 0.0
C228 C 0.68791 0.1427 0.52466 0.0
C229 C 0.63699 0.19315 0.51701 0.0
H230 H 0.80889 0.0914 0.50819 0.0
C231 C 0.66966 0.23159 0.48775 0.0
H232 H 0.66353 0.11255 0.54728 0.0
C233 C 0.75005 0.21828 0.46388 0.0
C234 C 0.79974 0.16642 0.46914 0.0
H235 H 0.63106 0.27053 0.48118 0.0
H236 H 0.77177 0.24772 0.43962 0.0
C237 C 0.76989 0.13012 0.5017 0.0
loop_
_geom_bond_atom_site_label_1
_geom_bond_atom_site_label_2
_geom_bond_distance
_geom_bond_site_symmetry_2
_ccdc_geom_bond_type
H0 C1 0.949 . S
C1 H0 0.949 . S
C1 C2 1.395 1_554 S
C1 C3 1.391 . S
C2 C1 1.395 1_556 S
C2 C5 1.390 . S
C3 C1 1.391 . S
C3 C7 1.387 . S
C3 C8 1.491 . S
H4 C5 0.950 . S
C5 C2 1.390 . S
C5 H4 0.950 . S
C5 C6 1.378 . S
C6 C5 1.378 . S
C6 C7 1.409 1_556 S
C7 C3 1.387 . S
C7 C6 1.409 1_554 S
C7 H9 0.951 . S
C8 C3 1.491 . S
C8 C10 1.382 . S
C8 C12 1.404 . S
H9 C7 0.951 . S
C10 C8 1.382 . S
C10 C11 1.390 . S
C10 H15 0.949 . S
C11 C10 1.390 . S
C11 C16 1.399 . S
C12 C8 1.404 . S
C12 H13 0.950 . S
C12 C14 1.375 . S
H13 C12 0.950 . S
C14 C12 1.375 . S
C14 C16 1.382 . S
C14 H18 0.950 . S
H15 C10 0.949 . S
C16 C11 1.399 . S
C16 C14 1.382 . S
C16 H17 0.952 . S
H17 C16 0.952 . S
H18 C14 0.950 . S
H19 C20 0.949 . S
C20 H19 0.949 . S
C20 C21 1.395 1_554 S
C20 C22 1.391 1_455 S
C21 C20 1.395 1_556 S
C21 C24 1.390 . S
C22 C20 1.391 1_655 S
C22 C26 1.387 . S
C22 C27 1.491 . S
H23 C24 0.950 . S
C24 C21 1.390 . S
C24 H23 0.950 . S
C24 C25 1.378 1_455 S
C25 C24 1.378 1_655 S
C25 C26 1.409 1_556 S
C26 C22 1.387 . S
C26 C25 1.409 1_554 S
C26 H28 0.951 . S
C27 C22 1.491 . S
C27 C29 1.382 . S
C27 C31 1.404 . S
H28 C26 0.951 . S
C29 C27 1.382 . S
C29 C30 1.390 . S
C29 H34 0.949 1_655 S
C30 C29 1.390 . S
C30 C35 1.399 . S
C31 C27 1.404 . S
C31 H32 0.950 . S
C31 C33 1.375 . S
H32 C31 0.950 . S
C33 C31 1.375 . S
C33 C35 1.382 . S
C33 H37 0.950 . S
H34 C29 0.949 1_455 S
C35 C30 1.399 . S
C35 C33 1.382 . S
C35 H36 0.952 . S
H36 C35 0.952 . S
H37 C33 0.950 . S
H38 C39 0.949 . S
C39 H38 0.949 . S
C39 C40 1.395 . S
C39 C41 1.391 . S
C40 C39 1.395 . S
C40 C43 1.390 . S
C41 C39 1.391 . S
C41 C45 1.387 . S
C41 C46 1.491 . S
H42 C43 0.950 . S
C43 C40 1.390 . S
C43 H42 0.950 . S
C43 C44 1.378 . S
C44 C43 1.378 . S
C44 C45 1.409 . S
C45 C41 1.387 . S
C45 C44 1.409 . S
C45 H47 0.951 . S
C46 C41 1.491 . S
C46 C48 1.382 . S
C46 C50 1.404 . S
H47 C45 0.951 . S
C48 C46 1.382 . S
C48 C49 1.390 . S
C48 H53 0.949 . S
C49 C48 1.390 . S
C49 C54 1.399 . S
C50 C46 1.404 . S
C50 H51 0.950 . S
C50 C52 1.375 . S
H51 C50 0.950 . S
C52 C50 1.375 . S
C52 C54 1.382 . S
C52 H56 0.950 . S
H53 C48 0.949 . S
C54 C49 1.399 . S
C54 C52 1.382 . S
C54 H55 0.952 . S
H55 C54 0.952 . S
H56 C52 0.950 . S
H57 C58 0.949 . S
C58 H57 0.949 . S
C58 C59 1.395 . S
C58 C60 1.391 . S
C59 C58 1.395 . S
C59 C62 1.390 . S
C60 C58 1.391 . S
C60 C64 1.387 . S
C60 C65 1.491 . S
H61 C62 0.950 . S
C62 C59 1.390 . S
C62 H61 0.950 . S
C62 C63 1.378 . S
C63 C62 1.378 . S
C63 C64 1.409 . S
C64 C60 1.387 . S
C64 C63 1.409 . S
C64 H66 0.951 . S
C65 C60 1.491 . S
C65 C67 1.382 . S
C65 C69 1.404 . S
H66 C64 0.951 . S
C67 C65 1.382 . S
C67 C68 1.390 . S
C67 H72 0.949 . S
C68 C67 1.390 . S
C68 C73 1.399 . S
C69 C65 1.404 . S
C69 H70 0.950 . S
C69 C71 1.375 . S
H70 C69 0.950 . S
C71 C69 1.375 . S
C71 C73 1.382 . S
C71 H75 0.950 . S
H72 C67 0.949 . S
C73 C68 1.399 . S
C73 C71 1.382 . S
C73 H74 0.952 . S
H74 C73 0.952 . S
H75 C71 0.950 . S
Zn76 O82 1.920 . S
Zn76 O88 1.898 . S
Zn76 O91 1.905 1_455 S
Zn77 O85 1.905 . S
Zn77 O86 1.906 . S
Zn77 O94 1.920 . S
Zn78 O81 2.080 . S
Zn78 O84 2.114 1_545 S
Zn78 O87 2.120 1_545 S
Zn78 O89 2.120 . S
Zn78 O90 2.114 1_455 S
Zn78 O93 2.080 1_545 S
C79 O84 1.166 . S
C79 O85 1.182 . S
C80 O86 1.166 1_655 S
C80 O87 1.299 1_655 S
O81 Zn78 2.080 . S
O81 C95 1.305 . S
O82 Zn76 1.920 . S
O82 C95 1.234 . S
C83 O88 1.167 . S
C83 O89 1.299 . S
O84 Zn78 2.114 1_565 S
O84 C79 1.166 . S
O85 Zn77 1.905 . S
O85 C79 1.182 . S
O86 Zn77 1.906 . S
O86 C80 1.166 1_455 S
O87 Zn78 2.120 1_565 S
O87 C80 1.299 1_455 S
O88 Zn76 1.898 . S
O88 C83 1.167 . S
O89 Zn78 2.120 . S
O89 C83 1.299 . S
O90 Zn78 2.114 1_655 S
O90 C92 1.166 . S
O91 Zn76 1.905 1_655 S
O91 C92 1.182 . S
C92 O90 1.166 . S
C92 O91 1.182 . S
O93 Zn78 2.080 1_565 S
O93 C96 1.305 . S
O94 Zn77 1.920 . S
O94 C96 1.234 . S
C95 O81 1.305 . S
C95 O82 1.234 . S
C96 O93 1.305 . S
C96 O94 1.234 . S
Zn97 O103 1.920 . S
Zn97 O109 1.898 . S
Zn97 O112 1.905 . S
Zn98 O106 1.905 . S
Zn98 O107 1.898 . S
Zn98 O115 1.920 . S
Zn99 O102 2.080 . S
Zn99 O105 2.114 . S
Zn99 O108 2.120 . S
Zn99 O110 2.120 . S
Zn99 O111 2.114 . S
Zn99 O114 2.080 . S
C100 O105 1.166 . S
C100 O106 1.182 . S
C101 O107 1.167 . S
C101 O108 1.299 . S
O102 Zn99 2.080 . S
O102 C116 1.305 . S
O103 Zn97 1.920 . S
O103 C116 1.234 . S
C104 O109 1.167 . S
C104 O110 1.299 . S
O105 Zn99 2.114 . S
O105 C100 1.166 . S
O106 Zn98 1.905 . S
O106 C100 1.182 . S
O107 Zn98 1.898 . S
O107 C101 1.167 . S
O108 Zn99 2.120 . S
O108 C101 1.299 . S
O109 Zn97 1.898 . S
O109 C104 1.167 . S
O110 Zn99 2.120 . S
O110 C104 1.299 . S
O111 Zn99 2.114 . S
O111 C113 1.166 . S
O112 Zn97 1.905 . S
O112 C113 1.182 . S
C113 O111 1.166 . S
C113 O112 1.182 . S
O114 Zn99 2.080 . S
O114 C117 1.305 . S
O115 Zn98 1.920 . S
O115 C117 1.234 . S
C116 O102 1.305 . S
C116 O103 1.234 . S
C117 O114 1.305 . S
C117 O115 1.234 . S
C118 C119 1.387 . S
C118 H122 0.950 . S
C118 C127 1.390 . S
C119 C118 1.387 . S
C119 C121 1.387 . S
H120 C127 0.950 . S
C121 C119 1.387 . S
C121 C123 1.390 . S
C121 H125 0.950 . S
H122 C118 0.950 . S
C123 C121 1.390 . S
C123 C124 1.387 . S
C123 H126 0.950 . S
C124 C123 1.387 . S
C124 C127 1.387 . S
H125 C121 0.950 . S
H126 C123 0.950 . S
C127 C118 1.390 . S
C127 H120 0.950 . S
C127 C124 1.387 . S
C128 C129 1.387 1_655 S
C128 H132 0.950 . S
C128 C137 1.390 . S
C129 C128 1.387 1_455 S
C129 C131 1.387 . S
H130 C137 0.950 . S
C131 C129 1.387 . S
C131 C133 1.390 . S
C131 H135 0.950 . S
H132 C128 0.950 . S
C133 C131 1.390 . S
C133 C134 1.387 . S
C133 H136 0.950 . S
C134 C133 1.387 . S
C134 C137 1.387 1_455 S
H135 C131 0.950 . S
H136 C133 0.950 . S
C137 C128 1.390 . S
C137 H130 0.950 . S
C137 C134 1.387 1_655 S
C138 C139 1.387 . S
C138 H142 0.950 . S
C138 C147 1.390 . S
C139 C138 1.387 . S
C139 C141 1.387 . S
H140 C147 0.950 . S
C141 C139 1.387 . S
C141 C143 1.390 . S
C141 H145 0.950 . S
H142 C138 0.950 . S
C143 C141 1.390 . S
C143 C144 1.387 . S
C143 H146 0.950 . S
C144 C143 1.387 . S
C144 C147 1.387 . S
H145 C141 0.950 . S
H146 C143 0.950 . S
C147 C138 1.390 . S
C147 H140 0.950 . S
C147 C144 1.387 . S
C148 C149 1.387 . S
C148 H152 0.950 . S
C148 C157 1.390 . S
C149 C148 1.387 . S
C149 C151 1.387 . S
H150 C157 0.950 . S
C151 C149 1.387 . S
C151 C153 1.390 . S
C151 H155 0.950 . S
H152 C148 0.950 . S
C153 C151 1.390 . S
C153 C154 1.387 . S
C153 H156 0.950 . S
C154 C153 1.387 . S
C154 C157 1.387 . S
H155 C151 0.950 . S
H156 C153 0.950 . S
C157 C148 1.390 . S
C157 H150 0.950 . S
C157 C154 1.387 . S
C158 C159 1.387 . S
C158 H162 0.950 . S
C158 C167 1.390 . S
C159 C158 1.387 . S
C159 C161 1.387 1_556 S
H160 C167 0.950 . S
C161 C159 1.387 1_554 S
C161 C163 1.390 . S
C161 H165 0.950 . S
H162 C158 0.950 . S
C163 C161 1.390 . S
C163 C164 1.387 1_554 S
C163 H166 0.950 . S
C164 C163 1.387 1_556 S
C164 C167 1.387 . S
H165 C161 0.950 . S
H166 C163 0.950 . S
C167 C158 1.390 . S
C167 H160 0.950 . S
C167 C164 1.387 . S
C168 C169 1.387 . S
C168 H172 0.950 . S
C168 C177 1.390 . S
C169 C168 1.387 . S
C169 C171 1.387 1_556 S
H170 C177 0.950 . S
C171 C169 1.387 1_554 S
C171 C173 1.390 1_554 S
C171 H175 0.950 . S
H172 C168 0.950 . S
C173 C171 1.390 1_556 S
C173 C174 1.387 . S
C173 H176 0.950 1_556 S
C174 C173 1.387 . S
C174 C177 1.387 . S
H175 C171 0.950 . S
H176 C173 0.950 1_554 S
C177 C168 1.390 . S
C177 H170 0.950 . S
C177 C174 1.387 . S
C178 C179 1.387 . S
C178 H182 0.950 1_556 S
C178 C187 1.390 . S
C179 C178 1.387 . S
C179 C181 1.387 . S
H180 C187 0.950 . S
C181 C179 1.387 . S
C181 C183 1.390 . S
C181 H185 0.950 1_655 S
H182 C178 0.950 1_554 S
C183 C181 1.390 . S
C183 C184 1.387 . S
C183 H186 0.950 . S
C184 C183 1.387 . S
C184 C187 1.387 . S
H185 C181 0.950 1_455 S
H186 C183 0.950 . S
C187 C178 1.390 . S
C187 H180 0.950 . S
C187 C184 1.387 . S
C188 C189 1.387 . S
C188 H192 0.950 1_556 S
C188 C197 1.390 . S
C189 C188 1.387 . S
C189 C191 1.387 . S
H190 C197 0.950 . S
C191 C189 1.387 . S
C191 C193 1.390 . S
C191 H195 0.950 . S
H192 C188 0.950 1_554 S
C193 C191 1.390 . S
C193 C194 1.387 . S
C193 H196 0.950 . S
C194 C193 1.387 . S
C194 C197 1.387 . S
H195 C191 0.950 . S
H196 C193 0.950 . S
C197 C188 1.390 . S
C197 H190 0.950 . S
C197 C194 1.387 . S
C198 C199 1.387 . S
C198 H202 0.950 . S
C198 C207 1.390 . S
C199 C198 1.387 . S
C199 C201 1.387 . S
H200 C207 0.950 . S
C201 C199 1.387 . S
C201 C203 1.390 . S
C201 H205 0.950 . S
H202 C198 0.950 . S
C203 C201 1.390 . S
C203 C204 1.387 . S
C203 H206 0.950 . S
C204 C203 1.387 . S
C204 C207 1.387 . S
H205 C201 0.950 . S
H206 C203 0.950 . S
C207 C198 1.390 . S
C207 H200 0.950 . S
C207 C204 1.387 . S
C208 C209 1.387 . S
C208 H212 0.950 . S
C208 C217 1.390 . S
C209 C208 1.387 . S
C209 C211 1.387 . S
H210 C217 0.950 . S
C211 C209 1.387 . S
C211 C213 1.390 . S
C211 H215 0.950 . S
H212 C208 0.950 . S
C213 C211 1.390 . S
C213 C214 1.387 . S
C213 H216 0.950 . S
C214 C213 1.387 . S
C214 C217 1.387 . S
H215 C211 0.950 . S
H216 C213 0.950 . S
C217 C208 1.390 . S
C217 H210 0.950 . S
C217 C214 1.387 . S
C218 C219 1.387 . S
C218 H222 0.950 . S
C218 C227 1.390 . S
C219 C218 1.387 . S
C219 C221 1.387 . S
H220 C227 0.950 . S
C221 C219 1.387 . S
C221 C223 1.390 . S
C221 H225 0.950 . S
H222 C218 0.950 . S
C223 C221 1.390 . S
C223 C224 1.387 . S
C223 H226 0.950 . S
C224 C223 1.387 . S
C224 C227 1.387 . S
H225 C221 0.950 . S
H226 C223 0.950 . S
C227 C218 1.390 . S
C227 H220 0.950 . S
C227 C224 1.387 . S
C228 C229 1.387 . S
C228 H232 0.950 . S
C228 C237 1.390 . S
C229 C228 1.387 . S
C229 C231 1.387 . S
H230 C237 0.950 . S
C231 C229 1.387 . S
C231 C233 1.390 . S
C231 H235 0.950 . S
H232 C228 0.950 . S
C233 C231 1.390 . S
C233 C234 1.387 . S
C233 H236 0.950 . S
C234 C233 1.387 . S
C234 C237 1.387 . S
H235 C231 0.950 . S
H236 C233 0.950 . S
C237 C228 1.390 . S
C237 H230 0.950 . S
C237 C234 1.387 . S
C124 C83 1.462 . S
C119 C11 1.438 . S
C134 C79 1.429 . S
C129 C30 1.402 1_455 S
C144 C104 1.461 . S
C139 C49 1.441 . S
C149 C68 1.398 . S
C154 C100 1.431 . S
C159 C2 1.371 . S
C164 C101 1.197 . S
C174 C116 1.201 . S
C169 C25 1.367 . S
C179 C6 1.738 1_655 S
C184 C117 1.586 . S
C194 C113 1.610 . S
C189 C21 1.742 . S
C204 C80 1.193 . S
C199 C40 1.367 . S
C209 C63 1.368 . S
C214 C95 1.203 . S
C224 C96 1.584 . S
C219 C44 1.738 . S
C234 C92 1.610 . S
C229 C59 1.742 . S
