# Generated by pormake.
# Topology tsx, (6,3)-cn, num edge types: 1
# Building blocks:
#     Node 0, Type 0, BuildingBlock: FUNLAD_clean_sbu_0, # of connection points: 6
#     Node 1, Type 0, BuildingBlock: FUNLAD_clean_sbu_0, # of connection points: 6
#     Node 2, Type 1, BuildingBlock: BETDIP_clean_linker_0, # of connection points: 3
#     Node 3, Type 1, BuildingBlock: BETDIP_clean_linker_0, # of connection points: 3
#     Node 4, Type 1, BuildingBlock: BETDIP_clean_linker_0, # of connection points: 3
#     Node 5, Type 1, BuildingBlock: BETDIP_clean_linker_0, # of connection points: 3
#     Edge 6, Type (0, 1), None
#     Edge 7, Type (0, 1), None
#     Edge 8, Type (0, 1), None
#     Edge 9, Type (0, 1), None
#     Edge 10, Type (0, 1), None
#     Edge 11, Type (0, 1), None
#     Edge 12, Type (0, 1), None
#     Edge 13, Type (0, 1), None
#     Edge 14, Type (0, 1), None
#     Edge 15, Type (0, 1), None
#     Edge 16, Type (0, 1), None
#     Edge 17, Type (0, 1), None
# Relax obj value: 0.125
# Max RMSD: 0.145
# Mean RMSD: 0.134
data_MOF--net-tsx--node1-FUNLAD_clean_sbu_0--node2-BETDIP_clean_linker_0--edge1-none
_symmetry_space_group_name_H-M    P1
_symmetry_Int_Tables_number       1
_symmetry_cell_setting            triclinic
loop_
_symmetry_equiv_pos_as_xyz
'x, y, z'
_cell_length_a     8.1798461
_cell_length_b     9.06268
_cell_length_c     21.970708
_cell_angle_alpha  88.764768
_cell_angle_beta   107.39102
_cell_angle_gamma 89.408292
loop_
_atom_site_label
_atom_site_type_symbol
_atom_site_fract_x
_atom_site_fract_y
_atom_site_fract_z
_atom_type_partial_charge
C0 C 0.76442 0.79242 0.95301 0.0
N1 N 0.97068 0.96753 0.10664 0.0
C2 C 0.82265 0.99121 0.12148 0.0
C3 C 0.81526 0.95786 0.18287 0.0
C4 C 0.96318 0.90385 0.22949 0.0
C5 C 0.11242 0.87785 0.21154 0.0
C6 C 0.11236 0.90861 0.14967 0.0
Zn7 Zn 0.9909 1.00254 0.01909 0.0
C8 C 0.21148 0.75067 -0.02183 0.0
N9 N 0.02755 0.03248 0.83863 0.0
C10 C 0.87572 0.0304 0.79148 0.0
C11 C 0.17498 0.07073 0.82639 0.0
C12 C 0.17457 0.10293 0.76407 0.0
C13 C 0.02028 0.09718 0.71401 0.0
C14 C 0.86847 0.06616 0.7289 0.0
Zn15 Zn 0.02784 1.00137 0.92982 0.0
O16 O 0.7743 0.89292 -0.00839 0.0
C17 C 0.76254 0.22929 0.93748 0.0
O18 O 0.84806 0.80432 0.912 0.0
H19 H 0.2937 0.07309 0.86486 0.0
H20 H 0.71038 0.03561 0.08571 0.0
H21 H 0.75948 1.00154 0.80244 0.0
O22 O 0.83208 0.21393 -0.00177 0.0
O23 O 0.81899 0.14672 0.90322 0.0
H24 H 0.22741 0.8887 0.13626 0.0
O25 O 0.2161 0.18787 0.96672 0.0
O26 O 0.21585 0.11977 0.06195 0.0
O27 O 0.22657 0.85487 0.94178 0.0
O28 O 0.13427 0.77825 0.02019 0.0
C29 C 0.27804 0.2008 0.02765 0.0
H30 H 0.69652 0.97754 0.19384 0.0
H31 H 0.23238 0.84125 0.24526 0.0
H32 H 0.29565 0.12324 0.75508 0.0
H33 H 0.7459 0.06326 0.69227 0.0
C34 C 0.39427 0.37342 0.48145 0.0
N35 N 0.61643 0.58224 0.62382 0.0
C36 C 0.5783 0.70352 0.65302 0.0
C37 C 0.56999 0.69197 0.71571 0.0
C38 C 0.60286 0.55459 0.74807 0.0
C39 C 0.6444 0.43282 0.71683 0.0
C40 C 0.6504 0.44894 0.65474 0.0
Zn41 Zn 0.60637 0.58706 0.53024 0.0
C42 C 0.84028 0.34417 0.4927 0.0
N43 N 0.61162 0.56968 0.34313 0.0
C44 C 0.45004 0.53743 0.30674 0.0
C45 C 0.73995 0.58667 0.31633 0.0
C46 C 0.70752 0.57116 0.2505 0.0
C47 C 0.54079 0.53851 0.21183 0.0
C48 C 0.41089 0.52499 0.24098 0.0
Zn49 Zn 0.64413 0.58234 0.43928 0.0
O50 O 0.40729 0.47366 0.51977 0.0
C51 C 0.35391 0.78417 0.44161 0.0
O52 O 0.47059 0.38307 0.43799 0.0
H53 H 0.86809 0.60701 0.3464 0.0
H54 H 0.55 0.80825 0.62726 0.0
H55 H 0.35022 0.51906 0.32878 0.0
O56 O 0.42051 0.78052 0.50266 0.0
O57 O 0.43138 0.71385 0.41024 0.0
H58 H 0.67506 0.35283 0.63054 0.0
O59 O 0.82592 0.7792 0.46262 0.0
O60 O 0.8182 0.70796 0.557 0.0
O61 O 0.85058 0.4465 0.45488 0.0
O62 O 0.764 0.3715 0.53491 0.0
C63 C 0.88312 0.78914 0.52402 0.0
H64 H 0.53591 0.78802 0.73813 0.0
H65 H 0.66423 0.32376 0.73917 0.0
H66 H 0.81377 0.57834 0.23079 0.0
H67 H 0.28039 0.50155 0.21371 0.0
H68 H 0.18992 0.02395 0.45988 0.0
H69 H 0.78787 0.07445 0.2926 0.0
H70 H 0.15913 0.71774 0.32192 0.0
H71 H 0.8021 0.1051 0.4909 0.0
C72 C 0.86134 0.1918 0.4713 0.0
C73 C 0.10806 0.97335 0.42256 0.0
C74 C 0.18263 0.85266 0.40315 0.0
C75 C 0.95185 0.04159 0.38758 0.0
C76 C 0.88945 1.00578 0.32343 0.0
C77 C 0.97474 0.89762 0.2982 0.0
C78 C 0.1051 0.80956 0.3404 0.0
N79 N 0.88361 0.17029 0.40944 0.0
H80 H 0.21421 0.885 0.53733 0.0
H81 H 0.21605 0.25548 0.65169 0.0
H82 H 0.82266 0.92841 0.62074 0.0
H83 H 0.16463 0.26018 0.46204 0.0
C84 C 0.29361 0.25115 0.49245 0.0
C85 C 0.14384 0.95948 0.55668 0.0
C86 C 0.98602 0.91263 0.56103 0.0
C87 C 0.20644 0.10112 0.57769 0.0
C88 C 0.15248 0.16002 0.62696 0.0
C89 C 0.02623 0.08689 0.64754 0.0
C90 C 0.93084 0.97602 0.60932 0.0
N91 N 0.33038 0.17827 0.55454 0.0
H92 H 0.40691 0.29927 0.92221 0.0
H93 H 0.34456 0.65947 0.79387 0.0
H94 H 0.81667 0.40621 0.84817 0.0
H95 H 0.20306 0.50791 -0.01615 0.0
C96 C 0.24188 0.59736 0.9584 0.0
C97 C 0.47162 0.37932 0.90244 0.0
C98 C 0.64365 0.35392 0.90216 0.0
C99 C 0.37756 0.50653 0.87312 0.0
C100 C 0.42674 0.57474 0.82363 0.0
C101 C 0.57882 0.52881 0.81144 0.0
C102 C 0.69389 0.43227 0.85523 0.0
N103 N 0.24179 0.57242 0.89349 0.0
H104 H 0.58102 0.28439 0.01163 0.0
H105 H 0.67936 0.66481 0.12394 0.0
H106 H 0.31176 0.3378 0.14135 0.0
H107 H 0.53033 0.69933 0.95089 0.0
C108 C 0.66249 0.66562 0.96265 0.0
C109 C 0.53679 0.36407 0.03705 0.0
C110 C 0.40373 0.31846 0.06007 0.0
C111 C 0.6172 0.50171 0.05179 0.0
C112 C 0.60484 0.56769 0.10715 0.0
C113 C 0.50885 0.50025 0.14368 0.0
C114 C 0.39673 0.38384 0.11674 0.0
N115 N 0.72444 0.56465 0.01669 0.0
loop_
_geom_bond_atom_site_label_1
_geom_bond_atom_site_label_2
_geom_bond_distance
_geom_bond_site_symmetry_2
_ccdc_geom_bond_type
C0 O16 1.251 1_556 S
C0 O18 1.254 . S
N1 C2 1.333 1_445 S
N1 C6 1.307 . S
N1 Zn7 2.020 . S
C2 N1 1.333 1_665 S
C2 C3 1.379 . S
C2 H20 0.952 . S
C3 C2 1.379 . S
C3 C4 1.390 1_665 S
C3 H30 0.949 . S
C4 C3 1.390 1_445 S
C4 C5 1.357 . S
C5 C4 1.357 . S
C5 C6 1.370 . S
C5 H31 0.950 . S
C6 N1 1.307 . S
C6 C5 1.370 . S
C6 H24 0.948 . S
Zn7 N1 2.020 . S
Zn7 O16 2.039 1_445 S
Zn7 O22 2.034 1_455 S
Zn7 O26 2.025 . S
Zn7 O28 2.024 1_545 S
C8 O27 1.246 1_554 S
C8 O28 1.249 . S
N9 C10 1.307 . S
N9 C11 1.333 1_665 S
N9 Zn15 2.020 1_665 S
C10 N9 1.307 . S
C10 C14 1.370 . S
C10 H21 0.948 . S
C11 N9 1.333 1_445 S
C11 C12 1.379 . S
C11 H19 0.952 . S
C12 C11 1.379 . S
C12 C13 1.390 1_455 S
C12 H32 0.949 . S
C13 C12 1.390 1_655 S
C13 C14 1.357 1_545 S
C14 C10 1.370 . S
C14 C13 1.357 1_565 S
C14 H33 0.950 . S
Zn15 N9 2.020 1_445 S
Zn15 O18 2.025 1_445 S
Zn15 O23 2.024 1_455 S
Zn15 O25 2.039 . S
Zn15 O27 2.034 1_545 S
O16 C0 1.251 1_554 S
O16 Zn7 2.039 1_665 S
C17 O22 1.246 1_556 S
C17 O23 1.249 . S
O18 C0 1.254 . S
O18 Zn15 2.025 1_665 S
H19 C11 0.952 . S
H20 C2 0.952 . S
H21 C10 0.948 . S
O22 Zn7 2.034 1_655 S
O22 C17 1.246 1_554 S
O23 Zn15 2.024 1_655 S
O23 C17 1.249 . S
H24 C6 0.948 . S
O25 Zn15 2.039 . S
O25 C29 1.251 1_556 S
O26 Zn7 2.025 . S
O26 C29 1.254 . S
O27 C8 1.246 1_556 S
O27 Zn15 2.034 1_565 S
O28 Zn7 2.024 1_565 S
O28 C8 1.249 . S
C29 O25 1.251 1_554 S
C29 O26 1.254 . S
H30 C3 0.949 . S
H31 C5 0.950 . S
H32 C12 0.949 . S
H33 C14 0.950 . S
C34 O50 1.251 . S
C34 O52 1.254 . S
N35 C36 1.333 . S
N35 C40 1.307 . S
N35 Zn41 2.020 . S
C36 N35 1.333 . S
C36 C37 1.379 . S
C36 H54 0.952 . S
C37 C36 1.379 . S
C37 C38 1.390 . S
C37 H64 0.949 . S
C38 C37 1.390 . S
C38 C39 1.357 . S
C39 C38 1.357 . S
C39 C40 1.370 . S
C39 H65 0.950 . S
C40 N35 1.307 . S
C40 C39 1.370 . S
C40 H58 0.948 . S
Zn41 N35 2.020 . S
Zn41 O50 2.039 . S
Zn41 O56 2.034 . S
Zn41 O60 2.025 . S
Zn41 O62 2.024 . S
C42 O61 1.246 . S
C42 O62 1.249 . S
N43 C44 1.307 . S
N43 C45 1.333 . S
N43 Zn49 2.020 . S
C44 N43 1.307 . S
C44 C48 1.370 . S
C44 H55 0.948 . S
C45 N43 1.333 . S
C45 C46 1.379 . S
C45 H53 0.952 . S
C46 C45 1.379 . S
C46 C47 1.390 . S
C46 H66 0.949 . S
C47 C46 1.390 . S
C47 C48 1.357 . S
C48 C44 1.370 . S
C48 C47 1.357 . S
C48 H67 0.950 . S
Zn49 N43 2.020 . S
Zn49 O52 2.025 . S
Zn49 O57 2.024 . S
Zn49 O59 2.039 . S
Zn49 O61 2.034 . S
O50 C34 1.251 . S
O50 Zn41 2.039 . S
C51 O56 1.246 . S
C51 O57 1.249 . S
O52 C34 1.254 . S
O52 Zn49 2.025 . S
H53 C45 0.952 . S
H54 C36 0.952 . S
H55 C44 0.948 . S
O56 Zn41 2.034 . S
O56 C51 1.246 . S
O57 Zn49 2.024 . S
O57 C51 1.249 . S
H58 C40 0.948 . S
O59 Zn49 2.039 . S
O59 C63 1.251 . S
O60 Zn41 2.025 . S
O60 C63 1.254 . S
O61 C42 1.246 . S
O61 Zn49 2.034 . S
O62 Zn41 2.024 . S
O62 C42 1.249 . S
C63 O59 1.251 . S
C63 O60 1.254 . S
H64 C37 0.949 . S
H65 C39 0.950 . S
H66 C46 0.949 . S
H67 C48 0.950 . S
H68 C73 0.930 . S
H69 C76 0.930 1_655 S
H70 C78 0.930 . S
H71 C72 1.016 . S
C72 H71 1.016 . S
C72 N79 1.286 . S
C73 H68 0.930 . S
C73 C74 1.397 . S
C73 C75 1.361 1_565 S
C74 C73 1.397 . S
C74 C78 1.390 . S
C75 C73 1.361 1_545 S
C75 C76 1.393 . S
C75 N79 1.413 1_455 S
C76 H69 0.930 1_455 S
C76 C75 1.393 . S
C76 C77 1.399 1_545 S
C77 C76 1.399 1_565 S
C77 C78 1.381 . S
C78 H70 0.930 . S
C78 C74 1.390 . S
C78 C77 1.381 . S
N79 C72 1.286 . S
N79 C75 1.413 1_655 S
H80 C85 0.930 . S
H81 C88 0.930 . S
H82 C90 0.930 . S
H83 C84 1.016 . S
C84 H83 1.016 . S
C84 N91 1.286 . S
C85 H80 0.930 . S
C85 C86 1.397 . S
C85 C87 1.361 1_665 S
C86 C85 1.397 . S
C86 C90 1.390 . S
C87 C85 1.361 1_445 S
C87 C88 1.393 . S
C87 N91 1.413 . S
C88 H81 0.930 . S
C88 C87 1.393 . S
C88 C89 1.399 1_445 S
C89 C88 1.399 1_665 S
C89 C90 1.381 . S
C90 H82 0.930 . S
C90 C86 1.390 . S
C90 C89 1.381 . S
N91 C84 1.286 . S
N91 C87 1.413 . S
H92 C97 0.930 . S
H93 C100 0.930 . S
H94 C102 0.930 . S
H95 C96 1.016 1_556 S
C96 H95 1.016 1_554 S
C96 N103 1.286 . S
C97 H92 0.930 . S
C97 C98 1.397 1_554 S
C97 C99 1.361 1_554 S
C98 C97 1.397 1_556 S
C98 C102 1.390 . S
C99 C97 1.361 1_556 S
C99 C100 1.393 . S
C99 N103 1.413 1_556 S
C100 H93 0.930 . S
C100 C99 1.393 . S
C100 C101 1.399 . S
C101 C100 1.399 . S
C101 C102 1.381 . S
C102 H94 0.930 . S
C102 C98 1.390 . S
C102 C101 1.381 . S
N103 C96 1.286 . S
N103 C99 1.413 1_554 S
H104 C109 0.930 . S
H105 C112 0.930 . S
H106 C114 0.930 . S
H107 C108 1.016 1_554 S
C108 H107 1.016 1_556 S
C108 N115 1.286 . S
C109 H104 0.930 . S
C109 C110 1.397 1_556 S
C109 C111 1.361 1_556 S
C110 C109 1.397 1_554 S
C110 C114 1.390 . S
C111 C109 1.361 1_554 S
C111 C112 1.393 . S
C111 N115 1.413 1_554 S
C112 H105 0.930 . S
C112 C111 1.393 . S
C112 C113 1.399 . S
C113 C112 1.399 . S
C113 C114 1.381 . S
C114 H106 0.930 . S
C114 C110 1.390 . S
C114 C113 1.381 . S
N115 C108 1.286 . S
N115 C111 1.413 1_556 S
C110 C29 1.528 . S
C8 C96 1.419 . S
C0 C108 1.444 . S
C17 C98 1.530 . S
C63 C86 1.528 . S
C42 C72 1.420 . S
C84 C34 1.444 . S
C74 C51 1.529 . S
C4 C77 1.587 1_545 S
C13 C89 1.553 1_545 S
C101 C38 1.587 . S
C47 C113 1.552 . S
