# Generated by pormake.
# Topology zzz, (3,6)-cn, num edge types: 1
# Building blocks:
#     Node 0, Type 0, BuildingBlock: BETDAH_clean_linker_0, # of connection points: 3
#     Node 1, Type 0, BuildingBlock: BETDAH_clean_linker_0, # of connection points: 3
#     Node 2, Type 0, BuildingBlock: BETDAH_clean_linker_0, # of connection points: 3
#     Node 3, Type 0, BuildingBlock: BETDAH_clean_linker_0, # of connection points: 3
#     Node 4, Type 0, BuildingBlock: BETDAH_clean_linker_0, # of connection points: 3
#     Node 5, Type 0, BuildingBlock: BETDAH_clean_linker_0, # of connection points: 3
#     Node 6, Type 0, BuildingBlock: BETDAH_clean_linker_0, # of connection points: 3
#     Node 7, Type 0, BuildingBlock: BETDAH_clean_linker_0, # of connection points: 3
#     Node 8, Type 1, BuildingBlock: CUKXOW_clean_sbu_0, # of connection points: 6
#     Node 9, Type 1, BuildingBlock: CUKXOW_clean_sbu_0, # of connection points: 6
#     Node 10, Type 1, BuildingBlock: CUKXOW_clean_sbu_0, # of connection points: 6
#     Node 11, Type 1, BuildingBlock: CUKXOW_clean_sbu_0, # of connection points: 6
#     Edge 12, Type (0, 1), None
#     Edge 13, Type (0, 1), None
#     Edge 14, Type (0, 1), None
#     Edge 15, Type (0, 1), None
#     Edge 16, Type (0, 1), None
#     Edge 17, Type (0, 1), None
#     Edge 18, Type (0, 1), None
#     Edge 19, Type (0, 1), None
#     Edge 20, Type (0, 1), None
#     Edge 21, Type (0, 1), None
#     Edge 22, Type (0, 1), None
#     Edge 23, Type (0, 1), None
#     Edge 24, Type (0, 1), None
#     Edge 25, Type (0, 1), None
#     Edge 26, Type (0, 1), None
#     Edge 27, Type (0, 1), None
#     Edge 28, Type (0, 1), None
#     Edge 29, Type (0, 1), None
#     Edge 30, Type (0, 1), None
#     Edge 31, Type (0, 1), None
#     Edge 32, Type (0, 1), None
#     Edge 33, Type (0, 1), None
#     Edge 34, Type (0, 1), None
#     Edge 35, Type (0, 1), None
# Relax obj value: 0.053
# Max RMSD: 0.128
# Mean RMSD: 0.076
data_MOF--net-zzz--node1-CUKXOW_clean_sbu_0--node2-BETDAH_clean_linker_0--edge1-none
_symmetry_space_group_name_H-M    P1
_symmetry_Int_Tables_number       1
_symmetry_cell_setting            triclinic
loop_
_symmetry_equiv_pos_as_xyz
'x, y, z'
_cell_length_a     20.962515
_cell_length_b     22.666337
_cell_length_c     8.3476263
_cell_angle_alpha  95.10264
_cell_angle_beta   86.35347
_cell_angle_gamma 92.194666
loop_
_atom_site_label
_atom_site_type_symbol
_atom_site_fract_x
_atom_site_fract_y
_atom_site_fract_z
_atom_type_partial_charge
H0 H 0.97299 0.59451 0.18032 0.0
H1 H 0.83218 0.48796 0.92845 0.0
H2 H 0.78706 0.56433 0.41167 0.0
C3 C 0.92386 0.57766 0.1754 0.0
C4 C 0.88197 0.58524 0.31124 0.0
C5 C 0.90775 0.53959 0.0435 0.0
C6 C 0.84519 0.51667 0.03294 0.0
C7 C 0.80021 0.52901 0.16268 0.0
C8 C 0.81968 0.5604 0.30551 0.0
N9 N 0.73696 0.50561 0.15651 0.0
C10 C 0.6983 0.51675 0.03432 0.0
H11 H 0.97846 0.97321 0.12184 0.0
H12 H 0.10795 0.84663 0.88476 0.0
H13 H 1.01431 0.81495 0.34282 0.0
C14 C 0.99854 0.92958 0.11409 0.0
C15 C 0.99062 0.89632 0.24707 0.0
C16 C 0.04372 0.91419 -0.01139 0.0
C17 C 0.07206 0.85861 -0.01995 0.0
C18 C 0.05681 0.82018 0.10202 0.0
C19 C 1.01847 0.84058 0.23881 0.0
N20 N 0.09023 0.76705 0.10534 0.0
C21 C 0.07575 0.71509 0.01069 0.0
H22 H 0.58636 0.09404 0.22994 0.0
H23 H 0.76174 0.09168 -0.06426 0.0
H24 H 0.76011 0.05185 0.43293 0.0
C25 C 0.63718 0.08663 0.21662 0.0
C26 C 0.66896 0.07026 0.34744 0.0
C27 C 0.66947 0.09281 0.06713 0.0
C28 C 0.73622 0.08644 0.0508 0.0
C29 C 0.76916 0.07239 0.18487 0.0
C30 C 0.73487 0.06295 0.33078 0.0
N31 N 0.83655 0.06804 0.18114 0.0
C32 C 0.87865 0.06987 0.04641 0.0
H33 H 0.55182 0.62055 0.24897 0.0
H34 H 0.58572 0.74026 0.88056 0.0
H35 H 0.69583 0.75966 0.30298 0.0
C36 C 0.57562 0.66022 0.2068 0.0
C37 C 0.62447 0.68836 0.29429 0.0
C38 C 0.5616 0.67827 0.05779 0.0
C39 C 0.59444 0.72775 -0.00065 0.0
C40 C 0.64203 0.7583 0.08937 0.0
C41 C 0.65784 0.73763 0.23587 0.0
N42 N 0.67715 0.80743 0.02999 0.0
C43 C 0.65001 0.8481 -0.05888 0.0
H44 H 0.12071 0.50443 0.31491 0.0
H45 H 0.26369 0.6058 0.57247 0.0
H46 H 0.30851 0.52902 0.0889 0.0
C47 C 0.17028 0.51985 0.32128 0.0
C48 C 0.21265 0.51089 0.18698 0.0
C49 C 0.18705 0.55698 0.45423 0.0
C50 C 0.25029 0.57793 0.46685 0.0
C51 C 0.29547 0.56458 0.33774 0.0
C52 C 0.27557 0.53397 0.19427 0.0
N53 N 0.35971 0.58549 0.34474 0.0
C54 C 0.39442 0.58315 0.48028 0.0
H55 H 0.11608 0.12314 0.37858 0.0
H56 H 0.98638 0.24981 0.6145 0.0
H57 H 0.0806 0.28135 0.15695 0.0
C58 C 0.09595 0.16675 0.386 0.0
C59 C 0.104 0.19997 0.25294 0.0
C60 C 0.05059 0.18212 0.51107 0.0
C61 C 1.02235 0.23777 0.51943 0.0
C62 C 1.03785 0.27621 0.3975 0.0
C63 C 0.07627 0.25574 0.26098 0.0
N64 N 1.00467 0.32946 0.39368 0.0
C65 C 1.01837 0.38114 0.49032 0.0
H66 H 0.51276 1.02827 0.3142 0.0
H67 H 0.33557 0.99918 0.58722 0.0
H68 H 0.33599 0.03638 0.0885 0.0
C69 C 0.46107 1.02775 0.32305 0.0
C70 C 0.42825 0.03706 0.18746 0.0
C71 C 0.42859 1.01529 0.46836 0.0
C72 C 0.3613 1.01025 0.47665 0.0
C73 C 0.32786 1.01812 0.33841 0.0
C74 C 0.36165 1.03201 0.19538 0.0
N75 N 0.26103 1.00744 0.33299 0.0
C76 C 0.21629 1.02095 0.45923 0.0
H77 H 0.54082 0.47938 0.26382 0.0
H78 H 0.50867 0.35938 0.63142 0.0
H79 H 0.39972 0.3378 0.20668 0.0
C80 C 0.51766 0.43934 0.30542 0.0
C81 C 0.46946 0.41046 0.21712 0.0
C82 C 0.53187 0.42138 0.45433 0.0
C83 C 0.49973 0.37159 0.51248 0.0
C84 C 0.45285 0.34022 0.42174 0.0
C85 C 0.4371 0.3605 0.27462 0.0
N86 N 0.41851 0.29047 0.48024 0.0
C87 C 0.44225 0.2553 0.59007 0.0
Tb88 Tb 1.00796 1.01712 0.62321 0.0
C89 C 0.16178 1.0284 0.57082 0.0
Tb90 Tb 0.08621 0.07921 0.87716 0.0
O91 O 0.97536 0.10278 0.56128 0.0
O92 O 0.06424 0.09668 0.6451 0.0
O93 O 0.10712 1.00188 0.52755 0.0
C94 C 0.11977 0.16665 0.09668 0.0
O95 O 0.16509 0.06754 0.69763 0.0
C96 C 0.06845 0.96277 0.89354 0.0
C97 C 0.9323 0.06635 0.93101 0.0
O98 O 0.13787 0.11204 0.08735 0.0
O99 O 0.0863 0.17208 -0.02607 0.0
O100 O 0.11888 0.99352 -0.06095 0.0
O101 O 1.03021 0.99974 0.85507 0.0
O102 O 0.98672 0.09364 -0.02609 0.0
O103 O 0.92968 1.02707 0.80444 0.0
C104 C 0.97484 0.92958 0.40343 0.0
O105 O 0.95626 0.98407 0.41316 0.0
O106 O 1.00858 0.92435 0.52579 0.0
C107 C 1.02589 0.13351 0.60624 0.0
Tb108 Tb 0.53061 0.12009 0.76501 0.0
C109 C 0.63226 0.06493 0.50176 0.0
Tb110 Tb 0.56714 0.98781 0.77134 0.0
O111 O 0.62036 0.15112 0.87667 0.0
O112 O 0.5801 0.06873 0.91003 0.0
O113 O 0.58905 0.10578 0.54196 0.0
C114 C 0.62652 0.89413 0.85443 0.0
O115 O 0.63625 1.01655 0.58056 0.0
C116 C 0.46771 1.00846 0.60623 0.0
C117 C 0.46532 0.04285 0.03426 0.0
O118 O 0.57193 0.89186 0.78814 0.0
O119 O 0.64883 0.94836 0.86659 0.0
O120 O 0.47617 0.95789 0.66356 0.0
O121 O 0.51803 0.03928 0.62606 0.0
O122 O 0.50781 1.00144 -0.00685 0.0
O123 O 0.46214 0.09175 -0.04258 0.0
C124 C 0.46821 0.21222 0.68251 0.0
O125 O 0.44495 0.1585 0.68658 0.0
O126 O 0.52612 0.21475 0.73052 0.0
C127 C 0.63005 0.10011 0.93028 0.0
Tb128 Tb 0.59342 0.57912 0.63583 0.0
C129 C 0.44106 0.57661 0.59547 0.0
Tb130 Tb 0.49952 0.52041 0.87716 0.0
O131 O 0.61714 0.49199 0.51456 0.0
O132 O 0.5301 0.50493 0.63389 0.0
O133 O 0.49834 0.60187 0.5652 0.0
C134 C 0.45462 0.4365 0.06932 0.0
O135 O 0.43064 0.53639 0.70173 0.0
C136 C 0.52898 0.63437 -0.05043 0.0
C137 C 0.65164 0.52344 0.91934 0.0
O138 O 0.43768 0.49146 0.07834 0.0
O139 O 0.49355 0.42892 -0.05744 0.0
O140 O 0.47597 0.60776 -0.00165 0.0
O141 O 0.56267 0.59456 0.8787 0.0
O142 O 0.5944 0.4982 -0.05045 0.0
O143 O 0.66241 0.56295 0.81115 0.0
C144 C 0.63899 0.66227 0.44219 0.0
O145 O 0.65527 0.60715 0.43357 0.0
O146 O 0.60029 0.67044 0.56922 0.0
C147 C 0.56411 0.46537 0.5628 0.0
Tb148 Tb 1.00943 0.57888 0.63803 0.0
C149 C 1.02983 0.43751 0.58076 0.0
Tb150 Tb 0.08562 0.51761 0.8606 0.0
O151 O 0.09796 0.61723 0.53054 0.0
O152 O 0.09795 0.53673 0.62183 0.0
O153 O 0.99631 0.48382 0.55149 0.0
C154 C 0.18306 0.49428 0.03479 0.0
O155 O 0.07562 0.44217 0.68358 0.0
C156 C 0.96054 0.52073 0.93161 0.0
C157 C 0.06477 0.65889 0.91904 0.0
O158 O 0.12718 0.46716 0.03488 0.0
O159 O 0.18453 0.53195 0.92662 0.0
O160 O 0.99694 0.47932 -0.032 0.0
O161 O 0.99726 0.55976 0.87679 0.0
O162 O 0.09837 0.61261 -0.05183 0.0
O163 O 1.01925 0.6543 0.81537 0.0
C164 C 0.91206 0.60185 0.46296 0.0
O165 O 0.96801 0.62884 0.46235 0.0
O166 O 0.91046 0.56453 0.57208 0.0
C167 C 0.13448 0.57589 0.56677 0.0
loop_
_geom_bond_atom_site_label_1
_geom_bond_atom_site_label_2
_geom_bond_distance
_geom_bond_site_symmetry_2
_ccdc_geom_bond_type
H0 C3 0.929 . S
H1 C6 0.929 . S
H2 C8 0.930 . S
C3 H0 0.929 . S
C3 C4 1.398 . S
C3 C5 1.396 1_554 S
C4 C3 1.398 . S
C4 C8 1.407 . S
C5 C3 1.396 1_556 S
C5 C6 1.394 . S
C6 H1 0.929 . S
C6 C5 1.394 . S
C6 C7 1.382 1_556 S
C7 C6 1.382 1_554 S
C7 C8 1.392 . S
C7 N9 1.420 . S
C8 H2 0.930 . S
C8 C4 1.407 . S
C8 C7 1.392 . S
N9 C7 1.420 . S
N9 C10 1.244 1_554 S
C10 N9 1.244 1_556 S
H11 C14 0.929 . S
H12 C17 0.929 . S
H13 C19 0.930 . S
C14 H11 0.929 . S
C14 C15 1.398 . S
C14 C16 1.396 1_554 S
C15 C14 1.398 . S
C15 C19 1.407 . S
C16 C14 1.396 1_556 S
C16 C17 1.394 . S
C17 H12 0.929 . S
C17 C16 1.394 . S
C17 C18 1.382 1_556 S
C18 C17 1.382 1_554 S
C18 C19 1.392 . S
C18 N20 1.420 . S
C19 H13 0.930 . S
C19 C15 1.407 . S
C19 C18 1.392 . S
N20 C18 1.420 . S
N20 C21 1.244 1_554 S
C21 N20 1.244 1_556 S
H22 C25 0.929 . S
H23 C28 0.929 1_556 S
H24 C30 0.930 . S
C25 H22 0.929 . S
C25 C26 1.398 . S
C25 C27 1.396 . S
C26 C25 1.398 . S
C26 C30 1.407 . S
C27 C25 1.396 . S
C27 C28 1.394 . S
C28 H23 0.929 1_554 S
C28 C27 1.394 . S
C28 C29 1.382 . S
C29 C28 1.382 . S
C29 C30 1.392 . S
C29 N31 1.420 . S
C30 H24 0.930 . S
C30 C26 1.407 . S
C30 C29 1.392 . S
N31 C29 1.420 . S
N31 C32 1.244 . S
C32 N31 1.244 . S
H33 C36 0.929 . S
H34 C39 0.929 . S
H35 C41 0.930 . S
C36 H33 0.929 . S
C36 C37 1.398 . S
C36 C38 1.396 1_554 S
C37 C36 1.398 . S
C37 C41 1.407 . S
C38 C36 1.396 1_556 S
C38 C39 1.394 . S
C39 H34 0.929 . S
C39 C38 1.394 . S
C39 C40 1.382 1_556 S
C40 C39 1.382 1_554 S
C40 C41 1.392 . S
C40 N42 1.420 . S
C41 H35 0.930 . S
C41 C37 1.407 . S
C41 C40 1.392 . S
N42 C40 1.420 . S
N42 C43 1.244 1_554 S
C43 N42 1.244 1_556 S
H44 C47 0.929 . S
H45 C50 0.929 . S
H46 C52 0.930 . S
C47 H44 0.929 . S
C47 C48 1.398 . S
C47 C49 1.396 . S
C48 C47 1.398 . S
C48 C52 1.407 . S
C49 C47 1.396 . S
C49 C50 1.394 . S
C50 H45 0.929 . S
C50 C49 1.394 . S
C50 C51 1.382 . S
C51 C50 1.382 . S
C51 C52 1.392 . S
C51 N53 1.420 . S
C52 H46 0.930 . S
C52 C48 1.407 . S
C52 C51 1.392 . S
N53 C51 1.420 . S
N53 C54 1.244 . S
C54 N53 1.244 . S
H55 C58 0.929 . S
H56 C61 0.929 . S
H57 C63 0.930 . S
C58 H55 0.929 . S
C58 C59 1.398 . S
C58 C60 1.396 . S
C59 C58 1.398 . S
C59 C63 1.407 . S
C60 C58 1.396 . S
C60 C61 1.394 . S
C61 H56 0.929 . S
C61 C60 1.394 . S
C61 C62 1.382 . S
C62 C61 1.382 . S
C62 C63 1.392 . S
C62 N64 1.420 . S
C63 H57 0.930 . S
C63 C59 1.407 . S
C63 C62 1.392 . S
N64 C62 1.420 . S
N64 C65 1.244 . S
C65 N64 1.244 . S
H66 C69 0.929 . S
H67 C72 0.929 . S
H68 C74 0.930 . S
C69 H66 0.929 . S
C69 C70 1.398 . S
C69 C71 1.396 . S
C70 C69 1.398 . S
C70 C74 1.407 . S
C71 C69 1.396 . S
C71 C72 1.394 . S
C72 H67 0.929 . S
C72 C71 1.394 . S
C72 C73 1.382 . S
C73 C72 1.382 . S
C73 C74 1.392 . S
C73 N75 1.420 . S
C74 H68 0.930 . S
C74 C70 1.407 . S
C74 C73 1.392 . S
N75 C73 1.420 . S
N75 C76 1.244 . S
C76 N75 1.244 . S
H77 C80 0.929 . S
H78 C83 0.929 . S
H79 C85 0.930 . S
C80 H77 0.929 . S
C80 C81 1.398 . S
C80 C82 1.396 . S
C81 C80 1.398 . S
C81 C85 1.407 . S
C82 C80 1.396 . S
C82 C83 1.394 . S
C83 H78 0.929 . S
C83 C82 1.394 . S
C83 C84 1.382 . S
C84 C83 1.382 . S
C84 C85 1.392 . S
C84 N86 1.420 . S
C85 H79 0.930 . S
C85 C81 1.407 . S
C85 C84 1.392 . S
N86 C84 1.420 . S
N86 C87 1.244 . S
C87 N86 1.244 . S
Tb88 O91 2.453 . S
Tb88 O92 2.596 1_655 S
Tb88 O93 2.374 1_655 S
Tb88 O101 2.343 1_545 S
Tb88 O103 2.353 . S
Tb88 O105 2.427 1_545 S
Tb88 O106 2.513 1_645 S
C89 O93 1.251 . S
C89 O95 1.263 . S
Tb90 O92 2.343 1_554 S
Tb90 O95 2.353 1_554 S
Tb90 O98 2.427 . S
Tb90 O99 2.513 1_455 S
Tb90 O100 2.453 1_545 S
Tb90 O101 2.596 1_444 S
Tb90 O102 2.374 1_455 S
O91 Tb88 2.453 . S
O91 C107 1.245 1_655 S
O92 Tb88 2.596 1_455 S
O92 Tb90 2.343 1_556 S
O92 C107 1.259 . S
O93 Tb88 2.374 1_455 S
O93 C89 1.251 . S
C94 O98 1.275 . S
C94 O99 1.246 1_455 S
O95 C89 1.263 . S
O95 Tb90 2.353 1_556 S
C96 O100 1.245 1_656 S
C96 O101 1.259 . S
C97 O102 1.250 1_556 S
C97 O103 1.263 . S
O98 Tb90 2.427 . S
O98 C94 1.275 . S
O99 Tb90 2.513 1_655 S
O99 C94 1.246 1_655 S
O100 Tb90 2.453 1_565 S
O100 C96 1.245 1_454 S
O101 Tb88 2.343 1_565 S
O101 Tb90 2.596 1_666 S
O101 C96 1.259 . S
O102 Tb90 2.374 1_655 S
O102 C97 1.250 1_554 S
O103 Tb88 2.353 . S
O103 C97 1.263 . S
C104 O105 1.275 . S
C104 O106 1.246 1_655 S
O105 Tb88 2.427 1_565 S
O105 C104 1.275 . S
O106 Tb88 2.513 1_465 S
O106 C104 1.246 1_455 S
C107 O91 1.245 1_455 S
C107 O92 1.259 . S
Tb108 O111 2.453 1_556 S
Tb108 O112 2.596 1_545 S
Tb108 O113 2.374 . S
Tb108 O121 2.343 . S
Tb108 O123 2.353 1_556 S
Tb108 O125 2.427 . S
Tb108 O126 2.513 . S
C109 O113 1.251 1_565 S
C109 O115 1.263 . S
Tb110 O112 2.343 . S
Tb110 O115 2.353 . S
Tb110 O118 2.427 . S
Tb110 O119 2.513 1_556 S
Tb110 O120 2.453 . S
Tb110 O121 2.596 1_565 S
Tb110 O122 2.374 1_556 S
O111 Tb108 2.453 1_554 S
O111 C127 1.245 1_554 S
O112 Tb108 2.596 1_565 S
O112 Tb110 2.343 . S
O112 C127 1.259 1_565 S
O113 Tb108 2.374 . S
O113 C109 1.251 1_545 S
C114 O118 1.275 . S
C114 O119 1.246 1_556 S
O115 C109 1.263 . S
O115 Tb110 2.353 . S
C116 O120 1.245 1_545 S
C116 O121 1.259 . S
C117 O122 1.250 1_545 S
C117 O123 1.263 . S
O118 Tb110 2.427 . S
O118 C114 1.275 . S
O119 Tb110 2.513 1_554 S
O119 C114 1.246 1_554 S
O120 Tb110 2.453 . S
O120 C116 1.245 1_565 S
O121 Tb108 2.343 . S
O121 Tb110 2.596 1_545 S
O121 C116 1.259 . S
O122 Tb110 2.374 1_554 S
O122 C117 1.250 1_565 S
O123 Tb108 2.353 1_554 S
O123 C117 1.263 . S
C124 O125 1.275 . S
C124 O126 1.246 . S
O125 Tb108 2.427 . S
O125 C124 1.275 . S
O126 Tb108 2.513 . S
O126 C124 1.246 . S
C127 O111 1.245 1_556 S
C127 O112 1.259 1_545 S
Tb128 O131 2.453 . S
Tb128 O132 2.596 . S
Tb128 O133 2.374 . S
Tb128 O141 2.343 . S
Tb128 O143 2.353 . S
Tb128 O145 2.427 . S
Tb128 O146 2.513 . S
C129 O133 1.251 . S
C129 O135 1.263 . S
Tb130 O132 2.343 1_554 S
Tb130 O135 2.353 1_554 S
Tb130 O138 2.427 . S
Tb130 O139 2.513 . S
Tb130 O140 2.453 . S
Tb130 O141 2.596 1_554 S
Tb130 O142 2.374 . S
O131 Tb128 2.453 . S
O131 C147 1.245 . S
O132 Tb128 2.596 . S
O132 Tb130 2.343 1_556 S
O132 C147 1.259 . S
O133 Tb128 2.374 . S
O133 C129 1.251 . S
C134 O138 1.275 . S
C134 O139 1.246 . S
O135 C129 1.263 . S
O135 Tb130 2.353 1_556 S
C136 O140 1.245 1_556 S
C136 O141 1.259 . S
C137 O142 1.250 1_556 S
C137 O143 1.263 . S
O138 Tb130 2.427 . S
O138 C134 1.275 . S
O139 Tb130 2.513 . S
O139 C134 1.246 . S
O140 Tb130 2.453 . S
O140 C136 1.245 1_554 S
O141 Tb128 2.343 . S
O141 Tb130 2.596 1_556 S
O141 C136 1.259 . S
O142 Tb130 2.374 . S
O142 C137 1.250 1_554 S
O143 Tb128 2.353 . S
O143 C137 1.263 . S
C144 O145 1.275 . S
C144 O146 1.246 . S
O145 Tb128 2.427 . S
O145 C144 1.275 . S
O146 Tb128 2.513 . S
O146 C144 1.246 . S
C147 O131 1.245 . S
C147 O132 1.259 . S
Tb148 O151 2.455 1_655 S
Tb148 O152 2.597 1_655 S
Tb148 O153 2.374 1_655 S
Tb148 O161 2.342 . S
Tb148 O163 2.354 1_655 S
Tb148 O165 2.425 . S
Tb148 O166 2.511 . S
C149 O153 1.251 . S
C149 O155 1.263 . S
Tb150 O152 2.343 1_554 S
Tb150 O155 2.353 1_554 S
Tb150 O158 2.427 . S
Tb150 O159 2.513 . S
Tb150 O160 2.453 1_455 S
Tb150 O161 2.596 1_454 S
Tb150 O162 2.374 . S
O151 Tb148 2.455 1_455 S
O151 C167 1.245 . S
O152 Tb148 2.597 1_455 S
O152 Tb150 2.343 1_556 S
O152 C167 1.259 . S
O153 Tb148 2.374 1_455 S
O153 C149 1.251 . S
C154 O158 1.275 . S
C154 O159 1.246 . S
O155 C149 1.263 . S
O155 Tb150 2.353 1_556 S
C156 O160 1.245 1_556 S
C156 O161 1.259 . S
C157 O162 1.250 1_656 S
C157 O163 1.263 1_655 S
O158 Tb150 2.427 . S
O158 C154 1.275 . S
O159 Tb150 2.513 . S
O159 C154 1.246 . S
O160 Tb150 2.453 1_655 S
O160 C156 1.245 1_554 S
O161 Tb148 2.342 . S
O161 Tb150 2.596 1_656 S
O161 C156 1.259 . S
O162 Tb150 2.374 . S
O162 C157 1.250 1_454 S
O163 Tb148 2.354 1_455 S
O163 C157 1.263 1_455 S
C164 O165 1.275 . S
C164 O166 1.246 . S
O165 Tb148 2.425 . S
O165 C164 1.275 . S
O166 Tb148 2.511 . S
O166 C164 1.246 . S
C167 O151 1.245 . S
C167 O152 1.259 . S
C76 C89 1.677 . S
C124 C87 1.759 . S
C129 C54 1.382 . S
C149 C65 1.800 . S
C97 C32 1.704 1_546 S
C43 C114 1.803 . S
C10 C137 1.406 . S
C21 C157 1.829 . S
C107 C60 1.662 . S
C116 C71 1.354 . S
C147 C82 1.800 . S
C49 C167 0.953 . S
C16 C96 1.634 . S
C127 C27 1.320 1_546 S
C136 C38 1.755 . S
C5 C156 0.936 . S
C59 C94 1.367 . S
C70 C117 1.672 . S
C134 C81 1.509 . S
C154 C48 1.510 . S
C15 C104 1.345 . S
C109 C26 1.640 . S
C144 C37 1.472 . S
C4 C164 1.499 . S
