# Generated by pormake.
# Topology rtl, (3,6)-cn, num edge types: 1
# Building blocks:
#     Node 0, Type 0, BuildingBlock: ESEHIV_clean_linker_0, # of connection points: 3
#     Node 1, Type 0, BuildingBlock: ESEHIV_clean_linker_0, # of connection points: 3
#     Node 2, Type 0, BuildingBlock: ESEHIV_clean_linker_0, # of connection points: 3
#     Node 3, Type 0, BuildingBlock: ESEHIV_clean_linker_0, # of connection points: 3
#     Node 4, Type 1, BuildingBlock: VOLQOD_clean_sbu_1, # of connection points: 6
#     Node 5, Type 1, BuildingBlock: VOLQOD_clean_sbu_1, # of connection points: 6
#     Edge 6, Type (0, 1), None
#     Edge 7, Type (0, 1), None
#     Edge 8, Type (0, 1), None
#     Edge 9, Type (0, 1), None
#     Edge 10, Type (0, 1), None
#     Edge 11, Type (0, 1), None
#     Edge 12, Type (0, 1), None
#     Edge 13, Type (0, 1), None
#     Edge 14, Type (0, 1), None
#     Edge 15, Type (0, 1), None
#     Edge 16, Type (0, 1), None
#     Edge 17, Type (0, 1), None
# Relax obj value: 0.078
# Max RMSD: 0.156
# Mean RMSD: 0.090
data_MOF--net-rtl--node1-VOLQOD_clean_sbu_1--node2-ESEHIV_clean_linker_0--edge1-none
_symmetry_space_group_name_H-M    P1
_symmetry_Int_Tables_number       1
_symmetry_cell_setting            triclinic
loop_
_symmetry_equiv_pos_as_xyz
'x, y, z'
_cell_length_a     15.759654
_cell_length_b     12.730936
_cell_length_c     10.200107
_cell_angle_alpha  90.018447
_cell_angle_beta   90.000627
_cell_angle_gamma 89.999978
loop_
_atom_site_label
_atom_site_type_symbol
_atom_site_fract_x
_atom_site_fract_y
_atom_site_fract_z
_atom_type_partial_charge
H0 H -0.01129 0.86922 -0.01069 0.0
H1 H 0.17409 0.692 0.20122 0.0
H2 H 0.1742 0.69205 0.77745 0.0
C3 C 0.03887 0.81073 -0.01068 0.0
C4 C 0.07406 0.77842 0.87009 0.0
C5 C 0.074 0.7784 0.10855 0.0
C6 C 0.1439 0.71085 0.10865 0.0
C7 C 0.18126 0.67952 -0.01067 0.0
C8 C 0.14397 0.71088 0.87001 0.0
H9 H 0.489 0.68546 0.48948 0.0
H10 H 0.69285 0.83289 0.27874 0.0
H11 H 0.69292 0.83283 0.70024 0.0
C12 C 0.54596 0.73314 0.48948 0.0
C13 C 0.58511 0.75737 0.60961 0.0
C14 C 0.58508 0.7574 0.36937 0.0
C15 C 0.66082 0.81507 0.37018 0.0
C16 C 0.69782 0.8451 0.4895 0.0
C17 C 0.66086 0.81504 0.60881 0.0
H18 H -0.0165 0.18546 -0.01053 0.0
H19 H 0.77958 0.33283 0.20023 0.0
H20 H 0.77966 0.33289 0.77873 0.0
C21 C 0.92654 0.23314 -0.01052 0.0
C22 C 0.88743 0.2574 0.86936 0.0
C23 C 0.88739 0.25737 0.1096 0.0
C24 C 0.81164 0.31504 0.1088 0.0
C25 C 0.77468 0.3451 -0.01051 0.0
C26 C 0.81168 0.31507 0.87017 0.0
H27 H 0.48379 0.36922 0.48933 0.0
H28 H 0.29841 0.192 0.70122 0.0
H29 H 0.29831 0.19205 0.27745 0.0
C30 C 0.43363 0.31073 0.48933 0.0
C31 C 0.39845 0.27842 0.3701 0.0
C32 C 0.3985 0.2784 0.60856 0.0
C33 C 0.32859 0.21085 0.60865 0.0
C34 C 0.29124 0.17952 0.48933 0.0
C35 C 0.32854 0.21088 0.37001 0.0
O36 O 0.78423 0.99609 0.48947 0.0
Zn37 Zn 0.88086 0.09934 0.48944 0.0
O38 O -0.01158 0.02061 0.48941 0.0
Zn39 Zn 0.05332 0.05995 0.64188 0.0
Zn40 Zn 0.97162 0.86656 0.48937 0.0
Zn41 Zn 0.05327 0.05993 0.33693 0.0
O42 O 0.16892 0.11411 0.59791 0.0
O43 O 0.16889 0.11408 0.38083 0.0
O44 O 0.86801 0.18874 0.65352 0.0
O45 O -0.00792 0.16434 0.75142 0.0
O46 O 0.06766 0.93769 0.75855 0.0
O47 O 0.01978 0.79692 0.65289 0.0
O48 O 0.01973 0.7969 0.32578 0.0
O49 O 0.86796 0.18871 0.32539 0.0
O50 O 0.06757 0.93767 0.22018 0.0
O51 O -0.00797 0.16431 0.22749 0.0
C52 C 0.78061 0.89622 0.48948 0.0
C53 C 0.2063 0.13049 0.48936 0.0
C54 C 0.05348 0.83972 0.75296 0.0
C55 C 0.91879 0.20591 0.74846 0.0
C56 C 0.05339 0.8397 0.22571 0.0
C57 C 0.91874 0.20588 0.23046 0.0
O58 O 0.84656 0.83854 0.48944 0.0
O59 O 0.68827 0.49609 -0.01053 0.0
Zn60 Zn 0.59164 0.59934 -0.01055 0.0
O61 O 0.48408 0.52061 -0.01058 0.0
Zn62 Zn 0.41923 0.55993 0.83693 0.0
Zn63 Zn 0.50088 0.36656 -0.01062 0.0
Zn64 Zn 0.41918 0.55995 0.14189 0.0
O65 O 0.30361 0.61408 0.88084 0.0
O66 O 0.30358 0.6141 0.09792 0.0
O67 O 0.60454 0.68871 0.8254 0.0
O68 O 0.48047 0.66431 0.72749 0.0
O69 O 0.40493 0.43767 0.72019 0.0
O70 O 0.45277 0.2969 0.82579 0.0
O71 O 0.45272 0.29692 0.1529 0.0
O72 O 0.6045 0.68874 0.15353 0.0
O73 O 0.40485 0.43769 0.25856 0.0
O74 O 0.48042 0.66434 0.25142 0.0
C75 C 0.69189 0.39622 -0.01052 0.0
C76 C 0.2662 0.63049 -0.01063 0.0
C77 C 0.4191 0.3397 0.72572 0.0
C78 C 0.55376 0.70588 0.73047 0.0
C79 C 0.41903 0.33972 0.25297 0.0
C80 C 0.55371 0.70591 0.24847 0.0
O81 O 0.62594 0.33854 -0.01056 0.0
loop_
_geom_bond_atom_site_label_1
_geom_bond_atom_site_label_2
_geom_bond_distance
_geom_bond_site_symmetry_2
_ccdc_geom_bond_type
H0 C3 0.931 . S
H1 C6 0.928 . S
H2 C8 0.930 . S
C3 H0 0.931 . S
C3 C4 1.413 1_554 S
C3 C5 1.360 . S
C4 C3 1.413 1_556 S
C4 C8 1.429 . S
C5 C3 1.360 . S
C5 C6 1.372 . S
C6 H1 0.928 . S
C6 C5 1.372 . S
C6 C7 1.404 . S
C7 C6 1.404 . S
C7 C8 1.391 1_554 S
C8 H2 0.930 . S
C8 C4 1.429 . S
C8 C7 1.391 1_556 S
H9 C12 0.931 . S
H10 C15 0.928 . S
H11 C17 0.930 . S
C12 H9 0.931 . S
C12 C13 1.413 . S
C12 C14 1.360 . S
C13 C12 1.413 . S
C13 C17 1.429 . S
C14 C12 1.360 . S
C14 C15 1.372 . S
C15 H10 0.928 . S
C15 C14 1.372 . S
C15 C16 1.404 . S
C16 C15 1.404 . S
C16 C17 1.391 . S
C17 H11 0.930 . S
C17 C13 1.429 . S
C17 C16 1.391 . S
H18 C21 0.931 1_455 S
H19 C24 0.928 . S
H20 C26 0.930 . S
C21 H18 0.931 1_655 S
C21 C22 1.413 1_554 S
C21 C23 1.360 . S
C22 C21 1.413 1_556 S
C22 C26 1.429 . S
C23 C21 1.360 . S
C23 C24 1.372 . S
C24 H19 0.928 . S
C24 C23 1.372 . S
C24 C25 1.404 . S
C25 C24 1.404 . S
C25 C26 1.391 1_554 S
C26 H20 0.930 . S
C26 C22 1.429 . S
C26 C25 1.391 1_556 S
H27 C30 0.931 . S
H28 C33 0.928 . S
H29 C35 0.930 . S
C30 H27 0.931 . S
C30 C31 1.413 . S
C30 C32 1.360 . S
C31 C30 1.413 . S
C31 C35 1.429 . S
C32 C30 1.360 . S
C32 C33 1.372 . S
C33 H28 0.928 . S
C33 C32 1.372 . S
C33 C34 1.404 . S
C34 C33 1.404 . S
C34 C35 1.391 . S
C35 H29 0.930 . S
C35 C31 1.429 . S
C35 C34 1.391 . S
O36 Zn37 1.953 1_565 S
O36 C52 1.225 . S
Zn37 O36 1.953 1_545 S
Zn37 O38 1.949 1_655 S
Zn37 O44 1.919 . S
Zn37 O49 1.924 . S
O38 Zn37 1.949 1_455 S
O38 Zn39 1.923 . S
O38 Zn40 1.950 1_445 S
O38 Zn41 1.945 . S
Zn39 O38 1.923 . S
Zn39 O42 1.933 . S
Zn39 O45 1.941 . S
Zn39 O46 1.965 1_545 S
Zn40 O38 1.950 1_665 S
Zn40 O47 1.938 1_655 S
Zn40 O48 1.906 1_655 S
Zn40 O58 1.953 . S
Zn41 O38 1.945 . S
Zn41 O43 1.932 . S
Zn41 O50 1.977 1_545 S
Zn41 O51 1.910 1_455 S
O42 Zn39 1.933 . S
O42 C53 1.226 . S
O43 Zn41 1.932 . S
O43 C53 1.307 . S
O44 Zn37 1.919 . S
O44 C55 1.253 . S
O45 Zn39 1.941 . S
O45 C55 1.283 1_455 S
O46 Zn39 1.965 1_565 S
O46 C54 1.303 . S
O47 Zn40 1.938 1_455 S
O47 C54 1.247 . S
O48 Zn40 1.906 1_455 S
O48 C56 1.304 . S
O49 Zn37 1.924 . S
O49 C57 1.311 . S
O50 Zn41 1.977 1_565 S
O50 C56 1.272 . S
O51 Zn41 1.910 1_655 S
O51 C57 1.231 . S
C52 O36 1.225 . S
C52 O58 1.298 . S
C53 O42 1.226 . S
C53 O43 1.307 . S
C54 O46 1.303 . S
C54 O47 1.247 . S
C55 O44 1.253 . S
C55 O45 1.283 1_655 S
C56 O48 1.304 . S
C56 O50 1.272 . S
C57 O49 1.311 . S
C57 O51 1.231 . S
O58 Zn40 1.953 . S
O58 C52 1.298 . S
O59 Zn60 1.953 . S
O59 C75 1.225 1_556 S
Zn60 O59 1.953 . S
Zn60 O61 1.949 1_556 S
Zn60 O67 1.919 . S
Zn60 O72 1.924 1_556 S
O61 Zn60 1.949 1_554 S
O61 Zn62 1.923 1_554 S
O61 Zn63 1.950 . S
O61 Zn64 1.945 . S
Zn62 O61 1.923 1_556 S
Zn62 O65 1.933 . S
Zn62 O68 1.941 . S
Zn62 O69 1.965 . S
Zn63 O61 1.950 . S
Zn63 O70 1.938 1_554 S
Zn63 O71 1.906 . S
Zn63 O81 1.953 . S
Zn64 O61 1.945 . S
Zn64 O66 1.932 . S
Zn64 O73 1.977 . S
Zn64 O74 1.910 . S
O65 Zn62 1.933 . S
O65 C76 1.226 1_556 S
O66 Zn64 1.932 . S
O66 C76 1.307 . S
O67 Zn60 1.919 . S
O67 C78 1.253 . S
O68 Zn62 1.941 . S
O68 C78 1.283 . S
O69 Zn62 1.965 . S
O69 C77 1.303 . S
O70 Zn63 1.938 1_556 S
O70 C77 1.247 . S
O71 Zn63 1.906 . S
O71 C79 1.304 . S
O72 Zn60 1.924 1_554 S
O72 C80 1.311 . S
O73 Zn64 1.977 . S
O73 C79 1.272 . S
O74 Zn64 1.910 . S
O74 C80 1.231 . S
C75 O59 1.225 1_554 S
C75 O81 1.298 . S
C76 O65 1.226 1_554 S
C76 O66 1.307 . S
C77 O69 1.303 . S
C77 O70 1.247 . S
C78 O67 1.253 . S
C78 O68 1.283 . S
C79 O71 1.304 . S
C79 O73 1.272 . S
C80 O72 1.311 . S
C80 O74 1.231 . S
O81 Zn63 1.953 . S
O81 C75 1.298 . S
C53 C34 1.578 . S
C7 C76 1.565 . S
C16 C52 1.565 . S
C25 C75 1.565 . S
C56 C5 1.645 . S
C78 C13 1.539 . S
C23 C57 1.667 . S
C32 C77 1.556 . S
C80 C14 1.664 . S
C55 C22 1.537 . S
C79 C31 1.663 . S
C4 C54 1.550 . S
