# Generated by pormake.
# Topology pyr, (3,6)-cn, num edge types: 1
# Building blocks:
#     Node 0, Type 0, BuildingBlock: ESEHIV_clean_linker_0, # of connection points: 3
#     Node 1, Type 0, BuildingBlock: ESEHIV_clean_linker_0, # of connection points: 3
#     Node 2, Type 0, BuildingBlock: ESEHIV_clean_linker_0, # of connection points: 3
#     Node 3, Type 0, BuildingBlock: ESEHIV_clean_linker_0, # of connection points: 3
#     Node 4, Type 0, BuildingBlock: ESEHIV_clean_linker_0, # of connection points: 3
#     Node 5, Type 0, BuildingBlock: ESEHIV_clean_linker_0, # of connection points: 3
#     Node 6, Type 0, BuildingBlock: ESEHIV_clean_linker_0, # of connection points: 3
#     Node 7, Type 0, BuildingBlock: ESEHIV_clean_linker_0, # of connection points: 3
#     Node 8, Type 1, BuildingBlock: GEDQOX_clean_sbu_0, # of connection points: 6
#     Node 9, Type 1, BuildingBlock: GEDQOX_clean_sbu_0, # of connection points: 6
#     Node 10, Type 1, BuildingBlock: GEDQOX_clean_sbu_0, # of connection points: 6
#     Node 11, Type 1, BuildingBlock: GEDQOX_clean_sbu_0, # of connection points: 6
#     Edge 12, Type (0, 1), None
#     Edge 13, Type (0, 1), None
#     Edge 14, Type (0, 1), None
#     Edge 15, Type (0, 1), None
#     Edge 16, Type (0, 1), None
#     Edge 17, Type (0, 1), None
#     Edge 18, Type (0, 1), None
#     Edge 19, Type (0, 1), None
#     Edge 20, Type (0, 1), None
#     Edge 21, Type (0, 1), None
#     Edge 22, Type (0, 1), None
#     Edge 23, Type (0, 1), None
#     Edge 24, Type (0, 1), None
#     Edge 25, Type (0, 1), None
#     Edge 26, Type (0, 1), None
#     Edge 27, Type (0, 1), None
#     Edge 28, Type (0, 1), None
#     Edge 29, Type (0, 1), None
#     Edge 30, Type (0, 1), None
#     Edge 31, Type (0, 1), None
#     Edge 32, Type (0, 1), None
#     Edge 33, Type (0, 1), None
#     Edge 34, Type (0, 1), None
#     Edge 35, Type (0, 1), None
# Relax obj value: 0.438
# Max RMSD: 0.261
# Mean RMSD: 0.122
data_MOF--net-pyr--node1-GEDQOX_clean_sbu_0--node2-ESEHIV_clean_linker_0--edge1-none
_symmetry_space_group_name_H-M    P1
_symmetry_Int_Tables_number       1
_symmetry_cell_setting            triclinic
loop_
_symmetry_equiv_pos_as_xyz
'x, y, z'
_cell_length_a     16.284968
_cell_length_b     16.284792
_cell_length_c     12.673814
_cell_angle_alpha  90.314981
_cell_angle_beta   91.297522
_cell_angle_gamma 77.76727
loop_
_atom_site_label
_atom_site_type_symbol
_atom_site_fract_x
_atom_site_fract_y
_atom_site_fract_z
_atom_type_partial_charge
H0 H 0.10012 0.29347 0.32548 0.0
H1 H 0.31738 0.08915 0.34345 0.0
H2 H 0.32582 0.31202 0.16709 0.0
C3 C 0.16317 0.26545 0.30112 0.0
C4 C 0.20442 0.31056 0.23029 0.0
C5 C 0.20281 0.18559 0.34375 0.0
C6 C 0.28566 0.14878 0.30986 0.0
C7 C 0.33074 0.19149 0.24069 0.0
C8 C 0.28976 0.27398 0.20714 0.0
H9 H 0.3786 0.95265 0.88206 0.0
H10 H 0.61966 0.78659 0.92329 0.0
H11 H 0.4007 0.68574 0.86111 0.0
C12 C 0.41635 0.88981 0.89169 0.0
C13 C 0.38133 0.81941 0.86603 0.0
C14 C 0.50141 0.87821 0.92449 0.0
C15 C 0.55193 0.79581 0.91526 0.0
C16 C 0.51552 0.72653 0.88648 0.0
C17 C 0.42856 0.73849 0.88357 0.0
H18 H 0.91962 0.43098 1.03926 0.0
H19 H 0.9131 0.5869 0.7602 0.0
H20 H 0.71445 0.458 0.81976 0.0
C21 C 0.89014 0.45788 0.96614 0.0
C22 C 0.81418 0.43962 0.93403 0.0
C23 C 0.92639 0.5124 0.90585 0.0
C24 C 0.886 0.54504 0.8081 0.0
C25 C 0.80929 0.52289 0.77479 0.0
C26 C 0.77461 0.47247 0.84097 0.0
H27 H 0.78113 0.11007 0.61933 0.0
H28 H 0.96526 0.99087 0.39852 0.0
H29 H 0.71859 0.94497 0.38511 0.0
C30 C 0.79574 0.07574 0.5464 0.0
C31 C 0.73918 1.03093 0.50318 0.0
C32 C 0.87504 1.06801 0.50089 0.0
C33 C 0.90005 1.0083 0.42116 0.0
C34 C 0.84288 0.96257 0.38186 0.0
C35 C 0.75987 0.98481 0.41155 0.0
H36 H 0.85991 1.05919 0.88533 0.0
H37 H 1.07711 0.85485 0.9036 0.0
H38 H 0.85125 0.83641 1.06175 0.0
C39 C 0.89159 0.99957 0.91898 0.0
C40 C 0.84644 0.95691 0.98812 0.0
C41 C 0.97446 0.96274 0.88522 0.0
C42 C 1.01405 0.88288 0.9279 0.0
C43 C 0.97273 0.8378 0.99868 0.0
C44 C 0.88737 0.87442 1.02175 0.0
H45 H 0.55753 0.36149 0.30566 0.0
H46 H 0.79854 0.1954 0.34714 0.0
H47 H 0.77641 0.46237 0.36788 0.0
C48 C 0.62525 0.35227 0.31374 0.0
C49 C 0.66166 0.42155 0.34251 0.0
C50 C 0.67576 0.26985 0.30458 0.0
C51 C 0.76081 0.25825 0.33743 0.0
C52 C 0.79583 0.32865 0.36306 0.0
C53 C 0.74862 0.40957 0.34545 0.0
H54 H 0.25727 0.71748 0.19024 0.0
H55 H 0.26382 0.56121 0.469 0.0
H56 H 0.4625 0.69012 0.40962 0.0
C57 C 0.28675 0.69049 0.26332 0.0
C58 C 0.36274 0.70867 0.29543 0.0
C59 C 0.25048 0.63593 0.32352 0.0
C60 C 0.2909 0.60313 0.4212 0.0
C61 C 0.36767 0.6252 0.45452 0.0
C62 C 0.40232 0.67571 0.38843 0.0
H63 H 0.21216 0.15721 0.83058 0.0
H64 H 0.39635 1.03768 0.61003 0.0
H65 H 0.45871 0.20327 0.84382 0.0
C66 C 0.27738 0.13974 0.80796 0.0
C67 C 0.33451 0.18556 0.84712 0.0
C68 C 0.30241 0.07993 0.72835 0.0
C69 C 0.38173 0.07211 0.68288 0.0
C70 C 0.43826 0.11701 0.72598 0.0
C71 C 0.41753 0.1633 0.81748 0.0
Nd72 Nd 0.11334 0.99412 0.56358 0.0
Nd73 Nd 1.06388 0.15422 0.66543 0.0
C74 C 0.15192 0.83684 0.5246 0.0
C75 C 0.21957 0.79937 0.60098 0.0
C76 C 0.19719 0.77822 0.70277 0.0
C77 C 0.24679 0.78928 0.79146 0.0
C78 C 0.31835 0.82341 0.78002 0.0
C79 C 0.34445 0.83688 0.67831 0.0
C80 C 0.29813 0.82097 0.58978 0.0
C81 C 0.24073 1.03883 0.67911 0.0
C82 C 1.01667 1.00329 0.79819 0.0
C83 C 1.02516 0.31148 0.70449 0.0
C84 C 0.95748 0.34888 0.62812 0.0
C85 C 0.97984 0.37006 0.52633 0.0
C86 C 0.93029 0.35891 0.43764 0.0
C87 C 0.85878 0.32469 0.44908 0.0
C88 C 0.83268 0.3112 0.55078 0.0
C89 C 0.87897 0.32716 0.63932 0.0
C90 C 0.93669 0.10913 0.55019 0.0
C91 C 0.16065 0.14501 0.43083 0.0
O92 O 0.17228 0.88925 0.4569 0.0
O93 O 1.07976 0.86818 0.56761 0.0
O94 O 0.24999 1.0046 0.5874 0.0
O95 O 0.16693 1.0469 0.7096 0.0
O96 O 1.0318 0.96444 0.70581 0.0
O97 O 1.03629 0.0778 0.81113 0.0
O98 O 1.00487 0.25902 0.77217 0.0
O99 O 0.09733 0.28022 0.66146 0.0
O100 O 0.92734 0.14341 0.64185 0.0
O101 O 1.0104 0.10146 0.51946 0.0
O102 O 0.14542 0.18391 0.52318 0.0
O103 O 0.14107 1.07048 0.4179 0.0
H104 H 0.13775 0.76019 0.71482 0.0
H105 H 0.22892 0.77236 0.86888 0.0
H106 H 0.40169 0.85932 0.66753 0.0
H107 H 0.31918 0.83597 0.5131 0.0
H108 H 1.03924 0.38817 0.51428 0.0
H109 H 0.94815 0.37584 0.36022 0.0
H110 H 0.77546 0.28873 0.56157 0.0
H111 H 0.85794 0.31216 0.716 0.0
Nd112 Nd 0.59835 1.0356 0.16464 0.0
Nd113 Nd 0.57882 0.11241 1.0645 0.0
C114 C 0.59645 0.90324 0.276 0.0
C115 C 0.52938 0.85672 0.26459 0.0
C116 C 0.54771 0.77631 0.21933 0.0
C117 C 0.48437 0.73208 0.20373 0.0
C118 C 0.40338 0.76609 0.23937 0.0
C119 C 0.38247 0.85032 0.2709 0.0
C120 C 0.44536 0.89574 0.28314 0.0
C121 C 0.42577 0.16002 0.22543 0.0
C122 C 0.53752 0.94922 0.97 0.0
C123 C 0.58074 0.24474 0.95309 0.0
C124 C 0.64775 0.29134 0.9646 0.0
C125 C 0.6293 0.37174 1.0099 0.0
C126 C 0.69258 0.41604 1.02564 0.0
C127 C 0.77361 0.38212 0.99007 0.0
C128 C 0.79462 0.29791 0.9585 0.0
C129 C 0.7318 0.25242 0.94612 0.0
C130 C 0.75141 0.98851 1.00318 0.0
C131 C 0.63966 0.19884 0.25908 0.0
O132 O 0.64114 0.89947 0.19218 0.0
O133 O 0.57711 0.97916 0.31477 0.0
O134 O 0.45728 0.10455 0.1533 0.0
O135 O 0.45889 0.1051 0.15509 0.0
O136 O 0.59955 0.93333 1.03727 0.0
O137 O 0.50271 1.02927 0.96477 0.0
O138 O 0.53597 0.24851 1.03683 0.0
O139 O 0.60018 0.16881 0.91436 0.0
O140 O 0.71986 1.04339 1.07591 0.0
O141 O 0.7183 1.04288 1.07415 0.0
O142 O 0.57767 0.21474 0.19175 0.0
O143 O 0.67442 0.11878 0.26437 0.0
H144 H 0.61151 0.74667 0.19928 0.0
H145 H 0.50133 0.66683 0.17953 0.0
H146 H 0.32016 0.87732 0.29899 0.0
H147 H 0.42865 0.95974 0.31164 0.0
H148 H 0.56547 0.40131 1.0299 0.0
H149 H 0.67553 0.48128 1.04988 0.0
H150 H 0.85697 0.27099 0.93046 0.0
H151 H 0.74859 0.18844 0.91757 0.0
Nd152 Nd 0.5967 0.50686 0.65318 0.0
Nd153 Nd 0.5803 0.6413 0.57576 0.0
C154 C 0.60654 0.35476 0.72503 0.0
C155 C 0.57774 0.28297 0.67989 0.0
C156 C 0.50192 0.29334 0.62184 0.0
C157 C 0.46365 0.22491 0.6082 0.0
C158 C 0.49772 0.14937 0.6616 0.0
C159 C 0.58075 0.13608 0.70025 0.0
C160 C 0.62245 0.20228 0.70417 0.0
C161 C 0.75595 0.55104 0.6784 0.0
C162 C 0.55962 0.6591 0.8157 0.0
C163 C 0.57035 0.79344 0.504 0.0
C164 C 0.59933 0.86514 0.54913 0.0
C165 C 0.67521 0.85459 0.60708 0.0
C166 C 0.71365 0.92291 0.62071 0.0
C167 C 0.67967 0.99852 0.56744 0.0
C168 C 0.59663 1.01197 0.5288 0.0
C169 C 0.55477 0.94588 0.5249 0.0
C170 C 0.42115 0.59684 0.55075 0.0
C171 C 0.61755 0.48898 0.41329 0.0
O172 O 0.66665 0.37658 0.67414 0.0
O173 O 0.54892 0.41869 0.75616 0.0
O174 O 0.73953 0.49181 0.6182 0.0
O175 O 0.68475 0.59597 0.69644 0.0
O176 O 0.53065 0.59137 0.79113 0.0
O177 O 0.60689 0.68132 0.74457 0.0
O178 O 0.51034 0.77161 0.55507 0.0
O179 O 0.62785 0.72951 0.47262 0.0
O180 O 0.43753 0.65596 0.61118 0.0
O181 O 0.49245 0.55225 0.53233 0.0
O182 O 0.64647 0.55674 0.43789 0.0
O183 O 0.57025 0.46675 0.48437 0.0
H184 H 0.4686 0.35516 0.59665 0.0
H185 H 0.39981 0.23648 0.57663 0.0
H186 H 0.60812 0.07871 0.74239 0.0
H187 H 0.68381 0.19292 0.74237 0.0
H188 H 0.70843 0.79272 0.63221 0.0
H189 H 0.77752 0.9112 0.65223 0.0
H190 H 0.56935 1.06937 0.48668 0.0
H191 H 0.49339 0.95538 0.48673 0.0
Nd192 Nd 1.02947 0.57352 0.19008 0.0
Nd193 Nd 0.14754 0.57473 1.03868 0.0
C194 C 0.89607 0.61294 0.30269 0.0
C195 C 0.86979 0.70182 0.33308 0.0
C196 C 0.82623 0.75965 0.25876 0.0
C197 C 0.82762 0.84448 0.26773 0.0
C198 C 0.86933 0.87406 0.35241 0.0
C199 C 0.90912 0.81731 0.42992 0.0
C200 C 0.90932 0.73204 0.42055 0.0
C201 C 0.17281 0.61348 0.27848 0.0
C202 C 1.01692 0.75053 1.04205 0.0
C203 C 0.28077 0.53531 0.92569 0.0
C204 C 0.30723 0.44641 0.89548 0.0
C205 C 0.35076 0.3887 0.96995 0.0
C206 C 0.34952 0.30383 0.96106 0.0
C207 C 0.30799 0.27411 0.87635 0.0
C208 C 0.26825 0.33073 0.79868 0.0
C209 C 0.2679 0.41603 0.80795 0.0
C210 C 1.00404 0.53494 0.95078 0.0
C211 C 0.16019 0.39779 0.18688 0.0
O212 O 0.89055 0.59759 0.20159 0.0
O213 O 0.96783 0.57444 0.34439 0.0
O214 O 0.13389 0.56075 0.31976 0.0
O215 O 0.13614 0.64379 0.19349 0.0
O216 O 0.97687 0.70446 1.10094 0.0
O217 O 0.09564 0.71777 1.01875 0.0
O218 O 0.28642 0.55085 1.02672 0.0
O219 O 0.20886 0.57355 0.88412 0.0
O220 O 1.04276 0.58782 0.90945 0.0
O221 O 1.04108 0.50439 1.03544 0.0
O222 O 0.20021 0.44387 0.12796 0.0
O223 O 1.08145 0.43051 0.21013 0.0
H224 H 0.79458 0.739 0.19064 0.0
H225 H 0.79241 0.88882 0.21181 0.0
H226 H 0.93593 0.83952 0.50066 0.0
H227 H 0.94312 0.68945 0.47985 0.0
H228 H 0.38226 0.40947 1.0381 0.0
H229 H 0.38469 0.25959 1.0171 0.0
H230 H 0.24158 0.30839 0.72791 0.0
H231 H 0.23414 0.45853 0.74853 0.0
loop_
_geom_bond_atom_site_label_1
_geom_bond_atom_site_label_2
_geom_bond_distance
_geom_bond_site_symmetry_2
_ccdc_geom_bond_type
H0 C3 0.931 . S
H1 C6 0.928 . S
H2 C8 0.930 . S
C3 H0 0.931 . S
C3 C4 1.413 . S
C3 C5 1.360 . S
C4 C3 1.413 . S
C4 C8 1.429 . S
C5 C3 1.360 . S
C5 C6 1.372 . S
C6 H1 0.928 . S
C6 C5 1.372 . S
C6 C7 1.404 . S
C7 C6 1.404 . S
C7 C8 1.391 . S
C8 H2 0.930 . S
C8 C4 1.429 . S
C8 C7 1.391 . S
H9 C12 0.931 . S
H10 C15 0.928 . S
H11 C17 0.930 . S
C12 H9 0.931 . S
C12 C13 1.413 . S
C12 C14 1.360 . S
C13 C12 1.413 . S
C13 C17 1.429 . S
C14 C12 1.360 . S
C14 C15 1.372 . S
C15 H10 0.928 . S
C15 C14 1.372 . S
C15 C16 1.404 . S
C16 C15 1.404 . S
C16 C17 1.391 . S
C17 H11 0.930 . S
C17 C13 1.429 . S
C17 C16 1.391 . S
H18 C21 0.931 . S
H19 C24 0.928 . S
H20 C26 0.930 . S
C21 H18 0.931 . S
C21 C22 1.413 . S
C21 C23 1.360 . S
C22 C21 1.413 . S
C22 C26 1.429 . S
C23 C21 1.360 . S
C23 C24 1.372 . S
C24 H19 0.928 . S
C24 C23 1.372 . S
C24 C25 1.404 . S
C25 C24 1.404 . S
C25 C26 1.391 . S
C26 H20 0.930 . S
C26 C22 1.429 . S
C26 C25 1.391 . S
H27 C30 0.931 . S
H28 C33 0.928 . S
H29 C35 0.930 . S
C30 H27 0.931 . S
C30 C31 1.413 . S
C30 C32 1.360 . S
C31 C30 1.413 . S
C31 C35 1.429 . S
C32 C30 1.360 . S
C32 C33 1.372 . S
C33 H28 0.928 . S
C33 C32 1.372 . S
C33 C34 1.404 . S
C34 C33 1.404 . S
C34 C35 1.391 . S
C35 H29 0.930 . S
C35 C31 1.429 . S
C35 C34 1.391 . S
H36 C39 0.931 . S
H37 C42 0.928 . S
H38 C44 0.930 . S
C39 H36 0.931 . S
C39 C40 1.413 . S
C39 C41 1.360 . S
C40 C39 1.413 . S
C40 C44 1.429 . S
C41 C39 1.360 . S
C41 C42 1.372 . S
C42 H37 0.928 . S
C42 C41 1.372 . S
C42 C43 1.404 . S
C43 C42 1.404 . S
C43 C44 1.391 . S
C44 H38 0.930 . S
C44 C40 1.429 . S
C44 C43 1.391 . S
H45 C48 0.931 . S
H46 C51 0.928 . S
H47 C53 0.930 . S
C48 H45 0.931 . S
C48 C49 1.413 . S
C48 C50 1.360 . S
C49 C48 1.413 . S
C49 C53 1.429 . S
C50 C48 1.360 . S
C50 C51 1.372 . S
C51 H46 0.928 . S
C51 C50 1.372 . S
C51 C52 1.404 . S
C52 C51 1.404 . S
C52 C53 1.391 . S
C53 H47 0.930 . S
C53 C49 1.429 . S
C53 C52 1.391 . S
H54 C57 0.931 . S
H55 C60 0.928 . S
H56 C62 0.930 . S
C57 H54 0.931 . S
C57 C58 1.413 . S
C57 C59 1.360 . S
C58 C57 1.413 . S
C58 C62 1.429 . S
C59 C57 1.360 . S
C59 C60 1.372 . S
C60 H55 0.928 . S
C60 C59 1.372 . S
C60 C61 1.404 . S
C61 C60 1.404 . S
C61 C62 1.391 . S
C62 H56 0.930 . S
C62 C58 1.429 . S
C62 C61 1.391 . S
H63 C66 0.931 . S
H64 C69 0.928 . S
H65 C71 0.930 . S
C66 H63 0.931 . S
C66 C67 1.413 . S
C66 C68 1.360 . S
C67 C66 1.413 . S
C67 C71 1.429 . S
C68 C66 1.360 . S
C68 C69 1.372 . S
C69 H64 0.928 . S
C69 C68 1.372 . S
C69 C70 1.404 . S
C70 C69 1.404 . S
C70 C71 1.391 . S
C71 H65 0.930 . S
C71 C67 1.429 . S
C71 C70 1.391 . S
Nd72 C74 2.836 . S
Nd72 O92 2.500 . S
Nd72 O93 2.492 . S
Nd72 O94 2.487 1_565 S
Nd72 O95 2.682 1_565 S
Nd72 O96 2.410 . S
Nd72 O101 2.414 1_455 S
Nd72 O103 2.424 . S
Nd73 C83 2.836 . S
Nd73 O95 2.414 1_655 S
Nd73 O97 2.424 . S
Nd73 O98 2.500 . S
Nd73 O99 2.492 . S
Nd73 O100 2.487 1_545 S
Nd73 O101 2.682 1_545 S
Nd73 O102 2.410 . S
C74 Nd72 2.836 . S
C74 C75 1.498 . S
C74 O92 1.258 . S
C74 O93 1.239 . S
C75 C74 1.498 . S
C75 C76 1.366 . S
C75 C80 1.407 . S
C76 C75 1.366 . S
C76 C77 1.392 . S
C76 H104 0.930 . S
C77 C76 1.392 . S
C77 C78 1.398 . S
C77 H105 0.929 . S
C78 C77 1.398 . S
C78 C79 1.352 . S
C79 C78 1.352 . S
C79 C80 1.384 . S
C79 H106 0.930 . S
C80 C75 1.407 . S
C80 C79 1.384 . S
C80 H107 0.929 . S
C81 O94 1.241 . S
C81 O95 1.273 . S
C82 O96 1.251 1_655 S
C82 O97 1.268 1_565 S
C83 Nd73 2.836 . S
C83 C84 1.498 . S
C83 O98 1.258 . S
C83 O99 1.239 . S
C84 C83 1.498 . S
C84 C85 1.366 . S
C84 C89 1.407 . S
C85 C84 1.366 . S
C85 C86 1.392 . S
C85 H108 0.930 . S
C86 C85 1.392 . S
C86 C87 1.398 . S
C86 H109 0.929 . S
C87 C86 1.398 . S
C87 C88 1.352 . S
C88 C87 1.352 . S
C88 C89 1.384 . S
C88 H110 0.930 . S
C89 C84 1.407 . S
C89 C88 1.384 . S
C89 H111 0.929 . S
C90 O100 1.241 . S
C90 O101 1.273 . S
C91 O102 1.251 1_455 S
C91 O103 1.268 1_545 S
O92 Nd72 2.500 . S
O92 C74 1.258 . S
O93 Nd72 2.492 . S
O93 C74 1.239 . S
O94 Nd72 2.487 1_545 S
O94 C81 1.241 . S
O95 Nd72 2.682 1_545 S
O95 Nd73 2.414 1_455 S
O95 C81 1.273 . S
O96 Nd72 2.410 . S
O96 C82 1.251 1_455 S
O97 Nd73 2.424 . S
O97 C82 1.268 1_545 S
O98 Nd73 2.500 . S
O98 C83 1.258 . S
O99 Nd73 2.492 . S
O99 C83 1.239 . S
O100 Nd73 2.487 1_565 S
O100 C90 1.241 . S
O101 Nd72 2.414 1_655 S
O101 Nd73 2.682 1_565 S
O101 C90 1.273 . S
O102 Nd73 2.410 . S
O102 C91 1.251 1_655 S
O103 Nd72 2.424 . S
O103 C91 1.268 1_565 S
H104 C76 0.930 . S
H105 C77 0.929 . S
H106 C79 0.930 . S
H107 C80 0.929 . S
H108 C85 0.930 . S
H109 C86 0.929 . S
H110 C88 0.930 . S
H111 C89 0.929 . S
Nd112 C114 2.836 . S
Nd112 O132 2.500 . S
Nd112 O133 2.492 . S
Nd112 O134 2.487 1_565 S
Nd112 O135 2.682 1_565 S
Nd112 O136 2.410 1_554 S
Nd112 O141 2.414 1_554 S
Nd112 O143 2.424 1_565 S
Nd113 C123 2.836 . S
Nd113 O135 2.414 1_556 S
Nd113 O137 2.424 1_545 S
Nd113 O138 2.500 . S
Nd113 O139 2.492 . S
Nd113 O140 2.487 1_545 S
Nd113 O141 2.682 1_545 S
Nd113 O142 2.410 1_556 S
C114 Nd112 2.836 . S
C114 C115 1.498 . S
C114 O132 1.258 . S
C114 O133 1.239 . S
C115 C114 1.498 . S
C115 C116 1.366 . S
C115 C120 1.407 . S
C116 C115 1.366 . S
C116 C117 1.392 . S
C116 H144 0.930 . S
C117 C116 1.392 . S
C117 C118 1.398 . S
C117 H145 0.929 . S
C118 C117 1.398 . S
C118 C119 1.352 . S
C119 C118 1.352 . S
C119 C120 1.384 . S
C119 H146 0.930 . S
C120 C115 1.407 . S
C120 C119 1.384 . S
C120 H147 0.929 . S
C121 O134 1.241 . S
C121 O135 1.273 . S
C122 O136 1.251 . S
C122 O137 1.268 . S
C123 Nd113 2.836 . S
C123 C124 1.498 . S
C123 O138 1.258 . S
C123 O139 1.239 . S
C124 C123 1.498 . S
C124 C125 1.366 . S
C124 C129 1.407 . S
C125 C124 1.366 . S
C125 C126 1.392 . S
C125 H148 0.930 . S
C126 C125 1.392 . S
C126 C127 1.398 . S
C126 H149 0.929 . S
C127 C126 1.398 . S
C127 C128 1.352 . S
C128 C127 1.352 . S
C128 C129 1.384 . S
C128 H150 0.930 . S
C129 C124 1.407 . S
C129 C128 1.384 . S
C129 H151 0.929 . S
C130 O140 1.241 . S
C130 O141 1.273 . S
C131 O142 1.251 . S
C131 O143 1.268 . S
O132 Nd112 2.500 . S
O132 C114 1.258 . S
O133 Nd112 2.492 . S
O133 C114 1.239 . S
O134 Nd112 2.487 1_545 S
O134 C121 1.241 . S
O135 Nd112 2.682 1_545 S
O135 Nd113 2.414 1_554 S
O135 C121 1.273 . S
O136 Nd112 2.410 1_556 S
O136 C122 1.251 . S
O137 Nd113 2.424 1_565 S
O137 C122 1.268 . S
O138 Nd113 2.500 . S
O138 C123 1.258 . S
O139 Nd113 2.492 . S
O139 C123 1.239 . S
O140 Nd113 2.487 1_565 S
O140 C130 1.241 . S
O141 Nd112 2.414 1_556 S
O141 Nd113 2.682 1_565 S
O141 C130 1.273 . S
O142 Nd113 2.410 1_554 S
O142 C131 1.251 . S
O143 Nd112 2.424 1_545 S
O143 C131 1.268 . S
H144 C116 0.930 . S
H145 C117 0.929 . S
H146 C119 0.930 . S
H147 C120 0.929 . S
H148 C125 0.930 . S
H149 C126 0.929 . S
H150 C128 0.930 . S
H151 C129 0.929 . S
Nd152 C154 2.836 . S
Nd152 O172 2.500 . S
Nd152 O173 2.492 . S
Nd152 O174 2.487 . S
Nd152 O175 2.682 . S
Nd152 O176 2.410 . S
Nd152 O181 2.414 . S
Nd152 O183 2.424 . S
Nd153 C163 2.836 . S
Nd153 O175 2.414 . S
Nd153 O177 2.424 . S
Nd153 O178 2.500 . S
Nd153 O179 2.492 . S
Nd153 O180 2.487 . S
Nd153 O181 2.682 . S
Nd153 O182 2.410 . S
C154 Nd152 2.836 . S
C154 C155 1.498 . S
C154 O172 1.258 . S
C154 O173 1.239 . S
C155 C154 1.498 . S
C155 C156 1.366 . S
C155 C160 1.407 . S
C156 C155 1.366 . S
C156 C157 1.392 . S
C156 H184 0.930 . S
C157 C156 1.392 . S
C157 C158 1.398 . S
C157 H185 0.929 . S
C158 C157 1.398 . S
C158 C159 1.352 . S
C159 C158 1.352 . S
C159 C160 1.384 . S
C159 H186 0.930 . S
C160 C155 1.407 . S
C160 C159 1.384 . S
C160 H187 0.929 . S
C161 O174 1.241 . S
C161 O175 1.273 . S
C162 O176 1.251 . S
C162 O177 1.268 . S
C163 Nd153 2.836 . S
C163 C164 1.498 . S
C163 O178 1.258 . S
C163 O179 1.239 . S
C164 C163 1.498 . S
C164 C165 1.366 . S
C164 C169 1.407 . S
C165 C164 1.366 . S
C165 C166 1.392 . S
C165 H188 0.930 . S
C166 C165 1.392 . S
C166 C167 1.398 . S
C166 H189 0.929 . S
C167 C166 1.398 . S
C167 C168 1.352 . S
C168 C167 1.352 . S
C168 C169 1.384 . S
C168 H190 0.930 . S
C169 C164 1.407 . S
C169 C168 1.384 . S
C169 H191 0.929 . S
C170 O180 1.241 . S
C170 O181 1.273 . S
C171 O182 1.251 . S
C171 O183 1.268 . S
O172 Nd152 2.500 . S
O172 C154 1.258 . S
O173 Nd152 2.492 . S
O173 C154 1.239 . S
O174 Nd152 2.487 . S
O174 C161 1.241 . S
O175 Nd152 2.682 . S
O175 Nd153 2.414 . S
O175 C161 1.273 . S
O176 Nd152 2.410 . S
O176 C162 1.251 . S
O177 Nd153 2.424 . S
O177 C162 1.268 . S
O178 Nd153 2.500 . S
O178 C163 1.258 . S
O179 Nd153 2.492 . S
O179 C163 1.239 . S
O180 Nd153 2.487 . S
O180 C170 1.241 . S
O181 Nd152 2.414 . S
O181 Nd153 2.682 . S
O181 C170 1.273 . S
O182 Nd153 2.410 . S
O182 C171 1.251 . S
O183 Nd152 2.424 . S
O183 C171 1.268 . S
H184 C156 0.930 . S
H185 C157 0.929 . S
H186 C159 0.930 . S
H187 C160 0.929 . S
H188 C165 0.930 . S
H189 C166 0.929 . S
H190 C168 0.930 . S
H191 C169 0.929 . S
Nd192 C194 2.836 . S
Nd192 O212 2.500 . S
Nd192 O213 2.492 . S
Nd192 O214 2.487 1_655 S
Nd192 O215 2.682 1_655 S
Nd192 O216 2.410 . S
Nd192 O221 2.414 1_554 S
Nd192 O223 2.424 1_655 S
Nd193 C203 2.836 . S
Nd193 O215 2.414 1_556 S
Nd193 O217 2.424 1_455 S
Nd193 O218 2.500 . S
Nd193 O219 2.492 . S
Nd193 O220 2.487 1_455 S
Nd193 O221 2.682 1_455 S
Nd193 O222 2.410 . S
C194 Nd192 2.836 . S
C194 C195 1.498 . S
C194 O212 1.258 . S
C194 O213 1.239 . S
C195 C194 1.498 . S
C195 C196 1.366 . S
C195 C200 1.407 . S
C196 C195 1.366 . S
C196 C197 1.392 . S
C196 H224 0.930 . S
C197 C196 1.392 . S
C197 C198 1.398 . S
C197 H225 0.929 . S
C198 C197 1.398 . S
C198 C199 1.352 . S
C199 C198 1.352 . S
C199 C200 1.384 . S
C199 H226 0.930 . S
C200 C195 1.407 . S
C200 C199 1.384 . S
C200 H227 0.929 . S
C201 O214 1.241 . S
C201 O215 1.273 . S
C202 O216 1.251 1_556 S
C202 O217 1.268 . S
C203 Nd193 2.836 . S
C203 C204 1.498 . S
C203 O218 1.258 . S
C203 O219 1.239 . S
C204 C203 1.498 . S
C204 C205 1.366 . S
C204 C209 1.407 . S
C205 C204 1.366 . S
C205 C206 1.392 . S
C205 H228 0.930 . S
C206 C205 1.392 . S
C206 C207 1.398 . S
C206 H229 0.929 . S
C207 C206 1.398 . S
C207 C208 1.352 . S
C208 C207 1.352 . S
C208 C209 1.384 . S
C208 H230 0.930 . S
C209 C204 1.407 . S
C209 C208 1.384 . S
C209 H231 0.929 . S
C210 O220 1.241 . S
C210 O221 1.273 . S
C211 O222 1.251 1_554 S
C211 O223 1.268 . S
O212 Nd192 2.500 . S
O212 C194 1.258 . S
O213 Nd192 2.492 . S
O213 C194 1.239 . S
O214 Nd192 2.487 1_455 S
O214 C201 1.241 . S
O215 Nd192 2.682 1_455 S
O215 Nd193 2.414 1_554 S
O215 C201 1.273 . S
O216 Nd192 2.410 . S
O216 C202 1.251 1_554 S
O217 Nd193 2.424 1_655 S
O217 C202 1.268 . S
O218 Nd193 2.500 . S
O218 C203 1.258 . S
O219 Nd193 2.492 . S
O219 C203 1.239 . S
O220 Nd193 2.487 1_655 S
O220 C210 1.241 . S
O221 Nd192 2.414 1_556 S
O221 Nd193 2.682 1_655 S
O221 C210 1.273 . S
O222 Nd193 2.410 . S
O222 C211 1.251 1_556 S
O223 Nd192 2.424 1_455 S
O223 C211 1.268 . S
H224 C196 0.930 . S
H225 C197 0.929 . S
H226 C199 0.930 . S
H227 C200 0.929 . S
H228 C205 0.930 . S
H229 C206 0.929 . S
H230 C208 0.930 . S
H231 C209 0.929 . S
C5 C91 4.416 . S
C14 C122 2.955 . S
C161 C25 2.014 . S
C34 C198 1.078 . S
C121 C7 3.964 . S
C78 C13 2.060 . S
C210 C23 2.209 . S
C167 C31 2.341 . S
C4 C211 3.376 . S
C127 C22 2.053 . S
C32 C90 1.465 . S
C16 C162 2.730 . S
C82 C41 4.410 . S
C50 C131 2.953 . S
C61 C170 1.999 . S
C67 C207 1.057 . S
C40 C130 3.985 . S
C87 C52 2.079 . S
C201 C59 2.191 . S
C158 C70 2.351 . S
C43 C202 3.366 . S
C118 C58 2.039 . S
C81 C68 1.533 . S
C49 C171 2.732 . S
