# Generated by pormake.
# Topology rtl, (3,6)-cn, num edge types: 1
# Building blocks:
#     Node 0, Type 0, BuildingBlock: QEWDON_clean_linker_0, # of connection points: 3
#     Node 1, Type 0, BuildingBlock: QEWDON_clean_linker_0, # of connection points: 3
#     Node 2, Type 0, BuildingBlock: QEWDON_clean_linker_0, # of connection points: 3
#     Node 3, Type 0, BuildingBlock: QEWDON_clean_linker_0, # of connection points: 3
#     Node 4, Type 1, BuildingBlock: VOLQOD_clean_sbu_1, # of connection points: 6
#     Node 5, Type 1, BuildingBlock: VOLQOD_clean_sbu_1, # of connection points: 6
#     Edge 6, Type (0, 1), BuildingBlock: OJICUG_clean_linker_0, # of connection points: 2
#     Edge 7, Type (0, 1), BuildingBlock: OJICUG_clean_linker_0, # of connection points: 2
#     Edge 8, Type (0, 1), BuildingBlock: OJICUG_clean_linker_0, # of connection points: 2
#     Edge 9, Type (0, 1), BuildingBlock: OJICUG_clean_linker_0, # of connection points: 2
#     Edge 10, Type (0, 1), BuildingBlock: OJICUG_clean_linker_0, # of connection points: 2
#     Edge 11, Type (0, 1), BuildingBlock: OJICUG_clean_linker_0, # of connection points: 2
#     Edge 12, Type (0, 1), BuildingBlock: OJICUG_clean_linker_0, # of connection points: 2
#     Edge 13, Type (0, 1), BuildingBlock: OJICUG_clean_linker_0, # of connection points: 2
#     Edge 14, Type (0, 1), BuildingBlock: OJICUG_clean_linker_0, # of connection points: 2
#     Edge 15, Type (0, 1), BuildingBlock: OJICUG_clean_linker_0, # of connection points: 2
#     Edge 16, Type (0, 1), BuildingBlock: OJICUG_clean_linker_0, # of connection points: 2
#     Edge 17, Type (0, 1), BuildingBlock: OJICUG_clean_linker_0, # of connection points: 2
# Relax obj value: 0.049
# Max RMSD: 0.148
# Mean RMSD: 0.130
data_MOF--net-rtl--node1-VOLQOD_clean_sbu_1--node2-QEWDON_clean_linker_0--edge1-OJICUG_clean_linker_0
_symmetry_space_group_name_H-M    P1
_symmetry_Int_Tables_number       1
_symmetry_cell_setting            triclinic
loop_
_symmetry_equiv_pos_as_xyz
'x, y, z'
_cell_length_a     29.293662
_cell_length_b     29.536397
_cell_length_c     16.679012
_cell_angle_alpha  91.948169
_cell_angle_beta   92.043728
_cell_angle_gamma 89.770611
loop_
_atom_site_label
_atom_site_type_symbol
_atom_site_fract_x
_atom_site_fract_y
_atom_site_fract_z
_atom_type_partial_charge
H0 H 0.24554 0.87958 0.10561 0.0
C1 C 0.22775 0.88321 0.04806 0.0
C2 C 0.18353 0.9018 0.04475 0.0
C3 C 0.25059 0.87348 -0.02338 0.0
H4 H 0.12793 0.92353 0.96733 0.0
C5 C 0.16185 0.9086 -0.02999 0.0
C6 C 0.18455 0.90005 0.89876 0.0
C7 C 0.22877 0.88183 0.90201 0.0
C8 C 0.2999 0.86334 -0.02035 0.0
H9 H 0.24732 0.87715 0.84721 0.0
C10 C 0.31636 0.81905 -0.01 0.0
C11 C 0.3635 0.81002 -0.01366 0.0
C12 C 0.33072 0.89857 -0.03193 0.0
H13 H 0.31847 0.93284 0.95994 0.0
C14 C 0.37746 0.88981 0.96607 0.0
H15 H 0.29259 0.79166 -0.0021 0.0
C16 C 0.3938 0.84577 -0.02546 0.0
H17 H 0.4302 0.83954 -0.02818 0.0
H18 H 0.40104 0.91713 0.95698 0.0
H19 H 0.74654 0.68143 0.42286 0.0
C20 C 0.73106 0.67122 0.47747 0.0
C21 C 0.68741 0.65141 0.47361 0.0
C22 C 0.75559 0.67595 0.5514 0.0
H23 H 0.63489 0.6216 0.5413 0.0
C24 C 0.6684 0.6371 0.5444 0.0
C25 C 0.69279 0.64033 0.61829 0.0
C26 C 0.73615 0.66047 0.62149 0.0
C27 C 0.80349 0.69218 0.55485 0.0
H28 H 0.75561 0.66265 0.67799 0.0
C29 C 0.81577 0.73383 0.5226 0.0
C30 C 0.86171 0.74825 0.52717 0.0
C31 C 0.83746 0.66524 0.59119 0.0
H32 H 0.82894 0.63295 0.6157 0.0
C33 C 0.88277 0.67933 0.59566 0.0
H34 H 0.78979 0.75485 0.49453 0.0
C35 C 0.89487 0.72046 0.56415 0.0
H36 H 0.93028 0.7309 0.56988 0.0
H37 H 0.90864 0.65834 0.62397 0.0
H38 H 0.77568 0.17873 0.09476 0.0
C39 C 0.794 0.16986 0.04109 0.0
C40 C 0.83883 0.15295 0.04778 0.0
C41 C 0.77221 0.17362 0.96509 0.0
H42 H 0.89661 0.12843 -0.01649 0.0
C43 C 0.86188 0.14092 -0.02216 0.0
C44 C 0.84013 0.14259 0.90154 0.0
C45 C 0.79523 0.15945 0.89588 0.0
C46 C 0.72384 0.18812 0.95755 0.0
H47 H 0.77742 0.1604 0.8379 0.0
C48 C 0.7093 0.23074 -0.01205 0.0
C49 C 0.66325 0.24429 -0.02241 0.0
C50 C 0.69203 0.15908 0.91763 0.0
H51 H 0.70246 0.12613 0.89411 0.0
C52 C 0.64652 0.17212 0.90782 0.0
H53 H 0.73378 0.25329 0.01865 0.0
C54 C 0.6322 0.21436 0.93715 0.0
H55 H 0.59682 0.22395 0.92666 0.0
H56 H 0.62229 0.14956 0.87667 0.0
H57 H 0.34103 0.33499 0.62707 0.0
C58 C 0.3399 0.35391 0.57248 0.0
C59 C 0.35639 0.3985 0.5733 0.0
C60 C 0.32485 0.33211 0.50037 0.0
H61 H 0.36965 0.45543 0.50073 0.0
C62 C 0.3566 0.42123 0.50069 0.0
C63 C 0.34431 0.39912 0.42725 0.0
C64 C 0.32712 0.35466 0.42788 0.0
C65 C 0.31416 0.28338 0.50022 0.0
H66 H 0.31792 0.33669 0.37194 0.0
C67 C 0.2688 0.26784 0.49372 0.0
C68 C 0.25953 0.22154 0.50158 0.0
C69 C 0.34998 0.25235 0.51218 0.0
H70 H 0.38506 0.26389 0.51756 0.0
C71 C 0.34079 0.20635 0.51832 0.0
H72 H 0.24095 0.29171 0.48555 0.0
C73 C 0.2958 0.19101 0.51372 0.0
H74 H 0.2892 0.15523 0.51977 0.0
H75 H 0.36856 0.18262 0.52775 0.0
O76 O 0.91961 0.95851 0.46397 0.0
Zn77 Zn 0.94371 0.0238 0.46708 0.0
O78 O 1.01128 0.0244 0.47095 0.0
Zn79 Zn 0.03394 0.05476 0.56971 0.0
Zn80 Zn 0.03557 0.96228 0.46621 0.0
Zn81 Zn 0.03366 0.05752 0.3813 0.0
O82 O 0.07627 0.10643 0.54966 0.0
O83 O 0.07784 0.1071 0.41706 0.0
O84 O 0.91935 0.05585 0.56656 0.0
O85 O 0.98237 0.07599 0.63731 0.0
O86 O 0.07138 1.0124 0.63534 0.0
O87 O 0.07526 0.94791 0.5641 0.0
O88 O 0.0733 0.9505 0.3691 0.0
O89 O 0.91859 0.05791 0.3707 0.0
O90 O 0.06853 0.01585 0.30749 0.0
O91 O 0.98136 0.08507 0.31884 0.0
C92 C 0.9404 0.9204 0.46096 0.0
C93 C 0.09135 0.12257 0.48597 0.0
C94 C 0.08587 0.97196 0.62671 0.0
C95 C 0.93908 0.0744 0.62853 0.0
C96 C 0.08282 0.97512 0.31087 0.0
C97 C 0.938 0.0819 0.3196 0.0
O98 O 0.98383 0.91814 0.46063 0.0
O99 O 0.60571 0.45784 0.04086 0.0
Zn100 Zn 0.58404 0.5239 0.03949 0.0
O101 O 0.51666 0.52783 0.02783 0.0
Zn102 Zn 0.50027 0.55799 0.92905 0.0
Zn103 Zn 0.49058 0.46702 0.02179 0.0
Zn104 Zn 0.4903 0.56204 0.11828 0.0
O105 O 0.46475 0.61509 0.94989 0.0
O106 O 0.45456 0.61709 0.08115 0.0
O107 O 0.61491 0.55312 0.94697 0.0
O108 O 0.55552 0.57416 0.87012 0.0
O109 O 0.46324 0.51781 0.85351 0.0
O110 O 0.45391 0.45451 0.91898 0.0
O111 O 0.44937 0.45693 0.1119 0.0
O112 O 0.60558 0.55775 0.14129 0.0
O113 O 0.44754 0.52274 0.18001 0.0
O114 O 0.54167 0.58493 0.19328 0.0
C115 C 0.58352 0.42066 0.03587 0.0
C116 C 0.44842 0.63403 0.01231 0.0
C117 C 0.447 0.47814 0.85738 0.0
C118 C 0.5983 0.57106 0.88397 0.0
C119 C 0.4349 0.48159 0.16958 0.0
C120 C 0.58511 0.58091 0.19518 0.0
O121 O 0.54011 0.42029 0.02858 0.0
C122 C 0.19516 0.18622 0.5695 0.0
C123 C 0.21233 0.20424 0.50001 0.0
H124 H 0.14276 0.14729 0.62008 0.0
C125 C 0.18672 0.20012 0.42753 0.0
H126 H 0.2146 0.18896 0.62595 0.0
C127 C 0.14576 0.17567 0.42358 0.0
C128 C 0.12967 0.15537 0.49234 0.0
H129 H 0.19966 0.21357 0.37317 0.0
H130 H 0.1278 0.17103 0.36601 0.0
C131 C 0.15401 0.1624 0.56594 0.0
C132 C 0.40831 0.74558 0.92933 0.0
C133 C 0.38164 0.76337 -0.00883 0.0
H134 H 0.44971 0.69074 0.88711 0.0
C135 C 0.37505 0.73753 0.0589 0.0
H136 H 0.41371 0.76488 0.8764 0.0
C137 C 0.39632 0.69516 0.06588 0.0
C138 C 0.42377 0.67768 0.00446 0.0
H139 H 0.35473 0.75076 0.10745 0.0
H140 H 0.39159 0.6763 0.11952 0.0
C141 C 0.42882 0.70309 0.93554 0.0
C142 C 0.85311 0.83296 0.51642 0.0
C143 C 0.87611 0.79246 0.4962 0.0
H144 H 0.8553 0.90577 0.52067 0.0
C145 C 0.91662 0.79487 0.45397 0.0
H146 H 0.82185 0.83216 0.54912 0.0
C147 C 0.93581 0.83664 0.43835 0.0
C148 C 0.91484 0.87723 0.46396 0.0
H149 H 0.93466 0.76427 0.43606 0.0
H150 H 0.9682 0.83705 0.409 0.0
C151 C 0.8723 0.87508 0.50027 0.0
C152 C 0.67187 0.32934 -0.00818 0.0
C153 C 0.64693 0.28984 0.00544 0.0
H154 H 0.6715 0.40212 -0.00875 0.0
C155 C 0.60369 0.29435 0.03879 0.0
H156 H 0.70523 0.32705 0.96598 0.0
C157 C 0.5843 0.33702 0.05222 0.0
C158 C 0.60781 0.37647 0.03366 0.0
H159 H 0.584 0.2647 0.05192 0.0
H160 H 0.55012 0.339 0.0749 0.0
C161 C 0.65251 0.37234 0.00607 0.0
C162 C 0.14613 0.96573 0.11763 0.0
C163 C 0.16168 0.92068 0.11719 0.0
H164 H 0.10917 0.01802 0.17833 0.0
C165 C 0.15335 0.89395 0.18298 0.0
H166 H 0.15268 0.98723 0.06794 0.0
C167 C 0.12806 0.91162 0.24673 0.0
C168 C 0.11108 0.95635 0.24566 0.0
H169 H 0.16504 0.85913 0.18379 0.0
H170 H 0.12122 0.89003 0.2961 0.0
C171 C 0.12115 0.98334 0.18093 0.0
C172 C 0.64898 0.5793 0.68212 0.0
C173 C 0.6734 0.62025 0.69032 0.0
H174 H 0.60593 0.53204 0.73768 0.0
C175 C 0.6772 0.64225 0.76652 0.0
H176 H 0.64651 0.5606 0.62516 0.0
C177 C 0.65492 0.62485 0.83182 0.0
C178 C 0.62843 0.5855 0.82141 0.0
H179 H 0.69568 0.67383 0.77488 0.0
H180 H 0.65652 0.64325 0.88915 0.0
C181 C 0.62622 0.56252 0.74665 0.0
C182 C 0.90698 0.15401 0.14229 0.0
C183 C 0.86094 0.14274 0.1266 0.0
H184 H 0.96724 0.14382 0.21524 0.0
C185 C 0.83881 0.11529 0.18035 0.0
H186 H 0.92477 0.1754 0.1022 0.0
C187 C 0.86324 0.09687 0.24538 0.0
C188 C 0.91022 0.10557 0.2576 0.0
H189 H 0.80343 0.10573 0.16925 0.0
H190 H 0.84582 0.07417 0.28367 0.0
C191 C 0.93134 0.13564 0.20689 0.0
C192 C 0.36289 0.41055 0.72424 0.0
C193 C 0.37836 0.4196 0.64738 0.0
H194 H 0.37302 0.42159 0.85167 0.0
C195 C 0.41659 0.44795 0.64155 0.0
H196 H 0.33345 0.3892 0.7313 0.0
C197 C 0.43787 0.46762 0.70991 0.0
C198 C 0.42268 0.45821 0.78619 0.0
H199 H 0.43103 0.4544 0.58424 0.0
H200 H 0.46723 0.48919 0.70313 0.0
C201 C 0.38529 0.42922 0.79315 0.0
C202 C 0.68515 0.61665 0.33427 0.0
C203 C 0.66289 0.64047 0.39594 0.0
H204 H 0.6781 0.57877 0.22277 0.0
C205 C 0.61553 0.64773 0.38774 0.0
H206 H 0.72152 0.61009 0.33938 0.0
C207 C 0.59052 0.62941 0.32161 0.0
C208 C 0.61231 0.60336 0.26198 0.0
H209 H 0.59753 0.66625 0.43413 0.0
H210 H 0.55391 0.63465 0.31854 0.0
C211 C 0.66011 0.59825 0.26796 0.0
C212 C 0.89432 0.08752 0.83623 0.0
C213 C 0.86377 0.1243 0.82928 0.0
H214 H 0.94253 0.04391 0.77831 0.0
C215 C 0.85655 0.14312 0.75324 0.0
H216 H 0.89967 0.07067 0.89242 0.0
C217 C 0.87993 0.12609 0.6867 0.0
C218 C 0.91166 0.09079 0.69561 0.0
H219 H 0.83367 0.1716 0.74529 0.0
H220 H 0.87435 0.14139 0.62903 0.0
C221 C 0.91856 0.07161 0.77061 0.0
C222 C 0.35684 0.46715 0.34337 0.0
C223 C 0.35799 0.4198 0.35144 0.0
H224 H 0.38088 0.52403 0.2805 0.0
C225 C 0.37988 0.39306 0.29292 0.0
H226 H 0.33942 0.48877 0.38627 0.0
C227 C 0.40288 0.41326 0.23164 0.0
C228 C 0.40512 0.4607 0.22791 0.0
H229 H 0.38211 0.35663 0.29735 0.0
H230 H 0.42112 0.39159 0.18989 0.0
C231 C 0.38062 0.48742 0.28283 0.0
C232 C 0.15315 0.96415 0.82269 0.0
C233 C 0.16432 0.91798 0.82402 0.0
H234 H 0.12008 0.0172 0.75978 0.0
C235 C 0.15262 0.88965 0.75728 0.0
H236 H 0.1623 0.98668 0.87333 0.0
C237 C 0.12794 0.90713 0.69154 0.0
C238 C 0.11493 0.95313 0.69201 0.0
H239 H 0.16097 0.8539 0.75738 0.0
H240 H 0.118 0.88446 0.64162 0.0
C241 C 0.12882 0.98152 0.75761 0.0
loop_
_geom_bond_atom_site_label_1
_geom_bond_atom_site_label_2
_geom_bond_distance
_geom_bond_site_symmetry_2
_ccdc_geom_bond_type
H0 C1 0.949 . S
C1 H0 0.949 . S
C1 C2 1.395 . S
C1 C3 1.391 . S
C2 C1 1.395 . S
C2 C5 1.390 . S
C3 C1 1.391 . S
C3 C7 1.387 1_554 S
C3 C8 1.491 1_554 S
H4 C5 0.950 . S
C5 C2 1.390 . S
C5 H4 0.950 . S
C5 C6 1.378 1_554 S
C6 C5 1.378 1_556 S
C6 C7 1.409 . S
C7 C3 1.387 1_556 S
C7 C6 1.409 . S
C7 H9 0.951 . S
C8 C3 1.491 1_556 S
C8 C10 1.382 1_556 S
C8 C12 1.404 . S
H9 C7 0.951 . S
C10 C8 1.382 1_554 S
C10 C11 1.390 . S
C10 H15 0.949 . S
C11 C10 1.390 . S
C11 C16 1.399 1_554 S
C12 C8 1.404 . S
C12 H13 0.950 . S
C12 C14 1.375 . S
H13 C12 0.950 . S
C14 C12 1.375 . S
C14 C16 1.382 . S
C14 H18 0.950 . S
H15 C10 0.949 . S
C16 C11 1.399 1_556 S
C16 C14 1.382 . S
C16 H17 0.952 . S
H17 C16 0.952 . S
H18 C14 0.950 . S
H19 C20 0.949 . S
C20 H19 0.949 . S
C20 C21 1.395 . S
C20 C22 1.391 . S
C21 C20 1.395 . S
C21 C24 1.390 . S
C22 C20 1.391 . S
C22 C26 1.387 . S
C22 C27 1.491 . S
H23 C24 0.950 . S
C24 C21 1.390 . S
C24 H23 0.950 . S
C24 C25 1.378 . S
C25 C24 1.378 . S
C25 C26 1.409 . S
C26 C22 1.387 . S
C26 C25 1.409 . S
C26 H28 0.951 . S
C27 C22 1.491 . S
C27 C29 1.382 . S
C27 C31 1.404 . S
H28 C26 0.951 . S
C29 C27 1.382 . S
C29 C30 1.390 . S
C29 H34 0.949 . S
C30 C29 1.390 . S
C30 C35 1.399 . S
C31 C27 1.404 . S
C31 H32 0.950 . S
C31 C33 1.375 . S
H32 C31 0.950 . S
C33 C31 1.375 . S
C33 C35 1.382 . S
C33 H37 0.950 . S
H34 C29 0.949 . S
C35 C30 1.399 . S
C35 C33 1.382 . S
C35 H36 0.952 . S
H36 C35 0.952 . S
H37 C33 0.950 . S
H38 C39 0.949 . S
C39 H38 0.949 . S
C39 C40 1.395 . S
C39 C41 1.391 . S
C40 C39 1.395 . S
C40 C43 1.390 . S
C41 C39 1.391 . S
C41 C45 1.387 1_554 S
C41 C46 1.491 1_554 S
H42 C43 0.950 . S
C43 C40 1.390 . S
C43 H42 0.950 . S
C43 C44 1.378 1_554 S
C44 C43 1.378 1_556 S
C44 C45 1.409 . S
C45 C41 1.387 1_556 S
C45 C44 1.409 . S
C45 H47 0.951 . S
C46 C41 1.491 1_556 S
C46 C48 1.382 1_556 S
C46 C50 1.404 . S
H47 C45 0.951 . S
C48 C46 1.382 1_554 S
C48 C49 1.390 . S
C48 H53 0.949 . S
C49 C48 1.390 . S
C49 C54 1.399 1_554 S
C50 C46 1.404 . S
C50 H51 0.950 . S
C50 C52 1.375 . S
H51 C50 0.950 . S
C52 C50 1.375 . S
C52 C54 1.382 . S
C52 H56 0.950 . S
H53 C48 0.949 . S
C54 C49 1.399 1_556 S
C54 C52 1.382 . S
C54 H55 0.952 . S
H55 C54 0.952 . S
H56 C52 0.950 . S
H57 C58 0.949 . S
C58 H57 0.949 . S
C58 C59 1.395 . S
C58 C60 1.391 . S
C59 C58 1.395 . S
C59 C62 1.390 . S
C60 C58 1.391 . S
C60 C64 1.387 . S
C60 C65 1.491 . S
H61 C62 0.950 . S
C62 C59 1.390 . S
C62 H61 0.950 . S
C62 C63 1.378 . S
C63 C62 1.378 . S
C63 C64 1.409 . S
C64 C60 1.387 . S
C64 C63 1.409 . S
C64 H66 0.951 . S
C65 C60 1.491 . S
C65 C67 1.382 . S
C65 C69 1.404 . S
H66 C64 0.951 . S
C67 C65 1.382 . S
C67 C68 1.390 . S
C67 H72 0.949 . S
C68 C67 1.390 . S
C68 C73 1.399 . S
C69 C65 1.404 . S
C69 H70 0.950 . S
C69 C71 1.375 . S
H70 C69 0.950 . S
C71 C69 1.375 . S
C71 C73 1.382 . S
C71 H75 0.950 . S
H72 C67 0.949 . S
C73 C68 1.399 . S
C73 C71 1.382 . S
C73 H74 0.952 . S
H74 C73 0.952 . S
H75 C71 0.950 . S
O76 Zn77 1.953 1_565 S
O76 C92 1.225 . S
Zn77 O76 1.953 1_545 S
Zn77 O78 1.949 1_655 S
Zn77 O84 1.919 . S
Zn77 O89 1.924 . S
O78 Zn77 1.949 1_455 S
O78 Zn79 1.923 . S
O78 Zn80 1.950 1_545 S
O78 Zn81 1.945 . S
Zn79 O78 1.923 . S
Zn79 O82 1.933 . S
Zn79 O85 1.941 . S
Zn79 O86 1.965 1_545 S
Zn80 O78 1.950 1_565 S
Zn80 O87 1.938 . S
Zn80 O88 1.906 . S
Zn80 O98 1.953 1_455 S
Zn81 O78 1.945 . S
Zn81 O83 1.932 . S
Zn81 O90 1.977 1_545 S
Zn81 O91 1.910 1_455 S
O82 Zn79 1.933 . S
O82 C93 1.226 . S
O83 Zn81 1.932 . S
O83 C93 1.307 . S
O84 Zn77 1.919 . S
O84 C95 1.253 . S
O85 Zn79 1.941 . S
O85 C95 1.283 1_455 S
O86 Zn79 1.965 1_565 S
O86 C94 1.303 . S
O87 Zn80 1.938 . S
O87 C94 1.247 . S
O88 Zn80 1.906 . S
O88 C96 1.304 . S
O89 Zn77 1.924 . S
O89 C97 1.311 . S
O90 Zn81 1.977 1_565 S
O90 C96 1.272 . S
O91 Zn81 1.910 1_655 S
O91 C97 1.231 . S
C92 O76 1.225 . S
C92 O98 1.298 . S
C93 O82 1.226 . S
C93 O83 1.307 . S
C94 O86 1.303 . S
C94 O87 1.247 . S
C95 O84 1.253 . S
C95 O85 1.283 1_655 S
C96 O88 1.304 . S
C96 O90 1.272 . S
C97 O89 1.311 . S
C97 O91 1.231 . S
O98 Zn80 1.953 1_655 S
O98 C92 1.298 . S
O99 Zn100 1.953 . S
O99 C115 1.225 . S
Zn100 O99 1.953 . S
Zn100 O101 1.949 . S
Zn100 O107 1.919 1_554 S
Zn100 O112 1.924 . S
O101 Zn100 1.949 . S
O101 Zn102 1.923 1_554 S
O101 Zn103 1.950 . S
O101 Zn104 1.945 . S
Zn102 O101 1.923 1_556 S
Zn102 O105 1.933 . S
Zn102 O108 1.941 . S
Zn102 O109 1.965 . S
Zn103 O101 1.950 . S
Zn103 O110 1.938 1_554 S
Zn103 O111 1.906 . S
Zn103 O121 1.953 . S
Zn104 O101 1.945 . S
Zn104 O106 1.932 . S
Zn104 O113 1.977 . S
Zn104 O114 1.910 . S
O105 Zn102 1.933 . S
O105 C116 1.226 1_556 S
O106 Zn104 1.932 . S
O106 C116 1.307 . S
O107 Zn100 1.919 1_556 S
O107 C118 1.253 . S
O108 Zn102 1.941 . S
O108 C118 1.283 . S
O109 Zn102 1.965 . S
O109 C117 1.303 . S
O110 Zn103 1.938 1_556 S
O110 C117 1.247 . S
O111 Zn103 1.906 . S
O111 C119 1.304 . S
O112 Zn100 1.924 . S
O112 C120 1.311 . S
O113 Zn104 1.977 . S
O113 C119 1.272 . S
O114 Zn104 1.910 . S
O114 C120 1.231 . S
C115 O99 1.225 . S
C115 O121 1.298 . S
C116 O105 1.226 1_554 S
C116 O106 1.307 . S
C117 O109 1.303 . S
C117 O110 1.247 . S
C118 O107 1.253 . S
C118 O108 1.283 . S
C119 O111 1.304 . S
C119 O113 1.272 . S
C120 O112 1.311 . S
C120 O114 1.231 . S
O121 Zn103 1.953 . S
O121 C115 1.298 . S
C122 C123 1.387 . S
C122 H126 0.950 . S
C122 C131 1.390 . S
C123 C122 1.387 . S
C123 C125 1.387 . S
H124 C131 0.950 . S
C125 C123 1.387 . S
C125 C127 1.390 . S
C125 H129 0.950 . S
H126 C122 0.950 . S
C127 C125 1.390 . S
C127 C128 1.387 . S
C127 H130 0.950 . S
C128 C127 1.387 . S
C128 C131 1.387 . S
H129 C125 0.950 . S
H130 C127 0.950 . S
C131 C122 1.390 . S
C131 H124 0.950 . S
C131 C128 1.387 . S
C132 C133 1.387 1_556 S
C132 H136 0.950 . S
C132 C141 1.390 . S
C133 C132 1.387 1_554 S
C133 C135 1.387 . S
H134 C141 0.950 . S
C135 C133 1.387 . S
C135 C137 1.390 . S
C135 H139 0.950 . S
H136 C132 0.950 . S
C137 C135 1.390 . S
C137 C138 1.387 . S
C137 H140 0.950 . S
C138 C137 1.387 . S
C138 C141 1.387 1_554 S
H139 C135 0.950 . S
H140 C137 0.950 . S
C141 C132 1.390 . S
C141 H134 0.950 . S
C141 C138 1.387 1_556 S
C142 C143 1.387 . S
C142 H146 0.950 . S
C142 C151 1.390 . S
C143 C142 1.387 . S
C143 C145 1.387 . S
H144 C151 0.950 . S
C145 C143 1.387 . S
C145 C147 1.390 . S
C145 H149 0.950 . S
H146 C142 0.950 . S
C147 C145 1.390 . S
C147 C148 1.387 . S
C147 H150 0.950 . S
C148 C147 1.387 . S
C148 C151 1.387 . S
H149 C145 0.950 . S
H150 C147 0.950 . S
C151 C142 1.390 . S
C151 H144 0.950 . S
C151 C148 1.387 . S
C152 C153 1.387 1_556 S
C152 H156 0.950 . S
C152 C161 1.390 . S
C153 C152 1.387 1_554 S
C153 C155 1.387 . S
H154 C161 0.950 . S
C155 C153 1.387 . S
C155 C157 1.390 . S
C155 H159 0.950 . S
H156 C152 0.950 . S
C157 C155 1.390 . S
C157 C158 1.387 . S
C157 H160 0.950 . S
C158 C157 1.387 . S
C158 C161 1.387 1_554 S
H159 C155 0.950 . S
H160 C157 0.950 . S
C161 C152 1.390 . S
C161 H154 0.950 . S
C161 C158 1.387 1_556 S
C162 C163 1.387 . S
C162 H166 0.950 . S
C162 C171 1.390 . S
C163 C162 1.387 . S
C163 C165 1.387 . S
H164 C171 0.950 . S
C165 C163 1.387 . S
C165 C167 1.390 . S
C165 H169 0.950 . S
H166 C162 0.950 . S
C167 C165 1.390 . S
C167 C168 1.387 . S
C167 H170 0.950 . S
C168 C167 1.387 . S
C168 C171 1.387 . S
H169 C165 0.950 . S
H170 C167 0.950 . S
C171 C162 1.390 . S
C171 H164 0.950 . S
C171 C168 1.387 . S
C172 C173 1.387 . S
C172 H176 0.950 . S
C172 C181 1.390 . S
C173 C172 1.387 . S
C173 C175 1.387 . S
H174 C181 0.950 . S
C175 C173 1.387 . S
C175 C177 1.390 . S
C175 H179 0.950 . S
H176 C172 0.950 . S
C177 C175 1.390 . S
C177 C178 1.387 . S
C177 H180 0.950 . S
C178 C177 1.387 . S
C178 C181 1.387 . S
H179 C175 0.950 . S
H180 C177 0.950 . S
C181 C172 1.390 . S
C181 H174 0.950 . S
C181 C178 1.387 . S
C182 C183 1.387 . S
C182 H186 0.950 . S
C182 C191 1.390 . S
C183 C182 1.387 . S
C183 C185 1.387 . S
H184 C191 0.950 . S
C185 C183 1.387 . S
C185 C187 1.390 . S
C185 H189 0.950 . S
H186 C182 0.950 . S
C187 C185 1.390 . S
C187 C188 1.387 . S
C187 H190 0.950 . S
C188 C187 1.387 . S
C188 C191 1.387 . S
H189 C185 0.950 . S
H190 C187 0.950 . S
C191 C182 1.390 . S
C191 H184 0.950 . S
C191 C188 1.387 . S
C192 C193 1.387 . S
C192 H196 0.950 . S
C192 C201 1.390 . S
C193 C192 1.387 . S
C193 C195 1.387 . S
H194 C201 0.950 . S
C195 C193 1.387 . S
C195 C197 1.390 . S
C195 H199 0.950 . S
H196 C192 0.950 . S
C197 C195 1.390 . S
C197 C198 1.387 . S
C197 H200 0.950 . S
C198 C197 1.387 . S
C198 C201 1.387 . S
H199 C195 0.950 . S
H200 C197 0.950 . S
C201 C192 1.390 . S
C201 H194 0.950 . S
C201 C198 1.387 . S
C202 C203 1.387 . S
C202 H206 0.950 . S
C202 C211 1.390 . S
C203 C202 1.387 . S
C203 C205 1.387 . S
H204 C211 0.950 . S
C205 C203 1.387 . S
C205 C207 1.390 . S
C205 H209 0.950 . S
H206 C202 0.950 . S
C207 C205 1.390 . S
C207 C208 1.387 . S
C207 H210 0.950 . S
C208 C207 1.387 . S
C208 C211 1.387 . S
H209 C205 0.950 . S
H210 C207 0.950 . S
C211 C202 1.390 . S
C211 H204 0.950 . S
C211 C208 1.387 . S
C212 C213 1.387 . S
C212 H216 0.950 . S
C212 C221 1.390 . S
C213 C212 1.387 . S
C213 C215 1.387 . S
H214 C221 0.950 . S
C215 C213 1.387 . S
C215 C217 1.390 . S
C215 H219 0.950 . S
H216 C212 0.950 . S
C217 C215 1.390 . S
C217 C218 1.387 . S
C217 H220 0.950 . S
C218 C217 1.387 . S
C218 C221 1.387 . S
H219 C215 0.950 . S
H220 C217 0.950 . S
C221 C212 1.390 . S
C221 H214 0.950 . S
C221 C218 1.387 . S
C222 C223 1.387 . S
C222 H226 0.950 . S
C222 C231 1.390 . S
C223 C222 1.387 . S
C223 C225 1.387 . S
H224 C231 0.950 . S
C225 C223 1.387 . S
C225 C227 1.390 . S
C225 H229 0.950 . S
H226 C222 0.950 . S
C227 C225 1.390 . S
C227 C228 1.387 . S
C227 H230 0.950 . S
C228 C227 1.387 . S
C228 C231 1.387 . S
H229 C225 0.950 . S
H230 C227 0.950 . S
C231 C222 1.390 . S
C231 H224 0.950 . S
C231 C228 1.387 . S
C232 C233 1.387 . S
C232 H236 0.950 . S
C232 C241 1.390 . S
C233 C232 1.387 . S
C233 C235 1.387 . S
H234 C241 0.950 . S
C235 C233 1.387 . S
C235 C237 1.390 . S
C235 H239 0.950 . S
H236 C232 0.950 . S
C237 C235 1.390 . S
C237 C238 1.387 . S
C237 H240 0.950 . S
C238 C237 1.387 . S
C238 C241 1.387 . S
H239 C235 0.950 . S
H240 C237 0.950 . S
C241 C232 1.390 . S
C241 H234 0.950 . S
C241 C238 1.387 . S
C128 C93 1.525 . S
C123 C68 1.385 . S
C133 C11 1.390 . S
C138 C116 1.527 . S
C143 C30 1.432 . S
C148 C92 1.546 . S
C153 C49 1.414 . S
C158 C115 1.547 . S
C168 C96 1.536 . S
C163 C2 1.540 . S
C178 C118 1.533 . S
C173 C25 1.602 . S
C183 C40 1.569 . S
C188 C97 1.533 . S
C193 C59 1.561 . S
C198 C117 1.525 . S
C208 C120 1.433 . S
C203 C21 1.468 . S
C218 C95 1.441 . S
C213 C44 1.517 . S
C228 C119 1.440 . S
C223 C63 1.494 . S
C233 C6 1.500 . S
C238 C94 1.436 . S
