# Generated by pormake.
# Topology pts, (4,4)-cn, num edge types: 1
# Building blocks:
#     Node 0, Type 0, BuildingBlock: GIZVER_clean_linker_0, # of connection points: 4
#     Node 1, Type 0, BuildingBlock: GIZVER_clean_linker_0, # of connection points: 4
#     Node 2, Type 1, BuildingBlock: QUQFOY_clean_sbu_1, # of connection points: 4
#     Node 3, Type 1, BuildingBlock: QUQFOY_clean_sbu_1, # of connection points: 4
#     Edge 4, Type (0, 1), None
#     Edge 5, Type (0, 1), None
#     Edge 6, Type (0, 1), None
#     Edge 7, Type (0, 1), None
#     Edge 8, Type (0, 1), None
#     Edge 9, Type (0, 1), None
#     Edge 10, Type (0, 1), None
#     Edge 11, Type (0, 1), None
# Relax obj value: 0.099
# Max RMSD: 0.271
# Mean RMSD: 0.181
data_MOF--net-pts--node1-QUQFOY_clean_sbu_1--node2-GIZVER_clean_linker_0--edge1-none
_symmetry_space_group_name_H-M    P1
_symmetry_Int_Tables_number       1
_symmetry_cell_setting            triclinic
loop_
_symmetry_equiv_pos_as_xyz
'x, y, z'
_cell_length_a     12.124782
_cell_length_b     12.981396
_cell_length_c     16.665019
_cell_angle_alpha  90.364883
_cell_angle_beta   89.292057
_cell_angle_gamma 90.0299
loop_
_atom_site_label
_atom_site_type_symbol
_atom_site_fract_x
_atom_site_fract_y
_atom_site_fract_z
_atom_type_partial_charge
H0 H 0.59404 0.13337 0.1416 0.0
H1 H 0.59938 0.13727 0.88303 0.0
H2 H 0.84189 0.96429 0.01034 0.0
H3 H 0.47746 0.25347 0.0674 0.0
H4 H 0.48016 0.25536 0.95994 0.0
H5 H 0.35868 0.13278 0.14063 0.0
H6 H 0.11733 0.96292 0.008 0.0
H7 H 0.36364 0.13841 0.88202 0.0
C8 C 0.62733 0.10501 0.08498 0.0
C9 C 0.72093 0.0417 0.08441 0.0
C10 C 0.57983 0.13576 0.01227 0.0
C11 C 0.63037 0.10726 0.93897 0.0
C12 C 0.72398 0.04407 0.93813 0.0
C13 C 0.7652 1.00751 0.01083 0.0
C14 C 0.47917 0.20352 0.01288 0.0
C15 C 0.37754 0.13695 0.01139 0.0
C16 C 0.32769 0.10487 0.08375 0.0
C17 C 0.23451 0.04107 0.08255 0.0
C18 C 0.19365 1.00673 0.00883 0.0
C19 C 0.23735 0.0441 0.93644 0.0
C20 C 0.33048 0.10806 0.93777 0.0
H21 H 0.06658 0.64351 0.37914 0.0
H22 H 0.07104 0.647 0.63678 0.0
H23 H 0.94645 0.90891 0.50936 0.0
H24 H 0.19622 0.5357 0.45265 0.0
H25 H 0.19831 0.53744 0.55937 0.0
H26 H 0.06542 0.42733 0.37998 0.0
H27 H 0.93785 0.16951 0.51248 0.0
H28 H 0.07125 0.43061 0.6381 0.0
C29 C 0.04576 0.68146 0.43545 0.0
C30 C 0.00012 0.78088 0.43527 0.0
C31 C 0.07287 0.63366 0.50794 0.0
C32 C 0.04831 0.68344 0.58102 0.0
C33 C 0.00277 0.78286 0.5822 0.0
C34 C -0.02063 0.83127 0.50899 0.0
C35 C 0.14206 0.53727 0.50707 0.0
C36 C 0.07246 0.4411 0.5089 0.0
C37 C 0.04363 0.39188 0.43673 0.0
C38 C -0.0042 0.29339 0.43777 0.0
C39 C -0.02698 0.24634 0.51152 0.0
C40 C -0.00087 0.29526 0.58399 0.0
C41 C 0.04697 0.39375 0.5825 0.0
O42 O 0.83371 0.94697 0.17219 0.0
Cd43 Cd -0.02436 0.92504 0.23731 0.0
Cd44 Cd -0.02354 0.13403 0.24675 0.0
O45 O 0.83333 0.11721 0.18198 0.0
O46 O -0.01711 0.78664 0.29067 0.0
O47 O -0.02198 0.93472 0.35699 0.0
C48 C -0.0155 0.83562 0.35844 0.0
C49 C -0.01795 0.23349 0.36308 0.0
C50 C 0.79176 0.03395 0.15517 0.0
C51 C 0.16077 0.03283 0.15283 0.0
O52 O 0.12085 0.11593 0.18149 0.0
O53 O 0.11582 0.94661 0.16824 0.0
O54 O -0.01688 0.27697 0.29368 0.0
O55 O -0.02507 0.13451 0.36568 0.0
O56 O 0.83879 0.12231 0.84199 0.0
Cd57 Cd -0.017 0.14095 0.77639 0.0
Cd58 Cd -0.01769 0.93152 0.78038 0.0
O59 O 0.84013 0.95191 0.84806 0.0
O60 O -0.0111 0.28282 0.72858 0.0
O61 O -0.01746 0.1382 0.6577 0.0
C62 C -0.01189 0.23734 0.6595 0.0
C63 C -0.01044 0.83946 0.65922 0.0
C64 C 0.79731 0.03828 0.86729 0.0
C65 C 0.16622 0.0383 0.86577 0.0
O66 O 0.12219 0.95243 0.84776 0.0
O67 O 0.1263 0.12223 0.84014 0.0
O68 O -0.01091 0.79204 0.72717 0.0
O69 O -0.01639 0.93859 0.6605 0.0
loop_
_geom_bond_atom_site_label_1
_geom_bond_atom_site_label_2
_geom_bond_distance
_geom_bond_site_symmetry_2
_ccdc_geom_bond_type
H0 C8 0.930 . S
H1 C11 0.930 . S
H2 C13 0.931 . S
H3 C14 0.970 . S
H4 C14 0.970 1_556 S
H5 C16 0.930 . S
H6 C18 0.930 . S
H7 C20 0.930 . S
C8 H0 0.930 . S
C8 C9 1.382 . S
C8 C10 1.426 . S
C9 C8 1.382 . S
C9 C13 1.388 1_545 S
C10 C8 1.426 . S
C10 C11 1.375 1_554 S
C10 C14 1.532 . S
C11 H1 0.930 . S
C11 C10 1.375 1_556 S
C11 C12 1.416 . S
C12 C11 1.416 . S
C12 C13 1.371 1_546 S
C13 H2 0.931 . S
C13 C9 1.388 1_565 S
C13 C12 1.371 1_564 S
C14 H3 0.970 . S
C14 H4 0.970 1_554 S
C14 C10 1.532 . S
C14 C15 1.499 . S
C15 C14 1.499 . S
C15 C16 1.370 . S
C15 C20 1.415 1_554 S
C16 H5 0.930 . S
C16 C15 1.370 . S
C16 C17 1.407 . S
C17 C16 1.407 . S
C17 C18 1.365 1_545 S
C18 H6 0.930 . S
C18 C17 1.365 1_565 S
C18 C19 1.393 1_564 S
C19 C18 1.393 1_546 S
C19 C20 1.387 . S
C20 H7 0.930 . S
C20 C15 1.415 1_556 S
C20 C19 1.387 . S
H21 C29 0.930 . S
H22 C32 0.930 . S
H23 C34 0.930 . S
H24 C35 0.970 . S
H25 C35 0.970 . S
H26 C37 0.930 . S
H27 C39 0.930 . S
H28 C41 0.930 . S
C29 H21 0.930 . S
C29 C30 1.382 . S
C29 C31 1.426 . S
C30 C29 1.382 . S
C30 C34 1.389 1_455 S
C31 C29 1.426 . S
C31 C32 1.375 . S
C31 C35 1.532 . S
C32 H22 0.930 . S
C32 C31 1.375 . S
C32 C33 1.416 . S
C33 C32 1.416 . S
C33 C34 1.371 1_455 S
C34 H23 0.930 . S
C34 C30 1.389 1_655 S
C34 C33 1.371 1_655 S
C35 H24 0.970 . S
C35 H25 0.970 . S
C35 C31 1.532 . S
C35 C36 1.499 . S
C36 C35 1.499 . S
C36 C37 1.370 . S
C36 C41 1.415 . S
C37 H26 0.930 . S
C37 C36 1.370 . S
C37 C38 1.407 . S
C38 C37 1.407 . S
C38 C39 1.365 1_455 S
C39 H27 0.930 . S
C39 C38 1.365 1_655 S
C39 C40 1.393 1_655 S
C40 C39 1.393 1_455 S
C40 C41 1.387 . S
C41 H28 0.930 . S
C41 C36 1.415 . S
C41 C40 1.387 . S
O42 Cd43 2.223 1_655 S
O42 C50 1.315 . S
Cd43 O42 2.223 1_455 S
Cd43 O46 2.297 1_455 S
Cd43 O47 2.439 1_455 S
Cd43 O53 2.240 1_565 S
Cd44 O45 2.239 . S
Cd44 O52 2.223 1_655 S
Cd44 O54 2.297 1_655 S
Cd44 O55 2.439 1_655 S
O45 Cd44 2.239 . S
O45 C50 1.280 1_545 S
O46 Cd43 2.297 1_655 S
O46 C48 1.247 . S
O47 Cd43 2.439 1_655 S
O47 C48 1.208 . S
C48 O46 1.247 . S
C48 O47 1.208 . S
C49 O54 1.247 . S
C49 O55 1.208 . S
C50 O42 1.315 . S
C50 O45 1.280 1_565 S
C51 O52 1.315 . S
C51 O53 1.279 . S
O52 Cd44 2.223 1_455 S
O52 C51 1.315 . S
O53 Cd43 2.240 1_545 S
O53 C51 1.279 . S
O54 Cd44 2.297 1_455 S
O54 C49 1.247 . S
O55 Cd44 2.439 1_455 S
O55 C49 1.208 . S
O56 Cd57 2.223 1_655 S
O56 C64 1.315 . S
Cd57 O56 2.223 1_455 S
Cd57 O60 2.297 1_455 S
Cd57 O61 2.439 1_455 S
Cd57 O67 2.240 1_545 S
Cd58 O59 2.240 1_565 S
Cd58 O66 2.223 1_655 S
Cd58 O68 2.297 1_655 S
Cd58 O69 2.439 1_655 S
O59 Cd58 2.240 1_545 S
O59 C64 1.279 . S
O60 Cd57 2.297 1_655 S
O60 C62 1.247 . S
O61 Cd57 2.439 1_655 S
O61 C62 1.208 . S
C62 O60 1.247 . S
C62 O61 1.208 . S
C63 O68 1.247 . S
C63 O69 1.208 . S
C64 O56 1.315 . S
C64 O59 1.279 . S
C65 O66 1.315 . S
C65 O67 1.279 . S
O66 Cd58 2.223 1_455 S
O66 C65 1.315 . S
O67 Cd57 2.240 1_565 S
O67 C65 1.279 . S
O68 Cd58 2.297 1_455 S
O68 C63 1.247 . S
O69 Cd58 2.439 1_455 S
O69 C63 1.208 . S
C51 C17 1.783 . S
C62 C40 1.790 1_655 S
C50 C9 2.004 1_565 S
C63 C33 1.582 . S
C65 C19 1.985 1_565 S
C49 C38 1.612 . S
C64 C12 1.747 . S
C30 C48 1.808 1_455 S
