# Generated by pormake.
# Topology zzz, (3,6)-cn, num edge types: 1
# Building blocks:
#     Node 0, Type 0, BuildingBlock: PAMTOO_clean_linker_0, # of connection points: 3
#     Node 1, Type 0, BuildingBlock: PAMTOO_clean_linker_0, # of connection points: 3
#     Node 2, Type 0, BuildingBlock: PAMTOO_clean_linker_0, # of connection points: 3
#     Node 3, Type 0, BuildingBlock: PAMTOO_clean_linker_0, # of connection points: 3
#     Node 4, Type 0, BuildingBlock: PAMTOO_clean_linker_0, # of connection points: 3
#     Node 5, Type 0, BuildingBlock: PAMTOO_clean_linker_0, # of connection points: 3
#     Node 6, Type 0, BuildingBlock: PAMTOO_clean_linker_0, # of connection points: 3
#     Node 7, Type 0, BuildingBlock: PAMTOO_clean_linker_0, # of connection points: 3
#     Node 8, Type 1, BuildingBlock: BETDEL_clean_sbu_0, # of connection points: 6
#     Node 9, Type 1, BuildingBlock: BETDEL_clean_sbu_0, # of connection points: 6
#     Node 10, Type 1, BuildingBlock: BETDEL_clean_sbu_0, # of connection points: 6
#     Node 11, Type 1, BuildingBlock: BETDEL_clean_sbu_0, # of connection points: 6
#     Edge 12, Type (0, 1), None
#     Edge 13, Type (0, 1), None
#     Edge 14, Type (0, 1), None
#     Edge 15, Type (0, 1), None
#     Edge 16, Type (0, 1), None
#     Edge 17, Type (0, 1), None
#     Edge 18, Type (0, 1), None
#     Edge 19, Type (0, 1), None
#     Edge 20, Type (0, 1), None
#     Edge 21, Type (0, 1), None
#     Edge 22, Type (0, 1), None
#     Edge 23, Type (0, 1), None
#     Edge 24, Type (0, 1), None
#     Edge 25, Type (0, 1), None
#     Edge 26, Type (0, 1), None
#     Edge 27, Type (0, 1), None
#     Edge 28, Type (0, 1), None
#     Edge 29, Type (0, 1), None
#     Edge 30, Type (0, 1), None
#     Edge 31, Type (0, 1), None
#     Edge 32, Type (0, 1), None
#     Edge 33, Type (0, 1), None
#     Edge 34, Type (0, 1), None
#     Edge 35, Type (0, 1), None
# Relax obj value: 0.199
# Max RMSD: 0.198
# Mean RMSD: 0.130
data_MOF--net-zzz--node1-BETDEL_clean_sbu_0--node2-PAMTOO_clean_linker_0--edge1-none
_symmetry_space_group_name_H-M    P1
_symmetry_Int_Tables_number       1
_symmetry_cell_setting            triclinic
loop_
_symmetry_equiv_pos_as_xyz
'x, y, z'
_cell_length_a     20.841873
_cell_length_b     21.552062
_cell_length_c     6.9283377
_cell_angle_alpha  90.768943
_cell_angle_beta   87.780474
_cell_angle_gamma 96.046778
loop_
_atom_site_label
_atom_site_type_symbol
_atom_site_fract_x
_atom_site_fract_y
_atom_site_fract_z
_atom_type_partial_charge
H0 H 0.93646 0.42971 0.29087 0.0
H1 H 0.80258 0.42957 0.83914 0.0
H2 H 0.81985 0.58166 0.24416 0.0
H3 H 0.66444 0.52319 0.13172 0.0
C4 C 0.68414 0.50082 0.00044 0.0
O5 O 0.74763 0.5252 -0.03482 0.0
H6 H 0.68121 0.44978 0.02731 0.0
C7 C 0.89613 0.44924 0.22812 0.0
C8 C 0.88337 0.50936 0.28429 0.0
C9 C 0.87692 0.42747 0.04699 0.0
C10 C 0.82119 0.44843 -0.02582 0.0
C11 C 0.79747 0.5023 0.052 0.0
C12 C 0.83157 0.53559 0.20095 0.0
H13 H 0.12694 0.92538 0.26024 0.0
H14 H 0.1032 0.79363 0.79723 0.0
H15 H 0.94551 0.81257 0.20059 0.0
H16 H 0.94222 0.65619 -0.01841 0.0
C17 C 0.99251 0.67613 0.94605 0.0
O18 O 0.9918 0.73995 0.91235 0.0
H19 H 1.01967 0.66838 0.07535 0.0
C20 C 0.09844 0.88623 0.19395 0.0
C21 C 1.03306 0.87531 0.24765 0.0
C22 C 0.11729 0.86778 0.0092 0.0
C23 C 0.08648 0.8117 0.93486 0.0
C24 C 1.02553 0.78777 0.01101 0.0
C25 C 0.99611 0.82336 0.16033 0.0
H26 H 0.64236 0.13195 0.22192 0.0
H27 H 0.80309 0.11568 0.82904 0.0
H28 H 0.7576 0.97919 0.27589 0.0
H29 H 0.83111 0.96048 0.84402 0.0
C30 C 0.87346 0.98599 0.9138 0.0
O31 O 0.85379 0.03288 0.0356 0.0
H32 H 0.89515 0.95173 0.00257 0.0
C33 C 0.68368 0.10797 0.17746 0.0
C34 C 0.69062 0.0498 0.25703 0.0
C35 C 0.71713 0.12657 0.00641 0.0
C36 C 0.77428 0.09972 -0.04416 0.0
C37 C 0.79249 0.04978 0.06271 0.0
C38 C 0.74772 1.02151 0.20551 0.0
H39 H 0.66135 0.64848 0.10383 0.0
H40 H 0.57217 0.78079 0.79021 0.0
H41 H 0.55473 0.78328 0.40483 0.0
H42 H 0.63965 0.87773 0.86574 0.0
C43 C 0.60861 0.9026 -0.03182 0.0
O44 O 0.56577 0.85972 0.07427 0.0
H45 H 0.64315 0.92882 0.0631 0.0
C46 C 0.63714 0.69078 0.10823 0.0
C47 C 0.60123 0.70479 0.27204 0.0
C48 C 0.61139 0.70782 0.93965 0.0
C49 C 0.58724 0.76478 0.92746 0.0
C50 C 0.5783 0.79905 0.09546 0.0
C51 C 0.57685 0.76527 0.27481 0.0
H52 H 0.1619 0.64522 0.88072 0.0
H53 H 0.3046 0.65386 0.30846 0.0
H54 H 0.28437 0.4975 0.91803 0.0
H55 H 0.35235 0.47529 0.32318 0.0
C56 C 0.35624 0.52615 0.35439 0.0
O57 O 0.3601 0.55823 0.18143 0.0
H58 H 0.31229 0.5357 0.44184 0.0
C59 C 0.20374 0.62719 0.93923 0.0
C60 C 0.21794 0.56752 0.88264 0.0
C61 C 0.22539 0.65082 0.11587 0.0
C62 C 0.28395 0.63302 0.17856 0.0
C63 C 0.30751 0.57873 0.10247 0.0
C64 C 0.27163 0.54322 -0.03863 0.0
H65 H 0.95605 0.14539 0.91799 0.0
H66 H 0.9774 0.29236 0.33901 0.0
H67 H 0.11945 0.28384 0.87306 0.0
H68 H 0.14521 0.42211 0.14795 0.0
C69 C 0.10996 0.39263 0.24069 0.0
O70 O 0.06236 0.36367 0.12387 0.0
H71 H 0.13696 0.35701 0.30701 0.0
C72 C 0.98215 0.18828 -0.03053 0.0
C73 C 0.04406 0.20537 0.89389 0.0
C74 C 0.96517 0.21132 0.14994 0.0
C75 C 0.99351 0.27086 0.20601 0.0
C76 C 0.04564 0.30088 0.09569 0.0
C77 C 0.07483 0.26532 0.94613 0.0
H78 H 0.43159 0.94149 0.93193 0.0
H79 H 0.27211 0.95901 0.32879 0.0
H80 H 0.31791 0.09555 0.88278 0.0
H81 H 0.18375 0.12542 0.15519 0.0
C82 C 0.20475 0.09105 0.24534 0.0
O83 O 0.22223 0.04316 0.12428 0.0
H84 H 0.248 0.1151 0.3145 0.0
C85 C 0.39055 0.96568 -0.02245 0.0
C86 C 0.38391 1.02412 0.89936 0.0
C87 C 0.35755 0.94734 0.14951 0.0
C88 C 0.30071 0.97465 0.20127 0.0
C89 C 0.28281 1.02492 0.09496 0.0
C90 C 0.32737 0.05286 0.95191 0.0
H91 H 0.42688 0.41517 0.13629 0.0
H92 H 0.56343 0.29123 0.28712 0.0
H93 H 0.47433 0.27386 0.73848 0.0
H94 H 0.42486 0.14544 0.11452 0.0
C95 C 0.46498 0.1716 0.19097 0.0
O96 O 0.50733 0.20457 0.05708 0.0
H97 H 0.44151 0.20416 0.29063 0.0
C98 C 0.45196 0.37454 0.10076 0.0
C99 C 0.45841 0.35783 0.91099 0.0
C100 C 0.50416 0.3623 0.20716 0.0
C101 C 0.53093 0.30638 0.1832 0.0
C102 C 0.50741 0.26739 0.03463 0.0
C103 C 0.47923 0.29677 0.87787 0.0
Dy104 Dy 0.07635 1.01184 0.67908 0.0
C105 C 0.94977 0.16209 0.2941 0.0
C106 C 0.12964 0.92075 0.87569 0.0
Dy107 Dy 1.00124 0.0676 0.47903 0.0
O108 O 0.12402 0.97754 0.93531 0.0
O109 O 0.10918 0.91617 0.70224 0.0
O110 O 0.16939 0.06364 0.57918 0.0
O111 O 0.09765 0.04247 0.37328 0.0
C112 C 0.15455 0.06825 0.40115 0.0
C113 C 0.92322 1.01005 0.75748 0.0
O114 O 1.00717 0.98216 0.28587 0.0
O115 O 1.0189 0.92767 0.55111 0.0
O116 O 0.94583 0.10347 0.24201 0.0
O117 O 0.9781 0.16674 0.45636 0.0
O118 O 0.90792 1.01602 0.58049 0.0
O119 O 0.97997 0.0363 0.78453 0.0
O120 O 0.07272 0.09997 0.86128 0.0
O121 O 0.06013 0.15258 0.59383 0.0
C122 C 1.00774 0.92679 0.36636 0.0
C123 C 0.07167 0.15482 0.7776 0.0
Dy124 Dy 0.50751 0.98073 0.46728 0.0
C125 C 0.67662 0.14784 0.85515 0.0
C126 C 0.39851 0.92608 0.29992 0.0
Dy127 Dy 0.56682 0.09354 0.69116 0.0
O128 O 0.45792 0.91514 0.25323 0.0
O129 O 0.40038 0.95812 0.45951 0.0
O130 O 0.60938 0.96204 0.36585 0.0
O131 O 0.58626 0.05206 0.41515 0.0
C132 C 0.63266 1.02071 0.37223 0.0
C133 C 0.44183 0.05359 0.78631 0.0
O134 O 0.53621 0.15117 0.45177 0.0
O135 O 0.47924 0.06592 0.30365 0.0
O136 O 0.61753 0.15973 0.90139 0.0
O137 O 0.67412 0.11488 0.69741 0.0
O138 O 0.46517 0.11216 0.79717 0.0
O139 O 0.48824 1.02246 0.74247 0.0
O140 O 0.53723 0.92281 0.70731 0.0
O141 O 0.59421 1.00805 0.85548 0.0
C142 C 0.49725 0.12733 0.31657 0.0
C143 C 0.57572 0.94666 0.84362 0.0
Dy144 Dy 0.51291 0.55805 0.69202 0.0
C145 C 0.52985 0.41223 0.3234 0.0
C146 C 0.57483 0.65662 0.85215 0.0
Dy147 Dy 0.56166 0.50972 0.54294 0.0
O148 O 0.51287 0.63948 0.89029 0.0
O149 O 0.60278 0.61785 0.74385 0.0
O150 O 0.40867 0.55398 0.66166 0.0
O151 O 0.47308 0.54086 0.40948 0.0
C152 C 0.4145 0.54333 0.47483 0.0
C153 C 0.64181 0.50971 0.8333 0.0
O154 O 0.60644 0.59603 0.37793 0.0
O155 O 0.52566 0.64402 0.50123 0.0
O156 O 0.59026 0.43616 0.33361 0.0
O157 O 0.49005 0.44363 0.41892 0.0
O158 O 0.66169 0.51402 0.65181 0.0
O159 O 0.58058 0.50884 0.85565 0.0
O160 O 0.45941 0.47031 0.83356 0.0
O161 O 0.53418 0.41835 0.69491 0.0
C162 C 0.57779 0.64811 0.39075 0.0
C163 C 0.48045 0.41513 0.79591 0.0
Dy164 Dy 1.0226 0.49246 0.68936 0.0
C165 C 0.17306 0.65547 0.26286 0.0
C166 C 0.93097 0.42099 0.90802 0.0
Dy167 Dy 0.07956 0.58326 0.47662 0.0
O168 O 0.98937 0.44025 -0.04335 0.0
O169 O 0.92612 0.43641 0.73007 0.0
O170 O 0.07757 0.4156 0.57812 0.0
O171 O 0.0564 0.4838 0.37954 0.0
C172 C 0.08407 0.43412 0.40123 0.0
C173 C 1.01717 0.63894 0.77269 0.0
O174 O 0.991 0.55942 0.30384 0.0
O175 O 0.93593 0.5318 0.57845 0.0
O176 O 0.11342 0.64064 0.21828 0.0
O177 O 0.17876 0.63468 0.43461 0.0
O178 O 1.02279 0.65939 0.59759 0.0
O179 O 0.04708 0.59061 0.78564 0.0
O180 O 0.11128 0.51563 0.86202 0.0
O181 O 0.16621 0.54393 0.58805 0.0
C182 C 0.93474 0.54464 0.39489 0.0
C183 C 0.16747 0.53109 0.77159 0.0
loop_
_geom_bond_atom_site_label_1
_geom_bond_atom_site_label_2
_geom_bond_distance
_geom_bond_site_symmetry_2
_ccdc_geom_bond_type
H0 C7 0.929 . S
H1 C10 0.930 1_556 S
H2 C12 0.929 . S
H3 C4 0.969 . S
C4 H3 0.969 . S
C4 O5 1.550 . S
C4 H6 0.973 1_554 S
O5 C4 1.550 . S
O5 C11 1.412 . S
H6 C4 0.973 1_556 S
C7 H0 0.929 . S
C7 C8 1.400 . S
C7 C9 1.364 . S
C8 C7 1.400 . S
C8 C12 1.377 . S
C9 C7 1.364 . S
C9 C10 1.374 . S
C10 H1 0.930 1_554 S
C10 C9 1.374 . S
C10 C11 1.383 . S
C11 O5 1.412 . S
C11 C10 1.383 . S
C11 C12 1.394 . S
C12 H2 0.929 . S
C12 C8 1.377 . S
C12 C11 1.394 . S
H13 C20 0.927 1_655 S
H14 C23 0.931 1_556 S
H15 C25 0.929 1_655 S
H16 C17 0.969 1_556 S
C17 H16 0.969 1_554 S
C17 O18 1.550 1_455 S
C17 H19 0.973 1_454 S
O18 C17 1.550 1_655 S
O18 C24 1.412 1_655 S
H19 C17 0.973 1_656 S
C20 H13 0.927 1_455 S
C20 C21 1.398 . S
C20 C22 1.364 . S
C21 C20 1.398 . S
C21 C25 1.378 . S
C22 C20 1.364 . S
C22 C23 1.376 1_455 S
C23 H14 0.931 1_554 S
C23 C22 1.376 1_655 S
C23 C24 1.382 1_655 S
C24 O18 1.412 1_455 S
C24 C23 1.382 1_455 S
C24 C25 1.395 . S
C25 H15 0.929 1_455 S
C25 C21 1.378 . S
C25 C24 1.395 . S
H26 C33 0.929 . S
H27 C36 0.930 1_556 S
H28 C38 0.929 . S
H29 C30 0.969 1_546 S
C30 H29 0.969 1_564 S
C30 O31 1.550 . S
C30 H32 0.973 1_554 S
O31 C30 1.550 . S
O31 C37 1.412 . S
H32 C30 0.973 1_556 S
C33 H26 0.929 . S
C33 C34 1.400 . S
C33 C35 1.364 . S
C34 C33 1.400 . S
C34 C38 1.377 . S
C35 C33 1.364 . S
C35 C36 1.374 . S
C36 H27 0.930 1_554 S
C36 C35 1.374 . S
C36 C37 1.383 . S
C37 O31 1.412 . S
C37 C36 1.383 . S
C37 C38 1.394 . S
C38 H28 0.929 . S
C38 C34 1.377 . S
C38 C37 1.394 . S
H39 C46 0.929 . S
H40 C49 0.930 1_556 S
H41 C51 0.929 . S
H42 C43 0.969 . S
C43 H42 0.969 . S
C43 O44 1.550 . S
C43 H45 0.973 1_554 S
O44 C43 1.550 . S
O44 C50 1.412 . S
H45 C43 0.973 1_556 S
C46 H39 0.929 . S
C46 C47 1.400 . S
C46 C48 1.364 . S
C47 C46 1.400 . S
C47 C51 1.377 . S
C48 C46 1.364 . S
C48 C49 1.374 . S
C49 H40 0.930 1_554 S
C49 C48 1.374 . S
C49 C50 1.383 . S
C50 O44 1.412 . S
C50 C49 1.383 . S
C50 C51 1.394 . S
C51 H41 0.929 . S
C51 C47 1.377 . S
C51 C50 1.394 . S
H52 C59 0.929 . S
H53 C62 0.930 . S
H54 C64 0.929 . S
H55 C56 0.969 . S
C56 H55 0.969 . S
C56 O57 1.550 . S
C56 H58 0.973 . S
O57 C56 1.550 . S
O57 C63 1.412 . S
H58 C56 0.973 . S
C59 H52 0.929 . S
C59 C60 1.400 . S
C59 C61 1.364 1_556 S
C60 C59 1.400 . S
C60 C64 1.377 . S
C61 C59 1.364 1_554 S
C61 C62 1.374 . S
C62 H53 0.930 . S
C62 C61 1.374 . S
C62 C63 1.383 . S
C63 O57 1.412 . S
C63 C62 1.383 . S
C63 C64 1.394 1_554 S
C64 H54 0.929 . S
C64 C60 1.377 . S
C64 C63 1.394 1_556 S
H65 C72 0.929 1_655 S
H66 C75 0.931 . S
H67 C77 0.926 1_655 S
H68 C69 0.969 . S
C69 H68 0.969 . S
C69 O70 1.550 1_455 S
C69 H71 0.973 1_455 S
O70 C69 1.550 1_655 S
O70 C76 1.412 1_655 S
H71 C69 0.973 1_655 S
C72 H65 0.929 1_455 S
C72 C73 1.399 . S
C72 C74 1.364 1_556 S
C73 C72 1.399 . S
C73 C77 1.378 . S
C74 C72 1.364 1_554 S
C74 C75 1.373 1_455 S
C75 H66 0.931 . S
C75 C74 1.373 1_655 S
C75 C76 1.383 1_655 S
C76 O70 1.412 1_455 S
C76 C75 1.383 1_455 S
C76 C77 1.395 1_554 S
C77 H67 0.926 1_455 S
C77 C73 1.378 . S
C77 C76 1.395 1_556 S
H78 C85 0.929 1_556 S
H79 C88 0.930 . S
H80 C90 0.929 . S
H81 C82 0.969 . S
C82 H81 0.969 . S
C82 O83 1.550 . S
C82 H84 0.973 . S
O83 C82 1.550 . S
O83 C89 1.412 . S
H84 C82 0.973 . S
C85 H78 0.929 1_554 S
C85 C86 1.400 1_554 S
C85 C87 1.364 . S
C86 C85 1.400 1_556 S
C86 C90 1.377 . S
C87 C85 1.364 . S
C87 C88 1.374 . S
C88 H79 0.930 . S
C88 C87 1.374 . S
C88 C89 1.383 . S
C89 O83 1.412 . S
C89 C88 1.383 . S
C89 C90 1.394 1_554 S
C90 H80 0.929 . S
C90 C86 1.377 . S
C90 C89 1.394 1_556 S
H91 C98 0.929 . S
H92 C101 0.930 . S
H93 C103 0.929 . S
H94 C95 0.969 . S
C95 H94 0.969 . S
C95 O96 1.550 1_554 S
C95 H97 0.973 . S
O96 C95 1.550 1_556 S
O96 C102 1.412 . S
H97 C95 0.973 . S
C98 H91 0.929 . S
C98 C99 1.400 . S
C98 C100 1.364 1_556 S
C99 C98 1.400 . S
C99 C103 1.377 . S
C100 C98 1.364 1_554 S
C100 C101 1.374 . S
C101 H92 0.930 . S
C101 C100 1.374 . S
C101 C102 1.383 1_554 S
C102 O96 1.412 . S
C102 C101 1.383 1_556 S
C102 C103 1.394 . S
C103 H93 0.929 . S
C103 C99 1.377 . S
C103 C102 1.394 . S
Dy104 O108 2.398 . S
Dy104 O109 2.491 1_455 S
Dy104 O110 2.403 . S
Dy104 O111 2.664 1_565 S
Dy104 O115 2.326 . S
Dy104 O119 2.310 1_455 S
Dy104 O120 2.351 1_565 S
C105 O116 1.185 . S
C105 O117 1.355 1_655 S
C106 O108 1.185 1_554 S
C106 O109 1.355 1_454 S
Dy107 O111 2.310 1_655 S
Dy107 O114 2.351 1_545 S
Dy107 O116 2.398 . S
Dy107 O117 2.491 1_655 S
Dy107 O118 2.403 . S
Dy107 O119 2.664 1_545 S
Dy107 O121 2.326 . S
O108 Dy104 2.398 . S
O108 C106 1.185 1_556 S
O109 Dy104 2.491 1_655 S
O109 C106 1.355 1_656 S
O110 Dy104 2.403 . S
O110 C112 1.254 1_565 S
O111 Dy104 2.664 1_545 S
O111 Dy107 2.310 1_455 S
O111 C112 1.268 . S
C112 O110 1.254 1_545 S
C112 O111 1.268 . S
C113 O118 1.254 1_565 S
C113 O119 1.268 . S
O114 Dy107 2.351 1_565 S
O114 C122 1.249 . S
O115 Dy104 2.326 . S
O115 C122 1.267 1_455 S
O116 C105 1.185 . S
O116 Dy107 2.398 . S
O117 C105 1.355 1_455 S
O117 Dy107 2.491 1_455 S
O118 Dy107 2.403 . S
O118 C113 1.254 1_545 S
O119 Dy104 2.310 1_655 S
O119 Dy107 2.664 1_565 S
O119 C113 1.268 . S
O120 Dy104 2.351 1_545 S
O120 C123 1.249 . S
O121 Dy107 2.326 . S
O121 C123 1.267 1_655 S
C122 O114 1.249 . S
C122 O115 1.267 1_655 S
C123 O120 1.249 . S
C123 O121 1.267 1_455 S
Dy124 O128 2.398 . S
Dy124 O129 2.491 1_565 S
Dy124 O130 2.403 . S
Dy124 O131 2.664 . S
Dy124 O135 2.326 1_565 S
Dy124 O139 2.310 1_565 S
Dy124 O140 2.351 . S
C125 O136 1.185 . S
C125 O137 1.355 1_544 S
C126 O128 1.185 . S
C126 O129 1.355 1_565 S
Dy127 O131 2.310 1_545 S
Dy127 O134 2.351 . S
Dy127 O136 2.398 1_556 S
Dy127 O137 2.491 1_545 S
Dy127 O138 2.403 1_556 S
Dy127 O139 2.664 . S
Dy127 O141 2.326 1_545 S
O128 Dy124 2.398 . S
O128 C126 1.185 . S
O129 Dy124 2.491 1_545 S
O129 C126 1.355 1_545 S
O130 Dy124 2.403 . S
O130 C132 1.254 . S
O131 Dy124 2.664 . S
O131 Dy127 2.310 1_565 S
O131 C132 1.268 . S
C132 O130 1.254 . S
C132 O131 1.268 . S
C133 O138 1.254 1_556 S
C133 O139 1.268 . S
O134 Dy127 2.351 . S
O134 C142 1.249 . S
O135 Dy124 2.326 1_545 S
O135 C142 1.267 . S
O136 C125 1.185 . S
O136 Dy127 2.398 1_554 S
O137 C125 1.355 1_566 S
O137 Dy127 2.491 1_565 S
O138 Dy127 2.403 1_554 S
O138 C133 1.254 1_554 S
O139 Dy124 2.310 1_545 S
O139 Dy127 2.664 . S
O139 C133 1.268 . S
O140 Dy124 2.351 . S
O140 C143 1.249 . S
O141 Dy127 2.326 1_565 S
O141 C143 1.267 . S
C142 O134 1.249 . S
C142 O135 1.267 . S
C143 O140 1.249 . S
C143 O141 1.267 . S
Dy144 O148 2.398 1_556 S
Dy144 O149 2.491 1_556 S
Dy144 O150 2.403 . S
Dy144 O151 2.664 . S
Dy144 O155 2.326 . S
Dy144 O159 2.310 . S
Dy144 O160 2.351 . S
C145 O156 1.185 . S
C145 O157 1.355 . S
C146 O148 1.185 . S
C146 O149 1.355 . S
Dy147 O151 2.310 . S
Dy147 O154 2.351 . S
Dy147 O156 2.398 . S
Dy147 O157 2.491 . S
Dy147 O158 2.403 . S
Dy147 O159 2.664 . S
Dy147 O161 2.326 . S
O148 Dy144 2.398 1_554 S
O148 C146 1.185 . S
O149 Dy144 2.491 1_554 S
O149 C146 1.355 . S
O150 Dy144 2.403 . S
O150 C152 1.254 . S
O151 Dy144 2.664 . S
O151 Dy147 2.310 . S
O151 C152 1.268 . S
C152 O150 1.254 . S
C152 O151 1.268 . S
C153 O158 1.254 . S
C153 O159 1.268 . S
O154 Dy147 2.351 . S
O154 C162 1.249 . S
O155 Dy144 2.326 . S
O155 C162 1.267 . S
O156 C145 1.185 . S
O156 Dy147 2.398 . S
O157 C145 1.355 . S
O157 Dy147 2.491 . S
O158 Dy147 2.403 . S
O158 C153 1.254 . S
O159 Dy144 2.310 . S
O159 Dy147 2.664 . S
O159 C153 1.268 . S
O160 Dy144 2.351 . S
O160 C163 1.249 . S
O161 Dy147 2.326 . S
O161 C163 1.267 . S
C162 O154 1.249 . S
C162 O155 1.267 . S
C163 O160 1.249 . S
C163 O161 1.267 . S
Dy164 O168 2.398 . S
Dy164 O169 2.491 1_556 S
Dy164 O170 2.403 . S
Dy164 O171 2.664 1_655 S
Dy164 O175 2.326 . S
Dy164 O179 2.310 . S
Dy164 O180 2.351 1_655 S
C165 O176 1.185 . S
C165 O177 1.355 . S
C166 O168 1.185 1_554 S
C166 O169 1.355 . S
Dy167 O171 2.310 . S
Dy167 O174 2.351 1_455 S
Dy167 O176 2.398 . S
Dy167 O177 2.491 . S
Dy167 O178 2.403 . S
Dy167 O179 2.664 1_455 S
Dy167 O181 2.326 . S
O168 Dy164 2.398 . S
O168 C166 1.185 1_556 S
O169 Dy164 2.491 1_554 S
O169 C166 1.355 . S
O170 Dy164 2.403 . S
O170 C172 1.254 . S
O171 Dy164 2.664 1_455 S
O171 Dy167 2.310 . S
O171 C172 1.268 1_455 S
C172 O170 1.254 . S
C172 O171 1.268 1_655 S
C173 O178 1.254 . S
C173 O179 1.268 1_455 S
O174 Dy167 2.351 1_655 S
O174 C182 1.249 . S
O175 Dy164 2.326 . S
O175 C182 1.267 . S
O176 C165 1.185 . S
O176 Dy167 2.398 . S
O177 C165 1.355 . S
O177 Dy167 2.491 . S
O178 Dy167 2.403 . S
O178 C173 1.254 . S
O179 Dy164 2.310 . S
O179 Dy167 2.664 1_655 S
O179 C173 1.268 1_655 S
O180 Dy164 2.351 1_455 S
O180 C183 1.249 . S
O181 Dy167 2.326 . S
O181 C183 1.267 . S
C182 O174 1.249 . S
C182 O175 1.267 . S
C183 O180 1.249 . S
C183 O181 1.267 . S
C82 C112 2.011 . S
C142 C95 2.007 . S
C152 C56 2.028 . S
C172 C69 1.822 1_655 S
C113 C30 1.903 1_556 S
C43 C143 1.888 1_554 S
C4 C153 2.025 1_554 S
C17 C173 1.784 1_554 S
C105 C74 1.113 1_655 S
C126 C87 1.348 1_565 S
C145 C100 1.475 . S
C61 C165 1.060 . S
C22 C106 1.112 . S
C125 C35 1.332 1_545 S
C146 C48 1.456 . S
C9 C166 1.045 . S
C73 C123 1.981 . S
C86 C133 2.241 . S
C163 C99 2.235 . S
C183 C60 2.188 . S
C21 C122 1.982 1_455 S
C132 C34 2.241 . S
C162 C47 2.235 . S
C8 C182 2.199 . S
