# Generated by pormake.
# Topology tsx, (6,3)-cn, num edge types: 1
# Building blocks:
#     Node 0, Type 0, BuildingBlock: VOLQOD_clean_sbu_1, # of connection points: 6
#     Node 1, Type 0, BuildingBlock: VOLQOD_clean_sbu_1, # of connection points: 6
#     Node 2, Type 1, BuildingBlock: MIDCAF_clean_linker_0, # of connection points: 3
#     Node 3, Type 1, BuildingBlock: MIDCAF_clean_linker_0, # of connection points: 3
#     Node 4, Type 1, BuildingBlock: MIDCAF_clean_linker_0, # of connection points: 3
#     Node 5, Type 1, BuildingBlock: MIDCAF_clean_linker_0, # of connection points: 3
#     Edge 6, Type (0, 1), None
#     Edge 7, Type (0, 1), None
#     Edge 8, Type (0, 1), None
#     Edge 9, Type (0, 1), None
#     Edge 10, Type (0, 1), None
#     Edge 11, Type (0, 1), None
#     Edge 12, Type (0, 1), None
#     Edge 13, Type (0, 1), None
#     Edge 14, Type (0, 1), None
#     Edge 15, Type (0, 1), None
#     Edge 16, Type (0, 1), None
#     Edge 17, Type (0, 1), None
# Relax obj value: 0.076
# Max RMSD: 0.108
# Mean RMSD: 0.083
data_MOF--net-tsx--node1-VOLQOD_clean_sbu_1--node2-MIDCAF_clean_linker_0--edge1-none
_symmetry_space_group_name_H-M    P1
_symmetry_Int_Tables_number       1
_symmetry_cell_setting            triclinic
loop_
_symmetry_equiv_pos_as_xyz
'x, y, z'
_cell_length_a     14.099736
_cell_length_b     14.287614
_cell_length_c     28.104628
_cell_angle_alpha  90.43278
_cell_angle_beta   89.696478
_cell_angle_gamma 90.062852
loop_
_atom_site_label
_atom_site_type_symbol
_atom_site_fract_x
_atom_site_fract_y
_atom_site_fract_z
_atom_type_partial_charge
O0 O 0.07124 0.96262 0.10457 0.0
Zn1 Zn 0.11053 0.9691 0.03572 0.0
O2 O 0.0032 0.00055 -0.00407 0.0
Zn3 Zn 0.97075 0.89448 0.9556 0.0
Zn4 Zn 0.89575 0.03315 0.03634 0.0
Zn5 Zn 0.0361 0.10572 0.95581 0.0
O6 O 0.96455 0.9322 0.8867 0.0
O7 O 0.04446 0.06642 0.88698 0.0
O8 O 0.17354 0.84885 0.01429 0.0
O9 O 0.07437 0.79904 0.95849 0.0
O10 O 0.84931 0.83215 0.97707 0.0
O11 O 0.7996 0.92967 0.03374 0.0
O12 O 0.83214 0.1526 0.01473 0.0
O13 O 0.20704 0.07207 0.0329 0.0
O14 O 0.93165 0.20021 0.95842 0.0
O15 O 0.15667 0.16927 0.97727 0.0
C16 C 0.00315 0.0017 0.12715 0.0
C17 C 0.00486 -0.00088 0.8646 0.0
C18 C 0.78957 0.85491 0.0093 0.0
C19 C 0.14984 0.78913 0.9826 0.0
C20 C 0.85575 0.21079 0.98258 0.0
C21 C 0.21672 0.14674 0.0089 0.0
O22 O 0.93494 0.04081 0.10527 0.0
O23 O 0.57126 0.46265 0.60457 0.0
Zn24 Zn 0.61056 0.46912 0.53572 0.0
O25 O 0.50322 0.50057 0.49593 0.0
Zn26 Zn 0.47077 0.39449 0.4556 0.0
Zn27 Zn 0.39577 0.53317 0.53634 0.0
Zn28 Zn 0.53612 0.60573 0.45581 0.0
O29 O 0.46457 0.43221 0.3867 0.0
O30 O 0.54448 0.56643 0.38698 0.0
O31 O 0.67357 0.34887 0.51429 0.0
O32 O 0.57439 0.29906 0.4585 0.0
O33 O 0.34933 0.33216 0.47707 0.0
O34 O 0.29962 0.42969 0.53374 0.0
O35 O 0.33217 0.65262 0.51473 0.0
O36 O 0.70706 0.57209 0.5329 0.0
O37 O 0.43168 0.70023 0.45842 0.0
O38 O 0.6567 0.66928 0.47727 0.0
C39 C 0.50317 0.50173 0.62715 0.0
C40 C 0.50487 0.49913 0.3646 0.0
C41 C 0.2896 0.35493 0.50931 0.0
C42 C 0.64986 0.28915 0.48261 0.0
C43 C 0.35577 0.71081 0.48258 0.0
C44 C 0.71674 0.64676 0.50889 0.0
O45 O 0.43496 0.54084 0.60527 0.0
C46 C 0.69551 0.15534 0.42975 0.0
C47 C 0.71597 0.21274 0.46925 0.0
C48 C 0.80402 0.20269 0.49203 0.0
C49 C 0.87247 0.14136 0.47349 0.0
H50 H 0.06363 0.86124 0.48977 0.0
H51 H 0.18318 0.75656 0.52284 0.0
H52 H 0.37686 0.83446 0.40993 0.0
H53 H 0.25741 0.93727 0.3772 0.0
H54 H 0.13725 0.92615 0.2725 0.0
H55 H 0.13716 0.92751 0.18602 0.0
H56 H 0.86947 0.07484 0.18783 0.0
H57 H 0.8694 0.07354 0.27429 0.0
H58 H 0.74771 0.05536 0.37916 0.0
H59 H 0.62817 0.16024 0.41156 0.0
H60 H 0.82185 0.24536 0.52273 0.0
H61 H 0.9415 0.13861 0.49 0.0
N62 N 0.00252 -0.00195 0.43036 0.0
N63 N 0.07462 0.95754 0.35747 0.0
N64 N 0.93147 0.03965 0.35812 0.0
C65 C 0.07462 0.9564 0.40582 0.0
C66 C 0.00318 -0.00113 0.33332 0.0
C67 C 0.93074 0.03994 0.40643 0.0
C68 C 0.15089 0.90617 0.43064 0.0
C69 C 0.13257 0.8573 0.47288 0.0
C70 C 0.201 0.79716 0.49165 0.0
C71 C 0.28919 0.78583 0.46863 0.0
C72 C 0.30949 0.84047 0.4284 0.0
C73 C 0.24091 0.89935 0.40946 0.0
C74 C 0.00333 -0.00032 0.28054 0.0
C75 C 0.07828 0.95885 0.25455 0.0
C76 C 0.07825 0.95965 0.20484 0.0
C77 C 0.00329 0.00129 0.17989 0.0
C78 C 0.92841 0.0422 0.20585 0.0
C79 C 0.92841 0.0414 0.25556 0.0
C80 C 0.85416 0.09002 0.43175 0.0
C81 C 0.76408 0.09522 0.41104 0.0
C82 C 0.85031 0.69423 0.56183 0.0
C83 C 0.79261 0.71348 0.52244 0.0
C84 C 0.80129 0.80092 0.50005 0.0
C85 C 0.86151 0.86972 0.5188 0.0
H86 H 0.1415 0.06436 0.50119 0.0
H87 H 0.24563 0.18487 0.46822 0.0
H88 H 0.16285 0.37306 0.58236 0.0
H89 H 0.06041 0.25273 0.61502 0.0
H90 H 0.07946 0.13201 0.71883 0.0
H91 H 0.0794 0.1316 0.80529 0.0
H92 H 0.9314 0.8664 0.80443 0.0
H93 H 0.93142 0.86663 0.71796 0.0
H94 H 0.94968 0.74745 0.61242 0.0
H95 H 0.84639 0.62746 0.57973 0.0
H96 H 0.7583 0.8179 0.46949 0.0
H97 H 0.86315 0.93807 0.50254 0.0
N98 N 0.00372 0.00062 0.56147 0.0
N99 N 0.04501 0.07145 0.63422 0.0
N100 N 0.96435 0.92858 0.63384 0.0
C101 C 0.0451 0.07224 0.58589 0.0
C102 C 0.00498 -0.0002 0.6585 0.0
C103 C 0.96301 0.9286 0.58553 0.0
C104 C 0.09418 0.14891 0.56097 0.0
C105 C 0.14416 0.1323 0.5184 0.0
C106 C 0.20396 0.2013 0.49966 0.0
C107 C 0.21392 0.2882 0.52308 0.0
C108 C 0.15789 0.30675 0.5636 0.0
C109 C 0.09927 0.23766 0.58249 0.0
C110 C 0.00539 -0.00061 0.71126 0.0
C111 C 0.04692 0.07348 0.73698 0.0
C112 C 0.04691 0.07326 0.78668 0.0
C113 C 0.00534 -0.00101 0.81189 0.0
C114 C 0.96399 0.92481 0.7862 0.0
C115 C 0.96403 0.92498 0.73649 0.0
C116 C 0.91328 0.85233 0.56034 0.0
C117 C 0.90943 0.7631 0.58072 0.0
C118 C 0.19549 0.65533 0.92974 0.0
C119 C 0.21594 0.71273 0.96925 0.0
C120 C 0.30399 0.70266 -0.00797 0.0
C121 C 0.37244 0.64133 0.97349 0.0
H122 H 0.5636 0.36121 -0.01024 0.0
H123 H 0.68314 0.25653 0.02284 0.0
H124 H 0.87685 0.33446 0.90994 0.0
H125 H 0.75739 0.43727 0.87721 0.0
H126 H 0.63726 0.42616 0.7725 0.0
H127 H 0.63718 0.42753 0.68602 0.0
H128 H 0.36949 0.57486 0.68783 0.0
H129 H 0.36941 0.57355 0.77429 0.0
H130 H 0.2477 0.55535 0.87915 0.0
H131 H 0.12815 0.66023 0.91155 0.0
H132 H 0.32182 0.74533 0.02273 0.0
H133 H 0.44147 0.63859 -0.00999 0.0
N134 N 0.5025 0.49803 0.93036 0.0
N135 N 0.57461 0.45754 0.85747 0.0
N136 N 0.43146 0.53965 0.85812 0.0
C137 C 0.5746 0.45639 0.90582 0.0
C138 C 0.50318 0.49887 0.83332 0.0
C139 C 0.43072 0.53993 0.90643 0.0
C140 C 0.65087 0.40615 0.93065 0.0
C141 C 0.63254 0.35728 0.97288 0.0
C142 C 0.70097 0.29714 -0.00835 0.0
C143 C 0.78916 0.28582 0.96863 0.0
C144 C 0.80947 0.34046 0.92841 0.0
C145 C 0.74089 0.39934 0.90946 0.0
C146 C 0.50334 0.49969 0.78054 0.0
C147 C 0.57829 0.45887 0.75455 0.0
C148 C 0.57826 0.45967 0.70484 0.0
C149 C 0.50331 0.50131 0.67989 0.0
C150 C 0.42842 0.54222 0.70585 0.0
C151 C 0.42842 0.54142 0.75556 0.0
C152 C 0.35414 0.59001 0.93175 0.0
C153 C 0.26406 0.59521 0.91103 0.0
C154 C 0.35028 0.19421 0.06183 0.0
C155 C 0.29258 0.21346 0.02245 0.0
C156 C 0.30127 0.3009 5e-05 0.0
C157 C 0.3615 0.3697 0.01881 0.0
H158 H 0.64149 0.56434 0.00119 0.0
H159 H 0.74562 0.68485 0.96822 0.0
H160 H 0.66281 0.87305 0.08235 0.0
H161 H 0.56038 0.75272 0.11501 0.0
H162 H 0.57946 0.632 0.21883 0.0
H163 H 0.57941 0.6316 0.30529 0.0
H164 H 0.43142 0.3664 0.30444 0.0
H165 H 0.43142 0.36662 0.21796 0.0
H166 H 0.44965 0.24744 0.11243 0.0
H167 H 0.34636 0.12744 0.07974 0.0
H168 H 0.25828 0.31787 0.96949 0.0
H169 H 0.36314 0.43805 0.00254 0.0
N170 N 0.5037 0.5006 0.06147 0.0
N171 N 0.54499 0.57143 0.13422 0.0
N172 N 0.46434 0.42856 0.13384 0.0
C173 C 0.54508 0.57222 0.08589 0.0
C174 C 0.50497 0.49978 0.1585 0.0
C175 C 0.46299 0.42858 0.08553 0.0
C176 C 0.59416 0.64889 0.06097 0.0
C177 C 0.64414 0.63228 0.01839 0.0
C178 C 0.70394 0.70128 -0.00034 0.0
C179 C 0.71389 0.78819 0.02308 0.0
C180 C 0.65786 0.80673 0.06359 0.0
C181 C 0.59924 0.73764 0.08248 0.0
C182 C 0.50539 0.49938 0.21126 0.0
C183 C 0.54692 0.57347 0.23698 0.0
C184 C 0.54692 0.57326 0.28668 0.0
C185 C 0.50536 0.49899 0.31189 0.0
C186 C 0.46399 0.42481 0.2862 0.0
C187 C 0.46403 0.42497 0.23649 0.0
C188 C 0.41325 0.35231 0.06034 0.0
C189 C 0.4094 0.26308 0.08073 0.0
loop_
_geom_bond_atom_site_label_1
_geom_bond_atom_site_label_2
_geom_bond_distance
_geom_bond_site_symmetry_2
_ccdc_geom_bond_type
O0 Zn1 1.953 . S
O0 C16 1.225 1_565 S
Zn1 O0 1.953 . S
Zn1 O2 1.949 1_565 S
Zn1 O8 1.919 . S
Zn1 O13 1.924 1_565 S
O2 Zn1 1.949 1_545 S
O2 Zn3 1.923 1_444 S
O2 Zn4 1.950 1_455 S
O2 Zn5 1.945 1_554 S
Zn3 O2 1.923 1_666 S
Zn3 O6 1.933 . S
Zn3 O9 1.941 1_655 S
Zn3 O10 1.965 . S
Zn4 O2 1.950 1_655 S
Zn4 O11 1.938 1_545 S
Zn4 O12 1.906 . S
Zn4 O22 1.953 . S
Zn5 O2 1.945 1_556 S
Zn5 O7 1.932 . S
Zn5 O14 1.977 1_455 S
Zn5 O15 1.910 . S
O6 Zn3 1.933 . S
O6 C17 1.226 1_665 S
O7 Zn5 1.932 . S
O7 C17 1.307 . S
O8 Zn1 1.919 . S
O8 C19 1.253 1_554 S
O9 Zn3 1.941 1_455 S
O9 C19 1.283 . S
O10 Zn3 1.965 . S
O10 C18 1.303 1_556 S
O11 Zn4 1.938 1_565 S
O11 C18 1.247 . S
O12 Zn4 1.906 . S
O12 C20 1.304 1_554 S
O13 Zn1 1.924 1_545 S
O13 C21 1.311 . S
O14 Zn5 1.977 1_655 S
O14 C20 1.272 . S
O15 Zn5 1.910 . S
O15 C21 1.231 1_556 S
C16 O0 1.225 1_545 S
C16 O22 1.298 1_455 S
C17 O6 1.226 1_445 S
C17 O7 1.307 . S
C18 O10 1.303 1_554 S
C18 O11 1.247 . S
C19 O8 1.253 1_556 S
C19 O9 1.283 . S
C20 O12 1.304 1_556 S
C20 O14 1.272 . S
C21 O13 1.311 . S
C21 O15 1.231 1_554 S
O22 Zn4 1.953 . S
O22 C16 1.298 1_655 S
O23 Zn24 1.953 . S
O23 C39 1.225 . S
Zn24 O23 1.953 . S
Zn24 O25 1.949 . S
Zn24 O31 1.919 . S
Zn24 O36 1.924 . S
O25 Zn24 1.949 . S
O25 Zn26 1.923 . S
O25 Zn27 1.950 . S
O25 Zn28 1.945 . S
Zn26 O25 1.923 . S
Zn26 O29 1.933 . S
Zn26 O32 1.941 . S
Zn26 O33 1.965 . S
Zn27 O25 1.950 . S
Zn27 O34 1.938 . S
Zn27 O35 1.906 . S
Zn27 O45 1.953 . S
Zn28 O25 1.945 . S
Zn28 O30 1.932 . S
Zn28 O37 1.977 . S
Zn28 O38 1.910 . S
O29 Zn26 1.933 . S
O29 C40 1.226 . S
O30 Zn28 1.932 . S
O30 C40 1.307 . S
O31 Zn24 1.919 . S
O31 C42 1.253 . S
O32 Zn26 1.941 . S
O32 C42 1.283 . S
O33 Zn26 1.965 . S
O33 C41 1.303 . S
O34 Zn27 1.938 . S
O34 C41 1.247 . S
O35 Zn27 1.906 . S
O35 C43 1.304 . S
O36 Zn24 1.924 . S
O36 C44 1.311 . S
O37 Zn28 1.977 . S
O37 C43 1.272 . S
O38 Zn28 1.910 . S
O38 C44 1.231 . S
C39 O23 1.225 . S
C39 O45 1.298 . S
C40 O29 1.226 . S
C40 O30 1.307 . S
C41 O33 1.303 . S
C41 O34 1.247 . S
C42 O31 1.253 . S
C42 O32 1.283 . S
C43 O35 1.304 . S
C43 O37 1.272 . S
C44 O36 1.311 . S
C44 O38 1.231 . S
O45 Zn27 1.953 . S
O45 C39 1.298 . S
C46 C47 1.384 . S
C46 H59 0.947 . S
C46 C81 1.382 . S
C47 C46 1.384 . S
C47 C48 1.378 . S
C48 C47 1.378 . S
C48 C49 1.378 . S
C48 H60 0.952 . S
C49 C48 1.378 . S
C49 H61 0.950 . S
C49 C80 1.383 . S
H50 C69 0.947 . S
H51 C70 0.946 . S
H52 C72 0.953 . S
H53 C73 0.945 . S
H54 C75 0.952 . S
H55 C76 0.949 . S
H56 C78 0.950 . S
H57 C79 0.948 . S
H58 C81 0.951 . S
H59 C46 0.947 . S
H60 C48 0.952 . S
H61 C49 0.950 . S
N62 C65 1.382 1_545 S
N62 C67 1.363 1_455 S
N63 C65 1.371 . S
N63 C66 1.372 1_565 S
N64 C66 1.361 1_655 S
N64 C67 1.377 . S
C65 N62 1.382 1_565 S
C65 N63 1.371 . S
C65 C68 1.480 . S
C66 N63 1.372 1_545 S
C66 N64 1.361 1_455 S
C66 C74 1.457 . S
C67 N62 1.363 1_655 S
C67 N64 1.377 . S
C67 C80 1.479 . S
C68 C65 1.480 . S
C68 C69 1.383 . S
C68 C73 1.385 . S
C69 H50 0.947 . S
C69 C68 1.383 . S
C69 C70 1.388 . S
C70 H51 0.946 . S
C70 C69 1.388 . S
C70 C71 1.384 . S
C71 C70 1.384 . S
C71 C72 1.377 . S
C72 H52 0.953 . S
C72 C71 1.377 . S
C72 C73 1.369 . S
C73 H53 0.945 . S
C73 C68 1.385 . S
C73 C72 1.369 . S
C74 C66 1.457 . S
C74 C75 1.372 1_545 S
C74 C79 1.364 1_455 S
C75 H54 0.952 . S
C75 C74 1.372 1_565 S
C75 C76 1.389 . S
C76 H55 0.949 . S
C76 C75 1.389 . S
C76 C77 1.387 1_565 S
C77 C76 1.387 1_545 S
C77 C78 1.372 1_455 S
C78 H56 0.950 . S
C78 C77 1.372 1_655 S
C78 C79 1.379 . S
C79 H57 0.948 . S
C79 C74 1.364 1_655 S
C79 C78 1.379 . S
C80 C49 1.383 . S
C80 C67 1.479 . S
C80 C81 1.398 . S
C81 C46 1.382 . S
C81 H58 0.951 . S
C81 C80 1.398 . S
C82 C83 1.384 . S
C82 H95 0.947 . S
C82 C117 1.382 . S
C83 C82 1.384 . S
C83 C84 1.378 . S
C84 C83 1.378 . S
C84 C85 1.378 . S
C84 H96 0.952 . S
C85 C84 1.378 . S
C85 H97 0.950 . S
C85 C116 1.383 . S
H86 C105 0.947 . S
H87 C106 0.946 . S
H88 C108 0.953 . S
H89 C109 0.945 . S
H90 C111 0.952 . S
H91 C112 0.949 . S
H92 C114 0.950 . S
H93 C115 0.948 . S
H94 C117 0.951 . S
H95 C82 0.947 . S
H96 C84 0.952 . S
H97 C85 0.950 . S
N98 C101 1.382 1_565 S
N98 C103 1.363 1_455 S
N99 C101 1.371 . S
N99 C102 1.372 1_545 S
N100 C102 1.361 1_655 S
N100 C103 1.377 . S
C101 N98 1.382 1_545 S
C101 N99 1.371 . S
C101 C104 1.480 . S
C102 N99 1.372 1_565 S
C102 N100 1.361 1_455 S
C102 C110 1.457 . S
C103 N98 1.363 1_655 S
C103 N100 1.377 . S
C103 C116 1.479 . S
C104 C101 1.480 . S
C104 C105 1.383 . S
C104 C109 1.385 . S
C105 H86 0.947 . S
C105 C104 1.383 . S
C105 C106 1.388 . S
C106 H87 0.946 . S
C106 C105 1.388 . S
C106 C107 1.384 . S
C107 C106 1.384 . S
C107 C108 1.377 . S
C108 H88 0.953 . S
C108 C107 1.377 . S
C108 C109 1.369 . S
C109 H89 0.945 . S
C109 C104 1.385 . S
C109 C108 1.369 . S
C110 C102 1.457 . S
C110 C111 1.372 1_565 S
C110 C115 1.364 1_455 S
C111 H90 0.952 . S
C111 C110 1.372 1_545 S
C111 C112 1.389 . S
C112 H91 0.949 . S
C112 C111 1.389 . S
C112 C113 1.387 1_545 S
C113 C112 1.387 1_565 S
C113 C114 1.372 1_455 S
C114 H92 0.950 . S
C114 C113 1.372 1_655 S
C114 C115 1.379 . S
C115 H93 0.948 . S
C115 C110 1.364 1_655 S
C115 C114 1.379 . S
C116 C85 1.383 . S
C116 C103 1.479 . S
C116 C117 1.398 . S
C117 C82 1.382 . S
C117 H94 0.951 . S
C117 C116 1.398 . S
C118 C119 1.384 . S
C118 H131 0.947 . S
C118 C153 1.382 . S
C119 C118 1.384 . S
C119 C120 1.378 1_556 S
C120 C119 1.378 1_554 S
C120 C121 1.378 1_554 S
C120 H132 0.952 . S
C121 C120 1.378 1_556 S
C121 H133 0.950 1_556 S
C121 C152 1.383 . S
H122 C141 0.947 1_554 S
H123 C142 0.946 . S
H124 C144 0.953 . S
H125 C145 0.945 . S
H126 C147 0.952 . S
H127 C148 0.949 . S
H128 C150 0.950 . S
H129 C151 0.948 . S
H130 C153 0.951 . S
H131 C118 0.947 . S
H132 C120 0.952 . S
H133 C121 0.950 1_554 S
N134 C137 1.382 . S
N134 C139 1.363 . S
N135 C137 1.371 . S
N135 C138 1.372 . S
N136 C138 1.361 . S
N136 C139 1.377 . S
C137 N134 1.382 . S
C137 N135 1.371 . S
C137 C140 1.480 . S
C138 N135 1.372 . S
C138 N136 1.361 . S
C138 C146 1.457 . S
C139 N134 1.363 . S
C139 N136 1.377 . S
C139 C152 1.479 . S
C140 C137 1.480 . S
C140 C141 1.383 . S
C140 C145 1.385 . S
C141 H122 0.947 1_556 S
C141 C140 1.383 . S
C141 C142 1.388 1_556 S
C142 H123 0.946 . S
C142 C141 1.388 1_554 S
C142 C143 1.384 1_554 S
C143 C142 1.384 1_556 S
C143 C144 1.377 . S
C144 H124 0.953 . S
C144 C143 1.377 . S
C144 C145 1.369 . S
C145 H125 0.945 . S
C145 C140 1.385 . S
C145 C144 1.369 . S
C146 C138 1.457 . S
C146 C147 1.372 . S
C146 C151 1.364 . S
C147 H126 0.952 . S
C147 C146 1.372 . S
C147 C148 1.389 . S
C148 H127 0.949 . S
C148 C147 1.389 . S
C148 C149 1.387 . S
C149 C148 1.387 . S
C149 C150 1.372 . S
C150 H128 0.950 . S
C150 C149 1.372 . S
C150 C151 1.379 . S
C151 H129 0.948 . S
C151 C146 1.364 . S
C151 C150 1.379 . S
C152 C121 1.383 . S
C152 C139 1.479 . S
C152 C153 1.398 . S
C153 C118 1.382 . S
C153 H130 0.951 . S
C153 C152 1.398 . S
C154 C155 1.384 . S
C154 H167 0.947 . S
C154 C189 1.382 . S
C155 C154 1.384 . S
C155 C156 1.378 1_554 S
C156 C155 1.378 1_556 S
C156 C157 1.378 1_556 S
C156 H168 0.952 . S
C157 C156 1.378 1_554 S
C157 H169 0.950 . S
C157 C188 1.383 . S
H158 C177 0.947 . S
H159 C178 0.946 . S
H160 C180 0.953 . S
H161 C181 0.945 . S
H162 C183 0.952 . S
H163 C184 0.949 . S
H164 C186 0.950 . S
H165 C187 0.948 . S
H166 C189 0.951 . S
H167 C154 0.947 . S
H168 C156 0.952 . S
H169 C157 0.950 . S
N170 C173 1.382 . S
N170 C175 1.363 . S
N171 C173 1.371 . S
N171 C174 1.372 . S
N172 C174 1.361 . S
N172 C175 1.377 . S
C173 N170 1.382 . S
C173 N171 1.371 . S
C173 C176 1.480 . S
C174 N171 1.372 . S
C174 N172 1.361 . S
C174 C182 1.457 . S
C175 N170 1.363 . S
C175 N172 1.377 . S
C175 C188 1.479 . S
C176 C173 1.480 . S
C176 C177 1.383 . S
C176 C181 1.385 . S
C177 H158 0.947 . S
C177 C176 1.383 . S
C177 C178 1.388 1_554 S
C178 H159 0.946 . S
C178 C177 1.388 1_556 S
C178 C179 1.384 1_556 S
C179 C178 1.384 1_554 S
C179 C180 1.377 . S
C180 H160 0.953 . S
C180 C179 1.377 . S
C180 C181 1.369 . S
C181 H161 0.945 . S
C181 C176 1.385 . S
C181 C180 1.369 . S
C182 C174 1.457 . S
C182 C183 1.372 . S
C182 C187 1.364 . S
C183 H162 0.952 . S
C183 C182 1.372 . S
C183 C184 1.389 . S
C184 H163 0.949 . S
C184 C183 1.389 . S
C184 C185 1.387 . S
C185 C184 1.387 . S
C185 C186 1.372 . S
C186 H164 0.950 . S
C186 C185 1.372 . S
C186 C187 1.379 . S
C187 H165 0.948 . S
C187 C182 1.364 . S
C187 C186 1.379 . S
C188 C157 1.383 . S
C188 C175 1.479 . S
C188 C189 1.398 . S
C189 C154 1.382 . S
C189 H166 0.951 . S
C189 C188 1.398 . S
C155 C21 1.607 . S
C19 C119 1.587 . S
C18 C179 1.555 . S
C20 C143 1.531 . S
C44 C83 1.607 . S
C42 C47 1.587 . S
C107 C41 1.555 . S
C71 C43 1.531 . S
C16 C77 1.492 . S
C17 C113 1.448 1_545 S
C149 C39 1.492 . S
C40 C185 1.448 . S
