# Generated by pormake.
# Topology anh, (6,3)-cn, num edge types: 1
# Building blocks:
#     Node 0, Type 0, BuildingBlock: INOVEN_clean_sbu_0, # of connection points: 6
#     Node 1, Type 0, BuildingBlock: INOVEN_clean_sbu_0, # of connection points: 6
#     Node 2, Type 0, BuildingBlock: INOVEN_clean_sbu_0, # of connection points: 6
#     Node 3, Type 1, BuildingBlock: ESEHIV_clean_linker_0, # of connection points: 3
#     Node 4, Type 1, BuildingBlock: ESEHIV_clean_linker_0, # of connection points: 3
#     Node 5, Type 1, BuildingBlock: ESEHIV_clean_linker_0, # of connection points: 3
#     Node 6, Type 1, BuildingBlock: ESEHIV_clean_linker_0, # of connection points: 3
#     Node 7, Type 1, BuildingBlock: ESEHIV_clean_linker_0, # of connection points: 3
#     Node 8, Type 1, BuildingBlock: ESEHIV_clean_linker_0, # of connection points: 3
#     Edge 9, Type (0, 1), None
#     Edge 10, Type (0, 1), None
#     Edge 11, Type (0, 1), None
#     Edge 12, Type (0, 1), None
#     Edge 13, Type (0, 1), None
#     Edge 14, Type (0, 1), None
#     Edge 15, Type (0, 1), None
#     Edge 16, Type (0, 1), None
#     Edge 17, Type (0, 1), None
#     Edge 18, Type (0, 1), None
#     Edge 19, Type (0, 1), None
#     Edge 20, Type (0, 1), None
#     Edge 21, Type (0, 1), None
#     Edge 22, Type (0, 1), None
#     Edge 23, Type (0, 1), None
#     Edge 24, Type (0, 1), None
#     Edge 25, Type (0, 1), None
#     Edge 26, Type (0, 1), None
# Relax obj value: 0.494
# Max RMSD: 0.359
# Mean RMSD: 0.229
data_MOF--net-anh--node1-INOVEN_clean_sbu_0--node2-ESEHIV_clean_linker_0--edge1-none
_symmetry_space_group_name_H-M    P1
_symmetry_Int_Tables_number       1
_symmetry_cell_setting            triclinic
loop_
_symmetry_equiv_pos_as_xyz
'x, y, z'
_cell_length_a     11.862078
_cell_length_b     17.407398
_cell_length_c     22.447123
_cell_angle_alpha  90.328506
_cell_angle_beta   91.278137
_cell_angle_gamma 141.72517
loop_
_atom_site_label
_atom_site_type_symbol
_atom_site_fract_x
_atom_site_fract_y
_atom_site_fract_z
_atom_type_partial_charge
Gd0 Gd 0.60556 0.74671 0.16955 0.0
Gd1 Gd 0.309 0.67491 0.17697 0.0
C2 C 0.68809 0.97059 0.17989 0.0
C3 C 0.91761 0.84693 0.16806 0.0
C4 C 0.96453 0.79831 0.19675 0.0
C5 C 0.85068 0.71878 0.24367 0.0
C6 C 0.99038 0.75437 0.15483 0.0
C7 C 0.68167 0.54881 0.17335 0.0
C8 C 0.83934 0.62815 0.13955 0.0
C9 C 0.69768 0.5909 0.23002 0.0
C10 C 0.49062 0.69092 0.28305 0.0
C11 C 1.22771 0.45314 0.18131 0.0
C12 C 1.00577 0.5728 0.19583 0.0
C13 C 0.83399 0.44488 0.1733 0.0
C14 C 0.69774 0.35011 0.21212 0.0
C15 C 0.80821 0.41145 0.11252 0.0
C16 C 0.48929 0.22959 0.12649 0.0
C17 C 0.6385 0.29411 0.09106 0.0
C18 C 0.52649 0.23514 0.18772 0.0
C19 C 0.33461 0.63335 0.06167 0.0
O20 O 0.74359 0.93542 0.15694 0.0
O21 O 0.51707 0.88292 0.19627 0.0
O22 O 0.79437 0.77602 0.12386 0.0
O23 O 0.88479 0.88577 0.20453 0.0
O24 O 0.52803 0.6488 0.25521 0.0
O25 O 0.50954 0.75745 0.24915 0.0
O26 O 1.18493 0.49678 0.20398 0.0
O27 O 0.38891 0.53432 0.15689 0.0
O28 O 1.11297 0.65817 0.15566 0.0
O29 O 1.09285 0.5805 0.23772 0.0
O30 O 1.19446 0.55504 0.09342 0.0
O31 O 0.4633 0.73163 0.09357 0.0
H32 H 0.85003 0.75443 0.28319 0.0
H33 H 1.09546 0.8163 0.12272 0.0
H34 H 0.83818 0.59569 0.09805 0.0
H35 H 0.58558 0.52971 0.25968 0.0
H36 H 0.71856 0.36743 0.25997 0.0
H37 H 0.91254 0.47689 0.08098 0.0
H38 H 0.6194 0.27486 0.04344 0.0
H39 H 0.41518 0.17006 0.21751 0.0
Gd40 Gd 1.13461 0.22538 0.47804 0.0
Gd41 Gd 0.86237 0.18508 0.47504 0.0
C42 C 0.72034 0.94274 0.46467 0.0
C43 C 0.32071 0.20446 0.50406 0.0
C44 C 1.26546 0.10678 0.537 0.0
C45 C 1.25908 1.03177 0.5086 0.0
C46 C 1.19749 1.07785 0.59402 0.0
C47 C 1.09797 0.89095 0.59108 0.0
C48 C 1.11021 0.9697 0.61997 0.0
C49 C 1.18421 0.92857 0.53638 0.0
C50 C 1.06346 0.23401 0.36376 0.0
C51 C 1.28247 0.47449 0.47268 0.0
C52 C 0.67043 0.20454 0.46212 0.0
C53 C 0.69166 0.28792 0.49623 0.0
C54 C 0.70411 0.2931 0.55879 0.0
C55 C 0.71336 0.3694 0.46668 0.0
C56 C 0.75436 0.45791 0.56225 0.0
C57 C 0.74356 0.45336 0.49936 0.0
C58 C 0.73533 0.37703 0.59135 0.0
C59 C 0.91947 0.15873 0.5878 0.0
O60 O 0.8803 1.01522 0.49166 0.0
O61 O 0.69155 0.99568 0.44134 0.0
O62 O 1.2373 0.169 0.45208 0.0
O63 O 0.33788 0.27764 0.53461 0.0
O64 O 1.2252 0.31174 0.38798 0.0
O65 O 0.94466 0.15443 0.40091 0.0
O66 O 1.10675 0.39524 0.46787 0.0
O67 O 0.33624 0.4317 0.48045 0.0
O68 O 0.6153 0.1154 0.49154 0.0
O69 O 0.80404 0.25996 0.42772 0.0
O70 O 0.76291 0.08768 0.56156 0.0
O71 O 1.04211 0.24633 0.55356 0.0
H72 H 0.30761 1.05105 0.46402 0.0
H73 H 1.20207 0.13492 0.61718 0.0
H74 H 1.04508 0.9465 0.66119 0.0
H75 H 1.18991 0.87736 0.51308 0.0
H76 H 0.69152 0.23303 0.58277 0.0
H77 H 0.70598 0.36763 0.4184 0.0
H78 H 0.75473 0.51262 0.47521 0.0
H79 H 0.74909 0.38025 0.63944 0.0
Gd80 Gd 0.76872 0.61427 0.89267 0.0
Gd81 Gd 0.65967 0.50199 0.86378 0.0
C82 C 0.4713 0.58553 0.86292 0.0
C83 C 0.9584 0.84319 0.90437 0.0
C84 C 0.95431 0.91156 0.86605 0.0
C85 C 0.82952 0.9042 0.8759 0.0
C86 C 1.06869 0.98009 0.81743 0.0
C87 C 0.93132 1.03046 0.78945 0.0
C88 C 1.05777 1.03893 0.77988 0.0
C89 C 0.81609 0.9606 0.83786 0.0
C90 C 0.56841 0.46197 -0.01322 0.0
C91 C 1.02297 0.58774 0.8762 0.0
C92 C 0.52292 0.29244 0.84479 0.0
C93 C 0.60167 0.26374 0.81928 0.0
C94 C 0.55676 0.21741 0.76027 0.0
C95 C 0.72831 0.28701 0.85301 0.0
C96 C 0.76849 0.22264 0.76862 0.0
C97 C 0.81234 0.26836 0.82779 0.0
C98 C 0.63808 0.19625 0.73539 0.0
C99 C 0.73887 0.58933 0.75477 0.0
O100 O 0.48798 0.52284 0.88103 0.0
O101 O 0.48049 0.51709 0.88266 0.0
O102 O 0.81699 0.7529 0.93476 0.0
O103 O 1.01929 0.81332 0.88096 0.0
O104 O 0.74618 0.55301 -0.01374 0.0
O105 O 0.50486 0.45298 0.93832 0.0
O106 O 0.93481 0.59464 0.906 0.0
O107 O 0.94295 0.59747 0.91056 0.0
O108 O 0.49293 0.33374 0.8088 0.0
O109 O 0.59362 0.35289 0.89592 0.0
O110 O 0.57371 0.49087 0.77035 0.0
O111 O 0.84968 0.6395 0.79819 0.0
H112 H 0.73959 0.85313 0.91275 0.0
H113 H 1.16697 0.98824 0.80825 0.0
H114 H 1.15049 0.09272 0.74388 0.0
H115 H 0.71284 0.94784 0.84648 0.0
H116 H 0.45896 0.19766 0.7332 0.0
H117 H 0.7654 0.32175 0.89885 0.0
H118 H 0.91277 0.29074 0.85471 0.0
H119 H 0.59623 0.15733 0.69029 0.0
H120 H 0.76462 1.02979 0.29572 0.0
H121 H 1.28684 0.41576 0.28459 0.0
H122 H 0.93498 0.20752 0.12741 0.0
C123 C 0.86404 0.11167 0.26982 0.0
C124 C 0.83401 0.10062 0.20753 0.0
C125 C 1.02735 0.22454 0.29822 0.0
C126 C 1.15907 0.32966 0.26367 0.0
C127 C 1.12345 0.32918 0.20353 0.0
C128 C 0.96205 0.2119 0.17451 0.0
H129 H 0.98268 0.80952 0.7062 0.0
H130 H 0.62656 0.42931 0.67067 0.0
H131 H 0.96045 0.68865 0.53263 0.0
C132 C 0.92606 0.73822 0.67414 0.0
C133 C 0.98153 0.76601 0.6148 0.0
C134 C 0.79355 0.61661 0.69304 0.0
C135 C 0.72599 0.5227 0.65477 0.0
C136 C 0.79553 0.55057 0.59797 0.0
C137 C 0.91636 0.67062 0.57752 0.0
H138 H 1.13215 0.6259 -0.00495 0.0
H139 H 0.47543 0.61063 -0.01774 0.0
H140 H 1.22539 0.57523 0.822 0.0
C141 C 1.19587 0.61774 0.96712 0.0
C142 C 1.15846 0.59919 0.90457 0.0
C143 C 0.31284 0.62472 -0.00515 0.0
C144 C 0.39002 0.60771 0.95998 0.0
C145 C 0.362 0.58898 0.89725 0.0
C146 C 1.24765 0.58759 0.86998 0.0
H147 H 0.30791 0.50356 0.35839 0.0
H148 H 0.67044 0.88719 0.35224 0.0
H149 H 0.52085 0.71847 0.52246 0.0
C150 C 0.39607 0.59127 0.38142 0.0
C151 C 0.4056 0.59662 0.44402 0.0
C152 C 0.49097 0.69544 0.34847 0.0
C153 C 0.59467 0.80671 0.37812 0.0
C154 C 0.60835 0.81781 0.44032 0.0
C155 C 0.51429 0.71206 0.47422 0.0
H156 H 0.87038 0.25504 0.65489 0.0
H157 H 0.9697 1.06568 0.6669 0.0
H158 H 0.85087 0.13248 0.82413 0.0
C159 C 0.88751 0.21302 0.68178 0.0
C160 C 0.85019 0.1959 0.74251 0.0
C161 C 0.93406 0.16882 0.65406 0.0
C162 C 0.94872 0.10896 0.68878 0.0
C163 C 0.92227 0.09688 0.75113 0.0
C164 C 0.87528 0.14267 0.77701 0.0
H165 H 0.55185 0.54591 0.07494 0.0
H166 H 0.39634 0.23935 0.01539 0.0
H167 H 0.41575 0.30876 0.20317 0.0
C168 C 0.4869 0.45693 0.08487 0.0
C169 C 0.50294 0.438 0.14301 0.0
C170 C 0.46034 0.39031 0.03885 0.0
C171 C 0.4009 0.28369 0.05132 0.0
C172 C 0.40079 0.25842 0.11148 0.0
C173 C 0.41404 0.32287 0.15644 0.0
loop_
_geom_bond_atom_site_label_1
_geom_bond_atom_site_label_2
_geom_bond_distance
_geom_bond_site_symmetry_2
_ccdc_geom_bond_type
Gd0 C3 2.818 . S
Gd0 O20 2.377 . S
Gd0 O22 2.448 . S
Gd0 O23 2.506 . S
Gd0 O24 2.435 . S
Gd0 O25 2.717 . S
Gd0 O27 2.395 1_455 S
Gd0 O31 2.327 . S
Gd1 C12 2.818 . S
Gd1 O21 2.395 1_655 S
Gd1 O25 2.327 1_655 S
Gd1 O26 2.377 . S
Gd1 O28 2.448 . S
Gd1 O29 2.506 . S
Gd1 O30 2.435 . S
Gd1 O31 2.717 1_655 S
C2 O20 1.240 . S
C2 O21 1.240 . S
C3 Gd0 2.818 . S
C3 C4 1.510 . S
C3 O22 1.249 . S
C3 O23 1.252 . S
C4 C3 1.510 . S
C4 C5 1.404 . S
C4 C6 1.352 . S
C5 C4 1.404 . S
C5 C9 1.389 . S
C5 H32 0.930 . S
C6 C4 1.352 . S
C6 C8 1.374 . S
C6 H33 0.931 . S
C7 C8 1.359 . S
C7 C9 1.364 . S
C8 C6 1.374 . S
C8 C7 1.359 . S
C8 H34 0.931 . S
C9 C5 1.389 . S
C9 C7 1.364 . S
C9 H35 0.931 . S
C10 O24 1.256 . S
C10 O25 1.257 . S
C11 O26 1.240 . S
C11 O27 1.240 . S
C12 Gd1 2.818 . S
C12 C13 1.510 . S
C12 O28 1.249 . S
C12 O29 1.252 . S
C13 C12 1.510 . S
C13 C14 1.404 . S
C13 C15 1.352 . S
C14 C13 1.404 . S
C14 C18 1.389 . S
C14 H36 0.930 . S
C15 C13 1.352 . S
C15 C17 1.374 . S
C15 H37 0.931 . S
C16 C17 1.359 . S
C16 C18 1.364 . S
C17 C15 1.374 . S
C17 C16 1.359 . S
C17 H38 0.931 . S
C18 C14 1.389 . S
C18 C16 1.364 . S
C18 H39 0.931 . S
C19 O30 1.256 1_455 S
C19 O31 1.257 . S
O20 Gd0 2.377 . S
O20 C2 1.240 . S
O21 Gd1 2.395 1_455 S
O21 C2 1.240 . S
O22 Gd0 2.448 . S
O22 C3 1.249 . S
O23 Gd0 2.506 . S
O23 C3 1.252 . S
O24 Gd0 2.435 . S
O24 C10 1.256 . S
O25 Gd0 2.717 . S
O25 Gd1 2.327 1_455 S
O25 C10 1.257 . S
O26 Gd1 2.377 . S
O26 C11 1.240 . S
O27 Gd0 2.395 1_655 S
O27 C11 1.240 . S
O28 Gd1 2.448 . S
O28 C12 1.249 . S
O29 Gd1 2.506 . S
O29 C12 1.252 . S
O30 Gd1 2.435 . S
O30 C19 1.256 1_655 S
O31 Gd0 2.327 . S
O31 Gd1 2.717 1_455 S
O31 C19 1.257 . S
H32 C5 0.930 . S
H33 C6 0.931 . S
H34 C8 0.931 . S
H35 C9 0.931 . S
H36 C14 0.930 . S
H37 C15 0.931 . S
H38 C17 0.931 . S
H39 C18 0.931 . S
Gd40 C43 2.818 1_545 S
Gd40 O60 2.377 1_545 S
Gd40 O62 2.448 1_545 S
Gd40 O63 2.506 1_545 S
Gd40 O64 2.435 . S
Gd40 O65 2.717 . S
Gd40 O67 2.395 . S
Gd40 O71 2.327 . S
Gd41 C52 2.818 . S
Gd41 O61 2.395 1_545 S
Gd41 O65 2.327 . S
Gd41 O66 2.377 . S
Gd41 O68 2.448 . S
Gd41 O69 2.506 . S
Gd41 O70 2.435 . S
Gd41 O71 2.717 . S
C42 O60 1.240 . S
C42 O61 1.240 . S
C43 Gd40 2.818 1_565 S
C43 C44 1.510 . S
C43 O62 1.249 . S
C43 O63 1.252 . S
C44 C43 1.510 . S
C44 C45 1.404 . S
C44 C46 1.352 . S
C45 C44 1.404 . S
C45 C49 1.389 . S
C45 H72 0.930 . S
C46 C44 1.352 . S
C46 C48 1.374 . S
C46 H73 0.931 . S
C47 C48 1.359 . S
C47 C49 1.364 . S
C48 C46 1.374 . S
C48 C47 1.359 . S
C48 H74 0.931 . S
C49 C45 1.389 . S
C49 C47 1.364 . S
C49 H75 0.931 . S
C50 O64 1.256 . S
C50 O65 1.257 . S
C51 O66 1.240 . S
C51 O67 1.240 . S
C52 Gd41 2.818 . S
C52 C53 1.510 . S
C52 O68 1.249 . S
C52 O69 1.252 . S
C53 C52 1.510 . S
C53 C54 1.404 . S
C53 C55 1.352 . S
C54 C53 1.404 . S
C54 C58 1.389 . S
C54 H76 0.930 . S
C55 C53 1.352 . S
C55 C57 1.374 . S
C55 H77 0.931 . S
C56 C57 1.359 . S
C56 C58 1.364 . S
C57 C55 1.374 . S
C57 C56 1.359 . S
C57 H78 0.931 . S
C58 C54 1.389 . S
C58 C56 1.364 . S
C58 H79 0.931 . S
C59 O70 1.256 . S
C59 O71 1.257 . S
O60 Gd40 2.377 1_565 S
O60 C42 1.240 . S
O61 Gd41 2.395 1_565 S
O61 C42 1.240 . S
O62 Gd40 2.448 1_565 S
O62 C43 1.249 . S
O63 Gd40 2.506 1_565 S
O63 C43 1.252 . S
O64 Gd40 2.435 . S
O64 C50 1.256 . S
O65 Gd40 2.717 . S
O65 Gd41 2.327 . S
O65 C50 1.257 . S
O66 Gd41 2.377 . S
O66 C51 1.240 . S
O67 Gd40 2.395 . S
O67 C51 1.240 . S
O68 Gd41 2.448 . S
O68 C52 1.249 . S
O69 Gd41 2.506 . S
O69 C52 1.252 . S
O70 Gd41 2.435 . S
O70 C59 1.256 . S
O71 Gd40 2.327 . S
O71 Gd41 2.717 . S
O71 C59 1.257 . S
H72 C45 0.930 . S
H73 C46 0.931 . S
H74 C48 0.931 . S
H75 C49 0.931 . S
H76 C54 0.930 . S
H77 C55 0.931 . S
H78 C57 0.931 . S
H79 C58 0.931 . S
Gd80 C83 2.818 . S
Gd80 O100 2.377 . S
Gd80 O102 2.448 . S
Gd80 O103 2.506 . S
Gd80 O104 2.435 1_556 S
Gd80 O105 2.717 . S
Gd80 O107 2.395 . S
Gd80 O111 2.327 . S
Gd81 C92 2.818 . S
Gd81 O101 2.395 . S
Gd81 O105 2.327 . S
Gd81 O106 2.377 . S
Gd81 O108 2.448 . S
Gd81 O109 2.506 . S
Gd81 O110 2.435 . S
Gd81 O111 2.717 . S
C82 O100 1.240 . S
C82 O101 1.240 . S
C83 Gd80 2.818 . S
C83 C84 1.510 . S
C83 O102 1.249 . S
C83 O103 1.252 . S
C84 C83 1.510 . S
C84 C85 1.404 1_565 S
C84 C86 1.352 . S
C85 C84 1.404 1_545 S
C85 C89 1.389 . S
C85 H112 0.930 1_546 S
C86 C84 1.352 . S
C86 C88 1.374 1_565 S
C86 H113 0.931 . S
C87 C88 1.359 . S
C87 C89 1.364 . S
C88 C86 1.374 1_545 S
C88 C87 1.359 . S
C88 H114 0.931 . S
C89 C85 1.389 . S
C89 C87 1.364 . S
C89 H115 0.931 1_556 S
C90 O104 1.256 . S
C90 O105 1.257 1_554 S
C91 O106 1.240 . S
C91 O107 1.240 . S
C92 Gd81 2.818 . S
C92 C93 1.510 . S
C92 O108 1.249 . S
C92 O109 1.252 . S
C93 C92 1.510 . S
C93 C94 1.404 . S
C93 C95 1.352 . S
C94 C93 1.404 . S
C94 C98 1.389 . S
C94 H116 0.930 . S
C95 C93 1.352 . S
C95 C97 1.374 . S
C95 H117 0.931 . S
C96 C97 1.359 . S
C96 C98 1.364 . S
C97 C95 1.374 . S
C97 C96 1.359 . S
C97 H118 0.931 . S
C98 C94 1.389 . S
C98 C96 1.364 . S
C98 H119 0.931 . S
C99 O110 1.256 . S
C99 O111 1.257 . S
O100 Gd80 2.377 . S
O100 C82 1.240 . S
O101 Gd81 2.395 . S
O101 C82 1.240 . S
O102 Gd80 2.448 . S
O102 C83 1.249 . S
O103 Gd80 2.506 . S
O103 C83 1.252 . S
O104 Gd80 2.435 1_554 S
O104 C90 1.256 . S
O105 Gd80 2.717 . S
O105 Gd81 2.327 . S
O105 C90 1.257 1_556 S
O106 Gd81 2.377 . S
O106 C91 1.240 . S
O107 Gd80 2.395 . S
O107 C91 1.240 . S
O108 Gd81 2.448 . S
O108 C92 1.249 . S
O109 Gd81 2.506 . S
O109 C92 1.252 . S
O110 Gd81 2.435 . S
O110 C99 1.256 . S
O111 Gd80 2.327 . S
O111 Gd81 2.717 . S
O111 C99 1.257 . S
H112 C85 0.930 1_564 S
H113 C86 0.931 . S
H114 C88 0.931 . S
H115 C89 0.931 1_554 S
H116 C94 0.930 . S
H117 C95 0.931 . S
H118 C97 0.931 . S
H119 C98 0.931 . S
H120 C123 0.931 . S
H121 C126 0.928 . S
H122 C128 0.930 . S
C123 H120 0.931 . S
C123 C124 1.413 . S
C123 C125 1.360 1_565 S
C124 C123 1.413 . S
C124 C128 1.429 1_565 S
C125 C123 1.360 1_545 S
C125 C126 1.372 . S
C126 H121 0.928 . S
C126 C125 1.372 . S
C126 C127 1.404 . S
C127 C126 1.404 . S
C127 C128 1.391 . S
C128 H122 0.930 . S
C128 C124 1.429 1_545 S
C128 C127 1.391 . S
H129 C132 0.931 . S
H130 C135 0.928 . S
H131 C137 0.930 . S
C132 H129 0.931 . S
C132 C133 1.413 . S
C132 C134 1.360 . S
C133 C132 1.413 . S
C133 C137 1.429 . S
C134 C132 1.360 . S
C134 C135 1.372 . S
C135 H130 0.928 . S
C135 C134 1.372 . S
C135 C136 1.404 . S
C136 C135 1.404 . S
C136 C137 1.391 . S
C137 H131 0.930 . S
C137 C133 1.429 . S
C137 C136 1.391 . S
H138 C141 0.931 1_654 S
H139 C144 0.931 . S
H140 C146 0.930 . S
C141 H138 0.931 1_456 S
C141 C142 1.413 . S
C141 C143 1.360 1_556 S
C142 C141 1.413 . S
C142 C146 1.429 . S
C143 C141 1.360 1_554 S
C143 C144 1.373 . S
C144 H139 0.931 . S
C144 C143 1.373 . S
C144 C145 1.400 1_554 S
C145 C144 1.400 1_556 S
C145 C146 1.391 . S
C146 H140 0.930 . S
C146 C142 1.429 . S
C146 C145 1.391 . S
H147 C150 0.931 . S
H148 C153 0.928 . S
H149 C155 0.930 . S
C150 H147 0.931 . S
C150 C151 1.413 . S
C150 C152 1.359 1_655 S
C151 C150 1.413 . S
C151 C155 1.429 1_655 S
C152 C150 1.359 1_455 S
C152 C153 1.372 . S
C153 H148 0.928 . S
C153 C152 1.372 . S
C153 C154 1.404 . S
C154 C153 1.404 . S
C154 C155 1.391 . S
C155 H149 0.930 . S
C155 C151 1.429 1_455 S
C155 C154 1.391 . S
H156 C159 0.931 . S
H157 C162 0.928 . S
H158 C164 0.930 . S
C159 H156 0.931 . S
C159 C160 1.413 . S
C159 C161 1.360 1_545 S
C160 C159 1.413 . S
C160 C164 1.429 . S
C161 C159 1.360 1_565 S
C161 C162 1.372 . S
C162 H157 0.928 . S
C162 C161 1.372 . S
C162 C163 1.404 . S
C163 C162 1.404 . S
C163 C164 1.391 1_565 S
C164 H158 0.930 . S
C164 C160 1.429 . S
C164 C163 1.391 1_545 S
H165 C168 0.931 1_556 S
H166 C171 0.928 1_556 S
H167 C173 0.930 . S
C168 H165 0.931 1_554 S
C168 C169 1.413 . S
C168 C170 1.360 1_554 S
C169 C168 1.413 . S
C169 C173 1.429 . S
C170 C168 1.360 1_556 S
C170 C171 1.372 1_556 S
C171 H166 0.928 1_554 S
C171 C170 1.372 1_554 S
C171 C172 1.404 . S
C172 C171 1.404 . S
C172 C173 1.391 . S
C173 H167 0.930 . S
C173 C169 1.429 . S
C173 C172 1.391 . S
C7 C169 5.196 . S
C51 C151 2.343 . S
C87 C163 4.651 1_545 S
C16 C172 3.832 . S
C154 C42 2.381 . S
C160 C96 2.373 . S
C47 C133 2.918 . S
C91 C142 4.637 1_655 S
C2 C124 2.674 . S
C136 C56 3.542 . S
C145 C82 4.689 . S
C11 C127 2.448 . S
C143 C19 1.987 . S
C50 C125 0.931 . S
C99 C134 1.288 . S
C161 C59 1.279 1_565 S
C170 C90 2.034 1_556 S
C10 C152 0.915 . S
