# Generated by pormake.
# Topology anh, (6,3)-cn, num edge types: 1
# Building blocks:
#     Node 0, Type 0, BuildingBlock: BETFAJ_clean_sbu_0, # of connection points: 6
#     Node 1, Type 0, BuildingBlock: BETFAJ_clean_sbu_0, # of connection points: 6
#     Node 2, Type 0, BuildingBlock: BETFAJ_clean_sbu_0, # of connection points: 6
#     Node 3, Type 1, BuildingBlock: PAMTOO_clean_linker_0, # of connection points: 3
#     Node 4, Type 1, BuildingBlock: PAMTOO_clean_linker_0, # of connection points: 3
#     Node 5, Type 1, BuildingBlock: PAMTOO_clean_linker_0, # of connection points: 3
#     Node 6, Type 1, BuildingBlock: PAMTOO_clean_linker_0, # of connection points: 3
#     Node 7, Type 1, BuildingBlock: PAMTOO_clean_linker_0, # of connection points: 3
#     Node 8, Type 1, BuildingBlock: PAMTOO_clean_linker_0, # of connection points: 3
#     Edge 9, Type (0, 1), None
#     Edge 10, Type (0, 1), None
#     Edge 11, Type (0, 1), None
#     Edge 12, Type (0, 1), None
#     Edge 13, Type (0, 1), None
#     Edge 14, Type (0, 1), None
#     Edge 15, Type (0, 1), None
#     Edge 16, Type (0, 1), None
#     Edge 17, Type (0, 1), None
#     Edge 18, Type (0, 1), None
#     Edge 19, Type (0, 1), None
#     Edge 20, Type (0, 1), None
#     Edge 21, Type (0, 1), None
#     Edge 22, Type (0, 1), None
#     Edge 23, Type (0, 1), None
#     Edge 24, Type (0, 1), None
#     Edge 25, Type (0, 1), None
#     Edge 26, Type (0, 1), None
# Relax obj value: 0.411
# Max RMSD: 0.294
# Mean RMSD: 0.159
data_MOF--net-anh--node1-BETFAJ_clean_sbu_0--node2-PAMTOO_clean_linker_0--edge1-none
_symmetry_space_group_name_H-M    P1
_symmetry_Int_Tables_number       1
_symmetry_cell_setting            triclinic
loop_
_symmetry_equiv_pos_as_xyz
'x, y, z'
_cell_length_a     13.549903
_cell_length_b     19.815869
_cell_length_c     22.443536
_cell_angle_alpha  83.82409
_cell_angle_beta   94.645231
_cell_angle_gamma 139.54448
loop_
_atom_site_label
_atom_site_type_symbol
_atom_site_fract_x
_atom_site_fract_y
_atom_site_fract_z
_atom_type_partial_charge
Sm0 Sm 0.57027 0.68334 0.141 0.0
Sm1 Sm 0.3809 0.68665 0.18623 0.0
C2 C 0.68255 0.64491 0.08934 0.0
C3 C 0.566 0.53212 0.08074 0.0
C4 C 0.49351 0.49394 0.02511 0.0
C5 C 0.37078 0.38653 0.01835 0.0
C6 C 0.32029 0.31545 0.06704 0.0
C7 C 0.38073 0.35275 0.12402 0.0
C8 C 0.50258 0.45973 0.13078 0.0
C9 C 0.57146 0.67924 0.26443 0.0
C10 C 0.7128 0.91189 0.14312 0.0
C11 C 1.19656 0.65562 0.25364 0.0
C12 C 1.03045 0.57322 0.25242 0.0
C13 C 0.96548 0.60385 0.24015 0.0
C14 C 0.83935 0.54623 0.20275 0.0
C15 C 0.77766 0.45748 0.17878 0.0
C16 C 0.82063 0.41452 0.20275 0.0
C17 C 0.94733 0.47247 0.23995 0.0
C18 C 0.348 0.66487 0.06223 0.0
C19 C 1.2337 0.45812 0.17986 0.0
O20 O 0.66147 0.69287 0.05799 0.0
O21 O 0.72031 0.67027 0.14502 0.0
O22 O 0.58531 0.73952 0.22828 0.0
O23 O 0.5541 0.6177 0.23568 0.0
O24 O 0.71862 0.85831 0.11631 0.0
O25 O 0.60295 0.86379 0.18139 0.0
O26 O 1.25456 0.62636 0.27144 0.0
O27 O 1.26199 0.71866 0.20504 0.0
O28 O 0.35739 0.61977 0.10164 0.0
O29 O 0.34119 0.71671 0.08826 0.0
O30 O 1.23792 0.51377 0.21022 0.0
O31 O 0.33857 0.50665 0.13909 0.0
H32 H 0.53495 0.5477 -0.01331 0.0
H33 H 0.32631 0.35919 -0.02602 0.0
H34 H 0.34299 0.29943 0.16242 0.0
H35 H 0.54744 0.48516 0.17541 0.0
H36 H 1.02647 0.68042 0.25045 0.0
H37 H 0.80554 0.57954 0.18563 0.0
H38 H 0.77203 0.3448 0.18583 0.0
H39 H 0.99229 0.4452 0.25093 0.0
Sm40 Sm 1.12419 0.20243 0.46963 0.0
Sm41 Sm 0.90209 0.19838 0.44997 0.0
C42 C 1.27375 0.16972 0.51197 0.0
C43 C 1.22279 0.07951 0.545 0.0
C44 C 1.08167 1.0031 0.57455 0.0
C45 C 1.02337 0.91083 0.59972 0.0
C46 C 1.10355 0.89253 0.59408 0.0
C47 C 1.24714 0.97036 0.56624 0.0
C48 C 0.30675 1.06368 0.54202 0.0
C49 C 1.07559 0.21994 0.35109 0.0
C50 C 0.75948 0.97603 0.45884 0.0
C51 C 0.74549 0.22895 0.41794 0.0
C52 C 0.74417 0.29612 0.43904 0.0
C53 C 0.75458 0.35958 0.39752 0.0
C54 C 0.7673 0.43054 0.4173 0.0
C55 C 0.76865 0.43828 0.47892 0.0
C56 C 0.7535 0.3725 0.52035 0.0
C57 C 0.74289 0.30275 0.50066 0.0
C58 C 0.94188 0.17296 0.56933 0.0
C59 C 1.27363 0.42933 0.44239 0.0
O60 O 1.26325 0.21811 0.54068 0.0
O61 O 1.22524 0.15498 0.45674 0.0
O62 O 0.97222 0.15702 0.38988 0.0
O63 O 1.20906 0.27456 0.37339 0.0
O64 O 0.88823 1.02562 0.48693 0.0
O65 O 0.74528 1.02954 0.42933 0.0
O66 O 0.86925 0.27739 0.39031 0.0
O67 O 0.6937 0.15204 0.45521 0.0
O68 O 1.04831 0.23816 0.53157 0.0
O69 O 0.8141 0.12759 0.54593 0.0
O70 O 1.13192 0.37561 0.43142 0.0
O71 O 0.3043 0.38164 0.46231 0.0
H72 H 1.01301 1.01238 0.57577 0.0
H73 H 0.9116 0.85123 0.62023 0.0
H74 H 0.31051 0.95733 0.56143 0.0
H75 H 0.41479 0.12126 0.51872 0.0
H76 H 0.75617 0.35581 0.34988 0.0
H77 H 0.77854 0.48041 0.38453 0.0
H78 H 0.75362 0.37702 0.56806 0.0
H79 H 0.73614 0.25531 0.53376 0.0
Sm80 Sm 0.9265 0.69665 0.86268 0.0
Sm81 Sm 0.70523 0.46658 0.84712 0.0
C82 C 1.12468 0.89886 0.83717 0.0
C83 C 1.09981 0.95645 0.80908 0.0
C84 C 1.18484 1.02746 0.75887 0.0
C85 C 1.15661 1.07876 0.73125 0.0
C86 C 1.03998 1.05814 0.7525 0.0
C87 C 0.9519 0.9838 0.80147 0.0
C88 C 0.98211 0.93464 0.82954 0.0
C89 C 0.80561 0.56916 0.96641 0.0
C90 C 0.56712 0.55422 0.86477 0.0
C91 C 0.50726 0.26366 0.84548 0.0
C92 C 0.52428 0.20529 0.82398 0.0
C93 C 0.49298 0.13045 0.86298 0.0
C94 C 0.53216 0.0868 0.84706 0.0
C95 C 0.60318 0.11748 0.79185 0.0
C96 C 0.62808 0.18871 0.7517 0.0
C97 C 0.59017 0.23297 0.76776 0.0
C98 C 0.85015 0.59017 0.74379 0.0
C99 C 1.06693 0.60792 0.87545 0.0
O100 O 1.10298 0.8396 0.80234 0.0
O101 O 1.0683 0.85414 0.89106 0.0
O102 O 0.84827 0.56501 0.92149 0.0
O103 O 0.83815 0.65062 0.96132 0.0
O104 O 0.70712 0.6507 0.8556 0.0
O105 O 0.54289 0.47434 0.86811 0.0
O106 O 0.58962 0.31533 0.89237 0.0
O107 O 0.50894 0.31728 0.80495 0.0
O108 O 0.79759 0.60017 0.78152 0.0
O109 O 0.82243 0.51228 0.75966 0.0
O110 O 0.92382 0.51278 0.86985 0.0
O111 O 1.09616 0.68986 0.87313 0.0
H112 H 1.27262 1.04283 0.7408 0.0
H113 H 1.2265 0.13462 0.69352 0.0
H114 H 0.85645 0.96129 0.81788 0.0
H115 H 0.91053 0.87769 0.86672 0.0
H116 H 0.44321 0.10859 0.90665 0.0
H117 H 0.51086 1.03134 0.87853 0.0
H118 H 0.68176 0.21272 0.70871 0.0
H119 H 0.61696 0.29118 0.73692 0.0
H120 H 1.15872 0.38018 0.29264 0.0
H121 H 0.93917 1.07763 0.26934 0.0
H122 H 1.09141 0.28725 0.11487 0.0
H123 H 0.83924 1.03756 0.07412 0.0
C124 C 0.81433 1.02517 0.12258 0.0
O125 O 0.95177 0.09682 0.1531 0.0
H126 H 0.75025 1.03956 0.12685 0.0
C127 C 1.11419 0.32251 0.26277 0.0
C128 C 1.13356 0.347 0.2008 0.0
C129 C 1.05014 0.22807 0.28742 0.0
C130 C 0.98691 0.15038 0.25009 0.0
C131 C 0.99755 0.16959 0.18767 0.0
C132 C 1.07482 0.26957 0.16287 0.0
H133 H 0.97701 0.77873 0.70124 0.0
H134 H 0.8334 0.51125 0.64756 0.0
H135 H 1.05559 0.77067 0.52119 0.0
H136 H 0.80396 0.56566 0.46345 0.0
C137 C 0.79103 0.51804 0.50113 0.0
O138 O 0.91961 0.58255 0.53659 0.0
H139 H 0.68903 0.476 0.52797 0.0
C140 C 0.96834 0.73891 0.66786 0.0
C141 C 1.02923 0.78794 0.61024 0.0
C142 C 0.90123 0.64009 0.68242 0.0
C143 C 0.88721 0.58842 0.63778 0.0
C144 C 0.93965 0.63465 0.57967 0.0
C145 C 1.0136 0.73502 0.56631 0.0
H146 H 1.16845 0.65302 -0.01257 0.0
H147 H 0.45895 0.62937 -0.00841 0.0
H148 H 1.23715 0.58982 0.82676 0.0
H149 H 0.35998 0.49413 0.82726 0.0
C150 C 0.42633 0.52991 0.86916 0.0
O151 O 0.45471 0.61361 0.87697 0.0
H152 H 0.34966 0.46748 0.90516 0.0
C153 C 1.22081 0.64083 0.96436 0.0
C154 C 1.1851 0.61831 0.9035 0.0
C155 C 0.31667 0.64317 -0.00304 0.0
C156 C 0.38351 0.62576 0.96722 0.0
C157 C 0.3615 0.60926 0.90551 0.0
C158 C 1.25779 0.60325 0.87397 0.0
H159 H 0.39055 0.49804 0.33221 0.0
H160 H 0.69238 0.82402 0.34241 0.0
H161 H 0.44423 0.61168 0.49913 0.0
H162 H 0.57244 0.83322 0.50935 0.0
C163 C 0.62278 0.85808 0.4641 0.0
O164 O 0.66234 0.81211 0.45762 0.0
H165 H 0.53551 0.83194 0.43055 0.0
C166 C 0.44052 0.56152 0.35783 0.0
C167 C 0.39931 0.54072 0.41829 0.0
C168 C 0.54138 0.66243 0.32947 0.0
C169 C 0.61109 0.74543 0.36333 0.0
C170 C 0.58061 0.72838 0.42484 0.0
C171 C 0.47141 0.62534 0.4521 0.0
H172 H 1.06121 0.12182 0.63286 0.0
H173 H 0.8463 0.20145 0.65152 0.0
H174 H 0.93661 0.11209 0.80765 0.0
H175 H 0.63248 1.02387 0.81262 0.0
C176 C 0.65852 1.07863 0.77639 0.0
O177 O 0.81395 0.16285 0.76714 0.0
H178 H 0.59976 1.03682 0.73462 0.0
C179 C 1.01768 0.13519 0.66132 0.0
C180 C 1.00523 0.1105 0.72398 0.0
C181 C 0.96094 0.1685 0.63483 0.0
C182 C 0.89566 0.17979 0.6713 0.0
C183 C 0.88659 0.15856 0.73315 0.0
C184 C 0.94447 0.127 0.75941 0.0
H185 H 0.89203 0.59024 0.08144 0.0
H186 H 0.5313 0.36756 0.9609 0.0
H187 H 0.50893 0.26601 0.14305 0.0
H188 H 1.17593 0.15394 0.09453 0.0
C189 C 1.24581 0.21023 0.05528 0.0
O190 O 0.35324 0.21701 0.04397 0.0
H191 H 1.16819 0.17858 0.01619 0.0
C192 C 0.78422 0.51038 0.07291 0.0
C193 C 0.70835 0.4304 0.11903 0.0
C194 C 0.72357 0.4874 0.0154 0.0
C195 C 0.58602 0.38412 0.00382 0.0
C196 C 0.50541 0.30494 0.05018 0.0
C197 C 0.57165 0.32693 0.10699 0.0
loop_
_geom_bond_atom_site_label_1
_geom_bond_atom_site_label_2
_geom_bond_distance
_geom_bond_site_symmetry_2
_ccdc_geom_bond_type
Sm0 C2 2.846 . S
Sm0 O20 2.543 . S
Sm0 O21 2.450 . S
Sm0 O22 2.681 1_455 S
Sm0 O23 2.464 . S
Sm0 O24 2.396 . S
Sm0 O28 2.386 . S
Sm0 O31 2.408 1_455 S
Sm1 C11 2.846 . S
Sm1 O22 2.386 . S
Sm1 O25 2.408 1_655 S
Sm1 O26 2.543 . S
Sm1 O27 2.450 . S
Sm1 O28 2.681 1_655 S
Sm1 O29 2.464 . S
Sm1 O30 2.396 . S
C2 Sm0 2.846 . S
C2 C3 1.506 . S
C2 O20 1.261 . S
C2 O21 1.242 . S
C3 C2 1.506 . S
C3 C4 1.358 . S
C3 C8 1.382 . S
C4 C3 1.358 . S
C4 C5 1.385 . S
C4 H32 0.930 . S
C5 C4 1.385 . S
C5 C6 1.395 . S
C5 H33 0.929 . S
C6 C5 1.395 . S
C6 C7 1.335 . S
C7 C6 1.335 . S
C7 C8 1.398 . S
C7 H34 0.930 . S
C8 C3 1.382 . S
C8 C7 1.398 . S
C8 H35 0.929 . S
C9 O22 1.271 1_455 S
C9 O23 1.251 . S
C10 O24 1.252 . S
C10 O25 1.272 . S
C11 Sm1 2.846 . S
C11 C12 1.506 . S
C11 O26 1.261 . S
C11 O27 1.242 . S
C12 C11 1.506 . S
C12 C13 1.358 . S
C12 C17 1.382 . S
C13 C12 1.358 . S
C13 C14 1.385 . S
C13 H36 0.930 . S
C14 C13 1.385 . S
C14 C15 1.395 . S
C14 H37 0.929 . S
C15 C14 1.395 . S
C15 C16 1.335 . S
C16 C15 1.335 . S
C16 C17 1.398 . S
C16 H38 0.930 . S
C17 C12 1.382 . S
C17 C16 1.398 . S
C17 H39 0.929 . S
C18 O28 1.271 . S
C18 O29 1.251 1_455 S
C19 O30 1.252 . S
C19 O31 1.272 . S
O20 Sm0 2.543 . S
O20 C2 1.261 . S
O21 Sm0 2.450 . S
O21 C2 1.242 . S
O22 Sm0 2.681 1_655 S
O22 Sm1 2.386 . S
O22 C9 1.271 1_655 S
O23 Sm0 2.464 . S
O23 C9 1.251 . S
O24 Sm0 2.396 . S
O24 C10 1.252 . S
O25 Sm1 2.408 1_455 S
O25 C10 1.272 . S
O26 Sm1 2.543 . S
O26 C11 1.261 . S
O27 Sm1 2.450 . S
O27 C11 1.242 . S
O28 Sm0 2.386 . S
O28 Sm1 2.681 1_455 S
O28 C18 1.271 . S
O29 Sm1 2.464 . S
O29 C18 1.251 1_655 S
O30 Sm1 2.396 . S
O30 C19 1.252 . S
O31 Sm0 2.408 1_655 S
O31 C19 1.272 . S
H32 C4 0.930 . S
H33 C5 0.929 . S
H34 C7 0.930 . S
H35 C8 0.929 . S
H36 C13 0.930 . S
H37 C14 0.929 . S
H38 C16 0.930 . S
H39 C17 0.929 . S
Sm40 C42 2.846 1_545 S
Sm40 O60 2.543 1_545 S
Sm40 O61 2.450 1_545 S
Sm40 O62 2.681 . S
Sm40 O63 2.464 . S
Sm40 O64 2.396 1_545 S
Sm40 O68 2.386 . S
Sm40 O71 2.408 . S
Sm41 C51 2.846 . S
Sm41 O62 2.386 . S
Sm41 O65 2.408 1_545 S
Sm41 O66 2.543 . S
Sm41 O67 2.450 . S
Sm41 O68 2.681 . S
Sm41 O69 2.464 . S
Sm41 O70 2.396 . S
C42 Sm40 2.846 1_565 S
C42 C43 1.506 . S
C42 O60 1.261 . S
C42 O61 1.242 . S
C43 C42 1.506 . S
C43 C44 1.358 . S
C43 C48 1.382 . S
C44 C43 1.358 . S
C44 C45 1.385 . S
C44 H72 0.930 . S
C45 C44 1.385 . S
C45 C46 1.395 . S
C45 H73 0.929 . S
C46 C45 1.395 . S
C46 C47 1.335 . S
C47 C46 1.335 . S
C47 C48 1.398 . S
C47 H74 0.930 . S
C48 C43 1.382 . S
C48 C47 1.398 . S
C48 H75 0.929 . S
C49 O62 1.271 . S
C49 O63 1.251 . S
C50 O64 1.252 . S
C50 O65 1.272 . S
C51 Sm41 2.846 . S
C51 C52 1.506 . S
C51 O66 1.261 . S
C51 O67 1.242 . S
C52 C51 1.506 . S
C52 C53 1.358 . S
C52 C57 1.382 . S
C53 C52 1.358 . S
C53 C54 1.385 . S
C53 H76 0.930 . S
C54 C53 1.385 . S
C54 C55 1.395 . S
C54 H77 0.929 . S
C55 C54 1.395 . S
C55 C56 1.335 . S
C56 C55 1.335 . S
C56 C57 1.398 . S
C56 H78 0.930 . S
C57 C52 1.382 . S
C57 C56 1.398 . S
C57 H79 0.929 . S
C58 O68 1.271 . S
C58 O69 1.251 . S
C59 O70 1.252 . S
C59 O71 1.272 . S
O60 Sm40 2.543 1_565 S
O60 C42 1.261 . S
O61 Sm40 2.450 1_565 S
O61 C42 1.242 . S
O62 Sm40 2.681 . S
O62 Sm41 2.386 . S
O62 C49 1.271 . S
O63 Sm40 2.464 . S
O63 C49 1.251 . S
O64 Sm40 2.396 1_565 S
O64 C50 1.252 . S
O65 Sm41 2.408 1_565 S
O65 C50 1.272 . S
O66 Sm41 2.543 . S
O66 C51 1.261 . S
O67 Sm41 2.450 . S
O67 C51 1.242 . S
O68 Sm40 2.386 . S
O68 Sm41 2.681 . S
O68 C58 1.271 . S
O69 Sm41 2.464 . S
O69 C58 1.251 . S
O70 Sm41 2.396 . S
O70 C59 1.252 . S
O71 Sm40 2.408 . S
O71 C59 1.272 . S
H72 C44 0.930 . S
H73 C45 0.929 . S
H74 C47 0.930 . S
H75 C48 0.929 . S
H76 C53 0.930 . S
H77 C54 0.929 . S
H78 C56 0.930 . S
H79 C57 0.929 . S
Sm80 C82 2.846 . S
Sm80 O100 2.543 . S
Sm80 O101 2.450 . S
Sm80 O102 2.681 . S
Sm80 O103 2.464 1_556 S
Sm80 O104 2.396 . S
Sm80 O108 2.386 . S
Sm80 O111 2.408 . S
Sm81 C91 2.846 . S
Sm81 O102 2.386 . S
Sm81 O105 2.408 . S
Sm81 O106 2.543 . S
Sm81 O107 2.450 . S
Sm81 O108 2.681 . S
Sm81 O109 2.464 . S
Sm81 O110 2.396 . S
C82 Sm80 2.846 . S
C82 C83 1.506 . S
C82 O100 1.261 . S
C82 O101 1.242 . S
C83 C82 1.506 . S
C83 C84 1.358 . S
C83 C88 1.382 . S
C84 C83 1.358 . S
C84 C85 1.385 . S
C84 H112 0.930 . S
C85 C84 1.385 . S
C85 C86 1.395 1_565 S
C85 H113 0.929 . S
C86 C85 1.395 1_545 S
C86 C87 1.335 . S
C87 C86 1.335 . S
C87 C88 1.398 1_545 S
C87 H114 0.930 . S
C88 C83 1.382 . S
C88 C87 1.398 1_565 S
C88 H115 0.929 . S
C89 O102 1.271 . S
C89 O103 1.251 1_556 S
C90 O104 1.252 . S
C90 O105 1.272 . S
C91 Sm81 2.846 . S
C91 C92 1.506 . S
C91 O106 1.261 . S
C91 O107 1.242 . S
C92 C91 1.506 . S
C92 C93 1.358 . S
C92 C97 1.382 . S
C93 C92 1.358 . S
C93 C94 1.385 . S
C93 H116 0.930 . S
C94 C93 1.385 . S
C94 C95 1.395 . S
C94 H117 0.929 . S
C95 C94 1.395 . S
C95 C96 1.335 . S
C96 C95 1.335 . S
C96 C97 1.398 . S
C96 H118 0.930 . S
C97 C92 1.382 . S
C97 C96 1.398 . S
C97 H119 0.929 . S
C98 O108 1.271 . S
C98 O109 1.251 . S
C99 O110 1.252 . S
C99 O111 1.272 . S
O100 Sm80 2.543 . S
O100 C82 1.261 . S
O101 Sm80 2.450 . S
O101 C82 1.242 . S
O102 Sm80 2.681 . S
O102 Sm81 2.386 . S
O102 C89 1.271 . S
O103 Sm80 2.464 1_554 S
O103 C89 1.251 1_554 S
O104 Sm80 2.396 . S
O104 C90 1.252 . S
O105 Sm81 2.408 . S
O105 C90 1.272 . S
O106 Sm81 2.543 . S
O106 C91 1.261 . S
O107 Sm81 2.450 . S
O107 C91 1.242 . S
O108 Sm80 2.386 . S
O108 Sm81 2.681 . S
O108 C98 1.271 . S
O109 Sm81 2.464 . S
O109 C98 1.251 . S
O110 Sm81 2.396 . S
O110 C99 1.252 . S
O111 Sm80 2.408 . S
O111 C99 1.272 . S
H112 C84 0.930 . S
H113 C85 0.929 . S
H114 C87 0.930 . S
H115 C88 0.929 . S
H116 C93 0.930 . S
H117 C94 0.929 . S
H118 C96 0.930 . S
H119 C97 0.929 . S
H120 C127 0.929 . S
H121 C130 0.930 . S
H122 C132 0.929 . S
H123 C124 0.969 . S
C124 H123 0.969 . S
C124 O125 1.550 . S
C124 H126 0.973 . S
O125 C124 1.550 . S
O125 C131 1.412 . S
H126 C124 0.973 . S
C127 H120 0.929 . S
C127 C128 1.400 . S
C127 C129 1.364 . S
C128 C127 1.400 . S
C128 C132 1.377 . S
C129 C127 1.364 . S
C129 C130 1.374 1_545 S
C130 H121 0.930 . S
C130 C129 1.374 1_565 S
C130 C131 1.383 . S
C131 O125 1.412 . S
C131 C130 1.383 . S
C131 C132 1.394 1_565 S
C132 H122 0.929 . S
C132 C128 1.377 . S
C132 C131 1.394 1_545 S
H133 C140 0.929 . S
H134 C143 0.930 . S
H135 C145 0.929 . S
H136 C137 0.969 . S
C137 H136 0.969 . S
C137 O138 1.550 . S
C137 H139 0.973 . S
O138 C137 1.550 . S
O138 C144 1.412 . S
H139 C137 0.973 . S
C140 H133 0.929 . S
C140 C141 1.400 . S
C140 C142 1.364 . S
C141 C140 1.400 . S
C141 C145 1.377 . S
C142 C140 1.364 . S
C142 C143 1.374 . S
C143 H134 0.930 . S
C143 C142 1.374 . S
C143 C144 1.383 . S
C144 O138 1.412 . S
C144 C143 1.383 . S
C144 C145 1.394 . S
C145 H135 0.929 . S
C145 C141 1.377 . S
C145 C144 1.394 . S
H146 C153 0.929 1_655 S
H147 C156 0.930 . S
H148 C158 0.929 . S
H149 C150 0.969 . S
C150 H149 0.969 . S
C150 O151 1.550 . S
C150 H152 0.973 . S
O151 C150 1.550 . S
O151 C157 1.412 . S
H152 C150 0.973 . S
C153 H146 0.929 1_455 S
C153 C154 1.400 . S
C153 C155 1.364 . S
C154 C153 1.400 . S
C154 C158 1.377 . S
C155 C153 1.364 . S
C155 C156 1.374 . S
C156 H147 0.930 . S
C156 C155 1.374 . S
C156 C157 1.383 . S
C157 O151 1.412 . S
C157 C156 1.383 . S
C157 C158 1.394 . S
C158 H148 0.929 . S
C158 C154 1.377 . S
C158 C157 1.394 . S
H159 C166 0.929 . S
H160 C169 0.930 . S
H161 C171 0.929 . S
H162 C163 0.969 . S
C163 H162 0.969 . S
C163 O164 1.550 . S
C163 H165 0.973 . S
O164 C163 1.550 . S
O164 C170 1.412 . S
H165 C163 0.973 . S
C166 H159 0.929 . S
C166 C167 1.400 . S
C166 C168 1.364 . S
C167 C166 1.400 . S
C167 C171 1.377 1_655 S
C168 C166 1.364 . S
C168 C169 1.373 1_655 S
C169 H160 0.930 . S
C169 C168 1.373 1_455 S
C169 C170 1.383 . S
C170 O164 1.412 . S
C170 C169 1.383 . S
C170 C171 1.394 . S
C171 H161 0.929 . S
C171 C167 1.377 1_455 S
C171 C170 1.394 . S
H172 C179 0.929 . S
H173 C182 0.930 . S
H174 C184 0.929 . S
H175 C176 0.969 . S
C176 H175 0.969 . S
C176 O177 1.550 . S
C176 H178 0.973 . S
O177 C176 1.550 . S
O177 C183 1.412 . S
H178 C176 0.973 . S
C179 H172 0.929 . S
C179 C180 1.400 . S
C179 C181 1.364 1_565 S
C180 C179 1.400 . S
C180 C184 1.377 . S
C181 C179 1.364 1_545 S
C181 C182 1.374 . S
C182 H173 0.930 . S
C182 C181 1.374 . S
C182 C183 1.383 . S
C183 O177 1.412 . S
C183 C182 1.383 . S
C183 C184 1.394 1_545 S
C184 H174 0.929 . S
C184 C180 1.377 . S
C184 C183 1.394 1_565 S
H185 C192 0.929 1_556 S
H186 C195 0.930 1_556 S
H187 C197 0.929 . S
H188 C189 0.969 . S
C189 H188 0.969 . S
C189 O190 1.550 . S
C189 H191 0.973 . S
O190 C189 1.550 . S
O190 C196 1.412 . S
H191 C189 0.973 . S
C192 H185 0.929 1_554 S
C192 C193 1.400 . S
C192 C194 1.364 1_554 S
C193 C192 1.400 . S
C193 C197 1.377 . S
C194 C192 1.364 1_556 S
C194 C195 1.374 1_556 S
C195 H186 0.930 1_554 S
C195 C194 1.374 1_554 S
C195 C196 1.383 . S
C196 O190 1.412 . S
C196 C195 1.383 . S
C196 C197 1.394 . S
C197 H187 0.929 . S
C197 C193 1.377 . S
C197 C196 1.394 . S
C6 C189 4.389 . S
C59 C167 2.340 . S
C86 C180 3.172 1_545 S
C15 C193 3.386 . S
C163 C50 2.359 . S
C176 C95 2.081 . S
C46 C141 1.813 . S
C99 C154 4.779 1_655 S
C10 C124 2.592 . S
C137 C55 2.526 . S
C150 C90 4.550 . S
C19 C128 2.492 . S
C155 C18 2.042 1_556 S
C49 C129 1.334 . S
C98 C142 1.476 . S
C181 C58 1.373 . S
C194 C89 1.791 . S
C9 C168 1.040 1_455 S
