# Generated by pormake.
# Topology pts, (4,4)-cn, num edge types: 1
# Building blocks:
#     Node 0, Type 0, BuildingBlock: KUFVIS_clean_linker_0, # of connection points: 4
#     Node 1, Type 0, BuildingBlock: KUFVIS_clean_linker_0, # of connection points: 4
#     Node 2, Type 1, BuildingBlock: AZAVOO_clean_sbu_0, # of connection points: 4
#     Node 3, Type 1, BuildingBlock: AZAVOO_clean_sbu_0, # of connection points: 4
#     Edge 4, Type (0, 1), BuildingBlock: FUNLAD_clean_linker_0, # of connection points: 2
#     Edge 5, Type (0, 1), BuildingBlock: FUNLAD_clean_linker_0, # of connection points: 2
#     Edge 6, Type (0, 1), BuildingBlock: FUNLAD_clean_linker_0, # of connection points: 2
#     Edge 7, Type (0, 1), BuildingBlock: FUNLAD_clean_linker_0, # of connection points: 2
#     Edge 8, Type (0, 1), BuildingBlock: FUNLAD_clean_linker_0, # of connection points: 2
#     Edge 9, Type (0, 1), BuildingBlock: FUNLAD_clean_linker_0, # of connection points: 2
#     Edge 10, Type (0, 1), BuildingBlock: FUNLAD_clean_linker_0, # of connection points: 2
#     Edge 11, Type (0, 1), BuildingBlock: FUNLAD_clean_linker_0, # of connection points: 2
# Relax obj value: 0.013
# Max RMSD: 0.077
# Mean RMSD: 0.073
data_MOF--net-pts--node1-AZAVOO_clean_sbu_0--node2-KUFVIS_clean_linker_0--edge1-FUNLAD_clean_linker_0
_symmetry_space_group_name_H-M    P1
_symmetry_Int_Tables_number       1
_symmetry_cell_setting            triclinic
loop_
_symmetry_equiv_pos_as_xyz
'x, y, z'
_cell_length_a     28.609569
_cell_length_b     29.884115
_cell_length_c     40.612913
_cell_angle_alpha  90.234755
_cell_angle_beta   95.765002
_cell_angle_gamma 90.142686
loop_
_atom_site_label
_atom_site_type_symbol
_atom_site_fract_x
_atom_site_fract_y
_atom_site_fract_z
_atom_type_partial_charge
H0 H 0.3994 0.03276 0.98012 0.0
H1 H 0.52254 0.02588 0.92826 0.0
H2 H 0.53381 0.06212 0.03214 0.0
H3 H 0.6 0.01876 0.03068 0.0
H4 H 0.72414 0.05212 -0.01479 0.0
H5 H 0.589 0.07326 0.9316 0.0
C6 C 0.43725 0.03563 0.98031 0.0
C7 C 0.46433 0.04731 0.00966 0.0
C8 C 0.45781 0.02822 0.95098 0.0
C9 C 0.50673 0.03284 0.95087 0.0
C10 C 0.53509 0.04443 0.98027 0.0
C11 C 0.51308 0.0525 0.00942 0.0
C12 C 0.58757 0.04638 -0.01883 0.0
C13 C 0.61595 0.03227 0.00976 0.0
C14 C 0.66514 0.03407 0.01124 0.0
C15 C 0.68613 0.05036 -0.01595 0.0
C16 C 0.65909 0.06433 0.95533 0.0
C17 C 0.60977 0.06195 0.95376 0.0
H18 H 0.99373 0.67662 0.47557 0.0
H19 H 0.99852 0.55429 0.53018 0.0
H20 H 0.03118 0.55596 0.4281 0.0
H21 H 0.99986 0.48845 0.42677 0.0
H22 H 0.02944 0.36755 0.48042 0.0
H23 H 0.04103 0.4926 0.53255 0.0
C24 C 0.99913 0.6407 0.47654 0.0
C25 C 1.01103 0.61827 0.44836 0.0
C26 C 0.99603 0.61794 0.50623 0.0
C27 C 1.00328 0.57152 0.50738 0.0
C28 C 1.01501 0.5478 0.47908 0.0
C29 C 1.02034 0.57228 0.4499 0.0
C30 C 1.02029 0.49781 0.47956 0.0
C31 C 1.01133 0.4725 0.45004 0.0
C32 C 1.01519 0.42581 0.45039 0.0
C33 C 0.02735 0.40381 0.48023 0.0
C34 C 0.03609 0.42778 0.50985 0.0
C35 C 0.03293 0.47466 0.50949 0.0
Mg36 Mg 0.10682 0.01277 0.25635 0.0
O37 O 0.03557 1.0047 0.22436 0.0
O38 O 0.98191 0.98868 0.25905 0.0
Mg39 Mg 1.01723 0.98738 0.31186 0.0
C40 C 0.99327 0.99571 0.22989 0.0
C41 C 0.18503 0.0538 0.22058 0.0
O42 O 0.20295 0.05222 0.25164 0.0
O43 O 0.08402 0.08164 0.27316 0.0
O44 O 0.03136 0.06297 0.30786 0.0
O45 O 0.1207 0.93959 0.25264 0.0
O46 O 0.0835 0.97051 0.29196 0.0
C47 C 0.05466 0.09239 0.29353 0.0
C48 C 0.09788 0.93474 0.27834 0.0
O49 O 0.1425 0.04181 0.21347 0.0
Mg50 Mg 1.01153 0.01451 0.71297 0.0
O51 O 0.08716 1.01043 0.74029 0.0
O52 O 0.13277 0.99289 0.70035 0.0
Mg53 Mg 0.08976 0.98465 0.65045 0.0
C54 C 0.12761 1.00235 0.73049 0.0
C55 C 0.93619 0.06002 0.74407 0.0
O56 O 0.9245 0.0568 0.71201 0.0
O57 O 0.03074 0.08202 0.69156 0.0
O58 O 0.07643 0.06045 0.65287 0.0
O59 O 0.99913 0.94142 0.72063 0.0
O60 O 0.0296 0.96957 0.67746 0.0
C61 C 0.05616 0.09103 0.6683 0.0
C62 C 1.01713 0.93482 0.69305 0.0
O63 O 0.97716 0.04737 0.7554 0.0
C64 C 0.4064 0.02159 0.04761 0.0
C65 C 0.44057 0.0529 0.0403 0.0
C66 C 0.37924 0.02891 0.07372 0.0
C67 C 0.3855 0.06782 0.09323 0.0
C68 C 0.42164 0.0978 0.08733 0.0
C69 C 0.44887 0.09054 0.06094 0.0
C70 C 0.35496 0.07702 0.12 0.0
C71 C 0.30934 0.06452 0.11729 0.0
C72 C 0.27767 0.06832 0.14409 0.0
C73 C 0.22923 0.06157 0.13596 0.0
C74 C 0.19865 0.059 0.16066 0.0
C75 C 0.21589 0.06292 0.19416 0.0
H76 H 0.33166 0.07879 0.18512 0.0
C77 C 0.26401 0.0717 0.20228 0.0
C78 C 0.29463 0.07424 0.17757 0.0
H79 H 0.27848 0.07489 0.22787 0.0
H80 H 0.40008 0.99163 0.0327 0.0
H81 H 0.35323 1.00401 0.07849 0.0
H82 H 0.42775 0.12761 0.10244 0.0
H83 H 0.47506 0.11515 0.05592 0.0
H84 H 0.37014 0.09533 0.14161 0.0
H85 H 0.29411 0.05009 0.09402 0.0
H86 H 0.21511 0.05684 0.11041 0.0
H87 H 0.16179 0.0523 0.15351 0.0
C88 C 0.08149 0.36969 0.54302 0.0
C89 C 0.04634 0.40247 0.54095 0.0
C90 C 0.0845 0.33832 0.56846 0.0
C91 C 0.05232 0.33909 0.59257 0.0
C92 C 1.01898 0.37368 0.59156 0.0
C93 C 1.0162 0.40534 0.56609 0.0
C94 C 0.04835 0.30096 0.61568 0.0
C95 C 0.0837 0.27204 0.62371 0.0
C96 C 0.07705 0.22708 0.6381 0.0
C97 C 0.10826 0.1931 0.63094 0.0
C98 C 0.10148 0.14923 0.64098 0.0
C99 C 0.06367 0.13823 0.65903 0.0
H100 H 1.01579 0.24204 0.66381 0.0
C101 C 0.03346 0.17251 0.66757 0.0
C102 C 0.03992 0.21656 0.65707 0.0
H103 H 1.00427 0.16517 0.68174 0.0
H104 H 0.10492 0.36671 0.52376 0.0
H105 H 0.10997 0.31181 0.56751 0.0
H106 H 0.99355 0.37493 0.60959 0.0
H107 H 0.98843 0.43004 0.56475 0.0
H108 H 1.01387 0.29453 0.62363 0.0
H109 H 0.11827 0.27924 0.6162 0.0
H110 H 0.1373 0.20021 0.61654 0.0
H111 H 0.12588 0.12384 0.63439 0.0
C112 C 0.73561 0.99378 0.0378 0.0
C113 C 0.69563 0.02002 0.04114 0.0
C114 C 0.7685 0.986 0.06492 0.0
C115 C 0.7623 1.0046 0.09605 0.0
C116 C 0.72079 0.02831 0.09987 0.0
C117 C 0.68777 0.03609 0.07265 0.0
C118 C 0.79868 1.00046 0.12476 0.0
C119 C 0.84492 0.99613 0.12129 0.0
C120 C 0.88238 0.99487 0.14952 0.0
C121 C 0.92877 1.0054 0.14374 0.0
C122 C 0.96496 1.00528 0.16963 0.0
C123 C 0.95559 0.99435 0.20194 0.0
H124 H 0.83841 0.97301 0.18712 0.0
C125 C 0.90932 0.98278 0.20756 0.0
C126 C 0.87321 0.98286 0.1817 0.0
H127 H 0.90079 0.97364 0.23204 0.0
H128 H 0.742 0.98008 0.01392 0.0
H129 H 0.79889 0.9658 0.06125 0.0
H130 H 0.71475 0.0424 0.1237 0.0
H131 H 0.65727 0.05642 0.07594 0.0
H132 H 0.78716 1.00465 0.14923 0.0
H133 H 0.85648 0.99627 0.09663 0.0
H134 H 0.93701 0.01434 0.11914 0.0
H135 H 1.00014 0.0142 0.16433 0.0
C136 C 1.02062 0.64478 0.56383 0.0
C137 C 0.98738 0.64433 0.53593 0.0
C138 C 1.01941 0.6784 0.58791 0.0
C139 C 0.98463 0.71184 0.5844 0.0
C140 C 0.94927 0.70884 0.55789 0.0
C141 C 0.95056 0.67544 0.53394 0.0
C142 C 0.98742 0.75351 0.60458 0.0
C143 C 1.01306 0.75872 0.634 0.0
C144 C 1.01799 0.80345 0.64993 0.0
C145 C 1.01383 0.80841 0.68386 0.0
C146 C 1.01477 0.85113 0.69829 0.0
C147 C 1.02114 0.88937 0.67912 0.0
H148 H 0.03072 0.83852 0.60502 0.0
C149 C 0.02797 0.88399 0.64558 0.0
C150 C 0.02618 0.84153 0.6311 0.0
H151 H 0.03305 0.91272 0.63015 0.0
H152 H 0.04963 0.62139 0.56568 0.0
H153 H 0.04759 0.67979 0.60774 0.0
H154 H 0.92197 0.73397 0.55463 0.0
H155 H 0.92444 0.67566 0.51268 0.0
H156 H 0.96802 0.7822 0.59402 0.0
H157 H 0.02946 0.73023 0.64694 0.0
H158 H 1.00806 0.77945 0.6989 0.0
H159 H 1.00967 0.85426 0.72427 0.0
C160 C 0.4212 0.04378 0.89352 0.0
C161 C 0.42649 0.01552 0.92112 0.0
C162 C 0.38345 0.03769 0.86905 0.0
C163 C 0.35057 1.00289 0.87177 0.0
C164 C 0.35786 0.97322 0.89847 0.0
C165 C 0.39534 0.9794 0.92282 0.0
C166 C 0.30636 0.99837 0.84919 0.0
C167 C 0.29935 0.0171 0.81902 0.0
C168 C 0.25452 0.01247 0.79728 0.0
C169 C 0.25606 0.01316 0.76293 0.0
C170 C 0.2149 1.00941 0.74155 0.0
C171 C 0.17081 1.0057 0.75395 0.0
H172 H 0.20788 1.00957 0.8363 0.0
C173 C 0.16901 1.00583 0.78841 0.0
C174 C 0.21049 1.00898 0.8099 0.0
H175 H 0.13566 1.00333 0.79876 0.0
H176 H 0.4443 0.07232 0.89201 0.0
H177 H 0.3789 0.06183 0.84925 0.0
H178 H 0.33337 0.94609 0.90124 0.0
H179 H 0.39859 0.95727 0.944 0.0
H180 H 0.27863 0.97777 0.85768 0.0
H181 H 0.32804 0.0344 0.80889 0.0
H182 H 0.28934 0.01627 0.75253 0.0
H183 H 0.21774 1.00996 0.71516 0.0
C184 C 0.03824 0.39905 0.39599 0.0
C185 C 1.00613 0.39884 0.41992 0.0
C186 C 0.03503 0.3667 0.3708 0.0
C187 C 0.9994 0.3339 0.36922 0.0
C188 C 0.96531 0.33617 0.39174 0.0
C189 C 0.96896 0.36799 0.41711 0.0
C190 C 0.9984 0.29469 0.34656 0.0
C191 C 0.03755 0.27581 0.33684 0.0
C192 C 0.03822 0.22995 0.32246 0.0
C193 C 0.075 0.21761 0.30385 0.0
C194 C 0.07963 0.17326 0.29335 0.0
C195 C 0.04793 0.14018 0.30179 0.0
H196 H 0.97789 0.20448 0.3453 0.0
C197 C 1.0106 0.15278 0.31983 0.0
C198 C 1.00582 0.19698 0.33008 0.0
H199 H 0.9855 0.12823 0.32678 0.0
H200 H 0.06724 0.42261 0.39787 0.0
H201 H 0.06112 0.36676 0.35328 0.0
H202 H 0.93733 0.31156 0.39095 0.0
H203 H 0.94391 0.36729 0.43542 0.0
H204 H 0.96484 0.27781 0.34114 0.0
H205 H 0.07117 0.2927 0.34183 0.0
H206 H 0.1008 0.24217 0.29799 0.0
H207 H 0.10888 0.16468 0.27957 0.0
C208 C 0.67838 0.0576 0.89665 0.0
C209 C 0.68416 0.07994 0.92725 0.0
C210 C 0.71044 0.06453 0.8732 0.0
C211 C 0.74866 0.09427 0.87995 0.0
C212 C 0.75226 0.11869 0.90967 0.0
C213 C 0.72035 0.11175 0.93299 0.0
C214 C 0.78809 0.0972 0.85867 0.0
C215 C 0.78472 0.08472 0.82664 0.0
C216 C 0.82559 0.08347 0.80665 0.0
C217 C 0.8172 0.0868 0.77216 0.0
C218 C 0.85373 0.0814 0.75215 0.0
C219 C 0.89962 0.07177 0.76608 0.0
H220 H 0.87958 0.07159 0.84729 0.0
C221 C 0.90849 0.06966 0.80071 0.0
C222 C 0.87184 0.07544 0.82083 0.0
H223 H 0.94333 0.062 0.81222 0.0
H224 H 0.6512 0.03243 0.89186 0.0
H225 H 0.70671 0.04441 0.8509 0.0
H226 H 0.78113 0.14186 0.91557 0.0
H227 H 0.72554 0.12944 0.95643 0.0
H228 H 0.82138 0.11016 0.8701 0.0
H229 H 0.75066 0.07562 0.81417 0.0
H230 H 0.78201 0.09278 0.76054 0.0
H231 H 0.84549 0.08331 0.72557 0.0
C232 C 0.05639 0.64888 0.40383 0.0
C233 C 1.01372 0.64422 0.41773 0.0
C234 C 0.0611 0.6811 0.37939 0.0
C235 C 1.02288 0.70882 0.36834 0.0
C236 C 0.97943 0.70153 0.38073 0.0
C237 C 0.97492 0.66974 0.40523 0.0
C238 C 0.02762 0.74909 0.34748 0.0
C239 C 0.06578 0.75951 0.33214 0.0
C240 C 0.07161 0.8043 0.31732 0.0
C241 C 0.09754 0.80878 0.28997 0.0
C242 C 0.10527 0.85108 0.2768 0.0
C243 C 0.08788 0.88978 0.29115 0.0
H244 H 0.0356 0.8411 0.3535 0.0
C245 C 0.06233 0.88522 0.31871 0.0
C246 C 0.05423 0.84304 0.33162 0.0
H247 H 0.04926 0.91424 0.33082 0.0
H248 H 0.08685 0.62973 0.41338 0.0
H249 H 0.09536 0.68565 0.37086 0.0
H250 H 0.94934 0.72215 0.37271 0.0
H251 H 0.94163 0.66658 0.41561 0.0
H252 H 0.9986 0.77265 0.34599 0.0
H253 H 0.09371 0.73538 0.33055 0.0
H254 H 0.11187 0.77953 0.2788 0.0
H255 H 0.12547 0.85347 0.2557 0.0
loop_
_geom_bond_atom_site_label_1
_geom_bond_atom_site_label_2
_geom_bond_distance
_geom_bond_site_symmetry_2
_ccdc_geom_bond_type
H0 C6 0.927 . S
H1 C9 0.931 . S
H2 C11 0.931 . S
H3 C13 0.930 . S
H4 C15 0.930 . S
H5 C17 0.934 . S
C6 H0 0.927 . S
C6 C7 1.353 1_556 S
C6 C8 1.425 . S
C7 C6 1.353 1_554 S
C7 C11 1.382 . S
C8 C6 1.425 . S
C8 C9 1.400 . S
C9 H1 0.931 . S
C9 C8 1.400 . S
C9 C10 1.386 . S
C10 C9 1.386 . S
C10 C11 1.402 1_556 S
C10 C12 1.503 1_556 S
C11 H2 0.931 . S
C11 C7 1.382 . S
C11 C10 1.402 1_554 S
C12 C10 1.503 1_554 S
C12 C13 1.396 . S
C12 C17 1.394 1_554 S
C13 H3 0.930 . S
C13 C12 1.396 . S
C13 C14 1.389 . S
C14 C13 1.389 . S
C14 C15 1.405 . S
C15 H4 0.930 . S
C15 C14 1.405 . S
C15 C16 1.364 1_554 S
C16 C15 1.364 1_556 S
C16 C17 1.400 . S
C17 H5 0.934 . S
C17 C12 1.394 1_556 S
C17 C16 1.400 . S
H18 C24 0.930 . S
H19 C27 0.931 . S
H20 C29 0.931 . S
H21 C31 0.930 . S
H22 C33 0.930 . S
H23 C35 0.931 . S
C24 H18 0.930 . S
C24 C25 1.380 . S
C24 C26 1.394 . S
C25 C24 1.380 . S
C25 C29 1.382 . S
C26 C24 1.394 . S
C26 C27 1.400 . S
C27 H19 0.931 . S
C27 C26 1.400 . S
C27 C28 1.375 . S
C28 C27 1.375 . S
C28 C29 1.415 . S
C28 C30 1.501 . S
C29 H20 0.931 . S
C29 C25 1.382 . S
C29 C28 1.415 . S
C30 C28 1.501 . S
C30 C31 1.384 . S
C30 C35 1.408 . S
C31 H21 0.930 . S
C31 C30 1.384 . S
C31 C32 1.389 . S
C32 C31 1.389 . S
C32 C33 1.405 . S
C33 H22 0.930 . S
C33 C32 1.405 . S
C33 C34 1.364 . S
C34 C33 1.364 . S
C34 C35 1.400 . S
C35 H23 0.931 . S
C35 C30 1.408 . S
C35 C34 1.400 . S
Mg36 O37 2.028 . S
Mg36 O43 1.986 . S
Mg36 O45 2.114 1_545 S
Mg36 O46 2.251 1_545 S
Mg36 O49 2.010 . S
O37 Mg36 2.028 . S
O37 C40 1.250 1_455 S
O38 Mg39 2.028 . S
O38 C40 1.248 . S
Mg39 O38 2.028 . S
Mg39 O44 2.032 . S
Mg39 O46 2.079 1_645 S
C40 O37 1.250 1_655 S
C40 O38 1.248 . S
C41 O42 1.264 . S
C41 O49 1.249 . S
O42 C41 1.264 . S
O43 Mg36 1.986 . S
O43 C47 1.246 . S
O44 Mg39 2.032 . S
O44 C47 1.259 1_655 S
O45 Mg36 2.114 1_565 S
O45 C48 1.252 . S
O46 Mg36 2.251 1_565 S
O46 Mg39 2.079 1_465 S
O46 C48 1.273 . S
C47 O43 1.246 . S
C47 O44 1.259 1_455 S
C48 O45 1.252 . S
C48 O46 1.273 . S
O49 Mg36 2.010 . S
O49 C41 1.249 . S
Mg50 O51 2.028 1_655 S
Mg50 O57 1.986 . S
Mg50 O59 2.114 1_545 S
Mg50 O60 2.251 1_645 S
Mg50 O63 2.010 . S
O51 Mg50 2.028 1_455 S
O51 C54 1.250 . S
O52 Mg53 2.028 . S
O52 C54 1.248 . S
Mg53 O52 2.028 . S
Mg53 O58 2.032 . S
Mg53 O60 2.079 1_545 S
C54 O51 1.250 . S
C54 O52 1.248 . S
C55 O56 1.264 . S
C55 O63 1.249 . S
O56 C55 1.264 . S
O57 Mg50 1.986 . S
O57 C61 1.246 1_655 S
O58 Mg53 2.032 . S
O58 C61 1.259 . S
O59 Mg50 2.114 1_565 S
O59 C62 1.252 1_655 S
O60 Mg50 2.251 1_465 S
O60 Mg53 2.079 1_565 S
O60 C62 1.273 . S
C61 O57 1.246 1_455 S
C61 O58 1.259 . S
C62 O59 1.252 1_455 S
C62 O60 1.273 . S
O63 Mg50 2.010 . S
O63 C55 1.249 . S
C64 C65 1.384 1_565 S
C64 C66 1.383 . S
C64 H80 0.951 . S
C65 C64 1.384 1_545 S
C65 C69 1.384 . S
C66 C64 1.383 . S
C66 C67 1.401 . S
C66 H81 0.951 . S
C67 C66 1.401 . S
C67 C68 1.375 1_565 S
C67 C70 1.481 1_565 S
C68 C67 1.375 1_545 S
C68 C69 1.367 . S
C68 H82 0.951 . S
C69 C65 1.384 . S
C69 C68 1.367 . S
C69 H83 0.950 . S
C70 C67 1.481 1_545 S
C70 C71 1.297 1_545 S
C70 H84 0.950 . S
C71 C70 1.297 1_565 S
C71 C72 1.479 . S
C71 H85 0.950 . S
C72 C71 1.479 . S
C72 C73 1.375 . S
C72 C78 1.404 1_565 S
C73 C72 1.375 . S
C73 C74 1.369 . S
C73 H86 0.950 . S
C74 C73 1.369 . S
C74 C75 1.392 1_565 S
C74 H87 0.951 . S
C75 C74 1.392 1_545 S
C75 C77 1.384 . S
H76 C78 0.949 . S
C77 C75 1.384 . S
C77 C78 1.385 . S
C77 H79 0.950 . S
C78 C72 1.404 1_545 S
C78 H76 0.949 . S
C78 C77 1.385 . S
H79 C77 0.950 . S
H80 C64 0.951 . S
H81 C66 0.951 . S
H82 C68 0.951 . S
H83 C69 0.950 . S
H84 C70 0.950 . S
H85 C71 0.950 . S
H86 C73 0.950 . S
H87 C74 0.951 . S
C88 C89 1.386 . S
C88 C90 1.383 . S
C88 H104 0.951 . S
C89 C88 1.386 . S
C89 C93 1.383 1_455 S
C90 C88 1.383 . S
C90 C91 1.402 . S
C90 H105 0.951 . S
C91 C90 1.402 . S
C91 C92 1.375 1_455 S
C91 C94 1.481 . S
C92 C91 1.375 1_655 S
C92 C93 1.367 . S
C92 H106 0.951 . S
C93 C89 1.383 1_655 S
C93 C92 1.367 . S
C93 H107 0.950 . S
C94 C91 1.481 . S
C94 C95 1.297 . S
C94 H108 0.950 1_455 S
C95 C94 1.297 . S
C95 C96 1.479 . S
C95 H109 0.950 . S
C96 C95 1.479 . S
C96 C97 1.375 . S
C96 C102 1.404 1_455 S
C97 C96 1.375 . S
C97 C98 1.369 . S
C97 H110 0.950 . S
C98 C97 1.369 . S
C98 C99 1.392 . S
C98 H111 0.951 . S
C99 C98 1.392 . S
C99 C101 1.384 1_455 S
H100 C102 0.949 . S
C101 C99 1.384 1_655 S
C101 C102 1.385 . S
C101 H103 0.950 . S
C102 C96 1.404 1_655 S
C102 H100 0.949 . S
C102 C101 1.385 . S
H103 C101 0.950 . S
H104 C88 0.951 . S
H105 C90 0.951 . S
H106 C92 0.951 . S
H107 C93 0.950 . S
H108 C94 0.950 1_655 S
H109 C95 0.950 . S
H110 C97 0.950 . S
H111 C98 0.951 . S
C112 C113 1.386 1_565 S
C112 C114 1.383 . S
C112 H128 0.951 . S
C113 C112 1.386 1_545 S
C113 C117 1.383 . S
C114 C112 1.383 . S
C114 C115 1.402 1_565 S
C114 H129 0.951 . S
C115 C114 1.402 1_545 S
C115 C116 1.375 . S
C115 C118 1.481 . S
C116 C115 1.375 . S
C116 C117 1.367 . S
C116 H130 0.951 . S
C117 C113 1.383 . S
C117 C116 1.367 . S
C117 H131 0.950 . S
C118 C115 1.481 . S
C118 C119 1.297 . S
C118 H132 0.950 . S
C119 C118 1.297 . S
C119 C120 1.479 . S
C119 H133 0.946 1_545 S
C120 C119 1.479 . S
C120 C121 1.375 1_545 S
C120 C126 1.404 . S
C121 C120 1.375 1_565 S
C121 C122 1.369 . S
C121 H134 0.950 . S
C122 C121 1.369 . S
C122 C123 1.392 1_565 S
C122 H135 0.951 . S
C123 C122 1.392 1_545 S
C123 C125 1.384 . S
H124 C126 0.949 . S
C125 C123 1.384 . S
C125 C126 1.385 . S
C125 H127 0.950 . S
C126 C120 1.404 . S
C126 H124 0.949 . S
C126 C125 1.385 . S
H127 C125 0.950 . S
H128 C112 0.951 . S
H129 C114 0.951 . S
H130 C116 0.951 . S
H131 C117 0.950 . S
H132 C118 0.950 . S
H133 C119 0.946 1_565 S
H134 C121 0.950 . S
H135 C122 0.951 . S
C136 C137 1.386 . S
C136 C138 1.383 . S
C136 H152 0.951 . S
C137 C136 1.386 . S
C137 C141 1.383 1_455 S
C138 C136 1.383 . S
C138 C139 1.402 . S
C138 H153 0.951 . S
C139 C138 1.402 . S
C139 C140 1.375 1_455 S
C139 C142 1.481 . S
C140 C139 1.375 1_655 S
C140 C141 1.367 . S
C140 H154 0.951 . S
C141 C137 1.383 1_655 S
C141 C140 1.367 . S
C141 H155 0.950 . S
C142 C139 1.481 . S
C142 C143 1.297 . S
C142 H156 0.950 1_455 S
C143 C142 1.297 . S
C143 C144 1.479 . S
C143 H157 0.950 . S
C144 C143 1.479 . S
C144 C145 1.375 . S
C144 C150 1.404 . S
C145 C144 1.375 . S
C145 C146 1.369 . S
C145 H158 0.950 . S
C146 C145 1.369 . S
C146 C147 1.392 . S
C146 H159 0.951 . S
C147 C146 1.392 . S
C147 C149 1.384 1_455 S
H148 C150 0.949 1_655 S
C149 C147 1.384 1_655 S
C149 C150 1.385 1_655 S
C149 H151 0.950 . S
C150 C144 1.404 . S
C150 H148 0.949 1_455 S
C150 C149 1.385 1_455 S
H151 C149 0.950 . S
H152 C136 0.951 . S
H153 C138 0.951 . S
H154 C140 0.951 . S
H155 C141 0.950 . S
H156 C142 0.950 1_655 S
H157 C143 0.950 . S
H158 C145 0.950 . S
H159 C146 0.951 . S
C160 C161 1.386 . S
C160 C162 1.383 . S
C160 H176 0.951 . S
C161 C160 1.386 . S
C161 C165 1.383 1_545 S
C162 C160 1.383 . S
C162 C163 1.402 1_545 S
C162 H177 0.951 . S
C163 C162 1.402 1_565 S
C163 C164 1.375 . S
C163 C166 1.481 . S
C164 C163 1.375 . S
C164 C165 1.367 . S
C164 H178 0.951 . S
C165 C161 1.383 1_565 S
C165 C164 1.367 . S
C165 H179 0.950 . S
C166 C163 1.481 . S
C166 C167 1.297 1_565 S
C166 H180 0.950 . S
C167 C166 1.297 1_545 S
C167 C168 1.479 . S
C167 H181 0.950 . S
C168 C167 1.479 . S
C168 C169 1.375 . S
C168 C174 1.404 1_545 S
C169 C168 1.375 . S
C169 C170 1.369 . S
C169 H182 0.950 . S
C170 C169 1.369 . S
C170 C171 1.392 . S
C170 H183 0.951 . S
C171 C170 1.392 . S
C171 C173 1.384 1_545 S
H172 C174 0.949 . S
C173 C171 1.384 1_565 S
C173 C174 1.385 . S
C173 H175 0.950 . S
C174 C168 1.404 1_565 S
C174 H172 0.949 . S
C174 C173 1.385 . S
H175 C173 0.950 . S
H176 C160 0.951 . S
H177 C162 0.951 . S
H178 C164 0.951 . S
H179 C165 0.950 . S
H180 C166 0.950 . S
H181 C167 0.950 . S
H182 C169 0.950 . S
H183 C170 0.951 . S
C184 C185 1.386 . S
C184 C186 1.383 . S
C184 H200 0.951 . S
C185 C184 1.386 . S
C185 C189 1.383 1_455 S
C186 C184 1.383 . S
C186 C187 1.402 . S
C186 H201 0.951 . S
C187 C186 1.402 . S
C187 C188 1.375 1_455 S
C187 C190 1.481 . S
C188 C187 1.375 1_655 S
C188 C189 1.367 . S
C188 H202 0.951 . S
C189 C185 1.383 1_655 S
C189 C188 1.367 . S
C189 H203 0.950 . S
C190 C187 1.481 . S
C190 C191 1.297 . S
C190 H204 0.950 1_455 S
C191 C190 1.297 . S
C191 C192 1.479 . S
C191 H205 0.950 . S
C192 C191 1.479 . S
C192 C193 1.375 . S
C192 C198 1.404 . S
C193 C192 1.375 . S
C193 C194 1.369 . S
C193 H206 0.950 . S
C194 C193 1.369 . S
C194 C195 1.392 . S
C194 H207 0.951 . S
C195 C194 1.392 . S
C195 C197 1.384 . S
H196 C198 0.949 1_655 S
C197 C195 1.384 . S
C197 C198 1.385 . S
C197 H199 0.950 1_455 S
C198 C192 1.404 . S
C198 H196 0.949 1_455 S
C198 C197 1.385 . S
H199 C197 0.950 1_655 S
H200 C184 0.951 . S
H201 C186 0.951 . S
H202 C188 0.951 . S
H203 C189 0.950 . S
H204 C190 0.950 1_655 S
H205 C191 0.950 . S
H206 C193 0.950 . S
H207 C194 0.951 . S
C208 C209 1.386 . S
C208 C210 1.383 . S
C208 H224 0.951 1_545 S
C209 C208 1.386 . S
C209 C213 1.383 . S
C210 C208 1.383 . S
C210 C211 1.402 . S
C210 H225 0.951 . S
C211 C210 1.402 . S
C211 C212 1.375 . S
C211 C214 1.481 . S
C212 C211 1.375 . S
C212 C213 1.367 . S
C212 H226 0.951 . S
C213 C209 1.383 . S
C213 C212 1.367 . S
C213 H227 0.950 . S
C214 C211 1.481 . S
C214 C215 1.297 . S
C214 H228 0.950 . S
C215 C214 1.297 . S
C215 C216 1.479 . S
C215 H229 0.950 . S
C216 C215 1.479 . S
C216 C217 1.375 . S
C216 C222 1.404 . S
C217 C216 1.375 . S
C217 C218 1.369 . S
C217 H230 0.950 . S
C218 C217 1.369 . S
C218 C219 1.392 . S
C218 H231 0.951 . S
C219 C218 1.392 . S
C219 C221 1.384 . S
H220 C222 0.949 . S
C221 C219 1.384 . S
C221 C222 1.385 . S
C221 H223 0.950 . S
C222 C216 1.404 . S
C222 H220 0.949 . S
C222 C221 1.385 . S
H223 C221 0.950 . S
H224 C208 0.951 1_565 S
H225 C210 0.951 . S
H226 C212 0.951 . S
H227 C213 0.950 . S
H228 C214 0.950 . S
H229 C215 0.950 . S
H230 C217 0.950 . S
H231 C218 0.951 . S
C232 C233 1.386 . S
C232 C234 1.383 . S
C232 H248 0.951 . S
C233 C232 1.386 . S
C233 C237 1.383 1_455 S
C234 C232 1.383 . S
C234 C235 1.402 . S
C234 H249 0.951 . S
C235 C234 1.402 . S
C235 C236 1.375 1_455 S
C235 C238 1.481 . S
C236 C235 1.375 1_655 S
C236 C237 1.367 . S
C236 H250 0.951 . S
C237 C233 1.383 1_655 S
C237 C236 1.367 . S
C237 H251 0.950 . S
C238 C235 1.481 . S
C238 C239 1.297 . S
C238 H252 0.950 1_455 S
C239 C238 1.297 . S
C239 C240 1.479 . S
C239 H253 0.950 . S
C240 C239 1.479 . S
C240 C241 1.375 . S
C240 C246 1.404 1_455 S
C241 C240 1.375 . S
C241 C242 1.369 . S
C241 H254 0.950 . S
C242 C241 1.369 . S
C242 C243 1.392 . S
C242 H255 0.951 . S
C243 C242 1.392 . S
C243 C245 1.384 1_455 S
H244 C246 0.949 . S
C245 C243 1.384 1_655 S
C245 C246 1.385 . S
C245 H247 0.950 . S
C246 C240 1.404 1_655 S
C246 H244 0.949 . S
C246 C245 1.385 . S
H247 C245 0.950 . S
H248 C232 0.951 . S
H249 C234 0.951 . S
H250 C236 0.951 . S
H251 C237 0.950 . S
H252 C238 0.950 1_655 S
H253 C239 0.950 . S
H254 C241 0.950 . S
H255 C242 0.951 . S
C75 C41 1.255 . S
C65 C7 1.541 . S
C99 C61 1.503 . S
C89 C34 1.520 . S
C123 C40 1.526 . S
C113 C14 1.503 . S
C147 C62 1.545 . S
C137 C26 1.478 . S
C171 C54 1.440 . S
C161 C8 1.494 . S
C195 C47 1.520 . S
C185 C32 1.486 . S
C219 C55 1.256 . S
C209 C16 1.485 . S
C233 C25 1.500 . S
C243 C48 1.542 . S
