# Generated by pormake.
# Topology pyr, (3,6)-cn, num edge types: 1
# Building blocks:
#     Node 0, Type 0, BuildingBlock: BETDIP_clean_linker_0, # of connection points: 3
#     Node 1, Type 0, BuildingBlock: BETDIP_clean_linker_0, # of connection points: 3
#     Node 2, Type 0, BuildingBlock: BETDIP_clean_linker_0, # of connection points: 3
#     Node 3, Type 0, BuildingBlock: BETDIP_clean_linker_0, # of connection points: 3
#     Node 4, Type 0, BuildingBlock: BETDIP_clean_linker_0, # of connection points: 3
#     Node 5, Type 0, BuildingBlock: BETDIP_clean_linker_0, # of connection points: 3
#     Node 6, Type 0, BuildingBlock: BETDIP_clean_linker_0, # of connection points: 3
#     Node 7, Type 0, BuildingBlock: BETDIP_clean_linker_0, # of connection points: 3
#     Node 8, Type 1, BuildingBlock: BETDEL_clean_sbu_0, # of connection points: 6
#     Node 9, Type 1, BuildingBlock: BETDEL_clean_sbu_0, # of connection points: 6
#     Node 10, Type 1, BuildingBlock: BETDEL_clean_sbu_0, # of connection points: 6
#     Node 11, Type 1, BuildingBlock: BETDEL_clean_sbu_0, # of connection points: 6
#     Edge 12, Type (0, 1), None
#     Edge 13, Type (0, 1), None
#     Edge 14, Type (0, 1), None
#     Edge 15, Type (0, 1), None
#     Edge 16, Type (0, 1), None
#     Edge 17, Type (0, 1), None
#     Edge 18, Type (0, 1), None
#     Edge 19, Type (0, 1), None
#     Edge 20, Type (0, 1), None
#     Edge 21, Type (0, 1), None
#     Edge 22, Type (0, 1), None
#     Edge 23, Type (0, 1), None
#     Edge 24, Type (0, 1), None
#     Edge 25, Type (0, 1), None
#     Edge 26, Type (0, 1), None
#     Edge 27, Type (0, 1), None
#     Edge 28, Type (0, 1), None
#     Edge 29, Type (0, 1), None
#     Edge 30, Type (0, 1), None
#     Edge 31, Type (0, 1), None
#     Edge 32, Type (0, 1), None
#     Edge 33, Type (0, 1), None
#     Edge 34, Type (0, 1), None
#     Edge 35, Type (0, 1), None
# Relax obj value: 0.095
# Max RMSD: 0.162
# Mean RMSD: 0.122
data_MOF--net-pyr--node1-BETDEL_clean_sbu_0--node2-BETDIP_clean_linker_0--edge1-none
_symmetry_space_group_name_H-M    P1
_symmetry_Int_Tables_number       1
_symmetry_cell_setting            triclinic
loop_
_symmetry_equiv_pos_as_xyz
'x, y, z'
_cell_length_a     15.630372
_cell_length_b     16.479896
_cell_length_c     16.75674
_cell_angle_alpha  94.048588
_cell_angle_beta   84.631774
_cell_angle_gamma 106.63696
loop_
_atom_site_label
_atom_site_type_symbol
_atom_site_fract_x
_atom_site_fract_y
_atom_site_fract_z
_atom_type_partial_charge
H0 H 0.05636 0.1335 0.18143 0.0
H1 H 0.26839 0.16673 0.99418 0.0
H2 H 0.2994 0.07307 0.2195 0.0
H3 H 0.20819 0.27221 0.95882 0.0
C4 C 0.14732 0.26759 0.99741 0.0
C5 C 0.12251 0.1289 0.15981 0.0
C6 C 0.17414 0.10084 0.2092 0.0
C7 C 0.15725 0.156 0.08396 0.0
C8 C 0.24244 0.14971 0.0548 0.0
C9 C 0.29355 0.11966 0.10408 0.0
C10 C 0.26028 0.09733 0.18195 0.0
N11 N 0.10706 0.19514 0.0419 0.0
H12 H 0.26051 0.95411 0.742 0.0
H13 H 0.23655 0.73016 0.5868 0.0
H14 H 0.43962 0.80247 0.75512 0.0
H15 H 0.27625 0.98435 0.58749 0.0
C16 C 0.20635 0.94797 0.58465 0.0
C17 C 0.28113 0.89781 0.72314 0.0
C18 C 0.35501 0.88408 0.75482 0.0
C19 C 0.23747 0.84207 0.66261 0.0
C20 C 0.26665 0.77057 0.6365 0.0
C21 C 0.34073 0.75697 0.66964 0.0
C22 C 0.3824 0.81274 0.72976 0.0
N23 N 0.17695 0.86699 0.61823 0.0
H24 H 0.76273 0.52399 0.85917 0.0
H25 H 0.53862 0.30369 0.83645 0.0
H26 H 0.75467 0.29519 0.97587 0.0
H27 H 0.61899 0.37402 0.693 0.0
C28 C 0.59832 0.43088 0.71092 0.0
C29 C 0.729 0.45919 0.87431 0.0
C30 C 0.77067 0.41569 0.92157 0.0
C31 C 0.64654 0.41886 0.84204 0.0
C32 C 0.60246 0.33387 0.86085 0.0
C33 C 0.63925 0.28769 0.91014 0.0
C34 C 0.7247 0.32939 0.93901 0.0
N35 N 0.61109 0.46239 0.78696 0.0
H36 H 0.71781 0.54348 0.3503 0.0
H37 H 0.9742 0.73451 0.31808 0.0
H38 H 0.77584 0.77366 0.49794 0.0
H39 H 0.9684 0.67472 0.19424 0.0
C40 C 0.93847 0.607 0.19931 0.0
C41 C 0.76337 0.60421 0.36663 0.0
C42 C 0.73674 0.6561 0.42958 0.0
C43 C 0.84865 0.63231 0.32327 0.0
C44 C 0.90728 0.71228 0.34668 0.0
C45 C 0.8808 0.76202 0.41079 0.0
C46 C 0.79605 0.73365 0.44991 0.0
N47 N 0.87498 0.57836 0.25961 0.0
H48 H 0.76747 0.92633 0.03937 0.0
H49 H 0.95377 0.88291 0.8466 0.0
H50 H 0.73022 0.96617 0.79548 0.0
H51 H 0.05125 0.91383 0.95909 0.0
C52 C 0.99779 0.86167 0.98376 0.0
C53 C 0.78838 0.92418 0.97588 0.0
C54 C 0.73966 0.94739 0.91961 0.0
C55 C 0.86504 0.89945 0.95018 0.0
C56 C 0.89355 0.90016 0.86821 0.0
C57 C 0.84548 0.92446 0.81307 0.0
C58 C 0.76649 0.94503 0.83815 0.0
N59 N 0.91288 0.87391 0.00673 0.0
H60 H 0.7391 0.07506 0.29759 0.0
H61 H 0.70341 0.24648 0.495 0.0
H62 H 0.65437 0.29357 0.25705 0.0
H63 H 0.90104 0.15764 0.4075 0.0
C64 C 0.85309 0.10891 0.44225 0.0
C65 C 0.72541 0.13388 0.31965 0.0
C66 C 0.69458 0.18144 0.26895 0.0
C67 C 0.73211 0.15897 0.40085 0.0
C68 C 0.70507 0.23042 0.43116 0.0
C69 C 0.67621 0.27811 0.37817 0.0
C70 C 0.67789 0.2568 0.29697 0.0
N71 N 0.76237 0.10976 0.45175 0.0
H72 H 0.28802 0.59207 0.19119 0.0
H73 H 0.50098 0.82319 0.2139 0.0
H74 H 0.31944 0.79288 0.02843 0.0
H75 H 0.43894 0.55906 0.23848 0.0
C76 C 0.43752 0.60043 0.2918 0.0
C77 C 0.32487 0.65367 0.16941 0.0
C78 C 0.29441 0.68559 0.10437 0.0
C79 C 0.39863 0.70353 0.21051 0.0
C80 C 0.44438 0.7851 0.18262 0.0
C81 C 0.41808 0.81812 0.11556 0.0
C82 C 0.34152 0.7681 0.07856 0.0
N83 N 0.4222 0.67649 0.28382 0.0
H84 H 0.04959 0.26913 0.71822 0.0
H85 H 0.28921 0.47925 0.67973 0.0
H86 H 0.24043 0.25802 0.52059 0.0
H87 H 0.20963 0.55344 0.7589 0.0
C88 C 0.157 0.51231 0.79655 0.0
C89 C 0.11211 0.29832 0.68435 0.0
C90 C 0.13972 0.2551 0.6158 0.0
C91 C 0.16326 0.38109 0.7074 0.0
C92 C 0.24615 0.41789 0.66203 0.0
C93 C 0.2744 0.37218 0.59455 0.0
C94 C 0.21945 0.29296 0.57244 0.0
N95 N 0.12888 0.42344 0.77593 0.0
Dy96 Dy 0.06962 0.03092 0.43771 0.0
C97 C 0.88399 0.93874 0.73153 0.0
C98 C 0.13748 0.07536 0.28909 0.0
Dy99 Dy 0.95866 0.98427 0.58467 0.0
O100 O 0.1818 0.05491 0.34217 0.0
O101 O 0.05625 0.07134 0.31687 0.0
O102 O 0.19218 0.04281 0.49781 0.0
O103 O 0.0745 0.9437 0.52945 0.0
C104 C 0.15609 0.97864 0.54202 0.0
C105 C 0.88422 0.05881 0.48358 0.0
O106 O 0.045 0.10975 0.63145 0.0
O107 O 0.09525 0.15727 0.50453 0.0
O108 O 0.83964 0.94597 0.67232 0.0
O109 O 0.9692 0.95709 0.71107 0.0
O110 O 0.83701 0.99966 0.52965 0.0
O111 O 0.96476 0.07692 0.49708 0.0
O112 O 0.98209 0.90416 0.39484 0.0
O113 O 0.93093 0.85744 0.52135 0.0
C114 C 0.08911 0.17099 0.58376 0.0
C115 C 0.9379 0.84336 0.44276 0.0
Dy116 Dy 0.56467 0.07018 0.06914 0.0
C117 C 0.40657 0.94326 0.8132 0.0
C118 C 0.65891 0.14533 0.19383 0.0
Dy119 Dy 0.48927 0.02921 0.94152 0.0
O120 O 0.64639 0.06697 0.17067 0.0
O121 O 0.61613 0.18137 0.1515 0.0
O122 O 0.55252 0.93949 0.1063 0.0
O123 O 0.44348 0.95816 0.05375 0.0
C124 C 0.47308 0.90342 0.08436 0.0
C125 C 0.58483 0.19754 0.93068 0.0
O126 O 0.36785 0.04683 0.00772 0.0
O127 O 0.44937 0.124 0.1063 0.0
O128 O 0.38006 1.00079 0.85623 0.0
O129 O 0.48031 0.93663 0.83726 0.0
O130 O 0.5062 0.1626 0.90615 0.0
O131 O 0.61239 0.13997 0.9577 0.0
O132 O 0.68172 0.0466 -0.00023 0.0
O133 O 0.58949 0.95616 0.91691 0.0
C134 C 0.37426 0.09888 0.07046 0.0
C135 C 0.66761 0.98394 0.94646 0.0
Dy136 Dy 0.52277 0.4373 0.46052 0.0
C137 C 0.38603 0.69435 0.63572 0.0
C138 C 0.62666 0.3385 0.40526 0.0
Dy139 Dy 0.48638 0.59888 0.56065 0.0
O140 O 0.55781 0.34498 0.37011 0.0
O141 O 0.64051 0.38783 0.46903 0.0
O142 O 0.39064 0.34428 0.49618 0.0
O143 O 0.42014 0.46716 0.54252 0.0
C144 C 0.36189 0.39694 0.54609 0.0
C145 C 0.64799 0.63669 0.47599 0.0
O146 O 0.53106 0.53246 0.66003 0.0
O147 O 0.57414 0.42815 0.57803 0.0
O148 O 0.46522 0.69447 0.65445 0.0
O149 O 0.36066 0.64076 0.57608 0.0
O150 O 0.62021 0.69136 0.52426 0.0
O151 O 0.5878 0.56795 0.47982 0.0
O152 O 0.49021 0.50608 0.36007 0.0
O153 O 0.4481 0.61633 0.43483 0.0
C154 C 0.56677 0.46704 0.64897 0.0
C155 C 0.45916 0.57409 0.36501 0.0
Dy156 Dy 0.04684 0.46775 0.02582 0.0
C157 C 1.00695 0.78406 0.97629 0.0
C158 C 0.11414 0.33341 0.00814 0.0
Dy159 Dy 0.03505 0.62978 0.97337 0.0
O160 O 0.04563 0.33734 0.05759 0.0
O161 O 0.1476 0.40325 0.97144 0.0
O162 O 0.94931 0.47152 0.13637 0.0
O163 O 0.03446 0.58327 0.09008 0.0
C164 C 0.96992 0.55422 0.14057 0.0
C165 C 0.11744 0.54981 0.8582 0.0
O166 O 0.15946 0.67996 0.04071 0.0
O167 O 0.18153 0.55213 0.06576 0.0
O168 O 0.07761 0.7661 0.94268 0.0
O169 O 0.94754 0.71653 0.00195 0.0
O170 O 0.13594 0.63148 0.86876 0.0
O171 O 0.05044 0.51449 0.90516 0.0
O172 O 0.91286 0.41504 0.97315 0.0
O173 O 0.89457 0.54523 0.94797 0.0
C174 C 0.20976 0.63654 0.06673 0.0
C175 C 0.8629 0.4607 0.94996 0.0
loop_
_geom_bond_atom_site_label_1
_geom_bond_atom_site_label_2
_geom_bond_distance
_geom_bond_site_symmetry_2
_ccdc_geom_bond_type
H0 C5 0.930 . S
H1 C8 0.930 . S
H2 C10 0.930 . S
H3 C4 1.016 . S
C4 H3 1.016 . S
C4 N11 1.286 . S
C5 H0 0.930 . S
C5 C6 1.397 . S
C5 C7 1.361 . S
C6 C5 1.397 . S
C6 C10 1.390 . S
C7 C5 1.361 . S
C7 C8 1.393 . S
C7 N11 1.413 . S
C8 H1 0.930 . S
C8 C7 1.393 . S
C8 C9 1.399 . S
C9 C8 1.399 . S
C9 C10 1.381 . S
C10 H2 0.930 . S
C10 C6 1.390 . S
C10 C9 1.381 . S
N11 C4 1.286 . S
N11 C7 1.413 . S
H12 C17 0.930 . S
H13 C20 0.930 . S
H14 C22 0.930 . S
H15 C16 1.016 . S
C16 H15 1.016 . S
C16 N23 1.286 . S
C17 H12 0.930 . S
C17 C18 1.397 . S
C17 C19 1.361 . S
C18 C17 1.397 . S
C18 C22 1.390 . S
C19 C17 1.361 . S
C19 C20 1.393 . S
C19 N23 1.413 . S
C20 H13 0.930 . S
C20 C19 1.393 . S
C20 C21 1.399 . S
C21 C20 1.399 . S
C21 C22 1.381 . S
C22 H14 0.930 . S
C22 C18 1.390 . S
C22 C21 1.381 . S
N23 C16 1.286 . S
N23 C19 1.413 . S
H24 C29 0.930 . S
H25 C32 0.930 . S
H26 C34 0.930 . S
H27 C28 1.016 . S
C28 H27 1.016 . S
C28 N35 1.286 . S
C29 H24 0.930 . S
C29 C30 1.397 . S
C29 C31 1.361 . S
C30 C29 1.397 . S
C30 C34 1.390 . S
C31 C29 1.361 . S
C31 C32 1.393 . S
C31 N35 1.413 . S
C32 H25 0.930 . S
C32 C31 1.393 . S
C32 C33 1.399 . S
C33 C32 1.399 . S
C33 C34 1.381 . S
C34 H26 0.930 . S
C34 C30 1.390 . S
C34 C33 1.381 . S
N35 C28 1.286 . S
N35 C31 1.413 . S
H36 C41 0.930 . S
H37 C44 0.930 . S
H38 C46 0.930 . S
H39 C40 1.016 . S
C40 H39 1.016 . S
C40 N47 1.286 . S
C41 H36 0.930 . S
C41 C42 1.397 . S
C41 C43 1.361 . S
C42 C41 1.397 . S
C42 C46 1.390 . S
C43 C41 1.361 . S
C43 C44 1.393 . S
C43 N47 1.413 . S
C44 H37 0.930 . S
C44 C43 1.393 . S
C44 C45 1.399 . S
C45 C44 1.399 . S
C45 C46 1.381 . S
C46 H38 0.930 . S
C46 C42 1.390 . S
C46 C45 1.381 . S
N47 C40 1.286 . S
N47 C43 1.413 . S
H48 C53 0.930 . S
H49 C56 0.930 . S
H50 C58 0.930 . S
H51 C52 1.016 . S
C52 H51 1.016 . S
C52 N59 1.286 . S
C53 H48 0.930 . S
C53 C54 1.397 . S
C53 C55 1.361 . S
C54 C53 1.397 . S
C54 C58 1.390 . S
C55 C53 1.361 . S
C55 C56 1.393 . S
C55 N59 1.413 . S
C56 H49 0.930 . S
C56 C55 1.393 . S
C56 C57 1.399 . S
C57 C56 1.399 . S
C57 C58 1.381 . S
C58 H50 0.930 . S
C58 C54 1.390 . S
C58 C57 1.381 . S
N59 C52 1.286 . S
N59 C55 1.413 . S
H60 C65 0.930 . S
H61 C68 0.930 . S
H62 C70 0.930 . S
H63 C64 1.016 . S
C64 H63 1.016 . S
C64 N71 1.286 . S
C65 H60 0.930 . S
C65 C66 1.397 . S
C65 C67 1.361 . S
C66 C65 1.397 . S
C66 C70 1.390 . S
C67 C65 1.361 . S
C67 C68 1.393 . S
C67 N71 1.413 . S
C68 H61 0.930 . S
C68 C67 1.393 . S
C68 C69 1.399 . S
C69 C68 1.399 . S
C69 C70 1.381 . S
C70 H62 0.930 . S
C70 C66 1.390 . S
C70 C69 1.381 . S
N71 C64 1.286 . S
N71 C67 1.413 . S
H72 C77 0.930 . S
H73 C80 0.930 . S
H74 C82 0.930 . S
H75 C76 1.016 . S
C76 H75 1.016 . S
C76 N83 1.286 . S
C77 H72 0.930 . S
C77 C78 1.397 . S
C77 C79 1.361 . S
C78 C77 1.397 . S
C78 C82 1.390 . S
C79 C77 1.361 . S
C79 C80 1.393 . S
C79 N83 1.413 . S
C80 H73 0.930 . S
C80 C79 1.393 . S
C80 C81 1.399 . S
C81 C80 1.399 . S
C81 C82 1.381 . S
C82 H74 0.930 . S
C82 C78 1.390 . S
C82 C81 1.381 . S
N83 C76 1.286 . S
N83 C79 1.413 . S
H84 C89 0.930 . S
H85 C92 0.930 . S
H86 C94 0.930 . S
H87 C88 1.016 . S
C88 H87 1.016 . S
C88 N95 1.286 . S
C89 H84 0.930 . S
C89 C90 1.397 . S
C89 C91 1.361 . S
C90 C89 1.397 . S
C90 C94 1.390 . S
C91 C89 1.361 . S
C91 C92 1.393 . S
C91 N95 1.413 . S
C92 H85 0.930 . S
C92 C91 1.393 . S
C92 C93 1.399 . S
C93 C92 1.399 . S
C93 C94 1.381 . S
C94 H86 0.930 . S
C94 C90 1.390 . S
C94 C93 1.381 . S
N95 C88 1.286 . S
N95 C91 1.413 . S
Dy96 O100 2.398 . S
Dy96 O101 2.491 . S
Dy96 O102 2.403 1_545 S
Dy96 O103 2.664 1_545 S
Dy96 O107 2.326 . S
Dy96 O111 2.310 1_455 S
Dy96 O112 2.351 1_445 S
C97 O108 1.185 . S
C97 O109 1.355 . S
C98 O100 1.185 . S
C98 O101 1.355 . S
Dy99 O103 2.310 1_655 S
Dy99 O106 2.351 1_665 S
Dy99 O108 2.398 . S
Dy99 O109 2.491 . S
Dy99 O110 2.403 1_565 S
Dy99 O111 2.664 1_565 S
Dy99 O113 2.326 . S
O100 Dy96 2.398 . S
O100 C98 1.185 . S
O101 Dy96 2.491 . S
O101 C98 1.355 . S
O102 Dy96 2.403 1_565 S
O102 C104 1.254 . S
O103 Dy96 2.664 1_565 S
O103 Dy99 2.310 1_455 S
O103 C104 1.268 . S
C104 O102 1.254 . S
C104 O103 1.268 . S
C105 O110 1.254 . S
C105 O111 1.268 . S
O106 Dy99 2.351 1_445 S
O106 C114 1.249 . S
O107 Dy96 2.326 . S
O107 C114 1.267 . S
O108 C97 1.185 . S
O108 Dy99 2.398 . S
O109 C97 1.355 . S
O109 Dy99 2.491 . S
O110 Dy99 2.403 1_545 S
O110 C105 1.254 . S
O111 Dy96 2.310 1_655 S
O111 Dy99 2.664 1_545 S
O111 C105 1.268 . S
O112 Dy96 2.351 1_665 S
O112 C115 1.249 . S
O113 Dy99 2.326 . S
O113 C115 1.267 . S
C114 O106 1.249 . S
C114 O107 1.267 . S
C115 O112 1.249 . S
C115 O113 1.267 . S
Dy116 O120 2.398 . S
Dy116 O121 2.491 . S
Dy116 O122 2.403 1_545 S
Dy116 O123 2.664 1_545 S
Dy116 O127 2.326 . S
Dy116 O131 2.310 1_554 S
Dy116 O132 2.351 1_544 S
C117 O128 1.185 . S
C117 O129 1.355 . S
C118 O120 1.185 . S
C118 O121 1.355 . S
Dy119 O123 2.310 1_546 S
Dy119 O126 2.351 1_556 S
Dy119 O128 2.398 1_545 S
Dy119 O129 2.491 1_545 S
Dy119 O130 2.403 . S
Dy119 O131 2.664 . S
Dy119 O133 2.326 1_545 S
O120 Dy116 2.398 . S
O120 C118 1.185 . S
O121 Dy116 2.491 . S
O121 C118 1.355 . S
O122 Dy116 2.403 1_565 S
O122 C124 1.254 . S
O123 Dy116 2.664 1_565 S
O123 Dy119 2.310 1_564 S
O123 C124 1.268 . S
C124 O122 1.254 . S
C124 O123 1.268 . S
C125 O130 1.254 . S
C125 O131 1.268 . S
O126 Dy119 2.351 1_554 S
O126 C134 1.249 . S
O127 Dy116 2.326 . S
O127 C134 1.267 . S
O128 C117 1.185 . S
O128 Dy119 2.398 1_565 S
O129 C117 1.355 . S
O129 Dy119 2.491 1_565 S
O130 Dy119 2.403 . S
O130 C125 1.254 . S
O131 Dy116 2.310 1_556 S
O131 Dy119 2.664 . S
O131 C125 1.268 . S
O132 Dy116 2.351 1_566 S
O132 C135 1.249 . S
O133 Dy119 2.326 1_565 S
O133 C135 1.267 . S
C134 O126 1.249 . S
C134 O127 1.267 . S
C135 O132 1.249 . S
C135 O133 1.267 . S
Dy136 O140 2.398 . S
Dy136 O141 2.491 . S
Dy136 O142 2.403 . S
Dy136 O143 2.664 . S
Dy136 O147 2.326 . S
Dy136 O151 2.310 . S
Dy136 O152 2.351 . S
C137 O148 1.185 . S
C137 O149 1.355 . S
C138 O140 1.185 . S
C138 O141 1.355 . S
Dy139 O143 2.310 . S
Dy139 O146 2.351 . S
Dy139 O148 2.398 . S
Dy139 O149 2.491 . S
Dy139 O150 2.403 . S
Dy139 O151 2.664 . S
Dy139 O153 2.326 . S
O140 Dy136 2.398 . S
O140 C138 1.185 . S
O141 Dy136 2.491 . S
O141 C138 1.355 . S
O142 Dy136 2.403 . S
O142 C144 1.254 . S
O143 Dy136 2.664 . S
O143 Dy139 2.310 . S
O143 C144 1.268 . S
C144 O142 1.254 . S
C144 O143 1.268 . S
C145 O150 1.254 . S
C145 O151 1.268 . S
O146 Dy139 2.351 . S
O146 C154 1.249 . S
O147 Dy136 2.326 . S
O147 C154 1.267 . S
O148 C137 1.185 . S
O148 Dy139 2.398 . S
O149 C137 1.355 . S
O149 Dy139 2.491 . S
O150 Dy139 2.403 . S
O150 C145 1.254 . S
O151 Dy136 2.310 . S
O151 Dy139 2.664 . S
O151 C145 1.268 . S
O152 Dy136 2.351 . S
O152 C155 1.249 . S
O153 Dy139 2.326 . S
O153 C155 1.267 . S
C154 O146 1.249 . S
C154 O147 1.267 . S
C155 O152 1.249 . S
C155 O153 1.267 . S
Dy156 O160 2.398 . S
Dy156 O161 2.491 . S
Dy156 O162 2.403 1_455 S
Dy156 O163 2.664 1_455 S
Dy156 O167 2.326 . S
Dy156 O171 2.310 1_554 S
Dy156 O172 2.351 1_454 S
C157 O168 1.185 . S
C157 O169 1.355 . S
C158 O160 1.185 . S
C158 O161 1.355 . S
Dy159 O163 2.310 1_456 S
Dy159 O166 2.351 1_556 S
Dy159 O168 2.398 1_455 S
Dy159 O169 2.491 1_455 S
Dy159 O170 2.403 . S
Dy159 O171 2.664 . S
Dy159 O173 2.326 1_455 S
O160 Dy156 2.398 . S
O160 C158 1.185 . S
O161 Dy156 2.491 . S
O161 C158 1.355 . S
O162 Dy156 2.403 1_655 S
O162 C164 1.254 . S
O163 Dy156 2.664 1_655 S
O163 Dy159 2.310 1_654 S
O163 C164 1.268 . S
C164 O162 1.254 . S
C164 O163 1.268 . S
C165 O170 1.254 . S
C165 O171 1.268 . S
O166 Dy159 2.351 1_554 S
O166 C174 1.249 . S
O167 Dy156 2.326 . S
O167 C174 1.267 . S
O168 C157 1.185 . S
O168 Dy159 2.398 1_655 S
O169 C157 1.355 . S
O169 Dy159 2.491 1_655 S
O170 Dy159 2.403 . S
O170 C165 1.254 . S
O171 Dy156 2.310 1_556 S
O171 Dy159 2.664 . S
O171 C165 1.268 . S
O172 Dy156 2.351 1_656 S
O172 C175 1.249 . S
O173 Dy159 2.326 1_655 S
O173 C175 1.267 . S
C174 O166 1.249 . S
C174 O167 1.267 . S
C175 O172 1.249 . S
C175 O173 1.267 . S
C6 C98 1.442 . S
C18 C117 1.354 . S
C154 C28 2.177 . S
C40 C164 1.539 . S
C134 C9 2.122 . S
C104 C16 1.269 . S
C175 C30 1.742 . S
C145 C42 1.267 . S
C4 C158 1.993 . S
C125 C33 2.197 . S
C45 C115 1.829 . S
C21 C137 1.294 . S
C97 C57 1.447 . S
C66 C118 1.419 . S
C76 C155 2.257 . S
C88 C165 1.393 . S
C54 C135 2.105 . S
C105 C64 1.411 . S
C174 C78 1.609 . S
C144 C93 1.295 . S
C52 C157 1.918 . S
C124 C81 2.162 . S
C114 C90 1.875 . S
C69 C138 1.297 . S
