# Generated by pormake.
# Topology tsx, (6,3)-cn, num edge types: 1
# Building blocks:
#     Node 0, Type 0, BuildingBlock: MIDCAF_clean_sbu_0, # of connection points: 6
#     Node 1, Type 0, BuildingBlock: MIDCAF_clean_sbu_0, # of connection points: 6
#     Node 2, Type 1, BuildingBlock: BETDAH_clean_linker_0, # of connection points: 3
#     Node 3, Type 1, BuildingBlock: BETDAH_clean_linker_0, # of connection points: 3
#     Node 4, Type 1, BuildingBlock: BETDAH_clean_linker_0, # of connection points: 3
#     Node 5, Type 1, BuildingBlock: BETDAH_clean_linker_0, # of connection points: 3
#     Edge 6, Type (0, 1), BuildingBlock: OJICUG_clean_linker_0, # of connection points: 2
#     Edge 7, Type (0, 1), BuildingBlock: OJICUG_clean_linker_0, # of connection points: 2
#     Edge 8, Type (0, 1), BuildingBlock: OJICUG_clean_linker_0, # of connection points: 2
#     Edge 9, Type (0, 1), BuildingBlock: OJICUG_clean_linker_0, # of connection points: 2
#     Edge 10, Type (0, 1), BuildingBlock: OJICUG_clean_linker_0, # of connection points: 2
#     Edge 11, Type (0, 1), BuildingBlock: OJICUG_clean_linker_0, # of connection points: 2
#     Edge 12, Type (0, 1), BuildingBlock: OJICUG_clean_linker_0, # of connection points: 2
#     Edge 13, Type (0, 1), BuildingBlock: OJICUG_clean_linker_0, # of connection points: 2
#     Edge 14, Type (0, 1), BuildingBlock: OJICUG_clean_linker_0, # of connection points: 2
#     Edge 15, Type (0, 1), BuildingBlock: OJICUG_clean_linker_0, # of connection points: 2
#     Edge 16, Type (0, 1), BuildingBlock: OJICUG_clean_linker_0, # of connection points: 2
#     Edge 17, Type (0, 1), BuildingBlock: OJICUG_clean_linker_0, # of connection points: 2
# Relax obj value: 0.077
# Max RMSD: 0.147
# Mean RMSD: 0.105
data_MOF--net-tsx--node1-MIDCAF_clean_sbu_0--node2-BETDAH_clean_linker_0--edge1-OJICUG_clean_linker_0
_symmetry_space_group_name_H-M    P1
_symmetry_Int_Tables_number       1
_symmetry_cell_setting            triclinic
loop_
_symmetry_equiv_pos_as_xyz
'x, y, z'
_cell_length_a     14.430662
_cell_length_b     15.318748
_cell_length_c     25.592515
_cell_angle_alpha  92.062072
_cell_angle_beta   105.25254
_cell_angle_gamma 90.033228
loop_
_atom_site_label
_atom_site_type_symbol
_atom_site_fract_x
_atom_site_fract_y
_atom_site_fract_z
_atom_type_partial_charge
Zn0 Zn 0.02178 0.84591 0.94312 0.0
Zn1 Zn 0.28343 0.92887 0.06789 0.0
Zn2 Zn 0.12672 0.9146 0.01234 0.0
C3 C 0.23118 0.09241 0.02144 0.0
C4 C 0.29104 0.78576 0.00143 0.0
O5 O 0.02566 0.84582 0.04671 0.0
O6 O 0.0308 0.73873 0.98815 0.0
C7 C 0.9483 0.01112 0.96068 0.0
O8 O 0.14949 0.05373 0.002 0.0
O9 O 0.30342 0.04959 0.0461 0.0
O10 O 0.34624 0.82552 0.04189 0.0
O11 O 0.205 0.81187 0.98361 0.0
O12 O 0.91643 0.93351 0.95067 0.0
O13 O 0.04021 0.02316 0.97387 0.0
O14 O 0.11235 -0.00075 0.94257 0.0
O15 O 0.10133 0.8805 0.89053 0.0
C16 C 0.11752 0.96216 0.89747 0.0
O17 O 0.09073 0.91524 0.089 0.0
O18 O 0.24118 0.93157 0.13653 0.0
C19 C 1.0092 0.76539 0.03092 0.0
C20 C 0.15259 0.92957 0.13453 0.0
Zn21 Zn 0.73265 0.60801 0.54485 0.0
Zn22 Zn 0.40419 0.56489 0.45587 0.0
Zn23 Zn 0.559 0.59031 0.50303 0.0
C24 C 0.49241 0.57511 0.37649 0.0
C25 C 0.3978 0.72138 0.50529 0.0
O26 O 0.57893 0.52566 0.57905 0.0
O27 O 0.72397 0.57746 0.61908 0.0
C28 C 0.72662 0.48817 0.46296 0.0
O29 O 0.55857 0.55259 0.41826 0.0
O30 O 0.41206 0.59803 0.38285 0.0
O31 O 0.34782 0.65217 0.49811 0.0
O32 O 0.48477 0.71708 0.50109 0.0
O33 O 0.78681 0.51851 0.50475 0.0
O34 O 0.63895 0.51542 0.45161 0.0
O35 O 0.58799 0.73202 0.52194 0.0
O36 O 0.74372 0.7326 0.52936 0.0
C37 C 0.66726 0.77401 0.52688 0.0
O38 O 0.48917 0.4944 0.54505 0.0
O39 O 0.39125 0.43946 0.47011 0.0
C40 C 0.6493 0.53652 0.62168 0.0
C41 C 0.42915 0.43449 0.52025 0.0
H42 H 0.20849 0.96259 0.36745 0.0
H43 H 0.92712 0.07348 0.31807 0.0
H44 H 0.04791 0.01097 0.48478 0.0
C45 C 0.14635 0.98999 0.37816 0.0
C46 C 0.14046 0.98718 0.4318 0.0
C47 C 0.06994 0.01962 0.33687 0.0
C48 C 0.98693 0.05088 0.34974 0.0
C49 C 0.98011 0.04984 0.40356 0.0
C50 C 0.05571 0.0158 0.44405 0.0
N51 N 0.89459 0.07582 0.41676 0.0
C52 C 0.85711 0.15917 0.4076 0.0
H53 H 0.8905 0.05985 0.69598 0.0
H54 H 0.15603 0.14952 0.67176 0.0
H55 H 0.92441 0.08366 0.53396 0.0
C56 C 0.9306 0.07765 0.66778 0.0
C57 C 0.8915 0.06509 0.61125 0.0
C58 C 0.0265 0.10482 0.68963 0.0
C59 C 0.08152 0.1304 0.65501 0.0
C60 C 0.04154 0.12607 0.59873 0.0
C61 C 0.94854 0.09217 0.57745 0.0
N62 N 0.09502 0.14738 0.56163 0.0
C63 C 0.18037 0.19511 0.57416 0.0
H64 H 0.75303 0.32121 0.83175 0.0
H65 H 0.49778 0.46787 0.83043 0.0
H66 H 0.59398 0.2728 0.94831 0.0
C67 C 0.69458 0.33781 0.84949 0.0
C68 C 0.68364 0.29192 0.89396 0.0
C69 C 0.62686 0.4002 0.82549 0.0
C70 C 0.55016 0.41934 0.84816 0.0
C71 C 0.53851 0.37326 0.89238 0.0
C72 C 0.60418 0.30878 0.91449 0.0
N73 N 0.45874 0.38779 0.9137 0.0
C74 C 0.42388 0.47058 0.92056 0.0
H75 H 0.36374 0.45983 0.14594 0.0
H76 H 0.64844 0.55296 0.15509 0.0
H77 H 0.50667 0.37693 0.02485 0.0
C78 C 0.42422 0.46246 0.12844 0.0
C79 C 0.42264 0.41215 0.08113 0.0
C80 C 0.50659 0.51037 0.15642 0.0
C81 C 0.5849 0.51598 0.13372 0.0
C82 C 0.58238 0.47048 0.08471 0.0
C83 C 0.50296 0.41721 0.0598 0.0
N84 N 0.66089 0.47143 0.06105 0.0
C85 C 0.73481 0.53319 0.07297 0.0
C86 C 0.24904 0.22527 0.0782 0.0
C87 C 0.24082 0.18752 0.02651 0.0
H88 H 0.3153 0.3226 0.13698 0.0
C89 C 0.27473 0.23356 0.98899 0.0
H90 H 0.22476 0.18969 0.10811 0.0
C91 C 0.32476 0.31262 0.005 0.0
C92 C 0.34546 0.34462 0.0593 0.0
H93 H 0.26996 0.20498 0.94901 0.0
H94 H 0.35293 0.34497 0.97579 0.0
C95 C 0.30172 0.30221 0.09475 0.0
C96 C 0.26198 0.65361 0.93808 0.0
C97 C 0.32586 0.70795 0.97671 0.0
H98 H 0.24394 0.53402 0.8897 0.0
C99 C 0.42343 0.68521 0.99348 0.0
H100 H 0.18643 0.66922 0.92449 0.0
C101 C 0.45591 0.60882 0.97313 0.0
C102 C 0.39149 0.55383 0.93597 0.0
H103 H 0.47461 0.72563 0.02305 0.0
H104 H 0.53093 0.59164 0.98748 0.0
C105 C 0.29464 0.57663 0.91807 0.0
C106 C 0.96166 0.6158 0.0489 0.0
C107 C 0.95229 0.70662 0.05529 0.0
H108 H 0.89913 0.48934 0.05047 0.0
C109 C 0.87693 0.73901 0.07562 0.0
H110 H 0.01895 0.58907 0.03325 0.0
C111 C 0.80761 0.68156 0.08494 0.0
C112 C 0.81421 0.59146 0.07486 0.0
H113 H 0.8673 0.80873 0.08018 0.0
H114 H 0.74631 0.70781 0.09698 0.0
C115 C 0.89326 0.55874 0.05871 0.0
C116 C 0.91584 0.17009 0.94563 0.0
C117 C 0.88157 0.0851 0.94879 0.0
H118 H 0.87931 0.30253 0.92521 0.0
C119 C 0.78203 0.07034 0.93783 0.0
H120 H 0.99218 0.18365 0.95442 0.0
C121 C 0.71785 0.13845 0.92199 0.0
C122 C 0.75196 0.22236 0.91625 0.0
H123 H 0.75348 0.00568 0.94041 0.0
H124 H 0.64142 0.12475 0.91222 0.0
C125 C 0.85147 0.23799 0.9289 0.0
C126 C 0.70274 0.92692 0.50981 0.0
C127 C 0.67895 0.86657 0.54406 0.0
H128 H 0.77883 0.04289 0.50332 0.0
C129 C 0.70345 0.88568 0.59984 0.0
H130 H 0.68412 0.9136 0.46641 0.0
C131 C 0.76469 0.95588 0.62186 0.0
C132 C 0.8014 0.01034 0.58828 0.0
H133 H 0.68625 0.8395 0.62712 0.0
H134 H 0.78917 0.9602 0.66543 0.0
C135 C 0.76065 -0.00024 0.53163 0.0
C136 C 0.854 0.39834 0.43843 0.0
C137 C 0.75569 0.41236 0.43352 0.0
H138 H 0.96307 0.30567 0.43343 0.0
C139 C 0.68968 0.3448 0.41097 0.0
H140 H 0.90663 0.44908 0.45568 0.0
C141 C 0.72249 0.26234 0.39861 0.0
C142 C 0.82131 0.24715 0.4079 0.0
H143 H 0.61372 0.3533 0.40725 0.0
H144 H 0.67119 0.2092 0.38515 0.0
C145 C 0.88648 0.31637 0.42578 0.0
C146 C 0.33284 0.39413 0.58316 0.0
C147 C 0.39061 0.36801 0.54908 0.0
H148 H 0.21986 0.35757 0.61872 0.0
C149 C 0.3885 0.28024 0.53099 0.0
H150 H 0.32997 0.46223 0.59553 0.0
C151 C 0.3251 0.22077 0.54385 0.0
C152 C 0.26261 0.24866 0.57455 0.0
H153 H 0.43047 0.25932 0.50345 0.0
H154 H 0.31966 0.15491 0.52623 0.0
C155 C 0.26916 0.33462 0.59591 0.0
C156 C 0.25618 0.80437 0.51728 0.0
C157 C 0.34769 0.80521 0.50735 0.0
H158 H 0.11777 0.86312 0.50139 0.0
C159 C 0.37867 0.88097 0.48747 0.0
H160 H 0.23107 0.74762 0.53385 0.0
C161 C 0.31368 0.94831 0.46967 0.0
C162 C 0.2169 0.94006 0.47097 0.0
H163 H 0.44918 0.88424 0.48016 0.0
H164 H 0.33623 0.00221 0.44946 0.0
C165 C 0.19116 0.87115 0.4991 0.0
C166 C 0.18532 0.01342 0.22194 0.0
C167 C 0.12339 0.95728 0.18367 0.0
H168 H 0.2139 0.08069 0.29907 0.0
C169 C 0.03516 0.9325 0.19258 0.0
H170 H 0.25244 0.03621 0.21553 0.0
C171 C 1.01306 0.95842 0.24114 0.0
C172 C 0.07832 0.01048 0.28057 0.0
H173 H 0.98548 0.89054 0.16324 0.0
H174 H 0.94792 0.9339 0.24915 0.0
C175 C 0.16272 0.04019 0.26948 0.0
C176 C 0.06309 0.09064 0.84037 0.0
C177 C 0.11743 0.01392 0.84994 0.0
H178 H 0.99015 0.18011 0.78078 0.0
C179 C 0.15632 0.97864 0.80908 0.0
H180 H 0.03163 0.11867 0.87104 0.0
C181 C 0.13509 0.01538 0.75816 0.0
C182 C 0.07266 0.08659 0.74689 0.0
H183 H 0.1982 0.91943 0.81546 0.0
H184 H 0.1604 0.98325 0.72617 0.0
C185 C 0.03941 0.12589 0.78884 0.0
C186 C 0.72661 0.49721 0.71721 0.0
C187 C 0.64344 0.50304 0.6741 0.0
H188 H 0.78641 0.46167 0.79929 0.0
C189 C 0.55464 0.47868 0.68205 0.0
H190 H 0.7962 0.51626 0.71253 0.0
C191 C 0.54902 0.44697 0.73153 0.0
C192 C 0.63231 0.43964 0.77436 0.0
H193 H 0.48933 0.48482 0.65022 0.0
H194 H 0.4796 0.42649 0.73578 0.0
C195 C 0.72112 0.46574 0.76684 0.0
C196 C 0.43237 0.60152 0.27771 0.0
C197 C 0.50531 0.5703 0.32087 0.0
H198 H 0.37698 0.6091 0.1918 0.0
C199 C 0.58609 0.5311 0.30941 0.0
H200 H 0.36983 0.63362 0.28499 0.0
C201 C 0.59019 0.51758 0.25561 0.0
C202 C 0.51369 0.54325 0.21252 0.0
H203 H 0.64398 0.50741 0.3416 0.0
H204 H 0.6503 0.48217 0.24765 0.0
C205 C 0.43648 0.58806 0.22422 0.0
loop_
_geom_bond_atom_site_label_1
_geom_bond_atom_site_label_2
_geom_bond_distance
_geom_bond_site_symmetry_2
_ccdc_geom_bond_type
Zn0 O6 1.920 1_545 S
Zn0 O12 1.898 . S
Zn0 O15 1.905 1_545 S
Zn1 O9 1.905 . S
Zn1 O10 1.898 1_545 S
Zn1 O18 1.920 1_545 S
Zn2 O5 2.080 1_444 S
Zn2 O8 2.114 . S
Zn2 O11 2.120 1_545 S
Zn2 O13 2.120 1_455 S
Zn2 O14 2.114 1_554 S
Zn2 O17 2.080 . S
C3 O8 1.166 . S
C3 O9 1.182 . S
C4 O10 1.167 . S
C4 O11 1.299 . S
O5 Zn2 2.080 1_666 S
O5 C19 1.305 . S
O6 Zn0 1.920 1_565 S
O6 C19 1.234 . S
C7 O12 1.167 . S
C7 O13 1.299 1_556 S
O8 Zn2 2.114 . S
O8 C3 1.166 . S
O9 Zn1 1.905 . S
O9 C3 1.182 . S
O10 Zn1 1.898 1_565 S
O10 C4 1.167 . S
O11 Zn2 2.120 1_565 S
O11 C4 1.299 . S
O12 Zn0 1.898 . S
O12 C7 1.167 . S
O13 Zn2 2.120 1_655 S
O13 C7 1.299 1_554 S
O14 Zn2 2.114 1_556 S
O14 C16 1.166 1_445 S
O15 Zn0 1.905 1_565 S
O15 C16 1.182 . S
C16 O14 1.166 1_665 S
C16 O15 1.182 . S
O17 Zn2 2.080 . S
O17 C20 1.305 1_545 S
O18 Zn1 1.920 1_565 S
O18 C20 1.234 . S
C19 O5 1.305 . S
C19 O6 1.234 . S
C20 O17 1.305 1_565 S
C20 O18 1.234 . S
Zn21 O27 1.920 . S
Zn21 O33 1.898 . S
Zn21 O36 1.905 . S
Zn22 O30 1.905 . S
Zn22 O31 1.898 . S
Zn22 O39 1.920 . S
Zn23 O26 2.080 . S
Zn23 O29 2.114 . S
Zn23 O32 2.120 . S
Zn23 O34 2.120 . S
Zn23 O35 2.114 . S
Zn23 O38 2.080 . S
C24 O29 1.166 . S
C24 O30 1.182 . S
C25 O31 1.167 . S
C25 O32 1.299 . S
O26 Zn23 2.080 . S
O26 C40 1.305 . S
O27 Zn21 1.920 . S
O27 C40 1.234 . S
C28 O33 1.167 . S
C28 O34 1.299 . S
O29 Zn23 2.114 . S
O29 C24 1.166 . S
O30 Zn22 1.905 . S
O30 C24 1.182 . S
O31 Zn22 1.898 . S
O31 C25 1.167 . S
O32 Zn23 2.120 . S
O32 C25 1.299 . S
O33 Zn21 1.898 . S
O33 C28 1.167 . S
O34 Zn23 2.120 . S
O34 C28 1.299 . S
O35 Zn23 2.114 . S
O35 C37 1.166 . S
O36 Zn21 1.905 . S
O36 C37 1.182 . S
C37 O35 1.166 . S
C37 O36 1.182 . S
O38 Zn23 2.080 . S
O38 C41 1.305 . S
O39 Zn22 1.920 . S
O39 C41 1.234 . S
C40 O26 1.305 . S
C40 O27 1.234 . S
C41 O38 1.305 . S
C41 O39 1.234 . S
H42 C45 0.929 . S
H43 C48 0.929 . S
H44 C50 0.930 . S
C45 H42 0.929 . S
C45 C46 1.398 . S
C45 C47 1.396 1_565 S
C46 C45 1.398 . S
C46 C50 1.407 . S
C47 C45 1.396 1_545 S
C47 C48 1.394 . S
C48 H43 0.929 . S
C48 C47 1.394 . S
C48 C49 1.382 . S
C49 C48 1.382 . S
C49 C50 1.392 1_545 S
C49 N51 1.420 . S
C50 H44 0.930 . S
C50 C46 1.407 . S
C50 C49 1.392 1_565 S
N51 C49 1.420 . S
N51 C52 1.244 1_455 S
C52 N51 1.244 1_655 S
H53 C56 0.929 . S
H54 C59 0.929 . S
H55 C61 0.930 . S
C56 H53 0.929 . S
C56 C57 1.398 . S
C56 C58 1.396 1_565 S
C57 C56 1.398 . S
C57 C61 1.407 . S
C58 C56 1.396 1_545 S
C58 C59 1.394 1_655 S
C59 H54 0.929 . S
C59 C58 1.394 1_455 S
C59 C60 1.382 . S
C60 C59 1.382 . S
C60 C61 1.392 1_445 S
C60 N62 1.420 . S
C61 H55 0.930 . S
C61 C57 1.407 . S
C61 C60 1.392 1_665 S
N62 C60 1.420 . S
N62 C63 1.244 . S
C63 N62 1.244 . S
H64 C67 0.929 . S
H65 C70 0.929 . S
H66 C72 0.930 . S
C67 H64 0.929 . S
C67 C68 1.398 . S
C67 C69 1.396 . S
C68 C67 1.398 . S
C68 C72 1.407 . S
C69 C67 1.396 . S
C69 C70 1.394 . S
C70 H65 0.929 . S
C70 C69 1.394 . S
C70 C71 1.382 . S
C71 C70 1.382 . S
C71 C72 1.392 . S
C71 N73 1.420 . S
C72 H66 0.930 . S
C72 C68 1.407 . S
C72 C71 1.392 . S
N73 C71 1.420 . S
N73 C74 1.244 . S
C74 N73 1.244 . S
H75 C78 0.929 . S
H76 C81 0.929 . S
H77 C83 0.930 . S
C78 H75 0.929 . S
C78 C79 1.398 . S
C78 C80 1.396 . S
C79 C78 1.398 . S
C79 C83 1.407 . S
C80 C78 1.396 . S
C80 C81 1.394 . S
C81 H76 0.929 . S
C81 C80 1.394 . S
C81 C82 1.382 . S
C82 C81 1.382 . S
C82 C83 1.392 . S
C82 N84 1.420 . S
C83 H77 0.930 . S
C83 C79 1.407 . S
C83 C82 1.392 . S
N84 C82 1.420 . S
N84 C85 1.244 . S
C85 N84 1.244 . S
C86 C87 1.387 . S
C86 H90 0.950 . S
C86 C95 1.390 . S
C87 C86 1.387 . S
C87 C89 1.387 1_554 S
H88 C95 0.950 . S
C89 C87 1.387 1_556 S
C89 C91 1.390 1_556 S
C89 H93 0.950 . S
H90 C86 0.950 . S
C91 C89 1.390 1_554 S
C91 C92 1.387 . S
C91 H94 0.950 1_554 S
C92 C91 1.387 . S
C92 C95 1.387 . S
H93 C89 0.950 . S
H94 C91 0.950 1_556 S
C95 C86 1.390 . S
C95 H88 0.950 . S
C95 C92 1.387 . S
C96 C97 1.387 1_554 S
C96 H100 0.950 . S
C96 C105 1.390 1_554 S
C97 C96 1.387 1_556 S
C97 C99 1.387 . S
H98 C105 0.950 1_554 S
C99 C97 1.387 . S
C99 C101 1.390 . S
C99 H103 0.950 . S
H100 C96 0.950 . S
C101 C99 1.390 . S
C101 C102 1.387 . S
C101 H104 0.950 . S
C102 C101 1.387 . S
C102 C105 1.387 . S
H103 C99 0.950 . S
H104 C101 0.950 . S
C105 C96 1.390 1_556 S
C105 H98 0.950 1_556 S
C105 C102 1.387 . S
C106 C107 1.387 1_556 S
C106 H110 0.950 . S
C106 C115 1.390 . S
C107 C106 1.387 1_554 S
C107 C109 1.387 . S
H108 C115 0.950 . S
C109 C107 1.387 . S
C109 C111 1.390 . S
C109 H113 0.950 . S
H110 C106 0.950 . S
C111 C109 1.390 . S
C111 C112 1.387 . S
C111 H114 0.950 . S
C112 C111 1.387 . S
C112 C115 1.387 1_554 S
H113 C109 0.950 . S
H114 C111 0.950 . S
C115 C106 1.390 . S
C115 H108 0.950 . S
C115 C112 1.387 1_556 S
C116 C117 1.387 . S
C116 H120 0.950 . S
C116 C125 1.390 . S
C117 C116 1.387 . S
C117 C119 1.387 1_556 S
H118 C125 0.950 . S
C119 C117 1.387 1_554 S
C119 C121 1.390 . S
C119 H123 0.950 . S
H120 C116 0.950 . S
C121 C119 1.390 . S
C121 C122 1.387 1_554 S
C121 H124 0.950 . S
C122 C121 1.387 1_556 S
C122 C125 1.387 . S
H123 C119 0.950 . S
H124 C121 0.950 . S
C125 C116 1.390 . S
C125 H118 0.950 . S
C125 C122 1.387 . S
C126 C127 1.387 . S
C126 H130 0.950 . S
C126 C135 1.390 . S
C127 C126 1.387 . S
C127 C129 1.387 . S
H128 C135 0.950 . S
C129 C127 1.387 . S
C129 C131 1.390 . S
C129 H133 0.950 . S
H130 C126 0.950 . S
C131 C129 1.390 . S
C131 C132 1.387 . S
C131 H134 0.950 . S
C132 C131 1.387 . S
C132 C135 1.387 . S
H133 C129 0.950 . S
H134 C131 0.950 . S
C135 C126 1.390 . S
C135 H128 0.950 . S
C135 C132 1.387 . S
C136 C137 1.387 . S
C136 H140 0.950 . S
C136 C145 1.390 . S
C137 C136 1.387 . S
C137 C139 1.387 . S
H138 C145 0.950 . S
C139 C137 1.387 . S
C139 C141 1.390 . S
C139 H143 0.950 . S
H140 C136 0.950 . S
C141 C139 1.390 . S
C141 C142 1.387 . S
C141 H144 0.950 . S
C142 C141 1.387 . S
C142 C145 1.387 . S
H143 C139 0.950 . S
H144 C141 0.950 . S
C145 C136 1.390 . S
C145 H138 0.950 . S
C145 C142 1.387 . S
C146 C147 1.387 . S
C146 H150 0.950 . S
C146 C155 1.390 . S
C147 C146 1.387 . S
C147 C149 1.387 . S
H148 C155 0.950 . S
C149 C147 1.387 . S
C149 C151 1.390 . S
C149 H153 0.950 . S
H150 C146 0.950 . S
C151 C149 1.390 . S
C151 C152 1.387 . S
C151 H154 0.950 . S
C152 C151 1.387 . S
C152 C155 1.387 . S
H153 C149 0.950 . S
H154 C151 0.950 . S
C155 C146 1.390 . S
C155 H148 0.950 . S
C155 C152 1.387 . S
C156 C157 1.387 . S
C156 H160 0.950 . S
C156 C165 1.390 . S
C157 C156 1.387 . S
C157 C159 1.387 . S
H158 C165 0.950 . S
C159 C157 1.387 . S
C159 C161 1.390 . S
C159 H163 0.950 . S
H160 C156 0.950 . S
C161 C159 1.390 . S
C161 C162 1.387 . S
C161 H164 0.950 . S
C162 C161 1.387 . S
C162 C165 1.387 . S
H163 C159 0.950 . S
H164 C161 0.950 . S
C165 C156 1.390 . S
C165 H158 0.950 . S
C165 C162 1.387 . S
C166 C167 1.390 . S
C166 H170 0.949 1_565 S
C166 C175 1.388 1_565 S
C167 C166 1.390 . S
C167 C169 1.387 . S
H168 C175 0.950 . S
C169 C167 1.387 . S
C169 C171 1.390 . S
C169 H173 0.950 1_455 S
H170 C166 0.949 1_545 S
C171 C169 1.390 . S
C171 C172 1.387 1_565 S
C171 H174 0.950 1_455 S
C172 C171 1.387 1_545 S
C172 C175 1.387 . S
H173 C169 0.950 1_655 S
H174 C171 0.950 1_655 S
C175 C166 1.388 1_545 S
C175 H168 0.950 . S
C175 C172 1.387 . S
C176 C177 1.387 1_645 S
C176 H180 0.950 . S
C176 C185 1.390 . S
C177 C176 1.387 1_465 S
C177 C179 1.387 . S
H178 C185 0.950 . S
C179 C177 1.387 . S
C179 C181 1.390 . S
C179 H183 0.950 . S
H180 C176 0.950 . S
C181 C179 1.390 . S
C181 C182 1.387 1_465 S
C181 H184 0.950 . S
C182 C181 1.387 1_645 S
C182 C185 1.387 . S
H183 C179 0.950 . S
H184 C181 0.950 . S
C185 C176 1.390 . S
C185 H178 0.950 . S
C185 C182 1.387 . S
C186 C187 1.387 . S
C186 H190 0.950 . S
C186 C195 1.390 . S
C187 C186 1.387 . S
C187 C189 1.387 . S
H188 C195 0.950 . S
C189 C187 1.387 . S
C189 C191 1.390 . S
C189 H193 0.950 . S
H190 C186 0.950 . S
C191 C189 1.390 . S
C191 C192 1.387 . S
C191 H194 0.950 . S
C192 C191 1.387 . S
C192 C195 1.387 . S
H193 C189 0.950 . S
H194 C191 0.950 . S
C195 C186 1.390 . S
C195 H188 0.950 . S
C195 C192 1.387 . S
C196 C197 1.387 . S
C196 H200 0.950 . S
C196 C205 1.390 . S
C197 C196 1.387 . S
C197 C199 1.387 . S
H198 C205 0.950 . S
C199 C197 1.387 . S
C199 C201 1.390 . S
C199 H203 0.950 . S
H200 C196 0.950 . S
C201 C199 1.390 . S
C201 C202 1.387 . S
C201 H204 0.950 . S
C202 C201 1.387 . S
C202 C205 1.387 . S
H203 C199 0.950 . S
H204 C201 0.950 . S
C205 C196 1.390 . S
C205 H198 0.950 . S
C205 C202 1.387 . S
C92 C79 1.376 . S
C87 C3 1.271 . S
C97 C4 1.427 1_556 S
C102 C74 1.517 . S
C107 C19 1.449 1_554 S
C112 C85 1.531 . S
C117 C7 1.271 . S
C122 C68 1.380 . S
C127 C37 1.267 . S
C132 C57 1.377 . S
C137 C28 1.431 . S
C142 C52 1.519 . S
C152 C63 1.533 . S
C147 C41 1.453 . S
C162 C46 1.381 . S
C157 C25 1.266 . S
C167 C20 1.373 . S
C172 C47 1.514 . S
C177 C16 1.410 1_455 S
C182 C58 1.549 . S
C192 C69 1.513 . S
C187 C40 1.369 . S
C197 C24 1.411 . S
C202 C80 1.549 . S
