# Generated by pormake.
# Topology ssa, (4,4)-cn, num edge types: 1
# Building blocks:
#     Node 0, Type 0, BuildingBlock: NAWXER_clean_sbu_0, # of connection points: 4
#     Node 1, Type 0, BuildingBlock: NAWXER_clean_sbu_0, # of connection points: 4
#     Node 2, Type 0, BuildingBlock: NAWXER_clean_sbu_0, # of connection points: 4
#     Node 3, Type 0, BuildingBlock: NAWXER_clean_sbu_0, # of connection points: 4
#     Node 4, Type 0, BuildingBlock: NAWXER_clean_sbu_0, # of connection points: 4
#     Node 5, Type 0, BuildingBlock: NAWXER_clean_sbu_0, # of connection points: 4
#     Node 6, Type 1, BuildingBlock: GIZVER_clean_linker_0, # of connection points: 4
#     Node 7, Type 1, BuildingBlock: GIZVER_clean_linker_0, # of connection points: 4
#     Node 8, Type 1, BuildingBlock: GIZVER_clean_linker_0, # of connection points: 4
#     Node 9, Type 1, BuildingBlock: GIZVER_clean_linker_0, # of connection points: 4
#     Node 10, Type 1, BuildingBlock: GIZVER_clean_linker_0, # of connection points: 4
#     Node 11, Type 1, BuildingBlock: GIZVER_clean_linker_0, # of connection points: 4
#     Edge 12, Type (0, 1), None
#     Edge 13, Type (0, 1), None
#     Edge 14, Type (0, 1), None
#     Edge 15, Type (0, 1), None
#     Edge 16, Type (0, 1), None
#     Edge 17, Type (0, 1), None
#     Edge 18, Type (0, 1), None
#     Edge 19, Type (0, 1), None
#     Edge 20, Type (0, 1), None
#     Edge 21, Type (0, 1), None
#     Edge 22, Type (0, 1), None
#     Edge 23, Type (0, 1), None
#     Edge 24, Type (0, 1), None
#     Edge 25, Type (0, 1), None
#     Edge 26, Type (0, 1), None
#     Edge 27, Type (0, 1), None
#     Edge 28, Type (0, 1), None
#     Edge 29, Type (0, 1), None
#     Edge 30, Type (0, 1), None
#     Edge 31, Type (0, 1), None
#     Edge 32, Type (0, 1), None
#     Edge 33, Type (0, 1), None
#     Edge 34, Type (0, 1), None
#     Edge 35, Type (0, 1), None
# Relax obj value: 0.007
# Max RMSD: 0.037
# Mean RMSD: 0.028
data_MOF--net-ssa--node1-NAWXER_clean_sbu_0--node2-GIZVER_clean_linker_0--edge1-none
_symmetry_space_group_name_H-M    P1
_symmetry_Int_Tables_number       1
_symmetry_cell_setting            triclinic
loop_
_symmetry_equiv_pos_as_xyz
'x, y, z'
_cell_length_a     22.763571
_cell_length_b     22.760819
_cell_length_c     14.834604
_cell_angle_alpha  90.100226
_cell_angle_beta   90.284318
_cell_angle_gamma 120.59515
loop_
_atom_site_label
_atom_site_type_symbol
_atom_site_fract_x
_atom_site_fract_y
_atom_site_fract_z
_atom_type_partial_charge
C0 C 0.11605 0.61487 0.03693 0.0
C1 C 1.04702 0.42236 0.83388 0.0
O2 O 1.05481 0.56552 0.04888 0.0
Zn3 Zn 0.98259 0.47229 -0.01664 0.0
O4 O 0.14808 0.61486 -0.03308 0.0
Zn5 Zn 0.0806 0.52637 0.91836 0.0
O6 O 1.00374 0.53741 0.85446 0.0
O7 O 0.90928 0.48561 -0.06544 0.0
O8 O 0.1032 0.47946 0.83156 0.0
O9 O 0.99777 0.41665 0.8814 0.0
O10 O 0.96925 0.4061 0.07466 0.0
O11 O 0.07385 0.46155 0.02087 0.0
C12 C 0.9414 0.52058 0.86612 0.0
C13 C 1.02967 0.41551 0.07169 0.0
C14 C 0.58238 0.16319 0.51362 0.0
C15 C 0.68746 0.07488 0.30917 0.0
O16 O 0.56545 0.10081 0.5254 0.0
Zn17 Zn 0.57633 1.02389 0.46188 0.0
O18 O 0.61741 0.19534 0.44524 0.0
Zn19 Zn 0.63056 0.12196 0.39672 0.0
O20 O 0.53743 0.04985 0.33094 0.0
O21 O 0.48788 0.95654 0.41306 0.0
O22 O 0.69688 0.13531 0.30584 0.0
O23 O 0.64127 1.03065 0.35978 0.0
O24 O 0.62314 1.00113 0.54909 0.0
O25 O 0.68608 0.10654 0.49895 0.0
C26 C 0.48802 0.98862 0.34285 0.0
C27 C 0.68031 0.05722 0.54657 0.0
C28 C 0.43383 0.4416 0.80052 0.0
C29 C 0.54173 0.64256 0.01249 0.0
O30 O 0.4217 0.49077 0.7983 0.0
Zn31 Zn 0.46717 0.54417 0.90855 0.0
O32 O 0.46414 0.43531 0.86893 0.0
Zn33 Zn 0.51756 0.49158 -0.01807 0.0
O34 O 0.46142 0.4414 0.08725 0.0
O35 O 0.40988 0.48878 0.01869 0.0
O36 O 0.54473 0.58882 0.02457 0.0
O37 O 0.50206 0.64235 -0.04933 0.0
O38 O 0.56076 0.56521 0.86636 0.0
O39 O 0.61372 0.52054 -0.06315 0.0
C40 C 0.41242 0.45366 0.08387 0.0
C41 C 0.61261 0.55881 0.87422 0.0
C42 C 0.11917 0.64562 0.3631 0.0
C43 C 1.04281 0.45434 0.57106 0.0
O44 O 0.15231 0.64988 0.4348 0.0
Zn45 Zn 0.08393 0.56488 0.49364 0.0
O46 O 0.0564 0.59854 0.35665 0.0
Zn47 Zn 0.98366 0.51017 0.42441 0.0
O48 O 0.91193 0.52358 0.47869 0.0
O49 O 1.00794 0.57577 0.55701 0.0
O50 O 0.99579 0.45365 0.52382 0.0
O51 O 0.10053 0.50974 0.57991 0.0
O52 O 0.07645 0.49864 0.39512 0.0
O53 O 0.97299 0.44057 0.33599 0.0
C54 C 0.94504 0.55783 0.54793 0.0
C55 C 1.03362 0.45076 0.34498 0.0
C56 C 0.65424 0.07122 0.03561 0.0
C57 C 0.54717 0.15982 0.83199 0.0
O58 O 0.66439 0.13184 0.04426 0.0
Zn59 Zn 0.5949 0.12105 -0.04449 0.0
O60 O 0.60635 1.0283 -0.01448 0.0
Zn61 Zn 0.54011 1.02087 0.88666 0.0
O62 O 0.59488 1.00399 0.8007 0.0
O63 O 0.65142 0.10879 0.85636 0.0
O64 O 0.52927 0.09693 0.82298 0.0
O65 O 0.58153 0.19291 0.90118 0.0
O66 O 0.50637 0.04831 0.02311 0.0
O67 O 0.45495 0.9525 -0.05505 0.0
C68 C 0.65044 0.06158 0.80941 0.0
C69 C 0.45912 0.98561 0.01649 0.0
C70 C 0.66379 0.67122 0.58045 0.0
C71 C 0.46281 0.56373 0.3681 0.0
O72 O 0.61474 0.68351 0.58242 0.0
Zn73 Zn 0.56126 0.63814 0.47216 0.0
O74 O 0.66999 0.64088 0.51217 0.0
Zn75 Zn 0.61361 0.5875 0.3992 0.0
O76 O 0.66381 0.64349 0.29378 0.0
O77 O 0.61671 0.69527 0.36199 0.0
O78 O 0.51646 0.5606 0.3563 0.0
O79 O 0.46311 0.60344 0.42974 0.0
O80 O 0.54002 0.5445 0.51466 0.0
O81 O 0.58441 0.49129 0.44461 0.0
C82 C 0.65171 0.6926 0.29693 0.0
C83 C 0.54626 0.49255 0.50707 0.0
H84 H 0.15309 0.42286 0.07547 0.0
H85 H 0.16165 0.47026 0.35401 0.0
H86 H 0.96754 0.35473 0.22173 0.0
H87 H 0.24823 0.52284 0.13809 0.0
H88 H 0.2479 0.54533 0.25147 0.0
H89 H 0.2845 0.43727 0.09878 0.0
H90 H 0.46119 0.47601 0.24813 0.0
H91 H 0.33467 0.55234 0.34661 0.0
C92 C 0.1271 0.41259 0.13965 0.0
C93 C 1.05584 0.38809 0.14034 0.0
C94 C 0.16679 0.44315 0.21761 0.0
C95 C 0.13174 0.44011 0.2966 0.0
C96 C 0.06033 0.41418 0.29389 0.0
C97 C 1.02215 0.37448 0.22185 0.0
C98 C 0.2404 0.50218 0.20777 0.0
C99 C 0.29687 0.4869 0.22762 0.0
C100 C 0.31437 0.45439 0.16051 0.0
C101 C 0.3754 0.45287 0.16669 0.0
C102 C 0.41492 0.47845 0.24454 0.0
C103 C 0.40407 0.51894 0.30694 0.0
C104 C 0.34338 0.52089 0.3 0.0
H105 H 0.81259 0.16555 0.55054 0.0
H106 H 0.77612 0.17655 0.82892 0.0
H107 H 0.66842 0.98513 0.69087 0.0
H108 H 0.82845 0.26854 0.62994 0.0
H109 H 0.83478 0.27609 0.74764 0.0
H110 H 0.92747 0.32919 0.55093 0.0
H111 H 0.11889 0.43514 0.68929 0.0
H112 H 0.93826 0.29004 0.82873 0.0
C113 C 0.79268 0.13886 0.61363 0.0
C114 C 0.73476 0.07198 0.61212 0.0
C115 C 0.81134 0.1772 0.69435 0.0
C116 C 0.77112 0.14536 0.77078 0.0
C117 C 0.71448 0.07808 0.76433 0.0
C118 C 0.7105 1.03756 0.69266 0.0
C119 C 0.84891 0.25486 0.68953 0.0
C120 C 0.92661 0.29295 0.68515 0.0
C121 C 0.95854 0.33368 0.6091 0.0
C122 C 1.02593 0.39003 0.61595 0.0
C123 C 0.06639 0.39322 0.68742 0.0
C124 C 1.032 0.36824 0.76784 0.0
C125 C 0.96499 0.3105 0.76585 0.0
H126 H 0.55296 0.77059 0.0339 0.0
H127 H 0.66786 0.82037 0.28198 0.0
H128 H 0.6297 0.64418 0.13248 0.0
H129 H 0.55896 0.85689 0.13011 0.0
H130 H 0.58239 0.85633 0.24293 0.0
H131 H 0.63541 0.94338 0.02689 0.0
H132 H 0.74943 0.13727 0.15977 0.0
H133 H 0.68032 0.95147 0.30653 0.0
C134 C 0.58457 0.76192 0.08046 0.0
C135 C 0.5866 0.70128 0.07358 0.0
C136 C 0.6186 0.80839 0.15278 0.0
C137 C 0.65095 0.79069 0.22013 0.0
C138 C 0.6526 0.72975 0.21402 0.0
C139 C 0.62717 0.6904 0.13607 0.0
C140 C 0.60248 0.86415 0.173 0.0
C141 C 0.661 0.93811 0.16414 0.0
C142 C 0.66498 0.97321 0.08469 0.0
C143 C 0.69079 0.04461 0.08727 0.0
C144 C 0.7298 0.08268 0.15988 0.0
C145 C 0.71544 0.04883 0.24143 0.0
C146 C 0.69103 0.97759 0.24234 0.0
H147 H 0.79537 0.70029 0.61518 0.0
H148 H 0.74901 0.59063 0.86758 0.0
H149 H 0.59681 0.6156 0.72677 0.0
H150 H 0.88757 0.71338 0.70838 0.0
H151 H 0.87172 0.68928 0.82344 0.0
H152 H 0.88015 0.62963 0.59068 0.0
H153 H 0.94253 0.49366 0.69432 0.0
H154 H 0.8748 0.59246 0.87703 0.0
C155 C 0.76008 0.67327 0.66936 0.0
C156 C 0.69383 0.66304 0.66526 0.0
C157 C 0.78091 0.64851 0.74303 0.0
C158 C 0.73343 0.60959 0.81087 0.0
C159 C 0.66663 0.59757 0.80621 0.0
C160 C 0.64869 0.62603 0.73388 0.0
C161 C 0.85521 0.6698 0.75353 0.0
C162 C 0.8694 0.61269 0.73523 0.0
C163 C 0.88377 0.60087 0.6464 0.0
C164 C 0.90999 0.55758 0.63164 0.0
C165 C 0.91933 0.52464 0.70523 0.0
C166 C 0.90797 0.5376 0.79357 0.0
C167 C 0.88076 0.57987 0.80846 0.0
H168 H 0.36755 0.84895 0.04276 0.0
H169 H 0.39206 0.85362 0.33056 0.0
H170 H 0.48382 0.04086 0.18244 0.0
H171 H 0.35405 0.74953 0.12981 0.0
H172 H 0.35538 0.75048 0.24959 0.0
H173 H 0.251 0.7111 0.04907 0.0
H174 H 0.06391 0.6195 0.19694 0.0
H175 H 0.2558 0.73738 0.33658 0.0
C176 C 0.38459 0.87816 0.10493 0.0
C177 C 0.42572 0.94968 0.10181 0.0
C178 C 0.37095 0.84357 0.18791 0.0
C179 C 0.39869 0.88081 0.268 0.0
C180 C 0.44095 0.95195 0.26615 0.0
C181 C 0.45021 0.98598 0.18381 0.0
C182 C 0.3378 0.76702 0.18981 0.0
C183 C 0.26112 0.73249 0.19162 0.0
C184 C 0.22386 0.70454 0.11154 0.0
C185 C 0.15275 0.66217 0.11339 0.0
C186 C 0.11877 0.65325 0.19558 0.0
C187 C 0.15508 0.67843 0.27753 0.0
C188 C 0.22657 0.71967 0.27443 0.0
H189 H 0.40394 0.30977 0.76588 0.0
H190 H 0.51361 0.35591 0.51382 0.0
H191 H 0.49006 0.50872 0.6545 0.0
H192 H 0.39077 0.21749 0.6733 0.0
H193 H 0.41411 0.23328 0.55801 0.0
H194 H 0.47523 0.22478 0.7901 0.0
H195 H 0.61048 0.16232 0.68507 0.0
H196 H 0.51035 0.22974 0.50337 0.0
C197 C 0.43116 0.34509 0.71177 0.0
C198 C 0.44189 0.41153 0.71584 0.0
C199 C 0.45571 0.32413 0.63822 0.0
C200 C 0.49485 0.37161 0.57047 0.0
C201 C 0.50738 0.43858 0.57514 0.0
C202 C 0.47921 0.45671 0.64738 0.0
C203 C 0.43407 0.24975 0.62776 0.0
C204 C 0.49115 0.23536 0.6454 0.0
C205 C 0.50358 0.22108 0.73407 0.0
C206 C 0.54695 0.19486 0.74836 0.0
C207 C 0.57942 0.18549 0.67447 0.0
C208 C 0.56583 0.19672 0.58627 0.0
C209 C 0.52343 0.22387 0.5718 0.0
loop_
_geom_bond_atom_site_label_1
_geom_bond_atom_site_label_2
_geom_bond_distance
_geom_bond_site_symmetry_2
_ccdc_geom_bond_type
C0 O2 1.247 . S
C0 O4 1.258 . S
C1 O8 1.247 . S
C1 O9 1.258 1_556 S
O2 C0 1.247 . S
O2 Zn3 2.028 1_455 S
Zn3 O2 2.028 1_655 S
Zn3 O7 2.035 . S
Zn3 O9 2.035 . S
Zn3 O10 2.028 1_655 S
O4 C0 1.258 . S
O4 Zn5 2.035 1_554 S
Zn5 O4 2.035 1_556 S
Zn5 O6 2.028 1_455 S
Zn5 O8 2.028 1_455 S
Zn5 O11 2.035 1_556 S
O6 Zn5 2.028 1_655 S
O6 C12 1.247 . S
O7 Zn3 2.035 . S
O7 C12 1.258 1_554 S
O8 C1 1.247 . S
O8 Zn5 2.028 1_655 S
O9 C1 1.258 1_554 S
O9 Zn3 2.035 . S
O10 Zn3 2.028 1_455 S
O10 C13 1.247 . S
O11 Zn5 2.035 1_554 S
O11 C13 1.258 . S
C12 O6 1.247 . S
C12 O7 1.258 1_556 S
C13 O10 1.247 . S
C13 O11 1.258 . S
C14 O16 1.247 . S
C14 O18 1.258 . S
C15 O22 1.247 . S
C15 O23 1.258 . S
O16 C14 1.247 . S
O16 Zn17 2.028 1_545 S
Zn17 O16 2.028 1_565 S
Zn17 O21 2.035 . S
Zn17 O23 2.035 . S
Zn17 O24 2.028 1_565 S
O18 C14 1.258 . S
O18 Zn19 2.035 . S
Zn19 O18 2.035 . S
Zn19 O20 2.028 1_545 S
Zn19 O22 2.028 1_545 S
Zn19 O25 2.035 . S
O20 Zn19 2.028 1_565 S
O20 C26 1.247 . S
O21 Zn17 2.035 . S
O21 C26 1.258 . S
O22 C15 1.247 . S
O22 Zn19 2.028 1_565 S
O23 C15 1.258 . S
O23 Zn17 2.035 . S
O24 Zn17 2.028 1_545 S
O24 C27 1.247 . S
O25 Zn19 2.035 . S
O25 C27 1.258 . S
C26 O20 1.247 . S
C26 O21 1.258 . S
C27 O24 1.247 . S
C27 O25 1.258 . S
C28 O30 1.247 . S
C28 O32 1.258 1_556 S
C29 O36 1.247 . S
C29 O37 1.258 . S
O30 C28 1.247 . S
O30 Zn31 2.028 . S
Zn31 O30 2.028 . S
Zn31 O35 2.035 1_556 S
Zn31 O37 2.035 1_556 S
Zn31 O38 2.028 . S
O32 C28 1.258 1_554 S
O32 Zn33 2.035 . S
Zn33 O32 2.035 . S
Zn33 O34 2.028 . S
Zn33 O36 2.028 . S
Zn33 O39 2.035 . S
O34 Zn33 2.028 . S
O34 C40 1.247 . S
O35 Zn31 2.035 1_554 S
O35 C40 1.258 . S
O36 C29 1.247 . S
O36 Zn33 2.028 . S
O37 C29 1.258 . S
O37 Zn31 2.035 1_554 S
O38 Zn31 2.028 . S
O38 C41 1.247 . S
O39 Zn33 2.035 . S
O39 C41 1.258 1_554 S
C40 O34 1.247 . S
C40 O35 1.258 . S
C41 O38 1.247 . S
C41 O39 1.258 1_556 S
C42 O44 1.247 . S
C42 O46 1.258 . S
C43 O50 1.247 . S
C43 O51 1.258 . S
O44 C42 1.247 . S
O44 Zn45 2.028 . S
Zn45 O44 2.028 . S
Zn45 O49 2.035 1_455 S
Zn45 O51 2.035 1_455 S
Zn45 O52 2.028 . S
O46 C42 1.258 . S
O46 Zn47 2.035 1_455 S
Zn47 O46 2.035 1_655 S
Zn47 O48 2.028 . S
Zn47 O50 2.028 . S
Zn47 O53 2.035 1_655 S
O48 Zn47 2.028 . S
O48 C54 1.247 . S
O49 Zn45 2.035 1_655 S
O49 C54 1.258 . S
O50 C43 1.247 . S
O50 Zn47 2.028 . S
O51 C43 1.258 . S
O51 Zn45 2.035 1_655 S
O52 Zn45 2.028 . S
O52 C55 1.247 . S
O53 Zn47 2.035 1_455 S
O53 C55 1.258 . S
C54 O48 1.247 . S
C54 O49 1.258 . S
C55 O52 1.247 . S
C55 O53 1.258 . S
C56 O58 1.247 . S
C56 O60 1.258 1_554 S
C57 O64 1.247 . S
C57 O65 1.258 1_556 S
O58 C56 1.247 . S
O58 Zn59 2.028 1_565 S
Zn59 O58 2.028 1_545 S
Zn59 O63 2.035 . S
Zn59 O65 2.035 . S
Zn59 O66 2.028 1_545 S
O60 C56 1.258 1_556 S
O60 Zn61 2.035 . S
Zn61 O60 2.035 . S
Zn61 O62 2.028 1_565 S
Zn61 O64 2.028 1_565 S
Zn61 O67 2.041 . S
O62 Zn61 2.028 1_545 S
O62 C68 1.247 . S
O63 Zn59 2.035 . S
O63 C68 1.258 1_554 S
O64 C57 1.247 . S
O64 Zn61 2.028 1_545 S
O65 C57 1.258 1_554 S
O65 Zn59 2.035 . S
O66 Zn59 2.028 1_565 S
O66 C69 1.247 . S
O67 Zn61 2.041 . S
O67 C69 1.249 1_556 S
C68 O62 1.247 . S
C68 O63 1.258 1_556 S
C69 O66 1.247 . S
C69 O67 1.249 1_554 S
C70 O72 1.247 . S
C70 O74 1.258 . S
C71 O78 1.247 . S
C71 O79 1.258 . S
O72 C70 1.247 . S
O72 Zn73 2.028 . S
Zn73 O72 2.028 . S
Zn73 O77 2.035 . S
Zn73 O79 2.035 . S
Zn73 O80 2.028 . S
O74 C70 1.258 . S
O74 Zn75 2.035 . S
Zn75 O74 2.035 . S
Zn75 O76 2.028 . S
Zn75 O78 2.028 . S
Zn75 O81 2.035 . S
O76 Zn75 2.028 . S
O76 C82 1.247 . S
O77 Zn73 2.035 . S
O77 C82 1.258 . S
O78 C71 1.247 . S
O78 Zn75 2.028 . S
O79 C71 1.258 . S
O79 Zn73 2.035 . S
O80 Zn73 2.028 . S
O80 C83 1.247 . S
O81 Zn75 2.035 . S
O81 C83 1.258 . S
C82 O76 1.247 . S
C82 O77 1.258 . S
C83 O80 1.247 . S
C83 O81 1.258 . S
H84 C92 0.930 . S
H85 C95 0.930 . S
H86 C97 0.930 . S
H87 C98 0.970 . S
H88 C98 0.970 . S
H89 C100 0.930 . S
H90 C102 0.930 . S
H91 C104 0.930 . S
C92 H84 0.930 . S
C92 C93 1.382 . S
C92 C94 1.426 . S
C93 C92 1.382 . S
C93 C97 1.389 . S
C94 C92 1.426 . S
C94 C95 1.375 . S
C94 C98 1.532 . S
C95 H85 0.930 . S
C95 C94 1.375 . S
C95 C96 1.416 . S
C96 C95 1.416 . S
C96 C97 1.371 . S
C97 H86 0.930 . S
C97 C93 1.389 . S
C97 C96 1.371 . S
C98 H87 0.970 . S
C98 H88 0.970 . S
C98 C94 1.532 . S
C98 C99 1.499 . S
C99 C98 1.499 . S
C99 C100 1.370 . S
C99 C104 1.415 . S
C100 H89 0.930 . S
C100 C99 1.370 . S
C100 C101 1.407 . S
C101 C100 1.407 . S
C101 C102 1.365 . S
C102 H90 0.930 . S
C102 C101 1.365 . S
C102 C103 1.393 . S
C103 C102 1.393 . S
C103 C104 1.387 . S
C104 H91 0.930 . S
C104 C99 1.415 . S
C104 C103 1.387 . S
H105 C113 0.930 . S
H106 C116 0.930 . S
H107 C118 0.930 . S
H108 C119 0.970 . S
H109 C119 0.970 . S
H110 C121 0.930 . S
H111 C123 0.930 . S
H112 C125 0.930 . S
C113 H105 0.930 . S
C113 C114 1.382 . S
C113 C115 1.426 . S
C114 C113 1.382 . S
C114 C118 1.389 . S
C115 C113 1.426 . S
C115 C116 1.375 . S
C115 C119 1.532 . S
C116 H106 0.930 . S
C116 C115 1.375 . S
C116 C117 1.416 . S
C117 C116 1.416 . S
C117 C118 1.371 . S
C118 H107 0.930 . S
C118 C114 1.389 . S
C118 C117 1.371 . S
C119 H108 0.970 . S
C119 H109 0.970 . S
C119 C115 1.532 . S
C119 C120 1.499 . S
C120 C119 1.499 . S
C120 C121 1.370 . S
C120 C125 1.415 . S
C121 H110 0.930 . S
C121 C120 1.370 . S
C121 C122 1.407 . S
C122 C121 1.407 . S
C122 C123 1.365 . S
C123 H111 0.930 . S
C123 C122 1.365 . S
C123 C124 1.393 . S
C124 C123 1.393 . S
C124 C125 1.387 . S
C125 H112 0.930 . S
C125 C120 1.415 . S
C125 C124 1.387 . S
H126 C134 0.930 . S
H127 C137 0.930 . S
H128 C139 0.930 . S
H129 C140 0.970 . S
H130 C140 0.970 . S
H131 C142 0.930 . S
H132 C144 0.930 . S
H133 C146 0.930 . S
C134 H126 0.930 . S
C134 C135 1.382 . S
C134 C136 1.426 . S
C135 C134 1.382 . S
C135 C139 1.389 . S
C136 C134 1.426 . S
C136 C137 1.375 . S
C136 C140 1.532 . S
C137 H127 0.930 . S
C137 C136 1.375 . S
C137 C138 1.416 . S
C138 C137 1.416 . S
C138 C139 1.371 . S
C139 H128 0.930 . S
C139 C135 1.389 . S
C139 C138 1.371 . S
C140 H129 0.970 . S
C140 H130 0.970 . S
C140 C136 1.532 . S
C140 C141 1.499 . S
C141 C140 1.499 . S
C141 C142 1.370 . S
C141 C146 1.415 . S
C142 H131 0.930 . S
C142 C141 1.370 . S
C142 C143 1.407 . S
C143 C142 1.407 . S
C143 C144 1.365 . S
C144 H132 0.930 . S
C144 C143 1.365 . S
C144 C145 1.393 . S
C145 C144 1.393 . S
C145 C146 1.387 . S
C146 H133 0.930 . S
C146 C141 1.415 . S
C146 C145 1.387 . S
H147 C155 0.930 . S
H148 C158 0.930 . S
H149 C160 0.930 . S
H150 C161 0.970 . S
H151 C161 0.970 . S
H152 C163 0.930 . S
H153 C165 0.930 . S
H154 C167 0.930 . S
C155 H147 0.930 . S
C155 C156 1.382 . S
C155 C157 1.426 . S
C156 C155 1.382 . S
C156 C160 1.389 . S
C157 C155 1.426 . S
C157 C158 1.375 . S
C157 C161 1.532 . S
C158 H148 0.930 . S
C158 C157 1.375 . S
C158 C159 1.416 . S
C159 C158 1.416 . S
C159 C160 1.371 . S
C160 H149 0.930 . S
C160 C156 1.389 . S
C160 C159 1.371 . S
C161 H150 0.970 . S
C161 H151 0.970 . S
C161 C157 1.532 . S
C161 C162 1.499 . S
C162 C161 1.499 . S
C162 C163 1.370 . S
C162 C167 1.415 . S
C163 H152 0.930 . S
C163 C162 1.370 . S
C163 C164 1.407 . S
C164 C163 1.407 . S
C164 C165 1.365 . S
C165 H153 0.930 . S
C165 C164 1.365 . S
C165 C166 1.393 . S
C166 C165 1.393 . S
C166 C167 1.387 . S
C167 H154 0.930 . S
C167 C162 1.415 . S
C167 C166 1.387 . S
H168 C176 0.930 . S
H169 C179 0.930 . S
H170 C181 0.930 . S
H171 C182 0.970 . S
H172 C182 0.970 . S
H173 C184 0.930 . S
H174 C186 0.930 . S
H175 C188 0.930 . S
C176 H168 0.930 . S
C176 C177 1.382 . S
C176 C178 1.426 . S
C177 C176 1.382 . S
C177 C181 1.389 . S
C178 C176 1.426 . S
C178 C179 1.375 . S
C178 C182 1.532 . S
C179 H169 0.930 . S
C179 C178 1.375 . S
C179 C180 1.416 . S
C180 C179 1.416 . S
C180 C181 1.371 . S
C181 H170 0.930 . S
C181 C177 1.389 . S
C181 C180 1.371 . S
C182 H171 0.970 . S
C182 H172 0.970 . S
C182 C178 1.532 . S
C182 C183 1.499 . S
C183 C182 1.499 . S
C183 C184 1.370 . S
C183 C188 1.415 . S
C184 H173 0.930 . S
C184 C183 1.370 . S
C184 C185 1.407 . S
C185 C184 1.407 . S
C185 C186 1.365 . S
C186 H174 0.930 . S
C186 C185 1.365 . S
C186 C187 1.393 . S
C187 C186 1.393 . S
C187 C188 1.387 . S
C188 H175 0.930 . S
C188 C183 1.415 . S
C188 C187 1.387 . S
H189 C197 0.930 . S
H190 C200 0.930 . S
H191 C202 0.930 . S
H192 C203 0.970 . S
H193 C203 0.970 . S
H194 C205 0.930 . S
H195 C207 0.930 . S
H196 C209 0.930 . S
C197 H189 0.930 . S
C197 C198 1.382 . S
C197 C199 1.426 . S
C198 C197 1.382 . S
C198 C202 1.389 . S
C199 C197 1.426 . S
C199 C200 1.375 . S
C199 C203 1.532 . S
C200 H190 0.930 . S
C200 C199 1.375 . S
C200 C201 1.416 . S
C201 C200 1.416 . S
C201 C202 1.371 . S
C202 H191 0.930 . S
C202 C198 1.389 . S
C202 C201 1.371 . S
C203 H192 0.970 . S
C203 H193 0.970 . S
C203 C199 1.532 . S
C203 C204 1.499 . S
C204 C203 1.499 . S
C204 C205 1.370 . S
C204 C209 1.415 . S
C205 H194 0.930 . S
C205 C204 1.370 . S
C205 C206 1.407 . S
C206 C205 1.407 . S
C206 C207 1.365 . S
C207 H195 0.930 . S
C207 C206 1.365 . S
C207 C208 1.393 . S
C208 C207 1.393 . S
C208 C209 1.387 . S
C209 H196 0.930 . S
C209 C204 1.415 . S
C209 C208 1.387 . S
C13 C93 1.444 . S
C27 C114 1.510 . S
C135 C29 1.442 . S
C164 C54 1.791 . S
C177 C69 1.447 . S
C201 C83 1.779 . S
C15 C145 1.462 . S
C41 C159 1.786 . S
C187 C42 1.472 . S
C206 C57 1.776 . S
C71 C103 1.472 . S
C124 C1 1.534 . S
C166 C12 1.793 . S
C26 C180 1.546 . S
C198 C28 1.837 . S
C55 C96 1.550 . S
C68 C117 1.485 . S
C82 C138 1.553 . S
C14 C208 1.804 . S
C101 C40 1.590 . S
C43 C122 1.535 . S
C56 C143 1.598 . S
C70 C156 1.831 . S
C0 C185 1.590 . S
