# Generated by pormake.
# Topology rtl, (3,6)-cn, num edge types: 1
# Building blocks:
#     Node 0, Type 0, BuildingBlock: BETDIP_clean_linker_0, # of connection points: 3
#     Node 1, Type 0, BuildingBlock: BETDIP_clean_linker_0, # of connection points: 3
#     Node 2, Type 0, BuildingBlock: BETDIP_clean_linker_0, # of connection points: 3
#     Node 3, Type 0, BuildingBlock: BETDIP_clean_linker_0, # of connection points: 3
#     Node 4, Type 1, BuildingBlock: LEVNOQ01_clean_sbu_1, # of connection points: 6
#     Node 5, Type 1, BuildingBlock: LEVNOQ01_clean_sbu_1, # of connection points: 6
#     Edge 6, Type (0, 1), BuildingBlock: AJUNOK_clean_linker_0, # of connection points: 2
#     Edge 7, Type (0, 1), BuildingBlock: AJUNOK_clean_linker_0, # of connection points: 2
#     Edge 8, Type (0, 1), BuildingBlock: AJUNOK_clean_linker_0, # of connection points: 2
#     Edge 9, Type (0, 1), BuildingBlock: AJUNOK_clean_linker_0, # of connection points: 2
#     Edge 10, Type (0, 1), BuildingBlock: AJUNOK_clean_linker_0, # of connection points: 2
#     Edge 11, Type (0, 1), BuildingBlock: AJUNOK_clean_linker_0, # of connection points: 2
#     Edge 12, Type (0, 1), BuildingBlock: AJUNOK_clean_linker_0, # of connection points: 2
#     Edge 13, Type (0, 1), BuildingBlock: AJUNOK_clean_linker_0, # of connection points: 2
#     Edge 14, Type (0, 1), BuildingBlock: AJUNOK_clean_linker_0, # of connection points: 2
#     Edge 15, Type (0, 1), BuildingBlock: AJUNOK_clean_linker_0, # of connection points: 2
#     Edge 16, Type (0, 1), BuildingBlock: AJUNOK_clean_linker_0, # of connection points: 2
#     Edge 17, Type (0, 1), BuildingBlock: AJUNOK_clean_linker_0, # of connection points: 2
# Relax obj value: 0.018
# Max RMSD: 0.112
# Mean RMSD: 0.086
data_MOF--net-rtl--node1-LEVNOQ01_clean_sbu_1--node2-BETDIP_clean_linker_0--edge1-AJUNOK_clean_linker_0
_symmetry_space_group_name_H-M    P1
_symmetry_Int_Tables_number       1
_symmetry_cell_setting            triclinic
loop_
_symmetry_equiv_pos_as_xyz
'x, y, z'
_cell_length_a     26.177415
_cell_length_b     26.093781
_cell_length_c     16.236011
_cell_angle_alpha  90.873412
_cell_angle_beta   99.952623
_cell_angle_gamma 90.635652
loop_
_atom_site_label
_atom_site_type_symbol
_atom_site_fract_x
_atom_site_fract_y
_atom_site_fract_z
_atom_type_partial_charge
H0 H 0.23554 0.86883 0.95096 0.0
H1 H 0.25592 0.84798 0.21669 0.0
H2 H 0.1499 0.96073 0.09961 0.0
H3 H 0.33716 0.8128 0.18817 0.0
C4 C 0.31937 0.78973 0.13436 0.0
C5 C 0.22689 0.8803 0.01145 0.0
C6 C 0.19203 0.92013 0.01732 0.0
C7 C 0.25049 0.85454 0.0829 0.0
C8 C 0.23911 0.86881 0.16162 0.0
C9 C 0.20336 0.90791 0.16854 0.0
C10 C 0.17998 0.93302 0.09589 0.0
N11 N 0.28124 0.81129 0.07194 0.0
H12 H 0.68131 0.75757 0.72628 0.0
H13 H 0.68627 0.77285 0.46409 0.0
H14 H 0.59278 0.65407 0.54702 0.0
H15 H 0.77154 0.78277 0.72849 0.0
C16 C 0.76818 0.8122 0.68133 0.0
C17 C 0.66963 0.74441 0.66212 0.0
C18 C 0.63285 0.70441 0.64322 0.0
C19 C 0.68926 0.76882 0.59708 0.0
C20 C 0.67153 0.75332 0.51375 0.0
C21 C 0.63643 0.71198 0.49445 0.0
C22 C 0.61831 0.68728 0.5601 0.0
N23 N 0.72643 0.80944 0.61255 0.0
H24 H 0.7927 0.20327 0.85756 0.0
H25 H 0.79082 0.18806 0.1199 0.0
H26 H 0.85141 0.06684 0.98538 0.0
H27 H 0.70786 0.24611 0.87351 0.0
C28 C 0.7259 0.26961 0.92666 0.0
C29 C 0.79926 0.18003 0.91298 0.0
C30 C 0.82551 0.13315 0.9123 0.0
C31 C 0.78521 0.19898 0.98749 0.0
C32 C 0.799 0.17191 0.06173 0.0
C33 C 0.82281 0.12414 0.06125 0.0
C34 C 0.83357 0.10407 0.98562 0.0
N35 N 0.76162 0.24739 0.99186 0.0
H36 H 0.33822 0.30667 0.33628 0.0
H37 H 0.32696 0.2847 0.59463 0.0
H38 H 0.44008 0.39047 0.52874 0.0
H39 H 0.31135 0.19235 0.50983 0.0
C40 C 0.27771 0.21098 0.47468 0.0
C41 C 0.35189 0.31542 0.40191 0.0
C42 C 0.394 0.34936 0.42585 0.0
C43 C 0.32826 0.29134 0.46251 0.0
C44 C 0.34605 0.30243 0.54798 0.0
C45 C 0.38686 0.33805 0.57287 0.0
C46 C 0.41016 0.36138 0.511 0.0
N47 N 0.28458 0.25856 0.43636 0.0
O48 O 0.94691 0.12677 0.60654 0.0
Mg49 Mg 0.0261 0.10707 0.62063 0.0
O50 O 0.94921 0.04416 0.61873 0.0
Mg51 Mg 0.00827 0.01408 0.53455 0.0
O52 O 0.05967 0.08842 0.52025 0.0
O53 O 0.06915 0.16513 0.58658 0.0
O54 O 0.06755 0.97997 0.45396 0.0
O55 O 0.95128 0.03756 0.41362 0.0
Mg56 Mg 0.97132 0.91694 0.43214 0.0
O57 O 0.96063 0.93947 0.5484 0.0
O58 O 0.04725 0.89953 0.41925 0.0
O59 O 0.92771 0.96531 0.34292 0.0
O60 O 0.93275 0.86382 0.48952 0.0
C61 C 0.07756 0.01862 0.72232 0.0
C62 C 0.92718 0.08642 0.62943 0.0
C63 C 0.08094 0.13409 0.53044 0.0
C64 C 0.07828 0.93716 0.4221 0.0
C65 C 0.92531 0.01373 0.35015 0.0
C66 C 0.9353 0.89646 0.55061 0.0
O67 O 0.0641 0.06519 0.72625 0.0
O68 O 0.06374 0.99222 0.65511 0.0
O69 O 0.63045 0.57424 0.16521 0.0
Mg70 Mg 0.59564 0.50181 0.13721 0.0
O71 O 0.5468 0.58107 0.14782 0.0
Mg72 Mg 0.51626 0.52349 0.03295 0.0
O73 O 0.58874 0.46806 0.02138 0.0
O74 O 0.65402 0.45462 0.12834 0.0
O75 O 0.48425 0.46541 0.91759 0.0
O76 O 0.55035 0.57882 0.94493 0.0
Mg77 Mg 0.4364 0.54526 0.93117 0.0
O78 O 0.44577 0.58101 0.04514 0.0
O79 O 0.40108 0.47269 0.90855 0.0
O80 O 0.48137 0.57694 0.84643 0.0
O81 O 0.37916 0.59434 0.94039 0.0
C82 C 0.504 0.45543 0.19457 0.0
C83 C 0.59166 0.59778 0.18135 0.0
C84 C 0.6323 0.44592 0.05199 0.0
C85 C 0.43854 0.44861 0.88857 0.0
C86 C 0.52784 0.59143 0.87227 0.0
C87 C 0.40311 0.60473 0.01499 0.0
O88 O 0.55076 0.46876 0.22044 0.0
O89 O 0.48183 0.46847 0.12185 0.0
C90 C 0.1807 0.21763 0.45429 0.0
C91 C 0.22543 0.18749 0.47106 0.0
C92 C 0.13224 0.19829 0.46601 0.0
C93 C 0.12658 0.14784 0.49281 0.0
H94 H 0.18356 0.25743 0.43747 0.0
H95 H 0.09955 0.22393 0.45883 0.0
S96 S 0.23066 0.05185 0.53646 0.0
N97 N 0.26023 0.10356 0.50918 0.0
N98 N 0.16909 0.06719 0.53041 0.0
C99 C 0.17023 0.11623 0.50373 0.0
C100 C 0.2197 0.13612 0.49309 0.0
C101 C 0.30893 0.70108 0.07447 0.0
C102 C 0.34154 0.7397 0.11665 0.0
C103 C 0.3293 0.65565 0.04758 0.0
C104 C 0.3831 0.64725 0.06112 0.0
H105 H 0.26739 0.70659 0.06011 0.0
H106 H 0.30276 0.62774 0.01267 0.0
S107 S 0.48495 0.73756 0.16665 0.0
N108 N 0.42991 0.7667 0.1723 0.0
N109 N 0.46861 0.68201 0.11844 0.0
C110 C 0.41608 0.68496 0.10561 0.0
C111 C 0.39514 0.73106 0.1342 0.0
C112 C 0.80986 0.8885 0.62737 0.0
C113 C 0.815 0.84227 0.67137 0.0
C114 C 0.85237 0.91092 0.59866 0.0
C115 C 0.90097 0.88723 0.61166 0.0
H116 H 0.77207 0.9056 0.6102 0.0
H117 H 0.84578 0.94392 0.55864 0.0
S118 S 0.93623 0.76996 0.73278 0.0
N119 N 0.874 0.77745 0.73603 0.0
N120 N 0.95325 0.81841 0.67852 0.0
C121 C 0.9076 0.84363 0.66165 0.0
C122 C 0.86469 0.82144 0.6926 0.0
C123 C 0.64945 0.32714 0.92273 0.0
C124 C 0.70327 0.31959 0.94348 0.0
C125 C 0.62638 0.37048 0.95288 0.0
C126 C 0.65666 0.40775 0.00331 0.0
H127 H 0.62472 0.29779 0.88799 0.0
H128 H 0.58452 0.37288 0.94187 0.0
S129 S 0.80017 0.41016 0.06124 0.0
N130 N 0.78667 0.3559 0.00787 0.0
N131 N 0.74378 0.43755 0.06272 0.0
C132 C 0.71089 0.40251 0.01809 0.0
C133 C 0.73412 0.35837 0.98851 0.0
C134 C 0.1679 0.87587 0.29179 0.0
C135 C 0.18393 0.91758 0.24824 0.0
C136 C 0.1376 0.8832 0.35397 0.0
C137 C 0.12181 0.93247 0.37487 0.0
H138 H 0.17534 0.83694 0.27351 0.0
H139 H 0.12356 0.84955 0.38191 0.0
S140 S 0.16166 0.05505 0.28992 0.0
N141 N 0.18898 0.01042 0.23959 0.0
N142 N 0.13008 0.02413 0.35407 0.0
C143 C 0.14162 0.97485 0.33735 0.0
C144 C 0.17302 0.96738 0.27447 0.0
C145 C 0.63493 0.65594 0.77676 0.0
C146 C 0.60669 0.68113 0.70787 0.0
C147 C 0.60932 0.62778 0.83118 0.0
C148 C 0.55472 0.62381 0.81804 0.0
H149 H 0.67694 0.65641 0.78674 0.0
H150 H 0.63245 0.60776 0.88222 0.0
S151 S 0.46357 0.68878 0.65227 0.0
N152 N 0.52173 0.70462 0.63408 0.0
N153 N 0.4736 0.65191 0.73503 0.0
C154 C 0.52631 0.65102 0.7514 0.0
C155 C 0.5523 0.67965 0.69673 0.0
C156 C 0.87613 0.12256 0.20505 0.0
C157 C 0.84195 0.09725 0.14035 0.0
C158 C 0.90147 0.09577 0.27445 0.0
C159 C 0.89362 0.04263 0.28156 0.0
H160 H 0.88526 0.16287 0.20009 0.0
H161 H 0.92895 0.11653 0.32101 0.0
S162 S 0.80188 0.96044 0.13414 0.0
N163 N 0.79735 0.01763 0.09165 0.0
N164 N 0.84454 0.96702 0.22142 0.0
C165 C 0.85712 0.01762 0.2193 0.0
C166 C 0.83145 0.04496 0.14891 0.0
C167 C 0.36353 0.37002 0.70782 0.0
C168 C 0.40204 0.35553 0.66186 0.0
C169 C 0.37627 0.39665 0.78447 0.0
C170 C 0.42806 0.41032 0.8183 0.0
H171 H 0.32291 0.36374 0.682 0.0
H172 H 0.34477 0.40915 0.81494 0.0
S173 S 0.54415 0.37303 0.72964 0.0
N174 N 0.49471 0.34974 0.66182 0.0
N175 N 0.51856 0.4015 0.80413 0.0
C176 C 0.46726 0.39238 0.77623 0.0
C177 C 0.45427 0.36471 0.69848 0.0
C178 C 0.65963 0.68413 0.35721 0.0
C179 C 0.62136 0.69178 0.40706 0.0
C180 C 0.64857 0.65675 0.28113 0.0
C181 C 0.59889 0.63555 0.25194 0.0
H182 H 0.69926 0.69676 0.37926 0.0
H183 H 0.68001 0.64996 0.24699 0.0
S184 S 0.48325 0.65021 0.35406 0.0
N185 N 0.52999 0.68174 0.41645 0.0
N186 N 0.5101 0.62718 0.27669 0.0
C187 C 0.55946 0.64549 0.29877 0.0
C188 C 0.57049 0.67431 0.37547 0.0
C189 C 0.82403 0.12476 0.75611 0.0
C190 C 0.84953 0.11701 0.83894 0.0
C191 C 0.84813 0.11291 0.68713 0.0
C192 C 0.89769 0.09128 0.69864 0.0
H193 H 0.78558 0.1409 0.74446 0.0
H194 H 0.82828 0.12137 0.62471 0.0
S195 S 0.98295 0.06637 0.90064 0.0
N196 N 0.92977 0.09016 0.92678 0.0
N197 N 0.97193 0.06361 0.79759 0.0
C198 C 0.92306 0.08232 0.78036 0.0
C199 C 0.89979 0.09618 0.85038 0.0
C200 C 0.39472 0.39839 0.29351 0.0
C201 C 0.42181 0.37267 0.36295 0.0
C202 C 0.42135 0.42413 0.23783 0.0
C203 C 0.47597 0.42508 0.24988 0.0
H204 H 0.35277 0.39996 0.28363 0.0
H205 H 0.39904 0.44459 0.18649 0.0
S206 S 0.56437 0.35775 0.41636 0.0
N207 N 0.50574 0.34553 0.43606 0.0
N208 N 0.5558 0.39394 0.33275 0.0
C209 C 0.50324 0.39762 0.3173 0.0
C210 C 0.47618 0.37142 0.37344 0.0
C211 C 0.14272 0.91739 0.86997 0.0
C212 C 0.16547 0.94625 0.94109 0.0
C213 C 0.11496 0.9411 0.79931 0.0
C214 C 0.1087 0.99466 0.79693 0.0
H215 H 0.14528 0.87598 0.86961 0.0
H216 H 0.09753 0.91704 0.74675 0.0
S217 S 0.16431 0.08786 0.96494 0.0
N218 N 0.1827 0.03141 0.00294 0.0
N219 N 0.13003 0.07603 0.87121 0.0
C220 C 0.13224 0.02404 0.86718 0.0
C221 C 0.16068 0.99986 0.93887 0.0
loop_
_geom_bond_atom_site_label_1
_geom_bond_atom_site_label_2
_geom_bond_distance
_geom_bond_site_symmetry_2
_ccdc_geom_bond_type
H0 C5 0.930 . S
H1 C8 0.930 . S
H2 C10 0.930 . S
H3 C4 1.016 . S
C4 H3 1.016 . S
C4 N11 1.286 . S
C5 H0 0.930 . S
C5 C6 1.397 . S
C5 C7 1.361 1_556 S
C6 C5 1.397 . S
C6 C10 1.390 1_556 S
C7 C5 1.361 1_554 S
C7 C8 1.393 . S
C7 N11 1.413 . S
C8 H1 0.930 . S
C8 C7 1.393 . S
C8 C9 1.399 . S
C9 C8 1.399 . S
C9 C10 1.381 . S
C10 H2 0.930 . S
C10 C6 1.390 1_554 S
C10 C9 1.381 . S
N11 C4 1.286 . S
N11 C7 1.413 . S
H12 C17 0.930 . S
H13 C20 0.930 . S
H14 C22 0.930 . S
H15 C16 1.016 . S
C16 H15 1.016 . S
C16 N23 1.286 . S
C17 H12 0.930 . S
C17 C18 1.397 . S
C17 C19 1.361 . S
C18 C17 1.397 . S
C18 C22 1.390 . S
C19 C17 1.361 . S
C19 C20 1.393 . S
C19 N23 1.413 . S
C20 H13 0.930 . S
C20 C19 1.393 . S
C20 C21 1.399 . S
C21 C20 1.399 . S
C21 C22 1.381 . S
C22 H14 0.930 . S
C22 C18 1.390 . S
C22 C21 1.381 . S
N23 C16 1.286 . S
N23 C19 1.413 . S
H24 C29 0.930 . S
H25 C32 0.930 . S
H26 C34 0.930 . S
H27 C28 1.016 . S
C28 H27 1.016 . S
C28 N35 1.286 1_554 S
C29 H24 0.930 . S
C29 C30 1.397 . S
C29 C31 1.361 . S
C30 C29 1.397 . S
C30 C34 1.390 1_556 S
C31 C29 1.361 . S
C31 C32 1.393 1_556 S
C31 N35 1.413 . S
C32 H25 0.930 . S
C32 C31 1.393 1_554 S
C32 C33 1.399 . S
C33 C32 1.399 . S
C33 C34 1.381 . S
C34 H26 0.930 . S
C34 C30 1.390 1_554 S
C34 C33 1.381 . S
N35 C28 1.286 1_556 S
N35 C31 1.413 . S
H36 C41 0.930 . S
H37 C44 0.930 . S
H38 C46 0.930 . S
H39 C40 1.016 . S
C40 H39 1.016 . S
C40 N47 1.286 . S
C41 H36 0.930 . S
C41 C42 1.397 . S
C41 C43 1.361 . S
C42 C41 1.397 . S
C42 C46 1.390 . S
C43 C41 1.361 . S
C43 C44 1.393 . S
C43 N47 1.413 . S
C44 H37 0.930 . S
C44 C43 1.393 . S
C44 C45 1.399 . S
C45 C44 1.399 . S
C45 C46 1.381 . S
C46 H38 0.930 . S
C46 C42 1.390 . S
C46 C45 1.381 . S
N47 C40 1.286 . S
N47 C43 1.413 . S
O48 Mg49 1.990 . S
O48 C62 1.253 1_455 S
Mg49 O48 1.990 . S
Mg49 O52 2.180 . S
Mg49 O53 2.117 . S
Mg49 O67 2.030 . S
O50 Mg51 2.072 1_655 S
O50 C62 1.260 . S
Mg51 O50 2.072 1_455 S
Mg51 O52 2.099 . S
Mg51 O54 2.079 1_545 S
Mg51 O55 2.072 1_455 S
Mg51 O57 2.099 1_445 S
Mg51 O68 2.079 1_545 S
O52 Mg49 2.180 . S
O52 Mg51 2.099 . S
O52 C63 1.279 . S
O53 Mg49 2.117 . S
O53 C63 1.250 . S
O54 Mg51 2.079 1_565 S
O54 C64 1.264 . S
O55 Mg51 2.072 1_655 S
O55 C65 1.260 . S
Mg56 O57 2.180 . S
Mg56 O58 2.030 1_655 S
Mg56 O59 1.990 1_565 S
Mg56 O60 2.117 . S
O57 Mg51 2.099 1_665 S
O57 Mg56 2.180 . S
O57 C66 1.279 . S
O58 Mg56 2.030 1_455 S
O58 C64 1.248 . S
O59 Mg56 1.990 1_545 S
O59 C65 1.253 . S
O60 Mg56 2.117 . S
O60 C66 1.250 . S
C61 O67 1.248 1_565 S
C61 O68 1.264 . S
C62 O48 1.253 1_655 S
C62 O50 1.260 . S
C63 O52 1.279 . S
C63 O53 1.250 . S
C64 O54 1.264 . S
C64 O58 1.248 . S
C65 O55 1.260 . S
C65 O59 1.253 . S
C66 O57 1.279 . S
C66 O60 1.250 . S
O67 Mg49 2.030 . S
O67 C61 1.248 1_545 S
O68 Mg51 2.079 1_565 S
O68 C61 1.264 . S
O69 Mg70 1.990 . S
O69 C83 1.253 . S
Mg70 O69 1.990 . S
Mg70 O73 2.180 . S
Mg70 O74 2.117 . S
Mg70 O88 2.030 . S
O71 Mg72 2.072 . S
O71 C83 1.260 . S
Mg72 O71 2.072 . S
Mg72 O73 2.099 . S
Mg72 O75 2.079 1_554 S
Mg72 O76 2.072 1_554 S
Mg72 O78 2.099 . S
Mg72 O89 2.079 . S
O73 Mg70 2.180 . S
O73 Mg72 2.099 . S
O73 C84 1.279 . S
O74 Mg70 2.117 . S
O74 C84 1.250 . S
O75 Mg72 2.079 1_556 S
O75 C85 1.264 . S
O76 Mg72 2.072 1_556 S
O76 C86 1.260 . S
Mg77 O78 2.180 1_556 S
Mg77 O79 2.030 . S
Mg77 O80 1.990 . S
Mg77 O81 2.117 . S
O78 Mg72 2.099 . S
O78 Mg77 2.180 1_554 S
O78 C87 1.279 . S
O79 Mg77 2.030 . S
O79 C85 1.248 . S
O80 Mg77 1.990 . S
O80 C86 1.253 . S
O81 Mg77 2.117 . S
O81 C87 1.250 1_556 S
C82 O88 1.248 . S
C82 O89 1.264 . S
C83 O69 1.253 . S
C83 O71 1.260 . S
C84 O73 1.279 . S
C84 O74 1.250 . S
C85 O75 1.264 . S
C85 O79 1.248 . S
C86 O76 1.260 . S
C86 O80 1.253 . S
C87 O78 1.279 . S
C87 O81 1.250 1_554 S
O88 Mg70 2.030 . S
O88 C82 1.248 . S
O89 Mg72 2.079 . S
O89 C82 1.264 . S
C90 C91 1.369 . S
C90 C92 1.419 . S
C90 H94 0.930 . S
C91 C90 1.369 . S
C91 C100 1.429 . S
C92 C90 1.419 . S
C92 C93 1.363 . S
C92 H95 0.929 . S
C93 C92 1.363 . S
C93 C99 1.428 . S
H94 C90 0.930 . S
H95 C92 0.929 . S
S96 N97 1.613 . S
S96 N98 1.610 . S
N97 S96 1.613 . S
N97 C100 1.350 . S
N98 S96 1.610 . S
N98 C99 1.351 . S
C99 C93 1.428 . S
C99 N98 1.351 . S
C99 C100 1.434 . S
C100 C91 1.429 . S
C100 N97 1.350 . S
C100 C99 1.434 . S
C101 C102 1.369 . S
C101 C103 1.419 . S
C101 H105 0.930 . S
C102 C101 1.369 . S
C102 C111 1.429 . S
C103 C101 1.419 . S
C103 C104 1.363 . S
C103 H106 0.929 . S
C104 C103 1.363 . S
C104 C110 1.428 . S
H105 C101 0.930 . S
H106 C103 0.929 . S
S107 N108 1.613 . S
S107 N109 1.610 . S
N108 S107 1.613 . S
N108 C111 1.350 . S
N109 S107 1.610 . S
N109 C110 1.351 . S
C110 C104 1.428 . S
C110 N109 1.351 . S
C110 C111 1.434 . S
C111 C102 1.429 . S
C111 N108 1.350 . S
C111 C110 1.434 . S
C112 C113 1.369 . S
C112 C114 1.419 . S
C112 H116 0.930 . S
C113 C112 1.369 . S
C113 C122 1.429 . S
C114 C112 1.419 . S
C114 C115 1.363 . S
C114 H117 0.929 . S
C115 C114 1.363 . S
C115 C121 1.428 . S
H116 C112 0.930 . S
H117 C114 0.929 . S
S118 N119 1.613 . S
S118 N120 1.610 . S
N119 S118 1.613 . S
N119 C122 1.350 . S
N120 S118 1.610 . S
N120 C121 1.351 . S
C121 C115 1.428 . S
C121 N120 1.351 . S
C121 C122 1.434 . S
C122 C113 1.429 . S
C122 N119 1.350 . S
C122 C121 1.434 . S
C123 C124 1.369 1_556 S
C123 C125 1.419 . S
C123 H127 0.930 . S
C124 C123 1.369 1_554 S
C124 C133 1.429 . S
C125 C123 1.419 . S
C125 C126 1.363 1_556 S
C125 H128 0.929 . S
C126 C125 1.363 1_554 S
C126 C132 1.428 . S
H127 C123 0.930 . S
H128 C125 0.929 . S
S129 N130 1.613 . S
S129 N131 1.610 . S
N130 S129 1.613 . S
N130 C133 1.350 . S
N131 S129 1.610 . S
N131 C132 1.351 . S
C132 C126 1.428 . S
C132 N131 1.351 . S
C132 C133 1.434 . S
C133 C124 1.429 . S
C133 N130 1.350 . S
C133 C132 1.434 . S
C134 C135 1.369 . S
C134 C136 1.419 . S
C134 H138 0.930 . S
C135 C134 1.369 . S
C135 C144 1.429 . S
C136 C134 1.419 . S
C136 C137 1.363 . S
C136 H139 0.929 . S
C137 C136 1.363 . S
C137 C143 1.428 . S
H138 C134 0.930 . S
H139 C136 0.929 . S
S140 N141 1.613 1_545 S
S140 N142 1.612 . S
N141 S140 1.613 1_565 S
N141 C144 1.350 . S
N142 S140 1.612 . S
N142 C143 1.338 1_545 S
C143 C137 1.428 . S
C143 N142 1.338 1_565 S
C143 C144 1.434 . S
C144 C135 1.429 . S
C144 N141 1.350 . S
C144 C143 1.434 . S
C145 C146 1.369 . S
C145 C147 1.419 . S
C145 H149 0.930 . S
C146 C145 1.369 . S
C146 C155 1.429 . S
C147 C145 1.419 . S
C147 C148 1.363 . S
C147 H150 0.929 . S
C148 C147 1.363 . S
C148 C154 1.428 . S
H149 C145 0.930 . S
H150 C147 0.929 . S
S151 N152 1.613 . S
S151 N153 1.610 . S
N152 S151 1.613 . S
N152 C155 1.350 . S
N153 S151 1.610 . S
N153 C154 1.351 . S
C154 C148 1.428 . S
C154 N153 1.351 . S
C154 C155 1.434 . S
C155 C146 1.429 . S
C155 N152 1.350 . S
C155 C154 1.434 . S
C156 C157 1.369 . S
C156 C158 1.419 . S
C156 H160 0.930 . S
C157 C156 1.369 . S
C157 C166 1.429 . S
C158 C156 1.419 . S
C158 C159 1.363 . S
C158 H161 0.929 . S
C159 C158 1.363 . S
C159 C165 1.428 . S
H160 C156 0.930 . S
H161 C158 0.929 . S
S162 N163 1.613 . S
S162 N164 1.610 . S
N163 S162 1.613 . S
N163 C166 1.350 . S
N164 S162 1.610 . S
N164 C165 1.351 . S
C165 C159 1.428 . S
C165 N164 1.351 . S
C165 C166 1.434 . S
C166 C157 1.429 . S
C166 N163 1.350 . S
C166 C165 1.434 . S
C167 C168 1.369 . S
C167 C169 1.419 . S
C167 H171 0.930 . S
C168 C167 1.369 . S
C168 C177 1.429 . S
C169 C167 1.419 . S
C169 C170 1.363 . S
C169 H172 0.929 . S
C170 C169 1.363 . S
C170 C176 1.428 . S
H171 C167 0.930 . S
H172 C169 0.929 . S
S173 N174 1.613 . S
S173 N175 1.610 . S
N174 S173 1.613 . S
N174 C177 1.350 . S
N175 S173 1.610 . S
N175 C176 1.351 . S
C176 C170 1.428 . S
C176 N175 1.351 . S
C176 C177 1.434 . S
C177 C168 1.429 . S
C177 N174 1.350 . S
C177 C176 1.434 . S
C178 C179 1.369 . S
C178 C180 1.419 . S
C178 H182 0.930 . S
C179 C178 1.369 . S
C179 C188 1.429 . S
C180 C178 1.419 . S
C180 C181 1.363 . S
C180 H183 0.929 . S
C181 C180 1.363 . S
C181 C187 1.428 . S
H182 C178 0.930 . S
H183 C180 0.929 . S
S184 N185 1.613 . S
S184 N186 1.610 . S
N185 S184 1.613 . S
N185 C188 1.350 . S
N186 S184 1.610 . S
N186 C187 1.351 . S
C187 C181 1.428 . S
C187 N186 1.351 . S
C187 C188 1.434 . S
C188 C179 1.429 . S
C188 N185 1.350 . S
C188 C187 1.434 . S
C189 C190 1.369 . S
C189 C191 1.419 . S
C189 H193 0.930 . S
C190 C189 1.369 . S
C190 C199 1.429 . S
C191 C189 1.419 . S
C191 C192 1.363 . S
C191 H194 0.929 . S
C192 C191 1.363 . S
C192 C198 1.428 . S
H193 C189 0.930 . S
H194 C191 0.929 . S
S195 N196 1.613 . S
S195 N197 1.610 . S
N196 S195 1.613 . S
N196 C199 1.350 . S
N197 S195 1.610 . S
N197 C198 1.351 . S
C198 C192 1.428 . S
C198 N197 1.351 . S
C198 C199 1.434 . S
C199 C190 1.429 . S
C199 N196 1.350 . S
C199 C198 1.434 . S
C200 C201 1.369 . S
C200 C202 1.419 . S
C200 H204 0.930 . S
C201 C200 1.369 . S
C201 C210 1.429 . S
C202 C200 1.419 . S
C202 C203 1.363 . S
C202 H205 0.929 . S
C203 C202 1.363 . S
C203 C209 1.428 . S
H204 C200 0.930 . S
H205 C202 0.929 . S
S206 N207 1.613 . S
S206 N208 1.610 . S
N207 S206 1.613 . S
N207 C210 1.350 . S
N208 S206 1.610 . S
N208 C209 1.351 . S
C209 C203 1.428 . S
C209 N208 1.351 . S
C209 C210 1.434 . S
C210 C201 1.429 . S
C210 N207 1.350 . S
C210 C209 1.434 . S
C211 C212 1.369 . S
C211 C213 1.419 . S
C211 H215 0.930 . S
C212 C211 1.369 . S
C212 C221 1.429 . S
C213 C211 1.419 . S
C213 C214 1.363 . S
C213 H216 0.929 . S
C214 C213 1.363 . S
C214 C220 1.428 . S
H215 C211 0.930 . S
H216 C213 0.929 . S
S217 N218 1.613 . S
S217 N219 1.610 . S
N218 S217 1.613 . S
N218 C221 1.350 . S
N219 S217 1.610 . S
N219 C220 1.351 . S
C220 C214 1.428 . S
C220 N219 1.351 . S
C220 C221 1.434 . S
C221 C212 1.429 . S
C221 N218 1.350 . S
C221 C220 1.434 . S
C93 C63 1.269 . S
C91 C40 1.455 . S
C102 C4 1.495 . S
C104 C87 1.314 . S
C113 C16 1.566 . S
C115 C66 1.392 . S
C124 C28 1.564 . S
C126 C84 1.362 . S
C137 C64 1.495 . S
C135 C9 1.497 . S
C148 C86 1.518 . S
C146 C18 1.593 . S
C157 C33 1.582 . S
C159 C65 1.535 . S
C168 C45 1.504 . S
C170 C85 1.452 . S
C181 C83 1.480 . S
C179 C21 1.526 . S
C192 C62 1.467 . S
C190 C30 1.535 . S
C203 C82 1.424 . S
C201 C42 1.457 . S
C212 C6 1.462 . S
C214 C61 1.400 . S
