# Generated by pormake.
# Topology ftw, (4,12)-cn, num edge types: 1
# Building blocks:
#     Node 0, Type 0, BuildingBlock: GIZVER_clean_linker_0, # of connection points: 4
#     Node 1, Type 0, BuildingBlock: GIZVER_clean_linker_0, # of connection points: 4
#     Node 2, Type 0, BuildingBlock: GIZVER_clean_linker_0, # of connection points: 4
#     Node 3, Type 1, BuildingBlock: EZIPEK_clean_sbu_0, # of connection points: 12
#     Edge 4, Type (0, 1), BuildingBlock: OJICUG_clean_linker_0, # of connection points: 2
#     Edge 5, Type (0, 1), BuildingBlock: OJICUG_clean_linker_0, # of connection points: 2
#     Edge 6, Type (0, 1), BuildingBlock: OJICUG_clean_linker_0, # of connection points: 2
#     Edge 7, Type (0, 1), BuildingBlock: OJICUG_clean_linker_0, # of connection points: 2
#     Edge 8, Type (0, 1), BuildingBlock: OJICUG_clean_linker_0, # of connection points: 2
#     Edge 9, Type (0, 1), BuildingBlock: OJICUG_clean_linker_0, # of connection points: 2
#     Edge 10, Type (0, 1), BuildingBlock: OJICUG_clean_linker_0, # of connection points: 2
#     Edge 11, Type (0, 1), BuildingBlock: OJICUG_clean_linker_0, # of connection points: 2
#     Edge 12, Type (0, 1), BuildingBlock: OJICUG_clean_linker_0, # of connection points: 2
#     Edge 13, Type (0, 1), BuildingBlock: OJICUG_clean_linker_0, # of connection points: 2
#     Edge 14, Type (0, 1), BuildingBlock: OJICUG_clean_linker_0, # of connection points: 2
#     Edge 15, Type (0, 1), BuildingBlock: OJICUG_clean_linker_0, # of connection points: 2
# Relax obj value: 0.085
# Max RMSD: 0.239
# Mean RMSD: 0.181
data_MOF--net-ftw--node1-EZIPEK_clean_sbu_0--node2-GIZVER_clean_linker_0--edge1-OJICUG_clean_linker_0
_symmetry_space_group_name_H-M    P1
_symmetry_Int_Tables_number       1
_symmetry_cell_setting            triclinic
loop_
_symmetry_equiv_pos_as_xyz
'x, y, z'
_cell_length_a     19.593743
_cell_length_b     18.389414
_cell_length_c     18.257886
_cell_angle_alpha  90.043741
_cell_angle_beta   90.116225
_cell_angle_gamma 89.986148
loop_
_atom_site_label
_atom_site_type_symbol
_atom_site_fract_x
_atom_site_fract_y
_atom_site_fract_z
_atom_type_partial_charge
H0 H 0.91488 0.45381 0.36286 0.0
H1 H 0.91035 0.44949 0.59737 0.0
H2 H 1.0158 0.28124 0.47943 0.0
H3 H 0.82757 0.52308 0.43069 0.0
H4 H 0.82647 0.52193 0.52885 0.0
H5 H 0.91371 0.59426 0.36475 0.0
H6 H 1.01552 0.76356 0.48567 0.0
H7 H 0.91076 0.59227 0.59929 0.0
C8 C 0.92892 0.42719 0.4136 0.0
C9 C 0.97022 0.36481 0.41264 0.0
C10 C 0.90575 0.45626 0.48004 0.0
C11 C 0.92632 0.42475 0.54635 0.0
C12 C 0.96751 0.36231 0.54688 0.0
C13 C 0.98788 0.33203 0.47965 0.0
C14 C 0.86071 0.52231 0.48028 0.0
C15 C 0.90473 0.58913 0.48177 0.0
C16 C 0.92787 0.61973 0.41608 0.0
C17 C 0.96906 0.6822 0.41656 0.0
C18 C 0.98747 0.71288 0.48441 0.0
C19 C 0.96774 0.68054 0.55084 0.0
C20 C 0.92625 0.6184 0.54883 0.0
H21 H 0.47075 0.09039 0.3661 0.0
H22 H 0.46539 0.09063 0.60093 0.0
H23 H 0.29128 1.01604 0.47831 0.0
H24 H 0.53931 0.17797 0.43751 0.0
H25 H 0.53833 0.17648 0.53487 0.0
H26 H 0.61718 0.10199 0.36919 0.0
H27 H 0.78318 1.00854 0.49041 0.0
H28 H 0.6034 0.08279 0.60335 0.0
C29 C 0.44388 0.0779 0.41634 0.0
C30 C 0.37809 0.04749 0.41366 0.0
C31 C 0.47453 0.09521 0.48375 0.0
C32 C 0.4407 0.07813 0.54932 0.0
C33 C 0.37465 0.04806 0.54834 0.0
C34 C 0.34382 0.03405 0.48002 0.0
C35 C 0.5385 0.1408 0.48558 0.0
C36 C 0.60263 0.09537 0.48612 0.0
C37 C 0.63832 0.08288 0.42054 0.0
C38 C 0.70371 0.05176 0.42191 0.0
C39 C 0.73185 0.03053 0.48947 0.0
C40 C 0.69667 0.04135 0.55573 0.0
C41 C 0.63122 0.07285 0.55312 0.0
H42 H 0.60738 0.40593 0.0495 0.0
H43 H 0.60774 0.63923 0.05105 0.0
H44 H 0.78746 0.52254 -0.01542 0.0
H45 H 0.53458 0.47399 0.1351 0.0
H46 H 0.53475 0.57054 0.13576 0.0
H47 H 0.46555 0.40644 0.04589 0.0
H48 H 0.28859 0.52404 0.97204 0.0
H49 H 0.4664 0.63954 0.04682 0.0
C50 C 0.63375 0.45651 0.03853 0.0
C51 C 0.7009 0.4556 0.01139 0.0
C52 C 0.60089 0.52258 0.05469 0.0
C53 C 0.63397 0.5887 0.03942 0.0
C54 C 0.70115 0.58964 0.01235 0.0
C55 C 0.73419 0.52261 -1e-05 0.0
C56 C 0.5357 0.52248 0.09865 0.0
C57 C 0.47206 0.52293 0.05179 0.0
C58 C 0.43977 0.45709 0.03359 0.0
C59 C 0.37362 0.4565 0.00337 0.0
C60 C 0.34124 0.52371 -0.0101 0.0
C61 C 0.37418 0.59053 0.00379 0.0
C62 C 0.44028 0.58918 0.0341 0.0
C63 C 0.02887 0.19395 0.80287 0.0
C64 C 0.03811 0.19958 0.15716 0.0
C65 C 0.03105 0.84566 0.80772 0.0
C66 C 0.03514 0.85 0.16174 0.0
C67 C 0.20316 0.84579 0.98007 0.0
C68 C 0.20185 0.20166 0.97781 0.0
C69 C 0.8727 0.84503 -0.01152 0.0
C70 C 0.87221 0.20029 -0.01523 0.0
C71 C 0.87951 0.03187 0.16752 0.0
C72 C 0.20793 0.02208 0.15738 0.0
C73 C 0.86909 1.0171 0.81027 0.0
C74 C 0.19994 0.02175 0.80197 0.0
Eu75 Eu 0.03714 0.15992 0.98044 0.0
O76 O 0.10121 0.08925 0.04519 0.0
O77 O 0.97473 0.08525 0.91941 0.0
Eu78 Eu 0.16945 0.0237 0.98049 0.0
Eu79 Eu 0.90658 0.0227 -0.01222 0.0
O80 O 0.09819 0.08663 0.91603 0.0
O81 O 0.97892 0.08732 0.04804 0.0
Eu82 Eu 0.03552 1.02029 0.84629 0.0
Eu83 Eu 0.04266 0.02429 0.11969 0.0
O84 O 0.09863 0.95741 0.91848 0.0
O85 O 0.10161 0.95851 0.04637 0.0
O86 O 0.97854 0.95894 0.05024 0.0
O87 O 0.97513 0.95801 0.92173 0.0
Eu88 Eu 0.03778 0.88529 -0.01571 0.0
O89 O 0.02816 0.21853 0.87157 0.0
O90 O 0.03166 0.22166 0.08791 0.0
O91 O 0.02925 0.82316 0.8771 0.0
O92 O 0.03289 0.82585 0.0929 0.0
O93 O 0.22557 0.9146 -0.01785 0.0
O94 O 0.22469 0.13316 -0.01795 0.0
O95 O 0.85035 0.91372 -0.00696 0.0
O96 O 0.8501 0.13164 -0.0095 0.0
O97 O 0.94558 0.0311 0.18505 0.0
O98 O 0.14331 1.01914 0.17969 0.0
O99 O 0.93378 1.0141 0.78766 0.0
O100 O 0.13443 1.01739 0.78228 0.0
O101 O 0.93775 0.8243 -0.01662 0.0
O102 O 0.13802 0.82452 0.97945 0.0
O103 O 0.93718 0.22104 0.97903 0.0
O104 O 0.13655 0.22213 0.97498 0.0
O105 O 0.04657 0.13131 0.17961 0.0
O106 O 0.04025 0.9191 0.1828 0.0
O107 O 0.03324 0.12475 0.78217 0.0
O108 O 0.03576 0.91417 0.78523 0.0
O109 O 0.22362 0.02638 0.87049 0.0
O110 O 0.22886 0.02637 0.08792 0.0
O111 O 0.84811 0.02271 0.87972 0.0
O112 O 0.85415 0.02745 0.09951 0.0
C113 C 0.05555 0.29466 0.33789 0.0
C114 C 0.99275 0.33172 0.34222 0.0
H115 H 0.11903 0.22298 0.27523 0.0
C116 C 0.95001 0.3328 0.28006 0.0
H117 H 0.09089 0.29444 0.38355 0.0
C118 C 0.96798 0.29453 0.21686 0.0
C119 C 0.02808 0.25328 0.21534 0.0
H120 H 0.90093 0.35977 0.28123 0.0
H121 H 0.93253 0.29293 0.17122 0.0
C122 C 0.07239 0.25468 0.27556 0.0
C123 C 0.72034 0.02373 0.28723 0.0
C124 C 0.74637 0.04885 0.35461 0.0
H125 H 0.74198 0.99814 0.17458 0.0
C126 C 0.81465 0.07171 0.3581 0.0
H127 H 0.66772 1.0061 0.28286 0.0
C128 C 0.85672 0.06701 0.29699 0.0
C129 C 0.83183 0.03965 0.23011 0.0
H130 H 0.83581 0.09354 0.40834 0.0
H131 H 0.9091 0.08502 0.3025 0.0
C132 C 0.76277 1.01918 0.22539 0.0
C133 C 0.05286 0.75571 0.3429 0.0
C134 C 0.99073 0.71732 0.34681 0.0
H135 H 0.11531 0.82878 0.28075 0.0
C136 C 0.94789 0.71633 0.28468 0.0
H137 H 0.08835 0.75603 0.38841 0.0
C138 C 0.96534 0.75523 0.22181 0.0
C139 C 1.02491 0.79724 0.22059 0.0
H140 H 0.8992 0.68859 0.28547 0.0
H141 H 0.93005 0.75635 0.17601 0.0
C142 C 0.06907 0.79647 0.28093 0.0
C143 C 0.35033 0.08287 0.28288 0.0
C144 C 0.34223 0.03478 0.34242 0.0
H145 H 0.31471 0.11549 0.17636 0.0
C146 C 0.29517 0.9773 0.3354 0.0
H147 H 0.38534 0.12826 0.28616 0.0
C148 C 0.25362 0.97158 0.27351 0.0
C149 C 0.2596 0.02163 0.21602 0.0
H150 H 0.28877 0.9378 0.37881 0.0
H151 H 0.21552 0.92892 0.27131 0.0
C152 C 0.30978 0.07585 0.21991 0.0
C153 C 0.05227 0.74827 0.62898 0.0
C154 C 0.98843 0.71379 0.62179 0.0
H155 H 0.11582 0.81758 0.69453 0.0
C156 C 0.94297 0.71548 0.68141 0.0
H157 H 0.08928 0.74662 0.58504 0.0
C158 C 0.95957 0.75389 0.74499 0.0
C159 C 1.02133 0.79186 0.74966 0.0
H160 H 0.89299 0.69065 0.67768 0.0
H161 H 0.92212 0.75825 0.78822 0.0
C162 C 0.06807 0.78794 0.69191 0.0
C163 C 0.28581 0.98074 0.62186 0.0
C164 C 0.33528 0.03624 0.6176 0.0
H165 H 0.20366 0.93365 0.68303 0.0
C166 C 0.34339 0.08291 0.67839 0.0
H167 H 0.27914 0.94212 0.57765 0.0
C168 C 0.30169 0.07578 0.7402 0.0
C169 C 0.24991 0.0232 0.74178 0.0
H170 H 0.37987 0.12704 0.67739 0.0
H171 H 0.30761 0.11381 0.78514 0.0
C172 C 0.24286 0.97521 0.68258 0.0
C173 C 0.94182 0.32523 0.67669 0.0
C174 C 0.98727 0.32677 0.61703 0.0
H175 H 0.92067 0.28244 0.78341 0.0
C176 C 0.05034 0.2905 0.62355 0.0
H177 H 0.89237 0.3513 0.67356 0.0
C178 C 0.06542 0.24967 0.68588 0.0
C179 C 1.01887 0.2465 0.74381 0.0
H180 H 0.08748 0.29201 0.57975 0.0
H181 H 0.11271 0.21916 0.68818 0.0
C182 C 0.95786 0.2859 0.73979 0.0
C183 C 0.72401 0.07499 0.68694 0.0
C184 C 0.73218 0.02734 0.62699 0.0
H185 H 0.76046 0.10814 0.79294 0.0
C186 C 0.78031 0.9707 0.63309 0.0
H187 H 0.6883 0.11983 0.6844 0.0
C188 C 0.82297 0.96578 0.69427 0.0
C189 C 0.81699 1.01573 0.75197 0.0
H190 H 0.78689 0.93154 0.58939 0.0
H191 H 0.86187 0.92387 0.69573 0.0
C192 C 0.76558 0.06871 0.74918 0.0
C193 C 0.34527 0.32614 0.03769 0.0
C194 C 0.33568 0.38662 -0.00886 0.0
H195 H 0.3113 0.21938 0.06881 0.0
C196 C 0.28602 0.3813 0.93542 0.0
H197 H 0.38199 0.32783 0.08197 0.0
C198 C 0.24415 0.32002 0.92979 0.0
C199 C 0.25231 0.26127 0.97796 0.0
H200 H 0.27821 0.42522 0.89685 0.0
H201 H 0.20454 0.31899 0.88829 0.0
C202 C 0.30453 0.26382 0.03053 0.0
C203 C 0.34642 0.72084 0.03911 0.0
C204 C 0.33684 0.66081 -0.00811 0.0
H205 H 0.31244 0.82742 0.07124 0.0
C206 C 0.2876 0.66685 0.93585 0.0
H207 H 0.38289 0.71855 0.0836 0.0
C208 C 0.24597 0.72832 0.93059 0.0
C209 C 0.25397 0.78655 0.97951 0.0
H210 H 0.27984 0.62326 0.89681 0.0
H211 H 0.20652 0.72985 0.88893 0.0
C212 C 0.30587 0.78338 0.03238 0.0
C213 C 0.72803 0.3244 0.04448 0.0
C214 C 0.73857 0.38559 -0.00083 0.0
H215 H 0.76125 0.21686 0.07448 0.0
C216 C 0.78889 0.38089 0.94439 0.0
H217 H 0.69054 0.32566 0.08789 0.0
C218 C 0.83053 0.31957 0.93858 0.0
C219 C 0.8216 0.25995 -0.01452 0.0
H220 H 0.79744 0.4254 0.90672 0.0
H221 H 0.87076 0.31934 0.89806 0.0
C222 C 0.76869 0.26191 0.03711 0.0
C223 C 0.72826 0.72064 0.04677 0.0
C224 C 0.73905 0.65966 0.0011 0.0
H225 H 0.76127 0.82808 0.07762 0.0
C226 C 0.78975 0.66458 0.94677 0.0
H227 H 0.69049 0.71923 0.08988 0.0
C228 C 0.8315 0.72583 0.94178 0.0
C229 C 0.82223 0.78527 -0.0111 0.0
H230 H 0.79852 0.62035 0.90878 0.0
H231 H 0.87204 0.72617 0.90165 0.0
C232 C 0.76898 0.78315 0.04011 0.0
loop_
_geom_bond_atom_site_label_1
_geom_bond_atom_site_label_2
_geom_bond_distance
_geom_bond_site_symmetry_2
_ccdc_geom_bond_type
H0 C8 0.930 . S
H1 C11 0.930 . S
H2 C13 0.930 . S
H3 C14 0.970 . S
H4 C14 0.970 . S
H5 C16 0.930 . S
H6 C18 0.930 . S
H7 C20 0.930 . S
C8 H0 0.930 . S
C8 C9 1.382 . S
C8 C10 1.426 . S
C9 C8 1.382 . S
C9 C13 1.389 1_655 S
C10 C8 1.426 . S
C10 C11 1.375 . S
C10 C14 1.532 . S
C11 H1 0.930 . S
C11 C10 1.375 . S
C11 C12 1.416 . S
C12 C11 1.416 . S
C12 C13 1.371 1_655 S
C13 H2 0.930 . S
C13 C9 1.389 1_455 S
C13 C12 1.371 1_455 S
C14 H3 0.970 . S
C14 H4 0.970 . S
C14 C10 1.532 . S
C14 C15 1.499 . S
C15 C14 1.499 . S
C15 C16 1.370 . S
C15 C20 1.415 . S
C16 H5 0.930 . S
C16 C15 1.370 . S
C16 C17 1.407 . S
C17 C16 1.407 . S
C17 C18 1.365 1_655 S
C18 H6 0.930 . S
C18 C17 1.365 1_455 S
C18 C19 1.393 1_455 S
C19 C18 1.393 1_655 S
C19 C20 1.387 . S
C20 H7 0.930 . S
C20 C15 1.415 . S
C20 C19 1.387 . S
H21 C29 0.930 . S
H22 C32 0.930 . S
H23 C34 0.930 . S
H24 C35 0.970 . S
H25 C35 0.970 . S
H26 C37 0.930 . S
H27 C39 0.930 . S
H28 C41 0.930 . S
C29 H21 0.930 . S
C29 C30 1.382 . S
C29 C31 1.426 . S
C30 C29 1.382 . S
C30 C34 1.389 1_545 S
C31 C29 1.426 . S
C31 C32 1.375 . S
C31 C35 1.532 . S
C32 H22 0.930 . S
C32 C31 1.375 . S
C32 C33 1.416 . S
C33 C32 1.416 . S
C33 C34 1.371 1_545 S
C34 H23 0.930 . S
C34 C30 1.389 1_565 S
C34 C33 1.371 1_565 S
C35 H24 0.970 . S
C35 H25 0.970 . S
C35 C31 1.532 . S
C35 C36 1.499 . S
C36 C35 1.499 . S
C36 C37 1.370 . S
C36 C41 1.415 . S
C37 H26 0.930 . S
C37 C36 1.370 . S
C37 C38 1.407 . S
C38 C37 1.407 . S
C38 C39 1.365 1_545 S
C39 H27 0.930 . S
C39 C38 1.365 1_565 S
C39 C40 1.393 1_565 S
C40 C39 1.393 1_545 S
C40 C41 1.387 . S
C41 H28 0.930 . S
C41 C36 1.415 . S
C41 C40 1.387 . S
H42 C50 0.930 . S
H43 C53 0.930 . S
H44 C55 0.930 . S
H45 C56 0.970 . S
H46 C56 0.970 . S
H47 C58 0.930 . S
H48 C60 0.930 . S
H49 C62 0.930 . S
C50 H42 0.930 . S
C50 C51 1.382 . S
C50 C52 1.426 . S
C51 C50 1.382 . S
C51 C55 1.389 1_554 S
C52 C50 1.426 . S
C52 C53 1.375 . S
C52 C56 1.532 . S
C53 H43 0.930 . S
C53 C52 1.375 . S
C53 C54 1.416 . S
C54 C53 1.416 . S
C54 C55 1.371 1_554 S
C55 H44 0.930 . S
C55 C51 1.389 1_556 S
C55 C54 1.371 1_556 S
C56 H45 0.970 . S
C56 H46 0.970 . S
C56 C52 1.532 . S
C56 C57 1.499 . S
C57 C56 1.499 . S
C57 C58 1.370 . S
C57 C62 1.415 . S
C58 H47 0.930 . S
C58 C57 1.370 . S
C58 C59 1.407 . S
C59 C58 1.407 . S
C59 C60 1.365 1_554 S
C60 H48 0.930 . S
C60 C59 1.365 1_556 S
C60 C61 1.393 1_556 S
C61 C60 1.393 1_554 S
C61 C62 1.387 . S
C62 H49 0.930 . S
C62 C57 1.415 . S
C62 C61 1.387 . S
C63 O89 1.283 . S
C63 O107 1.283 . S
C64 O90 1.283 . S
C64 O105 1.283 1_455 S
C65 O91 1.283 1_455 S
C65 O108 1.283 . S
C66 O92 1.283 . S
C66 O106 1.283 . S
C67 O93 1.283 . S
C67 O102 1.283 . S
C68 O94 1.283 . S
C68 O104 1.283 . S
C69 O95 1.283 . S
C69 O101 1.283 . S
C70 O96 1.283 . S
C70 O103 1.283 . S
C71 O97 1.283 . S
C71 O112 1.283 . S
C72 O98 1.283 . S
C72 O110 1.283 . S
C73 O99 1.283 . S
C73 O111 1.283 . S
C74 O100 1.283 . S
C74 O109 1.283 . S
Eu75 O76 2.375 . S
Eu75 O77 2.365 1_454 S
Eu75 O80 2.375 1_554 S
Eu75 O81 2.365 1_455 S
Eu75 O89 2.363 1_554 S
Eu75 O90 2.363 . S
Eu75 O103 2.354 1_455 S
Eu75 O104 2.372 . S
O76 Eu75 2.375 . S
O76 Eu78 2.370 . S
O76 Eu83 2.367 1_455 S
O77 Eu75 2.365 1_656 S
O77 Eu79 2.370 1_556 S
O77 Eu82 2.364 1_655 S
Eu78 O76 2.370 . S
Eu78 O80 2.370 1_554 S
Eu78 O84 2.370 1_544 S
Eu78 O85 2.370 1_545 S
Eu78 O93 2.363 1_545 S
Eu78 O94 2.363 . S
Eu78 O109 2.363 1_554 S
Eu78 O110 2.363 . S
Eu79 O77 2.370 1_554 S
Eu79 O81 2.370 . S
Eu79 O86 2.370 1_545 S
Eu79 O87 2.370 1_544 S
Eu79 O95 2.363 1_545 S
Eu79 O96 2.363 . S
Eu79 O111 2.363 1_554 S
Eu79 O112 2.363 . S
O80 Eu75 2.375 1_556 S
O80 Eu78 2.370 1_556 S
O80 Eu82 2.376 . S
O81 Eu75 2.365 1_655 S
O81 Eu79 2.370 . S
O81 Eu83 2.373 . S
Eu82 O77 2.364 1_455 S
Eu82 O80 2.376 . S
Eu82 O84 2.376 1_545 S
Eu82 O87 2.364 1_445 S
Eu82 O99 2.353 1_455 S
Eu82 O100 2.373 . S
Eu82 O107 2.363 . S
Eu82 O108 2.363 1_545 S
Eu83 O76 2.367 1_655 S
Eu83 O81 2.373 . S
Eu83 O85 2.367 1_645 S
Eu83 O86 2.373 1_545 S
Eu83 O97 2.368 . S
Eu83 O98 2.358 1_655 S
Eu83 O105 2.363 . S
Eu83 O106 2.363 1_545 S
O84 Eu78 2.370 1_566 S
O84 Eu82 2.376 1_565 S
O84 Eu88 2.368 1_456 S
O85 Eu78 2.370 1_565 S
O85 Eu83 2.367 1_465 S
O85 Eu88 2.368 1_455 S
O86 Eu79 2.370 1_565 S
O86 Eu83 2.373 1_565 S
O86 Eu88 2.372 . S
O87 Eu79 2.370 1_566 S
O87 Eu82 2.364 1_665 S
O87 Eu88 2.373 1_556 S
Eu88 O84 2.368 1_654 S
Eu88 O85 2.368 1_655 S
Eu88 O86 2.372 . S
Eu88 O87 2.373 1_554 S
Eu88 O91 2.363 1_554 S
Eu88 O92 2.363 . S
Eu88 O101 2.367 . S
Eu88 O102 2.359 1_655 S
O89 C63 1.283 . S
O89 Eu75 2.363 1_556 S
O90 C64 1.283 . S
O90 Eu75 2.363 . S
O91 C65 1.283 1_655 S
O91 Eu88 2.363 1_556 S
O92 C66 1.283 . S
O92 Eu88 2.363 . S
O93 C67 1.283 . S
O93 Eu78 2.363 1_565 S
O94 C68 1.283 . S
O94 Eu78 2.363 . S
O95 C69 1.283 . S
O95 Eu79 2.363 1_565 S
O96 C70 1.283 . S
O96 Eu79 2.363 . S
O97 C71 1.283 . S
O97 Eu83 2.368 . S
O98 C72 1.283 . S
O98 Eu83 2.358 1_455 S
O99 C73 1.283 . S
O99 Eu82 2.353 1_655 S
O100 C74 1.283 . S
O100 Eu82 2.373 . S
O101 C69 1.283 . S
O101 Eu88 2.367 . S
O102 C67 1.283 . S
O102 Eu88 2.359 1_455 S
O103 C70 1.283 . S
O103 Eu75 2.354 1_655 S
O104 C68 1.283 . S
O104 Eu75 2.372 . S
O105 C64 1.283 1_655 S
O105 Eu83 2.363 . S
O106 C66 1.283 . S
O106 Eu83 2.363 1_565 S
O107 C63 1.283 . S
O107 Eu82 2.363 . S
O108 C65 1.283 . S
O108 Eu82 2.363 1_565 S
O109 C74 1.283 . S
O109 Eu78 2.363 1_556 S
O110 C72 1.283 . S
O110 Eu78 2.363 . S
O111 C73 1.283 . S
O111 Eu79 2.363 1_556 S
O112 C71 1.283 . S
O112 Eu79 2.363 . S
C113 C114 1.387 1_455 S
C113 H117 0.950 . S
C113 C122 1.390 . S
C114 C113 1.387 1_655 S
C114 C116 1.387 . S
H115 C122 0.950 . S
C116 C114 1.387 . S
C116 C118 1.390 . S
C116 H120 0.950 . S
H117 C113 0.950 . S
C118 C116 1.390 . S
C118 C119 1.397 . S
C118 H121 0.950 . S
C119 C118 1.397 . S
C119 C122 1.378 1_655 S
H120 C116 0.950 . S
H121 C118 0.950 . S
C122 C113 1.390 . S
C122 H115 0.950 . S
C122 C119 1.378 1_455 S
C123 C124 1.387 . S
C123 H127 0.950 . S
C123 C132 1.390 . S
C124 C123 1.387 . S
C124 C126 1.387 1_565 S
H125 C132 0.950 . S
C126 C124 1.387 1_545 S
C126 C128 1.390 . S
C126 H130 0.950 . S
H127 C123 0.950 . S
C128 C126 1.390 . S
C128 C129 1.387 . S
C128 H131 0.950 . S
C129 C128 1.387 . S
C129 C132 1.387 1_545 S
H130 C126 0.950 . S
H131 C128 0.950 . S
C132 C123 1.390 . S
C132 H125 0.950 . S
C132 C129 1.387 1_565 S
C133 C134 1.387 . S
C133 H137 0.950 . S
C133 C142 1.390 . S
C134 C133 1.387 . S
C134 C136 1.387 1_455 S
H135 C142 0.950 . S
C136 C134 1.387 1_655 S
C136 C138 1.390 . S
C136 H140 0.950 . S
H137 C133 0.950 . S
C138 C136 1.390 . S
C138 C139 1.390 . S
C138 H141 0.950 . S
C139 C138 1.390 . S
C139 C142 1.384 1_655 S
H140 C136 0.950 . S
H141 C138 0.950 . S
C142 C133 1.390 . S
C142 H135 0.950 . S
C142 C139 1.384 1_455 S
C143 C144 1.387 . S
C143 H147 0.950 . S
C143 C152 1.390 . S
C144 C143 1.387 . S
C144 C146 1.387 1_545 S
H145 C152 0.950 . S
C146 C144 1.387 1_565 S
C146 C148 1.390 . S
C146 H150 0.950 . S
H147 C143 0.950 . S
C148 C146 1.390 . S
C148 C149 1.387 1_565 S
C148 H151 0.950 . S
C149 C148 1.387 1_545 S
C149 C152 1.387 . S
H150 C146 0.950 . S
H151 C148 0.950 . S
C152 C143 1.390 . S
C152 H145 0.950 . S
C152 C149 1.387 . S
C153 C154 1.387 1_455 S
C153 H157 0.950 . S
C153 C162 1.390 . S
C154 C153 1.387 1_655 S
C154 C156 1.387 . S
H155 C162 0.950 . S
C156 C154 1.387 . S
C156 C158 1.390 . S
C156 H160 0.950 . S
H157 C153 0.950 . S
C158 C156 1.390 . S
C158 C159 1.395 . S
C158 H161 0.950 . S
C159 C158 1.395 . S
C159 C162 1.381 1_655 S
H160 C156 0.950 . S
H161 C158 0.950 . S
C162 C153 1.390 . S
C162 H155 0.950 . S
C162 C159 1.381 1_455 S
C163 C164 1.397 . S
C163 H167 0.950 . S
C163 C172 1.390 . S
C164 C163 1.397 . S
C164 C166 1.377 1_565 S
H165 C172 0.950 . S
C166 C164 1.377 1_545 S
C166 C168 1.390 . S
C166 H170 0.950 . S
H167 C163 0.950 . S
C168 C166 1.390 . S
C168 C169 1.387 . S
C168 H171 0.950 . S
C169 C168 1.387 . S
C169 C172 1.387 1_545 S
H170 C166 0.950 . S
H171 C168 0.950 . S
C172 C163 1.390 . S
C172 H165 0.950 . S
C172 C169 1.387 1_565 S
C173 C174 1.387 1_655 S
C173 H177 0.950 . S
C173 C182 1.390 . S
C174 C173 1.387 1_455 S
C174 C176 1.387 . S
H175 C182 0.950 . S
C176 C174 1.387 . S
C176 C178 1.390 . S
C176 H180 0.950 . S
H177 C173 0.950 . S
C178 C176 1.390 . S
C178 C179 1.387 . S
C178 H181 0.950 . S
C179 C178 1.387 . S
C179 C182 1.387 1_455 S
H180 C176 0.950 . S
H181 C178 0.950 . S
C182 C173 1.390 . S
C182 H175 0.950 . S
C182 C179 1.387 1_655 S
C183 C184 1.387 . S
C183 H187 0.950 . S
C183 C192 1.390 . S
C184 C183 1.387 . S
C184 C186 1.387 1_545 S
H185 C192 0.950 . S
C186 C184 1.387 1_565 S
C186 C188 1.390 . S
C186 H190 0.950 . S
H187 C183 0.950 . S
C188 C186 1.390 . S
C188 C189 1.387 1_565 S
C188 H191 0.950 . S
C189 C188 1.387 1_545 S
C189 C192 1.387 . S
H190 C186 0.950 . S
H191 C188 0.950 . S
C192 C183 1.390 . S
C192 H185 0.950 . S
C192 C189 1.387 . S
C193 C194 1.387 1_554 S
C193 H197 0.950 . S
C193 C202 1.390 . S
C194 C193 1.387 1_556 S
C194 C196 1.387 . S
H195 C202 0.950 . S
C196 C194 1.387 . S
C196 C198 1.390 . S
C196 H200 0.950 . S
H197 C193 0.950 . S
C198 C196 1.390 . S
C198 C199 1.374 1_556 S
C198 H201 0.950 . S
C199 C198 1.374 1_554 S
C199 C202 1.401 . S
H200 C196 0.950 . S
H201 C198 0.950 . S
C202 C193 1.390 . S
C202 H195 0.950 . S
C202 C199 1.401 . S
C203 C204 1.387 . S
C203 H207 0.950 . S
C203 C212 1.390 . S
C204 C203 1.387 . S
C204 C206 1.387 1_554 S
H205 C212 0.950 . S
C206 C204 1.387 1_556 S
C206 C208 1.390 . S
C206 H210 0.950 . S
H207 C203 0.950 . S
C208 C206 1.390 . S
C208 C209 1.387 1_556 S
C208 H211 0.950 . S
C209 C208 1.387 1_554 S
C209 C212 1.387 . S
H210 C206 0.950 . S
H211 C208 0.950 . S
C212 C203 1.390 . S
C212 H205 0.950 . S
C212 C209 1.387 . S
C213 C214 1.387 . S
C213 H217 0.950 . S
C213 C222 1.390 . S
C214 C213 1.387 . S
C214 C216 1.387 1_554 S
H215 C222 0.950 . S
C216 C214 1.387 1_556 S
C216 C218 1.390 . S
C216 H220 0.950 . S
H217 C213 0.950 . S
C218 C216 1.390 . S
C218 C219 1.387 1_556 S
C218 H221 0.950 . S
C219 C218 1.387 1_554 S
C219 C222 1.387 . S
H220 C216 0.950 . S
H221 C218 0.950 . S
C222 C213 1.390 . S
C222 H215 0.950 . S
C222 C219 1.387 . S
C223 C224 1.374 1_554 S
C223 H227 0.950 . S
C223 C232 1.390 . S
C224 C223 1.374 1_556 S
C224 C226 1.400 . S
H225 C232 0.950 . S
C226 C224 1.400 . S
C226 C228 1.390 . S
C226 H230 0.950 . S
H227 C223 0.950 . S
C228 C226 1.390 . S
C228 C229 1.387 1_556 S
C228 H231 0.950 . S
C229 C228 1.387 1_554 S
C229 C232 1.387 . S
H230 C226 0.950 . S
H231 C228 0.950 . S
C232 C223 1.390 . S
C232 H225 0.950 . S
C232 C229 1.387 . S
C119 C64 1.293 1_655 S
C114 C9 1.277 . S
C129 C71 1.561 . S
C124 C38 1.505 1_565 S
C139 C66 1.308 . S
C134 C17 1.276 1_455 S
C149 C72 1.543 . S
C144 C30 1.503 . S
C154 C19 1.277 . S
C159 C65 1.286 1_655 S
C169 C74 1.558 . S
C164 C33 1.490 1_565 S
C174 C12 1.270 1_455 S
C179 C63 1.306 . S
C184 C40 1.505 . S
C189 C73 1.535 . S
C194 C59 1.812 1_556 S
C199 C68 1.854 . S
C204 C61 1.811 . S
C209 C67 1.830 . S
C219 C70 1.837 . S
C214 C51 1.809 . S
C229 C69 1.853 . S
C224 C54 1.797 1_556 S
