# Generated by pormake.
# Topology tsx, (6,3)-cn, num edge types: 1
# Building blocks:
#     Node 0, Type 0, BuildingBlock: CIFDUS_clean_sbu_1, # of connection points: 6
#     Node 1, Type 0, BuildingBlock: CIFDUS_clean_sbu_1, # of connection points: 6
#     Node 2, Type 1, BuildingBlock: QEWDON_clean_linker_0, # of connection points: 3
#     Node 3, Type 1, BuildingBlock: QEWDON_clean_linker_0, # of connection points: 3
#     Node 4, Type 1, BuildingBlock: QEWDON_clean_linker_0, # of connection points: 3
#     Node 5, Type 1, BuildingBlock: QEWDON_clean_linker_0, # of connection points: 3
#     Edge 6, Type (0, 1), BuildingBlock: EYOCIG_clean_linker_4, # of connection points: 2
#     Edge 7, Type (0, 1), BuildingBlock: EYOCIG_clean_linker_4, # of connection points: 2
#     Edge 8, Type (0, 1), BuildingBlock: EYOCIG_clean_linker_4, # of connection points: 2
#     Edge 9, Type (0, 1), BuildingBlock: EYOCIG_clean_linker_4, # of connection points: 2
#     Edge 10, Type (0, 1), BuildingBlock: EYOCIG_clean_linker_4, # of connection points: 2
#     Edge 11, Type (0, 1), BuildingBlock: EYOCIG_clean_linker_4, # of connection points: 2
#     Edge 12, Type (0, 1), BuildingBlock: EYOCIG_clean_linker_4, # of connection points: 2
#     Edge 13, Type (0, 1), BuildingBlock: EYOCIG_clean_linker_4, # of connection points: 2
#     Edge 14, Type (0, 1), BuildingBlock: EYOCIG_clean_linker_4, # of connection points: 2
#     Edge 15, Type (0, 1), BuildingBlock: EYOCIG_clean_linker_4, # of connection points: 2
#     Edge 16, Type (0, 1), BuildingBlock: EYOCIG_clean_linker_4, # of connection points: 2
#     Edge 17, Type (0, 1), BuildingBlock: EYOCIG_clean_linker_4, # of connection points: 2
# Relax obj value: 0.106
# Max RMSD: 0.196
# Mean RMSD: 0.144
data_MOF--net-tsx--node1-CIFDUS_clean_sbu_1--node2-QEWDON_clean_linker_0--edge1-EYOCIG_clean_linker_4
_symmetry_space_group_name_H-M    P1
_symmetry_Int_Tables_number       1
_symmetry_cell_setting            triclinic
loop_
_symmetry_equiv_pos_as_xyz
'x, y, z'
_cell_length_a     16.284147
_cell_length_b     19.689413
_cell_length_c     26.769277
_cell_angle_alpha  96.961149
_cell_angle_beta   108.22959
_cell_angle_gamma 92.626211
loop_
_atom_site_label
_atom_site_type_symbol
_atom_site_fract_x
_atom_site_fract_y
_atom_site_fract_z
_atom_type_partial_charge
O0 O -0.00091 0.10064 0.00802 0.0
Mn1 Mn 0.06483 0.0117 0.00487 0.0
O2 O 0.86295 0.0745 0.95114 0.0
Mn3 Mn 0.88051 -0.01178 0.92312 0.0
O4 O 0.13036 0.92248 0.00103 0.0
O5 O 0.17715 0.07175 0.03392 0.0
Mn6 Mn 0.25176 0.03556 0.08436 0.0
O7 O 0.06473 -0.00068 0.08191 0.0
O8 O 0.2697 0.95263 0.05166 0.0
O9 O 0.06627 0.02225 0.92798 0.0
O10 O 0.93255 0.98573 0.87147 0.0
O11 O 0.30775 0.11647 0.07851 0.0
O12 O 0.20162 0.02849 0.13691 0.0
C13 C 0.88993 0.90615 0.96796 0.0
C14 C 0.92136 0.11589 0.98555 0.0
C15 C 0.21018 0.90979 0.01975 0.0
C16 C 0.23574 0.12192 0.04176 0.0
C17 C 0.1223 0.00872 0.12837 0.0
C18 C 0.01159 0.00638 0.88096 0.0
O19 O 0.952 0.95312 0.97566 0.0
O20 O 0.81945 0.91175 0.92995 0.0
O21 O 0.49925 0.60031 0.50781 0.0
Mn22 Mn 0.56491 0.51144 0.50503 0.0
O23 O 0.36269 0.57405 0.45165 0.0
Mn24 Mn 0.38016 0.48774 0.42358 0.0
O25 O 0.63094 0.42235 0.50152 0.0
O26 O 0.67683 0.57186 0.53425 0.0
Mn27 Mn 0.75176 0.53587 0.58466 0.0
O28 O 0.56446 0.49951 0.58202 0.0
O29 O 0.77033 0.45331 0.55172 0.0
O30 O 0.56619 0.52156 0.42802 0.0
O31 O 0.43199 0.48547 0.37182 0.0
O32 O 0.80686 0.61738 0.57906 0.0
O33 O 0.70141 0.52818 0.63708 0.0
C34 C 0.39068 0.40546 0.46842 0.0
C35 C 0.42153 0.61562 0.48558 0.0
C36 C 0.71102 0.41016 0.51998 0.0
C37 C 0.73472 0.6226 0.54235 0.0
C38 C 0.62196 0.50879 0.62849 0.0
C39 C 0.51107 0.50586 0.38109 0.0
O40 O 0.45228 0.45273 0.47591 0.0
O41 O 0.31979 0.41097 0.43069 0.0
H42 H 0.1026 0.04096 0.38518 0.0
C43 C 0.12598 -0.00384 0.40254 0.0
C44 C 0.15038 0.94575 0.37004 0.0
C45 C 0.13382 -0.01061 0.45576 0.0
H46 H 0.21491 0.85303 0.36721 0.0
C47 C 0.19246 0.89083 0.3918 0.0
C48 C 0.20868 0.88631 0.44588 0.0
C49 C 0.17637 0.93358 0.47718 0.0
C50 C 0.10066 0.04223 0.48806 0.0
H51 H 0.18638 0.92683 0.51803 0.0
C52 C 0.03774 0.10029 0.45556 0.0
C53 C 0.00408 0.19475 0.52289 0.0
C54 C 0.1329 0.04953 0.55567 0.0
H55 H 0.1742 0.01229 0.57426 0.0
C56 C 0.11327 0.1116 0.59972 0.0
H57 H 0.01208 0.08969 0.4123 0.0
C58 C 0.05339 0.17968 0.58646 0.0
H59 H 0.04359 0.21269 0.61913 0.0
H60 H 0.1422 0.107 0.64133 0.0
H61 H 0.97982 0.09636 0.62507 0.0
C62 C 0.96085 0.04586 0.60241 0.0
C63 C 0.94383 -0.00601 0.62942 0.0
C64 C 0.95739 0.03116 0.54873 0.0
H65 H 0.88364 0.89237 0.62205 0.0
C66 C 0.90112 0.93162 0.60109 0.0
C67 C 0.87972 0.92023 0.54571 0.0
C68 C 0.91166 0.9684 0.51974 0.0
C69 C 0.98734 0.08435 0.5195 0.0
H70 H 0.89968 0.95774 0.47727 0.0
C71 C 0.1294 0.15931 0.52572 0.0
C72 C 0.10966 0.21247 0.48 0.0
C73 C 0.90177 0.10525 0.46776 0.0
H74 H 0.83762 0.07984 0.45925 0.0
C75 C 0.91572 0.16606 0.42977 0.0
H76 H 0.19682 0.1618 0.55194 0.0
C77 C 0.00931 0.21478 0.43622 0.0
H78 H 0.00405 0.25053 0.40793 0.0
H79 H 0.85862 0.17534 0.39833 0.0
H80 H 0.60327 0.54185 0.88551 0.0
C81 C 0.626 0.49673 0.90266 0.0
C82 C 0.64955 0.446 0.87001 0.0
C83 C 0.63364 0.48985 0.9558 0.0
H84 H 0.71267 0.35257 0.86688 0.0
C85 C 0.69078 0.39061 0.89158 0.0
C86 C 0.70688 0.38594 0.94565 0.0
C87 C 0.67524 0.43359 0.97707 0.0
C88 C 0.60084 0.54285 0.9881 0.0
H89 H 0.68498 0.42678 0.01789 0.0
C90 C 0.53721 0.60054 0.95556 0.0
C91 C 0.50289 0.69459 0.02291 0.0
C92 C 0.63339 0.55027 0.05571 0.0
H93 H 0.67515 0.51328 0.07428 0.0
C94 C 0.61326 0.61209 0.09975 0.0
H95 H 0.51151 0.58984 0.91229 0.0
C96 C 0.55263 0.67973 0.08649 0.0
H97 H 0.54265 0.71259 0.11916 0.0
H98 H 0.64241 0.6076 0.14135 0.0
H99 H 0.47969 0.59562 0.12501 0.0
C100 C 0.46117 0.54509 0.10235 0.0
C101 C 0.44407 0.49305 0.1292 0.0
C102 C 0.45822 0.53056 0.04876 0.0
H103 H 0.38468 0.39105 0.12153 0.0
C104 C 0.40223 0.43046 0.10073 0.0
C105 C 0.38188 0.41902 0.0454 0.0
C106 C 0.41366 0.46752 0.01967 0.0
C107 C 0.48731 0.58416 0.01961 0.0
H108 H 0.4023 0.45696 0.97725 0.0
C109 C 0.62855 0.66001 0.02561 0.0
C110 C 0.60796 0.71312 0.97982 0.0
C111 C 0.40128 0.60456 0.96795 0.0
H112 H 0.3374 0.5787 0.95951 0.0
C113 C 0.41435 0.66547 0.92985 0.0
H114 H 0.69606 0.66287 0.05174 0.0
C115 C 0.50738 0.71479 0.93613 0.0
H116 H 0.50156 0.75054 0.90779 0.0
H117 H 0.35699 0.6744 0.89845 0.0
C118 C 0.24389 0.23692 0.00387 0.0
C119 C 0.22585 0.18166 0.01498 0.0
C120 C 0.28488 0.30243 0.00481 0.0
C121 C 0.32868 0.35687 0.01703 0.0
C122 C 0.29232 0.80536 0.00457 0.0
C123 C 0.23893 0.84549 0.00469 0.0
C124 C 0.36913 0.77196 0.01265 0.0
C125 C 0.43126 0.73895 0.02053 0.0
C126 C 0.84123 0.8092 0.00411 0.0
C127 C 0.89024 0.85329 0.99952 0.0
C128 C 0.75757 0.7762 0.99139 0.0
C129 C 0.68365 0.75251 0.97997 0.0
C130 C 0.86004 0.23546 0.99547 0.0
C131 C 0.89769 0.18412 0.99587 0.0
C132 C 0.80685 0.29005 0.9845 0.0
C133 C 0.76096 0.33472 0.96924 0.0
C134 C 0.74088 0.73847 0.50524 0.0
C135 C 0.7238 0.68279 0.51609 0.0
C136 C 0.7814 0.80409 0.50592 0.0
C137 C 0.82563 0.85833 0.51767 0.0
C138 C 0.79406 0.30627 0.50453 0.0
C139 C 0.74035 0.34611 0.50482 0.0
C140 C 0.8709 0.27285 0.51252 0.0
C141 C 0.93279 0.23953 0.52047 0.0
C142 C 0.34354 0.30775 0.50442 0.0
C143 C 0.392 0.35226 0.49981 0.0
C144 C 0.25995 0.27464 0.49172 0.0
C145 C 0.18586 0.25131 0.48029 0.0
C146 C 0.36206 0.73598 0.49527 0.0
C147 C 0.39864 0.68414 0.49554 0.0
C148 C 0.30948 0.79094 0.48462 0.0
C149 C 0.2632 0.83541 0.4695 0.0
C150 C 0.10095 0.97777 0.21656 0.0
C151 C 0.10084 -0.00983 0.17343 0.0
C152 C 0.11567 0.96292 0.26897 0.0
C153 C 0.13299 0.95261 0.31458 0.0
C154 C 0.03108 0.01602 0.78975 0.0
C155 C 0.03618 0.01514 0.83538 0.0
C156 C 0.00467 0.01141 0.73412 0.0
C157 C 0.97701 0.0036 0.68641 0.0
C158 C 0.59995 0.47846 0.71665 0.0
C159 C 0.60013 0.49063 0.67352 0.0
C160 C 0.61459 0.46352 0.76902 0.0
C161 C 0.63202 0.45298 0.81457 0.0
C162 C 0.52968 0.51512 0.28959 0.0
C163 C 0.53519 0.51437 0.3353 0.0
C164 C 0.5034 0.51049 0.23395 0.0
C165 C 0.47644 0.50271 0.18622 0.0
loop_
_geom_bond_atom_site_label_1
_geom_bond_atom_site_label_2
_geom_bond_distance
_geom_bond_site_symmetry_2
_ccdc_geom_bond_type
O0 Mn1 2.163 . S
O0 C14 1.244 1_455 S
Mn1 O0 2.163 . S
Mn1 O4 2.160 1_545 S
Mn1 O5 2.221 1_556 S
Mn1 O7 2.162 1_546 S
Mn1 O9 2.160 . S
Mn1 O19 2.221 1_445 S
O2 Mn3 2.087 1_545 S
O2 C14 1.256 . S
Mn3 O2 2.087 1_565 S
Mn3 O10 2.089 1_565 S
Mn3 O19 2.290 . S
Mn3 O20 2.251 . S
O4 Mn1 2.160 1_565 S
O4 C15 1.239 1_556 S
O5 Mn1 2.221 1_554 S
O5 Mn6 2.290 . S
O5 C16 1.278 . S
Mn6 O5 2.290 . S
Mn6 O8 2.089 1_545 S
Mn6 O11 2.251 . S
Mn6 O12 2.087 . S
O7 Mn1 2.162 1_564 S
O7 C17 1.244 1_565 S
O8 Mn6 2.089 1_565 S
O8 C15 1.256 . S
O9 Mn1 2.160 . S
O9 C18 1.239 . S
O10 Mn3 2.089 1_545 S
O10 C18 1.256 1_655 S
O11 Mn6 2.251 . S
O11 C16 1.241 . S
O12 Mn6 2.087 . S
O12 C17 1.256 . S
C13 O19 1.278 . S
C13 O20 1.241 . S
C14 O0 1.244 1_655 S
C14 O2 1.256 . S
C15 O4 1.239 1_554 S
C15 O8 1.256 . S
C16 O5 1.278 . S
C16 O11 1.241 . S
C17 O7 1.244 1_545 S
C17 O12 1.256 . S
C18 O9 1.239 . S
C18 O10 1.256 1_455 S
O19 Mn1 2.221 1_665 S
O19 Mn3 2.290 . S
O19 C13 1.278 . S
O20 Mn3 2.251 . S
O20 C13 1.241 . S
O21 Mn22 2.163 . S
O21 C35 1.244 . S
Mn22 O21 2.163 . S
Mn22 O25 2.160 . S
Mn22 O26 2.221 . S
Mn22 O28 2.163 . S
Mn22 O30 2.160 . S
Mn22 O40 2.221 . S
O23 Mn24 2.087 . S
O23 C35 1.256 . S
Mn24 O23 2.087 . S
Mn24 O31 2.089 . S
Mn24 O40 2.290 . S
Mn24 O41 2.251 . S
O25 Mn22 2.160 . S
O25 C36 1.239 . S
O26 Mn22 2.221 . S
O26 Mn27 2.290 . S
O26 C37 1.278 . S
Mn27 O26 2.290 . S
Mn27 O29 2.089 . S
Mn27 O32 2.251 . S
Mn27 O33 2.087 . S
O28 Mn22 2.163 . S
O28 C38 1.244 . S
O29 Mn27 2.089 . S
O29 C36 1.256 . S
O30 Mn22 2.160 . S
O30 C39 1.239 . S
O31 Mn24 2.089 . S
O31 C39 1.256 . S
O32 Mn27 2.251 . S
O32 C37 1.241 . S
O33 Mn27 2.087 . S
O33 C38 1.256 . S
C34 O40 1.278 . S
C34 O41 1.241 . S
C35 O21 1.244 . S
C35 O23 1.256 . S
C36 O25 1.239 . S
C36 O29 1.256 . S
C37 O26 1.278 . S
C37 O32 1.241 . S
C38 O28 1.244 . S
C38 O33 1.256 . S
C39 O30 1.239 . S
C39 O31 1.256 . S
O40 Mn22 2.221 . S
O40 Mn24 2.290 . S
O40 C34 1.278 . S
O41 Mn24 2.251 . S
O41 C34 1.241 . S
H42 C43 0.949 . S
C43 H42 0.949 . S
C43 C44 1.395 1_545 S
C43 C45 1.391 . S
C44 C43 1.395 1_565 S
C44 C47 1.390 . S
C45 C43 1.391 . S
C45 C49 1.387 1_545 S
C45 C50 1.491 . S
H46 C47 0.950 . S
C47 C44 1.390 . S
C47 H46 0.950 . S
C47 C48 1.378 . S
C48 C47 1.378 . S
C48 C49 1.409 . S
C49 C45 1.387 1_565 S
C49 C48 1.409 . S
C49 H51 0.951 . S
C50 C45 1.491 . S
C50 C52 1.382 . S
C50 C54 1.404 . S
H51 C49 0.951 . S
C52 C50 1.382 . S
C52 C53 1.390 1_455 S
C52 H57 0.949 1_455 S
C53 C52 1.390 1_655 S
C53 C58 1.399 1_655 S
C54 C50 1.404 . S
C54 H55 0.950 . S
C54 C56 1.375 . S
H55 C54 0.950 . S
C56 C54 1.375 . S
C56 C58 1.382 . S
C56 H60 0.950 . S
H57 C52 0.949 1_655 S
C58 C53 1.399 1_455 S
C58 C56 1.382 . S
C58 H59 0.952 . S
H59 C58 0.952 . S
H60 C56 0.950 . S
H61 C62 0.953 . S
C62 H61 0.953 . S
C62 C63 1.391 1_455 S
C62 C64 1.391 1_455 S
C63 C62 1.391 1_655 S
C63 C66 1.390 1_545 S
C64 C62 1.391 1_655 S
C64 C68 1.387 . S
C64 C69 1.491 1_655 S
H65 C66 0.950 . S
C66 C63 1.390 1_565 S
C66 H65 0.950 . S
C66 C67 1.378 . S
C67 C66 1.378 . S
C67 C68 1.409 1_565 S
C68 C64 1.387 . S
C68 C67 1.409 1_545 S
C68 H70 0.951 1_545 S
C69 C64 1.491 1_455 S
C69 C71 1.382 . S
C69 C73 1.404 1_455 S
H70 C68 0.951 1_565 S
C71 C69 1.382 . S
C71 C72 1.390 . S
C71 H76 0.949 . S
C72 C71 1.390 . S
C72 C77 1.399 . S
C73 C69 1.404 1_655 S
C73 H74 0.950 . S
C73 C75 1.375 . S
H74 C73 0.950 . S
C75 C73 1.375 . S
C75 C77 1.382 1_655 S
C75 H79 0.950 . S
H76 C71 0.949 . S
C77 C72 1.399 . S
C77 C75 1.382 1_455 S
C77 H78 0.952 . S
H78 C77 0.952 . S
H79 C75 0.950 . S
H80 C81 0.949 . S
C81 H80 0.949 . S
C81 C82 1.395 . S
C81 C83 1.391 . S
C82 C81 1.395 . S
C82 C85 1.390 . S
C83 C81 1.391 . S
C83 C87 1.387 . S
C83 C88 1.491 1_556 S
H84 C85 0.950 . S
C85 C82 1.390 . S
C85 H84 0.950 . S
C85 C86 1.378 . S
C86 C85 1.378 . S
C86 C87 1.409 . S
C87 C83 1.387 . S
C87 C86 1.409 . S
C87 H89 0.951 1_556 S
C88 C83 1.491 1_554 S
C88 C90 1.382 1_554 S
C88 C92 1.404 . S
H89 C87 0.951 1_554 S
C90 C88 1.382 1_556 S
C90 C91 1.390 1_556 S
C90 H95 0.949 . S
C91 C90 1.390 1_554 S
C91 C96 1.399 . S
C92 C88 1.404 . S
C92 H93 0.950 . S
C92 C94 1.375 . S
H93 C92 0.950 . S
C94 C92 1.375 . S
C94 C96 1.382 . S
C94 H98 0.950 . S
H95 C90 0.949 . S
C96 C91 1.399 . S
C96 C94 1.382 . S
C96 H97 0.952 . S
H97 C96 0.952 . S
H98 C94 0.950 . S
H99 C100 0.949 . S
C100 H99 0.949 . S
C100 C101 1.395 . S
C100 C102 1.391 . S
C101 C100 1.395 . S
C101 C104 1.390 . S
C102 C100 1.391 . S
C102 C106 1.387 . S
C102 C107 1.491 . S
H103 C104 0.950 . S
C104 C101 1.390 . S
C104 H103 0.950 . S
C104 C105 1.378 . S
C105 C104 1.378 . S
C105 C106 1.409 . S
C106 C102 1.387 . S
C106 C105 1.409 . S
C106 H108 0.951 1_554 S
C107 C102 1.491 . S
C107 C109 1.382 . S
C107 C111 1.404 1_554 S
H108 C106 0.951 1_556 S
C109 C107 1.382 . S
C109 C110 1.390 1_554 S
C109 H114 0.949 . S
C110 C109 1.390 1_556 S
C110 C115 1.399 . S
C111 C107 1.404 1_556 S
C111 H112 0.950 . S
C111 C113 1.375 . S
H112 C111 0.950 . S
C113 C111 1.375 . S
C113 C115 1.382 . S
C113 H117 0.950 . S
H114 C109 0.949 . S
C115 C110 1.399 . S
C115 C113 1.382 . S
C115 H116 0.952 . S
H116 C115 0.952 . S
H117 C113 0.950 . S
C118 C119 1.170 . S
C118 C120 1.380 . S
C119 C118 1.170 . S
C120 C118 1.380 . S
C120 C121 1.170 . S
C121 C120 1.170 . S
C122 C123 1.170 . S
C122 C124 1.380 . S
C123 C122 1.170 . S
C124 C122 1.380 . S
C124 C125 1.170 . S
C125 C124 1.170 . S
C126 C127 1.170 . S
C126 C128 1.380 . S
C127 C126 1.170 . S
C128 C126 1.380 . S
C128 C129 1.170 . S
C129 C128 1.170 . S
C130 C131 1.170 . S
C130 C132 1.380 . S
C131 C130 1.170 . S
C132 C130 1.380 . S
C132 C133 1.170 . S
C133 C132 1.170 . S
C134 C135 1.170 . S
C134 C136 1.380 . S
C135 C134 1.170 . S
C136 C134 1.380 . S
C136 C137 1.170 . S
C137 C136 1.170 . S
C138 C139 1.170 . S
C138 C140 1.380 . S
C139 C138 1.170 . S
C140 C138 1.380 . S
C140 C141 1.170 . S
C141 C140 1.170 . S
C142 C143 1.170 . S
C142 C144 1.380 . S
C143 C142 1.170 . S
C144 C142 1.380 . S
C144 C145 1.170 . S
C145 C144 1.170 . S
C146 C147 1.170 . S
C146 C148 1.380 . S
C147 C146 1.170 . S
C148 C146 1.380 . S
C148 C149 1.170 . S
C149 C148 1.170 . S
C150 C151 1.173 . S
C150 C152 1.380 . S
C151 C150 1.173 . S
C152 C150 1.380 . S
C152 C153 1.170 . S
C153 C152 1.170 . S
C154 C155 1.170 . S
C154 C156 1.380 . S
C155 C154 1.170 . S
C156 C154 1.380 . S
C156 C157 1.170 1_455 S
C157 C156 1.170 1_655 S
C158 C159 1.170 . S
C158 C160 1.380 . S
C159 C158 1.170 . S
C160 C158 1.380 . S
C160 C161 1.170 . S
C161 C160 1.170 . S
C162 C163 1.170 . S
C162 C164 1.380 . S
C163 C162 1.170 . S
C164 C162 1.380 . S
C164 C165 1.170 . S
C165 C164 1.170 . S
C121 C105 1.539 . S
C119 C16 1.457 . S
C123 C15 1.482 . S
C125 C91 1.480 . S
C127 C13 1.246 . S
C129 C110 1.467 . S
C131 C14 1.483 . S
C133 C86 1.509 . S
C135 C37 1.444 . S
C137 C67 1.539 . S
C139 C36 1.476 . S
C141 C53 1.479 . S
C145 C72 1.487 . S
C143 C34 1.311 . S
C149 C48 1.508 . S
C147 C35 1.494 . S
C151 C17 1.613 1_565 S
C153 C44 1.658 . S
C155 C18 1.422 . S
C157 C63 1.435 . S
C161 C82 1.662 . S
C159 C38 1.625 . S
C163 C39 1.421 . S
C165 C101 1.434 . S
