# Generated by pormake.
# Topology rtl, (3,6)-cn, num edge types: 1
# Building blocks:
#     Node 0, Type 0, BuildingBlock: CUQRIR_clean_linker_1, # of connection points: 3
#     Node 1, Type 0, BuildingBlock: CUQRIR_clean_linker_1, # of connection points: 3
#     Node 2, Type 0, BuildingBlock: CUQRIR_clean_linker_1, # of connection points: 3
#     Node 3, Type 0, BuildingBlock: CUQRIR_clean_linker_1, # of connection points: 3
#     Node 4, Type 1, BuildingBlock: VOLQOD_clean_sbu_1, # of connection points: 6
#     Node 5, Type 1, BuildingBlock: VOLQOD_clean_sbu_1, # of connection points: 6
#     Edge 6, Type (0, 1), None
#     Edge 7, Type (0, 1), None
#     Edge 8, Type (0, 1), None
#     Edge 9, Type (0, 1), None
#     Edge 10, Type (0, 1), None
#     Edge 11, Type (0, 1), None
#     Edge 12, Type (0, 1), None
#     Edge 13, Type (0, 1), None
#     Edge 14, Type (0, 1), None
#     Edge 15, Type (0, 1), None
#     Edge 16, Type (0, 1), None
#     Edge 17, Type (0, 1), None
# Relax obj value: 0.041
# Max RMSD: 0.143
# Mean RMSD: 0.092
data_MOF--net-rtl--node1-VOLQOD_clean_sbu_1--node2-CUQRIR_clean_linker_1--edge1-none
_symmetry_space_group_name_H-M    P1
_symmetry_Int_Tables_number       1
_symmetry_cell_setting            triclinic
loop_
_symmetry_equiv_pos_as_xyz
'x, y, z'
_cell_length_a     15.393885
_cell_length_b     15.395452
_cell_length_c     8.1966692
_cell_angle_alpha  90.025737
_cell_angle_beta   89.939498
_cell_angle_gamma 90.00121
loop_
_atom_site_label
_atom_site_type_symbol
_atom_site_fract_x
_atom_site_fract_y
_atom_site_fract_z
_atom_type_partial_charge
C0 C 0.24854 0.7787 0.88181 0.0
N1 N 0.18772 0.83741 0.92981 0.0
N2 N 0.27729 0.73082 0.00986 0.0
C3 C 0.29047 0.7787 0.71582 0.0
C4 C 0.23188 0.76301 0.13878 0.0
N5 N 0.17742 0.82784 0.09052 0.0
C6 C 0.24923 0.73794 0.31388 0.0
H7 H 0.27292 0.71771 0.65191 0.0
H8 H 0.36221 0.78098 0.728 0.0
H9 H 0.27101 0.83597 0.6427 0.0
H10 H 0.31969 0.74339 0.34019 0.0
H11 H 0.22891 0.66962 0.33419 0.0
H12 H 0.21633 0.77987 0.40307 0.0
C13 C 0.75644 0.70674 0.63383 0.0
N14 N 0.68401 0.6597 0.59674 0.0
N15 N 0.7751 0.76291 0.5114 0.0
C16 C 0.79995 0.70826 0.79896 0.0
C17 C 0.71428 0.74628 0.39683 0.0
N18 N 0.6595 0.68237 0.44627 0.0
C19 C 0.71029 0.79128 0.23356 0.0
H20 H 0.75057 0.7195 0.89521 0.0
H21 H 0.84981 0.75975 0.80986 0.0
H22 H 0.83094 0.64437 0.82219 0.0
H23 H 0.77425 0.78581 0.17181 0.0
H24 H 0.69713 0.8614 0.25251 0.0
H25 H 0.6585 0.76471 0.15396 0.0
C26 C 0.7949 0.24621 0.13108 0.0
N27 N 0.84972 0.18232 0.08158 0.0
N28 N 0.73416 0.26288 0.0164 0.0
C29 C 0.79881 0.29121 0.29443 0.0
C30 C 0.7529 0.20675 0.89387 0.0
N31 N 0.82531 0.15971 0.93099 0.0
C32 C 0.7095 0.20833 0.72864 0.0
H33 H 0.73485 0.28563 0.35614 0.0
H34 H 0.81185 0.36135 0.27563 0.0
H35 H 0.85064 0.26472 0.374 0.0
H36 H 0.6597 0.25986 0.71773 0.0
H37 H 0.67846 0.14448 0.70521 0.0
H38 H 0.75896 0.21953 0.63253 0.0
C39 C 0.27737 0.263 0.38867 0.0
N40 N 0.33183 0.32785 0.43692 0.0
N41 N 0.232 0.23082 0.51762 0.0
C42 C 0.26003 0.23782 0.21358 0.0
C43 C 0.26079 0.27874 0.64567 0.0
N44 N 0.32159 0.33743 0.59767 0.0
C45 C 0.2189 0.27876 0.8117 0.0
H46 H 0.18957 0.24329 0.18725 0.0
H47 H 0.2803 0.16947 0.19333 0.0
H48 H 0.29298 0.27966 0.12438 0.0
H49 H 0.23643 0.21776 0.87548 0.0
H50 H 0.14716 0.28107 0.79958 0.0
H51 H 0.23841 0.33602 0.8849 0.0
O52 O 0.81593 0.90292 0.46632 0.0
Zn53 Zn 0.87964 0.01752 0.49471 0.0
O54 O 0.00366 -0.00259 0.50837 0.0
Zn55 Zn 0.04966 0.04749 0.71169 0.0
Zn56 Zn 0.02637 0.87413 0.51512 0.0
Zn57 Zn 0.05716 0.0465 0.31113 0.0
O58 O 0.13732 0.14053 0.65197 0.0
O59 O 0.14645 0.13306 0.38274 0.0
O60 O 0.83647 0.0789 0.69743 0.0
O61 O 0.95406 0.10168 0.8462 0.0
O62 O 0.11095 0.95897 0.85628 0.0
O63 O 0.10874 0.84355 0.69599 0.0
O64 O 0.0872 0.83558 0.31038 0.0
O65 O 0.85045 0.09846 0.30961 0.0
O66 O 0.11689 0.9557 0.17341 0.0
O67 O 0.97171 0.11049 0.16582 0.0
C68 C 0.83708 0.82583 0.5076 0.0
C69 C 0.17026 0.16654 0.51758 0.0
C70 C 0.13343 0.88107 0.82633 0.0
C71 C 0.87253 0.10953 0.82505 0.0
C72 C 0.12276 0.8738 0.18973 0.0
C73 C 0.89176 0.12806 0.18687 0.0
O74 O 0.91492 0.80674 0.54638 0.0
O75 O 0.69337 0.40292 0.06135 0.0
Zn76 Zn 0.62968 0.51753 0.03293 0.0
O77 O 0.50565 0.49742 0.01925 0.0
Zn78 Zn 0.45971 0.54748 0.81593 0.0
Zn79 Zn 0.48293 0.37414 0.0124 0.0
Zn80 Zn 0.45207 0.54653 0.21647 0.0
O81 O 0.37205 0.64052 0.87557 0.0
O82 O 0.36278 0.63308 0.14478 0.0
O83 O 0.6729 0.57892 0.83026 0.0
O84 O 0.55531 0.60164 0.68152 0.0
O85 O 0.39843 0.45896 0.67123 0.0
O86 O 0.40061 0.34357 0.83141 0.0
O87 O 0.42203 0.33559 0.21702 0.0
O88 O 0.6588 0.59844 0.21821 0.0
O89 O 0.39231 0.45573 0.35412 0.0
O90 O 0.5375 0.61056 0.3619 0.0
C91 C 0.6722 0.32581 0.02014 0.0
C92 C 0.33904 0.66655 0.00993 0.0
C93 C 0.37593 0.38108 0.70111 0.0
C94 C 0.63683 0.60952 0.70266 0.0
C95 C 0.38646 0.37382 0.33771 0.0
C96 C 0.61747 0.62806 0.34096 0.0
O97 O 0.59437 0.30672 0.98128 0.0
loop_
_geom_bond_atom_site_label_1
_geom_bond_atom_site_label_2
_geom_bond_distance
_geom_bond_site_symmetry_2
_ccdc_geom_bond_type
C0 N1 1.317 . S
C0 N2 1.348 1_556 S
C0 C3 1.485 . S
N1 C0 1.317 . S
N1 N5 1.370 1_556 S
N2 C0 1.348 1_554 S
N2 C4 1.346 . S
C3 C0 1.485 . S
C3 H7 0.960 . S
C3 H8 0.961 . S
C3 H9 0.960 . S
C4 N2 1.346 . S
C4 N5 1.307 . S
C4 C6 1.486 . S
N5 N1 1.370 1_554 S
N5 C4 1.307 . S
C6 C4 1.486 . S
C6 H10 0.960 . S
C6 H11 0.960 . S
C6 H12 0.959 . S
H7 C3 0.960 . S
H8 C3 0.961 . S
H9 C3 0.960 . S
H10 C6 0.960 . S
H11 C6 0.960 . S
H12 C6 0.959 . S
C13 N14 1.317 . S
C13 N15 1.348 . S
C13 C16 1.485 . S
N14 C13 1.317 . S
N14 N18 1.370 . S
N15 C13 1.348 . S
N15 C17 1.346 . S
C16 C13 1.485 . S
C16 H20 0.960 . S
C16 H21 0.961 . S
C16 H22 0.960 . S
C17 N15 1.346 . S
C17 N18 1.307 . S
C17 C19 1.486 . S
N18 N14 1.370 . S
N18 C17 1.307 . S
C19 C17 1.486 . S
C19 H23 0.960 . S
C19 H24 0.960 . S
C19 H25 0.959 . S
H20 C16 0.960 . S
H21 C16 0.961 . S
H22 C16 0.960 . S
H23 C19 0.960 . S
H24 C19 0.960 . S
H25 C19 0.959 . S
C26 N27 1.317 . S
C26 N28 1.348 . S
C26 C29 1.485 . S
N27 C26 1.317 . S
N27 N31 1.370 1_554 S
N28 C26 1.348 . S
N28 C30 1.346 1_554 S
C29 C26 1.485 . S
C29 H33 0.960 . S
C29 H34 0.961 . S
C29 H35 0.960 . S
C30 N28 1.346 1_556 S
C30 N31 1.307 . S
C30 C32 1.486 . S
N31 N27 1.370 1_556 S
N31 C30 1.307 . S
C32 C30 1.486 . S
C32 H36 0.960 . S
C32 H37 0.960 . S
C32 H38 0.959 . S
H33 C29 0.960 . S
H34 C29 0.961 . S
H35 C29 0.960 . S
H36 C32 0.960 . S
H37 C32 0.960 . S
H38 C32 0.959 . S
C39 N40 1.317 . S
C39 N41 1.348 . S
C39 C42 1.485 . S
N40 C39 1.317 . S
N40 N44 1.370 . S
N41 C39 1.348 . S
N41 C43 1.346 . S
C42 C39 1.485 . S
C42 H46 0.960 . S
C42 H47 0.961 . S
C42 H48 0.960 . S
C43 N41 1.346 . S
C43 N44 1.307 . S
C43 C45 1.486 . S
N44 N40 1.370 . S
N44 C43 1.307 . S
C45 C43 1.486 . S
C45 H49 0.960 . S
C45 H50 0.960 . S
C45 H51 0.959 . S
H46 C42 0.960 . S
H47 C42 0.961 . S
H48 C42 0.960 . S
H49 C45 0.960 . S
H50 C45 0.960 . S
H51 C45 0.959 . S
O52 Zn53 1.953 1_565 S
O52 C68 1.225 . S
Zn53 O52 1.953 1_545 S
Zn53 O54 1.949 1_655 S
Zn53 O60 1.919 . S
Zn53 O65 1.924 . S
O54 Zn53 1.949 1_455 S
O54 Zn55 1.923 . S
O54 Zn56 1.950 1_545 S
O54 Zn57 1.945 . S
Zn55 O54 1.923 . S
Zn55 O58 1.933 . S
Zn55 O61 1.941 . S
Zn55 O62 1.965 1_545 S
Zn56 O54 1.950 1_565 S
Zn56 O63 1.938 . S
Zn56 O64 1.906 . S
Zn56 O74 1.953 1_455 S
Zn57 O54 1.945 . S
Zn57 O59 1.932 . S
Zn57 O66 1.977 1_545 S
Zn57 O67 1.910 1_455 S
O58 Zn55 1.933 . S
O58 C69 1.226 . S
O59 Zn57 1.932 . S
O59 C69 1.307 . S
O60 Zn53 1.919 . S
O60 C71 1.253 . S
O61 Zn55 1.941 . S
O61 C71 1.283 1_455 S
O62 Zn55 1.965 1_565 S
O62 C70 1.303 . S
O63 Zn56 1.938 . S
O63 C70 1.247 . S
O64 Zn56 1.906 . S
O64 C72 1.304 . S
O65 Zn53 1.924 . S
O65 C73 1.311 . S
O66 Zn57 1.977 1_565 S
O66 C72 1.272 . S
O67 Zn57 1.910 1_655 S
O67 C73 1.231 . S
C68 O52 1.225 . S
C68 O74 1.298 . S
C69 O58 1.226 . S
C69 O59 1.307 . S
C70 O62 1.303 . S
C70 O63 1.247 . S
C71 O60 1.253 . S
C71 O61 1.283 1_655 S
C72 O64 1.304 . S
C72 O66 1.272 . S
C73 O65 1.311 . S
C73 O67 1.231 . S
O74 Zn56 1.953 1_655 S
O74 C68 1.298 . S
O75 Zn76 1.953 . S
O75 C91 1.225 1_556 S
Zn76 O75 1.953 . S
Zn76 O77 1.949 1_556 S
Zn76 O83 1.919 . S
Zn76 O88 1.924 1_556 S
O77 Zn76 1.949 1_554 S
O77 Zn78 1.923 1_554 S
O77 Zn79 1.950 . S
O77 Zn80 1.945 . S
Zn78 O77 1.923 1_556 S
Zn78 O81 1.933 . S
Zn78 O84 1.941 . S
Zn78 O85 1.965 . S
Zn79 O77 1.950 . S
Zn79 O86 1.938 1_554 S
Zn79 O87 1.906 . S
Zn79 O97 1.953 . S
Zn80 O77 1.945 . S
Zn80 O82 1.932 . S
Zn80 O89 1.977 . S
Zn80 O90 1.910 . S
O81 Zn78 1.933 . S
O81 C92 1.226 1_556 S
O82 Zn80 1.932 . S
O82 C92 1.307 . S
O83 Zn76 1.919 . S
O83 C94 1.253 . S
O84 Zn78 1.941 . S
O84 C94 1.283 . S
O85 Zn78 1.965 . S
O85 C93 1.303 . S
O86 Zn79 1.938 1_556 S
O86 C93 1.247 . S
O87 Zn79 1.906 . S
O87 C95 1.304 . S
O88 Zn76 1.924 1_554 S
O88 C96 1.311 . S
O89 Zn80 1.977 . S
O89 C95 1.272 . S
O90 Zn80 1.910 . S
O90 C96 1.231 . S
C91 O75 1.225 1_554 S
C91 O97 1.298 . S
C92 O81 1.226 1_554 S
C92 O82 1.307 . S
C93 O85 1.303 . S
C93 O86 1.247 . S
C94 O83 1.253 . S
C94 O84 1.283 . S
C95 O87 1.304 . S
C95 O89 1.272 . S
C96 O88 1.311 . S
C96 O90 1.231 . S
O97 Zn79 1.953 . S
O97 C91 1.298 . S
C69 N41 1.492 . S
N2 C92 1.491 . S
N15 C68 1.527 . S
N28 C91 1.524 . S
C72 N5 1.511 . S
C94 N14 1.567 . S
N27 C73 1.529 . S
N44 C93 1.527 . S
C96 N18 1.504 . S
C71 N31 1.550 . S
C95 N40 1.535 . S
N1 C70 1.551 . S
