# Generated by pormake.
# Topology ant, (3,6)-cn, num edge types: 1
# Building blocks:
#     Node 0, Type 0, BuildingBlock: PAMTOO_clean_linker_0, # of connection points: 3
#     Node 1, Type 0, BuildingBlock: PAMTOO_clean_linker_0, # of connection points: 3
#     Node 2, Type 0, BuildingBlock: PAMTOO_clean_linker_0, # of connection points: 3
#     Node 3, Type 0, BuildingBlock: PAMTOO_clean_linker_0, # of connection points: 3
#     Node 4, Type 0, BuildingBlock: PAMTOO_clean_linker_0, # of connection points: 3
#     Node 5, Type 0, BuildingBlock: PAMTOO_clean_linker_0, # of connection points: 3
#     Node 6, Type 0, BuildingBlock: PAMTOO_clean_linker_0, # of connection points: 3
#     Node 7, Type 0, BuildingBlock: PAMTOO_clean_linker_0, # of connection points: 3
#     Node 8, Type 1, BuildingBlock: MIDCAF_clean_sbu_0, # of connection points: 6
#     Node 9, Type 1, BuildingBlock: MIDCAF_clean_sbu_0, # of connection points: 6
#     Node 10, Type 1, BuildingBlock: MIDCAF_clean_sbu_0, # of connection points: 6
#     Node 11, Type 1, BuildingBlock: MIDCAF_clean_sbu_0, # of connection points: 6
#     Edge 12, Type (0, 1), None
#     Edge 13, Type (0, 1), None
#     Edge 14, Type (0, 1), None
#     Edge 15, Type (0, 1), None
#     Edge 16, Type (0, 1), None
#     Edge 17, Type (0, 1), None
#     Edge 18, Type (0, 1), None
#     Edge 19, Type (0, 1), None
#     Edge 20, Type (0, 1), None
#     Edge 21, Type (0, 1), None
#     Edge 22, Type (0, 1), None
#     Edge 23, Type (0, 1), None
#     Edge 24, Type (0, 1), None
#     Edge 25, Type (0, 1), None
#     Edge 26, Type (0, 1), None
#     Edge 27, Type (0, 1), None
#     Edge 28, Type (0, 1), None
#     Edge 29, Type (0, 1), None
#     Edge 30, Type (0, 1), None
#     Edge 31, Type (0, 1), None
#     Edge 32, Type (0, 1), None
#     Edge 33, Type (0, 1), None
#     Edge 34, Type (0, 1), None
#     Edge 35, Type (0, 1), None
# Relax obj value: 0.056
# Max RMSD: 0.147
# Mean RMSD: 0.081
data_MOF--net-ant--node1-MIDCAF_clean_sbu_0--node2-PAMTOO_clean_linker_0--edge1-none
_symmetry_space_group_name_H-M    P1
_symmetry_Int_Tables_number       1
_symmetry_cell_setting            triclinic
loop_
_symmetry_equiv_pos_as_xyz
'x, y, z'
_cell_length_a     13.046213
_cell_length_b     12.630808
_cell_length_c     32.937098
_cell_angle_alpha  84.69172
_cell_angle_beta   102.92248
_cell_angle_gamma 86.402954
loop_
_atom_site_label
_atom_site_type_symbol
_atom_site_fract_x
_atom_site_fract_y
_atom_site_fract_z
_atom_type_partial_charge
H0 H 0.18996 0.05011 -0.02165 0.0
H1 H 0.23538 0.38629 -0.02867 0.0
H2 H 0.16376 0.23224 0.08053 0.0
H3 H 0.03708 0.43023 0.04117 0.0
C4 C 0.10137 0.47664 0.03359 0.0
O5 O 0.19535 0.41307 0.04221 0.0
H6 H 0.07992 0.50898 -8e-05 0.0
C7 C 0.19791 0.1237 -0.00747 0.0
C8 C 0.18084 0.12906 0.03326 0.0
C9 C 0.21638 0.21623 -0.03092 0.0
C10 C 0.22333 0.31201 -0.0118 0.0
C11 C 0.20322 0.31756 0.02764 0.0
C12 C 0.18331 0.22618 0.05047 0.0
H13 H 0.31374 0.79167 0.23615 0.0
H14 H -0.02046 0.85691 0.20254 0.0
H15 H 0.14203 0.80435 0.33253 0.0
H16 H 0.92347 0.69824 0.29015 0.0
C17 C 0.88363 0.77809 0.27633 0.0
O18 O 0.95631 0.85389 0.27911 0.0
H19 H 0.8456 0.77497 0.24296 0.0
C20 C 0.24008 0.80378 0.24525 0.0
C21 C 0.24065 0.79941 0.28777 0.0
C22 C 0.14616 0.81175 0.21458 0.0
C23 C 0.05184 0.83902 0.22599 0.0
C24 C 0.04983 0.83692 0.26853 0.0
C25 C 0.14414 0.81262 0.29971 0.0
H26 H 0.68969 0.54941 0.47797 0.0
H27 H 0.73654 0.88526 0.47117 0.0
H28 H 0.66716 0.73072 0.58072 0.0
H29 H 0.54047 0.92904 0.54145 0.0
C30 C 0.60425 0.97572 0.53354 0.0
O31 O 0.69799 0.91169 0.5423 0.0
H32 H 0.58246 1.0079 0.49986 0.0
C33 C 0.69844 0.62281 0.49224 0.0
C34 C 0.68269 0.62788 0.53318 0.0
C35 C 0.71654 0.71543 0.46874 0.0
C36 C 0.72464 0.81093 0.48803 0.0
C37 C 0.70554 0.81625 0.52765 0.0
C38 C 0.68592 0.72481 0.55051 0.0
H39 H 0.8164 0.29073 0.73632 0.0
H40 H 0.48214 0.35515 0.70274 0.0
H41 H 0.64483 0.3043 0.83272 0.0
H42 H 0.42698 0.19742 0.79111 0.0
C43 C 0.38674 0.27686 0.77692 0.0
O44 O 0.45901 0.35303 0.7793 0.0
H45 H 0.34882 0.27255 0.74362 0.0
C46 C 0.74275 0.30276 0.74543 0.0
C47 C 0.74337 0.29887 0.78794 0.0
C48 C 0.64883 0.31033 0.71478 0.0
C49 C 0.55448 0.33758 0.72618 0.0
C50 C 0.55251 0.336 0.76871 0.0
C51 C 0.64688 0.31216 0.79989 0.0
H52 H 0.08875 0.9479 0.93854 0.0
H53 H 0.93396 0.65892 0.93221 0.0
H54 H 0.04236 0.79102 0.82631 0.0
H55 H 0.84534 0.52215 0.83971 0.0
C56 C 0.92263 0.54161 0.85825 0.0
O57 O 0.92849 0.65063 0.85116 0.0
H58 H 0.92392 0.51746 0.89166 0.0
C59 C 0.06707 0.87965 0.92212 0.0
C60 C 0.07493 0.88016 0.88055 0.0
C61 C 0.02099 0.79718 0.94142 0.0
C62 C -0.02104 0.71566 0.91853 0.0
C63 C -0.01118 0.71231 0.87701 0.0
C64 C 0.04122 0.79161 0.85908 0.0
H65 H 0.3909 0.81884 0.17657 0.0
H66 H 0.71779 0.7077 0.19888 0.0
H67 H 0.5451 0.82267 0.07429 0.0
H68 H 0.87092 0.7644 0.16396 0.0
C69 C 0.82012 0.81683 0.13724 0.0
O70 O 0.73337 0.76312 0.12189 0.0
H71 H 0.79594 0.89353 0.14811 0.0
C72 C 0.46204 0.80837 0.16529 0.0
C73 C 0.45511 0.82419 0.12193 0.0
C74 C 0.55598 0.76438 0.19355 0.0
C75 C 0.64648 0.74674 0.17833 0.0
C76 C 0.64413 0.77607 0.13587 0.0
C77 C 0.54826 0.81244 0.10759 0.0
H78 H 0.58914 0.44666 0.43834 0.0
H79 H 0.4342 0.15773 0.4327 0.0
H80 H 0.53813 0.29079 0.32585 0.0
H81 H 0.34258 1.02148 0.33991 0.0
C82 C 0.41991 0.04099 0.3584 0.0
O83 O 0.42556 0.15007 0.35139 0.0
H84 H 0.42144 1.01666 0.39182 0.0
C85 C 0.56683 0.37853 0.42194 0.0
C86 C 0.57294 0.37945 0.38017 0.0
C87 C 0.52152 0.29591 0.44153 0.0
C88 C 0.47864 0.21455 0.41875 0.0
C89 C 0.4868 0.21156 0.37702 0.0
C90 C 0.53836 0.29107 0.35876 0.0
H91 H 0.89345 0.31846 0.67679 0.0
H92 H 0.22032 0.20721 0.69921 0.0
H93 H 0.04786 0.32194 0.57457 0.0
H94 H 0.37385 0.26207 0.66421 0.0
C95 C 0.32309 0.31509 0.63766 0.0
O96 O 0.23598 0.26201 0.62221 0.0
H97 H 0.29943 0.39159 0.64881 0.0
C98 C 0.96462 0.308 0.66554 0.0
C99 C 0.95777 0.32372 0.62217 0.0
C100 C 0.05857 0.26409 0.69383 0.0
C101 C 0.14905 0.24627 0.67863 0.0
C102 C 0.14676 0.27539 0.63617 0.0
C103 C 0.05096 0.31185 0.60787 0.0
Zn104 Zn 0.22714 0.67174 0.11402 0.0
Zn105 Zn 0.95213 0.93593 0.04305 0.0
Zn106 Zn 0.10826 0.8086 0.07725 0.0
C107 C 0.00207 0.81063 -0.01716 0.0
C108 C 0.13271 0.04253 0.05248 0.0
O109 O 0.07629 0.80484 0.14 0.0
O110 O 0.23139 0.72271 0.16982 0.0
C111 C 0.11641 0.56512 0.06045 0.0
O112 O 0.05813 0.75377 0.0156 0.0
O113 O 0.94961 0.89531 -0.01369 0.0
O114 O 0.03786 0.06037 0.05507 0.0
O115 O 0.17635 0.94746 0.05833 0.0
O116 O 0.15667 0.54244 0.09905 0.0
O117 O 0.10103 0.66327 0.04438 0.0
O118 O 0.26844 0.86439 0.09551 0.0
O119 O 0.34323 0.71291 0.08567 0.0
C120 C 0.35269 0.80757 0.09431 0.0
O121 O -0.01954 0.81353 0.11266 0.0
O122 O 0.83642 0.89898 0.07106 0.0
C123 C 0.15108 0.7798 0.17285 0.0
C124 C 0.88039 0.84173 0.10459 0.0
Zn125 Zn 0.47832 0.61972 0.29898 0.0
Zn126 Zn 0.69633 0.88498 0.35028 0.0
Zn127 Zn 0.58873 0.73215 0.33294 0.0
C128 C 0.5058 0.97572 0.34621 0.0
C129 C 0.80084 0.80625 0.29944 0.0
O130 O 0.59657 0.57119 0.37143 0.0
O131 O 0.56327 0.48252 0.3165 0.0
C132 C 0.34031 0.75426 0.31637 0.0
O133 O 0.49406 0.87663 0.34165 0.0
O134 O 0.5941 1.01198 0.34671 0.0
O135 O 0.81103 0.88409 0.32094 0.0
O136 O 0.72083 0.74957 0.29836 0.0
O137 O 0.35139 0.65371 0.32317 0.0
O138 O 0.42368 0.80337 0.31576 0.0
O139 O 0.62366 0.73154 0.26948 0.0
O140 O 0.46897 0.67988 0.24085 0.0
C141 C 0.55108 0.72239 0.23655 0.0
O142 O 0.65431 0.66502 0.39795 0.0
O143 O 0.73622 0.81116 0.40767 0.0
C144 C 0.58789 0.48084 0.35574 0.0
C145 C 0.70893 0.72453 0.42268 0.0
Zn146 Zn 0.45457 0.43461 0.54348 0.0
Zn147 Zn 0.73045 0.17058 0.61417 0.0
Zn148 Zn 0.61088 0.30734 0.57747 0.0
C149 C 0.85543 0.30694 0.59452 0.0
C150 C 0.61927 0.06393 0.56054 0.0
O151 O 0.48316 0.31205 0.61293 0.0
O152 O 0.33902 0.39793 0.57155 0.0
C153 C 0.63489 0.54136 0.55255 0.0
O154 O 0.771 0.36344 0.59573 0.0
O155 O 0.8463 0.2123 0.58581 0.0
O156 O 0.66071 0.04106 0.59904 0.0
O157 O 0.60345 0.16215 0.54456 0.0
O158 O 0.54014 0.55916 0.55528 0.0
O159 O 0.67861 0.44633 0.55841 0.0
O160 O 0.56034 0.25266 0.51578 0.0
O161 O 0.45125 0.39398 0.4867 0.0
C162 C 0.50371 0.30942 0.48311 0.0
O163 O 0.57906 0.30338 0.64021 0.0
O164 O 0.73425 0.2214 0.67002 0.0
C165 C 0.38313 0.34038 0.60498 0.0
C166 C 0.65383 0.27832 0.67306 0.0
Zn167 Zn -0.0186 0.11966 0.79933 0.0
Zn168 Zn 0.19951 0.38477 0.85082 0.0
Zn169 Zn 0.09125 0.23248 0.83321 0.0
C170 C 0.2104 0.22486 0.92314 0.0
C171 C 0.0086 0.47607 0.84622 0.0
O172 O 0.12629 0.23154 0.76976 0.0
O173 O -0.02826 0.17951 0.74116 0.0
C174 C 0.09076 0.98136 0.85621 0.0
O175 O 0.15592 0.16555 0.89827 0.0
O176 O 0.23855 0.31119 0.90826 0.0
O177 O 0.09715 0.51197 0.84695 0.0
O178 O -0.00339 0.37705 0.84165 0.0
O179 O 0.0671 0.98284 0.81697 0.0
O180 O 0.09874 0.07182 0.87183 0.0
O181 O 0.92625 0.30356 0.81585 0.0
O182 O 0.85457 0.15366 0.82358 0.0
C183 C 0.8431 0.25419 0.81659 0.0
O184 O 0.22347 0.24927 0.79869 0.0
O185 O 0.31446 0.38301 0.82157 0.0
C186 C 0.05372 0.22222 0.73685 0.0
C187 C 0.30383 0.3055 0.7999 0.0
loop_
_geom_bond_atom_site_label_1
_geom_bond_atom_site_label_2
_geom_bond_distance
_geom_bond_site_symmetry_2
_ccdc_geom_bond_type
H0 C7 0.929 . S
H1 C10 0.930 . S
H2 C12 0.929 . S
H3 C4 0.969 . S
C4 H3 0.969 . S
C4 O5 1.550 . S
C4 H6 0.973 . S
O5 C4 1.550 . S
O5 C11 1.412 . S
H6 C4 0.973 . S
C7 H0 0.929 . S
C7 C8 1.400 . S
C7 C9 1.364 . S
C8 C7 1.400 . S
C8 C12 1.377 . S
C9 C7 1.364 . S
C9 C10 1.374 . S
C10 H1 0.930 . S
C10 C9 1.374 . S
C10 C11 1.383 . S
C11 O5 1.412 . S
C11 C10 1.383 . S
C11 C12 1.394 . S
C12 H2 0.929 . S
C12 C8 1.377 . S
C12 C11 1.394 . S
H13 C20 0.929 . S
H14 C23 0.930 1_655 S
H15 C25 0.929 . S
H16 C17 0.969 . S
C17 H16 0.969 . S
C17 O18 1.550 1_655 S
C17 H19 0.973 . S
O18 C17 1.550 1_455 S
O18 C24 1.412 . S
H19 C17 0.973 . S
C20 H13 0.929 . S
C20 C21 1.400 . S
C20 C22 1.364 . S
C21 C20 1.400 . S
C21 C25 1.377 . S
C22 C20 1.364 . S
C22 C23 1.374 . S
C23 H14 0.930 1_455 S
C23 C22 1.374 . S
C23 C24 1.383 . S
C24 O18 1.412 . S
C24 C23 1.383 . S
C24 C25 1.394 . S
C25 H15 0.929 . S
C25 C21 1.377 . S
C25 C24 1.394 . S
H26 C33 0.929 . S
H27 C36 0.930 . S
H28 C38 0.929 . S
H29 C30 0.969 . S
C30 H29 0.969 . S
C30 O31 1.550 . S
C30 H32 0.973 . S
O31 C30 1.550 . S
O31 C37 1.412 . S
H32 C30 0.973 . S
C33 H26 0.929 . S
C33 C34 1.400 . S
C33 C35 1.364 . S
C34 C33 1.400 . S
C34 C38 1.377 . S
C35 C33 1.364 . S
C35 C36 1.374 . S
C36 H27 0.930 . S
C36 C35 1.374 . S
C36 C37 1.383 . S
C37 O31 1.412 . S
C37 C36 1.383 . S
C37 C38 1.394 . S
C38 H28 0.929 . S
C38 C34 1.377 . S
C38 C37 1.394 . S
H39 C46 0.929 . S
H40 C49 0.930 . S
H41 C51 0.929 . S
H42 C43 0.969 . S
C43 H42 0.969 . S
C43 O44 1.550 . S
C43 H45 0.973 . S
O44 C43 1.550 . S
O44 C50 1.412 . S
H45 C43 0.973 . S
C46 H39 0.929 . S
C46 C47 1.400 . S
C46 C48 1.364 . S
C47 C46 1.400 . S
C47 C51 1.377 . S
C48 C46 1.364 . S
C48 C49 1.374 . S
C49 H40 0.930 . S
C49 C48 1.374 . S
C49 C50 1.383 . S
C50 O44 1.412 . S
C50 C49 1.383 . S
C50 C51 1.394 . S
C51 H41 0.929 . S
C51 C47 1.377 . S
C51 C50 1.394 . S
H52 C59 0.929 . S
H53 C62 0.930 . S
H54 C64 0.929 . S
H55 C56 0.969 1_655 S
C56 H55 0.969 1_455 S
C56 O57 1.550 . S
C56 H58 0.973 . S
O57 C56 1.550 . S
O57 C63 1.412 . S
H58 C56 0.973 . S
C59 H52 0.929 . S
C59 C60 1.400 . S
C59 C61 1.364 . S
C60 C59 1.400 . S
C60 C64 1.377 . S
C61 C59 1.364 . S
C61 C62 1.374 . S
C62 H53 0.930 . S
C62 C61 1.374 . S
C62 C63 1.383 . S
C63 O57 1.412 . S
C63 C62 1.383 . S
C63 C64 1.394 . S
C64 H54 0.929 . S
C64 C60 1.377 . S
C64 C63 1.394 . S
H65 C72 0.929 . S
H66 C75 0.930 . S
H67 C77 0.929 . S
H68 C69 0.969 . S
C69 H68 0.969 . S
C69 O70 1.550 . S
C69 H71 0.973 . S
O70 C69 1.550 . S
O70 C76 1.412 . S
H71 C69 0.973 . S
C72 H65 0.929 . S
C72 C73 1.400 . S
C72 C74 1.364 . S
C73 C72 1.400 . S
C73 C77 1.377 . S
C74 C72 1.364 . S
C74 C75 1.374 . S
C75 H66 0.930 . S
C75 C74 1.374 . S
C75 C76 1.383 . S
C76 O70 1.412 . S
C76 C75 1.383 . S
C76 C77 1.394 . S
C77 H67 0.929 . S
C77 C73 1.377 . S
C77 C76 1.394 . S
H78 C85 0.929 . S
H79 C88 0.930 . S
H80 C90 0.929 . S
H81 C82 0.969 . S
C82 H81 0.969 . S
C82 O83 1.550 . S
C82 H84 0.973 1_545 S
O83 C82 1.550 . S
O83 C89 1.412 . S
H84 C82 0.973 1_565 S
C85 H78 0.929 . S
C85 C86 1.400 . S
C85 C87 1.364 . S
C86 C85 1.400 . S
C86 C90 1.377 . S
C87 C85 1.364 . S
C87 C88 1.374 . S
C88 H79 0.930 . S
C88 C87 1.374 . S
C88 C89 1.383 . S
C89 O83 1.412 . S
C89 C88 1.383 . S
C89 C90 1.394 . S
C90 H80 0.929 . S
C90 C86 1.377 . S
C90 C89 1.394 . S
H91 C98 0.937 . S
H92 C101 0.930 . S
H93 C103 0.929 . S
H94 C95 0.969 . S
C95 H94 0.969 . S
C95 O96 1.550 . S
C95 H97 0.973 . S
O96 C95 1.550 . S
O96 C102 1.412 . S
H97 C95 0.973 . S
C98 H91 0.937 . S
C98 C99 1.400 . S
C98 C100 1.355 1_655 S
C99 C98 1.400 . S
C99 C103 1.377 1_655 S
C100 C98 1.355 1_455 S
C100 C101 1.374 . S
C101 H92 0.930 . S
C101 C100 1.374 . S
C101 C102 1.383 . S
C102 O96 1.412 . S
C102 C101 1.383 . S
C102 C103 1.394 . S
C103 H93 0.929 . S
C103 C99 1.377 1_455 S
C103 C102 1.394 . S
Zn104 O110 1.920 . S
Zn104 O116 1.898 . S
Zn104 O119 1.905 . S
Zn105 O113 1.905 . S
Zn105 O114 1.898 1_665 S
Zn105 O122 1.920 . S
Zn106 O109 2.080 . S
Zn106 O112 2.114 . S
Zn106 O115 2.120 . S
Zn106 O117 2.120 . S
Zn106 O118 2.114 . S
Zn106 O121 2.080 1_455 S
C107 O112 1.166 . S
C107 O113 1.182 1_455 S
C108 O114 1.167 . S
C108 O115 1.299 1_545 S
O109 Zn106 2.080 . S
O109 C123 1.305 . S
O110 Zn104 1.920 . S
O110 C123 1.234 . S
C111 O116 1.167 . S
C111 O117 1.299 . S
O112 Zn106 2.114 . S
O112 C107 1.166 . S
O113 Zn105 1.905 . S
O113 C107 1.182 1_655 S
O114 Zn105 1.898 1_445 S
O114 C108 1.167 . S
O115 Zn106 2.120 . S
O115 C108 1.299 1_565 S
O116 Zn104 1.898 . S
O116 C111 1.167 . S
O117 Zn106 2.120 . S
O117 C111 1.299 . S
O118 Zn106 2.114 . S
O118 C120 1.166 . S
O119 Zn104 1.905 . S
O119 C120 1.182 . S
C120 O118 1.166 . S
C120 O119 1.182 . S
O121 Zn106 2.080 1_655 S
O121 C124 1.305 . S
O122 Zn105 1.920 . S
O122 C124 1.234 . S
C123 O109 1.305 . S
C123 O110 1.234 . S
C124 O121 1.305 . S
C124 O122 1.234 . S
Zn125 O131 1.920 . S
Zn125 O137 1.898 . S
Zn125 O140 1.905 . S
Zn126 O134 1.905 . S
Zn126 O135 1.898 . S
Zn126 O143 1.920 . S
Zn127 O130 2.080 . S
Zn127 O133 2.114 . S
Zn127 O136 2.120 . S
Zn127 O138 2.120 . S
Zn127 O139 2.114 . S
Zn127 O142 2.080 . S
C128 O133 1.166 . S
C128 O134 1.182 . S
C129 O135 1.167 . S
C129 O136 1.299 . S
O130 Zn127 2.080 . S
O130 C144 1.305 . S
O131 Zn125 1.920 . S
O131 C144 1.234 . S
C132 O137 1.167 . S
C132 O138 1.299 . S
O133 Zn127 2.114 . S
O133 C128 1.166 . S
O134 Zn126 1.905 . S
O134 C128 1.182 . S
O135 Zn126 1.898 . S
O135 C129 1.167 . S
O136 Zn127 2.120 . S
O136 C129 1.299 . S
O137 Zn125 1.898 . S
O137 C132 1.167 . S
O138 Zn127 2.120 . S
O138 C132 1.299 . S
O139 Zn127 2.114 . S
O139 C141 1.166 . S
O140 Zn125 1.905 . S
O140 C141 1.182 . S
C141 O139 1.166 . S
C141 O140 1.182 . S
O142 Zn127 2.080 . S
O142 C145 1.305 . S
O143 Zn126 1.920 . S
O143 C145 1.234 . S
C144 O130 1.305 . S
C144 O131 1.234 . S
C145 O142 1.305 . S
C145 O143 1.234 . S
Zn146 O152 1.920 . S
Zn146 O158 1.898 . S
Zn146 O161 1.905 . S
Zn147 O155 1.905 . S
Zn147 O156 1.898 . S
Zn147 O164 1.920 . S
Zn148 O151 2.080 . S
Zn148 O154 2.114 . S
Zn148 O157 2.120 . S
Zn148 O159 2.120 . S
Zn148 O160 2.114 . S
Zn148 O163 2.080 . S
C149 O154 1.166 . S
C149 O155 1.182 . S
C150 O156 1.167 . S
C150 O157 1.299 . S
O151 Zn148 2.080 . S
O151 C165 1.305 . S
O152 Zn146 1.920 . S
O152 C165 1.234 . S
C153 O158 1.167 . S
C153 O159 1.299 . S
O154 Zn148 2.114 . S
O154 C149 1.166 . S
O155 Zn147 1.905 . S
O155 C149 1.182 . S
O156 Zn147 1.898 . S
O156 C150 1.167 . S
O157 Zn148 2.120 . S
O157 C150 1.299 . S
O158 Zn146 1.898 . S
O158 C153 1.167 . S
O159 Zn148 2.120 . S
O159 C153 1.299 . S
O160 Zn148 2.114 . S
O160 C162 1.166 . S
O161 Zn146 1.905 . S
O161 C162 1.182 . S
C162 O160 1.166 . S
C162 O161 1.182 . S
O163 Zn148 2.080 . S
O163 C166 1.305 . S
O164 Zn147 1.920 . S
O164 C166 1.234 . S
C165 O151 1.305 . S
C165 O152 1.234 . S
C166 O163 1.305 . S
C166 O164 1.234 . S
Zn167 O173 1.920 1_655 S
Zn167 O179 1.898 1_545 S
Zn167 O182 1.905 . S
Zn168 O176 1.905 . S
Zn168 O177 1.898 . S
Zn168 O185 1.920 . S
Zn169 O172 2.080 . S
Zn169 O175 2.114 . S
Zn169 O178 2.120 . S
Zn169 O180 2.120 . S
Zn169 O181 2.114 1_455 S
Zn169 O184 2.080 . S
C170 O175 1.166 . S
C170 O176 1.182 . S
C171 O177 1.167 . S
C171 O178 1.299 . S
O172 Zn169 2.080 . S
O172 C186 1.305 . S
O173 Zn167 1.920 1_455 S
O173 C186 1.234 . S
C174 O179 1.167 1_455 S
C174 O180 1.299 1_565 S
O175 Zn169 2.114 . S
O175 C170 1.166 . S
O176 Zn168 1.905 . S
O176 C170 1.182 . S
O177 Zn168 1.898 . S
O177 C171 1.167 . S
O178 Zn169 2.120 . S
O178 C171 1.299 . S
O179 Zn167 1.898 1_565 S
O179 C174 1.167 1_655 S
O180 Zn169 2.120 . S
O180 C174 1.299 1_545 S
O181 Zn169 2.114 1_655 S
O181 C183 1.166 . S
O182 Zn167 1.905 . S
O182 C183 1.182 . S
C183 O181 1.166 . S
C183 O182 1.182 . S
O184 Zn169 2.080 . S
O184 C187 1.305 . S
O185 Zn168 1.920 . S
O185 C187 1.234 . S
C186 O172 1.305 . S
C186 O173 1.234 . S
C187 O184 1.305 . S
C187 O185 1.234 . S
C111 C4 1.376 . S
C129 C17 1.419 . S
C34 C153 1.292 . S
C183 C47 1.224 . S
C171 C56 1.404 . S
C69 C124 1.529 . S
C86 C144 1.422 . S
C99 C149 1.163 . S
C95 C165 1.504 . S
C73 C120 1.160 . S
C187 C43 1.464 . S
C132 C21 1.206 . S
C30 C150 1.348 1_565 S
C8 C108 1.296 . S
C128 C82 1.409 1_565 S
C174 C60 1.399 . S
C170 C9 1.277 1_556 S
C123 C22 1.561 . S
C35 C145 1.245 . S
C48 C166 1.567 . S
C107 C61 1.278 1_554 S
C74 C141 1.806 . S
C162 C87 1.308 . S
C186 C100 1.778 . S
