# Generated by pormake.
# Topology rtl, (3,6)-cn, num edge types: 1
# Building blocks:
#     Node 0, Type 0, BuildingBlock: CUQRIR_clean_linker_1, # of connection points: 3
#     Node 1, Type 0, BuildingBlock: CUQRIR_clean_linker_1, # of connection points: 3
#     Node 2, Type 0, BuildingBlock: CUQRIR_clean_linker_1, # of connection points: 3
#     Node 3, Type 0, BuildingBlock: CUQRIR_clean_linker_1, # of connection points: 3
#     Node 4, Type 1, BuildingBlock: VOLQOD_clean_sbu_1, # of connection points: 6
#     Node 5, Type 1, BuildingBlock: VOLQOD_clean_sbu_1, # of connection points: 6
#     Edge 6, Type (0, 1), BuildingBlock: AJUNOK_clean_linker_0, # of connection points: 2
#     Edge 7, Type (0, 1), BuildingBlock: AJUNOK_clean_linker_0, # of connection points: 2
#     Edge 8, Type (0, 1), BuildingBlock: AJUNOK_clean_linker_0, # of connection points: 2
#     Edge 9, Type (0, 1), BuildingBlock: AJUNOK_clean_linker_0, # of connection points: 2
#     Edge 10, Type (0, 1), BuildingBlock: AJUNOK_clean_linker_0, # of connection points: 2
#     Edge 11, Type (0, 1), BuildingBlock: AJUNOK_clean_linker_0, # of connection points: 2
#     Edge 12, Type (0, 1), BuildingBlock: AJUNOK_clean_linker_0, # of connection points: 2
#     Edge 13, Type (0, 1), BuildingBlock: AJUNOK_clean_linker_0, # of connection points: 2
#     Edge 14, Type (0, 1), BuildingBlock: AJUNOK_clean_linker_0, # of connection points: 2
#     Edge 15, Type (0, 1), BuildingBlock: AJUNOK_clean_linker_0, # of connection points: 2
#     Edge 16, Type (0, 1), BuildingBlock: AJUNOK_clean_linker_0, # of connection points: 2
#     Edge 17, Type (0, 1), BuildingBlock: AJUNOK_clean_linker_0, # of connection points: 2
# Relax obj value: 0.040
# Max RMSD: 0.143
# Mean RMSD: 0.100
data_MOF--net-rtl--node1-VOLQOD_clean_sbu_1--node2-CUQRIR_clean_linker_1--edge1-AJUNOK_clean_linker_0
_symmetry_space_group_name_H-M    P1
_symmetry_Int_Tables_number       1
_symmetry_cell_setting            triclinic
loop_
_symmetry_equiv_pos_as_xyz
'x, y, z'
_cell_length_a     26.071997
_cell_length_b     26.30096
_cell_length_c     14.202052
_cell_angle_alpha  90.162479
_cell_angle_beta   90.207825
_cell_angle_gamma 90.017798
loop_
_atom_site_label
_atom_site_type_symbol
_atom_site_fract_x
_atom_site_fract_y
_atom_site_fract_z
_atom_type_partial_charge
C0 C 0.2206 0.77482 0.93487 0.0
N1 N 0.18608 0.80981 0.964 0.0
N2 N 0.24186 0.75062 1.0096 0.0
C3 C 0.2365 0.76767 0.83396 0.0
C4 C 0.21935 0.77272 0.08521 0.0
N5 N 0.18561 0.80874 0.05743 0.0
C6 C 0.22869 0.75788 0.18601 0.0
H7 H 0.20866 0.74217 0.79814 0.0
H8 H 0.27537 0.75076 0.82896 0.0
H9 H 0.23604 0.80465 0.79651 0.0
H10 H 0.26032 0.78151 0.21495 0.0
H11 H 0.23986 0.71728 0.19119 0.0
H12 H 0.19405 0.76468 0.22942 0.0
C13 C 0.72006 0.71447 0.59359 0.0
N14 N 0.68362 0.68107 0.56517 0.0
N15 N 0.73868 0.74052 0.51911 0.0
C16 C 0.73526 0.72381 0.6944 0.0
C17 C 0.71217 0.72205 0.44449 0.0
N18 N 0.67849 0.68611 0.47256 0.0
C19 C 0.72075 0.73764 0.34399 0.0
H20 H 0.70149 0.72024 0.74127 0.0
H21 H 0.75261 0.76204 0.70352 0.0
H22 H 0.76385 0.69479 0.71585 0.0
H23 H 0.76075 0.7508 0.33345 0.0
H24 H 0.69447 0.76951 0.32692 0.0
H25 H 0.71239 0.70578 0.29492 0.0
C26 C 0.78139 0.22115 0.08606 0.0
N27 N 0.81581 0.18637 0.05562 0.0
N28 N 0.75816 0.24397 0.01216 0.0
C29 C 0.7683 0.23084 0.18753 0.0
C30 C 0.77957 0.22192 0.93569 0.0
N31 N 0.81474 0.187 0.96214 0.0
C32 C 0.76585 0.23404 0.83542 0.0
H33 H 0.73377 0.20831 0.20581 0.0
H34 H 0.75923 0.27155 0.19919 0.0
H35 H 0.80023 0.21941 0.2348 0.0
H36 H 0.74822 0.27231 0.82973 0.0
H37 H 0.73792 0.20537 0.80946 0.0
H38 H 0.80039 0.232 0.79012 0.0
C39 C 0.26722 0.28064 0.44094 0.0
N40 N 0.30437 0.313 0.4698 0.0
N41 N 0.24838 0.25412 0.51481 0.0
C42 C 0.2489 0.27565 0.34087 0.0
C43 C 0.27609 0.27116 0.58952 0.0
N44 N 0.31014 0.30691 0.56193 0.0
C45 C 0.27043 0.25267 0.68917 0.0
H46 H 0.25355 0.31209 0.3026 0.0
H47 H 0.20808 0.26378 0.33824 0.0
H48 H 0.27231 0.24637 0.30463 0.0
H49 H 0.30826 0.24992 0.72452 0.0
H50 H 0.25147 0.21495 0.6917 0.0
H51 H 0.24711 0.2805 0.7293 0.0
O52 O 0.88284 0.94074 0.51042 0.0
Zn53 Zn 0.9224 0.00661 0.50843 0.0
O54 O -0.00332 -0.00548 0.50905 0.0
Zn55 Zn 0.0269 0.02564 0.62166 0.0
Zn56 Zn 0.0095 0.92119 0.50947 0.0
Zn57 Zn 0.0283 0.02465 0.3972 0.0
O58 O 0.07792 0.07985 0.58821 0.0
O59 O 0.08087 0.07771 0.43192 0.0
O60 O 0.90041 0.04766 0.62258 0.0
O61 O 0.97347 0.06007 0.70015 0.0
O62 O 0.06243 0.97345 0.70258 0.0
O63 O 0.05041 0.90113 0.6246 0.0
O64 O 0.048 0.89897 0.39271 0.0
O65 O 0.90152 0.04457 0.39106 0.0
O66 O 0.06442 0.97174 0.31921 0.0
O67 O 0.9747 0.05827 0.31544 0.0
C68 C 0.89642 0.89426 0.5132 0.0
C69 C 0.09564 0.096 0.51051 0.0
C70 C 0.06847 0.92557 0.69494 0.0
C71 C 0.92527 0.06612 0.69217 0.0
C72 C 0.06798 0.9236 0.32497 0.0
C73 C 0.92613 0.06258 0.3213 0.0
O74 O 0.94356 0.88176 0.51333 0.0
O75 O 0.61089 0.44139 0.01979 0.0
Zn76 Zn 0.57086 0.50688 0.01984 0.0
O77 O 0.49671 0.49416 0.01781 0.0
Zn78 Zn 0.46586 0.52279 0.90361 0.0
Zn79 Zn 0.48458 0.42068 0.02011 0.0
Zn80 Zn 0.46516 0.52637 0.12781 0.0
O81 O 0.41112 0.57431 0.93415 0.0
O82 O 0.41381 0.5796 0.09027 0.0
O83 O 0.59217 0.54638 0.90422 0.0
O84 O 0.5195 0.55751 0.82479 0.0
O85 O 0.43279 0.46864 0.82374 0.0
O86 O 0.44617 0.39742 0.90384 0.0
O87 O 0.44407 0.40093 0.13554 0.0
O88 O 0.59182 0.54651 0.13642 0.0
O89 O 0.42877 0.47442 0.20784 0.0
O90 O 0.51768 0.56186 0.20815 0.0
C91 C 0.59784 0.39474 0.0202 0.0
C92 C 0.39564 0.59356 0.01127 0.0
C93 C 0.42844 0.42069 0.83223 0.0
C94 C 0.56775 0.56374 0.83329 0.0
C95 C 0.42414 0.42626 0.20277 0.0
C96 C 0.5662 0.56613 0.20356 0.0
O97 O 0.55085 0.3817 0.0214 0.0
C98 C 0.21428 0.17298 0.45383 0.0
C99 C 0.20929 0.21549 0.51327 0.0
C100 C 0.17687 0.13468 0.45218 0.0
C101 C 0.13394 0.13718 0.51161 0.0
H102 H 0.24761 0.16921 0.40912 0.0
H103 H 0.18212 0.10238 0.40566 0.0
S104 S 0.10132 0.2425 0.67468 0.0
N105 N 0.15634 0.25985 0.62718 0.0
N106 N 0.08733 0.1865 0.62826 0.0
C107 C 0.12834 0.17968 0.5708 0.0
C108 C 0.16573 0.21922 0.57059 0.0
C109 C 0.32496 0.71609 0.06286 0.0
C110 C 0.27987 0.71092 1.00915 0.0
C111 C 0.36214 0.67762 0.06393 0.0
C112 C 0.35597 0.63335 1.00935 0.0
H113 H 0.33152 0.75025 0.10388 0.0
H114 H 0.39635 0.68289 0.10643 0.0
S115 S 0.24345 0.60019 0.86146 0.0
N116 N 0.22955 0.65672 0.90545 0.0
N117 N 0.30091 0.58565 0.90277 0.0
C118 C 0.31116 0.62774 0.95527 0.0
C119 C 0.27272 0.66626 0.95629 0.0
C120 C 0.76725 0.82822 0.49049 0.0
C121 C 0.77831 0.77838 0.51871 0.0
C122 C 0.80561 0.86557 0.48959 0.0
C123 C 0.85651 0.85406 0.51585 0.0
H124 H 0.72858 0.83825 0.46954 0.0
H125 H 0.79533 0.90358 0.46724 0.0
S126 S 0.90417 0.72786 0.59436 0.0
N127 N 0.84259 0.7187 0.5726 0.0
N128 N 0.91527 0.78838 0.57127 0.0
C129 C 0.86779 0.80388 0.5439 0.0
C130 C 0.82852 0.76616 0.54532 0.0
C131 C 0.72814 0.33106 0.04161 0.0
C132 C 0.71772 0.28084 0.01455 0.0
C133 C 0.68911 0.36767 0.04323 0.0
C134 C 0.63824 0.35504 0.01844 0.0
H135 H 0.76682 0.34195 0.06106 0.0
H136 H 0.69889 0.40604 0.06459 0.0
S137 S 0.59252 0.22766 0.94115 0.0
N138 N 0.65438 0.21974 0.96184 0.0
N139 N 0.58035 0.28801 0.9646 0.0
C140 C 0.62766 0.30448 0.99124 0.0
C141 C 0.66761 0.26751 0.9892 0.0
C142 C 0.1042 0.82677 0.1382 0.0
C143 C 0.15507 0.84018 0.11804 0.0
C144 C 0.07593 0.85393 0.20573 0.0
C145 C 0.09753 0.89594 0.25297 0.0
H146 H 0.08692 0.79428 0.10344 0.0
H147 H 0.03703 0.84214 0.22097 0.0
S148 S 0.22988 0.94489 0.22565 0.0
N149 N 0.22658 0.8961 0.15234 0.0
N150 N 0.17275 0.94927 0.27504 0.0
C151 C 0.14813 0.91003 0.23189 0.0
C152 C 0.17718 0.88148 0.16551 0.0
C153 C 0.67763 0.61331 0.68399 0.0
C154 C 0.65345 0.64872 0.62495 0.0
C155 C 0.64955 0.58554 0.75039 0.0
C156 C 0.59614 0.592 0.75959 0.0
H157 H 0.71872 0.60784 0.67973 0.0
H158 H 0.66996 0.55904 0.79516 0.0
S159 S 0.51544 0.68152 0.62173 0.0
N160 N 0.57398 0.69001 0.58077 0.0
N161 N 0.52041 0.63695 0.70293 0.0
C162 C 0.57148 0.62679 0.6992 0.0
C163 C 0.60033 0.65536 0.63248 0.0
C164 C 0.89652 0.15929 0.13062 0.0
C165 C 0.84415 0.15142 0.11331 0.0
C166 C 0.92322 0.12913 0.19569 0.0
C167 C 0.89799 0.09091 0.24726 0.0
H168 H 0.91641 0.19021 0.09655 0.0
H169 H 0.96339 0.13724 0.20839 0.0
S170 S 0.76095 0.05452 0.223 0.0
N171 N 0.76833 0.10196 0.14829 0.0
N172 N 0.81768 0.04568 0.27255 0.0
C173 C 0.84561 0.08222 0.22876 0.0
C174 C 0.81886 0.11245 0.16141 0.0
C175 C 0.32999 0.38636 0.64564 0.0
C176 C 0.34326 0.33629 0.622 0.0
C177 C 0.35873 0.41396 0.71188 0.0
C178 C 0.40089 0.39177 0.75836 0.0
H179 H 0.29617 0.40357 0.61505 0.0
H180 H 0.34669 0.45226 0.72935 0.0
S181 S 0.45261 0.26236 0.71584 0.0
N182 N 0.40258 0.2665 0.64449 0.0
N183 N 0.45587 0.31736 0.77212 0.0
C184 C 0.41502 0.34187 0.73369 0.0
C185 C 0.38635 0.31435 0.66465 0.0
C186 C 0.6623 0.60492 0.39146 0.0
C187 C 0.64736 0.65499 0.41193 0.0
C188 C 0.6359 0.57609 0.32345 0.0
C189 C 0.59304 0.59624 0.27612 0.0
H190 H 0.69555 0.58877 0.42614 0.0
H191 H 0.64897 0.5379 0.30787 0.0
S192 S 0.5393 0.72571 0.30539 0.0
N193 N 0.58856 0.72399 0.37883 0.0
N194 N 0.53684 0.66905 0.25497 0.0
C195 C 0.5772 0.64592 0.29784 0.0
C196 C 0.60501 0.67559 0.36475 0.0
C197 C 0.82017 0.11368 0.85483 0.0
C198 C 0.84386 0.15485 0.90054 0.0
C199 C 0.84674 0.08489 0.78741 0.0
C200 C 0.89798 0.09626 0.76447 0.0
H201 H 0.78064 0.10442 0.8704 0.0
H202 H 0.82711 0.05353 0.75321 0.0
S203 S 0.97506 0.20334 0.86038 0.0
N204 N 0.91932 0.20794 0.91465 0.0
N205 N 0.97043 0.15307 0.79088 0.0
C206 C 0.92187 0.13755 0.81026 0.0
C207 C 0.89446 0.16713 0.87756 0.0
C208 C 0.3779 0.32067 0.36343 0.0
C209 C 0.33647 0.34327 0.41019 0.0
C210 C 0.40644 0.34797 0.29705 0.0
C211 C 0.39466 0.39898 0.27602 0.0
H212 H 0.38738 0.28127 0.37699 0.0
H213 H 0.4378 0.32891 0.26171 0.0
S214 S 0.28796 0.47418 0.37849 0.0
N215 N 0.28354 0.41807 0.42981 0.0
N216 N 0.3379 0.47054 0.30748 0.0
C217 C 0.35348 0.42205 0.32382 0.0
C218 C 0.32411 0.39385 0.39026 0.0
C219 C 0.11924 0.81621 0.84244 0.0
C220 C 0.15368 0.84016 0.90435 0.0
C221 C 0.09139 0.84423 0.77592 0.0
C222 C 0.09688 0.8974 0.76914 0.0
H223 H 0.11469 0.7753 0.84453 0.0
H224 H 0.06568 0.8239 0.72903 0.0
S225 S 0.18346 0.97757 0.91563 0.0
N226 N 0.19289 0.9192 0.9545 0.0
N227 N 0.13973 0.97274 0.83162 0.0
C228 C 0.13068 0.92186 0.83245 0.0
C229 C 0.15931 0.89302 0.89956 0.0
loop_
_geom_bond_atom_site_label_1
_geom_bond_atom_site_label_2
_geom_bond_distance
_geom_bond_site_symmetry_2
_ccdc_geom_bond_type
C0 N1 1.317 . S
C0 N2 1.348 1_556 S
C0 C3 1.485 . S
N1 C0 1.317 . S
N1 N5 1.370 1_556 S
N2 C0 1.348 1_554 S
N2 C4 1.346 . S
C3 C0 1.485 . S
C3 H7 0.960 . S
C3 H8 0.961 . S
C3 H9 0.960 . S
C4 N2 1.346 . S
C4 N5 1.307 . S
C4 C6 1.486 . S
N5 N1 1.370 1_554 S
N5 C4 1.307 . S
C6 C4 1.486 . S
C6 H10 0.960 . S
C6 H11 0.960 . S
C6 H12 0.959 . S
H7 C3 0.960 . S
H8 C3 0.961 . S
H9 C3 0.960 . S
H10 C6 0.960 . S
H11 C6 0.960 . S
H12 C6 0.959 . S
C13 N14 1.317 . S
C13 N15 1.348 . S
C13 C16 1.485 . S
N14 C13 1.317 . S
N14 N18 1.370 . S
N15 C13 1.348 . S
N15 C17 1.346 . S
C16 C13 1.485 . S
C16 H20 0.960 . S
C16 H21 0.961 . S
C16 H22 0.960 . S
C17 N15 1.346 . S
C17 N18 1.307 . S
C17 C19 1.486 . S
N18 N14 1.370 . S
N18 C17 1.307 . S
C19 C17 1.486 . S
C19 H23 0.960 . S
C19 H24 0.960 . S
C19 H25 0.959 . S
H20 C16 0.960 . S
H21 C16 0.961 . S
H22 C16 0.960 . S
H23 C19 0.960 . S
H24 C19 0.960 . S
H25 C19 0.959 . S
C26 N27 1.317 . S
C26 N28 1.348 . S
C26 C29 1.485 . S
N27 C26 1.317 . S
N27 N31 1.370 1_554 S
N28 C26 1.348 . S
N28 C30 1.346 1_554 S
C29 C26 1.485 . S
C29 H33 0.960 . S
C29 H34 0.961 . S
C29 H35 0.960 . S
C30 N28 1.346 1_556 S
C30 N31 1.307 . S
C30 C32 1.486 . S
N31 N27 1.370 1_556 S
N31 C30 1.307 . S
C32 C30 1.486 . S
C32 H36 0.960 . S
C32 H37 0.960 . S
C32 H38 0.959 . S
H33 C29 0.960 . S
H34 C29 0.961 . S
H35 C29 0.960 . S
H36 C32 0.960 . S
H37 C32 0.960 . S
H38 C32 0.959 . S
C39 N40 1.317 . S
C39 N41 1.348 . S
C39 C42 1.485 . S
N40 C39 1.317 . S
N40 N44 1.370 . S
N41 C39 1.348 . S
N41 C43 1.346 . S
C42 C39 1.485 . S
C42 H46 0.960 . S
C42 H47 0.961 . S
C42 H48 0.960 . S
C43 N41 1.346 . S
C43 N44 1.307 . S
C43 C45 1.486 . S
N44 N40 1.370 . S
N44 C43 1.307 . S
C45 C43 1.486 . S
C45 H49 0.960 . S
C45 H50 0.960 . S
C45 H51 0.959 . S
H46 C42 0.960 . S
H47 C42 0.961 . S
H48 C42 0.960 . S
H49 C45 0.960 . S
H50 C45 0.960 . S
H51 C45 0.959 . S
O52 Zn53 1.953 1_565 S
O52 C68 1.225 . S
Zn53 O52 1.953 1_545 S
Zn53 O54 1.949 1_655 S
Zn53 O60 1.919 . S
Zn53 O65 1.924 . S
O54 Zn53 1.949 1_455 S
O54 Zn55 1.923 . S
O54 Zn56 1.950 1_545 S
O54 Zn57 1.945 . S
Zn55 O54 1.923 . S
Zn55 O58 1.933 . S
Zn55 O61 1.944 . S
Zn55 O62 1.965 1_545 S
Zn56 O54 1.950 1_565 S
Zn56 O63 1.938 . S
Zn56 O64 1.906 . S
Zn56 O74 1.953 1_455 S
Zn57 O54 1.945 . S
Zn57 O59 1.932 . S
Zn57 O66 1.977 1_545 S
Zn57 O67 1.910 1_455 S
O58 Zn55 1.933 . S
O58 C69 1.226 . S
O59 Zn57 1.932 . S
O59 C69 1.307 . S
O60 Zn53 1.919 . S
O60 C71 1.253 . S
O61 Zn55 1.944 . S
O61 C71 1.279 1_455 S
O62 Zn55 1.965 1_565 S
O62 C70 1.303 . S
O63 Zn56 1.938 . S
O63 C70 1.247 . S
O64 Zn56 1.906 . S
O64 C72 1.304 . S
O65 Zn53 1.924 . S
O65 C73 1.311 . S
O66 Zn57 1.977 1_565 S
O66 C72 1.272 . S
O67 Zn57 1.910 1_655 S
O67 C73 1.231 . S
C68 O52 1.225 . S
C68 O74 1.298 . S
C69 O58 1.226 . S
C69 O59 1.307 . S
C70 O62 1.303 . S
C70 O63 1.247 . S
C71 O60 1.253 . S
C71 O61 1.279 1_655 S
C72 O64 1.304 . S
C72 O66 1.272 . S
C73 O65 1.311 . S
C73 O67 1.231 . S
O74 Zn56 1.953 1_655 S
O74 C68 1.298 . S
O75 Zn76 1.953 . S
O75 C91 1.224 1_556 S
Zn76 O75 1.953 . S
Zn76 O77 1.949 1_556 S
Zn76 O83 1.919 . S
Zn76 O88 1.924 1_556 S
O77 Zn76 1.949 1_554 S
O77 Zn78 1.923 1_554 S
O77 Zn79 1.950 . S
O77 Zn80 1.945 . S
Zn78 O77 1.923 1_556 S
Zn78 O81 1.933 . S
Zn78 O84 1.941 . S
Zn78 O85 1.965 . S
Zn79 O77 1.950 . S
Zn79 O86 1.938 1_554 S
Zn79 O87 1.906 . S
Zn79 O97 1.953 . S
Zn80 O77 1.945 . S
Zn80 O82 1.932 . S
Zn80 O89 1.977 . S
Zn80 O90 1.910 . S
O81 Zn78 1.933 . S
O81 C92 1.226 1_556 S
O82 Zn80 1.932 . S
O82 C92 1.307 . S
O83 Zn76 1.919 . S
O83 C94 1.253 . S
O84 Zn78 1.941 . S
O84 C94 1.283 . S
O85 Zn78 1.965 . S
O85 C93 1.303 . S
O86 Zn79 1.938 1_556 S
O86 C93 1.247 . S
O87 Zn79 1.906 . S
O87 C95 1.304 . S
O88 Zn76 1.924 1_554 S
O88 C96 1.311 . S
O89 Zn80 1.977 . S
O89 C95 1.272 . S
O90 Zn80 1.910 . S
O90 C96 1.231 . S
C91 O75 1.224 1_554 S
C91 O97 1.299 . S
C92 O81 1.226 1_554 S
C92 O82 1.307 . S
C93 O85 1.303 . S
C93 O86 1.247 . S
C94 O83 1.253 . S
C94 O84 1.283 . S
C95 O87 1.304 . S
C95 O89 1.272 . S
C96 O88 1.311 . S
C96 O90 1.231 . S
O97 Zn79 1.953 . S
O97 C91 1.299 . S
C98 C99 1.369 . S
C98 C100 1.419 . S
C98 H102 0.930 . S
C99 C98 1.369 . S
C99 C108 1.429 . S
C100 C98 1.419 . S
C100 C101 1.363 . S
C100 H103 0.929 . S
C101 C100 1.363 . S
C101 C107 1.428 . S
H102 C98 0.930 . S
H103 C100 0.929 . S
S104 N105 1.613 . S
S104 N106 1.610 . S
N105 S104 1.613 . S
N105 C108 1.350 . S
N106 S104 1.610 . S
N106 C107 1.351 . S
C107 C101 1.428 . S
C107 N106 1.351 . S
C107 C108 1.434 . S
C108 C99 1.429 . S
C108 N105 1.350 . S
C108 C107 1.434 . S
C109 C110 1.369 . S
C109 C111 1.419 . S
C109 H113 0.930 . S
C110 C109 1.369 . S
C110 C119 1.429 1_554 S
C111 C109 1.419 . S
C111 C112 1.363 . S
C111 H114 0.929 . S
C112 C111 1.363 . S
C112 C118 1.428 1_554 S
H113 C109 0.930 . S
H114 C111 0.929 . S
S115 N116 1.613 . S
S115 N117 1.610 . S
N116 S115 1.613 . S
N116 C119 1.350 . S
N117 S115 1.610 . S
N117 C118 1.351 . S
C118 C112 1.428 1_556 S
C118 N117 1.351 . S
C118 C119 1.434 . S
C119 C110 1.429 1_556 S
C119 N116 1.350 . S
C119 C118 1.434 . S
C120 C121 1.369 . S
C120 C122 1.419 . S
C120 H124 0.930 . S
C121 C120 1.369 . S
C121 C130 1.429 . S
C122 C120 1.419 . S
C122 C123 1.363 . S
C122 H125 0.929 . S
C123 C122 1.363 . S
C123 C129 1.428 . S
H124 C120 0.930 . S
H125 C122 0.929 . S
S126 N127 1.613 . S
S126 N128 1.610 . S
N127 S126 1.613 . S
N127 C130 1.350 . S
N128 S126 1.610 . S
N128 C129 1.351 . S
C129 C123 1.428 . S
C129 N128 1.351 . S
C129 C130 1.434 . S
C130 C121 1.429 . S
C130 N127 1.350 . S
C130 C129 1.434 . S
C131 C132 1.371 . S
C131 C133 1.419 . S
C131 H135 0.930 . S
C132 C131 1.371 . S
C132 C141 1.427 1_554 S
C133 C131 1.419 . S
C133 C134 1.365 . S
C133 H136 0.929 . S
C134 C133 1.365 . S
C134 C140 1.426 1_554 S
H135 C131 0.930 . S
H136 C133 0.929 . S
S137 N138 1.613 . S
S137 N139 1.610 . S
N138 S137 1.613 . S
N138 C141 1.350 . S
N139 S137 1.610 . S
N139 C140 1.351 . S
C140 C134 1.426 1_556 S
C140 N139 1.351 . S
C140 C141 1.434 . S
C141 C132 1.427 1_556 S
C141 N138 1.350 . S
C141 C140 1.434 . S
C142 C143 1.369 . S
C142 C144 1.419 . S
C142 H146 0.930 . S
C143 C142 1.369 . S
C143 C152 1.429 . S
C144 C142 1.419 . S
C144 C145 1.363 . S
C144 H147 0.929 . S
C145 C144 1.363 . S
C145 C151 1.428 . S
H146 C142 0.930 . S
H147 C144 0.929 . S
S148 N149 1.613 . S
S148 N150 1.610 . S
N149 S148 1.613 . S
N149 C152 1.350 . S
N150 S148 1.610 . S
N150 C151 1.351 . S
C151 C145 1.428 . S
C151 N150 1.351 . S
C151 C152 1.434 . S
C152 C143 1.429 . S
C152 N149 1.350 . S
C152 C151 1.434 . S
C153 C154 1.369 . S
C153 C155 1.419 . S
C153 H157 0.930 . S
C154 C153 1.369 . S
C154 C163 1.429 . S
C155 C153 1.419 . S
C155 C156 1.363 . S
C155 H158 0.929 . S
C156 C155 1.363 . S
C156 C162 1.428 . S
H157 C153 0.930 . S
H158 C155 0.929 . S
S159 N160 1.613 . S
S159 N161 1.610 . S
N160 S159 1.613 . S
N160 C163 1.350 . S
N161 S159 1.610 . S
N161 C162 1.351 . S
C162 C156 1.428 . S
C162 N161 1.351 . S
C162 C163 1.434 . S
C163 C154 1.429 . S
C163 N160 1.350 . S
C163 C162 1.434 . S
C164 C165 1.369 . S
C164 C166 1.419 . S
C164 H168 0.930 . S
C165 C164 1.369 . S
C165 C174 1.429 . S
C166 C164 1.419 . S
C166 C167 1.363 . S
C166 H169 0.929 . S
C167 C166 1.363 . S
C167 C173 1.428 . S
H168 C164 0.930 . S
H169 C166 0.929 . S
S170 N171 1.613 . S
S170 N172 1.610 . S
N171 S170 1.613 . S
N171 C174 1.350 . S
N172 S170 1.610 . S
N172 C173 1.351 . S
C173 C167 1.428 . S
C173 N172 1.351 . S
C173 C174 1.434 . S
C174 C165 1.429 . S
C174 N171 1.350 . S
C174 C173 1.434 . S
C175 C176 1.369 . S
C175 C177 1.419 . S
C175 H179 0.930 . S
C176 C175 1.369 . S
C176 C185 1.429 . S
C177 C175 1.419 . S
C177 C178 1.363 . S
C177 H180 0.929 . S
C178 C177 1.363 . S
C178 C184 1.428 . S
H179 C175 0.930 . S
H180 C177 0.929 . S
S181 N182 1.613 . S
S181 N183 1.610 . S
N182 S181 1.613 . S
N182 C185 1.350 . S
N183 S181 1.610 . S
N183 C184 1.351 . S
C184 C178 1.428 . S
C184 N183 1.351 . S
C184 C185 1.434 . S
C185 C176 1.429 . S
C185 N182 1.350 . S
C185 C184 1.434 . S
C186 C187 1.369 . S
C186 C188 1.419 . S
C186 H190 0.930 . S
C187 C186 1.369 . S
C187 C196 1.429 . S
C188 C186 1.419 . S
C188 C189 1.363 . S
C188 H191 0.929 . S
C189 C188 1.363 . S
C189 C195 1.428 . S
H190 C186 0.930 . S
H191 C188 0.929 . S
S192 N193 1.613 . S
S192 N194 1.610 . S
N193 S192 1.613 . S
N193 C196 1.350 . S
N194 S192 1.610 . S
N194 C195 1.351 . S
C195 C189 1.428 . S
C195 N194 1.351 . S
C195 C196 1.434 . S
C196 C187 1.429 . S
C196 N193 1.350 . S
C196 C195 1.434 . S
C197 C198 1.369 . S
C197 C199 1.419 . S
C197 H201 0.930 . S
C198 C197 1.369 . S
C198 C207 1.429 . S
C199 C197 1.419 . S
C199 C200 1.363 . S
C199 H202 0.929 . S
C200 C199 1.363 . S
C200 C206 1.428 . S
H201 C197 0.930 . S
H202 C199 0.929 . S
S203 N204 1.613 . S
S203 N205 1.610 . S
N204 S203 1.613 . S
N204 C207 1.350 . S
N205 S203 1.610 . S
N205 C206 1.351 . S
C206 C200 1.428 . S
C206 N205 1.351 . S
C206 C207 1.434 . S
C207 C198 1.429 . S
C207 N204 1.350 . S
C207 C206 1.434 . S
C208 C209 1.369 . S
C208 C210 1.419 . S
C208 H212 0.930 . S
C209 C208 1.369 . S
C209 C218 1.429 . S
C210 C208 1.419 . S
C210 C211 1.363 . S
C210 H213 0.929 . S
C211 C210 1.363 . S
C211 C217 1.428 . S
H212 C208 0.930 . S
H213 C210 0.929 . S
S214 N215 1.613 . S
S214 N216 1.610 . S
N215 S214 1.613 . S
N215 C218 1.350 . S
N216 S214 1.610 . S
N216 C217 1.351 . S
C217 C211 1.428 . S
C217 N216 1.351 . S
C217 C218 1.434 . S
C218 C209 1.429 . S
C218 N215 1.350 . S
C218 C217 1.434 . S
C219 C220 1.369 . S
C219 C221 1.419 . S
C219 H223 0.930 . S
C220 C219 1.369 . S
C220 C229 1.429 . S
C221 C219 1.419 . S
C221 C222 1.363 . S
C221 H224 0.929 . S
C222 C221 1.363 . S
C222 C228 1.428 . S
H223 C219 0.930 . S
H224 C221 0.929 . S
S225 N226 1.613 . S
S225 N227 1.610 . S
N226 S225 1.613 . S
N226 C229 1.350 . S
N227 S225 1.610 . S
N227 C228 1.351 . S
C228 C222 1.428 . S
C228 N227 1.351 . S
C228 C229 1.434 . S
C229 C220 1.429 . S
C229 N226 1.350 . S
C229 C228 1.434 . S
C101 C69 1.496 . S
C99 N41 1.496 . S
C110 N2 1.495 . S
C112 C92 1.495 . S
C121 N15 1.520 . S
C123 C68 1.520 . S
C132 N28 1.520 . S
C134 C91 1.520 . S
C145 C72 1.456 . S
C143 N5 1.504 . S
C156 C94 1.481 . S
C154 N14 1.550 . S
C165 N27 1.521 . S
C167 C73 1.459 . S
C176 N44 1.538 . S
C178 C93 1.469 . S
C189 C96 1.453 . S
C187 N18 1.519 . S
C200 C71 1.484 . S
C198 N31 1.543 . S
C211 C95 1.459 . S
C209 N40 1.509 . S
C220 N1 1.546 . S
C222 C70 1.468 . S
