# Generated by pormake.
# Topology pth, (4,4)-cn, num edge types: 1
# Building blocks:
#     Node 0, Type 0, BuildingBlock: TATPOV_clean_sbu_0, # of connection points: 4
#     Node 1, Type 0, BuildingBlock: TATPOV_clean_sbu_0, # of connection points: 4
#     Node 2, Type 0, BuildingBlock: TATPOV_clean_sbu_0, # of connection points: 4
#     Node 3, Type 1, BuildingBlock: AZAVOO_clean_linker_0, # of connection points: 4
#     Node 4, Type 1, BuildingBlock: AZAVOO_clean_linker_0, # of connection points: 4
#     Node 5, Type 1, BuildingBlock: AZAVOO_clean_linker_0, # of connection points: 4
#     Edge 6, Type (0, 1), None
#     Edge 7, Type (0, 1), None
#     Edge 8, Type (0, 1), None
#     Edge 9, Type (0, 1), None
#     Edge 10, Type (0, 1), None
#     Edge 11, Type (0, 1), None
#     Edge 12, Type (0, 1), None
#     Edge 13, Type (0, 1), None
#     Edge 14, Type (0, 1), None
#     Edge 15, Type (0, 1), None
#     Edge 16, Type (0, 1), None
#     Edge 17, Type (0, 1), None
# Relax obj value: 0.202
# Max RMSD: 0.230
# Mean RMSD: 0.205
data_MOF--net-pth--node1-TATPOV_clean_sbu_0--node2-AZAVOO_clean_linker_0--edge1-none
_symmetry_space_group_name_H-M    P1
_symmetry_Int_Tables_number       1
_symmetry_cell_setting            triclinic
loop_
_symmetry_equiv_pos_as_xyz
'x, y, z'
_cell_length_a     14.293083
_cell_length_b     14.262389
_cell_length_c     37.379131
_cell_angle_alpha  94.353668
_cell_angle_beta   91.788163
_cell_angle_gamma 121.21959
loop_
_atom_site_label
_atom_site_type_symbol
_atom_site_fract_x
_atom_site_fract_y
_atom_site_fract_z
_atom_type_partial_charge
Zn0 Zn 0.328 0.02549 0.02694 0.0
Zn1 Zn 0.2102 0.09743 0.0606 0.0
O2 O 0.19725 0.96832 0.08298 0.0
O3 O 0.3068 0.91591 0.06216 0.0
O4 O 0.15466 0.1576 0.09815 0.0
O5 O 0.45999 0.1793 0.0289 0.0
O6 O 0.35048 0.23103 0.05007 0.0
C7 C 0.23423 0.90458 0.08291 0.0
C8 C 0.12623 -0.00293 0.98739 0.0
O9 O 0.11183 0.04328 0.01534 0.0
O10 O 0.20572 0.98081 0.98711 0.0
C11 C 0.07237 0.09789 0.11531 0.0
O12 O 0.01098 -0.00851 0.10575 0.0
C13 C 0.4406 0.25491 0.0374 0.0
Zn14 Zn 0.28333 0.14096 0.34936 0.0
Zn15 Zn 0.10312 0.05901 0.38556 0.0
O16 O 0.24214 0.10813 0.41709 0.0
O17 O 0.3958 0.20565 0.39177 0.0
O18 O 0.00315 0.04198 0.4242 0.0
O19 O 0.23953 0.23407 0.32453 0.0
O20 O 0.08849 0.16167 0.35286 0.0
C21 C 0.34638 0.16287 0.41893 0.0
C22 C 0.12065 0.89457 0.34037 0.0
O23 O 0.05606 0.91 0.35915 0.0
O24 O 0.21303 0.97567 0.33397 0.0
C25 C -0.00707 0.98717 0.45063 0.0
O26 O 0.03816 0.92727 0.45129 0.0
C27 C 0.14902 0.22573 0.33053 0.0
Zn28 Zn 0.24565 0.93088 0.76399 0.0
Zn29 Zn 0.15121 0.00542 0.72327 0.0
O30 O 0.26131 0.97821 0.69688 0.0
O31 O 0.31254 0.88192 0.72624 0.0
O32 O 0.05705 0.01432 0.68385 0.0
O33 O 0.10747 0.82548 0.78583 0.0
O34 O 0.0334 0.8981 0.75438 0.0
C35 C 0.31652 0.9313 0.69915 0.0
C36 C 0.32326 0.1737 0.77414 0.0
O37 O 0.2455 0.15501 0.75155 0.0
O38 O 0.33516 0.09537 0.78235 0.0
C39 C 0.01169 0.07027 0.68905 0.0
O40 O 0.03336 0.131 0.71992 0.0
C41 C 0.02555 0.83303 0.77719 0.0
H42 H 0.93839 0.21069 0.97748 0.0
H43 H 0.18728 0.19568 0.24581 0.0
H44 H 0.84661 0.19477 0.17004 0.0
H45 H 0.87366 0.06582 0.13113 0.0
H46 H 0.21819 0.24996 0.16717 0.0
H47 H 0.19147 0.37815 0.20554 0.0
H48 H 0.85739 0.36413 0.11621 0.0
H49 H 0.85946 0.29021 0.05508 0.0
H50 H 0.19844 0.38847 0.07827 0.0
H51 H 0.19546 0.46284 0.13904 0.0
H52 H 0.93721 0.64755 0.13839 0.0
H53 H 0.0238 0.79621 0.09963 0.0
H54 H 0.32904 0.80471 0.11497 0.0
H55 H 0.24324 0.65926 0.15518 0.0
H56 H 0.86771 0.6479 0.21291 0.0
H57 H 0.88622 0.82871 0.22325 0.0
H58 H 0.23948 0.98449 0.23437 0.0
H59 H 0.21962 0.80326 0.22382 0.0
H60 H 0.87132 0.55351 0.27959 0.0
H61 H 0.9139 0.71416 0.32147 0.0
H62 H 0.25849 0.82507 0.32316 0.0
H63 H 0.21616 0.66849 0.28102 0.0
H64 H 0.8841 0.26089 0.26799 0.0
H65 H 0.93939 0.16645 0.30848 0.0
H66 H 0.27895 0.42203 0.30511 0.0
H67 H 0.22405 0.51331 0.26433 0.0
O68 O 0.93949 0.24095 0.00167 0.0
O69 O 0.11227 0.28912 0.01554 0.0
O70 O -0.00459 0.03924 0.23593 0.0
O71 O 0.17743 0.12318 0.24173 0.0
C72 C 0.01397 0.39726 0.19863 0.0
C73 C 0.02267 0.45885 0.16964 0.0
C74 C 0.03787 0.56407 0.17652 0.0
C75 C 0.03034 0.60259 0.21142 0.0
C76 C 0.02442 0.54277 0.24069 0.0
C77 C 0.02223 0.44254 0.23444 0.0
C78 C 0.01709 0.29584 0.19062 0.0
C79 C 0.92641 0.20301 0.17126 0.0
C80 C 0.94199 0.13005 0.14884 0.0
C81 C 0.04823 0.15027 0.14581 0.0
C82 C 0.13577 0.23418 0.16886 0.0
C83 C 0.12011 0.30614 0.19142 0.0
C84 C 0.02578 0.41767 0.13214 0.0
C85 C 0.93202 0.36989 0.10795 0.0
C86 C 0.93344 0.32757 0.0731 0.0
C87 C 0.02895 0.3328 0.06185 0.0
C88 C 0.12338 0.38259 0.08608 0.0
C89 C 0.12184 0.42503 0.12083 0.0
C90 C 0.08378 0.64244 0.14922 0.0
C91 C 0.02232 0.68091 0.13315 0.0
C92 C 0.07211 0.766 0.11133 0.0
C93 C 0.18324 0.81208 0.10479 0.0
C94 C 0.24339 0.77023 0.11965 0.0
C95 C 0.19423 0.68688 0.14224 0.0
C96 C 0.04225 0.7127 0.21783 0.0
C97 C 0.94891 0.72127 0.21762 0.0
C98 C 0.95978 0.82458 0.22353 0.0
C99 C 0.06441 0.92115 0.2297 0.0
C100 C 0.15776 0.91194 0.22974 0.0
C101 C 0.14673 0.80861 0.22374 0.0
C102 C 0.04049 0.59839 0.27739 0.0
C103 C 0.95521 0.60899 0.29078 0.0
C104 C 0.97974 0.70159 0.31429 0.0
C105 C 0.08969 0.7835 0.3245 0.0
C106 C 0.17306 0.7642 0.31507 0.0
C107 C 0.14868 0.67249 0.29167 0.0
C108 C 0.04984 0.39603 0.26421 0.0
C109 C 0.96993 0.29817 0.27708 0.0
C110 C 0.0015 0.24461 0.30017 0.0
C111 C 0.11319 0.28794 0.31026 0.0
C112 C 0.19227 0.38737 0.29804 0.0
C113 C 0.16085 0.44073 0.27525 0.0
C114 C 0.02986 0.28646 0.02501 0.0
C115 C 0.0765 0.03113 0.23597 0.0
H116 H 0.7363 0.04312 0.32021 0.0
H117 H 0.08927 0.17276 0.59741 0.0
H118 H 0.70099 0.85791 0.52123 0.0
H119 H 0.81338 0.8276 0.47906 0.0
H120 H 0.05173 0.17693 0.49139 0.0
H121 H 0.94218 0.20628 0.53496 0.0
H122 H 0.58127 0.92208 0.46235 0.0
H123 H 0.62365 0.94009 0.39932 0.0
H124 H 0.87257 0.28358 0.42814 0.0
H125 H 0.82945 0.26412 0.49101 0.0
H126 H 0.37941 0.95149 0.49915 0.0
H127 H 0.27545 0.98427 0.4544 0.0
H128 H 0.55256 0.31425 0.45032 0.0
H129 H 0.65404 0.28355 0.49787 0.0
H130 H 0.34661 0.89712 0.57187 0.0
H131 H 0.17893 0.89729 0.5828 0.0
H132 H 0.35921 0.25242 0.58484 0.0
H133 H 0.52684 0.25113 0.57423 0.0
H134 H 0.49942 0.8472 0.61408 0.0
H135 H 0.36537 0.79342 0.65993 0.0
H136 H 0.47005 0.13539 0.68653 0.0
H137 H 0.60626 0.18887 0.64229 0.0
H138 H 0.75521 0.88992 0.59015 0.0
H139 H 0.8908 0.90342 0.6353 0.0
H140 H 0.9472 0.21749 0.68115 0.0
H141 H 0.81437 0.20521 0.63527 0.0
O142 O 0.72303 0.03689 0.34539 0.0
O143 O 0.83947 0.21609 0.36111 0.0
O144 O 0.06526 0.98789 0.58904 0.0
O145 O 0.15542 0.17112 0.59433 0.0
C146 C 0.72963 0.05592 0.54436 0.0
C147 C 0.67316 0.08158 0.51895 0.0
C148 C 0.58533 0.09302 0.52893 0.0
C149 C 0.54929 0.07278 0.56364 0.0
C150 C 0.60675 0.04897 0.58937 0.0
C151 C 0.70048 0.04562 0.58031 0.0
C152 C 0.81408 0.03422 0.53139 0.0
C153 C 0.7806 0.92698 0.51647 0.0
C154 C 0.8438 0.90987 0.49208 0.0
C155 C 0.93934 0.00031 0.48176 0.0
C156 C 0.97746 0.10629 0.49892 0.0
C157 C 0.91598 0.12294 0.5241 0.0
C158 C 0.70252 0.09172 0.48109 0.0
C159 C 0.64533 0.00084 0.45495 0.0
C160 C 0.66969 0.01144 0.41902 0.0
C161 C 0.75121 0.11341 0.40869 0.0
C162 C 0.80909 0.204 0.43517 0.0
C163 C 0.78489 0.19313 0.47107 0.0
C164 C 0.52373 0.11525 0.50182 0.0
C165 C 0.41673 0.03187 0.48939 0.0
C166 C 0.35755 0.05098 0.46394 0.0
C167 C 0.40601 0.15238 0.44937 0.0
C168 C 0.5136 0.23594 0.46152 0.0
C169 C 0.57158 0.21809 0.48822 0.0
C170 C 0.44902 0.07415 0.57252 0.0
C171 C 0.35008 0.97499 0.57521 0.0
C172 C 0.25426 0.97529 0.58121 0.0
C173 C 0.25555 0.0749 0.58453 0.0
C174 C 0.35532 0.17431 0.58238 0.0
C175 C 0.45117 0.17386 0.57636 0.0
C176 C 0.5621 0.02195 0.62483 0.0
C177 C 0.49703 0.91073 0.63112 0.0
C178 C 0.41918 0.87988 0.65664 0.0
C179 C 0.4051 0.96011 0.67535 0.0
C180 C 0.47757 0.07194 0.67146 0.0
C181 C 0.55694 0.10283 0.64686 0.0
C182 C 0.77552 0.04709 0.60907 0.0
C183 C 0.79763 0.96216 0.60964 0.0
C184 C 0.87516 0.97007 0.63546 0.0
C185 C 0.93073 0.06233 0.66144 0.0
C186 C 0.90612 0.14568 0.6614 0.0
C187 C 0.82982 0.13842 0.63532 0.0
C188 C 0.77442 0.12558 0.37037 0.0
C189 C 0.15291 0.07496 0.58953 0.0
H190 H 0.72681 0.85898 0.13513 0.0
H191 H 0.07811 0.91584 0.86159 0.0
H192 H 0.80217 0.92934 0.93144 0.0
H193 H 0.97472 0.05101 0.96855 0.0
H194 H 0.08375 0.8261 0.93923 0.0
H195 H 0.91039 0.70264 0.90528 0.0
H196 H 0.60293 0.78346 0.98059 0.0
H197 H 0.64131 0.83571 0.04559 0.0
H198 H 0.87258 0.72646 0.04687 0.0
H199 H 0.83371 0.67501 0.98182 0.0
H200 H 0.43573 0.53597 0.98689 0.0
H201 H 0.38619 0.4121 0.03401 0.0
H202 H 0.62498 0.3293 0.00123 0.0
H203 H 0.67393 0.45414 0.95469 0.0
H204 H 0.31915 0.46131 0.897 0.0
H205 H 0.1511 0.27912 0.88517 0.0
H206 H 0.3455 0.12687 0.88655 0.0
H207 H 0.51243 0.30924 0.8987 0.0
H208 H 0.41511 0.52135 0.82453 0.0
H209 H 0.29612 0.35109 0.78448 0.0
H210 H 0.52907 0.24921 0.80237 0.0
H211 H 0.64331 0.41471 0.84272 0.0
H212 H 0.72946 0.81567 0.83122 0.0
H213 H 0.87415 0.89212 0.78935 0.0
H214 H 0.95441 0.64693 0.81013 0.0
H215 H 0.81097 0.57184 0.85148 0.0
O216 O 0.72111 0.84783 0.10909 0.0
O217 O 0.82274 0.77132 0.10864 0.0
O218 O 0.04435 0.06857 0.87207 0.0
O219 O 0.14232 0.9882 0.86842 0.0
C220 C 0.7292 0.71425 0.90871 0.0
C221 C 0.67227 0.67074 0.93931 0.0
C222 C 0.57883 0.5644 0.93577 0.0
C223 C 0.52972 0.5092 0.90157 0.0
C224 C 0.58373 0.55356 0.87053 0.0
C225 C 0.68692 0.65343 0.87425 0.0
C226 C 0.84381 0.80744 0.91526 0.0
C227 C 0.86583 0.90954 0.93157 0.0
C228 C 0.96364 0.97815 0.95306 0.0
C229 C 0.04097 0.94632 0.9573 0.0
C230 C 0.02541 0.85252 0.93655 0.0
C231 C 0.92667 0.78256 0.9162 0.0
C232 C 0.71642 0.72675 0.97642 0.0
C233 C 0.66447 0.77425 -0.00522 0.0
C234 C 0.68583 0.80304 0.03197 0.0
C235 C 0.75863 0.78352 0.0515 0.0
C236 C 0.81534 0.74169 0.03268 0.0
C237 C 0.79437 0.71356 -0.00457 0.0
C238 C 0.55466 0.49966 0.96675 0.0
C239 C 0.4781 0.49221 0.99044 0.0
C240 C 0.45169 0.42289 0.01768 0.0
C241 C 0.50011 0.35876 0.0208 0.0
C242 C 0.58546 0.37641 -0.00065 0.0
C243 C 0.61203 0.44601 0.97238 0.0
C244 C 0.42771 0.39829 0.89845 0.0
C245 C 0.32495 0.38835 0.89525 0.0
C246 C 0.22926 0.28427 0.88833 0.0
C247 C 0.23501 0.18846 0.88449 0.0
C248 C 0.33814 0.19888 0.88908 0.0
C249 C 0.43359 0.3029 0.89616 0.0
C250 C 0.53956 0.48213 0.83596 0.0
C251 C 0.44291 0.46481 0.81817 0.0
C252 C 0.37433 0.36694 0.79577 0.0
C253 C 0.40218 0.28595 0.7912 0.0
C254 C 0.50457 0.30938 0.80591 0.0
C255 C 0.57233 0.40627 0.82817 0.0
C256 C 0.75799 0.68671 0.84387 0.0
C257 C 0.77587 0.77636 0.8257 0.0
C258 C 0.85844 0.81975 0.80185 0.0
C259 C 0.92549 0.77529 0.79653 0.0
C260 C 0.90381 0.68253 0.81355 0.0
C261 C 0.82056 0.63844 0.83682 0.0
C262 C 0.77034 0.80105 0.09143 0.0
C263 C 0.13454 0.07833 0.8748 0.0
loop_
_geom_bond_atom_site_label_1
_geom_bond_atom_site_label_2
_geom_bond_distance
_geom_bond_site_symmetry_2
_ccdc_geom_bond_type
Zn0 O3 2.031 . S
Zn0 O5 2.053 1_565 S
Zn0 O10 2.073 . S
Zn1 O2 1.962 . S
Zn1 O4 1.986 . S
Zn1 O6 1.996 . S
Zn1 O9 1.943 . S
O2 Zn1 1.962 . S
O2 C7 1.254 1_545 S
O3 Zn0 2.031 . S
O3 C7 1.269 . S
O4 Zn1 1.986 . S
O4 C11 1.262 . S
O5 Zn0 2.053 1_545 S
O5 C13 1.264 . S
O6 Zn1 1.996 . S
O6 C13 1.257 . S
C7 O2 1.254 1_565 S
C7 O3 1.269 . S
C8 O9 1.249 1_565 S
C8 O10 1.278 . S
O9 Zn1 1.943 . S
O9 C8 1.249 1_545 S
O10 Zn0 2.073 . S
O10 C8 1.278 . S
C11 O4 1.262 . S
C11 O12 1.232 . S
O12 C11 1.232 . S
C13 O5 1.264 . S
C13 O6 1.257 . S
Zn14 O17 2.031 . S
Zn14 O19 2.049 . S
Zn14 O24 2.067 1_545 S
Zn15 O16 1.962 . S
Zn15 O18 1.986 1_455 S
Zn15 O20 1.996 . S
Zn15 O23 1.943 1_545 S
O16 Zn15 1.962 . S
O16 C21 1.254 . S
O17 Zn14 2.031 . S
O17 C21 1.269 . S
O18 Zn15 1.986 1_655 S
O18 C25 1.262 1_545 S
O19 Zn14 2.049 . S
O19 C27 1.260 . S
O20 Zn15 1.996 . S
O20 C27 1.257 . S
C21 O16 1.254 . S
C21 O17 1.269 . S
C22 O23 1.249 . S
C22 O24 1.270 . S
O23 Zn15 1.943 1_565 S
O23 C22 1.249 . S
O24 Zn14 2.067 1_565 S
O24 C22 1.270 . S
C25 O18 1.262 1_565 S
C25 O26 1.232 . S
O26 C25 1.232 . S
C27 O19 1.260 . S
C27 O20 1.257 . S
Zn28 O31 2.031 . S
Zn28 O33 2.049 1_545 S
Zn28 O38 2.067 . S
Zn29 O30 1.962 . S
Zn29 O32 1.986 . S
Zn29 O34 1.996 1_545 S
Zn29 O37 1.943 . S
O30 Zn29 1.962 . S
O30 C35 1.254 . S
O31 Zn28 2.031 . S
O31 C35 1.269 . S
O32 Zn29 1.986 . S
O32 C39 1.262 . S
O33 Zn28 2.049 1_565 S
O33 C41 1.260 . S
O34 Zn29 1.996 1_565 S
O34 C41 1.257 . S
C35 O30 1.254 . S
C35 O31 1.269 . S
C36 O37 1.249 . S
C36 O38 1.270 . S
O37 Zn29 1.943 . S
O37 C36 1.249 . S
O38 Zn28 2.067 . S
O38 C36 1.270 . S
C39 O32 1.262 . S
C39 O40 1.232 . S
O40 C39 1.232 . S
C41 O33 1.260 . S
C41 O34 1.257 . S
H42 O68 0.856 1_556 S
H43 O71 0.854 . S
H44 C79 0.930 1_655 S
H45 C80 0.930 . S
H46 C82 0.930 . S
H47 C83 0.930 . S
H48 C85 0.931 . S
H49 C86 0.930 . S
H50 C88 0.930 . S
H51 C89 0.929 . S
H52 C91 0.930 1_655 S
H53 C92 0.931 . S
H54 C94 0.930 . S
H55 C95 0.929 . S
H56 C97 0.931 1_655 S
H57 C98 0.930 1_655 S
H58 C100 0.930 . S
H59 C101 0.932 . S
H60 C103 0.930 . S
H61 C104 0.929 . S
H62 C106 0.931 . S
H63 C107 0.930 . S
H64 C109 0.929 1_655 S
H65 C110 0.931 1_655 S
H66 C112 0.930 . S
H67 C113 0.929 . S
O68 H42 0.856 1_554 S
O68 C114 1.300 . S
O69 C114 1.209 . S
O70 C115 1.199 . S
O71 H43 0.854 . S
O71 C115 1.297 . S
C72 C73 1.404 . S
C72 C77 1.397 . S
C72 C78 1.492 . S
C73 C72 1.404 . S
C73 C74 1.396 . S
C73 C84 1.492 . S
C74 C73 1.396 . S
C74 C75 1.397 . S
C74 C90 1.509 . S
C75 C74 1.397 . S
C75 C76 1.412 . S
C75 C96 1.485 . S
C76 C75 1.412 . S
C76 C77 1.388 . S
C76 C102 1.490 . S
C77 C72 1.397 . S
C77 C76 1.388 . S
C77 C108 1.519 . S
C78 C72 1.492 . S
C78 C79 1.363 . S
C78 C83 1.390 . S
C79 H44 0.930 1_455 S
C79 C78 1.363 . S
C79 C80 1.372 1_455 S
C80 H45 0.930 . S
C80 C79 1.372 1_655 S
C80 C81 1.383 1_655 S
C81 C80 1.383 1_455 S
C81 C82 1.395 . S
C82 H46 0.930 . S
C82 C81 1.395 . S
C82 C83 1.362 . S
C83 H47 0.930 . S
C83 C78 1.390 . S
C83 C82 1.362 . S
C84 C73 1.492 . S
C84 C85 1.377 . S
C84 C89 1.397 . S
C85 H48 0.931 . S
C85 C84 1.377 . S
C85 C86 1.376 . S
C86 H49 0.930 . S
C86 C85 1.376 . S
C86 C87 1.376 . S
C87 C86 1.376 . S
C87 C88 1.378 . S
C87 C114 1.486 . S
C88 H50 0.930 . S
C88 C87 1.378 . S
C88 C89 1.376 . S
C89 H51 0.929 . S
C89 C84 1.397 . S
C89 C88 1.376 . S
C90 C74 1.509 . S
C90 C91 1.391 . S
C90 C95 1.386 . S
C91 H52 0.930 1_455 S
C91 C90 1.391 . S
C91 C92 1.375 . S
C92 H53 0.931 . S
C92 C91 1.375 . S
C92 C93 1.375 . S
C93 C92 1.375 . S
C93 C94 1.361 . S
C94 H54 0.930 . S
C94 C93 1.361 . S
C94 C95 1.399 . S
C95 H55 0.929 . S
C95 C90 1.386 . S
C95 C94 1.399 . S
C96 C75 1.485 . S
C96 C97 1.394 . S
C96 C101 1.360 . S
C97 H56 0.931 1_455 S
C97 C96 1.394 . S
C97 C98 1.372 . S
C98 H57 0.930 1_455 S
C98 C97 1.372 . S
C98 C99 1.397 1_565 S
C99 C98 1.397 1_545 S
C99 C100 1.390 . S
C99 C115 1.476 . S
C100 H58 0.930 . S
C100 C99 1.390 . S
C100 C101 1.366 1_545 S
C101 H59 0.932 . S
C101 C96 1.360 . S
C101 C100 1.366 1_565 S
C102 C76 1.490 . S
C102 C103 1.380 1_455 S
C102 C107 1.386 . S
C103 H60 0.930 . S
C103 C102 1.380 1_655 S
C103 C104 1.381 . S
C104 H61 0.929 . S
C104 C103 1.381 . S
C104 C105 1.371 1_655 S
C105 C104 1.371 1_455 S
C105 C106 1.380 . S
C106 H62 0.931 . S
C106 C105 1.380 . S
C106 C107 1.387 . S
C107 H63 0.930 . S
C107 C102 1.386 . S
C107 C106 1.387 . S
C108 C77 1.519 . S
C108 C109 1.377 . S
C108 C113 1.361 . S
C109 H64 0.929 1_455 S
C109 C108 1.377 . S
C109 C110 1.386 . S
C110 H65 0.931 1_455 S
C110 C109 1.386 . S
C110 C111 1.363 . S
C111 C110 1.363 . S
C111 C112 1.385 . S
C112 H66 0.930 . S
C112 C111 1.385 . S
C112 C113 1.396 . S
C113 H67 0.929 . S
C113 C108 1.361 . S
C113 C112 1.396 . S
C114 O68 1.300 . S
C114 O69 1.209 . S
C114 C87 1.486 . S
C115 O70 1.199 . S
C115 O71 1.297 . S
C115 C99 1.476 . S
H116 O142 0.856 1_545 S
H117 O145 0.854 . S
H118 C153 0.930 . S
H119 C154 0.930 . S
H120 C156 0.930 1_455 S
H121 C157 0.930 . S
H122 C159 0.931 . S
H123 C160 0.930 . S
H124 C162 0.930 . S
H125 C163 0.929 . S
H126 C165 0.930 . S
H127 C166 0.931 1_565 S
H128 C168 0.930 . S
H129 C169 0.929 . S
H130 C171 0.931 1_565 S
H131 C172 0.930 1_565 S
H132 C174 0.930 . S
H133 C175 0.932 . S
H134 C177 0.930 . S
H135 C178 0.929 . S
H136 C180 0.931 . S
H137 C181 0.930 . S
H138 C183 0.929 1_565 S
H139 C184 0.931 1_565 S
H140 C186 0.930 . S
H141 C187 0.929 . S
O142 H116 0.856 1_565 S
O142 C188 1.300 1_565 S
O143 C188 1.209 . S
O144 C189 1.199 . S
O145 H117 0.854 . S
O145 C189 1.297 . S
C146 C147 1.404 . S
C146 C151 1.397 . S
C146 C152 1.492 . S
C147 C146 1.404 . S
C147 C148 1.396 . S
C147 C158 1.492 . S
C148 C147 1.396 . S
C148 C149 1.397 . S
C148 C164 1.509 . S
C149 C148 1.397 . S
C149 C150 1.412 . S
C149 C170 1.485 . S
C150 C149 1.412 . S
C150 C151 1.388 . S
C150 C176 1.490 . S
C151 C146 1.397 . S
C151 C150 1.388 . S
C151 C182 1.519 . S
C152 C146 1.492 . S
C152 C153 1.363 1_545 S
C152 C157 1.390 . S
C153 H118 0.930 . S
C153 C152 1.363 1_565 S
C153 C154 1.372 . S
C154 H119 0.930 . S
C154 C153 1.372 . S
C154 C155 1.383 1_565 S
C155 C154 1.383 1_545 S
C155 C156 1.395 . S
C156 H120 0.930 1_655 S
C156 C155 1.395 . S
C156 C157 1.362 . S
C157 H121 0.930 . S
C157 C152 1.390 . S
C157 C156 1.362 . S
C158 C147 1.492 . S
C158 C159 1.377 1_545 S
C158 C163 1.397 . S
C159 H122 0.931 . S
C159 C158 1.377 1_565 S
C159 C160 1.376 . S
C160 H123 0.930 . S
C160 C159 1.376 . S
C160 C161 1.376 1_565 S
C161 C160 1.376 1_545 S
C161 C162 1.378 . S
C161 C188 1.486 . S
C162 H124 0.930 . S
C162 C161 1.378 . S
C162 C163 1.376 . S
C163 H125 0.929 . S
C163 C158 1.397 . S
C163 C162 1.376 . S
C164 C148 1.509 . S
C164 C165 1.391 1_545 S
C164 C169 1.386 . S
C165 H126 0.930 . S
C165 C164 1.391 1_565 S
C165 C166 1.375 1_565 S
C166 H127 0.931 1_545 S
C166 C165 1.375 1_545 S
C166 C167 1.375 . S
C167 C166 1.375 . S
C167 C168 1.361 . S
C168 H128 0.930 . S
C168 C167 1.361 . S
C168 C169 1.399 . S
C169 H129 0.929 . S
C169 C164 1.386 . S
C169 C168 1.399 . S
C170 C149 1.485 . S
C170 C171 1.394 . S
C170 C175 1.360 . S
C171 H130 0.931 1_545 S
C171 C170 1.394 . S
C171 C172 1.372 . S
C172 H131 0.930 1_545 S
C172 C171 1.372 . S
C172 C173 1.397 . S
C173 C172 1.397 . S
C173 C174 1.390 . S
C173 C189 1.476 . S
C174 H132 0.930 . S
C174 C173 1.390 . S
C174 C175 1.366 . S
C175 H133 0.932 . S
C175 C170 1.360 . S
C175 C174 1.366 . S
C176 C150 1.490 . S
C176 C177 1.380 1_545 S
C176 C181 1.386 . S
C177 H134 0.930 . S
C177 C176 1.380 1_565 S
C177 C178 1.381 . S
C178 H135 0.929 . S
C178 C177 1.381 . S
C178 C179 1.371 1_565 S
C179 C178 1.371 1_545 S
C179 C180 1.380 . S
C180 H136 0.931 . S
C180 C179 1.380 . S
C180 C181 1.387 . S
C181 H137 0.930 . S
C181 C176 1.386 . S
C181 C180 1.387 . S
C182 C151 1.519 . S
C182 C183 1.377 . S
C182 C187 1.361 . S
C183 H138 0.929 1_545 S
C183 C182 1.377 . S
C183 C184 1.386 . S
C184 H139 0.931 1_545 S
C184 C183 1.386 . S
C184 C185 1.363 . S
C185 C184 1.363 . S
C185 C186 1.385 . S
C186 H140 0.930 . S
C186 C185 1.385 . S
C186 C187 1.396 . S
C187 H141 0.929 . S
C187 C182 1.361 . S
C187 C186 1.396 . S
C188 O142 1.300 1_545 S
C188 O143 1.209 . S
C188 C161 1.486 . S
C189 O144 1.199 . S
C189 O145 1.297 . S
C189 C173 1.476 . S
H190 O216 0.856 . S
H191 O219 0.854 . S
H192 C227 0.930 . S
H193 C228 0.930 . S
H194 C230 0.930 . S
H195 C231 0.930 . S
H196 C233 0.931 . S
H197 C234 0.930 . S
H198 C236 0.930 . S
H199 C237 0.929 1_556 S
H200 C239 0.930 . S
H201 C240 0.931 . S
H202 C242 0.930 . S
H203 C243 0.929 . S
H204 C245 0.931 . S
H205 C246 0.930 . S
H206 C248 0.930 . S
H207 C249 0.932 . S
H208 C251 0.930 . S
H209 C252 0.929 . S
H210 C254 0.931 . S
H211 C255 0.930 . S
H212 C257 0.929 . S
H213 C258 0.931 . S
H214 C260 0.930 . S
H215 C261 0.929 . S
O216 H190 0.856 . S
O216 C262 1.300 . S
O217 C262 1.209 . S
O218 C263 1.199 . S
O219 H191 0.854 . S
O219 C263 1.297 . S
C220 C221 1.404 . S
C220 C225 1.397 . S
C220 C226 1.492 . S
C221 C220 1.404 . S
C221 C222 1.396 . S
C221 C232 1.492 . S
C222 C221 1.396 . S
C222 C223 1.397 . S
C222 C238 1.509 . S
C223 C222 1.397 . S
C223 C224 1.412 . S
C223 C244 1.485 . S
C224 C223 1.412 . S
C224 C225 1.388 . S
C224 C250 1.490 . S
C225 C220 1.397 . S
C225 C224 1.388 . S
C225 C256 1.519 . S
C226 C220 1.492 . S
C226 C227 1.363 . S
C226 C231 1.390 . S
C227 H192 0.930 . S
C227 C226 1.363 . S
C227 C228 1.372 . S
C228 H193 0.930 . S
C228 C227 1.372 . S
C228 C229 1.383 1_655 S
C229 C228 1.383 1_455 S
C229 C230 1.395 . S
C230 H194 0.930 . S
C230 C229 1.395 . S
C230 C231 1.362 1_455 S
C231 H195 0.930 . S
C231 C226 1.390 . S
C231 C230 1.362 1_655 S
C232 C221 1.492 . S
C232 C233 1.377 1_556 S
C232 C237 1.397 1_556 S
C233 H196 0.931 . S
C233 C232 1.377 1_554 S
C233 C234 1.376 . S
C234 H197 0.930 . S
C234 C233 1.376 . S
C234 C235 1.376 . S
C235 C234 1.376 . S
C235 C236 1.378 . S
C235 C262 1.486 . S
C236 H198 0.930 . S
C236 C235 1.378 . S
C236 C237 1.376 . S
C237 H199 0.929 1_554 S
C237 C232 1.397 1_554 S
C237 C236 1.376 . S
C238 C222 1.509 . S
C238 C239 1.391 . S
C238 C243 1.386 . S
C239 H200 0.930 . S
C239 C238 1.391 . S
C239 C240 1.375 1_556 S
C240 H201 0.931 . S
C240 C239 1.375 1_554 S
C240 C241 1.375 . S
C241 C240 1.375 . S
C241 C242 1.361 . S
C242 H202 0.930 . S
C242 C241 1.361 . S
C242 C243 1.399 1_554 S
C243 H203 0.929 . S
C243 C238 1.386 . S
C243 C242 1.399 1_556 S
C244 C223 1.485 . S
C244 C245 1.394 . S
C244 C249 1.360 . S
C245 H204 0.931 . S
C245 C244 1.394 . S
C245 C246 1.372 . S
C246 H205 0.930 . S
C246 C245 1.372 . S
C246 C247 1.397 . S
C247 C246 1.397 . S
C247 C248 1.390 . S
C247 C263 1.476 1_545 S
C248 H206 0.930 . S
C248 C247 1.390 . S
C248 C249 1.366 . S
C249 H207 0.932 . S
C249 C244 1.360 . S
C249 C248 1.366 . S
C250 C224 1.490 . S
C250 C251 1.380 . S
C250 C255 1.386 . S
C251 H208 0.930 . S
C251 C250 1.380 . S
C251 C252 1.381 . S
C252 H209 0.929 . S
C252 C251 1.381 . S
C252 C253 1.371 . S
C253 C252 1.371 . S
C253 C254 1.380 . S
C254 H210 0.931 . S
C254 C253 1.380 . S
C254 C255 1.387 . S
C255 H211 0.930 . S
C255 C250 1.386 . S
C255 C254 1.387 . S
C256 C225 1.519 . S
C256 C257 1.377 . S
C256 C261 1.361 . S
C257 H212 0.929 . S
C257 C256 1.377 . S
C257 C258 1.386 . S
C258 H213 0.931 . S
C258 C257 1.386 . S
C258 C259 1.363 . S
C259 C258 1.363 . S
C259 C260 1.385 . S
C260 H214 0.930 . S
C260 C259 1.385 . S
C260 C261 1.396 . S
C261 H215 0.929 . S
C261 C256 1.361 . S
C261 C260 1.396 . S
C262 O216 1.300 . S
C262 O217 1.209 . S
C262 C235 1.486 . S
C263 O218 1.199 . S
C263 O219 1.297 . S
C263 C247 1.476 1_565 S
C81 C11 1.969 . S
C25 C155 2.063 1_565 S
C41 C259 2.345 1_455 S
C7 C93 0.576 . S
C167 C21 0.753 . S
C36 C253 2.604 . S
C185 C39 2.351 1_655 S
C8 C229 1.859 1_554 S
C105 C22 2.688 . S
C179 C35 2.225 . S
C241 C13 0.666 . S
C27 C111 2.452 . S
