# Generated by pormake.
# Topology rtl, (3,6)-cn, num edge types: 1
# Building blocks:
#     Node 0, Type 0, BuildingBlock: PAMTOO_clean_linker_0, # of connection points: 3
#     Node 1, Type 0, BuildingBlock: PAMTOO_clean_linker_0, # of connection points: 3
#     Node 2, Type 0, BuildingBlock: PAMTOO_clean_linker_0, # of connection points: 3
#     Node 3, Type 0, BuildingBlock: PAMTOO_clean_linker_0, # of connection points: 3
#     Node 4, Type 1, BuildingBlock: CIFDUS_clean_sbu_1, # of connection points: 6
#     Node 5, Type 1, BuildingBlock: CIFDUS_clean_sbu_1, # of connection points: 6
#     Edge 6, Type (0, 1), BuildingBlock: AJUNOK_clean_linker_0, # of connection points: 2
#     Edge 7, Type (0, 1), BuildingBlock: AJUNOK_clean_linker_0, # of connection points: 2
#     Edge 8, Type (0, 1), BuildingBlock: AJUNOK_clean_linker_0, # of connection points: 2
#     Edge 9, Type (0, 1), BuildingBlock: AJUNOK_clean_linker_0, # of connection points: 2
#     Edge 10, Type (0, 1), BuildingBlock: AJUNOK_clean_linker_0, # of connection points: 2
#     Edge 11, Type (0, 1), BuildingBlock: AJUNOK_clean_linker_0, # of connection points: 2
#     Edge 12, Type (0, 1), BuildingBlock: AJUNOK_clean_linker_0, # of connection points: 2
#     Edge 13, Type (0, 1), BuildingBlock: AJUNOK_clean_linker_0, # of connection points: 2
#     Edge 14, Type (0, 1), BuildingBlock: AJUNOK_clean_linker_0, # of connection points: 2
#     Edge 15, Type (0, 1), BuildingBlock: AJUNOK_clean_linker_0, # of connection points: 2
#     Edge 16, Type (0, 1), BuildingBlock: AJUNOK_clean_linker_0, # of connection points: 2
#     Edge 17, Type (0, 1), BuildingBlock: AJUNOK_clean_linker_0, # of connection points: 2
# Relax obj value: 0.021
# Max RMSD: 0.108
# Mean RMSD: 0.087
data_MOF--net-rtl--node1-CIFDUS_clean_sbu_1--node2-PAMTOO_clean_linker_0--edge1-AJUNOK_clean_linker_0
_symmetry_space_group_name_H-M    P1
_symmetry_Int_Tables_number       1
_symmetry_cell_setting            triclinic
loop_
_symmetry_equiv_pos_as_xyz
'x, y, z'
_cell_length_a     26.076206
_cell_length_b     26.044741
_cell_length_c     15.973695
_cell_angle_alpha  92.323413
_cell_angle_beta   98.694519
_cell_angle_gamma 90.380538
loop_
_atom_site_label
_atom_site_type_symbol
_atom_site_fract_x
_atom_site_fract_y
_atom_site_fract_z
_atom_type_partial_charge
H0 H 0.11113 0.91041 0.08664 0.0
H1 H 0.23035 0.82424 0.23022 0.0
H2 H 0.21526 0.81914 0.95783 0.0
H3 H 0.221 0.71508 0.10292 0.0
C4 C 0.25967 0.73204 0.12945 0.0
O5 O 0.26459 0.78081 0.09935 0.0
H6 H 0.26173 0.73481 0.19952 0.0
C7 C 0.14441 0.8856 0.08781 0.0
C8 C 0.16176 0.86994 0.01152 0.0
C9 C 0.16981 0.87069 0.16643 0.0
C10 C 0.21074 0.83612 0.1695 0.0
C11 C 0.22559 0.8155 0.0944 0.0
C12 C 0.20148 0.83282 0.01525 0.0
H13 H 0.63729 0.62902 0.58804 0.0
H14 H 0.7346 0.73581 0.48117 0.0
H15 H 0.75872 0.71342 0.74895 0.0
H16 H 0.79864 0.80363 0.73994 0.0
C17 C 0.79016 0.80932 0.67069 0.0
O18 O 0.79189 0.76225 0.62733 0.0
H19 H 0.75046 0.82544 0.65658 0.0
C20 C 0.66946 0.65621 0.59497 0.0
C21 C 0.69622 0.6687 0.67667 0.0
C22 C 0.68315 0.67941 0.52281 0.0
C23 C 0.72399 0.7163 0.53475 0.0
C24 C 0.75173 0.72791 0.6161 0.0
C25 C 0.73811 0.70343 0.68621 0.0
H26 H 0.91631 0.13712 0.03582 0.0
H27 H 0.82553 0.24298 0.87663 0.0
H28 H 0.82426 0.25088 0.14583 0.0
H29 H 0.71806 0.25917 0.99836 0.0
C30 C 0.73704 0.2897 0.96659 0.0
O31 O 0.78936 0.29302 0.99979 0.0
H32 H 0.73316 0.27915 0.89776 0.0
C33 C 0.88958 0.16893 0.02877 0.0
C34 C 0.8734 0.19215 0.10117 0.0
C35 C 0.87236 0.18659 0.94753 0.0
C36 C 0.8385 0.22841 0.93876 0.0
C37 C 0.82052 0.25133 1.00969 0.0
C38 C 0.83754 0.23272 0.09092 0.0
H39 H 0.40259 0.43826 0.49664 0.0
H40 H 0.30866 0.33136 0.60798 0.0
H41 H 0.29218 0.33893 0.33727 0.0
H42 H 0.19273 0.30044 0.39285 0.0
C43 C 0.21055 0.29164 0.45832 0.0
O44 O 0.26385 0.28937 0.46145 0.0
H45 H 0.20046 0.32272 0.50264 0.0
C46 C 0.3725 0.40879 0.48943 0.0
C47 C 0.34905 0.39169 0.40758 0.0
C48 C 0.35801 0.38765 0.56227 0.0
C49 C 0.31961 0.34864 0.5526 0.0
C50 C 0.29618 0.33094 0.47124 0.0
C51 C 0.31043 0.35303 0.39948 0.0
O52 O 0.98508 0.07505 0.44881 0.0
Mn53 Mn 0.01711 0.02905 0.5511 0.0
O54 O 0.9245 0.0271 0.36624 0.0
Mn55 Mn 0.94893 0.96704 0.41314 0.0
O56 O 0.04611 0.98092 0.65479 0.0
O57 O 0.07624 0.08713 0.57181 0.0
Mn58 Mn 0.08565 0.07572 0.68262 0.0
O59 O 0.97088 0.06861 0.62747 0.0
O60 O 0.1208 0.01643 0.7048 0.0
O61 O 0.06338 0.98899 0.47353 0.0
O62 O 0.00834 0.94051 0.38027 0.0
O63 O 0.12765 0.12817 0.68253 0.0
O64 O 0.03004 0.09113 0.7384 0.0
C65 C 0.92135 0.9396 0.51858 0.0
C66 C 0.94735 0.06988 0.38652 0.0
C67 C 0.09055 0.97874 0.7021 0.0
C68 C 0.11273 0.12201 0.60153 0.0
C69 C 0.98336 0.08849 0.70236 0.0
C70 C 0.05396 0.955 0.41225 0.0
O71 O 0.95845 0.97444 0.52537 0.0
O72 O 0.90226 0.92275 0.44279 0.0
O73 O 0.55297 0.58464 0.14577 0.0
Mn74 Mn 0.51856 0.53616 0.04089 0.0
O75 O 0.59001 0.53109 0.24232 0.0
Mn76 Mn 0.56995 0.47329 0.17564 0.0
O77 O 0.48325 0.48942 0.9347 0.0
O78 O 0.4608 0.59129 0.015 0.0
Mn79 Mn 0.4701 0.60385 0.90975 0.0
O80 O 0.57187 0.56821 0.96727 0.0
O81 O 0.45148 0.5468 0.83961 0.0
O82 O 0.46556 0.50361 0.11424 0.0
O83 O 0.50866 0.44326 0.18905 0.0
O84 O 0.41943 0.64676 0.92465 0.0
O85 O 0.5323 0.63452 0.90489 0.0
C86 C 0.61203 0.44504 0.08666 0.0
C87 C 0.57937 0.57608 0.21884 0.0
C88 C 0.45849 0.50073 0.86147 0.0
C89 C 0.42452 0.62616 0.99795 0.0
C90 C 0.57283 0.60905 0.92479 0.0
C91 C 0.4668 0.46531 0.16289 0.0
O92 O 0.57621 0.48022 0.06668 0.0
O93 O 0.62008 0.42962 0.16367 0.0
C94 C 0.13677 0.22616 0.45172 0.0
C95 C 0.18855 0.24117 0.48343 0.0
C96 C 0.11275 0.18385 0.48357 0.0
C97 C 0.1399 0.15513 0.54814 0.0
H98 H 0.11387 0.24883 0.40475 0.0
H99 H 0.07196 0.176 0.46198 0.0
S100 S 0.27693 0.17578 0.64916 0.0
N101 N 0.26607 0.22219 0.58178 0.0
N102 N 0.22251 0.14186 0.63751 0.0
C103 C 0.19254 0.16784 0.57634 0.0
C104 C 0.21639 0.21121 0.54563 0.0
C105 C 0.2924 0.66438 0.03427 0.0
C106 C 0.30231 0.69735 0.10666 0.0
C107 C 0.332 0.63519 1.0067 0.0
C108 C 0.38341 0.63828 0.04945 0.0
H109 H 0.25417 0.66267 0.9966 0.0
H110 H 0.32315 0.61313 0.94715 0.0
S111 S 0.42868 0.71436 0.24774 0.0
N112 N 0.36626 0.72762 0.22576 0.0
N113 N 0.44119 0.6735 0.17172 0.0
C114 C 0.3933 0.6684 0.12496 0.0
C115 C 0.35269 0.69803 0.15374 0.0
C116 C 0.81558 0.89789 0.63028 0.0
C117 C 0.82992 0.84694 0.64772 0.0
C118 C 0.84993 0.93224 0.60102 0.0
C119 C 0.90005 0.91718 0.58906 0.0
H120 H 0.77653 0.91046 0.63465 0.0
H121 H 0.83542 0.96917 0.57986 0.0
S122 S 0.95982 0.79145 0.64017 0.0
N123 N 0.90042 0.7858 0.66332 0.0
N124 N 0.96443 0.85018 0.60633 0.0
C125 C 0.91654 0.86819 0.61425 0.0
C126 C 0.88164 0.83311 0.64414 0.0
C127 C 0.7296 0.37796 0.03928 0.0
C128 C 0.70869 0.33986 0.97854 0.0
C129 C 0.69911 0.4186 0.06321 0.0
C130 C 0.64612 0.42226 0.02937 0.0
H131 H 0.76868 0.3748 0.07285 0.0
H132 H 0.71569 0.44421 0.11569 0.0
S133 S 0.57492 0.33734 0.859 0.0
N134 N 0.63364 0.31269 0.87645 0.0
N135 N 0.57606 0.38828 0.92445 0.0
C136 C 0.62616 0.38759 0.96295 0.0
C137 C 0.65741 0.34637 0.93747 0.0
C138 C 0.15197 0.94416 0.26326 0.0
C139 C 0.1516 0.89081 0.24461 0.0
C140 C 0.12496 0.965 0.32616 0.0
C141 C 0.0961 0.93307 0.37094 0.0
H142 H 0.17081 0.97006 0.22567 0.0
H143 H 0.12295 1.00641 0.33443 0.0
S144 S 0.08645 0.79092 0.35067 0.0
N145 N 0.12384 0.80652 0.28062 0.0
N146 N 0.07197 0.84562 0.39717 0.0
C147 C 0.09833 0.87958 0.35661 0.0
C148 C 0.1264 0.85841 0.29374 0.0
C149 C 0.64995 0.68958 0.79802 0.0
C150 C 0.67492 0.65266 0.75274 0.0
C151 C 0.62183 0.67538 0.86153 0.0
C152 C 0.61741 0.6236 0.88244 0.0
H153 H 0.64953 0.7294 0.78068 0.0
H154 H 0.60015 0.70486 0.89025 0.0
S155 S 0.68477 0.5138 0.79416 0.0
N156 N 0.70032 0.5634 0.74114 0.0
N157 N 0.64718 0.53644 0.86131 0.0
C158 C 0.64651 0.58698 0.84343 0.0
C159 C 0.67504 0.60152 0.77786 0.0
C160 C 0.8592 0.1507 0.23537 0.0
C161 C 0.89362 0.17196 0.18605 0.0
C162 C 0.8775 0.12115 0.30532 0.0
C163 C 0.93095 0.11263 0.32993 0.0
H164 H 0.81771 0.1538 0.21622 0.0
H165 H 0.84937 0.10239 0.33767 0.0
S166 S 0.03738 0.16452 0.22744 0.0
N167 N 0.98404 0.18595 0.17098 0.0
N168 N 0.01809 0.13104 0.30292 0.0
C169 C 0.9659 0.13683 0.28506 0.0
C170 C 0.94731 0.16627 0.213 0.0
C171 C 0.43551 0.40255 0.67694 0.0
C172 C 0.38202 0.40817 0.64795 0.0
C173 C 0.46001 0.42846 0.75204 0.0
C174 C 0.43184 0.46115 0.80011 0.0
H175 H 0.45891 0.37966 0.63941 0.0
H176 H 0.50167 0.42575 0.76914 0.0
S177 S 0.29119 0.48855 0.75165 0.0
N178 N 0.30189 0.44779 0.67444 0.0
N179 N 0.34753 0.49677 0.81385 0.0
C180 C 0.37808 0.46537 0.77313 0.0
C181 C 0.35327 0.43883 0.69758 0.0
C182 C 0.60064 0.6568 0.42191 0.0
C183 C 0.65509 0.66399 0.4359 0.0
C184 C 0.5745 0.63398 0.34555 0.0
C185 C 0.60158 0.61793 0.27955 0.0
H186 H 0.57826 0.66662 0.47201 0.0
H187 H 0.53343 0.62532 0.34072 0.0
S188 S 0.74328 0.63045 0.2804 0.0
N189 N 0.7344 0.65521 0.37388 0.0
N190 N 0.68511 0.61311 0.23107 0.0
C191 C 0.65526 0.6279 0.29033 0.0
C192 C 0.68201 0.65082 0.36804 0.0
C193 C 0.89096 0.10848 0.86007 0.0
C194 C 0.89229 0.16239 0.87308 0.0
C195 C 0.91674 0.0843 0.79834 0.0
C196 C 0.94456 0.11332 0.74778 0.0
H197 H 0.87166 0.08476 0.90029 0.0
H198 H 0.91754 0.04269 0.79373 0.0
S199 S 0.95863 0.25504 0.75395 0.0
N200 N 0.92225 0.24378 0.82751 0.0
N201 N 0.97063 0.1982 0.71198 0.0
C202 C 0.94419 0.16709 0.75732 0.0
C203 C 0.91792 0.19172 0.81972 0.0
C204 C 0.37614 0.46467 0.32384 0.0
C205 C 0.36809 0.41151 0.3312 0.0
C206 C 0.40239 0.48333 0.26018 0.0
C207 C 0.42177 0.44939 0.20217 0.0
H208 H 0.3644 0.49185 0.37026 0.0
H209 H 0.41166 0.524 0.26134 0.0
S210 S 0.40717 0.30753 0.18883 0.0
N211 N 0.37847 0.32579 0.27022 0.0
N212 N 0.42745 0.36093 0.15136 0.0
C213 C 0.41051 0.3967 0.20488 0.0
C214 C 0.38383 0.3777 0.26922 0.0
C215 C 0.12907 0.86906 0.85157 0.0
C216 C 0.14037 0.89601 0.93114 0.0
C217 C 0.10924 0.89451 0.77672 0.0
C218 C 0.09928 0.94761 0.77926 0.0
H219 H 0.13609 0.82819 0.8469 0.0
H220 H 0.10351 0.87299 0.71652 0.0
S221 S 0.12297 0.03647 0.96927 0.0
N222 N 0.14242 0.98015 1.00444 0.0
N223 N 0.10097 0.02574 0.86782 0.0
C224 C 0.10889 0.97433 0.85857 0.0
C225 C 0.13061 0.94928 0.9332 0.0
loop_
_geom_bond_atom_site_label_1
_geom_bond_atom_site_label_2
_geom_bond_distance
_geom_bond_site_symmetry_2
_ccdc_geom_bond_type
H0 C7 0.929 . S
H1 C10 0.930 . S
H2 C12 0.929 . S
H3 C4 0.969 . S
C4 H3 0.969 . S
C4 O5 1.550 . S
C4 H6 0.973 . S
O5 C4 1.550 . S
O5 C11 1.412 . S
H6 C4 0.973 . S
C7 H0 0.929 . S
C7 C8 1.400 . S
C7 C9 1.364 . S
C8 C7 1.400 . S
C8 C12 1.377 1_554 S
C9 C7 1.364 . S
C9 C10 1.374 . S
C10 H1 0.930 . S
C10 C9 1.374 . S
C10 C11 1.383 . S
C11 O5 1.412 . S
C11 C10 1.383 . S
C11 C12 1.394 1_554 S
C12 H2 0.929 . S
C12 C8 1.377 1_556 S
C12 C11 1.394 1_556 S
H13 C20 0.929 . S
H14 C23 0.930 . S
H15 C25 0.929 . S
H16 C17 0.969 . S
C17 H16 0.969 . S
C17 O18 1.550 . S
C17 H19 0.973 . S
O18 C17 1.550 . S
O18 C24 1.412 . S
H19 C17 0.973 . S
C20 H13 0.929 . S
C20 C21 1.400 . S
C20 C22 1.364 . S
C21 C20 1.400 . S
C21 C25 1.377 . S
C22 C20 1.364 . S
C22 C23 1.374 . S
C23 H14 0.930 . S
C23 C22 1.374 . S
C23 C24 1.383 . S
C24 O18 1.412 . S
C24 C23 1.383 . S
C24 C25 1.394 . S
C25 H15 0.929 . S
C25 C21 1.377 . S
C25 C24 1.394 . S
H26 C33 0.929 . S
H27 C36 0.930 . S
H28 C38 0.929 . S
H29 C30 0.969 . S
C30 H29 0.969 . S
C30 O31 1.550 1_556 S
C30 H32 0.973 . S
O31 C30 1.550 1_554 S
O31 C37 1.412 . S
H32 C30 0.973 . S
C33 H26 0.929 . S
C33 C34 1.400 . S
C33 C35 1.364 1_554 S
C34 C33 1.400 . S
C34 C38 1.377 . S
C35 C33 1.364 1_556 S
C35 C36 1.374 . S
C36 H27 0.930 . S
C36 C35 1.374 . S
C36 C37 1.383 1_556 S
C37 O31 1.412 . S
C37 C36 1.383 1_554 S
C37 C38 1.394 . S
C38 H28 0.929 . S
C38 C34 1.377 . S
C38 C37 1.394 . S
H39 C46 0.929 . S
H40 C49 0.930 . S
H41 C51 0.929 . S
H42 C43 0.969 . S
C43 H42 0.969 . S
C43 O44 1.550 . S
C43 H45 0.973 . S
O44 C43 1.550 . S
O44 C50 1.412 . S
H45 C43 0.973 . S
C46 H39 0.929 . S
C46 C47 1.400 . S
C46 C48 1.364 . S
C47 C46 1.400 . S
C47 C51 1.377 . S
C48 C46 1.364 . S
C48 C49 1.374 . S
C49 H40 0.930 . S
C49 C48 1.374 . S
C49 C50 1.383 . S
C50 O44 1.412 . S
C50 C49 1.383 . S
C50 C51 1.394 . S
C51 H41 0.929 . S
C51 C47 1.377 . S
C51 C50 1.394 . S
O52 Mn53 2.163 1_655 S
O52 C66 1.244 . S
Mn53 O52 2.163 1_455 S
Mn53 O56 2.160 1_545 S
Mn53 O57 2.221 . S
Mn53 O59 2.163 1_455 S
Mn53 O61 2.160 1_545 S
Mn53 O71 2.221 1_445 S
O54 Mn55 2.087 1_545 S
O54 C66 1.256 . S
Mn55 O54 2.087 1_565 S
Mn55 O62 2.089 1_655 S
Mn55 O71 2.290 . S
Mn55 O72 2.251 . S
O56 Mn53 2.160 1_565 S
O56 C67 1.239 . S
O57 Mn53 2.221 . S
O57 Mn58 2.290 . S
O57 C68 1.278 . S
Mn58 O57 2.290 . S
Mn58 O60 2.089 . S
Mn58 O63 2.251 . S
Mn58 O64 2.087 . S
O59 Mn53 2.163 1_655 S
O59 C69 1.244 . S
O60 Mn58 2.089 . S
O60 C67 1.256 1_545 S
O61 Mn53 2.160 1_565 S
O61 C70 1.239 . S
O62 Mn55 2.089 1_455 S
O62 C70 1.256 . S
O63 Mn58 2.251 . S
O63 C68 1.241 . S
O64 Mn58 2.087 . S
O64 C69 1.256 1_455 S
C65 O71 1.278 . S
C65 O72 1.241 . S
C66 O52 1.244 . S
C66 O54 1.256 . S
C67 O56 1.239 . S
C67 O60 1.256 1_565 S
C68 O57 1.278 . S
C68 O63 1.241 . S
C69 O59 1.244 . S
C69 O64 1.256 1_655 S
C70 O61 1.239 . S
C70 O62 1.256 . S
O71 Mn53 2.221 1_665 S
O71 Mn55 2.290 . S
O71 C65 1.278 . S
O72 Mn55 2.251 . S
O72 C65 1.241 . S
O73 Mn74 2.163 . S
O73 C87 1.244 . S
Mn74 O73 2.163 . S
Mn74 O77 2.160 1_554 S
Mn74 O78 2.221 . S
Mn74 O80 2.163 1_554 S
Mn74 O82 2.160 . S
Mn74 O92 2.221 . S
O75 Mn76 2.087 . S
O75 C87 1.256 . S
Mn76 O75 2.087 . S
Mn76 O83 2.089 . S
Mn76 O92 2.290 . S
Mn76 O93 2.251 . S
O77 Mn74 2.160 1_556 S
O77 C88 1.239 . S
O78 Mn74 2.221 . S
O78 Mn79 2.290 1_554 S
O78 C89 1.278 . S
Mn79 O78 2.290 1_556 S
Mn79 O81 2.089 . S
Mn79 O84 2.251 . S
Mn79 O85 2.087 . S
O80 Mn74 2.163 1_556 S
O80 C90 1.244 . S
O81 Mn79 2.089 . S
O81 C88 1.256 . S
O82 Mn74 2.160 . S
O82 C91 1.239 . S
O83 Mn76 2.089 . S
O83 C91 1.256 . S
O84 Mn79 2.251 . S
O84 C89 1.241 1_556 S
O85 Mn79 2.087 . S
O85 C90 1.256 . S
C86 O92 1.278 . S
C86 O93 1.241 . S
C87 O73 1.244 . S
C87 O75 1.256 . S
C88 O77 1.239 . S
C88 O81 1.256 . S
C89 O78 1.278 . S
C89 O84 1.241 1_554 S
C90 O80 1.244 . S
C90 O85 1.256 . S
C91 O82 1.239 . S
C91 O83 1.256 . S
O92 Mn74 2.221 . S
O92 Mn76 2.290 . S
O92 C86 1.278 . S
O93 Mn76 2.251 . S
O93 C86 1.241 . S
C94 C95 1.369 . S
C94 C96 1.419 . S
C94 H98 0.930 . S
C95 C94 1.369 . S
C95 C104 1.429 . S
C96 C94 1.419 . S
C96 C97 1.363 . S
C96 H99 0.929 . S
C97 C96 1.363 . S
C97 C103 1.428 . S
H98 C94 0.930 . S
H99 C96 0.929 . S
S100 N101 1.613 . S
S100 N102 1.610 . S
N101 S100 1.613 . S
N101 C104 1.350 . S
N102 S100 1.610 . S
N102 C103 1.351 . S
C103 C97 1.428 . S
C103 N102 1.351 . S
C103 C104 1.434 . S
C104 C95 1.429 . S
C104 N101 1.350 . S
C104 C103 1.434 . S
C105 C106 1.369 . S
C105 C107 1.419 . S
C105 H109 0.930 1_554 S
C106 C105 1.369 . S
C106 C115 1.429 . S
C107 C105 1.419 . S
C107 C108 1.363 . S
C107 H110 0.929 1_554 S
C108 C107 1.363 . S
C108 C114 1.428 . S
H109 C105 0.930 1_556 S
H110 C107 0.929 1_556 S
S111 N112 1.613 . S
S111 N113 1.610 . S
N112 S111 1.613 . S
N112 C115 1.350 . S
N113 S111 1.610 . S
N113 C114 1.351 . S
C114 C108 1.428 . S
C114 N113 1.351 . S
C114 C115 1.434 . S
C115 C106 1.429 . S
C115 N112 1.350 . S
C115 C114 1.434 . S
C116 C117 1.369 . S
C116 C118 1.419 . S
C116 H120 0.930 . S
C117 C116 1.369 . S
C117 C126 1.429 . S
C118 C116 1.419 . S
C118 C119 1.363 . S
C118 H121 0.929 . S
C119 C118 1.363 . S
C119 C125 1.428 . S
H120 C116 0.930 . S
H121 C118 0.929 . S
S122 N123 1.613 . S
S122 N124 1.610 . S
N123 S122 1.613 . S
N123 C126 1.350 . S
N124 S122 1.610 . S
N124 C125 1.351 . S
C125 C119 1.428 . S
C125 N124 1.351 . S
C125 C126 1.434 . S
C126 C117 1.429 . S
C126 N123 1.350 . S
C126 C125 1.434 . S
C127 C128 1.369 1_554 S
C127 C129 1.419 . S
C127 H131 0.930 . S
C128 C127 1.369 1_556 S
C128 C137 1.429 . S
C129 C127 1.419 . S
C129 C130 1.363 . S
C129 H132 0.929 . S
C130 C129 1.363 . S
C130 C136 1.428 1_554 S
H131 C127 0.930 . S
H132 C129 0.929 . S
S133 N134 1.613 . S
S133 N135 1.610 . S
N134 S133 1.613 . S
N134 C137 1.350 . S
N135 S133 1.610 . S
N135 C136 1.351 . S
C136 C130 1.428 1_556 S
C136 N135 1.351 . S
C136 C137 1.434 . S
C137 C128 1.429 . S
C137 N134 1.350 . S
C137 C136 1.434 . S
C138 C139 1.369 . S
C138 C140 1.419 . S
C138 H142 0.930 . S
C139 C138 1.369 . S
C139 C148 1.429 . S
C140 C138 1.419 . S
C140 C141 1.363 . S
C140 H143 0.929 . S
C141 C140 1.363 . S
C141 C147 1.428 . S
H142 C138 0.930 . S
H143 C140 0.929 . S
S144 N145 1.613 . S
S144 N146 1.610 . S
N145 S144 1.613 . S
N145 C148 1.350 . S
N146 S144 1.610 . S
N146 C147 1.351 . S
C147 C141 1.428 . S
C147 N146 1.351 . S
C147 C148 1.434 . S
C148 C139 1.429 . S
C148 N145 1.350 . S
C148 C147 1.434 . S
C149 C150 1.369 . S
C149 C151 1.419 . S
C149 H153 0.930 . S
C150 C149 1.369 . S
C150 C159 1.429 . S
C151 C149 1.419 . S
C151 C152 1.363 . S
C151 H154 0.929 . S
C152 C151 1.363 . S
C152 C158 1.428 . S
H153 C149 0.930 . S
H154 C151 0.929 . S
S155 N156 1.613 . S
S155 N157 1.610 . S
N156 S155 1.613 . S
N156 C159 1.350 . S
N157 S155 1.610 . S
N157 C158 1.351 . S
C158 C152 1.428 . S
C158 N157 1.351 . S
C158 C159 1.434 . S
C159 C150 1.429 . S
C159 N156 1.350 . S
C159 C158 1.434 . S
C160 C161 1.369 . S
C160 C162 1.419 . S
C160 H164 0.930 . S
C161 C160 1.369 . S
C161 C170 1.429 . S
C162 C160 1.419 . S
C162 C163 1.363 . S
C162 H165 0.929 . S
C163 C162 1.363 . S
C163 C169 1.428 . S
H164 C160 0.930 . S
H165 C162 0.929 . S
S166 N167 1.613 . S
S166 N168 1.610 . S
N167 S166 1.613 . S
N167 C170 1.350 . S
N168 S166 1.610 . S
N168 C169 1.351 . S
C169 C163 1.428 . S
C169 N168 1.351 . S
C169 C170 1.434 . S
C170 C161 1.429 . S
C170 N167 1.350 . S
C170 C169 1.434 . S
C171 C172 1.369 . S
C171 C173 1.419 . S
C171 H175 0.930 . S
C172 C171 1.369 . S
C172 C181 1.429 . S
C173 C171 1.419 . S
C173 C174 1.363 . S
C173 H176 0.929 . S
C174 C173 1.363 . S
C174 C180 1.428 . S
H175 C171 0.930 . S
H176 C173 0.929 . S
S177 N178 1.613 . S
S177 N179 1.610 . S
N178 S177 1.613 . S
N178 C181 1.350 . S
N179 S177 1.610 . S
N179 C180 1.351 . S
C180 C174 1.428 . S
C180 N179 1.351 . S
C180 C181 1.434 . S
C181 C172 1.429 . S
C181 N178 1.350 . S
C181 C180 1.434 . S
C182 C183 1.369 . S
C182 C184 1.419 . S
C182 H186 0.930 . S
C183 C182 1.369 . S
C183 C192 1.429 . S
C184 C182 1.419 . S
C184 C185 1.363 . S
C184 H187 0.929 . S
C185 C184 1.363 . S
C185 C191 1.428 . S
H186 C182 0.930 . S
H187 C184 0.929 . S
S188 N189 1.613 . S
S188 N190 1.610 . S
N189 S188 1.613 . S
N189 C192 1.350 . S
N190 S188 1.610 . S
N190 C191 1.351 . S
C191 C185 1.428 . S
C191 N190 1.351 . S
C191 C192 1.434 . S
C192 C183 1.429 . S
C192 N189 1.350 . S
C192 C191 1.434 . S
C193 C194 1.369 . S
C193 C195 1.419 . S
C193 H197 0.930 . S
C194 C193 1.369 . S
C194 C203 1.429 . S
C195 C193 1.419 . S
C195 C196 1.363 . S
C195 H198 0.929 . S
C196 C195 1.363 . S
C196 C202 1.428 . S
H197 C193 0.930 . S
H198 C195 0.929 . S
S199 N200 1.613 . S
S199 N201 1.610 . S
N200 S199 1.613 . S
N200 C203 1.350 . S
N201 S199 1.610 . S
N201 C202 1.351 . S
C202 C196 1.428 . S
C202 N201 1.351 . S
C202 C203 1.434 . S
C203 C194 1.429 . S
C203 N200 1.350 . S
C203 C202 1.434 . S
C204 C205 1.369 . S
C204 C206 1.419 . S
C204 H208 0.930 . S
C205 C204 1.369 . S
C205 C214 1.429 . S
C206 C204 1.419 . S
C206 C207 1.363 . S
C206 H209 0.929 . S
C207 C206 1.363 . S
C207 C213 1.428 . S
H208 C204 0.930 . S
H209 C206 0.929 . S
S210 N211 1.613 . S
S210 N212 1.610 . S
N211 S210 1.613 . S
N211 C214 1.350 . S
N212 S210 1.610 . S
N212 C213 1.351 . S
C213 C207 1.428 . S
C213 N212 1.351 . S
C213 C214 1.434 . S
C214 C205 1.429 . S
C214 N211 1.350 . S
C214 C213 1.434 . S
C215 C216 1.369 . S
C215 C217 1.419 . S
C215 H219 0.930 . S
C216 C215 1.369 . S
C216 C225 1.429 . S
C217 C215 1.419 . S
C217 C218 1.363 . S
C217 H220 0.929 . S
C218 C217 1.363 . S
C218 C224 1.428 . S
H219 C215 0.930 . S
H220 C217 0.929 . S
S221 N222 1.613 1_545 S
S221 N223 1.610 . S
N222 S221 1.613 1_565 S
N222 C225 1.350 . S
N223 S221 1.610 . S
N223 C224 1.351 1_545 S
C224 C218 1.428 . S
C224 N223 1.351 1_565 S
C224 C225 1.434 . S
C225 C216 1.429 . S
C225 N222 1.350 . S
C225 C224 1.434 . S
C97 C68 1.275 . S
C95 C43 1.392 . S
C106 C4 1.452 . S
C108 C89 1.308 . S
C117 C17 1.510 . S
C119 C65 1.377 . S
C128 C30 1.571 . S
C130 C86 1.400 . S
C141 C70 1.460 . S
C139 C9 1.462 . S
C152 C90 1.503 . S
C150 C21 1.567 . S
C161 C34 1.559 . S
C163 C66 1.511 . S
C172 C48 1.490 . S
C174 C88 1.428 . S
C185 C87 1.495 . S
C183 C22 1.541 . S
C196 C69 1.503 . S
C194 C35 1.545 . S
C207 C91 1.445 . S
C205 C47 1.480 . S
C216 C8 1.500 1_556 S
C218 C67 1.435 . S
