# Generated by pormake.
# Topology scu, (8,4)-cn, num edge types: 1
# Building blocks:
#     Node 0, Type 0, BuildingBlock: VETTIZ_charged_sbu_0, # of connection points: 8
#     Node 1, Type 1, BuildingBlock: IZENUY_clean_linker_0, # of connection points: 4
#     Node 2, Type 1, BuildingBlock: IZENUY_clean_linker_0, # of connection points: 4
#     Edge 3, Type (0, 1), BuildingBlock: EZIPEK_clean_linker_0, # of connection points: 2
#     Edge 4, Type (0, 1), BuildingBlock: EZIPEK_clean_linker_0, # of connection points: 2
#     Edge 5, Type (0, 1), BuildingBlock: EZIPEK_clean_linker_0, # of connection points: 2
#     Edge 6, Type (0, 1), BuildingBlock: EZIPEK_clean_linker_0, # of connection points: 2
#     Edge 7, Type (0, 1), BuildingBlock: EZIPEK_clean_linker_0, # of connection points: 2
#     Edge 8, Type (0, 1), BuildingBlock: EZIPEK_clean_linker_0, # of connection points: 2
#     Edge 9, Type (0, 1), BuildingBlock: EZIPEK_clean_linker_0, # of connection points: 2
#     Edge 10, Type (0, 1), BuildingBlock: EZIPEK_clean_linker_0, # of connection points: 2
# Relax obj value: 0.029
# Max RMSD: 0.128
# Mean RMSD: 0.109
data_MOF--net-scu--node1-VETTIZ_charged_sbu_0--node2-IZENUY_clean_linker_0--edge1-EZIPEK_clean_linker_0
_symmetry_space_group_name_H-M    P1
_symmetry_Int_Tables_number       1
_symmetry_cell_setting            triclinic
loop_
_symmetry_equiv_pos_as_xyz
'x, y, z'
_cell_length_a     22.266459
_cell_length_b     22.139765
_cell_length_c     13.957707
_cell_angle_alpha  94.203287
_cell_angle_beta   89.714848
_cell_angle_gamma 90.382448
loop_
_atom_site_label
_atom_site_type_symbol
_atom_site_fract_x
_atom_site_fract_y
_atom_site_fract_z
_atom_type_partial_charge
Fe0 Fe 1.00125 0.99251 0.2215 0.0
O1 O 0.9925 0.99588 0.08262 0.0
Fe2 Fe 0.06432 0.96824 0.99173 0.0
Fe3 Fe 0.97075 0.07147 0.0219 0.0
O4 O 0.99574 0.99073 0.08035 0.0
O5 O 0.0433 0.04445 0.93172 0.0
O6 O 0.03933 0.04912 0.93331 0.0
Fe7 Fe 0.03286 0.04765 0.79247 0.0
C8 C 0.87957 0.04668 0.18374 0.0
O9 O 1.0038 0.08594 0.25015 0.0
O10 O 0.02729 0.12377 0.11129 0.0
O11 O 0.12471 0.0382 0.79604 0.0
O12 O 0.1356 0.95773 0.89192 0.0
O13 O 0.1251 1.01555 0.08006 0.0
O14 O 0.09404 0.99034 0.22397 0.0
O15 O 0.95851 0.14958 0.94623 0.0
O16 O 0.02832 0.13985 0.82363 0.0
C17 C 0.13466 1.0088 0.16832 0.0
O18 O 0.03232 0.95473 0.76284 0.0
O19 O 1.00776 0.91658 0.90055 0.0
O20 O 0.90949 1.00278 0.21737 0.0
O21 O 0.89977 0.08309 0.12149 0.0
C22 C 0.02118 0.12972 0.2022 0.0
C23 C 0.99174 0.17141 0.87968 0.0
C24 C 0.89992 0.02864 0.84869 0.0
O25 O 0.9107 0.02209 0.93633 0.0
O26 O 0.93934 0.04846 0.792 0.0
C27 C 0.15537 0.99488 0.83021 0.0
O28 O 0.07471 0.88956 0.06619 0.0
O29 O 1.00508 0.90006 0.18942 0.0
C30 C 1.01492 0.9107 0.80976 0.0
C31 C 0.04088 0.86797 0.13234 0.0
H32 H 0.03214 0.42145 0.39424 0.0
H33 H 1.00013 0.44823 0.69984 0.0
H34 H 1.00913 0.26826 0.56358 0.0
H35 H 1.00909 0.61838 0.61832 0.0
H36 H 0.03855 0.59084 0.31219 0.0
H37 H 0.03069 0.77107 0.44735 0.0
N38 N 1.01672 0.50706 0.54444 0.0
N39 N 0.024 0.53245 0.46831 0.0
C40 C 0.02387 0.40339 0.46317 0.0
C41 C 0.02098 0.34009 0.46893 0.0
C42 C 1.01543 0.44286 0.54669 0.0
C43 C 1.00569 0.41835 0.63539 0.0
C44 C 1.00395 0.35549 0.64144 0.0
C45 C 1.01085 0.31692 0.55834 0.0
C46 C 0.01718 0.63629 0.54922 0.0
C47 C 0.01982 0.69959 0.54299 0.0
C48 C 0.02526 0.59663 0.4658 0.0
C49 C 0.03399 0.62089 0.37666 0.0
C50 C 0.03543 0.68368 0.3701 0.0
C51 C 0.0295 0.72245 0.45316 0.0
H52 H 0.60024 0.04285 0.38422 0.0
H53 H 0.61182 1.01155 0.68542 0.0
H54 H 0.77241 0.03003 0.51795 0.0
H55 H 0.43529 1.01344 0.63592 0.0
H56 H 0.42367 0.04189 0.33368 0.0
H57 H 0.26328 1.01936 0.49996 0.0
N58 N 0.53457 0.02456 0.54473 0.0
N59 N 0.50085 0.03204 0.47545 0.0
C60 C 0.62652 0.03573 0.44748 0.0
C61 C 0.68937 0.03648 0.44104 0.0
C62 C 0.59814 0.02587 0.53564 0.0
C63 C 0.63334 1.01782 0.61703 0.0
C64 C 0.69626 1.01955 0.61066 0.0
C65 C 0.72376 0.02821 0.52257 0.0
C66 C 0.40896 1.01985 0.57244 0.0
C67 C 0.34615 1.01675 0.57814 0.0
C68 C 0.43729 0.03021 0.48438 0.0
C69 C 0.4021 0.0364 0.4023 0.0
C70 C 0.33926 0.03235 0.40791 0.0
C71 C 0.31182 0.02364 0.49611 0.0
C72 C 0.98798 0.23776 0.24214 0.0
C73 C 0.02953 0.19038 0.25508 0.0
C74 C 0.07769 0.25457 0.3841 0.0
C75 C 0.02935 0.29593 0.38363 0.0
N76 N 0.93484 0.32421 0.31662 0.0
N77 N 0.11157 0.15212 0.34505 0.0
C78 C 0.98409 0.28756 0.31261 0.0
C79 C 0.07412 0.1986 0.32745 0.0
N80 N 0.95078 0.2346 0.16445 0.0
N81 N 0.12695 0.26897 0.43932 0.0
H82 H 0.11085 0.11069 0.30472 0.0
H83 H 0.14041 0.15312 0.40368 0.0
H84 H 0.13083 0.31004 0.48069 0.0
H85 H 0.16606 0.24332 0.4364 0.0
H86 H 0.92502 0.27093 0.14543 0.0
H87 H 0.94848 0.1972 0.11515 0.0
H88 H 0.89671 0.3154 0.27484 0.0
H89 H 0.92987 0.36105 0.36683 0.0
C90 C 0.7769 1.00711 0.20986 0.0
C91 C 0.81839 0.05569 0.2233 0.0
C92 C 0.75393 0.10352 0.34875 0.0
C93 C 0.72145 0.04845 0.35103 0.0
N94 N 0.69894 0.94799 0.28165 0.0
N95 N 0.84674 0.15174 0.3039 0.0
C96 C 0.7309 1.00075 0.27929 0.0
C97 C 0.80618 0.10538 0.29039 0.0
N98 N 0.7826 0.96678 0.13152 0.0
N99 N 0.7355 0.15314 0.40487 0.0
H100 H 0.88542 0.15457 0.26235 0.0
H101 H 0.84391 0.18553 0.35967 0.0
H102 H 0.69728 0.15218 0.44844 0.0
H103 H 0.75433 0.1961 0.40132 0.0
H104 H 0.75124 0.93285 0.11318 0.0
H105 H 0.81607 0.97126 0.07976 0.0
H106 H 0.70882 0.90891 0.23854 0.0
H107 H 0.66405 0.94238 0.33034 0.0
C108 C 0.09582 0.77306 0.16968 0.0
C109 C 0.04176 0.8021 0.14781 0.0
C110 C 0.98411 0.72852 0.23383 0.0
C111 C 0.03845 0.71087 0.27618 0.0
N112 N 0.14653 0.71015 0.27894 0.0
N113 N 0.93589 0.79215 0.1217 0.0
C114 C 0.09464 0.7301 0.24059 0.0
C115 C 0.98617 0.77402 0.16711 0.0
N116 N 0.14718 0.7848 0.12065 0.0
N117 N 0.93079 0.70476 0.26289 0.0
H118 H 0.93815 0.82444 0.07078 0.0
H119 H 0.89352 0.77286 0.12836 0.0
H120 H 0.92861 0.67009 0.30958 0.0
H121 H 0.88882 0.71931 0.24227 0.0
H122 H 0.1873 0.76192 0.12902 0.0
H123 H 0.14763 0.8124 0.06334 0.0
H124 H 0.18871 0.72823 0.26498 0.0
H125 H 0.14681 0.67694 0.3283 0.0
C126 C 0.22607 0.96251 0.23693 0.0
C127 C 0.19701 1.01468 0.20625 0.0
C128 C 0.27401 0.07959 0.28682 0.0
C129 C 0.30078 0.02744 0.32109 0.0
N130 N 0.31468 0.91963 0.30533 0.0
N131 N 0.20323 0.12054 0.17684 0.0
C132 C 0.28103 0.96897 0.28746 0.0
C133 C 0.22467 0.07251 0.22205 0.0
N134 N 0.19987 0.90685 0.22105 0.0
N135 N 0.29363 0.1357 0.32049 0.0
H136 H 0.16621 0.11708 0.13129 0.0
H137 H 0.22462 0.16258 0.179 0.0
H138 H 0.33097 0.1419 0.36512 0.0
H139 H 0.27142 0.1756 0.30801 0.0
H140 H 0.21392 0.86842 0.2532 0.0
H141 H 0.16184 0.8999 0.17896 0.0
H142 H 0.30581 0.87603 0.27542 0.0
H143 H 0.35509 0.92326 0.34293 0.0
C144 C 0.96624 0.84252 0.67889 0.0
C145 C 1.00804 0.85017 0.7556 0.0
C146 C 0.05395 0.75243 0.70122 0.0
C147 C 1.01028 0.74411 0.62766 0.0
N148 N 0.91424 0.77197 0.56671 0.0
N149 N 0.08481 0.80598 0.85035 0.0
C150 C 0.96272 0.78607 0.62385 0.0
C151 C 0.0489 0.80254 0.77115 0.0
N152 N 0.93187 0.88992 0.65478 0.0
N153 N 0.10296 0.71552 0.7002 0.0
H154 H 0.08718 0.84395 0.89842 0.0
H155 H 0.10965 0.76953 0.87139 0.0
H156 H 0.10883 0.67869 0.65028 0.0
H157 H 0.14015 0.72413 0.74419 0.0
H158 H 0.90579 0.88855 0.59286 0.0
H159 H 0.93263 0.93223 0.69258 0.0
H160 H 0.8757 0.79846 0.56739 0.0
H161 H 0.91019 0.7305 0.52647 0.0
C162 C 0.25683 0.03842 0.80905 0.0
C163 C 0.21736 0.98833 0.793 0.0
C164 C 0.28402 0.94533 0.6666 0.0
C165 C 0.31422 1.0019 0.66703 0.0
N166 N 0.3327 0.10198 0.74121 0.0
N167 N 0.19364 0.8919 0.70974 0.0
C168 C 0.30278 0.0479 0.74071 0.0
C169 C 0.23191 0.94013 0.72455 0.0
N170 N 0.24913 0.07726 0.88876 0.0
N171 N 0.30453 0.89748 0.60846 0.0
H172 H 0.15555 0.88636 0.75184 0.0
H173 H 0.19789 0.85898 0.65295 0.0
H174 H 0.34268 0.90084 0.5653 0.0
H175 H 0.28747 0.85365 0.60973 0.0
H176 H 0.27895 0.11226 0.909 0.0
H177 H 0.21563 0.07047 0.93961 0.0
H178 H 0.32129 0.1399 0.78597 0.0
H179 H 0.36748 0.10984 0.69332 0.0
C180 C 0.04555 0.26684 0.85098 0.0
C181 C 0.98994 0.23705 0.86341 0.0
C182 C 0.94001 0.30651 0.76226 0.0
C183 C 0.99725 0.32798 0.73466 0.0
N184 N 0.10361 0.33786 0.76221 0.0
N185 N 0.88302 0.24843 0.87296 0.0
C186 C 0.04971 0.31229 0.78427 0.0
C187 C 0.93643 0.26338 0.83272 0.0
N188 N 0.09392 0.25017 0.90255 0.0
N189 N 0.88975 0.32485 0.71706 0.0
H190 H 0.88116 0.22228 0.93192 0.0
H191 H 0.84226 0.26815 0.85733 0.0
H192 H 0.89108 0.35834 0.66819 0.0
H193 H 0.84747 0.30547 0.72507 0.0
H194 H 0.13608 0.27053 0.90089 0.0
H195 H 0.09004 0.21777 0.95309 0.0
H196 H 0.14475 0.32513 0.78897 0.0
H197 H 0.10724 0.3723 0.7153 0.0
C198 C 0.80097 0.07376 0.81154 0.0
C199 C 0.83708 0.02174 0.81437 0.0
C200 C 0.76467 0.96277 0.7144 0.0
C201 C 0.73518 1.01752 0.6964 0.0
N202 N 0.72245 0.1251 0.73046 0.0
N203 N 0.8401 0.91331 0.80677 0.0
C204 C 0.75157 0.07283 0.74768 0.0
C205 C 0.81472 0.96484 0.77781 0.0
N206 N 0.81245 0.1228 0.87373 0.0
N207 N 0.74695 0.90974 0.66629 0.0
H208 H 0.876 0.91461 0.8547 0.0
H209 H 0.82319 0.86997 0.78938 0.0
H210 H 0.70899 0.90676 0.62259 0.0
H211 H 0.7708 0.86949 0.66676 0.0
H212 H 0.78455 0.16038 0.88227 0.0
H213 H 0.84602 0.12217 0.92541 0.0
H214 H 0.73743 0.168 0.75555 0.0
H215 H 0.6846 0.12584 0.68685 0.0
loop_
_geom_bond_atom_site_label_1
_geom_bond_atom_site_label_2
_geom_bond_distance
_geom_bond_site_symmetry_2
_ccdc_geom_bond_type
Fe0 O1 1.886 . S
Fe0 O4 1.715 1_645 S
Fe0 O9 2.077 1_655 S
Fe0 O14 1.935 1_655 S
Fe0 O20 2.077 1_545 S
Fe0 O29 1.935 1_545 S
O1 Fe0 1.886 . S
O1 Fe3 1.723 . S
Fe2 O4 1.880 1_556 S
Fe2 O5 1.721 . S
Fe2 O12 1.939 . S
Fe2 O13 2.072 1_556 S
Fe2 O19 1.939 . S
Fe2 O28 2.072 1_556 S
Fe3 O1 1.723 . S
Fe3 O6 1.878 1_554 S
Fe3 O10 1.941 . S
Fe3 O15 2.070 1_554 S
Fe3 O21 1.941 . S
Fe3 O25 2.070 1_554 S
O4 Fe0 1.715 1_465 S
O4 Fe2 1.880 1_554 S
O5 Fe2 1.721 . S
O5 Fe7 1.886 . S
O6 Fe3 1.878 1_556 S
O6 Fe7 1.715 1_645 S
Fe7 O5 1.886 . S
Fe7 O6 1.715 1_465 S
Fe7 O11 2.077 1_565 S
Fe7 O16 1.935 1_565 S
Fe7 O18 2.077 1_455 S
Fe7 O26 1.935 1_455 S
C8 O20 1.382 1_545 S
C8 O21 1.421 . S
O9 Fe0 2.077 1_455 S
O9 C22 1.376 1_455 S
O10 Fe3 1.941 . S
O10 C22 1.421 . S
O11 Fe7 2.077 1_545 S
O11 C27 1.376 1_545 S
O12 Fe2 1.939 . S
O12 C27 1.421 . S
O13 Fe2 2.072 1_554 S
O13 C17 1.381 . S
O14 Fe0 1.935 1_455 S
O14 C17 1.421 1_545 S
O15 Fe3 2.070 1_556 S
O15 C23 1.381 . S
O16 Fe7 1.935 1_545 S
O16 C23 1.421 1_455 S
C17 O13 1.381 . S
C17 O14 1.421 1_565 S
O18 Fe7 2.077 1_655 S
O18 C30 1.382 1_655 S
O19 Fe2 1.939 . S
O19 C30 1.421 . S
O20 Fe0 2.077 1_565 S
O20 C8 1.382 1_565 S
O21 Fe3 1.941 . S
O21 C8 1.421 . S
C22 O9 1.376 1_655 S
C22 O10 1.421 . S
C23 O15 1.381 . S
C23 O16 1.421 1_655 S
C24 O25 1.381 . S
C24 O26 1.421 1_545 S
O25 Fe3 2.070 1_556 S
O25 C24 1.381 . S
O26 Fe7 1.935 1_655 S
O26 C24 1.421 1_565 S
C27 O11 1.376 1_565 S
C27 O12 1.421 . S
O28 Fe2 2.072 1_554 S
O28 C31 1.381 . S
O29 Fe0 1.935 1_565 S
O29 C31 1.421 1_655 S
C30 O18 1.382 1_455 S
C30 O19 1.421 . S
C31 O28 1.381 . S
C31 O29 1.421 1_455 S
H32 C40 0.940 . S
H33 C43 0.940 . S
H34 C45 0.940 . S
H35 C46 0.940 . S
H36 C49 0.940 . S
H37 C51 0.940 . S
N38 N39 1.190 . S
N38 C42 1.477 . S
N39 N38 1.190 . S
N39 C48 1.477 . S
C40 H32 0.940 . S
C40 C41 1.390 1_455 S
C40 C42 1.322 . S
C41 C40 1.390 1_655 S
C41 C45 1.370 . S
C42 N38 1.477 . S
C42 C40 1.322 . S
C42 C43 1.447 . S
C43 H33 0.940 . S
C43 C42 1.447 . S
C43 C44 1.373 . S
C44 C43 1.373 . S
C44 C45 1.417 1_455 S
C45 H34 0.940 . S
C45 C41 1.370 . S
C45 C44 1.417 1_655 S
C46 H35 0.940 . S
C46 C47 1.390 1_455 S
C46 C48 1.322 . S
C47 C46 1.390 1_655 S
C47 C51 1.370 . S
C48 N39 1.477 . S
C48 C46 1.322 . S
C48 C49 1.447 . S
C49 H36 0.940 . S
C49 C48 1.447 . S
C49 C50 1.373 . S
C50 C49 1.373 . S
C50 C51 1.417 1_455 S
C51 H37 0.940 . S
C51 C47 1.370 . S
C51 C50 1.417 1_655 S
H52 C60 0.940 . S
H53 C63 0.940 . S
H54 C65 0.940 . S
H55 C66 0.940 . S
H56 C69 0.940 . S
H57 C71 0.940 . S
N58 N59 1.190 . S
N58 C62 1.477 . S
N59 N58 1.190 . S
N59 C68 1.477 . S
C60 H52 0.940 . S
C60 C61 1.390 1_545 S
C60 C62 1.322 . S
C61 C60 1.390 1_565 S
C61 C65 1.370 . S
C62 N58 1.477 . S
C62 C60 1.322 . S
C62 C63 1.447 . S
C63 H53 0.940 . S
C63 C62 1.447 . S
C63 C64 1.373 . S
C64 C63 1.373 . S
C64 C65 1.417 1_545 S
C65 H54 0.940 . S
C65 C61 1.370 . S
C65 C64 1.417 1_565 S
C66 H55 0.940 . S
C66 C67 1.390 1_545 S
C66 C68 1.322 . S
C67 C66 1.390 1_565 S
C67 C71 1.370 . S
C68 N59 1.477 . S
C68 C66 1.322 . S
C68 C69 1.447 . S
C69 H56 0.940 . S
C69 C68 1.447 . S
C69 C70 1.373 . S
C70 C69 1.373 . S
C70 C71 1.417 1_545 S
C71 H57 0.940 . S
C71 C67 1.370 . S
C71 C70 1.417 1_565 S
C72 C73 1.363 . S
C72 C78 1.379 . S
C72 N80 1.356 . S
C73 C72 1.363 . S
C73 C79 1.363 1_655 S
C74 C75 1.363 1_455 S
C74 C79 1.379 . S
C74 N81 1.356 . S
C75 C74 1.363 1_655 S
C75 C78 1.363 . S
N76 C78 1.356 . S
N76 H88 0.984 . S
N76 H89 0.985 . S
N77 C79 1.356 . S
N77 H82 0.984 . S
N77 H83 0.985 . S
C78 C72 1.379 . S
C78 C75 1.363 . S
C78 N76 1.356 . S
C79 C73 1.363 1_455 S
C79 C74 1.379 . S
C79 N77 1.356 . S
N80 C72 1.356 . S
N80 H86 0.984 . S
N80 H87 0.984 . S
N81 C74 1.356 . S
N81 H84 0.984 . S
N81 H85 0.985 . S
H82 N77 0.984 . S
H83 N77 0.985 . S
H84 N81 0.984 . S
H85 N81 0.985 . S
H86 N80 0.984 . S
H87 N80 0.984 . S
H88 N76 0.984 . S
H89 N76 0.985 . S
C90 C91 1.356 1_565 S
C90 C96 1.379 . S
C90 N98 1.356 . S
C91 C90 1.356 1_545 S
C91 C97 1.369 . S
C92 C93 1.363 1_545 S
C92 C97 1.379 . S
C92 N99 1.356 . S
C93 C92 1.363 1_565 S
C93 C96 1.363 . S
N94 C96 1.356 . S
N94 H106 0.984 . S
N94 H107 0.985 . S
N95 C97 1.356 . S
N95 H100 0.984 . S
N95 H101 0.985 . S
C96 C90 1.379 . S
C96 C93 1.363 . S
C96 N94 1.356 . S
C97 C91 1.369 . S
C97 C92 1.379 . S
C97 N95 1.356 . S
N98 C90 1.356 . S
N98 H104 0.984 . S
N98 H105 0.984 . S
N99 C92 1.356 . S
N99 H102 0.984 . S
N99 H103 0.985 . S
H100 N95 0.984 . S
H101 N95 0.985 . S
H102 N99 0.984 . S
H103 N99 0.985 . S
H104 N98 0.984 . S
H105 N98 0.984 . S
H106 N94 0.984 . S
H107 N94 0.985 . S
C108 C109 1.368 . S
C108 C114 1.379 . S
C108 N116 1.356 . S
C109 C108 1.368 . S
C109 C115 1.358 1_455 S
C110 C111 1.363 1_655 S
C110 C115 1.379 . S
C110 N117 1.356 . S
C111 C110 1.363 1_455 S
C111 C114 1.363 . S
N112 C114 1.356 . S
N112 H124 0.984 . S
N112 H125 0.985 . S
N113 C115 1.356 . S
N113 H118 0.984 . S
N113 H119 0.985 . S
C114 C108 1.379 . S
C114 C111 1.363 . S
C114 N112 1.356 . S
C115 C109 1.358 1_655 S
C115 C110 1.379 . S
C115 N113 1.356 . S
N116 C108 1.356 . S
N116 H122 0.984 . S
N116 H123 0.984 . S
N117 C110 1.356 . S
N117 H120 0.984 . S
N117 H121 0.985 . S
H118 N113 0.984 . S
H119 N113 0.985 . S
H120 N117 0.984 . S
H121 N117 0.985 . S
H122 N116 0.984 . S
H123 N116 0.984 . S
H124 N112 0.984 . S
H125 N112 0.985 . S
C126 C127 1.363 1_565 S
C126 C132 1.379 . S
C126 N134 1.356 . S
C127 C126 1.363 1_545 S
C127 C133 1.363 . S
C128 C129 1.363 . S
C128 C133 1.379 . S
C128 N135 1.356 . S
C129 C128 1.363 . S
C129 C132 1.363 1_545 S
N130 C132 1.356 . S
N130 H142 0.984 . S
N130 H143 0.985 . S
N131 C133 1.356 . S
N131 H136 0.984 . S
N131 H137 0.985 . S
C132 C126 1.379 . S
C132 C129 1.363 1_565 S
C132 N130 1.356 . S
C133 C127 1.363 . S
C133 C128 1.379 . S
C133 N131 1.356 . S
N134 C126 1.356 . S
N134 H140 0.984 . S
N134 H141 0.984 . S
N135 C128 1.356 . S
N135 H138 0.984 . S
N135 H139 0.985 . S
H136 N131 0.984 . S
H137 N131 0.985 . S
H138 N135 0.984 . S
H139 N135 0.985 . S
H140 N134 0.984 . S
H141 N134 0.984 . S
H142 N130 0.984 . S
H143 N130 0.985 . S
C144 C145 1.355 1_655 S
C144 C150 1.379 . S
C144 N152 1.356 . S
C145 C144 1.355 1_455 S
C145 C151 1.371 . S
C146 C147 1.363 1_455 S
C146 C151 1.379 . S
C146 N153 1.356 . S
C147 C146 1.363 1_655 S
C147 C150 1.363 . S
N148 C150 1.356 . S
N148 H160 0.984 . S
N148 H161 0.985 . S
N149 C151 1.356 . S
N149 H154 0.984 . S
N149 H155 0.985 . S
C150 C144 1.379 . S
C150 C147 1.363 . S
C150 N148 1.356 . S
C151 C145 1.371 . S
C151 C146 1.379 . S
C151 N149 1.356 . S
N152 C144 1.356 . S
N152 H158 0.984 . S
N152 H159 0.984 . S
N153 C146 1.356 . S
N153 H156 0.984 . S
N153 H157 0.985 . S
H154 N149 0.984 . S
H155 N149 0.985 . S
H156 N153 0.984 . S
H157 N153 0.985 . S
H158 N152 0.984 . S
H159 N152 0.984 . S
H160 N148 0.984 . S
H161 N148 0.985 . S
C162 C163 1.363 1_545 S
C162 C168 1.379 . S
C162 N170 1.356 . S
C163 C162 1.363 1_565 S
C163 C169 1.363 . S
C164 C165 1.363 . S
C164 C169 1.379 . S
C164 N171 1.356 . S
C165 C164 1.363 . S
C165 C168 1.363 1_565 S
N166 C168 1.356 . S
N166 H178 0.984 . S
N166 H179 0.985 . S
N167 C169 1.356 . S
N167 H172 0.984 . S
N167 H173 0.985 . S
C168 C162 1.379 . S
C168 C165 1.363 1_545 S
C168 N166 1.356 . S
C169 C163 1.363 . S
C169 C164 1.379 . S
C169 N167 1.356 . S
N170 C162 1.356 . S
N170 H176 0.984 . S
N170 H177 0.984 . S
N171 C164 1.356 . S
N171 H174 0.984 . S
N171 H175 0.985 . S
H172 N167 0.984 . S
H173 N167 0.985 . S
H174 N171 0.984 . S
H175 N171 0.985 . S
H176 N170 0.984 . S
H177 N170 0.984 . S
H178 N166 0.984 . S
H179 N166 0.985 . S
C180 C181 1.363 . S
C180 C186 1.379 . S
C180 N188 1.356 . S
C181 C180 1.363 . S
C181 C187 1.363 1_455 S
C182 C183 1.363 1_655 S
C182 C187 1.379 . S
C182 N189 1.356 . S
C183 C182 1.363 1_455 S
C183 C186 1.363 . S
N184 C186 1.356 . S
N184 H196 0.984 . S
N184 H197 0.985 . S
N185 C187 1.356 . S
N185 H190 0.984 . S
N185 H191 0.985 . S
C186 C180 1.379 . S
C186 C183 1.363 . S
C186 N184 1.356 . S
C187 C181 1.363 1_655 S
C187 C182 1.379 . S
C187 N185 1.356 . S
N188 C180 1.356 . S
N188 H194 0.984 . S
N188 H195 0.984 . S
N189 C182 1.356 . S
N189 H192 0.984 . S
N189 H193 0.985 . S
H190 N185 0.984 . S
H191 N185 0.985 . S
H192 N189 0.984 . S
H193 N189 0.985 . S
H194 N188 0.984 . S
H195 N188 0.984 . S
H196 N184 0.984 . S
H197 N184 0.985 . S
C198 C199 1.367 . S
C198 C204 1.379 . S
C198 N206 1.356 . S
C199 C198 1.367 . S
C199 C205 1.359 1_545 S
C200 C201 1.363 1_565 S
C200 C205 1.379 . S
C200 N207 1.356 . S
C201 C200 1.363 1_545 S
C201 C204 1.363 . S
N202 C204 1.356 . S
N202 H214 0.984 . S
N202 H215 0.985 . S
N203 C205 1.356 . S
N203 H208 0.984 . S
N203 H209 0.985 . S
C204 C198 1.379 . S
C204 C201 1.363 . S
C204 N202 1.356 . S
C205 C199 1.359 1_565 S
C205 C200 1.379 . S
C205 N203 1.356 . S
N206 C198 1.356 . S
N206 H212 0.984 . S
N206 H213 0.984 . S
N207 C200 1.356 . S
N207 H210 0.984 . S
N207 H211 0.985 . S
H208 N203 0.984 . S
H209 N203 0.985 . S
H210 N207 0.984 . S
H211 N207 0.985 . S
H212 N206 0.984 . S
H213 N206 0.984 . S
H214 N202 0.984 . S
H215 N202 0.985 . S
C73 C22 1.554 . S
C75 C41 1.531 . S
C91 C8 1.571 . S
C93 C61 1.531 . S
C109 C31 1.519 . S
C111 C50 1.546 . S
C127 C17 1.527 1_545 S
C129 C70 1.545 . S
C145 C30 1.571 . S
C147 C47 1.533 . S
C163 C27 1.554 . S
C165 C67 1.533 . S
C183 C44 1.546 . S
C181 C23 1.528 1_455 S
C199 C24 1.519 . S
C201 C64 1.548 . S
