# Generated by pormake.
# Topology tsx, (6,3)-cn, num edge types: 1
# Building blocks:
#     Node 0, Type 0, BuildingBlock: FUNLAD_clean_sbu_0, # of connection points: 6
#     Node 1, Type 0, BuildingBlock: FUNLAD_clean_sbu_0, # of connection points: 6
#     Node 2, Type 1, BuildingBlock: INOVEN_clean_linker_0, # of connection points: 3
#     Node 3, Type 1, BuildingBlock: INOVEN_clean_linker_0, # of connection points: 3
#     Node 4, Type 1, BuildingBlock: INOVEN_clean_linker_0, # of connection points: 3
#     Node 5, Type 1, BuildingBlock: INOVEN_clean_linker_0, # of connection points: 3
#     Edge 6, Type (0, 1), BuildingBlock: OJICUG_clean_linker_0, # of connection points: 2
#     Edge 7, Type (0, 1), BuildingBlock: OJICUG_clean_linker_0, # of connection points: 2
#     Edge 8, Type (0, 1), BuildingBlock: OJICUG_clean_linker_0, # of connection points: 2
#     Edge 9, Type (0, 1), BuildingBlock: OJICUG_clean_linker_0, # of connection points: 2
#     Edge 10, Type (0, 1), BuildingBlock: OJICUG_clean_linker_0, # of connection points: 2
#     Edge 11, Type (0, 1), BuildingBlock: OJICUG_clean_linker_0, # of connection points: 2
#     Edge 12, Type (0, 1), BuildingBlock: OJICUG_clean_linker_0, # of connection points: 2
#     Edge 13, Type (0, 1), BuildingBlock: OJICUG_clean_linker_0, # of connection points: 2
#     Edge 14, Type (0, 1), BuildingBlock: OJICUG_clean_linker_0, # of connection points: 2
#     Edge 15, Type (0, 1), BuildingBlock: OJICUG_clean_linker_0, # of connection points: 2
#     Edge 16, Type (0, 1), BuildingBlock: OJICUG_clean_linker_0, # of connection points: 2
#     Edge 17, Type (0, 1), BuildingBlock: OJICUG_clean_linker_0, # of connection points: 2
# Relax obj value: 0.107
# Max RMSD: 0.114
# Mean RMSD: 0.110
data_MOF--net-tsx--node1-FUNLAD_clean_sbu_0--node2-INOVEN_clean_linker_0--edge1-OJICUG_clean_linker_0
_symmetry_space_group_name_H-M    P1
_symmetry_Int_Tables_number       1
_symmetry_cell_setting            triclinic
loop_
_symmetry_equiv_pos_as_xyz
'x, y, z'
_cell_length_a     13.862466
_cell_length_b     15.145681
_cell_length_c     30.693546
_cell_angle_alpha  90.637835
_cell_angle_beta   100.08578
_cell_angle_gamma 89.864057
loop_
_atom_site_label
_atom_site_type_symbol
_atom_site_fract_x
_atom_site_fract_y
_atom_site_fract_z
_atom_type_partial_charge
C0 C 0.90179 0.87414 0.01135 0.0
N1 N 0.10848 0.02671 0.0935 0.0
C2 C 0.03993 0.05281 0.11769 0.0
C3 C 0.06565 0.06632 0.16313 0.0
C4 C 0.16225 0.05083 0.18401 0.0
C5 C 0.23181 0.0235 0.15862 0.0
C6 C 0.20338 0.01285 0.11287 0.0
Zn7 Zn 0.0637 1.00816 0.02728 0.0
C8 C 0.17161 0.86862 -0.01191 0.0
N9 N 0.95977 0.97641 0.89016 0.0
C10 C 0.86425 0.96995 0.87011 0.0
C11 C 0.03315 0.98183 0.86609 0.0
C12 C 0.01191 0.98381 0.82016 0.0
C13 C 0.9144 0.97957 0.79878 0.0
C14 C 0.83967 0.97109 0.82387 0.0
Zn15 Zn 0.0016 0.98967 0.95694 0.0
O16 O 0.95611 0.92036 0.04048 0.0
C17 C 0.89563 0.13241 -0.00808 0.0
O18 O 0.90676 0.88489 0.97061 0.0
H19 H 0.10851 0.98718 0.88257 0.0
H20 H 0.96462 0.0619 0.10188 0.0
H21 H 0.80716 0.96624 0.88996 0.0
O22 O 0.96308 0.12018 0.02526 0.0
O23 O 0.88974 0.08088 0.95877 0.0
H24 H 0.25679 0.99255 0.09298 0.0
O25 O 0.09621 0.09871 0.94616 0.0
O26 O 0.17011 0.09383 0.01533 0.0
O27 O 0.11433 0.89713 0.95439 0.0
O28 O 0.1647 0.90006 0.02608 0.0
C29 C 0.16277 0.12633 0.97717 0.0
H30 H 0.00983 0.08565 0.18205 0.0
H31 H 0.30681 1.01025 0.17401 0.0
H32 H 0.07098 0.9901 0.80147 0.0
H33 H 0.76357 0.96764 0.80796 0.0
C34 C 0.36785 0.39486 0.49724 0.0
N35 N 0.59376 0.51882 0.58155 0.0
C36 C 0.52938 0.53849 0.60895 0.0
C37 C 0.56074 0.54243 0.65443 0.0
C38 C 0.65874 0.52428 0.6719 0.0
C39 C 0.72393 0.50261 0.64337 0.0
C40 C 0.68971 0.50115 0.5977 0.0
Zn41 Zn 0.53952 0.51826 0.51573 0.0
C42 C 0.62791 0.3904 0.4639 0.0
N43 N 0.41185 0.52601 0.38091 0.0
C44 C 0.3167 0.51259 0.36161 0.0
C45 C 0.48187 0.5435 0.35621 0.0
C46 C 0.45764 0.55014 0.3106 0.0
C47 C 0.36078 0.53646 0.28978 0.0
C48 C 0.28947 0.51645 0.31545 0.0
Zn49 Zn 0.46219 0.52142 0.44736 0.0
O50 O 0.43019 0.43195 0.52687 0.0
C51 C 0.37561 0.6536 0.4952 0.0
O52 O 0.36494 0.41522 0.4568 0.0
H53 H 0.55752 0.55137 0.37177 0.0
H54 H 0.45321 0.5508 0.59555 0.0
H55 H 0.26238 0.49821 0.38189 0.0
O56 O 0.44922 0.63259 0.52418 0.0
O57 O 0.35754 0.61071 0.45908 0.0
H58 H 0.73952 0.48577 0.57523 0.0
O59 O 0.55933 0.63237 0.44164 0.0
O60 O 0.64907 0.60221 0.50578 0.0
O61 O 0.56834 0.43025 0.4346 0.0
O62 O 0.62914 0.40916 0.5045 0.0
C63 C 0.63444 0.64767 0.47099 0.0
H64 H 0.50855 0.55789 0.67588 0.0
H65 H 0.79994 0.48755 0.65622 0.0
H66 H 0.51482 0.56334 0.29157 0.0
H67 H 0.2142 0.5042 0.30004 0.0
H68 H 0.08243 0.99804 0.48179 0.0
H69 H 0.28228 0.95368 0.39229 0.0
H70 H 0.04054 0.13401 0.35799 0.0
N71 N 0.97266 0.11855 0.43449 0.0
N72 N 0.91851 0.16844 0.4089 0.0
C73 C 0.10643 0.01369 0.45119 0.0
C74 C 0.18861 0.97057 0.44066 0.0
C75 C 0.05418 0.07432 0.42202 0.0
C76 C 0.08383 0.0903 0.38138 0.0
C77 C 0.16594 0.04677 0.37002 0.0
C78 C 0.21962 0.98878 0.40061 0.0
H79 H 0.91698 1.00487 0.48649 0.0
H80 H 0.78406 0.90213 0.59076 0.0
H81 H 0.00479 0.10479 0.61924 0.0
N82 N 0.03472 0.11983 0.53483 0.0
N83 N 0.10091 0.16034 0.55983 0.0
C84 C 0.90977 1.00619 0.52094 0.0
C85 C 0.84484 0.94783 0.5354 0.0
C86 C 0.96766 0.06319 0.5509 0.0
C87 C 0.95861 0.06218 0.59584 0.0
C88 C 0.8919 1.00451 0.61069 0.0
C89 C 0.83476 0.948 0.57997 0.0
H90 H 0.60446 0.49243 0.9743 0.0
H91 H 0.77567 0.41067 0.87801 0.0
H92 H 0.558 0.61451 0.84689 0.0
N93 N 0.49502 0.61632 0.92147 0.0
N94 N 0.47971 0.63242 0.95965 0.0
C95 C 0.62185 0.49928 0.94185 0.0
C96 C 0.69397 0.44405 0.92932 0.0
C97 C 0.57295 0.56184 0.91203 0.0
C98 C 0.59844 0.5687 0.87017 0.0
C99 C 0.67253 0.51571 0.85764 0.0
C100 C 0.72014 0.45369 0.88758 0.0
H101 H 0.47337 0.45666 -0.00339 0.0
H102 H 0.26659 0.42056 0.08279 0.0
H103 H 0.51192 0.59581 0.12136 0.0
N104 N 0.58298 0.57908 0.04508 0.0
N105 N 0.6301 0.63664 0.06934 0.0
C106 C 0.45003 0.47254 0.02741 0.0
C107 C 0.36516 0.43236 0.03635 0.0
C108 C 0.50252 0.53309 0.05739 0.0
C109 C 0.46997 0.55132 0.09745 0.0
C110 C 0.38488 0.51071 0.10711 0.0
C111 C 0.33185 0.45277 0.07579 0.0
C112 C 0.16631 0.28799 0.97373 0.0
C113 C 0.21704 0.20773 0.97352 0.0
H114 H 0.17445 0.42369 -0.00507 0.0
C115 C 0.31933 0.20676 -0.01424 0.0
H116 H 0.08703 0.28951 0.96547 0.0
C117 C 0.36934 0.2835 0.00196 0.0
C118 C 0.31704 0.36121 0.00727 0.0
H119 H 0.35928 0.145 -0.01319 0.0
H120 H 0.44734 0.27976 0.01445 0.0
C121 C 0.21594 0.36425 -0.00891 0.0
C122 C 0.3241 0.78134 0.01658 0.0
C123 C 0.2478 0.80286 0.98187 0.0
H124 H 0.45898 0.71226 0.03603 0.0
C125 C 0.24764 0.76458 0.93981 0.0
H126 H 0.32696 0.81014 0.04924 0.0
C127 C 0.32282 0.70766 0.93243 0.0
C128 C 0.40034 0.68762 0.96694 0.0
H129 H 0.18989 0.77943 0.91224 0.0
H130 H 0.32054 0.67991 0.8996 0.0
C131 C 0.39966 0.72464 0.00906 0.0
C132 C 0.78053 0.74943 -0.00407 0.0
C133 C 0.83398 0.80951 0.02585 0.0
H134 H 0.67461 0.64629 -0.01355 0.0
C135 C 0.82212 0.80784 0.07055 0.0
H136 H 0.788 0.74864 0.96138 0.0
C137 C 0.75684 0.74886 0.08469 0.0
C138 C 0.70272 0.68968 0.05477 0.0
H139 H 0.86209 0.85321 0.09465 0.0
H140 H 0.74716 0.75039 0.11895 0.0
C141 C 0.71585 0.69007 0.01033 0.0
C142 C 0.73898 0.20808 0.9621 0.0
C143 C 0.83345 0.21235 -0.01235 0.0
H144 H 0.61952 0.27982 0.92471 0.0
C145 C 0.87426 0.29557 0.00057 0.0
H146 H 0.70616 0.14483 0.95145 0.0
C147 C 0.82511 0.37298 -0.01545 0.0
C148 C 0.73382 0.36785 0.95635 0.0
H149 H 0.94764 0.30066 0.01963 0.0
H150 H 0.86116 0.43619 -0.00833 0.0
C151 C 0.6894 0.28515 0.94683 0.0
C152 C 0.79481 0.72197 0.48722 0.0
C153 C 0.69406 0.72728 0.47057 0.0
H154 H 0.92233 0.79034 0.52032 0.0
C155 C 0.64785 0.81017 0.46711 0.0
H156 H 0.83143 0.65848 0.49061 0.0
C157 C 0.69918 0.88515 0.48534 0.0
C158 C 0.79745 0.87767 0.50588 0.0
H159 H 0.56987 0.81539 0.45492 0.0
H160 H 0.66051 0.94718 0.48636 0.0
C161 C 0.84641 0.79696 0.5045 0.0
C162 C 0.76194 0.27851 0.48125 0.0
C163 C 0.69822 0.32725 0.44995 0.0
H164 H 0.88198 0.18932 0.49274 0.0
C165 C 0.70536 0.31857 0.40486 0.0
H166 H 0.75843 0.28373 0.51617 0.0
C167 C 0.77686 0.26439 0.39162 0.0
C168 C 0.84165 0.21722 0.42293 0.0
H169 H 0.65742 0.35542 0.3798 0.0
H170 H 0.78289 0.26043 0.35694 0.0
C171 C 0.83274 0.22392 0.46781 0.0
C172 C 0.32004 0.29697 0.55467 0.0
C173 C 0.29958 0.33061 0.51138 0.0
H174 H 0.27131 0.21609 0.60353 0.0
C175 C 0.21167 0.30655 0.48382 0.0
H176 H 0.38712 0.31427 0.57689 0.0
C177 C 0.14509 0.25111 0.49963 0.0
C178 C 0.16634 0.21729 0.54285 0.0
H179 H 0.19303 0.33262 0.45069 0.0
H180 H 0.0761 0.23706 0.47856 0.0
C181 C 0.254 0.24105 0.57013 0.0
C182 C 0.37832 0.81626 0.501 0.0
C183 C 0.32412 0.73753 0.4977 0.0
H184 H 0.37722 0.95354 0.48406 0.0
C185 C 0.22233 0.74033 0.48362 0.0
H186 H 0.45718 0.81512 0.51119 0.0
C187 C 0.17653 0.81947 0.46924 0.0
C188 C 0.23255 0.89599 0.46754 0.0
H189 H 0.17963 0.68002 0.48025 0.0
H190 H 0.09895 0.81896 0.45556 0.0
C191 C 0.33298 0.89501 0.4852 0.0
C192 C 0.16761 0.13333 0.25501 0.0
C193 C 0.18613 0.05566 0.23259 0.0
H194 H 0.15183 0.19281 0.31685 0.0
C195 C 0.21266 0.97866 0.25661 0.0
H196 H 0.14747 0.19355 0.23691 0.0
C197 C 0.21232 0.97722 0.30202 0.0
C198 C 0.18682 0.05332 0.32427 0.0
H199 H 0.22625 0.91786 0.23973 0.0
H200 H 0.22513 0.91473 0.31883 0.0
C201 C 0.16922 0.13249 0.3006 0.0
C202 C 0.89764 0.06951 0.73082 0.0
C203 C 0.89289 0.98683 0.7504 0.0
H204 H 0.89855 0.14032 0.67095 0.0
C205 C 0.8816 0.91052 0.7239 0.0
H206 H 0.90737 0.12899 0.75106 0.0
C207 C 0.87863 0.91649 0.67832 0.0
C208 C 0.88652 0.99907 0.65852 0.0
H209 H 0.87962 0.84609 0.73873 0.0
H210 H 0.87449 0.85597 0.65896 0.0
C211 C 0.89385 0.0757 0.68519 0.0
C212 C 0.68616 0.60291 0.74417 0.0
C213 C 0.68894 0.52408 0.72012 0.0
H214 H 0.68288 0.66235 0.80738 0.0
C215 C 0.70128 0.44354 0.74236 0.0
H216 H 0.67627 0.66562 0.7273 0.0
C217 C 0.70249 0.44114 0.7879 0.0
C218 C 0.69205 0.51952 0.81172 0.0
H219 H 0.70216 0.38204 0.72404 0.0
H220 H 0.70429 0.37741 0.80365 0.0
C221 C 0.68877 0.60076 0.78975 0.0
C222 C 0.36234 0.61108 0.21829 0.0
C223 C 0.33939 0.53642 0.24113 0.0
H224 H 0.39141 0.66239 0.15726 0.0
C225 C 0.31714 0.45669 0.21808 0.0
H226 H 0.38005 0.67317 0.2357 0.0
C227 C 0.32632 0.44963 0.17359 0.0
C228 C 0.35694 0.5226 0.15139 0.0
H229 H 0.30085 0.39805 0.23536 0.0
H230 H 0.31631 0.38532 0.1577 0.0
C231 C 0.37019 0.60446 0.17366 0.0
loop_
_geom_bond_atom_site_label_1
_geom_bond_atom_site_label_2
_geom_bond_distance
_geom_bond_site_symmetry_2
_ccdc_geom_bond_type
C0 O16 1.260 . S
C0 O18 1.244 1_554 S
N1 C2 1.333 1_445 S
N1 C6 1.307 . S
N1 Zn7 2.020 . S
C2 N1 1.333 1_665 S
C2 C3 1.379 . S
C2 H20 0.952 . S
C3 C2 1.379 . S
C3 C4 1.390 1_665 S
C3 H30 0.949 . S
C4 C3 1.390 1_445 S
C4 C5 1.357 . S
C5 C4 1.357 . S
C5 C6 1.370 . S
C5 H31 0.950 . S
C6 N1 1.307 . S
C6 C5 1.370 . S
C6 H24 0.948 . S
Zn7 N1 2.020 . S
Zn7 O16 2.039 1_445 S
Zn7 O22 2.034 1_455 S
Zn7 O26 2.025 . S
Zn7 O28 2.024 1_545 S
C8 O27 1.246 1_554 S
C8 O28 1.249 . S
N9 C10 1.307 1_545 S
N9 C11 1.333 1_655 S
N9 Zn15 2.020 1_655 S
C10 N9 1.307 1_565 S
C10 C14 1.370 . S
C10 H21 0.948 . S
C11 N9 1.333 1_455 S
C11 C12 1.379 . S
C11 H19 0.952 . S
C12 C11 1.379 . S
C12 C13 1.390 1_455 S
C12 H32 0.949 . S
C13 C12 1.390 1_655 S
C13 C14 1.357 1_545 S
C14 C10 1.370 . S
C14 C13 1.357 1_565 S
C14 H33 0.950 . S
Zn15 N9 2.020 1_455 S
Zn15 O18 2.025 1_445 S
Zn15 O23 2.024 1_455 S
Zn15 O25 2.039 . S
Zn15 O27 2.034 1_545 S
O16 C0 1.260 . S
O16 Zn7 2.039 1_665 S
C17 O22 1.246 1_556 S
C17 O23 1.249 . S
O18 C0 1.244 1_556 S
O18 Zn15 2.025 1_665 S
H19 C11 0.952 . S
H20 C2 0.952 . S
H21 C10 0.948 . S
O22 Zn7 2.034 1_655 S
O22 C17 1.246 1_554 S
O23 Zn15 2.024 1_655 S
O23 C17 1.249 . S
H24 C6 0.948 . S
O25 Zn15 2.039 . S
O25 C29 1.251 1_556 S
O26 Zn7 2.025 . S
O26 C29 1.254 . S
O27 C8 1.246 1_556 S
O27 Zn15 2.034 1_565 S
O28 Zn7 2.024 1_565 S
O28 C8 1.249 . S
C29 O25 1.251 1_554 S
C29 O26 1.254 . S
H30 C3 0.949 . S
H31 C5 0.950 . S
H32 C12 0.949 . S
H33 C14 0.950 . S
C34 O50 1.251 . S
C34 O52 1.254 . S
N35 C36 1.333 . S
N35 C40 1.307 . S
N35 Zn41 2.020 . S
C36 N35 1.333 . S
C36 C37 1.379 . S
C36 H54 0.952 . S
C37 C36 1.379 . S
C37 C38 1.390 . S
C37 H64 0.949 . S
C38 C37 1.390 . S
C38 C39 1.357 . S
C39 C38 1.357 . S
C39 C40 1.370 . S
C39 H65 0.950 . S
C40 N35 1.307 . S
C40 C39 1.370 . S
C40 H58 0.948 . S
Zn41 N35 2.020 . S
Zn41 O50 2.039 . S
Zn41 O56 2.034 . S
Zn41 O60 2.025 . S
Zn41 O62 2.024 . S
C42 O61 1.246 . S
C42 O62 1.249 . S
N43 C44 1.307 . S
N43 C45 1.333 . S
N43 Zn49 2.020 . S
C44 N43 1.307 . S
C44 C48 1.370 . S
C44 H55 0.948 . S
C45 N43 1.333 . S
C45 C46 1.379 . S
C45 H53 0.952 . S
C46 C45 1.379 . S
C46 C47 1.390 . S
C46 H66 0.949 . S
C47 C46 1.390 . S
C47 C48 1.357 . S
C48 C44 1.370 . S
C48 C47 1.357 . S
C48 H67 0.950 . S
Zn49 N43 2.020 . S
Zn49 O52 2.025 . S
Zn49 O57 2.024 . S
Zn49 O59 2.039 . S
Zn49 O61 2.034 . S
O50 C34 1.251 . S
O50 Zn41 2.039 . S
C51 O56 1.246 . S
C51 O57 1.249 . S
O52 C34 1.254 . S
O52 Zn49 2.025 . S
H53 C45 0.952 . S
H54 C36 0.952 . S
H55 C44 0.948 . S
O56 Zn41 2.034 . S
O56 C51 1.246 . S
O57 Zn49 2.024 . S
O57 C51 1.249 . S
H58 C40 0.948 . S
O59 Zn49 2.039 . S
O59 C63 1.251 . S
O60 Zn41 2.025 . S
O60 C63 1.254 . S
O61 C42 1.246 . S
O61 Zn49 2.034 . S
O62 Zn41 2.024 . S
O62 C42 1.249 . S
C63 O59 1.251 . S
C63 O60 1.254 . S
H64 C37 0.949 . S
H65 C39 0.950 . S
H66 C46 0.949 . S
H67 C48 0.950 . S
H68 C73 0.929 . S
H69 C78 0.931 . S
H70 C76 0.930 1_655 S
N71 N72 1.234 . S
N71 C75 1.453 1_655 S
N72 N71 1.234 . S
C73 H68 0.929 . S
C73 C74 1.373 . S
C73 C75 1.368 1_565 S
C74 C73 1.373 . S
C74 C78 1.397 . S
C75 N71 1.453 1_455 S
C75 C73 1.368 1_545 S
C75 C76 1.373 . S
C76 H70 0.930 1_455 S
C76 C75 1.373 . S
C76 C77 1.371 1_545 S
C77 C76 1.371 1_565 S
C77 C78 1.383 . S
C78 H69 0.931 . S
C78 C74 1.397 . S
C78 C77 1.383 . S
H79 C84 0.929 . S
H80 C89 0.931 . S
H81 C87 0.930 . S
N82 N83 1.234 . S
N82 C86 1.453 . S
N83 N82 1.234 . S
C84 H79 0.929 . S
C84 C85 1.373 . S
C84 C86 1.368 1_665 S
C85 C84 1.373 . S
C85 C89 1.397 . S
C86 N82 1.453 . S
C86 C84 1.368 1_445 S
C86 C87 1.373 . S
C87 H81 0.930 . S
C87 C86 1.373 . S
C87 C88 1.371 1_455 S
C88 C87 1.371 1_655 S
C88 C89 1.383 1_545 S
C89 H80 0.931 . S
C89 C85 1.397 . S
C89 C88 1.383 1_565 S
H90 C95 0.929 . S
H91 C100 0.931 . S
H92 C98 0.930 . S
N93 N94 1.234 1_554 S
N93 C97 1.453 1_554 S
N94 N93 1.234 1_556 S
C95 H90 0.929 . S
C95 C96 1.373 1_554 S
C95 C97 1.368 1_554 S
C96 C95 1.373 1_556 S
C96 C100 1.397 . S
C97 N93 1.453 1_556 S
C97 C95 1.368 1_556 S
C97 C98 1.373 . S
C98 H92 0.930 . S
C98 C97 1.373 . S
C98 C99 1.371 . S
C99 C98 1.371 . S
C99 C100 1.383 . S
C100 H91 0.931 . S
C100 C96 1.397 . S
C100 C99 1.383 . S
H101 C106 0.929 1_556 S
H102 C111 0.931 . S
H103 C109 0.930 . S
N104 N105 1.234 1_556 S
N104 C108 1.453 1_556 S
N105 N104 1.234 1_554 S
C106 H101 0.929 1_554 S
C106 C107 1.373 . S
C106 C108 1.368 . S
C107 C106 1.373 . S
C107 C111 1.397 . S
C108 N104 1.453 1_554 S
C108 C106 1.368 . S
C108 C109 1.373 . S
C109 H103 0.930 . S
C109 C108 1.373 . S
C109 C110 1.371 . S
C110 C109 1.371 . S
C110 C111 1.383 . S
C111 H102 0.931 . S
C111 C107 1.397 . S
C111 C110 1.383 . S
C112 C113 1.387 1_556 S
C112 H116 0.950 . S
C112 C121 1.390 . S
C113 C112 1.387 1_554 S
C113 C115 1.387 . S
H114 C121 0.950 . S
C115 C113 1.387 . S
C115 C117 1.390 . S
C115 H119 0.950 . S
H116 C112 0.950 . S
C117 C115 1.390 . S
C117 C118 1.387 . S
C117 H120 0.950 . S
C118 C117 1.387 . S
C118 C121 1.387 1_554 S
H119 C115 0.950 . S
H120 C117 0.950 . S
C121 C112 1.390 . S
C121 H114 0.950 . S
C121 C118 1.387 1_556 S
C122 C123 1.387 . S
C122 H126 0.950 . S
C122 C131 1.390 . S
C123 C122 1.387 . S
C123 C125 1.387 1_554 S
H124 C131 0.950 . S
C125 C123 1.387 1_556 S
C125 C127 1.390 . S
C125 H129 0.950 . S
H126 C122 0.950 . S
C127 C125 1.390 . S
C127 C128 1.387 1_556 S
C127 H130 0.950 . S
C128 C127 1.387 1_554 S
C128 C131 1.387 . S
H129 C125 0.950 . S
H130 C127 0.950 . S
C131 C122 1.390 . S
C131 H124 0.950 . S
C131 C128 1.387 . S
C132 C133 1.387 . S
C132 H136 0.950 . S
C132 C141 1.390 . S
C133 C132 1.387 . S
C133 C135 1.388 1_556 S
H134 C141 0.950 . S
C135 C133 1.388 1_554 S
C135 C137 1.390 . S
C135 H139 0.950 . S
H136 C132 0.950 . S
C137 C135 1.390 . S
C137 C138 1.387 . S
C137 H140 0.950 . S
C138 C137 1.387 . S
C138 C141 1.387 1_554 S
H139 C135 0.950 . S
H140 C137 0.950 . S
C141 C132 1.390 . S
C141 H134 0.950 . S
C141 C138 1.387 1_556 S
C142 C143 1.387 . S
C142 H146 0.950 . S
C142 C151 1.390 . S
C143 C142 1.387 . S
C143 C145 1.387 1_556 S
H144 C151 0.950 . S
C145 C143 1.387 1_554 S
C145 C147 1.390 . S
C145 H149 0.950 . S
H146 C142 0.950 . S
C147 C145 1.390 . S
C147 C148 1.387 1_554 S
C147 H150 0.950 . S
C148 C147 1.387 1_556 S
C148 C151 1.387 . S
H149 C145 0.950 . S
H150 C147 0.950 . S
C151 C142 1.390 . S
C151 H144 0.950 . S
C151 C148 1.387 . S
C152 C153 1.387 . S
C152 H156 0.950 . S
C152 C161 1.390 . S
C153 C152 1.387 . S
C153 C155 1.387 . S
H154 C161 0.950 . S
C155 C153 1.387 . S
C155 C157 1.390 . S
C155 H159 0.950 . S
H156 C152 0.950 . S
C157 C155 1.390 . S
C157 C158 1.387 . S
C157 H160 0.950 . S
C158 C157 1.387 . S
C158 C161 1.387 . S
H159 C155 0.950 . S
H160 C157 0.950 . S
C161 C152 1.390 . S
C161 H154 0.950 . S
C161 C158 1.387 . S
C162 C163 1.387 . S
C162 H166 0.950 . S
C162 C171 1.390 . S
C163 C162 1.387 . S
C163 C165 1.387 . S
H164 C171 0.950 . S
C165 C163 1.387 . S
C165 C167 1.390 . S
C165 H169 0.950 . S
H166 C162 0.950 . S
C167 C165 1.390 . S
C167 C168 1.387 . S
C167 H170 0.950 . S
C168 C167 1.387 . S
C168 C171 1.387 . S
H169 C165 0.950 . S
H170 C167 0.950 . S
C171 C162 1.390 . S
C171 H164 0.950 . S
C171 C168 1.387 . S
C172 C173 1.387 . S
C172 H176 0.950 . S
C172 C181 1.390 . S
C173 C172 1.387 . S
C173 C175 1.387 . S
H174 C181 0.950 . S
C175 C173 1.387 . S
C175 C177 1.390 . S
C175 H179 0.950 . S
H176 C172 0.950 . S
C177 C175 1.390 . S
C177 C178 1.387 . S
C177 H180 0.950 . S
C178 C177 1.387 . S
C178 C181 1.387 . S
H179 C175 0.950 . S
H180 C177 0.950 . S
C181 C172 1.390 . S
C181 H174 0.950 . S
C181 C178 1.387 . S
C182 C183 1.387 . S
C182 H186 0.950 . S
C182 C191 1.390 . S
C183 C182 1.387 . S
C183 C185 1.387 . S
H184 C191 0.950 . S
C185 C183 1.387 . S
C185 C187 1.390 . S
C185 H189 0.950 . S
H186 C182 0.950 . S
C187 C185 1.390 . S
C187 C188 1.387 . S
C187 H190 0.950 . S
C188 C187 1.387 . S
C188 C191 1.387 . S
H189 C185 0.950 . S
H190 C187 0.950 . S
C191 C182 1.390 . S
C191 H184 0.950 . S
C191 C188 1.387 . S
C192 C193 1.387 . S
C192 H196 0.950 . S
C192 C201 1.390 . S
C193 C192 1.387 . S
C193 C195 1.387 1_545 S
H194 C201 0.950 . S
C195 C193 1.387 1_565 S
C195 C197 1.390 . S
C195 H199 0.950 . S
H196 C192 0.950 . S
C197 C195 1.390 . S
C197 C198 1.387 1_565 S
C197 H200 0.950 . S
C198 C197 1.387 1_545 S
C198 C201 1.387 . S
H199 C195 0.950 . S
H200 C197 0.950 . S
C201 C192 1.390 . S
C201 H194 0.950 . S
C201 C198 1.387 . S
C202 C203 1.387 . S
C202 H206 0.950 . S
C202 C211 1.390 . S
C203 C202 1.387 . S
C203 C205 1.387 1_545 S
H204 C211 0.951 . S
C205 C203 1.387 1_565 S
C205 C207 1.390 . S
C205 H209 0.950 . S
H206 C202 0.950 . S
C207 C205 1.390 . S
C207 C208 1.387 1_565 S
C207 H210 0.950 . S
C208 C207 1.387 1_545 S
C208 C211 1.387 . S
H209 C205 0.950 . S
H210 C207 0.950 . S
C211 C202 1.390 . S
C211 H204 0.951 . S
C211 C208 1.387 . S
C212 C213 1.387 . S
C212 H216 0.950 . S
C212 C221 1.390 . S
C213 C212 1.387 . S
C213 C215 1.387 . S
H214 C221 0.950 . S
C215 C213 1.387 . S
C215 C217 1.390 . S
C215 H219 0.950 . S
H216 C212 0.950 . S
C217 C215 1.390 . S
C217 C218 1.387 . S
C217 H220 0.950 . S
C218 C217 1.387 . S
C218 C221 1.387 . S
H219 C215 0.950 . S
H220 C217 0.950 . S
C221 C212 1.390 . S
C221 H214 0.950 . S
C221 C218 1.387 . S
C222 C223 1.387 . S
C222 H226 0.950 . S
C222 C231 1.390 . S
C223 C222 1.387 . S
C223 C225 1.387 . S
H224 C231 0.950 . S
C225 C223 1.387 . S
C225 C227 1.390 . S
C225 H229 0.950 . S
H226 C222 0.950 . S
C227 C225 1.390 . S
C227 C228 1.387 . S
C227 H230 0.950 . S
C228 C227 1.387 . S
C228 C231 1.387 . S
H229 C225 0.950 . S
H230 C227 0.950 . S
C231 C222 1.390 . S
C231 H224 0.950 . S
C231 C228 1.387 . S
C118 C107 1.473 . S
C113 C29 1.511 . S
C123 C8 1.459 . S
C128 N94 1.399 1_554 S
C133 C0 1.465 1_556 S
C138 N105 1.403 . S
C143 C17 1.510 . S
C148 C96 1.475 . S
C153 C63 1.510 . S
C158 C85 1.473 . S
C163 C42 1.459 . S
C168 N72 1.398 . S
C178 N83 1.404 . S
C173 C34 1.463 . S
C188 C74 1.476 . S
C183 C51 1.510 . S
C193 C4 1.519 . S
C198 C77 1.514 1_545 S
C203 C13 1.512 . S
C208 C88 1.507 . S
C218 C99 1.514 . S
C213 C38 1.519 . S
C223 C47 1.511 . S
C228 C110 1.506 . S
