# Generated by pormake.
# Topology anh, (6,3)-cn, num edge types: 1
# Building blocks:
#     Node 0, Type 0, BuildingBlock: BETGAK_clean_sbu_0, # of connection points: 6
#     Node 1, Type 0, BuildingBlock: BETGAK_clean_sbu_0, # of connection points: 6
#     Node 2, Type 0, BuildingBlock: BETGAK_clean_sbu_0, # of connection points: 6
#     Node 3, Type 1, BuildingBlock: ESEHIV_clean_linker_0, # of connection points: 3
#     Node 4, Type 1, BuildingBlock: ESEHIV_clean_linker_0, # of connection points: 3
#     Node 5, Type 1, BuildingBlock: ESEHIV_clean_linker_0, # of connection points: 3
#     Node 6, Type 1, BuildingBlock: ESEHIV_clean_linker_0, # of connection points: 3
#     Node 7, Type 1, BuildingBlock: ESEHIV_clean_linker_0, # of connection points: 3
#     Node 8, Type 1, BuildingBlock: ESEHIV_clean_linker_0, # of connection points: 3
#     Edge 9, Type (0, 1), None
#     Edge 10, Type (0, 1), None
#     Edge 11, Type (0, 1), None
#     Edge 12, Type (0, 1), None
#     Edge 13, Type (0, 1), None
#     Edge 14, Type (0, 1), None
#     Edge 15, Type (0, 1), None
#     Edge 16, Type (0, 1), None
#     Edge 17, Type (0, 1), None
#     Edge 18, Type (0, 1), None
#     Edge 19, Type (0, 1), None
#     Edge 20, Type (0, 1), None
#     Edge 21, Type (0, 1), None
#     Edge 22, Type (0, 1), None
#     Edge 23, Type (0, 1), None
#     Edge 24, Type (0, 1), None
#     Edge 25, Type (0, 1), None
#     Edge 26, Type (0, 1), None
# Relax obj value: 0.515
# Max RMSD: 0.354
# Mean RMSD: 0.227
data_MOF--net-anh--node1-BETGAK_clean_sbu_0--node2-ESEHIV_clean_linker_0--edge1-none
_symmetry_space_group_name_H-M    P1
_symmetry_Int_Tables_number       1
_symmetry_cell_setting            triclinic
loop_
_symmetry_equiv_pos_as_xyz
'x, y, z'
_cell_length_a     12.393817
_cell_length_b     17.057617
_cell_length_c     22.365723
_cell_angle_alpha  91.280459
_cell_angle_beta   90.869016
_cell_angle_gamma 140.07433
loop_
_atom_site_label
_atom_site_type_symbol
_atom_site_fract_x
_atom_site_fract_y
_atom_site_fract_z
_atom_type_partial_charge
La0 La 0.47109 0.64047 0.16199 0.0
La1 La 1.21805 0.60732 0.19396 0.0
C2 C 0.73486 0.74844 0.11547 0.0
C3 C 0.90305 0.86224 0.14237 0.0
C4 C 0.92669 0.87111 0.20546 0.0
C5 C 1.06003 0.89872 0.22809 0.0
C6 C 1.13679 0.89349 0.18526 0.0
C7 C 1.18129 0.96387 0.13627 0.0
C8 C 1.04638 0.93052 0.1088 0.0
C9 C 0.44105 0.63747 0.27847 0.0
C10 C 0.5782 0.88322 0.18627 0.0
C11 C 1.00134 0.53589 0.26391 0.0
C12 C 0.81826 0.43414 0.26766 0.0
C13 C 0.75396 0.46127 0.30105 0.0
C14 C 0.64583 0.45362 0.27108 0.0
C15 C 0.62741 0.43366 0.20849 0.0
C16 C 0.61496 0.34814 0.18797 0.0
C17 C 0.72313 0.35474 0.2165 0.0
C18 C 1.24498 0.60779 0.07527 0.0
C19 C 1.10751 0.36377 0.1726 0.0
O20 O 0.64723 0.65163 0.14687 0.0
O21 O 0.64435 0.75647 0.09531 0.0
O22 O 0.48127 0.59482 0.252 0.0
O23 O 0.43622 0.68834 0.24086 0.0
O24 O 0.61608 0.83395 0.16495 0.0
O25 O 0.4268 0.80924 0.20742 0.0
O26 O 1.05818 0.60773 0.21966 0.0
O27 O 1.07724 0.51074 0.26976 0.0
O28 O 1.19415 0.64251 0.10327 0.0
O29 O 1.25583 0.55994 0.11283 0.0
O30 O 1.06755 0.41415 0.18848 0.0
O31 O 1.26333 0.43562 0.15544 0.0
H32 H 0.82783 0.83303 0.2347 0.0
H33 H 1.06186 0.88316 0.27457 0.0
H34 H 0.28403 1.00273 0.10925 0.0
H35 H 1.04285 0.93819 0.06106 0.0
H36 H 0.81566 0.51434 0.34327 0.0
H37 H 0.62775 0.50085 0.29163 0.0
H38 H 0.56982 0.3091 0.14246 0.0
H39 H 0.75921 0.32248 0.19204 0.0
La40 La 0.99422 0.15895 0.47449 0.0
La41 La 0.75274 0.13909 0.46635 0.0
C42 C 1.15102 0.12448 0.50338 0.0
C43 C 1.08327 1.023 0.53737 0.0
C44 C 1.12563 0.96859 0.52559 0.0
C45 C 1.05041 0.86716 0.55662 0.0
C46 C 0.92841 0.8175 0.59826 0.0
C47 C 0.88291 0.86999 0.60858 0.0
C48 C 0.95711 0.96993 0.57705 0.0
C49 C 0.93666 0.16912 0.36222 0.0
C50 C 0.6087 0.89141 0.45814 0.0
C51 C 0.57461 0.15987 0.45341 0.0
C52 C 0.58406 0.23753 0.49076 0.0
C53 C 0.52154 0.20545 0.54853 0.0
C54 C 0.54721 0.28574 0.58593 0.0
C55 C 0.6471 0.40418 0.56834 0.0
C56 C 0.71282 0.436 0.51063 0.0
C57 C 0.67689 0.35272 0.47198 0.0
C58 C 0.80647 0.1251 0.57968 0.0
C59 C 1.1466 0.41102 0.46288 0.0
O60 O 1.07599 0.09145 0.45082 0.0
O61 O 1.16902 0.20125 0.533 0.0
O62 O 1.0834 0.23598 0.38669 0.0
O63 O 0.82632 0.0973 0.39989 0.0
O64 O 0.75505 0.95878 0.48673 0.0
O65 O 0.59238 0.95154 0.43311 0.0
O66 O 0.52391 1.06905 0.47965 0.0
O67 O 0.70539 0.21811 0.4218 0.0
O68 O 0.66357 1.06123 0.5537 0.0
O69 O 0.91842 0.19918 0.54247 0.0
O70 O 0.9853 0.3401 0.45327 0.0
O71 O 1.18403 0.35875 0.4766 0.0
H72 H 1.21244 1.00201 0.49142 0.0
H73 H 1.08359 0.82525 0.54692 0.0
H74 H 0.7835 0.8296 0.63821 0.0
H75 H 0.90902 1.00166 0.58051 0.0
H76 H 0.45441 0.11869 0.56548 0.0
H77 H 0.49078 0.25435 0.62884 0.0
H78 H 0.79855 0.52662 0.49471 0.0
H79 H 0.73093 0.38157 0.42846 0.0
La80 La 0.79216 0.6401 0.8997 0.0
La81 La 0.67503 0.52034 0.8891 0.0
C82 C 0.94791 0.85401 0.87733 0.0
C83 C 0.91747 0.90815 0.84093 0.0
C84 C 0.7877 0.88867 0.85335 0.0
C85 C 0.76451 0.94388 0.82029 0.0
C86 C 0.87333 1.02346 0.7748 0.0
C87 C 1.00273 1.04217 0.76208 0.0
C88 C 1.02387 0.98481 0.79463 0.0
C89 C 0.83373 0.63421 0.01337 0.0
C90 C 0.45973 0.57659 0.88686 0.0
C91 C 0.50862 0.30019 0.87773 0.0
C92 C 0.55781 0.25631 0.84282 0.0
C93 C 0.50142 0.21212 0.78266 0.0
C94 C 0.56279 0.18291 0.74881 0.0
C95 C 0.68501 0.19976 0.77391 0.0
C96 C 0.74259 0.24606 0.83381 0.0
C97 C 0.67742 0.27095 0.86794 0.0
C98 C 0.71109 0.56685 0.77473 0.0
C99 C 0.99792 0.57364 0.87984 0.0
O100 O 0.85652 0.79341 0.92285 0.0
O101 O 0.96584 0.798 0.84874 0.0
O102 O 0.95481 0.72125 0.98017 0.0
O103 O 0.69393 0.55506 0.98404 0.0
O104 O 0.52736 0.5509 0.91421 0.0
O105 O 0.52302 0.54821 0.91676 0.0
O106 O 0.47023 0.34115 0.84818 0.0
O107 O 0.60643 0.37327 0.92372 0.0
O108 O 0.58242 0.51937 0.80275 0.0
O109 O 0.81855 0.60255 0.81221 0.0
O110 O 0.93608 0.60254 0.90806 0.0
O111 O 0.94317 0.60672 0.91182 0.0
H112 H 0.70416 0.8314 0.88898 0.0
H113 H 0.65992 0.92331 0.83058 0.0
H114 H 1.08982 0.10278 0.72776 0.0
H115 H 1.12481 1.00133 0.78407 0.0
H116 H 0.41151 0.20162 0.76147 0.0
H117 H 0.51325 0.14634 0.70321 0.0
H118 H 0.84045 0.26491 0.85474 0.0
H119 H 0.72597 0.30599 0.9138 0.0
H120 H 0.6539 0.96565 0.29877 0.0
H121 H 1.14854 0.33224 0.27923 0.0
H122 H 0.81995 0.10981 0.12323 0.0
C123 C 0.7497 1.03931 0.27029 0.0
C124 C 0.72306 1.0173 0.20786 0.0
C125 C 0.90338 0.15154 0.29643 0.0
C126 C 1.02854 0.24694 0.25959 0.0
C127 C 0.99759 0.23965 0.1981 0.0
C128 C 0.84478 0.12095 0.17116 0.0
H129 H 0.8663 0.76439 0.71569 0.0
H130 H 0.6216 0.40504 0.69334 0.0
H131 H 0.76347 0.61375 0.53956 0.0
C132 C 0.81456 0.68907 0.68642 0.0
C133 C 0.83371 0.702 0.62484 0.0
C134 C 0.73046 0.57928 0.71021 0.0
C135 C 0.67426 0.4849 0.67275 0.0
C136 C 0.69123 0.49674 0.61006 0.0
C137 C 0.76154 0.60371 0.58716 0.0
H138 H 1.07748 0.60231 -0.00273 0.0
H139 H 0.40376 0.58235 0.00744 0.0
H140 H 1.2221 0.5658 0.83393 0.0
C141 C 1.14495 0.59471 0.97358 0.0
C142 C 1.12726 0.58193 0.91071 0.0
C143 C 1.24072 0.59373 0.00795 0.0
C144 C 0.33066 0.58136 0.97945 0.0
C145 C 0.33467 0.5736 0.91596 0.0
C146 C 1.22735 0.57298 0.88231 0.0
H147 H 1.24003 0.45035 0.35293 0.0
H148 H 0.61292 0.83654 0.34884 0.0
H149 H 0.35921 0.65641 0.51209 0.0
C150 C 0.31189 0.53595 0.3757 0.0
C151 C 0.28192 0.53628 0.43602 0.0
C152 C 0.42683 0.64266 0.34385 0.0
C153 C 0.52032 0.75448 0.37329 0.0
C154 C 0.50026 0.76333 0.43369 0.0
C155 C 0.37875 0.65245 0.46565 0.0
H156 H 0.72801 0.20483 0.65165 0.0
H157 H 0.92237 0.07864 0.65731 0.0
H158 H 0.77092 0.10644 0.81813 0.0
C159 C 0.76546 0.17465 0.67701 0.0
C160 C 0.74924 0.16569 0.73972 0.0
C161 C 0.82809 0.14316 0.64636 0.0
C162 C 0.8755 0.10332 0.67963 0.0
C163 C 0.84957 0.08524 0.74131 0.0
C164 C 0.78952 0.11902 0.77064 0.0
H165 H 1.12195 0.80383 0.07716 0.0
H166 H 0.60621 0.45094 0.08878 0.0
H167 H 0.90819 0.67914 0.2487 0.0
C168 C 1.01725 0.73408 0.10489 0.0
C169 C 1.0288 0.76233 0.16591 0.0
C170 C 0.85887 0.63179 0.07692 0.0
C171 C 0.72509 0.53495 0.11081 0.0
C172 C 0.746 0.54616 0.17338 0.0
C173 C 0.89537 0.66327 0.20066 0.0
loop_
_geom_bond_atom_site_label_1
_geom_bond_atom_site_label_2
_geom_bond_distance
_geom_bond_site_symmetry_2
_ccdc_geom_bond_type
La0 C2 2.928 . S
La0 O20 2.521 . S
La0 O21 2.628 . S
La0 O22 2.554 . S
La0 O23 2.757 . S
La0 O24 2.470 . S
La0 O29 2.482 . S
La0 O31 2.503 1_455 S
La1 C11 2.928 . S
La1 O23 2.482 1_655 S
La1 O25 2.503 1_655 S
La1 O26 2.521 . S
La1 O27 2.628 . S
La1 O28 2.554 . S
La1 O29 2.757 1_655 S
La1 O30 2.470 . S
C2 La0 2.928 . S
C2 C3 1.503 . S
C2 O20 1.261 . S
C2 O21 1.243 . S
C3 C2 1.503 . S
C3 C4 1.394 . S
C3 C8 1.373 . S
C4 C3 1.394 . S
C4 C5 1.380 . S
C4 H32 0.930 . S
C5 C4 1.380 . S
C5 C6 1.376 . S
C5 H33 0.930 . S
C6 C5 1.376 . S
C6 C7 1.370 . S
C7 C6 1.370 . S
C7 C8 1.396 . S
C7 H34 0.929 . S
C8 C3 1.373 . S
C8 C7 1.396 . S
C8 H35 0.929 . S
C9 O22 1.240 . S
C9 O23 1.289 . S
C10 O24 1.258 . S
C10 O25 1.256 . S
C11 La1 2.928 . S
C11 C12 1.503 . S
C11 O26 1.261 . S
C11 O27 1.243 . S
C12 C11 1.503 . S
C12 C13 1.394 . S
C12 C17 1.373 . S
C13 C12 1.394 . S
C13 C14 1.380 . S
C13 H36 0.930 . S
C14 C13 1.380 . S
C14 C15 1.376 . S
C14 H37 0.930 . S
C15 C14 1.376 . S
C15 C16 1.370 . S
C16 C15 1.370 . S
C16 C17 1.396 . S
C16 H38 0.929 . S
C17 C12 1.373 . S
C17 C16 1.396 . S
C17 H39 0.929 . S
C18 O28 1.240 1_455 S
C18 O29 1.289 . S
C19 O30 1.258 . S
C19 O31 1.256 . S
O20 La0 2.521 . S
O20 C2 1.261 . S
O21 La0 2.628 . S
O21 C2 1.243 . S
O22 La0 2.554 . S
O22 C9 1.240 . S
O23 La0 2.757 . S
O23 La1 2.482 1_455 S
O23 C9 1.289 . S
O24 La0 2.470 . S
O24 C10 1.258 . S
O25 La1 2.503 1_455 S
O25 C10 1.256 . S
O26 La1 2.521 . S
O26 C11 1.261 . S
O27 La1 2.628 . S
O27 C11 1.243 . S
O28 La1 2.554 . S
O28 C18 1.240 1_655 S
O29 La0 2.482 . S
O29 La1 2.757 1_455 S
O29 C18 1.289 . S
O30 La1 2.470 . S
O30 C19 1.258 . S
O31 La0 2.503 1_655 S
O31 C19 1.256 . S
H32 C4 0.930 . S
H33 C5 0.930 . S
H34 C7 0.929 . S
H35 C8 0.929 . S
H36 C13 0.930 . S
H37 C14 0.930 . S
H38 C16 0.929 . S
H39 C17 0.929 . S
La40 C42 2.928 1_545 S
La40 O60 2.521 1_545 S
La40 O61 2.628 1_545 S
La40 O62 2.554 . S
La40 O63 2.757 . S
La40 O64 2.470 1_545 S
La40 O69 2.482 . S
La40 O71 2.503 . S
La41 C51 2.928 . S
La41 O63 2.482 . S
La41 O65 2.503 1_545 S
La41 O66 2.521 . S
La41 O67 2.628 . S
La41 O68 2.554 . S
La41 O69 2.757 . S
La41 O70 2.470 . S
C42 La40 2.928 1_565 S
C42 C43 1.503 . S
C42 O60 1.261 . S
C42 O61 1.243 . S
C43 C42 1.503 . S
C43 C44 1.394 . S
C43 C48 1.373 . S
C44 C43 1.394 . S
C44 C45 1.380 . S
C44 H72 0.930 . S
C45 C44 1.380 . S
C45 C46 1.376 . S
C45 H73 0.930 . S
C46 C45 1.376 . S
C46 C47 1.370 . S
C47 C46 1.370 . S
C47 C48 1.396 . S
C47 H74 0.929 . S
C48 C43 1.373 . S
C48 C47 1.396 . S
C48 H75 0.929 . S
C49 O62 1.240 . S
C49 O63 1.289 . S
C50 O64 1.258 . S
C50 O65 1.256 . S
C51 La41 2.928 . S
C51 C52 1.503 . S
C51 O66 1.261 . S
C51 O67 1.243 . S
C52 C51 1.503 . S
C52 C53 1.394 . S
C52 C57 1.373 . S
C53 C52 1.394 . S
C53 C54 1.380 . S
C53 H76 0.930 . S
C54 C53 1.380 . S
C54 C55 1.376 . S
C54 H77 0.930 . S
C55 C54 1.376 . S
C55 C56 1.370 . S
C56 C55 1.370 . S
C56 C57 1.396 . S
C56 H78 0.929 . S
C57 C52 1.373 . S
C57 C56 1.396 . S
C57 H79 0.929 . S
C58 O68 1.240 . S
C58 O69 1.289 . S
C59 O70 1.258 . S
C59 O71 1.256 . S
O60 La40 2.521 1_565 S
O60 C42 1.261 . S
O61 La40 2.628 1_565 S
O61 C42 1.243 . S
O62 La40 2.554 . S
O62 C49 1.240 . S
O63 La40 2.757 . S
O63 La41 2.482 . S
O63 C49 1.289 . S
O64 La40 2.470 1_565 S
O64 C50 1.258 . S
O65 La41 2.503 1_565 S
O65 C50 1.256 . S
O66 La41 2.521 . S
O66 C51 1.261 . S
O67 La41 2.628 . S
O67 C51 1.243 . S
O68 La41 2.554 . S
O68 C58 1.240 . S
O69 La40 2.482 . S
O69 La41 2.757 . S
O69 C58 1.289 . S
O70 La41 2.470 . S
O70 C59 1.258 . S
O71 La40 2.503 . S
O71 C59 1.256 . S
H72 C44 0.930 . S
H73 C45 0.930 . S
H74 C47 0.929 . S
H75 C48 0.929 . S
H76 C53 0.930 . S
H77 C54 0.930 . S
H78 C56 0.929 . S
H79 C57 0.929 . S
La80 C82 2.928 . S
La80 O100 2.521 . S
La80 O101 2.628 . S
La80 O102 2.554 1_556 S
La80 O103 2.757 . S
La80 O104 2.470 . S
La80 O109 2.482 . S
La80 O111 2.503 . S
La81 C91 2.928 . S
La81 O103 2.482 . S
La81 O105 2.503 . S
La81 O106 2.521 . S
La81 O107 2.628 . S
La81 O108 2.554 . S
La81 O109 2.757 . S
La81 O110 2.470 . S
C82 La80 2.928 . S
C82 C83 1.503 . S
C82 O100 1.261 . S
C82 O101 1.243 . S
C83 C82 1.503 . S
C83 C84 1.394 1_565 S
C83 C88 1.373 . S
C84 C83 1.394 1_545 S
C84 C85 1.380 . S
C84 H112 0.930 1_546 S
C85 C84 1.380 . S
C85 C86 1.376 . S
C85 H113 0.930 1_556 S
C86 C85 1.376 . S
C86 C87 1.370 . S
C87 C86 1.370 . S
C87 C88 1.396 1_545 S
C87 H114 0.929 . S
C88 C83 1.373 . S
C88 C87 1.396 1_565 S
C88 H115 0.929 . S
C89 O102 1.240 . S
C89 O103 1.289 1_554 S
C90 O104 1.258 . S
C90 O105 1.256 . S
C91 La81 2.928 . S
C91 C92 1.503 . S
C91 O106 1.261 . S
C91 O107 1.243 . S
C92 C91 1.503 . S
C92 C93 1.394 . S
C92 C97 1.373 . S
C93 C92 1.394 . S
C93 C94 1.380 . S
C93 H116 0.930 . S
C94 C93 1.380 . S
C94 C95 1.376 . S
C94 H117 0.930 . S
C95 C94 1.376 . S
C95 C96 1.370 . S
C96 C95 1.370 . S
C96 C97 1.396 . S
C96 H118 0.929 . S
C97 C92 1.373 . S
C97 C96 1.396 . S
C97 H119 0.929 . S
C98 O108 1.240 . S
C98 O109 1.289 . S
C99 O110 1.258 . S
C99 O111 1.256 . S
O100 La80 2.521 . S
O100 C82 1.261 . S
O101 La80 2.628 . S
O101 C82 1.243 . S
O102 La80 2.554 1_554 S
O102 C89 1.240 . S
O103 La80 2.757 . S
O103 La81 2.482 . S
O103 C89 1.289 1_556 S
O104 La80 2.470 . S
O104 C90 1.258 . S
O105 La81 2.503 . S
O105 C90 1.256 . S
O106 La81 2.521 . S
O106 C91 1.261 . S
O107 La81 2.628 . S
O107 C91 1.243 . S
O108 La81 2.554 . S
O108 C98 1.240 . S
O109 La80 2.482 . S
O109 La81 2.757 . S
O109 C98 1.289 . S
O110 La81 2.470 . S
O110 C99 1.258 . S
O111 La80 2.503 . S
O111 C99 1.256 . S
H112 C84 0.930 1_564 S
H113 C85 0.930 1_554 S
H114 C87 0.929 . S
H115 C88 0.929 . S
H116 C93 0.930 . S
H117 C94 0.930 . S
H118 C96 0.929 . S
H119 C97 0.929 . S
H120 C123 0.931 . S
H121 C126 0.928 . S
H122 C128 0.930 . S
C123 H120 0.931 . S
C123 C124 1.413 . S
C123 C125 1.360 1_565 S
C124 C123 1.413 . S
C124 C128 1.429 1_565 S
C125 C123 1.360 1_545 S
C125 C126 1.372 . S
C126 H121 0.928 . S
C126 C125 1.372 . S
C126 C127 1.404 . S
C127 C126 1.404 . S
C127 C128 1.391 . S
C128 H122 0.930 . S
C128 C124 1.429 1_545 S
C128 C127 1.391 . S
H129 C132 0.931 . S
H130 C135 0.928 . S
H131 C137 0.930 . S
C132 H129 0.931 . S
C132 C133 1.413 . S
C132 C134 1.360 . S
C133 C132 1.413 . S
C133 C137 1.429 . S
C134 C132 1.360 . S
C134 C135 1.372 . S
C135 H130 0.928 . S
C135 C134 1.372 . S
C135 C136 1.404 . S
C136 C135 1.404 . S
C136 C137 1.391 . S
C137 H131 0.930 . S
C137 C133 1.429 . S
C137 C136 1.391 . S
H138 C141 0.931 1_654 S
H139 C144 0.928 1_554 S
H140 C146 0.930 . S
C141 H138 0.931 1_456 S
C141 C142 1.413 . S
C141 C143 1.360 1_556 S
C142 C141 1.413 . S
C142 C146 1.429 . S
C143 C141 1.360 1_554 S
C143 C144 1.372 1_554 S
C144 H139 0.928 1_556 S
C144 C143 1.372 1_556 S
C144 C145 1.404 . S
C145 C144 1.404 . S
C145 C146 1.391 . S
C146 H140 0.930 . S
C146 C142 1.429 . S
C146 C145 1.391 . S
H147 C150 0.931 . S
H148 C153 0.928 . S
H149 C155 0.930 . S
C150 H147 0.931 . S
C150 C151 1.413 . S
C150 C152 1.360 1_655 S
C151 C150 1.413 . S
C151 C155 1.429 1_655 S
C152 C150 1.360 1_455 S
C152 C153 1.372 . S
C153 H148 0.928 . S
C153 C152 1.372 . S
C153 C154 1.404 . S
C154 C153 1.404 . S
C154 C155 1.391 . S
C155 H149 0.930 . S
C155 C151 1.429 1_455 S
C155 C154 1.391 . S
H156 C159 0.931 . S
H157 C162 0.928 . S
H158 C164 0.930 . S
C159 H156 0.931 . S
C159 C160 1.413 . S
C159 C161 1.360 1_545 S
C160 C159 1.413 . S
C160 C164 1.429 . S
C161 C159 1.360 1_565 S
C161 C162 1.372 . S
C162 H157 0.928 . S
C162 C161 1.372 . S
C162 C163 1.404 . S
C163 C162 1.404 . S
C163 C164 1.391 1_565 S
C164 H158 0.930 . S
C164 C160 1.429 . S
C164 C163 1.391 1_545 S
H165 C168 0.931 1_556 S
H166 C171 0.928 1_556 S
H167 C173 0.930 . S
C168 H165 0.931 1_554 S
C168 C169 1.413 . S
C168 C170 1.360 1_554 S
C169 C168 1.413 . S
C169 C173 1.429 . S
C170 C168 1.360 1_556 S
C170 C171 1.372 1_556 S
C171 H166 0.928 1_554 S
C171 C170 1.372 1_554 S
C171 C172 1.404 . S
C172 C171 1.404 . S
C172 C173 1.391 . S
C173 H167 0.930 . S
C173 C169 1.429 . S
C173 C172 1.391 . S
C6 C169 5.288 . S
C59 C151 2.367 . S
C86 C163 4.769 1_545 S
C15 C172 3.821 . S
C154 C50 2.371 . S
C160 C95 2.413 . S
C46 C133 3.030 . S
C99 C142 4.699 1_655 S
C10 C124 2.635 . S
C136 C55 3.537 . S
C145 C90 4.747 . S
C19 C127 2.466 . S
C143 C18 1.986 . S
C49 C125 0.904 . S
C98 C134 1.264 . S
C161 C58 1.247 1_565 S
C170 C89 1.992 1_556 S
C9 C152 0.866 . S
