# Generated by pormake.
# Topology tsx, (6,3)-cn, num edge types: 1
# Building blocks:
#     Node 0, Type 0, BuildingBlock: MIDCAF_clean_sbu_0, # of connection points: 6
#     Node 1, Type 0, BuildingBlock: MIDCAF_clean_sbu_0, # of connection points: 6
#     Node 2, Type 1, BuildingBlock: ESEHIV_clean_linker_0, # of connection points: 3
#     Node 3, Type 1, BuildingBlock: ESEHIV_clean_linker_0, # of connection points: 3
#     Node 4, Type 1, BuildingBlock: ESEHIV_clean_linker_0, # of connection points: 3
#     Node 5, Type 1, BuildingBlock: ESEHIV_clean_linker_0, # of connection points: 3
#     Edge 6, Type (0, 1), BuildingBlock: EYOCIG_clean_linker_4, # of connection points: 2
#     Edge 7, Type (0, 1), BuildingBlock: EYOCIG_clean_linker_4, # of connection points: 2
#     Edge 8, Type (0, 1), BuildingBlock: EYOCIG_clean_linker_4, # of connection points: 2
#     Edge 9, Type (0, 1), BuildingBlock: EYOCIG_clean_linker_4, # of connection points: 2
#     Edge 10, Type (0, 1), BuildingBlock: EYOCIG_clean_linker_4, # of connection points: 2
#     Edge 11, Type (0, 1), BuildingBlock: EYOCIG_clean_linker_4, # of connection points: 2
#     Edge 12, Type (0, 1), BuildingBlock: EYOCIG_clean_linker_4, # of connection points: 2
#     Edge 13, Type (0, 1), BuildingBlock: EYOCIG_clean_linker_4, # of connection points: 2
#     Edge 14, Type (0, 1), BuildingBlock: EYOCIG_clean_linker_4, # of connection points: 2
#     Edge 15, Type (0, 1), BuildingBlock: EYOCIG_clean_linker_4, # of connection points: 2
#     Edge 16, Type (0, 1), BuildingBlock: EYOCIG_clean_linker_4, # of connection points: 2
#     Edge 17, Type (0, 1), BuildingBlock: EYOCIG_clean_linker_4, # of connection points: 2
# Relax obj value: 0.118
# Max RMSD: 0.182
# Mean RMSD: 0.113
data_MOF--net-tsx--node1-MIDCAF_clean_sbu_0--node2-ESEHIV_clean_linker_0--edge1-EYOCIG_clean_linker_4
_symmetry_space_group_name_H-M    P1
_symmetry_Int_Tables_number       1
_symmetry_cell_setting            triclinic
loop_
_symmetry_equiv_pos_as_xyz
'x, y, z'
_cell_length_a     12.232562
_cell_length_b     16.725119
_cell_length_c     28.673551
_cell_angle_alpha  89.913443
_cell_angle_beta   104.40801
_cell_angle_gamma 90.001117
loop_
_atom_site_label
_atom_site_type_symbol
_atom_site_fract_x
_atom_site_fract_y
_atom_site_fract_z
_atom_type_partial_charge
Zn0 Zn 0.92263 -0.05617 0.94661 0.0
Zn1 Zn 0.32312 -0.0573 0.06586 0.0
Zn2 Zn 0.12317 -0.05552 0.00624 0.0
C3 C 0.28152 0.0976 0.03089 0.0
C4 C 0.32742 0.83196 0.99476 0.0
O5 O 1.01071 0.86955 0.0377 0.0
O6 O 0.86528 0.84852 0.97527 0.0
C7 C 0.96662 0.09866 0.98137 0.0
O8 O 0.18117 0.06884 0.01708 0.0
O9 O 0.36433 0.05275 0.04887 0.0
O10 O 0.37987 0.84696 0.03759 0.0
O11 O 0.2353 0.86912 0.97493 0.0
O12 O 0.88322 0.05439 0.96342 0.0
O13 O 1.06658 0.06919 0.99524 0.0
O14 O 0.14769 0.89701 0.93813 0.0
O15 O 0.98533 0.93309 0.88892 0.0
C16 C 1.08524 0.90802 0.89534 0.0
O17 O 0.09785 0.89774 0.07448 0.0
O18 O 0.2605 0.93311 0.12362 0.0
C19 C 0.91813 0.83294 0.018 0.0
C20 C 0.16024 0.90884 0.11725 0.0
Zn21 Zn 0.8213 0.44368 0.56557 0.0
Zn22 Zn 0.42058 0.44291 0.44665 0.0
Zn23 Zn 0.62104 0.44451 0.50624 0.0
C24 C 0.5835 0.40855 0.39531 0.0
C25 C 0.46273 0.59783 0.48136 0.0
O26 O 0.59668 0.39735 0.57454 0.0
O27 O 0.75924 0.43353 0.62345 0.0
C28 C 0.82617 0.33294 0.49456 0.0
O29 O 0.646 0.39756 0.43809 0.0
O30 O 0.4833 0.433 0.38891 0.0
O31 O 0.37979 0.55313 0.46348 0.0
O32 O 0.56301 0.56891 0.49519 0.0
O33 O 0.8789 0.34827 0.5373 0.0
O34 O 0.73359 0.36964 0.47483 0.0
O35 O 0.67765 0.56919 0.51699 0.0
O36 O 0.86108 0.55401 0.54847 0.0
C37 C 0.77772 0.59845 0.53063 0.0
O38 O 0.50945 0.36898 0.53782 0.0
O39 O 0.36446 0.34712 0.47534 0.0
C40 C 0.65931 0.40865 0.61724 0.0
C41 C 0.41732 0.33185 0.51811 0.0
H42 H 1.00232 0.06255 0.32841 0.0
H43 H 0.23413 0.86486 0.3574 0.0
H44 H 0.17539 0.00427 0.47483 0.0
C45 C 1.06124 0.02541 0.35393 0.0
C46 C 1.08239 0.04081 0.40352 0.0
C47 C 0.11623 -0.03803 0.33736 0.0
C48 C 0.19206 0.91423 0.3703 0.0
C49 C 0.21349 0.92926 0.41974 0.0
C50 C 0.15921 -0.00711 0.4365 0.0
H51 H 1.00951 0.8624 0.65477 0.0
H52 H 0.24374 0.05852 0.68405 0.0
H53 H 1.06844 0.00306 0.53761 0.0
C54 C 1.0521 0.91165 0.64196 0.0
C55 C 1.03025 0.92747 0.59256 0.0
C56 C 0.12876 -0.04141 0.67495 0.0
C57 C 0.18429 0.02193 0.65848 0.0
C58 C 0.16274 0.03811 0.60894 0.0
C59 C 1.08506 -0.00899 0.57591 0.0
H60 H 0.50346 0.56132 0.82879 0.0
H61 H 0.73736 0.36486 0.85775 0.0
H62 H 0.67897 0.5046 0.97513 0.0
C63 C 0.56305 0.52459 0.85429 0.0
C64 C 0.58473 0.54034 0.90385 0.0
C65 C 0.61837 0.46133 0.83773 0.0
C66 C 0.69505 0.41412 0.87064 0.0
C67 C 0.71701 0.42949 0.92006 0.0
C68 C 0.6624 0.49296 0.93682 0.0
H69 H 0.51171 0.3631 0.15504 0.0
H70 H 0.74333 0.56076 0.18421 0.0
H71 H 0.57125 0.50298 0.03771 0.0
C72 C 0.55399 0.41247 0.14218 0.0
C73 C 0.53287 0.42771 0.09274 0.0
C74 C 0.62957 0.46012 0.17517 0.0
C75 C 0.68471 0.52363 0.15865 0.0
C76 C 0.66387 0.53922 0.10906 0.0
C77 C 0.5873 0.49139 0.07603 0.0
C78 C 0.3367 0.24912 0.0301 0.0
C79 C 0.3012 0.18176 0.02838 0.0
C80 C 0.39651 0.32138 0.04158 0.0
C81 C 0.45894 0.37429 0.06021 0.0
C82 C 0.41728 0.71982 0.95148 0.0
C83 C 0.37153 0.77155 0.96897 0.0
C84 C 0.47531 0.65781 0.9344 0.0
C85 C 0.52545 0.6042 0.92072 0.0
C86 C 0.82908 0.72014 0.06131 0.0
C87 C 0.87435 0.77213 0.04374 0.0
C88 C 0.77191 0.65764 0.07851 0.0
C89 C 0.72246 0.60362 0.09223 0.0
C90 C 0.91337 0.25055 0.98231 0.0
C91 C 0.94803 0.18295 0.98396 0.0
C92 C 0.85405 0.3231 0.97102 0.0
C93 C 0.79142 0.37611 0.95254 0.0
C94 C 0.83185 0.75014 0.5298 0.0
C95 C 0.79656 0.68272 0.52806 0.0
C96 C 0.89206 0.82223 0.54131 0.0
C97 C 0.95527 0.87471 0.55998 0.0
C98 C 0.91595 0.22078 0.45126 0.0
C99 C 0.87028 0.27248 0.46879 0.0
C100 C 0.97368 0.15865 0.43411 0.0
C101 C 1.02347 0.10488 0.4204 0.0
C102 C 0.32874 0.21883 0.56143 0.0
C103 C 0.3739 0.27094 0.54391 0.0
C104 C 0.27141 0.15632 0.57853 0.0
C105 C 0.22165 0.10239 0.59218 0.0
C106 C 0.40836 0.74957 0.48209 0.0
C107 C 0.44331 0.68205 0.48378 0.0
C108 C 0.34923 0.82219 0.47074 0.0
C109 C 0.28715 0.87545 0.45222 0.0
C110 C 0.09422 0.91046 0.19755 0.0
C111 C 0.11305 0.90628 0.1583 0.0
C112 C 0.08924 0.92753 0.24521 0.0
C113 C 0.09813 -0.0541 0.28665 0.0
C114 C 0.15078 0.90751 0.81492 0.0
C115 C 0.13211 0.90425 0.85423 0.0
C116 C 0.15568 0.92389 0.76714 0.0
C117 C 0.14667 -0.05779 0.72565 0.0
C118 C 0.59448 0.40949 0.69781 0.0
C119 C 0.61267 0.40556 0.65843 0.0
C120 C 0.59024 0.42646 0.74557 0.0
C121 C 0.5997 0.44494 0.78703 0.0
C122 C 0.6497 0.40933 0.31502 0.0
C123 C 0.6306 0.4056 0.35424 0.0
C124 C 0.65526 0.42595 0.26735 0.0
C125 C 0.64689 0.44414 0.22589 0.0
loop_
_geom_bond_atom_site_label_1
_geom_bond_atom_site_label_2
_geom_bond_distance
_geom_bond_site_symmetry_2
_ccdc_geom_bond_type
Zn0 O6 1.920 1_545 S
Zn0 O12 1.898 . S
Zn0 O15 1.905 1_545 S
Zn1 O9 1.905 . S
Zn1 O10 1.898 1_545 S
Zn1 O18 1.920 1_545 S
Zn2 O5 2.080 1_445 S
Zn2 O8 2.114 . S
Zn2 O11 2.120 1_545 S
Zn2 O13 2.120 1_455 S
Zn2 O14 2.114 1_554 S
Zn2 O17 2.080 . S
C3 O8 1.166 . S
C3 O9 1.182 . S
C4 O10 1.167 . S
C4 O11 1.299 . S
O5 Zn2 2.080 1_665 S
O5 C19 1.305 . S
O6 Zn0 1.920 1_565 S
O6 C19 1.234 1_556 S
C7 O12 1.167 . S
C7 O13 1.299 1_556 S
O8 Zn2 2.114 . S
O8 C3 1.166 . S
O9 Zn1 1.905 . S
O9 C3 1.182 . S
O10 Zn1 1.898 1_565 S
O10 C4 1.167 . S
O11 Zn2 2.120 1_565 S
O11 C4 1.299 . S
O12 Zn0 1.898 . S
O12 C7 1.167 . S
O13 Zn2 2.120 1_655 S
O13 C7 1.299 1_554 S
O14 Zn2 2.114 1_556 S
O14 C16 1.166 1_445 S
O15 Zn0 1.905 1_565 S
O15 C16 1.182 . S
C16 O14 1.166 1_665 S
C16 O15 1.182 . S
O17 Zn2 2.080 . S
O17 C20 1.305 1_545 S
O18 Zn1 1.920 1_565 S
O18 C20 1.234 . S
C19 O5 1.305 . S
C19 O6 1.234 1_554 S
C20 O17 1.305 1_565 S
C20 O18 1.234 . S
Zn21 O27 1.920 . S
Zn21 O33 1.898 . S
Zn21 O36 1.905 . S
Zn22 O30 1.905 . S
Zn22 O31 1.898 . S
Zn22 O39 1.920 . S
Zn23 O26 2.080 . S
Zn23 O29 2.114 . S
Zn23 O32 2.120 . S
Zn23 O34 2.120 . S
Zn23 O35 2.114 . S
Zn23 O38 2.080 . S
C24 O29 1.166 . S
C24 O30 1.182 . S
C25 O31 1.167 . S
C25 O32 1.299 . S
O26 Zn23 2.080 . S
O26 C40 1.305 . S
O27 Zn21 1.920 . S
O27 C40 1.234 . S
C28 O33 1.167 . S
C28 O34 1.299 . S
O29 Zn23 2.114 . S
O29 C24 1.166 . S
O30 Zn22 1.905 . S
O30 C24 1.182 . S
O31 Zn22 1.898 . S
O31 C25 1.167 . S
O32 Zn23 2.120 . S
O32 C25 1.299 . S
O33 Zn21 1.898 . S
O33 C28 1.167 . S
O34 Zn23 2.120 . S
O34 C28 1.299 . S
O35 Zn23 2.114 . S
O35 C37 1.166 . S
O36 Zn21 1.905 . S
O36 C37 1.182 . S
C37 O35 1.166 . S
C37 O36 1.182 . S
O38 Zn23 2.080 . S
O38 C41 1.305 . S
O39 Zn22 1.920 . S
O39 C41 1.234 . S
C40 O26 1.305 . S
C40 O27 1.234 . S
C41 O38 1.305 . S
C41 O39 1.234 . S
H42 C45 0.931 1_655 S
H43 C48 0.928 . S
H44 C50 0.930 . S
C45 H42 0.931 1_455 S
C45 C46 1.413 . S
C45 C47 1.360 . S
C46 C45 1.413 . S
C46 C50 1.429 . S
C47 C45 1.360 . S
C47 C48 1.372 1_545 S
C48 H43 0.928 . S
C48 C47 1.372 1_565 S
C48 C49 1.404 . S
C49 C48 1.404 . S
C49 C50 1.391 1_565 S
C50 H44 0.930 . S
C50 C46 1.429 . S
C50 C49 1.391 1_545 S
H51 C54 0.931 . S
H52 C57 0.928 . S
H53 C59 0.930 . S
C54 H51 0.931 . S
C54 C55 1.413 . S
C54 C56 1.360 1_665 S
C55 C54 1.413 . S
C55 C59 1.429 1_665 S
C56 C54 1.360 1_445 S
C56 C57 1.372 . S
C57 H52 0.928 . S
C57 C56 1.372 . S
C57 C58 1.404 . S
C58 C57 1.404 . S
C58 C59 1.391 . S
C59 H53 0.930 . S
C59 C55 1.429 1_445 S
C59 C58 1.391 . S
H60 C63 0.931 . S
H61 C66 0.928 . S
H62 C68 0.930 . S
C63 H60 0.931 . S
C63 C64 1.413 . S
C63 C65 1.360 . S
C64 C63 1.413 . S
C64 C68 1.429 . S
C65 C63 1.360 . S
C65 C66 1.372 . S
C66 H61 0.928 . S
C66 C65 1.372 . S
C66 C67 1.404 . S
C67 C66 1.404 . S
C67 C68 1.391 . S
C68 H62 0.930 . S
C68 C64 1.429 . S
C68 C67 1.391 . S
H69 C72 0.931 . S
H70 C75 0.928 . S
H71 C77 0.930 . S
C72 H69 0.931 . S
C72 C73 1.413 . S
C72 C74 1.360 . S
C73 C72 1.413 . S
C73 C77 1.429 . S
C74 C72 1.360 . S
C74 C75 1.372 . S
C75 H70 0.928 . S
C75 C74 1.372 . S
C75 C76 1.404 . S
C76 C75 1.404 . S
C76 C77 1.391 . S
C77 H71 0.930 . S
C77 C73 1.429 . S
C77 C76 1.391 . S
C78 C79 1.170 . S
C78 C80 1.380 . S
C79 C78 1.170 . S
C80 C78 1.380 . S
C80 C81 1.170 . S
C81 C80 1.170 . S
C82 C83 1.170 . S
C82 C84 1.380 . S
C83 C82 1.170 . S
C84 C82 1.380 . S
C84 C85 1.170 . S
C85 C84 1.170 . S
C86 C87 1.170 . S
C86 C88 1.380 . S
C87 C86 1.170 . S
C88 C86 1.380 . S
C88 C89 1.170 . S
C89 C88 1.170 . S
C90 C91 1.170 . S
C90 C92 1.380 . S
C91 C90 1.170 . S
C92 C90 1.380 . S
C92 C93 1.170 . S
C93 C92 1.170 . S
C94 C95 1.170 . S
C94 C96 1.380 . S
C95 C94 1.170 . S
C96 C94 1.380 . S
C96 C97 1.170 . S
C97 C96 1.170 . S
C98 C99 1.170 . S
C98 C100 1.380 . S
C99 C98 1.170 . S
C100 C98 1.380 . S
C100 C101 1.170 . S
C101 C100 1.170 . S
C102 C103 1.170 . S
C102 C104 1.380 . S
C103 C102 1.170 . S
C104 C102 1.380 . S
C104 C105 1.170 . S
C105 C104 1.170 . S
C106 C107 1.170 . S
C106 C108 1.380 . S
C107 C106 1.170 . S
C108 C106 1.380 . S
C108 C109 1.170 . S
C109 C108 1.170 . S
C110 C111 1.170 . S
C110 C112 1.380 1_565 S
C111 C110 1.170 . S
C112 C110 1.380 1_545 S
C112 C113 1.170 . S
C113 C112 1.170 . S
C114 C115 1.170 . S
C114 C116 1.380 1_565 S
C115 C114 1.170 . S
C116 C114 1.380 1_545 S
C116 C117 1.170 . S
C117 C116 1.170 . S
C118 C119 1.170 . S
C118 C120 1.380 . S
C119 C118 1.170 . S
C120 C118 1.380 . S
C120 C121 1.170 . S
C121 C120 1.170 . S
C122 C123 1.170 . S
C122 C124 1.380 . S
C123 C122 1.170 . S
C124 C122 1.380 . S
C124 C125 1.170 . S
C125 C124 1.170 . S
C81 C73 1.319 . S
C79 C3 1.134 . S
C83 C4 1.471 1_556 S
C85 C64 1.533 . S
C87 C19 1.495 . S
C89 C76 1.545 . S
C91 C7 1.186 . S
C93 C67 1.323 . S
C95 C37 1.196 . S
C97 C55 1.326 . S
C99 C28 1.474 . S
C101 C46 1.533 1_655 S
C105 C58 1.556 . S
C103 C41 1.454 . S
C109 C49 1.308 . S
C107 C25 1.113 . S
C111 C20 1.299 . S
C113 C47 1.499 . S
C115 C16 1.401 1_455 S
C117 C56 1.535 . S
C121 C65 1.498 . S
C119 C40 1.297 . S
C123 C24 1.352 . S
C125 C74 1.543 . S
