# Generated by pormake.
# Topology the, (3,8)-cn, num edge types: 1
# Building blocks:
#     Node 0, Type 0, BuildingBlock: ESEHIV_clean_linker_0, # of connection points: 3
#     Node 1, Type 0, BuildingBlock: ESEHIV_clean_linker_0, # of connection points: 3
#     Node 2, Type 0, BuildingBlock: ESEHIV_clean_linker_0, # of connection points: 3
#     Node 3, Type 0, BuildingBlock: ESEHIV_clean_linker_0, # of connection points: 3
#     Node 4, Type 0, BuildingBlock: ESEHIV_clean_linker_0, # of connection points: 3
#     Node 5, Type 0, BuildingBlock: ESEHIV_clean_linker_0, # of connection points: 3
#     Node 6, Type 0, BuildingBlock: ESEHIV_clean_linker_0, # of connection points: 3
#     Node 7, Type 0, BuildingBlock: ESEHIV_clean_linker_0, # of connection points: 3
#     Node 8, Type 1, BuildingBlock: GIZVER_clean_sbu_0, # of connection points: 8
#     Node 9, Type 1, BuildingBlock: GIZVER_clean_sbu_0, # of connection points: 8
#     Node 10, Type 1, BuildingBlock: GIZVER_clean_sbu_0, # of connection points: 8
#     Edge 11, Type (0, 1), None
#     Edge 12, Type (0, 1), None
#     Edge 13, Type (0, 1), None
#     Edge 14, Type (0, 1), None
#     Edge 15, Type (0, 1), None
#     Edge 16, Type (0, 1), None
#     Edge 17, Type (0, 1), None
#     Edge 18, Type (0, 1), None
#     Edge 19, Type (0, 1), None
#     Edge 20, Type (0, 1), None
#     Edge 21, Type (0, 1), None
#     Edge 22, Type (0, 1), None
#     Edge 23, Type (0, 1), None
#     Edge 24, Type (0, 1), None
#     Edge 25, Type (0, 1), None
#     Edge 26, Type (0, 1), None
#     Edge 27, Type (0, 1), None
#     Edge 28, Type (0, 1), None
#     Edge 29, Type (0, 1), None
#     Edge 30, Type (0, 1), None
#     Edge 31, Type (0, 1), None
#     Edge 32, Type (0, 1), None
#     Edge 33, Type (0, 1), None
#     Edge 34, Type (0, 1), None
# Relax obj value: 0.077
# Max RMSD: 0.143
# Mean RMSD: 0.112
data_MOF--net-the--node1-GIZVER_clean_sbu_0--node2-ESEHIV_clean_linker_0--edge1-none
_symmetry_space_group_name_H-M    P1
_symmetry_Int_Tables_number       1
_symmetry_cell_setting            triclinic
loop_
_symmetry_equiv_pos_as_xyz
'x, y, z'
_cell_length_a     16.793588
_cell_length_b     16.676521
_cell_length_c     15.896057
_cell_angle_alpha  85.119448
_cell_angle_beta   106.10487
_cell_angle_gamma 120.83582
loop_
_atom_site_label
_atom_site_type_symbol
_atom_site_fract_x
_atom_site_fract_y
_atom_site_fract_z
_atom_type_partial_charge
H0 H 0.25175 0.42594 0.29696 0.0
H1 H 0.4162 0.29439 0.30575 0.0
H2 H 0.2204 0.20259 0.46598 0.0
C3 C 0.27181 0.3749 0.32358 0.0
C4 C 0.2327 0.3188 0.38881 0.0
C5 C 0.33621 0.36476 0.29244 0.0
C6 C 0.36479 0.30114 0.32903 0.0
C7 C 0.32446 0.24343 0.39288 0.0
C8 C 0.25521 0.2497 0.42015 0.0
H9 H 0.78741 0.31582 0.43866 0.0
H10 H 0.79231 0.52808 0.26321 0.0
H11 H 0.5374 0.25411 0.22484 0.0
C12 C 0.75314 0.33545 0.37896 0.0
C13 C 0.65615 0.2733 0.33411 0.0
C14 C 0.80337 0.42678 0.35292 0.0
C15 C 0.75591 0.45587 0.27989 0.0
C16 C 0.65958 0.3935 0.23224 0.0
C17 C 0.61208 0.30187 0.25907 0.0
H18 H 0.66861 0.83145 0.23508 0.0
H19 H 0.85832 0.73434 0.23182 0.0
H20 H 0.9248 0.91786 0.44582 0.0
C21 C 0.73891 0.83815 0.26088 0.0
C22 C 0.79896 0.88901 0.34161 0.0
C23 C 0.76124 0.78374 0.2204 0.0
C24 C 0.84724 0.78475 0.25824 0.0
C25 C 0.90309 0.82773 0.34267 0.0
C26 C 0.88374 0.88685 0.38037 0.0
H27 H 0.30921 0.77552 0.42759 0.0
H28 H 0.51004 0.81641 0.28876 0.0
H29 H 0.24161 0.55596 0.24643 0.0
C30 C 0.32459 0.75143 0.37614 0.0
C31 C 0.26113 0.65972 0.33626 0.0
C32 C 0.41405 0.80792 0.35873 0.0
C33 C 0.43862 0.77427 0.29845 0.0
C34 C 0.37758 0.68321 0.25848 0.0
C35 C 0.28693 0.62739 0.27455 0.0
H36 H 0.39189 0.80183 0.61201 0.0
H37 H 0.387 0.58956 0.78746 0.0
H38 H 0.64191 0.86353 0.82581 0.0
C39 C 0.42616 0.7822 0.67171 0.0
C40 C 0.52316 0.84434 0.71655 0.0
C41 C 0.37593 0.69087 0.69775 0.0
C42 C 0.4234 0.66177 0.77078 0.0
C43 C 0.51974 0.72414 0.81842 0.0
C44 C 0.56723 0.81578 0.79159 0.0
H45 H 0.321 0.38331 0.81882 0.0
H46 H 0.51069 0.28615 0.81558 0.0
H47 H 0.25448 0.1998 0.60484 0.0
C48 C 0.33211 0.33291 0.79243 0.0
C49 C 0.27624 0.28993 0.708 0.0
C50 C 0.41809 0.33389 0.83027 0.0
C51 C 0.44039 0.27945 0.78978 0.0
C52 C 0.38033 0.22861 0.70905 0.0
C53 C 0.29557 0.23079 0.67029 0.0
H54 H 0.66925 0.30124 0.76186 0.0
H55 H 0.8701 0.34212 0.62307 0.0
H56 H 0.93768 0.56167 0.80423 0.0
C57 C 0.74067 0.34337 0.75218 0.0
C58 C 0.80171 0.43442 0.79215 0.0
C59 C 0.76526 0.30972 0.69191 0.0
C60 C 0.85472 0.36621 0.67451 0.0
C61 C 0.91818 0.45792 0.71439 0.0
C62 C 0.89237 0.49024 0.7761 0.0
H63 H 0.76307 0.82323 0.74488 0.0
H64 H 0.92758 0.69171 0.75372 0.0
H65 H 0.95891 0.91505 0.58468 0.0
C66 C 0.8145 0.81648 0.72161 0.0
C67 C 0.85483 0.87419 0.65776 0.0
C68 C 0.84309 0.75287 0.75821 0.0
C69 C 0.90751 0.74274 0.72708 0.0
C70 C 0.94661 0.79884 0.66186 0.0
C71 C 0.9241 0.86793 0.63051 0.0
Co72 Co 0.20822 0.44026 0.59018 0.0
Co73 Co 0.10367 0.41252 0.42792 0.0
Co74 Co 0.08965 0.55882 0.52534 0.0
O75 O 0.09187 0.43985 0.53355 0.0
H76 H 1.03585 0.38818 0.54787 0.0
O77 O 0.08744 0.67779 0.51712 0.0
Co78 Co 0.97109 0.67739 0.46049 0.0
Co79 Co 1.07565 0.70512 0.62275 0.0
H80 H 0.14346 0.72947 0.5028 0.0
O81 O 1.08305 0.29732 0.3942 0.0
O82 O 0.22076 0.41826 0.47525 0.0
O83 O 0.12983 0.50803 0.34371 0.0
O84 O 0.18064 0.61641 0.44845 0.0
O85 O 0.9746 0.49788 0.41902 0.0
O86 O 0.87135 0.68584 0.40619 0.0
O87 O 1.02743 0.80222 0.44103 0.0
O88 O 0.89557 0.54765 0.46667 0.0
O89 O 0.99867 0.50123 0.60222 0.0
O90 O 1.04949 0.60962 0.70696 0.0
O91 O 0.95857 0.6994 0.57543 0.0
O92 O 0.09629 0.82033 0.65648 0.0
C93 C 0.24251 0.34613 0.6503 0.0
C94 C 0.28284 0.62126 0.63772 0.0
C95 C 0.18142 0.5926 0.37443 0.0
C96 C 0.17573 0.33993 0.4277 0.0
C97 C 0.93681 0.77153 0.40038 0.0
C98 C 0.89647 0.49639 0.41295 0.0
C99 C 0.9979 0.52505 0.67624 0.0
C100 C 1.00361 0.77773 0.62298 0.0
O101 O 0.30797 0.43182 0.64449 0.0
O102 O 0.1519 0.31544 0.60964 0.0
O103 O 0.2047 0.61977 0.63165 0.0
O104 O 0.28374 0.57 0.584 0.0
Co105 Co 0.68202 0.94297 0.45986 0.0
Co106 Co 0.75052 1.01218 0.62104 0.0
Co107 Co 0.58965 0.05882 0.52532 0.0
O108 O 0.70227 1.05075 0.51686 0.0
H109 H 0.75235 0.10886 0.50234 0.0
O110 O 0.47703 0.06688 0.53379 0.0
Co111 Co 0.49727 0.17466 0.59079 0.0
Co112 Co 0.42878 0.10545 0.42961 0.0
H113 H 0.42694 1.00877 0.54831 0.0
O114 O 0.87203 1.02483 0.65381 0.0
O115 O 0.73272 0.90394 0.57422 0.0
O116 O 0.67466 0.97023 0.70492 0.0
O117 O 0.54427 0.95123 0.60368 0.0
O118 O 0.67776 0.15134 0.6292 0.0
O119 O 0.50807 0.26721 0.6473 0.0
O120 O 0.38059 0.12008 0.61518 0.0
O121 O 0.62238 0.2453 0.5775 0.0
O122 O 0.63503 0.16641 0.44697 0.0
O123 O 0.50463 0.1474 0.34573 0.0
O124 O 0.44656 0.21368 0.47642 0.0
O125 O 0.30726 0.09278 0.39683 0.0
C126 C 0.75548 0.91453 0.39555 0.0
C127 C 0.49269 0.88574 0.42173 0.0
C128 C 0.58359 0.93065 0.67631 0.0
C129 C 0.82201 0.93903 0.62054 0.0
C130 C 0.4238 0.20309 0.6551 0.0
C131 C 0.6866 0.2319 0.62892 0.0
C132 C 0.5957 0.18699 0.37434 0.0
C133 C 0.35727 0.17859 0.4301 0.0
O134 O 0.67121 0.85041 0.40334 0.0
O135 O 0.79869 0.99754 0.43547 0.0
O136 O 0.50153 0.9663 0.42145 0.0
O137 O 0.55691 0.87234 0.47315 0.0
Co138 Co 0.49708 0.60448 0.1688 0.0
Co139 Co 0.43661 0.43481 0.12175 0.0
Co140 Co 0.58966 0.55882 0.02533 0.0
O141 O 0.47751 0.54184 0.06297 0.0
H142 H 0.42576 0.53867 1.01488 0.0
O143 O 0.7018 0.5758 0.98768 0.0
Co144 Co 0.68222 0.51316 0.88185 0.0
Co145 Co 0.7427 0.68283 0.92891 0.0
H146 H 0.75355 0.57896 0.03577 0.0
O147 O 0.31712 0.37052 0.13994 0.0
O148 O 0.45563 0.48515 0.22967 0.0
O149 O 0.5109 0.3733 0.14226 0.0
O150 O 0.64146 0.50631 0.1342 0.0
O151 O 0.50427 0.4307 0.96424 0.0
O152 O 0.67087 0.4542 0.78936 0.0
O153 O 0.80252 0.52788 0.904 0.0
O154 O 0.55453 0.48378 0.84645 0.0
O155 O 0.53785 0.61134 0.91646 0.0
O156 O 0.66842 0.74434 0.9084 0.0
O157 O 0.72368 0.63249 0.82099 0.0
O158 O 0.86219 0.74711 0.91073 0.0
C159 C 0.4213 0.64304 0.21982 0.0
C160 C 0.68093 0.69989 0.16605 0.0
C161 C 0.60198 0.42475 0.16306 0.0
C162 C 0.36807 0.4136 0.21703 0.0
C163 C 0.75799 0.4746 0.83083 0.0
C164 C 0.49837 0.41775 0.88461 0.0
C165 C 0.57734 0.69289 0.88759 0.0
C166 C 0.81124 0.70405 0.83363 0.0
O167 O 0.50842 0.66344 0.26129 0.0
O168 O 0.37677 0.58975 0.14665 0.0
O169 O 0.67504 0.68694 0.08642 0.0
O170 O 0.62477 0.63386 0.20421 0.0
loop_
_geom_bond_atom_site_label_1
_geom_bond_atom_site_label_2
_geom_bond_distance
_geom_bond_site_symmetry_2
_ccdc_geom_bond_type
H0 C3 0.931 . S
H1 C6 0.928 . S
H2 C8 0.930 . S
C3 H0 0.931 . S
C3 C4 1.413 . S
C3 C5 1.360 . S
C4 C3 1.413 . S
C4 C8 1.429 . S
C5 C3 1.360 . S
C5 C6 1.372 . S
C6 H1 0.928 . S
C6 C5 1.372 . S
C6 C7 1.404 . S
C7 C6 1.404 . S
C7 C8 1.391 . S
C8 H2 0.930 . S
C8 C4 1.429 . S
C8 C7 1.391 . S
H9 C12 0.931 . S
H10 C15 0.928 . S
H11 C17 0.930 . S
C12 H9 0.931 . S
C12 C13 1.413 . S
C12 C14 1.360 . S
C13 C12 1.413 . S
C13 C17 1.429 . S
C14 C12 1.360 . S
C14 C15 1.372 . S
C15 H10 0.928 . S
C15 C14 1.372 . S
C15 C16 1.404 . S
C16 C15 1.404 . S
C16 C17 1.391 . S
C17 H11 0.930 . S
C17 C13 1.429 . S
C17 C16 1.391 . S
H18 C21 0.931 . S
H19 C24 0.928 . S
H20 C26 0.930 . S
C21 H18 0.931 . S
C21 C22 1.413 . S
C21 C23 1.360 . S
C22 C21 1.413 . S
C22 C26 1.429 . S
C23 C21 1.360 . S
C23 C24 1.372 . S
C24 H19 0.928 . S
C24 C23 1.372 . S
C24 C25 1.404 . S
C25 C24 1.404 . S
C25 C26 1.391 . S
C26 H20 0.930 . S
C26 C22 1.429 . S
C26 C25 1.391 . S
H27 C30 0.931 . S
H28 C33 0.928 . S
H29 C35 0.930 . S
C30 H27 0.931 . S
C30 C31 1.413 . S
C30 C32 1.360 . S
C31 C30 1.413 . S
C31 C35 1.429 . S
C32 C30 1.360 . S
C32 C33 1.372 . S
C33 H28 0.928 . S
C33 C32 1.372 . S
C33 C34 1.404 . S
C34 C33 1.404 . S
C34 C35 1.391 . S
C35 H29 0.930 . S
C35 C31 1.429 . S
C35 C34 1.391 . S
H36 C39 0.931 . S
H37 C42 0.928 . S
H38 C44 0.930 . S
C39 H36 0.931 . S
C39 C40 1.413 . S
C39 C41 1.360 . S
C40 C39 1.413 . S
C40 C44 1.429 . S
C41 C39 1.360 . S
C41 C42 1.372 . S
C42 H37 0.928 . S
C42 C41 1.372 . S
C42 C43 1.404 . S
C43 C42 1.404 . S
C43 C44 1.391 . S
C44 H38 0.930 . S
C44 C40 1.429 . S
C44 C43 1.391 . S
H45 C48 0.931 . S
H46 C51 0.928 . S
H47 C53 0.930 . S
C48 H45 0.931 . S
C48 C49 1.413 . S
C48 C50 1.360 . S
C49 C48 1.413 . S
C49 C53 1.429 . S
C50 C48 1.360 . S
C50 C51 1.372 . S
C51 H46 0.928 . S
C51 C50 1.372 . S
C51 C52 1.404 . S
C52 C51 1.404 . S
C52 C53 1.391 . S
C53 H47 0.930 . S
C53 C49 1.429 . S
C53 C52 1.391 . S
H54 C57 0.931 . S
H55 C60 0.928 . S
H56 C62 0.930 . S
C57 H54 0.931 . S
C57 C58 1.413 . S
C57 C59 1.360 . S
C58 C57 1.413 . S
C58 C62 1.429 . S
C59 C57 1.360 . S
C59 C60 1.372 . S
C60 H55 0.928 . S
C60 C59 1.372 . S
C60 C61 1.404 . S
C61 C60 1.404 . S
C61 C62 1.391 . S
C62 H56 0.930 . S
C62 C58 1.429 . S
C62 C61 1.391 . S
H63 C66 0.931 . S
H64 C69 0.928 . S
H65 C71 0.930 . S
C66 H63 0.931 . S
C66 C67 1.413 . S
C66 C68 1.360 . S
C67 C66 1.413 . S
C67 C71 1.429 . S
C68 C66 1.360 . S
C68 C69 1.372 . S
C69 H64 0.928 . S
C69 C68 1.372 . S
C69 C70 1.404 . S
C70 C69 1.404 . S
C70 C71 1.391 . S
C71 H65 0.930 . S
C71 C67 1.429 . S
C71 C70 1.391 . S
Co72 O75 2.042 . S
Co72 O82 2.264 . S
Co72 O101 2.286 . S
Co72 O102 2.069 . S
Co72 O104 2.015 . S
Co73 O75 2.122 . S
Co73 O81 2.073 . S
Co73 O82 2.327 . S
Co73 O83 1.976 . S
Co74 O75 2.087 . S
Co74 O77 2.087 1_455 S
Co74 O84 2.111 . S
Co74 O85 2.143 1_455 S
Co74 O89 2.111 1_455 S
Co74 O103 2.143 . S
O75 Co72 2.042 . S
O75 Co73 2.122 . S
O75 Co74 2.087 . S
O75 H76 0.980 . S
H76 O75 0.980 . S
O77 Co74 2.087 1_655 S
O77 Co78 2.042 . S
O77 Co79 2.122 . S
O77 H80 0.980 1_655 S
Co78 O77 2.042 . S
Co78 O86 2.286 . S
Co78 O87 2.069 . S
Co78 O88 2.015 . S
Co78 O91 2.264 . S
Co79 O77 2.122 . S
Co79 O90 1.976 . S
Co79 O91 2.327 . S
Co79 O92 2.073 . S
H80 O77 0.980 1_455 S
O81 Co73 2.073 . S
O81 C96 1.245 . S
O82 Co72 2.264 . S
O82 Co73 2.327 . S
O82 C96 1.257 . S
O83 Co73 1.976 . S
O83 C95 1.251 . S
O84 Co74 2.111 . S
O84 C95 1.274 . S
O85 Co74 2.143 1_655 S
O85 C98 1.246 . S
O86 Co78 2.286 . S
O86 C97 1.259 . S
O87 Co78 2.069 . S
O87 C97 1.289 . S
O88 Co78 2.015 . S
O88 C98 1.257 . S
O89 Co74 2.111 1_655 S
O89 C99 1.274 . S
O90 Co79 1.976 . S
O90 C99 1.251 . S
O91 Co78 2.264 . S
O91 Co79 2.327 . S
O91 C100 1.257 . S
O92 Co79 2.073 . S
O92 C100 1.245 . S
C93 O101 1.259 . S
C93 O102 1.289 . S
C94 O103 1.246 . S
C94 O104 1.257 . S
C95 O83 1.251 . S
C95 O84 1.274 . S
C96 O81 1.245 . S
C96 O82 1.257 . S
C97 O86 1.259 . S
C97 O87 1.289 . S
C98 O85 1.246 . S
C98 O88 1.257 . S
C99 O89 1.274 . S
C99 O90 1.251 . S
C100 O91 1.257 . S
C100 O92 1.245 . S
O101 Co72 2.286 . S
O101 C93 1.259 . S
O102 Co72 2.069 . S
O102 C93 1.289 . S
O103 Co74 2.143 . S
O103 C94 1.246 . S
O104 Co72 2.015 . S
O104 C94 1.257 . S
Co105 O108 2.042 . S
Co105 O115 2.264 . S
Co105 O134 2.286 . S
Co105 O135 2.069 . S
Co105 O137 2.015 . S
Co106 O108 2.122 . S
Co106 O114 2.073 . S
Co106 O115 2.327 . S
Co106 O116 1.976 . S
Co107 O108 2.087 1_545 S
Co107 O110 2.087 . S
Co107 O117 2.111 1_545 S
Co107 O118 2.143 . S
Co107 O122 2.111 . S
Co107 O136 2.143 1_545 S
O108 Co105 2.042 . S
O108 Co106 2.122 . S
O108 Co107 2.087 1_565 S
O108 H109 0.980 . S
H109 O108 0.980 . S
O110 Co107 2.087 . S
O110 Co111 2.042 . S
O110 Co112 2.122 . S
O110 H113 0.980 . S
Co111 O110 2.042 . S
Co111 O119 2.286 . S
Co111 O120 2.069 . S
Co111 O121 2.015 . S
Co111 O124 2.264 . S
Co112 O110 2.122 . S
Co112 O123 1.976 . S
Co112 O124 2.327 . S
Co112 O125 2.073 . S
H113 O110 0.980 . S
O114 Co106 2.073 . S
O114 C129 1.245 . S
O115 Co105 2.264 . S
O115 Co106 2.327 . S
O115 C129 1.257 . S
O116 Co106 1.976 . S
O116 C128 1.251 . S
O117 Co107 2.111 1_565 S
O117 C128 1.274 . S
O118 Co107 2.143 . S
O118 C131 1.246 . S
O119 Co111 2.286 . S
O119 C130 1.259 . S
O120 Co111 2.069 . S
O120 C130 1.289 . S
O121 Co111 2.015 . S
O121 C131 1.257 . S
O122 Co107 2.111 . S
O122 C132 1.274 . S
O123 Co112 1.976 . S
O123 C132 1.251 . S
O124 Co111 2.264 . S
O124 Co112 2.327 . S
O124 C133 1.257 . S
O125 Co112 2.073 . S
O125 C133 1.245 . S
C126 O134 1.259 . S
C126 O135 1.289 . S
C127 O136 1.246 . S
C127 O137 1.257 . S
C128 O116 1.251 . S
C128 O117 1.274 . S
C129 O114 1.245 . S
C129 O115 1.257 . S
C130 O119 1.259 . S
C130 O120 1.289 . S
C131 O118 1.246 . S
C131 O121 1.257 . S
C132 O122 1.274 . S
C132 O123 1.251 . S
C133 O124 1.257 . S
C133 O125 1.245 . S
O134 Co105 2.286 . S
O134 C126 1.259 . S
O135 Co105 2.069 . S
O135 C126 1.289 . S
O136 Co107 2.143 1_565 S
O136 C127 1.246 . S
O137 Co105 2.015 . S
O137 C127 1.257 . S
Co138 O141 2.042 . S
Co138 O148 2.264 . S
Co138 O167 2.286 . S
Co138 O168 2.069 . S
Co138 O170 2.015 . S
Co139 O141 2.122 . S
Co139 O147 2.073 . S
Co139 O148 2.327 . S
Co139 O149 1.976 . S
Co140 O141 2.087 . S
Co140 O143 2.087 1_554 S
Co140 O150 2.111 . S
Co140 O151 2.143 1_554 S
Co140 O155 2.111 1_554 S
Co140 O169 2.143 . S
O141 Co138 2.042 . S
O141 Co139 2.122 . S
O141 Co140 2.087 . S
O141 H142 0.980 . S
H142 O141 0.980 . S
O143 Co140 2.087 1_556 S
O143 Co144 2.042 . S
O143 Co145 2.122 . S
O143 H146 0.980 . S
Co144 O143 2.042 . S
Co144 O152 2.286 . S
Co144 O153 2.069 . S
Co144 O154 2.015 . S
Co144 O157 2.264 . S
Co145 O143 2.122 . S
Co145 O156 1.976 . S
Co145 O157 2.327 . S
Co145 O158 2.073 . S
H146 O143 0.980 . S
O147 Co139 2.073 . S
O147 C162 1.245 . S
O148 Co138 2.264 . S
O148 Co139 2.327 . S
O148 C162 1.257 . S
O149 Co139 1.976 . S
O149 C161 1.251 . S
O150 Co140 2.111 . S
O150 C161 1.274 . S
O151 Co140 2.143 1_556 S
O151 C164 1.246 . S
O152 Co144 2.286 . S
O152 C163 1.259 . S
O153 Co144 2.069 . S
O153 C163 1.289 . S
O154 Co144 2.015 . S
O154 C164 1.257 . S
O155 Co140 2.111 1_556 S
O155 C165 1.274 . S
O156 Co145 1.976 . S
O156 C165 1.251 . S
O157 Co144 2.264 . S
O157 Co145 2.327 . S
O157 C166 1.257 . S
O158 Co145 2.073 . S
O158 C166 1.245 . S
C159 O167 1.259 . S
C159 O168 1.289 . S
C160 O169 1.246 . S
C160 O170 1.257 . S
C161 O149 1.251 . S
C161 O150 1.274 . S
C162 O147 1.245 . S
C162 O148 1.257 . S
C163 O152 1.259 . S
C163 O153 1.289 . S
C164 O151 1.246 . S
C164 O154 1.257 . S
C165 O155 1.274 . S
C165 O156 1.251 . S
C166 O157 1.257 . S
C166 O158 1.245 . S
O167 Co138 2.286 . S
O167 C159 1.259 . S
O168 Co138 2.069 . S
O168 C159 1.289 . S
O169 Co140 2.143 . S
O169 C160 1.246 . S
O170 Co138 2.015 . S
O170 C160 1.257 . S
C96 C4 1.228 . S
C132 C13 1.805 . S
C97 C25 1.230 . S
C127 C32 1.473 . S
C94 C41 1.506 . S
C52 C130 1.680 . S
C61 C99 1.064 . S
C129 C67 1.343 . S
C133 C7 1.328 . S
C98 C14 1.506 . S
C126 C22 1.704 . S
C95 C31 1.054 . S
C128 C40 1.790 . S
C49 C93 1.241 . S
C59 C131 1.480 . S
C100 C70 1.219 . S
C162 C5 1.475 . S
C43 C165 2.225 . S
C164 C50 1.767 . S
C58 C163 2.088 . S
C166 C68 1.470 . S
C23 C160 1.772 . S
C159 C34 2.057 . S
C16 C161 2.243 . S
