# Generated by pormake.
# Topology tsx, (6,3)-cn, num edge types: 1
# Building blocks:
#     Node 0, Type 0, BuildingBlock: JUFBIX_clean_sbu_0, # of connection points: 6
#     Node 1, Type 0, BuildingBlock: JUFBIX_clean_sbu_0, # of connection points: 6
#     Node 2, Type 1, BuildingBlock: BETDAH_clean_linker_0, # of connection points: 3
#     Node 3, Type 1, BuildingBlock: BETDAH_clean_linker_0, # of connection points: 3
#     Node 4, Type 1, BuildingBlock: BETDAH_clean_linker_0, # of connection points: 3
#     Node 5, Type 1, BuildingBlock: BETDAH_clean_linker_0, # of connection points: 3
#     Edge 6, Type (0, 1), None
#     Edge 7, Type (0, 1), None
#     Edge 8, Type (0, 1), None
#     Edge 9, Type (0, 1), None
#     Edge 10, Type (0, 1), None
#     Edge 11, Type (0, 1), None
#     Edge 12, Type (0, 1), None
#     Edge 13, Type (0, 1), None
#     Edge 14, Type (0, 1), None
#     Edge 15, Type (0, 1), None
#     Edge 16, Type (0, 1), None
#     Edge 17, Type (0, 1), None
# Relax obj value: 0.101
# Max RMSD: 0.145
# Mean RMSD: 0.121
data_MOF--net-tsx--node1-JUFBIX_clean_sbu_0--node2-BETDAH_clean_linker_0--edge1-none
_symmetry_space_group_name_H-M    P1
_symmetry_Int_Tables_number       1
_symmetry_cell_setting            triclinic
loop_
_symmetry_equiv_pos_as_xyz
'x, y, z'
_cell_length_a     10.16313
_cell_length_b     10.725543
_cell_length_c     15.247078
_cell_angle_alpha  88.217711
_cell_angle_beta   105.48044
_cell_angle_gamma 111.24327
loop_
_atom_site_label
_atom_site_type_symbol
_atom_site_fract_x
_atom_site_fract_y
_atom_site_fract_z
_atom_type_partial_charge
Co0 Co 0.18882 0.05463 -0.0148 0.0
C1 C 0.0169 1.05243 0.80392 0.0
Co2 Co 0.0179 0.14082 -0.03042 0.0
C3 C 0.35953 0.87597 -0.02582 0.0
C4 C 0.41837 0.06423 0.91517 0.0
N5 N 0.33768 0.99449 -0.02904 0.0
N6 N 0.44847 0.87284 0.92204 0.0
C7 C 0.4859 0.9912 0.88618 0.0
H8 H 0.3058 0.79183 0.00949 0.0
H9 H 0.41813 0.15874 0.88876 0.0
C10 C 0.17254 0.12588 0.14909 0.0
N11 N 0.8744 0.21053 -0.03936 0.0
C12 C 0.8276 0.27913 0.89063 0.0
C13 C 0.80457 0.21718 0.02266 0.0
N14 N 0.73088 0.32785 0.90631 0.0
C15 C 0.71888 0.29139 -0.00965 0.0
C16 C 0.93485 0.87023 0.0068 0.0
O17 O 0.24313 0.07127 0.11513 0.0
O18 O 0.08437 0.17321 0.09638 0.0
O19 O 0.89108 0.96777 -0.0111 0.0
O20 O 0.05636 0.87742 -0.0066 0.0
O21 O 0.94733 0.10185 0.84026 0.0
H22 H 0.81716 0.17338 0.08768 0.0
H23 H 0.86938 0.29933 0.8313 0.0
O24 O 0.1276 1.0337 0.85421 0.0
O25 O 0.32159 0.23747 -0.00995 0.0
O26 O 0.14724 0.31753 -0.03811 0.0
C27 C 0.28292 0.33772 -0.01167 0.0
H28 H 0.55625 1.02208 0.84094 0.0
H29 H 0.65202 0.31439 0.02651 0.0
Co30 Co 0.55528 0.47503 0.46228 0.0
C31 C 0.4652 0.56421 0.29247 0.0
Co32 Co 0.394 0.57479 0.45499 0.0
C33 C 0.67325 0.29742 0.3925 0.0
C34 C 0.8153 0.39703 0.52105 0.0
N35 N 0.68729 0.38596 0.4599 0.0
N36 N 0.78713 0.25445 0.40896 0.0
C37 C 0.87609 0.31603 0.49023 0.0
H38 H 0.58018 0.26425 0.33248 0.0
H39 H 0.86171 0.45992 0.58414 0.0
C40 C 0.48392 0.47993 0.62181 0.0
N41 N 0.26226 0.66267 0.44405 0.0
C42 C 0.25224 0.7594 0.38607 0.0
C43 C 0.15217 0.64064 0.48271 0.0
N44 N 0.13803 0.79652 0.38464 0.0
C45 C 0.07603 0.72249 0.44669 0.0
C46 C 0.27007 0.30235 0.42938 0.0
O47 O 0.55542 0.43687 0.58142 0.0
O48 O 0.40929 0.54853 0.58025 0.0
O49 O 0.23861 0.4067 0.4283 0.0
O50 O 0.39648 0.31131 0.42541 0.0
O51 O 0.38051 0.59611 0.32698 0.0
H52 H 0.12838 0.56923 0.53327 0.0
H53 H 0.32712 0.80058 0.34472 0.0
O54 O 0.55278 0.5144 0.34152 0.0
O55 O 0.71261 0.64412 0.50866 0.0
O56 O 0.55194 0.74263 0.49168 0.0
C57 C 0.68229 0.74614 0.52365 0.0
H58 H 0.97723 0.30273 0.52538 0.0
H59 H 0.98312 0.72749 0.46606 0.0
H60 H 0.27948 0.97093 0.27342 0.0
H61 H 1.00298 0.20397 0.2302 0.0
H62 H 0.87971 0.82776 0.34904 0.0
C63 C 0.18527 0.98718 0.28321 0.0
C64 C 0.09554 0.8982 0.33206 0.0
C65 C 0.14337 0.08912 0.23806 0.0
C66 C 0.02971 0.11937 0.25833 0.0
C67 C 0.93409 1.02768 0.30105 0.0
C68 C 0.96044 0.90952 0.32753 0.0
N69 N 0.80446 1.04572 0.30878 0.0
C70 C 0.80224 0.15459 0.35713 0.0
H71 H 0.76874 0.85059 0.70541 0.0
H72 H 0.17937 0.14807 0.68524 0.0
H73 H 0.84959 0.92792 0.44854 0.0
C74 C 0.83829 0.90827 0.66412 0.0
C75 C 0.80083 0.87187 0.57011 0.0
C76 C 0.97125 1.01606 0.70505 0.0
C77 C 0.06997 0.07721 0.65281 0.0
C78 C 0.02858 1.04245 0.559 0.0
C79 C 0.88932 0.94905 0.51931 0.0
N80 N 0.13483 0.06904 0.50994 0.0
C81 C 0.19006 0.18786 0.47024 0.0
H82 H 0.57362 0.29721 0.72662 0.0
H83 H 0.45699 0.64543 0.7418 0.0
H84 H 0.78252 0.57012 -0.04233 0.0
C85 C 0.58387 0.38641 0.76363 0.0
C86 C 0.67309 0.41934 0.85315 0.0
C87 C 0.51655 0.47544 0.72053 0.0
C88 C 0.51617 0.58165 0.77223 0.0
C89 C 0.61005 0.61608 0.86004 0.0
C90 C 0.70233 0.54398 0.89312 0.0
N91 N 0.61644 0.72003 0.91834 0.0
C92 C 0.51568 0.78114 0.91507 0.0
H93 H 0.24904 0.43926 0.13858 0.0
H94 H 0.69131 0.71964 0.23699 0.0
H95 H 0.55963 0.46599 -0.00253 0.0
C96 C 0.35443 0.49524 0.12648 0.0
C97 C 0.38682 0.45985 0.04854 0.0
C98 C 0.46755 0.58334 0.19704 0.0
C99 C 0.60546 0.65283 0.18293 0.0
C100 C 0.64152 0.61837 0.10786 0.0
C101 C 0.5327 0.51423 0.04533 0.0
N102 N 0.79301 0.66243 0.10976 0.0
C103 C 0.86199 0.7662 0.06017 0.0
loop_
_geom_bond_atom_site_label_1
_geom_bond_atom_site_label_2
_geom_bond_distance
_geom_bond_site_symmetry_2
_ccdc_geom_bond_type
Co0 N5 2.057 1_554 S
Co0 O17 2.021 . S
Co0 O20 2.062 1_455 S
Co0 O24 2.117 1_554 S
Co0 O25 2.020 1_565 S
C1 O21 1.259 . S
C1 O24 1.258 1_645 S
Co2 N11 2.057 1_556 S
Co2 O18 2.117 1_556 S
Co2 O19 2.020 1_545 S
Co2 O21 2.021 . S
Co2 O26 2.062 1_656 S
C3 N5 1.316 1_554 S
C3 N6 1.347 . S
C3 H8 0.931 . S
C4 N5 1.375 . S
C4 C7 1.350 . S
C4 H9 0.930 . S
N5 Co0 2.057 1_556 S
N5 C3 1.316 1_556 S
N5 C4 1.375 . S
N6 C3 1.347 . S
N6 C7 1.373 1_554 S
C7 C4 1.350 . S
C7 N6 1.373 1_556 S
C7 H28 0.931 . S
H8 C3 0.931 . S
H9 C4 0.930 . S
C10 O17 1.259 1_545 S
C10 O18 1.256 1_455 S
N11 Co2 2.057 1_554 S
N11 C12 1.316 1_554 S
N11 C13 1.375 . S
C12 N11 1.316 1_556 S
C12 N14 1.347 . S
C12 H23 0.931 . S
C13 N11 1.375 . S
C13 C15 1.350 . S
C13 H22 0.930 . S
N14 C12 1.347 . S
N14 C15 1.373 1_556 S
C15 C13 1.350 . S
C15 N14 1.373 1_554 S
C15 H29 0.931 . S
C16 O19 1.256 . S
C16 O20 1.255 1_556 S
O17 Co0 2.021 . S
O17 C10 1.259 1_565 S
O18 Co2 2.117 1_554 S
O18 C10 1.256 1_655 S
O19 Co2 2.020 1_565 S
O19 C16 1.256 . S
O20 Co0 2.062 1_655 S
O20 C16 1.255 1_554 S
O21 C1 1.259 . S
O21 Co2 2.021 . S
H22 C13 0.930 . S
H23 C12 0.931 . S
O24 Co0 2.117 1_556 S
O24 C1 1.258 1_465 S
O25 Co0 2.020 1_545 S
O25 C27 1.256 . S
O26 Co2 2.062 1_454 S
O26 C27 1.255 . S
C27 O25 1.256 . S
C27 O26 1.255 . S
H28 C7 0.931 . S
H29 C15 0.931 . S
Co30 N35 2.057 . S
Co30 O47 2.021 . S
Co30 O50 2.062 . S
Co30 O54 2.117 . S
Co30 O55 2.020 . S
C31 O51 1.259 . S
C31 O54 1.258 . S
Co32 N41 2.057 . S
Co32 O48 2.117 . S
Co32 O49 2.020 . S
Co32 O51 2.021 . S
Co32 O56 2.062 . S
C33 N35 1.316 . S
C33 N36 1.347 . S
C33 H38 0.931 . S
C34 N35 1.375 . S
C34 C37 1.350 . S
C34 H39 0.930 . S
N35 Co30 2.057 . S
N35 C33 1.316 . S
N35 C34 1.375 . S
N36 C33 1.347 . S
N36 C37 1.373 . S
C37 C34 1.350 . S
C37 N36 1.373 . S
C37 H58 0.931 . S
H38 C33 0.931 . S
H39 C34 0.930 . S
C40 O47 1.259 . S
C40 O48 1.258 . S
N41 Co32 2.057 . S
N41 C42 1.316 . S
N41 C43 1.375 . S
C42 N41 1.316 . S
C42 N44 1.347 . S
C42 H53 0.931 . S
C43 N41 1.375 . S
C43 C45 1.350 . S
C43 H52 0.930 . S
N44 C42 1.347 . S
N44 C45 1.373 . S
C45 C43 1.350 . S
C45 N44 1.373 . S
C45 H59 0.931 . S
C46 O49 1.256 . S
C46 O50 1.255 . S
O47 Co30 2.021 . S
O47 C40 1.259 . S
O48 Co32 2.117 . S
O48 C40 1.258 . S
O49 Co32 2.020 . S
O49 C46 1.256 . S
O50 Co30 2.062 . S
O50 C46 1.255 . S
O51 C31 1.259 . S
O51 Co32 2.021 . S
H52 C43 0.930 . S
H53 C42 0.931 . S
O54 Co30 2.117 . S
O54 C31 1.258 . S
O55 Co30 2.020 . S
O55 C57 1.256 . S
O56 Co32 2.062 . S
O56 C57 1.255 . S
C57 O55 1.256 . S
C57 O56 1.255 . S
H58 C37 0.931 . S
H59 C45 0.931 . S
H60 C63 0.929 . S
H61 C66 0.929 . S
H62 C68 0.930 . S
C63 H60 0.929 . S
C63 C64 1.398 . S
C63 C65 1.396 . S
C64 C63 1.398 . S
C64 C68 1.407 . S
C65 C63 1.396 . S
C65 C66 1.394 1_465 S
C66 H61 0.929 . S
C66 C65 1.394 1_645 S
C66 C67 1.382 1_655 S
C67 C66 1.382 1_455 S
C67 C68 1.392 1_545 S
C67 N69 1.420 1_455 S
C68 H62 0.930 . S
C68 C64 1.407 . S
C68 C67 1.392 1_565 S
N69 C67 1.420 1_655 S
N69 C70 1.244 . S
C70 N69 1.244 . S
H71 C74 0.929 . S
H72 C77 0.929 . S
H73 C79 0.930 . S
C74 H71 0.929 . S
C74 C75 1.398 . S
C74 C76 1.396 . S
C75 C74 1.398 . S
C75 C79 1.407 . S
C76 C74 1.396 . S
C76 C77 1.394 1_665 S
C77 H72 0.929 . S
C77 C76 1.394 1_445 S
C77 C78 1.382 . S
C78 C77 1.382 . S
C78 C79 1.392 1_445 S
C78 N80 1.420 . S
C79 H73 0.930 . S
C79 C75 1.407 . S
C79 C78 1.392 1_665 S
N80 C78 1.420 . S
N80 C81 1.244 . S
C81 N80 1.244 . S
H82 C85 0.929 . S
H83 C88 0.929 . S
H84 C90 0.930 . S
C85 H82 0.929 . S
C85 C86 1.398 . S
C85 C87 1.396 . S
C86 C85 1.398 . S
C86 C90 1.407 1_556 S
C87 C85 1.396 . S
C87 C88 1.394 . S
C88 H83 0.929 . S
C88 C87 1.394 . S
C88 C89 1.382 . S
C89 C88 1.382 . S
C89 C90 1.392 1_556 S
C89 N91 1.420 1_556 S
C90 H84 0.930 . S
C90 C86 1.407 1_554 S
C90 C89 1.392 1_554 S
N91 C89 1.420 1_554 S
N91 C92 1.244 . S
C92 N91 1.244 . S
H93 C96 0.929 . S
H94 C99 0.929 . S
H95 C101 0.930 . S
C96 H93 0.929 . S
C96 C97 1.398 . S
C96 C98 1.396 . S
C97 C96 1.398 . S
C97 C101 1.407 1_554 S
C98 C96 1.396 . S
C98 C99 1.394 . S
C99 H94 0.929 . S
C99 C98 1.394 . S
C99 C100 1.382 . S
C100 C99 1.382 . S
C100 C101 1.392 1_554 S
C100 N102 1.420 1_554 S
C101 H95 0.930 . S
C101 C97 1.407 1_556 S
C101 C100 1.392 1_556 S
N102 C100 1.420 1_556 S
N102 C103 1.244 1_556 S
C103 N102 1.244 1_554 S
C97 C27 1.499 . S
N6 C92 1.340 . S
C16 C103 1.473 1_556 S
N14 C86 1.471 . S
C57 C75 1.499 . S
N36 C70 1.339 . S
C81 C46 1.473 . S
C64 N44 1.471 . S
C10 C65 1.478 1_545 S
C1 C76 1.647 1_545 S
C87 C40 1.478 . S
C31 C98 1.646 . S
