# Generated by pormake.
# Topology pts, (4,4)-cn, num edge types: 1
# Building blocks:
#     Node 0, Type 0, BuildingBlock: NAWXER_clean_linker_0, # of connection points: 4
#     Node 1, Type 0, BuildingBlock: NAWXER_clean_linker_0, # of connection points: 4
#     Node 2, Type 1, BuildingBlock: AZAVOO_clean_sbu_0, # of connection points: 4
#     Node 3, Type 1, BuildingBlock: AZAVOO_clean_sbu_0, # of connection points: 4
#     Edge 4, Type (0, 1), BuildingBlock: EZIPEK_clean_linker_0, # of connection points: 2
#     Edge 5, Type (0, 1), BuildingBlock: EZIPEK_clean_linker_0, # of connection points: 2
#     Edge 6, Type (0, 1), BuildingBlock: EZIPEK_clean_linker_0, # of connection points: 2
#     Edge 7, Type (0, 1), BuildingBlock: EZIPEK_clean_linker_0, # of connection points: 2
#     Edge 8, Type (0, 1), BuildingBlock: EZIPEK_clean_linker_0, # of connection points: 2
#     Edge 9, Type (0, 1), BuildingBlock: EZIPEK_clean_linker_0, # of connection points: 2
#     Edge 10, Type (0, 1), BuildingBlock: EZIPEK_clean_linker_0, # of connection points: 2
#     Edge 11, Type (0, 1), BuildingBlock: EZIPEK_clean_linker_0, # of connection points: 2
# Relax obj value: 0.000
# Max RMSD: 0.033
# Mean RMSD: 0.019
data_MOF--net-pts--node1-AZAVOO_clean_sbu_0--node2-NAWXER_clean_linker_0--edge1-EZIPEK_clean_linker_0
_symmetry_space_group_name_H-M    P1
_symmetry_Int_Tables_number       1
_symmetry_cell_setting            triclinic
loop_
_symmetry_equiv_pos_as_xyz
'x, y, z'
_cell_length_a     22.911902
_cell_length_b     23.753731
_cell_length_c     32.67316
_cell_angle_alpha  90.112674
_cell_angle_beta   97.023022
_cell_angle_gamma 90.190326
loop_
_atom_site_label
_atom_site_type_symbol
_atom_site_fract_x
_atom_site_fract_y
_atom_site_fract_z
_atom_type_partial_charge
C0 C 0.71651 0.05859 0.95544 0.0
C1 C 0.71974 0.01981 0.92338 0.0
C2 C 0.67023 0.0555 0.97962 0.0
C3 C 0.62685 0.01341 0.9721 0.0
C4 C 0.67698 0.97745 0.91617 0.0
C5 C 0.6307 0.97448 0.94017 0.0
C6 C 0.57478 0.0124 0.99483 0.0
C7 C 0.72608 0.96885 0.09045 0.0
C8 C 0.73479 0.00547 0.12439 0.0
C9 C 0.67586 0.97364 0.06172 0.0
C10 C 0.63393 0.01568 0.0662 0.0
C11 C 0.6933 0.04763 0.12885 0.0
C12 C 0.64313 0.05251 0.10009 0.0
C13 C 0.57801 0.01806 0.03807 0.0
C14 C 0.3307 0.97842 0.07427 0.0
C15 C 0.33004 0.01761 0.10643 0.0
C16 C 0.37613 0.97933 0.0493 0.0
C17 C 0.42085 0.02028 0.05557 0.0
C18 C 0.37395 0.05909 0.11225 0.0
C19 C 0.419 0.06034 0.08708 0.0
C20 C 0.47291 0.01848 0.03274 0.0
C21 C 0.31853 0.04221 0.93318 0.0
C22 C 0.31254 -0.00131 0.90382 0.0
C23 C 0.36911 0.04586 0.96185 0.0
C24 C 0.4141 0.00578 0.9616 0.0
C25 C 0.35718 0.95853 0.90372 0.0
C26 C 0.40768 0.96225 0.93221 0.0
C27 C 0.4698 0.0106 0.98962 0.0
H28 H 0.74904 0.09179 0.96111 0.0
H29 H 0.66744 0.08693 1.00336 0.0
H30 H 0.67883 0.94739 0.89137 0.0
H31 H 0.59754 0.94201 0.93356 0.0
H32 H 0.75749 0.93578 0.08678 0.0
H33 H 0.66903 0.94339 0.03675 0.0
H34 H 0.69929 0.07605 0.15501 0.0
H35 H 0.61115 0.08476 0.10452 0.0
H36 H 0.29742 0.94575 0.06967 0.0
H37 H 0.37741 0.94673 0.02623 0.0
H38 H 0.3743 0.08942 0.13709 0.0
H39 H 0.45324 0.09196 0.09281 0.0
H40 H 0.28455 0.07377 0.93341 0.0
H41 H 0.37363 0.0806 0.98353 0.0
H42 H 0.35329 0.92487 0.88111 0.0
H43 H 0.44199 0.93116 0.9312 0.0
N44 N 0.52088 0.00815 0.97248 0.0
N45 N 0.52694 0.02165 0.05517 0.0
C46 C 0.05086 0.68788 0.58897 0.0
C47 C 0.00666 0.69084 0.61503 0.0
C48 C 0.05354 0.64167 0.56272 0.0
C49 C 0.01151 0.59826 0.56188 0.0
C50 C 0.96526 0.64725 0.6147 0.0
C51 C 0.96784 0.60117 0.58845 0.0
C52 C 0.0152 0.54755 0.53603 0.0
C53 C 0.98226 0.68922 0.44414 0.0
C54 C 0.02793 0.69695 0.41975 0.0
C55 C 0.98147 0.64156 0.46913 0.0
C56 C 0.02654 0.60138 0.47005 0.0
C57 C 0.07264 0.65677 0.42043 0.0
C58 C 0.07171 0.60911 0.44518 0.0
C59 C 0.0249 0.54907 0.49421 0.0
C60 C -0.00471 0.30723 0.44034 0.0
C61 C 0.0391 0.30528 0.4139 0.0
C62 C 0.99139 0.35353 0.46628 0.0
C63 C 0.03203 0.39805 0.46668 0.0
C64 C 0.0787 0.35028 0.41338 0.0
C65 C 0.07518 0.39631 0.43959 0.0
C66 C 0.02741 0.44865 0.49258 0.0
C67 C 0.05713 0.30566 0.58342 0.0
C68 C 0.01162 0.29851 0.60803 0.0
C69 C 0.05903 0.35371 0.559 0.0
C70 C 0.01499 0.39482 0.55859 0.0
C71 C 0.96823 0.33988 0.60825 0.0
C72 C 0.97007 0.38783 0.58383 0.0
C73 C 0.01731 0.44711 0.53441 0.0
H74 H 0.08313 0.72132 0.58898 0.0
H75 H 0.08887 0.63954 0.5436 0.0
H76 H 0.93081 0.64913 0.63461 0.0
H77 H 0.93548 0.56785 0.58873 0.0
H78 H 0.94751 0.72007 0.44386 0.0
H79 H 0.94533 0.63571 0.4872 0.0
H80 H 0.10822 0.6624 0.40181 0.0
H81 H 0.10648 0.57832 0.44508 0.0
H82 H 0.96405 0.27296 0.44077 0.0
H83 H 0.95619 0.35477 0.48555 0.0
H84 H 0.11253 0.34946 0.39295 0.0
H85 H 0.10638 0.43056 0.43883 0.0
H86 H 0.09101 0.27401 0.5831 0.0
H87 H 0.09515 0.35898 0.54082 0.0
H88 H 0.93287 0.33482 0.62714 0.0
H89 H 0.93612 0.41937 0.58441 0.0
N90 N 0.0114 0.49662 0.55431 0.0
N91 N 0.031 0.49962 0.47431 0.0
Mg92 Mg 0.07466 0.98276 0.28335 0.0
O93 O 0.98327 0.98221 0.2457 0.0
O94 O 0.91683 0.98143 0.29058 0.0
Mg95 Mg 0.96501 0.97475 0.35613 0.0
C96 C 0.93013 0.98306 0.25377 0.0
C97 C 0.17384 0.00516 0.23247 0.0
O98 O 0.20011 -0.00365 0.26995 0.0
O99 O 0.06256 0.07443 0.3018 0.0
O100 O 0.00186 0.0638 0.35032 0.0
O101 O 0.07832 0.88858 0.28511 0.0
O102 O 0.04279 0.9416 0.33186 0.0
C103 C 0.03432 0.09416 0.33003 0.0
C104 C 0.05442 0.89232 0.31892 0.0
O105 O 0.11801 0.0053 0.2264 0.0
Mg106 Mg 0.97178 0.98336 0.74606 0.0
O107 O 0.06377 -0.01614 0.78261 0.0
O108 O 0.12905 0.97213 0.73772 0.0
Mg109 Mg 0.07887 0.96199 0.67292 0.0
C110 C 0.1166 0.97961 0.77438 0.0
C111 C 0.8769 0.00679 0.80002 0.0
O112 O 0.84865 -0.01392 0.76588 0.0
O113 O 0.9867 0.07184 0.72222 0.0
O114 O 0.04658 0.05335 0.67435 0.0
O115 O 0.96506 0.88941 0.74985 0.0
O116 O -0.00016 0.93541 0.6992 0.0
C117 C 0.01578 0.08726 0.69316 0.0
C118 C 0.98752 0.88835 0.71538 0.0
O119 O 0.93208 0.01463 0.80239 0.0
C120 C 0.29118 0.9675 0.16506 0.0
C121 C 0.28645 0.01253 0.13639 0.0
C122 C 0.20676 0.0536 0.17045 0.0
C123 C 0.20923 0.00662 0.1974 0.0
N124 N 0.24245 0.91175 0.21267 0.0
N125 N 0.23268 0.09241 0.10636 0.0
C126 C 0.24808 0.96142 0.1924 0.0
C127 C 0.24194 0.05378 0.1374 0.0
N128 N 0.33823 0.93186 0.16749 0.0
N129 N 0.17302 0.09911 0.17753 0.0
H130 H 0.25765 0.09357 0.08172 0.0
H131 H 0.19716 0.11996 0.1031 0.0
H132 H 0.1469 0.10068 0.2015 0.0
H133 H 0.17444 0.13703 0.16173 0.0
H134 H 0.34717 0.90234 0.19095 0.0
H135 H 0.37144 0.93507 0.14846 0.0
H136 H 0.26573 0.87555 0.20696 0.0
H137 H 0.20994 0.90478 0.23184 0.0
C138 C 0.96996 0.2025 0.6172 0.0
C139 C 0.00839 0.2466 0.6327 0.0
C140 C 0.04678 0.18845 0.69182 0.0
C141 C 0.00803 0.14469 0.67637 0.0
N142 N 0.92391 0.11338 0.63041 0.0
N143 N 0.07533 0.28669 0.6878 0.0
C144 C 0.96666 0.15293 0.64098 0.0
C145 C 0.04437 0.24116 0.67106 0.0
N146 N 0.93865 0.20701 0.57892 0.0
N147 N 0.08684 0.17887 0.72562 0.0
H148 H 0.07485 0.32569 0.67313 0.0
H149 H 0.09805 0.28728 0.71739 0.0
H150 H 0.08703 0.14188 0.74279 0.0
H151 H 0.12119 0.20624 0.73569 0.0
H152 H 0.91523 0.17382 0.56383 0.0
H153 H 0.93939 0.24291 0.56065 0.0
H154 H 0.88877 0.11932 0.60747 0.0
H155 H 0.92051 0.07638 0.64714 0.0
C156 C 0.83407 0.03659 0.15819 0.0
C157 C 0.78622 -0.0017 0.15634 0.0
C158 C 0.83707 0.94549 0.21445 0.0
C159 C 0.8818 -0.01266 0.21926 0.0
N160 N 0.91808 0.0779 0.19987 0.0
N161 N 0.73748 0.92108 0.18618 0.0
C162 C 0.87925 0.03421 0.19211 0.0
C163 C 0.78644 0.95396 0.1854 0.0
N164 N 0.83692 0.07452 0.12707 0.0
N165 N 0.84391 0.8967 0.23662 0.0
H166 H 0.69956 0.9257 0.1653 0.0
H167 H 0.73257 0.89237 0.20957 0.0
H168 H 0.88068 0.88858 0.25785 0.0
H169 H 0.81592 0.86213 0.23125 0.0
H170 H 0.87377 0.09938 0.12437 0.0
H171 H 0.8044 0.07769 0.10188 0.0
H172 H 0.91419 0.11586 0.1839 0.0
H173 H 0.95129 0.07847 0.22471 0.0
C174 C 0.95877 0.78201 0.62906 0.0
C175 C 0.00192 0.74086 0.64153 0.0
C176 C 0.037 0.79677 0.70291 0.0
C177 C 0.9912 0.83577 0.69179 0.0
N178 N 0.90171 0.86084 0.649 0.0
N179 N 0.07664 0.70384 0.69269 0.0
C180 C 0.95008 0.82701 0.6562 0.0
C181 C 0.03956 0.7467 0.6792 0.0
N182 N 0.92744 0.77909 0.59068 0.0
N183 N 0.07904 0.80858 0.73519 0.0
H184 H 0.08012 0.66692 0.67582 0.0
H185 H 0.10075 0.70294 0.72183 0.0
H186 H 0.07774 0.84455 0.75341 0.0
H187 H 0.11718 0.78503 0.74217 0.0
H188 H 0.90021 0.81122 0.57804 0.0
H189 H 0.93233 0.74658 0.56987 0.0
H190 H 0.86689 0.85278 0.62612 0.0
H191 H 0.8936 0.89427 0.66825 0.0
C192 C 0.25883 0.03031 0.83626 0.0
C193 C 0.2606 -0.00398 0.87187 0.0
C194 C 0.16945 0.94878 0.84282 0.0
C195 C 0.16551 -0.01428 0.80842 0.0
N196 N 0.19971 0.06936 0.77664 0.0
N197 N 0.21333 0.92964 0.91281 0.0
C198 C 0.20837 0.02866 0.80629 0.0
C199 C 0.21451 0.95738 0.8763 0.0
N200 N 0.30616 0.06327 0.83044 0.0
N201 N 0.13195 0.90386 0.84268 0.0
H202 H 0.246 0.9345 0.93779 0.0
H203 H 0.1777 0.90559 0.91963 0.0
H204 H 0.09869 0.89567 0.81868 0.0
H205 H 0.13682 0.87196 0.86462 0.0
H206 H 0.31036 0.08397 0.80288 0.0
H207 H 0.34354 0.06653 0.85201 0.0
H208 H 0.22599 0.10517 0.77636 0.0
H209 H 0.16302 0.07024 0.7544 0.0
C210 C 0.0893 0.21568 0.39757 0.0
C211 C 0.04374 0.25537 0.38719 0.0
C212 C -0.00242 0.19289 0.33273 0.0
C213 C 0.04299 0.15328 0.34329 0.0
N214 N 0.13916 0.1317 0.37802 0.0
N215 N 0.96296 0.28859 0.33925 0.0
C216 C 0.09147 0.16656 0.37298 0.0
C217 C 0.00053 0.24614 0.35283 0.0
N218 N 0.12824 0.22315 0.43239 0.0
N219 N 0.9508 0.17869 0.3045 0.0
H220 H 0.96429 0.32814 0.35331 0.0
H221 H 0.93395 0.28642 0.31216 0.0
H222 H 0.94899 0.14107 0.28784 0.0
H223 H 0.91277 0.20275 0.29895 0.0
H224 H 0.15799 0.19254 0.44426 0.0
H225 H 0.12804 0.25837 0.45145 0.0
H226 H 0.17833 0.14182 0.39622 0.0
H227 H 0.14162 0.09476 0.36103 0.0
C228 C 0.81711 -0.00947 0.90311 0.0
C229 C 0.7662 0.02447 0.89568 0.0
C230 C 0.79854 0.05829 0.83129 0.0
C231 C 0.84424 0.01789 0.83556 0.0
N232 N 0.89579 0.94262 0.87406 0.0
N233 N 0.70621 0.08959 0.85258 0.0
C234 C 0.85393 -0.01621 0.87141 0.0
C235 C 0.75659 0.05862 0.85993 0.0
N236 N 0.83007 0.96481 0.9405 0.0
N237 N 0.79606 0.09695 0.80017 0.0
H238 H 0.67541 0.09238 0.87351 0.0
H239 H 0.69308 0.10989 0.82478 0.0
H240 H 0.82668 0.09803 0.77901 0.0
H241 H 0.76731 0.13095 0.79753 0.0
H242 H 0.86952 0.94409 0.94948 0.0
H243 H 0.8034 0.9684 0.96407 0.0
H244 H 0.90018 0.91205 0.897 0.0
H245 H 0.92391 0.93635 0.85169 0.0
C246 C 0.00364 0.74881 0.35294 0.0
C247 C 0.03073 0.74821 0.3944 0.0
C248 C 0.07629 0.83968 0.38498 0.0
C249 C 0.04595 0.84233 0.34441 0.0
N250 N 0.97432 0.80406 0.29144 0.0
N251 N 0.08396 0.79636 0.45246 0.0
C252 C 0.00785 0.7981 0.32875 0.0
C253 C 0.06418 0.79481 0.41123 0.0
N254 N 0.9751 0.70181 0.33651 0.0
N255 N 0.11922 0.87829 0.39766 0.0
H256 H 0.07711 0.76361 0.47258 0.0
H257 H 0.10275 0.83199 0.4674 0.0
H258 H 0.13107 0.91098 0.37905 0.0
H259 H 0.14722 0.87487 0.42515 0.0
H260 H 0.96023 0.69716 0.30528 0.0
H261 H 0.96945 0.66573 0.35377 0.0
H262 H 0.94101 0.77613 0.28024 0.0
H263 H 0.97671 0.83944 0.27285 0.0
loop_
_geom_bond_atom_site_label_1
_geom_bond_atom_site_label_2
_geom_bond_distance
_geom_bond_site_symmetry_2
_ccdc_geom_bond_type
C0 C1 1.384 . S
C0 C2 1.384 . S
C0 H28 0.931 . S
C1 C0 1.384 . S
C1 C4 1.382 1_545 S
C2 C0 1.384 . S
C2 C3 1.381 . S
C2 H29 0.930 . S
C3 C2 1.381 . S
C3 C5 1.381 1_545 S
C3 C6 1.487 . S
C4 C1 1.382 1_565 S
C4 C5 1.387 . S
C4 H30 0.930 . S
C5 C3 1.381 1_565 S
C5 C4 1.387 . S
C5 H31 0.931 . S
C6 C3 1.487 . S
C6 C13 1.399 1_556 S
C6 N44 1.344 . S
C7 C8 1.384 1_565 S
C7 C9 1.384 . S
C7 H32 0.931 . S
C8 C7 1.384 1_545 S
C8 C11 1.382 . S
C9 C7 1.384 . S
C9 C10 1.381 1_565 S
C9 H33 0.930 . S
C10 C9 1.381 1_545 S
C10 C12 1.381 . S
C10 C13 1.487 . S
C11 C8 1.382 . S
C11 C12 1.387 . S
C11 H34 0.930 . S
C12 C10 1.381 . S
C12 C11 1.387 . S
C12 H35 0.931 . S
C13 C6 1.399 1_554 S
C13 C10 1.487 . S
C13 N45 1.343 . S
C14 C15 1.384 1_565 S
C14 C16 1.384 . S
C14 H36 0.931 . S
C15 C14 1.384 1_545 S
C15 C18 1.382 . S
C16 C14 1.384 . S
C16 C17 1.381 1_565 S
C16 H37 0.930 . S
C17 C16 1.381 1_545 S
C17 C19 1.381 . S
C17 C20 1.487 . S
C18 C15 1.382 . S
C18 C19 1.387 . S
C18 H38 0.930 . S
C19 C17 1.381 . S
C19 C18 1.387 . S
C19 H39 0.931 . S
C20 C17 1.487 . S
C20 C27 1.399 1_554 S
C20 N45 1.343 . S
C21 C22 1.384 . S
C21 C23 1.384 . S
C21 H40 0.931 . S
C22 C21 1.384 . S
C22 C25 1.382 1_545 S
C23 C21 1.384 . S
C23 C24 1.381 . S
C23 H41 0.930 . S
C24 C23 1.381 . S
C24 C26 1.381 1_545 S
C24 C27 1.487 . S
C25 C22 1.382 1_565 S
C25 C26 1.387 . S
C25 H42 0.930 . S
C26 C24 1.381 1_565 S
C26 C25 1.387 . S
C26 H43 0.931 . S
C27 C20 1.399 1_556 S
C27 C24 1.487 . S
C27 N44 1.344 . S
H28 C0 0.931 . S
H29 C2 0.930 . S
H30 C4 0.930 . S
H31 C5 0.931 . S
H32 C7 0.931 . S
H33 C9 0.930 . S
H34 C11 0.930 . S
H35 C12 0.931 . S
H36 C14 0.931 . S
H37 C16 0.930 . S
H38 C18 0.930 . S
H39 C19 0.931 . S
H40 C21 0.931 . S
H41 C23 0.930 . S
H42 C25 0.930 . S
H43 C26 0.931 . S
N44 C6 1.344 . S
N44 C27 1.344 . S
N45 C13 1.343 . S
N45 C20 1.343 . S
C46 C47 1.384 . S
C46 C48 1.384 . S
C46 H74 0.931 . S
C47 C46 1.384 . S
C47 C50 1.382 1_455 S
C48 C46 1.384 . S
C48 C49 1.381 . S
C48 H75 0.930 . S
C49 C48 1.381 . S
C49 C51 1.381 1_455 S
C49 C52 1.487 . S
C50 C47 1.382 1_655 S
C50 C51 1.387 . S
C50 H76 0.930 . S
C51 C49 1.381 1_655 S
C51 C50 1.387 . S
C51 H77 0.931 . S
C52 C49 1.487 . S
C52 C59 1.399 . S
C52 N90 1.343 . S
C53 C54 1.384 1_655 S
C53 C55 1.384 . S
C53 H78 0.931 . S
C54 C53 1.384 1_455 S
C54 C57 1.382 . S
C55 C53 1.384 . S
C55 C56 1.381 1_655 S
C55 H79 0.930 . S
C56 C55 1.381 1_455 S
C56 C58 1.381 . S
C56 C59 1.487 . S
C57 C54 1.382 . S
C57 C58 1.387 . S
C57 H80 0.930 . S
C58 C56 1.381 . S
C58 C57 1.387 . S
C58 H81 0.931 . S
C59 C52 1.399 . S
C59 C56 1.487 . S
C59 N91 1.343 . S
C60 C61 1.384 1_655 S
C60 C62 1.384 . S
C60 H82 0.931 . S
C61 C60 1.384 1_455 S
C61 C64 1.382 . S
C62 C60 1.384 . S
C62 C63 1.381 1_655 S
C62 H83 0.930 . S
C63 C62 1.381 1_455 S
C63 C65 1.381 . S
C63 C66 1.487 . S
C64 C61 1.382 . S
C64 C65 1.387 . S
C64 H84 0.930 . S
C65 C63 1.381 . S
C65 C64 1.387 . S
C65 H85 0.931 . S
C66 C63 1.487 . S
C66 C73 1.399 . S
C66 N91 1.343 . S
C67 C68 1.384 . S
C67 C69 1.384 . S
C67 H86 0.931 . S
C68 C67 1.384 . S
C68 C71 1.382 1_455 S
C69 C67 1.384 . S
C69 C70 1.381 . S
C69 H87 0.930 . S
C70 C69 1.381 . S
C70 C72 1.381 1_455 S
C70 C73 1.487 . S
C71 C68 1.382 1_655 S
C71 C72 1.387 . S
C71 H88 0.930 . S
C72 C70 1.381 1_655 S
C72 C71 1.387 . S
C72 H89 0.931 . S
C73 C66 1.399 . S
C73 C70 1.487 . S
C73 N90 1.343 . S
H74 C46 0.931 . S
H75 C48 0.930 . S
H76 C50 0.930 . S
H77 C51 0.931 . S
H78 C53 0.931 . S
H79 C55 0.930 . S
H80 C57 0.930 . S
H81 C58 0.931 . S
H82 C60 0.931 . S
H83 C62 0.930 . S
H84 C64 0.930 . S
H85 C65 0.931 . S
H86 C67 0.931 . S
H87 C69 0.930 . S
H88 C71 0.930 . S
H89 C72 0.931 . S
N90 C52 1.343 . S
N90 C73 1.343 . S
N91 C59 1.343 . S
N91 C66 1.343 . S
Mg92 O93 2.028 . S
Mg92 O99 1.986 . S
Mg92 O101 2.114 1_545 S
Mg92 O102 2.251 1_545 S
Mg92 O105 2.010 . S
O93 Mg92 2.028 . S
O93 C96 1.250 1_455 S
O94 Mg95 2.028 . S
O94 C96 1.248 . S
Mg95 O94 2.028 . S
Mg95 O100 2.032 . S
Mg95 O102 2.079 1_645 S
C96 O93 1.250 1_655 S
C96 O94 1.248 . S
C97 O98 1.264 . S
C97 O105 1.249 . S
O98 C97 1.264 . S
O99 Mg92 1.986 . S
O99 C103 1.246 . S
O100 Mg95 2.032 . S
O100 C103 1.259 1_655 S
O101 Mg92 2.114 1_565 S
O101 C104 1.252 . S
O102 Mg92 2.251 1_565 S
O102 Mg95 2.079 1_465 S
O102 C104 1.273 . S
C103 O99 1.246 . S
C103 O100 1.259 1_455 S
C104 O101 1.252 . S
C104 O102 1.273 . S
O105 Mg92 2.010 . S
O105 C97 1.249 . S
Mg106 O107 2.028 1_655 S
Mg106 O113 1.986 . S
Mg106 O115 2.114 1_545 S
Mg106 O116 2.251 1_645 S
Mg106 O119 2.010 . S
O107 Mg106 2.028 1_455 S
O107 C110 1.250 . S
O108 Mg109 2.028 . S
O108 C110 1.248 . S
Mg109 O108 2.028 . S
Mg109 O114 2.032 . S
Mg109 O116 2.079 1_545 S
C110 O107 1.250 . S
C110 O108 1.248 . S
C111 O112 1.264 . S
C111 O119 1.249 . S
O112 C111 1.264 . S
O113 Mg106 1.986 . S
O113 C117 1.246 1_655 S
O114 Mg109 2.032 . S
O114 C117 1.259 . S
O115 Mg106 2.114 1_565 S
O115 C118 1.252 1_655 S
O116 Mg106 2.251 1_465 S
O116 Mg109 2.079 1_565 S
O116 C118 1.273 . S
C117 O113 1.246 1_455 S
C117 O114 1.259 . S
C118 O115 1.252 1_455 S
C118 O116 1.273 . S
O119 Mg106 2.010 . S
O119 C111 1.249 . S
C120 C121 1.363 1_565 S
C120 C126 1.379 . S
C120 N128 1.356 . S
C121 C120 1.363 1_545 S
C121 C127 1.363 . S
C122 C123 1.363 . S
C122 C127 1.379 . S
C122 N129 1.356 . S
C123 C122 1.363 . S
C123 C126 1.363 1_545 S
N124 C126 1.356 . S
N124 H136 0.984 . S
N124 H137 0.985 . S
N125 C127 1.356 . S
N125 H130 0.984 . S
N125 H131 0.985 . S
C126 C120 1.379 . S
C126 C123 1.363 1_565 S
C126 N124 1.356 . S
C127 C121 1.363 . S
C127 C122 1.379 . S
C127 N125 1.356 . S
N128 C120 1.356 . S
N128 H134 0.984 . S
N128 H135 0.984 . S
N129 C122 1.356 . S
N129 H132 0.984 . S
N129 H133 0.985 . S
H130 N125 0.984 . S
H131 N125 0.985 . S
H132 N129 0.984 . S
H133 N129 0.985 . S
H134 N128 0.984 . S
H135 N128 0.984 . S
H136 N124 0.984 . S
H137 N124 0.985 . S
C138 C139 1.363 1_655 S
C138 C144 1.379 . S
C138 N146 1.356 . S
C139 C138 1.363 1_455 S
C139 C145 1.363 . S
C140 C141 1.363 . S
C140 C145 1.379 . S
C140 N147 1.356 . S
C141 C140 1.363 . S
C141 C144 1.363 1_455 S
N142 C144 1.356 . S
N142 H154 0.984 . S
N142 H155 0.985 . S
N143 C145 1.356 . S
N143 H148 0.984 . S
N143 H149 0.985 . S
C144 C138 1.379 . S
C144 C141 1.363 1_655 S
C144 N142 1.356 . S
C145 C139 1.363 . S
C145 C140 1.379 . S
C145 N143 1.356 . S
N146 C138 1.356 . S
N146 H152 0.984 . S
N146 H153 0.984 . S
N147 C140 1.356 . S
N147 H150 0.984 . S
N147 H151 0.985 . S
H148 N143 0.984 . S
H149 N143 0.985 . S
H150 N147 0.984 . S
H151 N147 0.985 . S
H152 N146 0.984 . S
H153 N146 0.984 . S
H154 N142 0.984 . S
H155 N142 0.985 . S
C156 C157 1.363 . S
C156 C162 1.379 . S
C156 N164 1.356 . S
C157 C156 1.363 . S
C157 C163 1.363 1_545 S
C158 C159 1.363 1_565 S
C158 C163 1.379 . S
C158 N165 1.356 . S
C159 C158 1.363 1_545 S
C159 C162 1.363 . S
N160 C162 1.356 . S
N160 H172 0.984 . S
N160 H173 0.985 . S
N161 C163 1.356 . S
N161 H166 0.984 . S
N161 H167 0.985 . S
C162 C156 1.379 . S
C162 C159 1.363 . S
C162 N160 1.356 . S
C163 C157 1.363 1_565 S
C163 C158 1.379 . S
C163 N161 1.356 . S
N164 C156 1.356 . S
N164 H170 0.984 . S
N164 H171 0.984 . S
N165 C158 1.356 . S
N165 H168 0.984 . S
N165 H169 0.985 . S
H166 N161 0.984 . S
H167 N161 0.985 . S
H168 N165 0.984 . S
H169 N165 0.985 . S
H170 N164 0.984 . S
H171 N164 0.984 . S
H172 N160 0.984 . S
H173 N160 0.985 . S
C174 C175 1.363 1_655 S
C174 C180 1.379 . S
C174 N182 1.356 . S
C175 C174 1.363 1_455 S
C175 C181 1.363 . S
C176 C177 1.363 . S
C176 C181 1.379 . S
C176 N183 1.356 . S
C177 C176 1.363 . S
C177 C180 1.363 1_455 S
N178 C180 1.356 . S
N178 H190 0.984 . S
N178 H191 0.985 . S
N179 C181 1.356 . S
N179 H184 0.984 . S
N179 H185 0.985 . S
C180 C174 1.379 . S
C180 C177 1.363 1_655 S
C180 N178 1.356 . S
C181 C175 1.363 . S
C181 C176 1.379 . S
C181 N179 1.356 . S
N182 C174 1.356 . S
N182 H188 0.984 . S
N182 H189 0.984 . S
N183 C176 1.356 . S
N183 H186 0.984 . S
N183 H187 0.985 . S
H184 N179 0.984 . S
H185 N179 0.985 . S
H186 N183 0.984 . S
H187 N183 0.985 . S
H188 N182 0.984 . S
H189 N182 0.984 . S
H190 N178 0.984 . S
H191 N178 0.985 . S
C192 C193 1.363 . S
C192 C198 1.379 . S
C192 N200 1.356 . S
C193 C192 1.363 . S
C193 C199 1.363 1_545 S
C194 C195 1.363 1_565 S
C194 C199 1.379 . S
C194 N201 1.356 . S
C195 C194 1.363 1_545 S
C195 C198 1.363 . S
N196 C198 1.356 . S
N196 H208 0.984 . S
N196 H209 0.985 . S
N197 C199 1.356 . S
N197 H202 0.984 . S
N197 H203 0.985 . S
C198 C192 1.379 . S
C198 C195 1.363 . S
C198 N196 1.356 . S
C199 C193 1.363 1_565 S
C199 C194 1.379 . S
C199 N197 1.356 . S
N200 C192 1.356 . S
N200 H206 0.984 . S
N200 H207 0.984 . S
N201 C194 1.356 . S
N201 H204 0.984 . S
N201 H205 0.985 . S
H202 N197 0.984 . S
H203 N197 0.985 . S
H204 N201 0.984 . S
H205 N201 0.985 . S
H206 N200 0.984 . S
H207 N200 0.984 . S
H208 N196 0.984 . S
H209 N196 0.985 . S
C210 C211 1.363 . S
C210 C216 1.379 . S
C210 N218 1.356 . S
C211 C210 1.363 . S
C211 C217 1.363 . S
C212 C213 1.363 . S
C212 C217 1.379 . S
C212 N219 1.356 1_455 S
C213 C212 1.363 . S
C213 C216 1.363 . S
N214 C216 1.356 . S
N214 H226 0.984 . S
N214 H227 0.985 . S
N215 C217 1.356 1_655 S
N215 H220 0.984 . S
N215 H221 0.985 . S
C216 C210 1.379 . S
C216 C213 1.363 . S
C216 N214 1.356 . S
C217 C211 1.363 . S
C217 C212 1.379 . S
C217 N215 1.356 1_455 S
N218 C210 1.356 . S
N218 H224 0.984 . S
N218 H225 0.984 . S
N219 C212 1.356 1_655 S
N219 H222 0.984 . S
N219 H223 0.985 . S
H220 N215 0.984 . S
H221 N215 0.985 . S
H222 N219 0.984 . S
H223 N219 0.985 . S
H224 N218 0.984 . S
H225 N218 0.984 . S
H226 N214 0.984 . S
H227 N214 0.985 . S
C228 C229 1.363 1_565 S
C228 C234 1.379 . S
C228 N236 1.356 . S
C229 C228 1.363 1_545 S
C229 C235 1.363 . S
C230 C231 1.363 . S
C230 C235 1.379 . S
C230 N237 1.356 . S
C231 C230 1.363 . S
C231 C234 1.363 1_545 S
N232 C234 1.356 . S
N232 H244 0.984 . S
N232 H245 0.985 . S
N233 C235 1.356 . S
N233 H238 0.984 . S
N233 H239 0.985 . S
C234 C228 1.379 . S
C234 C231 1.363 1_565 S
C234 N232 1.356 . S
C235 C229 1.363 . S
C235 C230 1.379 . S
C235 N233 1.356 . S
N236 C228 1.356 . S
N236 H242 0.984 . S
N236 H243 0.984 . S
N237 C230 1.356 . S
N237 H240 0.984 . S
N237 H241 0.985 . S
H238 N233 0.984 . S
H239 N233 0.985 . S
H240 N237 0.984 . S
H241 N237 0.985 . S
H242 N236 0.984 . S
H243 N236 0.984 . S
H244 N232 0.984 . S
H245 N232 0.985 . S
C246 C247 1.363 1_655 S
C246 C252 1.379 . S
C246 N254 1.356 . S
C247 C246 1.363 1_455 S
C247 C253 1.363 . S
C248 C249 1.363 . S
C248 C253 1.379 . S
C248 N255 1.356 . S
C249 C248 1.363 . S
C249 C252 1.363 1_455 S
N250 C252 1.356 . S
N250 H262 0.984 . S
N250 H263 0.985 . S
N251 C253 1.356 . S
N251 H256 0.984 . S
N251 H257 0.985 . S
C252 C246 1.379 . S
C252 C249 1.363 1_655 S
C252 N250 1.356 . S
C253 C247 1.363 . S
C253 C248 1.379 . S
C253 N251 1.356 . S
N254 C246 1.356 . S
N254 H260 0.984 . S
N254 H261 0.984 . S
N255 C248 1.356 . S
N255 H258 0.984 . S
N255 H259 0.985 . S
H256 N251 0.984 . S
H257 N251 0.985 . S
H258 N255 0.984 . S
H259 N255 0.985 . S
H260 N254 0.984 . S
H261 N254 0.984 . S
H262 N250 0.984 . S
H263 N250 0.985 . S
C123 C97 1.262 . S
C121 C15 1.502 . S
C141 C117 1.470 . S
C139 C68 1.495 . S
C159 C96 1.463 . S
C157 C8 1.502 . S
C177 C118 1.507 . S
C175 C47 1.506 . S
C195 C110 1.462 . S
C193 C22 1.503 . S
C213 C103 1.470 . S
C211 C61 1.495 . S
C231 C111 1.261 . S
C229 C1 1.504 . S
C247 C54 1.506 . S
C249 C104 1.507 . S
