# Generated by pormake.
# Topology tsx, (6,3)-cn, num edge types: 1
# Building blocks:
#     Node 0, Type 0, BuildingBlock: FUNLAD_clean_sbu_0, # of connection points: 6
#     Node 1, Type 0, BuildingBlock: FUNLAD_clean_sbu_0, # of connection points: 6
#     Node 2, Type 1, BuildingBlock: CUQRIR_clean_linker_1, # of connection points: 3
#     Node 3, Type 1, BuildingBlock: CUQRIR_clean_linker_1, # of connection points: 3
#     Node 4, Type 1, BuildingBlock: CUQRIR_clean_linker_1, # of connection points: 3
#     Node 5, Type 1, BuildingBlock: CUQRIR_clean_linker_1, # of connection points: 3
#     Edge 6, Type (0, 1), BuildingBlock: OJICUG_clean_linker_0, # of connection points: 2
#     Edge 7, Type (0, 1), BuildingBlock: OJICUG_clean_linker_0, # of connection points: 2
#     Edge 8, Type (0, 1), BuildingBlock: OJICUG_clean_linker_0, # of connection points: 2
#     Edge 9, Type (0, 1), BuildingBlock: OJICUG_clean_linker_0, # of connection points: 2
#     Edge 10, Type (0, 1), BuildingBlock: OJICUG_clean_linker_0, # of connection points: 2
#     Edge 11, Type (0, 1), BuildingBlock: OJICUG_clean_linker_0, # of connection points: 2
#     Edge 12, Type (0, 1), BuildingBlock: OJICUG_clean_linker_0, # of connection points: 2
#     Edge 13, Type (0, 1), BuildingBlock: OJICUG_clean_linker_0, # of connection points: 2
#     Edge 14, Type (0, 1), BuildingBlock: OJICUG_clean_linker_0, # of connection points: 2
#     Edge 15, Type (0, 1), BuildingBlock: OJICUG_clean_linker_0, # of connection points: 2
#     Edge 16, Type (0, 1), BuildingBlock: OJICUG_clean_linker_0, # of connection points: 2
#     Edge 17, Type (0, 1), BuildingBlock: OJICUG_clean_linker_0, # of connection points: 2
# Relax obj value: 0.164
# Max RMSD: 0.164
# Mean RMSD: 0.145
data_MOF--net-tsx--node1-FUNLAD_clean_sbu_0--node2-CUQRIR_clean_linker_1--edge1-OJICUG_clean_linker_0
_symmetry_space_group_name_H-M    P1
_symmetry_Int_Tables_number       1
_symmetry_cell_setting            triclinic
loop_
_symmetry_equiv_pos_as_xyz
'x, y, z'
_cell_length_a     11.912726
_cell_length_b     13.481937
_cell_length_c     29.590506
_cell_angle_alpha  76.996192
_cell_angle_beta   94.515756
_cell_angle_gamma 90.111138
loop_
_atom_site_label
_atom_site_type_symbol
_atom_site_fract_x
_atom_site_fract_y
_atom_site_fract_z
_atom_type_partial_charge
C0 C 0.88365 0.89318 -0.00033 0.0
N1 N 0.07217 0.9828 0.10426 0.0
C2 C 0.98076 0.98748 0.12842 0.0
C3 C 0.99463 0.98348 0.17593 0.0
C4 C 0.10361 0.97618 0.19834 0.0
C5 C 0.19605 0.96635 0.17323 0.0
C6 C 0.17814 0.96865 0.12588 0.0
Zn7 Zn 0.0529 1.01854 0.03387 0.0
C8 C 0.20882 0.90935 -0.01135 0.0
N9 N 0.02534 0.11197 0.88712 0.0
C10 C 0.92945 0.10374 0.86015 0.0
C11 C 0.12097 0.14948 0.86772 0.0
C12 C 0.12384 0.17759 0.81954 0.0
C13 C 0.02792 0.1656 0.79068 0.0
C14 C 0.92891 0.13007 0.81161 0.0
Zn15 Zn 0.03283 0.06842 0.95825 0.0
O16 O 0.92647 0.91916 0.0354 0.0
C17 C 0.87534 0.18447 -0.00655 0.0
O18 O 0.91454 0.9372 0.95945 0.0
H19 H 0.19657 0.15533 0.8896 0.0
H20 H 0.89763 0.99939 0.11042 0.0
H21 H 0.85416 0.07435 0.87627 0.0
O22 O 0.92889 0.14415 0.03256 0.0
O23 O 0.90043 0.15931 0.9571 0.0
H24 H 0.24961 0.96496 0.1059 0.0
O25 O 0.14815 0.19642 0.96485 0.0
O26 O 0.18095 0.11368 0.03702 0.0
O27 O 0.16702 0.97748 0.95529 0.0
O28 O 0.17291 0.89935 0.02895 0.0
C29 C 0.20261 0.1865 0.00462 0.0
H30 H 0.92149 0.99183 0.19441 0.0
H31 H 0.28103 0.95992 0.18972 0.0
H32 H 0.20167 0.20547 0.80506 0.0
H33 H 0.85336 0.11792 0.79083 0.0
C34 C 0.37475 0.38293 0.49957 0.0
N35 N 0.56033 0.46921 0.60588 0.0
C36 C 0.46975 0.47779 0.62996 0.0
C37 C 0.48483 0.47722 0.67715 0.0
C38 C 0.59419 0.46923 0.69927 0.0
C39 C 0.68538 0.45407 0.67441 0.0
C40 C 0.66623 0.45313 0.62745 0.0
Zn41 Zn 0.54269 0.50593 0.53543 0.0
C42 C 0.70037 0.39694 0.49092 0.0
N43 N 0.52205 0.60278 0.38894 0.0
C44 C 0.42735 0.59619 0.361 0.0
C45 C 0.6189 0.64036 0.37064 0.0
C46 C 0.62422 0.67044 0.32263 0.0
C47 C 0.52951 0.66047 0.29276 0.0
C48 C 0.42926 0.62459 0.31256 0.0
Zn49 Zn 0.52631 0.55758 0.46001 0.0
O50 O 0.41522 0.40847 0.53578 0.0
C51 C 0.36673 0.67249 0.49468 0.0
O52 O 0.40866 0.42658 0.45984 0.0
H53 H 0.69353 0.64494 0.39327 0.0
H54 H 0.38665 0.49107 0.61199 0.0
H55 H 0.35105 0.56672 0.37625 0.0
O56 O 0.41947 0.63203 0.53395 0.0
O57 O 0.39304 0.64785 0.45837 0.0
H58 H 0.73708 0.44651 0.60755 0.0
O59 O 0.63986 0.6853 0.46796 0.0
O60 O 0.67208 0.5998 0.53968 0.0
O61 O 0.66184 0.46703 0.45768 0.0
O62 O 0.66117 0.38563 0.53067 0.0
C63 C 0.6937 0.67395 0.50789 0.0
H64 H 0.4126 0.4895 0.69542 0.0
H65 H 0.7706 0.44684 0.69067 0.0
H66 H 0.70292 0.69849 0.30906 0.0
H67 H 0.35456 0.61394 0.29095 0.0
C68 C 0.98991 0.04218 0.4349 0.0
N69 N 0.0666 1.00022 0.41354 0.0
N70 N 0.96392 0.13854 0.41222 0.0
C71 C 0.92404 0.98447 0.47213 0.0
C72 C 0.02521 0.15308 0.37471 0.0
N73 N 0.08651 0.06769 0.37502 0.0
C74 C 1.01392 0.24524 0.33508 0.0
H75 H 0.83936 0.97097 0.45657 0.0
H76 H 0.91497 0.03085 0.49812 0.0
H77 H 0.96128 0.90932 0.48782 0.0
H78 H 0.09755 0.28059 0.33019 0.0
H79 H 0.95357 0.30215 0.34147 0.0
H80 H 0.9847 0.22216 0.30246 0.0
C81 C 0.0663 0.98091 0.5744 0.0
N82 N 0.08977 0.0704 0.58638 0.0
N83 N 0.96857 0.94168 0.59123 0.0
C84 C 0.14333 0.93113 0.54811 0.0
C85 C 0.93718 1.00865 0.61591 0.0
N86 N 1.01051 0.08674 0.61322 0.0
C87 C 0.84114 0.99086 0.64692 0.0
H88 H 0.22235 0.90711 0.57023 0.0
H89 H 0.1646 0.98773 0.5169 0.0
H90 H 0.10916 0.86293 0.538 0.0
H91 H 0.87127 0.9948 0.68291 0.0
H92 H 0.80293 0.9153 0.64818 0.0
H93 H 0.77563 0.05104 0.63383 0.0
C94 C 0.50751 0.56139 0.93451 0.0
N95 N 0.58082 0.5168 0.91271 0.0
N96 N 0.48038 0.65652 0.91063 0.0
C97 C 0.44208 0.50575 0.97233 0.0
C98 C 0.5373 0.66753 0.87204 0.0
N99 N 0.59729 0.58111 0.87283 0.0
C100 C 0.52175 0.75634 0.83097 0.0
H101 H 0.35697 0.49229 0.9572 0.0
H102 H 0.43375 0.55302 -0.00193 0.0
H103 H 0.47916 0.4306 -0.01195 0.0
H104 H 0.60523 0.78745 0.82164 0.0
H105 H 0.46851 0.81731 0.83836 0.0
H106 H 0.48175 0.73032 0.8006 0.0
C107 C 0.5787 0.48865 0.07444 0.0
N108 N 0.60119 0.57766 0.08707 0.0
N109 N 0.47973 0.44942 0.09 0.0
C110 C 0.65823 0.43891 0.04911 0.0
C111 C 0.44689 0.51554 0.11484 0.0
N112 N 0.52035 0.59328 0.11335 0.0
C113 C 0.34909 0.49703 0.14492 0.0
H114 H 0.73588 0.41475 0.07216 0.0
H115 H 0.68174 0.49544 0.01829 0.0
H116 H 0.62495 0.37095 0.03848 0.0
H117 H 0.37757 0.4989 0.18133 0.0
H118 H 0.31035 0.42209 0.14507 0.0
H119 H 0.28445 0.55801 0.13188 0.0
C120 C 0.23736 0.35445 0.02322 0.0
C121 C 0.28037 0.26117 0.01831 0.0
H122 H 0.26627 0.48617 0.0514 0.0
C123 C 0.38461 0.22521 0.04213 0.0
H124 H 0.15405 0.38076 0.00791 0.0
C125 C 0.44677 0.2831 0.06871 0.0
C126 C 0.40729 0.3794 0.07127 0.0
H127 H 0.41584 0.15002 0.04166 0.0
H128 H 0.52639 0.25329 0.08676 0.0
C129 C 0.29953 0.41245 0.04984 0.0
C130 C 0.39387 0.86617 0.96478 0.0
C131 C 0.28466 0.83637 0.97619 0.0
H132 H 0.54199 0.83183 0.93346 0.0
C133 C 0.23652 0.75409 0.96047 0.0
H134 H 0.42999 0.93344 0.97403 0.0
C135 C 0.2975 0.70081 0.93492 0.0
C136 C 0.40909 0.72665 0.92583 0.0
H137 H 0.14968 0.73415 0.96603 0.0
H138 H 0.25816 0.63809 0.92286 0.0
C139 C 0.45627 0.81068 0.94035 0.0
C140 C 0.85059 0.7109 0.03044 0.0
C141 C 0.80486 0.8077 0.00898 0.0
H142 H 0.82554 0.56506 0.07506 0.0
C143 C 0.69215 0.82817 0.01517 0.0
H144 H 0.93927 0.69502 0.02909 0.0
C145 C 0.62655 0.75331 0.04157 0.0
C146 C 0.67256 0.65676 0.06318 0.0
H147 H 0.65663 0.90399 0.00175 0.0
H148 H 0.53986 0.77099 0.04562 0.0
C149 C 0.78587 0.63693 0.05757 0.0
C150 C 0.8366 0.36841 0.97242 0.0
C151 C 0.79456 0.26962 -0.01428 0.0
H152 H 0.80124 0.52377 0.93669 0.0
C153 C 0.68138 0.25232 0.97264 0.0
H154 H 0.9251 0.3826 0.97953 0.0
C155 C 0.61139 0.33248 0.94732 0.0
C156 C 0.65376 0.43118 0.9343 0.0
H157 H 0.64882 0.17573 0.9799 0.0
H158 H 0.52439 0.31768 0.93775 0.0
C159 C 0.76724 0.44809 0.94647 0.0
C160 C 0.72533 0.84157 0.52729 0.0
C161 C 0.76974 0.74874 0.52244 0.0
H162 H 0.75318 0.97459 0.55458 0.0
C163 C 0.8743 0.71389 0.54623 0.0
H164 H 0.64165 0.86685 0.51206 0.0
C165 C 0.93624 0.77326 0.57214 0.0
C166 C 0.89593 0.86971 0.57408 0.0
H167 H 0.90651 0.63896 0.54588 0.0
H168 H 1.01679 0.74495 0.58978 0.0
C169 C 0.78717 0.90094 0.55331 0.0
C170 C 0.88284 0.35201 0.46539 0.0
C171 C 0.77476 0.32266 0.47859 0.0
H172 H 0.0282 0.31545 0.43303 0.0
C173 C 0.72559 0.23834 0.46503 0.0
H174 H 0.91963 0.42054 0.47305 0.0
C175 C 0.78426 0.18309 0.43956 0.0
C176 C 0.89494 0.20861 0.42866 0.0
H177 H 0.63937 0.21855 0.47195 0.0
H178 H 0.74341 0.11969 0.42868 0.0
C179 C 0.94325 0.29433 0.44129 0.0
C180 C 0.33954 0.20083 0.52891 0.0
C181 C 0.29496 0.29826 0.50789 0.0
H182 H 0.31335 0.05521 0.57343 0.0
C183 C 0.18268 0.3198 0.51433 0.0
H184 H 0.42794 0.18409 0.52737 0.0
C185 C 0.11666 0.24562 0.54085 0.0
C186 C 0.16163 0.14857 0.56215 0.0
H187 H 0.14808 0.39605 0.5012 0.0
H188 H 0.03055 0.26428 0.54535 0.0
C189 C 0.27433 0.12746 0.55609 0.0
C190 C 0.32465 0.8558 0.47349 0.0
C191 C 0.28442 0.75641 0.48691 0.0
H192 H 0.28665 1.01052 0.4376 0.0
C193 C 0.17175 0.7373 0.47386 0.0
H194 H 0.41281 0.87136 0.48056 0.0
C195 C 0.10048 0.81629 0.44838 0.0
C196 C 0.14089 0.9157 0.43537 0.0
H197 H 0.14071 0.66018 0.48115 0.0
H198 H 1.01406 0.79996 0.43861 0.0
C199 C 0.25399 0.93434 0.44746 0.0
C200 C 0.18505 0.06615 0.2582 0.0
C201 C 0.11923 0.98718 0.24675 0.0
H202 H 0.22672 0.15415 0.30937 0.0
C203 C 0.05561 0.92776 0.28021 0.0
H204 H 0.23432 0.1132 0.23259 0.0
C205 C 0.05138 0.95121 0.32337 0.0
C206 C 0.11016 0.03474 0.33384 0.0
H207 H 1.0046 0.86647 0.27207 0.0
H208 H 0.99607 0.90797 0.34759 0.0
C209 C 0.18021 0.0901 0.30166 0.0
C210 C 0.94312 0.21098 0.70762 0.0
C211 C 0.03553 0.17571 0.7399 0.0
H212 H 0.86499 0.21457 0.6393 0.0
C213 C 0.13066 0.13612 0.72425 0.0
H214 H 0.86981 0.2445 0.7182 0.0
C215 C 0.12771 0.11988 0.67931 0.0
C216 C 0.02957 0.14205 0.64933 0.0
H217 H 0.20347 0.1081 0.74792 0.0
H218 H 0.19718 0.07894 0.66995 0.0
C219 C 0.94069 0.19505 0.6624 0.0
C220 C 0.68358 0.56381 0.75594 0.0
C221 C 0.61223 0.48613 0.74671 0.0
H222 H 0.73501 0.65572 0.80452 0.0
C223 C 0.5471 0.43352 0.78142 0.0
H224 H 0.73396 0.60584 0.72932 0.0
C225 C 0.54797 0.46192 0.82372 0.0
C226 C 0.61346 0.54368 0.83207 0.0
H227 H 0.49174 0.37341 0.77503 0.0
H228 H 0.49219 0.42373 0.84907 0.0
C229 C 0.68378 0.59285 0.79849 0.0
C230 C 0.44878 0.71116 0.20919 0.0
C231 C 0.53954 0.67346 0.24195 0.0
H232 H 0.37403 0.71977 0.13991 0.0
C233 C 0.63546 0.63467 0.2265 0.0
H234 H 0.37497 0.74418 0.21965 0.0
C235 C 0.63474 0.62161 0.18109 0.0
C236 C 0.53806 0.64616 0.1504 0.0
H237 H 0.70708 0.60489 0.25054 0.0
H238 H 0.70463 0.58116 0.17174 0.0
C239 C 0.44862 0.69845 0.16349 0.0
loop_
_geom_bond_atom_site_label_1
_geom_bond_atom_site_label_2
_geom_bond_distance
_geom_bond_site_symmetry_2
_ccdc_geom_bond_type
C0 O16 1.251 . S
C0 O18 1.254 1_554 S
N1 C2 1.333 1_445 S
N1 C6 1.307 . S
N1 Zn7 2.020 . S
C2 N1 1.333 1_665 S
C2 C3 1.379 . S
C2 H20 0.952 . S
C3 C2 1.379 . S
C3 C4 1.390 1_655 S
C3 H30 0.949 . S
C4 C3 1.390 1_455 S
C4 C5 1.357 1_565 S
C5 C4 1.357 1_545 S
C5 C6 1.370 . S
C5 H31 0.950 . S
C6 N1 1.307 . S
C6 C5 1.370 . S
C6 H24 0.948 . S
Zn7 N1 2.020 . S
Zn7 O16 2.039 1_445 S
Zn7 O22 2.034 1_455 S
Zn7 O26 2.025 . S
Zn7 O28 2.024 1_545 S
C8 O27 1.246 1_554 S
C8 O28 1.249 . S
N9 C10 1.307 1_455 S
N9 C11 1.333 . S
N9 Zn15 2.020 . S
C10 N9 1.307 1_655 S
C10 C14 1.370 . S
C10 H21 0.948 . S
C11 N9 1.333 . S
C11 C12 1.379 . S
C11 H19 0.952 . S
C12 C11 1.379 . S
C12 C13 1.390 . S
C12 H32 0.949 . S
C13 C12 1.390 . S
C13 C14 1.357 1_455 S
C14 C10 1.370 . S
C14 C13 1.357 1_655 S
C14 H33 0.950 . S
Zn15 N9 2.020 . S
Zn15 O18 2.025 1_445 S
Zn15 O23 2.024 1_455 S
Zn15 O25 2.039 . S
Zn15 O27 2.034 1_545 S
O16 C0 1.251 . S
O16 Zn7 2.039 1_665 S
C17 O22 1.246 . S
C17 O23 1.249 1_554 S
O18 C0 1.254 1_556 S
O18 Zn15 2.025 1_665 S
H19 C11 0.952 . S
H20 C2 0.952 . S
H21 C10 0.948 . S
O22 Zn7 2.034 1_655 S
O22 C17 1.246 . S
O23 Zn15 2.024 1_655 S
O23 C17 1.249 1_556 S
H24 C6 0.948 . S
O25 Zn15 2.039 . S
O25 C29 1.251 1_556 S
O26 Zn7 2.025 . S
O26 C29 1.254 . S
O27 C8 1.246 1_556 S
O27 Zn15 2.034 1_565 S
O28 Zn7 2.024 1_565 S
O28 C8 1.249 . S
C29 O25 1.251 1_554 S
C29 O26 1.254 . S
H30 C3 0.949 . S
H31 C5 0.950 . S
H32 C12 0.949 . S
H33 C14 0.950 . S
C34 O50 1.251 . S
C34 O52 1.254 . S
N35 C36 1.333 . S
N35 C40 1.307 . S
N35 Zn41 2.020 . S
C36 N35 1.333 . S
C36 C37 1.379 . S
C36 H54 0.952 . S
C37 C36 1.379 . S
C37 C38 1.390 . S
C37 H64 0.949 . S
C38 C37 1.390 . S
C38 C39 1.357 . S
C39 C38 1.357 . S
C39 C40 1.370 . S
C39 H65 0.950 . S
C40 N35 1.307 . S
C40 C39 1.370 . S
C40 H58 0.948 . S
Zn41 N35 2.020 . S
Zn41 O50 2.039 . S
Zn41 O56 2.034 . S
Zn41 O60 2.025 . S
Zn41 O62 2.024 . S
C42 O61 1.246 . S
C42 O62 1.249 . S
N43 C44 1.307 . S
N43 C45 1.333 . S
N43 Zn49 2.020 . S
C44 N43 1.307 . S
C44 C48 1.370 . S
C44 H55 0.948 . S
C45 N43 1.333 . S
C45 C46 1.379 . S
C45 H53 0.952 . S
C46 C45 1.379 . S
C46 C47 1.390 . S
C46 H66 0.949 . S
C47 C46 1.390 . S
C47 C48 1.357 . S
C48 C44 1.370 . S
C48 C47 1.357 . S
C48 H67 0.950 . S
Zn49 N43 2.020 . S
Zn49 O52 2.025 . S
Zn49 O57 2.024 . S
Zn49 O59 2.039 . S
Zn49 O61 2.034 . S
O50 C34 1.251 . S
O50 Zn41 2.039 . S
C51 O56 1.246 . S
C51 O57 1.249 . S
O52 C34 1.254 . S
O52 Zn49 2.025 . S
H53 C45 0.952 . S
H54 C36 0.952 . S
H55 C44 0.948 . S
O56 Zn41 2.034 . S
O56 C51 1.246 . S
O57 Zn49 2.024 . S
O57 C51 1.249 . S
H58 C40 0.948 . S
O59 Zn49 2.039 . S
O59 C63 1.251 . S
O60 Zn41 2.025 . S
O60 C63 1.254 . S
O61 C42 1.246 . S
O61 Zn49 2.034 . S
O62 Zn41 2.024 . S
O62 C42 1.249 . S
C63 O59 1.251 . S
C63 O60 1.254 . S
H64 C37 0.949 . S
H65 C39 0.950 . S
H66 C46 0.949 . S
H67 C48 0.950 . S
C68 N69 1.317 1_545 S
C68 N70 1.348 1_455 S
C68 C71 1.485 1_545 S
N69 C68 1.317 1_565 S
N69 N73 1.370 . S
N70 C68 1.348 1_655 S
N70 C72 1.346 . S
C71 C68 1.485 1_565 S
C71 H75 0.960 1_455 S
C71 H76 0.961 1_565 S
C71 H77 0.960 . S
C72 N70 1.346 . S
C72 N73 1.307 1_645 S
C72 C74 1.486 . S
N73 N69 1.370 . S
N73 C72 1.307 1_465 S
C74 C72 1.486 . S
C74 H78 0.960 . S
C74 H79 0.960 . S
C74 H80 0.959 . S
H75 C71 0.960 1_655 S
H76 C71 0.961 1_545 S
H77 C71 0.960 . S
H78 C74 0.960 . S
H79 C74 0.960 . S
H80 C74 0.959 . S
C81 N82 1.317 . S
C81 N83 1.348 1_445 S
C81 C84 1.485 . S
N82 C81 1.317 . S
N82 N86 1.370 . S
N83 C81 1.348 1_665 S
N83 C85 1.346 . S
C84 C81 1.485 . S
C84 H88 0.960 1_455 S
C84 H89 0.961 . S
C84 H90 0.960 . S
C85 N83 1.346 . S
C85 N86 1.307 1_665 S
C85 C87 1.486 . S
N86 N82 1.370 . S
N86 C85 1.307 1_445 S
C87 C85 1.486 . S
C87 H91 0.960 . S
C87 H92 0.960 . S
C87 H93 0.959 . S
H88 C84 0.960 1_655 S
H89 C84 0.961 . S
H90 C84 0.960 . S
H91 C87 0.960 . S
H92 C87 0.960 . S
H93 C87 0.959 . S
C94 N95 1.317 1_554 S
C94 N96 1.341 1_554 S
C94 C97 1.485 . S
N95 C94 1.317 1_556 S
N95 N99 1.370 . S
N96 C94 1.341 1_556 S
N96 C98 1.371 . S
C97 C94 1.485 . S
C97 H101 0.960 . S
C97 H102 0.961 . S
C97 H103 0.960 . S
C98 N96 1.371 . S
C98 N99 1.307 . S
C98 C100 1.486 . S
N99 N95 1.370 . S
N99 C98 1.307 . S
C100 C98 1.486 . S
C100 H104 0.960 . S
C100 H105 0.960 . S
C100 H106 0.959 . S
H101 C97 0.960 . S
H102 C97 0.961 . S
H103 C97 0.960 . S
H104 C100 0.960 . S
H105 C100 0.960 . S
H106 C100 0.959 . S
C107 N108 1.317 . S
C107 N109 1.348 . S
C107 C110 1.485 1_554 S
N108 C107 1.317 . S
N108 N112 1.370 . S
N109 C107 1.348 . S
N109 C111 1.346 . S
C110 C107 1.485 1_556 S
C110 H114 0.960 . S
C110 H115 0.961 . S
C110 H116 0.960 . S
C111 N109 1.346 . S
C111 N112 1.307 . S
C111 C113 1.486 . S
N112 N108 1.370 . S
N112 C111 1.307 . S
C113 C111 1.486 . S
C113 H117 0.960 . S
C113 H118 0.960 . S
C113 H119 0.959 . S
H114 C110 0.960 . S
H115 C110 0.961 . S
H116 C110 0.960 . S
H117 C113 0.960 . S
H118 C113 0.960 . S
H119 C113 0.959 . S
C120 C121 1.387 1_556 S
C120 H124 0.950 . S
C120 C129 1.390 . S
C121 C120 1.387 1_554 S
C121 C123 1.387 . S
H122 C129 0.950 . S
C123 C121 1.387 . S
C123 C125 1.390 . S
C123 H127 0.950 . S
H124 C120 0.950 . S
C125 C123 1.390 . S
C125 C126 1.387 . S
C125 H128 0.950 . S
C126 C125 1.387 . S
C126 C129 1.387 1_554 S
H127 C123 0.950 . S
H128 C125 0.950 . S
C129 C120 1.390 . S
C129 H122 0.950 . S
C129 C126 1.387 1_556 S
C130 C131 1.387 1_556 S
C130 H134 0.950 . S
C130 C139 1.390 . S
C131 C130 1.387 1_554 S
C131 C133 1.387 . S
H132 C139 0.950 . S
C133 C131 1.387 . S
C133 C135 1.390 . S
C133 H137 0.950 . S
H134 C130 0.950 . S
C135 C133 1.390 . S
C135 C136 1.387 . S
C135 H138 0.950 . S
C136 C135 1.387 . S
C136 C139 1.387 1_554 S
H137 C133 0.950 . S
H138 C135 0.950 . S
C139 C130 1.390 . S
C139 H132 0.950 . S
C139 C136 1.387 1_556 S
C140 C141 1.387 . S
C140 H144 0.950 . S
C140 C149 1.390 . S
C141 C140 1.387 . S
C141 C143 1.387 1_554 S
H142 C149 0.950 . S
C143 C141 1.387 1_556 S
C143 C145 1.390 . S
C143 H147 0.950 . S
H144 C140 0.950 . S
C145 C143 1.390 . S
C145 C146 1.387 1_556 S
C145 H148 0.950 . S
C146 C145 1.387 1_554 S
C146 C149 1.387 . S
H147 C143 0.950 . S
H148 C145 0.950 . S
C149 C140 1.390 . S
C149 H142 0.950 . S
C149 C146 1.387 . S
C150 C151 1.387 1_556 S
C150 H154 0.950 . S
C150 C159 1.390 . S
C151 C150 1.387 1_554 S
C151 C153 1.387 . S
H152 C159 0.950 . S
C153 C151 1.387 . S
C153 C155 1.390 . S
C153 H157 0.950 . S
H154 C150 0.950 . S
C155 C153 1.390 . S
C155 C156 1.387 1_554 S
C155 H158 0.950 . S
C156 C155 1.387 1_556 S
C156 C159 1.387 . S
H157 C153 0.950 . S
H158 C155 0.950 . S
C159 C150 1.390 . S
C159 H152 0.950 . S
C159 C156 1.387 . S
C160 C161 1.387 . S
C160 H164 0.950 . S
C160 C169 1.390 . S
C161 C160 1.387 . S
C161 C163 1.387 . S
H162 C169 0.950 . S
C163 C161 1.387 . S
C163 C165 1.390 . S
C163 H167 0.950 . S
H164 C160 0.950 . S
C165 C163 1.390 . S
C165 C166 1.387 . S
C165 H168 0.950 . S
C166 C165 1.387 . S
C166 C169 1.387 . S
H167 C163 0.950 . S
H168 C165 0.950 . S
C169 C160 1.390 . S
C169 H162 0.950 . S
C169 C166 1.387 . S
C170 C171 1.387 . S
C170 H174 0.950 . S
C170 C179 1.390 . S
C171 C170 1.387 . S
C171 C173 1.387 . S
H172 C179 0.950 . S
C173 C171 1.387 . S
C173 C175 1.390 . S
C173 H177 0.950 . S
H174 C170 0.950 . S
C175 C173 1.390 . S
C175 C176 1.387 . S
C175 H178 0.950 . S
C176 C175 1.387 . S
C176 C179 1.387 . S
H177 C173 0.950 . S
H178 C175 0.950 . S
C179 C170 1.390 . S
C179 H172 0.950 . S
C179 C176 1.387 . S
C180 C181 1.387 . S
C180 H184 0.950 . S
C180 C189 1.390 . S
C181 C180 1.387 . S
C181 C183 1.387 . S
H182 C189 0.950 . S
C183 C181 1.387 . S
C183 C185 1.390 . S
C183 H187 0.950 . S
H184 C180 0.950 . S
C185 C183 1.390 . S
C185 C186 1.387 . S
C185 H188 0.950 . S
C186 C185 1.387 . S
C186 C189 1.387 . S
H187 C183 0.950 . S
H188 C185 0.950 . S
C189 C180 1.390 . S
C189 H182 0.950 . S
C189 C186 1.387 . S
C190 C191 1.387 . S
C190 H194 0.950 . S
C190 C199 1.390 . S
C191 C190 1.387 . S
C191 C193 1.387 . S
H192 C199 0.950 . S
C193 C191 1.387 . S
C193 C195 1.390 . S
C193 H197 0.950 . S
H194 C190 0.950 . S
C195 C193 1.390 . S
C195 C196 1.387 . S
C195 H198 0.950 . S
C196 C195 1.387 . S
C196 C199 1.387 . S
H197 C193 0.950 . S
H198 C195 0.950 . S
C199 C190 1.390 . S
C199 H192 0.950 . S
C199 C196 1.387 . S
C200 C201 1.387 1_545 S
C200 H204 0.950 . S
C200 C209 1.390 . S
C201 C200 1.387 1_565 S
C201 C203 1.387 1_455 S
H202 C209 0.950 . S
C203 C201 1.387 1_655 S
C203 C205 1.390 . S
C203 H207 0.950 . S
H204 C200 0.950 . S
C205 C203 1.390 . S
C205 C206 1.387 1_655 S
C205 H208 0.950 . S
C206 C205 1.387 1_455 S
C206 C209 1.387 1_565 S
H207 C203 0.950 . S
H208 C205 0.950 . S
C209 C200 1.390 . S
C209 H202 0.950 . S
C209 C206 1.387 1_545 S
C210 C211 1.387 1_655 S
C210 H214 0.950 . S
C210 C219 1.390 . S
C211 C210 1.387 1_455 S
C211 C213 1.387 . S
H212 C219 0.950 . S
C213 C211 1.387 . S
C213 C215 1.390 . S
C213 H217 0.950 1_545 S
H214 C210 0.950 . S
C215 C213 1.390 . S
C215 C216 1.387 . S
C215 H218 0.950 1_545 S
C216 C215 1.387 . S
C216 C219 1.387 1_455 S
H217 C213 0.950 1_565 S
H218 C215 0.950 1_565 S
C219 C210 1.390 . S
C219 H212 0.950 . S
C219 C216 1.387 1_655 S
C220 C221 1.387 . S
C220 H224 0.950 . S
C220 C229 1.390 . S
C221 C220 1.387 . S
C221 C223 1.387 . S
H222 C229 0.950 . S
C223 C221 1.387 . S
C223 C225 1.390 . S
C223 H227 0.950 . S
H224 C220 0.950 . S
C225 C223 1.390 . S
C225 C226 1.387 . S
C225 H228 0.950 . S
C226 C225 1.387 . S
C226 C229 1.387 . S
H227 C223 0.950 . S
H228 C225 0.950 . S
C229 C220 1.390 . S
C229 H222 0.950 . S
C229 C226 1.387 . S
C230 C231 1.387 . S
C230 H234 0.950 . S
C230 C239 1.390 . S
C231 C230 1.387 . S
C231 C233 1.387 . S
H232 C239 0.950 . S
C233 C231 1.387 . S
C233 C235 1.390 . S
C233 H237 0.950 . S
H234 C230 0.950 . S
C235 C233 1.390 . S
C235 C236 1.387 . S
C235 H238 0.950 . S
C236 C235 1.387 . S
C236 C239 1.387 . S
H237 C233 0.950 . S
H238 C235 0.950 . S
C239 C230 1.390 . S
C239 H232 0.950 . S
C239 C236 1.387 . S
C126 N109 1.418 . S
C121 C29 1.438 . S
C131 C8 1.453 . S
C136 N96 1.419 1_554 S
C141 C0 1.514 . S
C146 N108 1.509 . S
C151 C17 1.506 . S
C156 N95 1.508 . S
C161 C63 1.438 . S
C166 N83 1.418 . S
C171 C42 1.453 . S
C176 N70 1.430 . S
C186 N82 1.509 . S
C181 C34 1.514 . S
C196 N69 1.508 . S
C191 C51 1.505 . S
C201 C4 1.521 . S
C206 N73 1.516 . S
C211 C13 1.530 . S
C216 N86 1.529 . S
C226 N99 1.516 . S
C221 C38 1.521 . S
C231 C47 1.530 . S
C236 N112 1.529 . S
