# Generated by pormake.
# Topology pth, (4,4)-cn, num edge types: 1
# Building blocks:
#     Node 0, Type 0, BuildingBlock: NAHDIM_clean_sbu_0, # of connection points: 4
#     Node 1, Type 0, BuildingBlock: NAHDIM_clean_sbu_0, # of connection points: 4
#     Node 2, Type 0, BuildingBlock: NAHDIM_clean_sbu_0, # of connection points: 4
#     Node 3, Type 1, BuildingBlock: MIFKUJ_clean_linker_1, # of connection points: 4
#     Node 4, Type 1, BuildingBlock: MIFKUJ_clean_linker_1, # of connection points: 4
#     Node 5, Type 1, BuildingBlock: MIFKUJ_clean_linker_1, # of connection points: 4
#     Edge 6, Type (0, 1), None
#     Edge 7, Type (0, 1), None
#     Edge 8, Type (0, 1), None
#     Edge 9, Type (0, 1), None
#     Edge 10, Type (0, 1), None
#     Edge 11, Type (0, 1), None
#     Edge 12, Type (0, 1), None
#     Edge 13, Type (0, 1), None
#     Edge 14, Type (0, 1), None
#     Edge 15, Type (0, 1), None
#     Edge 16, Type (0, 1), None
#     Edge 17, Type (0, 1), None
# Relax obj value: 0.043
# Max RMSD: 0.166
# Mean RMSD: 0.093
data_MOF--net-pth--node1-NAHDIM_clean_sbu_0--node2-MIFKUJ_clean_linker_1--edge1-none
_symmetry_space_group_name_H-M    P1
_symmetry_Int_Tables_number       1
_symmetry_cell_setting            triclinic
loop_
_symmetry_equiv_pos_as_xyz
'x, y, z'
_cell_length_a     16.104682
_cell_length_b     16.249101
_cell_length_c     33.836331
_cell_angle_alpha  92.35727
_cell_angle_beta   90.139159
_cell_angle_gamma 120.56579
loop_
_atom_site_label
_atom_site_type_symbol
_atom_site_fract_x
_atom_site_fract_y
_atom_site_fract_z
_atom_type_partial_charge
C0 C -0.00671 0.88334 0.09009 0.0
O1 O 0.9098 0.87576 0.08207 0.0
O2 O 0.02473 0.12846 0.0745 0.0
Zn3 Zn 0.04364 0.03439 0.04034 0.0
O4 O 0.93265 0.94594 0.00362 0.0
C5 C 0.13701 0.17769 0.98865 0.0
O6 O 0.05625 0.17658 0.99565 0.0
O7 O 0.06883 0.95007 0.07502 0.0
C8 C 0.85244 0.94055 0.99693 0.0
O9 O 0.83207 6e-05 0.01586 0.0
C10 C 0.96034 0.11717 0.09887 0.0
O11 O 0.88806 0.03083 0.10461 0.0
O12 O 0.15246 0.11735 0.00503 0.0
C13 C 0.0129 0.17225 0.32143 0.0
O14 O 0.93202 0.0928 0.32792 0.0
O15 O 0.04021 0.9661 0.3301 0.0
Zn16 Zn 0.06801 0.07435 0.369 0.0
O17 O 0.95636 0.05201 0.40332 0.0
C18 C 0.17569 0.02225 0.41633 0.0
O19 O 0.1002 0.93881 0.40582 0.0
O20 O 0.09151 0.1849 0.33632 0.0
C21 C 0.9192 0.00063 0.43279 0.0
O22 O 0.95157 0.94592 0.44466 0.0
C23 C 0.9658 0.88316 0.32673 0.0
O24 O 0.89345 0.86053 0.35037 0.0
O25 O 0.18161 0.09769 0.40358 0.0
C26 C 0.16378 0.0241 0.64863 0.0
O27 O 0.16342 0.10462 0.65263 0.0
O28 O 0.93142 0.00378 0.6726 0.0
Zn29 Zn 0.0254 0.9856 0.70532 0.0
O30 O 0.12148 0.10158 0.73866 0.0
C31 C 0.88373 0.89615 0.76082 0.0
O32 O 0.88531 0.97666 0.75592 0.0
O33 O 0.10559 0.95405 0.66878 0.0
C34 C 0.11253 0.16788 0.75545 0.0
O35 O 0.03124 0.16752 0.75133 0.0
C36 C 0.94068 0.0762 0.65566 0.0
O37 O 0.02322 0.15752 0.65846 0.0
O38 O 0.94234 0.88004 0.74163 0.0
H39 H 0.11816 0.44404 0.1314 0.0
H40 H 0.10227 0.30456 0.09402 0.0
H41 H 0.83816 0.12171 0.15387 0.0
H42 H 0.85375 0.26173 0.19051 0.0
H43 H 0.00595 0.52171 0.13381 0.0
H44 H 0.14465 0.42325 0.23614 0.0
H45 H 0.15525 0.30658 0.27672 0.0
H46 H 0.86292 0.20201 0.31354 0.0
H47 H 0.85401 0.32018 0.27407 0.0
H48 H 0.83965 0.57146 0.27515 0.0
H49 H 0.83064 0.69227 0.31752 0.0
H50 H 0.10229 0.91051 0.27276 0.0
H51 H 0.11114 0.78937 0.231 0.0
H52 H 0.97963 0.52475 0.2799 0.0
H53 H 0.85366 0.6388 0.17761 0.0
H54 H 0.85264 0.75982 0.13755 0.0
H55 H 0.14123 0.84756 0.09999 0.0
H56 H 0.14127 0.72511 0.14019 0.0
C57 C 0.98815 0.36324 0.16422 0.0
C58 C 0.0569 0.37392 0.13641 0.0
C59 C 0.04761 0.29397 0.11512 0.0
C60 C 0.96902 0.20176 0.12111 0.0
C61 C 0.89973 0.19147 0.14869 0.0
C62 C 0.90903 0.27147 0.16989 0.0
C63 C -0.00325 0.4478 0.1866 0.0
C64 C 0.00206 0.52334 0.16581 0.0
C65 C -0.00773 0.45064 0.22826 0.0
C66 C -0.00166 0.37963 0.25209 0.0
C67 C 0.08315 0.37516 0.25311 0.0
C68 C 0.08932 0.3091 0.27636 0.0
C69 C 0.0099 0.2454 0.29814 0.0
C70 C 0.92509 0.25002 0.29687 0.0
C71 C 0.91983 0.31743 0.27445 0.0
C72 C 0.97589 0.67154 0.24983 0.0
C73 C 0.89676 0.64559 0.27429 0.0
C74 C 0.89156 0.71468 0.2984 0.0
C75 C 0.96588 0.8109 0.29868 0.0
C76 C 0.0438 0.83696 0.27333 0.0
C77 C 0.04884 0.7679 0.24923 0.0
C78 C 0.98494 0.59678 0.22706 0.0
C79 C 0.9844 0.52373 0.24791 0.0
C80 C -0.00321 0.59821 0.1856 0.0
C81 C -0.0024 0.67331 0.16195 0.0
C82 C 0.91689 0.68445 0.16094 0.0
C83 C 0.91644 0.75354 0.13791 0.0
C84 C -0.00304 0.8133 0.11557 0.0
C85 C 0.07835 0.80288 0.11699 0.0
C86 C 0.07828 0.73279 0.13976 0.0
H87 H 0.73486 0.14102 0.45965 0.0
H88 H 0.85777 0.12732 0.42295 0.0
H89 H 0.80804 0.88872 0.49181 0.0
H90 H 0.68273 0.90084 0.52756 0.0
H91 H 0.55253 0.03152 0.46458 0.0
H92 H 0.80735 0.17717 0.56055 0.0
H93 H 0.94319 0.19751 0.60122 0.0
H94 H 0.75252 0.93275 0.65652 0.0
H95 H 0.61736 0.91335 0.61597 0.0
H96 H 0.3401 0.88462 0.60476 0.0
H97 H 0.21112 0.88384 0.64349 0.0
H98 H 0.28054 0.15446 0.59652 0.0
H99 H 0.40889 0.15482 0.55833 0.0
H100 H 0.53723 0.0243 0.61093 0.0
H101 H 0.28513 0.88613 0.5052 0.0
H102 H 0.15992 0.88341 0.46327 0.0
H103 H 0.3622 0.16969 0.42858 0.0
H104 H 0.48796 0.17113 0.47034 0.0
C105 C 0.70032 0.02293 0.49678 0.0
C106 C 0.75003 0.08547 0.46675 0.0
C107 C 0.8204 0.07749 0.4458 0.0
C108 C 0.84288 0.00696 0.45455 0.0
C109 C 0.79285 0.94411 0.48452 0.0
C110 C 0.7217 0.95154 0.50519 0.0
C111 C 0.62385 0.03005 0.5184 0.0
C112 C 0.55029 0.03151 0.49662 0.0
C113 C 0.6206 0.03077 0.5602 0.0
C114 C 0.70253 0.04328 0.58504 0.0
C115 C 0.79507 0.12355 0.58143 0.0
C116 C 0.87245 0.13538 0.60483 0.0
C117 C 0.85865 0.06667 0.63199 0.0
C118 C 0.76564 0.9868 0.63573 0.0
C119 C 0.68821 0.97563 0.61268 0.0
C120 C 0.38362 0.01954 0.57855 0.0
C121 C 0.32678 0.94331 0.60269 0.0
C122 C 0.25296 0.94275 0.62465 0.0
C123 C 0.23574 0.01912 0.62313 0.0
C124 C 0.29195 0.09453 0.59841 0.0
C125 C 0.36516 0.09474 0.57638 0.0
C126 C 0.46508 0.02274 0.557 0.0
C127 C 0.54004 0.02444 0.5789 0.0
C128 C 0.47167 0.02904 0.51546 0.0
C129 C 0.39549 0.02878 0.49084 0.0
C130 C 0.30234 0.94833 0.48866 0.0
C131 C 0.23107 0.94692 0.46459 0.0
C132 C 0.25137 0.0264 0.44258 0.0
C133 C 0.34444 0.10761 0.44529 0.0
C134 C 0.41626 0.10836 0.46895 0.0
H135 H 0.43131 0.3293 0.80188 0.0
H136 H 0.29817 0.2056 0.76031 0.0
H137 H 0.10932 0.30026 0.80704 0.0
H138 H 0.24286 0.42357 0.84851 0.0
H139 H 0.51281 0.52483 0.80153 0.0
H140 H 0.39916 0.29659 0.90559 0.0
H141 H 0.27972 0.17195 0.94694 0.0
H142 H 0.15668 0.34947 0.97381 0.0
H143 H 0.27765 0.47423 0.93355 0.0
H144 H 0.54429 0.7513 0.94072 0.0
H145 H 0.66265 0.88537 0.98379 0.0
H146 H 0.882 0.82157 0.94748 0.0
H147 H 0.76351 0.68806 0.90483 0.0
H148 H 0.48845 0.56082 0.94668 0.0
H149 H 0.63431 0.80029 0.84877 0.0
H150 H 0.76298 0.91988 0.80981 0.0
H151 H 0.838 0.7105 0.76955 0.0
H152 H 0.70876 0.59081 0.80913 0.0
C153 C 0.34658 0.38461 0.82862 0.0
C154 C 0.36109 0.32296 0.80325 0.0
C155 C 0.28489 0.25242 0.77953 0.0
C156 C 0.19312 0.24321 0.78038 0.0
C157 C 0.17906 0.30559 0.80564 0.0
C158 C 0.25509 0.3755 0.82961 0.0
C159 C 0.4278 0.46204 0.85262 0.0
C160 C 0.50854 0.53191 0.83337 0.0
C161 C 0.42242 0.47136 0.89401 0.0
C162 C 0.34645 0.394 0.91652 0.0
C163 C 0.34597 0.30805 0.92033 0.0
C164 C 0.27833 0.23738 0.94405 0.0
C165 C 0.2092 0.2512 0.96356 0.0
C166 C 0.20894 0.33673 0.95899 0.0
C167 C 0.27781 0.40805 0.93605 0.0
C168 C 0.64537 0.71014 0.91948 0.0
C169 C 0.61817 0.76687 0.94194 0.0
C170 C 0.68583 0.84354 0.96642 0.0
C171 C 0.78157 0.86393 0.96918 0.0
C172 C 0.80874 0.80769 0.94615 0.0
C173 C 0.74128 0.73156 0.92156 0.0
C174 C 0.57223 0.62558 0.89549 0.0
C175 C 0.49339 0.55372 0.91486 0.0
C176 C 0.58133 0.61341 0.85436 0.0
C177 C 0.66244 0.68693 0.83207 0.0
C178 C 0.67926 0.78044 0.83202 0.0
C179 C 0.7527 0.8486 0.80954 0.0
C180 C 0.81069 0.82459 0.78651 0.0
C181 C 0.79476 0.73122 0.78705 0.0
C182 C 0.72081 0.66279 0.80951 0.0
loop_
_geom_bond_atom_site_label_1
_geom_bond_atom_site_label_2
_geom_bond_distance
_geom_bond_site_symmetry_2
_ccdc_geom_bond_type
C0 O1 1.160 1_455 S
C0 O7 1.185 . S
O1 C0 1.160 1_655 S
O2 Zn3 1.899 . S
O2 C10 1.284 1_455 S
Zn3 O2 1.899 . S
Zn3 O4 2.032 1_445 S
Zn3 O7 2.086 1_545 S
Zn3 O12 1.977 . S
O4 Zn3 2.032 1_665 S
O4 C8 1.278 1_554 S
C5 O6 1.203 . S
C5 O12 1.267 1_556 S
O6 C5 1.203 . S
O7 C0 1.185 . S
O7 Zn3 2.086 1_565 S
C8 O4 1.278 1_556 S
C8 O9 1.211 1_565 S
O9 C8 1.211 1_545 S
C10 O2 1.284 1_655 S
C10 O11 1.273 . S
O11 C10 1.273 . S
O12 Zn3 1.977 . S
O12 C5 1.267 1_554 S
C13 O14 1.160 . S
C13 O20 1.185 . S
O14 C13 1.160 . S
O15 Zn16 1.899 1_565 S
O15 C23 1.284 1_455 S
Zn16 O15 1.899 1_545 S
Zn16 O17 2.032 1_455 S
Zn16 O20 2.086 . S
Zn16 O25 1.977 . S
O17 Zn16 2.032 1_655 S
O17 C21 1.278 . S
C18 O19 1.203 1_545 S
C18 O25 1.267 . S
O19 C18 1.203 1_565 S
O20 C13 1.185 . S
O20 Zn16 2.086 . S
C21 O17 1.278 . S
C21 O22 1.211 1_545 S
O22 C21 1.211 1_565 S
C23 O15 1.284 1_655 S
C23 O24 1.273 . S
O24 C23 1.273 . S
O25 Zn16 1.977 . S
O25 C18 1.267 . S
C26 O27 1.160 1_565 S
C26 O33 1.185 . S
O27 C26 1.160 1_545 S
O28 Zn29 1.899 1_665 S
O28 C36 1.284 1_565 S
Zn29 O28 1.899 1_445 S
Zn29 O30 2.032 . S
Zn29 O33 2.086 1_545 S
Zn29 O38 1.977 1_445 S
O30 Zn29 2.032 . S
O30 C34 1.278 . S
C31 O32 1.203 . S
C31 O38 1.267 . S
O32 C31 1.203 . S
O33 C26 1.185 . S
O33 Zn29 2.086 1_565 S
C34 O30 1.278 . S
C34 O35 1.211 . S
O35 C34 1.211 . S
C36 O28 1.284 1_545 S
C36 O37 1.273 . S
O37 C36 1.273 . S
O38 Zn29 1.977 1_665 S
O38 C31 1.267 . S
H39 C58 0.949 . S
H40 C59 0.950 . S
H41 C61 0.950 . S
H42 C62 0.950 . S
H43 C64 0.950 . S
H44 C67 0.950 . S
H45 C68 0.950 . S
H46 C70 0.951 . S
H47 C71 0.949 . S
H48 C73 0.949 . S
H49 C74 0.950 . S
H50 C76 0.950 . S
H51 C77 0.950 . S
H52 C79 0.952 . S
H53 C82 0.950 . S
H54 C83 0.950 . S
H55 C85 0.951 . S
H56 C86 0.949 . S
C57 C58 1.376 . S
C57 C62 1.386 1_455 S
C57 C63 1.483 . S
C58 H39 0.949 . S
C58 C57 1.376 . S
C58 C59 1.397 . S
C59 H40 0.950 . S
C59 C58 1.397 . S
C59 C60 1.391 . S
C60 C59 1.391 . S
C60 C61 1.405 1_455 S
C61 H41 0.950 . S
C61 C60 1.405 1_655 S
C61 C62 1.367 . S
C62 H42 0.950 . S
C62 C57 1.386 1_655 S
C62 C61 1.367 . S
C63 C57 1.483 . S
C63 C64 1.382 . S
C63 C65 1.403 . S
C64 H43 0.950 . S
C64 C63 1.382 . S
C64 C80 1.411 . S
C65 C63 1.403 . S
C65 C66 1.489 . S
C65 C79 1.404 1_455 S
C66 C65 1.489 . S
C66 C67 1.383 . S
C66 C71 1.382 1_455 S
C67 H44 0.950 . S
C67 C66 1.383 . S
C67 C68 1.395 . S
C68 H45 0.950 . S
C68 C67 1.395 . S
C68 C69 1.288 . S
C69 C68 1.288 . S
C69 C70 1.392 1_455 S
C70 H46 0.951 . S
C70 C69 1.392 1_655 S
C70 C71 1.392 . S
C71 H47 0.949 . S
C71 C66 1.382 1_655 S
C71 C70 1.392 . S
C72 C73 1.376 1_455 S
C72 C77 1.386 . S
C72 C78 1.483 . S
C73 H48 0.949 . S
C73 C72 1.376 1_655 S
C73 C74 1.397 . S
C74 H49 0.950 . S
C74 C73 1.397 . S
C74 C75 1.391 1_655 S
C75 C74 1.391 1_455 S
C75 C76 1.405 . S
C76 H50 0.950 . S
C76 C75 1.405 . S
C76 C77 1.367 . S
C77 H51 0.950 . S
C77 C72 1.386 . S
C77 C76 1.367 . S
C78 C72 1.483 . S
C78 C79 1.387 1_455 S
C78 C80 1.403 . S
C79 H52 0.952 . S
C79 C65 1.404 1_655 S
C79 C78 1.387 1_655 S
C80 C64 1.411 . S
C80 C78 1.403 . S
C80 C81 1.489 . S
C81 C80 1.489 . S
C81 C82 1.383 1_455 S
C81 C86 1.382 . S
C82 H53 0.950 . S
C82 C81 1.383 1_655 S
C82 C83 1.395 . S
C83 H54 0.950 . S
C83 C82 1.395 . S
C83 C84 1.288 1_655 S
C84 C83 1.288 1_455 S
C84 C85 1.392 . S
C85 H55 0.951 . S
C85 C84 1.392 . S
C85 C86 1.392 . S
C86 H56 0.949 . S
C86 C81 1.382 . S
C86 C85 1.392 . S
H87 C106 0.949 . S
H88 C107 0.950 . S
H89 C109 0.950 . S
H90 C110 0.950 . S
H91 C112 0.950 . S
H92 C115 0.950 . S
H93 C116 0.950 . S
H94 C118 0.951 . S
H95 C119 0.949 . S
H96 C121 0.949 . S
H97 C122 0.950 . S
H98 C124 0.950 . S
H99 C125 0.950 . S
H100 C127 0.950 1_565 S
H101 C130 0.950 . S
H102 C131 0.950 . S
H103 C133 0.951 . S
H104 C134 0.949 . S
C105 C106 1.376 . S
C105 C110 1.386 1_545 S
C105 C111 1.483 . S
C106 H87 0.949 . S
C106 C105 1.376 . S
C106 C107 1.397 . S
C107 H88 0.950 . S
C107 C106 1.397 . S
C107 C108 1.391 . S
C108 C107 1.391 . S
C108 C109 1.405 1_545 S
C109 H89 0.950 . S
C109 C108 1.405 1_565 S
C109 C110 1.367 . S
C110 H90 0.950 . S
C110 C105 1.386 1_565 S
C110 C109 1.367 . S
C111 C105 1.483 . S
C111 C112 1.382 . S
C111 C113 1.403 . S
C112 H91 0.950 . S
C112 C111 1.382 . S
C112 C128 1.411 . S
C113 C111 1.403 . S
C113 C114 1.489 . S
C113 C127 1.411 . S
C114 C113 1.489 . S
C114 C115 1.383 . S
C114 C119 1.382 1_545 S
C115 H92 0.950 . S
C115 C114 1.383 . S
C115 C116 1.395 . S
C116 H93 0.950 . S
C116 C115 1.395 . S
C116 C117 1.288 . S
C117 C116 1.288 . S
C117 C118 1.392 1_545 S
C118 H94 0.951 . S
C118 C117 1.392 1_565 S
C118 C119 1.392 . S
C119 H95 0.949 . S
C119 C114 1.382 1_565 S
C119 C118 1.392 . S
C120 C121 1.376 1_545 S
C120 C125 1.386 . S
C120 C126 1.483 . S
C121 H96 0.949 . S
C121 C120 1.376 1_565 S
C121 C122 1.397 . S
C122 H97 0.950 . S
C122 C121 1.397 . S
C122 C123 1.391 1_565 S
C123 C122 1.391 1_545 S
C123 C124 1.405 . S
C124 H98 0.950 . S
C124 C123 1.405 . S
C124 C125 1.367 . S
C125 H99 0.950 . S
C125 C120 1.386 . S
C125 C124 1.367 . S
C126 C120 1.483 . S
C126 C127 1.382 . S
C126 C128 1.403 . S
C127 H100 0.950 1_545 S
C127 C113 1.411 . S
C127 C126 1.382 . S
C128 C112 1.411 . S
C128 C126 1.403 . S
C128 C129 1.489 . S
C129 C128 1.489 . S
C129 C130 1.383 1_545 S
C129 C134 1.382 . S
C130 H101 0.950 . S
C130 C129 1.383 1_565 S
C130 C131 1.395 . S
C131 H102 0.950 . S
C131 C130 1.395 . S
C131 C132 1.288 1_565 S
C132 C131 1.288 1_545 S
C132 C133 1.392 . S
C133 H103 0.951 . S
C133 C132 1.392 . S
C133 C134 1.392 . S
C134 H104 0.949 . S
C134 C129 1.382 . S
C134 C133 1.392 . S
H135 C154 0.949 . S
H136 C155 0.950 . S
H137 C157 0.950 . S
H138 C158 0.950 . S
H139 C160 0.950 . S
H140 C163 0.950 . S
H141 C164 0.950 . S
H142 C166 0.951 . S
H143 C167 0.949 . S
H144 C169 0.949 . S
H145 C170 0.950 . S
H146 C172 0.950 . S
H147 C173 0.950 . S
H148 C175 0.950 . S
H149 C178 0.950 . S
H150 C179 0.950 . S
H151 C181 0.951 . S
H152 C182 0.949 . S
C153 C154 1.376 . S
C153 C158 1.386 . S
C153 C159 1.483 . S
C154 H135 0.949 . S
C154 C153 1.376 . S
C154 C155 1.397 . S
C155 H136 0.950 . S
C155 C154 1.397 . S
C155 C156 1.391 . S
C156 C155 1.391 . S
C156 C157 1.405 . S
C157 H137 0.950 . S
C157 C156 1.405 . S
C157 C158 1.367 . S
C158 H138 0.950 . S
C158 C153 1.386 . S
C158 C157 1.367 . S
C159 C153 1.483 . S
C159 C160 1.382 . S
C159 C161 1.403 . S
C160 H139 0.950 . S
C160 C159 1.382 . S
C160 C176 1.411 . S
C161 C159 1.403 . S
C161 C162 1.489 . S
C161 C175 1.411 . S
C162 C161 1.489 . S
C162 C163 1.383 . S
C162 C167 1.382 . S
C163 H140 0.950 . S
C163 C162 1.383 . S
C163 C164 1.395 . S
C164 H141 0.950 . S
C164 C163 1.395 . S
C164 C165 1.288 . S
C165 C164 1.288 . S
C165 C166 1.392 . S
C166 H142 0.951 . S
C166 C165 1.392 . S
C166 C167 1.392 . S
C167 H143 0.949 . S
C167 C162 1.382 . S
C167 C166 1.392 . S
C168 C169 1.376 . S
C168 C173 1.386 . S
C168 C174 1.483 . S
C169 H144 0.949 . S
C169 C168 1.376 . S
C169 C170 1.397 . S
C170 H145 0.950 . S
C170 C169 1.397 . S
C170 C171 1.391 . S
C171 C170 1.391 . S
C171 C172 1.405 . S
C172 H146 0.950 . S
C172 C171 1.405 . S
C172 C173 1.367 . S
C173 H147 0.950 . S
C173 C168 1.386 . S
C173 C172 1.367 . S
C174 C168 1.483 . S
C174 C175 1.382 . S
C174 C176 1.403 . S
C175 H148 0.950 . S
C175 C161 1.411 . S
C175 C174 1.382 . S
C176 C160 1.411 . S
C176 C174 1.403 . S
C176 C177 1.489 . S
C177 C176 1.489 . S
C177 C178 1.383 . S
C177 C182 1.382 . S
C178 H149 0.950 . S
C178 C177 1.383 . S
C178 C179 1.395 . S
C179 H150 0.950 . S
C179 C178 1.395 . S
C179 C180 1.288 . S
C180 C179 1.288 . S
C180 C181 1.392 . S
C181 H151 0.951 . S
C181 C180 1.392 . S
C181 C182 1.392 . S
C182 H152 0.949 . S
C182 C177 1.382 . S
C182 C181 1.392 . S
C60 C10 1.508 1_455 S
C21 C108 1.505 . S
C31 C180 1.405 . S
C0 C84 1.438 . S
C132 C18 1.368 . S
C34 C156 1.403 . S
C117 C36 1.611 . S
C8 C171 1.410 . S
C75 C23 1.496 1_455 S
C123 C26 1.330 1_545 S
C165 C5 1.516 . S
C13 C69 1.555 . S
