# Generated by pormake.
# Topology pts, (4,4)-cn, num edge types: 1
# Building blocks:
#     Node 0, Type 0, BuildingBlock: NAWXER_clean_linker_0, # of connection points: 4
#     Node 1, Type 0, BuildingBlock: NAWXER_clean_linker_0, # of connection points: 4
#     Node 2, Type 1, BuildingBlock: QUQFOY_clean_sbu_1, # of connection points: 4
#     Node 3, Type 1, BuildingBlock: QUQFOY_clean_sbu_1, # of connection points: 4
#     Edge 4, Type (0, 1), BuildingBlock: CIFDUS_clean_linker_0, # of connection points: 2
#     Edge 5, Type (0, 1), BuildingBlock: CIFDUS_clean_linker_0, # of connection points: 2
#     Edge 6, Type (0, 1), BuildingBlock: CIFDUS_clean_linker_0, # of connection points: 2
#     Edge 7, Type (0, 1), BuildingBlock: CIFDUS_clean_linker_0, # of connection points: 2
#     Edge 8, Type (0, 1), BuildingBlock: CIFDUS_clean_linker_0, # of connection points: 2
#     Edge 9, Type (0, 1), BuildingBlock: CIFDUS_clean_linker_0, # of connection points: 2
#     Edge 10, Type (0, 1), BuildingBlock: CIFDUS_clean_linker_0, # of connection points: 2
#     Edge 11, Type (0, 1), BuildingBlock: CIFDUS_clean_linker_0, # of connection points: 2
# Relax obj value: 0.095
# Max RMSD: 0.252
# Mean RMSD: 0.145
data_MOF--net-pts--node1-QUQFOY_clean_sbu_1--node2-NAWXER_clean_linker_0--edge1-CIFDUS_clean_linker_0
_symmetry_space_group_name_H-M    P1
_symmetry_Int_Tables_number       1
_symmetry_cell_setting            triclinic
loop_
_symmetry_equiv_pos_as_xyz
'x, y, z'
_cell_length_a     25.151036
_cell_length_b     27.634205
_cell_length_c     40.52879
_cell_angle_alpha  89.714719
_cell_angle_beta   89.952807
_cell_angle_gamma 89.821968
loop_
_atom_site_label
_atom_site_type_symbol
_atom_site_fract_x
_atom_site_fract_y
_atom_site_fract_z
_atom_type_partial_charge
C0 C 0.65853 0.04696 0.94571 0.0
C1 C 0.6716 0.00899 0.92404 0.0
C2 C 0.61511 0.04304 0.96704 0.0
C3 C 0.58334 1.00149 0.96677 0.0
C4 C 0.64034 0.96675 0.92474 0.0
C5 C 0.59613 0.96342 0.9455 0.0
C6 C 0.53388 0.99991 0.9862 0.0
C7 C 0.66209 0.96838 0.06111 0.0
C8 C 0.66314 0.99895 0.08876 0.0
C9 C 0.62086 0.97173 0.03811 0.0
C10 C 0.58029 0.0063 0.04199 0.0
C11 C 0.62301 0.03407 0.09223 0.0
C12 C 0.58207 0.03764 0.06913 0.0
C13 C 0.5325 0.0062 0.02067 0.0
C14 C 0.30379 0.98193 0.05799 0.0
C15 C 0.30078 0.01881 0.08175 0.0
C16 C 0.34736 0.97917 0.03656 0.0
C17 C 0.38845 0.01332 0.03858 0.0
C18 C 0.34167 0.05322 0.08329 0.0
C19 C 0.3851 0.05034 0.06204 0.0
C20 C 0.43765 0.00849 0.01897 0.0
C21 C 0.31096 0.04148 0.94315 0.0
C22 C 0.30756 0.00848 0.9169 0.0
C23 C 0.35267 0.03854 0.96583 0.0
C24 C 0.3913 1.00195 0.96312 0.0
C25 C 0.34607 0.97167 0.91444 0.0
C26 C 0.3875 0.96855 0.93726 0.0
C27 C 0.43899 1.0014 0.98448 0.0
H28 H 0.68071 0.08045 0.94557 0.0
H29 H 0.60511 0.07324 0.98286 0.0
H30 H 0.64969 0.93621 0.90914 0.0
H31 H 0.57181 0.93114 0.94492 0.0
H32 H 0.69268 0.94125 0.05749 0.0
H33 H 0.61971 0.94592 0.01813 0.0
H34 H 0.62206 0.05774 0.11344 0.0
H35 H 0.55092 0.06421 0.07295 0.0
H36 H 0.2727 0.95505 0.05617 0.0
H37 H 0.34966 0.94966 0.01913 0.0
H38 H 0.34094 0.0816 0.10162 0.0
H39 H 0.41665 0.07674 0.06427 0.0
H40 H 0.28174 0.07002 0.94596 0.0
H41 H 0.35554 0.06587 0.98478 0.0
H42 H 0.34524 0.94614 0.89427 0.0
H43 H 0.41729 0.94049 0.93432 0.0
N44 N 0.48718 0.9974 0.9695 0.0
N45 N 0.48441 0.01047 0.03558 0.0
C46 C 0.03301 0.66849 0.55119 0.0
C47 C -0.00748 0.67474 0.57473 0.0
C48 C 0.03611 0.62598 0.53273 0.0
C49 C -0.00171 0.58914 0.53705 0.0
C50 C 0.95502 0.6376 0.57922 0.0
C51 C 0.95804 0.59517 0.56066 0.0
C52 C 0.00146 0.54363 0.51792 0.0
C53 C 0.96154 0.65961 0.44345 0.0
C54 C 0.00672 0.67327 0.42534 0.0
C55 C 0.96201 0.61724 0.46243 0.0
C56 C 0.00736 0.5875 0.46311 0.0
C57 C 0.05214 0.64359 0.42613 0.0
C58 C 0.05219 0.60061 0.44453 0.0
C59 C 0.00798 0.5429 0.48334 0.0
C60 C 0.96895 0.33382 0.45095 0.0
C61 C 0.00842 0.32582 0.42698 0.0
C62 C 0.96872 0.37632 0.4695 0.0
C63 C 0.00846 0.41135 0.46486 0.0
C64 C 0.04767 0.36131 0.42205 0.0
C65 C 0.04752 0.40374 0.4407 0.0
C66 C 0.00855 0.45659 0.48436 0.0
C67 C 0.03851 0.33387 0.55476 0.0
C68 C -0.00028 0.32842 0.57948 0.0
C69 C 0.04007 0.37582 0.53535 0.0
C70 C 0.00212 0.41271 0.53975 0.0
C71 C 0.96258 0.36586 0.58436 0.0
C72 C 0.96386 0.4076 0.56474 0.0
C73 C 0.00282 0.45723 0.51911 0.0
H74 H 0.06314 0.69595 0.54762 0.0
H75 H 0.06868 0.6216 0.51551 0.0
H76 H 0.92311 0.64143 0.59698 0.0
H77 H 0.92861 0.56715 0.56457 0.0
H78 H 0.92608 0.68196 0.44311 0.0
H79 H 0.92693 0.60751 0.47647 0.0
H80 H 0.08724 0.65331 0.4121 0.0
H81 H 0.08747 0.57802 0.44474 0.0
H82 H 0.93754 0.30769 0.45487 0.0
H83 H 0.93717 0.38198 0.48729 0.0
H84 H 0.07881 0.35612 0.40392 0.0
H85 H 0.07831 0.43041 0.43652 0.0
H86 H 0.0683 0.30608 0.55086 0.0
H87 H 0.07119 0.3795 0.51704 0.0
H88 H 0.93208 0.36262 0.60312 0.0
H89 H 0.93446 0.43568 0.56882 0.0
N90 N -0.00104 0.50077 0.53448 0.0
N91 N 0.01141 0.4995 0.46784 0.0
O92 O 0.91055 0.9686 0.23093 0.0
Cd93 Cd 0.98011 0.94829 0.2542 0.0
Cd94 Cd -0.00741 0.05079 0.25544 0.0
O95 O 0.92062 0.04789 0.23152 0.0
O96 O 0.96828 0.87794 0.26225 0.0
O97 O 0.98488 0.92959 0.30242 0.0
C98 C 0.97501 0.88585 0.29323 0.0
C99 C 0.00319 0.11658 0.2913 0.0
C100 C 0.89412 0.01077 0.22341 0.0
C101 C 0.07345 0.99001 0.21797 0.0
O102 O 0.05809 0.03132 0.22793 0.0
O103 O 0.04829 0.95194 0.22606 0.0
O104 O 0.00322 0.12191 0.25977 0.0
O105 O -0.00253 0.07331 0.30291 0.0
O106 O 0.91866 0.04223 0.77936 0.0
Cd107 Cd 0.98753 0.05306 0.7529 0.0
Cd108 Cd 0.97921 0.94938 0.74705 0.0
O109 O 0.90697 0.9645 0.76898 0.0
O110 O -0.00913 0.12486 0.74867 0.0
O111 O 0.98701 0.07654 0.70553 0.0
C112 C 0.98931 0.11995 0.71712 0.0
C113 C 0.97885 0.8831 0.71093 0.0
C114 C 0.89139 0.00381 0.78196 0.0
C115 C 0.07266 0.99277 0.78473 0.0
O116 O 0.047 0.95552 0.77571 0.0
O117 O 0.05679 0.0349 0.77672 0.0
O118 O 0.97419 0.87781 0.74233 0.0
O119 O 0.98383 0.92658 0.69958 0.0
H120 H 0.25701 0.944 0.11621 0.0
H121 H 0.24535 0.09847 0.1015 0.0
H122 H 0.17623 0.10327 0.14362 0.0
H123 H 0.11911 0.06391 0.18431 0.0
H124 H 0.12791 0.90909 0.19822 0.0
H125 H 0.19829 0.90415 0.15668 0.0
C126 C 0.23882 0.97859 0.12194 0.0
C127 C 0.25634 0.02083 0.10579 0.0
C128 C 0.19897 0.9811 0.14618 0.0
C129 C 0.23297 0.06551 0.11383 0.0
C130 C 0.1934 0.06829 0.13787 0.0
C131 C 0.13665 0.02906 0.17851 0.0
C132 C 0.11844 0.98697 0.19451 0.0
C133 C 0.17633 0.02639 0.1543 0.0
C134 C 0.14127 0.94209 0.18634 0.0
C135 C 0.1814 0.93921 0.16252 0.0
H136 H 0.98832 0.32365 0.64598 0.0
H137 H 0.00898 0.23404 0.5601 0.0
H138 H 0.00721 0.16135 0.59485 0.0
H139 H -0.00042 0.12326 0.64992 0.0
H140 H 0.98032 0.21408 0.73552 0.0
H141 H 0.98125 0.28602 0.70061 0.0
C142 C -0.00803 0.28818 0.63485 0.0
C143 C -0.00143 0.28424 0.60052 0.0
C144 C -0.00885 0.24668 0.65495 0.0
C145 C 0.00425 0.23805 0.58651 0.0
C146 C 0.00301 0.19648 0.60635 0.0
C147 C -0.00451 0.15879 0.66089 0.0
C148 C 0.98983 0.16316 0.69531 0.0
C149 C -0.0035 0.20033 0.64064 0.0
C150 C 0.98485 0.20954 0.70914 0.0
C151 C 0.98532 0.25082 0.68919 0.0
H152 H 0.7145 0.06985 0.12262 0.0
H153 H 0.70454 0.91454 0.11337 0.0
H154 H 0.77274 0.9045 0.15559 0.0
H155 H 0.83669 0.9397 0.19409 0.0
H156 H 0.84595 0.09501 0.20387 0.0
H157 H 0.77519 0.10495 0.16325 0.0
C158 C 0.72674 0.03376 0.13009 0.0
C159 C 0.70465 0.99307 0.11457 0.0
C160 C 0.76552 0.02818 0.1547 0.0
C161 C 0.72161 0.94659 0.12433 0.0
C162 C 0.76027 0.94076 0.14873 0.0
C163 C 0.82286 0.97575 0.18768 0.0
C164 C 0.84682 0.01651 0.20199 0.0
C165 C 0.78269 0.9813 0.16395 0.0
C166 C 0.82835 0.06294 0.19325 0.0
C167 C 0.78802 0.06871 0.16989 0.0
H168 H 0.97407 0.68019 0.64055 0.0
H169 H 0.00702 0.7689 0.55515 0.0
H170 H 0.00541 0.84151 0.58947 0.0
H171 H -0.00499 0.87974 0.64413 0.0
H172 H 0.96213 0.78961 0.72904 0.0
H173 H 0.96267 0.71793 0.69447 0.0
C174 C 0.98025 0.71545 0.62935 0.0
C175 C -0.00953 0.71908 0.59533 0.0
C176 C 0.97929 0.75691 0.64918 0.0
C177 C -0.00049 0.76503 0.58134 0.0
C178 C -0.00163 0.80659 0.60093 0.0
C179 C 0.98783 0.84443 0.65501 0.0
C180 C 0.97858 0.84019 0.68916 0.0
C181 C 0.98843 0.80297 0.63494 0.0
C182 C 0.96947 0.79408 0.70287 0.0
C183 C 0.96974 0.75293 0.68311 0.0
H184 H 0.25172 0.93648 0.887 0.0
H185 H 0.26866 0.09187 0.88932 0.0
H186 H 0.19908 0.1005 0.84786 0.0
H187 H 0.13262 0.06423 0.81158 0.0
H188 H 0.11657 0.90875 0.80838 0.0
H189 H 0.18776 0.89996 0.84886 0.0
C190 C 0.24065 0.97223 0.87819 0.0
C191 C 0.26521 0.01344 0.89152 0.0
C192 C 0.20104 0.97696 0.85399 0.0
C193 C 0.24975 0.05952 0.88006 0.0
C194 C 0.21027 0.06451 0.85609 0.0
C195 C 0.1449 0.02835 0.81948 0.0
C196 C 0.11907 0.98725 0.80695 0.0
C197 C 0.18551 0.02351 0.843 0.0
C198 C 0.13566 0.94107 0.81757 0.0
C199 C 0.17627 0.93597 0.84083 0.0
H200 H 0.02507 0.31902 0.36098 0.0
H201 H 0.98961 0.23258 0.44709 0.0
H202 H 0.98603 0.15979 0.41305 0.0
H203 H -0.00835 0.12088 0.35839 0.0
H204 H 0.02671 0.20863 0.27269 0.0
H205 H 0.03256 0.28036 0.30707 0.0
C206 C 0.01724 0.28418 0.3724 0.0
C207 C 0.0077 0.28129 0.40653 0.0
C208 C 0.01518 0.24259 0.35272 0.0
C209 C -0.00342 0.23591 0.4208 0.0
C210 C -0.00523 0.19423 0.40137 0.0
C211 C 0.00085 0.15566 0.3473 0.0
C212 C 0.00864 0.15927 0.31299 0.0
C213 C 0.00375 0.19715 0.36724 0.0
C214 C 0.02035 0.2047 0.299 0.0
C215 C 0.02372 0.24586 0.31864 0.0
H216 H 0.67937 0.97232 0.86156 0.0
H217 H 0.76611 0.05692 0.93291 0.0
H218 H 0.83855 0.06703 0.89372 0.0
H219 H 0.87934 0.04917 0.84011 0.0
H220 H 0.79832 0.956 0.77173 0.0
H221 H 0.72183 0.95119 0.80912 0.0
C222 C 0.71437 0.9923 0.86893 0.0
C223 C 0.7167 0.01394 0.90033 0.0
C224 C 0.75698 0.99648 0.84673 0.0
C225 C 0.76226 0.04064 0.9088 0.0
C226 C 0.80409 0.04617 0.88646 0.0
C227 C 0.84458 0.02833 0.83329 0.0
C228 C 0.84385 0.00349 0.80315 0.0
C229 C 0.80194 0.02416 0.85543 0.0
C230 C 0.79937 0.97561 0.7948 0.0
C231 C 0.75583 0.97279 0.81617 0.0
H232 H 0.93985 0.69424 0.37525 0.0
H233 H 0.07241 0.75114 0.42973 0.0
H234 H 0.0718 0.82445 0.3953 0.0
H235 H 0.03501 0.87104 0.34822 0.0
H236 H 0.908 0.80967 0.29078 0.0
H237 H 0.90441 0.73971 0.32784 0.0
C238 C 0.9683 0.72294 0.3796 0.0
C239 C 0.00591 0.71775 0.40493 0.0
C240 C 0.96857 0.76412 0.35918 0.0
C241 C 0.04318 0.75461 0.41024 0.0
C242 C 0.04273 0.79644 0.39063 0.0
C243 C 0.00628 0.8425 0.34414 0.0
C244 C 0.97155 0.84548 0.31705 0.0
C245 C 0.0058 0.80148 0.36487 0.0
C246 C 0.93509 0.808 0.31153 0.0
C247 C 0.93305 0.76803 0.33267 0.0
loop_
_geom_bond_atom_site_label_1
_geom_bond_atom_site_label_2
_geom_bond_distance
_geom_bond_site_symmetry_2
_ccdc_geom_bond_type
C0 C1 1.384 1_545 S
C0 C2 1.384 . S
C0 H28 0.931 . S
C1 C0 1.384 1_565 S
C1 C4 1.382 . S
C2 C0 1.384 . S
C2 C3 1.381 1_545 S
C2 H29 0.930 . S
C3 C2 1.381 1_565 S
C3 C5 1.381 . S
C3 C6 1.487 . S
C4 C1 1.382 . S
C4 C5 1.387 . S
C4 H30 0.930 . S
C5 C3 1.381 . S
C5 C4 1.387 . S
C5 H31 0.931 . S
C6 C3 1.487 . S
C6 C13 1.399 1_566 S
C6 N44 1.343 . S
C7 C8 1.384 1_565 S
C7 C9 1.384 . S
C7 H32 0.931 . S
C8 C7 1.384 1_545 S
C8 C11 1.382 . S
C9 C7 1.384 . S
C9 C10 1.381 1_565 S
C9 H33 0.930 . S
C10 C9 1.381 1_545 S
C10 C12 1.381 . S
C10 C13 1.487 . S
C11 C8 1.382 . S
C11 C12 1.387 . S
C11 H34 0.930 . S
C12 C10 1.381 . S
C12 C11 1.387 . S
C12 H35 0.931 . S
C13 C6 1.399 1_544 S
C13 C10 1.487 . S
C13 N45 1.343 . S
C14 C15 1.384 1_565 S
C14 C16 1.384 . S
C14 H36 0.931 . S
C15 C14 1.384 1_545 S
C15 C18 1.382 . S
C16 C14 1.384 . S
C16 C17 1.381 1_565 S
C16 H37 0.930 . S
C17 C16 1.381 1_545 S
C17 C19 1.381 . S
C17 C20 1.487 . S
C18 C15 1.382 . S
C18 C19 1.387 . S
C18 H38 0.930 . S
C19 C17 1.381 . S
C19 C18 1.387 . S
C19 H39 0.931 . S
C20 C17 1.487 . S
C20 C27 1.399 1_544 S
C20 N45 1.343 . S
C21 C22 1.384 1_545 S
C21 C23 1.384 . S
C21 H40 0.931 . S
C22 C21 1.384 1_565 S
C22 C25 1.382 . S
C23 C21 1.384 . S
C23 C24 1.381 1_545 S
C23 H41 0.930 . S
C24 C23 1.381 1_565 S
C24 C26 1.381 . S
C24 C27 1.487 . S
C25 C22 1.382 . S
C25 C26 1.387 . S
C25 H42 0.930 . S
C26 C24 1.381 . S
C26 C25 1.387 . S
C26 H43 0.931 . S
C27 C20 1.399 1_566 S
C27 C24 1.487 . S
C27 N44 1.343 . S
H28 C0 0.931 . S
H29 C2 0.930 . S
H30 C4 0.930 . S
H31 C5 0.931 . S
H32 C7 0.931 . S
H33 C9 0.930 . S
H34 C11 0.930 . S
H35 C12 0.931 . S
H36 C14 0.931 . S
H37 C16 0.930 . S
H38 C18 0.930 . S
H39 C19 0.931 . S
H40 C21 0.931 . S
H41 C23 0.930 . S
H42 C25 0.930 . S
H43 C26 0.931 . S
N44 C6 1.343 . S
N44 C27 1.343 . S
N45 C13 1.343 . S
N45 C20 1.343 . S
C46 C47 1.384 1_455 S
C46 C48 1.384 . S
C46 H74 0.931 . S
C47 C46 1.384 1_655 S
C47 C50 1.382 . S
C48 C46 1.384 . S
C48 C49 1.381 1_455 S
C48 H75 0.930 . S
C49 C48 1.381 1_655 S
C49 C51 1.381 . S
C49 C52 1.487 . S
C50 C47 1.382 . S
C50 C51 1.387 . S
C50 H76 0.930 . S
C51 C49 1.381 . S
C51 C50 1.387 . S
C51 H77 0.931 . S
C52 C49 1.487 . S
C52 C59 1.399 1_655 S
C52 N90 1.343 . S
C53 C54 1.384 1_655 S
C53 C55 1.384 . S
C53 H78 0.931 . S
C54 C53 1.384 1_455 S
C54 C57 1.382 . S
C55 C53 1.384 . S
C55 C56 1.381 1_655 S
C55 H79 0.930 . S
C56 C55 1.381 1_455 S
C56 C58 1.381 . S
C56 C59 1.487 . S
C57 C54 1.382 . S
C57 C58 1.387 . S
C57 H80 0.930 . S
C58 C56 1.381 . S
C58 C57 1.387 . S
C58 H81 0.931 . S
C59 C52 1.399 1_455 S
C59 C56 1.487 . S
C59 N91 1.343 . S
C60 C61 1.384 1_655 S
C60 C62 1.384 . S
C60 H82 0.931 . S
C61 C60 1.384 1_455 S
C61 C64 1.382 . S
C62 C60 1.384 . S
C62 C63 1.381 1_655 S
C62 H83 0.930 . S
C63 C62 1.381 1_455 S
C63 C65 1.381 . S
C63 C66 1.487 . S
C64 C61 1.382 . S
C64 C65 1.387 . S
C64 H84 0.930 . S
C65 C63 1.381 . S
C65 C64 1.387 . S
C65 H85 0.931 . S
C66 C63 1.487 . S
C66 C73 1.399 1_455 S
C66 N91 1.343 . S
C67 C68 1.384 1_455 S
C67 C69 1.384 . S
C67 H86 0.931 . S
C68 C67 1.384 1_655 S
C68 C71 1.382 . S
C69 C67 1.384 . S
C69 C70 1.381 1_455 S
C69 H87 0.930 . S
C70 C69 1.381 1_655 S
C70 C72 1.381 . S
C70 C73 1.487 . S
C71 C68 1.382 . S
C71 C72 1.387 . S
C71 H88 0.930 . S
C72 C70 1.381 . S
C72 C71 1.387 . S
C72 H89 0.931 . S
C73 C66 1.399 1_655 S
C73 C70 1.487 . S
C73 N90 1.343 . S
H74 C46 0.931 . S
H75 C48 0.930 . S
H76 C50 0.930 . S
H77 C51 0.931 . S
H78 C53 0.931 . S
H79 C55 0.930 . S
H80 C57 0.930 . S
H81 C58 0.931 . S
H82 C60 0.931 . S
H83 C62 0.930 . S
H84 C64 0.930 . S
H85 C65 0.931 . S
H86 C67 0.931 . S
H87 C69 0.930 . S
H88 C71 0.930 . S
H89 C72 0.931 . S
N90 C52 1.343 . S
N90 C73 1.343 . S
N91 C59 1.343 . S
N91 C66 1.343 . S
O92 Cd93 2.223 1_655 S
O92 C100 1.315 . S
Cd93 O92 2.223 1_455 S
Cd93 O96 2.297 1_455 S
Cd93 O97 2.439 1_455 S
Cd93 O103 2.240 1_565 S
Cd94 O95 2.240 1_545 S
Cd94 O102 2.223 1_655 S
Cd94 O104 2.297 1_655 S
Cd94 O105 2.439 1_655 S
O95 Cd94 2.240 1_565 S
O95 C100 1.279 . S
O96 Cd93 2.297 1_655 S
O96 C98 1.247 . S
O97 Cd93 2.439 1_655 S
O97 C98 1.208 . S
C98 O96 1.247 . S
C98 O97 1.208 . S
C99 O104 1.247 . S
C99 O105 1.208 . S
C100 O92 1.315 . S
C100 O95 1.279 . S
C101 O102 1.315 . S
C101 O103 1.279 . S
O102 Cd94 2.223 1_455 S
O102 C101 1.315 . S
O103 Cd93 2.240 1_545 S
O103 C101 1.279 . S
O104 Cd94 2.297 1_455 S
O104 C99 1.247 . S
O105 Cd94 2.439 1_455 S
O105 C99 1.208 . S
O106 Cd107 2.223 1_655 S
O106 C114 1.315 . S
Cd107 O106 2.223 1_455 S
Cd107 O110 2.297 1_455 S
Cd107 O111 2.439 1_455 S
Cd107 O117 2.240 1_545 S
Cd108 O109 2.240 1_565 S
Cd108 O116 2.223 1_655 S
Cd108 O118 2.297 1_655 S
Cd108 O119 2.439 1_655 S
O109 Cd108 2.240 1_545 S
O109 C114 1.279 . S
O110 Cd107 2.297 1_655 S
O110 C112 1.247 . S
O111 Cd107 2.439 1_655 S
O111 C112 1.208 . S
C112 O110 1.247 . S
C112 O111 1.208 . S
C113 O118 1.247 . S
C113 O119 1.208 . S
C114 O106 1.315 . S
C114 O109 1.279 . S
C115 O116 1.315 . S
C115 O117 1.279 . S
O116 Cd108 2.223 1_455 S
O116 C115 1.315 . S
O117 Cd107 2.240 1_565 S
O117 C115 1.279 . S
O118 Cd108 2.297 1_455 S
O118 C113 1.247 . S
O119 Cd108 2.439 1_455 S
O119 C113 1.208 . S
H120 C126 0.930 . S
H121 C129 0.930 . S
H122 C130 0.930 . S
H123 C131 0.930 . S
H124 C134 0.930 . S
H125 C135 0.930 . S
C126 H120 0.930 . S
C126 C127 1.355 1_565 S
C126 C128 1.415 . S
C127 C126 1.355 1_545 S
C127 C129 1.419 . S
C128 C126 1.415 . S
C128 C133 1.425 1_565 S
C128 C135 1.409 . S
C129 H121 0.930 . S
C129 C127 1.419 . S
C129 C130 1.362 . S
C130 H122 0.930 . S
C130 C129 1.362 . S
C130 C133 1.409 . S
C131 H123 0.930 . S
C131 C132 1.355 . S
C131 C133 1.415 . S
C132 C131 1.355 . S
C132 C134 1.419 1_545 S
C133 C128 1.425 1_545 S
C133 C130 1.409 . S
C133 C131 1.415 . S
C134 H124 0.930 . S
C134 C132 1.419 1_565 S
C134 C135 1.362 . S
C135 H125 0.930 . S
C135 C128 1.409 . S
C135 C134 1.362 . S
H136 C142 0.930 . S
H137 C145 0.930 . S
H138 C146 0.930 . S
H139 C147 0.930 . S
H140 C150 0.930 . S
H141 C151 0.925 1_455 S
C142 H136 0.930 . S
C142 C143 1.355 1_455 S
C142 C144 1.415 1_455 S
C143 C142 1.355 1_655 S
C143 C145 1.419 . S
C144 C142 1.415 1_655 S
C144 C149 1.425 . S
C144 C151 1.411 . S
C145 H137 0.930 . S
C145 C143 1.419 . S
C145 C146 1.362 . S
C146 H138 0.930 . S
C146 C145 1.362 . S
C146 C149 1.409 . S
C147 H139 0.930 . S
C147 C148 1.355 . S
C147 C149 1.415 . S
C148 C147 1.355 . S
C148 C150 1.419 . S
C149 C144 1.425 . S
C149 C146 1.409 . S
C149 C147 1.415 . S
C150 H140 0.930 . S
C150 C148 1.419 . S
C150 C151 1.366 . S
C151 H141 0.925 1_655 S
C151 C144 1.411 . S
C151 C150 1.366 . S
H152 C158 0.930 . S
H153 C161 0.930 . S
H154 C162 0.930 . S
H155 C163 0.930 . S
H156 C166 0.930 . S
H157 C167 0.930 . S
C158 H152 0.930 . S
C158 C159 1.355 1_545 S
C158 C160 1.415 . S
C159 C158 1.355 1_565 S
C159 C161 1.419 . S
C160 C158 1.415 . S
C160 C165 1.425 1_545 S
C160 C167 1.409 . S
C161 H153 0.930 . S
C161 C159 1.419 . S
C161 C162 1.362 . S
C162 H154 0.930 . S
C162 C161 1.362 . S
C162 C165 1.409 . S
C163 H155 0.930 . S
C163 C164 1.355 . S
C163 C165 1.415 . S
C164 C163 1.355 . S
C164 C166 1.419 1_565 S
C165 C160 1.425 1_565 S
C165 C162 1.409 . S
C165 C163 1.415 . S
C166 H156 0.930 . S
C166 C164 1.419 1_545 S
C166 C167 1.362 . S
C167 H157 0.930 . S
C167 C160 1.409 . S
C167 C166 1.362 . S
H168 C174 0.930 . S
H169 C177 0.930 . S
H170 C178 0.930 . S
H171 C179 0.930 . S
H172 C182 0.930 . S
H173 C183 0.930 . S
C174 H168 0.930 . S
C174 C175 1.355 1_655 S
C174 C176 1.415 . S
C175 C174 1.355 1_455 S
C175 C177 1.419 . S
C176 C174 1.415 . S
C176 C181 1.425 1_655 S
C176 C183 1.409 . S
C177 H169 0.930 . S
C177 C175 1.419 . S
C177 C178 1.362 . S
C178 H170 0.930 . S
C178 C177 1.362 . S
C178 C181 1.409 . S
C179 H171 0.930 . S
C179 C180 1.355 . S
C179 C181 1.415 . S
C180 C179 1.355 . S
C180 C182 1.419 1_455 S
C181 C176 1.425 1_455 S
C181 C178 1.409 . S
C181 C179 1.415 . S
C182 H172 0.930 . S
C182 C180 1.419 1_655 S
C182 C183 1.362 . S
C183 H173 0.930 . S
C183 C176 1.409 . S
C183 C182 1.362 . S
H184 C190 0.930 . S
H185 C193 0.930 . S
H186 C194 0.930 . S
H187 C195 0.930 . S
H188 C198 0.930 . S
H189 C199 0.930 . S
C190 H184 0.930 . S
C190 C191 1.355 . S
C190 C192 1.415 . S
C191 C190 1.355 . S
C191 C193 1.419 . S
C192 C190 1.415 . S
C192 C197 1.425 . S
C192 C199 1.409 . S
C193 H185 0.930 . S
C193 C191 1.419 . S
C193 C194 1.362 . S
C194 H186 0.930 . S
C194 C193 1.362 . S
C194 C197 1.409 . S
C195 H187 0.930 . S
C195 C196 1.355 . S
C195 C197 1.415 . S
C196 C195 1.355 . S
C196 C198 1.419 . S
C197 C192 1.425 . S
C197 C194 1.409 . S
C197 C195 1.415 . S
C198 H188 0.930 . S
C198 C196 1.419 . S
C198 C199 1.362 . S
C199 H189 0.930 . S
C199 C192 1.409 . S
C199 C198 1.362 . S
H200 C206 0.930 . S
H201 C209 0.930 . S
H202 C210 0.930 . S
H203 C211 0.930 . S
H204 C214 0.926 1_655 S
H205 C215 0.930 . S
C206 H200 0.930 . S
C206 C207 1.355 1_655 S
C206 C208 1.415 1_655 S
C207 C206 1.355 1_455 S
C207 C209 1.419 . S
C208 C206 1.415 1_455 S
C208 C213 1.425 . S
C208 C215 1.409 1_455 S
C209 H201 0.930 . S
C209 C207 1.419 . S
C209 C210 1.362 . S
C210 H202 0.930 . S
C210 C209 1.362 . S
C210 C213 1.409 . S
C211 H203 0.930 . S
C211 C212 1.355 . S
C211 C213 1.415 . S
C212 C211 1.355 . S
C212 C214 1.419 . S
C213 C208 1.425 . S
C213 C210 1.409 . S
C213 C211 1.415 . S
C214 H204 0.926 1_455 S
C214 C212 1.419 . S
C214 C215 1.362 1_455 S
C215 H205 0.930 . S
C215 C208 1.409 1_655 S
C215 C214 1.362 1_655 S
H216 C222 0.930 1_565 S
H217 C225 0.930 . S
H218 C226 0.930 . S
H219 C227 0.930 . S
H220 C230 0.930 . S
H221 C231 0.930 . S
C222 H216 0.930 1_545 S
C222 C223 1.355 . S
C222 C224 1.415 . S
C223 C222 1.355 . S
C223 C225 1.419 . S
C224 C222 1.415 . S
C224 C229 1.425 . S
C224 C231 1.409 . S
C225 H217 0.930 . S
C225 C223 1.419 . S
C225 C226 1.362 . S
C226 H218 0.930 . S
C226 C225 1.362 . S
C226 C229 1.409 . S
C227 H219 0.930 . S
C227 C228 1.355 . S
C227 C229 1.415 . S
C228 C227 1.355 . S
C228 C230 1.419 . S
C229 C224 1.425 . S
C229 C226 1.409 . S
C229 C227 1.415 . S
C230 H220 0.930 . S
C230 C228 1.419 . S
C230 C231 1.362 . S
C231 H221 0.930 . S
C231 C224 1.409 . S
C231 C230 1.362 . S
H232 C238 0.930 . S
H233 C241 0.930 . S
H234 C242 0.930 . S
H235 C243 0.930 . S
H236 C246 0.930 . S
H237 C247 0.930 . S
C238 H232 0.930 . S
C238 C239 1.370 . S
C238 C240 1.415 . S
C239 C238 1.370 . S
C239 C241 1.404 1_655 S
C240 C238 1.415 . S
C240 C245 1.425 1_655 S
C240 C247 1.409 . S
C241 H233 0.930 . S
C241 C239 1.404 1_455 S
C241 C242 1.362 . S
C242 H234 0.930 . S
C242 C241 1.362 . S
C242 C245 1.409 . S
C243 H235 0.930 . S
C243 C244 1.355 1_455 S
C243 C245 1.415 . S
C244 C243 1.355 1_655 S
C244 C246 1.419 . S
C245 C240 1.425 1_455 S
C245 C242 1.409 . S
C245 C243 1.415 . S
C246 H236 0.930 . S
C246 C244 1.419 . S
C246 C247 1.362 . S
C247 H237 0.930 . S
C247 C240 1.409 . S
C247 C246 1.362 . S
C132 C101 1.601 . S
C127 C15 1.584 . S
C148 C112 1.502 . S
C143 C68 1.587 . S
C164 C100 1.604 . S
C159 C8 1.597 1_565 S
C180 C113 1.489 . S
C175 C47 1.590 1_455 S
C196 C115 1.606 . S
C191 C22 1.596 . S
C212 C99 1.499 . S
C207 C61 1.586 . S
C228 C114 1.597 . S
C223 C1 1.607 1_545 S
C239 C54 1.604 1_655 S
C244 C98 1.560 . S
