# Generated by pormake.
# Topology pyr, (3,6)-cn, num edge types: 1
# Building blocks:
#     Node 0, Type 0, BuildingBlock: INOVEN_clean_linker_0, # of connection points: 3
#     Node 1, Type 0, BuildingBlock: INOVEN_clean_linker_0, # of connection points: 3
#     Node 2, Type 0, BuildingBlock: INOVEN_clean_linker_0, # of connection points: 3
#     Node 3, Type 0, BuildingBlock: INOVEN_clean_linker_0, # of connection points: 3
#     Node 4, Type 0, BuildingBlock: INOVEN_clean_linker_0, # of connection points: 3
#     Node 5, Type 0, BuildingBlock: INOVEN_clean_linker_0, # of connection points: 3
#     Node 6, Type 0, BuildingBlock: INOVEN_clean_linker_0, # of connection points: 3
#     Node 7, Type 0, BuildingBlock: INOVEN_clean_linker_0, # of connection points: 3
#     Node 8, Type 1, BuildingBlock: JUFBIX_clean_sbu_0, # of connection points: 6
#     Node 9, Type 1, BuildingBlock: JUFBIX_clean_sbu_0, # of connection points: 6
#     Node 10, Type 1, BuildingBlock: JUFBIX_clean_sbu_0, # of connection points: 6
#     Node 11, Type 1, BuildingBlock: JUFBIX_clean_sbu_0, # of connection points: 6
#     Edge 12, Type (0, 1), None
#     Edge 13, Type (0, 1), None
#     Edge 14, Type (0, 1), None
#     Edge 15, Type (0, 1), None
#     Edge 16, Type (0, 1), None
#     Edge 17, Type (0, 1), None
#     Edge 18, Type (0, 1), None
#     Edge 19, Type (0, 1), None
#     Edge 20, Type (0, 1), None
#     Edge 21, Type (0, 1), None
#     Edge 22, Type (0, 1), None
#     Edge 23, Type (0, 1), None
#     Edge 24, Type (0, 1), None
#     Edge 25, Type (0, 1), None
#     Edge 26, Type (0, 1), None
#     Edge 27, Type (0, 1), None
#     Edge 28, Type (0, 1), None
#     Edge 29, Type (0, 1), None
#     Edge 30, Type (0, 1), None
#     Edge 31, Type (0, 1), None
#     Edge 32, Type (0, 1), None
#     Edge 33, Type (0, 1), None
#     Edge 34, Type (0, 1), None
#     Edge 35, Type (0, 1), None
# Relax obj value: 0.306
# Max RMSD: 0.231
# Mean RMSD: 0.131
data_MOF--net-pyr--node1-JUFBIX_clean_sbu_0--node2-INOVEN_clean_linker_0--edge1-none
_symmetry_space_group_name_H-M    P1
_symmetry_Int_Tables_number       1
_symmetry_cell_setting            triclinic
loop_
_symmetry_equiv_pos_as_xyz
'x, y, z'
_cell_length_a     15.276719
_cell_length_b     14.987117
_cell_length_c     16.544495
_cell_angle_alpha  81.331761
_cell_angle_beta   86.045486
_cell_angle_gamma 97.939758
loop_
_atom_site_label
_atom_site_type_symbol
_atom_site_fract_x
_atom_site_fract_y
_atom_site_fract_z
_atom_type_partial_charge
H0 H 0.17093 0.20821 0.34424 0.0
H1 H 0.38436 0.04672 0.34403 0.0
H2 H 0.33204 0.21116 0.11979 0.0
N3 N 0.20719 0.28913 0.18347 0.0
N4 N 0.15104 0.32948 0.21589 0.0
C5 C 0.22473 0.18375 0.31215 0.0
C6 C 0.27243 0.12072 0.35655 0.0
C7 C 0.24708 0.21747 0.22732 0.0
C8 C 0.31551 0.18471 0.18454 0.0
C9 C 0.36685 0.12403 0.22453 0.0
C10 C 0.34555 0.09343 0.31172 0.0
H11 H 0.64306 0.92567 0.54299 0.0
H12 H 0.52571 0.81428 0.78746 0.0
H13 H 0.63005 0.09978 0.72313 0.0
N14 N 0.64136 0.09785 0.56518 0.0
N15 N 0.57831 0.14304 0.55931 0.0
C16 C 0.62774 0.93404 0.60579 0.0
C17 C 0.59305 0.85796 0.66475 0.0
C18 C 0.63701 0.02089 0.62666 0.0
C19 C 0.61989 0.03158 0.7077 0.0
C20 C 0.57133 0.96023 0.76328 0.0
C21 C 0.55849 0.8715 0.74271 0.0
H22 H 0.62372 0.33055 0.95478 0.0
H23 H 0.82725 0.30669 0.12173 0.0
H24 H 0.83977 0.54879 0.93907 0.0
N25 N 0.68672 0.48473 0.87329 0.0
N26 N 0.72606 0.5476 0.82014 0.0
C27 C 0.68444 0.35809 0.97848 0.0
C28 C 0.72011 0.30566 1.04113 0.0
C29 C 0.72639 0.44394 0.94164 0.0
C30 C 0.80658 0.48223 0.96903 0.0
C31 C 0.84308 0.43496 1.03617 0.0
C32 C 0.79892 0.34562 0.07223 0.0
H33 H 1.00158 0.53816 0.60646 0.0
H34 H 1.04647 0.79266 0.68408 0.0
H35 H 0.22813 0.72973 0.50084 0.0
N36 N 0.09596 0.60736 0.47101 0.0
N37 N 1.01941 0.61774 0.45316 0.0
C38 C 1.04748 0.59883 0.6109 0.0
C39 C 1.01137 0.67139 0.6355 0.0
C40 C 0.11778 0.62454 0.54906 0.0
C41 C 0.17732 0.70466 0.55127 0.0
C42 C 0.15423 0.764 0.60481 0.0
C43 C 1.07241 0.74146 0.65344 0.0
H44 H 0.96415 0.01239 0.82767 0.0
H45 H 0.14316 0.81707 0.88039 0.0
H46 H 0.91549 0.81692 1.05134 0.0
N47 N 0.85115 0.95963 0.96392 0.0
N48 N 0.8125 0.94571 1.03543 0.0
C49 C 0.98452 0.95693 0.86846 0.0
C50 C 1.06379 0.92266 0.84525 0.0
C51 C 0.931 0.92139 0.94349 0.0
C52 C 0.95671 0.84682 0.99531 0.0
C53 C 1.0322 0.80702 0.97321 0.0
C54 C 0.08592 0.84715 0.89869 0.0
H55 H 0.65563 0.26835 0.41622 0.0
H56 H 0.86397 0.10603 0.39944 0.0
H57 H 0.86302 0.28156 0.57933 0.0
N58 N 0.73871 0.37092 0.5213 0.0
N59 N 0.66172 0.37566 0.54831 0.0
C60 C 0.71806 0.24955 0.43485 0.0
C61 C 0.75218 0.17563 0.40699 0.0
C62 C 0.76341 0.29308 0.49335 0.0
C63 C 0.83531 0.2575 0.52658 0.0
C64 C 0.86802 0.18726 0.49384 0.0
C65 C 0.83579 0.15948 0.42484 0.0
H66 H 0.53553 0.76993 0.27418 0.0
H67 H 0.35914 0.7901 0.08477 0.0
H68 H 0.30223 0.56875 0.29139 0.0
N69 N 0.44903 0.62973 0.37294 0.0
N70 N 0.52557 0.65878 0.39103 0.0
C71 C 0.47592 0.74196 0.24933 0.0
C72 C 0.45203 0.79008 0.1785 0.0
C73 C 0.42331 0.66415 0.29283 0.0
C74 C 0.3449 0.62856 0.25806 0.0
C75 C 0.32254 0.67058 0.17923 0.0
C76 C 0.37723 0.75295 0.14101 0.0
H77 H 1.02176 0.24457 0.69557 0.0
H78 H 0.30687 0.30438 0.64726 0.0
H79 H 0.1616 0.51314 0.6929 0.0
N80 N 1.0074 0.40244 0.75263 0.0
N81 N 1.01205 0.4513 0.80821 0.0
C82 C 0.08266 0.29287 0.68711 0.0
C83 C 0.16399 0.2676 0.65893 0.0
C84 C 0.08249 0.38003 0.70861 0.0
C85 C 0.15995 0.44215 0.69074 0.0
C86 C 0.23956 0.4116 0.67884 0.0
C87 C 0.24295 0.32575 0.65967 0.0
Co88 Co 0.11396 0.02249 0.58668 0.0
C89 C 0.18392 0.86183 0.58453 0.0
Co90 Co 0.24689 0.02228 0.62446 0.0
C91 C 0.98242 0.09188 0.51033 0.0
C92 C 0.92818 0.99599 0.61608 0.0
N93 N 0.99939 0.01745 0.55937 0.0
N94 N 0.9128 0.12483 0.54083 0.0
C95 C 0.87566 0.06302 0.60545 0.0
H96 H 1.02484 0.12824 0.45727 0.0
H97 H 0.9187 0.94002 0.66695 0.0
C98 C 0.16894 0.17914 0.63514 0.0
N99 N 0.36273 0.04244 0.65192 0.0
C100 C 0.43363 0.04948 0.59669 0.0
C101 C 0.38886 0.1011 0.70358 0.0
N102 N 0.49866 0.11481 0.60842 0.0
C103 C 0.47189 0.1481 0.67516 0.0
C104 C 0.24109 0.08397 0.44776 0.0
O105 O 0.10215 0.1355 0.61277 0.0
O106 O 0.23997 0.14501 0.63703 0.0
O107 O 0.29284 0.06326 0.50289 0.0
O108 O 0.15932 0.0751 0.47249 0.0
O109 O 0.25157 0.89905 0.61433 0.0
H110 H 0.34564 0.11826 0.75165 0.0
H111 H 0.43425 0.01509 0.54368 0.0
O112 O 0.12342 0.90814 0.56239 0.0
O113 O 1.06859 0.97018 0.69914 0.0
O114 O 0.19853 0.97896 0.74486 0.0
C115 C 0.11378 0.95844 0.76003 0.0
H116 H 0.81463 0.06582 0.6414 0.0
H117 H 0.50853 0.20345 0.69975 0.0
Co118 Co 0.5617 0.04681 1.05308 0.0
C119 C 0.50442 0.88241 0.15186 0.0
Co120 Co 0.61563 0.0418 0.17052 0.0
C121 C 0.57199 0.03724 0.88494 0.0
C122 C 0.43878 0.99889 0.9394 0.0
N123 N 0.51866 0.04448 0.95112 0.0
N124 N 0.53161 0.98218 0.8372 0.0
C125 C 0.44699 0.95944 0.86959 0.0
H126 H 0.64205 0.06425 0.87577 0.0
H127 H 0.38172 0.98427 0.98439 0.0
C128 C 0.6732 0.20941 1.06811 0.0
N129 N 0.65165 0.04225 0.27056 0.0
C130 C 0.66214 0.11856 0.30491 0.0
C131 C 0.67837 0.97672 0.32334 0.0
N132 N 0.6993 0.10539 0.37498 0.0
C133 C 0.70846 0.01575 0.38782 0.0
C134 C 0.73365 0.98254 1.06011 0.0
O135 O 0.62048 0.17166 1.0221 0.0
O136 O 0.68219 0.16416 0.13716 0.0
O137 O 0.71933 0.99236 0.13452 0.0
O138 O 0.67447 0.00192 1.01193 0.0
O139 O 0.55104 0.92126 0.20154 0.0
H140 H 0.68183 0.90782 0.31256 0.0
H141 H 0.65007 0.18487 0.27589 0.0
O142 O 0.50291 0.92476 0.08075 0.0
O143 O 0.45085 0.08989 0.1002 0.0
O144 O 0.51427 0.08713 0.21369 0.0
C145 C 0.4466 0.09892 0.17662 0.0
H146 H 0.39596 0.91547 0.84597 0.0
H147 H 0.74448 0.98343 0.43522 0.0
Co148 Co 0.68668 0.6421 0.58073 0.0
C149 C 0.56029 0.64178 0.46886 0.0
Co150 Co 0.55851 0.58153 0.63912 0.0
C151 C 0.86554 0.64009 0.57899 0.0
C152 C 0.84154 0.77339 0.52787 0.0
N153 N 0.80344 0.68527 0.54367 0.0
N154 N 0.93575 0.69673 0.59477 0.0
C155 C 0.9229 0.78033 0.55903 0.0
H156 H 0.85366 0.56828 0.60485 0.0
H157 H 0.80831 0.83011 0.5052 0.0
C158 C 0.68373 0.57594 0.7493 0.0
N159 N 0.4516 0.53717 0.68489 0.0
C160 C 0.39044 0.4897 0.64811 0.0
C161 C 0.41484 0.54055 0.76055 0.0
N162 N 0.31643 0.46417 0.69738 0.0
C163 C 0.33052 0.49393 0.7687 0.0
C164 C 0.64559 0.45765 0.57453 0.0
O165 O 0.72889 0.62329 0.68764 0.0
O166 O 0.60396 0.5449 0.74208 0.0
O167 O 0.5711 0.46502 0.60887 0.0
O168 O 0.70624 0.52591 0.56198 0.0
O169 O 0.5098 0.61451 0.53469 0.0
H170 H 0.44791 0.57281 0.80675 0.0
H171 H 0.39991 0.47333 0.58685 0.0
O172 O 0.64372 0.66176 0.47369 0.0
O173 O 0.667 0.75835 0.59772 0.0
O174 O 0.54319 0.69765 0.6711 0.0
C175 C 0.60009 0.76728 0.64352 0.0
H176 H 0.96756 0.84243 0.55778 0.0
H177 H 0.28494 0.47896 0.82327 0.0
Co178 Co 0.1208 0.54925 1.04342 0.0
C179 C 0.92865 0.47877 1.06436 0.0
Co180 Co 1.04621 0.57094 0.15295 0.0
C181 C 0.11808 0.4576 0.91059 0.0
C182 C 0.1816 0.59597 0.87833 0.0
N183 N 0.16535 0.52623 0.94161 0.0
N184 N 0.092 0.48662 0.83635 0.0
C185 C 0.12988 0.57459 0.81765 0.0
H186 H 0.08595 0.3949 0.94871 0.0
H187 H 0.21234 0.66433 0.88276 0.0
C188 C 0.23818 0.63441 0.14153 0.0
N189 N 0.99691 0.58995 0.24845 0.0
C190 C 1.03732 0.57949 0.31765 0.0
C191 C 0.92083 0.6217 0.26731 0.0
N192 N 0.99043 0.60501 0.37838 0.0
C193 C 0.91681 0.63139 0.34882 0.0
C194 C 0.11988 0.4059 0.17039 0.0
O195 O 0.23924 0.60497 0.07242 0.0
O196 O 0.16242 0.6309 0.18033 0.0
O197 O 1.074 0.45477 0.20723 0.0
O198 O 0.14515 0.43234 0.09473 0.0
O199 O 0.93072 0.50916 0.13162 0.0
H200 H 0.87374 0.6398 0.22403 0.0
H201 H 0.10156 0.55744 0.32271 0.0
O202 O 1.00069 0.49345 1.01805 0.0
O203 O 0.09843 0.66892 0.99121 0.0
O204 O 1.01794 0.68994 0.09759 0.0
C205 C 1.05113 0.71921 1.0238 0.0
H206 H 0.11514 0.62239 0.76731 0.0
H207 H 0.86692 0.65965 0.38237 0.0
loop_
_geom_bond_atom_site_label_1
_geom_bond_atom_site_label_2
_geom_bond_distance
_geom_bond_site_symmetry_2
_ccdc_geom_bond_type
H0 C5 0.929 . S
H1 C10 0.931 . S
H2 C8 0.930 . S
N3 N4 1.234 . S
N3 C7 1.453 . S
N4 N3 1.234 . S
C5 H0 0.929 . S
C5 C6 1.373 . S
C5 C7 1.368 . S
C6 C5 1.373 . S
C6 C10 1.397 . S
C7 N3 1.453 . S
C7 C5 1.368 . S
C7 C8 1.373 . S
C8 H2 0.930 . S
C8 C7 1.373 . S
C8 C9 1.371 . S
C9 C8 1.371 . S
C9 C10 1.383 . S
C10 H1 0.931 . S
C10 C6 1.397 . S
C10 C9 1.383 . S
H11 C16 0.929 . S
H12 C21 0.931 . S
H13 C19 0.930 . S
N14 N15 1.234 . S
N14 C18 1.453 . S
N15 N14 1.234 . S
C16 H11 0.929 . S
C16 C17 1.373 . S
C16 C18 1.368 . S
C17 C16 1.373 . S
C17 C21 1.397 . S
C18 N14 1.453 . S
C18 C16 1.368 . S
C18 C19 1.373 . S
C19 H13 0.930 . S
C19 C18 1.373 . S
C19 C20 1.371 . S
C20 C19 1.371 . S
C20 C21 1.383 . S
C21 H12 0.931 . S
C21 C17 1.397 . S
C21 C20 1.383 . S
H22 C27 0.929 . S
H23 C32 0.931 . S
H24 C30 0.930 . S
N25 N26 1.234 . S
N25 C29 1.453 . S
N26 N25 1.234 . S
C27 H22 0.929 . S
C27 C28 1.373 . S
C27 C29 1.368 . S
C28 C27 1.373 . S
C28 C32 1.397 1_556 S
C29 N25 1.453 . S
C29 C27 1.368 . S
C29 C30 1.373 . S
C30 H24 0.930 . S
C30 C29 1.373 . S
C30 C31 1.371 . S
C31 C30 1.371 . S
C31 C32 1.383 1_556 S
C32 H23 0.931 . S
C32 C28 1.397 1_554 S
C32 C31 1.383 1_554 S
H33 C38 0.929 . S
H34 C43 0.931 . S
H35 C41 0.930 . S
N36 N37 1.234 1_655 S
N36 C40 1.453 . S
N37 N36 1.234 1_455 S
C38 H33 0.929 . S
C38 C39 1.373 . S
C38 C40 1.368 . S
C39 C38 1.373 . S
C39 C43 1.397 . S
C40 N36 1.453 . S
C40 C38 1.368 . S
C40 C41 1.373 1_655 S
C41 H35 0.930 . S
C41 C40 1.373 1_455 S
C41 C42 1.371 . S
C42 C41 1.371 . S
C42 C43 1.383 1_455 S
C43 H34 0.931 . S
C43 C39 1.397 . S
C43 C42 1.383 1_655 S
H44 C49 0.929 . S
H45 C54 0.931 . S
H46 C52 0.930 . S
N47 N48 1.234 1_545 S
N47 C51 1.453 1_545 S
N48 N47 1.234 1_565 S
C49 H44 0.929 . S
C49 C50 1.373 1_545 S
C49 C51 1.368 1_545 S
C50 C49 1.373 1_565 S
C50 C54 1.397 1_655 S
C51 N47 1.453 1_565 S
C51 C49 1.368 1_565 S
C51 C52 1.373 . S
C52 H46 0.930 . S
C52 C51 1.373 . S
C52 C53 1.371 . S
C53 C52 1.371 . S
C53 C54 1.383 1_655 S
C54 H45 0.931 . S
C54 C50 1.397 1_455 S
C54 C53 1.383 1_455 S
H55 C60 0.929 . S
H56 C65 0.931 . S
H57 C63 0.930 . S
N58 N59 1.234 . S
N58 C62 1.453 . S
N59 N58 1.234 . S
C60 H55 0.929 . S
C60 C61 1.373 . S
C60 C62 1.368 . S
C61 C60 1.373 . S
C61 C65 1.397 . S
C62 N58 1.453 . S
C62 C60 1.368 . S
C62 C63 1.373 . S
C63 H57 0.930 . S
C63 C62 1.373 . S
C63 C64 1.371 . S
C64 C63 1.371 . S
C64 C65 1.383 . S
C65 H56 0.931 . S
C65 C61 1.397 . S
C65 C64 1.383 . S
H66 C71 0.929 . S
H67 C76 0.931 . S
H68 C74 0.930 . S
N69 N70 1.234 . S
N69 C73 1.453 . S
N70 N69 1.234 . S
C71 H66 0.929 . S
C71 C72 1.373 . S
C71 C73 1.368 . S
C72 C71 1.373 . S
C72 C76 1.397 . S
C73 N69 1.453 . S
C73 C71 1.368 . S
C73 C74 1.373 . S
C74 H68 0.930 . S
C74 C73 1.373 . S
C74 C75 1.371 . S
C75 C74 1.371 . S
C75 C76 1.383 . S
C76 H67 0.931 . S
C76 C72 1.397 . S
C76 C75 1.383 . S
H77 C82 0.929 1_655 S
H78 C87 0.931 . S
H79 C85 0.930 . S
N80 N81 1.234 . S
N80 C84 1.453 . S
N81 N80 1.234 . S
C82 H77 0.929 1_455 S
C82 C83 1.373 . S
C82 C84 1.368 . S
C83 C82 1.373 . S
C83 C87 1.397 . S
C84 N80 1.453 . S
C84 C82 1.368 . S
C84 C85 1.373 . S
C85 H79 0.930 . S
C85 C84 1.373 . S
C85 C86 1.371 . S
C86 C85 1.371 . S
C86 C87 1.383 . S
C87 H78 0.931 . S
C87 C83 1.397 . S
C87 C86 1.383 . S
Co88 N93 2.057 . S
Co88 O105 2.021 . S
Co88 O108 2.062 . S
Co88 O112 2.117 1_545 S
Co88 O113 2.020 . S
C89 O109 1.259 1_655 S
C89 O112 1.258 . S
Co90 N99 2.057 . S
Co90 O106 2.117 . S
Co90 O107 2.020 . S
Co90 O109 2.021 1_545 S
Co90 O114 2.062 1_545 S
C91 N93 1.316 . S
C91 N94 1.347 . S
C91 H96 0.931 . S
C92 N93 1.375 . S
C92 C95 1.350 . S
C92 H97 0.930 1_545 S
N93 Co88 2.057 . S
N93 C91 1.316 . S
N93 C92 1.375 . S
N94 C91 1.347 . S
N94 C95 1.373 . S
C95 C92 1.350 . S
C95 N94 1.373 . S
C95 H116 0.931 1_545 S
H96 C91 0.931 . S
H97 C92 0.930 1_565 S
C98 O105 1.259 1_455 S
C98 O106 1.258 . S
N99 Co90 2.057 . S
N99 C100 1.316 1_545 S
N99 C101 1.375 . S
C100 N99 1.316 1_565 S
C100 N102 1.347 . S
C100 H111 0.931 . S
C101 N99 1.375 . S
C101 C103 1.350 . S
C101 H110 0.930 . S
N102 C100 1.347 . S
N102 C103 1.373 1_565 S
C103 C101 1.350 . S
C103 N102 1.373 1_545 S
C103 H117 0.931 . S
C104 O107 1.256 . S
C104 O108 1.255 1_455 S
O105 Co88 2.021 . S
O105 C98 1.259 1_655 S
O106 Co90 2.117 . S
O106 C98 1.258 . S
O107 Co90 2.020 . S
O107 C104 1.256 . S
O108 Co88 2.062 . S
O108 C104 1.255 1_655 S
O109 C89 1.259 1_455 S
O109 Co90 2.021 1_565 S
H110 C101 0.930 . S
H111 C100 0.931 . S
O112 Co88 2.117 1_565 S
O112 C89 1.258 . S
O113 Co88 2.020 . S
O113 C115 1.256 1_545 S
O114 Co90 2.062 1_565 S
O114 C115 1.255 1_455 S
C115 O113 1.256 1_565 S
C115 O114 1.255 1_655 S
H116 C95 0.931 1_565 S
H117 C103 0.931 . S
Co118 N123 2.057 1_545 S
Co118 O135 2.021 . S
Co118 O138 2.062 . S
Co118 O142 2.117 1_546 S
Co118 O143 2.020 1_556 S
C119 O139 1.259 . S
C119 O142 1.258 . S
Co120 N129 2.057 . S
Co120 O136 2.117 . S
Co120 O137 2.020 . S
Co120 O139 2.021 1_545 S
Co120 O144 2.062 . S
C121 N123 1.315 1_545 S
C121 N124 1.342 1_545 S
C121 H126 0.936 . S
C122 N123 1.375 . S
C122 C125 1.350 . S
C122 H127 0.930 . S
N123 Co118 2.057 1_565 S
N123 C121 1.315 1_565 S
N123 C122 1.375 . S
N124 C121 1.342 1_565 S
N124 C125 1.373 . S
C125 C122 1.350 . S
C125 N124 1.373 . S
C125 H146 0.931 . S
H126 C121 0.936 . S
H127 C122 0.930 . S
C128 O135 1.259 . S
C128 O136 1.258 1_556 S
N129 Co120 2.057 . S
N129 C130 1.316 . S
N129 C131 1.375 . S
C130 N129 1.316 . S
C130 N132 1.347 . S
C130 H141 0.931 . S
C131 N129 1.375 . S
C131 C133 1.350 . S
C131 H140 0.930 . S
N132 C130 1.347 . S
N132 C133 1.373 . S
C133 C131 1.350 . S
C133 N132 1.373 . S
C133 H147 0.931 . S
C134 O137 1.256 . S
C134 O138 1.255 1_554 S
O135 Co118 2.021 . S
O135 C128 1.259 . S
O136 Co120 2.117 . S
O136 C128 1.258 1_554 S
O137 Co120 2.020 . S
O137 C134 1.256 . S
O138 Co118 2.062 . S
O138 C134 1.255 1_556 S
O139 C119 1.259 . S
O139 Co120 2.021 1_565 S
H140 C131 0.930 . S
H141 C130 0.931 . S
O142 Co118 2.117 1_564 S
O142 C119 1.258 . S
O143 Co118 2.020 1_554 S
O143 C145 1.256 . S
O144 Co120 2.062 . S
O144 C145 1.255 . S
C145 O143 1.256 . S
C145 O144 1.255 . S
H146 C125 0.931 . S
H147 C133 0.931 . S
Co148 N153 2.057 . S
Co148 O165 2.021 . S
Co148 O168 2.062 . S
Co148 O172 2.117 . S
Co148 O173 2.020 . S
C149 O169 1.259 . S
C149 O172 1.258 . S
Co150 N159 2.057 . S
Co150 O166 2.117 . S
Co150 O167 2.020 . S
Co150 O169 2.021 . S
Co150 O174 2.062 . S
C151 N153 1.316 . S
C151 N154 1.347 . S
C151 H156 0.931 . S
C152 N153 1.375 . S
C152 C155 1.350 . S
C152 H157 0.930 . S
N153 Co148 2.057 . S
N153 C151 1.316 . S
N153 C152 1.375 . S
N154 C151 1.347 . S
N154 C155 1.373 . S
C155 C152 1.350 . S
C155 N154 1.373 . S
C155 H176 0.931 . S
H156 C151 0.931 . S
H157 C152 0.930 . S
C158 O165 1.259 . S
C158 O166 1.258 . S
N159 Co150 2.057 . S
N159 C160 1.316 . S
N159 C161 1.375 . S
C160 N159 1.316 . S
C160 N162 1.347 . S
C160 H171 0.931 . S
C161 N159 1.375 . S
C161 C163 1.350 . S
C161 H170 0.930 . S
N162 C160 1.347 . S
N162 C163 1.373 . S
C163 C161 1.350 . S
C163 N162 1.373 . S
C163 H177 0.931 . S
C164 O167 1.256 . S
C164 O168 1.255 . S
O165 Co148 2.021 . S
O165 C158 1.259 . S
O166 Co150 2.117 . S
O166 C158 1.258 . S
O167 Co150 2.020 . S
O167 C164 1.256 . S
O168 Co148 2.062 . S
O168 C164 1.255 . S
O169 C149 1.259 . S
O169 Co150 2.021 . S
H170 C161 0.930 . S
H171 C160 0.931 . S
O172 Co148 2.117 . S
O172 C149 1.258 . S
O173 Co148 2.020 . S
O173 C175 1.256 . S
O174 Co150 2.062 . S
O174 C175 1.255 . S
C175 O173 1.256 . S
C175 O174 1.255 . S
H176 C155 0.931 . S
H177 C163 0.931 . S
Co178 N183 2.057 . S
Co178 O195 2.021 . S
Co178 O198 2.062 1_556 S
Co178 O202 2.117 1_455 S
Co178 O203 2.020 . S
C179 O199 1.272 . S
C179 O202 1.250 1_554 S
Co180 N189 2.057 . S
Co180 O196 2.117 . S
Co180 O197 2.020 . S
Co180 O199 2.021 1_455 S
Co180 O204 2.062 . S
C181 N183 1.316 . S
C181 N184 1.347 . S
C181 H186 0.931 . S
C182 N183 1.375 . S
C182 C185 1.350 . S
C182 H187 0.930 1_455 S
N183 Co178 2.057 . S
N183 C181 1.316 . S
N183 C182 1.375 . S
N184 C181 1.347 . S
N184 C185 1.373 . S
C185 C182 1.350 . S
C185 N184 1.373 . S
C185 H206 0.931 . S
H186 C181 0.931 . S
H187 C182 0.930 1_655 S
C188 O195 1.259 1_554 S
C188 O196 1.258 . S
N189 Co180 2.057 . S
N189 C190 1.316 1_455 S
N189 C191 1.375 . S
C190 N189 1.316 1_655 S
C190 N192 1.347 . S
C190 H201 0.931 . S
C191 N189 1.375 . S
C191 C193 1.350 . S
C191 H200 0.930 . S
N192 C190 1.347 . S
N192 C193 1.373 1_655 S
C193 C191 1.350 . S
C193 N192 1.373 1_455 S
C193 H207 0.931 . S
C194 O197 1.256 . S
C194 O198 1.255 . S
O195 Co178 2.021 . S
O195 C188 1.259 1_556 S
O196 Co180 2.117 . S
O196 C188 1.258 . S
O197 Co180 2.020 . S
O197 C194 1.256 . S
O198 Co178 2.062 1_554 S
O198 C194 1.255 . S
O199 C179 1.272 . S
O199 Co180 2.021 1_655 S
H200 C191 0.930 . S
H201 C190 0.931 . S
O202 Co178 2.117 1_655 S
O202 C179 1.250 1_556 S
O203 Co178 2.020 . S
O203 C205 1.256 . S
O204 Co180 2.062 . S
O204 C205 1.255 1_554 S
C205 O203 1.256 . S
C205 O204 1.255 1_556 S
H206 C185 0.931 . S
H207 C193 0.931 . S
C6 C104 3.232 . S
C20 N124 1.770 . S
C158 N26 2.076 . S
N37 N192 1.432 1_455 S
C145 C9 3.605 . S
N102 N15 0.543 . S
C179 C31 2.544 1_554 S
N154 C39 1.006 . S
N4 C194 2.205 . S
C128 C28 2.204 . S
C42 C89 1.085 1_455 S
C17 C175 1.672 . S
C115 C50 3.128 . S
C61 N132 1.059 . S
N70 C149 2.533 . S
N81 N184 1.257 . S
N48 C134 2.652 1_566 S
N94 C64 1.602 . S
C188 C75 2.621 . S
N162 C86 1.804 . S
C53 C205 2.462 1_655 S
C119 C72 1.853 . S
C98 C83 1.393 . S
N59 C164 1.270 . S
