# Generated by pormake.
# Topology anh, (6,3)-cn, num edge types: 1
# Building blocks:
#     Node 0, Type 0, BuildingBlock: PAMTOO_clean_sbu_0, # of connection points: 6
#     Node 1, Type 0, BuildingBlock: PAMTOO_clean_sbu_0, # of connection points: 6
#     Node 2, Type 0, BuildingBlock: PAMTOO_clean_sbu_0, # of connection points: 6
#     Node 3, Type 1, BuildingBlock: QEWDON_clean_linker_0, # of connection points: 3
#     Node 4, Type 1, BuildingBlock: QEWDON_clean_linker_0, # of connection points: 3
#     Node 5, Type 1, BuildingBlock: QEWDON_clean_linker_0, # of connection points: 3
#     Node 6, Type 1, BuildingBlock: QEWDON_clean_linker_0, # of connection points: 3
#     Node 7, Type 1, BuildingBlock: QEWDON_clean_linker_0, # of connection points: 3
#     Node 8, Type 1, BuildingBlock: QEWDON_clean_linker_0, # of connection points: 3
#     Edge 9, Type (0, 1), None
#     Edge 10, Type (0, 1), None
#     Edge 11, Type (0, 1), None
#     Edge 12, Type (0, 1), None
#     Edge 13, Type (0, 1), None
#     Edge 14, Type (0, 1), None
#     Edge 15, Type (0, 1), None
#     Edge 16, Type (0, 1), None
#     Edge 17, Type (0, 1), None
#     Edge 18, Type (0, 1), None
#     Edge 19, Type (0, 1), None
#     Edge 20, Type (0, 1), None
#     Edge 21, Type (0, 1), None
#     Edge 22, Type (0, 1), None
#     Edge 23, Type (0, 1), None
#     Edge 24, Type (0, 1), None
#     Edge 25, Type (0, 1), None
#     Edge 26, Type (0, 1), None
# Relax obj value: 0.355
# Max RMSD: 0.236
# Mean RMSD: 0.138
data_MOF--net-anh--node1-PAMTOO_clean_sbu_0--node2-QEWDON_clean_linker_0--edge1-none
_symmetry_space_group_name_H-M    P1
_symmetry_Int_Tables_number       1
_symmetry_cell_setting            triclinic
loop_
_symmetry_equiv_pos_as_xyz
'x, y, z'
_cell_length_a     14.387699
_cell_length_b     14.195169
_cell_length_c     22.076517
_cell_angle_alpha  96.751619
_cell_angle_beta   95.712535
_cell_angle_gamma 78.624823
loop_
_atom_site_label
_atom_site_type_symbol
_atom_site_fract_x
_atom_site_fract_y
_atom_site_fract_z
_atom_type_partial_charge
Dy0 Dy 0.23743 0.74752 0.12864 0.0
Dy1 Dy 0.26032 0.51554 0.13582 0.0
C2 C 0.24732 0.60777 0.0109 0.0
O3 O 1.08384 0.7195 0.1216 0.0
O4 O 1.11223 0.55505 0.09445 0.0
O5 O 0.2522 0.86509 0.07946 0.0
O6 O 1.19833 0.89499 0.16945 0.0
O7 O 1.19367 0.59828 0.21948 0.0
O8 O 0.2806 0.71463 0.22342 0.0
O9 O 0.40685 0.54621 0.16237 0.0
O10 O 0.39489 0.68705 0.11786 0.0
O11 O 0.27647 0.39809 0.19281 0.0
O12 O 0.26714 0.36878 0.09448 0.0
C13 C 1.05354 0.63827 0.09975 0.0
O14 O 1.19677 0.68345 0.03851 0.0
O15 O 0.29601 0.53777 0.04183 0.0
C16 C 0.30355 0.99254 0.1447 0.0
C17 C 0.45268 0.09174 0.18857 0.0
C18 C 0.45457 1.0376 0.13113 0.0
C19 C 0.38082 0.98868 0.10937 0.0
C20 C 0.2985 1.05207 0.20024 0.0
C21 C 0.37243 0.10101 0.22203 0.0
C22 C 0.2325 0.92977 0.12581 0.0
C23 C 0.22996 0.66867 0.25081 0.0
C24 C 0.44705 0.61166 0.14272 0.0
C25 C 1.17073 0.29558 0.14802 0.0
C26 C 0.9791 0.27427 0.14308 0.0
C27 C 1.02789 0.29733 0.19949 0.0
C28 C 1.12297 0.308 0.20197 0.0
C29 C 1.12487 0.26103 0.09301 0.0
C30 C 1.02972 0.25152 0.09046 0.0
C31 C 0.25732 0.33731 0.14626 0.0
H32 H 0.51541 1.02879 0.10437 0.0
H33 H 0.3866 0.94465 0.0659 0.0
H34 H 0.23913 1.058 0.22793 0.0
H35 H 0.36815 0.14388 0.26598 0.0
H36 H 0.99054 0.31464 0.24082 0.0
H37 H 1.15641 0.33328 0.24536 0.0
H38 H 1.15992 0.24904 0.05081 0.0
H39 H 0.99401 0.23184 0.04659 0.0
Dy40 Dy 0.61524 0.11707 0.49538 0.0
Dy41 Dy 0.84189 0.10263 0.47894 0.0
C42 C 0.76265 0.12029 0.60908 0.0
O43 O 0.62806 0.2719 0.49049 0.0
O44 O 0.79073 0.25825 0.50809 0.0
O45 O 0.50684 0.08569 0.54652 0.0
O46 O 0.46721 0.16113 0.46521 0.0
O47 O 0.75988 0.16196 0.39552 0.0
O48 O 0.63708 0.08301 0.39675 0.0
O49 O 0.81367 0.95747 0.44259 0.0
O50 O 0.68234 0.95836 0.49394 0.0
O51 O 0.95999 0.0904 0.42305 0.0
O52 O 0.98453 0.09635 0.52129 0.0
C53 C 0.705 0.31053 0.50134 0.0
O54 O 0.68184 0.16547 0.5854 0.0
O55 O 0.82625 1.068 0.57407 0.0
C56 C 0.37382 1.04812 0.48283 0.0
C57 C 0.26998 0.90459 0.4326 0.0
C58 C 0.31561 0.90111 0.4918 0.0
C59 C 0.36668 0.97233 0.51675 0.0
C60 C 0.32311 1.05493 0.42518 0.0
C61 C 0.27191 0.9837 0.40026 0.0
C62 C 0.43827 0.11597 0.50593 0.0
C63 C 0.68601 0.12925 0.3676 0.0
C64 C 0.75256 0.91199 0.46137 0.0
C65 C 1.05732 0.19772 0.47185 0.0
C66 C 1.06876 0.3943 0.47824 0.0
C67 C 1.05931 0.34034 0.42114 0.0
C68 C 1.05387 0.24268 0.41795 0.0
C69 C 1.07849 0.2491 0.52841 0.0
C70 C 1.08319 0.34675 0.53158 0.0
C71 C 1.01771 0.10874 0.47052 0.0
H72 H 0.31559 0.84101 0.51783 0.0
H73 H 0.40354 0.96588 0.56175 0.0
H74 H 0.32543 0.11353 0.39838 0.0
H75 H 0.23563 0.98934 0.35504 0.0
H76 H 1.04889 0.37513 0.37921 0.0
H77 H 1.03904 0.20482 0.37358 0.0
H78 H 1.08349 0.21627 0.57079 0.0
H79 H 1.09309 0.38629 0.57606 0.0
Dy80 Dy 0.88038 0.54392 0.77611 0.0
Dy81 Dy 0.66391 0.55862 0.80484 0.0
C82 C 0.72225 0.55596 0.67393 0.0
O83 O 0.8444 0.69988 0.80853 0.0
O84 O 0.68283 0.70815 0.79549 0.0
O85 O 0.9637 0.47418 0.70126 0.0
O86 O 1.02619 0.55826 0.77707 0.0
O87 O 0.73499 0.57548 0.89866 0.0
O88 O 0.89433 0.54364 0.87983 0.0
O89 O 0.71698 0.40405 0.81874 0.0
O90 O 0.84913 0.39485 0.76669 0.0
O91 O 0.53702 0.61449 0.85239 0.0
O92 O 0.52643 0.54397 0.75998 0.0
C93 C 0.7573 0.74883 0.80985 0.0
O94 O 0.78379 0.6072 0.69965 0.0
O95 O 0.68793 0.50509 0.7083 0.0
C96 C 1.12572 0.4238 0.73104 0.0
C97 C 0.28687 0.42741 0.80456 0.0
C98 C 0.29189 0.43278 0.74174 0.0
C99 C 0.20634 0.4377 0.70474 0.0
C100 C 1.13988 0.37124 0.78235 0.0
C101 C 0.22608 0.3676 0.81817 0.0
C102 C 1.04115 0.50006 0.72704 0.0
C103 C 0.82559 0.56628 0.91806 0.0
C104 C 0.7887 0.35357 0.78967 0.0
C105 C 0.42899 0.696 0.77843 0.0
C106 C 0.29839 0.86016 0.74928 0.0
C107 C 0.37837 0.87072 0.78991 0.0
C108 C 0.44098 0.78754 0.80689 0.0
C109 C 0.36736 0.69172 0.72524 0.0
C110 C 0.30566 0.7752 0.70859 0.0
C111 C 0.48378 0.60603 0.80128 0.0
H112 H 0.3476 0.46387 0.72687 0.0
H113 H 1.19902 0.47216 0.6628 0.0
H114 H 1.0801 0.35269 0.80146 0.0
H115 H 0.2293 0.34576 0.86384 0.0
H116 H 0.37905 0.93768 0.81895 0.0
H117 H 0.49332 0.7945 0.8451 0.0
H118 H 0.36201 0.62324 0.6991 0.0
H119 H 0.25001 0.76674 0.67265 0.0
H120 H 0.76675 0.22006 0.28953 0.0
C121 C 0.70396 0.19402 0.26867 0.0
C122 C 0.65415 0.14635 0.30329 0.0
C123 C 0.67209 0.20929 0.20748 0.0
H124 H 0.53277 0.07768 0.30255 0.0
C125 C 0.57118 0.11546 0.27655 0.0
C126 C 0.5379 0.13026 0.21603 0.0
C127 C 0.58919 0.17626 0.18155 0.0
C128 C 0.72476 0.25919 0.17023 0.0
H129 H 0.56462 0.18563 0.13425 0.0
C130 C 0.82519 0.24351 0.17524 0.0
C131 C 0.87389 0.2872 0.13743 0.0
C132 C 0.67432 0.32159 0.12804 0.0
H133 H 0.59733 0.33784 0.12421 0.0
C134 C 0.7225 0.36454 0.09044 0.0
H135 H 0.86571 0.19554 0.20713 0.0
C136 C 0.82152 0.34738 0.09486 0.0
H137 H 0.85731 0.38297 0.06587 0.0
H138 H 0.68284 0.41207 0.05808 0.0
H139 H 0.74755 0.66696 0.5876 0.0
C140 C 0.7293 0.59885 0.56781 0.0
C141 C 0.71177 0.53461 0.607 0.0
C142 C 0.72755 0.5737 0.50401 0.0
H143 H 0.68259 0.39272 0.61291 0.0
C144 C 0.69252 0.44421 0.58264 0.0
C145 C 0.69593 0.41488 0.52032 0.0
C146 C 0.71181 0.47996 0.48076 0.0
C147 C 0.75164 0.64173 0.46334 0.0
H148 H 0.71423 0.45604 0.43245 0.0
C149 C 0.73103 0.74357 0.47816 0.0
C150 C 0.76439 0.80592 0.44364 0.0
C151 C 0.80229 0.6048 0.41159 0.0
H152 H 0.82256 0.52791 0.39939 0.0
C153 C 0.83199 0.66646 0.37607 0.0
H154 H 0.69167 0.77437 0.51736 0.0
C155 C 0.81416 0.76583 0.39214 0.0
H156 H 0.84019 0.81138 0.36422 0.0
H157 H 0.87144 0.63678 0.33671 0.0
H158 H 1.16324 0.75249 0.94451 0.0
C159 C 1.19335 0.68728 0.91699 0.0
C160 C 0.24382 0.60519 0.94421 0.0
C161 C 1.18134 0.68772 0.85408 0.0
H162 H 0.31941 0.45856 0.92828 0.0
C163 C 0.28441 0.52312 0.90748 0.0
C164 C 0.27298 0.5218 0.84347 0.0
C165 C 0.22387 0.60658 0.81758 0.0
C166 C 1.14085 0.77863 0.82662 0.0
H167 H 0.21473 0.60967 0.76859 0.0
C168 C 1.20102 0.8447 0.82861 0.0
C169 C 1.20451 0.88848 0.77518 0.0
C170 C 1.06006 0.78739 0.78491 0.0
H171 H 1.01008 0.73952 0.78352 0.0
C172 C 1.04726 0.85519 0.74199 0.0
H173 H 0.26243 0.83622 0.86164 0.0
C174 C 1.12157 0.903 0.7352 0.0
H175 H 1.12014 0.93897 0.69439 0.0
H176 H 0.98562 0.86149 0.7093 0.0
H177 H 1.12502 0.59814 0.32658 0.0
C178 C 1.15369 0.66011 0.348 0.0
C179 C 0.20897 0.70403 0.31485 0.0
C180 C 1.13532 0.69651 0.40885 0.0
H181 H 0.28884 0.81898 0.31847 0.0
C182 C 0.2447 0.78523 0.34297 0.0
C183 C 0.22659 0.82249 0.40308 0.0
C184 C 1.17213 0.77766 0.43572 0.0
C185 C 1.08206 0.64807 0.44615 0.0
H186 H 1.16001 0.80517 0.48274 0.0
C187 C 1.09817 0.54675 0.44333 0.0
C188 C 1.05434 0.50088 0.48247 0.0
C189 C 1.01963 0.70297 0.48791 0.0
H190 H 1.00414 0.78109 0.49039 0.0
C191 C 0.97632 0.65766 0.52702 0.0
H192 H 1.14726 0.50341 0.41223 0.0
C193 C 0.99358 0.55723 0.52453 0.0
H194 H 0.95765 0.52358 0.55454 0.0
H195 H 0.92851 0.70052 0.55899 0.0
H196 H 0.75662 0.99711 0.69155 0.0
C197 C 0.7702 1.06622 0.71308 0.0
C198 C 0.78208 0.1354 0.67581 0.0
C199 C 0.76671 0.08922 0.77696 0.0
H200 H 0.79767 0.28192 0.67301 0.0
C201 C 0.79194 0.22755 0.7024 0.0
C202 C 0.7874 0.2525 0.76567 0.0
C203 C 0.77553 0.18323 0.80286 0.0
C204 C 0.74344 1.01848 0.81502 0.0
H205 H 0.77268 0.20307 0.85163 0.0
C206 C 0.77364 0.91829 0.80038 0.0
C207 C 0.73934 0.85222 0.83049 0.0
C208 C 0.68339 1.05046 0.86301 0.0
H209 H 0.65677 0.12652 0.87484 0.0
C210 C 0.65278 0.9843 0.89464 0.0
H211 H 0.81996 0.89148 0.76385 0.0
C212 C 0.67932 0.8857 0.87789 0.0
H213 H 0.65225 0.83533 0.90159 0.0
H214 H 0.6059 1.00963 0.93098 0.0
H215 H 0.70772 0.57502 0.00804 0.0
C216 C 0.77491 0.59456 0.02598 0.0
C217 C 0.84724 0.58864 -0.01422 0.0
C218 C 0.78952 0.6203 0.08939 0.0
H219 H 0.99357 0.6013 -0.01924 0.0
C220 C 0.93651 0.60853 0.01056 0.0
C221 C 0.95329 0.63722 0.07369 0.0
C222 C 0.87906 0.6442 0.11226 0.0
C223 C 0.71694 0.60949 0.13239 0.0
H224 H 0.89328 0.6635 0.16075 0.0
C225 C 0.61611 0.62547 0.11675 0.0
C226 C 0.55282 0.60374 0.15682 0.0
C227 C 0.75084 0.57367 0.18896 0.0
H228 H 0.82622 0.55664 0.20229 0.0
C229 C 0.68902 0.55425 0.22844 0.0
H230 H 0.58736 0.65199 0.07344 0.0
C231 C 0.59167 0.56835 0.21253 0.0
H232 H 0.54625 0.55117 0.24435 0.0
H233 H 0.71714 0.52602 0.2714 0.0
loop_
_geom_bond_atom_site_label_1
_geom_bond_atom_site_label_2
_geom_bond_distance
_geom_bond_site_symmetry_2
_ccdc_geom_bond_type
Dy0 O3 2.307 1_455 S
Dy0 O5 2.395 . S
Dy0 O6 2.379 . S
Dy0 O8 2.339 . S
Dy0 O10 2.298 . S
Dy0 O14 2.275 . S
Dy0 C22 2.738 . S
Dy1 O4 2.298 . S
Dy1 O7 2.275 1_655 S
Dy1 O9 2.307 1_655 S
Dy1 O11 2.395 . S
Dy1 O12 2.379 . S
Dy1 O15 2.339 . S
Dy1 C31 2.738 . S
C2 O14 1.254 . S
C2 O15 1.257 1_455 S
O3 Dy0 2.307 1_655 S
O3 C13 1.266 . S
O4 Dy1 2.298 . S
O4 C13 1.236 . S
O5 Dy0 2.395 . S
O5 C22 1.255 . S
O6 Dy0 2.379 . S
O6 C22 1.249 . S
O7 Dy1 2.275 1_455 S
O7 C23 1.254 . S
O8 Dy0 2.339 . S
O8 C23 1.257 . S
O9 Dy1 2.307 1_455 S
O9 C24 1.266 . S
O10 Dy0 2.298 . S
O10 C24 1.236 . S
O11 Dy1 2.395 . S
O11 C31 1.255 . S
O12 Dy1 2.379 . S
O12 C31 1.249 . S
C13 O3 1.266 . S
C13 O4 1.236 . S
O14 Dy0 2.275 . S
O14 C2 1.254 . S
O15 Dy1 2.339 . S
O15 C2 1.257 1_655 S
C16 C19 1.344 . S
C16 C20 1.328 . S
C16 C22 1.516 . S
C17 C18 1.304 1_545 S
C17 C21 1.323 . S
C18 C17 1.304 1_565 S
C18 C19 1.371 . S
C18 H32 0.930 . S
C19 C16 1.344 . S
C19 C18 1.371 . S
C19 H33 0.931 . S
C20 C16 1.328 . S
C20 C21 1.433 1_565 S
C20 H34 0.931 . S
C21 C17 1.323 . S
C21 C20 1.433 1_545 S
C21 H35 0.933 . S
C22 Dy0 2.738 . S
C22 O5 1.255 . S
C22 O6 1.249 . S
C22 C16 1.516 . S
C23 O7 1.254 . S
C23 O8 1.257 . S
C24 O9 1.266 . S
C24 O10 1.236 . S
C25 C28 1.344 . S
C25 C29 1.328 . S
C25 C31 1.516 . S
C26 C27 1.304 . S
C26 C30 1.323 . S
C27 C26 1.304 . S
C27 C28 1.371 . S
C27 H36 0.930 . S
C28 C25 1.344 . S
C28 C27 1.371 . S
C28 H37 0.931 . S
C29 C25 1.328 . S
C29 C30 1.433 . S
C29 H38 0.931 . S
C30 C26 1.323 . S
C30 C29 1.433 . S
C30 H39 0.933 . S
C31 Dy1 2.738 . S
C31 O11 1.255 . S
C31 O12 1.249 . S
C31 C25 1.516 . S
H32 C18 0.930 . S
H33 C19 0.931 . S
H34 C20 0.931 . S
H35 C21 0.933 . S
H36 C27 0.930 . S
H37 C28 0.931 . S
H38 C29 0.931 . S
H39 C30 0.933 . S
Dy40 O43 2.307 . S
Dy40 O45 2.395 1_545 S
Dy40 O46 2.379 1_545 S
Dy40 O48 2.339 . S
Dy40 O50 2.298 1_545 S
Dy40 O54 2.275 . S
Dy40 C62 2.738 1_545 S
Dy41 O44 2.298 . S
Dy41 O47 2.275 . S
Dy41 O49 2.307 1_545 S
Dy41 O51 2.395 . S
Dy41 O52 2.379 . S
Dy41 O55 2.339 . S
Dy41 C71 2.738 . S
C42 O54 1.254 . S
C42 O55 1.257 . S
O43 Dy40 2.307 . S
O43 C53 1.266 . S
O44 Dy41 2.298 . S
O44 C53 1.236 . S
O45 Dy40 2.395 1_565 S
O45 C62 1.255 . S
O46 Dy40 2.379 1_565 S
O46 C62 1.249 . S
O47 Dy41 2.275 . S
O47 C63 1.254 . S
O48 Dy40 2.339 . S
O48 C63 1.257 . S
O49 Dy41 2.307 1_565 S
O49 C64 1.266 . S
O50 Dy40 2.298 1_565 S
O50 C64 1.236 . S
O51 Dy41 2.395 . S
O51 C71 1.255 . S
O52 Dy41 2.379 . S
O52 C71 1.249 . S
C53 O43 1.266 . S
C53 O44 1.236 . S
O54 Dy40 2.275 . S
O54 C42 1.254 . S
O55 Dy41 2.339 . S
O55 C42 1.257 . S
C56 C59 1.344 . S
C56 C60 1.328 . S
C56 C62 1.516 . S
C57 C58 1.304 . S
C57 C61 1.323 . S
C58 C57 1.304 . S
C58 C59 1.371 . S
C58 H72 0.930 . S
C59 C56 1.344 . S
C59 C58 1.371 . S
C59 H73 0.931 . S
C60 C56 1.328 . S
C60 C61 1.433 . S
C60 H74 0.931 . S
C61 C57 1.323 . S
C61 C60 1.433 . S
C61 H75 0.933 . S
C62 Dy40 2.738 1_565 S
C62 O45 1.255 . S
C62 O46 1.249 . S
C62 C56 1.516 . S
C63 O47 1.254 . S
C63 O48 1.257 . S
C64 O49 1.266 . S
C64 O50 1.236 . S
C65 C68 1.344 . S
C65 C69 1.328 . S
C65 C71 1.516 . S
C66 C67 1.304 . S
C66 C70 1.323 . S
C67 C66 1.304 . S
C67 C68 1.371 . S
C67 H76 0.930 . S
C68 C65 1.344 . S
C68 C67 1.371 . S
C68 H77 0.931 . S
C69 C65 1.328 . S
C69 C70 1.433 . S
C69 H78 0.931 . S
C70 C66 1.323 . S
C70 C69 1.433 . S
C70 H79 0.933 . S
C71 Dy41 2.738 . S
C71 O51 1.255 . S
C71 O52 1.249 . S
C71 C65 1.516 . S
H72 C58 0.930 . S
H73 C59 0.931 . S
H74 C60 0.931 . S
H75 C61 0.933 . S
H76 C67 0.930 . S
H77 C68 0.931 . S
H78 C69 0.931 . S
H79 C70 0.933 . S
Dy80 O83 2.307 . S
Dy80 O85 2.395 . S
Dy80 O86 2.379 . S
Dy80 O88 2.339 . S
Dy80 O90 2.298 . S
Dy80 O94 2.275 . S
Dy80 C102 2.738 . S
Dy81 O84 2.298 . S
Dy81 O87 2.275 . S
Dy81 O89 2.307 . S
Dy81 O91 2.395 . S
Dy81 O92 2.379 . S
Dy81 O95 2.339 . S
Dy81 C111 2.738 . S
C82 O94 1.254 . S
C82 O95 1.257 . S
O83 Dy80 2.307 . S
O83 C93 1.266 . S
O84 Dy81 2.298 . S
O84 C93 1.236 . S
O85 Dy80 2.395 . S
O85 C102 1.255 . S
O86 Dy80 2.379 . S
O86 C102 1.249 . S
O87 Dy81 2.275 . S
O87 C103 1.254 . S
O88 Dy80 2.339 . S
O88 C103 1.257 . S
O89 Dy81 2.307 . S
O89 C104 1.266 . S
O90 Dy80 2.298 . S
O90 C104 1.236 . S
O91 Dy81 2.395 . S
O91 C111 1.255 . S
O92 Dy81 2.379 . S
O92 C111 1.249 . S
C93 O83 1.266 . S
C93 O84 1.236 . S
O94 Dy80 2.275 . S
O94 C82 1.254 . S
O95 Dy81 2.339 . S
O95 C82 1.257 . S
C96 C99 1.344 . S
C96 C100 1.328 . S
C96 C102 1.516 . S
C97 C98 1.304 . S
C97 C101 1.323 . S
C98 C97 1.304 . S
C98 C99 1.371 . S
C98 H112 0.930 . S
C99 C96 1.344 . S
C99 C98 1.371 . S
C99 H113 0.931 . S
C100 C96 1.328 . S
C100 C101 1.433 . S
C100 H114 0.931 . S
C101 C97 1.323 . S
C101 C100 1.433 . S
C101 H115 0.933 . S
C102 Dy80 2.738 . S
C102 O85 1.255 . S
C102 O86 1.249 . S
C102 C96 1.516 . S
C103 O87 1.254 . S
C103 O88 1.257 . S
C104 O89 1.266 . S
C104 O90 1.236 . S
C105 C108 1.344 . S
C105 C109 1.328 . S
C105 C111 1.516 . S
C106 C107 1.304 . S
C106 C110 1.323 . S
C107 C106 1.304 . S
C107 C108 1.371 . S
C107 H116 0.930 . S
C108 C105 1.344 . S
C108 C107 1.371 . S
C108 H117 0.931 . S
C109 C105 1.328 . S
C109 C110 1.433 . S
C109 H118 0.931 . S
C110 C106 1.323 . S
C110 C109 1.433 . S
C110 H119 0.933 . S
C111 Dy81 2.738 . S
C111 O91 1.255 . S
C111 O92 1.249 . S
C111 C105 1.516 . S
H112 C98 0.930 . S
H113 C99 0.931 . S
H114 C100 0.931 . S
H115 C101 0.933 . S
H116 C107 0.930 . S
H117 C108 0.931 . S
H118 C109 0.931 . S
H119 C110 0.933 . S
H120 C121 0.949 . S
C121 H120 0.949 . S
C121 C122 1.395 . S
C121 C123 1.391 . S
C122 C121 1.395 . S
C122 C125 1.390 1_545 S
C123 C121 1.391 . S
C123 C127 1.387 . S
C123 C128 1.491 . S
H124 C125 0.950 . S
C125 C122 1.390 1_565 S
C125 H124 0.950 . S
C125 C126 1.378 . S
C126 C125 1.378 . S
C126 C127 1.409 1_565 S
C127 C123 1.387 . S
C127 C126 1.409 1_545 S
C127 H129 0.951 . S
C128 C123 1.491 . S
C128 C130 1.382 . S
C128 C132 1.404 . S
H129 C127 0.951 . S
C130 C128 1.382 . S
C130 C131 1.390 . S
C130 H135 0.949 . S
C131 C130 1.390 . S
C131 C136 1.399 . S
C132 C128 1.404 . S
C132 H133 0.950 . S
C132 C134 1.375 . S
H133 C132 0.950 . S
C134 C132 1.375 . S
C134 C136 1.382 . S
C134 H138 0.950 . S
H135 C130 0.949 . S
C136 C131 1.399 . S
C136 C134 1.382 . S
C136 H137 0.952 . S
H137 C136 0.952 . S
H138 C134 0.950 . S
H139 C140 0.949 . S
C140 H139 0.949 . S
C140 C141 1.395 . S
C140 C142 1.391 . S
C141 C140 1.395 . S
C141 C144 1.390 . S
C142 C140 1.391 . S
C142 C146 1.387 . S
C142 C147 1.491 . S
H143 C144 0.950 . S
C144 C141 1.390 . S
C144 H143 0.950 . S
C144 C145 1.378 . S
C145 C144 1.378 . S
C145 C146 1.409 . S
C146 C142 1.387 . S
C146 C145 1.409 . S
C146 H148 0.951 . S
C147 C142 1.491 . S
C147 C149 1.382 . S
C147 C151 1.404 . S
H148 C146 0.951 . S
C149 C147 1.382 . S
C149 C150 1.390 . S
C149 H154 0.949 . S
C150 C149 1.390 . S
C150 C155 1.399 . S
C151 C147 1.404 . S
C151 H152 0.950 . S
C151 C153 1.375 . S
H152 C151 0.950 . S
C153 C151 1.375 . S
C153 C155 1.382 . S
C153 H157 0.950 . S
H154 C149 0.949 . S
C155 C150 1.399 . S
C155 C153 1.382 . S
C155 H156 0.952 . S
H156 C155 0.952 . S
H157 C153 0.950 . S
H158 C159 0.949 1_554 S
C159 H158 0.949 1_556 S
C159 C160 1.395 1_556 S
C159 C161 1.391 . S
C160 C159 1.395 1_554 S
C160 C163 1.390 1_454 S
C161 C159 1.391 . S
C161 C165 1.387 1_455 S
C161 C166 1.491 . S
H162 C163 0.950 1_554 S
C163 C160 1.390 1_656 S
C163 H162 0.950 1_556 S
C163 C164 1.378 . S
C164 C163 1.378 . S
C164 C165 1.409 . S
C165 C161 1.387 1_655 S
C165 C164 1.409 . S
C165 H167 0.951 . S
C166 C161 1.491 . S
C166 C168 1.382 . S
C166 C170 1.404 . S
H167 C165 0.951 . S
C168 C166 1.382 . S
C168 C169 1.390 . S
C168 H173 0.949 . S
C169 C168 1.390 . S
C169 C174 1.399 . S
C170 C166 1.404 . S
C170 H171 0.950 . S
C170 C172 1.375 . S
H171 C170 0.950 . S
C172 C170 1.375 . S
C172 C174 1.382 . S
C172 H176 0.950 . S
H173 C168 0.949 . S
C174 C169 1.399 . S
C174 C172 1.382 . S
C174 H175 0.952 . S
H175 C174 0.952 . S
H176 C172 0.950 . S
H177 C178 0.949 1_655 S
C178 H177 0.949 1_455 S
C178 C179 1.395 . S
C178 C180 1.391 . S
C179 C178 1.395 . S
C179 C182 1.390 . S
C180 C178 1.391 . S
C180 C184 1.387 . S
C180 C185 1.491 1_455 S
H181 C182 0.950 . S
C182 C179 1.390 . S
C182 H181 0.950 . S
C182 C183 1.378 . S
C183 C182 1.378 . S
C183 C184 1.409 . S
C184 C180 1.387 . S
C184 C183 1.409 . S
C184 H186 0.951 . S
C185 C180 1.491 1_655 S
C185 C187 1.382 . S
C185 C189 1.404 . S
H186 C184 0.951 . S
C187 C185 1.382 . S
C187 C188 1.390 . S
C187 H192 0.949 . S
C188 C187 1.390 . S
C188 C193 1.399 . S
C189 C185 1.404 . S
C189 H190 0.950 . S
C189 C191 1.375 . S
H190 C189 0.950 . S
C191 C189 1.375 . S
C191 C193 1.382 . S
C191 H195 0.950 . S
H192 C187 0.949 . S
C193 C188 1.399 . S
C193 C191 1.382 . S
C193 H194 0.952 . S
H194 C193 0.952 . S
H195 C191 0.950 . S
H196 C197 0.949 1_565 S
C197 H196 0.949 1_545 S
C197 C198 1.395 . S
C197 C199 1.391 . S
C198 C197 1.395 . S
C198 C201 1.390 . S
C199 C197 1.391 . S
C199 C203 1.387 . S
C199 C204 1.491 1_545 S
H200 C201 0.950 . S
C201 C198 1.390 . S
C201 H200 0.950 . S
C201 C202 1.378 . S
C202 C201 1.378 . S
C202 C203 1.409 . S
C203 C199 1.387 . S
C203 C202 1.409 . S
C203 H205 0.951 . S
C204 C199 1.491 1_565 S
C204 C206 1.382 . S
C204 C208 1.404 . S
H205 C203 0.951 . S
C206 C204 1.382 . S
C206 C207 1.390 . S
C206 H211 0.949 . S
C207 C206 1.390 . S
C207 C212 1.399 . S
C208 C204 1.404 . S
C208 H209 0.950 1_565 S
C208 C210 1.375 . S
H209 C208 0.950 1_545 S
C210 C208 1.375 . S
C210 C212 1.382 . S
C210 H214 0.950 . S
H211 C206 0.949 . S
C212 C207 1.399 . S
C212 C210 1.382 . S
C212 H213 0.952 . S
H213 C212 0.952 . S
H214 C210 0.950 . S
H215 C216 0.949 . S
C216 H215 0.949 . S
C216 C217 1.395 . S
C216 C218 1.391 . S
C217 C216 1.395 . S
C217 C220 1.390 . S
C218 C216 1.391 . S
C218 C222 1.387 . S
C218 C223 1.491 . S
H219 C220 0.950 . S
C220 C217 1.390 . S
C220 H219 0.950 . S
C220 C221 1.378 . S
C221 C220 1.378 . S
C221 C222 1.409 . S
C222 C218 1.387 . S
C222 C221 1.409 . S
C222 H224 0.951 . S
C223 C218 1.491 . S
C223 C225 1.382 . S
C223 C227 1.404 . S
H224 C222 0.951 . S
C225 C223 1.382 . S
C225 C226 1.390 . S
C225 H230 0.949 . S
C226 C225 1.390 . S
C226 C231 1.399 . S
C227 C223 1.404 . S
C227 H228 0.950 . S
C227 C229 1.375 . S
H228 C227 0.950 . S
C229 C227 1.375 . S
C229 C231 1.382 . S
C229 H233 0.950 . S
H230 C225 0.949 . S
C231 C226 1.399 . S
C231 C229 1.382 . S
C231 H232 0.952 . S
H232 C231 0.952 . S
H233 C229 0.950 . S
C24 C226 4.809 . S
C66 C188 1.450 . S
C93 C207 2.652 . S
C13 C221 4.882 . S
C183 C57 1.658 . S
C202 C104 2.510 . S
C64 C150 2.653 . S
C97 C164 3.566 . S
C17 C126 2.818 1_545 S
C145 C53 2.295 . S
C169 C106 2.215 . S
C26 C131 1.992 . S
C160 C2 0.262 . S
C63 C122 1.413 . S
C82 C141 1.235 . S
C198 C42 1.366 . S
C217 C103 2.070 1_554 S
C23 C179 1.696 . S
