# Generated by pormake.
# Topology pts, (4,4)-cn, num edge types: 1
# Building blocks:
#     Node 0, Type 0, BuildingBlock: GIZVER_clean_linker_0, # of connection points: 4
#     Node 1, Type 0, BuildingBlock: GIZVER_clean_linker_0, # of connection points: 4
#     Node 2, Type 1, BuildingBlock: QUQFOY_clean_sbu_1, # of connection points: 4
#     Node 3, Type 1, BuildingBlock: QUQFOY_clean_sbu_1, # of connection points: 4
#     Edge 4, Type (0, 1), BuildingBlock: XIVTED_clean_linker_0, # of connection points: 2
#     Edge 5, Type (0, 1), BuildingBlock: XIVTED_clean_linker_0, # of connection points: 2
#     Edge 6, Type (0, 1), BuildingBlock: XIVTED_clean_linker_0, # of connection points: 2
#     Edge 7, Type (0, 1), BuildingBlock: XIVTED_clean_linker_0, # of connection points: 2
#     Edge 8, Type (0, 1), BuildingBlock: XIVTED_clean_linker_0, # of connection points: 2
#     Edge 9, Type (0, 1), BuildingBlock: XIVTED_clean_linker_0, # of connection points: 2
#     Edge 10, Type (0, 1), BuildingBlock: XIVTED_clean_linker_0, # of connection points: 2
#     Edge 11, Type (0, 1), BuildingBlock: XIVTED_clean_linker_0, # of connection points: 2
# Relax obj value: 0.104
# Max RMSD: 0.276
# Mean RMSD: 0.184
data_MOF--net-pts--node1-QUQFOY_clean_sbu_1--node2-GIZVER_clean_linker_0--edge1-XIVTED_clean_linker_0
_symmetry_space_group_name_H-M    P1
_symmetry_Int_Tables_number       1
_symmetry_cell_setting            triclinic
loop_
_symmetry_equiv_pos_as_xyz
'x, y, z'
_cell_length_a     23.119125
_cell_length_b     24.073137
_cell_length_c     41.894496
_cell_angle_alpha  90.267761
_cell_angle_beta   91.16301
_cell_angle_gamma 90.774204
loop_
_atom_site_label
_atom_site_type_symbol
_atom_site_fract_x
_atom_site_fract_y
_atom_site_fract_z
_atom_type_partial_charge
H0 H 0.61224 0.18813 -0.0217 0.0
H1 H 0.59168 0.1881 0.87633 0.0
H2 H 0.71913 0.08414 0.92045 0.0
H3 H 0.55067 0.25589 -0.04748 0.0
H4 H 0.54655 0.26007 0.90984 0.0
H5 H 0.48601 0.19372 -0.01875 0.0
H6 H 0.34753 0.11099 -0.07089 0.0
H7 H 0.48264 0.19514 0.87855 0.0
C8 C 0.62449 0.17173 -0.04466 0.0
C9 C 0.66991 0.13356 -0.04682 0.0
C10 C 0.59561 0.19068 0.92774 0.0
C11 C 0.61304 0.1724 0.89764 0.0
C12 C 0.65808 0.13442 0.89491 0.0
C13 C 0.68483 0.11392 0.92275 0.0
C14 C 0.54635 0.23066 -0.06975 0.0
C15 C 0.49 0.19852 -0.07006 0.0
C16 C 0.46527 0.18187 -0.04125 0.0
C17 C 0.414 0.15 -0.04139 0.0
C18 C 0.38815 0.13404 -0.07069 0.0
C19 C 0.41233 0.15035 0.90029 0.0
C20 C 0.46337 0.18262 0.90081 0.0
H21 H 0.12564 0.64854 0.38026 0.0
H22 H 0.1054 0.63554 0.48175 0.0
H23 H 0.04773 0.78133 0.43211 0.0
H24 H 0.18199 0.58261 0.41042 0.0
H25 H 0.18091 0.58254 0.45287 0.0
H26 H 0.12405 0.51664 0.38003 0.0
H27 H 0.0383 0.38659 0.4313 0.0
H28 H 0.10178 0.53204 0.48142 0.0
C29 C 0.10941 0.66523 0.40237 0.0
C30 C 0.08463 0.7182 0.40273 0.0
C31 C 0.11719 0.63533 0.43087 0.0
C32 C 0.09847 0.65823 0.45977 0.0
C33 C 0.07311 0.71102 0.46056 0.0
C34 C 0.06593 0.74014 0.4318 0.0
C35 C 0.15253 0.58301 0.4311 0.0
C36 C 0.11527 0.53097 0.43063 0.0
C37 C 0.10651 0.50079 0.40204 0.0
C38 C 0.07922 0.44831 0.40228 0.0
C39 C 0.0584 0.4275 0.43113 0.0
C40 C 0.06614 0.45703 0.45989 0.0
C41 C 0.09428 0.50919 0.45937 0.0
O42 O 0.9695 1.02496 0.13894 0.0
Cd43 Cd 0.04638 1.01704 0.16404 0.0
Cd44 Cd 0.03815 0.12891 0.17051 0.0
O45 O 0.9594 0.11486 0.1474 0.0
O46 O 0.05128 0.93926 0.17984 0.0
O47 O 0.04865 1.01292 0.2117 0.0
C48 C 0.05166 0.95961 0.2084 0.0
C49 C 0.04182 0.18808 0.21478 0.0
C50 C 0.94077 1.06923 0.13545 0.0
C51 C 0.13907 0.08411 0.13378 0.0
O52 O 0.11219 0.12635 0.14371 0.0
O53 O 0.12061 1.03541 0.13982 0.0
O54 O 1.0354 0.20714 0.18626 0.0
O55 O 0.04521 0.13492 0.21826 0.0
O56 O 0.9534 0.12498 0.70946 0.0
Cd57 Cd 1.0296 0.13544 0.68525 0.0
Cd58 Cd 1.0307 1.02151 0.69281 0.0
O59 O 0.95446 1.03408 0.71621 0.0
O60 O 1.03057 0.21567 0.67373 0.0
O61 O 1.02702 0.14819 0.63774 0.0
C62 C 1.02873 0.20071 0.6442 0.0
C63 C 1.03137 0.96011 0.64987 0.0
C64 C 0.93045 0.08073 0.72018 0.0
C65 C 0.13037 0.08537 0.72192 0.0
O66 O 0.10688 1.03783 0.71772 0.0
O67 O 0.10683 0.12846 0.71041 0.0
O68 O 1.03327 0.94242 0.6789 0.0
O69 O 1.02891 1.0131 0.6452 0.0
H70 H 0.36745 1.04999 -0.02361 0.0
H71 H 0.19788 0.18079 0.12115 0.0
H72 H 0.39383 0.21873 0.00918 0.0
H73 H 0.19545 1.00531 0.09922 0.0
H74 H 0.27434 0.19435 0.08252 0.0
H75 H 0.30905 1.03127 0.02325 0.0
C76 C 0.36133 0.08292 -0.00635 0.0
C77 C 0.38504 0.13609 -0.01119 0.0
C78 C 0.25756 0.15277 0.08641 0.0
C79 C 0.31808 0.11518 0.04234 0.0
C80 C 0.21378 0.145 0.10844 0.0
C81 C 0.18974 0.0919 0.1132 0.0
C82 C 0.27703 0.10725 0.06872 0.0
C83 C 0.21244 1.04703 0.09621 0.0
C84 C 0.3282 1.0722 0.02044 0.0
C85 C 0.37647 0.17711 0.01208 0.0
N86 N 0.25432 1.05584 0.07445 0.0
N87 N 0.34305 0.166 0.03764 0.0
H88 H 0.97147 0.39061 0.47213 0.0
H89 H 0.06921 0.30742 0.64844 0.0
H90 H 0.12612 0.45962 0.51736 0.0
H91 H 0.98952 0.19012 0.58232 0.0
H92 H 0.07179 0.37677 0.6058 0.0
H93 H 0.9581 0.3308 0.51846 0.0
C94 C 1.00234 0.3937 0.49187 0.0
C95 C 0.05077 0.42953 0.49042 0.0
C96 C 0.05352 0.33591 0.60077 0.0
C97 C 1.03463 0.36207 0.54375 0.0
C98 C 0.05191 0.2964 0.625 0.0
C99 C 1.02939 0.2429 0.61877 0.0
C100 C 1.03122 0.32218 0.57035 0.0
C101 C 1.00766 0.23075 0.588 0.0
C102 C 0.99453 0.35956 0.51826 0.0
C103 C 0.08812 0.43289 0.51729 0.0
N104 N 1.00884 0.27025 0.56491 0.0
N105 N 0.07946 0.39927 0.54279 0.0
H106 H 0.78546 0.10692 -0.04281 0.0
H107 H 0.84985 0.14142 0.13473 0.0
H108 H 0.63489 0.12402 0.01607 0.0
H109 H 0.91693 0.99845 0.08595 0.0
H110 H 0.77535 0.1498 0.09227 0.0
H111 H 0.84152 0.08108 0.00415 0.0
C112 C 0.76344 0.10435 -0.02032 0.0
C113 C 0.70442 0.11702 -0.01787 0.0
C114 C 0.80575 0.116 0.09141 0.0
C115 C 0.77042 0.09025 0.03651 0.0
C116 C 0.84823 0.11127 0.11544 0.0
C117 C 0.88972 1.06935 0.11371 0.0
C118 C 0.80627 1.07967 0.06519 0.0
C119 C 0.88576 1.03133 0.08824 0.0
C120 C 0.796 0.09003 0.00657 0.0
C121 C 0.68017 0.11545 0.01275 0.0
N122 N 0.84566 1.03822 0.06453 0.0
N123 N 0.71352 0.1031 0.03887 0.0
H124 H 0.13282 0.70612 0.51808 0.0
H125 H 0.995 0.9766 0.58812 0.0
H126 H 0.98287 0.78072 0.47343 0.0
H127 H 0.07062 0.85364 0.65026 0.0
H128 H 0.99871 0.9102 0.54365 0.0
H129 H 0.11754 0.76272 0.56563 0.0
C130 C 0.09606 0.73349 0.51835 0.0
C131 C 0.05951 0.73891 0.49134 0.0
C132 C 1.01412 0.89775 0.5671 0.0
C133 C 0.0433 0.80526 0.54542 0.0
C134 C 1.01237 0.93566 0.59238 0.0
C135 C 1.03259 0.92054 0.62286 0.0
C136 C 0.03747 0.8449 0.57221 0.0
C137 C 0.05444 0.86687 0.62713 0.0
C138 C 0.08774 0.76614 0.54548 0.0
C139 C 1.01322 0.77608 0.49322 0.0
N140 N 0.05693 0.83113 0.60199 0.0
N141 N 1.00702 0.80845 0.51954 0.0
H142 H 0.36401 1.05035 0.8821 0.0
H143 H 0.19747 0.17866 0.73201 0.0
H144 H 0.39133 0.21798 0.8491 0.0
H145 H 0.18237 1.00643 0.75935 0.0
H146 H 0.27571 0.19126 0.77142 0.0
H147 H 0.3044 1.03086 0.83439 0.0
C148 C 0.35778 0.08292 0.86466 0.0
C149 C 0.38213 0.13603 0.86972 0.0
C150 C 0.25576 0.15054 0.76858 0.0
C151 C 0.3139 0.11412 0.81509 0.0
C152 C 0.211 0.14329 0.74606 0.0
C153 C 0.18275 0.09155 0.74262 0.0
C154 C 0.27214 0.10588 0.78806 0.0
C155 C 0.20258 1.04716 0.76131 0.0
C156 C 0.32395 1.07173 0.83737 0.0
C157 C 0.3735 0.17642 0.84612 0.0
N158 N 0.24556 1.05552 0.7835 0.0
N159 N 0.33952 0.16483 0.82002 0.0
H160 H 0.04904 0.47659 0.34053 0.0
H161 H 0.06393 0.16224 0.27736 0.0
H162 H 0.10402 0.33811 0.39817 0.0
H163 H 1.03107 0.30124 0.21514 0.0
H164 H 0.07474 0.2266 0.32235 0.0
H165 H 0.04009 0.41384 0.29421 0.0
C166 C 0.05948 0.43314 0.34338 0.0
C167 C 0.07642 0.4124 0.37334 0.0
C168 C 0.06518 0.2431 0.29885 0.0
C169 C 0.06591 0.3405 0.32076 0.0
C170 C 0.05881 0.20629 0.27317 0.0
C171 C 0.04662 0.22636 0.24245 0.0
C172 C 0.05912 0.30047 0.29386 0.0
C173 C 0.04054 0.28394 0.23844 0.0
C174 C 0.05413 0.39732 0.31703 0.0
C175 C 0.0894 0.3557 0.37573 0.0
N176 N 0.04681 0.31899 0.26385 0.0
N177 N 0.08361 0.32181 0.3499 0.0
H178 H 0.69268 1.03286 0.87244 0.0
H179 H 0.86231 0.17132 0.72895 0.0
H180 H 0.67913 0.20511 0.84555 0.0
H181 H 0.87826 0.99893 0.75533 0.0
H182 H 0.78303 0.18026 0.76598 0.0
H183 H 0.74819 1.01554 0.82439 0.0
C184 C 0.70073 1.06686 0.85621 0.0
C185 C 0.68194 0.12068 0.86325 0.0
C186 C 0.80339 0.14028 0.76344 0.0
C187 C 0.74545 0.10123 0.80832 0.0
C188 C 0.84878 0.13514 0.74229 0.0
C189 C 0.87764 0.0845 0.73938 0.0
C190 C 0.78694 0.09461 0.78209 0.0
C191 C 0.85765 1.03891 0.75702 0.0
C192 C 0.7323 1.05694 0.82875 0.0
C193 C 0.69261 0.16295 0.84109 0.0
N194 N 0.81402 1.04524 0.77795 0.0
N195 N 0.72432 0.15248 0.81487 0.0
H196 H 0.11025 0.82898 0.39749 0.0
H197 H 0.0475 0.84583 0.20957 0.0
H198 H 0.05437 0.68677 0.34117 0.0
H199 H 0.0664 0.98944 0.27119 0.0
H200 H 0.05671 0.78577 0.25633 0.0
H201 H 0.10177 0.88699 0.35029 0.0
C202 C 0.09569 0.80994 0.37522 0.0
C203 C 0.082 0.75295 0.37347 0.0
C204 C 0.05872 0.83041 0.25959 0.0
C205 C 0.07332 0.81937 0.31894 0.0
C206 C 0.05355 0.86476 0.23293 0.0
C207 C 0.05618 0.9228 0.23649 0.0
C208 C 0.06707 0.85426 0.29 0.0
C209 C 0.06401 0.94497 0.26731 0.0
C210 C 0.09116 0.84315 0.3482 0.0
C211 C 0.06534 0.73045 0.34363 0.0
N212 N 0.06936 0.91068 0.29284 0.0
N213 N 0.0613 0.76377 0.31752 0.0
loop_
_geom_bond_atom_site_label_1
_geom_bond_atom_site_label_2
_geom_bond_distance
_geom_bond_site_symmetry_2
_ccdc_geom_bond_type
H0 C8 0.930 . S
H1 C11 0.930 . S
H2 C13 0.930 1_565 S
H3 C14 0.970 . S
H4 C14 0.970 1_556 S
H5 C16 0.930 . S
H6 C18 0.930 1_565 S
H7 C20 0.930 . S
C8 H0 0.930 . S
C8 C9 1.382 . S
C8 C10 1.426 . S
C9 C8 1.382 . S
C9 C13 1.389 . S
C10 C8 1.426 . S
C10 C11 1.375 1_554 S
C10 C14 1.532 . S
C11 H1 0.930 . S
C11 C10 1.375 1_556 S
C11 C12 1.416 . S
C12 C11 1.416 . S
C12 C13 1.371 1_556 S
C13 H2 0.930 1_545 S
C13 C9 1.389 . S
C13 C12 1.371 1_554 S
C14 H3 0.970 . S
C14 H4 0.970 1_554 S
C14 C10 1.532 . S
C14 C15 1.500 . S
C15 C14 1.500 . S
C15 C16 1.393 . S
C15 C20 1.392 1_554 S
C16 H5 0.930 . S
C16 C15 1.393 . S
C16 C17 1.407 . S
C17 C16 1.407 . S
C17 C18 1.387 . S
C18 H6 0.930 1_545 S
C18 C17 1.387 . S
C18 C19 1.370 1_554 S
C19 C18 1.370 1_556 S
C19 C20 1.387 . S
C20 H7 0.930 . S
C20 C15 1.392 1_556 S
C20 C19 1.387 . S
H21 C29 0.930 . S
H22 C32 0.930 . S
H23 C34 0.930 1_655 S
H24 C35 0.970 . S
H25 C35 0.970 . S
H26 C37 0.930 . S
H27 C39 0.929 . S
H28 C41 0.930 . S
C29 H21 0.930 . S
C29 C30 1.382 . S
C29 C31 1.426 . S
C30 C29 1.382 . S
C30 C34 1.389 . S
C31 C29 1.426 . S
C31 C32 1.375 . S
C31 C35 1.532 . S
C32 H22 0.930 . S
C32 C31 1.375 . S
C32 C33 1.416 . S
C33 C32 1.416 . S
C33 C34 1.371 . S
C34 H23 0.930 1_455 S
C34 C30 1.389 . S
C34 C33 1.371 . S
C35 H24 0.970 . S
C35 H25 0.970 . S
C35 C31 1.532 . S
C35 C36 1.499 . S
C36 C35 1.499 . S
C36 C37 1.370 . S
C36 C41 1.415 . S
C37 H26 0.930 . S
C37 C36 1.370 . S
C37 C38 1.407 . S
C38 C37 1.407 . S
C38 C39 1.365 1_455 S
C39 H27 0.929 . S
C39 C38 1.365 1_655 S
C39 C40 1.394 1_655 S
C40 C39 1.394 1_455 S
C40 C41 1.387 . S
C41 H28 0.930 . S
C41 C36 1.415 . S
C41 C40 1.387 . S
O42 Cd43 2.223 1_655 S
O42 C50 1.315 . S
Cd43 O42 2.223 1_455 S
Cd43 O46 2.297 1_455 S
Cd43 O47 2.439 1_455 S
Cd43 O53 2.240 1_565 S
Cd44 O45 2.240 . S
Cd44 O52 2.223 1_655 S
Cd44 O54 2.297 1_655 S
Cd44 O55 2.439 1_655 S
O45 Cd44 2.240 . S
O45 C50 1.279 1_545 S
O46 Cd43 2.297 1_655 S
O46 C48 1.247 . S
O47 Cd43 2.439 1_655 S
O47 C48 1.208 . S
C48 O46 1.247 . S
C48 O47 1.208 . S
C49 O54 1.247 . S
C49 O55 1.208 . S
C50 O42 1.315 . S
C50 O45 1.279 1_565 S
C51 O52 1.315 . S
C51 O53 1.279 . S
O52 Cd44 2.223 1_455 S
O52 C51 1.315 . S
O53 Cd43 2.240 1_545 S
O53 C51 1.279 . S
O54 Cd44 2.297 1_455 S
O54 C49 1.247 . S
O55 Cd44 2.439 1_455 S
O55 C49 1.208 . S
O56 Cd57 2.223 1_655 S
O56 C64 1.315 . S
Cd57 O56 2.223 1_455 S
Cd57 O60 2.297 1_455 S
Cd57 O61 2.439 1_455 S
Cd57 O67 2.240 . S
Cd58 O59 2.240 1_565 S
Cd58 O66 2.223 1_655 S
Cd58 O68 2.297 1_655 S
Cd58 O69 2.439 1_655 S
O59 Cd58 2.240 1_545 S
O59 C64 1.279 . S
O60 Cd57 2.297 1_655 S
O60 C62 1.247 . S
O61 Cd57 2.439 1_655 S
O61 C62 1.208 . S
C62 O60 1.247 . S
C62 O61 1.208 . S
C63 O68 1.247 . S
C63 O69 1.208 . S
C64 O56 1.315 . S
C64 O59 1.279 . S
C65 O66 1.315 . S
C65 O67 1.279 1_565 S
O66 Cd58 2.223 1_455 S
O66 C65 1.315 . S
O67 Cd57 2.240 . S
O67 C65 1.279 1_545 S
O68 Cd58 2.297 1_455 S
O68 C63 1.247 . S
O69 Cd58 2.439 1_455 S
O69 C63 1.208 . S
H70 C76 0.930 . S
H71 C80 0.930 . S
H72 C85 0.929 . S
H73 C83 0.929 1_565 S
H74 C78 0.929 . S
H75 C84 0.929 . S
C76 H70 0.930 . S
C76 C77 1.367 1_565 S
C76 C84 1.378 . S
C77 C76 1.367 1_545 S
C77 C85 1.433 . S
C78 H74 0.929 . S
C78 C80 1.378 . S
C78 C82 1.350 . S
C79 C82 1.463 . S
C79 C84 1.350 1_545 S
C79 N87 1.427 . S
C80 H71 0.930 . S
C80 C78 1.378 . S
C80 C81 1.367 . S
C81 C80 1.367 . S
C81 C83 1.433 . S
C82 C78 1.350 . S
C82 C79 1.463 . S
C82 N86 1.427 . S
C83 H73 0.929 1_545 S
C83 C81 1.433 . S
C83 N86 1.384 . S
C84 H75 0.929 . S
C84 C76 1.378 . S
C84 C79 1.350 1_565 S
C85 H72 0.929 . S
C85 C77 1.433 . S
C85 N87 1.384 . S
N86 C82 1.427 . S
N86 C83 1.384 . S
N87 C79 1.427 . S
N87 C85 1.384 . S
H88 C94 0.930 . S
H89 C98 0.930 . S
H90 C103 0.929 . S
H91 C101 0.929 . S
H92 C96 0.929 . S
H93 C102 0.929 . S
C94 H88 0.930 . S
C94 C95 1.367 1_655 S
C94 C102 1.378 . S
C95 C94 1.367 1_455 S
C95 C103 1.433 . S
C96 H92 0.929 . S
C96 C98 1.378 . S
C96 C100 1.350 1_455 S
C97 C100 1.463 . S
C97 C102 1.350 . S
C97 N105 1.427 1_655 S
C98 H89 0.930 . S
C98 C96 1.378 . S
C98 C99 1.367 1_455 S
C99 C98 1.367 1_655 S
C99 C101 1.433 . S
C100 C96 1.350 1_655 S
C100 C97 1.463 . S
C100 N104 1.427 . S
C101 H91 0.929 . S
C101 C99 1.433 . S
C101 N104 1.384 . S
C102 H93 0.929 . S
C102 C94 1.378 . S
C102 C97 1.350 . S
C103 H90 0.929 . S
C103 C95 1.433 . S
C103 N105 1.384 . S
N104 C100 1.427 . S
N104 C101 1.384 . S
N105 C97 1.427 1_455 S
N105 C103 1.384 . S
H106 C112 0.930 . S
H107 C116 0.930 . S
H108 C121 0.929 . S
H109 C119 0.929 . S
H110 C114 0.929 . S
H111 C120 0.928 1_565 S
C112 H106 0.930 . S
C112 C113 1.367 . S
C112 C120 1.378 . S
C113 C112 1.367 . S
C113 C121 1.433 . S
C114 H110 0.929 . S
C114 C116 1.378 1_545 S
C114 C118 1.350 . S
C115 C118 1.464 . S
C115 C120 1.350 . S
C115 N123 1.427 . S
C116 H107 0.930 . S
C116 C114 1.378 1_565 S
C116 C117 1.367 . S
C117 C116 1.367 . S
C117 C119 1.433 . S
C118 C114 1.350 . S
C118 C115 1.464 . S
C118 N122 1.426 1_545 S
C119 H109 0.929 . S
C119 C117 1.433 . S
C119 N122 1.384 . S
C120 H111 0.928 1_545 S
C120 C112 1.378 . S
C120 C115 1.350 . S
C121 H108 0.929 . S
C121 C113 1.433 . S
C121 N123 1.384 . S
N122 C118 1.426 1_565 S
N122 C119 1.384 . S
N123 C115 1.427 . S
N123 C121 1.384 . S
H124 C130 0.930 . S
H125 C134 0.930 . S
H126 C139 0.929 . S
H127 C137 0.929 . S
H128 C132 0.929 1_655 S
H129 C138 0.929 . S
C130 H124 0.930 . S
C130 C131 1.367 . S
C130 C138 1.378 . S
C131 C130 1.367 . S
C131 C139 1.433 1_455 S
C132 H128 0.929 1_455 S
C132 C134 1.378 . S
C132 C136 1.350 . S
C133 C136 1.463 . S
C133 C138 1.350 . S
C133 N141 1.427 1_455 S
C134 H125 0.930 . S
C134 C132 1.378 . S
C134 C135 1.367 . S
C135 C134 1.367 . S
C135 C137 1.433 . S
C136 C132 1.350 . S
C136 C133 1.463 . S
C136 N140 1.427 . S
C137 H127 0.929 . S
C137 C135 1.433 . S
C137 N140 1.384 . S
C138 H129 0.929 . S
C138 C130 1.378 . S
C138 C133 1.350 . S
C139 H126 0.929 . S
C139 C131 1.433 1_655 S
C139 N141 1.384 . S
N140 C136 1.427 . S
N140 C137 1.384 . S
N141 C133 1.427 1_655 S
N141 C139 1.384 . S
H142 C148 0.930 . S
H143 C152 0.930 . S
H144 C157 0.929 . S
H145 C155 0.929 . S
H146 C150 0.929 . S
H147 C156 0.929 . S
C148 H142 0.930 . S
C148 C149 1.367 1_565 S
C148 C156 1.378 . S
C149 C148 1.367 1_545 S
C149 C157 1.433 . S
C150 H146 0.929 . S
C150 C152 1.378 . S
C150 C154 1.350 . S
C151 C154 1.463 . S
C151 C156 1.350 1_545 S
C151 N159 1.427 . S
C152 H143 0.930 . S
C152 C150 1.378 . S
C152 C153 1.367 1_545 S
C153 C152 1.367 1_565 S
C153 C155 1.433 . S
C154 C150 1.350 . S
C154 C151 1.463 . S
C154 N158 1.427 1_545 S
C155 H145 0.929 . S
C155 C153 1.433 . S
C155 N158 1.384 . S
C156 H147 0.929 . S
C156 C148 1.378 . S
C156 C151 1.350 1_565 S
C157 H144 0.929 . S
C157 C149 1.433 . S
C157 N159 1.384 . S
N158 C154 1.427 1_565 S
N158 C155 1.384 . S
N159 C151 1.427 . S
N159 C157 1.384 . S
H160 C166 0.930 . S
H161 C170 0.930 . S
H162 C175 0.935 . S
H163 C173 0.929 . S
H164 C168 0.929 . S
H165 C174 0.929 . S
C166 H160 0.930 . S
C166 C167 1.367 . S
C166 C174 1.378 . S
C167 C166 1.367 . S
C167 C175 1.430 1_455 S
C168 H164 0.929 . S
C168 C170 1.378 . S
C168 C172 1.350 . S
C169 C172 1.463 . S
C169 C174 1.350 . S
C169 N177 1.427 . S
C170 H161 0.930 . S
C170 C168 1.378 . S
C170 C171 1.367 . S
C171 C170 1.367 . S
C171 C173 1.433 . S
C172 C168 1.350 . S
C172 C169 1.463 . S
C172 N176 1.427 . S
C173 H163 0.929 . S
C173 C171 1.433 . S
C173 N176 1.384 . S
C174 H165 0.929 . S
C174 C166 1.378 . S
C174 C169 1.350 . S
C175 H162 0.935 . S
C175 C167 1.430 1_655 S
C175 N177 1.381 1_655 S
N176 C172 1.427 . S
N176 C173 1.384 . S
N177 C169 1.427 . S
N177 C175 1.381 1_455 S
H178 C184 0.930 . S
H179 C188 0.930 . S
H180 C193 0.929 . S
H181 C191 0.929 . S
H182 C186 0.929 . S
H183 C192 0.929 . S
C184 H178 0.930 . S
C184 C185 1.367 1_565 S
C184 C192 1.378 . S
C185 C184 1.367 1_545 S
C185 C193 1.433 . S
C186 H182 0.929 . S
C186 C188 1.378 . S
C186 C190 1.350 . S
C187 C190 1.463 . S
C187 C192 1.350 1_545 S
C187 N195 1.427 . S
C188 H179 0.930 . S
C188 C186 1.378 . S
C188 C189 1.367 . S
C189 C188 1.367 . S
C189 C191 1.433 1_545 S
C190 C186 1.350 . S
C190 C187 1.463 . S
C190 N194 1.427 1_545 S
C191 H181 0.929 . S
C191 C189 1.433 1_565 S
C191 N194 1.384 . S
C192 H183 0.929 . S
C192 C184 1.378 . S
C192 C187 1.350 1_565 S
C193 H180 0.929 . S
C193 C185 1.433 . S
C193 N195 1.384 . S
N194 C190 1.427 1_565 S
N194 C191 1.384 . S
N195 C187 1.427 . S
N195 C193 1.384 . S
H196 C202 0.930 . S
H197 C206 0.930 . S
H198 C211 0.929 . S
H199 C209 0.927 1_455 S
H200 C204 0.929 . S
H201 C210 0.929 . S
C202 H196 0.930 . S
C202 C203 1.367 . S
C202 C210 1.378 . S
C203 C202 1.367 . S
C203 C211 1.433 1_455 S
C204 H200 0.929 . S
C204 C206 1.378 . S
C204 C208 1.350 . S
C205 C208 1.463 . S
C205 C210 1.350 1_655 S
C205 N213 1.427 . S
C206 H197 0.930 . S
C206 C204 1.378 . S
C206 C207 1.367 . S
C207 C206 1.367 . S
C207 C209 1.433 . S
C208 C204 1.350 . S
C208 C205 1.463 . S
C208 N212 1.429 . S
C209 H199 0.927 1_655 S
C209 C207 1.433 . S
C209 N212 1.385 . S
C210 H201 0.929 . S
C210 C202 1.378 . S
C210 C205 1.350 1_455 S
C211 H198 0.929 . S
C211 C203 1.433 1_655 S
C211 N213 1.384 . S
N212 C208 1.429 . S
N212 C209 1.385 . S
N213 C205 1.427 . S
N213 C211 1.384 . S
C81 C51 1.678 . S
C77 C17 1.590 . S
C99 C62 1.555 . S
C95 C40 1.586 . S
C117 C50 1.674 . S
C113 C9 1.613 . S
C135 C63 1.569 . S
C131 C33 1.529 . S
C153 C65 1.665 . S
C149 C19 1.619 . S
C171 C49 1.577 . S
C167 C38 1.549 . S
C189 C64 1.672 . S
C185 C12 1.572 . S
C203 C30 1.579 . S
C207 C48 1.570 . S
