# Generated by pormake.
# Topology anh, (6,3)-cn, num edge types: 1
# Building blocks:
#     Node 0, Type 0, BuildingBlock: VOLQOD_clean_sbu_1, # of connection points: 6
#     Node 1, Type 0, BuildingBlock: VOLQOD_clean_sbu_1, # of connection points: 6
#     Node 2, Type 0, BuildingBlock: VOLQOD_clean_sbu_1, # of connection points: 6
#     Node 3, Type 1, BuildingBlock: CUQRIR_clean_linker_1, # of connection points: 3
#     Node 4, Type 1, BuildingBlock: CUQRIR_clean_linker_1, # of connection points: 3
#     Node 5, Type 1, BuildingBlock: CUQRIR_clean_linker_1, # of connection points: 3
#     Node 6, Type 1, BuildingBlock: CUQRIR_clean_linker_1, # of connection points: 3
#     Node 7, Type 1, BuildingBlock: CUQRIR_clean_linker_1, # of connection points: 3
#     Node 8, Type 1, BuildingBlock: CUQRIR_clean_linker_1, # of connection points: 3
#     Edge 9, Type (0, 1), None
#     Edge 10, Type (0, 1), None
#     Edge 11, Type (0, 1), None
#     Edge 12, Type (0, 1), None
#     Edge 13, Type (0, 1), None
#     Edge 14, Type (0, 1), None
#     Edge 15, Type (0, 1), None
#     Edge 16, Type (0, 1), None
#     Edge 17, Type (0, 1), None
#     Edge 18, Type (0, 1), None
#     Edge 19, Type (0, 1), None
#     Edge 20, Type (0, 1), None
#     Edge 21, Type (0, 1), None
#     Edge 22, Type (0, 1), None
#     Edge 23, Type (0, 1), None
#     Edge 24, Type (0, 1), None
#     Edge 25, Type (0, 1), None
#     Edge 26, Type (0, 1), None
# Relax obj value: 0.198
# Max RMSD: 0.220
# Mean RMSD: 0.163
data_MOF--net-anh--node1-VOLQOD_clean_sbu_1--node2-CUQRIR_clean_linker_1--edge1-none
_symmetry_space_group_name_H-M    P1
_symmetry_Int_Tables_number       1
_symmetry_cell_setting            triclinic
loop_
_symmetry_equiv_pos_as_xyz
'x, y, z'
_cell_length_a     11.419201
_cell_length_b     11.489112
_cell_length_c     20.981637
_cell_angle_alpha  77.013737
_cell_angle_beta   90.651983
_cell_angle_gamma 119.88688
loop_
_atom_site_label
_atom_site_type_symbol
_atom_site_fract_x
_atom_site_fract_y
_atom_site_fract_z
_atom_type_partial_charge
O0 O 0.98569 0.56283 0.34373 0.0
Zn1 Zn 0.01545 0.62952 0.24483 0.0
O2 O 0.05857 0.51281 0.20931 0.0
Zn3 Zn 0.94377 0.41739 0.14861 0.0
Zn4 Zn 0.04348 0.36488 0.28073 0.0
Zn5 Zn 0.22603 0.62328 0.15509 0.0
O6 O 0.03727 0.45893 0.05798 0.0
O7 O 0.21505 0.66281 0.05715 0.0
O8 O 0.82874 0.59222 0.2133 0.0
O9 O 0.80381 0.47134 0.13931 0.0
O10 O 0.8293 0.21135 0.18641 0.0
O11 O 0.84737 0.20764 0.2909 0.0
O12 O 0.19998 0.33392 0.26007 0.0
O13 O 0.19233 0.82695 0.23501 0.0
O14 O 0.32574 0.5258 0.17926 0.0
O15 O 0.33194 0.79665 0.17875 0.0
C16 C 0.01881 0.48851 0.38569 0.0
C17 C 0.13942 0.57319 1.02668 0.0
C18 C 0.77773 0.15631 0.24642 0.0
C19 C 0.75872 0.5246 0.17204 0.0
C20 C 0.30902 0.41681 0.22 0.0
C21 C 0.31365 0.86758 0.21115 0.0
O22 O 0.05739 0.41303 0.3677 0.0
O23 O 0.5119 0.11293 0.3989 0.0
Zn24 Zn 0.45434 0.06194 0.49644 0.0
O25 O 0.58356 0.03068 0.54548 0.0
Zn26 Zn 0.67794 0.14805 0.60227 0.0
Zn27 Zn 0.71224 0.0277 0.48823 0.0
Zn28 Zn 0.48354 0.86362 0.61164 0.0
O29 O 0.63556 0.05063 0.70093 0.0
O30 O 0.42769 0.88367 0.69737 0.0
O31 O 0.44939 0.22284 0.5219 0.0
O32 O 0.61812 0.28764 0.58557 0.0
O33 O 0.87772 0.25557 0.57666 0.0
O34 O 0.89242 0.21182 0.48055 0.0
O35 O 0.69409 0.83395 0.52487 0.0
O36 O 0.27646 0.87312 0.50621 0.0
O37 O 0.60195 0.78351 0.62677 0.0
O38 O 0.32065 0.73261 0.57856 0.0
C39 C 0.58338 0.08455 0.36608 0.0
C40 C 0.51848 0.95483 0.73014 0.0
C41 C 0.9434 0.28822 0.52081 0.0
C42 C 0.53025 0.30729 0.55436 0.0
C43 C 0.64572 0.75041 0.58249 0.0
C44 C 0.24633 0.75001 0.53665 0.0
O45 O 0.65852 0.04108 0.39496 0.0
O46 O 0.41657 0.44493 0.74936 0.0
Zn47 Zn 0.38204 0.38247 0.84876 0.0
O48 O 0.54385 0.50087 0.88461 0.0
Zn49 Zn 0.52527 0.5931 0.94647 0.0
Zn50 Zn 0.6747 0.65196 0.81409 0.0
Zn51 Zn 0.60401 0.39093 0.93853 0.0
O52 O 0.57976 0.55043 1.03679 0.0
O53 O 0.55993 0.3499 1.03672 0.0
O54 O 0.23431 0.42116 0.87963 0.0
O55 O 0.33162 0.53883 0.95501 0.0
O56 O 0.61747 0.79937 0.91171 0.0
O57 O 0.63827 0.81139 0.80643 0.0
O58 O 0.86326 0.68104 0.83423 0.0
O59 O 0.35844 0.18376 0.86108 0.0
O60 O 0.79971 0.48754 0.91392 0.0
O61 O 0.5338 0.21778 0.91534 0.0
C62 C 0.52244 0.52592 0.70783 0.0
C63 C 0.57306 0.43814 0.06754 0.0
C64 C 0.62054 0.85891 0.8524 0.0
C65 C 0.2327 0.48704 0.92157 0.0
C66 C 0.89068 0.5971 0.87361 0.0
C67 C 0.44058 0.14404 0.88483 0.0
O68 O 0.63503 0.60642 0.72634 0.0
C69 C 0.55867 -0.00022 0.21712 0.0
N70 N 0.63975 0.06628 0.26025 0.0
N71 N 0.42765 0.96944 0.23017 0.0
C72 C 0.60564 0.95091 0.16661 0.0
C73 C 0.43572 0.0282 0.28078 0.0
N74 N 0.56064 0.07619 0.30248 0.0
C75 C 0.32985 0.05649 0.30352 0.0
H76 H 0.56006 0.83671 0.18288 0.0
H77 H 0.71676 -0.00636 0.16054 0.0
H78 H 0.57248 -0.02297 0.1182 0.0
H79 H 0.29115 0.00212 0.35573 0.0
H80 H 0.24522 0.03048 0.27275 0.0
H81 H 0.37934 0.16816 0.30194 0.0
C82 C 0.60415 0.54596 0.5464 0.0
N83 N 0.60647 0.6129 0.59271 0.0
N84 N 0.50948 0.40788 0.56559 0.0
C85 C 0.69676 0.61402 0.48254 0.0
C86 C 0.45588 0.39444 0.62591 0.0
N87 N 0.51944 0.51542 0.64404 0.0
C88 C 0.35449 0.25722 0.67083 0.0
H89 H 0.65445 0.66465 0.44598 0.0
H90 H 0.70576 0.5373 0.46213 0.0
H91 H 0.79895 0.69488 0.49006 0.0
H92 H 0.40621 0.23365 0.71247 0.0
H93 H 0.31259 0.17347 0.64463 0.0
H94 H 0.26875 0.2633 0.69084 0.0
C95 C 0.06278 0.53969 0.87418 0.0
N96 N 0.14018 0.5298 0.9222 0.0
N97 N 0.02088 0.62977 0.8793 0.0
C98 C 0.02308 0.45841 0.82259 0.0
C99 C 0.07891 0.67523 0.93214 0.0
N100 N 0.14601 0.61101 0.95997 0.0
C101 C 0.04634 0.76248 0.96436 0.0
H102 H 0.94453 0.46922 0.79458 0.0
H103 H 0.98439 0.34714 0.84618 0.0
H104 H 0.11396 0.4974 0.78727 0.0
H105 H 0.95998 0.69347 1.0039 0.0
H106 H 0.01759 0.82738 0.92784 0.0
H107 H 0.13546 0.83058 0.98684 0.0
C108 C 0.11784 0.50211 0.54031 0.0
N109 N 0.04706 0.42284 0.49868 0.0
N110 N 0.14827 0.63636 0.51746 0.0
C111 C 0.15893 0.44666 0.60341 0.0
C112 C 0.08627 0.63339 0.46174 0.0
N113 N 0.03592 0.50829 0.44772 0.0
C114 C 0.06874 0.7488 0.42158 0.0
H115 H 0.27054 0.49123 0.59772 0.0
H116 H 0.11154 0.33226 0.61566 0.0
H117 H 0.13182 0.47788 0.64473 0.0
H118 H 0.13088 0.78966 0.3734 0.0
H119 H 0.09211 0.83235 0.44609 0.0
H120 H 0.96161 0.70586 0.41122 0.0
C121 C 0.54697 0.0053 0.88471 0.0
N122 N 0.56943 0.94661 0.84033 0.0
N123 N 0.44979 0.03979 0.86753 0.0
C124 C 0.63122 0.04339 0.94122 0.0
C125 C 0.4084 -0.01003 0.81338 0.0
N126 N 0.48669 0.94242 0.79459 0.0
C127 C 0.27895 0.96481 0.78451 0.0
H128 H 0.70963 0.15538 0.92659 0.0
H129 H 0.68837 -0.01081 0.95489 0.0
H130 H 0.56518 0.02381 0.98543 0.0
H131 H 0.22883 0.01383 0.80303 0.0
H132 H 0.20704 0.85164 0.79696 0.0
H133 H 0.29689 -0.00416 0.73018 0.0
C134 C 0.53852 0.47362 0.21932 0.0
N135 N 0.62326 0.48178 0.17159 0.0
N136 N 0.40594 0.38374 0.21446 0.0
C137 C 0.58323 0.55601 0.27046 0.0
C138 C 0.41543 0.33678 0.16209 0.0
N139 N 0.54559 0.39975 0.13424 0.0
C140 C 0.2936 0.24967 0.13002 0.0
H141 H 0.49543 0.54636 0.29828 0.0
H142 H 0.65564 0.66696 0.24652 0.0
H143 H 0.63617 0.51702 0.30601 0.0
H144 H 0.27502 0.31879 0.09043 0.0
H145 H 0.20134 0.18541 0.16659 0.0
H146 H 0.3129 0.18108 0.10765 0.0
loop_
_geom_bond_atom_site_label_1
_geom_bond_atom_site_label_2
_geom_bond_distance
_geom_bond_site_symmetry_2
_ccdc_geom_bond_type
O0 Zn1 1.953 . S
O0 C16 1.225 1_655 S
Zn1 O0 1.953 . S
Zn1 O2 1.949 1_655 S
Zn1 O8 1.919 . S
Zn1 O13 1.924 1_655 S
O2 Zn1 1.949 1_455 S
O2 Zn3 1.923 1_455 S
O2 Zn4 1.950 . S
O2 Zn5 1.945 . S
Zn3 O2 1.923 1_655 S
Zn3 O6 1.933 . S
Zn3 O9 1.941 . S
Zn3 O10 1.965 . S
Zn4 O2 1.950 . S
Zn4 O11 1.938 1_455 S
Zn4 O12 1.906 . S
Zn4 O22 1.953 . S
Zn5 O2 1.945 . S
Zn5 O7 1.932 . S
Zn5 O14 1.977 . S
Zn5 O15 1.910 . S
O6 Zn3 1.933 . S
O6 C17 1.226 1_655 S
O7 Zn5 1.932 . S
O7 C17 1.307 . S
O8 Zn1 1.919 . S
O8 C19 1.253 . S
O9 Zn3 1.941 . S
O9 C19 1.283 . S
O10 Zn3 1.965 . S
O10 C18 1.303 . S
O11 Zn4 1.938 1_655 S
O11 C18 1.247 . S
O12 Zn4 1.906 . S
O12 C20 1.304 . S
O13 Zn1 1.924 1_455 S
O13 C21 1.311 . S
O14 Zn5 1.977 . S
O14 C20 1.272 . S
O15 Zn5 1.910 . S
O15 C21 1.231 . S
C16 O0 1.225 1_455 S
C16 O22 1.298 . S
C17 O6 1.226 1_455 S
C17 O7 1.307 . S
C18 O10 1.303 . S
C18 O11 1.247 . S
C19 O8 1.253 . S
C19 O9 1.283 . S
C20 O12 1.304 . S
C20 O14 1.272 . S
C21 O13 1.311 . S
C21 O15 1.231 . S
O22 Zn4 1.953 . S
O22 C16 1.298 . S
O23 Zn24 1.953 . S
O23 C39 1.225 . S
Zn24 O23 1.953 . S
Zn24 O25 1.949 . S
Zn24 O31 1.919 . S
Zn24 O36 1.924 1_545 S
O25 Zn24 1.949 . S
O25 Zn26 1.923 . S
O25 Zn27 1.950 . S
O25 Zn28 1.945 1_545 S
Zn26 O25 1.923 . S
Zn26 O29 1.933 . S
Zn26 O32 1.941 . S
Zn26 O33 1.965 . S
Zn27 O25 1.950 . S
Zn27 O34 1.938 . S
Zn27 O35 1.906 1_545 S
Zn27 O45 1.953 . S
Zn28 O25 1.945 1_565 S
Zn28 O30 1.932 . S
Zn28 O37 1.977 . S
Zn28 O38 1.910 . S
O29 Zn26 1.933 . S
O29 C40 1.226 . S
O30 Zn28 1.932 . S
O30 C40 1.307 1_565 S
O31 Zn24 1.919 . S
O31 C42 1.253 . S
O32 Zn26 1.941 . S
O32 C42 1.283 . S
O33 Zn26 1.965 . S
O33 C41 1.303 . S
O34 Zn27 1.938 . S
O34 C41 1.247 . S
O35 Zn27 1.906 1_565 S
O35 C43 1.304 . S
O36 Zn24 1.924 1_565 S
O36 C44 1.311 . S
O37 Zn28 1.977 . S
O37 C43 1.272 . S
O38 Zn28 1.910 . S
O38 C44 1.231 . S
C39 O23 1.225 . S
C39 O45 1.298 . S
C40 O29 1.226 . S
C40 O30 1.307 1_545 S
C41 O33 1.303 . S
C41 O34 1.247 . S
C42 O31 1.253 . S
C42 O32 1.283 . S
C43 O35 1.304 . S
C43 O37 1.272 . S
C44 O36 1.311 . S
C44 O38 1.231 . S
O45 Zn27 1.953 . S
O45 C39 1.298 . S
O46 Zn47 1.953 . S
O46 C62 1.225 . S
Zn47 O46 1.953 . S
Zn47 O48 1.949 . S
Zn47 O54 1.919 . S
Zn47 O59 1.924 . S
O48 Zn47 1.949 . S
O48 Zn49 1.923 . S
O48 Zn50 1.950 . S
O48 Zn51 1.945 . S
Zn49 O48 1.923 . S
Zn49 O52 1.933 . S
Zn49 O55 1.941 . S
Zn49 O56 1.965 . S
Zn50 O48 1.950 . S
Zn50 O57 1.938 . S
Zn50 O58 1.906 . S
Zn50 O68 1.953 . S
Zn51 O48 1.945 . S
Zn51 O53 1.932 . S
Zn51 O60 1.977 . S
Zn51 O61 1.910 . S
O52 Zn49 1.933 . S
O52 C63 1.226 . S
O53 Zn51 1.932 . S
O53 C63 1.307 . S
O54 Zn47 1.919 . S
O54 C65 1.253 . S
O55 Zn49 1.941 . S
O55 C65 1.283 . S
O56 Zn49 1.965 . S
O56 C64 1.303 . S
O57 Zn50 1.938 . S
O57 C64 1.247 . S
O58 Zn50 1.906 . S
O58 C66 1.304 . S
O59 Zn47 1.924 . S
O59 C67 1.311 . S
O60 Zn51 1.977 . S
O60 C66 1.272 . S
O61 Zn51 1.910 . S
O61 C67 1.231 . S
C62 O46 1.225 . S
C62 O68 1.298 . S
C63 O52 1.226 . S
C63 O53 1.307 . S
C64 O56 1.303 . S
C64 O57 1.247 . S
C65 O54 1.253 . S
C65 O55 1.283 . S
C66 O58 1.304 . S
C66 O60 1.272 . S
C67 O59 1.311 . S
C67 O61 1.231 . S
O68 Zn50 1.953 . S
O68 C62 1.298 . S
C69 N70 1.317 . S
C69 N71 1.348 1_545 S
C69 C72 1.485 . S
N70 C69 1.317 . S
N70 N74 1.370 . S
N71 C69 1.348 1_565 S
N71 C73 1.346 . S
C72 C69 1.485 . S
C72 H76 0.960 . S
C72 H77 0.961 1_545 S
C72 H78 0.960 . S
C73 N71 1.346 . S
C73 N74 1.307 1_565 S
C73 C75 1.486 . S
N74 N70 1.370 . S
N74 C73 1.307 1_545 S
C75 C73 1.486 . S
C75 H79 0.960 . S
C75 H80 0.960 . S
C75 H81 0.959 . S
H76 C72 0.960 . S
H77 C72 0.961 1_565 S
H78 C72 0.960 . S
H79 C75 0.960 . S
H80 C75 0.960 . S
H81 C75 0.959 . S
C82 N83 1.317 . S
C82 N84 1.348 . S
C82 C85 1.485 . S
N83 C82 1.317 . S
N83 N87 1.370 . S
N84 C82 1.348 . S
N84 C86 1.346 . S
C85 C82 1.485 . S
C85 H89 0.960 . S
C85 H90 0.961 . S
C85 H91 0.960 . S
C86 N84 1.346 . S
C86 N87 1.307 . S
C86 C88 1.486 . S
N87 N83 1.370 . S
N87 C86 1.307 . S
C88 C86 1.486 . S
C88 H92 0.960 . S
C88 H93 0.960 . S
C88 H94 0.959 . S
H89 C85 0.960 . S
H90 C85 0.961 . S
H91 C85 0.960 . S
H92 C88 0.960 . S
H93 C88 0.960 . S
H94 C88 0.959 . S
C95 N96 1.317 . S
C95 N97 1.348 1_455 S
C95 C98 1.485 . S
N96 C95 1.317 . S
N96 N100 1.370 . S
N97 C95 1.348 1_655 S
N97 C99 1.346 . S
C98 C95 1.485 . S
C98 H102 0.960 . S
C98 H103 0.961 . S
C98 H104 0.960 . S
C99 N97 1.346 . S
C99 N100 1.307 1_655 S
C99 C101 1.486 . S
N100 N96 1.370 . S
N100 C99 1.307 1_455 S
C101 C99 1.486 . S
C101 H105 0.960 . S
C101 H106 0.960 . S
C101 H107 0.959 1_556 S
H102 C98 0.960 . S
H103 C98 0.961 . S
H104 C98 0.960 . S
H105 C101 0.960 . S
H106 C101 0.960 . S
H107 C101 0.959 1_554 S
C108 N109 1.317 1_455 S
C108 N110 1.348 . S
C108 C111 1.485 . S
N109 C108 1.317 1_655 S
N109 N113 1.370 1_655 S
N110 C108 1.348 . S
N110 C112 1.346 . S
C111 C108 1.485 . S
C111 H115 0.960 . S
C111 H116 0.961 . S
C111 H117 0.960 1_455 S
C112 N110 1.346 . S
C112 N113 1.307 . S
C112 C114 1.486 . S
N113 N109 1.370 1_455 S
N113 C112 1.307 . S
C114 C112 1.486 . S
C114 H118 0.960 . S
C114 H119 0.960 . S
C114 H120 0.959 . S
H115 C111 0.960 . S
H116 C111 0.961 . S
H117 C111 0.960 1_655 S
H118 C114 0.960 . S
H119 C114 0.960 . S
H120 C114 0.959 . S
C121 N122 1.317 1_545 S
C121 N123 1.348 . S
C121 C124 1.485 . S
N122 C121 1.317 1_565 S
N122 N126 1.370 1_565 S
N123 C121 1.348 . S
N123 C125 1.346 . S
C124 C121 1.485 . S
C124 H128 0.960 1_545 S
C124 H129 0.961 . S
C124 H130 0.960 1_545 S
C125 N123 1.346 . S
C125 N126 1.307 . S
C125 C127 1.486 . S
N126 N122 1.370 1_545 S
N126 C125 1.307 . S
C127 C125 1.486 . S
C127 H131 0.960 . S
C127 H132 0.960 . S
C127 H133 0.959 . S
H128 C124 0.960 1_565 S
H129 C124 0.961 . S
H130 C124 0.960 1_565 S
H131 C127 0.960 . S
H132 C127 0.960 . S
H133 C127 0.959 . S
C134 N135 1.317 . S
C134 N136 1.348 . S
C134 C137 1.485 . S
N135 C134 1.317 . S
N135 N139 1.370 . S
N136 C134 1.348 . S
N136 C138 1.346 . S
C137 C134 1.485 . S
C137 H141 0.960 . S
C137 H142 0.961 . S
C137 H143 0.960 . S
C138 N136 1.346 . S
C138 N139 1.307 . S
C138 C140 1.486 . S
N139 N135 1.370 . S
N139 C138 1.307 . S
C140 C138 1.486 . S
C140 H144 0.960 . S
C140 H145 0.960 . S
C140 H146 0.959 1_554 S
H141 C137 0.960 . S
H142 C137 0.961 . S
H143 C137 0.960 . S
H144 C140 0.960 . S
H145 C140 0.960 . S
H146 C140 0.959 1_556 S
C20 N136 1.350 . S
C41 N109 1.938 . S
C64 N122 1.910 . S
C19 N135 1.768 . S
N110 C44 1.595 . S
N123 C67 1.606 . S
C43 N83 1.629 . S
C66 N97 1.354 . S
C21 N71 1.634 . S
N84 C42 1.491 . S
N96 C65 1.773 . S
C18 N70 1.852 . S
N100 C17 1.534 1_556 S
C39 N74 1.641 . S
C62 N87 1.625 . S
N126 C40 1.640 . S
N139 C63 1.535 1_554 S
C16 N113 1.605 . S
