# Generated by pormake.
# Topology anh, (6,3)-cn, num edge types: 1
# Building blocks:
#     Node 0, Type 0, BuildingBlock: BETFAJ_clean_sbu_0, # of connection points: 6
#     Node 1, Type 0, BuildingBlock: BETFAJ_clean_sbu_0, # of connection points: 6
#     Node 2, Type 0, BuildingBlock: BETFAJ_clean_sbu_0, # of connection points: 6
#     Node 3, Type 1, BuildingBlock: CUQRIR_clean_linker_1, # of connection points: 3
#     Node 4, Type 1, BuildingBlock: CUQRIR_clean_linker_1, # of connection points: 3
#     Node 5, Type 1, BuildingBlock: CUQRIR_clean_linker_1, # of connection points: 3
#     Node 6, Type 1, BuildingBlock: CUQRIR_clean_linker_1, # of connection points: 3
#     Node 7, Type 1, BuildingBlock: CUQRIR_clean_linker_1, # of connection points: 3
#     Node 8, Type 1, BuildingBlock: CUQRIR_clean_linker_1, # of connection points: 3
#     Edge 9, Type (0, 1), None
#     Edge 10, Type (0, 1), None
#     Edge 11, Type (0, 1), None
#     Edge 12, Type (0, 1), None
#     Edge 13, Type (0, 1), None
#     Edge 14, Type (0, 1), None
#     Edge 15, Type (0, 1), None
#     Edge 16, Type (0, 1), None
#     Edge 17, Type (0, 1), None
#     Edge 18, Type (0, 1), None
#     Edge 19, Type (0, 1), None
#     Edge 20, Type (0, 1), None
#     Edge 21, Type (0, 1), None
#     Edge 22, Type (0, 1), None
#     Edge 23, Type (0, 1), None
#     Edge 24, Type (0, 1), None
#     Edge 25, Type (0, 1), None
#     Edge 26, Type (0, 1), None
# Relax obj value: 0.526
# Max RMSD: 0.328
# Mean RMSD: 0.206
data_MOF--net-anh--node1-BETFAJ_clean_sbu_0--node2-CUQRIR_clean_linker_1--edge1-none
_symmetry_space_group_name_H-M    P1
_symmetry_Int_Tables_number       1
_symmetry_cell_setting            triclinic
loop_
_symmetry_equiv_pos_as_xyz
'x, y, z'
_cell_length_a     12.159481
_cell_length_b     17.298723
_cell_length_c     19.31493
_cell_angle_alpha  85.829643
_cell_angle_beta   92.249586
_cell_angle_gamma 141.27138
loop_
_atom_site_label
_atom_site_type_symbol
_atom_site_fract_x
_atom_site_fract_y
_atom_site_fract_z
_atom_type_partial_charge
Sm0 Sm 0.43464 0.55154 0.18042 0.0
Sm1 Sm 1.22397 0.51139 0.16308 0.0
C2 C 0.73857 0.65603 0.20825 0.0
C3 C 0.89291 0.77437 0.24028 0.0
C4 C 1.00823 0.886 0.19809 0.0
C5 C 1.18778 0.96642 0.19884 0.0
C6 C 1.22668 0.91194 0.22597 0.0
C7 C 1.14838 0.85634 0.29305 0.0
C8 C 0.96748 0.77452 0.29817 0.0
C9 C 0.31387 0.53481 0.31112 0.0
C10 C 0.58705 0.80968 0.16464 0.0
C11 C 0.90244 0.39282 0.16287 0.0
C12 C 0.73332 0.326 0.13379 0.0
C13 C 0.64835 0.32968 0.17767 0.0
C14 C 0.69538 0.43419 0.16876 0.0
C15 C 0.81515 0.52308 0.11399 0.0
C16 C 0.82265 0.47975 0.05737 0.0
C17 C 0.75488 0.36737 0.06535 0.0
C18 C 0.44796 0.60815 0.01809 0.0
C19 C 1.09349 0.26562 0.19234 0.0
O20 O 0.70065 0.66264 0.14573 0.0
O21 O 0.60058 0.56382 0.2478 0.0
O22 O 0.36086 0.60303 0.25891 0.0
O23 O 0.32133 0.46738 0.29612 0.0
O24 O 0.63249 0.76456 0.14982 0.0
O25 O 0.41649 0.72248 0.17931 0.0
O26 O 0.93138 0.33573 0.17894 0.0
O27 O 1.04552 0.51063 0.14383 0.0
O28 O 0.33334 0.51988 0.0655 0.0
O29 O 0.32892 0.51428 0.06386 0.0
O30 O 1.07432 0.32257 0.21815 0.0
O31 O 1.24286 0.3413 0.15748 0.0
H32 H 0.96078 0.90053 0.15767 0.0
H33 H 1.2744 1.04438 0.16083 0.0
H34 H 1.20449 0.84585 0.33103 0.0
H35 H 0.88596 0.69983 0.33843 0.0
H36 H 0.59117 0.27607 0.22713 0.0
H37 H 0.66618 0.4551 0.21027 0.0
H38 H 0.91001 0.53969 0.01376 0.0
H39 H 0.78669 0.34545 0.02581 0.0
Sm40 Sm 0.99384 0.1158 0.45987 0.0
Sm41 Sm 0.75273 0.08963 0.46303 0.0
C42 C 1.18003 0.09187 0.48089 0.0
C43 C 1.11106 0.98601 0.52116 0.0
C44 C 0.99813 0.9341 0.57879 0.0
C45 C 0.89958 0.81819 0.60842 0.0
C46 C 0.9175 0.75562 0.58301 0.0
C47 C 1.03821 0.81049 0.52804 0.0
C48 C 1.12914 0.92297 0.49543 0.0
C49 C 0.89575 0.11255 0.32513 0.0
C50 C 0.58436 0.82682 0.46332 0.0
C51 C 0.56132 0.11118 0.45257 0.0
C52 C 0.59372 0.20293 0.48311 0.0
C53 C 0.71989 0.32435 0.45243 0.0
C54 C 0.77582 0.41708 0.48811 0.0
C55 C 0.7034 0.3892 0.5538 0.0
C56 C 0.57047 0.26772 0.58273 0.0
C57 C 0.51896 0.17554 0.54854 0.0
C58 C 0.84063 0.09183 0.59984 0.0
C59 C 1.17608 0.38111 0.44943 0.0
O60 O 1.20259 0.16464 0.51621 0.0
O61 O 1.10034 1.0645 0.42285 0.0
O62 O 0.79454 1.03762 0.37572 0.0
O63 O 1.05758 0.19839 0.34517 0.0
O64 O 0.73859 0.89593 0.49201 0.0
O65 O 0.56732 0.8888 0.43535 0.0
O66 O 0.6734 0.15444 0.40399 0.0
O67 O 0.52223 1.03103 0.49666 0.0
O68 O 0.94524 0.16676 0.54916 0.0
O69 O 0.68392 1.00456 0.57555 0.0
O70 O 1.01064 0.3061 0.43267 0.0
O71 O 1.21167 0.32859 0.46968 0.0
H72 H 0.97635 0.97885 0.59779 0.0
H73 H 0.80056 0.77277 0.64775 0.0
H74 H 1.05496 0.76304 0.50827 0.0
H75 H 1.20897 0.95882 0.44923 0.0
H76 H 0.7811 0.34918 0.40229 0.0
H77 H 0.87669 0.5109 0.46496 0.0
H78 H 0.51013 0.24546 0.63243 0.0
H79 H 0.42565 0.08413 0.57463 0.0
Sm80 Sm 0.92959 0.70411 0.87497 0.0
Sm81 Sm 0.81227 0.59447 0.8726 0.0
C82 C 1.09068 0.92618 0.83104 0.0
C83 C 1.03004 0.9679 0.79909 0.0
C84 C 0.87544 0.88806 0.76118 0.0
C85 C 0.81664 0.92711 0.73168 0.0
C86 C 0.90786 1.04497 0.74254 0.0
C87 C 1.0611 0.12456 0.78158 0.0
C88 C 1.12071 0.08583 0.81014 0.0
C89 C 1.0165 0.73682 0.0089 0.0
C90 C 0.57314 0.63895 0.86512 0.0
C91 C 0.59696 0.35421 0.87004 0.0
C92 C 0.6354 0.29971 0.83956 0.0
C93 C 0.77862 0.33222 0.86254 0.0
C94 C 0.82668 0.29179 0.82974 0.0
C95 C 0.73209 0.2167 0.77352 0.0
C96 C 0.58567 0.18026 0.75179 0.0
C97 C 0.53941 0.22281 0.78372 0.0
C98 C 0.88563 0.65236 0.72975 0.0
C99 C 1.15838 0.64882 0.85761 0.0
O100 O 1.08367 0.8629 0.79413 0.0
O101 O 1.03572 0.87892 0.89417 0.0
O102 O 0.86169 0.64669 -0.01314 0.0
O103 O 1.13453 0.81173 0.9593 0.0
O104 O 0.64568 0.6171 0.90175 0.0
O105 O 0.64128 0.61546 0.90388 0.0
O106 O 0.68686 0.41889 0.92297 0.0
O107 O 0.58403 0.40828 0.82757 0.0
O108 O 0.96812 0.66107 0.77632 0.0
O109 O 0.76991 0.63197 0.75963 0.0
O110 O 1.07541 0.65533 0.8967 0.0
O111 O 1.07607 0.65547 0.89755 0.0
H112 H 0.79788 0.79436 0.7561 0.0
H113 H 0.69765 0.86466 0.70231 0.0
H114 H 1.13058 0.21505 0.79196 0.0
H115 H 1.23464 0.14662 0.84242 0.0
H116 H 0.85733 0.39181 0.90484 0.0
H117 H 0.93949 0.32051 0.84766 0.0
H118 H 0.50883 0.12018 0.70942 0.0
H119 H 0.43231 0.19867 0.76306 0.0
C120 C 0.88479 1.0449 0.16212 0.0
N121 N 0.96394 0.13762 0.20558 0.0
N122 N 0.71151 0.93275 0.183 0.0
C123 C 0.9665 1.06806 0.09482 0.0
C124 C 0.69386 0.96477 0.23964 0.0
N125 N 0.84836 1.08043 0.25756 0.0
C126 C 0.52031 0.89281 0.26931 0.0
H127 H 0.97807 0.12703 0.05852 0.0
H128 H 0.88639 0.98022 0.07081 0.0
H129 H 1.10128 0.11954 0.10378 0.0
H130 H 0.45285 0.80311 0.29043 0.0
H131 H 0.44037 0.87499 0.22666 0.0
H132 H 0.53214 0.94208 0.30897 0.0
C133 C 0.73363 0.54552 0.56807 0.0
N134 N 0.81125 0.6344 0.61159 0.0
N135 N 0.75626 0.48316 0.58934 0.0
C136 C 0.65989 0.53251 0.4989 0.0
C137 C 0.84731 0.53464 0.64826 0.0
N138 N 0.87139 0.62193 0.66396 0.0
C139 C 0.94316 0.51886 0.68118 0.0
H140 H 0.64439 0.58773 0.49397 0.0
H141 H 0.53179 0.43354 0.49219 0.0
H142 H 0.75032 0.56604 0.45634 0.0
H143 H 0.98727 0.50436 0.64089 0.0
H144 H 0.85466 0.43777 0.7187 0.0
H145 H 1.06086 0.6017 0.70833 0.0
C146 C 0.36445 0.64153 0.84893 0.0
N147 N 0.45259 0.6318 0.89079 0.0
N148 N 1.26512 0.64153 0.88472 0.0
C149 C 0.36471 0.64325 0.77118 0.0
C150 C 0.29676 0.62961 0.95114 0.0
N151 N 0.39865 0.61834 0.95564 0.0
C152 C 1.2404 0.64017 0.01264 0.0
H153 H 0.40161 0.72234 0.74878 0.0
H154 H 1.22916 0.55746 0.75461 0.0
H155 H 0.45428 0.64847 0.75057 0.0
H156 H 1.10268 0.54785 0.02269 0.0
H157 H 1.25157 0.70996 0.00259 0.0
H158 H 0.31894 0.66638 0.05827 0.0
C159 C 0.41981 0.60564 0.47561 0.0
N160 N 0.30881 0.50808 0.43264 0.0
N161 N 0.4627 0.70307 0.44813 0.0
C162 C 0.44343 0.59337 0.5505 0.0
C163 C 0.35665 0.65273 0.39274 0.0
N164 N 0.29678 0.55 0.37691 0.0
C165 C 1.22283 0.64356 0.39124 0.0
H166 H 0.35031 0.57502 0.58254 0.0
H167 H 0.57754 0.68169 0.56549 0.0
H168 H 0.41703 0.51608 0.56132 0.0
H169 H 1.12229 0.57881 0.3523 0.0
H170 H 1.28198 0.73427 0.38199 0.0
H171 H 1.15497 0.60518 0.4429 0.0
C172 C 0.78528 0.10331 0.77046 0.0
N173 N 0.83312 1.07845 0.72351 0.0
N174 N 0.78046 0.17357 0.74055 0.0
C175 C 0.74219 1.05786 0.84587 0.0
C176 C 0.8297 0.19172 0.67342 0.0
N177 N 0.86166 0.13364 0.66257 0.0
C178 C 0.86871 0.2787 0.62031 0.0
H179 H 0.638 1.039 0.86563 0.0
H180 H 0.86171 0.13046 0.87646 0.0
H181 H 0.69824 0.97245 0.85357 0.0
H182 H 0.81038 0.30097 0.63641 0.0
H183 H 0.82061 0.23912 0.56897 0.0
H184 H 1.01335 0.3657 0.61481 0.0
C185 C 1.05046 0.70682 0.18527 0.0
N186 N 0.96102 0.65462 0.12548 0.0
N187 N 1.19198 0.83347 0.17735 0.0
C188 C 1.01977 0.6361 0.24943 0.0
C189 C 1.20122 0.85319 0.10716 0.0
N190 N 1.05748 0.74715 0.07673 0.0
C191 C 0.34926 0.97883 0.06918 0.0
H192 H 0.99079 0.5608 0.23698 0.0
H193 H 0.90655 0.59304 0.28106 0.0
H194 H 1.13865 0.69888 0.28065 0.0
H195 H 0.29759 1.00439 0.04237 0.0
H196 H 0.40911 0.97606 0.02926 0.0
H197 H 0.45363 1.05035 0.10521 0.0
loop_
_geom_bond_atom_site_label_1
_geom_bond_atom_site_label_2
_geom_bond_distance
_geom_bond_site_symmetry_2
_ccdc_geom_bond_type
Sm0 C2 2.846 . S
Sm0 O20 2.543 . S
Sm0 O21 2.450 . S
Sm0 O22 2.681 1_455 S
Sm0 O23 2.464 . S
Sm0 O24 2.396 . S
Sm0 O28 2.386 . S
Sm0 O31 2.408 1_455 S
Sm1 C11 2.846 . S
Sm1 O22 2.386 . S
Sm1 O25 2.408 1_655 S
Sm1 O26 2.543 . S
Sm1 O27 2.450 . S
Sm1 O28 2.681 1_655 S
Sm1 O29 2.464 . S
Sm1 O30 2.396 . S
C2 Sm0 2.846 . S
C2 C3 1.506 . S
C2 O20 1.261 . S
C2 O21 1.242 . S
C3 C2 1.506 . S
C3 C4 1.358 . S
C3 C8 1.382 . S
C4 C3 1.358 . S
C4 C5 1.385 . S
C4 H32 0.930 . S
C5 C4 1.385 . S
C5 C6 1.395 . S
C5 H33 0.929 . S
C6 C5 1.395 . S
C6 C7 1.335 . S
C7 C6 1.335 . S
C7 C8 1.398 . S
C7 H34 0.930 . S
C8 C3 1.382 . S
C8 C7 1.398 . S
C8 H35 0.929 . S
C9 O22 1.265 1_455 S
C9 O23 1.263 . S
C10 O24 1.252 . S
C10 O25 1.272 . S
C11 Sm1 2.846 . S
C11 C12 1.506 . S
C11 O26 1.261 . S
C11 O27 1.242 . S
C12 C11 1.506 . S
C12 C13 1.358 . S
C12 C17 1.382 . S
C13 C12 1.358 . S
C13 C14 1.385 . S
C13 H36 0.930 . S
C14 C13 1.385 . S
C14 C15 1.395 . S
C14 H37 0.929 . S
C15 C14 1.395 . S
C15 C16 1.335 . S
C16 C15 1.335 . S
C16 C17 1.398 . S
C16 H38 0.930 . S
C17 C12 1.382 . S
C17 C16 1.398 . S
C17 H39 0.929 . S
C18 O28 1.271 . S
C18 O29 1.251 1_455 S
C19 O30 1.252 . S
C19 O31 1.272 . S
O20 Sm0 2.543 . S
O20 C2 1.261 . S
O21 Sm0 2.450 . S
O21 C2 1.242 . S
O22 Sm0 2.681 1_655 S
O22 Sm1 2.386 . S
O22 C9 1.265 1_655 S
O23 Sm0 2.464 . S
O23 C9 1.263 . S
O24 Sm0 2.396 . S
O24 C10 1.252 . S
O25 Sm1 2.408 1_455 S
O25 C10 1.272 . S
O26 Sm1 2.543 . S
O26 C11 1.261 . S
O27 Sm1 2.450 . S
O27 C11 1.242 . S
O28 Sm0 2.386 . S
O28 Sm1 2.681 1_455 S
O28 C18 1.271 . S
O29 Sm1 2.464 . S
O29 C18 1.251 1_655 S
O30 Sm1 2.396 . S
O30 C19 1.252 . S
O31 Sm0 2.408 1_655 S
O31 C19 1.272 . S
H32 C4 0.930 . S
H33 C5 0.929 . S
H34 C7 0.930 . S
H35 C8 0.929 . S
H36 C13 0.930 . S
H37 C14 0.929 . S
H38 C16 0.930 . S
H39 C17 0.929 . S
Sm40 C42 2.846 1_545 S
Sm40 O60 2.543 1_545 S
Sm40 O61 2.450 1_545 S
Sm40 O62 2.681 . S
Sm40 O63 2.464 . S
Sm40 O64 2.396 1_545 S
Sm40 O68 2.386 . S
Sm40 O71 2.408 . S
Sm41 C51 2.846 . S
Sm41 O62 2.386 . S
Sm41 O65 2.408 1_545 S
Sm41 O66 2.543 . S
Sm41 O67 2.450 . S
Sm41 O68 2.681 . S
Sm41 O69 2.464 . S
Sm41 O70 2.396 . S
C42 Sm40 2.846 1_565 S
C42 C43 1.506 . S
C42 O60 1.261 . S
C42 O61 1.242 . S
C43 C42 1.506 . S
C43 C44 1.358 . S
C43 C48 1.382 . S
C44 C43 1.358 . S
C44 C45 1.385 . S
C44 H72 0.930 . S
C45 C44 1.385 . S
C45 C46 1.395 . S
C45 H73 0.929 . S
C46 C45 1.395 . S
C46 C47 1.335 . S
C47 C46 1.335 . S
C47 C48 1.398 . S
C47 H74 0.930 . S
C48 C43 1.382 . S
C48 C47 1.398 . S
C48 H75 0.929 . S
C49 O62 1.271 . S
C49 O63 1.251 . S
C50 O64 1.252 . S
C50 O65 1.272 . S
C51 Sm41 2.846 . S
C51 C52 1.506 . S
C51 O66 1.261 . S
C51 O67 1.242 . S
C52 C51 1.506 . S
C52 C53 1.358 . S
C52 C57 1.382 . S
C53 C52 1.358 . S
C53 C54 1.385 . S
C53 H76 0.930 . S
C54 C53 1.385 . S
C54 C55 1.395 . S
C54 H77 0.929 . S
C55 C54 1.395 . S
C55 C56 1.335 . S
C56 C55 1.335 . S
C56 C57 1.398 . S
C56 H78 0.930 . S
C57 C52 1.382 . S
C57 C56 1.398 . S
C57 H79 0.929 . S
C58 O68 1.271 . S
C58 O69 1.251 . S
C59 O70 1.252 . S
C59 O71 1.272 . S
O60 Sm40 2.543 1_565 S
O60 C42 1.261 . S
O61 Sm40 2.450 1_565 S
O61 C42 1.242 . S
O62 Sm40 2.681 . S
O62 Sm41 2.386 . S
O62 C49 1.271 . S
O63 Sm40 2.464 . S
O63 C49 1.251 . S
O64 Sm40 2.396 1_565 S
O64 C50 1.252 . S
O65 Sm41 2.408 1_565 S
O65 C50 1.272 . S
O66 Sm41 2.543 . S
O66 C51 1.261 . S
O67 Sm41 2.450 . S
O67 C51 1.242 . S
O68 Sm40 2.386 . S
O68 Sm41 2.681 . S
O68 C58 1.271 . S
O69 Sm41 2.464 . S
O69 C58 1.251 . S
O70 Sm41 2.396 . S
O70 C59 1.252 . S
O71 Sm40 2.408 . S
O71 C59 1.272 . S
H72 C44 0.930 . S
H73 C45 0.929 . S
H74 C47 0.930 . S
H75 C48 0.929 . S
H76 C53 0.930 . S
H77 C54 0.929 . S
H78 C56 0.930 . S
H79 C57 0.929 . S
Sm80 C82 2.846 . S
Sm80 O100 2.543 . S
Sm80 O101 2.450 . S
Sm80 O102 2.681 . S
Sm80 O103 2.464 1_556 S
Sm80 O104 2.396 . S
Sm80 O108 2.386 . S
Sm80 O111 2.408 . S
Sm81 C91 2.846 . S
Sm81 O102 2.386 . S
Sm81 O105 2.408 . S
Sm81 O106 2.543 . S
Sm81 O107 2.450 . S
Sm81 O108 2.681 . S
Sm81 O109 2.464 . S
Sm81 O110 2.396 . S
C82 Sm80 2.846 . S
C82 C83 1.506 . S
C82 O100 1.261 . S
C82 O101 1.242 . S
C83 C82 1.506 . S
C83 C84 1.358 . S
C83 C88 1.382 1_565 S
C84 C83 1.358 . S
C84 C85 1.385 1_565 S
C84 H112 0.930 . S
C85 C84 1.385 1_545 S
C85 C86 1.395 . S
C85 H113 0.929 . S
C86 C85 1.395 . S
C86 C87 1.335 . S
C87 C86 1.335 . S
C87 C88 1.398 . S
C87 H114 0.930 . S
C88 C83 1.382 1_545 S
C88 C87 1.398 . S
C88 H115 0.929 1_545 S
C89 O102 1.271 1_554 S
C89 O103 1.251 . S
C90 O104 1.252 . S
C90 O105 1.272 . S
C91 Sm81 2.846 . S
C91 C92 1.506 . S
C91 O106 1.261 . S
C91 O107 1.242 . S
C92 C91 1.506 . S
C92 C93 1.358 . S
C92 C97 1.382 . S
C93 C92 1.358 . S
C93 C94 1.385 . S
C93 H116 0.930 . S
C94 C93 1.385 . S
C94 C95 1.395 . S
C94 H117 0.929 . S
C95 C94 1.395 . S
C95 C96 1.335 . S
C96 C95 1.335 . S
C96 C97 1.398 . S
C96 H118 0.930 . S
C97 C92 1.382 . S
C97 C96 1.398 . S
C97 H119 0.929 . S
C98 O108 1.271 . S
C98 O109 1.251 . S
C99 O110 1.252 . S
C99 O111 1.272 . S
O100 Sm80 2.543 . S
O100 C82 1.261 . S
O101 Sm80 2.450 . S
O101 C82 1.242 . S
O102 Sm80 2.681 . S
O102 Sm81 2.386 . S
O102 C89 1.271 1_556 S
O103 Sm80 2.464 1_554 S
O103 C89 1.251 . S
O104 Sm80 2.396 . S
O104 C90 1.252 . S
O105 Sm81 2.408 . S
O105 C90 1.272 . S
O106 Sm81 2.543 . S
O106 C91 1.261 . S
O107 Sm81 2.450 . S
O107 C91 1.242 . S
O108 Sm80 2.386 . S
O108 Sm81 2.681 . S
O108 C98 1.271 . S
O109 Sm81 2.464 . S
O109 C98 1.251 . S
O110 Sm81 2.396 . S
O110 C99 1.252 . S
O111 Sm80 2.408 . S
O111 C99 1.272 . S
H112 C84 0.930 . S
H113 C85 0.929 . S
H114 C87 0.930 . S
H115 C88 0.929 1_565 S
H116 C93 0.930 . S
H117 C94 0.929 . S
H118 C96 0.930 . S
H119 C97 0.929 . S
C120 N121 1.317 1_565 S
C120 N122 1.348 . S
C120 C123 1.485 1_565 S
N121 C120 1.317 1_545 S
N121 N125 1.370 . S
N122 C120 1.348 . S
N122 C124 1.346 . S
C123 C120 1.485 1_545 S
C123 H127 0.960 . S
C123 H128 0.961 1_545 S
C123 H129 0.960 . S
C124 N122 1.346 . S
C124 N125 1.307 1_565 S
C124 C126 1.486 . S
N125 N121 1.370 . S
N125 C124 1.307 1_545 S
C126 C124 1.486 . S
C126 H130 0.960 . S
C126 H131 0.960 . S
C126 H132 0.959 . S
H127 C123 0.960 . S
H128 C123 0.961 1_565 S
H129 C123 0.960 . S
H130 C126 0.960 . S
H131 C126 0.960 . S
H132 C126 0.959 . S
C133 N134 1.317 . S
C133 N135 1.348 . S
C133 C136 1.485 . S
N134 C133 1.317 . S
N134 N138 1.370 . S
N135 C133 1.348 . S
N135 C137 1.346 . S
C136 C133 1.485 . S
C136 H140 0.960 . S
C136 H141 0.961 . S
C136 H142 0.960 . S
C137 N135 1.346 . S
C137 N138 1.307 . S
C137 C139 1.486 . S
N138 N134 1.370 . S
N138 C137 1.307 . S
C139 C137 1.486 . S
C139 H143 0.960 . S
C139 H144 0.960 . S
C139 H145 0.959 . S
H140 C136 0.960 . S
H141 C136 0.961 . S
H142 C136 0.960 . S
H143 C139 0.960 . S
H144 C139 0.960 . S
H145 C139 0.959 . S
C146 N147 1.317 . S
C146 N148 1.348 . S
C146 C149 1.485 . S
N147 C146 1.317 . S
N147 N151 1.370 . S
N148 C146 1.348 . S
N148 C150 1.346 . S
C149 C146 1.485 . S
C149 H153 0.960 . S
C149 H154 0.961 . S
C149 H155 0.960 . S
C150 N148 1.346 . S
C150 N151 1.307 . S
C150 C152 1.486 1_456 S
N151 N147 1.370 . S
N151 C150 1.307 . S
C152 C150 1.486 1_654 S
C152 H156 0.960 . S
C152 H157 0.960 . S
C152 H158 0.959 . S
H153 C149 0.960 . S
H154 C149 0.961 . S
H155 C149 0.960 . S
H156 C152 0.960 . S
H157 C152 0.960 . S
H158 C152 0.959 . S
C159 N160 1.317 . S
C159 N161 1.348 . S
C159 C162 1.485 . S
N160 C159 1.317 . S
N160 N164 1.370 . S
N161 C159 1.348 . S
N161 C163 1.346 . S
C162 C159 1.485 . S
C162 H166 0.960 . S
C162 H167 0.961 . S
C162 H168 0.960 . S
C163 N161 1.346 . S
C163 N164 1.307 . S
C163 C165 1.486 . S
N164 N160 1.370 . S
N164 C163 1.307 . S
C165 C163 1.486 . S
C165 H169 0.960 . S
C165 H170 0.960 . S
C165 H171 0.959 . S
H166 C162 0.960 . S
H167 C162 0.961 . S
H168 C162 0.960 . S
H169 C165 0.960 . S
H170 C165 0.960 . S
H171 C165 0.959 . S
C172 N173 1.317 1_545 S
C172 N174 1.348 . S
C172 C175 1.485 . S
N173 C172 1.317 1_565 S
N173 N177 1.370 1_565 S
N174 C172 1.348 . S
N174 C176 1.346 . S
C175 C172 1.485 . S
C175 H179 0.960 1_545 S
C175 H180 0.961 . S
C175 H181 0.960 . S
C176 N174 1.346 . S
C176 N177 1.307 . S
C176 C178 1.486 . S
N177 N173 1.370 1_545 S
N177 C176 1.307 . S
C178 C176 1.486 . S
C178 H182 0.960 . S
C178 H183 0.960 . S
C178 H184 0.959 . S
H179 C175 0.960 1_565 S
H180 C175 0.961 . S
H181 C175 0.960 . S
H182 C178 0.960 . S
H183 C178 0.960 . S
H184 C178 0.959 . S
C185 N186 1.317 . S
C185 N187 1.348 . S
C185 C188 1.485 . S
N186 C185 1.317 . S
N186 N190 1.370 1_554 S
N187 C185 1.348 . S
N187 C189 1.346 1_554 S
C188 C185 1.485 . S
C188 H192 0.960 . S
C188 H193 0.961 . S
C188 H194 0.960 . S
C189 N187 1.346 1_556 S
C189 N190 1.307 . S
C189 C191 1.486 . S
N190 N186 1.370 1_556 S
N190 C189 1.307 . S
C191 C189 1.486 . S
C191 H195 0.960 . S
C191 H196 0.960 . S
C191 H197 0.959 . S
H192 C188 0.960 . S
H193 C188 0.961 . S
H194 C188 0.960 . S
H195 C191 0.960 . S
H196 C191 0.960 . S
H197 C191 0.959 . S
C6 N187 4.184 . S
C59 N160 2.381 1_655 S
C86 N173 3.322 1_545 S
C15 N186 4.034 . S
N161 C50 2.499 . S
N174 C95 2.483 . S
C46 N134 1.923 . S
C99 N148 4.579 1_655 S
C10 N122 2.738 . S
N135 C55 2.860 . S
N147 C90 5.097 . S
C19 N121 2.596 . S
N151 C18 2.061 1_556 S
C49 N125 1.271 . S
C98 N138 1.364 . S
N177 C58 1.192 . S
N190 C89 1.705 1_556 S
C9 N164 0.999 . S
