# Generated by pormake.
# Topology zzz, (3,6)-cn, num edge types: 1
# Building blocks:
#     Node 0, Type 0, BuildingBlock: QEWDON_clean_linker_0, # of connection points: 3
#     Node 1, Type 0, BuildingBlock: QEWDON_clean_linker_0, # of connection points: 3
#     Node 2, Type 0, BuildingBlock: QEWDON_clean_linker_0, # of connection points: 3
#     Node 3, Type 0, BuildingBlock: QEWDON_clean_linker_0, # of connection points: 3
#     Node 4, Type 0, BuildingBlock: QEWDON_clean_linker_0, # of connection points: 3
#     Node 5, Type 0, BuildingBlock: QEWDON_clean_linker_0, # of connection points: 3
#     Node 6, Type 0, BuildingBlock: QEWDON_clean_linker_0, # of connection points: 3
#     Node 7, Type 0, BuildingBlock: QEWDON_clean_linker_0, # of connection points: 3
#     Node 8, Type 1, BuildingBlock: BETDEL_clean_sbu_0, # of connection points: 6
#     Node 9, Type 1, BuildingBlock: BETDEL_clean_sbu_0, # of connection points: 6
#     Node 10, Type 1, BuildingBlock: BETDEL_clean_sbu_0, # of connection points: 6
#     Node 11, Type 1, BuildingBlock: BETDEL_clean_sbu_0, # of connection points: 6
#     Edge 12, Type (0, 1), None
#     Edge 13, Type (0, 1), None
#     Edge 14, Type (0, 1), None
#     Edge 15, Type (0, 1), None
#     Edge 16, Type (0, 1), None
#     Edge 17, Type (0, 1), None
#     Edge 18, Type (0, 1), None
#     Edge 19, Type (0, 1), None
#     Edge 20, Type (0, 1), None
#     Edge 21, Type (0, 1), None
#     Edge 22, Type (0, 1), None
#     Edge 23, Type (0, 1), None
#     Edge 24, Type (0, 1), None
#     Edge 25, Type (0, 1), None
#     Edge 26, Type (0, 1), None
#     Edge 27, Type (0, 1), None
#     Edge 28, Type (0, 1), None
#     Edge 29, Type (0, 1), None
#     Edge 30, Type (0, 1), None
#     Edge 31, Type (0, 1), None
#     Edge 32, Type (0, 1), None
#     Edge 33, Type (0, 1), None
#     Edge 34, Type (0, 1), None
#     Edge 35, Type (0, 1), None
# Relax obj value: 0.113
# Max RMSD: 0.208
# Mean RMSD: 0.090
data_MOF--net-zzz--node1-BETDEL_clean_sbu_0--node2-QEWDON_clean_linker_0--edge1-none
_symmetry_space_group_name_H-M    P1
_symmetry_Int_Tables_number       1
_symmetry_cell_setting            triclinic
loop_
_symmetry_equiv_pos_as_xyz
'x, y, z'
_cell_length_a     24.004402
_cell_length_b     24.70749
_cell_length_c     7.6737417
_cell_angle_alpha  90.381524
_cell_angle_beta   87.44297
_cell_angle_gamma 95.099568
loop_
_atom_site_label
_atom_site_type_symbol
_atom_site_fract_x
_atom_site_fract_y
_atom_site_fract_z
_atom_type_partial_charge
H0 H 0.79163 0.47525 0.81852 0.0
C1 C 0.80923 0.4833 -0.05569 0.0
C2 C 0.85703 0.45711 -0.01621 0.0
C3 C 0.78982 0.52496 0.05263 0.0
H4 H 0.9177 0.44658 0.17381 0.0
C5 C 0.88159 0.46762 0.14226 0.0
C6 C 0.8708 0.51399 0.23611 0.0
C7 C 0.82338 0.54143 0.19784 0.0
C8 C 0.7397 0.55468 -0.0001 0.0
H9 H 0.81463 0.5758 0.27871 0.0
C10 C 0.70068 0.53331 0.87428 0.0
C11 C 0.65575 0.56293 0.82354 0.0
C12 C 0.73112 0.60632 0.07103 0.0
H13 H 0.75915 0.62626 0.16211 0.0
C14 C 0.68674 0.63497 0.02211 0.0
H15 H 0.7042 0.4937 0.81641 0.0
C16 C 0.64967 0.61369 0.89942 0.0
H17 H 0.61702 0.63782 0.85933 0.0
H18 H 0.68166 0.67472 0.07773 0.0
H19 H 0.07959 0.80183 0.79938 0.0
C20 C 0.07027 0.82236 -0.07962 0.0
C21 C 0.09839 0.87426 -0.05156 0.0
C22 C 1.02789 0.79997 0.04102 0.0
H23 H 0.11304 0.93918 0.13081 0.0
C24 C 0.08926 0.90068 0.10546 0.0
C25 C 0.0408 0.88685 0.20572 0.0
C26 C 1.01071 0.83568 0.17852 0.0
C27 C 1.00062 0.74165 0.02034 0.0
H28 H 0.97364 0.82539 0.26066 0.0
C29 C 1.0084 0.70828 0.86798 0.0
C30 C 0.98484 0.65305 0.86086 0.0
C31 C 0.96784 0.71724 0.16094 0.0
H32 H 0.96151 0.73828 0.2829 0.0
C33 C 0.94304 0.66413 0.15063 0.0
H34 H 1.0332 0.72403 0.75577 0.0
C35 C 0.9517 0.63229 0.0031 0.0
H36 H 0.93213 0.59114 -0.00096 0.0
H37 H 0.91737 0.64727 0.26001 0.0
H38 H 0.78579 0.08619 0.82788 0.0
C39 C 0.75512 0.0706 -0.07366 0.0
C40 C 0.70238 0.09006 -0.07522 0.0
C41 C 0.7662 0.02897 0.04229 0.0
H42 H 0.61933 0.08331 0.03963 0.0
C43 C 0.66144 0.07191 0.05078 0.0
C44 C 0.6695 0.03214 0.17155 0.0
C45 C 0.72224 1.00995 0.16702 0.0
C46 C 0.82204 1.00414 0.0226 0.0
H47 H 0.72704 0.9758 0.25066 0.0
C48 C 0.85692 1.00945 0.86593 0.0
C49 C 0.91086 0.99015 0.85436 0.0
C50 C 0.84208 0.97582 0.16206 0.0
H51 H 0.81844 0.9709 0.285 0.0
C52 C 0.89384 0.9539 0.14685 0.0
H53 H 0.84324 0.02894 0.75191 0.0
C54 C 0.92823 0.9616 -0.00444 0.0
H55 H 0.96839 0.94481 -0.01261 0.0
H56 H 0.90771 0.93147 0.25497 0.0
H57 H 0.49889 0.75628 0.79844 0.0
C58 C 0.51012 0.73261 0.90742 0.0
C59 C 0.4908 0.67774 0.91242 0.0
C60 C 0.54784 0.75469 0.03007 0.0
H61 H 0.50028 0.6 0.02211 0.0
C62 C 0.51159 0.64338 0.03136 0.0
C63 C 0.54622 0.66249 0.16142 0.0
C64 C 0.56316 0.71914 0.16552 0.0
C65 C 0.57607 0.81161 -0.00063 0.0
H66 H 0.58933 0.73442 0.26915 0.0
C67 C 0.55408 0.85131 0.89 0.0
C68 C 0.58604 0.90103 0.84554 0.0
C69 C 0.62944 0.8245 0.06518 0.0
H70 H 0.6493 0.79608 0.14295 0.0
C71 C 0.66027 0.87331 0.02449 0.0
H72 H 0.51272 0.84417 0.83973 0.0
C73 C 0.63943 0.91051 -0.08471 0.0
H74 H 0.66628 0.94701 0.88415 0.0
H75 H 0.70158 0.88187 0.07474 0.0
H76 H 0.23283 0.59208 0.24766 0.0
C77 C 0.21253 0.5778 0.13008 0.0
C78 C 0.16028 0.59478 0.09675 0.0
C79 C 0.24065 0.54565 0.00991 0.0
H80 H 0.09378 0.59142 -0.07851 0.0
C81 C 0.13446 0.57794 -0.05444 0.0
C82 C 0.15456 0.53684 0.84247 0.0
C83 C 0.2106 0.52324 0.86465 0.0
C84 C 0.30301 0.55324 0.02211 0.0
H85 H 0.23014 0.49663 0.77248 0.0
C86 C 0.33331 0.52387 0.14212 0.0
C87 C 0.38281 0.54928 0.21623 0.0
C88 C 0.32471 0.60615 -0.02432 0.0
H89 H 0.30263 0.62998 0.88758 0.0
C90 C 0.36685 0.63311 0.06959 0.0
H91 H 0.31702 0.48359 0.18423 0.0
C92 C 0.39491 0.60523 0.18995 0.0
H93 H 0.42659 0.6278 0.26414 0.0
H94 H 0.37773 0.67612 0.0492 0.0
H95 H 0.98139 0.23966 0.24766 0.0
C96 C 0.99639 0.22138 0.12872 0.0
C97 C 0.97727 0.16692 0.09945 0.0
C98 C 0.03826 0.24879 0.01815 0.0
H99 H 0.97558 0.10045 -0.07877 0.0
C100 C 0.99333 0.14147 -0.0536 0.0
C101 C 0.0412 0.16141 0.85163 0.0
C102 C 0.06293 0.21623 0.88217 0.0
C103 C 0.05713 0.30908 0.05286 0.0
H104 H 0.09922 0.23179 0.80394 0.0
C105 C 0.03776 0.33954 0.20205 0.0
C106 C 0.0536 0.3963 0.22299 0.0
C107 C 0.09398 0.33805 -0.0686 0.0
H108 H 0.10991 0.31912 0.8147 0.0
C109 C 0.11105 0.39298 -0.04462 0.0
H110 H 1.00984 0.32061 0.30208 0.0
C111 C 0.09063 0.42195 0.09756 0.0
H112 H 0.10462 0.46457 0.11157 0.0
H113 H 0.14037 0.41334 0.86104 0.0
H114 H 0.31555 0.96893 0.18956 0.0
C115 C 0.34421 0.98583 0.08751 0.0
C116 C 0.39693 0.96598 0.07291 0.0
C117 C 0.33111 0.03002 -0.01352 0.0
H118 H 0.47532 0.96841 -0.0728 0.0
C119 C 0.43453 0.9839 -0.06383 0.0
C120 C 0.42645 0.02965 0.83784 0.0
C121 C 0.37407 0.05292 0.8631 0.0
C122 C 0.27396 0.05244 0.01886 0.0
H123 H 0.36835 0.08998 0.79447 0.0
C124 C 0.23971 0.04282 0.17703 0.0
C125 C 0.18422 0.05935 0.19564 0.0
C126 C 0.25136 0.08159 0.88621 0.0
H127 H 0.27425 0.08957 0.76315 0.0
C128 C 0.19801 0.09995 0.90738 0.0
H129 H 0.25516 1.02211 0.28599 0.0
C130 C 0.16462 0.08844 0.05888 0.0
H131 H 0.12335 0.10295 0.07063 0.0
H132 H 0.18211 0.12275 0.80348 0.0
H133 H 0.54715 0.30613 0.22701 0.0
C134 C 0.53125 0.33008 0.12509 0.0
C135 C 0.54627 0.3855 0.1221 0.0
C136 C 0.50467 0.30446 -0.01647 0.0
H137 H 0.53239 0.46189 0.01361 0.0
C138 C 0.52403 0.41818 0.00175 0.0
C139 C 0.49337 0.39661 0.86466 0.0
C140 C 0.48694 0.33843 0.84758 0.0
C141 C 0.52111 0.24768 -0.04313 0.0
H142 H 0.47083 0.32011 0.72938 0.0
C143 C 0.50694 0.20543 0.08511 0.0
C144 C 0.54885 0.17229 0.14111 0.0
C145 C 0.57368 0.24884 0.86936 0.0
H146 H 0.5856 0.27888 0.76889 0.0
C147 C 0.61627 0.22426 -0.05487 0.0
H148 H 0.46641 0.20284 0.15373 0.0
C149 C 0.6043 0.1882 0.08309 0.0
H150 H 0.63922 0.17158 0.14128 0.0
H151 H 0.65915 0.23328 0.89689 0.0
Dy152 Dy 0.08151 0.99712 0.61826 0.0
C153 C 0.96722 0.13047 0.24875 0.0
C154 C 0.11451 0.91113 0.80154 0.0
Dy155 Dy 1.012 0.05215 0.43534 0.0
O156 O 0.08372 0.90813 0.66783 0.0
O157 O 0.13072 0.96245 0.82656 0.0
O158 O 0.16331 0.03637 0.5063 0.0
O159 O 0.09486 1.02625 0.34364 0.0
C160 C 0.14554 0.04615 0.35354 0.0
C161 C 0.94991 1.00094 0.69836 0.0
O162 O 1.02185 0.97991 0.25968 0.0
O163 O 1.03359 0.92697 0.48914 0.0
O164 O 0.95732 0.07822 0.22771 0.0
O165 O 0.99924 0.13852 0.37875 0.0
O166 O 0.93211 1.00911 0.54502 0.0
O167 O 0.99945 1.02324 0.70854 0.0
O168 O 0.07005 0.07093 0.79239 0.0
O169 O 0.05633 0.12425 0.56506 0.0
C170 C 1.02315 0.93052 0.32451 0.0
C171 C 0.06551 0.12061 0.73086 0.0
Dy172 Dy 0.51076 0.99837 0.40262 0.0
C173 C 0.68186 0.11035 0.76191 0.0
C174 C 0.42188 0.949 0.23335 0.0
Dy175 Dy 0.58652 0.07045 0.60656 0.0
O176 O 0.47283 0.935 0.22256 0.0
O177 O 0.41894 0.98234 0.36422 0.0
O178 O 0.571 0.9996 0.17205 0.0
O179 O 0.60244 1.00616 0.42007 0.0
C180 C 0.61635 1.00693 0.25859 0.0
C181 C 0.47942 0.05804 0.75354 0.0
O182 O 0.57928 0.13106 0.39886 0.0
O183 O 0.50791 0.08166 0.26024 0.0
O184 O 0.63387 0.13104 0.77057 0.0
O185 O 0.67928 0.07532 0.63585 0.0
O186 O 0.5251 0.06558 0.8389 0.0
O187 O 0.49369 0.06118 0.59213 0.0
O188 O 0.52688 0.93748 0.61737 0.0
O189 O 0.59739 0.99261 0.73922 0.0
C190 C 0.54163 0.12763 0.27843 0.0
C191 C 0.5677 0.94517 0.72999 0.0
Dy192 Dy 0.49002 0.55945 0.59207 0.0
C193 C 0.57493 0.41253 0.26419 0.0
C194 C 0.46423 0.65103 0.76483 0.0
Dy195 Dy 0.54738 0.50209 0.44055 0.0
O196 O 0.43893 0.60258 0.78766 0.0
O197 O 0.49679 0.6492 0.62799 0.0
O198 O 0.40557 0.5278 0.50553 0.0
O199 O 0.47261 0.53346 0.3213 0.0
C200 C 0.41937 0.52394 0.34138 0.0
C201 C 0.61643 0.54408 0.68483 0.0
O202 O 0.55827 0.56933 0.24142 0.0
O203 O 0.5427 0.62773 0.45487 0.0
O204 O 0.59848 0.46148 0.23757 0.0
O205 O 0.54468 0.41279 0.40641 0.0
O206 O 0.63225 0.53388 0.52578 0.0
O207 O 0.56434 0.53105 0.71164 0.0
O208 O 0.47936 0.48976 0.78451 0.0
O209 O 0.4963 0.43187 0.57055 0.0
C210 C 0.5578 0.62048 0.29207 0.0
C211 C 0.48127 0.4386 0.73332 0.0
Dy212 Dy 0.98359 0.48539 0.63505 0.0
C213 C 0.12435 0.61109 0.24162 0.0
C214 C 0.89518 0.4409 0.8411 0.0
Dy215 Dy 0.04175 0.55982 0.44775 0.0
O216 O 0.94806 0.43747 0.86772 0.0
O217 O 0.89223 0.46283 0.6902 0.0
O218 O 1.02126 0.4109 0.53002 0.0
O219 O 1.01457 0.4762 0.35905 0.0
C220 C 1.03344 0.42988 0.37464 0.0
C221 C 0.99426 0.61572 0.70882 0.0
O222 O 0.96745 0.54405 0.27998 0.0
O223 O 0.91198 0.52199 0.51534 0.0
O224 O 0.07101 0.61185 0.2203 0.0
O225 O 0.13073 0.58879 0.38993 0.0
O226 O 1.00329 0.63334 0.5511 0.0
O227 O 1.01231 0.56895 0.72384 0.0
O228 O 0.06064 0.49888 0.79465 0.0
O229 O 0.1155 0.52502 0.56041 0.0
C230 C 0.91632 0.535 0.35059 0.0
C231 C 0.11179 0.51104 0.72451 0.0
loop_
_geom_bond_atom_site_label_1
_geom_bond_atom_site_label_2
_geom_bond_distance
_geom_bond_site_symmetry_2
_ccdc_geom_bond_type
H0 C1 0.949 1_556 S
C1 H0 0.949 1_554 S
C1 C2 1.395 . S
C1 C3 1.391 . S
C2 C1 1.395 . S
C2 C5 1.390 . S
C3 C1 1.391 . S
C3 C7 1.387 . S
C3 C8 1.491 . S
H4 C5 0.950 . S
C5 C2 1.390 . S
C5 H4 0.950 . S
C5 C6 1.378 . S
C6 C5 1.378 . S
C6 C7 1.409 . S
C7 C3 1.387 . S
C7 C6 1.409 . S
C7 H9 0.951 . S
C8 C3 1.491 . S
C8 C10 1.382 . S
C8 C12 1.404 . S
H9 C7 0.951 . S
C10 C8 1.382 . S
C10 C11 1.390 . S
C10 H15 0.949 1_554 S
C11 C10 1.390 . S
C11 C16 1.399 . S
C12 C8 1.404 . S
C12 H13 0.950 . S
C12 C14 1.375 . S
H13 C12 0.950 . S
C14 C12 1.375 . S
C14 C16 1.382 . S
C14 H18 0.950 . S
H15 C10 0.949 1_556 S
C16 C11 1.399 . S
C16 C14 1.382 . S
C16 H17 0.952 . S
H17 C16 0.952 . S
H18 C14 0.950 . S
H19 C20 0.949 1_556 S
C20 H19 0.949 1_554 S
C20 C21 1.395 . S
C20 C22 1.391 . S
C21 C20 1.395 . S
C21 C24 1.390 1_655 S
C22 C20 1.391 . S
C22 C26 1.387 . S
C22 C27 1.491 . S
H23 C24 0.950 . S
C24 C21 1.390 1_455 S
C24 H23 0.950 . S
C24 C25 1.378 1_455 S
C25 C24 1.378 1_655 S
C25 C26 1.411 . S
C26 C22 1.387 . S
C26 C25 1.411 . S
C26 H28 0.951 . S
C27 C22 1.491 . S
C27 C29 1.382 . S
C27 C31 1.404 . S
H28 C26 0.951 . S
C29 C27 1.382 . S
C29 C30 1.390 . S
C29 H34 0.949 1_654 S
C30 C29 1.390 . S
C30 C35 1.399 . S
C31 C27 1.404 . S
C31 H32 0.950 . S
C31 C33 1.375 . S
H32 C31 0.950 . S
C33 C31 1.375 . S
C33 C35 1.382 . S
C33 H37 0.950 . S
H34 C29 0.949 1_456 S
C35 C30 1.399 . S
C35 C33 1.382 . S
C35 H36 0.952 . S
H36 C35 0.952 . S
H37 C33 0.950 . S
H38 C39 0.949 1_556 S
C39 H38 0.949 1_554 S
C39 C40 1.395 . S
C39 C41 1.391 . S
C40 C39 1.395 . S
C40 C43 1.390 . S
C41 C39 1.391 . S
C41 C45 1.387 . S
C41 C46 1.491 . S
H42 C43 0.950 . S
C43 C40 1.390 . S
C43 H42 0.950 . S
C43 C44 1.378 . S
C44 C43 1.378 . S
C44 C45 1.409 . S
C45 C41 1.387 . S
C45 C44 1.409 . S
C45 H47 0.951 . S
C46 C41 1.491 . S
C46 C48 1.382 . S
C46 C50 1.404 . S
H47 C45 0.951 . S
C48 C46 1.382 . S
C48 C49 1.390 . S
C48 H53 0.949 1_554 S
C49 C48 1.390 . S
C49 C54 1.399 . S
C50 C46 1.404 . S
C50 H51 0.950 . S
C50 C52 1.375 . S
H51 C50 0.950 . S
C52 C50 1.375 . S
C52 C54 1.382 . S
C52 H56 0.950 . S
H53 C48 0.949 1_556 S
C54 C49 1.399 . S
C54 C52 1.382 . S
C54 H55 0.952 . S
H55 C54 0.952 . S
H56 C52 0.950 . S
H57 C58 0.949 1_556 S
C58 H57 0.949 1_554 S
C58 C59 1.395 . S
C58 C60 1.391 . S
C59 C58 1.395 . S
C59 C62 1.390 . S
C60 C58 1.391 . S
C60 C64 1.387 . S
C60 C65 1.491 . S
H61 C62 0.950 . S
C62 C59 1.390 . S
C62 H61 0.950 . S
C62 C63 1.378 . S
C63 C62 1.378 . S
C63 C64 1.409 . S
C64 C60 1.387 . S
C64 C63 1.409 . S
C64 H66 0.951 . S
C65 C60 1.491 . S
C65 C67 1.382 . S
C65 C69 1.404 . S
H66 C64 0.951 . S
C67 C65 1.382 . S
C67 C68 1.390 . S
C67 H72 0.949 . S
C68 C67 1.390 . S
C68 C73 1.399 . S
C69 C65 1.404 . S
C69 H70 0.950 . S
C69 C71 1.375 . S
H70 C69 0.950 . S
C71 C69 1.375 . S
C71 C73 1.382 . S
C71 H75 0.950 . S
H72 C67 0.949 . S
C73 C68 1.399 . S
C73 C71 1.382 . S
C73 H74 0.952 . S
H74 C73 0.952 . S
H75 C71 0.950 . S
H76 C77 0.949 . S
C77 H76 0.949 . S
C77 C78 1.395 . S
C77 C79 1.391 1_554 S
C78 C77 1.395 . S
C78 C81 1.390 1_554 S
C79 C77 1.391 1_556 S
C79 C83 1.387 . S
C79 C84 1.491 . S
H80 C81 0.950 . S
C81 C78 1.390 1_556 S
C81 H80 0.950 . S
C81 C82 1.378 . S
C82 C81 1.378 . S
C82 C83 1.409 . S
C83 C79 1.387 . S
C83 C82 1.409 . S
C83 H85 0.951 . S
C84 C79 1.491 . S
C84 C86 1.382 1_556 S
C84 C88 1.404 . S
H85 C83 0.951 . S
C86 C84 1.382 1_554 S
C86 C87 1.390 . S
C86 H91 0.949 . S
C87 C86 1.390 . S
C87 C92 1.399 . S
C88 C84 1.404 . S
C88 H89 0.950 . S
C88 C90 1.375 . S
H89 C88 0.950 . S
C90 C88 1.375 . S
C90 C92 1.382 1_556 S
C90 H94 0.950 . S
H91 C86 0.949 . S
C92 C87 1.399 . S
C92 C90 1.382 1_554 S
C92 H93 0.952 . S
H93 C92 0.952 . S
H94 C90 0.950 . S
H95 C96 0.949 . S
C96 H95 0.949 . S
C96 C97 1.395 . S
C96 C98 1.394 . S
C97 C96 1.395 . S
C97 C100 1.390 1_654 S
C98 C96 1.394 . S
C98 C102 1.384 1_554 S
C98 C103 1.491 . S
H99 C100 0.950 . S
C100 C97 1.390 1_456 S
C100 H99 0.950 . S
C100 C101 1.376 1_455 S
C101 C100 1.376 1_655 S
C101 C102 1.413 . S
C102 C98 1.384 1_556 S
C102 C101 1.413 . S
C102 H104 0.951 . S
C103 C98 1.491 . S
C103 C105 1.382 . S
C103 C107 1.404 1_554 S
H104 C102 0.951 . S
C105 C103 1.382 . S
C105 C106 1.390 . S
C105 H110 0.949 1_655 S
C106 C105 1.390 . S
C106 C111 1.399 . S
C107 C103 1.404 1_556 S
C107 H108 0.950 . S
C107 C109 1.375 . S
H108 C107 0.950 . S
C109 C107 1.375 . S
C109 C111 1.382 1_556 S
C109 H113 0.950 . S
H110 C105 0.949 1_455 S
C111 C106 1.399 . S
C111 C109 1.382 1_554 S
C111 H112 0.952 . S
H112 C111 0.952 . S
H113 C109 0.950 . S
H114 C115 0.949 . S
C115 H114 0.949 . S
C115 C116 1.395 . S
C115 C117 1.391 . S
C116 C115 1.395 . S
C116 C119 1.390 1_554 S
C117 C115 1.391 . S
C117 C121 1.387 1_554 S
C117 C122 1.491 . S
H118 C119 0.950 . S
C119 C116 1.390 1_556 S
C119 H118 0.950 . S
C119 C120 1.378 . S
C120 C119 1.378 . S
C120 C121 1.409 . S
C121 C117 1.387 1_556 S
C121 C120 1.409 . S
C121 H123 0.951 . S
C122 C117 1.491 . S
C122 C124 1.382 . S
C122 C126 1.404 1_544 S
H123 C121 0.951 . S
C124 C122 1.382 . S
C124 C125 1.390 . S
C124 H129 0.949 . S
C125 C124 1.390 . S
C125 C130 1.399 1_545 S
C126 C122 1.404 1_566 S
C126 H127 0.950 . S
C126 C128 1.375 . S
H127 C126 0.950 . S
C128 C126 1.375 . S
C128 C130 1.382 1_556 S
C128 H132 0.950 . S
H129 C124 0.949 . S
C130 C125 1.399 1_565 S
C130 C128 1.382 1_554 S
C130 H131 0.952 . S
H131 C130 0.952 . S
H132 C128 0.950 . S
H133 C134 0.949 . S
C134 H133 0.949 . S
C134 C135 1.395 . S
C134 C136 1.391 1_554 S
C135 C134 1.395 . S
C135 C138 1.390 1_554 S
C136 C134 1.391 1_556 S
C136 C140 1.387 . S
C136 C141 1.491 . S
H137 C138 0.950 . S
C138 C135 1.390 1_556 S
C138 H137 0.950 . S
C138 C139 1.378 . S
C139 C138 1.378 . S
C139 C140 1.409 . S
C140 C136 1.387 . S
C140 C139 1.409 . S
C140 H142 0.951 . S
C141 C136 1.491 . S
C141 C143 1.382 1_556 S
C141 C145 1.404 . S
H142 C140 0.951 . S
C143 C141 1.382 1_554 S
C143 C144 1.390 . S
C143 H148 0.949 . S
C144 C143 1.390 . S
C144 C149 1.399 1_554 S
C145 C141 1.404 . S
C145 H146 0.950 . S
C145 C147 1.375 . S
H146 C145 0.950 . S
C147 C145 1.375 . S
C147 C149 1.382 . S
C147 H151 0.950 . S
H148 C143 0.949 . S
C149 C144 1.399 1_556 S
C149 C147 1.382 . S
C149 H150 0.952 . S
H150 C149 0.952 . S
H151 C147 0.950 . S
Dy152 O156 2.398 . S
Dy152 O157 2.491 1_455 S
Dy152 O158 2.403 . S
Dy152 O159 2.664 1_565 S
Dy152 O163 2.326 . S
Dy152 O167 2.310 1_455 S
Dy152 O168 2.351 1_565 S
C153 O164 1.185 . S
C153 O165 1.355 1_655 S
C154 O156 1.185 . S
C154 O157 1.355 1_455 S
Dy155 O159 2.310 1_655 S
Dy155 O162 2.351 1_545 S
Dy155 O164 2.398 . S
Dy155 O165 2.491 1_655 S
Dy155 O166 2.403 . S
Dy155 O167 2.664 1_545 S
Dy155 O169 2.326 . S
O156 Dy152 2.398 . S
O156 C154 1.185 . S
O157 Dy152 2.491 1_655 S
O157 C154 1.355 1_655 S
O158 Dy152 2.403 . S
O158 C160 1.254 1_565 S
O159 Dy152 2.664 1_545 S
O159 Dy155 2.310 1_455 S
O159 C160 1.268 . S
C160 O158 1.254 1_545 S
C160 O159 1.268 . S
C161 O166 1.254 1_565 S
C161 O167 1.268 . S
O162 Dy155 2.351 1_565 S
O162 C170 1.249 . S
O163 Dy152 2.326 . S
O163 C170 1.267 1_455 S
O164 C153 1.185 . S
O164 Dy155 2.398 . S
O165 C153 1.355 1_455 S
O165 Dy155 2.491 1_455 S
O166 Dy155 2.403 . S
O166 C161 1.254 1_545 S
O167 Dy152 2.310 1_655 S
O167 Dy155 2.664 1_565 S
O167 C161 1.268 . S
O168 Dy152 2.351 1_545 S
O168 C171 1.249 . S
O169 Dy155 2.326 . S
O169 C171 1.267 1_655 S
C170 O162 1.249 . S
C170 O163 1.267 1_655 S
C171 O168 1.249 . S
C171 O169 1.267 1_455 S
Dy172 O176 2.398 . S
Dy172 O177 2.491 1_565 S
Dy172 O178 2.403 . S
Dy172 O179 2.664 . S
Dy172 O183 2.326 1_565 S
Dy172 O187 2.310 1_565 S
Dy172 O188 2.351 . S
C173 O184 1.185 . S
C173 O185 1.355 1_544 S
C174 O176 1.185 1_545 S
C174 O177 1.355 . S
Dy175 O179 2.310 1_545 S
Dy175 O182 2.351 . S
Dy175 O184 2.398 1_556 S
Dy175 O185 2.491 1_545 S
Dy175 O186 2.403 1_556 S
Dy175 O187 2.664 . S
Dy175 O189 2.326 1_545 S
O176 Dy172 2.398 . S
O176 C174 1.185 1_565 S
O177 Dy172 2.491 1_545 S
O177 C174 1.355 . S
O178 Dy172 2.403 . S
O178 C180 1.254 . S
O179 Dy172 2.664 . S
O179 Dy175 2.310 1_565 S
O179 C180 1.268 . S
C180 O178 1.254 . S
C180 O179 1.268 . S
C181 O186 1.254 1_556 S
C181 O187 1.268 . S
O182 Dy175 2.351 . S
O182 C190 1.249 . S
O183 Dy172 2.326 1_545 S
O183 C190 1.267 . S
O184 C173 1.185 . S
O184 Dy175 2.398 1_554 S
O185 C173 1.355 1_566 S
O185 Dy175 2.491 1_565 S
O186 Dy175 2.403 1_554 S
O186 C181 1.254 1_554 S
O187 Dy172 2.310 1_545 S
O187 Dy175 2.664 . S
O187 C181 1.268 . S
O188 Dy172 2.351 . S
O188 C191 1.249 . S
O189 Dy175 2.326 1_565 S
O189 C191 1.267 . S
C190 O182 1.249 . S
C190 O183 1.267 . S
C191 O188 1.249 . S
C191 O189 1.267 . S
Dy192 O196 2.398 . S
Dy192 O197 2.491 . S
Dy192 O198 2.403 . S
Dy192 O199 2.664 . S
Dy192 O203 2.326 . S
Dy192 O207 2.310 . S
Dy192 O208 2.351 . S
C193 O204 1.185 . S
C193 O205 1.355 . S
C194 O196 1.185 1_554 S
C194 O197 1.355 1_554 S
Dy195 O199 2.310 . S
Dy195 O202 2.351 . S
Dy195 O204 2.398 . S
Dy195 O205 2.491 . S
Dy195 O206 2.403 . S
Dy195 O207 2.664 . S
Dy195 O209 2.326 . S
O196 Dy192 2.398 . S
O196 C194 1.185 1_556 S
O197 Dy192 2.491 . S
O197 C194 1.355 1_556 S
O198 Dy192 2.403 . S
O198 C200 1.254 . S
O199 Dy192 2.664 . S
O199 Dy195 2.310 . S
O199 C200 1.268 . S
C200 O198 1.254 . S
C200 O199 1.268 . S
C201 O206 1.254 . S
C201 O207 1.268 . S
O202 Dy195 2.351 . S
O202 C210 1.249 . S
O203 Dy192 2.326 . S
O203 C210 1.267 . S
O204 C193 1.185 . S
O204 Dy195 2.398 . S
O205 C193 1.355 . S
O205 Dy195 2.491 . S
O206 Dy195 2.403 . S
O206 C201 1.254 . S
O207 Dy192 2.310 . S
O207 Dy195 2.664 . S
O207 C201 1.268 . S
O208 Dy192 2.351 . S
O208 C211 1.249 . S
O209 Dy195 2.326 . S
O209 C211 1.267 . S
C210 O202 1.249 . S
C210 O203 1.267 . S
C211 O208 1.249 . S
C211 O209 1.267 . S
Dy212 O216 2.398 . S
Dy212 O217 2.491 . S
Dy212 O218 2.403 . S
Dy212 O219 2.664 1_655 S
Dy212 O223 2.326 . S
Dy212 O227 2.310 . S
Dy212 O228 2.351 1_655 S
C213 O224 1.185 . S
C213 O225 1.355 . S
C214 O216 1.185 1_554 S
C214 O217 1.355 1_554 S
Dy215 O219 2.310 . S
Dy215 O222 2.351 1_455 S
Dy215 O224 2.398 . S
Dy215 O225 2.491 . S
Dy215 O226 2.403 . S
Dy215 O227 2.664 1_455 S
Dy215 O229 2.326 . S
O216 Dy212 2.398 . S
O216 C214 1.185 1_556 S
O217 Dy212 2.491 . S
O217 C214 1.355 1_556 S
O218 Dy212 2.403 . S
O218 C220 1.254 . S
O219 Dy212 2.664 1_455 S
O219 Dy215 2.310 . S
O219 C220 1.268 1_455 S
C220 O218 1.254 . S
C220 O219 1.268 1_655 S
C221 O226 1.254 . S
C221 O227 1.268 1_455 S
O222 Dy215 2.351 1_655 S
O222 C230 1.249 . S
O223 Dy212 2.326 . S
O223 C230 1.267 . S
O224 C213 1.185 . S
O224 Dy215 2.398 . S
O225 C213 1.355 . S
O225 Dy215 2.491 . S
O226 Dy215 2.403 . S
O226 C221 1.254 . S
O227 Dy212 2.310 . S
O227 Dy215 2.664 1_655 S
O227 C221 1.268 1_655 S
O228 Dy212 2.351 1_455 S
O228 C231 1.249 . S
O229 Dy215 2.326 . S
O229 C231 1.267 . S
C230 O222 1.249 . S
C230 O223 1.267 . S
C231 O228 1.249 . S
C231 O229 1.267 . S
C125 C160 2.306 . S
C190 C144 2.328 . S
C200 C87 2.518 . S
C220 C106 2.235 . S
C161 C49 2.507 1_556 S
C68 C191 2.499 1_554 S
C11 C201 2.546 1_554 S
C30 C221 2.287 1_654 S
C153 C97 1.023 . S
C174 C116 1.268 . S
C193 C135 1.420 . S
C78 C213 0.957 . S
C21 C154 1.030 1_654 S
C173 C40 1.276 1_545 S
C194 C59 1.429 . S
C2 C214 0.968 . S
C101 C171 1.873 1_655 S
C120 C181 2.180 . S
C211 C139 2.175 . S
C231 C82 2.100 . S
C25 C170 1.874 . S
C180 C44 2.184 . S
C210 C63 2.177 . S
C6 C230 2.101 . S
