# Generated by pormake.
# Topology tsx, (6,3)-cn, num edge types: 1
# Building blocks:
#     Node 0, Type 0, BuildingBlock: CIFDUS_clean_sbu_1, # of connection points: 6
#     Node 1, Type 0, BuildingBlock: CIFDUS_clean_sbu_1, # of connection points: 6
#     Node 2, Type 1, BuildingBlock: MIDCAF_clean_linker_0, # of connection points: 3
#     Node 3, Type 1, BuildingBlock: MIDCAF_clean_linker_0, # of connection points: 3
#     Node 4, Type 1, BuildingBlock: MIDCAF_clean_linker_0, # of connection points: 3
#     Node 5, Type 1, BuildingBlock: MIDCAF_clean_linker_0, # of connection points: 3
#     Edge 6, Type (0, 1), None
#     Edge 7, Type (0, 1), None
#     Edge 8, Type (0, 1), None
#     Edge 9, Type (0, 1), None
#     Edge 10, Type (0, 1), None
#     Edge 11, Type (0, 1), None
#     Edge 12, Type (0, 1), None
#     Edge 13, Type (0, 1), None
#     Edge 14, Type (0, 1), None
#     Edge 15, Type (0, 1), None
#     Edge 16, Type (0, 1), None
#     Edge 17, Type (0, 1), None
# Relax obj value: 0.130
# Max RMSD: 0.156
# Mean RMSD: 0.119
data_MOF--net-tsx--node1-CIFDUS_clean_sbu_1--node2-MIDCAF_clean_linker_0--edge1-none
_symmetry_space_group_name_H-M    P1
_symmetry_Int_Tables_number       1
_symmetry_cell_setting            triclinic
loop_
_symmetry_equiv_pos_as_xyz
'x, y, z'
_cell_length_a     10.886052
_cell_length_b     14.795414
_cell_length_c     26.114798
_cell_angle_alpha  94.265077
_cell_angle_beta   94.91931
_cell_angle_gamma 92.356363
loop_
_atom_site_label
_atom_site_type_symbol
_atom_site_fract_x
_atom_site_fract_y
_atom_site_fract_z
_atom_type_partial_charge
O0 O 1.02272 0.15247 -0.01606 0.0
Mn1 Mn 0.09638 0.02288 -0.02471 0.0
O2 O 0.81676 0.13394 -0.02537 0.0
Mn3 Mn 0.81977 0.01911 0.94207 0.0
O4 O 0.17292 0.89415 0.96089 0.0
O5 O 0.26304 0.08744 -0.02387 0.0
Mn6 Mn 0.37862 0.0251 0.00664 0.0
O7 O 0.12543 0.0167 0.05422 0.0
O8 O 0.37947 0.91906 0.96584 0.0
O9 O 0.0697 0.03055 0.89615 0.0
O10 O 0.86463 0.01652 0.87532 0.0
O11 O 0.45472 0.13226 -0.00897 0.0
O12 O 0.33143 0.01433 0.07313 0.0
C13 C 0.83391 0.90308 -0.01578 0.0
C14 C 0.91448 0.18463 -0.01682 0.0
C15 C 0.28271 0.86857 0.9536 0.0
C16 C 0.34405 0.15375 -0.02389 0.0
C17 C 0.22092 0.01307 0.08638 0.0
C18 C 0.97504 0.02616 0.86308 0.0
O19 O 0.92816 0.9568 -0.02267 0.0
O20 O 0.72848 0.92491 0.963 0.0
O21 O 0.52272 0.65247 0.48394 0.0
Mn22 Mn 0.59639 0.52288 0.47529 0.0
O23 O 0.31677 0.63394 0.47462 0.0
Mn24 Mn 0.31978 0.51911 0.44207 0.0
O25 O 0.67293 0.39415 0.46089 0.0
O26 O 0.76304 0.58744 0.47613 0.0
Mn27 Mn 0.87863 0.5251 0.50664 0.0
O28 O 0.62544 0.51671 0.55422 0.0
O29 O 0.87948 0.41906 0.46584 0.0
O30 O 0.56971 0.53055 0.39615 0.0
O31 O 0.36464 0.51652 0.37532 0.0
O32 O 0.95473 0.63226 0.49103 0.0
O33 O 0.83144 0.51433 0.57313 0.0
C34 C 0.33392 0.40308 0.48422 0.0
C35 C 0.41449 0.68463 0.48318 0.0
C36 C 0.78272 0.36857 0.4536 0.0
C37 C 0.84406 0.65375 0.47611 0.0
C38 C 0.72092 0.51308 0.58638 0.0
C39 C 0.47504 0.52616 0.36308 0.0
O40 O 0.42817 0.45679 0.47734 0.0
O41 O 0.22849 0.42491 0.463 0.0
C42 C 0.81803 0.26561 0.37787 0.0
C43 C 0.80477 0.27736 0.43088 0.0
C44 C 0.85601 0.21458 0.46323 0.0
C45 C 0.92695 0.14561 0.44348 0.0
H46 H 0.17832 0.93429 0.48679 0.0
H47 H 0.26337 0.80526 0.52795 0.0
H48 H 0.52096 0.77695 0.412 0.0
H49 H 0.42761 0.89988 0.36802 0.0
H50 H 0.35816 0.97166 0.25607 0.0
H51 H 0.38672 0.9687 0.16434 0.0
H52 H 1.01303 0.05172 0.13346 0.0
H53 H 0.98508 0.05551 0.22486 0.0
H54 H 0.90358 0.19307 0.31763 0.0
H55 H 0.78267 0.31482 0.35232 0.0
H56 H 0.85027 0.22354 0.50451 0.0
H57 H 0.96959 0.10138 0.46939 0.0
N58 N 0.11945 0.03058 0.40547 0.0
N59 N 0.22779 0.97608 0.33654 0.0
N60 N 0.06283 0.07039 0.32175 0.0
C61 C 0.21189 0.98031 0.38771 0.0
C62 C 0.15329 0.02033 0.30341 0.0
C63 C 1.04496 0.07661 0.37257 0.0
C64 C 0.2892 0.92384 0.42201 0.0
C65 C 0.2525 0.90098 0.46994 0.0
C66 C 0.30403 0.82848 0.49453 0.0
C67 C 0.39878 0.78079 0.47321 0.0
C68 C 0.44872 0.81284 0.42973 0.0
C69 C 0.39347 0.88264 0.40399 0.0
C70 C 0.16976 0.0145 0.24775 0.0
C71 C 0.28204 0.98882 0.22962 0.0
C72 C 0.29849 0.98743 0.17709 0.0
C73 C 0.20235 0.01043 0.14164 0.0
C74 C 0.08902 0.03366 0.15971 0.0
C75 C 0.07321 0.03628 0.2122 0.0
C76 C 0.95026 0.1383 0.39146 0.0
C77 C 0.88948 0.19653 0.35826 0.0
C78 C 0.77057 0.78171 0.52765 0.0
C79 C 0.8173 0.75028 0.48159 0.0
C80 C 0.88691 0.8113 0.45564 0.0
C81 C 0.92508 0.89714 0.47932 0.0
H82 H 0.23703 0.10135 0.48654 0.0
H83 H 0.32878 0.22822 0.4458 0.0
H84 H 0.32576 0.39699 0.5873 0.0
H85 H 0.22993 0.27116 0.62739 0.0
H86 H 0.20493 0.10808 0.73018 0.0
H87 H 0.18082 0.09192 0.82153 0.0
H88 H 0.8075 0.98248 0.78123 0.0
H89 H 0.83122 -0.0012 0.69124 0.0
H90 H 0.7852 0.88347 0.59035 0.0
H91 H 0.71741 0.73601 0.54879 0.0
H92 H 0.92378 0.78892 0.41983 0.0
H93 H 0.98319 0.94049 0.45953 0.0
N94 N 0.0646 0.04716 0.54615 0.0
N95 N 0.12109 0.11152 0.63043 0.0
N96 N 0.96304 -0.00194 0.61492 0.0
C97 C 0.13606 0.10828 0.57915 0.0
C98 C 1.03513 0.05587 0.64837 0.0
C99 C 0.97571 -0.00725 0.56384 0.0
C100 C 0.22096 0.1767 0.55925 0.0
C101 C 0.25778 0.16479 0.5091 0.0
C102 C 0.31382 0.23682 0.48634 0.0
C103 C 0.33676 0.32202 0.51373 0.0
C104 C 0.3125 0.33133 0.56573 0.0
C105 C 0.2556 0.25931 0.58838 0.0
C106 C 1.02009 0.05463 0.70372 0.0
C107 C 0.11764 0.08146 0.74117 0.0
C108 C 0.10428 0.07122 0.79325 0.0
C109 C 0.99269 0.03509 0.80841 0.0
C110 C 0.89482 0.01021 0.77085 0.0
C111 C 0.90846 0.01965 0.71917 0.0
C112 C 0.89992 0.92108 0.53025 0.0
C113 C 0.81241 0.86602 0.55206 0.0
C114 C 0.31803 0.76561 0.87786 0.0
C115 C 0.30476 0.77736 0.93088 0.0
C116 C 0.35599 0.71457 0.96323 0.0
C117 C 0.42693 0.64561 0.94348 0.0
H118 H 0.67831 0.43429 -0.01321 0.0
H119 H 0.76337 0.30527 0.02795 0.0
H120 H 1.02096 0.27695 0.912 0.0
H121 H 0.92761 0.39988 0.86802 0.0
H122 H 0.85816 0.47166 0.75607 0.0
H123 H 0.88673 0.4687 0.66434 0.0
H124 H 0.51303 0.55172 0.63346 0.0
H125 H 0.48508 0.55551 0.72486 0.0
H126 H 0.40359 0.69308 0.81763 0.0
H127 H 0.28268 0.81483 0.85232 0.0
H128 H 0.35025 0.72353 0.00451 0.0
H129 H 0.46957 0.60137 -0.03061 0.0
N130 N 0.61944 0.53058 0.90547 0.0
N131 N 0.72779 0.47608 0.83654 0.0
N132 N 0.56283 0.57039 0.82175 0.0
C133 C 0.71188 0.48031 0.88771 0.0
C134 C 0.65329 0.52033 0.80341 0.0
C135 C 0.54495 0.57661 0.87257 0.0
C136 C 0.78919 0.42385 0.92201 0.0
C137 C 0.75249 0.40098 -0.03005 0.0
C138 C 0.80402 0.32848 -0.00547 0.0
C139 C 0.89877 0.28079 -0.02679 0.0
C140 C 0.94871 0.31284 0.92973 0.0
C141 C 0.89347 0.38264 0.90399 0.0
C142 C 0.66976 0.51451 0.74775 0.0
C143 C 0.78204 0.48883 0.72962 0.0
C144 C 0.79849 0.48743 0.6771 0.0
C145 C 0.70235 0.51043 0.64164 0.0
C146 C 0.58902 0.53366 0.65971 0.0
C147 C 0.57321 0.53628 0.7122 0.0
C148 C 0.45026 0.6383 0.89146 0.0
C149 C 0.38949 0.69654 0.85825 0.0
C150 C 0.27056 0.28171 0.02765 0.0
C151 C 0.31729 0.25028 -0.01841 0.0
C152 C 0.3869 0.3113 0.95563 0.0
C153 C 0.42507 0.39714 -0.02068 0.0
H154 H 0.73703 0.60135 -0.01346 0.0
H155 H 0.82878 0.72822 0.9458 0.0
H156 H 0.82575 0.89699 0.08729 0.0
H157 H 0.72992 0.77117 0.12739 0.0
H158 H 0.70493 0.60809 0.23017 0.0
H159 H 0.68083 0.59193 0.32153 0.0
H160 H 0.30751 0.48246 0.28123 0.0
H161 H 0.33123 0.49878 0.19124 0.0
H162 H 0.28519 0.38348 0.09035 0.0
H163 H 0.2174 0.23601 0.04879 0.0
H164 H 0.42378 0.28892 0.91983 0.0
H165 H 0.48318 0.44049 0.95952 0.0
N166 N 0.56459 0.54716 0.04615 0.0
N167 N 0.62109 0.61152 0.13043 0.0
N168 N 0.46303 0.49805 0.11492 0.0
C169 C 0.63605 0.60828 0.07915 0.0
C170 C 0.53513 0.55587 0.14837 0.0
C171 C 0.4757 0.49275 0.06384 0.0
C172 C 0.72095 0.6767 0.05925 0.0
C173 C 0.75778 0.66479 0.0091 0.0
C174 C 0.81381 0.73682 -0.01366 0.0
C175 C 0.83675 0.82203 0.01373 0.0
C176 C 0.81249 0.83133 0.06573 0.0
C177 C 0.75558 0.75931 0.08838 0.0
C178 C 0.52009 0.55462 0.20371 0.0
C179 C 0.61764 0.58146 0.24117 0.0
C180 C 0.60428 0.57122 0.29324 0.0
C181 C 0.4927 0.53508 0.30841 0.0
C182 C 0.39482 0.5102 0.27085 0.0
C183 C 0.40846 0.51964 0.21917 0.0
C184 C 0.39991 0.42108 0.03025 0.0
C185 C 0.3124 0.36603 0.05206 0.0
loop_
_geom_bond_atom_site_label_1
_geom_bond_atom_site_label_2
_geom_bond_distance
_geom_bond_site_symmetry_2
_ccdc_geom_bond_type
O0 Mn1 2.163 1_654 S
O0 C14 1.244 1_554 S
Mn1 O0 2.163 1_456 S
Mn1 O4 2.160 1_545 S
Mn1 O5 2.220 1_556 S
Mn1 O7 2.152 1_556 S
Mn1 O9 2.171 . S
Mn1 O19 2.223 1_445 S
O2 Mn3 2.082 1_545 S
O2 C14 1.256 . S
Mn3 O2 2.082 1_565 S
Mn3 O10 2.086 1_565 S
Mn3 O19 2.293 . S
Mn3 O20 2.255 . S
O4 Mn1 2.160 1_565 S
O4 C15 1.239 1_556 S
O5 Mn1 2.220 1_554 S
O5 Mn6 2.290 . S
O5 C16 1.278 . S
Mn6 O5 2.290 . S
Mn6 O8 2.089 1_545 S
Mn6 O11 2.251 . S
Mn6 O12 2.087 . S
O7 Mn1 2.152 1_554 S
O7 C17 1.244 . S
O8 Mn6 2.089 1_565 S
O8 C15 1.256 . S
O9 Mn1 2.171 . S
O9 C18 1.239 . S
O10 Mn3 2.086 1_545 S
O10 C18 1.256 1_655 S
O11 Mn6 2.251 . S
O11 C16 1.241 . S
O12 Mn6 2.087 . S
O12 C17 1.256 . S
C13 O19 1.278 1_554 S
C13 O20 1.241 1_554 S
C14 O0 1.244 1_556 S
C14 O2 1.256 . S
C15 O4 1.239 1_554 S
C15 O8 1.256 . S
C16 O5 1.278 . S
C16 O11 1.241 . S
C17 O7 1.244 . S
C17 O12 1.256 . S
C18 O9 1.239 . S
C18 O10 1.256 1_455 S
O19 Mn1 2.223 1_665 S
O19 Mn3 2.293 . S
O19 C13 1.278 1_556 S
O20 Mn3 2.255 . S
O20 C13 1.241 1_556 S
O21 Mn22 2.163 . S
O21 C35 1.244 . S
Mn22 O21 2.163 . S
Mn22 O25 2.160 . S
Mn22 O26 2.221 . S
Mn22 O28 2.163 . S
Mn22 O30 2.160 . S
Mn22 O40 2.221 . S
O23 Mn24 2.087 . S
O23 C35 1.256 . S
Mn24 O23 2.087 . S
Mn24 O31 2.089 . S
Mn24 O40 2.290 . S
Mn24 O41 2.251 . S
O25 Mn22 2.160 . S
O25 C36 1.239 . S
O26 Mn22 2.221 . S
O26 Mn27 2.290 . S
O26 C37 1.278 . S
Mn27 O26 2.290 . S
Mn27 O29 2.089 . S
Mn27 O32 2.251 . S
Mn27 O33 2.087 . S
O28 Mn22 2.163 . S
O28 C38 1.244 . S
O29 Mn27 2.089 . S
O29 C36 1.256 . S
O30 Mn22 2.160 . S
O30 C39 1.239 . S
O31 Mn24 2.089 . S
O31 C39 1.256 . S
O32 Mn27 2.251 . S
O32 C37 1.241 . S
O33 Mn27 2.087 . S
O33 C38 1.256 . S
C34 O40 1.278 . S
C34 O41 1.241 . S
C35 O21 1.244 . S
C35 O23 1.256 . S
C36 O25 1.239 . S
C36 O29 1.256 . S
C37 O26 1.278 . S
C37 O32 1.241 . S
C38 O28 1.244 . S
C38 O33 1.256 . S
C39 O30 1.239 . S
C39 O31 1.256 . S
O40 Mn22 2.221 . S
O40 Mn24 2.290 . S
O40 C34 1.278 . S
O41 Mn24 2.251 . S
O41 C34 1.241 . S
C42 C43 1.384 . S
C42 H55 0.947 . S
C42 C77 1.382 . S
C43 C42 1.384 . S
C43 C44 1.378 . S
C44 C43 1.378 . S
C44 C45 1.378 . S
C44 H56 0.952 . S
C45 C44 1.378 . S
C45 H57 0.950 . S
C45 C76 1.383 . S
H46 C65 0.947 . S
H47 C66 0.946 . S
H48 C68 0.953 . S
H49 C69 0.945 . S
H50 C71 0.952 . S
H51 C72 0.949 . S
H52 C74 0.950 1_655 S
H53 C75 0.948 1_655 S
H54 C77 0.951 . S
H55 C42 0.947 . S
H56 C44 0.952 . S
H57 C45 0.950 . S
N58 C61 1.382 1_545 S
N58 C63 1.363 . S
N59 C61 1.371 . S
N59 C62 1.372 1_565 S
N60 C62 1.361 . S
N60 C63 1.377 . S
C61 N58 1.382 1_565 S
C61 N59 1.371 . S
C61 C64 1.480 . S
C62 N59 1.372 1_545 S
C62 N60 1.361 . S
C62 C70 1.457 . S
C63 N58 1.363 . S
C63 N60 1.377 . S
C63 C76 1.479 1_455 S
C64 C61 1.480 . S
C64 C65 1.383 . S
C64 C69 1.385 . S
C65 H46 0.947 . S
C65 C64 1.383 . S
C65 C66 1.388 . S
C66 H47 0.946 . S
C66 C65 1.388 . S
C66 C67 1.384 . S
C67 C66 1.384 . S
C67 C68 1.377 . S
C68 H48 0.953 . S
C68 C67 1.377 . S
C68 C69 1.369 . S
C69 H49 0.945 . S
C69 C64 1.385 . S
C69 C68 1.369 . S
C70 C62 1.457 . S
C70 C71 1.372 1_545 S
C70 C75 1.364 . S
C71 H50 0.952 . S
C71 C70 1.372 1_565 S
C71 C72 1.389 . S
C72 H51 0.949 . S
C72 C71 1.389 . S
C72 C73 1.387 . S
C73 C72 1.387 . S
C73 C74 1.372 1_565 S
C74 H52 0.950 1_455 S
C74 C73 1.372 1_545 S
C74 C75 1.379 . S
C75 H53 0.948 1_455 S
C75 C70 1.364 . S
C75 C74 1.379 . S
C76 C45 1.383 . S
C76 C63 1.479 1_655 S
C76 C77 1.398 . S
C77 C42 1.382 . S
C77 H54 0.951 . S
C77 C76 1.398 . S
C78 C79 1.384 . S
C78 H91 0.947 . S
C78 C113 1.382 . S
C79 C78 1.384 . S
C79 C80 1.378 . S
C80 C79 1.378 . S
C80 C81 1.378 . S
C80 H92 0.952 . S
C81 C80 1.378 . S
C81 H93 0.950 . S
C81 C112 1.383 . S
H82 C101 0.947 . S
H83 C102 0.946 . S
H84 C104 0.953 . S
H85 C105 0.945 . S
H86 C107 0.952 . S
H87 C108 0.949 . S
H88 C110 0.950 1_565 S
H89 C111 0.948 1_565 S
H90 C113 0.951 . S
H91 C78 0.947 . S
H92 C80 0.952 . S
H93 C81 0.950 . S
N94 C97 1.382 . S
N94 C99 1.363 1_455 S
N95 C97 1.371 . S
N95 C98 1.372 . S
N96 C98 1.361 1_655 S
N96 C99 1.377 . S
C97 N94 1.382 . S
C97 N95 1.371 . S
C97 C100 1.480 . S
C98 N95 1.372 . S
C98 N96 1.361 1_455 S
C98 C106 1.457 . S
C99 N94 1.363 1_655 S
C99 N96 1.377 . S
C99 C112 1.479 1_545 S
C100 C97 1.480 . S
C100 C101 1.383 . S
C100 C105 1.385 . S
C101 H82 0.947 . S
C101 C100 1.383 . S
C101 C102 1.388 . S
C102 H83 0.946 . S
C102 C101 1.388 . S
C102 C103 1.384 . S
C103 C102 1.384 . S
C103 C104 1.377 . S
C104 H84 0.953 . S
C104 C103 1.377 . S
C104 C105 1.369 . S
C105 H85 0.945 . S
C105 C100 1.385 . S
C105 C104 1.369 . S
C106 C98 1.457 . S
C106 C107 1.372 . S
C106 C111 1.364 1_455 S
C107 H86 0.952 . S
C107 C106 1.372 . S
C107 C108 1.389 . S
C108 H87 0.949 . S
C108 C107 1.389 . S
C108 C109 1.387 . S
C109 C108 1.387 . S
C109 C110 1.372 1_455 S
C110 H88 0.950 1_545 S
C110 C109 1.372 1_655 S
C110 C111 1.379 . S
C111 H89 0.948 1_545 S
C111 C106 1.364 1_655 S
C111 C110 1.379 . S
C112 C81 1.383 . S
C112 C99 1.479 1_565 S
C112 C113 1.398 . S
C113 C78 1.382 . S
C113 H90 0.951 . S
C113 C112 1.398 . S
C114 C115 1.384 1_556 S
C114 H127 0.947 . S
C114 C149 1.382 . S
C115 C114 1.384 1_554 S
C115 C116 1.378 . S
C116 C115 1.378 . S
C116 C117 1.378 . S
C116 H128 0.952 . S
C117 C116 1.378 . S
C117 H129 0.950 . S
C117 C148 1.383 1_554 S
H118 C137 0.947 . S
H119 C138 0.946 . S
H120 C140 0.953 . S
H121 C141 0.945 . S
H122 C143 0.952 . S
H123 C144 0.949 . S
H124 C146 0.950 . S
H125 C147 0.948 . S
H126 C149 0.951 . S
H127 C114 0.947 . S
H128 C116 0.952 . S
H129 C117 0.950 . S
N130 C133 1.382 . S
N130 C135 1.363 . S
N131 C133 1.371 . S
N131 C134 1.372 . S
N132 C134 1.361 . S
N132 C135 1.377 . S
C133 N130 1.382 . S
C133 N131 1.371 . S
C133 C136 1.480 . S
C134 N131 1.372 . S
C134 N132 1.361 . S
C134 C142 1.457 . S
C135 N130 1.363 . S
C135 N132 1.377 . S
C135 C148 1.479 . S
C136 C133 1.480 . S
C136 C137 1.383 1_556 S
C136 C141 1.385 . S
C137 H118 0.947 . S
C137 C136 1.383 1_554 S
C137 C138 1.388 . S
C138 H119 0.946 . S
C138 C137 1.388 . S
C138 C139 1.384 . S
C139 C138 1.384 . S
C139 C140 1.377 1_554 S
C140 H120 0.953 . S
C140 C139 1.377 1_556 S
C140 C141 1.369 . S
C141 H121 0.945 . S
C141 C136 1.385 . S
C141 C140 1.369 . S
C142 C134 1.457 . S
C142 C143 1.372 . S
C142 C147 1.364 . S
C143 H122 0.952 . S
C143 C142 1.372 . S
C143 C144 1.389 . S
C144 H123 0.949 . S
C144 C143 1.389 . S
C144 C145 1.387 . S
C145 C144 1.387 . S
C145 C146 1.372 . S
C146 H124 0.950 . S
C146 C145 1.372 . S
C146 C147 1.379 . S
C147 H125 0.948 . S
C147 C142 1.364 . S
C147 C146 1.379 . S
C148 C117 1.383 1_556 S
C148 C135 1.479 . S
C148 C149 1.398 . S
C149 C114 1.382 . S
C149 H126 0.951 . S
C149 C148 1.398 . S
C150 C151 1.384 1_554 S
C150 H163 0.947 . S
C150 C185 1.382 . S
C151 C150 1.384 1_556 S
C151 C152 1.378 . S
C152 C151 1.378 . S
C152 C153 1.378 . S
C152 H164 0.952 . S
C153 C152 1.378 . S
C153 H165 0.950 . S
C153 C184 1.383 1_556 S
H154 C173 0.947 . S
H155 C174 0.946 . S
H156 C176 0.953 . S
H157 C177 0.945 . S
H158 C179 0.952 . S
H159 C180 0.949 . S
H160 C182 0.950 . S
H161 C183 0.948 . S
H162 C185 0.951 . S
H163 C150 0.947 . S
H164 C152 0.952 . S
H165 C153 0.950 . S
N166 C169 1.382 . S
N166 C171 1.363 . S
N167 C169 1.371 . S
N167 C170 1.372 . S
N168 C170 1.361 . S
N168 C171 1.377 . S
C169 N166 1.382 . S
C169 N167 1.371 . S
C169 C172 1.480 . S
C170 N167 1.372 . S
C170 N168 1.361 . S
C170 C178 1.457 . S
C171 N166 1.363 . S
C171 N168 1.377 . S
C171 C184 1.479 . S
C172 C169 1.480 . S
C172 C173 1.383 1_554 S
C172 C177 1.385 . S
C173 H154 0.947 . S
C173 C172 1.383 1_556 S
C173 C174 1.388 . S
C174 H155 0.946 . S
C174 C173 1.388 . S
C174 C175 1.384 . S
C175 C174 1.384 . S
C175 C176 1.377 1_556 S
C176 H156 0.953 . S
C176 C175 1.377 1_554 S
C176 C177 1.369 . S
C177 H157 0.945 . S
C177 C172 1.385 . S
C177 C176 1.369 . S
C178 C170 1.457 . S
C178 C179 1.372 . S
C178 C183 1.364 . S
C179 H158 0.952 . S
C179 C178 1.372 . S
C179 C180 1.389 . S
C180 H159 0.949 . S
C180 C179 1.389 . S
C180 C181 1.387 . S
C181 C180 1.387 . S
C181 C182 1.372 . S
C182 H160 0.950 . S
C182 C181 1.372 . S
C182 C183 1.379 . S
C183 H161 0.948 . S
C183 C178 1.364 . S
C183 C182 1.379 . S
C184 C153 1.383 1_554 S
C184 C171 1.479 . S
C184 C185 1.398 . S
C185 C150 1.382 . S
C185 H162 0.951 . S
C185 C184 1.398 . S
C151 C16 2.292 1_556 S
C15 C115 1.973 . S
C13 C175 1.294 1_554 S
C14 C139 1.576 1_556 S
C37 C79 2.292 . S
C36 C43 1.973 . S
C103 C34 1.293 . S
C67 C35 1.576 . S
C17 C73 1.560 1_545 S
C18 C109 1.420 . S
C145 C38 1.560 . S
C39 C181 1.420 . S
