# Generated by pormake.
# Topology pts, (4,4)-cn, num edge types: 1
# Building blocks:
#     Node 0, Type 0, BuildingBlock: GIZVER_clean_linker_0, # of connection points: 4
#     Node 1, Type 0, BuildingBlock: GIZVER_clean_linker_0, # of connection points: 4
#     Node 2, Type 1, BuildingBlock: QUQFOY_clean_sbu_1, # of connection points: 4
#     Node 3, Type 1, BuildingBlock: QUQFOY_clean_sbu_1, # of connection points: 4
#     Edge 4, Type (0, 1), BuildingBlock: OJICUG_clean_linker_0, # of connection points: 2
#     Edge 5, Type (0, 1), BuildingBlock: OJICUG_clean_linker_0, # of connection points: 2
#     Edge 6, Type (0, 1), BuildingBlock: OJICUG_clean_linker_0, # of connection points: 2
#     Edge 7, Type (0, 1), BuildingBlock: OJICUG_clean_linker_0, # of connection points: 2
#     Edge 8, Type (0, 1), BuildingBlock: OJICUG_clean_linker_0, # of connection points: 2
#     Edge 9, Type (0, 1), BuildingBlock: OJICUG_clean_linker_0, # of connection points: 2
#     Edge 10, Type (0, 1), BuildingBlock: OJICUG_clean_linker_0, # of connection points: 2
#     Edge 11, Type (0, 1), BuildingBlock: OJICUG_clean_linker_0, # of connection points: 2
# Relax obj value: 0.103
# Max RMSD: 0.274
# Mean RMSD: 0.183
data_MOF--net-pts--node1-QUQFOY_clean_sbu_1--node2-GIZVER_clean_linker_0--edge1-OJICUG_clean_linker_0
_symmetry_space_group_name_H-M    P1
_symmetry_Int_Tables_number       1
_symmetry_cell_setting            triclinic
loop_
_symmetry_equiv_pos_as_xyz
'x, y, z'
_cell_length_a     17.986082
_cell_length_b     18.00719
_cell_length_c     29.59412
_cell_angle_alpha  90.619405
_cell_angle_beta   90.420017
_cell_angle_gamma 90.121699
loop_
_atom_site_label
_atom_site_type_symbol
_atom_site_fract_x
_atom_site_fract_y
_atom_site_fract_z
_atom_type_partial_charge
H0 H 0.58159 0.18002 0.02608 0.0
H1 H 0.58544 0.18668 0.88077 0.0
H2 H 0.75652 1.07047 -0.04685 0.0
H3 H 0.5047 0.26998 -0.01575 0.0
H4 H 0.50564 0.27169 0.92378 0.0
H5 H 0.42936 0.17881 0.02433 0.0
H6 H 0.26088 1.06211 0.9481 0.0
H7 H 0.43289 0.18075 0.87899 0.0
C8 C 0.60695 0.16386 -0.00564 0.0
C9 C 0.67191 0.12084 -0.00551 0.0
C10 C 0.57524 0.18718 -0.04662 0.0
C11 C 0.60914 0.16766 0.91237 0.0
C12 C 0.67412 0.12478 0.91206 0.0
C13 C 0.70444 0.10072 -0.04682 0.0
C14 C 0.50622 0.23413 -0.04659 0.0
C15 C 0.43865 0.18473 -0.04817 0.0
C16 C 0.406 0.16093 -0.00787 0.0
C17 C 0.34222 0.11595 -0.00899 0.0
C18 C 0.3124 0.09347 -0.0509 0.0
C19 C 0.34426 0.11689 0.90849 0.0
C20 C 0.40801 0.16199 0.91011 0.0
H21 H 0.0919 0.66114 0.37888 0.0
H22 H 0.08782 0.66597 0.52392 0.0
H23 H 0.9833 0.84067 0.44881 0.0
H24 H 0.1772 0.58542 0.42312 0.0
H25 H 0.17537 0.58721 0.48323 0.0
H26 H 0.10364 0.49628 0.38059 0.0
H27 H 1.00603 0.31746 0.45432 0.0
H28 H 0.07909 0.51543 0.52458 0.0
C29 C 0.07273 0.68678 0.40996 0.0
C30 C 0.03597 0.7556 0.40873 0.0
C31 C 0.09006 0.65339 0.45147 0.0
C32 C 0.07037 0.68951 0.49203 0.0
C33 C 0.03343 0.75827 0.49141 0.0
C34 C 0.01383 0.78889 0.44958 0.0
C35 C 0.13911 0.58546 0.45259 0.0
C36 C 0.09472 0.51411 0.45255 0.0
C37 C 0.08367 0.47376 0.41209 0.0
C38 C 0.05172 0.40249 0.41263 0.0
C39 C 0.02903 0.373 0.45399 0.0
C40 C 0.03871 0.41243 0.49485 0.0
C41 C 0.07054 0.48394 0.49359 0.0
O42 O 0.90946 1.00957 0.14332 0.0
Cd43 Cd 0.00849 0.98959 0.17633 0.0
Cd44 Cd 0.00993 0.14044 0.1886 0.0
O45 O 0.90864 0.1307 0.15568 0.0
O46 O 0.00839 0.88818 0.20331 0.0
O47 O 0.0135 0.99286 0.24341 0.0
C48 C 0.01231 0.92109 0.24228 0.0
C49 C 0.01978 0.2166 0.25271 0.0
C50 C 0.87862 1.07256 0.13883 0.0
C51 C 0.13353 1.07099 0.13361 0.0
O52 O 0.10445 0.12945 0.15018 0.0
O53 O 0.10427 1.00772 0.14026 0.0
O54 O 0.0132 0.2446 0.21299 0.0
O55 O 0.01943 0.14519 0.25604 0.0
O56 O 0.91224 0.14547 0.75324 0.0
Cd57 Cd 0.00744 0.15333 0.71514 0.0
Cd58 Cd 1.00352 1.00252 0.72255 0.0
O59 O 0.90668 1.02316 0.75722 0.0
O60 O 0.01438 0.25871 0.69497 0.0
O61 O 0.99826 0.16348 0.64789 0.0
C62 C 1.00623 0.23411 0.65421 0.0
C63 C 1.00403 0.93232 0.65628 0.0
C64 C 0.88028 0.0868 0.76684 0.0
C65 C 0.13503 1.07797 0.76383 0.0
O66 O 0.10138 1.01639 0.75821 0.0
O67 O 0.10785 0.1373 0.74778 0.0
O68 O 1.00023 0.90069 0.69517 0.0
O69 O 1.00635 1.00407 0.65529 0.0
C70 C 0.26877 1.02964 0.03952 0.0
C71 C 0.30057 0.09999 0.03283 0.0
H72 H 0.1916 0.96479 0.07721 0.0
C73 C 0.28436 0.15783 0.06338 0.0
H74 H 0.28095 0.98391 0.01668 0.0
C75 C 0.23312 0.14707 0.09789 0.0
C76 C 0.1973 1.07814 0.10267 0.0
H77 H 0.30759 0.21279 0.05889 0.0
H78 H 0.21905 0.19385 0.11947 0.0
C79 C 0.21782 1.0187 0.07426 0.0
C80 C 0.96652 0.3202 0.541 0.0
C81 C 0.02283 0.37467 0.5385 0.0
H82 H 0.91888 0.23143 0.57902 0.0
C83 C 0.06886 0.38657 0.57664 0.0
H84 H 0.92802 0.31092 0.51322 0.0
C85 C 0.06105 0.34292 0.61512 0.0
C86 C 0.00868 0.28513 0.61578 0.0
H87 H 0.11347 0.42697 0.57618 0.0
H88 H 0.09864 0.35181 0.64346 0.0
C89 C 0.9607 0.27483 0.57879 0.0
C90 C 0.72714 0.16081 0.06862 0.0
C91 C 0.71142 0.10377 0.03723 0.0
H92 H 0.7922 0.19551 0.12588 0.0
C93 C 0.74229 1.03313 0.04396 0.0
H94 H 0.70436 0.2159 0.06414 0.0
C95 C 0.79246 1.02126 0.07939 0.0
C96 C 0.81332 1.08011 0.10847 0.0
H97 H 0.73039 0.98802 0.02046 0.0
H98 H 0.81836 0.96724 0.08214 0.0
C99 C 0.77781 0.14916 0.10384 0.0
C100 C 0.03349 0.87989 0.53371 0.0
C101 C 0.02241 0.80241 0.53375 0.0
H102 H 0.03565 0.98126 0.57191 0.0
C103 C 1.00368 0.76813 0.57461 0.0
H104 H 0.04994 0.90824 0.50328 0.0
C105 C 0.99682 0.8103 0.61442 0.0
C106 C 0.00811 0.88764 0.61412 0.0
H107 H 0.99424 0.70877 0.57585 0.0
H108 H 0.98289 0.78226 0.64543 0.0
C109 C 0.02589 0.92194 0.57325 0.0
C110 C 0.27205 1.03201 0.85664 0.0
C111 C 0.30443 0.10189 0.86528 0.0
H112 H 0.19374 0.96907 0.81714 0.0
C113 C 0.28943 0.16039 0.83559 0.0
H114 H 0.28344 0.98569 0.87869 0.0
C115 C 0.23806 0.151 0.80038 0.0
C116 C 0.2008 0.08287 0.7941 0.0
H117 H 0.31323 0.21498 0.84148 0.0
H118 H 0.22445 0.19849 0.77975 0.0
C119 C 0.22087 1.02248 0.82129 0.0
C120 C 0.02331 0.38676 0.3295 0.0
C121 C 0.0459 0.35603 0.37083 0.0
H122 H 0.99703 0.36668 0.25964 0.0
C123 C 0.06149 0.27949 0.37242 0.0
H124 H 0.01054 0.44535 0.32715 0.0
C125 C 0.05239 0.23439 0.33418 0.0
C126 C 0.02882 0.26484 0.2931 0.0
H127 H 0.08109 0.25415 0.40331 0.0
H128 H 0.06452 0.17568 0.33677 0.0
C129 C 0.01511 0.34161 0.29095 0.0
C130 C 0.74568 1.04142 0.86002 0.0
C131 C 0.71555 0.11164 0.86969 0.0
H132 H 0.82046 0.97803 0.8192 0.0
C133 C 0.73267 0.17144 0.8415 0.0
H134 H 0.73282 0.99433 0.88109 0.0
C135 C 0.78322 0.1624 0.80628 0.0
C136 C 0.81708 0.09321 0.79835 0.0
H137 H 0.71056 0.22629 0.84838 0.0
H138 H 0.7982 0.21043 0.78656 0.0
C139 C 0.79562 1.03215 0.82449 0.0
C140 C 0.01065 0.7607 0.32466 0.0
C141 C 0.02776 0.79718 0.36571 0.0
H142 H 0.99216 0.77121 0.25332 0.0
C143 C 0.03951 0.87452 0.36545 0.0
H144 H 1.00093 0.70133 0.32364 0.0
C145 C 0.03351 0.91446 0.32551 0.0
C146 C 0.01667 0.87812 0.28453 0.0
H147 H 0.05489 0.90443 0.39607 0.0
H148 H 0.04331 0.97383 0.32673 0.0
C149 C 1.00534 0.80078 0.28443 0.0
loop_
_geom_bond_atom_site_label_1
_geom_bond_atom_site_label_2
_geom_bond_distance
_geom_bond_site_symmetry_2
_ccdc_geom_bond_type
H0 C8 0.930 . S
H1 C11 0.930 . S
H2 C13 0.920 1_565 S
H3 C14 0.970 . S
H4 C14 0.970 1_556 S
H5 C16 0.930 . S
H6 C18 0.930 . S
H7 C20 0.930 . S
C8 H0 0.930 . S
C8 C9 1.382 . S
C8 C10 1.426 . S
C9 C8 1.382 . S
C9 C13 1.395 . S
C10 C8 1.426 . S
C10 C11 1.375 1_554 S
C10 C14 1.532 . S
C11 H1 0.930 . S
C11 C10 1.375 1_556 S
C11 C12 1.416 . S
C12 C11 1.416 . S
C12 C13 1.375 1_556 S
C13 H2 0.920 1_545 S
C13 C9 1.395 . S
C13 C12 1.375 1_554 S
C14 H3 0.970 . S
C14 H4 0.970 1_554 S
C14 C10 1.532 . S
C14 C15 1.499 . S
C15 C14 1.499 . S
C15 C16 1.370 . S
C15 C20 1.415 1_554 S
C16 H5 0.930 . S
C16 C15 1.370 . S
C16 C17 1.407 . S
C17 C16 1.407 . S
C17 C18 1.365 1_545 S
C18 H6 0.930 . S
C18 C17 1.365 1_565 S
C18 C19 1.393 1_564 S
C19 C18 1.393 1_546 S
C19 C20 1.387 . S
C20 H7 0.930 . S
C20 C15 1.415 1_556 S
C20 C19 1.387 . S
H21 C29 0.930 . S
H22 C32 0.930 . S
H23 C34 0.936 . S
H24 C35 0.970 . S
H25 C35 0.970 . S
H26 C37 0.930 . S
H27 C39 0.930 . S
H28 C41 0.930 . S
C29 H21 0.930 . S
C29 C30 1.382 . S
C29 C31 1.426 . S
C30 C29 1.382 . S
C30 C34 1.385 1_455 S
C31 C29 1.426 . S
C31 C32 1.375 . S
C31 C35 1.532 . S
C32 H22 0.930 . S
C32 C31 1.375 . S
C32 C33 1.416 . S
C33 C32 1.416 . S
C33 C34 1.369 1_455 S
C34 H23 0.936 . S
C34 C30 1.385 1_655 S
C34 C33 1.369 1_655 S
C35 H24 0.970 . S
C35 H25 0.970 . S
C35 C31 1.532 . S
C35 C36 1.499 . S
C36 C35 1.499 . S
C36 C37 1.370 . S
C36 C41 1.415 . S
C37 H26 0.930 . S
C37 C36 1.370 . S
C37 C38 1.407 . S
C38 C37 1.407 . S
C38 C39 1.365 1_455 S
C39 H27 0.930 . S
C39 C38 1.365 1_655 S
C39 C40 1.393 1_655 S
C40 C39 1.393 1_455 S
C40 C41 1.387 . S
C41 H28 0.930 . S
C41 C36 1.415 . S
C41 C40 1.387 . S
O42 Cd43 2.223 1_655 S
O42 C50 1.315 . S
Cd43 O42 2.223 1_455 S
Cd43 O46 2.297 1_455 S
Cd43 O47 2.439 1_455 S
Cd43 O53 2.240 1_565 S
Cd44 O45 2.240 . S
Cd44 O52 2.223 1_655 S
Cd44 O54 2.297 1_655 S
Cd44 O55 2.439 1_655 S
O45 Cd44 2.240 . S
O45 C50 1.279 1_545 S
O46 Cd43 2.297 1_655 S
O46 C48 1.247 . S
O47 Cd43 2.439 1_655 S
O47 C48 1.208 . S
C48 O46 1.247 . S
C48 O47 1.208 . S
C49 O54 1.247 . S
C49 O55 1.208 . S
C50 O42 1.315 . S
C50 O45 1.279 1_565 S
C51 O52 1.315 . S
C51 O53 1.279 . S
O52 Cd44 2.223 1_455 S
O52 C51 1.315 . S
O53 Cd43 2.240 1_545 S
O53 C51 1.279 . S
O54 Cd44 2.297 1_455 S
O54 C49 1.247 . S
O55 Cd44 2.439 1_455 S
O55 C49 1.208 . S
O56 Cd57 2.223 1_655 S
O56 C64 1.315 . S
Cd57 O56 2.223 1_455 S
Cd57 O60 2.297 1_455 S
Cd57 O61 2.439 1_455 S
Cd57 O67 2.237 1_545 S
Cd58 O59 2.240 1_565 S
Cd58 O66 2.223 1_655 S
Cd58 O68 2.297 1_655 S
Cd58 O69 2.439 1_655 S
O59 Cd58 2.240 1_545 S
O59 C64 1.279 . S
O60 Cd57 2.297 1_655 S
O60 C62 1.247 . S
O61 Cd57 2.439 1_655 S
O61 C62 1.208 . S
C62 O60 1.247 . S
C62 O61 1.208 . S
C63 O68 1.247 . S
C63 O69 1.208 . S
C64 O56 1.315 . S
C64 O59 1.279 . S
C65 O66 1.315 . S
C65 O67 1.281 . S
O66 Cd58 2.223 1_455 S
O66 C65 1.315 . S
O67 Cd57 2.237 1_565 S
O67 C65 1.281 . S
O68 Cd58 2.297 1_455 S
O68 C63 1.247 . S
O69 Cd58 2.439 1_455 S
O69 C63 1.208 . S
C70 C71 1.387 1_565 S
C70 H74 0.950 . S
C70 C79 1.390 . S
C71 C70 1.387 1_545 S
C71 C73 1.387 . S
H72 C79 0.950 . S
C73 C71 1.387 . S
C73 C75 1.390 . S
C73 H77 0.950 . S
H74 C70 0.950 . S
C75 C73 1.390 . S
C75 C76 1.387 . S
C75 H78 0.950 . S
C76 C75 1.387 . S
C76 C79 1.387 1_545 S
H77 C73 0.950 . S
H78 C75 0.950 . S
C79 C70 1.390 . S
C79 H72 0.950 . S
C79 C76 1.387 1_565 S
C80 C81 1.380 1_655 S
C80 H84 0.950 . S
C80 C89 1.390 . S
C81 C80 1.380 1_455 S
C81 C83 1.393 . S
H82 C89 0.950 . S
C83 C81 1.393 . S
C83 C85 1.390 . S
C83 H87 0.950 . S
H84 C80 0.950 . S
C85 C83 1.390 . S
C85 C86 1.387 1_455 S
C85 H88 0.950 . S
C86 C85 1.387 1_655 S
C86 C89 1.387 . S
H87 C83 0.950 . S
H88 C85 0.950 . S
C89 C80 1.390 . S
C89 H82 0.950 . S
C89 C86 1.387 . S
C90 C91 1.387 . S
C90 H94 0.950 . S
C90 C99 1.390 . S
C91 C90 1.387 . S
C91 C93 1.387 1_545 S
H92 C99 0.950 . S
C93 C91 1.387 1_565 S
C93 C95 1.390 . S
C93 H97 0.950 . S
H94 C90 0.950 . S
C95 C93 1.390 . S
C95 C96 1.387 . S
C95 H98 0.950 . S
C96 C95 1.387 . S
C96 C99 1.387 1_565 S
H97 C93 0.950 . S
H98 C95 0.950 . S
C99 C90 1.390 . S
C99 H92 0.950 . S
C99 C96 1.387 1_545 S
C100 C101 1.387 1_655 S
C100 H104 0.950 . S
C100 C109 1.390 1_655 S
C101 C100 1.387 1_455 S
C101 C103 1.387 . S
H102 C109 0.950 1_655 S
C103 C101 1.387 . S
C103 C105 1.390 . S
C103 H107 0.950 . S
H104 C100 0.950 . S
C105 C103 1.390 . S
C105 C106 1.387 . S
C105 H108 0.950 . S
C106 C105 1.387 . S
C106 C109 1.387 . S
H107 C103 0.950 . S
H108 C105 0.950 . S
C109 C100 1.390 1_455 S
C109 H102 0.950 1_455 S
C109 C106 1.387 . S
C110 C111 1.387 1_565 S
C110 H114 0.950 . S
C110 C119 1.390 . S
C111 C110 1.387 1_545 S
C111 C113 1.387 . S
H112 C119 0.950 . S
C113 C111 1.387 . S
C113 C115 1.390 . S
C113 H117 0.950 . S
H114 C110 0.950 . S
C115 C113 1.390 . S
C115 C116 1.387 1_545 S
C115 H118 0.950 . S
C116 C115 1.387 1_565 S
C116 C119 1.387 . S
H117 C113 0.950 . S
H118 C115 0.950 . S
C119 C110 1.390 . S
C119 H112 0.950 . S
C119 C116 1.387 . S
C120 C121 1.387 1_655 S
C120 H124 0.950 . S
C120 C129 1.390 . S
C121 C120 1.387 1_455 S
C121 C123 1.387 . S
H122 C129 0.950 . S
C123 C121 1.387 . S
C123 C125 1.390 . S
C123 H127 0.950 . S
H124 C120 0.950 . S
C125 C123 1.390 . S
C125 C126 1.387 . S
C125 H128 0.950 . S
C126 C125 1.387 . S
C126 C129 1.387 1_455 S
H127 C123 0.950 . S
H128 C125 0.950 . S
C129 C120 1.390 . S
C129 H122 0.950 . S
C129 C126 1.387 1_655 S
C130 C131 1.387 1_565 S
C130 H134 0.950 . S
C130 C139 1.390 . S
C131 C130 1.387 1_545 S
C131 C133 1.387 . S
H132 C139 0.950 . S
C133 C131 1.387 . S
C133 C135 1.390 . S
C133 H137 0.950 . S
H134 C130 0.950 . S
C135 C133 1.390 . S
C135 C136 1.387 . S
C135 H138 0.950 . S
C136 C135 1.387 . S
C136 C139 1.387 1_545 S
H137 C133 0.950 . S
H138 C135 0.950 . S
C139 C130 1.390 . S
C139 H132 0.950 . S
C139 C136 1.387 1_565 S
C140 C141 1.387 . S
C140 H144 0.950 . S
C140 C149 1.390 1_455 S
C141 C140 1.387 . S
C141 C143 1.387 1_455 S
H142 C149 0.950 . S
C143 C141 1.387 1_655 S
C143 C145 1.390 . S
C143 H147 0.950 . S
H144 C140 0.950 . S
C145 C143 1.390 . S
C145 C146 1.387 . S
C145 H148 0.950 . S
C146 C145 1.387 . S
C146 C149 1.387 . S
H147 C143 0.950 . S
H148 C145 0.950 . S
C149 C140 1.390 1_655 S
C149 H142 0.950 . S
C149 C146 1.387 . S
C76 C51 1.680 . S
C71 C17 1.564 . S
C86 C62 1.546 . S
C81 C40 1.600 . S
C96 C50 1.677 . S
C91 C9 1.623 . S
C106 C63 1.550 . S
C101 C33 1.507 . S
C116 C65 1.668 . S
C111 C19 1.625 . S
C126 C49 1.557 . S
C121 C38 1.528 . S
C136 C64 1.675 . S
C131 C12 1.546 . S
C141 C30 1.599 . S
C146 C48 1.557 . S
