# Generated by pormake.
# Topology scu, (8,4)-cn, num edge types: 1
# Building blocks:
#     Node 0, Type 0, BuildingBlock: VETTIZ_charged_sbu_0, # of connection points: 8
#     Node 1, Type 1, BuildingBlock: IZENUY_clean_linker_0, # of connection points: 4
#     Node 2, Type 1, BuildingBlock: IZENUY_clean_linker_0, # of connection points: 4
#     Edge 3, Type (0, 1), BuildingBlock: OJICUG_clean_linker_0, # of connection points: 2
#     Edge 4, Type (0, 1), BuildingBlock: OJICUG_clean_linker_0, # of connection points: 2
#     Edge 5, Type (0, 1), BuildingBlock: OJICUG_clean_linker_0, # of connection points: 2
#     Edge 6, Type (0, 1), BuildingBlock: OJICUG_clean_linker_0, # of connection points: 2
#     Edge 7, Type (0, 1), BuildingBlock: OJICUG_clean_linker_0, # of connection points: 2
#     Edge 8, Type (0, 1), BuildingBlock: OJICUG_clean_linker_0, # of connection points: 2
#     Edge 9, Type (0, 1), BuildingBlock: OJICUG_clean_linker_0, # of connection points: 2
#     Edge 10, Type (0, 1), BuildingBlock: OJICUG_clean_linker_0, # of connection points: 2
# Relax obj value: 0.029
# Max RMSD: 0.128
# Mean RMSD: 0.109
data_MOF--net-scu--node1-VETTIZ_charged_sbu_0--node2-IZENUY_clean_linker_0--edge1-OJICUG_clean_linker_0
_symmetry_space_group_name_H-M    P1
_symmetry_Int_Tables_number       1
_symmetry_cell_setting            triclinic
loop_
_symmetry_equiv_pos_as_xyz
'x, y, z'
_cell_length_a     21.989562
_cell_length_b     21.957637
_cell_length_c     14.119221
_cell_angle_alpha  94.998066
_cell_angle_beta   90.289916
_cell_angle_gamma 91.458077
loop_
_atom_site_label
_atom_site_type_symbol
_atom_site_fract_x
_atom_site_fract_y
_atom_site_fract_z
_atom_type_partial_charge
Fe0 Fe 0.98684 0.99312 0.20356 0.0
O1 O 0.9912 0.99808 0.06598 0.0
Fe2 Fe 0.07373 0.97379 0.99839 0.0
Fe3 Fe 0.97383 0.07417 0.0036 0.0
O4 O 0.99599 0.99348 0.06585 0.0
O5 O 0.05636 0.04987 0.93601 0.0
O6 O 0.05157 0.05447 0.93614 0.0
Fe7 Fe 0.06072 0.05483 0.79843 0.0
C8 C 0.8679 0.04466 0.13813 0.0
O9 O 0.98827 0.0871 0.23595 0.0
O10 O 1.02095 0.12877 0.10619 0.0
O11 O 0.15244 0.0475 0.82673 0.0
O12 O 0.15379 0.96483 0.9175 0.0
O13 O 0.12536 0.02372 0.10111 0.0
O14 O 0.07939 0.99433 0.23071 0.0
O15 O 0.96782 0.15214 0.92779 0.0
O16 O 0.05308 0.1479 0.83242 0.0
C17 C 0.12576 1.01528 0.1891 0.0
O18 O 0.0593 0.96085 0.76604 0.0
O19 O 0.02661 0.91918 0.8958 0.0
O20 O 0.89513 1.00045 0.17526 0.0
O21 O 0.89377 0.08312 0.08449 0.0
C22 C 1.01052 0.13205 0.19491 0.0
C23 C 1.00798 0.17651 0.8738 0.0
C24 C 0.9218 0.03267 0.81289 0.0
O25 O 0.9222 0.02423 0.90088 0.0
O26 O 0.96817 0.05362 0.77128 0.0
C27 C 0.17967 1.00329 0.86386 0.0
O28 O 0.07974 0.89581 0.0742 0.0
O29 O 0.99448 0.90005 0.16957 0.0
C30 C 0.03704 0.9159 0.80708 0.0
C31 C 0.03958 0.87145 0.12819 0.0
H32 H 0.0278 0.42238 0.39077 0.0
H33 H 0.99828 0.45586 0.69313 0.0
H34 H 0.99033 0.27272 0.561 0.0
H35 H 1.01976 0.62557 0.61123 0.0
H36 H 0.04928 0.59209 0.30886 0.0
H37 H 0.05722 0.77523 0.441 0.0
N38 N 1.01844 0.51185 0.53851 0.0
N39 N 0.02911 0.5361 0.46348 0.0
C40 C 1.017 0.40571 0.45882 0.0
C41 C 1.01089 0.34211 0.4661 0.0
C42 C 1.01133 0.44732 0.54107 0.0
C43 C 1.0001 0.42458 0.6295 0.0
C44 C 0.99207 0.36171 0.63607 0.0
C45 C 0.99611 0.32142 0.55442 0.0
C46 C 0.03056 0.64224 0.54318 0.0
C47 C 0.03666 0.70584 0.5359 0.0
C48 C 0.03623 0.60063 0.46092 0.0
C49 C 0.04745 0.62337 0.3725 0.0
C50 C 0.05548 0.68625 0.36592 0.0
C51 C 0.05145 0.72654 0.44757 0.0
H52 H 0.59367 0.04874 0.36294 0.0
H53 H 0.63615 1.01321 0.65176 0.0
H54 H 0.77798 0.06402 0.46254 0.0
H55 H 0.45389 0.99922 0.63905 0.0
H56 H 0.41141 0.03474 0.35023 0.0
H57 H 0.26958 0.98393 0.53945 0.0
N58 N 0.54426 1.02176 0.53129 0.0
N59 N 0.5033 0.0262 0.4707 0.0
C60 C 0.62616 0.04714 0.42053 0.0
C61 C 0.68793 0.05874 0.40373 0.0
C62 C 0.60689 0.03264 0.5114 0.0
C63 C 0.65071 0.02689 0.58338 0.0
C64 C 0.71311 0.03655 0.56575 0.0
C65 C 0.73032 0.0551 0.47697 0.0
C66 C 0.4214 1.00082 0.58146 0.0
C67 C 0.35964 0.98922 0.59827 0.0
C68 C 0.44067 1.01531 0.49059 0.0
C69 C 0.39686 1.02106 0.41861 0.0
C70 C 0.33445 1.01141 0.43625 0.0
C71 C 0.31724 0.99286 0.52503 0.0
C72 C 0.05352 0.19114 0.33861 0.0
C73 C 1.02107 0.19066 0.2531 0.0
H74 H 0.07907 0.24094 0.46983 0.0
C75 C 0.9928 0.24445 0.23058 0.0
H76 H 0.07589 0.1505 0.35729 0.0
C77 C 0.99282 0.29629 0.29679 0.0
C78 C 1.02187 0.29502 0.38558 0.0
H79 H 0.96719 0.24495 0.16491 0.0
H80 H 0.96691 0.33554 0.28118 0.0
C81 C 0.05497 0.24298 0.4031 0.0
C82 C 0.79418 0.11283 0.2235 0.0
C83 C 0.80608 0.05638 0.17352 0.0
H84 H 0.74443 0.15837 0.33792 0.0
C85 C 0.76541 1.00672 0.18121 0.0
H86 H 0.82538 0.15152 0.21951 0.0
C87 C 0.71827 1.0111 0.24722 0.0
C88 C 0.71224 0.06474 0.30765 0.0
H89 H 0.77395 0.96268 0.14348 0.0
H90 H 0.69204 0.97014 0.25969 0.0
C91 C 0.74774 0.11684 0.29103 0.0
C92 C 0.10649 0.79582 0.19441 0.0
C93 C 0.04968 0.80971 0.15721 0.0
H94 H 0.15327 0.74302 0.29142 0.0
C95 C 0.99948 0.77031 0.16889 0.0
H96 H 0.14566 0.82596 0.1871 0.0
C97 C 1.00429 0.72198 0.22632 0.0
C98 C 0.05899 0.71338 0.27424 0.0
H99 H 0.95523 0.78027 0.1408 0.0
H100 H 0.96345 0.69635 0.24256 0.0
C101 C 0.11097 0.74822 0.25363 0.0
C102 C 0.23884 1.00435 0.20861 0.0
C103 C 0.1828 0.02499 0.24503 0.0
H104 H 0.33122 0.98271 0.24089 0.0
C105 C 0.17987 0.04829 0.34035 0.0
H106 H 0.24216 0.98579 0.13522 0.0
C107 C 0.23078 0.04837 0.39948 0.0
C108 C 0.28553 1.02251 0.36625 0.0
H109 H 0.13745 0.06455 0.3703 0.0
H110 H 0.22623 0.06628 0.47298 0.0
C111 C 0.2898 1.00265 0.26902 0.0
C112 C 0.05477 0.80351 0.77141 0.0
C113 C 0.02649 0.85729 0.74889 0.0
H114 H 0.08066 0.71242 0.72081 0.0
C115 C 0.99404 0.85681 0.66338 0.0
H116 H 0.08038 0.80302 0.83707 0.0
C117 C 0.99259 0.80496 0.5989 0.0
C118 C 0.02569 0.75293 0.61643 0.0
H119 H 0.97166 0.89745 0.64471 0.0
H120 H 0.96847 0.807 0.53217 0.0
C121 C 0.05475 0.75167 0.7052 0.0
C122 C 0.25338 0.93512 0.77849 0.0
C123 C 0.24148 0.99158 0.82847 0.0
H124 H 0.30314 0.88958 0.66407 0.0
C125 C 0.28215 0.04124 0.82078 0.0
H126 H 0.22218 0.89643 0.78248 0.0
C127 C 0.32929 0.03686 0.75477 0.0
C128 C 0.33532 0.98322 0.69434 0.0
H129 H 0.27361 0.08527 0.85851 0.0
H130 H 0.35552 0.07781 0.7423 0.0
C131 C 0.29982 0.93111 0.71096 0.0
C132 C 0.94107 0.25214 0.80759 0.0
C133 C 0.99789 0.23824 0.84478 0.0
H134 H 0.89429 0.30494 0.71058 0.0
C135 C 0.04808 0.27765 0.8331 0.0
H136 H 0.9019 0.222 0.8149 0.0
C137 C 0.04327 0.32598 0.77568 0.0
C138 C 0.98857 0.33458 0.72776 0.0
H139 H 0.09234 0.26769 0.86119 0.0
H140 H 0.08411 0.3516 0.75943 0.0
C141 C 0.93659 0.29974 0.74837 0.0
C142 C 0.80872 0.04361 0.79339 0.0
C143 C 0.86476 0.02296 0.75696 0.0
H144 H 0.71634 0.06524 0.7611 0.0
C145 C 0.86769 0.99966 0.66164 0.0
H146 H 0.80541 0.06216 0.86677 0.0
C147 C 0.81679 0.99958 0.60251 0.0
C148 C 0.76203 0.02544 0.63574 0.0
H149 H 0.91012 0.9834 0.63169 0.0
H150 H 0.82133 0.98167 0.52901 0.0
C151 C 0.75776 0.0453 0.73297 0.0
loop_
_geom_bond_atom_site_label_1
_geom_bond_atom_site_label_2
_geom_bond_distance
_geom_bond_site_symmetry_2
_ccdc_geom_bond_type
Fe0 O1 1.886 . S
Fe0 O4 1.715 1_645 S
Fe0 O9 2.077 1_655 S
Fe0 O14 1.935 1_655 S
Fe0 O20 2.077 . S
Fe0 O29 1.935 1_545 S
O1 Fe0 1.886 . S
O1 Fe3 1.723 . S
Fe2 O4 1.880 1_556 S
Fe2 O5 1.721 . S
Fe2 O12 1.939 . S
Fe2 O13 2.072 1_556 S
Fe2 O19 1.939 . S
Fe2 O28 2.072 1_556 S
Fe3 O1 1.723 . S
Fe3 O6 1.878 1_554 S
Fe3 O10 1.941 . S
Fe3 O15 2.070 1_554 S
Fe3 O21 1.941 . S
Fe3 O25 2.070 1_554 S
O4 Fe0 1.715 1_465 S
O4 Fe2 1.880 1_554 S
O5 Fe2 1.721 . S
O5 Fe7 1.886 . S
O6 Fe3 1.878 1_556 S
O6 Fe7 1.715 1_645 S
Fe7 O5 1.886 . S
Fe7 O6 1.715 1_465 S
Fe7 O11 2.077 1_565 S
Fe7 O16 1.935 1_565 S
Fe7 O18 2.077 . S
Fe7 O26 1.935 1_455 S
C8 O20 1.381 . S
C8 O21 1.421 . S
O9 Fe0 2.077 1_455 S
O9 C22 1.376 1_455 S
O10 Fe3 1.941 . S
O10 C22 1.421 . S
O11 Fe7 2.077 1_545 S
O11 C27 1.376 1_545 S
O12 Fe2 1.939 . S
O12 C27 1.421 . S
O13 Fe2 2.072 1_554 S
O13 C17 1.381 . S
O14 Fe0 1.935 1_455 S
O14 C17 1.421 1_545 S
O15 Fe3 2.070 1_556 S
O15 C23 1.381 . S
O16 Fe7 1.935 1_545 S
O16 C23 1.421 1_455 S
C17 O13 1.381 . S
C17 O14 1.421 1_565 S
O18 Fe7 2.077 . S
O18 C30 1.381 . S
O19 Fe2 1.939 . S
O19 C30 1.421 . S
O20 Fe0 2.077 . S
O20 C8 1.381 . S
O21 Fe3 1.941 . S
O21 C8 1.421 . S
C22 O9 1.376 1_655 S
C22 O10 1.421 . S
C23 O15 1.381 . S
C23 O16 1.421 1_655 S
C24 O25 1.381 . S
C24 O26 1.421 1_545 S
O25 Fe3 2.070 1_556 S
O25 C24 1.381 . S
O26 Fe7 1.935 1_655 S
O26 C24 1.421 1_565 S
C27 O11 1.376 1_565 S
C27 O12 1.421 . S
O28 Fe2 2.072 1_554 S
O28 C31 1.381 . S
O29 Fe0 1.935 1_565 S
O29 C31 1.421 1_655 S
C30 O18 1.381 . S
C30 O19 1.421 . S
C31 O28 1.381 . S
C31 O29 1.421 1_455 S
H32 C40 0.940 . S
H33 C43 0.940 . S
H34 C45 0.940 . S
H35 C46 0.940 . S
H36 C49 0.940 . S
H37 C51 0.940 . S
N38 N39 1.190 . S
N38 C42 1.477 . S
N39 N38 1.190 . S
N39 C48 1.477 . S
C40 H32 0.940 . S
C40 C41 1.390 1_455 S
C40 C42 1.322 . S
C41 C40 1.390 1_655 S
C41 C45 1.370 . S
C42 N38 1.477 . S
C42 C40 1.322 . S
C42 C43 1.447 . S
C43 H33 0.940 . S
C43 C42 1.447 . S
C43 C44 1.373 . S
C44 C43 1.373 . S
C44 C45 1.417 1_455 S
C45 H34 0.940 . S
C45 C41 1.370 . S
C45 C44 1.417 1_655 S
C46 H35 0.940 . S
C46 C47 1.390 1_455 S
C46 C48 1.322 . S
C47 C46 1.390 1_655 S
C47 C51 1.370 . S
C48 N39 1.477 . S
C48 C46 1.322 . S
C48 C49 1.447 . S
C49 H36 0.940 . S
C49 C48 1.447 . S
C49 C50 1.373 . S
C50 C49 1.373 . S
C50 C51 1.417 1_455 S
C51 H37 0.940 . S
C51 C47 1.370 . S
C51 C50 1.417 1_655 S
H52 C60 0.940 . S
H53 C63 0.940 . S
H54 C65 0.940 . S
H55 C66 0.940 . S
H56 C69 0.940 . S
H57 C71 0.940 . S
N58 N59 1.190 . S
N58 C62 1.477 . S
N59 N58 1.190 . S
N59 C68 1.477 . S
C60 H52 0.940 . S
C60 C61 1.390 1_545 S
C60 C62 1.322 . S
C61 C60 1.390 1_565 S
C61 C65 1.370 . S
C62 N58 1.477 . S
C62 C60 1.322 . S
C62 C63 1.447 . S
C63 H53 0.940 . S
C63 C62 1.447 . S
C63 C64 1.373 . S
C64 C63 1.373 . S
C64 C65 1.417 1_545 S
C65 H54 0.940 . S
C65 C61 1.370 . S
C65 C64 1.417 1_565 S
C66 H55 0.940 . S
C66 C67 1.390 1_545 S
C66 C68 1.322 . S
C67 C66 1.390 1_565 S
C67 C71 1.370 . S
C68 N59 1.477 . S
C68 C66 1.322 . S
C68 C69 1.447 . S
C69 H56 0.940 . S
C69 C68 1.447 . S
C69 C70 1.373 . S
C70 C69 1.373 . S
C70 C71 1.417 1_545 S
C71 H57 0.940 . S
C71 C67 1.370 . S
C71 C70 1.417 1_565 S
C72 C73 1.387 1_455 S
C72 H76 0.950 . S
C72 C81 1.390 . S
C73 C72 1.387 1_655 S
C73 C75 1.387 . S
H74 C81 0.950 . S
C75 C73 1.387 . S
C75 C77 1.390 . S
C75 H79 0.950 . S
H76 C72 0.950 . S
C77 C75 1.390 . S
C77 C78 1.387 . S
C77 H80 0.950 . S
C78 C77 1.387 . S
C78 C81 1.387 1_655 S
H79 C75 0.950 . S
H80 C77 0.950 . S
C81 C72 1.390 . S
C81 H74 0.950 . S
C81 C78 1.387 1_455 S
C82 C83 1.400 . S
C82 H86 0.950 . S
C82 C91 1.390 . S
C83 C82 1.400 . S
C83 C85 1.375 1_545 S
H84 C91 0.950 . S
C85 C83 1.375 1_565 S
C85 C87 1.390 . S
C85 H89 0.950 . S
H86 C82 0.950 . S
C87 C85 1.390 . S
C87 C88 1.387 . S
C87 H90 0.950 . S
C88 C87 1.387 . S
C88 C91 1.387 1_565 S
H89 C85 0.950 . S
H90 C87 0.950 . S
C91 C82 1.390 . S
C91 H84 0.950 . S
C91 C88 1.387 1_545 S
C92 C93 1.392 . S
C92 H96 0.950 . S
C92 C101 1.390 . S
C93 C92 1.392 . S
C93 C95 1.383 1_455 S
H94 C101 0.950 . S
C95 C93 1.383 1_655 S
C95 C97 1.390 . S
C95 H99 0.950 . S
H96 C92 0.950 . S
C97 C95 1.390 . S
C97 C98 1.387 1_655 S
C97 H100 0.950 . S
C98 C97 1.387 1_455 S
C98 C101 1.387 . S
H99 C95 0.950 . S
H100 C97 0.950 . S
C101 C92 1.390 . S
C101 H94 0.950 . S
C101 C98 1.387 . S
C102 C103 1.387 1_565 S
C102 H106 0.950 . S
C102 C111 1.390 . S
C103 C102 1.387 1_545 S
C103 C105 1.387 . S
H104 C111 0.950 . S
C105 C103 1.387 . S
C105 C107 1.390 . S
C105 H109 0.950 . S
H106 C102 0.950 . S
C107 C105 1.390 . S
C107 C108 1.387 . S
C107 H110 0.950 . S
C108 C107 1.387 . S
C108 C111 1.387 1_545 S
H109 C105 0.950 . S
H110 C107 0.950 . S
C111 C102 1.390 . S
C111 H104 0.950 . S
C111 C108 1.387 1_565 S
C112 C113 1.400 . S
C112 H116 0.950 . S
C112 C121 1.390 . S
C113 C112 1.400 . S
C113 C115 1.375 1_455 S
H114 C121 0.950 . S
C115 C113 1.375 1_655 S
C115 C117 1.390 . S
C115 H119 0.950 . S
H116 C112 0.950 . S
C117 C115 1.390 . S
C117 C118 1.387 . S
C117 H120 0.950 . S
C118 C117 1.387 . S
C118 C121 1.387 1_655 S
H119 C115 0.950 . S
H120 C117 0.950 . S
C121 C112 1.390 . S
C121 H114 0.950 . S
C121 C118 1.387 1_455 S
C122 C123 1.387 . S
C122 H126 0.950 . S
C122 C131 1.390 . S
C123 C122 1.387 . S
C123 C125 1.387 1_565 S
H124 C131 0.950 . S
C125 C123 1.387 1_545 S
C125 C127 1.390 . S
C125 H129 0.950 . S
H126 C122 0.950 . S
C127 C125 1.390 . S
C127 C128 1.387 1_545 S
C127 H130 0.950 . S
C128 C127 1.387 1_565 S
C128 C131 1.387 . S
H129 C125 0.950 . S
H130 C127 0.950 . S
C131 C122 1.390 . S
C131 H124 0.950 . S
C131 C128 1.387 . S
C132 C133 1.387 1_655 S
C132 H136 0.950 . S
C132 C141 1.390 . S
C133 C132 1.387 1_455 S
C133 C135 1.387 . S
H134 C141 0.950 . S
C135 C133 1.387 . S
C135 C137 1.390 . S
C135 H139 0.950 . S
H136 C132 0.950 . S
C137 C135 1.390 . S
C137 C138 1.387 . S
C137 H140 0.950 . S
C138 C137 1.387 . S
C138 C141 1.387 1_455 S
H139 C135 0.950 . S
H140 C137 0.950 . S
C141 C132 1.390 . S
C141 H134 0.950 . S
C141 C138 1.387 1_655 S
C142 C143 1.393 . S
C142 H146 0.950 . S
C142 C151 1.390 . S
C143 C142 1.393 . S
C143 C145 1.382 1_545 S
H144 C151 0.950 . S
C145 C143 1.382 1_565 S
C145 C147 1.390 . S
C145 H149 0.950 . S
H146 C142 0.950 . S
C147 C145 1.390 . S
C147 C148 1.387 1_565 S
C147 H150 0.950 . S
C148 C147 1.387 1_545 S
C148 C151 1.387 . S
H149 C145 0.950 . S
H150 C147 0.950 . S
C151 C142 1.390 . S
C151 H144 0.950 . S
C151 C148 1.387 . S
C73 C22 1.553 . S
C78 C41 1.532 . S
C83 C8 1.570 . S
C88 C61 1.532 . S
C93 C31 1.520 . S
C98 C50 1.545 . S
C103 C17 1.526 1_545 S
C108 C70 1.546 . S
C113 C30 1.570 . S
C118 C47 1.534 . S
C123 C27 1.554 . S
C128 C67 1.531 . S
C138 C44 1.547 . S
C133 C23 1.527 1_455 S
C143 C24 1.520 . S
C148 C64 1.547 . S
