# Generated by pormake.
# Topology pts, (4,4)-cn, num edge types: 1
# Building blocks:
#     Node 0, Type 0, BuildingBlock: MIFKUJ_clean_linker_1, # of connection points: 4
#     Node 1, Type 0, BuildingBlock: MIFKUJ_clean_linker_1, # of connection points: 4
#     Node 2, Type 1, BuildingBlock: AZAVOO_clean_sbu_0, # of connection points: 4
#     Node 3, Type 1, BuildingBlock: AZAVOO_clean_sbu_0, # of connection points: 4
#     Edge 4, Type (0, 1), None
#     Edge 5, Type (0, 1), None
#     Edge 6, Type (0, 1), None
#     Edge 7, Type (0, 1), None
#     Edge 8, Type (0, 1), None
#     Edge 9, Type (0, 1), None
#     Edge 10, Type (0, 1), None
#     Edge 11, Type (0, 1), None
# Relax obj value: 0.003
# Max RMSD: 0.038
# Mean RMSD: 0.029
data_MOF--net-pts--node1-AZAVOO_clean_sbu_0--node2-MIFKUJ_clean_linker_1--edge1-none
_symmetry_space_group_name_H-M    P1
_symmetry_Int_Tables_number       1
_symmetry_cell_setting            triclinic
loop_
_symmetry_equiv_pos_as_xyz
'x, y, z'
_cell_length_a     16.352637
_cell_length_b     17.47461
_cell_length_c     21.19932
_cell_angle_alpha  90.488047
_cell_angle_beta   97.836725
_cell_angle_gamma 90.757533
loop_
_atom_site_label
_atom_site_type_symbol
_atom_site_fract_x
_atom_site_fract_y
_atom_site_fract_z
_atom_type_partial_charge
H0 H 0.63134 0.87654 0.16301 0.0
H1 H 0.74951 0.86411 0.2456 0.0
H2 H 0.86891 0.0572 0.16891 0.0
H3 H 0.74786 0.07275 0.08799 0.0
H4 H 0.53111 -0.0158 0.15392 0.0
H5 H 0.71105 0.88296 1.01527 0.0
H6 H 0.83038 0.87257 0.95852 0.0
H7 H 0.77317 0.09119 0.87055 0.0
H8 H 0.65441 0.10202 0.92902 0.0
H9 H 0.40042 0.09846 0.90067 0.0
H10 H 0.28067 0.08596 0.81841 0.0
H11 H 0.19277 0.89175 0.91511 0.0
H12 H 0.31572 0.90018 0.99503 0.0
H13 H 0.51921 0.00969 0.92059 0.0
H14 H 0.33083 0.09866 0.08083 0.0
H15 H 0.22816 0.08829 0.15571 0.0
H16 H 0.30977 0.85854 0.20118 0.0
H17 H 0.41025 0.8692 0.1273 0.0
C18 C 0.68009 -0.02397 0.11941 0.0
C19 C 0.6829 0.91626 0.1636 0.0
C20 C 0.75052 0.90887 0.21063 0.0
C21 C 0.81784 0.9598 0.2135 0.0
C22 C 0.81775 0.01686 0.16717 0.0
C23 C 0.74876 0.02563 0.12091 0.0
C24 C 0.60228 -0.01113 0.07586 0.0
C25 C 0.52858 -0.01058 0.10269 0.0
C26 C 0.59903 -0.00201 1.00933 0.0
C27 C 0.67404 -0.00638 0.97696 0.0
C28 C 0.72507 0.92948 0.98485 0.0
C29 C 0.79336 0.92357 0.95214 0.0
C30 C 0.81157 -0.01886 0.90995 0.0
C31 C 0.76118 0.04598 0.90284 0.0
C32 C 0.69298 0.05204 0.93594 0.0
C33 C 0.36742 0.00095 0.95495 0.0
C34 C 0.35529 0.05347 0.90481 0.0
C35 C 0.28676 0.04657 0.85793 0.0
C36 C 0.22771 -0.01174 0.86102 0.0
C37 C 0.23703 0.93792 0.91253 0.0
C38 C 0.30707 0.94337 0.95857 0.0
C39 C 0.4471 0.0018 0.99859 0.0
C40 C 0.52158 0.00561 0.97183 0.0
C41 C 0.45133 -0.00607 0.06528 0.0
C42 C 0.37818 -0.01527 0.09885 0.0
C43 C 0.32472 0.04559 0.1059 0.0
C44 C 0.26658 0.03974 0.14883 0.0
C45 C 0.26218 -0.02678 0.18528 0.0
C46 C 0.31254 0.91114 0.17483 0.0
C47 C 0.36974 0.91686 0.13221 0.0
H48 H 0.12199 0.36196 0.42308 0.0
H49 H 0.1176 0.23245 0.37682 0.0
H50 H 0.88924 0.18669 0.45221 0.0
H51 H 0.89392 0.31545 0.49732 0.0
H52 H 0.01538 0.48933 0.41804 0.0
H53 H 0.1464 0.31828 0.57037 0.0
H54 H 0.15206 0.19022 0.61463 0.0
H55 H 0.92475 0.23009 0.69207 0.0
H56 H 0.91926 0.35903 0.64647 0.0
H57 H 0.91657 0.5928 0.65355 0.0
H58 H 0.90522 0.71148 0.71255 0.0
H59 H 0.11169 0.80747 0.6314 0.0
H60 H 0.12594 0.68655 0.57494 0.0
H61 H 0.02726 0.48889 0.65333 0.0
H62 H 0.92117 0.6858 0.5002 0.0
H63 H 0.93694 0.80639 0.44495 0.0
H64 H 0.1412 0.71251 0.36187 0.0
H65 H 0.12842 0.59406 0.41976 0.0
C66 C 0.00894 0.34763 0.46439 0.0
C67 C 0.07015 0.32437 0.4282 0.0
C68 C 0.06764 0.25035 0.40198 0.0
C69 C 0.00383 0.1988 0.41175 0.0
C70 C 0.93997 0.22442 0.44454 0.0
C71 C 0.94236 0.29812 0.47031 0.0
C72 C 0.01795 0.42022 0.50146 0.0
C73 C 0.01874 0.48983 0.46951 0.0
C74 C 0.02307 0.42009 0.56856 0.0
C75 C 0.03179 0.34752 0.6043 0.0
C76 C 0.09824 0.29977 0.59746 0.0
C77 C 0.10119 0.22644 0.62274 0.0
C78 C 0.03809 0.19942 0.65609 0.0
C79 C 0.97411 0.24913 0.66645 0.0
C80 C 0.97099 0.32279 0.64063 0.0
C81 C 0.02088 0.63113 0.60853 0.0
C82 C 0.96053 0.63877 0.64928 0.0
C83 C 0.95411 0.70672 0.68307 0.0
C84 C 0.00703 0.76907 0.67608 0.0
C85 C 0.06944 0.76072 0.63716 0.0
C86 C 0.07726 0.69177 0.60454 0.0
C87 C 0.02268 0.55986 0.56999 0.0
C88 C 0.02379 0.48957 0.60186 0.0
C89 C 0.02157 0.55999 0.50275 0.0
C90 C 0.025 0.6314 0.46555 0.0
C91 C 0.96981 0.69144 0.47055 0.0
C92 C 0.97854 0.76025 0.43865 0.0
C93 C 0.0406 0.76902 0.39937 0.0
C94 C 0.09259 0.70736 0.39163 0.0
C95 C 0.08533 0.63957 0.42476 0.0
Mg96 Mg 0.08345 -0.02648 0.3244 0.0
O97 O 0.95841 0.96935 0.25993 0.0
O98 O 0.86197 0.94627 0.32322 0.0
Mg99 Mg 0.92187 0.94378 0.42669 0.0
C100 C 0.88344 0.95751 0.26833 0.0
C101 C 0.21012 0.96784 0.23698 0.0
O102 O 0.22659 0.91538 0.28069 0.0
O103 O 0.05629 0.09519 0.35531 0.0
O104 O 0.96089 0.06978 0.4188 0.0
O105 O 0.0939 0.84622 0.32025 0.0
O106 O 0.03592 0.90685 0.39373 0.0
C107 C 0.00641 0.11707 0.39313 0.0
C108 C 0.05573 0.84303 0.36964 0.0
O109 O 0.14971 0.01193 0.24098 0.0
Mg110 Mg 0.96252 -0.0254 0.74801 0.0
O111 O 0.08642 -0.02367 0.81579 0.0
O112 O 0.18468 0.96815 0.75182 0.0
Mg113 Mg 0.1275 0.94834 0.64864 0.0
C114 C 0.16227 -0.024 0.80685 0.0
C115 C 0.87788 -0.03044 0.86962 0.0
O116 O 0.91828 0.90493 0.87269 0.0
O117 O 0.98992 0.09594 0.71529 0.0
O118 O 0.08338 0.07206 0.65002 0.0
O119 O 0.94971 0.84755 0.75273 0.0
O120 O 0.01468 0.90706 0.68258 0.0
C121 C 0.03734 0.11827 0.67561 0.0
C122 C 0.99183 0.84354 0.70547 0.0
O123 O 0.88869 0.01651 0.82582 0.0
loop_
_geom_bond_atom_site_label_1
_geom_bond_atom_site_label_2
_geom_bond_distance
_geom_bond_site_symmetry_2
_ccdc_geom_bond_type
H0 C19 0.949 . S
H1 C20 0.950 . S
H2 C22 0.950 . S
H3 C23 0.950 . S
H4 C25 0.950 . S
H5 C28 0.950 . S
H6 C29 0.950 . S
H7 C31 0.951 . S
H8 C32 0.949 . S
H9 C34 0.949 . S
H10 C35 0.950 . S
H11 C37 0.950 . S
H12 C38 0.950 . S
H13 C40 0.950 . S
H14 C43 0.950 . S
H15 C44 0.950 . S
H16 C46 0.951 . S
H17 C47 0.949 . S
C18 C19 1.376 . S
C18 C23 1.386 1_565 S
C18 C24 1.483 . S
C19 H0 0.949 . S
C19 C18 1.376 . S
C19 C20 1.397 . S
C20 H1 0.950 . S
C20 C19 1.397 . S
C20 C21 1.387 1_565 S
C21 C20 1.387 1_545 S
C21 C22 1.409 . S
C22 H2 0.950 . S
C22 C21 1.409 . S
C22 C23 1.367 . S
C23 H3 0.950 . S
C23 C18 1.386 1_545 S
C23 C22 1.367 . S
C24 C18 1.483 . S
C24 C25 1.382 . S
C24 C26 1.403 1_564 S
C25 H4 0.950 . S
C25 C24 1.382 . S
C25 C41 1.411 . S
C26 C24 1.403 1_546 S
C26 C27 1.489 . S
C26 C40 1.411 . S
C27 C26 1.489 . S
C27 C28 1.383 1_545 S
C27 C32 1.382 . S
C28 H5 0.950 . S
C28 C27 1.383 1_565 S
C28 C29 1.395 . S
C29 H6 0.950 . S
C29 C28 1.395 . S
C29 C30 1.288 1_565 S
C30 C29 1.288 1_545 S
C30 C31 1.392 . S
C31 H7 0.951 . S
C31 C30 1.392 . S
C31 C32 1.392 . S
C32 H8 0.949 . S
C32 C27 1.382 . S
C32 C31 1.392 . S
C33 C34 1.376 . S
C33 C38 1.386 1_545 S
C33 C39 1.483 . S
C34 H9 0.949 . S
C34 C33 1.376 . S
C34 C35 1.397 . S
C35 H10 0.950 . S
C35 C34 1.397 . S
C35 C36 1.391 . S
C36 C35 1.391 . S
C36 C37 1.405 1_545 S
C37 H11 0.950 . S
C37 C36 1.405 1_565 S
C37 C38 1.367 . S
C38 H12 0.950 . S
C38 C33 1.386 1_565 S
C38 C37 1.367 . S
C39 C33 1.483 . S
C39 C40 1.382 . S
C39 C41 1.403 1_546 S
C40 H13 0.950 . S
C40 C26 1.411 . S
C40 C39 1.382 . S
C41 C25 1.411 . S
C41 C39 1.403 1_564 S
C41 C42 1.489 . S
C42 C41 1.489 . S
C42 C43 1.383 1_565 S
C42 C47 1.382 . S
C43 H14 0.950 . S
C43 C42 1.383 1_545 S
C43 C44 1.395 . S
C44 H15 0.950 . S
C44 C43 1.395 . S
C44 C45 1.288 1_545 S
C45 C44 1.288 1_565 S
C45 C46 1.392 . S
C46 H16 0.951 . S
C46 C45 1.392 . S
C46 C47 1.392 . S
C47 H17 0.949 . S
C47 C42 1.382 . S
C47 C46 1.392 . S
H48 C67 0.949 . S
H49 C68 0.950 . S
H50 C70 0.950 . S
H51 C71 0.950 . S
H52 C73 0.950 . S
H53 C76 0.950 . S
H54 C77 0.950 . S
H55 C79 0.951 . S
H56 C80 0.949 . S
H57 C82 0.949 . S
H58 C83 0.950 . S
H59 C85 0.950 . S
H60 C86 0.950 . S
H61 C88 0.948 1_655 S
H62 C91 0.950 . S
H63 C92 0.950 . S
H64 C94 0.951 . S
H65 C95 0.949 . S
C66 C67 1.376 . S
C66 C71 1.386 1_455 S
C66 C72 1.483 . S
C67 H48 0.949 . S
C67 C66 1.376 . S
C67 C68 1.397 . S
C68 H49 0.950 . S
C68 C67 1.397 . S
C68 C69 1.391 . S
C69 C68 1.391 . S
C69 C70 1.405 1_455 S
C70 H50 0.950 . S
C70 C69 1.405 1_655 S
C70 C71 1.367 . S
C71 H51 0.950 . S
C71 C66 1.386 1_655 S
C71 C70 1.367 . S
C72 C66 1.483 . S
C72 C73 1.382 . S
C72 C74 1.403 . S
C73 H52 0.950 . S
C73 C72 1.382 . S
C73 C89 1.411 . S
C74 C72 1.403 . S
C74 C75 1.489 . S
C74 C88 1.411 . S
C75 C74 1.489 . S
C75 C76 1.383 . S
C75 C80 1.382 1_455 S
C76 H53 0.950 . S
C76 C75 1.383 . S
C76 C77 1.395 . S
C77 H54 0.950 . S
C77 C76 1.395 . S
C77 C78 1.288 . S
C78 C77 1.288 . S
C78 C79 1.392 1_455 S
C79 H55 0.951 . S
C79 C78 1.392 1_655 S
C79 C80 1.392 . S
C80 H56 0.949 . S
C80 C75 1.382 1_655 S
C80 C79 1.392 . S
C81 C82 1.376 1_455 S
C81 C86 1.386 . S
C81 C87 1.483 . S
C82 H57 0.949 . S
C82 C81 1.376 1_655 S
C82 C83 1.397 . S
C83 H58 0.950 . S
C83 C82 1.397 . S
C83 C84 1.391 1_655 S
C84 C83 1.391 1_455 S
C84 C85 1.405 . S
C85 H59 0.950 . S
C85 C84 1.405 . S
C85 C86 1.367 . S
C86 H60 0.950 . S
C86 C81 1.386 . S
C86 C85 1.367 . S
C87 C81 1.483 . S
C87 C88 1.382 . S
C87 C89 1.403 . S
C88 H61 0.948 1_455 S
C88 C74 1.411 . S
C88 C87 1.382 . S
C89 C73 1.411 . S
C89 C87 1.403 . S
C89 C90 1.489 . S
C90 C89 1.489 . S
C90 C91 1.383 1_455 S
C90 C95 1.382 . S
C91 H62 0.950 . S
C91 C90 1.383 1_655 S
C91 C92 1.395 . S
C92 H63 0.950 . S
C92 C91 1.395 . S
C92 C93 1.288 1_655 S
C93 C92 1.288 1_455 S
C93 C94 1.392 . S
C94 H64 0.951 . S
C94 C93 1.392 . S
C94 C95 1.392 . S
C95 H65 0.949 . S
C95 C90 1.382 . S
C95 C94 1.392 . S
Mg96 O97 2.028 1_455 S
Mg96 O103 1.986 . S
Mg96 O105 2.114 1_545 S
Mg96 O106 2.251 1_545 S
Mg96 O109 2.010 . S
O97 Mg96 2.028 1_655 S
O97 C100 1.250 . S
O98 Mg99 2.028 . S
O98 C100 1.248 . S
Mg99 O98 2.028 . S
Mg99 O104 2.032 . S
Mg99 O106 2.079 1_645 S
C100 O97 1.250 . S
C100 O98 1.248 . S
C101 O102 1.264 . S
C101 O109 1.249 . S
O102 C101 1.264 . S
O103 Mg96 1.986 . S
O103 C107 1.246 . S
O104 Mg99 2.032 . S
O104 C107 1.259 1_655 S
O105 Mg96 2.114 1_565 S
O105 C108 1.252 . S
O106 Mg96 2.251 1_565 S
O106 Mg99 2.079 1_465 S
O106 C108 1.273 . S
C107 O103 1.246 . S
C107 O104 1.259 1_455 S
C108 O105 1.252 . S
C108 O106 1.273 . S
O109 Mg96 2.010 . S
O109 C101 1.249 . S
Mg110 O111 2.028 1_655 S
Mg110 O117 1.986 . S
Mg110 O119 2.114 1_545 S
Mg110 O120 2.251 1_645 S
Mg110 O123 2.010 . S
O111 Mg110 2.028 1_455 S
O111 C114 1.250 . S
O112 Mg113 2.028 . S
O112 C114 1.248 . S
Mg113 O112 2.028 . S
Mg113 O118 2.032 . S
Mg113 O120 2.079 1_545 S
C114 O111 1.250 . S
C114 O112 1.248 . S
C115 O116 1.264 . S
C115 O123 1.249 . S
O116 C115 1.264 . S
O117 Mg110 1.986 . S
O117 C121 1.246 1_655 S
O118 Mg113 2.032 . S
O118 C121 1.259 . S
O119 Mg110 2.114 1_565 S
O119 C122 1.252 1_655 S
O120 Mg110 2.251 1_465 S
O120 Mg113 2.079 1_565 S
O120 C122 1.273 . S
C121 O117 1.246 1_455 S
C121 O118 1.259 . S
C122 O119 1.252 1_455 S
C122 O120 1.273 . S
O123 Mg110 2.010 . S
O123 C115 1.249 . S
C101 C45 1.288 1_545 S
C121 C78 1.499 . S
C100 C21 1.515 . S
C122 C84 1.536 . S
C114 C36 1.505 . S
C107 C69 1.486 . S
C115 C30 1.257 . S
C93 C108 1.528 . S
