# Generated by pormake.
# Topology pth, (4,4)-cn, num edge types: 1
# Building blocks:
#     Node 0, Type 0, BuildingBlock: CEKHIL_clean_sbu_0, # of connection points: 4
#     Node 1, Type 0, BuildingBlock: CEKHIL_clean_sbu_0, # of connection points: 4
#     Node 2, Type 0, BuildingBlock: CEKHIL_clean_sbu_0, # of connection points: 4
#     Node 3, Type 1, BuildingBlock: MIFKUJ_clean_linker_1, # of connection points: 4
#     Node 4, Type 1, BuildingBlock: MIFKUJ_clean_linker_1, # of connection points: 4
#     Node 5, Type 1, BuildingBlock: MIFKUJ_clean_linker_1, # of connection points: 4
#     Edge 6, Type (0, 1), None
#     Edge 7, Type (0, 1), None
#     Edge 8, Type (0, 1), None
#     Edge 9, Type (0, 1), None
#     Edge 10, Type (0, 1), None
#     Edge 11, Type (0, 1), None
#     Edge 12, Type (0, 1), None
#     Edge 13, Type (0, 1), None
#     Edge 14, Type (0, 1), None
#     Edge 15, Type (0, 1), None
#     Edge 16, Type (0, 1), None
#     Edge 17, Type (0, 1), None
# Relax obj value: 0.014
# Max RMSD: 0.064
# Mean RMSD: 0.054
data_MOF--net-pth--node1-CEKHIL_clean_sbu_0--node2-MIFKUJ_clean_linker_1--edge1-none
_symmetry_space_group_name_H-M    P1
_symmetry_Int_Tables_number       1
_symmetry_cell_setting            triclinic
loop_
_symmetry_equiv_pos_as_xyz
'x, y, z'
_cell_length_a     15.729957
_cell_length_b     15.800241
_cell_length_c     33.934904
_cell_angle_alpha  91.068098
_cell_angle_beta   90.261817
_cell_angle_gamma 120.29214
loop_
_atom_site_label
_atom_site_type_symbol
_atom_site_fract_x
_atom_site_fract_y
_atom_site_fract_z
_atom_type_partial_charge
Co0 Co 0.03925 0.0401 0.06957 0.0
O1 O 0.97553 0.94113 0.10839 0.0
O2 O 0.10235 0.96189 0.07319 0.0
C3 C 0.04944 0.16274 0.10836 0.0
O4 O 0.12598 0.13731 0.02797 0.0
Co5 Co 0.93644 0.14946 0.03767 0.0
O6 O 0.06733 0.238 1.01533 0.0
C7 C 0.87166 0.94783 1.00894 0.0
C8 C 0.04005 0.91525 0.10096 0.0
C9 C 0.13254 0.2133 1.01151 0.0
O10 O 0.94438 0.94935 0.02725 0.0
O11 O 0.85162 0.0168 1.01212 0.0
O12 O 0.11521 0.13654 0.11125 0.0
O13 O 0.97682 0.11006 0.08436 0.0
Co14 Co 0.01945 0.04099 0.37343 0.0
O15 O 0.9584 0.07839 0.33349 0.0
O16 O 0.08321 0.18277 0.37175 0.0
C17 C 0.03246 0.9306 0.33456 0.0
O18 O 0.10439 0.02874 0.41637 0.0
Co19 Co 0.91437 0.82723 0.40251 0.0
O20 O 0.03958 0.86986 0.43136 0.0
C21 C 0.84873 0.96258 0.43095 0.0
C22 C 0.02303 0.1686 0.34256 0.0
C23 C 0.10685 0.95956 0.43506 0.0
O24 O 0.92194 0.03463 0.41391 0.0
O25 O 0.82914 0.87372 0.4271 0.0
O26 O 0.0979 0.02312 0.33331 0.0
O27 O 0.95799 0.90887 0.35677 0.0
Co28 Co 0.01988 0.03573 0.70824 0.0
O29 O 0.11778 0.10166 0.66891 0.0
O30 O 0.09804 0.97313 0.70146 0.0
C31 C 0.8961 0.02904 0.67166 0.0
O32 O 0.92357 0.94561 0.74964 0.0
Co33 Co 0.91315 0.13494 0.74574 0.0
O34 O 0.82765 0.00572 0.76914 0.0
C35 C 0.11583 0.19669 0.77204 0.0
C36 C 0.1444 0.03741 0.67446 0.0
C37 C 0.85081 0.93924 0.76947 0.0
O38 O 0.11383 0.12748 0.75065 0.0
O39 O 0.04568 0.21561 0.77203 0.0
O40 O 0.92138 0.963 0.66706 0.0
O41 O 0.94977 0.0999 0.69633 0.0
H42 H 0.18948 0.40647 0.20649 0.0
H43 H 0.18452 0.27369 0.16603 0.0
H44 H 0.92441 0.23425 0.1053 0.0
H45 H 0.92943 0.36596 0.14581 0.0
H46 H 0.0684 0.55329 0.14917 0.0
H47 H 0.18031 0.49492 0.30546 0.0
H48 H 0.16238 0.36405 0.34841 0.0
H49 H 0.90399 0.15578 0.28131 0.0
H50 H 0.92137 0.28671 0.23908 0.0
H51 H 0.91894 0.609 0.29376 0.0
H52 H 0.90781 0.73305 0.33371 0.0
H53 H 0.17454 0.95916 0.28157 0.0
H54 H 0.18571 0.83413 0.24177 0.0
H55 H 0.05759 0.56153 0.29505 0.0
H56 H 0.92421 0.68724 0.20033 0.0
H57 H 0.91312 0.80429 0.1579 0.0
H58 H 0.17955 0.85973 0.09966 0.0
H59 H 0.1913 0.74338 0.14292 0.0
C60 C 0.05949 0.39562 0.17932 0.0
C61 C 0.13107 0.36858 0.18467 0.0
C62 C 0.12855 0.29333 0.16133 0.0
C63 C 0.05433 0.24401 0.13237 0.0
C64 C 0.98271 0.27109 0.12724 0.0
C65 C 0.98544 0.34627 0.15042 0.0
C66 C 0.06352 0.47837 0.20221 0.0
C67 C 0.06686 0.55561 0.18113 0.0
C68 C 0.06144 0.48101 0.24393 0.0
C69 C 0.05337 0.40039 0.26849 0.0
C70 C 0.1199 0.42093 0.30001 0.0
C71 C 0.10929 0.34625 0.32468 0.0
C72 C 0.03166 0.24961 0.31837 0.0
C73 C 0.9647 0.22946 0.28701 0.0
C74 C 0.9752 0.30409 0.26246 0.0
C75 C 0.05285 0.71239 0.26462 0.0
C76 C 0.9751 0.68532 0.29094 0.0
C77 C 0.96883 0.75624 0.31378 0.0
C78 C 0.04048 0.8557 0.31087 0.0
C79 C 0.11836 0.88293 0.2845 0.0
C80 C 0.12451 0.81177 0.26154 0.0
C81 C 0.0603 0.63536 0.24196 0.0
C82 C 0.06075 0.56004 0.26312 0.0
C83 C 0.06445 0.63376 0.20028 0.0
C84 C 0.05976 0.70798 0.17549 0.0
C85 C 0.98114 0.72559 0.17889 0.0
C86 C 0.97431 0.79179 0.15422 0.0
C87 C 0.0454 0.84114 0.12528 0.0
C88 C 0.12341 0.82255 0.1215 0.0
C89 C 0.13042 0.75648 0.14635 0.0
H90 H 0.76161 0.16832 0.49838 0.0
H91 H 0.86926 0.14059 0.45421 0.0
H92 H 0.68195 0.82767 0.46755 0.0
H93 H 0.57556 0.85655 0.51065 0.0
H94 H 0.50968 0.02494 0.48097 0.0
H95 H 0.7329 0.18014 0.62076 0.0
H96 H 0.85703 0.17761 0.66368 0.0
H97 H 0.7619 0.88179 0.62306 0.0
H98 H 0.63611 0.88399 0.58107 0.0
H99 H 0.33861 0.90751 0.63434 0.0
H100 H 0.21482 0.91034 0.67699 0.0
H101 H 0.24575 0.16094 0.61523 0.0
H102 H 0.36981 0.15833 0.57312 0.0
H103 H 0.52541 0.03882 0.62709 0.0
H104 H 0.2489 0.88119 0.53776 0.0
H105 H 0.10953 0.85054 0.49579 0.0
H106 H 0.29297 0.12171 0.43615 0.0
H107 H 0.43314 0.15156 0.47839 0.0
C108 C 0.66216 0.01443 0.50838 0.0
C109 C 0.74493 0.09404 0.49194 0.0
C110 C 0.80584 0.07795 0.46654 0.0
C111 C 0.78458 0.98186 0.45722 0.0
C112 C 0.70119 0.90272 0.47395 0.0
C113 C 0.6404 0.91892 0.49892 0.0
C114 C 0.59215 0.02886 0.53242 0.0
C115 C 0.51389 0.02998 0.51293 0.0
C116 C 0.59663 0.03283 0.57404 0.0
C117 C 0.67731 0.03336 0.59684 0.0
C118 C 0.73949 0.11511 0.62087 0.0
C119 C 0.80972 0.11323 0.64562 0.0
C120 C 0.81907 0.02945 0.64673 0.0
C121 C 0.75672 0.94757 0.62265 0.0
C122 C 0.68583 0.94924 0.59816 0.0
C123 C 0.36287 0.03219 0.60025 0.0
C124 C 0.31862 0.96307 0.63003 0.0
C125 C 0.24804 0.96479 0.65444 0.0
C126 C 0.22078 0.03602 0.64962 0.0
C127 C 0.26522 0.10512 0.61979 0.0
C128 C 0.33561 0.10328 0.5954 0.0
C129 C 0.4412 0.03284 0.57578 0.0
C130 C 0.52172 0.0358 0.59511 0.0
C131 C 0.43772 0.03097 0.53401 0.0
C132 C 0.35117 0.01894 0.51142 0.0
C133 C 0.25881 0.93489 0.51613 0.0
C134 C 0.17938 0.91715 0.49182 0.0
C135 C 0.19032 0.98341 0.46236 0.0
C136 C 0.28212 0.06939 0.45856 0.0
C137 C 0.36217 0.08646 0.48264 0.0
H138 H 0.43876 0.31103 0.81575 0.0
H139 H 0.29468 0.20417 0.77387 0.0
H140 H 0.13374 0.32775 0.82975 0.0
H141 H 0.2772 0.43373 0.8708 0.0
H142 H 0.53421 0.52043 0.8166 0.0
H143 H 0.38468 0.26299 0.92567 0.0
H144 H 0.24882 0.15974 0.96985 0.0
H145 H 0.20658 0.40508 0.99507 0.0
H146 H 0.34203 0.50693 0.95191 0.0
H147 H 0.57626 0.74789 0.94238 0.0
H148 H 0.68395 0.88788 0.98512 0.0
H149 H 0.91451 0.81674 0.9728 0.0
H150 H 0.80571 0.67691 0.92899 0.0
H151 H 0.53761 0.54474 0.96253 0.0
H152 H 0.61559 0.77899 0.8649 0.0
H153 H 0.71425 0.91794 0.82362 0.0
H154 H 0.85465 0.76644 0.77354 0.0
H155 H 0.75438 0.62625 0.81577 0.0
C156 C 0.36806 0.37879 0.84701 0.0
C157 C 0.37176 0.31377 0.81923 0.0
C158 C 0.28944 0.25299 0.79527 0.0
C159 C 0.20249 0.25743 0.79828 0.0
C160 C 0.19923 0.32223 0.82645 0.0
C161 C 0.28103 0.38224 0.8504 0.0
C162 C 0.4574 0.45075 0.86959 0.0
C163 C 0.537 0.52361 0.84858 0.0
C164 C 0.45827 0.45833 0.91124 0.0
C165 C 0.37278 0.39226 0.93541 0.0
C166 C 0.34559 0.2939 0.9407 0.0
C167 C 0.2688 0.23548 0.96618 0.0
C168 C 0.21729 0.27442 0.98609 0.0
C169 C 0.24453 0.3727 0.98021 0.0
C170 C 0.32183 0.43104 0.95547 0.0
C171 C 0.68374 0.70327 0.93218 0.0
C172 C 0.65055 0.76343 0.94842 0.0
C173 C 0.71213 0.84313 0.97297 0.0
C174 C 0.80769 0.86316 0.98254 0.0
C175 C 0.84102 0.80271 0.96619 0.0
C176 C 0.77954 0.72357 0.94091 0.0
C177 C 0.61345 0.61383 0.90962 0.0
C178 C 0.53791 0.53808 0.93063 0.0
C179 C 0.61314 0.60725 0.86801 0.0
C180 C 0.67921 0.69317 0.84415 0.0
C181 C 0.66886 0.7762 0.84563 0.0
C182 C 0.72484 0.8554 0.82152 0.0
C183 C 0.7927 0.85373 0.79503 0.0
C184 C 0.80338 0.7704 0.79361 0.0
C185 C 0.7464 0.69039 0.81777 0.0
loop_
_geom_bond_atom_site_label_1
_geom_bond_atom_site_label_2
_geom_bond_distance
_geom_bond_site_symmetry_2
_ccdc_geom_bond_type
Co0 O1 2.216 1_445 S
Co0 O2 2.091 1_545 S
Co0 O4 2.004 . S
Co0 O10 2.021 1_445 S
Co0 O12 2.137 . S
Co0 O13 2.244 1_455 S
O1 Co0 2.216 1_665 S
O1 C8 1.247 1_655 S
O2 Co0 2.091 1_565 S
O2 C8 1.261 . S
C3 O12 1.247 . S
C3 O13 1.272 1_455 S
O4 Co0 2.004 . S
O4 C9 1.259 1_554 S
Co5 O6 2.062 1_655 S
Co5 O11 2.052 1_545 S
Co5 O13 2.134 1_556 S
O6 Co5 2.062 1_455 S
O6 C9 1.235 . S
C7 O10 1.238 1_556 S
C7 O11 1.241 . S
C8 O1 1.247 1_455 S
C8 O2 1.261 . S
C9 O4 1.259 1_556 S
C9 O6 1.235 . S
O10 Co0 2.021 1_665 S
O10 C7 1.238 1_554 S
O11 Co5 2.052 1_565 S
O11 C7 1.241 . S
O12 Co0 2.137 . S
O12 C3 1.247 . S
O13 Co0 2.244 1_655 S
O13 C3 1.272 1_655 S
O13 Co5 2.134 1_554 S
Co14 O15 2.216 1_455 S
Co14 O16 2.091 . S
Co14 O18 2.004 . S
Co14 O24 2.021 1_455 S
Co14 O26 2.132 1_545 S
Co14 O27 2.244 1_445 S
O15 Co14 2.216 1_655 S
O15 C22 1.247 1_655 S
O16 Co14 2.091 . S
O16 C22 1.261 . S
C17 O26 1.254 . S
C17 O27 1.272 1_455 S
O18 Co14 2.004 . S
O18 C23 1.259 . S
Co19 O20 2.061 1_655 S
Co19 O25 2.052 . S
Co19 O27 2.135 . S
O20 Co19 2.061 1_455 S
O20 C23 1.235 1_565 S
C21 O24 1.238 . S
C21 O25 1.241 1_545 S
C22 O15 1.247 1_455 S
C22 O16 1.261 . S
C23 O18 1.259 . S
C23 O20 1.235 1_545 S
O24 Co14 2.021 1_655 S
O24 C21 1.238 . S
O25 Co19 2.052 . S
O25 C21 1.241 1_565 S
O26 Co14 2.132 1_565 S
O26 C17 1.254 . S
O27 Co14 2.244 1_665 S
O27 C17 1.272 1_655 S
O27 Co19 2.135 . S
Co28 O29 2.216 . S
Co28 O30 2.091 1_545 S
Co28 O32 2.004 1_445 S
Co28 O38 2.021 . S
Co28 O40 2.137 1_445 S
Co28 O41 2.244 1_455 S
O29 Co28 2.216 . S
O29 C36 1.247 . S
O30 Co28 2.091 1_565 S
O30 C36 1.261 1_565 S
C31 O40 1.247 1_545 S
C31 O41 1.272 . S
O32 Co28 2.004 1_665 S
O32 C37 1.259 . S
Co33 O34 2.061 1_545 S
Co33 O39 2.052 1_655 S
Co33 O41 2.135 . S
O34 Co33 2.061 1_565 S
O34 C37 1.235 . S
C35 O38 1.238 . S
C35 O39 1.241 . S
C36 O29 1.247 . S
C36 O30 1.261 1_545 S
C37 O32 1.259 . S
C37 O34 1.235 . S
O38 Co28 2.021 . S
O38 C35 1.238 . S
O39 Co33 2.052 1_455 S
O39 C35 1.241 . S
O40 Co28 2.137 1_665 S
O40 C31 1.247 1_565 S
O41 Co28 2.244 1_655 S
O41 C31 1.272 . S
O41 Co33 2.135 . S
H42 C61 0.949 . S
H43 C62 0.950 . S
H44 C64 0.950 . S
H45 C65 0.950 . S
H46 C67 0.950 . S
H47 C70 0.950 . S
H48 C71 0.950 . S
H49 C73 0.951 . S
H50 C74 0.949 . S
H51 C76 0.949 . S
H52 C77 0.950 . S
H53 C79 0.950 . S
H54 C80 0.950 . S
H55 C82 0.950 1_655 S
H56 C85 0.950 . S
H57 C86 0.950 . S
H58 C88 0.951 . S
H59 C89 0.949 . S
C60 C61 1.376 . S
C60 C65 1.386 1_455 S
C60 C66 1.483 . S
C61 H42 0.949 . S
C61 C60 1.376 . S
C61 C62 1.397 . S
C62 H43 0.950 . S
C62 C61 1.397 . S
C62 C63 1.391 . S
C63 C62 1.391 . S
C63 C64 1.405 1_455 S
C64 H44 0.950 . S
C64 C63 1.405 1_655 S
C64 C65 1.367 . S
C65 H45 0.950 . S
C65 C60 1.386 1_655 S
C65 C64 1.367 . S
C66 C60 1.483 . S
C66 C67 1.382 . S
C66 C68 1.403 . S
C67 H46 0.950 . S
C67 C66 1.382 . S
C67 C83 1.411 . S
C68 C66 1.403 . S
C68 C69 1.489 . S
C68 C82 1.411 . S
C69 C68 1.489 . S
C69 C70 1.383 . S
C69 C74 1.382 1_455 S
C70 H47 0.950 . S
C70 C69 1.383 . S
C70 C71 1.395 . S
C71 H48 0.950 . S
C71 C70 1.395 . S
C71 C72 1.288 . S
C72 C71 1.288 . S
C72 C73 1.392 1_455 S
C73 H49 0.951 . S
C73 C72 1.392 1_655 S
C73 C74 1.392 . S
C74 H50 0.949 . S
C74 C69 1.382 1_655 S
C74 C73 1.392 . S
C75 C76 1.376 1_455 S
C75 C80 1.386 . S
C75 C81 1.483 . S
C76 H51 0.949 . S
C76 C75 1.376 1_655 S
C76 C77 1.397 . S
C77 H52 0.950 . S
C77 C76 1.397 . S
C77 C78 1.391 1_655 S
C78 C77 1.391 1_455 S
C78 C79 1.405 . S
C79 H53 0.950 . S
C79 C78 1.405 . S
C79 C80 1.367 . S
C80 H54 0.950 . S
C80 C75 1.386 . S
C80 C79 1.367 . S
C81 C75 1.483 . S
C81 C82 1.382 . S
C81 C83 1.403 . S
C82 H55 0.950 1_455 S
C82 C68 1.411 . S
C82 C81 1.382 . S
C83 C67 1.411 . S
C83 C81 1.403 . S
C83 C84 1.489 . S
C84 C83 1.489 . S
C84 C85 1.383 1_455 S
C84 C89 1.382 . S
C85 H56 0.950 . S
C85 C84 1.383 1_655 S
C85 C86 1.395 . S
C86 H57 0.950 . S
C86 C85 1.395 . S
C86 C87 1.288 1_655 S
C87 C86 1.288 1_455 S
C87 C88 1.392 . S
C88 H58 0.951 . S
C88 C87 1.392 . S
C88 C89 1.392 . S
C89 H59 0.949 . S
C89 C84 1.382 . S
C89 C88 1.392 . S
H90 C109 0.949 . S
H91 C110 0.950 . S
H92 C112 0.950 . S
H93 C113 0.950 . S
H94 C115 0.950 . S
H95 C118 0.950 . S
H96 C119 0.950 . S
H97 C121 0.951 . S
H98 C122 0.949 . S
H99 C124 0.949 . S
H100 C125 0.950 . S
H101 C127 0.950 . S
H102 C128 0.950 . S
H103 C130 0.949 1_565 S
H104 C133 0.950 . S
H105 C134 0.950 . S
H106 C136 0.951 . S
H107 C137 0.949 . S
C108 C109 1.376 . S
C108 C113 1.386 1_545 S
C108 C114 1.483 . S
C109 H90 0.949 . S
C109 C108 1.376 . S
C109 C110 1.397 . S
C110 H91 0.950 . S
C110 C109 1.397 . S
C110 C111 1.391 . S
C111 C110 1.391 . S
C111 C112 1.405 1_545 S
C112 H92 0.950 . S
C112 C111 1.405 1_565 S
C112 C113 1.367 . S
C113 H93 0.950 . S
C113 C108 1.386 1_565 S
C113 C112 1.367 . S
C114 C108 1.483 . S
C114 C115 1.382 . S
C114 C116 1.403 . S
C115 H94 0.950 . S
C115 C114 1.382 . S
C115 C131 1.411 . S
C116 C114 1.403 . S
C116 C117 1.489 . S
C116 C130 1.411 . S
C117 C116 1.489 . S
C117 C118 1.383 . S
C117 C122 1.382 1_545 S
C118 H95 0.950 . S
C118 C117 1.383 . S
C118 C119 1.395 . S
C119 H96 0.950 . S
C119 C118 1.395 . S
C119 C120 1.288 . S
C120 C119 1.288 . S
C120 C121 1.392 1_545 S
C121 H97 0.951 . S
C121 C120 1.392 1_565 S
C121 C122 1.392 . S
C122 H98 0.949 . S
C122 C117 1.382 1_565 S
C122 C121 1.392 . S
C123 C124 1.376 1_545 S
C123 C128 1.386 . S
C123 C129 1.483 . S
C124 H99 0.949 . S
C124 C123 1.376 1_565 S
C124 C125 1.397 . S
C125 H100 0.950 . S
C125 C124 1.397 . S
C125 C126 1.391 1_565 S
C126 C125 1.391 1_545 S
C126 C127 1.405 . S
C127 H101 0.950 . S
C127 C126 1.405 . S
C127 C128 1.367 . S
C128 H102 0.950 . S
C128 C123 1.386 . S
C128 C127 1.367 . S
C129 C123 1.483 . S
C129 C130 1.382 . S
C129 C131 1.403 . S
C130 H103 0.949 1_545 S
C130 C116 1.411 . S
C130 C129 1.382 . S
C131 C115 1.411 . S
C131 C129 1.403 . S
C131 C132 1.489 . S
C132 C131 1.489 . S
C132 C133 1.383 1_545 S
C132 C137 1.382 . S
C133 H104 0.950 . S
C133 C132 1.383 1_565 S
C133 C134 1.395 . S
C134 H105 0.950 . S
C134 C133 1.395 . S
C134 C135 1.288 1_565 S
C135 C134 1.288 1_545 S
C135 C136 1.392 . S
C136 H106 0.951 . S
C136 C135 1.392 . S
C136 C137 1.392 . S
C137 H107 0.949 . S
C137 C132 1.382 . S
C137 C136 1.392 . S
H138 C157 0.949 . S
H139 C158 0.950 . S
H140 C160 0.950 . S
H141 C161 0.950 . S
H142 C163 0.950 . S
H143 C166 0.950 . S
H144 C167 0.950 . S
H145 C169 0.951 . S
H146 C170 0.949 . S
H147 C172 0.949 . S
H148 C173 0.950 . S
H149 C175 0.950 . S
H150 C176 0.950 . S
H151 C178 0.950 . S
H152 C181 0.950 . S
H153 C182 0.950 . S
H154 C184 0.951 . S
H155 C185 0.949 . S
C156 C157 1.376 . S
C156 C161 1.386 . S
C156 C162 1.483 . S
C157 H138 0.949 . S
C157 C156 1.376 . S
C157 C158 1.397 . S
C158 H139 0.950 . S
C158 C157 1.397 . S
C158 C159 1.391 . S
C159 C158 1.391 . S
C159 C160 1.405 . S
C160 H140 0.950 . S
C160 C159 1.405 . S
C160 C161 1.367 . S
C161 H141 0.950 . S
C161 C156 1.386 . S
C161 C160 1.367 . S
C162 C156 1.483 . S
C162 C163 1.382 . S
C162 C164 1.403 . S
C163 H142 0.950 . S
C163 C162 1.382 . S
C163 C179 1.411 . S
C164 C162 1.403 . S
C164 C165 1.489 . S
C164 C178 1.411 . S
C165 C164 1.489 . S
C165 C166 1.383 . S
C165 C170 1.382 . S
C166 H143 0.950 . S
C166 C165 1.383 . S
C166 C167 1.395 . S
C167 H144 0.950 . S
C167 C166 1.395 . S
C167 C168 1.288 . S
C168 C167 1.288 . S
C168 C169 1.392 . S
C169 H145 0.951 . S
C169 C168 1.392 . S
C169 C170 1.392 . S
C170 H146 0.949 . S
C170 C165 1.382 . S
C170 C169 1.392 . S
C171 C172 1.376 . S
C171 C176 1.386 . S
C171 C177 1.483 . S
C172 H147 0.949 . S
C172 C171 1.376 . S
C172 C173 1.397 . S
C173 H148 0.950 . S
C173 C172 1.397 . S
C173 C174 1.391 . S
C174 C173 1.391 . S
C174 C175 1.405 . S
C175 H149 0.950 . S
C175 C174 1.405 . S
C175 C176 1.367 . S
C176 H150 0.950 . S
C176 C171 1.386 . S
C176 C175 1.367 . S
C177 C171 1.483 . S
C177 C178 1.382 . S
C177 C179 1.403 . S
C178 H151 0.950 . S
C178 C164 1.411 . S
C178 C177 1.382 . S
C179 C163 1.411 . S
C179 C177 1.403 . S
C179 C180 1.489 . S
C180 C179 1.489 . S
C180 C181 1.383 . S
C180 C185 1.382 . S
C181 H152 0.950 . S
C181 C180 1.383 . S
C181 C182 1.395 . S
C182 H153 0.950 . S
C182 C181 1.395 . S
C182 C183 1.288 . S
C183 C182 1.288 . S
C183 C184 1.392 . S
C184 H154 0.951 . S
C184 C183 1.392 . S
C184 C185 1.392 . S
C185 H155 0.949 . S
C185 C180 1.382 . S
C185 C184 1.392 . S
C63 C3 1.516 . S
C21 C111 1.562 . S
C37 C183 1.486 . S
C8 C87 1.514 . S
C135 C23 1.499 . S
C35 C159 1.504 . S
C120 C31 1.513 . S
C7 C174 1.504 . S
C78 C17 1.523 . S
C126 C36 1.491 . S
C168 C9 1.513 . S
C22 C72 1.555 . S
