# Generated by pormake.
# Topology pth, (4,4)-cn, num edge types: 1
# Building blocks:
#     Node 0, Type 0, BuildingBlock: QUQFOY_clean_sbu_3, # of connection points: 4
#     Node 1, Type 0, BuildingBlock: QUQFOY_clean_sbu_3, # of connection points: 4
#     Node 2, Type 0, BuildingBlock: QUQFOY_clean_sbu_3, # of connection points: 4
#     Node 3, Type 1, BuildingBlock: NAWXER_clean_linker_0, # of connection points: 4
#     Node 4, Type 1, BuildingBlock: NAWXER_clean_linker_0, # of connection points: 4
#     Node 5, Type 1, BuildingBlock: NAWXER_clean_linker_0, # of connection points: 4
#     Edge 6, Type (0, 1), BuildingBlock: EYOCIG_clean_linker_4, # of connection points: 2
#     Edge 7, Type (0, 1), BuildingBlock: EYOCIG_clean_linker_4, # of connection points: 2
#     Edge 8, Type (0, 1), BuildingBlock: EYOCIG_clean_linker_4, # of connection points: 2
#     Edge 9, Type (0, 1), BuildingBlock: EYOCIG_clean_linker_4, # of connection points: 2
#     Edge 10, Type (0, 1), BuildingBlock: EYOCIG_clean_linker_4, # of connection points: 2
#     Edge 11, Type (0, 1), BuildingBlock: EYOCIG_clean_linker_4, # of connection points: 2
#     Edge 12, Type (0, 1), BuildingBlock: EYOCIG_clean_linker_4, # of connection points: 2
#     Edge 13, Type (0, 1), BuildingBlock: EYOCIG_clean_linker_4, # of connection points: 2
#     Edge 14, Type (0, 1), BuildingBlock: EYOCIG_clean_linker_4, # of connection points: 2
#     Edge 15, Type (0, 1), BuildingBlock: EYOCIG_clean_linker_4, # of connection points: 2
#     Edge 16, Type (0, 1), BuildingBlock: EYOCIG_clean_linker_4, # of connection points: 2
#     Edge 17, Type (0, 1), BuildingBlock: EYOCIG_clean_linker_4, # of connection points: 2
# Relax obj value: 0.008
# Max RMSD: 0.059
# Mean RMSD: 0.041
data_MOF--net-pth--node1-QUQFOY_clean_sbu_3--node2-NAWXER_clean_linker_0--edge1-EYOCIG_clean_linker_4
_symmetry_space_group_name_H-M    P1
_symmetry_Int_Tables_number       1
_symmetry_cell_setting            triclinic
loop_
_symmetry_equiv_pos_as_xyz
'x, y, z'
_cell_length_a     24.463839
_cell_length_b     24.192241
_cell_length_c     56.527308
_cell_angle_alpha  89.998474
_cell_angle_beta   91.153183
_cell_angle_gamma 121.0217
loop_
_atom_site_label
_atom_site_type_symbol
_atom_site_fract_x
_atom_site_fract_y
_atom_site_fract_z
_atom_type_partial_charge
C0 C 0.00817 0.15879 0.07052 0.0
O1 O 0.96954 0.15666 0.05474 0.0
Cd2 Cd 0.94892 0.10864 0.0165 0.0
O3 O 0.03615 0.12715 0.06872 0.0
Cd4 Cd 0.02641 0.0435 0.04215 0.0
C5 C 0.10976 0.15949 0.00591 0.0
O6 O 0.92098 0.00289 0.02508 0.0
O7 O 0.97999 0.9722 0.0082 0.0
O8 O -0.01218 0.97475 0.07549 0.0
C9 C 0.92713 0.96982 0.00917 0.0
O10 O 0.05715 0.15762 0.00331 0.0
C11 C 0.03037 0.95984 0.07485 0.0
O12 O 0.11671 0.12264 0.02012 0.0
O13 O 0.07284 0.98537 0.05923 0.0
C14 C 0.12241 0.06812 0.40386 0.0
O15 O 0.15758 0.10516 0.38779 0.0
Cd16 Cd 0.12675 0.12185 0.34967 0.0
O17 O 0.06193 0.03921 0.40243 0.0
Cd18 Cd 0.98481 0.04455 0.37563 0.0
C19 C 0.01292 0.95776 0.33895 0.0
O20 O 0.05096 0.15038 0.35802 0.0
O21 O 0.95845 0.08797 0.3413 0.0
O22 O 0.95574 0.08413 0.40911 0.0
C23 C 0.01026 0.14194 0.34204 0.0
O24 O 0.06461 0.01109 0.33623 0.0
C25 C 0.89739 0.0401 0.40827 0.0
O26 O 0.9707 0.95175 0.35328 0.0
O27 O 0.8792 -0.00395 0.39256 0.0
C28 C 0.91176 0.07404 0.67933 0.0
O29 O 0.91502 0.11218 0.69542 0.0
Cd30 Cd 0.96431 0.1316 0.73339 0.0
O31 O 0.94316 0.04555 0.68057 0.0
Cd32 Cd 0.02779 0.05307 0.70669 0.0
C33 C 0.91344 0.96801 0.74347 0.0
O34 O 0.06744 0.15888 0.72389 0.0
O35 O 0.09986 0.10024 0.74084 0.0
O36 O 0.09467 0.09276 0.67292 0.0
C37 C 0.10105 0.15318 0.73986 0.0
O38 O 0.91577 0.0213 0.74624 0.0
C39 C 0.10938 0.04965 0.6733 0.0
O40 O 0.94919 0.96136 0.72911 0.0
O41 O 0.08499 0.00645 0.68903 0.0
C42 C -0.01262 0.34675 0.24758 0.0
C43 C 0.03115 0.3653 0.26664 0.0
C44 C -0.01152 0.39336 0.23249 0.0
C45 C 0.03371 0.45932 0.23617 0.0
C46 C 0.07573 0.43086 0.27057 0.0
C47 C 0.07683 0.47743 0.25554 0.0
C48 C 0.03334 0.51021 0.22137 0.0
C49 C 0.07304 0.39349 0.16946 0.0
C50 C 0.02894 0.36707 0.15057 0.0
C51 C 0.07223 0.43848 0.18472 0.0
C52 C 0.0268 0.45699 0.18132 0.0
C53 C 0.98469 0.38647 0.14664 0.0
C54 C 0.98379 0.43137 0.16188 0.0
C55 C 0.02731 0.50741 0.19635 0.0
C56 C 0.07288 0.7681 0.16937 0.0
C57 C 0.029 0.74817 0.15035 0.0
C58 C 0.07195 0.72244 0.18482 0.0
C59 C 0.02658 0.65646 0.1815 0.0
C60 C 0.98428 0.6827 0.14677 0.0
C61 C 0.98323 0.63712 0.16218 0.0
C62 C 0.0274 0.60644 0.19643 0.0
C63 C -0.01242 0.72426 0.24795 0.0
C64 C 0.03063 0.7501 0.26722 0.0
C65 C -0.01093 0.67964 0.23261 0.0
C66 C 0.03425 0.66078 0.23623 0.0
C67 C 0.07589 0.73184 0.27089 0.0
C68 C 0.07746 0.68726 0.25557 0.0
C69 C 0.03357 0.6096 0.22142 0.0
H70 H 0.95205 0.2963 0.24446 0.0
H71 H 0.95315 0.37787 0.21826 0.0
H72 H 0.10958 0.44612 0.28532 0.0
H73 H 0.11155 0.52784 0.25905 0.0
H74 H 0.10808 0.37938 0.1724 0.0
H75 H 0.10767 0.45944 0.19892 0.0
H76 H 0.95076 0.36678 0.13189 0.0
H77 H 0.94925 0.44595 0.15855 0.0
H78 H 0.10816 0.81874 0.17212 0.0
H79 H 0.10745 0.73859 0.199 0.0
H80 H 0.95038 0.66676 0.13201 0.0
H81 H 0.94853 0.58655 0.15896 0.0
H82 H 0.95184 0.73746 0.24507 0.0
H83 H 0.95375 0.6586 0.21837 0.0
H84 H 0.10919 0.75104 0.28583 0.0
H85 H 0.11219 0.67297 0.25896 0.0
N86 N 0.03656 0.56148 0.23276 0.0
N87 N 0.02431 0.5554 0.18507 0.0
C88 C 0.71521 0.09579 0.50204 0.0
C89 C 0.69504 0.05094 0.48335 0.0
C90 C 0.67051 0.09514 0.51738 0.0
C91 C 0.60504 0.04915 0.51431 0.0
C92 C 0.63009 0.0052 0.48017 0.0
C93 C 0.58547 0.0045 0.49544 0.0
C94 C 0.55587 0.05049 0.52903 0.0
C95 C 0.67485 0.01382 0.58183 0.0
C96 C 0.70161 0.05918 0.60033 0.0
C97 C 0.62968 0.01388 0.5663 0.0
C98 C 0.61134 0.05985 0.56903 0.0
C99 C 0.68294 0.10441 0.6034 0.0
C100 C 0.63791 0.10459 0.58789 0.0
C101 C 0.56029 0.05826 0.55396 0.0
C102 C 0.30245 0.01292 0.5801 0.0
C103 C 0.32206 0.05801 0.59867 0.0
C104 C 0.34752 0.01327 0.56509 0.0
C105 C 0.41289 0.05921 0.56835 0.0
C106 C 0.38699 0.10347 0.60218 0.0
C107 C 0.43207 0.10388 0.58721 0.0
C108 C 0.46213 0.05795 0.55366 0.0
C109 C 0.34452 0.09702 0.50134 0.0
C110 C 0.31737 0.05242 0.48264 0.0
C111 C 0.38928 0.09579 0.51673 0.0
C112 C 0.40688 0.04935 0.51371 0.0
C113 C 0.33512 0.00651 0.47929 0.0
C114 C 0.37978 0.00512 0.49469 0.0
C115 C 0.45766 0.05015 0.52873 0.0
H116 H 0.76533 0.1317 0.50463 0.0
H117 H 0.68702 0.1315 0.53124 0.0
H118 H 0.61377 0.97027 0.46578 0.0
H119 H 0.53539 0.96906 0.49244 0.0
H120 H 0.68859 0.97817 0.57949 0.0
H121 H 0.6083 0.9773 0.55249 0.0
H122 H 0.70305 0.13948 0.61777 0.0
H123 H 0.62376 0.13977 0.59063 0.0
H124 H 0.25239 0.97702 0.57734 0.0
H125 H 0.33133 0.9768 0.55129 0.0
H126 H 0.40291 0.13837 0.61658 0.0
H127 H 0.48211 0.13918 0.59038 0.0
H128 H 0.33143 0.13307 0.50396 0.0
H129 H 0.41101 0.13196 0.53065 0.0
H130 H 0.31458 0.97189 0.46479 0.0
H131 H 0.39328 0.96951 0.49175 0.0
N132 N 0.5045 0.04647 0.51757 0.0
N133 N 0.51346 0.06196 0.56511 0.0
C134 C 0.32757 0.36444 0.83444 0.0
C135 C 0.30172 0.38281 0.81586 0.0
C136 C 0.37386 0.4111 0.8499 0.0
C137 C 0.39451 0.47679 0.84706 0.0
C138 C 0.32246 0.44805 0.81277 0.0
C139 C 0.36866 0.49469 0.82819 0.0
C140 C 0.4469 0.52786 0.86206 0.0
C141 C 0.29143 0.40878 0.91448 0.0
C142 C 0.31094 0.3839 0.93303 0.0
C143 C 0.33657 0.45365 0.89899 0.0
C144 C 0.40157 0.47363 0.90183 0.0
C145 C 0.37542 0.40397 0.93604 0.0
C146 C 0.42038 0.44863 0.92065 0.0
C147 C 0.4514 0.52493 0.887 0.0
C148 C 0.67171 0.78823 0.91482 0.0
C149 C 0.69777 0.7696 0.93323 0.0
C150 C 0.62483 0.74168 0.89951 0.0
C151 C 0.60395 0.67593 0.90231 0.0
C152 C 0.67649 0.70426 0.93638 0.0
C153 C 0.62975 0.65775 0.9211 0.0
C154 C 0.55155 0.62512 0.88726 0.0
C155 C 0.70737 0.74355 0.83519 0.0
C156 C 0.68878 0.76806 0.81626 0.0
C157 C 0.66187 0.69943 0.85067 0.0
C158 C 0.59708 0.6798 0.8476 0.0
C159 C 0.6246 0.7495 0.81322 0.0
C160 C 0.57903 0.70539 0.8287 0.0
C161 C 0.54699 0.62826 0.86233 0.0
H162 H 0.31251 0.31414 0.83684 0.0
H163 H 0.39445 0.39593 0.86371 0.0
H164 H 0.30329 0.46303 0.79836 0.0
H165 H 0.38441 0.54497 0.82533 0.0
H166 H 0.2416 0.3938 0.91204 0.0
H167 H 0.32085 0.47363 0.88517 0.0
H168 H 0.3911 0.38512 0.95033 0.0
H169 H 0.47013 0.46379 0.9235 0.0
H170 H 0.68729 0.83864 0.91238 0.0
H171 H 0.60419 0.75702 0.88578 0.0
H172 H 0.69592 0.68914 0.95066 0.0
H173 H 0.61376 0.60741 0.92395 0.0
H174 H 0.75682 0.75704 0.83758 0.0
H175 H 0.67713 0.67913 0.86453 0.0
H176 H 0.60945 0.76775 0.79856 0.0
H177 H 0.5294 0.69052 0.82571 0.0
N178 N 0.49476 0.57957 0.85089 0.0
N179 N 0.50372 0.57348 0.89842 0.0
C180 C 0.02531 0.23464 0.10629 0.0
C181 C 0.02051 0.19881 0.0907 0.0
C182 C 0.02772 0.27973 0.12246 0.0
C183 C 0.02868 0.31958 0.13537 0.0
C184 C 0.81801 0.04583 0.43756 0.0
C185 C 0.85335 0.04216 0.42399 0.0
C186 C 0.77673 0.04998 0.45357 0.0
C187 C 0.74053 0.05145 0.46737 0.0
C188 C 0.8252 0.87934 0.76972 0.0
C189 C 0.86707 0.91504 0.7568 0.0
C190 C 0.77604 0.84202 0.78553 0.0
C191 C 0.73503 0.80849 0.79917 0.0
C192 C 0.02876 0.87616 0.10465 0.0
C193 C 0.02945 0.91443 0.09103 0.0
C194 C 0.02921 0.83213 0.12065 0.0
C195 C 0.02977 0.79451 0.13435 0.0
C196 C 0.18696 0.05603 0.43876 0.0
C197 C 0.15286 0.05824 0.42374 0.0
C198 C 0.23189 0.05499 0.45429 0.0
C199 C 0.27082 0.05352 0.46714 0.0
C200 C 0.17262 0.24641 0.77029 0.0
C201 C 0.13941 0.20473 0.75613 0.0
C202 C 0.2157 0.29448 0.78635 0.0
C203 C 0.25486 0.33496 0.79973 0.0
C204 C 0.83302 0.05929 0.64469 0.0
C205 C 0.87017 0.06262 0.6596 0.0
C206 C 0.78766 0.05898 0.62904 0.0
C207 C 0.74847 0.05943 0.61604 0.0
C208 C 0.83492 0.89756 0.97865 0.0
C209 C 0.87626 0.93101 -0.00718 0.0
C210 C 0.78703 0.85536 0.96242 0.0
C211 C 0.74634 0.81723 0.9489 0.0
C212 C 0.00991 0.86704 0.31278 0.0
C213 C 0.00523 0.90401 0.32561 0.0
C214 C 0.01974 0.82765 0.2972 0.0
C215 C 0.0258 0.79246 0.28383 0.0
C216 C 0.19155 0.05356 0.64299 0.0
C217 C 0.15396 0.05141 0.65691 0.0
C218 C 0.23677 0.05589 0.62732 0.0
C219 C 0.27573 0.05697 0.6143 0.0
C220 C 0.19647 0.24855 0.97944 0.0
C221 C 0.16154 0.20625 -0.00755 0.0
C222 C 0.23274 0.29716 0.96313 0.0
C223 C 0.26562 0.33669 0.94883 0.0
C224 C 0.02729 0.2319 0.31157 0.0
C225 C 0.02124 0.192 0.32578 0.0
C226 C 0.02984 0.27804 0.29552 0.0
C227 C 0.03012 0.31745 0.28229 0.0
loop_
_geom_bond_atom_site_label_1
_geom_bond_atom_site_label_2
_geom_bond_distance
_geom_bond_site_symmetry_2
_ccdc_geom_bond_type
C0 O1 1.306 1_455 S
C0 O3 1.160 . S
O1 C0 1.306 1_655 S
O1 Cd2 2.228 . S
Cd2 O1 2.228 . S
Cd2 O6 2.273 . S
Cd2 O10 2.277 1_655 S
O3 C0 1.160 . S
O3 Cd4 2.203 . S
Cd4 O3 2.203 . S
Cd4 O6 2.411 1_455 S
Cd4 O7 2.333 1_445 S
Cd4 O8 2.352 1_445 S
Cd4 O12 2.277 . S
Cd4 O13 2.356 1_545 S
C5 O10 1.209 . S
C5 O12 1.226 . S
O6 Cd2 2.273 . S
O6 Cd4 2.411 1_655 S
O6 C9 1.320 1_545 S
O7 Cd4 2.333 1_665 S
O7 C9 1.214 . S
O8 Cd4 2.352 1_665 S
O8 C11 1.258 1_655 S
C9 O6 1.320 1_565 S
C9 O7 1.214 . S
O10 Cd2 2.277 1_455 S
O10 C5 1.209 . S
C11 O8 1.258 1_455 S
C11 O13 1.282 . S
O12 Cd4 2.277 . S
O12 C5 1.226 . S
O13 Cd4 2.356 1_565 S
O13 C11 1.282 . S
C14 O15 1.306 . S
C14 O17 1.160 . S
O15 C14 1.306 . S
O15 Cd16 2.228 . S
Cd16 O15 2.228 . S
Cd16 O20 2.273 . S
Cd16 O24 2.277 . S
O17 C14 1.160 . S
O17 Cd18 2.203 . S
Cd18 O17 2.203 . S
Cd18 O20 2.411 . S
Cd18 O21 2.333 1_455 S
Cd18 O22 2.352 1_455 S
Cd18 O26 2.277 1_445 S
Cd18 O27 2.356 1_455 S
C19 O24 1.209 1_565 S
C19 O26 1.226 1_455 S
O20 Cd16 2.273 . S
O20 Cd18 2.411 . S
O20 C23 1.320 . S
O21 Cd18 2.333 1_655 S
O21 C23 1.214 1_655 S
O22 Cd18 2.352 1_655 S
O22 C25 1.258 . S
C23 O20 1.320 . S
C23 O21 1.214 1_455 S
O24 Cd16 2.277 . S
O24 C19 1.209 1_545 S
C25 O22 1.258 . S
C25 O27 1.282 . S
O26 Cd18 2.277 1_665 S
O26 C19 1.226 1_655 S
O27 Cd18 2.356 1_655 S
O27 C25 1.282 . S
C28 O29 1.306 . S
C28 O31 1.160 . S
O29 C28 1.306 . S
O29 Cd30 2.228 . S
Cd30 O29 2.228 . S
Cd30 O34 2.273 1_655 S
Cd30 O38 2.277 . S
O31 C28 1.160 . S
O31 Cd32 2.203 1_655 S
Cd32 O31 2.203 1_455 S
Cd32 O34 2.411 . S
Cd32 O35 2.333 . S
Cd32 O36 2.352 . S
Cd32 O40 2.277 1_445 S
Cd32 O41 2.356 . S
C33 O38 1.209 1_565 S
C33 O40 1.226 . S
O34 Cd30 2.273 1_455 S
O34 Cd32 2.411 . S
O34 C37 1.320 . S
O35 Cd32 2.333 . S
O35 C37 1.214 . S
O36 Cd32 2.352 . S
O36 C39 1.258 . S
C37 O34 1.320 . S
C37 O35 1.214 . S
O38 Cd30 2.277 . S
O38 C33 1.209 1_545 S
C39 O36 1.258 . S
C39 O41 1.282 . S
O40 Cd32 2.277 1_665 S
O40 C33 1.226 . S
O41 Cd32 2.356 . S
O41 C39 1.282 . S
C42 C43 1.394 . S
C42 C44 1.378 . S
C42 H70 0.927 1_455 S
C43 C42 1.394 . S
C43 C46 1.382 . S
C44 C42 1.378 . S
C44 C45 1.381 . S
C44 H71 0.930 1_455 S
C45 C44 1.381 . S
C45 C47 1.381 . S
C45 C48 1.487 . S
C46 C43 1.382 . S
C46 C47 1.387 . S
C46 H72 0.930 . S
C47 C45 1.381 . S
C47 C46 1.387 . S
C47 H73 0.931 . S
C48 C45 1.487 . S
C48 C55 1.399 . S
C48 N86 1.343 . S
C49 C50 1.384 . S
C49 C51 1.384 . S
C49 H74 0.931 . S
C50 C49 1.384 . S
C50 C53 1.362 1_455 S
C51 C49 1.384 . S
C51 C52 1.381 . S
C51 H75 0.930 . S
C52 C51 1.381 . S
C52 C54 1.381 1_455 S
C52 C55 1.487 . S
C53 C50 1.362 1_655 S
C53 C54 1.397 . S
C53 H76 0.942 . S
C54 C52 1.381 1_655 S
C54 C53 1.397 . S
C54 H77 0.931 . S
C55 C48 1.399 . S
C55 C52 1.487 . S
C55 N87 1.343 . S
C56 C57 1.384 . S
C56 C58 1.384 . S
C56 H78 0.931 . S
C57 C56 1.384 . S
C57 C60 1.378 1_455 S
C58 C56 1.384 . S
C58 C59 1.381 . S
C58 H79 0.930 . S
C59 C58 1.381 . S
C59 C61 1.381 1_455 S
C59 C62 1.487 . S
C60 C57 1.378 1_655 S
C60 C61 1.379 . S
C60 H80 0.943 . S
C61 C59 1.381 1_655 S
C61 C60 1.379 . S
C61 H81 0.931 . S
C62 C59 1.487 . S
C62 C69 1.399 . S
C62 N87 1.343 . S
C63 C64 1.392 . S
C63 C65 1.391 . S
C63 H82 0.916 1_455 S
C64 C63 1.392 . S
C64 C67 1.382 . S
C65 C63 1.391 . S
C65 C66 1.381 . S
C65 H83 0.930 1_455 S
C66 C65 1.381 . S
C66 C68 1.381 . S
C66 C69 1.487 . S
C67 C64 1.382 . S
C67 C68 1.387 . S
C67 H84 0.930 . S
C68 C66 1.381 . S
C68 C67 1.387 . S
C68 H85 0.931 . S
C69 C62 1.399 . S
C69 C66 1.487 . S
C69 N86 1.343 . S
H70 C42 0.927 1_655 S
H71 C44 0.930 1_655 S
H72 C46 0.930 . S
H73 C47 0.931 . S
H74 C49 0.931 . S
H75 C51 0.930 . S
H76 C53 0.942 . S
H77 C54 0.931 . S
H78 C56 0.931 . S
H79 C58 0.930 . S
H80 C60 0.943 . S
H81 C61 0.931 . S
H82 C63 0.916 1_655 S
H83 C65 0.930 1_655 S
H84 C67 0.930 . S
H85 C68 0.931 . S
N86 C48 1.343 . S
N86 C69 1.343 . S
N87 C55 1.343 . S
N87 C62 1.343 . S
C88 C89 1.384 . S
C88 C90 1.384 . S
C88 H116 0.931 . S
C89 C88 1.384 . S
C89 C92 1.382 . S
C90 C88 1.384 . S
C90 C91 1.381 . S
C90 H117 0.930 . S
C91 C90 1.381 . S
C91 C93 1.381 . S
C91 C94 1.487 . S
C92 C89 1.382 . S
C92 C93 1.387 . S
C92 H118 0.930 1_545 S
C93 C91 1.381 . S
C93 C92 1.387 . S
C93 H119 0.931 1_545 S
C94 C91 1.487 . S
C94 C101 1.399 . S
C94 N132 1.343 . S
C95 C96 1.384 . S
C95 C97 1.384 . S
C95 H120 0.931 1_545 S
C96 C95 1.384 . S
C96 C99 1.382 . S
C97 C95 1.384 . S
C97 C98 1.381 . S
C97 H121 0.930 1_545 S
C98 C97 1.381 . S
C98 C100 1.381 . S
C98 C101 1.487 . S
C99 C96 1.382 . S
C99 C100 1.387 . S
C99 H122 0.930 . S
C100 C98 1.381 . S
C100 C99 1.387 . S
C100 H123 0.931 . S
C101 C94 1.399 . S
C101 C98 1.487 . S
C101 N133 1.343 . S
C102 C103 1.384 . S
C102 C104 1.384 . S
C102 H124 0.931 1_545 S
C103 C102 1.384 . S
C103 C106 1.382 . S
C104 C102 1.384 . S
C104 C105 1.381 . S
C104 H125 0.930 1_545 S
C105 C104 1.381 . S
C105 C107 1.381 . S
C105 C108 1.487 . S
C106 C103 1.382 . S
C106 C107 1.387 . S
C106 H126 0.930 . S
C107 C105 1.381 . S
C107 C106 1.387 . S
C107 H127 0.931 . S
C108 C105 1.487 . S
C108 C115 1.399 . S
C108 N133 1.343 . S
C109 C110 1.384 . S
C109 C111 1.384 . S
C109 H128 0.931 . S
C110 C109 1.384 . S
C110 C113 1.382 . S
C111 C109 1.384 . S
C111 C112 1.381 . S
C111 H129 0.930 . S
C112 C111 1.381 . S
C112 C114 1.381 . S
C112 C115 1.487 . S
C113 C110 1.382 . S
C113 C114 1.387 . S
C113 H130 0.930 1_545 S
C114 C112 1.381 . S
C114 C113 1.387 . S
C114 H131 0.931 1_545 S
C115 C108 1.399 . S
C115 C112 1.487 . S
C115 N132 1.343 . S
H116 C88 0.931 . S
H117 C90 0.930 . S
H118 C92 0.930 1_565 S
H119 C93 0.931 1_565 S
H120 C95 0.931 1_565 S
H121 C97 0.930 1_565 S
H122 C99 0.930 . S
H123 C100 0.931 . S
H124 C102 0.931 1_565 S
H125 C104 0.930 1_565 S
H126 C106 0.930 . S
H127 C107 0.931 . S
H128 C109 0.931 . S
H129 C111 0.930 . S
H130 C113 0.930 1_565 S
H131 C114 0.931 1_565 S
N132 C94 1.343 . S
N132 C115 1.343 . S
N133 C101 1.343 . S
N133 C108 1.343 . S
C134 C135 1.384 . S
C134 C136 1.384 . S
C134 H162 0.931 . S
C135 C134 1.384 . S
C135 C138 1.382 . S
C136 C134 1.384 . S
C136 C137 1.381 . S
C136 H163 0.930 . S
C137 C136 1.381 . S
C137 C139 1.381 . S
C137 C140 1.487 . S
C138 C135 1.382 . S
C138 C139 1.387 . S
C138 H164 0.930 . S
C139 C137 1.381 . S
C139 C138 1.387 . S
C139 H165 0.931 . S
C140 C137 1.487 . S
C140 C147 1.399 . S
C140 N178 1.343 . S
C141 C142 1.384 . S
C141 C143 1.384 . S
C141 H166 0.931 . S
C142 C141 1.384 . S
C142 C145 1.382 . S
C143 C141 1.384 . S
C143 C144 1.381 . S
C143 H167 0.930 . S
C144 C143 1.381 . S
C144 C146 1.381 . S
C144 C147 1.487 . S
C145 C142 1.382 . S
C145 C146 1.387 . S
C145 H168 0.930 . S
C146 C144 1.381 . S
C146 C145 1.387 . S
C146 H169 0.931 . S
C147 C140 1.399 . S
C147 C144 1.487 . S
C147 N179 1.343 . S
C148 C149 1.384 . S
C148 C150 1.384 . S
C148 H170 0.931 . S
C149 C148 1.384 . S
C149 C152 1.382 . S
C150 C148 1.384 . S
C150 C151 1.381 . S
C150 H171 0.930 . S
C151 C150 1.381 . S
C151 C153 1.381 . S
C151 C154 1.487 . S
C152 C149 1.382 . S
C152 C153 1.387 . S
C152 H172 0.930 . S
C153 C151 1.381 . S
C153 C152 1.387 . S
C153 H173 0.931 . S
C154 C151 1.487 . S
C154 C161 1.399 . S
C154 N179 1.343 . S
C155 C156 1.384 . S
C155 C157 1.384 . S
C155 H174 0.931 . S
C156 C155 1.384 . S
C156 C159 1.382 . S
C157 C155 1.384 . S
C157 C158 1.381 . S
C157 H175 0.930 . S
C158 C157 1.381 . S
C158 C160 1.381 . S
C158 C161 1.487 . S
C159 C156 1.382 . S
C159 C160 1.387 . S
C159 H176 0.930 . S
C160 C158 1.381 . S
C160 C159 1.387 . S
C160 H177 0.931 . S
C161 C154 1.399 . S
C161 C158 1.487 . S
C161 N178 1.343 . S
H162 C134 0.931 . S
H163 C136 0.930 . S
H164 C138 0.930 . S
H165 C139 0.931 . S
H166 C141 0.931 . S
H167 C143 0.930 . S
H168 C145 0.930 . S
H169 C146 0.931 . S
H170 C148 0.931 . S
H171 C150 0.930 . S
H172 C152 0.930 . S
H173 C153 0.931 . S
H174 C155 0.931 . S
H175 C157 0.930 . S
H176 C159 0.930 . S
H177 C160 0.931 . S
N178 C140 1.343 . S
N178 C161 1.343 . S
N179 C147 1.343 . S
N179 C154 1.343 . S
C180 C181 1.170 . S
C180 C182 1.380 . S
C181 C180 1.170 . S
C182 C180 1.380 . S
C182 C183 1.170 . S
C183 C182 1.170 . S
C184 C185 1.170 . S
C184 C186 1.380 . S
C185 C184 1.170 . S
C186 C184 1.380 . S
C186 C187 1.170 . S
C187 C186 1.170 . S
C188 C189 1.170 . S
C188 C190 1.380 . S
C189 C188 1.170 . S
C190 C188 1.380 . S
C190 C191 1.170 . S
C191 C190 1.170 . S
C192 C193 1.170 . S
C192 C194 1.380 . S
C193 C192 1.170 . S
C194 C192 1.380 . S
C194 C195 1.170 . S
C195 C194 1.170 . S
C196 C197 1.170 . S
C196 C198 1.380 . S
C197 C196 1.170 . S
C198 C196 1.380 . S
C198 C199 1.170 . S
C199 C198 1.170 . S
C200 C201 1.170 . S
C200 C202 1.380 . S
C201 C200 1.170 . S
C202 C200 1.380 . S
C202 C203 1.170 . S
C203 C202 1.170 . S
C204 C205 1.170 . S
C204 C206 1.380 . S
C205 C204 1.170 . S
C206 C204 1.380 . S
C206 C207 1.170 . S
C207 C206 1.170 . S
C208 C209 1.170 1_556 S
C208 C210 1.380 . S
C209 C208 1.170 1_554 S
C210 C208 1.380 . S
C210 C211 1.170 . S
C211 C210 1.170 . S
C212 C213 1.170 . S
C212 C214 1.380 . S
C213 C212 1.170 . S
C214 C212 1.380 . S
C214 C215 1.170 . S
C215 C214 1.170 . S
C216 C217 1.170 . S
C216 C218 1.380 . S
C217 C216 1.170 . S
C218 C216 1.380 . S
C218 C219 1.170 . S
C219 C218 1.170 . S
C220 C221 1.170 1_556 S
C220 C222 1.380 . S
C221 C220 1.170 1_554 S
C222 C220 1.380 . S
C222 C223 1.170 . S
C223 C222 1.170 . S
C224 C225 1.170 . S
C224 C226 1.380 . S
C225 C224 1.170 . S
C226 C224 1.380 . S
C226 C227 1.170 . S
C227 C226 1.170 . S
C183 C50 1.457 . S
C181 C0 1.464 . S
C185 C25 1.488 . S
C187 C89 1.493 . S
C189 C33 1.512 . S
C191 C156 1.519 . S
C193 C11 1.447 . S
C195 C57 1.446 . S
C199 C110 1.488 . S
C197 C14 1.488 . S
C201 C37 1.515 . S
C203 C135 1.515 . S
C207 C96 1.484 . S
C205 C28 1.479 . S
C209 C9 1.504 . S
C211 C149 1.507 . S
C215 C64 1.539 . S
C213 C19 1.530 . S
C219 C103 1.489 . S
C217 C39 1.491 . S
C223 C142 1.517 . S
C221 C5 1.508 . S
C225 C23 1.545 . S
C227 C43 1.549 . S
