# Generated by pormake.
# Topology rtl, (3,6)-cn, num edge types: 1
# Building blocks:
#     Node 0, Type 0, BuildingBlock: PAMTOO_clean_linker_0, # of connection points: 3
#     Node 1, Type 0, BuildingBlock: PAMTOO_clean_linker_0, # of connection points: 3
#     Node 2, Type 0, BuildingBlock: PAMTOO_clean_linker_0, # of connection points: 3
#     Node 3, Type 0, BuildingBlock: PAMTOO_clean_linker_0, # of connection points: 3
#     Node 4, Type 1, BuildingBlock: LEVNOQ01_clean_sbu_1, # of connection points: 6
#     Node 5, Type 1, BuildingBlock: LEVNOQ01_clean_sbu_1, # of connection points: 6
#     Edge 6, Type (0, 1), BuildingBlock: AJUNOK_clean_linker_0, # of connection points: 2
#     Edge 7, Type (0, 1), BuildingBlock: AJUNOK_clean_linker_0, # of connection points: 2
#     Edge 8, Type (0, 1), BuildingBlock: AJUNOK_clean_linker_0, # of connection points: 2
#     Edge 9, Type (0, 1), BuildingBlock: AJUNOK_clean_linker_0, # of connection points: 2
#     Edge 10, Type (0, 1), BuildingBlock: AJUNOK_clean_linker_0, # of connection points: 2
#     Edge 11, Type (0, 1), BuildingBlock: AJUNOK_clean_linker_0, # of connection points: 2
#     Edge 12, Type (0, 1), BuildingBlock: AJUNOK_clean_linker_0, # of connection points: 2
#     Edge 13, Type (0, 1), BuildingBlock: AJUNOK_clean_linker_0, # of connection points: 2
#     Edge 14, Type (0, 1), BuildingBlock: AJUNOK_clean_linker_0, # of connection points: 2
#     Edge 15, Type (0, 1), BuildingBlock: AJUNOK_clean_linker_0, # of connection points: 2
#     Edge 16, Type (0, 1), BuildingBlock: AJUNOK_clean_linker_0, # of connection points: 2
#     Edge 17, Type (0, 1), BuildingBlock: AJUNOK_clean_linker_0, # of connection points: 2
# Relax obj value: 0.021
# Max RMSD: 0.110
# Mean RMSD: 0.087
data_MOF--net-rtl--node1-LEVNOQ01_clean_sbu_1--node2-PAMTOO_clean_linker_0--edge1-AJUNOK_clean_linker_0
_symmetry_space_group_name_H-M    P1
_symmetry_Int_Tables_number       1
_symmetry_cell_setting            triclinic
loop_
_symmetry_equiv_pos_as_xyz
'x, y, z'
_cell_length_a     25.723336
_cell_length_b     26.190455
_cell_length_c     16.13317
_cell_angle_alpha  92.064715
_cell_angle_beta   102.39823
_cell_angle_gamma 90.555281
loop_
_atom_site_label
_atom_site_type_symbol
_atom_site_fract_x
_atom_site_fract_y
_atom_site_fract_z
_atom_type_partial_charge
H0 H 0.12855 0.90719 0.06782 0.0
H1 H 0.23675 0.8384 0.27264 0.0
H2 H 0.25373 0.81117 0.01586 0.0
H3 H 0.24774 0.73355 0.20785 0.0
C4 C 0.28986 0.74549 0.21086 0.0
O5 O 0.29299 0.79301 0.17729 0.0
H6 H 0.30957 0.74779 0.27927 0.0
C7 C 0.16155 0.88208 0.08971 0.0
C8 C 0.18794 0.85923 0.03065 0.0
C9 C 0.17876 0.87506 0.17708 0.0
C10 C 0.22324 0.84493 0.20557 0.0
C11 C 0.24969 0.8213 0.14769 0.0
C12 C 0.2322 0.82844 0.06017 0.0
H13 H 0.59215 0.66912 0.56415 0.0
H14 H 0.73496 0.72541 0.49521 0.0
H15 H 0.72698 0.71837 0.75721 0.0
H16 H 0.80224 0.7974 0.75619 0.0
C17 C 0.79129 0.79922 0.6859 0.0
O18 O 0.78394 0.74957 0.65211 0.0
H19 H 0.75382 0.82113 0.66918 0.0
C20 C 0.63235 0.68476 0.58104 0.0
C21 C 0.65638 0.69205 0.66735 0.0
C22 C 0.66016 0.69497 0.51701 0.0
C23 C 0.71167 0.71745 0.54177 0.0
C24 C 0.73504 0.72709 0.62829 0.0
C25 C 0.70813 0.7124 0.69068 0.0
H26 H 0.92871 0.14329 0.05844 0.0
H27 H 0.83236 0.23838 0.87649 0.0
H28 H 0.81803 0.24757 0.13688 0.0
H29 H 0.71772 0.2372 0.97658 0.0
C30 C 0.73062 0.27327 0.95175 0.0
O31 O 0.78404 0.28332 0.98457 0.0
H32 H 0.72391 0.26842 0.88156 0.0
C33 C 0.89857 0.17221 0.04384 0.0
C34 C 0.87617 0.19401 0.10881 0.0
C35 C 0.88277 0.18791 0.96008 0.0
C36 C 0.84408 0.22535 0.94074 0.0
C37 C 0.82031 0.24626 1.00405 0.0
C38 C 0.83611 0.23055 0.08797 0.0
H39 H 0.42755 0.39264 0.52108 0.0
H40 H 0.32827 0.26967 0.57268 0.0
H41 H 0.34648 0.29113 0.31767 0.0
H42 H 0.23884 0.22653 0.30998 0.0
C43 C 0.24622 0.24059 0.37729 0.0
O44 O 0.29984 0.236 0.41326 0.0
H45 H 0.23406 0.28135 0.37644 0.0
C46 C 0.40211 0.35943 0.4993 0.0
C47 C 0.38993 0.34533 0.41249 0.0
C48 C 0.38039 0.33259 0.55798 0.0
C49 C 0.34537 0.29101 0.52849 0.0
C50 C 0.33281 0.27652 0.44163 0.0
C51 C 0.35556 0.30331 0.38417 0.0
O52 O 0.05483 0.11188 0.75986 0.0
Mg53 Mg 0.11087 0.07921 0.6987 0.0
O54 O 0.98987 0.07343 0.66587 0.0
Mg55 Mg 0.03204 0.0273 0.57185 0.0
O56 O 0.10035 0.09015 0.57144 0.0
O57 O 0.16067 0.13236 0.67345 0.0
O58 O 0.07364 0.98134 0.47958 0.0
O59 O 0.98871 0.08239 0.46099 0.0
Mg60 Mg 0.95577 0.99247 0.45608 0.0
O61 O 0.96391 0.96215 0.57318 0.0
O62 O 1.00538 0.97172 0.37257 0.0
O63 O 0.90652 0.05498 0.42782 0.0
O64 O 0.90855 0.93153 0.45385 0.0
C65 C 0.12293 0.97451 0.73432 0.0
C66 C 1.00583 0.10277 0.73152 0.0
C67 C 0.13927 0.12376 0.59418 0.0
C68 C 0.05448 0.96687 0.40293 0.0
C69 C 0.94051 0.08867 0.42184 0.0
C70 C 0.92649 0.92998 0.53454 0.0
O71 O 0.15126 0.01472 0.74677 0.0
O72 O 0.07818 0.97408 0.68096 0.0
O73 O 0.62112 0.58433 0.15359 0.0
Mg74 Mg 0.58406 0.51083 0.13878 0.0
O75 O 0.53659 0.58588 0.14888 0.0
Mg76 Mg 0.50558 0.52585 0.02997 0.0
O77 O 0.57939 0.46772 0.03021 0.0
O78 O 0.64246 0.46083 0.14971 0.0
O79 O 0.46999 0.46608 0.91429 0.0
O80 O 0.54537 0.57826 0.94491 0.0
Mg81 Mg 0.42422 0.56233 0.90204 0.0
O82 O 0.4308 0.57965 0.02814 0.0
O83 O 0.39072 0.49227 0.85399 0.0
O84 O 0.4782 0.60014 0.84362 0.0
O85 O 0.36702 0.60876 0.92303 0.0
C86 C 0.48992 0.46744 0.19304 0.0
C87 C 0.58281 0.6058 0.17654 0.0
C88 C 0.62181 0.4458 0.07274 0.0
C89 C 0.42506 0.4579 0.86291 0.0
C90 C 0.52736 0.60212 0.87737 0.0
C91 C 0.38823 0.60666 1.00285 0.0
O92 O 0.53649 0.48499 0.22347 0.0
O93 O 0.46881 0.47414 0.11548 0.0
C94 C 0.20911 0.23041 0.5072 0.0
C95 C 0.21352 0.21095 0.42697 0.0
C96 C 0.18296 0.20253 0.55874 0.0
C97 C 0.15971 0.15411 0.53199 0.0
H98 H 0.22704 0.26713 0.53105 0.0
H99 H 0.18185 0.21881 0.62103 0.0
S100 S 0.15737 0.08734 0.32475 0.0
N101 N 0.19078 0.14115 0.32112 0.0
N102 N 0.14044 0.08901 0.41799 0.0
C103 C 0.16177 0.13502 0.45034 0.0
C104 C 0.18917 0.16328 0.39796 0.0
C105 C 0.28677 0.68554 0.08561 0.0
C106 C 0.31575 0.70648 0.16314 0.0
C107 C 0.31025 0.65152 0.03655 0.0
C108 C 0.36381 0.63727 0.06282 0.0
H109 H 0.24582 0.69627 0.06206 0.0
H110 H 0.28633 0.63704 0.9765 0.0
S111 S 0.45688 0.68186 0.26153 0.0
N112 N 0.40059 0.71091 0.26483 0.0
N113 N 0.44494 0.64656 0.17232 0.0
C114 C 0.39301 0.6572 0.14125 0.0
C115 C 0.36902 0.69218 0.19124 0.0
C116 C 0.84047 0.81856 0.57043 0.0
C117 C 0.83394 0.82784 0.65381 0.0
C118 C 0.87358 0.84999 0.53508 0.0
C119 C 0.90088 0.89265 0.58088 0.0
H120 H 0.81841 0.78791 0.53088 0.0
H121 H 0.87603 0.84186 0.46971 0.0
S122 S 0.89739 0.9335 0.8019 0.0
N123 N 0.85817 0.8822 0.78212 0.0
N124 N 0.92016 0.94169 0.71495 0.0
C125 C 0.89623 0.90145 0.66531 0.0
C126 C 0.86249 0.8692 0.7016 0.0
C127 C 0.70244 0.32649 0.06533 0.0
C128 C 0.69889 0.31653 0.97836 0.0
C129 C 0.67677 0.36805 0.09416 0.0
C130 C 0.64595 0.40127 0.03722 0.0
H131 H 0.72612 0.30233 0.1116 0.0
H132 H 0.68137 0.37411 0.16215 0.0
S133 S 0.62178 0.39025 0.80229 0.0
N134 N 0.66095 0.34199 0.83465 0.0
N135 N 0.61172 0.42019 0.88926 0.0
C136 C 0.6406 0.39091 0.94971 0.0
C137 C 0.66739 0.34857 0.92018 0.0
C138 C 0.09313 0.8945 0.21883 0.0
C139 C 0.14896 0.89837 0.23754 0.0
C140 C 0.06335 0.91663 0.27304 0.0
C141 C 0.08811 0.94323 0.34882 0.0
H142 H 0.07213 0.8739 0.16179 0.0
H143 H 0.02041 0.91249 0.25527 0.0
S144 S 0.23343 0.96525 0.4265 0.0
N145 N 0.22811 0.93203 0.336 0.0
N146 N 0.17201 0.97222 0.43998 0.0
C147 C 0.14404 0.94696 0.36909 0.0
C148 C 0.17448 0.92487 0.31301 0.0
C149 C 0.6475 0.63759 0.78831 0.0
C150 C 0.62721 0.67598 0.73201 0.0
C151 C 0.61605 0.61547 0.83926 0.0
C152 C 0.56333 0.631 0.83496 0.0
H153 H 0.68681 0.62272 0.78961 0.0
H154 H 0.63208 0.58425 0.87863 0.0
S155 S 0.49548 0.73627 0.70819 0.0
N156 N 0.55419 0.73291 0.68267 0.0
N157 N 0.49499 0.69171 0.77785 0.0
C158 C 0.5442 0.67187 0.78318 0.0
C159 C 0.57616 0.69426 0.73179 0.0
C160 C 0.8558 0.15797 0.24019 0.0
C161 C 0.89359 0.17677 0.19726 0.0
C162 C 0.87161 0.13325 0.31703 0.0
C163 C 0.92587 0.1265 0.35433 0.0
H164 H 0.81371 0.15961 0.2117 0.0
H165 H 0.84088 0.11679 0.34495 0.0
S166 S 0.04029 0.17755 0.27456 0.0
N167 N 0.98743 0.19352 0.20302 0.0
N168 N 0.0173 0.14702 0.34742 0.0
C169 C 0.96401 0.14919 0.3157 0.0
C170 C 0.94783 0.17413 0.23704 0.0
C171 C 0.4452 0.36464 0.68938 0.0
C172 C 0.39235 0.35157 0.6483 0.0
C173 C 0.45646 0.39485 0.76505 0.0
C174 C 0.41519 0.41342 0.80175 0.0
H175 H 0.47784 0.35421 0.6598 0.0
H176 H 0.4972 0.40731 0.7906 0.0
S177 S 0.27106 0.38279 0.72776 0.0
N178 N 0.2992 0.354 0.65635 0.0
N179 N 0.32023 0.41038 0.79851 0.0
C180 C 0.36276 0.39639 0.76593 0.0
C181 C 0.35135 0.36551 0.68922 0.0
C182 C 0.60602 0.63112 0.4122 0.0
C183 C 0.63651 0.67705 0.42695 0.0
C184 C 0.58504 0.61115 0.33015 0.0
C185 C 0.59485 0.63504 0.25857 0.0
H186 H 0.59983 0.60876 0.46448 0.0
H187 H 0.56362 0.57488 0.32306 0.0
S188 S 0.66856 0.7571 0.25816 0.0
N189 N 0.67114 0.74802 0.35979 0.0
N190 N 0.6352 0.7075 0.20555 0.0
C191 C 0.62435 0.68107 0.2709 0.0
C192 C 0.6444 0.70268 0.35489 0.0
C193 C 0.90342 0.11575 0.86697 0.0
C194 C 0.90942 0.16757 0.89391 0.0
C195 C 0.932 0.09535 0.8088 0.0
C196 C 0.96812 0.12606 0.7778 0.0
H197 H 0.87736 0.09077 0.89234 0.0
H198 H 0.92799 0.05491 0.79162 0.0
S199 S 0.99611 0.26426 0.82641 0.0
N200 N 0.95175 0.24944 0.8824 0.0
N201 N 1.00665 0.21089 0.77525 0.0
C202 C 0.97318 0.17813 0.80259 0.0
C203 C 0.94348 0.19898 0.86022 0.0
C204 C 0.4687 0.38725 0.37429 0.0
C205 C 0.41402 0.3749 0.35289 0.0
C206 C 0.49241 0.41752 0.32256 0.0
C207 C 0.46258 0.43654 0.24673 0.0
H208 H 0.49352 0.37334 0.43175 0.0
H209 H 0.53475 0.42562 0.34209 0.0
S210 S 0.31742 0.41655 0.1631 0.0
N211 N 0.33017 0.38509 0.25192 0.0
N212 N 0.37499 0.44132 0.15331 0.0
C213 C 0.4078 0.42429 0.22412 0.0
C214 C 0.38351 0.39358 0.27738 0.0
C215 C 0.20999 0.89966 0.90469 0.0
C216 C 0.17255 0.87402 0.94064 0.0
C217 C 0.19376 0.92825 0.83209 0.0
C218 C 0.13952 0.93203 0.79232 0.0
H219 H 0.25154 0.90142 0.937 0.0
H220 H 0.22367 0.95055 0.81055 0.0
S221 S 0.0272 0.86307 0.85187 0.0
N222 N 0.07998 0.84745 0.92395 0.0
N223 N 0.04941 0.90106 0.78706 0.0
C224 C 0.1024 0.90189 0.82212 0.0
C225 C 0.11894 0.87302 0.89657 0.0
loop_
_geom_bond_atom_site_label_1
_geom_bond_atom_site_label_2
_geom_bond_distance
_geom_bond_site_symmetry_2
_ccdc_geom_bond_type
H0 C7 0.929 . S
H1 C10 0.930 . S
H2 C12 0.929 . S
H3 C4 0.969 . S
C4 H3 0.969 . S
C4 O5 1.550 . S
C4 H6 0.973 . S
O5 C4 1.550 . S
O5 C11 1.412 . S
H6 C4 0.973 . S
C7 H0 0.929 . S
C7 C8 1.404 . S
C7 C9 1.364 . S
C8 C7 1.404 . S
C8 C12 1.376 1_554 S
C9 C7 1.364 . S
C9 C10 1.374 . S
C10 H1 0.930 . S
C10 C9 1.374 . S
C10 C11 1.383 . S
C11 O5 1.412 . S
C11 C10 1.383 . S
C11 C12 1.394 1_554 S
C12 H2 0.929 . S
C12 C8 1.376 1_556 S
C12 C11 1.394 1_556 S
H13 C20 0.929 . S
H14 C23 0.930 . S
H15 C25 0.929 . S
H16 C17 0.969 . S
C17 H16 0.969 . S
C17 O18 1.550 . S
C17 H19 0.973 . S
O18 C17 1.550 . S
O18 C24 1.412 . S
H19 C17 0.973 . S
C20 H13 0.929 . S
C20 C21 1.400 . S
C20 C22 1.364 . S
C21 C20 1.400 . S
C21 C25 1.377 . S
C22 C20 1.364 . S
C22 C23 1.374 . S
C23 H14 0.930 . S
C23 C22 1.374 . S
C23 C24 1.383 . S
C24 O18 1.412 . S
C24 C23 1.383 . S
C24 C25 1.394 . S
C25 H15 0.929 . S
C25 C21 1.377 . S
C25 C24 1.394 . S
H26 C33 0.929 . S
H27 C36 0.930 . S
H28 C38 0.929 . S
H29 C30 0.969 . S
C30 H29 0.969 . S
C30 O31 1.550 1_556 S
C30 H32 0.973 . S
O31 C30 1.550 1_554 S
O31 C37 1.412 . S
H32 C30 0.973 . S
C33 H26 0.929 . S
C33 C34 1.400 . S
C33 C35 1.364 1_554 S
C34 C33 1.400 . S
C34 C38 1.377 . S
C35 C33 1.364 1_556 S
C35 C36 1.374 . S
C36 H27 0.930 . S
C36 C35 1.374 . S
C36 C37 1.383 1_556 S
C37 O31 1.412 . S
C37 C36 1.383 1_554 S
C37 C38 1.394 . S
C38 H28 0.929 . S
C38 C34 1.377 . S
C38 C37 1.394 . S
H39 C46 0.929 . S
H40 C49 0.930 . S
H41 C51 0.929 . S
H42 C43 0.969 . S
C43 H42 0.969 . S
C43 O44 1.550 . S
C43 H45 0.973 . S
O44 C43 1.550 . S
O44 C50 1.412 . S
H45 C43 0.973 . S
C46 H39 0.929 . S
C46 C47 1.400 . S
C46 C48 1.364 . S
C47 C46 1.400 . S
C47 C51 1.377 . S
C48 C46 1.364 . S
C48 C49 1.374 . S
C49 H40 0.930 . S
C49 C48 1.374 . S
C49 C50 1.383 . S
C50 O44 1.412 . S
C50 C49 1.383 . S
C50 C51 1.394 . S
C51 H41 0.929 . S
C51 C47 1.377 . S
C51 C50 1.394 . S
O52 Mg53 1.990 . S
O52 C66 1.253 1_455 S
Mg53 O52 1.990 . S
Mg53 O56 2.180 . S
Mg53 O57 2.117 . S
Mg53 O71 2.030 . S
O54 Mg55 2.072 1_655 S
O54 C66 1.260 . S
Mg55 O54 2.072 1_455 S
Mg55 O56 2.099 . S
Mg55 O58 2.079 1_545 S
Mg55 O59 2.072 1_455 S
Mg55 O61 2.099 1_445 S
Mg55 O72 2.079 1_545 S
O56 Mg53 2.180 . S
O56 Mg55 2.099 . S
O56 C67 1.279 . S
O57 Mg53 2.117 . S
O57 C67 1.250 . S
O58 Mg55 2.079 1_565 S
O58 C68 1.264 . S
O59 Mg55 2.072 1_655 S
O59 C69 1.260 . S
Mg60 O61 2.180 . S
Mg60 O62 2.030 1_655 S
Mg60 O63 1.990 1_565 S
Mg60 O64 2.117 . S
O61 Mg55 2.099 1_665 S
O61 Mg60 2.180 . S
O61 C70 1.279 . S
O62 Mg60 2.030 1_455 S
O62 C68 1.248 . S
O63 Mg60 1.990 1_545 S
O63 C69 1.253 . S
O64 Mg60 2.117 . S
O64 C70 1.250 . S
C65 O71 1.248 1_565 S
C65 O72 1.264 . S
C66 O52 1.253 1_655 S
C66 O54 1.260 . S
C67 O56 1.279 . S
C67 O57 1.250 . S
C68 O58 1.264 . S
C68 O62 1.248 . S
C69 O59 1.260 . S
C69 O63 1.253 . S
C70 O61 1.279 . S
C70 O64 1.250 . S
O71 Mg53 2.030 . S
O71 C65 1.248 1_545 S
O72 Mg55 2.079 1_565 S
O72 C65 1.264 . S
O73 Mg74 1.990 . S
O73 C87 1.253 . S
Mg74 O73 1.990 . S
Mg74 O77 2.180 . S
Mg74 O78 2.117 . S
Mg74 O92 2.030 . S
O75 Mg76 2.072 . S
O75 C87 1.260 . S
Mg76 O75 2.072 . S
Mg76 O77 2.099 . S
Mg76 O79 2.079 1_554 S
Mg76 O80 2.072 1_554 S
Mg76 O82 2.099 . S
Mg76 O93 2.079 . S
O77 Mg74 2.180 . S
O77 Mg76 2.099 . S
O77 C88 1.279 . S
O78 Mg74 2.117 . S
O78 C88 1.250 . S
O79 Mg76 2.079 1_556 S
O79 C89 1.264 . S
O80 Mg76 2.072 1_556 S
O80 C90 1.260 . S
Mg81 O82 2.180 1_556 S
Mg81 O83 2.030 . S
Mg81 O84 1.990 . S
Mg81 O85 2.117 . S
O82 Mg76 2.099 . S
O82 Mg81 2.180 1_554 S
O82 C91 1.279 . S
O83 Mg81 2.030 . S
O83 C89 1.248 . S
O84 Mg81 1.990 . S
O84 C90 1.253 . S
O85 Mg81 2.117 . S
O85 C91 1.250 1_556 S
C86 O92 1.248 . S
C86 O93 1.264 . S
C87 O73 1.253 . S
C87 O75 1.260 . S
C88 O77 1.279 . S
C88 O78 1.250 . S
C89 O79 1.264 . S
C89 O83 1.248 . S
C90 O80 1.260 . S
C90 O84 1.253 . S
C91 O82 1.279 . S
C91 O85 1.250 1_554 S
O92 Mg74 2.030 . S
O92 C86 1.248 . S
O93 Mg76 2.079 . S
O93 C86 1.264 . S
C94 C95 1.369 . S
C94 C96 1.419 . S
C94 H98 0.930 . S
C95 C94 1.369 . S
C95 C104 1.429 . S
C96 C94 1.419 . S
C96 C97 1.363 . S
C96 H99 0.929 . S
C97 C96 1.363 . S
C97 C103 1.428 . S
H98 C94 0.930 . S
H99 C96 0.929 . S
S100 N101 1.613 . S
S100 N102 1.610 . S
N101 S100 1.613 . S
N101 C104 1.350 . S
N102 S100 1.610 . S
N102 C103 1.351 . S
C103 C97 1.428 . S
C103 N102 1.351 . S
C103 C104 1.434 . S
C104 C95 1.429 . S
C104 N101 1.350 . S
C104 C103 1.434 . S
C105 C106 1.369 . S
C105 C107 1.419 . S
C105 H109 0.930 1_554 S
C106 C105 1.369 . S
C106 C115 1.429 . S
C107 C105 1.419 . S
C107 C108 1.363 . S
C107 H110 0.929 1_554 S
C108 C107 1.363 . S
C108 C114 1.428 . S
H109 C105 0.930 1_556 S
H110 C107 0.929 1_556 S
S111 N112 1.613 . S
S111 N113 1.610 . S
N112 S111 1.613 . S
N112 C115 1.350 . S
N113 S111 1.610 . S
N113 C114 1.351 . S
C114 C108 1.428 . S
C114 N113 1.351 . S
C114 C115 1.434 . S
C115 C106 1.429 . S
C115 N112 1.350 . S
C115 C114 1.434 . S
C116 C117 1.369 . S
C116 C118 1.419 . S
C116 H120 0.930 . S
C117 C116 1.369 . S
C117 C126 1.429 . S
C118 C116 1.419 . S
C118 C119 1.363 . S
C118 H121 0.929 . S
C119 C118 1.363 . S
C119 C125 1.428 . S
H120 C116 0.930 . S
H121 C118 0.929 . S
S122 N123 1.613 . S
S122 N124 1.610 . S
N123 S122 1.613 . S
N123 C126 1.350 . S
N124 S122 1.610 . S
N124 C125 1.351 . S
C125 C119 1.428 . S
C125 N124 1.351 . S
C125 C126 1.434 . S
C126 C117 1.429 . S
C126 N123 1.350 . S
C126 C125 1.434 . S
C127 C128 1.369 . S
C127 C129 1.419 . S
C127 H131 0.930 . S
C128 C127 1.369 . S
C128 C137 1.429 1_556 S
C129 C127 1.419 . S
C129 C130 1.363 1_556 S
C129 H132 0.929 . S
C130 C129 1.363 1_554 S
C130 C136 1.428 . S
H131 C127 0.930 . S
H132 C129 0.929 . S
S133 N134 1.613 . S
S133 N135 1.610 . S
N134 S133 1.613 . S
N134 C137 1.350 . S
N135 S133 1.610 . S
N135 C136 1.351 . S
C136 C130 1.428 . S
C136 N135 1.351 . S
C136 C137 1.434 . S
C137 C128 1.429 1_554 S
C137 N134 1.350 . S
C137 C136 1.434 . S
C138 C139 1.369 . S
C138 C140 1.419 . S
C138 H142 0.930 . S
C139 C138 1.369 . S
C139 C148 1.429 . S
C140 C138 1.419 . S
C140 C141 1.363 . S
C140 H143 0.929 . S
C141 C140 1.363 . S
C141 C147 1.428 . S
H142 C138 0.930 . S
H143 C140 0.929 . S
S144 N145 1.613 1_545 S
S144 N146 1.610 . S
N145 S144 1.613 1_565 S
N145 C148 1.350 . S
N146 S144 1.610 . S
N146 C147 1.351 1_545 S
C147 C141 1.428 . S
C147 N146 1.351 1_565 S
C147 C148 1.434 . S
C148 C139 1.429 . S
C148 N145 1.350 . S
C148 C147 1.434 . S
C149 C150 1.369 . S
C149 C151 1.419 . S
C149 H153 0.930 . S
C150 C149 1.369 . S
C150 C159 1.429 . S
C151 C149 1.419 . S
C151 C152 1.363 . S
C151 H154 0.929 . S
C152 C151 1.363 . S
C152 C158 1.428 . S
H153 C149 0.930 . S
H154 C151 0.929 . S
S155 N156 1.613 . S
S155 N157 1.610 . S
N156 S155 1.613 . S
N156 C159 1.350 . S
N157 S155 1.610 . S
N157 C158 1.351 . S
C158 C152 1.428 . S
C158 N157 1.351 . S
C158 C159 1.434 . S
C159 C150 1.429 . S
C159 N156 1.350 . S
C159 C158 1.434 . S
C160 C161 1.369 . S
C160 C162 1.419 . S
C160 H164 0.930 . S
C161 C160 1.369 . S
C161 C170 1.429 . S
C162 C160 1.419 . S
C162 C163 1.363 . S
C162 H165 0.929 . S
C163 C162 1.363 . S
C163 C169 1.428 . S
H164 C160 0.930 . S
H165 C162 0.929 . S
S166 N167 1.613 . S
S166 N168 1.610 . S
N167 S166 1.613 . S
N167 C170 1.350 . S
N168 S166 1.610 . S
N168 C169 1.351 . S
C169 C163 1.428 . S
C169 N168 1.351 . S
C169 C170 1.434 . S
C170 C161 1.429 . S
C170 N167 1.350 . S
C170 C169 1.434 . S
C171 C172 1.369 . S
C171 C173 1.419 . S
C171 H175 0.930 . S
C172 C171 1.369 . S
C172 C181 1.429 . S
C173 C171 1.419 . S
C173 C174 1.363 . S
C173 H176 0.929 . S
C174 C173 1.363 . S
C174 C180 1.428 . S
H175 C171 0.930 . S
H176 C173 0.929 . S
S177 N178 1.613 . S
S177 N179 1.610 . S
N178 S177 1.613 . S
N178 C181 1.350 . S
N179 S177 1.610 . S
N179 C180 1.351 . S
C180 C174 1.428 . S
C180 N179 1.351 . S
C180 C181 1.434 . S
C181 C172 1.429 . S
C181 N178 1.350 . S
C181 C180 1.434 . S
C182 C183 1.369 . S
C182 C184 1.419 . S
C182 H186 0.930 . S
C183 C182 1.369 . S
C183 C192 1.429 . S
C184 C182 1.419 . S
C184 C185 1.363 . S
C184 H187 0.929 . S
C185 C184 1.363 . S
C185 C191 1.428 . S
H186 C182 0.930 . S
H187 C184 0.929 . S
S188 N189 1.613 . S
S188 N190 1.610 . S
N189 S188 1.613 . S
N189 C192 1.350 . S
N190 S188 1.610 . S
N190 C191 1.351 . S
C191 C185 1.428 . S
C191 N190 1.351 . S
C191 C192 1.434 . S
C192 C183 1.429 . S
C192 N189 1.350 . S
C192 C191 1.434 . S
C193 C194 1.369 . S
C193 C195 1.419 . S
C193 H197 0.930 . S
C194 C193 1.369 . S
C194 C203 1.429 . S
C195 C193 1.419 . S
C195 C196 1.363 . S
C195 H198 0.929 . S
C196 C195 1.363 . S
C196 C202 1.428 . S
H197 C193 0.930 . S
H198 C195 0.929 . S
S199 N200 1.613 . S
S199 N201 1.610 . S
N200 S199 1.613 . S
N200 C203 1.350 . S
N201 S199 1.610 . S
N201 C202 1.351 . S
C202 C196 1.428 . S
C202 N201 1.351 . S
C202 C203 1.434 . S
C203 C194 1.429 . S
C203 N200 1.350 . S
C203 C202 1.434 . S
C204 C205 1.369 . S
C204 C206 1.419 . S
C204 H208 0.930 . S
C205 C204 1.369 . S
C205 C214 1.429 . S
C206 C204 1.419 . S
C206 C207 1.363 . S
C206 H209 0.929 . S
C207 C206 1.363 . S
C207 C213 1.428 . S
H208 C204 0.930 . S
H209 C206 0.929 . S
S210 N211 1.613 . S
S210 N212 1.610 . S
N211 S210 1.613 . S
N211 C214 1.350 . S
N212 S210 1.610 . S
N212 C213 1.351 . S
C213 C207 1.428 . S
C213 N212 1.351 . S
C213 C214 1.434 . S
C214 C205 1.429 . S
C214 N211 1.350 . S
C214 C213 1.434 . S
C215 C216 1.369 . S
C215 C217 1.419 . S
C215 H219 0.930 . S
C216 C215 1.369 . S
C216 C225 1.429 . S
C217 C215 1.419 . S
C217 C218 1.363 . S
C217 H220 0.929 . S
C218 C217 1.363 . S
C218 C224 1.428 . S
H219 C215 0.930 . S
H220 C217 0.929 . S
S221 N222 1.613 . S
S221 N223 1.610 . S
N222 S221 1.613 . S
N222 C225 1.350 . S
N223 S221 1.610 . S
N223 C224 1.351 . S
C224 C218 1.428 . S
C224 N223 1.351 . S
C224 C225 1.434 . S
C225 C216 1.429 . S
C225 N222 1.350 . S
C225 C224 1.434 . S
C97 C67 1.290 . S
C95 C43 1.404 . S
C106 C4 1.464 . S
C108 C91 1.311 . S
C117 C17 1.498 . S
C119 C70 1.368 . S
C128 C30 1.570 . S
C130 C88 1.383 . S
C141 C68 1.460 . S
C139 C9 1.463 . S
C152 C90 1.492 . S
C150 C21 1.573 . S
C161 C34 1.566 . S
C163 C69 1.514 . S
C172 C48 1.485 . S
C174 C89 1.427 . S
C185 C87 1.496 . S
C183 C22 1.547 . S
C196 C66 1.501 . S
C194 C35 1.551 . S
C207 C86 1.444 . S
C205 C47 1.477 . S
C216 C8 1.490 1_556 S
C218 C65 1.437 . S
