# Generated by pormake.
# Topology cml, (3,6)-cn, num edge types: 1
# Building blocks:
#     Node 0, Type 0, BuildingBlock: QEWDON_clean_linker_0, # of connection points: 3
#     Node 1, Type 0, BuildingBlock: QEWDON_clean_linker_0, # of connection points: 3
#     Node 2, Type 0, BuildingBlock: QEWDON_clean_linker_0, # of connection points: 3
#     Node 3, Type 0, BuildingBlock: QEWDON_clean_linker_0, # of connection points: 3
#     Node 4, Type 0, BuildingBlock: QEWDON_clean_linker_0, # of connection points: 3
#     Node 5, Type 0, BuildingBlock: QEWDON_clean_linker_0, # of connection points: 3
#     Node 6, Type 0, BuildingBlock: QEWDON_clean_linker_0, # of connection points: 3
#     Node 7, Type 0, BuildingBlock: QEWDON_clean_linker_0, # of connection points: 3
#     Node 8, Type 1, BuildingBlock: OJICUG_clean_sbu_0, # of connection points: 6
#     Node 9, Type 1, BuildingBlock: OJICUG_clean_sbu_0, # of connection points: 6
#     Node 10, Type 1, BuildingBlock: OJICUG_clean_sbu_0, # of connection points: 6
#     Node 11, Type 1, BuildingBlock: OJICUG_clean_sbu_0, # of connection points: 6
#     Edge 12, Type (0, 1), None
#     Edge 13, Type (0, 1), None
#     Edge 14, Type (0, 1), None
#     Edge 15, Type (0, 1), None
#     Edge 16, Type (0, 1), None
#     Edge 17, Type (0, 1), None
#     Edge 18, Type (0, 1), None
#     Edge 19, Type (0, 1), None
#     Edge 20, Type (0, 1), None
#     Edge 21, Type (0, 1), None
#     Edge 22, Type (0, 1), None
#     Edge 23, Type (0, 1), None
#     Edge 24, Type (0, 1), None
#     Edge 25, Type (0, 1), None
#     Edge 26, Type (0, 1), None
#     Edge 27, Type (0, 1), None
#     Edge 28, Type (0, 1), None
#     Edge 29, Type (0, 1), None
#     Edge 30, Type (0, 1), None
#     Edge 31, Type (0, 1), None
#     Edge 32, Type (0, 1), None
#     Edge 33, Type (0, 1), None
#     Edge 34, Type (0, 1), None
#     Edge 35, Type (0, 1), None
# Relax obj value: 0.010
# Max RMSD: 0.090
# Mean RMSD: 0.075
data_MOF--net-cml--node1-OJICUG_clean_sbu_0--node2-QEWDON_clean_linker_0--edge1-none
_symmetry_space_group_name_H-M    P1
_symmetry_Int_Tables_number       1
_symmetry_cell_setting            triclinic
loop_
_symmetry_equiv_pos_as_xyz
'x, y, z'
_cell_length_a     20.437867
_cell_length_b     19.436964
_cell_length_c     17.007555
_cell_angle_alpha  89.999975
_cell_angle_beta   90.00007
_cell_angle_gamma 90.886166
loop_
_atom_site_label
_atom_site_type_symbol
_atom_site_fract_x
_atom_site_fract_y
_atom_site_fract_z
_atom_type_partial_charge
H0 H 0.29475 0.47017 0.94477 0.0
C1 C 0.317 0.44348 -0.00621 0.0
C2 C 0.38281 0.45534 0.01042 0.0
C3 C 0.27878 0.40021 0.04223 0.0
H4 H 0.46271 0.43341 0.08697 0.0
C5 C 0.41159 0.42224 0.07385 0.0
C6 C 0.37436 0.38069 0.12526 0.0
C7 C 0.30738 0.36879 0.10887 0.0
C8 C 0.20771 0.39736 0.02629 0.0
H9 H 0.27718 0.33971 0.14977 0.0
C10 C 0.17766 0.33829 -0.00632 0.0
C11 C 0.11402 0.3421 0.96225 0.0
C12 C 0.17249 0.45884 0.03046 0.0
H13 H 0.19507 0.50508 0.05447 0.0
C14 C 0.10911 0.46211 0.00057 0.0
H15 H 0.20448 0.29074 0.98967 0.0
C16 C 0.08025 0.40431 0.9657 0.0
H17 H 0.03088 0.40769 0.94289 0.0
H18 H 0.08266 0.50987 0.00341 0.0
H19 H 0.71804 0.51922 0.44477 0.0
C20 C 0.6958 0.5459 0.49379 0.0
C21 C 0.62999 0.53404 0.51042 0.0
C22 C 0.73401 0.58918 0.54223 0.0
H23 H 0.55009 0.55597 0.58697 0.0
C24 C 0.6012 0.56714 0.57385 0.0
C25 C 0.63844 0.60869 0.62526 0.0
C26 C 0.70541 0.6206 0.60887 0.0
C27 C 0.80509 0.59202 0.52629 0.0
H28 H 0.73562 0.64968 0.64977 0.0
C29 C 0.83514 0.65109 0.49368 0.0
C30 C 0.89878 0.64729 0.46225 0.0
C31 C 0.84031 0.53055 0.53046 0.0
H32 H 0.81772 0.4843 0.55447 0.0
C33 C 0.90368 0.52727 0.50057 0.0
H34 H 0.80832 0.69865 0.48967 0.0
C35 C 0.93255 0.58508 0.4657 0.0
H36 H 0.98192 0.58169 0.44289 0.0
H37 H 0.93013 0.47951 0.50342 0.0
H38 H 0.70333 0.45329 0.92509 0.0
C39 C 0.68872 0.44496 0.98574 0.0
C40 C 0.64822 0.4926 0.02283 0.0
C41 C 0.70182 0.38161 0.02135 0.0
H42 H 0.59554 0.51602 0.12865 0.0
C43 C 0.62813 0.48012 0.1004 0.0
C44 C 0.6376 0.41571 0.1353 0.0
C45 C 0.67521 0.36647 0.09568 0.0
C46 C 0.72662 0.32635 0.97078 0.0
H47 H 0.67989 0.31516 0.11984 0.0
C48 C 0.79345 0.31016 0.96845 0.0
C49 C 0.81652 0.26518 0.91019 0.0
C50 C 0.68308 0.29556 0.91693 0.0
H51 H 0.63158 0.30809 0.91772 0.0
C52 C 0.70585 0.25038 0.86002 0.0
H53 H 0.82735 0.33417 0.00949 0.0
C54 C 0.77226 0.23583 0.85599 0.0
H55 H 0.78902 0.20058 0.81116 0.0
H56 H 0.6721 0.22728 0.8183 0.0
H57 H 0.30947 0.5361 0.42509 0.0
C58 C 0.32408 0.54442 0.48574 0.0
C59 C 0.36457 0.49678 0.52283 0.0
C60 C 0.31097 0.60777 0.52135 0.0
H61 H 0.41726 0.47336 0.62865 0.0
C62 C 0.38467 0.50926 0.6004 0.0
C63 C 0.3752 0.57367 0.6353 0.0
C64 C 0.33759 0.62291 0.59568 0.0
C65 C 0.28618 0.66304 0.47078 0.0
H66 H 0.33291 0.67422 0.61984 0.0
C67 C 0.21934 0.67922 0.46845 0.0
C68 C 0.19628 0.7242 0.41019 0.0
C69 C 0.32972 0.69382 0.41693 0.0
H70 H 0.38121 0.68129 0.41771 0.0
C71 C 0.30694 0.739 0.36002 0.0
H72 H 0.18544 0.65522 0.50949 0.0
C73 C 0.24054 0.75356 0.35599 0.0
H74 H 0.22378 0.7888 0.31115 0.0
H75 H 0.3407 0.7621 0.31829 0.0
H76 H 0.79475 0.97017 0.94477 0.0
C77 C 0.817 0.94348 -0.00621 0.0
C78 C 0.88281 0.95534 0.01042 0.0
C79 C 0.77878 0.90021 0.04223 0.0
H80 H 0.96271 0.93341 0.08697 0.0
C81 C 0.91159 0.92224 0.07385 0.0
C82 C 0.87436 0.88069 0.12526 0.0
C83 C 0.80738 0.86879 0.10887 0.0
C84 C 0.70771 0.89736 0.02629 0.0
H85 H 0.77718 0.83971 0.14977 0.0
C86 C 0.67766 0.83829 -0.00632 0.0
C87 C 0.61402 0.8421 0.96225 0.0
C88 C 0.67249 0.95884 0.03046 0.0
H89 H 0.69507 0.00508 0.05447 0.0
C90 C 0.60911 0.96211 0.00057 0.0
H91 H 0.70448 0.79074 0.98967 0.0
C92 C 0.58025 0.90431 0.9657 0.0
H93 H 0.53088 0.90769 0.94289 0.0
H94 H 0.58267 0.00987 0.00341 0.0
H95 H 0.21804 0.01922 0.44477 0.0
C96 C 0.1958 0.0459 0.49379 0.0
C97 C 0.12999 0.03404 0.51042 0.0
C98 C 0.23401 0.08918 0.54223 0.0
H99 H 0.05009 0.05597 0.58697 0.0
C100 C 0.1012 0.06714 0.57385 0.0
C101 C 0.13844 0.10869 0.62526 0.0
C102 C 0.20541 0.1206 0.60887 0.0
C103 C 0.30509 0.09202 0.52629 0.0
H104 H 0.23562 0.14968 0.64977 0.0
C105 C 0.33514 0.15109 0.49368 0.0
C106 C 0.39878 0.14729 0.46225 0.0
C107 C 0.34031 0.03054 0.53046 0.0
H108 H 0.31772 0.9843 0.55447 0.0
C109 C 0.40368 0.02727 0.50057 0.0
H110 H 0.30832 0.19865 0.48967 0.0
C111 C 0.43255 0.08508 0.4657 0.0
H112 H 0.48192 0.08169 0.44289 0.0
H113 H 0.43013 0.97951 0.50341 0.0
H114 H 0.20333 0.95329 0.92509 0.0
C115 C 0.18872 0.94496 0.98574 0.0
C116 C 0.14822 0.9926 0.02283 0.0
C117 C 0.20182 0.88161 0.02135 0.0
H118 H 0.09554 0.01602 0.12865 0.0
C119 C 0.12813 0.98012 0.1004 0.0
C120 C 0.1376 0.91571 0.1353 0.0
C121 C 0.17521 0.86647 0.09568 0.0
C122 C 0.22662 0.82635 0.97078 0.0
H123 H 0.17989 0.81516 0.11984 0.0
C124 C 0.29345 0.81016 0.96845 0.0
C125 C 0.31651 0.76518 0.91019 0.0
C126 C 0.18308 0.79556 0.91693 0.0
H127 H 0.13158 0.80809 0.91772 0.0
C128 C 0.20585 0.75038 0.86003 0.0
H129 H 0.32735 0.83417 0.00949 0.0
C130 C 0.27226 0.73582 0.85599 0.0
H131 H 0.28902 0.70057 0.81116 0.0
H132 H 0.17209 0.72728 0.8183 0.0
H133 H 0.80947 0.0361 0.42509 0.0
C134 C 0.82408 0.04442 0.48574 0.0
C135 C 0.86457 -0.00322 0.52283 0.0
C136 C 0.81097 0.10777 0.52135 0.0
H137 H 0.91726 0.97336 0.62865 0.0
C138 C 0.88467 0.00926 0.6004 0.0
C139 C 0.8752 0.07367 0.6353 0.0
C140 C 0.83759 0.12291 0.59568 0.0
C141 C 0.78618 0.16304 0.47078 0.0
H142 H 0.83291 0.17422 0.61984 0.0
C143 C 0.71934 0.17922 0.46845 0.0
C144 C 0.69628 0.2242 0.41019 0.0
C145 C 0.82972 0.19382 0.41693 0.0
H146 H 0.88121 0.18129 0.41771 0.0
C147 C 0.80694 0.239 0.36002 0.0
H148 H 0.68544 0.15522 0.50949 0.0
C149 C 0.74054 0.25356 0.35599 0.0
H150 H 0.72378 0.28881 0.31115 0.0
H151 H 0.8407 0.2621 0.31829 0.0
Sc152 Sc 0.01102 0.77679 0.28594 0.0
Sc153 Sc 0.99406 0.95217 0.32614 0.0
Sc154 Sc 0.0187 0.83849 0.48155 0.0
O155 O 0.00709 0.85537 0.36469 0.0
C156 C 0.93322 0.70845 0.43154 0.0
C157 C 0.90545 0.86698 0.20214 0.0
C158 C 0.90377 0.94935 0.47468 0.0
C159 C 0.09542 0.89652 0.20267 0.0
C160 C 0.12717 0.74373 0.40517 0.0
C161 C 0.09189 0.98186 0.46766 0.0
O162 O 0.95307 0.7082 0.3604 0.0
O163 O 0.92946 0.92035 0.23454 0.0
O164 O 0.94005 0.90676 0.51054 0.0
O165 O 0.07177 0.83553 0.20516 0.0
O166 O 0.10108 0.77143 0.46491 0.0
O167 O 0.05715 0.00139 0.41062 0.0
O168 O 0.10091 0.743 0.33746 0.0
O169 O 0.07612 0.94446 0.24774 0.0
O170 O 0.0884 0.92165 0.49628 0.0
O171 O 0.92352 0.80654 0.22048 0.0
O172 O 0.9501 0.75396 0.48128 0.0
O173 O 0.91186 0.96517 0.40266 0.0
Sc174 Sc 1.00178 0.21259 0.78594 0.0
Sc175 Sc 0.01874 0.03721 0.82614 0.0
Sc176 Sc 0.9941 0.1509 0.98155 0.0
O177 O 1.00571 0.13401 0.86469 0.0
C178 C 0.07957 0.28093 0.93154 0.0
C179 C 0.10734 0.1224 0.70214 0.0
C180 C 0.10903 0.04004 0.97468 0.0
C181 C 0.91738 0.09286 0.70267 0.0
C182 C 0.88563 0.24566 0.90517 0.0
C183 C 0.9209 0.00752 0.96766 0.0
O184 O 0.05973 0.28118 0.8604 0.0
O185 O 0.08334 0.06903 0.73454 0.0
O186 O 0.07275 0.08262 0.01054 0.0
O187 O 0.94103 0.15385 0.70516 0.0
O188 O 0.91172 0.21795 0.96491 0.0
O189 O 0.95565 0.98799 0.91062 0.0
O190 O 0.91189 0.24638 0.83746 0.0
O191 O 0.93668 0.04492 0.74774 0.0
O192 O 0.9244 0.06774 -0.00372 0.0
O193 O 0.08928 0.18284 0.72048 0.0
O194 O 0.0627 0.23542 0.98128 0.0
O195 O 0.10094 0.02422 0.90266 0.0
Sc196 Sc 0.51102 0.27679 0.28594 0.0
Sc197 Sc 0.49406 0.45217 0.32614 0.0
Sc198 Sc 0.5187 0.33849 0.48155 0.0
O199 O 0.50709 0.35537 0.36469 0.0
C200 C 0.43322 0.20845 0.43154 0.0
C201 C 0.40545 0.36698 0.20214 0.0
C202 C 0.40377 0.44935 0.47468 0.0
C203 C 0.59542 0.39652 0.20267 0.0
C204 C 0.62717 0.24373 0.40517 0.0
C205 C 0.59189 0.48186 0.46766 0.0
O206 O 0.45307 0.2082 0.3604 0.0
O207 O 0.42946 0.42035 0.23454 0.0
O208 O 0.44005 0.40676 0.51054 0.0
O209 O 0.57177 0.33553 0.20516 0.0
O210 O 0.60108 0.27143 0.46491 0.0
O211 O 0.55715 0.50139 0.41062 0.0
O212 O 0.60091 0.243 0.33746 0.0
O213 O 0.57612 0.44446 0.24774 0.0
O214 O 0.5884 0.42165 0.49628 0.0
O215 O 0.42352 0.30654 0.22048 0.0
O216 O 0.4501 0.25396 0.48128 0.0
O217 O 0.41186 0.46517 0.40266 0.0
Sc218 Sc 0.50178 0.71259 0.78594 0.0
Sc219 Sc 0.51874 0.53721 0.82614 0.0
Sc220 Sc 0.4941 0.6509 0.98155 0.0
O221 O 0.50571 0.63401 0.86469 0.0
C222 C 0.57957 0.78093 0.93154 0.0
C223 C 0.60734 0.6224 0.70214 0.0
C224 C 0.60903 0.54004 0.97468 0.0
C225 C 0.41738 0.59286 0.70267 0.0
C226 C 0.38563 0.74566 0.90517 0.0
C227 C 0.4209 0.50752 0.96766 0.0
O228 O 0.55972 0.78118 0.8604 0.0
O229 O 0.58334 0.56903 0.73454 0.0
O230 O 0.57275 0.58262 0.01054 0.0
O231 O 0.44103 0.65385 0.70516 0.0
O232 O 0.41172 0.71795 0.96491 0.0
O233 O 0.45565 0.48799 0.91062 0.0
O234 O 0.41189 0.74638 0.83746 0.0
O235 O 0.43668 0.54492 0.74774 0.0
O236 O 0.4244 0.56774 -0.00372 0.0
O237 O 0.58928 0.68284 0.72048 0.0
O238 O 0.5627 0.73542 0.98128 0.0
O239 O 0.60094 0.52422 0.90266 0.0
loop_
_geom_bond_atom_site_label_1
_geom_bond_atom_site_label_2
_geom_bond_distance
_geom_bond_site_symmetry_2
_ccdc_geom_bond_type
H0 C1 0.949 . S
C1 H0 0.949 . S
C1 C2 1.395 . S
C1 C3 1.391 1_556 S
C2 C1 1.395 . S
C2 C5 1.390 1_556 S
C3 C1 1.391 1_554 S
C3 C7 1.387 . S
C3 C8 1.491 . S
H4 C5 0.950 . S
C5 C2 1.390 1_554 S
C5 H4 0.950 . S
C5 C6 1.378 . S
C6 C5 1.378 . S
C6 C7 1.409 . S
C7 C3 1.387 . S
C7 C6 1.409 . S
C7 H9 0.951 . S
C8 C3 1.491 . S
C8 C10 1.382 1_554 S
C8 C12 1.404 . S
H9 C7 0.951 . S
C10 C8 1.382 1_556 S
C10 C11 1.390 . S
C10 H15 0.949 . S
C11 C10 1.390 . S
C11 C16 1.399 1_556 S
C12 C8 1.404 . S
C12 H13 0.950 . S
C12 C14 1.375 . S
H13 C12 0.950 . S
C14 C12 1.375 . S
C14 C16 1.382 . S
C14 H18 0.950 . S
H15 C10 0.949 . S
C16 C11 1.399 1_554 S
C16 C14 1.382 . S
C16 H17 0.952 . S
H17 C16 0.952 . S
H18 C14 0.950 . S
H19 C20 0.949 . S
C20 H19 0.949 . S
C20 C21 1.395 . S
C20 C22 1.391 . S
C21 C20 1.395 . S
C21 C24 1.390 . S
C22 C20 1.391 . S
C22 C26 1.387 . S
C22 C27 1.491 . S
H23 C24 0.950 . S
C24 C21 1.390 . S
C24 H23 0.950 . S
C24 C25 1.378 . S
C25 C24 1.378 . S
C25 C26 1.409 . S
C26 C22 1.387 . S
C26 C25 1.409 . S
C26 H28 0.951 . S
C27 C22 1.491 . S
C27 C29 1.382 . S
C27 C31 1.404 . S
H28 C26 0.951 . S
C29 C27 1.382 . S
C29 C30 1.390 . S
C29 H34 0.949 . S
C30 C29 1.390 . S
C30 C35 1.399 . S
C31 C27 1.404 . S
C31 H32 0.950 . S
C31 C33 1.375 . S
H32 C31 0.950 . S
C33 C31 1.375 . S
C33 C35 1.382 . S
C33 H37 0.950 . S
H34 C29 0.949 . S
C35 C30 1.399 . S
C35 C33 1.382 . S
C35 H36 0.952 . S
H36 C35 0.952 . S
H37 C33 0.950 . S
H38 C39 0.949 . S
C39 H38 0.949 . S
C39 C40 1.395 . S
C39 C41 1.391 1_556 S
C40 C39 1.395 . S
C40 C43 1.390 1_556 S
C41 C39 1.391 1_554 S
C41 C45 1.387 . S
C41 C46 1.491 . S
H42 C43 0.950 . S
C43 C40 1.390 1_554 S
C43 H42 0.950 . S
C43 C44 1.378 . S
C44 C43 1.378 . S
C44 C45 1.409 . S
C45 C41 1.387 . S
C45 C44 1.409 . S
C45 H47 0.951 . S
C46 C41 1.491 . S
C46 C48 1.382 1_554 S
C46 C50 1.404 . S
H47 C45 0.951 . S
C48 C46 1.382 1_556 S
C48 C49 1.390 . S
C48 H53 0.949 . S
C49 C48 1.390 . S
C49 C54 1.399 . S
C50 C46 1.404 . S
C50 H51 0.950 . S
C50 C52 1.375 . S
H51 C50 0.950 . S
C52 C50 1.375 . S
C52 C54 1.382 1_554 S
C52 H56 0.950 . S
H53 C48 0.949 . S
C54 C49 1.399 . S
C54 C52 1.382 1_556 S
C54 H55 0.952 . S
H55 C54 0.952 . S
H56 C52 0.950 . S
H57 C58 0.949 . S
C58 H57 0.949 . S
C58 C59 1.395 . S
C58 C60 1.391 . S
C59 C58 1.395 . S
C59 C62 1.390 . S
C60 C58 1.391 . S
C60 C64 1.387 . S
C60 C65 1.491 . S
H61 C62 0.950 . S
C62 C59 1.390 . S
C62 H61 0.950 . S
C62 C63 1.378 . S
C63 C62 1.378 . S
C63 C64 1.409 . S
C64 C60 1.387 . S
C64 C63 1.409 . S
C64 H66 0.951 . S
C65 C60 1.491 . S
C65 C67 1.382 . S
C65 C69 1.404 . S
H66 C64 0.951 . S
C67 C65 1.382 . S
C67 C68 1.390 . S
C67 H72 0.949 . S
C68 C67 1.390 . S
C68 C73 1.399 . S
C69 C65 1.404 . S
C69 H70 0.950 . S
C69 C71 1.375 . S
H70 C69 0.950 . S
C71 C69 1.375 . S
C71 C73 1.382 . S
C71 H75 0.950 . S
H72 C67 0.949 . S
C73 C68 1.399 . S
C73 C71 1.382 . S
C73 H74 0.952 . S
H74 C73 0.952 . S
H75 C71 0.950 . S
H76 C77 0.949 . S
C77 H76 0.949 . S
C77 C78 1.395 . S
C77 C79 1.391 1_556 S
C78 C77 1.395 . S
C78 C81 1.390 1_556 S
C79 C77 1.391 1_554 S
C79 C83 1.387 . S
C79 C84 1.491 . S
H80 C81 0.950 . S
C81 C78 1.390 1_554 S
C81 H80 0.950 . S
C81 C82 1.378 . S
C82 C81 1.378 . S
C82 C83 1.409 . S
C83 C79 1.387 . S
C83 C82 1.409 . S
C83 H85 0.951 . S
C84 C79 1.491 . S
C84 C86 1.382 1_554 S
C84 C88 1.404 . S
H85 C83 0.951 . S
C86 C84 1.382 1_556 S
C86 C87 1.390 . S
C86 H91 0.949 . S
C87 C86 1.390 . S
C87 C92 1.399 1_556 S
C88 C84 1.404 . S
C88 H89 0.950 . S
C88 C90 1.375 . S
H89 C88 0.950 . S
C90 C88 1.375 . S
C90 C92 1.382 . S
C90 H94 0.950 . S
H91 C86 0.949 . S
C92 C87 1.399 1_554 S
C92 C90 1.382 . S
C92 H93 0.952 . S
H93 C92 0.952 . S
H94 C90 0.950 . S
H95 C96 0.949 . S
C96 H95 0.949 . S
C96 C97 1.395 . S
C96 C98 1.391 . S
C97 C96 1.395 . S
C97 C100 1.390 . S
C98 C96 1.391 . S
C98 C102 1.387 . S
C98 C103 1.491 . S
H99 C100 0.950 . S
C100 C97 1.390 . S
C100 H99 0.950 . S
C100 C101 1.378 . S
C101 C100 1.378 . S
C101 C102 1.409 . S
C102 C98 1.387 . S
C102 C101 1.409 . S
C102 H104 0.951 . S
C103 C98 1.491 . S
C103 C105 1.382 . S
C103 C107 1.404 . S
H104 C102 0.951 . S
C105 C103 1.382 . S
C105 C106 1.390 . S
C105 H110 0.949 . S
C106 C105 1.390 . S
C106 C111 1.399 . S
C107 C103 1.404 . S
C107 H108 0.950 . S
C107 C109 1.375 . S
H108 C107 0.950 . S
C109 C107 1.375 . S
C109 C111 1.382 . S
C109 H113 0.950 . S
H110 C105 0.949 . S
C111 C106 1.399 . S
C111 C109 1.382 . S
C111 H112 0.952 . S
H112 C111 0.952 . S
H113 C109 0.950 . S
H114 C115 0.949 . S
C115 H114 0.949 . S
C115 C116 1.395 . S
C115 C117 1.391 1_556 S
C116 C115 1.395 . S
C116 C119 1.390 1_556 S
C117 C115 1.391 1_554 S
C117 C121 1.387 . S
C117 C122 1.491 . S
H118 C119 0.950 1_545 S
C119 C116 1.390 1_554 S
C119 H118 0.950 1_565 S
C119 C120 1.378 . S
C120 C119 1.378 . S
C120 C121 1.409 . S
C121 C117 1.387 . S
C121 C120 1.409 . S
C121 H123 0.951 . S
C122 C117 1.491 . S
C122 C124 1.382 1_554 S
C122 C126 1.404 . S
H123 C121 0.951 . S
C124 C122 1.382 1_556 S
C124 C125 1.390 . S
C124 H129 0.949 . S
C125 C124 1.390 . S
C125 C130 1.399 . S
C126 C122 1.404 . S
C126 H127 0.950 . S
C126 C128 1.375 . S
H127 C126 0.950 . S
C128 C126 1.375 . S
C128 C130 1.382 1_554 S
C128 H132 0.950 . S
H129 C124 0.949 . S
C130 C125 1.399 . S
C130 C128 1.382 1_556 S
C130 H131 0.952 . S
H131 C130 0.952 . S
H132 C128 0.950 . S
H133 C134 0.949 . S
C134 H133 0.949 . S
C134 C135 1.395 . S
C134 C136 1.391 . S
C135 C134 1.395 . S
C135 C138 1.390 . S
C136 C134 1.391 . S
C136 C140 1.387 . S
C136 C141 1.491 . S
H137 C138 0.950 1_565 S
C138 C135 1.390 . S
C138 H137 0.950 1_545 S
C138 C139 1.378 . S
C139 C138 1.378 . S
C139 C140 1.409 . S
C140 C136 1.387 . S
C140 C139 1.409 . S
C140 H142 0.951 . S
C141 C136 1.491 . S
C141 C143 1.382 . S
C141 C145 1.404 . S
H142 C140 0.951 . S
C143 C141 1.382 . S
C143 C144 1.390 . S
C143 H148 0.949 . S
C144 C143 1.390 . S
C144 C149 1.399 . S
C145 C141 1.404 . S
C145 H146 0.950 . S
C145 C147 1.375 . S
H146 C145 0.950 . S
C147 C145 1.375 . S
C147 C149 1.382 . S
C147 H151 0.950 . S
H148 C143 0.949 . S
C149 C144 1.399 . S
C149 C147 1.382 . S
C149 H150 0.952 . S
H150 C149 0.952 . S
H151 C147 0.950 . S
Sc152 O155 2.025 . S
Sc152 O162 2.105 1_455 S
Sc152 O165 2.105 . S
Sc152 O168 2.105 . S
Sc152 O171 2.105 1_455 S
Sc153 O155 2.025 . S
Sc153 O163 2.105 1_455 S
Sc153 O167 2.105 1_565 S
Sc153 O169 2.105 . S
Sc153 O173 2.105 1_465 S
Sc154 O155 2.025 . S
Sc154 O164 2.105 1_455 S
Sc154 O166 2.105 . S
Sc154 O170 2.105 . S
Sc154 O172 2.105 1_455 S
O155 Sc152 2.025 . S
O155 Sc153 2.025 . S
O155 Sc154 2.025 . S
C156 O162 1.268 . S
C156 O172 1.268 . S
C157 O163 1.268 . S
C157 O171 1.268 . S
C158 O164 1.268 1_545 S
C158 O173 1.268 . S
C159 O165 1.268 . S
C159 O169 1.268 . S
C160 O166 1.268 . S
C160 O168 1.268 . S
C161 O167 1.268 . S
C161 O170 1.268 1_545 S
O162 Sc152 2.105 1_655 S
O162 C156 1.268 . S
O163 Sc153 2.105 1_655 S
O163 C157 1.268 . S
O164 Sc154 2.105 1_655 S
O164 C158 1.268 1_565 S
O165 Sc152 2.105 . S
O165 C159 1.268 . S
O166 Sc154 2.105 . S
O166 C160 1.268 . S
O167 Sc153 2.105 1_545 S
O167 C161 1.268 . S
O168 Sc152 2.105 . S
O168 C160 1.268 . S
O169 Sc153 2.105 . S
O169 C159 1.268 . S
O170 Sc154 2.105 . S
O170 C161 1.268 1_565 S
O171 Sc152 2.105 1_655 S
O171 C157 1.268 . S
O172 Sc154 2.105 1_655 S
O172 C156 1.268 . S
O173 Sc153 2.105 1_645 S
O173 C158 1.268 . S
Sc174 O177 2.025 . S
Sc174 O184 2.105 . S
Sc174 O187 2.105 1_455 S
Sc174 O190 2.105 1_455 S
Sc174 O193 2.105 . S
Sc175 O177 2.025 . S
Sc175 O185 2.105 . S
Sc175 O189 2.105 1_445 S
Sc175 O191 2.105 1_455 S
Sc175 O195 2.105 1_545 S
Sc176 O177 2.025 . S
Sc176 O186 2.105 . S
Sc176 O188 2.105 1_455 S
Sc176 O192 2.105 1_455 S
Sc176 O194 2.105 . S
O177 Sc174 2.025 . S
O177 Sc175 2.025 . S
O177 Sc176 2.025 . S
C178 O184 1.268 . S
C178 O194 1.268 . S
C179 O185 1.268 . S
C179 O193 1.268 . S
C180 O186 1.268 1_565 S
C180 O195 1.268 . S
C181 O187 1.268 . S
C181 O191 1.268 . S
C182 O188 1.268 . S
C182 O190 1.268 . S
C183 O189 1.268 . S
C183 O192 1.268 1_565 S
O184 Sc174 2.105 . S
O184 C178 1.268 . S
O185 Sc175 2.105 . S
O185 C179 1.268 . S
O186 Sc176 2.105 . S
O186 C180 1.268 1_545 S
O187 Sc174 2.105 1_655 S
O187 C181 1.268 . S
O188 Sc176 2.105 1_655 S
O188 C182 1.268 . S
O189 Sc175 2.105 1_665 S
O189 C183 1.268 . S
O190 Sc174 2.105 1_655 S
O190 C182 1.268 . S
O191 Sc175 2.105 1_655 S
O191 C181 1.268 . S
O192 Sc176 2.105 1_655 S
O192 C183 1.268 1_545 S
O193 Sc174 2.105 . S
O193 C179 1.268 . S
O194 Sc176 2.105 . S
O194 C178 1.268 . S
O195 Sc175 2.105 1_565 S
O195 C180 1.268 . S
Sc196 O199 2.025 . S
Sc196 O206 2.105 . S
Sc196 O209 2.105 . S
Sc196 O212 2.105 . S
Sc196 O215 2.105 . S
Sc197 O199 2.025 . S
Sc197 O207 2.105 . S
Sc197 O211 2.105 . S
Sc197 O213 2.105 . S
Sc197 O217 2.105 . S
Sc198 O199 2.025 . S
Sc198 O208 2.105 . S
Sc198 O210 2.105 . S
Sc198 O214 2.105 . S
Sc198 O216 2.105 . S
O199 Sc196 2.025 . S
O199 Sc197 2.025 . S
O199 Sc198 2.025 . S
C200 O206 1.268 . S
C200 O216 1.268 . S
C201 O207 1.268 . S
C201 O215 1.268 . S
C202 O208 1.268 . S
C202 O217 1.268 . S
C203 O209 1.268 . S
C203 O213 1.268 . S
C204 O210 1.268 . S
C204 O212 1.268 . S
C205 O211 1.268 . S
C205 O214 1.268 . S
O206 Sc196 2.105 . S
O206 C200 1.268 . S
O207 Sc197 2.105 . S
O207 C201 1.268 . S
O208 Sc198 2.105 . S
O208 C202 1.268 . S
O209 Sc196 2.105 . S
O209 C203 1.268 . S
O210 Sc198 2.105 . S
O210 C204 1.268 . S
O211 Sc197 2.105 . S
O211 C205 1.268 . S
O212 Sc196 2.105 . S
O212 C204 1.268 . S
O213 Sc197 2.105 . S
O213 C203 1.268 . S
O214 Sc198 2.105 . S
O214 C205 1.268 . S
O215 Sc196 2.105 . S
O215 C201 1.268 . S
O216 Sc198 2.105 . S
O216 C200 1.268 . S
O217 Sc197 2.105 . S
O217 C202 1.268 . S
Sc218 O221 2.025 . S
Sc218 O228 2.105 . S
Sc218 O231 2.105 . S
Sc218 O234 2.105 . S
Sc218 O237 2.105 . S
Sc219 O221 2.025 . S
Sc219 O229 2.105 . S
Sc219 O233 2.105 . S
Sc219 O235 2.105 . S
Sc219 O239 2.105 . S
Sc220 O221 2.025 . S
Sc220 O230 2.105 . S
Sc220 O232 2.105 . S
Sc220 O236 2.105 . S
Sc220 O238 2.105 . S
O221 Sc218 2.025 . S
O221 Sc219 2.025 . S
O221 Sc220 2.025 . S
C222 O228 1.268 . S
C222 O238 1.268 . S
C223 O229 1.268 . S
C223 O237 1.268 . S
C224 O230 1.268 . S
C224 O239 1.268 . S
C225 O231 1.268 . S
C225 O235 1.268 . S
C226 O232 1.268 . S
C226 O234 1.268 . S
C227 O233 1.268 . S
C227 O236 1.268 . S
O228 Sc218 2.105 . S
O228 C222 1.268 . S
O229 Sc219 2.105 . S
O229 C223 1.268 . S
O230 Sc220 2.105 . S
O230 C224 1.268 . S
O231 Sc218 2.105 . S
O231 C225 1.268 . S
O232 Sc220 2.105 . S
O232 C226 1.268 . S
O233 Sc219 2.105 . S
O233 C227 1.268 . S
O234 Sc218 2.105 . S
O234 C226 1.268 . S
O235 Sc219 2.105 . S
O235 C225 1.268 . S
O236 Sc220 2.105 . S
O236 C227 1.268 . S
O237 Sc218 2.105 . S
O237 C223 1.268 . S
O238 Sc220 2.105 . S
O238 C222 1.268 . S
O239 Sc219 2.105 . S
O239 C224 1.268 . S
C11 C178 1.494 . S
C156 C30 1.495 . S
C182 C49 1.268 . S
C160 C68 1.266 . S
C222 C87 1.494 . S
C200 C106 1.495 . S
C125 C226 1.267 . S
C204 C144 1.267 . S
C2 C227 1.715 . S
C205 C21 1.715 . S
C40 C224 1.708 . S
C59 C202 1.708 . S
C183 C78 1.716 . S
C97 C161 1.714 . S
C180 C116 1.707 . S
C158 C135 1.709 . S
C201 C6 1.547 . S
C223 C25 1.547 . S
C44 C203 1.532 . S
C225 C63 1.532 . S
C157 C82 1.548 . S
C101 C179 1.546 . S
C120 C159 1.531 . S
C139 C181 1.533 . S
