# Generated by pormake.
# Topology cml, (3,6)-cn, num edge types: 1
# Building blocks:
#     Node 0, Type 0, BuildingBlock: ESEHIV_clean_linker_0, # of connection points: 3
#     Node 1, Type 0, BuildingBlock: ESEHIV_clean_linker_0, # of connection points: 3
#     Node 2, Type 0, BuildingBlock: ESEHIV_clean_linker_0, # of connection points: 3
#     Node 3, Type 0, BuildingBlock: ESEHIV_clean_linker_0, # of connection points: 3
#     Node 4, Type 0, BuildingBlock: ESEHIV_clean_linker_0, # of connection points: 3
#     Node 5, Type 0, BuildingBlock: ESEHIV_clean_linker_0, # of connection points: 3
#     Node 6, Type 0, BuildingBlock: ESEHIV_clean_linker_0, # of connection points: 3
#     Node 7, Type 0, BuildingBlock: ESEHIV_clean_linker_0, # of connection points: 3
#     Node 8, Type 1, BuildingBlock: IZENUY_clean_sbu_0, # of connection points: 6
#     Node 9, Type 1, BuildingBlock: IZENUY_clean_sbu_0, # of connection points: 6
#     Node 10, Type 1, BuildingBlock: IZENUY_clean_sbu_0, # of connection points: 6
#     Node 11, Type 1, BuildingBlock: IZENUY_clean_sbu_0, # of connection points: 6
#     Edge 12, Type (0, 1), None
#     Edge 13, Type (0, 1), None
#     Edge 14, Type (0, 1), None
#     Edge 15, Type (0, 1), None
#     Edge 16, Type (0, 1), None
#     Edge 17, Type (0, 1), None
#     Edge 18, Type (0, 1), None
#     Edge 19, Type (0, 1), None
#     Edge 20, Type (0, 1), None
#     Edge 21, Type (0, 1), None
#     Edge 22, Type (0, 1), None
#     Edge 23, Type (0, 1), None
#     Edge 24, Type (0, 1), None
#     Edge 25, Type (0, 1), None
#     Edge 26, Type (0, 1), None
#     Edge 27, Type (0, 1), None
#     Edge 28, Type (0, 1), None
#     Edge 29, Type (0, 1), None
#     Edge 30, Type (0, 1), None
#     Edge 31, Type (0, 1), None
#     Edge 32, Type (0, 1), None
#     Edge 33, Type (0, 1), None
#     Edge 34, Type (0, 1), None
#     Edge 35, Type (0, 1), None
# Relax obj value: 0.055
# Max RMSD: 0.072
# Mean RMSD: 0.068
data_MOF--net-cml--node1-IZENUY_clean_sbu_0--node2-ESEHIV_clean_linker_0--edge1-none
_symmetry_space_group_name_H-M    P1
_symmetry_Int_Tables_number       1
_symmetry_cell_setting            triclinic
loop_
_symmetry_equiv_pos_as_xyz
'x, y, z'
_cell_length_a     12.966401
_cell_length_b     16.42971
_cell_length_c     15.072245
_cell_angle_alpha  90.000223
_cell_angle_beta   89.999662
_cell_angle_gamma 91.693133
loop_
_atom_site_label
_atom_site_type_symbol
_atom_site_fract_x
_atom_site_fract_y
_atom_site_fract_z
_atom_type_partial_charge
H0 H 0.41231 0.49896 0.09889 0.0
H1 H 0.25024 0.41693 0.86923 0.0
H2 H 0.29002 0.25168 0.08921 0.0
C3 C 0.3669 0.45101 0.0666 0.0
C4 C 0.35946 0.37228 0.10435 0.0
C5 C 0.33361 0.46573 0.98059 0.0
C6 C 0.27537 0.40532 0.93656 0.0
C7 C 0.25314 0.32944 0.97695 0.0
C8 C 0.29913 0.31179 0.06024 0.0
H9 H 0.68688 0.50317 0.59889 0.0
H10 H 0.84895 0.5852 0.36923 0.0
H11 H 0.80917 0.75045 0.58921 0.0
C12 C 0.73229 0.55112 0.5666 0.0
C13 C 0.73973 0.62985 0.60435 0.0
C14 C 0.76557 0.5364 0.48058 0.0
C15 C 0.82381 0.59681 0.43656 0.0
C16 C 0.84605 0.67269 0.47695 0.0
C17 C 0.80005 0.69034 0.56024 0.0
H18 H 0.64583 0.47262 0.08381 0.0
H19 H 0.83461 0.26649 0.08083 0.0
H20 H 0.80098 0.40959 0.84098 0.0
C21 C 0.69788 0.43482 0.04696 0.0
C22 C 0.71531 0.44863 0.95615 0.0
C23 C 0.73851 0.36907 0.0911 0.0
C24 C 0.8042 0.31813 0.0457 0.0
C25 C 0.83187 0.33433 0.95624 0.0
C26 C 0.78395 0.39834 0.91034 0.0
H27 H 0.45335 0.52952 0.58381 0.0
H28 H 0.2982 0.59254 0.34098 0.0
H29 H 0.26458 0.73565 0.58083 0.0
C30 C 0.4013 0.56731 0.54696 0.0
C31 C 0.36067 0.63306 0.5911 0.0
C32 C 0.38387 0.55349 0.45615 0.0
C33 C 0.31523 0.60379 0.41034 0.0
C34 C 0.26731 0.6678 0.45624 0.0
C35 C 0.29499 0.684 0.5457 0.0
H36 H 0.91231 0.99896 0.09889 0.0
H37 H 0.75024 0.91693 0.86923 0.0
H38 H 0.79002 0.75168 0.08921 0.0
C39 C 0.8669 0.95101 0.0666 0.0
C40 C 0.85946 0.87228 0.10435 0.0
C41 C 0.83361 0.96573 0.98059 0.0
C42 C 0.77537 0.90532 0.93656 0.0
C43 C 0.75314 0.82944 0.97695 0.0
C44 C 0.79913 0.81179 0.06024 0.0
H45 H 0.18688 0.00317 0.59889 0.0
H46 H 0.34895 0.0852 0.36923 0.0
H47 H 0.30917 0.25045 0.58921 0.0
C48 C 0.23229 0.05112 0.5666 0.0
C49 C 0.23973 0.12985 0.60435 0.0
C50 C 0.26557 0.0364 0.48058 0.0
C51 C 0.32381 0.09681 0.43656 0.0
C52 C 0.34605 0.17269 0.47695 0.0
C53 C 0.30005 0.19034 0.56024 0.0
H54 H 0.14583 0.97262 0.08381 0.0
H55 H 0.33461 0.76649 0.08083 0.0
H56 H 0.30098 0.90959 0.84098 0.0
C57 C 0.19788 0.93482 0.04696 0.0
C58 C 0.21531 0.94863 0.95615 0.0
C59 C 0.23851 0.86907 0.0911 0.0
C60 C 0.3042 0.81813 0.0457 0.0
C61 C 0.33187 0.83433 0.95624 0.0
C62 C 0.28395 0.89834 0.91034 0.0
H63 H 0.95335 0.02952 0.58381 0.0
H64 H 0.7982 0.09254 0.34098 0.0
H65 H 0.76458 0.23565 0.58083 0.0
C66 C 0.9013 0.06731 0.54696 0.0
C67 C 0.86067 0.13306 0.5911 0.0
C68 C 0.88387 0.05349 0.45615 0.0
C69 C 0.81523 0.10379 0.41034 0.0
C70 C 0.76731 0.1678 0.45624 0.0
C71 C 0.79499 0.184 0.5457 0.0
Fe72 Fe 0.05167 0.75782 0.28131 0.0
Fe73 Fe 0.0638 0.85129 0.45878 0.0
O74 O 0.06308 0.85105 0.34161 0.0
Fe75 Fe 0.07733 0.94441 0.28387 0.0
O76 O 1.0014 0.91003 0.19036 0.0
O77 O 0.93331 0.7903 0.22348 0.0
O78 O 0.96926 0.70625 0.36489 0.0
C79 C 0.91809 0.73099 0.43102 0.0
C80 C 0.19846 0.85124 0.1806 0.0
O81 O 0.9386 0.79942 0.46531 0.0
C82 C 0.21008 0.97237 0.42952 0.0
O83 O 0.16903 0.71934 0.33317 0.0
O84 O 0.13022 0.75622 0.46922 0.0
O85 O 0.19585 0.91061 0.23363 0.0
O86 O 0.13245 0.79311 0.18739 0.0
C87 C 0.9445 0.98833 0.41453 0.0
O88 O 0.18988 0.90386 0.46441 0.0
O89 O 0.15598 0.99722 0.36647 0.0
C90 C 0.18619 0.71796 0.41599 0.0
O91 O 0.99699 0.946 0.46702 0.0
O92 O 0.95928 0.98483 0.3317 0.0
C93 C 0.93054 0.85674 0.18036 0.0
Fe94 Fe 1.03538 0.15084 0.95878 0.0
Fe95 Fe 1.02185 0.05772 0.78387 0.0
O96 O 1.03611 0.15108 0.84161 0.0
Fe97 Fe 0.04751 0.24431 0.78131 0.0
O98 O 0.12992 0.29588 0.86489 0.0
O99 O 0.16058 0.20271 0.96531 0.0
O100 O 0.10219 0.05613 0.96702 0.0
C101 C 0.15468 0.0138 0.91453 0.0
C102 C 0.913 0.28417 0.91599 0.0
O103 O 0.1399 0.0173 0.83169 0.0
C104 C 0.90073 0.15089 0.6806 0.0
O105 O 0.9093 0.09828 0.96441 0.0
O106 O 0.9432 0.00491 0.86647 0.0
O107 O 0.93015 0.2828 0.83317 0.0
O108 O 0.96896 0.24591 0.96922 0.0
C109 C 0.16865 0.14539 0.68036 0.0
O110 O 0.90334 0.09152 0.73363 0.0
O111 O 0.96674 0.20902 0.68739 0.0
C112 C 0.88911 0.02976 0.92952 0.0
O113 O 0.09778 0.0921 0.69036 0.0
O114 O 0.16587 0.21183 0.72348 0.0
C115 C 0.1811 0.27114 0.93102 0.0
Fe116 Fe 0.55167 0.25782 0.28131 0.0
Fe117 Fe 0.5638 0.35129 0.45878 0.0
O118 O 0.56308 0.35105 0.34161 0.0
Fe119 Fe 0.57733 0.44441 0.28387 0.0
O120 O 0.5014 0.41003 0.19036 0.0
O121 O 0.43331 0.2903 0.22348 0.0
O122 O 0.46926 0.20625 0.36489 0.0
C123 C 0.41809 0.23099 0.43102 0.0
C124 C 0.69846 0.35124 0.1806 0.0
O125 O 0.4386 0.29942 0.46531 0.0
C126 C 0.71008 0.47237 0.42952 0.0
O127 O 0.66903 0.21934 0.33317 0.0
O128 O 0.63022 0.25622 0.46922 0.0
O129 O 0.69585 0.41061 0.23363 0.0
O130 O 0.63245 0.29311 0.18739 0.0
C131 C 0.4445 0.48833 0.41453 0.0
O132 O 0.68988 0.40386 0.46441 0.0
O133 O 0.65598 0.49722 0.36647 0.0
C134 C 0.68619 0.21796 0.41599 0.0
O135 O 0.49699 0.446 0.46702 0.0
O136 O 0.45928 0.48483 0.3317 0.0
C137 C 0.43054 0.35674 0.18036 0.0
Fe138 Fe 0.53538 0.65084 0.95878 0.0
Fe139 Fe 0.52185 0.55772 0.78387 0.0
O140 O 0.53611 0.65108 0.84161 0.0
Fe141 Fe 0.54751 0.74431 0.78131 0.0
O142 O 0.62992 0.79588 0.86489 0.0
O143 O 0.66058 0.70271 0.96531 0.0
O144 O 0.60219 0.55613 0.96702 0.0
C145 C 0.65468 0.5138 0.91453 0.0
C146 C 0.413 0.78417 0.91599 0.0
O147 O 0.6399 0.5173 0.83169 0.0
C148 C 0.40073 0.65089 0.6806 0.0
O149 O 0.4093 0.59828 0.96441 0.0
O150 O 0.4432 0.50491 0.86647 0.0
O151 O 0.43015 0.7828 0.83317 0.0
O152 O 0.46896 0.74591 0.96922 0.0
C153 C 0.66865 0.64539 0.68036 0.0
O154 O 0.40334 0.59152 0.73363 0.0
O155 O 0.46674 0.70902 0.68739 0.0
C156 C 0.38911 0.52976 0.92952 0.0
O157 O 0.59778 0.5921 0.69036 0.0
O158 O 0.66587 0.71183 0.72348 0.0
C159 C 0.6811 0.77114 0.93102 0.0
loop_
_geom_bond_atom_site_label_1
_geom_bond_atom_site_label_2
_geom_bond_distance
_geom_bond_site_symmetry_2
_ccdc_geom_bond_type
H0 C3 0.931 . S
H1 C6 0.928 . S
H2 C8 0.930 . S
C3 H0 0.931 . S
C3 C4 1.413 . S
C3 C5 1.360 1_554 S
C4 C3 1.413 . S
C4 C8 1.429 . S
C5 C3 1.360 1_556 S
C5 C6 1.372 . S
C6 H1 0.928 . S
C6 C5 1.372 . S
C6 C7 1.404 . S
C7 C6 1.404 . S
C7 C8 1.391 1_556 S
C8 H2 0.930 . S
C8 C4 1.429 . S
C8 C7 1.391 1_554 S
H9 C12 0.931 . S
H10 C15 0.928 . S
H11 C17 0.930 . S
C12 H9 0.931 . S
C12 C13 1.413 . S
C12 C14 1.360 . S
C13 C12 1.413 . S
C13 C17 1.429 . S
C14 C12 1.360 . S
C14 C15 1.372 . S
C15 H10 0.928 . S
C15 C14 1.372 . S
C15 C16 1.404 . S
C16 C15 1.404 . S
C16 C17 1.391 . S
C17 H11 0.930 . S
C17 C13 1.429 . S
C17 C16 1.391 . S
H18 C21 0.931 . S
H19 C24 0.928 . S
H20 C26 0.930 . S
C21 H18 0.931 . S
C21 C22 1.413 1_554 S
C21 C23 1.360 . S
C22 C21 1.413 1_556 S
C22 C26 1.429 . S
C23 C21 1.360 . S
C23 C24 1.372 . S
C24 H19 0.928 . S
C24 C23 1.372 . S
C24 C25 1.404 1_554 S
C25 C24 1.404 1_556 S
C25 C26 1.391 . S
C26 H20 0.930 . S
C26 C22 1.429 . S
C26 C25 1.391 . S
H27 C30 0.931 . S
H28 C33 0.928 . S
H29 C35 0.930 . S
C30 H27 0.931 . S
C30 C31 1.413 . S
C30 C32 1.360 . S
C31 C30 1.413 . S
C31 C35 1.429 . S
C32 C30 1.360 . S
C32 C33 1.372 . S
C33 H28 0.928 . S
C33 C32 1.372 . S
C33 C34 1.404 . S
C34 C33 1.404 . S
C34 C35 1.391 . S
C35 H29 0.930 . S
C35 C31 1.429 . S
C35 C34 1.391 . S
H36 C39 0.931 . S
H37 C42 0.928 . S
H38 C44 0.930 . S
C39 H36 0.931 . S
C39 C40 1.413 . S
C39 C41 1.360 1_554 S
C40 C39 1.413 . S
C40 C44 1.429 . S
C41 C39 1.360 1_556 S
C41 C42 1.372 . S
C42 H37 0.928 . S
C42 C41 1.372 . S
C42 C43 1.404 . S
C43 C42 1.404 . S
C43 C44 1.391 1_556 S
C44 H38 0.930 . S
C44 C40 1.429 . S
C44 C43 1.391 1_554 S
H45 C48 0.931 . S
H46 C51 0.928 . S
H47 C53 0.930 . S
C48 H45 0.931 . S
C48 C49 1.413 . S
C48 C50 1.360 . S
C49 C48 1.413 . S
C49 C53 1.429 . S
C50 C48 1.360 . S
C50 C51 1.372 . S
C51 H46 0.928 . S
C51 C50 1.372 . S
C51 C52 1.404 . S
C52 C51 1.404 . S
C52 C53 1.391 . S
C53 H47 0.930 . S
C53 C49 1.429 . S
C53 C52 1.391 . S
H54 C57 0.931 . S
H55 C60 0.928 . S
H56 C62 0.930 . S
C57 H54 0.931 . S
C57 C58 1.413 1_554 S
C57 C59 1.360 . S
C58 C57 1.413 1_556 S
C58 C62 1.429 . S
C59 C57 1.360 . S
C59 C60 1.372 . S
C60 H55 0.928 . S
C60 C59 1.372 . S
C60 C61 1.404 1_554 S
C61 C60 1.404 1_556 S
C61 C62 1.391 . S
C62 H56 0.930 . S
C62 C58 1.429 . S
C62 C61 1.391 . S
H63 C66 0.931 . S
H64 C69 0.928 . S
H65 C71 0.930 . S
C66 H63 0.931 . S
C66 C67 1.413 . S
C66 C68 1.360 . S
C67 C66 1.413 . S
C67 C71 1.429 . S
C68 C66 1.360 . S
C68 C69 1.372 . S
C69 H64 0.928 . S
C69 C68 1.372 . S
C69 C70 1.404 . S
C70 C69 1.404 . S
C70 C71 1.391 . S
C71 H65 0.930 . S
C71 C67 1.429 . S
C71 C70 1.391 . S
Fe72 O74 1.918 . S
Fe72 O77 1.997 1_455 S
Fe72 O78 2.002 1_455 S
Fe72 O83 1.976 . S
Fe72 O86 1.996 . S
Fe73 O74 1.918 . S
Fe73 O81 1.997 1_455 S
Fe73 O84 1.996 . S
Fe73 O88 1.976 . S
Fe73 O91 2.002 1_455 S
O74 Fe72 1.918 . S
O74 Fe73 1.918 . S
O74 Fe75 1.918 . S
Fe75 O74 1.918 . S
Fe75 O76 2.002 1_455 S
Fe75 O85 1.976 . S
Fe75 O89 1.995 . S
Fe75 O92 1.997 1_455 S
O76 Fe75 2.002 1_655 S
O76 C93 1.295 . S
O77 Fe72 1.997 1_655 S
O77 C93 1.235 . S
O78 Fe72 2.002 1_655 S
O78 C79 1.295 . S
C79 O78 1.295 . S
C79 O81 1.235 . S
C80 O85 1.287 . S
C80 O86 1.255 . S
O81 Fe73 1.997 1_655 S
O81 C79 1.235 . S
C82 O88 1.287 . S
C82 O89 1.254 . S
O83 Fe72 1.976 . S
O83 C90 1.287 . S
O84 Fe73 1.996 . S
O84 C90 1.255 . S
O85 Fe75 1.976 . S
O85 C80 1.287 . S
O86 Fe72 1.996 . S
O86 C80 1.255 . S
C87 O91 1.295 . S
C87 O92 1.235 . S
O88 Fe73 1.976 . S
O88 C82 1.287 . S
O89 Fe75 1.995 . S
O89 C82 1.254 . S
C90 O83 1.287 . S
C90 O84 1.255 . S
O91 Fe73 2.002 1_655 S
O91 C87 1.295 . S
O92 Fe75 1.997 1_655 S
O92 C87 1.235 . S
C93 O76 1.295 . S
C93 O77 1.235 . S
Fe94 O96 1.918 . S
Fe94 O99 1.995 1_655 S
Fe94 O100 2.001 1_655 S
Fe94 O105 1.977 . S
Fe94 O108 1.997 . S
Fe95 O96 1.918 . S
Fe95 O103 1.997 1_655 S
Fe95 O106 1.995 . S
Fe95 O110 1.976 . S
Fe95 O113 2.003 1_655 S
O96 Fe94 1.918 . S
O96 Fe95 1.918 . S
O96 Fe97 1.918 . S
Fe97 O96 1.918 . S
Fe97 O98 2.003 1_655 S
Fe97 O107 1.975 . S
Fe97 O111 1.995 . S
Fe97 O114 1.997 1_655 S
O98 Fe97 2.003 1_455 S
O98 C115 1.295 . S
O99 Fe94 1.995 1_455 S
O99 C115 1.235 . S
O100 Fe94 2.001 1_455 S
O100 C101 1.295 . S
C101 O100 1.295 . S
C101 O103 1.235 . S
C102 O107 1.287 . S
C102 O108 1.255 . S
O103 Fe95 1.997 1_455 S
O103 C101 1.235 . S
C104 O110 1.287 . S
C104 O111 1.255 . S
O105 Fe94 1.977 . S
O105 C112 1.287 . S
O106 Fe95 1.995 . S
O106 C112 1.254 . S
O107 Fe97 1.975 . S
O107 C102 1.287 . S
O108 Fe94 1.997 . S
O108 C102 1.255 . S
C109 O113 1.295 . S
C109 O114 1.235 . S
O110 Fe95 1.976 . S
O110 C104 1.287 . S
O111 Fe97 1.995 . S
O111 C104 1.255 . S
C112 O105 1.287 . S
C112 O106 1.254 . S
O113 Fe95 2.003 1_455 S
O113 C109 1.295 . S
O114 Fe97 1.997 1_455 S
O114 C109 1.235 . S
C115 O98 1.295 . S
C115 O99 1.235 . S
Fe116 O118 1.918 . S
Fe116 O121 1.997 . S
Fe116 O122 2.002 . S
Fe116 O127 1.976 . S
Fe116 O130 1.996 . S
Fe117 O118 1.918 . S
Fe117 O125 1.997 . S
Fe117 O128 1.996 . S
Fe117 O132 1.976 . S
Fe117 O135 2.002 . S
O118 Fe116 1.918 . S
O118 Fe117 1.918 . S
O118 Fe119 1.918 . S
Fe119 O118 1.918 . S
Fe119 O120 2.002 . S
Fe119 O129 1.976 . S
Fe119 O133 1.996 . S
Fe119 O136 1.997 . S
O120 Fe119 2.002 . S
O120 C137 1.295 . S
O121 Fe116 1.997 . S
O121 C137 1.235 . S
O122 Fe116 2.002 . S
O122 C123 1.295 . S
C123 O122 1.295 . S
C123 O125 1.235 . S
C124 O129 1.287 . S
C124 O130 1.255 . S
O125 Fe117 1.997 . S
O125 C123 1.235 . S
C126 O132 1.287 . S
C126 O133 1.255 . S
O127 Fe116 1.976 . S
O127 C134 1.287 . S
O128 Fe117 1.996 . S
O128 C134 1.255 . S
O129 Fe119 1.976 . S
O129 C124 1.287 . S
O130 Fe116 1.996 . S
O130 C124 1.255 . S
C131 O135 1.295 . S
C131 O136 1.235 . S
O132 Fe117 1.976 . S
O132 C126 1.287 . S
O133 Fe119 1.996 . S
O133 C126 1.255 . S
C134 O127 1.287 . S
C134 O128 1.255 . S
O135 Fe117 2.002 . S
O135 C131 1.295 . S
O136 Fe119 1.997 . S
O136 C131 1.235 . S
C137 O120 1.295 . S
C137 O121 1.235 . S
Fe138 O140 1.918 . S
Fe138 O143 1.997 . S
Fe138 O144 2.002 . S
Fe138 O149 1.976 . S
Fe138 O152 1.996 . S
Fe139 O140 1.918 . S
Fe139 O147 1.997 . S
Fe139 O150 1.996 . S
Fe139 O154 1.976 . S
Fe139 O157 2.002 . S
O140 Fe138 1.918 . S
O140 Fe139 1.918 . S
O140 Fe141 1.918 . S
Fe141 O140 1.918 . S
Fe141 O142 2.002 . S
Fe141 O151 1.976 . S
Fe141 O155 1.996 . S
Fe141 O158 1.997 . S
O142 Fe141 2.002 . S
O142 C159 1.295 . S
O143 Fe138 1.997 . S
O143 C159 1.235 . S
O144 Fe138 2.002 . S
O144 C145 1.295 . S
C145 O144 1.295 . S
C145 O147 1.235 . S
C146 O151 1.287 . S
C146 O152 1.255 . S
O147 Fe139 1.997 . S
O147 C145 1.235 . S
C148 O154 1.287 . S
C148 O155 1.255 . S
O149 Fe138 1.976 . S
O149 C156 1.287 . S
O150 Fe139 1.996 . S
O150 C156 1.255 . S
O151 Fe141 1.976 . S
O151 C146 1.287 . S
O152 Fe138 1.996 . S
O152 C146 1.255 . S
C153 O157 1.295 . S
C153 O158 1.235 . S
O154 Fe139 1.976 . S
O154 C148 1.287 . S
O155 Fe141 1.996 . S
O155 C148 1.255 . S
C156 O149 1.287 . S
C156 O150 1.255 . S
O157 Fe139 2.002 . S
O157 C153 1.295 . S
O158 Fe141 1.997 . S
O158 C153 1.235 . S
C159 O142 1.295 . S
C159 O143 1.235 . S
C7 C115 1.566 . S
C79 C16 1.566 . S
C102 C25 1.533 . S
C90 C34 1.525 . S
C159 C43 1.566 . S
C123 C52 1.566 . S
C61 C146 1.533 . S
C134 C70 1.525 . S
C5 C156 1.490 . S
C126 C14 1.490 . S
C22 C145 1.498 . S
C32 C131 1.496 . S
C112 C41 1.490 1_545 S
C50 C82 1.490 1_545 S
C101 C58 1.498 1_545 S
C87 C68 1.496 1_565 S
C137 C4 1.515 . S
C153 C13 1.515 . S
C23 C124 1.539 . S
C148 C31 1.526 . S
C93 C40 1.515 . S
C49 C109 1.515 . S
C59 C80 1.539 . S
C67 C104 1.526 . S
