# Generated by pormake.
# Topology rtl, (3,6)-cn, num edge types: 1
# Building blocks:
#     Node 0, Type 0, BuildingBlock: ESEHIV_clean_linker_0, # of connection points: 3
#     Node 1, Type 0, BuildingBlock: ESEHIV_clean_linker_0, # of connection points: 3
#     Node 2, Type 0, BuildingBlock: ESEHIV_clean_linker_0, # of connection points: 3
#     Node 3, Type 0, BuildingBlock: ESEHIV_clean_linker_0, # of connection points: 3
#     Node 4, Type 1, BuildingBlock: KUMJIN_clean_sbu_1, # of connection points: 6
#     Node 5, Type 1, BuildingBlock: KUMJIN_clean_sbu_1, # of connection points: 6
#     Edge 6, Type (0, 1), None
#     Edge 7, Type (0, 1), None
#     Edge 8, Type (0, 1), None
#     Edge 9, Type (0, 1), None
#     Edge 10, Type (0, 1), None
#     Edge 11, Type (0, 1), None
#     Edge 12, Type (0, 1), None
#     Edge 13, Type (0, 1), None
#     Edge 14, Type (0, 1), None
#     Edge 15, Type (0, 1), None
#     Edge 16, Type (0, 1), None
#     Edge 17, Type (0, 1), None
# Relax obj value: 0.022
# Max RMSD: 0.219
# Mean RMSD: 0.136
data_MOF--net-rtl--node1-KUMJIN_clean_sbu_1--node2-ESEHIV_clean_linker_0--edge1-none
_symmetry_space_group_name_H-M    P1
_symmetry_Int_Tables_number       1
_symmetry_cell_setting            triclinic
loop_
_symmetry_equiv_pos_as_xyz
'x, y, z'
_cell_length_a     13.588543
_cell_length_b     14.8165
_cell_length_c     13.934603
_cell_angle_alpha  64.150817
_cell_angle_beta   96.056126
_cell_angle_gamma 93.799144
loop_
_atom_site_label
_atom_site_type_symbol
_atom_site_fract_x
_atom_site_fract_y
_atom_site_fract_z
_atom_type_partial_charge
H0 H 0.09088 0.90904 0.95958 0.0
H1 H 0.32604 0.71504 0.14943 0.0
H2 H 0.25379 0.75872 0.82628 0.0
C3 C 0.15057 0.86103 0.96645 0.0
C4 C 0.16803 0.8438 0.87687 0.0
C5 C 0.20238 0.80763 0.06764 0.0
C6 C 0.28276 0.75032 0.07315 0.0
C7 C 0.29934 0.7256 -0.01024 0.0
C8 C 0.24178 0.77459 0.89109 0.0
H9 H 0.61785 0.5281 0.8109 0.0
H10 H 0.73707 0.7782 0.55461 0.0
H11 H 0.72415 0.78567 0.85761 0.0
C12 C 0.64992 0.60266 0.77974 0.0
C13 C 0.64994 0.65748 0.83937 0.0
C14 C 0.67871 0.64439 0.67655 0.0
C15 C 0.72327 0.7401 0.63776 0.0
C16 C 0.75568 0.78465 0.70715 0.0
C17 C 0.7113 0.74689 0.80728 0.0
H18 H 0.88042 0.07837 0.23807 0.0
H19 H 0.71749 0.22867 0.37138 0.0
H20 H 0.64526 0.27236 0.04822 0.0
C21 C 0.82073 0.12638 0.2312 0.0
C22 C 0.76892 0.17978 0.13001 0.0
C23 C 0.80327 0.1436 0.32078 0.0
C24 C 0.72952 0.21281 0.30657 0.0
C25 C 0.67197 0.26181 0.20789 0.0
C26 C 0.68855 0.23709 0.1245 0.0
H27 H 0.35344 0.45932 0.38673 0.0
H28 H 0.23423 0.20922 0.64303 0.0
H29 H 0.24715 0.20174 0.34003 0.0
C30 C 0.32138 0.38476 0.4179 0.0
C31 C 0.32136 0.32993 0.35828 0.0
C32 C 0.29258 0.34303 0.52109 0.0
C33 C 0.24803 0.24732 0.55988 0.0
C34 C 0.21562 0.20276 0.49049 0.0
C35 C 0.25999 0.24052 0.39036 0.0
Eu36 Eu 0.0293 0.91721 0.52093 0.0
C37 C 0.87739 0.29562 0.54904 0.0
N38 N 0.96052 0.24471 0.5999 0.0
C39 C 0.05006 0.39846 0.56766 0.0
C40 C 0.87999 0.40087 0.49823 0.0
C41 C 0.04367 0.29393 0.61729 0.0
C42 C 0.96835 0.45223 0.50467 0.0
C43 C 0.70044 0.29359 0.50558 0.0
C44 C 0.78801 0.24255 0.55448 0.0
C45 C 0.70656 0.39669 0.44264 0.0
C46 C 0.79431 0.45137 0.4436 0.0
Eu47 Eu 0.94201 0.0702 0.67672 0.0
N48 N 0.78783 0.1408 0.60248 0.0
C49 C 0.61111 0.23838 0.51379 0.0
C50 C 0.70184 0.08571 0.61311 0.0
C51 C 0.61179 0.13381 0.56917 0.0
H52 H 0.10194 0.25273 0.6751 0.0
H53 H 0.54341 0.09036 0.57654 0.0
H54 H 0.86936 0.73469 0.52255 0.0
H55 H 0.42789 0.89705 0.62114 0.0
H56 H 0.70268 0.005 0.65585 0.0
H57 H 0.54191 0.27541 0.47631 0.0
H58 H 0.26862 0.98241 0.54182 0.0
H59 H 0.1161 0.4374 0.58152 0.0
H60 H 0.64393 0.43349 0.39051 0.0
H61 H 0.79697 0.53209 0.39983 0.0
H62 H 0.8552 0.55001 0.61615 0.0
H63 H 0.97182 0.53334 0.46698 0.0
H64 H 0.42939 0.712 0.72136 0.0
N65 N 0.01079 0.74269 0.59776 0.0
C66 C 0.09392 0.69179 0.64862 0.0
C67 C 0.92124 0.58895 0.63 0.0
C68 C 0.09132 0.58654 0.69943 0.0
C69 C 0.92764 0.69348 0.58037 0.0
C70 C 0.00294 0.53518 0.69299 0.0
N71 N 0.18348 0.8466 0.59515 0.0
C72 C 0.26946 0.9017 0.58455 0.0
C73 C 0.27087 0.69381 0.69208 0.0
C74 C 0.1833 0.74486 0.64317 0.0
C75 C 0.36019 0.74903 0.68387 0.0
C76 C 0.35951 0.85359 0.6285 0.0
H77 H -0.00052 0.45406 0.73069 0.0
H78 H 0.17433 0.45532 0.79784 0.0
H79 H 0.32737 0.55392 0.80715 0.0
O80 O 0.11775 0.94571 0.38572 0.0
O81 O 0.08049 0.85659 0.70476 0.0
O82 O 0.08579 -0.00901 0.74676 0.0
O83 O 0.97702 0.87187 0.39344 0.0
O84 O 0.09714 0.07698 0.46777 0.0
O85 O 0.09889 0.10299 0.61988 0.0
O86 O 0.85355 0.04169 0.81193 0.0
O87 O 0.89082 0.13081 0.4929 0.0
O88 O 0.88552 -0.00358 0.45088 0.0
O89 O -0.00572 0.11554 0.80422 0.0
O90 O 0.87417 0.91042 0.72988 0.0
O91 O 0.87242 0.88442 0.57777 0.0
C92 C 0.10749 0.89854 0.77104 0.0
C93 C 0.09526 0.82904 0.3064 0.0
C94 C 0.16226 0.78625 0.17298 0.0
C95 C 0.16045 0.68483 0.24876 0.0
C96 C 0.09867 0.72738 0.37842 0.0
C97 C 0.12977 0.65644 0.34946 0.0
C98 C 0.125 0.85852 0.20097 0.0
C99 C 0.13402 0.12234 0.52728 0.0
C100 C 0.05591 0.90065 0.34201 0.0
C101 C 0.177 0.53603 0.75407 0.0
C102 C 0.26474 0.59072 0.75502 0.0
C103 C 0.86381 0.08887 0.42661 0.0
C104 C 0.87604 0.15836 0.89125 0.0
C105 C 0.80903 0.20116 0.02467 0.0
C106 C 0.81084 0.30257 0.94888 0.0
C107 C 0.87262 0.26002 0.81923 0.0
C108 C 0.84631 0.12889 -0.00332 0.0
C109 C 0.84151 0.33096 0.84818 0.0
C110 C 0.83728 0.86507 0.67037 0.0
C111 C 0.9154 0.08676 0.85565 0.0
H112 H 0.18274 0.62569 0.23028 0.0
H113 H 0.07495 0.70129 0.457 0.0
H114 H 0.13064 0.57833 0.40559 0.0
H115 H 0.12047 0.93606 0.1424 0.0
H116 H 0.78854 0.36172 0.96735 0.0
H117 H 0.89634 0.28611 0.74065 0.0
H118 H 0.85084 0.05135 0.05526 0.0
H119 H 0.84064 0.40907 0.79205 0.0
Eu120 Eu 0.40667 0.42488 0.01671 0.0
C121 C 0.7791 0.65007 0.11874 0.0
N122 N 0.73684 0.55651 0.16749 0.0
C123 C 0.89722 0.48279 0.20289 0.0
C124 C 0.882 0.66165 0.11103 0.0
C125 C 0.79558 0.47407 0.21177 0.0
C126 C 0.94068 0.57698 0.15153 0.0
C127 C 0.76469 0.83246 0.03567 0.0
C128 C 0.72064 0.73602 0.07926 0.0
C129 C 0.86758 0.84206 0.03329 0.0
C130 C 0.92467 0.75731 0.06738 0.0
Eu131 Eu 0.56464 0.56253 0.18094 0.0
N132 N 0.62057 0.72541 0.08279 0.0
C133 C 0.70374 0.916 -0.00348 0.0
C134 C 0.56154 0.80605 0.05098 0.0
C135 C 0.60197 0.90284 0.00474 0.0
H136 H 0.76833 0.40132 0.26099 0.0
H137 H 0.55504 0.96717 0.97697 0.0
H138 H 0.20296 0.58606 0.9367 0.0
H139 H 0.41633 0.02024 0.2207 0.0
H140 H 0.48372 0.79511 0.06213 0.0
H141 H 0.73368 -0.00884 0.95964 0.0
H142 H 0.48762 0.19232 0.13552 0.0
H143 H 0.94245 0.41677 0.23914 0.0
H144 H 0.9048 0.91384 0.00771 0.0
H145 H 0.00259 0.76533 0.0628 0.0
H146 H 0.02884 0.57059 0.95854 0.0
H147 H 0.02005 0.58373 0.1467 0.0
H148 H 0.23769 -0.00378 0.23802 0.0
N149 N 0.23445 0.43087 0.03016 0.0
C150 C 0.19221 0.3373 0.07889 0.0
C151 C 0.07407 0.50458 -0.00522 0.0
C152 C 0.08931 0.32571 0.08661 0.0
C153 C 0.17572 0.51331 0.98591 0.0
C154 C 0.03062 0.41037 0.04611 0.0
N155 N 0.35074 0.26199 0.11481 0.0
C156 C 0.40979 0.18136 0.14666 0.0
C157 C 0.20665 0.15492 0.16196 0.0
C158 C 0.25068 0.25137 0.11837 0.0
C159 C 0.26761 0.07139 0.20112 0.0
C160 C 0.36939 0.08456 0.19291 0.0
H161 H 0.95125 0.40362 0.05094 0.0
H162 H 0.96872 0.22202 0.13481 0.0
H163 H 0.06654 0.07352 0.1899 0.0
O164 O 0.3222 0.37818 0.90386 0.0
O165 O 0.39013 0.34046 0.19621 0.0
O166 O 0.44442 0.45217 0.26416 0.0
O167 O 0.47892 0.36854 0.91996 0.0
O168 O 0.56559 0.39198 0.08187 0.0
O169 O 0.60035 0.39403 0.24252 0.0
O170 O 0.64911 0.60923 0.29378 0.0
O171 O 0.58116 0.64695 0.00143 0.0
O172 O 0.52689 0.53523 0.93349 0.0
O173 O 0.49239 0.61889 0.27767 0.0
O174 O 0.40571 0.59543 0.11579 0.0
O175 O 0.37094 0.59338 0.95513 0.0
C176 C 0.38652 0.37635 0.26604 0.0
C177 C 0.39424 0.40255 0.75141 0.0
C178 C 0.31931 0.39905 0.58713 0.0
C179 C 0.32833 0.50502 0.537 0.0
C180 C 0.42024 0.50374 0.69397 0.0
C181 C 0.38217 0.55618 0.58873 0.0
C182 C 0.34786 0.34886 0.69717 0.0
C183 C 0.60131 0.34634 0.18162 0.0
C184 C 0.39757 0.35849 0.8679 0.0
C185 C 0.04665 0.23004 0.13024 0.0
C186 C 0.10376 0.1453 0.16433 0.0
C187 C 0.58478 0.61105 0.9316 0.0
C188 C 0.57706 0.58488 0.44622 0.0
C189 C 0.65199 0.58838 0.6105 0.0
C190 C 0.64296 0.4824 0.66064 0.0
C191 C 0.55105 0.48369 0.50365 0.0
C192 C 0.62345 0.63856 0.50046 0.0
C193 C 0.58911 0.43125 0.6089 0.0
C194 C 0.36998 0.64106 0.01604 0.0
C195 C 0.57375 0.62893 0.32973 0.0
H196 H 0.30048 0.54863 0.45502 0.0
H197 H 0.46035 0.54499 0.73347 0.0
H198 H 0.39483 0.63641 0.54707 0.0
H199 H 0.33539 0.26885 0.74099 0.0
H200 H 0.67081 0.43879 0.74261 0.0
H201 H 0.51094 0.44245 0.46415 0.0
H202 H 0.63593 0.71858 0.45665 0.0
H203 H 0.57645 0.35102 0.65055 0.0
loop_
_geom_bond_atom_site_label_1
_geom_bond_atom_site_label_2
_geom_bond_distance
_geom_bond_site_symmetry_2
_ccdc_geom_bond_type
H0 C3 0.931 1_545 S
H1 C6 0.928 . S
H2 C8 0.930 . S
C3 H0 0.931 1_565 S
C3 C4 1.413 . S
C3 C5 1.360 1_556 S
C4 C3 1.413 . S
C4 C8 1.429 . S
C5 C3 1.360 1_554 S
C5 C6 1.372 . S
C6 H1 0.928 . S
C6 C5 1.372 . S
C6 C7 1.404 . S
C7 C6 1.404 . S
C7 C8 1.391 1_554 S
C8 H2 0.930 . S
C8 C4 1.429 . S
C8 C7 1.391 1_556 S
H9 C12 0.931 . S
H10 C15 0.928 . S
H11 C17 0.930 . S
C12 H9 0.931 . S
C12 C13 1.413 . S
C12 C14 1.360 . S
C13 C12 1.413 . S
C13 C17 1.429 . S
C14 C12 1.360 . S
C14 C15 1.372 . S
C15 H10 0.928 . S
C15 C14 1.372 . S
C15 C16 1.404 . S
C16 C15 1.404 . S
C16 C17 1.391 . S
C17 H11 0.930 . S
C17 C13 1.429 . S
C17 C16 1.391 . S
H18 C21 0.931 . S
H19 C24 0.928 . S
H20 C26 0.930 . S
C21 H18 0.931 . S
C21 C22 1.413 . S
C21 C23 1.360 . S
C22 C21 1.413 . S
C22 C26 1.429 . S
C23 C21 1.360 . S
C23 C24 1.372 . S
C24 H19 0.928 . S
C24 C23 1.372 . S
C24 C25 1.404 . S
C25 C24 1.404 . S
C25 C26 1.391 . S
C26 H20 0.930 . S
C26 C22 1.429 . S
C26 C25 1.391 . S
H27 C30 0.931 . S
H28 C33 0.928 . S
H29 C35 0.930 . S
C30 H27 0.931 . S
C30 C31 1.413 . S
C30 C32 1.360 . S
C31 C30 1.413 . S
C31 C35 1.429 . S
C32 C30 1.360 . S
C32 C33 1.372 . S
C33 H28 0.928 . S
C33 C32 1.372 . S
C33 C34 1.404 . S
C34 C33 1.404 . S
C34 C35 1.391 . S
C35 H29 0.930 . S
C35 C31 1.429 . S
C35 C34 1.391 . S
Eu36 N65 2.600 . S
Eu36 N71 2.562 . S
Eu36 O80 2.462 . S
Eu36 O81 2.373 . S
Eu36 O83 2.432 . S
Eu36 O84 2.291 1_565 S
Eu36 O88 2.335 1_465 S
Eu36 O91 2.372 1_455 S
Eu36 C100 2.787 . S
C37 N38 1.365 . S
C37 C40 1.405 . S
C37 C44 1.448 . S
N38 C37 1.365 . S
N38 C41 1.319 . S
N38 Eu47 2.600 . S
C39 C41 1.397 . S
C39 C42 1.367 . S
C39 H59 0.931 1_655 S
C40 C37 1.405 . S
C40 C42 1.403 . S
C40 C46 1.439 . S
C41 N38 1.319 . S
C41 C39 1.397 . S
C41 H52 0.930 1_655 S
C42 C39 1.367 . S
C42 C40 1.403 . S
C42 H63 0.929 . S
C43 C44 1.430 . S
C43 C45 1.387 . S
C43 C49 1.404 . S
C44 C37 1.448 . S
C44 C43 1.430 . S
C44 N48 1.351 . S
C45 C43 1.387 . S
C45 C46 1.374 . S
C45 H60 0.931 . S
C46 C40 1.439 . S
C46 C45 1.374 . S
C46 H61 0.931 . S
Eu47 N38 2.600 . S
Eu47 N48 2.562 . S
Eu47 O82 2.335 1_655 S
Eu47 O85 2.372 1_655 S
Eu47 O86 2.462 . S
Eu47 O87 2.373 . S
Eu47 O89 2.432 . S
Eu47 O90 2.291 1_545 S
Eu47 C111 2.787 . S
N48 C44 1.351 . S
N48 Eu47 2.562 . S
N48 C50 1.325 . S
C49 C43 1.404 . S
C49 C51 1.366 . S
C49 H57 0.930 . S
C50 N48 1.325 . S
C50 C51 1.416 . S
C50 H56 0.929 . S
C51 C49 1.366 . S
C51 C50 1.416 . S
C51 H53 0.930 . S
H52 C41 0.930 1_455 S
H53 C51 0.930 . S
H54 C69 0.930 1_655 S
H55 C76 0.930 . S
H56 C50 0.929 . S
H57 C49 0.930 . S
H58 C72 0.929 . S
H59 C39 0.931 1_455 S
H60 C45 0.931 . S
H61 C46 0.931 . S
H62 C67 0.931 1_655 S
H63 C42 0.929 . S
H64 C75 0.930 . S
N65 Eu36 2.600 . S
N65 C66 1.365 . S
N65 C69 1.319 . S
C66 N65 1.365 . S
C66 C68 1.405 . S
C66 C74 1.448 . S
C67 H62 0.931 1_455 S
C67 C69 1.397 . S
C67 C70 1.367 . S
C68 C66 1.405 . S
C68 C70 1.403 . S
C68 C101 1.439 . S
C69 H54 0.930 1_455 S
C69 N65 1.319 . S
C69 C67 1.397 . S
C70 C67 1.367 . S
C70 C68 1.403 . S
C70 H77 0.929 . S
N71 Eu36 2.562 . S
N71 C72 1.325 . S
N71 C74 1.351 . S
C72 H58 0.929 . S
C72 N71 1.325 . S
C72 C76 1.416 . S
C73 C74 1.430 . S
C73 C75 1.404 . S
C73 C102 1.387 . S
C74 C66 1.448 . S
C74 N71 1.351 . S
C74 C73 1.430 . S
C75 H64 0.930 . S
C75 C73 1.404 . S
C75 C76 1.366 . S
C76 H55 0.930 . S
C76 C72 1.416 . S
C76 C75 1.366 . S
H77 C70 0.929 . S
H78 C101 0.931 . S
H79 C102 0.931 . S
O80 Eu36 2.462 . S
O80 C100 1.252 . S
O81 Eu36 2.373 . S
O81 C92 1.249 . S
O82 Eu47 2.335 1_455 S
O82 C92 1.264 1_545 S
O83 Eu36 2.432 . S
O83 C100 1.268 . S
O84 Eu36 2.291 1_545 S
O84 C99 1.255 . S
O85 Eu47 2.372 1_455 S
O85 C99 1.257 . S
O86 Eu47 2.462 . S
O86 C111 1.252 . S
O87 Eu47 2.373 . S
O87 C103 1.249 . S
O88 Eu36 2.335 1_645 S
O88 C103 1.264 . S
O89 Eu47 2.432 . S
O89 C111 1.268 . S
O90 Eu47 2.291 1_565 S
O90 C110 1.255 . S
O91 Eu36 2.372 1_655 S
O91 C110 1.257 . S
C92 O81 1.249 . S
C92 O82 1.264 1_565 S
C93 C96 1.382 . S
C93 C98 1.390 . S
C93 C100 1.506 . S
C94 C95 1.398 . S
C94 C98 1.392 . S
C95 C94 1.398 . S
C95 C97 1.372 . S
C95 H112 0.931 . S
C96 C93 1.382 . S
C96 C97 1.390 . S
C96 H113 0.931 . S
C97 C95 1.372 . S
C97 C96 1.390 . S
C97 H114 0.929 . S
C98 C93 1.390 . S
C98 C94 1.392 . S
C98 H115 0.930 . S
C99 O84 1.255 . S
C99 O85 1.257 . S
C100 Eu36 2.787 . S
C100 O80 1.252 . S
C100 O83 1.268 . S
C100 C93 1.506 . S
C101 C68 1.439 . S
C101 H78 0.931 . S
C101 C102 1.374 . S
C102 C73 1.387 . S
C102 H79 0.931 . S
C102 C101 1.374 . S
C103 O87 1.249 . S
C103 O88 1.264 . S
C104 C107 1.382 . S
C104 C108 1.390 . S
C104 C111 1.506 . S
C105 C106 1.398 . S
C105 C108 1.392 1_554 S
C106 C105 1.398 . S
C106 C109 1.372 1_554 S
C106 H116 0.931 . S
C107 C104 1.382 . S
C107 C109 1.390 . S
C107 H117 0.931 . S
C108 C104 1.390 . S
C108 C105 1.392 1_556 S
C108 H118 0.930 . S
C109 C106 1.372 1_556 S
C109 C107 1.390 . S
C109 H119 0.929 . S
C110 O90 1.255 . S
C110 O91 1.257 . S
C111 Eu47 2.787 . S
C111 O86 1.252 . S
C111 O89 1.268 . S
C111 C104 1.506 . S
H112 C95 0.931 . S
H113 C96 0.931 . S
H114 C97 0.929 . S
H115 C98 0.930 . S
H116 C106 0.931 . S
H117 C107 0.931 . S
H118 C108 0.930 . S
H119 C109 0.929 . S
Eu120 N149 2.599 . S
Eu120 N155 2.562 . S
Eu120 O164 2.462 1_554 S
Eu120 O165 2.373 . S
Eu120 O167 2.432 1_554 S
Eu120 O168 2.291 . S
Eu120 O172 2.335 1_554 S
Eu120 O175 2.372 1_554 S
Eu120 C184 2.787 1_554 S
C121 N122 1.365 . S
C121 C124 1.405 . S
C121 C128 1.448 . S
N122 C121 1.365 . S
N122 C125 1.319 . S
N122 Eu131 2.600 . S
C123 C125 1.397 . S
C123 C126 1.367 1_655 S
C123 H143 0.931 1_655 S
C124 C121 1.405 . S
C124 C126 1.403 1_655 S
C124 C130 1.439 1_655 S
C125 N122 1.319 . S
C125 C123 1.397 . S
C125 H136 0.930 . S
C126 C123 1.367 1_455 S
C126 C124 1.403 1_455 S
C126 H147 0.929 . S
C127 C128 1.430 . S
C127 C129 1.387 . S
C127 C133 1.404 . S
C128 C121 1.448 . S
C128 C127 1.430 . S
C128 N132 1.351 . S
C129 C127 1.387 . S
C129 C130 1.374 1_655 S
C129 H144 0.931 1_655 S
C130 C124 1.439 1_455 S
C130 C129 1.374 1_455 S
C130 H145 0.931 . S
Eu131 N122 2.600 . S
Eu131 N132 2.562 . S
Eu131 O166 2.335 . S
Eu131 O169 2.372 . S
Eu131 O170 2.462 . S
Eu131 O171 2.373 . S
Eu131 O173 2.432 . S
Eu131 O174 2.291 . S
Eu131 C195 2.787 . S
N132 C128 1.351 . S
N132 Eu131 2.562 . S
N132 C134 1.325 . S
C133 C127 1.404 . S
C133 C135 1.366 . S
C133 H141 0.930 1_554 S
C134 N132 1.325 . S
C134 C135 1.416 . S
C134 H140 0.929 . S
C135 C133 1.366 . S
C135 C134 1.416 . S
C135 H137 0.930 1_554 S
H136 C125 0.930 . S
H137 C135 0.930 1_556 S
H138 C153 0.930 . S
H139 C160 0.930 . S
H140 C134 0.929 . S
H141 C133 0.930 1_556 S
H142 C156 0.929 . S
H143 C123 0.931 1_455 S
H144 C129 0.931 1_455 S
H145 C130 0.931 . S
H146 C151 0.931 1_655 S
H147 C126 0.929 . S
H148 C159 0.930 . S
N149 Eu120 2.599 . S
N149 C150 1.366 . S
N149 C153 1.319 1_554 S
C150 N149 1.366 . S
C150 C152 1.405 . S
C150 C158 1.448 . S
C151 H146 0.931 1_455 S
C151 C153 1.397 . S
C151 C154 1.367 1_456 S
C152 C150 1.405 . S
C152 C154 1.403 1_455 S
C152 C185 1.439 1_455 S
C153 H138 0.930 . S
C153 N149 1.319 1_556 S
C153 C151 1.397 . S
C154 C151 1.367 1_654 S
C154 C152 1.403 1_655 S
C154 H161 0.929 . S
N155 Eu120 2.562 . S
N155 C156 1.325 . S
N155 C158 1.351 . S
C156 H142 0.929 . S
C156 N155 1.325 . S
C156 C160 1.416 . S
C157 C158 1.430 . S
C157 C159 1.404 . S
C157 C186 1.387 . S
C158 C150 1.448 . S
C158 N155 1.351 . S
C158 C157 1.430 . S
C159 H148 0.930 . S
C159 C157 1.404 . S
C159 C160 1.366 . S
C160 H139 0.930 . S
C160 C156 1.416 . S
C160 C159 1.366 . S
H161 C154 0.929 . S
H162 C185 0.931 . S
H163 C186 0.931 1_655 S
O164 Eu120 2.462 1_556 S
O164 C184 1.252 . S
O165 Eu120 2.373 . S
O165 C176 1.249 . S
O166 Eu131 2.335 . S
O166 C176 1.264 . S
O167 Eu120 2.432 1_556 S
O167 C184 1.268 . S
O168 Eu120 2.291 . S
O168 C183 1.255 . S
O169 Eu131 2.372 . S
O169 C183 1.257 . S
O170 Eu131 2.462 . S
O170 C195 1.252 . S
O171 Eu131 2.373 . S
O171 C187 1.249 1_554 S
O172 Eu120 2.335 1_556 S
O172 C187 1.264 . S
O173 Eu131 2.432 . S
O173 C195 1.268 . S
O174 Eu131 2.291 . S
O174 C194 1.255 . S
O175 Eu120 2.372 1_556 S
O175 C194 1.257 1_556 S
C176 O165 1.249 . S
C176 O166 1.264 . S
C177 C180 1.382 . S
C177 C182 1.390 . S
C177 C184 1.506 . S
C178 C179 1.398 . S
C178 C182 1.392 . S
C179 C178 1.398 . S
C179 C181 1.372 . S
C179 H196 0.931 . S
C180 C177 1.382 . S
C180 C181 1.390 . S
C180 H197 0.931 . S
C181 C179 1.372 . S
C181 C180 1.390 . S
C181 H198 0.929 . S
C182 C177 1.390 . S
C182 C178 1.392 . S
C182 H199 0.930 . S
C183 O168 1.255 . S
C183 O169 1.257 . S
C184 Eu120 2.787 1_556 S
C184 O164 1.252 . S
C184 O167 1.268 . S
C184 C177 1.506 . S
C185 C152 1.439 1_655 S
C185 H162 0.931 . S
C185 C186 1.374 1_655 S
C186 C157 1.387 . S
C186 H163 0.931 1_455 S
C186 C185 1.374 1_455 S
C187 O171 1.249 1_556 S
C187 O172 1.264 . S
C188 C191 1.382 . S
C188 C192 1.390 . S
C188 C195 1.506 . S
C189 C190 1.398 . S
C189 C192 1.392 . S
C190 C189 1.398 . S
C190 C193 1.372 . S
C190 H200 0.931 . S
C191 C188 1.382 . S
C191 C193 1.390 . S
C191 H201 0.931 . S
C192 C188 1.390 . S
C192 C189 1.392 . S
C192 H202 0.930 . S
C193 C190 1.372 . S
C193 C191 1.390 . S
C193 H203 0.929 . S
C194 O174 1.255 . S
C194 O175 1.257 1_554 S
C195 Eu131 2.787 . S
C195 O170 1.252 . S
C195 O173 1.268 . S
C195 C188 1.506 . S
H196 C179 0.931 . S
H197 C180 0.931 . S
H198 C181 0.929 . S
H199 C182 0.930 . S
H200 C190 0.931 . S
H201 C191 0.931 . S
H202 C192 0.930 . S
H203 C193 0.929 . S
C99 C34 1.647 . S
C7 C194 1.616 . S
C16 C110 1.641 . S
C25 C183 1.607 . S
C94 C5 1.308 . S
C187 C13 1.654 . S
C23 C103 1.744 . S
C32 C178 1.342 . S
C189 C14 1.323 . S
C105 C22 1.302 . S
C176 C31 1.657 . S
C4 C92 1.736 . S
