# Generated by pormake.
# Topology tsx, (6,3)-cn, num edge types: 1
# Building blocks:
#     Node 0, Type 0, BuildingBlock: FUNLAD_clean_sbu_0, # of connection points: 6
#     Node 1, Type 0, BuildingBlock: FUNLAD_clean_sbu_0, # of connection points: 6
#     Node 2, Type 1, BuildingBlock: MIDCAF_clean_linker_0, # of connection points: 3
#     Node 3, Type 1, BuildingBlock: MIDCAF_clean_linker_0, # of connection points: 3
#     Node 4, Type 1, BuildingBlock: MIDCAF_clean_linker_0, # of connection points: 3
#     Node 5, Type 1, BuildingBlock: MIDCAF_clean_linker_0, # of connection points: 3
#     Edge 6, Type (0, 1), None
#     Edge 7, Type (0, 1), None
#     Edge 8, Type (0, 1), None
#     Edge 9, Type (0, 1), None
#     Edge 10, Type (0, 1), None
#     Edge 11, Type (0, 1), None
#     Edge 12, Type (0, 1), None
#     Edge 13, Type (0, 1), None
#     Edge 14, Type (0, 1), None
#     Edge 15, Type (0, 1), None
#     Edge 16, Type (0, 1), None
#     Edge 17, Type (0, 1), None
# Relax obj value: 0.162
# Max RMSD: 0.152
# Mean RMSD: 0.064
data_MOF--net-tsx--node1-FUNLAD_clean_sbu_0--node2-MIDCAF_clean_linker_0--edge1-none
_symmetry_space_group_name_H-M    P1
_symmetry_Int_Tables_number       1
_symmetry_cell_setting            triclinic
loop_
_symmetry_equiv_pos_as_xyz
'x, y, z'
_cell_length_a     12.268021
_cell_length_b     13.712159
_cell_length_c     31.116217
_cell_angle_alpha  91.972365
_cell_angle_beta   91.657148
_cell_angle_gamma 89.688036
loop_
_atom_site_label
_atom_site_type_symbol
_atom_site_fract_x
_atom_site_fract_y
_atom_site_fract_z
_atom_type_partial_charge
C0 C 0.86343 0.85847 0.00015 0.0
N1 N 0.02666 0.0442 0.08623 0.0
C2 C 0.93212 0.05398 0.10777 0.0
C3 C 0.93472 0.06664 0.15244 0.0
C4 C 0.03561 0.06921 0.17492 0.0
C5 C 0.13182 0.06342 0.15164 0.0
C6 C 0.12544 0.05056 0.10708 0.0
Zn7 Zn 0.0223 0.01378 0.02209 0.0
C8 C 0.18094 0.85822 -0.00444 0.0
N9 N 0.01514 0.94987 0.88795 0.0
C10 C 0.91926 0.9405 0.86515 0.0
C11 C 0.11255 0.94748 0.86817 0.0
C12 C 0.11603 0.93996 0.82355 0.0
C13 C 0.0183 0.93552 0.79906 0.0
C14 C 0.91896 0.93311 0.82031 0.0
Zn15 Zn 0.01669 0.97894 0.95221 0.0
O16 O 0.90542 0.91078 0.03042 0.0
C17 C 0.85578 0.13002 0.97401 0.0
O18 O 0.896 0.86737 0.96191 0.0
H19 H 0.18777 0.95475 0.88695 0.0
H20 H 0.85457 0.04885 0.09043 0.0
H21 H 0.84285 0.9426 0.88165 0.0
O22 O 0.89548 0.12188 0.01205 0.0
O23 O 0.89398 0.07827 0.94358 0.0
H24 H 0.19952 0.04319 0.08922 0.0
O25 O 0.13744 0.09375 0.94501 0.0
O26 O 0.13716 0.11835 0.01506 0.0
O27 O 0.13791 0.87798 0.95959 0.0
O28 O 0.14977 0.90302 0.02962 0.0
C29 C 0.17227 0.13968 0.9789 0.0
H30 H 0.85868 0.06976 0.16928 0.0
H31 H 0.21119 0.06633 0.16781 0.0
H32 H 0.19432 0.94044 0.80833 0.0
H33 H 0.84183 0.93043 0.80248 0.0
C34 C 0.3634 0.3587 0.50019 0.0
N35 N 0.52669 0.54444 0.58625 0.0
C36 C 0.43218 0.55421 0.60781 0.0
C37 C 0.43483 0.56684 0.65248 0.0
C38 C 0.53575 0.56941 0.67494 0.0
C39 C 0.63193 0.56364 0.65164 0.0
C40 C 0.6255 0.5508 0.60708 0.0
Zn41 Zn 0.52226 0.51403 0.52212 0.0
C42 C 0.68088 0.35849 0.49555 0.0
N43 N 0.51496 0.45014 0.38797 0.0
C44 C 0.41907 0.44076 0.36518 0.0
C45 C 0.61235 0.44776 0.36817 0.0
C46 C 0.61579 0.44025 0.32356 0.0
C47 C 0.51804 0.43579 0.29908 0.0
C48 C 0.41873 0.43338 0.32034 0.0
Zn49 Zn 0.51658 0.4792 0.45223 0.0
O50 O 0.40541 0.41102 0.53046 0.0
C51 C 0.35567 0.63026 0.47406 0.0
O52 O 0.39592 0.36762 0.46195 0.0
H53 H 0.68759 0.45504 0.38694 0.0
H54 H 0.35461 0.54907 0.59049 0.0
H55 H 0.34267 0.44286 0.3817 0.0
O56 O 0.39541 0.62213 0.5121 0.0
O57 O 0.39385 0.57851 0.44363 0.0
H58 H 0.69955 0.54344 0.58921 0.0
O59 O 0.63731 0.59402 0.44501 0.0
O60 O 0.6371 0.61861 0.51507 0.0
O61 O 0.63782 0.37825 0.45958 0.0
O62 O 0.64975 0.40328 0.52962 0.0
C63 C 0.67217 0.63995 0.47889 0.0
H64 H 0.35881 0.56995 0.66933 0.0
H65 H 0.71132 0.56655 0.6678 0.0
H66 H 0.69407 0.44073 0.30832 0.0
H67 H 0.34158 0.43068 0.30252 0.0
C68 C 0.72752 0.18499 0.48817 0.0
C69 C 0.76362 0.28133 0.49525 0.0
C70 C 0.87004 0.3056 0.48428 0.0
C71 C 0.93639 0.23624 0.46369 0.0
H72 H 0.17018 0.92024 0.49675 0.0
H73 H 0.2918 0.79222 0.52111 0.0
H74 H 0.22557 0.62851 0.40217 0.0
H75 H 0.10319 0.75664 0.37803 0.0
H76 H 0.16398 0.94135 0.30212 0.0
H77 H 0.16652 0.95679 0.22486 0.0
H78 H 0.9139 0.1771 0.23197 0.0
H79 H 0.90967 0.16066 0.30984 0.0
H80 H 0.76054 0.04502 0.45844 0.0
H81 H 0.64393 0.16596 0.4944 0.0
H82 H 0.89777 0.38045 0.48771 0.0
H83 H 0.01556 0.25798 0.45292 0.0
N84 N 0.00534 0.99258 0.44263 0.0
N85 N 0.07521 0.95147 0.37526 0.0
N86 N 0.96973 0.09336 0.38434 0.0
C87 C 0.06547 0.93191 0.41734 0.0
C88 C 0.02715 0.03152 0.35844 0.0
C89 C 0.95876 0.07401 0.42644 0.0
C90 C 0.1267 0.84904 0.43533 0.0
C91 C 0.17897 0.8564 0.47619 0.0
C92 C 0.24924 0.78281 0.49027 0.0
C93 C 0.26927 0.70112 0.46342 0.0
C94 C 0.21279 0.69145 0.42348 0.0
C95 C 0.14262 0.76474 0.40956 0.0
C96 C 0.03575 0.04902 0.31213 0.0
C97 C 0.10941 0.99378 0.28743 0.0
C98 C 0.11169 0.00326 0.24311 0.0
C99 C 0.04031 0.06808 0.22241 0.0
C100 C 0.96913 0.12593 0.24715 0.0
C101 C 0.96718 0.1168 0.2917 0.0
C102 C 0.89728 0.14176 0.45421 0.0
C103 C 0.79373 0.11591 0.46748 0.0
C104 C 0.70866 0.81447 0.48936 0.0
C105 C 0.74898 0.72106 0.47858 0.0
C106 C 0.86056 0.70144 0.48475 0.0
C107 C 0.92922 0.77227 0.50423 0.0
H108 H 0.16789 0.07377 0.47703 0.0
H109 H 0.29008 0.19784 0.45314 0.0
H110 H 0.24611 0.36107 0.57267 0.0
H111 H 0.12219 0.23773 0.59608 0.0
H112 H 0.14054 0.07439 0.67622 0.0
H113 H 0.14118 0.05684 0.75346 0.0
H114 H 0.89807 0.83056 0.73822 0.0
H115 H 0.89579 0.84879 0.66043 0.0
H116 H 0.74217 0.95297 0.52081 0.0
H117 H 0.62192 0.82955 0.48681 0.0
H118 H 0.89223 0.62848 0.47868 0.0
H119 H 0.01281 0.75289 0.51216 0.0
N120 N 0.00802 0.00532 0.52923 0.0
N121 N 0.0709 0.05156 0.59861 0.0
N122 N 0.9559 0.91641 0.58832 0.0
C123 C 0.06847 0.06593 0.55569 0.0
C124 C 0.01481 0.97723 0.61518 0.0
C125 C 0.95251 0.93009 0.54539 0.0
C126 C 0.13447 0.14517 0.53856 0.0
C127 C 0.18147 0.13671 0.49782 0.0
C128 C 0.25248 0.20793 0.48406 0.0
C129 C 0.27882 0.28845 0.51113 0.0
C130 C 0.22862 0.29894 0.55116 0.0
C131 C 0.15751 0.22819 0.56469 0.0
C132 C 0.0178 0.96328 0.66205 0.0
C133 C 0.08735 0.02053 0.68911 0.0
C134 C 0.08847 0.00992 0.73344 0.0
C135 C 0.02008 0.94195 0.75178 0.0
C136 C 0.95118 0.88388 0.72486 0.0
C137 C 0.95031 0.89418 0.68035 0.0
C138 C 0.88728 0.86371 0.51717 0.0
C139 C 0.77711 0.88484 0.509 0.0
C140 C 0.22764 0.68473 -0.01182 0.0
C141 C 0.26369 0.78109 -0.00473 0.0
C142 C 0.37013 0.80539 -0.01567 0.0
C143 C 0.43652 0.73606 0.96374 0.0
H144 H 0.67002 0.41984 -0.00321 0.0
H145 H 0.79164 0.2918 0.02113 0.0
H146 H 0.72602 0.12852 0.90202 0.0
H147 H 0.60366 0.25668 0.8779 0.0
H148 H 0.66422 0.44144 0.8021 0.0
H149 H 0.66672 0.45697 0.72484 0.0
H150 H 0.41408 0.67725 0.73203 0.0
H151 H 0.4099 0.66072 0.8099 0.0
H152 H 0.26073 0.54479 0.95844 0.0
H153 H 0.14404 0.66568 -0.00562 0.0
H154 H 0.39783 0.88025 -0.01223 0.0
H155 H 0.51569 0.75783 0.95299 0.0
N156 N 0.50552 0.49241 0.94262 0.0
N157 N 0.57543 0.45143 0.87525 0.0
N158 N 0.46995 0.5933 0.88436 0.0
C159 C 0.56566 0.43178 0.91732 0.0
C160 C 0.52738 0.53151 0.85845 0.0
C161 C 0.45895 0.57388 0.92646 0.0
C162 C 0.62687 0.34887 0.93528 0.0
C163 C 0.67896 0.3561 0.97618 0.0
C164 C 0.74922 0.28249 -0.00975 0.0
C165 C 0.76941 0.20091 0.96335 0.0
C166 C 0.71311 0.19137 0.92337 0.0
C167 C 0.64296 0.26468 0.90946 0.0
C168 C 0.53598 0.54908 0.81215 0.0
C169 C 0.60965 0.49388 0.78743 0.0
C170 C 0.6119 0.50341 0.74311 0.0
C171 C 0.5405 0.56825 0.72243 0.0
C172 C 0.46933 0.62607 0.74719 0.0
C173 C 0.4674 0.61689 0.79174 0.0
C174 C 0.39745 0.64159 0.95424 0.0
C175 C 0.29389 0.61569 0.96749 0.0
C176 C 0.20868 0.31421 -0.01065 0.0
C177 C 0.24905 0.22082 0.9786 0.0
C178 C 0.36063 0.20125 -0.01522 0.0
C179 C 0.42924 0.27211 0.00426 0.0
H180 H 0.6682 0.57336 0.97707 0.0
H181 H 0.79041 0.6974 0.95316 0.0
H182 H 0.74578 0.8611 0.07253 0.0
H183 H 0.62183 0.7378 0.09596 0.0
H184 H 0.64023 0.57458 0.17621 0.0
H185 H 0.64085 0.55713 0.25345 0.0
H186 H 0.3978 0.33078 0.23825 0.0
H187 H 0.39555 0.34891 0.16046 0.0
H188 H 0.24209 0.45275 0.02079 0.0
H189 H 0.12193 0.32926 -0.01321 0.0
H190 H 0.39234 0.12829 0.97873 0.0
H191 H 0.51284 0.25276 0.0122 0.0
N192 N 0.508 0.50515 0.02922 0.0
N193 N 0.57074 0.55156 0.09859 0.0
N194 N 0.45574 0.4164 0.08833 0.0
C195 C 0.5684 0.56581 0.05566 0.0
C196 C 0.5146 0.47728 0.11519 0.0
C197 C 0.45243 0.42997 0.0454 0.0
C198 C 0.63443 0.64501 0.03852 0.0
C199 C 0.68163 0.6364 -0.00218 0.0
C200 C 0.75265 0.7076 -0.01595 0.0
C201 C 0.77881 0.78824 0.01107 0.0
C202 C 0.72843 0.79887 0.05106 0.0
C203 C 0.6573 0.72814 0.0646 0.0
C204 C 0.51753 0.46343 0.16206 0.0
C205 C 0.58705 0.52072 0.18911 0.0
C206 C 0.58816 0.51017 0.23344 0.0
C207 C 0.51979 0.4422 0.2518 0.0
C208 C 0.4509 0.3841 0.22489 0.0
C209 C 0.45005 0.39434 0.18037 0.0
C210 C 0.38725 0.36355 0.01718 0.0
C211 C 0.27707 0.38462 0.009 0.0
loop_
_geom_bond_atom_site_label_1
_geom_bond_atom_site_label_2
_geom_bond_distance
_geom_bond_site_symmetry_2
_ccdc_geom_bond_type
C0 O16 1.251 . S
C0 O18 1.254 1_554 S
N1 C2 1.333 1_445 S
N1 C6 1.307 . S
N1 Zn7 2.020 . S
C2 N1 1.333 1_665 S
C2 C3 1.379 . S
C2 H20 0.952 . S
C3 C2 1.379 . S
C3 C4 1.390 1_665 S
C3 H30 0.949 . S
C4 C3 1.390 1_445 S
C4 C5 1.357 . S
C5 C4 1.357 . S
C5 C6 1.370 . S
C5 H31 0.950 . S
C6 N1 1.307 . S
C6 C5 1.370 . S
C6 H24 0.948 . S
Zn7 N1 2.020 . S
Zn7 O16 2.039 1_445 S
Zn7 O22 2.034 1_455 S
Zn7 O26 2.025 . S
Zn7 O28 2.024 1_545 S
C8 O27 1.246 1_554 S
C8 O28 1.249 . S
N9 C10 1.307 1_445 S
N9 C11 1.333 . S
N9 Zn15 2.020 . S
C10 N9 1.307 1_665 S
C10 C14 1.370 . S
C10 H21 0.948 . S
C11 N9 1.333 . S
C11 C12 1.379 . S
C11 H19 0.952 . S
C12 C11 1.379 . S
C12 C13 1.390 . S
C12 H32 0.949 . S
C13 C12 1.390 . S
C13 C14 1.357 1_445 S
C14 C10 1.370 . S
C14 C13 1.357 1_665 S
C14 H33 0.950 . S
Zn15 N9 2.020 . S
Zn15 O18 2.025 1_445 S
Zn15 O23 2.024 1_455 S
Zn15 O25 2.039 . S
Zn15 O27 2.034 1_545 S
O16 C0 1.251 . S
O16 Zn7 2.039 1_665 S
C17 O22 1.246 . S
C17 O23 1.249 1_554 S
O18 C0 1.254 1_556 S
O18 Zn15 2.025 1_665 S
H19 C11 0.952 . S
H20 C2 0.952 . S
H21 C10 0.948 . S
O22 Zn7 2.034 1_655 S
O22 C17 1.246 . S
O23 Zn15 2.024 1_655 S
O23 C17 1.249 1_556 S
H24 C6 0.948 . S
O25 Zn15 2.039 . S
O25 C29 1.251 1_556 S
O26 Zn7 2.025 . S
O26 C29 1.254 . S
O27 C8 1.246 1_556 S
O27 Zn15 2.034 1_565 S
O28 Zn7 2.024 1_565 S
O28 C8 1.249 . S
C29 O25 1.251 1_554 S
C29 O26 1.254 . S
H30 C3 0.949 . S
H31 C5 0.950 . S
H32 C12 0.949 . S
H33 C14 0.950 . S
C34 O50 1.251 . S
C34 O52 1.254 . S
N35 C36 1.333 . S
N35 C40 1.307 . S
N35 Zn41 2.020 . S
C36 N35 1.333 . S
C36 C37 1.379 . S
C36 H54 0.952 . S
C37 C36 1.379 . S
C37 C38 1.390 . S
C37 H64 0.949 . S
C38 C37 1.390 . S
C38 C39 1.357 . S
C39 C38 1.357 . S
C39 C40 1.370 . S
C39 H65 0.950 . S
C40 N35 1.307 . S
C40 C39 1.370 . S
C40 H58 0.948 . S
Zn41 N35 2.020 . S
Zn41 O50 2.039 . S
Zn41 O56 2.034 . S
Zn41 O60 2.025 . S
Zn41 O62 2.024 . S
C42 O61 1.246 . S
C42 O62 1.249 . S
N43 C44 1.307 . S
N43 C45 1.333 . S
N43 Zn49 2.020 . S
C44 N43 1.307 . S
C44 C48 1.370 . S
C44 H55 0.948 . S
C45 N43 1.333 . S
C45 C46 1.379 . S
C45 H53 0.952 . S
C46 C45 1.379 . S
C46 C47 1.390 . S
C46 H66 0.949 . S
C47 C46 1.390 . S
C47 C48 1.357 . S
C48 C44 1.370 . S
C48 C47 1.357 . S
C48 H67 0.950 . S
Zn49 N43 2.020 . S
Zn49 O52 2.025 . S
Zn49 O57 2.024 . S
Zn49 O59 2.039 . S
Zn49 O61 2.034 . S
O50 C34 1.251 . S
O50 Zn41 2.039 . S
C51 O56 1.246 . S
C51 O57 1.249 . S
O52 C34 1.254 . S
O52 Zn49 2.025 . S
H53 C45 0.952 . S
H54 C36 0.952 . S
H55 C44 0.948 . S
O56 Zn41 2.034 . S
O56 C51 1.246 . S
O57 Zn49 2.024 . S
O57 C51 1.249 . S
H58 C40 0.948 . S
O59 Zn49 2.039 . S
O59 C63 1.251 . S
O60 Zn41 2.025 . S
O60 C63 1.254 . S
O61 C42 1.246 . S
O61 Zn49 2.034 . S
O62 Zn41 2.024 . S
O62 C42 1.249 . S
C63 O59 1.251 . S
C63 O60 1.254 . S
H64 C37 0.949 . S
H65 C39 0.950 . S
H66 C46 0.949 . S
H67 C48 0.950 . S
C68 C69 1.384 . S
C68 H81 0.947 . S
C68 C103 1.382 . S
C69 C68 1.384 . S
C69 C70 1.378 . S
C70 C69 1.378 . S
C70 C71 1.378 . S
C70 H82 0.952 . S
C71 C70 1.378 . S
C71 H83 0.950 . S
C71 C102 1.383 . S
H72 C91 0.947 . S
H73 C92 0.946 . S
H74 C94 0.953 . S
H75 C95 0.945 . S
H76 C97 0.952 . S
H77 C98 0.949 . S
H78 C100 0.950 . S
H79 C101 0.948 . S
H80 C103 0.951 . S
H81 C68 0.947 . S
H82 C70 0.952 . S
H83 C71 0.950 . S
N84 C87 1.382 1_545 S
N84 C89 1.363 1_455 S
N85 C87 1.371 . S
N85 C88 1.372 1_565 S
N86 C88 1.361 1_655 S
N86 C89 1.377 . S
C87 N84 1.382 1_565 S
C87 N85 1.371 . S
C87 C90 1.480 . S
C88 N85 1.372 1_545 S
C88 N86 1.361 1_455 S
C88 C96 1.457 . S
C89 N84 1.363 1_655 S
C89 N86 1.377 . S
C89 C102 1.479 . S
C90 C87 1.480 . S
C90 C91 1.383 . S
C90 C95 1.385 . S
C91 H72 0.947 . S
C91 C90 1.383 . S
C91 C92 1.388 . S
C92 H73 0.946 . S
C92 C91 1.388 . S
C92 C93 1.384 . S
C93 C92 1.384 . S
C93 C94 1.377 . S
C94 H74 0.953 . S
C94 C93 1.377 . S
C94 C95 1.369 . S
C95 H75 0.945 . S
C95 C90 1.385 . S
C95 C94 1.369 . S
C96 C88 1.457 . S
C96 C97 1.372 1_545 S
C96 C101 1.364 1_455 S
C97 H76 0.952 . S
C97 C96 1.372 1_565 S
C97 C98 1.389 . S
C98 H77 0.949 . S
C98 C97 1.389 . S
C98 C99 1.387 1_565 S
C99 C98 1.387 1_545 S
C99 C100 1.372 1_455 S
C100 H78 0.950 . S
C100 C99 1.372 1_655 S
C100 C101 1.379 . S
C101 H79 0.948 . S
C101 C96 1.364 1_655 S
C101 C100 1.379 . S
C102 C71 1.383 . S
C102 C89 1.479 . S
C102 C103 1.398 . S
C103 C68 1.382 . S
C103 H80 0.951 . S
C103 C102 1.398 . S
C104 C105 1.384 . S
C104 H117 0.947 . S
C104 C139 1.382 . S
C105 C104 1.384 . S
C105 C106 1.378 . S
C106 C105 1.378 . S
C106 C107 1.378 . S
C106 H118 0.952 . S
C107 C106 1.378 . S
C107 H119 0.950 . S
C107 C138 1.383 . S
H108 C127 0.947 . S
H109 C128 0.946 . S
H110 C130 0.953 . S
H111 C131 0.945 . S
H112 C133 0.952 . S
H113 C134 0.949 . S
H114 C136 0.950 . S
H115 C137 0.948 . S
H116 C139 0.951 . S
H117 C104 0.947 . S
H118 C106 0.952 . S
H119 C107 0.950 . S
N120 C123 1.382 1_565 S
N120 C125 1.363 1_455 S
N121 C123 1.371 . S
N121 C124 1.372 1_545 S
N122 C124 1.361 1_655 S
N122 C125 1.377 . S
C123 N120 1.382 1_545 S
C123 N121 1.371 . S
C123 C126 1.480 . S
C124 N121 1.372 1_565 S
C124 N122 1.361 1_455 S
C124 C132 1.457 . S
C125 N120 1.363 1_655 S
C125 N122 1.377 . S
C125 C138 1.479 . S
C126 C123 1.480 . S
C126 C127 1.383 . S
C126 C131 1.385 . S
C127 H108 0.947 . S
C127 C126 1.383 . S
C127 C128 1.388 . S
C128 H109 0.946 . S
C128 C127 1.388 . S
C128 C129 1.384 . S
C129 C128 1.384 . S
C129 C130 1.377 . S
C130 H110 0.953 . S
C130 C129 1.377 . S
C130 C131 1.369 . S
C131 H111 0.945 . S
C131 C126 1.385 . S
C131 C130 1.369 . S
C132 C124 1.457 . S
C132 C133 1.372 1_565 S
C132 C137 1.364 1_455 S
C133 H112 0.952 . S
C133 C132 1.372 1_545 S
C133 C134 1.389 . S
C134 H113 0.949 . S
C134 C133 1.389 . S
C134 C135 1.387 . S
C135 C134 1.387 . S
C135 C136 1.372 1_445 S
C136 H114 0.950 . S
C136 C135 1.372 1_665 S
C136 C137 1.379 . S
C137 H115 0.948 . S
C137 C132 1.364 1_655 S
C137 C136 1.379 . S
C138 C107 1.383 . S
C138 C125 1.479 . S
C138 C139 1.398 . S
C139 C104 1.382 . S
C139 H116 0.951 . S
C139 C138 1.398 . S
C140 C141 1.384 1_556 S
C140 H153 0.947 . S
C140 C175 1.382 . S
C141 C140 1.384 1_554 S
C141 C142 1.378 . S
C142 C141 1.378 . S
C142 C143 1.378 . S
C142 H154 0.952 . S
C143 C142 1.378 . S
C143 H155 0.950 . S
C143 C174 1.383 1_554 S
H144 C163 0.947 . S
H145 C164 0.946 . S
H146 C166 0.953 . S
H147 C167 0.945 . S
H148 C169 0.952 . S
H149 C170 0.949 . S
H150 C172 0.950 . S
H151 C173 0.948 . S
H152 C175 0.951 . S
H153 C140 0.947 . S
H154 C142 0.952 . S
H155 C143 0.950 . S
N156 C159 1.382 . S
N156 C161 1.363 . S
N157 C159 1.371 . S
N157 C160 1.372 . S
N158 C160 1.361 . S
N158 C161 1.377 . S
C159 N156 1.382 . S
C159 N157 1.371 . S
C159 C162 1.480 . S
C160 N157 1.372 . S
C160 N158 1.361 . S
C160 C168 1.457 . S
C161 N156 1.363 . S
C161 N158 1.377 . S
C161 C174 1.479 . S
C162 C159 1.480 . S
C162 C163 1.383 1_556 S
C162 C167 1.385 . S
C163 H144 0.947 . S
C163 C162 1.383 1_554 S
C163 C164 1.388 . S
C164 H145 0.946 . S
C164 C163 1.388 . S
C164 C165 1.384 . S
C165 C164 1.384 . S
C165 C166 1.377 1_554 S
C166 H146 0.953 . S
C166 C165 1.377 1_556 S
C166 C167 1.369 . S
C167 H147 0.945 . S
C167 C162 1.385 . S
C167 C166 1.369 . S
C168 C160 1.457 . S
C168 C169 1.372 . S
C168 C173 1.364 . S
C169 H148 0.952 . S
C169 C168 1.372 . S
C169 C170 1.389 . S
C170 H149 0.949 . S
C170 C169 1.389 . S
C170 C171 1.387 . S
C171 C170 1.387 . S
C171 C172 1.372 . S
C172 H150 0.950 . S
C172 C171 1.372 . S
C172 C173 1.379 . S
C173 H151 0.948 . S
C173 C168 1.364 . S
C173 C172 1.379 . S
C174 C143 1.383 1_556 S
C174 C161 1.479 . S
C174 C175 1.398 . S
C175 C140 1.382 . S
C175 H152 0.951 . S
C175 C174 1.398 . S
C176 C177 1.384 1_554 S
C176 H189 0.947 . S
C176 C211 1.382 . S
C177 C176 1.384 1_556 S
C177 C178 1.378 . S
C178 C177 1.378 . S
C178 C179 1.378 . S
C178 H190 0.952 . S
C179 C178 1.378 . S
C179 H191 0.950 . S
C179 C210 1.383 1_556 S
H180 C199 0.947 . S
H181 C200 0.946 . S
H182 C202 0.953 . S
H183 C203 0.945 . S
H184 C205 0.952 . S
H185 C206 0.949 . S
H186 C208 0.950 . S
H187 C209 0.948 . S
H188 C211 0.951 . S
H189 C176 0.947 . S
H190 C178 0.952 . S
H191 C179 0.950 . S
N192 C195 1.382 . S
N192 C197 1.363 . S
N193 C195 1.371 . S
N193 C196 1.372 . S
N194 C196 1.361 . S
N194 C197 1.377 . S
C195 N192 1.382 . S
C195 N193 1.371 . S
C195 C198 1.480 . S
C196 N193 1.372 . S
C196 N194 1.361 . S
C196 C204 1.457 . S
C197 N192 1.363 . S
C197 N194 1.377 . S
C197 C210 1.479 . S
C198 C195 1.480 . S
C198 C199 1.383 1_554 S
C198 C203 1.385 . S
C199 H180 0.947 . S
C199 C198 1.383 1_556 S
C199 C200 1.388 . S
C200 H181 0.946 . S
C200 C199 1.388 . S
C200 C201 1.384 . S
C201 C200 1.384 . S
C201 C202 1.377 1_556 S
C202 H182 0.953 . S
C202 C201 1.377 1_554 S
C202 C203 1.369 . S
C203 H183 0.945 . S
C203 C198 1.385 . S
C203 C202 1.369 . S
C204 C196 1.457 . S
C204 C205 1.372 . S
C204 C209 1.364 . S
C205 H184 0.952 . S
C205 C204 1.372 . S
C205 C206 1.389 . S
C206 H185 0.949 . S
C206 C205 1.389 . S
C206 C207 1.387 . S
C207 C206 1.387 . S
C207 C208 1.372 . S
C208 H186 0.950 . S
C208 C207 1.372 . S
C208 C209 1.379 . S
C209 H187 0.948 . S
C209 C204 1.364 . S
C209 C208 1.379 . S
C210 C179 1.383 1_554 S
C210 C197 1.479 . S
C210 C211 1.398 . S
C211 C176 1.382 . S
C211 H188 0.951 . S
C211 C210 1.398 . S
C177 C29 2.171 1_556 S
C8 C141 2.066 . S
C0 C201 1.951 1_554 S
C17 C165 2.042 . S
C63 C105 2.171 . S
C42 C69 2.065 . S
C129 C34 1.952 . S
C93 C51 2.043 . S
C4 C99 1.480 . S
C13 C135 1.485 . S
C171 C38 1.480 . S
C47 C207 1.485 . S
