# Generated by pormake.
# Topology anh, (6,3)-cn, num edge types: 1
# Building blocks:
#     Node 0, Type 0, BuildingBlock: BETGAK_clean_sbu_0, # of connection points: 6
#     Node 1, Type 0, BuildingBlock: BETGAK_clean_sbu_0, # of connection points: 6
#     Node 2, Type 0, BuildingBlock: BETGAK_clean_sbu_0, # of connection points: 6
#     Node 3, Type 1, BuildingBlock: CUQRIR_clean_linker_1, # of connection points: 3
#     Node 4, Type 1, BuildingBlock: CUQRIR_clean_linker_1, # of connection points: 3
#     Node 5, Type 1, BuildingBlock: CUQRIR_clean_linker_1, # of connection points: 3
#     Node 6, Type 1, BuildingBlock: CUQRIR_clean_linker_1, # of connection points: 3
#     Node 7, Type 1, BuildingBlock: CUQRIR_clean_linker_1, # of connection points: 3
#     Node 8, Type 1, BuildingBlock: CUQRIR_clean_linker_1, # of connection points: 3
#     Edge 9, Type (0, 1), None
#     Edge 10, Type (0, 1), None
#     Edge 11, Type (0, 1), None
#     Edge 12, Type (0, 1), None
#     Edge 13, Type (0, 1), None
#     Edge 14, Type (0, 1), None
#     Edge 15, Type (0, 1), None
#     Edge 16, Type (0, 1), None
#     Edge 17, Type (0, 1), None
#     Edge 18, Type (0, 1), None
#     Edge 19, Type (0, 1), None
#     Edge 20, Type (0, 1), None
#     Edge 21, Type (0, 1), None
#     Edge 22, Type (0, 1), None
#     Edge 23, Type (0, 1), None
#     Edge 24, Type (0, 1), None
#     Edge 25, Type (0, 1), None
#     Edge 26, Type (0, 1), None
# Relax obj value: 0.533
# Max RMSD: 0.326
# Mean RMSD: 0.207
data_MOF--net-anh--node1-BETGAK_clean_sbu_0--node2-CUQRIR_clean_linker_1--edge1-none
_symmetry_space_group_name_H-M    P1
_symmetry_Int_Tables_number       1
_symmetry_cell_setting            triclinic
loop_
_symmetry_equiv_pos_as_xyz
'x, y, z'
_cell_length_a     12.831097
_cell_length_b     17.505392
_cell_length_c     19.148209
_cell_angle_alpha  84.620059
_cell_angle_beta   94.1084
_cell_angle_gamma 141.08438
loop_
_atom_site_label
_atom_site_type_symbol
_atom_site_fract_x
_atom_site_fract_y
_atom_site_fract_z
_atom_type_partial_charge
La0 La 0.40093 0.55165 0.20416 0.0
La1 La 1.20958 0.53012 0.18481 0.0
C2 C 0.66741 0.63221 0.2244 0.0
C3 C 0.83136 0.75578 0.24255 0.0
C4 C 0.91954 0.77142 0.3007 0.0
C5 C 1.09195 0.8599 0.29262 0.0
C6 C 1.15293 0.90703 0.22329 0.0
C7 C 1.09526 0.94506 0.1916 0.0
C8 C 0.92279 0.85544 0.19264 0.0
C9 C 0.28592 0.53408 0.32723 0.0
C10 C 0.56035 0.81269 0.19052 0.0
C11 C 0.9307 0.43426 0.18323 0.0
C12 C 0.76665 0.35344 0.15017 0.0
C13 C 0.77968 0.38662 0.07964 0.0
C14 C 0.81433 0.48433 0.0666 0.0
C15 C 0.79049 0.51995 0.12024 0.0
C16 C 0.68466 0.43244 0.17578 0.0
C17 C 0.66765 0.34292 0.18989 0.0
C18 C 0.40979 0.62038 0.04797 0.0
C19 C 1.06085 0.27615 0.20978 0.0
O20 O 0.55274 0.56666 0.27192 0.0
O21 O 0.61075 0.62135 0.16192 0.0
O22 O 0.28581 0.46354 0.31239 0.0
O23 O 0.34462 0.60676 0.27563 0.0
O24 O 0.59245 0.75808 0.18257 0.0
O25 O 0.39813 0.73219 0.19977 0.0
O26 O 1.06393 0.54163 0.15238 0.0
O27 O 0.95961 0.38415 0.21671 0.0
O28 O 0.29628 0.5257 0.09194 0.0
O29 O 0.30076 0.53164 0.09468 0.0
O30 O 1.04692 0.33837 0.22923 0.0
O31 O 1.21066 0.34932 0.18484 0.0
H32 H 0.85589 0.70543 0.34517 0.0
H33 H 1.15888 0.86172 0.33182 0.0
H34 H 1.16363 1.01466 0.14915 0.0
H35 H 0.86383 0.85591 0.1497 0.0
H36 H 0.82739 0.37533 0.04335 0.0
H37 H 0.88984 0.54298 0.02181 0.0
H38 H 0.64457 0.44681 0.21454 0.0
H39 H 0.62108 0.29377 0.2408 0.0
La40 La 0.94861 0.10954 0.47754 0.0
La41 La 0.72442 0.09286 0.47277 0.0
C42 C 1.10304 0.0757 0.50977 0.0
C43 C 1.03103 0.96428 0.54403 0.0
C44 C 1.05414 0.90826 0.51452 0.0
C45 C 0.96684 0.79369 0.54097 0.0
C46 C 0.84934 0.73145 0.59483 0.0
C47 C 0.82674 0.78715 0.62461 0.0
C48 C 0.91779 0.90348 0.59979 0.0
C49 C 0.87079 0.1212 0.3453 0.0
C50 C 0.55904 0.83256 0.47439 0.0
C51 C 0.55741 0.11908 0.45239 0.0
C52 C 0.5804 0.20628 0.48162 0.0
C53 C 0.47657 0.16641 0.53635 0.0
C54 C 0.5152 0.2504 0.574 0.0
C55 C 0.65933 0.37493 0.55798 0.0
C56 C 0.75921 0.41551 0.5015 0.0
C57 C 0.71982 0.33177 0.46317 0.0
C58 C 0.79351 0.08261 0.60779 0.0
C59 C 1.12783 0.37196 0.467 0.0
O60 O 1.04848 1.06399 0.44648 0.0
O61 O 1.10554 0.13514 0.5478 0.0
O62 O 1.02059 0.19303 0.36808 0.0
O63 O 0.77427 1.04771 0.39559 0.0
O64 O 0.70901 0.89994 0.50168 0.0
O65 O 0.54782 0.89888 0.44711 0.0
O66 O 0.51745 1.0394 0.49817 0.0
O67 O 0.67194 0.16448 0.40926 0.0
O68 O 0.64878 1.00975 0.57975 0.0
O69 O 0.89343 0.15441 0.55705 0.0
O70 O 0.96875 0.3009 0.45219 0.0
O71 O 1.15411 0.31288 0.48382 0.0
H72 H 1.13693 0.95195 0.47025 0.0
H73 H 0.98743 0.75184 0.51825 0.0
H74 H 0.7345 0.73834 0.66506 0.0
H75 H 0.89359 0.94324 0.62189 0.0
H76 H 0.37268 1.07107 0.55339 0.0
H77 H 0.43653 0.21886 0.61716 0.0
H78 H 0.86884 0.51211 0.4881 0.0
H79 H 0.80247 0.36575 0.42127 0.0
La80 La 0.87561 0.68382 0.87995 0.0
La81 La 0.77274 0.58088 0.87848 0.0
C82 C 1.01988 0.89433 0.83681 0.0
C83 C 0.96738 0.94054 0.80218 0.0
C84 C 1.07759 1.06575 0.80005 0.0
C85 C 1.02726 0.11089 0.77342 0.0
C86 C 0.86486 1.03183 0.74884 0.0
C87 C 0.75435 0.90675 0.75044 0.0
C88 C 0.80504 0.86157 0.77693 0.0
C89 C 0.95433 0.71903 0.01043 0.0
C90 C 0.54634 0.62274 0.92685 0.0
C91 C 0.5844 0.35362 0.88048 0.0
C92 C 0.61868 0.29699 0.85133 0.0
C93 C 0.52553 0.21952 0.79513 0.0
C94 C 0.56608 0.17459 0.76446 0.0
C95 C 0.70448 0.20862 0.78738 0.0
C96 C 0.79461 0.2829 0.84475 0.0
C97 C 0.75153 0.32518 0.87654 0.0
C98 C 0.82777 0.62879 0.73919 0.0
C99 C 1.10042 0.6247 0.86818 0.0
O100 O 0.96225 0.84362 0.89895 0.0
O101 O 1.01375 0.83163 0.8015 0.0
O102 O 1.06259 0.78925 0.96062 0.0
O103 O 0.80839 0.62832 0.98683 0.0
O104 O 0.60792 0.6064 0.87984 0.0
O105 O 0.60465 0.6056 0.87893 0.0
O106 O 0.56871 0.40487 0.83677 0.0
O107 O 0.67478 0.42314 0.93171 0.0
O108 O 0.71513 0.6024 0.76953 0.0
O109 O 0.91256 0.64417 0.78745 0.0
O110 O 1.0272 0.64421 0.90036 0.0
O111 O 1.02917 0.64534 0.90235 0.0
H112 H 1.20097 0.12846 0.82165 0.0
H113 H 1.11299 0.20726 0.77471 0.0
H114 H 0.62789 0.84409 0.73295 0.0
H115 H 0.71635 0.76477 0.77859 0.0
H116 H 0.42365 0.19595 0.77338 0.0
H117 H 0.49078 0.11488 0.72172 0.0
H118 H 0.90079 0.31021 0.86432 0.0
H119 H 0.8261 0.38317 0.91983 0.0
C120 C 0.85193 1.0494 0.18453 0.0
N121 N 0.93186 0.14727 0.22479 0.0
N122 N 0.68658 0.93905 0.20565 0.0
C123 C 0.92738 1.06484 0.12007 0.0
C124 C 0.67522 0.97961 0.2581 0.0
N125 N 0.82384 0.09405 0.27602 0.0
C126 C 0.51439 0.91335 0.28646 0.0
H127 H 0.96731 0.13762 0.08404 0.0
H128 H 0.83814 0.97871 0.09284 0.0
H129 H 1.03979 0.09466 0.13494 0.0
H130 H 0.45872 0.83052 0.31361 0.0
H131 H 0.43106 0.88702 0.24277 0.0
H132 H 0.53026 0.96835 0.32203 0.0
C133 C 0.68476 0.52683 0.57396 0.0
N134 N 0.75612 0.61184 0.61952 0.0
N135 N 0.69979 0.46092 0.59681 0.0
C136 C 0.61809 0.51757 0.50283 0.0
C137 C 0.7818 0.50741 0.65835 0.0
N138 N 0.81071 0.59661 0.67345 0.0
C139 C 0.85454 0.47872 0.69737 0.0
H140 H 0.60537 0.57366 0.49706 0.0
H141 H 0.49577 0.42094 0.49465 0.0
H142 H 0.70337 0.54901 0.46153 0.0
H143 H 0.98471 0.54639 0.67995 0.0
H144 H 0.78433 0.38762 0.68581 0.0
H145 H 0.85553 0.48333 0.75448 0.0
C146 C 0.31518 0.61437 0.87215 0.0
N147 N 0.41733 0.61866 0.92045 0.0
N148 N 1.21979 0.62595 0.89899 0.0
C149 C 0.30701 0.59828 0.79597 0.0
C150 C 0.27293 0.63734 0.96638 0.0
N151 N 0.36755 0.62333 0.97938 0.0
C152 C 0.25508 0.68463 0.0191 0.0
H153 H 0.32465 0.66413 0.76425 0.0
H154 H 1.18166 0.50537 0.78392 0.0
H155 H 0.40139 0.60998 0.7819 0.0
H156 H 1.12314 0.61391 0.03137 0.0
H157 H 0.29599 0.76526 -0.00445 0.0
H158 H 0.3273 0.71123 0.06746 0.0
C159 C 0.37682 0.60162 0.49231 0.0
N160 N 0.2613 0.50052 0.45053 0.0
N161 N 0.43155 0.70493 0.46183 0.0
C162 C 0.41072 0.59283 0.56705 0.0
C163 C 0.32943 0.65373 0.40488 0.0
N164 N 0.26148 0.54679 0.39178 0.0
C165 C 1.21704 0.6582 0.39191 0.0
H166 H 0.2989 0.53888 0.59893 0.0
H167 H 0.51653 0.68453 0.5878 0.0
H168 H 0.43467 0.54388 0.57186 0.0
H169 H 1.17135 0.63488 0.33724 0.0
H170 H 0.27405 0.74583 0.40247 0.0
H171 H 1.10716 0.5869 0.42674 0.0
C172 C 0.76934 0.10408 0.78258 0.0
N173 N 0.80717 0.077 0.73341 0.0
N174 N 0.7519 0.16739 0.7533 0.0
C175 C 0.74622 1.06621 0.85932 0.0
C176 C 0.78504 0.17982 0.68424 0.0
N177 N 0.81861 0.12506 0.67156 0.0
C178 C 0.8028 0.25723 0.6304 0.0
H179 H 0.65443 1.05103 0.88306 0.0
H180 H 0.86664 0.13984 0.8865 0.0
H181 H 0.70461 0.98185 0.86745 0.0
H182 H 0.91313 0.3539 0.64338 0.0
H183 H 0.69271 0.2311 0.63229 0.0
H184 H 0.81852 0.24928 0.57658 0.0
C185 C 1.00148 0.70633 0.18996 0.0
N186 N 0.91356 0.64862 0.13023 0.0
N187 N 1.12957 0.83045 0.17908 0.0
C188 C 0.98435 0.64453 0.25705 0.0
C189 C 1.13239 0.8435 0.10785 0.0
N190 N 0.99682 0.73567 0.07921 0.0
C191 C 0.26563 0.96467 0.06701 0.0
H192 H 0.9742 0.57859 0.24632 0.0
H193 H 0.87139 0.5942 0.28624 0.0
H194 H 1.09462 0.71148 0.29068 0.0
H195 H 1.20965 0.98234 0.0351 0.0
H196 H 0.32684 0.96256 0.03065 0.0
H197 H 0.36179 1.03977 0.10239 0.0
loop_
_geom_bond_atom_site_label_1
_geom_bond_atom_site_label_2
_geom_bond_distance
_geom_bond_site_symmetry_2
_ccdc_geom_bond_type
La0 C2 2.928 . S
La0 O20 2.521 . S
La0 O21 2.628 . S
La0 O22 2.554 . S
La0 O23 2.757 1_455 S
La0 O24 2.470 . S
La0 O29 2.482 . S
La0 O31 2.503 1_455 S
La1 C11 2.928 . S
La1 O23 2.482 . S
La1 O25 2.503 1_655 S
La1 O26 2.521 . S
La1 O27 2.628 . S
La1 O28 2.554 . S
La1 O29 2.757 1_655 S
La1 O30 2.470 . S
C2 La0 2.928 . S
C2 C3 1.503 . S
C2 O20 1.261 . S
C2 O21 1.243 . S
C3 C2 1.503 . S
C3 C4 1.394 . S
C3 C8 1.373 . S
C4 C3 1.394 . S
C4 C5 1.380 . S
C4 H32 0.930 . S
C5 C4 1.380 . S
C5 C6 1.376 . S
C5 H33 0.930 . S
C6 C5 1.376 . S
C6 C7 1.370 . S
C7 C6 1.370 . S
C7 C8 1.396 . S
C7 H34 0.929 . S
C8 C3 1.373 . S
C8 C7 1.396 . S
C8 H35 0.929 . S
C9 O22 1.239 . S
C9 O23 1.290 1_455 S
C10 O24 1.258 . S
C10 O25 1.256 . S
C11 La1 2.928 . S
C11 C12 1.503 . S
C11 O26 1.261 . S
C11 O27 1.243 . S
C12 C11 1.503 . S
C12 C13 1.394 . S
C12 C17 1.373 . S
C13 C12 1.394 . S
C13 C14 1.380 . S
C13 H36 0.930 . S
C14 C13 1.380 . S
C14 C15 1.376 . S
C14 H37 0.930 . S
C15 C14 1.376 . S
C15 C16 1.370 . S
C16 C15 1.370 . S
C16 C17 1.396 . S
C16 H38 0.929 . S
C17 C12 1.373 . S
C17 C16 1.396 . S
C17 H39 0.929 . S
C18 O28 1.240 1_455 S
C18 O29 1.289 . S
C19 O30 1.258 . S
C19 O31 1.256 . S
O20 La0 2.521 . S
O20 C2 1.261 . S
O21 La0 2.628 . S
O21 C2 1.243 . S
O22 La0 2.554 . S
O22 C9 1.239 . S
O23 La0 2.757 1_655 S
O23 La1 2.482 . S
O23 C9 1.290 1_655 S
O24 La0 2.470 . S
O24 C10 1.258 . S
O25 La1 2.503 1_455 S
O25 C10 1.256 . S
O26 La1 2.521 . S
O26 C11 1.261 . S
O27 La1 2.628 . S
O27 C11 1.243 . S
O28 La1 2.554 . S
O28 C18 1.240 1_655 S
O29 La0 2.482 . S
O29 La1 2.757 1_455 S
O29 C18 1.289 . S
O30 La1 2.470 . S
O30 C19 1.258 . S
O31 La0 2.503 1_655 S
O31 C19 1.256 . S
H32 C4 0.930 . S
H33 C5 0.930 . S
H34 C7 0.929 . S
H35 C8 0.929 . S
H36 C13 0.930 . S
H37 C14 0.930 . S
H38 C16 0.929 . S
H39 C17 0.929 . S
La40 C42 2.928 1_545 S
La40 O60 2.521 1_545 S
La40 O61 2.628 1_545 S
La40 O62 2.554 . S
La40 O63 2.757 . S
La40 O64 2.470 1_545 S
La40 O69 2.482 . S
La40 O71 2.503 . S
La41 C51 2.928 . S
La41 O63 2.482 . S
La41 O65 2.503 1_545 S
La41 O66 2.521 . S
La41 O67 2.628 . S
La41 O68 2.554 . S
La41 O69 2.757 . S
La41 O70 2.470 . S
C42 La40 2.928 1_565 S
C42 C43 1.503 . S
C42 O60 1.261 . S
C42 O61 1.243 . S
C43 C42 1.503 . S
C43 C44 1.394 . S
C43 C48 1.373 . S
C44 C43 1.394 . S
C44 C45 1.380 . S
C44 H72 0.930 . S
C45 C44 1.380 . S
C45 C46 1.376 . S
C45 H73 0.930 . S
C46 C45 1.376 . S
C46 C47 1.370 . S
C47 C46 1.370 . S
C47 C48 1.396 . S
C47 H74 0.929 . S
C48 C43 1.373 . S
C48 C47 1.396 . S
C48 H75 0.929 . S
C49 O62 1.240 . S
C49 O63 1.289 . S
C50 O64 1.258 . S
C50 O65 1.256 . S
C51 La41 2.928 . S
C51 C52 1.503 . S
C51 O66 1.261 . S
C51 O67 1.243 . S
C52 C51 1.503 . S
C52 C53 1.394 . S
C52 C57 1.373 . S
C53 C52 1.394 . S
C53 C54 1.380 . S
C53 H76 0.930 . S
C54 C53 1.380 . S
C54 C55 1.376 . S
C54 H77 0.930 . S
C55 C54 1.376 . S
C55 C56 1.370 . S
C56 C55 1.370 . S
C56 C57 1.396 . S
C56 H78 0.929 . S
C57 C52 1.373 . S
C57 C56 1.396 . S
C57 H79 0.929 . S
C58 O68 1.240 . S
C58 O69 1.289 . S
C59 O70 1.258 . S
C59 O71 1.256 . S
O60 La40 2.521 1_565 S
O60 C42 1.261 . S
O61 La40 2.628 1_565 S
O61 C42 1.243 . S
O62 La40 2.554 . S
O62 C49 1.240 . S
O63 La40 2.757 . S
O63 La41 2.482 . S
O63 C49 1.289 . S
O64 La40 2.470 1_565 S
O64 C50 1.258 . S
O65 La41 2.503 1_565 S
O65 C50 1.256 . S
O66 La41 2.521 . S
O66 C51 1.261 . S
O67 La41 2.628 . S
O67 C51 1.243 . S
O68 La41 2.554 . S
O68 C58 1.240 . S
O69 La40 2.482 . S
O69 La41 2.757 . S
O69 C58 1.289 . S
O70 La41 2.470 . S
O70 C59 1.258 . S
O71 La40 2.503 . S
O71 C59 1.256 . S
H72 C44 0.930 . S
H73 C45 0.930 . S
H74 C47 0.929 . S
H75 C48 0.929 . S
H76 C53 0.930 . S
H77 C54 0.930 . S
H78 C56 0.929 . S
H79 C57 0.929 . S
La80 C82 2.928 . S
La80 O100 2.521 . S
La80 O101 2.628 . S
La80 O102 2.554 1_556 S
La80 O103 2.757 . S
La80 O104 2.470 . S
La80 O109 2.482 . S
La80 O111 2.503 . S
La81 C91 2.928 . S
La81 O103 2.482 . S
La81 O105 2.503 . S
La81 O106 2.521 . S
La81 O107 2.628 . S
La81 O108 2.554 . S
La81 O109 2.757 . S
La81 O110 2.470 . S
C82 La80 2.928 . S
C82 C83 1.503 . S
C82 O100 1.261 . S
C82 O101 1.243 . S
C83 C82 1.503 . S
C83 C84 1.394 1_565 S
C83 C88 1.373 . S
C84 C83 1.394 1_545 S
C84 C85 1.380 . S
C84 H112 0.930 . S
C85 C84 1.380 . S
C85 C86 1.376 . S
C85 H113 0.930 . S
C86 C85 1.376 . S
C86 C87 1.370 . S
C87 C86 1.370 . S
C87 C88 1.396 1_545 S
C87 H114 0.929 . S
C88 C83 1.373 . S
C88 C87 1.396 1_565 S
C88 H115 0.929 . S
C89 O102 1.240 . S
C89 O103 1.289 1_554 S
C90 O104 1.258 . S
C90 O105 1.256 . S
C91 La81 2.928 . S
C91 C92 1.503 . S
C91 O106 1.261 . S
C91 O107 1.243 . S
C92 C91 1.503 . S
C92 C93 1.394 . S
C92 C97 1.373 . S
C93 C92 1.394 . S
C93 C94 1.380 . S
C93 H116 0.930 . S
C94 C93 1.380 . S
C94 C95 1.376 . S
C94 H117 0.930 . S
C95 C94 1.376 . S
C95 C96 1.370 . S
C96 C95 1.370 . S
C96 C97 1.396 . S
C96 H118 0.929 . S
C97 C92 1.373 . S
C97 C96 1.396 . S
C97 H119 0.929 . S
C98 O108 1.240 . S
C98 O109 1.289 . S
C99 O110 1.258 . S
C99 O111 1.256 . S
O100 La80 2.521 . S
O100 C82 1.261 . S
O101 La80 2.628 . S
O101 C82 1.243 . S
O102 La80 2.554 1_554 S
O102 C89 1.240 . S
O103 La80 2.757 . S
O103 La81 2.482 . S
O103 C89 1.289 1_556 S
O104 La80 2.470 . S
O104 C90 1.258 . S
O105 La81 2.503 . S
O105 C90 1.256 . S
O106 La81 2.521 . S
O106 C91 1.261 . S
O107 La81 2.628 . S
O107 C91 1.243 . S
O108 La81 2.554 . S
O108 C98 1.240 . S
O109 La80 2.482 . S
O109 La81 2.757 . S
O109 C98 1.289 . S
O110 La81 2.470 . S
O110 C99 1.258 . S
O111 La80 2.503 . S
O111 C99 1.256 . S
H112 C84 0.930 . S
H113 C85 0.930 . S
H114 C87 0.929 . S
H115 C88 0.929 . S
H116 C93 0.930 . S
H117 C94 0.930 . S
H118 C96 0.929 . S
H119 C97 0.929 . S
C120 N121 1.317 1_565 S
C120 N122 1.348 . S
C120 C123 1.485 1_565 S
N121 C120 1.317 1_545 S
N121 N125 1.370 . S
N122 C120 1.348 . S
N122 C124 1.346 . S
C123 C120 1.485 1_545 S
C123 H127 0.960 . S
C123 H128 0.961 1_545 S
C123 H129 0.960 . S
C124 N122 1.346 . S
C124 N125 1.307 1_565 S
C124 C126 1.486 . S
N125 N121 1.370 . S
N125 C124 1.307 1_545 S
C126 C124 1.486 . S
C126 H130 0.960 . S
C126 H131 0.960 . S
C126 H132 0.959 . S
H127 C123 0.960 . S
H128 C123 0.961 1_565 S
H129 C123 0.960 . S
H130 C126 0.960 . S
H131 C126 0.960 . S
H132 C126 0.959 . S
C133 N134 1.317 . S
C133 N135 1.348 . S
C133 C136 1.485 . S
N134 C133 1.317 . S
N134 N138 1.370 . S
N135 C133 1.348 . S
N135 C137 1.346 . S
C136 C133 1.485 . S
C136 H140 0.960 . S
C136 H141 0.961 . S
C136 H142 0.960 . S
C137 N135 1.346 . S
C137 N138 1.307 . S
C137 C139 1.486 . S
N138 N134 1.370 . S
N138 C137 1.307 . S
C139 C137 1.486 . S
C139 H143 0.960 . S
C139 H144 0.960 . S
C139 H145 0.959 . S
H140 C136 0.960 . S
H141 C136 0.961 . S
H142 C136 0.960 . S
H143 C139 0.960 . S
H144 C139 0.960 . S
H145 C139 0.959 . S
C146 N147 1.317 . S
C146 N148 1.348 . S
C146 C149 1.485 . S
N147 C146 1.317 . S
N147 N151 1.370 . S
N148 C146 1.348 . S
N148 C150 1.346 . S
C149 C146 1.485 . S
C149 H153 0.960 . S
C149 H154 0.961 . S
C149 H155 0.960 . S
C150 N148 1.346 . S
C150 N151 1.307 . S
C150 C152 1.486 1_456 S
N151 N147 1.370 . S
N151 C150 1.307 . S
C152 C150 1.486 1_654 S
C152 H156 0.960 . S
C152 H157 0.960 . S
C152 H158 0.959 . S
H153 C149 0.960 . S
H154 C149 0.961 . S
H155 C149 0.960 . S
H156 C152 0.960 . S
H157 C152 0.960 . S
H158 C152 0.959 . S
C159 N160 1.317 . S
C159 N161 1.348 . S
C159 C162 1.485 . S
N160 C159 1.317 . S
N160 N164 1.370 . S
N161 C159 1.348 . S
N161 C163 1.346 . S
C162 C159 1.485 . S
C162 H166 0.960 . S
C162 H167 0.961 . S
C162 H168 0.960 . S
C163 N161 1.346 . S
C163 N164 1.307 . S
C163 C165 1.486 . S
N164 N160 1.370 . S
N164 C163 1.307 . S
C165 C163 1.486 . S
C165 H169 0.960 . S
C165 H170 0.960 . S
C165 H171 0.959 . S
H166 C162 0.960 . S
H167 C162 0.961 . S
H168 C162 0.960 . S
H169 C165 0.960 . S
H170 C165 0.960 . S
H171 C165 0.959 . S
C172 N173 1.317 1_545 S
C172 N174 1.348 . S
C172 C175 1.485 . S
N173 C172 1.317 1_565 S
N173 N177 1.370 1_565 S
N174 C172 1.348 . S
N174 C176 1.346 . S
C175 C172 1.485 . S
C175 H179 0.960 1_545 S
C175 H180 0.961 . S
C175 H181 0.960 . S
C176 N174 1.346 . S
C176 N177 1.307 . S
C176 C178 1.486 . S
N177 N173 1.370 1_545 S
N177 C176 1.307 . S
C178 C176 1.486 . S
C178 H182 0.960 . S
C178 H183 0.960 . S
C178 H184 0.959 . S
H179 C175 0.960 1_565 S
H180 C175 0.961 . S
H181 C175 0.960 . S
H182 C178 0.960 . S
H183 C178 0.960 . S
H184 C178 0.959 . S
C185 N186 1.317 . S
C185 N187 1.348 . S
C185 C188 1.485 . S
N186 C185 1.317 . S
N186 N190 1.370 1_554 S
N187 C185 1.348 . S
N187 C189 1.346 1_554 S
C188 C185 1.485 . S
C188 H192 0.960 . S
C188 H193 0.961 . S
C188 H194 0.960 . S
C189 N187 1.346 1_556 S
C189 N190 1.307 . S
C189 C191 1.486 . S
N190 N186 1.370 1_556 S
N190 C189 1.307 . S
C191 C189 1.486 . S
C191 H195 0.960 . S
C191 H196 0.960 . S
C191 H197 0.959 . S
H192 C188 0.960 . S
H193 C188 0.961 . S
H194 C188 0.960 . S
H195 C191 0.960 . S
H196 C191 0.960 . S
H197 C191 0.959 . S
C6 N187 4.269 . S
C59 N160 2.383 1_655 S
C86 N173 3.436 1_545 S
C15 N186 4.084 . S
N161 C50 2.496 . S
N174 C95 2.527 . S
C46 N134 1.939 . S
C99 N148 4.630 1_655 S
C10 N122 2.730 . S
N135 C55 2.919 . S
N147 C90 5.145 . S
C19 N121 2.579 . S
N151 C18 2.065 1_556 S
C49 N125 1.275 . S
C98 N138 1.360 . S
N177 C58 1.181 . S
N190 C89 1.785 1_556 S
C9 N164 0.996 . S
