# Generated by pormake.
# Topology pth, (4,4)-cn, num edge types: 1
# Building blocks:
#     Node 0, Type 0, BuildingBlock: CEKHIL_clean_sbu_0, # of connection points: 4
#     Node 1, Type 0, BuildingBlock: CEKHIL_clean_sbu_0, # of connection points: 4
#     Node 2, Type 0, BuildingBlock: CEKHIL_clean_sbu_0, # of connection points: 4
#     Node 3, Type 1, BuildingBlock: MIFKUJ_clean_linker_1, # of connection points: 4
#     Node 4, Type 1, BuildingBlock: MIFKUJ_clean_linker_1, # of connection points: 4
#     Node 5, Type 1, BuildingBlock: MIFKUJ_clean_linker_1, # of connection points: 4
#     Edge 6, Type (0, 1), BuildingBlock: EYOCIG_clean_linker_4, # of connection points: 2
#     Edge 7, Type (0, 1), BuildingBlock: EYOCIG_clean_linker_4, # of connection points: 2
#     Edge 8, Type (0, 1), BuildingBlock: EYOCIG_clean_linker_4, # of connection points: 2
#     Edge 9, Type (0, 1), BuildingBlock: EYOCIG_clean_linker_4, # of connection points: 2
#     Edge 10, Type (0, 1), BuildingBlock: EYOCIG_clean_linker_4, # of connection points: 2
#     Edge 11, Type (0, 1), BuildingBlock: EYOCIG_clean_linker_4, # of connection points: 2
#     Edge 12, Type (0, 1), BuildingBlock: EYOCIG_clean_linker_4, # of connection points: 2
#     Edge 13, Type (0, 1), BuildingBlock: EYOCIG_clean_linker_4, # of connection points: 2
#     Edge 14, Type (0, 1), BuildingBlock: EYOCIG_clean_linker_4, # of connection points: 2
#     Edge 15, Type (0, 1), BuildingBlock: EYOCIG_clean_linker_4, # of connection points: 2
#     Edge 16, Type (0, 1), BuildingBlock: EYOCIG_clean_linker_4, # of connection points: 2
#     Edge 17, Type (0, 1), BuildingBlock: EYOCIG_clean_linker_4, # of connection points: 2
# Relax obj value: 0.014
# Max RMSD: 0.064
# Mean RMSD: 0.055
data_MOF--net-pth--node1-CEKHIL_clean_sbu_0--node2-MIFKUJ_clean_linker_1--edge1-EYOCIG_clean_linker_4
_symmetry_space_group_name_H-M    P1
_symmetry_Int_Tables_number       1
_symmetry_cell_setting            triclinic
loop_
_symmetry_equiv_pos_as_xyz
'x, y, z'
_cell_length_a     24.165583
_cell_length_b     24.127141
_cell_length_c     52.690175
_cell_angle_alpha  91.114547
_cell_angle_beta   89.956425
_cell_angle_gamma 119.87096
loop_
_atom_site_label
_atom_site_type_symbol
_atom_site_fract_x
_atom_site_fract_y
_atom_site_fract_z
_atom_type_partial_charge
Co0 Co 0.0243 0.0326 0.06134 0.0
O1 O 0.97786 0.96857 0.08627 0.0
O2 O 0.06662 0.98389 0.06765 0.0
C3 C 0.02121 0.11231 0.08329 0.0
O4 O 0.08736 0.09511 0.03563 0.0
Co5 Co 0.9617 0.09951 0.03351 0.0
O6 O 0.04373 0.14633 0.01583 0.0
C7 C 0.92298 0.96625 0.02064 0.0
C8 C 0.02154 0.95271 0.08385 0.0
C9 C 0.08942 0.13561 0.01952 0.0
O10 O 0.97035 0.97047 0.03338 0.0
O11 O 0.90802 0.01001 0.0203 0.0
O12 O 0.06465 0.09738 0.08833 0.0
O13 O 0.97895 0.07681 0.06646 0.0
Co14 Co 0.03438 0.05055 0.37607 0.0
O15 O 0.98605 0.06656 0.35108 0.0
O16 O 0.07556 0.14109 0.36961 0.0
C17 C 0.03104 0.96721 0.35444 0.0
O18 O 0.0995 0.05349 0.40172 0.0
Co19 Co 0.97601 0.92325 0.40461 0.0
O20 O 0.05944 0.96035 0.42212 0.0
C21 C 0.93579 0.01675 0.41699 0.0
C22 C 0.02949 0.12626 0.35343 0.0
C23 C 0.10393 0.01684 0.41803 0.0
O24 O 0.9818 0.05942 0.40398 0.0
O25 O 0.92185 0.95838 0.41768 0.0
O26 O 0.07362 0.02544 0.34922 0.0
O27 O 0.98964 0.96072 0.37133 0.0
Co28 Co 0.02177 0.01888 0.70961 0.0
O29 O 0.08623 0.06397 0.68445 0.0
O30 O 0.07121 0.97674 0.70373 0.0
C31 C 0.94177 0.01907 0.68759 0.0
O32 O 0.95905 0.95697 0.73548 0.0
Co33 Co 0.95246 0.08168 0.73691 0.0
O34 O 0.90534 1.00001 0.75461 0.0
C35 C 0.0854 0.12255 0.75018 0.0
C36 C 0.10225 0.02052 0.68714 0.0
C37 C 0.9172 0.95474 0.75121 0.0
O38 O 0.08266 0.07518 0.73744 0.0
O39 O 0.04098 0.13654 0.75042 0.0
O40 O 0.95787 0.97609 0.68277 0.0
O41 O 0.97656 0.06287 0.70414 0.0
H42 H 0.10695 0.49018 0.17387 0.0
H43 H 0.10406 0.4046 0.14689 0.0
H44 H 0.91923 0.27124 0.17647 0.0
H45 H 0.92189 0.35683 0.20346 0.0
H46 H 0.02496 0.53611 0.17214 0.0
H47 H 0.09168 0.43669 0.23118 0.0
H48 H 0.09302 0.35521 0.25771 0.0
H49 H 0.92369 0.32854 0.29574 0.0
H50 H 0.92048 0.40837 0.26849 0.0
H51 H 0.91573 0.57444 0.26375 0.0
H52 H 0.91853 0.65996 0.29075 0.0
H53 H 0.10337 0.79339 0.2612 0.0
H54 H 0.10079 0.70785 0.2342 0.0
H55 H 0.99766 0.52842 0.26549 0.0
H56 H 0.93153 0.62889 0.20605 0.0
H57 H 0.93201 0.71142 0.17949 0.0
H58 H 0.10155 0.73631 0.14218 0.0
H59 H 0.10282 0.65555 0.16936 0.0
C60 C 0.01461 0.42984 0.19065 0.0
C61 C 0.06589 0.44251 0.17462 0.0
C62 C 0.06431 0.39381 0.15929 0.0
C63 C 0.01127 0.33206 0.15965 0.0
C64 C 0.9605 0.31883 0.17596 0.0
C65 C 0.96213 0.36749 0.19138 0.0
C66 C 0.01469 0.48249 0.20566 0.0
C67 C 0.02008 0.53507 0.19262 0.0
C68 C 0.00627 0.47979 0.23228 0.0
C69 C 0.00542 0.42818 0.24752 0.0
C70 C 0.05383 0.41237 0.24475 0.0
C71 C 0.05502 0.36633 0.26003 0.0
C72 C 0.00857 0.33631 0.2786 0.0
C73 C 0.95988 0.35138 0.28141 0.0
C74 C 0.95824 0.397 0.26594 0.0
C75 C 0.00801 0.63481 0.24696 0.0
C76 C 0.95673 0.62214 0.26299 0.0
C77 C 0.95824 0.67082 0.27832 0.0
C78 C 0.01123 0.7326 0.27796 0.0
C79 C 0.06205 0.74583 0.26167 0.0
C80 C 0.06049 0.69718 0.24625 0.0
C81 C 0.00792 0.5821 0.23196 0.0
C82 C 0.00248 0.52946 0.24501 0.0
C83 C 0.0163 0.58475 0.20533 0.0
C84 C 0.01774 0.63655 0.19004 0.0
C85 C 0.96968 0.65296 0.19259 0.0
C86 C 0.96952 0.69955 0.17727 0.0
C87 C 0.01675 0.72954 0.15895 0.0
C88 C 0.06476 0.7135 0.15631 0.0
C89 C 0.06535 0.66739 0.17177 0.0
H90 H 0.6617 0.12432 0.50951 0.0
H91 H 0.74481 0.12484 0.48261 0.0
H92 H 0.69521 0.93724 0.50844 0.0
H93 H 0.61163 0.93648 0.53542 0.0
H94 H 0.53455 0.04032 0.50563 0.0
H95 H 0.70123 0.10374 0.56605 0.0
H96 H 0.78324 0.10207 0.59279 0.0
H97 H 0.63943 0.93107 0.62818 0.0
H98 H 0.55732 0.93085 0.60072 0.0
H99 H 0.38678 0.92551 0.59498 0.0
H100 H 0.3038 0.92631 0.62168 0.0
H101 H 0.35519 0.11371 0.59508 0.0
H102 H 0.43838 0.11308 0.56836 0.0
H103 H 0.51498 0.00865 0.59855 0.0
H104 H 0.34797 0.94588 0.53746 0.0
H105 H 0.26695 0.9509 0.51107 0.0
H106 H 0.41356 0.12191 0.47663 0.0
H107 H 0.49437 0.11871 0.5036 0.0
C108 C 0.63066 0.03041 0.52443 0.0
C109 C 0.66882 0.0834 0.50947 0.0
C110 C 0.71611 0.08375 0.4942 0.0
C111 C 0.72552 0.03107 0.4936 0.0
C112 C 0.68831 0.97833 0.50876 0.0
C113 C 0.64099 0.97801 0.52416 0.0
C114 C 0.57789 0.02878 0.53924 0.0
C115 C 0.53059 0.03434 0.52603 0.0
C116 C 0.57237 0.01915 0.56571 0.0
C117 C 0.62289 0.01695 0.58109 0.0
C118 C 0.68724 0.06492 0.57909 0.0
C119 C 0.73404 0.06439 0.5945 0.0
C120 C 0.71707 0.01667 0.61246 0.0
C121 C 0.65325 0.96834 0.61439 0.0
C122 C 0.60647 0.96842 0.5988 0.0
C123 C 0.41871 0.01921 0.5797 0.0
C124 C 0.38005 0.96667 0.59481 0.0
C125 C 0.33276 0.96707 0.60998 0.0
C126 C 0.32385 0.02018 0.61037 0.0
C127 C 0.36155 0.07231 0.59499 0.0
C128 C 0.40875 0.07185 0.57972 0.0
C129 C 0.47144 0.02016 0.56494 0.0
C130 C 0.5188 0.01449 0.57815 0.0
C131 C 0.47709 0.02968 0.53844 0.0
C132 C 0.42731 0.03269 0.52294 0.0
C133 C 0.36267 0.98526 0.52465 0.0
C134 C 0.31652 0.98772 0.50944 0.0
C135 C 0.33464 0.03707 0.49212 0.0
C136 C 0.39891 0.0838 0.49009 0.0
C137 C 0.44492 0.08179 0.50542 0.0
H138 H 0.46472 0.40778 0.84097 0.0
H139 H 0.38128 0.32336 0.81418 0.0
H140 H 0.24423 0.37309 0.84307 0.0
H141 H 0.32797 0.4581 0.86996 0.0
H142 H 0.5084 0.53447 0.83885 0.0
H143 H 0.40832 0.37035 0.89748 0.0
H144 H 0.32598 0.28747 0.92339 0.0
H145 H 0.29674 0.42943 0.96238 0.0
H146 H 0.37752 0.51283 0.93553 0.0
H147 H 0.54547 0.68533 0.93069 0.0
H148 H 0.63121 0.76729 0.9578 0.0
H149 H 0.76304 0.71282 0.92693 0.0
H150 H 0.67763 0.63078 0.90001 0.0
H151 H 0.4984 0.55659 0.93223 0.0
H152 H 0.60108 0.72211 0.87248 0.0
H153 H 0.68602 0.80262 0.84621 0.0
H154 H 0.70967 0.65477 0.8093 0.0
H155 H 0.62682 0.57455 0.83611 0.0
C156 C 0.40251 0.43919 0.8574 0.0
C157 C 0.41677 0.40057 0.84158 0.0
C158 C 0.36931 0.3525 0.82637 0.0
C159 C 0.30717 0.34259 0.82668 0.0
C160 C 0.29223 0.38036 0.84265 0.0
C161 C 0.33978 0.42851 0.85799 0.0
C162 C 0.45406 0.49235 0.87241 0.0
C163 C 0.50673 0.53903 0.85932 0.0
C164 C 0.45059 0.49863 0.89903 0.0
C165 C 0.39873 0.44799 0.91421 0.0
C166 C 0.38322 0.38382 0.91105 0.0
C167 C 0.33657 0.33647 0.92597 0.0
C168 C 0.30579 0.35257 0.94474 0.0
C169 C 0.32017 0.41625 0.94788 0.0
C170 C 0.36644 0.46375 0.93269 0.0
C171 C 0.60514 0.6518 0.91345 0.0
C172 C 0.5929 0.69125 0.92971 0.0
C173 C 0.64167 0.73796 0.94506 0.0
C174 C 0.70291 0.74523 0.9444 0.0
C175 C 0.71578 0.70742 0.92766 0.0
C176 C 0.66718 0.66085 0.9123 0.0
C177 C 0.55252 0.59922 0.89859 0.0
C178 C 0.49981 0.55238 0.91173 0.0
C179 C 0.5558 0.59277 0.87196 0.0
C180 C 0.60813 0.64221 0.85662 0.0
C181 C 0.62531 0.70705 0.85911 0.0
C182 C 0.67328 0.7529 0.84398 0.0
C183 C 0.70385 0.7342 0.82596 0.0
C184 C 0.68653 0.66979 0.82324 0.0
C185 C 0.63919 0.62412 0.83849 0.0
C186 C 0.01099 0.19812 0.11176 0.0
C187 C 0.01454 0.15871 0.09848 0.0
C188 C 0.00854 0.24343 0.12842 0.0
C189 C 0.00863 0.28296 0.14283 0.0
C190 C 0.85969 0.03792 0.44584 0.0
C191 C 0.89739 0.03414 0.43205 0.0
C192 C 0.81299 0.03486 0.46262 0.0
C193 C 0.77273 0.03146 0.47696 0.0
C194 C 0.84193 0.85775 0.77932 0.0
C195 C 0.8794 0.89824 0.76548 0.0
C196 C 0.79439 0.81585 0.79601 0.0
C197 C 0.75295 0.7803 0.81003 0.0
C198 C 0.01808 0.86234 0.11247 0.0
C199 C 0.02064 0.90372 0.09921 0.0
C200 C 0.01602 0.81537 0.12866 0.0
C201 C 0.01568 0.77617 0.14261 0.0
C202 C 0.20503 0.04558 0.44595 0.0
C203 C 0.16209 0.03857 0.43218 0.0
C204 C 0.25031 0.04412 0.46241 0.0
C205 C 0.28793 0.03998 0.47613 0.0
C206 C 0.18085 0.20282 0.77924 0.0
C207 C 0.14055 0.16296 0.76538 0.0
C208 C 0.22321 0.25193 0.796 0.0
C209 C 0.25965 0.29377 0.81031 0.0
C210 C 0.85194 0.02197 0.66003 0.0
C211 C 0.89321 0.02212 0.67297 0.0
C212 C 0.80478 0.02042 0.64369 0.0
C213 C 0.76475 0.01863 0.62948 0.0
C214 C 0.84412 0.86841 0.99206 0.0
C215 C 0.8835 0.90987 1.00571 0.0
C216 C 0.79467 0.82512 0.9757 0.0
C217 C 0.75207 0.78907 0.96163 0.0
C218 C 0.02018 0.87072 0.32599 0.0
C219 C 0.02399 0.91384 0.33928 0.0
C220 C 0.01652 0.82235 0.30931 0.0
C221 C 0.0143 0.78159 0.295 0.0
C222 C 0.19133 0.02068 0.65783 0.0
C223 C 0.15054 0.01961 0.67142 0.0
C224 C 0.23784 0.02154 0.64124 0.0
C225 C 0.2772 0.02162 0.62708 0.0
C226 C 0.18627 0.2118 0.99142 0.0
C227 C 0.14627 0.17378 1.00533 0.0
C228 C 0.22764 0.26102 0.9752 0.0
C229 C 0.26293 0.30392 0.96168 0.0
C230 C 0.02255 0.21153 0.32499 0.0
C231 C 0.02693 0.17365 0.33822 0.0
C232 C 0.01669 0.25469 0.30903 0.0
C233 C 0.01238 0.29178 0.2953 0.0
loop_
_geom_bond_atom_site_label_1
_geom_bond_atom_site_label_2
_geom_bond_distance
_geom_bond_site_symmetry_2
_ccdc_geom_bond_type
Co0 O1 2.216 1_445 S
Co0 O2 2.091 1_545 S
Co0 O4 2.004 . S
Co0 O10 2.021 1_445 S
Co0 O12 2.137 . S
Co0 O13 2.244 1_455 S
O1 Co0 2.216 1_665 S
O1 C8 1.247 1_655 S
O2 Co0 2.091 1_565 S
O2 C8 1.261 . S
C3 O12 1.247 . S
C3 O13 1.272 1_455 S
O4 Co0 2.004 . S
O4 C9 1.259 . S
Co5 O6 2.061 1_655 S
Co5 O11 2.052 . S
Co5 O13 2.135 . S
O6 Co5 2.061 1_455 S
O6 C9 1.235 . S
C7 O10 1.238 . S
C7 O11 1.241 1_565 S
C8 O1 1.247 1_455 S
C8 O2 1.261 . S
C9 O4 1.259 . S
C9 O6 1.235 . S
O10 Co0 2.021 1_665 S
O10 C7 1.238 . S
O11 Co5 2.052 . S
O11 C7 1.241 1_545 S
O12 Co0 2.137 . S
O12 C3 1.247 . S
O13 Co0 2.244 1_655 S
O13 C3 1.272 1_655 S
O13 Co5 2.135 . S
Co14 O15 2.216 1_455 S
Co14 O16 2.091 . S
Co14 O18 2.004 . S
Co14 O24 2.021 1_455 S
Co14 O26 2.137 . S
Co14 O27 2.244 1_445 S
O15 Co14 2.216 1_655 S
O15 C22 1.247 1_655 S
O16 Co14 2.091 . S
O16 C22 1.261 . S
C17 O26 1.247 1_565 S
C17 O27 1.272 1_455 S
O18 Co14 2.004 . S
O18 C23 1.259 . S
Co19 O20 2.061 1_655 S
Co19 O25 2.052 . S
Co19 O27 2.135 . S
O20 Co19 2.061 1_455 S
O20 C23 1.235 1_565 S
C21 O24 1.238 . S
C21 O25 1.241 1_545 S
C22 O15 1.247 1_455 S
C22 O16 1.261 . S
C23 O18 1.259 . S
C23 O20 1.235 1_545 S
O24 Co14 2.021 1_655 S
O24 C21 1.238 . S
O25 Co19 2.052 . S
O25 C21 1.241 1_565 S
O26 Co14 2.137 . S
O26 C17 1.247 1_545 S
O27 Co14 2.244 1_665 S
O27 C17 1.272 1_655 S
O27 Co19 2.135 . S
Co28 O29 2.216 . S
Co28 O30 2.091 1_545 S
Co28 O32 2.004 1_445 S
Co28 O38 2.021 . S
Co28 O40 2.137 1_445 S
Co28 O41 2.244 1_455 S
O29 Co28 2.216 . S
O29 C36 1.247 . S
O30 Co28 2.091 1_565 S
O30 C36 1.261 1_565 S
C31 O40 1.247 1_545 S
C31 O41 1.272 . S
O32 Co28 2.004 1_665 S
O32 C37 1.259 . S
Co33 O34 2.061 1_545 S
Co33 O39 2.052 1_655 S
Co33 O41 2.135 . S
O34 Co33 2.061 1_565 S
O34 C37 1.235 . S
C35 O38 1.238 . S
C35 O39 1.241 . S
C36 O29 1.247 . S
C36 O30 1.261 1_545 S
C37 O32 1.259 . S
C37 O34 1.235 . S
O38 Co28 2.021 . S
O38 C35 1.238 . S
O39 Co33 2.052 1_455 S
O39 C35 1.241 . S
O40 Co28 2.137 1_665 S
O40 C31 1.247 1_565 S
O41 Co28 2.244 1_655 S
O41 C31 1.272 . S
O41 Co33 2.135 . S
H42 C61 0.949 . S
H43 C62 0.950 . S
H44 C64 0.950 . S
H45 C65 0.950 . S
H46 C67 0.950 . S
H47 C70 0.950 . S
H48 C71 0.950 . S
H49 C73 0.951 . S
H50 C74 0.949 . S
H51 C76 0.949 . S
H52 C77 0.950 . S
H53 C79 0.950 . S
H54 C80 0.950 . S
H55 C82 0.950 1_655 S
H56 C85 0.950 . S
H57 C86 0.950 . S
H58 C88 0.951 . S
H59 C89 0.949 . S
C60 C61 1.376 . S
C60 C65 1.386 1_455 S
C60 C66 1.483 . S
C61 H42 0.949 . S
C61 C60 1.376 . S
C61 C62 1.397 . S
C62 H43 0.950 . S
C62 C61 1.397 . S
C62 C63 1.391 . S
C63 C62 1.391 . S
C63 C64 1.405 1_455 S
C64 H44 0.950 . S
C64 C63 1.405 1_655 S
C64 C65 1.367 . S
C65 H45 0.950 . S
C65 C60 1.386 1_655 S
C65 C64 1.367 . S
C66 C60 1.483 . S
C66 C67 1.382 . S
C66 C68 1.403 . S
C67 H46 0.950 . S
C67 C66 1.382 . S
C67 C83 1.411 . S
C68 C66 1.403 . S
C68 C69 1.489 . S
C68 C82 1.411 . S
C69 C68 1.489 . S
C69 C70 1.383 . S
C69 C74 1.382 1_455 S
C70 H47 0.950 . S
C70 C69 1.383 . S
C70 C71 1.395 . S
C71 H48 0.950 . S
C71 C70 1.395 . S
C71 C72 1.288 . S
C72 C71 1.288 . S
C72 C73 1.392 1_455 S
C73 H49 0.951 . S
C73 C72 1.392 1_655 S
C73 C74 1.392 . S
C74 H50 0.949 . S
C74 C69 1.382 1_655 S
C74 C73 1.392 . S
C75 C76 1.376 1_455 S
C75 C80 1.386 . S
C75 C81 1.483 . S
C76 H51 0.949 . S
C76 C75 1.376 1_655 S
C76 C77 1.397 . S
C77 H52 0.950 . S
C77 C76 1.397 . S
C77 C78 1.391 1_655 S
C78 C77 1.391 1_455 S
C78 C79 1.405 . S
C79 H53 0.950 . S
C79 C78 1.405 . S
C79 C80 1.367 . S
C80 H54 0.950 . S
C80 C75 1.386 . S
C80 C79 1.367 . S
C81 C75 1.483 . S
C81 C82 1.382 . S
C81 C83 1.403 . S
C82 H55 0.950 1_455 S
C82 C68 1.411 . S
C82 C81 1.382 . S
C83 C67 1.411 . S
C83 C81 1.403 . S
C83 C84 1.489 . S
C84 C83 1.489 . S
C84 C85 1.383 1_455 S
C84 C89 1.382 . S
C85 H56 0.950 . S
C85 C84 1.383 1_655 S
C85 C86 1.395 . S
C86 H57 0.950 . S
C86 C85 1.395 . S
C86 C87 1.288 1_655 S
C87 C86 1.288 1_455 S
C87 C88 1.392 . S
C88 H58 0.951 . S
C88 C87 1.392 . S
C88 C89 1.392 . S
C89 H59 0.949 . S
C89 C84 1.382 . S
C89 C88 1.392 . S
H90 C109 0.949 . S
H91 C110 0.950 . S
H92 C112 0.950 . S
H93 C113 0.950 . S
H94 C115 0.950 . S
H95 C118 0.950 . S
H96 C119 0.950 . S
H97 C121 0.951 . S
H98 C122 0.949 . S
H99 C124 0.949 . S
H100 C125 0.950 . S
H101 C127 0.950 . S
H102 C128 0.950 . S
H103 C130 0.950 . S
H104 C133 0.950 . S
H105 C134 0.950 . S
H106 C136 0.951 . S
H107 C137 0.949 . S
C108 C109 1.376 . S
C108 C113 1.386 1_545 S
C108 C114 1.483 . S
C109 H90 0.949 . S
C109 C108 1.376 . S
C109 C110 1.397 . S
C110 H91 0.950 . S
C110 C109 1.397 . S
C110 C111 1.391 . S
C111 C110 1.391 . S
C111 C112 1.405 1_545 S
C112 H92 0.950 . S
C112 C111 1.405 1_565 S
C112 C113 1.367 . S
C113 H93 0.950 . S
C113 C108 1.386 1_565 S
C113 C112 1.367 . S
C114 C108 1.483 . S
C114 C115 1.382 . S
C114 C116 1.403 . S
C115 H94 0.950 . S
C115 C114 1.382 . S
C115 C131 1.411 . S
C116 C114 1.403 . S
C116 C117 1.489 . S
C116 C130 1.411 . S
C117 C116 1.489 . S
C117 C118 1.383 . S
C117 C122 1.382 1_545 S
C118 H95 0.950 . S
C118 C117 1.383 . S
C118 C119 1.395 . S
C119 H96 0.950 . S
C119 C118 1.395 . S
C119 C120 1.288 . S
C120 C119 1.288 . S
C120 C121 1.392 1_545 S
C121 H97 0.951 . S
C121 C120 1.392 1_565 S
C121 C122 1.392 . S
C122 H98 0.949 . S
C122 C117 1.382 1_565 S
C122 C121 1.392 . S
C123 C124 1.376 1_545 S
C123 C128 1.386 . S
C123 C129 1.483 . S
C124 H99 0.949 . S
C124 C123 1.376 1_565 S
C124 C125 1.397 . S
C125 H100 0.950 . S
C125 C124 1.397 . S
C125 C126 1.391 1_565 S
C126 C125 1.391 1_545 S
C126 C127 1.405 . S
C127 H101 0.950 . S
C127 C126 1.405 . S
C127 C128 1.367 . S
C128 H102 0.950 . S
C128 C123 1.386 . S
C128 C127 1.367 . S
C129 C123 1.483 . S
C129 C130 1.382 . S
C129 C131 1.403 . S
C130 H103 0.950 . S
C130 C116 1.411 . S
C130 C129 1.382 . S
C131 C115 1.411 . S
C131 C129 1.403 . S
C131 C132 1.489 . S
C132 C131 1.489 . S
C132 C133 1.383 1_545 S
C132 C137 1.382 . S
C133 H104 0.950 . S
C133 C132 1.383 1_565 S
C133 C134 1.395 . S
C134 H105 0.950 . S
C134 C133 1.395 . S
C134 C135 1.288 1_565 S
C135 C134 1.288 1_545 S
C135 C136 1.392 . S
C136 H106 0.951 . S
C136 C135 1.392 . S
C136 C137 1.392 . S
C137 H107 0.949 . S
C137 C132 1.382 . S
C137 C136 1.392 . S
H138 C157 0.949 . S
H139 C158 0.950 . S
H140 C160 0.950 . S
H141 C161 0.950 . S
H142 C163 0.950 . S
H143 C166 0.950 . S
H144 C167 0.950 . S
H145 C169 0.951 . S
H146 C170 0.949 . S
H147 C172 0.949 . S
H148 C173 0.950 . S
H149 C175 0.950 . S
H150 C176 0.950 . S
H151 C178 0.950 . S
H152 C181 0.950 . S
H153 C182 0.950 . S
H154 C184 0.951 . S
H155 C185 0.949 . S
C156 C157 1.376 . S
C156 C161 1.386 . S
C156 C162 1.483 . S
C157 H138 0.949 . S
C157 C156 1.376 . S
C157 C158 1.397 . S
C158 H139 0.950 . S
C158 C157 1.397 . S
C158 C159 1.391 . S
C159 C158 1.391 . S
C159 C160 1.405 . S
C160 H140 0.950 . S
C160 C159 1.405 . S
C160 C161 1.367 . S
C161 H141 0.950 . S
C161 C156 1.386 . S
C161 C160 1.367 . S
C162 C156 1.483 . S
C162 C163 1.382 . S
C162 C164 1.403 . S
C163 H142 0.950 . S
C163 C162 1.382 . S
C163 C179 1.411 . S
C164 C162 1.403 . S
C164 C165 1.489 . S
C164 C178 1.411 . S
C165 C164 1.489 . S
C165 C166 1.383 . S
C165 C170 1.382 . S
C166 H143 0.950 . S
C166 C165 1.383 . S
C166 C167 1.395 . S
C167 H144 0.950 . S
C167 C166 1.395 . S
C167 C168 1.288 . S
C168 C167 1.288 . S
C168 C169 1.392 . S
C169 H145 0.951 . S
C169 C168 1.392 . S
C169 C170 1.392 . S
C170 H146 0.949 . S
C170 C165 1.382 . S
C170 C169 1.392 . S
C171 C172 1.376 . S
C171 C176 1.386 . S
C171 C177 1.483 . S
C172 H147 0.949 . S
C172 C171 1.376 . S
C172 C173 1.397 . S
C173 H148 0.950 . S
C173 C172 1.397 . S
C173 C174 1.391 . S
C174 C173 1.391 . S
C174 C175 1.405 . S
C175 H149 0.950 . S
C175 C174 1.405 . S
C175 C176 1.367 . S
C176 H150 0.950 . S
C176 C171 1.386 . S
C176 C175 1.367 . S
C177 C171 1.483 . S
C177 C178 1.382 . S
C177 C179 1.403 . S
C178 H151 0.950 . S
C178 C164 1.411 . S
C178 C177 1.382 . S
C179 C163 1.411 . S
C179 C177 1.403 . S
C179 C180 1.489 . S
C180 C179 1.489 . S
C180 C181 1.383 . S
C180 C185 1.382 . S
C181 H152 0.950 . S
C181 C180 1.383 . S
C181 C182 1.395 . S
C182 H153 0.950 . S
C182 C181 1.395 . S
C182 C183 1.288 . S
C183 C182 1.288 . S
C183 C184 1.392 . S
C184 H154 0.951 . S
C184 C183 1.392 . S
C184 C185 1.392 . S
C185 H155 0.949 . S
C185 C180 1.382 . S
C185 C184 1.392 . S
C186 C187 1.170 . S
C186 C188 1.380 . S
C187 C186 1.170 . S
C188 C186 1.380 . S
C188 C189 1.170 . S
C189 C188 1.170 . S
C190 C191 1.170 . S
C190 C192 1.380 . S
C191 C190 1.170 . S
C192 C190 1.380 . S
C192 C193 1.170 . S
C193 C192 1.170 . S
C194 C195 1.170 . S
C194 C196 1.380 . S
C195 C194 1.170 . S
C196 C194 1.380 . S
C196 C197 1.170 . S
C197 C196 1.170 . S
C198 C199 1.170 . S
C198 C200 1.380 . S
C199 C198 1.170 . S
C200 C198 1.380 . S
C200 C201 1.170 . S
C201 C200 1.170 . S
C202 C203 1.170 . S
C202 C204 1.380 . S
C203 C202 1.170 . S
C204 C202 1.380 . S
C204 C205 1.170 . S
C205 C204 1.170 . S
C206 C207 1.170 . S
C206 C208 1.380 . S
C207 C206 1.170 . S
C208 C206 1.380 . S
C208 C209 1.170 . S
C209 C208 1.170 . S
C210 C211 1.170 . S
C210 C212 1.380 . S
C211 C210 1.170 . S
C212 C210 1.380 . S
C212 C213 1.170 . S
C213 C212 1.170 . S
C214 C215 1.170 . S
C214 C216 1.380 . S
C215 C214 1.170 . S
C216 C214 1.380 . S
C216 C217 1.170 . S
C217 C216 1.170 . S
C218 C219 1.170 . S
C218 C220 1.380 . S
C219 C218 1.170 . S
C220 C218 1.380 . S
C220 C221 1.170 . S
C221 C220 1.170 . S
C222 C223 1.170 . S
C222 C224 1.380 . S
C223 C222 1.170 . S
C224 C222 1.380 . S
C224 C225 1.170 . S
C225 C224 1.170 . S
C226 C227 1.170 . S
C226 C228 1.380 . S
C227 C226 1.170 . S
C228 C226 1.380 . S
C228 C229 1.170 . S
C229 C228 1.170 . S
C230 C231 1.170 . S
C230 C232 1.380 . S
C231 C230 1.170 . S
C232 C230 1.380 . S
C232 C233 1.170 . S
C233 C232 1.170 . S
C189 C63 1.511 . S
C187 C3 1.506 . S
C191 C21 1.529 . S
C193 C111 1.539 . S
C195 C37 1.494 . S
C197 C183 1.519 . S
C199 C8 1.516 . S
C201 C87 1.504 . S
C205 C135 1.510 . S
C203 C23 1.517 . S
C207 C35 1.488 . S
C209 C159 1.526 . S
C213 C120 1.495 . S
C211 C31 1.494 . S
C215 C7 1.510 1_556 S
C217 C174 1.526 . S
C221 C78 1.510 . S
C219 C17 1.502 . S
C225 C126 1.492 . S
C223 C36 1.492 . S
C229 C168 1.525 . S
C227 C9 1.486 1_556 S
C231 C22 1.516 . S
C233 C72 1.508 . S
