# Generated by pormake.
# Topology rtl, (3,6)-cn, num edge types: 1
# Building blocks:
#     Node 0, Type 0, BuildingBlock: BETDIP_clean_linker_0, # of connection points: 3
#     Node 1, Type 0, BuildingBlock: BETDIP_clean_linker_0, # of connection points: 3
#     Node 2, Type 0, BuildingBlock: BETDIP_clean_linker_0, # of connection points: 3
#     Node 3, Type 0, BuildingBlock: BETDIP_clean_linker_0, # of connection points: 3
#     Node 4, Type 1, BuildingBlock: LEVNOQ01_clean_sbu_1, # of connection points: 6
#     Node 5, Type 1, BuildingBlock: LEVNOQ01_clean_sbu_1, # of connection points: 6
#     Edge 6, Type (0, 1), None
#     Edge 7, Type (0, 1), None
#     Edge 8, Type (0, 1), None
#     Edge 9, Type (0, 1), None
#     Edge 10, Type (0, 1), None
#     Edge 11, Type (0, 1), None
#     Edge 12, Type (0, 1), None
#     Edge 13, Type (0, 1), None
#     Edge 14, Type (0, 1), None
#     Edge 15, Type (0, 1), None
#     Edge 16, Type (0, 1), None
#     Edge 17, Type (0, 1), None
# Relax obj value: 0.018
# Max RMSD: 0.100
# Mean RMSD: 0.078
data_MOF--net-rtl--node1-LEVNOQ01_clean_sbu_1--node2-BETDIP_clean_linker_0--edge1-none
_symmetry_space_group_name_H-M    P1
_symmetry_Int_Tables_number       1
_symmetry_cell_setting            triclinic
loop_
_symmetry_equiv_pos_as_xyz
'x, y, z'
_cell_length_a     14.806363
_cell_length_b     16.258377
_cell_length_c     9.2781004
_cell_angle_alpha  90.241465
_cell_angle_beta   105.69772
_cell_angle_gamma 91.895846
loop_
_atom_site_label
_atom_site_type_symbol
_atom_site_fract_x
_atom_site_fract_y
_atom_site_fract_z
_atom_type_partial_charge
H0 H 0.28185 0.77933 0.95616 0.0
H1 H 0.15101 0.73121 0.31172 0.0
H2 H 0.10264 0.95694 0.06706 0.0
H3 H 0.39745 0.6733 0.2386 0.0
C4 C 0.33964 0.64327 0.15514 0.0
C5 C 0.23934 0.79922 1.02743 0.0
C6 C 0.19357 0.87355 0.99873 0.0
C7 C 0.22353 0.74706 0.1396 0.0
C8 C 0.16472 0.77177 0.22713 0.0
C9 C 0.123 0.84865 0.20305 0.0
C10 C 0.13636 0.89818 0.08737 0.0
N11 N 0.25075 0.6644 0.14112 0.0
H12 H 0.70957 0.77097 0.8834 0.0
H13 H 0.83993 0.73884 0.52655 0.0
H14 H 0.58707 0.60078 0.52403 0.0
H15 H 0.95226 0.91978 0.8035 0.0
C16 C 0.89402 0.88809 0.72383 0.0
C17 C 0.70746 0.74511 0.7746 0.0
C18 C 0.63948 0.68388 0.71031 0.0
C19 C 0.77521 0.77119 0.70224 0.0
C20 C 0.78057 0.72823 0.57215 0.0
C21 C 0.71029 0.66902 0.5042 0.0
C22 C 0.63807 0.64998 0.57115 0.0
N23 N 0.84585 0.82974 0.77907 0.0
H24 H 0.94838 0.28141 0.76069 0.0
H25 H 0.81694 0.2367 0.11473 0.0
H26 H 0.06805 0.11303 0.10841 0.0
H27 H 0.7049 0.4117 0.83673 0.0
C28 C 0.76205 0.38344 0.91687 0.0
C29 C 0.95009 0.25424 0.86789 0.0
C30 C 1.01778 0.19687 0.92899 0.0
C31 C 0.88162 0.2743 0.94009 0.0
C32 C 0.87617 0.22995 0.06864 0.0
C33 C 0.94589 0.17393 0.1335 0.0
C34 C 1.01787 0.16004 0.06498 0.0
N35 N 0.81015 0.32728 0.8629 0.0
H36 H 0.45707 0.24665 0.25016 0.0
H37 H 0.32741 0.28691 0.60364 0.0
H38 H 0.58936 0.40946 0.61676 0.0
H39 H 0.20272 0.11173 0.32874 0.0
C40 C 0.26184 0.14176 0.40914 0.0
C41 C 0.46087 0.27169 0.36022 0.0
C42 C 0.53221 0.3297 0.42715 0.0
C43 C 0.39139 0.24892 0.43104 0.0
C44 C 0.38895 0.29187 0.56203 0.0
C45 C 0.46438 0.3444 0.63665 0.0
C46 C 0.53668 0.36188 0.56913 0.0
N47 N 0.31759 0.1932 0.35384 0.0
O48 O 0.16499 0.16452 0.89264 0.0
Mg49 Mg 0.27119 0.09852 0.82123 0.0
O50 O 1.0336 0.11638 0.72659 0.0
Mg51 Mg 0.07102 0.02231 0.56627 0.0
O52 O 0.20889 0.08393 0.60145 0.0
O53 O 0.34651 0.14415 0.66582 0.0
O54 O 0.10866 0.92825 0.4066 0.0
O55 O 1.01286 0.10518 0.35957 0.0
Mg56 Mg 0.87039 0.94409 0.31284 0.0
O57 O 0.93365 0.95875 0.53101 0.0
O58 O 0.97718 0.87835 0.24332 0.0
O59 O 0.8659 0.06936 0.23192 0.0
O60 O 0.80225 0.88789 0.47115 0.0
C61 C 0.20317 0.92778 0.87795 0.0
C62 C 0.07572 0.16169 0.83956 0.0
C63 C 0.27339 0.12308 0.5602 0.0
C64 C 0.06644 0.88123 0.29636 0.0
C65 C 0.93812 0.11792 0.25518 0.0
C66 C 0.87523 0.91231 0.57427 0.0
O67 O 0.27559 0.97575 0.90362 0.0
O68 O 0.12915 0.94043 0.77246 0.0
O69 O 0.79158 0.57338 0.3994 0.0
Mg70 Mg 0.78547 0.44684 0.3248 0.0
O71 O 0.64187 0.59503 0.28003 0.0
Mg72 Mg 0.58367 0.51049 0.07119 0.0
O73 O 0.72237 0.45545 0.10621 0.0
O74 O 0.85276 0.39066 0.16938 0.0
O75 O 0.53274 0.42268 0.8596 0.0
O76 O 0.62442 0.60955 0.9206 0.0
Mg77 Mg 0.40088 0.552 0.82478 0.0
O78 O 0.44015 0.5682 0.05107 0.0
O79 O 0.3807 0.42862 0.75551 0.0
O80 O 0.49533 0.6265 0.73461 0.0
O81 O 0.2986 0.59954 0.90852 0.0
C82 C 0.58983 0.37052 0.34024 0.0
C83 C 0.71771 0.61485 0.38049 0.0
C84 C 0.78047 0.41061 0.06529 0.0
C85 C 0.45792 0.39572 0.76441 0.0
C86 C 0.58199 0.64249 0.79722 0.0
C87 C 0.35925 0.60029 0.03802 0.0
O88 O 0.67861 0.37726 0.39751 0.0
O89 O 0.54704 0.4111 0.2254 0.0
loop_
_geom_bond_atom_site_label_1
_geom_bond_atom_site_label_2
_geom_bond_distance
_geom_bond_site_symmetry_2
_ccdc_geom_bond_type
H0 C5 0.930 . S
H1 C8 0.930 . S
H2 C10 0.930 . S
H3 C4 1.016 . S
C4 H3 1.016 . S
C4 N11 1.286 . S
C5 H0 0.930 . S
C5 C6 1.397 . S
C5 C7 1.361 1_556 S
C6 C5 1.397 . S
C6 C10 1.390 1_556 S
C7 C5 1.361 1_554 S
C7 C8 1.393 . S
C7 N11 1.413 . S
C8 H1 0.930 . S
C8 C7 1.393 . S
C8 C9 1.399 . S
C9 C8 1.399 . S
C9 C10 1.381 . S
C10 H2 0.930 . S
C10 C6 1.390 1_554 S
C10 C9 1.381 . S
N11 C4 1.286 . S
N11 C7 1.413 . S
H12 C17 0.930 . S
H13 C20 0.930 . S
H14 C22 0.930 . S
H15 C16 1.016 . S
C16 H15 1.016 . S
C16 N23 1.286 . S
C17 H12 0.930 . S
C17 C18 1.397 . S
C17 C19 1.361 . S
C18 C17 1.397 . S
C18 C22 1.390 . S
C19 C17 1.361 . S
C19 C20 1.393 . S
C19 N23 1.413 . S
C20 H13 0.930 . S
C20 C19 1.393 . S
C20 C21 1.399 . S
C21 C20 1.399 . S
C21 C22 1.381 . S
C22 H14 0.930 . S
C22 C18 1.390 . S
C22 C21 1.381 . S
N23 C16 1.286 . S
N23 C19 1.413 . S
H24 C29 0.930 . S
H25 C32 0.930 . S
H26 C34 0.930 . S
H27 C28 1.016 . S
C28 H27 1.016 . S
C28 N35 1.286 1_554 S
C29 H24 0.930 . S
C29 C30 1.397 . S
C29 C31 1.361 . S
C30 C29 1.397 . S
C30 C34 1.389 1_556 S
C31 C29 1.361 . S
C31 C32 1.393 1_556 S
C31 N35 1.413 . S
C32 H25 0.930 . S
C32 C31 1.393 1_554 S
C32 C33 1.399 . S
C33 C32 1.399 . S
C33 C34 1.382 . S
C34 H26 0.930 . S
C34 C30 1.389 1_554 S
C34 C33 1.382 . S
N35 C28 1.286 1_556 S
N35 C31 1.413 . S
H36 C41 0.930 . S
H37 C44 0.930 . S
H38 C46 0.930 . S
H39 C40 1.016 . S
C40 H39 1.016 . S
C40 N47 1.286 . S
C41 H36 0.930 . S
C41 C42 1.397 . S
C41 C43 1.361 . S
C42 C41 1.397 . S
C42 C46 1.390 . S
C43 C41 1.361 . S
C43 C44 1.393 . S
C43 N47 1.413 . S
C44 H37 0.930 . S
C44 C43 1.393 . S
C44 C45 1.399 . S
C45 C44 1.399 . S
C45 C46 1.381 . S
C46 H38 0.930 . S
C46 C42 1.390 . S
C46 C45 1.381 . S
N47 C40 1.286 . S
N47 C43 1.413 . S
O48 Mg49 1.990 . S
O48 C62 1.253 1_455 S
Mg49 O48 1.990 . S
Mg49 O52 2.180 . S
Mg49 O53 2.117 . S
Mg49 O67 2.030 . S
O50 Mg51 2.072 1_655 S
O50 C62 1.260 . S
Mg51 O50 2.072 1_455 S
Mg51 O52 2.099 . S
Mg51 O54 2.079 1_545 S
Mg51 O55 2.072 1_455 S
Mg51 O57 2.099 1_445 S
Mg51 O68 2.079 1_545 S
O52 Mg49 2.180 . S
O52 Mg51 2.099 . S
O52 C63 1.279 . S
O53 Mg49 2.117 . S
O53 C63 1.250 . S
O54 Mg51 2.079 1_565 S
O54 C64 1.264 . S
O55 Mg51 2.072 1_655 S
O55 C65 1.260 . S
Mg56 O57 2.180 . S
Mg56 O58 2.030 1_655 S
Mg56 O59 1.990 1_565 S
Mg56 O60 2.117 . S
O57 Mg51 2.099 1_665 S
O57 Mg56 2.180 . S
O57 C66 1.279 . S
O58 Mg56 2.030 1_455 S
O58 C64 1.248 . S
O59 Mg56 1.990 1_545 S
O59 C65 1.253 . S
O60 Mg56 2.117 . S
O60 C66 1.250 . S
C61 O67 1.248 1_565 S
C61 O68 1.264 . S
C62 O48 1.253 1_655 S
C62 O50 1.260 . S
C63 O52 1.279 . S
C63 O53 1.250 . S
C64 O54 1.264 . S
C64 O58 1.248 . S
C65 O55 1.260 . S
C65 O59 1.253 . S
C66 O57 1.279 . S
C66 O60 1.250 . S
O67 Mg49 2.030 . S
O67 C61 1.248 1_545 S
O68 Mg51 2.079 1_565 S
O68 C61 1.264 . S
O69 Mg70 1.990 . S
O69 C83 1.253 . S
Mg70 O69 1.990 . S
Mg70 O73 2.180 . S
Mg70 O74 2.117 . S
Mg70 O88 2.030 . S
O71 Mg72 2.072 . S
O71 C83 1.260 . S
Mg72 O71 2.072 . S
Mg72 O73 2.099 . S
Mg72 O75 2.079 1_554 S
Mg72 O76 2.072 1_554 S
Mg72 O78 2.099 1_554 S
Mg72 O89 2.079 . S
O73 Mg70 2.180 . S
O73 Mg72 2.099 . S
O73 C84 1.279 . S
O74 Mg70 2.117 . S
O74 C84 1.250 . S
O75 Mg72 2.079 1_556 S
O75 C85 1.264 . S
O76 Mg72 2.072 1_556 S
O76 C86 1.260 . S
Mg77 O78 2.180 . S
Mg77 O79 2.030 . S
Mg77 O80 1.990 . S
Mg77 O81 2.117 . S
O78 Mg72 2.099 1_556 S
O78 Mg77 2.180 . S
O78 C87 1.279 1_556 S
O79 Mg77 2.030 . S
O79 C85 1.248 . S
O80 Mg77 1.990 . S
O80 C86 1.253 . S
O81 Mg77 2.117 . S
O81 C87 1.250 1_556 S
C82 O88 1.248 . S
C82 O89 1.264 . S
C83 O69 1.253 . S
C83 O71 1.260 . S
C84 O73 1.279 . S
C84 O74 1.250 . S
C85 O75 1.264 . S
C85 O79 1.248 . S
C86 O76 1.260 . S
C86 O80 1.253 . S
C87 O78 1.279 1_554 S
C87 O81 1.250 1_554 S
O88 Mg70 2.030 . S
O88 C82 1.248 . S
O89 Mg72 2.079 . S
O89 C82 1.264 . S
C63 C40 1.168 . S
C4 C87 1.541 . S
C16 C66 1.390 . S
C28 C84 1.311 . S
C64 C9 1.480 . S
C86 C18 1.528 . S
C33 C65 1.601 . S
C45 C85 1.380 . S
C83 C21 1.500 . S
C62 C30 1.438 . S
C82 C42 1.427 . S
C6 C61 1.333 . S
