# Generated by pormake.
# Topology pts, (4,4)-cn, num edge types: 1
# Building blocks:
#     Node 0, Type 0, BuildingBlock: MIFKUJ_clean_linker_1, # of connection points: 4
#     Node 1, Type 0, BuildingBlock: MIFKUJ_clean_linker_1, # of connection points: 4
#     Node 2, Type 1, BuildingBlock: QUQFOY_clean_sbu_1, # of connection points: 4
#     Node 3, Type 1, BuildingBlock: QUQFOY_clean_sbu_1, # of connection points: 4
#     Edge 4, Type (0, 1), BuildingBlock: OJICUG_clean_linker_0, # of connection points: 2
#     Edge 5, Type (0, 1), BuildingBlock: OJICUG_clean_linker_0, # of connection points: 2
#     Edge 6, Type (0, 1), BuildingBlock: OJICUG_clean_linker_0, # of connection points: 2
#     Edge 7, Type (0, 1), BuildingBlock: OJICUG_clean_linker_0, # of connection points: 2
#     Edge 8, Type (0, 1), BuildingBlock: OJICUG_clean_linker_0, # of connection points: 2
#     Edge 9, Type (0, 1), BuildingBlock: OJICUG_clean_linker_0, # of connection points: 2
#     Edge 10, Type (0, 1), BuildingBlock: OJICUG_clean_linker_0, # of connection points: 2
#     Edge 11, Type (0, 1), BuildingBlock: OJICUG_clean_linker_0, # of connection points: 2
# Relax obj value: 0.095
# Max RMSD: 0.258
# Mean RMSD: 0.153
data_MOF--net-pts--node1-QUQFOY_clean_sbu_1--node2-MIFKUJ_clean_linker_1--edge1-OJICUG_clean_linker_0
_symmetry_space_group_name_H-M    P1
_symmetry_Int_Tables_number       1
_symmetry_cell_setting            triclinic
loop_
_symmetry_equiv_pos_as_xyz
'x, y, z'
_cell_length_a     23.123682
_cell_length_b     24.791963
_cell_length_c     33.017421
_cell_angle_alpha  90.247854
_cell_angle_beta   90.102295
_cell_angle_gamma 89.747206
loop_
_atom_site_label
_atom_site_type_symbol
_atom_site_fract_x
_atom_site_fract_y
_atom_site_fract_z
_atom_type_partial_charge
H0 H 0.55824 0.91573 0.09581 0.0
H1 H 0.64208 0.91722 0.14088 0.0
H2 H 0.69628 0.0679 0.08789 0.0
H3 H 0.611 0.06731 0.04419 0.0
H4 H 0.47153 0.98462 0.09544 0.0
H5 H 0.61396 0.92831 0.99708 0.0
H6 H 0.69944 0.93124 0.95367 0.0
H7 H 0.63825 0.08104 0.90205 0.0
H8 H 0.55469 0.07918 0.94681 0.0
H9 H 0.3878 0.08304 0.94814 0.0
H10 H 0.30417 0.0857 0.903 0.0
H11 H 0.24368 0.93565 0.95364 0.0
H12 H 0.32901 0.93189 0.99714 0.0
H13 H 0.47107 0.01053 0.94667 0.0
H14 H 0.35766 0.08397 0.06339 0.0
H15 H 0.2752 0.08928 0.10924 0.0
H16 H 0.27735 0.91524 0.12014 0.0
H17 H 0.36249 0.91125 0.07659 0.0
C18 C 0.57856 0.99116 0.06639 0.0
C19 C 0.5884 0.94893 0.09377 0.0
C20 C 0.63654 0.94967 0.11935 0.0
C21 C 0.6758 0.99278 0.11809 0.0
C22 C 0.66645 0.03449 0.09003 0.0
C23 C 0.61814 0.03382 0.06459 0.0
C24 C 0.52458 0.99265 0.04214 0.0
C25 C 0.4717 0.98936 0.06277 0.0
C26 C 0.52438 0.00088 0.99974 0.0
C27 C 0.57813 0.00374 0.97544 0.0
C28 C 0.61959 0.96228 0.97697 0.0
C29 C 0.66803 0.96365 0.95172 0.0
C30 C 0.6756 0.00627 0.92422 0.0
C31 C 0.63426 0.04799 0.92318 0.0
C32 C 0.58616 0.04676 0.94856 0.0
C33 C 0.36438 0.00759 0.97637 0.0
C34 C 0.35626 0.05093 0.94971 0.0
C35 C 0.30823 0.05254 0.92407 0.0
C36 C 0.26727 0.01079 0.92459 0.0
C37 C 0.27481 0.96808 0.95206 0.0
C38 C 0.32307 0.96635 0.97752 0.0
C39 C 0.41863 0.00313 1.00006 0.0
C40 C 0.47135 0.00563 0.97932 0.0
C41 C 0.41897 0.99513 0.04231 0.0
C42 C 0.36559 0.99724 0.06658 0.0
C43 C 0.33993 0.04708 0.07561 0.0
C44 C 0.29253 0.04989 0.10169 0.0
C45 C 0.26927 0.00269 0.1187 0.0
C46 C 0.29463 0.95262 0.10856 0.0
C47 C 0.34287 0.95005 0.08324 0.0
H48 H 0.05563 0.4281 0.44385 0.0
H49 H 0.05631 0.34777 0.40068 0.0
H50 H 0.89791 0.29408 0.45624 0.0
H51 H 0.89655 0.37523 0.49884 0.0
H52 H -0.01743 0.50786 0.44607 0.0
H53 H 0.04537 0.37421 0.54212 0.0
H54 H 0.043 0.29323 0.58434 0.0
H55 H 0.88363 0.34882 0.63862 0.0
H56 H 0.88563 0.42916 0.59604 0.0
H57 H 0.88744 0.58803 0.59718 0.0
H58 H 0.88656 0.66881 0.63988 0.0
H59 H 0.04584 0.7214 0.5849 0.0
H60 H 0.04725 0.63989 0.54271 0.0
H61 H 0.96074 0.50779 0.59534 0.0
H62 H 0.89746 0.64091 0.49907 0.0
H63 H 0.9 0.72227 0.45728 0.0
H64 H 0.06039 0.66778 0.4038 0.0
H65 H 0.05804 0.58696 0.44585 0.0
C66 C -0.02376 0.40772 0.4748 0.0
C67 C 0.02103 0.39907 0.44683 0.0
C68 C 0.02142 0.35316 0.4222 0.0
C69 C -0.02286 0.31474 0.42512 0.0
C70 C 0.93293 0.32273 0.4537 0.0
C71 C 0.93218 0.36907 0.47806 0.0
C72 C -0.02532 0.45829 0.49919 0.0
C73 C -0.02139 0.50779 0.47881 0.0
C74 C 0.96785 0.45831 0.54178 0.0
C75 C 0.9655 0.40774 0.56574 0.0
C76 C 0.00938 0.36852 0.56259 0.0
C77 C 0.00801 0.32225 0.5867 0.0
C78 C 0.96323 0.31483 0.61485 0.0
C79 C 0.91901 0.35375 0.61751 0.0
C80 C 0.92012 0.39966 0.59321 0.0
C81 C 0.96721 0.60789 0.56653 0.0
C82 C 0.92219 0.61691 0.59426 0.0
C83 C 0.9217 0.66309 0.61862 0.0
C84 C 0.96615 0.70136 0.6157 0.0
C85 C 0.01067 0.6929 0.58742 0.0
C86 C 0.01147 0.64634 0.56331 0.0
C87 C 0.96867 0.55729 0.54222 0.0
C88 C 0.9647 0.5078 0.5626 0.0
C89 C -0.02457 0.55726 0.49963 0.0
C90 C -0.02228 0.60787 0.47574 0.0
C91 C 0.93364 0.6469 0.47882 0.0
C92 C 0.93514 0.6934 0.45497 0.0
C93 C -0.0197 0.70129 0.42719 0.0
C94 C 0.02469 0.6625 0.42459 0.0
C95 C 0.0234 0.61631 0.4486 0.0
O96 O 0.90071 0.96014 0.23504 0.0
Cd97 Cd -0.0244 0.95159 0.26881 0.0
Cd98 Cd 0.9694 0.06502 0.26501 0.0
O99 O 0.89247 0.04889 0.23633 0.0
O100 O -0.02027 0.8724 0.27807 0.0
O101 O -0.0277 0.9313 0.32811 0.0
C102 C -0.02355 0.88168 0.31637 0.0
C103 C 0.97064 0.1349 0.31283 0.0
C104 C 0.87348 0.00298 0.22563 0.0
C105 C 0.07138 0.01012 0.22583 0.0
O106 O 0.04342 0.05372 0.23136 0.0
O107 O 0.05319 0.96593 0.24024 0.0
O108 O 0.968 0.14432 0.27454 0.0
O109 O -0.02787 0.08518 0.32435 0.0
O110 O 0.89521 0.05382 0.80663 0.0
Cd111 Cd 0.97046 0.06683 0.77508 0.0
Cd112 Cd -0.02781 0.95305 0.77428 0.0
O113 O 0.89624 0.96484 0.8058 0.0
O114 O 0.96811 0.14597 0.7654 0.0
O115 O 0.9705 0.08622 0.71563 0.0
C116 C 0.96862 0.13608 0.7271 0.0
C117 C -0.02823 0.8826 0.72678 0.0
C118 C 0.87275 0.00909 0.81642 0.0
C119 C 0.0705 0.01103 0.81599 0.0
O120 O 0.04838 0.96632 0.8053 0.0
O121 O 0.04639 0.05538 0.80652 0.0
O122 O -0.02789 0.87364 0.76515 0.0
O123 O -0.02779 0.93218 0.71495 0.0
C124 C 0.17628 0.04558 0.14259 0.0
C125 C 0.21929 0.00567 0.14713 0.0
H126 H 0.09652 0.0788 0.16436 0.0
C127 C 0.214 0.96853 0.17908 0.0
H128 H 0.17797 0.07429 0.11803 0.0
C129 C 0.16627 0.97029 0.20493 0.0
C130 C 0.12349 0.01005 0.20013 0.0
H131 H 0.24679 0.93807 0.18436 0.0
H132 H 0.16298 0.94065 0.22883 0.0
C133 C 0.12931 0.04811 0.16908 0.0
C134 C 0.95349 0.27672 0.68442 0.0
C135 C 0.96409 0.26832 0.64301 0.0
H136 H 0.94691 0.2418 0.74321 0.0
C137 C -0.0239 0.21573 0.62915 0.0
H138 H 0.94487 0.31686 0.69609 0.0
C139 C -0.02296 0.17236 0.65626 0.0
C140 C 0.96677 0.18102 0.69774 0.0
H141 H -0.01582 0.2081 0.59733 0.0
H142 H -0.01372 0.13224 0.64481 0.0
C143 C 0.95504 0.23368 0.71146 0.0
C144 C 0.75707 0.94802 0.15603 0.0
C145 C 0.72552 0.99492 0.14659 0.0
H146 H 0.82823 0.91362 0.18855 0.0
C147 C 0.74166 0.04402 0.16472 0.0
H148 H 0.7461 0.90963 0.14233 0.0
C149 C 0.78894 0.0464 0.19101 0.0
C150 C 0.82107 -0.00032 0.19995 0.0
H151 H 0.71757 0.08071 0.15876 0.0
H152 H 0.8005 0.08503 0.20408 0.0
C153 C 0.80425 0.95034 0.18248 0.0
C154 C 0.95749 0.74095 0.68515 0.0
C155 C 0.96739 0.74841 0.64362 0.0
H156 H 0.95151 0.77722 0.74376 0.0
C157 C -0.0211 0.80064 0.62935 0.0
H158 H 0.94924 0.70109 0.6971 0.0
C159 C -0.0201 0.84463 0.65617 0.0
C160 C 0.97026 0.83693 0.69777 0.0
H161 H -0.01356 0.80753 0.59742 0.0
H162 H -0.01137 0.88447 0.6444 0.0
C163 C 0.95916 0.78459 0.71191 0.0
C164 C 0.1993 0.96306 0.87725 0.0
C165 C 0.21771 0.01112 0.89591 0.0
H166 H 0.13885 0.92532 0.83718 0.0
C167 C 0.18865 0.05948 0.88672 0.0
H168 H 0.22145 0.92527 0.883 0.0
C169 C 0.14183 0.05965 0.85995 0.0
C170 C 0.12275 0.01141 0.84193 0.0
H171 H 0.20131 0.09713 0.90085 0.0
H172 H 0.11985 0.0975 0.85409 0.0
C173 C 0.15227 0.96317 0.85066 0.0
C174 C -0.01558 0.27617 0.35529 0.0
C175 C -0.02429 0.26805 0.39689 0.0
H176 H -0.01079 0.24071 0.29633 0.0
C177 C 0.96523 0.21552 0.41092 0.0
H178 H -0.00811 0.31627 0.34355 0.0
C179 C 0.96408 0.17188 0.38379 0.0
C180 C -0.02753 0.18022 0.34212 0.0
H181 H 0.9586 0.20816 0.44289 0.0
H182 H 0.95615 0.13179 0.39538 0.0
C183 C -0.01748 0.23285 0.32823 0.0
C184 C 0.75391 0.05563 0.88729 0.0
C185 C 0.72577 0.00695 0.89618 0.0
H186 H 0.82181 0.09459 0.85494 0.0
C187 C 0.74544 0.95913 0.87764 0.0
H188 H 0.74041 0.09311 0.90143 0.0
C189 C 0.79254 0.95989 0.8512 0.0
C190 C 0.82082 0.00855 0.84252 0.0
H191 H 0.72411 0.92108 0.88324 0.0
H192 H 0.80685 0.92227 0.83766 0.0
C193 C 0.80072 0.05646 0.86066 0.0
C194 C 0.96667 0.80049 0.4135 0.0
C195 C -0.02024 0.74821 0.3994 0.0
H196 H 0.95596 0.8841 0.39838 0.0
C197 C -0.00825 0.74055 0.3581 0.0
H198 H 0.95753 0.80758 0.44524 0.0
C199 C -0.0094 0.78399 0.33142 0.0
C200 C -0.02222 0.83632 0.34537 0.0
H201 H 0.00118 0.70069 0.34621 0.0
H202 H -0.00015 0.7764 0.29975 0.0
C203 C 0.96603 0.84425 0.38674 0.0
loop_
_geom_bond_atom_site_label_1
_geom_bond_atom_site_label_2
_geom_bond_distance
_geom_bond_site_symmetry_2
_ccdc_geom_bond_type
H0 C19 0.949 . S
H1 C20 0.950 . S
H2 C22 0.950 . S
H3 C23 0.950 . S
H4 C25 0.952 . S
H5 C28 0.950 . S
H6 C29 0.950 . S
H7 C31 0.951 . S
H8 C32 0.949 . S
H9 C34 0.949 . S
H10 C35 0.950 . S
H11 C37 0.950 . S
H12 C38 0.950 . S
H13 C40 0.950 . S
H14 C43 0.950 . S
H15 C44 0.950 . S
H16 C46 0.951 . S
H17 C47 0.949 . S
C18 C19 1.376 1_545 S
C18 C23 1.386 . S
C18 C24 1.483 . S
C19 H0 0.949 . S
C19 C18 1.376 1_565 S
C19 C20 1.397 . S
C20 H1 0.950 . S
C20 C19 1.397 . S
C20 C21 1.391 1_565 S
C21 C20 1.391 1_545 S
C21 C22 1.405 . S
C22 H2 0.950 . S
C22 C21 1.405 . S
C22 C23 1.367 . S
C23 H3 0.950 . S
C23 C18 1.386 . S
C23 C22 1.367 . S
C24 C18 1.483 . S
C24 C25 1.381 1_545 S
C24 C26 1.403 1_554 S
C25 H4 0.952 . S
C25 C24 1.381 1_565 S
C25 C41 1.410 1_565 S
C26 C24 1.403 1_556 S
C26 C27 1.489 . S
C26 C40 1.411 . S
C27 C26 1.489 . S
C27 C28 1.383 1_545 S
C27 C32 1.382 . S
C28 H5 0.950 . S
C28 C27 1.383 1_565 S
C28 C29 1.395 . S
C29 H6 0.950 . S
C29 C28 1.395 . S
C29 C30 1.288 1_565 S
C30 C29 1.288 1_545 S
C30 C31 1.392 . S
C31 H7 0.951 . S
C31 C30 1.392 . S
C31 C32 1.392 . S
C32 H8 0.949 . S
C32 C27 1.382 . S
C32 C31 1.392 . S
C33 C34 1.376 . S
C33 C38 1.386 1_545 S
C33 C39 1.483 . S
C34 H9 0.949 . S
C34 C33 1.376 . S
C34 C35 1.397 . S
C35 H10 0.950 . S
C35 C34 1.397 . S
C35 C36 1.391 . S
C36 C35 1.391 . S
C36 C37 1.405 1_545 S
C37 H11 0.950 . S
C37 C36 1.405 1_565 S
C37 C38 1.367 . S
C38 H12 0.950 . S
C38 C33 1.386 1_565 S
C38 C37 1.367 . S
C39 C33 1.483 . S
C39 C40 1.382 . S
C39 C41 1.403 1_556 S
C40 H13 0.950 . S
C40 C26 1.411 . S
C40 C39 1.382 . S
C41 C25 1.410 1_545 S
C41 C39 1.403 1_554 S
C41 C42 1.489 . S
C42 C41 1.489 . S
C42 C43 1.383 . S
C42 C47 1.382 1_545 S
C43 H14 0.950 . S
C43 C42 1.383 . S
C43 C44 1.395 . S
C44 H15 0.950 . S
C44 C43 1.395 . S
C44 C45 1.288 . S
C45 C44 1.288 . S
C45 C46 1.392 1_545 S
C46 H16 0.951 . S
C46 C45 1.392 1_565 S
C46 C47 1.392 . S
C47 H17 0.949 . S
C47 C42 1.382 1_565 S
C47 C46 1.392 . S
H48 C67 0.949 . S
H49 C68 0.950 . S
H50 C70 0.950 . S
H51 C71 0.950 . S
H52 C73 0.950 . S
H53 C76 0.950 . S
H54 C77 0.950 . S
H55 C79 0.951 . S
H56 C80 0.949 . S
H57 C82 0.949 . S
H58 C83 0.950 . S
H59 C85 0.950 . S
H60 C86 0.950 . S
H61 C88 0.950 . S
H62 C91 0.950 . S
H63 C92 0.950 . S
H64 C94 0.951 . S
H65 C95 0.949 . S
C66 C67 1.376 . S
C66 C71 1.386 1_455 S
C66 C72 1.483 . S
C67 H48 0.949 . S
C67 C66 1.376 . S
C67 C68 1.397 . S
C68 H49 0.950 . S
C68 C67 1.397 . S
C68 C69 1.391 . S
C69 C68 1.391 . S
C69 C70 1.405 1_455 S
C70 H50 0.950 . S
C70 C69 1.405 1_655 S
C70 C71 1.367 . S
C71 H51 0.950 . S
C71 C66 1.386 1_655 S
C71 C70 1.367 . S
C72 C66 1.483 . S
C72 C73 1.382 . S
C72 C74 1.403 1_455 S
C73 H52 0.950 . S
C73 C72 1.382 . S
C73 C89 1.411 . S
C74 C72 1.403 1_655 S
C74 C75 1.489 . S
C74 C88 1.411 . S
C75 C74 1.489 . S
C75 C76 1.383 1_655 S
C75 C80 1.382 . S
C76 H53 0.950 . S
C76 C75 1.383 1_455 S
C76 C77 1.395 . S
C77 H54 0.950 . S
C77 C76 1.395 . S
C77 C78 1.288 1_455 S
C78 C77 1.288 1_655 S
C78 C79 1.392 . S
C79 H55 0.951 . S
C79 C78 1.392 . S
C79 C80 1.392 . S
C80 H56 0.949 . S
C80 C75 1.382 . S
C80 C79 1.392 . S
C81 C82 1.376 . S
C81 C86 1.386 1_655 S
C81 C87 1.483 . S
C82 H57 0.949 . S
C82 C81 1.376 . S
C82 C83 1.397 . S
C83 H58 0.950 . S
C83 C82 1.397 . S
C83 C84 1.391 . S
C84 C83 1.391 . S
C84 C85 1.405 1_655 S
C85 H59 0.950 . S
C85 C84 1.405 1_455 S
C85 C86 1.367 . S
C86 H60 0.950 . S
C86 C81 1.386 1_455 S
C86 C85 1.367 . S
C87 C81 1.483 . S
C87 C88 1.382 . S
C87 C89 1.403 1_655 S
C88 H61 0.950 . S
C88 C74 1.411 . S
C88 C87 1.382 . S
C89 C73 1.411 . S
C89 C87 1.403 1_455 S
C89 C90 1.489 . S
C90 C89 1.489 . S
C90 C91 1.383 1_455 S
C90 C95 1.382 . S
C91 H62 0.950 . S
C91 C90 1.383 1_655 S
C91 C92 1.395 . S
C92 H63 0.950 . S
C92 C91 1.395 . S
C92 C93 1.288 1_655 S
C93 C92 1.288 1_455 S
C93 C94 1.392 . S
C94 H64 0.951 . S
C94 C93 1.392 . S
C94 C95 1.392 . S
C95 H65 0.949 . S
C95 C90 1.382 . S
C95 C94 1.392 . S
O96 Cd97 2.223 1_655 S
O96 C104 1.315 . S
Cd97 O96 2.223 1_455 S
Cd97 O100 2.297 1_455 S
Cd97 O101 2.439 1_455 S
Cd97 O107 2.240 1_565 S
Cd98 O99 2.240 . S
Cd98 O106 2.223 1_655 S
Cd98 O108 2.297 1_655 S
Cd98 O109 2.439 1_655 S
O99 Cd98 2.240 . S
O99 C104 1.279 1_545 S
O100 Cd97 2.297 1_655 S
O100 C102 1.247 . S
O101 Cd97 2.439 1_655 S
O101 C102 1.208 . S
C102 O100 1.247 . S
C102 O101 1.208 . S
C103 O108 1.247 . S
C103 O109 1.208 . S
C104 O96 1.315 . S
C104 O99 1.279 1_565 S
C105 O106 1.315 . S
C105 O107 1.279 . S
O106 Cd98 2.223 1_455 S
O106 C105 1.315 . S
O107 Cd97 2.240 1_545 S
O107 C105 1.279 . S
O108 Cd98 2.297 1_455 S
O108 C103 1.247 . S
O109 Cd98 2.439 1_455 S
O109 C103 1.208 . S
O110 Cd111 2.223 1_655 S
O110 C118 1.315 . S
Cd111 O110 2.223 1_455 S
Cd111 O114 2.297 1_455 S
Cd111 O115 2.439 1_455 S
Cd111 O121 2.240 . S
Cd112 O113 2.240 1_565 S
Cd112 O120 2.223 1_655 S
Cd112 O122 2.297 1_655 S
Cd112 O123 2.439 1_655 S
O113 Cd112 2.240 1_545 S
O113 C118 1.279 . S
O114 Cd111 2.297 1_655 S
O114 C116 1.247 . S
O115 Cd111 2.439 1_655 S
O115 C116 1.208 . S
C116 O114 1.247 . S
C116 O115 1.208 . S
C117 O122 1.247 . S
C117 O123 1.208 . S
C118 O110 1.315 . S
C118 O113 1.279 . S
C119 O120 1.315 . S
C119 O121 1.279 1_565 S
O120 Cd112 2.223 1_455 S
O120 C119 1.315 . S
O121 Cd111 2.240 . S
O121 C119 1.279 1_545 S
O122 Cd112 2.297 1_455 S
O122 C117 1.247 . S
O123 Cd112 2.439 1_455 S
O123 C117 1.208 . S
C124 C125 1.387 . S
C124 H128 0.950 . S
C124 C133 1.390 . S
C125 C124 1.387 . S
C125 C127 1.387 . S
H126 C133 0.950 . S
C127 C125 1.387 . S
C127 C129 1.390 . S
C127 H131 0.950 . S
H128 C124 0.950 . S
C129 C127 1.390 . S
C129 C130 1.387 . S
C129 H132 0.950 . S
C130 C129 1.387 . S
C130 C133 1.387 . S
H131 C127 0.950 . S
H132 C129 0.950 . S
C133 C124 1.390 . S
C133 H126 0.950 . S
C133 C130 1.387 . S
C134 C135 1.387 . S
C134 H138 0.950 . S
C134 C143 1.390 . S
C135 C134 1.387 . S
C135 C137 1.387 1_655 S
H136 C143 0.950 . S
C137 C135 1.387 1_455 S
C137 C139 1.390 . S
C137 H141 0.950 . S
H138 C134 0.950 . S
C139 C137 1.390 . S
C139 C140 1.387 1_455 S
C139 H142 0.950 . S
C140 C139 1.387 1_655 S
C140 C143 1.387 . S
H141 C137 0.950 . S
H142 C139 0.950 . S
C143 C134 1.390 . S
C143 H136 0.950 . S
C143 C140 1.387 . S
C144 C145 1.387 1_565 S
C144 H148 0.950 . S
C144 C153 1.390 . S
C145 C144 1.387 1_545 S
C145 C147 1.387 . S
H146 C153 0.950 . S
C147 C145 1.387 . S
C147 C149 1.390 . S
C147 H151 0.950 . S
H148 C144 0.950 . S
C149 C147 1.390 . S
C149 C150 1.387 1_545 S
C149 H152 0.950 . S
C150 C149 1.387 1_565 S
C150 C153 1.387 . S
H151 C147 0.950 . S
H152 C149 0.950 . S
C153 C144 1.390 . S
C153 H146 0.950 . S
C153 C150 1.387 . S
C154 C155 1.387 1_655 S
C154 H158 0.950 . S
C154 C163 1.390 . S
C155 C154 1.387 1_455 S
C155 C157 1.387 . S
H156 C163 0.950 . S
C157 C155 1.387 . S
C157 C159 1.390 . S
C157 H161 0.950 . S
H158 C154 0.950 . S
C159 C157 1.390 . S
C159 C160 1.387 . S
C159 H162 0.950 . S
C160 C159 1.387 . S
C160 C163 1.387 1_455 S
H161 C157 0.950 . S
H162 C159 0.950 . S
C163 C154 1.390 . S
C163 H156 0.950 . S
C163 C160 1.387 1_655 S
C164 C165 1.387 1_565 S
C164 H168 0.950 . S
C164 C173 1.390 . S
C165 C164 1.387 1_545 S
C165 C167 1.387 . S
H166 C173 0.950 . S
C167 C165 1.387 . S
C167 C169 1.390 . S
C167 H171 0.950 . S
H168 C164 0.950 . S
C169 C167 1.390 . S
C169 C170 1.387 1_545 S
C169 H172 0.950 . S
C170 C169 1.387 1_565 S
C170 C173 1.387 . S
H171 C167 0.950 . S
H172 C169 0.950 . S
C173 C164 1.390 . S
C173 H166 0.950 . S
C173 C170 1.387 . S
C174 C175 1.387 . S
C174 H178 0.950 . S
C174 C183 1.390 . S
C175 C174 1.387 . S
C175 C177 1.387 1_455 S
H176 C183 0.950 . S
C177 C175 1.387 1_655 S
C177 C179 1.390 1_655 S
C177 H181 0.950 . S
H178 C174 0.950 . S
C179 C177 1.390 1_455 S
C179 C180 1.387 . S
C179 H182 0.950 . S
C180 C179 1.387 . S
C180 C183 1.387 . S
H181 C177 0.950 . S
H182 C179 0.950 . S
C183 C174 1.390 . S
C183 H176 0.950 . S
C183 C180 1.387 . S
C184 C185 1.387 . S
C184 H188 0.950 . S
C184 C193 1.390 . S
C185 C184 1.387 . S
C185 C187 1.387 . S
H186 C193 0.950 . S
C187 C185 1.387 . S
C187 C189 1.390 . S
C187 H191 0.950 1_545 S
H188 C184 0.950 . S
C189 C187 1.390 . S
C189 C190 1.387 . S
C189 H192 0.950 . S
C190 C189 1.387 . S
C190 C193 1.387 . S
H191 C187 0.950 1_565 S
H192 C189 0.950 . S
C193 C184 1.390 . S
C193 H186 0.950 . S
C193 C190 1.387 . S
C194 C195 1.387 1_455 S
C194 H198 0.950 . S
C194 C203 1.390 . S
C195 C194 1.387 1_655 S
C195 C197 1.387 . S
H196 C203 0.950 . S
C197 C195 1.387 . S
C197 C199 1.390 . S
C197 H201 0.950 . S
H198 C194 0.950 . S
C199 C197 1.390 . S
C199 C200 1.387 . S
C199 H202 0.950 . S
C200 C199 1.387 . S
C200 C203 1.387 1_655 S
H201 C197 0.950 . S
H202 C199 0.950 . S
C203 C194 1.390 . S
C203 H196 0.950 . S
C203 C200 1.387 1_455 S
C130 C105 1.639 . S
C125 C45 1.638 . S
C140 C116 1.539 . S
C135 C78 1.606 . S
C150 C104 1.640 . S
C145 C21 1.631 . S
C160 C117 1.538 . S
C155 C84 1.628 1_455 S
C170 C119 1.640 . S
C165 C36 1.639 . S
C180 C103 1.540 . S
C175 C69 1.619 . S
C190 C118 1.639 . S
C185 C30 1.616 . S
C195 C93 1.632 1_655 S
C200 C102 1.536 . S
