# Generated by pormake.
# Topology pth, (4,4)-cn, num edge types: 1
# Building blocks:
#     Node 0, Type 0, BuildingBlock: AZAVOO_clean_sbu_0, # of connection points: 4
#     Node 1, Type 0, BuildingBlock: AZAVOO_clean_sbu_0, # of connection points: 4
#     Node 2, Type 0, BuildingBlock: AZAVOO_clean_sbu_0, # of connection points: 4
#     Node 3, Type 1, BuildingBlock: MIFKUJ_clean_linker_1, # of connection points: 4
#     Node 4, Type 1, BuildingBlock: MIFKUJ_clean_linker_1, # of connection points: 4
#     Node 5, Type 1, BuildingBlock: MIFKUJ_clean_linker_1, # of connection points: 4
#     Edge 6, Type (0, 1), None
#     Edge 7, Type (0, 1), None
#     Edge 8, Type (0, 1), None
#     Edge 9, Type (0, 1), None
#     Edge 10, Type (0, 1), None
#     Edge 11, Type (0, 1), None
#     Edge 12, Type (0, 1), None
#     Edge 13, Type (0, 1), None
#     Edge 14, Type (0, 1), None
#     Edge 15, Type (0, 1), None
#     Edge 16, Type (0, 1), None
#     Edge 17, Type (0, 1), None
# Relax obj value: 0.067
# Max RMSD: 0.218
# Mean RMSD: 0.113
data_MOF--net-pth--node1-AZAVOO_clean_sbu_0--node2-MIFKUJ_clean_linker_1--edge1-none
_symmetry_space_group_name_H-M    P1
_symmetry_Int_Tables_number       1
_symmetry_cell_setting            triclinic
loop_
_symmetry_equiv_pos_as_xyz
'x, y, z'
_cell_length_a     15.834597
_cell_length_b     16.436472
_cell_length_c     35.164346
_cell_angle_alpha  92.192501
_cell_angle_beta   93.796325
_cell_angle_gamma 122.89095
loop_
_atom_site_label
_atom_site_type_symbol
_atom_site_fract_x
_atom_site_fract_y
_atom_site_fract_z
_atom_type_partial_charge
Mg0 Mg 0.11082 0.07426 0.0325 0.0
O1 O 0.97955 0.96136 -0.01 0.0
O2 O 0.93398 0.03536 0.94977 0.0
Mg3 Mg 0.04372 0.20013 0.96533 0.0
C4 C 0.92361 0.95817 0.96149 0.0
C5 C 0.13689 0.93694 0.08574 0.0
O6 O 0.23247 -0.00536 0.08001 0.0
O7 O 0.01682 0.11335 0.06506 0.0
O8 O 0.9907 0.20095 0.02439 0.0
O9 O 0.22221 0.08899 -0.00856 0.0
O10 O 0.15724 0.17807 -0.00609 0.0
C11 C 0.98531 0.16823 0.05713 0.0
C12 C 0.21599 0.15862 0.97859 0.0
O13 O 0.07248 0.95175 0.07013 0.0
Mg14 Mg 0.94977 0.01982 0.34839 0.0
O15 O 0.09758 0.06562 0.38415 0.0
O16 O 0.15651 0.20688 0.41788 0.0
Mg17 Mg 0.04214 0.24982 0.40638 0.0
C18 C 0.16403 0.13584 0.40785 0.0
C19 C 0.89935 0.83007 0.29796 0.0
O20 O 0.80651 0.7967 0.30578 0.0
O21 O 0.02593 0.13634 0.30692 0.0
O22 O 0.06666 0.26988 0.34342 0.0
O23 O 0.85452 0.9457 0.39752 0.0
O24 O 0.92123 0.09847 0.38704 0.0
C25 C 0.05885 0.22672 0.31116 0.0
C26 C 0.8665 0.02853 0.40702 0.0
O27 O 0.97021 0.91493 0.31162 0.0
Mg28 Mg 0.97709 0.94555 0.6796 0.0
O29 O 0.08972 0.0732 0.7223 0.0
O30 O 0.00594 0.10734 0.76138 0.0
Mg31 Mg 0.83601 -0.00781 0.74614 0.0
C32 C 0.08868 0.12396 0.75031 0.0
C33 C 0.09416 0.96759 0.60778 0.0
O34 O 0.00207 0.9158 0.59018 0.0
O35 O 0.92959 0.03382 0.64598 0.0
O36 O 0.82675 0.03627 0.68607 0.0
O37 O 0.96986 0.83928 0.72098 0.0
O38 O 0.86922 0.89288 0.71781 0.0
C39 C 0.86192 0.05002 0.65362 0.0
C40 C 0.89465 0.8393 0.7334 0.0
O41 O 0.10669 0.98804 0.64373 0.0
H42 H 0.11289 0.36797 0.16866 0.0
H43 H 0.10026 0.24247 0.12491 0.0
H44 H 0.84627 0.21724 0.05884 0.0
H45 H 0.85342 0.33744 0.10466 0.0
H46 H 0.00994 0.52524 0.11641 0.0
H47 H 0.15708 0.51019 0.25666 0.0
H48 H 0.18961 0.41684 0.30082 0.0
H49 H 0.9235 0.15138 0.24777 0.0
H50 H 0.88883 0.24558 0.20446 0.0
H51 H 0.80957 0.53772 0.23321 0.0
H52 H 0.77181 0.63839 0.27205 0.0
H53 H 0.07758 0.88507 0.26855 0.0
H54 H 0.11442 0.78338 0.22938 0.0
H55 H 0.97976 0.51223 0.25566 0.0
H56 H 0.89205 0.6714 0.14467 0.0
H57 H 0.94903 0.81582 0.10944 0.0
H58 H 0.24845 0.86804 0.11421 0.0
H59 H 0.1906 0.72389 0.14895 0.0
C60 C 0.98313 0.3614 0.14045 0.0
C61 C 0.0512 0.33226 0.146 0.0
C62 C 0.04363 0.26002 0.12098 0.0
C63 C 0.97089 0.21885 0.08893 0.0
C64 C 0.90154 0.24641 0.08376 0.0
C65 C 0.90676 0.31608 0.1096 0.0
C66 C -0.0063 0.4429 0.16479 0.0
C67 C 0.00184 0.52134 0.14681 0.0
C68 C -0.00405 0.44524 0.20509 0.0
C69 C 0.01962 0.38484 0.22775 0.0
C70 C 0.10657 0.43164 0.25411 0.0
C71 C 0.12627 0.37835 0.27884 0.0
C72 C 0.05998 0.27706 0.27735 0.0
C73 C 0.9772 0.2293 0.24891 0.0
C74 C 0.95632 0.28302 0.22458 0.0
C75 C 0.96451 0.65331 0.22823 0.0
C76 C 0.86823 0.61374 0.24062 0.0
C77 C 0.84677 0.67137 0.26284 0.0
C78 C 0.92168 0.76971 0.27355 0.0
C79 C 0.01819 0.80945 0.2609 0.0
C80 C 0.03935 0.75173 0.23834 0.0
C81 C 0.98602 0.58867 0.20652 0.0
C82 C 0.98546 0.51447 0.22508 0.0
C83 C 0.00391 0.59695 0.16769 0.0
C84 C 0.03718 0.68735 0.14924 0.0
C85 C 0.96998 0.71469 0.13833 0.0
C86 C 0.00274 0.79693 0.11814 0.0
C87 C 0.10328 0.85305 0.10882 0.0
C88 C 0.17071 0.82651 0.12083 0.0
C89 C 0.13774 0.74417 0.14066 0.0
H90 H 0.75861 0.21146 0.46238 0.0
H91 H 0.87068 0.1929 0.42468 0.0
H92 H 0.73278 0.89607 0.45365 0.0
H93 H 0.62049 0.91653 0.49237 0.0
H94 H 0.54572 0.09647 0.44583 0.0
H95 H 0.80695 0.18477 0.54773 0.0
H96 H 0.92092 0.17789 0.59702 0.0
H97 H 0.66257 0.92933 0.63834 0.0
H98 H 0.55092 0.93262 0.58862 0.0
H99 H 0.24836 0.94287 0.50424 0.0
H100 H 0.09897 0.89834 0.53658 0.0
H101 H 0.29008 0.11154 0.63076 0.0
H102 H 0.43886 0.15871 0.59761 0.0
H103 H 0.50945 0.05709 0.58399 0.0
H104 H 0.34357 0.98809 0.42498 0.0
H105 H 0.21848 0.00772 0.38932 0.0
H106 H 0.29844 0.25121 0.46935 0.0
H107 H 0.42261 0.23069 0.50474 0.0
C108 C 0.68104 0.06538 0.47983 0.0
C109 C 0.75371 0.14302 0.46121 0.0
C110 C 0.81836 0.13211 0.43985 0.0
C111 C 0.81082 0.04261 0.43604 0.0
C112 C 0.7408 0.96587 0.45615 0.0
C113 C 0.67655 0.97743 0.47811 0.0
C114 C 0.60565 0.07472 0.49869 0.0
C115 C 0.53781 0.08788 0.47608 0.0
C116 C 0.59798 0.0676 0.53831 0.0
C117 C 0.66997 0.05925 0.56452 0.0
C118 C 0.77534 0.12738 0.56684 0.0
C119 C 0.84031 0.12427 0.59513 0.0
C120 C 0.79986 0.05475 0.62187 0.0
C121 C 0.69529 0.98525 0.61858 0.0
C122 C 0.63137 0.98684 0.59007 0.0
C123 C 0.35511 0.05494 0.54828 0.0
C124 C 0.25801 0.98225 0.53128 0.0
C125 C 0.1726 0.95608 0.54997 0.0
C126 C 0.18298 0.00059 0.58638 0.0
C127 C 0.27981 0.07508 0.60289 0.0
C128 C 0.36492 0.10231 0.58394 0.0
C129 C 0.44642 0.07323 0.531 0.0
C130 C 0.51791 0.06634 0.55381 0.0
C131 C 0.45905 0.08871 0.49193 0.0
C132 C 0.39159 0.10719 0.46775 0.0
C133 C 0.33514 0.04659 0.43442 0.0
C134 C 0.26336 0.05774 0.41418 0.0
C135 C 0.24764 0.13059 0.42662 0.0
C136 C 0.30815 0.19422 0.45894 0.0
C137 C 0.37908 0.18242 0.47931 0.0
H138 H 0.43792 0.2852 0.77801 0.0
H139 H 0.27804 0.16489 0.74061 0.0
H140 H 0.12139 0.25476 0.80949 0.0
H141 H 0.28181 0.37642 0.84592 0.0
H142 H 0.53478 0.47827 0.7854 0.0
H143 H 0.43961 0.24144 0.88524 0.0
H144 H 0.32525 0.12648 0.92898 0.0
H145 H 0.25031 0.33333 0.96375 0.0
H146 H 0.36543 0.44686 0.92154 0.0
H147 H 0.66644 0.761 0.86462 0.0
H148 H 0.78448 0.91771 0.90077 0.0
H149 H 0.89559 0.78137 0.97305 0.0
H150 H 0.77893 0.6253 0.93598 0.0
H151 H 0.57738 0.52069 0.92722 0.0
H152 H 0.59674 0.67927 0.78964 0.0
H153 H 0.70886 0.7936 0.74698 0.0
H154 H 0.93943 0.7407 0.78441 0.0
H155 H 0.8256 0.62672 0.82857 0.0
C156 C 0.37178 0.33812 0.81551 0.0
C157 C 0.36906 0.27866 0.78512 0.0
C158 C 0.27744 0.2102 0.76364 0.0
C159 C 0.18643 0.19988 0.77203 0.0
C160 C 0.18965 0.26021 0.8023 0.0
C161 C 0.28137 0.32899 0.82358 0.0
C162 C 0.46965 0.41529 0.83684 0.0
C163 C 0.54502 0.48621 0.81644 0.0
C164 C 0.48499 0.42561 0.8772 0.0
C165 C 0.41062 0.35232 0.90047 0.0
C166 C 0.39746 0.26088 0.90221 0.0
C167 C 0.33246 0.19556 0.92708 0.0
C168 C 0.27874 0.22073 0.94968 0.0
C169 C 0.28997 0.31117 0.94658 0.0
C170 C 0.3561 0.37662 0.92261 0.0
C171 C 0.71579 0.68167 0.8968 0.0
C172 C 0.71788 0.76523 0.88767 0.0
C173 C 0.78449 0.85475 0.90878 0.0
C174 C 0.84964 0.86251 0.93993 0.0
C175 C 0.84639 0.77831 0.94934 0.0
C176 C 0.78008 0.68892 0.92804 0.0
C177 C 0.64023 0.58568 0.87575 0.0
C178 C 0.56958 0.51072 0.89622 0.0
C179 C 0.63028 0.57078 0.83547 0.0
C180 C 0.70315 0.64508 0.81211 0.0
C181 C 0.67187 0.69326 0.78908 0.0
C182 C 0.73653 0.75892 0.76483 0.0
C183 C 0.83326 0.7762 0.76236 0.0
C184 C 0.86541 0.72874 0.78581 0.0
C185 C 0.80079 0.66404 0.81094 0.0
loop_
_geom_bond_atom_site_label_1
_geom_bond_atom_site_label_2
_geom_bond_distance
_geom_bond_site_symmetry_2
_ccdc_geom_bond_type
Mg0 O1 2.028 1_445 S
Mg0 O7 1.986 . S
Mg0 O9 2.114 . S
Mg0 O10 2.259 . S
Mg0 O13 2.010 1_545 S
O1 Mg0 2.028 1_665 S
O1 C4 1.250 1_554 S
O2 Mg3 2.028 1_655 S
O2 C4 1.248 1_545 S
Mg3 O2 2.028 1_455 S
Mg3 O8 2.032 1_456 S
Mg3 O10 2.077 1_556 S
C4 O1 1.250 1_556 S
C4 O2 1.248 1_565 S
C5 O6 1.264 . S
C5 O13 1.249 . S
O6 C5 1.264 . S
O7 Mg0 1.986 . S
O7 C11 1.246 1_455 S
O8 Mg3 2.032 1_654 S
O8 C11 1.259 . S
O9 Mg0 2.114 . S
O9 C12 1.252 1_554 S
O10 Mg0 2.259 . S
O10 Mg3 2.077 1_554 S
O10 C12 1.270 1_554 S
C11 O7 1.246 1_655 S
C11 O8 1.259 . S
C12 O9 1.252 1_556 S
C12 O10 1.270 1_556 S
O13 Mg0 2.010 1_565 S
O13 C5 1.249 . S
Mg14 O15 2.028 1_655 S
Mg14 O21 1.986 1_655 S
Mg14 O23 2.114 1_545 S
Mg14 O24 2.251 . S
Mg14 O27 2.010 1_545 S
O15 Mg14 2.028 1_455 S
O15 C18 1.250 . S
O16 Mg17 2.028 . S
O16 C18 1.248 . S
Mg17 O16 2.028 . S
Mg17 O22 2.032 . S
Mg17 O24 2.079 1_455 S
C18 O15 1.250 . S
C18 O16 1.248 . S
C19 O20 1.264 . S
C19 O27 1.249 . S
O20 C19 1.264 . S
O21 Mg14 1.986 1_455 S
O21 C25 1.246 . S
O22 Mg17 2.032 . S
O22 C25 1.259 . S
O23 Mg14 2.114 1_565 S
O23 C26 1.252 . S
O24 Mg14 2.251 . S
O24 Mg17 2.079 1_655 S
O24 C26 1.273 1_545 S
C25 O21 1.246 . S
C25 O22 1.259 . S
C26 O23 1.252 . S
C26 O24 1.273 1_565 S
O27 Mg14 2.010 1_565 S
O27 C19 1.249 . S
Mg28 O29 2.028 1_665 S
Mg28 O35 1.986 1_565 S
Mg28 O37 2.114 . S
Mg28 O38 2.251 . S
Mg28 O41 2.010 1_655 S
O29 Mg28 2.028 1_445 S
O29 C32 1.250 . S
O30 Mg31 2.028 1_455 S
O30 C32 1.248 . S
Mg31 O30 2.028 1_655 S
Mg31 O36 2.032 . S
Mg31 O38 2.079 1_545 S
C32 O29 1.250 . S
C32 O30 1.248 . S
C33 O34 1.264 . S
C33 O41 1.249 . S
O34 C33 1.264 . S
O35 Mg28 1.986 1_545 S
O35 C39 1.246 . S
O36 Mg31 2.032 . S
O36 C39 1.259 . S
O37 Mg28 2.114 . S
O37 C40 1.252 . S
O38 Mg28 2.251 . S
O38 Mg31 2.079 1_565 S
O38 C40 1.273 . S
C39 O35 1.246 . S
C39 O36 1.259 . S
C40 O37 1.252 . S
C40 O38 1.273 . S
O41 Mg28 2.010 1_455 S
O41 C33 1.249 . S
H42 C61 0.949 . S
H43 C62 0.950 . S
H44 C64 0.950 . S
H45 C65 0.950 . S
H46 C67 0.950 . S
H47 C70 0.950 . S
H48 C71 0.950 . S
H49 C73 0.951 . S
H50 C74 0.949 . S
H51 C76 0.949 . S
H52 C77 0.950 . S
H53 C79 0.950 . S
H54 C80 0.950 . S
H55 C82 0.950 1_655 S
H56 C85 0.950 . S
H57 C86 0.950 . S
H58 C88 0.951 . S
H59 C89 0.949 . S
C60 C61 1.376 . S
C60 C65 1.386 1_455 S
C60 C66 1.483 . S
C61 H42 0.949 . S
C61 C60 1.376 . S
C61 C62 1.397 . S
C62 H43 0.950 . S
C62 C61 1.397 . S
C62 C63 1.391 . S
C63 C62 1.391 . S
C63 C64 1.405 1_455 S
C64 H44 0.950 . S
C64 C63 1.405 1_655 S
C64 C65 1.367 . S
C65 H45 0.950 . S
C65 C60 1.386 1_655 S
C65 C64 1.367 . S
C66 C60 1.483 . S
C66 C67 1.382 . S
C66 C68 1.403 . S
C67 H46 0.950 . S
C67 C66 1.382 . S
C67 C83 1.411 . S
C68 C66 1.403 . S
C68 C69 1.489 . S
C68 C82 1.411 . S
C69 C68 1.489 . S
C69 C70 1.383 . S
C69 C74 1.382 1_455 S
C70 H47 0.950 . S
C70 C69 1.383 . S
C70 C71 1.395 . S
C71 H48 0.950 . S
C71 C70 1.395 . S
C71 C72 1.288 . S
C72 C71 1.288 . S
C72 C73 1.392 1_455 S
C73 H49 0.951 . S
C73 C72 1.392 1_655 S
C73 C74 1.392 . S
C74 H50 0.949 . S
C74 C69 1.382 1_655 S
C74 C73 1.392 . S
C75 C76 1.376 1_455 S
C75 C80 1.386 . S
C75 C81 1.483 . S
C76 H51 0.949 . S
C76 C75 1.376 1_655 S
C76 C77 1.397 . S
C77 H52 0.950 . S
C77 C76 1.397 . S
C77 C78 1.391 1_655 S
C78 C77 1.391 1_455 S
C78 C79 1.405 . S
C79 H53 0.950 . S
C79 C78 1.405 . S
C79 C80 1.367 . S
C80 H54 0.950 . S
C80 C75 1.386 . S
C80 C79 1.367 . S
C81 C75 1.483 . S
C81 C82 1.382 . S
C81 C83 1.403 . S
C82 H55 0.950 1_455 S
C82 C68 1.411 . S
C82 C81 1.382 . S
C83 C67 1.411 . S
C83 C81 1.403 . S
C83 C84 1.489 . S
C84 C83 1.489 . S
C84 C85 1.383 1_455 S
C84 C89 1.382 . S
C85 H56 0.950 . S
C85 C84 1.383 1_655 S
C85 C86 1.395 . S
C86 H57 0.950 . S
C86 C85 1.395 . S
C86 C87 1.288 1_655 S
C87 C86 1.288 1_455 S
C87 C88 1.392 . S
C88 H58 0.951 . S
C88 C87 1.392 . S
C88 C89 1.392 . S
C89 H59 0.949 . S
C89 C84 1.382 . S
C89 C88 1.392 . S
H90 C109 0.949 . S
H91 C110 0.950 . S
H92 C112 0.950 . S
H93 C113 0.950 . S
H94 C115 0.950 . S
H95 C118 0.950 . S
H96 C119 0.950 . S
H97 C121 0.951 . S
H98 C122 0.949 . S
H99 C124 0.949 . S
H100 C125 0.950 . S
H101 C127 0.950 . S
H102 C128 0.950 . S
H103 C130 0.950 . S
H104 C133 0.942 1_565 S
H105 C134 0.950 1_565 S
H106 C136 0.951 . S
H107 C137 0.949 . S
C108 C109 1.376 . S
C108 C113 1.386 1_545 S
C108 C114 1.483 . S
C109 H90 0.949 . S
C109 C108 1.376 . S
C109 C110 1.397 . S
C110 H91 0.950 . S
C110 C109 1.397 . S
C110 C111 1.391 . S
C111 C110 1.391 . S
C111 C112 1.405 1_545 S
C112 H92 0.950 . S
C112 C111 1.405 1_565 S
C112 C113 1.367 . S
C113 H93 0.950 . S
C113 C108 1.386 1_565 S
C113 C112 1.367 . S
C114 C108 1.483 . S
C114 C115 1.382 . S
C114 C116 1.403 . S
C115 H94 0.950 . S
C115 C114 1.382 . S
C115 C131 1.411 . S
C116 C114 1.403 . S
C116 C117 1.489 . S
C116 C130 1.411 . S
C117 C116 1.489 . S
C117 C118 1.383 . S
C117 C122 1.382 1_545 S
C118 H95 0.950 . S
C118 C117 1.383 . S
C118 C119 1.395 . S
C119 H96 0.950 . S
C119 C118 1.395 . S
C119 C120 1.288 . S
C120 C119 1.288 . S
C120 C121 1.392 1_545 S
C121 H97 0.951 . S
C121 C120 1.392 1_565 S
C121 C122 1.392 . S
C122 H98 0.949 . S
C122 C117 1.382 1_565 S
C122 C121 1.392 . S
C123 C124 1.376 1_545 S
C123 C128 1.386 . S
C123 C129 1.483 . S
C124 H99 0.949 . S
C124 C123 1.376 1_565 S
C124 C125 1.397 . S
C125 H100 0.950 . S
C125 C124 1.397 . S
C125 C126 1.391 1_565 S
C126 C125 1.391 1_545 S
C126 C127 1.405 . S
C127 H101 0.950 . S
C127 C126 1.405 . S
C127 C128 1.367 . S
C128 H102 0.950 . S
C128 C123 1.386 . S
C128 C127 1.367 . S
C129 C123 1.483 . S
C129 C130 1.382 . S
C129 C131 1.403 . S
C130 H103 0.950 . S
C130 C116 1.411 . S
C130 C129 1.382 . S
C131 C115 1.411 . S
C131 C129 1.403 . S
C131 C132 1.489 . S
C132 C131 1.489 . S
C132 C133 1.385 . S
C132 C137 1.382 . S
C133 H104 0.942 1_545 S
C133 C132 1.385 . S
C133 C134 1.401 . S
C134 H105 0.950 1_545 S
C134 C133 1.401 . S
C134 C135 1.288 . S
C135 C134 1.288 . S
C135 C136 1.392 . S
C136 H106 0.951 . S
C136 C135 1.392 . S
C136 C137 1.392 . S
C137 H107 0.949 . S
C137 C132 1.382 . S
C137 C136 1.392 . S
H138 C157 0.949 . S
H139 C158 0.950 . S
H140 C160 0.950 . S
H141 C161 0.950 . S
H142 C163 0.950 . S
H143 C166 0.950 . S
H144 C167 0.950 . S
H145 C169 0.951 . S
H146 C170 0.949 . S
H147 C172 0.949 . S
H148 C173 0.950 . S
H149 C175 0.950 . S
H150 C176 0.950 . S
H151 C178 0.950 . S
H152 C181 0.950 . S
H153 C182 0.950 . S
H154 C184 0.951 . S
H155 C185 0.949 . S
C156 C157 1.376 . S
C156 C161 1.386 . S
C156 C162 1.483 . S
C157 H138 0.949 . S
C157 C156 1.376 . S
C157 C158 1.397 . S
C158 H139 0.950 . S
C158 C157 1.397 . S
C158 C159 1.391 . S
C159 C158 1.391 . S
C159 C160 1.405 . S
C160 H140 0.950 . S
C160 C159 1.405 . S
C160 C161 1.367 . S
C161 H141 0.950 . S
C161 C156 1.386 . S
C161 C160 1.367 . S
C162 C156 1.483 . S
C162 C163 1.382 . S
C162 C164 1.403 . S
C163 H142 0.950 . S
C163 C162 1.382 . S
C163 C179 1.411 . S
C164 C162 1.403 . S
C164 C165 1.489 . S
C164 C178 1.411 . S
C165 C164 1.489 . S
C165 C166 1.383 . S
C165 C170 1.382 . S
C166 H143 0.950 . S
C166 C165 1.383 . S
C166 C167 1.395 . S
C167 H144 0.950 . S
C167 C166 1.395 . S
C167 C168 1.288 . S
C168 C167 1.288 . S
C168 C169 1.392 . S
C169 H145 0.951 . S
C169 C168 1.392 . S
C169 C170 1.392 . S
C170 H146 0.949 . S
C170 C165 1.382 . S
C170 C169 1.392 . S
C171 C172 1.376 . S
C171 C176 1.386 . S
C171 C177 1.483 . S
C172 H147 0.949 . S
C172 C171 1.376 . S
C172 C173 1.397 . S
C173 H148 0.950 . S
C173 C172 1.397 . S
C173 C174 1.391 . S
C174 C173 1.391 . S
C174 C175 1.405 . S
C175 H149 0.950 . S
C175 C174 1.405 . S
C175 C176 1.367 . S
C176 H150 0.950 . S
C176 C171 1.386 . S
C176 C175 1.367 . S
C177 C171 1.483 . S
C177 C178 1.382 . S
C177 C179 1.403 . S
C178 H151 0.950 . S
C178 C164 1.411 . S
C178 C177 1.382 . S
C179 C163 1.411 . S
C179 C177 1.403 . S
C179 C180 1.489 . S
C180 C179 1.489 . S
C180 C181 1.383 . S
C180 C185 1.382 . S
C181 H152 0.950 . S
C181 C180 1.383 . S
C181 C182 1.395 . S
C182 H153 0.950 . S
C182 C181 1.395 . S
C182 C183 1.288 . S
C183 C182 1.288 . S
C183 C184 1.392 . S
C184 H154 0.951 . S
C184 C183 1.392 . S
C184 C185 1.392 . S
C185 H155 0.949 . S
C185 C180 1.382 . S
C185 C184 1.392 . S
C63 C11 1.572 1_455 S
C26 C111 1.821 1_565 S
C40 C183 1.488 . S
C5 C87 1.517 . S
C135 C18 1.664 . S
C32 C159 1.533 . S
C120 C39 1.362 . S
C4 C174 1.537 . S
C78 C19 1.640 1_455 S
C126 C33 1.603 1_545 S
C168 C12 1.616 . S
C25 C72 1.618 . S
