# Generated by pormake.
# Topology anh, (6,3)-cn, num edge types: 1
# Building blocks:
#     Node 0, Type 0, BuildingBlock: MIFKUJ_clean_sbu_0, # of connection points: 6
#     Node 1, Type 0, BuildingBlock: MIFKUJ_clean_sbu_0, # of connection points: 6
#     Node 2, Type 0, BuildingBlock: MIFKUJ_clean_sbu_0, # of connection points: 6
#     Node 3, Type 1, BuildingBlock: BETDAH_clean_linker_0, # of connection points: 3
#     Node 4, Type 1, BuildingBlock: BETDAH_clean_linker_0, # of connection points: 3
#     Node 5, Type 1, BuildingBlock: BETDAH_clean_linker_0, # of connection points: 3
#     Node 6, Type 1, BuildingBlock: BETDAH_clean_linker_0, # of connection points: 3
#     Node 7, Type 1, BuildingBlock: BETDAH_clean_linker_0, # of connection points: 3
#     Node 8, Type 1, BuildingBlock: BETDAH_clean_linker_0, # of connection points: 3
#     Edge 9, Type (0, 1), None
#     Edge 10, Type (0, 1), None
#     Edge 11, Type (0, 1), None
#     Edge 12, Type (0, 1), None
#     Edge 13, Type (0, 1), None
#     Edge 14, Type (0, 1), None
#     Edge 15, Type (0, 1), None
#     Edge 16, Type (0, 1), None
#     Edge 17, Type (0, 1), None
#     Edge 18, Type (0, 1), None
#     Edge 19, Type (0, 1), None
#     Edge 20, Type (0, 1), None
#     Edge 21, Type (0, 1), None
#     Edge 22, Type (0, 1), None
#     Edge 23, Type (0, 1), None
#     Edge 24, Type (0, 1), None
#     Edge 25, Type (0, 1), None
#     Edge 26, Type (0, 1), None
# Relax obj value: 0.066
# Max RMSD: 0.142
# Mean RMSD: 0.112
data_MOF--net-anh--node1-MIFKUJ_clean_sbu_0--node2-BETDAH_clean_linker_0--edge1-none
_symmetry_space_group_name_H-M    P1
_symmetry_Int_Tables_number       1
_symmetry_cell_setting            triclinic
loop_
_symmetry_equiv_pos_as_xyz
'x, y, z'
_cell_length_a     16.090918
_cell_length_b     15.937195
_cell_length_c     18.950149
_cell_angle_alpha  98.065618
_cell_angle_beta   92.444016
_cell_angle_gamma 119.91008
loop_
_atom_site_label
_atom_site_type_symbol
_atom_site_fract_x
_atom_site_fract_y
_atom_site_fract_z
_atom_type_partial_charge
Zn0 Zn 0.10962 0.62295 0.15217 0.0
Zn1 Zn 0.8429 0.45056 0.1404 0.0
C2 C 0.26509 0.58424 0.17153 0.0
O3 O 0.29132 0.65626 0.22638 0.0
C4 C 0.68008 0.48383 0.15097 0.0
O5 O 0.66064 0.42767 0.19957 0.0
O6 O 0.20179 0.76176 0.18209 0.0
O7 O 0.02862 0.61289 0.06659 0.0
O8 O 0.92327 0.45581 0.05833 0.0
C9 C 0.25934 0.81019 0.14057 0.0
O10 O 0.24868 0.76847 0.07328 0.0
O11 O 0.18718 0.55361 0.13003 0.0
C12 C 0.72657 0.25542 0.16879 0.0
O13 O 0.74874 0.29703 0.23691 0.0
O14 O 0.75453 0.30682 0.12048 0.0
O15 O 0.89818 0.48759 0.24707 0.0
O16 O 0.05158 0.58786 0.24003 0.0
O17 O 0.75617 0.50686 0.12069 0.0
C18 C -0.01833 0.52698 0.03003 0.0
C19 C -0.01565 0.54554 0.27723 0.0
Zn20 Zn 0.54224 0.14702 0.48513 0.0
Zn21 Zn 0.44436 0.87879 0.47055 0.0
C22 C 0.7428 0.29699 0.50735 0.0
O23 O 0.71312 0.32539 0.56433 0.0
C24 C 0.25084 0.71211 0.47882 0.0
O25 O 0.29895 0.69471 0.52673 0.0
O26 O 0.51143 0.24841 0.51203 0.0
O27 O 0.44605 0.05991 0.40051 0.0
O28 O 0.49869 0.95635 0.39021 0.0
C29 C 0.52881 0.31208 0.4733 0.0
O30 O 0.55759 0.30233 0.41037 0.0
O31 O 0.68312 0.21818 0.46348 0.0
C32 C 0.53765 0.77219 0.5015 0.0
O33 O 0.53234 0.79785 0.56921 0.0
O34 O 0.5001 0.79337 0.45236 0.0
O35 O 0.48267 0.94268 0.57712 0.0
O36 O 0.53457 0.09895 0.57545 0.0
O37 O 0.29694 0.78697 0.44901 0.0
C38 C 0.47441 0.01017 0.36262 0.0
C39 C 0.51517 0.03042 0.60981 0.0
Zn40 Zn 0.61869 0.47898 0.81635 0.0
Zn41 Zn 0.44665 0.56144 0.81001 0.0
C42 C 0.58159 0.27825 0.8286 0.0
O43 O 0.62378 0.31926 0.89504 0.0
C44 C 0.50383 0.76356 0.798 0.0
O45 O 0.42895 0.72007 0.74789 0.0
O46 O 0.75324 0.5314 0.84658 0.0
O47 O 0.62128 0.54567 0.73365 0.0
O48 O 0.46673 0.49519 0.71842 0.0
C49 C 0.79894 0.50317 0.80689 0.0
O50 O 0.75865 0.45293 0.7416 0.0
O51 O 0.56681 0.32941 0.78859 0.0
C52 C 0.25918 0.52199 0.83201 0.0
O53 O 0.29779 0.56073 0.89923 0.0
O54 O 0.31054 0.5203 0.78405 0.0
O55 O 0.45038 0.52482 0.90756 0.0
O56 O 0.57888 0.50997 0.90771 0.0
O57 O 0.52817 0.71173 0.82878 0.0
C58 C 0.54695 0.52742 0.69408 0.0
C59 C 0.51874 0.52267 0.94118 0.0
H60 H 0.30639 0.8966 0.28057 0.0
H61 H 0.60787 0.08774 0.27291 0.0
H62 H 0.41847 0.91601 0.0767 0.0
C63 C 0.3654 0.92942 0.24887 0.0
C64 C 0.35069 0.89792 0.17398 0.0
C65 C 0.45803 -0.00457 0.28446 0.0
C66 C 0.53564 0.03682 0.24502 0.0
C67 C 0.52019 0.01005 0.1696 0.0
C68 C 0.4284 0.93942 0.1345 0.0
N69 N 0.59633 0.05326 0.12819 0.0
C70 C 0.66473 0.15202 0.14788 0.0
H71 H 0.50191 0.35951 0.6095 0.0
H72 H 0.59919 0.66244 0.60808 0.0
H73 H 0.58132 0.47456 0.41425 0.0
C74 C 0.52543 0.4193 0.57981 0.0
C75 C 0.53865 0.40541 0.50711 0.0
C76 C 0.5485 0.51189 0.61633 0.0
C77 C 0.58079 0.59032 0.57948 0.0
C78 C 0.59025 0.57575 0.50586 0.0
C79 C 0.57131 0.48415 0.47042 0.0
N80 N 0.61499 0.65144 0.46603 0.0
C81 C 0.58168 0.71568 0.48211 0.0
H82 H 0.8632 0.5539 0.94874 0.0
H83 H 0.07735 0.46976 0.93892 0.0
H84 H 0.91649 0.448 0.74327 0.0
C85 C 0.90325 0.52831 0.91665 0.0
C86 C 0.88185 0.50336 0.84141 0.0
C87 C 0.97133 0.51365 0.95175 0.0
C88 C 0.02361 0.48032 0.91164 0.0
C89 C 0.00475 0.45885 0.83605 0.0
C90 C 0.9323 0.46774 0.8014 0.0
N91 N 0.05942 0.43047 0.79364 0.0
C92 C 0.15789 0.47561 0.81262 0.0
H93 H 0.14804 0.69246 0.35583 0.0
H94 H 0.88524 0.42611 0.37225 0.0
H95 H 0.12244 0.56263 0.54345 0.0
C96 C 0.10494 0.63661 0.38654 0.0
C97 C 0.14663 0.63854 0.45357 0.0
C98 C 0.0123 0.55848 0.35539 0.0
C99 C 0.95612 0.48693 0.39589 0.0
C100 C -0.00456 0.48923 0.46452 0.0
C101 C 0.09116 0.56377 0.49205 0.0
N102 N 0.94441 0.4134 0.50457 0.0
C103 C 0.84396 0.35365 0.4985 0.0
H104 H 0.53014 0.19109 0.68983 0.0
H105 H 0.53762 0.92899 0.7057 0.0
H106 H 0.59717 0.14215 0.89697 0.0
C107 C 0.53987 0.14542 0.72268 0.0
C108 C 0.56398 0.17829 0.79722 0.0
C109 C 0.53136 0.05639 0.68929 0.0
C110 C 0.54324 -0.00303 0.73165 0.0
C111 C 0.56609 0.02695 0.80685 0.0
C112 C 0.57768 0.11832 0.83925 0.0
N113 N 0.57918 0.96715 0.85029 0.0
C114 C 0.54758 0.86785 0.82538 0.0
H115 H 0.66254 0.52956 0.02312 0.0
H116 H 0.39186 0.52195 0.03475 0.0
H117 H 0.52842 0.47992 0.21576 0.0
C118 C 0.60474 0.52366 0.05335 0.0
C119 C 0.60592 0.5052 0.12319 0.0
C120 C 0.52579 0.52498 0.01966 0.0
C121 C 0.45252 0.52012 0.05992 0.0
C122 C 0.45458 0.50615 0.13156 0.0
C123 C 0.52976 0.49574 0.16191 0.0
N124 N 0.37848 0.49418 0.17254 0.0
C125 C 0.3208 0.53566 0.16427 0.0
loop_
_geom_bond_atom_site_label_1
_geom_bond_atom_site_label_2
_geom_bond_distance
_geom_bond_site_symmetry_2
_ccdc_geom_bond_type
Zn0 O6 1.969 . S
Zn0 O7 1.965 . S
Zn0 O11 2.024 . S
Zn0 O16 1.969 . S
Zn1 O8 1.969 . S
Zn1 O14 1.969 . S
Zn1 O15 1.965 . S
Zn1 O17 2.024 . S
C2 O3 1.229 . S
C2 O11 1.058 . S
O3 C2 1.229 . S
C4 O5 1.229 . S
C4 O17 1.058 . S
O5 C4 1.229 . S
O6 Zn0 1.969 . S
O6 C9 1.267 . S
O7 Zn0 1.965 . S
O7 C18 1.260 1_455 S
O8 Zn1 1.969 . S
O8 C18 1.258 . S
C9 O6 1.267 . S
C9 O10 1.228 . S
O10 C9 1.228 . S
O11 Zn0 2.024 . S
O11 C2 1.058 . S
C12 O13 1.228 . S
C12 O14 1.267 . S
O13 C12 1.228 . S
O14 Zn1 1.969 . S
O14 C12 1.267 . S
O15 Zn1 1.965 . S
O15 C19 1.260 1_655 S
O16 Zn0 1.969 . S
O16 C19 1.258 . S
O17 Zn1 2.024 . S
O17 C4 1.058 . S
C18 O7 1.260 1_655 S
C18 O8 1.258 . S
C19 O15 1.260 1_455 S
C19 O16 1.258 . S
Zn20 O26 1.969 . S
Zn20 O27 1.965 . S
Zn20 O31 2.024 . S
Zn20 O36 1.969 . S
Zn21 O28 1.969 . S
Zn21 O34 1.969 . S
Zn21 O35 1.965 . S
Zn21 O37 2.024 . S
C22 O23 1.229 . S
C22 O31 1.058 . S
O23 C22 1.229 . S
C24 O25 1.229 . S
C24 O37 1.058 . S
O25 C24 1.229 . S
O26 Zn20 1.969 . S
O26 C29 1.267 . S
O27 Zn20 1.965 . S
O27 C38 1.260 . S
O28 Zn21 1.969 . S
O28 C38 1.258 1_565 S
C29 O26 1.267 . S
C29 O30 1.228 . S
O30 C29 1.228 . S
O31 Zn20 2.024 . S
O31 C22 1.058 . S
C32 O33 1.228 . S
C32 O34 1.267 . S
O33 C32 1.228 . S
O34 Zn21 1.969 . S
O34 C32 1.267 . S
O35 Zn21 1.965 . S
O35 C39 1.260 1_565 S
O36 Zn20 1.969 . S
O36 C39 1.258 . S
O37 Zn21 2.024 . S
O37 C24 1.058 . S
C38 O27 1.260 . S
C38 O28 1.258 1_545 S
C39 O35 1.260 1_545 S
C39 O36 1.258 . S
Zn40 O46 1.969 . S
Zn40 O47 1.965 . S
Zn40 O51 2.024 . S
Zn40 O56 1.969 . S
Zn41 O48 1.969 . S
Zn41 O54 1.969 . S
Zn41 O55 1.965 . S
Zn41 O57 2.024 . S
C42 O43 1.229 . S
C42 O51 1.058 . S
O43 C42 1.229 . S
C44 O45 1.229 . S
C44 O57 1.058 . S
O45 C44 1.229 . S
O46 Zn40 1.969 . S
O46 C49 1.267 . S
O47 Zn40 1.965 . S
O47 C58 1.260 . S
O48 Zn41 1.969 . S
O48 C58 1.258 . S
C49 O46 1.267 . S
C49 O50 1.228 . S
O50 C49 1.228 . S
O51 Zn40 2.024 . S
O51 C42 1.058 . S
C52 O53 1.228 . S
C52 O54 1.267 . S
O53 C52 1.228 . S
O54 Zn41 1.969 . S
O54 C52 1.267 . S
O55 Zn41 1.965 . S
O55 C59 1.260 . S
O56 Zn40 1.969 . S
O56 C59 1.258 . S
O57 Zn41 2.024 . S
O57 C44 1.058 . S
C58 O47 1.260 . S
C58 O48 1.258 . S
C59 O55 1.260 . S
C59 O56 1.258 . S
H60 C63 0.929 . S
H61 C66 0.929 . S
H62 C68 0.930 . S
C63 H60 0.929 . S
C63 C64 1.398 . S
C63 C65 1.396 1_565 S
C64 C63 1.398 . S
C64 C68 1.407 . S
C65 C63 1.396 1_545 S
C65 C66 1.394 . S
C66 H61 0.929 . S
C66 C65 1.394 . S
C66 C67 1.382 . S
C67 C66 1.382 . S
C67 C68 1.392 1_545 S
C67 N69 1.420 . S
C68 H62 0.930 . S
C68 C64 1.407 . S
C68 C67 1.392 1_565 S
N69 C67 1.420 . S
N69 C70 1.244 . S
C70 N69 1.244 . S
H71 C74 0.929 . S
H72 C77 0.929 . S
H73 C79 0.930 . S
C74 H71 0.929 . S
C74 C75 1.398 . S
C74 C76 1.396 . S
C75 C74 1.398 . S
C75 C79 1.407 . S
C76 C74 1.396 . S
C76 C77 1.394 . S
C77 H72 0.929 . S
C77 C76 1.394 . S
C77 C78 1.382 . S
C78 C77 1.382 . S
C78 C79 1.392 . S
C78 N80 1.420 . S
C79 H73 0.930 . S
C79 C75 1.407 . S
C79 C78 1.392 . S
N80 C78 1.420 . S
N80 C81 1.244 . S
C81 N80 1.244 . S
H82 C85 0.929 . S
H83 C88 0.929 . S
H84 C90 0.930 . S
C85 H82 0.929 . S
C85 C86 1.398 . S
C85 C87 1.396 1_655 S
C86 C85 1.398 . S
C86 C90 1.407 . S
C87 C85 1.396 1_455 S
C87 C88 1.394 . S
C88 H83 0.929 . S
C88 C87 1.394 . S
C88 C89 1.382 . S
C89 C88 1.382 . S
C89 C90 1.392 1_455 S
C89 N91 1.420 . S
C90 H84 0.930 . S
C90 C86 1.407 . S
C90 C89 1.392 1_655 S
N91 C89 1.420 . S
N91 C92 1.244 . S
C92 N91 1.244 . S
H93 C96 0.929 . S
H94 C99 0.929 . S
H95 C101 0.930 . S
C96 H93 0.929 . S
C96 C97 1.398 . S
C96 C98 1.396 . S
C97 C96 1.398 . S
C97 C101 1.407 . S
C98 C96 1.396 . S
C98 C99 1.394 1_455 S
C99 H94 0.929 . S
C99 C98 1.394 1_655 S
C99 C100 1.382 1_655 S
C100 C99 1.382 1_455 S
C100 C101 1.392 . S
C100 N102 1.420 1_455 S
C101 H95 0.930 . S
C101 C97 1.407 . S
C101 C100 1.392 . S
N102 C100 1.420 1_655 S
N102 C103 1.244 . S
C103 N102 1.244 . S
H104 C107 0.929 . S
H105 C110 0.929 1_565 S
H106 C112 0.930 . S
C107 H104 0.929 . S
C107 C108 1.398 . S
C107 C109 1.396 . S
C108 C107 1.398 . S
C108 C112 1.407 . S
C109 C107 1.396 . S
C109 C110 1.394 . S
C110 H105 0.929 1_545 S
C110 C109 1.394 . S
C110 C111 1.382 . S
C111 C110 1.382 . S
C111 C112 1.392 . S
C111 N113 1.420 1_545 S
C112 H106 0.930 . S
C112 C108 1.407 . S
C112 C111 1.392 . S
N113 C111 1.420 1_565 S
N113 C114 1.244 . S
C114 N113 1.244 . S
H115 C118 0.929 . S
H116 C121 0.929 . S
H117 C123 0.930 . S
C118 H115 0.929 . S
C118 C119 1.398 . S
C118 C120 1.396 . S
C119 C118 1.398 . S
C119 C123 1.407 . S
C120 C118 1.396 . S
C120 C121 1.394 . S
C121 H116 0.929 . S
C121 C120 1.394 . S
C121 C122 1.382 . S
C122 C121 1.382 . S
C122 C123 1.392 . S
C122 N124 1.420 . S
C123 H117 0.930 . S
C123 C119 1.407 . S
C123 C122 1.392 . S
N124 C122 1.420 . S
N124 C125 1.244 . S
C125 N124 1.244 . S
C2 C125 1.614 . S
C22 C103 1.645 . S
C44 C114 1.570 . S
C4 C119 1.458 . S
C97 C24 1.467 . S
C108 C42 1.480 . S
C32 C81 1.382 . S
C49 C86 1.219 . S
C9 C64 1.139 . S
C75 C29 1.265 . S
C92 C52 1.140 . S
C12 C70 1.168 . S
C87 C18 1.448 1_456 S
C38 C65 1.408 . S
C58 C76 1.440 . S
C109 C39 1.541 . S
C120 C59 1.543 1_554 S
C19 C98 1.518 . S
