# Generated by pormake.
# Topology pts, (4,4)-cn, num edge types: 1
# Building blocks:
#     Node 0, Type 0, BuildingBlock: AZAVOO_clean_linker_0, # of connection points: 4
#     Node 1, Type 0, BuildingBlock: AZAVOO_clean_linker_0, # of connection points: 4
#     Node 2, Type 1, BuildingBlock: QUQFOY_clean_sbu_1, # of connection points: 4
#     Node 3, Type 1, BuildingBlock: QUQFOY_clean_sbu_1, # of connection points: 4
#     Edge 4, Type (0, 1), BuildingBlock: OJICUG_clean_linker_0, # of connection points: 2
#     Edge 5, Type (0, 1), BuildingBlock: OJICUG_clean_linker_0, # of connection points: 2
#     Edge 6, Type (0, 1), BuildingBlock: OJICUG_clean_linker_0, # of connection points: 2
#     Edge 7, Type (0, 1), BuildingBlock: OJICUG_clean_linker_0, # of connection points: 2
#     Edge 8, Type (0, 1), BuildingBlock: OJICUG_clean_linker_0, # of connection points: 2
#     Edge 9, Type (0, 1), BuildingBlock: OJICUG_clean_linker_0, # of connection points: 2
#     Edge 10, Type (0, 1), BuildingBlock: OJICUG_clean_linker_0, # of connection points: 2
#     Edge 11, Type (0, 1), BuildingBlock: OJICUG_clean_linker_0, # of connection points: 2
# Relax obj value: 0.212
# Max RMSD: 0.244
# Mean RMSD: 0.235
data_MOF--net-pts--node1-QUQFOY_clean_sbu_1--node2-AZAVOO_clean_linker_0--edge1-OJICUG_clean_linker_0
_symmetry_space_group_name_H-M    P1
_symmetry_Int_Tables_number       1
_symmetry_cell_setting            triclinic
loop_
_symmetry_equiv_pos_as_xyz
'x, y, z'
_cell_length_a     19.531521
_cell_length_b     21.891957
_cell_length_c     38.215786
_cell_angle_alpha  90.876577
_cell_angle_beta   93.63018
_cell_angle_gamma 89.38792
loop_
_atom_site_label
_atom_site_type_symbol
_atom_site_fract_x
_atom_site_fract_y
_atom_site_fract_z
_atom_type_partial_charge
H0 H 0.32757 0.11208 0.75852 0.0
H1 H -0.01236 0.0522 0.01863 0.0
H2 H 0.38581 0.19388 0.95025 0.0
H3 H 0.28793 0.19123 0.90801 0.0
H4 H 0.27496 0.99563 0.92063 0.0
H5 H 0.37632 0.99881 0.96134 0.0
H6 H 0.46489 0.1816 0.89349 0.0
H7 H 0.40832 0.17099 0.83474 0.0
H8 H 0.42426 0.97441 0.84244 0.0
H9 H 0.48038 0.98578 0.9013 0.0
H10 H 0.59889 0.1822 0.9004 0.0
H11 H 0.65835 0.17793 0.84634 0.0
H12 H 0.71911 0.99076 0.86831 0.0
H13 H 0.65275 0.99403 0.9202 0.0
H14 H 0.68328 0.19161 0.99285 0.0
H15 H 0.80711 0.19759 0.00699 0.0
H16 H 0.82349 0.00114 -0.00408 0.0
H17 H 0.69962 0.99591 0.9821 0.0
H18 H 0.57309 0.18327 0.0564 0.0
H19 H 0.64398 0.18445 0.11163 0.0
H20 H 0.70079 0.99555 0.09322 0.0
H21 H 0.62697 0.99426 0.03955 0.0
H22 H 0.40778 0.1864 0.02093 0.0
H23 H 0.32846 0.18619 0.06791 0.0
H24 H 0.39836 0.00427 0.09609 0.0
H25 H 0.47473 0.00387 0.04787 0.0
O26 O 0.35175 0.11531 0.78136 0.0
O27 O 0.36667 0.01475 0.78529 0.0
O28 O 0.92754 0.15211 0.01807 0.0
O29 O 0.93872 0.05125 0.01275 0.0
C30 C 0.46373 0.09446 0.96648 0.0
C31 C 0.50682 0.09061 0.93816 0.0
C32 C 0.57848 0.08956 0.94453 0.0
C33 C 0.60736 0.09019 0.97925 0.0
C34 C 0.56421 0.09099 0.00766 0.0
C35 C 0.49218 0.09408 0.00132 0.0
C36 C 0.38882 0.09642 0.95819 0.0
C37 C 0.35952 0.15096 0.94533 0.0
C38 C 0.30351 0.14915 0.92083 0.0
C39 C 0.27528 0.09272 0.90962 0.0
C40 C 0.2975 0.03953 0.92746 0.0
C41 C 0.35439 0.04132 0.95145 0.0
C42 C 0.47642 0.08445 0.9016 0.0
C43 C 0.45649 0.13633 0.88231 0.0
C44 C 0.42408 0.13011 0.84881 0.0
C45 C 0.41161 0.07183 0.83392 0.0
C46 C 0.43309 0.01995 0.85313 0.0
C47 C 0.46524 0.02627 0.88668 0.0
C48 C 0.6224 0.0887 0.91439 0.0
C49 C 0.62509 0.14034 0.89337 0.0
C50 C 0.65953 0.13778 0.86253 0.0
C51 C 0.69404 0.08399 0.85267 0.0
C52 C 0.69209 0.03262 0.87438 0.0
C53 C 0.65566 0.03473 0.90464 0.0
C54 C 0.68283 0.09345 0.98606 0.0
C55 C 0.7139 0.15003 0.99323 0.0
C56 C 0.78453 0.15326 0.00138 0.0
C57 C 0.82526 0.09981 0.00252 0.0
C58 C 0.79374 0.04317 -0.00484 0.0
C59 C 0.72309 0.04006 0.98705 0.0
C60 C 0.59577 0.0889 0.0439 0.0
C61 C 0.59931 0.14177 0.06501 0.0
C62 C 0.64042 0.14245 0.09633 0.0
C63 C 0.67918 0.0904 0.10671 0.0
C64 C 0.67139 0.03636 0.08648 0.0
C65 C 0.62965 0.03557 0.05553 0.0
C66 C 0.44663 0.09502 0.03088 0.0
C67 C 0.40563 0.14647 0.03721 0.0
C68 C 0.36094 0.14649 0.06433 0.0
C69 C 0.3569 0.09515 0.0858 0.0
C70 C 0.39931 0.04418 0.07975 0.0
C71 C 0.44345 0.04403 0.05242 0.0
C72 C 0.37556 0.06533 0.79872 0.0
C73 C 0.90019 0.10289 0.01157 0.0
H74 H 0.04077 0.46863 0.25571 0.0
H75 H 0.19892 0.96085 0.55549 0.0
H76 H 0.97864 0.4685 0.44825 0.0
H77 H 0.96468 0.38086 0.40798 0.0
H78 H 0.1827 0.3455 0.41914 0.0
H79 H 0.19653 0.43403 0.45905 0.0
H80 H -0.00154 0.56967 0.39536 0.0
H81 H -0.00353 0.5336 0.33434 0.0
H82 H 0.21264 0.4888 0.34789 0.0
H83 H 0.21382 0.52525 0.40884 0.0
H84 H 0.00143 0.70405 0.43547 0.0
H85 H -0.00142 0.78665 0.39298 0.0
H86 H 0.20675 0.74262 0.36927 0.0
H87 H 0.21045 0.66138 0.41324 0.0
H88 H 0.00123 0.72738 0.50032 0.0
H89 H 0.01204 0.8334 0.52084 0.0
H90 H 0.23301 0.81369 0.52649 0.0
H91 H 0.22135 0.7079 0.50536 0.0
H92 H 0.97364 0.62692 0.54143 0.0
H93 H 0.95681 0.69878 0.58979 0.0
H94 H 0.17442 0.69519 0.61737 0.0
H95 H 0.19121 0.62367 0.56846 0.0
H96 H 0.97815 0.51168 0.53856 0.0
H97 H 0.96259 0.42996 0.58031 0.0
H98 H 0.17172 0.36988 0.56966 0.0
H99 H 0.18729 0.45263 0.52842 0.0
O100 O 0.04314 0.48429 0.27958 0.0
O101 O 0.15479 0.46392 0.28753 0.0
O102 O 0.07935 0.92676 0.54382 0.0
O103 O 0.19321 0.91948 0.54653 0.0
C104 C 0.09873 0.52115 0.46925 0.0
C105 C 0.10576 0.56709 0.44409 0.0
C106 C 0.10762 0.629 0.4545 0.0
C107 C 0.10414 0.64503 0.49016 0.0
C108 C 0.09532 0.59942 0.5153 0.0
C109 C 0.09313 0.53715 0.50493 0.0
C110 C 0.08853 0.45744 0.45653 0.0
C111 C 0.02291 0.44013 0.44332 0.0
C112 C 0.01511 0.39051 0.42013 0.0
C113 C 0.07276 0.35709 0.41031 0.0
C114 C 0.13751 0.37041 0.42655 0.0
C115 C 0.14542 0.42066 0.44945 0.0
C116 C 0.10628 0.55009 0.40636 0.0
C117 C 0.04544 0.55271 0.38491 0.0
C118 C 0.04443 0.53183 0.35016 0.0
C119 C 0.10435 0.50809 0.33627 0.0
C120 C 0.16558 0.50672 0.35776 0.0
C121 C 0.16649 0.52764 0.39251 0.0
C122 C 0.10652 0.67753 0.42784 0.0
C123 C 0.04685 0.71289 0.42157 0.0
C124 C 0.04522 0.75986 0.39734 0.0
C125 C 0.10269 0.77114 0.37827 0.0
C126 C 0.16198 0.73475 0.38386 0.0
C127 C 0.16409 0.68849 0.40878 0.0
C128 C 0.11052 0.71012 0.50137 0.0
C129 C 0.0519 0.74621 0.50577 0.0
C130 C 0.05825 0.80668 0.51758 0.0
C131 C 0.12343 0.83192 0.52555 0.0
C132 C 0.18207 0.79566 0.52071 0.0
C133 C 0.17561 0.73531 0.5086 0.0
C134 C 0.08357 0.6196 0.55162 0.0
C135 C 0.01724 0.63885 0.55906 0.0
C136 C 0.00779 0.68062 0.58631 0.0
C137 C 0.06447 0.70289 0.60683 0.0
C138 C 0.12999 0.67839 0.60189 0.0
C139 C 0.13955 0.6371 0.57426 0.0
C140 C 0.08417 0.48871 0.5309 0.0
C141 C 0.02091 0.48152 0.54568 0.0
C142 C 0.01203 0.43466 0.56935 0.0
C143 C 0.066 0.39359 0.57825 0.0
C144 C 0.12909 0.4005 0.56306 0.0
C145 C 0.13816 0.44786 0.5397 0.0
C146 C 0.1026 0.48417 0.29968 0.0
C147 C 0.13038 0.89559 0.53913 0.0
O148 O 0.94726 0.0392 0.20859 0.0
Cd149 Cd 0.04675 0.02603 0.22837 0.0
Cd150 Cd 0.04916 0.14773 0.2336 0.0
O151 O 0.95276 0.13972 0.2087 0.0
O152 O 0.05658 0.9382 0.24025 0.0
O153 O 0.06691 0.01308 0.27983 0.0
C154 C 0.06812 0.95529 0.27249 0.0
C155 C 0.05831 0.20507 0.28543 0.0
C156 C 0.9199 0.09084 0.20156 0.0
C157 C 0.15258 0.09128 0.18908 0.0
O158 O 0.13205 0.14082 0.20287 0.0
O159 O 0.12432 0.04105 0.19555 0.0
O160 O 0.05021 0.23076 0.25529 0.0
O161 O 0.06241 0.14616 0.28621 0.0
O162 O 0.91691 0.119 0.73681 0.0
Cd163 Cd 0.01503 0.1309 0.72244 0.0
Cd164 Cd 0.01846 0.00352 0.72985 0.0
O165 O 0.92138 0.01969 0.74622 0.0
O166 O 0.01394 0.21931 0.71057 0.0
O167 O 0.03929 0.14687 0.67265 0.0
C168 C 0.03078 0.20426 0.67958 0.0
C169 C 0.03434 0.91798 0.69387 0.0
C170 C 0.88973 0.07065 0.74725 0.0
C171 C 0.11379 0.07839 0.77771 0.0
O172 O 0.09682 0.02563 0.76616 0.0
O173 O 0.08725 0.12616 0.76387 0.0
O174 O 0.02686 0.91265 0.72689 0.0
O175 O 0.03277 0.97224 0.68101 0.0
C176 C 0.27078 0.04014 0.11937 0.0
C177 C 0.30688 0.09386 0.11352 0.0
H178 H 0.19443 0.99713 0.1478 0.0
C179 C 0.29333 0.14645 0.13366 0.0
H180 H 0.27893 0.99909 0.10396 0.0
C181 C 0.24396 0.14557 0.1586 0.0
C182 C 0.20741 0.09196 0.16409 0.0
H183 H 0.32092 0.18835 0.1302 0.0
H184 H 0.23422 0.18698 0.17343 0.0
C185 C 0.22191 0.03913 0.14443 0.0
C186 C 0.02595 0.35783 0.6353 0.0
C187 C 0.05675 0.34448 0.60384 0.0
H188 H -0.00588 0.32425 0.68383 0.0
C189 C 0.0788 0.28425 0.59721 0.0
H190 H 0.00909 0.40391 0.64128 0.0
C191 C 0.06983 0.23825 0.62156 0.0
C192 C 0.03951 0.25188 0.65318 0.0
H193 H 0.10229 0.2726 0.57303 0.0
H194 H 0.08715 0.19225 0.61577 0.0
C195 C 0.01776 0.31218 0.65975 0.0
C196 C 0.75067 0.04269 0.15644 0.0
C197 C 0.73349 0.09397 0.13578 0.0
H198 H 0.82325 0.00135 0.19345 0.0
C199 C 0.77403 0.14659 0.14034 0.0
H200 H 0.71979 0.00187 0.15426 0.0
C201 C 0.83242 0.14667 0.16336 0.0
C202 C 0.85228 0.09386 0.18196 0.0
H203 H 0.76322 0.1867 0.12463 0.0
H204 H 0.86411 0.18705 0.165 0.0
C205 C 0.80978 0.04245 0.17905 0.0
C206 C 0.07819 0.75657 0.66525 0.0
C207 C 0.05646 0.75732 0.62959 0.0
H208 H 0.08702 0.80706 0.71382 0.0
C209 C 0.02865 0.81142 0.61505 0.0
H210 H 0.10008 0.7154 0.67691 0.0
C211 C 0.02298 0.86413 0.63574 0.0
C212 C 0.04331 0.86319 0.67159 0.0
H213 H 0.01193 0.81309 0.58754 0.0
H214 H 0.00144 0.90523 0.62383 0.0
C215 C 0.07071 0.80889 0.68623 0.0
C216 C 0.18687 0.13634 0.86573 0.0
C217 C 0.23156 0.08837 0.87635 0.0
H218 H 0.11611 0.1715 0.82579 0.0
C219 C 0.23898 0.03816 0.85333 0.0
H220 H 0.17915 0.17543 0.88277 0.0
C221 C 0.20205 0.03559 0.8209 0.0
C222 C 0.15787 0.08367 0.81035 0.0
H223 H 0.27451 0.00119 0.85989 0.0
H224 H 0.20837 0.99603 0.80398 0.0
C225 C 0.15095 0.13427 0.83296 0.0
C226 C 0.09218 0.25587 0.38034 0.0
C227 C 0.06695 0.31614 0.37921 0.0
H228 H 0.10808 0.17257 0.35142 0.0
C229 C 0.03898 0.33927 0.34731 0.0
H230 H 0.11442 0.23737 0.40467 0.0
C231 C 0.03666 0.30308 0.31696 0.0
C232 C 0.06128 0.24258 0.31794 0.0
H233 H 0.02019 0.38596 0.34568 0.0
H234 H 0.01527 0.32256 0.29272 0.0
C235 C 0.08854 0.21901 0.34997 0.0
C236 C 0.7444 0.02757 0.80207 0.0
C237 C 0.73485 0.08241 0.82102 0.0
H238 H 0.801 0.98065 0.7634 0.0
C239 C 0.76871 0.1351 0.81093 0.0
H240 H 0.7175 0.98648 0.80816 0.0
C241 C 0.81411 0.13219 0.78428 0.0
C242 C 0.82835 0.07622 0.76769 0.0
H243 H 0.76376 0.1781 0.82492 0.0
H244 H 0.84209 0.17303 0.77872 0.0
C245 C 0.7914 0.02432 0.77598 0.0
C246 C 0.079 0.87925 0.36087 0.0
C247 C 0.09927 0.81963 0.35181 0.0
H248 H 0.05434 0.96953 0.34281 0.0
C249 C 0.11223 0.80565 0.31691 0.0
H250 H 0.06891 0.89094 0.38773 0.0
C251 C 0.10273 0.85008 0.29119 0.0
C252 C 0.08138 0.90954 0.30008 0.0
H253 H 0.12747 0.75982 0.30935 0.0
H254 H 0.11163 0.83774 0.26428 0.0
C255 C 0.07083 0.92408 0.33526 0.0
loop_
_geom_bond_atom_site_label_1
_geom_bond_atom_site_label_2
_geom_bond_distance
_geom_bond_site_symmetry_2
_ccdc_geom_bond_type
H0 O26 0.856 . S
H1 O29 0.854 1_455 S
H2 C37 0.930 . S
H3 C38 0.930 . S
H4 C40 0.930 . S
H5 C41 0.930 . S
H6 C43 0.931 . S
H7 C44 0.930 . S
H8 C46 0.930 1_565 S
H9 C47 0.929 1_565 S
H10 C49 0.930 . S
H11 C50 0.931 . S
H12 C52 0.930 1_565 S
H13 C53 0.929 1_565 S
H14 C55 0.931 . S
H15 C56 0.930 . S
H16 C58 0.926 1_566 S
H17 C59 0.932 1_565 S
H18 C61 0.930 . S
H19 C62 0.929 . S
H20 C64 0.931 . S
H21 C65 0.930 . S
H22 C67 0.929 . S
H23 C68 0.931 . S
H24 C70 0.930 1_565 S
H25 C71 0.929 . S
O26 H0 0.856 . S
O26 C72 1.300 . S
O27 C72 1.209 . S
O28 C73 1.199 . S
O29 H1 0.854 1_655 S
O29 C73 1.297 . S
C30 C31 1.404 . S
C30 C35 1.399 1_556 S
C30 C36 1.492 . S
C31 C30 1.404 . S
C31 C32 1.396 . S
C31 C42 1.492 . S
C32 C31 1.396 . S
C32 C33 1.397 . S
C32 C48 1.509 . S
C33 C32 1.397 . S
C33 C34 1.412 1_556 S
C33 C54 1.485 . S
C34 C33 1.412 1_554 S
C34 C35 1.388 . S
C34 C60 1.490 . S
C35 C30 1.399 1_554 S
C35 C34 1.388 . S
C35 C66 1.517 . S
C36 C30 1.492 . S
C36 C37 1.363 . S
C36 C41 1.390 . S
C37 H2 0.930 . S
C37 C36 1.363 . S
C37 C38 1.372 . S
C38 H3 0.930 . S
C38 C37 1.372 . S
C38 C39 1.383 . S
C39 C38 1.383 . S
C39 C40 1.395 . S
C40 H4 0.930 . S
C40 C39 1.395 . S
C40 C41 1.362 . S
C41 H5 0.930 . S
C41 C36 1.390 . S
C41 C40 1.362 . S
C42 C31 1.492 . S
C42 C43 1.377 . S
C42 C47 1.397 . S
C43 H6 0.931 . S
C43 C42 1.377 . S
C43 C44 1.376 . S
C44 H7 0.930 . S
C44 C43 1.376 . S
C44 C45 1.376 . S
C45 C44 1.376 . S
C45 C46 1.378 . S
C45 C72 1.486 . S
C46 H8 0.930 1_545 S
C46 C45 1.378 . S
C46 C47 1.376 . S
C47 H9 0.929 1_545 S
C47 C42 1.397 . S
C47 C46 1.376 . S
C48 C32 1.509 . S
C48 C49 1.391 . S
C48 C53 1.386 . S
C49 H10 0.930 . S
C49 C48 1.391 . S
C49 C50 1.375 . S
C50 H11 0.931 . S
C50 C49 1.375 . S
C50 C51 1.375 . S
C51 C50 1.375 . S
C51 C52 1.361 . S
C52 H12 0.930 1_545 S
C52 C51 1.361 . S
C52 C53 1.399 . S
C53 H13 0.929 1_545 S
C53 C48 1.386 . S
C53 C52 1.399 . S
C54 C33 1.485 . S
C54 C55 1.394 1_556 S
C54 C59 1.360 . S
C55 H14 0.931 . S
C55 C54 1.394 1_554 S
C55 C56 1.372 . S
C56 H15 0.930 . S
C56 C55 1.372 . S
C56 C57 1.397 . S
C57 C56 1.397 . S
C57 C58 1.390 . S
C57 C73 1.476 . S
C58 H16 0.926 1_544 S
C58 C57 1.390 . S
C58 C59 1.366 1_554 S
C59 H17 0.932 1_545 S
C59 C54 1.360 . S
C59 C58 1.366 1_556 S
C60 C34 1.490 . S
C60 C61 1.380 . S
C60 C65 1.386 . S
C61 H18 0.930 . S
C61 C60 1.380 . S
C61 C62 1.381 . S
C62 H19 0.929 . S
C62 C61 1.381 . S
C62 C63 1.371 . S
C63 C62 1.371 . S
C63 C64 1.380 . S
C64 H20 0.931 . S
C64 C63 1.380 . S
C64 C65 1.387 . S
C65 H21 0.930 . S
C65 C60 1.386 . S
C65 C64 1.387 . S
C66 C35 1.517 . S
C66 C67 1.377 . S
C66 C71 1.361 . S
C67 H22 0.929 . S
C67 C66 1.377 . S
C67 C68 1.386 . S
C68 H23 0.931 . S
C68 C67 1.386 . S
C68 C69 1.363 . S
C69 C68 1.363 . S
C69 C70 1.385 . S
C70 H24 0.930 1_545 S
C70 C69 1.385 . S
C70 C71 1.396 . S
C71 H25 0.929 . S
C71 C66 1.361 . S
C71 C70 1.396 . S
C72 O26 1.300 . S
C72 O27 1.209 . S
C72 C45 1.486 . S
C73 O28 1.199 . S
C73 O29 1.297 . S
C73 C57 1.476 . S
H74 O100 0.856 . S
H75 O103 0.854 . S
H76 C111 0.930 . S
H77 C112 0.930 . S
H78 C114 0.930 . S
H79 C115 0.930 . S
H80 C117 0.931 1_655 S
H81 C118 0.930 1_655 S
H82 C120 0.930 . S
H83 C121 0.929 . S
H84 C123 0.930 1_655 S
H85 C124 0.931 1_655 S
H86 C126 0.930 . S
H87 C127 0.929 . S
H88 C129 0.931 1_655 S
H89 C130 0.930 1_655 S
H90 C132 0.930 . S
H91 C133 0.932 . S
H92 C135 0.930 . S
H93 C136 0.929 . S
H94 C138 0.931 . S
H95 C139 0.930 . S
H96 C141 0.929 1_655 S
H97 C142 0.931 1_655 S
H98 C144 0.930 . S
H99 C145 0.929 . S
O100 H74 0.856 . S
O100 C146 1.300 . S
O101 C146 1.209 . S
O102 C147 1.199 . S
O103 H75 0.854 . S
O103 C147 1.297 . S
C104 C105 1.404 . S
C104 C109 1.397 . S
C104 C110 1.492 . S
C105 C104 1.404 . S
C105 C106 1.396 . S
C105 C116 1.492 . S
C106 C105 1.396 . S
C106 C107 1.397 . S
C106 C122 1.509 . S
C107 C106 1.397 . S
C107 C108 1.412 . S
C107 C128 1.485 . S
C108 C107 1.412 . S
C108 C109 1.388 . S
C108 C134 1.490 . S
C109 C104 1.397 . S
C109 C108 1.388 . S
C109 C140 1.519 . S
C110 C104 1.492 . S
C110 C111 1.363 1_455 S
C110 C115 1.390 . S
C111 H76 0.930 . S
C111 C110 1.363 1_655 S
C111 C112 1.372 . S
C112 H77 0.930 . S
C112 C111 1.372 . S
C112 C113 1.383 1_655 S
C113 C112 1.383 1_455 S
C113 C114 1.395 . S
C114 H78 0.930 . S
C114 C113 1.395 . S
C114 C115 1.362 . S
C115 H79 0.930 . S
C115 C110 1.390 . S
C115 C114 1.362 . S
C116 C105 1.492 . S
C116 C117 1.377 . S
C116 C121 1.397 . S
C117 H80 0.931 1_455 S
C117 C116 1.377 . S
C117 C118 1.376 . S
C118 H81 0.930 1_455 S
C118 C117 1.376 . S
C118 C119 1.376 . S
C119 C118 1.376 . S
C119 C120 1.378 . S
C119 C146 1.486 . S
C120 H82 0.930 . S
C120 C119 1.378 . S
C120 C121 1.376 . S
C121 H83 0.929 . S
C121 C116 1.397 . S
C121 C120 1.376 . S
C122 C106 1.509 . S
C122 C123 1.391 . S
C122 C127 1.386 . S
C123 H84 0.930 1_455 S
C123 C122 1.391 . S
C123 C124 1.375 . S
C124 H85 0.931 1_455 S
C124 C123 1.375 . S
C124 C125 1.375 . S
C125 C124 1.375 . S
C125 C126 1.361 . S
C126 H86 0.930 . S
C126 C125 1.361 . S
C126 C127 1.399 . S
C127 H87 0.929 . S
C127 C122 1.386 . S
C127 C126 1.399 . S
C128 C107 1.485 . S
C128 C129 1.394 . S
C128 C133 1.360 . S
C129 H88 0.931 1_455 S
C129 C128 1.394 . S
C129 C130 1.372 . S
C130 H89 0.930 1_455 S
C130 C129 1.372 . S
C130 C131 1.397 . S
C131 C130 1.397 . S
C131 C132 1.390 . S
C131 C147 1.476 . S
C132 H90 0.930 . S
C132 C131 1.390 . S
C132 C133 1.366 . S
C133 H91 0.932 . S
C133 C128 1.360 . S
C133 C132 1.366 . S
C134 C108 1.490 . S
C134 C135 1.380 1_455 S
C134 C139 1.386 . S
C135 H92 0.930 . S
C135 C134 1.380 1_655 S
C135 C136 1.381 . S
C136 H93 0.929 . S
C136 C135 1.381 . S
C136 C137 1.371 1_655 S
C137 C136 1.371 1_455 S
C137 C138 1.380 . S
C138 H94 0.931 . S
C138 C137 1.380 . S
C138 C139 1.387 . S
C139 H95 0.930 . S
C139 C134 1.386 . S
C139 C138 1.387 . S
C140 C109 1.519 . S
C140 C141 1.377 . S
C140 C145 1.361 . S
C141 H96 0.929 1_455 S
C141 C140 1.377 . S
C141 C142 1.386 . S
C142 H97 0.931 1_455 S
C142 C141 1.386 . S
C142 C143 1.363 . S
C143 C142 1.363 . S
C143 C144 1.385 . S
C144 H98 0.930 . S
C144 C143 1.385 . S
C144 C145 1.396 . S
C145 H99 0.929 . S
C145 C140 1.361 . S
C145 C144 1.396 . S
C146 O100 1.300 . S
C146 O101 1.209 . S
C146 C119 1.486 . S
C147 O102 1.199 . S
C147 O103 1.297 . S
C147 C131 1.476 . S
O148 Cd149 2.223 . S
O148 C156 1.315 1_455 S
Cd149 O148 2.223 . S
Cd149 O152 2.297 1_545 S
Cd149 O153 2.439 . S
Cd149 O159 2.240 . S
Cd150 O151 2.240 1_455 S
Cd150 O158 2.223 . S
Cd150 O160 2.297 . S
Cd150 O161 2.439 . S
O151 Cd150 2.240 1_655 S
O151 C156 1.279 . S
O152 Cd149 2.297 1_565 S
O152 C154 1.247 . S
O153 Cd149 2.439 . S
O153 C154 1.208 1_545 S
C154 O152 1.247 . S
C154 O153 1.208 1_565 S
C155 O160 1.247 . S
C155 O161 1.208 . S
C156 O148 1.315 1_655 S
C156 O151 1.279 . S
C157 O158 1.315 . S
C157 O159 1.279 . S
O158 Cd150 2.223 . S
O158 C157 1.315 . S
O159 Cd149 2.240 . S
O159 C157 1.279 . S
O160 Cd150 2.297 . S
O160 C155 1.247 . S
O161 Cd150 2.439 . S
O161 C155 1.208 . S
O162 Cd163 2.223 . S
O162 C170 1.315 1_455 S
Cd163 O162 2.223 . S
Cd163 O166 2.297 . S
Cd163 O167 2.439 . S
Cd163 O173 2.240 . S
Cd164 O165 2.240 1_465 S
Cd164 O172 2.223 . S
Cd164 O174 2.297 . S
Cd164 O175 2.439 . S
O165 Cd164 2.240 1_645 S
O165 C170 1.279 . S
O166 Cd163 2.297 . S
O166 C168 1.247 . S
O167 Cd163 2.439 . S
O167 C168 1.208 . S
C168 O166 1.247 . S
C168 O167 1.208 . S
C169 O174 1.247 . S
C169 O175 1.208 . S
C170 O162 1.315 1_655 S
C170 O165 1.279 . S
C171 O172 1.315 1_545 S
C171 O173 1.279 . S
O172 Cd164 2.223 . S
O172 C171 1.315 1_565 S
O173 Cd163 2.240 . S
O173 C171 1.279 . S
O174 Cd164 2.297 . S
O174 C169 1.247 . S
O175 Cd164 2.439 . S
O175 C169 1.208 . S
C176 C177 1.387 . S
C176 H180 0.950 . S
C176 C185 1.390 . S
C177 C176 1.387 . S
C177 C179 1.387 . S
H178 C185 0.950 . S
C179 C177 1.387 . S
C179 C181 1.390 . S
C179 H183 0.950 . S
H180 C176 0.950 . S
C181 C179 1.390 . S
C181 C182 1.387 . S
C181 H184 0.950 . S
C182 C181 1.387 . S
C182 C185 1.387 . S
H183 C179 0.950 . S
H184 C181 0.950 . S
C185 C176 1.390 . S
C185 H178 0.950 . S
C185 C182 1.387 . S
C186 C187 1.383 1_655 S
C186 H190 0.953 . S
C186 C195 1.392 . S
C187 C186 1.383 1_455 S
C187 C189 1.387 . S
H188 C195 0.950 . S
C189 C187 1.387 . S
C189 C191 1.390 . S
C189 H193 0.950 . S
H190 C186 0.953 . S
C191 C189 1.390 . S
C191 C192 1.387 . S
C191 H194 0.950 . S
C192 C191 1.387 . S
C192 C195 1.387 1_455 S
H193 C189 0.950 . S
H194 C191 0.950 . S
C195 C186 1.392 . S
C195 H188 0.950 . S
C195 C192 1.387 1_655 S
C196 C197 1.387 . S
C196 H200 0.950 . S
C196 C205 1.390 . S
C197 C196 1.387 . S
C197 C199 1.387 . S
H198 C205 0.950 . S
C199 C197 1.387 . S
C199 C201 1.390 . S
C199 H203 0.950 . S
H200 C196 0.950 . S
C201 C199 1.390 . S
C201 C202 1.387 . S
C201 H204 0.950 . S
C202 C201 1.387 . S
C202 C205 1.387 . S
H203 C199 0.950 . S
H204 C201 0.950 . S
C205 C196 1.390 . S
C205 H198 0.950 . S
C205 C202 1.387 . S
C206 C207 1.387 . S
C206 H210 0.950 . S
C206 C215 1.390 . S
C207 C206 1.387 . S
C207 C209 1.385 1_455 S
H208 C215 0.950 . S
C209 C207 1.385 1_655 S
C209 C211 1.389 1_655 S
C209 H213 0.953 . S
H210 C206 0.950 . S
C211 C209 1.389 1_455 S
C211 C212 1.387 . S
C211 H214 0.950 1_455 S
C212 C211 1.387 . S
C212 C215 1.387 . S
H213 C209 0.953 . S
H214 C211 0.950 1_655 S
C215 C206 1.390 . S
C215 H208 0.950 . S
C215 C212 1.387 . S
C216 C217 1.387 . S
C216 H220 0.950 . S
C216 C225 1.390 . S
C217 C216 1.387 . S
C217 C219 1.387 . S
H218 C225 0.950 . S
C219 C217 1.387 . S
C219 C221 1.390 . S
C219 H223 0.950 . S
H220 C216 0.950 . S
C221 C219 1.390 . S
C221 C222 1.387 . S
C221 H224 0.950 1_545 S
C222 C221 1.387 . S
C222 C225 1.387 . S
H223 C219 0.950 . S
H224 C221 0.950 1_565 S
C225 C216 1.390 . S
C225 H218 0.950 . S
C225 C222 1.387 . S
C226 C227 1.387 . S
C226 H230 0.950 . S
C226 C235 1.390 . S
C227 C226 1.387 . S
C227 C229 1.387 . S
H228 C235 0.950 . S
C229 C227 1.387 . S
C229 C231 1.390 . S
C229 H233 0.950 . S
H230 C226 0.950 . S
C231 C229 1.390 . S
C231 C232 1.387 . S
C231 H234 0.950 . S
C232 C231 1.387 . S
C232 C235 1.387 . S
H233 C229 0.950 . S
H234 C231 0.950 . S
C235 C226 1.390 . S
C235 H228 0.950 . S
C235 C232 1.387 . S
C236 C237 1.387 . S
C236 H240 0.950 1_545 S
C236 C245 1.390 . S
C237 C236 1.387 . S
C237 C239 1.387 . S
H238 C245 0.950 1_565 S
C239 C237 1.387 . S
C239 C241 1.390 . S
C239 H243 0.950 . S
H240 C236 0.950 1_565 S
C241 C239 1.390 . S
C241 C242 1.387 . S
C241 H244 0.950 . S
C242 C241 1.387 . S
C242 C245 1.387 . S
H243 C239 0.950 . S
H244 C241 0.950 . S
C245 C236 1.390 . S
C245 H238 0.950 1_545 S
C245 C242 1.387 . S
C246 C247 1.387 . S
C246 H250 0.950 . S
C246 C255 1.390 . S
C247 C246 1.387 . S
C247 C249 1.387 . S
H248 C255 0.950 . S
C249 C247 1.387 . S
C249 C251 1.390 . S
C249 H253 0.950 . S
H250 C246 0.950 . S
C251 C249 1.390 . S
C251 C252 1.387 . S
C251 H254 0.950 1_455 S
C252 C251 1.387 . S
C252 C255 1.387 . S
H253 C249 0.950 . S
H254 C251 0.950 1_655 S
C255 C246 1.390 . S
C255 H248 0.950 . S
C255 C252 1.387 . S
C182 C157 2.130 . S
C177 C69 2.114 . S
C192 C168 2.146 . S
C187 C143 2.236 . S
C202 C156 1.891 . S
C197 C63 1.678 . S
C212 C169 1.714 . S
C207 C137 1.650 . S
C222 C171 1.856 . S
C217 C39 1.657 . S
C232 C155 1.664 . S
C227 C113 1.571 . S
C242 C170 1.051 . S
C237 C51 1.037 . S
C247 C125 1.149 . S
C252 C154 1.087 . S
