# Generated by pormake.
# Topology rtl, (3,6)-cn, num edge types: 1
# Building blocks:
#     Node 0, Type 0, BuildingBlock: INOVEN_clean_linker_0, # of connection points: 3
#     Node 1, Type 0, BuildingBlock: INOVEN_clean_linker_0, # of connection points: 3
#     Node 2, Type 0, BuildingBlock: INOVEN_clean_linker_0, # of connection points: 3
#     Node 3, Type 0, BuildingBlock: INOVEN_clean_linker_0, # of connection points: 3
#     Node 4, Type 1, BuildingBlock: FUNLAD_clean_sbu_0, # of connection points: 6
#     Node 5, Type 1, BuildingBlock: FUNLAD_clean_sbu_0, # of connection points: 6
#     Edge 6, Type (0, 1), None
#     Edge 7, Type (0, 1), None
#     Edge 8, Type (0, 1), None
#     Edge 9, Type (0, 1), None
#     Edge 10, Type (0, 1), None
#     Edge 11, Type (0, 1), None
#     Edge 12, Type (0, 1), None
#     Edge 13, Type (0, 1), None
#     Edge 14, Type (0, 1), None
#     Edge 15, Type (0, 1), None
#     Edge 16, Type (0, 1), None
#     Edge 17, Type (0, 1), None
# Relax obj value: 0.004
# Max RMSD: 0.081
# Mean RMSD: 0.056
data_MOF--net-rtl--node1-FUNLAD_clean_sbu_0--node2-INOVEN_clean_linker_0--edge1-none
_symmetry_space_group_name_H-M    P1
_symmetry_Int_Tables_number       1
_symmetry_cell_setting            triclinic
loop_
_symmetry_equiv_pos_as_xyz
'x, y, z'
_cell_length_a     19.966158
_cell_length_b     20.435911
_cell_length_c     8.8295733
_cell_angle_alpha  91.899247
_cell_angle_beta   92.902797
_cell_angle_gamma 90.073678
loop_
_atom_site_label
_atom_site_type_symbol
_atom_site_fract_x
_atom_site_fract_y
_atom_site_fract_z
_atom_type_partial_charge
H0 H 0.17044 0.83683 0.73748 0.0
H1 H 0.07806 0.99468 0.98204 0.0
H2 H 0.17804 0.84141 0.22613 0.0
N3 N 0.22562 0.78019 0.97742 0.0
N4 N 0.27889 0.77974 0.05735 0.0
C5 C 0.15869 0.86095 0.84405 0.0
C6 C 0.12193 0.91916 0.84425 0.0
C7 C 0.18249 0.83502 0.98146 0.0
C8 C 0.16349 0.86387 0.12 0.0
C9 C 0.12422 0.92084 0.11988 0.0
C10 C 0.10711 0.95008 0.98224 0.0
H11 H 0.6801 0.674 0.79946 0.0
H12 H 0.5696 0.52365 0.54249 0.0
H13 H 0.68309 0.66386 0.31104 0.0
N14 N 0.73654 0.72531 0.56188 0.0
N15 N 0.7828 0.72587 0.47201 0.0
C16 C 0.66483 0.65037 0.69152 0.0
C17 C 0.62173 0.59588 0.68641 0.0
C18 C 0.68987 0.67292 0.55644 0.0
C19 C 0.66712 0.64427 0.41602 0.0
C20 C 0.62258 0.59139 0.41137 0.0
C21 C 0.60261 0.56569 0.5465 0.0
H22 H 0.83798 0.14853 0.72218 0.0
H23 H 0.97175 0.0255 0.97924 0.0
H24 H 0.8407 0.15647 0.21173 0.0
N25 N 0.78 0.20389 0.95591 0.0
N26 N 0.77625 0.24928 0.05277 0.0
C27 C 0.85746 0.1314 0.83061 0.0
C28 C 0.9092 0.08534 0.83609 0.0
C29 C 0.83211 0.157 0.96552 0.0
C30 C 0.85933 0.1364 0.10685 0.0
C31 C 0.90962 0.08849 0.11131 0.0
C32 C 0.93331 0.06265 0.97581 0.0
H33 H 0.36321 0.33666 0.25248 0.0
H34 H 0.46385 0.49074 0.51675 0.0
H35 H 0.35474 0.34373 0.73963 0.0
N36 N 0.30609 0.28222 0.48083 0.0
N37 N 0.25354 0.28209 0.55139 0.0
C38 C 0.37627 0.36044 0.36158 0.0
C39 C 0.41627 0.41681 0.36974 0.0
C40 C 0.35089 0.33609 0.49392 0.0
C41 C 0.37089 0.36484 0.63653 0.0
C42 C 0.41332 0.41987 0.64474 0.0
C43 C 0.43274 0.44733 0.5108 0.0
C44 C 0.09238 0.94571 0.25684 0.0
N45 N 0.11688 0.12559 0.50457 0.0
C46 C 0.18327 0.1137 0.48765 0.0
C47 C 0.22991 0.16482 0.50141 0.0
C48 C 0.20818 0.22848 0.53723 0.0
C49 C 0.14002 0.23932 0.55749 0.0
C50 C 0.09471 0.18713 0.53821 0.0
Zn51 Zn 0.05065 0.04817 0.48647 0.0
C52 C 0.94035 0.06512 0.25395 0.0
N53 N 0.91653 0.8835 0.45841 0.0
C54 C 0.93884 0.82128 0.43399 0.0
C55 C 0.85086 0.89553 0.48402 0.0
C56 C 0.80553 0.8439 0.49221 0.0
C57 C 0.8276 0.7795 0.4687 0.0
C58 C 0.8945 0.76835 0.43577 0.0
Zn59 Zn 0.98258 0.96077 0.4698 0.0
O60 O 0.10793 0.00196 0.3138 0.0
C61 C 0.09139 0.94437 0.7037 0.0
O62 O 0.04104 0.91631 0.3006 0.0
H63 H 0.8335 0.94522 0.49993 0.0
H64 H 0.20034 0.0644 0.46433 0.0
H65 H 0.99119 0.81253 0.41502 0.0
O66 O 0.1073 0.00092 0.66146 0.0
O67 O 0.04112 0.91462 0.64009 0.0
H68 H 0.04186 0.19588 0.55073 0.0
O69 O 0.92623 0.00605 0.64158 0.0
O70 O 0.9921 0.09224 0.65556 0.0
O71 O 0.92481 0.00858 0.29732 0.0
O72 O 0.99191 0.09434 0.31379 0.0
C73 C 0.94135 0.06204 0.69925 0.0
H74 H 0.28242 0.15457 0.4867 0.0
H75 H 0.12196 0.28803 0.58481 0.0
H76 H 0.75365 0.85414 0.5142 0.0
H77 H 0.9125 0.71901 0.41576 0.0
C78 C 0.44453 0.4454 0.78917 0.0
N79 N 0.6246 0.39068 0.0277 0.0
C80 C 0.60825 0.32695 -0.00639 0.0
C81 C 0.65793 0.27858 -0.00173 0.0
C82 C 0.72422 0.29618 0.04291 0.0
C83 C 0.7395 0.36164 0.07843 0.0
C84 C 0.68915 0.40857 0.06652 0.0
Zn85 Zn 0.55388 0.46381 0.02776 0.0
C86 C 0.59203 0.57118 0.82216 0.0
N87 N 0.41512 0.6241 0.03382 0.0
C88 C 0.34862 0.61166 0.00393 0.0
C89 C 0.43737 0.68577 0.07215 0.0
C90 C 0.39211 0.73745 0.08418 0.0
C91 C 0.32382 0.72616 0.05134 0.0
C92 C 0.30185 0.66245 0.01 0.0
Zn93 Zn 0.48315 0.54879 0.02847 0.0
O94 O 0.49711 0.41791 0.84377 0.0
C95 C 0.44604 0.44227 0.23529 0.0
O96 O 0.427 0.50087 0.8433 0.0
H97 H 0.49033 0.69512 0.09383 0.0
H98 H 0.55676 0.31356 0.96345 0.0
H99 H 0.33167 0.56227 0.97587 0.0
O100 O 0.49723 0.41409 0.18365 0.0
O101 O 0.42878 0.49845 0.18967 0.0
H102 H 0.70201 0.45944 0.08895 0.0
O103 O 0.54026 0.59461 0.21057 0.0
O104 O 0.60805 0.51042 0.21499 0.0
O105 O 0.5395 0.59821 0.87002 0.0
O106 O 0.60947 0.51526 0.86914 0.0
C107 C 0.59126 0.56598 0.26803 0.0
H108 H 0.64463 0.22803 0.97086 0.0
H109 H 0.7904 0.37643 0.11165 0.0
H110 H 0.41033 0.78625 0.11534 0.0
H111 H 0.24921 0.65196 0.98491 0.0
loop_
_geom_bond_atom_site_label_1
_geom_bond_atom_site_label_2
_geom_bond_distance
_geom_bond_site_symmetry_2
_ccdc_geom_bond_type
H0 C5 0.929 . S
H1 C10 0.931 . S
H2 C8 0.930 . S
N3 N4 1.234 1_556 S
N3 C7 1.453 . S
N4 N3 1.234 1_554 S
C5 H0 0.929 . S
C5 C6 1.373 . S
C5 C7 1.368 . S
C6 C5 1.373 . S
C6 C10 1.397 1_556 S
C7 N3 1.453 . S
C7 C5 1.368 . S
C7 C8 1.373 1_556 S
C8 H2 0.930 . S
C8 C7 1.373 1_554 S
C8 C9 1.371 . S
C9 C8 1.371 . S
C9 C10 1.383 . S
C10 H1 0.931 . S
C10 C6 1.397 1_554 S
C10 C9 1.383 . S
H11 C16 0.929 . S
H12 C21 0.931 . S
H13 C19 0.930 . S
N14 N15 1.234 . S
N14 C18 1.453 . S
N15 N14 1.234 . S
C16 H11 0.929 . S
C16 C17 1.373 . S
C16 C18 1.368 . S
C17 C16 1.373 . S
C17 C21 1.397 . S
C18 N14 1.453 . S
C18 C16 1.368 . S
C18 C19 1.373 . S
C19 H13 0.930 . S
C19 C18 1.373 . S
C19 C20 1.371 . S
C20 C19 1.371 . S
C20 C21 1.383 . S
C21 H12 0.931 . S
C21 C17 1.397 . S
C21 C20 1.383 . S
H22 C27 0.929 . S
H23 C32 0.931 . S
H24 C30 0.930 . S
N25 N26 1.234 1_556 S
N25 C29 1.453 . S
N26 N25 1.234 1_554 S
C27 H22 0.929 . S
C27 C28 1.373 . S
C27 C29 1.368 . S
C28 C27 1.373 . S
C28 C32 1.397 1_556 S
C29 N25 1.453 . S
C29 C27 1.368 . S
C29 C30 1.373 1_556 S
C30 H24 0.930 . S
C30 C29 1.373 1_554 S
C30 C31 1.371 . S
C31 C30 1.371 . S
C31 C32 1.383 . S
C32 H23 0.931 . S
C32 C28 1.397 1_554 S
C32 C31 1.383 . S
H33 C38 0.929 . S
H34 C43 0.931 . S
H35 C41 0.930 . S
N36 N37 1.234 . S
N36 C40 1.453 . S
N37 N36 1.234 . S
C38 H33 0.929 . S
C38 C39 1.373 . S
C38 C40 1.368 . S
C39 C38 1.373 . S
C39 C43 1.397 . S
C40 N36 1.453 . S
C40 C38 1.368 . S
C40 C41 1.373 . S
C41 H35 0.930 . S
C41 C40 1.373 . S
C41 C42 1.371 . S
C42 C41 1.371 . S
C42 C43 1.383 . S
C43 H34 0.931 . S
C43 C39 1.397 . S
C43 C42 1.383 . S
C44 O60 1.251 . S
C44 O62 1.254 . S
N45 C46 1.333 . S
N45 C50 1.307 . S
N45 Zn51 2.020 . S
C46 N45 1.333 . S
C46 C47 1.379 . S
C46 H64 0.952 . S
C47 C46 1.379 . S
C47 C48 1.390 . S
C47 H74 0.949 . S
C48 C47 1.390 . S
C48 C49 1.357 . S
C49 C48 1.357 . S
C49 C50 1.370 . S
C49 H75 0.950 . S
C50 N45 1.307 . S
C50 C49 1.370 . S
C50 H68 0.948 . S
Zn51 N45 2.020 . S
Zn51 O60 2.039 1_545 S
Zn51 O66 2.034 1_545 S
Zn51 O70 2.025 1_455 S
Zn51 O72 2.024 1_455 S
C52 O71 1.246 . S
C52 O72 1.249 . S
N53 C54 1.307 . S
N53 C55 1.333 . S
N53 Zn59 2.020 . S
C54 N53 1.307 . S
C54 C58 1.370 . S
C54 H65 0.948 . S
C55 N53 1.333 . S
C55 C56 1.379 . S
C55 H63 0.952 . S
C56 C55 1.379 . S
C56 C57 1.390 . S
C56 H76 0.949 . S
C57 C56 1.390 . S
C57 C58 1.357 . S
C58 C54 1.370 . S
C58 C57 1.357 . S
C58 H77 0.950 . S
Zn59 N53 2.020 . S
Zn59 O62 2.025 1_655 S
Zn59 O67 2.024 1_655 S
Zn59 O69 2.039 1_565 S
Zn59 O71 2.034 1_565 S
O60 C44 1.251 . S
O60 Zn51 2.039 1_565 S
C61 O66 1.246 . S
C61 O67 1.249 . S
O62 C44 1.254 . S
O62 Zn59 2.025 1_455 S
H63 C55 0.952 . S
H64 C46 0.952 . S
H65 C54 0.948 . S
O66 Zn51 2.034 1_565 S
O66 C61 1.246 . S
O67 Zn59 2.024 1_455 S
O67 C61 1.249 . S
H68 C50 0.948 . S
O69 Zn59 2.039 1_545 S
O69 C73 1.251 . S
O70 Zn51 2.025 1_655 S
O70 C73 1.254 . S
O71 C52 1.246 . S
O71 Zn59 2.034 1_545 S
O72 Zn51 2.024 1_655 S
O72 C52 1.249 . S
C73 O69 1.251 . S
C73 O70 1.254 . S
H74 C47 0.949 . S
H75 C49 0.950 . S
H76 C56 0.949 . S
H77 C58 0.950 . S
C78 O94 1.251 . S
C78 O96 1.254 . S
N79 C80 1.333 1_554 S
N79 C84 1.307 . S
N79 Zn85 2.020 . S
C80 N79 1.333 1_556 S
C80 C81 1.379 . S
C80 H98 0.952 . S
C81 C80 1.379 . S
C81 C82 1.390 1_556 S
C81 H108 0.949 . S
C82 C81 1.390 1_554 S
C82 C83 1.357 . S
C83 C82 1.357 . S
C83 C84 1.370 . S
C83 H109 0.950 . S
C84 N79 1.307 . S
C84 C83 1.370 . S
C84 H102 0.948 . S
Zn85 N79 2.020 . S
Zn85 O94 2.039 1_554 S
Zn85 O100 2.034 . S
Zn85 O104 2.025 . S
Zn85 O106 2.024 1_554 S
C86 O105 1.246 . S
C86 O106 1.249 . S
N87 C88 1.307 1_554 S
N87 C89 1.333 . S
N87 Zn93 2.020 . S
C88 N87 1.307 1_556 S
C88 C92 1.370 1_556 S
C88 H99 0.948 . S
C89 N87 1.333 . S
C89 C90 1.379 . S
C89 H97 0.952 . S
C90 C89 1.379 . S
C90 C91 1.390 . S
C90 H110 0.949 . S
C91 C90 1.390 . S
C91 C92 1.358 . S
C92 C88 1.370 1_554 S
C92 C91 1.358 . S
C92 H111 0.949 1_554 S
Zn93 N87 2.020 . S
Zn93 O96 2.025 1_554 S
Zn93 O101 2.024 . S
Zn93 O103 2.039 . S
Zn93 O105 2.034 1_554 S
O94 C78 1.251 . S
O94 Zn85 2.039 1_556 S
C95 O100 1.246 . S
C95 O101 1.249 . S
O96 C78 1.254 . S
O96 Zn93 2.025 1_556 S
H97 C89 0.952 . S
H98 C80 0.952 . S
H99 C88 0.948 . S
O100 Zn85 2.034 . S
O100 C95 1.246 . S
O101 Zn93 2.024 . S
O101 C95 1.249 . S
H102 C84 0.948 . S
O103 Zn93 2.039 . S
O103 C107 1.251 . S
O104 Zn85 2.025 . S
O104 C107 1.254 . S
O105 C86 1.246 . S
O105 Zn93 2.034 1_556 S
O106 Zn85 2.024 1_556 S
O106 C86 1.249 . S
C107 O103 1.251 . S
C107 O104 1.254 . S
H108 C81 0.949 . S
H109 C83 0.950 . S
H110 C90 0.949 . S
H111 C92 0.949 1_556 S
C48 N37 1.529 . S
N4 C91 1.529 . S
N15 C57 1.499 . S
N26 C82 1.510 . S
C44 C9 1.567 . S
C86 C17 1.578 . S
C31 C52 1.573 . S
C42 C78 1.542 . S
C107 C20 1.430 . S
C73 C28 1.427 . S
C95 C39 1.457 . S
C6 C61 1.445 . S
