# Generated by pormake.
# Topology tsx, (6,3)-cn, num edge types: 1
# Building blocks:
#     Node 0, Type 0, BuildingBlock: CIFDUS_clean_sbu_1, # of connection points: 6
#     Node 1, Type 0, BuildingBlock: CIFDUS_clean_sbu_1, # of connection points: 6
#     Node 2, Type 1, BuildingBlock: BETDIP_clean_linker_0, # of connection points: 3
#     Node 3, Type 1, BuildingBlock: BETDIP_clean_linker_0, # of connection points: 3
#     Node 4, Type 1, BuildingBlock: BETDIP_clean_linker_0, # of connection points: 3
#     Node 5, Type 1, BuildingBlock: BETDIP_clean_linker_0, # of connection points: 3
#     Edge 6, Type (0, 1), BuildingBlock: OJICUG_clean_linker_0, # of connection points: 2
#     Edge 7, Type (0, 1), BuildingBlock: OJICUG_clean_linker_0, # of connection points: 2
#     Edge 8, Type (0, 1), BuildingBlock: OJICUG_clean_linker_0, # of connection points: 2
#     Edge 9, Type (0, 1), BuildingBlock: OJICUG_clean_linker_0, # of connection points: 2
#     Edge 10, Type (0, 1), BuildingBlock: OJICUG_clean_linker_0, # of connection points: 2
#     Edge 11, Type (0, 1), BuildingBlock: OJICUG_clean_linker_0, # of connection points: 2
#     Edge 12, Type (0, 1), BuildingBlock: OJICUG_clean_linker_0, # of connection points: 2
#     Edge 13, Type (0, 1), BuildingBlock: OJICUG_clean_linker_0, # of connection points: 2
#     Edge 14, Type (0, 1), BuildingBlock: OJICUG_clean_linker_0, # of connection points: 2
#     Edge 15, Type (0, 1), BuildingBlock: OJICUG_clean_linker_0, # of connection points: 2
#     Edge 16, Type (0, 1), BuildingBlock: OJICUG_clean_linker_0, # of connection points: 2
#     Edge 17, Type (0, 1), BuildingBlock: OJICUG_clean_linker_0, # of connection points: 2
# Relax obj value: 0.098
# Max RMSD: 0.144
# Mean RMSD: 0.109
data_MOF--net-tsx--node1-CIFDUS_clean_sbu_1--node2-BETDIP_clean_linker_0--edge1-OJICUG_clean_linker_0
_symmetry_space_group_name_H-M    P1
_symmetry_Int_Tables_number       1
_symmetry_cell_setting            triclinic
loop_
_symmetry_equiv_pos_as_xyz
'x, y, z'
_cell_length_a     12.27142
_cell_length_b     16.918957
_cell_length_c     26.143817
_cell_angle_alpha  95.321106
_cell_angle_beta   107.02885
_cell_angle_gamma 92.667862
loop_
_atom_site_label
_atom_site_type_symbol
_atom_site_fract_x
_atom_site_fract_y
_atom_site_fract_z
_atom_type_partial_charge
O0 O 1.04529 0.13055 -0.00966 0.0
Mn1 Mn 0.11716 0.02059 -0.01534 0.0
O2 O 0.85457 0.10618 0.96225 0.0
Mn3 Mn 0.85906 0.00888 0.92535 0.0
O4 O 0.18917 0.91099 0.97513 0.0
O5 O 0.27033 0.08184 0.00146 0.0
Mn6 Mn 0.37584 0.03168 0.04486 0.0
O7 O 0.14296 0.01278 0.06693 0.0
O8 O 0.38011 0.93438 0.00861 0.0
O9 O 0.09177 0.02894 0.90271 0.0
O10 O 0.90136 0.01373 0.86339 0.0
O11 O 0.4506 0.12183 0.03324 0.0
O12 O 0.33315 0.02855 0.107 0.0
C13 C 0.88255 0.90549 0.96643 0.0
C14 C 0.94364 0.15353 -0.01778 0.0
C15 C 0.29153 0.88879 -0.01636 0.0
C16 C 0.34944 0.1372 0.00532 0.0
C17 C 0.2309 0.01808 0.10903 0.0
C18 C 1.00326 0.0249 0.86109 0.0
O19 O 0.96394 0.95856 0.96872 0.0
O20 O 0.78272 0.91919 0.93602 0.0
O21 O 0.52966 0.61192 0.48635 0.0
Mn22 Mn 0.60286 0.50256 0.48053 0.0
O23 O 0.33932 0.58696 0.45129 0.0
Mn24 Mn 0.34742 0.49 0.41472 0.0
O25 O 0.676 0.39373 0.4707 0.0
O26 O 0.75729 0.5635 0.50252 0.0
Mn27 Mn 0.85797 0.51173 0.54759 0.0
O28 O 0.61796 0.49085 0.56104 0.0
O29 O 0.86548 0.41507 0.51092 0.0
O30 O 0.58734 0.51556 0.40002 0.0
O31 O 0.3991 0.49682 0.35556 0.0
O32 O 0.93661 0.60268 0.53945 0.0
O33 O 0.80576 0.50751 0.60708 0.0
C34 C 0.36745 0.38697 0.45665 0.0
C35 C 0.42714 0.63422 0.47488 0.0
C36 C 0.77836 0.37095 0.48207 0.0
C37 C 0.83789 0.61896 0.50937 0.0
C38 C 0.70104 0.49609 0.60489 0.0
C39 C 0.50274 0.51164 0.35673 0.0
O40 O 0.449 0.4405 0.46017 0.0
O41 O 0.26974 0.39932 0.42367 0.0
H42 H 0.17175 0.96254 0.46521 0.0
H43 H 1.05339 0.0627 0.31566 0.0
H44 H 0.30412 0.88983 0.33474 0.0
H45 H 0.8885 0.0754 0.34232 0.0
C46 C 0.92721 0.0942 0.38496 0.0
C47 C 0.17263 0.96522 0.42423 0.0
C48 C 0.24658 0.91921 0.40418 0.0
C49 C 0.09914 0.01416 0.39191 0.0
C50 C 0.10477 0.02137 0.33966 0.0
C51 C 0.18122 0.97843 0.31933 0.0
C52 C 0.25008 0.92643 0.3515 0.0
N53 N 1.02611 0.05911 0.41451 0.0
H54 H 1.01878 0.97789 0.49532 0.0
H55 H 0.16575 0.10682 0.65249 0.0
H56 H 0.90685 0.91761 0.6288 0.0
H57 H 0.30197 0.15251 0.62077 0.0
C58 C 0.27167 0.14491 0.57715 0.0
C59 C 1.024 0.98713 0.53732 0.0
C60 C 0.95263 0.93896 0.5572 0.0
C61 C 0.10441 0.04569 0.57135 0.0
C62 C 0.10786 0.06036 0.6257 0.0
C63 C 1.03303 0.01585 0.64548 0.0
C64 C 0.95769 0.95493 0.61153 0.0
N65 N 0.17833 0.08879 0.54889 0.0
H66 H 0.69399 0.48501 0.9698 0.0
H67 H 0.54249 0.56476 0.81538 0.0
H68 H 0.79258 0.39189 0.83261 0.0
H69 H 0.3896 0.58234 0.84968 0.0
C70 C 0.43462 0.60645 0.89085 0.0
C71 C 0.68518 0.48192 0.92733 0.0
C72 C 0.75157 0.43121 0.90545 0.0
C73 C 0.60654 0.52781 0.89486 0.0
C74 C 0.59961 0.5272 0.84035 0.0
C75 C 0.66815 0.47937 0.81798 0.0
C76 C 0.74236 0.43054 0.85043 0.0
N77 N 0.53972 0.57677 0.91881 0.0
H78 H 0.5337 0.49487 -0.00406 0.0
H79 H 0.68422 0.61495 0.15562 0.0
H80 H 0.41867 0.42909 0.12719 0.0
H81 H 0.82238 0.66101 0.12449 0.0
C82 C 0.79115 0.65597 0.0809 0.0
C83 C 0.53871 0.50226 0.0379 0.0
C84 C 0.4655 0.45374 0.05639 0.0
C85 C 0.62075 0.55855 0.07322 0.0
C86 C 0.62477 0.57034 0.12774 0.0
C87 C 0.54834 0.52527 0.14622 0.0
C88 C 0.47096 0.4668 0.11088 0.0
N89 N 0.69552 0.60241 0.05173 0.0
C90 C 0.27034 0.2656 0.0199 0.0
C91 C 0.33056 0.21879 -0.00789 0.0
H92 H 0.26074 0.38017 0.05947 0.0
C93 C 0.40939 0.25653 0.97109 0.0
H94 H 0.21025 0.23805 0.03727 0.0
C95 C 0.44243 0.33747 -0.01418 0.0
C96 C 0.39759 0.38172 0.02221 0.0
H97 H 0.457 0.22151 0.94947 0.0
H98 H 0.51268 0.36198 0.97381 0.0
C99 C 0.3023 0.34699 0.03407 0.0
C100 C 0.2478 0.77129 0.91248 0.0
C101 C 0.31239 0.80827 0.96337 0.0
H102 H 0.23743 0.67779 0.8492 0.0
C103 C 0.41011 0.77331 -0.00774 0.0
H104 H 0.17269 0.79739 0.88924 0.0
C105 C 0.447 0.70592 0.96958 0.0
C106 C 0.38721 0.67176 0.91733 0.0
H107 H 0.46122 0.80022 0.03178 0.0
H108 H 0.52512 0.68289 -0.00767 0.0
C109 C 0.28538 0.70349 0.8895 0.0
C110 C 0.83303 0.76344 0.96734 0.0
C111 C 0.89453 0.83426 -0.00485 0.0
H112 H 0.75429 0.65089 0.97257 0.0
C113 C 0.93851 0.84058 0.05142 0.0
H114 H 0.79793 0.75732 0.92387 0.0
C115 C 0.91116 0.77976 0.07969 0.0
C116 C 0.83995 0.71225 0.05177 0.0
H117 H 0.98468 0.89508 0.07359 0.0
H118 H 0.93891 0.78804 0.1233 0.0
C119 C 0.80662 0.70287 -0.00468 0.0
C120 C 0.82916 0.2664 -0.00497 0.0
C121 C 0.92433 0.23882 -0.01847 0.0
H122 H 0.70086 0.34898 -0.01797 0.0
C123 C 0.97604 0.28466 0.9516 0.0
H124 H 0.78701 0.23173 0.01761 0.0
C125 C 0.9252 0.35156 0.93016 0.0
C126 C 0.82204 0.37384 0.9385 0.0
H127 H 1.04816 0.264 0.93965 0.0
H128 H 0.96259 0.38256 0.90419 0.0
C129 C 0.77906 0.33346 0.97405 0.0
C130 C 0.90217 0.738 0.4761 0.0
C131 C 0.82171 0.70098 0.49648 0.0
H132 H 1.00432 0.84368 0.47789 0.0
C133 C 0.76059 0.74845 0.52343 0.0
H134 H 0.95086 0.70247 0.45535 0.0
C135 C 0.79217 0.83008 0.53696 0.0
C136 C 0.88727 0.8647 0.52485 0.0
H137 H 0.69905 0.72131 0.5402 0.0
H138 H 0.74959 0.86391 0.56159 0.0
C139 C 0.93397 0.81929 0.48977 0.0
C140 C 0.89584 0.25464 0.48912 0.0
C141 C 0.80085 0.29189 0.45991 0.0
H142 H 1.00982 0.1637 0.48866 0.0
C143 C 0.74029 0.25864 0.4074 0.0
H144 H 0.94394 0.27865 0.52981 0.0
C145 C 0.77917 0.19231 0.38346 0.0
C146 C 0.87813 0.15808 0.41193 0.0
H147 H 0.66736 0.28657 0.38386 0.0
H148 H 0.73439 0.1696 0.34212 0.0
C149 C 0.93381 0.18854 0.46549 0.0
C150 C 0.31706 0.24596 0.46146 0.0
C151 C 0.37616 0.31831 0.48787 0.0
H152 H 0.23986 0.13391 0.46894 0.0
C153 C 0.41544 0.3286 0.54435 0.0
H154 H 0.28514 0.23685 0.41789 0.0
C155 C 0.38759 0.26958 0.57382 0.0
C156 C 0.31973 0.20011 0.54702 0.0
H157 H 0.45826 0.38466 0.56562 0.0
H158 H 0.41245 0.28064 0.61732 0.0
C159 C 0.28971 0.18735 0.4907 0.0
C160 C 0.46641 0.76959 0.45157 0.0
C161 C 0.4073 0.71956 0.47621 0.0
H162 H 0.46291 0.87319 0.40987 0.0
C163 C 0.30697 0.7442 0.48594 0.0
H164 H 0.54267 0.75125 0.44246 0.0
C165 C 0.25991 0.81279 0.46619 0.0
C166 C 0.31159 0.85834 0.43603 0.0
H167 H 0.25901 0.70632 0.5043 0.0
H168 H 0.17781 0.82574 0.47056 0.0
C169 C 0.41898 0.83847 0.43166 0.0
C170 C 0.31205 0.0031 0.20684 0.0
C171 C 0.21572 0.00952 0.16258 0.0
H172 H 0.37671 -0.01043 0.29045 0.0
C173 C 0.10709 0.00673 0.17041 0.0
H174 H 0.39733 0.00531 0.20267 0.0
C175 C 0.09523 -0.00357 0.22115 0.0
C176 C 0.19186 -0.01084 0.26512 0.0
H177 H 1.03127 0.01261 0.13748 0.0
H178 H 1.01035 -0.00674 0.22578 0.0
C179 C 0.30027 -0.00676 0.25731 0.0
C180 C 0.92008 0.04193 0.76417 0.0
C181 C 1.01702 0.03245 0.80735 0.0
H182 H 0.85053 0.04541 0.67944 0.0
C183 C 0.12342 0.02694 0.7976 0.0
H184 H 0.83705 0.048 0.77018 0.0
C185 C 0.13085 0.0261 0.74503 0.0
C186 C 1.03203 0.0307 0.70185 0.0
H187 H 0.19971 0.02014 0.83007 0.0
H188 H 0.21233 0.01791 0.7378 0.0
C189 C 0.92755 0.04091 0.71213 0.0
C190 C 0.66392 0.41683 0.67422 0.0
C191 C 0.67616 0.49104 0.65591 0.0
H192 H 0.65132 0.35482 0.74048 0.0
C193 C 0.67973 0.56096 0.68969 0.0
H194 H 0.66247 0.36232 0.64868 0.0
C195 C 0.67345 0.55691 0.74182 0.0
C196 C 0.66512 0.48276 0.76118 0.0
H197 H 0.69098 0.61867 0.67628 0.0
H198 H 0.67972 0.61182 0.76773 0.0
C199 C 0.6587 0.41267 0.72665 0.0
C200 C 0.43136 0.54667 0.26324 0.0
C201 C 0.52293 0.52612 0.30532 0.0
H202 H 0.36955 0.5642 0.18014 0.0
C203 C 0.62944 0.51662 0.29644 0.0
H204 H 0.34889 0.55635 0.26901 0.0
C205 C 0.64117 0.52186 0.24506 0.0
C206 C 0.54669 0.53699 0.20248 0.0
H207 H 0.70163 0.50142 0.32829 0.0
H208 H 0.72164 0.50964 0.23787 0.0
C209 C 0.44315 0.55197 0.21245 0.0
loop_
_geom_bond_atom_site_label_1
_geom_bond_atom_site_label_2
_geom_bond_distance
_geom_bond_site_symmetry_2
_ccdc_geom_bond_type
O0 Mn1 2.162 1_654 S
O0 C14 1.242 1_554 S
Mn1 O0 2.162 1_456 S
Mn1 O4 2.160 1_545 S
Mn1 O5 2.221 1_556 S
Mn1 O7 2.163 1_556 S
Mn1 O9 2.160 . S
Mn1 O19 2.221 1_445 S
O2 Mn3 2.087 1_545 S
O2 C14 1.256 . S
Mn3 O2 2.087 1_565 S
Mn3 O10 2.089 1_565 S
Mn3 O19 2.290 . S
Mn3 O20 2.251 . S
O4 Mn1 2.160 1_565 S
O4 C15 1.239 1_556 S
O5 Mn1 2.221 1_554 S
O5 Mn6 2.290 . S
O5 C16 1.278 . S
Mn6 O5 2.290 . S
Mn6 O8 2.089 1_545 S
Mn6 O11 2.251 . S
Mn6 O12 2.087 . S
O7 Mn1 2.163 1_554 S
O7 C17 1.244 . S
O8 Mn6 2.089 1_565 S
O8 C15 1.256 . S
O9 Mn1 2.160 . S
O9 C18 1.239 . S
O10 Mn3 2.089 1_545 S
O10 C18 1.256 1_655 S
O11 Mn6 2.251 . S
O11 C16 1.241 . S
O12 Mn6 2.087 . S
O12 C17 1.256 . S
C13 O19 1.278 . S
C13 O20 1.241 . S
C14 O0 1.242 1_556 S
C14 O2 1.256 . S
C15 O4 1.239 1_554 S
C15 O8 1.256 . S
C16 O5 1.278 . S
C16 O11 1.241 . S
C17 O7 1.244 . S
C17 O12 1.256 . S
C18 O9 1.239 . S
C18 O10 1.256 1_455 S
O19 Mn1 2.221 1_665 S
O19 Mn3 2.290 . S
O19 C13 1.278 . S
O20 Mn3 2.251 . S
O20 C13 1.241 . S
O21 Mn22 2.163 . S
O21 C35 1.244 . S
Mn22 O21 2.163 . S
Mn22 O25 2.160 . S
Mn22 O26 2.221 . S
Mn22 O28 2.163 . S
Mn22 O30 2.160 . S
Mn22 O40 2.221 . S
O23 Mn24 2.087 . S
O23 C35 1.256 . S
Mn24 O23 2.087 . S
Mn24 O31 2.089 . S
Mn24 O40 2.290 . S
Mn24 O41 2.251 . S
O25 Mn22 2.160 . S
O25 C36 1.239 . S
O26 Mn22 2.221 . S
O26 Mn27 2.290 . S
O26 C37 1.278 . S
Mn27 O26 2.290 . S
Mn27 O29 2.089 . S
Mn27 O32 2.251 . S
Mn27 O33 2.087 . S
O28 Mn22 2.163 . S
O28 C38 1.244 . S
O29 Mn27 2.089 . S
O29 C36 1.256 . S
O30 Mn22 2.160 . S
O30 C39 1.239 . S
O31 Mn24 2.089 . S
O31 C39 1.256 . S
O32 Mn27 2.251 . S
O32 C37 1.241 . S
O33 Mn27 2.087 . S
O33 C38 1.256 . S
C34 O40 1.278 . S
C34 O41 1.241 . S
C35 O21 1.244 . S
C35 O23 1.256 . S
C36 O25 1.239 . S
C36 O29 1.256 . S
C37 O26 1.278 . S
C37 O32 1.241 . S
C38 O28 1.244 . S
C38 O33 1.256 . S
C39 O30 1.239 . S
C39 O31 1.256 . S
O40 Mn22 2.221 . S
O40 Mn24 2.290 . S
O40 C34 1.278 . S
O41 Mn24 2.251 . S
O41 C34 1.241 . S
H42 C47 0.930 . S
H43 C50 0.926 1_655 S
H44 C52 0.930 . S
H45 C46 1.016 . S
C46 H45 1.016 . S
C46 N53 1.286 . S
C47 H42 0.930 . S
C47 C48 1.397 . S
C47 C49 1.361 1_565 S
C48 C47 1.397 . S
C48 C52 1.390 . S
C49 C47 1.361 1_545 S
C49 C50 1.393 . S
C49 N53 1.413 1_455 S
C50 H43 0.926 1_455 S
C50 C49 1.393 . S
C50 C51 1.399 1_545 S
C51 C50 1.399 1_565 S
C51 C52 1.381 . S
C52 H44 0.930 . S
C52 C48 1.390 . S
C52 C51 1.381 . S
N53 C46 1.286 . S
N53 C49 1.413 1_655 S
H54 C59 0.930 1_565 S
H55 C62 0.930 . S
H56 C64 0.930 . S
H57 C58 1.016 . S
C58 H57 1.016 . S
C58 N65 1.286 . S
C59 H54 0.930 1_545 S
C59 C60 1.397 1_545 S
C59 C61 1.361 1_655 S
C60 C59 1.397 1_565 S
C60 C64 1.390 . S
C61 C59 1.361 1_455 S
C61 C62 1.393 . S
C61 N65 1.413 . S
C62 H55 0.930 . S
C62 C61 1.393 . S
C62 C63 1.399 1_455 S
C63 C62 1.399 1_655 S
C63 C64 1.381 1_545 S
C64 H56 0.930 . S
C64 C60 1.390 . S
C64 C63 1.381 1_565 S
N65 C58 1.286 . S
N65 C61 1.413 . S
H66 C71 0.930 1_554 S
H67 C74 0.930 . S
H68 C76 0.930 . S
H69 C70 1.016 . S
C70 H69 1.016 . S
C70 N77 1.286 . S
C71 H66 0.930 1_556 S
C71 C72 1.397 . S
C71 C73 1.361 . S
C72 C71 1.397 . S
C72 C76 1.390 . S
C73 C71 1.361 . S
C73 C74 1.393 . S
C73 N77 1.413 . S
C74 H67 0.930 . S
C74 C73 1.393 . S
C74 C75 1.399 . S
C75 C74 1.399 . S
C75 C76 1.381 . S
C76 H68 0.930 . S
C76 C72 1.390 . S
C76 C75 1.381 . S
N77 C70 1.286 . S
N77 C73 1.413 . S
H78 C83 0.930 1_556 S
H79 C86 0.930 . S
H80 C88 0.930 . S
H81 C82 1.016 . S
C82 H81 1.016 . S
C82 N89 1.286 . S
C83 H78 0.930 1_554 S
C83 C84 1.397 . S
C83 C85 1.361 . S
C84 C83 1.397 . S
C84 C88 1.390 . S
C85 C83 1.361 . S
C85 C86 1.393 . S
C85 N89 1.413 . S
C86 H79 0.930 . S
C86 C85 1.393 . S
C86 C87 1.399 . S
C87 C86 1.399 . S
C87 C88 1.381 . S
C88 H80 0.930 . S
C88 C84 1.390 . S
C88 C87 1.381 . S
N89 C82 1.286 . S
N89 C85 1.413 . S
C90 C91 1.387 . S
C90 H94 0.950 . S
C90 C99 1.390 . S
C91 C90 1.387 . S
C91 C93 1.387 1_554 S
H92 C99 0.950 . S
C93 C91 1.387 1_556 S
C93 C95 1.390 . S
C93 H97 0.950 . S
H94 C90 0.950 . S
C95 C93 1.390 . S
C95 C96 1.387 1_556 S
C95 H98 0.950 . S
C96 C95 1.387 1_554 S
C96 C99 1.387 . S
H97 C93 0.950 . S
H98 C95 0.950 . S
C99 C90 1.390 . S
C99 H92 0.950 . S
C99 C96 1.387 . S
C100 C101 1.387 1_556 S
C100 H104 0.950 . S
C100 C109 1.390 . S
C101 C100 1.387 1_554 S
C101 C103 1.387 . S
H102 C109 0.950 . S
C103 C101 1.387 . S
C103 C105 1.390 . S
C103 H107 0.950 . S
H104 C100 0.950 . S
C105 C103 1.390 . S
C105 C106 1.387 . S
C105 H108 0.950 . S
C106 C105 1.387 . S
C106 C109 1.387 1_554 S
H107 C103 0.950 . S
H108 C105 0.950 . S
C109 C100 1.390 . S
C109 H102 0.950 . S
C109 C106 1.387 1_556 S
C110 C111 1.387 1_556 S
C110 H114 0.950 . S
C110 C119 1.390 . S
C111 C110 1.387 1_554 S
C111 C113 1.387 . S
H112 C119 0.950 . S
C113 C111 1.387 . S
C113 C115 1.390 . S
C113 H117 0.950 . S
H114 C110 0.950 . S
C115 C113 1.390 . S
C115 C116 1.387 . S
C115 H118 0.950 . S
C116 C115 1.387 . S
C116 C119 1.387 1_554 S
H117 C113 0.950 . S
H118 C115 0.950 . S
C119 C110 1.390 . S
C119 H112 0.950 . S
C119 C116 1.387 1_556 S
C120 C121 1.387 1_554 S
C120 H124 0.950 . S
C120 C129 1.390 . S
C121 C120 1.387 1_556 S
C121 C123 1.387 . S
H122 C129 0.950 . S
C123 C121 1.387 . S
C123 C125 1.390 . S
C123 H127 0.950 . S
H124 C120 0.950 . S
C125 C123 1.390 . S
C125 C126 1.387 . S
C125 H128 0.950 . S
C126 C125 1.387 . S
C126 C129 1.387 1_556 S
H127 C123 0.950 . S
H128 C125 0.950 . S
C129 C120 1.390 . S
C129 H122 0.950 . S
C129 C126 1.387 1_554 S
C130 C131 1.387 . S
C130 H134 0.950 . S
C130 C139 1.390 . S
C131 C130 1.387 . S
C131 C133 1.387 . S
H132 C139 0.950 . S
C133 C131 1.387 . S
C133 C135 1.390 . S
C133 H137 0.950 . S
H134 C130 0.950 . S
C135 C133 1.390 . S
C135 C136 1.387 . S
C135 H138 0.950 . S
C136 C135 1.387 . S
C136 C139 1.387 . S
H137 C133 0.950 . S
H138 C135 0.950 . S
C139 C130 1.390 . S
C139 H132 0.950 . S
C139 C136 1.387 . S
C140 C141 1.387 . S
C140 H144 0.950 . S
C140 C149 1.390 . S
C141 C140 1.387 . S
C141 C143 1.387 . S
H142 C149 0.950 1_455 S
C143 C141 1.387 . S
C143 C145 1.390 . S
C143 H147 0.950 . S
H144 C140 0.950 . S
C145 C143 1.390 . S
C145 C146 1.387 . S
C145 H148 0.950 . S
C146 C145 1.387 . S
C146 C149 1.387 . S
H147 C143 0.950 . S
H148 C145 0.950 . S
C149 C140 1.390 . S
C149 H142 0.950 1_655 S
C149 C146 1.387 . S
C150 C151 1.387 . S
C150 H154 0.950 . S
C150 C159 1.390 . S
C151 C150 1.387 . S
C151 C153 1.387 . S
H152 C159 0.950 . S
C153 C151 1.387 . S
C153 C155 1.390 . S
C153 H157 0.950 . S
H154 C150 0.950 . S
C155 C153 1.390 . S
C155 C156 1.387 . S
C155 H158 0.950 . S
C156 C155 1.387 . S
C156 C159 1.387 . S
H157 C153 0.950 . S
H158 C155 0.950 . S
C159 C150 1.390 . S
C159 H152 0.950 . S
C159 C156 1.387 . S
C160 C161 1.387 . S
C160 H164 0.950 . S
C160 C169 1.390 . S
C161 C160 1.387 . S
C161 C163 1.387 . S
H162 C169 0.950 . S
C163 C161 1.387 . S
C163 C165 1.390 . S
C163 H167 0.950 . S
H164 C160 0.950 . S
C165 C163 1.390 . S
C165 C166 1.387 . S
C165 H168 0.950 . S
C166 C165 1.387 . S
C166 C169 1.387 . S
H167 C163 0.950 . S
H168 C165 0.950 . S
C169 C160 1.390 . S
C169 H162 0.950 . S
C169 C166 1.387 . S
C170 C171 1.387 . S
C170 H174 0.950 . S
C170 C179 1.390 . S
C171 C170 1.387 . S
C171 C173 1.387 1_565 S
H172 C179 0.950 . S
C173 C171 1.387 1_545 S
C173 C175 1.390 . S
C173 H177 0.950 1_455 S
H174 C170 0.950 . S
C175 C173 1.390 . S
C175 C176 1.387 1_545 S
C175 H178 0.950 1_455 S
C176 C175 1.387 1_565 S
C176 C179 1.387 . S
H177 C173 0.950 1_655 S
H178 C175 0.950 1_655 S
C179 C170 1.390 . S
C179 H172 0.950 . S
C179 C176 1.387 . S
C180 C181 1.387 1_655 S
C180 H184 0.950 . S
C180 C189 1.390 . S
C181 C180 1.387 1_455 S
C181 C183 1.387 1_545 S
H182 C189 0.950 . S
C183 C181 1.387 1_565 S
C183 C185 1.390 . S
C183 H187 0.950 . S
H184 C180 0.950 . S
C185 C183 1.390 . S
C185 C186 1.387 1_465 S
C185 H188 0.950 . S
C186 C185 1.387 1_645 S
C186 C189 1.387 . S
H187 C183 0.950 . S
H188 C185 0.950 . S
C189 C180 1.390 . S
C189 H182 0.950 . S
C189 C186 1.387 . S
C190 C191 1.387 . S
C190 H194 0.950 . S
C190 C199 1.390 . S
C191 C190 1.387 . S
C191 C193 1.387 . S
H192 C199 0.950 . S
C193 C191 1.387 . S
C193 C195 1.390 . S
C193 H197 0.950 . S
H194 C190 0.950 . S
C195 C193 1.390 . S
C195 C196 1.387 . S
C195 H198 0.950 . S
C196 C195 1.387 . S
C196 C199 1.387 . S
H197 C193 0.950 . S
H198 C195 0.950 . S
C199 C190 1.390 . S
C199 H192 0.950 . S
C199 C196 1.387 . S
C200 C201 1.387 . S
C200 H204 0.950 . S
C200 C209 1.390 . S
C201 C200 1.387 . S
C201 C203 1.387 . S
H202 C209 0.950 . S
C203 C201 1.387 . S
C203 C205 1.390 . S
C203 H207 0.950 . S
H204 C200 0.950 . S
C205 C203 1.390 . S
C205 C206 1.387 . S
C205 H208 0.950 . S
C206 C205 1.387 . S
C206 C209 1.387 . S
H207 C203 0.950 . S
H208 C205 0.950 . S
C209 C200 1.390 . S
C209 H202 0.950 . S
C209 C206 1.387 . S
C96 C84 1.471 . S
C91 C16 1.374 . S
C101 C15 1.475 . S
C106 C70 1.440 1_554 S
C111 C13 1.274 1_554 S
C116 C82 1.445 . S
C121 C14 1.440 . S
C126 C72 1.469 . S
C131 C37 1.371 . S
C136 C60 1.473 . S
C141 C36 1.474 . S
C146 C46 1.442 . S
C156 C58 1.445 . S
C151 C34 1.274 . S
C166 C48 1.469 . S
C161 C35 1.442 . S
C171 C17 1.580 1_565 S
C176 C51 1.615 . S
C181 C18 1.400 . S
C186 C63 1.433 . S
C196 C75 1.615 . S
C191 C38 1.580 . S
C201 C39 1.402 . S
C206 C87 1.434 . S
