# Generated by pormake.
# Topology nom, (4,4)-cn, num edge types: 1
# Building blocks:
#     Node 0, Type 0, BuildingBlock: KUFVIS_clean_linker_0, # of connection points: 4
#     Node 1, Type 0, BuildingBlock: KUFVIS_clean_linker_0, # of connection points: 4
#     Node 2, Type 0, BuildingBlock: KUFVIS_clean_linker_0, # of connection points: 4
#     Node 3, Type 0, BuildingBlock: KUFVIS_clean_linker_0, # of connection points: 4
#     Node 4, Type 0, BuildingBlock: KUFVIS_clean_linker_0, # of connection points: 4
#     Node 5, Type 0, BuildingBlock: KUFVIS_clean_linker_0, # of connection points: 4
#     Node 6, Type 1, BuildingBlock: GALJAG_clean_sbu_0, # of connection points: 4
#     Node 7, Type 1, BuildingBlock: GALJAG_clean_sbu_0, # of connection points: 4
#     Node 8, Type 1, BuildingBlock: GALJAG_clean_sbu_0, # of connection points: 4
#     Node 9, Type 1, BuildingBlock: GALJAG_clean_sbu_0, # of connection points: 4
#     Node 10, Type 1, BuildingBlock: GALJAG_clean_sbu_0, # of connection points: 4
#     Node 11, Type 1, BuildingBlock: GALJAG_clean_sbu_0, # of connection points: 4
#     Edge 12, Type (0, 1), None
#     Edge 13, Type (0, 1), None
#     Edge 14, Type (0, 1), None
#     Edge 15, Type (0, 1), None
#     Edge 16, Type (0, 1), None
#     Edge 17, Type (0, 1), None
#     Edge 18, Type (0, 1), None
#     Edge 19, Type (0, 1), None
#     Edge 20, Type (0, 1), None
#     Edge 21, Type (0, 1), None
#     Edge 22, Type (0, 1), None
#     Edge 23, Type (0, 1), None
#     Edge 24, Type (0, 1), None
#     Edge 25, Type (0, 1), None
#     Edge 26, Type (0, 1), None
#     Edge 27, Type (0, 1), None
#     Edge 28, Type (0, 1), None
#     Edge 29, Type (0, 1), None
#     Edge 30, Type (0, 1), None
#     Edge 31, Type (0, 1), None
#     Edge 32, Type (0, 1), None
#     Edge 33, Type (0, 1), None
#     Edge 34, Type (0, 1), None
#     Edge 35, Type (0, 1), None
# Relax obj value: 0.012
# Max RMSD: 0.070
# Mean RMSD: 0.063
data_MOF--net-nom--node1-GALJAG_clean_sbu_0--node2-KUFVIS_clean_linker_0--edge1-none
_symmetry_space_group_name_H-M    P1
_symmetry_Int_Tables_number       1
_symmetry_cell_setting            triclinic
loop_
_symmetry_equiv_pos_as_xyz
'x, y, z'
_cell_length_a     20.044637
_cell_length_b     20.025093
_cell_length_c     23.181223
_cell_angle_alpha  90.002936
_cell_angle_beta   90.000277
_cell_angle_gamma 120.07148
loop_
_atom_site_label
_atom_site_type_symbol
_atom_site_fract_x
_atom_site_fract_y
_atom_site_fract_z
_atom_type_partial_charge
H0 H 0.30844 0.67375 0.3711 0.0
H1 H 0.15967 0.65158 0.23063 0.0
H2 H 0.06447 0.54261 0.39547 0.0
H3 H 0.96382 0.55368 0.3619 0.0
H4 H 0.81477 0.42784 0.22119 0.0
H5 H 0.05867 0.53995 0.19696 0.0
C6 C 0.2508 0.64993 0.35346 0.0
C7 C 0.1875 0.60767 0.38944 0.0
C8 C 0.24121 0.66675 0.29661 0.0
C9 C 0.16652 0.6378 0.27461 0.0
C10 C 0.10129 0.59012 0.30899 0.0
C11 C 0.1128 0.57743 0.36738 0.0
C12 C 1.02202 0.55062 0.28348 0.0
C13 C 0.95687 0.53319 0.31787 0.0
C14 C 0.88214 0.48771 0.2958 0.0
C15 C 0.87244 0.46148 0.23888 0.0
C16 C 0.93569 0.48241 0.20292 0.0
C17 C 1.01041 0.52657 0.22504 0.0
H18 H 0.67926 0.29213 0.53782 0.0
H19 H 0.55315 0.14303 0.39718 0.0
H20 H 0.5668 0.04797 0.56208 0.0
H21 H 0.45513 0.94699 0.52843 0.0
H22 H 0.43253 0.79799 0.38788 0.0
H23 H 0.564 0.04219 0.36358 0.0
C24 C 0.64554 0.23441 0.52015 0.0
C25 C 0.62454 0.17108 0.5561 0.0
C26 C 0.61927 0.22475 0.46325 0.0
C27 C 0.57368 0.14996 0.4412 0.0
C28 C 0.55616 0.08472 0.47558 0.0
C29 C 0.58025 0.0963 0.534 0.0
C30 C 0.51654 1.00537 0.45006 0.0
C31 C 0.46883 0.9401 0.48444 0.0
C32 C 0.43974 0.86533 0.46241 0.0
C33 C 0.45645 0.8557 0.40554 0.0
C34 C 0.49876 0.91906 0.36958 0.0
C35 C 0.52914 0.99382 0.39166 0.0
H36 H 0.67948 0.41622 0.55458 0.0
H37 H 0.55303 0.43851 0.69509 0.0
H38 H 0.56685 0.5474 0.53023 0.0
H39 H 0.45515 0.53637 0.56381 0.0
H40 H 0.43221 0.66234 0.70447 0.0
H41 H 0.56379 0.55015 0.72874 0.0
C42 C 0.6457 0.44005 0.57223 0.0
C43 C 0.6247 0.4823 0.53625 0.0
C44 C 0.61932 0.42328 0.62909 0.0
C45 C 0.57365 0.45226 0.6511 0.0
C46 C 0.55614 0.49993 0.61672 0.0
C47 C 0.58032 0.51258 0.55831 0.0
C48 C 0.51644 0.53946 0.64223 0.0
C49 C 0.46875 0.55689 0.60784 0.0
C50 C 0.43958 0.6024 0.62989 0.0
C51 C 0.45617 0.62867 0.6868 0.0
C52 C 0.49846 0.60774 0.72277 0.0
C53 C 0.52894 0.56355 0.70066 0.0
H54 H 0.30849 0.66223 0.72119 0.0
H55 H 0.15945 0.53641 0.86189 0.0
H56 H 0.06459 0.55013 0.69696 0.0
H57 H 0.96359 0.43851 0.73063 0.0
H58 H 0.81483 0.41633 0.87111 0.0
H59 H 0.05881 0.54748 0.89547 0.0
C60 C 0.25082 0.62859 0.73888 0.0
C61 C 0.18758 0.60767 0.70292 0.0
C62 C 0.24113 0.60237 0.79579 0.0
C63 C 0.1664 0.5569 0.81786 0.0
C64 C 0.10125 0.53946 0.78347 0.0
C65 C 0.11286 0.56352 0.72503 0.0
C66 C 1.02198 0.49998 0.80899 0.0
C67 C 0.95674 0.45229 0.77461 0.0
C68 C 0.88206 0.42334 0.79661 0.0
C69 C 0.87248 0.44016 0.85347 0.0
C70 C 0.93579 0.48242 0.88945 0.0
C71 C 1.01047 0.51266 0.86738 0.0
H72 H 0.444 0.79798 0.03783 0.0
H73 H 0.57006 0.94706 0.89718 0.0
H74 H 0.55642 0.04215 0.06208 0.0
H75 H 0.66808 0.14312 0.02844 0.0
H76 H 0.69071 0.2921 0.88788 0.0
H77 H 0.55921 0.04791 0.86358 0.0
C78 C 0.47771 0.85569 0.02015 0.0
C79 C 0.49869 0.91903 0.05611 0.0
C80 C 0.50397 0.86535 0.96325 0.0
C81 C 0.54954 0.94014 0.9412 0.0
C82 C 0.56705 1.00539 -0.02442 0.0
C83 C 0.54296 0.99381 0.034 0.0
C84 C 0.60667 0.08473 0.95006 0.0
C85 C 0.65439 0.15 -0.01556 0.0
C86 C 0.68349 0.22478 0.96241 0.0
C87 C 0.66678 0.23439 0.90554 0.0
C88 C 0.62446 0.17104 0.86957 0.0
C89 C 0.59407 0.09627 0.89166 0.0
H90 H 0.44381 0.6739 0.05457 0.0
H91 H 0.57024 0.6516 0.19509 0.0
H92 H 0.55644 0.54271 0.03023 0.0
H93 H 0.66814 0.55375 0.06382 0.0
H94 H 0.69109 0.4278 0.20447 0.0
H95 H 0.55949 0.53997 0.22875 0.0
C96 C 0.47759 0.65006 0.07222 0.0
C97 C 0.49859 0.60781 0.03624 0.0
C98 C 0.50396 0.66683 0.12909 0.0
C99 C 0.54963 0.63786 0.1511 0.0
C100 C 0.56714 0.59018 0.11672 0.0
C101 C 0.54297 0.57753 0.05831 0.0
C102 C 0.60684 0.55066 0.14223 0.0
C103 C 0.65454 0.53323 0.10784 0.0
C104 C 0.68372 0.48772 0.1299 0.0
C105 C 0.66713 0.46146 0.1868 0.0
C106 C 0.62483 0.48239 0.22277 0.0
C107 C 0.59435 0.52658 0.20066 0.0
In108 In 0.67677 0.43035 0.37952 0.0
O109 O 0.8081 0.51028 0.36782 0.0
O110 O 0.74983 0.40617 0.31929 0.0
C111 C 0.64338 0.48499 0.47469 0.0
C112 C 0.6222 0.46376 0.28433 0.0
C113 C 0.64012 0.29454 0.42897 0.0
O114 O 0.71166 0.50655 0.4591 0.0
O115 O 0.5921 0.44069 0.43948 0.0
O116 O 0.59684 0.29891 0.39121 0.0
O117 O 0.70082 0.35717 0.43978 0.0
C118 C 0.81243 0.4669 0.33009 0.0
O119 O 0.60061 0.39541 0.29996 0.0
O120 O 0.66653 0.5151 0.3195 0.0
In121 In 0.29158 0.65968 0.54616 0.0
O122 O 0.34292 0.57979 0.55788 0.0
O123 O 0.3889 0.68393 0.60638 0.0
C124 C 0.20348 0.60497 0.45099 0.0
C125 C 0.20358 0.62628 0.64136 0.0
C126 C 0.39079 0.79551 0.4967 0.0
O127 O 0.25025 0.5835 0.46658 0.0
O128 O 0.19648 0.64921 0.48622 0.0
O129 O 0.34311 0.79109 0.53445 0.0
O130 O 0.38887 0.73292 0.48589 0.0
C131 C 0.39069 0.62319 0.5956 0.0
O132 O 0.25041 0.69463 0.62571 0.0
O133 O 0.19651 0.57493 0.60619 0.0
In134 In 0.67656 0.27517 0.71285 0.0
O135 O 0.80781 0.3266 0.7246 0.0
O136 O 0.74981 0.37258 0.77309 0.0
C137 C 0.64317 0.18708 0.61766 0.0
C138 C 0.6218 0.18703 0.80802 0.0
C139 C 0.6401 0.37436 0.66339 0.0
O140 O 0.71145 0.23398 0.63329 0.0
O141 O 0.59188 0.17997 0.65285 0.0
O142 O 0.59675 0.32655 0.7011 0.0
O143 O 0.7008 0.37258 0.65263 0.0
C144 C 0.8123 0.37439 0.76233 0.0
O145 O 0.60043 0.23391 0.79242 0.0
O146 O 0.66597 0.17995 0.77281 0.0
In147 In 0.44651 0.65975 0.87952 0.0
O148 O 0.31518 0.57982 0.86781 0.0
O149 O 0.37343 0.68392 0.81928 0.0
C150 C 0.47992 0.60512 -0.02531 0.0
C151 C 0.50109 0.62637 0.78433 0.0
C152 C 0.48312 0.79556 0.92897 0.0
O153 O 0.41163 0.58355 0.95909 0.0
O154 O 0.53119 0.64943 0.93948 0.0
O155 O 0.52641 0.79119 0.89122 0.0
O156 O 0.42244 0.73292 0.93978 0.0
C157 C 0.31084 0.62318 0.83008 0.0
O158 O 0.52267 0.69471 0.79997 0.0
O159 O 0.45676 0.57502 0.81949 0.0
In160 In 0.8317 0.43042 0.04616 0.0
O161 O 0.87285 0.39546 0.12571 0.0
O162 O 0.92677 0.51516 0.1062 0.0
C163 C 0.73246 0.29459 -0.00331 0.0
C164 C 0.7326 0.46694 0.0956 0.0
C165 C 0.9198 0.48512 0.951 0.0
O166 O 0.78014 0.29901 0.03444 0.0
O167 O 0.73439 0.35719 -0.01411 0.0
O168 O 0.87305 0.50662 0.96659 0.0
O169 O 0.92678 0.44087 -0.01378 0.0
C170 C 0.91968 0.4638 0.14136 0.0
O171 O 0.78037 0.51033 0.05789 0.0
O172 O 0.73439 0.4062 0.10638 0.0
In173 In 0.44669 0.81493 0.21284 0.0
O174 O 0.52652 0.76358 0.20109 0.0
O175 O 0.42247 0.71751 0.15262 0.0
C176 C 0.50143 0.90306 0.30802 0.0
C177 C 0.48007 0.90302 0.11766 0.0
C178 C 0.31097 0.7157 0.26232 0.0
O179 O 0.52281 0.85619 0.29242 0.0
O180 O 0.45727 0.91014 0.27281 0.0
O181 O 0.31544 0.76347 0.22459 0.0
O182 O 0.37346 0.71752 0.27309 0.0
C183 C 0.48317 0.71575 0.16338 0.0
O184 O 0.41179 0.85612 0.13328 0.0
O185 O 0.53136 0.91014 0.15285 0.0
loop_
_geom_bond_atom_site_label_1
_geom_bond_atom_site_label_2
_geom_bond_distance
_geom_bond_site_symmetry_2
_ccdc_geom_bond_type
H0 C6 0.930 . S
H1 C9 0.931 . S
H2 C11 0.931 . S
H3 C13 0.930 . S
H4 C15 0.930 . S
H5 C17 0.931 . S
C6 H0 0.930 . S
C6 C7 1.380 . S
C6 C8 1.394 . S
C7 C6 1.380 . S
C7 C11 1.382 . S
C8 C6 1.394 . S
C8 C9 1.400 . S
C9 H1 0.931 . S
C9 C8 1.400 . S
C9 C10 1.375 . S
C10 C9 1.375 . S
C10 C11 1.415 . S
C10 C12 1.501 1_455 S
C11 H2 0.931 . S
C11 C7 1.382 . S
C11 C10 1.415 . S
C12 C10 1.501 1_655 S
C12 C13 1.384 . S
C12 C17 1.408 . S
C13 H3 0.930 . S
C13 C12 1.384 . S
C13 C14 1.389 . S
C14 C13 1.389 . S
C14 C15 1.405 . S
C15 H4 0.930 . S
C15 C14 1.405 . S
C15 C16 1.364 . S
C16 C15 1.364 . S
C16 C17 1.400 . S
C17 H5 0.931 . S
C17 C12 1.408 . S
C17 C16 1.400 . S
H18 C24 0.930 . S
H19 C27 0.931 . S
H20 C29 0.931 . S
H21 C31 0.930 . S
H22 C33 0.930 . S
H23 C35 0.931 . S
C24 H18 0.930 . S
C24 C25 1.380 . S
C24 C26 1.394 . S
C25 C24 1.380 . S
C25 C29 1.382 . S
C26 C24 1.394 . S
C26 C27 1.400 . S
C27 H19 0.931 . S
C27 C26 1.400 . S
C27 C28 1.375 . S
C28 C27 1.375 . S
C28 C29 1.415 . S
C28 C30 1.501 1_545 S
C29 H20 0.931 . S
C29 C25 1.382 . S
C29 C28 1.415 . S
C30 C28 1.501 1_565 S
C30 C31 1.384 . S
C30 C35 1.408 . S
C31 H21 0.930 . S
C31 C30 1.384 . S
C31 C32 1.389 . S
C32 C31 1.389 . S
C32 C33 1.405 . S
C33 H22 0.930 . S
C33 C32 1.405 . S
C33 C34 1.364 . S
C34 C33 1.364 . S
C34 C35 1.400 . S
C35 H23 0.931 . S
C35 C30 1.408 . S
C35 C34 1.400 . S
H36 C42 0.930 . S
H37 C45 0.931 . S
H38 C47 0.931 . S
H39 C49 0.930 . S
H40 C51 0.930 . S
H41 C53 0.931 . S
C42 H36 0.930 . S
C42 C43 1.380 . S
C42 C44 1.394 . S
C43 C42 1.380 . S
C43 C47 1.382 . S
C44 C42 1.394 . S
C44 C45 1.400 . S
C45 H37 0.931 . S
C45 C44 1.400 . S
C45 C46 1.375 . S
C46 C45 1.375 . S
C46 C47 1.415 . S
C46 C48 1.501 . S
C47 H38 0.931 . S
C47 C43 1.382 . S
C47 C46 1.415 . S
C48 C46 1.501 . S
C48 C49 1.384 . S
C48 C53 1.408 . S
C49 H39 0.930 . S
C49 C48 1.384 . S
C49 C50 1.389 . S
C50 C49 1.389 . S
C50 C51 1.405 . S
C51 H40 0.930 . S
C51 C50 1.405 . S
C51 C52 1.364 . S
C52 C51 1.364 . S
C52 C53 1.400 . S
C53 H41 0.931 . S
C53 C48 1.408 . S
C53 C52 1.400 . S
H54 C60 0.930 . S
H55 C63 0.931 . S
H56 C65 0.931 . S
H57 C67 0.930 . S
H58 C69 0.930 . S
H59 C71 0.931 . S
C60 H54 0.930 . S
C60 C61 1.380 . S
C60 C62 1.394 . S
C61 C60 1.380 . S
C61 C65 1.382 . S
C62 C60 1.394 . S
C62 C63 1.400 . S
C63 H55 0.931 . S
C63 C62 1.400 . S
C63 C64 1.375 . S
C64 C63 1.375 . S
C64 C65 1.415 . S
C64 C66 1.501 1_455 S
C65 H56 0.931 . S
C65 C61 1.382 . S
C65 C64 1.415 . S
C66 C64 1.501 1_655 S
C66 C67 1.384 . S
C66 C71 1.408 . S
C67 H57 0.930 . S
C67 C66 1.384 . S
C67 C68 1.389 . S
C68 C67 1.389 . S
C68 C69 1.405 . S
C69 H58 0.930 . S
C69 C68 1.405 . S
C69 C70 1.364 . S
C70 C69 1.364 . S
C70 C71 1.400 . S
C71 H59 0.931 . S
C71 C66 1.408 . S
C71 C70 1.400 . S
H72 C78 0.930 . S
H73 C81 0.931 . S
H74 C83 0.931 . S
H75 C85 0.930 . S
H76 C87 0.930 . S
H77 C89 0.931 . S
C78 H72 0.930 . S
C78 C79 1.380 . S
C78 C80 1.394 1_554 S
C79 C78 1.380 . S
C79 C83 1.382 . S
C80 C78 1.394 1_556 S
C80 C81 1.400 . S
C81 H73 0.931 . S
C81 C80 1.400 . S
C81 C82 1.378 . S
C82 C81 1.378 . S
C82 C83 1.409 1_556 S
C82 C84 1.502 1_565 S
C83 H74 0.931 . S
C83 C79 1.382 . S
C83 C82 1.409 1_554 S
C84 C82 1.502 1_545 S
C84 C85 1.384 1_556 S
C84 C89 1.408 . S
C85 H75 0.930 . S
C85 C84 1.384 1_554 S
C85 C86 1.389 . S
C86 C85 1.389 . S
C86 C87 1.405 1_554 S
C87 H76 0.930 . S
C87 C86 1.405 1_556 S
C87 C88 1.364 . S
C88 C87 1.364 . S
C88 C89 1.400 . S
C89 H77 0.931 . S
C89 C84 1.408 . S
C89 C88 1.400 . S
H90 C96 0.930 . S
H91 C99 0.931 . S
H92 C101 0.931 . S
H93 C103 0.930 . S
H94 C105 0.930 . S
H95 C107 0.931 . S
C96 H90 0.930 . S
C96 C97 1.380 . S
C96 C98 1.394 . S
C97 C96 1.380 . S
C97 C101 1.382 . S
C98 C96 1.394 . S
C98 C99 1.400 . S
C99 H91 0.931 . S
C99 C98 1.400 . S
C99 C100 1.375 . S
C100 C99 1.375 . S
C100 C101 1.415 . S
C100 C102 1.501 . S
C101 H92 0.931 . S
C101 C97 1.382 . S
C101 C100 1.415 . S
C102 C100 1.501 . S
C102 C103 1.384 . S
C102 C107 1.408 . S
C103 H93 0.930 . S
C103 C102 1.384 . S
C103 C104 1.389 . S
C104 C103 1.389 . S
C104 C105 1.405 . S
C105 H94 0.930 . S
C105 C104 1.405 . S
C105 C106 1.364 . S
C106 C105 1.364 . S
C106 C107 1.400 . S
C107 H95 0.931 . S
C107 C102 1.408 . S
C107 C106 1.400 . S
In108 O109 2.294 . S
In108 O110 2.326 . S
In108 O114 2.266 . S
In108 O115 2.326 . S
In108 O116 2.266 . S
In108 O117 2.326 . S
In108 O119 2.294 . S
In108 O120 2.326 . S
O109 In108 2.294 . S
O109 C118 1.240 . S
O110 In108 2.326 . S
O110 C118 1.252 . S
C111 O114 1.252 . S
C111 O115 1.260 . S
C112 O119 1.240 . S
C112 O120 1.252 . S
C113 O116 1.252 . S
C113 O117 1.260 . S
O114 In108 2.266 . S
O114 C111 1.252 . S
O115 In108 2.326 . S
O115 C111 1.260 . S
O116 In108 2.266 . S
O116 C113 1.252 . S
O117 In108 2.326 . S
O117 C113 1.260 . S
C118 O109 1.240 . S
C118 O110 1.252 . S
O119 In108 2.294 . S
O119 C112 1.240 . S
O120 In108 2.326 . S
O120 C112 1.252 . S
In121 O122 2.294 . S
In121 O123 2.326 . S
In121 O127 2.266 . S
In121 O128 2.326 . S
In121 O129 2.266 . S
In121 O130 2.326 . S
In121 O132 2.294 . S
In121 O133 2.326 . S
O122 In121 2.294 . S
O122 C131 1.240 . S
O123 In121 2.326 . S
O123 C131 1.252 . S
C124 O127 1.252 . S
C124 O128 1.260 . S
C125 O132 1.240 . S
C125 O133 1.252 . S
C126 O129 1.252 . S
C126 O130 1.260 . S
O127 In121 2.266 . S
O127 C124 1.252 . S
O128 In121 2.326 . S
O128 C124 1.260 . S
O129 In121 2.266 . S
O129 C126 1.252 . S
O130 In121 2.326 . S
O130 C126 1.260 . S
C131 O122 1.240 . S
C131 O123 1.252 . S
O132 In121 2.294 . S
O132 C125 1.240 . S
O133 In121 2.326 . S
O133 C125 1.252 . S
In134 O135 2.294 . S
In134 O136 2.326 . S
In134 O140 2.266 . S
In134 O141 2.326 . S
In134 O142 2.266 . S
In134 O143 2.326 . S
In134 O145 2.294 . S
In134 O146 2.326 . S
O135 In134 2.294 . S
O135 C144 1.240 . S
O136 In134 2.326 . S
O136 C144 1.252 . S
C137 O140 1.252 . S
C137 O141 1.260 . S
C138 O145 1.240 . S
C138 O146 1.252 . S
C139 O142 1.252 . S
C139 O143 1.260 . S
O140 In134 2.266 . S
O140 C137 1.252 . S
O141 In134 2.326 . S
O141 C137 1.260 . S
O142 In134 2.266 . S
O142 C139 1.252 . S
O143 In134 2.326 . S
O143 C139 1.260 . S
C144 O135 1.240 . S
C144 O136 1.252 . S
O145 In134 2.294 . S
O145 C138 1.240 . S
O146 In134 2.326 . S
O146 C138 1.252 . S
In147 O148 2.294 . S
In147 O149 2.326 . S
In147 O153 2.257 1_556 S
In147 O154 2.326 . S
In147 O155 2.266 . S
In147 O156 2.326 . S
In147 O158 2.294 . S
In147 O159 2.326 . S
O148 In147 2.294 . S
O148 C157 1.240 . S
O149 In147 2.326 . S
O149 C157 1.252 . S
C150 O153 1.252 . S
C150 O154 1.260 1_554 S
C151 O158 1.240 . S
C151 O159 1.252 . S
C152 O155 1.252 . S
C152 O156 1.260 . S
O153 In147 2.257 1_554 S
O153 C150 1.252 . S
O154 In147 2.326 . S
O154 C150 1.260 1_556 S
O155 In147 2.266 . S
O155 C152 1.252 . S
O156 In147 2.326 . S
O156 C152 1.260 . S
C157 O148 1.240 . S
C157 O149 1.252 . S
O158 In147 2.294 . S
O158 C151 1.240 . S
O159 In147 2.326 . S
O159 C151 1.252 . S
In160 O161 2.294 . S
In160 O162 2.326 . S
In160 O166 2.266 . S
In160 O167 2.326 . S
In160 O168 2.266 1_554 S
In160 O169 2.326 . S
In160 O171 2.294 . S
In160 O172 2.326 . S
O161 In160 2.294 . S
O161 C170 1.240 . S
O162 In160 2.326 . S
O162 C170 1.252 . S
C163 O166 1.252 . S
C163 O167 1.260 . S
C164 O171 1.240 . S
C164 O172 1.252 . S
C165 O168 1.252 . S
C165 O169 1.260 1_556 S
O166 In160 2.266 . S
O166 C163 1.252 . S
O167 In160 2.326 . S
O167 C163 1.260 . S
O168 In160 2.266 1_556 S
O168 C165 1.252 . S
O169 In160 2.326 . S
O169 C165 1.260 1_554 S
C170 O161 1.240 . S
C170 O162 1.252 . S
O171 In160 2.294 . S
O171 C164 1.240 . S
O172 In160 2.326 . S
O172 C164 1.252 . S
In173 O174 2.294 . S
In173 O175 2.326 . S
In173 O179 2.266 . S
In173 O180 2.326 . S
In173 O181 2.266 . S
In173 O182 2.326 . S
In173 O184 2.294 . S
In173 O185 2.326 . S
O174 In173 2.294 . S
O174 C183 1.240 . S
O175 In173 2.326 . S
O175 C183 1.252 . S
C176 O179 1.252 . S
C176 O180 1.260 . S
C177 O184 1.240 . S
C177 O185 1.252 . S
C178 O181 1.252 . S
C178 O182 1.260 . S
O179 In173 2.266 . S
O179 C176 1.252 . S
O180 In173 2.326 . S
O180 C176 1.260 . S
O181 In173 2.266 . S
O181 C178 1.252 . S
O182 In173 2.326 . S
O182 C178 1.260 . S
C183 O174 1.240 . S
C183 O175 1.252 . S
O184 In173 2.294 . S
O184 C177 1.240 . S
O185 In173 2.326 . S
O185 C177 1.252 . S
C178 C8 1.578 . S
C26 C113 1.586 . S
C50 C131 1.582 . S
C68 C144 1.570 . S
C152 C80 1.580 . S
C104 C164 1.575 . S
C32 C126 1.595 . S
C44 C139 1.581 . S
C62 C157 1.569 . S
C163 C86 1.585 . S
C183 C98 1.567 . S
C118 C14 1.575 . S
C7 C124 1.565 . S
C25 C137 1.562 . S
C151 C52 1.564 . S
C70 C165 1.579 . S
C177 C79 1.548 . S
C112 C106 1.561 . S
C176 C34 1.574 . S
C43 C111 1.559 . S
C125 C61 1.555 . S
C88 C138 1.560 . S
C97 C150 1.564 . S
C16 C170 1.567 . S
