# Generated by pormake.
# Topology pts, (4,4)-cn, num edge types: 1
# Building blocks:
#     Node 0, Type 0, BuildingBlock: AZAVOO_clean_linker_0, # of connection points: 4
#     Node 1, Type 0, BuildingBlock: AZAVOO_clean_linker_0, # of connection points: 4
#     Node 2, Type 1, BuildingBlock: AZAVOO_clean_sbu_0, # of connection points: 4
#     Node 3, Type 1, BuildingBlock: AZAVOO_clean_sbu_0, # of connection points: 4
#     Edge 4, Type (0, 1), BuildingBlock: OJICUG_clean_linker_0, # of connection points: 2
#     Edge 5, Type (0, 1), BuildingBlock: OJICUG_clean_linker_0, # of connection points: 2
#     Edge 6, Type (0, 1), BuildingBlock: OJICUG_clean_linker_0, # of connection points: 2
#     Edge 7, Type (0, 1), BuildingBlock: OJICUG_clean_linker_0, # of connection points: 2
#     Edge 8, Type (0, 1), BuildingBlock: OJICUG_clean_linker_0, # of connection points: 2
#     Edge 9, Type (0, 1), BuildingBlock: OJICUG_clean_linker_0, # of connection points: 2
#     Edge 10, Type (0, 1), BuildingBlock: OJICUG_clean_linker_0, # of connection points: 2
#     Edge 11, Type (0, 1), BuildingBlock: OJICUG_clean_linker_0, # of connection points: 2
# Relax obj value: 0.135
# Max RMSD: 0.230
# Mean RMSD: 0.159
data_MOF--net-pts--node1-AZAVOO_clean_sbu_0--node2-AZAVOO_clean_linker_0--edge1-OJICUG_clean_linker_0
_symmetry_space_group_name_H-M    P1
_symmetry_Int_Tables_number       1
_symmetry_cell_setting            triclinic
loop_
_symmetry_equiv_pos_as_xyz
'x, y, z'
_cell_length_a     20.157433
_cell_length_b     21.237918
_cell_length_c     35.836416
_cell_angle_alpha  93.491039
_cell_angle_beta   98.848469
_cell_angle_gamma 87.722006
loop_
_atom_site_label
_atom_site_type_symbol
_atom_site_fract_x
_atom_site_fract_y
_atom_site_fract_z
_atom_type_partial_charge
H0 H 0.39797 0.0861 0.74493 0.0
H1 H 0.02873 0.96404 0.04953 0.0
H2 H 0.43319 0.12318 0.95266 0.0
H3 H 0.33048 0.12017 0.90647 0.0
H4 H 0.33721 0.91664 0.90588 0.0
H5 H 0.43985 0.92016 0.95236 0.0
H6 H 0.53471 0.12506 0.90047 0.0
H7 H 0.48006 0.12783 0.8346 0.0
H8 H 0.47039 0.9243 0.82818 0.0
H9 H 0.52512 0.92236 0.89403 0.0
H10 H 0.69298 0.12973 0.946 0.0
H11 H 0.77601 0.14557 0.90499 0.0
H12 H 0.75539 0.95293 0.85962 0.0
H13 H 0.67175 0.93717 0.90151 0.0
H14 H 0.73139 0.11813 0.02839 0.0
H15 H 0.85213 0.11694 0.05151 0.0
H16 H 0.86878 0.9239 0.00719 0.0
H17 H 0.74774 0.92549 0.98473 0.0
H18 H 0.62038 0.11718 0.07397 0.0
H19 H 0.70551 0.12532 0.1308 0.0
H20 H 0.76368 0.92955 0.11194 0.0
H21 H 0.6778 0.92138 0.05582 0.0
H22 H 0.45866 0.11922 0.02698 0.0
H23 H 0.38648 0.12459 0.0763 0.0
H24 H 0.45159 0.93472 0.10457 0.0
H25 H 0.52361 0.92996 0.05532 0.0
O26 O 0.42128 0.08385 0.77054 0.0
O27 O 0.4177 0.97917 0.76873 0.0
O28 O 0.96958 0.06509 0.06288 0.0
O29 O 0.98103 0.96606 0.04025 0.0
C30 C 0.51681 0.02249 0.96985 0.0
C31 C 0.56107 0.02245 0.94271 0.0
C32 C 0.63082 0.02311 0.9544 0.0
C33 C 0.65687 0.02137 0.99309 0.0
C34 C 0.61297 0.02016 0.02034 0.0
C35 C 0.54254 0.02215 0.00886 0.0
C36 C 0.44376 0.0219 0.95593 0.0
C37 C 0.41037 0.07817 0.94421 0.0
C38 C 0.35203 0.07631 0.91754 0.0
C39 C 0.32675 0.01809 0.90212 0.0
C40 C 0.35625 0.96208 0.917 0.0
C41 C 0.41421 0.96403 0.94396 0.0
C42 C 0.5337 0.02355 0.90186 0.0
C43 C 0.52141 0.08116 0.88459 0.0
C44 C 0.48993 0.08257 0.84705 0.0
C45 C 0.4705 0.02629 0.82618 0.0
C46 C 0.48455 0.9685 0.84345 0.0
C47 C 0.51597 0.9672 0.88098 0.0
C48 C 0.67681 0.03232 0.92683 0.0
C49 C 0.70622 0.09095 0.92718 0.0
C50 C 0.75398 0.09967 0.90398 0.0
C51 C 0.7731 0.04999 0.87972 0.0
C52 C 0.7418 -0.00827 0.87829 0.0
C53 C 0.6941 0.98281 0.90198 0.0
C54 C 0.73086 0.02173 0.00521 0.0
C55 C 0.76125 0.07565 0.02375 0.0
C56 C 0.8302 0.07485 0.03685 0.0
C57 C 0.8701 0.02021 0.03131 0.0
C58 C 0.83954 0.96668 0.01202 0.0
C59 C 0.7705 0.96749 0.99905 0.0
C60 C 0.64319 0.01877 0.06073 0.0
C61 C 0.64914 0.07529 0.08323 0.0
C62 C 0.69827 0.08005 0.11535 0.0
C63 C 0.74208 0.02845 0.125 0.0
C64 C 0.73126 0.97026 0.10461 0.0
C65 C 0.68161 0.96528 0.07296 0.0
C66 C 0.49635 0.02415 0.0375 0.0
C67 C 0.45665 0.07854 0.04354 0.0
C68 C 0.41539 0.08151 0.07171 0.0
C69 C 0.41347 0.03022 0.09454 0.0
C70 C 0.45263 0.97544 0.08791 0.0
C71 C 0.49361 0.97247 0.05969 0.0
C72 C 0.43502 0.02807 0.78675 0.0
C73 C 0.94318 0.01875 0.04577 0.0
H74 H 0.10333 0.44875 0.272 0.0
H75 H 0.0841 0.98416 0.59467 0.0
H76 H 0.04151 0.4279 0.48663 0.0
H77 H 0.04297 0.34129 0.43894 0.0
H78 H 0.24967 0.37863 0.43124 0.0
H79 H 0.24881 0.46233 0.48094 0.0
H80 H 0.03347 0.51835 0.42178 0.0
H81 H 0.04286 0.48501 0.35619 0.0
H82 H 0.24866 0.54436 0.37414 0.0
H83 H 0.23881 0.57653 0.43992 0.0
H84 H 1.00206 0.6641 0.44296 0.0
H85 H 0.99288 0.72944 0.38812 0.0
H86 H 0.20565 0.76281 0.41363 0.0
H87 H 0.21419 0.69734 0.46819 0.0
H88 H 0.98195 0.69725 0.53 0.0
H89 H 0.95568 0.80488 0.55306 0.0
H90 H 0.16689 0.84604 0.56889 0.0
H91 H 0.19243 0.73799 0.5462 0.0
H92 H 0.9881 0.59038 0.57634 0.0
H93 H 0.95226 0.6593 0.62678 0.0
H94 H 0.15618 0.72011 0.65904 0.0
H95 H 0.19202 0.648 0.61 0.0
H96 H 0.01484 0.4826 0.56207 0.0
H97 H 0.01227 0.38901 0.59796 0.0
H98 H 0.22803 0.36678 0.60691 0.0
H99 H 0.23018 0.4618 0.57132 0.0
O100 O 0.1004 0.46326 0.29784 0.0
O101 O 0.20504 0.49697 0.30796 0.0
O102 O 0.98649 0.91511 0.58176 0.0
O103 O 0.09316 0.94128 0.58563 0.0
C104 C 0.13501 0.51763 0.50186 0.0
C105 C 0.13057 0.56579 0.47602 0.0
C106 C 0.11622 0.62843 0.48773 0.0
C107 C 0.10524 0.64354 0.52503 0.0
C108 C 0.10787 0.59535 0.55098 0.0
C109 C 0.12282 0.53205 0.53934 0.0
C110 C 0.14483 0.45175 0.487 0.0
C111 C 0.08816 0.41508 0.4762 0.0
C112 C 0.08861 0.3668 0.44804 0.0
C113 C 0.14549 0.355 0.42992 0.0
C114 C 0.20475 0.38678 0.44418 0.0
C115 C 0.20461 0.43426 0.47294 0.0
C116 C 0.13549 0.54968 0.43551 0.0
C117 C 0.0804 0.52434 0.41139 0.0
C118 C 0.08596 0.5053 0.37398 0.0
C119 C 0.14658 0.51186 0.35994 0.0
C120 C 0.20129 0.53857 0.38406 0.0
C121 C 0.19575 0.55726 0.42156 0.0
C122 C 0.10861 0.67692 0.45954 0.0
C123 C 0.04621 0.6868 0.43705 0.0
C124 C 0.04123 0.72344 0.40567 0.0
C125 C 0.09879 0.75009 0.39633 0.0
C126 C 0.16081 0.74159 0.41974 0.0
C127 C 0.16562 0.70532 0.4512 0.0
C128 C 0.08906 0.70995 0.53666 0.0
C129 C 0.02238 0.72971 0.53837 0.0
C130 C 0.00757 0.79112 0.55161 0.0
C131 C 0.05925 0.834 0.56297 0.0
C132 C 0.12593 0.81422 0.56044 0.0
C133 C 0.14067 0.75267 0.54737 0.0
C134 C 0.09289 0.61351 0.58958 0.0
C135 C 0.0259 0.61504 0.59597 0.0
C136 C 1.00518 0.65583 0.62436 0.0
C137 C 0.05088 0.69676 0.64634 0.0
C138 C 0.11945 0.68933 0.64286 0.0
C139 C 0.14028 0.64772 0.61484 0.0
C140 C 0.12283 0.48016 0.56509 0.0
C141 C 0.06179 0.45905 0.57297 0.0
C142 C 0.06041 0.40517 0.59319 0.0
C143 C 0.12004 0.37077 0.60543 0.0
C144 C 0.18134 0.39229 0.59775 0.0
C145 C 0.1827 0.44671 0.57779 0.0
C146 C 0.15268 0.49042 0.32038 0.0
C147 C 0.04385 0.89912 0.57737 0.0
Mg148 Mg 0.14419 0.03426 0.26419 0.0
O149 O 0.03644 0.04283 0.23079 0.0
O150 O 0.9657 0.04294 0.2733 0.0
Mg151 Mg 0.02418 0.03051 0.33201 0.0
C152 C 0.97692 0.04566 0.23935 0.0
C153 C 0.25409 0.03555 0.21663 0.0
O154 O 0.27835 0.006 0.2472 0.0
O155 O 0.14026 0.13658 0.28899 0.0
O156 O 0.07062 0.12584 0.33118 0.0
O157 O 0.14212 0.92838 0.25911 0.0
O158 O 0.10636 0.98808 0.30502 0.0
C159 C 0.10897 0.15884 0.31559 0.0
C160 C 0.11461 0.93285 0.28953 0.0
O161 O 0.19428 0.05839 0.2138 0.0
Mg162 Mg 0.98862 0.06097 0.71905 0.0
O163 O 0.08363 0.04553 0.76152 0.0
O164 O 0.16 -0.00767 0.73197 0.0
Mg165 Mg 0.11355 0.97609 0.66965 0.0
C166 C 0.14154 0.01894 0.76179 0.0
C167 C 0.93397 0.15851 0.78746 0.0
O168 O 0.93291 0.2185 0.7988 0.0
O169 O 0.03893 0.13443 0.6917 0.0
O170 O 0.11384 0.08345 0.66024 0.0
O171 O 0.95278 0.96639 0.73235 0.0
O172 O 0.01243 0.98125 0.68695 0.0
C173 C 0.08412 0.13445 0.67053 0.0
C174 C 0.98498 0.94295 0.70583 0.0
O175 O 0.95843 0.14281 0.75758 0.0
C176 C 0.30722 0.06146 0.12134 0.0
C177 C 0.37261 0.03419 0.12595 0.0
H178 H 0.21813 0.08335 0.14628 0.0
C179 C 0.39908 0.01016 0.161 0.0
H180 H 0.28524 0.08016 0.09462 0.0
C181 C 0.36085 0.01196 0.19041 0.0
C182 C 0.29499 0.03785 0.18566 0.0
H183 H 0.44969 -0.00996 0.16584 0.0
H184 H 0.38301 -0.00762 0.21685 0.0
C185 C 0.26873 0.06317 0.15089 0.0
C186 C 0.15171 0.25619 0.61376 0.0
C187 C 0.11711 0.31138 0.62476 0.0
H188 H 0.16848 0.15664 0.61946 0.0
C189 C 0.07592 0.30861 0.65277 0.0
H190 H 0.18351 0.25691 0.59203 0.0
C191 C 0.06724 0.25154 0.66838 0.0
C192 C 0.09937 0.19558 0.65629 0.0
H193 H 0.04945 0.35055 0.66221 0.0
H194 H 0.03394 0.25123 0.68938 0.0
C195 C 0.14284 0.19874 0.62934 0.0
C196 C 0.79738 0.06288 0.19011 0.0
C197 C 0.80252 0.03639 0.15384 0.0
H198 H 0.8488 0.08659 0.2457 0.0
C199 C 0.86615 0.01741 0.14496 0.0
H200 H 0.74894 0.07818 0.19752 0.0
C201 C 0.9235 0.02321 0.1722 0.0
C202 C 0.9181 0.04716 0.20905 0.0
H203 H 0.87144 -0.00228 0.11693 0.0
H204 H 0.9716 0.00683 0.16477 0.0
C205 C 0.85454 0.06766 0.21758 0.0
C206 C 0.06372 0.77978 0.70049 0.0
C207 C 0.02613 0.75389 0.66705 0.0
H208 H 0.07912 0.8607 0.7396 0.0
C209 C 0.96905 0.78806 0.65027 0.0
H210 H 0.10778 0.7548 0.71422 0.0
C211 C 0.95256 0.84796 0.66505 0.0
C212 C 0.99221 0.87486 0.69709 0.0
H213 H 0.93968 0.7707 0.62407 0.0
H214 H 0.91114 0.8749 0.65005 0.0
C215 C 0.04701 0.83997 0.71529 0.0
C216 C 0.21915 0.05574 0.86382 0.0
C217 C 0.27662 0.01573 0.86723 0.0
H218 H 0.13105 0.08786 0.82792 0.0
C219 C 0.28913 0.97654 0.83587 0.0
H220 H 0.20854 0.08658 0.88752 0.0
C221 C 0.24556 0.97785 0.80163 0.0
C222 C 0.18802 0.0179 0.79807 0.0
H223 H 0.33372 0.94603 0.8375 0.0
H224 H 0.25707 0.94741 0.77795 0.0
C225 C 0.17496 0.05644 0.82967 0.0
C226 C 0.19555 0.27192 0.38824 0.0
C227 C 0.14126 0.31235 0.39518 0.0
H228 H 0.22821 0.19213 0.35538 0.0
C229 C 0.08128 0.31018 0.3692 0.0
H230 H 0.24252 0.27237 0.4075 0.0
C231 C 0.07314 0.26393 0.33965 0.0
C232 C 0.12546 0.22032 0.33477 0.0
H233 H 0.03932 0.34229 0.37271 0.0
H234 H 0.02439 0.25938 0.32228 0.0
C235 C 0.18774 0.22644 0.35809 0.0
C236 C 0.88279 0.09329 0.87224 0.0
C237 C 0.82502 0.06102 0.85599 0.0
H238 H 0.96378 0.14902 0.86253 0.0
C239 C 0.81302 0.04854 0.81657 0.0
H240 H 0.89397 0.10233 0.90261 0.0
C241 C 0.8541 0.07439 0.79356 0.0
C242 C 0.90693 0.11303 0.80993 0.0
H243 H 0.76884 0.02364 0.8034 0.0
H244 H 0.84061 0.06934 0.7631 0.0
C245 C 0.92301 0.11954 0.84938 0.0
C246 C 0.04423 0.83639 0.35722 0.0
C247 C 0.09433 0.78877 0.36314 0.0
H248 H 0.01001 0.91865 0.32764 0.0
C249 C 0.14356 0.7822 0.33918 0.0
H250 H 1.00545 0.84224 0.37509 0.0
C251 C 0.1461 0.82604 0.31198 0.0
C252 C 0.0999 0.87724 0.30879 0.0
H253 H 0.18194 0.74495 0.34273 0.0
H254 H 0.18729 0.82275 0.29571 0.0
C255 C 0.04712 0.88038 0.33027 0.0
loop_
_geom_bond_atom_site_label_1
_geom_bond_atom_site_label_2
_geom_bond_distance
_geom_bond_site_symmetry_2
_ccdc_geom_bond_type
H0 O26 0.856 . S
H1 O29 0.854 1_455 S
H2 C37 0.930 . S
H3 C38 0.930 . S
H4 C40 0.930 1_565 S
H5 C41 0.930 1_565 S
H6 C43 0.931 . S
H7 C44 0.930 . S
H8 C46 0.930 . S
H9 C47 0.929 . S
H10 C49 0.930 . S
H11 C50 0.931 . S
H12 C52 0.930 . S
H13 C53 0.929 . S
H14 C55 0.931 . S
H15 C56 0.930 . S
H16 C58 0.930 . S
H17 C59 0.932 1_556 S
H18 C61 0.930 . S
H19 C62 0.929 . S
H20 C64 0.931 1_565 S
H21 C65 0.930 1_565 S
H22 C67 0.929 . S
H23 C68 0.931 . S
H24 C70 0.930 . S
H25 C71 0.929 . S
O26 H0 0.856 . S
O26 C72 1.300 . S
O27 C72 1.209 1_565 S
O28 C73 1.199 . S
O29 H1 0.854 1_655 S
O29 C73 1.297 1_565 S
C30 C31 1.404 . S
C30 C35 1.397 1_556 S
C30 C36 1.492 . S
C31 C30 1.404 . S
C31 C32 1.396 . S
C31 C42 1.492 . S
C32 C31 1.396 . S
C32 C33 1.397 . S
C32 C48 1.509 . S
C33 C32 1.397 . S
C33 C34 1.412 1_556 S
C33 C54 1.485 1_556 S
C34 C33 1.412 1_554 S
C34 C35 1.388 . S
C34 C60 1.490 . S
C35 C30 1.397 1_554 S
C35 C34 1.388 . S
C35 C66 1.519 . S
C36 C30 1.492 . S
C36 C37 1.363 . S
C36 C41 1.390 . S
C37 H2 0.930 . S
C37 C36 1.363 . S
C37 C38 1.372 . S
C38 H3 0.930 . S
C38 C37 1.372 . S
C38 C39 1.383 . S
C39 C38 1.383 . S
C39 C40 1.395 . S
C40 H4 0.930 1_545 S
C40 C39 1.395 . S
C40 C41 1.362 . S
C41 H5 0.930 1_545 S
C41 C36 1.390 . S
C41 C40 1.362 . S
C42 C31 1.492 . S
C42 C43 1.377 . S
C42 C47 1.397 1_545 S
C43 H6 0.931 . S
C43 C42 1.377 . S
C43 C44 1.376 . S
C44 H7 0.930 . S
C44 C43 1.376 . S
C44 C45 1.376 . S
C45 C44 1.376 . S
C45 C46 1.378 1_545 S
C45 C72 1.486 . S
C46 H8 0.930 . S
C46 C45 1.378 1_565 S
C46 C47 1.376 . S
C47 H9 0.929 . S
C47 C42 1.397 1_565 S
C47 C46 1.376 . S
C48 C32 1.509 . S
C48 C49 1.391 . S
C48 C53 1.386 1_545 S
C49 H10 0.930 . S
C49 C48 1.391 . S
C49 C50 1.375 . S
C50 H11 0.931 . S
C50 C49 1.375 . S
C50 C51 1.375 . S
C51 C50 1.375 . S
C51 C52 1.361 1_545 S
C52 H12 0.930 . S
C52 C51 1.361 1_565 S
C52 C53 1.399 . S
C53 H13 0.929 . S
C53 C48 1.386 1_565 S
C53 C52 1.399 . S
C54 C33 1.485 1_554 S
C54 C55 1.394 . S
C54 C59 1.360 1_545 S
C55 H14 0.931 . S
C55 C54 1.394 . S
C55 C56 1.372 . S
C56 H15 0.930 . S
C56 C55 1.372 . S
C56 C57 1.397 . S
C57 C56 1.397 . S
C57 C58 1.390 1_545 S
C57 C73 1.476 . S
C58 H16 0.930 . S
C58 C57 1.390 1_565 S
C58 C59 1.366 . S
C59 H17 0.932 1_554 S
C59 C54 1.360 1_565 S
C59 C58 1.366 . S
C60 C34 1.490 . S
C60 C61 1.380 . S
C60 C65 1.386 . S
C61 H18 0.930 . S
C61 C60 1.380 . S
C61 C62 1.381 . S
C62 H19 0.929 . S
C62 C61 1.381 . S
C62 C63 1.371 . S
C63 C62 1.371 . S
C63 C64 1.380 . S
C64 H20 0.931 1_545 S
C64 C63 1.380 . S
C64 C65 1.387 . S
C65 H21 0.930 1_545 S
C65 C60 1.386 . S
C65 C64 1.387 . S
C66 C35 1.519 . S
C66 C67 1.377 . S
C66 C71 1.361 1_545 S
C67 H22 0.929 . S
C67 C66 1.377 . S
C67 C68 1.386 . S
C68 H23 0.931 . S
C68 C67 1.386 . S
C68 C69 1.363 . S
C69 C68 1.363 . S
C69 C70 1.385 1_545 S
C70 H24 0.930 . S
C70 C69 1.385 1_565 S
C70 C71 1.396 . S
C71 H25 0.929 . S
C71 C66 1.361 1_565 S
C71 C70 1.396 . S
C72 O26 1.300 . S
C72 O27 1.209 1_545 S
C72 C45 1.486 . S
C73 O28 1.199 . S
C73 O29 1.297 1_545 S
C73 C57 1.476 . S
H74 O100 0.856 . S
H75 O103 0.839 1_545 S
H76 C111 0.930 1_655 S
H77 C112 0.930 1_655 S
H78 C114 0.930 . S
H79 C115 0.930 . S
H80 C117 0.931 . S
H81 C118 0.930 . S
H82 C120 0.930 . S
H83 C121 0.929 . S
H84 C123 0.930 . S
H85 C124 0.931 . S
H86 C126 0.930 . S
H87 C127 0.929 . S
H88 C129 0.931 . S
H89 C130 0.930 . S
H90 C132 0.930 . S
H91 C133 0.932 . S
H92 C135 0.930 1_655 S
H93 C136 0.929 1_655 S
H94 C138 0.931 . S
H95 C139 0.930 . S
H96 C141 0.929 1_655 S
H97 C142 0.931 . S
H98 C144 0.930 . S
H99 C145 0.929 . S
O100 H74 0.856 . S
O100 C146 1.300 . S
O101 C146 1.209 . S
O102 C147 1.199 . S
O103 H75 0.839 1_565 S
O103 C147 1.297 . S
C104 C105 1.404 . S
C104 C109 1.397 . S
C104 C110 1.492 . S
C105 C104 1.404 . S
C105 C106 1.396 . S
C105 C116 1.492 . S
C106 C105 1.396 . S
C106 C107 1.397 . S
C106 C122 1.509 . S
C107 C106 1.397 . S
C107 C108 1.412 . S
C107 C128 1.485 . S
C108 C107 1.412 . S
C108 C109 1.388 . S
C108 C134 1.490 . S
C109 C104 1.397 . S
C109 C108 1.388 . S
C109 C140 1.519 . S
C110 C104 1.492 . S
C110 C111 1.363 . S
C110 C115 1.390 . S
C111 H76 0.930 1_455 S
C111 C110 1.363 . S
C111 C112 1.372 . S
C112 H77 0.930 1_455 S
C112 C111 1.372 . S
C112 C113 1.383 . S
C113 C112 1.383 . S
C113 C114 1.395 . S
C114 H78 0.930 . S
C114 C113 1.395 . S
C114 C115 1.362 . S
C115 H79 0.930 . S
C115 C110 1.390 . S
C115 C114 1.362 . S
C116 C105 1.492 . S
C116 C117 1.377 . S
C116 C121 1.397 . S
C117 H80 0.931 . S
C117 C116 1.377 . S
C117 C118 1.376 . S
C118 H81 0.930 . S
C118 C117 1.376 . S
C118 C119 1.376 . S
C119 C118 1.376 . S
C119 C120 1.378 . S
C119 C146 1.486 . S
C120 H82 0.930 . S
C120 C119 1.378 . S
C120 C121 1.376 . S
C121 H83 0.929 . S
C121 C116 1.397 . S
C121 C120 1.376 . S
C122 C106 1.509 . S
C122 C123 1.391 . S
C122 C127 1.386 . S
C123 H84 0.930 . S
C123 C122 1.391 . S
C123 C124 1.375 . S
C124 H85 0.931 . S
C124 C123 1.375 . S
C124 C125 1.375 . S
C125 C124 1.375 . S
C125 C126 1.361 . S
C126 H86 0.930 . S
C126 C125 1.361 . S
C126 C127 1.399 . S
C127 H87 0.929 . S
C127 C122 1.386 . S
C127 C126 1.399 . S
C128 C107 1.485 . S
C128 C129 1.394 . S
C128 C133 1.360 . S
C129 H88 0.931 . S
C129 C128 1.394 . S
C129 C130 1.372 . S
C130 H89 0.930 . S
C130 C129 1.372 . S
C130 C131 1.397 . S
C131 C130 1.397 . S
C131 C132 1.390 . S
C131 C147 1.476 . S
C132 H90 0.930 . S
C132 C131 1.390 . S
C132 C133 1.366 . S
C133 H91 0.932 . S
C133 C128 1.360 . S
C133 C132 1.366 . S
C134 C108 1.490 . S
C134 C135 1.380 . S
C134 C139 1.386 . S
C135 H92 0.930 1_455 S
C135 C134 1.380 . S
C135 C136 1.381 . S
C136 H93 0.929 1_455 S
C136 C135 1.381 . S
C136 C137 1.371 . S
C137 C136 1.371 . S
C137 C138 1.380 . S
C138 H94 0.931 . S
C138 C137 1.380 . S
C138 C139 1.387 . S
C139 H95 0.930 . S
C139 C134 1.386 . S
C139 C138 1.387 . S
C140 C109 1.519 . S
C140 C141 1.377 . S
C140 C145 1.361 . S
C141 H96 0.929 1_455 S
C141 C140 1.377 . S
C141 C142 1.386 . S
C142 H97 0.931 . S
C142 C141 1.386 . S
C142 C143 1.363 . S
C143 C142 1.363 . S
C143 C144 1.385 . S
C144 H98 0.930 . S
C144 C143 1.385 . S
C144 C145 1.396 . S
C145 H99 0.929 . S
C145 C140 1.361 . S
C145 C144 1.396 . S
C146 O100 1.300 . S
C146 O101 1.209 . S
C146 C119 1.486 . S
C147 O102 1.199 . S
C147 O103 1.297 . S
C147 C131 1.476 . S
Mg148 O149 2.028 . S
Mg148 O155 1.986 . S
Mg148 O157 2.114 1_545 S
Mg148 O158 2.251 . S
Mg148 O161 2.010 . S
O149 Mg148 2.028 . S
O149 C152 1.250 1_455 S
O150 Mg151 2.028 . S
O150 C152 1.248 . S
Mg151 O150 2.028 . S
Mg151 O156 2.032 1_655 S
Mg151 O158 2.079 1_655 S
C152 O149 1.250 1_655 S
C152 O150 1.248 . S
C153 O154 1.264 . S
C153 O161 1.249 . S
O154 C153 1.264 . S
O155 Mg148 1.986 . S
O155 C159 1.246 . S
O156 Mg151 2.032 1_455 S
O156 C159 1.259 . S
O157 Mg148 2.114 1_565 S
O157 C160 1.252 . S
O158 Mg148 2.251 . S
O158 Mg151 2.079 1_455 S
O158 C160 1.273 1_545 S
C159 O155 1.246 . S
C159 O156 1.259 . S
C160 O157 1.252 . S
C160 O158 1.273 1_565 S
O161 Mg148 2.010 . S
O161 C153 1.249 . S
Mg162 O163 2.028 . S
Mg162 O169 1.986 . S
Mg162 O171 2.114 1_545 S
Mg162 O172 2.251 1_545 S
Mg162 O175 2.010 1_455 S
O163 Mg162 2.028 . S
O163 C166 1.250 . S
O164 Mg165 2.028 . S
O164 C166 1.248 . S
Mg165 O164 2.028 . S
Mg165 O170 2.032 . S
Mg165 O172 2.079 1_545 S
C166 O163 1.250 . S
C166 O164 1.248 . S
C167 O168 1.264 . S
C167 O175 1.249 . S
O168 C167 1.264 . S
O169 Mg162 1.986 . S
O169 C173 1.246 . S
O170 Mg165 2.032 . S
O170 C173 1.259 . S
O171 Mg162 2.114 1_565 S
O171 C174 1.252 . S
O172 Mg162 2.251 1_565 S
O172 Mg165 2.079 1_565 S
O172 C174 1.273 . S
C173 O169 1.246 . S
C173 O170 1.259 . S
C174 O171 1.252 . S
C174 O172 1.273 . S
O175 Mg162 2.010 1_655 S
O175 C167 1.249 . S
C176 C177 1.387 . S
C176 H180 0.950 . S
C176 C185 1.390 . S
C177 C176 1.387 . S
C177 C179 1.387 1_545 S
H178 C185 0.950 . S
C179 C177 1.387 1_565 S
C179 C181 1.390 1_565 S
C179 H183 0.950 . S
H180 C176 0.950 . S
C181 C179 1.390 1_545 S
C181 C182 1.387 . S
C181 H184 0.950 1_545 S
C182 C181 1.387 . S
C182 C185 1.387 . S
H183 C179 0.950 . S
H184 C181 0.950 1_565 S
C185 C176 1.390 . S
C185 H178 0.950 . S
C185 C182 1.387 . S
C186 C187 1.387 . S
C186 H190 0.950 . S
C186 C195 1.390 . S
C187 C186 1.387 . S
C187 C189 1.387 . S
H188 C195 0.950 . S
C189 C187 1.387 . S
C189 C191 1.390 . S
C189 H193 0.950 1_455 S
H190 C186 0.950 . S
C191 C189 1.390 . S
C191 C192 1.387 . S
C191 H194 0.950 1_455 S
C192 C191 1.387 . S
C192 C195 1.387 . S
H193 C189 0.950 1_655 S
H194 C191 0.950 1_655 S
C195 C186 1.390 . S
C195 H188 0.950 . S
C195 C192 1.387 . S
C196 C197 1.387 . S
C196 H200 0.950 . S
C196 C205 1.390 . S
C197 C196 1.387 . S
C197 C199 1.387 . S
H198 C205 0.950 . S
C199 C197 1.387 . S
C199 C201 1.390 . S
C199 H203 0.950 1_545 S
H200 C196 0.950 . S
C201 C199 1.390 . S
C201 C202 1.387 . S
C201 H204 0.950 1_545 S
C202 C201 1.387 . S
C202 C205 1.387 . S
H203 C199 0.950 1_565 S
H204 C201 0.950 1_565 S
C205 C196 1.390 . S
C205 H198 0.950 . S
C205 C202 1.387 . S
C206 C207 1.387 . S
C206 H210 0.950 . S
C206 C215 1.390 . S
C207 C206 1.387 . S
C207 C209 1.387 1_455 S
H208 C215 0.950 . S
C209 C207 1.387 1_655 S
C209 C211 1.390 1_655 S
C209 H213 0.950 . S
H210 C206 0.950 . S
C211 C209 1.390 1_455 S
C211 C212 1.398 . S
C211 H214 0.939 1_455 S
C212 C211 1.398 . S
C212 C215 1.387 . S
H213 C209 0.950 . S
H214 C211 0.939 1_655 S
C215 C206 1.390 . S
C215 H208 0.950 . S
C215 C212 1.387 . S
C216 C217 1.387 . S
C216 H220 0.950 . S
C216 C225 1.390 . S
C217 C216 1.387 . S
C217 C219 1.387 . S
H218 C225 0.950 . S
C219 C217 1.387 . S
C219 C221 1.390 1_545 S
C219 H223 0.950 1_545 S
H220 C216 0.950 . S
C221 C219 1.390 1_565 S
C221 C222 1.387 1_565 S
C221 H224 0.950 . S
C222 C221 1.387 1_545 S
C222 C225 1.387 . S
H223 C219 0.950 1_565 S
H224 C221 0.950 . S
C225 C216 1.390 . S
C225 H218 0.950 . S
C225 C222 1.387 . S
C226 C227 1.387 . S
C226 H230 0.950 . S
C226 C235 1.390 . S
C227 C226 1.387 . S
C227 C229 1.387 . S
H228 C235 0.950 . S
C229 C227 1.387 . S
C229 C231 1.390 . S
C229 H233 0.950 . S
H230 C226 0.950 . S
C231 C229 1.390 . S
C231 C232 1.387 . S
C231 H234 0.950 . S
C232 C231 1.387 . S
C232 C235 1.387 . S
H233 C229 0.950 . S
H234 C231 0.950 . S
C235 C226 1.390 . S
C235 H228 0.950 . S
C235 C232 1.387 . S
C236 C237 1.387 . S
C236 H240 0.950 . S
C236 C245 1.390 . S
C237 C236 1.387 . S
C237 C239 1.387 1_545 S
H238 C245 0.950 . S
C239 C237 1.387 1_565 S
C239 C241 1.390 . S
C239 H243 0.950 . S
H240 C236 0.950 . S
C241 C239 1.390 . S
C241 C242 1.387 1_565 S
C241 H244 0.950 . S
C242 C241 1.387 1_545 S
C242 C245 1.387 . S
H243 C239 0.950 . S
H244 C241 0.950 . S
C245 C236 1.390 . S
C245 H238 0.950 . S
C245 C242 1.387 . S
C246 C247 1.387 . S
C246 H250 0.950 . S
C246 C255 1.390 . S
C247 C246 1.387 . S
C247 C249 1.387 . S
H248 C255 0.950 . S
C249 C247 1.387 . S
C249 C251 1.390 . S
C249 H253 0.950 . S
H250 C246 0.950 . S
C251 C249 1.390 . S
C251 C252 1.387 . S
C251 H254 0.950 . S
C252 C251 1.387 . S
C252 C255 1.387 . S
H253 C249 0.950 . S
H254 C251 0.950 . S
C255 C246 1.390 . S
C255 H248 0.950 . S
C255 C252 1.387 . S
C182 C153 1.770 . S
C177 C69 2.037 . S
C192 C173 2.027 . S
C187 C143 2.072 . S
C202 C152 1.667 . S
C197 C63 1.583 . S
C212 C174 1.755 . S
C207 C137 1.569 . S
C222 C166 1.645 . S
C217 C39 1.472 . S
C232 C159 1.457 . S
C227 C113 1.428 . S
C242 C167 0.873 . S
C237 C51 0.959 . S
C247 C125 1.002 . S
C252 C160 1.012 . S
