# Generated by pormake.
# Topology llj, (12,3)-cn, num edge types: 1
# Building blocks:
#     Node 0, Type 0, BuildingBlock: QEWDON_clean_sbu_0, # of connection points: 12
#     Node 1, Type 0, BuildingBlock: QEWDON_clean_sbu_0, # of connection points: 12
#     Node 2, Type 1, BuildingBlock: PAMTOO_clean_linker_0, # of connection points: 3
#     Node 3, Type 1, BuildingBlock: PAMTOO_clean_linker_0, # of connection points: 3
#     Node 4, Type 1, BuildingBlock: PAMTOO_clean_linker_0, # of connection points: 3
#     Node 5, Type 1, BuildingBlock: PAMTOO_clean_linker_0, # of connection points: 3
#     Node 6, Type 1, BuildingBlock: PAMTOO_clean_linker_0, # of connection points: 3
#     Node 7, Type 1, BuildingBlock: PAMTOO_clean_linker_0, # of connection points: 3
#     Node 8, Type 1, BuildingBlock: PAMTOO_clean_linker_0, # of connection points: 3
#     Node 9, Type 1, BuildingBlock: PAMTOO_clean_linker_0, # of connection points: 3
#     Edge 10, Type (0, 1), None
#     Edge 11, Type (0, 1), None
#     Edge 12, Type (0, 1), None
#     Edge 13, Type (0, 1), None
#     Edge 14, Type (0, 1), None
#     Edge 15, Type (0, 1), None
#     Edge 16, Type (0, 1), None
#     Edge 17, Type (0, 1), None
#     Edge 18, Type (0, 1), None
#     Edge 19, Type (0, 1), None
#     Edge 20, Type (0, 1), None
#     Edge 21, Type (0, 1), None
#     Edge 22, Type (0, 1), None
#     Edge 23, Type (0, 1), None
#     Edge 24, Type (0, 1), None
#     Edge 25, Type (0, 1), None
#     Edge 26, Type (0, 1), None
#     Edge 27, Type (0, 1), None
#     Edge 28, Type (0, 1), None
#     Edge 29, Type (0, 1), None
#     Edge 30, Type (0, 1), None
#     Edge 31, Type (0, 1), None
#     Edge 32, Type (0, 1), None
#     Edge 33, Type (0, 1), None
# Relax obj value: 0.011
# Max RMSD: 0.078
# Mean RMSD: 0.065
data_MOF--net-llj--node1-QEWDON_clean_sbu_0--node2-PAMTOO_clean_linker_0--edge1-none
_symmetry_space_group_name_H-M    P1
_symmetry_Int_Tables_number       1
_symmetry_cell_setting            triclinic
loop_
_symmetry_equiv_pos_as_xyz
'x, y, z'
_cell_length_a     20.401019
_cell_length_b     20.632236
_cell_length_c     11.511089
_cell_angle_alpha  90.603437
_cell_angle_beta   90.20168
_cell_angle_gamma 89.89734
loop_
_atom_site_label
_atom_site_type_symbol
_atom_site_fract_x
_atom_site_fract_y
_atom_site_fract_z
_atom_type_partial_charge
Zn0 Zn 0.89422 0.12759 0.89541 0.0
Zn1 Zn 0.88984 0.12093 0.17087 0.0
O2 O 0.94985 0.11076 0.03552 0.0
H3 H 0.98677 0.08156 0.0313 0.0
C4 C 0.84217 -0.00159 0.74181 0.0
O5 O 0.82308 0.02471 0.84048 0.0
Zn6 Zn 0.11351 0.87115 0.16625 0.0
Zn7 Zn 0.11176 0.86445 0.88874 0.0
O8 O 0.05462 0.87981 0.02874 0.0
H9 H 0.01584 0.90651 0.02607 0.0
Zn10 Zn 0.86443 0.89236 0.89928 0.0
O11 O 0.89405 0.94605 0.03739 0.0
Zn12 Zn 0.88013 0.88784 0.17245 0.0
H13 H 0.92534 0.98096 0.03303 0.0
Zn14 Zn 0.1358 0.09738 0.89576 0.0
O15 O 0.11207 0.04465 0.03509 0.0
H16 H 0.08248 0.00827 0.03008 0.0
Zn17 Zn 0.12242 0.10452 0.17135 0.0
C18 C 0.17504 -0.00642 0.73613 0.0
O19 O 0.19391 0.96697 0.83393 0.0
O20 O 0.81057 0.17947 0.93164 0.0
O21 O 0.81002 0.17613 0.12573 0.0
O22 O 0.1958 0.81349 0.92772 0.0
O23 O 0.19387 0.81703 0.12192 0.0
O24 O 0.786 0.83549 0.94465 0.0
O25 O 0.80544 0.82516 0.13483 0.0
C26 C 0.00272 0.15212 0.30705 0.0
O27 O 0.18558 0.18144 0.93393 0.0
O28 O 0.17934 0.18276 0.12774 0.0
O29 O 0.0641 0.84917 0.73116 0.0
C30 C 0.7846 0.19372 0.02916 0.0
O31 O 0.94261 0.13699 0.73898 0.0
C32 C 0.00038 0.83283 0.29891 0.0
O33 O 0.8621 0.93999 0.74137 0.0
C34 C 0.22042 0.79928 0.0262 0.0
O35 O 0.14925 0.04966 0.7389 0.0
C36 C 0.85245 0.00196 0.30968 0.0
O37 O 0.94063 0.15778 0.30646 0.0
O38 O 0.03086 0.13267 0.21464 0.0
C39 C 0.77112 0.81309 0.0439 0.0
O40 O 0.06278 0.83097 0.29765 0.0
O41 O 0.9705 0.85242 0.20855 0.0
C42 C 0.1576 0.99209 0.30473 0.0
O43 O 0.85216 0.94044 0.31088 0.0
O44 O 0.866 0.02991 0.21478 0.0
C45 C 0.19822 0.20767 0.03212 0.0
O46 O 0.15966 0.05378 0.30529 0.0
O47 O 0.13747 0.96304 0.21331 0.0
C48 C 0.00602 0.82685 0.73142 0.0
O49 O 0.97834 0.8135 0.83122 0.0
C50 C 0.0026 0.1533 0.73967 0.0
O51 O 0.0314 0.16594 0.83954 0.0
Zn52 Zn 0.39858 0.63117 0.38834 0.0
Zn53 Zn 0.39658 0.62614 0.66411 0.0
O54 O 0.45497 0.61216 0.52777 0.0
H55 H 0.49082 0.58162 0.52407 0.0
C56 C 0.33109 0.50783 0.23298 0.0
O57 O 0.31181 0.53471 0.33107 0.0
Zn58 Zn 0.60142 0.36553 0.66568 0.0
Zn59 Zn 0.59645 0.35216 0.39094 0.0
O60 O 0.54359 0.38259 0.5292 0.0
H61 H 0.51039 0.41585 0.52575 0.0
Zn62 Zn 0.35374 0.40142 0.39078 0.0
O63 O 0.38539 0.45323 0.52927 0.0
Zn64 Zn 0.36844 0.39584 0.66468 0.0
H65 H 0.41808 0.48684 0.52466 0.0
Zn66 Zn 0.64614 0.59293 0.39012 0.0
O67 O 0.61875 0.54046 0.52787 0.0
H68 H 0.58753 0.50552 0.52179 0.0
Zn69 Zn 0.63144 0.59819 0.66586 0.0
C70 C 0.6709 0.48545 0.23069 0.0
O71 O 0.681 0.45594 0.32976 0.0
O72 O 0.31862 0.68881 0.42642 0.0
O73 O 0.32013 0.68624 0.62066 0.0
O74 O 0.65241 0.27316 0.43521 0.0
O75 O 0.663 0.28979 0.6265 0.0
O76 O 0.27484 0.34541 0.43569 0.0
O77 O 0.2928 0.33471 0.62619 0.0
C78 C 0.51236 0.65084 0.8002 0.0
O79 O 0.70171 0.67317 0.43163 0.0
O80 O 0.69295 0.67373 0.62523 0.0
O81 O 0.54799 0.35012 0.23205 0.0
C82 C 0.2951 0.70549 0.52481 0.0
O83 O 0.44646 0.63764 0.23027 0.0
C84 C 0.48445 0.3421 0.79915 0.0
O85 O 0.35146 0.44957 0.23365 0.0
C86 C 0.67491 0.25679 0.53409 0.0
O87 O 0.65591 0.54523 0.23193 0.0
C88 C 0.34816 0.51023 0.80212 0.0
O89 O 0.4505 0.65918 0.79873 0.0
O90 O 0.5404 0.6304 0.70819 0.0
C91 C 0.25921 0.32281 0.53439 0.0
O92 O 0.54657 0.33799 0.80116 0.0
O93 O 0.45669 0.35821 0.70456 0.0
C94 C 0.6602 0.48234 0.79783 0.0
O95 O 0.34182 0.4491 0.80236 0.0
O96 O 0.36629 0.53711 0.70866 0.0
C97 C 0.71481 0.69791 0.53093 0.0
O98 O 0.66596 0.54386 0.79811 0.0
O99 O 0.6398 0.45403 0.70573 0.0
C100 C 0.48821 0.33288 0.23133 0.0
O101 O 0.46027 0.31783 0.3301 0.0
C102 C 0.50774 0.64871 0.23255 0.0
O103 O 0.53689 0.65716 0.33345 0.0
H104 H 0.52827 0.36659 0.01565 0.0
H105 H 0.36886 0.27709 0.19768 0.0
H106 H 0.36216 0.29069 0.82671 0.0
H107 H 0.22658 0.30024 0.96723 0.0
C108 C 0.2425 0.26524 0.03458 0.0
O109 O 0.30511 0.24393 0.0114 0.0
H110 H 0.24063 0.28926 0.12155 0.0
C111 C 0.48011 0.3444 0.01509 0.0
C112 C 0.44807 0.3325 0.90838 0.0
C113 C 0.45183 0.32544 0.12044 0.0
C114 C 0.39058 0.29464 0.11822 0.0
C115 C 0.35825 0.28272 0.01284 0.0
C116 C 0.38617 0.30288 0.90811 0.0
H117 H 0.64077 0.5278 0.01463 0.0
H118 H 0.72324 0.3654 0.19641 0.0
H119 H 0.70896 0.35989 0.82491 0.0
H120 H 0.69312 0.22672 0.95988 0.0
C121 C 0.72851 0.24021 0.02973 0.0
O122 O 0.75356 0.30093 0.00962 0.0
H123 H 0.70332 0.23921 0.1153 0.0
C124 C 0.66142 0.47933 0.01384 0.0
C125 C 0.67157 0.44708 0.90704 0.0
C126 C 0.67883 0.45007 0.11919 0.0
C127 C 0.70698 0.38802 0.11678 0.0
C128 C 0.71744 0.35567 0.0111 0.0
C129 C 0.69845 0.38443 0.90641 0.0
H130 H 0.46342 0.63133 0.01243 0.0
H131 H 0.63877 0.69173 0.8368 0.0
H132 H 0.6354 0.68401 0.20868 0.0
H133 H 0.68927 0.79095 0.151 0.0
C134 C 0.70458 0.78438 0.05887 0.0
O135 O 0.70299 0.71936 0.02966 0.0
H136 H 0.66933 0.81181 1.00382 0.0
C137 C 0.5142 0.64674 0.0155 0.0
C138 C 0.54509 0.65572 0.12344 0.0
C139 C 0.5479 0.65823 0.91134 0.0
C140 C 0.61319 0.67955 0.91581 0.0
C141 C 0.64434 0.68899 0.02346 0.0
C142 C 0.61093 0.67518 0.12637 0.0
H143 H 0.36693 0.46647 0.01823 0.0
H144 H 0.27938 0.62828 0.1993 0.0
H145 H 0.29911 0.63269 0.82919 0.0
H146 H 0.31149 0.76477 0.95741 0.0
C147 C 0.27699 0.75346 0.02899 0.0
O148 O 0.25205 0.69217 0.01214 0.0
H149 H 0.30231 0.75659 0.11468 0.0
C150 C 0.34604 0.51484 0.01768 0.0
C151 C 0.33688 0.54658 0.91119 0.0
C152 C 0.32606 0.54381 0.12265 0.0
C153 C 0.29738 0.60567 0.12022 0.0
C154 C 0.2885 0.63771 0.01477 0.0
C155 C 0.30917 0.60876 0.91058 0.0
H156 H 0.04554 0.85677 0.51404 0.0
H157 H 0.88859 0.76586 0.70072 0.0
H158 H 0.88027 0.77629 0.32904 0.0
H159 H 0.74762 0.78976 0.46932 0.0
C160 C 0.76138 0.75379 0.53653 0.0
O161 O 0.82375 0.73079 0.51594 0.0
H162 H 0.75906 0.77742 0.62378 0.0
C163 C 0.99821 0.8329 0.51468 0.0
C164 C 0.96599 0.81966 0.40883 0.0
C165 C 0.97052 0.8147 0.62091 0.0
C166 C 0.91 0.78241 0.6203 0.0
C167 C 0.87748 0.76893 0.51553 0.0
C168 C 0.90474 0.78872 0.40991 0.0
H169 H 0.13988 0.03496 0.52251 0.0
H170 H 0.23488 0.87685 0.69762 0.0
H171 H 0.21534 0.87258 0.32671 0.0
H172 H 0.20386 0.73992 0.45674 0.0
C173 C 0.2392 0.75242 0.52728 0.0
O174 O 0.26397 0.81345 0.50837 0.0
H175 H 0.21453 0.75102 0.61332 0.0
C176 C 0.16377 0.98797 0.51993 0.0
C177 C 0.1743 0.95711 0.41215 0.0
C178 C 0.18462 0.95936 0.62387 0.0
C179 C 0.21662 0.89913 0.61904 0.0
C180 C 0.22705 0.86777 0.51226 0.0
C181 C 0.20502 0.89618 0.40901 0.0
H182 H 0.95658 0.13287 0.52152 0.0
H183 H 0.12793 0.19685 0.33863 0.0
H184 H 0.12866 0.19311 0.71068 0.0
H185 H 0.17467 0.30444 0.63712 0.0
C186 C 0.19254 0.29433 0.54744 0.0
O187 O 0.19308 0.2283 0.52786 0.0
H188 H 0.15888 0.31784 0.48402 0.0
C189 C 0.00679 0.14993 0.52259 0.0
C190 C 0.03853 0.16093 0.62931 0.0
C191 C 0.03891 0.16156 0.41702 0.0
C192 C 0.10354 0.18465 0.41877 0.0
C193 C 0.13546 0.19614 0.52501 0.0
C194 C 0.10362 0.18264 0.62952 0.0
H195 H 0.87112 0.95625 0.5246 0.0
H196 H 0.80485 0.12554 0.34178 0.0
H197 H 0.79921 0.12243 0.71364 0.0
H198 H 0.69066 0.17168 0.6341 0.0
C199 C 0.7024 0.18994 0.54591 0.0
O200 O 0.76942 0.18894 0.53066 0.0
H201 H 0.67884 0.15777 0.47961 0.0
C202 C 0.85232 0.00545 0.52559 0.0
C203 C 0.83682 0.0351 0.6322 0.0
C204 C 0.84185 0.03778 0.41997 0.0
C205 C 0.81612 0.10098 0.42203 0.0
C206 C 0.80132 0.13138 0.52835 0.0
C207 C 0.8126 0.0988 0.63269 0.0
loop_
_geom_bond_atom_site_label_1
_geom_bond_atom_site_label_2
_geom_bond_distance
_geom_bond_site_symmetry_2
_ccdc_geom_bond_type
Zn0 O2 1.933 1_556 S
Zn0 O20 1.985 . S
Zn0 O31 1.955 . S
Zn1 O2 1.911 . S
Zn1 O21 1.970 . S
Zn1 O37 1.945 . S
Zn1 O44 1.981 . S
O2 Zn0 1.933 1_554 S
O2 Zn1 1.911 . S
O2 H3 0.841 1_655 S
H3 O2 0.841 1_455 S
C4 O5 1.246 . S
C4 O33 1.276 1_545 S
O5 C4 1.246 . S
Zn6 O8 1.911 . S
Zn6 O23 1.970 . S
Zn6 O40 1.945 . S
Zn6 O47 1.981 . S
Zn7 O8 1.933 1_556 S
Zn7 O22 1.985 . S
Zn7 O29 1.955 . S
O8 Zn6 1.911 . S
O8 Zn7 1.933 1_554 S
O8 H9 0.841 1_455 S
H9 O8 0.841 1_655 S
Zn10 O11 1.933 1_556 S
Zn10 O24 1.985 . S
Zn10 O33 1.955 . S
O11 Zn10 1.933 1_554 S
O11 Zn12 1.911 . S
O11 H13 0.841 1_565 S
Zn12 O11 1.911 . S
Zn12 O25 1.970 . S
Zn12 O41 1.981 . S
Zn12 O43 1.945 . S
H13 O11 0.841 1_545 S
Zn14 O15 1.933 1_556 S
Zn14 O27 1.985 . S
Zn14 O35 1.955 . S
O15 Zn14 1.933 1_554 S
O15 H16 0.841 1_545 S
O15 Zn17 1.911 . S
H16 O15 0.841 1_565 S
Zn17 O15 1.911 . S
Zn17 O28 1.970 . S
Zn17 O38 1.981 . S
Zn17 O46 1.945 . S
C18 O19 1.246 . S
C18 O35 1.276 1_565 S
O19 C18 1.246 . S
O20 Zn0 1.985 . S
O20 C30 1.245 1_556 S
O21 Zn1 1.970 . S
O21 C30 1.263 . S
O22 Zn7 1.985 . S
O22 C34 1.245 1_556 S
O23 Zn6 1.970 . S
O23 C34 1.263 . S
O24 Zn10 1.985 . S
O24 C39 1.245 1_556 S
O25 Zn12 1.970 . S
O25 C39 1.263 . S
C26 O37 1.262 1_455 S
C26 O38 1.245 . S
O27 Zn14 1.985 . S
O27 C45 1.245 1_556 S
O28 Zn17 1.970 . S
O28 C45 1.263 . S
O29 Zn7 1.955 . S
O29 C48 1.276 1_455 S
C30 O20 1.245 1_554 S
C30 O21 1.263 . S
O31 Zn0 1.955 . S
O31 C50 1.276 1_655 S
C32 O40 1.262 1_655 S
C32 O41 1.245 . S
O33 C4 1.276 1_565 S
O33 Zn10 1.955 . S
C34 O22 1.245 1_554 S
C34 O23 1.263 . S
O35 Zn14 1.955 . S
O35 C18 1.276 1_545 S
C36 O43 1.262 1_545 S
C36 O44 1.245 . S
O37 Zn1 1.945 . S
O37 C26 1.262 1_655 S
O38 Zn17 1.981 . S
O38 C26 1.245 . S
C39 O24 1.245 1_554 S
C39 O25 1.263 . S
O40 Zn6 1.945 . S
O40 C32 1.262 1_455 S
O41 Zn12 1.981 . S
O41 C32 1.245 . S
C42 O46 1.262 1_565 S
C42 O47 1.245 . S
O43 Zn12 1.945 . S
O43 C36 1.262 1_565 S
O44 Zn1 1.981 . S
O44 C36 1.245 . S
C45 O27 1.245 1_554 S
C45 O28 1.263 . S
O46 Zn17 1.945 . S
O46 C42 1.262 1_545 S
O47 Zn6 1.981 . S
O47 C42 1.245 . S
C48 O29 1.276 1_655 S
C48 O49 1.246 . S
O49 C48 1.246 . S
C50 O31 1.276 1_455 S
C50 O51 1.246 . S
O51 C50 1.246 . S
Zn52 O54 1.933 . S
Zn52 O72 1.985 . S
Zn52 O83 1.955 . S
Zn53 O54 1.911 . S
Zn53 O73 1.970 . S
Zn53 O89 1.945 . S
Zn53 O96 1.981 . S
O54 Zn52 1.933 . S
O54 Zn53 1.911 . S
O54 H55 0.841 . S
H55 O54 0.841 . S
C56 O57 1.246 . S
C56 O85 1.276 . S
O57 C56 1.246 . S
Zn58 O60 1.911 . S
Zn58 O75 1.970 . S
Zn58 O92 1.945 . S
Zn58 O99 1.981 . S
Zn59 O60 1.933 . S
Zn59 O74 1.985 . S
Zn59 O81 1.955 . S
O60 Zn58 1.911 . S
O60 Zn59 1.933 . S
O60 H61 0.841 . S
H61 O60 0.841 . S
Zn62 O63 1.933 . S
Zn62 O76 1.985 . S
Zn62 O85 1.955 . S
O63 Zn62 1.933 . S
O63 Zn64 1.911 . S
O63 H65 0.841 . S
Zn64 O63 1.911 . S
Zn64 O77 1.970 . S
Zn64 O93 1.981 . S
Zn64 O95 1.945 . S
H65 O63 0.841 . S
Zn66 O67 1.933 . S
Zn66 O79 1.985 . S
Zn66 O87 1.955 . S
O67 Zn66 1.933 . S
O67 H68 0.841 . S
O67 Zn69 1.911 . S
H68 O67 0.841 . S
Zn69 O67 1.911 . S
Zn69 O80 1.970 . S
Zn69 O90 1.981 . S
Zn69 O98 1.945 . S
C70 O71 1.246 . S
C70 O87 1.276 . S
O71 C70 1.246 . S
O72 Zn52 1.985 . S
O72 C82 1.245 . S
O73 Zn53 1.970 . S
O73 C82 1.263 . S
O74 Zn59 1.985 . S
O74 C86 1.245 . S
O75 Zn58 1.970 . S
O75 C86 1.263 . S
O76 Zn62 1.985 . S
O76 C91 1.245 . S
O77 Zn64 1.970 . S
O77 C91 1.263 . S
C78 O89 1.262 . S
C78 O90 1.245 . S
O79 Zn66 1.985 . S
O79 C97 1.245 . S
O80 Zn69 1.970 . S
O80 C97 1.263 . S
O81 Zn59 1.955 . S
O81 C100 1.276 . S
C82 O72 1.245 . S
C82 O73 1.263 . S
O83 Zn52 1.955 . S
O83 C102 1.276 . S
C84 O92 1.262 . S
C84 O93 1.245 . S
O85 C56 1.276 . S
O85 Zn62 1.955 . S
C86 O74 1.245 . S
C86 O75 1.263 . S
O87 Zn66 1.955 . S
O87 C70 1.276 . S
C88 O95 1.262 . S
C88 O96 1.245 . S
O89 Zn53 1.945 . S
O89 C78 1.262 . S
O90 Zn69 1.981 . S
O90 C78 1.245 . S
C91 O76 1.245 . S
C91 O77 1.263 . S
O92 Zn58 1.945 . S
O92 C84 1.262 . S
O93 Zn64 1.981 . S
O93 C84 1.245 . S
C94 O98 1.262 . S
C94 O99 1.245 . S
O95 Zn64 1.945 . S
O95 C88 1.262 . S
O96 Zn53 1.981 . S
O96 C88 1.245 . S
C97 O79 1.245 . S
C97 O80 1.263 . S
O98 Zn69 1.945 . S
O98 C94 1.262 . S
O99 Zn58 1.981 . S
O99 C94 1.245 . S
C100 O81 1.276 . S
C100 O101 1.246 . S
O101 C100 1.246 . S
C102 O83 1.276 . S
C102 O103 1.246 . S
O103 C102 1.246 . S
H104 C111 0.929 . S
H105 C114 0.930 . S
H106 C116 0.929 . S
H107 C108 0.969 . S
C108 H107 0.969 . S
C108 O109 1.550 1_554 S
C108 H110 0.973 . S
O109 C108 1.550 1_556 S
O109 C115 1.412 . S
H110 C108 0.973 . S
C111 H104 0.929 . S
C111 C112 1.400 1_554 S
C111 C113 1.364 . S
C112 C111 1.400 1_556 S
C112 C116 1.377 . S
C113 C111 1.364 . S
C113 C114 1.374 . S
C114 H105 0.930 . S
C114 C113 1.374 . S
C114 C115 1.383 1_554 S
C115 O109 1.412 . S
C115 C114 1.383 1_556 S
C115 C116 1.394 . S
C116 H106 0.929 . S
C116 C112 1.377 . S
C116 C115 1.394 . S
H117 C124 0.929 . S
H118 C127 0.930 . S
H119 C129 0.929 . S
H120 C121 0.969 . S
C121 H120 0.969 . S
C121 O122 1.550 1_554 S
C121 H123 0.973 . S
O122 C121 1.550 1_556 S
O122 C128 1.412 . S
H123 C121 0.973 . S
C124 H117 0.929 . S
C124 C125 1.400 1_554 S
C124 C126 1.364 . S
C125 C124 1.400 1_556 S
C125 C129 1.377 . S
C126 C124 1.364 . S
C126 C127 1.374 . S
C127 H118 0.930 . S
C127 C126 1.374 . S
C127 C128 1.383 1_554 S
C128 O122 1.412 . S
C128 C127 1.383 1_556 S
C128 C129 1.394 . S
C129 H119 0.929 . S
C129 C125 1.377 . S
C129 C128 1.394 . S
H130 C137 0.928 1_556 S
H131 C140 0.930 . S
H132 C142 0.929 . S
H133 C134 0.969 . S
C134 H133 0.969 . S
C134 O135 1.550 1_556 S
C134 H136 0.973 . S
O135 C134 1.550 1_554 S
O135 C141 1.412 . S
H136 C134 0.973 . S
C137 H130 0.928 1_554 S
C137 C138 1.400 . S
C137 C139 1.364 1_554 S
C138 C137 1.400 . S
C138 C142 1.377 . S
C139 C137 1.364 1_556 S
C139 C140 1.374 . S
C140 H131 0.930 . S
C140 C139 1.374 . S
C140 C141 1.383 1_556 S
C141 O135 1.412 . S
C141 C140 1.383 1_554 S
C141 C142 1.394 . S
C142 H132 0.929 . S
C142 C138 1.377 . S
C142 C141 1.394 . S
H143 C150 0.929 . S
H144 C153 0.930 . S
H145 C155 0.929 . S
H146 C147 0.969 . S
C147 H146 0.969 . S
C147 O148 1.550 1_554 S
C147 H149 0.973 . S
O148 C147 1.550 1_556 S
O148 C154 1.412 . S
H149 C147 0.973 . S
C150 H143 0.929 . S
C150 C151 1.400 1_554 S
C150 C152 1.364 . S
C151 C150 1.400 1_556 S
C151 C155 1.377 . S
C152 C150 1.364 . S
C152 C153 1.374 . S
C153 H144 0.930 . S
C153 C152 1.374 . S
C153 C154 1.383 1_554 S
C154 O148 1.412 . S
C154 C153 1.383 1_556 S
C154 C155 1.394 . S
C155 H145 0.929 . S
C155 C151 1.377 . S
C155 C154 1.394 . S
H156 C163 0.929 . S
H157 C166 0.930 . S
H158 C168 0.929 . S
H159 C160 0.969 . S
C160 H159 0.969 . S
C160 O161 1.550 . S
C160 H162 0.973 . S
O161 C160 1.550 . S
O161 C167 1.412 . S
H162 C160 0.973 . S
C163 H156 0.929 . S
C163 C164 1.400 . S
C163 C165 1.364 . S
C164 C163 1.400 . S
C164 C168 1.377 . S
C165 C163 1.364 . S
C165 C166 1.374 . S
C166 H157 0.930 . S
C166 C165 1.374 . S
C166 C167 1.383 . S
C167 O161 1.412 . S
C167 C166 1.383 . S
C167 C168 1.394 . S
C168 H158 0.929 . S
C168 C164 1.377 . S
C168 C167 1.394 . S
H169 C176 0.928 1_545 S
H170 C179 0.930 . S
H171 C181 0.929 . S
H172 C173 0.969 . S
C173 H172 0.969 . S
C173 O174 1.550 . S
C173 H175 0.973 . S
O174 C173 1.550 . S
O174 C180 1.412 . S
H175 C173 0.973 . S
C176 H169 0.928 1_565 S
C176 C177 1.400 . S
C176 C178 1.364 . S
C177 C176 1.400 . S
C177 C181 1.377 . S
C178 C176 1.364 . S
C178 C179 1.374 . S
C179 H170 0.930 . S
C179 C178 1.374 . S
C179 C180 1.383 . S
C180 O174 1.412 . S
C180 C179 1.383 . S
C180 C181 1.394 . S
C181 H171 0.929 . S
C181 C177 1.377 . S
C181 C180 1.394 . S
H182 C189 0.929 . S
H183 C192 0.930 . S
H184 C194 0.929 . S
H185 C186 0.969 . S
C186 H185 0.969 . S
C186 O187 1.550 . S
C186 H188 0.973 . S
O187 C186 1.550 . S
O187 C193 1.412 . S
H188 C186 0.973 . S
C189 H182 0.929 . S
C189 C190 1.400 . S
C189 C191 1.364 . S
C190 C189 1.400 . S
C190 C194 1.377 . S
C191 C189 1.364 . S
C191 C192 1.374 . S
C192 H183 0.930 . S
C192 C191 1.374 . S
C192 C193 1.383 . S
C193 O187 1.412 . S
C193 C192 1.383 . S
C193 C194 1.394 . S
C194 H184 0.929 . S
C194 C190 1.377 . S
C194 C193 1.394 . S
H195 C202 0.929 . S
H196 C205 0.930 . S
H197 C207 0.929 . S
H198 C199 0.969 . S
C199 H198 0.969 . S
C199 O200 1.550 . S
C199 H201 0.973 . S
O200 C199 1.550 . S
O200 C206 1.412 . S
H201 C199 0.973 . S
C202 H195 0.929 . S
C202 C203 1.400 . S
C202 C204 1.364 . S
C203 C202 1.400 . S
C203 C207 1.377 . S
C204 C202 1.364 . S
C204 C205 1.374 . S
C205 H196 0.930 . S
C205 C204 1.374 . S
C205 C206 1.383 . S
C206 O200 1.412 . S
C206 C205 1.383 . S
C206 C207 1.394 . S
C207 H197 0.929 . S
C207 C203 1.377 . S
C207 C206 1.394 . S
C45 C108 1.466 . S
C30 C121 1.491 . S
C39 C134 1.622 1_554 S
C147 C34 1.561 . S
C97 C160 1.497 . S
C173 C82 1.528 . S
C186 C91 1.595 . S
C199 C86 1.617 . S
C191 C26 1.499 . S
C204 C36 1.516 . S
C164 C32 1.477 . S
C177 C42 1.464 . S
C18 C178 1.625 . S
C190 C50 1.591 . S
C4 C203 1.559 . S
C48 C165 1.592 . S
C139 C78 1.529 . S
C88 C151 1.413 . S
C112 C84 1.536 . S
C125 C94 1.488 . S
C126 C70 1.608 . S
C138 C102 1.558 . S
C56 C152 1.679 . S
C100 C113 1.538 . S
