# Generated by pormake.
# Topology tsx, (6,3)-cn, num edge types: 1
# Building blocks:
#     Node 0, Type 0, BuildingBlock: JUFBIX_clean_sbu_0, # of connection points: 6
#     Node 1, Type 0, BuildingBlock: JUFBIX_clean_sbu_0, # of connection points: 6
#     Node 2, Type 1, BuildingBlock: ESEHIV_clean_linker_0, # of connection points: 3
#     Node 3, Type 1, BuildingBlock: ESEHIV_clean_linker_0, # of connection points: 3
#     Node 4, Type 1, BuildingBlock: ESEHIV_clean_linker_0, # of connection points: 3
#     Node 5, Type 1, BuildingBlock: ESEHIV_clean_linker_0, # of connection points: 3
#     Edge 6, Type (0, 1), None
#     Edge 7, Type (0, 1), None
#     Edge 8, Type (0, 1), None
#     Edge 9, Type (0, 1), None
#     Edge 10, Type (0, 1), None
#     Edge 11, Type (0, 1), None
#     Edge 12, Type (0, 1), None
#     Edge 13, Type (0, 1), None
#     Edge 14, Type (0, 1), None
#     Edge 15, Type (0, 1), None
#     Edge 16, Type (0, 1), None
#     Edge 17, Type (0, 1), None
# Relax obj value: 0.171
# Max RMSD: 0.195
# Mean RMSD: 0.156
data_MOF--net-tsx--node1-JUFBIX_clean_sbu_0--node2-ESEHIV_clean_linker_0--edge1-none
_symmetry_space_group_name_H-M    P1
_symmetry_Int_Tables_number       1
_symmetry_cell_setting            triclinic
loop_
_symmetry_equiv_pos_as_xyz
'x, y, z'
_cell_length_a     9.1579248
_cell_length_b     8.4722061
_cell_length_c     15.422691
_cell_angle_alpha  89.22133
_cell_angle_beta   90.019892
_cell_angle_gamma 113.52408
loop_
_atom_site_label
_atom_site_type_symbol
_atom_site_fract_x
_atom_site_fract_y
_atom_site_fract_z
_atom_type_partial_charge
Co0 Co 0.03947 0.96686 -0.01787 0.0
C1 C 0.02525 0.10712 0.80796 0.0
Co2 Co 0.90764 0.13543 -0.02658 0.0
C3 C 0.16795 0.70529 0.92 0.0
C4 C 0.32632 0.96723 0.93156 0.0
N5 N 0.18303 0.8558 -0.04003 0.0
N6 N 0.29955 0.72343 0.87124 0.0
C7 C 0.39643 0.89006 0.87965 0.0
H8 H 0.05801 0.59201 0.91877 0.0
H9 H 0.35994 1.10199 0.92836 0.0
C10 C 0.93585 0.99573 0.13694 0.0
N11 N 0.77352 0.2522 -0.03631 0.0
C12 C 0.73839 0.32974 0.89285 0.0
C13 C 0.67544 0.25967 0.02556 0.0
N14 N 0.61858 0.38175 0.90751 0.0
C15 C 0.58334 0.33723 -0.00833 0.0
C16 C 0.72682 0.77869 -0.01342 0.0
O17 O 1.01626 0.92421 0.09849 0.0
O18 O 0.87641 1.08763 0.09457 0.0
O19 O 0.72395 0.92031 -0.04134 0.0
O20 O 0.85482 0.75531 -0.02747 0.0
O21 O 0.94778 0.17909 0.84746 0.0
H22 H 0.66392 0.20306 0.08974 0.0
H23 H 0.79562 0.34359 0.83044 0.0
O24 O 0.06963 1.00979 0.85379 0.0
O25 O 0.21343 0.18994 0.02098 0.0
O26 O 0.07954 0.34969 0.00593 0.0
C27 C 0.19554 0.32859 0.04193 0.0
H28 H 0.50884 0.95535 0.84594 0.0
H29 H 0.48766 0.34101 0.02611 0.0
Co30 Co 0.65347 0.57609 0.47637 0.0
C31 C 0.55134 0.61301 0.30261 0.0
Co32 Co 0.51835 0.7416 0.46471 0.0
C33 C 0.78648 0.33818 0.40148 0.0
C34 C 0.95475 0.56249 0.45877 0.0
N35 N 0.79751 0.46397 0.45921 0.0
N36 N 0.92952 0.36031 0.36451 0.0
C37 C 0.032 0.51016 0.39636 0.0
H38 H 0.67462 0.2354 0.38442 0.0
H39 H 1.00977 0.66759 0.50155 0.0
C40 C 0.60183 0.67321 0.62866 0.0
N41 N 0.39159 0.86681 0.45287 0.0
C42 C 0.34475 0.93104 0.38071 0.0
C43 C 0.31307 0.89812 0.51824 0.0
N44 N 0.23746 0.99918 0.39929 0.0
C45 C 0.218 0.9726 0.48552 0.0
C46 C 0.34086 0.3984 0.52477 0.0
O47 O 0.67582 0.59227 0.5929 0.0
O48 O 0.53698 0.75637 0.58411 0.0
O49 O 0.33372 0.53358 0.49034 0.0
O50 O 0.46225 0.36428 0.50414 0.0
O51 O 0.49735 0.71148 0.3393 0.0
H52 H 0.30912 0.85058 0.58378 0.0
H53 H 0.38261 0.92196 0.31525 0.0
O54 O 0.62754 0.54919 0.34956 0.0
O55 O 0.8357 0.80413 0.47459 0.0
O56 O 0.69747 0.95818 0.46125 0.0
C57 C 0.81963 0.94372 0.49249 0.0
H58 H 0.15758 0.56744 0.38174 0.0
H59 H 0.12085 0.96915 0.52166 0.0
H60 H 0.78083 0.13503 0.2412 0.0
H61 H 0.07244 0.84108 0.25402 0.0
H62 H 0.20914 0.30832 0.38616 0.0
C63 C 0.87941 0.11222 0.2692 0.0
C64 C 0.97588 0.22818 0.32826 0.0
C65 C 0.93559 0.99765 0.2312 0.0
C66 C 0.0453 0.94716 0.27625 0.0
C67 C 0.1362 1.05167 0.34221 0.0
C68 C 0.11737 0.20736 0.35412 0.0
H69 H 0.81686 0.93044 0.684 0.0
H70 H 0.3022 0.29205 0.70597 0.0
H71 H 0.03155 0.28095 0.48675 0.0
C72 C 0.91909 1.02715 0.65422 0.0
C73 C 0.92169 1.06639 0.56379 0.0
C74 C 0.04847 0.12296 0.70952 0.0
C75 C 0.19528 0.23353 0.66812 0.0
C76 C 0.19681 0.27715 0.57811 0.0
C77 C 0.04732 0.21726 0.53915 0.0
H78 H 0.39096 0.75972 0.71087 0.0
H79 H 0.7315 0.53336 0.75042 0.0
H80 H 0.32555 0.3997 0.91042 0.0
C81 C 0.42916 0.67222 0.74661 0.0
C82 C 0.35421 0.60752 0.82414 0.0
C83 C 0.55821 0.63812 0.71848 0.0
C84 C 0.6247 0.5476 0.77125 0.0
C85 C 0.54743 0.46872 0.8479 0.0
C86 C 0.40084 0.4833 0.86534 0.0
H87 H 0.2785 0.38232 0.22016 0.0
H88 H 0.76622 0.68662 0.16453 0.0
H89 H 0.40919 0.66138 -0.01248 0.0
C90 C 0.36755 0.46756 0.17653 0.0
C91 C 0.32889 0.47678 0.08843 0.0
C92 C 0.52229 0.57226 0.20744 0.0
C93 C 0.64494 0.64739 0.1443 0.0
C94 C 0.606 0.67618 0.05768 0.0
C95 C 0.44271 0.61401 0.04112 0.0
loop_
_geom_bond_atom_site_label_1
_geom_bond_atom_site_label_2
_geom_bond_distance
_geom_bond_site_symmetry_2
_ccdc_geom_bond_type
Co0 N5 2.057 1_554 S
Co0 O17 2.021 . S
Co0 O20 2.062 1_455 S
Co0 O24 2.117 1_554 S
Co0 O25 2.020 1_565 S
C1 O21 1.263 . S
C1 O24 1.255 1_645 S
Co2 N11 2.057 . S
Co2 O18 2.117 . S
Co2 O19 2.020 1_545 S
Co2 O21 2.021 1_554 S
Co2 O26 2.062 1_655 S
C3 N5 1.316 1_554 S
C3 N6 1.347 1_554 S
C3 H8 0.931 . S
C4 N5 1.375 . S
C4 C7 1.350 . S
C4 H9 0.930 . S
N5 Co0 2.057 1_556 S
N5 C3 1.316 1_556 S
N5 C4 1.375 . S
N6 C3 1.347 1_556 S
N6 C7 1.373 . S
C7 C4 1.350 . S
C7 N6 1.373 . S
C7 H28 0.931 . S
H8 C3 0.931 . S
H9 C4 0.930 . S
C10 O17 1.259 1_545 S
C10 O18 1.258 1_455 S
N11 Co2 2.057 . S
N11 C12 1.316 1_554 S
N11 C13 1.375 . S
C12 N11 1.316 1_556 S
C12 N14 1.347 1_556 S
C12 H23 0.931 . S
C13 N11 1.375 . S
C13 C15 1.350 . S
C13 H22 0.930 . S
N14 C12 1.347 1_554 S
N14 C15 1.373 . S
C15 C13 1.350 . S
C15 N14 1.373 . S
C15 H29 0.931 . S
C16 O19 1.256 . S
C16 O20 1.255 . S
O17 Co0 2.021 . S
O17 C10 1.259 1_565 S
O18 Co2 2.117 . S
O18 C10 1.258 1_655 S
O19 Co2 2.020 1_565 S
O19 C16 1.256 . S
O20 Co0 2.062 1_655 S
O20 C16 1.255 . S
O21 C1 1.263 . S
O21 Co2 2.021 1_556 S
H22 C13 0.930 . S
H23 C12 0.931 . S
O24 Co0 2.117 1_556 S
O24 C1 1.255 1_465 S
O25 Co0 2.020 1_545 S
O25 C27 1.256 . S
O26 Co2 2.062 1_455 S
O26 C27 1.255 . S
C27 O25 1.256 . S
C27 O26 1.255 . S
H28 C7 0.931 . S
H29 C15 0.931 . S
Co30 N35 2.057 . S
Co30 O47 2.021 . S
Co30 O50 2.062 . S
Co30 O54 2.117 . S
Co30 O55 2.020 . S
C31 O51 1.259 . S
C31 O54 1.258 . S
Co32 N41 2.057 . S
Co32 O48 2.117 . S
Co32 O49 2.020 . S
Co32 O51 2.021 . S
Co32 O56 2.062 . S
C33 N35 1.316 . S
C33 N36 1.347 . S
C33 H38 0.931 . S
C34 N35 1.375 . S
C34 C37 1.350 . S
C34 H39 0.930 . S
N35 Co30 2.057 . S
N35 C33 1.316 . S
N35 C34 1.375 . S
N36 C33 1.347 . S
N36 C37 1.373 . S
C37 C34 1.350 . S
C37 N36 1.373 . S
C37 H58 0.931 . S
H38 C33 0.931 . S
H39 C34 0.930 . S
C40 O47 1.259 . S
C40 O48 1.258 . S
N41 Co32 2.057 . S
N41 C42 1.316 . S
N41 C43 1.375 . S
C42 N41 1.316 . S
C42 N44 1.347 . S
C42 H53 0.931 . S
C43 N41 1.375 . S
C43 C45 1.350 . S
C43 H52 0.930 . S
N44 C42 1.347 . S
N44 C45 1.373 . S
C45 C43 1.350 . S
C45 N44 1.373 . S
C45 H59 0.931 . S
C46 O49 1.256 . S
C46 O50 1.255 . S
O47 Co30 2.021 . S
O47 C40 1.259 . S
O48 Co32 2.117 . S
O48 C40 1.258 . S
O49 Co32 2.020 . S
O49 C46 1.256 . S
O50 Co30 2.062 . S
O50 C46 1.255 . S
O51 C31 1.259 . S
O51 Co32 2.021 . S
H52 C43 0.930 . S
H53 C42 0.931 . S
O54 Co30 2.117 . S
O54 C31 1.258 . S
O55 Co30 2.020 . S
O55 C57 1.256 . S
O56 Co32 2.062 . S
O56 C57 1.255 . S
C57 O55 1.256 . S
C57 O56 1.255 . S
H58 C37 0.931 . S
H59 C45 0.931 . S
H60 C63 0.931 . S
H61 C66 0.928 . S
H62 C68 0.930 . S
C63 H60 0.931 . S
C63 C64 1.413 . S
C63 C65 1.363 1_545 S
C64 C63 1.413 . S
C64 C68 1.430 1_655 S
C65 C63 1.363 1_565 S
C65 C66 1.369 1_655 S
C66 H61 0.928 . S
C66 C65 1.369 1_455 S
C66 C67 1.404 . S
C67 C66 1.404 . S
C67 C68 1.390 1_565 S
C68 H62 0.930 . S
C68 C64 1.430 1_455 S
C68 C67 1.390 1_545 S
H69 C72 0.931 . S
H70 C75 0.928 . S
H71 C77 0.930 . S
C72 H69 0.931 . S
C72 C73 1.413 . S
C72 C74 1.360 1_665 S
C73 C72 1.413 . S
C73 C77 1.429 1_665 S
C74 C72 1.360 1_445 S
C74 C75 1.372 . S
C75 H70 0.928 . S
C75 C74 1.372 . S
C75 C76 1.404 . S
C76 C75 1.404 . S
C76 C77 1.391 . S
C77 H71 0.930 . S
C77 C73 1.429 1_445 S
C77 C76 1.391 . S
H78 C81 0.931 . S
H79 C84 0.928 . S
H80 C86 0.933 . S
C81 H78 0.931 . S
C81 C82 1.413 . S
C81 C83 1.360 . S
C82 C81 1.413 . S
C82 C86 1.428 1_556 S
C83 C81 1.360 . S
C83 C84 1.372 . S
C84 H79 0.928 . S
C84 C83 1.372 . S
C84 C85 1.404 . S
C85 C84 1.404 . S
C85 C86 1.389 1_556 S
C86 H80 0.933 . S
C86 C82 1.428 1_554 S
C86 C85 1.389 1_554 S
H87 C90 0.931 . S
H88 C93 0.928 . S
H89 C95 0.930 1_556 S
C90 H87 0.931 . S
C90 C91 1.413 . S
C90 C92 1.360 . S
C91 C90 1.413 . S
C91 C95 1.429 . S
C92 C90 1.360 . S
C92 C93 1.372 . S
C93 H88 0.928 . S
C93 C92 1.372 . S
C93 C94 1.404 . S
C94 C93 1.404 . S
C94 C95 1.391 . S
C95 H89 0.930 1_554 S
C95 C91 1.429 . S
C95 C94 1.391 . S
C91 C27 1.544 . S
N6 C82 1.426 . S
C16 C94 1.512 . S
N14 C85 1.700 1_554 S
C57 C73 1.544 . S
N36 C64 1.426 . S
C76 C46 1.512 . S
C67 N44 1.700 . S
C10 C65 1.285 1_445 S
C1 C74 1.607 1_655 S
C83 C40 1.285 . S
C31 C92 1.607 . S
