# Generated by pormake.
# Topology anh, (6,3)-cn, num edge types: 1
# Building blocks:
#     Node 0, Type 0, BuildingBlock: PAMTUU_clean_sbu_0, # of connection points: 6
#     Node 1, Type 0, BuildingBlock: PAMTUU_clean_sbu_0, # of connection points: 6
#     Node 2, Type 0, BuildingBlock: PAMTUU_clean_sbu_0, # of connection points: 6
#     Node 3, Type 1, BuildingBlock: PAMTOO_clean_linker_0, # of connection points: 3
#     Node 4, Type 1, BuildingBlock: PAMTOO_clean_linker_0, # of connection points: 3
#     Node 5, Type 1, BuildingBlock: PAMTOO_clean_linker_0, # of connection points: 3
#     Node 6, Type 1, BuildingBlock: PAMTOO_clean_linker_0, # of connection points: 3
#     Node 7, Type 1, BuildingBlock: PAMTOO_clean_linker_0, # of connection points: 3
#     Node 8, Type 1, BuildingBlock: PAMTOO_clean_linker_0, # of connection points: 3
#     Edge 9, Type (0, 1), None
#     Edge 10, Type (0, 1), None
#     Edge 11, Type (0, 1), None
#     Edge 12, Type (0, 1), None
#     Edge 13, Type (0, 1), None
#     Edge 14, Type (0, 1), None
#     Edge 15, Type (0, 1), None
#     Edge 16, Type (0, 1), None
#     Edge 17, Type (0, 1), None
#     Edge 18, Type (0, 1), None
#     Edge 19, Type (0, 1), None
#     Edge 20, Type (0, 1), None
#     Edge 21, Type (0, 1), None
#     Edge 22, Type (0, 1), None
#     Edge 23, Type (0, 1), None
#     Edge 24, Type (0, 1), None
#     Edge 25, Type (0, 1), None
#     Edge 26, Type (0, 1), None
# Relax obj value: 0.795
# Max RMSD: 0.237
# Mean RMSD: 0.165
data_MOF--net-anh--node1-PAMTUU_clean_sbu_0--node2-PAMTOO_clean_linker_0--edge1-none
_symmetry_space_group_name_H-M    P1
_symmetry_Int_Tables_number       1
_symmetry_cell_setting            triclinic
loop_
_symmetry_equiv_pos_as_xyz
'x, y, z'
_cell_length_a     13.377764
_cell_length_b     13.365309
_cell_length_c     22.102689
_cell_angle_alpha  86.257232
_cell_angle_beta   91.9961
_cell_angle_gamma 117.59612
loop_
_atom_site_label
_atom_site_type_symbol
_atom_site_fract_x
_atom_site_fract_y
_atom_site_fract_z
_atom_type_partial_charge
Tb0 Tb 0.34879 0.81011 0.21844 0.0
Tb1 Tb 0.42368 0.68539 0.17729 0.0
C2 C 0.36791 0.80514 0.07598 0.0
C3 C 1.09116 0.81031 0.26139 0.0
C4 C 0.90019 0.67403 0.19495 0.0
C5 C 0.93558 0.79129 0.19591 0.0
C6 C 1.03334 0.85983 0.22768 0.0
C7 C 1.03564 0.69309 0.27477 0.0
C8 C 0.94078 0.62491 0.24139 0.0
C9 C 1.21538 0.8704 0.26383 0.0
O10 O 1.25337 0.61706 0.23084 0.0
O11 O 1.25512 0.61924 0.22799 0.0
O12 O 0.53585 0.70308 0.24737 0.0
O13 O 0.43802 0.77278 0.29695 0.0
O14 O 0.41058 0.58786 0.10304 0.0
O15 O 0.41102 0.52504 0.19559 0.0
O16 O 0.59458 0.84782 0.18315 0.0
O17 O 0.52288 0.96053 0.21218 0.0
O18 O 1.29941 0.80132 0.11877 0.0
O19 O 0.44849 0.78348 0.09441 0.0
C20 C 1.15649 0.54251 0.20579 0.0
O21 O 1.26348 0.81831 0.29468 0.0
O22 O 1.2641 0.90976 0.21146 0.0
C23 C 0.50961 0.72977 0.29708 0.0
C24 C 0.46392 0.43961 0.12107 0.0
C25 C 0.55897 0.30256 0.08777 0.0
C26 C 0.5351 0.30505 0.14867 0.0
C27 C 0.48754 0.3725 0.16517 0.0
C28 C 0.48423 0.43397 0.05979 0.0
C29 C 0.53177 0.3662 0.0433 0.0
C30 C 0.40589 0.50386 0.13861 0.0
C31 C 0.61422 0.95164 0.1989 0.0
H32 H 0.89812 0.83223 0.16603 0.0
H33 H 1.07133 0.95074 0.21926 0.0
H34 H 1.07442 0.65254 0.30398 0.0
H35 H 0.91117 0.53485 0.24687 0.0
H36 H 0.55769 0.25841 0.18369 0.0
H37 H 0.47 0.37247 0.21265 0.0
H38 H 0.46419 0.48243 0.0247 0.0
H39 H 0.55174 0.36707 -0.00389 0.0
Tb40 Tb 0.77579 0.24385 0.50477 0.0
Tb41 Tb 1.01687 0.36863 0.5551 0.0
C42 C 0.97004 0.33032 0.41443 0.0
C43 C 0.59213 1.01922 0.43007 0.0
C44 C 0.7566 0.95472 0.40226 0.0
C45 C 0.69756 0.98116 0.35569 0.0
C46 C 0.61688 1.01586 0.3692 0.0
C47 C 0.62577 0.95946 0.47358 0.0
C48 C 0.71514 0.93868 0.46108 0.0
C49 C 0.59864 1.12507 0.45068 0.0
O50 O 0.80784 1.10456 0.55292 0.0
O51 O 0.99846 1.19471 0.55136 0.0
O52 O 0.8983 0.27612 0.63029 0.0
O53 O 0.74077 0.27872 0.59137 0.0
O54 O 1.17578 0.3773 0.56589 0.0
O55 O 1.12711 0.47615 0.6197 0.0
O56 O 0.97292 0.51009 0.55902 0.0
O57 O 0.81076 0.42692 0.50273 0.0
O58 O 0.88974 0.23819 0.4391 0.0
O59 O 1.03109 0.4093 0.45285 0.0
C60 C 0.90496 1.09916 0.55931 0.0
O61 O 0.60147 1.13182 0.50953 0.0
O62 O 0.67856 0.21674 0.42464 0.0
C63 C 0.79572 0.26385 0.63738 0.0
C64 C 0.31909 0.54431 0.59678 0.0
C65 C 0.49866 0.65658 0.51867 0.0
C66 C 0.49962 0.57434 0.561 0.0
C67 C 0.40949 0.5184 0.60064 0.0
C68 C 0.33034 0.64179 0.56385 0.0
C69 C 0.42104 0.69874 0.52507 0.0
C70 C 1.20722 0.45144 0.60713 0.0
C71 C 0.88608 0.51606 0.53213 0.0
H72 H 0.7215 0.98451 0.30969 0.0
H73 H 0.58841 1.05608 0.33341 0.0
H74 H 0.60033 0.94974 0.52051 0.0
H75 H 0.75028 0.9088 0.49782 0.0
H76 H 0.56042 0.54257 0.55788 0.0
H77 H 0.402 0.44388 0.62691 0.0
H78 H 1.26196 0.66404 0.56121 0.0
H79 H 0.4212 0.76522 0.4943 0.0
Tb80 Tb 0.87526 0.68651 0.83233 0.0
Tb81 Tb 0.96211 0.91981 0.89078 0.0
C82 C 0.96105 0.8914 0.7512 0.0
C83 C 0.66718 0.429 0.76692 0.0
C84 C 0.45413 0.24408 0.75476 0.0
C85 C 0.51081 0.3112 0.70323 0.0
C86 C 0.61797 0.40233 0.70929 0.0
C87 C 0.60198 0.37397 0.81869 0.0
C88 C 0.49533 0.28206 0.81258 0.0
C89 C 0.78573 0.51424 0.77206 0.0
O90 O 1.04268 0.71059 0.87137 0.0
O91 O 1.11934 0.89988 0.88861 0.0
O92 O 0.94184 0.79423 0.96448 0.0
O93 O 0.80928 0.63534 0.92183 0.0
O94 O 1.05347 1.09727 0.88097 0.0
O95 O 0.98229 1.01344 0.96698 0.0
O96 O 0.7771 0.859 0.89939 0.0
O97 O 0.72419 0.71954 0.83294 0.0
O98 O 0.99325 0.81866 0.77292 0.0
O99 O 0.92451 0.93491 0.79161 0.0
C100 C 1.13109 0.80648 0.88695 0.0
O101 O 0.80709 0.61476 0.74989 0.0
O102 O 0.83626 0.51674 0.82416 0.0
C103 C 0.86497 0.68763 0.96903 0.0
C104 C 0.9529 1.16772 0.93361 0.0
C105 C 0.79911 0.20926 0.86267 0.0
C106 C 0.75976 1.1219 0.90838 0.0
C107 C 0.83672 1.10296 0.94487 0.0
C108 C 0.9903 0.27092 0.89998 0.0
C109 C 0.9126 0.29328 0.86569 0.0
C110 C 1.02217 1.10847 0.93446 0.0
C111 C 0.69729 0.78288 0.8665 0.0
H112 H 0.4797 0.28396 0.65821 0.0
H113 H 0.66541 0.44681 0.66887 0.0
H114 H 0.63625 0.39642 0.86379 0.0
H115 H 0.4522 0.2321 0.85289 0.0
H116 H 0.67252 1.05816 0.91072 0.0
H117 H 0.8048 1.02607 0.97379 0.0
H118 H 1.07961 0.3253 0.89284 0.0
H119 H 0.94447 0.36803 0.8352 0.0
H120 H 1.1331 0.49589 0.33277 0.0
H121 H 0.81714 1.19088 0.33742 0.0
H122 H 0.95913 0.35021 0.16552 0.0
H123 H 0.79999 1.02537 0.21671 0.0
C124 C 0.74251 1.05788 0.19691 0.0
O125 O 0.77266 1.16618 0.2221 0.0
H126 H 0.76522 1.07609 0.14818 0.0
C127 C 1.0647 0.42975 0.30902 0.0
C128 C 1.06247 0.43738 0.24374 0.0
C129 C 0.97733 0.33955 0.34401 0.0
C130 C 0.88664 0.25329 0.31174 0.0
C131 C 0.87634 0.24893 0.2478 0.0
C132 C 0.96576 0.34531 0.21445 0.0
H133 H 0.92042 1.04846 0.67941 0.0
H134 H 0.95819 0.7452 0.67092 0.0
H135 H 0.92335 0.91315 0.50704 0.0
H136 H 0.82691 0.63162 0.49343 0.0
C137 C 0.86002 0.6198 0.53833 0.0
O138 O 0.94543 0.72803 0.55508 0.0
H139 H 0.78822 0.5903 0.57024 0.0
C140 C 0.92271 0.98411 0.65294 0.0
C141 C 0.91263 0.9926 0.5887 0.0
C142 C 0.94139 0.89708 0.68327 0.0
C143 C 0.94339 0.8117 0.64864 0.0
C144 C 0.93127 0.81073 0.58531 0.0
C145 C 0.92148 0.90591 0.55559 0.0
H146 H 1.18639 0.80408 0.00651 0.0
H147 H 0.52029 0.83342 -0.00772 0.0
H148 H 0.32499 0.80919 0.83064 0.0
H149 H 0.51841 0.68673 0.84092 0.0
C150 C 0.56751 0.74594 0.87633 0.0
O151 O 0.53003 0.82974 0.87742 0.0
H152 H 0.54475 0.69514 0.92017 0.0
C153 C 1.25409 0.80927 0.97882 0.0
C154 C 1.24031 0.80709 0.91444 0.0
C155 C 0.35329 0.81605 0.00784 0.0
C156 C 0.44232 0.8244 0.97131 0.0
C157 C 0.4347 0.81825 0.90823 0.0
C158 C 0.332 0.8099 0.87956 0.0
H159 H 0.41597 0.66764 0.40688 0.0
H160 H 0.71596 0.74825 0.3083 0.0
H161 H 0.71824 0.71658 0.50202 0.0
H162 H 0.87911 0.95338 0.33991 0.0
C163 C 0.85659 0.93373 0.38872 0.0
O164 O 0.83617 0.82265 0.40378 0.0
H165 H 0.93097 0.99222 0.41466 0.0
C166 C 0.50284 0.68252 0.40683 0.0
C167 C 0.55826 0.67789 0.46108 0.0
C168 C 0.5599 0.70835 0.35223 0.0
C169 C 0.66954 0.72121 0.35057 0.0
C170 C 0.73005 0.73661 0.40461 0.0
C171 C 0.67183 0.70233 0.45976 0.0
H172 H 0.88294 0.28233 0.74854 0.0
H173 H 0.56942 1.13231 0.65172 0.0
H174 H 0.56704 1.10088 0.84524 0.0
H175 H 0.31854 1.08375 0.78671 0.0
C176 C 0.37879 1.11909 0.74832 0.0
O177 O 0.44158 1.0597 0.74802 0.0
H178 H 0.3299 1.1055 0.70528 0.0
C179 C 0.79185 0.23583 0.74968 0.0
C180 C 0.73368 1.19539 0.80512 0.0
C181 C 0.73393 0.21532 0.69457 0.0
C182 C 0.61605 1.14872 0.69411 0.0
C183 C 0.55637 1.10824 0.74853 0.0
C184 C 0.61521 1.13059 0.80375 0.0
H185 H 0.90552 0.76615 0.07963 0.0
H186 H 0.79339 0.46221 0.98576 0.0
H187 H 0.78878 0.4415 0.17897 0.0
H188 H 0.61253 1.17344 0.10048 0.0
C189 C 0.63509 0.25281 0.07229 0.0
O190 O 0.74781 0.32728 0.08243 0.0
H191 H 0.62357 0.23054 0.02407 0.0
C192 C 0.86959 0.67506 0.08192 0.0
C193 C 0.85194 0.61278 0.13816 0.0
C194 C 0.84651 0.62163 0.02716 0.0
C195 C 0.80923 0.50483 0.02777 0.0
C196 C 0.78965 0.44116 0.08259 0.0
C197 C 0.80772 0.49411 0.13745 0.0
loop_
_geom_bond_atom_site_label_1
_geom_bond_atom_site_label_2
_geom_bond_distance
_geom_bond_site_symmetry_2
_ccdc_geom_bond_type
Tb0 C9 2.764 . S
Tb0 O10 2.325 . S
Tb0 O13 2.303 1_655 S
Tb0 O17 2.322 1_655 S
Tb0 O18 2.349 . S
Tb0 O21 2.415 . S
Tb0 O22 2.399 . S
Tb1 O11 2.322 1_455 S
Tb1 O12 2.349 . S
Tb1 O14 2.415 . S
Tb1 O15 2.399 . S
Tb1 O16 2.325 . S
Tb1 O19 2.303 . S
Tb1 C30 2.764 . S
C2 O18 1.261 1_455 S
C2 O19 1.257 . S
C3 C6 1.358 . S
C3 C7 1.332 . S
C3 C9 1.504 . S
C4 C5 1.373 . S
C4 C8 1.308 . S
C5 C4 1.373 . S
C5 C6 1.429 . S
C5 H32 0.932 . S
C6 C3 1.358 . S
C6 C5 1.429 . S
C6 H33 0.930 . S
C7 C3 1.332 . S
C7 C8 1.394 . S
C7 H34 0.932 . S
C8 C4 1.308 . S
C8 C7 1.394 . S
C8 H35 0.929 . S
C9 Tb0 2.764 . S
C9 C3 1.504 . S
C9 O21 1.239 . S
C9 O22 1.263 . S
O10 Tb0 2.325 . S
O10 C20 1.236 . S
O11 Tb1 2.322 1_655 S
O11 C20 1.257 . S
O12 Tb1 2.349 . S
O12 C23 1.261 . S
O13 Tb0 2.303 1_455 S
O13 C23 1.257 . S
O14 Tb1 2.415 . S
O14 C30 1.239 . S
O15 Tb1 2.399 . S
O15 C30 1.263 . S
O16 Tb1 2.325 . S
O16 C31 1.236 . S
O17 Tb0 2.322 1_455 S
O17 C31 1.257 . S
O18 Tb0 2.349 . S
O18 C2 1.261 1_655 S
O19 Tb1 2.303 . S
O19 C2 1.257 . S
C20 O10 1.236 . S
C20 O11 1.257 . S
O21 Tb0 2.415 . S
O21 C9 1.239 . S
O22 Tb0 2.399 . S
O22 C9 1.263 . S
C23 O12 1.261 . S
C23 O13 1.257 . S
C24 C27 1.358 . S
C24 C28 1.332 . S
C24 C30 1.504 . S
C25 C26 1.373 . S
C25 C29 1.308 . S
C26 C25 1.373 . S
C26 C27 1.429 . S
C26 H36 0.932 . S
C27 C24 1.358 . S
C27 C26 1.429 . S
C27 H37 0.930 . S
C28 C24 1.332 . S
C28 C29 1.394 . S
C28 H38 0.932 . S
C29 C25 1.308 . S
C29 C28 1.394 . S
C29 H39 0.929 . S
C30 Tb1 2.764 . S
C30 O14 1.239 . S
C30 O15 1.263 . S
C30 C24 1.504 . S
C31 O16 1.236 . S
C31 O17 1.257 . S
H32 C5 0.932 . S
H33 C6 0.930 . S
H34 C7 0.932 . S
H35 C8 0.929 . S
H36 C26 0.932 . S
H37 C27 0.930 . S
H38 C28 0.932 . S
H39 C29 0.929 . S
Tb40 C49 2.764 . S
Tb40 O50 2.325 . S
Tb40 O53 2.303 1_565 S
Tb40 O57 2.322 1_565 S
Tb40 O58 2.349 . S
Tb40 O61 2.415 . S
Tb40 O62 2.399 . S
Tb41 O51 2.322 1_545 S
Tb41 O52 2.349 . S
Tb41 O54 2.415 . S
Tb41 O55 2.399 . S
Tb41 O56 2.325 . S
Tb41 O59 2.303 . S
Tb41 C70 2.764 . S
C42 O58 1.261 1_545 S
C42 O59 1.257 . S
C43 C46 1.358 . S
C43 C47 1.332 . S
C43 C49 1.504 . S
C44 C45 1.373 . S
C44 C48 1.308 . S
C45 C44 1.373 . S
C45 C46 1.429 . S
C45 H72 0.932 . S
C46 C43 1.358 . S
C46 C45 1.429 . S
C46 H73 0.930 . S
C47 C43 1.332 . S
C47 C48 1.394 . S
C47 H74 0.932 . S
C48 C44 1.308 . S
C48 C47 1.394 . S
C48 H75 0.929 . S
C49 Tb40 2.764 . S
C49 C43 1.504 . S
C49 O61 1.239 . S
C49 O62 1.263 . S
O50 Tb40 2.325 . S
O50 C60 1.236 . S
O51 Tb41 2.322 1_565 S
O51 C60 1.257 . S
O52 Tb41 2.349 . S
O52 C63 1.261 . S
O53 Tb40 2.303 1_545 S
O53 C63 1.257 . S
O54 Tb41 2.415 . S
O54 C70 1.239 . S
O55 Tb41 2.399 . S
O55 C70 1.263 . S
O56 Tb41 2.325 . S
O56 C71 1.236 . S
O57 Tb40 2.322 1_545 S
O57 C71 1.257 . S
O58 Tb40 2.349 . S
O58 C42 1.261 1_565 S
O59 Tb41 2.303 . S
O59 C42 1.257 . S
C60 O50 1.236 . S
C60 O51 1.257 . S
O61 Tb40 2.415 . S
O61 C49 1.239 . S
O62 Tb40 2.399 . S
O62 C49 1.263 . S
C63 O52 1.261 . S
C63 O53 1.257 . S
C64 C67 1.358 . S
C64 C68 1.332 . S
C64 C70 1.504 . S
C65 C66 1.373 . S
C65 C69 1.308 1_455 S
C66 C65 1.373 . S
C66 C67 1.429 1_455 S
C66 H76 0.932 . S
C67 C64 1.358 . S
C67 C66 1.429 1_655 S
C67 H77 0.930 . S
C68 C64 1.332 . S
C68 C69 1.394 . S
C68 H78 0.932 . S
C69 C65 1.308 1_655 S
C69 C68 1.394 . S
C69 H79 0.929 . S
C70 Tb41 2.764 . S
C70 O54 1.239 . S
C70 O55 1.263 . S
C70 C64 1.504 . S
C71 O56 1.236 . S
C71 O57 1.257 . S
H72 C45 0.932 . S
H73 C46 0.930 . S
H74 C47 0.932 . S
H75 C48 0.929 . S
H76 C66 0.932 . S
H77 C67 0.930 . S
H78 C68 0.932 . S
H79 C69 0.929 . S
Tb80 C89 2.764 . S
Tb80 O90 2.325 . S
Tb80 O93 2.303 . S
Tb80 O97 2.322 . S
Tb80 O98 2.349 . S
Tb80 O101 2.415 . S
Tb80 O102 2.399 . S
Tb81 O91 2.322 . S
Tb81 O92 2.349 1_556 S
Tb81 O94 2.415 . S
Tb81 O95 2.399 . S
Tb81 O96 2.325 . S
Tb81 O99 2.303 . S
Tb81 C110 2.764 . S
C82 O98 1.261 . S
C82 O99 1.257 . S
C83 C86 1.358 . S
C83 C87 1.332 . S
C83 C89 1.504 . S
C84 C85 1.373 . S
C84 C88 1.308 . S
C85 C84 1.373 . S
C85 C86 1.429 . S
C85 H112 0.932 . S
C86 C83 1.358 . S
C86 C85 1.429 . S
C86 H113 0.930 . S
C87 C83 1.332 . S
C87 C88 1.394 . S
C87 H114 0.932 . S
C88 C84 1.308 . S
C88 C87 1.394 . S
C88 H115 0.929 . S
C89 Tb80 2.764 . S
C89 C83 1.504 . S
C89 O101 1.239 . S
C89 O102 1.263 . S
O90 Tb80 2.325 . S
O90 C100 1.236 . S
O91 Tb81 2.322 . S
O91 C100 1.257 . S
O92 Tb81 2.349 1_554 S
O92 C103 1.261 . S
O93 Tb80 2.303 . S
O93 C103 1.257 1_556 S
O94 Tb81 2.415 . S
O94 C110 1.239 . S
O95 Tb81 2.399 . S
O95 C110 1.263 . S
O96 Tb81 2.325 . S
O96 C111 1.236 . S
O97 Tb80 2.322 . S
O97 C111 1.257 . S
O98 Tb80 2.349 . S
O98 C82 1.261 . S
O99 Tb81 2.303 . S
O99 C82 1.257 . S
C100 O90 1.236 . S
C100 O91 1.257 . S
O101 Tb80 2.415 . S
O101 C89 1.239 . S
O102 Tb80 2.399 . S
O102 C89 1.263 . S
C103 O92 1.261 . S
C103 O93 1.257 1_554 S
C104 C107 1.358 . S
C104 C108 1.332 . S
C104 C110 1.504 . S
C105 C106 1.373 1_545 S
C105 C109 1.308 1_545 S
C106 C105 1.373 1_565 S
C106 C107 1.429 . S
C106 H116 0.932 1_565 S
C107 C104 1.358 . S
C107 C106 1.429 . S
C107 H117 0.930 . S
C108 C104 1.332 . S
C108 C109 1.394 . S
C108 H118 0.932 . S
C109 C105 1.308 1_565 S
C109 C108 1.394 . S
C109 H119 0.929 . S
C110 Tb81 2.764 . S
C110 O94 1.239 . S
C110 O95 1.263 . S
C110 C104 1.504 . S
C111 O96 1.236 . S
C111 O97 1.257 . S
H112 C85 0.932 . S
H113 C86 0.930 . S
H114 C87 0.932 . S
H115 C88 0.929 . S
H116 C106 0.932 1_545 S
H117 C107 0.930 . S
H118 C108 0.932 . S
H119 C109 0.929 . S
H120 C127 0.929 . S
H121 C130 0.930 . S
H122 C132 0.929 . S
H123 C124 0.969 . S
C124 H123 0.969 . S
C124 O125 1.550 . S
C124 H126 0.973 . S
O125 C124 1.550 . S
O125 C131 1.412 . S
H126 C124 0.973 . S
C127 H120 0.929 . S
C127 C128 1.400 . S
C127 C129 1.364 . S
C128 C127 1.400 . S
C128 C132 1.377 . S
C129 C127 1.364 . S
C129 C130 1.374 1_545 S
C130 H121 0.930 . S
C130 C129 1.374 1_565 S
C130 C131 1.383 . S
C131 O125 1.412 . S
C131 C130 1.383 . S
C131 C132 1.394 1_565 S
C132 H122 0.929 . S
C132 C128 1.377 . S
C132 C131 1.394 1_545 S
H133 C140 0.929 . S
H134 C143 0.930 . S
H135 C145 0.929 . S
H136 C137 0.969 . S
C137 H136 0.969 . S
C137 O138 1.550 . S
C137 H139 0.973 . S
O138 C137 1.550 . S
O138 C144 1.412 . S
H139 C137 0.973 . S
C140 H133 0.929 . S
C140 C141 1.400 . S
C140 C142 1.364 . S
C141 C140 1.400 . S
C141 C145 1.377 . S
C142 C140 1.364 . S
C142 C143 1.374 . S
C143 H134 0.930 . S
C143 C142 1.374 . S
C143 C144 1.383 . S
C144 O138 1.412 . S
C144 C143 1.383 . S
C144 C145 1.394 . S
C145 H135 0.929 . S
C145 C141 1.377 . S
C145 C144 1.394 . S
H146 C153 0.929 . S
H147 C156 0.930 . S
H148 C158 0.929 . S
H149 C150 0.969 . S
C150 H149 0.969 . S
C150 O151 1.550 . S
C150 H152 0.973 . S
O151 C150 1.550 . S
O151 C157 1.412 . S
H152 C150 0.973 . S
C153 H146 0.929 . S
C153 C154 1.400 . S
C153 C155 1.364 1_656 S
C154 C153 1.400 . S
C154 C158 1.377 1_655 S
C155 C153 1.364 1_454 S
C155 C156 1.374 1_554 S
C156 H147 0.930 . S
C156 C155 1.374 1_556 S
C156 C157 1.383 . S
C157 O151 1.412 . S
C157 C156 1.383 . S
C157 C158 1.394 . S
C158 H148 0.929 . S
C158 C154 1.377 1_455 S
C158 C157 1.394 . S
H159 C166 0.929 . S
H160 C169 0.930 . S
H161 C171 0.929 . S
H162 C163 0.969 . S
C163 H162 0.969 . S
C163 O164 1.550 . S
C163 H165 0.973 . S
O164 C163 1.550 . S
O164 C170 1.412 . S
H165 C163 0.973 . S
C166 H159 0.929 . S
C166 C167 1.400 . S
C166 C168 1.364 . S
C167 C166 1.400 . S
C167 C171 1.377 . S
C168 C166 1.364 . S
C168 C169 1.374 1_655 S
C169 H160 0.930 . S
C169 C168 1.374 1_455 S
C169 C170 1.383 . S
C170 O164 1.412 . S
C170 C169 1.383 . S
C170 C171 1.394 1_455 S
C171 H161 0.929 . S
C171 C167 1.377 . S
C171 C170 1.394 1_655 S
H172 C179 0.929 . S
H173 C182 0.930 . S
H174 C184 0.929 . S
H175 C176 0.969 . S
C176 H175 0.969 . S
C176 O177 1.550 . S
C176 H178 0.973 . S
O177 C176 1.550 . S
O177 C183 1.412 . S
H178 C176 0.973 . S
C179 H172 0.929 . S
C179 C180 1.400 . S
C179 C181 1.364 . S
C180 C179 1.400 . S
C180 C184 1.377 . S
C181 C179 1.364 . S
C181 C182 1.374 1_565 S
C182 H173 0.930 . S
C182 C181 1.374 1_545 S
C182 C183 1.383 . S
C183 O177 1.412 . S
C183 C182 1.383 . S
C183 C184 1.394 1_545 S
C184 H174 0.929 . S
C184 C180 1.377 . S
C184 C183 1.394 1_565 S
H185 C192 0.929 . S
H186 C195 0.930 1_556 S
H187 C197 0.929 . S
H188 C189 0.969 . S
C189 H188 0.969 . S
C189 O190 1.550 . S
C189 H191 0.973 . S
O190 C189 1.550 . S
O190 C196 1.412 . S
H191 C189 0.973 . S
C192 H185 0.929 . S
C192 C193 1.400 1_556 S
C192 C194 1.364 . S
C193 C192 1.400 1_554 S
C193 C197 1.377 . S
C194 C192 1.364 . S
C194 C195 1.374 1_556 S
C195 H186 0.930 1_554 S
C195 C194 1.374 1_554 S
C195 C196 1.383 . S
C196 O190 1.412 . S
C196 C195 1.383 . S
C196 C197 1.394 . S
C197 H187 0.929 . S
C197 C193 1.377 . S
C197 C196 1.394 . S
C25 C189 3.802 . S
C65 C167 3.747 1_455 S
C105 C180 3.853 1_545 S
C4 C193 3.549 . S
C163 C44 3.508 . S
C176 C84 3.492 . S
C60 C141 4.606 . S
C100 C154 4.707 . S
C31 C124 4.574 . S
C137 C71 4.629 . S
C150 C111 4.524 . S
C20 C128 4.643 . S
C155 C2 2.016 . S
C42 C129 2.014 . S
C82 C142 2.034 . S
C181 C63 1.609 1_565 S
C194 C103 1.765 1_556 S
C23 C168 1.317 1_455 S
