# Generated by pormake.
# Topology pto, (3,4)-cn, num edge types: 1
# Building blocks:
#     Node 0, Type 0, BuildingBlock: ESEHIV_clean_linker_0, # of connection points: 3
#     Node 1, Type 0, BuildingBlock: ESEHIV_clean_linker_0, # of connection points: 3
#     Node 2, Type 0, BuildingBlock: ESEHIV_clean_linker_0, # of connection points: 3
#     Node 3, Type 0, BuildingBlock: ESEHIV_clean_linker_0, # of connection points: 3
#     Node 4, Type 0, BuildingBlock: ESEHIV_clean_linker_0, # of connection points: 3
#     Node 5, Type 0, BuildingBlock: ESEHIV_clean_linker_0, # of connection points: 3
#     Node 6, Type 0, BuildingBlock: ESEHIV_clean_linker_0, # of connection points: 3
#     Node 7, Type 0, BuildingBlock: ESEHIV_clean_linker_0, # of connection points: 3
#     Node 8, Type 1, BuildingBlock: NAWXER_clean_sbu_0, # of connection points: 4
#     Node 9, Type 1, BuildingBlock: NAWXER_clean_sbu_0, # of connection points: 4
#     Node 10, Type 1, BuildingBlock: NAWXER_clean_sbu_0, # of connection points: 4
#     Node 11, Type 1, BuildingBlock: NAWXER_clean_sbu_0, # of connection points: 4
#     Node 12, Type 1, BuildingBlock: NAWXER_clean_sbu_0, # of connection points: 4
#     Node 13, Type 1, BuildingBlock: NAWXER_clean_sbu_0, # of connection points: 4
#     Edge 14, Type (0, 1), None
#     Edge 15, Type (0, 1), None
#     Edge 16, Type (0, 1), None
#     Edge 17, Type (0, 1), None
#     Edge 18, Type (0, 1), None
#     Edge 19, Type (0, 1), None
#     Edge 20, Type (0, 1), None
#     Edge 21, Type (0, 1), None
#     Edge 22, Type (0, 1), None
#     Edge 23, Type (0, 1), None
#     Edge 24, Type (0, 1), None
#     Edge 25, Type (0, 1), None
#     Edge 26, Type (0, 1), None
#     Edge 27, Type (0, 1), None
#     Edge 28, Type (0, 1), None
#     Edge 29, Type (0, 1), None
#     Edge 30, Type (0, 1), None
#     Edge 31, Type (0, 1), None
#     Edge 32, Type (0, 1), None
#     Edge 33, Type (0, 1), None
#     Edge 34, Type (0, 1), None
#     Edge 35, Type (0, 1), None
#     Edge 36, Type (0, 1), None
#     Edge 37, Type (0, 1), None
# Relax obj value: 0.000
# Max RMSD: 0.005
# Mean RMSD: 0.003
data_MOF--net-pto--node1-NAWXER_clean_sbu_0--node2-ESEHIV_clean_linker_0--edge1-none
_symmetry_space_group_name_H-M    P1
_symmetry_Int_Tables_number       1
_symmetry_cell_setting            triclinic
loop_
_symmetry_equiv_pos_as_xyz
'x, y, z'
_cell_length_a     14.681387
_cell_length_b     14.486723
_cell_length_c     14.317254
_cell_angle_alpha  90.280865
_cell_angle_beta   90.001745
_cell_angle_gamma 90.028087
loop_
_atom_site_label
_atom_site_type_symbol
_atom_site_fract_x
_atom_site_fract_y
_atom_site_fract_z
_atom_type_partial_charge
H0 H 0.26482 0.33317 0.06192 0.0
H1 H 0.36053 0.09212 0.20523 0.0
H2 H 0.11892 0.23112 0.30025 0.0
C3 C 0.25397 0.27951 0.11332 0.0
C4 C 0.18127 0.28768 0.17643 0.0
C5 C 0.31899 0.20885 0.12334 0.0
C6 C 0.30792 0.14351 0.19433 0.0
C7 C 0.23577 0.15112 0.25865 0.0
C8 C 0.17148 0.22188 0.2478 0.0
H9 H 0.26499 0.72798 0.94571 0.0
H10 H 0.36085 0.96901 0.80233 0.0
H11 H 0.119 0.83005 0.70751 0.0
C12 C 0.25416 0.78163 0.89432 0.0
C13 C 0.1814 0.77347 0.83126 0.0
C14 C 0.31925 0.85228 0.88425 0.0
C15 C 0.30819 0.91763 0.81327 0.0
C16 C 0.23598 0.91003 0.74901 0.0
C17 C 0.17162 0.83929 0.75992 0.0
H18 H 0.76055 0.96809 0.20469 0.0
H19 H 1.00091 0.82816 0.30007 0.0
H20 H 0.85444 0.72475 0.06161 0.0
C21 C 0.81273 0.91613 0.19386 0.0
C22 C 0.8012 0.85017 0.12288 0.0
C23 C 0.88469 0.90854 0.25831 0.0
C24 C 0.94846 0.83722 0.24755 0.0
C25 C 0.93825 0.77074 0.17623 0.0
C26 C 0.86563 0.77881 0.11304 0.0
H27 H 0.76023 0.093 0.8029 0.0
H28 H 1.00082 0.2329 0.70773 0.0
H29 H 0.85427 0.33635 0.94603 0.0
C30 C 0.81245 0.14496 0.81376 0.0
C31 C 0.80094 0.21092 0.88473 0.0
C32 C 0.88448 0.15253 0.74939 0.0
C33 C 0.94832 0.22385 0.7602 0.0
C34 C 0.93811 0.29034 0.83149 0.0
C35 C 0.86544 0.28228 0.89462 0.0
H36 H 0.62115 0.8266 0.70282 0.0
H37 H 0.76393 0.58786 0.80296 0.0
H38 H 0.86429 0.73439 0.56393 0.0
C39 C 0.67355 0.77466 0.69318 0.0
C40 C 0.73908 0.78673 0.62306 0.0
C41 C 0.68192 0.70273 0.75838 0.0
C42 C 0.75416 0.63988 0.74966 0.0
C43 C 0.82015 0.65074 0.6792 0.0
C44 C 0.81084 0.72279 0.61485 0.0
H45 H 0.62113 0.23418 0.30476 0.0
H46 H 0.76389 0.47316 0.20481 0.0
H47 H 0.86429 0.32654 0.44371 0.0
C48 C 0.67354 0.28616 0.31444 0.0
C49 C 0.73908 0.27411 0.38456 0.0
C50 C 0.68189 0.35817 0.24931 0.0
C51 C 0.75414 0.42108 0.25807 0.0
C52 C 0.82014 0.41023 0.32851 0.0
C53 C 0.81083 0.33812 0.39281 0.0
H54 H 0.25676 0.32724 0.56483 0.0
H55 H 0.49871 0.23474 0.70469 0.0
H56 H 0.35534 0.47354 0.80628 0.0
C57 C 0.3098 0.33877 0.61634 0.0
C58 C 0.30003 0.41082 0.68134 0.0
C59 C 0.38138 0.27474 0.62451 0.0
C60 C 0.44641 0.28673 0.69523 0.0
C61 C 0.43761 0.35861 0.76114 0.0
C62 C 0.36544 0.42151 0.75254 0.0
H63 H 0.2568 0.73406 0.44282 0.0
H64 H 0.3554 0.58768 0.20149 0.0
H65 H 0.49874 0.82673 0.3029 0.0
C66 C 0.30984 0.72255 0.39131 0.0
C67 C 0.38141 0.78666 0.3831 0.0
C68 C 0.30008 0.65045 0.32637 0.0
C69 C 0.36549 0.63977 0.25518 0.0
C70 C 0.43766 0.70275 0.24654 0.0
C71 C 0.44644 0.77469 0.31239 0.0
C72 C 0.9078 0.45984 0.32117 0.0
C73 C 0.21251 0.60046 0.31969 0.0
O74 O 0.95507 0.48014 0.393 0.0
Zn75 Zn 0.06016 0.53014 0.32677 0.0
O76 O 0.94016 0.47459 0.23953 0.0
Zn77 Zn 0.05965 0.52913 0.17582 0.0
O78 O 0.10968 0.42187 0.11033 0.0
O79 O 0.11464 0.40893 0.26391 0.0
O80 O 0.17961 0.58465 0.23833 0.0
O81 O 0.16573 0.58101 0.3919 0.0
O82 O 1.0052 0.65049 0.26373 0.0
O83 O 1.00907 0.63544 0.11017 0.0
C84 C 0.13004 0.37527 0.18261 0.0
C85 C 0.9892 0.68303 0.1824 0.0
C86 C 0.98912 0.37807 0.82533 0.0
C87 C 0.1301 0.68589 0.8251 0.0
O88 O 1.00902 0.42566 0.89755 0.0
Zn89 Zn 0.05964 0.53199 0.83189 0.0
O90 O 1.00513 0.41061 0.74399 0.0
Zn91 Zn 0.06014 0.53098 0.68094 0.0
O92 O 0.16569 0.48016 0.61582 0.0
O93 O 0.17958 0.47653 0.76938 0.0
O94 O 0.11468 0.65221 0.7438 0.0
O95 O 0.10973 0.63928 0.89738 0.0
O96 O 0.94016 0.58646 0.76818 0.0
O97 O 0.95507 0.58091 0.61472 0.0
C98 C 0.21246 0.46073 0.68803 0.0
C99 C 0.90781 0.60118 0.68655 0.0
C100 C 0.24139 0.96091 0.65996 0.0
C101 C 0.24125 0.10028 0.34771 0.0
O102 O 0.17071 0.98071 0.61247 0.0
Zn103 Zn 0.23434 0.0306 0.50384 0.0
O104 O 0.32053 0.97653 0.62602 0.0
Zn105 Zn 0.382 0.03071 0.50379 0.0
O106 O 0.44578 0.13822 0.55426 0.0
O107 O 0.29599 0.15206 0.55879 0.0
O108 O 0.32041 0.08477 0.38161 0.0
O109 O 0.1706 0.08041 0.39526 0.0
O110 O 0.29602 0.90923 0.44885 0.0
O111 O 0.44581 0.9233 0.45327 0.0
C112 C 0.37529 0.18565 0.57417 0.0
C113 C 0.37532 0.87576 0.43342 0.0
C114 C 0.71302 0.8435 0.07345 0.0
C115 C 0.40754 0.84497 0.93327 0.0
O116 O 0.67991 0.7631 0.05784 0.0
Zn117 Zn 0.55969 0.7012 0.00238 0.0
O118 O 0.66613 0.91487 0.05415 0.0
Zn119 Zn 0.56028 0.85059 0.00334 0.0
O120 O 0.50553 0.78834 0.12494 0.0
O121 O 0.50917 0.63653 0.1103 0.0
O122 O 0.455 0.91596 0.95337 0.0
O123 O 0.44001 0.76428 0.94786 0.0
O124 O 0.60959 0.63659 0.89353 0.0
O125 O 0.61449 0.78841 0.88091 0.0
C126 C 0.48929 0.70813 0.15813 0.0
C127 C 0.63004 0.7082 0.84665 0.0
C128 C 0.74523 0.87573 0.57339 0.0
C129 C 0.74521 0.1851 0.43421 0.0
O130 O 0.67475 0.9231 0.55372 0.0
Zn131 Zn 0.73851 1.03041 0.5038 0.0
O132 O 0.82453 0.90926 0.5582 0.0
Zn133 Zn 0.88618 0.03051 0.50386 0.0
O134 O 0.94983 0.08096 0.61269 0.0
O135 O 0.8 0.08518 0.62623 0.0
O136 O 0.82452 0.15168 0.44946 0.0
O137 O 0.67474 0.13764 0.45381 0.0
O138 O 0.80012 0.97575 0.38142 0.0
O139 O 0.94994 0.98015 0.39509 0.0
C140 C 0.87913 0.101 0.66024 0.0
C141 C 0.87928 0.96004 0.34747 0.0
C142 C 0.62996 0.35276 0.16105 0.0
C143 C 0.48921 0.35314 0.84957 0.0
O144 O 0.61432 0.27258 0.12673 0.0
Zn145 Zn 0.56001 0.21053 0.00425 0.0
O146 O 0.6096 0.42441 0.11422 0.0
Zn147 Zn 0.55961 0.35991 0.00532 0.0
O148 O 0.43984 0.29685 0.05978 0.0
O149 O 0.45464 0.14516 0.05415 0.0
O150 O 0.50918 0.42471 0.89745 0.0
O151 O 0.50534 0.2729 0.88269 0.0
O152 O 0.66576 0.14623 0.95338 0.0
O153 O 0.67975 0.298 0.9498 0.0
C154 C 0.40726 0.21617 0.07429 0.0
C155 C 0.71274 0.2176 0.93413 0.0
loop_
_geom_bond_atom_site_label_1
_geom_bond_atom_site_label_2
_geom_bond_distance
_geom_bond_site_symmetry_2
_ccdc_geom_bond_type
H0 C3 0.931 . S
H1 C6 0.928 . S
H2 C8 0.930 . S
C3 H0 0.931 . S
C3 C4 1.413 . S
C3 C5 1.360 . S
C4 C3 1.413 . S
C4 C8 1.429 . S
C5 C3 1.360 . S
C5 C6 1.372 . S
C6 H1 0.928 . S
C6 C5 1.372 . S
C6 C7 1.404 . S
C7 C6 1.404 . S
C7 C8 1.391 . S
C8 H2 0.930 . S
C8 C4 1.429 . S
C8 C7 1.391 . S
H9 C12 0.931 . S
H10 C15 0.928 . S
H11 C17 0.930 . S
C12 H9 0.931 . S
C12 C13 1.413 . S
C12 C14 1.360 . S
C13 C12 1.413 . S
C13 C17 1.429 . S
C14 C12 1.360 . S
C14 C15 1.372 . S
C15 H10 0.928 . S
C15 C14 1.372 . S
C15 C16 1.404 . S
C16 C15 1.404 . S
C16 C17 1.391 . S
C17 H11 0.930 . S
C17 C13 1.429 . S
C17 C16 1.391 . S
H18 C21 0.931 . S
H19 C24 0.928 . S
H20 C26 0.930 . S
C21 H18 0.931 . S
C21 C22 1.413 . S
C21 C23 1.360 . S
C22 C21 1.413 . S
C22 C26 1.429 . S
C23 C21 1.360 . S
C23 C24 1.372 . S
C24 H19 0.928 . S
C24 C23 1.372 . S
C24 C25 1.404 . S
C25 C24 1.404 . S
C25 C26 1.391 . S
C26 H20 0.930 . S
C26 C22 1.429 . S
C26 C25 1.391 . S
H27 C30 0.931 . S
H28 C33 0.928 . S
H29 C35 0.930 . S
C30 H27 0.931 . S
C30 C31 1.413 . S
C30 C32 1.360 . S
C31 C30 1.413 . S
C31 C35 1.429 . S
C32 C30 1.360 . S
C32 C33 1.372 . S
C33 H28 0.928 . S
C33 C32 1.372 . S
C33 C34 1.404 . S
C34 C33 1.404 . S
C34 C35 1.391 . S
C35 H29 0.930 . S
C35 C31 1.429 . S
C35 C34 1.391 . S
H36 C39 0.931 . S
H37 C42 0.928 . S
H38 C44 0.930 . S
C39 H36 0.931 . S
C39 C40 1.413 . S
C39 C41 1.360 . S
C40 C39 1.413 . S
C40 C44 1.429 . S
C41 C39 1.360 . S
C41 C42 1.372 . S
C42 H37 0.928 . S
C42 C41 1.372 . S
C42 C43 1.404 . S
C43 C42 1.404 . S
C43 C44 1.391 . S
C44 H38 0.930 . S
C44 C40 1.429 . S
C44 C43 1.391 . S
H45 C48 0.931 . S
H46 C51 0.928 . S
H47 C53 0.930 . S
C48 H45 0.931 . S
C48 C49 1.413 . S
C48 C50 1.360 . S
C49 C48 1.413 . S
C49 C53 1.429 . S
C50 C48 1.360 . S
C50 C51 1.372 . S
C51 H46 0.928 . S
C51 C50 1.372 . S
C51 C52 1.404 . S
C52 C51 1.404 . S
C52 C53 1.391 . S
C53 H47 0.930 . S
C53 C49 1.429 . S
C53 C52 1.391 . S
H54 C57 0.931 . S
H55 C60 0.928 . S
H56 C62 0.930 . S
C57 H54 0.931 . S
C57 C58 1.413 . S
C57 C59 1.360 . S
C58 C57 1.413 . S
C58 C62 1.429 . S
C59 C57 1.360 . S
C59 C60 1.372 . S
C60 H55 0.928 . S
C60 C59 1.372 . S
C60 C61 1.404 . S
C61 C60 1.404 . S
C61 C62 1.391 . S
C62 H56 0.930 . S
C62 C58 1.429 . S
C62 C61 1.391 . S
H63 C66 0.931 . S
H64 C69 0.928 . S
H65 C71 0.930 . S
C66 H63 0.931 . S
C66 C67 1.413 . S
C66 C68 1.360 . S
C67 C66 1.413 . S
C67 C71 1.429 . S
C68 C66 1.360 . S
C68 C69 1.372 . S
C69 H64 0.928 . S
C69 C68 1.372 . S
C69 C70 1.404 . S
C70 C69 1.404 . S
C70 C71 1.391 . S
C71 H65 0.930 . S
C71 C67 1.429 . S
C71 C70 1.391 . S
C72 O74 1.247 . S
C72 O76 1.258 . S
C73 O80 1.247 . S
C73 O81 1.258 . S
O74 C72 1.247 . S
O74 Zn75 2.028 1_655 S
Zn75 O74 2.028 1_455 S
Zn75 O79 2.035 . S
Zn75 O81 2.035 . S
Zn75 O82 2.028 1_455 S
O76 C72 1.258 . S
O76 Zn77 2.035 1_655 S
Zn77 O76 2.035 1_455 S
Zn77 O78 2.028 . S
Zn77 O80 2.028 . S
Zn77 O83 2.035 1_455 S
O78 Zn77 2.028 . S
O78 C84 1.247 . S
O79 Zn75 2.035 . S
O79 C84 1.258 . S
O80 C73 1.247 . S
O80 Zn77 2.028 . S
O81 C73 1.258 . S
O81 Zn75 2.035 . S
O82 Zn75 2.028 1_655 S
O82 C85 1.247 . S
O83 Zn77 2.035 1_655 S
O83 C85 1.258 . S
C84 O78 1.247 . S
C84 O79 1.258 . S
C85 O82 1.247 . S
C85 O83 1.258 . S
C86 O88 1.247 . S
C86 O90 1.258 . S
C87 O94 1.247 . S
C87 O95 1.258 . S
O88 C86 1.247 . S
O88 Zn89 2.028 1_655 S
Zn89 O88 2.028 1_455 S
Zn89 O93 2.035 . S
Zn89 O95 2.035 . S
Zn89 O96 2.028 1_455 S
O90 C86 1.258 . S
O90 Zn91 2.035 1_655 S
Zn91 O90 2.035 1_455 S
Zn91 O92 2.028 . S
Zn91 O94 2.028 . S
Zn91 O97 2.035 1_455 S
O92 Zn91 2.028 . S
O92 C98 1.247 . S
O93 Zn89 2.035 . S
O93 C98 1.258 . S
O94 C87 1.247 . S
O94 Zn91 2.028 . S
O95 C87 1.258 . S
O95 Zn89 2.035 . S
O96 Zn89 2.028 1_655 S
O96 C99 1.247 . S
O97 Zn91 2.035 1_655 S
O97 C99 1.258 . S
C98 O92 1.247 . S
C98 O93 1.258 . S
C99 O96 1.247 . S
C99 O97 1.258 . S
C100 O102 1.247 . S
C100 O104 1.258 . S
C101 O108 1.247 . S
C101 O109 1.258 . S
O102 C100 1.247 . S
O102 Zn103 2.029 . S
Zn103 O102 2.029 . S
Zn103 O107 2.034 1_565 S
Zn103 O109 2.034 1_565 S
Zn103 O110 2.029 . S
O104 C100 1.258 . S
O104 Zn105 2.035 1_565 S
Zn105 O104 2.035 1_545 S
Zn105 O106 2.028 . S
Zn105 O108 2.028 . S
Zn105 O111 2.035 1_545 S
O106 Zn105 2.028 . S
O106 C112 1.247 . S
O107 Zn103 2.034 1_545 S
O107 C112 1.258 . S
O108 C101 1.247 . S
O108 Zn105 2.028 . S
O109 C101 1.258 . S
O109 Zn103 2.034 1_545 S
O110 Zn103 2.029 . S
O110 C113 1.247 . S
O111 Zn105 2.035 1_565 S
O111 C113 1.258 . S
C112 O106 1.247 . S
C112 O107 1.258 . S
C113 O110 1.247 . S
C113 O111 1.258 . S
C114 O116 1.247 . S
C114 O118 1.258 . S
C115 O122 1.247 . S
C115 O123 1.258 . S
O116 C114 1.247 . S
O116 Zn117 2.022 1_554 S
Zn117 O116 2.022 1_556 S
Zn117 O121 2.029 1_556 S
Zn117 O123 2.041 . S
Zn117 O124 2.034 . S
O118 C114 1.258 . S
O118 Zn119 2.043 . S
Zn119 O118 2.043 . S
Zn119 O120 2.036 . S
Zn119 O122 2.020 1_554 S
Zn119 O125 2.027 1_554 S
O120 Zn119 2.036 . S
O120 C126 1.247 . S
O121 Zn117 2.029 1_554 S
O121 C126 1.258 . S
O122 C115 1.247 . S
O122 Zn119 2.020 1_556 S
O123 C115 1.258 . S
O123 Zn117 2.041 . S
O124 Zn117 2.034 . S
O124 C127 1.247 . S
O125 Zn119 2.027 1_556 S
O125 C127 1.258 . S
C126 O120 1.247 . S
C126 O121 1.258 . S
C127 O124 1.247 . S
C127 O125 1.258 . S
C128 O130 1.247 . S
C128 O132 1.258 . S
C129 O136 1.247 . S
C129 O137 1.258 . S
O130 C128 1.247 . S
O130 Zn131 2.033 . S
Zn131 O130 2.033 . S
Zn131 O135 2.030 1_565 S
Zn131 O137 2.030 1_565 S
Zn131 O138 2.033 . S
O132 C128 1.258 . S
O132 Zn133 2.026 1_565 S
Zn133 O132 2.026 1_545 S
Zn133 O134 2.037 . S
Zn133 O136 2.037 . S
Zn133 O139 2.026 1_545 S
O134 Zn133 2.037 . S
O134 C140 1.247 . S
O135 Zn131 2.030 1_545 S
O135 C140 1.258 . S
O136 C129 1.247 . S
O136 Zn133 2.037 . S
O137 C129 1.258 . S
O137 Zn131 2.030 1_545 S
O138 Zn131 2.033 . S
O138 C141 1.247 . S
O139 Zn133 2.026 1_565 S
O139 C141 1.258 . S
C140 O134 1.247 . S
C140 O135 1.258 . S
C141 O138 1.247 . S
C141 O139 1.258 . S
C142 O144 1.247 . S
C142 O146 1.258 . S
C143 O150 1.247 . S
C143 O151 1.258 . S
O144 C142 1.247 . S
O144 Zn145 2.028 . S
Zn145 O144 2.028 . S
Zn145 O149 2.035 . S
Zn145 O151 2.035 1_554 S
Zn145 O152 2.028 1_554 S
O146 C142 1.258 . S
O146 Zn147 2.035 . S
Zn147 O146 2.035 . S
Zn147 O148 2.028 . S
Zn147 O150 2.028 1_554 S
Zn147 O153 2.035 1_554 S
O148 Zn147 2.028 . S
O148 C154 1.247 . S
O149 Zn145 2.035 . S
O149 C154 1.258 . S
O150 C143 1.247 . S
O150 Zn147 2.028 1_556 S
O151 C143 1.258 . S
O151 Zn145 2.035 1_556 S
O152 Zn145 2.028 1_556 S
O152 C155 1.247 . S
O153 Zn147 2.035 1_556 S
O153 C155 1.258 . S
C154 O148 1.247 . S
C154 O149 1.258 . S
C155 O152 1.247 . S
C155 O153 1.258 . S
C84 C4 1.511 . S
C87 C13 1.508 . S
C85 C25 1.508 . S
C86 C34 1.508 . S
C101 C7 1.502 . S
C115 C14 1.510 . S
C23 C141 1.502 . S
C155 C31 1.512 . S
C100 C16 1.503 . S
C22 C114 1.516 . S
C140 C32 1.502 . S
C154 C5 1.511 . S
C43 C99 1.514 . S
C72 C52 1.513 . S
C58 C98 1.507 . S
C68 C73 1.514 . S
C128 C40 1.510 . S
C142 C50 1.509 . S
C112 C59 1.506 . S
C70 C126 1.500 . S
C129 C49 1.511 . S
C143 C61 1.502 . S
C113 C67 1.511 . S
C41 C127 1.510 . S
