# Generated by pormake.
# Topology pto, (3,4)-cn, num edge types: 1
# Building blocks:
#     Node 0, Type 0, BuildingBlock: OLANEW_clean_sbu_2, # of connection points: 3
#     Node 1, Type 0, BuildingBlock: OLANEW_clean_sbu_2, # of connection points: 3
#     Node 2, Type 0, BuildingBlock: OLANEW_clean_sbu_2, # of connection points: 3
#     Node 3, Type 0, BuildingBlock: OLANEW_clean_sbu_2, # of connection points: 3
#     Node 4, Type 0, BuildingBlock: OLANEW_clean_sbu_2, # of connection points: 3
#     Node 5, Type 0, BuildingBlock: OLANEW_clean_sbu_2, # of connection points: 3
#     Node 6, Type 0, BuildingBlock: OLANEW_clean_sbu_2, # of connection points: 3
#     Node 7, Type 0, BuildingBlock: OLANEW_clean_sbu_2, # of connection points: 3
#     Node 8, Type 1, BuildingBlock: GIZVER_clean_linker_0, # of connection points: 4
#     Node 9, Type 1, BuildingBlock: GIZVER_clean_linker_0, # of connection points: 4
#     Node 10, Type 1, BuildingBlock: GIZVER_clean_linker_0, # of connection points: 4
#     Node 11, Type 1, BuildingBlock: GIZVER_clean_linker_0, # of connection points: 4
#     Node 12, Type 1, BuildingBlock: GIZVER_clean_linker_0, # of connection points: 4
#     Node 13, Type 1, BuildingBlock: GIZVER_clean_linker_0, # of connection points: 4
#     Edge 14, Type (0, 1), None
#     Edge 15, Type (0, 1), None
#     Edge 16, Type (0, 1), None
#     Edge 17, Type (0, 1), None
#     Edge 18, Type (0, 1), None
#     Edge 19, Type (0, 1), None
#     Edge 20, Type (0, 1), None
#     Edge 21, Type (0, 1), None
#     Edge 22, Type (0, 1), None
#     Edge 23, Type (0, 1), None
#     Edge 24, Type (0, 1), None
#     Edge 25, Type (0, 1), None
#     Edge 26, Type (0, 1), None
#     Edge 27, Type (0, 1), None
#     Edge 28, Type (0, 1), None
#     Edge 29, Type (0, 1), None
#     Edge 30, Type (0, 1), None
#     Edge 31, Type (0, 1), None
#     Edge 32, Type (0, 1), None
#     Edge 33, Type (0, 1), None
#     Edge 34, Type (0, 1), None
#     Edge 35, Type (0, 1), None
#     Edge 36, Type (0, 1), None
#     Edge 37, Type (0, 1), None
# Relax obj value: 0.020
# Max RMSD: 0.153
# Mean RMSD: 0.067
data_MOF--net-pto--node1-OLANEW_clean_sbu_2--node2-GIZVER_clean_linker_0--edge1-none
_symmetry_space_group_name_H-M    P1
_symmetry_Int_Tables_number       1
_symmetry_cell_setting            triclinic
loop_
_symmetry_equiv_pos_as_xyz
'x, y, z'
_cell_length_a     24.631071
_cell_length_b     21.389714
_cell_length_c     14.927368
_cell_angle_alpha  95.022323
_cell_angle_beta   89.150593
_cell_angle_gamma 102.61727
loop_
_atom_site_label
_atom_site_type_symbol
_atom_site_fract_x
_atom_site_fract_y
_atom_site_fract_z
_atom_type_partial_charge
O0 O 0.45908 0.31237 0.09329 0.0
Cd1 Cd 0.42665 0.21022 0.15684 0.0
O2 O 0.37024 0.31308 0.0897 0.0
Cd3 Cd 0.30163 0.3601 0.06628 0.0
O4 O 0.25256 0.43313 0.05842 0.0
C5 C 0.20391 0.42502 0.02549 0.0
O6 O 0.17836 0.36757 0.99153 0.0
C7 C 0.42062 0.34055 0.07612 0.0
C8 C 0.43677 0.23493 0.34166 0.0
O9 O 0.39539 0.24624 0.29985 0.0
O10 O 0.47262 0.21007 0.29646 0.0
O11 O 0.29825 0.03981 0.02956 0.0
Cd12 Cd 0.2429 0.08399 0.92971 0.0
O13 O 0.25289 0.94323 0.97991 0.0
Cd14 Cd 0.24182 0.83902 0.95409 0.0
O15 O 0.21556 0.73908 0.89831 0.0
C16 C 0.16518 0.71842 0.87355 0.0
O17 O 0.1305 0.75716 0.88527 0.0
C18 C 0.29355 0.9793 0.02337 0.0
C19 C 0.31246 0.08589 0.78237 0.0
O20 O 0.31614 0.13585 0.83797 0.0
O21 O 0.27229 0.03753 0.79185 0.0
O22 O 0.84713 0.74544 0.36223 0.0
Cd23 Cd 0.82856 0.67683 0.21943 0.0
O24 O 0.78764 0.79501 0.30847 0.0
Cd25 Cd 0.73483 0.86418 0.30169 0.0
O26 O 0.68332 0.88476 0.19523 0.0
C27 C 0.63982 0.90773 0.19984 0.0
O28 O 0.62096 0.92537 0.27868 0.0
C29 C 0.82036 0.79019 0.37109 0.0
C30 C 0.89385 0.58717 0.17009 0.0
O31 O 0.90781 0.64493 0.14731 0.0
O32 O 0.85046 0.57272 0.2191 0.0
O33 O 0.86764 0.36338 0.81849 0.0
Cd34 Cd 0.80376 0.25775 0.79825 0.0
O35 O 0.79513 0.40627 0.80852 0.0
Cd36 Cd 0.75185 0.4839 0.78871 0.0
O37 O 0.71357 0.56565 0.76834 0.0
C38 C 0.68001 0.59003 0.81898 0.0
O39 O 0.66046 0.63739 0.79095 0.0
C40 C 0.84756 0.41323 0.81725 0.0
C41 C 0.83425 0.18264 0.65126 0.0
O42 O 0.80474 0.22394 0.64066 0.0
O43 O 0.84905 0.17644 0.7314 0.0
O44 O 0.8461 0.80902 0.73919 0.0
Cd45 Cd 0.83665 0.76384 0.88524 0.0
O46 O 0.76135 0.82549 0.7405 0.0
Cd47 Cd 0.68804 0.86066 0.70455 0.0
O48 O 0.62781 0.8924 0.7978 0.0
C49 C 0.62403 0.86287 0.86868 0.0
O50 O 0.65069 0.81612 0.87153 0.0
C51 C 0.80794 0.82878 0.70143 0.0
C52 C 0.87705 0.65186 0.8652 0.0
O53 O 0.8246 0.64922 0.86295 0.0
O54 O 0.90994 0.707 0.88064 0.0
O55 O 0.93975 0.31797 0.14646 0.0
Cd56 Cd 0.88629 0.20708 0.15438 0.0
O57 O 0.85625 0.33615 0.13622 0.0
Cd58 Cd 0.80001 0.39628 0.10248 0.0
O59 O 0.75251 0.45654 0.04282 0.0
C60 C 0.7098 0.47045 0.08114 0.0
O61 O 0.69442 0.44851 0.15921 0.0
C62 C 0.90867 0.3572 0.13716 0.0
C63 C 0.87882 0.1598 0.32374 0.0
O64 O 0.91461 0.14651 0.26604 0.0
O65 O 0.8472 0.19643 0.30211 0.0
O66 O 0.34285 0.43561 0.81847 0.0
Cd67 Cd 0.28716 0.44175 0.68821 0.0
O68 O 0.4057 0.52224 0.79266 0.0
Cd69 Cd 0.38174 0.5026 0.65159 0.0
O70 O 0.39625 0.41758 0.57064 0.0
C71 C 0.42147 0.38365 0.61389 0.0
O72 O 0.43611 0.40308 0.69767 0.0
C73 C 0.38531 0.47875 0.84408 0.0
C74 C 0.20834 0.51249 0.74162 0.0
O75 O 0.1947 0.45094 0.73164 0.0
O76 O 0.25864 0.54012 0.72524 0.0
O77 O 0.40922 0.87271 0.30138 0.0
Cd78 Cd 0.40444 0.84062 0.45349 0.0
O79 O 0.32306 0.82476 0.2674 0.0
Cd80 Cd 0.24963 0.7894 0.18118 0.0
O81 O 0.19204 0.7075 0.11286 0.0
C82 C 0.2128 0.65794 0.10552 0.0
O83 O 0.26356 0.66325 0.13596 0.0
C84 C 0.36895 0.86044 0.24585 0.0
C85 C 0.40354 0.95306 0.56112 0.0
O86 O 0.4494 0.93925 0.53373 0.0
O87 O 0.35808 0.91229 0.54085 0.0
H88 H 0.9956 0.40259 0.02985 0.0
H89 H 0.98224 0.60051 0.05563 0.0
H90 H 0.87286 0.46182 0.20538 0.0
H91 H 0.02989 0.47872 0.90953 0.0
H92 H 0.03428 0.56284 0.93428 0.0
H93 H 0.09873 0.42627 0.96911 0.0
H94 H 0.24795 0.54749 0.08538 0.0
H95 H 0.10605 0.6274 0.03946 0.0
C96 C 0.97691 0.44036 0.06136 0.0
C97 C 0.93235 0.42494 0.12097 0.0
C98 C 0.99504 0.50367 0.03749 0.0
C99 C 0.96906 0.55203 0.07572 0.0
C100 C 0.92476 0.53752 0.13641 0.0
C101 C 0.90716 0.47385 0.15918 0.0
C102 C 0.03789 0.51826 0.96451 0.0
C103 C 0.09623 0.52606 3e-05 0.0
C104 C 0.12167 0.47302 0.99641 0.0
C105 C 0.17649 0.48037 0.02741 0.0
C106 C 0.20559 0.54147 0.06174 0.0
C107 C 0.18076 0.59479 0.06676 0.0
C108 C 0.12579 0.58667 0.03617 0.0
H109 H 0.06424 0.66521 0.79986 0.0
H110 H 0.09909 0.48374 0.69872 0.0
H111 H 0.22637 0.62791 0.83708 0.0
H112 H 0.01689 0.59175 0.65412 0.0
H113 H 0.01613 0.50855 0.65316 0.0
H114 H 0.97238 0.64753 0.77965 0.0
H115 H 0.82825 0.52772 0.88785 0.0
H116 H 0.95054 0.44215 0.74464 0.0
C117 C 0.09201 0.63242 0.79365 0.0
C118 C 0.14644 0.65292 0.82799 0.0
C119 C 0.07419 0.57111 0.74785 0.0
C120 C 0.11172 0.53018 0.73662 0.0
C121 C 0.16691 0.55115 0.76675 0.0
C122 C 0.18375 0.61201 0.81354 0.0
C123 C 0.01893 0.55324 0.69864 0.0
C124 C 0.96909 0.54581 0.76039 0.0
C125 C 0.94995 0.60024 0.79467 0.0
C126 C 0.8993 0.59406 0.84068 0.0
C127 C 0.86734 0.53256 0.85239 0.0
C128 C 0.88508 0.47745 0.81691 0.0
C129 C 0.93696 0.4844 0.77366 0.0
H130 H 0.47964 0.17093 0.46143 0.0
H131 H 0.46375 0.29666 0.69604 0.0
H132 H 0.40956 0.33634 0.43796 0.0
H133 H 0.53071 0.16931 0.61037 0.0
H134 H 0.5079 0.20907 0.71014 0.0
H135 H 0.48298 0.06285 0.56334 0.0
H136 H 0.32297 0.98165 0.67192 0.0
H137 H 0.40247 0.17923 0.74689 0.0
C138 C 0.46761 0.21376 0.49194 0.0
C139 C 0.44374 0.25174 0.43903 0.0
C140 C 0.47401 0.22931 0.58492 0.0
C141 C 0.45851 0.28477 0.62415 0.0
C142 C 0.43563 0.32414 0.5716 0.0
C143 C 0.42731 0.30652 0.47919 0.0
C144 C 0.49424 0.1847 0.64277 0.0
C145 C 0.44774 0.12708 0.65418 0.0
C146 C 0.44807 0.06768 0.60647 0.0
C147 C 0.40306 0.01513 0.6124 0.0
C148 C 0.35737 0.02248 0.66638 0.0
C149 C 0.35697 0.08127 0.71619 0.0
C150 C 0.40222 0.13349 0.70917 0.0
H151 H 0.39975 0.01048 0.97381 0.0
H152 H 0.4643 0.90187 0.15949 0.0
H153 H 0.28911 0.89686 0.151 0.0
H154 H 0.49598 0.00925 0.96537 0.0
H155 H 0.51009 0.03453 0.08002 0.0
H156 H 0.53893 0.92732 0.88936 0.0
H157 H 0.6592 0.85702 0.03467 0.0
H158 H 0.55649 0.9711 0.17628 0.0
C159 C 0.3932 0.97595 0.02413 0.0
C160 C 0.33919 0.95305 0.05567 0.0
C161 C 0.43902 0.95704 0.05938 0.0
C162 C 0.42964 0.91488 0.12804 0.0
C163 C 0.37569 0.89229 0.16121 0.0
C164 C 0.33036 0.91056 0.1231 0.0
C165 C 0.49714 0.99083 0.03263 0.0
C166 C 0.54108 0.95122 0.03342 0.0
C167 C 0.55825 0.92247 0.9524 0.0
C168 C 0.60121 0.88877 0.95265 0.0
C169 C 0.626 0.88296 0.03455 0.0
C170 C 0.61043 0.91244 0.11561 0.0
C171 C 0.56815 0.94694 0.11445 0.0
H172 H 0.91187 0.05406 0.37018 0.0
H173 H 0.87334 0.07315 0.65152 0.0
H174 H 0.83776 0.20923 0.47679 0.0
H175 H 0.94993 0.99399 0.47306 0.0
H176 H 0.94246 0.00956 0.59128 0.0
H177 H 0.87862 0.91308 0.38503 0.0
H178 H 0.78355 0.76589 0.53815 0.0
H179 H 0.86599 0.94692 0.67246 0.0
C180 C 0.89474 0.07906 0.4263 0.0
C181 C 0.87469 0.13422 0.4131 0.0
C182 C 0.89359 0.0563 0.51188 0.0
C183 C 0.87282 0.08975 0.58504 0.0
C184 C 0.85251 0.14498 0.57303 0.0
C185 C 0.85256 0.16612 0.48642 0.0
C186 C 0.91905 0.99995 0.52653 0.0
C187 C 0.87556 0.93808 0.52815 0.0
C188 C 0.86107 0.89776 0.44863 0.0
C189 C 0.82782 0.83568 0.45203 0.0
C190 C 0.8071 0.81482 0.53486 0.0
C191 C 0.81954 0.85551 0.61416 0.0
C192 C 0.85368 0.91701 0.61052 0.0
H193 H 0.47076 0.56591 0.92918 0.0
H194 H 0.50409 0.44355 0.12624 0.0
H195 H 0.3687 0.37567 0.94009 0.0
H196 H 0.53358 0.61153 0.05361 0.0
H197 H 0.54172 0.56415 0.1435 0.0
H198 H 0.58577 0.60093 0.91016 0.0
H199 H 0.73435 0.52833 0.92761 0.0
H200 H 0.61166 0.49948 0.13612 0.0
C201 C 0.46007 0.52086 0.96014 0.0
C202 C 0.41525 0.47232 0.92652 0.0
C203 C 0.49196 0.51105 0.03281 0.0
C204 C 0.47921 0.45174 0.07092 0.0
C205 C 0.434 0.4034 0.03847 0.0
C206 C 0.40214 0.41422 0.96707 0.0
C207 C 0.53972 0.56356 0.06899 0.0
C208 C 0.5938 0.55291 0.02863 0.0
C209 C 0.61143 0.57559 0.94515 0.0
C210 C 0.66163 0.56545 0.90677 0.0
C211 C 0.69432 0.53309 0.95376 0.0
C212 C 0.67638 0.50814 0.03576 0.0
C213 C 0.62601 0.51833 0.07282 0.0
loop_
_geom_bond_atom_site_label_1
_geom_bond_atom_site_label_2
_geom_bond_distance
_geom_bond_site_symmetry_2
_ccdc_geom_bond_type
O0 Cd1 2.300 . S
O0 C7 1.275 . S
Cd1 O0 2.300 . S
Cd1 O9 2.381 . S
Cd1 O10 2.378 . S
O2 Cd3 2.385 . S
O2 C7 1.255 . S
Cd3 O2 2.385 . S
Cd3 O4 2.317 . S
O4 Cd3 2.317 . S
O4 C5 1.232 . S
C5 O4 1.232 . S
C5 O6 1.218 . S
O6 C5 1.218 . S
C7 O0 1.275 . S
C7 O2 1.255 . S
C8 O9 1.258 . S
C8 O10 1.256 . S
O9 Cd1 2.381 . S
O9 C8 1.258 . S
O10 Cd1 2.378 . S
O10 C8 1.256 . S
O11 Cd12 2.300 . S
O11 C18 1.275 . S
Cd12 O11 2.300 . S
Cd12 O20 2.381 . S
Cd12 O21 2.378 . S
O13 Cd14 2.385 . S
O13 C18 1.255 . S
Cd14 O13 2.385 . S
Cd14 O15 2.317 . S
O15 Cd14 2.317 . S
O15 C16 1.232 . S
C16 O15 1.232 . S
C16 O17 1.218 . S
O17 C16 1.218 . S
C18 O11 1.275 . S
C18 O13 1.255 . S
C19 O20 1.256 1_545 S
C19 O21 1.253 1_545 S
O20 Cd12 2.381 . S
O20 C19 1.256 1_565 S
O21 Cd12 2.378 . S
O21 C19 1.253 1_565 S
O22 Cd23 2.300 . S
O22 C29 1.275 . S
Cd23 O22 2.300 . S
Cd23 O31 2.381 . S
Cd23 O32 2.378 . S
O24 Cd25 2.385 . S
O24 C29 1.255 . S
Cd25 O24 2.385 . S
Cd25 O26 2.317 . S
O26 Cd25 2.317 . S
O26 C27 1.232 . S
C27 O26 1.232 . S
C27 O28 1.218 . S
O28 C27 1.218 . S
C29 O22 1.275 . S
C29 O24 1.255 . S
C30 O31 1.258 . S
C30 O32 1.256 . S
O31 Cd23 2.381 . S
O31 C30 1.258 . S
O32 Cd23 2.378 . S
O32 C30 1.256 . S
O33 Cd34 2.300 . S
O33 C40 1.275 . S
Cd34 O33 2.300 . S
Cd34 O42 2.381 . S
Cd34 O43 2.378 . S
O35 Cd36 2.385 . S
O35 C40 1.255 . S
Cd36 O35 2.385 . S
Cd36 O37 2.317 . S
O37 Cd36 2.317 . S
O37 C38 1.232 . S
C38 O37 1.232 . S
C38 O39 1.218 . S
O39 C38 1.218 . S
C40 O33 1.275 . S
C40 O35 1.255 . S
C41 O42 1.258 . S
C41 O43 1.256 . S
O42 Cd34 2.381 . S
O42 C41 1.258 . S
O43 Cd34 2.378 . S
O43 C41 1.256 . S
O44 Cd45 2.300 . S
O44 C51 1.275 . S
Cd45 O44 2.300 . S
Cd45 O53 2.381 . S
Cd45 O54 2.378 . S
O46 Cd47 2.385 . S
O46 C51 1.255 . S
Cd47 O46 2.385 . S
Cd47 O48 2.317 . S
O48 Cd47 2.317 . S
O48 C49 1.232 . S
C49 O48 1.232 . S
C49 O50 1.218 . S
O50 C49 1.218 . S
C51 O44 1.275 . S
C51 O46 1.255 . S
C52 O53 1.258 . S
C52 O54 1.256 . S
O53 Cd45 2.381 . S
O53 C52 1.258 . S
O54 Cd45 2.378 . S
O54 C52 1.256 . S
O55 Cd56 2.300 . S
O55 C62 1.275 . S
Cd56 O55 2.300 . S
Cd56 O64 2.381 . S
Cd56 O65 2.378 . S
O57 Cd58 2.385 . S
O57 C62 1.255 . S
Cd58 O57 2.385 . S
Cd58 O59 2.317 . S
O59 Cd58 2.317 . S
O59 C60 1.232 . S
C60 O59 1.232 . S
C60 O61 1.218 . S
O61 C60 1.218 . S
C62 O55 1.275 . S
C62 O57 1.255 . S
C63 O64 1.258 . S
C63 O65 1.256 . S
O64 Cd56 2.381 . S
O64 C63 1.258 . S
O65 Cd56 2.378 . S
O65 C63 1.256 . S
O66 Cd67 2.300 . S
O66 C73 1.275 . S
Cd67 O66 2.300 . S
Cd67 O75 2.381 . S
Cd67 O76 2.378 . S
O68 Cd69 2.385 . S
O68 C73 1.255 . S
Cd69 O68 2.385 . S
Cd69 O70 2.317 . S
O70 Cd69 2.317 . S
O70 C71 1.232 . S
C71 O70 1.232 . S
C71 O72 1.218 . S
O72 C71 1.218 . S
C73 O66 1.275 . S
C73 O68 1.255 . S
C74 O75 1.258 . S
C74 O76 1.256 . S
O75 Cd67 2.381 . S
O75 C74 1.258 . S
O76 Cd67 2.378 . S
O76 C74 1.256 . S
O77 Cd78 2.300 . S
O77 C84 1.275 . S
Cd78 O77 2.300 . S
Cd78 O86 2.381 . S
Cd78 O87 2.378 . S
O79 Cd80 2.385 . S
O79 C84 1.255 . S
Cd80 O79 2.385 . S
Cd80 O81 2.317 . S
O81 Cd80 2.317 . S
O81 C82 1.232 . S
C82 O81 1.232 . S
C82 O83 1.218 . S
O83 C82 1.218 . S
C84 O77 1.275 . S
C84 O79 1.255 . S
C85 O86 1.258 . S
C85 O87 1.256 . S
O86 Cd78 2.381 . S
O86 C85 1.258 . S
O87 Cd78 2.378 . S
O87 C85 1.256 . S
H88 C96 0.930 . S
H89 C99 0.930 1_455 S
H90 C101 0.930 . S
H91 C102 0.970 . S
H92 C102 0.970 . S
H93 C104 0.930 . S
H94 C106 0.930 . S
H95 C108 0.930 . S
C96 H88 0.930 . S
C96 C97 1.382 . S
C96 C98 1.426 1_655 S
C97 C96 1.382 . S
C97 C101 1.389 . S
C98 C96 1.426 1_455 S
C98 C99 1.375 1_455 S
C98 C102 1.532 1_554 S
C99 H89 0.930 1_655 S
C99 C98 1.375 1_655 S
C99 C100 1.416 . S
C100 C99 1.416 . S
C100 C101 1.371 . S
C101 H90 0.930 . S
C101 C97 1.389 . S
C101 C100 1.371 . S
C102 H91 0.970 . S
C102 H92 0.970 . S
C102 C98 1.532 1_556 S
C102 C103 1.499 1_556 S
C103 C102 1.499 1_554 S
C103 C104 1.370 . S
C103 C108 1.415 . S
C104 H93 0.930 . S
C104 C103 1.370 . S
C104 C105 1.407 . S
C105 C104 1.407 . S
C105 C106 1.365 . S
C106 H94 0.930 . S
C106 C105 1.365 . S
C106 C107 1.393 . S
C107 C106 1.393 . S
C107 C108 1.387 . S
C108 H95 0.930 . S
C108 C103 1.415 . S
C108 C107 1.387 . S
H109 C117 0.930 . S
H110 C120 0.930 . S
H111 C122 0.930 . S
H112 C123 0.970 . S
H113 C123 0.970 . S
H114 C125 0.930 . S
H115 C127 0.930 . S
H116 C129 0.930 . S
C117 H109 0.930 . S
C117 C118 1.382 . S
C117 C119 1.426 . S
C118 C117 1.382 . S
C118 C122 1.389 . S
C119 C117 1.426 . S
C119 C120 1.375 . S
C119 C123 1.532 . S
C120 H110 0.930 . S
C120 C119 1.375 . S
C120 C121 1.416 . S
C121 C120 1.416 . S
C121 C122 1.371 . S
C122 H111 0.930 . S
C122 C118 1.389 . S
C122 C121 1.371 . S
C123 H112 0.970 . S
C123 H113 0.970 . S
C123 C119 1.532 . S
C123 C124 1.499 1_455 S
C124 C123 1.499 1_655 S
C124 C125 1.370 . S
C124 C129 1.415 . S
C125 H114 0.930 . S
C125 C124 1.370 . S
C125 C126 1.407 . S
C126 C125 1.407 . S
C126 C127 1.365 . S
C127 H115 0.930 . S
C127 C126 1.365 . S
C127 C128 1.393 . S
C128 C127 1.393 . S
C128 C129 1.387 . S
C129 H116 0.930 . S
C129 C124 1.415 . S
C129 C128 1.387 . S
H130 C138 0.930 . S
H131 C141 0.930 . S
H132 C143 0.930 . S
H133 C144 0.970 . S
H134 C144 0.970 . S
H135 C146 0.930 . S
H136 C148 0.930 1_565 S
H137 C150 0.930 . S
C138 H130 0.930 . S
C138 C139 1.382 . S
C138 C140 1.426 . S
C139 C138 1.382 . S
C139 C143 1.389 . S
C140 C138 1.426 . S
C140 C141 1.375 . S
C140 C144 1.532 . S
C141 H131 0.930 . S
C141 C140 1.375 . S
C141 C142 1.416 . S
C142 C141 1.416 . S
C142 C143 1.371 . S
C143 H132 0.930 . S
C143 C139 1.389 . S
C143 C142 1.371 . S
C144 H133 0.970 . S
C144 H134 0.970 . S
C144 C140 1.532 . S
C144 C145 1.499 . S
C145 C144 1.499 . S
C145 C146 1.370 . S
C145 C150 1.415 . S
C146 H135 0.930 . S
C146 C145 1.370 . S
C146 C147 1.407 . S
C147 C146 1.407 . S
C147 C148 1.365 . S
C148 H136 0.930 1_545 S
C148 C147 1.365 . S
C148 C149 1.393 . S
C149 C148 1.393 . S
C149 C150 1.387 . S
C150 H137 0.930 . S
C150 C145 1.415 . S
C150 C149 1.387 . S
H151 C159 0.930 . S
H152 C162 0.930 . S
H153 C164 0.930 . S
H154 C165 0.970 1_556 S
H155 C165 0.970 . S
H156 C167 0.930 . S
H157 C169 0.930 . S
H158 C171 0.930 . S
C159 H151 0.930 . S
C159 C160 1.382 . S
C159 C161 1.426 1_556 S
C160 C159 1.382 . S
C160 C164 1.389 1_556 S
C161 C159 1.426 1_554 S
C161 C162 1.375 . S
C161 C165 1.532 . S
C162 H152 0.930 . S
C162 C161 1.375 . S
C162 C163 1.416 . S
C163 C162 1.416 . S
C163 C164 1.371 . S
C164 H153 0.930 . S
C164 C160 1.389 1_554 S
C164 C163 1.371 . S
C165 H154 0.970 1_554 S
C165 H155 0.970 . S
C165 C161 1.532 . S
C165 C166 1.499 . S
C166 C165 1.499 . S
C166 C167 1.370 1_554 S
C166 C171 1.415 . S
C167 H156 0.930 . S
C167 C166 1.370 1_556 S
C167 C168 1.407 . S
C168 C167 1.407 . S
C168 C169 1.365 . S
C169 H157 0.930 . S
C169 C168 1.365 . S
C169 C170 1.393 1_556 S
C170 C169 1.393 1_554 S
C170 C171 1.387 . S
C171 H158 0.930 . S
C171 C166 1.415 . S
C171 C170 1.387 . S
H172 C180 0.930 . S
H173 C183 0.930 . S
H174 C185 0.930 . S
H175 C186 0.970 . S
H176 C186 0.970 . S
H177 C188 0.930 . S
H178 C190 0.930 . S
H179 C192 0.930 . S
C180 H172 0.930 . S
C180 C181 1.382 . S
C180 C182 1.426 . S
C181 C180 1.382 . S
C181 C185 1.389 . S
C182 C180 1.426 . S
C182 C183 1.375 . S
C182 C186 1.532 . S
C183 H173 0.930 . S
C183 C182 1.375 . S
C183 C184 1.416 . S
C184 C183 1.416 . S
C184 C185 1.371 . S
C185 H174 0.930 . S
C185 C181 1.389 . S
C185 C184 1.371 . S
C186 H175 0.970 . S
C186 H176 0.970 . S
C186 C182 1.532 . S
C186 C187 1.499 1_545 S
C187 C186 1.499 1_565 S
C187 C188 1.370 . S
C187 C192 1.415 . S
C188 H177 0.930 . S
C188 C187 1.370 . S
C188 C189 1.407 . S
C189 C188 1.407 . S
C189 C190 1.365 . S
C190 H178 0.930 . S
C190 C189 1.365 . S
C190 C191 1.393 . S
C191 C190 1.393 . S
C191 C192 1.387 . S
C192 H179 0.930 . S
C192 C187 1.415 . S
C192 C191 1.387 . S
H193 C201 0.930 . S
H194 C204 0.930 . S
H195 C206 0.930 . S
H196 C207 0.970 1_556 S
H197 C207 0.970 . S
H198 C209 0.930 . S
H199 C211 0.930 1_556 S
H200 C213 0.930 . S
C201 H193 0.930 . S
C201 C202 1.382 . S
C201 C203 1.426 1_556 S
C202 C201 1.382 . S
C202 C206 1.389 1_556 S
C203 C201 1.426 1_554 S
C203 C204 1.375 . S
C203 C207 1.532 . S
C204 H194 0.930 . S
C204 C203 1.375 . S
C204 C205 1.416 . S
C205 C204 1.416 . S
C205 C206 1.371 . S
C206 H195 0.930 . S
C206 C202 1.389 1_554 S
C206 C205 1.371 . S
C207 H196 0.970 1_554 S
C207 H197 0.970 . S
C207 C203 1.532 . S
C207 C208 1.499 . S
C208 C207 1.499 . S
C208 C209 1.370 1_554 S
C208 C213 1.415 . S
C209 H198 0.930 . S
C209 C208 1.370 1_556 S
C209 C210 1.407 . S
C210 C209 1.407 . S
C210 C211 1.362 1_556 S
C211 H199 0.930 1_554 S
C211 C210 1.362 1_554 S
C211 C212 1.396 . S
C212 C211 1.396 . S
C212 C213 1.387 . S
C213 H200 0.930 . S
C213 C208 1.415 . S
C213 C212 1.387 . S
C105 C5 2.028 . S
C118 C16 0.874 . S
C100 C30 2.069 . S
C128 C40 1.629 . S
C139 C8 1.687 . S
C160 C18 1.264 . S
C29 C189 1.605 . S
C210 C38 1.434 . S
C149 C19 1.681 . S
C27 C170 1.784 . S
C184 C41 1.386 . S
C205 C7 2.045 . S
C52 C126 1.943 . S
C97 C62 2.417 . S
C74 C121 1.675 . S
C82 C107 1.292 . S
C191 C51 1.752 . S
C212 C60 1.672 . S
C142 C71 1.254 . S
C84 C163 1.614 . S
C181 C63 1.592 . S
C202 C73 1.929 . S
C147 C85 1.476 1_545 S
C49 C168 1.539 . S
