# Generated by pormake.
# Topology tsx, (6,3)-cn, num edge types: 1
# Building blocks:
#     Node 0, Type 0, BuildingBlock: MIDCAF_clean_sbu_0, # of connection points: 6
#     Node 1, Type 0, BuildingBlock: MIDCAF_clean_sbu_0, # of connection points: 6
#     Node 2, Type 1, BuildingBlock: PAMTOO_clean_linker_0, # of connection points: 3
#     Node 3, Type 1, BuildingBlock: PAMTOO_clean_linker_0, # of connection points: 3
#     Node 4, Type 1, BuildingBlock: PAMTOO_clean_linker_0, # of connection points: 3
#     Node 5, Type 1, BuildingBlock: PAMTOO_clean_linker_0, # of connection points: 3
#     Edge 6, Type (0, 1), BuildingBlock: AJUNOK_clean_linker_0, # of connection points: 2
#     Edge 7, Type (0, 1), BuildingBlock: AJUNOK_clean_linker_0, # of connection points: 2
#     Edge 8, Type (0, 1), BuildingBlock: AJUNOK_clean_linker_0, # of connection points: 2
#     Edge 9, Type (0, 1), BuildingBlock: AJUNOK_clean_linker_0, # of connection points: 2
#     Edge 10, Type (0, 1), BuildingBlock: AJUNOK_clean_linker_0, # of connection points: 2
#     Edge 11, Type (0, 1), BuildingBlock: AJUNOK_clean_linker_0, # of connection points: 2
#     Edge 12, Type (0, 1), BuildingBlock: AJUNOK_clean_linker_0, # of connection points: 2
#     Edge 13, Type (0, 1), BuildingBlock: AJUNOK_clean_linker_0, # of connection points: 2
#     Edge 14, Type (0, 1), BuildingBlock: AJUNOK_clean_linker_0, # of connection points: 2
#     Edge 15, Type (0, 1), BuildingBlock: AJUNOK_clean_linker_0, # of connection points: 2
#     Edge 16, Type (0, 1), BuildingBlock: AJUNOK_clean_linker_0, # of connection points: 2
#     Edge 17, Type (0, 1), BuildingBlock: AJUNOK_clean_linker_0, # of connection points: 2
# Relax obj value: 0.097
# Max RMSD: 0.164
# Mean RMSD: 0.126
data_MOF--net-tsx--node1-MIDCAF_clean_sbu_0--node2-PAMTOO_clean_linker_0--edge1-AJUNOK_clean_linker_0
_symmetry_space_group_name_H-M    P1
_symmetry_Int_Tables_number       1
_symmetry_cell_setting            triclinic
loop_
_symmetry_equiv_pos_as_xyz
'x, y, z'
_cell_length_a     13.896441
_cell_length_b     15.58517
_cell_length_c     26.922003
_cell_angle_alpha  82.645751
_cell_angle_beta   100.58561
_cell_angle_gamma 90.921936
loop_
_atom_site_label
_atom_site_type_symbol
_atom_site_fract_x
_atom_site_fract_y
_atom_site_fract_z
_atom_type_partial_charge
Zn0 Zn 0.92224 0.96072 0.9282 0.0
Zn1 Zn 0.2254 0.96272 0.03108 0.0
Zn2 Zn 0.07736 0.96168 -0.01902 0.0
C3 C 0.21637 0.11988 -0.0123 0.0
C4 C 0.2481 0.83339 -0.0188 0.0
O5 O 0.98309 0.86827 0.02022 0.0
O6 O 0.87687 0.84541 0.95166 0.0
C7 C 0.9356 0.11857 0.96116 0.0
O8 O 0.12741 0.09583 -0.01179 0.0
O9 O 0.28212 0.0628 -0.00693 0.0
O10 O 0.27034 0.84615 0.02719 0.0
O11 O 0.18196 0.88213 0.9512 0.0
O12 O 0.86974 0.06292 0.95246 0.0
O13 O 1.02588 0.09664 0.9658 0.0
O14 O 0.11227 0.92314 0.91129 0.0
O15 O 0.97521 0.97848 0.86404 0.0
C16 C 0.06062 0.94932 0.86734 0.0
O17 O 0.04555 0.90922 0.05577 0.0
O18 O 0.16861 0.98552 0.09045 0.0
C19 C 0.91217 0.82405 -0.00187 0.0
C20 C 0.08986 0.94576 0.09377 0.0
Zn21 Zn 0.73811 0.55416 0.51966 0.0
Zn22 Zn 0.41339 0.54384 0.43508 0.0
Zn23 Zn 0.5707 0.54542 0.48354 0.0
C24 C 0.53754 0.52502 0.36976 0.0
C25 C 0.42136 0.70149 0.46356 0.0
O26 O 0.56345 0.48949 0.56044 0.0
O27 O 0.70146 0.55494 0.58767 0.0
C28 C 0.74951 0.42499 0.46732 0.0
O29 O 0.58934 0.49746 0.41337 0.0
O30 O 0.45607 0.56132 0.36753 0.0
O31 O 0.35701 0.64377 0.45877 0.0
O32 O 0.5117 0.68081 0.46597 0.0
O33 O 0.80195 0.45052 0.5059 0.0
O34 O 0.66465 0.46045 0.44924 0.0
O35 O 0.61468 0.68413 0.48559 0.0
O36 O 0.77142 0.66721 0.48515 0.0
C37 C 0.69938 0.71702 0.48215 0.0
O38 O 0.48079 0.45791 0.52899 0.0
O39 O 0.37202 0.42906 0.4626 0.0
C40 C 0.62479 0.51635 0.59679 0.0
C41 C 0.40844 0.41267 0.50931 0.0
H42 H 0.19391 0.91645 0.31381 0.0
H43 H 0.95415 0.09803 0.28662 0.0
H44 H 0.14917 0.06634 0.43137 0.0
H45 H 0.94373 0.08829 0.43681 0.0
C46 C 0.91708 0.12929 0.40022 0.0
O47 O 0.99531 0.15041 0.37615 0.0
H48 H 0.86281 0.09225 0.3757 0.0
C49 C 0.15199 0.96413 0.32698 0.0
C50 C 0.18134 0.98571 0.37658 0.0
C51 C 0.06939 0.00296 0.29431 0.0
C52 C 1.01737 0.06632 0.31136 0.0
C53 C 0.04643 0.08929 0.36049 0.0
C54 C 0.12803 0.04886 0.39321 0.0
H55 H 0.2582 0.1209 0.67244 0.0
H56 H 0.99611 0.96935 0.63953 0.0
H57 H 0.09058 0.13818 0.52028 0.0
H58 H 0.85714 0.09996 0.50522 0.0
C59 C 0.86912 0.04031 0.5328 0.0
O60 O 0.96697 0.0166 0.54216 0.0
H61 H 0.84714 0.05386 0.56876 0.0
C62 C 0.19562 0.10118 0.64619 0.0
C63 C 0.18126 0.1381 0.59494 0.0
C64 C 0.1276 0.04202 0.66366 0.0
C65 C 0.04962 0.01508 0.6278 0.0
C66 C 0.03718 0.04884 0.57639 0.0
C67 C 0.10161 0.11147 0.56015 0.0
H68 H 0.75293 0.39766 0.82197 0.0
H69 H 0.53742 0.59611 0.81449 0.0
H70 H 0.70628 0.49318 0.95894 0.0
H71 H 0.49334 0.5102 0.95779 0.0
C72 C 0.47535 0.56163 0.92491 0.0
O73 O 0.561 0.59606 0.91242 0.0
H74 H 0.43274 0.5305 0.89286 0.0
C75 C 0.71593 0.44113 0.84081 0.0
C76 C 0.73933 0.43874 0.89402 0.0
C77 C 0.64334 0.49767 0.81185 0.0
C78 C 0.59492 0.5531 0.83624 0.0
C79 C 0.61686 0.55047 0.88912 0.0
C80 C 0.69025 0.49485 0.91795 0.0
H81 H 0.75556 0.58904 0.17361 0.0
H82 H 0.52705 0.39905 0.16585 0.0
H83 H 0.63239 0.50049 0.0305 0.0
H84 H 0.40707 0.48274 0.02253 0.0
C85 C 0.40999 0.42593 0.05165 0.0
O86 O 0.50549 0.39673 0.06796 0.0
H87 H 0.38083 0.4452 0.08445 0.0
C88 C 0.70814 0.54552 0.15207 0.0
C89 C 0.70565 0.54836 0.09957 0.0
C90 C 0.64345 0.49223 0.17605 0.0
C91 C 0.57897 0.43879 0.14787 0.0
C92 C 0.5743 0.44257 0.09539 0.0
C93 C 0.6379 0.49675 0.0713 0.0
C94 C 0.33589 0.23722 0.97669 0.0
C95 C 0.24777 0.20971 -0.00791 0.0
C96 C 0.3849 0.30986 -0.00611 0.0
C97 C 0.34848 0.3563 0.02797 0.0
H98 H 0.37024 0.1993 0.95362 0.0
H99 H 0.4545 0.32694 -0.01727 0.0
S100 S 0.11116 0.32103 0.07165 0.0
N101 N 0.1188 0.242 0.0371 0.0
N102 N 0.21138 0.37886 0.06964 0.0
C103 C 0.25569 0.33483 0.03952 0.0
C104 C 0.20515 0.26123 0.02153 0.0
C105 C 0.37226 0.7151 0.00093 0.0
C106 C 0.30267 0.76489 0.96417 0.0
C107 C 0.42776 0.65084 -0.01222 0.0
C108 C 0.41502 0.6319 0.93761 0.0
H109 H 0.3849 0.72565 0.04059 0.0
H110 H 0.48036 0.61503 0.01743 0.0
S111 S 0.24959 0.74534 0.82588 0.0
N112 N 0.22873 0.79291 0.87437 0.0
N113 N 0.33353 0.67033 0.85006 0.0
C114 C 0.34801 0.68174 0.90006 0.0
C115 C 0.29131 0.74818 0.91329 0.0
C116 C 0.76256 0.74284 0.01115 0.0
C117 C 0.86404 0.75341 0.02611 0.0
C118 C 0.71306 0.67511 0.03436 0.0
C119 C 0.76274 0.61492 0.07346 0.0
H120 H 0.72047 0.78791 -0.01862 0.0
H121 H 0.63486 0.67111 0.02221 0.0
S122 S 1.03016 0.60722 0.12263 0.0
N123 N 1.01418 0.694 0.0796 0.0
N124 N 0.92009 0.56631 0.1241 0.0
C125 C 0.86457 0.62346 0.08836 0.0
C126 C 0.91547 0.69283 0.06449 0.0
C127 C 0.94443 0.2736 0.9267 0.0
C128 C 0.9051 0.20921 0.95845 0.0
C129 C 0.89471 0.35246 0.90937 0.0
C130 C 0.80522 0.36938 0.92393 0.0
H131 H 1.0086 0.25999 0.91135 0.0
H132 H 0.92265 0.39785 0.88156 0.0
S133 S 0.68375 0.22785 0.01509 0.0
N134 N 0.78092 0.1721 0.0102 0.0
N135 N 0.68764 0.32025 0.97795 0.0
C136 C 0.7717 0.3093 0.96034 0.0
C137 C 0.82173 0.229 0.97753 0.0
C138 C 0.79993 0.84508 0.46217 0.0
C139 C 0.71973 0.81032 0.48289 0.0
C140 C 0.84316 0.92239 0.47568 0.0
C141 C 0.80874 0.9675 0.51105 0.0
H142 H 0.83397 0.80912 0.43804 0.0
H143 H 0.90846 0.94327 0.46113 0.0
S144 S 0.58772 0.91378 0.56766 0.0
N145 N 0.5978 0.83387 0.53406 0.0
N146 N 0.67908 0.98008 0.5594 0.0
C147 C 0.72198 0.93868 0.5276 0.0
C148 C 0.67742 0.85976 0.51355 0.0
C149 C 0.88784 0.34998 0.4435 0.0
C150 C 0.78712 0.35422 0.44441 0.0
C151 C 0.92866 0.27883 0.42772 0.0
C152 C 0.8701 0.20948 0.41169 0.0
H153 H 0.93603 0.40133 0.45618 0.0
H154 H 1.00706 0.27731 0.4292 0.0
S155 S 0.60422 0.18494 0.41238 0.0
N156 N 0.63109 0.28028 0.43177 0.0
N157 N 0.70732 0.14683 0.40116 0.0
C158 C 0.76935 0.21252 0.41297 0.0
C159 C 0.72788 0.28496 0.42932 0.0
C160 C 0.25668 0.35626 0.53601 0.0
C161 C 0.35842 0.34753 0.53989 0.0
C162 C 0.20078 0.28865 0.55487 0.0
C163 C 0.24448 0.20951 0.57829 0.0
H164 H 0.21939 0.41502 0.5165 0.0
H165 H 0.12233 0.29778 0.55023 0.0
S166 S 0.50784 0.15271 0.59638 0.0
N167 N 0.50064 0.25339 0.56776 0.0
N168 N 0.39561 0.1259 0.60443 0.0
C169 C 0.34666 0.20045 0.58368 0.0
C170 C 0.40371 0.26961 0.56412 0.0
C171 C 0.41145 0.84988 0.41664 0.0
C172 C 0.38668 0.79195 0.45665 0.0
C173 C 0.34958 0.92007 0.39402 0.0
C174 C 0.26199 0.93481 0.41119 0.0
H175 H 0.47232 0.83543 0.39896 0.0
H176 H 0.36569 0.95828 0.36002 0.0
S177 S 0.17848 0.81341 0.5229 0.0
N178 N 0.27952 0.76271 0.51853 0.0
N179 N 0.16391 0.89487 0.47643 0.0
C180 C 0.24426 0.88434 0.4556 0.0
C181 C 0.30663 0.81266 0.47826 0.0
C182 C 0.03329 0.03625 0.15091 0.0
C183 C 0.04806 0.95254 0.13935 0.0
C184 C 1.03126 0.05123 0.20082 0.0
C185 C 0.04435 0.98287 0.24096 0.0
H186 H 1.03216 0.09156 0.12192 0.0
H187 H 1.02818 0.11759 0.20851 0.0
S188 S 0.06575 0.74982 0.22852 0.0
N189 N 0.06271 0.7995 0.17022 0.0
N190 N 0.05519 0.82661 0.26422 0.0
C191 C 0.0482 0.89776 0.22882 0.0
C192 C 0.05091 0.88277 0.17786 0.0
C193 C 0.08308 0.90551 0.78481 0.0
C194 C 0.10388 0.96283 0.82131 0.0
C195 C 0.1 0.9288 0.73513 0.0
C196 C 0.13214 0.01258 0.71918 0.0
H197 H 0.04971 0.84365 0.79413 0.0
H198 H 0.08263 0.88212 0.70835 0.0
S199 S 0.19384 0.18705 0.80193 0.0
N200 N 0.16166 0.10451 0.8401 0.0
N201 N 0.18444 0.15272 0.74573 0.0
C202 C 0.15548 0.06972 0.75631 0.0
C203 C 0.14256 0.04402 0.80746 0.0
C204 C 0.62 0.58543 0.67331 0.0
C205 C 0.60624 0.51051 0.6489 0.0
C206 C 0.62651 0.58103 0.72588 0.0
C207 C 0.62076 0.50128 0.75589 0.0
H208 H 0.63056 0.64752 0.65182 0.0
H209 H 0.64171 0.63976 0.74345 0.0
S210 S 0.57292 0.2879 0.70936 0.0
N211 N 0.57795 0.35577 0.65745 0.0
N212 N 0.59019 0.34686 0.75706 0.0
C213 C 0.60071 0.4265 0.73157 0.0
C214 C 0.59311 0.4313 0.67772 0.0
C215 C 0.61413 0.44155 0.3137 0.0
C216 C 0.57405 0.51918 0.32247 0.0
C217 C 0.64038 0.43357 0.26661 0.0
C218 C 0.62946 0.50382 0.22766 0.0
H219 H 0.62084 0.38569 0.34235 0.0
H220 H 0.66705 0.37175 0.26015 0.0
S221 S 0.53355 0.72228 0.23304 0.0
N222 N 0.52842 0.66832 0.28942 0.0
N223 N 0.57924 0.65384 0.20129 0.0
C224 C 0.5931 0.58266 0.23678 0.0
C225 C 0.56492 0.59022 0.28417 0.0
loop_
_geom_bond_atom_site_label_1
_geom_bond_atom_site_label_2
_geom_bond_distance
_geom_bond_site_symmetry_2
_ccdc_geom_bond_type
Zn0 O6 1.920 1_545 S
Zn0 O12 1.898 . S
Zn0 O15 1.905 1_545 S
Zn1 O9 1.905 . S
Zn1 O10 1.898 1_545 S
Zn1 O18 1.920 1_545 S
Zn2 O5 2.080 1_445 S
Zn2 O8 2.114 1_554 S
Zn2 O11 2.120 1_545 S
Zn2 O13 2.120 1_455 S
Zn2 O14 2.114 1_554 S
Zn2 O17 2.080 . S
C3 O8 1.166 1_554 S
C3 O9 1.182 . S
C4 O10 1.167 . S
C4 O11 1.299 . S
O5 Zn2 2.080 1_665 S
O5 C19 1.305 . S
O6 Zn0 1.920 1_565 S
O6 C19 1.234 1_556 S
C7 O12 1.167 . S
C7 O13 1.299 1_556 S
O8 Zn2 2.114 1_556 S
O8 C3 1.166 1_556 S
O9 Zn1 1.905 . S
O9 C3 1.182 . S
O10 Zn1 1.898 1_565 S
O10 C4 1.167 . S
O11 Zn2 2.120 1_565 S
O11 C4 1.299 . S
O12 Zn0 1.898 . S
O12 C7 1.167 . S
O13 Zn2 2.120 1_655 S
O13 C7 1.299 1_554 S
O14 Zn2 2.114 1_556 S
O14 C16 1.171 1_545 S
O15 Zn0 1.905 1_565 S
O15 C16 1.174 1_655 S
C16 O14 1.171 1_565 S
C16 O15 1.174 1_455 S
O17 Zn2 2.080 . S
O17 C20 1.305 1_545 S
O18 Zn1 1.920 1_565 S
O18 C20 1.234 . S
C19 O5 1.305 . S
C19 O6 1.234 1_554 S
C20 O17 1.305 1_565 S
C20 O18 1.234 . S
Zn21 O27 1.920 . S
Zn21 O33 1.898 . S
Zn21 O36 1.905 . S
Zn22 O30 1.905 . S
Zn22 O31 1.898 . S
Zn22 O39 1.920 . S
Zn23 O26 2.080 . S
Zn23 O29 2.114 . S
Zn23 O32 2.120 . S
Zn23 O34 2.120 . S
Zn23 O35 2.114 . S
Zn23 O38 2.080 . S
C24 O29 1.166 . S
C24 O30 1.182 . S
C25 O31 1.167 . S
C25 O32 1.299 . S
O26 Zn23 2.080 . S
O26 C40 1.305 . S
O27 Zn21 1.920 . S
O27 C40 1.234 . S
C28 O33 1.167 . S
C28 O34 1.299 . S
O29 Zn23 2.114 . S
O29 C24 1.166 . S
O30 Zn22 1.905 . S
O30 C24 1.182 . S
O31 Zn22 1.898 . S
O31 C25 1.167 . S
O32 Zn23 2.120 . S
O32 C25 1.299 . S
O33 Zn21 1.898 . S
O33 C28 1.167 . S
O34 Zn23 2.120 . S
O34 C28 1.299 . S
O35 Zn23 2.114 . S
O35 C37 1.166 . S
O36 Zn21 1.905 . S
O36 C37 1.182 . S
C37 O35 1.166 . S
C37 O36 1.182 . S
O38 Zn23 2.080 . S
O38 C41 1.305 . S
O39 Zn22 1.920 . S
O39 C41 1.234 . S
C40 O26 1.305 . S
C40 O27 1.234 . S
C41 O38 1.305 . S
C41 O39 1.234 . S
H42 C49 0.929 . S
H43 C52 0.930 . S
H44 C54 0.929 . S
H45 C46 0.969 . S
C46 H45 0.969 . S
C46 O47 1.550 1_655 S
C46 H48 0.973 . S
O47 C46 1.550 1_455 S
O47 C53 1.412 . S
H48 C46 0.973 . S
C49 H42 0.929 . S
C49 C50 1.400 . S
C49 C51 1.364 1_565 S
C50 C49 1.400 . S
C50 C54 1.377 . S
C51 C49 1.364 1_545 S
C51 C52 1.374 . S
C52 H43 0.930 . S
C52 C51 1.374 . S
C52 C53 1.383 . S
C53 O47 1.412 . S
C53 C52 1.383 . S
C53 C54 1.394 1_545 S
C54 H44 0.929 . S
C54 C50 1.377 . S
C54 C53 1.394 1_565 S
H55 C62 0.929 . S
H56 C65 0.930 1_565 S
H57 C67 0.929 . S
H58 C59 0.969 . S
C59 H58 0.969 . S
C59 O60 1.550 . S
C59 H61 0.973 . S
O60 C59 1.550 . S
O60 C66 1.412 1_565 S
H61 C59 0.973 . S
C62 H55 0.929 . S
C62 C63 1.400 . S
C62 C64 1.364 . S
C63 C62 1.400 . S
C63 C67 1.377 . S
C64 C62 1.364 . S
C64 C65 1.374 1_455 S
C65 H56 0.930 1_545 S
C65 C64 1.374 1_655 S
C65 C66 1.383 . S
C66 O60 1.412 1_545 S
C66 C65 1.383 . S
C66 C67 1.394 1_655 S
C67 H57 0.929 . S
C67 C63 1.377 . S
C67 C66 1.394 1_455 S
H68 C75 0.929 . S
H69 C78 0.930 . S
H70 C80 0.929 . S
H71 C72 0.969 . S
C72 H71 0.969 . S
C72 O73 1.550 . S
C72 H74 0.973 . S
O73 C72 1.550 . S
O73 C79 1.412 . S
H74 C72 0.973 . S
C75 H68 0.929 . S
C75 C76 1.400 . S
C75 C77 1.364 . S
C76 C75 1.400 . S
C76 C80 1.377 . S
C77 C75 1.364 . S
C77 C78 1.374 . S
C78 H69 0.930 . S
C78 C77 1.374 . S
C78 C79 1.383 . S
C79 O73 1.412 . S
C79 C78 1.383 . S
C79 C80 1.394 . S
C80 H70 0.929 . S
C80 C76 1.377 . S
C80 C79 1.394 . S
H81 C88 0.929 . S
H82 C91 0.930 . S
H83 C93 0.929 . S
H84 C85 0.969 . S
C85 H84 0.969 . S
C85 O86 1.550 . S
C85 H87 0.973 . S
O86 C85 1.550 . S
O86 C92 1.412 . S
H87 C85 0.973 . S
C88 H81 0.929 . S
C88 C89 1.400 . S
C88 C90 1.364 . S
C89 C88 1.400 . S
C89 C93 1.377 . S
C90 C88 1.364 . S
C90 C91 1.374 . S
C91 H82 0.930 . S
C91 C90 1.374 . S
C91 C92 1.383 . S
C92 O86 1.412 . S
C92 C91 1.383 . S
C92 C93 1.394 . S
C93 H83 0.929 . S
C93 C89 1.377 . S
C93 C92 1.394 . S
C94 C95 1.369 1_556 S
C94 C96 1.419 . S
C94 H98 0.930 . S
C95 C94 1.369 1_554 S
C95 C104 1.429 . S
C96 C94 1.419 . S
C96 C97 1.363 1_556 S
C96 H99 0.929 . S
C97 C96 1.363 1_554 S
C97 C103 1.428 . S
H98 C94 0.930 . S
H99 C96 0.929 . S
S100 N101 1.613 . S
S100 N102 1.610 . S
N101 S100 1.613 . S
N101 C104 1.350 . S
N102 S100 1.610 . S
N102 C103 1.351 . S
C103 C97 1.428 . S
C103 N102 1.351 . S
C103 C104 1.434 . S
C104 C95 1.429 . S
C104 N101 1.350 . S
C104 C103 1.434 . S
C105 C106 1.369 1_554 S
C105 C107 1.419 . S
C105 H109 0.930 . S
C106 C105 1.369 1_556 S
C106 C115 1.429 . S
C107 C105 1.419 . S
C107 C108 1.363 1_554 S
C107 H110 0.929 . S
C108 C107 1.363 1_556 S
C108 C114 1.428 . S
H109 C105 0.930 . S
H110 C107 0.929 . S
S111 N112 1.613 . S
S111 N113 1.610 . S
N112 S111 1.613 . S
N112 C115 1.350 . S
N113 S111 1.610 . S
N113 C114 1.351 . S
C114 C108 1.428 . S
C114 N113 1.351 . S
C114 C115 1.434 . S
C115 C106 1.429 . S
C115 N112 1.350 . S
C115 C114 1.434 . S
C116 C117 1.369 . S
C116 C118 1.419 . S
C116 H120 0.930 1_554 S
C117 C116 1.369 . S
C117 C126 1.429 . S
C118 C116 1.419 . S
C118 C119 1.363 . S
C118 H121 0.929 . S
C119 C118 1.363 . S
C119 C125 1.428 . S
H120 C116 0.930 1_556 S
H121 C118 0.929 . S
S122 N123 1.613 . S
S122 N124 1.610 . S
N123 S122 1.613 . S
N123 C126 1.350 . S
N124 S122 1.610 . S
N124 C125 1.351 . S
C125 C119 1.428 . S
C125 N124 1.351 . S
C125 C126 1.434 . S
C126 C117 1.429 . S
C126 N123 1.350 . S
C126 C125 1.434 . S
C127 C128 1.369 . S
C127 C129 1.419 . S
C127 H131 0.930 . S
C128 C127 1.369 . S
C128 C137 1.429 . S
C129 C127 1.419 . S
C129 C130 1.363 . S
C129 H132 0.929 . S
C130 C129 1.363 . S
C130 C136 1.428 . S
H131 C127 0.930 . S
H132 C129 0.929 . S
S133 N134 1.613 . S
S133 N135 1.610 . S
N134 S133 1.613 . S
N134 C137 1.350 . S
N135 S133 1.610 . S
N135 C136 1.351 . S
C136 C130 1.428 . S
C136 N135 1.351 . S
C136 C137 1.434 . S
C137 C128 1.429 . S
C137 N134 1.350 . S
C137 C136 1.434 . S
C138 C139 1.369 . S
C138 C140 1.419 . S
C138 H142 0.930 . S
C139 C138 1.369 . S
C139 C148 1.429 . S
C140 C138 1.419 . S
C140 C141 1.363 . S
C140 H143 0.929 . S
C141 C140 1.363 . S
C141 C147 1.428 . S
H142 C138 0.930 . S
H143 C140 0.929 . S
S144 N145 1.613 . S
S144 N146 1.610 . S
N145 S144 1.613 . S
N145 C148 1.350 . S
N146 S144 1.610 . S
N146 C147 1.351 . S
C147 C141 1.428 . S
C147 N146 1.351 . S
C147 C148 1.434 . S
C148 C139 1.429 . S
C148 N145 1.350 . S
C148 C147 1.434 . S
C149 C150 1.369 . S
C149 C151 1.419 . S
C149 H153 0.930 . S
C150 C149 1.369 . S
C150 C159 1.429 . S
C151 C149 1.419 . S
C151 C152 1.363 . S
C151 H154 0.929 . S
C152 C151 1.363 . S
C152 C158 1.428 . S
H153 C149 0.930 . S
H154 C151 0.929 . S
S155 N156 1.613 . S
S155 N157 1.610 . S
N156 S155 1.613 . S
N156 C159 1.350 . S
N157 S155 1.610 . S
N157 C158 1.351 . S
C158 C152 1.428 . S
C158 N157 1.351 . S
C158 C159 1.434 . S
C159 C150 1.429 . S
C159 N156 1.350 . S
C159 C158 1.434 . S
C160 C161 1.369 . S
C160 C162 1.419 . S
C160 H164 0.930 . S
C161 C160 1.369 . S
C161 C170 1.429 . S
C162 C160 1.419 . S
C162 C163 1.363 . S
C162 H165 0.929 . S
C163 C162 1.363 . S
C163 C169 1.428 . S
H164 C160 0.930 . S
H165 C162 0.929 . S
S166 N167 1.613 . S
S166 N168 1.610 . S
N167 S166 1.613 . S
N167 C170 1.350 . S
N168 S166 1.610 . S
N168 C169 1.351 . S
C169 C163 1.428 . S
C169 N168 1.351 . S
C169 C170 1.434 . S
C170 C161 1.429 . S
C170 N167 1.350 . S
C170 C169 1.434 . S
C171 C172 1.369 . S
C171 C173 1.419 . S
C171 H175 0.930 . S
C172 C171 1.369 . S
C172 C181 1.429 . S
C173 C171 1.419 . S
C173 C174 1.363 . S
C173 H176 0.929 . S
C174 C173 1.363 . S
C174 C180 1.428 . S
H175 C171 0.930 . S
H176 C173 0.929 . S
S177 N178 1.613 . S
S177 N179 1.610 . S
N178 S177 1.613 . S
N178 C181 1.350 . S
N179 S177 1.610 . S
N179 C180 1.351 . S
C180 C174 1.428 . S
C180 N179 1.351 . S
C180 C181 1.434 . S
C181 C172 1.429 . S
C181 N178 1.350 . S
C181 C180 1.434 . S
C182 C183 1.369 1_545 S
C182 C184 1.419 . S
C182 H186 0.930 . S
C183 C182 1.369 1_565 S
C183 C192 1.429 . S
C184 C182 1.419 . S
C184 C185 1.361 1_545 S
C184 H187 0.929 . S
C185 C184 1.361 1_565 S
C185 C191 1.432 . S
H186 C182 0.930 . S
H187 C184 0.929 . S
S188 N189 1.613 . S
S188 N190 1.610 1_655 S
N189 S188 1.613 . S
N189 C192 1.350 1_655 S
N190 S188 1.610 1_455 S
N190 C191 1.351 . S
C191 C185 1.432 . S
C191 N190 1.351 . S
C191 C192 1.434 . S
C192 C183 1.429 . S
C192 N189 1.350 1_455 S
C192 C191 1.434 . S
C193 C194 1.369 . S
C193 C195 1.419 . S
C193 H197 0.930 . S
C194 C193 1.369 . S
C194 C203 1.429 1_565 S
C195 C193 1.419 . S
C195 C196 1.363 1_565 S
C195 H198 0.929 . S
C196 C195 1.363 1_545 S
C196 C202 1.428 . S
H197 C193 0.930 . S
H198 C195 0.929 . S
S199 N200 1.613 . S
S199 N201 1.610 . S
N200 S199 1.613 . S
N200 C203 1.350 . S
N201 S199 1.610 . S
N201 C202 1.351 . S
C202 C196 1.428 . S
C202 N201 1.351 . S
C202 C203 1.434 . S
C203 C194 1.429 1_545 S
C203 N200 1.350 . S
C203 C202 1.434 . S
C204 C205 1.369 . S
C204 C206 1.419 . S
C204 H208 0.930 . S
C205 C204 1.369 . S
C205 C214 1.429 . S
C206 C204 1.419 . S
C206 C207 1.363 . S
C206 H209 0.929 . S
C207 C206 1.363 . S
C207 C213 1.428 . S
H208 C204 0.930 . S
H209 C206 0.929 . S
S210 N211 1.613 . S
S210 N212 1.610 . S
N211 S210 1.613 . S
N211 C214 1.350 . S
N212 S210 1.610 . S
N212 C213 1.351 . S
C213 C207 1.428 . S
C213 N212 1.351 . S
C213 C214 1.434 . S
C214 C205 1.429 . S
C214 N211 1.350 . S
C214 C213 1.434 . S
C215 C216 1.369 . S
C215 C217 1.419 . S
C215 H219 0.930 . S
C216 C215 1.369 . S
C216 C225 1.429 . S
C217 C215 1.419 . S
C217 C218 1.363 . S
C217 H220 0.929 . S
C218 C217 1.363 . S
C218 C224 1.428 . S
H219 C215 0.930 . S
H220 C217 0.929 . S
S221 N222 1.613 . S
S221 N223 1.610 . S
N222 S221 1.613 . S
N222 C225 1.350 . S
N223 S221 1.610 . S
N223 C224 1.351 . S
C224 C218 1.428 . S
C224 N223 1.351 . S
C224 C225 1.434 . S
C225 C216 1.429 . S
C225 N222 1.350 . S
C225 C224 1.434 . S
C97 C85 1.246 . S
C95 C3 1.214 . S
C106 C4 1.456 1_556 S
C108 C72 1.434 . S
C117 C19 1.503 . S
C119 C89 1.622 . S
C128 C7 1.218 . S
C130 C76 1.386 . S
C139 C37 1.211 . S
C141 C59 1.245 . S
C150 C28 1.449 . S
C152 C46 1.439 . S
C163 C63 1.624 . S
C161 C41 1.498 . S
C174 C50 1.388 . S
C172 C25 1.226 . S
C183 C20 1.364 . S
C185 C51 1.541 1_565 S
C194 C16 1.402 . S
C196 C64 1.567 . S
C207 C77 1.542 . S
C205 C40 1.363 . S
C216 C24 1.398 . S
C218 C90 1.567 . S
