# Generated by pormake.
# Topology rtl, (3,6)-cn, num edge types: 1
# Building blocks:
#     Node 0, Type 0, BuildingBlock: BETDIP_clean_linker_0, # of connection points: 3
#     Node 1, Type 0, BuildingBlock: BETDIP_clean_linker_0, # of connection points: 3
#     Node 2, Type 0, BuildingBlock: BETDIP_clean_linker_0, # of connection points: 3
#     Node 3, Type 0, BuildingBlock: BETDIP_clean_linker_0, # of connection points: 3
#     Node 4, Type 1, BuildingBlock: FUNLAD_clean_sbu_0, # of connection points: 6
#     Node 5, Type 1, BuildingBlock: FUNLAD_clean_sbu_0, # of connection points: 6
#     Edge 6, Type (0, 1), BuildingBlock: AJUNOK_clean_linker_0, # of connection points: 2
#     Edge 7, Type (0, 1), BuildingBlock: AJUNOK_clean_linker_0, # of connection points: 2
#     Edge 8, Type (0, 1), BuildingBlock: AJUNOK_clean_linker_0, # of connection points: 2
#     Edge 9, Type (0, 1), BuildingBlock: AJUNOK_clean_linker_0, # of connection points: 2
#     Edge 10, Type (0, 1), BuildingBlock: AJUNOK_clean_linker_0, # of connection points: 2
#     Edge 11, Type (0, 1), BuildingBlock: AJUNOK_clean_linker_0, # of connection points: 2
#     Edge 12, Type (0, 1), BuildingBlock: AJUNOK_clean_linker_0, # of connection points: 2
#     Edge 13, Type (0, 1), BuildingBlock: AJUNOK_clean_linker_0, # of connection points: 2
#     Edge 14, Type (0, 1), BuildingBlock: AJUNOK_clean_linker_0, # of connection points: 2
#     Edge 15, Type (0, 1), BuildingBlock: AJUNOK_clean_linker_0, # of connection points: 2
#     Edge 16, Type (0, 1), BuildingBlock: AJUNOK_clean_linker_0, # of connection points: 2
#     Edge 17, Type (0, 1), BuildingBlock: AJUNOK_clean_linker_0, # of connection points: 2
# Relax obj value: 0.002
# Max RMSD: 0.032
# Mean RMSD: 0.021
data_MOF--net-rtl--node1-FUNLAD_clean_sbu_0--node2-BETDIP_clean_linker_0--edge1-AJUNOK_clean_linker_0
_symmetry_space_group_name_H-M    P1
_symmetry_Int_Tables_number       1
_symmetry_cell_setting            triclinic
loop_
_symmetry_equiv_pos_as_xyz
'x, y, z'
_cell_length_a     30.734659
_cell_length_b     30.632653
_cell_length_c     15.314811
_cell_angle_alpha  91.206763
_cell_angle_beta   92.10954
_cell_angle_gamma 90.018706
loop_
_atom_site_label
_atom_site_type_symbol
_atom_site_fract_x
_atom_site_fract_y
_atom_site_fract_z
_atom_type_partial_charge
H0 H 0.1782 0.83547 0.85346 0.0
H1 H 0.17805 0.83703 0.13546 0.0
H2 H 0.10299 0.93103 -0.00883 0.0
H3 H 0.24606 0.81093 0.11937 0.0
C4 C 0.24452 0.78957 0.06191 0.0
C5 C 0.16705 0.84927 0.91442 0.0
C6 C 0.13868 0.88509 0.91338 0.0
C7 C 0.18272 0.83248 -0.00584 0.0
C8 C 0.16767 0.85035 0.07322 0.0
C9 C 0.13908 0.88602 0.07196 0.0
C10 C 0.12502 0.90335 -0.0079 0.0
N11 N 0.21403 0.79833 -0.00762 0.0
H12 H 0.69318 0.68753 0.6708 0.0
H13 H 0.68869 0.68582 0.3887 0.0
H14 H 0.6005 0.60623 0.52682 0.0
H15 H 0.71237 0.75556 0.41135 0.0
C16 C 0.73587 0.75307 0.46574 0.0
C17 C 0.67902 0.6757 0.60889 0.0
C18 C 0.64507 0.64505 0.60752 0.0
C19 C 0.69427 0.69171 0.53034 0.0
C20 C 0.67636 0.67527 0.45012 0.0
C21 C 0.64238 0.64468 0.44893 0.0
C22 C 0.62664 0.63008 0.52767 0.0
N23 N 0.72789 0.7237 0.53409 0.0
H24 H 0.83691 0.1869 0.84271 0.0
H25 H 0.83643 0.18793 0.1246 0.0
H26 H 0.92974 0.11027 0.98956 0.0
H27 H 0.76807 0.21313 0.10214 0.0
C28 C 0.76957 0.23355 0.04524 0.0
C29 C 0.85009 0.17575 0.90497 0.0
C30 C 0.88537 0.14673 0.90727 0.0
C31 C 0.8319 0.19082 0.98272 0.0
C32 C 0.84926 0.17623 0.06359 0.0
C33 C 0.88469 0.14729 0.06591 0.0
C34 C 0.90269 0.13303 0.98777 0.0
N35 N 0.79767 0.22197 0.97685 0.0
H36 H 0.33674 0.34581 0.35069 0.0
H37 H 0.33976 0.34605 0.6328 0.0
H38 H 0.42327 0.43209 0.49846 0.0
H39 H 0.31753 0.27628 0.60915 0.0
C40 C 0.29492 0.27784 0.55317 0.0
C41 C 0.34985 0.35811 0.41312 0.0
C42 C 0.38155 0.39107 0.41589 0.0
C43 C 0.335 0.34091 0.49089 0.0
C44 C 0.35163 0.35773 0.57187 0.0
C45 C 0.38374 0.39028 0.57434 0.0
C46 C 0.39858 0.40671 0.49642 0.0
N47 N 0.30279 0.30754 0.48541 0.0
C48 C 0.05833 0.97313 0.36309 0.0
N49 N 0.08746 0.08995 0.49923 0.0
C50 C 0.12957 0.07626 0.50507 0.0
C51 C 0.16347 0.1065 0.51349 0.0
C52 C 0.15399 0.15127 0.51567 0.0
C53 C 0.11039 0.16465 0.50746 0.0
C54 C 0.07739 0.13323 0.49972 0.0
Zn55 Zn 0.03925 0.04383 0.49275 0.0
C56 C 0.96889 0.06413 0.3626 0.0
N57 N 0.94044 0.94532 0.48154 0.0
C58 C 0.95176 0.90235 0.48098 0.0
C59 C 0.89791 0.95775 0.48014 0.0
C60 C 0.86484 0.92643 0.47863 0.0
C61 C 0.8756 0.88189 0.47899 0.0
C62 C 0.91971 0.86996 0.47958 0.0
Zn63 Zn 0.98821 0.99208 0.48667 0.0
O64 O 0.07257 0.00904 0.39577 0.0
C65 C 0.05858 0.9723 0.61756 0.0
O66 O 0.02277 0.9577 0.38917 0.0
H67 H 0.88959 0.99205 0.48068 0.0
H68 H 0.13693 0.04174 0.50393 0.0
H69 H 0.98574 0.89315 0.48175 0.0
O70 O 0.07269 1.00838 0.5907 0.0
O71 O 0.02295 0.95709 0.58497 0.0
H72 H 0.04371 0.1434 0.49507 0.0
O73 O 0.95464 0.0274 0.58394 0.0
O74 O 1.00522 0.07806 0.5898 0.0
O75 O 0.95424 0.02803 0.38873 0.0
O76 O 1.00493 0.07863 0.39466 0.0
C77 C 0.96938 0.06335 0.61576 0.0
H78 H 0.19679 0.095 0.51812 0.0
H79 H 0.10193 0.19897 0.50886 0.0
H80 H 0.83118 0.93693 0.47827 0.0
H81 H 0.92932 0.83595 0.47808 0.0
C82 C 0.46752 0.47382 0.87803 0.0
N83 N 0.5833 0.44286 0.01623 0.0
C84 C 0.56975 0.40057 0.01715 0.0
C85 C 0.60004 0.36663 0.02051 0.0
C86 C 0.64469 0.37624 0.02206 0.0
C87 C 0.65785 0.42011 0.02087 0.0
C88 C 0.62644 0.4531 0.01809 0.0
Zn89 Zn 0.53759 0.49156 0.01322 0.0
C90 C 0.56006 0.56199 0.89097 0.0
N91 N 0.44144 0.5925 0.00797 0.0
C92 C 0.39861 0.581 0.0023 0.0
C93 C 0.45374 0.63507 0.01754 0.0
C94 C 0.42241 0.66789 0.02417 0.0
C95 C 0.37806 0.65677 0.02062 0.0
C96 C 0.36623 0.61281 0.00799 0.0
Zn97 Zn 0.48774 0.54441 0.00923 0.0
O98 O 0.50268 0.4583 0.91069 0.0
C99 C 0.46528 0.4745 0.13177 0.0
O100 O 0.45358 0.51027 0.90656 0.0
H101 H 0.48793 0.64353 0.02162 0.0
H102 H 0.53534 0.3931 0.01542 0.0
H103 H 0.38948 0.54698 -0.00477 0.0
O104 O 0.50088 0.4584 0.1063 0.0
O105 O 0.45217 0.51056 0.10122 0.0
H106 H 0.63655 0.48692 0.01786 0.0
O107 O 0.52255 0.57738 0.1125 0.0
O108 O 0.57203 0.52575 0.11536 0.0
O109 O 0.52442 0.5779 0.9169 0.0
O110 O 0.57315 0.52562 0.92052 0.0
C111 C 0.55787 0.56196 0.14463 0.0
H112 H 0.58868 0.33315 0.02112 0.0
H113 H 0.69203 0.42882 0.02339 0.0
H114 H 0.43272 0.70158 0.03253 0.0
H115 H 0.33232 0.60303 0.00512 0.0
C116 C 0.22721 0.24825 0.47592 0.0
C117 C 0.25874 0.24587 0.54473 0.0
C118 C 0.19305 0.21786 0.46754 0.0
C119 C 0.18953 0.18383 0.52707 0.0
H120 H 0.22878 0.27371 0.42813 0.0
H121 H 0.16963 0.22059 0.41331 0.0
S122 S 0.26245 0.16442 0.72062 0.0
N123 N 0.28336 0.20764 0.6749 0.0
N124 N 0.21932 0.15047 0.6588 0.0
C125 C 0.22052 0.18138 0.59655 0.0
C126 C 0.25505 0.21246 0.60548 0.0
C127 C 0.27709 0.72618 0.98014 0.0
C128 C 0.27829 0.7554 0.05241 0.0
C129 C 0.30938 0.69422 0.97044 0.0
C130 C 0.34421 0.69069 0.03208 0.0
H131 H 0.2511 0.72786 0.93064 0.0
H132 H 0.30738 0.67245 0.91376 0.0
S133 S 0.36124 0.75795 0.23461 0.0
N134 N 0.3164 0.77779 0.18786 0.0
N135 N 0.37709 0.7179 0.16932 0.0
C136 C 0.34555 0.71941 0.10487 0.0
C137 C 0.31255 0.75167 0.11513 0.0
C138 C 0.77253 0.81929 0.41253 0.0
C139 C 0.77243 0.78479 0.47165 0.0
C140 C 0.80589 0.85053 0.41558 0.0
C141 C 0.84079 0.8482 0.4773 0.0
H142 H 0.74637 0.82237 0.36366 0.0
H143 H 0.80458 0.87651 0.36862 0.0
S144 S 0.85629 0.7642 0.64667 0.0
N145 N 0.81053 0.74994 0.59371 0.0
N146 N 0.8732 0.80878 0.59946 0.0
C147 C 0.84133 0.8137 0.53654 0.0
C148 C 0.80715 0.78198 0.53382 0.0
C149 C 0.70493 0.27449 0.09613 0.0
C150 C 0.73858 0.27053 0.03671 0.0
C151 C 0.67464 0.30863 0.0907 0.0
C152 C 0.67724 0.34049 0.02632 0.0
H153 H 0.7018 0.25079 0.14708 0.0
H154 H 0.64924 0.31037 0.13785 0.0
S155 S 0.75912 0.3454 0.85492 0.0
N156 N 0.77273 0.30176 0.91119 0.0
N157 N 0.71579 0.36591 0.90141 0.0
C158 C 0.71083 0.33718 0.96674 0.0
C159 C 0.7415 0.30218 0.97173 0.0
C160 C 0.09327 0.88453 0.20297 0.0
C161 C 0.12359 0.90634 0.1532 0.0
C162 C 0.07282 0.90614 0.27195 0.0
C163 C 0.08238 0.95013 0.29378 0.0
H164 H 0.08404 0.85117 0.18619 0.0
H165 H 0.04883 0.88845 0.30741 0.0
S166 S 0.16167 0.02045 0.18479 0.0
N167 N 0.1636 0.9732 0.13124 0.0
N168 N 0.12596 0.01392 0.26141 0.0
C169 C 0.11404 0.97162 0.24609 0.0
C170 C 0.13441 0.9497 0.17555 0.0
C171 C 0.59087 0.64563 0.72407 0.0
C172 C 0.62836 0.6275 0.68853 0.0
C173 C 0.56978 0.62489 0.79147 0.0
C174 C 0.58526 0.58504 0.82499 0.0
H175 H 0.57692 0.6752 0.69743 0.0
H176 H 0.54041 0.63965 0.81555 0.0
S177 S 0.68381 0.52553 0.75443 0.0
N178 N 0.68117 0.56882 0.69202 0.0
N179 N 0.642 0.52948 0.81884 0.0
C180 C 0.62378 0.56745 0.79134 0.0
C181 C 0.64517 0.58874 0.7229 0.0
C182 C 0.94762 0.13831 0.17093 0.0
C183 C 0.90342 0.13085 0.14906 0.0
C184 C 0.96808 0.11777 0.24214 0.0
C185 C 0.94526 0.0883 0.29294 0.0
H186 H 0.96677 0.15932 0.13115 0.0
H187 H 1.00246 0.12378 0.25528 0.0
S188 S 0.8281 0.0597 0.2648 0.0
N189 N 0.83679 0.09401 0.18548 0.0
N190 N 0.87522 0.05471 0.31908 0.0
C191 C 0.90059 0.08166 0.27324 0.0
C192 C 0.87965 0.10315 0.20137 0.0
C193 C 0.44613 0.39911 0.68092 0.0
C194 C 0.40244 0.4078 0.65774 0.0
C195 C 0.46648 0.41965 0.75402 0.0
C196 C 0.44404 0.45028 0.80533 0.0
H197 H 0.46491 0.37698 0.64105 0.0
H198 H 0.50047 0.41253 0.76858 0.0
S199 S 0.32828 0.48276 0.77268 0.0
N200 N 0.33672 0.44732 0.69227 0.0
N201 N 0.37492 0.48671 0.82945 0.0
C202 C 0.39989 0.45843 0.78361 0.0
C203 C 0.37908 0.43696 0.7098 0.0
C204 C 0.57873 0.63422 0.34549 0.0
C205 C 0.62302 0.62706 0.36599 0.0
C206 C 0.55828 0.61405 0.27207 0.0
C207 C 0.58125 0.58526 0.21772 0.0
H208 H 0.55962 0.655 0.38748 0.0
H209 H 0.52389 0.61997 0.25955 0.0
S210 S 0.69847 0.55709 0.24242 0.0
N211 N 0.68973 0.59084 0.32547 0.0
N212 N 0.6513 0.5521 0.18783 0.0
C213 C 0.62589 0.57857 0.23676 0.0
C214 C 0.6468 0.59972 0.31083 0.0
C215 C 0.94872 0.1366 0.8122 0.0
C216 C 0.90439 0.12958 0.82639 0.0
C217 C 0.96908 0.11611 0.74209 0.0
C218 C 0.94601 0.08715 0.68476 0.0
H219 H 0.96797 0.15737 0.85685 0.0
H220 H 1.00352 0.12187 0.73471 0.0
S221 S 0.82862 0.05944 0.69229 0.0
N222 N 0.83751 0.09341 0.77627 0.0
N223 N 0.87577 0.05421 0.64474 0.0
C224 C 0.9013 0.08076 0.69712 0.0
C225 C 0.88047 0.1022 0.76786 0.0
C226 C 0.42867 0.38787 0.28713 0.0
C227 C 0.39744 0.41011 0.3356 0.0
C228 C 0.44978 0.40862 0.21973 0.0
C229 C 0.44012 0.4522 0.19847 0.0
H230 H 0.43806 0.35491 0.30382 0.0
H231 H 0.47446 0.39065 0.18533 0.0
S232 S 0.35876 0.52335 0.3049 0.0
N233 N 0.35658 0.47686 0.35723 0.0
N234 N 0.39547 0.51602 0.22992 0.0
C235 C 0.40756 0.47407 0.24483 0.0
C236 C 0.38646 0.45298 0.31372 0.0
C237 C 0.09173 0.8839 0.77715 0.0
C238 C 0.12349 0.90496 0.83102 0.0
C239 C 0.07152 0.9056 0.70684 0.0
C240 C 0.0827 0.94895 0.68791 0.0
H241 H 0.08118 0.85118 0.79171 0.0
H242 H 0.04635 0.88856 0.66824 0.0
S243 S 0.1664 0.01691 0.80792 0.0
N244 N 0.16675 0.97022 0.85985 0.0
N245 N 0.12957 0.0111 0.72727 0.0
C246 C 0.11589 0.96955 0.73971 0.0
C247 C 0.13605 0.94753 0.8115 0.0
loop_
_geom_bond_atom_site_label_1
_geom_bond_atom_site_label_2
_geom_bond_distance
_geom_bond_site_symmetry_2
_ccdc_geom_bond_type
H0 C5 0.930 . S
H1 C8 0.930 . S
H2 C10 0.930 . S
H3 C4 1.016 . S
C4 H3 1.016 . S
C4 N11 1.286 1_554 S
C5 H0 0.930 . S
C5 C6 1.397 . S
C5 C7 1.361 1_556 S
C6 C5 1.397 . S
C6 C10 1.390 1_556 S
C7 C5 1.361 1_554 S
C7 C8 1.393 . S
C7 N11 1.413 1_554 S
C8 H1 0.930 . S
C8 C7 1.393 . S
C8 C9 1.399 . S
C9 C8 1.399 . S
C9 C10 1.381 . S
C10 H2 0.930 . S
C10 C6 1.390 1_554 S
C10 C9 1.381 . S
N11 C4 1.286 1_556 S
N11 C7 1.413 1_556 S
H12 C17 0.930 . S
H13 C20 0.930 . S
H14 C22 0.930 . S
H15 C16 1.016 . S
C16 H15 1.016 . S
C16 N23 1.286 . S
C17 H12 0.930 . S
C17 C18 1.397 . S
C17 C19 1.361 . S
C18 C17 1.397 . S
C18 C22 1.390 . S
C19 C17 1.361 . S
C19 C20 1.393 . S
C19 N23 1.413 . S
C20 H13 0.930 . S
C20 C19 1.393 . S
C20 C21 1.399 . S
C21 C20 1.399 . S
C21 C22 1.381 . S
C22 H14 0.930 . S
C22 C18 1.390 . S
C22 C21 1.381 . S
N23 C16 1.286 . S
N23 C19 1.413 . S
H24 C29 0.930 . S
H25 C32 0.930 . S
H26 C34 0.930 . S
H27 C28 1.016 . S
C28 H27 1.016 . S
C28 N35 1.286 1_554 S
C29 H24 0.930 . S
C29 C30 1.397 . S
C29 C31 1.361 . S
C30 C29 1.397 . S
C30 C34 1.390 1_556 S
C31 C29 1.361 . S
C31 C32 1.393 1_556 S
C31 N35 1.413 . S
C32 H25 0.930 . S
C32 C31 1.393 1_554 S
C32 C33 1.399 . S
C33 C32 1.399 . S
C33 C34 1.381 . S
C34 H26 0.930 . S
C34 C30 1.390 1_554 S
C34 C33 1.381 . S
N35 C28 1.286 1_556 S
N35 C31 1.413 . S
H36 C41 0.930 . S
H37 C44 0.930 . S
H38 C46 0.930 . S
H39 C40 1.016 . S
C40 H39 1.016 . S
C40 N47 1.286 . S
C41 H36 0.930 . S
C41 C42 1.397 . S
C41 C43 1.361 . S
C42 C41 1.397 . S
C42 C46 1.390 . S
C43 C41 1.361 . S
C43 C44 1.393 . S
C43 N47 1.413 . S
C44 H37 0.930 . S
C44 C43 1.393 . S
C44 C45 1.399 . S
C45 C44 1.399 . S
C45 C46 1.381 . S
C46 H38 0.930 . S
C46 C42 1.390 . S
C46 C45 1.381 . S
N47 C40 1.286 . S
N47 C43 1.413 . S
C48 O64 1.251 1_565 S
C48 O66 1.254 . S
N49 C50 1.333 . S
N49 C54 1.307 . S
N49 Zn55 2.020 . S
C50 N49 1.333 . S
C50 C51 1.379 . S
C50 H68 0.952 . S
C51 C50 1.379 . S
C51 C52 1.390 . S
C51 H78 0.949 . S
C52 C51 1.390 . S
C52 C53 1.357 . S
C53 C52 1.357 . S
C53 C54 1.370 . S
C53 H79 0.950 . S
C54 N49 1.307 . S
C54 C53 1.370 . S
C54 H72 0.948 . S
Zn55 N49 2.020 . S
Zn55 O64 2.039 . S
Zn55 O70 2.050 . S
Zn55 O74 2.025 1_455 S
Zn55 O76 2.024 1_455 S
C56 O75 1.246 . S
C56 O76 1.249 . S
N57 C58 1.307 . S
N57 C59 1.333 . S
N57 Zn63 2.020 . S
C58 N57 1.307 . S
C58 C62 1.370 . S
C58 H69 0.948 . S
C59 N57 1.333 . S
C59 C60 1.379 . S
C59 H67 0.952 . S
C60 C59 1.379 . S
C60 C61 1.390 . S
C60 H80 0.949 . S
C61 C60 1.390 . S
C61 C62 1.357 . S
C62 C58 1.370 . S
C62 C61 1.357 . S
C62 H81 0.950 . S
Zn63 N57 2.020 . S
Zn63 O66 2.025 1_655 S
Zn63 O71 2.024 1_655 S
Zn63 O73 2.039 1_565 S
Zn63 O75 2.034 1_565 S
O64 C48 1.251 1_545 S
O64 Zn55 2.039 . S
C65 O70 1.225 1_565 S
C65 O71 1.249 . S
O66 C48 1.254 . S
O66 Zn63 2.025 1_455 S
H67 C59 0.952 . S
H68 C50 0.952 . S
H69 C58 0.948 . S
O70 Zn55 2.050 . S
O70 C65 1.225 1_545 S
O71 Zn63 2.024 1_455 S
O71 C65 1.249 . S
H72 C54 0.948 . S
O73 Zn63 2.039 1_545 S
O73 C77 1.251 . S
O74 Zn55 2.025 1_655 S
O74 C77 1.254 . S
O75 C56 1.246 . S
O75 Zn63 2.034 1_545 S
O76 Zn55 2.024 1_655 S
O76 C56 1.249 . S
C77 O73 1.251 . S
C77 O74 1.254 . S
H78 C51 0.949 . S
H79 C53 0.950 . S
H80 C60 0.949 . S
H81 C62 0.950 . S
C82 O98 1.251 . S
C82 O100 1.254 . S
N83 C84 1.333 . S
N83 C88 1.307 . S
N83 Zn89 2.020 . S
C84 N83 1.333 . S
C84 C85 1.379 1_554 S
C84 H102 0.952 1_554 S
C85 C84 1.379 1_556 S
C85 C86 1.390 1_556 S
C85 H112 0.949 . S
C86 C85 1.390 1_554 S
C86 C87 1.357 . S
C87 C86 1.357 . S
C87 C88 1.370 . S
C87 H113 0.950 . S
C88 N83 1.307 . S
C88 C87 1.370 . S
C88 H106 0.948 . S
Zn89 N83 2.020 . S
Zn89 O98 2.039 1_554 S
Zn89 O104 2.034 . S
Zn89 O108 2.025 . S
Zn89 O110 2.024 1_554 S
C90 O109 1.246 . S
C90 O110 1.249 . S
N91 C92 1.307 . S
N91 C93 1.333 . S
N91 Zn97 2.020 . S
C92 N91 1.307 . S
C92 C96 1.370 . S
C92 H103 0.948 1_554 S
C93 N91 1.333 . S
C93 C94 1.379 . S
C93 H101 0.952 . S
C94 C93 1.379 . S
C94 C95 1.390 . S
C94 H114 0.949 . S
C95 C94 1.390 . S
C95 C96 1.357 . S
C96 C92 1.370 . S
C96 C95 1.357 . S
C96 H115 0.950 1_554 S
Zn97 N91 2.020 . S
Zn97 O100 2.025 1_554 S
Zn97 O105 2.024 . S
Zn97 O107 2.039 . S
Zn97 O109 2.034 1_554 S
O98 C82 1.251 . S
O98 Zn89 2.039 1_556 S
C99 O104 1.246 . S
C99 O105 1.249 . S
O100 C82 1.254 . S
O100 Zn97 2.025 1_556 S
H101 C93 0.952 . S
H102 C84 0.952 1_556 S
H103 C92 0.948 1_556 S
O104 Zn89 2.034 . S
O104 C99 1.246 . S
O105 Zn97 2.024 . S
O105 C99 1.249 . S
H106 C88 0.948 . S
O107 Zn97 2.039 . S
O107 C111 1.251 . S
O108 Zn89 2.025 . S
O108 C111 1.254 . S
O109 C90 1.246 . S
O109 Zn97 2.034 1_556 S
O110 Zn89 2.024 1_556 S
O110 C90 1.249 . S
C111 O107 1.251 . S
C111 O108 1.254 . S
H112 C85 0.949 . S
H113 C87 0.950 . S
H114 C94 0.949 . S
H115 C96 0.950 1_556 S
C116 C117 1.369 . S
C116 C118 1.419 . S
C116 H120 0.930 . S
C117 C116 1.369 . S
C117 C126 1.429 . S
C118 C116 1.419 . S
C118 C119 1.363 . S
C118 H121 0.929 . S
C119 C118 1.363 . S
C119 C125 1.428 . S
H120 C116 0.930 . S
H121 C118 0.929 . S
S122 N123 1.613 . S
S122 N124 1.610 . S
N123 S122 1.613 . S
N123 C126 1.350 . S
N124 S122 1.610 . S
N124 C125 1.351 . S
C125 C119 1.428 . S
C125 N124 1.351 . S
C125 C126 1.434 . S
C126 C117 1.429 . S
C126 N123 1.350 . S
C126 C125 1.434 . S
C127 C128 1.369 1_556 S
C127 C129 1.419 . S
C127 H131 0.930 . S
C128 C127 1.369 1_554 S
C128 C137 1.429 . S
C129 C127 1.419 . S
C129 C130 1.363 1_556 S
C129 H132 0.929 . S
C130 C129 1.363 1_554 S
C130 C136 1.428 . S
H131 C127 0.930 . S
H132 C129 0.929 . S
S133 N134 1.613 . S
S133 N135 1.610 . S
N134 S133 1.613 . S
N134 C137 1.350 . S
N135 S133 1.610 . S
N135 C136 1.351 . S
C136 C130 1.428 . S
C136 N135 1.351 . S
C136 C137 1.434 . S
C137 C128 1.429 . S
C137 N134 1.350 . S
C137 C136 1.434 . S
C138 C139 1.369 . S
C138 C140 1.419 . S
C138 H142 0.930 . S
C139 C138 1.369 . S
C139 C148 1.429 . S
C140 C138 1.419 . S
C140 C141 1.363 . S
C140 H143 0.929 . S
C141 C140 1.363 . S
C141 C147 1.428 . S
H142 C138 0.930 . S
H143 C140 0.929 . S
S144 N145 1.613 . S
S144 N146 1.610 . S
N145 S144 1.613 . S
N145 C148 1.350 . S
N146 S144 1.610 . S
N146 C147 1.351 . S
C147 C141 1.428 . S
C147 N146 1.351 . S
C147 C148 1.434 . S
C148 C139 1.429 . S
C148 N145 1.350 . S
C148 C147 1.434 . S
C149 C150 1.369 . S
C149 C151 1.419 . S
C149 H153 0.930 . S
C150 C149 1.369 . S
C150 C159 1.429 1_554 S
C151 C149 1.419 . S
C151 C152 1.363 . S
C151 H154 0.929 . S
C152 C151 1.363 . S
C152 C158 1.428 1_554 S
H153 C149 0.930 . S
H154 C151 0.929 . S
S155 N156 1.613 . S
S155 N157 1.610 . S
N156 S155 1.613 . S
N156 C159 1.350 . S
N157 S155 1.610 . S
N157 C158 1.351 . S
C158 C152 1.428 1_556 S
C158 N157 1.351 . S
C158 C159 1.434 . S
C159 C150 1.429 1_556 S
C159 N156 1.350 . S
C159 C158 1.434 . S
C160 C161 1.369 . S
C160 C162 1.419 . S
C160 H164 0.930 . S
C161 C160 1.369 . S
C161 C170 1.429 . S
C162 C160 1.419 . S
C162 C163 1.363 . S
C162 H165 0.929 . S
C163 C162 1.363 . S
C163 C169 1.428 . S
H164 C160 0.930 . S
H165 C162 0.929 . S
S166 N167 1.613 1_545 S
S166 N168 1.610 . S
N167 S166 1.613 1_565 S
N167 C170 1.350 . S
N168 S166 1.610 . S
N168 C169 1.351 1_545 S
C169 C163 1.428 . S
C169 N168 1.351 1_565 S
C169 C170 1.434 . S
C170 C161 1.429 . S
C170 N167 1.350 . S
C170 C169 1.434 . S
C171 C172 1.369 . S
C171 C173 1.419 . S
C171 H175 0.930 . S
C172 C171 1.369 . S
C172 C181 1.429 . S
C173 C171 1.419 . S
C173 C174 1.363 . S
C173 H176 0.929 . S
C174 C173 1.363 . S
C174 C180 1.428 . S
H175 C171 0.930 . S
H176 C173 0.929 . S
S177 N178 1.613 . S
S177 N179 1.610 . S
N178 S177 1.613 . S
N178 C181 1.350 . S
N179 S177 1.610 . S
N179 C180 1.351 . S
C180 C174 1.428 . S
C180 N179 1.351 . S
C180 C181 1.434 . S
C181 C172 1.429 . S
C181 N178 1.350 . S
C181 C180 1.434 . S
C182 C183 1.369 . S
C182 C184 1.419 . S
C182 H186 0.930 . S
C183 C182 1.369 . S
C183 C192 1.429 . S
C184 C182 1.419 . S
C184 C185 1.363 . S
C184 H187 0.929 . S
C185 C184 1.363 . S
C185 C191 1.428 . S
H186 C182 0.930 . S
H187 C184 0.929 . S
S188 N189 1.613 . S
S188 N190 1.610 . S
N189 S188 1.613 . S
N189 C192 1.350 . S
N190 S188 1.610 . S
N190 C191 1.351 . S
C191 C185 1.428 . S
C191 N190 1.351 . S
C191 C192 1.434 . S
C192 C183 1.429 . S
C192 N189 1.350 . S
C192 C191 1.434 . S
C193 C194 1.369 . S
C193 C195 1.419 . S
C193 H197 0.930 . S
C194 C193 1.369 . S
C194 C203 1.429 . S
C195 C193 1.419 . S
C195 C196 1.363 . S
C195 H198 0.929 . S
C196 C195 1.363 . S
C196 C202 1.428 . S
H197 C193 0.930 . S
H198 C195 0.929 . S
S199 N200 1.613 . S
S199 N201 1.610 . S
N200 S199 1.613 . S
N200 C203 1.350 . S
N201 S199 1.610 . S
N201 C202 1.351 . S
C202 C196 1.428 . S
C202 N201 1.351 . S
C202 C203 1.434 . S
C203 C194 1.429 . S
C203 N200 1.350 . S
C203 C202 1.434 . S
C204 C205 1.369 . S
C204 C206 1.419 . S
C204 H208 0.930 . S
C205 C204 1.369 . S
C205 C214 1.429 . S
C206 C204 1.419 . S
C206 C207 1.363 . S
C206 H209 0.929 . S
C207 C206 1.363 . S
C207 C213 1.428 . S
H208 C204 0.930 . S
H209 C206 0.929 . S
S210 N211 1.613 . S
S210 N212 1.610 . S
N211 S210 1.613 . S
N211 C214 1.350 . S
N212 S210 1.610 . S
N212 C213 1.351 . S
C213 C207 1.428 . S
C213 N212 1.351 . S
C213 C214 1.434 . S
C214 C205 1.429 . S
C214 N211 1.350 . S
C214 C213 1.434 . S
C215 C216 1.369 . S
C215 C217 1.419 . S
C215 H219 0.930 . S
C216 C215 1.369 . S
C216 C225 1.429 . S
C217 C215 1.419 . S
C217 C218 1.363 . S
C217 H220 0.929 . S
C218 C217 1.363 . S
C218 C224 1.428 . S
H219 C215 0.930 . S
H220 C217 0.929 . S
S221 N222 1.613 . S
S221 N223 1.610 . S
N222 S221 1.613 . S
N222 C225 1.350 . S
N223 S221 1.610 . S
N223 C224 1.351 . S
C224 C218 1.428 . S
C224 N223 1.351 . S
C224 C225 1.434 . S
C225 C216 1.429 . S
C225 N222 1.350 . S
C225 C224 1.434 . S
C226 C227 1.369 . S
C226 C228 1.419 . S
C226 H230 0.930 . S
C227 C226 1.369 . S
C227 C236 1.429 . S
C228 C226 1.419 . S
C228 C229 1.363 . S
C228 H231 0.929 . S
C229 C228 1.363 . S
C229 C235 1.428 . S
H230 C226 0.930 . S
H231 C228 0.929 . S
S232 N233 1.613 . S
S232 N234 1.610 . S
N233 S232 1.613 . S
N233 C236 1.350 . S
N234 S232 1.610 . S
N234 C235 1.351 . S
C235 C229 1.428 . S
C235 N234 1.351 . S
C235 C236 1.434 . S
C236 C227 1.429 . S
C236 N233 1.350 . S
C236 C235 1.434 . S
C237 C238 1.369 . S
C237 C239 1.419 . S
C237 H241 0.930 . S
C238 C237 1.369 . S
C238 C247 1.429 . S
C239 C237 1.419 . S
C239 C240 1.363 . S
C239 H242 0.929 . S
C240 C239 1.363 . S
C240 C246 1.428 . S
H241 C237 0.930 . S
H242 C239 0.929 . S
S243 N244 1.613 1_545 S
S243 N245 1.610 . S
N244 S243 1.613 1_565 S
N244 C247 1.350 . S
N245 S243 1.610 . S
N245 C246 1.351 1_545 S
C246 C240 1.428 . S
C246 N245 1.351 1_565 S
C246 C247 1.434 . S
C247 C238 1.429 . S
C247 N244 1.350 . S
C247 C246 1.434 . S
C119 C52 1.506 . S
C117 C40 1.506 . S
C128 C4 1.505 . S
C130 C95 1.509 . S
C139 C16 1.499 . S
C141 C61 1.508 . S
C150 C28 1.504 . S
C152 C86 1.506 . S
C163 C48 1.552 . S
C161 C9 1.528 . S
C174 C90 1.534 . S
C172 C18 1.531 . S
C183 C33 1.533 . S
C185 C56 1.546 . S
C194 C45 1.516 . S
C196 C82 1.535 . S
C207 C111 1.484 . S
C205 C21 1.470 . S
C218 C77 1.472 . S
C216 C30 1.468 . S
C229 C99 1.484 . S
C227 C42 1.478 . S
C238 C6 1.468 . S
C240 C65 1.472 . S
