# Generated by pormake.
# Topology pyr, (3,6)-cn, num edge types: 1
# Building blocks:
#     Node 0, Type 0, BuildingBlock: PAMTOO_clean_linker_0, # of connection points: 3
#     Node 1, Type 0, BuildingBlock: PAMTOO_clean_linker_0, # of connection points: 3
#     Node 2, Type 0, BuildingBlock: PAMTOO_clean_linker_0, # of connection points: 3
#     Node 3, Type 0, BuildingBlock: PAMTOO_clean_linker_0, # of connection points: 3
#     Node 4, Type 0, BuildingBlock: PAMTOO_clean_linker_0, # of connection points: 3
#     Node 5, Type 0, BuildingBlock: PAMTOO_clean_linker_0, # of connection points: 3
#     Node 6, Type 0, BuildingBlock: PAMTOO_clean_linker_0, # of connection points: 3
#     Node 7, Type 0, BuildingBlock: PAMTOO_clean_linker_0, # of connection points: 3
#     Node 8, Type 1, BuildingBlock: LEVNOQ01_clean_sbu_1, # of connection points: 6
#     Node 9, Type 1, BuildingBlock: LEVNOQ01_clean_sbu_1, # of connection points: 6
#     Node 10, Type 1, BuildingBlock: LEVNOQ01_clean_sbu_1, # of connection points: 6
#     Node 11, Type 1, BuildingBlock: LEVNOQ01_clean_sbu_1, # of connection points: 6
#     Edge 12, Type (0, 1), None
#     Edge 13, Type (0, 1), None
#     Edge 14, Type (0, 1), None
#     Edge 15, Type (0, 1), None
#     Edge 16, Type (0, 1), None
#     Edge 17, Type (0, 1), None
#     Edge 18, Type (0, 1), None
#     Edge 19, Type (0, 1), None
#     Edge 20, Type (0, 1), None
#     Edge 21, Type (0, 1), None
#     Edge 22, Type (0, 1), None
#     Edge 23, Type (0, 1), None
#     Edge 24, Type (0, 1), None
#     Edge 25, Type (0, 1), None
#     Edge 26, Type (0, 1), None
#     Edge 27, Type (0, 1), None
#     Edge 28, Type (0, 1), None
#     Edge 29, Type (0, 1), None
#     Edge 30, Type (0, 1), None
#     Edge 31, Type (0, 1), None
#     Edge 32, Type (0, 1), None
#     Edge 33, Type (0, 1), None
#     Edge 34, Type (0, 1), None
#     Edge 35, Type (0, 1), None
# Relax obj value: 0.108
# Max RMSD: 0.208
# Mean RMSD: 0.138
data_MOF--net-pry--node1-LEVNOQ01_clean_sbu_1--node2-PAMTOO_clean_linker_0--edge1-none
_symmetry_space_group_name_H-M    P1
_symmetry_Int_Tables_number       1
_symmetry_cell_setting            triclinic
loop_
_symmetry_equiv_pos_as_xyz
'x, y, z'
_cell_length_a     16.315075
_cell_length_b     16.214365
_cell_length_c     14.983648
_cell_angle_alpha  90.148432
_cell_angle_beta   95.742351
_cell_angle_gamma 97.446945
loop_
_atom_site_label
_atom_site_type_symbol
_atom_site_fract_x
_atom_site_fract_y
_atom_site_fract_z
_atom_type_partial_charge
H0 H -0.00251 0.17613 0.24252 0.0
H1 H 0.16189 -0.00999 0.24058 0.0
H2 H 0.18748 0.19496 0.06042 0.0
H3 H 0.21581 0.01606 0.99482 0.0
C4 C 0.25813 0.00649 0.05583 0.0
O5 O 0.25081 0.0633 0.12222 0.0
H6 H 0.24302 0.94218 0.08026 0.0
C7 C 0.04645 0.15003 0.21254 0.0
C8 C 0.08632 0.19339 0.14344 0.0
C9 C 0.07434 0.0778 0.24904 0.0
C10 C 0.13927 0.04541 0.21262 0.0
C11 C 0.17849 0.08636 0.14328 0.0
C12 C 0.15153 0.15972 0.10786 0.0
H13 H 0.30393 0.00125 0.78685 0.0
H14 H 0.27474 0.90848 0.51315 0.0
H15 H 0.49854 0.89078 0.68751 0.0
H16 H 0.54053 0.87333 0.54816 0.0
C17 C 0.4938 0.81876 0.52742 0.0
O18 O 0.41326 0.83664 0.53423 0.0
H19 H 0.5001 0.80526 0.45587 0.0
C20 C 0.3291 0.97624 0.72974 0.0
C21 C 0.40595 0.94765 0.74391 0.0
C22 C 0.28163 0.96582 0.64542 0.0
C23 C 0.31255 0.92266 0.57626 0.0
C24 C 0.39115 0.89381 0.59118 0.0
C25 C 0.43851 0.91178 0.67363 0.0
H26 H 0.75424 0.23845 0.08206 0.0
H27 H 0.5692 0.27803 0.86631 0.0
H28 H 0.79367 0.44629 0.90514 0.0
H29 H 0.54498 0.42991 0.86504 0.0
C30 C 0.5777 0.4452 0.80409 0.0
O31 O 0.65224 0.41303 0.80814 0.0
H32 H 0.53589 0.41514 0.74683 0.0
C33 C 0.73317 0.27502 0.02589 0.0
C34 C 0.78417 0.34522 0.99989 0.0
C35 C 0.65469 0.25244 0.97881 0.0
C36 C 0.6296 0.29632 0.90303 0.0
C37 C 0.67862 0.36824 0.87893 0.0
C38 C 0.7548 0.39335 0.92825 0.0
H39 H 0.80841 0.7191 0.53284 0.0
H40 H 0.85838 0.48299 0.4374 0.0
H41 H 0.05441 0.68507 0.47604 0.0
H42 H 0.02492 0.62885 0.31113 0.0
C43 C 0.00984 0.56041 0.31825 0.0
O44 O 0.00966 0.53945 0.40759 0.0
H45 H 0.94796 0.5401 0.28105 0.0
C46 C 0.85333 0.67755 0.52069 0.0
C47 C 0.93558 0.71131 0.50965 0.0
C48 C 0.82454 0.59494 0.49446 0.0
C49 C 0.88046 0.54483 0.46453 0.0
C50 C 0.96345 0.57749 0.45997 0.0
C51 C -0.00764 0.65861 0.48946 0.0
H52 H 0.79353 0.98377 0.81237 0.0
H53 H 0.80964 0.82821 0.04414 0.0
H54 H -0.00053 0.84255 0.86356 0.0
H55 H 0.84035 0.68834 1.01364 0.0
C56 C 0.90814 0.69615 0.03612 0.0
O57 O 0.94776 0.77126 1.00839 0.0
H58 H 0.91462 0.69728 0.11064 0.0
C59 C 0.82588 0.94093 0.85364 0.0
C60 C 0.90197 0.91916 0.82994 0.0
C61 C 0.79182 0.90789 0.93094 0.0
C62 C 0.83556 0.85416 0.98489 0.0
C63 C 0.90799 0.82676 0.95813 0.0
C64 C 0.94095 0.85975 0.88089 0.0
H65 H 0.67003 0.95596 0.33087 0.0
H66 H 0.54902 0.17248 0.36135 0.0
H67 H 0.7506 0.12737 0.55241 0.0
H68 H 0.61017 0.25784 0.62545 0.0
C69 C 0.58767 0.25637 0.5529 0.0
O70 O 0.64665 0.23024 0.50313 0.0
H71 H 0.52806 0.21404 0.54154 0.0
C72 C 0.66149 0.00975 0.37031 0.0
C73 C 0.71786 0.03551 0.4457 0.0
C74 C 0.60102 0.05859 0.33783 0.0
C75 C 0.59223 0.13077 0.3871 0.0
C76 C 0.6442 0.15363 0.46635 0.0
C77 C 0.70644 0.10545 0.4958 0.0
H78 H 0.37343 0.61941 0.99391 0.0
H79 H 0.26884 0.57943 0.24377 0.0
H80 H 0.49197 0.74852 0.23571 0.0
H81 H 0.33848 0.54675 0.37475 0.0
C82 C 0.39694 0.59007 0.38878 0.0
O83 O 0.39208 0.66237 0.34049 0.0
H84 H 0.40102 0.60564 0.46109 0.0
C85 C 0.37582 0.63244 0.06518 0.0
C86 C 0.43692 0.69398 0.10795 0.0
C87 C 0.31623 0.58958 0.11501 0.0
C88 C 0.31639 0.61032 0.20542 0.0
C89 C 0.38278 0.66165 0.25004 0.0
C90 C 0.44238 0.70556 0.20129 0.0
H91 H 0.96078 0.30496 0.72118 0.0
H92 H 0.13646 0.52501 0.71281 0.0
H93 H 0.15238 0.31475 0.54421 0.0
H94 H 0.30627 0.38037 0.61509 0.0
C95 C 0.29159 0.43855 0.64587 0.0
O96 O 0.22218 0.46272 0.59815 0.0
H97 H 0.28017 0.42447 0.71677 0.0
C98 C 0.00922 0.34103 0.6876 0.0
C99 C 0.05046 0.3005 0.62635 0.0
C100 C 0.0412 0.42092 0.72067 0.0
C101 C 0.10906 0.46489 0.6847 0.0
C102 C 0.14649 0.42791 0.61753 0.0
C103 C 0.11616 0.34631 0.58702 0.0
O104 O -0.00261 0.03172 0.79283 0.0
Mg105 Mg 0.06716 0.07723 0.6905 0.0
O106 O 0.94446 0.94827 0.68137 0.0
Mg107 Mg -0.00174 0.00404 0.54515 0.0
O108 O 0.02566 0.15174 0.58671 0.0
O109 O 0.08843 0.19641 0.72226 0.0
O110 O 0.04337 0.05459 0.40268 0.0
O111 O 0.85953 0.03304 0.50821 0.0
Mg112 Mg 0.92033 0.91218 0.39721 0.0
O113 O 0.96855 0.86061 0.51078 0.0
O114 O 0.98417 0.96654 0.29595 0.0
O115 O 0.80278 0.9386 0.40702 0.0
O116 O 0.91483 0.79098 0.38287 0.0
C117 C 0.19897 -0.00335 0.63719 0.0
C118 C 0.94855 0.969 0.76431 0.0
C119 C 0.05485 0.21201 0.64406 0.0
C120 C 0.03182 0.03165 0.31966 0.0
C121 C 0.79595 -0.00166 0.45836 0.0
C122 C 0.94417 0.79143 0.46602 0.0
O123 O 0.18603 0.04687 0.69661 0.0
O124 O 0.13967 0.9713 0.57697 0.0
O125 O 0.37115 0.08998 1.00175 0.0
Mg126 Mg 0.48835 0.10972 0.07565 0.0
O127 O 0.39981 0.97642 0.06752 0.0
Mg128 Mg 0.54146 0.97367 0.03704 0.0
O129 O 0.59188 0.11491 1.01002 0.0
O130 O 0.53614 0.22653 0.05537 0.0
O131 O 0.68004 0.9551 1.00518 0.0
O132 O 0.4893 0.97735 0.88337 0.0
Mg133 Mg 0.53064 0.83426 0.93979 0.0
O134 O 0.5006 0.82929 0.06814 0.0
O135 O 0.65085 0.8591 0.89868 0.0
O136 O 0.42972 0.85071 0.85219 0.0
O137 O 0.51097 0.71745 0.98113 0.0
C138 C 0.56005 0.04385 0.24485 0.0
C139 C 0.34591 0.02087 0.03353 0.0
C140 C 0.59234 0.19498 1.01709 0.0
C141 C 0.70333 0.91115 0.94339 0.0
C142 C 0.43832 0.92649 0.83374 0.0
C143 C 0.48983 0.74875 0.05325 0.0
O144 O 0.50728 0.0907 0.21574 0.0
O145 O 0.58667 -0.00555 0.1904 0.0
O146 O 0.50544 0.74596 0.66801 0.0
Mg147 Mg 0.49388 0.63676 0.74931 0.0
O148 O 0.52536 0.67826 0.54495 0.0
Mg149 Mg 0.55191 0.54147 0.56848 0.0
O150 O 0.58135 0.56722 0.71384 0.0
O151 O 0.56542 0.58186 0.85521 0.0
O152 O 0.57638 0.40161 0.57771 0.0
O153 O 0.68921 0.57921 0.54331 0.0
Mg154 Mg 0.58448 0.46267 0.36022 0.0
O155 O 0.51929 0.52547 0.43075 0.0
O156 O 0.56663 0.35114 0.436 0.0
O157 O 0.70592 0.52684 0.40811 0.0
O158 O 0.47895 0.51895 0.29024 0.0
C159 C 0.36483 0.5039 0.64708 0.0
C160 C 0.51075 0.74408 0.58385 0.0
C161 C 0.58767 0.53729 0.79286 0.0
C162 C 0.57329 0.3412 0.52096 0.0
C163 C 0.73472 0.56593 0.48128 0.0
C164 C 0.46847 0.54562 0.36842 0.0
O165 O 0.37933 0.55655 0.71189 0.0
O166 O 0.41797 0.49516 0.59231 0.0
O167 O 0.09706 0.31883 0.21576 0.0
Mg168 Mg 0.15979 0.43501 0.21899 0.0
O169 O 0.08228 0.32806 0.06755 0.0
Mg170 Mg 0.05126 0.47327 0.04438 0.0
O171 O 0.06591 0.50322 0.1933 0.0
O172 O 0.13863 0.50288 0.32801 0.0
O173 O 0.01794 0.60929 0.03304 0.0
O174 O 0.90756 0.42239 0.06747 0.0
Mg175 Mg 0.9493 0.45315 0.92962 0.0
O176 O 0.05567 0.45668 0.87831 0.0
O177 O 0.89609 0.56191 0.96734 0.0
O178 O 0.9149 0.32838 0.97007 0.0
O179 O 0.92994 0.45001 0.79702 0.0
C180 C 0.25577 0.5187 0.0808 0.0
C181 C 0.08302 0.28407 0.13971 0.0
C182 C 0.07402 0.52041 0.27821 0.0
C183 C 0.94441 0.62151 1.00552 0.0
C184 C 0.87374 0.35597 0.02667 0.0
C185 C 0.00909 0.44976 0.80125 0.0
O186 O 0.255 0.45589 0.13071 0.0
O187 O 0.18758 0.53593 0.04129 0.0
loop_
_geom_bond_atom_site_label_1
_geom_bond_atom_site_label_2
_geom_bond_distance
_geom_bond_site_symmetry_2
_ccdc_geom_bond_type
H0 C7 0.929 . S
H1 C10 0.930 . S
H2 C12 0.929 . S
H3 C4 0.969 1_565 S
C4 H3 0.969 1_545 S
C4 O5 1.550 . S
C4 H6 0.973 . S
O5 C4 1.550 . S
O5 C11 1.412 . S
H6 C4 0.973 . S
C7 H0 0.929 . S
C7 C8 1.400 . S
C7 C9 1.364 . S
C8 C7 1.400 . S
C8 C12 1.377 . S
C9 C7 1.364 . S
C9 C10 1.374 . S
C10 H1 0.930 . S
C10 C9 1.374 . S
C10 C11 1.383 . S
C11 O5 1.412 . S
C11 C10 1.383 . S
C11 C12 1.394 . S
C12 H2 0.929 . S
C12 C8 1.377 . S
C12 C11 1.394 . S
H13 C20 0.929 1_545 S
H14 C23 0.930 . S
H15 C25 0.929 . S
H16 C17 0.969 . S
C17 H16 0.969 . S
C17 O18 1.550 . S
C17 H19 0.973 . S
O18 C17 1.550 . S
O18 C24 1.412 . S
H19 C17 0.973 . S
C20 H13 0.929 1_565 S
C20 C21 1.400 . S
C20 C22 1.364 . S
C21 C20 1.400 . S
C21 C25 1.377 . S
C22 C20 1.364 . S
C22 C23 1.374 . S
C23 H14 0.930 . S
C23 C22 1.374 . S
C23 C24 1.383 . S
C24 O18 1.412 . S
C24 C23 1.383 . S
C24 C25 1.394 . S
C25 H15 0.929 . S
C25 C21 1.377 . S
C25 C24 1.394 . S
H26 C33 0.929 1_554 S
H27 C36 0.930 . S
H28 C38 0.929 . S
H29 C30 0.969 . S
C30 H29 0.969 . S
C30 O31 1.550 . S
C30 H32 0.973 . S
O31 C30 1.550 . S
O31 C37 1.412 . S
H32 C30 0.973 . S
C33 H26 0.929 1_556 S
C33 C34 1.400 . S
C33 C35 1.364 . S
C34 C33 1.400 . S
C34 C38 1.377 . S
C35 C33 1.364 . S
C35 C36 1.374 . S
C36 H27 0.930 . S
C36 C35 1.374 . S
C36 C37 1.383 . S
C37 O31 1.412 . S
C37 C36 1.383 . S
C37 C38 1.394 . S
C38 H28 0.929 . S
C38 C34 1.377 . S
C38 C37 1.394 . S
H39 C46 0.929 . S
H40 C49 0.930 . S
H41 C51 0.929 1_455 S
H42 C43 0.969 . S
C43 H42 0.969 . S
C43 O44 1.550 . S
C43 H45 0.973 . S
O44 C43 1.550 . S
O44 C50 1.412 . S
H45 C43 0.973 . S
C46 H39 0.929 . S
C46 C47 1.400 . S
C46 C48 1.364 . S
C47 C46 1.400 . S
C47 C51 1.377 . S
C48 C46 1.364 . S
C48 C49 1.374 . S
C49 H40 0.930 . S
C49 C48 1.374 . S
C49 C50 1.383 . S
C50 O44 1.412 . S
C50 C49 1.383 . S
C50 C51 1.394 . S
C51 H41 0.929 1_655 S
C51 C47 1.377 . S
C51 C50 1.394 . S
H52 C59 0.929 1_545 S
H53 C62 0.930 . S
H54 C64 0.929 . S
H55 C56 0.969 . S
C56 H55 0.969 . S
C56 O57 1.550 . S
C56 H58 0.973 1_556 S
O57 C56 1.550 . S
O57 C63 1.412 . S
H58 C56 0.973 1_554 S
C59 H52 0.929 1_565 S
C59 C60 1.400 . S
C59 C61 1.364 . S
C60 C59 1.400 . S
C60 C64 1.377 . S
C61 C59 1.364 . S
C61 C62 1.374 . S
C62 H53 0.930 . S
C62 C61 1.374 . S
C62 C63 1.383 . S
C63 O57 1.412 . S
C63 C62 1.383 . S
C63 C64 1.394 . S
C64 H54 0.929 . S
C64 C60 1.377 . S
C64 C63 1.394 . S
H65 C72 0.929 1_565 S
H66 C75 0.930 . S
H67 C77 0.929 . S
H68 C69 0.969 . S
C69 H68 0.969 . S
C69 O70 1.550 . S
C69 H71 0.973 . S
O70 C69 1.550 . S
O70 C76 1.412 . S
H71 C69 0.973 . S
C72 H65 0.929 1_545 S
C72 C73 1.400 . S
C72 C74 1.364 . S
C73 C72 1.400 . S
C73 C77 1.377 . S
C74 C72 1.364 . S
C74 C75 1.374 . S
C75 H66 0.930 . S
C75 C74 1.374 . S
C75 C76 1.383 . S
C76 O70 1.412 . S
C76 C75 1.383 . S
C76 C77 1.394 . S
C77 H67 0.929 . S
C77 C73 1.377 . S
C77 C76 1.394 . S
H78 C85 0.929 1_556 S
H79 C88 0.930 . S
H80 C90 0.929 . S
H81 C82 0.969 . S
C82 H81 0.969 . S
C82 O83 1.550 . S
C82 H84 0.973 . S
O83 C82 1.550 . S
O83 C89 1.412 . S
H84 C82 0.973 . S
C85 H78 0.929 1_554 S
C85 C86 1.400 . S
C85 C87 1.364 . S
C86 C85 1.400 . S
C86 C90 1.377 . S
C87 C85 1.364 . S
C87 C88 1.374 . S
C88 H79 0.930 . S
C88 C87 1.374 . S
C88 C89 1.383 . S
C89 O83 1.412 . S
C89 C88 1.383 . S
C89 C90 1.394 . S
C90 H80 0.929 . S
C90 C86 1.377 . S
C90 C89 1.394 . S
H91 C98 0.929 1_655 S
H92 C101 0.930 . S
H93 C103 0.929 . S
H94 C95 0.969 . S
C95 H94 0.969 . S
C95 O96 1.550 . S
C95 H97 0.973 . S
O96 C95 1.550 . S
O96 C102 1.412 . S
H97 C95 0.973 . S
C98 H91 0.929 1_455 S
C98 C99 1.400 . S
C98 C100 1.364 . S
C99 C98 1.400 . S
C99 C103 1.377 . S
C100 C98 1.364 . S
C100 C101 1.374 . S
C101 H92 0.930 . S
C101 C100 1.374 . S
C101 C102 1.383 . S
C102 O96 1.412 . S
C102 C101 1.383 . S
C102 C103 1.394 . S
C103 H93 0.929 . S
C103 C99 1.377 . S
C103 C102 1.394 . S
O104 Mg105 1.990 . S
O104 C118 1.253 1_445 S
Mg105 O104 1.990 . S
Mg105 O108 2.180 . S
Mg105 O109 2.117 . S
Mg105 O123 2.030 1_545 S
O106 Mg107 2.072 1_665 S
O106 C118 1.260 . S
Mg107 O106 2.072 1_445 S
Mg107 O108 2.099 . S
Mg107 O110 2.079 . S
Mg107 O111 2.072 1_455 S
Mg107 O113 2.099 1_445 S
Mg107 O124 2.079 1_545 S
O108 Mg105 2.180 . S
O108 Mg107 2.099 . S
O108 C119 1.279 . S
O109 Mg105 2.117 . S
O109 C119 1.250 . S
O110 Mg107 2.079 . S
O110 C120 1.264 . S
O111 Mg107 2.072 1_655 S
O111 C121 1.260 . S
Mg112 O113 2.180 . S
Mg112 O114 2.030 1_565 S
Mg112 O115 1.990 . S
Mg112 O116 2.117 . S
O113 Mg107 2.099 1_665 S
O113 Mg112 2.180 . S
O113 C122 1.279 . S
O114 Mg112 2.030 1_545 S
O114 C120 1.248 1_655 S
O115 Mg112 1.990 . S
O115 C121 1.253 1_565 S
O116 Mg112 2.117 . S
O116 C122 1.250 . S
C117 O123 1.248 . S
C117 O124 1.264 . S
C118 O104 1.253 1_665 S
C118 O106 1.260 . S
C119 O108 1.279 . S
C119 O109 1.250 . S
C120 O110 1.264 . S
C120 O114 1.248 1_455 S
C121 O111 1.260 . S
C121 O115 1.253 1_545 S
C122 O113 1.279 . S
C122 O116 1.250 . S
O123 Mg105 2.030 1_565 S
O123 C117 1.248 . S
O124 Mg107 2.079 1_565 S
O124 C117 1.264 . S
O125 Mg126 1.990 . S
O125 C139 1.253 . S
Mg126 O125 1.990 . S
Mg126 O129 2.176 1_554 S
Mg126 O130 2.117 1_554 S
Mg126 O144 2.030 . S
O127 Mg128 2.072 . S
O127 C139 1.260 . S
Mg128 O127 2.072 . S
Mg128 O129 2.098 1_554 S
Mg128 O131 2.079 1_544 S
Mg128 O132 2.072 1_554 S
Mg128 O134 2.099 1_545 S
Mg128 O145 2.079 . S
O129 Mg126 2.176 1_556 S
O129 Mg128 2.098 1_556 S
O129 C140 1.283 . S
O130 Mg126 2.117 1_556 S
O130 C140 1.250 . S
O131 Mg128 2.079 1_566 S
O131 C141 1.264 . S
O132 Mg128 2.072 1_556 S
O132 C142 1.260 1_545 S
Mg133 O134 2.180 1_556 S
Mg133 O135 2.030 . S
Mg133 O136 1.990 . S
Mg133 O137 2.117 . S
O134 Mg128 2.099 1_565 S
O134 Mg133 2.180 1_554 S
O134 C143 1.279 . S
O135 Mg133 2.030 . S
O135 C141 1.248 . S
O136 Mg133 1.990 . S
O136 C142 1.253 . S
O137 Mg133 2.117 . S
O137 C143 1.250 1_556 S
C138 O144 1.248 . S
C138 O145 1.264 . S
C139 O125 1.253 . S
C139 O127 1.260 . S
C140 O129 1.283 . S
C140 O130 1.250 . S
C141 O131 1.264 . S
C141 O135 1.248 . S
C142 O132 1.260 1_565 S
C142 O136 1.253 . S
C143 O134 1.279 . S
C143 O137 1.250 1_554 S
O144 Mg126 2.030 . S
O144 C138 1.248 . S
O145 Mg128 2.079 . S
O145 C138 1.264 . S
O146 Mg147 1.990 . S
O146 C160 1.253 . S
Mg147 O146 1.990 . S
Mg147 O150 2.180 . S
Mg147 O151 2.117 . S
Mg147 O165 2.030 . S
O148 Mg149 2.072 . S
O148 C160 1.260 . S
Mg149 O148 2.072 . S
Mg149 O150 2.099 . S
Mg149 O152 2.079 . S
Mg149 O153 2.072 . S
Mg149 O155 2.099 . S
Mg149 O166 2.079 . S
O150 Mg147 2.180 . S
O150 Mg149 2.099 . S
O150 C161 1.279 . S
O151 Mg147 2.117 . S
O151 C161 1.250 . S
O152 Mg149 2.079 . S
O152 C162 1.264 . S
O153 Mg149 2.072 . S
O153 C163 1.260 . S
Mg154 O155 2.180 . S
Mg154 O156 2.030 . S
Mg154 O157 1.990 . S
Mg154 O158 2.117 . S
O155 Mg149 2.099 . S
O155 Mg154 2.180 . S
O155 C164 1.279 . S
O156 Mg154 2.030 . S
O156 C162 1.248 . S
O157 Mg154 1.990 . S
O157 C163 1.253 . S
O158 Mg154 2.117 . S
O158 C164 1.250 . S
C159 O165 1.248 . S
C159 O166 1.264 . S
C160 O146 1.253 . S
C160 O148 1.260 . S
C161 O150 1.279 . S
C161 O151 1.250 . S
C162 O152 1.264 . S
C162 O156 1.248 . S
C163 O153 1.260 . S
C163 O157 1.253 . S
C164 O155 1.279 . S
C164 O158 1.250 . S
O165 Mg147 2.030 . S
O165 C159 1.248 . S
O166 Mg149 2.079 . S
O166 C159 1.264 . S
O167 Mg168 1.990 . S
O167 C181 1.253 . S
Mg168 O167 1.990 . S
Mg168 O171 2.180 . S
Mg168 O172 2.117 1_455 S
Mg168 O186 2.030 . S
O169 Mg170 2.072 . S
O169 C181 1.260 . S
Mg170 O169 2.072 . S
Mg170 O171 2.099 . S
Mg170 O173 2.079 . S
Mg170 O174 2.072 1_455 S
Mg170 O176 2.099 1_554 S
Mg170 O187 2.079 . S
O171 Mg168 2.180 . S
O171 Mg170 2.099 . S
O171 C182 1.279 1_455 S
O172 Mg168 2.117 1_655 S
O172 C182 1.250 . S
O173 Mg170 2.079 . S
O173 C183 1.264 1_454 S
O174 Mg170 2.072 1_655 S
O174 C184 1.260 1_554 S
Mg175 O176 2.180 1_655 S
Mg175 O177 2.030 . S
Mg175 O178 1.990 . S
Mg175 O179 2.117 1_655 S
O176 Mg170 2.099 1_556 S
O176 Mg175 2.180 1_455 S
O176 C185 1.279 . S
O177 Mg175 2.030 . S
O177 C183 1.248 . S
O178 Mg175 1.990 . S
O178 C184 1.253 . S
O179 Mg175 2.117 1_455 S
O179 C185 1.250 . S
C180 O186 1.248 . S
C180 O187 1.264 . S
C181 O167 1.253 . S
C181 O169 1.260 . S
C182 O171 1.279 1_655 S
C182 O172 1.250 . S
C183 O173 1.264 1_656 S
C183 O177 1.248 . S
C184 O174 1.260 1_556 S
C184 O178 1.253 . S
C185 O176 1.279 . S
C185 O179 1.250 . S
O186 Mg168 2.030 . S
O186 C180 1.248 . S
O187 Mg170 2.079 . S
O187 C180 1.264 . S
C9 C120 1.881 . S
C21 C142 1.895 . S
C161 C30 1.438 . S
C43 C182 1.116 . S
C139 C4 1.770 . S
C117 C22 2.231 . S
C184 C34 1.081 . S
C163 C48 1.381 . S
C8 C181 1.772 . S
C140 C35 1.380 . S
C47 C122 1.784 . S
C17 C160 2.094 . S
C118 C60 1.583 . S
C74 C138 1.730 . S
C82 C164 0.946 . S
C100 C185 1.657 . S
C61 C141 1.932 . S
C121 C73 1.682 . S
C180 C87 1.766 . S
C159 C95 1.167 . S
C56 C183 1.631 . S
C143 C86 1.311 . S
C119 C99 1.473 . S
C69 C162 1.420 . S
