# Generated by pormake.
# Topology rtl, (3,6)-cn, num edge types: 1
# Building blocks:
#     Node 0, Type 0, BuildingBlock: PAMTOO_clean_linker_0, # of connection points: 3
#     Node 1, Type 0, BuildingBlock: PAMTOO_clean_linker_0, # of connection points: 3
#     Node 2, Type 0, BuildingBlock: PAMTOO_clean_linker_0, # of connection points: 3
#     Node 3, Type 0, BuildingBlock: PAMTOO_clean_linker_0, # of connection points: 3
#     Node 4, Type 1, BuildingBlock: KUMJIN_clean_sbu_1, # of connection points: 6
#     Node 5, Type 1, BuildingBlock: KUMJIN_clean_sbu_1, # of connection points: 6
#     Edge 6, Type (0, 1), None
#     Edge 7, Type (0, 1), None
#     Edge 8, Type (0, 1), None
#     Edge 9, Type (0, 1), None
#     Edge 10, Type (0, 1), None
#     Edge 11, Type (0, 1), None
#     Edge 12, Type (0, 1), None
#     Edge 13, Type (0, 1), None
#     Edge 14, Type (0, 1), None
#     Edge 15, Type (0, 1), None
#     Edge 16, Type (0, 1), None
#     Edge 17, Type (0, 1), None
# Relax obj value: 0.056
# Max RMSD: 0.285
# Mean RMSD: 0.204
data_MOF--net-rtl--node1-KUMJIN_clean_sbu_1--node2-PAMTOO_clean_linker_0--edge1-none
_symmetry_space_group_name_H-M    P1
_symmetry_Int_Tables_number       1
_symmetry_cell_setting            triclinic
loop_
_symmetry_equiv_pos_as_xyz
'x, y, z'
_cell_length_a     15.748383
_cell_length_b     16.890557
_cell_length_c     14.142018
_cell_angle_alpha  66.022685
_cell_angle_beta   95.59893
_cell_angle_gamma 93.100392
loop_
_atom_site_label
_atom_site_type_symbol
_atom_site_fract_x
_atom_site_fract_y
_atom_site_fract_z
_atom_type_partial_charge
H0 H 0.04673 0.92496 0.9616 0.0
H1 H 0.25774 0.76886 0.14812 0.0
H2 H 0.23952 0.84944 0.81909 0.0
H3 H 0.27323 0.65862 0.95774 0.0
C4 C 0.31547 0.66796 0.02003 0.0
O5 O 0.3251 0.75585 0.99494 0.0
H6 H 0.28534 0.63673 0.09477 0.0
C7 C 0.10674 0.89467 0.96696 0.0
C8 C 0.1392 0.89648 0.87567 0.0
C9 C 0.14912 0.84828 0.06626 0.0
C10 C 0.22534 0.80626 0.07277 0.0
C11 C 0.25665 0.80512 0.98434 0.0
C12 C 0.21388 0.85028 0.88645 0.0
H13 H 0.57597 0.54425 0.77708 0.0
H14 H 0.77454 0.69604 0.59033 0.0
H15 H 0.71926 0.73223 0.86033 0.0
H16 H 0.75855 0.8903 0.7061 0.0
C17 C 0.79929 0.87181 0.65853 0.0
O18 O 0.81579 0.78402 0.70607 0.0
H19 H 0.76458 0.88684 0.58101 0.0
C20 C 0.62467 0.59453 0.76077 0.0
C21 C 0.64048 0.63623 0.82765 0.0
C22 C 0.67294 0.61403 0.676 0.0
C23 C 0.73638 0.67989 0.6556 0.0
C24 C 0.75279 0.72285 0.72245 0.0
C25 C 0.70557 0.69966 0.80912 0.0
H26 H 0.98017 0.08128 0.26871 0.0
H27 H 0.84171 0.28578 0.01919 0.0
H28 H 0.84248 0.26359 0.33236 0.0
H29 H 0.68811 0.28517 0.25206 0.0
C30 C 0.6909 0.32078 0.16677 0.0
O31 O 0.77462 0.34364 0.14497 0.0
H32 H 0.66825 0.27699 0.12896 0.0
C33 C 0.93876 0.13653 0.24194 0.0
C34 C 0.91121 0.16468 0.3137 0.0
C35 C 0.91738 0.18154 0.1353 0.0
C36 C 0.86143 0.25206 0.10101 0.0
C37 C 0.83363 0.28078 0.17336 0.0
C38 C 0.86251 0.2396 0.27826 0.0
H39 H 0.44804 0.50687 0.36424 0.0
H40 H 0.27659 0.33556 0.5799 0.0
H41 H 0.34859 0.27693 0.3324 0.0
H42 H 0.15331 0.25201 0.38297 0.0
C43 C 0.16735 0.23148 0.46803 0.0
O44 O 0.25458 0.22761 0.49193 0.0
H45 H 0.13974 0.28022 0.48978 0.0
C46 C 0.40808 0.44933 0.39091 0.0
C47 C 0.40233 0.39604 0.33649 0.0
C48 C 0.3646 0.42794 0.48014 0.0
C49 C 0.3123 0.35303 0.51254 0.0
C50 C 0.30497 0.29964 0.45827 0.0
C51 C 0.35098 0.32056 0.37087 0.0
Eu52 Eu 0.06383 0.95497 0.52605 0.0
C53 C 0.97161 0.31378 0.57383 0.0
N54 N 1.02234 0.24657 0.63617 0.0
C55 C 0.12402 0.34464 0.66964 0.0
C56 C 0.99658 0.3999 0.55531 0.0
C57 C 0.09657 0.26024 0.68603 0.0
C58 C 0.07439 0.41484 0.603 0.0
C59 C 0.83588 0.36414 0.47421 0.0
C60 C 0.89165 0.29611 0.53422 0.0
C61 C 0.86218 0.45018 0.45211 0.0
C62 C 0.94192 0.46793 0.49314 0.0
Eu63 Eu 0.96869 0.10785 0.65941 0.0
N64 N 0.86682 0.2121 0.55865 0.0
C65 C 0.75423 0.34339 0.4412 0.0
C66 C 0.78528 0.19116 0.53363 0.0
C67 C 0.72797 0.25664 0.4733 0.0
H68 H 0.13489 0.206 0.73777 0.0
H69 H 0.66409 0.24029 0.4505 0.0
H70 H 0.97537 0.75584 0.61418 0.0
H71 H 0.40286 0.05282 0.52488 0.0
H72 H 0.76551 0.124 0.55791 0.0
H73 H 0.71065 0.39379 0.39235 0.0
H74 H 0.25095 0.07408 0.47058 0.0
H75 H 0.18332 0.35554 0.70851 0.0
H76 H 0.82032 0.50339 0.40628 0.0
H77 H 0.95957 0.53436 0.47893 0.0
H78 H 1.0196 0.6055 0.72137 0.0
H79 H 0.09569 0.48011 0.59088 0.0
H80 H 0.4556 0.90795 0.64396 0.0
N81 N 0.10003 0.80946 0.62154 0.0
C82 C 0.18387 0.79392 0.65341 0.0
C83 C 0.06626 0.65792 0.70358 0.0
C84 C 0.21166 0.70901 0.71473 0.0
C85 C 0.04137 0.74325 0.64361 0.0
C86 C 0.15171 0.64076 0.74023 0.0
N87 N 0.21382 0.94465 0.5659 0.0
C88 C 0.27095 1.01148 0.52667 0.0
C89 C 0.32995 0.84768 0.65595 0.0
C90 C 0.24224 0.86306 0.62479 0.0
C91 C 0.38783 0.91727 0.62183 0.0
C92 C 0.35828 0.99919 0.55534 0.0
H93 H 0.1709 0.57459 0.78704 0.0
H94 H 0.31959 0.6301 0.79713 0.0
H95 H 0.42408 0.75069 0.74558 0.0
O96 O 0.12243 0.96016 0.38722 0.0
O97 O 0.0824 0.90548 0.70511 0.0
O98 O 0.08767 0.02943 0.73754 0.0
O99 O 0.99731 0.90439 0.41907 0.0
O100 O 0.10516 0.09655 0.47146 0.0
O101 O 0.10638 0.12109 0.61994 0.0
O102 O 0.93815 0.02744 0.81876 0.0
O103 O 0.94313 0.1587 0.48523 0.0
O104 O 0.94345 0.03283 0.46245 0.0
O105 O 0.91341 0.16407 0.75266 0.0
O106 O 0.87775 1.00146 0.64802 0.0
O107 O 0.94377 0.898 0.60849 0.0
C108 C 0.0956 0.94501 0.76963 0.0
C109 C 0.07273 0.85941 0.31153 0.0
C110 C 0.10862 0.82692 0.16529 0.0
C111 C 0.086 0.7398 0.22181 0.0
C112 C 0.05161 0.77151 0.36556 0.0
C113 C 0.05814 0.71252 0.3208 0.0
C114 C 0.10152 0.88711 0.21056 0.0
C115 C 0.12584 0.14472 0.52378 0.0
C116 C 0.05773 0.92275 0.35664 0.0
C117 C 0.2981 0.69464 0.74862 0.0
C118 C 0.35725 0.76345 0.71944 0.0
C119 C 0.93608 0.11695 0.42476 0.0
C120 C 0.9617 0.10581 0.92559 0.0
C121 C 0.96135 0.15762 0.06296 0.0
C122 C 0.05082 0.15383 0.07496 0.0
C123 C 0.05113 0.10274 0.93909 0.0
C124 C 0.91666 0.13407 0.98713 0.0
C125 C 0.09542 0.12672 0.01354 0.0
C126 C 0.88059 0.92521 0.64236 0.0
C127 C 0.91727 0.09366 0.8365 0.0
H128 H 0.09189 0.69201 0.18996 0.0
H129 H 0.0288 0.74832 0.44206 0.0
H130 H 0.04207 0.64499 0.36325 0.0
H131 H 0.11932 0.95433 0.16849 0.0
H132 H 0.08598 0.17212 0.13228 0.0
H133 H 0.0869 0.08408 0.89012 0.0
H134 H 0.84767 0.13795 0.97586 0.0
H135 H 0.16443 0.12471 0.0234 0.0
Eu136 Eu 0.44794 0.45626 -0.00174 0.0
C137 C 0.75452 0.68927 0.07017 0.0
N138 N 0.73515 0.60435 0.12564 0.0
C139 C 0.882 0.56681 0.14126 0.0
C140 C 0.83921 0.71588 0.04664 0.0
C141 C 0.79719 0.54324 0.16219 0.0
C142 C 0.9031 0.65343 0.08295 0.0
C143 C 0.70746 0.83744 0.97366 0.0
C144 C 0.68875 0.7493 0.0332 0.0
C145 C 0.79178 0.86394 0.95069 0.0
C146 C 0.85739 0.80344 0.98682 0.0
Eu147 Eu 0.59155 0.57275 0.16272 0.0
N148 N 0.60689 0.72169 0.05404 0.0
C149 C 0.64087 0.89666 0.93886 0.0
C150 C 0.54308 0.78043 0.02629 0.0
C151 C 0.55854 0.86814 0.96638 0.0
H152 H 0.78158 0.47664 0.20956 0.0
H153 H 0.5072 0.91403 0.94341 0.0
H154 H 0.2474 0.51922 0.98921 0.0
H155 H 0.55867 0.12477 0.12335 0.0
H156 H 0.48089 0.7614 0.05331 0.0
H157 H 0.65271 0.96481 0.89289 0.0
H158 H 0.55746 0.28295 0.02004 0.0
H159 H 0.93108 0.51825 0.17058 0.0
H160 H 0.80667 0.93123 0.90471 0.0
H161 H 0.92194 0.82494 0.96764 0.0
H162 H 0.11309 0.45767 0.07009 0.0
H163 H 0.96882 0.67142 0.06634 0.0
H164 H 0.44219 0.05431 0.23638 0.0
N165 N 0.31466 0.40182 0.06507 0.0
C166 C 0.30987 0.31529 0.12471 0.0
C167 C 0.16829 0.41715 0.08712 0.0
C168 C 0.23476 0.27709 0.17234 0.0
C169 C 0.24441 0.45221 0.04222 0.0
C170 C 0.16382 0.32951 0.15382 0.0
N171 N 0.45103 0.30344 0.08814 0.0
C172 C 0.5103 0.25359 0.07519 0.0
C173 C 0.37603 0.17445 0.19497 0.0
C174 C 0.38058 0.26504 0.13794 0.0
C175 C 0.44332 0.12408 0.19398 0.0
C176 C 0.50944 0.16362 0.13092 0.0
H177 H 0.10482 0.30261 0.18869 0.0
H178 H 0.17721 0.15796 0.27712 0.0
H179 H 0.2992 0.06754 0.2928 0.0
O180 O 0.4728 0.41551 0.87568 0.0
O181 O 0.4051 0.44282 0.15314 0.0
O182 O 0.5307 0.44145 0.25029 0.0
O183 O 0.35082 0.46945 0.87214 0.0
O184 O 0.58884 0.42032 0.04134 0.0
O185 O 0.62482 0.43366 0.19749 0.0
O186 O 0.55762 0.62416 0.2735 0.0
O187 O 0.63727 0.58816 0.01025 0.0
O188 O 0.51181 0.58713 0.91391 0.0
O189 O 0.68139 0.56946 0.29034 0.0
O190 O 0.45038 0.60978 0.11884 0.0
O191 O 0.41448 0.59454 0.96431 0.0
C192 C 0.44918 0.42205 0.24309 0.0
C193 C 0.39861 0.48655 0.71233 0.0
C194 C 0.37825 0.48058 0.54276 0.0
C195 C 0.39278 0.57088 0.49599 0.0
C196 C 0.41596 0.57567 0.66525 0.0
C197 C 0.41229 0.61781 0.55724 0.0
C198 C 0.3813 0.43936 0.65141 0.0
C199 C 0.63494 0.39873 0.13102 0.0
C200 C 0.39896 0.43988 0.8248 0.0
C201 C 0.23307 0.18813 0.23672 0.0
C202 C 0.30305 0.13673 0.24687 0.0
C203 C 0.59349 0.60637 0.92104 0.0
C204 C 0.62731 0.55912 0.44188 0.0
C205 C 0.65556 0.56386 0.61117 0.0
C206 C 0.63802 0.474 0.65782 0.0
C207 C 0.60806 0.4703 0.48918 0.0
C208 C 0.6507 0.60579 0.5027 0.0
C209 C 0.61376 0.42788 0.59695 0.0
C210 C 0.39991 0.62524 0.03298 0.0
C211 C 0.62997 0.60281 0.32967 0.0
H212 H 0.38959 0.6053 0.41237 0.0
H213 H 0.43334 0.61216 0.71185 0.0
H214 H 0.425 0.68685 0.52096 0.0
H215 H 0.37235 0.36974 0.6897 0.0
H216 H 0.64253 0.43937 0.7415 0.0
H217 H 0.58971 0.43365 0.44288 0.0
H218 H 0.66407 0.67479 0.46544 0.0
H219 H 0.59959 0.35913 0.63335 0.0
loop_
_geom_bond_atom_site_label_1
_geom_bond_atom_site_label_2
_geom_bond_distance
_geom_bond_site_symmetry_2
_ccdc_geom_bond_type
H0 C7 0.929 . S
H1 C10 0.930 . S
H2 C12 0.929 . S
H3 C4 0.969 . S
C4 H3 0.969 . S
C4 O5 1.550 . S
C4 H6 0.973 . S
O5 C4 1.550 . S
O5 C11 1.412 . S
H6 C4 0.973 . S
C7 H0 0.929 . S
C7 C8 1.400 . S
C7 C9 1.364 1_556 S
C8 C7 1.400 . S
C8 C12 1.377 . S
C9 C7 1.364 1_554 S
C9 C10 1.374 . S
C10 H1 0.930 . S
C10 C9 1.374 . S
C10 C11 1.383 . S
C11 O5 1.412 . S
C11 C10 1.383 . S
C11 C12 1.394 1_554 S
C12 H2 0.929 . S
C12 C8 1.377 . S
C12 C11 1.394 1_556 S
H13 C20 0.929 . S
H14 C23 0.930 . S
H15 C25 0.929 . S
H16 C17 0.969 . S
C17 H16 0.969 . S
C17 O18 1.550 . S
C17 H19 0.973 . S
O18 C17 1.550 . S
O18 C24 1.412 . S
H19 C17 0.973 . S
C20 H13 0.929 . S
C20 C21 1.400 . S
C20 C22 1.364 . S
C21 C20 1.400 . S
C21 C25 1.377 . S
C22 C20 1.364 . S
C22 C23 1.374 . S
C23 H14 0.930 . S
C23 C22 1.374 . S
C23 C24 1.383 . S
C24 O18 1.412 . S
C24 C23 1.383 . S
C24 C25 1.394 . S
C25 H15 0.929 . S
C25 C21 1.377 . S
C25 C24 1.394 . S
H26 C33 0.929 . S
H27 C36 0.930 . S
H28 C38 0.929 . S
H29 C30 0.969 . S
C30 H29 0.969 . S
C30 O31 1.550 . S
C30 H32 0.973 . S
O31 C30 1.550 . S
O31 C37 1.412 . S
H32 C30 0.973 . S
C33 H26 0.929 . S
C33 C34 1.400 . S
C33 C35 1.364 . S
C34 C33 1.400 . S
C34 C38 1.377 . S
C35 C33 1.364 . S
C35 C36 1.374 . S
C36 H27 0.930 . S
C36 C35 1.374 . S
C36 C37 1.383 . S
C37 O31 1.412 . S
C37 C36 1.383 . S
C37 C38 1.394 . S
C38 H28 0.929 . S
C38 C34 1.377 . S
C38 C37 1.394 . S
H39 C46 0.929 . S
H40 C49 0.930 . S
H41 C51 0.929 . S
H42 C43 0.969 . S
C43 H42 0.969 . S
C43 O44 1.550 . S
C43 H45 0.973 . S
O44 C43 1.550 . S
O44 C50 1.412 . S
H45 C43 0.973 . S
C46 H39 0.929 . S
C46 C47 1.400 . S
C46 C48 1.364 . S
C47 C46 1.400 . S
C47 C51 1.377 . S
C48 C46 1.364 . S
C48 C49 1.374 . S
C49 H40 0.930 . S
C49 C48 1.374 . S
C49 C50 1.383 . S
C50 O44 1.412 . S
C50 C49 1.383 . S
C50 C51 1.394 . S
C51 H41 0.929 . S
C51 C47 1.377 . S
C51 C50 1.394 . S
Eu52 N81 2.600 . S
Eu52 N87 2.562 . S
Eu52 O96 2.462 . S
Eu52 O97 2.373 . S
Eu52 O99 2.432 . S
Eu52 O100 2.291 1_565 S
Eu52 O104 2.335 1_465 S
Eu52 O107 2.372 1_455 S
Eu52 C116 2.787 . S
C53 N54 1.365 . S
C53 C56 1.405 . S
C53 C60 1.448 . S
N54 C53 1.365 . S
N54 C57 1.319 1_655 S
N54 Eu63 2.600 . S
C55 C57 1.397 1_655 S
C55 C58 1.367 . S
C55 H75 0.931 1_655 S
C56 C53 1.405 . S
C56 C58 1.403 . S
C56 C62 1.439 . S
C57 N54 1.319 1_455 S
C57 C55 1.397 1_455 S
C57 H68 0.930 . S
C58 C55 1.367 . S
C58 C56 1.403 . S
C58 H79 0.929 . S
C59 C60 1.430 . S
C59 C61 1.387 . S
C59 C65 1.404 . S
C60 C53 1.448 . S
C60 C59 1.430 . S
C60 N64 1.351 . S
C61 C59 1.387 . S
C61 C62 1.374 . S
C61 H76 0.931 . S
C62 C56 1.439 . S
C62 C61 1.374 . S
C62 H77 0.931 . S
Eu63 N54 2.600 . S
Eu63 N64 2.562 . S
Eu63 O98 2.335 1_655 S
Eu63 O101 2.372 1_655 S
Eu63 O102 2.462 . S
Eu63 O103 2.373 . S
Eu63 O105 2.432 . S
Eu63 O106 2.291 1_545 S
Eu63 C127 2.787 . S
N64 C60 1.351 . S
N64 Eu63 2.562 . S
N64 C66 1.325 . S
C65 C59 1.404 . S
C65 C67 1.366 . S
C65 H73 0.930 . S
C66 N64 1.325 . S
C66 C67 1.416 . S
C66 H72 0.929 . S
C67 C65 1.366 . S
C67 C66 1.416 . S
C67 H69 0.930 . S
H68 C57 0.930 . S
H69 C67 0.930 . S
H70 C85 0.930 1_655 S
H71 C92 0.930 . S
H72 C66 0.929 . S
H73 C65 0.930 . S
H74 C88 0.929 . S
H75 C55 0.931 1_455 S
H76 C61 0.931 . S
H77 C62 0.931 . S
H78 C83 0.931 1_655 S
H79 C58 0.929 . S
H80 C91 0.930 . S
N81 Eu52 2.600 . S
N81 C82 1.365 . S
N81 C85 1.319 . S
C82 N81 1.365 . S
C82 C84 1.405 . S
C82 C90 1.448 . S
C83 H78 0.931 1_455 S
C83 C85 1.397 . S
C83 C86 1.367 . S
C84 C82 1.405 . S
C84 C86 1.403 . S
C84 C117 1.439 . S
C85 H70 0.930 1_455 S
C85 N81 1.319 . S
C85 C83 1.397 . S
C86 C83 1.367 . S
C86 C84 1.403 . S
C86 H93 0.929 . S
N87 Eu52 2.562 . S
N87 C88 1.325 . S
N87 C90 1.351 . S
C88 H74 0.929 . S
C88 N87 1.325 . S
C88 C92 1.416 . S
C89 C90 1.430 . S
C89 C91 1.404 . S
C89 C118 1.387 . S
C90 C82 1.448 . S
C90 N87 1.351 . S
C90 C89 1.430 . S
C91 H80 0.930 . S
C91 C89 1.404 . S
C91 C92 1.366 . S
C92 H71 0.930 . S
C92 C88 1.416 . S
C92 C91 1.366 . S
H93 C86 0.929 . S
H94 C117 0.931 . S
H95 C118 0.931 . S
O96 Eu52 2.462 . S
O96 C116 1.252 . S
O97 Eu52 2.373 . S
O97 C108 1.249 . S
O98 Eu63 2.335 1_455 S
O98 C108 1.264 1_545 S
O99 Eu52 2.432 . S
O99 C116 1.268 . S
O100 Eu52 2.291 1_545 S
O100 C115 1.255 . S
O101 Eu63 2.372 1_455 S
O101 C115 1.257 . S
O102 Eu63 2.462 . S
O102 C127 1.252 . S
O103 Eu63 2.373 . S
O103 C119 1.249 . S
O104 Eu52 2.335 1_645 S
O104 C119 1.264 . S
O105 Eu63 2.432 . S
O105 C127 1.268 . S
O106 Eu63 2.291 1_565 S
O106 C126 1.255 . S
O107 Eu52 2.372 1_655 S
O107 C126 1.257 . S
C108 O97 1.249 . S
C108 O98 1.264 1_565 S
C109 C112 1.382 . S
C109 C114 1.390 . S
C109 C116 1.506 . S
C110 C111 1.398 . S
C110 C114 1.392 . S
C111 C110 1.398 . S
C111 C113 1.372 . S
C111 H128 0.931 . S
C112 C109 1.382 . S
C112 C113 1.390 . S
C112 H129 0.931 . S
C113 C111 1.372 . S
C113 C112 1.390 . S
C113 H130 0.929 . S
C114 C109 1.390 . S
C114 C110 1.392 . S
C114 H131 0.930 . S
C115 O100 1.255 . S
C115 O101 1.257 . S
C116 Eu52 2.787 . S
C116 O96 1.252 . S
C116 O99 1.268 . S
C116 C109 1.506 . S
C117 C84 1.439 . S
C117 H94 0.931 . S
C117 C118 1.374 . S
C118 C89 1.387 . S
C118 H95 0.931 . S
C118 C117 1.374 . S
C119 O103 1.249 . S
C119 O104 1.264 . S
C120 C123 1.382 . S
C120 C124 1.390 . S
C120 C127 1.506 . S
C121 C122 1.398 . S
C121 C124 1.392 1_554 S
C122 C121 1.398 . S
C122 C125 1.372 . S
C122 H132 0.931 . S
C123 C120 1.382 . S
C123 C125 1.390 1_556 S
C123 H133 0.931 . S
C124 C120 1.390 . S
C124 C121 1.392 1_556 S
C124 H134 0.930 . S
C125 C122 1.372 . S
C125 C123 1.390 1_554 S
C125 H135 0.929 . S
C126 O106 1.255 . S
C126 O107 1.257 . S
C127 Eu63 2.787 . S
C127 O102 1.252 . S
C127 O105 1.268 . S
C127 C120 1.506 . S
H128 C111 0.931 . S
H129 C112 0.931 . S
H130 C113 0.929 . S
H131 C114 0.930 . S
H132 C122 0.931 . S
H133 C123 0.931 . S
H134 C124 0.930 . S
H135 C125 0.929 . S
Eu136 N165 2.600 . S
Eu136 N171 2.562 1_556 S
Eu136 O180 2.462 . S
Eu136 O181 2.373 1_556 S
Eu136 O183 2.432 . S
Eu136 O184 2.291 1_556 S
Eu136 O188 2.335 . S
Eu136 O191 2.372 . S
Eu136 C200 2.787 . S
C137 N138 1.365 . S
C137 C140 1.405 . S
C137 C144 1.448 . S
N138 C137 1.365 . S
N138 C141 1.319 . S
N138 Eu147 2.600 . S
C139 C141 1.397 . S
C139 C142 1.367 . S
C139 H159 0.931 . S
C140 C137 1.405 . S
C140 C142 1.403 . S
C140 C146 1.439 . S
C141 N138 1.319 . S
C141 C139 1.397 . S
C141 H152 0.930 . S
C142 C139 1.367 . S
C142 C140 1.403 . S
C142 H163 0.929 . S
C143 C144 1.430 . S
C143 C145 1.387 . S
C143 C149 1.404 . S
C144 C137 1.448 . S
C144 C143 1.430 . S
C144 N148 1.351 . S
C145 C143 1.387 . S
C145 C146 1.374 . S
C145 H160 0.931 . S
C146 C140 1.439 . S
C146 C145 1.374 . S
C146 H161 0.931 . S
Eu147 N138 2.600 . S
Eu147 N148 2.562 . S
Eu147 O182 2.335 . S
Eu147 O185 2.372 . S
Eu147 O186 2.462 . S
Eu147 O187 2.373 . S
Eu147 O189 2.432 . S
Eu147 O190 2.291 . S
Eu147 C211 2.787 . S
N148 C144 1.351 . S
N148 Eu147 2.562 . S
N148 C150 1.325 . S
C149 C143 1.404 . S
C149 C151 1.366 . S
C149 H157 0.930 . S
C150 N148 1.325 . S
C150 C151 1.416 . S
C150 H156 0.929 . S
C151 C149 1.366 . S
C151 C150 1.416 . S
C151 H153 0.930 . S
H152 C141 0.930 . S
H153 C151 0.930 . S
H154 C169 0.930 . S
H155 C176 0.930 . S
H156 C150 0.929 . S
H157 C149 0.930 . S
H158 C172 0.929 . S
H159 C139 0.931 . S
H160 C145 0.931 . S
H161 C146 0.931 . S
H162 C167 0.931 . S
H163 C142 0.929 . S
H164 C175 0.930 . S
N165 Eu136 2.600 . S
N165 C166 1.365 1_556 S
N165 C169 1.319 . S
C166 N165 1.365 1_554 S
C166 C168 1.405 . S
C166 C174 1.448 . S
C167 H162 0.931 . S
C167 C169 1.397 . S
C167 C170 1.367 1_556 S
C168 C166 1.405 . S
C168 C170 1.403 . S
C168 C201 1.439 . S
C169 H154 0.930 . S
C169 N165 1.319 . S
C169 C167 1.397 . S
C170 C167 1.367 1_554 S
C170 C168 1.403 . S
C170 H177 0.929 . S
N171 Eu136 2.562 1_554 S
N171 C172 1.325 . S
N171 C174 1.351 . S
C172 H158 0.929 . S
C172 N171 1.325 . S
C172 C176 1.416 . S
C173 C174 1.430 . S
C173 C175 1.404 . S
C173 C202 1.387 . S
C174 C166 1.448 . S
C174 N171 1.351 . S
C174 C173 1.430 . S
C175 H164 0.930 . S
C175 C173 1.404 . S
C175 C176 1.366 . S
C176 H155 0.930 . S
C176 C172 1.416 . S
C176 C175 1.366 . S
H177 C170 0.929 . S
H178 C201 0.931 . S
H179 C202 0.931 . S
O180 Eu136 2.462 . S
O180 C200 1.252 . S
O181 Eu136 2.373 1_554 S
O181 C192 1.249 . S
O182 Eu147 2.335 . S
O182 C192 1.264 . S
O183 Eu136 2.432 . S
O183 C200 1.268 . S
O184 Eu136 2.291 1_554 S
O184 C199 1.255 . S
O185 Eu147 2.372 . S
O185 C199 1.257 . S
O186 Eu147 2.462 . S
O186 C211 1.252 . S
O187 Eu147 2.373 . S
O187 C203 1.249 1_554 S
O188 Eu136 2.335 . S
O188 C203 1.264 . S
O189 Eu147 2.432 . S
O189 C211 1.268 . S
O190 Eu147 2.291 . S
O190 C210 1.255 . S
O191 Eu136 2.372 . S
O191 C210 1.257 1_556 S
C192 O181 1.249 . S
C192 O182 1.264 . S
C193 C196 1.382 . S
C193 C198 1.390 . S
C193 C200 1.506 . S
C194 C195 1.398 . S
C194 C198 1.392 . S
C195 C194 1.398 . S
C195 C197 1.372 . S
C195 H212 0.931 . S
C196 C193 1.382 . S
C196 C197 1.390 . S
C196 H213 0.931 . S
C197 C195 1.372 . S
C197 C196 1.390 . S
C197 H214 0.929 . S
C198 C193 1.390 . S
C198 C194 1.392 . S
C198 H215 0.930 . S
C199 O184 1.255 . S
C199 O185 1.257 . S
C200 Eu136 2.787 . S
C200 O180 1.252 . S
C200 O183 1.268 . S
C200 C193 1.506 . S
C201 C168 1.439 . S
C201 H178 0.931 . S
C201 C202 1.374 . S
C202 C173 1.387 . S
C202 H179 0.931 . S
C202 C201 1.374 . S
C203 O187 1.249 1_556 S
C203 O188 1.264 . S
C204 C207 1.382 . S
C204 C208 1.390 . S
C204 C211 1.506 . S
C205 C206 1.398 . S
C205 C208 1.392 . S
C206 C205 1.398 . S
C206 C209 1.372 . S
C206 H216 0.931 . S
C207 C204 1.382 . S
C207 C209 1.390 . S
C207 H217 0.931 . S
C208 C204 1.390 . S
C208 C205 1.392 . S
C208 H218 0.930 . S
C209 C206 1.372 . S
C209 C207 1.390 . S
C209 H219 0.929 . S
C210 O190 1.255 . S
C210 O191 1.257 1_554 S
C211 Eu147 2.787 . S
C211 O186 1.252 . S
C211 O189 1.268 . S
C211 C204 1.506 . S
H212 C195 0.931 . S
H213 C196 0.931 . S
H214 C197 0.929 . S
H215 C198 0.930 . S
H216 C206 0.931 . S
H217 C207 0.931 . S
H218 C208 0.930 . S
H219 C209 0.929 . S
C115 C43 1.520 . S
C4 C210 1.810 . S
C17 C126 1.630 . S
C30 C199 1.952 . S
C110 C9 1.295 . S
C203 C21 1.777 . S
C34 C119 1.846 . S
C48 C194 1.403 . S
C205 C22 1.411 . S
C121 C35 1.302 . S
C192 C47 1.766 . S
C8 C108 1.823 . S
