# Generated by pormake.
# Topology dag, (6,3)-cn, num edge types: 1
# Building blocks:
#     Node 0, Type 0, BuildingBlock: OJICUG_clean_sbu_0, # of connection points: 6
#     Node 1, Type 0, BuildingBlock: OJICUG_clean_sbu_0, # of connection points: 6
#     Node 2, Type 0, BuildingBlock: OJICUG_clean_sbu_0, # of connection points: 6
#     Node 3, Type 0, BuildingBlock: OJICUG_clean_sbu_0, # of connection points: 6
#     Node 4, Type 1, BuildingBlock: BETDAH_clean_linker_0, # of connection points: 3
#     Node 5, Type 1, BuildingBlock: BETDAH_clean_linker_0, # of connection points: 3
#     Node 6, Type 1, BuildingBlock: BETDAH_clean_linker_0, # of connection points: 3
#     Node 7, Type 1, BuildingBlock: BETDAH_clean_linker_0, # of connection points: 3
#     Node 8, Type 1, BuildingBlock: BETDAH_clean_linker_0, # of connection points: 3
#     Node 9, Type 1, BuildingBlock: BETDAH_clean_linker_0, # of connection points: 3
#     Node 10, Type 1, BuildingBlock: BETDAH_clean_linker_0, # of connection points: 3
#     Node 11, Type 1, BuildingBlock: BETDAH_clean_linker_0, # of connection points: 3
#     Edge 12, Type (0, 1), None
#     Edge 13, Type (0, 1), None
#     Edge 14, Type (0, 1), None
#     Edge 15, Type (0, 1), None
#     Edge 16, Type (0, 1), None
#     Edge 17, Type (0, 1), None
#     Edge 18, Type (0, 1), None
#     Edge 19, Type (0, 1), None
#     Edge 20, Type (0, 1), None
#     Edge 21, Type (0, 1), None
#     Edge 22, Type (0, 1), None
#     Edge 23, Type (0, 1), None
#     Edge 24, Type (0, 1), None
#     Edge 25, Type (0, 1), None
#     Edge 26, Type (0, 1), None
#     Edge 27, Type (0, 1), None
#     Edge 28, Type (0, 1), None
#     Edge 29, Type (0, 1), None
#     Edge 30, Type (0, 1), None
#     Edge 31, Type (0, 1), None
#     Edge 32, Type (0, 1), None
#     Edge 33, Type (0, 1), None
#     Edge 34, Type (0, 1), None
#     Edge 35, Type (0, 1), None
# Relax obj value: 0.090
# Max RMSD: 0.130
# Mean RMSD: 0.114
data_MOF--net-dag--node1-OJICUG_clean_sbu_0--node2-BETDAH_clean_linker_0--edge1-none
_symmetry_space_group_name_H-M    P1
_symmetry_Int_Tables_number       1
_symmetry_cell_setting            triclinic
loop_
_symmetry_equiv_pos_as_xyz
'x, y, z'
_cell_length_a     16.846412
_cell_length_b     17.957237
_cell_length_c     17.800373
_cell_angle_alpha  96.812817
_cell_angle_beta   90.028394
_cell_angle_gamma 90.048855
loop_
_atom_site_label
_atom_site_type_symbol
_atom_site_fract_x
_atom_site_fract_y
_atom_site_fract_z
_atom_type_partial_charge
Sc0 Sc 0.06012 0.93619 0.05288 0.0
Sc1 Sc 0.1034 0.75147 0.03172 0.0
Sc2 Sc 0.23084 0.88763 0.13133 0.0
O3 O 0.13244 0.85603 0.07341 0.0
C4 C 0.21217 0.00363 0.00831 0.0
C5 C 0.03701 0.83554 0.90481 0.0
C6 C 0.28824 0.76402 0.99727 0.0
C7 C 0.94266 0.82686 0.10877 0.0
C8 C 0.11824 0.00594 0.20843 0.0
C9 C 0.18084 0.73303 0.19145 0.0
O10 O 0.14996 0.97045 0.98107 0.0
O11 O 0.0832 0.78265 0.91722 0.0
O12 O 0.29924 0.82488 0.04132 0.0
O13 O 0.97612 0.89058 0.12603 0.0
O14 O 0.16091 0.95145 0.22451 0.0
O15 O 0.12871 0.71453 0.1405 0.0
O16 O 0.1098 0.01516 0.13992 0.0
O17 O 0.97726 0.7736 0.06596 0.0
O18 O 0.22536 0.79069 0.19322 0.0
O19 O 0.0027 0.87307 0.95973 0.0
O20 O 0.24352 0.98821 0.07045 0.0
O21 O 0.22384 0.72642 0.99392 0.0
Sc22 Sc 0.73047 0.60777 0.41995 0.0
Sc23 Sc 0.60331 0.74414 0.51916 0.0
Sc24 Sc 0.55956 0.55942 0.49844 0.0
O25 O 0.63207 0.63947 0.47767 0.0
C26 C 0.61764 0.48907 0.34298 0.0
C27 C 0.68078 0.76217 0.35934 0.0
C28 C 0.44234 0.66865 0.44224 0.0
C29 C 0.7881 0.73179 0.55381 0.0
C30 C 0.71168 0.49214 0.54318 0.0
C31 C 0.53682 0.66038 0.64634 0.0
O32 O 0.66062 0.54343 0.32691 0.0
O33 O 0.62873 0.78082 0.41026 0.0
O34 O 0.47552 0.60481 0.42523 0.0
O35 O 0.79899 0.67083 0.50989 0.0
O36 O 0.64946 0.52525 0.57029 0.0
O37 O 0.58309 0.71323 0.63379 0.0
O38 O 0.743 0.50742 0.48103 0.0
O39 O 0.72376 0.76933 0.55703 0.0
O40 O 0.5024 0.62274 0.59149 0.0
O41 O 0.72512 0.70447 0.35771 0.0
O42 O 0.60854 0.48011 0.41149 0.0
O43 O 0.47716 0.72198 0.48488 0.0
Sc44 Sc 0.87998 0.24416 0.01952 0.0
Sc45 Sc 0.75247 0.10814 0.91964 0.0
Sc46 Sc 0.92309 0.05941 0.99829 0.0
O47 O 0.85083 0.13964 0.97774 0.0
C48 C 0.04054 0.16873 0.94236 0.0
C49 C 0.80239 0.26282 0.85977 0.0
C50 C 0.86497 0.98956 0.84279 0.0
C51 C 0.69494 0.23213 0.05332 0.0
C52 C 0.94634 0.15993 0.14635 0.0
C53 C 0.771 0.99214 0.04289 0.0
O54 O 0.00597 0.22206 0.98508 0.0
O55 O 0.75821 0.20491 0.85764 0.0
O56 O 0.87338 0.9804 0.91131 0.0
O57 O 0.7598 0.26897 0.05762 0.0
O58 O 0.98062 0.12241 0.09143 0.0
O59 O 0.73957 0.00764 0.9808 0.0
O60 O 0.90029 0.21293 0.13395 0.0
O61 O 0.68379 0.17137 0.00912 0.0
O62 O 0.83324 0.02528 0.07013 0.0
O63 O 0.85432 0.28141 0.9109 0.0
O64 O 0.00709 0.105 0.92515 0.0
O65 O 0.82247 0.04412 0.82666 0.0
Sc66 Sc 0.42262 0.43687 0.55336 0.0
Sc67 Sc 0.25187 0.38802 0.63159 0.0
Sc68 Sc 0.37943 0.25195 0.5326 0.0
O69 O 0.35032 0.35655 0.57386 0.0
C70 C 0.44588 0.33592 0.40552 0.0
C71 C 0.27058 0.50396 0.50846 0.0
C72 C 0.19465 0.26398 0.49764 0.0
C73 C 0.36455 0.50654 0.70871 0.0
C74 C 0.54002 0.32764 0.60975 0.0
C75 C 0.30187 0.2337 0.69215 0.0
O76 O 0.47999 0.37417 0.46017 0.0
O77 O 0.23914 0.48851 0.57053 0.0
O78 O 0.25909 0.22657 0.49453 0.0
O79 O 0.37285 0.51575 0.64022 0.0
O80 O 0.5054 0.27426 0.56706 0.0
O81 O 0.2573 0.29123 0.69371 0.0
O82 O 0.50669 0.39143 0.62665 0.0
O83 O 0.32184 0.45204 0.72481 0.0
O84 O 0.35404 0.21523 0.64135 0.0
O85 O 0.33282 0.4709 0.48138 0.0
O86 O 0.4 0.28283 0.41822 0.0
O87 O 0.18354 0.32492 0.54153 0.0
H88 H 0.96815 0.02591 0.18641 0.0
H89 H 0.14948 0.10172 0.34779 0.0
H90 H 0.97378 0.25477 0.28143 0.0
C91 C -0.00754 0.06873 0.22823 0.0
C92 C 0.96992 0.1428 0.22294 0.0
C93 C 0.06605 0.05506 0.26128 0.0
C94 C 0.0948 0.11064 0.31817 0.0
C95 C 0.05281 0.17995 0.33256 0.0
C96 C -0.00497 0.19768 0.28009 0.0
N97 N 0.06807 0.23518 0.39506 0.0
C98 C 0.13433 0.24162 0.44201 0.0
H99 H 0.51468 0.52643 0.68667 0.0
H100 H 0.50936 0.75548 0.78124 0.0
H101 H 0.3336 0.60241 0.84779 0.0
C102 C 0.49052 0.56934 0.72839 0.0
C103 C 0.41695 0.55567 0.76148 0.0
C104 C 0.5132 0.64341 0.723 0.0
C105 C 0.4881 0.69837 0.78001 0.0
C106 C 0.43029 0.68068 0.83246 0.0
C107 C 0.38829 0.6113 0.81822 0.0
N108 N 0.41482 0.73605 0.89474 0.0
C109 C 0.3486 0.74211 0.94166 0.0
H110 H 0.85856 0.87486 1.00302 0.0
H111 H 0.83371 0.79719 0.22071 0.0
H112 H 0.66482 0.95128 0.14627 0.0
C113 C 0.82241 0.86836 0.05214 0.0
C114 C 0.75927 0.91824 0.0684 0.0
C115 C 0.85475 0.83039 0.1093 0.0
C116 C 0.80942 0.82527 0.17526 0.0
C117 C 0.73559 0.86325 0.18452 0.0
C118 C 0.71356 0.9126 0.13275 0.0
N119 N 0.68729 0.86268 0.24976 0.0
C120 C 0.6894 0.8096 0.30039 0.0
H121 H 0.6241 0.37472 0.50365 0.0
H122 H 0.64912 0.29829 0.72191 0.0
H123 H 0.81837 0.4516 0.64634 0.0
C124 C 0.66029 0.36847 0.55285 0.0
C125 C 0.72349 0.4184 0.56887 0.0
C126 C 0.62791 0.33101 0.61032 0.0
C127 C 0.67338 0.32611 0.67627 0.0
C128 C 0.74746 0.36388 0.68514 0.0
C129 C 0.76944 0.41298 0.63313 0.0
N130 N 0.79622 0.36321 0.75009 0.0
C131 C 0.79349 0.31073 0.8013 0.0
H132 H 0.46699 0.46898 0.36226 0.0
H133 H 0.65224 0.39103 0.20639 0.0
H134 H 0.47775 0.23809 0.27462 0.0
C135 C 0.49231 0.4255 0.32183 0.0
C136 C 0.4704 0.35149 0.32879 0.0
C137 C 0.56644 0.43911 0.28973 0.0
C138 C 0.59671 0.38254 0.23476 0.0
C139 C 0.55624 0.31223 0.22208 0.0
C140 C 0.49772 0.29542 0.27408 0.0
N141 N 0.57571 0.25403 0.1637 0.0
C142 C 0.63509 0.2536 0.10946 0.0
H143 H 0.12459 0.12086 0.04822 0.0
H144 H 0.14942 0.19848 0.83053 0.0
H145 H 0.31838 0.04449 0.90502 0.0
C146 C 0.16074 0.12737 0.99909 0.0
C147 C 0.22387 0.0775 0.98283 0.0
C148 C 0.12841 0.16529 0.94191 0.0
C149 C 0.17373 0.17042 0.87598 0.0
C150 C 0.24756 0.13246 0.86676 0.0
C151 C 0.26961 0.08314 0.91851 0.0
N152 N 0.29584 0.13311 0.80157 0.0
C153 C 0.29346 0.18622 0.75102 0.0
H154 H 0.35798 0.62151 0.54827 0.0
H155 H 0.33366 0.69793 0.32995 0.0
H156 H 0.16441 0.54427 0.40479 0.0
C157 C 0.32191 0.62776 0.49899 0.0
C158 C 0.25878 0.57774 0.48277 0.0
C159 C 0.35444 0.66535 0.44164 0.0
C160 C 0.30923 0.67013 0.37553 0.0
C161 C 0.23535 0.63212 0.36628 0.0
C162 C 0.21316 0.58303 0.41826 0.0
N163 N 0.18721 0.63236 0.30087 0.0
C164 C 0.18933 0.68546 0.25027 0.0
H165 H 0.01503 0.96961 0.86479 0.0
H166 H 0.00943 0.7407 0.76973 0.0
H167 H 0.83366 0.89376 0.70356 0.0
C168 C -0.00923 0.92674 0.823 0.0
C169 C 0.91717 0.9404 0.78998 0.0
C170 C 0.01338 0.85266 0.82822 0.0
C171 C 0.98819 0.79779 0.77109 0.0
C172 C 0.93033 0.81552 0.71869 0.0
C173 C 0.88837 0.88484 0.73311 0.0
N174 N 0.91488 0.76027 0.65625 0.0
C175 C 0.84856 0.75397 0.60936 0.0
loop_
_geom_bond_atom_site_label_1
_geom_bond_atom_site_label_2
_geom_bond_distance
_geom_bond_site_symmetry_2
_ccdc_geom_bond_type
Sc0 O3 2.025 . S
Sc0 O10 2.105 1_564 S
Sc0 O13 2.105 1_455 S
Sc0 O16 2.105 1_565 S
Sc0 O19 2.104 1_454 S
Sc1 O3 2.025 . S
Sc1 O11 2.105 1_554 S
Sc1 O15 2.105 . S
Sc1 O17 2.105 1_455 S
Sc1 O21 2.105 1_554 S
Sc2 O3 2.025 . S
Sc2 O12 2.105 1_554 S
Sc2 O14 2.105 . S
Sc2 O18 2.105 . S
Sc2 O20 2.105 1_554 S
O3 Sc0 2.025 . S
O3 Sc1 2.025 . S
O3 Sc2 2.025 . S
C4 O10 1.268 . S
C4 O20 1.268 1_545 S
C5 O11 1.268 . S
C5 O19 1.268 1_455 S
C6 O12 1.268 . S
C6 O21 1.268 . S
C7 O13 1.268 . S
C7 O17 1.268 . S
C8 O14 1.261 1_545 S
C8 O16 1.270 . S
C9 O15 1.268 . S
C9 O18 1.268 . S
O10 Sc0 2.105 1_546 S
O10 C4 1.268 . S
O11 Sc1 2.105 1_556 S
O11 C5 1.268 . S
O12 Sc2 2.105 1_556 S
O12 C6 1.268 . S
O13 Sc0 2.105 1_655 S
O13 C7 1.268 . S
O14 Sc2 2.105 . S
O14 C8 1.261 1_565 S
O15 Sc1 2.105 . S
O15 C9 1.268 . S
O16 Sc0 2.105 1_545 S
O16 C8 1.270 . S
O17 Sc1 2.105 1_655 S
O17 C7 1.268 . S
O18 Sc2 2.105 . S
O18 C9 1.268 . S
O19 Sc0 2.104 1_656 S
O19 C5 1.268 1_655 S
O20 Sc2 2.105 1_556 S
O20 C4 1.268 1_565 S
O21 Sc1 2.105 1_556 S
O21 C6 1.268 . S
Sc22 O25 2.025 . S
Sc22 O32 2.105 . S
Sc22 O35 2.105 . S
Sc22 O38 2.105 . S
Sc22 O41 2.105 . S
Sc23 O25 2.025 . S
Sc23 O33 2.105 . S
Sc23 O37 2.105 . S
Sc23 O39 2.105 . S
Sc23 O43 2.105 . S
Sc24 O25 2.025 . S
Sc24 O34 2.105 . S
Sc24 O36 2.105 . S
Sc24 O40 2.105 . S
Sc24 O42 2.105 . S
O25 Sc22 2.025 . S
O25 Sc23 2.025 . S
O25 Sc24 2.025 . S
C26 O32 1.268 . S
C26 O42 1.268 . S
C27 O33 1.268 . S
C27 O41 1.268 . S
C28 O34 1.268 . S
C28 O43 1.268 . S
C29 O35 1.268 . S
C29 O39 1.268 . S
C30 O36 1.268 . S
C30 O38 1.268 . S
C31 O37 1.268 . S
C31 O40 1.268 . S
O32 Sc22 2.105 . S
O32 C26 1.268 . S
O33 Sc23 2.105 . S
O33 C27 1.268 . S
O34 Sc24 2.105 . S
O34 C28 1.268 . S
O35 Sc22 2.105 . S
O35 C29 1.268 . S
O36 Sc24 2.105 . S
O36 C30 1.268 . S
O37 Sc23 2.105 . S
O37 C31 1.268 . S
O38 Sc22 2.105 . S
O38 C30 1.268 . S
O39 Sc23 2.105 . S
O39 C29 1.268 . S
O40 Sc24 2.105 . S
O40 C31 1.268 . S
O41 Sc22 2.105 . S
O41 C27 1.268 . S
O42 Sc24 2.105 . S
O42 C26 1.268 . S
O43 Sc23 2.105 . S
O43 C28 1.268 . S
Sc44 O47 2.025 . S
Sc44 O54 2.105 1_654 S
Sc44 O57 2.105 . S
Sc44 O60 2.105 . S
Sc44 O63 2.105 1_554 S
Sc45 O47 2.025 1_556 S
Sc45 O55 2.105 . S
Sc45 O59 2.105 1_556 S
Sc45 O61 2.105 1_556 S
Sc45 O65 2.105 . S
Sc46 O47 2.025 . S
Sc46 O56 2.105 1_544 S
Sc46 O58 2.105 1_655 S
Sc46 O62 2.105 1_545 S
Sc46 O64 2.105 1_654 S
O47 Sc44 2.025 . S
O47 Sc45 2.025 1_554 S
O47 Sc46 2.025 . S
C48 O54 1.268 . S
C48 O64 1.268 . S
C49 O55 1.268 . S
C49 O63 1.268 . S
C50 O56 1.267 1_545 S
C50 O65 1.274 . S
C51 O57 1.268 . S
C51 O61 1.268 . S
C52 O58 1.268 1_655 S
C52 O60 1.268 . S
C53 O59 1.268 1_565 S
C53 O62 1.268 . S
O54 Sc44 2.105 1_456 S
O54 C48 1.268 . S
O55 Sc45 2.105 . S
O55 C49 1.268 . S
O56 Sc46 2.105 1_566 S
O56 C50 1.267 1_565 S
O57 Sc44 2.105 . S
O57 C51 1.268 . S
O58 Sc46 2.105 1_455 S
O58 C52 1.268 1_455 S
O59 Sc45 2.105 1_554 S
O59 C53 1.268 1_545 S
O60 Sc44 2.105 . S
O60 C52 1.268 . S
O61 Sc45 2.105 1_554 S
O61 C51 1.268 . S
O62 Sc46 2.105 1_565 S
O62 C53 1.268 . S
O63 Sc44 2.105 1_556 S
O63 C49 1.268 . S
O64 Sc46 2.105 1_456 S
O64 C48 1.268 . S
O65 Sc45 2.105 . S
O65 C50 1.274 . S
Sc66 O69 2.025 . S
Sc66 O76 2.105 . S
Sc66 O79 2.105 . S
Sc66 O82 2.105 . S
Sc66 O85 2.105 . S
Sc67 O69 2.025 . S
Sc67 O77 2.105 . S
Sc67 O81 2.105 . S
Sc67 O83 2.105 . S
Sc67 O87 2.105 . S
Sc68 O69 2.025 . S
Sc68 O78 2.105 . S
Sc68 O80 2.105 . S
Sc68 O84 2.105 . S
Sc68 O86 2.105 . S
O69 Sc66 2.025 . S
O69 Sc67 2.025 . S
O69 Sc68 2.025 . S
C70 O76 1.268 . S
C70 O86 1.268 . S
C71 O77 1.268 . S
C71 O85 1.268 . S
C72 O78 1.268 . S
C72 O87 1.268 . S
C73 O79 1.268 . S
C73 O83 1.268 . S
C74 O80 1.268 . S
C74 O82 1.268 . S
C75 O81 1.268 . S
C75 O84 1.268 . S
O76 Sc66 2.105 . S
O76 C70 1.268 . S
O77 Sc67 2.105 . S
O77 C71 1.268 . S
O78 Sc68 2.105 . S
O78 C72 1.268 . S
O79 Sc66 2.105 . S
O79 C73 1.268 . S
O80 Sc68 2.105 . S
O80 C74 1.268 . S
O81 Sc67 2.105 . S
O81 C75 1.268 . S
O82 Sc66 2.105 . S
O82 C74 1.268 . S
O83 Sc67 2.105 . S
O83 C73 1.268 . S
O84 Sc68 2.105 . S
O84 C75 1.268 . S
O85 Sc66 2.105 . S
O85 C71 1.268 . S
O86 Sc68 2.105 . S
O86 C70 1.268 . S
O87 Sc67 2.105 . S
O87 C72 1.268 . S
H88 C91 0.929 1_655 S
H89 C94 0.929 . S
H90 C96 0.930 . S
C91 H88 0.929 1_455 S
C91 C92 1.398 . S
C91 C93 1.396 . S
C92 C91 1.398 . S
C92 C96 1.407 . S
C93 C91 1.396 . S
C93 C94 1.394 . S
C94 H89 0.929 . S
C94 C93 1.394 . S
C94 C95 1.382 . S
C95 C94 1.382 . S
C95 C96 1.392 . S
C95 N97 1.420 . S
C96 H90 0.930 . S
C96 C92 1.407 . S
C96 C95 1.392 . S
N97 C95 1.420 . S
N97 C98 1.244 . S
C98 N97 1.244 . S
H99 C102 0.929 . S
H100 C105 0.929 . S
H101 C107 0.930 . S
C102 H99 0.929 . S
C102 C103 1.398 . S
C102 C104 1.396 . S
C103 C102 1.398 . S
C103 C107 1.407 . S
C104 C102 1.396 . S
C104 C105 1.394 . S
C105 H100 0.929 . S
C105 C104 1.394 . S
C105 C106 1.382 . S
C106 C105 1.382 . S
C106 C107 1.392 . S
C106 N108 1.420 . S
C107 H101 0.930 . S
C107 C103 1.407 . S
C107 C106 1.392 . S
N108 C106 1.420 . S
N108 C109 1.244 . S
C109 N108 1.244 . S
H110 C113 0.929 . S
H111 C116 0.929 . S
H112 C118 0.930 . S
C113 H110 0.929 . S
C113 C114 1.398 . S
C113 C115 1.396 . S
C114 C113 1.398 . S
C114 C118 1.407 . S
C115 C113 1.396 . S
C115 C116 1.394 . S
C116 H111 0.929 . S
C116 C115 1.394 . S
C116 C117 1.382 . S
C117 C116 1.382 . S
C117 C118 1.392 . S
C117 N119 1.420 . S
C118 H112 0.930 . S
C118 C114 1.407 . S
C118 C117 1.392 . S
N119 C117 1.420 . S
N119 C120 1.244 . S
C120 N119 1.244 . S
H121 C124 0.929 . S
H122 C127 0.929 . S
H123 C129 0.930 . S
C124 H121 0.929 . S
C124 C125 1.398 . S
C124 C126 1.396 . S
C125 C124 1.398 . S
C125 C129 1.407 . S
C126 C124 1.396 . S
C126 C127 1.394 . S
C127 H122 0.929 . S
C127 C126 1.394 . S
C127 C128 1.382 . S
C128 C127 1.382 . S
C128 C129 1.392 . S
C128 N130 1.420 . S
C129 H123 0.930 . S
C129 C125 1.407 . S
C129 C128 1.392 . S
N130 C128 1.420 . S
N130 C131 1.244 . S
C131 N130 1.244 . S
H132 C135 0.929 . S
H133 C138 0.929 . S
H134 C140 0.930 . S
C135 H132 0.929 . S
C135 C136 1.398 . S
C135 C137 1.396 . S
C136 C135 1.398 . S
C136 C140 1.407 . S
C137 C135 1.396 . S
C137 C138 1.394 . S
C138 H133 0.929 . S
C138 C137 1.394 . S
C138 C139 1.382 . S
C139 C138 1.382 . S
C139 C140 1.392 . S
C139 N141 1.420 . S
C140 H134 0.930 . S
C140 C136 1.407 . S
C140 C139 1.392 . S
N141 C139 1.420 . S
N141 C142 1.244 . S
C142 N141 1.244 . S
H143 C146 0.929 . S
H144 C149 0.929 . S
H145 C151 0.930 . S
C146 H143 0.929 . S
C146 C147 1.398 . S
C146 C148 1.396 . S
C147 C146 1.398 . S
C147 C151 1.407 . S
C148 C146 1.396 . S
C148 C149 1.394 . S
C149 H144 0.929 . S
C149 C148 1.394 . S
C149 C150 1.382 . S
C150 C149 1.382 . S
C150 C151 1.392 . S
C150 N152 1.420 . S
C151 H145 0.930 . S
C151 C147 1.407 . S
C151 C150 1.392 . S
N152 C150 1.420 . S
N152 C153 1.244 . S
C153 N152 1.244 . S
H154 C157 0.929 . S
H155 C160 0.929 . S
H156 C162 0.930 . S
C157 H154 0.929 . S
C157 C158 1.398 . S
C157 C159 1.396 . S
C158 C157 1.398 . S
C158 C162 1.407 . S
C159 C157 1.396 . S
C159 C160 1.394 . S
C160 H155 0.929 . S
C160 C159 1.394 . S
C160 C161 1.382 . S
C161 C160 1.382 . S
C161 C162 1.392 . S
C161 N163 1.420 . S
C162 H156 0.930 . S
C162 C158 1.407 . S
C162 C161 1.392 . S
N163 C161 1.420 . S
N163 C164 1.244 . S
C164 N163 1.244 . S
H165 C168 0.929 1_455 S
H166 C171 0.929 . S
H167 C173 0.930 . S
C168 H165 0.929 1_655 S
C168 C169 1.398 . S
C168 C170 1.396 . S
C169 C168 1.398 . S
C169 C173 1.407 . S
C170 C168 1.396 . S
C170 C171 1.394 . S
C171 H166 0.929 . S
C171 C170 1.394 . S
C171 C172 1.382 . S
C172 C171 1.382 . S
C172 C173 1.392 . S
C172 N174 1.420 . S
C173 H167 0.930 . S
C173 C169 1.407 . S
C173 C172 1.392 . S
N174 C172 1.420 . S
N174 C175 1.244 . S
C175 N174 1.244 . S
C8 C93 1.554 . S
C31 C104 1.530 . S
C53 C114 1.358 . S
C126 C74 1.367 . S
C137 C26 1.547 . S
C48 C148 1.368 . S
C71 C158 1.358 . S
C5 C170 1.530 1_455 S
C50 C169 1.387 1_545 S
C136 C70 1.357 . S
C147 C4 1.337 . S
C28 C159 1.384 . S
C103 C73 1.392 . S
C7 C115 1.384 . S
C125 C30 1.337 . S
C92 C52 1.357 1_455 S
C164 C9 1.645 . S
C175 C29 1.545 . S
C51 C142 1.407 . S
C153 C75 1.600 . S
C120 C27 1.646 . S
C49 C131 1.600 . S
C98 C72 1.407 . S
C109 C6 1.545 . S
