# Generated by pormake.
# Topology anh, (6,3)-cn, num edge types: 1
# Building blocks:
#     Node 0, Type 0, BuildingBlock: CUKXOW_clean_sbu_0, # of connection points: 6
#     Node 1, Type 0, BuildingBlock: CUKXOW_clean_sbu_0, # of connection points: 6
#     Node 2, Type 0, BuildingBlock: CUKXOW_clean_sbu_0, # of connection points: 6
#     Node 3, Type 1, BuildingBlock: CUQRIR_clean_linker_1, # of connection points: 3
#     Node 4, Type 1, BuildingBlock: CUQRIR_clean_linker_1, # of connection points: 3
#     Node 5, Type 1, BuildingBlock: CUQRIR_clean_linker_1, # of connection points: 3
#     Node 6, Type 1, BuildingBlock: CUQRIR_clean_linker_1, # of connection points: 3
#     Node 7, Type 1, BuildingBlock: CUQRIR_clean_linker_1, # of connection points: 3
#     Node 8, Type 1, BuildingBlock: CUQRIR_clean_linker_1, # of connection points: 3
#     Edge 9, Type (0, 1), None
#     Edge 10, Type (0, 1), None
#     Edge 11, Type (0, 1), None
#     Edge 12, Type (0, 1), None
#     Edge 13, Type (0, 1), None
#     Edge 14, Type (0, 1), None
#     Edge 15, Type (0, 1), None
#     Edge 16, Type (0, 1), None
#     Edge 17, Type (0, 1), None
#     Edge 18, Type (0, 1), None
#     Edge 19, Type (0, 1), None
#     Edge 20, Type (0, 1), None
#     Edge 21, Type (0, 1), None
#     Edge 22, Type (0, 1), None
#     Edge 23, Type (0, 1), None
#     Edge 24, Type (0, 1), None
#     Edge 25, Type (0, 1), None
#     Edge 26, Type (0, 1), None
# Relax obj value: 0.182
# Max RMSD: 0.203
# Mean RMSD: 0.165
data_MOF--net-anh--node1-CUKXOW_clean_sbu_0--node2-CUQRIR_clean_linker_1--edge1-none
_symmetry_space_group_name_H-M    P1
_symmetry_Int_Tables_number       1
_symmetry_cell_setting            triclinic
loop_
_symmetry_equiv_pos_as_xyz
'x, y, z'
_cell_length_a     10.406468
_cell_length_b     9.9228069
_cell_length_c     17.468357
_cell_angle_alpha  87.626515
_cell_angle_beta   90.649871
_cell_angle_gamma 110.33288
loop_
_atom_site_label
_atom_site_type_symbol
_atom_site_fract_x
_atom_site_fract_y
_atom_site_fract_z
_atom_type_partial_charge
Tb0 Tb 0.09676 0.63603 0.13897 0.0
C1 C 1.06955 0.51251 0.31556 0.0
Tb2 Tb 1.01272 0.32633 0.17388 0.0
O3 O 0.90534 0.67615 0.10603 0.0
O4 O 0.89182 0.46983 0.14295 0.0
O5 O 0.08982 0.62285 0.26607 0.0
C6 C 0.7794 0.09921 0.19832 0.0
O7 O 1.04041 0.38269 0.29105 0.0
C8 C 0.29684 0.42653 0.16685 0.0
C9 C 0.11787 0.41787 0.00913 0.0
O10 O 0.87083 0.15798 0.24961 0.0
O11 O 0.83154 0.15451 0.13212 0.0
O12 O 0.21899 0.29139 0.18208 0.0
O13 O 0.20895 0.493 0.15891 0.0
O14 O 1.0558 0.30611 0.05569 0.0
O15 O 0.14849 0.55312 0.03207 0.0
C16 C 0.28265 0.90041 0.16461 0.0
O17 O 0.25531 0.84333 0.09751 0.0
O18 O 0.1909 0.81704 0.21106 0.0
C19 C 0.81641 0.54956 0.12492 0.0
Tb20 Tb 0.52338 0.95879 0.52573 0.0
C21 C 0.624 0.99486 0.35304 0.0
Tb22 Tb 0.82401 0.07012 0.48882 0.0
O23 O 0.49341 0.16065 0.48942 0.0
O24 O 0.67913 0.16841 0.52843 0.0
O25 O 0.53655 0.91441 0.40531 0.0
C26 C 1.03858 0.29504 0.44469 0.0
O27 O 0.74751 0.07391 0.37319 0.0
C28 C 0.73444 0.77796 0.50938 0.0
C29 C 0.73552 0.06133 0.66003 0.0
O30 O 0.92184 0.24758 0.4101 0.0
O31 O 1.03962 0.20394 0.50083 0.0
O32 O 0.85964 0.85649 0.48913 0.0
O33 O 0.67199 0.86669 0.51183 0.0
O34 O 0.83444 0.11748 0.60888 0.0
O35 O 0.60706 0.98376 0.64105 0.0
C36 C 0.27122 0.76428 0.53638 0.0
O37 O 0.30325 0.89582 0.51047 0.0
O38 O 0.37997 0.75297 0.5687 0.0
C39 C 0.61785 0.24969 0.49788 0.0
Tb40 Tb 0.54276 0.56347 0.8282 0.0
C41 C 0.64221 0.62519 0.98771 0.0
Tb42 Tb 0.73535 0.66327 0.82403 0.0
O43 O 0.5573 0.35877 0.87186 0.0
O44 O 0.66897 0.46326 0.77644 0.0
O45 O 0.55047 0.64814 0.94278 0.0
C46 C 0.96785 0.65853 0.86435 0.0
O47 O 0.7363 0.60248 0.94891 0.0
C48 C 0.69324 0.89585 0.80334 0.0
C49 C 0.61986 0.6237 0.66096 0.0
O50 O 0.8732 0.65185 0.91151 0.0
O51 O 0.94627 0.7084 0.79771 0.0
O52 O 0.80007 0.87263 0.77955 0.0
O53 O 0.60931 0.79275 0.84233 0.0
O54 O 0.73335 0.63902 0.69909 0.0
O55 O 0.51249 0.60255 0.70516 0.0
C56 C 0.2853 0.43554 0.85592 0.0
O57 O 0.37966 0.43895 0.904 0.0
O58 O 0.33798 0.48447 0.78916 0.0
C59 C 0.6343 0.35155 0.81664 0.0
C60 C 0.53806 1.01768 0.15818 0.0
N61 N 0.6401 0.03616 0.212 0.0
N62 N 0.4119 0.97421 0.19187 0.0
C63 C 0.56094 0.07868 0.07733 0.0
C64 C 0.44108 0.97868 0.26724 0.0
N65 N 0.57569 1.00375 0.2801 0.0
C66 C 0.35657 1.02562 0.32272 0.0
H67 H 0.60514 0.19769 0.07816 0.0
H68 H 0.46251 0.04934 0.04629 0.0
H69 H 0.63465 0.04201 0.04668 0.0
H70 H 0.32773 0.94857 0.37158 0.0
H71 H 0.26497 0.03953 0.29542 0.0
H72 H 0.41951 0.13036 0.3459 0.0
C73 C 0.69879 0.51923 0.48798 0.0
N74 N 0.68426 0.62958 0.52881 0.0
N75 N 0.63669 0.38706 0.52354 0.0
C76 C 0.73839 0.53229 0.40541 0.0
C77 C 0.57323 0.42016 0.58386 0.0
N78 N 0.60527 0.56618 0.58973 0.0
C79 C 0.48171 0.30564 0.63851 0.0
H80 H 0.74473 0.63756 0.37844 0.0
H81 H 0.66098 0.44626 0.37481 0.0
H82 H 0.83467 0.51038 0.39995 0.0
H83 H 0.53693 0.23509 0.66063 0.0
H84 H 0.39215 0.23529 0.60695 0.0
H85 H 0.44245 0.34863 0.6867 0.0
C86 C 0.14074 0.56866 0.84226 0.0
N87 N 0.1822 0.47129 0.87991 0.0
N88 N 1.01819 0.55326 0.86784 0.0
C89 C 0.23178 0.69751 0.7943 0.0
C90 C 0.98258 0.43389 0.91542 0.0
N91 N 0.09215 0.39812 0.93314 0.0
C92 C 0.84763 0.35804 0.95546 0.0
H93 H 0.34045 0.72753 0.81197 0.0
H94 H 0.20303 0.79431 0.79924 0.0
H95 H 0.22312 0.66981 0.7331 0.0
H96 H 0.76538 0.38777 0.93293 0.0
H97 H 0.85426 0.38194 0.0163 0.0
H98 H 0.8214 0.24001 0.95245 0.0
C99 C 0.1704 0.51227 0.50685 0.0
N100 N 0.11149 0.43907 0.44408 0.0
N101 N 0.18205 0.65263 0.49841 0.0
C102 C 0.21199 0.44531 0.57773 0.0
C103 C 0.12777 0.66211 0.42791 0.0
N104 N 0.09304 0.53468 0.3928 0.0
C105 C 1.07913 0.78301 0.40122 0.0
H106 H 0.1224 0.36054 0.60384 0.0
H107 H 0.25661 0.52211 0.6231 0.0
H108 H 0.28562 0.39426 0.56058 0.0
H109 H 0.11464 0.82324 0.34323 0.0
H110 H 0.10447 0.87285 0.44055 0.0
H111 H 0.96802 0.74235 0.39544 0.0
C112 C 0.62623 0.10216 0.82927 0.0
N113 N 0.68224 1.0248 0.78826 0.0
N114 N 0.67473 0.24044 0.8019 0.0
C115 C 0.51209 0.03859 0.88615 0.0
C116 C 0.76284 0.24126 0.74519 0.0
N117 N 0.75676 0.10751 0.73234 0.0
C118 C 0.85608 0.37121 0.70064 0.0
H119 H 0.4153 0.98869 0.85451 0.0
H120 H 0.49882 0.12081 0.92253 0.0
H121 H 0.53047 0.95333 0.92279 0.0
H122 H 0.89159 0.46674 0.73577 0.0
H123 H 0.80269 0.39449 0.64955 0.0
H124 H 0.94776 0.35012 0.68131 0.0
C125 C 0.55449 0.43671 0.15694 0.0
N126 N 0.67046 0.51295 0.11125 0.0
N127 N 0.43886 0.47774 0.14332 0.0
C128 C 0.55806 0.34203 0.2237 0.0
C129 C 0.49489 0.58622 0.09167 0.0
N130 N 0.61923 0.59445 0.06538 0.0
C131 C 0.4488 0.70988 0.08068 0.0
H132 H 0.47449 0.24008 0.2154 0.0
H133 H 0.52984 0.38627 0.27532 0.0
H134 H 0.65853 0.32747 0.23047 0.0
H135 H 0.53857 0.80581 0.06606 0.0
H136 H 0.40512 0.72303 0.13564 0.0
H137 H 0.37797 0.69504 0.03196 0.0
loop_
_geom_bond_atom_site_label_1
_geom_bond_atom_site_label_2
_geom_bond_distance
_geom_bond_site_symmetry_2
_ccdc_geom_bond_type
Tb0 O3 2.453 1_455 S
Tb0 O4 2.596 1_455 S
Tb0 O5 2.374 . S
Tb0 O13 2.343 . S
Tb0 O15 2.353 . S
Tb0 O17 2.427 . S
Tb0 O18 2.513 . S
C1 O5 1.251 1_655 S
C1 O7 1.263 . S
Tb2 O4 2.343 . S
Tb2 O7 2.353 . S
Tb2 O10 2.427 . S
Tb2 O11 2.513 . S
Tb2 O12 2.453 1_655 S
Tb2 O13 2.596 1_655 S
Tb2 O14 2.374 . S
O3 Tb0 2.453 1_655 S
O3 C19 1.245 . S
O4 Tb0 2.596 1_655 S
O4 Tb2 2.343 . S
O4 C19 1.259 . S
O5 Tb0 2.374 . S
O5 C1 1.251 1_455 S
C6 O10 1.275 . S
C6 O11 1.246 . S
O7 C1 1.263 . S
O7 Tb2 2.353 . S
C8 O12 1.245 . S
C8 O13 1.259 . S
C9 O14 1.250 1_455 S
C9 O15 1.263 . S
O10 Tb2 2.427 . S
O10 C6 1.275 . S
O11 Tb2 2.513 . S
O11 C6 1.246 . S
O12 Tb2 2.453 1_455 S
O12 C8 1.245 . S
O13 Tb0 2.343 . S
O13 Tb2 2.596 1_455 S
O13 C8 1.259 . S
O14 Tb2 2.374 . S
O14 C9 1.250 1_655 S
O15 Tb0 2.353 . S
O15 C9 1.263 . S
C16 O17 1.275 . S
C16 O18 1.246 . S
O17 Tb0 2.427 . S
O17 C16 1.275 . S
O18 Tb0 2.513 . S
O18 C16 1.246 . S
C19 O3 1.245 . S
C19 O4 1.259 . S
Tb20 O23 2.453 1_565 S
Tb20 O24 2.596 1_565 S
Tb20 O25 2.374 . S
Tb20 O33 2.343 . S
Tb20 O35 2.353 1_565 S
Tb20 O37 2.427 . S
Tb20 O38 2.513 . S
C21 O25 1.251 1_545 S
C21 O27 1.263 . S
Tb22 O24 2.343 . S
Tb22 O27 2.353 . S
Tb22 O30 2.427 . S
Tb22 O31 2.513 . S
Tb22 O32 2.453 1_545 S
Tb22 O33 2.596 1_545 S
Tb22 O34 2.374 . S
O23 Tb20 2.453 1_545 S
O23 C39 1.245 . S
O24 Tb20 2.596 1_545 S
O24 Tb22 2.343 . S
O24 C39 1.259 . S
O25 Tb20 2.374 . S
O25 C21 1.251 1_565 S
C26 O30 1.275 . S
C26 O31 1.246 . S
O27 C21 1.263 . S
O27 Tb22 2.353 . S
C28 O32 1.245 . S
C28 O33 1.259 . S
C29 O34 1.251 . S
C29 O35 1.263 . S
O30 Tb22 2.427 . S
O30 C26 1.275 . S
O31 Tb22 2.513 . S
O31 C26 1.246 . S
O32 Tb22 2.453 1_565 S
O32 C28 1.245 . S
O33 Tb20 2.343 . S
O33 Tb22 2.596 1_565 S
O33 C28 1.259 . S
O34 Tb22 2.374 . S
O34 C29 1.251 . S
O35 Tb20 2.353 1_545 S
O35 C29 1.263 . S
C36 O37 1.275 . S
C36 O38 1.246 . S
O37 Tb20 2.427 . S
O37 C36 1.275 . S
O38 Tb20 2.513 . S
O38 C36 1.246 . S
C39 O23 1.245 . S
C39 O24 1.259 . S
Tb40 O43 2.453 . S
Tb40 O44 2.596 . S
Tb40 O45 2.374 . S
Tb40 O53 2.343 . S
Tb40 O55 2.353 . S
Tb40 O57 2.427 . S
Tb40 O58 2.513 . S
C41 O45 1.251 . S
C41 O47 1.263 . S
Tb42 O44 2.343 . S
Tb42 O47 2.353 . S
Tb42 O50 2.427 . S
Tb42 O51 2.513 . S
Tb42 O52 2.453 . S
Tb42 O53 2.596 . S
Tb42 O54 2.374 . S
O43 Tb40 2.453 . S
O43 C59 1.245 . S
O44 Tb40 2.596 . S
O44 Tb42 2.343 . S
O44 C59 1.259 . S
O45 Tb40 2.374 . S
O45 C41 1.251 . S
C46 O50 1.275 . S
C46 O51 1.246 . S
O47 C41 1.263 . S
O47 Tb42 2.353 . S
C48 O52 1.245 . S
C48 O53 1.259 . S
C49 O54 1.250 . S
C49 O55 1.263 . S
O50 Tb42 2.427 . S
O50 C46 1.275 . S
O51 Tb42 2.513 . S
O51 C46 1.246 . S
O52 Tb42 2.453 . S
O52 C48 1.245 . S
O53 Tb40 2.343 . S
O53 Tb42 2.596 . S
O53 C48 1.259 . S
O54 Tb42 2.374 . S
O54 C49 1.250 . S
O55 Tb40 2.353 . S
O55 C49 1.263 . S
C56 O57 1.275 . S
C56 O58 1.246 . S
O57 Tb40 2.427 . S
O57 C56 1.275 . S
O58 Tb40 2.513 . S
O58 C56 1.246 . S
C59 O43 1.245 . S
C59 O44 1.259 . S
C60 N61 1.317 1_565 S
C60 N62 1.348 . S
C60 C63 1.485 1_565 S
N61 C60 1.317 1_545 S
N61 N65 1.370 . S
N62 C60 1.348 . S
N62 C64 1.346 . S
C63 C60 1.485 1_545 S
C63 H67 0.960 . S
C63 H68 0.961 1_545 S
C63 H69 0.960 . S
C64 N62 1.346 . S
C64 N65 1.307 1_565 S
C64 C66 1.486 . S
N65 N61 1.370 . S
N65 C64 1.307 1_545 S
C66 C64 1.486 . S
C66 H70 0.960 . S
C66 H71 0.960 . S
C66 H72 0.959 . S
H67 C63 0.960 . S
H68 C63 0.961 1_565 S
H69 C63 0.960 . S
H70 C66 0.960 . S
H71 C66 0.960 . S
H72 C66 0.959 . S
C73 N74 1.317 . S
C73 N75 1.348 . S
C73 C76 1.485 . S
N74 C73 1.317 . S
N74 N78 1.370 . S
N75 C73 1.348 . S
N75 C77 1.346 . S
C76 C73 1.485 . S
C76 H80 0.960 . S
C76 H81 0.961 . S
C76 H82 0.960 . S
C77 N75 1.346 . S
C77 N78 1.307 . S
C77 C79 1.486 . S
N78 N74 1.370 . S
N78 C77 1.307 . S
C79 C77 1.486 . S
C79 H83 0.960 . S
C79 H84 0.960 . S
C79 H85 0.959 . S
H80 C76 0.960 . S
H81 C76 0.961 . S
H82 C76 0.960 . S
H83 C79 0.960 . S
H84 C79 0.960 . S
H85 C79 0.959 . S
C86 N87 1.317 . S
C86 N88 1.348 1_455 S
C86 C89 1.485 . S
N87 C86 1.317 . S
N87 N91 1.370 . S
N88 C86 1.348 1_655 S
N88 C90 1.346 . S
C89 C86 1.485 . S
C89 H93 0.960 . S
C89 H94 0.961 . S
C89 H95 0.960 . S
C90 N88 1.346 . S
C90 N91 1.307 1_655 S
C90 C92 1.486 . S
N91 N87 1.370 . S
N91 C90 1.307 1_455 S
C92 C90 1.486 . S
C92 H96 0.960 . S
C92 H97 0.960 . S
C92 H98 0.959 1_556 S
H93 C89 0.960 . S
H94 C89 0.961 . S
H95 C89 0.960 . S
H96 C92 0.960 . S
H97 C92 0.960 . S
H98 C92 0.959 1_554 S
C99 N100 1.317 1_455 S
C99 N101 1.348 . S
C99 C102 1.485 . S
N100 C99 1.317 1_655 S
N100 N104 1.372 . S
N101 C99 1.348 . S
N101 C103 1.346 . S
C102 C99 1.485 . S
C102 H106 0.960 1_455 S
C102 H107 0.961 . S
C102 H108 0.960 1_455 S
C103 N101 1.346 . S
C103 N104 1.302 1_455 S
C103 C105 1.486 . S
N104 N100 1.372 . S
N104 C103 1.302 1_655 S
C105 C103 1.486 . S
C105 H109 0.960 . S
C105 H110 0.960 . S
C105 H111 0.959 . S
H106 C102 0.960 1_655 S
H107 C102 0.961 . S
H108 C102 0.960 1_655 S
H109 C105 0.960 . S
H110 C105 0.960 . S
H111 C105 0.959 . S
C112 N113 1.317 1_545 S
C112 N114 1.348 . S
C112 C115 1.485 . S
N113 C112 1.317 1_565 S
N113 N117 1.370 1_565 S
N114 C112 1.348 . S
N114 C116 1.346 . S
C115 C112 1.485 . S
C115 H119 0.960 1_545 S
C115 H120 0.961 . S
C115 H121 0.960 1_545 S
C116 N114 1.346 . S
C116 N117 1.307 . S
C116 C118 1.486 . S
N117 N113 1.370 1_545 S
N117 C116 1.307 . S
C118 C116 1.486 . S
C118 H122 0.960 . S
C118 H123 0.960 . S
C118 H124 0.959 . S
H119 C115 0.960 1_565 S
H120 C115 0.961 . S
H121 C115 0.960 1_565 S
H122 C118 0.960 . S
H123 C118 0.960 . S
H124 C118 0.959 . S
C125 N126 1.317 . S
C125 N127 1.348 . S
C125 C128 1.485 . S
N126 C125 1.317 . S
N126 N130 1.370 . S
N127 C125 1.348 . S
N127 C129 1.346 . S
C128 C125 1.485 . S
C128 H132 0.960 . S
C128 H133 0.961 . S
C128 H134 0.960 . S
C129 N127 1.346 . S
C129 N130 1.307 . S
C129 C131 1.486 . S
N130 N126 1.370 . S
N130 C129 1.307 . S
C131 C129 1.486 . S
C131 H135 0.960 . S
C131 H136 0.960 . S
C131 H137 0.959 1_554 S
H132 C128 0.960 . S
H133 C128 0.961 . S
H134 C128 0.960 . S
H135 C131 0.960 . S
H136 C131 0.960 . S
H137 C131 0.959 1_556 S
C8 N127 2.233 . S
C26 N100 1.305 . S
C48 N113 1.522 . S
C19 N126 2.563 . S
N101 C36 1.480 . S
N114 C59 1.728 . S
C28 N74 1.598 . S
C46 N88 0.632 . S
C16 N62 1.420 . S
N75 C39 1.741 . S
N87 C56 1.263 . S
C6 N61 1.651 . S
N91 C9 1.483 1_556 S
C21 N65 1.528 . S
C49 N78 1.530 . S
N117 C29 1.511 . S
N130 C41 1.651 1_554 S
C1 N104 1.599 . S
