# Generated by pormake.
# Topology pto, (3,4)-cn, num edge types: 1
# Building blocks:
#     Node 0, Type 0, BuildingBlock: CUQRIR_clean_linker_1, # of connection points: 3
#     Node 1, Type 0, BuildingBlock: CUQRIR_clean_linker_1, # of connection points: 3
#     Node 2, Type 0, BuildingBlock: CUQRIR_clean_linker_1, # of connection points: 3
#     Node 3, Type 0, BuildingBlock: CUQRIR_clean_linker_1, # of connection points: 3
#     Node 4, Type 0, BuildingBlock: CUQRIR_clean_linker_1, # of connection points: 3
#     Node 5, Type 0, BuildingBlock: CUQRIR_clean_linker_1, # of connection points: 3
#     Node 6, Type 0, BuildingBlock: CUQRIR_clean_linker_1, # of connection points: 3
#     Node 7, Type 0, BuildingBlock: CUQRIR_clean_linker_1, # of connection points: 3
#     Node 8, Type 1, BuildingBlock: NAWXER_clean_sbu_0, # of connection points: 4
#     Node 9, Type 1, BuildingBlock: NAWXER_clean_sbu_0, # of connection points: 4
#     Node 10, Type 1, BuildingBlock: NAWXER_clean_sbu_0, # of connection points: 4
#     Node 11, Type 1, BuildingBlock: NAWXER_clean_sbu_0, # of connection points: 4
#     Node 12, Type 1, BuildingBlock: NAWXER_clean_sbu_0, # of connection points: 4
#     Node 13, Type 1, BuildingBlock: NAWXER_clean_sbu_0, # of connection points: 4
#     Edge 14, Type (0, 1), None
#     Edge 15, Type (0, 1), None
#     Edge 16, Type (0, 1), None
#     Edge 17, Type (0, 1), None
#     Edge 18, Type (0, 1), None
#     Edge 19, Type (0, 1), None
#     Edge 20, Type (0, 1), None
#     Edge 21, Type (0, 1), None
#     Edge 22, Type (0, 1), None
#     Edge 23, Type (0, 1), None
#     Edge 24, Type (0, 1), None
#     Edge 25, Type (0, 1), None
#     Edge 26, Type (0, 1), None
#     Edge 27, Type (0, 1), None
#     Edge 28, Type (0, 1), None
#     Edge 29, Type (0, 1), None
#     Edge 30, Type (0, 1), None
#     Edge 31, Type (0, 1), None
#     Edge 32, Type (0, 1), None
#     Edge 33, Type (0, 1), None
#     Edge 34, Type (0, 1), None
#     Edge 35, Type (0, 1), None
#     Edge 36, Type (0, 1), None
#     Edge 37, Type (0, 1), None
# Relax obj value: 0.027
# Max RMSD: 0.146
# Mean RMSD: 0.073
data_MOF--net-pto--node1-NAWXER_clean_sbu_0--node2-CUQRIR_clean_linker_1--edge1-none
_symmetry_space_group_name_H-M    P1
_symmetry_Int_Tables_number       1
_symmetry_cell_setting            triclinic
loop_
_symmetry_equiv_pos_as_xyz
'x, y, z'
_cell_length_a     13.530913
_cell_length_b     13.475008
_cell_length_c     13.259375
_cell_angle_alpha  78.297124
_cell_angle_beta   95.615235
_cell_angle_gamma 96.902758
loop_
_atom_site_label
_atom_site_type_symbol
_atom_site_fract_x
_atom_site_fract_y
_atom_site_fract_z
_atom_type_partial_charge
C0 C 0.3563 0.29846 0.25586 0.0
N1 N 0.38474 0.21025 0.23998 0.0
N2 N 0.29674 0.34193 0.17518 0.0
C3 C 0.41194 0.35711 0.33357 0.0
C4 C 0.29463 0.27942 0.10751 0.0
N5 N 0.3529 0.20181 0.14277 0.0
C6 C 0.23563 0.29317 0.0055 0.0
H7 H 0.36057 0.38427 0.37908 0.0
H8 H 0.45427 0.42614 0.29115 0.0
H9 H 0.4655 0.31219 0.3869 0.0
H10 H 0.26918 0.36073 0.95266 0.0
H11 H 0.15979 0.30689 0.01938 0.0
H12 H 0.23236 0.22475 0.97017 0.0
C13 C 0.25408 0.79533 0.78041 0.0
N14 N 0.34552 0.84961 0.77822 0.0
N15 N 0.25753 0.70106 0.83592 0.0
C16 C 0.15699 0.83436 0.7322 0.0
C17 C 0.35219 0.70052 0.87873 0.0
N18 N 0.40715 0.79255 0.8467 0.0
C19 C 0.39115 0.60742 0.94943 0.0
H20 H 0.15825 0.91708 0.73135 0.0
H21 H 0.0944 0.79239 0.7764 0.0
H22 H 0.14359 0.82021 0.65212 0.0
H23 H 0.46155 0.59034 0.9234 0.0
H24 H 0.33984 0.53731 0.95283 0.0
H25 H 0.40535 0.62196 0.02928 0.0
C26 C 0.07422 0.86331 0.27559 0.0
N27 N 1.01841 0.80964 0.2081 0.0
N28 N 1.04111 0.95427 0.2733 0.0
C29 C 0.16306 0.82745 0.34607 0.0
C30 C 0.96484 0.95639 0.19762 0.0
N31 N 0.94538 0.86752 0.1603 0.0
C32 C 0.90198 0.04449 0.17054 0.0
H33 H 0.13685 0.7676 0.41128 0.0
H34 H 0.20645 0.89043 0.3783 0.0
H35 H 0.21388 0.79534 0.30326 0.0
H36 H 0.93879 0.11204 0.20048 0.0
H37 H 0.82805 1.0223 0.20272 0.0
H38 H 0.89113 0.06562 0.08604 0.0
C39 C 0.82081 0.10616 0.79688 0.0
N40 N 0.91067 0.14662 0.75862 0.0
N41 N 0.81135 0.13332 0.88814 0.0
C42 C 0.73341 0.05915 0.73515 0.0
C43 C 0.89619 0.19506 0.90187 0.0
N44 N 0.9544 0.20754 0.82104 0.0
C45 C 0.91123 0.25868 0.9863 0.0
H46 H 0.6632 0.04659 0.77422 0.0
H47 H 0.74894 0.98464 0.72057 0.0
H48 H 0.72072 0.11021 0.65915 0.0
H49 H 0.85624 0.23406 0.0454 0.0
H50 H 0.90346 0.33999 0.95215 0.0
H51 H 0.98645 0.25212 0.02684 0.0
C52 C 0.80139 0.63043 0.7548 0.0
N53 N 0.86333 0.66507 0.67712 0.0
N54 N 0.80142 0.69798 0.81689 0.0
C55 C 0.7407 0.52936 0.76905 0.0
C56 C 0.86506 0.77682 0.77429 0.0
N57 N 0.89701 0.76099 0.68592 0.0
C58 C 0.91387 0.85906 0.83087 0.0
H59 H 0.6631 0.54385 0.77477 0.0
H60 H 0.76707 0.48049 0.84221 0.0
H61 H 0.74427 0.49074 0.70325 0.0
H62 H 0.94451 0.82269 0.9085 0.0
H63 H 0.85907 0.90868 0.8432 0.0
H64 H 0.97527 0.90721 0.7899 0.0
C65 C 0.75085 0.28391 0.2797 0.0
N66 N 0.84299 0.28704 0.33064 0.0
N67 N 0.74836 0.35153 0.19115 0.0
C68 C 0.65685 0.22386 0.32068 0.0
C69 C 0.8371 0.4082 0.19512 0.0
N70 N 0.89816 0.36877 0.27881 0.0
C71 C 0.85253 0.51346 0.13048 0.0
H72 H 0.64863 0.14678 0.30118 0.0
H73 H 0.59101 0.26286 0.28415 0.0
H74 H 0.65817 0.21701 0.40569 0.0
H75 H 0.77971 0.54436 0.11349 0.0
H76 H 0.88512 0.51077 0.05755 0.0
H77 H 0.89932 0.56682 0.17272 0.0
C78 C 0.40162 0.42578 0.66981 0.0
N79 N 0.45752 0.34578 0.68309 0.0
N80 N 0.31752 0.41215 0.60752 0.0
C81 C 0.41664 0.5074 0.73551 0.0
C82 C 0.3253 0.32186 0.58064 0.0
N83 N 0.41287 0.28355 0.62252 0.0
C84 C 0.23822 0.26272 0.53009 0.0
H85 H 0.40862 0.47045 0.81732 0.0
H86 H 0.36163 0.56399 0.71467 0.0
H87 H 0.49192 0.54937 0.72759 0.0
H88 H 0.17151 0.30482 0.5105 0.0
H89 H 0.21742 0.18996 0.58328 0.0
H90 H 0.25869 0.24398 0.45782 0.0
C91 C 0.45312 0.72717 0.43378 0.0
N92 N 0.43811 0.68742 0.34533 0.0
N93 N 0.53012 0.80284 0.43108 0.0
C94 C 0.38665 0.70048 0.52239 0.0
C95 C 0.5685 0.80272 0.34119 0.0
N96 N 0.51434 0.73423 0.28774 0.0
C97 C 0.66133 0.87081 0.30673 0.0
H98 H 0.31363 0.73107 0.49863 0.0
H99 H 0.4213 0.73111 0.59072 0.0
H100 H 0.3741 0.61718 0.54501 0.0
H101 H 0.7038 0.90109 0.3716 0.0
H102 H 0.63978 0.9362 0.24634 0.0
H103 H 0.71177 0.82807 0.27456 0.0
C104 C 0.9953 0.41264 0.29667 0.0
C105 C 0.34635 0.63387 0.31858 0.0
O106 O 1.0395 0.41316 0.38643 0.0
Zn107 Zn 0.15493 0.52617 0.33356 0.0
O108 O 1.03694 0.47079 0.21991 0.0
Zn109 Zn 0.15878 0.57972 0.16201 0.0
O110 O 0.21026 0.47904 0.09112 0.0
O111 O 0.22398 0.43824 0.26023 0.0
O112 O 0.30854 0.64084 0.22494 0.0
O113 O 0.28909 0.58707 0.38908 0.0
O114 O 0.0751 0.65553 0.27692 0.0
O115 O 0.07424 0.70449 0.10993 0.0
C116 C 0.243 0.4218 0.17384 0.0
C117 C 1.04536 0.7169 0.19535 0.0
C118 C 1.01336 0.2965 0.79305 0.0
C119 C 0.19576 0.61949 0.81545 0.0
O120 O 1.05769 0.33777 0.86393 0.0
Zn121 Zn 0.09827 0.46585 0.79932 0.0
O122 O 1.00642 0.35066 0.70112 0.0
Zn123 Zn 1.07128 0.50793 0.63845 0.0
O124 O 0.16928 0.48027 0.54998 0.0
O125 O 0.20904 0.4357 0.71676 0.0
O126 O 0.16234 0.61687 0.72151 0.0
O127 O 0.17452 0.54443 0.88692 0.0
O128 O 0.97339 0.55099 0.75159 0.0
O129 O 0.96211 0.59595 0.58179 0.0
C130 C 0.22974 0.44333 0.62383 0.0
C131 C 0.93158 0.60048 0.66841 0.0
C132 C 0.36832 0.9186 0.68945 0.0
C133 C 0.38764 0.13007 0.32253 0.0
O134 O 0.29967 0.93858 0.61658 0.0
Zn135 Zn 0.35629 1.01745 0.49599 0.0
O136 O 0.45797 0.9535 0.67142 0.0
Zn137 Zn 0.52037 0.054 0.54094 0.0
O138 O 0.53958 0.18186 0.61047 0.0
O139 O 0.38579 0.14111 0.55652 0.0
O140 O 0.4643 0.12771 0.3879 0.0
O141 O 0.30707 0.07669 0.35147 0.0
O142 O 0.43646 0.91447 0.46909 0.0
O143 O 0.59793 0.94953 0.49479 0.0
C144 C 0.44769 0.19957 0.59969 0.0
C145 C 0.52322 0.88972 0.46794 0.0
C146 C 0.85237 0.84152 0.1088 0.0
C147 C 0.50198 0.81724 0.89198 0.0
O148 O 0.81162 0.74927 0.11707 0.0
Zn149 Zn 0.66068 0.68647 0.05838 0.0
O150 O 0.79754 0.91149 0.06221 0.0
Zn151 Zn 0.66152 0.85883 0.0019 0.0
O152 O 0.57844 0.80127 0.13302 0.0
O153 O 0.57118 0.63627 0.1832 0.0
O154 O 0.54513 0.90761 0.88848 0.0
O155 O 0.54457 0.74595 0.95219 0.0
O156 O 0.70515 0.61625 0.95179 0.0
O157 O 0.72926 0.78312 0.91404 0.0
C158 C 0.54428 0.72103 0.19472 0.0
C159 C 0.74415 0.69751 0.89608 0.0
C160 C 0.89985 0.84246 0.60507 0.0
C161 C 0.87132 0.20025 0.39572 0.0
O162 O 0.81894 0.86716 0.55283 0.0
Zn163 Zn 0.86598 1.01041 0.495 0.0
O164 O 0.97512 0.91072 0.60298 0.0
Zn165 Zn 1.02745 0.0648 0.5279 0.0
O166 O 1.04103 0.13515 0.65685 0.0
O167 O 0.88913 0.07266 0.61944 0.0
O168 O 0.96174 0.19023 0.42916 0.0
O169 O 0.80649 0.1227 0.41541 0.0
O170 O 0.94614 0.98758 0.38874 0.0
O171 O 0.10671 1.02364 0.41856 0.0
C172 C 0.9487 0.12063 0.676 0.0
C173 C 1.03303 0.99124 0.36104 0.0
C174 C 0.69039 0.33596 0.10492 0.0
C175 C 0.51478 0.31852 0.77291 0.0
O176 O 0.65257 0.24473 0.09859 0.0
Zn177 Zn 0.56443 0.1644 0.98588 0.0
O178 O 0.67971 0.40797 0.02801 0.0
Zn179 Zn 0.59887 0.3243 0.94499 0.0
O180 O 0.46951 0.27601 0.03002 0.0
O181 O 0.45079 0.10806 0.07232 0.0
O182 O 0.56114 0.38838 0.81425 0.0
O183 O 0.50479 0.22788 0.82776 0.0
O184 O 0.66063 0.07639 0.95768 0.0
O185 O 0.7056 0.24096 0.91337 0.0
C186 C 0.42296 0.19362 0.07784 0.0
C187 C 0.72346 0.14926 0.92012 0.0
loop_
_geom_bond_atom_site_label_1
_geom_bond_atom_site_label_2
_geom_bond_distance
_geom_bond_site_symmetry_2
_ccdc_geom_bond_type
C0 N1 1.317 . S
C0 N2 1.348 . S
C0 C3 1.485 . S
N1 C0 1.317 . S
N1 N5 1.370 . S
N2 C0 1.348 . S
N2 C4 1.346 . S
C3 C0 1.485 . S
C3 H7 0.960 . S
C3 H8 0.961 . S
C3 H9 0.960 . S
C4 N2 1.346 . S
C4 N5 1.307 . S
C4 C6 1.486 . S
N5 N1 1.370 . S
N5 C4 1.307 . S
C6 C4 1.486 . S
C6 H10 0.960 . S
C6 H11 0.960 . S
C6 H12 0.959 . S
H7 C3 0.960 . S
H8 C3 0.961 . S
H9 C3 0.960 . S
H10 C6 0.960 . S
H11 C6 0.960 . S
H12 C6 0.959 . S
C13 N14 1.317 . S
C13 N15 1.348 . S
C13 C16 1.485 . S
N14 C13 1.317 . S
N14 N18 1.370 . S
N15 C13 1.348 . S
N15 C17 1.346 . S
C16 C13 1.485 . S
C16 H20 0.960 . S
C16 H21 0.961 . S
C16 H22 0.960 . S
C17 N15 1.346 . S
C17 N18 1.307 . S
C17 C19 1.486 . S
N18 N14 1.370 . S
N18 C17 1.307 . S
C19 C17 1.486 . S
C19 H23 0.960 . S
C19 H24 0.960 . S
C19 H25 0.959 . S
H20 C16 0.960 . S
H21 C16 0.961 . S
H22 C16 0.960 . S
H23 C19 0.960 . S
H24 C19 0.960 . S
H25 C19 0.959 . S
C26 N27 1.317 . S
C26 N28 1.348 . S
C26 C29 1.485 1_655 S
N27 C26 1.317 . S
N27 N31 1.370 . S
N28 C26 1.348 . S
N28 C30 1.346 . S
C29 C26 1.485 1_455 S
C29 H33 0.960 . S
C29 H34 0.961 . S
C29 H35 0.960 . S
C30 N28 1.346 . S
C30 N31 1.307 . S
C30 C32 1.486 . S
N31 N27 1.370 . S
N31 C30 1.307 . S
C32 C30 1.486 . S
C32 H36 0.960 . S
C32 H37 0.960 . S
C32 H38 0.959 . S
H33 C29 0.960 . S
H34 C29 0.961 . S
H35 C29 0.960 . S
H36 C32 0.960 . S
H37 C32 0.960 . S
H38 C32 0.959 . S
C39 N40 1.317 . S
C39 N41 1.348 . S
C39 C42 1.485 . S
N40 C39 1.317 . S
N40 N44 1.370 . S
N41 C39 1.348 . S
N41 C43 1.346 . S
C42 C39 1.485 . S
C42 H46 0.960 . S
C42 H47 0.961 . S
C42 H48 0.960 . S
C43 N41 1.346 . S
C43 N44 1.307 . S
C43 C45 1.486 . S
N44 N40 1.370 . S
N44 C43 1.307 . S
C45 C43 1.486 . S
C45 H49 0.960 . S
C45 H50 0.960 . S
C45 H51 0.959 . S
H46 C42 0.960 . S
H47 C42 0.961 . S
H48 C42 0.960 . S
H49 C45 0.960 . S
H50 C45 0.960 . S
H51 C45 0.959 . S
C52 N53 1.317 . S
C52 N54 1.348 . S
C52 C55 1.485 . S
N53 C52 1.317 . S
N53 N57 1.370 . S
N54 C52 1.348 . S
N54 C56 1.346 . S
C55 C52 1.485 . S
C55 H59 0.960 . S
C55 H60 0.961 . S
C55 H61 0.960 . S
C56 N54 1.346 . S
C56 N57 1.307 . S
C56 C58 1.486 . S
N57 N53 1.370 . S
N57 C56 1.307 . S
C58 C56 1.486 . S
C58 H62 0.960 . S
C58 H63 0.960 . S
C58 H64 0.959 . S
H59 C55 0.960 . S
H60 C55 0.961 . S
H61 C55 0.960 . S
H62 C58 0.960 . S
H63 C58 0.960 . S
H64 C58 0.959 . S
C65 N66 1.317 . S
C65 N67 1.348 . S
C65 C68 1.485 . S
N66 C65 1.317 . S
N66 N70 1.370 . S
N67 C65 1.348 . S
N67 C69 1.346 . S
C68 C65 1.485 . S
C68 H72 0.960 . S
C68 H73 0.961 . S
C68 H74 0.960 . S
C69 N67 1.346 . S
C69 N70 1.307 . S
C69 C71 1.486 . S
N70 N66 1.370 . S
N70 C69 1.307 . S
C71 C69 1.486 . S
C71 H75 0.960 . S
C71 H76 0.960 . S
C71 H77 0.959 . S
H72 C68 0.960 . S
H73 C68 0.961 . S
H74 C68 0.960 . S
H75 C71 0.960 . S
H76 C71 0.960 . S
H77 C71 0.959 . S
C78 N79 1.317 . S
C78 N80 1.348 . S
C78 C81 1.485 . S
N79 C78 1.317 . S
N79 N83 1.370 . S
N80 C78 1.348 . S
N80 C82 1.346 . S
C81 C78 1.485 . S
C81 H85 0.960 . S
C81 H86 0.961 . S
C81 H87 0.960 . S
C82 N80 1.346 . S
C82 N83 1.307 . S
C82 C84 1.486 . S
N83 N79 1.370 . S
N83 C82 1.307 . S
C84 C82 1.486 . S
C84 H88 0.960 . S
C84 H89 0.960 . S
C84 H90 0.959 . S
H85 C81 0.960 . S
H86 C81 0.961 . S
H87 C81 0.960 . S
H88 C84 0.960 . S
H89 C84 0.960 . S
H90 C84 0.959 . S
C91 N92 1.317 . S
C91 N93 1.348 . S
C91 C94 1.485 . S
N92 C91 1.317 . S
N92 N96 1.370 . S
N93 C91 1.348 . S
N93 C95 1.346 . S
C94 C91 1.485 . S
C94 H98 0.960 . S
C94 H99 0.961 . S
C94 H100 0.960 . S
C95 N93 1.346 . S
C95 N96 1.307 . S
C95 C97 1.486 . S
N96 N92 1.370 . S
N96 C95 1.307 . S
C97 C95 1.486 . S
C97 H101 0.960 . S
C97 H102 0.960 . S
C97 H103 0.959 . S
H98 C94 0.960 . S
H99 C94 0.961 . S
H100 C94 0.960 . S
H101 C97 0.960 . S
H102 C97 0.960 . S
H103 C97 0.959 . S
C104 O106 1.247 . S
C104 O108 1.258 . S
C105 O112 1.247 . S
C105 O113 1.258 . S
O106 C104 1.247 . S
O106 Zn107 2.028 1_655 S
Zn107 O106 2.028 1_455 S
Zn107 O111 2.035 . S
Zn107 O113 2.035 . S
Zn107 O114 2.028 1_455 S
O108 C104 1.258 . S
O108 Zn109 2.035 1_655 S
Zn109 O108 2.035 1_455 S
Zn109 O110 2.028 . S
Zn109 O112 2.028 . S
Zn109 O115 2.035 1_455 S
O110 Zn109 2.028 . S
O110 C116 1.247 . S
O111 Zn107 2.035 . S
O111 C116 1.258 . S
O112 C105 1.247 . S
O112 Zn109 2.028 . S
O113 C105 1.258 . S
O113 Zn107 2.035 . S
O114 Zn107 2.028 1_655 S
O114 C117 1.247 . S
O115 Zn109 2.035 1_655 S
O115 C117 1.258 . S
C116 O110 1.247 . S
C116 O111 1.258 . S
C117 O114 1.247 . S
C117 O115 1.258 . S
C118 O120 1.247 . S
C118 O122 1.258 . S
C119 O126 1.247 . S
C119 O127 1.258 . S
O120 C118 1.247 . S
O120 Zn121 2.028 1_655 S
Zn121 O120 2.028 1_455 S
Zn121 O125 2.035 . S
Zn121 O127 2.035 . S
Zn121 O128 2.028 1_455 S
O122 C118 1.258 . S
O122 Zn123 2.035 1_655 S
Zn123 O122 2.035 1_455 S
Zn123 O124 2.028 . S
Zn123 O126 2.028 . S
Zn123 O129 2.035 1_455 S
O124 Zn123 2.028 . S
O124 C130 1.247 . S
O125 Zn121 2.035 . S
O125 C130 1.258 . S
O126 C119 1.247 . S
O126 Zn123 2.028 . S
O127 C119 1.258 . S
O127 Zn121 2.035 . S
O128 Zn121 2.028 1_655 S
O128 C131 1.247 . S
O129 Zn123 2.035 1_655 S
O129 C131 1.258 . S
C130 O124 1.247 . S
C130 O125 1.258 . S
C131 O128 1.247 . S
C131 O129 1.258 . S
C132 O134 1.247 . S
C132 O136 1.258 . S
C133 O140 1.247 . S
C133 O141 1.258 . S
O134 C132 1.247 . S
O134 Zn135 2.028 1_565 S
Zn135 O134 2.028 1_545 S
Zn135 O139 2.035 . S
Zn135 O141 2.035 . S
Zn135 O142 2.028 1_545 S
O136 C132 1.258 . S
O136 Zn137 2.035 1_565 S
Zn137 O136 2.035 1_545 S
Zn137 O138 2.028 . S
Zn137 O140 2.028 . S
Zn137 O143 2.035 1_545 S
O138 Zn137 2.028 . S
O138 C144 1.247 . S
O139 Zn135 2.035 . S
O139 C144 1.258 . S
O140 C133 1.247 . S
O140 Zn137 2.028 . S
O141 C133 1.258 . S
O141 Zn135 2.035 . S
O142 Zn135 2.028 1_565 S
O142 C145 1.247 . S
O143 Zn137 2.035 1_565 S
O143 C145 1.258 . S
C144 O138 1.247 . S
C144 O139 1.258 . S
C145 O142 1.247 . S
C145 O143 1.258 . S
C146 O148 1.247 . S
C146 O150 1.258 . S
C147 O154 1.247 . S
C147 O155 1.258 . S
O148 C146 1.247 . S
O148 Zn149 2.028 . S
Zn149 O148 2.028 . S
Zn149 O153 2.035 . S
Zn149 O155 2.035 1_554 S
Zn149 O156 2.028 1_554 S
O150 C146 1.258 . S
O150 Zn151 2.035 . S
Zn151 O150 2.035 . S
Zn151 O152 2.028 . S
Zn151 O154 2.028 1_554 S
Zn151 O157 2.035 1_554 S
O152 Zn151 2.028 . S
O152 C158 1.247 . S
O153 Zn149 2.035 . S
O153 C158 1.258 . S
O154 C147 1.247 . S
O154 Zn151 2.028 1_556 S
O155 C147 1.258 . S
O155 Zn149 2.035 1_556 S
O156 Zn149 2.028 1_556 S
O156 C159 1.247 . S
O157 Zn151 2.035 1_556 S
O157 C159 1.258 . S
C158 O152 1.247 . S
C158 O153 1.258 . S
C159 O156 1.247 . S
C159 O157 1.258 . S
C160 O162 1.247 . S
C160 O164 1.258 . S
C161 O168 1.247 . S
C161 O169 1.258 . S
O162 C160 1.247 . S
O162 Zn163 2.028 1_565 S
Zn163 O162 2.028 1_545 S
Zn163 O167 2.035 . S
Zn163 O169 2.035 . S
Zn163 O170 2.028 1_545 S
O164 C160 1.258 . S
O164 Zn165 2.035 1_665 S
Zn165 O164 2.035 1_445 S
Zn165 O166 2.028 1_455 S
Zn165 O168 2.028 1_455 S
Zn165 O171 2.035 1_545 S
O166 Zn165 2.028 1_655 S
O166 C172 1.247 . S
O167 Zn163 2.035 . S
O167 C172 1.258 . S
O168 C161 1.247 . S
O168 Zn165 2.028 1_655 S
O169 C161 1.258 . S
O169 Zn163 2.035 . S
O170 Zn163 2.028 1_565 S
O170 C173 1.247 . S
O171 Zn165 2.035 1_565 S
O171 C173 1.258 1_455 S
C172 O166 1.247 . S
C172 O167 1.258 . S
C173 O170 1.247 . S
C173 O171 1.258 1_655 S
C174 O176 1.247 . S
C174 O178 1.258 . S
C175 O182 1.247 . S
C175 O183 1.258 . S
O176 C174 1.247 . S
O176 Zn177 2.028 . S
Zn177 O176 2.028 . S
Zn177 O181 2.035 . S
Zn177 O183 2.035 1_554 S
Zn177 O184 2.028 1_554 S
O178 C174 1.258 . S
O178 Zn179 2.035 1_554 S
Zn179 O178 2.035 1_556 S
Zn179 O180 2.028 1_556 S
Zn179 O182 2.028 . S
Zn179 O185 2.035 . S
O180 Zn179 2.028 1_554 S
O180 C186 1.247 . S
O181 Zn177 2.035 . S
O181 C186 1.258 . S
O182 C175 1.247 . S
O182 Zn179 2.028 . S
O183 C175 1.258 . S
O183 Zn177 2.035 1_556 S
O184 Zn177 2.028 1_556 S
O184 C187 1.247 . S
O185 Zn179 2.035 . S
O185 C187 1.258 . S
C186 O180 1.247 . S
C186 O181 1.258 . S
C187 O184 1.247 . S
C187 O185 1.258 . S
C116 N2 1.468 . S
C119 N15 1.612 . S
C117 N27 1.714 . S
C118 N44 1.614 . S
C133 N1 1.842 . S
C147 N18 1.744 . S
N28 C173 1.796 . S
C187 N41 1.537 . S
C132 N14 1.782 . S
N31 C146 1.891 . S
C172 N40 1.988 . S
C186 N5 1.682 . S
N53 C131 1.768 . S
C104 N70 1.727 . S
N80 C130 1.557 . S
N92 C105 1.902 . S
C160 N57 1.945 . S
C174 N67 1.587 . S
C144 N83 1.949 . S
N96 C158 1.761 . S
C161 N66 1.868 . S
C175 N79 1.555 . S
C145 N93 1.784 . S
N54 C159 1.499 . S
