# Generated by pormake.
# Topology tsx, (6,3)-cn, num edge types: 1
# Building blocks:
#     Node 0, Type 0, BuildingBlock: JUFBIX_clean_sbu_0, # of connection points: 6
#     Node 1, Type 0, BuildingBlock: JUFBIX_clean_sbu_0, # of connection points: 6
#     Node 2, Type 1, BuildingBlock: CUQRIR_clean_linker_1, # of connection points: 3
#     Node 3, Type 1, BuildingBlock: CUQRIR_clean_linker_1, # of connection points: 3
#     Node 4, Type 1, BuildingBlock: CUQRIR_clean_linker_1, # of connection points: 3
#     Node 5, Type 1, BuildingBlock: CUQRIR_clean_linker_1, # of connection points: 3
#     Edge 6, Type (0, 1), BuildingBlock: OJICUG_clean_linker_0, # of connection points: 2
#     Edge 7, Type (0, 1), BuildingBlock: OJICUG_clean_linker_0, # of connection points: 2
#     Edge 8, Type (0, 1), BuildingBlock: OJICUG_clean_linker_0, # of connection points: 2
#     Edge 9, Type (0, 1), BuildingBlock: OJICUG_clean_linker_0, # of connection points: 2
#     Edge 10, Type (0, 1), BuildingBlock: OJICUG_clean_linker_0, # of connection points: 2
#     Edge 11, Type (0, 1), BuildingBlock: OJICUG_clean_linker_0, # of connection points: 2
#     Edge 12, Type (0, 1), BuildingBlock: OJICUG_clean_linker_0, # of connection points: 2
#     Edge 13, Type (0, 1), BuildingBlock: OJICUG_clean_linker_0, # of connection points: 2
#     Edge 14, Type (0, 1), BuildingBlock: OJICUG_clean_linker_0, # of connection points: 2
#     Edge 15, Type (0, 1), BuildingBlock: OJICUG_clean_linker_0, # of connection points: 2
#     Edge 16, Type (0, 1), BuildingBlock: OJICUG_clean_linker_0, # of connection points: 2
#     Edge 17, Type (0, 1), BuildingBlock: OJICUG_clean_linker_0, # of connection points: 2
# Relax obj value: 0.137
# Max RMSD: 0.164
# Mean RMSD: 0.148
data_MOF--net-tsx--node1-JUFBIX_clean_sbu_0--node2-CUQRIR_clean_linker_1--edge1-OJICUG_clean_linker_0
_symmetry_space_group_name_H-M    P1
_symmetry_Int_Tables_number       1
_symmetry_cell_setting            triclinic
loop_
_symmetry_equiv_pos_as_xyz
'x, y, z'
_cell_length_a     12.49993
_cell_length_b     15.745663
_cell_length_c     23.846118
_cell_angle_alpha  77.593432
_cell_angle_beta   88.910186
_cell_angle_gamma 103.47945
loop_
_atom_site_label
_atom_site_type_symbol
_atom_site_fract_x
_atom_site_fract_y
_atom_site_fract_z
_atom_type_partial_charge
Co0 Co 0.14418 1.00372 -0.02836 0.0
C1 C 0.08636 0.05053 0.85983 0.0
Co2 Co 1.01329 0.0796 -0.03665 0.0
C3 C 0.29643 0.90204 0.94193 0.0
C4 C 0.34595 0.96506 0.01134 0.0
N5 N 0.26179 0.94823 -0.02264 0.0
N6 N 0.39913 0.89106 0.95192 0.0
C7 C 0.43011 0.9301 -0.00413 0.0
H8 H 0.2503 0.88187 0.90706 0.0
H9 H 0.34924 1.00538 0.04299 0.0
C10 C 1.07406 1.02847 0.07439 0.0
N11 N 0.90135 0.14263 -0.04353 0.0
C12 C 0.90401 0.22503 0.92348 0.0
C13 C 0.80011 0.11553 -0.01569 0.0
N14 N 0.80857 0.25019 0.92955 0.0
C15 C 0.74309 0.18093 -0.0322 0.0
C16 C 0.93291 0.89355 -0.01066 0.0
O17 O 0.14052 0.99674 0.04955 0.0
O18 O 1.00869 0.06875 0.04515 0.0
O19 O 0.90756 0.96875 -0.02427 0.0
O20 O 1.03455 0.89128 -0.01342 0.0
O21 O 1.02066 0.08782 0.88158 0.0
H22 H 0.76987 0.05259 0.01524 0.0
H23 H 0.97463 0.26563 0.89522 0.0
O24 O 0.14696 1.01052 0.89231 0.0
O25 O 0.24988 0.116 -0.03982 0.0
O26 O 0.11995 0.18884 0.95406 0.0
C27 C 0.22114 0.189 -0.0429 0.0
H28 H 0.50899 0.93495 0.01455 0.0
H29 H 0.66058 0.1784 -0.01609 0.0
Co30 Co 0.63319 0.49554 0.47368 0.0
C31 C 0.57717 0.54392 0.36143 0.0
Co32 Co 0.5028 0.57163 0.46533 0.0
C33 C 0.78451 0.39342 0.44423 0.0
C34 C 0.83506 0.45729 0.51317 0.0
N35 N 0.75056 0.44019 0.47944 0.0
N36 N 0.88716 0.38236 0.4541 0.0
C37 C 0.91881 0.4219 0.49776 0.0
H38 H 0.73795 0.37294 0.40957 0.0
H39 H 0.83887 0.49811 0.54453 0.0
C40 C 0.56395 0.5208 0.57662 0.0
N41 N 0.39067 0.63421 0.45865 0.0
C42 C 0.39315 0.71663 0.42582 0.0
C43 C 0.28949 0.60685 0.48657 0.0
N44 N 0.29767 0.74158 0.43208 0.0
C45 C 0.23229 0.67216 0.47025 0.0
C46 C 0.42247 0.38554 0.49084 0.0
O47 O 0.62909 0.48788 0.55177 0.0
O48 O 0.49859 0.56107 0.54734 0.0
O49 O 0.39724 0.46079 0.47761 0.0
O50 O 0.52402 0.38319 0.48801 0.0
O51 O 0.51047 0.58031 0.38326 0.0
H52 H 0.25944 0.54381 0.51743 0.0
H53 H 0.46367 0.75742 0.39756 0.0
O54 O 0.63703 0.50335 0.3941 0.0
O55 O 0.73869 0.60773 0.46282 0.0
O56 O 0.60894 0.68076 0.45608 0.0
C57 C 0.70996 0.68074 0.45961 0.0
H58 H 0.99789 0.42685 0.51622 0.0
H59 H 0.14978 0.66949 0.48644 0.0
C60 C 0.19274 0.14114 0.36677 0.0
N61 N 0.18843 0.07517 0.33792 0.0
N62 N 0.13892 0.20282 0.33986 0.0
C63 C 0.25151 0.14564 0.42053 0.0
C64 C 0.1065 0.17343 0.29241 0.0
N65 N 0.13188 0.09476 0.29246 0.0
C66 C 1.05302 0.22482 0.24483 0.0
H67 H 0.34134 0.15716 0.41018 0.0
H68 H 0.22478 0.08083 0.45248 0.0
H69 H 0.23757 0.20116 0.43874 0.0
H70 H 0.0859 0.22093 0.20213 0.0
H71 H 1.06792 0.29626 0.24712 0.0
H72 H 0.96271 0.19554 0.24901 0.0
C73 C 1.01575 1.03305 0.54032 0.0
N74 N 1.07413 0.07201 0.5792 0.0
N75 N 0.96822 0.94606 0.56318 0.0
C76 C 0.99804 0.08031 0.48126 0.0
C77 C 0.9969 0.93319 0.61816 0.0
N78 N 1.06157 1.00994 0.62788 0.0
C79 C 0.95409 0.84831 0.66341 0.0
H80 H 0.91071 0.08417 0.47963 0.0
H81 H 1.01414 0.04201 0.44935 0.0
H82 H 1.0499 0.14905 0.4706 0.0
H83 H 0.88672 0.80104 0.64815 0.0
H84 H 0.92336 0.86397 0.70304 0.0
H85 H 1.02265 0.81543 0.6747 0.0
C86 C 0.70511 0.65025 0.86412 0.0
N87 N 0.69956 0.58409 0.83525 0.0
N88 N 0.65257 0.71285 0.83717 0.0
C89 C 0.76342 0.65385 0.91813 0.0
C90 C 0.62007 0.68393 0.78954 0.0
N91 N 0.64359 0.60456 0.78965 0.0
C92 C 0.56797 0.73632 0.74182 0.0
H93 H 0.73577 0.58896 0.94993 0.0
H94 H 0.75016 0.70946 0.93649 0.0
H95 H 0.85322 0.66466 0.90801 0.0
H96 H 0.59868 0.73027 0.69922 0.0
H97 H 0.58661 0.8082 0.74342 0.0
H98 H 0.47716 0.70976 0.74662 0.0
C99 C 0.5274 0.54232 0.03827 0.0
N100 N 0.58417 0.58032 0.07804 0.0
N101 N 0.48058 0.45483 0.05999 0.0
C102 C 0.51024 0.59105 -0.02053 0.0
C103 C 0.50791 0.44065 0.1152 0.0
N104 N 0.57114 0.51705 0.12621 0.0
C105 C 0.46487 0.35469 0.15952 0.0
H106 H 0.52534 0.55326 0.94707 0.0
H107 H 0.56299 0.65952 -0.03082 0.0
H108 H 0.42323 0.59589 -0.02189 0.0
H109 H 0.53388 0.32252 0.17123 0.0
H110 H 0.39916 0.30742 0.14324 0.0
H111 H 0.4318 0.36884 0.19914 0.0
C112 C 0.2596 0.34102 -0.0212 0.0
C113 C 0.29791 0.26609 -0.02753 0.0
H114 H 0.28667 0.45813 0.0139 0.0
C115 C 0.40126 0.25782 -0.00773 0.0
H116 H 0.18012 0.34923 -0.03549 0.0
C117 C 0.46153 0.32025 0.02074 0.0
C118 C 0.41976 0.39186 0.02968 0.0
H119 H 0.43302 0.20073 -0.01152 0.0
H120 H 0.53977 0.31194 0.03682 0.0
C121 C 0.31985 0.40305 0.00738 0.0
C122 C 0.41258 0.77771 0.89734 0.0
C123 C 0.46429 0.84992 0.92052 0.0
H124 H 0.43276 0.6768 0.85393 0.0
C125 C 0.58027 0.88004 0.91344 0.0
H126 H 0.3238 0.75271 0.90234 0.0
C127 C 0.64342 0.83624 0.88557 0.0
C128 C 0.59114 0.76204 0.86425 0.0
H129 H 0.62195 0.93758 0.92932 0.0
H130 H 0.73242 0.85967 0.88098 0.0
C131 C 0.47509 0.73453 0.8695 0.0
C132 C 0.8676 0.72804 0.035 0.0
C133 C 0.84444 0.81225 0.01535 0.0
H134 H 0.80086 0.58758 0.07168 0.0
C135 C 0.73554 0.81996 0.02448 0.0
H136 H 0.95069 0.71988 0.03013 0.0
C137 C 0.65069 0.74466 0.04845 0.0
C138 C 0.67299 0.66011 0.06479 0.0
H139 H 0.7152 0.88422 0.01236 0.0
H140 H 0.56681 0.75162 0.05213 0.0
C141 C 0.78248 0.6527 0.05958 0.0
C142 C 0.67202 0.33791 0.89407 0.0
C143 C 0.78222 0.33411 0.90281 0.0
H144 H 0.56006 0.42069 0.86523 0.0
C145 C 0.86528 0.41434 0.88665 0.0
H146 H 0.60595 0.27768 0.90536 0.0
C147 C 0.83846 0.49614 0.86369 0.0
C148 C 0.72836 0.49945 0.8557 0.0
H149 H 0.95072 0.41435 0.89316 0.0
H150 H 0.90355 0.55708 0.85245 0.0
C151 C 0.64558 0.4195 0.87061 0.0
C152 C 0.74707 0.83174 0.48253 0.0
C153 C 0.78608 0.75738 0.47568 0.0
H154 H 0.77329 0.94818 0.51825 0.0
C155 C 0.88929 0.74903 0.49562 0.0
H156 H 0.66759 0.83992 0.4682 0.0
C157 C 0.94902 0.81108 0.52449 0.0
C158 C 0.90676 0.88229 0.5337 0.0
H159 H 0.92147 0.69229 0.49148 0.0
H160 H 1.02745 0.80303 0.54043 0.0
C161 C 0.80671 0.89331 0.51155 0.0
C162 C 0.89966 0.26832 0.40002 0.0
C163 C 0.95179 0.34092 0.42271 0.0
H164 H 0.91928 0.16686 0.35697 0.0
C165 C 1.06768 0.37125 0.41515 0.0
H166 H 0.8109 0.24326 0.40537 0.0
C167 C 0.13045 0.32708 0.38742 0.0
C168 C 0.07783 0.25243 0.36668 0.0
H169 H 0.10956 0.42917 0.4306 0.0
H170 H 0.21944 0.35057 0.3825 0.0
C171 C 0.9618 0.22487 0.37221 0.0
C172 C 0.22484 0.31169 0.52497 0.0
C173 C 0.33399 0.30419 0.51645 0.0
H174 H 1.05595 0.24304 0.55195 0.0
C175 C 0.35737 0.22014 0.53639 0.0
H176 H 0.20438 0.37589 0.51269 0.0
C177 C 0.27226 0.14472 0.56073 0.0
C178 C 0.1626 0.15191 0.56522 0.0
H179 H 0.44066 0.21219 0.53204 0.0
H180 H 0.29085 0.07974 0.5733 0.0
C181 C 0.13996 0.23628 0.54858 0.0
C182 C 0.35429 0.90582 0.38978 0.0
C183 C 0.27129 0.8255 0.40555 0.0
H184 H 0.39248 0.04862 0.35587 0.0
C185 C 0.16116 0.82914 0.39655 0.0
H186 H 0.43967 0.90587 0.39654 0.0
C187 C 0.13475 0.91069 0.37309 0.0
C188 C 0.21745 0.99072 0.35854 0.0
H189 H 0.09519 0.76881 0.40759 0.0
H190 H 1.04928 0.9118 0.36741 0.0
C191 C 0.32748 0.9876 0.36687 0.0
C192 C 0.1855 1.02817 0.15882 0.0
C193 C 0.08217 1.02475 0.13579 0.0
H194 H 0.28195 0.05286 0.22944 0.0
C195 C 0.99042 1.02199 0.1712 0.0
H196 H 0.25736 1.02915 0.13235 0.0
C197 C 1.00428 1.03099 0.22761 0.0
C198 C 0.11047 0.04726 0.24765 0.0
H199 H 0.90962 1.01682 0.15461 0.0
H200 H 0.93437 0.03482 0.25364 0.0
C201 C 0.19968 0.04003 0.21451 0.0
C202 C 1.03386 0.09938 0.75887 0.0
C203 C 0.08928 0.04804 0.79816 0.0
H204 H 0.98417 0.12805 0.67246 0.0
C205 C 0.14458 0.9902 0.77858 0.0
H206 H 0.99107 0.14473 0.77251 0.0
C207 C 0.13983 0.98054 0.7218 0.0
C208 C 0.08123 1.02938 0.6834 0.0
H209 H 0.18843 0.94978 0.80761 0.0
H210 H 0.17907 0.93313 0.70816 0.0
C211 C 1.03061 0.09048 0.70175 0.0
C212 C 0.68079 0.52328 0.65911 0.0
C213 C 0.57636 0.5211 0.63746 0.0
H214 H 0.78408 0.5521 0.72665 0.0
C215 C 0.48882 0.52564 0.67316 0.0
H216 H 0.74964 0.51899 0.63251 0.0
C217 C 0.5082 0.54021 0.72808 0.0
C218 C 0.61596 0.5547 0.7463 0.0
H219 H 0.40722 0.52194 0.65779 0.0
H220 H 0.44152 0.54892 0.75422 0.0
C221 C 0.70066 0.54079 0.71317 0.0
C222 C 0.52986 0.59706 0.25972 0.0
C223 C 0.58417 0.54484 0.29916 0.0
H224 H 0.4861 0.63014 0.17235 0.0
C225 C 0.64401 0.49047 0.27887 0.0
H226 H 0.48379 0.63997 0.27384 0.0
C227 C 0.64485 0.48494 0.2212 0.0
C228 C 0.58728 0.53447 0.18254 0.0
H229 H 0.68738 0.4496 0.30791 0.0
H230 H 0.6873 0.43982 0.20704 0.0
C231 C 0.53208 0.59225 0.20175 0.0
loop_
_geom_bond_atom_site_label_1
_geom_bond_atom_site_label_2
_geom_bond_distance
_geom_bond_site_symmetry_2
_ccdc_geom_bond_type
Co0 N5 2.057 1_554 S
Co0 O17 2.021 . S
Co0 O20 2.062 1_455 S
Co0 O24 2.117 1_564 S
Co0 O25 2.020 1_565 S
C1 O21 1.259 1_455 S
C1 O24 1.258 . S
Co2 N11 2.057 1_556 S
Co2 O18 2.117 1_556 S
Co2 O19 2.020 1_546 S
Co2 O21 2.021 . S
Co2 O26 2.062 1_655 S
C3 N5 1.316 1_554 S
C3 N6 1.347 . S
C3 H8 0.931 . S
C4 N5 1.375 . S
C4 C7 1.350 . S
C4 H9 0.930 . S
N5 Co0 2.057 1_556 S
N5 C3 1.316 1_556 S
N5 C4 1.375 . S
N6 C3 1.347 . S
N6 C7 1.373 1_554 S
C7 C4 1.350 . S
C7 N6 1.373 1_556 S
C7 H28 0.931 . S
H8 C3 0.931 . S
H9 C4 0.930 . S
C10 O17 1.259 1_545 S
C10 O18 1.258 1_455 S
N11 Co2 2.057 1_554 S
N11 C12 1.316 1_554 S
N11 C13 1.375 . S
C12 N11 1.316 1_556 S
C12 N14 1.347 1_556 S
C12 H23 0.931 . S
C13 N11 1.375 . S
C13 C15 1.350 . S
C13 H22 0.930 . S
N14 C12 1.347 1_554 S
N14 C15 1.373 . S
C15 C13 1.350 . S
C15 N14 1.373 . S
C15 H29 0.931 . S
C16 O19 1.256 . S
C16 O20 1.255 . S
O17 Co0 2.021 . S
O17 C10 1.259 1_565 S
O18 Co2 2.117 1_554 S
O18 C10 1.258 1_655 S
O19 Co2 2.020 1_564 S
O19 C16 1.256 . S
O20 Co0 2.062 1_655 S
O20 C16 1.255 . S
O21 C1 1.259 1_655 S
O21 Co2 2.021 . S
H22 C13 0.930 . S
H23 C12 0.931 . S
O24 Co0 2.117 1_546 S
O24 C1 1.258 . S
O25 Co0 2.020 1_545 S
O25 C27 1.256 1_554 S
O26 Co2 2.062 1_455 S
O26 C27 1.255 . S
C27 O25 1.256 1_556 S
C27 O26 1.255 . S
H28 C7 0.931 . S
H29 C15 0.931 . S
Co30 N35 2.057 . S
Co30 O47 2.021 . S
Co30 O50 2.062 . S
Co30 O54 2.117 . S
Co30 O55 2.020 . S
C31 O51 1.259 . S
C31 O54 1.258 . S
Co32 N41 2.057 . S
Co32 O48 2.117 . S
Co32 O49 2.020 . S
Co32 O51 2.021 . S
Co32 O56 2.062 . S
C33 N35 1.316 . S
C33 N36 1.347 . S
C33 H38 0.931 . S
C34 N35 1.375 . S
C34 C37 1.350 . S
C34 H39 0.930 . S
N35 Co30 2.057 . S
N35 C33 1.316 . S
N35 C34 1.375 . S
N36 C33 1.347 . S
N36 C37 1.373 . S
C37 C34 1.350 . S
C37 N36 1.373 . S
C37 H58 0.931 . S
H38 C33 0.931 . S
H39 C34 0.930 . S
C40 O47 1.259 . S
C40 O48 1.258 . S
N41 Co32 2.057 . S
N41 C42 1.316 . S
N41 C43 1.375 . S
C42 N41 1.316 . S
C42 N44 1.347 . S
C42 H53 0.931 . S
C43 N41 1.375 . S
C43 C45 1.350 . S
C43 H52 0.930 . S
N44 C42 1.347 . S
N44 C45 1.373 . S
C45 C43 1.350 . S
C45 N44 1.373 . S
C45 H59 0.931 . S
C46 O49 1.256 . S
C46 O50 1.255 . S
O47 Co30 2.021 . S
O47 C40 1.259 . S
O48 Co32 2.117 . S
O48 C40 1.258 . S
O49 Co32 2.020 . S
O49 C46 1.256 . S
O50 Co30 2.062 . S
O50 C46 1.255 . S
O51 C31 1.259 . S
O51 Co32 2.021 . S
H52 C43 0.930 . S
H53 C42 0.931 . S
O54 Co30 2.117 . S
O54 C31 1.258 . S
O55 Co30 2.020 . S
O55 C57 1.256 . S
O56 Co32 2.062 . S
O56 C57 1.255 . S
C57 O55 1.256 . S
C57 O56 1.255 . S
H58 C37 0.931 . S
H59 C45 0.931 . S
C60 N61 1.317 1_545 S
C60 N62 1.348 1_455 S
C60 C63 1.485 1_545 S
N61 C60 1.317 1_565 S
N61 N65 1.375 . S
N62 C60 1.348 1_655 S
N62 C64 1.346 . S
C63 C60 1.485 1_565 S
C63 H67 0.960 1_455 S
C63 H68 0.961 1_565 S
C63 H69 0.960 . S
C64 N62 1.346 . S
C64 N65 1.295 1_645 S
C64 C66 1.486 . S
N65 N61 1.375 . S
N65 C64 1.295 1_465 S
C66 C64 1.486 . S
C66 H70 0.960 . S
C66 H71 0.960 . S
C66 H72 0.959 . S
H67 C63 0.960 1_655 S
H68 C63 0.961 1_545 S
H69 C63 0.960 . S
H70 C66 0.960 . S
H71 C66 0.960 . S
H72 C66 0.959 . S
C73 N74 1.317 . S
C73 N75 1.348 1_445 S
C73 C76 1.485 . S
N74 C73 1.317 . S
N74 N78 1.370 . S
N75 C73 1.348 1_665 S
N75 C77 1.346 . S
C76 C73 1.485 . S
C76 H80 0.957 1_455 S
C76 H81 0.961 . S
C76 H82 0.960 . S
C77 N75 1.346 . S
C77 N78 1.307 1_665 S
C77 C79 1.486 . S
N78 N74 1.370 . S
N78 C77 1.307 1_445 S
C79 C77 1.486 . S
C79 H83 0.960 . S
C79 H84 0.960 . S
C79 H85 0.959 . S
H80 C76 0.957 1_655 S
H81 C76 0.961 . S
H82 C76 0.960 . S
H83 C79 0.960 . S
H84 C79 0.960 . S
H85 C79 0.959 . S
C86 N87 1.317 . S
C86 N88 1.348 . S
C86 C89 1.485 1_556 S
N87 C86 1.317 . S
N87 N91 1.370 . S
N88 C86 1.348 . S
N88 C90 1.346 . S
C89 C86 1.485 1_554 S
C89 H93 0.960 . S
C89 H94 0.961 . S
C89 H95 0.960 . S
C90 N88 1.346 . S
C90 N91 1.307 . S
C90 C92 1.486 . S
N91 N87 1.370 . S
N91 C90 1.307 . S
C92 C90 1.486 . S
C92 H96 0.960 . S
C92 H97 0.960 . S
C92 H98 0.959 . S
H93 C89 0.960 . S
H94 C89 0.961 . S
H95 C89 0.960 . S
H96 C92 0.960 . S
H97 C92 0.960 . S
H98 C92 0.959 . S
C99 N100 1.317 . S
C99 N101 1.348 . S
C99 C102 1.485 1_554 S
N100 C99 1.317 . S
N100 N104 1.370 . S
N101 C99 1.348 . S
N101 C103 1.346 . S
C102 C99 1.485 1_556 S
C102 H106 0.960 . S
C102 H107 0.961 . S
C102 H108 0.960 . S
C103 N101 1.346 . S
C103 N104 1.307 . S
C103 C105 1.486 . S
N104 N100 1.370 . S
N104 C103 1.307 . S
C105 C103 1.486 . S
C105 H109 0.960 . S
C105 H110 0.960 . S
C105 H111 0.959 . S
H106 C102 0.960 . S
H107 C102 0.961 . S
H108 C102 0.960 . S
H109 C105 0.960 . S
H110 C105 0.960 . S
H111 C105 0.959 . S
C112 C113 1.382 1_556 S
C112 H116 0.950 . S
C112 C121 1.390 . S
C113 C112 1.382 1_554 S
C113 C115 1.395 . S
H114 C121 0.950 . S
C115 C113 1.395 . S
C115 C117 1.390 . S
C115 H119 0.950 . S
H116 C112 0.950 . S
C117 C115 1.390 . S
C117 C118 1.387 . S
C117 H120 0.950 . S
C118 C117 1.387 . S
C118 C121 1.387 1_554 S
H119 C115 0.950 . S
H120 C117 0.950 . S
C121 C112 1.390 . S
C121 H114 0.950 . S
C121 C118 1.387 1_556 S
C122 C123 1.387 . S
C122 H126 0.950 . S
C122 C131 1.390 . S
C123 C122 1.387 . S
C123 C125 1.387 1_554 S
H124 C131 0.950 . S
C125 C123 1.387 1_556 S
C125 C127 1.390 . S
C125 H129 0.950 . S
H126 C122 0.950 . S
C127 C125 1.390 . S
C127 C128 1.387 . S
C127 H130 0.950 . S
C128 C127 1.387 . S
C128 C131 1.387 1_556 S
H129 C125 0.950 . S
H130 C127 0.950 . S
C131 C122 1.390 . S
C131 H124 0.950 . S
C131 C128 1.387 1_554 S
C132 C133 1.387 1_556 S
C132 H136 0.950 . S
C132 C141 1.390 . S
C133 C132 1.387 1_554 S
C133 C135 1.387 . S
H134 C141 0.950 . S
C135 C133 1.387 . S
C135 C137 1.390 . S
C135 H139 0.950 . S
H136 C132 0.950 . S
C137 C135 1.390 . S
C137 C138 1.387 . S
C137 H140 0.950 . S
C138 C137 1.387 . S
C138 C141 1.387 1_554 S
H139 C135 0.950 . S
H140 C137 0.950 . S
C141 C132 1.390 . S
C141 H134 0.950 . S
C141 C138 1.387 1_556 S
C142 C143 1.387 1_554 S
C142 H146 0.950 . S
C142 C151 1.390 . S
C143 C142 1.387 1_556 S
C143 C145 1.387 . S
H144 C151 0.950 . S
C145 C143 1.387 . S
C145 C147 1.390 . S
C145 H149 0.950 . S
H146 C142 0.950 . S
C147 C145 1.390 . S
C147 C148 1.387 . S
C147 H150 0.950 . S
C148 C147 1.387 . S
C148 C151 1.387 1_556 S
H149 C145 0.950 . S
H150 C147 0.950 . S
C151 C142 1.390 . S
C151 H144 0.950 . S
C151 C148 1.387 1_554 S
C152 C153 1.387 . S
C152 H156 0.950 . S
C152 C161 1.390 . S
C153 C152 1.387 . S
C153 C155 1.387 . S
H154 C161 0.950 . S
C155 C153 1.387 . S
C155 C157 1.390 . S
C155 H159 0.950 . S
H156 C152 0.950 . S
C157 C155 1.390 . S
C157 C158 1.387 . S
C157 H160 0.950 . S
C158 C157 1.387 . S
C158 C161 1.387 . S
H159 C155 0.950 . S
H160 C157 0.950 . S
C161 C152 1.390 . S
C161 H154 0.950 . S
C161 C158 1.387 . S
C162 C163 1.387 . S
C162 H166 0.950 . S
C162 C171 1.390 . S
C163 C162 1.387 . S
C163 C165 1.387 . S
H164 C171 0.950 . S
C165 C163 1.387 . S
C165 C167 1.390 . S
C165 H169 0.950 . S
H166 C162 0.950 . S
C167 C165 1.390 . S
C167 C168 1.387 . S
C167 H170 0.950 . S
C168 C167 1.387 . S
C168 C171 1.387 . S
H169 C165 0.950 . S
H170 C167 0.950 . S
C171 C162 1.390 . S
C171 H164 0.950 . S
C171 C168 1.387 . S
C172 C173 1.387 . S
C172 H176 0.950 . S
C172 C181 1.390 . S
C173 C172 1.387 . S
C173 C175 1.387 . S
H174 C181 0.950 . S
C175 C173 1.387 . S
C175 C177 1.390 . S
C175 H179 0.950 . S
H176 C172 0.950 . S
C177 C175 1.390 . S
C177 C178 1.387 . S
C177 H180 0.950 . S
C178 C177 1.387 . S
C178 C181 1.387 . S
H179 C175 0.950 . S
H180 C177 0.950 . S
C181 C172 1.390 . S
C181 H174 0.950 . S
C181 C178 1.387 . S
C182 C183 1.387 . S
C182 H186 0.950 . S
C182 C191 1.390 . S
C183 C182 1.387 . S
C183 C185 1.387 . S
H184 C191 0.950 . S
C185 C183 1.387 . S
C185 C187 1.390 . S
C185 H189 0.950 . S
H186 C182 0.950 . S
C187 C185 1.390 . S
C187 C188 1.387 . S
C187 H190 0.950 . S
C188 C187 1.387 . S
C188 C191 1.387 . S
H189 C185 0.950 . S
H190 C187 0.950 . S
C191 C182 1.390 . S
C191 H184 0.950 . S
C191 C188 1.387 . S
C192 C193 1.387 1_545 S
C192 H196 0.950 . S
C192 C201 1.390 . S
C193 C192 1.387 1_565 S
C193 C195 1.387 . S
H194 C201 0.950 . S
C195 C193 1.387 . S
C195 C197 1.390 . S
C195 H199 0.950 . S
H196 C192 0.950 . S
C197 C195 1.390 . S
C197 C198 1.387 . S
C197 H200 0.949 . S
C198 C197 1.387 . S
C198 C201 1.387 1_565 S
H199 C195 0.950 . S
H200 C197 0.949 . S
C201 C192 1.390 . S
C201 H194 0.950 . S
C201 C198 1.387 1_545 S
C202 C203 1.387 1_655 S
C202 H206 0.950 . S
C202 C211 1.390 . S
C203 C202 1.387 1_455 S
C203 C205 1.387 . S
H204 C211 0.950 . S
C205 C203 1.387 . S
C205 C207 1.390 . S
C205 H209 0.950 . S
H206 C202 0.950 . S
C207 C205 1.390 . S
C207 C208 1.387 . S
C207 H210 0.950 . S
C208 C207 1.387 . S
C208 C211 1.387 1_455 S
H209 C205 0.950 . S
H210 C207 0.950 . S
C211 C202 1.390 . S
C211 H204 0.950 . S
C211 C208 1.387 1_655 S
C212 C213 1.387 . S
C212 H216 0.950 . S
C212 C221 1.390 . S
C213 C212 1.387 . S
C213 C215 1.387 . S
H214 C221 0.950 . S
C215 C213 1.387 . S
C215 C217 1.390 . S
C215 H219 0.950 . S
H216 C212 0.950 . S
C217 C215 1.390 . S
C217 C218 1.387 . S
C217 H220 0.950 . S
C218 C217 1.387 . S
C218 C221 1.387 . S
H219 C215 0.950 . S
H220 C217 0.950 . S
C221 C212 1.390 . S
C221 H214 0.950 . S
C221 C218 1.387 . S
C222 C223 1.387 . S
C222 H226 0.950 . S
C222 C231 1.390 . S
C223 C222 1.387 . S
C223 C225 1.387 . S
H224 C231 0.950 . S
C225 C223 1.387 . S
C225 C227 1.390 . S
C225 H229 0.950 . S
H226 C222 0.950 . S
C227 C225 1.390 . S
C227 C228 1.387 . S
C227 H230 0.950 . S
C228 C227 1.387 . S
C228 C231 1.387 . S
H229 C225 0.950 . S
H230 C227 0.950 . S
C231 C222 1.390 . S
C231 H224 0.950 . S
C231 C228 1.387 . S
C118 N101 1.450 . S
C113 C27 1.464 1_554 S
C123 N6 1.395 . S
C128 N88 1.459 . S
C133 C16 1.496 . S
C138 N100 1.493 . S
C143 N14 1.438 1_556 S
C148 N87 1.466 . S
C153 C57 1.465 . S
C158 N75 1.449 . S
C163 N36 1.394 . S
C168 N62 1.461 . S
C178 N74 1.493 . S
C173 C46 1.496 . S
C188 N61 1.466 . S
C183 N44 1.437 . S
C193 C10 1.470 1_565 S
C198 N65 1.453 . S
C203 C1 1.559 . S
C208 N78 1.539 . S
C218 N91 1.449 . S
C213 C40 1.470 . S
C223 C31 1.559 . S
C228 N104 1.539 . S
