# Generated by pormake.
# Topology dag, (6,3)-cn, num edge types: 1
# Building blocks:
#     Node 0, Type 0, BuildingBlock: IZENUY_clean_sbu_0, # of connection points: 6
#     Node 1, Type 0, BuildingBlock: IZENUY_clean_sbu_0, # of connection points: 6
#     Node 2, Type 0, BuildingBlock: IZENUY_clean_sbu_0, # of connection points: 6
#     Node 3, Type 0, BuildingBlock: IZENUY_clean_sbu_0, # of connection points: 6
#     Node 4, Type 1, BuildingBlock: ESEHIV_clean_linker_0, # of connection points: 3
#     Node 5, Type 1, BuildingBlock: ESEHIV_clean_linker_0, # of connection points: 3
#     Node 6, Type 1, BuildingBlock: ESEHIV_clean_linker_0, # of connection points: 3
#     Node 7, Type 1, BuildingBlock: ESEHIV_clean_linker_0, # of connection points: 3
#     Node 8, Type 1, BuildingBlock: ESEHIV_clean_linker_0, # of connection points: 3
#     Node 9, Type 1, BuildingBlock: ESEHIV_clean_linker_0, # of connection points: 3
#     Node 10, Type 1, BuildingBlock: ESEHIV_clean_linker_0, # of connection points: 3
#     Node 11, Type 1, BuildingBlock: ESEHIV_clean_linker_0, # of connection points: 3
#     Edge 12, Type (0, 1), None
#     Edge 13, Type (0, 1), None
#     Edge 14, Type (0, 1), None
#     Edge 15, Type (0, 1), None
#     Edge 16, Type (0, 1), None
#     Edge 17, Type (0, 1), None
#     Edge 18, Type (0, 1), None
#     Edge 19, Type (0, 1), None
#     Edge 20, Type (0, 1), None
#     Edge 21, Type (0, 1), None
#     Edge 22, Type (0, 1), None
#     Edge 23, Type (0, 1), None
#     Edge 24, Type (0, 1), None
#     Edge 25, Type (0, 1), None
#     Edge 26, Type (0, 1), None
#     Edge 27, Type (0, 1), None
#     Edge 28, Type (0, 1), None
#     Edge 29, Type (0, 1), None
#     Edge 30, Type (0, 1), None
#     Edge 31, Type (0, 1), None
#     Edge 32, Type (0, 1), None
#     Edge 33, Type (0, 1), None
#     Edge 34, Type (0, 1), None
#     Edge 35, Type (0, 1), None
# Relax obj value: 0.254
# Max RMSD: 0.194
# Mean RMSD: 0.160
data_MOF--net-dag--node1-IZENUY_clean_sbu_0--node2-ESEHIV_clean_linker_0--edge1-none
_symmetry_space_group_name_H-M    P1
_symmetry_Int_Tables_number       1
_symmetry_cell_setting            triclinic
loop_
_symmetry_equiv_pos_as_xyz
'x, y, z'
_cell_length_a     15.072008
_cell_length_b     15.199055
_cell_length_c     13.836102
_cell_angle_alpha  92.58448
_cell_angle_beta   90.017565
_cell_angle_gamma 90.014113
loop_
_atom_site_label
_atom_site_type_symbol
_atom_site_fract_x
_atom_site_fract_y
_atom_site_fract_z
_atom_type_partial_charge
Fe0 Fe 0.26992 0.89326 0.05738 0.0
Fe1 Fe 0.07966 0.94168 0.02137 0.0
O2 O 0.1595 0.86013 0.03038 0.0
Fe3 Fe 0.12667 0.74866 0.01058 0.0
O4 O 0.17041 0.71947 0.12982 0.0
O5 O 0.29436 0.79692 0.12451 0.0
O6 O 0.23367 0.95099 0.17488 0.0
C7 C 0.17186 1.00825 0.17553 0.0
C8 C 0.28994 0.76068 0.91423 0.0
O9 O 0.13507 0.02185 0.09739 0.0
C10 C 0.02714 0.83131 0.87322 0.0
O11 O 0.26512 0.99557 -0.00939 0.0
O12 O 0.13761 0.98178 0.91553 0.0
O13 O 0.2296 0.71728 0.9535 0.0
O14 O 0.31071 0.83801 0.94511 0.0
C15 C 0.98911 0.82424 0.12714 0.0
O16 O 0.00626 0.87849 0.94499 0.0
O17 O 0.08265 0.77004 0.88576 0.0
C18 C 0.21535 1.01465 0.92062 0.0
O19 O 0.02336 0.90063 0.12657 0.0
O20 O 0.01651 0.76373 0.06807 0.0
C21 C 0.24787 0.73818 0.16153 0.0
Fe22 Fe 0.76994 0.64423 0.47736 0.0
Fe23 Fe 0.6267 0.78881 0.52389 0.0
O24 O 0.65952 0.67734 0.50426 0.0
Fe25 Fe 0.5797 0.59577 0.51337 0.0
O26 O 0.63768 0.55581 0.61929 0.0
O27 O 0.76515 0.542 0.54427 0.0
O28 O 0.81073 0.69963 0.58956 0.0
C29 C 0.78998 0.77698 0.62031 0.0
C30 C 0.67185 0.52911 0.3593 0.0
O31 O 0.72963 0.82031 0.58098 0.0
C32 C 0.48913 0.71303 0.4074 0.0
O33 O 0.79439 0.74048 0.41009 0.0
O34 O 0.67044 0.81786 0.40462 0.0
O35 O 0.63509 0.51555 0.43745 0.0
O36 O 0.73369 0.58635 0.35992 0.0
C37 C 0.52713 0.70633 0.66134 0.0
O38 O 0.51655 0.77363 0.46636 0.0
O39 O 0.52337 0.63666 0.40809 0.0
C40 C 0.74789 0.79916 0.37298 0.0
O41 O 0.58268 0.76758 0.64873 0.0
O42 O 0.50629 0.659 0.58963 0.0
C43 C 0.71542 0.52298 0.61429 0.0
Fe44 Fe 0.87967 0.28879 0.02417 0.0
Fe45 Fe 0.92665 0.09576 0.01339 0.0
O46 O 0.84683 0.17732 0.00436 0.0
Fe47 Fe 0.7364 0.14421 0.97736 0.0
O48 O 0.71197 0.24054 0.91023 0.0
O49 O 0.83593 0.31799 0.90493 0.0
O50 O 0.98983 0.27371 0.96668 0.0
C51 C 0.01724 0.21319 0.90764 0.0
C52 C 0.71637 0.2768 0.1205 0.0
O53 O 0.98298 0.1368 0.9082 0.0
C54 C 0.79094 0.02282 0.11414 0.0
O55 O 0.92368 0.26741 0.14899 0.0
O56 O 1.00007 0.15894 0.08977 0.0
O57 O 0.69562 0.19947 0.08962 0.0
O58 O 0.77674 0.32018 0.08126 0.0
C59 C 0.83448 0.02924 0.8592 0.0
O60 O 0.86868 0.05567 0.11922 0.0
O61 O 0.74119 0.0419 0.04412 0.0
C62 C 0.9792 0.20613 0.16154 0.0
O63 O 0.87123 1.01561 0.93736 0.0
O64 O 0.77265 0.08647 0.85986 0.0
C65 C 0.75847 0.2993 0.87323 0.0
Fe66 Fe 0.42663 0.4417 0.52139 0.0
Fe67 Fe 0.23639 0.39323 0.5574 0.0
O68 O 0.34681 0.36013 0.53049 0.0
Fe69 Fe 0.37963 0.24865 0.51087 0.0
O70 O 0.48978 0.26384 0.56839 0.0
O71 O 0.48296 0.40081 0.62667 0.0
O72 O 0.37124 0.52191 0.5973 0.0
C73 C 0.33448 0.50836 0.67546 0.0
C74 C 0.47921 0.33113 0.37342 0.0
O75 O 0.27264 0.45112 0.67484 0.0
C76 C 0.21634 0.26047 0.41445 0.0
O77 O 0.36865 0.48165 0.41546 0.0
O78 O 0.24118 0.49546 0.49048 0.0
O79 O 0.42365 0.26989 0.38603 0.0
O80 O 0.50004 0.37846 0.44512 0.0
C81 C 0.25845 0.23832 0.66179 0.0
O82 O 0.1956 0.33783 0.4452 0.0
O83 O 0.2767 0.21716 0.45378 0.0
C84 C 0.29091 0.51448 0.42046 0.0
O85 O 0.21194 0.29698 0.62467 0.0
O86 O 0.33589 0.21961 0.63014 0.0
C87 C 0.51721 0.32444 0.62736 0.0
H88 H 0.00473 0.04544 0.21898 0.0
H89 H 0.26513 0.10914 0.31586 0.0
H90 H 0.06502 0.31134 0.3119 0.0
C91 C 0.04981 0.09239 0.25341 0.0
C92 C 0.0271 0.18285 0.25171 0.0
C93 C 0.13999 0.06798 0.25744 0.0
C94 C 0.19609 0.12698 0.30683 0.0
C95 C 0.16325 0.21055 0.3415 0.0
C96 C 0.08232 0.24224 0.30403 0.0
H97 H 0.50159 0.54572 0.71898 0.0
H98 H 0.24118 0.60932 0.81559 0.0
H99 H 0.44125 0.81166 0.81161 0.0
C100 C 0.45651 0.59267 0.75332 0.0
C101 C 0.47919 0.68314 0.75152 0.0
C102 C 0.36633 0.56822 0.75729 0.0
C103 C 0.31022 0.62721 0.8066 0.0
C104 C 0.34304 0.71081 0.84126 0.0
C105 C 0.42396 0.74254 0.80378 0.0
H106 H 0.86011 0.88592 0.0277 0.0
H107 H 0.90812 0.75859 0.28875 0.0
H108 H 0.70136 0.9535 0.27703 0.0
C109 C 0.84025 0.87382 0.10077 0.0
C110 C 0.7837 0.93309 0.14894 0.0
C111 C 0.89543 0.82332 0.15566 0.0
C112 C 0.86719 0.80206 0.24766 0.0
C113 C 0.78679 0.83834 0.28589 0.0
C114 C 0.7507 0.91216 0.24069 0.0
H115 H 0.64622 0.386 0.52793 0.0
H116 H 0.59815 0.25884 0.78903 0.0
H117 H 0.80503 0.45373 0.77731 0.0
C118 C 0.66608 0.37396 0.60102 0.0
C119 C 0.72263 0.43328 0.64919 0.0
C120 C 0.61088 0.3235 0.65592 0.0
C121 C 0.63911 0.30228 0.74794 0.0
C122 C 0.71954 0.33855 0.78618 0.0
C123 C 0.75566 0.41237 0.74097 0.0
H124 H 0.50474 0.49175 0.31578 0.0
H125 H 0.76514 0.42815 0.21915 0.0
H126 H 0.56507 0.22581 0.22313 0.0
C127 C 0.54982 0.44479 0.28144 0.0
C128 C 0.52714 0.35432 0.28323 0.0
C129 C 0.64 0.46924 0.27746 0.0
C130 C 0.69611 0.41026 0.22814 0.0
C131 C 0.66328 0.32666 0.19348 0.0
C132 C 0.58236 0.29493 0.23096 0.0
H133 H 0.14626 0.15158 0.0071 0.0
H134 H 0.09822 0.27888 0.74604 0.0
H135 H 0.30497 0.08397 0.75775 0.0
C136 C 0.16612 0.16368 0.93403 0.0
C137 C 0.22265 0.10439 0.88585 0.0
C138 C 0.11093 0.21417 0.87914 0.0
C139 C 0.13916 0.23543 0.78713 0.0
C140 C 0.21955 0.19914 0.74889 0.0
C141 C 0.25565 0.12532 0.79409 0.0
H142 H 0.36011 0.65146 0.50682 0.0
H143 H 0.40818 0.77863 0.24573 0.0
H144 H 0.20131 0.58374 0.25743 0.0
C145 C 0.34025 0.6635 0.43373 0.0
C146 C 0.2837 0.60419 0.38556 0.0
C147 C 0.39545 0.71396 0.37884 0.0
C148 C 0.36723 0.73519 0.28682 0.0
C149 C 0.2868 0.69892 0.24857 0.0
C150 C 0.25068 0.62509 0.29377 0.0
H151 H 1.00154 0.99207 0.81579 0.0
H152 H 0.9413 0.7261 0.72287 0.0
H153 H 0.74121 0.92833 0.7189 0.0
C154 C 0.95653 0.94505 0.78136 0.0
C155 C 0.86635 0.96947 0.77732 0.0
C156 C 0.97922 0.8546 0.78306 0.0
C157 C 0.924 0.79521 0.73073 0.0
C158 C 0.84308 0.82691 0.69327 0.0
C159 C 0.81025 0.91048 0.72793 0.0
loop_
_geom_bond_atom_site_label_1
_geom_bond_atom_site_label_2
_geom_bond_distance
_geom_bond_site_symmetry_2
_ccdc_geom_bond_type
Fe0 O2 1.918 . S
Fe0 O5 1.997 . S
Fe0 O6 2.002 . S
Fe0 O11 1.976 . S
Fe0 O14 1.996 . S
Fe1 O2 1.918 . S
Fe1 O9 1.997 . S
Fe1 O12 1.996 1_564 S
Fe1 O16 1.976 1_554 S
Fe1 O19 2.002 1_455 S
O2 Fe0 1.918 . S
O2 Fe1 1.918 . S
O2 Fe3 1.918 . S
Fe3 O2 1.918 . S
Fe3 O4 2.002 . S
Fe3 O13 1.976 1_554 S
Fe3 O17 1.996 1_554 S
Fe3 O20 1.997 . S
O4 Fe3 2.002 . S
O4 C21 1.295 . S
O5 Fe0 1.997 . S
O5 C21 1.235 . S
O6 Fe0 2.002 . S
O6 C7 1.295 . S
C7 O6 1.295 . S
C7 O9 1.235 . S
C8 O13 1.287 . S
C8 O14 1.255 1_556 S
O9 Fe1 1.997 . S
O9 C7 1.235 . S
C10 O16 1.287 . S
C10 O17 1.255 . S
O11 Fe0 1.976 . S
O11 C18 1.287 1_564 S
O12 Fe1 1.996 1_546 S
O12 C18 1.255 . S
O13 Fe3 1.976 1_556 S
O13 C8 1.287 . S
O14 Fe0 1.996 . S
O14 C8 1.255 1_554 S
C15 O19 1.295 . S
C15 O20 1.235 1_655 S
O16 Fe1 1.976 1_556 S
O16 C10 1.287 . S
O17 Fe3 1.996 1_556 S
O17 C10 1.255 . S
C18 O11 1.287 1_546 S
C18 O12 1.255 . S
O19 Fe1 2.002 1_655 S
O19 C15 1.295 . S
O20 Fe3 1.997 . S
O20 C15 1.235 1_455 S
C21 O4 1.295 . S
C21 O5 1.235 . S
Fe22 O24 1.918 . S
Fe22 O27 1.997 . S
Fe22 O28 2.002 . S
Fe22 O33 1.976 . S
Fe22 O36 1.996 . S
Fe23 O24 1.918 . S
Fe23 O31 1.997 . S
Fe23 O34 1.996 . S
Fe23 O38 1.976 . S
Fe23 O41 2.002 . S
O24 Fe22 1.918 . S
O24 Fe23 1.918 . S
O24 Fe25 1.918 . S
Fe25 O24 1.918 . S
Fe25 O26 2.002 . S
Fe25 O35 1.976 . S
Fe25 O39 1.996 . S
Fe25 O42 1.997 . S
O26 Fe25 2.002 . S
O26 C43 1.295 . S
O27 Fe22 1.997 . S
O27 C43 1.235 . S
O28 Fe22 2.002 . S
O28 C29 1.295 . S
C29 O28 1.295 . S
C29 O31 1.235 . S
C30 O35 1.287 . S
C30 O36 1.255 . S
O31 Fe23 1.997 . S
O31 C29 1.235 . S
C32 O38 1.287 . S
C32 O39 1.255 . S
O33 Fe22 1.976 . S
O33 C40 1.287 . S
O34 Fe23 1.996 . S
O34 C40 1.255 . S
O35 Fe25 1.976 . S
O35 C30 1.287 . S
O36 Fe22 1.996 . S
O36 C30 1.255 . S
C37 O41 1.295 . S
C37 O42 1.235 . S
O38 Fe23 1.976 . S
O38 C32 1.287 . S
O39 Fe25 1.996 . S
O39 C32 1.255 . S
C40 O33 1.287 . S
C40 O34 1.255 . S
O41 Fe23 2.002 . S
O41 C37 1.295 . S
O42 Fe25 1.997 . S
O42 C37 1.235 . S
C43 O26 1.295 . S
C43 O27 1.235 . S
Fe44 O46 1.918 . S
Fe44 O49 1.997 1_554 S
Fe44 O50 2.002 1_554 S
Fe44 O55 1.976 . S
Fe44 O58 1.996 . S
Fe45 O46 1.918 . S
Fe45 O53 1.997 1_654 S
Fe45 O56 1.996 . S
Fe45 O60 1.976 . S
Fe45 O63 2.002 1_554 S
O46 Fe44 1.918 . S
O46 Fe45 1.918 . S
O46 Fe47 1.918 1_554 S
Fe47 O46 1.918 1_556 S
Fe47 O48 2.002 . S
Fe47 O57 1.976 1_556 S
Fe47 O61 1.996 1_556 S
Fe47 O64 1.997 . S
O48 Fe47 2.002 . S
O48 C65 1.295 . S
O49 Fe44 1.997 1_556 S
O49 C65 1.235 . S
O50 Fe44 2.002 1_556 S
O50 C51 1.295 1_655 S
C51 O50 1.295 1_455 S
C51 O53 1.235 . S
C52 O57 1.287 . S
C52 O58 1.255 . S
O53 Fe45 1.997 1_456 S
O53 C51 1.235 . S
C54 O60 1.287 1_565 S
C54 O61 1.255 1_565 S
O55 Fe44 1.976 . S
O55 C62 1.287 . S
O56 Fe45 1.996 . S
O56 C62 1.255 . S
O57 Fe47 1.976 1_554 S
O57 C52 1.287 . S
O58 Fe44 1.996 . S
O58 C52 1.255 . S
C59 O63 1.295 . S
C59 O64 1.235 . S
O60 Fe45 1.976 . S
O60 C54 1.287 1_545 S
O61 Fe47 1.996 1_554 S
O61 C54 1.255 1_545 S
C62 O55 1.287 . S
C62 O56 1.255 . S
O63 Fe45 2.002 1_556 S
O63 C59 1.295 . S
O64 Fe47 1.997 . S
O64 C59 1.235 . S
C65 O48 1.295 . S
C65 O49 1.235 . S
Fe66 O68 1.918 . S
Fe66 O71 1.997 . S
Fe66 O72 2.002 . S
Fe66 O77 1.976 . S
Fe66 O80 1.996 . S
Fe67 O68 1.918 . S
Fe67 O75 1.997 . S
Fe67 O78 1.996 . S
Fe67 O82 1.976 . S
Fe67 O85 2.002 . S
O68 Fe66 1.918 . S
O68 Fe67 1.918 . S
O68 Fe69 1.918 . S
Fe69 O68 1.918 . S
Fe69 O70 2.002 . S
Fe69 O79 1.976 . S
Fe69 O83 1.996 . S
Fe69 O86 1.997 . S
O70 Fe69 2.002 . S
O70 C87 1.295 . S
O71 Fe66 1.997 . S
O71 C87 1.235 . S
O72 Fe66 2.002 . S
O72 C73 1.295 . S
C73 O72 1.295 . S
C73 O75 1.235 . S
C74 O79 1.287 . S
C74 O80 1.255 . S
O75 Fe67 1.997 . S
O75 C73 1.235 . S
C76 O82 1.287 . S
C76 O83 1.255 . S
O77 Fe66 1.976 . S
O77 C84 1.287 . S
O78 Fe67 1.996 . S
O78 C84 1.255 . S
O79 Fe69 1.976 . S
O79 C74 1.287 . S
O80 Fe66 1.996 . S
O80 C74 1.255 . S
C81 O85 1.295 . S
C81 O86 1.235 . S
O82 Fe67 1.976 . S
O82 C76 1.287 . S
O83 Fe69 1.996 . S
O83 C76 1.255 . S
C84 O77 1.287 . S
C84 O78 1.255 . S
O85 Fe67 2.002 . S
O85 C81 1.295 . S
O86 Fe69 1.997 . S
O86 C81 1.235 . S
C87 O70 1.295 . S
C87 O71 1.235 . S
H88 C91 0.931 1_655 S
H89 C94 0.928 . S
H90 C96 0.930 . S
C91 H88 0.931 1_455 S
C91 C92 1.413 1_455 S
C91 C93 1.360 . S
C92 C91 1.413 1_655 S
C92 C96 1.429 1_655 S
C93 C91 1.360 . S
C93 C94 1.372 . S
C94 H89 0.928 . S
C94 C93 1.372 . S
C94 C95 1.404 . S
C95 C94 1.404 . S
C95 C96 1.391 . S
C96 H90 0.930 . S
C96 C92 1.429 1_455 S
C96 C95 1.391 . S
H97 C100 0.931 . S
H98 C103 0.928 . S
H99 C105 0.930 . S
C100 H97 0.931 . S
C100 C101 1.413 . S
C100 C102 1.360 . S
C101 C100 1.413 . S
C101 C105 1.429 . S
C102 C100 1.360 . S
C102 C103 1.372 . S
C103 H98 0.928 . S
C103 C102 1.372 . S
C103 C104 1.404 . S
C104 C103 1.404 . S
C104 C105 1.391 . S
C105 H99 0.930 . S
C105 C101 1.429 . S
C105 C104 1.391 . S
H106 C109 0.931 . S
H107 C112 0.928 . S
H108 C114 0.930 . S
C109 H106 0.931 . S
C109 C110 1.413 . S
C109 C111 1.360 . S
C110 C109 1.413 . S
C110 C114 1.429 . S
C111 C109 1.360 . S
C111 C112 1.372 . S
C112 H107 0.928 . S
C112 C111 1.372 . S
C112 C113 1.404 . S
C113 C112 1.404 . S
C113 C114 1.391 . S
C114 H108 0.930 . S
C114 C110 1.429 . S
C114 C113 1.391 . S
H115 C118 0.931 . S
H116 C121 0.928 . S
H117 C123 0.930 . S
C118 H115 0.931 . S
C118 C119 1.413 . S
C118 C120 1.360 . S
C119 C118 1.413 . S
C119 C123 1.429 . S
C120 C118 1.360 . S
C120 C121 1.372 . S
C121 H116 0.928 . S
C121 C120 1.372 . S
C121 C122 1.404 . S
C122 C121 1.404 . S
C122 C123 1.391 . S
C123 H117 0.930 . S
C123 C119 1.429 . S
C123 C122 1.391 . S
H124 C127 0.931 . S
H125 C130 0.928 . S
H126 C132 0.930 . S
C127 H124 0.931 . S
C127 C128 1.413 . S
C127 C129 1.360 . S
C128 C127 1.413 . S
C128 C132 1.429 . S
C129 C127 1.360 . S
C129 C130 1.372 . S
C130 H125 0.928 . S
C130 C129 1.372 . S
C130 C131 1.404 . S
C131 C130 1.404 . S
C131 C132 1.391 . S
C132 H126 0.930 . S
C132 C128 1.429 . S
C132 C131 1.391 . S
H133 C136 0.931 1_554 S
H134 C139 0.928 . S
H135 C141 0.930 . S
C136 H133 0.931 1_556 S
C136 C137 1.413 . S
C136 C138 1.360 . S
C137 C136 1.413 . S
C137 C141 1.429 . S
C138 C136 1.360 . S
C138 C139 1.372 . S
C139 H134 0.928 . S
C139 C138 1.372 . S
C139 C140 1.404 . S
C140 C139 1.404 . S
C140 C141 1.391 . S
C141 H135 0.930 . S
C141 C137 1.429 . S
C141 C140 1.391 . S
H142 C145 0.931 . S
H143 C148 0.928 . S
H144 C150 0.930 . S
C145 H142 0.931 . S
C145 C146 1.413 . S
C145 C147 1.360 . S
C146 C145 1.413 . S
C146 C150 1.429 . S
C147 C145 1.360 . S
C147 C148 1.372 . S
C148 H143 0.928 . S
C148 C147 1.372 . S
C148 C149 1.404 . S
C149 C148 1.404 . S
C149 C150 1.391 . S
C150 H144 0.930 . S
C150 C146 1.429 . S
C150 C149 1.391 . S
H151 C154 0.931 1_455 S
H152 C157 0.928 . S
H153 C159 0.930 . S
C154 H151 0.931 1_655 S
C154 C155 1.413 . S
C154 C156 1.360 1_655 S
C155 C154 1.413 . S
C155 C159 1.429 . S
C156 C154 1.360 1_455 S
C156 C157 1.372 1_455 S
C157 H152 0.928 . S
C157 C156 1.372 1_655 S
C157 C158 1.404 . S
C158 C157 1.404 . S
C158 C159 1.391 . S
C159 H153 0.930 . S
C159 C155 1.429 . S
C159 C158 1.391 . S
C7 C93 1.577 1_565 S
C37 C101 1.499 . S
C54 C110 1.494 . S
C120 C87 1.513 . S
C129 C30 1.533 . S
C51 C138 1.517 . S
C84 C146 1.524 . S
C10 C156 1.480 . S
C59 C155 1.552 1_545 S
C128 C74 1.418 . S
C137 C18 1.515 . S
C32 C147 1.488 . S
C102 C73 1.559 . S
C15 C111 1.492 . S
C119 C43 1.520 . S
C92 C62 1.449 . S
C149 C21 1.754 . S
C158 C29 1.353 . S
C52 C131 1.331 . S
C140 C81 1.684 . S
C113 C40 1.714 . S
C65 C122 1.654 . S
C95 C76 1.332 . S
C104 C8 1.356 . S
