# Generated by pormake.
# Topology tsx, (6,3)-cn, num edge types: 1
# Building blocks:
#     Node 0, Type 0, BuildingBlock: JUFBIX_clean_sbu_0, # of connection points: 6
#     Node 1, Type 0, BuildingBlock: JUFBIX_clean_sbu_0, # of connection points: 6
#     Node 2, Type 1, BuildingBlock: ESEHIV_clean_linker_0, # of connection points: 3
#     Node 3, Type 1, BuildingBlock: ESEHIV_clean_linker_0, # of connection points: 3
#     Node 4, Type 1, BuildingBlock: ESEHIV_clean_linker_0, # of connection points: 3
#     Node 5, Type 1, BuildingBlock: ESEHIV_clean_linker_0, # of connection points: 3
#     Edge 6, Type (0, 1), BuildingBlock: AJUNOK_clean_linker_0, # of connection points: 2
#     Edge 7, Type (0, 1), BuildingBlock: AJUNOK_clean_linker_0, # of connection points: 2
#     Edge 8, Type (0, 1), BuildingBlock: AJUNOK_clean_linker_0, # of connection points: 2
#     Edge 9, Type (0, 1), BuildingBlock: AJUNOK_clean_linker_0, # of connection points: 2
#     Edge 10, Type (0, 1), BuildingBlock: AJUNOK_clean_linker_0, # of connection points: 2
#     Edge 11, Type (0, 1), BuildingBlock: AJUNOK_clean_linker_0, # of connection points: 2
#     Edge 12, Type (0, 1), BuildingBlock: AJUNOK_clean_linker_0, # of connection points: 2
#     Edge 13, Type (0, 1), BuildingBlock: AJUNOK_clean_linker_0, # of connection points: 2
#     Edge 14, Type (0, 1), BuildingBlock: AJUNOK_clean_linker_0, # of connection points: 2
#     Edge 15, Type (0, 1), BuildingBlock: AJUNOK_clean_linker_0, # of connection points: 2
#     Edge 16, Type (0, 1), BuildingBlock: AJUNOK_clean_linker_0, # of connection points: 2
#     Edge 17, Type (0, 1), BuildingBlock: AJUNOK_clean_linker_0, # of connection points: 2
# Relax obj value: 0.162
# Max RMSD: 0.173
# Mean RMSD: 0.143
data_MOF--net-tsx--node1-JUFBIX_clean_sbu_0--node2-ESEHIV_clean_linker_0--edge1-AJUNOK_clean_linker_0
_symmetry_space_group_name_H-M    P1
_symmetry_Int_Tables_number       1
_symmetry_cell_setting            triclinic
loop_
_symmetry_equiv_pos_as_xyz
'x, y, z'
_cell_length_a     13.230194
_cell_length_b     15.820505
_cell_length_c     25.590162
_cell_angle_alpha  92.502201
_cell_angle_beta   87.091885
_cell_angle_gamma 103.63757
loop_
_atom_site_label
_atom_site_type_symbol
_atom_site_fract_x
_atom_site_fract_y
_atom_site_fract_z
_atom_type_partial_charge
Co0 Co 0.07976 0.97574 -0.00821 0.0
C1 C 1.00922 0.03123 0.89958 0.0
Co2 Co 0.96917 0.06134 0.00258 0.0
C3 C 0.19978 0.83725 -0.01444 0.0
C4 C 0.25492 0.94492 0.93564 0.0
N5 N 0.18204 0.91501 -0.02662 0.0
N6 N 0.28233 0.8195 0.95726 0.0
C7 C 0.31556 0.88702 0.92556 0.0
H8 H 0.15194 0.79385 0.0134 0.0
H9 H 0.26011 1.00349 0.91447 0.0
C10 C 0.04326 1.00612 0.09388 0.0
N11 N 0.86783 0.12365 0.01766 0.0
C12 C 0.84316 0.18515 -0.011 0.0
C13 C 0.79381 0.10864 0.05663 0.0
N14 N 0.75587 0.20757 0.00802 0.0
C15 C 0.7244 0.15965 0.05052 0.0
C16 C 0.88087 0.88045 -0.00052 0.0
O17 O 0.09233 0.96277 0.06339 0.0
O18 O 0.98706 0.05196 0.07539 0.0
O19 O 0.86457 0.95653 0.00351 0.0
O20 O 0.97344 0.87172 -0.00957 0.0
O21 O 0.95462 0.0706 0.92942 0.0
H22 H 0.78783 0.06067 0.08617 0.0
H23 H 0.88465 0.2093 0.95309 0.0
O24 O 0.06611 0.98866 0.91981 0.0
O25 O 0.18563 0.0825 -0.00384 0.0
O26 O 0.07341 0.16506 0.00343 0.0
C27 C 0.16683 0.15764 0.00312 0.0
H28 H 0.37596 0.89213 0.89491 0.0
H29 H 0.65436 0.15934 0.07424 0.0
Co30 Co 0.62971 0.50781 0.49115 0.0
C31 C 0.54844 0.55438 0.40059 0.0
Co32 Co 0.51887 0.59205 0.50416 0.0
C33 C 0.7584 0.37434 0.48677 0.0
C34 C 0.81454 0.48575 0.43987 0.0
N35 N 0.73546 0.44956 0.47338 0.0
N36 N 0.84955 0.36437 0.46338 0.0
C37 C 0.88424 0.43448 0.43404 0.0
H38 H 0.70985 0.32832 0.513 0.0
H39 H 0.82095 0.54588 0.42004 0.0
C40 C 0.59814 0.54114 0.59412 0.0
N41 N 0.42108 0.65617 0.51916 0.0
C42 C 0.40646 0.72182 0.49086 0.0
C43 C 0.34811 0.64789 0.55859 0.0
N44 N 0.32684 0.75406 0.51062 0.0
C45 C 0.28907 0.70775 0.55304 0.0
C46 C 0.42912 0.41234 0.50568 0.0
O47 O 0.64549 0.49818 0.56251 0.0
O48 O 0.54303 0.58894 0.57681 0.0
O49 O 0.41588 0.48918 0.51016 0.0
O50 O 0.5204 0.40139 0.49327 0.0
O51 O 0.49509 0.59285 0.4317 0.0
H52 H 0.33766 0.60066 0.58889 0.0
H53 H 0.45129 0.74394 0.45541 0.0
O54 O 0.61246 0.51641 0.41893 0.0
O55 O 0.73469 0.61593 0.49242 0.0
O56 O 0.62081 0.69579 0.49925 0.0
C57 C 0.71471 0.6907 0.49645 0.0
H58 H 0.95368 0.44624 0.40855 0.0
H59 H 0.22365 0.71629 0.57792 0.0
H60 H 0.99698 0.12252 0.32721 0.0
H61 H 0.17565 0.92722 0.32209 0.0
H62 H 0.14382 0.07216 0.46448 0.0
C63 C 0.04446 0.08691 0.34646 0.0
C64 C 0.0597 0.10135 0.40008 0.0
C65 C 0.0912 0.02811 0.31736 0.0
C66 C 0.14426 0.97658 0.34351 0.0
C67 C 0.15971 0.99082 0.39729 0.0
C68 C 0.12397 0.05753 0.42437 0.0
H69 H 0.92649 0.93553 0.6626 0.0
H70 H 0.15037 0.18147 0.672 0.0
H71 H 1.03151 0.07601 0.52379 0.0
C72 C 0.975 0.99185 0.64366 0.0
C73 C 0.97754 0.99594 0.58911 0.0
C74 C 1.0343 0.05988 0.67391 0.0
C75 C 0.10024 0.13084 0.649 0.0
C76 C 0.10395 0.13474 0.59418 0.0
C77 C 1.03708 0.06991 0.56501 0.0
H78 H 0.43241 0.57754 0.81933 0.0
H79 H 0.6238 0.3928 0.82549 0.0
H80 H 0.44595 0.44946 0.9614 0.0
C81 C 0.46017 0.53005 0.84042 0.0
C82 C 0.43446 0.52121 0.8939 0.0
C83 C 0.52635 0.48246 0.81492 0.0
C84 C 0.56751 0.42591 0.84379 0.0
C85 C 0.53874 0.41404 0.89686 0.0
C86 C 0.46877 0.45912 0.92104 0.0
H87 H 0.40186 0.41124 0.17308 0.0
H88 H 0.63026 0.65459 0.16587 0.0
H89 H 0.52932 0.51439 0.0244 0.0
C90 C 0.45253 0.46166 0.15023 0.0
C91 C 0.45572 0.45403 0.0953 0.0
C92 C 0.51624 0.53353 0.17569 0.0
C93 C 0.58134 0.59873 0.1462 0.0
C94 C 0.58456 0.59197 0.09153 0.0
C95 C 0.5232 0.51919 0.06632 0.0
C96 C 0.24118 0.31816 0.01321 0.0
C97 C 0.24895 0.23249 0.02117 0.0
C98 C 0.30947 0.38971 0.03667 0.0
C99 C 0.38823 0.37809 0.06859 0.0
H100 H 0.18038 0.3299 -0.01033 0.0
H101 H 0.29979 0.45459 0.03042 0.0
S102 S 0.43676 0.16774 0.10522 0.0
N103 N 0.33818 0.14044 0.06602 0.0
N104 N 0.46822 0.27516 0.10848 0.0
C105 C 0.39691 0.29312 0.07692 0.0
C106 C 0.32719 0.22029 0.05342 0.0
C107 C 0.25449 0.65854 0.9531 0.0
C108 C 0.3223 0.74198 0.95459 0.0
C109 C 0.2914 0.58439 0.93692 0.0
C110 C 0.397 0.59214 0.92224 0.0
H111 H 0.17171 0.65152 0.96064 0.0
H112 H 0.23647 0.52202 0.93285 0.0
S113 S 0.60661 0.79366 0.92338 0.0
N114 N 0.50125 0.82548 0.94462 0.0
N115 N 0.56915 0.68738 0.91348 0.0
C116 C 0.46609 0.67381 0.92729 0.0
C117 C 0.42914 0.74845 0.94377 0.0
C118 C 0.81171 0.71974 0.00996 0.0
C119 C 0.7961 0.80491 0.01482 0.0
C120 C 0.73997 0.64953 0.03258 0.0
C121 C 0.6512 0.66261 0.06118 0.0
H122 H 0.88164 0.70767 -0.00971 0.0
H123 H 0.75637 0.5855 0.02977 0.0
S124 S 0.56582 0.86874 0.07996 0.0
N125 N 0.67798 0.89539 0.04643 0.0
N126 N 0.5451 0.76327 0.08889 0.0
C127 C 0.63139 0.74573 0.06389 0.0
C128 C 0.70348 0.81701 0.04079 0.0
C129 C 0.74509 0.3471 0.97212 0.0
C130 C 0.69882 0.25987 -0.01718 0.0
C131 C 0.6914 0.39752 0.94538 0.0
C132 C 0.59055 0.36164 0.92808 0.0
H133 H 0.82316 0.37604 -0.01562 0.0
H134 H 0.72937 0.46452 0.93747 0.0
S135 S 0.44047 0.13493 0.9424 0.0
N136 N 0.54934 0.13895 0.9722 0.0
N137 N 0.44872 0.23363 0.92141 0.0
C138 C 0.54392 0.2747 0.93838 0.0
C139 C 0.59811 0.22372 0.9659 0.0
C140 C 0.77807 0.8525 0.50272 0.0
C141 C 0.79644 0.76932 0.50898 0.0
C142 C 0.84071 0.92699 0.52634 0.0
C143 C 0.92245 0.92027 0.55757 0.0
H144 H 0.71159 0.85953 0.48171 0.0
H145 H 0.82139 0.98927 0.52277 0.0
S146 S 1.00863 0.71997 0.58263 0.0
N147 N 0.90803 0.68649 0.54523 0.0
N148 N 1.02458 0.8264 0.59 0.0
C149 C 0.94577 0.83876 0.56139 0.0
C150 C 0.88319 0.76324 0.53684 0.0
C151 C 1.0081 0.30853 0.46164 0.0
C152 C 0.89847 0.29204 0.46254 0.0
C153 C 0.06076 0.24392 0.44577 0.0
C154 C 1.00531 0.16097 0.42959 0.0
H155 H 0.05353 0.37377 0.46976 0.0
H156 H 0.14505 0.26081 0.44242 0.0
S157 S 0.7188 0.08155 0.429 0.0
N158 N 0.7369 0.1841 0.44996 0.0
N159 N 0.836 0.06273 0.41941 0.0
C160 C 0.89602 0.1416 0.4338 0.0
C161 C 0.8424 0.20709 0.4506 0.0
C162 C 0.35026 0.25284 0.52055 0.0
C163 C 0.34049 0.33966 0.52236 0.0
C164 C 0.27167 0.18615 0.5425 0.0
C165 C 0.18137 0.20411 0.56743 0.0
H166 H 0.42005 0.2366 0.50337 0.0
H167 H 0.28282 0.12045 0.54149 0.0
S168 S 0.11421 0.41796 0.58202 0.0
N169 N 0.22818 0.43777 0.54986 0.0
N170 N 0.08458 0.3125 0.59199 0.0
C171 C 0.16927 0.28938 0.56877 0.0
C172 C 0.24763 0.35705 0.54586 0.0
C173 C 0.18685 0.78799 0.46234 0.0
C174 C 0.28299 0.81565 0.48597 0.0
C175 C 0.14841 0.84507 0.43278 0.0
C176 C 0.20474 0.93151 0.42656 0.0
H177 H 0.1428 0.72131 0.46575 0.0
H178 H 0.07395 0.82177 0.41494 0.0
S179 S 0.45713 0.03589 0.48362 0.0
N180 N 0.43202 0.93439 0.50287 0.0
N181 N 0.35856 0.04297 0.44822 0.0
C182 C 0.29957 0.96037 0.45121 0.0
C183 C 0.33922 0.9019 0.48064 0.0
C184 C 1.04149 0.93541 0.17914 0.0
C185 C 0.05956 1.01114 0.15009 0.0
C186 C 0.05322 0.94085 0.23345 0.0
C187 C 0.08472 0.02215 0.25978 0.0
H188 H 1.01561 0.87205 0.16001 0.0
H189 H 1.03534 0.88142 0.25507 0.0
S190 S 0.15777 0.23805 0.19881 0.0
N191 N 0.1193 0.16838 0.14982 0.0
N192 N 0.14528 0.17896 0.25142 0.0
C193 C 0.10794 0.09786 0.2303 0.0
C194 C 0.09434 0.09226 0.17547 0.0
C195 C 0.98659 0.10729 0.81851 0.0
C196 C 1.01172 0.03647 0.84197 0.0
C197 C 0.99657 0.11595 0.76398 0.0
C198 C 1.03048 0.05342 0.73135 0.0
H199 H 0.96093 0.15709 0.84244 0.0
H200 H 0.97634 0.17112 0.74715 0.0
S201 S 0.10468 0.85566 0.77281 0.0
N202 N 0.07129 0.90236 0.82785 0.0
N203 N 0.08934 0.91907 0.72576 0.0
C204 C 0.05516 0.98229 0.75417 0.0
C205 C 0.04588 0.97367 0.8094 0.0
C206 C 0.59966 0.59603 0.68645 0.0
C207 C 0.59439 0.52618 0.65029 0.0
C208 C 0.58236 0.58144 0.74 0.0
C209 C 0.55633 0.49634 0.7589 0.0
H210 H 0.61562 0.66216 0.67315 0.0
H211 H 0.58707 0.63719 0.76669 0.0
S212 S 0.52979 0.29148 0.67903 0.0
N213 N 0.56282 0.36939 0.63622 0.0
N214 N 0.52563 0.34145 0.73684 0.0
C215 C 0.55279 0.42605 0.72297 0.0
C216 C 0.5727 0.44112 0.66857 0.0
C217 C 0.62294 0.5448 0.31023 0.0
C218 C 0.53743 0.55232 0.34355 0.0
C219 C 0.61496 0.53899 0.25593 0.0
C220 C 0.52071 0.53883 0.23311 0.0
H221 H 0.69696 0.5438 0.3262 0.0
H222 H 0.68276 0.53373 0.23155 0.0
S223 S 0.27356 0.55588 0.30264 0.0
N224 N 0.35544 0.55944 0.34981 0.0
N225 N 0.34019 0.54659 0.24714 0.0
C226 C 0.43436 0.54583 0.2657 0.0
C227 C 0.44288 0.55333 0.32115 0.0
loop_
_geom_bond_atom_site_label_1
_geom_bond_atom_site_label_2
_geom_bond_distance
_geom_bond_site_symmetry_2
_ccdc_geom_bond_type
Co0 N5 2.057 . S
Co0 O17 2.021 . S
Co0 O20 2.062 1_455 S
Co0 O24 2.117 1_554 S
Co0 O25 2.020 1_565 S
C1 O21 1.254 1_455 S
C1 O24 1.263 1_545 S
Co2 N11 2.057 . S
Co2 O18 2.117 . S
Co2 O19 2.020 1_545 S
Co2 O21 2.021 1_554 S
Co2 O26 2.062 1_655 S
C3 N5 1.316 . S
C3 N6 1.347 . S
C3 H8 0.931 . S
C4 N5 1.375 1_556 S
C4 C7 1.350 . S
C4 H9 0.930 . S
N5 Co0 2.057 . S
N5 C3 1.316 . S
N5 C4 1.375 1_554 S
N6 C3 1.347 . S
N6 C7 1.373 1_554 S
C7 C4 1.350 . S
C7 N6 1.373 1_556 S
C7 H28 0.931 . S
H8 C3 0.931 . S
H9 C4 0.930 . S
C10 O17 1.259 1_545 S
C10 O18 1.258 1_455 S
N11 Co2 2.057 . S
N11 C12 1.316 . S
N11 C13 1.375 . S
C12 N11 1.316 . S
C12 N14 1.347 . S
C12 H23 0.931 1_554 S
C13 N11 1.375 . S
C13 C15 1.350 . S
C13 H22 0.930 . S
N14 C12 1.347 . S
N14 C15 1.373 . S
C15 C13 1.350 . S
C15 N14 1.373 . S
C15 H29 0.931 . S
C16 O19 1.256 . S
C16 O20 1.255 . S
O17 Co0 2.021 . S
O17 C10 1.259 1_565 S
O18 Co2 2.117 . S
O18 C10 1.258 1_655 S
O19 Co2 2.020 1_565 S
O19 C16 1.256 . S
O20 Co0 2.062 1_655 S
O20 C16 1.255 . S
O21 C1 1.254 1_655 S
O21 Co2 2.021 1_556 S
H22 C13 0.930 . S
H23 C12 0.931 1_556 S
O24 Co0 2.117 1_556 S
O24 C1 1.263 1_565 S
O25 Co0 2.020 1_545 S
O25 C27 1.256 . S
O26 Co2 2.062 1_455 S
O26 C27 1.255 . S
C27 O25 1.256 . S
C27 O26 1.255 . S
H28 C7 0.931 . S
H29 C15 0.931 . S
Co30 N35 2.057 . S
Co30 O47 2.021 . S
Co30 O50 2.062 . S
Co30 O54 2.117 . S
Co30 O55 2.020 . S
C31 O51 1.259 . S
C31 O54 1.258 . S
Co32 N41 2.057 . S
Co32 O48 2.117 . S
Co32 O49 2.020 . S
Co32 O51 2.021 . S
Co32 O56 2.062 . S
C33 N35 1.316 . S
C33 N36 1.347 . S
C33 H38 0.931 . S
C34 N35 1.375 . S
C34 C37 1.350 . S
C34 H39 0.930 . S
N35 Co30 2.057 . S
N35 C33 1.316 . S
N35 C34 1.375 . S
N36 C33 1.347 . S
N36 C37 1.373 . S
C37 C34 1.350 . S
C37 N36 1.373 . S
C37 H58 0.931 . S
H38 C33 0.931 . S
H39 C34 0.930 . S
C40 O47 1.259 . S
C40 O48 1.258 . S
N41 Co32 2.057 . S
N41 C42 1.316 . S
N41 C43 1.375 . S
C42 N41 1.316 . S
C42 N44 1.347 . S
C42 H53 0.931 . S
C43 N41 1.375 . S
C43 C45 1.350 . S
C43 H52 0.930 . S
N44 C42 1.347 . S
N44 C45 1.373 . S
C45 C43 1.350 . S
C45 N44 1.373 . S
C45 H59 0.931 . S
C46 O49 1.256 . S
C46 O50 1.255 . S
O47 Co30 2.021 . S
O47 C40 1.259 . S
O48 Co32 2.117 . S
O48 C40 1.258 . S
O49 Co32 2.020 . S
O49 C46 1.256 . S
O50 Co30 2.062 . S
O50 C46 1.255 . S
O51 C31 1.259 . S
O51 Co32 2.021 . S
H52 C43 0.930 . S
H53 C42 0.931 . S
O54 Co30 2.117 . S
O54 C31 1.258 . S
O55 Co30 2.020 . S
O55 C57 1.256 . S
O56 Co32 2.062 . S
O56 C57 1.255 . S
C57 O55 1.256 . S
C57 O56 1.255 . S
H58 C37 0.931 . S
H59 C45 0.931 . S
H60 C63 0.931 . S
H61 C66 0.928 . S
H62 C68 0.930 . S
C63 H60 0.931 . S
C63 C64 1.413 . S
C63 C65 1.365 . S
C64 C63 1.413 . S
C64 C68 1.429 1_655 S
C65 C63 1.365 . S
C65 C66 1.366 1_645 S
C66 H61 0.928 . S
C66 C65 1.366 1_465 S
C66 C67 1.404 . S
C67 C66 1.404 . S
C67 C68 1.391 1_565 S
C68 H62 0.930 . S
C68 C64 1.429 1_455 S
C68 C67 1.391 1_545 S
H69 C72 0.931 . S
H70 C75 0.928 . S
H71 C77 0.930 . S
C72 H69 0.931 . S
C72 C73 1.413 . S
C72 C74 1.360 1_665 S
C73 C72 1.413 . S
C73 C77 1.429 1_665 S
C74 C72 1.360 1_445 S
C74 C75 1.372 . S
C75 H70 0.928 . S
C75 C74 1.372 . S
C75 C76 1.404 . S
C76 C75 1.404 . S
C76 C77 1.391 . S
C77 H71 0.930 . S
C77 C73 1.429 1_445 S
C77 C76 1.391 . S
H78 C81 0.931 . S
H79 C84 0.928 . S
H80 C86 0.930 1_554 S
C81 H78 0.931 . S
C81 C82 1.413 . S
C81 C83 1.360 . S
C82 C81 1.413 . S
C82 C86 1.429 . S
C83 C81 1.360 . S
C83 C84 1.372 . S
C84 H79 0.928 . S
C84 C83 1.372 . S
C84 C85 1.404 . S
C85 C84 1.404 . S
C85 C86 1.391 . S
C86 H80 0.930 1_556 S
C86 C82 1.429 . S
C86 C85 1.391 . S
H87 C90 0.931 . S
H88 C93 0.928 . S
H89 C95 0.930 . S
C90 H87 0.931 . S
C90 C91 1.413 . S
C90 C92 1.360 . S
C91 C90 1.413 . S
C91 C95 1.429 . S
C92 C90 1.360 . S
C92 C93 1.372 . S
C93 H88 0.928 . S
C93 C92 1.372 . S
C93 C94 1.404 . S
C94 C93 1.404 . S
C94 C95 1.391 . S
C95 H89 0.930 . S
C95 C91 1.429 . S
C95 C94 1.391 . S
C96 C97 1.369 . S
C96 C98 1.419 . S
C96 H100 0.930 . S
C97 C96 1.369 . S
C97 C106 1.429 . S
C98 C96 1.419 . S
C98 C99 1.363 . S
C98 H101 0.929 . S
C99 C98 1.363 . S
C99 C105 1.428 . S
H100 C96 0.930 . S
H101 C98 0.929 . S
S102 N103 1.613 . S
S102 N104 1.610 . S
N103 S102 1.613 . S
N103 C106 1.350 . S
N104 S102 1.610 . S
N104 C105 1.351 . S
C105 C99 1.428 . S
C105 N104 1.351 . S
C105 C106 1.434 . S
C106 C97 1.429 . S
C106 N103 1.350 . S
C106 C105 1.434 . S
C107 C108 1.369 1_556 S
C107 C109 1.419 . S
C107 H111 0.930 . S
C108 C107 1.369 1_554 S
C108 C117 1.429 . S
C109 C107 1.419 . S
C109 C110 1.363 . S
C109 H112 0.929 . S
C110 C109 1.363 . S
C110 C116 1.428 . S
H111 C107 0.930 . S
H112 C109 0.929 . S
S113 N114 1.613 . S
S113 N115 1.610 . S
N114 S113 1.613 . S
N114 C117 1.350 . S
N115 S113 1.610 . S
N115 C116 1.351 1_554 S
C116 C110 1.428 . S
C116 N115 1.351 1_556 S
C116 C117 1.434 1_556 S
C117 C108 1.429 . S
C117 N114 1.350 . S
C117 C116 1.434 1_554 S
C118 C119 1.369 . S
C118 C120 1.419 . S
C118 H122 0.930 1_554 S
C119 C118 1.369 . S
C119 C128 1.429 . S
C120 C118 1.419 . S
C120 C121 1.363 . S
C120 H123 0.929 . S
C121 C120 1.363 . S
C121 C127 1.428 . S
H122 C118 0.930 1_556 S
H123 C120 0.929 . S
S124 N125 1.613 . S
S124 N126 1.610 . S
N125 S124 1.613 . S
N125 C128 1.350 . S
N126 S124 1.610 . S
N126 C127 1.351 . S
C127 C121 1.428 . S
C127 N126 1.351 . S
C127 C128 1.434 . S
C128 C119 1.429 . S
C128 N125 1.350 . S
C128 C127 1.434 . S
C129 C130 1.369 1_556 S
C129 C131 1.419 . S
C129 H133 0.930 . S
C130 C129 1.369 1_554 S
C130 C139 1.429 . S
C131 C129 1.419 . S
C131 C132 1.363 . S
C131 H134 0.929 . S
C132 C131 1.363 . S
C132 C138 1.428 1_556 S
H133 C129 0.930 . S
H134 C131 0.929 . S
S135 N136 1.613 . S
S135 N137 1.610 . S
N136 S135 1.613 . S
N136 C139 1.350 . S
N137 S135 1.610 . S
N137 C138 1.351 . S
C138 C132 1.428 1_554 S
C138 N137 1.351 . S
C138 C139 1.434 . S
C139 C130 1.429 . S
C139 N136 1.350 . S
C139 C138 1.434 . S
C140 C141 1.369 . S
C140 C142 1.419 . S
C140 H144 0.930 . S
C141 C140 1.369 . S
C141 C150 1.429 . S
C142 C140 1.419 . S
C142 C143 1.363 . S
C142 H145 0.929 . S
C143 C142 1.363 . S
C143 C149 1.428 . S
H144 C140 0.930 . S
H145 C142 0.929 . S
S146 N147 1.613 . S
S146 N148 1.610 . S
N147 S146 1.613 . S
N147 C150 1.350 . S
N148 S146 1.610 . S
N148 C149 1.351 . S
C149 C143 1.428 . S
C149 N148 1.351 . S
C149 C150 1.434 . S
C150 C141 1.429 . S
C150 N147 1.350 . S
C150 C149 1.434 . S
C151 C152 1.369 . S
C151 C153 1.419 . S
C151 H155 0.930 . S
C152 C151 1.369 . S
C152 C161 1.429 . S
C153 C151 1.419 . S
C153 C154 1.363 . S
C153 H156 0.929 . S
C154 C153 1.363 . S
C154 C160 1.428 . S
H155 C151 0.930 . S
H156 C153 0.929 . S
S157 N158 1.613 . S
S157 N159 1.610 . S
N158 S157 1.613 . S
N158 C161 1.350 . S
N159 S157 1.610 . S
N159 C160 1.351 . S
C160 C154 1.428 . S
C160 N159 1.351 . S
C160 C161 1.434 . S
C161 C152 1.429 . S
C161 N158 1.350 . S
C161 C160 1.434 . S
C162 C163 1.369 . S
C162 C164 1.419 . S
C162 H166 0.930 . S
C163 C162 1.369 . S
C163 C172 1.429 . S
C164 C162 1.419 . S
C164 C165 1.363 . S
C164 H167 0.929 . S
C165 C164 1.363 . S
C165 C171 1.428 . S
H166 C162 0.930 . S
H167 C164 0.929 . S
S168 N169 1.613 . S
S168 N170 1.610 . S
N169 S168 1.613 . S
N169 C172 1.350 . S
N170 S168 1.610 . S
N170 C171 1.351 . S
C171 C165 1.428 . S
C171 N170 1.351 . S
C171 C172 1.434 . S
C172 C163 1.429 . S
C172 N169 1.350 . S
C172 C171 1.434 . S
C173 C174 1.369 . S
C173 C175 1.419 . S
C173 H177 0.930 . S
C174 C173 1.369 . S
C174 C183 1.429 . S
C175 C173 1.419 . S
C175 C176 1.363 . S
C175 H178 0.929 . S
C176 C175 1.363 . S
C176 C182 1.428 . S
H177 C173 0.930 . S
H178 C175 0.929 . S
S179 N180 1.613 1_545 S
S179 N181 1.610 . S
N180 S179 1.613 1_565 S
N180 C183 1.350 . S
N181 S179 1.610 . S
N181 C182 1.351 1_545 S
C182 C176 1.428 . S
C182 N181 1.351 1_565 S
C182 C183 1.434 . S
C183 C174 1.429 . S
C183 N180 1.350 . S
C183 C182 1.434 . S
C184 C185 1.369 1_665 S
C184 C186 1.419 . S
C184 H188 0.930 . S
C185 C184 1.369 1_445 S
C185 C194 1.429 . S
C186 C184 1.419 . S
C186 C187 1.363 1_665 S
C186 H189 0.929 . S
C187 C186 1.363 1_445 S
C187 C193 1.428 . S
H188 C184 0.930 . S
H189 C186 0.929 . S
S190 N191 1.613 . S
S190 N192 1.610 . S
N191 S190 1.613 . S
N191 C194 1.350 . S
N192 S190 1.610 . S
N192 C193 1.351 . S
C193 C187 1.428 . S
C193 N192 1.351 . S
C193 C194 1.434 . S
C194 C185 1.429 . S
C194 N191 1.350 . S
C194 C193 1.434 . S
C195 C196 1.369 . S
C195 C197 1.419 . S
C195 H199 0.930 . S
C196 C195 1.369 . S
C196 C205 1.429 1_445 S
C197 C195 1.419 . S
C197 C198 1.363 . S
C197 H200 0.929 . S
C198 C197 1.363 . S
C198 C204 1.428 1_445 S
H199 C195 0.930 . S
H200 C197 0.929 . S
S201 N202 1.613 . S
S201 N203 1.610 . S
N202 S201 1.613 . S
N202 C205 1.350 . S
N203 S201 1.610 . S
N203 C204 1.351 . S
C204 C198 1.428 1_665 S
C204 N203 1.351 . S
C204 C205 1.434 . S
C205 C196 1.429 1_665 S
C205 N202 1.350 . S
C205 C204 1.434 . S
C206 C207 1.369 . S
C206 C208 1.419 . S
C206 H210 0.930 . S
C207 C206 1.369 . S
C207 C216 1.429 . S
C208 C206 1.419 . S
C208 C209 1.363 . S
C208 H211 0.929 . S
C209 C208 1.363 . S
C209 C215 1.428 . S
H210 C206 0.930 . S
H211 C208 0.929 . S
S212 N213 1.613 . S
S212 N214 1.610 . S
N213 S212 1.613 . S
N213 C216 1.350 . S
N214 S212 1.610 . S
N214 C215 1.351 . S
C215 C209 1.428 . S
C215 N214 1.351 . S
C215 C216 1.434 . S
C216 C207 1.429 . S
C216 N213 1.350 . S
C216 C215 1.434 . S
C217 C218 1.369 . S
C217 C219 1.419 . S
C217 H221 0.930 . S
C218 C217 1.369 . S
C218 C227 1.429 . S
C219 C217 1.419 . S
C219 C220 1.363 . S
C219 H222 0.929 . S
C220 C219 1.363 . S
C220 C226 1.428 . S
H221 C217 0.930 . S
H222 C219 0.929 . S
S223 N224 1.613 . S
S223 N225 1.610 . S
N224 S223 1.613 . S
N224 C227 1.350 . S
N225 S223 1.610 . S
N225 C226 1.351 . S
C226 C220 1.428 . S
C226 N225 1.351 . S
C226 C227 1.434 . S
C227 C218 1.429 . S
C227 N224 1.350 . S
C227 C226 1.434 . S
C99 C91 1.450 . S
C97 C27 1.453 . S
C108 N6 1.353 . S
C110 C82 1.441 . S
C119 C16 1.443 . S
C121 C94 1.442 . S
C130 N14 1.429 . S
C132 C85 1.434 . S
C141 C57 1.452 . S
C143 C73 1.449 . S
C152 N36 1.362 . S
C154 C64 1.443 . S
C165 C76 1.444 . S
C163 C46 1.444 . S
C176 C67 1.434 . S
C174 N44 1.432 . S
C185 C10 1.394 . S
C187 C65 1.399 1_455 S
C196 C1 1.544 . S
C198 C74 1.548 . S
C209 C83 1.399 . S
C207 C40 1.395 . S
C218 C31 1.542 . S
C220 C92 1.548 . S
