# Generated by pormake.
# Topology rtl, (3,6)-cn, num edge types: 1
# Building blocks:
#     Node 0, Type 0, BuildingBlock: BETDIP_clean_linker_0, # of connection points: 3
#     Node 1, Type 0, BuildingBlock: BETDIP_clean_linker_0, # of connection points: 3
#     Node 2, Type 0, BuildingBlock: BETDIP_clean_linker_0, # of connection points: 3
#     Node 3, Type 0, BuildingBlock: BETDIP_clean_linker_0, # of connection points: 3
#     Node 4, Type 1, BuildingBlock: VOLQOD_clean_sbu_1, # of connection points: 6
#     Node 5, Type 1, BuildingBlock: VOLQOD_clean_sbu_1, # of connection points: 6
#     Edge 6, Type (0, 1), BuildingBlock: OJICUG_clean_linker_0, # of connection points: 2
#     Edge 7, Type (0, 1), BuildingBlock: OJICUG_clean_linker_0, # of connection points: 2
#     Edge 8, Type (0, 1), BuildingBlock: OJICUG_clean_linker_0, # of connection points: 2
#     Edge 9, Type (0, 1), BuildingBlock: OJICUG_clean_linker_0, # of connection points: 2
#     Edge 10, Type (0, 1), BuildingBlock: OJICUG_clean_linker_0, # of connection points: 2
#     Edge 11, Type (0, 1), BuildingBlock: OJICUG_clean_linker_0, # of connection points: 2
#     Edge 12, Type (0, 1), BuildingBlock: OJICUG_clean_linker_0, # of connection points: 2
#     Edge 13, Type (0, 1), BuildingBlock: OJICUG_clean_linker_0, # of connection points: 2
#     Edge 14, Type (0, 1), BuildingBlock: OJICUG_clean_linker_0, # of connection points: 2
#     Edge 15, Type (0, 1), BuildingBlock: OJICUG_clean_linker_0, # of connection points: 2
#     Edge 16, Type (0, 1), BuildingBlock: OJICUG_clean_linker_0, # of connection points: 2
#     Edge 17, Type (0, 1), BuildingBlock: OJICUG_clean_linker_0, # of connection points: 2
# Relax obj value: 0.041
# Max RMSD: 0.143
# Mean RMSD: 0.091
data_MOF--net-rtl--node1-VOLQOD_clean_sbu_1--node2-BETDIP_clean_linker_0--edge1-OJICUG_clean_linker_0
_symmetry_space_group_name_H-M    P1
_symmetry_Int_Tables_number       1
_symmetry_cell_setting            triclinic
loop_
_symmetry_equiv_pos_as_xyz
'x, y, z'
_cell_length_a     28.047905
_cell_length_b     27.969245
_cell_length_c     16.817364
_cell_angle_alpha  92.049301
_cell_angle_beta   91.651076
_cell_angle_gamma 90.10609
loop_
_atom_site_label
_atom_site_type_symbol
_atom_site_fract_x
_atom_site_fract_y
_atom_site_fract_z
_atom_type_partial_charge
H0 H 0.18053 0.78158 0.84178 0.0
H1 H 0.1852 0.78622 0.09859 0.0
H2 H 0.10729 0.89248 -0.02796 0.0
H3 H 0.21379 0.71303 0.08646 0.0
C4 C 0.23139 0.71004 0.02989 0.0
C5 C 0.16981 0.79785 0.89792 0.0
C6 C 0.14255 0.83973 0.89867 0.0
C7 C 0.18505 0.77773 0.96941 0.0
C8 C 0.17249 0.79992 0.0426 0.0
C9 C 0.14483 0.84171 0.04364 0.0
C10 C 0.12959 0.86083 -0.02847 0.0
N11 N 0.21568 0.73741 0.96475 0.0
H12 H 0.69344 0.7344 0.65161 0.0
H13 H 0.69268 0.72863 0.39524 0.0
H14 H 0.59661 0.6401 0.51905 0.0
H15 H 0.77476 0.74043 0.42632 0.0
C16 C 0.77044 0.77099 0.46726 0.0
C17 C 0.67921 0.71977 0.59526 0.0
C18 C 0.64217 0.68582 0.59384 0.0
C19 C 0.69823 0.73471 0.52389 0.0
C20 C 0.6794 0.7161 0.45064 0.0
C21 C 0.64225 0.68247 0.44855 0.0
C22 C 0.6242 0.66736 0.52033 0.0
N23 N 0.73558 0.76916 0.52674 0.0
H24 H 0.80826 0.21524 0.85108 0.0
H25 H 0.81215 0.22357 0.10737 0.0
H26 H 0.90861 0.13045 -0.01746 0.0
H27 H 0.79553 0.30651 0.07047 0.0
C28 C 0.76608 0.29803 0.02891 0.0
C29 C 0.8233 0.20369 0.90729 0.0
C30 C 0.86118 0.17108 0.90823 0.0
C31 C 0.80628 0.2236 -0.02135 0.0
C32 C 0.82579 0.209 0.052 0.0
C33 C 0.86296 0.17544 0.0536 0.0
C34 C 0.88037 0.15688 -0.01845 0.0
N35 N 0.76943 0.25815 -0.02525 0.0
H36 H 0.33799 0.27773 0.35078 0.0
H37 H 0.33447 0.28293 0.6074 0.0
H38 H 0.41555 0.38655 0.48701 0.0
H39 H 0.29925 0.21304 0.59385 0.0
C40 C 0.28251 0.21 0.53494 0.0
C41 C 0.34973 0.29351 0.40785 0.0
C42 C 0.3785 0.33452 0.41085 0.0
C43 C 0.3338 0.27411 0.47813 0.0
C44 C 0.34759 0.29592 0.55238 0.0
C45 C 0.37683 0.33677 0.55561 0.0
C46 C 0.39254 0.35527 0.48474 0.0
N47 N 0.30096 0.23534 0.4709 0.0
O48 O 0.89923 0.96639 0.46956 0.0
Zn49 Zn 0.93966 0.02701 0.47376 0.0
O50 O 0.00821 0.0111 0.47573 0.0
Zn51 Zn 0.03775 0.03628 0.57395 0.0
Zn52 Zn 0.01682 0.94156 0.46946 0.0
Zn53 Zn 0.04042 0.03973 0.38777 0.0
O54 O 0.09289 0.0792 0.55586 0.0
O55 O 0.09531 0.08289 0.42476 0.0
O56 O 0.92185 0.06583 0.57293 0.0
O57 O 0.99115 0.07265 0.63941 0.0
O58 O 0.06386 0.98394 0.63884 0.0
O59 O 0.05175 0.91709 0.56621 0.0
O60 O 0.05313 0.92048 0.3734 0.0
O61 O 0.92308 0.06661 0.37767 0.0
O62 O 0.06805 0.98871 0.3154 0.0
O63 O 0.99354 0.07767 0.32364 0.0
C64 C 0.9103 0.9222 0.46384 0.0
C65 C 0.11197 0.09448 0.49403 0.0
C66 C 0.06797 0.9389 0.62897 0.0
C67 C 0.94675 0.08137 0.63303 0.0
C68 C 0.07105 0.94332 0.31739 0.0
C69 C 0.94869 0.08477 0.32488 0.0
O70 O 0.95354 0.90868 0.46178 0.0
O71 O 0.61708 0.47601 0.00882 0.0
Zn72 Zn 0.57314 0.53346 0.00723 0.0
O73 O 0.50597 0.51253 0.00164 0.0
Zn74 Zn 0.47278 0.53918 0.91005 0.0
Zn75 Zn 0.50191 0.4423 -0.00529 0.0
Zn76 Zn 0.47438 0.53581 0.09625 0.0
O77 O 0.41626 0.57996 0.94055 0.0
O78 O 0.41766 0.57612 0.07183 0.0
O79 O 0.58821 0.57373 0.91281 0.0
O80 O 0.51766 0.57954 0.85029 0.0
O81 O 0.44794 0.4865 0.83568 0.0
O82 O 0.46742 0.419 0.89393 0.0
O83 O 0.46743 0.41571 0.08762 0.0
O84 O 0.58786 0.57357 0.10787 0.0
O85 O 0.45054 0.48191 0.15755 0.0
O86 O 0.51837 0.57474 0.1676 0.0
C87 C 0.60961 0.431 0.003 0.0
C88 C 0.39869 0.5908 0.00775 0.0
C89 C 0.44788 0.44097 0.8366 0.0
C90 C 0.56192 0.58979 0.85668 0.0
C91 C 0.44922 0.43666 0.14791 0.0
C92 C 0.56201 0.58688 0.16564 0.0
O93 O 0.56757 0.41381 -0.00422 0.0
C94 C 0.21882 0.15965 0.58881 0.0
C95 C 0.23921 0.18019 0.52302 0.0
H96 H 0.16253 0.1169 0.63151 0.0
C97 C 0.21742 0.17281 0.44723 0.0
H98 H 0.23491 0.16495 0.64783 0.0
C99 C 0.17591 0.14516 0.43758 0.0
C100 C 0.15531 0.12467 0.50359 0.0
H101 H 0.23235 0.18826 0.39529 0.0
H102 H 0.15999 0.13992 0.37845 0.0
C103 C 0.17725 0.13231 0.57933 0.0
C104 C 0.29569 0.67116 0.94943 0.0
C105 C 0.27316 0.67834 0.02249 0.0
H106 H 0.35303 0.63773 0.8873 0.0
C107 C 0.2916 0.65604 0.08996 0.0
H108 H 0.2822 0.68787 0.89624 0.0
C109 C 0.33231 0.62759 0.08501 0.0
C110 C 0.35525 0.62062 0.01218 0.0
H111 H 0.27485 0.66108 0.14691 0.0
H112 H 0.34577 0.61112 0.13845 0.0
C113 C 0.33628 0.64242 0.94428 0.0
C114 C 0.79611 0.85541 0.50328 0.0
C115 C 0.80493 0.81079 0.46552 0.0
H116 H 0.82238 0.92645 0.53079 0.0
C117 C 0.8473 0.80396 0.4245 0.0
H118 H 0.7634 0.86168 0.53467 0.0
C119 C 0.88112 0.84052 0.42324 0.0
C120 C 0.87273 0.88508 0.46144 0.0
H121 H 0.8547 0.76995 0.39455 0.0
H122 H 0.91395 0.83385 0.39234 0.0
C123 C 0.8296 0.89251 0.50052 0.0
C124 C 0.73095 0.3789 0.0535 0.0
C125 C 0.72625 0.33215 0.02107 0.0
H126 H 0.69799 0.44737 0.07173 0.0
C127 C 0.68344 0.31838 -0.01869 0.0
H128 H 0.7637 0.39027 0.08434 0.0
C129 C 0.64569 0.35067 -0.02491 0.0
C130 C 0.65034 0.3976 0.00721 0.0
H131 H 0.67878 0.28247 0.956 0.0
H132 H 0.61288 0.33888 0.94488 0.0
C133 C 0.69351 0.41156 0.04587 0.0
C134 C 0.13534 0.91669 0.12656 0.0
C135 C 0.13169 0.86661 0.11902 0.0
H136 H 0.11919 0.9801 0.1948 0.0
C137 C 0.11157 0.84144 0.18055 0.0
H138 H 0.15146 0.93692 0.08054 0.0
C139 C 0.09305 0.86623 0.24644 0.0
C140 C 0.09443 0.91659 0.25182 0.0
H141 H 0.1082 0.80284 0.17602 0.0
H142 H 0.07629 0.84599 0.29177 0.0
C143 C 0.11685 0.94141 0.19206 0.0
C144 C 0.6521 0.65029 0.72853 0.0
C145 C 0.62223 0.66796 0.66791 0.0
H146 H 0.65656 0.61134 0.83609 0.0
C147 C 0.57261 0.66368 0.67409 0.0
H148 H 0.69051 0.65295 0.72493 0.0
C149 C 0.55323 0.63978 0.73692 0.0
C150 C 0.58299 0.61954 0.79534 0.0
H151 H 0.54873 0.67756 0.62871 0.0
H152 H 0.51481 0.63606 0.73827 0.0
C153 C 0.63264 0.62621 0.79177 0.0
C154 C 0.85542 0.14055 0.18837 0.0
C155 C 0.88417 0.15871 0.12937 0.0
H156 H 0.85318 0.10253 0.29676 0.0
C157 C 0.93397 0.15626 0.13912 0.0
H158 H 0.81691 0.14184 0.182 0.0
C159 C 0.95469 0.13378 0.20411 0.0
C160 C 0.92612 0.11306 0.26108 0.0
H161 H 0.95696 0.17053 0.09498 0.0
H162 H 0.99322 0.13148 0.20826 0.0
C163 C 0.87623 0.11781 0.25369 0.0
C164 C 0.38575 0.41214 0.63832 0.0
C165 C 0.38997 0.36214 0.63187 0.0
H166 H 0.40049 0.47607 0.70761 0.0
C167 C 0.41016 0.33759 0.69588 0.0
H168 H 0.36963 0.43186 0.59024 0.0
C169 C 0.42803 0.36301 0.7636 0.0
C170 C 0.42579 0.41333 0.76836 0.0
H171 H 0.41389 0.29904 0.69218 0.0
H172 H 0.44474 0.34331 0.81114 0.0
C173 C 0.40345 0.43744 0.70566 0.0
C174 C 0.65183 0.64622 0.31095 0.0
C175 C 0.62203 0.66243 0.37202 0.0
H176 H 0.6563 0.60942 0.19736 0.0
C177 C 0.57247 0.65685 0.36168 0.0
H178 H 0.6902 0.64993 0.31752 0.0
C179 C 0.55315 0.63359 0.29357 0.0
C180 C 0.58291 0.61541 0.23386 0.0
H181 H 0.54857 0.66982 0.40706 0.0
H182 H 0.5148 0.6291 0.28859 0.0
C183 C 0.63242 0.62288 0.24238 0.0
C184 C 0.85333 0.13413 0.76971 0.0
C185 C 0.88218 0.15232 0.83355 0.0
H186 H 0.85108 0.09712 0.65566 0.0
C187 C 0.93196 0.15036 0.82779 0.0
H188 H 0.81483 0.1352 0.77273 0.0
C189 C 0.9526 0.12865 0.76151 0.0
C190 C 0.924 0.10837 0.69904 0.0
H191 H 0.95507 0.16499 0.87539 0.0
H192 H 0.99116 0.12698 0.76018 0.0
C193 C 0.87409 0.11224 0.70293 0.0
C194 C 0.38439 0.40789 0.33329 0.0
C195 C 0.39173 0.35849 0.33788 0.0
H196 H 0.39637 0.471 0.26974 0.0
C197 C 0.41455 0.33368 0.27575 0.0
H198 H 0.3661 0.42764 0.37985 0.0
C199 C 0.43217 0.35865 0.212 0.0
C200 C 0.42697 0.40863 0.20981 0.0
H201 H 0.42051 0.2955 0.27822 0.0
H202 H 0.45117 0.33912 0.16609 0.0
C203 C 0.40179 0.43267 0.27012 0.0
C204 C 0.10605 0.83763 0.76049 0.0
C205 C 0.12851 0.86328 0.82443 0.0
H206 H 0.06883 0.8416 0.64771 0.0
C207 C 0.13452 0.91291 0.82008 0.0
H208 H 0.10103 0.79929 0.76267 0.0
C209 C 0.11603 0.93699 0.75533 0.0
C210 C 0.09126 0.91196 0.69309 0.0
H211 H 0.15258 0.93336 0.86797 0.0
H212 H 0.12036 0.97548 0.75502 0.0
C213 C 0.08751 0.86185 0.69509 0.0
loop_
_geom_bond_atom_site_label_1
_geom_bond_atom_site_label_2
_geom_bond_distance
_geom_bond_site_symmetry_2
_ccdc_geom_bond_type
H0 C5 0.930 . S
H1 C8 0.930 . S
H2 C10 0.930 . S
H3 C4 1.016 . S
C4 H3 1.016 . S
C4 N11 1.286 1_554 S
C5 H0 0.930 . S
C5 C6 1.397 . S
C5 C7 1.361 1_556 S
C6 C5 1.397 . S
C6 C10 1.390 1_556 S
C7 C5 1.361 1_554 S
C7 C8 1.393 . S
C7 N11 1.413 1_554 S
C8 H1 0.930 . S
C8 C7 1.393 . S
C8 C9 1.399 . S
C9 C8 1.399 . S
C9 C10 1.381 . S
C10 H2 0.930 . S
C10 C6 1.390 1_554 S
C10 C9 1.381 . S
N11 C4 1.286 1_556 S
N11 C7 1.413 1_556 S
H12 C17 0.930 . S
H13 C20 0.930 . S
H14 C22 0.930 . S
H15 C16 1.016 . S
C16 H15 1.016 . S
C16 N23 1.286 . S
C17 H12 0.930 . S
C17 C18 1.397 . S
C17 C19 1.361 . S
C18 C17 1.397 . S
C18 C22 1.390 . S
C19 C17 1.361 . S
C19 C20 1.393 . S
C19 N23 1.413 . S
C20 H13 0.930 . S
C20 C19 1.393 . S
C20 C21 1.399 . S
C21 C20 1.399 . S
C21 C22 1.381 . S
C22 H14 0.930 . S
C22 C18 1.390 . S
C22 C21 1.381 . S
N23 C16 1.286 . S
N23 C19 1.413 . S
H24 C29 0.930 . S
H25 C32 0.930 . S
H26 C34 0.930 . S
H27 C28 1.016 . S
C28 H27 1.016 . S
C28 N35 1.286 1_554 S
C29 H24 0.930 . S
C29 C30 1.397 . S
C29 C31 1.361 1_556 S
C30 C29 1.397 . S
C30 C34 1.390 1_556 S
C31 C29 1.361 1_554 S
C31 C32 1.393 . S
C31 N35 1.413 1_554 S
C32 H25 0.930 . S
C32 C31 1.393 . S
C32 C33 1.399 . S
C33 C32 1.399 . S
C33 C34 1.381 . S
C34 H26 0.930 . S
C34 C30 1.390 1_554 S
C34 C33 1.381 . S
N35 C28 1.286 1_556 S
N35 C31 1.413 1_556 S
H36 C41 0.930 . S
H37 C44 0.930 . S
H38 C46 0.930 . S
H39 C40 1.016 . S
C40 H39 1.016 . S
C40 N47 1.286 . S
C41 H36 0.930 . S
C41 C42 1.397 . S
C41 C43 1.361 . S
C42 C41 1.397 . S
C42 C46 1.390 . S
C43 C41 1.361 . S
C43 C44 1.393 . S
C43 N47 1.413 . S
C44 H37 0.930 . S
C44 C43 1.393 . S
C44 C45 1.399 . S
C45 C44 1.399 . S
C45 C46 1.381 . S
C46 H38 0.930 . S
C46 C42 1.390 . S
C46 C45 1.381 . S
N47 C40 1.286 . S
N47 C43 1.413 . S
O48 Zn49 1.953 1_565 S
O48 C64 1.225 . S
Zn49 O48 1.953 1_545 S
Zn49 O50 1.949 1_655 S
Zn49 O56 1.919 . S
Zn49 O61 1.924 . S
O50 Zn49 1.949 1_455 S
O50 Zn51 1.923 . S
O50 Zn52 1.950 1_545 S
O50 Zn53 1.945 . S
Zn51 O50 1.923 . S
Zn51 O54 1.933 . S
Zn51 O57 1.941 . S
Zn51 O58 1.965 1_545 S
Zn52 O50 1.950 1_565 S
Zn52 O59 1.938 . S
Zn52 O60 1.906 . S
Zn52 O70 1.953 1_455 S
Zn53 O50 1.945 . S
Zn53 O55 1.932 . S
Zn53 O62 1.977 1_545 S
Zn53 O63 1.910 1_455 S
O54 Zn51 1.933 . S
O54 C65 1.226 . S
O55 Zn53 1.932 . S
O55 C65 1.307 . S
O56 Zn49 1.919 . S
O56 C67 1.253 . S
O57 Zn51 1.941 . S
O57 C67 1.283 1_455 S
O58 Zn51 1.965 1_565 S
O58 C66 1.303 . S
O59 Zn52 1.938 . S
O59 C66 1.247 . S
O60 Zn52 1.906 . S
O60 C68 1.304 . S
O61 Zn49 1.924 . S
O61 C69 1.311 . S
O62 Zn53 1.977 1_565 S
O62 C68 1.272 . S
O63 Zn53 1.910 1_655 S
O63 C69 1.231 . S
C64 O48 1.225 . S
C64 O70 1.298 . S
C65 O54 1.226 . S
C65 O55 1.307 . S
C66 O58 1.303 . S
C66 O59 1.247 . S
C67 O56 1.253 . S
C67 O57 1.283 1_655 S
C68 O60 1.304 . S
C68 O62 1.272 . S
C69 O61 1.311 . S
C69 O63 1.231 . S
O70 Zn52 1.953 1_655 S
O70 C64 1.298 . S
O71 Zn72 1.953 . S
O71 C87 1.225 . S
Zn72 O71 1.953 . S
Zn72 O73 1.949 . S
Zn72 O79 1.919 1_554 S
Zn72 O84 1.924 . S
O73 Zn72 1.949 . S
O73 Zn74 1.923 1_554 S
O73 Zn75 1.950 . S
O73 Zn76 1.945 . S
Zn74 O73 1.923 1_556 S
Zn74 O77 1.933 . S
Zn74 O80 1.941 . S
Zn74 O81 1.965 . S
Zn75 O73 1.950 . S
Zn75 O82 1.938 1_554 S
Zn75 O83 1.906 . S
Zn75 O93 1.953 . S
Zn76 O73 1.945 . S
Zn76 O78 1.932 . S
Zn76 O85 1.977 . S
Zn76 O86 1.910 . S
O77 Zn74 1.933 . S
O77 C88 1.226 1_556 S
O78 Zn76 1.932 . S
O78 C88 1.307 . S
O79 Zn72 1.919 1_556 S
O79 C90 1.253 . S
O80 Zn74 1.941 . S
O80 C90 1.283 . S
O81 Zn74 1.965 . S
O81 C89 1.303 . S
O82 Zn75 1.938 1_556 S
O82 C89 1.247 . S
O83 Zn75 1.906 . S
O83 C91 1.304 . S
O84 Zn72 1.924 . S
O84 C92 1.311 . S
O85 Zn76 1.977 . S
O85 C91 1.272 . S
O86 Zn76 1.910 . S
O86 C92 1.231 . S
C87 O71 1.225 . S
C87 O93 1.298 . S
C88 O77 1.226 1_554 S
C88 O78 1.307 . S
C89 O81 1.303 . S
C89 O82 1.247 . S
C90 O79 1.253 . S
C90 O80 1.283 . S
C91 O83 1.304 . S
C91 O85 1.272 . S
C92 O84 1.311 . S
C92 O86 1.231 . S
O93 Zn75 1.953 . S
O93 C87 1.298 . S
C94 C95 1.387 . S
C94 H98 0.950 . S
C94 C103 1.390 . S
C95 C94 1.387 . S
C95 C97 1.387 . S
H96 C103 0.950 . S
C97 C95 1.387 . S
C97 C99 1.390 . S
C97 H101 0.950 . S
H98 C94 0.950 . S
C99 C97 1.390 . S
C99 C100 1.387 . S
C99 H102 0.950 . S
C100 C99 1.387 . S
C100 C103 1.387 . S
H101 C97 0.950 . S
H102 C99 0.950 . S
C103 C94 1.390 . S
C103 H96 0.950 . S
C103 C100 1.387 . S
C104 C105 1.387 1_556 S
C104 H108 0.950 . S
C104 C113 1.390 . S
C105 C104 1.387 1_554 S
C105 C107 1.387 . S
H106 C113 0.950 . S
C107 C105 1.387 . S
C107 C109 1.390 . S
C107 H111 0.950 . S
H108 C104 0.950 . S
C109 C107 1.390 . S
C109 C110 1.387 . S
C109 H112 0.950 . S
C110 C109 1.387 . S
C110 C113 1.387 1_554 S
H111 C107 0.950 . S
H112 C109 0.950 . S
C113 C104 1.390 . S
C113 H106 0.950 . S
C113 C110 1.387 1_556 S
C114 C115 1.387 . S
C114 H118 0.950 . S
C114 C123 1.390 . S
C115 C114 1.387 . S
C115 C117 1.387 . S
H116 C123 0.950 . S
C117 C115 1.387 . S
C117 C119 1.390 . S
C117 H121 0.950 . S
H118 C114 0.950 . S
C119 C117 1.390 . S
C119 C120 1.387 . S
C119 H122 0.950 . S
C120 C119 1.387 . S
C120 C123 1.387 . S
H121 C117 0.950 . S
H122 C119 0.950 . S
C123 C114 1.390 . S
C123 H116 0.950 . S
C123 C120 1.387 . S
C124 C125 1.387 . S
C124 H128 0.950 . S
C124 C133 1.390 . S
C125 C124 1.387 . S
C125 C127 1.387 1_554 S
H126 C133 0.950 . S
C127 C125 1.387 1_556 S
C127 C129 1.390 . S
C127 H131 0.950 . S
H128 C124 0.950 . S
C129 C127 1.390 . S
C129 C130 1.387 1_556 S
C129 H132 0.950 . S
C130 C129 1.387 1_554 S
C130 C133 1.387 . S
H131 C127 0.950 . S
H132 C129 0.950 . S
C133 C124 1.390 . S
C133 H126 0.950 . S
C133 C130 1.387 . S
C134 C135 1.387 . S
C134 H138 0.950 . S
C134 C143 1.390 . S
C135 C134 1.387 . S
C135 C137 1.387 . S
H136 C143 0.950 . S
C137 C135 1.387 . S
C137 C139 1.390 . S
C137 H141 0.950 . S
H138 C134 0.950 . S
C139 C137 1.390 . S
C139 C140 1.387 . S
C139 H142 0.950 . S
C140 C139 1.387 . S
C140 C143 1.387 . S
H141 C137 0.950 . S
H142 C139 0.950 . S
C143 C134 1.390 . S
C143 H136 0.950 . S
C143 C140 1.387 . S
C144 C145 1.387 . S
C144 H148 0.950 . S
C144 C153 1.390 . S
C145 C144 1.387 . S
C145 C147 1.387 . S
H146 C153 0.950 . S
C147 C145 1.387 . S
C147 C149 1.390 . S
C147 H151 0.950 . S
H148 C144 0.950 . S
C149 C147 1.390 . S
C149 C150 1.387 . S
C149 H152 0.950 . S
C150 C149 1.387 . S
C150 C153 1.387 . S
H151 C147 0.950 . S
H152 C149 0.950 . S
C153 C144 1.390 . S
C153 H146 0.950 . S
C153 C150 1.387 . S
C154 C155 1.387 . S
C154 H158 0.950 . S
C154 C163 1.390 . S
C155 C154 1.387 . S
C155 C157 1.387 . S
H156 C163 0.950 . S
C157 C155 1.387 . S
C157 C159 1.390 . S
C157 H161 0.950 . S
H158 C154 0.950 . S
C159 C157 1.390 . S
C159 C160 1.387 . S
C159 H162 0.950 . S
C160 C159 1.387 . S
C160 C163 1.387 . S
H161 C157 0.950 . S
H162 C159 0.950 . S
C163 C154 1.390 . S
C163 H156 0.950 . S
C163 C160 1.387 . S
C164 C165 1.387 . S
C164 H168 0.950 . S
C164 C173 1.390 . S
C165 C164 1.387 . S
C165 C167 1.387 . S
H166 C173 0.950 . S
C167 C165 1.387 . S
C167 C169 1.390 . S
C167 H171 0.950 . S
H168 C164 0.950 . S
C169 C167 1.390 . S
C169 C170 1.387 . S
C169 H172 0.950 . S
C170 C169 1.387 . S
C170 C173 1.387 . S
H171 C167 0.950 . S
H172 C169 0.950 . S
C173 C164 1.390 . S
C173 H166 0.950 . S
C173 C170 1.387 . S
C174 C175 1.387 . S
C174 H178 0.950 . S
C174 C183 1.390 . S
C175 C174 1.387 . S
C175 C177 1.387 . S
H176 C183 0.950 . S
C177 C175 1.387 . S
C177 C179 1.390 . S
C177 H181 0.950 . S
H178 C174 0.950 . S
C179 C177 1.390 . S
C179 C180 1.387 . S
C179 H182 0.950 . S
C180 C179 1.387 . S
C180 C183 1.387 . S
H181 C177 0.950 . S
H182 C179 0.950 . S
C183 C174 1.390 . S
C183 H176 0.950 . S
C183 C180 1.387 . S
C184 C185 1.387 . S
C184 H188 0.950 . S
C184 C193 1.390 . S
C185 C184 1.387 . S
C185 C187 1.387 . S
H186 C193 0.950 . S
C187 C185 1.387 . S
C187 C189 1.390 . S
C187 H191 0.950 . S
H188 C184 0.950 . S
C189 C187 1.390 . S
C189 C190 1.387 . S
C189 H192 0.950 . S
C190 C189 1.387 . S
C190 C193 1.387 . S
H191 C187 0.950 . S
H192 C189 0.950 . S
C193 C184 1.390 . S
C193 H186 0.950 . S
C193 C190 1.387 . S
C194 C195 1.387 . S
C194 H198 0.950 . S
C194 C203 1.390 . S
C195 C194 1.387 . S
C195 C197 1.387 . S
H196 C203 0.950 . S
C197 C195 1.387 . S
C197 C199 1.390 . S
C197 H201 0.950 . S
H198 C194 0.950 . S
C199 C197 1.390 . S
C199 C200 1.387 . S
C199 H202 0.950 . S
C200 C199 1.387 . S
C200 C203 1.387 . S
H201 C197 0.950 . S
H202 C199 0.950 . S
C203 C194 1.390 . S
C203 H196 0.950 . S
C203 C200 1.387 . S
C204 C205 1.387 . S
C204 H208 0.950 . S
C204 C213 1.390 . S
C205 C204 1.387 . S
C205 C207 1.387 . S
H206 C213 0.950 . S
C207 C205 1.387 . S
C207 C209 1.390 . S
C207 H211 0.950 . S
H208 C204 0.950 . S
C209 C207 1.390 . S
C209 C210 1.387 . S
C209 H212 0.950 . S
C210 C209 1.387 . S
C210 C213 1.387 . S
H211 C207 0.950 . S
H212 C209 0.950 . S
C213 C204 1.390 . S
C213 H206 0.950 . S
C213 C210 1.387 . S
C100 C65 1.492 . S
C95 C40 1.489 . S
C105 C4 1.490 . S
C110 C88 1.493 . S
C115 C16 1.509 . S
C120 C64 1.516 . S
C125 C28 1.511 . S
C130 C87 1.516 . S
C140 C68 1.483 . S
C135 C9 1.518 . S
C150 C90 1.494 . S
C145 C18 1.553 . S
C155 C33 1.543 . S
C160 C69 1.490 . S
C165 C45 1.543 . S
C170 C89 1.488 . S
C180 C92 1.431 . S
C175 C21 1.481 . S
C190 C67 1.438 . S
C185 C30 1.502 . S
C200 C91 1.425 . S
C195 C42 1.473 . S
C205 C6 1.486 . S
C210 C66 1.434 . S
