# Generated by pormake.
# Topology pts, (4,4)-cn, num edge types: 1
# Building blocks:
#     Node 0, Type 0, BuildingBlock: KUFVIS_clean_linker_0, # of connection points: 4
#     Node 1, Type 0, BuildingBlock: KUFVIS_clean_linker_0, # of connection points: 4
#     Node 2, Type 1, BuildingBlock: QUQFOY_clean_sbu_1, # of connection points: 4
#     Node 3, Type 1, BuildingBlock: QUQFOY_clean_sbu_1, # of connection points: 4
#     Edge 4, Type (0, 1), BuildingBlock: EZIPEK_clean_linker_0, # of connection points: 2
#     Edge 5, Type (0, 1), BuildingBlock: EZIPEK_clean_linker_0, # of connection points: 2
#     Edge 6, Type (0, 1), BuildingBlock: EZIPEK_clean_linker_0, # of connection points: 2
#     Edge 7, Type (0, 1), BuildingBlock: EZIPEK_clean_linker_0, # of connection points: 2
#     Edge 8, Type (0, 1), BuildingBlock: EZIPEK_clean_linker_0, # of connection points: 2
#     Edge 9, Type (0, 1), BuildingBlock: EZIPEK_clean_linker_0, # of connection points: 2
#     Edge 10, Type (0, 1), BuildingBlock: EZIPEK_clean_linker_0, # of connection points: 2
#     Edge 11, Type (0, 1), BuildingBlock: EZIPEK_clean_linker_0, # of connection points: 2
# Relax obj value: 0.102
# Max RMSD: 0.272
# Mean RMSD: 0.185
data_MOF--net-pts--node1-QUQFOY_clean_sbu_1--node2-KUFVIS_clean_linker_0--edge1-EZIPEK_clean_linker_0
_symmetry_space_group_name_H-M    P1
_symmetry_Int_Tables_number       1
_symmetry_cell_setting            triclinic
loop_
_symmetry_equiv_pos_as_xyz
'x, y, z'
_cell_length_a     18.036165
_cell_length_b     18.419098
_cell_length_c     28.81835
_cell_angle_alpha  90.565559
_cell_angle_beta   89.962112
_cell_angle_gamma 91.531909
loop_
_atom_site_label
_atom_site_type_symbol
_atom_site_fract_x
_atom_site_fract_y
_atom_site_fract_z
_atom_type_partial_charge
H0 H 0.24679 1.06434 -0.03085 0.0
H1 H 0.45046 0.09938 0.89615 0.0
H2 H 0.45088 1.03163 0.04004 0.0
H3 H 0.55989 0.08255 0.04266 0.0
H4 H 0.76279 0.08104 -0.03366 0.0
H5 H 0.55827 1.04891 0.89334 0.0
C6 C 0.30695 1.06433 -0.0312 0.0
C7 C 0.34548 1.05059 0.0097 0.0
C8 C 0.34503 0.07865 0.92753 0.0
C9 C 0.42272 0.08284 0.92774 0.0
C10 C 0.46321 0.06562 -0.03198 0.0
C11 C 0.42304 1.04724 0.00863 0.0
C12 C 0.5465 0.06837 -0.03224 0.0
C13 C 0.58726 0.07774 0.00946 0.0
C14 C 0.66496 0.08029 0.00897 0.0
C15 C 0.7026 0.07842 -0.03335 0.0
C16 C 0.66394 0.06818 0.92501 0.0
C17 C 0.5864 1.06104 0.92574 0.0
H18 H 0.01026 0.82219 0.47229 0.0
H19 H 0.02902 0.62072 0.5427 0.0
H20 H 0.98531 0.62469 0.39443 0.0
H21 H 0.02594 0.51652 0.39219 0.0
H22 H 1.00302 0.31453 0.46298 0.0
H23 H 0.98546 0.51176 0.54079 0.0
C24 C 0.00959 0.76326 0.47117 0.0
C25 C 1.0 0.72683 0.42893 0.0
C26 C 0.01779 0.72451 0.51203 0.0
C27 C 0.01895 0.64831 0.51052 0.0
C28 C 0.00715 0.60948 0.46827 0.0
C29 C 0.99655 0.65057 0.42756 0.0
C30 C 0.00565 0.5273 0.46671 0.0
C31 C 0.01536 0.48866 0.42441 0.0
C32 C 0.01206 0.41236 0.42296 0.0
C33 C 1.00344 0.37344 0.46397 0.0
C34 C 0.99607 0.40986 0.5063 0.0
C35 C 0.99481 0.48605 0.50755 0.0
O36 O 0.89981 1.02057 0.17684 0.0
Cd37 Cd 0.99773 1.0026 0.21192 0.0
Cd38 Cd 0.01525 0.14833 0.19706 0.0
O39 O 0.9197 0.13579 0.15904 0.0
O40 O 0.98622 0.89942 0.23172 0.0
O41 O 1.00069 0.99139 0.28129 0.0
C42 C 0.99258 0.9224 0.27386 0.0
C43 C 0.01926 0.22727 0.26007 0.0
C44 C 0.88079 0.07752 0.15578 0.0
C45 C 0.1306 1.05523 0.15587 0.0
O46 O 0.10949 0.11978 0.16239 0.0
O47 O 0.09521 1.00189 0.1738 0.0
O48 O 0.02535 0.2514 0.2183 0.0
O49 O 0.01182 0.158 0.26618 0.0
O50 O 0.91086 0.12713 0.7718 0.0
Cd51 Cd 1.0027 0.14934 0.73085 0.0
Cd52 Cd 0.01011 1.00232 0.73056 0.0
O53 O 0.90759 1.00825 0.76132 0.0
O54 O 0.99383 0.25089 0.70871 0.0
O55 O 0.99706 0.15503 0.66148 0.0
C56 C 0.99364 0.22456 0.66709 0.0
C57 C 0.0209 0.91858 0.67024 0.0
C58 C 0.88038 1.06517 0.77885 0.0
C59 C 0.13058 0.08894 0.78067 0.0
O60 O 0.10065 1.02683 0.77245 0.0
O61 O 0.10378 0.14575 0.76349 0.0
O62 O 0.01914 0.89794 0.71282 0.0
O63 O 0.01844 0.98719 0.6617 0.0
C64 C 0.24747 0.9849 0.05534 0.0
C65 C 0.30259 1.04093 0.05343 0.0
C66 C 0.25858 0.08797 0.128 0.0
C67 C 0.19402 1.04262 0.12412 0.0
N68 N 0.12233 0.95409 0.07851 0.0
N69 N 0.35631 0.1517 0.08643 0.0
C70 C 0.18749 0.99162 0.08678 0.0
C71 C 0.3079 0.09363 0.0897 0.0
N72 N 0.25186 0.92596 0.02643 0.0
N73 N 0.27301 0.12523 0.16835 0.0
H74 H 0.39249 0.15942 0.05863 0.0
H75 H 0.35607 0.19557 0.10954 0.0
H76 H 0.23904 0.1204 0.19756 0.0
H77 H 0.32254 0.15419 0.1744 0.0
H78 H 0.21653 0.88047 0.02908 0.0
H79 H 0.29577 0.91959 0.00325 0.0
H80 H 0.11329 0.92235 0.04881 0.0
H81 H 0.07445 0.96021 0.09815 0.0
C82 C 0.05939 0.35952 0.57589 0.0
C83 C 0.99349 0.36702 0.54969 0.0
C84 C 0.92823 0.27852 0.59928 0.0
C85 C 0.99313 0.27371 0.62679 0.0
N86 N 0.11747 0.3158 0.64573 0.0
N87 N 0.86259 0.34333 0.53952 0.0
C88 C 0.05768 0.31642 0.61654 0.0
C89 C 0.92706 0.3292 0.56229 0.0
N90 N 0.12449 0.39085 0.56062 0.0
N91 N 0.86805 0.23413 0.60833 0.0
H92 H 0.86012 0.38007 0.51226 0.0
H93 H 0.81066 0.3233 0.54968 0.0
H94 H 0.86565 0.19894 0.63646 0.0
H95 H 0.8221 0.22885 0.58662 0.0
H96 H 0.17613 0.38028 0.57476 0.0
H97 H 0.12802 0.42382 0.53144 0.0
H98 H 0.16228 0.35241 0.64357 0.0
H99 H 0.12064 0.28144 0.67416 0.0
C100 C 0.75095 1.01279 0.05907 0.0
C101 C 0.70881 0.07556 0.05241 0.0
C102 C 0.76541 0.13037 0.12206 0.0
C103 C 0.81759 0.07385 0.12278 0.0
N104 N 0.8687 0.96886 0.08381 0.0
N105 N 0.67929 0.19762 0.07551 0.0
C106 C 0.8124 1.01646 0.08947 0.0
C107 C 0.71632 0.13529 0.0836 0.0
N108 N 0.73258 0.94972 0.03597 0.0
N109 N 0.76169 0.17823 0.15844 0.0
H110 H 0.64268 0.20294 0.04783 0.0
H111 H 0.68902 0.24557 0.09427 0.0
H112 H 0.7951 0.17461 0.18782 0.0
H113 H 0.72048 0.21655 0.16159 0.0
H114 H 0.75799 0.90071 0.04259 0.0
H115 H 0.68651 0.9448 0.01416 0.0
H116 H 0.86977 0.9309 0.05677 0.0
H117 H 0.91845 0.97247 0.1021 0.0
C118 C 0.08847 0.80335 0.56893 0.0
C119 C 0.02173 0.76554 0.5566 0.0
C120 C 0.9579 0.82042 0.62288 0.0
C121 C 0.02231 0.86426 0.63209 0.0
N122 N 0.14817 0.90081 0.61376 0.0
N123 N 0.89105 0.74154 0.56852 0.0
C124 C 0.08755 0.85655 0.60511 0.0
C125 C 0.9561 0.7743 0.58302 0.0
N126 N 0.1528 0.78716 0.54641 0.0
N127 N 0.89819 0.8232 0.6521 0.0
H128 H 0.88763 0.70595 0.54019 0.0
H129 H 0.83943 0.75294 0.58256 0.0
H130 H 0.89501 0.85967 0.67988 0.0
H131 H 0.85348 0.78632 0.65072 0.0
H132 H 0.20489 0.80753 0.5562 0.0
H133 H 0.15492 0.74831 0.51987 0.0
H134 H 0.19451 0.90397 0.59228 0.0
H135 H 0.15078 0.93769 0.64145 0.0
C136 C 0.30204 1.03843 0.84768 0.0
C137 C 0.30157 0.09021 0.88453 0.0
C138 C 0.19122 0.1445 0.85201 0.0
C139 C 0.19356 0.09508 0.81376 0.0
N140 N 0.26402 1.00983 0.76884 0.0
N141 N 0.26069 0.20549 0.91349 0.0
C142 C 0.25327 1.04682 0.80952 0.0
C143 C 0.25135 0.1479 0.88364 0.0
N144 N 0.34557 0.979 0.85017 0.0
N145 N 0.12943 0.18386 0.86071 0.0
H146 H 0.3049 0.20964 0.93682 0.0
H147 H 0.22942 0.25214 0.91155 0.0
H148 H 0.08125 0.17984 0.84088 0.0
H149 H 0.12286 0.21469 0.89088 0.0
H150 H 0.34151 0.93569 0.8267 0.0
H151 H 0.38143 0.96986 0.8777 0.0
H152 H 0.31055 0.9789 0.76248 0.0
H153 H 0.2306 1.01646 0.73973 0.0
C154 C 0.08275 0.33558 0.36681 0.0
C155 C 0.01659 0.37165 0.3783 0.0
C156 C 0.95571 0.32026 0.3088 0.0
C157 C 0.01923 0.27832 0.30006 0.0
N158 N 0.14172 0.24147 0.32143 0.0
N159 N 0.88751 0.3936 0.36371 0.0
C160 C 0.08244 0.28473 0.32928 0.0
C161 C 0.9525 0.3633 0.34998 0.0
N162 N 0.14621 0.35143 0.39126 0.0
N163 N 0.89835 0.31882 0.27774 0.0
H164 H 0.88311 0.42648 0.3932 0.0
H165 H 0.83663 0.38239 0.34782 0.0
H166 H 0.89659 0.28494 0.24853 0.0
H167 H 0.85461 0.35451 0.27912 0.0
H168 H 0.19816 0.33267 0.38209 0.0
H169 H 0.14811 0.38854 0.41886 0.0
H170 H 0.18589 0.23718 0.34438 0.0
H171 H 0.14499 0.20624 0.29298 0.0
C172 C 0.7075 0.11329 0.84669 0.0
C173 C 0.70716 1.05931 0.88148 0.0
C174 C 0.81831 1.00718 0.84808 0.0
C175 C 0.81704 1.05873 0.81164 0.0
N176 N 0.74793 0.14704 0.76943 0.0
N177 N 0.74626 0.9415 0.90552 0.0
C178 C 0.75751 0.10746 0.80871 0.0
C179 C 0.757 1.00146 0.87857 0.0
N180 N 0.66308 0.1719 0.85092 0.0
N181 N 0.88013 0.96794 0.85646 0.0
H182 H 0.70067 0.93536 0.9276 0.0
H183 H 0.7777 0.8951 0.90199 0.0
H184 H 0.92954 0.97428 0.83808 0.0
H185 H 0.88536 0.93517 0.8855 0.0
H186 H 0.66735 0.21675 0.82924 0.0
H187 H 0.6257 0.17828 0.87817 0.0
H188 H 0.70172 0.17858 0.76388 0.0
H189 H 0.78207 0.14216 0.74039 0.0
C190 C 0.05942 0.78067 0.35803 0.0
C191 C 0.99531 0.77037 0.38601 0.0
C192 C 0.93014 0.86196 0.34154 0.0
C193 C 0.99321 0.87011 0.31243 0.0
N194 N 0.11376 0.83066 0.2879 0.0
N195 N 0.86604 0.79068 0.40049 0.0
C196 C 0.05645 0.82709 0.319 0.0
C197 C 0.92949 0.80799 0.37656 0.0
N198 N 0.12424 0.74889 0.37015 0.0
N199 N 0.87133 0.90642 0.33602 0.0
H200 H 0.86392 0.75119 0.42622 0.0
H201 H 0.81425 0.81076 0.39252 0.0
H202 H 0.86854 0.94435 0.30947 0.0
H203 H 0.82723 0.90906 0.35922 0.0
H204 H 0.17518 0.76124 0.35475 0.0
H205 H 0.12847 0.71341 0.39794 0.0
H206 H 0.15705 0.79439 0.28741 0.0
H207 H 0.11599 0.86718 0.26048 0.0
loop_
_geom_bond_atom_site_label_1
_geom_bond_atom_site_label_2
_geom_bond_distance
_geom_bond_site_symmetry_2
_ccdc_geom_bond_type
H0 C6 0.930 1_565 S
H1 C9 0.931 . S
H2 C11 0.931 . S
H3 C13 0.930 . S
H4 C15 0.930 . S
H5 C17 0.931 1_565 S
C6 H0 0.930 1_545 S
C6 C7 1.380 1_545 S
C6 C8 1.394 1_554 S
C7 C6 1.380 1_565 S
C7 C11 1.382 . S
C8 C6 1.394 1_556 S
C8 C9 1.400 . S
C9 H1 0.931 . S
C9 C8 1.400 . S
C9 C10 1.375 1_556 S
C10 C9 1.375 1_554 S
C10 C11 1.414 1_545 S
C10 C12 1.501 . S
C11 H2 0.931 . S
C11 C7 1.382 . S
C11 C10 1.414 1_565 S
C12 C10 1.501 . S
C12 C13 1.384 . S
C12 C17 1.407 1_554 S
C13 H3 0.930 . S
C13 C12 1.384 . S
C13 C14 1.389 . S
C14 C13 1.389 . S
C14 C15 1.405 . S
C15 H4 0.930 . S
C15 C14 1.405 . S
C15 C16 1.363 1_544 S
C16 C15 1.363 1_566 S
C16 C17 1.400 1_565 S
C17 H5 0.931 1_545 S
C17 C12 1.407 1_556 S
C17 C16 1.400 1_545 S
H18 C24 0.930 . S
H19 C27 0.931 . S
H20 C29 0.931 . S
H21 C31 0.930 . S
H22 C33 0.930 . S
H23 C35 0.931 . S
C24 H18 0.930 . S
C24 C25 1.380 . S
C24 C26 1.394 1_455 S
C25 C24 1.380 . S
C25 C29 1.382 . S
C26 C24 1.394 1_655 S
C26 C27 1.400 . S
C27 H19 0.931 . S
C27 C26 1.400 . S
C27 C28 1.375 . S
C28 C27 1.375 . S
C28 C29 1.415 1_655 S
C28 C30 1.501 . S
C29 H20 0.931 . S
C29 C25 1.382 . S
C29 C28 1.415 1_455 S
C30 C28 1.501 . S
C30 C31 1.384 . S
C30 C35 1.408 1_655 S
C31 H21 0.930 . S
C31 C30 1.384 . S
C31 C32 1.389 . S
C32 C31 1.389 . S
C32 C33 1.405 . S
C33 H22 0.930 . S
C33 C32 1.405 . S
C33 C34 1.364 1_655 S
C34 C33 1.364 1_455 S
C34 C35 1.400 . S
C35 H23 0.931 . S
C35 C30 1.408 1_455 S
C35 C34 1.400 . S
O36 Cd37 2.223 1_655 S
O36 C44 1.315 . S
Cd37 O36 2.223 1_455 S
Cd37 O40 2.297 1_455 S
Cd37 O41 2.439 1_455 S
Cd37 O47 2.240 1_565 S
Cd38 O39 2.240 1_545 S
Cd38 O46 2.223 1_655 S
Cd38 O48 2.297 1_655 S
Cd38 O49 2.439 1_655 S
O39 Cd38 2.240 1_565 S
O39 C44 1.279 . S
O40 Cd37 2.297 1_655 S
O40 C42 1.247 . S
O41 Cd37 2.439 1_655 S
O41 C42 1.208 . S
C42 O40 1.247 . S
C42 O41 1.208 . S
C43 O48 1.247 . S
C43 O49 1.208 . S
C44 O36 1.315 . S
C44 O39 1.279 . S
C45 O46 1.315 . S
C45 O47 1.279 . S
O46 Cd38 2.223 1_455 S
O46 C45 1.315 . S
O47 Cd37 2.240 1_545 S
O47 C45 1.279 . S
O48 Cd38 2.297 1_455 S
O48 C43 1.247 . S
O49 Cd38 2.439 1_455 S
O49 C43 1.208 . S
O50 Cd51 2.223 1_655 S
O50 C58 1.315 . S
Cd51 O50 2.223 1_455 S
Cd51 O54 2.297 1_455 S
Cd51 O55 2.439 1_455 S
Cd51 O61 2.240 1_545 S
Cd52 O53 2.240 1_565 S
Cd52 O60 2.223 1_655 S
Cd52 O62 2.297 1_655 S
Cd52 O63 2.439 1_655 S
O53 Cd52 2.240 1_545 S
O53 C58 1.279 . S
O54 Cd51 2.297 1_655 S
O54 C56 1.247 . S
O55 Cd51 2.439 1_655 S
O55 C56 1.208 . S
C56 O54 1.247 . S
C56 O55 1.208 . S
C57 O62 1.247 . S
C57 O63 1.208 . S
C58 O50 1.315 . S
C58 O53 1.279 . S
C59 O60 1.315 . S
C59 O61 1.279 . S
O60 Cd52 2.223 1_455 S
O60 C59 1.315 . S
O61 Cd51 2.240 1_565 S
O61 C59 1.279 . S
O62 Cd52 2.297 1_455 S
O62 C57 1.247 . S
O63 Cd52 2.439 1_455 S
O63 C57 1.208 . S
C64 C65 1.363 1_565 S
C64 C70 1.379 1_565 S
C64 N72 1.356 . S
C65 C64 1.363 1_545 S
C65 C71 1.363 . S
C66 C67 1.363 . S
C66 C71 1.379 . S
C66 N73 1.356 . S
C67 C66 1.363 . S
C67 C70 1.363 . S
N68 C70 1.356 . S
N68 H80 0.984 1_545 S
N68 H81 0.985 . S
N69 C71 1.356 . S
N69 H74 0.984 . S
N69 H75 0.985 . S
C70 C64 1.379 1_545 S
C70 C67 1.363 . S
C70 N68 1.356 . S
C71 C65 1.363 . S
C71 C66 1.379 . S
C71 N69 1.356 . S
N72 C64 1.356 . S
N72 H78 0.984 . S
N72 H79 0.984 . S
N73 C66 1.356 . S
N73 H76 0.984 . S
N73 H77 0.985 . S
H74 N69 0.984 . S
H75 N69 0.985 . S
H76 N73 0.984 . S
H77 N73 0.985 . S
H78 N72 0.984 . S
H79 N72 0.984 . S
H80 N68 0.984 1_565 S
H81 N68 0.985 . S
C82 C83 1.360 1_455 S
C82 C88 1.379 . S
C82 N90 1.356 . S
C83 C82 1.360 1_655 S
C83 C89 1.369 . S
C84 C85 1.363 . S
C84 C89 1.379 . S
C84 N91 1.356 . S
C85 C84 1.363 . S
C85 C88 1.363 1_655 S
N86 C88 1.356 . S
N86 H98 0.984 . S
N86 H99 0.985 . S
N87 C89 1.356 . S
N87 H92 0.984 . S
N87 H93 0.985 . S
C88 C82 1.379 . S
C88 C85 1.363 1_455 S
C88 N86 1.356 . S
C89 C83 1.369 . S
C89 C84 1.379 . S
C89 N87 1.356 . S
N90 C82 1.356 . S
N90 H96 0.984 . S
N90 H97 0.984 . S
N91 C84 1.356 . S
N91 H94 0.984 . S
N91 H95 0.985 . S
H92 N87 0.984 . S
H93 N87 0.985 . S
H94 N91 0.984 . S
H95 N91 0.985 . S
H96 N90 0.984 . S
H97 N90 0.984 . S
H98 N86 0.984 . S
H99 N86 0.985 . S
C100 C101 1.363 1_565 S
C100 C106 1.379 . S
C100 N108 1.356 . S
C101 C100 1.363 1_545 S
C101 C107 1.363 . S
C102 C103 1.363 . S
C102 C107 1.379 1_565 S
C102 N109 1.356 . S
C103 C102 1.363 . S
C103 C106 1.363 . S
N104 C106 1.356 . S
N104 H116 0.984 . S
N104 H117 0.985 . S
N105 C107 1.356 . S
N105 H110 0.984 . S
N105 H111 0.985 . S
C106 C100 1.379 . S
C106 C103 1.363 . S
C106 N104 1.356 . S
C107 C101 1.363 . S
C107 C102 1.379 1_545 S
C107 N105 1.356 . S
N108 C100 1.356 . S
N108 H114 0.984 1_554 S
N108 H115 0.984 . S
N109 C102 1.356 . S
N109 H112 0.984 . S
N109 H113 0.985 1_565 S
H110 N105 0.984 . S
H111 N105 0.985 . S
H112 N109 0.984 . S
H113 N109 0.985 1_545 S
H114 N108 0.984 1_556 S
H115 N108 0.984 . S
H116 N104 0.984 . S
H117 N104 0.985 . S
C118 C119 1.363 . S
C118 C124 1.379 . S
C118 N126 1.356 . S
C119 C118 1.363 . S
C119 C125 1.363 1_455 S
C120 C121 1.363 1_655 S
C120 C125 1.379 . S
C120 N127 1.356 . S
C121 C120 1.363 1_455 S
C121 C124 1.363 . S
N122 C124 1.356 . S
N122 H134 0.984 . S
N122 H135 0.985 . S
N123 C125 1.356 . S
N123 H128 0.984 . S
N123 H129 0.985 . S
C124 C118 1.379 . S
C124 C121 1.363 . S
C124 N122 1.356 . S
C125 C119 1.363 1_655 S
C125 C120 1.379 . S
C125 N123 1.356 . S
N126 C118 1.356 . S
N126 H132 0.984 . S
N126 H133 0.984 . S
N127 C120 1.356 . S
N127 H130 0.984 . S
N127 H131 0.985 . S
H128 N123 0.984 . S
H129 N123 0.985 . S
H130 N127 0.984 . S
H131 N127 0.985 . S
H132 N126 0.984 . S
H133 N126 0.984 . S
H134 N122 0.984 . S
H135 N122 0.985 . S
C136 C137 1.363 1_565 S
C136 C142 1.379 . S
C136 N144 1.356 . S
C137 C136 1.363 1_545 S
C137 C143 1.363 . S
C138 C139 1.363 1_545 S
C138 C143 1.379 . S
C138 N145 1.356 . S
C139 C138 1.363 1_565 S
C139 C142 1.363 . S
N140 C142 1.356 . S
N140 H152 0.984 . S
N140 H153 0.985 . S
N141 C143 1.356 . S
N141 H146 0.984 . S
N141 H147 0.985 . S
C142 C136 1.379 . S
C142 C139 1.363 . S
C142 N140 1.356 . S
C143 C137 1.363 . S
C143 C138 1.379 . S
C143 N141 1.356 . S
N144 C136 1.356 . S
N144 H150 0.984 . S
N144 H151 0.984 . S
N145 C138 1.356 . S
N145 H148 0.984 . S
N145 H149 0.985 . S
H146 N141 0.984 . S
H147 N141 0.985 . S
H148 N145 0.984 . S
H149 N145 0.985 . S
H150 N144 0.984 . S
H151 N144 0.984 . S
H152 N140 0.984 . S
H153 N140 0.985 . S
C154 C155 1.363 . S
C154 C160 1.379 . S
C154 N162 1.356 . S
C155 C154 1.363 . S
C155 C161 1.363 1_455 S
C156 C157 1.363 1_655 S
C156 C161 1.379 . S
C156 N163 1.356 . S
C157 C156 1.363 1_455 S
C157 C160 1.363 . S
N158 C160 1.356 . S
N158 H170 0.984 . S
N158 H171 0.985 . S
N159 C161 1.356 . S
N159 H164 0.984 . S
N159 H165 0.985 . S
C160 C154 1.379 . S
C160 C157 1.363 . S
C160 N158 1.356 . S
C161 C155 1.363 1_655 S
C161 C156 1.379 . S
C161 N159 1.356 . S
N162 C154 1.356 . S
N162 H168 0.984 . S
N162 H169 0.984 . S
N163 C156 1.356 . S
N163 H166 0.984 . S
N163 H167 0.985 . S
H164 N159 0.984 . S
H165 N159 0.985 . S
H166 N163 0.984 . S
H167 N163 0.985 . S
H168 N162 0.984 . S
H169 N162 0.984 . S
H170 N158 0.984 . S
H171 N158 0.985 . S
C172 C173 1.363 . S
C172 C178 1.379 . S
C172 N180 1.356 . S
C173 C172 1.363 . S
C173 C179 1.363 1_545 S
C174 C175 1.363 1_565 S
C174 C179 1.379 . S
C174 N181 1.356 . S
C175 C174 1.363 1_545 S
C175 C178 1.363 . S
N176 C178 1.356 . S
N176 H188 0.984 . S
N176 H189 0.985 . S
N177 C179 1.356 . S
N177 H182 0.984 . S
N177 H183 0.985 . S
C178 C172 1.379 . S
C178 C175 1.363 . S
C178 N176 1.356 . S
C179 C173 1.363 1_565 S
C179 C174 1.379 . S
C179 N177 1.356 . S
N180 C172 1.356 . S
N180 H186 0.984 . S
N180 H187 0.984 . S
N181 C174 1.356 . S
N181 H184 0.984 . S
N181 H185 0.985 . S
H182 N177 0.984 . S
H183 N177 0.985 . S
H184 N181 0.984 . S
H185 N181 0.985 . S
H186 N180 0.984 . S
H187 N180 0.984 . S
H188 N176 0.984 . S
H189 N176 0.985 . S
C190 C191 1.359 1_455 S
C190 C196 1.379 . S
C190 N198 1.356 . S
C191 C190 1.359 1_655 S
C191 C197 1.369 . S
C192 C193 1.363 . S
C192 C197 1.379 . S
C192 N199 1.356 . S
C193 C192 1.363 . S
C193 C196 1.363 1_655 S
N194 C196 1.356 . S
N194 H206 0.984 . S
N194 H207 0.985 . S
N195 C197 1.356 . S
N195 H200 0.984 . S
N195 H201 0.985 . S
C196 C190 1.379 . S
C196 C193 1.363 1_455 S
C196 N194 1.356 . S
C197 C191 1.369 . S
C197 C192 1.379 . S
C197 N195 1.356 . S
N198 C190 1.356 . S
N198 H204 0.984 . S
N198 H205 0.984 . S
N199 C192 1.356 . S
N199 H202 0.984 . S
N199 H203 0.985 . S
H200 N195 0.984 . S
H201 N195 0.985 . S
H202 N199 0.984 . S
H203 N199 0.985 . S
H204 N198 0.984 . S
H205 N198 0.984 . S
H206 N194 0.984 . S
H207 N194 0.985 . S
C67 C45 1.679 . S
C65 C7 1.623 1_545 S
C85 C56 1.553 . S
C83 C34 1.585 1_655 S
C103 C44 1.681 . S
C101 C14 1.637 . S
C121 C57 1.551 . S
C119 C26 1.600 1_455 S
C139 C59 1.674 . S
C137 C8 1.629 . S
C157 C43 1.558 . S
C155 C32 1.609 1_455 S
C175 C58 1.677 . S
C173 C16 1.616 1_545 S
C191 C25 1.594 1_655 S
C193 C42 1.556 . S
