# Generated by pormake.
# Topology pto, (3,4)-cn, num edge types: 1
# Building blocks:
#     Node 0, Type 0, BuildingBlock: QEWDON_clean_linker_0, # of connection points: 3
#     Node 1, Type 0, BuildingBlock: QEWDON_clean_linker_0, # of connection points: 3
#     Node 2, Type 0, BuildingBlock: QEWDON_clean_linker_0, # of connection points: 3
#     Node 3, Type 0, BuildingBlock: QEWDON_clean_linker_0, # of connection points: 3
#     Node 4, Type 0, BuildingBlock: QEWDON_clean_linker_0, # of connection points: 3
#     Node 5, Type 0, BuildingBlock: QEWDON_clean_linker_0, # of connection points: 3
#     Node 6, Type 0, BuildingBlock: QEWDON_clean_linker_0, # of connection points: 3
#     Node 7, Type 0, BuildingBlock: QEWDON_clean_linker_0, # of connection points: 3
#     Node 8, Type 1, BuildingBlock: NAWXER_clean_sbu_0, # of connection points: 4
#     Node 9, Type 1, BuildingBlock: NAWXER_clean_sbu_0, # of connection points: 4
#     Node 10, Type 1, BuildingBlock: NAWXER_clean_sbu_0, # of connection points: 4
#     Node 11, Type 1, BuildingBlock: NAWXER_clean_sbu_0, # of connection points: 4
#     Node 12, Type 1, BuildingBlock: NAWXER_clean_sbu_0, # of connection points: 4
#     Node 13, Type 1, BuildingBlock: NAWXER_clean_sbu_0, # of connection points: 4
#     Edge 14, Type (0, 1), None
#     Edge 15, Type (0, 1), None
#     Edge 16, Type (0, 1), None
#     Edge 17, Type (0, 1), None
#     Edge 18, Type (0, 1), None
#     Edge 19, Type (0, 1), None
#     Edge 20, Type (0, 1), None
#     Edge 21, Type (0, 1), None
#     Edge 22, Type (0, 1), None
#     Edge 23, Type (0, 1), None
#     Edge 24, Type (0, 1), None
#     Edge 25, Type (0, 1), None
#     Edge 26, Type (0, 1), None
#     Edge 27, Type (0, 1), None
#     Edge 28, Type (0, 1), None
#     Edge 29, Type (0, 1), None
#     Edge 30, Type (0, 1), None
#     Edge 31, Type (0, 1), None
#     Edge 32, Type (0, 1), None
#     Edge 33, Type (0, 1), None
#     Edge 34, Type (0, 1), None
#     Edge 35, Type (0, 1), None
#     Edge 36, Type (0, 1), None
#     Edge 37, Type (0, 1), None
# Relax obj value: 0.028
# Max RMSD: 0.194
# Mean RMSD: 0.071
data_MOF--net-pto--node1-NAWXER_clean_sbu_0--node2-QEWDON_clean_linker_0--edge1-none
_symmetry_space_group_name_H-M    P1
_symmetry_Int_Tables_number       1
_symmetry_cell_setting            triclinic
loop_
_symmetry_equiv_pos_as_xyz
'x, y, z'
_cell_length_a     16.574687
_cell_length_b     18.808871
_cell_length_c     17.226243
_cell_angle_alpha  98.952409
_cell_angle_beta   105.79337
_cell_angle_gamma 99.467988
loop_
_atom_site_label
_atom_site_type_symbol
_atom_site_fract_x
_atom_site_fract_y
_atom_site_fract_z
_atom_type_partial_charge
H0 H 0.24038 0.25891 0.15856 0.0
C1 C 0.26328 0.21537 0.1866 0.0
C2 C 0.32601 0.18243 0.16172 0.0
C3 C 0.22889 0.19051 0.24629 0.0
H4 H 0.41133 0.10642 0.18814 0.0
C5 C 0.35962 0.12861 0.20271 0.0
C6 C 0.32679 0.10484 0.26366 0.0
C7 C 0.25944 0.13404 0.2809 0.0
C8 C 0.1641 0.22247 0.27875 0.0
H9 H 0.23407 0.11608 0.3279 0.0
C10 C 0.17162 0.29931 0.30311 0.0
C11 C 0.12242 0.3262 0.35217 0.0
C12 C 0.10096 0.17424 0.29792 0.0
H13 H 0.09027 0.11506 0.27743 0.0
C14 C 0.05409 0.20085 0.34744 0.0
H15 H 0.21673 0.33784 0.28628 0.0
C16 C 0.06584 0.27627 0.37573 0.0
H17 H 1.0263 0.2958 0.41162 0.0
H18 H 1.00791 0.16274 0.36347 0.0
H19 H 0.59361 0.9028 0.91724 0.0
C20 C 0.53242 0.86813 0.91213 0.0
C21 C 0.53052 0.8205 0.96621 0.0
C22 C 0.45727 0.87159 0.85136 0.0
H23 H 0.45254 0.7368 1.00217 0.0
C24 C 0.45256 0.77432 0.96027 0.0
C25 C 0.37543 0.77473 0.90053 0.0
C26 C 0.37836 0.82341 0.84469 0.0
C27 C 0.46584 0.93204 0.8039 0.0
H28 H 0.31982 0.82579 0.799 0.0
C29 C 0.44452 0.92016 0.7163 0.0
C30 C 0.47313 0.9775 0.67803 0.0
C31 C 0.5098 0.0031 0.85046 0.0
H32 H 0.52582 0.01497 0.91716 0.0
C33 C 0.5378 0.05868 0.81306 0.0
H34 H 0.40884 0.86672 0.67869 0.0
C35 C 0.52108 0.0457 0.72795 0.0
H36 H 0.54232 0.09062 0.70062 0.0
H37 H 0.57325 0.11221 0.85046 0.0
H38 H 0.08747 0.76352 0.52973 0.0
C39 C 0.03571 0.76948 0.47871 0.0
C40 C 0.98392 0.70643 0.42123 0.0
C41 C 1.02257 0.84011 0.46779 0.0
H42 H 0.8753 0.66553 0.31147 0.0
C43 C 0.91619 0.7144 0.35544 0.0
C44 C 0.90462 0.7838 0.34108 0.0
C45 C 0.95805 0.84649 0.39759 0.0
C46 C 0.07549 0.9078 0.52872 0.0
H47 H 0.95079 0.9003 0.38555 0.0
C48 C 0.03699 0.96695 0.54615 0.0
C49 C 0.08402 0.0316 0.60329 0.0
C50 C 0.16284 0.91401 0.57082 0.0
H51 H 0.19512 0.86997 0.55833 0.0
C52 C 0.20963 0.97783 0.62973 0.0
H53 H 0.96904 0.96217 0.51676 0.0
C54 C 0.17049 0.03644 0.64612 0.0
H55 H 0.20681 0.0841 0.69421 0.0
H56 H 0.27623 0.98173 0.66328 0.0
H57 H 0.94524 0.48866 0.02038 0.0
C58 C 0.94243 0.44726 0.96784 0.0
C59 C 1.00078 0.45981 0.92246 0.0
C60 C 0.87872 0.38057 0.94261 0.0
H61 H 0.04449 0.41296 0.8235 0.0
C62 C 0.99776 0.40448 0.85657 0.0
C63 C 0.93475 0.33994 0.83043 0.0
C64 C 0.8743 0.32866 0.87274 0.0
C65 C 0.82523 0.35655 0.99405 0.0
H66 H 0.8272 0.27694 0.85501 0.0
C67 C 0.73434 0.33636 0.96194 0.0
C68 C 0.68619 0.29579 1.00294 0.0
C69 C 0.86641 0.3377 0.06814 0.0
H70 H 0.9359 0.35093 0.09269 0.0
C71 C 0.81886 0.29766 0.10863 0.0
H72 H 0.70179 0.35046 0.90465 0.0
C73 C 0.72968 0.2765 0.07619 0.0
H74 H 0.69421 0.24696 0.11007 0.0
H75 H 0.85133 0.28275 0.16537 0.0
H76 H 0.03559 0.84223 0.84473 0.0
C77 C 0.99105 0.82071 0.87573 0.0
C78 C 0.97022 0.74501 0.8724 0.0
C79 C 0.96185 0.86952 0.92592 0.0
H80 H 0.90287 0.66007 0.91868 0.0
C81 C 0.91598 0.71826 0.91773 0.0
C82 C 0.88364 0.76763 0.96596 0.0
C83 C 0.90819 0.8433 0.96948 0.0
C84 C 0.98675 0.94895 0.93332 0.0
H85 H 0.88579 0.88307 1.00655 0.0
C86 C 0.94855 0.97963 0.86797 0.0
C87 C 0.97006 0.05548 0.87354 0.0
C88 C 0.04504 0.99432 1.00608 0.0
H89 H 0.07388 0.97086 0.05771 0.0
C90 C 0.06674 0.07037 0.01193 0.0
H91 H 0.90349 0.94399 0.81202 0.0
C92 C 1.03012 0.10099 0.94544 0.0
H93 H 0.04848 0.15988 0.95008 0.0
H94 H 0.11228 0.10541 0.06764 0.0
H95 H 0.8484 0.32757 0.36516 0.0
C96 C 0.78949 0.34364 0.33586 0.0
C97 C 0.79232 0.40066 0.29177 0.0
C98 C 0.71025 0.30309 0.33546 0.0
H99 H 0.71734 0.45603 0.2073 0.0
C100 C 0.7157 0.41707 0.24743 0.0
C101 C 0.63667 0.37805 0.24871 0.0
C102 C 0.63497 0.32467 0.2969 0.0
C103 C 0.70328 0.2312 0.3617 0.0
H104 H 0.57322 0.29267 0.29456 0.0
C105 C 0.75865 0.22242 0.43593 0.0
C106 C 0.74783 0.15424 0.46036 0.0
C107 C 0.64002 0.16988 0.31056 0.0
H108 H 0.59829 0.17391 0.25161 0.0
C109 C 0.63006 0.10232 0.33425 0.0
H110 H 0.80773 0.26899 0.47579 0.0
C111 C 0.6828 0.09465 0.40917 0.0
H112 H 0.67343 0.04168 0.42659 0.0
H113 H 0.58108 0.05579 0.29445 0.0
H114 H 0.31336 0.25973 0.7514 0.0
C115 C 0.28014 0.3047 0.75362 0.0
C116 C 0.28708 0.34691 0.8306 0.0
C117 C 0.23833 0.32476 0.67977 0.0
H118 H 0.24725 0.43498 0.89278 0.0
C119 C 0.24668 0.40654 0.83314 0.0
C120 C 0.20857 0.43164 0.7618 0.0
C121 C 0.20296 0.38917 0.68449 0.0
C122 C 0.24844 0.28701 0.60074 0.0
H123 H 0.17388 0.40723 0.62876 0.0
C124 C 0.24544 0.20972 0.58206 0.0
C125 C 0.27625 0.1791 0.51826 0.0
C126 C 0.27697 0.33133 0.55082 0.0
H127 H 0.28125 0.39028 0.56332 0.0
C128 C 0.3088 0.30177 0.4893 0.0
H129 H 0.22504 0.17507 0.62038 0.0
C130 C 0.31134 0.22746 0.47538 0.0
H131 H 0.34295 0.20822 0.43166 0.0
H132 H 0.33506 0.33737 0.45437 0.0
H133 H 0.39713 0.79329 0.26241 0.0
C134 C 0.34424 0.75173 0.26385 0.0
C135 C 0.28596 0.77164 0.30694 0.0
C136 C 0.3313 0.67782 0.22019 0.0
H137 H 0.17134 0.73014 0.3375 0.0
C138 C 0.21623 0.71692 0.30482 0.0
C139 C 0.20441 0.64438 0.26292 0.0
C140 C 0.26242 0.62492 0.22362 0.0
C141 C 0.38201 0.6518 0.16532 0.0
H142 H 0.25358 0.56723 0.19561 0.0
C143 C 0.47272 0.6697 0.18619 0.0
C144 C 0.51476 0.63245 0.13571 0.0
C145 C 0.33602 0.6009 0.09106 0.0
H146 H 0.26711 0.5881 0.07062 0.0
C147 C 0.37705 0.56382 0.04319 0.0
H148 H 0.50998 0.71154 0.24053 0.0
C149 C 0.46557 0.57752 0.06636 0.0
H150 H 0.49507 0.54902 0.02564 0.0
H151 H 0.33996 0.52531 0.98685 0.0
C152 C 0.87547 0.44051 0.28993 0.0
C153 C 0.13692 0.58747 0.26946 0.0
O154 O 0.93716 0.46075 0.35754 0.0
Zn155 Zn 0.06582 0.52092 0.40284 0.0
O156 O 0.88637 0.45577 0.22344 0.0
Zn157 Zn 1.00615 0.50556 0.26814 0.0
O158 O 0.06881 0.42171 0.29932 0.0
O159 O 0.12608 0.44282 0.43449 0.0
O160 O 0.07229 0.55472 0.20736 0.0
O161 O 0.14093 0.57661 0.34152 0.0
O162 O 0.05369 0.61111 0.47425 0.0
O163 O 0.99102 0.59781 0.34075 0.0
C164 C 0.1125 0.40307 0.36308 0.0
C165 C 1.00923 0.6344 0.41419 0.0
C166 C 0.05677 0.53129 0.92787 0.0
C167 C 0.29473 0.72275 0.89867 0.0
O168 O 0.12153 0.56341 0.99033 0.0
Zn169 Zn 0.17882 0.6265 0.92741 0.0
O170 O 0.0521 0.54839 0.85814 0.0
Zn171 Zn 0.11298 0.61561 0.79373 0.0
O172 O 0.13178 0.52825 0.7184 0.0
O173 O 0.20096 0.53927 0.84942 0.0
O174 O 0.23316 0.69628 0.83124 0.0
O175 O 0.28919 0.6997 0.96337 0.0
O176 O 0.08601 0.68847 0.9061 0.0
O177 O 1.02133 0.67374 0.77258 0.0
C178 C 0.18007 0.50365 0.77485 0.0
C179 C 1.02739 0.70007 0.84752 0.0
C180 C 0.44432 0.97336 0.58726 0.0
C181 C 0.35858 0.05234 0.31544 0.0
O182 O 0.3638 0.95857 0.55037 0.0
Zn183 Zn 0.28136 0.96841 0.43747 0.0
O184 O 0.49552 0.00086 0.55065 0.0
Zn185 Zn 0.41503 0.00735 0.44406 0.0
O186 O 0.35602 0.09001 0.49065 0.0
O187 O 0.22106 0.04525 0.47837 0.0
O188 O 0.4377 0.06034 0.35634 0.0
O189 O 0.3013 0.0158 0.33947 0.0
O190 O 0.23313 0.86599 0.37824 0.0
O191 O 0.36643 0.89534 0.37569 0.0
C192 C 0.28476 0.10047 0.50022 0.0
C193 C 0.29527 0.84789 0.35499 0.0
C194 C 0.84067 0.78859 0.26362 0.0
C195 C 0.61069 0.81372 0.02509 0.0
O196 O 0.81162 0.73145 0.20484 0.0
Zn197 Zn 0.72322 0.69708 0.08472 0.0
O198 O 0.81403 0.84732 0.25406 0.0
Zn199 Zn 0.73137 0.80877 0.1431 0.0
O200 O 0.63446 0.72988 0.16277 0.0
O201 O 0.64206 0.62031 0.10093 0.0
O202 O 0.65443 0.86596 0.08625 0.0
O203 O 0.6314 0.751 0.01793 0.0
O204 O 0.79306 0.6774 0.01013 0.0
O205 O 0.80816 0.79498 0.0628 0.0
C206 C 0.60505 0.6602 0.14078 0.0
C207 C 0.82666 0.74454 0.01554 0.0
C208 C 0.93613 0.08494 0.80089 0.0
C209 C 0.80207 0.14487 0.53981 0.0
O210 O 0.86062 0.05696 0.75219 0.0
Zn211 Zn 0.86939 0.11367 0.67143 0.0
O212 O 0.98676 0.13389 0.78241 0.0
Zn213 Zn 0.98274 0.18915 0.68159 0.0
O214 O 1.00395 0.28771 0.73888 0.0
O215 O 0.88278 0.22086 0.74252 0.0
O216 O 0.87957 0.18232 0.57157 0.0
O217 O 0.77192 0.09892 0.57681 0.0
O218 O 0.96184 0.06688 0.62856 0.0
O219 O 0.07449 0.15616 0.6474 0.0
C220 C 0.93897 0.28156 0.76509 0.0
C221 C 0.03813 0.0882 0.62552 0.0
C222 C 0.56231 0.36636 0.17599 0.0
C223 C 0.34529 0.33658 0.90892 0.0
O224 O 0.53992 0.30131 0.13113 0.0
Zn225 Zn 0.45656 0.24094 0.01295 0.0
O226 O 0.52795 0.41817 0.15164 0.0
Zn227 Zn 0.45332 0.35265 0.04845 0.0
O228 O 0.37768 0.27901 0.10038 0.0
O229 O 0.39092 0.16709 0.05314 0.0
O230 O 0.3749 0.39052 0.97023 0.0
O231 O 0.37074 0.27618 0.91465 0.0
O232 O 0.54937 0.21665 0.97272 0.0
O233 O 0.5589 0.33653 1.00038 0.0
C234 C 0.36325 0.20974 0.0997 0.0
C235 C 0.59124 0.28176 0.98007 0.0
loop_
_geom_bond_atom_site_label_1
_geom_bond_atom_site_label_2
_geom_bond_distance
_geom_bond_site_symmetry_2
_ccdc_geom_bond_type
H0 C1 0.949 . S
C1 H0 0.949 . S
C1 C2 1.395 . S
C1 C3 1.391 . S
C2 C1 1.395 . S
C2 C5 1.390 . S
C3 C1 1.391 . S
C3 C7 1.387 . S
C3 C8 1.491 . S
H4 C5 0.950 . S
C5 C2 1.390 . S
C5 H4 0.950 . S
C5 C6 1.378 . S
C6 C5 1.378 . S
C6 C7 1.409 . S
C7 C3 1.387 . S
C7 C6 1.409 . S
C7 H9 0.951 . S
C8 C3 1.491 . S
C8 C10 1.382 . S
C8 C12 1.404 . S
H9 C7 0.951 . S
C10 C8 1.382 . S
C10 C11 1.390 . S
C10 H15 0.949 . S
C11 C10 1.390 . S
C11 C16 1.399 . S
C12 C8 1.404 . S
C12 H13 0.950 . S
C12 C14 1.375 . S
H13 C12 0.950 . S
C14 C12 1.375 . S
C14 C16 1.382 . S
C14 H18 0.950 . S
H15 C10 0.949 . S
C16 C11 1.399 . S
C16 C14 1.382 . S
C16 H17 0.952 . S
H17 C16 0.952 . S
H18 C14 0.950 . S
H19 C20 0.949 . S
C20 H19 0.949 . S
C20 C21 1.395 . S
C20 C22 1.391 . S
C21 C20 1.395 . S
C21 C24 1.390 . S
C22 C20 1.391 . S
C22 C26 1.387 . S
C22 C27 1.491 . S
H23 C24 0.950 . S
C24 C21 1.390 . S
C24 H23 0.950 . S
C24 C25 1.378 . S
C25 C24 1.378 . S
C25 C26 1.409 . S
C26 C22 1.387 . S
C26 C25 1.409 . S
C26 H28 0.951 . S
C27 C22 1.491 . S
C27 C29 1.382 . S
C27 C31 1.404 . S
H28 C26 0.951 . S
C29 C27 1.382 . S
C29 C30 1.390 . S
C29 H34 0.949 . S
C30 C29 1.390 . S
C30 C35 1.399 . S
C31 C27 1.404 . S
C31 H32 0.950 . S
C31 C33 1.375 . S
H32 C31 0.950 . S
C33 C31 1.375 . S
C33 C35 1.382 . S
C33 H37 0.950 . S
H34 C29 0.949 . S
C35 C30 1.399 . S
C35 C33 1.382 . S
C35 H36 0.952 . S
H36 C35 0.952 . S
H37 C33 0.950 . S
H38 C39 0.949 . S
C39 H38 0.949 . S
C39 C40 1.395 . S
C39 C41 1.391 . S
C40 C39 1.395 . S
C40 C43 1.390 . S
C41 C39 1.391 . S
C41 C45 1.387 . S
C41 C46 1.491 . S
H42 C43 0.950 . S
C43 C40 1.390 . S
C43 H42 0.950 . S
C43 C44 1.378 . S
C44 C43 1.378 . S
C44 C45 1.409 . S
C45 C41 1.387 . S
C45 C44 1.409 . S
C45 H47 0.951 . S
C46 C41 1.491 . S
C46 C48 1.382 . S
C46 C50 1.404 . S
H47 C45 0.951 . S
C48 C46 1.382 . S
C48 C49 1.390 1_565 S
C48 H53 0.949 . S
C49 C48 1.390 1_545 S
C49 C54 1.399 . S
C50 C46 1.404 . S
C50 H51 0.950 . S
C50 C52 1.375 . S
H51 C50 0.950 . S
C52 C50 1.375 . S
C52 C54 1.382 1_565 S
C52 H56 0.950 . S
H53 C48 0.949 . S
C54 C49 1.399 . S
C54 C52 1.382 1_545 S
C54 H55 0.952 . S
H55 C54 0.952 . S
H56 C52 0.950 . S
H57 C58 0.949 . S
C58 H57 0.949 . S
C58 C59 1.395 1_554 S
C58 C60 1.391 . S
C59 C58 1.395 1_556 S
C59 C62 1.390 1_655 S
C60 C58 1.391 . S
C60 C64 1.387 1_554 S
C60 C65 1.491 . S
H61 C62 0.950 . S
C62 C59 1.390 1_455 S
C62 H61 0.950 . S
C62 C63 1.378 1_455 S
C63 C62 1.378 1_655 S
C63 C64 1.409 . S
C64 C60 1.387 1_556 S
C64 C63 1.409 . S
C64 H66 0.951 . S
C65 C60 1.491 . S
C65 C67 1.382 . S
C65 C69 1.404 . S
H66 C64 0.951 . S
C67 C65 1.382 . S
C67 C68 1.390 . S
C67 H72 0.949 . S
C68 C67 1.390 . S
C68 C73 1.399 . S
C69 C65 1.404 . S
C69 H70 0.950 . S
C69 C71 1.375 . S
H70 C69 0.950 . S
C71 C69 1.375 . S
C71 C73 1.382 . S
C71 H75 0.950 . S
H72 C67 0.949 . S
C73 C68 1.399 . S
C73 C71 1.382 . S
C73 H74 0.952 . S
H74 C73 0.952 . S
H75 C71 0.950 . S
H76 C77 0.949 . S
C77 H76 0.949 . S
C77 C78 1.395 1_455 S
C77 C79 1.391 1_455 S
C78 C77 1.395 1_655 S
C78 C81 1.390 . S
C79 C77 1.391 1_655 S
C79 C83 1.387 . S
C79 C84 1.491 . S
H80 C81 0.950 . S
C81 C78 1.390 . S
C81 H80 0.950 . S
C81 C82 1.378 . S
C82 C81 1.378 . S
C82 C83 1.409 . S
C83 C79 1.387 . S
C83 C82 1.409 . S
C83 H85 0.951 . S
C84 C79 1.491 . S
C84 C86 1.382 . S
C84 C88 1.404 . S
H85 C83 0.951 . S
C86 C84 1.382 . S
C86 C87 1.390 1_665 S
C86 H91 0.949 . S
C87 C86 1.390 1_445 S
C87 C92 1.399 1_455 S
C88 C84 1.404 . S
C88 H89 0.950 1_556 S
C88 C90 1.375 1_565 S
H89 C88 0.950 1_554 S
C90 C88 1.375 1_545 S
C90 C92 1.382 . S
C90 H94 0.950 1_556 S
H91 C86 0.949 . S
C92 C87 1.399 1_655 S
C92 C90 1.382 . S
C92 H93 0.952 1_655 S
H93 C92 0.952 1_455 S
H94 C90 0.950 1_554 S
H95 C96 0.949 . S
C96 H95 0.949 . S
C96 C97 1.395 . S
C96 C98 1.391 . S
C97 C96 1.395 . S
C97 C100 1.390 . S
C98 C96 1.391 . S
C98 C102 1.387 . S
C98 C103 1.491 . S
H99 C100 0.950 . S
C100 C97 1.390 . S
C100 H99 0.950 . S
C100 C101 1.378 . S
C101 C100 1.378 . S
C101 C102 1.409 . S
C102 C98 1.387 . S
C102 C101 1.409 . S
C102 H104 0.951 . S
C103 C98 1.491 . S
C103 C105 1.382 . S
C103 C107 1.404 . S
H104 C102 0.951 . S
C105 C103 1.382 . S
C105 C106 1.390 . S
C105 H110 0.949 . S
C106 C105 1.390 . S
C106 C111 1.399 . S
C107 C103 1.404 . S
C107 H108 0.950 . S
C107 C109 1.375 . S
H108 C107 0.950 . S
C109 C107 1.375 . S
C109 C111 1.382 . S
C109 H113 0.950 . S
H110 C105 0.949 . S
C111 C106 1.399 . S
C111 C109 1.382 . S
C111 H112 0.952 . S
H112 C111 0.952 . S
H113 C109 0.950 . S
H114 C115 0.949 . S
C115 H114 0.949 . S
C115 C116 1.395 . S
C115 C117 1.391 . S
C116 C115 1.395 . S
C116 C119 1.390 . S
C117 C115 1.391 . S
C117 C121 1.387 . S
C117 C122 1.491 . S
H118 C119 0.950 . S
C119 C116 1.390 . S
C119 H118 0.950 . S
C119 C120 1.378 . S
C120 C119 1.378 . S
C120 C121 1.409 . S
C121 C117 1.387 . S
C121 C120 1.409 . S
C121 H123 0.951 . S
C122 C117 1.491 . S
C122 C124 1.382 . S
C122 C126 1.404 . S
H123 C121 0.951 . S
C124 C122 1.382 . S
C124 C125 1.390 . S
C124 H129 0.949 . S
C125 C124 1.390 . S
C125 C130 1.399 . S
C126 C122 1.404 . S
C126 H127 0.950 . S
C126 C128 1.375 . S
H127 C126 0.950 . S
C128 C126 1.375 . S
C128 C130 1.382 . S
C128 H132 0.950 . S
H129 C124 0.949 . S
C130 C125 1.399 . S
C130 C128 1.382 . S
C130 H131 0.952 . S
H131 C130 0.952 . S
H132 C128 0.950 . S
H133 C134 0.949 . S
C134 H133 0.949 . S
C134 C135 1.395 . S
C134 C136 1.391 . S
C135 C134 1.395 . S
C135 C138 1.390 . S
C136 C134 1.391 . S
C136 C140 1.387 . S
C136 C141 1.491 . S
H137 C138 0.950 . S
C138 C135 1.390 . S
C138 H137 0.950 . S
C138 C139 1.378 . S
C139 C138 1.378 . S
C139 C140 1.409 . S
C140 C136 1.387 . S
C140 C139 1.409 . S
C140 H142 0.951 . S
C141 C136 1.491 . S
C141 C143 1.382 . S
C141 C145 1.404 1_554 S
H142 C140 0.951 . S
C143 C141 1.382 . S
C143 C144 1.390 . S
C143 H148 0.949 . S
C144 C143 1.390 . S
C144 C149 1.399 1_554 S
C145 C141 1.404 1_556 S
C145 H146 0.950 . S
C145 C147 1.375 . S
H146 C145 0.950 . S
C147 C145 1.375 . S
C147 C149 1.382 . S
C147 H151 0.950 . S
H148 C143 0.949 . S
C149 C144 1.399 1_556 S
C149 C147 1.382 . S
C149 H150 0.952 . S
H150 C149 0.952 . S
H151 C147 0.950 . S
C152 O154 1.247 . S
C152 O156 1.258 . S
C153 O160 1.247 . S
C153 O161 1.258 . S
O154 C152 1.247 . S
O154 Zn155 2.028 1_655 S
Zn155 O154 2.028 1_455 S
Zn155 O159 2.035 . S
Zn155 O161 2.035 . S
Zn155 O162 2.028 . S
O156 C152 1.258 . S
O156 Zn157 2.035 . S
Zn157 O156 2.035 . S
Zn157 O158 2.028 . S
Zn157 O160 2.028 1_655 S
Zn157 O163 2.035 . S
O158 Zn157 2.028 . S
O158 C164 1.247 1_655 S
O159 Zn155 2.035 . S
O159 C164 1.258 . S
O160 C153 1.247 . S
O160 Zn157 2.028 1_455 S
O161 C153 1.258 . S
O161 Zn155 2.035 . S
O162 Zn155 2.028 . S
O162 C165 1.247 1_455 S
O163 Zn157 2.035 . S
O163 C165 1.258 . S
C164 O158 1.247 1_455 S
C164 O159 1.258 . S
C165 O162 1.247 1_655 S
C165 O163 1.258 . S
C166 O168 1.247 . S
C166 O170 1.258 1_455 S
C167 O174 1.247 . S
C167 O175 1.258 . S
O168 C166 1.247 . S
O168 Zn169 2.028 . S
Zn169 O168 2.028 . S
Zn169 O173 2.035 . S
Zn169 O175 2.035 . S
Zn169 O176 2.028 . S
O170 C166 1.258 1_655 S
O170 Zn171 2.035 1_655 S
Zn171 O170 2.035 1_455 S
Zn171 O172 2.028 . S
Zn171 O174 2.028 . S
Zn171 O177 2.035 . S
O172 Zn171 2.028 . S
O172 C178 1.247 . S
O173 Zn169 2.035 . S
O173 C178 1.258 . S
O174 C167 1.247 . S
O174 Zn171 2.028 . S
O175 C167 1.258 . S
O175 Zn169 2.035 . S
O176 Zn169 2.028 . S
O176 C179 1.247 . S
O177 Zn171 2.035 . S
O177 C179 1.258 . S
C178 O172 1.247 . S
C178 O173 1.258 . S
C179 O176 1.247 . S
C179 O177 1.258 . S
C180 O182 1.247 . S
C180 O184 1.258 . S
C181 O188 1.247 . S
C181 O189 1.258 . S
O182 C180 1.247 . S
O182 Zn183 2.028 . S
Zn183 O182 2.028 . S
Zn183 O187 2.035 1_565 S
Zn183 O189 2.035 1_565 S
Zn183 O190 2.028 . S
O184 C180 1.258 . S
O184 Zn185 2.035 1_565 S
Zn185 O184 2.035 1_545 S
Zn185 O186 2.028 . S
Zn185 O188 2.028 . S
Zn185 O191 2.035 1_545 S
O186 Zn185 2.028 . S
O186 C192 1.247 . S
O187 Zn183 2.035 1_545 S
O187 C192 1.258 . S
O188 C181 1.247 . S
O188 Zn185 2.028 . S
O189 C181 1.258 . S
O189 Zn183 2.035 1_545 S
O190 Zn183 2.028 . S
O190 C193 1.247 . S
O191 Zn185 2.035 1_565 S
O191 C193 1.258 . S
C192 O186 1.247 . S
C192 O187 1.258 . S
C193 O190 1.247 . S
C193 O191 1.258 . S
C194 O196 1.247 . S
C194 O198 1.258 . S
C195 O202 1.247 . S
C195 O203 1.258 . S
O196 C194 1.247 . S
O196 Zn197 2.028 1_554 S
Zn197 O196 2.028 1_556 S
Zn197 O201 2.035 1_556 S
Zn197 O203 2.035 . S
Zn197 O204 2.028 . S
O198 C194 1.258 . S
O198 Zn199 2.035 . S
Zn199 O198 2.035 . S
Zn199 O200 2.028 . S
Zn199 O202 2.028 1_554 S
Zn199 O205 2.035 1_554 S
O200 Zn199 2.028 . S
O200 C206 1.247 . S
O201 Zn197 2.035 1_554 S
O201 C206 1.258 . S
O202 C195 1.247 . S
O202 Zn199 2.028 1_556 S
O203 C195 1.258 . S
O203 Zn197 2.035 . S
O204 Zn197 2.028 . S
O204 C207 1.247 . S
O205 Zn199 2.035 1_556 S
O205 C207 1.258 . S
C206 O200 1.247 . S
C206 O201 1.258 . S
C207 O204 1.247 . S
C207 O205 1.258 . S
C208 O210 1.247 1_455 S
C208 O212 1.258 . S
C209 O216 1.247 1_655 S
C209 O217 1.258 . S
O210 C208 1.247 1_655 S
O210 Zn211 2.028 . S
Zn211 O210 2.028 . S
Zn211 O215 2.035 . S
Zn211 O217 2.035 . S
Zn211 O218 2.028 . S
O212 C208 1.258 . S
O212 Zn213 2.035 . S
Zn213 O212 2.035 . S
Zn213 O214 2.028 . S
Zn213 O216 2.028 . S
Zn213 O219 2.035 . S
O214 Zn213 2.028 . S
O214 C220 1.243 1_455 S
O215 Zn211 2.035 . S
O215 C220 1.260 . S
O216 C209 1.247 1_455 S
O216 Zn213 2.028 . S
O217 C209 1.258 . S
O217 Zn211 2.035 . S
O218 Zn211 2.028 . S
O218 C221 1.247 1_655 S
O219 Zn213 2.035 . S
O219 C221 1.258 . S
C220 O214 1.243 1_655 S
C220 O215 1.260 . S
C221 O218 1.247 1_455 S
C221 O219 1.258 . S
C222 O224 1.247 . S
C222 O226 1.258 . S
C223 O230 1.247 1_556 S
C223 O231 1.258 1_556 S
O224 C222 1.247 . S
O224 Zn225 2.028 . S
Zn225 O224 2.028 . S
Zn225 O229 2.035 . S
Zn225 O231 2.035 . S
Zn225 O232 2.028 . S
O226 C222 1.258 . S
O226 Zn227 2.035 . S
Zn227 O226 2.035 . S
Zn227 O228 2.028 . S
Zn227 O230 2.028 . S
Zn227 O233 2.035 . S
O228 Zn227 2.028 . S
O228 C234 1.247 . S
O229 Zn225 2.035 . S
O229 C234 1.258 . S
O230 C223 1.247 1_554 S
O230 Zn227 2.028 . S
O231 C223 1.258 1_554 S
O231 Zn225 2.035 . S
O232 Zn225 2.028 . S
O232 C235 1.247 . S
O233 Zn227 2.035 . S
O233 C235 1.258 . S
C234 O228 1.247 . S
C234 O229 1.258 . S
C235 O232 1.247 . S
C235 O233 1.258 . S
C164 C11 1.351 . S
C167 C25 1.974 . S
C165 C40 1.186 . S
C166 C59 1.326 1_455 S
C181 C6 1.985 . S
C195 C21 1.948 . S
C49 C221 1.531 1_655 S
C235 C68 1.692 . S
C180 C30 1.582 . S
C44 C194 1.772 . S
C220 C63 1.672 . S
C234 C2 2.099 . S
C78 C179 1.910 1_655 S
C152 C97 1.811 . S
C120 C178 1.597 . S
C139 C153 1.609 . S
C208 C87 1.403 . S
C222 C101 1.811 . S
C192 C125 1.673 . S
C144 C206 2.024 . S
C209 C106 1.816 . S
C223 C116 1.713 . S
C193 C135 2.005 . S
C82 C207 2.086 . S
