# Generated by pormake.
# Topology zzz, (3,6)-cn, num edge types: 1
# Building blocks:
#     Node 0, Type 0, BuildingBlock: INOVEN_clean_linker_0, # of connection points: 3
#     Node 1, Type 0, BuildingBlock: INOVEN_clean_linker_0, # of connection points: 3
#     Node 2, Type 0, BuildingBlock: INOVEN_clean_linker_0, # of connection points: 3
#     Node 3, Type 0, BuildingBlock: INOVEN_clean_linker_0, # of connection points: 3
#     Node 4, Type 0, BuildingBlock: INOVEN_clean_linker_0, # of connection points: 3
#     Node 5, Type 0, BuildingBlock: INOVEN_clean_linker_0, # of connection points: 3
#     Node 6, Type 0, BuildingBlock: INOVEN_clean_linker_0, # of connection points: 3
#     Node 7, Type 0, BuildingBlock: INOVEN_clean_linker_0, # of connection points: 3
#     Node 8, Type 1, BuildingBlock: LEVNOQ01_clean_sbu_1, # of connection points: 6
#     Node 9, Type 1, BuildingBlock: LEVNOQ01_clean_sbu_1, # of connection points: 6
#     Node 10, Type 1, BuildingBlock: LEVNOQ01_clean_sbu_1, # of connection points: 6
#     Node 11, Type 1, BuildingBlock: LEVNOQ01_clean_sbu_1, # of connection points: 6
#     Edge 12, Type (0, 1), None
#     Edge 13, Type (0, 1), None
#     Edge 14, Type (0, 1), None
#     Edge 15, Type (0, 1), None
#     Edge 16, Type (0, 1), None
#     Edge 17, Type (0, 1), None
#     Edge 18, Type (0, 1), None
#     Edge 19, Type (0, 1), None
#     Edge 20, Type (0, 1), None
#     Edge 21, Type (0, 1), None
#     Edge 22, Type (0, 1), None
#     Edge 23, Type (0, 1), None
#     Edge 24, Type (0, 1), None
#     Edge 25, Type (0, 1), None
#     Edge 26, Type (0, 1), None
#     Edge 27, Type (0, 1), None
#     Edge 28, Type (0, 1), None
#     Edge 29, Type (0, 1), None
#     Edge 30, Type (0, 1), None
#     Edge 31, Type (0, 1), None
#     Edge 32, Type (0, 1), None
#     Edge 33, Type (0, 1), None
#     Edge 34, Type (0, 1), None
#     Edge 35, Type (0, 1), None
# Relax obj value: 0.117
# Max RMSD: 0.168
# Mean RMSD: 0.108
data_MOF--net-zzz--node1-LEVNOQ01_clean_sbu_1--node2-INOVEN_clean_linker_0--edge1-none
_symmetry_space_group_name_H-M    P1
_symmetry_Int_Tables_number       1
_symmetry_cell_setting            triclinic
loop_
_symmetry_equiv_pos_as_xyz
'x, y, z'
_cell_length_a     19.573262
_cell_length_b     19.572998
_cell_length_c     8.5354975
_cell_angle_alpha  89.999411
_cell_angle_beta   90.001275
_cell_angle_gamma 90.000876
loop_
_atom_site_label
_atom_site_type_symbol
_atom_site_fract_x
_atom_site_fract_y
_atom_site_fract_z
_atom_type_partial_charge
H0 H 0.8021 0.55698 0.30151 0.0
H1 H 0.99585 0.65208 0.21115 0.0
H2 H 0.8389 0.66731 0.87612 0.0
N3 N 0.76907 0.56414 -0.00769 0.0
N4 N 0.75185 0.57641 0.85344 0.0
C5 C 0.83239 0.59277 0.23409 0.0
C6 C 0.89794 0.61429 0.29011 0.0
C7 C 0.81091 0.61039 0.08014 0.0
C8 C 0.8527 0.65538 -0.0039 0.0
C9 C 0.92228 0.6512 0.02839 0.0
C10 C 0.94199 0.64668 0.18401 0.0
H11 H 0.09423 0.80389 0.30046 0.0
H12 H 0.99938 0.99772 0.20974 0.0
H13 H 0.98409 0.84068 0.87487 0.0
N14 N 0.0872 0.77089 -0.0087 0.0
N15 N 0.07493 0.75349 0.85255 0.0
C16 C 1.05848 0.83419 0.23298 0.0
C17 C 1.03704 0.89978 0.28886 0.0
C18 C 1.04089 0.81269 0.07904 0.0
C19 C 0.99596 0.8545 -0.00513 0.0
C20 C 1.00019 0.92409 0.02708 0.0
C21 C 1.00472 0.94384 0.18268 0.0
H22 H 0.84788 0.09642 0.29961 0.0
H23 H 0.65417 1.00125 0.20945 0.0
H24 H 0.81121 0.98571 0.87472 0.0
N25 N 0.88078 0.08915 -0.0096 0.0
N26 N 0.89807 0.07683 0.8516 0.0
C27 C 0.81762 1.06057 0.23233 0.0
C28 C 0.75207 1.03909 0.28837 0.0
C29 C 0.83912 1.04284 0.07847 0.0
C30 C 0.79737 0.99773 -0.00537 0.0
C31 C 0.72778 1.00197 0.02677 0.0
C32 C 0.70803 1.00662 0.18236 0.0
H33 H 0.5548 0.84967 0.30065 0.0
H34 H 0.65022 0.65604 0.21087 0.0
H35 H 0.66568 0.81301 0.87597 0.0
N36 N 0.56218 0.88261 -0.00859 0.0
N37 N 0.57452 0.89971 0.85249 0.0
C38 C 0.59069 0.81943 0.23345 0.0
C39 C 0.61225 0.75392 0.28962 0.0
C40 C 0.60844 0.84091 0.07957 0.0
C41 C 0.65361 0.79918 -0.00414 0.0
C42 C 0.64942 0.7296 0.02807 0.0
C43 C 0.64478 0.70989 0.18369 0.0
H44 H 0.3474 0.59579 0.02797 0.0
H45 H 0.15399 0.49993 0.11776 0.0
H46 H 0.31091 0.4851 0.45296 0.0
N47 N 0.38011 0.58883 0.33728 0.0
N48 N 0.39722 0.57673 0.47631 0.0
C49 C 0.31724 0.55985 0.09522 0.0
C50 C 0.25179 0.53811 0.03904 0.0
C51 C 0.3387 0.54229 0.2492 0.0
C52 C 0.29708 0.49704 0.33299 0.0
C53 C 0.22749 0.50103 0.30067 0.0
C54 C 0.20782 0.50553 0.145 0.0
H55 H 1.05538 0.34919 0.02689 0.0
H56 H 0.15152 0.15587 0.11631 0.0
H57 H 0.16627 0.31271 0.45167 0.0
N58 N 1.06247 0.38194 0.33624 0.0
N59 N 0.07459 0.39887 0.47536 0.0
C60 C 0.09137 0.31905 0.09407 0.0
C61 C 0.11319 0.25365 0.03776 0.0
C62 C 0.10896 0.34049 0.24807 0.0
C63 C 0.15428 0.2989 0.33172 0.0
C64 C 0.15034 0.22931 0.29933 0.0
C65 C 0.14585 0.20968 0.14364 0.0
H66 H 0.30259 1.05756 0.02605 0.0
H67 H 0.49602 0.15338 0.11601 0.0
H68 H 0.3392 0.16791 0.45148 0.0
N69 N 0.26975 1.06443 0.33534 0.0
N70 N 0.25269 0.0765 0.47442 0.0
C71 C 0.33277 0.09344 0.09343 0.0
C72 C 0.39821 0.11522 0.03727 0.0
C73 C 0.31133 0.11091 0.24749 0.0
C74 C 0.35299 0.15606 0.33146 0.0
C75 C 0.42257 0.15212 0.299 0.0
C76 C 0.4422 0.14774 0.1433 0.0
H77 H 0.59361 0.30437 0.02713 0.0
H78 H 0.49807 0.4979 0.11745 0.0
H79 H 0.48345 0.34099 0.45277 0.0
N80 N 0.58687 0.27158 0.33639 0.0
N81 N 0.57482 0.25435 0.47536 0.0
C82 C 0.55777 0.33458 0.09458 0.0
C83 C 0.53608 0.40006 0.03854 0.0
C84 C 0.54033 0.31311 0.24863 0.0
C85 C 0.49525 0.3548 0.33272 0.0
C86 C 0.49925 0.42439 0.30033 0.0
C87 C 0.50363 0.44406 0.14466 0.0
O88 O 0.10851 0.93121 -0.09097 0.0
Mg89 Mg 0.16931 0.92939 0.70026 0.0
O90 O 1.02921 1.00752 0.84199 0.0
Mg91 Mg 0.07537 0.07669 0.66335 0.0
O92 O 0.17917 1.03215 0.67164 0.0
O93 O 0.25727 0.96479 0.57446 0.0
O94 O 0.12149 0.14591 0.48469 0.0
O95 O 0.10055 0.1609 0.85484 0.0
Mg96 Mg 0.98108 0.22411 0.62559 0.0
O97 O 0.97185 0.12153 0.65518 0.0
O98 O 1.04194 0.22184 0.41685 0.0
O99 O 1.04638 0.25955 0.80723 0.0
O100 O 0.89284 0.18828 0.75019 0.0
C101 C 1.06293 0.92952 0.43785 0.0
C102 C 1.04937 0.95824 -0.07502 0.0
C103 C 0.22844 1.02363 0.57403 0.0
C104 C 0.10119 0.195 0.40125 0.0
C105 C 0.08743 0.22391 0.88865 0.0
C106 C 0.92208 0.12964 0.75155 0.0
O107 O 0.10392 0.89382 0.51918 0.0
O108 O 1.05001 0.99256 0.47166 0.0
O109 O 0.39222 1.04868 0.80641 0.0
Mg110 Mg 0.42788 0.98321 0.62551 0.0
O111 O 0.49102 0.10235 0.8546 0.0
Mg112 Mg 0.57512 0.07703 0.66298 0.0
O113 O 0.53057 0.97322 0.65476 0.0
O114 O 0.46297 0.89522 0.75152 0.0
O115 O 0.65937 1.05182 0.47142 0.0
O116 O 0.64432 1.03094 0.84166 0.0
Mg117 Mg 0.72259 0.17145 0.70017 0.0
O118 O 0.61994 0.18055 0.67124 0.0
O119 O 0.75793 0.10625 0.51833 0.0
O120 O 0.72072 0.11024 -0.09157 0.0
O121 O 0.68643 0.25967 0.57582 0.0
C122 C 0.4569 0.10293 0.40076 0.0
C123 C 0.42795 0.0895 0.88813 0.0
C124 C 0.52183 0.924 0.75241 0.0
C125 C 0.72233 1.06502 0.43732 0.0
C126 C 0.69366 1.05111 -0.07551 0.0
C127 C 0.62783 0.23038 0.57493 0.0
O128 O 0.43008 1.04367 0.41627 0.0
O129 O 0.50594 0.12321 0.48434 0.0
O130 O 0.6027 0.39408 0.80781 0.0
Mg131 Mg 0.66817 0.42971 0.62691 0.0
O132 O 0.54902 0.49289 0.85591 0.0
Mg133 Mg 0.57438 0.57697 0.66425 0.0
O134 O 0.6782 0.53242 0.65602 0.0
O135 O 0.75618 0.4648 0.75282 0.0
O136 O 0.59957 0.66122 0.4727 0.0
O137 O 0.62049 0.64616 0.84291 0.0
Mg138 Mg 0.47996 0.72444 0.70153 0.0
O139 O 0.47088 0.6218 0.67249 0.0
O140 O 0.54517 0.7598 0.51971 0.0
O141 O 0.54114 0.72247 -0.09015 0.0
O142 O 0.39177 0.6883 0.57704 0.0
C143 C 0.54845 0.45868 0.40215 0.0
C144 C 0.56185 0.42981 0.88946 0.0
C145 C 0.72745 0.52369 0.75362 0.0
C146 C 0.58636 0.72419 0.43863 0.0
C147 C 0.60028 0.69545 -0.07414 0.0
C148 C 0.42109 0.6297 0.57611 0.0
O149 O 0.60767 0.43183 0.41772 0.0
O150 O 0.5282 0.50778 0.48561 0.0
O151 O 0.92946 0.54286 -0.08955 0.0
Mg152 Mg 0.92755 0.48209 0.70162 0.0
O153 O 1.00569 0.62221 0.84325 0.0
Mg154 Mg 0.07484 0.57604 0.66462 0.0
O155 O 1.03029 0.47226 0.67289 0.0
O156 O 0.96293 0.39416 0.57569 0.0
O157 O 0.14407 0.52992 0.48596 0.0
O158 O 0.15904 0.55082 0.85614 0.0
Mg159 Mg 0.22228 0.6703 0.627 0.0
O160 O 0.11969 0.67958 0.65644 0.0
O161 O 0.2201 0.60941 0.41831 0.0
O162 O 0.25768 0.605 0.80864 0.0
O163 O 0.18644 0.75858 0.75148 0.0
C164 C 0.92767 0.58844 0.43915 0.0
C165 C 0.95646 0.60202 -0.07366 0.0
C166 C 1.02176 0.42301 0.57522 0.0
C167 C 0.19321 0.55019 0.40264 0.0
C168 C 0.22204 0.56393 0.88998 0.0
C169 C 0.12779 0.72937 0.75276 0.0
O170 O 0.89196 0.54748 0.52054 0.0
O171 O 0.99071 0.60137 0.47294 0.0
loop_
_geom_bond_atom_site_label_1
_geom_bond_atom_site_label_2
_geom_bond_distance
_geom_bond_site_symmetry_2
_ccdc_geom_bond_type
H0 C5 0.929 . S
H1 C10 0.931 . S
H2 C8 0.930 . S
N3 N4 1.234 1_554 S
N3 C7 1.453 . S
N4 N3 1.234 1_556 S
C5 H0 0.929 . S
C5 C6 1.373 . S
C5 C7 1.368 . S
C6 C5 1.373 . S
C6 C10 1.397 . S
C7 N3 1.453 . S
C7 C5 1.368 . S
C7 C8 1.373 1_554 S
C8 H2 0.930 . S
C8 C7 1.373 1_556 S
C8 C9 1.371 . S
C9 C8 1.371 . S
C9 C10 1.383 1_556 S
C10 H1 0.931 . S
C10 C6 1.397 . S
C10 C9 1.383 1_554 S
H11 C16 0.929 . S
H12 C21 0.931 . S
H13 C19 0.930 . S
N14 N15 1.234 1_554 S
N14 C18 1.453 . S
N15 N14 1.234 1_556 S
C16 H11 0.929 . S
C16 C17 1.373 . S
C16 C18 1.368 . S
C17 C16 1.373 . S
C17 C21 1.397 . S
C18 N14 1.453 . S
C18 C16 1.368 . S
C18 C19 1.373 1_554 S
C19 H13 0.930 . S
C19 C18 1.373 1_556 S
C19 C20 1.371 . S
C20 C19 1.371 . S
C20 C21 1.383 1_556 S
C21 H12 0.931 . S
C21 C17 1.397 . S
C21 C20 1.383 1_554 S
H22 C27 0.929 . S
H23 C32 0.931 . S
H24 C30 0.930 . S
N25 N26 1.234 1_554 S
N25 C29 1.453 . S
N26 N25 1.234 1_556 S
C27 H22 0.929 . S
C27 C28 1.373 . S
C27 C29 1.368 . S
C28 C27 1.373 . S
C28 C32 1.397 . S
C29 N25 1.453 . S
C29 C27 1.368 . S
C29 C30 1.373 1_554 S
C30 H24 0.930 . S
C30 C29 1.373 1_556 S
C30 C31 1.371 . S
C31 C30 1.371 . S
C31 C32 1.383 1_556 S
C32 H23 0.931 . S
C32 C28 1.397 . S
C32 C31 1.383 1_554 S
H33 C38 0.929 . S
H34 C43 0.931 . S
H35 C41 0.930 . S
N36 N37 1.234 1_554 S
N36 C40 1.453 . S
N37 N36 1.234 1_556 S
C38 H33 0.929 . S
C38 C39 1.373 . S
C38 C40 1.368 . S
C39 C38 1.373 . S
C39 C43 1.397 . S
C40 N36 1.453 . S
C40 C38 1.368 . S
C40 C41 1.373 1_554 S
C41 H35 0.930 . S
C41 C40 1.373 1_556 S
C41 C42 1.371 . S
C42 C41 1.371 . S
C42 C43 1.383 1_556 S
C43 H34 0.931 . S
C43 C39 1.397 . S
C43 C42 1.383 1_554 S
H44 C49 0.929 . S
H45 C54 0.931 . S
H46 C52 0.930 . S
N47 N48 1.234 . S
N47 C51 1.453 . S
N48 N47 1.234 . S
C49 H44 0.929 . S
C49 C50 1.373 . S
C49 C51 1.368 . S
C50 C49 1.373 . S
C50 C54 1.397 . S
C51 N47 1.453 . S
C51 C49 1.368 . S
C51 C52 1.373 . S
C52 H46 0.930 . S
C52 C51 1.373 . S
C52 C53 1.371 . S
C53 C52 1.371 . S
C53 C54 1.383 . S
C54 H45 0.931 . S
C54 C50 1.397 . S
C54 C53 1.383 . S
H55 C60 0.929 . S
H56 C65 0.931 . S
H57 C63 0.930 . S
N58 N59 1.234 . S
N58 C62 1.453 . S
N59 N58 1.234 . S
C60 H55 0.929 . S
C60 C61 1.373 . S
C60 C62 1.368 . S
C61 C60 1.373 . S
C61 C65 1.397 . S
C62 N58 1.453 . S
C62 C60 1.368 . S
C62 C63 1.373 . S
C63 H57 0.930 . S
C63 C62 1.373 . S
C63 C64 1.371 . S
C64 C63 1.371 . S
C64 C65 1.383 . S
C65 H56 0.931 . S
C65 C61 1.397 . S
C65 C64 1.383 . S
H66 C71 0.929 . S
H67 C76 0.931 . S
H68 C74 0.930 . S
N69 N70 1.234 . S
N69 C73 1.453 . S
N70 N69 1.234 . S
C71 H66 0.929 . S
C71 C72 1.373 . S
C71 C73 1.368 . S
C72 C71 1.373 . S
C72 C76 1.397 . S
C73 N69 1.453 . S
C73 C71 1.368 . S
C73 C74 1.373 . S
C74 H68 0.930 . S
C74 C73 1.373 . S
C74 C75 1.371 . S
C75 C74 1.371 . S
C75 C76 1.383 . S
C76 H67 0.931 . S
C76 C72 1.397 . S
C76 C75 1.383 . S
H77 C82 0.929 . S
H78 C87 0.931 . S
H79 C85 0.930 . S
N80 N81 1.234 . S
N80 C84 1.453 . S
N81 N80 1.234 . S
C82 H77 0.929 . S
C82 C83 1.373 . S
C82 C84 1.368 . S
C83 C82 1.373 . S
C83 C87 1.397 . S
C84 N80 1.453 . S
C84 C82 1.368 . S
C84 C85 1.373 . S
C85 H79 0.930 . S
C85 C84 1.373 . S
C85 C86 1.371 . S
C86 C85 1.371 . S
C86 C87 1.383 . S
C87 H78 0.931 . S
C87 C83 1.397 . S
C87 C86 1.383 . S
O88 Mg89 1.990 . S
O88 C102 1.253 . S
Mg89 O88 1.990 . S
Mg89 O92 2.180 . S
Mg89 O93 2.117 . S
Mg89 O107 2.030 . S
O90 Mg91 2.072 1_665 S
O90 C102 1.260 1_655 S
Mg91 O90 2.072 1_445 S
Mg91 O92 2.099 1_545 S
Mg91 O94 2.079 . S
Mg91 O95 2.072 . S
Mg91 O97 2.099 1_455 S
Mg91 O108 2.079 1_445 S
O92 Mg89 2.180 . S
O92 Mg91 2.099 1_565 S
O92 C103 1.279 . S
O93 Mg89 2.117 . S
O93 C103 1.250 . S
O94 Mg91 2.079 . S
O94 C104 1.264 1_455 S
O95 Mg91 2.072 . S
O95 C105 1.260 1_556 S
Mg96 O97 2.180 . S
Mg96 O98 2.030 . S
Mg96 O99 1.990 1_556 S
Mg96 O100 2.117 1_556 S
O97 Mg91 2.099 1_655 S
O97 Mg96 2.180 . S
O97 C106 1.279 . S
O98 Mg96 2.030 . S
O98 C104 1.248 . S
O99 Mg96 1.990 1_554 S
O99 C105 1.253 1_655 S
O100 Mg96 2.117 1_554 S
O100 C106 1.250 1_554 S
C101 O107 1.248 1_655 S
C101 O108 1.264 . S
C102 O88 1.253 . S
C102 O90 1.260 1_455 S
C103 O92 1.279 . S
C103 O93 1.250 . S
C104 O94 1.264 1_655 S
C104 O98 1.248 . S
C105 O95 1.260 1_554 S
C105 O99 1.253 1_455 S
C106 O97 1.279 . S
C106 O100 1.250 1_556 S
O107 Mg89 2.030 . S
O107 C101 1.248 1_455 S
O108 Mg91 2.079 1_665 S
O108 C101 1.264 . S
O109 Mg110 1.990 1_554 S
O109 C123 1.253 1_565 S
Mg110 O109 1.990 1_556 S
Mg110 O113 2.180 . S
Mg110 O114 2.117 1_556 S
Mg110 O128 2.030 . S
O111 Mg112 2.072 . S
O111 C123 1.260 1_556 S
Mg112 O111 2.072 . S
Mg112 O113 2.099 1_545 S
Mg112 O115 2.079 1_545 S
Mg112 O116 2.072 1_545 S
Mg112 O118 2.099 . S
Mg112 O129 2.079 . S
O113 Mg110 2.180 . S
O113 Mg112 2.099 1_565 S
O113 C124 1.279 . S
O114 Mg110 2.117 1_554 S
O114 C124 1.250 1_554 S
O115 Mg112 2.079 1_565 S
O115 C125 1.264 . S
O116 Mg112 2.072 1_565 S
O116 C126 1.260 1_565 S
Mg117 O118 2.180 . S
Mg117 O119 2.030 . S
Mg117 O120 1.990 . S
Mg117 O121 2.117 . S
O118 Mg112 2.099 . S
O118 Mg117 2.180 . S
O118 C127 1.279 . S
O119 Mg117 2.030 . S
O119 C125 1.248 1_545 S
O120 Mg117 1.990 . S
O120 C126 1.253 . S
O121 Mg117 2.117 . S
O121 C127 1.250 . S
C122 O128 1.248 . S
C122 O129 1.264 1_565 S
C123 O109 1.253 1_545 S
C123 O111 1.260 1_554 S
C124 O113 1.279 . S
C124 O114 1.250 1_556 S
C125 O115 1.264 . S
C125 O119 1.248 1_565 S
C126 O116 1.260 1_545 S
C126 O120 1.253 . S
C127 O118 1.279 . S
C127 O121 1.250 . S
O128 Mg110 2.030 . S
O128 C122 1.248 . S
O129 Mg112 2.079 . S
O129 C122 1.264 1_545 S
O130 Mg131 1.990 1_554 S
O130 C144 1.253 . S
Mg131 O130 1.990 1_556 S
Mg131 O134 2.180 . S
Mg131 O135 2.117 1_556 S
Mg131 O149 2.030 . S
O132 Mg133 2.072 . S
O132 C144 1.260 1_556 S
Mg133 O132 2.072 . S
Mg133 O134 2.099 . S
Mg133 O136 2.079 . S
Mg133 O137 2.072 . S
Mg133 O139 2.099 . S
Mg133 O150 2.079 . S
O134 Mg131 2.180 . S
O134 Mg133 2.099 . S
O134 C145 1.279 . S
O135 Mg131 2.117 1_554 S
O135 C145 1.250 1_554 S
O136 Mg133 2.079 . S
O136 C146 1.264 . S
O137 Mg133 2.072 . S
O137 C147 1.260 . S
Mg138 O139 2.180 . S
Mg138 O140 2.030 . S
Mg138 O141 1.990 . S
Mg138 O142 2.117 . S
O139 Mg133 2.099 . S
O139 Mg138 2.180 . S
O139 C148 1.279 . S
O140 Mg138 2.030 . S
O140 C146 1.248 . S
O141 Mg138 1.990 . S
O141 C147 1.253 . S
O142 Mg138 2.117 . S
O142 C148 1.250 . S
C143 O149 1.248 . S
C143 O150 1.264 . S
C144 O130 1.253 . S
C144 O132 1.260 1_554 S
C145 O134 1.279 . S
C145 O135 1.250 1_556 S
C146 O136 1.264 . S
C146 O140 1.248 . S
C147 O137 1.260 . S
C147 O141 1.253 . S
C148 O139 1.279 . S
C148 O142 1.250 . S
O149 Mg131 2.030 . S
O149 C143 1.248 . S
O150 Mg133 2.079 . S
O150 C143 1.264 . S
O151 Mg152 1.990 . S
O151 C165 1.253 . S
Mg152 O151 1.990 . S
Mg152 O155 2.180 . S
Mg152 O156 2.117 . S
Mg152 O170 2.030 . S
O153 Mg154 2.072 1_655 S
O153 C165 1.260 . S
Mg154 O153 2.072 1_455 S
Mg154 O155 2.099 1_455 S
Mg154 O157 2.079 . S
Mg154 O158 2.072 . S
Mg154 O160 2.099 . S
Mg154 O171 2.079 1_455 S
O155 Mg152 2.180 . S
O155 Mg154 2.099 1_655 S
O155 C166 1.279 . S
O156 Mg152 2.117 . S
O156 C166 1.250 . S
O157 Mg154 2.079 . S
O157 C167 1.264 . S
O158 Mg154 2.072 . S
O158 C168 1.260 1_556 S
Mg159 O160 2.180 . S
Mg159 O161 2.030 . S
Mg159 O162 1.990 1_556 S
Mg159 O163 2.117 1_556 S
O160 Mg154 2.099 . S
O160 Mg159 2.180 . S
O160 C169 1.279 . S
O161 Mg159 2.030 . S
O161 C167 1.248 . S
O162 Mg159 1.990 1_554 S
O162 C168 1.253 . S
O163 Mg159 2.117 1_554 S
O163 C169 1.250 1_554 S
C164 O170 1.248 . S
C164 O171 1.264 . S
C165 O151 1.253 . S
C165 O153 1.260 . S
C166 O155 1.279 . S
C166 O156 1.250 . S
C167 O157 1.264 . S
C167 O161 1.248 . S
C168 O158 1.260 1_554 S
C168 O162 1.253 . S
C169 O160 1.279 . S
C169 O163 1.250 1_556 S
O170 Mg152 2.030 . S
O170 C164 1.248 . S
O171 Mg154 2.079 1_655 S
O171 C164 1.264 . S
N70 C103 1.891 1_545 S
C127 N81 1.891 . S
C148 N48 1.891 . S
C166 N59 1.891 1_655 S
C106 N26 1.591 1_545 S
N37 C124 1.592 . S
N4 C145 1.591 . S
N15 C169 1.592 1_655 S
C104 C64 1.277 1_655 S
C122 C75 1.277 1_565 S
C143 C86 1.277 . S
C53 C167 1.277 . S
C20 C102 1.295 1_655 S
C126 C31 1.295 1_545 S
C147 C42 1.295 . S
C9 C165 1.295 . S
C61 C105 1.599 . S
C72 C123 1.599 . S
C144 C83 1.599 . S
C168 C50 1.599 . S
C17 C101 1.346 . S
C125 C28 1.346 . S
C146 C39 1.346 . S
C6 C164 1.346 . S
