# Generated by pormake.
# Topology tsx, (6,3)-cn, num edge types: 1
# Building blocks:
#     Node 0, Type 0, BuildingBlock: MIDCAF_clean_sbu_0, # of connection points: 6
#     Node 1, Type 0, BuildingBlock: MIDCAF_clean_sbu_0, # of connection points: 6
#     Node 2, Type 1, BuildingBlock: CUQRIR_clean_linker_1, # of connection points: 3
#     Node 3, Type 1, BuildingBlock: CUQRIR_clean_linker_1, # of connection points: 3
#     Node 4, Type 1, BuildingBlock: CUQRIR_clean_linker_1, # of connection points: 3
#     Node 5, Type 1, BuildingBlock: CUQRIR_clean_linker_1, # of connection points: 3
#     Edge 6, Type (0, 1), BuildingBlock: AJUNOK_clean_linker_0, # of connection points: 2
#     Edge 7, Type (0, 1), BuildingBlock: AJUNOK_clean_linker_0, # of connection points: 2
#     Edge 8, Type (0, 1), BuildingBlock: AJUNOK_clean_linker_0, # of connection points: 2
#     Edge 9, Type (0, 1), BuildingBlock: AJUNOK_clean_linker_0, # of connection points: 2
#     Edge 10, Type (0, 1), BuildingBlock: AJUNOK_clean_linker_0, # of connection points: 2
#     Edge 11, Type (0, 1), BuildingBlock: AJUNOK_clean_linker_0, # of connection points: 2
#     Edge 12, Type (0, 1), BuildingBlock: AJUNOK_clean_linker_0, # of connection points: 2
#     Edge 13, Type (0, 1), BuildingBlock: AJUNOK_clean_linker_0, # of connection points: 2
#     Edge 14, Type (0, 1), BuildingBlock: AJUNOK_clean_linker_0, # of connection points: 2
#     Edge 15, Type (0, 1), BuildingBlock: AJUNOK_clean_linker_0, # of connection points: 2
#     Edge 16, Type (0, 1), BuildingBlock: AJUNOK_clean_linker_0, # of connection points: 2
#     Edge 17, Type (0, 1), BuildingBlock: AJUNOK_clean_linker_0, # of connection points: 2
# Relax obj value: 0.119
# Max RMSD: 0.171
# Mean RMSD: 0.149
data_MOF--net-tsx--node1-MIDCAF_clean_sbu_0--node2-CUQRIR_clean_linker_1--edge1-AJUNOK_clean_linker_0
_symmetry_space_group_name_H-M    P1
_symmetry_Int_Tables_number       1
_symmetry_cell_setting            triclinic
loop_
_symmetry_equiv_pos_as_xyz
'x, y, z'
_cell_length_a     12.415774
_cell_length_b     13.383577
_cell_length_c     24.928047
_cell_angle_alpha  79.033186
_cell_angle_beta   97.265377
_cell_angle_gamma 90.051352
loop_
_atom_site_label
_atom_site_type_symbol
_atom_site_fract_x
_atom_site_fract_y
_atom_site_fract_z
_atom_type_partial_charge
Zn0 Zn 0.86148 1.0104 0.9336 0.0
Zn1 Zn 0.34495 0.08031 0.05504 0.0
Zn2 Zn 1.02816 0.04861 -0.00658 0.0
C3 C 0.14232 0.21309 0.01805 0.0
C4 C 0.28723 0.98087 0.96023 0.0
O5 O 0.93798 0.93495 0.04826 0.0
O6 O 0.79145 0.9194 -0.00977 0.0
C7 C 0.86194 0.22261 0.92866 0.0
O8 O 0.04255 0.21095 -0.00102 0.0
O9 O 0.19114 0.12803 0.03168 0.0
O10 O 0.36463 1.01426 -0.00939 0.0
O11 O 0.18467 0.99488 0.96419 0.0
O12 O 0.80949 0.15487 0.90831 0.0
O13 O 0.94618 0.19863 0.96454 0.0
O14 O 0.08164 1.00376 0.92289 0.0
O15 O 0.93247 0.95126 0.87984 0.0
C16 C 0.03278 0.96807 0.88248 0.0
O17 O 0.03357 0.96718 0.07826 0.0
O18 O 0.19603 1.01924 0.07156 0.0
C19 C 0.84471 0.89576 0.0376 0.0
C20 C 0.12843 0.97817 0.10267 0.0
Zn21 Zn 0.76703 0.40808 0.57228 0.0
Zn22 Zn 0.44265 0.42563 0.44005 0.0
Zn23 Zn 0.60501 0.46063 0.50204 0.0
C24 C 0.60921 0.39903 0.3833 0.0
C25 C 0.44483 0.63901 0.44423 0.0
O26 O 0.56361 0.40103 0.58659 0.0
O27 O 0.71435 0.36638 0.64466 0.0
C28 C 0.83519 0.33616 0.49294 0.0
O29 O 0.6596 0.41311 0.42957 0.0
O30 O 0.5071 0.39492 0.37698 0.0
O31 O 0.3855 0.56848 0.43093 0.0
O32 O 0.54116 0.61767 0.46984 0.0
O33 O 0.86671 0.32283 0.54394 0.0
O34 O 0.74455 0.38466 0.47263 0.0
O35 O 0.64503 0.61504 0.5067 0.0
O36 O 0.79997 0.55614 0.55593 0.0
C37 C 0.73946 0.63073 0.53051 0.0
O38 O 0.48613 0.36229 0.54875 0.0
O39 O 0.3666 0.31897 0.4844 0.0
C40 C 0.61274 0.38066 0.63648 0.0
C41 C 0.40244 0.31149 0.53456 0.0
C42 C 0.21512 0.10075 0.39752 0.0
N43 N 0.24271 0.03672 0.36519 0.0
N44 N 0.1287 0.16225 0.37225 0.0
C45 C 0.27677 0.1034 0.4531 0.0
C46 C 0.1078 0.13508 0.32248 0.0
N47 N 0.17463 0.05777 0.31876 0.0
C48 C 1.02433 0.1874 0.2766 0.0
H49 H 0.27717 0.02739 0.48013 0.0
H50 H 0.24481 0.16201 0.47296 0.0
H51 H 0.36291 0.11987 0.44801 0.0
H52 H 0.99866 0.26234 0.28422 0.0
H53 H 0.95196 0.13928 0.27325 0.0
H54 H 0.05789 0.19835 0.23673 0.0
C55 C 1.01611 0.0398 0.57217 0.0
N56 N 0.07254 0.06829 0.61643 0.0
N57 N 0.92311 0.99386 0.58477 0.0
C58 C 0.06146 0.04027 0.51965 0.0
C59 C 0.92533 0.99638 0.63888 0.0
N60 N 1.0176 0.03905 0.65861 0.0
C61 C 0.84099 0.94804 0.67343 0.0
H62 H 1.00095 1.01672 0.48815 0.0
H63 H 0.13228 0.98677 0.52804 0.0
H64 H 0.08906 0.11766 0.50509 0.0
H65 H 0.84737 0.86397 0.67857 0.0
H66 H 0.75867 0.97185 0.65197 0.0
H67 H 0.85016 0.96995 0.71448 0.0
C68 C 0.57517 0.65666 0.87515 0.0
N69 N 0.6021 0.58095 0.84991 0.0
N70 N 0.47408 0.69427 0.85451 0.0
C71 C 0.64959 0.69416 0.9194 0.0
C72 C 0.44051 0.63929 0.81555 0.0
N73 N 0.51844 0.57046 0.8124 0.0
C74 C 0.33049 0.65208 0.78159 0.0
H75 H 0.62146 0.76764 0.9275 0.0
H76 H 0.73256 0.70235 0.90721 0.0
H77 H 0.65565 0.63757 0.95837 0.0
H78 H 0.31144 0.7342 0.76564 0.0
H79 H 0.26837 0.62163 0.80815 0.0
H80 H 0.32421 0.61028 0.74705 0.0
C81 C 0.49863 0.56818 0.07984 0.0
N82 N 0.58014 0.57919 0.1199 0.0
N83 N 0.44013 0.48535 0.09615 0.0
C84 C 0.47364 0.63878 0.02518 0.0
C85 C 0.4899 0.44472 0.14704 0.0
N86 N 0.57609 0.50104 0.16153 0.0
C87 C 0.45153 0.35148 0.18323 0.0
H88 H 0.39767 0.68201 0.02534 0.0
H89 H 0.46012 0.59424 -0.00819 0.0
H90 H 0.53895 0.69355 0.01664 0.0
H91 H 0.36858 0.33039 0.16799 0.0
H92 H 0.45219 0.36425 0.22597 0.0
H93 H 0.50718 0.28625 0.18417 0.0
C94 C 0.17276 0.37195 0.05629 0.0
C95 C 0.20312 0.30613 0.02279 0.0
C96 C 0.2486 0.43832 0.07671 0.0
C97 C 0.35611 0.43986 0.0642 0.0
H98 H 0.09381 0.36571 0.07067 0.0
H99 H 0.22604 0.4827 0.10579 0.0
S100 S 0.46994 0.29181 0.97274 0.0
N101 N 0.34265 0.25614 0.97252 0.0
N102 N 0.48544 0.37709 0.01293 0.0
C103 C 0.38387 0.38065 0.02727 0.0
C104 C 0.30703 0.31465 0.00599 0.0
C105 C 0.40397 0.94104 0.89265 0.0
C106 C 0.31818 0.91397 0.92394 0.0
C107 C 0.45015 0.87042 0.86685 0.0
C108 C 0.41374 0.77011 0.87274 0.0
H109 H 0.4383 1.01603 0.88995 0.0
H110 H 0.51859 0.89236 0.84459 0.0
S111 S 0.19003 0.6618 0.94904 0.0
N112 N 0.19563 0.78134 0.9574 0.0
N113 N 0.28501 0.64794 0.91004 0.0
C114 C 0.32489 0.74342 0.90163 0.0
C115 C 0.27664 0.81561 0.92719 0.0
C116 C 0.83405 0.71858 0.08987 0.0
C117 C 0.79618 0.82052 0.07828 0.0
C118 C 0.76594 0.63879 0.10891 0.0
C119 C 0.65836 0.65913 0.11641 0.0
H120 H 0.91249 0.69979 0.07919 0.0
H121 H 0.794 0.56076 0.11316 0.0
S122 S 0.52645 0.9129 0.09864 0.0
N123 N 0.64918 0.93742 0.08141 0.0
N124 N 0.52143 0.7879 0.11636 0.0
C125 C 0.62344 0.7609 0.10942 0.0
C126 C 0.69243 0.84153 0.09057 0.0
C127 C 0.75058 0.36205 0.94633 0.0
C128 C 0.81936 0.32749 0.91304 0.0
C129 C 0.68443 0.44887 0.92611 0.0
C130 C 0.68566 0.50442 0.87234 0.0
H131 H 0.74202 0.31771 -0.01332 0.0
H132 H 0.62691 0.46941 0.95145 0.0
S133 S 0.86405 0.45306 0.77204 0.0
N134 N 0.89258 0.359 0.82562 0.0
N135 N 0.772 0.52661 0.78891 0.0
C136 C 0.76101 0.47555 0.84039 0.0
C137 C 0.82679 0.38556 0.86045 0.0
C138 C 0.89541 0.74092 0.54482 0.0
C139 C 0.78228 0.73328 0.53198 0.0
C140 C 0.94073 0.82852 0.5592 0.0
C141 C 0.87541 0.91326 0.55998 0.0
H142 H 0.94961 0.67652 0.54683 0.0
H143 H 1.02718 0.82824 0.57266 0.0
S144 S 0.5785 0.94123 0.51965 0.0
N145 N 0.60729 0.82296 0.51484 0.0
N146 N 0.695 0.99113 0.53978 0.0
C147 C 0.7637 0.91092 0.54273 0.0
C148 C 0.71654 0.82022 0.5288 0.0
C149 C 1.00997 0.33615 0.45322 0.0
C150 C 0.90476 0.29824 0.45703 0.0
C151 C 0.08178 0.29463 0.42346 0.0
C152 C 0.05164 0.21192 0.39803 0.0
H153 H 0.03732 0.39747 0.474 0.0
H154 H 0.1622 0.32526 0.42154 0.0
S155 S 0.78687 0.08224 0.39863 0.0
N156 N 0.7741 0.17409 0.4334 0.0
N157 N 0.90965 0.09293 0.3795 0.0
C158 C 0.94565 0.1748 0.40089 0.0
C159 C 0.87227 0.21829 0.43026 0.0
C160 C 0.23495 0.29769 0.57867 0.0
C161 C 0.33651 0.25498 0.57491 0.0
C162 C 0.1516 0.23661 0.59879 0.0
C163 C 0.16673 0.13087 0.61537 0.0
H164 H 0.21668 0.37735 0.56135 0.0
H165 H 0.07175 0.27062 0.59664 0.0
S166 S 0.42081 0.98375 0.62104 0.0
N167 N 0.4511 0.10209 0.5952 0.0
N168 N 0.29293 0.98729 0.6327 0.0
C169 C 0.27019 0.08846 0.61635 0.0
C170 C 0.35562 0.15066 0.59611 0.0
C171 C 0.45777 0.82675 0.40543 0.0
C172 C 0.39816 0.74415 0.4294 0.0
C173 C 0.40757 0.92341 0.38479 0.0
C174 C 0.29603 0.939 0.38631 0.0
H175 H 0.54265 0.81602 0.40144 0.0
H176 H 0.4556 0.98569 0.36709 0.0
S177 S 0.10632 0.75134 0.44808 0.0
N178 N 0.22306 0.68767 0.45648 0.0
N179 N 0.12975 0.86759 0.41617 0.0
C180 C 0.23683 0.85819 0.4112 0.0
C181 C 0.28751 0.76109 0.43289 0.0
C182 C 0.06568 0.9501 0.19576 0.0
C183 C 0.15126 0.968 0.16336 0.0
C184 C 0.07707 0.97019 0.24938 0.0
C185 C 0.17388 1.00927 0.272 0.0
H186 H 0.98695 0.92789 0.17832 0.0
H187 H 1.00749 0.96213 0.2719 0.0
S188 S 0.42794 0.05118 0.20894 0.0
N189 N 0.34204 1.01049 0.16208 0.0
N190 N 0.36007 0.05289 0.26156 0.0
C191 C 0.26295 1.01744 0.24253 0.0
C192 C 0.25239 0.99564 0.18839 0.0
C193 C 0.09216 0.07769 0.80187 0.0
C194 C 0.08055 0.97816 0.83119 0.0
C195 C 0.08279 0.09773 0.74418 0.0
C196 C 0.06548 1.01813 0.71517 0.0
H197 H 0.09353 0.14168 0.82285 0.0
H198 H 0.0779 0.1759 0.72216 0.0
S199 S 0.05822 0.74295 0.77376 0.0
N200 N 0.06736 0.79884 0.82774 0.0
N201 N 0.06333 0.83519 0.71978 0.0
C202 C 0.07309 0.91726 0.74468 0.0
C203 C 0.07683 0.89738 0.80288 0.0
C204 C 0.56589 0.36406 0.73318 0.0
C205 C 0.56318 0.42021 0.6792 0.0
C206 C 0.54358 0.41184 0.77648 0.0
C207 C 0.52362 0.51776 0.76733 0.0
H208 H 0.58918 0.28406 0.74225 0.0
H209 H 0.54779 0.3671 0.81777 0.0
S210 S 0.51393 0.69875 0.63426 0.0
N211 N 0.53665 0.5865 0.61916 0.0
N212 N 0.50561 0.67669 0.70098 0.0
C213 C 0.51992 0.57378 0.71352 0.0
C214 C 0.5372 0.5249 0.66937 0.0
C215 C 0.68232 0.36121 0.30064 0.0
C216 C 0.65855 0.43184 0.33263 0.0
C217 C 0.67514 0.39034 0.24307 0.0
C218 C 0.63566 0.48826 0.2161 0.0
H219 H 0.69521 0.28155 0.31928 0.0
H220 H 0.68559 0.33229 0.21916 0.0
S221 S 0.58343 0.70432 0.28359 0.0
N222 N 0.6188 0.60816 0.33499 0.0
N223 N 0.59061 0.65913 0.22696 0.0
C224 C 0.6258 0.5621 0.24839 0.0
C225 C 0.64025 0.53423 0.30687 0.0
loop_
_geom_bond_atom_site_label_1
_geom_bond_atom_site_label_2
_geom_bond_distance
_geom_bond_site_symmetry_2
_ccdc_geom_bond_type
Zn0 O6 1.920 1_545 S
Zn0 O12 1.898 . S
Zn0 O15 1.905 1_545 S
Zn1 O9 1.905 1_565 S
Zn1 O10 1.898 . S
Zn1 O18 1.920 . S
Zn2 O5 2.080 1_445 S
Zn2 O8 2.114 . S
Zn2 O11 2.120 1_545 S
Zn2 O13 2.120 1_455 S
Zn2 O14 2.114 1_554 S
Zn2 O17 2.080 . S
C3 O8 1.166 . S
C3 O9 1.182 . S
C4 O10 1.167 . S
C4 O11 1.299 . S
O5 Zn2 2.080 1_665 S
O5 C19 1.305 . S
O6 Zn0 1.920 1_565 S
O6 C19 1.234 1_556 S
C7 O12 1.167 . S
C7 O13 1.299 1_556 S
O8 Zn2 2.114 . S
O8 C3 1.166 . S
O9 Zn1 1.905 1_545 S
O9 C3 1.182 . S
O10 Zn1 1.898 . S
O10 C4 1.167 . S
O11 Zn2 2.120 1_565 S
O11 C4 1.299 . S
O12 Zn0 1.898 . S
O12 C7 1.167 . S
O13 Zn2 2.120 1_655 S
O13 C7 1.299 1_554 S
O14 Zn2 2.114 1_556 S
O14 C16 1.166 1_545 S
O15 Zn0 1.905 1_565 S
O15 C16 1.182 1_655 S
C16 O14 1.166 1_565 S
C16 O15 1.182 1_455 S
O17 Zn2 2.080 . S
O17 C20 1.305 1_545 S
O18 Zn1 1.920 . S
O18 C20 1.234 . S
C19 O5 1.305 . S
C19 O6 1.234 1_554 S
C20 O17 1.305 1_565 S
C20 O18 1.234 . S
Zn21 O27 1.920 . S
Zn21 O33 1.898 . S
Zn21 O36 1.905 . S
Zn22 O30 1.905 . S
Zn22 O31 1.898 . S
Zn22 O39 1.920 . S
Zn23 O26 2.080 . S
Zn23 O29 2.114 . S
Zn23 O32 2.120 . S
Zn23 O34 2.120 . S
Zn23 O35 2.114 . S
Zn23 O38 2.080 . S
C24 O29 1.166 . S
C24 O30 1.182 . S
C25 O31 1.167 . S
C25 O32 1.299 . S
O26 Zn23 2.080 . S
O26 C40 1.305 . S
O27 Zn21 1.920 . S
O27 C40 1.234 . S
C28 O33 1.167 . S
C28 O34 1.299 . S
O29 Zn23 2.114 . S
O29 C24 1.166 . S
O30 Zn22 1.905 . S
O30 C24 1.182 . S
O31 Zn22 1.898 . S
O31 C25 1.167 . S
O32 Zn23 2.120 . S
O32 C25 1.299 . S
O33 Zn21 1.898 . S
O33 C28 1.167 . S
O34 Zn23 2.120 . S
O34 C28 1.299 . S
O35 Zn23 2.114 . S
O35 C37 1.166 . S
O36 Zn21 1.905 . S
O36 C37 1.182 . S
C37 O35 1.166 . S
C37 O36 1.182 . S
O38 Zn23 2.080 . S
O38 C41 1.305 . S
O39 Zn22 1.920 . S
O39 C41 1.234 . S
C40 O26 1.305 . S
C40 O27 1.234 . S
C41 O38 1.305 . S
C41 O39 1.234 . S
C42 N43 1.317 1_545 S
C42 N44 1.348 . S
C42 C45 1.485 . S
N43 C42 1.317 1_565 S
N43 N47 1.370 1_565 S
N44 C42 1.348 . S
N44 C46 1.346 . S
C45 C42 1.485 . S
C45 H49 0.960 1_545 S
C45 H50 0.961 . S
C45 H51 0.960 1_545 S
C46 N44 1.346 . S
C46 N47 1.307 . S
C46 C48 1.486 1_455 S
N47 N43 1.370 1_545 S
N47 C46 1.307 . S
C48 C46 1.486 1_655 S
C48 H52 0.960 . S
C48 H53 0.960 . S
C48 H54 0.959 . S
H49 C45 0.960 1_565 S
H50 C45 0.961 . S
H51 C45 0.960 1_565 S
H52 C48 0.960 . S
H53 C48 0.960 . S
H54 C48 0.959 . S
C55 N56 1.317 . S
C55 N57 1.348 1_445 S
C55 C58 1.485 . S
N56 C55 1.317 . S
N56 N60 1.370 . S
N57 C55 1.348 1_665 S
N57 C59 1.346 . S
C58 C55 1.485 . S
C58 H62 0.960 1_455 S
C58 H63 0.961 1_545 S
C58 H64 0.960 . S
C59 N57 1.346 . S
C59 N60 1.307 1_665 S
C59 C61 1.486 . S
N60 N56 1.370 . S
N60 C59 1.307 1_445 S
C61 C59 1.486 . S
C61 H65 0.960 . S
C61 H66 0.960 . S
C61 H67 0.959 . S
H62 C58 0.960 1_655 S
H63 C58 0.961 1_565 S
H64 C58 0.960 . S
H65 C61 0.960 . S
H66 C61 0.960 . S
H67 C61 0.959 . S
C68 N69 1.317 . S
C68 N70 1.348 . S
C68 C71 1.485 1_556 S
N69 C68 1.317 . S
N69 N73 1.370 . S
N70 C68 1.348 . S
N70 C72 1.346 . S
C71 C68 1.485 1_554 S
C71 H75 0.960 . S
C71 H76 0.961 . S
C71 H77 0.960 . S
C72 N70 1.346 . S
C72 N73 1.307 . S
C72 C74 1.486 . S
N73 N69 1.370 . S
N73 C72 1.307 . S
C74 C72 1.486 . S
C74 H78 0.960 . S
C74 H79 0.960 . S
C74 H80 0.959 . S
H75 C71 0.960 . S
H76 C71 0.961 . S
H77 C71 0.960 . S
H78 C74 0.960 . S
H79 C74 0.960 . S
H80 C74 0.959 . S
C81 N82 1.317 . S
C81 N83 1.348 . S
C81 C84 1.485 1_554 S
N82 C81 1.317 . S
N82 N86 1.370 . S
N83 C81 1.348 . S
N83 C85 1.346 . S
C84 C81 1.485 1_556 S
C84 H88 0.960 . S
C84 H89 0.961 . S
C84 H90 0.960 . S
C85 N83 1.346 . S
C85 N86 1.307 . S
C85 C87 1.486 . S
N86 N82 1.370 . S
N86 C85 1.307 . S
C87 C85 1.486 . S
C87 H91 0.960 . S
C87 H92 0.960 . S
C87 H93 0.959 . S
H88 C84 0.960 . S
H89 C84 0.961 . S
H90 C84 0.960 . S
H91 C87 0.960 . S
H92 C87 0.960 . S
H93 C87 0.959 . S
C94 C95 1.369 1_556 S
C94 C96 1.419 1_556 S
C94 H98 0.930 . S
C95 C94 1.369 1_554 S
C95 C104 1.429 . S
C96 C94 1.419 1_554 S
C96 C97 1.363 . S
C96 H99 0.929 1_554 S
C97 C96 1.363 . S
C97 C103 1.428 . S
H98 C94 0.930 . S
H99 C96 0.929 1_556 S
S100 N101 1.613 . S
S100 N102 1.610 . S
N101 S100 1.613 . S
N101 C104 1.350 . S
N102 S100 1.610 . S
N102 C103 1.351 . S
C103 C97 1.428 . S
C103 N102 1.351 . S
C103 C104 1.434 . S
C104 C95 1.429 . S
C104 N101 1.350 . S
C104 C103 1.434 . S
C105 C106 1.369 . S
C105 C107 1.419 . S
C105 H109 0.930 . S
C106 C105 1.369 . S
C106 C115 1.429 . S
C107 C105 1.419 . S
C107 C108 1.363 . S
C107 H110 0.929 . S
C108 C107 1.363 . S
C108 C114 1.428 . S
H109 C105 0.930 . S
H110 C107 0.929 . S
S111 N112 1.613 . S
S111 N113 1.610 . S
N112 S111 1.613 . S
N112 C115 1.350 . S
N113 S111 1.610 . S
N113 C114 1.351 . S
C114 C108 1.428 . S
C114 N113 1.351 . S
C114 C115 1.434 . S
C115 C106 1.429 . S
C115 N112 1.350 . S
C115 C114 1.434 . S
C116 C117 1.369 . S
C116 C118 1.419 . S
C116 H120 0.930 . S
C117 C116 1.369 . S
C117 C126 1.429 . S
C118 C116 1.419 . S
C118 C119 1.363 . S
C118 H121 0.929 . S
C119 C118 1.363 . S
C119 C125 1.428 . S
H120 C116 0.930 . S
H121 C118 0.929 . S
S122 N123 1.613 . S
S122 N124 1.610 . S
N123 S122 1.613 . S
N123 C126 1.350 . S
N124 S122 1.610 . S
N124 C125 1.351 . S
C125 C119 1.428 . S
C125 N124 1.351 . S
C125 C126 1.434 . S
C126 C117 1.429 . S
C126 N123 1.350 . S
C126 C125 1.434 . S
C127 C128 1.369 1_554 S
C127 C129 1.419 1_554 S
C127 H131 0.930 . S
C128 C127 1.369 1_556 S
C128 C137 1.429 . S
C129 C127 1.419 1_556 S
C129 C130 1.363 . S
C129 H132 0.929 1_556 S
C130 C129 1.363 . S
C130 C136 1.428 . S
H131 C127 0.930 . S
H132 C129 0.929 1_554 S
S133 N134 1.613 . S
S133 N135 1.610 . S
N134 S133 1.613 . S
N134 C137 1.350 . S
N135 S133 1.610 . S
N135 C136 1.351 . S
C136 C130 1.428 . S
C136 N135 1.351 . S
C136 C137 1.434 . S
C137 C128 1.429 . S
C137 N134 1.350 . S
C137 C136 1.434 . S
C138 C139 1.369 . S
C138 C140 1.419 . S
C138 H142 0.930 . S
C139 C138 1.369 . S
C139 C148 1.429 . S
C140 C138 1.419 . S
C140 C141 1.363 . S
C140 H143 0.929 . S
C141 C140 1.363 . S
C141 C147 1.428 . S
H142 C138 0.930 . S
H143 C140 0.929 . S
S144 N145 1.613 . S
S144 N146 1.610 . S
N145 S144 1.613 . S
N145 C148 1.350 . S
N146 S144 1.610 . S
N146 C147 1.351 . S
C147 C141 1.428 . S
C147 N146 1.351 . S
C147 C148 1.434 . S
C148 C139 1.429 . S
C148 N145 1.350 . S
C148 C147 1.434 . S
C149 C150 1.369 . S
C149 C151 1.419 . S
C149 H153 0.930 . S
C150 C149 1.369 . S
C150 C159 1.429 . S
C151 C149 1.419 . S
C151 C152 1.363 . S
C151 H154 0.929 1_655 S
C152 C151 1.363 . S
C152 C158 1.428 . S
H153 C149 0.930 . S
H154 C151 0.929 1_455 S
S155 N156 1.613 . S
S155 N157 1.610 . S
N156 S155 1.613 . S
N156 C159 1.350 . S
N157 S155 1.610 . S
N157 C158 1.351 . S
C158 C152 1.428 . S
C158 N157 1.351 . S
C158 C159 1.434 . S
C159 C150 1.429 . S
C159 N156 1.350 . S
C159 C158 1.434 . S
C160 C161 1.369 . S
C160 C162 1.419 . S
C160 H164 0.930 . S
C161 C160 1.369 . S
C161 C170 1.429 . S
C162 C160 1.419 . S
C162 C163 1.363 . S
C162 H165 0.929 . S
C163 C162 1.363 . S
C163 C169 1.428 . S
H164 C160 0.930 . S
H165 C162 0.929 . S
S166 N167 1.613 . S
S166 N168 1.610 . S
N167 S166 1.613 . S
N167 C170 1.350 . S
N168 S166 1.610 . S
N168 C169 1.351 . S
C169 C163 1.428 . S
C169 N168 1.351 . S
C169 C170 1.434 . S
C170 C161 1.429 . S
C170 N167 1.350 . S
C170 C169 1.434 . S
C171 C172 1.369 . S
C171 C173 1.419 . S
C171 H175 0.930 . S
C172 C171 1.369 . S
C172 C181 1.429 . S
C173 C171 1.419 . S
C173 C174 1.363 . S
C173 H176 0.929 . S
C174 C173 1.363 . S
C174 C180 1.428 . S
H175 C171 0.930 . S
H176 C173 0.929 . S
S177 N178 1.613 . S
S177 N179 1.610 . S
N178 S177 1.613 . S
N178 C181 1.350 . S
N179 S177 1.610 . S
N179 C180 1.351 . S
C180 C174 1.428 . S
C180 N179 1.351 . S
C180 C181 1.434 . S
C181 C172 1.429 . S
C181 N178 1.350 . S
C181 C180 1.434 . S
C182 C183 1.369 1_545 S
C182 C184 1.419 . S
C182 H186 0.930 1_455 S
C183 C182 1.369 1_565 S
C183 C192 1.429 . S
C184 C182 1.419 . S
C184 C185 1.363 1_545 S
C184 H187 0.929 1_455 S
C185 C184 1.363 1_565 S
C185 C191 1.428 . S
H186 C182 0.930 1_655 S
H187 C184 0.929 1_655 S
S188 N189 1.613 . S
S188 N190 1.610 . S
N189 S188 1.613 . S
N189 C192 1.350 . S
N190 S188 1.610 . S
N190 C191 1.351 . S
C191 C185 1.428 . S
C191 N190 1.351 . S
C191 C192 1.434 . S
C192 C183 1.429 . S
C192 N189 1.350 . S
C192 C191 1.434 . S
C193 C194 1.369 1_545 S
C193 C195 1.419 . S
C193 H197 0.930 . S
C194 C193 1.369 1_565 S
C194 C203 1.429 1_455 S
C195 C193 1.419 . S
C195 C196 1.363 . S
C195 H198 0.929 . S
C196 C195 1.363 . S
C196 C202 1.428 1_445 S
H197 C193 0.930 . S
H198 C195 0.929 . S
S199 N200 1.613 . S
S199 N201 1.610 . S
N200 S199 1.613 . S
N200 C203 1.350 . S
N201 S199 1.610 . S
N201 C202 1.351 . S
C202 C196 1.428 1_665 S
C202 N201 1.351 . S
C202 C203 1.434 . S
C203 C194 1.429 1_655 S
C203 N200 1.350 . S
C203 C202 1.434 . S
C204 C205 1.369 . S
C204 C206 1.419 . S
C204 H208 0.930 . S
C205 C204 1.369 . S
C205 C214 1.429 . S
C206 C204 1.419 . S
C206 C207 1.363 . S
C206 H209 0.929 . S
C207 C206 1.363 . S
C207 C213 1.428 . S
H208 C204 0.930 . S
H209 C206 0.929 . S
S210 N211 1.613 . S
S210 N212 1.610 . S
N211 S210 1.613 . S
N211 C214 1.350 . S
N212 S210 1.610 . S
N212 C213 1.351 . S
C213 C207 1.428 . S
C213 N212 1.351 . S
C213 C214 1.434 . S
C214 C205 1.429 . S
C214 N211 1.350 . S
C214 C213 1.434 . S
C215 C216 1.369 . S
C215 C217 1.419 . S
C215 H219 0.930 . S
C216 C215 1.369 . S
C216 C225 1.429 . S
C217 C215 1.419 . S
C217 C218 1.363 . S
C217 H220 0.929 . S
C218 C217 1.363 . S
C218 C224 1.428 . S
H219 C215 0.930 . S
H220 C217 0.929 . S
S221 N222 1.613 . S
S221 N223 1.610 . S
N222 S221 1.613 . S
N222 C225 1.350 . S
N223 S221 1.610 . S
N223 C224 1.351 . S
C224 C218 1.428 . S
C224 N223 1.351 . S
C224 C225 1.434 . S
C225 C216 1.429 . S
C225 N222 1.350 . S
C225 C224 1.434 . S
C97 N83 1.334 . S
C95 C3 1.185 . S
C106 C4 1.454 1_556 S
C108 N70 1.526 . S
C117 C19 1.490 . S
C119 N82 1.619 . S
C128 C7 1.222 . S
C130 N69 1.408 . S
C139 C37 1.198 . S
C141 N57 1.336 . S
C150 C28 1.451 . S
C152 N44 1.526 1_655 S
C163 N56 1.617 . S
C161 C41 1.487 . S
C174 N43 1.409 . S
C172 C25 1.217 . S
C183 C20 1.373 . S
C185 N47 1.569 1_565 S
C194 C16 1.391 . S
C196 N60 1.499 . S
C207 N73 1.568 . S
C205 C40 1.367 . S
C216 C24 1.384 . S
C218 N86 1.500 . S
