# Generated by pormake.
# Topology pts, (4,4)-cn, num edge types: 1
# Building blocks:
#     Node 0, Type 0, BuildingBlock: GIZVER_clean_linker_0, # of connection points: 4
#     Node 1, Type 0, BuildingBlock: GIZVER_clean_linker_0, # of connection points: 4
#     Node 2, Type 1, BuildingBlock: QUQFOY_clean_sbu_1, # of connection points: 4
#     Node 3, Type 1, BuildingBlock: QUQFOY_clean_sbu_1, # of connection points: 4
#     Edge 4, Type (0, 1), BuildingBlock: AJUNOK_clean_linker_0, # of connection points: 2
#     Edge 5, Type (0, 1), BuildingBlock: AJUNOK_clean_linker_0, # of connection points: 2
#     Edge 6, Type (0, 1), BuildingBlock: AJUNOK_clean_linker_0, # of connection points: 2
#     Edge 7, Type (0, 1), BuildingBlock: AJUNOK_clean_linker_0, # of connection points: 2
#     Edge 8, Type (0, 1), BuildingBlock: AJUNOK_clean_linker_0, # of connection points: 2
#     Edge 9, Type (0, 1), BuildingBlock: AJUNOK_clean_linker_0, # of connection points: 2
#     Edge 10, Type (0, 1), BuildingBlock: AJUNOK_clean_linker_0, # of connection points: 2
#     Edge 11, Type (0, 1), BuildingBlock: AJUNOK_clean_linker_0, # of connection points: 2
# Relax obj value: 0.103
# Max RMSD: 0.274
# Mean RMSD: 0.183
data_MOF--net-pts--node1-QUQFOY_clean_sbu_1--node2-GIZVER_clean_linker_0--edge1-AJUNOK_clean_linker_0
_symmetry_space_group_name_H-M    P1
_symmetry_Int_Tables_number       1
_symmetry_cell_setting            triclinic
loop_
_symmetry_equiv_pos_as_xyz
'x, y, z'
_cell_length_a     18.155788
_cell_length_b     18.098085
_cell_length_c     29.696033
_cell_angle_alpha  90.711395
_cell_angle_beta   90.241359
_cell_angle_gamma 89.484974
loop_
_atom_site_label
_atom_site_type_symbol
_atom_site_fract_x
_atom_site_fract_y
_atom_site_fract_z
_atom_type_partial_charge
H0 H 0.57822 0.17989 0.02951 0.0
H1 H 0.58161 0.18484 0.88467 0.0
H2 H 0.76202 0.08631 -0.04286 0.0
H3 H 0.49741 0.26565 -0.01231 0.0
H4 H 0.49834 0.26686 0.9275 0.0
H5 H 0.42707 0.17266 0.02803 0.0
H6 H 0.26047 1.05787 -0.04753 0.0
H7 H 0.43036 0.17399 0.8831 0.0
C8 C 0.6051 0.16604 -0.00205 0.0
C9 C 0.6736 0.12951 -0.0018 0.0
C10 C 0.57188 0.18633 -0.04293 0.0
C11 C 0.60699 0.16884 0.91622 0.0
C12 C 0.67547 0.13236 0.91604 0.0
C13 C 0.70785 0.11207 -0.0429 0.0
C14 C 0.50086 0.22971 -0.04293 0.0
C15 C 0.43636 0.17808 -0.04428 0.0
C16 C 0.40449 0.15433 -0.00402 0.0
C17 C 0.3417 0.10974 -0.00498 0.0
C18 C 0.31187 0.08791 -0.04665 0.0
C19 C 0.34362 0.11034 0.91282 0.0
C20 C 0.40636 0.15505 0.91422 0.0
H21 H 0.09031 0.66193 0.38209 0.0
H22 H 0.09184 0.67128 0.52679 0.0
H23 H 0.98566 0.84389 0.45177 0.0
H24 H 0.17764 0.58824 0.42562 0.0
H25 H 0.17749 0.59101 0.48551 0.0
H26 H 0.10668 0.49697 0.38473 0.0
H27 H 0.01434 0.32071 0.46101 0.0
H28 H 0.08264 0.5209 0.5282 0.0
C29 C 0.07209 0.68817 0.41314 0.0
C30 C 0.03498 0.75666 0.41187 0.0
C31 C 0.0912 0.65609 0.45455 0.0
C32 C 0.0734 0.6936 0.49493 0.0
C33 C 0.03713 0.76251 0.49407 0.0
C34 C 0.01524 0.7916 0.45253 0.0
C35 C 0.14072 0.5886 0.45545 0.0
C36 C 0.09805 0.5173 0.45635 0.0
C37 C 0.08797 0.47546 0.41657 0.0
C38 C 0.05823 0.40413 0.41817 0.0
C39 C 0.03665 0.37595 0.45981 0.0
C40 C 0.04658 0.41643 0.49997 0.0
C41 C 0.07529 0.48829 0.49772 0.0
O42 O 0.90803 1.01881 0.14883 0.0
Cd43 Cd 1.00574 0.99548 0.18152 0.0
Cd44 Cd 0.01126 0.1449 0.19319 0.0
O45 O 0.91108 0.13937 0.16022 0.0
O46 O 1.00316 0.89358 0.20681 0.0
O47 O 0.01116 0.99564 0.24844 0.0
C48 C 0.00814 0.92437 0.24617 0.0
C49 C 0.02318 0.2181 0.25813 0.0
C50 C 0.87945 1.08262 0.14383 0.0
C51 C 0.13172 1.07147 0.1381 0.0
O52 O 0.10442 0.13088 0.15448 0.0
O53 O 0.1011 1.00987 0.14533 0.0
O54 O 0.01707 0.24753 0.21897 0.0
O55 O 0.02079 0.14699 0.26043 0.0
O56 O 0.91551 0.15024 0.75669 0.0
Cd57 Cd 0.01028 0.15503 0.71886 0.0
Cd58 Cd 1.0027 1.00572 0.72604 0.0
O59 O 0.90581 1.02897 0.75963 0.0
O60 O 0.0197 0.26006 0.69975 0.0
O61 O 1.00301 0.16701 0.65179 0.0
C62 C 0.01245 0.2368 0.65884 0.0
C63 C 1.0061 0.93837 0.65895 0.0
C64 C 0.88149 0.09322 0.76962 0.0
C65 C 0.1337 1.07606 0.76834 0.0
O66 O 0.09868 1.01618 0.76268 0.0
O67 O 0.10874 0.13579 0.75185 0.0
O68 O 0.99923 0.90555 0.69708 0.0
O69 O 0.00894 1.00973 0.65921 0.0
C70 C 0.27967 0.15422 0.06511 0.0
C71 C 0.30018 0.09491 0.03675 0.0
C72 C 0.22826 0.14495 0.09951 0.0
C73 C 0.19528 1.07597 0.10693 0.0
H74 H 0.30006 0.20926 0.05901 0.0
H75 H 0.21189 0.19326 0.11905 0.0
S76 S 0.23973 0.90065 0.04603 0.0
N77 N 0.2909 0.96324 0.02142 0.0
N78 N 0.19388 0.94529 0.086 0.0
C79 C 0.21962 1.01495 0.08085 0.0
C80 C 0.27201 1.0246 0.04573 0.0
C81 C 0.97311 0.33123 0.54827 0.0
C82 C 0.03337 0.37932 0.54381 0.0
C83 C 0.9662 0.28564 0.58581 0.0
C84 C 0.01779 0.28831 0.62104 0.0
H85 H 0.93192 0.32711 0.5219 0.0
H86 H 0.92038 0.24779 0.58718 0.0
S87 S 0.18423 0.40482 0.62745 0.0
N88 N 0.14593 0.42568 0.57867 0.0
N89 N 0.12947 0.34368 0.65049 0.0
C90 C 0.07616 0.33829 0.61838 0.0
C91 C 0.08467 0.38312 0.57954 0.0
C92 C 0.7458 1.04526 0.04816 0.0
C93 C 0.71368 0.11506 0.04087 0.0
C94 C 0.79522 1.03378 0.0838 0.0
C95 C 0.81515 0.09199 0.11323 0.0
H96 H 0.73499 0.99992 0.02496 0.0
H97 H 0.82115 0.97988 0.08654 0.0
S98 S 0.73943 0.28333 0.11154 0.0
N99 N 0.7 0.24158 0.06811 0.0
N100 N 0.79239 0.22019 0.13537 0.0
C101 C 0.77931 0.1608 0.10813 0.0
C102 C 0.72871 0.1723 0.07188 0.0
C103 C 1.00036 0.77736 0.5753 0.0
C104 C 0.02879 0.80809 0.53582 0.0
C105 C 0.99258 0.82001 0.61487 0.0
C106 C 0.01275 0.89504 0.61638 0.0
H107 H 0.98351 0.72009 0.57551 0.0
H108 H 0.97032 0.79396 0.64443 0.0
S109 S 0.09582 1.00007 0.52305 0.0
N110 N 0.08187 0.91681 0.50159 0.0
N111 N 0.06548 0.99718 0.57529 0.0
C112 C 0.0419 0.92618 0.57721 0.0
C113 C 0.05043 0.88267 0.53715 0.0
C114 C 0.28409 0.15598 0.84253 0.0
C115 C 0.3038 0.09618 0.86992 0.0
C116 C 0.2327 0.14759 0.80762 0.0
C117 C 0.19883 1.07909 0.79879 0.0
H118 H 0.30471 0.21079 0.84998 0.0
H119 H 0.21654 0.19638 0.78912 0.0
S120 S 0.24263 0.9024 0.85588 0.0
N121 N 0.29404 0.96426 0.88219 0.0
N122 N 0.197 0.94802 0.81666 0.0
C123 C 0.22304 1.01743 0.82353 0.0
C124 C 0.27549 1.02615 0.85912 0.0
C125 C 0.02133 0.38486 0.33728 0.0
C126 C 0.05284 0.35682 0.37696 0.0
C127 C 0.01221 0.3397 0.29891 0.0
C128 C 0.0337 0.26472 0.29895 0.0
H129 H 1.00224 0.4417 0.33614 0.0
H130 H 0.987 0.36348 0.26924 0.0
S131 S 0.12633 0.16655 0.39273 0.0
N132 N 0.11175 0.25103 0.41252 0.0
N133 N 0.09223 0.16581 0.34112 0.0
C134 C 0.06676 0.23646 0.33808 0.0
C135 C 0.07699 0.28259 0.37685 0.0
C136 C 0.74857 1.0513 0.86377 0.0
C137 C 0.71726 0.12087 0.87372 0.0
C138 C 0.79797 1.04176 0.82801 0.0
C139 C 0.81872 0.10174 0.8012 0.0
H140 H 0.73673 1.00442 0.88482 0.0
H141 H 0.82295 0.98772 0.82296 0.0
S142 S 0.74668 0.29401 0.81104 0.0
N143 N 0.70619 0.2496 0.85222 0.0
N144 N 0.79868 0.23193 0.78481 0.0
C145 C 0.7844 0.17075 0.80928 0.0
C146 C 0.73376 0.18026 0.84557 0.0
C147 C 0.04514 0.87241 0.36737 0.0
C148 C 0.0256 0.79733 0.36893 0.0
C149 C 0.03835 0.91281 0.32773 0.0
C150 C 0.01259 0.87976 0.28766 0.0
H151 H 0.06708 0.90021 0.39697 0.0
H152 H 0.0547 0.97025 0.32845 0.0
S153 S 0.95148 0.68542 0.2739 0.0
N154 N 0.97693 0.69207 0.32724 0.0
N155 N 0.96571 0.76759 0.25211 0.0
C156 C 0.99269 0.80469 0.28857 0.0
C157 C 0.99898 0.76358 0.32927 0.0
loop_
_geom_bond_atom_site_label_1
_geom_bond_atom_site_label_2
_geom_bond_distance
_geom_bond_site_symmetry_2
_ccdc_geom_bond_type
H0 C8 0.930 . S
H1 C11 0.930 . S
H2 C13 0.920 1_565 S
H3 C14 0.970 . S
H4 C14 0.970 1_556 S
H5 C16 0.930 . S
H6 C18 0.930 . S
H7 C20 0.930 . S
C8 H0 0.930 . S
C8 C9 1.382 . S
C8 C10 1.426 . S
C9 C8 1.382 . S
C9 C13 1.395 . S
C10 C8 1.426 . S
C10 C11 1.375 1_554 S
C10 C14 1.532 . S
C11 H1 0.930 . S
C11 C10 1.375 1_556 S
C11 C12 1.416 . S
C12 C11 1.416 . S
C12 C13 1.375 1_556 S
C13 H2 0.920 1_545 S
C13 C9 1.395 . S
C13 C12 1.375 1_554 S
C14 H3 0.970 . S
C14 H4 0.970 1_554 S
C14 C10 1.532 . S
C14 C15 1.499 . S
C15 C14 1.499 . S
C15 C16 1.370 . S
C15 C20 1.415 1_554 S
C16 H5 0.930 . S
C16 C15 1.370 . S
C16 C17 1.407 . S
C17 C16 1.407 . S
C17 C18 1.365 1_545 S
C18 H6 0.930 . S
C18 C17 1.365 1_565 S
C18 C19 1.393 1_564 S
C19 C18 1.393 1_546 S
C19 C20 1.387 . S
C20 H7 0.930 . S
C20 C15 1.415 1_556 S
C20 C19 1.387 . S
H21 C29 0.930 . S
H22 C32 0.930 . S
H23 C34 0.930 . S
H24 C35 0.970 . S
H25 C35 0.970 . S
H26 C37 0.930 . S
H27 C39 0.930 . S
H28 C41 0.930 . S
C29 H21 0.930 . S
C29 C30 1.382 . S
C29 C31 1.426 . S
C30 C29 1.382 . S
C30 C34 1.389 1_455 S
C31 C29 1.426 . S
C31 C32 1.375 . S
C31 C35 1.532 . S
C32 H22 0.930 . S
C32 C31 1.375 . S
C32 C33 1.416 . S
C33 C32 1.416 . S
C33 C34 1.371 1_455 S
C34 H23 0.930 . S
C34 C30 1.389 1_655 S
C34 C33 1.371 1_655 S
C35 H24 0.970 . S
C35 H25 0.970 . S
C35 C31 1.532 . S
C35 C36 1.499 . S
C36 C35 1.499 . S
C36 C37 1.370 . S
C36 C41 1.415 . S
C37 H26 0.930 . S
C37 C36 1.370 . S
C37 C38 1.407 . S
C38 C37 1.407 . S
C38 C39 1.365 1_455 S
C39 H27 0.930 . S
C39 C38 1.365 1_655 S
C39 C40 1.393 1_655 S
C40 C39 1.393 1_455 S
C40 C41 1.387 . S
C41 H28 0.930 . S
C41 C36 1.415 . S
C41 C40 1.387 . S
O42 Cd43 2.223 1_655 S
O42 C50 1.315 . S
Cd43 O42 2.223 1_455 S
Cd43 O46 2.297 1_455 S
Cd43 O47 2.439 1_455 S
Cd43 O53 2.240 1_565 S
Cd44 O45 2.240 . S
Cd44 O52 2.223 1_655 S
Cd44 O54 2.297 1_655 S
Cd44 O55 2.439 1_655 S
O45 Cd44 2.240 . S
O45 C50 1.279 1_545 S
O46 Cd43 2.297 1_655 S
O46 C48 1.247 . S
O47 Cd43 2.439 1_655 S
O47 C48 1.208 . S
C48 O46 1.247 . S
C48 O47 1.208 . S
C49 O54 1.247 . S
C49 O55 1.208 . S
C50 O42 1.315 . S
C50 O45 1.279 1_565 S
C51 O52 1.315 . S
C51 O53 1.279 . S
O52 Cd44 2.223 1_455 S
O52 C51 1.315 . S
O53 Cd43 2.240 1_545 S
O53 C51 1.279 . S
O54 Cd44 2.297 1_455 S
O54 C49 1.247 . S
O55 Cd44 2.439 1_455 S
O55 C49 1.208 . S
O56 Cd57 2.223 1_655 S
O56 C64 1.315 . S
Cd57 O56 2.223 1_455 S
Cd57 O60 2.297 1_455 S
Cd57 O61 2.439 1_455 S
Cd57 O67 2.237 1_545 S
Cd58 O59 2.240 1_565 S
Cd58 O66 2.223 1_655 S
Cd58 O68 2.297 1_655 S
Cd58 O69 2.439 1_655 S
O59 Cd58 2.240 1_545 S
O59 C64 1.279 . S
O60 Cd57 2.297 1_655 S
O60 C62 1.247 . S
O61 Cd57 2.439 1_655 S
O61 C62 1.208 . S
C62 O60 1.247 . S
C62 O61 1.208 . S
C63 O68 1.247 . S
C63 O69 1.208 . S
C64 O56 1.315 . S
C64 O59 1.279 . S
C65 O66 1.315 . S
C65 O67 1.281 . S
O66 Cd58 2.223 1_455 S
O66 C65 1.315 . S
O67 Cd57 2.237 1_565 S
O67 C65 1.281 . S
O68 Cd58 2.297 1_455 S
O68 C63 1.247 . S
O69 Cd58 2.439 1_455 S
O69 C63 1.208 . S
C70 C71 1.369 . S
C70 C72 1.419 . S
C70 H74 0.930 . S
C71 C70 1.369 . S
C71 C80 1.429 1_545 S
C72 C70 1.419 . S
C72 C73 1.363 . S
C72 H75 0.929 . S
C73 C72 1.363 . S
C73 C79 1.428 1_545 S
H74 C70 0.930 . S
H75 C72 0.929 . S
S76 N77 1.613 . S
S76 N78 1.610 . S
N77 S76 1.613 . S
N77 C80 1.350 . S
N78 S76 1.610 . S
N78 C79 1.351 . S
C79 C73 1.428 1_565 S
C79 N78 1.351 . S
C79 C80 1.434 . S
C80 C71 1.429 1_565 S
C80 N77 1.350 . S
C80 C79 1.434 . S
C81 C82 1.369 1_655 S
C81 C83 1.419 . S
C81 H85 0.930 . S
C82 C81 1.369 1_455 S
C82 C91 1.429 . S
C83 C81 1.419 . S
C83 C84 1.363 . S
C83 H86 0.929 . S
C84 C83 1.363 . S
C84 C90 1.428 1_655 S
H85 C81 0.930 . S
H86 C83 0.929 . S
S87 N88 1.613 . S
S87 N89 1.610 . S
N88 S87 1.613 . S
N88 C91 1.350 . S
N89 S87 1.610 . S
N89 C90 1.351 . S
C90 C84 1.428 1_455 S
C90 N89 1.351 . S
C90 C91 1.434 . S
C91 C82 1.429 . S
C91 N88 1.350 . S
C91 C90 1.434 . S
C92 C93 1.369 1_565 S
C92 C94 1.419 . S
C92 H96 0.930 . S
C93 C92 1.369 1_545 S
C93 C102 1.429 . S
C94 C92 1.419 . S
C94 C95 1.363 . S
C94 H97 0.929 . S
C95 C94 1.363 . S
C95 C101 1.428 1_565 S
H96 C92 0.930 . S
H97 C94 0.929 . S
S98 N99 1.613 . S
S98 N100 1.610 . S
N99 S98 1.613 . S
N99 C102 1.350 . S
N100 S98 1.610 . S
N100 C101 1.351 . S
C101 C95 1.428 1_545 S
C101 N100 1.351 . S
C101 C102 1.434 . S
C102 C93 1.429 . S
C102 N99 1.350 . S
C102 C101 1.434 . S
C103 C104 1.369 . S
C103 C105 1.419 . S
C103 H107 0.930 . S
C104 C103 1.369 . S
C104 C113 1.429 . S
C105 C103 1.419 . S
C105 C106 1.363 . S
C105 H108 0.929 . S
C106 C105 1.363 . S
C106 C112 1.428 . S
H107 C103 0.930 . S
H108 C105 0.929 . S
S109 N110 1.613 . S
S109 N111 1.610 . S
N110 S109 1.613 . S
N110 C113 1.350 . S
N111 S109 1.610 . S
N111 C112 1.351 . S
C112 C106 1.428 . S
C112 N111 1.351 . S
C112 C113 1.434 . S
C113 C104 1.429 . S
C113 N110 1.350 . S
C113 C112 1.434 . S
C114 C115 1.369 . S
C114 C116 1.419 . S
C114 H118 0.930 . S
C115 C114 1.369 . S
C115 C124 1.429 1_545 S
C116 C114 1.419 . S
C116 C117 1.363 1_545 S
C116 H119 0.929 . S
C117 C116 1.363 1_565 S
C117 C123 1.428 . S
H118 C114 0.930 . S
H119 C116 0.929 . S
S120 N121 1.613 . S
S120 N122 1.610 . S
N121 S120 1.613 . S
N121 C124 1.350 . S
N122 S120 1.610 . S
N122 C123 1.351 . S
C123 C117 1.428 . S
C123 N122 1.351 . S
C123 C124 1.434 . S
C124 C115 1.429 1_565 S
C124 N121 1.350 . S
C124 C123 1.434 . S
C125 C126 1.369 . S
C125 C127 1.419 . S
C125 H129 0.930 . S
C126 C125 1.369 . S
C126 C135 1.429 1_455 S
C127 C125 1.419 . S
C127 C128 1.363 . S
C127 H130 0.929 . S
C128 C127 1.363 . S
C128 C134 1.428 . S
H129 C125 0.930 . S
H130 C127 0.929 . S
S131 N132 1.613 . S
S131 N133 1.610 . S
N132 S131 1.613 . S
N132 C135 1.350 . S
N133 S131 1.610 . S
N133 C134 1.351 1_655 S
C134 C128 1.428 . S
C134 N133 1.351 1_455 S
C134 C135 1.434 1_455 S
C135 C126 1.429 1_655 S
C135 N132 1.350 . S
C135 C134 1.434 1_655 S
C136 C137 1.369 1_565 S
C136 C138 1.419 1_565 S
C136 H140 0.930 . S
C137 C136 1.369 1_545 S
C137 C146 1.429 . S
C138 C136 1.419 1_545 S
C138 C139 1.363 . S
C138 H141 0.929 . S
C139 C138 1.363 . S
C139 C145 1.428 . S
H140 C136 0.930 . S
H141 C138 0.929 . S
S142 N143 1.613 . S
S142 N144 1.610 . S
N143 S142 1.613 . S
N143 C146 1.350 . S
N144 S142 1.610 . S
N144 C145 1.351 . S
C145 C139 1.428 . S
C145 N144 1.351 . S
C145 C146 1.434 . S
C146 C137 1.429 . S
C146 N143 1.350 . S
C146 C145 1.434 . S
C147 C148 1.369 1_655 S
C147 C149 1.419 . S
C147 H151 0.930 . S
C148 C147 1.369 1_455 S
C148 C157 1.429 . S
C149 C147 1.419 . S
C149 C150 1.363 . S
C149 H152 0.929 . S
C150 C149 1.363 . S
C150 C156 1.428 1_655 S
H151 C147 0.930 . S
H152 C149 0.929 . S
S153 N154 1.613 . S
S153 N155 1.610 . S
N154 S153 1.613 . S
N154 C157 1.350 . S
N155 S153 1.610 . S
N155 C156 1.351 . S
C156 C150 1.428 1_455 S
C156 N155 1.351 . S
C156 C157 1.434 . S
C157 C148 1.429 . S
C157 N154 1.350 . S
C157 C156 1.434 . S
C73 C51 1.680 . S
C71 C17 1.569 . S
C84 C62 1.542 . S
C82 C40 1.595 . S
C95 C50 1.676 . S
C93 C9 1.625 . S
C106 C63 1.556 . S
C104 C33 1.503 . S
C117 C65 1.666 . S
C115 C19 1.627 . S
C128 C49 1.559 . S
C126 C38 1.524 . S
C139 C64 1.677 . S
C137 C12 1.542 . S
C148 C30 1.600 . S
C150 C48 1.552 . S
