# Generated by pormake.
# Topology tsx, (6,3)-cn, num edge types: 1
# Building blocks:
#     Node 0, Type 0, BuildingBlock: CIFDUS_clean_sbu_1, # of connection points: 6
#     Node 1, Type 0, BuildingBlock: CIFDUS_clean_sbu_1, # of connection points: 6
#     Node 2, Type 1, BuildingBlock: PAMTOO_clean_linker_0, # of connection points: 3
#     Node 3, Type 1, BuildingBlock: PAMTOO_clean_linker_0, # of connection points: 3
#     Node 4, Type 1, BuildingBlock: PAMTOO_clean_linker_0, # of connection points: 3
#     Node 5, Type 1, BuildingBlock: PAMTOO_clean_linker_0, # of connection points: 3
#     Edge 6, Type (0, 1), BuildingBlock: AJUNOK_clean_linker_0, # of connection points: 2
#     Edge 7, Type (0, 1), BuildingBlock: AJUNOK_clean_linker_0, # of connection points: 2
#     Edge 8, Type (0, 1), BuildingBlock: AJUNOK_clean_linker_0, # of connection points: 2
#     Edge 9, Type (0, 1), BuildingBlock: AJUNOK_clean_linker_0, # of connection points: 2
#     Edge 10, Type (0, 1), BuildingBlock: AJUNOK_clean_linker_0, # of connection points: 2
#     Edge 11, Type (0, 1), BuildingBlock: AJUNOK_clean_linker_0, # of connection points: 2
#     Edge 12, Type (0, 1), BuildingBlock: AJUNOK_clean_linker_0, # of connection points: 2
#     Edge 13, Type (0, 1), BuildingBlock: AJUNOK_clean_linker_0, # of connection points: 2
#     Edge 14, Type (0, 1), BuildingBlock: AJUNOK_clean_linker_0, # of connection points: 2
#     Edge 15, Type (0, 1), BuildingBlock: AJUNOK_clean_linker_0, # of connection points: 2
#     Edge 16, Type (0, 1), BuildingBlock: AJUNOK_clean_linker_0, # of connection points: 2
#     Edge 17, Type (0, 1), BuildingBlock: AJUNOK_clean_linker_0, # of connection points: 2
# Relax obj value: 0.127
# Max RMSD: 0.140
# Mean RMSD: 0.134
data_MOF--net-tsx--node1-CIFDUS_clean_sbu_1--node2-PAMTOO_clean_linker_0--edge1-AJUNOK_clean_linker_0
_symmetry_space_group_name_H-M    P1
_symmetry_Int_Tables_number       1
_symmetry_cell_setting            triclinic
loop_
_symmetry_equiv_pos_as_xyz
'x, y, z'
_cell_length_a     13.688996
_cell_length_b     16.691526
_cell_length_c     25.485641
_cell_angle_alpha  87.602696
_cell_angle_beta   91.512807
_cell_angle_gamma 89.954081
loop_
_atom_site_label
_atom_site_type_symbol
_atom_site_fract_x
_atom_site_fract_y
_atom_site_fract_z
_atom_type_partial_charge
O0 O 0.97065 0.16017 0.00229 0.0
Mn1 Mn 0.06232 0.05894 -0.00585 0.0
O2 O 0.88663 0.1426 0.92825 0.0
Mn3 Mn 0.91737 0.03499 0.92569 0.0
O4 O 0.14174 0.94998 -0.01819 0.0
O5 O 0.18355 0.1382 0.00737 0.0
Mn6 Mn 0.25182 0.05161 0.03245 0.0
O7 O 0.05186 0.03238 0.07415 0.0
O8 O 0.29545 0.98368 -0.01539 0.0
O9 O 0.08338 0.09113 0.91418 0.0
O10 O 0.99846 1.00056 0.87625 0.0
O11 O 0.33814 0.12627 0.04192 0.0
O12 O 0.208 0.00746 0.09497 0.0
C13 C 0.85239 0.95185 0.97011 0.0
C14 C 0.90493 0.18365 0.96799 0.0
C15 C 0.23122 0.9347 0.97186 0.0
C16 C 0.26903 0.1711 0.02099 0.0
C17 C 0.11906 0.00944 0.10715 0.0
C18 C 0.06758 0.04877 0.87444 0.0
O19 O 0.93672 0.98242 -0.01259 0.0
O20 O 0.81121 0.97854 0.92644 0.0
O21 O 0.47435 0.66213 0.49859 0.0
Mn22 Mn 0.56731 0.56272 0.48906 0.0
O23 O 0.35679 0.63289 0.43989 0.0
Mn24 Mn 0.39768 0.52941 0.43021 0.0
O25 O 0.65121 0.45872 0.47609 0.0
O26 O 0.68633 0.64172 0.49602 0.0
Mn27 Mn 0.77527 0.57132 0.522 0.0
O28 O 0.57392 0.53846 0.56981 0.0
O29 O 0.80727 0.49204 0.47785 0.0
O30 O 0.5724 0.59332 0.40779 0.0
O31 O 0.46923 0.50973 0.37355 0.0
O32 O 0.84487 0.66148 0.51556 0.0
O33 O 0.73557 0.53949 0.5886 0.0
C34 C 0.36621 0.43792 0.47909 0.0
C35 C 0.39417 0.67961 0.4729 0.0
C36 C 0.7408 0.4428 0.46725 0.0
C37 C 0.76105 0.69157 0.50037 0.0
C38 C 0.64705 0.53151 0.60236 0.0
C39 C 0.537 0.5591 0.36776 0.0
O40 O 0.44689 0.48067 0.48807 0.0
O41 O 0.30729 0.45698 0.43986 0.0
H42 H 0.19336 0.89413 0.34553 0.0
H43 H 0.99833 0.09508 0.32831 0.0
H44 H 0.08772 1.00418 0.48254 0.0
H45 H 0.83366 0.07542 0.43741 0.0
C46 C 0.87539 0.12263 0.41634 0.0
O47 O 0.97489 0.11323 0.42745 0.0
H48 H 0.85884 0.11531 0.37389 0.0
C49 C 0.14806 0.93834 0.36332 0.0
C50 C 0.14814 0.94336 0.41815 0.0
C51 C 0.09263 0.99221 0.33131 0.0
C52 C 0.03735 0.05135 0.3536 0.0
C53 C 0.03024 0.05428 0.40786 0.0
C54 C 0.08698 1.00026 0.44052 0.0
H55 H 0.19635 0.19948 0.65583 0.0
H56 H 0.98294 0.01441 0.64351 0.0
H57 H 0.06097 0.15513 0.50542 0.0
H58 H 0.81805 0.06575 0.52199 0.0
C59 C 0.85577 0.0198 0.54708 0.0
O60 O 0.95634 0.02775 0.54214 0.0
H61 H 0.83508 0.03233 0.5878 0.0
C62 C 0.14405 0.16844 0.63137 0.0
C63 C 0.1352 0.18716 0.57749 0.0
C64 C 0.0869 0.10902 0.6548 0.0
C65 C 0.02446 0.06234 0.62472 0.0
C66 C 1.01334 0.07816 0.57071 0.0
C67 C 0.06804 0.14194 0.54703 0.0
H68 H 0.68329 0.3812 0.84005 0.0
H69 H 0.49548 0.58603 0.81936 0.0
H70 H 0.58196 0.49849 0.97474 0.0
H71 H 0.32979 0.57315 0.9209 0.0
C72 C 0.37516 0.62364 0.90635 0.0
O73 O 0.47329 0.60877 0.91858 0.0
H74 H 0.36292 0.62749 0.86306 0.0
C75 C 0.63758 0.42591 0.85706 0.0
C76 C 0.63621 0.43192 0.91183 0.0
C77 C 0.5855 0.48078 0.82406 0.0
C78 C 0.53057 0.54109 0.84538 0.0
C79 C 0.52398 0.54646 0.89965 0.0
C80 C 0.57894 0.49226 0.93303 0.0
H81 H 0.66295 0.73627 0.14272 0.0
H82 H 0.47504 0.5294 0.13857 0.0
H83 H 0.57212 0.6425 -0.00462 0.0
H84 H 0.33092 0.55423 0.0048 0.0
C85 C 0.36414 0.51306 0.03496 0.0
O86 O 0.4646 0.52401 0.03727 0.0
H87 H 0.33176 0.52759 0.07299 0.0
C88 C 0.62399 0.69121 0.12108 0.0
C89 C 0.62801 0.69304 0.06636 0.0
C90 C 0.56809 0.63328 0.14757 0.0
C91 C 0.51512 0.57708 0.11862 0.0
C92 C 0.51227 0.58174 0.06386 0.0
C93 C 0.56931 0.64014 0.03761 0.0
C94 C 0.36646 0.28579 0.0529 0.0
C95 C 0.28978 0.25911 0.01965 0.0
C96 C 0.39075 0.3666 0.05579 0.0
C97 C 0.34094 0.42577 0.02512 0.0
H98 H 0.40784 0.24401 0.07844 0.0
H99 H 0.44833 0.38302 0.08328 0.0
S100 S 0.14683 0.38861 0.92429 0.0
N101 N 0.17176 0.29845 0.95059 0.0
N102 N 0.21747 0.45199 0.95589 0.0
C103 C 0.26694 0.4006 -0.01034 0.0
C104 C 0.24147 0.3171 -0.01309 0.0
C105 C 0.2172 0.78405 0.96796 0.0
C106 C 0.2649 0.85597 0.9535 0.0
C107 C 0.25501 0.70917 0.95457 0.0
C108 C 0.34211 0.70338 0.92649 0.0
H109 H 0.15119 0.7855 -0.00958 0.0
H110 H 0.21497 0.65545 0.96569 0.0
S111 S 0.49321 0.87376 0.87804 0.0
N112 N 0.4034 0.9163 0.90879 0.0
N113 N 0.47318 0.7763 0.88373 0.0
C114 C 0.39018 0.77482 0.91188 0.0
C115 C 0.35204 0.85074 0.92542 0.0
C116 C 0.699 0.87662 -0.0143 0.0
C117 C 0.79973 0.8858 -0.00217 0.0
C118 C 0.6454 0.81201 0.00604 0.0
C119 C 0.68968 0.75429 0.04007 0.0
H120 H 0.66037 0.92005 0.96009 0.0
H121 H 0.56801 0.8085 -0.00372 0.0
S122 S 0.95222 0.74324 0.07961 0.0
N123 N 0.94299 0.82683 0.04263 0.0
N124 N 0.84078 0.7056 0.08246 0.0
C125 C 0.79039 0.7611 0.05207 0.0
C126 C 0.84571 0.82694 0.03075 0.0
C127 C 0.73494 0.23305 0.96338 0.0
C128 C 0.83397 0.24998 0.97529 0.0
C129 C 0.6681 0.29369 0.94803 0.0
C130 C 0.6966 0.37429 0.94509 0.0
H131 H 0.71096 0.1714 0.96093 0.0
H132 H 0.59571 0.27677 0.93431 0.0
S133 S 0.93731 0.45365 -0.01207 0.0
N134 N 0.95087 0.35511 -0.00577 0.0
N135 N 0.82403 0.4699 0.96593 0.0
C136 C 0.7912 0.39337 0.9638 0.0
C137 C 0.86021 0.33101 0.97908 0.0
C138 C 0.80514 0.8297 0.46872 0.0
C139 C 0.75298 0.77964 0.50398 0.0
C140 C 0.83673 0.90686 0.48231 0.0
C141 C 0.81958 0.93659 0.53228 0.0
H142 H 0.82742 0.80695 0.43165 0.0
H143 H 0.87867 0.94183 0.45427 0.0
S144 S 0.69056 0.82706 0.63977 0.0
N145 N 0.6872 0.76493 0.59105 0.0
N146 N 0.74681 0.90834 0.61707 0.0
C147 C 0.7656 0.88752 0.56735 0.0
C148 C 0.73222 0.80977 0.55309 0.0
C149 C 0.73068 0.29298 0.47559 0.0
C150 C 0.77038 0.36219 0.4512 0.0
C151 C 0.76498 0.21624 0.46457 0.0
C152 C 0.84117 0.20582 0.42928 0.0
H153 H 0.67399 0.29821 0.50413 0.0
H154 H 0.73038 0.16495 0.48343 0.0
S155 S 0.96123 0.36756 0.35055 0.0
N156 N 0.88437 0.41535 0.38722 0.0
N157 N 0.94865 0.27124 0.36656 0.0
C158 C 0.87916 0.27458 0.4035 0.0
C159 C 0.8442 0.35263 0.41464 0.0
C160 C 0.31329 0.29655 0.48621 0.0
C161 C 0.33468 0.36808 0.51181 0.0
C162 C 0.24841 0.23904 0.50719 0.0
C163 C 0.20067 0.25109 0.55442 0.0
H164 H 0.34286 0.28709 0.44792 0.0
H165 H 0.23485 0.1852 0.48586 0.0
S166 S 0.22914 0.43086 0.6356 0.0
N167 N 0.3036 0.44794 0.5865 0.0
N168 N 0.17856 0.34286 0.62545 0.0
C169 C 0.22262 0.32248 0.58072 0.0
C170 C 0.29048 0.37993 0.55969 0.0
C171 C 0.23585 0.74854 0.48263 0.0
C172 C 0.33841 0.7547 0.47943 0.0
C173 C 0.17398 0.81341 0.4683 0.0
C174 C 0.21228 0.88711 0.45022 0.0
H175 H 0.20273 0.69082 0.49171 0.0
H176 H 0.09571 0.80362 0.46688 0.0
S177 S 0.47519 0.93892 0.44252 0.0
N178 N 0.47536 0.84365 0.4631 0.0
N179 N 0.35908 0.96596 0.43613 0.0
C180 C 0.31464 0.89657 0.4517 0.0
C181 C 0.37783 0.83035 0.46653 0.0
C182 C 0.13954 0.06602 0.19348 0.0
C183 C 0.10025 1.00497 0.1632 0.0
C184 C 0.13784 0.06032 0.24806 0.0
C185 C 0.09776 0.99293 0.27404 0.0
H186 H 0.1736 0.11798 0.17473 0.0
H187 H 0.16872 0.10868 0.27022 0.0
S188 S 0.98211 0.81839 0.21265 0.0
N189 N 0.01764 0.87638 0.16251 0.0
N190 N 1.01453 0.86525 0.26625 0.0
C191 C 0.05685 0.93179 0.24442 0.0
C192 C 0.05787 0.93801 0.1885 0.0
C193 C 0.15537 0.03616 0.79238 0.0
C194 C 0.08983 0.079 0.82198 0.0
C195 C 0.15554 0.04711 0.73769 0.0
C196 C 0.08861 0.09967 0.71178 0.0
H197 H 0.20296 0.99115 0.81133 0.0
H198 H 0.20572 0.01258 0.71542 0.0
S199 S 0.89963 0.2228 0.77138 0.0
N200 N 0.95578 0.17493 0.82161 0.0
N201 N 0.95544 0.19453 0.71849 0.0
C202 C 0.02382 0.14371 0.74084 0.0
C203 C 0.0246 0.13357 0.79629 0.0
C204 C 0.55598 0.46599 0.6767 0.0
C205 C 0.63007 0.51797 0.6588 0.0
C206 C 0.54331 0.45092 0.73076 0.0
C207 C 0.60441 0.48765 0.7678 0.0
H208 H 0.50847 0.43643 0.64889 0.0
H209 H 0.485 0.41154 0.74366 0.0
S210 S 0.79946 0.63583 0.74154 0.0
N211 N 0.75893 0.6112 0.68279 0.0
N212 N 0.73497 0.58197 0.78387 0.0
C213 C 0.67654 0.54085 0.75046 0.0
C214 C 0.68943 0.55633 0.69598 0.0
C215 C 0.46496 0.59502 0.28075 0.0
C216 C 0.54832 0.59307 0.31428 0.0
C217 C 0.47176 0.61404 0.22756 0.0
C218 C 0.56249 0.63062 0.20539 0.0
H219 H 0.39358 0.57911 0.29538 0.0
H220 H 0.40569 0.61227 0.20324 0.0
S221 S 0.79883 0.65282 0.2785 0.0
N222 N 0.72085 0.62435 0.32404 0.0
N223 N 0.73544 0.65792 0.22237 0.0
C224 C 0.64519 0.63734 0.23921 0.0
C225 C 0.63766 0.61889 0.29418 0.0
loop_
_geom_bond_atom_site_label_1
_geom_bond_atom_site_label_2
_geom_bond_distance
_geom_bond_site_symmetry_2
_ccdc_geom_bond_type
O0 Mn1 2.162 1_654 S
O0 C14 1.241 1_554 S
Mn1 O0 2.162 1_456 S
Mn1 O4 2.160 1_545 S
Mn1 O5 2.221 1_556 S
Mn1 O7 2.163 1_556 S
Mn1 O9 2.160 . S
Mn1 O19 2.221 1_445 S
O2 Mn3 2.087 . S
O2 C14 1.256 . S
Mn3 O2 2.087 . S
Mn3 O10 2.089 . S
Mn3 O19 2.290 1_545 S
Mn3 O20 2.251 1_545 S
O4 Mn1 2.160 1_565 S
O4 C15 1.239 1_556 S
O5 Mn1 2.221 1_554 S
O5 Mn6 2.290 . S
O5 C16 1.278 . S
Mn6 O5 2.290 . S
Mn6 O8 2.089 1_545 S
Mn6 O11 2.251 . S
Mn6 O12 2.087 . S
O7 Mn1 2.163 1_554 S
O7 C17 1.244 . S
O8 Mn6 2.089 1_565 S
O8 C15 1.256 . S
O9 Mn1 2.160 . S
O9 C18 1.239 . S
O10 Mn3 2.089 . S
O10 C18 1.256 1_655 S
O11 Mn6 2.251 . S
O11 C16 1.241 . S
O12 Mn6 2.087 . S
O12 C17 1.256 . S
C13 O19 1.278 1_554 S
C13 O20 1.241 1_554 S
C14 O0 1.241 1_556 S
C14 O2 1.256 . S
C15 O4 1.239 1_554 S
C15 O8 1.256 . S
C16 O5 1.278 . S
C16 O11 1.241 . S
C17 O7 1.244 . S
C17 O12 1.256 . S
C18 O9 1.239 . S
C18 O10 1.256 1_455 S
O19 Mn1 2.221 1_665 S
O19 Mn3 2.290 1_565 S
O19 C13 1.278 1_556 S
O20 Mn3 2.251 1_565 S
O20 C13 1.241 1_556 S
O21 Mn22 2.163 . S
O21 C35 1.244 . S
Mn22 O21 2.163 . S
Mn22 O25 2.160 . S
Mn22 O26 2.221 . S
Mn22 O28 2.163 . S
Mn22 O30 2.160 . S
Mn22 O40 2.221 . S
O23 Mn24 2.087 . S
O23 C35 1.256 . S
Mn24 O23 2.087 . S
Mn24 O31 2.089 . S
Mn24 O40 2.290 . S
Mn24 O41 2.251 . S
O25 Mn22 2.160 . S
O25 C36 1.239 . S
O26 Mn22 2.221 . S
O26 Mn27 2.290 . S
O26 C37 1.278 . S
Mn27 O26 2.290 . S
Mn27 O29 2.089 . S
Mn27 O32 2.251 . S
Mn27 O33 2.087 . S
O28 Mn22 2.163 . S
O28 C38 1.244 . S
O29 Mn27 2.089 . S
O29 C36 1.256 . S
O30 Mn22 2.160 . S
O30 C39 1.239 . S
O31 Mn24 2.089 . S
O31 C39 1.256 . S
O32 Mn27 2.251 . S
O32 C37 1.241 . S
O33 Mn27 2.087 . S
O33 C38 1.256 . S
C34 O40 1.278 . S
C34 O41 1.241 . S
C35 O21 1.244 . S
C35 O23 1.256 . S
C36 O25 1.239 . S
C36 O29 1.256 . S
C37 O26 1.278 . S
C37 O32 1.241 . S
C38 O28 1.244 . S
C38 O33 1.256 . S
C39 O30 1.239 . S
C39 O31 1.256 . S
O40 Mn22 2.221 . S
O40 Mn24 2.290 . S
O40 C34 1.278 . S
O41 Mn24 2.251 . S
O41 C34 1.241 . S
H42 C49 0.929 . S
H43 C52 0.930 1_655 S
H44 C54 0.929 . S
H45 C46 0.969 . S
C46 H45 0.969 . S
C46 O47 1.550 . S
C46 H48 0.973 . S
O47 C46 1.550 . S
O47 C53 1.412 1_655 S
H48 C46 0.973 . S
C49 H42 0.929 . S
C49 C50 1.400 . S
C49 C51 1.364 . S
C50 C49 1.400 . S
C50 C54 1.377 . S
C51 C49 1.364 . S
C51 C52 1.374 1_565 S
C52 H43 0.930 1_455 S
C52 C51 1.374 1_545 S
C52 C53 1.383 . S
C53 O47 1.412 1_455 S
C53 C52 1.383 . S
C53 C54 1.394 1_545 S
C54 H44 0.929 . S
C54 C50 1.377 . S
C54 C53 1.394 1_565 S
H55 C62 0.929 . S
H56 C65 0.930 . S
H57 C67 0.929 . S
H58 C59 0.969 1_545 S
C59 H58 0.969 1_565 S
C59 O60 1.550 1_565 S
C59 H61 0.973 . S
O60 C59 1.550 1_545 S
O60 C66 1.412 . S
H61 C59 0.973 . S
C62 H55 0.929 . S
C62 C63 1.400 . S
C62 C64 1.364 . S
C63 C62 1.400 . S
C63 C67 1.377 . S
C64 C62 1.364 . S
C64 C65 1.374 1_455 S
C65 H56 0.930 . S
C65 C64 1.374 1_655 S
C65 C66 1.383 . S
C66 O60 1.412 . S
C66 C65 1.383 . S
C66 C67 1.394 1_655 S
C67 H57 0.929 . S
C67 C63 1.377 . S
C67 C66 1.394 1_455 S
H68 C75 0.929 . S
H69 C78 0.930 . S
H70 C80 0.929 1_554 S
H71 C72 0.969 . S
C72 H71 0.969 . S
C72 O73 1.550 . S
C72 H74 0.973 . S
O73 C72 1.550 . S
O73 C79 1.412 . S
H74 C72 0.973 . S
C75 H68 0.929 . S
C75 C76 1.400 . S
C75 C77 1.364 . S
C76 C75 1.400 . S
C76 C80 1.377 . S
C77 C75 1.364 . S
C77 C78 1.374 . S
C78 H69 0.930 . S
C78 C77 1.374 . S
C78 C79 1.383 . S
C79 O73 1.412 . S
C79 C78 1.383 . S
C79 C80 1.394 . S
C80 H70 0.929 1_556 S
C80 C76 1.377 . S
C80 C79 1.394 . S
H81 C88 0.929 . S
H82 C91 0.930 . S
H83 C93 0.929 1_556 S
H84 C85 0.969 . S
C85 H84 0.969 . S
C85 O86 1.550 . S
C85 H87 0.973 . S
O86 C85 1.550 . S
O86 C92 1.412 . S
H87 C85 0.973 . S
C88 H81 0.929 . S
C88 C89 1.400 . S
C88 C90 1.364 . S
C89 C88 1.400 . S
C89 C93 1.377 . S
C90 C88 1.364 . S
C90 C91 1.374 . S
C91 H82 0.930 . S
C91 C90 1.374 . S
C91 C92 1.383 . S
C92 O86 1.412 . S
C92 C91 1.383 . S
C92 C93 1.394 . S
C93 H83 0.929 1_554 S
C93 C89 1.377 . S
C93 C92 1.394 . S
C94 C95 1.369 . S
C94 C96 1.419 . S
C94 H98 0.930 . S
C95 C94 1.369 . S
C95 C104 1.429 1_554 S
C96 C94 1.419 . S
C96 C97 1.363 . S
C96 H99 0.929 . S
C97 C96 1.363 . S
C97 C103 1.428 1_554 S
H98 C94 0.930 . S
H99 C96 0.929 . S
S100 N101 1.613 . S
S100 N102 1.610 . S
N101 S100 1.613 . S
N101 C104 1.350 . S
N102 S100 1.610 . S
N102 C103 1.351 . S
C103 C97 1.428 1_556 S
C103 N102 1.351 . S
C103 C104 1.434 . S
C104 C95 1.429 1_556 S
C104 N101 1.350 . S
C104 C103 1.434 . S
C105 C106 1.369 . S
C105 C107 1.419 . S
C105 H109 0.930 . S
C106 C105 1.369 . S
C106 C115 1.429 1_554 S
C107 C105 1.419 . S
C107 C108 1.374 . S
C107 H110 0.929 . S
C108 C107 1.374 . S
C108 C114 1.420 1_554 S
H109 C105 0.930 . S
H110 C107 0.929 . S
S111 N112 1.613 . S
S111 N113 1.610 . S
N112 S111 1.613 . S
N112 C115 1.350 . S
N113 S111 1.610 . S
N113 C114 1.351 . S
C114 C108 1.420 1_556 S
C114 N113 1.351 . S
C114 C115 1.434 . S
C115 C106 1.429 1_556 S
C115 N112 1.350 . S
C115 C114 1.434 . S
C116 C117 1.373 . S
C116 C118 1.419 . S
C116 H120 0.925 1_554 S
C117 C116 1.373 . S
C117 C126 1.429 . S
C118 C116 1.419 . S
C118 C119 1.363 . S
C118 H121 0.929 1_554 S
C119 C118 1.363 . S
C119 C125 1.428 . S
H120 C116 0.925 1_556 S
H121 C118 0.929 1_556 S
S122 N123 1.613 . S
S122 N124 1.610 . S
N123 S122 1.613 . S
N123 C126 1.350 . S
N124 S122 1.610 . S
N124 C125 1.351 . S
C125 C119 1.428 . S
C125 N124 1.351 . S
C125 C126 1.434 . S
C126 C117 1.429 . S
C126 N123 1.350 . S
C126 C125 1.434 . S
C127 C128 1.369 . S
C127 C129 1.419 . S
C127 H131 0.930 . S
C128 C127 1.369 . S
C128 C137 1.429 . S
C129 C127 1.419 . S
C129 C130 1.363 . S
C129 H132 0.929 . S
C130 C129 1.363 . S
C130 C136 1.428 . S
H131 C127 0.930 . S
H132 C129 0.929 . S
S133 N134 1.613 . S
S133 N135 1.610 . S
N134 S133 1.613 . S
N134 C137 1.350 1_554 S
N135 S133 1.610 . S
N135 C136 1.351 1_554 S
C136 C130 1.428 . S
C136 N135 1.351 1_556 S
C136 C137 1.434 . S
C137 C128 1.429 . S
C137 N134 1.350 1_556 S
C137 C136 1.434 . S
C138 C139 1.369 . S
C138 C140 1.419 . S
C138 H142 0.930 . S
C139 C138 1.369 . S
C139 C148 1.429 . S
C140 C138 1.419 . S
C140 C141 1.363 . S
C140 H143 0.929 . S
C141 C140 1.363 . S
C141 C147 1.428 . S
H142 C138 0.930 . S
H143 C140 0.929 . S
S144 N145 1.613 . S
S144 N146 1.610 . S
N145 S144 1.613 . S
N145 C148 1.350 . S
N146 S144 1.610 . S
N146 C147 1.351 . S
C147 C141 1.428 . S
C147 N146 1.351 . S
C147 C148 1.434 . S
C148 C139 1.429 . S
C148 N145 1.350 . S
C148 C147 1.434 . S
C149 C150 1.369 . S
C149 C151 1.419 . S
C149 H153 0.930 . S
C150 C149 1.369 . S
C150 C159 1.429 . S
C151 C149 1.419 . S
C151 C152 1.363 . S
C151 H154 0.929 . S
C152 C151 1.363 . S
C152 C158 1.428 . S
H153 C149 0.930 . S
H154 C151 0.929 . S
S155 N156 1.613 . S
S155 N157 1.610 . S
N156 S155 1.613 . S
N156 C159 1.350 . S
N157 S155 1.610 . S
N157 C158 1.351 . S
C158 C152 1.428 . S
C158 N157 1.351 . S
C158 C159 1.434 . S
C159 C150 1.429 . S
C159 N156 1.350 . S
C159 C158 1.434 . S
C160 C161 1.369 . S
C160 C162 1.419 . S
C160 H164 0.930 . S
C161 C160 1.369 . S
C161 C170 1.429 . S
C162 C160 1.419 . S
C162 C163 1.363 . S
C162 H165 0.929 . S
C163 C162 1.363 . S
C163 C169 1.428 . S
H164 C160 0.930 . S
H165 C162 0.929 . S
S166 N167 1.613 . S
S166 N168 1.610 . S
N167 S166 1.613 . S
N167 C170 1.350 . S
N168 S166 1.610 . S
N168 C169 1.351 . S
C169 C163 1.428 . S
C169 N168 1.351 . S
C169 C170 1.434 . S
C170 C161 1.429 . S
C170 N167 1.350 . S
C170 C169 1.434 . S
C171 C172 1.369 . S
C171 C173 1.419 . S
C171 H175 0.930 . S
C172 C171 1.369 . S
C172 C181 1.429 . S
C173 C171 1.419 . S
C173 C174 1.363 . S
C173 H176 0.929 . S
C174 C173 1.363 . S
C174 C180 1.428 . S
H175 C171 0.930 . S
H176 C173 0.929 . S
S177 N178 1.613 . S
S177 N179 1.610 . S
N178 S177 1.613 . S
N178 C181 1.350 . S
N179 S177 1.610 . S
N179 C180 1.351 . S
C180 C174 1.428 . S
C180 N179 1.351 . S
C180 C181 1.434 . S
C181 C172 1.429 . S
C181 N178 1.350 . S
C181 C180 1.434 . S
C182 C183 1.369 . S
C182 C184 1.419 . S
C182 H186 0.930 . S
C183 C182 1.369 . S
C183 C192 1.429 1_545 S
C184 C182 1.419 . S
C184 C185 1.363 1_545 S
C184 H187 0.929 . S
C185 C184 1.363 1_565 S
C185 C191 1.428 . S
H186 C182 0.930 . S
H187 C184 0.929 . S
S188 N189 1.613 . S
S188 N190 1.610 . S
N189 S188 1.613 . S
N189 C192 1.350 1_655 S
N190 S188 1.610 . S
N190 C191 1.351 1_655 S
C191 C185 1.428 . S
C191 N190 1.351 1_455 S
C191 C192 1.434 . S
C192 C183 1.429 1_565 S
C192 N189 1.350 1_455 S
C192 C191 1.434 . S
C193 C194 1.369 . S
C193 C195 1.419 . S
C193 H197 0.930 . S
C194 C193 1.369 . S
C194 C203 1.429 1_455 S
C195 C193 1.419 . S
C195 C196 1.363 . S
C195 H198 0.929 . S
C196 C195 1.363 . S
C196 C202 1.428 1_455 S
H197 C193 0.930 . S
H198 C195 0.929 . S
S199 N200 1.613 . S
S199 N201 1.610 . S
N200 S199 1.613 . S
N200 C203 1.350 . S
N201 S199 1.610 . S
N201 C202 1.351 . S
C202 C196 1.428 1_655 S
C202 N201 1.351 . S
C202 C203 1.434 . S
C203 C194 1.429 1_655 S
C203 N200 1.350 . S
C203 C202 1.434 . S
C204 C205 1.369 . S
C204 C206 1.419 . S
C204 H208 0.930 . S
C205 C204 1.369 . S
C205 C214 1.429 . S
C206 C204 1.419 . S
C206 C207 1.363 . S
C206 H209 0.929 . S
C207 C206 1.363 . S
C207 C213 1.428 . S
H208 C204 0.930 . S
H209 C206 0.929 . S
S210 N211 1.613 . S
S210 N212 1.610 . S
N211 S210 1.613 . S
N211 C214 1.350 . S
N212 S210 1.610 . S
N212 C213 1.351 . S
C213 C207 1.428 . S
C213 N212 1.351 . S
C213 C214 1.434 . S
C214 C205 1.429 . S
C214 N211 1.350 . S
C214 C213 1.434 . S
C215 C216 1.369 . S
C215 C217 1.419 . S
C215 H219 0.930 . S
C216 C215 1.369 . S
C216 C225 1.429 . S
C217 C215 1.419 . S
C217 C218 1.363 . S
C217 H220 0.929 . S
C218 C217 1.363 . S
C218 C224 1.428 . S
H219 C215 0.930 . S
H220 C217 0.929 . S
S221 N222 1.613 . S
S221 N223 1.610 . S
N222 S221 1.613 . S
N222 C225 1.350 . S
N223 S221 1.610 . S
N223 C224 1.351 . S
C224 C218 1.428 . S
C224 N223 1.351 . S
C224 C225 1.434 . S
C225 C216 1.429 . S
C225 N222 1.350 . S
C225 C224 1.434 . S
C97 C85 1.365 . S
C95 C16 1.341 . S
C106 C15 1.512 . S
C108 C72 1.379 1_554 S
C117 C13 1.312 . S
C119 C89 1.530 . S
C128 C14 1.428 . S
C130 C76 1.485 . S
C139 C37 1.330 . S
C141 C59 1.354 . S
C150 C36 1.513 . S
C152 C46 1.388 . S
C163 C63 1.530 . S
C161 C34 1.311 . S
C174 C50 1.484 . S
C172 C35 1.429 . S
C183 C17 1.554 . S
C185 C51 1.607 . S
C194 C18 1.423 . S
C196 C64 1.484 . S
C207 C77 1.606 . S
C205 C38 1.546 . S
C216 C39 1.432 . S
C218 C90 1.482 . S
