# Generated by pormake.
# Topology rtl, (3,6)-cn, num edge types: 1
# Building blocks:
#     Node 0, Type 0, BuildingBlock: ESEHIV_clean_linker_0, # of connection points: 3
#     Node 1, Type 0, BuildingBlock: ESEHIV_clean_linker_0, # of connection points: 3
#     Node 2, Type 0, BuildingBlock: ESEHIV_clean_linker_0, # of connection points: 3
#     Node 3, Type 0, BuildingBlock: ESEHIV_clean_linker_0, # of connection points: 3
#     Node 4, Type 1, BuildingBlock: FUNLAD_clean_sbu_0, # of connection points: 6
#     Node 5, Type 1, BuildingBlock: FUNLAD_clean_sbu_0, # of connection points: 6
#     Edge 6, Type (0, 1), None
#     Edge 7, Type (0, 1), None
#     Edge 8, Type (0, 1), None
#     Edge 9, Type (0, 1), None
#     Edge 10, Type (0, 1), None
#     Edge 11, Type (0, 1), None
#     Edge 12, Type (0, 1), None
#     Edge 13, Type (0, 1), None
#     Edge 14, Type (0, 1), None
#     Edge 15, Type (0, 1), None
#     Edge 16, Type (0, 1), None
#     Edge 17, Type (0, 1), None
# Relax obj value: 0.015
# Max RMSD: 0.186
# Mean RMSD: 0.141
data_MOF--net-rtl--node1-FUNLAD_clean_sbu_0--node2-ESEHIV_clean_linker_0--edge1-none
_symmetry_space_group_name_H-M    P1
_symmetry_Int_Tables_number       1
_symmetry_cell_setting            triclinic
loop_
_symmetry_equiv_pos_as_xyz
'x, y, z'
_cell_length_a     19.258627
_cell_length_b     14.211722
_cell_length_c     8.8139584
_cell_angle_alpha  89.979306
_cell_angle_beta   90.314377
_cell_angle_gamma 90.01126
loop_
_atom_site_label
_atom_site_type_symbol
_atom_site_fract_x
_atom_site_fract_y
_atom_site_fract_z
_atom_type_partial_charge
H0 H 1.00024 0.91176 0.00931 0.0
H1 H 0.16613 0.77683 0.2547 0.0
H2 H 0.16602 0.7777 0.7667 0.0
C3 C 0.04596 0.86709 0.0097 0.0
C4 C 0.07805 0.84459 0.87205 0.0
C5 C 0.078 0.84399 0.14798 0.0
C6 C 0.14014 0.79258 0.1482 0.0
C7 C 0.17039 0.76516 0.01067 0.0
C8 C 0.14009 0.79309 0.87278 0.0
H9 H 0.50021 0.60739 0.50943 0.0
H10 H 0.66611 0.74121 0.26658 0.0
H11 H 0.66603 0.74261 0.75457 0.0
C12 C 0.54594 0.65207 0.50972 0.0
C13 C 0.57794 0.6753 0.64795 0.0
C14 C 0.57807 0.67446 0.37203 0.0
C15 C 0.64014 0.72593 0.37267 0.0
C16 C 0.67038 0.75401 0.5105 0.0
C17 C 0.64007 0.72676 0.64809 0.0
H18 H 0.00986 0.1074 0.00834 0.0
H19 H 0.84407 0.24146 0.25096 0.0
H20 H 0.84397 0.24233 0.76296 0.0
C21 C 0.96413 0.15207 0.00796 0.0
C22 C 0.9321 0.17517 0.86969 0.0
C23 C 0.93204 0.17458 0.14562 0.0
C24 C 0.87 0.22607 0.14489 0.0
C25 C 0.83971 0.254 0.00699 0.0
C26 C 0.86996 0.22659 0.86946 0.0
H27 H 0.50989 0.41177 0.50823 0.0
H28 H 0.34398 0.27795 0.75108 0.0
H29 H 0.34406 0.27655 0.2631 0.0
C30 C 0.46415 0.36709 0.50795 0.0
C31 C 0.43215 0.34386 0.36971 0.0
C32 C 0.43202 0.3447 0.64564 0.0
C33 C 0.36995 0.29324 0.645 0.0
C34 C 0.33972 0.26515 0.50716 0.0
C35 C 0.37003 0.2924 0.36957 0.0
C36 C 0.0548 0.89205 0.28582 0.0
N37 N 0.14798 0.11858 0.5093 0.0
C38 C 0.20849 0.06898 0.50934 0.0
C39 C 0.27221 0.11586 0.50826 0.0
C40 C 0.27325 0.2143 0.50709 0.0
C41 C 0.2105 0.26401 0.50717 0.0
C42 C 0.14791 0.21438 0.50825 0.0
Zn43 Zn 0.05564 0.0478 0.50933 0.0
C44 C 0.95522 0.12627 0.28376 0.0
N45 N 0.86211 0.90058 0.50837 0.0
C46 C 0.86218 0.80479 0.50941 0.0
C47 C 0.80161 0.95018 0.50832 0.0
C48 C 0.73788 0.9033 0.50941 0.0
C49 C 0.73684 0.80487 0.51058 0.0
C50 C 0.79959 0.75515 0.51049 0.0
Zn51 Zn 0.95445 0.97136 0.50833 0.0
O52 O 0.09297 0.95636 0.34109 0.0
C53 C 0.05487 0.89289 0.7339 0.0
O54 O 0.99329 0.88106 0.33443 0.0
H55 H 0.80274 0.02626 0.50754 0.0
H56 H 0.20735 0.9929 0.51013 0.0
H57 H 0.91086 0.76685 0.50951 0.0
O58 O 0.09315 0.95701 0.67919 0.0
O59 O 0.99341 0.88179 0.68372 0.0
H60 H 0.09924 0.25231 0.50815 0.0
O61 O 0.91712 0.0628 0.67657 0.0
O62 O 0.0168 0.13811 0.68323 0.0
O63 O 0.91694 0.06215 0.33848 0.0
O64 O 0.01668 0.13737 0.33394 0.0
C65 C 0.9553 0.12711 0.73184 0.0
H66 H 0.3201 0.07586 0.50846 0.0
H67 H 0.21002 0.34025 0.50651 0.0
H68 H 0.69 0.9433 0.50922 0.0
H69 H 0.80008 0.67892 0.51115 0.0
C70 C 0.45521 0.39304 0.78369 0.0
N71 N 0.648 0.40059 0.00919 0.0
C72 C 0.64791 0.30481 0.00712 0.0
C73 C 0.71048 0.25517 0.00589 0.0
C74 C 0.77326 0.30487 0.00686 0.0
C75 C 0.77224 0.4033 0.00913 0.0
C76 C 0.70853 0.45019 0.01017 0.0
Zn77 Zn 0.55565 0.47138 0.00932 0.0
C78 C 0.55477 0.62724 0.78588 0.0
N79 N 0.36209 0.61857 0.00848 0.0
C80 C 0.30157 0.56897 0.00749 0.0
C81 C 0.36219 0.71435 0.01056 0.0
C82 C 0.29961 0.76399 0.01178 0.0
C83 C 0.23684 0.71429 0.0108 0.0
C84 C 0.23785 0.61586 0.00853 0.0
Zn85 Zn 0.45444 0.54778 0.00834 0.0
O86 O 0.51666 0.38193 0.83389 0.0
C87 C 0.45532 0.39192 0.23179 0.0
O88 O 0.41693 0.4571 0.83843 0.0
H89 H 0.41088 0.75228 0.01135 0.0
H90 H 0.59922 0.26688 0.00633 0.0
H91 H 0.30267 0.4929 0.00597 0.0
O92 O 0.51682 0.38096 0.18316 0.0
O93 O 0.41713 0.45622 0.17651 0.0
H94 H 0.70742 0.52626 0.01169 0.0
O95 O 0.49343 0.63723 0.18378 0.0
O96 O 0.59317 0.56206 0.17923 0.0
O97 O 0.49327 0.63821 0.83451 0.0
O98 O 0.59296 0.56294 0.84116 0.0
C99 C 0.55488 0.62612 0.23397 0.0
H100 H 0.70997 0.17894 0.00439 0.0
H101 H 0.82014 0.44329 0.01016 0.0
H102 H 0.30013 0.84022 0.01328 0.0
H103 H 0.18995 0.57587 0.0075 0.0
loop_
_geom_bond_atom_site_label_1
_geom_bond_atom_site_label_2
_geom_bond_distance
_geom_bond_site_symmetry_2
_ccdc_geom_bond_type
H0 C3 0.931 1_655 S
H1 C6 0.928 . S
H2 C8 0.930 . S
C3 H0 0.931 1_455 S
C3 C4 1.413 1_554 S
C3 C5 1.360 . S
C4 C3 1.413 1_556 S
C4 C8 1.429 . S
C5 C3 1.360 . S
C5 C6 1.372 . S
C6 H1 0.928 . S
C6 C5 1.372 . S
C6 C7 1.404 . S
C7 C6 1.404 . S
C7 C8 1.391 1_554 S
C8 H2 0.930 . S
C8 C4 1.429 . S
C8 C7 1.391 1_556 S
H9 C12 0.931 . S
H10 C15 0.928 . S
H11 C17 0.930 . S
C12 H9 0.931 . S
C12 C13 1.413 . S
C12 C14 1.360 . S
C13 C12 1.413 . S
C13 C17 1.429 . S
C14 C12 1.360 . S
C14 C15 1.372 . S
C15 H10 0.928 . S
C15 C14 1.372 . S
C15 C16 1.404 . S
C16 C15 1.404 . S
C16 C17 1.391 . S
C17 H11 0.930 . S
C17 C13 1.429 . S
C17 C16 1.391 . S
H18 C21 0.931 1_455 S
H19 C24 0.928 . S
H20 C26 0.930 . S
C21 H18 0.931 1_655 S
C21 C22 1.413 1_554 S
C21 C23 1.360 . S
C22 C21 1.413 1_556 S
C22 C26 1.429 . S
C23 C21 1.360 . S
C23 C24 1.372 . S
C24 H19 0.928 . S
C24 C23 1.372 . S
C24 C25 1.404 . S
C25 C24 1.404 . S
C25 C26 1.391 1_554 S
C26 H20 0.930 . S
C26 C22 1.429 . S
C26 C25 1.391 1_556 S
H27 C30 0.931 . S
H28 C33 0.928 . S
H29 C35 0.930 . S
C30 H27 0.931 . S
C30 C31 1.413 . S
C30 C32 1.360 . S
C31 C30 1.413 . S
C31 C35 1.429 . S
C32 C30 1.360 . S
C32 C33 1.372 . S
C33 H28 0.928 . S
C33 C32 1.372 . S
C33 C34 1.404 . S
C34 C33 1.404 . S
C34 C35 1.391 . S
C35 H29 0.930 . S
C35 C31 1.429 . S
C35 C34 1.391 . S
C36 O52 1.251 . S
C36 O54 1.254 1_455 S
N37 C38 1.333 . S
N37 C42 1.307 . S
N37 Zn43 2.020 . S
C38 N37 1.333 . S
C38 C39 1.379 . S
C38 H56 0.952 . S
C39 C38 1.379 . S
C39 C40 1.390 . S
C39 H66 0.949 . S
C40 C39 1.390 . S
C40 C41 1.357 . S
C41 C40 1.357 . S
C41 C42 1.370 . S
C41 H67 0.950 . S
C42 N37 1.307 . S
C42 C41 1.370 . S
C42 H60 0.948 . S
Zn43 N37 2.020 . S
Zn43 O52 2.039 1_545 S
Zn43 O58 2.034 1_545 S
Zn43 O62 2.025 . S
Zn43 O64 2.024 . S
C44 O63 1.246 . S
C44 O64 1.249 1_655 S
N45 C46 1.307 . S
N45 C47 1.333 . S
N45 Zn51 2.020 . S
C46 N45 1.307 . S
C46 C50 1.370 . S
C46 H57 0.948 . S
C47 N45 1.333 . S
C47 C48 1.379 . S
C47 H55 0.952 . S
C48 C47 1.379 . S
C48 C49 1.390 . S
C48 H68 0.949 . S
C49 C48 1.390 . S
C49 C50 1.357 . S
C50 C46 1.370 . S
C50 C49 1.357 . S
C50 H69 0.950 . S
Zn51 N45 2.020 . S
Zn51 O54 2.025 . S
Zn51 O59 2.024 . S
Zn51 O61 2.039 1_565 S
Zn51 O63 2.034 1_565 S
O52 C36 1.251 . S
O52 Zn43 2.039 1_565 S
C53 O58 1.246 . S
C53 O59 1.249 1_455 S
O54 C36 1.254 1_655 S
O54 Zn51 2.025 . S
H55 C47 0.952 . S
H56 C38 0.952 . S
H57 C46 0.948 . S
O58 Zn43 2.034 1_565 S
O58 C53 1.246 . S
O59 Zn51 2.024 . S
O59 C53 1.249 1_655 S
H60 C42 0.948 . S
O61 Zn51 2.039 1_545 S
O61 C65 1.251 . S
O62 Zn43 2.025 . S
O62 C65 1.254 1_455 S
O63 C44 1.246 . S
O63 Zn51 2.034 1_545 S
O64 Zn43 2.024 . S
O64 C44 1.249 1_455 S
C65 O61 1.251 . S
C65 O62 1.254 1_655 S
H66 C39 0.949 . S
H67 C41 0.950 . S
H68 C48 0.949 . S
H69 C50 0.950 . S
C70 O86 1.251 . S
C70 O88 1.254 . S
N71 C72 1.333 1_554 S
N71 C76 1.307 . S
N71 Zn77 2.020 . S
C72 N71 1.333 1_556 S
C72 C73 1.379 . S
C72 H90 0.952 . S
C73 C72 1.379 . S
C73 C74 1.390 1_556 S
C73 H100 0.949 . S
C74 C73 1.390 1_554 S
C74 C75 1.357 . S
C75 C74 1.357 . S
C75 C76 1.370 . S
C75 H101 0.950 . S
C76 N71 1.307 . S
C76 C75 1.370 . S
C76 H94 0.948 . S
Zn77 N71 2.020 . S
Zn77 O86 2.039 1_554 S
Zn77 O92 2.034 . S
Zn77 O96 2.025 . S
Zn77 O98 2.024 1_554 S
C78 O97 1.246 . S
C78 O98 1.249 . S
N79 C80 1.307 1_554 S
N79 C81 1.333 . S
N79 Zn85 2.020 . S
C80 N79 1.307 1_556 S
C80 C84 1.370 . S
C80 H91 0.948 . S
C81 N79 1.333 . S
C81 C82 1.379 . S
C81 H89 0.952 . S
C82 C81 1.379 . S
C82 C83 1.390 . S
C82 H102 0.949 . S
C83 C82 1.390 . S
C83 C84 1.357 1_554 S
C84 C80 1.370 . S
C84 C83 1.357 1_556 S
C84 H103 0.950 . S
Zn85 N79 2.020 . S
Zn85 O88 2.025 1_554 S
Zn85 O93 2.024 . S
Zn85 O95 2.039 . S
Zn85 O97 2.034 1_554 S
O86 C70 1.251 . S
O86 Zn77 2.039 1_556 S
C87 O92 1.246 . S
C87 O93 1.249 . S
O88 C70 1.254 . S
O88 Zn85 2.025 1_556 S
H89 C81 0.952 . S
H90 C72 0.952 . S
H91 C80 0.948 . S
O92 Zn77 2.034 . S
O92 C87 1.246 . S
O93 Zn85 2.024 . S
O93 C87 1.249 . S
H94 C76 0.948 . S
O95 Zn85 2.039 . S
O95 C99 1.251 . S
O96 Zn77 2.025 . S
O96 C99 1.254 . S
O97 C78 1.246 . S
O97 Zn85 2.034 1_556 S
O98 Zn77 2.024 1_556 S
O98 C78 1.249 . S
C99 O95 1.251 . S
C99 O96 1.254 . S
H100 C73 0.949 . S
H101 C75 0.950 . S
H102 C82 0.949 . S
H103 C84 0.950 . S
C40 C34 1.556 . S
C7 C83 1.510 . S
C16 C49 1.545 . S
C25 C74 1.510 . S
C36 C5 1.551 . S
C78 C13 1.631 . S
C23 C44 1.544 . S
C32 C70 1.637 . S
C99 C14 1.616 . S
C65 C22 1.552 . S
C87 C31 1.639 . S
C4 C53 1.545 . S
