# Generated by pormake.
# Topology nom, (4,4)-cn, num edge types: 1
# Building blocks:
#     Node 0, Type 0, BuildingBlock: KUFVIS_clean_linker_0, # of connection points: 4
#     Node 1, Type 0, BuildingBlock: KUFVIS_clean_linker_0, # of connection points: 4
#     Node 2, Type 0, BuildingBlock: KUFVIS_clean_linker_0, # of connection points: 4
#     Node 3, Type 0, BuildingBlock: KUFVIS_clean_linker_0, # of connection points: 4
#     Node 4, Type 0, BuildingBlock: KUFVIS_clean_linker_0, # of connection points: 4
#     Node 5, Type 0, BuildingBlock: KUFVIS_clean_linker_0, # of connection points: 4
#     Node 6, Type 1, BuildingBlock: TATPOV_clean_sbu_0, # of connection points: 4
#     Node 7, Type 1, BuildingBlock: TATPOV_clean_sbu_0, # of connection points: 4
#     Node 8, Type 1, BuildingBlock: TATPOV_clean_sbu_0, # of connection points: 4
#     Node 9, Type 1, BuildingBlock: TATPOV_clean_sbu_0, # of connection points: 4
#     Node 10, Type 1, BuildingBlock: TATPOV_clean_sbu_0, # of connection points: 4
#     Node 11, Type 1, BuildingBlock: TATPOV_clean_sbu_0, # of connection points: 4
#     Edge 12, Type (0, 1), None
#     Edge 13, Type (0, 1), None
#     Edge 14, Type (0, 1), None
#     Edge 15, Type (0, 1), None
#     Edge 16, Type (0, 1), None
#     Edge 17, Type (0, 1), None
#     Edge 18, Type (0, 1), None
#     Edge 19, Type (0, 1), None
#     Edge 20, Type (0, 1), None
#     Edge 21, Type (0, 1), None
#     Edge 22, Type (0, 1), None
#     Edge 23, Type (0, 1), None
#     Edge 24, Type (0, 1), None
#     Edge 25, Type (0, 1), None
#     Edge 26, Type (0, 1), None
#     Edge 27, Type (0, 1), None
#     Edge 28, Type (0, 1), None
#     Edge 29, Type (0, 1), None
#     Edge 30, Type (0, 1), None
#     Edge 31, Type (0, 1), None
#     Edge 32, Type (0, 1), None
#     Edge 33, Type (0, 1), None
#     Edge 34, Type (0, 1), None
#     Edge 35, Type (0, 1), None
# Relax obj value: 0.021
# Max RMSD: 0.122
# Mean RMSD: 0.082
data_MOF--net-nom--node1-TATPOV_clean_sbu_0--node2-KUFVIS_clean_linker_0--edge1-none
_symmetry_space_group_name_H-M    P1
_symmetry_Int_Tables_number       1
_symmetry_cell_setting            triclinic
loop_
_symmetry_equiv_pos_as_xyz
'x, y, z'
_cell_length_a     21.240477
_cell_length_b     22.14192
_cell_length_c     21.836541
_cell_angle_alpha  90.452952
_cell_angle_beta   90.775942
_cell_angle_gamma 120.02199
loop_
_atom_site_label
_atom_site_type_symbol
_atom_site_fract_x
_atom_site_fract_y
_atom_site_fract_z
_atom_type_partial_charge
H0 H 0.24918 0.64228 0.35397 0.0
H1 H 0.08097 0.57926 0.21686 0.0
H2 H 0.02984 0.4955 0.39936 0.0
H3 H 0.92936 0.50218 0.37404 0.0
H4 H 0.76215 0.38678 0.23948 0.0
H5 H 0.98498 0.47137 0.19127 0.0
C6 C 0.19319 0.60752 0.33927 0.0
C7 C 0.1419 0.56769 0.38296 0.0
C8 C 0.17126 0.61217 0.2795 0.0
C9 C 0.09772 0.57257 0.26217 0.0
C10 C 0.0459 0.52741 0.30426 0.0
C11 C 0.06886 0.52617 0.365 0.0
C12 C 0.96727 0.48643 0.28661 0.0
C13 C 0.9139 0.47749 0.32909 0.0
C14 C 0.84008 0.43968 0.31278 0.0
C15 C 0.81905 0.41114 0.25346 0.0
C16 C 0.87118 0.42498 0.209 0.0
C17 C 0.94508 0.46082 0.22608 0.0
H18 H 0.6124 0.23559 0.51893 0.0
H19 H 0.52894 0.07939 0.37713 0.0
H20 H 0.51915 0.02184 0.56787 0.0
H21 H 0.4206 0.92775 0.53716 0.0
H22 H 0.36699 0.76783 0.40237 0.0
H23 H 0.51727 0.97863 0.35747 0.0
C24 C 0.58896 0.18124 0.50501 0.0
C25 C 0.56752 0.13029 0.54967 0.0
C26 C 0.57593 0.16261 0.44284 0.0
C27 C 0.5419 0.0922 0.42521 0.0
C28 C 0.52042 0.03955 0.46968 0.0
C29 C 0.53473 0.06 0.53213 0.0
C30 C 0.47942 0.9638 0.45158 0.0
C31 C 0.43102 0.91307 0.49271 0.0
C32 C 0.3933 0.84236 0.47592 0.0
C33 C 0.40082 0.82197 0.41695 0.0
C34 C 0.44267 0.87163 0.37378 0.0
C35 C 0.48408 0.94178 0.39165 0.0
H36 H 0.61585 0.3691 0.57783 0.0
H37 H 0.48984 0.41205 0.70392 0.0
H38 H 0.5809 0.54058 0.54455 0.0
H39 H 0.46945 0.53491 0.54976 0.0
H40 H 0.39255 0.6206 0.68715 0.0
H41 H 0.50828 0.51739 0.74212 0.0
C42 C 0.59376 0.40169 0.59223 0.0
C43 C 0.60177 0.45581 0.5547 0.0
C44 C 0.55495 0.38681 0.64662 0.0
C45 C 0.52275 0.42621 0.66338 0.0
C46 C 0.53253 0.48298 0.62727 0.0
C47 C 0.57352 0.49802 0.5734 0.0
C48 C 0.49681 0.52402 0.64374 0.0
C49 C 0.46703 0.54718 0.59748 0.0
C50 C 0.42907 0.58166 0.61283 0.0
C51 C 0.42327 0.59541 0.67468 0.0
C52 C 0.45132 0.57205 0.7211 0.0
C53 C 0.48797 0.53638 0.70568 0.0
H54 H 0.24807 0.62463 0.74258 0.0
H55 H 0.07874 0.5016 0.86791 0.0
H56 H 0.02881 0.57421 0.70095 0.0
H57 H 0.93123 0.44859 0.71211 0.0
H58 H 0.76429 0.3809 0.84662 0.0
H59 H 0.9831 0.53659 0.89557 0.0
C60 C 0.19155 0.60093 0.75564 0.0
C61 C 0.14132 0.60407 0.71558 0.0
C62 C 0.16965 0.5647 0.81072 0.0
C63 C 0.09612 0.5315 0.82628 0.0
C64 C 0.04488 0.5357 0.78728 0.0
C65 C 0.06808 0.57255 0.73208 0.0
C66 C 0.96651 0.49708 0.80219 0.0
C67 C 0.91456 0.45239 0.75801 0.0
C68 C 0.84168 0.40978 0.77401 0.0
C69 C 0.82072 0.41317 0.83402 0.0
C70 C 0.87072 0.4598 0.87749 0.0
C71 C 0.94377 0.50171 0.86153 0.0
H72 H 0.37971 0.76444 0.00975 0.0
H73 H 0.47206 0.92627 0.8763 0.0
H74 H 0.42361 0.97032 0.05732 0.0
H75 H 0.54492 0.0651 0.04108 0.0
H76 H 0.60487 0.2298 0.91215 0.0
H77 H 0.44613 0.02023 0.85979 0.0
C78 C 0.39979 0.81822 -0.00299 0.0
C79 C 0.39789 0.86467 0.03975 0.0
C80 C 0.42448 0.8395 0.93747 0.0
C81 C 0.45048 0.90927 0.92157 0.0
C82 C 0.45258 0.95768 0.96532 0.0
C83 C 0.4236 0.93409 0.02363 0.0
C84 C 0.49026 0.03352 0.95216 0.0
C85 C 0.53797 0.08248 -0.00344 0.0
C86 C 0.57943 0.15351 -0.01728 0.0
C87 C 0.5728 0.17522 0.92393 0.0
C88 C 0.52437 0.12782 0.87997 0.0
C89 C 0.48258 0.05707 0.8943 0.0
H90 H 0.38294 0.61906 0.08097 0.0
H91 H 0.49741 0.56854 0.21528 0.0
H92 H 0.45054 0.47172 0.03477 0.0
H93 H 0.57322 0.49705 0.05464 0.0
H94 H 0.64364 0.40329 0.19022 0.0
H95 H 0.48932 0.46497 0.23838 0.0
C96 C 0.40954 0.58996 0.09403 0.0
C97 C 0.41292 0.54424 0.05146 0.0
C98 C 0.43796 0.59707 0.15361 0.0
C99 C 0.47279 0.56002 0.16995 0.0
C100 C 0.47912 0.51537 0.12704 0.0
C101 C 0.44709 0.50638 0.06815 0.0
C102 C 0.52171 0.48082 0.14315 0.0
C103 C 0.56825 0.47596 0.10007 0.0
C104 C 0.61085 0.44635 0.11663 0.0
C105 C 0.60726 0.42206 0.17624 0.0
C106 C 0.56528 0.43072 0.22038 0.0
C107 C 0.52139 0.45848 0.20355 0.0
Zn108 Zn 0.69815 0.50462 0.38281 0.0
Zn109 Zn 0.62511 0.36325 0.38374 0.0
O110 O 0.72421 0.38491 0.35622 0.0
O111 O 0.79038 0.49932 0.36532 0.0
O112 O 0.57746 0.26412 0.41058 0.0
O113 O 0.66949 0.51941 0.46792 0.0
O114 O 0.61536 0.40515 0.46401 0.0
C115 C 0.78462 0.44094 0.3514 0.0
C116 C 0.58544 0.43016 0.28472 0.0
O117 O 0.5737 0.37323 0.30861 0.0
O118 O 0.63152 0.48858 0.30863 0.0
C119 C 0.59388 0.2177 0.39787 0.0
O120 O 0.64049 0.22819 0.35466 0.0
C121 C 0.63134 0.46118 0.49301 0.0
Zn122 Zn 0.18631 0.69684 0.54294 0.0
Zn123 Zn 0.26978 0.63625 0.54997 0.0
O124 O 0.34044 0.73323 0.52248 0.0
O125 O 0.27995 0.78994 0.52548 0.0
O126 O 0.33426 0.60167 0.58271 0.0
O127 O 0.14077 0.66736 0.62718 0.0
O128 O 0.21154 0.62159 0.62752 0.0
C129 C 0.33795 0.78874 0.51488 0.0
C130 C 0.16175 0.58894 0.44741 0.0
O131 O 0.21229 0.58278 0.47345 0.0
O132 O 0.14179 0.62986 0.46939 0.0
C133 C 0.3898 0.59886 0.56607 0.0
O134 O 0.41464 0.61667 0.51047 0.0
C135 C 0.16542 0.63292 0.65403 0.0
Zn136 Zn 0.47962 0.18027 0.70553 0.0
Zn137 Zn 0.62857 0.25039 0.71738 0.0
O138 O 0.60374 0.32279 0.69082 0.0
O139 O 0.48453 0.27478 0.69029 0.0
O140 O 0.73079 0.30832 0.74954 0.0
O141 O 0.46425 0.13469 0.78922 0.0
O142 O 0.58365 0.19503 0.79404 0.0
C143 C 0.54703 0.32728 0.68215 0.0
C144 C 0.564 0.15062 0.61292 0.0
O145 O 0.62215 0.19431 0.64147 0.0
O146 O 0.50198 0.13678 0.63186 0.0
C147 C 0.78552 0.36245 0.72921 0.0
O148 O 0.78368 0.38328 0.67341 0.0
C149 C 0.52336 0.15292 0.81794 0.0
Zn150 Zn 0.31184 0.49526 0.8762 0.0
Zn151 Zn 0.38745 0.6387 0.88367 0.0
O152 O 0.28651 0.61405 0.85542 0.0
O153 O 0.21808 0.49973 0.858 0.0
O154 O 0.43 0.73841 0.9131 0.0
O155 O 0.34482 0.48359 0.96139 0.0
O156 O 0.40102 0.59819 0.96282 0.0
C157 C 0.22513 0.55912 0.84758 0.0
C158 C 0.42643 0.57122 0.78361 0.0
O159 O 0.43844 0.62806 0.80941 0.0
O160 O 0.37906 0.51253 0.80403 0.0
C161 C 0.42028 0.78692 0.89294 0.0
O162 O 0.38852 0.77966 0.83922 0.0
C163 C 0.3852 0.54124 -0.0113 0.0
Zn164 Zn 0.81829 0.50451 0.05018 0.0
Zn165 Zn 0.74152 0.36392 0.04221 0.0
O166 O 0.66909 0.39189 0.07047 0.0
O167 O 0.72327 0.50612 0.06584 0.0
O168 O 0.67453 0.26678 0.00958 0.0
O169 O 0.86587 0.51919 0.96734 0.0
O170 O 0.80017 0.40479 0.96435 0.0
C171 C 0.66729 0.44802 0.07699 0.0
C172 C 0.84898 0.42489 0.14498 0.0
O173 O 0.80072 0.36852 0.11867 0.0
O174 O 0.86458 0.48389 0.1237 0.0
C175 C 0.62959 0.2063 0.02842 0.0
O176 O 0.62198 0.19429 0.08742 0.0
C177 C 0.8455 0.46181 0.93966 0.0
Zn178 Zn 0.3065 0.81456 0.21349 0.0
Zn179 Zn 0.38475 0.7501 0.2074 0.0
O180 O 0.28671 0.67399 0.23558 0.0
O181 O 0.21552 0.71947 0.22896 0.0
O182 O 0.43169 0.69737 0.17711 0.0
O183 O 0.33335 0.859 0.12998 0.0
O184 O 0.39227 0.8011 0.12794 0.0
C185 C 0.22459 0.66838 0.2412 0.0
C186 C 0.42235 0.85203 0.30927 0.0
O187 O 0.43732 0.80929 0.28299 0.0
O188 O 0.37304 0.86268 0.28765 0.0
C189 C 0.42949 0.643 0.1977 0.0
O190 O 0.40257 0.61997 0.2519 0.0
C191 C 0.37315 0.84082 0.10216 0.0
loop_
_geom_bond_atom_site_label_1
_geom_bond_atom_site_label_2
_geom_bond_distance
_geom_bond_site_symmetry_2
_ccdc_geom_bond_type
H0 C6 0.930 . S
H1 C9 0.931 . S
H2 C11 0.931 . S
H3 C13 0.930 . S
H4 C15 0.930 . S
H5 C17 0.931 . S
C6 H0 0.930 . S
C6 C7 1.380 . S
C6 C8 1.394 . S
C7 C6 1.380 . S
C7 C11 1.382 . S
C8 C6 1.394 . S
C8 C9 1.400 . S
C9 H1 0.931 . S
C9 C8 1.400 . S
C9 C10 1.375 . S
C10 C9 1.375 . S
C10 C11 1.415 . S
C10 C12 1.501 1_455 S
C11 H2 0.931 . S
C11 C7 1.382 . S
C11 C10 1.415 . S
C12 C10 1.501 1_655 S
C12 C13 1.384 . S
C12 C17 1.408 . S
C13 H3 0.930 . S
C13 C12 1.384 . S
C13 C14 1.389 . S
C14 C13 1.389 . S
C14 C15 1.405 . S
C15 H4 0.930 . S
C15 C14 1.405 . S
C15 C16 1.364 . S
C16 C15 1.364 . S
C16 C17 1.400 . S
C17 H5 0.931 . S
C17 C12 1.408 . S
C17 C16 1.400 . S
H18 C24 0.930 . S
H19 C27 0.931 . S
H20 C29 0.931 . S
H21 C31 0.930 . S
H22 C33 0.930 . S
H23 C35 0.931 . S
C24 H18 0.930 . S
C24 C25 1.380 . S
C24 C26 1.394 . S
C25 C24 1.380 . S
C25 C29 1.382 . S
C26 C24 1.394 . S
C26 C27 1.400 . S
C27 H19 0.931 . S
C27 C26 1.400 . S
C27 C28 1.375 . S
C28 C27 1.375 . S
C28 C29 1.415 . S
C28 C30 1.501 1_545 S
C29 H20 0.931 . S
C29 C25 1.382 . S
C29 C28 1.415 . S
C30 C28 1.501 1_565 S
C30 C31 1.384 . S
C30 C35 1.408 . S
C31 H21 0.930 . S
C31 C30 1.384 . S
C31 C32 1.389 . S
C32 C31 1.389 . S
C32 C33 1.405 . S
C33 H22 0.930 . S
C33 C32 1.405 . S
C33 C34 1.364 . S
C34 C33 1.364 . S
C34 C35 1.400 . S
C35 H23 0.931 . S
C35 C30 1.408 . S
C35 C34 1.400 . S
H36 C42 0.930 . S
H37 C45 0.931 . S
H38 C47 0.931 . S
H39 C49 0.930 . S
H40 C51 0.930 . S
H41 C53 0.931 . S
C42 H36 0.930 . S
C42 C43 1.380 . S
C42 C44 1.394 . S
C43 C42 1.380 . S
C43 C47 1.382 . S
C44 C42 1.394 . S
C44 C45 1.400 . S
C45 H37 0.931 . S
C45 C44 1.400 . S
C45 C46 1.375 . S
C46 C45 1.375 . S
C46 C47 1.415 . S
C46 C48 1.501 . S
C47 H38 0.931 . S
C47 C43 1.382 . S
C47 C46 1.415 . S
C48 C46 1.501 . S
C48 C49 1.384 . S
C48 C53 1.408 . S
C49 H39 0.930 . S
C49 C48 1.384 . S
C49 C50 1.389 . S
C50 C49 1.389 . S
C50 C51 1.405 . S
C51 H40 0.930 . S
C51 C50 1.405 . S
C51 C52 1.364 . S
C52 C51 1.364 . S
C52 C53 1.400 . S
C53 H41 0.931 . S
C53 C48 1.408 . S
C53 C52 1.400 . S
H54 C60 0.930 . S
H55 C63 0.931 . S
H56 C65 0.931 . S
H57 C67 0.930 . S
H58 C69 0.930 . S
H59 C71 0.931 . S
C60 H54 0.930 . S
C60 C61 1.380 . S
C60 C62 1.394 . S
C61 C60 1.380 . S
C61 C65 1.382 . S
C62 C60 1.394 . S
C62 C63 1.400 . S
C63 H55 0.931 . S
C63 C62 1.400 . S
C63 C64 1.375 . S
C64 C63 1.375 . S
C64 C65 1.415 . S
C64 C66 1.501 1_455 S
C65 H56 0.931 . S
C65 C61 1.382 . S
C65 C64 1.415 . S
C66 C64 1.501 1_655 S
C66 C67 1.384 . S
C66 C71 1.408 . S
C67 H57 0.930 . S
C67 C66 1.384 . S
C67 C68 1.389 . S
C68 C67 1.389 . S
C68 C69 1.405 . S
C69 H58 0.930 . S
C69 C68 1.405 . S
C69 C70 1.364 . S
C70 C69 1.364 . S
C70 C71 1.400 . S
C71 H59 0.931 . S
C71 C66 1.408 . S
C71 C70 1.400 . S
H72 C78 0.930 . S
H73 C81 0.931 . S
H74 C83 0.931 . S
H75 C85 0.930 . S
H76 C87 0.930 . S
H77 C89 0.931 . S
C78 H72 0.930 . S
C78 C79 1.380 . S
C78 C80 1.394 1_554 S
C79 C78 1.380 . S
C79 C83 1.382 . S
C80 C78 1.394 1_556 S
C80 C81 1.400 . S
C81 H73 0.931 . S
C81 C80 1.400 . S
C81 C82 1.375 . S
C82 C81 1.375 . S
C82 C83 1.415 1_556 S
C82 C84 1.501 1_565 S
C83 H74 0.931 . S
C83 C79 1.382 . S
C83 C82 1.415 1_554 S
C84 C82 1.501 1_545 S
C84 C85 1.384 1_556 S
C84 C89 1.408 . S
C85 H75 0.930 . S
C85 C84 1.384 1_554 S
C85 C86 1.389 . S
C86 C85 1.389 . S
C86 C87 1.405 1_554 S
C87 H76 0.930 . S
C87 C86 1.405 1_556 S
C87 C88 1.364 . S
C88 C87 1.364 . S
C88 C89 1.400 . S
C89 H77 0.931 . S
C89 C84 1.408 . S
C89 C88 1.400 . S
H90 C96 0.930 . S
H91 C99 0.931 . S
H92 C101 0.931 . S
H93 C103 0.930 . S
H94 C105 0.930 . S
H95 C107 0.931 . S
C96 H90 0.930 . S
C96 C97 1.380 . S
C96 C98 1.394 . S
C97 C96 1.380 . S
C97 C101 1.382 . S
C98 C96 1.394 . S
C98 C99 1.400 . S
C99 H91 0.931 . S
C99 C98 1.400 . S
C99 C100 1.375 . S
C100 C99 1.375 . S
C100 C101 1.415 . S
C100 C102 1.501 . S
C101 H92 0.931 . S
C101 C97 1.382 . S
C101 C100 1.415 . S
C102 C100 1.501 . S
C102 C103 1.384 . S
C102 C107 1.408 . S
C103 H93 0.930 . S
C103 C102 1.384 . S
C103 C104 1.389 . S
C104 C103 1.389 . S
C104 C105 1.405 . S
C105 H94 0.930 . S
C105 C104 1.405 . S
C105 C106 1.364 . S
C106 C105 1.364 . S
C106 C107 1.400 . S
C107 H95 0.931 . S
C107 C102 1.408 . S
C107 C106 1.400 . S
Zn108 O111 2.031 . S
Zn108 O113 2.049 . S
Zn108 O118 2.067 . S
Zn109 O110 1.962 . S
Zn109 O112 1.986 . S
Zn109 O114 1.996 . S
Zn109 O117 1.943 . S
O110 Zn109 1.962 . S
O110 C115 1.254 . S
O111 Zn108 2.031 . S
O111 C115 1.269 . S
O112 Zn109 1.986 . S
O112 C119 1.262 . S
O113 Zn108 2.049 . S
O113 C121 1.260 . S
O114 Zn109 1.996 . S
O114 C121 1.257 . S
C115 O110 1.254 . S
C115 O111 1.269 . S
C116 O117 1.249 . S
C116 O118 1.270 . S
O117 Zn109 1.943 . S
O117 C116 1.249 . S
O118 Zn108 2.067 . S
O118 C116 1.270 . S
C119 O112 1.262 . S
C119 O120 1.232 . S
O120 C119 1.232 . S
C121 O113 1.260 . S
C121 O114 1.257 . S
Zn122 O125 2.031 . S
Zn122 O127 2.049 . S
Zn122 O132 2.067 . S
Zn123 O124 1.962 . S
Zn123 O126 1.986 . S
Zn123 O128 1.996 . S
Zn123 O131 1.943 . S
O124 Zn123 1.962 . S
O124 C129 1.254 . S
O125 Zn122 2.031 . S
O125 C129 1.269 . S
O126 Zn123 1.986 . S
O126 C133 1.262 . S
O127 Zn122 2.049 . S
O127 C135 1.260 . S
O128 Zn123 1.996 . S
O128 C135 1.257 . S
C129 O124 1.254 . S
C129 O125 1.269 . S
C130 O131 1.249 . S
C130 O132 1.270 . S
O131 Zn123 1.943 . S
O131 C130 1.249 . S
O132 Zn122 2.067 . S
O132 C130 1.270 . S
C133 O126 1.262 . S
C133 O134 1.232 . S
O134 C133 1.232 . S
C135 O127 1.260 . S
C135 O128 1.257 . S
Zn136 O139 2.031 . S
Zn136 O141 2.049 . S
Zn136 O146 2.067 . S
Zn137 O138 1.962 . S
Zn137 O140 1.986 . S
Zn137 O142 1.996 . S
Zn137 O145 1.943 . S
O138 Zn137 1.962 . S
O138 C143 1.254 . S
O139 Zn136 2.031 . S
O139 C143 1.269 . S
O140 Zn137 1.986 . S
O140 C147 1.262 . S
O141 Zn136 2.049 . S
O141 C149 1.260 . S
O142 Zn137 1.996 . S
O142 C149 1.257 . S
C143 O138 1.254 . S
C143 O139 1.269 . S
C144 O145 1.249 . S
C144 O146 1.270 . S
O145 Zn137 1.943 . S
O145 C144 1.249 . S
O146 Zn136 2.067 . S
O146 C144 1.270 . S
C147 O140 1.262 . S
C147 O148 1.232 . S
O148 C147 1.232 . S
C149 O141 1.260 . S
C149 O142 1.257 . S
Zn150 O153 2.031 . S
Zn150 O155 2.049 . S
Zn150 O160 2.067 . S
Zn151 O152 1.962 . S
Zn151 O154 1.986 . S
Zn151 O156 1.996 . S
Zn151 O159 1.943 . S
O152 Zn151 1.962 . S
O152 C157 1.254 . S
O153 Zn150 2.031 . S
O153 C157 1.269 . S
O154 Zn151 1.986 . S
O154 C161 1.262 . S
O155 Zn150 2.049 . S
O155 C163 1.260 1_556 S
O156 Zn151 1.996 . S
O156 C163 1.257 1_556 S
C157 O152 1.254 . S
C157 O153 1.269 . S
C158 O159 1.249 . S
C158 O160 1.270 . S
O159 Zn151 1.943 . S
O159 C158 1.249 . S
O160 Zn150 2.067 . S
O160 C158 1.270 . S
C161 O154 1.262 . S
C161 O162 1.232 . S
O162 C161 1.232 . S
C163 O155 1.260 1_554 S
C163 O156 1.257 1_554 S
Zn164 O167 2.031 . S
Zn164 O169 2.049 1_554 S
Zn164 O174 2.067 . S
Zn165 O166 1.962 . S
Zn165 O168 1.986 . S
Zn165 O170 1.996 1_554 S
Zn165 O173 1.943 . S
O166 Zn165 1.962 . S
O166 C171 1.254 . S
O167 Zn164 2.031 . S
O167 C171 1.269 . S
O168 Zn165 1.986 . S
O168 C175 1.262 . S
O169 Zn164 2.049 1_556 S
O169 C177 1.260 . S
O170 Zn165 1.996 1_556 S
O170 C177 1.257 . S
C171 O166 1.254 . S
C171 O167 1.269 . S
C172 O173 1.249 . S
C172 O174 1.270 . S
O173 Zn165 1.943 . S
O173 C172 1.249 . S
O174 Zn164 2.067 . S
O174 C172 1.270 . S
C175 O168 1.262 . S
C175 O176 1.232 . S
O176 C175 1.232 . S
C177 O169 1.260 . S
C177 O170 1.257 . S
Zn178 O181 2.031 . S
Zn178 O183 2.049 . S
Zn178 O188 2.067 . S
Zn179 O180 1.962 . S
Zn179 O182 1.986 . S
Zn179 O184 1.996 . S
Zn179 O187 1.943 . S
O180 Zn179 1.962 . S
O180 C185 1.254 . S
O181 Zn178 2.031 . S
O181 C185 1.269 . S
O182 Zn179 1.986 . S
O182 C189 1.262 . S
O183 Zn178 2.049 . S
O183 C191 1.260 . S
O184 Zn179 1.996 . S
O184 C191 1.257 . S
C185 O180 1.254 . S
C185 O181 1.269 . S
C186 O187 1.249 . S
C186 O188 1.270 . S
O187 Zn179 1.943 . S
O187 C186 1.249 . S
O188 Zn178 2.067 . S
O188 C186 1.270 . S
C189 O182 1.262 . S
C189 O190 1.232 . S
O190 C189 1.232 . S
C191 O183 1.260 . S
C191 O184 1.257 . S
C185 C8 1.662 . S
C26 C119 1.598 . S
C50 C133 1.556 . S
C68 C147 1.541 . S
C161 C80 1.631 . S
C104 C171 1.693 . S
C32 C129 1.715 . S
C44 C143 1.781 . S
C62 C157 1.748 . S
C175 C86 1.609 . S
C189 C98 1.582 . S
C115 C14 1.639 . S
C7 C130 1.407 . S
C25 C144 1.493 . S
C158 C52 1.510 . S
C70 C177 1.563 . S
C191 C79 1.435 . S
C116 C106 1.382 . S
C186 C34 1.390 . S
C43 C121 1.476 . S
C135 C61 1.547 . S
C88 C149 1.509 . S
C97 C163 1.539 . S
C16 C172 1.447 . S
