# Generated by pormake.
# Topology ftw, (4,12)-cn, num edge types: 1
# Building blocks:
#     Node 0, Type 0, BuildingBlock: KUFVIS_clean_linker_0, # of connection points: 4
#     Node 1, Type 0, BuildingBlock: KUFVIS_clean_linker_0, # of connection points: 4
#     Node 2, Type 0, BuildingBlock: KUFVIS_clean_linker_0, # of connection points: 4
#     Node 3, Type 1, BuildingBlock: EZIPEK_clean_sbu_0, # of connection points: 12
#     Edge 4, Type (0, 1), BuildingBlock: OJICUG_clean_linker_0, # of connection points: 2
#     Edge 5, Type (0, 1), BuildingBlock: OJICUG_clean_linker_0, # of connection points: 2
#     Edge 6, Type (0, 1), BuildingBlock: OJICUG_clean_linker_0, # of connection points: 2
#     Edge 7, Type (0, 1), BuildingBlock: OJICUG_clean_linker_0, # of connection points: 2
#     Edge 8, Type (0, 1), BuildingBlock: OJICUG_clean_linker_0, # of connection points: 2
#     Edge 9, Type (0, 1), BuildingBlock: OJICUG_clean_linker_0, # of connection points: 2
#     Edge 10, Type (0, 1), BuildingBlock: OJICUG_clean_linker_0, # of connection points: 2
#     Edge 11, Type (0, 1), BuildingBlock: OJICUG_clean_linker_0, # of connection points: 2
#     Edge 12, Type (0, 1), BuildingBlock: OJICUG_clean_linker_0, # of connection points: 2
#     Edge 13, Type (0, 1), BuildingBlock: OJICUG_clean_linker_0, # of connection points: 2
#     Edge 14, Type (0, 1), BuildingBlock: OJICUG_clean_linker_0, # of connection points: 2
#     Edge 15, Type (0, 1), BuildingBlock: OJICUG_clean_linker_0, # of connection points: 2
# Relax obj value: 0.081
# Max RMSD: 0.235
# Mean RMSD: 0.179
data_MOF--net-ftw--node1-EZIPEK_clean_sbu_0--node2-KUFVIS_clean_linker_0--edge1-OJICUG_clean_linker_0
_symmetry_space_group_name_H-M    P1
_symmetry_Int_Tables_number       1
_symmetry_cell_setting            triclinic
loop_
_symmetry_equiv_pos_as_xyz
'x, y, z'
_cell_length_a     18.264543
_cell_length_b     18.992393
_cell_length_c     18.460206
_cell_angle_alpha  89.842285
_cell_angle_beta   90.002515
_cell_angle_gamma 89.983727
loop_
_atom_site_label
_atom_site_type_symbol
_atom_site_fract_x
_atom_site_fract_y
_atom_site_fract_z
_atom_type_partial_charge
H0 H 0.97791 0.29041 0.52357 0.0
H1 H 0.9592 0.48488 0.63739 0.0
H2 H 0.00603 0.48286 0.40706 0.0
H3 H 0.97174 0.5888 0.40532 0.0
H4 H -0.01456 0.78201 0.52167 0.0
H5 H 0.00339 0.5882 0.63812 0.0
C6 C 0.97926 0.3474 0.52312 0.0
C7 C -0.01065 0.3831 0.45708 0.0
C8 C 0.97103 0.38407 0.58864 0.0
C9 C 0.97069 0.45807 0.5872 0.0
C10 C -0.01706 0.49629 0.52221 0.0
C11 C -0.00679 0.45708 0.4576 0.0
C12 C -0.01516 0.57622 0.52201 0.0
C13 C 0.97871 0.61508 0.4565 0.0
C14 C -0.01706 0.68899 0.45557 0.0
C15 C -0.01274 0.725 0.52175 0.0
C16 C -0.00655 0.68885 0.58788 0.0
C17 C -0.00608 0.61478 0.58725 0.0
H18 H 0.4861 0.0633 0.77335 0.0
H19 H 0.59703 0.04085 0.57112 0.0
H20 H 0.37175 0.10987 0.57654 0.0
H21 H 0.36579 0.04875 0.47702 0.0
H22 H 0.47597 0.05252 0.27299 0.0
H23 H 0.59772 0.09233 0.46655 0.0
C24 C 0.48577 0.06787 0.71484 0.0
C25 C 0.42047 0.08467 0.67861 0.0
C26 C 0.55032 0.05525 0.67577 0.0
C27 C 0.54849 0.05702 0.60017 0.0
C28 C 0.48433 0.07613 0.56291 0.0
C29 C 0.42129 0.09246 0.60329 0.0
C30 C 0.48166 0.07382 0.4824 0.0
C31 C 0.41543 0.0587 0.44674 0.0
C32 C 0.41282 0.05254 0.37149 0.0
C33 C 0.47762 0.05797 0.33141 0.0
C34 C 0.54483 0.06915 0.36607 0.0
C35 C 0.54593 0.08087 0.44084 0.0
H36 H 0.48912 0.77894 0.99994 0.0
H37 H 0.60036 0.58402 0.03319 0.0
H38 H 0.36538 0.58834 1.00059 0.0
H39 H 0.36637 0.48518 0.04527 0.0
H40 H 0.47899 0.28932 0.02459 0.0
H41 H 0.5963 0.48048 0.98743 0.0
C42 C 0.48707 0.72218 1.00578 0.0
C43 C 0.41915 0.68797 1.00487 0.0
C44 C 0.55235 0.68492 1.01614 0.0
C45 C 0.54991 0.61131 0.02106 0.0
C46 C 0.48308 0.57419 1.01345 0.0
C47 C 0.41781 0.61398 1.00528 0.0
C48 C 0.48161 0.49478 1.01624 0.0
C49 C 0.41632 0.45768 0.03206 0.0
C50 C 0.41452 0.3838 0.03291 0.0
C51 C 0.47974 0.34631 0.02219 0.0
C52 C 0.54587 0.38128 1.00832 0.0
C53 C 0.54583 0.45503 1.00309 0.0
C54 C 0.97238 0.20744 0.84516 0.0
C55 C -0.01269 0.20547 0.20117 0.0
C56 C -0.00516 0.86758 0.84253 0.0
C57 C -0.01559 0.86472 0.19839 0.0
C58 C 0.16354 0.86855 1.01621 0.0
C59 C 0.15828 0.2072 0.03696 0.0
C60 C 0.80752 0.86332 0.0251 0.0
C61 C 0.80183 0.20243 1.01116 0.0
C62 C 0.80354 1.0405 0.19303 0.0
C63 C 0.15622 1.02714 0.19833 0.0
C64 C 0.80843 1.02405 0.84749 0.0
C65 C 0.16271 0.05988 0.85381 0.0
Eu66 Eu -0.01935 0.1728 0.02308 0.0
O67 O 0.04417 0.10013 0.08752 0.0
O68 O 0.92012 0.09864 0.95814 0.0
Eu69 Eu 0.11776 1.03763 0.02458 0.0
Eu70 Eu 0.84808 1.03364 0.02064 0.0
O71 O 0.04645 0.10149 0.95939 0.0
O72 O 0.91642 0.09946 0.08656 0.0
Eu73 Eu -0.01463 1.03734 0.88489 0.0
Eu74 Eu -0.01937 1.03553 0.15905 0.0
O75 O 0.04896 0.97325 0.9578 0.0
O76 O 0.04557 0.9725 0.08662 0.0
O77 O 0.91962 0.97027 0.08539 0.0
O78 O 0.92124 0.97163 0.95595 0.0
Eu79 Eu -0.01516 0.89927 0.02047 0.0
O80 O 0.97864 0.23091 0.91346 0.0
O81 O -0.01871 0.22979 0.13303 0.0
O82 O -0.01307 0.8432 0.91038 0.0
O83 O -0.01484 0.84122 0.12988 0.0
O84 O 0.18211 0.93647 1.01709 0.0
O85 O 0.17822 0.13977 0.04057 0.0
O86 O 0.78722 0.93069 0.02776 0.0
O87 O 0.78373 0.13445 1.00904 0.0
O88 O 0.87191 0.04137 0.21827 0.0
O89 O 0.08744 1.0334 0.22147 0.0
O90 O 0.87722 1.0304 0.82365 0.0
O91 O 0.09489 0.05279 0.82756 0.0
O92 O 0.87632 0.83995 0.01946 0.0
O93 O 0.09524 0.84324 0.0176 0.0
O94 O 0.86962 0.22787 0.01961 0.0
O95 O 0.09008 0.23087 0.02632 0.0
O96 O -0.01139 0.13774 0.22047 0.0
O97 O -0.01813 0.93198 0.21893 0.0
O98 O 0.97236 0.14006 0.82495 0.0
O99 O -0.0024 0.93536 0.82328 0.0
O100 O 0.18185 0.05459 0.923 0.0
O101 O 0.17788 1.02597 0.12964 0.0
O102 O 0.78742 1.02348 0.91632 0.0
O103 O 0.78385 1.03708 0.12386 0.0
C104 C 0.03318 0.27787 0.38661 0.0
C105 C -0.00455 0.34235 0.38785 0.0
H106 H 0.06035 0.18522 0.32726 0.0
C107 C 0.96022 0.36496 0.32376 0.0
H108 H 0.06278 0.25944 0.43383 0.0
C109 C 0.95989 0.32239 0.26141 0.0
C110 C -0.00585 0.25611 0.26221 0.0
H111 H 0.93038 0.41422 0.32266 0.0
H112 H 0.93015 0.3399 0.2139 0.0
C113 C 0.03211 0.23533 0.32507 0.0
C114 C 0.67465 0.10508 0.33742 0.0
C115 C 0.61397 0.06096 0.32519 0.0
H116 H 0.7843 0.13217 0.30525 0.0
C117 C 0.61993 1.00628 0.27449 0.0
H118 H 0.67166 0.1476 0.37627 0.0
C119 C 0.68344 0.99808 0.23421 0.0
C120 C 0.74286 0.04342 0.24448 0.0
H121 H 0.57526 0.96979 0.26554 0.0
H122 H 0.68578 0.95681 0.19402 0.0
C123 C 0.73906 0.09609 0.29739 0.0
C124 C 0.03247 0.78859 0.38079 0.0
C125 C -0.01373 0.72954 0.38593 0.0
H126 H 0.06807 0.87654 0.3176 0.0
C127 C 0.944 0.71105 0.32484 0.0
H128 H 0.06776 0.80334 0.42539 0.0
C129 C 0.9458 0.75258 0.26157 0.0
C130 C -0.0108 0.81358 0.25881 0.0
H131 H 0.9077 0.66604 0.32667 0.0
H132 H 0.91084 0.73891 0.21634 0.0
C133 C 0.03333 0.83027 0.31857 0.0
C134 C 0.3399 0.98914 0.27828 0.0
C135 C 0.34272 1.03838 0.33464 0.0
H136 H 0.27688 0.94613 0.19186 0.0
C137 C 0.27928 0.0765 0.35283 0.0
H138 H 0.3873 0.95755 0.26456 0.0
C139 C 0.21559 0.06906 0.31167 0.0
C140 C 0.21518 1.02389 0.2518 0.0
H141 H 0.28009 0.11469 0.3963 0.0
H142 H 0.16865 0.10188 0.32364 0.0
C143 C 0.27673 0.98221 0.23708 0.0
C144 C 0.04085 0.79244 0.65847 0.0
C145 C 0.00019 0.72956 0.65701 0.0
H146 H 0.07116 0.88438 0.71773 0.0
C147 C 0.96314 0.70874 0.72062 0.0
H148 H 0.07195 0.80933 0.6116 0.0
C149 C 0.96384 0.75166 0.78265 0.0
C150 C 0.00097 0.81651 0.78195 0.0
H151 H 0.93113 0.66076 0.72155 0.0
H152 H 0.93261 0.73568 0.82978 0.0
C153 C 0.04074 0.83543 0.71968 0.0
C154 C 0.34713 0.11923 0.78718 0.0
C155 C 0.35031 0.08785 0.71865 0.0
H156 H 0.2844 0.13575 0.88306 0.0
C157 C 0.28756 0.05391 0.69117 0.0
H158 H 0.39392 0.14701 0.80907 0.0
C159 C 0.2243 0.04791 0.73336 0.0
C160 C 0.22332 0.07514 0.80377 0.0
H161 H 0.28857 1.02875 0.6386 0.0
H162 H 0.17796 1.01867 0.71254 0.0
C163 C 0.28435 0.11281 0.82935 0.0
C164 C 0.92327 0.28159 0.66125 0.0
C165 C 0.96392 0.34434 0.65849 0.0
H166 H 0.89374 0.19023 0.72224 0.0
C167 C 0.00142 0.36589 0.72154 0.0
H168 H 0.89201 0.26415 0.61479 0.0
C169 C 0.0014 0.32361 0.78426 0.0
C170 C 0.96444 0.25875 0.78479 0.0
H171 H 0.03353 0.41381 0.72138 0.0
H172 H 0.03325 0.33989 0.83079 0.0
C173 C 0.92393 0.23931 0.7232 0.0
C174 C 0.68555 0.07147 0.69158 0.0
C175 C 0.61972 1.03927 0.71361 0.0
H176 H 0.79849 0.09075 0.71656 0.0
C177 C 0.62009 0.99409 0.77375 0.0
H178 H 0.68672 0.1066 0.64527 0.0
C179 C 0.68368 0.98519 0.81415 0.0
C180 C 0.74817 1.0211 0.79506 0.0
H181 H 0.57074 0.96707 0.79073 0.0
H182 H 0.68159 0.95236 0.86223 0.0
C183 C 0.74955 0.06221 0.73197 0.0
C184 C 0.34267 0.2831 0.08475 0.0
C185 C 0.34444 0.34491 0.04284 0.0
H186 H 0.28223 0.19174 0.11606 0.0
C187 C 0.28062 0.36555 1.00551 0.0
H188 H 0.39011 0.2666 0.11567 0.0
C189 C 0.21798 0.32285 1.00654 0.0
C190 C 0.21852 0.25862 0.04438 0.0
H191 H 0.2803 0.41278 0.9725 0.0
H192 H 0.1708 0.33818 0.97461 0.0
C193 C 0.2807 0.24032 0.08514 0.0
C194 C 0.28544 0.71146 0.97352 0.0
C195 C 0.35068 0.73091 1.00914 0.0
H196 H 0.17393 0.7395 0.94843 0.0
C197 C 0.35085 0.79313 0.05036 0.0
H198 H 0.28306 0.66404 0.94123 0.0
C199 C 0.28974 0.83664 0.05257 0.0
C200 C 0.22537 0.81837 1.01592 0.0
H201 H 0.39859 0.80885 0.08112 0.0
H202 H 0.2931 0.88503 0.08314 0.0
C203 C 0.22298 0.75463 0.97747 0.0
C204 C 0.61499 0.27513 0.96511 0.0
C205 C 0.61499 0.34014 1.00126 0.0
H206 H 0.67387 0.18126 0.93973 0.0
C207 C 0.67996 0.36268 0.03521 0.0
H208 H 0.56668 0.25691 0.93677 0.0
C209 C 0.74222 0.31943 0.03608 0.0
C210 C 0.74029 0.25264 1.00366 0.0
H211 H 0.68172 0.41234 0.06385 0.0
H212 H 0.79056 0.3369 0.06489 0.0
C213 C 0.67661 0.23181 0.96668 0.0
C214 C 0.68709 0.70376 0.99037 0.0
C215 C 0.62197 0.72459 0.02515 0.0
H216 H 0.79811 0.73144 0.96326 0.0
C217 C 0.62195 0.78699 0.06574 0.0
H218 H 0.6888 0.65582 0.95879 0.0
C219 C 0.68329 0.8302 0.06716 0.0
C220 C 0.74713 0.81171 0.02946 0.0
H221 H 0.57356 0.8036 0.09505 0.0
H222 H 0.68003 0.87919 0.09668 0.0
C223 C 0.74951 0.74696 0.99282 0.0
loop_
_geom_bond_atom_site_label_1
_geom_bond_atom_site_label_2
_geom_bond_distance
_geom_bond_site_symmetry_2
_ccdc_geom_bond_type
H0 C6 0.930 1_655 S
H1 C9 0.931 . S
H2 C11 0.932 . S
H3 C13 0.930 . S
H4 C15 0.930 . S
H5 C17 0.932 . S
C6 H0 0.930 1_455 S
C6 C7 1.380 1_455 S
C6 C8 1.394 . S
C7 C6 1.380 1_655 S
C7 C11 1.383 . S
C8 C6 1.394 . S
C8 C9 1.400 . S
C9 H1 0.931 . S
C9 C8 1.400 . S
C9 C10 1.375 . S
C10 C9 1.375 . S
C10 C11 1.413 1_455 S
C10 C12 1.501 . S
C11 H2 0.932 . S
C11 C7 1.383 . S
C11 C10 1.413 1_655 S
C12 C10 1.501 . S
C12 C13 1.384 . S
C12 C17 1.407 1_455 S
C13 H3 0.930 . S
C13 C12 1.384 . S
C13 C14 1.389 . S
C14 C13 1.389 . S
C14 C15 1.405 . S
C15 H4 0.930 . S
C15 C14 1.405 . S
C15 C16 1.364 1_455 S
C16 C15 1.364 1_655 S
C16 C17 1.400 . S
C17 H5 0.932 . S
C17 C12 1.407 1_655 S
C17 C16 1.400 . S
H18 C24 0.930 . S
H19 C27 0.931 . S
H20 C29 0.931 . S
H21 C31 0.930 . S
H22 C33 0.930 . S
H23 C35 0.931 . S
C24 H18 0.930 . S
C24 C25 1.380 . S
C24 C26 1.394 1_545 S
C25 C24 1.380 . S
C25 C29 1.382 . S
C26 C24 1.394 1_565 S
C26 C27 1.400 . S
C27 H19 0.931 . S
C27 C26 1.400 . S
C27 C28 1.375 . S
C28 C27 1.375 . S
C28 C29 1.415 1_565 S
C28 C30 1.501 . S
C29 H20 0.931 . S
C29 C25 1.382 . S
C29 C28 1.415 1_545 S
C30 C28 1.501 . S
C30 C31 1.384 . S
C30 C35 1.408 1_565 S
C31 H21 0.930 . S
C31 C30 1.384 . S
C31 C32 1.389 . S
C32 C31 1.389 . S
C32 C33 1.405 . S
C33 H22 0.930 . S
C33 C32 1.405 . S
C33 C34 1.364 1_565 S
C34 C33 1.364 1_545 S
C34 C35 1.400 . S
C35 H23 0.931 . S
C35 C30 1.408 1_545 S
C35 C34 1.400 . S
H36 C42 0.930 1_556 S
H37 C45 0.931 . S
H38 C47 0.930 1_556 S
H39 C49 0.930 . S
H40 C51 0.930 . S
H41 C53 0.931 1_556 S
C42 H36 0.930 1_554 S
C42 C43 1.380 1_554 S
C42 C44 1.394 . S
C43 C42 1.380 1_556 S
C43 C47 1.382 1_556 S
C44 C42 1.394 . S
C44 C45 1.400 . S
C45 H37 0.931 . S
C45 C44 1.400 . S
C45 C46 1.375 . S
C46 C45 1.375 . S
C46 C47 1.416 . S
C46 C48 1.501 . S
C47 H38 0.930 1_554 S
C47 C43 1.382 1_554 S
C47 C46 1.416 . S
C48 C46 1.501 . S
C48 C49 1.384 . S
C48 C53 1.408 . S
C49 H39 0.930 . S
C49 C48 1.384 . S
C49 C50 1.389 . S
C50 C49 1.389 . S
C50 C51 1.405 . S
C51 H40 0.930 . S
C51 C50 1.405 . S
C51 C52 1.365 . S
C52 C51 1.365 . S
C52 C53 1.400 . S
C53 H41 0.931 1_554 S
C53 C48 1.408 . S
C53 C52 1.400 . S
C54 O80 1.283 . S
C54 O98 1.283 . S
C55 O81 1.283 . S
C55 O96 1.283 . S
C56 O82 1.283 . S
C56 O99 1.283 . S
C57 O83 1.283 . S
C57 O97 1.283 . S
C58 O84 1.283 . S
C58 O93 1.283 . S
C59 O85 1.283 . S
C59 O95 1.283 . S
C60 O86 1.283 . S
C60 O92 1.283 . S
C61 O87 1.283 . S
C61 O94 1.283 . S
C62 O88 1.283 . S
C62 O103 1.283 . S
C63 O89 1.283 . S
C63 O101 1.283 . S
C64 O90 1.283 . S
C64 O102 1.283 . S
C65 O91 1.283 . S
C65 O100 1.283 . S
Eu66 O67 2.370 . S
Eu66 O68 2.370 1_454 S
Eu66 O71 2.370 1_554 S
Eu66 O72 2.370 1_455 S
Eu66 O80 2.363 1_554 S
Eu66 O81 2.363 . S
Eu66 O94 2.363 1_455 S
Eu66 O95 2.363 . S
O67 Eu66 2.370 . S
O67 Eu69 2.369 . S
O67 Eu74 2.371 . S
O68 Eu66 2.370 1_656 S
O68 Eu70 2.371 1_556 S
O68 Eu73 2.370 1_655 S
Eu69 O67 2.369 . S
Eu69 O71 2.369 1_554 S
Eu69 O75 2.371 1_544 S
Eu69 O76 2.371 1_545 S
Eu69 O84 2.364 1_545 S
Eu69 O85 2.362 . S
Eu69 O100 2.363 1_544 S
Eu69 O101 2.363 . S
Eu70 O68 2.371 1_554 S
Eu70 O72 2.371 . S
Eu70 O77 2.369 1_545 S
Eu70 O78 2.369 1_544 S
Eu70 O86 2.362 1_545 S
Eu70 O87 2.364 . S
Eu70 O102 2.363 1_554 S
Eu70 O103 2.363 . S
O71 Eu66 2.370 1_556 S
O71 Eu69 2.369 1_556 S
O71 Eu73 2.370 . S
O72 Eu66 2.370 1_655 S
O72 Eu70 2.371 . S
O72 Eu74 2.371 1_655 S
Eu73 O68 2.370 1_455 S
Eu73 O71 2.370 . S
Eu73 O75 2.371 1_545 S
Eu73 O78 2.371 1_445 S
Eu73 O90 2.363 1_455 S
Eu73 O91 2.363 1_545 S
Eu73 O98 2.362 . S
Eu73 O99 2.364 1_545 S
Eu74 O67 2.371 . S
Eu74 O72 2.371 1_455 S
Eu74 O76 2.370 1_545 S
Eu74 O77 2.370 1_445 S
Eu74 O88 2.363 1_455 S
Eu74 O89 2.363 . S
Eu74 O96 2.364 . S
Eu74 O97 2.362 1_545 S
O75 Eu69 2.371 1_566 S
O75 Eu73 2.371 1_565 S
O75 Eu79 2.370 1_556 S
O76 Eu69 2.371 1_565 S
O76 Eu74 2.370 1_565 S
O76 Eu79 2.370 . S
O77 Eu70 2.369 1_565 S
O77 Eu74 2.370 1_665 S
O77 Eu79 2.370 1_655 S
O78 Eu70 2.369 1_566 S
O78 Eu73 2.371 1_665 S
O78 Eu79 2.370 1_656 S
Eu79 O75 2.370 1_554 S
Eu79 O76 2.370 . S
Eu79 O77 2.370 1_455 S
Eu79 O78 2.370 1_454 S
Eu79 O82 2.363 1_554 S
Eu79 O83 2.363 . S
Eu79 O92 2.363 1_455 S
Eu79 O93 2.363 . S
O80 C54 1.283 . S
O80 Eu66 2.363 1_556 S
O81 C55 1.283 . S
O81 Eu66 2.363 . S
O82 C56 1.283 . S
O82 Eu79 2.363 1_556 S
O83 C57 1.283 . S
O83 Eu79 2.363 . S
O84 C58 1.283 . S
O84 Eu69 2.364 1_565 S
O85 C59 1.283 . S
O85 Eu69 2.362 . S
O86 C60 1.283 . S
O86 Eu70 2.362 1_565 S
O87 C61 1.283 . S
O87 Eu70 2.364 . S
O88 C62 1.283 . S
O88 Eu74 2.363 1_655 S
O89 C63 1.283 . S
O89 Eu74 2.363 . S
O90 C64 1.283 . S
O90 Eu73 2.363 1_655 S
O91 C65 1.283 . S
O91 Eu73 2.363 1_565 S
O92 C60 1.283 . S
O92 Eu79 2.363 1_655 S
O93 C58 1.283 . S
O93 Eu79 2.363 . S
O94 C61 1.283 . S
O94 Eu66 2.363 1_655 S
O95 C59 1.283 . S
O95 Eu66 2.363 . S
O96 C55 1.283 . S
O96 Eu74 2.364 . S
O97 C57 1.283 . S
O97 Eu74 2.362 1_565 S
O98 C54 1.283 . S
O98 Eu73 2.362 . S
O99 C56 1.283 . S
O99 Eu73 2.364 1_565 S
O100 C65 1.283 . S
O100 Eu69 2.363 1_566 S
O101 C63 1.283 . S
O101 Eu69 2.363 . S
O102 C64 1.283 . S
O102 Eu70 2.363 1_556 S
O103 C62 1.283 . S
O103 Eu70 2.363 . S
C104 C105 1.387 1_455 S
C104 H108 0.950 . S
C104 C113 1.390 . S
C105 C104 1.387 1_655 S
C105 C107 1.387 . S
H106 C113 0.950 . S
C107 C105 1.387 . S
C107 C109 1.390 . S
C107 H111 0.950 . S
H108 C104 0.950 . S
C109 C107 1.390 . S
C109 C110 1.384 1_655 S
C109 H112 0.950 . S
C110 C109 1.384 1_455 S
C110 C113 1.391 . S
H111 C107 0.950 . S
H112 C109 0.950 . S
C113 C104 1.390 . S
C113 H106 0.950 . S
C113 C110 1.391 . S
C114 C115 1.387 . S
C114 H118 0.950 . S
C114 C123 1.390 . S
C115 C114 1.387 . S
C115 C117 1.387 1_545 S
H116 C123 0.950 . S
C117 C115 1.387 1_565 S
C117 C119 1.390 . S
C117 H121 0.950 . S
H118 C114 0.950 . S
C119 C117 1.390 . S
C119 C120 1.387 1_565 S
C119 H122 0.950 . S
C120 C119 1.387 1_545 S
C120 C123 1.387 . S
H121 C117 0.950 . S
H122 C119 0.950 . S
C123 C114 1.390 . S
C123 H116 0.950 . S
C123 C120 1.387 . S
C124 C125 1.387 . S
C124 H128 0.950 . S
C124 C133 1.390 . S
C125 C124 1.387 . S
C125 C127 1.387 1_455 S
H126 C133 0.950 . S
C127 C125 1.387 1_655 S
C127 C129 1.390 . S
C127 H131 0.950 . S
H128 C124 0.950 . S
C129 C127 1.390 . S
C129 C130 1.387 1_655 S
C129 H132 0.950 . S
C130 C129 1.387 1_455 S
C130 C133 1.387 . S
H131 C127 0.950 . S
H132 C129 0.950 . S
C133 C124 1.390 . S
C133 H126 0.950 . S
C133 C130 1.387 . S
C134 C135 1.387 . S
C134 H138 0.950 . S
C134 C143 1.390 . S
C135 C134 1.387 . S
C135 C137 1.387 1_565 S
H136 C143 0.950 . S
C137 C135 1.387 1_545 S
C137 C139 1.390 . S
C137 H141 0.950 . S
H138 C134 0.950 . S
C139 C137 1.390 . S
C139 C140 1.387 1_545 S
C139 H142 0.950 . S
C140 C139 1.387 1_565 S
C140 C143 1.387 . S
H141 C137 0.950 . S
H142 C139 0.950 . S
C143 C134 1.390 . S
C143 H136 0.950 . S
C143 C140 1.387 . S
C144 C145 1.387 1_455 S
C144 H148 0.950 . S
C144 C153 1.390 . S
C145 C144 1.387 1_655 S
C145 C147 1.387 . S
H146 C153 0.950 . S
C147 C145 1.387 . S
C147 C149 1.390 . S
C147 H151 0.950 . S
H148 C144 0.950 . S
C149 C147 1.390 . S
C149 C150 1.381 1_655 S
C149 H152 0.950 . S
C150 C149 1.381 1_455 S
C150 C153 1.394 . S
H151 C147 0.950 . S
H152 C149 0.950 . S
C153 C144 1.390 . S
C153 H146 0.950 . S
C153 C150 1.394 . S
C154 C155 1.387 . S
C154 H158 0.950 . S
C154 C163 1.390 . S
C155 C154 1.387 . S
C155 C157 1.387 1_545 S
H156 C163 0.950 . S
C157 C155 1.387 1_565 S
C157 C159 1.390 . S
C157 H161 0.950 . S
H158 C154 0.950 . S
C159 C157 1.390 . S
C159 C160 1.387 1_565 S
C159 H162 0.950 . S
C160 C159 1.387 1_545 S
C160 C163 1.387 . S
H161 C157 0.950 . S
H162 C159 0.950 . S
C163 C154 1.390 . S
C163 H156 0.950 . S
C163 C160 1.387 . S
C164 C165 1.387 1_655 S
C164 H168 0.950 . S
C164 C173 1.390 . S
C165 C164 1.387 1_455 S
C165 C167 1.387 . S
H166 C173 0.950 . S
C167 C165 1.387 . S
C167 C169 1.390 . S
C167 H171 0.950 . S
H168 C164 0.950 . S
C169 C167 1.390 . S
C169 C170 1.387 . S
C169 H172 0.950 . S
C170 C169 1.387 . S
C170 C173 1.387 1_455 S
H171 C167 0.950 . S
H172 C169 0.950 . S
C173 C164 1.390 . S
C173 H166 0.950 . S
C173 C170 1.387 1_655 S
C174 C175 1.387 1_545 S
C174 H178 0.950 . S
C174 C183 1.390 . S
C175 C174 1.387 1_565 S
C175 C177 1.387 . S
H176 C183 0.950 . S
C177 C175 1.387 . S
C177 C179 1.390 . S
C177 H181 0.950 . S
H178 C174 0.950 . S
C179 C177 1.390 . S
C179 C180 1.387 . S
C179 H182 0.950 . S
C180 C179 1.387 . S
C180 C183 1.387 1_565 S
H181 C177 0.950 . S
H182 C179 0.950 . S
C183 C174 1.390 . S
C183 H176 0.950 . S
C183 C180 1.387 1_545 S
C184 C185 1.387 . S
C184 H188 0.950 . S
C184 C193 1.390 . S
C185 C184 1.387 . S
C185 C187 1.387 1_554 S
H186 C193 0.950 . S
C187 C185 1.387 1_556 S
C187 C189 1.390 . S
C187 H191 0.950 . S
H188 C184 0.950 . S
C189 C187 1.390 . S
C189 C190 1.387 1_556 S
C189 H192 0.950 . S
C190 C189 1.387 1_554 S
C190 C193 1.387 . S
H191 C187 0.950 . S
H192 C189 0.950 . S
C193 C184 1.390 . S
C193 H186 0.950 . S
C193 C190 1.387 . S
C194 C195 1.387 . S
C194 H198 0.950 . S
C194 C203 1.390 . S
C195 C194 1.387 . S
C195 C197 1.387 1_556 S
H196 C203 0.950 . S
C197 C195 1.387 1_554 S
C197 C199 1.390 . S
C197 H201 0.950 . S
H198 C194 0.950 . S
C199 C197 1.390 . S
C199 C200 1.387 . S
C199 H202 0.950 . S
C200 C199 1.387 . S
C200 C203 1.387 1_554 S
H201 C197 0.950 . S
H202 C199 0.950 . S
C203 C194 1.390 . S
C203 H196 0.950 . S
C203 C200 1.387 1_556 S
C204 C205 1.387 . S
C204 H208 0.950 . S
C204 C213 1.390 . S
C205 C204 1.387 . S
C205 C207 1.387 1_556 S
H206 C213 0.950 . S
C207 C205 1.387 1_554 S
C207 C209 1.390 . S
C207 H211 0.950 . S
H208 C204 0.950 . S
C209 C207 1.390 . S
C209 C210 1.387 . S
C209 H212 0.950 . S
C210 C209 1.387 . S
C210 C213 1.387 1_554 S
H211 C207 0.950 . S
H212 C209 0.950 . S
C213 C204 1.390 . S
C213 H206 0.950 . S
C213 C210 1.387 1_556 S
C214 C215 1.387 1_556 S
C214 H218 0.950 . S
C214 C223 1.390 . S
C215 C214 1.387 1_554 S
C215 C217 1.387 . S
H216 C223 0.950 . S
C217 C215 1.387 . S
C217 C219 1.390 . S
C217 H221 0.950 . S
H218 C214 0.950 . S
C219 C217 1.390 . S
C219 C220 1.387 . S
C219 H222 0.950 . S
C220 C219 1.387 . S
C220 C223 1.387 1_554 S
H221 C217 0.950 . S
H222 C219 0.950 . S
C223 C214 1.390 . S
C223 H216 0.950 . S
C223 C220 1.387 1_556 S
C110 C55 1.833 . S
C105 C7 1.822 . S
C120 C62 1.304 . S
C115 C34 1.296 . S
C130 C57 1.833 . S
C125 C14 1.828 . S
C140 C63 1.305 1_565 S
C135 C32 1.302 . S
C145 C16 1.820 . S
C150 C56 1.833 . S
C160 C65 1.304 1_545 S
C155 C25 1.298 . S
C165 C8 1.823 . S
C170 C54 1.826 . S
C175 C26 1.298 . S
C180 C64 1.299 1_565 S
C185 C50 1.532 . S
C190 C59 1.548 . S
C195 C43 1.527 . S
C200 C58 1.550 . S
C210 C61 1.547 . S
C205 C52 1.523 1_556 S
C220 C60 1.543 . S
C215 C44 1.529 . S
