# Generated by pormake.
# Topology tsx, (6,3)-cn, num edge types: 1
# Building blocks:
#     Node 0, Type 0, BuildingBlock: JUFBIX_clean_sbu_0, # of connection points: 6
#     Node 1, Type 0, BuildingBlock: JUFBIX_clean_sbu_0, # of connection points: 6
#     Node 2, Type 1, BuildingBlock: CUQRIR_clean_linker_1, # of connection points: 3
#     Node 3, Type 1, BuildingBlock: CUQRIR_clean_linker_1, # of connection points: 3
#     Node 4, Type 1, BuildingBlock: CUQRIR_clean_linker_1, # of connection points: 3
#     Node 5, Type 1, BuildingBlock: CUQRIR_clean_linker_1, # of connection points: 3
#     Edge 6, Type (0, 1), BuildingBlock: EYOCIG_clean_linker_4, # of connection points: 2
#     Edge 7, Type (0, 1), BuildingBlock: EYOCIG_clean_linker_4, # of connection points: 2
#     Edge 8, Type (0, 1), BuildingBlock: EYOCIG_clean_linker_4, # of connection points: 2
#     Edge 9, Type (0, 1), BuildingBlock: EYOCIG_clean_linker_4, # of connection points: 2
#     Edge 10, Type (0, 1), BuildingBlock: EYOCIG_clean_linker_4, # of connection points: 2
#     Edge 11, Type (0, 1), BuildingBlock: EYOCIG_clean_linker_4, # of connection points: 2
#     Edge 12, Type (0, 1), BuildingBlock: EYOCIG_clean_linker_4, # of connection points: 2
#     Edge 13, Type (0, 1), BuildingBlock: EYOCIG_clean_linker_4, # of connection points: 2
#     Edge 14, Type (0, 1), BuildingBlock: EYOCIG_clean_linker_4, # of connection points: 2
#     Edge 15, Type (0, 1), BuildingBlock: EYOCIG_clean_linker_4, # of connection points: 2
#     Edge 16, Type (0, 1), BuildingBlock: EYOCIG_clean_linker_4, # of connection points: 2
#     Edge 17, Type (0, 1), BuildingBlock: EYOCIG_clean_linker_4, # of connection points: 2
# Relax obj value: 0.137
# Max RMSD: 0.163
# Mean RMSD: 0.148
data_MOF--net-tsx--node1-JUFBIX_clean_sbu_0--node2-CUQRIR_clean_linker_1--edge1-EYOCIG_clean_linker_4
_symmetry_space_group_name_H-M    P1
_symmetry_Int_Tables_number       1
_symmetry_cell_setting            triclinic
loop_
_symmetry_equiv_pos_as_xyz
'x, y, z'
_cell_length_a     15.241755
_cell_length_b     15.790486
_cell_length_c     25.521487
_cell_angle_alpha  79.301597
_cell_angle_beta   89.469797
_cell_angle_gamma 102.75257
loop_
_atom_site_label
_atom_site_type_symbol
_atom_site_fract_x
_atom_site_fract_y
_atom_site_fract_z
_atom_type_partial_charge
Co0 Co 0.12797 0.07279 -0.02432 0.0
C1 C 0.08635 0.1542 0.87594 0.0
Co2 Co 0.02354 0.15237 -0.02261 0.0
C3 C 0.19723 0.91625 0.96397 0.0
C4 C 0.30398 1.0296 -0.03564 0.0
N5 N 0.21327 1.00232 -0.0301 0.0
N6 N 0.27366 0.8899 0.955 0.0
C7 C 0.34099 0.96084 0.95531 0.0
H8 H 0.13085 0.87387 -0.03545 0.0
H9 H 0.34127 0.09608 -0.03502 0.0
C10 C 0.06449 1.06629 0.07615 0.0
N11 N 0.93707 0.21793 -0.0196 0.0
C12 C 0.87214 0.22825 0.9456 0.0
C13 C 0.92664 0.2676 0.01675 0.0
N14 N 0.82249 0.28251 0.95879 0.0
C15 C 0.85591 0.30752 0.00346 0.0
C16 C 0.94864 0.97784 -0.02239 0.0
O17 O 0.1216 1.04094 0.04995 0.0
O18 O 1.0165 0.11697 0.05276 0.0
O19 O 0.93157 1.05323 -0.02521 0.0
O20 O 0.03016 0.97094 -0.02505 0.0
O21 O 0.03264 0.18453 0.90171 0.0
H22 H 0.96849 0.27516 0.05034 0.0
H23 H 0.86208 0.19738 0.91096 0.0
O24 O 0.13329 0.10413 0.90053 0.0
O25 O 0.22177 0.18014 -0.02002 0.0
O26 O 0.11396 0.25226 -0.01773 0.0
C27 C 0.1966 0.25114 -0.0157 0.0
H28 H 0.41177 0.96348 0.94811 0.0
H29 H 0.83162 0.35212 0.02448 0.0
Co30 Co 0.62938 0.57514 0.4749 0.0
C31 C 0.5865 0.65596 0.37536 0.0
Co32 Co 0.52514 0.65476 0.47699 0.0
C33 C 0.69867 0.41945 0.46163 0.0
C34 C 0.80546 0.53146 0.46499 0.0
N35 N 0.71463 0.50482 0.46889 0.0
N36 N 0.77526 0.3929 0.45348 0.0
C37 C 0.84262 0.46298 0.45562 0.0
H38 H 0.6323 0.37774 0.46081 0.0
H39 H 0.84284 0.59727 0.46714 0.0
C40 C 0.56737 0.56946 0.57557 0.0
N41 N 0.43877 0.72031 0.48025 0.0
C42 C 0.37327 0.73014 0.44579 0.0
C43 C 0.42898 0.7705 0.51642 0.0
N44 N 0.32388 0.78459 0.45901 0.0
C45 C 0.35805 0.81023 0.50335 0.0
C46 C 0.44997 0.48002 0.47772 0.0
O47 O 0.62405 0.54385 0.5492 0.0
O48 O 0.51904 0.61988 0.55232 0.0
O49 O 0.43298 0.55545 0.47489 0.0
O50 O 0.53145 0.47308 0.4748 0.0
O51 O 0.53327 0.68648 0.40133 0.0
H52 H 0.4714 0.77853 0.54972 0.0
H53 H 0.36263 0.6988 0.41136 0.0
O54 O 0.63367 0.60594 0.39975 0.0
O55 O 0.72332 0.68252 0.4786 0.0
O56 O 0.61576 0.75479 0.48138 0.0
C57 C 0.69842 0.75357 0.48303 0.0
H58 H 0.91358 0.46519 0.4496 0.0
H59 H 0.33415 0.85515 0.52429 0.0
C60 C 0.96557 1.00263 0.40796 0.0
N61 N 0.98942 0.95858 0.3718 0.0
N62 N 0.90223 1.0479 0.38846 0.0
C63 C 0.01794 1.01146 0.45688 0.0
C64 C 0.89136 1.0302 0.33874 0.0
N65 N 0.94561 0.97758 0.32838 0.0
C66 C 0.83774 0.07501 0.29765 0.0
H67 H 0.99654 0.95004 0.48743 0.0
H68 H 1.01089 1.0686 0.47282 0.0
H69 H 0.09087 1.01947 0.44742 0.0
H70 H 0.87861 0.14163 0.27963 0.0
H71 H 0.77515 0.08342 0.31656 0.0
H72 H 0.82033 1.03644 0.26551 0.0
C73 C 1.00592 0.17969 0.53892 0.0
N74 N 0.06576 0.20584 0.5745 0.0
N75 N 0.93649 0.11314 0.56356 0.0
C76 C 1.00468 0.23689 0.48486 0.0
C77 C 0.95553 0.10443 0.61574 0.0
N78 N 0.0336 0.16063 0.62223 0.0
C79 C 0.9004 1.03704 0.66012 0.0
H80 H 0.94642 0.26766 0.4852 0.0
H81 H 1.00091 0.2006 0.45199 0.0
H82 H 0.06548 0.29171 0.476 0.0
H83 H 0.93216 0.97955 0.66952 0.0
H84 H 0.83057 1.01382 0.64834 0.0
H85 H 0.89865 1.06526 0.69673 0.0
C86 C 0.46391 0.49968 0.9085 0.0
N87 N 0.48916 0.45788 0.87152 0.0
N88 N 0.40118 0.54597 0.88915 0.0
C89 C 0.51413 0.50488 0.95854 0.0
C90 C 0.39221 0.53116 0.83871 0.0
N91 N 0.44684 0.47922 0.82784 0.0
C92 C 0.34003 0.57806 0.7977 0.0
H93 H 0.48987 0.44287 -0.01177 0.0
H94 H 0.50854 0.56182 -0.02489 0.0
H95 H 0.58706 0.51078 0.9503 0.0
H96 H 0.38133 0.64516 0.78116 0.0
H97 H 0.27674 0.58548 0.8163 0.0
H98 H 0.32396 0.54158 0.76451 0.0
C99 C 0.50463 0.67814 0.0384 0.0
N100 N 0.56385 0.70514 0.07408 0.0
N101 N 0.43425 0.61276 0.06321 0.0
C102 C 0.50621 0.73278 -0.01678 0.0
C103 C 0.45225 0.60565 0.11551 0.0
N104 N 0.53052 0.6616 0.12194 0.0
C105 C 0.39621 0.53955 0.16011 0.0
H106 H 0.45008 0.76674 -0.01811 0.0
H107 H 0.50112 0.69407 0.95151 0.0
H108 H 0.5688 0.78529 -0.02628 0.0
H109 H 0.42686 0.48138 0.16998 0.0
H110 H 0.32628 0.51712 0.14826 0.0
H111 H 0.39492 0.56857 0.19644 0.0
C112 C 0.29317 0.39897 0.00953 0.0
C113 C 0.25674 0.32863 -0.00229 0.0
C114 C 0.33421 0.47965 0.02652 0.0
C115 C 0.3812 0.54255 0.04187 0.0
C116 C 0.29765 0.73871 0.93459 0.0
C117 C 0.28267 0.80718 0.94424 0.0
C118 C 0.32852 0.66459 0.92255 0.0
C119 C 0.36409 0.60898 0.90956 0.0
C120 C 0.80826 0.85075 0.01699 0.0
C121 C 0.87733 0.9022 -0.00153 0.0
C122 C 0.72556 0.79919 0.04259 0.0
C123 C 0.65253 0.75556 0.06086 0.0
C124 C 0.691 0.33731 0.90847 0.0
C125 C 0.75201 0.31055 0.93066 0.0
C126 C 0.61944 0.37449 0.88735 0.0
C127 C 0.55892 0.41164 0.87624 0.0
C128 C 0.7958 0.90093 0.50831 0.0
C129 C 0.75893 0.83081 0.49642 0.0
C130 C 0.83701 0.98118 0.52568 0.0
C131 C 0.88373 1.04369 0.5415 0.0
C132 C 0.79978 0.24238 0.4324 0.0
C133 C 0.78455 0.31057 0.44228 0.0
C134 C 0.83077 0.16822 0.42062 0.0
C135 C 0.86585 0.11199 0.40811 0.0
C136 C 0.30963 0.35274 0.5171 0.0
C137 C 0.37862 0.40437 0.49859 0.0
C138 C 0.22704 0.30076 0.54265 0.0
C139 C 0.15424 0.25662 0.56099 0.0
C140 C 0.19169 0.83869 0.40909 0.0
C141 C 0.253 0.81227 0.43112 0.0
C142 C 0.11986 0.87548 0.38804 0.0
C143 C 0.05914 0.91232 0.37683 0.0
C144 C 0.02762 1.0016 0.17783 0.0
C145 C 0.04673 1.02957 0.13133 0.0
C146 C 0.99998 0.97841 0.23188 0.0
C147 C 0.97744 0.97578 0.27724 0.0
C148 C 0.09399 0.18099 0.77102 0.0
C149 C 0.08911 0.16993 0.81893 0.0
C150 C 0.08784 0.18274 0.71592 0.0
C151 C 0.06771 0.17664 0.67114 0.0
C152 C 0.53143 0.50582 0.67739 0.0
C153 C 0.5503 0.53319 0.63083 0.0
C154 C 0.50326 0.48263 0.73135 0.0
C155 C 0.47963 0.47893 0.77666 0.0
C156 C 0.59247 0.68244 0.27047 0.0
C157 C 0.58843 0.67144 0.31838 0.0
C158 C 0.58542 0.68405 0.21545 0.0
C159 C 0.56493 0.67767 0.17077 0.0
loop_
_geom_bond_atom_site_label_1
_geom_bond_atom_site_label_2
_geom_bond_distance
_geom_bond_site_symmetry_2
_ccdc_geom_bond_type
Co0 N5 2.057 . S
Co0 O17 2.021 . S
Co0 O20 2.062 1_455 S
Co0 O24 2.117 1_564 S
Co0 O25 2.020 1_565 S
C1 O21 1.259 1_455 S
C1 O24 1.258 . S
Co2 N11 2.057 . S
Co2 O18 2.117 . S
Co2 O19 2.020 1_545 S
Co2 O21 2.021 1_554 S
Co2 O26 2.062 1_654 S
C3 N5 1.316 . S
C3 N6 1.347 . S
C3 H8 0.931 . S
C4 N5 1.375 1_556 S
C4 C7 1.350 . S
C4 H9 0.930 . S
N5 Co0 2.057 . S
N5 C3 1.316 . S
N5 C4 1.375 1_554 S
N6 C3 1.347 . S
N6 C7 1.373 1_554 S
C7 C4 1.350 . S
C7 N6 1.373 1_556 S
C7 H28 0.931 . S
H8 C3 0.931 . S
H9 C4 0.930 . S
C10 O17 1.259 1_545 S
C10 O18 1.258 1_455 S
N11 Co2 2.057 . S
N11 C12 1.316 1_554 S
N11 C13 1.375 . S
C12 N11 1.316 1_556 S
C12 N14 1.347 1_556 S
C12 H23 0.931 . S
C13 N11 1.375 . S
C13 C15 1.350 . S
C13 H22 0.930 . S
N14 C12 1.347 1_554 S
N14 C15 1.373 . S
C15 C13 1.350 . S
C15 N14 1.373 . S
C15 H29 0.931 . S
C16 O19 1.256 . S
C16 O20 1.255 . S
O17 Co0 2.021 . S
O17 C10 1.259 1_565 S
O18 Co2 2.117 . S
O18 C10 1.258 1_655 S
O19 Co2 2.020 1_565 S
O19 C16 1.256 . S
O20 Co0 2.062 1_655 S
O20 C16 1.255 . S
O21 C1 1.259 1_655 S
O21 Co2 2.021 1_556 S
H22 C13 0.930 . S
H23 C12 0.931 . S
O24 Co0 2.117 1_546 S
O24 C1 1.258 . S
O25 Co0 2.020 1_545 S
O25 C27 1.256 . S
O26 Co2 2.062 1_456 S
O26 C27 1.255 1_556 S
C27 O25 1.256 . S
C27 O26 1.255 1_554 S
H28 C7 0.931 . S
H29 C15 0.931 . S
Co30 N35 2.057 . S
Co30 O47 2.021 . S
Co30 O50 2.062 . S
Co30 O54 2.117 . S
Co30 O55 2.020 . S
C31 O51 1.259 . S
C31 O54 1.258 . S
Co32 N41 2.057 . S
Co32 O48 2.117 . S
Co32 O49 2.020 . S
Co32 O51 2.021 . S
Co32 O56 2.062 . S
C33 N35 1.316 . S
C33 N36 1.347 . S
C33 H38 0.931 . S
C34 N35 1.375 . S
C34 C37 1.350 . S
C34 H39 0.930 . S
N35 Co30 2.057 . S
N35 C33 1.316 . S
N35 C34 1.375 . S
N36 C33 1.347 . S
N36 C37 1.373 . S
C37 C34 1.350 . S
C37 N36 1.373 . S
C37 H58 0.931 . S
H38 C33 0.931 . S
H39 C34 0.930 . S
C40 O47 1.259 . S
C40 O48 1.258 . S
N41 Co32 2.057 . S
N41 C42 1.316 . S
N41 C43 1.375 . S
C42 N41 1.316 . S
C42 N44 1.347 . S
C42 H53 0.931 . S
C43 N41 1.375 . S
C43 C45 1.350 . S
C43 H52 0.930 . S
N44 C42 1.347 . S
N44 C45 1.373 . S
C45 C43 1.350 . S
C45 N44 1.373 . S
C45 H59 0.931 . S
C46 O49 1.256 . S
C46 O50 1.255 . S
O47 Co30 2.021 . S
O47 C40 1.259 . S
O48 Co32 2.117 . S
O48 C40 1.258 . S
O49 Co32 2.020 . S
O49 C46 1.256 . S
O50 Co30 2.062 . S
O50 C46 1.255 . S
O51 C31 1.259 . S
O51 Co32 2.021 . S
H52 C43 0.930 . S
H53 C42 0.931 . S
O54 Co30 2.117 . S
O54 C31 1.258 . S
O55 Co30 2.020 . S
O55 C57 1.256 . S
O56 Co32 2.062 . S
O56 C57 1.255 . S
C57 O55 1.256 . S
C57 O56 1.255 . S
H58 C37 0.931 . S
H59 C45 0.931 . S
C60 N61 1.317 1_545 S
C60 N62 1.348 1_455 S
C60 C63 1.485 1_545 S
N61 C60 1.317 1_565 S
N61 N65 1.370 1_565 S
N62 C60 1.348 1_655 S
N62 C64 1.346 . S
C63 C60 1.485 1_565 S
C63 H67 0.960 1_455 S
C63 H68 0.961 1_565 S
C63 H69 0.960 . S
C64 N62 1.346 . S
C64 N65 1.308 1_655 S
C64 C66 1.486 . S
N65 N61 1.370 1_545 S
N65 C64 1.308 1_455 S
C66 C64 1.486 . S
C66 H70 0.960 . S
C66 H71 0.960 . S
C66 H72 0.959 . S
H67 C63 0.960 1_655 S
H68 C63 0.961 1_545 S
H69 C63 0.960 . S
H70 C66 0.960 . S
H71 C66 0.960 . S
H72 C66 0.959 . S
C73 N74 1.317 . S
C73 N75 1.348 1_445 S
C73 C76 1.485 . S
N74 C73 1.317 . S
N74 N78 1.370 . S
N75 C73 1.348 1_665 S
N75 C77 1.346 . S
C76 C73 1.485 . S
C76 H80 0.960 1_455 S
C76 H81 0.961 . S
C76 H82 0.960 . S
C77 N75 1.346 . S
C77 N78 1.307 1_665 S
C77 C79 1.486 . S
N78 N74 1.370 . S
N78 C77 1.307 1_445 S
C79 C77 1.486 . S
C79 H83 0.960 . S
C79 H84 0.960 . S
C79 H85 0.959 . S
H80 C76 0.960 1_655 S
H81 C76 0.961 . S
H82 C76 0.960 . S
H83 C79 0.960 . S
H84 C79 0.960 . S
H85 C79 0.959 . S
C86 N87 1.317 . S
C86 N88 1.348 . S
C86 C89 1.485 1_556 S
N87 C86 1.317 . S
N87 N91 1.370 . S
N88 C86 1.348 . S
N88 C90 1.346 . S
C89 C86 1.485 1_554 S
C89 H93 0.960 . S
C89 H94 0.961 . S
C89 H95 0.960 . S
C90 N88 1.346 . S
C90 N91 1.307 . S
C90 C92 1.486 . S
N91 N87 1.370 . S
N91 C90 1.307 . S
C92 C90 1.486 . S
C92 H96 0.960 . S
C92 H97 0.960 . S
C92 H98 0.959 . S
H93 C89 0.960 . S
H94 C89 0.961 . S
H95 C89 0.960 . S
H96 C92 0.960 . S
H97 C92 0.960 . S
H98 C92 0.959 . S
C99 N100 1.317 . S
C99 N101 1.348 . S
C99 C102 1.485 1_554 S
N100 C99 1.317 . S
N100 N104 1.370 . S
N101 C99 1.348 . S
N101 C103 1.346 . S
C102 C99 1.485 1_556 S
C102 H106 0.960 . S
C102 H107 0.961 . S
C102 H108 0.960 . S
C103 N101 1.346 . S
C103 N104 1.307 . S
C103 C105 1.486 . S
N104 N100 1.370 . S
N104 C103 1.307 . S
C105 C103 1.486 . S
C105 H109 0.960 . S
C105 H110 0.960 . S
C105 H111 0.959 . S
H106 C102 0.960 . S
H107 C102 0.961 . S
H108 C102 0.960 . S
H109 C105 0.960 . S
H110 C105 0.960 . S
H111 C105 0.959 . S
C112 C113 1.170 . S
C112 C114 1.380 . S
C113 C112 1.170 . S
C114 C112 1.380 . S
C114 C115 1.170 . S
C115 C114 1.170 . S
C116 C117 1.170 . S
C116 C118 1.381 . S
C117 C116 1.170 . S
C118 C116 1.381 . S
C118 C119 1.169 1_554 S
C119 C118 1.169 1_556 S
C120 C121 1.170 . S
C120 C122 1.380 . S
C121 C120 1.170 . S
C122 C120 1.380 . S
C122 C123 1.170 . S
C123 C122 1.170 . S
C124 C125 1.170 . S
C124 C126 1.380 . S
C125 C124 1.170 . S
C126 C124 1.380 . S
C126 C127 1.170 . S
C127 C126 1.170 . S
C128 C129 1.170 . S
C128 C130 1.380 . S
C129 C128 1.170 . S
C130 C128 1.380 . S
C130 C131 1.170 . S
C131 C130 1.170 . S
C132 C133 1.170 . S
C132 C134 1.380 . S
C133 C132 1.170 . S
C134 C132 1.380 . S
C134 C135 1.170 . S
C135 C134 1.170 . S
C136 C137 1.170 . S
C136 C138 1.380 . S
C137 C136 1.170 . S
C138 C136 1.380 . S
C138 C139 1.170 . S
C139 C138 1.170 . S
C140 C141 1.170 . S
C140 C142 1.380 . S
C141 C140 1.170 . S
C142 C140 1.380 . S
C142 C143 1.170 . S
C143 C142 1.170 . S
C144 C145 1.170 . S
C144 C146 1.380 . S
C145 C144 1.170 . S
C146 C144 1.380 . S
C146 C147 1.170 . S
C147 C146 1.170 . S
C148 C149 1.170 . S
C148 C150 1.380 . S
C149 C148 1.170 . S
C150 C148 1.380 . S
C150 C151 1.170 . S
C151 C150 1.170 . S
C152 C153 1.170 . S
C152 C154 1.380 . S
C153 C152 1.170 . S
C154 C152 1.380 . S
C154 C155 1.170 . S
C155 C154 1.170 . S
C156 C157 1.170 . S
C156 C158 1.380 . S
C157 C156 1.170 . S
C158 C156 1.380 . S
C158 C159 1.170 . S
C159 C158 1.170 . S
C115 N101 1.429 . S
C113 C27 1.442 . S
C117 N6 1.372 . S
C119 N88 1.446 . S
C121 C16 1.497 . S
C123 N100 1.486 . S
C125 N14 1.439 1_556 S
C127 N87 1.459 . S
C129 C57 1.451 . S
C131 N75 1.422 . S
C133 N36 1.367 . S
C135 N62 1.444 . S
C139 N74 1.488 . S
C137 C46 1.497 . S
C143 N61 1.468 . S
C141 N44 1.418 . S
C145 C10 1.472 1_565 S
C147 N65 1.450 1_565 S
C149 C1 1.555 . S
C151 N78 1.535 . S
C155 N91 1.454 . S
C153 C40 1.465 . S
C157 C31 1.554 . S
C159 N104 1.534 . S
