# Generated by pormake.
# Topology tsx, (6,3)-cn, num edge types: 1
# Building blocks:
#     Node 0, Type 0, BuildingBlock: LEVNOQ01_clean_sbu_1, # of connection points: 6
#     Node 1, Type 0, BuildingBlock: LEVNOQ01_clean_sbu_1, # of connection points: 6
#     Node 2, Type 1, BuildingBlock: CUQRIR_clean_linker_1, # of connection points: 3
#     Node 3, Type 1, BuildingBlock: CUQRIR_clean_linker_1, # of connection points: 3
#     Node 4, Type 1, BuildingBlock: CUQRIR_clean_linker_1, # of connection points: 3
#     Node 5, Type 1, BuildingBlock: CUQRIR_clean_linker_1, # of connection points: 3
#     Edge 6, Type (0, 1), BuildingBlock: AJUNOK_clean_linker_0, # of connection points: 2
#     Edge 7, Type (0, 1), BuildingBlock: AJUNOK_clean_linker_0, # of connection points: 2
#     Edge 8, Type (0, 1), BuildingBlock: AJUNOK_clean_linker_0, # of connection points: 2
#     Edge 9, Type (0, 1), BuildingBlock: AJUNOK_clean_linker_0, # of connection points: 2
#     Edge 10, Type (0, 1), BuildingBlock: AJUNOK_clean_linker_0, # of connection points: 2
#     Edge 11, Type (0, 1), BuildingBlock: AJUNOK_clean_linker_0, # of connection points: 2
#     Edge 12, Type (0, 1), BuildingBlock: AJUNOK_clean_linker_0, # of connection points: 2
#     Edge 13, Type (0, 1), BuildingBlock: AJUNOK_clean_linker_0, # of connection points: 2
#     Edge 14, Type (0, 1), BuildingBlock: AJUNOK_clean_linker_0, # of connection points: 2
#     Edge 15, Type (0, 1), BuildingBlock: AJUNOK_clean_linker_0, # of connection points: 2
#     Edge 16, Type (0, 1), BuildingBlock: AJUNOK_clean_linker_0, # of connection points: 2
#     Edge 17, Type (0, 1), BuildingBlock: AJUNOK_clean_linker_0, # of connection points: 2
# Relax obj value: 0.164
# Max RMSD: 0.172
# Mean RMSD: 0.160
data_MOF--net-tsx--node1-LEVNOQ01_clean_sbu_1--node2-CUQRIR_clean_linker_1--edge1-AJUNOK_clean_linker_0
_symmetry_space_group_name_H-M    P1
_symmetry_Int_Tables_number       1
_symmetry_cell_setting            triclinic
loop_
_symmetry_equiv_pos_as_xyz
'x, y, z'
_cell_length_a     12.269011
_cell_length_b     13.900848
_cell_length_c     25.407406
_cell_angle_alpha  86.721413
_cell_angle_beta   91.636011
_cell_angle_gamma 91.238529
loop_
_atom_site_label
_atom_site_type_symbol
_atom_site_fract_x
_atom_site_fract_y
_atom_site_fract_z
_atom_type_partial_charge
O0 O 0.20883 1.0377 0.05358 0.0
Mg1 Mg 0.24134 0.11707 -0.01896 0.0
O2 O 0.03265 0.06044 0.04189 0.0
Mg3 Mg 0.05353 0.08904 -0.04767 0.0
O4 O 0.15152 0.23782 -0.03277 0.0
O5 O 0.32615 0.23683 -0.00286 0.0
O6 O 0.09112 0.12261 0.86276 0.0
O7 O 0.90727 0.18903 0.93986 0.0
Mg8 Mg 0.92372 0.98894 0.86824 0.0
O9 O 0.93498 0.96093 -0.05337 0.0
O10 O 0.07711 0.97887 0.83266 0.0
O11 O 0.85029 0.12918 0.86347 0.0
O12 O 0.83678 0.86598 0.89574 0.0
C13 C 0.26959 0.97105 0.92431 0.0
C14 C 0.1133 1.03338 0.07157 0.0
C15 C 0.23903 0.28308 -0.01643 0.0
C16 C 0.11424 0.06437 0.82792 0.0
C17 C 0.84821 0.19361 0.89734 0.0
C18 C 0.86817 0.88864 0.94233 0.0
O19 O 0.31597 0.05238 0.91874 0.0
O20 O 0.1824 0.96453 -0.04966 0.0
O21 O 0.67997 0.5136 0.55847 0.0
Mg22 Mg 0.71938 0.60855 0.49346 0.0
O23 O 0.51046 0.55317 0.54244 0.0
Mg24 Mg 0.54663 0.58601 0.45339 0.0
O25 O 0.63954 0.73331 0.47281 0.0
O26 O 0.78367 0.72224 0.52932 0.0
O27 O 0.59031 0.62282 0.36509 0.0
O28 O 0.40317 0.68935 0.43862 0.0
Mg29 Mg 0.40951 0.48843 0.36473 0.0
O30 O 0.43238 0.45941 0.44238 0.0
O31 O 0.56472 0.48355 0.32999 0.0
O32 O 0.33556 0.63033 0.36388 0.0
O33 O 0.33074 0.36184 0.39577 0.0
C34 C 0.77975 0.47943 0.43161 0.0
C35 C 0.5832 0.51639 0.57372 0.0
C36 C 0.70982 0.77278 0.50461 0.0
C37 C 0.60909 0.56663 0.32856 0.0
C38 C 0.34088 0.69618 0.39717 0.0
C39 C 0.36648 0.38634 0.44123 0.0
O40 O 0.82323 0.56115 0.43714 0.0
O41 O 0.68347 0.46436 0.44871 0.0
C42 C 0.09415 0.11934 0.36368 0.0
N43 N 0.11725 0.04753 0.33189 0.0
N44 N 0.01474 0.17583 0.34133 0.0
C45 C 0.14574 0.13236 0.41716 0.0
C46 C 0.99199 0.13765 0.29459 0.0
N47 N 0.05306 0.05894 0.28895 0.0
C48 C 0.9177 0.18373 0.25259 0.0
H49 H 0.16094 0.06179 0.43841 0.0
H50 H 0.09468 0.17601 0.44123 0.0
H51 H 0.22472 0.17138 0.41208 0.0
H52 H 0.90119 0.25945 0.26072 0.0
H53 H 0.83892 0.14316 0.25171 0.0
H54 H 0.95411 0.18268 0.21317 0.0
C55 C 0.97322 0.17817 0.54917 0.0
N56 N 0.06672 0.19464 0.5774 0.0
N57 N 0.9234 0.0949 0.56634 0.0
C58 C 0.92259 0.24993 0.51013 0.0
C59 C 0.98955 0.06155 0.6066 0.0
N60 N 0.07585 0.12258 0.61379 0.0
C61 C 0.96891 0.96939 0.6396 0.0
H62 H 0.84659 0.22048 0.49222 0.0
H63 H 0.98108 0.27301 0.47946 0.0
H64 H 0.90199 0.31507 0.53077 0.0
H65 H 0.91854 0.9167 0.61811 0.0
H66 H 0.92669 0.98657 0.67585 0.0
H67 H 0.04567 0.93296 0.65129 0.0
C68 C 0.55471 0.59076 0.86533 0.0
N69 N 0.57757 0.51709 0.8351 0.0
N70 N 0.46653 0.63835 0.84529 0.0
C71 C 0.62826 0.62353 0.90973 0.0
C72 C 0.43872 0.59314 0.80108 0.0
N73 N 0.50734 0.52009 0.79396 0.0
C74 C 0.3552 0.62968 0.76036 0.0
H75 H 0.59657 0.59723 -0.0517 0.0
H76 H 0.63409 0.70305 0.9095 0.0
H77 H 0.71155 0.59519 0.90661 0.0
H78 H 0.39554 0.64983 0.72266 0.0
H79 H 0.31184 0.69334 0.77277 0.0
H80 H 0.29474 0.57129 0.75275 0.0
C81 C 0.46959 0.68891 0.04984 0.0
N82 N 0.56142 0.70531 0.07913 0.0
N83 N 0.4166 0.60696 0.0669 0.0
C84 C 0.43217 0.75313 0.00404 0.0
C85 C 0.48042 0.57396 0.10823 0.0
N86 N 0.56787 0.63362 0.11571 0.0
C87 C 0.45879 0.48151 0.14074 0.0
H88 H 0.43794 0.82959 0.01418 0.0
H89 H 0.34659 0.7353 -0.00706 0.0
H90 H 0.4862 0.74425 -0.02932 0.0
H91 H 0.4214 0.42544 0.1163 0.0
H92 H 0.40239 0.49605 0.17256 0.0
H93 H 0.53394 0.45131 0.15928 0.0
C94 C 0.31226 0.44662 -0.03618 0.0
C95 C 0.23978 0.38644 -0.0074 0.0
C96 C 0.36028 0.52763 -0.01393 0.0
C97 C 0.33757 0.55071 0.03771 0.0
H98 H 0.3408 0.42525 0.92634 0.0
H99 H 0.42324 0.5665 -0.03527 0.0
S100 S 0.12691 0.43286 0.12216 0.0
N101 N 0.1289 0.36651 0.07024 0.0
N102 N 0.21621 0.52196 0.11102 0.0
C103 C 0.25116 0.50068 0.06289 0.0
C104 C 0.2031 0.41726 0.04057 0.0
C105 C 0.42324 0.8913 0.88265 0.0
C106 C 0.31665 0.88576 0.90206 0.0
C107 C 0.47178 0.81045 0.86358 0.0
C108 C 0.41607 0.7213 0.86417 0.0
H109 H 0.47028 0.95813 0.8828 0.0
H110 H 0.55347 0.81731 0.8486 0.0
S111 S 0.13276 0.66984 0.90505 0.0
N112 N 0.15374 0.7849 0.91585 0.0
N113 N 0.24731 0.6328 0.88109 0.0
C114 C 0.30838 0.71547 0.88106 0.0
C115 C 0.25805 0.79779 0.89981 0.0
C116 C 0.80688 0.74419 -0.00313 0.0
C117 C 0.81103 0.84483 -0.01171 0.0
C118 C 0.73166 0.69944 0.03143 0.0
C119 C 0.65617 0.75369 0.05725 0.0
H120 H 0.85776 0.69961 -0.02551 0.0
H121 H 0.72604 0.62146 0.03462 0.0
S122 S 0.63783 1.01934 0.05041 0.0
N123 N 0.73851 0.99791 0.0111 0.0
N124 N 0.59487 0.91289 0.07486 0.0
C125 C 0.66364 0.85439 0.05137 0.0
C126 C 0.7417 0.90024 0.01704 0.0
C127 C 0.79038 0.32555 0.83375 0.0
C128 C 0.78156 0.27849 0.88388 0.0
C129 C 0.72531 0.4041 0.81809 0.0
C130 C 0.64599 0.43648 0.85135 0.0
H131 H 0.84883 0.30166 0.8065 0.0
H132 H 0.73925 0.43941 0.78005 0.0
S133 S 0.58607 0.33212 -0.01426 0.0
N134 N 0.68787 0.26775 -0.0333 0.0
N135 N 0.55963 0.4112 0.93627 0.0
C136 C 0.63545 0.38832 0.90149 0.0
C137 C 0.70449 0.31034 0.91802 0.0
C138 C 0.69544 0.91678 0.5564 0.0
C139 C 0.71791 0.87727 0.50829 0.0
C140 C 0.75161 0.99988 0.57212 0.0
C141 C 0.83571 0.04175 0.5414 0.0
H142 H 0.64351 0.87759 0.58437 0.0
H143 H 0.74005 1.02338 0.61144 0.0
S144 S 0.90497 0.97531 0.40754 0.0
N145 N 0.80928 0.89659 0.42563 0.0
N146 N 0.92283 0.04742 0.45667 0.0
C147 C 0.84723 1.01013 0.49032 0.0
C148 C 0.78636 0.92852 0.47352 0.0
C149 C 0.78974 0.3133 0.39808 0.0
C150 C 0.8403 0.40316 0.40681 0.0
C151 C 0.84744 0.23918 0.37679 0.0
C152 C 0.95744 0.2523 0.36361 0.0
H153 H 0.70568 0.29937 0.40856 0.0
H154 H 0.80631 0.1708 0.37098 0.0
S155 S 0.12035 0.47829 0.36773 0.0
N156 N 1.00331 0.50409 0.39345 0.0
N157 N 0.10954 0.3642 0.35303 0.0
C158 C 0.00688 0.34271 0.36902 0.0
C159 C 0.94876 0.41836 0.39063 0.0
C160 C 0.22733 0.39543 0.50951 0.0
C161 C 0.31321 0.34508 0.48885 0.0
C162 C 0.15135 0.34807 0.5429 0.0
C163 C 0.15906 0.24897 0.55653 0.0
H164 H 0.21369 0.46986 0.49641 0.0
H165 H 0.08223 0.38744 0.55521 0.0
S166 S 0.3781 0.08884 0.51877 0.0
N167 N 0.40856 0.19428 0.48887 0.0
N168 N 0.26656 0.1052 0.55176 0.0
C169 C 0.25046 0.20047 0.54003 0.0
C170 C 0.32715 0.24847 0.50586 0.0
C171 C 0.17654 0.78493 0.36162 0.0
C172 C 0.28321 0.78727 0.3834 0.0
C173 C 0.12407 0.87016 0.34397 0.0
C174 C 0.17666 0.96079 0.34676 0.0
H175 H 0.13319 0.71671 0.35836 0.0
H176 H 0.04106 0.86539 0.32856 0.0
S177 S 0.46267 1.00445 0.39166 0.0
N178 N 0.44336 0.88697 0.40198 0.0
N179 N 0.34595 0.04636 0.36682 0.0
C180 C 0.28493 0.96376 0.36624 0.0
C181 C 0.33775 0.87722 0.38517 0.0
C182 C 0.19012 1.03181 0.16319 0.0
C183 C 0.10091 1.0127 0.12886 0.0
C184 C 0.17637 1.03578 0.21741 0.0
C185 C 0.07355 1.01962 0.23917 0.0
H186 H 0.26935 0.05197 0.14781 0.0
H187 H 0.24408 0.06068 0.24169 0.0
S188 S 0.82223 0.93839 0.16934 0.0
N189 N 0.91146 0.95822 0.12219 0.0
N190 N 0.88738 0.96248 0.22504 0.0
C191 C 0.98752 0.98734 0.20665 0.0
C192 C 1.00062 0.98515 0.15111 0.0
C193 C 0.19659 1.03647 0.7418 0.0
C194 C 0.14935 0.10063 0.77507 0.0
C195 C 0.19041 0.05292 0.68683 0.0
C196 C 0.13196 0.13107 0.66391 0.0
H197 H 0.22907 0.96887 0.75804 0.0
H198 H 0.21884 0.99803 0.66225 0.0
S199 S 0.02937 0.33636 0.73326 0.0
N200 N 0.07281 0.25975 0.78101 0.0
N201 N 0.05334 0.28582 0.67762 0.0
C202 C 0.10171 0.20343 0.69653 0.0
C203 C 0.11171 0.18892 0.75243 0.0
C204 C 0.63892 0.55225 0.66433 0.0
C205 C 0.56624 0.50372 0.63078 0.0
C206 C 0.62267 0.55133 0.71837 0.0
C207 C 0.53627 0.49828 0.74158 0.0
H208 H 0.7058 0.59583 0.64831 0.0
H209 H 0.67528 0.59605 0.74223 0.0
S210 S 0.32703 0.354 0.67149 0.0
N211 N 0.40592 0.39927 0.62415 0.0
N212 N 0.37861 0.39345 0.72732 0.0
C213 C 0.46532 0.44601 0.70887 0.0
C214 C 0.47972 0.44953 0.65308 0.0
C215 C 0.5925 0.69048 0.25503 0.0
C216 C 0.64327 0.60682 0.27656 0.0
C217 C 0.58188 0.70762 0.20028 0.0
C218 C 0.62274 0.64231 0.16595 0.0
H219 H 0.5485 0.73593 0.28005 0.0
H220 H 0.52964 0.76502 0.18483 0.0
S221 S 0.79452 0.43281 0.2028 0.0
N222 N 0.75723 0.47163 0.25978 0.0
N223 N 0.7409 0.50736 0.15656 0.0
C224 C 0.69074 0.56932 0.18696 0.0
C225 C 0.69953 0.5502 0.24262 0.0
loop_
_geom_bond_atom_site_label_1
_geom_bond_atom_site_label_2
_geom_bond_distance
_geom_bond_site_symmetry_2
_ccdc_geom_bond_type
O0 Mg1 1.990 . S
O0 C14 1.253 . S
Mg1 O0 1.990 . S
Mg1 O4 2.180 . S
Mg1 O5 2.117 . S
Mg1 O19 2.030 1_545 S
O2 Mg3 2.072 1_554 S
O2 C14 1.260 . S
Mg3 O2 2.072 1_556 S
Mg3 O4 2.099 1_556 S
Mg3 O6 2.079 . S
Mg3 O7 2.072 1_456 S
Mg3 O9 2.099 1_445 S
Mg3 O20 2.079 1_545 S
O4 Mg1 2.180 . S
O4 Mg3 2.099 1_554 S
O4 C15 1.279 . S
O5 Mg1 2.117 . S
O5 C15 1.250 . S
O6 Mg3 2.079 . S
O6 C16 1.264 . S
O7 Mg3 2.072 1_654 S
O7 C17 1.260 1_554 S
Mg8 O9 2.180 1_545 S
Mg8 O10 2.030 . S
Mg8 O11 1.990 . S
Mg8 O12 2.117 1_545 S
O9 Mg3 2.099 1_665 S
O9 Mg8 2.180 1_565 S
O9 C18 1.279 1_556 S
O10 Mg8 2.030 . S
O10 C16 1.248 1_655 S
O11 Mg8 1.990 . S
O11 C17 1.253 . S
O12 Mg8 2.117 1_565 S
O12 C18 1.250 1_556 S
C13 O19 1.248 . S
C13 O20 1.264 1_554 S
C14 O0 1.253 . S
C14 O2 1.260 . S
C15 O4 1.279 . S
C15 O5 1.250 . S
C16 O6 1.264 . S
C16 O10 1.248 1_455 S
C17 O7 1.260 1_556 S
C17 O11 1.253 . S
C18 O9 1.279 1_554 S
C18 O12 1.250 1_554 S
O19 Mg1 2.030 1_565 S
O19 C13 1.248 . S
O20 Mg3 2.079 1_565 S
O20 C13 1.264 1_556 S
O21 Mg22 1.990 . S
O21 C35 1.253 . S
Mg22 O21 1.990 . S
Mg22 O25 2.180 . S
Mg22 O26 2.117 . S
Mg22 O40 2.030 . S
O23 Mg24 2.072 . S
O23 C35 1.260 . S
Mg24 O23 2.072 . S
Mg24 O25 2.099 . S
Mg24 O27 2.079 . S
Mg24 O28 2.072 . S
Mg24 O30 2.099 . S
Mg24 O41 2.079 . S
O25 Mg22 2.180 . S
O25 Mg24 2.099 . S
O25 C36 1.279 . S
O26 Mg22 2.117 . S
O26 C36 1.250 . S
O27 Mg24 2.079 . S
O27 C37 1.264 . S
O28 Mg24 2.072 . S
O28 C38 1.260 . S
Mg29 O30 2.180 . S
Mg29 O31 2.030 . S
Mg29 O32 1.990 . S
Mg29 O33 2.117 . S
O30 Mg24 2.099 . S
O30 Mg29 2.180 . S
O30 C39 1.279 . S
O31 Mg29 2.030 . S
O31 C37 1.248 . S
O32 Mg29 1.990 . S
O32 C38 1.253 . S
O33 Mg29 2.117 . S
O33 C39 1.250 . S
C34 O40 1.248 . S
C34 O41 1.264 . S
C35 O21 1.253 . S
C35 O23 1.260 . S
C36 O25 1.279 . S
C36 O26 1.250 . S
C37 O27 1.264 . S
C37 O31 1.248 . S
C38 O28 1.260 . S
C38 O32 1.253 . S
C39 O30 1.279 . S
C39 O33 1.250 . S
O40 Mg22 2.030 . S
O40 C34 1.248 . S
O41 Mg24 2.079 . S
O41 C34 1.264 . S
C42 N43 1.317 1_545 S
C42 N44 1.348 1_455 S
C42 C45 1.485 1_545 S
N43 C42 1.317 1_565 S
N43 N47 1.370 1_565 S
N44 C42 1.348 1_655 S
N44 C46 1.346 . S
C45 C42 1.485 1_565 S
C45 H49 0.960 . S
C45 H50 0.961 1_565 S
C45 H51 0.960 . S
C46 N44 1.346 . S
C46 N47 1.307 1_655 S
C46 C48 1.486 . S
N47 N43 1.370 1_545 S
N47 C46 1.307 1_455 S
C48 C46 1.486 . S
C48 H52 0.960 . S
C48 H53 0.960 . S
C48 H54 0.959 . S
H49 C45 0.960 . S
H50 C45 0.961 1_545 S
H51 C45 0.960 . S
H52 C48 0.960 . S
H53 C48 0.960 . S
H54 C48 0.959 . S
C55 N56 1.317 . S
C55 N57 1.348 1_455 S
C55 C58 1.485 . S
N56 C55 1.317 . S
N56 N60 1.370 . S
N57 C55 1.348 1_655 S
N57 C59 1.346 . S
C58 C55 1.485 . S
C58 H62 0.960 1_455 S
C58 H63 0.961 . S
C58 H64 0.960 . S
C59 N57 1.346 . S
C59 N60 1.307 1_655 S
C59 C61 1.486 1_545 S
N60 N56 1.370 . S
N60 C59 1.307 1_455 S
C61 C59 1.486 1_565 S
C61 H65 0.960 . S
C61 H66 0.960 . S
C61 H67 0.959 1_565 S
H62 C58 0.960 1_655 S
H63 C58 0.961 . S
H64 C58 0.960 . S
H65 C61 0.960 . S
H66 C61 0.960 . S
H67 C61 0.959 1_545 S
C68 N69 1.317 . S
C68 N70 1.348 . S
C68 C71 1.485 1_556 S
N69 C68 1.317 . S
N69 N73 1.370 . S
N70 C68 1.348 . S
N70 C72 1.346 . S
C71 C68 1.485 1_554 S
C71 H75 0.960 . S
C71 H76 0.961 . S
C71 H77 0.960 . S
C72 N70 1.346 . S
C72 N73 1.307 . S
C72 C74 1.486 . S
N73 N69 1.370 . S
N73 C72 1.307 . S
C74 C72 1.486 . S
C74 H78 0.960 . S
C74 H79 0.960 . S
C74 H80 0.959 . S
H75 C71 0.960 . S
H76 C71 0.961 . S
H77 C71 0.960 . S
H78 C74 0.960 . S
H79 C74 0.960 . S
H80 C74 0.959 . S
C81 N82 1.317 . S
C81 N83 1.348 . S
C81 C84 1.485 1_554 S
N82 C81 1.317 . S
N82 N86 1.370 . S
N83 C81 1.348 . S
N83 C85 1.346 . S
C84 C81 1.485 1_556 S
C84 H88 0.960 . S
C84 H89 0.961 . S
C84 H90 0.960 . S
C85 N83 1.346 . S
C85 N86 1.307 . S
C85 C87 1.486 . S
N86 N82 1.370 . S
N86 C85 1.307 . S
C87 C85 1.486 . S
C87 H91 0.960 . S
C87 H92 0.960 . S
C87 H93 0.959 . S
H88 C84 0.960 . S
H89 C84 0.961 . S
H90 C84 0.960 . S
H91 C87 0.960 . S
H92 C87 0.960 . S
H93 C87 0.959 . S
C94 C95 1.369 1_556 S
C94 C96 1.419 . S
C94 H98 0.930 . S
C95 C94 1.369 1_554 S
C95 C104 1.429 . S
C96 C94 1.419 . S
C96 C97 1.363 1_556 S
C96 H99 0.929 . S
C97 C96 1.363 1_554 S
C97 C103 1.428 . S
H98 C94 0.930 . S
H99 C96 0.929 . S
S100 N101 1.613 . S
S100 N102 1.610 . S
N101 S100 1.613 . S
N101 C104 1.350 . S
N102 S100 1.610 . S
N102 C103 1.351 . S
C103 C97 1.428 . S
C103 N102 1.351 . S
C103 C104 1.434 . S
C104 C95 1.429 . S
C104 N101 1.350 . S
C104 C103 1.434 . S
C105 C106 1.369 1_556 S
C105 C107 1.419 . S
C105 H109 0.930 . S
C106 C105 1.369 1_554 S
C106 C115 1.429 . S
C107 C105 1.419 . S
C107 C108 1.363 . S
C107 H110 0.929 . S
C108 C107 1.363 . S
C108 C114 1.428 1_556 S
H109 C105 0.930 . S
H110 C107 0.929 . S
S111 N112 1.613 . S
S111 N113 1.610 . S
N112 S111 1.613 . S
N112 C115 1.350 . S
N113 S111 1.610 . S
N113 C114 1.351 . S
C114 C108 1.428 1_554 S
C114 N113 1.351 . S
C114 C115 1.434 . S
C115 C106 1.429 . S
C115 N112 1.350 . S
C115 C114 1.434 . S
C116 C117 1.369 . S
C116 C118 1.419 . S
C116 H120 0.930 . S
C117 C116 1.369 . S
C117 C126 1.429 . S
C118 C116 1.419 . S
C118 C119 1.363 . S
C118 H121 0.929 . S
C119 C118 1.363 . S
C119 C125 1.428 . S
H120 C116 0.930 . S
H121 C118 0.929 . S
S122 N123 1.613 . S
S122 N124 1.610 . S
N123 S122 1.613 . S
N123 C126 1.350 . S
N124 S122 1.610 . S
N124 C125 1.351 . S
C125 C119 1.428 . S
C125 N124 1.351 . S
C125 C126 1.434 . S
C126 C117 1.429 . S
C126 N123 1.350 . S
C126 C125 1.434 . S
C127 C128 1.369 . S
C127 C129 1.419 . S
C127 H131 0.930 . S
C128 C127 1.369 . S
C128 C137 1.429 1_556 S
C129 C127 1.419 . S
C129 C130 1.363 . S
C129 H132 0.929 . S
C130 C129 1.363 . S
C130 C136 1.428 1_556 S
H131 C127 0.930 . S
H132 C129 0.929 . S
S133 N134 1.613 . S
S133 N135 1.610 . S
N134 S133 1.613 . S
N134 C137 1.350 . S
N135 S133 1.610 . S
N135 C136 1.351 . S
C136 C130 1.428 1_554 S
C136 N135 1.351 . S
C136 C137 1.434 . S
C137 C128 1.429 1_554 S
C137 N134 1.350 . S
C137 C136 1.434 . S
C138 C139 1.369 . S
C138 C140 1.419 . S
C138 H142 0.930 . S
C139 C138 1.369 . S
C139 C148 1.429 . S
C140 C138 1.419 . S
C140 C141 1.363 . S
C140 H143 0.929 . S
C141 C140 1.363 . S
C141 C147 1.428 . S
H142 C138 0.930 . S
H143 C140 0.929 . S
S144 N145 1.613 1_455 S
S144 N146 1.610 . S
N145 S144 1.613 1_655 S
N145 C148 1.350 . S
N146 S144 1.610 . S
N146 C147 1.351 1_455 S
C147 C141 1.428 . S
C147 N146 1.351 1_655 S
C147 C148 1.434 . S
C148 C139 1.429 . S
C148 N145 1.350 . S
C148 C147 1.434 . S
C149 C150 1.369 . S
C149 C151 1.419 . S
C149 H153 0.930 . S
C150 C149 1.369 . S
C150 C159 1.429 . S
C151 C149 1.419 . S
C151 C152 1.363 . S
C151 H154 0.929 . S
C152 C151 1.363 . S
C152 C158 1.428 . S
H153 C149 0.930 . S
H154 C151 0.929 . S
S155 N156 1.613 1_455 S
S155 N157 1.610 . S
N156 S155 1.613 1_655 S
N156 C159 1.350 . S
N157 S155 1.610 . S
N157 C158 1.351 1_455 S
C158 C152 1.428 . S
C158 N157 1.351 1_655 S
C158 C159 1.434 . S
C159 C150 1.429 . S
C159 N156 1.350 . S
C159 C158 1.434 . S
C160 C161 1.369 . S
C160 C162 1.419 . S
C160 H164 0.930 . S
C161 C160 1.369 . S
C161 C170 1.429 . S
C162 C160 1.419 . S
C162 C163 1.363 . S
C162 H165 0.929 . S
C163 C162 1.363 . S
C163 C169 1.428 . S
H164 C160 0.930 . S
H165 C162 0.929 . S
S166 N167 1.613 . S
S166 N168 1.610 . S
N167 S166 1.613 . S
N167 C170 1.350 . S
N168 S166 1.610 . S
N168 C169 1.351 . S
C169 C163 1.428 . S
C169 N168 1.351 . S
C169 C170 1.434 . S
C170 C161 1.429 . S
C170 N167 1.350 . S
C170 C169 1.434 . S
C171 C172 1.369 . S
C171 C173 1.419 . S
C171 H175 0.930 . S
C172 C171 1.369 . S
C172 C181 1.429 . S
C173 C171 1.419 . S
C173 C174 1.363 . S
C173 H176 0.929 . S
C174 C173 1.363 . S
C174 C180 1.428 . S
H175 C171 0.930 . S
H176 C173 0.929 . S
S177 N178 1.613 . S
S177 N179 1.610 . S
N178 S177 1.613 . S
N178 C181 1.350 . S
N179 S177 1.610 . S
N179 C180 1.351 . S
C180 C174 1.428 . S
C180 N179 1.351 . S
C180 C181 1.434 . S
C181 C172 1.429 . S
C181 N178 1.350 . S
C181 C180 1.434 . S
C182 C183 1.372 . S
C182 C184 1.419 . S
C182 H186 0.930 . S
C183 C182 1.372 . S
C183 C192 1.425 1_465 S
C184 C182 1.419 . S
C184 C185 1.363 . S
C184 H187 0.929 . S
C185 C184 1.363 . S
C185 C191 1.428 1_465 S
H186 C182 0.930 . S
H187 C184 0.929 . S
S188 N189 1.613 . S
S188 N190 1.610 . S
N189 S188 1.613 . S
N189 C192 1.350 . S
N190 S188 1.610 . S
N190 C191 1.351 . S
C191 C185 1.428 1_645 S
C191 N190 1.351 . S
C191 C192 1.434 . S
C192 C183 1.425 1_645 S
C192 N189 1.350 . S
C192 C191 1.434 . S
C193 C194 1.369 1_655 S
C193 C195 1.419 . S
C193 H197 0.930 1_545 S
C194 C193 1.369 1_455 S
C194 C203 1.429 . S
C195 C193 1.419 . S
C195 C196 1.363 1_655 S
C195 H198 0.929 . S
C196 C195 1.363 1_455 S
C196 C202 1.428 . S
H197 C193 0.930 1_565 S
H198 C195 0.929 . S
S199 N200 1.613 . S
S199 N201 1.610 . S
N200 S199 1.613 . S
N200 C203 1.350 . S
N201 S199 1.610 . S
N201 C202 1.351 . S
C202 C196 1.428 . S
C202 N201 1.351 . S
C202 C203 1.434 . S
C203 C194 1.429 . S
C203 N200 1.350 . S
C203 C202 1.434 . S
C204 C205 1.369 . S
C204 C206 1.419 . S
C204 H208 0.930 . S
C205 C204 1.369 . S
C205 C214 1.429 . S
C206 C204 1.419 . S
C206 C207 1.363 . S
C206 H209 0.929 . S
C207 C206 1.363 . S
C207 C213 1.428 . S
H208 C204 0.930 . S
H209 C206 0.929 . S
S210 N211 1.613 . S
S210 N212 1.610 . S
N211 S210 1.613 . S
N211 C214 1.350 . S
N212 S210 1.610 . S
N212 C213 1.351 . S
C213 C207 1.428 . S
C213 N212 1.351 . S
C213 C214 1.434 . S
C214 C205 1.429 . S
C214 N211 1.350 . S
C214 C213 1.434 . S
C215 C216 1.369 . S
C215 C217 1.419 . S
C215 H219 0.930 . S
C216 C215 1.369 . S
C216 C225 1.429 . S
C217 C215 1.419 . S
C217 C218 1.363 . S
C217 H220 0.929 . S
C218 C217 1.363 . S
C218 C224 1.428 . S
H219 C215 0.930 . S
H220 C217 0.929 . S
S221 N222 1.613 . S
S221 N223 1.610 . S
N222 S221 1.613 . S
N222 C225 1.350 . S
N223 S221 1.610 . S
N223 C224 1.351 . S
C224 C218 1.428 . S
C224 N223 1.351 . S
C224 C225 1.434 . S
C225 C216 1.429 . S
C225 N222 1.350 . S
C225 C224 1.434 . S
C97 N83 1.438 . S
C95 C15 1.288 . S
C106 C13 1.492 . S
C108 N70 1.480 . S
C117 C18 1.293 . S
C119 N82 1.535 . S
C128 C17 1.411 . S
C130 N69 1.496 . S
C139 C36 1.280 . S
C141 N57 1.435 1_565 S
C150 C34 1.491 . S
C152 N44 1.476 . S
C163 N56 1.532 . S
C161 C39 1.297 . S
C174 N43 1.493 . S
C172 C38 1.421 . S
C183 C14 1.539 1_565 S
C185 N47 1.575 1_565 S
C194 C16 1.422 . S
C196 N60 1.454 . S
C207 N73 1.577 . S
C205 C35 1.544 . S
C216 C37 1.424 . S
C218 N86 1.452 . S
