# Generated by pormake.
# Topology llj, (12,3)-cn, num edge types: 1
# Building blocks:
#     Node 0, Type 0, BuildingBlock: QEWDON_clean_sbu_0, # of connection points: 12
#     Node 1, Type 0, BuildingBlock: QEWDON_clean_sbu_0, # of connection points: 12
#     Node 2, Type 1, BuildingBlock: ESEHIV_clean_linker_0, # of connection points: 3
#     Node 3, Type 1, BuildingBlock: ESEHIV_clean_linker_0, # of connection points: 3
#     Node 4, Type 1, BuildingBlock: ESEHIV_clean_linker_0, # of connection points: 3
#     Node 5, Type 1, BuildingBlock: ESEHIV_clean_linker_0, # of connection points: 3
#     Node 6, Type 1, BuildingBlock: ESEHIV_clean_linker_0, # of connection points: 3
#     Node 7, Type 1, BuildingBlock: ESEHIV_clean_linker_0, # of connection points: 3
#     Node 8, Type 1, BuildingBlock: ESEHIV_clean_linker_0, # of connection points: 3
#     Node 9, Type 1, BuildingBlock: ESEHIV_clean_linker_0, # of connection points: 3
#     Edge 10, Type (0, 1), None
#     Edge 11, Type (0, 1), None
#     Edge 12, Type (0, 1), None
#     Edge 13, Type (0, 1), None
#     Edge 14, Type (0, 1), None
#     Edge 15, Type (0, 1), None
#     Edge 16, Type (0, 1), None
#     Edge 17, Type (0, 1), None
#     Edge 18, Type (0, 1), None
#     Edge 19, Type (0, 1), None
#     Edge 20, Type (0, 1), None
#     Edge 21, Type (0, 1), None
#     Edge 22, Type (0, 1), None
#     Edge 23, Type (0, 1), None
#     Edge 24, Type (0, 1), None
#     Edge 25, Type (0, 1), None
#     Edge 26, Type (0, 1), None
#     Edge 27, Type (0, 1), None
#     Edge 28, Type (0, 1), None
#     Edge 29, Type (0, 1), None
#     Edge 30, Type (0, 1), None
#     Edge 31, Type (0, 1), None
#     Edge 32, Type (0, 1), None
#     Edge 33, Type (0, 1), None
# Relax obj value: 0.010
# Max RMSD: 0.072
# Mean RMSD: 0.064
data_MOF--net-llj--node1-QEWDON_clean_sbu_0--node2-ESEHIV_clean_linker_0--edge1-none
_symmetry_space_group_name_H-M    P1
_symmetry_Int_Tables_number       1
_symmetry_cell_setting            triclinic
loop_
_symmetry_equiv_pos_as_xyz
'x, y, z'
_cell_length_a     17.70479
_cell_length_b     17.712913
_cell_length_c     11.488954
_cell_angle_alpha  89.997802
_cell_angle_beta   90.005921
_cell_angle_gamma 89.955248
loop_
_atom_site_label
_atom_site_type_symbol
_atom_site_fract_x
_atom_site_fract_y
_atom_site_fract_z
_atom_type_partial_charge
Zn0 Zn 0.88309 0.14583 0.87862 0.0
Zn1 Zn 0.87843 0.14462 0.15408 0.0
O2 O 0.94655 0.12362 0.01979 0.0
H3 H 0.9863 0.08642 0.01813 0.0
C4 C 0.80688 0.00722 0.72274 0.0
O5 O 0.78444 0.03663 0.82186 0.0
Zn6 Zn 0.10449 0.83749 0.15397 0.0
Zn7 Zn 0.09986 0.83621 0.87846 0.0
O8 O 0.03644 0.85853 0.01958 0.0
H9 H -0.00341 0.89563 0.01872 0.0
Zn10 Zn 0.83621 0.88255 0.87851 0.0
O11 O 0.85824 0.94605 0.01956 0.0
Zn12 Zn 0.83751 0.87802 0.15399 0.0
H13 H 0.89524 0.98594 0.01774 0.0
Zn14 Zn 0.14668 0.09959 0.87826 0.0
O15 O 0.1245 0.03631 0.01944 0.0
H16 H 0.08809 -0.00412 0.01727 0.0
Zn17 Zn 0.14534 0.10416 0.15399 0.0
C18 C 0.17603 0.97486 0.72261 0.0
O19 O 0.19845 0.94546 0.82176 0.0
O20 O 0.80379 0.22751 0.9122 0.0
O21 O 0.80126 0.22505 0.10618 0.0
O22 O 0.17915 0.75454 0.91218 0.0
O23 O 0.18166 0.75704 0.10616 0.0
O24 O 0.75474 0.8032 0.91226 0.0
O25 O 0.75725 0.80075 0.10625 0.0
C26 C 0.01194 0.17006 0.29046 0.0
O27 O 0.22815 0.17891 0.91214 0.0
O28 O 0.2256 0.18143 0.10614 0.0
O29 O 0.04241 0.83199 0.7219 0.0
C30 C 0.77871 0.25237 0.00889 0.0
O31 O 0.94055 0.15002 0.72206 0.0
C32 C 0.97093 0.81206 0.29032 0.0
O33 O 0.83189 0.93997 0.72193 0.0
C34 C 0.20422 0.7297 0.00891 0.0
O35 O 0.15103 0.04211 0.72176 0.0
C36 C 0.81211 0.01148 0.29037 0.0
O37 O 0.94072 0.1795 0.29036 0.0
O38 O 0.04356 0.14755 0.19725 0.0
C39 C 0.72997 0.77813 0.009 0.0
O40 O 0.04216 0.80262 0.29022 0.0
O41 O 0.93931 0.83459 0.19713 0.0
C42 C 0.17084 0.97061 0.29024 0.0
O43 O 0.80252 0.94033 0.29021 0.0
O44 O 0.83481 0.04302 0.19724 0.0
C45 C 0.2529 0.20401 0.00888 0.0
O46 O 0.18041 0.04177 0.29011 0.0
O47 O 0.14812 0.93908 0.19712 0.0
C48 C 0.97522 0.80686 0.7227 0.0
O49 O 0.9459 0.7843 0.82181 0.0
C50 C 0.0077 0.17525 0.72284 0.0
O51 O 0.03698 0.19791 0.82192 0.0
Zn52 Zn 0.38309 0.64583 0.37862 0.0
Zn53 Zn 0.37843 0.64462 0.65408 0.0
O54 O 0.44656 0.62362 0.51978 0.0
H55 H 0.4863 0.58642 0.51813 0.0
C56 C 0.30688 0.50722 0.22274 0.0
O57 O 0.28444 0.53663 0.32186 0.0
Zn58 Zn 0.60449 0.33749 0.65397 0.0
Zn59 Zn 0.59986 0.3362 0.37846 0.0
O60 O 0.53644 0.35853 0.51958 0.0
H61 H 0.49659 0.39563 0.51872 0.0
Zn62 Zn 0.33621 0.38256 0.37851 0.0
O63 O 0.35824 0.44605 0.51956 0.0
Zn64 Zn 0.33751 0.37802 0.65399 0.0
H65 H 0.39524 0.48594 0.51774 0.0
Zn66 Zn 0.64668 0.59959 0.37826 0.0
O67 O 0.62451 0.5363 0.51944 0.0
H68 H 0.58809 0.49588 0.51727 0.0
Zn69 Zn 0.64535 0.60416 0.65399 0.0
C70 C 0.67603 0.47486 0.22261 0.0
O71 O 0.69845 0.44545 0.32176 0.0
O72 O 0.30379 0.72751 0.4122 0.0
O73 O 0.30127 0.72506 0.60618 0.0
O74 O 0.67915 0.25453 0.41218 0.0
O75 O 0.68165 0.25703 0.60616 0.0
O76 O 0.25474 0.3032 0.41226 0.0
O77 O 0.25725 0.30076 0.60625 0.0
C78 C 0.51195 0.67006 0.79046 0.0
O79 O 0.72816 0.67891 0.41214 0.0
O80 O 0.72561 0.68143 0.60614 0.0
O81 O 0.54241 0.33198 0.2219 0.0
C82 C 0.27871 0.75237 0.50889 0.0
O83 O 0.44055 0.65002 0.22206 0.0
C84 C 0.47093 0.31206 0.79032 0.0
O85 O 0.33189 0.43997 0.22193 0.0
C86 C 0.70422 0.2297 0.50891 0.0
O87 O 0.65103 0.54211 0.22176 0.0
C88 C 0.31211 0.51149 0.79037 0.0
O89 O 0.44072 0.6795 0.79036 0.0
O90 O 0.54356 0.64755 0.69725 0.0
C91 C 0.22997 0.27814 0.509 0.0
O92 O 0.54215 0.30262 0.79022 0.0
O93 O 0.43931 0.33459 0.69713 0.0
C94 C 0.67084 0.4706 0.79024 0.0
O95 O 0.30252 0.44033 0.79021 0.0
O96 O 0.33481 0.54302 0.69724 0.0
C97 C 0.75291 0.70401 0.50888 0.0
O98 O 0.68041 0.54176 0.79011 0.0
O99 O 0.64812 0.43908 0.69712 0.0
C100 C 0.47521 0.30686 0.2227 0.0
O101 O 0.4459 0.28431 0.32181 0.0
C102 C 0.5077 0.67525 0.22284 0.0
O103 O 0.53698 0.69791 0.32192 0.0
H104 H 0.52326 0.33925 0.00487 0.0
H105 H 0.33414 0.25084 0.19511 0.0
H106 H 0.32892 0.25849 0.81997 0.0
C107 C 0.46646 0.31638 0.0061 0.0
C108 C 0.42911 0.30255 0.90044 0.0
C109 C 0.43246 0.29841 0.11276 0.0
C110 C 0.35968 0.267 0.11312 0.0
C111 C 0.32181 0.25158 0.00815 0.0
C112 C 0.35624 0.27171 0.90187 0.0
H113 H 0.64373 0.52298 0.00476 0.0
H114 H 0.73192 0.33369 0.19507 0.0
H115 H 0.72433 0.32851 0.81991 0.0
C116 C 0.66655 0.46614 0.006 0.0
C117 C 0.68036 0.42878 0.90035 0.0
C118 C 0.68447 0.43211 0.11268 0.0
C119 C 0.7158 0.35927 0.11306 0.0
C120 C 0.73121 0.32138 0.0081 0.0
C121 C 0.71113 0.35585 0.9018 0.0
H122 H 0.45964 0.64284 0.005 0.0
H123 H 0.65395 0.72364 0.8201 0.0
H124 H 0.64876 0.73131 0.19524 0.0
C125 C 0.51644 0.66572 0.00623 0.0
C126 C 0.55044 0.6837 0.11289 0.0
C127 C 0.55377 0.67956 0.90057 0.0
C128 C 0.62664 0.71041 0.902 0.0
C129 C 0.66108 0.73056 0.00828 0.0
C130 C 0.62322 0.71513 0.11325 0.0
H131 H 0.3392 0.45909 0.00491 0.0
H132 H 0.25098 0.64838 0.19514 0.0
H133 H 0.25864 0.65357 0.82 0.0
C134 C 0.31638 0.51593 0.00613 0.0
C135 C 0.3026 0.5533 0.90048 0.0
C136 C 0.29845 0.54997 0.11279 0.0
C137 C 0.26712 0.62281 0.11314 0.0
C138 C 0.25173 0.6607 0.00818 0.0
C139 C 0.27183 0.62623 0.9019 0.0
H140 H 0.02327 0.83925 0.50487 0.0
H141 H 0.83414 0.75083 0.69511 0.0
H142 H 0.82892 0.75848 0.31997 0.0
C143 C 0.96646 0.81638 0.5061 0.0
C144 C 0.92912 0.80255 0.40044 0.0
C145 C 0.93247 0.79841 0.61276 0.0
C146 C 0.85968 0.767 0.61312 0.0
C147 C 0.82181 0.75158 0.50815 0.0
C148 C 0.85624 0.77171 0.40187 0.0
H149 H 0.14373 0.02298 0.50476 0.0
H150 H 0.23192 0.8337 0.69507 0.0
H151 H 0.22434 0.82851 0.31991 0.0
C152 C 0.16655 0.96614 0.506 0.0
C153 C 0.18036 0.92878 0.40035 0.0
C154 C 0.18447 0.93211 0.61268 0.0
C155 C 0.2158 0.85927 0.61306 0.0
C156 C 0.23121 0.82138 0.5081 0.0
C157 C 0.21113 0.85586 0.4018 0.0
H158 H 0.95964 0.14284 0.505 0.0
H159 H 0.15395 0.22364 0.3201 0.0
H160 H 0.14875 0.23131 0.69524 0.0
C161 C 0.01644 0.16572 0.50623 0.0
C162 C 0.05044 0.1837 0.61289 0.0
C163 C 0.05377 0.17956 0.40057 0.0
C164 C 0.12664 0.21041 0.402 0.0
C165 C 0.16107 0.23056 0.50828 0.0
C166 C 0.12321 0.21514 0.61325 0.0
H167 H 0.8392 0.95909 0.50491 0.0
H168 H 0.75098 0.14838 0.69514 0.0
H169 H 0.75864 0.15357 0.32 0.0
C170 C 0.81638 0.01593 0.50613 0.0
C171 C 0.8026 0.0533 0.40048 0.0
C172 C 0.79845 0.04996 0.61279 0.0
C173 C 0.76711 0.1228 0.61315 0.0
C174 C 0.75173 0.16069 0.50818 0.0
C175 C 0.77183 0.12622 0.4019 0.0
loop_
_geom_bond_atom_site_label_1
_geom_bond_atom_site_label_2
_geom_bond_distance
_geom_bond_site_symmetry_2
_ccdc_geom_bond_type
Zn0 O2 1.933 1_556 S
Zn0 O20 1.985 . S
Zn0 O31 1.955 . S
Zn1 O2 1.911 . S
Zn1 O21 1.970 . S
Zn1 O37 1.945 . S
Zn1 O44 1.981 . S
O2 Zn0 1.933 1_554 S
O2 Zn1 1.911 . S
O2 H3 0.841 1_655 S
H3 O2 0.841 1_455 S
C4 O5 1.246 . S
C4 O33 1.276 1_545 S
O5 C4 1.246 . S
Zn6 O8 1.911 . S
Zn6 O23 1.970 . S
Zn6 O40 1.945 . S
Zn6 O47 1.981 . S
Zn7 O8 1.933 1_556 S
Zn7 O22 1.985 . S
Zn7 O29 1.955 . S
O8 Zn6 1.911 . S
O8 Zn7 1.933 1_554 S
O8 H9 0.841 1_455 S
H9 O8 0.841 1_655 S
Zn10 O11 1.933 1_556 S
Zn10 O24 1.985 . S
Zn10 O33 1.955 . S
O11 Zn10 1.933 1_554 S
O11 Zn12 1.911 . S
O11 H13 0.841 1_565 S
Zn12 O11 1.911 . S
Zn12 O25 1.970 . S
Zn12 O41 1.981 . S
Zn12 O43 1.945 . S
H13 O11 0.841 1_545 S
Zn14 O15 1.933 1_556 S
Zn14 O27 1.985 . S
Zn14 O35 1.955 . S
O15 Zn14 1.933 1_554 S
O15 H16 0.841 1_545 S
O15 Zn17 1.911 . S
H16 O15 0.841 1_565 S
Zn17 O15 1.911 . S
Zn17 O28 1.970 . S
Zn17 O38 1.981 . S
Zn17 O46 1.945 . S
C18 O19 1.246 . S
C18 O35 1.276 1_565 S
O19 C18 1.246 . S
O20 Zn0 1.985 . S
O20 C30 1.245 1_556 S
O21 Zn1 1.970 . S
O21 C30 1.263 . S
O22 Zn7 1.985 . S
O22 C34 1.245 1_556 S
O23 Zn6 1.970 . S
O23 C34 1.263 . S
O24 Zn10 1.985 . S
O24 C39 1.245 1_556 S
O25 Zn12 1.970 . S
O25 C39 1.263 . S
C26 O37 1.262 1_455 S
C26 O38 1.245 . S
O27 Zn14 1.985 . S
O27 C45 1.245 1_556 S
O28 Zn17 1.970 . S
O28 C45 1.263 . S
O29 Zn7 1.955 . S
O29 C48 1.276 1_455 S
C30 O20 1.245 1_554 S
C30 O21 1.263 . S
O31 Zn0 1.955 . S
O31 C50 1.276 1_655 S
C32 O40 1.262 1_655 S
C32 O41 1.245 . S
O33 C4 1.276 1_565 S
O33 Zn10 1.955 . S
C34 O22 1.245 1_554 S
C34 O23 1.263 . S
O35 Zn14 1.955 . S
O35 C18 1.276 1_545 S
C36 O43 1.262 1_545 S
C36 O44 1.245 . S
O37 Zn1 1.945 . S
O37 C26 1.262 1_655 S
O38 Zn17 1.981 . S
O38 C26 1.245 . S
C39 O24 1.245 1_554 S
C39 O25 1.263 . S
O40 Zn6 1.945 . S
O40 C32 1.262 1_455 S
O41 Zn12 1.981 . S
O41 C32 1.245 . S
C42 O46 1.262 1_565 S
C42 O47 1.245 . S
O43 Zn12 1.945 . S
O43 C36 1.262 1_565 S
O44 Zn1 1.981 . S
O44 C36 1.245 . S
C45 O27 1.245 1_554 S
C45 O28 1.263 . S
O46 Zn17 1.945 . S
O46 C42 1.262 1_545 S
O47 Zn6 1.981 . S
O47 C42 1.245 . S
C48 O29 1.276 1_655 S
C48 O49 1.246 . S
O49 C48 1.246 . S
C50 O31 1.276 1_455 S
C50 O51 1.246 . S
O51 C50 1.246 . S
Zn52 O54 1.933 . S
Zn52 O72 1.985 . S
Zn52 O83 1.955 . S
Zn53 O54 1.911 . S
Zn53 O73 1.970 . S
Zn53 O89 1.945 . S
Zn53 O96 1.981 . S
O54 Zn52 1.933 . S
O54 Zn53 1.911 . S
O54 H55 0.841 . S
H55 O54 0.841 . S
C56 O57 1.246 . S
C56 O85 1.276 . S
O57 C56 1.246 . S
Zn58 O60 1.911 . S
Zn58 O75 1.970 . S
Zn58 O92 1.945 . S
Zn58 O99 1.981 . S
Zn59 O60 1.933 . S
Zn59 O74 1.985 . S
Zn59 O81 1.955 . S
O60 Zn58 1.911 . S
O60 Zn59 1.933 . S
O60 H61 0.841 . S
H61 O60 0.841 . S
Zn62 O63 1.933 . S
Zn62 O76 1.985 . S
Zn62 O85 1.955 . S
O63 Zn62 1.933 . S
O63 Zn64 1.911 . S
O63 H65 0.841 . S
Zn64 O63 1.911 . S
Zn64 O77 1.970 . S
Zn64 O93 1.981 . S
Zn64 O95 1.945 . S
H65 O63 0.841 . S
Zn66 O67 1.933 . S
Zn66 O79 1.985 . S
Zn66 O87 1.955 . S
O67 Zn66 1.933 . S
O67 H68 0.841 . S
O67 Zn69 1.911 . S
H68 O67 0.841 . S
Zn69 O67 1.911 . S
Zn69 O80 1.970 . S
Zn69 O90 1.981 . S
Zn69 O98 1.945 . S
C70 O71 1.246 . S
C70 O87 1.276 . S
O71 C70 1.246 . S
O72 Zn52 1.985 . S
O72 C82 1.245 . S
O73 Zn53 1.970 . S
O73 C82 1.263 . S
O74 Zn59 1.985 . S
O74 C86 1.245 . S
O75 Zn58 1.970 . S
O75 C86 1.263 . S
O76 Zn62 1.985 . S
O76 C91 1.245 . S
O77 Zn64 1.970 . S
O77 C91 1.263 . S
C78 O89 1.262 . S
C78 O90 1.245 . S
O79 Zn66 1.985 . S
O79 C97 1.245 . S
O80 Zn69 1.970 . S
O80 C97 1.263 . S
O81 Zn59 1.955 . S
O81 C100 1.276 . S
C82 O72 1.245 . S
C82 O73 1.263 . S
O83 Zn52 1.955 . S
O83 C102 1.276 . S
C84 O92 1.262 . S
C84 O93 1.245 . S
O85 C56 1.276 . S
O85 Zn62 1.955 . S
C86 O74 1.245 . S
C86 O75 1.263 . S
O87 Zn66 1.955 . S
O87 C70 1.276 . S
C88 O95 1.262 . S
C88 O96 1.245 . S
O89 Zn53 1.945 . S
O89 C78 1.262 . S
O90 Zn69 1.981 . S
O90 C78 1.245 . S
C91 O76 1.245 . S
C91 O77 1.263 . S
O92 Zn58 1.945 . S
O92 C84 1.262 . S
O93 Zn64 1.981 . S
O93 C84 1.245 . S
C94 O98 1.262 . S
C94 O99 1.245 . S
O95 Zn64 1.945 . S
O95 C88 1.262 . S
O96 Zn53 1.981 . S
O96 C88 1.245 . S
C97 O79 1.245 . S
C97 O80 1.263 . S
O98 Zn69 1.945 . S
O98 C94 1.262 . S
O99 Zn58 1.981 . S
O99 C94 1.245 . S
C100 O81 1.276 . S
C100 O101 1.246 . S
O101 C100 1.246 . S
C102 O83 1.276 . S
C102 O103 1.246 . S
O103 C102 1.246 . S
H104 C107 0.931 . S
H105 C110 0.928 . S
H106 C112 0.930 . S
C107 H104 0.931 . S
C107 C108 1.413 1_554 S
C107 C109 1.360 . S
C108 C107 1.413 1_556 S
C108 C112 1.429 . S
C109 C107 1.360 . S
C109 C110 1.372 . S
C110 H105 0.928 . S
C110 C109 1.372 . S
C110 C111 1.404 . S
C111 C110 1.404 . S
C111 C112 1.391 1_554 S
C112 H106 0.930 . S
C112 C108 1.429 . S
C112 C111 1.391 1_556 S
H113 C116 0.931 . S
H114 C119 0.928 . S
H115 C121 0.930 . S
C116 H113 0.931 . S
C116 C117 1.413 1_554 S
C116 C118 1.360 . S
C117 C116 1.413 1_556 S
C117 C121 1.429 . S
C118 C116 1.360 . S
C118 C119 1.372 . S
C119 H114 0.928 . S
C119 C118 1.372 . S
C119 C120 1.404 . S
C120 C119 1.404 . S
C120 C121 1.391 1_554 S
C121 H115 0.930 . S
C121 C117 1.429 . S
C121 C120 1.391 1_556 S
H122 C125 0.931 . S
H123 C128 0.928 . S
H124 C130 0.930 . S
C125 H122 0.931 . S
C125 C126 1.413 . S
C125 C127 1.360 1_554 S
C126 C125 1.413 . S
C126 C130 1.429 . S
C127 C125 1.360 1_556 S
C127 C128 1.372 . S
C128 H123 0.928 . S
C128 C127 1.372 . S
C128 C129 1.404 1_556 S
C129 C128 1.404 1_554 S
C129 C130 1.391 . S
C130 H124 0.930 . S
C130 C126 1.429 . S
C130 C129 1.391 . S
H131 C134 0.931 . S
H132 C137 0.928 . S
H133 C139 0.930 . S
C134 H131 0.931 . S
C134 C135 1.413 1_554 S
C134 C136 1.360 . S
C135 C134 1.413 1_556 S
C135 C139 1.429 . S
C136 C134 1.360 . S
C136 C137 1.372 . S
C137 H132 0.928 . S
C137 C136 1.372 . S
C137 C138 1.404 . S
C138 C137 1.404 . S
C138 C139 1.391 1_554 S
C139 H133 0.930 . S
C139 C135 1.429 . S
C139 C138 1.391 1_556 S
H140 C143 0.931 . S
H141 C146 0.928 . S
H142 C148 0.930 . S
C143 H140 0.931 . S
C143 C144 1.413 . S
C143 C145 1.360 . S
C144 C143 1.413 . S
C144 C148 1.429 . S
C145 C143 1.360 . S
C145 C146 1.372 . S
C146 H141 0.928 . S
C146 C145 1.372 . S
C146 C147 1.404 . S
C147 C146 1.404 . S
C147 C148 1.391 . S
C148 H142 0.930 . S
C148 C144 1.429 . S
C148 C147 1.391 . S
H149 C152 0.931 . S
H150 C155 0.928 . S
H151 C157 0.930 . S
C152 H149 0.931 . S
C152 C153 1.413 . S
C152 C154 1.360 . S
C153 C152 1.413 . S
C153 C157 1.429 . S
C154 C152 1.360 . S
C154 C155 1.372 . S
C155 H150 0.928 . S
C155 C154 1.372 . S
C155 C156 1.404 . S
C156 C155 1.404 . S
C156 C157 1.391 . S
C157 H151 0.930 . S
C157 C153 1.429 . S
C157 C156 1.391 . S
H158 C161 0.931 . S
H159 C164 0.928 . S
H160 C166 0.930 . S
C161 H158 0.931 . S
C161 C162 1.413 . S
C161 C163 1.360 . S
C162 C161 1.413 . S
C162 C166 1.429 . S
C163 C161 1.360 . S
C163 C164 1.372 . S
C164 H159 0.928 . S
C164 C163 1.372 . S
C164 C165 1.404 . S
C165 C164 1.404 . S
C165 C166 1.391 . S
C166 H160 0.930 . S
C166 C162 1.429 . S
C166 C165 1.391 . S
H167 C170 0.931 . S
H168 C173 0.928 . S
H169 C175 0.930 . S
C170 H167 0.931 . S
C170 C171 1.413 . S
C170 C172 1.360 . S
C171 C170 1.413 . S
C171 C175 1.429 . S
C172 C170 1.360 . S
C172 C173 1.372 . S
C173 H168 0.928 . S
C173 C172 1.372 . S
C173 C174 1.404 . S
C174 C173 1.404 . S
C174 C175 1.391 . S
C175 H169 0.930 . S
C175 C171 1.429 . S
C175 C174 1.391 . S
C45 C111 1.536 . S
C30 C120 1.536 . S
C39 C129 1.528 . S
C138 C34 1.536 . S
C97 C147 1.536 . S
C156 C82 1.536 . S
C165 C91 1.529 . S
C174 C86 1.536 . S
C163 C26 1.424 . S
C171 C36 1.424 . S
C144 C32 1.426 . S
C153 C42 1.425 . S
C18 C154 1.480 . S
C162 C50 1.470 . S
C4 C172 1.480 . S
C48 C145 1.477 . S
C127 C78 1.424 . S
C88 C135 1.424 . S
C108 C84 1.426 . S
C117 C94 1.425 . S
C118 C70 1.480 . S
C126 C102 1.470 . S
C56 C136 1.480 . S
C100 C109 1.478 . S
