# Generated by pormake.
# Topology anh, (6,3)-cn, num edge types: 1
# Building blocks:
#     Node 0, Type 0, BuildingBlock: BETDIP_clean_sbu_0, # of connection points: 6
#     Node 1, Type 0, BuildingBlock: BETDIP_clean_sbu_0, # of connection points: 6
#     Node 2, Type 0, BuildingBlock: BETDIP_clean_sbu_0, # of connection points: 6
#     Node 3, Type 1, BuildingBlock: BETDIP_clean_linker_0, # of connection points: 3
#     Node 4, Type 1, BuildingBlock: BETDIP_clean_linker_0, # of connection points: 3
#     Node 5, Type 1, BuildingBlock: BETDIP_clean_linker_0, # of connection points: 3
#     Node 6, Type 1, BuildingBlock: BETDIP_clean_linker_0, # of connection points: 3
#     Node 7, Type 1, BuildingBlock: BETDIP_clean_linker_0, # of connection points: 3
#     Node 8, Type 1, BuildingBlock: BETDIP_clean_linker_0, # of connection points: 3
#     Edge 9, Type (0, 1), None
#     Edge 10, Type (0, 1), None
#     Edge 11, Type (0, 1), None
#     Edge 12, Type (0, 1), None
#     Edge 13, Type (0, 1), None
#     Edge 14, Type (0, 1), None
#     Edge 15, Type (0, 1), None
#     Edge 16, Type (0, 1), None
#     Edge 17, Type (0, 1), None
#     Edge 18, Type (0, 1), None
#     Edge 19, Type (0, 1), None
#     Edge 20, Type (0, 1), None
#     Edge 21, Type (0, 1), None
#     Edge 22, Type (0, 1), None
#     Edge 23, Type (0, 1), None
#     Edge 24, Type (0, 1), None
#     Edge 25, Type (0, 1), None
#     Edge 26, Type (0, 1), None
# Relax obj value: 0.766
# Max RMSD: 0.220
# Mean RMSD: 0.171
data_MOF--net-anh--node1-BETDIP_clean_sbu_0--node2-BETDIP_clean_linker_0--edge1-none
_symmetry_space_group_name_H-M    P1
_symmetry_Int_Tables_number       1
_symmetry_cell_setting            triclinic
loop_
_symmetry_equiv_pos_as_xyz
'x, y, z'
_cell_length_a     13.603843
_cell_length_b     13.745649
_cell_length_c     22.258016
_cell_angle_alpha  95.551932
_cell_angle_beta   88.668588
_cell_angle_gamma 118.57818
loop_
_atom_site_label
_atom_site_type_symbol
_atom_site_fract_x
_atom_site_fract_y
_atom_site_fract_z
_atom_type_partial_charge
Tb0 Tb 0.38833 0.78521 0.07855 0.0
Tb1 Tb 0.32498 0.59626 0.13081 0.0
C2 C 0.46357 0.96617 0.03173 0.0
C3 C 0.56152 1.07448 0.03422 0.0
C4 C 0.65802 1.08482 0.06138 0.0
C5 C 0.70811 1.16544 0.10943 0.0
C6 C 0.66161 0.23482 0.12869 0.0
C7 C 0.5852 0.24223 0.09076 0.0
C8 C 0.53776 1.16341 0.04146 0.0
C9 C 1.28251 0.60299 0.00244 0.0
C10 C 0.57209 0.70156 0.08135 0.0
C11 C 1.2014 0.4084 0.16495 0.0
C12 C 1.08987 0.38545 0.18807 0.0
C13 C 1.00704 0.36808 0.14513 0.0
C14 C 0.95443 0.43438 0.15126 0.0
C15 C 0.98082 0.51346 0.20142 0.0
C16 C 1.0384 0.50694 0.25064 0.0
C17 C 1.0885 0.43854 0.24508 0.0
C18 C 0.40772 0.76565 0.2196 0.0
C19 C 1.13689 0.67615 0.09901 0.0
O20 O 0.41223 0.94636 0.08306 0.0
O21 O 0.4731 0.88115 0.00742 0.0
O22 O 0.35872 0.62281 0.0398 0.0
O23 O 1.26756 0.68857 0.00578 0.0
O24 O 0.55659 0.7908 0.08353 0.0
O25 O 0.48476 0.60657 0.09453 0.0
O26 O 1.21512 0.42572 0.10807 0.0
O27 O 1.28726 0.48474 0.19729 0.0
O28 O 0.34481 0.75454 0.17422 0.0
O29 O 0.43401 0.68677 0.20988 0.0
O30 O 1.16049 0.59508 0.10949 0.0
O31 O 1.22261 0.77309 0.09195 0.0
H32 H 0.68071 1.01909 0.05394 0.0
H33 H 0.77366 1.16442 0.13565 0.0
H34 H 0.55192 0.29874 0.10309 0.0
H35 H 0.46569 1.15809 0.01847 0.0
H36 H 0.99881 0.32026 0.10211 0.0
H37 H 0.90029 0.42983 0.11499 0.0
H38 H 1.04967 0.55973 0.29187 0.0
H39 H 1.14335 0.44472 0.28147 0.0
Tb40 Tb 0.84641 0.20312 0.43493 0.0
Tb41 Tb 0.69827 0.29825 0.45235 0.0
C42 C 0.94044 1.08994 0.45258 0.0
C43 C 1.04493 1.09903 0.47615 0.0
C44 C 1.05952 1.09681 0.53822 0.0
C45 C 1.1363 1.06602 0.55791 0.0
C46 C 1.19731 1.03582 0.51557 0.0
C47 C 1.19646 1.05583 0.45522 0.0
C48 C 1.11939 1.08621 0.43538 0.0
C49 C 0.78717 0.24764 0.33532 0.0
C50 C 0.57064 1.03058 0.4149 0.0
C51 C 0.59914 0.41218 0.44119 0.0
C52 C 0.63973 0.53016 0.43178 0.0
C53 C 0.73754 0.58744 0.3997 0.0
C54 C 0.80451 0.70171 0.41215 0.0
C55 C 0.78016 0.75279 0.46342 0.0
C56 C 0.66476 0.70884 0.47527 0.0
C57 C 0.59651 0.59304 0.46454 0.0
C58 C 0.75413 0.25121 0.55727 0.0
C59 C 0.9754 0.46362 0.43116 0.0
O60 O 0.87351 1.10473 0.49135 0.0
O61 O 0.9455 1.13257 0.40184 0.0
O62 O 0.72788 0.20919 0.37962 0.0
O63 O 0.88678 0.26074 0.34455 0.0
O64 O 0.67619 1.0456 0.41525 0.0
O65 O 0.55861 1.12158 0.42817 0.0
O66 O 0.61389 0.35141 0.39689 0.0
O67 O 0.62806 0.39493 0.49308 0.0
O68 O 0.81846 0.29374 0.51345 0.0
O69 O 0.65609 0.23624 0.54167 0.0
O70 O 0.86921 0.44769 0.43426 0.0
O71 O 0.99076 0.37647 0.43759 0.0
H72 H 1.00431 1.10755 0.57086 0.0
H73 H 1.13765 1.05234 0.60497 0.0
H74 H 1.24395 1.03356 0.42219 0.0
H75 H 1.11042 1.08823 0.38734 0.0
H76 H 0.77011 0.54378 0.37164 0.0
H77 H 0.88688 0.73921 0.39298 0.0
H78 H 0.63688 0.75447 0.50729 0.0
H79 H 0.51745 0.55269 0.48704 0.0
Tb80 Tb 0.69222 0.63926 0.76556 0.0
Tb81 Tb 0.92893 0.77373 0.79175 0.0
C82 C 0.48407 0.5401 0.77178 0.0
C83 C 0.40101 0.42519 0.78146 0.0
C84 C 0.39775 0.38218 0.83666 0.0
C85 C 0.30316 0.28581 0.8508 0.0
C86 C 1.21101 0.23317 0.8103 0.0
C87 C 1.22238 0.26427 0.75139 0.0
C88 C 0.31684 0.36129 0.73722 0.0
C89 C 0.81981 0.68257 0.67092 0.0
C90 C 0.7996 0.91023 0.76322 0.0
C91 C 1.13799 0.84931 0.78577 0.0
C92 C 1.20128 0.78965 0.76758 0.0
C93 C 1.14592 0.68279 0.73657 0.0
C94 C 1.17283 0.60123 0.75025 0.0
C95 C 1.26059 0.62922 0.79201 0.0
C96 C 0.33861 0.74395 0.80335 0.0
C97 C 0.30506 0.82343 0.79529 0.0
C98 C 0.808 0.73648 0.89238 0.0
C99 C 0.81575 0.49847 0.75372 0.0
O100 O 0.53593 0.55257 0.72074 0.0
O101 O 0.55074 0.6018 0.81766 0.0
O102 O 0.82974 0.74651 0.71671 0.0
O103 O 0.72505 0.59252 0.67307 0.0
O104 O 0.7087 0.8099 0.76164 0.0
O105 O 0.89968 0.91731 0.77323 0.0
O106 O 1.0768 0.85554 0.74373 0.0
O107 O 1.0825 0.82003 0.83543 0.0
O108 O 0.7926 0.66614 0.8466 0.0
O109 O 0.8947 0.82924 0.88127 0.0
O110 O 0.90599 0.59988 0.75994 0.0
O111 O 0.7165 0.49182 0.76243 0.0
H112 H 0.46303 0.4279 0.87102 0.0
H113 H 1.2956 0.2622 0.89644 0.0
H114 H 1.1518 0.22435 0.71963 0.0
H115 H 0.31892 0.39183 0.69387 0.0
H116 H 1.07369 0.65821 0.70789 0.0
H117 H 1.11604 0.516 0.73387 0.0
H118 H 0.41762 0.77208 0.82688 0.0
H119 H 0.35435 0.90783 0.81597 0.0
H120 H 0.70264 0.44381 0.16403 0.0
H121 H 0.85786 0.4626 0.33018 0.0
H122 H 0.67653 1.14804 0.23037 0.0
H123 H 0.92114 0.63568 0.24523 0.0
C124 C 0.93752 0.59426 0.20501 0.0
C125 C 0.70924 0.40077 0.2008 0.0
C126 C 0.68492 0.28954 0.1903 0.0
C127 C 0.77024 0.46418 0.25278 0.0
C128 C 0.79474 0.41171 0.29619 0.0
C129 C 0.75692 0.29805 0.28971 0.0
C130 C 0.70007 0.23578 0.23699 0.0
N131 N 0.8514 0.57778 0.24712 0.0
H132 H 1.01279 0.84629 0.4672 0.0
H133 H 1.03667 0.75274 0.64173 0.0
H134 H 0.72377 0.71069 0.58044 0.0
H135 H 0.31767 0.97098 0.51772 0.0
C136 C 1.2345 0.9564 0.53005 0.0
C137 C 0.97429 0.81695 0.50936 0.0
C138 C 0.85808 0.77914 0.51639 0.0
C139 C 1.03998 0.81158 0.55592 0.0
C140 C 0.98771 0.76169 0.60749 0.0
C141 C 0.87382 0.72581 0.61526 0.0
C142 C 0.81143 0.73905 0.57163 0.0
N143 N 1.15792 0.85274 0.55163 0.0
H144 H 1.1238 0.3961 0.78819 0.0
H145 H 1.14983 0.37782 0.97774 0.0
H146 H 0.36352 0.68053 0.90284 0.0
H147 H 1.03897 1.09836 0.82404 0.0
C148 C 1.09871 1.18467 0.83587 0.0
C149 C 1.16575 0.43614 0.83116 0.0
C150 C 1.24821 0.54977 0.83742 0.0
C151 C 1.13587 0.37207 0.881 0.0
C152 C 1.17999 0.42386 0.93847 0.0
C153 C 1.26178 0.53562 0.94489 0.0
C154 C 1.30139 0.5941 0.89434 0.0
N155 N 1.06633 0.25455 0.873 0.0
H156 H 0.37559 0.84795 0.46253 0.0
H157 H 1.24213 0.64261 0.29478 0.0
H158 H 0.54523 0.95393 0.29504 0.0
H159 H 1.15321 0.59836 0.42674 0.0
C160 C 1.07235 0.57875 0.41195 0.0
C161 C 0.37779 0.83592 0.41389 0.0
C162 C 0.47181 0.91959 0.38319 0.0
C163 C 1.2883 0.73485 0.38253 0.0
C164 C 1.29958 0.72013 0.3188 0.0
C165 C 0.39032 0.79818 0.28595 0.0
C166 C 0.47456 0.89605 0.31924 0.0
N167 N 1.19967 0.63887 0.41636 0.0
H168 H 0.85395 0.32991 0.79892 0.0
H169 H 0.79366 1.12054 0.63072 0.0
H170 H 0.78458 0.43048 0.63393 0.0
H171 H 0.84434 1.08483 0.76062 0.0
C172 C 0.7843 1.00597 0.74051 0.0
C173 C 0.83669 0.3152 0.75071 0.0
C174 C 0.82089 0.39563 0.72097 0.0
C175 C 0.8263 0.21354 0.71896 0.0
C176 C 0.8024 0.1961 0.65559 0.0
C177 C 0.79029 0.27536 0.62392 0.0
C178 C 0.79859 0.37268 0.65755 0.0
N179 N 0.84466 1.13048 0.75148 0.0
H180 H 0.75982 0.696 0.13299 0.0
H181 H 0.93979 0.70545 0.96923 0.0
H182 H 0.62943 0.71796 0.96219 0.0
H183 H 0.98121 0.5738 0.04174 0.0
C184 C 1.02058 0.64803 0.07332 0.0
C185 C 0.76526 0.69794 0.08447 0.0
C186 C 0.67769 0.7028 0.05165 0.0
C187 C 0.86087 0.69717 0.05512 0.0
C188 C 0.86652 0.70117 -0.00826 0.0
C189 C 0.78422 0.70895 0.9575 0.0
C190 C 0.69118 0.70983 -0.01193 0.0
N191 N 0.95608 0.70605 0.08955 0.0
loop_
_geom_bond_atom_site_label_1
_geom_bond_atom_site_label_2
_geom_bond_distance
_geom_bond_site_symmetry_2
_ccdc_geom_bond_type
Tb0 C2 2.809 . S
Tb0 O20 2.484 . S
Tb0 O21 2.440 . S
Tb0 O22 2.658 1_455 S
Tb0 O23 2.409 1_554 S
Tb0 O24 2.378 . S
Tb0 O28 2.325 . S
Tb0 O31 2.341 1_455 S
Tb1 C11 2.809 . S
Tb1 O22 2.325 . S
Tb1 O25 2.341 1_655 S
Tb1 O26 2.484 . S
Tb1 O27 2.440 . S
Tb1 O28 2.658 1_655 S
Tb1 O29 2.409 . S
Tb1 O30 2.378 . S
C2 Tb0 2.809 . S
C2 C3 1.514 . S
C2 O20 1.248 . S
C2 O21 1.266 . S
C3 C2 1.514 . S
C3 C4 1.359 . S
C3 C8 1.348 . S
C4 C3 1.359 . S
C4 C5 1.380 . S
C4 H32 0.929 . S
C5 C4 1.380 . S
C5 C6 1.347 . S
C5 H33 0.931 . S
C6 C5 1.347 . S
C6 C7 1.369 . S
C7 C6 1.369 . S
C7 C8 1.408 . S
C7 H34 0.930 1_565 S
C8 C3 1.348 . S
C8 C7 1.408 . S
C8 H35 0.930 . S
C9 O22 1.281 1_456 S
C9 O23 1.254 . S
C10 O24 1.236 . S
C10 O25 1.266 . S
C11 Tb1 2.809 . S
C11 C12 1.514 . S
C11 O26 1.248 . S
C11 O27 1.266 . S
C12 C11 1.514 . S
C12 C13 1.359 . S
C12 C17 1.348 . S
C13 C12 1.359 . S
C13 C14 1.380 . S
C13 H36 0.929 . S
C14 C13 1.380 . S
C14 C15 1.347 . S
C14 H37 0.931 . S
C15 C14 1.347 . S
C15 C16 1.369 . S
C16 C15 1.369 . S
C16 C17 1.408 . S
C16 H38 0.930 . S
C17 C12 1.348 . S
C17 C16 1.408 . S
C17 H39 0.930 . S
C18 O28 1.281 . S
C18 O29 1.254 1_455 S
C19 O30 1.236 . S
C19 O31 1.266 . S
O20 Tb0 2.484 . S
O20 C2 1.248 . S
O21 Tb0 2.440 . S
O21 C2 1.266 . S
O22 Tb0 2.658 1_655 S
O22 Tb1 2.325 . S
O22 C9 1.281 1_654 S
O23 Tb0 2.409 1_556 S
O23 C9 1.254 . S
O24 Tb0 2.378 . S
O24 C10 1.236 . S
O25 Tb1 2.341 1_455 S
O25 C10 1.266 . S
O26 Tb1 2.484 . S
O26 C11 1.248 . S
O27 Tb1 2.440 . S
O27 C11 1.266 . S
O28 Tb0 2.325 . S
O28 Tb1 2.658 1_455 S
O28 C18 1.281 . S
O29 Tb1 2.409 . S
O29 C18 1.254 1_655 S
O30 Tb1 2.378 . S
O30 C19 1.236 . S
O31 Tb0 2.341 1_655 S
O31 C19 1.266 . S
H32 C4 0.929 . S
H33 C5 0.931 . S
H34 C7 0.930 1_545 S
H35 C8 0.930 . S
H36 C13 0.929 . S
H37 C14 0.931 . S
H38 C16 0.930 . S
H39 C17 0.930 . S
Tb40 C42 2.809 . S
Tb40 O60 2.484 . S
Tb40 O61 2.440 . S
Tb40 O62 2.658 1_565 S
Tb40 O63 2.409 . S
Tb40 O64 2.378 . S
Tb40 O68 2.325 1_565 S
Tb40 O71 2.341 1_565 S
Tb41 C51 2.809 . S
Tb41 O62 2.325 . S
Tb41 O65 2.341 1_545 S
Tb41 O66 2.484 . S
Tb41 O67 2.440 . S
Tb41 O68 2.658 . S
Tb41 O69 2.409 . S
Tb41 O70 2.378 . S
C42 Tb40 2.809 . S
C42 C43 1.514 . S
C42 O60 1.248 . S
C42 O61 1.266 . S
C43 C42 1.514 . S
C43 C44 1.359 . S
C43 C48 1.348 . S
C44 C43 1.359 . S
C44 C45 1.380 . S
C44 H72 0.929 . S
C45 C44 1.380 . S
C45 C46 1.347 . S
C45 H73 0.931 . S
C46 C45 1.347 . S
C46 C47 1.369 . S
C47 C46 1.369 . S
C47 C48 1.408 . S
C47 H74 0.930 . S
C48 C43 1.348 . S
C48 C47 1.408 . S
C48 H75 0.930 . S
C49 O62 1.281 . S
C49 O63 1.254 1_545 S
C50 O64 1.236 . S
C50 O65 1.266 . S
C51 Tb41 2.809 . S
C51 C52 1.514 . S
C51 O66 1.248 . S
C51 O67 1.266 . S
C52 C51 1.514 . S
C52 C53 1.359 . S
C52 C57 1.348 . S
C53 C52 1.359 . S
C53 C54 1.380 . S
C53 H76 0.929 . S
C54 C53 1.380 . S
C54 C55 1.347 . S
C54 H77 0.931 . S
C55 C54 1.347 . S
C55 C56 1.369 . S
C56 C55 1.369 . S
C56 C57 1.408 . S
C56 H78 0.930 . S
C57 C52 1.348 . S
C57 C56 1.408 . S
C57 H79 0.930 . S
C58 O68 1.281 . S
C58 O69 1.254 . S
C59 O70 1.236 . S
C59 O71 1.266 . S
O60 Tb40 2.484 . S
O60 C42 1.248 . S
O61 Tb40 2.440 . S
O61 C42 1.266 . S
O62 Tb40 2.658 1_545 S
O62 Tb41 2.325 . S
O62 C49 1.281 . S
O63 Tb40 2.409 . S
O63 C49 1.254 1_565 S
O64 Tb40 2.378 . S
O64 C50 1.236 . S
O65 Tb41 2.341 1_565 S
O65 C50 1.266 . S
O66 Tb41 2.484 . S
O66 C51 1.248 . S
O67 Tb41 2.440 . S
O67 C51 1.266 . S
O68 Tb40 2.325 1_545 S
O68 Tb41 2.658 . S
O68 C58 1.281 . S
O69 Tb41 2.409 . S
O69 C58 1.254 . S
O70 Tb41 2.378 . S
O70 C59 1.236 . S
O71 Tb40 2.341 1_545 S
O71 C59 1.266 . S
H72 C44 0.929 . S
H73 C45 0.931 . S
H74 C47 0.930 . S
H75 C48 0.930 . S
H76 C53 0.929 . S
H77 C54 0.931 . S
H78 C56 0.930 . S
H79 C57 0.930 . S
Tb80 C82 2.809 . S
Tb80 O100 2.484 . S
Tb80 O101 2.440 . S
Tb80 O102 2.658 . S
Tb80 O103 2.409 . S
Tb80 O104 2.378 . S
Tb80 O108 2.325 . S
Tb80 O111 2.341 . S
Tb81 C91 2.809 . S
Tb81 O102 2.325 . S
Tb81 O105 2.341 . S
Tb81 O106 2.484 . S
Tb81 O107 2.440 . S
Tb81 O108 2.658 . S
Tb81 O109 2.409 . S
Tb81 O110 2.378 . S
C82 Tb80 2.809 . S
C82 C83 1.514 . S
C82 O100 1.248 . S
C82 O101 1.266 . S
C83 C82 1.514 . S
C83 C84 1.359 . S
C83 C88 1.348 . S
C84 C83 1.359 . S
C84 C85 1.380 . S
C84 H112 0.929 . S
C85 C84 1.380 . S
C85 C86 1.347 . S
C85 H113 0.931 . S
C86 C85 1.347 . S
C86 C87 1.369 . S
C87 C86 1.369 . S
C87 C88 1.408 . S
C87 H114 0.930 . S
C88 C83 1.348 . S
C88 C87 1.408 . S
C88 H115 0.930 . S
C89 O102 1.281 . S
C89 O103 1.254 . S
C90 O104 1.236 . S
C90 O105 1.266 . S
C91 Tb81 2.809 . S
C91 C92 1.514 . S
C91 O106 1.248 . S
C91 O107 1.266 . S
C92 C91 1.514 . S
C92 C93 1.359 . S
C92 C97 1.348 . S
C93 C92 1.359 . S
C93 C94 1.380 . S
C93 H116 0.929 . S
C94 C93 1.380 . S
C94 C95 1.347 . S
C94 H117 0.931 . S
C95 C94 1.347 . S
C95 C96 1.369 . S
C96 C95 1.369 . S
C96 C97 1.408 . S
C96 H118 0.930 . S
C97 C92 1.348 . S
C97 C96 1.408 . S
C97 H119 0.930 . S
C98 O108 1.281 . S
C98 O109 1.254 . S
C99 O110 1.236 . S
C99 O111 1.266 . S
O100 Tb80 2.484 . S
O100 C82 1.248 . S
O101 Tb80 2.440 . S
O101 C82 1.266 . S
O102 Tb80 2.658 . S
O102 Tb81 2.325 . S
O102 C89 1.281 . S
O103 Tb80 2.409 . S
O103 C89 1.254 . S
O104 Tb80 2.378 . S
O104 C90 1.236 . S
O105 Tb81 2.341 . S
O105 C90 1.266 . S
O106 Tb81 2.484 . S
O106 C91 1.248 . S
O107 Tb81 2.440 . S
O107 C91 1.266 . S
O108 Tb80 2.325 . S
O108 Tb81 2.658 . S
O108 C98 1.281 . S
O109 Tb81 2.409 . S
O109 C98 1.254 . S
O110 Tb81 2.378 . S
O110 C99 1.236 . S
O111 Tb80 2.341 . S
O111 C99 1.266 . S
H112 C84 0.929 . S
H113 C85 0.931 . S
H114 C87 0.930 . S
H115 C88 0.930 . S
H116 C93 0.929 . S
H117 C94 0.931 . S
H118 C96 0.930 . S
H119 C97 0.930 . S
H120 C125 0.930 . S
H121 C128 0.930 . S
H122 C130 0.930 . S
H123 C124 1.016 . S
C124 H123 1.016 . S
C124 N131 1.286 . S
C125 H120 0.930 . S
C125 C126 1.397 1_545 S
C125 C127 1.361 . S
C126 C125 1.397 1_565 S
C126 C130 1.390 . S
C127 C125 1.361 . S
C127 C128 1.393 . S
C127 N131 1.413 . S
C128 H121 0.930 . S
C128 C127 1.393 . S
C128 C129 1.399 . S
C129 C128 1.399 . S
C129 C130 1.381 1_545 S
C130 H122 0.930 . S
C130 C126 1.390 . S
C130 C129 1.381 1_565 S
N131 C124 1.286 . S
N131 C127 1.413 . S
H132 C137 0.930 . S
H133 C140 0.930 . S
H134 C142 0.930 . S
H135 C136 1.016 . S
C136 H135 1.016 . S
C136 N143 1.286 . S
C137 H132 0.930 . S
C137 C138 1.397 . S
C137 C139 1.361 . S
C138 C137 1.397 . S
C138 C142 1.390 . S
C139 C137 1.361 . S
C139 C140 1.393 . S
C139 N143 1.413 . S
C140 H133 0.930 . S
C140 C139 1.393 . S
C140 C141 1.399 . S
C141 C140 1.399 . S
C141 C142 1.381 . S
C142 H134 0.930 . S
C142 C138 1.390 . S
C142 C141 1.381 . S
N143 C136 1.286 . S
N143 C139 1.413 . S
H144 C149 0.930 . S
H145 C152 0.930 1_554 S
H146 C154 0.930 1_554 S
H147 C148 1.016 . S
C148 H147 1.016 . S
C148 N155 1.286 . S
C149 H144 0.930 . S
C149 C150 1.397 . S
C149 C151 1.361 1_655 S
C150 C149 1.397 . S
C150 C154 1.390 . S
C151 C149 1.361 1_455 S
C151 C152 1.393 . S
C151 N155 1.413 . S
C152 H145 0.930 1_556 S
C152 C151 1.393 . S
C152 C153 1.399 1_456 S
C153 C152 1.399 1_654 S
C153 C154 1.381 1_554 S
C154 H146 0.930 1_556 S
C154 C150 1.390 . S
C154 C153 1.381 1_556 S
N155 C148 1.286 . S
N155 C151 1.413 . S
H156 C161 0.930 . S
H157 C164 0.936 . S
H158 C166 0.930 . S
H159 C160 1.016 . S
C160 H159 1.016 . S
C160 N167 1.286 . S
C161 H156 0.930 . S
C161 C162 1.397 . S
C161 C163 1.361 . S
C162 C161 1.397 . S
C162 C166 1.390 . S
C163 C161 1.361 . S
C163 C164 1.391 1_455 S
C163 N167 1.413 1_455 S
C164 H157 0.936 . S
C164 C163 1.391 1_655 S
C164 C165 1.395 1_655 S
C165 C164 1.395 1_455 S
C165 C166 1.381 . S
C166 H158 0.930 . S
C166 C162 1.390 . S
C166 C165 1.381 . S
N167 C160 1.286 . S
N167 C163 1.413 1_655 S
H168 C173 0.930 . S
H169 C176 0.930 . S
H170 C178 0.930 . S
H171 C172 1.016 . S
C172 H171 1.016 . S
C172 N179 1.286 . S
C173 H168 0.930 . S
C173 C174 1.397 . S
C173 C175 1.361 1_545 S
C174 C173 1.397 . S
C174 C178 1.390 . S
C175 C173 1.361 1_565 S
C175 C176 1.393 . S
C175 N179 1.413 . S
C176 H169 0.930 . S
C176 C175 1.393 . S
C176 C177 1.399 1_565 S
C177 C176 1.399 1_545 S
C177 C178 1.381 . S
C178 H170 0.930 . S
C178 C174 1.390 . S
C178 C177 1.381 . S
N179 C172 1.286 . S
N179 C175 1.413 . S
H180 C185 0.930 . S
H181 C188 0.930 . S
H182 C190 0.930 1_556 S
H183 C184 1.016 . S
C184 H183 1.016 . S
C184 N191 1.286 . S
C185 H180 0.930 . S
C185 C186 1.397 . S
C185 C187 1.361 . S
C186 C185 1.397 . S
C186 C190 1.390 . S
C187 C185 1.361 . S
C187 C188 1.393 . S
C187 N191 1.413 . S
C188 H181 0.930 . S
C188 C187 1.393 . S
C188 C189 1.399 1_554 S
C189 C188 1.399 1_556 S
C189 C190 1.381 1_556 S
C190 H182 0.930 1_554 S
C190 C186 1.390 . S
C190 C189 1.381 1_554 S
N191 C184 1.286 . S
N191 C187 1.413 . S
C10 C186 4.999 . S
C59 C160 4.725 . S
C90 C172 4.633 . S
C19 C184 4.421 . S
C162 C50 4.631 . S
C174 C99 4.686 . S
C46 C136 3.465 . S
C95 C150 3.459 . S
C6 C126 2.998 . S
C138 C55 3.244 . S
C148 C86 3.073 . S
C15 C124 3.465 . S
C153 C9 1.228 1_654 S
C49 C129 0.796 . S
C89 C141 1.348 . S
C177 C58 1.964 . S
C189 C98 2.252 . S
C18 C165 1.992 . S
