# Generated by pormake.
# Topology rtl, (3,6)-cn, num edge types: 1
# Building blocks:
#     Node 0, Type 0, BuildingBlock: CUQRIR_clean_linker_1, # of connection points: 3
#     Node 1, Type 0, BuildingBlock: CUQRIR_clean_linker_1, # of connection points: 3
#     Node 2, Type 0, BuildingBlock: CUQRIR_clean_linker_1, # of connection points: 3
#     Node 3, Type 0, BuildingBlock: CUQRIR_clean_linker_1, # of connection points: 3
#     Node 4, Type 1, BuildingBlock: LEVNOQ01_clean_sbu_1, # of connection points: 6
#     Node 5, Type 1, BuildingBlock: LEVNOQ01_clean_sbu_1, # of connection points: 6
#     Edge 6, Type (0, 1), BuildingBlock: AJUNOK_clean_linker_0, # of connection points: 2
#     Edge 7, Type (0, 1), BuildingBlock: AJUNOK_clean_linker_0, # of connection points: 2
#     Edge 8, Type (0, 1), BuildingBlock: AJUNOK_clean_linker_0, # of connection points: 2
#     Edge 9, Type (0, 1), BuildingBlock: AJUNOK_clean_linker_0, # of connection points: 2
#     Edge 10, Type (0, 1), BuildingBlock: AJUNOK_clean_linker_0, # of connection points: 2
#     Edge 11, Type (0, 1), BuildingBlock: AJUNOK_clean_linker_0, # of connection points: 2
#     Edge 12, Type (0, 1), BuildingBlock: AJUNOK_clean_linker_0, # of connection points: 2
#     Edge 13, Type (0, 1), BuildingBlock: AJUNOK_clean_linker_0, # of connection points: 2
#     Edge 14, Type (0, 1), BuildingBlock: AJUNOK_clean_linker_0, # of connection points: 2
#     Edge 15, Type (0, 1), BuildingBlock: AJUNOK_clean_linker_0, # of connection points: 2
#     Edge 16, Type (0, 1), BuildingBlock: AJUNOK_clean_linker_0, # of connection points: 2
#     Edge 17, Type (0, 1), BuildingBlock: AJUNOK_clean_linker_0, # of connection points: 2
# Relax obj value: 0.023
# Max RMSD: 0.120
# Mean RMSD: 0.100
data_MOF--net-rtl--node1-LEVNOQ01_clean_sbu_1--node2-CUQRIR_clean_linker_1--edge1-AJUNOK_clean_linker_0
_symmetry_space_group_name_H-M    P1
_symmetry_Int_Tables_number       1
_symmetry_cell_setting            triclinic
loop_
_symmetry_equiv_pos_as_xyz
'x, y, z'
_cell_length_a     25.292566
_cell_length_b     24.406668
_cell_length_c     13.202799
_cell_angle_alpha  90.463017
_cell_angle_beta   100.71083
_cell_angle_gamma 90.060776
loop_
_atom_site_label
_atom_site_type_symbol
_atom_site_fract_x
_atom_site_fract_y
_atom_site_fract_z
_atom_type_partial_charge
C0 C 0.18993 0.7492 0.09438 0.0
N1 N 0.1526 0.78646 0.10986 0.0
N2 N 0.21434 0.72726 0.185 0.0
C3 C 0.2062 0.73783 0.99213 0.0
C4 C 0.19139 0.75327 0.25662 0.0
N5 N 0.15397 0.78945 0.21101 0.0
C6 C 0.20511 0.74266 0.37033 0.0
H7 H 0.18128 0.70359 0.95326 0.0
H8 H 0.24909 0.72559 1.0024 0.0
H9 H 0.19963 0.7741 0.94131 0.0
H10 H 0.2239 0.70176 0.3857 0.0
H11 H 0.16854 0.74535 0.40531 0.0
H12 H 0.23412 0.77427 0.40722 0.0
C13 C 0.74479 0.70355 0.77496 0.0
N14 N 0.70783 0.66502 0.73607 0.0
N15 N 0.76998 0.72274 0.7006 0.0
C16 C 0.75122 0.72741 0.88185 0.0
C17 C 0.74628 0.69524 0.61451 0.0
N18 N 0.70808 0.66048 0.63559 0.0
C19 C 0.7587 0.70486 0.50904 0.0
H20 H 0.78672 0.75496 0.89937 0.0
H21 H 0.75555 0.694 0.93925 0.0
H22 H 0.71447 0.75086 0.88875 0.0
H23 H 0.80136 0.71722 0.51439 0.0
H24 H 0.73298 0.73861 0.47191 0.0
H25 H 0.75056 0.66753 0.46007 0.0
C26 C 0.78465 0.26192 0.10467 0.0
N27 N 0.82241 0.22526 0.08894 0.0
N28 N 0.76065 0.28476 1.01459 0.0
C29 C 0.76615 0.26983 0.20572 0.0
C30 C 0.78458 0.2601 0.94297 0.0
N31 N 0.82209 0.22384 0.988 0.0
C32 C 0.77003 0.27059 0.82933 0.0
H33 H 0.74302 0.23314 0.2211 0.0
H34 H 0.74031 0.30658 0.20496 0.0
H35 H 0.80136 0.27397 0.26936 0.0
H36 H 0.80582 0.26624 0.79244 0.0
H37 H 0.75273 0.3122 0.81478 0.0
H38 H 0.73931 0.24019 0.7939 0.0
C39 C 0.22494 0.30756 0.42655 0.0
N40 N 0.26313 0.34459 0.46675 0.0
N41 N 0.20064 0.28701 0.50099 0.0
C42 C 0.21624 0.28632 0.3176 0.0
C43 C 0.22625 0.31205 0.58839 0.0
N44 N 0.26489 0.34643 0.56795 0.0
C45 C 0.21462 0.3007 0.69385 0.0
H46 H 0.17685 0.2651 0.29669 0.0
H47 H 0.24874 0.25689 0.31014 0.0
H48 H 0.21827 0.32042 0.26338 0.0
H49 H 0.2352 0.26231 0.72324 0.0
H50 H 0.17079 0.29452 0.68958 0.0
H51 H 0.2288 0.33467 0.74853 0.0
O52 O 0.01104 0.09069 0.8197 0.0
Mg53 Mg 0.06229 0.05255 0.73422 0.0
O54 O 0.94263 0.06192 0.70436 0.0
Mg55 Mg -0.01437 0.00458 0.59822 0.0
O56 O 0.05376 0.07102 0.58077 0.0
O57 O 0.1158 0.10792 0.70812 0.0
O58 O 0.02919 0.94765 0.49295 0.0
O59 O 0.94153 0.0597 0.4543 0.0
Mg60 Mg 0.90992 0.95593 0.46291 0.0
O61 O 0.91748 0.9379 0.6163 0.0
O62 O 0.96148 0.9181 0.3771 0.0
O63 O 0.86423 0.0203 0.39657 0.0
O64 O 0.85683 0.89984 0.48794 0.0
C65 C 0.07549 0.94813 0.80151 0.0
C66 C 0.96102 0.08976 0.78582 0.0
C67 C 0.09416 0.10417 0.61211 0.0
C68 C 0.01143 0.9196 0.41156 0.0
C69 C 0.89558 0.05991 0.39393 0.0
C70 C 0.87754 0.90425 0.58429 0.0
O71 O 0.10711 -0.0122 0.8014 0.0
O72 O 0.02964 0.94914 0.74099 0.0
O73 O 0.57372 0.47257 0.34286 0.0
Mg74 Mg 0.53374 0.42204 0.22454 0.0
O75 O 0.54335 0.54383 0.24957 0.0
Mg76 Mg 0.48683 0.50318 0.10208 0.0
O77 O 0.55018 0.4326 0.07926 0.0
O78 O 0.58464 0.36604 0.18961 0.0
O79 O 0.43089 0.4619 0.95588 0.0
O80 O 0.54196 0.54987 0.99906 0.0
Mg81 Mg 0.43765 0.58322 0.97833 0.0
O82 O 0.42235 0.57268 0.12418 0.0
O83 O 0.39878 0.53166 0.86 0.0
O84 O 0.50249 0.62754 0.95124 0.0
O85 O 0.38501 0.63755 1.01247 0.0
C86 C 0.42901 0.41115 0.24759 0.0
C87 C 0.57163 0.52386 0.33164 0.0
C88 C 0.58114 0.3899 0.10204 0.0
C89 C 0.40213 0.48052 0.87328 0.0
C90 C 0.54211 0.59625 0.95458 0.0
C91 C 0.38983 0.61415 0.1007 0.0
O92 O 0.46812 0.37898 0.25288 0.0
O93 O 0.43099 0.45741 0.20369 0.0
C94 C 0.11451 0.23969 0.49951 0.0
C95 C 0.16965 0.23748 0.49662 0.0
C96 C 0.08686 0.19264 0.52182 0.0
C97 C 0.11398 0.14253 0.54279 0.0
H98 H 0.09393 0.27873 0.49233 0.0
H99 H 0.04575 0.19686 0.53341 0.0
S100 S 0.25694 0.11518 0.53362 0.0
N101 N 0.24895 0.18091 0.50604 0.0
N102 N 0.19749 0.09265 0.54996 0.0
C103 C 0.16792 0.13917 0.53139 0.0
C104 C 0.19576 0.18676 0.50794 0.0
C105 C 0.25455 0.63805 0.15919 0.0
C106 C 0.26014 0.69146 0.19995 0.0
C107 C 0.29962 0.6084 0.14231 0.0
C108 C 0.35148 0.6314 0.16537 0.0
H109 H 0.21476 0.62135 0.13152 0.0
H110 H 0.29311 0.57007 0.0998 0.0
S111 S 0.38747 0.76754 0.28375 0.0
N112 N 0.32137 0.76404 0.27245 0.0
N113 N 0.40624 0.70851 0.23955 0.0
C114 C 0.3579 0.68268 0.21489 0.0
C115 C 0.31206 0.71273 0.23259 0.0
C116 C 0.85615 0.77008 0.70193 0.0
C117 C 0.80077 0.77235 0.7027 0.0
C118 C 0.88391 0.8167 0.67792 0.0
C119 C 0.85681 0.86653 0.65365 0.0
H120 H 0.87691 0.73117 0.71209 0.0
H121 H 0.92522 0.81223 0.66777 0.0
S122 S 0.7131 0.89408 0.65569 0.0
N123 N 0.72106 0.8288 0.68699 0.0
N124 N 0.77286 0.9163 0.64053 0.0
C125 C 0.8025 0.87006 0.66261 0.0
C126 C 0.77448 0.82287 0.68745 0.0
C127 C 0.66254 0.28629 0.99374 0.0
C128 C 0.71108 0.31482 0.99821 0.0
C129 C 0.61641 0.31334 1.01231 0.0
C130 C 0.61747 0.36978 1.0352 0.0
H131 H 0.66186 0.24207 0.98597 0.0
H132 H 0.58145 0.289 1.01947 0.0
S133 S 0.73297 0.46367 1.04015 0.0
N134 N 0.75624 0.40283 1.01456 0.0
N135 N 0.66923 0.45418 1.04875 0.0
C136 C 0.66415 0.3996 1.02842 0.0
C137 C 0.71126 0.37188 1.01039 0.0
C138 C 0.13909 0.85932 0.34021 0.0
C139 C 0.11862 0.82246 0.26007 0.0
C140 C 0.1044 0.891 0.38871 0.0
C141 C 0.04805 0.887 0.35822 0.0
H142 H 0.18215 0.86379 0.36498 0.0
H143 H 0.12187 0.91875 0.45035 0.0
S144 S -0.02463 0.79479 0.15215 0.0
N145 N 0.03963 0.7825 0.15379 0.0
N146 N -0.02598 0.84213 0.2416 0.0
C147 C 0.02749 0.85015 0.2772 0.0
C148 C 0.06286 0.81793 0.22894 0.0
C149 C 0.67774 0.6087 0.86986 0.0
C150 C 0.66605 0.64515 0.78677 0.0
C151 C 0.63743 0.59195 0.92354 0.0
C152 C 0.58457 0.61196 0.89642 0.0
H153 H 0.71832 0.59351 0.89357 0.0
H154 H 0.64791 0.56439 0.98791 0.0
S155 S 0.53443 0.70743 0.68155 0.0
N156 N 0.59901 0.70014 0.67901 0.0
N157 N 0.52285 0.66879 0.77716 0.0
C158 C 0.57272 0.64794 0.81194 0.0
C159 C 0.61358 0.66453 0.7578 0.0
C160 C 0.88244 0.19615 0.25035 0.0
C161 C 0.84458 0.18335 0.16087 0.0
C162 C 0.90034 0.15594 0.32501 0.0
C163 C 0.88002 0.10205 0.31301 0.0
H164 H 0.89762 0.23761 0.26294 0.0
H165 H 0.92895 0.16745 0.39354 0.0
S166 S 0.78207 0.0483 0.08817 0.0
N167 N 0.78887 0.1137 0.06259 0.0
N168 N 0.82209 0.03793 0.20013 0.0
C169 C 0.84312 0.08893 0.22181 0.0
C170 C 0.82547 0.12963 0.14649 0.0
C171 C 0.30302 0.43535 0.63337 0.0
C172 C 0.30251 0.37821 0.64106 0.0
C173 C 0.33611 0.46757 0.7078 0.0
C174 C 0.37031 0.44391 0.79316 0.0
H175 H 0.27648 0.45526 0.57066 0.0
H176 H 0.33393 0.51162 0.6989 0.0
S177 S 0.38785 0.29472 0.84054 0.0
N178 N 0.34196 0.29839 0.73398 0.0
N179 N 0.40389 0.35867 0.87546 0.0
C180 C 0.37155 0.38631 0.79917 0.0
C181 C 0.33778 0.35355 0.72276 0.0
C182 C 0.64039 0.64952 0.47406 0.0
C183 C 0.67204 0.62673 0.56278 0.0
C184 C 0.60714 0.61645 0.40053 0.0
C185 C 0.60414 0.55932 0.41324 0.0
H186 H 0.64154 0.69323 0.46145 0.0
H187 H 0.58423 0.63575 0.33276 0.0
S188 S 0.67792 0.48075 0.63654 0.0
N189 N 0.6977 0.54471 0.66088 0.0
N190 N 0.63484 0.48226 0.5261 0.0
C191 C 0.63473 0.53658 0.50396 0.0
C192 C 0.66863 0.57033 0.57785 0.0
C193 C 0.83511 0.15451 0.85627 0.0
C194 C 0.85652 0.18998 0.93821 0.0
C195 C 0.86889 0.12171 0.80767 0.0
C196 C 0.92523 0.12312 0.83982 0.0
H197 H 0.792 0.15186 0.8303 0.0
H198 H 0.85071 0.09519 0.74456 0.0
S199 S 0.00022 0.21026 1.05202 0.0
N200 N 0.9364 0.22543 1.04874 0.0
N201 N 0.0003 0.1637 0.96072 0.0
C202 C 0.94672 0.15839 0.92294 0.0
C203 C 0.91227 0.19175 0.97133 0.0
C204 C 0.35393 0.3375 0.42952 0.0
C205 C 0.30452 0.36458 0.41568 0.0
C206 C 0.39337 0.35289 0.37391 0.0
C207 C 0.385 0.39637 0.30274 0.0
H208 H 0.36152 0.30348 0.48239 0.0
H209 H 0.43088 0.33038 0.38745 0.0
S210 S 0.26135 0.48069 0.24207 0.0
N211 N 0.24835 0.43651 0.32846 0.0
N212 N 0.32291 0.46684 0.22394 0.0
C213 C 0.33562 0.42441 0.28983 0.0
C214 C 0.29522 0.40811 0.34625 0.0
C215 C 0.14474 0.88106 1.04854 0.0
C216 C 0.12805 0.82638 1.03604 0.0
C217 C 0.12664 0.91975 0.97253 0.0
C218 C 0.09054 0.90545 0.88117 0.0
H219 H 0.17348 0.89348 0.11626 0.0
H220 H 0.14157 0.96133 0.98541 0.0
S221 S 0.03216 0.76747 0.81567 0.0
N222 N 0.07213 0.75949 0.92877 0.0
N223 N 0.0367 0.83275 0.78572 0.0
C224 C 0.07182 0.85109 0.86966 0.0
C225 C 0.09107 0.81137 0.94698 0.0
loop_
_geom_bond_atom_site_label_1
_geom_bond_atom_site_label_2
_geom_bond_distance
_geom_bond_site_symmetry_2
_ccdc_geom_bond_type
C0 N1 1.317 . S
C0 N2 1.348 . S
C0 C3 1.485 1_554 S
N1 C0 1.317 . S
N1 N5 1.370 . S
N2 C0 1.348 . S
N2 C4 1.346 . S
C3 C0 1.485 1_556 S
C3 H7 0.960 . S
C3 H8 0.961 . S
C3 H9 0.960 . S
C4 N2 1.346 . S
C4 N5 1.307 . S
C4 C6 1.486 . S
N5 N1 1.370 . S
N5 C4 1.307 . S
C6 C4 1.486 . S
C6 H10 0.960 . S
C6 H11 0.960 . S
C6 H12 0.959 . S
H7 C3 0.960 . S
H8 C3 0.961 . S
H9 C3 0.960 . S
H10 C6 0.960 . S
H11 C6 0.960 . S
H12 C6 0.959 . S
C13 N14 1.317 . S
C13 N15 1.348 . S
C13 C16 1.485 . S
N14 C13 1.317 . S
N14 N18 1.370 . S
N15 C13 1.348 . S
N15 C17 1.346 . S
C16 C13 1.485 . S
C16 H20 0.960 . S
C16 H21 0.961 . S
C16 H22 0.960 . S
C17 N15 1.346 . S
C17 N18 1.307 . S
C17 C19 1.486 . S
N18 N14 1.370 . S
N18 C17 1.307 . S
C19 C17 1.486 . S
C19 H23 0.960 . S
C19 H24 0.960 . S
C19 H25 0.959 . S
H20 C16 0.960 . S
H21 C16 0.961 . S
H22 C16 0.960 . S
H23 C19 0.960 . S
H24 C19 0.960 . S
H25 C19 0.959 . S
C26 N27 1.317 . S
C26 N28 1.345 1_554 S
C26 C29 1.485 . S
N27 C26 1.317 . S
N27 N31 1.370 1_554 S
N28 C26 1.345 1_556 S
N28 C30 1.349 . S
C29 C26 1.485 . S
C29 H33 0.960 . S
C29 H34 0.961 . S
C29 H35 0.960 . S
C30 N28 1.349 . S
C30 N31 1.307 . S
C30 C32 1.486 . S
N31 N27 1.370 1_556 S
N31 C30 1.307 . S
C32 C30 1.486 . S
C32 H36 0.960 . S
C32 H37 0.960 . S
C32 H38 0.959 . S
H33 C29 0.960 . S
H34 C29 0.961 . S
H35 C29 0.960 . S
H36 C32 0.960 . S
H37 C32 0.960 . S
H38 C32 0.959 . S
C39 N40 1.317 . S
C39 N41 1.348 . S
C39 C42 1.485 . S
N40 C39 1.317 . S
N40 N44 1.370 . S
N41 C39 1.348 . S
N41 C43 1.346 . S
C42 C39 1.485 . S
C42 H46 0.960 . S
C42 H47 0.961 . S
C42 H48 0.960 . S
C43 N41 1.346 . S
C43 N44 1.307 . S
C43 C45 1.486 . S
N44 N40 1.370 . S
N44 C43 1.307 . S
C45 C43 1.486 . S
C45 H49 0.960 . S
C45 H50 0.960 . S
C45 H51 0.959 . S
H46 C42 0.960 . S
H47 C42 0.961 . S
H48 C42 0.960 . S
H49 C45 0.960 . S
H50 C45 0.960 . S
H51 C45 0.959 . S
O52 Mg53 1.990 . S
O52 C66 1.253 1_455 S
Mg53 O52 1.990 . S
Mg53 O56 2.180 . S
Mg53 O57 2.117 . S
Mg53 O71 2.030 . S
O54 Mg55 2.072 1_655 S
O54 C66 1.260 . S
Mg55 O54 2.072 1_455 S
Mg55 O56 2.099 . S
Mg55 O58 2.079 1_545 S
Mg55 O59 2.072 1_455 S
Mg55 O61 2.099 1_445 S
Mg55 O72 2.079 1_545 S
O56 Mg53 2.180 . S
O56 Mg55 2.099 . S
O56 C67 1.279 . S
O57 Mg53 2.117 . S
O57 C67 1.250 . S
O58 Mg55 2.079 1_565 S
O58 C68 1.264 . S
O59 Mg55 2.072 1_655 S
O59 C69 1.260 . S
Mg60 O61 2.180 . S
Mg60 O62 2.030 1_655 S
Mg60 O63 1.990 1_565 S
Mg60 O64 2.117 . S
O61 Mg55 2.099 1_665 S
O61 Mg60 2.180 . S
O61 C70 1.279 . S
O62 Mg60 2.030 1_455 S
O62 C68 1.248 . S
O63 Mg60 1.990 1_545 S
O63 C69 1.253 . S
O64 Mg60 2.117 . S
O64 C70 1.250 . S
C65 O71 1.248 1_565 S
C65 O72 1.264 . S
C66 O52 1.253 1_655 S
C66 O54 1.260 . S
C67 O56 1.279 . S
C67 O57 1.250 . S
C68 O58 1.264 . S
C68 O62 1.248 . S
C69 O59 1.260 . S
C69 O63 1.253 . S
C70 O61 1.279 . S
C70 O64 1.250 . S
O71 Mg53 2.030 . S
O71 C65 1.248 1_545 S
O72 Mg55 2.079 1_565 S
O72 C65 1.264 . S
O73 Mg74 1.990 . S
O73 C87 1.253 . S
Mg74 O73 1.990 . S
Mg74 O77 2.180 . S
Mg74 O78 2.117 . S
Mg74 O92 2.030 . S
O75 Mg76 2.072 . S
O75 C87 1.260 . S
Mg76 O75 2.072 . S
Mg76 O77 2.099 . S
Mg76 O79 2.079 1_554 S
Mg76 O80 2.072 1_554 S
Mg76 O82 2.099 1_554 S
Mg76 O93 2.079 . S
O77 Mg74 2.180 . S
O77 Mg76 2.099 . S
O77 C88 1.279 . S
O78 Mg74 2.117 . S
O78 C88 1.250 . S
O79 Mg76 2.079 1_556 S
O79 C89 1.264 . S
O80 Mg76 2.072 1_556 S
O80 C90 1.260 . S
Mg81 O82 2.180 . S
Mg81 O83 2.030 . S
Mg81 O84 1.990 . S
Mg81 O85 2.117 . S
O82 Mg76 2.099 1_556 S
O82 Mg81 2.180 . S
O82 C91 1.279 1_556 S
O83 Mg81 2.030 . S
O83 C89 1.248 . S
O84 Mg81 1.990 . S
O84 C90 1.253 . S
O85 Mg81 2.117 . S
O85 C91 1.250 1_556 S
C86 O92 1.248 . S
C86 O93 1.264 . S
C87 O73 1.253 . S
C87 O75 1.260 . S
C88 O77 1.279 . S
C88 O78 1.250 . S
C89 O79 1.264 . S
C89 O83 1.248 . S
C90 O80 1.260 . S
C90 O84 1.253 . S
C91 O82 1.279 1_554 S
C91 O85 1.250 1_554 S
O92 Mg74 2.030 . S
O92 C86 1.248 . S
O93 Mg76 2.079 . S
O93 C86 1.264 . S
C94 C95 1.369 . S
C94 C96 1.419 . S
C94 H98 0.930 . S
C95 C94 1.369 . S
C95 C104 1.429 . S
C96 C94 1.419 . S
C96 C97 1.363 . S
C96 H99 0.929 . S
C97 C96 1.363 . S
C97 C103 1.428 . S
H98 C94 0.930 . S
H99 C96 0.929 . S
S100 N101 1.613 . S
S100 N102 1.610 . S
N101 S100 1.613 . S
N101 C104 1.350 . S
N102 S100 1.610 . S
N102 C103 1.351 . S
C103 C97 1.428 . S
C103 N102 1.351 . S
C103 C104 1.434 . S
C104 C95 1.429 . S
C104 N101 1.350 . S
C104 C103 1.434 . S
C105 C106 1.369 . S
C105 C107 1.419 . S
C105 H109 0.930 . S
C106 C105 1.369 . S
C106 C115 1.429 . S
C107 C105 1.419 . S
C107 C108 1.363 . S
C107 H110 0.929 . S
C108 C107 1.363 . S
C108 C114 1.428 . S
H109 C105 0.930 . S
H110 C107 0.929 . S
S111 N112 1.613 . S
S111 N113 1.610 . S
N112 S111 1.613 . S
N112 C115 1.350 1_556 S
N113 S111 1.610 . S
N113 C114 1.351 1_556 S
C114 C108 1.428 . S
C114 N113 1.351 1_554 S
C114 C115 1.434 . S
C115 C106 1.429 . S
C115 N112 1.350 1_554 S
C115 C114 1.434 . S
C116 C117 1.369 . S
C116 C118 1.419 . S
C116 H120 0.930 . S
C117 C116 1.369 . S
C117 C126 1.429 . S
C118 C116 1.419 . S
C118 C119 1.363 . S
C118 H121 0.929 . S
C119 C118 1.363 . S
C119 C125 1.428 . S
H120 C116 0.930 . S
H121 C118 0.929 . S
S122 N123 1.613 . S
S122 N124 1.610 . S
N123 S122 1.613 . S
N123 C126 1.350 . S
N124 S122 1.610 . S
N124 C125 1.351 . S
C125 C119 1.428 . S
C125 N124 1.351 . S
C125 C126 1.434 . S
C126 C117 1.429 . S
C126 N123 1.350 . S
C126 C125 1.434 . S
C127 C128 1.369 1_554 S
C127 C129 1.419 . S
C127 H131 0.930 . S
C128 C127 1.369 1_556 S
C128 C137 1.429 . S
C129 C127 1.419 . S
C129 C130 1.363 . S
C129 H132 0.929 . S
C130 C129 1.363 . S
C130 C136 1.428 1_554 S
H131 C127 0.930 . S
H132 C129 0.929 . S
S133 N134 1.613 . S
S133 N135 1.610 . S
N134 S133 1.613 . S
N134 C137 1.350 . S
N135 S133 1.610 . S
N135 C136 1.351 . S
C136 C130 1.428 1_556 S
C136 N135 1.351 . S
C136 C137 1.434 . S
C137 C128 1.429 . S
C137 N134 1.350 . S
C137 C136 1.434 . S
C138 C139 1.369 . S
C138 C140 1.419 . S
C138 H142 0.930 . S
C139 C138 1.369 . S
C139 C148 1.429 . S
C140 C138 1.419 . S
C140 C141 1.363 . S
C140 H143 0.929 . S
C141 C140 1.363 . S
C141 C147 1.428 . S
H142 C138 0.930 . S
H143 C140 0.929 . S
S144 N145 1.613 . S
S144 N146 1.610 . S
N145 S144 1.613 . S
N145 C148 1.350 . S
N146 S144 1.610 . S
N146 C147 1.351 . S
C147 C141 1.428 . S
C147 N146 1.351 . S
C147 C148 1.434 . S
C148 C139 1.429 . S
C148 N145 1.350 . S
C148 C147 1.434 . S
C149 C150 1.369 . S
C149 C151 1.419 . S
C149 H153 0.930 . S
C150 C149 1.369 . S
C150 C159 1.429 . S
C151 C149 1.419 . S
C151 C152 1.363 . S
C151 H154 0.929 . S
C152 C151 1.363 . S
C152 C158 1.428 . S
H153 C149 0.930 . S
H154 C151 0.929 . S
S155 N156 1.613 . S
S155 N157 1.610 . S
N156 S155 1.613 . S
N156 C159 1.350 . S
N157 S155 1.610 . S
N157 C158 1.351 . S
C158 C152 1.428 . S
C158 N157 1.351 . S
C158 C159 1.434 . S
C159 C150 1.429 . S
C159 N156 1.350 . S
C159 C158 1.434 . S
C160 C161 1.369 . S
C160 C162 1.419 . S
C160 H164 0.930 . S
C161 C160 1.369 . S
C161 C170 1.429 . S
C162 C160 1.419 . S
C162 C163 1.363 . S
C162 H165 0.929 . S
C163 C162 1.363 . S
C163 C169 1.428 . S
H164 C160 0.930 . S
H165 C162 0.929 . S
S166 N167 1.613 . S
S166 N168 1.610 . S
N167 S166 1.613 . S
N167 C170 1.350 . S
N168 S166 1.610 . S
N168 C169 1.351 . S
C169 C163 1.428 . S
C169 N168 1.351 . S
C169 C170 1.434 . S
C170 C161 1.429 . S
C170 N167 1.350 . S
C170 C169 1.434 . S
C171 C172 1.369 . S
C171 C173 1.419 . S
C171 H175 0.930 . S
C172 C171 1.369 . S
C172 C181 1.429 . S
C173 C171 1.419 . S
C173 C174 1.363 . S
C173 H176 0.929 . S
C174 C173 1.363 . S
C174 C180 1.428 . S
H175 C171 0.930 . S
H176 C173 0.929 . S
S177 N178 1.613 . S
S177 N179 1.610 . S
N178 S177 1.613 . S
N178 C181 1.350 . S
N179 S177 1.610 . S
N179 C180 1.351 . S
C180 C174 1.428 . S
C180 N179 1.351 . S
C180 C181 1.434 . S
C181 C172 1.429 . S
C181 N178 1.350 . S
C181 C180 1.434 . S
C182 C183 1.369 . S
C182 C184 1.419 . S
C182 H186 0.930 . S
C183 C182 1.369 . S
C183 C192 1.429 . S
C184 C182 1.419 . S
C184 C185 1.363 . S
C184 H187 0.929 . S
C185 C184 1.363 . S
C185 C191 1.428 . S
H186 C182 0.930 . S
H187 C184 0.929 . S
S188 N189 1.613 . S
S188 N190 1.610 . S
N189 S188 1.613 . S
N189 C192 1.350 . S
N190 S188 1.610 . S
N190 C191 1.351 . S
C191 C185 1.428 . S
C191 N190 1.351 . S
C191 C192 1.434 . S
C192 C183 1.429 . S
C192 N189 1.350 . S
C192 C191 1.434 . S
C193 C194 1.369 . S
C193 C195 1.419 . S
C193 H197 0.930 . S
C194 C193 1.369 . S
C194 C203 1.429 . S
C195 C193 1.419 . S
C195 C196 1.363 . S
C195 H198 0.929 . S
C196 C195 1.363 . S
C196 C202 1.428 . S
H197 C193 0.930 . S
H198 C195 0.929 . S
S199 N200 1.613 1_455 S
S199 N201 1.610 . S
N200 S199 1.613 1_655 S
N200 C203 1.350 . S
N201 S199 1.610 . S
N201 C202 1.351 1_455 S
C202 C196 1.428 . S
C202 N201 1.351 1_655 S
C202 C203 1.434 . S
C203 C194 1.429 . S
C203 N200 1.350 . S
C203 C202 1.434 . S
C204 C205 1.369 . S
C204 C206 1.419 . S
C204 H208 0.930 . S
C205 C204 1.369 . S
C205 C214 1.429 . S
C206 C204 1.419 . S
C206 C207 1.363 . S
C206 H209 0.929 . S
C207 C206 1.363 . S
C207 C213 1.428 . S
H208 C204 0.930 . S
H209 C206 0.929 . S
S210 N211 1.613 . S
S210 N212 1.610 . S
N211 S210 1.613 . S
N211 C214 1.350 . S
N212 S210 1.610 . S
N212 C213 1.351 . S
C213 C207 1.428 . S
C213 N212 1.351 . S
C213 C214 1.434 . S
C214 C205 1.429 . S
C214 N211 1.350 . S
C214 C213 1.434 . S
C215 C216 1.369 . S
C215 C217 1.419 . S
C215 H219 0.930 . S
C216 C215 1.369 . S
C216 C225 1.429 . S
C217 C215 1.419 . S
C217 C218 1.363 . S
C217 H220 0.929 . S
C218 C217 1.363 . S
C218 C224 1.428 . S
H219 C215 0.930 . S
H220 C217 0.929 . S
S221 N222 1.613 . S
S221 N223 1.610 . S
N222 S221 1.613 . S
N222 C225 1.350 . S
N223 S221 1.610 . S
N223 C224 1.351 . S
C224 C218 1.428 . S
C224 N223 1.351 . S
C224 C225 1.434 . S
C225 C216 1.429 . S
C225 N222 1.350 . S
C225 C224 1.434 . S
C97 C67 1.295 . S
C95 N41 1.484 . S
C106 N2 1.481 . S
C108 C91 1.285 . S
C117 N15 1.582 . S
C119 C70 1.365 . S
C128 N28 1.579 . S
C130 C88 1.372 . S
C141 C68 1.452 . S
C139 N5 1.486 . S
C152 C90 1.497 . S
C150 N14 1.570 . S
C161 N27 1.541 . S
C163 C69 1.502 . S
C172 N44 1.478 . S
C174 C89 1.436 . S
C185 C87 1.499 . S
C183 N18 1.546 . S
C196 C66 1.496 . S
C194 N31 1.573 . S
C207 C86 1.455 . S
C205 N40 1.484 . S
C216 N1 1.482 1_556 S
C218 C65 1.438 . S
