# Generated by pormake.
# Topology rtl, (3,6)-cn, num edge types: 1
# Building blocks:
#     Node 0, Type 0, BuildingBlock: INOVEN_clean_linker_0, # of connection points: 3
#     Node 1, Type 0, BuildingBlock: INOVEN_clean_linker_0, # of connection points: 3
#     Node 2, Type 0, BuildingBlock: INOVEN_clean_linker_0, # of connection points: 3
#     Node 3, Type 0, BuildingBlock: INOVEN_clean_linker_0, # of connection points: 3
#     Node 4, Type 1, BuildingBlock: LEVNOQ01_clean_sbu_1, # of connection points: 6
#     Node 5, Type 1, BuildingBlock: LEVNOQ01_clean_sbu_1, # of connection points: 6
#     Edge 6, Type (0, 1), None
#     Edge 7, Type (0, 1), None
#     Edge 8, Type (0, 1), None
#     Edge 9, Type (0, 1), None
#     Edge 10, Type (0, 1), None
#     Edge 11, Type (0, 1), None
#     Edge 12, Type (0, 1), None
#     Edge 13, Type (0, 1), None
#     Edge 14, Type (0, 1), None
#     Edge 15, Type (0, 1), None
#     Edge 16, Type (0, 1), None
#     Edge 17, Type (0, 1), None
# Relax obj value: 0.017
# Max RMSD: 0.099
# Mean RMSD: 0.073
data_MOF--net-rtl--node1-LEVNOQ01_clean_sbu_1--node2-INOVEN_clean_linker_0--edge1-none
_symmetry_space_group_name_H-M    P1
_symmetry_Int_Tables_number       1
_symmetry_cell_setting            triclinic
loop_
_symmetry_equiv_pos_as_xyz
'x, y, z'
_cell_length_a     15.826473
_cell_length_b     16.047791
_cell_length_c     9.33236
_cell_angle_alpha  89.198759
_cell_angle_beta   108.27261
_cell_angle_gamma 91.490135
loop_
_atom_site_label
_atom_site_type_symbol
_atom_site_fract_x
_atom_site_fract_y
_atom_site_fract_z
_atom_type_partial_charge
H0 H 0.25662 0.84926 0.92025 0.0
H1 H 0.12939 0.00257 0.15942 0.0
H2 H 0.19899 0.75077 0.31006 0.0
N3 N 0.26757 0.71751 0.08505 0.0
N4 N 0.34755 0.69883 0.12487 0.0
C5 C 0.23465 0.85937 1.01759 0.0
C6 C 0.19468 0.93373 1.03038 0.0
C7 C 0.24038 0.79491 0.12222 0.0
C8 C 0.2024 0.80367 0.2385 0.0
C9 C 0.16453 0.88008 0.25586 0.0
C10 C 0.16379 0.94567 0.15372 0.0
H11 H 0.68891 0.76742 0.86398 0.0
H12 H 0.65995 0.52267 0.67523 0.0
H13 H 0.72598 0.72629 0.43675 0.0
N14 N 0.75355 0.84443 0.67652 0.0
N15 N 0.80725 0.88828 0.63086 0.0
C16 C 0.69846 0.72521 0.78092 0.0
C17 C 0.66876 0.64226 0.77937 0.0
C18 C 0.73302 0.7565 0.6684 0.0
C19 C 0.72795 0.70315 0.54578 0.0
C20 C 0.71094 0.61711 0.55664 0.0
C21 C 0.68262 0.58719 0.67543 0.0
H22 H 0.81235 0.26325 0.7304 0.0
H23 H 0.96503 0.06931 1.00517 0.0
H24 H 0.73605 0.15986 0.10271 0.0
N25 N 0.6903 0.27013 0.86363 0.0
N26 N 0.66105 0.32237 0.9339 0.0
C27 C 0.82485 0.22192 0.82737 0.0
C28 C 0.89416 0.16571 0.85738 0.0
C29 C 0.76889 0.22278 0.91814 0.0
C30 C 0.78241 0.16476 0.03867 0.0
C31 C 0.85518 0.11106 0.07239 0.0
C32 C 0.9096 0.11152 0.98039 0.0
H33 H 0.35819 0.26077 0.24178 0.0
H34 H 0.53406 0.38207 0.63465 0.0
H35 H 0.25632 0.35741 0.57398 0.0
N36 N 0.2176 0.24824 0.33577 0.0
N37 N 0.16365 0.20689 0.3851 0.0
C38 C 0.37035 0.2865 0.35341 0.0
C39 C 0.45324 0.32433 0.42839 0.0
C40 C 0.30137 0.28582 0.41866 0.0
C41 C 0.31336 0.33566 0.54631 0.0
C42 C 0.39912 0.36116 0.63501 0.0
C43 C 0.46971 0.35378 0.57572 0.0
O44 O 0.02237 0.20837 0.80174 0.0
Mg45 Mg 0.14716 0.1712 0.78453 0.0
O46 O 0.94801 0.09513 0.68753 0.0
Mg47 Mg 0.02254 0.02504 0.55053 0.0
O48 O 0.11901 0.13116 0.56864 0.0
O49 O 0.21382 0.23323 0.6496 0.0
O50 O 0.10161 0.95664 0.41255 0.0
O51 O 0.93195 0.08153 0.32698 0.0
Mg52 Mg 0.91694 0.87202 0.32675 0.0
O53 O 0.92316 0.91811 0.53054 0.0
O54 O 0.04512 0.83136 0.33451 0.0
O55 O 0.86639 0.97585 0.17633 0.0
O56 O 0.83665 0.81137 0.43888 0.0
C57 C 0.17018 -0.00738 0.90326 0.0
C58 C 0.95328 0.16113 0.76528 0.0
C59 C 0.16904 0.18832 0.53799 0.0
C60 C 0.10612 0.88665 0.35129 0.0
C61 C 0.87908 0.05382 0.20236 0.0
C62 C 0.86179 0.86652 0.54209 0.0
O63 O 0.19657 0.06801 0.92825 0.0
O64 O 0.1124 0.96918 0.77926 0.0
O65 O 0.75312 0.49737 0.45441 0.0
Mg66 Mg 0.7158 0.37553 0.35448 0.0
O67 O 0.62876 0.56118 0.32233 0.0
Mg68 Mg 0.55364 0.4929 0.10223 0.0
O69 O 0.66081 0.40464 0.13753 0.0
O70 O 0.75801 0.30764 0.18688 0.0
O71 O 0.48742 0.41792 0.87287 0.0
O72 O 0.63132 0.57681 0.98107 0.0
Mg73 Mg 0.42694 0.56482 0.87551 0.0
O74 O 0.44201 0.59292 0.09479 0.0
O75 O 0.35223 0.46184 0.77114 0.0
O76 O 0.5228 0.61831 0.78315 0.0
O77 O 0.33839 0.64612 0.89195 0.0
C78 C 0.51585 0.34978 0.34706 0.0
C79 C 0.70146 0.55943 0.43143 0.0
C80 C 0.69754 0.34735 0.08709 0.0
C81 C 0.41151 0.41139 0.77147 0.0
C82 C 0.60493 0.61626 0.85679 0.0
C83 C 0.37463 0.64125 0.03613 0.0
O84 O 0.59787 0.33222 0.40681 0.0
O85 O 0.48915 0.40288 0.23882 0.0
loop_
_geom_bond_atom_site_label_1
_geom_bond_atom_site_label_2
_geom_bond_distance
_geom_bond_site_symmetry_2
_ccdc_geom_bond_type
H0 C5 0.929 . S
H1 C10 0.931 . S
H2 C8 0.930 . S
N3 N4 1.234 . S
N3 C7 1.453 . S
N4 N3 1.234 . S
C5 H0 0.929 . S
C5 C6 1.373 . S
C5 C7 1.368 1_556 S
C6 C5 1.373 . S
C6 C10 1.397 1_556 S
C7 N3 1.453 . S
C7 C5 1.368 1_554 S
C7 C8 1.373 . S
C8 H2 0.930 . S
C8 C7 1.373 . S
C8 C9 1.371 . S
C9 C8 1.371 . S
C9 C10 1.383 . S
C10 H1 0.931 . S
C10 C6 1.397 1_554 S
C10 C9 1.383 . S
H11 C16 0.929 . S
H12 C21 0.931 . S
H13 C19 0.930 . S
N14 N15 1.234 . S
N14 C18 1.453 . S
N15 N14 1.234 . S
C16 H11 0.929 . S
C16 C17 1.373 . S
C16 C18 1.368 . S
C17 C16 1.373 . S
C17 C21 1.397 . S
C18 N14 1.453 . S
C18 C16 1.368 . S
C18 C19 1.373 . S
C19 H13 0.930 . S
C19 C18 1.373 . S
C19 C20 1.371 . S
C20 C19 1.371 . S
C20 C21 1.383 . S
C21 H12 0.931 . S
C21 C17 1.397 . S
C21 C20 1.383 . S
H22 C27 0.929 . S
H23 C32 0.931 1_554 S
H24 C30 0.930 . S
N25 N26 1.234 1_556 S
N25 C29 1.453 . S
N26 N25 1.234 1_554 S
C27 H22 0.929 . S
C27 C28 1.373 . S
C27 C29 1.368 . S
C28 C27 1.373 . S
C28 C32 1.403 . S
C29 N25 1.453 . S
C29 C27 1.368 . S
C29 C30 1.373 1_556 S
C30 H24 0.930 . S
C30 C29 1.373 1_554 S
C30 C31 1.371 . S
C31 C30 1.371 . S
C31 C32 1.378 1_554 S
C32 H23 0.931 1_556 S
C32 C28 1.403 . S
C32 C31 1.378 1_556 S
H33 C38 0.929 . S
H34 C43 0.931 . S
H35 C41 0.930 . S
N36 N37 1.234 . S
N36 C40 1.453 . S
N37 N36 1.234 . S
C38 H33 0.929 . S
C38 C39 1.373 . S
C38 C40 1.368 . S
C39 C38 1.373 . S
C39 C43 1.397 . S
C40 N36 1.453 . S
C40 C38 1.368 . S
C40 C41 1.373 . S
C41 H35 0.930 . S
C41 C40 1.373 . S
C41 C42 1.371 . S
C42 C41 1.371 . S
C42 C43 1.383 . S
C43 H34 0.931 . S
C43 C39 1.397 . S
C43 C42 1.383 . S
O44 Mg45 1.990 . S
O44 C58 1.253 1_455 S
Mg45 O44 1.990 . S
Mg45 O48 2.180 . S
Mg45 O49 2.117 . S
Mg45 O63 2.030 . S
O46 Mg47 2.072 1_655 S
O46 C58 1.260 . S
Mg47 O46 2.072 1_455 S
Mg47 O48 2.099 . S
Mg47 O50 2.079 1_545 S
Mg47 O51 2.072 1_455 S
Mg47 O53 2.099 1_445 S
Mg47 O64 2.079 1_545 S
O48 Mg45 2.180 . S
O48 Mg47 2.099 . S
O48 C59 1.279 . S
O49 Mg45 2.117 . S
O49 C59 1.250 . S
O50 Mg47 2.079 1_565 S
O50 C60 1.264 . S
O51 Mg47 2.072 1_655 S
O51 C61 1.260 . S
Mg52 O53 2.180 . S
Mg52 O54 2.030 1_655 S
Mg52 O55 1.990 1_565 S
Mg52 O56 2.117 . S
O53 Mg47 2.099 1_665 S
O53 Mg52 2.180 . S
O53 C62 1.279 . S
O54 Mg52 2.030 1_455 S
O54 C60 1.248 . S
O55 Mg52 1.990 1_545 S
O55 C61 1.253 . S
O56 Mg52 2.117 . S
O56 C62 1.250 . S
C57 O63 1.248 1_565 S
C57 O64 1.264 . S
C58 O44 1.253 1_655 S
C58 O46 1.260 . S
C59 O48 1.279 . S
C59 O49 1.250 . S
C60 O50 1.264 . S
C60 O54 1.248 . S
C61 O51 1.260 . S
C61 O55 1.253 . S
C62 O53 1.279 . S
C62 O56 1.250 . S
O63 Mg45 2.030 . S
O63 C57 1.248 1_545 S
O64 Mg47 2.079 1_565 S
O64 C57 1.264 . S
O65 Mg66 1.990 . S
O65 C79 1.253 . S
Mg66 O65 1.990 . S
Mg66 O69 2.180 . S
Mg66 O70 2.117 . S
Mg66 O84 2.030 . S
O67 Mg68 2.072 . S
O67 C79 1.260 . S
Mg68 O67 2.072 . S
Mg68 O69 2.099 . S
Mg68 O71 2.079 1_554 S
Mg68 O72 2.072 1_554 S
Mg68 O74 2.099 1_554 S
Mg68 O85 2.079 . S
O69 Mg66 2.180 . S
O69 Mg68 2.099 . S
O69 C80 1.279 . S
O70 Mg66 2.117 . S
O70 C80 1.250 . S
O71 Mg68 2.079 1_556 S
O71 C81 1.264 . S
O72 Mg68 2.072 1_556 S
O72 C82 1.260 . S
Mg73 O74 2.180 . S
Mg73 O75 2.030 . S
Mg73 O76 1.990 . S
Mg73 O77 2.117 . S
O74 Mg68 2.099 1_556 S
O74 Mg73 2.180 . S
O74 C83 1.279 1_556 S
O75 Mg73 2.030 . S
O75 C81 1.248 . S
O76 Mg73 1.990 . S
O76 C82 1.253 . S
O77 Mg73 2.117 . S
O77 C83 1.250 1_556 S
C78 O84 1.248 . S
C78 O85 1.264 . S
C79 O65 1.253 . S
C79 O67 1.260 . S
C80 O69 1.279 . S
C80 O70 1.250 . S
C81 O71 1.264 . S
C81 O75 1.248 . S
C82 O72 1.260 . S
C82 O76 1.253 . S
C83 O74 1.279 1_554 S
C83 O77 1.250 1_554 S
O84 Mg66 2.030 . S
O84 C78 1.248 . S
O85 Mg68 2.079 . S
O85 C78 1.264 . S
C59 N37 1.141 . S
N4 C83 1.555 . S
N15 C62 1.397 . S
N26 C80 1.297 . S
C60 C9 1.494 . S
C82 C17 1.534 . S
C31 C61 1.608 . S
C42 C81 1.376 . S
C79 C20 1.476 . S
C58 C28 1.420 . S
C78 C39 1.416 . S
C6 C57 1.313 . S
