# Generated by pormake.
# Topology pts, (4,4)-cn, num edge types: 1
# Building blocks:
#     Node 0, Type 0, BuildingBlock: KUFVIS_clean_linker_0, # of connection points: 4
#     Node 1, Type 0, BuildingBlock: KUFVIS_clean_linker_0, # of connection points: 4
#     Node 2, Type 1, BuildingBlock: QUQFOY_clean_sbu_1, # of connection points: 4
#     Node 3, Type 1, BuildingBlock: QUQFOY_clean_sbu_1, # of connection points: 4
#     Edge 4, Type (0, 1), BuildingBlock: OJICUG_clean_linker_0, # of connection points: 2
#     Edge 5, Type (0, 1), BuildingBlock: OJICUG_clean_linker_0, # of connection points: 2
#     Edge 6, Type (0, 1), BuildingBlock: OJICUG_clean_linker_0, # of connection points: 2
#     Edge 7, Type (0, 1), BuildingBlock: OJICUG_clean_linker_0, # of connection points: 2
#     Edge 8, Type (0, 1), BuildingBlock: OJICUG_clean_linker_0, # of connection points: 2
#     Edge 9, Type (0, 1), BuildingBlock: OJICUG_clean_linker_0, # of connection points: 2
#     Edge 10, Type (0, 1), BuildingBlock: OJICUG_clean_linker_0, # of connection points: 2
#     Edge 11, Type (0, 1), BuildingBlock: OJICUG_clean_linker_0, # of connection points: 2
# Relax obj value: 0.102
# Max RMSD: 0.272
# Mean RMSD: 0.185
data_MOF--net-pts--node1-QUQFOY_clean_sbu_1--node2-KUFVIS_clean_linker_0--edge1-OJICUG_clean_linker_0
_symmetry_space_group_name_H-M    P1
_symmetry_Int_Tables_number       1
_symmetry_cell_setting            triclinic
loop_
_symmetry_equiv_pos_as_xyz
'x, y, z'
_cell_length_a     17.599018
_cell_length_b     17.031162
_cell_length_c     30.158768
_cell_angle_alpha  90.046053
_cell_angle_beta   89.939283
_cell_angle_gamma 93.952255
loop_
_atom_site_label
_atom_site_type_symbol
_atom_site_fract_x
_atom_site_fract_y
_atom_site_fract_z
_atom_type_partial_charge
H0 H 0.26332 0.17445 -0.05332 0.0
H1 H 0.45805 1.10319 0.8771 0.0
H2 H 0.46878 0.14877 0.01871 0.0
H3 H 0.56791 1.08493 0.01885 0.0
H4 H 0.77343 1.05737 -0.05312 0.0
H5 H 0.57855 0.12695 0.87697 0.0
C6 C 0.32313 0.16268 -0.05307 0.0
C7 C 0.36228 0.16124 -0.01282 0.0
C8 C 0.3585 0.14327 0.9073 0.0
C9 C 0.43407 0.12219 0.90795 0.0
C10 C 0.47707 0.12537 -0.05232 0.0
C11 C 0.43947 0.14529 -0.01271 0.0
C12 C 0.55972 1.10675 -0.05229 0.0
C13 C 0.59731 1.08777 -0.01259 0.0
C14 C 0.6745 1.07182 -0.0126 0.0
C15 C 0.71368 1.06934 -0.0529 0.0
C16 C 0.67824 1.08772 0.90732 0.0
C17 C 0.60265 1.10884 0.90793 0.0
H18 H 1.01924 0.88666 0.44303 0.0
H19 H 0.02224 0.67235 0.51588 0.0
H20 H 0.06669 0.67486 0.37517 0.0
H21 H 1.01943 0.55679 0.37445 0.0
H22 H 1.0099 0.34167 0.44737 0.0
H23 H 0.06328 0.55866 0.51537 0.0
C24 C 0.02872 0.82457 0.44379 0.0
C25 C 0.04247 0.78505 0.40405 0.0
C26 C 0.02579 0.78494 0.48457 0.0
C27 C 0.02886 0.70259 0.48465 0.0
C28 C 0.04049 0.66009 0.44515 0.0
C29 C 0.05108 0.70356 0.40542 0.0
C30 C 0.0386 0.57107 0.44521 0.0
C31 C 0.02518 0.52727 0.40572 0.0
C32 C 1.01918 0.44444 0.40588 0.0
C33 C 1.02096 0.40498 0.4466 0.0
C34 C 0.03545 0.4461 0.48631 0.0
C35 C 0.04707 0.52857 0.48498 0.0
O36 O 0.92928 1.03158 0.13964 0.0
Cd37 Cd 0.02911 1.0375 0.17608 0.0
Cd38 Cd 1.00617 0.19422 0.17609 0.0
O39 O 0.90577 0.1569 0.1449 0.0
O40 O 0.04052 0.93029 0.2018 0.0
O41 O 0.02935 1.03734 0.24233 0.0
C42 C 0.03747 0.96273 0.24039 0.0
C43 C 1.0048 0.26597 0.24183 0.0
C44 C 0.88726 1.08756 0.13121 0.0
C45 C 0.14565 0.14429 0.12895 0.0
O46 O 0.10386 0.20045 0.13767 0.0
O47 O 0.12752 1.07497 0.14284 0.0
O48 O 0.99271 0.29916 0.20426 0.0
O49 O 1.01695 0.19212 0.24187 0.0
O50 O 0.91217 0.16784 0.74697 0.0
Cd51 Cd 1.01456 0.19254 0.71461 0.0
Cd52 Cd 1.02106 1.03363 0.71466 0.0
O53 O 0.92228 1.03961 0.75097 0.0
O54 O 1.01417 0.30065 0.68821 0.0
O55 O 0.02475 0.1924 0.64869 0.0
C56 C 0.02217 0.26786 0.65004 0.0
C57 C 1.01994 0.96119 0.6491 0.0
C58 C 0.88713 1.10021 0.76049 0.0
C59 C 0.14583 0.12575 0.76278 0.0
O60 O 0.12124 1.05792 0.74918 0.0
O61 O 0.11105 0.1864 0.75279 0.0
O62 O 1.01886 0.9262 0.68708 0.0
O63 O 0.02184 1.03701 0.64853 0.0
C64 C 0.3189 1.10577 0.06015 0.0
C65 C 0.31903 0.16712 0.02907 0.0
H66 H 0.26358 1.0503 0.11631 0.0
C67 C 0.26862 0.22676 0.03489 0.0
H68 H 0.35678 1.05873 0.05618 0.0
C69 C 0.21559 0.22234 0.0695 0.0
C70 C 0.21118 0.15743 0.09841 0.0
H71 H 0.2678 0.27473 0.01137 0.0
H72 H 0.17498 0.26716 0.0718 0.0
C73 C 0.26513 1.10067 0.09434 0.0
C74 C 0.06452 0.32722 0.5313 0.0
C75 C 0.03637 0.40254 0.52921 0.0
H76 H 0.08117 0.22554 0.57082 0.0
C77 C 1.00592 0.43421 0.56799 0.0
H78 H 0.09007 0.3015 0.50253 0.0
C79 C 1.00262 0.39117 0.60753 0.0
C80 C 0.02843 0.31502 0.60895 0.0
H81 H 0.98266 0.49143 0.56763 0.0
H82 H 0.97798 0.41671 0.63665 0.0
C83 C 0.05982 0.2837 0.57054 0.0
C84 C 0.7164 0.12716 0.0608 0.0
C85 C 0.71728 1.06615 0.02948 0.0
H86 H 0.76968 0.18184 0.11784 0.0
C87 C 0.76725 1.00629 0.0357 0.0
H88 H 0.67877 0.17434 0.0566 0.0
C89 C 0.81878 1.01005 0.07103 0.0
C90 C 0.82224 1.07457 0.10029 0.0
H91 H 0.76877 0.95849 0.01207 0.0
H92 H 0.85914 0.96506 0.07361 0.0
C93 C 0.76875 0.13165 0.09571 0.0
C94 C 0.05823 0.90653 0.53026 0.0
C95 C 0.02173 0.83041 0.52692 0.0
H96 H 0.08503 1.00756 0.57107 0.0
C97 C 0.98398 0.79812 0.56466 0.0
H98 H 0.08977 0.93306 0.50262 0.0
C99 C 0.98416 0.84011 0.6046 0.0
C100 C 1.02005 0.91613 0.60734 0.0
H101 H 0.95369 0.74068 0.56351 0.0
H102 H 0.95504 0.81366 0.63313 0.0
C103 C 0.05633 0.94923 0.56971 0.0
C104 C 0.30343 1.07272 0.84055 0.0
C105 C 0.31397 0.14192 0.86575 0.0
H106 H 0.24159 1.01306 0.78783 0.0
C107 C 0.27561 0.2081 0.85359 0.0
H108 H 0.33232 1.02087 0.8495 0.0
C109 C 0.22452 0.20412 0.81822 0.0
C110 C 0.20981 0.13338 0.79469 0.0
H111 H 0.28332 0.26223 0.87247 0.0
H112 H 0.19377 0.25548 0.81084 0.0
C113 C 0.25138 1.0683 0.80542 0.0
C114 C 0.04922 0.32735 0.35987 0.0
C115 C 1.01311 0.39836 0.36368 0.0
H116 H 0.07393 0.22981 0.31886 0.0
C117 C 0.97336 0.42501 0.32671 0.0
H118 H 0.08204 0.30561 0.38702 0.0
C119 C 0.97081 0.38231 0.28697 0.0
C120 C 1.00654 0.31129 0.28364 0.0
H121 H 0.94363 0.47849 0.32841 0.0
H122 H 0.94013 0.40443 0.25902 0.0
C123 C 0.04518 0.28398 0.32058 0.0
C124 C 0.73117 0.15544 0.83904 0.0
C125 C 0.72227 1.08761 0.86549 0.0
H126 H 0.79045 0.2128 0.78463 0.0
C127 C 0.76075 1.02119 0.85378 0.0
H128 H 0.70209 0.20743 0.84754 0.0
C129 C 0.81031 1.02368 0.81759 0.0
C130 C 0.82347 1.09321 0.79277 0.0
H131 H 0.7542 0.96801 0.87352 0.0
H132 H 0.84133 0.9723 0.81061 0.0
C133 C 0.78176 0.15842 0.80312 0.0
C134 C 1.01799 0.79328 0.32167 0.0
C135 C 0.04591 0.82905 0.36112 0.0
H136 H 0.99441 0.80728 0.25246 0.0
C137 C 0.07412 0.90849 0.35954 0.0
H138 H 0.99462 0.7328 0.32146 0.0
C139 C 0.07133 0.95169 0.32031 0.0
C140 C 0.04253 0.91601 0.28132 0.0
H141 H 0.09818 0.9378 0.38868 0.0
H142 H 0.09223 1.01305 0.32043 0.0
C143 C 1.01722 0.83607 0.2821 0.0
loop_
_geom_bond_atom_site_label_1
_geom_bond_atom_site_label_2
_geom_bond_distance
_geom_bond_site_symmetry_2
_ccdc_geom_bond_type
H0 C6 0.930 1_565 S
H1 C9 0.931 . S
H2 C11 0.932 . S
H3 C13 0.930 . S
H4 C15 0.930 . S
H5 C17 0.931 . S
C6 H0 0.930 1_545 S
C6 C7 1.380 1_545 S
C6 C8 1.394 1_554 S
C7 C6 1.380 1_565 S
C7 C11 1.382 . S
C8 C6 1.394 1_556 S
C8 C9 1.400 . S
C9 H1 0.931 . S
C9 C8 1.400 . S
C9 C10 1.375 1_556 S
C10 C9 1.375 1_554 S
C10 C11 1.414 1_545 S
C10 C12 1.501 . S
C11 H2 0.932 . S
C11 C7 1.382 . S
C11 C10 1.414 1_565 S
C12 C10 1.501 . S
C12 C13 1.384 . S
C12 C17 1.408 1_544 S
C13 H3 0.930 . S
C13 C12 1.384 . S
C13 C14 1.389 . S
C14 C13 1.389 . S
C14 C15 1.405 . S
C15 H4 0.930 . S
C15 C14 1.405 . S
C15 C16 1.363 1_544 S
C16 C15 1.363 1_566 S
C16 C17 1.400 . S
C17 H5 0.931 . S
C17 C12 1.408 1_566 S
C17 C16 1.400 . S
H18 C24 0.930 . S
H19 C27 0.931 . S
H20 C29 0.931 . S
H21 C31 0.930 . S
H22 C33 0.930 . S
H23 C35 0.931 . S
C24 H18 0.930 . S
C24 C25 1.380 . S
C24 C26 1.394 1_455 S
C25 C24 1.380 . S
C25 C29 1.382 . S
C26 C24 1.394 1_655 S
C26 C27 1.400 . S
C27 H19 0.931 . S
C27 C26 1.400 . S
C27 C28 1.375 . S
C28 C27 1.375 . S
C28 C29 1.415 1_655 S
C28 C30 1.501 . S
C29 H20 0.931 . S
C29 C25 1.382 . S
C29 C28 1.415 1_455 S
C30 C28 1.501 . S
C30 C31 1.384 . S
C30 C35 1.408 1_655 S
C31 H21 0.930 . S
C31 C30 1.384 . S
C31 C32 1.389 . S
C32 C31 1.389 . S
C32 C33 1.405 . S
C33 H22 0.930 . S
C33 C32 1.405 . S
C33 C34 1.364 1_655 S
C34 C33 1.364 1_455 S
C34 C35 1.400 . S
C35 H23 0.931 . S
C35 C30 1.408 1_455 S
C35 C34 1.400 . S
O36 Cd37 2.223 1_655 S
O36 C44 1.315 . S
Cd37 O36 2.223 1_455 S
Cd37 O40 2.297 1_455 S
Cd37 O41 2.439 1_455 S
Cd37 O47 2.240 1_565 S
Cd38 O39 2.240 1_545 S
Cd38 O46 2.223 1_655 S
Cd38 O48 2.297 1_655 S
Cd38 O49 2.439 1_655 S
O39 Cd38 2.240 1_565 S
O39 C44 1.279 . S
O40 Cd37 2.297 1_655 S
O40 C42 1.247 . S
O41 Cd37 2.439 1_655 S
O41 C42 1.208 . S
C42 O40 1.247 . S
C42 O41 1.208 . S
C43 O48 1.247 . S
C43 O49 1.208 . S
C44 O36 1.315 . S
C44 O39 1.279 . S
C45 O46 1.315 . S
C45 O47 1.279 . S
O46 Cd38 2.223 1_455 S
O46 C45 1.315 . S
O47 Cd37 2.240 1_545 S
O47 C45 1.279 . S
O48 Cd38 2.297 1_455 S
O48 C43 1.247 . S
O49 Cd38 2.439 1_455 S
O49 C43 1.208 . S
O50 Cd51 2.223 1_655 S
O50 C58 1.315 . S
Cd51 O50 2.223 1_455 S
Cd51 O54 2.297 1_455 S
Cd51 O55 2.439 1_455 S
Cd51 O61 2.240 1_545 S
Cd52 O53 2.240 1_565 S
Cd52 O60 2.223 1_655 S
Cd52 O62 2.297 1_655 S
Cd52 O63 2.439 1_655 S
O53 Cd52 2.240 1_545 S
O53 C58 1.279 . S
O54 Cd51 2.297 1_655 S
O54 C56 1.247 . S
O55 Cd51 2.439 1_655 S
O55 C56 1.208 . S
C56 O54 1.247 . S
C56 O55 1.208 . S
C57 O62 1.247 . S
C57 O63 1.208 . S
C58 O50 1.315 . S
C58 O53 1.279 . S
C59 O60 1.315 . S
C59 O61 1.279 . S
O60 Cd52 2.223 1_455 S
O60 C59 1.315 . S
O61 Cd51 2.240 1_565 S
O61 C59 1.279 . S
O62 Cd52 2.297 1_455 S
O62 C57 1.247 . S
O63 Cd52 2.439 1_455 S
O63 C57 1.208 . S
C64 C65 1.387 1_565 S
C64 H68 0.950 . S
C64 C73 1.390 . S
C65 C64 1.387 1_545 S
C65 C67 1.387 . S
H66 C73 0.950 . S
C67 C65 1.387 . S
C67 C69 1.390 . S
C67 H71 0.950 . S
H68 C64 0.950 . S
C69 C67 1.390 . S
C69 C70 1.387 . S
C69 H72 0.950 . S
C70 C69 1.387 . S
C70 C73 1.387 1_545 S
H71 C67 0.950 . S
H72 C69 0.950 . S
C73 C64 1.390 . S
C73 H66 0.950 . S
C73 C70 1.387 1_565 S
C74 C75 1.387 1_455 S
C74 H78 0.951 . S
C74 C83 1.389 1_455 S
C75 C74 1.387 1_655 S
C75 C77 1.392 . S
H76 C83 0.950 . S
C77 C75 1.392 . S
C77 C79 1.390 . S
C77 H81 0.950 . S
H78 C74 0.951 . S
C79 C77 1.390 . S
C79 C80 1.387 . S
C79 H82 0.950 . S
C80 C79 1.387 . S
C80 C83 1.387 . S
H81 C77 0.950 . S
H82 C79 0.950 . S
C83 C74 1.389 1_655 S
C83 H76 0.950 . S
C83 C80 1.387 . S
C84 C85 1.387 . S
C84 H88 0.950 . S
C84 C93 1.390 . S
C85 C84 1.387 . S
C85 C87 1.387 1_545 S
H86 C93 0.950 . S
C87 C85 1.387 1_565 S
C87 C89 1.390 . S
C87 H91 0.950 . S
H88 C84 0.950 . S
C89 C87 1.390 . S
C89 C90 1.387 . S
C89 H92 0.950 . S
C90 C89 1.387 . S
C90 C93 1.387 1_565 S
H91 C87 0.950 . S
H92 C89 0.950 . S
C93 C84 1.390 . S
C93 H86 0.950 . S
C93 C90 1.387 1_545 S
C94 C95 1.387 . S
C94 H98 0.950 . S
C94 C103 1.390 . S
C95 C94 1.387 . S
C95 C97 1.387 1_455 S
H96 C103 0.950 . S
C97 C95 1.387 1_655 S
C97 C99 1.390 1_655 S
C97 H101 0.950 . S
H98 C94 0.950 . S
C99 C97 1.390 1_455 S
C99 C100 1.387 . S
C99 H102 0.950 . S
C100 C99 1.387 . S
C100 C103 1.387 . S
H101 C97 0.950 . S
H102 C99 0.950 . S
C103 C94 1.390 . S
C103 H96 0.950 . S
C103 C100 1.387 . S
C104 C105 1.387 1_565 S
C104 H108 0.950 . S
C104 C113 1.390 . S
C105 C104 1.387 1_545 S
C105 C107 1.387 . S
H106 C113 0.950 . S
C107 C105 1.387 . S
C107 C109 1.390 . S
C107 H111 0.950 . S
H108 C104 0.950 . S
C109 C107 1.390 . S
C109 C110 1.387 1_545 S
C109 H112 0.950 . S
C110 C109 1.387 1_565 S
C110 C113 1.387 . S
H111 C107 0.950 . S
H112 C109 0.950 . S
C113 C104 1.390 . S
C113 H106 0.950 . S
C113 C110 1.387 . S
C114 C115 1.387 . S
C114 H118 0.950 . S
C114 C123 1.390 . S
C115 C114 1.387 . S
C115 C117 1.387 1_455 S
H116 C123 0.950 . S
C117 C115 1.387 1_655 S
C117 C119 1.390 1_655 S
C117 H121 0.950 . S
H118 C114 0.950 . S
C119 C117 1.390 1_455 S
C119 C120 1.387 . S
C119 H122 0.952 . S
C120 C119 1.387 . S
C120 C123 1.387 . S
H121 C117 0.950 . S
H122 C119 0.952 . S
C123 C114 1.390 . S
C123 H116 0.950 . S
C123 C120 1.387 . S
C124 C125 1.387 . S
C124 H128 0.950 . S
C124 C133 1.390 . S
C125 C124 1.387 . S
C125 C127 1.387 1_545 S
H126 C133 0.950 . S
C127 C125 1.387 1_565 S
C127 C129 1.390 . S
C127 H131 0.950 . S
H128 C124 0.950 . S
C129 C127 1.390 . S
C129 C130 1.387 1_565 S
C129 H132 0.950 . S
C130 C129 1.387 1_545 S
C130 C133 1.387 . S
H131 C127 0.950 . S
H132 C129 0.950 . S
C133 C124 1.390 . S
C133 H126 0.950 . S
C133 C130 1.387 . S
C134 C135 1.394 . S
C134 H138 0.950 . S
C134 C143 1.390 . S
C135 C134 1.394 . S
C135 C137 1.383 1_655 S
H136 C143 0.950 . S
C137 C135 1.383 1_455 S
C137 C139 1.390 . S
C137 H141 0.950 . S
H138 C134 0.950 . S
C139 C137 1.390 . S
C139 C140 1.387 1_455 S
C139 H142 0.950 . S
C140 C139 1.387 1_655 S
C140 C143 1.387 . S
H141 C137 0.950 . S
H142 C139 0.950 . S
C143 C134 1.390 . S
C143 H136 0.950 . S
C143 C140 1.387 . S
C70 C45 1.679 . S
C65 C7 1.622 1_545 S
C80 C56 1.551 . S
C75 C34 1.583 1_655 S
C90 C44 1.681 . S
C85 C14 1.636 . S
C100 C57 1.549 . S
C95 C26 1.600 1_455 S
C110 C59 1.675 . S
C105 C8 1.631 . S
C120 C43 1.556 . S
C115 C32 1.609 1_455 S
C130 C58 1.677 . S
C125 C16 1.617 1_545 S
C135 C25 1.595 1_655 S
C140 C42 1.558 . S
