# Generated by pormake.
# Topology zzz, (3,6)-cn, num edge types: 1
# Building blocks:
#     Node 0, Type 0, BuildingBlock: ESEHIV_clean_linker_0, # of connection points: 3
#     Node 1, Type 0, BuildingBlock: ESEHIV_clean_linker_0, # of connection points: 3
#     Node 2, Type 0, BuildingBlock: ESEHIV_clean_linker_0, # of connection points: 3
#     Node 3, Type 0, BuildingBlock: ESEHIV_clean_linker_0, # of connection points: 3
#     Node 4, Type 0, BuildingBlock: ESEHIV_clean_linker_0, # of connection points: 3
#     Node 5, Type 0, BuildingBlock: ESEHIV_clean_linker_0, # of connection points: 3
#     Node 6, Type 0, BuildingBlock: ESEHIV_clean_linker_0, # of connection points: 3
#     Node 7, Type 0, BuildingBlock: ESEHIV_clean_linker_0, # of connection points: 3
#     Node 8, Type 1, BuildingBlock: INOVEN_clean_sbu_0, # of connection points: 6
#     Node 9, Type 1, BuildingBlock: INOVEN_clean_sbu_0, # of connection points: 6
#     Node 10, Type 1, BuildingBlock: INOVEN_clean_sbu_0, # of connection points: 6
#     Node 11, Type 1, BuildingBlock: INOVEN_clean_sbu_0, # of connection points: 6
#     Edge 12, Type (0, 1), None
#     Edge 13, Type (0, 1), None
#     Edge 14, Type (0, 1), None
#     Edge 15, Type (0, 1), None
#     Edge 16, Type (0, 1), None
#     Edge 17, Type (0, 1), None
#     Edge 18, Type (0, 1), None
#     Edge 19, Type (0, 1), None
#     Edge 20, Type (0, 1), None
#     Edge 21, Type (0, 1), None
#     Edge 22, Type (0, 1), None
#     Edge 23, Type (0, 1), None
#     Edge 24, Type (0, 1), None
#     Edge 25, Type (0, 1), None
#     Edge 26, Type (0, 1), None
#     Edge 27, Type (0, 1), None
#     Edge 28, Type (0, 1), None
#     Edge 29, Type (0, 1), None
#     Edge 30, Type (0, 1), None
#     Edge 31, Type (0, 1), None
#     Edge 32, Type (0, 1), None
#     Edge 33, Type (0, 1), None
#     Edge 34, Type (0, 1), None
#     Edge 35, Type (0, 1), None
# Relax obj value: 1.022
# Max RMSD: 0.323
# Mean RMSD: 0.243
data_MOF--net-zzz--node1-INOVEN_clean_sbu_0--node2-ESEHIV_clean_linker_0--edge1-none
_symmetry_space_group_name_H-M    P1
_symmetry_Int_Tables_number       1
_symmetry_cell_setting            triclinic
loop_
_symmetry_equiv_pos_as_xyz
'x, y, z'
_cell_length_a     20.198244
_cell_length_b     20.060007
_cell_length_c     7.5648859
_cell_angle_alpha  77.807084
_cell_angle_beta   101.42662
_cell_angle_gamma 90.910563
loop_
_atom_site_label
_atom_site_type_symbol
_atom_site_fract_x
_atom_site_fract_y
_atom_site_fract_z
_atom_type_partial_charge
H0 H 0.80993 0.40445 0.58992 0.0
H1 H 0.65862 0.42372 0.09843 0.0
H2 H 0.74195 0.60236 0.27173 0.0
C3 C 0.77934 0.43563 0.46729 0.0
C4 C 0.79222 0.50421 0.42747 0.0
C5 C 0.73796 0.40521 0.33704 0.0
C6 C 0.69224 0.44701 0.1941 0.0
C7 C 0.6829 0.5162 0.18672 0.0
C8 C 0.73971 0.54743 0.29136 0.0
H9 H 0.89605 0.85243 0.37558 0.0
H10 H 0.93139 0.64181 0.50821 0.0
H11 H 0.91431 0.74828 0.93469 0.0
C12 C 0.89795 0.80554 0.4793 0.0
C13 C 0.91173 0.80915 0.66426 0.0
C14 C 0.92496 0.74826 0.44264 0.0
C15 C 0.91782 0.68596 0.55472 0.0
C16 C 0.92175 0.68275 0.74332 0.0
C17 C 0.91596 0.74627 0.7971 0.0
H18 H 0.64799 0.91152 0.53492 0.0
H19 H 0.84419 0.98036 0.58409 0.0
H20 H 0.75576 0.93828 0.06728 0.0
C21 C 0.69421 0.92015 0.62725 0.0
C22 C 0.6937 0.92143 0.81117 0.0
C23 C 0.74179 0.95836 0.54575 0.0
C24 C 0.80441 0.96276 0.65397 0.0
C25 C 0.81234 0.95806 0.84467 0.0
C26 C 0.75464 0.93868 0.9244 0.0
H27 H 0.52136 0.63188 0.22933 0.0
H28 H 0.56812 0.78979 0.54124 0.0
H29 H 0.47171 0.83024 0.96621 0.0
C30 C 0.52421 0.68437 0.24526 0.0
C31 C 0.47505 0.73032 0.12657 0.0
C32 C 0.54364 0.69732 0.42187 0.0
C33 C 0.54988 0.77214 0.41518 0.0
C34 C 0.52987 0.82323 0.23547 0.0
C35 C 0.49412 0.797 0.0916 0.0
H36 H 0.18149 0.59192 1.0103 0.0
H37 H 0.33287 0.57228 0.50181 0.0
H38 H 0.24944 0.39386 0.32746 0.0
C39 C 0.2121 0.56068 0.13277 0.0
C40 C 0.19924 0.49208 0.17212 0.0
C41 C 0.25355 0.59099 0.26315 0.0
C42 C 0.29922 0.54908 0.406 0.0
C43 C 0.30852 0.4799 0.41308 0.0
C44 C 0.25171 0.44878 0.30812 0.0
H45 H 0.09534 0.14403 0.22515 0.0
H46 H 0.06007 0.35468 0.09172 0.0
H47 H 0.07713 0.24789 0.6659 0.0
C48 C 0.09348 0.19088 0.12132 0.0
C49 C 0.07971 0.18719 0.93643 0.0
C50 C 0.06651 0.24823 0.15778 0.0
C51 C 0.07368 0.31049 0.04549 0.0
C52 C 0.06975 0.31359 0.85696 0.0
C53 C 0.07552 0.25001 0.80344 0.0
H54 H 0.34357 0.08462 0.06681 0.0
H55 H 0.14715 0.01637 0.01759 0.0
H56 H 0.23573 0.0578 0.53465 0.0
C57 C 0.29731 0.07608 0.97448 0.0
C58 C 0.2978 0.0747 0.7906 0.0
C59 C 0.24965 0.038 0.056 0.0
C60 C 0.18698 0.03381 0.94774 0.0
C61 C 0.17911 0.03833 0.75712 0.0
C62 C 0.23684 0.05752 0.67744 0.0
H63 H 0.47055 0.36404 0.37149 0.0
H64 H 0.42326 0.2061 0.05995 0.0
H65 H 0.51975 0.16562 0.63488 0.0
C66 C 0.46757 0.31155 0.35565 0.0
C67 C 0.51665 0.2655 0.47436 0.0
C68 C 0.44799 0.29858 0.1791 0.0
C69 C 0.4416 0.22376 0.18593 0.0
C70 C 0.46158 0.17269 0.36569 0.0
C71 C 0.49739 0.1989 0.5095 0.0
Gd72 Gd 0.03896 0.96628 0.93224 0.0
Gd73 Gd 0.95232 0.03017 0.66882 0.0
C74 C 0.94567 0.87226 0.70788 0.0
C75 C 0.11755 0.8971 0.21545 0.0
C76 C 0.1008 0.83049 0.3041 0.0
C77 C 0.05946 0.79443 0.1875 0.0
C78 C 0.09838 0.81804 0.49083 0.0
C79 C 0.99401 0.75978 0.41539 0.0
C80 C 0.0445 0.78195 0.54779 0.0
C81 C 0.00722 0.75763 0.24669 0.0
C82 C 0.11253 0.01338 0.66736 0.0
C83 C 0.04573 0.1241 0.89289 0.0
C84 C 0.87374 0.09957 0.386 0.0
C85 C 0.89076 0.16607 0.29723 0.0
C86 C 0.93224 0.20211 0.41365 0.0
C87 C 0.8931 0.17844 0.11044 0.0
C88 C -0.00251 0.23676 0.18527 0.0
C89 C 0.94696 0.2145 0.05316 0.0
C90 C 0.98438 0.23898 0.35402 0.0
C91 C 0.87902 0.98284 0.9345 0.0
O92 O 0.97143 0.87716 0.87758 0.0
O93 O 0.9482 0.92778 0.58075 0.0
O94 O 0.12758 0.90022 0.04893 0.0
O95 O 0.07694 0.94573 0.22688 0.0
O96 O 0.10244 0.94959 0.72863 0.0
O97 O 0.06313 0.0446 0.69518 0.0
O98 O 0.0201 0.11912 0.72321 0.0
O99 O 0.04298 0.06867 0.0201 0.0
O100 O 0.86387 0.09652 0.55265 0.0
O101 O 0.91406 0.05075 0.37432 0.0
O102 O 0.88919 0.04665 0.87367 0.0
O103 O 0.92821 0.95178 0.90516 0.0
H104 H 0.0653 0.79724 0.04683 0.0
H105 H 0.13133 0.84399 0.58433 0.0
H106 H 0.03968 0.77672 0.68964 0.0
H107 H 0.97949 0.72398 0.17017 0.0
H108 H 0.92647 0.19936 0.55435 0.0
H109 H 0.86008 0.15249 0.01711 0.0
H110 H 0.95172 0.21965 0.9113 0.0
H111 H 0.01212 0.27273 0.43021 0.0
Gd112 Gd 0.52188 0.04294 0.8491 0.0
Gd113 Gd 0.46946 0.95293 0.75202 0.0
C114 C 0.625 0.93116 0.84646 0.0
C115 C 0.59861 0.1365 0.9568 0.0
C116 C 0.6526 0.12482 0.12273 0.0
C117 C 0.7141 0.09542 0.11062 0.0
C118 C 0.63394 0.11395 0.2947 0.0
C119 C 0.71621 0.02013 0.40567 0.0
C120 C 0.6653 0.06136 0.43535 0.0
C121 C 0.74391 0.04101 0.24891 0.0
C122 C 0.45282 0.09379 0.40992 0.0
C123 C 0.36646 0.06481 0.75527 0.0
C124 C 0.39271 0.85943 0.64408 0.0
C125 C 0.33866 0.87122 0.47826 0.0
C126 C 0.27724 0.9007 0.49064 0.0
C127 C 0.35722 0.88209 0.30617 0.0
C128 C 0.27513 0.9761 0.19573 0.0
C129 C 0.3259 0.93477 0.16571 0.0
C130 C 0.24748 0.95522 0.35259 0.0
C131 C 0.53849 0.90217 0.19131 0.0
O132 O 0.61587 0.9752 0.94395 0.0
O133 O 0.57149 0.91709 0.73088 0.0
O134 O 0.536 0.13076 0.98101 0.0
O135 O 0.60969 0.1028 0.83565 0.0
O136 O 0.49251 0.0487 0.53944 0.0
O137 O 0.49222 0.04937 0.54267 0.0
O138 O 0.3755 0.02077 0.65771 0.0
O139 O 0.41999 0.07884 0.87076 0.0
O140 O 0.45529 0.86522 0.6197 0.0
O141 O 0.3817 0.89302 0.76552 0.0
O142 O 0.49871 0.94715 0.06169 0.0
O143 O 0.49902 0.94644 0.05834 0.0
H144 H 0.73246 0.10622 0.98246 0.0
H145 H 0.5894 0.13894 0.3121 0.0
H146 H 0.64659 0.0502 0.56255 0.0
H147 H 0.78721 0.01406 0.23149 0.0
H148 H 0.25892 0.8899 0.61886 0.0
H149 H 0.40168 0.85702 0.28852 0.0
H150 H 0.34454 0.94592 0.03841 0.0
H151 H 0.20425 0.98222 0.37021 0.0
Gd152 Gd 0.45971 0.52402 0.81959 0.0
Gd153 Gd 0.53176 0.47177 0.78061 0.0
C154 C 0.54085 0.63126 0.58132 0.0
C155 C 0.35402 0.58943 0.84249 0.0
C156 C 0.34347 0.62884 0.97105 0.0
C157 C 0.32161 0.69769 0.90714 0.0
C158 C 0.38027 0.6078 0.15078 0.0
C159 C 0.40432 0.72046 0.15693 0.0
C160 C 0.39422 0.65598 0.2572 0.0
C161 C 0.35234 0.74484 1.00625 0.0
C162 C 0.37555 0.44659 0.5401 0.0
C163 C 0.45073 0.36459 0.01947 0.0
C164 C 0.63745 0.40633 0.75764 0.0
C165 C 0.64805 0.36681 0.62935 0.0
C166 C 0.66994 0.29798 0.6936 0.0
C167 C 0.61138 0.38774 0.44942 0.0
C168 C 0.58738 0.27507 0.44371 0.0
C169 C 0.59758 0.33947 0.34318 0.0
C170 C 0.63933 0.25076 0.59454 0.0
C171 C 0.61579 0.54936 0.0598 0.0
O172 O 0.5089 0.62906 0.718 0.0
O173 O 0.54841 0.56831 0.55515 0.0
O174 O 0.3637 0.52386 0.90677 0.0
O175 O 0.39976 0.61612 0.75171 0.0
O176 O 0.43121 0.48164 0.56314 0.0
O177 O 0.4312 0.48167 0.56535 0.0
O178 O 0.48259 0.36675 0.8826 0.0
O179 O 0.44319 0.42757 0.04548 0.0
O180 O 0.62769 0.47188 0.69305 0.0
O181 O 0.59174 0.37968 0.84861 0.0
O182 O 0.56024 0.51414 0.03702 0.0
O183 O 0.56025 0.5141 0.03474 0.0
H184 H 0.28938 0.71623 0.77473 0.0
H185 H 0.39921 0.55591 0.2066 0.0
H186 H 0.41953 0.63925 0.39829 0.0
H187 H 0.3426 0.79847 0.95388 0.0
H188 H 0.7021 0.2795 0.82617 0.0
H189 H 0.59239 0.4396 0.39334 0.0
H190 H 0.57234 0.35608 0.20198 0.0
H191 H 0.64911 0.19713 0.64707 0.0
Gd192 Gd 0.97269 0.45844 0.90757 0.0
Gd193 Gd 0.0188 0.53804 0.69196 0.0
C194 C 0.86043 0.51918 0.54447 0.0
C195 C 0.92427 0.37193 0.14665 0.0
C196 C 0.86341 0.34781 0.2104 0.0
C197 C 0.80345 0.33765 0.08741 0.0
C198 C 0.86615 0.32557 0.40081 0.0
C199 C 0.74838 0.33088 0.33902 0.0
C200 C 0.80719 0.30239 0.46071 0.0
C201 C 0.74562 0.32035 0.16131 0.0
C202 C 0.03793 0.37887 0.73429 0.0
C203 C 0.13103 0.47718 0.05499 0.0
C204 C 0.06723 0.62467 0.45316 0.0
C205 C 0.12815 0.64872 0.38956 0.0
C206 C 0.18813 0.65868 0.51274 0.0
C207 C 0.12549 0.671 0.19918 0.0
C208 C 0.24327 0.66533 0.26133 0.0
C209 C 0.18455 0.69398 0.13952 0.0
C210 C 0.24603 0.67582 0.43907 0.0
C211 C 0.95345 0.61735 0.86578 0.0
O212 O 0.86911 0.50093 0.72639 0.0
O213 O 0.91866 0.52194 0.48723 0.0
O214 O 0.92661 0.36421 0.98199 0.0
O215 O 0.95149 0.42804 0.18599 0.0
O216 O 0.97333 0.38445 0.71864 0.0
O217 O 0.0597 0.43225 0.78594 0.0
O218 O 0.12236 0.49547 0.87307 0.0
O219 O 0.07281 0.4745 0.11222 0.0
O220 O 0.0649 0.63229 0.6179 0.0
O221 O 0.03995 0.56863 0.41355 0.0
O222 O 0.01807 0.61173 0.8819 0.0
O223 O 0.93178 0.56415 0.81302 0.0
H224 H 0.80069 0.34559 0.94003 0.0
H225 H 0.91266 0.32468 0.49943 0.0
H226 H 0.80847 0.28744 0.6076 0.0
H227 H 0.69731 0.31747 0.07357 0.0
H228 H 0.19084 0.65069 0.66011 0.0
H229 H 0.079 0.67201 0.10038 0.0
H230 H 0.18334 0.70894 0.99266 0.0
H231 H 0.29434 0.67855 0.52696 0.0
loop_
_geom_bond_atom_site_label_1
_geom_bond_atom_site_label_2
_geom_bond_distance
_geom_bond_site_symmetry_2
_ccdc_geom_bond_type
H0 C3 0.931 . S
H1 C6 0.928 . S
H2 C8 0.930 . S
C3 H0 0.931 . S
C3 C4 1.413 . S
C3 C5 1.360 . S
C4 C3 1.413 . S
C4 C8 1.429 . S
C5 C3 1.360 . S
C5 C6 1.372 . S
C6 H1 0.928 . S
C6 C5 1.372 . S
C6 C7 1.404 . S
C7 C6 1.404 . S
C7 C8 1.391 . S
C8 H2 0.930 . S
C8 C4 1.429 . S
C8 C7 1.391 . S
H9 C12 0.931 . S
H10 C15 0.928 . S
H11 C17 0.930 . S
C12 H9 0.931 . S
C12 C13 1.413 . S
C12 C14 1.360 . S
C13 C12 1.413 . S
C13 C17 1.429 1_655 S
C14 C12 1.360 . S
C14 C15 1.372 . S
C15 H10 0.928 . S
C15 C14 1.372 . S
C15 C16 1.404 . S
C16 C15 1.404 . S
C16 C17 1.390 1_655 S
C17 H11 0.930 . S
C17 C13 1.429 1_455 S
C17 C16 1.390 1_455 S
H18 C21 0.931 . S
H19 C24 0.928 . S
H20 C26 0.930 . S
C21 H18 0.931 . S
C21 C22 1.414 . S
C21 C23 1.360 . S
C22 C21 1.414 . S
C22 C26 1.429 1_565 S
C23 C21 1.360 . S
C23 C24 1.372 . S
C24 H19 0.928 . S
C24 C23 1.372 . S
C24 C25 1.405 . S
C25 C24 1.405 . S
C25 C26 1.390 1_565 S
C26 H20 0.930 . S
C26 C22 1.429 1_545 S
C26 C25 1.390 1_545 S
H27 C30 0.931 . S
H28 C33 0.928 . S
H29 C35 0.930 . S
C30 H27 0.931 . S
C30 C31 1.413 . S
C30 C32 1.360 . S
C31 C30 1.413 . S
C31 C35 1.429 . S
C32 C30 1.360 . S
C32 C33 1.372 . S
C33 H28 0.928 . S
C33 C32 1.372 . S
C33 C34 1.404 . S
C34 C33 1.404 . S
C34 C35 1.391 . S
C35 H29 0.930 . S
C35 C31 1.429 . S
C35 C34 1.391 . S
H36 C39 0.931 . S
H37 C42 0.928 . S
H38 C44 0.930 . S
C39 H36 0.931 . S
C39 C40 1.413 . S
C39 C41 1.360 1_556 S
C40 C39 1.413 . S
C40 C44 1.429 . S
C41 C39 1.360 1_554 S
C41 C42 1.372 . S
C42 H37 0.928 . S
C42 C41 1.372 . S
C42 C43 1.404 . S
C43 C42 1.404 . S
C43 C44 1.391 1_554 S
C44 H38 0.930 . S
C44 C40 1.429 . S
C44 C43 1.391 1_556 S
H45 C48 0.931 . S
H46 C51 0.928 . S
H47 C53 0.930 . S
C48 H45 0.931 . S
C48 C49 1.413 . S
C48 C50 1.360 1_556 S
C49 C48 1.413 . S
C49 C53 1.429 1_655 S
C50 C48 1.360 1_554 S
C50 C51 1.372 . S
C51 H46 0.928 . S
C51 C50 1.372 . S
C51 C52 1.404 . S
C52 C51 1.404 . S
C52 C53 1.391 1_654 S
C53 H47 0.930 . S
C53 C49 1.429 1_455 S
C53 C52 1.391 1_456 S
H54 C57 0.931 . S
H55 C60 0.928 . S
H56 C62 0.930 . S
C57 H54 0.931 . S
C57 C58 1.413 . S
C57 C59 1.360 1_556 S
C58 C57 1.413 . S
C58 C62 1.429 1_565 S
C59 C57 1.360 1_554 S
C59 C60 1.372 . S
C60 H55 0.928 . S
C60 C59 1.372 . S
C60 C61 1.404 . S
C61 C60 1.404 . S
C61 C62 1.391 1_564 S
C62 H56 0.930 . S
C62 C58 1.429 1_545 S
C62 C61 1.391 1_546 S
H63 C66 0.931 . S
H64 C69 0.928 . S
H65 C71 0.930 . S
C66 H63 0.931 . S
C66 C67 1.413 1_556 S
C66 C68 1.360 . S
C67 C66 1.413 1_554 S
C67 C71 1.429 . S
C68 C66 1.360 . S
C68 C69 1.372 . S
C69 H64 0.928 . S
C69 C68 1.372 . S
C69 C70 1.404 1_556 S
C70 C69 1.404 1_554 S
C70 C71 1.391 . S
C71 H65 0.930 . S
C71 C67 1.429 . S
C71 C70 1.391 . S
Gd72 C75 2.818 1_556 S
Gd72 O92 2.377 . S
Gd72 O94 2.448 1_556 S
Gd72 O95 2.506 1_556 S
Gd72 O96 2.435 . S
Gd72 O97 2.717 1_565 S
Gd72 O99 2.395 1_565 S
Gd72 O103 2.327 1_455 S
Gd73 C84 2.818 . S
Gd73 O93 2.395 1_545 S
Gd73 O97 2.327 1_655 S
Gd73 O98 2.377 . S
Gd73 O100 2.448 . S
Gd73 O101 2.506 . S
Gd73 O102 2.435 . S
Gd73 O103 2.717 1_545 S
C74 O92 1.240 1_655 S
C74 O93 1.240 . S
C75 Gd72 2.818 1_554 S
C75 C76 1.510 . S
C75 O94 1.249 . S
C75 O95 1.252 . S
C76 C75 1.510 . S
C76 C77 1.404 . S
C76 C78 1.352 . S
C77 C76 1.404 . S
C77 C81 1.389 . S
C77 H104 0.930 . S
C78 C76 1.352 . S
C78 C80 1.374 . S
C78 H105 0.931 . S
C79 C80 1.359 . S
C79 C81 1.364 . S
C80 C78 1.374 . S
C80 C79 1.359 . S
C80 H106 0.931 . S
C81 C77 1.389 . S
C81 C79 1.364 . S
C81 H107 0.931 . S
C82 O96 1.256 . S
C82 O97 1.257 1_565 S
C83 O98 1.240 1_455 S
C83 O99 1.240 . S
C84 Gd73 2.818 . S
C84 C85 1.510 . S
C84 O100 1.249 . S
C84 O101 1.252 . S
C85 C84 1.510 . S
C85 C86 1.404 . S
C85 C87 1.352 . S
C86 C85 1.404 . S
C86 C90 1.389 . S
C86 H108 0.930 . S
C87 C85 1.352 . S
C87 C89 1.374 . S
C87 H109 0.931 . S
C88 C89 1.359 . S
C88 C90 1.364 . S
C89 C87 1.374 . S
C89 C88 1.359 . S
C89 H110 0.931 . S
C90 C86 1.389 . S
C90 C88 1.364 . S
C90 H111 0.931 . S
C91 O102 1.256 1_554 S
C91 O103 1.257 1_544 S
O92 Gd72 2.377 . S
O92 C74 1.240 1_455 S
O93 Gd73 2.395 1_565 S
O93 C74 1.240 . S
O94 Gd72 2.448 1_554 S
O94 C75 1.249 . S
O95 Gd72 2.506 1_554 S
O95 C75 1.252 . S
O96 Gd72 2.435 . S
O96 C82 1.256 . S
O97 Gd72 2.717 1_545 S
O97 Gd73 2.327 1_455 S
O97 C82 1.257 1_545 S
O98 Gd73 2.377 . S
O98 C83 1.240 1_655 S
O99 Gd72 2.395 1_545 S
O99 C83 1.240 . S
O100 Gd73 2.448 . S
O100 C84 1.249 . S
O101 Gd73 2.506 . S
O101 C84 1.252 . S
O102 Gd73 2.435 . S
O102 C91 1.256 1_556 S
O103 Gd72 2.327 1_655 S
O103 Gd73 2.717 1_565 S
O103 C91 1.257 1_566 S
H104 C77 0.930 . S
H105 C78 0.931 . S
H106 C80 0.931 . S
H107 C81 0.931 . S
H108 C86 0.930 . S
H109 C87 0.931 . S
H110 C89 0.931 . S
H111 C90 0.931 . S
Gd112 C115 2.818 1_556 S
Gd112 O132 2.377 . S
Gd112 O134 2.448 1_556 S
Gd112 O135 2.506 1_556 S
Gd112 O136 2.435 . S
Gd112 O137 2.717 . S
Gd112 O139 2.395 . S
Gd112 O143 2.327 1_545 S
Gd113 C124 2.818 . S
Gd113 O133 2.395 . S
Gd113 O137 2.327 1_565 S
Gd113 O138 2.377 . S
Gd113 O140 2.448 . S
Gd113 O141 2.506 . S
Gd113 O142 2.435 . S
Gd113 O143 2.717 . S
C114 O132 1.240 1_565 S
C114 O133 1.240 . S
C115 Gd112 2.818 1_554 S
C115 C116 1.510 . S
C115 O134 1.249 . S
C115 O135 1.252 . S
C116 C115 1.510 . S
C116 C117 1.404 . S
C116 C118 1.352 . S
C117 C116 1.404 . S
C117 C121 1.389 . S
C117 H144 0.930 . S
C118 C116 1.352 . S
C118 C120 1.374 . S
C118 H145 0.931 . S
C119 C120 1.359 . S
C119 C121 1.364 . S
C120 C118 1.374 . S
C120 C119 1.359 . S
C120 H146 0.931 . S
C121 C117 1.389 . S
C121 C119 1.364 . S
C121 H147 0.931 . S
C122 O136 1.256 . S
C122 O137 1.257 . S
C123 O138 1.240 1_545 S
C123 O139 1.240 . S
C124 Gd113 2.818 . S
C124 C125 1.510 . S
C124 O140 1.249 . S
C124 O141 1.252 . S
C125 C124 1.510 . S
C125 C126 1.404 . S
C125 C127 1.352 . S
C126 C125 1.404 . S
C126 C130 1.389 . S
C126 H148 0.930 . S
C127 C125 1.352 . S
C127 C129 1.374 . S
C127 H149 0.931 . S
C128 C129 1.359 . S
C128 C130 1.364 . S
C129 C127 1.374 . S
C129 C128 1.359 . S
C129 H150 0.931 . S
C130 C126 1.389 . S
C130 C128 1.364 . S
C130 H151 0.931 . S
C131 O142 1.256 1_554 S
C131 O143 1.257 1_554 S
O132 Gd112 2.377 . S
O132 C114 1.240 1_545 S
O133 Gd113 2.395 . S
O133 C114 1.240 . S
O134 Gd112 2.448 1_554 S
O134 C115 1.249 . S
O135 Gd112 2.506 1_554 S
O135 C115 1.252 . S
O136 Gd112 2.435 . S
O136 C122 1.256 . S
O137 Gd112 2.717 . S
O137 Gd113 2.327 1_545 S
O137 C122 1.257 . S
O138 Gd113 2.377 . S
O138 C123 1.240 1_565 S
O139 Gd112 2.395 . S
O139 C123 1.240 . S
O140 Gd113 2.448 . S
O140 C124 1.249 . S
O141 Gd113 2.506 . S
O141 C124 1.252 . S
O142 Gd113 2.435 . S
O142 C131 1.256 1_556 S
O143 Gd112 2.327 1_565 S
O143 Gd113 2.717 . S
O143 C131 1.257 1_556 S
H144 C117 0.930 . S
H145 C118 0.931 . S
H146 C120 0.931 . S
H147 C121 0.931 . S
H148 C126 0.930 . S
H149 C127 0.931 . S
H150 C129 0.931 . S
H151 C130 0.931 . S
Gd152 C155 2.818 1_556 S
Gd152 O172 2.377 . S
Gd152 O174 2.448 1_556 S
Gd152 O175 2.506 1_556 S
Gd152 O176 2.435 . S
Gd152 O177 2.717 . S
Gd152 O179 2.395 . S
Gd152 O183 2.327 . S
Gd153 C164 2.818 . S
Gd153 O173 2.395 . S
Gd153 O177 2.327 . S
Gd153 O178 2.377 . S
Gd153 O180 2.448 . S
Gd153 O181 2.506 . S
Gd153 O182 2.435 . S
Gd153 O183 2.717 . S
C154 O172 1.240 . S
C154 O173 1.240 . S
C155 Gd152 2.818 1_554 S
C155 C156 1.510 . S
C155 O174 1.249 . S
C155 O175 1.252 . S
C156 C155 1.510 . S
C156 C157 1.404 . S
C156 C158 1.352 . S
C157 C156 1.404 . S
C157 C161 1.389 . S
C157 H184 0.930 . S
C158 C156 1.352 . S
C158 C160 1.374 . S
C158 H185 0.931 . S
C159 C160 1.359 . S
C159 C161 1.364 . S
C160 C158 1.374 . S
C160 C159 1.359 . S
C160 H186 0.931 . S
C161 C157 1.389 . S
C161 C159 1.364 . S
C161 H187 0.931 . S
C162 O176 1.256 . S
C162 O177 1.257 . S
C163 O178 1.240 . S
C163 O179 1.240 . S
C164 Gd153 2.818 . S
C164 C165 1.510 . S
C164 O180 1.249 . S
C164 O181 1.252 . S
C165 C164 1.510 . S
C165 C166 1.404 . S
C165 C167 1.352 . S
C166 C165 1.404 . S
C166 C170 1.389 . S
C166 H188 0.930 . S
C167 C165 1.352 . S
C167 C169 1.374 . S
C167 H189 0.931 . S
C168 C169 1.359 . S
C168 C170 1.364 . S
C169 C167 1.374 . S
C169 C168 1.359 . S
C169 H190 0.931 . S
C170 C166 1.389 . S
C170 C168 1.364 . S
C170 H191 0.931 . S
C171 O182 1.256 1_554 S
C171 O183 1.257 1_554 S
O172 Gd152 2.377 . S
O172 C154 1.240 . S
O173 Gd153 2.395 . S
O173 C154 1.240 . S
O174 Gd152 2.448 1_554 S
O174 C155 1.249 . S
O175 Gd152 2.506 1_554 S
O175 C155 1.252 . S
O176 Gd152 2.435 . S
O176 C162 1.256 . S
O177 Gd152 2.717 . S
O177 Gd153 2.327 . S
O177 C162 1.257 . S
O178 Gd153 2.377 . S
O178 C163 1.240 . S
O179 Gd152 2.395 . S
O179 C163 1.240 . S
O180 Gd153 2.448 . S
O180 C164 1.249 . S
O181 Gd153 2.506 . S
O181 C164 1.252 . S
O182 Gd153 2.435 . S
O182 C171 1.256 1_556 S
O183 Gd152 2.327 . S
O183 Gd153 2.717 . S
O183 C171 1.257 1_556 S
H184 C157 0.930 . S
H185 C158 0.931 . S
H186 C160 0.931 . S
H187 C161 0.931 . S
H188 C166 0.930 . S
H189 C167 0.931 . S
H190 C169 0.931 . S
H191 C170 0.931 . S
Gd192 C195 2.818 1_556 S
Gd192 O212 2.377 . S
Gd192 O214 2.448 1_556 S
Gd192 O215 2.506 1_556 S
Gd192 O216 2.435 . S
Gd192 O217 2.717 1_655 S
Gd192 O219 2.395 1_655 S
Gd192 O223 2.327 . S
Gd193 C204 2.818 . S
Gd193 O213 2.395 1_455 S
Gd193 O217 2.327 . S
Gd193 O218 2.377 . S
Gd193 O220 2.448 . S
Gd193 O221 2.506 . S
Gd193 O222 2.435 . S
Gd193 O223 2.717 1_455 S
C194 O212 1.240 . S
C194 O213 1.240 . S
C195 Gd192 2.818 1_554 S
C195 C196 1.510 . S
C195 O214 1.249 . S
C195 O215 1.252 . S
C196 C195 1.510 . S
C196 C197 1.404 . S
C196 C198 1.352 . S
C197 C196 1.404 . S
C197 C201 1.389 . S
C197 H224 0.930 . S
C198 C196 1.352 . S
C198 C200 1.374 . S
C198 H225 0.931 . S
C199 C200 1.359 . S
C199 C201 1.364 . S
C200 C198 1.374 . S
C200 C199 1.359 . S
C200 H226 0.931 . S
C201 C197 1.389 . S
C201 C199 1.364 . S
C201 H227 0.931 . S
C202 O216 1.260 . S
C202 O217 1.255 1_655 S
C203 O218 1.240 . S
C203 O219 1.240 . S
C204 Gd193 2.818 . S
C204 C205 1.510 . S
C204 O220 1.249 . S
C204 O221 1.252 . S
C205 C204 1.510 . S
C205 C206 1.404 . S
C205 C207 1.352 . S
C206 C205 1.404 . S
C206 C210 1.389 . S
C206 H228 0.930 . S
C207 C205 1.352 . S
C207 C209 1.374 . S
C207 H229 0.931 . S
C208 C209 1.359 . S
C208 C210 1.364 . S
C209 C207 1.374 . S
C209 C208 1.359 . S
C209 H230 0.931 . S
C210 C206 1.389 . S
C210 C208 1.364 . S
C210 H231 0.931 . S
C211 O222 1.262 1_554 S
C211 O223 1.254 1_454 S
O212 Gd192 2.377 . S
O212 C194 1.240 . S
O213 Gd193 2.395 1_655 S
O213 C194 1.240 . S
O214 Gd192 2.448 1_554 S
O214 C195 1.249 . S
O215 Gd192 2.506 1_554 S
O215 C195 1.252 . S
O216 Gd192 2.435 . S
O216 C202 1.260 . S
O217 Gd192 2.717 1_455 S
O217 Gd193 2.327 . S
O217 C202 1.255 1_455 S
O218 Gd193 2.377 . S
O218 C203 1.240 . S
O219 Gd192 2.395 1_455 S
O219 C203 1.240 . S
O220 Gd193 2.448 . S
O220 C204 1.249 . S
O221 Gd193 2.506 . S
O221 C204 1.252 . S
O222 Gd193 2.435 . S
O222 C211 1.262 1_556 S
O223 Gd192 2.327 . S
O223 Gd193 2.717 1_655 S
O223 C211 1.254 1_656 S
H224 C197 0.930 . S
H225 C198 0.931 . S
H226 C200 0.931 . S
H227 C201 0.931 . S
H228 C206 0.930 . S
H229 C207 0.931 . S
H230 C209 0.931 . S
H231 C210 0.931 . S
C61 C82 3.656 1_554 S
C122 C70 3.621 1_556 S
C162 C43 3.672 1_556 S
C202 C52 3.635 1_556 S
C91 C25 3.655 1_544 S
C34 C131 3.624 1_556 S
C7 C171 3.667 1_556 S
C16 C211 3.635 1_656 S
C88 C50 3.034 . S
C128 C59 2.845 . S
C168 C67 2.771 . S
C41 C208 2.893 . S
C14 C79 3.060 1_655 S
C119 C23 2.872 1_545 S
C159 C31 2.751 . S
C5 C199 2.932 . S
C49 C83 4.156 1_655 S
C58 C123 4.090 1_565 S
C163 C68 4.091 . S
C203 C40 4.158 . S
C13 C74 4.158 . S
C114 C22 4.088 . S
C154 C32 4.103 . S
C4 C194 4.156 . S
