# Generated by pormake.
# Topology pth, (4,4)-cn, num edge types: 1
# Building blocks:
#     Node 0, Type 0, BuildingBlock: NAHDIM_clean_sbu_0, # of connection points: 4
#     Node 1, Type 0, BuildingBlock: NAHDIM_clean_sbu_0, # of connection points: 4
#     Node 2, Type 0, BuildingBlock: NAHDIM_clean_sbu_0, # of connection points: 4
#     Node 3, Type 1, BuildingBlock: MUDLON_clean_linker_0, # of connection points: 4
#     Node 4, Type 1, BuildingBlock: MUDLON_clean_linker_0, # of connection points: 4
#     Node 5, Type 1, BuildingBlock: MUDLON_clean_linker_0, # of connection points: 4
#     Edge 6, Type (0, 1), None
#     Edge 7, Type (0, 1), None
#     Edge 8, Type (0, 1), None
#     Edge 9, Type (0, 1), None
#     Edge 10, Type (0, 1), None
#     Edge 11, Type (0, 1), None
#     Edge 12, Type (0, 1), None
#     Edge 13, Type (0, 1), None
#     Edge 14, Type (0, 1), None
#     Edge 15, Type (0, 1), None
#     Edge 16, Type (0, 1), None
#     Edge 17, Type (0, 1), None
# Relax obj value: 0.063
# Max RMSD: 0.171
# Mean RMSD: 0.116
data_MOF--net-pth--node1-NAHDIM_clean_sbu_0--node2-MUDLON_clean_linker_0--edge1-none
_symmetry_space_group_name_H-M    P1
_symmetry_Int_Tables_number       1
_symmetry_cell_setting            triclinic
loop_
_symmetry_equiv_pos_as_xyz
'x, y, z'
_cell_length_a     20.190543
_cell_length_b     20.283907
_cell_length_c     38.040954
_cell_angle_alpha  92.233731
_cell_angle_beta   90.11142
_cell_angle_gamma 120.85807
loop_
_atom_site_label
_atom_site_type_symbol
_atom_site_fract_x
_atom_site_fract_y
_atom_site_fract_z
_atom_type_partial_charge
C0 C 0.95131 0.88596 0.09331 0.0
O1 O 0.89607 0.89974 0.0859 0.0
O2 O 0.01726 0.08195 0.08234 0.0
Zn3 Zn 0.01388 0.00275 0.04761 0.0
O4 O 0.9179 0.94901 0.01667 0.0
C5 C 0.14782 0.13008 0.01868 0.0
O6 O 0.15073 0.16268 0.04961 0.0
O7 O 0.01527 0.92346 0.07782 0.0
C8 C 0.90212 0.98504 0.99481 0.0
O9 O 0.9452 0.06034 0.99481 0.0
C10 C 0.96635 0.09576 0.09372 0.0
O11 O 0.89496 0.05437 0.08145 0.0
O12 O 0.1012 0.05813 0.01369 0.0
C13 C 0.01543 0.11921 0.33281 0.0
O14 O 0.94748 0.05823 0.33783 0.0
O15 O 0.00686 0.94927 0.34595 0.0
Zn16 Zn 0.03843 0.03768 0.38133 0.0
O17 O 0.95352 0.03341 0.411 0.0
C18 C 0.10785 0.97968 0.42482 0.0
O19 O 0.05158 0.91644 0.40938 0.0
O20 O 0.07303 0.12883 0.351 0.0
C21 C 0.91992 0.98877 0.43587 0.0
O22 O 0.9332 0.933 0.44133 0.0
C23 C 0.94119 0.89061 0.33829 0.0
O24 O 0.88082 0.87875 0.35625 0.0
O25 O 0.11933 0.04419 0.41534 0.0
C26 C 0.11614 0.02904 0.67056 0.0
O27 O 0.12922 0.09923 0.6755 0.0
O28 O 0.94694 0.03768 0.68367 0.0
Zn29 Zn 0.00481 0.01153 0.71835 0.0
O30 O 0.07747 0.10129 0.75075 0.0
C31 C 0.85963 0.91881 0.75152 0.0
O32 O 0.83733 0.94985 0.72814 0.0
O33 O 0.06472 0.97617 0.68864 0.0
C34 C 0.04773 0.12635 0.77297 0.0
O35 O 0.97296 0.09867 0.77112 0.0
C36 C 0.96579 0.10171 0.67082 0.0
O37 O 0.03059 0.16383 0.68128 0.0
O38 O 0.92818 0.93131 0.75059 0.0
H39 H 0.79979 0.67674 0.26167 0.0
N40 N 0.90521 0.70596 0.21325 0.0
H41 H 0.81328 0.75441 0.31537 0.0
H42 H 0.03595 0.83782 0.23692 0.0
H43 H 0.0505 0.91433 0.29025 0.0
H44 H 0.04082 0.7883 0.17792 0.0
H45 H 0.05974 0.86435 0.12643 0.0
H46 H 0.79913 0.71491 0.17656 0.0
H47 H 0.81716 0.79015 0.12515 0.0
H48 H 0.81648 0.55729 0.19666 0.0
H49 H 0.04765 0.7287 0.2313 0.0
H50 H 0.85143 0.45826 0.19746 0.0
H51 H 0.08249 0.63035 0.23305 0.0
H52 H 0.91653 0.1771 0.23713 0.0
H53 H 0.90352 0.1017 0.28712 0.0
H54 H 0.14587 0.25189 0.31363 0.0
H55 H 0.15813 0.32918 0.26309 0.0
H56 H 0.14228 0.27438 0.17658 0.0
H57 H 0.10854 0.18731 0.12481 0.0
H58 H 0.87275 0.13587 0.12921 0.0
H59 H 0.90749 0.22386 0.18078 0.0
H60 H 0.91523 0.29087 0.23891 0.0
H61 H 0.88317 0.39097 0.23912 0.0
H62 H 0.10351 0.54533 0.19417 0.0
N63 N 0.04943 0.3019 0.21513 0.0
H64 H 0.13625 0.44464 0.19492 0.0
C65 C 0.91664 0.75107 0.24536 0.0
C66 C 0.85468 0.72839 0.26805 0.0
C67 C 0.86251 0.77277 0.29863 0.0
C68 C 0.93295 0.84052 0.30714 0.0
C69 C -0.00454 0.86228 0.28465 0.0
C70 C -0.01269 0.81835 0.25401 0.0
C71 C 0.91819 0.74611 0.18121 0.0
C72 C -0.00841 0.78774 0.16635 0.0
C73 C 0.00237 0.83106 0.13678 0.0
C74 C 0.94011 0.83367 0.12178 0.0
C75 C 0.86654 0.78982 0.1361 0.0
C76 C 0.85591 0.74668 0.16545 0.0
C77 C 0.92892 0.6501 0.21401 0.0
C78 C 0.87463 0.57336 0.20457 0.0
C79 C 0.89461 0.51695 0.20528 0.0
C80 C 0.96968 0.53635 0.21552 0.0
C81 C 0.0244 0.6136 0.22472 0.0
C82 C 0.00431 0.67001 0.22394 0.0
C83 C 0.03851 0.25958 0.24637 0.0
C84 C 0.96679 0.19519 0.25386 0.0
C85 C 0.95951 0.15163 0.2826 0.0
C86 C 0.02381 0.17054 0.30436 0.0
C87 C 0.09527 0.23583 0.29737 0.0
C88 C 0.10234 0.28002 0.26862 0.0
C89 C 0.02789 0.25561 0.1827 0.0
C90 C 0.08365 0.24507 0.16604 0.0
C91 C 0.06399 0.19509 0.1365 0.0
C92 C -0.01241 0.15399 0.123 0.0
C93 C 0.93198 0.16641 0.13899 0.0
C94 C 0.95191 0.21684 0.16857 0.0
C95 C 0.0289 0.36035 0.21707 0.0
C96 C 0.95725 0.34611 0.2294 0.0
C97 C 0.93851 0.40349 0.22921 0.0
C98 C -0.00936 0.47613 0.21655 0.0
C99 C 0.06241 0.49036 0.20451 0.0
C100 C 0.08114 0.43294 0.20478 0.0
H101 H 0.93138 0.21087 0.57227 0.0
N102 N 0.79923 0.0923 0.54679 0.0
H103 H 0.00389 0.21709 0.62539 0.0
H104 H 0.75013 0.98319 0.59676 0.0
H105 H 0.82145 0.98872 0.64916 0.0
H106 H 0.79382 0.95392 0.54142 0.0
H107 H 0.84461 0.9102 0.49378 0.0
H108 H 0.85256 0.1578 0.48617 0.0
H109 H 0.90253 0.11396 0.43793 0.0
H110 H 0.74752 0.18873 0.54616 0.0
H111 H 0.67073 0.94765 0.54724 0.0
H112 H 0.61363 0.15783 0.546 0.0
H113 H 0.53758 0.91621 0.55011 0.0
H114 H 0.26019 0.09517 0.56978 0.0
H115 H 0.20571 0.12493 0.62037 0.0
H116 H 0.1119 0.89346 0.65454 0.0
H117 H 0.16853 0.86432 0.60346 0.0
H118 H 0.12587 0.84456 0.51622 0.0
H119 H 0.06699 0.85277 0.46173 0.0
H120 H 0.23969 0.09433 0.45889 0.0
H121 H 0.29997 0.08448 0.513 0.0
H122 H 0.37403 0.08816 0.5806 0.0
H123 H 0.50635 0.11824 0.57993 0.0
H124 H 0.43521 0.90698 0.51882 0.0
N125 N 0.24654 0.95643 0.55187 0.0
H126 H 0.30124 0.87442 0.52206 0.0
C127 C 0.83553 0.09681 0.58025 0.0
C128 C 0.90672 0.16283 0.58936 0.0
C129 C 0.94793 0.16627 0.61969 0.0
C130 C 0.91869 0.10315 0.64134 0.0
C131 C 0.84589 0.0382 0.63293 0.0
C132 C 0.8047 0.03503 0.60278 0.0
C133 C 0.82081 0.06026 0.51763 0.0
C134 C 0.81677 0.98899 0.51888 0.0
C135 C 0.84563 0.96377 0.49146 0.0
C136 C 0.87838 0.00888 0.46218 0.0
C137 C 0.87803 0.07783 0.46014 0.0
C138 C 0.84973 0.1032 0.48767 0.0
C139 C 0.71935 0.07101 0.54726 0.0
C140 C 0.70161 0.12919 0.54691 0.0
C141 C 0.62495 0.11126 0.54716 0.0
C142 C 0.56411 0.03436 0.54838 0.0
C143 C 0.58234 0.97599 0.54866 0.0
C144 C 0.65899 -0.00601 0.54761 0.0
C145 C 0.21869 0.97725 0.5828 0.0
C146 C 0.22874 0.05083 0.58817 0.0
C147 C 0.19754 0.06789 0.61735 0.0
C148 C 0.15437 0.01153 0.64156 0.0
C149 C 0.14496 0.93816 0.63642 0.0
C150 C 0.1772 0.92143 0.60733 0.0
C151 C 0.21615 0.96379 0.51891 0.0
C152 C 0.15128 0.89899 0.50362 0.0
C153 C 0.11804 0.90394 0.47242 0.0
C154 C 0.14852 0.97442 0.45604 0.0
C155 C 0.21468 0.03938 0.471 0.0
C156 C 0.2488 0.03395 0.50203 0.0
C157 C 0.32666 0.97782 0.5518 0.0
C158 C 0.38604 0.04751 0.5674 0.0
C159 C 0.46267 0.06535 0.56659 0.0
C160 C 0.48224 0.01516 0.54936 0.0
C161 C 0.42274 0.94638 0.53313 0.0
C162 C 0.34601 0.92783 0.53466 0.0
H163 H 0.74648 0.97094 0.90116 0.0
N164 N 0.69051 0.82596 0.87855 0.0
H165 H 0.83676 0.04032 0.95077 0.0
H166 H 0.74665 0.76489 0.92474 0.0
H167 H 0.83483 0.83283 0.97479 0.0
H168 H 0.81824 0.81717 0.86232 0.0
H169 H 0.88978 0.8562 0.80773 0.0
H170 H 0.65069 0.8666 0.82049 0.0
H171 H 0.72042 0.90398 0.76557 0.0
H172 H 0.5557 0.78945 0.90549 0.0
H173 H 0.68149 0.68896 0.86068 0.0
H174 H 0.44259 0.66154 0.9108 0.0
H175 H 0.56733 0.56091 0.86375 0.0
H176 H 0.21952 0.35442 0.96266 0.0
H177 H 0.19388 0.28133 0.01537 0.0
H178 H 0.1709 0.08853 0.95226 0.0
H179 H 0.20063 0.16363 0.89973 0.0
H180 H 0.27163 0.2552 0.84334 0.0
H181 H 0.19974 0.17978 0.79007 0.0
H182 H 0.0002 0.188 0.82492 0.0
H183 H 0.07291 0.26339 0.87779 0.0
H184 H 0.22841 0.43805 0.88004 0.0
H185 H 0.34572 0.56289 0.875 0.0
H186 H 0.48273 0.4619 0.9003 0.0
N187 N 0.21686 0.3069 0.89636 0.0
H188 H 0.36423 0.33599 0.90313 0.0
C189 C 0.73941 0.86289 0.90939 0.0
C190 C 0.76519 0.94052 0.91741 0.0
C191 C 0.81663 0.97994 0.9457 0.0
C192 C 0.84262 0.94198 0.96679 0.0
C193 C 0.81527 0.86353 0.95926 0.0
C194 C 0.7648 0.82451 0.9306 0.0
C195 C 0.72995 0.8408 0.84564 0.0
C196 C 0.79644 0.83571 0.84124 0.0
C197 C 0.83701 0.85756 0.80991 0.0
C198 C 0.81126 0.88391 0.78238 0.0
C199 C 0.74219 0.88435 0.78623 0.0
C200 C 0.70226 0.86327 0.8176 0.0
C201 C 0.62633 0.74898 0.88219 0.0
C202 C 0.5585 0.73959 0.89657 0.0
C203 C 0.49376 0.66639 0.89922 0.0
C204 C 0.49505 0.60061 0.88704 0.0
C205 C 0.5641 0.61001 0.87351 0.0
C206 C 0.62938 0.68346 0.87138 0.0
C207 C 0.2106 0.26455 0.92711 0.0
C208 C 0.21081 0.29709 0.9603 0.0
C209 C 0.19644 0.25517 0.99043 0.0
C210 C 0.17963 0.17871 0.98796 0.0
C211 C 0.18333 0.14719 0.95496 0.0
C212 C 0.19982 0.19011 0.92482 0.0
C213 C 0.17707 0.26438 0.8644 0.0
C214 C 0.21265 0.24115 0.83919 0.0
C215 C 0.17153 0.19832 0.80878 0.0
C216 C 0.09419 0.17792 0.80322 0.0
C217 C 0.05961 0.20274 0.8283 0.0
C218 C 0.10077 0.24552 0.85856 0.0
C219 C 0.2878 0.37849 0.89232 0.0
C220 C 0.28394 0.44308 0.8842 0.0
C221 C 0.35113 0.51446 0.88174 0.0
C222 C 0.424 0.52313 0.88792 0.0
C223 C 0.4278 0.45751 0.89522 0.0
C224 C 0.36021 0.38558 0.89711 0.0
loop_
_geom_bond_atom_site_label_1
_geom_bond_atom_site_label_2
_geom_bond_distance
_geom_bond_site_symmetry_2
_ccdc_geom_bond_type
C0 O1 1.160 1_455 S
C0 O7 1.185 . S
O1 C0 1.160 1_655 S
O2 Zn3 1.899 . S
O2 C10 1.284 1_455 S
Zn3 O2 1.899 . S
Zn3 O4 2.032 1_445 S
Zn3 O7 2.086 1_545 S
Zn3 O12 1.977 . S
O4 Zn3 2.032 1_665 S
O4 C8 1.278 1_554 S
C5 O6 1.203 . S
C5 O12 1.267 1_556 S
O6 C5 1.203 . S
O7 C0 1.185 . S
O7 Zn3 2.086 1_565 S
C8 O4 1.278 1_556 S
C8 O9 1.211 1_565 S
O9 C8 1.211 1_545 S
C10 O2 1.284 1_655 S
C10 O11 1.273 . S
O11 C10 1.273 . S
O12 Zn3 1.977 . S
O12 C5 1.267 1_554 S
C13 O14 1.160 . S
C13 O20 1.185 . S
O14 C13 1.160 . S
O15 Zn16 1.899 1_565 S
O15 C23 1.284 1_455 S
Zn16 O15 1.899 1_545 S
Zn16 O17 2.032 1_455 S
Zn16 O20 2.086 . S
Zn16 O25 1.977 . S
O17 Zn16 2.032 1_655 S
O17 C21 1.278 . S
C18 O19 1.203 1_545 S
C18 O25 1.267 . S
O19 C18 1.203 1_565 S
O20 C13 1.185 . S
O20 Zn16 2.086 . S
C21 O17 1.278 . S
C21 O22 1.211 1_545 S
O22 C21 1.211 1_565 S
C23 O15 1.284 1_655 S
C23 O24 1.273 . S
O24 C23 1.273 . S
O25 Zn16 1.977 . S
O25 C18 1.267 . S
C26 O27 1.160 1_565 S
C26 O33 1.185 . S
O27 C26 1.160 1_545 S
O28 Zn29 1.899 1_655 S
O28 C36 1.284 1_565 S
Zn29 O28 1.899 1_455 S
Zn29 O30 2.032 1_565 S
Zn29 O33 2.086 . S
Zn29 O38 1.977 1_455 S
O30 Zn29 2.032 1_545 S
O30 C34 1.278 . S
C31 O32 1.203 . S
C31 O38 1.267 . S
O32 C31 1.203 . S
O33 C26 1.185 . S
O33 Zn29 2.086 . S
C34 O30 1.278 . S
C34 O35 1.211 . S
O35 C34 1.211 . S
C36 O28 1.284 1_545 S
C36 O37 1.273 . S
O37 C36 1.273 . S
O38 Zn29 1.977 1_655 S
O38 C31 1.267 . S
H39 C66 0.929 . S
N40 C65 1.433 . S
N40 C71 1.435 . S
N40 C77 1.423 . S
H41 C67 0.930 . S
H42 C70 0.931 . S
H43 C69 0.929 . S
H44 C72 0.930 . S
H45 C73 0.932 . S
H46 C76 0.929 . S
H47 C75 0.931 . S
H48 C78 0.929 . S
H49 C82 0.931 . S
H50 C79 0.931 . S
H51 C81 0.929 1_455 S
H52 C84 0.929 . S
H53 C85 0.930 . S
H54 C87 0.929 . S
H55 C88 0.931 . S
H56 C90 0.930 . S
H57 C91 0.932 . S
H58 C93 0.931 . S
H59 C94 0.929 . S
H60 C96 0.929 . S
H61 C97 0.931 . S
H62 C99 0.929 1_455 S
N63 C83 1.433 . S
N63 C89 1.435 . S
N63 C95 1.423 . S
H64 C100 0.932 1_455 S
C65 N40 1.433 . S
C65 C66 1.363 . S
C65 C70 1.370 1_655 S
C66 H39 0.929 . S
C66 C65 1.363 . S
C66 C67 1.385 . S
C67 H41 0.930 . S
C67 C66 1.385 . S
C67 C68 1.357 1_655 S
C68 C67 1.357 1_455 S
C68 C69 1.406 . S
C69 H43 0.929 . S
C69 C68 1.406 . S
C69 C70 1.391 . S
C70 H42 0.931 . S
C70 C65 1.370 1_455 S
C70 C69 1.391 . S
C71 N40 1.435 . S
C71 C72 1.358 1_655 S
C71 C76 1.371 . S
C72 H44 0.930 . S
C72 C71 1.358 1_455 S
C72 C73 1.405 . S
C73 H45 0.932 . S
C73 C72 1.405 . S
C73 C74 1.383 1_455 S
C74 C73 1.383 1_655 S
C74 C75 1.393 . S
C75 H47 0.931 . S
C75 C74 1.393 . S
C75 C76 1.382 . S
C76 H46 0.929 . S
C76 C71 1.371 . S
C76 C75 1.382 . S
C77 N40 1.423 . S
C77 C78 1.362 . S
C77 C82 1.390 1_655 S
C78 H48 0.929 . S
C78 C77 1.362 . S
C78 C79 1.376 . S
C79 H50 0.931 . S
C79 C78 1.376 . S
C79 C80 1.396 . S
C80 C79 1.396 . S
C80 C81 1.348 . S
C80 C98 1.472 . S
C81 H51 0.929 1_655 S
C81 C80 1.348 . S
C81 C82 1.442 1_655 S
C82 H49 0.931 . S
C82 C77 1.390 1_455 S
C82 C81 1.442 1_455 S
C83 N63 1.433 . S
C83 C84 1.363 . S
C83 C88 1.370 1_655 S
C84 H52 0.929 . S
C84 C83 1.363 . S
C84 C85 1.385 . S
C85 H53 0.930 . S
C85 C84 1.385 . S
C85 C86 1.357 1_655 S
C86 C85 1.357 1_455 S
C86 C87 1.406 . S
C87 H54 0.929 . S
C87 C86 1.406 . S
C87 C88 1.391 . S
C88 H55 0.931 . S
C88 C83 1.370 1_455 S
C88 C87 1.391 . S
C89 N63 1.435 . S
C89 C90 1.358 1_655 S
C89 C94 1.371 . S
C90 H56 0.930 . S
C90 C89 1.358 1_455 S
C90 C91 1.405 . S
C91 H57 0.932 . S
C91 C90 1.405 . S
C91 C92 1.383 1_455 S
C92 C91 1.383 1_655 S
C92 C93 1.393 . S
C93 H58 0.931 . S
C93 C92 1.393 . S
C93 C94 1.382 . S
C94 H59 0.929 . S
C94 C89 1.371 . S
C94 C93 1.382 . S
C95 N63 1.423 . S
C95 C96 1.362 . S
C95 C100 1.388 . S
C96 H60 0.929 . S
C96 C95 1.362 . S
C96 C97 1.376 . S
C97 H61 0.931 . S
C97 C96 1.376 . S
C97 C98 1.396 . S
C98 C80 1.472 . S
C98 C97 1.396 . S
C98 C99 1.348 . S
C99 H62 0.929 1_655 S
C99 C98 1.348 . S
C99 C100 1.443 . S
C100 H64 0.932 1_655 S
C100 C95 1.388 . S
C100 C99 1.443 . S
H101 C128 0.929 . S
N102 C127 1.433 . S
N102 C133 1.435 . S
N102 C139 1.423 . S
H103 C129 0.930 . S
H104 C132 0.931 . S
H105 C131 0.929 . S
H106 C134 0.930 . S
H107 C135 0.932 . S
H108 C138 0.929 . S
H109 C137 0.931 . S
H110 C140 0.929 . S
H111 C144 0.932 1_565 S
H112 C141 0.931 . S
H113 C143 0.929 . S
H114 C146 0.929 . S
H115 C147 0.930 . S
H116 C149 0.929 . S
H117 C150 0.931 . S
H118 C152 0.930 . S
H119 C153 0.932 . S
H120 C155 0.931 . S
H121 C156 0.929 . S
H122 C158 0.929 . S
H123 C159 0.931 . S
H124 C161 0.929 . S
N125 C145 1.433 . S
N125 C151 1.435 . S
N125 C157 1.423 . S
H126 C162 0.932 1_565 S
C127 N102 1.433 . S
C127 C128 1.363 . S
C127 C132 1.370 1_545 S
C128 H101 0.929 . S
C128 C127 1.363 . S
C128 C129 1.385 . S
C129 H103 0.930 . S
C129 C128 1.385 . S
C129 C130 1.357 . S
C130 C129 1.357 . S
C130 C131 1.406 1_545 S
C131 H105 0.929 . S
C131 C130 1.406 1_565 S
C131 C132 1.391 . S
C132 H104 0.931 . S
C132 C127 1.370 1_565 S
C132 C131 1.391 . S
C133 N102 1.435 . S
C133 C134 1.358 1_545 S
C133 C138 1.371 . S
C134 H106 0.930 . S
C134 C133 1.358 1_565 S
C134 C135 1.405 . S
C135 H107 0.932 . S
C135 C134 1.405 . S
C135 C136 1.383 1_565 S
C136 C135 1.383 1_545 S
C136 C137 1.393 . S
C137 H109 0.931 . S
C137 C136 1.393 . S
C137 C138 1.382 . S
C138 H108 0.929 . S
C138 C133 1.371 . S
C138 C137 1.382 . S
C139 N102 1.423 . S
C139 C140 1.362 . S
C139 C144 1.388 . S
C140 H110 0.929 . S
C140 C139 1.362 . S
C140 C141 1.376 . S
C141 H112 0.931 . S
C141 C140 1.376 . S
C141 C142 1.396 . S
C142 C141 1.396 . S
C142 C143 1.348 . S
C142 C160 1.472 . S
C143 H113 0.929 . S
C143 C142 1.348 . S
C143 C144 1.443 . S
C144 H111 0.932 1_545 S
C144 C139 1.388 . S
C144 C143 1.443 . S
C145 N125 1.433 . S
C145 C146 1.363 . S
C145 C150 1.370 1_545 S
C146 H114 0.929 . S
C146 C145 1.363 . S
C146 C147 1.385 . S
C147 H115 0.930 . S
C147 C146 1.385 . S
C147 C148 1.357 . S
C148 C147 1.357 . S
C148 C149 1.406 1_545 S
C149 H116 0.929 . S
C149 C148 1.406 1_565 S
C149 C150 1.391 . S
C150 H117 0.931 . S
C150 C145 1.370 1_565 S
C150 C149 1.391 . S
C151 N125 1.435 . S
C151 C152 1.358 1_545 S
C151 C156 1.371 . S
C152 H118 0.930 . S
C152 C151 1.358 1_565 S
C152 C153 1.405 . S
C153 H119 0.932 . S
C153 C152 1.405 . S
C153 C154 1.383 1_565 S
C154 C153 1.383 1_545 S
C154 C155 1.393 . S
C155 H120 0.931 . S
C155 C154 1.393 . S
C155 C156 1.382 . S
C156 H121 0.929 . S
C156 C151 1.371 . S
C156 C155 1.382 . S
C157 N125 1.423 . S
C157 C158 1.362 . S
C157 C162 1.388 . S
C158 H122 0.929 . S
C158 C157 1.362 . S
C158 C159 1.376 . S
C159 H123 0.931 . S
C159 C158 1.376 . S
C159 C160 1.396 . S
C160 C142 1.472 . S
C160 C159 1.396 . S
C160 C161 1.348 . S
C161 H124 0.929 . S
C161 C160 1.348 . S
C161 C162 1.443 . S
C162 H126 0.932 1_545 S
C162 C157 1.388 . S
C162 C161 1.443 . S
H163 C190 0.929 . S
N164 C189 1.433 . S
N164 C195 1.435 . S
N164 C201 1.423 . S
H165 C191 0.930 . S
H166 C194 0.931 . S
H167 C193 0.929 . S
H168 C196 0.930 . S
H169 C197 0.932 . S
H170 C200 0.929 . S
H171 C199 0.931 . S
H172 C202 0.929 . S
H173 C206 0.932 . S
H174 C203 0.931 . S
H175 C205 0.929 . S
H176 C208 0.929 . S
H177 C209 0.930 . S
H178 C211 0.929 . S
H179 C212 0.931 . S
H180 C214 0.930 . S
H181 C215 0.932 . S
H182 C217 0.931 . S
H183 C218 0.929 . S
H184 C220 0.929 . S
H185 C221 0.931 . S
H186 C223 0.929 . S
N187 C207 1.433 . S
N187 C213 1.435 . S
N187 C219 1.423 . S
H188 C224 0.932 . S
C189 N164 1.433 . S
C189 C190 1.363 . S
C189 C194 1.370 . S
C190 H163 0.929 . S
C190 C189 1.363 . S
C190 C191 1.385 . S
C191 H165 0.930 . S
C191 C190 1.385 . S
C191 C192 1.357 . S
C192 C191 1.357 . S
C192 C193 1.406 . S
C193 H167 0.929 . S
C193 C192 1.406 . S
C193 C194 1.391 . S
C194 H166 0.931 . S
C194 C189 1.370 . S
C194 C193 1.391 . S
C195 N164 1.435 . S
C195 C196 1.358 . S
C195 C200 1.371 . S
C196 H168 0.930 . S
C196 C195 1.358 . S
C196 C197 1.405 . S
C197 H169 0.932 . S
C197 C196 1.405 . S
C197 C198 1.383 . S
C198 C197 1.383 . S
C198 C199 1.393 . S
C199 H171 0.931 . S
C199 C198 1.393 . S
C199 C200 1.382 . S
C200 H170 0.929 . S
C200 C195 1.371 . S
C200 C199 1.382 . S
C201 N164 1.423 . S
C201 C202 1.362 . S
C201 C206 1.388 . S
C202 H172 0.929 . S
C202 C201 1.362 . S
C202 C203 1.376 . S
C203 H174 0.931 . S
C203 C202 1.376 . S
C203 C204 1.396 . S
C204 C203 1.396 . S
C204 C205 1.348 . S
C204 C222 1.472 . S
C205 H175 0.929 . S
C205 C204 1.348 . S
C205 C206 1.443 . S
C206 H173 0.932 . S
C206 C201 1.388 . S
C206 C205 1.443 . S
C207 N187 1.433 . S
C207 C208 1.363 . S
C207 C212 1.370 . S
C208 H176 0.929 . S
C208 C207 1.363 . S
C208 C209 1.385 . S
C209 H177 0.930 . S
C209 C208 1.385 . S
C209 C210 1.357 . S
C210 C209 1.357 . S
C210 C211 1.406 . S
C211 H178 0.929 . S
C211 C210 1.406 . S
C211 C212 1.391 . S
C212 H179 0.931 . S
C212 C207 1.370 . S
C212 C211 1.391 . S
C213 N187 1.435 . S
C213 C214 1.358 . S
C213 C218 1.371 . S
C214 H180 0.930 . S
C214 C213 1.358 . S
C214 C215 1.405 . S
C215 H181 0.932 . S
C215 C214 1.405 . S
C215 C216 1.383 . S
C216 C215 1.383 . S
C216 C217 1.393 . S
C217 H182 0.931 . S
C217 C216 1.393 . S
C217 C218 1.382 . S
C218 H183 0.929 . S
C218 C213 1.371 . S
C218 C217 1.382 . S
C219 N187 1.423 . S
C219 C220 1.362 . S
C219 C224 1.388 . S
C220 H184 0.929 . S
C220 C219 1.362 . S
C220 C221 1.376 . S
C221 H185 0.931 . S
C221 C220 1.376 . S
C221 C222 1.396 . S
C222 C204 1.472 . S
C222 C221 1.396 . S
C222 C223 1.348 . S
C223 H186 0.929 . S
C223 C222 1.348 . S
C223 C224 1.443 . S
C224 H188 0.932 . S
C224 C219 1.388 . S
C224 C223 1.443 . S
C92 C10 1.800 . S
C21 C136 1.621 . S
C31 C198 1.874 . S
C0 C74 1.657 1_455 S
C154 C18 1.658 . S
C34 C216 1.554 . S
C130 C36 1.644 . S
C8 C192 1.607 . S
C68 C23 1.609 1_455 S
C148 C26 1.537 1_545 S
C210 C5 1.730 . S
C13 C86 1.738 . S
