# Generated by pormake.
# Topology pyr, (3,6)-cn, num edge types: 1
# Building blocks:
#     Node 0, Type 0, BuildingBlock: ESEHIV_clean_linker_0, # of connection points: 3
#     Node 1, Type 0, BuildingBlock: ESEHIV_clean_linker_0, # of connection points: 3
#     Node 2, Type 0, BuildingBlock: ESEHIV_clean_linker_0, # of connection points: 3
#     Node 3, Type 0, BuildingBlock: ESEHIV_clean_linker_0, # of connection points: 3
#     Node 4, Type 0, BuildingBlock: ESEHIV_clean_linker_0, # of connection points: 3
#     Node 5, Type 0, BuildingBlock: ESEHIV_clean_linker_0, # of connection points: 3
#     Node 6, Type 0, BuildingBlock: ESEHIV_clean_linker_0, # of connection points: 3
#     Node 7, Type 0, BuildingBlock: ESEHIV_clean_linker_0, # of connection points: 3
#     Node 8, Type 1, BuildingBlock: MIDCAF_clean_sbu_0, # of connection points: 6
#     Node 9, Type 1, BuildingBlock: MIDCAF_clean_sbu_0, # of connection points: 6
#     Node 10, Type 1, BuildingBlock: MIDCAF_clean_sbu_0, # of connection points: 6
#     Node 11, Type 1, BuildingBlock: MIDCAF_clean_sbu_0, # of connection points: 6
#     Edge 12, Type (0, 1), None
#     Edge 13, Type (0, 1), None
#     Edge 14, Type (0, 1), None
#     Edge 15, Type (0, 1), None
#     Edge 16, Type (0, 1), None
#     Edge 17, Type (0, 1), None
#     Edge 18, Type (0, 1), None
#     Edge 19, Type (0, 1), None
#     Edge 20, Type (0, 1), None
#     Edge 21, Type (0, 1), None
#     Edge 22, Type (0, 1), None
#     Edge 23, Type (0, 1), None
#     Edge 24, Type (0, 1), None
#     Edge 25, Type (0, 1), None
#     Edge 26, Type (0, 1), None
#     Edge 27, Type (0, 1), None
#     Edge 28, Type (0, 1), None
#     Edge 29, Type (0, 1), None
#     Edge 30, Type (0, 1), None
#     Edge 31, Type (0, 1), None
#     Edge 32, Type (0, 1), None
#     Edge 33, Type (0, 1), None
#     Edge 34, Type (0, 1), None
#     Edge 35, Type (0, 1), None
# Relax obj value: 0.019
# Max RMSD: 0.064
# Mean RMSD: 0.024
data_MOF--net-pyr--node1-MIDCAF_clean_sbu_0--node2-ESEHIV_clean_linker_0--edge1-none
_symmetry_space_group_name_H-M    P1
_symmetry_Int_Tables_number       1
_symmetry_cell_setting            triclinic
loop_
_symmetry_equiv_pos_as_xyz
'x, y, z'
_cell_length_a     13.924914
_cell_length_b     13.928888
_cell_length_c     13.929063
_cell_angle_alpha  90.002407
_cell_angle_beta   89.997573
_cell_angle_gamma 90.02936
loop_
_atom_site_label
_atom_site_type_symbol
_atom_site_fract_x
_atom_site_fract_y
_atom_site_fract_z
_atom_type_partial_charge
H0 H 0.0819 0.27207 0.32429 0.0
H1 H 0.321 0.08622 0.27119 0.0
H2 H 0.26782 0.32515 0.08515 0.0
C3 C 0.14913 0.25859 0.28747 0.0
C4 C 0.17327 0.31401 0.20625 0.0
C5 C 0.20299 0.17756 0.31314 0.0
C6 C 0.28419 0.15342 0.25767 0.0
C7 C 0.30981 0.20722 0.17656 0.0
C8 C 0.25434 0.28837 0.1524 0.0
H9 H 0.1964 0.93962 0.77118 0.0
H10 H 0.43545 0.75372 0.82431 0.0
H11 H 0.24956 0.70068 0.58514 0.0
C12 C 0.23321 0.87241 0.75767 0.0
C13 C 0.20759 0.81862 0.67655 0.0
C14 C 0.31438 0.84825 0.81314 0.0
C15 C 0.36822 0.76721 0.78748 0.0
C16 C 0.34409 0.7118 0.70625 0.0
C17 C 0.26304 0.73746 0.65239 0.0
H18 H 0.76785 0.2006 0.93873 0.0
H19 H 0.82094 0.43977 0.75292 0.0
H20 H 0.58184 0.2537 0.69972 0.0
C21 C 0.75434 0.23743 0.87152 0.0
C22 C 0.67325 0.21176 0.81769 0.0
C23 C 0.80978 0.31867 0.84742 0.0
C24 C 0.78412 0.37252 0.76638 0.0
C25 C 0.70292 0.34834 0.71092 0.0
C26 C 0.64908 0.26723 0.73653 0.0
H27 H 0.74954 0.82522 0.43875 0.0
H28 H 0.93555 0.77211 0.19972 0.0
H29 H 0.69644 0.58605 0.25293 0.0
C30 C 0.76305 0.78839 0.37154 0.0
C31 C 0.70761 0.70716 0.34744 0.0
C32 C 0.84414 0.81405 0.3177 0.0
C33 C 0.86831 0.75858 0.23653 0.0
C34 C 0.81446 0.67747 0.21093 0.0
C35 C 0.73326 0.6533 0.26639 0.0
H36 H 0.83114 0.06563 0.86456 0.0
H37 H 0.06132 0.86533 0.83428 0.0
H38 H 0.86118 0.8353 0.06474 0.0
C39 C 0.87298 0.00729 0.89307 0.0
C40 C 0.84051 0.95959 0.97485 0.0
C41 C 0.95538 0.9757 0.84378 0.0
C42 C 0.00305 0.8939 0.8762 0.0
C43 C 0.9715 0.84468 0.95865 0.0
C44 C 0.88973 0.87715 0.0064 0.0
H45 H 0.45607 0.16049 0.33428 0.0
H46 H 0.68623 0.96017 0.36455 0.0
H47 H 0.65621 0.19054 0.56472 0.0
C48 C 0.51434 0.13192 0.37619 0.0
C49 C 0.54589 0.18115 0.45864 0.0
C50 C 0.56201 0.05011 0.34377 0.0
C51 C 0.6444 0.01852 0.39306 0.0
C52 C 0.67687 0.06623 0.47485 0.0
C53 C 0.62766 0.14868 0.50639 0.0
H54 H 0.36126 0.69052 0.95934 0.0
H55 H 0.33104 0.46019 0.15953 0.0
H56 H 0.56146 0.66048 0.18969 0.0
C57 C 0.38979 0.64866 0.01765 0.0
C58 C 0.47158 0.68114 0.06538 0.0
C59 C 0.34052 0.56622 0.04921 0.0
C60 C 0.37295 0.51851 0.13099 0.0
C61 C 0.4554 0.5501 0.18025 0.0
C62 C 0.50314 0.63191 0.14781 0.0
H63 H 0.95595 0.36536 0.68973 0.0
H64 H 0.1561 0.3353 0.45931 0.0
H65 H 0.18638 0.56562 0.65952 0.0
C66 C 0.01427 0.39393 0.64783 0.0
C67 C 0.06203 0.47572 0.68026 0.0
C68 C 0.0458 0.34469 0.56538 0.0
C69 C 0.12758 0.37717 0.51764 0.0
C70 C 0.17688 0.4596 0.54919 0.0
C71 C 0.14447 0.5073 0.63098 0.0
Zn72 Zn 0.90425 0.11723 0.61645 0.0
Zn73 Zn 0.09938 0.92234 0.42142 0.0
Zn74 Zn -0.00209 0.0237 0.52282 0.0
C75 C 0.16054 0.1034 0.37691 0.0
C76 C 0.9183 0.87783 0.36016 0.0
O77 O 0.00265 0.97511 0.67682 0.0
O78 O 0.95727 0.11022 0.74488 0.0
C79 C -0.00212 0.25389 0.53951 0.0
O80 O 0.09597 0.12259 0.44072 0.0
O81 O 0.17885 0.01723 0.35662 0.0
O82 O 0.00451 0.85752 0.34192 0.0
O83 O 0.89907 0.94161 0.42474 0.0
O84 O 0.91127 0.24571 0.56355 0.0
O85 O 0.04643 0.17774 0.51811 0.0
O86 O 0.84383 0.01894 0.47428 0.0
O87 O 0.77573 0.06425 0.60942 0.0
C88 C 0.76763 0.04031 0.52279 0.0
O89 O 0.08004 0.92563 0.62162 0.0
O90 O 0.16422 0.84286 0.51621 0.0
C91 C 0.98126 0.02363 0.753 0.0
C92 C 0.14387 0.86111 0.60239 0.0
Zn93 Zn 0.41801 0.10348 0.92142 0.0
Zn94 Zn 0.61312 0.90859 0.11643 0.0
Zn95 Zn 0.51947 0.00213 0.02282 0.0
C96 C 0.74975 0.98551 0.0228 0.0
C97 C 0.51949 0.77194 0.03949 0.0
O98 O 0.43735 0.1002 0.12162 0.0
O99 O 0.35319 0.18298 0.01622 0.0
C100 C 0.59909 0.14798 0.86015 0.0
O101 O 0.67355 0.00688 0.97428 0.0
O102 O 0.74163 0.96158 0.10942 0.0
O103 O 0.60611 0.78012 0.06351 0.0
O104 O 0.47094 0.84809 0.01811 0.0
O105 O 0.51288 0.16828 0.84191 0.0
O106 O 0.61832 0.08421 0.92474 0.0
O107 O 0.4214 0.90324 0.94072 0.0
O108 O 0.33852 0.0086 0.85663 0.0
C109 C 0.35682 0.92242 0.87691 0.0
O110 O 0.51473 0.05071 0.17682 0.0
O111 O 0.56009 0.91559 0.24487 0.0
C112 C 0.37353 0.16473 0.1024 0.0
C113 C 0.53611 0.00219 0.25299 0.0
Zn114 Zn 0.5994 0.6036 0.60274 0.0
Zn115 Zn 0.4043 0.40847 0.40759 0.0
Zn116 Zn 0.49792 0.50211 0.50125 0.0
C117 C 0.49796 0.27191 0.48452 0.0
C118 C 0.48127 0.50217 0.27102 0.0
O119 O 0.39909 0.58422 0.59931 0.0
O120 O 0.5045 0.6685 0.68208 0.0
C121 C 0.66048 0.42252 0.64722 0.0
O122 O 0.54648 0.3481 0.50596 0.0
O123 O 0.41133 0.27999 0.4605 0.0
O124 O 0.45723 0.41556 0.27911 0.0
O125 O 0.50266 0.55067 0.34722 0.0
O126 O 0.67872 0.5087 0.66763 0.0
O127 O 0.59596 0.40331 0.58334 0.0
O128 O 0.58001 0.60017 0.40245 0.0
O129 O 0.66433 0.68294 0.50782 0.0
C130 C 0.64391 0.66469 0.42164 0.0
O131 O 0.34389 0.50685 0.5498 0.0
O132 O 0.27582 0.46141 0.41467 0.0
C133 C 0.4183 0.64811 0.66381 0.0
C134 C 0.2677 0.48545 0.50127 0.0
Zn135 Zn 0.11311 0.61736 0.90763 0.0
Zn136 Zn 0.91799 0.42221 0.10272 0.0
Zn137 Zn 0.01947 0.5237 0.00126 0.0
C138 C 0.09907 0.3777 0.16381 0.0
C139 C 0.87349 0.36112 0.92162 0.0
O140 O 0.97092 0.67773 0.00597 0.0
O141 O 0.10607 0.74585 0.96053 0.0
C142 C 0.2497 0.54034 0.0013 0.0
O143 O 0.11828 0.44159 0.09932 0.0
O144 O 0.01286 0.35729 0.18206 0.0
O145 O 0.85306 0.34288 0.00779 0.0
O146 O 0.93738 0.42565 0.90243 0.0
O147 O 0.24158 0.5644 0.91471 0.0
O148 O 0.17349 0.51895 0.04982 0.0
O149 O 0.01475 0.47515 0.84722 0.0
O150 O 0.06021 0.61027 0.77915 0.0
C151 C 0.03618 0.52366 0.77104 0.0
O152 O 0.92144 0.62252 0.08334 0.0
O153 O 0.83867 0.51711 0.16762 0.0
C154 C 0.01944 0.75393 0.98454 0.0
C155 C 0.85693 0.6033 0.14724 0.0
loop_
_geom_bond_atom_site_label_1
_geom_bond_atom_site_label_2
_geom_bond_distance
_geom_bond_site_symmetry_2
_ccdc_geom_bond_type
H0 C3 0.931 . S
H1 C6 0.928 . S
H2 C8 0.930 . S
C3 H0 0.931 . S
C3 C4 1.413 . S
C3 C5 1.360 . S
C4 C3 1.413 . S
C4 C8 1.429 . S
C5 C3 1.360 . S
C5 C6 1.372 . S
C6 H1 0.928 . S
C6 C5 1.372 . S
C6 C7 1.404 . S
C7 C6 1.404 . S
C7 C8 1.391 . S
C8 H2 0.930 . S
C8 C4 1.429 . S
C8 C7 1.391 . S
H9 C12 0.931 . S
H10 C15 0.928 . S
H11 C17 0.930 . S
C12 H9 0.931 . S
C12 C13 1.413 . S
C12 C14 1.360 . S
C13 C12 1.413 . S
C13 C17 1.429 . S
C14 C12 1.360 . S
C14 C15 1.372 . S
C15 H10 0.928 . S
C15 C14 1.372 . S
C15 C16 1.404 . S
C16 C15 1.404 . S
C16 C17 1.391 . S
C17 H11 0.930 . S
C17 C13 1.429 . S
C17 C16 1.391 . S
H18 C21 0.931 . S
H19 C24 0.928 . S
H20 C26 0.930 . S
C21 H18 0.931 . S
C21 C22 1.413 . S
C21 C23 1.360 . S
C22 C21 1.413 . S
C22 C26 1.429 . S
C23 C21 1.360 . S
C23 C24 1.372 . S
C24 H19 0.928 . S
C24 C23 1.372 . S
C24 C25 1.404 . S
C25 C24 1.404 . S
C25 C26 1.391 . S
C26 H20 0.930 . S
C26 C22 1.429 . S
C26 C25 1.391 . S
H27 C30 0.931 . S
H28 C33 0.928 . S
H29 C35 0.930 . S
C30 H27 0.931 . S
C30 C31 1.413 . S
C30 C32 1.360 . S
C31 C30 1.413 . S
C31 C35 1.429 . S
C32 C30 1.360 . S
C32 C33 1.372 . S
C33 H28 0.928 . S
C33 C32 1.372 . S
C33 C34 1.404 . S
C34 C33 1.404 . S
C34 C35 1.391 . S
C35 H29 0.930 . S
C35 C31 1.429 . S
C35 C34 1.391 . S
H36 C39 0.931 . S
H37 C42 0.928 . S
H38 C44 0.930 . S
C39 H36 0.931 . S
C39 C40 1.413 1_545 S
C39 C41 1.360 1_545 S
C40 C39 1.413 1_565 S
C40 C44 1.429 1_556 S
C41 C39 1.360 1_565 S
C41 C42 1.372 1_655 S
C42 H37 0.928 . S
C42 C41 1.372 1_455 S
C42 C43 1.404 1_455 S
C43 C42 1.404 1_655 S
C43 C44 1.391 1_556 S
C44 H38 0.930 . S
C44 C40 1.429 1_554 S
C44 C43 1.391 1_554 S
H45 C48 0.931 . S
H46 C51 0.928 1_565 S
H47 C53 0.930 . S
C48 H45 0.931 . S
C48 C49 1.413 . S
C48 C50 1.360 . S
C49 C48 1.413 . S
C49 C53 1.429 . S
C50 C48 1.360 . S
C50 C51 1.372 . S
C51 H46 0.928 1_545 S
C51 C50 1.372 . S
C51 C52 1.404 . S
C52 C51 1.404 . S
C52 C53 1.391 . S
C53 H47 0.930 . S
C53 C49 1.429 . S
C53 C52 1.391 . S
H54 C57 0.931 1_556 S
H55 C60 0.928 . S
H56 C62 0.930 . S
C57 H54 0.931 1_554 S
C57 C58 1.413 . S
C57 C59 1.360 . S
C58 C57 1.413 . S
C58 C62 1.429 . S
C59 C57 1.360 . S
C59 C60 1.372 . S
C60 H55 0.928 . S
C60 C59 1.372 . S
C60 C61 1.404 . S
C61 C60 1.404 . S
C61 C62 1.391 . S
C62 H56 0.930 . S
C62 C58 1.429 . S
C62 C61 1.391 . S
H63 C66 0.931 1_655 S
H64 C69 0.928 . S
H65 C71 0.930 . S
C66 H63 0.931 1_455 S
C66 C67 1.413 . S
C66 C68 1.360 . S
C67 C66 1.413 . S
C67 C71 1.429 . S
C68 C66 1.360 . S
C68 C69 1.372 . S
C69 H64 0.928 . S
C69 C68 1.372 . S
C69 C70 1.404 . S
C70 C69 1.404 . S
C70 C71 1.391 . S
C71 H65 0.930 . S
C71 C67 1.429 . S
C71 C70 1.391 . S
Zn72 O78 1.920 . S
Zn72 O84 1.898 . S
Zn72 O87 1.905 . S
Zn73 O81 1.905 1_565 S
Zn73 O82 1.898 . S
Zn73 O90 1.920 . S
Zn74 O77 2.080 1_445 S
Zn74 O80 2.114 . S
Zn74 O83 2.120 1_445 S
Zn74 O85 2.120 . S
Zn74 O86 2.114 1_455 S
Zn74 O89 2.080 1_545 S
C75 O80 1.166 . S
C75 O81 1.182 . S
C76 O82 1.167 1_655 S
C76 O83 1.299 . S
O77 Zn74 2.080 1_665 S
O77 C91 1.305 1_565 S
O78 Zn72 1.920 . S
O78 C91 1.234 . S
C79 O84 1.167 1_455 S
C79 O85 1.299 . S
O80 Zn74 2.114 . S
O80 C75 1.166 . S
O81 Zn73 1.905 1_545 S
O81 C75 1.182 . S
O82 Zn73 1.898 . S
O82 C76 1.167 1_455 S
O83 Zn74 2.120 1_665 S
O83 C76 1.299 . S
O84 Zn72 1.898 . S
O84 C79 1.167 1_655 S
O85 Zn74 2.120 . S
O85 C79 1.299 . S
O86 Zn74 2.114 1_655 S
O86 C88 1.166 . S
O87 Zn72 1.905 . S
O87 C88 1.182 . S
C88 O86 1.166 . S
C88 O87 1.182 . S
O89 Zn74 2.080 1_565 S
O89 C92 1.305 . S
O90 Zn73 1.920 . S
O90 C92 1.234 . S
C91 O77 1.305 1_545 S
C91 O78 1.234 . S
C92 O89 1.305 . S
C92 O90 1.234 . S
Zn93 O99 1.920 1_556 S
Zn93 O105 1.898 . S
Zn93 O108 1.905 . S
Zn94 O102 1.905 . S
Zn94 O103 1.898 . S
Zn94 O111 1.920 . S
Zn95 O98 2.080 . S
Zn95 O101 2.114 1_544 S
Zn95 O104 2.120 1_545 S
Zn95 O106 2.120 1_554 S
Zn95 O107 2.114 1_544 S
Zn95 O110 2.080 . S
C96 O101 1.166 1_554 S
C96 O102 1.182 . S
C97 O103 1.167 . S
C97 O104 1.299 . S
O98 Zn95 2.080 . S
O98 C112 1.305 . S
O99 Zn93 1.920 1_554 S
O99 C112 1.234 . S
C100 O105 1.167 . S
C100 O106 1.299 . S
O101 Zn95 2.114 1_566 S
O101 C96 1.166 1_556 S
O102 Zn94 1.905 . S
O102 C96 1.182 . S
O103 Zn94 1.898 . S
O103 C97 1.167 . S
O104 Zn95 2.120 1_565 S
O104 C97 1.299 . S
O105 Zn93 1.898 . S
O105 C100 1.167 . S
O106 Zn95 2.120 1_556 S
O106 C100 1.299 . S
O107 Zn95 2.114 1_566 S
O107 C109 1.166 . S
O108 Zn93 1.905 . S
O108 C109 1.182 1_545 S
C109 O107 1.166 . S
C109 O108 1.182 1_565 S
O110 Zn95 2.080 . S
O110 C113 1.305 . S
O111 Zn94 1.920 . S
O111 C113 1.234 1_565 S
C112 O98 1.305 . S
C112 O99 1.234 . S
C113 O110 1.305 . S
C113 O111 1.234 1_545 S
Zn114 O120 1.920 . S
Zn114 O126 1.898 . S
Zn114 O129 1.905 . S
Zn115 O123 1.905 . S
Zn115 O124 1.898 . S
Zn115 O132 1.920 . S
Zn116 O119 2.080 . S
Zn116 O122 2.114 . S
Zn116 O125 2.120 . S
Zn116 O127 2.120 . S
Zn116 O128 2.114 . S
Zn116 O131 2.080 . S
C117 O122 1.166 . S
C117 O123 1.182 . S
C118 O124 1.167 . S
C118 O125 1.299 . S
O119 Zn116 2.080 . S
O119 C133 1.305 . S
O120 Zn114 1.920 . S
O120 C133 1.234 . S
C121 O126 1.167 . S
C121 O127 1.299 . S
O122 Zn116 2.114 . S
O122 C117 1.166 . S
O123 Zn115 1.905 . S
O123 C117 1.182 . S
O124 Zn115 1.898 . S
O124 C118 1.167 . S
O125 Zn116 2.120 . S
O125 C118 1.299 . S
O126 Zn114 1.898 . S
O126 C121 1.167 . S
O127 Zn116 2.120 . S
O127 C121 1.299 . S
O128 Zn116 2.114 . S
O128 C130 1.166 . S
O129 Zn114 1.905 . S
O129 C130 1.182 . S
C130 O128 1.166 . S
C130 O129 1.182 . S
O131 Zn116 2.080 . S
O131 C134 1.305 . S
O132 Zn115 1.920 . S
O132 C134 1.234 . S
C133 O119 1.305 . S
C133 O120 1.234 . S
C134 O131 1.305 . S
C134 O132 1.234 . S
Zn135 O141 1.920 . S
Zn135 O147 1.898 . S
Zn135 O150 1.905 . S
Zn136 O144 1.905 1_655 S
Zn136 O145 1.898 . S
Zn136 O153 1.920 . S
Zn137 O140 2.080 1_454 S
Zn137 O143 2.114 . S
Zn137 O146 2.120 1_454 S
Zn137 O148 2.120 . S
Zn137 O149 2.114 1_554 S
Zn137 O152 2.080 1_455 S
C138 O143 1.166 . S
C138 O144 1.182 . S
C139 O145 1.167 1_556 S
C139 O146 1.299 . S
O140 Zn137 2.080 1_656 S
O140 C154 1.305 1_655 S
O141 Zn135 1.920 . S
O141 C154 1.234 . S
C142 O147 1.167 1_554 S
C142 O148 1.299 . S
O143 Zn137 2.114 . S
O143 C138 1.166 . S
O144 Zn136 1.905 1_455 S
O144 C138 1.182 . S
O145 Zn136 1.898 . S
O145 C139 1.167 1_554 S
O146 Zn137 2.120 1_656 S
O146 C139 1.299 . S
O147 Zn135 1.898 . S
O147 C142 1.167 1_556 S
O148 Zn137 2.120 . S
O148 C142 1.299 . S
O149 Zn137 2.114 1_556 S
O149 C151 1.166 . S
O150 Zn135 1.905 . S
O150 C151 1.182 . S
C151 O149 1.166 . S
C151 O150 1.182 . S
O152 Zn137 2.080 1_655 S
O152 C155 1.305 . S
O153 Zn136 1.920 . S
O153 C155 1.234 . S
C154 O140 1.305 1_455 S
C154 O141 1.234 . S
C155 O152 1.305 . S
C155 O153 1.234 . S
C5 C75 1.533 . S
C14 C109 1.488 . S
C121 C25 1.477 . S
C34 C155 1.493 . S
C112 C7 1.505 . S
C92 C13 1.497 . S
C139 C23 1.481 . S
C130 C31 1.491 . S
C4 C138 1.499 . S
C100 C22 1.482 . S
C32 C76 1.489 . S
C16 C133 1.473 . S
C91 C41 1.505 1_545 S
C50 C113 1.530 . S
C61 C118 1.489 . S
C67 C151 1.553 . S
C40 C96 1.541 1_556 S
C88 C52 1.553 . S
C142 C59 1.504 . S
C134 C70 1.507 . S
C43 C154 1.515 1_655 S
C97 C58 1.517 . S
C79 C68 1.481 . S
C49 C117 1.562 . S
