# Generated by pormake.
# Topology anh, (6,3)-cn, num edge types: 1
# Building blocks:
#     Node 0, Type 0, BuildingBlock: GEDQOX_clean_sbu_0, # of connection points: 6
#     Node 1, Type 0, BuildingBlock: GEDQOX_clean_sbu_0, # of connection points: 6
#     Node 2, Type 0, BuildingBlock: GEDQOX_clean_sbu_0, # of connection points: 6
#     Node 3, Type 1, BuildingBlock: PAMTOO_clean_linker_0, # of connection points: 3
#     Node 4, Type 1, BuildingBlock: PAMTOO_clean_linker_0, # of connection points: 3
#     Node 5, Type 1, BuildingBlock: PAMTOO_clean_linker_0, # of connection points: 3
#     Node 6, Type 1, BuildingBlock: PAMTOO_clean_linker_0, # of connection points: 3
#     Node 7, Type 1, BuildingBlock: PAMTOO_clean_linker_0, # of connection points: 3
#     Node 8, Type 1, BuildingBlock: PAMTOO_clean_linker_0, # of connection points: 3
#     Edge 9, Type (0, 1), None
#     Edge 10, Type (0, 1), None
#     Edge 11, Type (0, 1), None
#     Edge 12, Type (0, 1), None
#     Edge 13, Type (0, 1), None
#     Edge 14, Type (0, 1), None
#     Edge 15, Type (0, 1), None
#     Edge 16, Type (0, 1), None
#     Edge 17, Type (0, 1), None
#     Edge 18, Type (0, 1), None
#     Edge 19, Type (0, 1), None
#     Edge 20, Type (0, 1), None
#     Edge 21, Type (0, 1), None
#     Edge 22, Type (0, 1), None
#     Edge 23, Type (0, 1), None
#     Edge 24, Type (0, 1), None
#     Edge 25, Type (0, 1), None
#     Edge 26, Type (0, 1), None
# Relax obj value: 0.403
# Max RMSD: 0.289
# Mean RMSD: 0.160
data_MOF--net-anh--node1-GEDQOX_clean_sbu_0--node2-PAMTOO_clean_linker_0--edge1-none
_symmetry_space_group_name_H-M    P1
_symmetry_Int_Tables_number       1
_symmetry_cell_setting            triclinic
loop_
_symmetry_equiv_pos_as_xyz
'x, y, z'
_cell_length_a     14.675067
_cell_length_b     13.407684
_cell_length_c     22.516232
_cell_angle_alpha  86.273974
_cell_angle_beta   91.99875
_cell_angle_gamma 85.275789
loop_
_atom_site_label
_atom_site_type_symbol
_atom_site_fract_x
_atom_site_fract_y
_atom_site_fract_z
_atom_type_partial_charge
Nd0 Nd 0.17665 0.64965 0.10801 0.0
Nd1 Nd 0.16351 0.43023 0.12189 0.0
C2 C 0.19363 0.84392 0.09018 0.0
C3 C 0.2739 0.90278 0.10184 0.0
C4 C 0.35503 0.88832 0.07055 0.0
C5 C 0.43185 0.93963 0.08447 0.0
C6 C 0.42972 1.00671 0.12994 0.0
C7 C 0.34911 1.02071 0.16153 0.0
C8 C 0.27225 0.96953 0.14761 0.0
C9 C 0.19025 0.5711 0.22423 0.0
C10 C 0.38697 0.51775 0.10719 0.0
C11 C 1.14101 0.24362 0.16019 0.0
C12 C 1.05456 0.20239 0.18027 0.0
C13 C 0.9953 0.25757 0.21623 0.0
C14 C 0.91202 0.22258 0.23304 0.0
C15 C 0.88376 0.13219 0.21332 0.0
C16 C 0.94152 0.07787 0.17589 0.0
C17 C 1.02609 0.11248 0.15971 0.0
C18 C 0.16095 0.50825 0.00818 0.0
C19 C 0.95513 0.55906 0.09359 0.0
O20 O 0.19928 0.78228 0.04736 0.0
O21 O 1.1561 0.80508 0.13717 0.0
O22 O 0.24366 0.63448 0.20202 0.0
O23 O 1.13248 0.54935 0.18531 0.0
O24 O 0.34016 0.60784 0.09565 0.0
O25 O 0.33351 0.44035 0.12033 0.0
O26 O 0.17704 0.30751 0.19395 0.0
O27 O 1.1424 0.27203 0.10362 0.0
O28 O 1.11004 0.43781 0.02461 0.0
O29 O 0.21364 0.52966 0.04914 0.0
O30 O 0.99925 0.47288 0.11633 0.0
O31 O 1.01083 0.63423 0.08091 0.0
H32 H 0.35986 0.83643 0.0357 0.0
H33 H 0.49308 0.9272 0.05952 0.0
H34 H 0.34539 0.07165 0.19696 0.0
H35 H 0.21178 0.98118 0.17333 0.0
H36 H 1.01208 0.32932 0.23054 0.0
H37 H 0.86861 0.26764 0.26076 0.0
H38 H 0.92181 1.00811 0.1597 0.0
H39 H 1.06859 0.06966 0.13043 0.0
Nd40 Nd 0.61103 0.06041 0.49232 0.0
Nd41 Nd 0.80901 1.04309 0.48436 0.0
C42 C 0.44023 1.02905 0.51652 0.0
C43 C 0.37946 0.9518 0.49971 0.0
C44 C 0.33057 0.90235 0.54354 0.0
C45 C 0.27663 0.82534 0.52886 0.0
C46 C 0.27064 0.79641 0.47003 0.0
C47 C 0.31915 0.84625 0.42613 0.0
C48 C 0.37346 0.92282 0.44083 0.0
C49 C 0.66671 0.07522 0.3765 0.0
C50 C 0.71669 0.82844 0.49389 0.0
C51 C 0.97895 0.07443 0.45658 0.0
C52 C 1.02284 0.1632 0.43273 0.0
C53 C 0.97387 0.23672 0.39403 0.0
C54 C 1.01447 0.32261 0.37357 0.0
C55 C 1.10418 0.33794 0.39248 0.0
C56 C 1.15291 0.26487 0.4317 0.0
C57 C 1.11274 0.17792 0.45134 0.0
C58 C 0.75749 1.01697 0.59972 0.0
C59 C 0.69623 0.27161 0.48698 0.0
O60 O 0.51004 0.99742 0.55244 0.0
O61 O 0.46172 0.09296 0.47395 0.0
O62 O 0.59638 0.12725 0.39504 0.0
O63 O 0.70125 1.01325 0.41716 0.0
O64 O 0.64203 0.88741 0.50193 0.0
O65 O 0.79444 0.86939 0.48267 0.0
O66 O 0.92118 1.03624 0.42067 0.0
O67 O 0.94935 0.07934 0.5104 0.0
O68 O 0.82145 0.96136 0.57647 0.0
O69 O 0.7214 0.08525 0.56221 0.0
O70 O 0.76558 0.2172 0.46514 0.0
O71 O 0.62907 0.22487 0.51056 0.0
H72 H 0.33477 0.92274 0.58928 0.0
H73 H 0.23957 0.78842 0.56351 0.0
H74 H 0.31507 0.82565 0.38043 0.0
H75 H 0.41123 0.95873 0.40617 0.0
H76 H 0.90372 0.22866 0.3802 0.0
H77 H 0.97502 0.37816 0.3439 0.0
H78 H 0.22235 0.27462 0.44672 0.0
H79 H 1.15153 0.12267 0.48159 0.0
Nd80 Nd 0.63276 0.59483 0.80283 0.0
Nd81 Nd 0.80717 0.56202 0.77849 0.0
C82 C 0.45353 0.62752 0.80338 0.0
C83 C 0.38659 0.70829 0.8191 0.0
C84 C 0.33054 0.76111 0.77371 0.0
C85 C 0.25628 0.82558 0.78794 0.0
C86 C 0.23648 0.83636 0.84775 0.0
C87 C 0.29907 0.79375 0.89283 0.0
C88 C 0.37345 0.72927 0.87865 0.0
C89 C 0.73389 0.6047 0.90987 0.0
C90 C 0.73796 0.79888 0.78469 0.0
C91 C 0.97131 0.51417 0.73933 0.0
C92 C 1.05676 0.45112 0.73895 0.0
C93 C 1.07676 0.37562 0.78453 0.0
C94 C 0.16383 0.36802 0.81237 0.0
C95 C 0.21721 0.44964 0.8012 0.0
C96 C 0.21473 0.48757 0.74149 0.0
C97 C 1.12961 0.49411 0.71083 0.0
C98 C 0.70312 0.62049 0.67642 0.0
C99 C 0.70222 0.35708 0.80008 0.0
O100 O 0.50107 0.64837 0.75695 0.0
O101 O 0.50165 0.57523 0.84648 0.0
O102 O 0.66854 0.66914 0.88856 0.0
O103 O 0.75042 0.53926 0.87207 0.0
O104 O 0.65926 0.76047 0.77532 0.0
O105 O 0.81067 0.73389 0.79661 0.0
O106 O 0.95726 0.5674 0.78561 0.0
O107 O 0.89748 0.48055 0.71754 0.0
O108 O 0.7681 0.66824 0.69706 0.0
O109 O 0.68634 0.55174 0.71424 0.0
O110 O 0.78393 0.39128 0.79696 0.0
O111 O 0.63019 0.42227 0.80162 0.0
H112 H 0.34006 0.747 0.72739 0.0
H113 H 0.20841 0.85718 0.75262 0.0
H114 H 0.28449 0.80083 0.93921 0.0
H115 H 0.41665 0.69107 0.91451 0.0
H116 H 1.02291 0.33617 0.80474 0.0
H117 H 0.17414 0.32078 0.85331 0.0
H118 H 0.26425 0.5386 0.72686 0.0
H119 H 1.11683 0.5483 0.673 0.0
H120 H 0.82278 0.12018 0.3256 0.0
H121 H 0.55782 1.02063 0.28654 0.0
H122 H 0.74444 0.06149 0.14557 0.0
H123 H 0.5375 0.09654 0.10093 0.0
C124 C 0.51185 0.06483 0.14339 0.0
O125 O 0.58167 1.00319 0.17315 0.0
H126 H 0.49085 0.12921 0.17022 0.0
C127 C 0.77343 0.09721 0.29359 0.0
C128 C 0.79486 0.09584 0.23306 0.0
C129 C 0.68827 0.07091 0.31311 0.0
C130 C 0.62362 1.04154 0.27185 0.0
C131 C 0.64384 1.03695 0.21161 0.0
C132 C 0.72958 0.0639 0.19226 0.0
H133 H 0.67729 0.77947 0.60219 0.0
H134 H 0.71012 0.45876 0.60728 0.0
H135 H 0.74969 0.63376 0.44337 0.0
H136 H 0.68035 0.3988 0.42245 0.0
C137 C 0.68003 0.38595 0.47165 0.0
O138 O 0.74544 0.44379 0.49595 0.0
H139 H 0.61056 0.41214 0.48565 0.0
C140 C 0.69136 0.712 0.579 0.0
C141 C 0.71536 0.72085 0.51943 0.0
C142 C 0.69184 0.61941 0.61124 0.0
C143 C 0.70692 0.53068 0.58202 0.0
C144 C 0.72549 0.53376 0.52109 0.0
C145 C 0.73209 0.63003 0.48969 0.0
H146 H 0.24172 0.41928 0.9207 0.0
H147 H 1.09 0.69032 0.96483 0.0
H148 H 1.15514 0.65296 0.78416 0.0
H149 H 1.13451 0.88616 0.90941 0.0
C150 C 1.13861 0.86218 0.86315 0.0
O151 O 1.08823 0.77949 0.85772 0.0
H152 H 1.10743 0.92432 0.832 0.0
C153 C 0.20972 0.49327 0.90663 0.0
C154 C 0.20447 0.52618 0.84634 0.0
C155 C 0.165 0.55019 0.94804 0.0
C156 C 1.12253 0.64553 0.93188 0.0
C157 C 1.12259 0.68361 0.87297 0.0
C158 C 0.1618 0.62369 0.83013 0.0
H159 H 1.11438 0.41307 0.27846 0.0
H160 H 0.26026 0.66903 0.31492 0.0
H161 H 0.18721 0.4704 0.4592 0.0
H162 H 0.17432 0.68618 0.49262 0.0
C163 C 0.21043 0.71566 0.45346 0.0
O164 O 0.26231 0.63738 0.43049 0.0
H165 H 1.15824 0.74972 0.41932 0.0
C166 C 1.14565 0.45849 0.30985 0.0
C167 C 1.14657 0.42993 0.37115 0.0
C168 C 0.18788 0.54336 0.28883 0.0
C169 C 0.22854 0.60225 0.33007 0.0
C170 C 0.22662 0.57713 0.39133 0.0
C171 C 0.18746 0.48995 0.41175 0.0
H172 H 0.75561 0.85193 0.67087 0.0
H173 H 0.74625 0.17159 0.67385 0.0
H174 H 0.7464 0.98749 0.83893 0.0
H175 H 0.67219 0.22457 0.85312 0.0
C176 C 0.68639 0.2442 0.80588 0.0
O177 O 0.75797 0.17755 0.78922 0.0
H178 H 0.62233 0.23379 0.77991 0.0
C179 C 0.7506 0.9175 0.69613 0.0
C180 C 0.74756 0.90518 0.75843 0.0
C181 C 0.747 1.01225 0.6652 0.0
C182 C 0.74458 0.09865 0.69736 0.0
C183 C 0.747 0.09155 0.76006 0.0
C184 C 0.74656 0.99396 0.79077 0.0
H185 H 0.89165 0.5883 -0.02058 0.0
H186 H 0.59888 0.58172 -0.01461 0.0
H187 H 0.76505 0.53645 0.14961 0.0
H188 H 0.51928 0.42004 0.11587 0.0
C189 C 0.49801 0.49331 0.09145 0.0
O190 O 0.57567 0.55634 0.0995 0.0
H191 H 0.49576 0.47602 0.04391 0.0
C192 C 0.83276 0.57865 0.00633 0.0
C193 C 0.84717 0.563 0.06917 0.0
C194 C 0.74508 0.58291 -0.02341 0.0
C195 C 0.66461 0.57362 0.00946 0.0
C196 C 0.66486 0.55433 0.0718 0.0
C197 C 0.75969 0.54857 0.10161 0.0
loop_
_geom_bond_atom_site_label_1
_geom_bond_atom_site_label_2
_geom_bond_distance
_geom_bond_site_symmetry_2
_ccdc_geom_bond_type
Nd0 C2 2.836 . S
Nd0 O20 2.500 . S
Nd0 O21 2.492 . S
Nd0 O22 2.487 . S
Nd0 O23 2.682 1_455 S
Nd0 O24 2.410 . S
Nd0 O29 2.414 . S
Nd0 O31 2.424 1_455 S
Nd1 C11 2.836 . S
Nd1 O23 2.414 . S
Nd1 O25 2.424 1_655 S
Nd1 O26 2.500 . S
Nd1 O27 2.492 . S
Nd1 O28 2.487 . S
Nd1 O29 2.682 1_655 S
Nd1 O30 2.410 . S
C2 Nd0 2.836 . S
C2 C3 1.498 . S
C2 O20 1.258 . S
C2 O21 1.239 . S
C3 C2 1.498 . S
C3 C4 1.366 . S
C3 C8 1.407 . S
C4 C3 1.366 . S
C4 C5 1.392 . S
C4 H32 0.930 . S
C5 C4 1.392 . S
C5 C6 1.398 . S
C5 H33 0.929 . S
C6 C5 1.398 . S
C6 C7 1.352 . S
C7 C6 1.352 . S
C7 C8 1.384 . S
C7 H34 0.930 . S
C8 C3 1.407 . S
C8 C7 1.384 . S
C8 H35 0.929 . S
C9 O22 1.241 . S
C9 O23 1.273 1_455 S
C10 O24 1.251 . S
C10 O25 1.268 . S
C11 Nd1 2.836 . S
C11 C12 1.498 . S
C11 O26 1.258 . S
C11 O27 1.239 . S
C12 C11 1.498 . S
C12 C13 1.366 . S
C12 C17 1.407 . S
C13 C12 1.366 . S
C13 C14 1.392 . S
C13 H36 0.930 . S
C14 C13 1.392 . S
C14 C15 1.398 . S
C14 H37 0.929 . S
C15 C14 1.398 . S
C15 C16 1.352 . S
C16 C15 1.352 . S
C16 C17 1.384 . S
C16 H38 0.930 . S
C17 C12 1.407 . S
C17 C16 1.384 . S
C17 H39 0.929 . S
C18 O28 1.241 1_455 S
C18 O29 1.273 . S
C19 O30 1.251 . S
C19 O31 1.268 . S
O20 Nd0 2.500 . S
O20 C2 1.258 . S
O21 Nd0 2.492 . S
O21 C2 1.239 . S
O22 Nd0 2.487 . S
O22 C9 1.241 . S
O23 Nd0 2.682 1_655 S
O23 Nd1 2.414 . S
O23 C9 1.273 1_655 S
O24 Nd0 2.410 . S
O24 C10 1.251 . S
O25 Nd1 2.424 1_455 S
O25 C10 1.268 . S
O26 Nd1 2.500 . S
O26 C11 1.258 . S
O27 Nd1 2.492 . S
O27 C11 1.239 . S
O28 Nd1 2.487 . S
O28 C18 1.241 1_655 S
O29 Nd0 2.414 . S
O29 Nd1 2.682 1_455 S
O29 C18 1.273 . S
O30 Nd1 2.410 . S
O30 C19 1.251 . S
O31 Nd0 2.424 1_655 S
O31 C19 1.268 . S
H32 C4 0.930 . S
H33 C5 0.929 . S
H34 C7 0.930 . S
H35 C8 0.929 . S
H36 C13 0.930 . S
H37 C14 0.929 . S
H38 C16 0.930 . S
H39 C17 0.929 . S
Nd40 C42 2.836 . S
Nd40 O60 2.500 . S
Nd40 O61 2.492 . S
Nd40 O62 2.487 . S
Nd40 O63 2.682 1_565 S
Nd40 O64 2.410 . S
Nd40 O69 2.414 . S
Nd40 O71 2.424 1_565 S
Nd41 C51 2.836 . S
Nd41 O63 2.414 . S
Nd41 O65 2.424 1_545 S
Nd41 O66 2.500 . S
Nd41 O67 2.492 . S
Nd41 O68 2.487 . S
Nd41 O69 2.682 1_545 S
Nd41 O70 2.410 . S
C42 Nd40 2.836 . S
C42 C43 1.498 . S
C42 O60 1.258 . S
C42 O61 1.239 . S
C43 C42 1.498 . S
C43 C44 1.366 . S
C43 C48 1.407 . S
C44 C43 1.366 . S
C44 C45 1.392 . S
C44 H72 0.930 . S
C45 C44 1.392 . S
C45 C46 1.398 . S
C45 H73 0.929 . S
C46 C45 1.398 . S
C46 C47 1.352 . S
C47 C46 1.352 . S
C47 C48 1.384 . S
C47 H74 0.930 . S
C48 C43 1.407 . S
C48 C47 1.384 . S
C48 H75 0.929 . S
C49 O62 1.241 1_545 S
C49 O63 1.273 . S
C50 O64 1.251 . S
C50 O65 1.268 . S
C51 Nd41 2.836 . S
C51 C52 1.498 . S
C51 O66 1.258 . S
C51 O67 1.239 . S
C52 C51 1.498 . S
C52 C53 1.366 . S
C52 C57 1.407 . S
C53 C52 1.366 . S
C53 C54 1.392 . S
C53 H76 0.930 . S
C54 C53 1.392 . S
C54 C55 1.398 . S
C54 H77 0.929 . S
C55 C54 1.398 . S
C55 C56 1.352 . S
C56 C55 1.352 . S
C56 C57 1.384 . S
C56 H78 0.930 . S
C57 C52 1.407 . S
C57 C56 1.384 . S
C57 H79 0.929 . S
C58 O68 1.241 1_565 S
C58 O69 1.273 . S
C59 O70 1.251 . S
C59 O71 1.268 . S
O60 Nd40 2.500 . S
O60 C42 1.258 . S
O61 Nd40 2.492 . S
O61 C42 1.239 . S
O62 Nd40 2.487 . S
O62 C49 1.241 1_565 S
O63 Nd40 2.682 1_545 S
O63 Nd41 2.414 . S
O63 C49 1.273 . S
O64 Nd40 2.410 . S
O64 C50 1.251 . S
O65 Nd41 2.424 1_565 S
O65 C50 1.268 . S
O66 Nd41 2.500 . S
O66 C51 1.258 . S
O67 Nd41 2.492 . S
O67 C51 1.239 . S
O68 Nd41 2.487 . S
O68 C58 1.241 1_545 S
O69 Nd40 2.414 . S
O69 Nd41 2.682 1_565 S
O69 C58 1.273 . S
O70 Nd41 2.410 . S
O70 C59 1.251 . S
O71 Nd40 2.424 1_545 S
O71 C59 1.268 . S
H72 C44 0.930 . S
H73 C45 0.929 . S
H74 C47 0.930 . S
H75 C48 0.929 . S
H76 C53 0.930 . S
H77 C54 0.929 . S
H78 C56 0.930 . S
H79 C57 0.929 . S
Nd80 C82 2.836 . S
Nd80 O100 2.500 . S
Nd80 O101 2.492 . S
Nd80 O102 2.487 . S
Nd80 O103 2.682 . S
Nd80 O104 2.410 . S
Nd80 O109 2.414 . S
Nd80 O111 2.424 . S
Nd81 C91 2.836 . S
Nd81 O103 2.414 . S
Nd81 O105 2.424 . S
Nd81 O106 2.500 . S
Nd81 O107 2.492 . S
Nd81 O108 2.487 . S
Nd81 O109 2.682 . S
Nd81 O110 2.410 . S
C82 Nd80 2.836 . S
C82 C83 1.498 . S
C82 O100 1.258 . S
C82 O101 1.239 . S
C83 C82 1.498 . S
C83 C84 1.366 . S
C83 C88 1.407 . S
C84 C83 1.366 . S
C84 C85 1.392 . S
C84 H112 0.930 . S
C85 C84 1.392 . S
C85 C86 1.398 . S
C85 H113 0.929 . S
C86 C85 1.398 . S
C86 C87 1.352 . S
C87 C86 1.352 . S
C87 C88 1.384 . S
C87 H114 0.930 . S
C88 C83 1.407 . S
C88 C87 1.384 . S
C88 H115 0.929 . S
C89 O102 1.241 . S
C89 O103 1.273 . S
C90 O104 1.251 . S
C90 O105 1.268 . S
C91 Nd81 2.836 . S
C91 C92 1.498 . S
C91 O106 1.258 . S
C91 O107 1.239 . S
C92 C91 1.498 . S
C92 C93 1.366 . S
C92 C97 1.407 . S
C93 C92 1.366 . S
C93 C94 1.392 . S
C93 H116 0.930 . S
C94 C93 1.392 . S
C94 C95 1.398 . S
C94 H117 0.929 . S
C95 C94 1.398 . S
C95 C96 1.352 . S
C96 C95 1.352 . S
C96 C97 1.384 . S
C96 H118 0.930 . S
C97 C92 1.407 . S
C97 C96 1.384 . S
C97 H119 0.929 . S
C98 O108 1.241 . S
C98 O109 1.273 . S
C99 O110 1.251 . S
C99 O111 1.268 . S
O100 Nd80 2.500 . S
O100 C82 1.258 . S
O101 Nd80 2.492 . S
O101 C82 1.239 . S
O102 Nd80 2.487 . S
O102 C89 1.241 . S
O103 Nd80 2.682 . S
O103 Nd81 2.414 . S
O103 C89 1.273 . S
O104 Nd80 2.410 . S
O104 C90 1.251 . S
O105 Nd81 2.424 . S
O105 C90 1.268 . S
O106 Nd81 2.500 . S
O106 C91 1.258 . S
O107 Nd81 2.492 . S
O107 C91 1.239 . S
O108 Nd81 2.487 . S
O108 C98 1.241 . S
O109 Nd80 2.414 . S
O109 Nd81 2.682 . S
O109 C98 1.273 . S
O110 Nd81 2.410 . S
O110 C99 1.251 . S
O111 Nd80 2.424 . S
O111 C99 1.268 . S
H112 C84 0.930 . S
H113 C85 0.929 . S
H114 C87 0.930 . S
H115 C88 0.929 . S
H116 C93 0.930 . S
H117 C94 0.929 . S
H118 C96 0.930 . S
H119 C97 0.929 . S
H120 C127 0.929 . S
H121 C130 0.926 1_565 S
H122 C132 0.929 . S
H123 C124 0.969 . S
C124 H123 0.969 . S
C124 O125 1.550 . S
C124 H126 0.973 . S
O125 C124 1.550 . S
O125 C131 1.412 1_565 S
H126 C124 0.973 . S
C127 H120 0.929 . S
C127 C128 1.400 . S
C127 C129 1.364 . S
C128 C127 1.400 . S
C128 C132 1.377 . S
C129 C127 1.364 . S
C129 C130 1.379 . S
C130 H121 0.926 1_545 S
C130 C129 1.379 . S
C130 C131 1.383 . S
C131 O125 1.412 1_545 S
C131 C130 1.383 . S
C131 C132 1.394 . S
C132 H122 0.929 . S
C132 C128 1.377 . S
C132 C131 1.394 . S
H133 C140 0.929 . S
H134 C143 0.930 . S
H135 C145 0.929 . S
H136 C137 0.969 . S
C137 H136 0.969 . S
C137 O138 1.550 . S
C137 H139 0.973 . S
O138 C137 1.550 . S
O138 C144 1.412 . S
H139 C137 0.973 . S
C140 H133 0.929 . S
C140 C141 1.400 . S
C140 C142 1.364 . S
C141 C140 1.400 . S
C141 C145 1.377 . S
C142 C140 1.364 . S
C142 C143 1.374 . S
C143 H134 0.930 . S
C143 C142 1.374 . S
C143 C144 1.383 . S
C144 O138 1.412 . S
C144 C143 1.383 . S
C144 C145 1.394 . S
C145 H135 0.929 . S
C145 C141 1.377 . S
C145 C144 1.394 . S
H146 C153 0.929 1_554 S
H147 C156 0.930 1_554 S
H148 C158 0.929 . S
H149 C150 0.969 . S
C150 H149 0.969 . S
C150 O151 1.550 . S
C150 H152 0.973 . S
O151 C150 1.550 . S
O151 C157 1.412 . S
H152 C150 0.973 . S
C153 H146 0.929 1_556 S
C153 C154 1.400 . S
C153 C155 1.364 1_656 S
C154 C153 1.400 . S
C154 C158 1.377 . S
C155 C153 1.364 1_454 S
C155 C156 1.374 1_554 S
C156 H147 0.930 1_556 S
C156 C155 1.374 1_556 S
C156 C157 1.383 . S
C157 O151 1.412 . S
C157 C156 1.383 . S
C157 C158 1.394 1_455 S
C158 H148 0.929 . S
C158 C154 1.377 . S
C158 C157 1.394 1_655 S
H159 C166 0.929 . S
H160 C169 0.930 . S
H161 C171 0.929 . S
H162 C163 0.969 . S
C163 H162 0.969 . S
C163 O164 1.550 . S
C163 H165 0.973 . S
O164 C163 1.550 . S
O164 C170 1.412 . S
H165 C163 0.973 . S
C166 H159 0.929 . S
C166 C167 1.400 . S
C166 C168 1.364 . S
C167 C166 1.400 . S
C167 C171 1.377 . S
C168 C166 1.364 . S
C168 C169 1.374 1_655 S
C169 H160 0.930 . S
C169 C168 1.374 1_455 S
C169 C170 1.383 . S
C170 O164 1.412 . S
C170 C169 1.383 . S
C170 C171 1.394 1_455 S
C171 H161 0.929 . S
C171 C167 1.377 . S
C171 C170 1.394 1_655 S
H172 C179 0.929 . S
H173 C182 0.930 . S
H174 C184 0.929 . S
H175 C176 0.969 . S
C176 H175 0.969 . S
C176 O177 1.550 . S
C176 H178 0.973 . S
O177 C176 1.550 . S
O177 C183 1.412 . S
H178 C176 0.973 . S
C179 H172 0.929 . S
C179 C180 1.400 . S
C179 C181 1.364 . S
C180 C179 1.400 . S
C180 C184 1.377 . S
C181 C179 1.364 . S
C181 C182 1.374 1_565 S
C182 H173 0.930 . S
C182 C181 1.374 1_545 S
C182 C183 1.383 . S
C183 O177 1.412 . S
C183 C182 1.383 . S
C183 C184 1.394 1_545 S
C184 H174 0.929 . S
C184 C180 1.377 . S
C184 C183 1.394 1_565 S
H185 C192 0.929 . S
H186 C195 0.930 . S
H187 C197 0.929 . S
H188 C189 0.969 . S
C189 H188 0.969 . S
C189 O190 1.550 . S
C189 H191 0.973 . S
O190 C189 1.550 . S
O190 C196 1.412 . S
H191 C189 0.973 . S
C192 H185 0.929 . S
C192 C193 1.400 . S
C192 C194 1.364 . S
C193 C192 1.400 . S
C193 C197 1.377 . S
C194 C192 1.364 . S
C194 C195 1.374 . S
C195 H186 0.930 . S
C195 C194 1.374 . S
C195 C196 1.383 . S
C196 O190 1.412 . S
C196 C195 1.383 . S
C196 C197 1.394 . S
C197 H187 0.929 . S
C197 C193 1.377 . S
C197 C196 1.394 . S
C10 C189 4.593 . S
C55 C167 1.856 . S
C90 C180 2.474 . S
C19 C193 4.748 . S
C163 C46 2.485 . S
C176 C99 2.596 . S
C50 C141 2.353 . S
C95 C154 3.480 . S
C6 C124 2.182 . S
C137 C59 2.375 . S
C150 C86 3.826 . S
C15 C128 2.827 . S
C155 C18 0.980 . S
C49 C129 1.370 . S
C98 C142 1.177 . S
C181 C58 1.341 . S
C194 C89 2.039 1_554 S
C9 C168 1.439 1_455 S
