# Generated by pormake.
# Topology rtl, (3,6)-cn, num edge types: 1
# Building blocks:
#     Node 0, Type 0, BuildingBlock: INOVEN_clean_linker_0, # of connection points: 3
#     Node 1, Type 0, BuildingBlock: INOVEN_clean_linker_0, # of connection points: 3
#     Node 2, Type 0, BuildingBlock: INOVEN_clean_linker_0, # of connection points: 3
#     Node 3, Type 0, BuildingBlock: INOVEN_clean_linker_0, # of connection points: 3
#     Node 4, Type 1, BuildingBlock: KUMBOL_clean_sbu_1, # of connection points: 6
#     Node 5, Type 1, BuildingBlock: KUMBOL_clean_sbu_1, # of connection points: 6
#     Edge 6, Type (0, 1), None
#     Edge 7, Type (0, 1), None
#     Edge 8, Type (0, 1), None
#     Edge 9, Type (0, 1), None
#     Edge 10, Type (0, 1), None
#     Edge 11, Type (0, 1), None
#     Edge 12, Type (0, 1), None
#     Edge 13, Type (0, 1), None
#     Edge 14, Type (0, 1), None
#     Edge 15, Type (0, 1), None
#     Edge 16, Type (0, 1), None
#     Edge 17, Type (0, 1), None
# Relax obj value: 0.052
# Max RMSD: 0.289
# Mean RMSD: 0.196
data_MOF--net-rtl--node1-KUMBOL_clean_sbu_1--node2-INOVEN_clean_linker_0--edge1-none
_symmetry_space_group_name_H-M    P1
_symmetry_Int_Tables_number       1
_symmetry_cell_setting            triclinic
loop_
_symmetry_equiv_pos_as_xyz
'x, y, z'
_cell_length_a     15.827522
_cell_length_b     16.689838
_cell_length_c     14.20137
_cell_angle_alpha  66.86747
_cell_angle_beta   96.385313
_cell_angle_gamma 92.74774
loop_
_atom_site_label
_atom_site_type_symbol
_atom_site_fract_x
_atom_site_fract_y
_atom_site_fract_z
_atom_type_partial_charge
H0 H 0.23507 0.83721 0.81267 0.0
H1 H 0.04764 0.94166 0.92495 0.0
H2 H 0.2319 0.75875 0.13717 0.0
N3 N 0.3051 0.73024 0.98346 0.0
N4 N 0.34469 0.68532 0.06704 0.0
C5 C 0.2054 0.83962 0.87515 0.0
C6 C 0.13684 0.8948 0.85596 0.0
C7 C 0.23904 0.78869 0.97448 0.0
C8 C 0.2064 0.7975 0.05909 0.0
C9 C 0.13785 0.85509 0.04107 0.0
C10 C 0.10298 0.90166 0.93919 0.0
H11 H 0.69724 0.76971 0.8504 0.0
H12 H 0.59273 0.54685 0.80055 0.0
H13 H 0.77137 0.71274 0.60228 0.0
N14 N 0.79999 0.82194 0.70085 0.0
N15 N 0.84833 0.83842 0.63147 0.0
C16 C 0.69365 0.72827 0.80844 0.0
C17 C 0.64045 0.65411 0.83733 0.0
C18 C 0.74208 0.74972 0.72439 0.0
C19 C 0.73388 0.69756 0.66648 0.0
C20 C 0.67835 0.62541 0.6915 0.0
C21 C 0.63342 0.60363 0.77823 0.0
H22 H 0.81859 0.25748 0.00175 0.0
H23 H 0.97787 0.06875 0.24258 0.0
H24 H 0.81456 0.22867 0.31593 0.0
N25 N 0.74151 0.31517 0.11912 0.0
N26 N 0.71571 0.3468 0.17709 0.0
C27 C 0.83972 0.2247 0.08285 0.0
C28 C 0.90364 0.16112 0.11485 0.0
C29 C 0.80593 0.24937 0.15491 0.0
C30 C 0.83797 0.20906 0.26023 0.0
C31 C 0.89944 0.14227 0.29292 0.0
C32 C 0.92985 0.11855 0.21927 0.0
H33 H 0.35555 0.29481 0.31912 0.0
H34 H 0.477 0.4963 0.39995 0.0
H35 H 0.28151 0.3388 0.57674 0.0
N36 N 0.24882 0.24188 0.45874 0.0
N37 N 0.20481 0.21371 0.53266 0.0
C38 C 0.36288 0.33047 0.36825 0.0
C39 C 0.4235 0.3973 0.35144 0.0
C40 C 0.31113 0.30867 0.44853 0.0
C41 C 0.32162 0.35424 0.51482 0.0
C42 C 0.38226 0.42224 0.49809 0.0
C43 C 0.43245 0.44256 0.41615 0.0
C44 C 0.91972 0.29418 0.52054 0.0
C45 C 0.77282 0.30032 0.44678 0.0
C46 C 0.84525 0.25177 0.50119 0.0
C47 C 0.77744 0.39123 0.40768 0.0
C48 C 0.92272 0.38584 0.48393 0.0
C49 C 0.85174 0.43417 0.42536 0.0
N50 N 0.98668 0.24573 0.58128 0.0
C51 C 0.05537 0.28436 0.61394 0.0
C52 C 0.99574 0.42616 0.5106 0.0
C53 C 0.06191 0.3751 0.577 0.0
Gd54 Gd 0.09505 0.96636 0.50755 0.0
Gd55 Gd 0.96548 0.0953 0.6369 0.0
N56 N 0.84319 0.16307 0.53746 0.0
C57 C 0.69772 0.25601 0.4337 0.0
C58 C 0.77039 0.11899 0.52693 0.0
C59 C 0.69651 0.16492 0.47416 0.0
H60 H 0.76925 0.04863 0.55987 0.0
H61 H 0.63868 0.13021 0.4651 0.0
H62 H 0.272 0.09393 0.4523 0.0
H63 H 0.10472 0.24559 0.66987 0.0
H64 H 0.42348 0.08469 0.51451 0.0
H65 H 0.64036 0.29137 0.39294 0.0
H66 H 0.72313 0.4287 0.36496 0.0
H67 H 1.01725 0.76212 0.60778 0.0
H68 H 1.00027 0.4965 0.48352 0.0
H69 H 0.11718 0.40554 0.6014 0.0
H70 H 0.46047 0.7881 0.75269 0.0
H71 H 0.8529 0.50469 0.39588 0.0
H72 H 0.22199 0.59516 0.78945 0.0
H73 H 0.07056 0.61556 0.72093 0.0
N74 N 0.13725 0.82429 0.61386 0.0
C75 C 0.22145 0.81428 0.64749 0.0
C76 C 0.08331 0.75415 0.63801 0.0
C77 C 0.19901 0.65967 0.73969 0.0
C78 C 0.1134 0.67094 0.70147 0.0
C79 C 0.25407 0.73162 0.713 0.0
H80 H 0.36436 0.66132 0.80594 0.0
N81 N 0.24155 0.96734 0.55844 0.0
C82 C 0.27452 0.88767 0.62057 0.0
C83 C 0.41533 0.95095 0.62033 0.0
C84 C 0.36202 0.87815 0.65569 0.0
C85 C 0.29499 0.03561 0.51504 0.0
C86 C 0.38197 0.02946 0.54752 0.0
O87 O 0.94507 0.14012 0.46254 0.0
O88 O 0.9657 1.01819 0.43001 0.0
O89 O 0.12018 1.01267 0.34562 0.0
O90 O 0.12571 0.87666 0.44047 0.0
O91 O 0.90625 0.96454 0.65172 0.0
O92 O 0.962 0.91188 0.54048 0.0
O93 O 0.0947 0.90865 0.68197 0.0
O94 O 0.08695 0.02846 0.72155 0.0
O95 O 0.92173 0.0246 0.78843 0.0
O96 O 0.91799 0.16435 0.72048 0.0
O97 O 0.1299 0.10899 0.47777 0.0
O98 O 0.1059 0.11794 0.62967 0.0
C99 C 0.93701 0.09776 0.40132 0.0
C100 C 0.90857 0.90784 0.60802 0.0
C101 C 0.08844 0.91081 0.26659 0.0
C102 C 0.09468 0.86253 0.12545 0.0
C103 C 0.96059 0.86017 0.19597 0.0
C104 C 1.00091 0.89301 0.26552 0.0
C105 C 1.00724 0.84476 0.12725 0.0
C106 C 0.13564 0.89538 0.19639 0.0
C107 C 0.1316 0.93482 0.34905 0.0
C108 C 0.39389 0.79621 0.72318 0.0
C109 C 0.33974 0.72364 0.75242 0.0
H110 H 0.48284 0.94619 0.64514 0.0
C111 C 0.10104 0.94529 0.74922 0.0
C112 C 0.14347 0.14614 0.54496 0.0
C113 C 0.95399 0.10382 0.8943 0.0
C114 C 0.95025 0.14269 0.04122 0.0
C115 C 0.08588 0.1256 -0.01413 0.0
C116 C 0.0432 0.10775 0.90532 0.0
C117 C 0.03977 0.14307 0.05337 0.0
C118 C 0.90741 0.12233 0.9616 0.0
C119 C 0.91013 0.09563 0.80267 0.0
H120 H 0.8931 0.84608 0.1956 0.0
H121 H 0.9642 0.90267 0.3202 0.0
H122 H 0.97518 0.81956 0.07406 0.0
H123 H 0.20323 0.90932 0.19656 0.0
H124 H 0.15467 0.12762 -0.00516 0.0
H125 H 0.07987 0.09871 0.85047 0.0
H126 H 0.07406 0.15802 0.11455 0.0
H127 H 0.83849 0.12202 0.95125 0.0
C128 C 0.74863 0.71512 0.05949 0.0
C129 C 0.68651 0.85962 0.97717 0.0
C130 C 0.67883 0.76986 0.03803 0.0
C131 C 0.76281 0.89237 0.93388 0.0
C132 C 0.82461 0.74748 0.0144 0.0
C133 C 0.83087 0.83618 0.95062 0.0
N134 N 0.73987 0.62875 0.11808 0.0
C135 C 0.80552 0.57221 0.13943 0.0
C136 C 0.89122 0.68917 0.03247 0.0
C137 C 0.88206 0.6015 0.09644 0.0
Gd138 Gd 0.46168 0.47008 0.01192 0.0
Gd139 Gd 0.60687 0.58537 0.17814 0.0
N140 N 0.60364 0.73552 0.0754 0.0
C141 C 0.61694 0.91378 0.96062 0.0
C142 C 0.53811 0.78935 0.06595 0.0
C143 C 0.54296 0.87867 0.00665 0.0
H144 H 0.48315 0.76505 0.10707 0.0
H145 H 0.4901 0.92066 -0.00198 0.0
H146 H 0.57535 0.28271 0.08938 0.0
H147 H 0.79816 0.50433 0.18813 0.0
H148 H 0.55737 0.12736 0.19244 0.0
H149 H 0.62039 0.98301 0.9145 0.0
H150 H 0.76919 0.96082 0.88574 0.0
H151 H 0.26993 0.55995 0.98125 0.0
H152 H 0.95015 0.71124 -0.0022 0.0
H153 H 0.93364 0.55635 0.11186 0.0
H154 H 0.26813 0.10103 0.27 0.0
H155 H 0.88821 0.86187 0.91386 0.0
H156 H 0.09785 0.35865 0.13951 0.0
H157 H 0.12666 0.51377 0.03543 0.0
N158 N 0.32236 0.43279 0.05593 0.0
C159 C 0.30713 0.34665 0.10956 0.0
C160 C 0.2585 0.49236 0.02777 0.0
C161 C 0.16091 0.37858 0.11584 0.0
C162 C 0.177 0.46625 0.05752 0.0
C163 C 0.22618 0.31752 0.1424 0.0
H164 H 0.15234 0.20589 0.23069 0.0
N165 N 0.45288 0.31861 0.10819 0.0
C166 C 0.37418 0.28809 0.1364 0.0
C167 C 0.4276 0.14064 0.21576 0.0
C168 C 0.36013 0.19849 0.19303 0.0
C169 C 0.51673 0.26127 0.12327 0.0
C170 C 0.50581 0.17205 0.1792 0.0
O171 O 0.64217 0.59989 0.02109 0.0
O172 O 0.5152 0.60381 0.92621 0.0
O173 O 0.49224 0.42261 0.8968 0.0
O174 O 0.36933 0.4781 0.88382 0.0
O175 O 0.4662 0.60875 0.15552 0.0
O176 O 0.42144 0.60523 -0.00344 0.0
O177 O 0.42552 0.44328 0.17075 0.0
O178 O 0.54966 0.45363 0.26718 0.0
O179 O 0.58052 0.63688 0.29075 0.0
O180 O 0.7033 0.58224 0.30062 0.0
O181 O 0.60334 0.43138 0.05588 0.0
O182 O 0.63887 0.4465 0.21063 0.0
C183 C 0.59594 0.62471 0.93205 0.0
C184 C 0.41212 0.62973 0.07309 0.0
C185 C 0.41798 0.48529 0.73026 0.0
C186 C 0.39371 0.47496 0.56246 0.0
C187 C 0.42827 0.61469 0.5747 0.0
C188 C 0.43451 0.57459 0.68158 0.0
C189 C 0.40731 0.56565 0.51541 0.0
C190 C 0.39779 0.43541 0.67058 0.0
C191 C 0.41876 0.44389 0.84278 0.0
C192 C 0.27956 0.16943 0.22565 0.0
C193 C 0.21328 0.22895 0.20201 0.0
H194 H 0.41936 0.07145 0.25916 0.0
C195 C 0.47007 0.42819 0.25936 0.0
C196 C 0.65103 0.41155 0.14501 0.0
C197 C 0.65206 0.56756 0.45637 0.0
C198 C 0.66615 0.57361 0.62633 0.0
C199 C 0.63605 0.43579 0.60799 0.0
C200 C 0.63562 0.47783 0.50153 0.0
C201 C 0.65193 0.48298 0.67032 0.0
C202 C 0.66606 0.61518 0.51873 0.0
C203 C 0.65367 0.61346 0.34456 0.0
H204 H 0.44038 0.68391 0.53769 0.0
H205 H 0.45281 0.61318 0.7262 0.0
H206 H 0.40293 0.59876 0.43242 0.0
H207 H 0.38732 0.36585 0.70838 0.0
H208 H 0.62375 0.36643 0.64229 0.0
H209 H 0.62103 0.4403 0.45482 0.0
H210 H 0.65307 0.44826 0.75282 0.0
H211 H 0.67522 0.68507 0.48269 0.0
loop_
_geom_bond_atom_site_label_1
_geom_bond_atom_site_label_2
_geom_bond_distance
_geom_bond_site_symmetry_2
_ccdc_geom_bond_type
H0 C5 0.929 . S
H1 C10 0.931 . S
H2 C8 0.930 . S
N3 N4 1.234 . S
N3 C7 1.453 . S
N4 N3 1.234 . S
C5 H0 0.929 . S
C5 C6 1.373 . S
C5 C7 1.368 1_556 S
C6 C5 1.373 . S
C6 C10 1.397 . S
C7 N3 1.453 . S
C7 C5 1.368 1_554 S
C7 C8 1.373 . S
C8 H2 0.930 . S
C8 C7 1.373 . S
C8 C9 1.371 . S
C9 C8 1.371 . S
C9 C10 1.383 1_554 S
C10 H1 0.931 . S
C10 C6 1.397 . S
C10 C9 1.383 1_556 S
H11 C16 0.929 . S
H12 C21 0.931 . S
H13 C19 0.930 . S
N14 N15 1.234 . S
N14 C18 1.453 . S
N15 N14 1.234 . S
C16 H11 0.929 . S
C16 C17 1.373 . S
C16 C18 1.368 . S
C17 C16 1.373 . S
C17 C21 1.397 . S
C18 N14 1.453 . S
C18 C16 1.368 . S
C18 C19 1.373 . S
C19 H13 0.930 . S
C19 C18 1.373 . S
C19 C20 1.371 . S
C20 C19 1.371 . S
C20 C21 1.383 . S
C21 H12 0.931 . S
C21 C17 1.397 . S
C21 C20 1.383 . S
H22 C27 0.929 1_556 S
H23 C32 0.931 . S
H24 C30 0.930 . S
N25 N26 1.234 . S
N25 C29 1.453 . S
N26 N25 1.234 . S
C27 H22 0.929 1_554 S
C27 C28 1.373 . S
C27 C29 1.368 . S
C28 C27 1.373 . S
C28 C32 1.397 . S
C29 N25 1.453 . S
C29 C27 1.368 . S
C29 C30 1.373 . S
C30 H24 0.930 . S
C30 C29 1.373 . S
C30 C31 1.371 . S
C31 C30 1.371 . S
C31 C32 1.383 . S
C32 H23 0.931 . S
C32 C28 1.397 . S
C32 C31 1.383 . S
H33 C38 0.929 . S
H34 C43 0.931 . S
H35 C41 0.930 . S
N36 N37 1.234 . S
N36 C40 1.453 . S
N37 N36 1.234 . S
C38 H33 0.929 . S
C38 C39 1.373 . S
C38 C40 1.368 . S
C39 C38 1.373 . S
C39 C43 1.397 . S
C40 N36 1.453 . S
C40 C38 1.368 . S
C40 C41 1.373 . S
C41 H35 0.930 . S
C41 C40 1.373 . S
C41 C42 1.371 . S
C42 C41 1.371 . S
C42 C43 1.383 . S
C43 H34 0.931 . S
C43 C39 1.397 . S
C43 C42 1.383 . S
C44 C46 1.422 . S
C44 C48 1.415 . S
C44 N50 1.369 . S
C45 C46 1.421 . S
C45 C47 1.417 . S
C45 C57 1.422 . S
C46 C44 1.422 . S
C46 C45 1.421 . S
C46 N56 1.359 . S
C47 C45 1.417 . S
C47 C49 1.329 . S
C47 H66 0.930 . S
C48 C44 1.415 . S
C48 C49 1.437 . S
C48 C52 1.413 . S
C49 C47 1.329 . S
C49 C48 1.437 . S
C49 H71 0.929 . S
N50 C44 1.369 . S
N50 C51 1.338 1_655 S
N50 Gd55 2.622 . S
C51 N50 1.338 1_455 S
C51 C53 1.378 . S
C51 H63 0.929 . S
C52 C48 1.413 . S
C52 C53 1.348 1_655 S
C52 H68 0.931 . S
C53 C51 1.378 . S
C53 C52 1.348 1_455 S
C53 H69 0.930 . S
Gd54 N74 2.622 . S
Gd54 N81 2.570 . S
Gd54 O88 2.353 1_465 S
Gd54 O89 2.468 . S
Gd54 O90 2.427 . S
Gd54 O92 2.388 1_455 S
Gd54 O93 2.386 . S
Gd54 O97 2.307 1_565 S
Gd54 C107 2.805 . S
Gd55 N50 2.622 . S
Gd55 N56 2.570 . S
Gd55 O87 2.386 . S
Gd55 O91 2.307 1_545 S
Gd55 O94 2.353 1_655 S
Gd55 O95 2.468 . S
Gd55 O96 2.427 . S
Gd55 O98 2.388 1_655 S
Gd55 C119 2.805 . S
N56 C46 1.359 . S
N56 Gd55 2.570 . S
N56 C58 1.343 . S
C57 C45 1.422 . S
C57 C59 1.321 . S
C57 H65 0.931 . S
C58 N56 1.343 . S
C58 C59 1.390 . S
C58 H60 0.931 . S
C59 C57 1.321 . S
C59 C58 1.390 . S
C59 H61 0.930 . S
H60 C58 0.931 . S
H61 C59 0.930 . S
H62 C85 0.931 . S
H63 C51 0.929 . S
H64 C86 0.930 . S
H65 C57 0.931 . S
H66 C47 0.930 . S
H67 C76 0.929 1_655 S
H68 C52 0.931 . S
H69 C53 0.930 . S
H70 C108 0.930 . S
H71 C49 0.929 . S
H72 C77 0.931 . S
H73 C78 0.930 1_655 S
N74 Gd54 2.622 . S
N74 C75 1.369 . S
N74 C76 1.338 . S
C75 N74 1.369 . S
C75 C79 1.415 . S
C75 C82 1.422 . S
C76 H67 0.929 1_455 S
C76 N74 1.338 . S
C76 C78 1.378 . S
C77 H72 0.931 . S
C77 C78 1.348 . S
C77 C79 1.413 . S
C78 H73 0.930 1_455 S
C78 C76 1.378 . S
C78 C77 1.348 . S
C79 C75 1.415 . S
C79 C77 1.413 . S
C79 C109 1.437 . S
H80 C109 0.929 . S
N81 Gd54 2.570 . S
N81 C82 1.359 . S
N81 C85 1.343 . S
C82 C75 1.422 . S
C82 N81 1.359 . S
C82 C84 1.421 . S
C83 C84 1.422 . S
C83 C86 1.321 . S
C83 H110 0.931 . S
C84 C82 1.421 . S
C84 C83 1.422 . S
C84 C108 1.417 . S
C85 H62 0.931 . S
C85 N81 1.343 . S
C85 C86 1.390 . S
C86 H64 0.930 . S
C86 C83 1.321 . S
C86 C85 1.390 . S
O87 Gd55 2.386 . S
O87 C99 1.265 . S
O88 Gd54 2.353 1_645 S
O88 C99 1.242 . S
O89 Gd54 2.468 . S
O89 C107 1.263 . S
O90 Gd54 2.427 . S
O90 C107 1.252 . S
O91 Gd55 2.307 1_565 S
O91 C100 1.261 . S
O92 Gd54 2.388 1_655 S
O92 C100 1.252 . S
O93 Gd54 2.386 . S
O93 C111 1.265 . S
O94 Gd55 2.353 1_455 S
O94 C111 1.242 1_545 S
O95 Gd55 2.468 . S
O95 C119 1.263 . S
O96 Gd55 2.427 . S
O96 C119 1.252 . S
O97 Gd54 2.307 1_545 S
O97 C112 1.261 . S
O98 Gd55 2.388 1_455 S
O98 C112 1.252 . S
C99 O87 1.265 . S
C99 O88 1.242 . S
C100 O91 1.261 . S
C100 O92 1.252 . S
C101 C104 1.394 . S
C101 C106 1.370 . S
C101 C107 1.500 . S
C102 C105 1.383 . S
C102 C106 1.395 . S
C103 C104 1.396 . S
C103 C105 1.365 . S
C103 H120 0.929 . S
C104 C101 1.394 . S
C104 C103 1.396 . S
C104 H121 0.930 . S
C105 C102 1.383 . S
C105 C103 1.365 . S
C105 H122 0.931 . S
C106 C101 1.370 . S
C106 C102 1.395 . S
C106 H123 0.930 . S
C107 Gd54 2.805 . S
C107 O89 1.263 . S
C107 O90 1.252 . S
C107 C101 1.500 . S
C108 H70 0.930 . S
C108 C84 1.417 . S
C108 C109 1.329 . S
C109 C79 1.437 . S
C109 H80 0.929 . S
C109 C108 1.329 . S
H110 C83 0.931 . S
C111 O93 1.265 . S
C111 O94 1.242 1_565 S
C112 O97 1.261 . S
C112 O98 1.252 . S
C113 C116 1.394 . S
C113 C118 1.370 . S
C113 C119 1.500 . S
C114 C117 1.383 . S
C114 C118 1.395 1_554 S
C115 C116 1.396 1_554 S
C115 C117 1.365 . S
C115 H124 0.929 . S
C116 C113 1.394 . S
C116 C115 1.396 1_556 S
C116 H125 0.930 . S
C117 C114 1.383 . S
C117 C115 1.365 . S
C117 H126 0.931 . S
C118 C113 1.370 . S
C118 C114 1.395 1_556 S
C118 H127 0.930 . S
C119 Gd55 2.805 . S
C119 O95 1.263 . S
C119 O96 1.252 . S
C119 C113 1.500 . S
H120 C103 0.929 . S
H121 C104 0.930 . S
H122 C105 0.931 . S
H123 C106 0.930 . S
H124 C115 0.929 . S
H125 C116 0.930 . S
H126 C117 0.931 . S
H127 C118 0.930 . S
C128 C130 1.422 . S
C128 C132 1.415 . S
C128 N134 1.369 . S
C129 C130 1.421 . S
C129 C131 1.417 . S
C129 C141 1.422 . S
C130 C128 1.422 . S
C130 C129 1.421 . S
C130 N140 1.359 . S
C131 C129 1.417 . S
C131 C133 1.329 . S
C131 H150 0.930 . S
C132 C128 1.415 . S
C132 C133 1.437 . S
C132 C136 1.413 . S
C133 C131 1.329 . S
C133 C132 1.437 . S
C133 H155 0.929 . S
N134 C128 1.369 . S
N134 C135 1.338 . S
N134 Gd139 2.622 . S
C135 N134 1.338 . S
C135 C137 1.378 . S
C135 H147 0.929 . S
C136 C132 1.413 . S
C136 C137 1.348 . S
C136 H152 0.931 . S
C137 C135 1.378 . S
C137 C136 1.348 . S
C137 H153 0.930 . S
Gd138 N158 2.622 1_554 S
Gd138 N165 2.570 . S
Gd138 O172 2.353 1_554 S
Gd138 O173 2.468 1_554 S
Gd138 O174 2.427 1_554 S
Gd138 O176 2.388 1_554 S
Gd138 O177 2.386 . S
Gd138 O181 2.307 . S
Gd138 C191 2.805 1_554 S
Gd139 N134 2.622 . S
Gd139 N140 2.570 . S
Gd139 O171 2.386 . S
Gd139 O175 2.307 . S
Gd139 O178 2.353 . S
Gd139 O179 2.468 . S
Gd139 O180 2.427 . S
Gd139 O182 2.388 . S
Gd139 C203 2.805 . S
N140 C130 1.359 . S
N140 Gd139 2.570 . S
N140 C142 1.343 . S
C141 C129 1.422 . S
C141 C143 1.321 . S
C141 H149 0.931 . S
C142 N140 1.343 . S
C142 C143 1.390 . S
C142 H144 0.931 . S
C143 C141 1.321 . S
C143 C142 1.390 . S
C143 H145 0.930 . S
H144 C142 0.931 . S
H145 C143 0.930 . S
H146 C169 0.931 . S
H147 C135 0.929 . S
H148 C170 0.930 . S
H149 C141 0.931 . S
H150 C131 0.930 . S
H151 C160 0.929 . S
H152 C136 0.931 . S
H153 C137 0.930 . S
H154 C192 0.930 . S
H155 C133 0.929 . S
H156 C161 0.931 . S
H157 C162 0.930 . S
N158 Gd138 2.622 1_556 S
N158 C159 1.369 1_556 S
N158 C160 1.338 . S
C159 N158 1.369 1_554 S
C159 C163 1.415 . S
C159 C166 1.422 . S
C160 H151 0.929 . S
C160 N158 1.338 . S
C160 C162 1.378 . S
C161 H156 0.931 . S
C161 C162 1.348 1_554 S
C161 C163 1.413 . S
C162 H157 0.930 . S
C162 C160 1.378 . S
C162 C161 1.348 1_556 S
C163 C159 1.415 . S
C163 C161 1.413 . S
C163 C193 1.437 . S
H164 C193 0.929 . S
N165 Gd138 2.570 . S
N165 C166 1.359 . S
N165 C169 1.343 . S
C166 C159 1.422 . S
C166 N165 1.359 . S
C166 C168 1.421 . S
C167 C168 1.422 . S
C167 C170 1.321 . S
C167 H194 0.931 . S
C168 C166 1.421 . S
C168 C167 1.422 . S
C168 C192 1.417 . S
C169 H146 0.931 . S
C169 N165 1.343 . S
C169 C170 1.390 . S
C170 H148 0.930 . S
C170 C167 1.321 . S
C170 C169 1.390 . S
O171 Gd139 2.386 . S
O171 C183 1.265 1_554 S
O172 Gd138 2.353 1_556 S
O172 C183 1.242 . S
O173 Gd138 2.468 1_556 S
O173 C191 1.263 . S
O174 Gd138 2.427 1_556 S
O174 C191 1.252 . S
O175 Gd139 2.307 . S
O175 C184 1.261 . S
O176 Gd138 2.388 1_556 S
O176 C184 1.252 1_556 S
O177 Gd138 2.386 . S
O177 C195 1.265 . S
O178 Gd139 2.353 . S
O178 C195 1.242 . S
O179 Gd139 2.468 . S
O179 C203 1.263 . S
O180 Gd139 2.427 . S
O180 C203 1.252 . S
O181 Gd138 2.307 . S
O181 C196 1.261 . S
O182 Gd139 2.388 . S
O182 C196 1.252 . S
C183 O171 1.265 1_556 S
C183 O172 1.242 . S
C184 O175 1.261 . S
C184 O176 1.252 1_554 S
C185 C188 1.394 . S
C185 C190 1.370 . S
C185 C191 1.500 . S
C186 C189 1.383 . S
C186 C190 1.395 . S
C187 C188 1.396 . S
C187 C189 1.365 . S
C187 H204 0.929 . S
C188 C185 1.394 . S
C188 C187 1.396 . S
C188 H205 0.930 . S
C189 C186 1.383 . S
C189 C187 1.365 . S
C189 H206 0.931 . S
C190 C185 1.370 . S
C190 C186 1.395 . S
C190 H207 0.930 . S
C191 Gd138 2.805 1_556 S
C191 O173 1.263 . S
C191 O174 1.252 . S
C191 C185 1.500 . S
C192 H154 0.930 . S
C192 C168 1.417 . S
C192 C193 1.329 . S
C193 C163 1.437 . S
C193 H164 0.929 . S
C193 C192 1.329 . S
H194 C167 0.931 . S
C195 O177 1.265 . S
C195 O178 1.242 . S
C196 O181 1.261 . S
C196 O182 1.252 . S
C197 C200 1.394 . S
C197 C202 1.370 . S
C197 C203 1.500 . S
C198 C201 1.383 . S
C198 C202 1.395 . S
C199 C200 1.396 . S
C199 C201 1.365 . S
C199 H208 0.929 . S
C200 C197 1.394 . S
C200 C199 1.396 . S
C200 H209 0.930 . S
C201 C198 1.383 . S
C201 C199 1.365 . S
C201 H210 0.931 . S
C202 C197 1.370 . S
C202 C198 1.395 . S
C202 H211 0.930 . S
C203 Gd139 2.805 . S
C203 O179 1.263 . S
C203 O180 1.252 . S
C203 C197 1.500 . S
H204 C187 0.929 . S
H205 C188 0.930 . S
H206 C189 0.931 . S
H207 C190 0.930 . S
H208 C199 0.929 . S
H209 C200 0.930 . S
H210 C201 0.931 . S
H211 C202 0.930 . S
C112 N37 1.689 . S
N4 C184 1.876 . S
N15 C100 1.707 . S
N26 C196 1.647 . S
C102 C9 1.345 . S
C183 C17 1.847 . S
C31 C99 1.814 . S
C42 C186 1.445 . S
C198 C20 1.413 . S
C114 C28 1.237 . S
C195 C39 1.682 . S
C6 C111 1.719 . S
