# Generated by pormake.
# Topology scu, (8,4)-cn, num edge types: 1
# Building blocks:
#     Node 0, Type 0, BuildingBlock: TAGTUT_clean_sbu_3, # of connection points: 8
#     Node 1, Type 1, BuildingBlock: IZENUY_clean_linker_0, # of connection points: 4
#     Node 2, Type 1, BuildingBlock: IZENUY_clean_linker_0, # of connection points: 4
#     Edge 3, Type (0, 1), BuildingBlock: OJICUG_clean_linker_0, # of connection points: 2
#     Edge 4, Type (0, 1), BuildingBlock: OJICUG_clean_linker_0, # of connection points: 2
#     Edge 5, Type (0, 1), BuildingBlock: OJICUG_clean_linker_0, # of connection points: 2
#     Edge 6, Type (0, 1), BuildingBlock: OJICUG_clean_linker_0, # of connection points: 2
#     Edge 7, Type (0, 1), BuildingBlock: OJICUG_clean_linker_0, # of connection points: 2
#     Edge 8, Type (0, 1), BuildingBlock: OJICUG_clean_linker_0, # of connection points: 2
#     Edge 9, Type (0, 1), BuildingBlock: OJICUG_clean_linker_0, # of connection points: 2
#     Edge 10, Type (0, 1), BuildingBlock: OJICUG_clean_linker_0, # of connection points: 2
# Relax obj value: 0.049
# Max RMSD: 0.190
# Mean RMSD: 0.140
data_MOF--net-scu--node1-TAGTUT_clean_sbu_3--node2-IZENUY_clean_linker_0--edge1-OJICUG_clean_linker_0
_symmetry_space_group_name_H-M    P1
_symmetry_Int_Tables_number       1
_symmetry_cell_setting            triclinic
loop_
_symmetry_equiv_pos_as_xyz
'x, y, z'
_cell_length_a     23.299587
_cell_length_b     19.823848
_cell_length_c     15.320477
_cell_angle_alpha  92.740402
_cell_angle_beta   89.655608
_cell_angle_gamma 90.260697
loop_
_atom_site_label
_atom_site_type_symbol
_atom_site_fract_x
_atom_site_fract_y
_atom_site_fract_z
_atom_type_partial_charge
C0 C 1.0225 0.88455 0.07572 0.0
C1 C 0.81837 0.99044 0.04423 0.0
C2 C 0.87863 0.04581 0.79171 0.0
Mg3 Mg 0.14477 0.9328 -0.00403 0.0
Mg4 Mg 0.16812 0.09449 -0.03397 0.0
O5 O 0.12218 0.01792 0.93985 0.0
Mg6 Mg 0.0385 0.02057 -0.03284 0.0
O7 O 0.95485 0.01669 -0.00585 0.0
Mg8 Mg 0.93248 0.93122 0.92759 0.0
Mg9 Mg 0.90873 0.09258 -0.02278 0.0
C10 C 0.06572 0.15807 0.86009 0.0
O11 O 0.04412 0.10687 0.07395 0.0
O12 O 0.23072 0.94327 0.91665 0.0
O13 O 0.96199 0.16443 0.05369 0.0
O14 O 0.18543 0.98942 0.11413 0.0
O15 O 0.24225 0.05484 0.89878 0.0
O16 O 0.1904 0.10089 0.10292 0.0
O17 O 1.02296 0.93568 0.86174 0.0
O18 O 0.10274 0.87653 0.88061 0.0
C19 C 0.05505 0.88486 0.84182 0.0
C20 C 0.25866 0.9935 0.88648 0.0
O21 O 0.03261 0.10681 0.87106 0.0
O22 O 0.8465 0.94052 0.00818 0.0
O23 O 0.11457 0.16557 0.8984 0.0
O24 O 0.8916 0.98724 0.81635 0.0
O25 O 0.83461 0.05199 0.0393 0.0
O26 O 0.88672 0.09868 0.84106 0.0
O27 O 0.0542 0.93599 0.06199 0.0
O28 O 0.97478 0.8754 0.03603 0.0
C29 C 0.19843 0.04816 0.14587 0.0
C30 C 1.01084 0.15764 0.09117 0.0
H31 H 0.03968 0.42344 0.35155 0.0
H32 H 0.03586 0.42396 0.63212 0.0
H33 H 0.03805 0.23545 0.48043 0.0
H34 H 1.02909 0.61865 0.58186 0.0
H35 H 0.0503 0.61832 0.30312 0.0
H36 H 0.03921 0.80673 0.45393 0.0
N37 N 0.03757 0.50361 0.49993 0.0
N38 N 0.0403 0.53858 0.43443 0.0
C39 C 0.03876 0.39617 0.41116 0.0
C40 C 0.03894 0.32519 0.40614 0.0
C41 C 0.03779 0.43188 0.49282 0.0
C42 C 0.03688 0.39615 0.56947 0.0
C43 C 0.03689 0.32518 0.56581 0.0
C44 C 0.03797 0.29019 0.48381 0.0
C45 C 0.03382 0.64599 0.52267 0.0
C46 C 0.03359 0.717 0.52764 0.0
C47 C 0.03988 0.61031 0.44153 0.0
C48 C 0.04555 0.64611 0.36538 0.0
C49 C 0.04535 0.71711 0.36912 0.0
C50 C 0.03938 0.75201 0.45054 0.0
H51 H 0.60082 0.9955 0.32971 0.0
H52 H 0.64721 0.04306 0.59747 0.0
H53 H 0.77846 1.0044 0.40295 0.0
H54 H 0.47613 0.99729 0.60095 0.0
H55 H 0.43012 0.04412 0.33877 0.0
H56 H 0.29857 1.00833 0.52965 0.0
N57 N 0.55862 0.02249 0.49363 0.0
N58 N 0.51857 0.02272 0.43993 0.0
C59 C 0.63322 1.00402 0.37952 0.0
C60 C 0.69141 0.99697 0.35686 0.0
C61 C 0.61713 0.02016 0.46688 0.0
C62 C 0.65979 0.0313 0.53025 0.0
C63 C 0.71825 0.02585 0.5078 0.0
C64 C 0.73348 1.00798 0.42115 0.0
C65 C 0.44382 1.00606 0.55227 0.0
C66 C 0.38557 0.99999 0.5744 0.0
C67 C 0.46004 0.02149 0.46664 0.0
C68 C 0.41746 0.03293 0.40474 0.0
C69 C 0.35894 0.02844 0.42688 0.0
C70 C 0.34357 0.01127 0.51161 0.0
C71 C 0.06617 0.18974 0.22714 0.0
C72 C 1.02538 0.20624 0.16439 0.0
H73 H 0.10257 0.21459 0.35284 0.0
C74 C 0.99343 0.26592 0.17814 0.0
H75 H 0.09149 0.14418 0.21879 0.0
C76 C 0.9997 0.30604 0.25499 0.0
C77 C 0.03783 0.28727 0.3201 0.0
H78 H 0.96183 0.28037 0.13103 0.0
H79 H 0.97257 0.34997 0.26522 0.0
C80 C 0.07212 0.22969 0.30438 0.0
C81 C 0.72945 0.02688 0.1237 0.0
C82 C 0.7721 0.97778 0.10757 0.0
H83 H 0.66904 0.0704 0.21608 0.0
C84 C 0.77864 0.92639 0.16664 0.0
H85 H 0.72363 0.06709 0.07912 0.0
C86 C 0.74819 0.92914 0.24564 0.0
C87 C 0.70994 0.98236 0.26554 0.0
H88 H 0.81153 0.88833 0.15628 0.0
H89 H 0.75769 0.89267 0.29395 0.0
C90 C 0.69823 0.02885 0.20194 0.0
C91 C 1.00855 0.77464 0.14504 0.0
C92 C 0.03729 0.83713 0.14352 0.0
H93 H 0.9884 0.68817 0.21741 0.0
C94 C 0.07446 0.85615 0.21224 0.0
H95 H 0.98 0.75819 0.0926 0.0
C96 C 0.07942 0.81555 0.28413 0.0
C97 C 0.04758 0.75515 0.28803 0.0
H98 H 0.09727 0.9039 0.21273 0.0
H99 H 0.10673 0.83246 0.33787 0.0
C100 C 1.01365 0.73414 0.21639 0.0
C101 C 0.22748 0.9994 0.28569 0.0
C102 C 0.23198 0.05193 0.22755 0.0
H103 H 0.26425 0.95059 0.3934 0.0
C104 C 0.27582 0.10031 0.24001 0.0
H105 H 0.19428 0.9612 0.27751 0.0
C106 C 0.31662 0.0936 0.30584 0.0
C107 C 0.31367 0.03904 0.36112 0.0
H108 H 0.28075 0.14089 0.19562 0.0
H109 H 0.35114 0.13023 0.31236 0.0
C110 C 0.26768 0.99321 0.35193 0.0
C111 C 1.0034 0.85545 0.70162 0.0
C112 C 0.04069 0.83718 0.76807 0.0
H113 H 0.97136 0.8311 0.573 0.0
C114 C 0.06991 0.77529 0.75886 0.0
H115 H 0.98022 0.90272 0.70701 0.0
C116 C 0.06516 0.73472 0.68249 0.0
C117 C 1.03108 0.75503 0.61339 0.0
H118 H 0.09856 0.75941 0.80933 0.0
H119 H 0.09077 0.68927 0.67582 0.0
C120 C 0.99878 0.81476 0.62471 0.0
C121 C 0.34732 0.03096 0.81092 0.0
C122 C 0.30486 0.98127 0.82149 0.0
H123 H 0.4076 0.07476 0.72345 0.0
C124 C 0.29844 0.92945 0.75652 0.0
H125 H 0.35302 0.07152 0.86009 0.0
C126 C 0.32886 0.93217 0.67781 0.0
C127 C 0.36698 0.98579 0.66402 0.0
H128 H 0.26569 0.89095 0.76254 0.0
H129 H 0.31946 0.89528 0.6253 0.0
C130 C 0.37852 0.03289 0.73288 0.0
C131 C 1.01024 0.18931 0.72805 0.0
C132 C 0.05096 0.20645 0.79288 0.0
H133 H 0.97372 0.21358 0.6054 0.0
C134 C 0.08262 0.26666 0.78657 0.0
H135 H 0.98513 0.14333 0.73072 0.0
C136 C 0.07616 0.30671 0.7147 0.0
C137 C 0.03812 0.28732 0.6472 0.0
H138 H 0.11416 0.28162 0.8355 0.0
H139 H 0.10307 0.35109 0.70995 0.0
C140 C 1.0041 0.22918 0.65576 0.0
C141 C 0.80203 0.09801 0.70323 0.0
C142 C 0.84514 0.04924 0.71041 0.0
H143 H 0.72734 0.12829 0.63389 0.0
C144 C 0.84899 0.99629 0.64631 0.0
H145 H 0.79761 0.13896 0.75216 0.0
C146 C 0.80883 0.99009 0.57917 0.0
C147 C 0.76355 0.03636 0.57496 0.0
H148 H 0.88163 0.95781 0.65026 0.0
H149 H 0.81173 0.94718 0.53286 0.0
C150 C 0.76129 0.09131 0.63643 0.0
loop_
_geom_bond_atom_site_label_1
_geom_bond_atom_site_label_2
_geom_bond_distance
_geom_bond_site_symmetry_2
_ccdc_geom_bond_type
C0 O27 1.298 1_655 S
C0 O28 1.228 . S
C1 O22 1.331 . S
C1 O25 1.244 1_565 S
C2 O24 1.264 1_545 S
C2 O26 1.273 . S
Mg3 O5 1.936 1_565 S
Mg3 O12 2.081 . S
Mg3 O14 2.023 1_556 S
Mg3 O18 2.031 . S
Mg3 O27 2.291 1_556 S
Mg4 O5 1.963 . S
Mg4 O15 1.942 . S
Mg4 O16 1.955 1_556 S
Mg4 O23 1.986 . S
O5 Mg3 1.936 1_545 S
O5 Mg4 1.963 . S
O5 Mg6 1.912 1_556 S
Mg6 O5 1.912 1_554 S
Mg6 O7 1.919 1_455 S
Mg6 O11 2.021 . S
Mg6 O17 2.107 1_444 S
Mg6 O21 2.004 1_454 S
Mg6 O27 2.121 1_545 S
O7 Mg6 1.919 1_655 S
O7 Mg8 1.936 1_545 S
O7 Mg9 1.963 . S
Mg8 O7 1.936 1_565 S
Mg8 O17 2.291 1_554 S
Mg8 O22 2.081 . S
Mg8 O24 2.023 1_554 S
Mg8 O28 2.031 . S
Mg9 O7 1.963 . S
Mg9 O13 1.986 . S
Mg9 O25 1.942 . S
Mg9 O26 1.955 1_554 S
C10 O21 1.191 1_455 S
C10 O23 1.307 . S
O11 Mg6 2.021 . S
O11 C30 1.191 1_455 S
O12 Mg3 2.081 . S
O12 C20 1.331 . S
O13 Mg9 1.986 . S
O13 C30 1.307 . S
O14 Mg3 2.023 1_554 S
O14 C29 1.264 1_565 S
O15 Mg4 1.942 . S
O15 C20 1.244 1_545 S
O16 Mg4 1.955 1_554 S
O16 C29 1.273 . S
O17 Mg6 2.107 1_666 S
O17 Mg8 2.291 1_556 S
O17 C19 1.312 1_655 S
O18 Mg3 2.031 . S
O18 C19 1.208 . S
C19 O17 1.312 1_455 S
C19 O18 1.208 . S
C20 O12 1.331 . S
C20 O15 1.244 1_565 S
O21 Mg6 2.004 1_656 S
O21 C10 1.191 1_655 S
O22 C1 1.331 . S
O22 Mg8 2.081 . S
O23 Mg4 1.986 . S
O23 C10 1.307 . S
O24 C2 1.264 1_565 S
O24 Mg8 2.023 1_556 S
O25 C1 1.244 1_545 S
O25 Mg9 1.942 . S
O26 C2 1.273 . S
O26 Mg9 1.955 1_556 S
O27 C0 1.298 1_455 S
O27 Mg3 2.291 1_554 S
O27 Mg6 2.121 1_565 S
O28 C0 1.228 . S
O28 Mg8 2.031 . S
C29 O14 1.264 1_545 S
C29 O16 1.273 . S
C30 O11 1.191 1_655 S
C30 O13 1.307 . S
H31 C39 0.940 . S
H32 C42 0.940 . S
H33 C44 0.940 1_655 S
H34 C45 0.940 . S
H35 C48 0.940 . S
H36 C50 0.940 1_655 S
N37 N38 1.190 . S
N37 C41 1.477 . S
N38 N37 1.190 . S
N38 C47 1.477 . S
C39 H31 0.940 . S
C39 C40 1.390 . S
C39 C41 1.322 . S
C40 C39 1.390 . S
C40 C44 1.370 . S
C41 N37 1.477 . S
C41 C39 1.322 . S
C41 C42 1.447 . S
C42 H32 0.940 . S
C42 C41 1.447 . S
C42 C43 1.373 . S
C43 C42 1.373 . S
C43 C44 1.417 . S
C44 H33 0.940 1_455 S
C44 C40 1.370 . S
C44 C43 1.417 . S
C45 H34 0.940 . S
C45 C46 1.390 . S
C45 C47 1.322 . S
C46 C45 1.390 . S
C46 C50 1.370 . S
C47 N38 1.477 . S
C47 C45 1.322 . S
C47 C48 1.447 . S
C48 H35 0.940 . S
C48 C47 1.447 . S
C48 C49 1.373 . S
C49 C48 1.373 . S
C49 C50 1.417 . S
C50 H36 0.940 1_455 S
C50 C46 1.370 . S
C50 C49 1.417 . S
H51 C59 0.940 . S
H52 C62 0.940 . S
H53 C64 0.939 1_565 S
H54 C65 0.940 . S
H55 C68 0.940 . S
H56 C70 0.938 1_565 S
N57 N58 1.190 . S
N57 C61 1.477 . S
N58 N57 1.190 . S
N58 C67 1.477 . S
C59 H51 0.940 . S
C59 C60 1.390 . S
C59 C61 1.322 . S
C60 C59 1.390 . S
C60 C64 1.370 . S
C61 N57 1.477 . S
C61 C59 1.322 . S
C61 C62 1.447 . S
C62 H52 0.940 . S
C62 C61 1.447 . S
C62 C63 1.373 . S
C63 C62 1.373 . S
C63 C64 1.419 . S
C64 H53 0.939 1_545 S
C64 C60 1.370 . S
C64 C63 1.419 . S
C65 H54 0.940 . S
C65 C66 1.390 . S
C65 C67 1.322 . S
C66 C65 1.390 . S
C66 C70 1.370 . S
C67 N58 1.477 . S
C67 C65 1.322 . S
C67 C68 1.447 . S
C68 H55 0.940 . S
C68 C67 1.447 . S
C68 C69 1.373 . S
C69 C68 1.373 . S
C69 C70 1.419 . S
C70 H56 0.938 1_545 S
C70 C66 1.370 . S
C70 C69 1.419 . S
C71 C72 1.387 . S
C71 H75 0.950 . S
C71 C80 1.390 . S
C72 C71 1.387 . S
C72 C74 1.387 1_455 S
H73 C80 0.950 . S
C74 C72 1.387 1_655 S
C74 C76 1.390 . S
C74 H78 0.950 . S
H75 C71 0.950 . S
C76 C74 1.390 . S
C76 C77 1.371 1_655 S
C76 H79 0.950 . S
C77 C76 1.371 1_455 S
C77 C80 1.405 . S
H78 C74 0.950 . S
H79 C76 0.950 . S
C80 C71 1.390 . S
C80 H73 0.950 . S
C80 C77 1.405 . S
C81 C82 1.387 1_545 S
C81 H85 0.950 . S
C81 C90 1.390 . S
C82 C81 1.387 1_565 S
C82 C84 1.387 . S
H83 C90 0.950 . S
C84 C82 1.387 . S
C84 C86 1.390 . S
C84 H88 0.950 . S
H85 C81 0.950 . S
C86 C84 1.390 . S
C86 C87 1.387 . S
C86 H89 0.950 . S
C87 C86 1.387 . S
C87 C90 1.387 1_565 S
H88 C84 0.950 . S
H89 C86 0.950 . S
C90 C81 1.390 . S
C90 H83 0.950 . S
C90 C87 1.387 1_545 S
C91 C92 1.387 1_655 S
C91 H95 0.950 . S
C91 C100 1.390 . S
C92 C91 1.387 1_455 S
C92 C94 1.387 . S
H93 C100 0.950 . S
C94 C92 1.387 . S
C94 C96 1.390 . S
C94 H98 0.950 . S
H95 C91 0.950 . S
C96 C94 1.390 . S
C96 C97 1.387 . S
C96 H99 0.950 . S
C97 C96 1.387 . S
C97 C100 1.387 1_455 S
H98 C94 0.950 . S
H99 C96 0.950 . S
C100 C91 1.390 . S
C100 H93 0.950 . S
C100 C97 1.387 1_655 S
C101 C102 1.387 1_565 S
C101 H105 0.950 . S
C101 C110 1.390 . S
C102 C101 1.387 1_545 S
C102 C104 1.387 . S
H103 C110 0.950 . S
C104 C102 1.387 . S
C104 C106 1.390 . S
C104 H108 0.950 . S
H105 C101 0.950 . S
C106 C104 1.390 . S
C106 C107 1.387 . S
C106 H109 0.950 . S
C107 C106 1.387 . S
C107 C110 1.387 1_545 S
H108 C104 0.950 . S
H109 C106 0.950 . S
C110 C101 1.390 . S
C110 H103 0.950 . S
C110 C107 1.387 1_565 S
C111 C112 1.387 1_655 S
C111 H115 0.950 . S
C111 C120 1.390 . S
C112 C111 1.387 1_455 S
C112 C114 1.387 . S
H113 C120 0.950 . S
C114 C112 1.387 . S
C114 C116 1.390 . S
C114 H118 0.950 . S
H115 C111 0.950 . S
C116 C114 1.390 . S
C116 C117 1.397 . S
C116 H119 0.950 . S
C117 C116 1.397 . S
C117 C120 1.379 1_455 S
H118 C114 0.950 . S
H119 C116 0.950 . S
C120 C111 1.390 . S
C120 H113 0.950 . S
C120 C117 1.379 1_655 S
C121 C122 1.387 1_545 S
C121 H125 0.950 . S
C121 C130 1.390 . S
C122 C121 1.387 1_565 S
C122 C124 1.387 . S
H123 C130 0.950 . S
C124 C122 1.387 . S
C124 C126 1.390 . S
C124 H128 0.950 . S
H125 C121 0.950 . S
C126 C124 1.390 . S
C126 C127 1.387 . S
C126 H129 0.950 . S
C127 C126 1.387 . S
C127 C130 1.387 1_565 S
H128 C124 0.950 . S
H129 C126 0.950 . S
C130 C121 1.390 . S
C130 H123 0.950 . S
C130 C127 1.387 1_545 S
C131 C132 1.387 1_655 S
C131 H135 0.950 . S
C131 C140 1.390 . S
C132 C131 1.387 1_455 S
C132 C134 1.387 . S
H133 C140 0.950 . S
C134 C132 1.387 . S
C134 C136 1.390 . S
C134 H138 0.950 . S
H135 C131 0.950 . S
C136 C134 1.390 . S
C136 C137 1.387 . S
C136 H139 0.950 . S
C137 C136 1.387 . S
C137 C140 1.387 1_455 S
H138 C134 0.950 . S
H139 C136 0.950 . S
C140 C131 1.390 . S
C140 H133 0.950 . S
C140 C137 1.387 1_655 S
C141 C142 1.387 . S
C141 H145 0.950 . S
C141 C150 1.390 . S
C142 C141 1.387 . S
C142 C144 1.387 1_545 S
H143 C150 0.950 . S
C144 C142 1.387 1_565 S
C144 C146 1.390 . S
C144 H148 0.950 . S
H145 C141 0.950 . S
C146 C144 1.390 . S
C146 C147 1.387 1_565 S
C146 H149 0.950 . S
C147 C146 1.387 1_545 S
C147 C150 1.387 . S
H148 C144 0.950 . S
H149 C146 0.950 . S
C150 C141 1.390 . S
C150 H143 0.950 . S
C150 C147 1.387 . S
C72 C30 1.516 1_455 S
C77 C40 1.505 . S
C82 C1 1.609 . S
C87 C60 1.577 1_565 S
C92 C0 1.489 1_455 S
C97 C49 1.533 . S
C102 C29 1.627 . S
C107 C69 1.634 . S
C112 C19 1.508 . S
C117 C46 1.519 . S
C122 C20 1.611 . S
C127 C66 1.582 1_565 S
C137 C43 1.518 . S
C132 C10 1.495 . S
C142 C2 1.622 . S
C147 C63 1.628 . S
