# Generated by pormake.
# Topology rtl, (3,6)-cn, num edge types: 1
# Building blocks:
#     Node 0, Type 0, BuildingBlock: CUQRIR_clean_linker_1, # of connection points: 3
#     Node 1, Type 0, BuildingBlock: CUQRIR_clean_linker_1, # of connection points: 3
#     Node 2, Type 0, BuildingBlock: CUQRIR_clean_linker_1, # of connection points: 3
#     Node 3, Type 0, BuildingBlock: CUQRIR_clean_linker_1, # of connection points: 3
#     Node 4, Type 1, BuildingBlock: LEVNOQ01_clean_sbu_1, # of connection points: 6
#     Node 5, Type 1, BuildingBlock: LEVNOQ01_clean_sbu_1, # of connection points: 6
#     Edge 6, Type (0, 1), BuildingBlock: OJICUG_clean_linker_0, # of connection points: 2
#     Edge 7, Type (0, 1), BuildingBlock: OJICUG_clean_linker_0, # of connection points: 2
#     Edge 8, Type (0, 1), BuildingBlock: OJICUG_clean_linker_0, # of connection points: 2
#     Edge 9, Type (0, 1), BuildingBlock: OJICUG_clean_linker_0, # of connection points: 2
#     Edge 10, Type (0, 1), BuildingBlock: OJICUG_clean_linker_0, # of connection points: 2
#     Edge 11, Type (0, 1), BuildingBlock: OJICUG_clean_linker_0, # of connection points: 2
#     Edge 12, Type (0, 1), BuildingBlock: OJICUG_clean_linker_0, # of connection points: 2
#     Edge 13, Type (0, 1), BuildingBlock: OJICUG_clean_linker_0, # of connection points: 2
#     Edge 14, Type (0, 1), BuildingBlock: OJICUG_clean_linker_0, # of connection points: 2
#     Edge 15, Type (0, 1), BuildingBlock: OJICUG_clean_linker_0, # of connection points: 2
#     Edge 16, Type (0, 1), BuildingBlock: OJICUG_clean_linker_0, # of connection points: 2
#     Edge 17, Type (0, 1), BuildingBlock: OJICUG_clean_linker_0, # of connection points: 2
# Relax obj value: 0.023
# Max RMSD: 0.120
# Mean RMSD: 0.100
data_MOF--net-rtl--node1-LEVNOQ01_clean_sbu_1--node2-CUQRIR_clean_linker_1--edge1-OJICUG_clean_linker_0
_symmetry_space_group_name_H-M    P1
_symmetry_Int_Tables_number       1
_symmetry_cell_setting            triclinic
loop_
_symmetry_equiv_pos_as_xyz
'x, y, z'
_cell_length_a     24.360858
_cell_length_b     24.13437
_cell_length_c     13.152538
_cell_angle_alpha  90.392879
_cell_angle_beta   99.486811
_cell_angle_gamma 89.990361
loop_
_atom_site_label
_atom_site_type_symbol
_atom_site_fract_x
_atom_site_fract_y
_atom_site_fract_z
_atom_type_partial_charge
C0 C 0.1846 0.72813 0.07579 0.0
N1 N 0.14753 0.76884 0.08544 0.0
N2 N 0.20846 0.7089 0.16931 0.0
C3 C 0.20446 0.71371 0.97646 0.0
C4 C 0.18507 0.73992 0.23658 0.0
N5 N 0.14836 0.77654 0.18591 0.0
C6 C 0.19981 0.73501 0.35166 0.0
H7 H 0.17217 0.72321 0.90899 0.0
H8 H 0.21557 0.66918 0.97474 0.0
H9 H 0.24229 0.73838 0.97098 0.0
H10 H 0.21453 0.69249 0.37311 0.0
H11 H 0.16347 0.74507 0.38935 0.0
H12 H 0.23403 0.76435 0.3802 0.0
C13 C 0.77718 0.67987 0.75898 0.0
N14 N 0.73843 0.64168 0.72055 0.0
N15 N 0.80143 0.70191 0.68318 0.0
C16 C 0.78452 0.70252 0.86713 0.0
C17 C 0.77548 0.67606 0.59675 0.0
N18 N 0.73651 0.64014 0.61893 0.0
C19 C 0.78601 0.68925 0.49007 0.0
H20 H 0.82539 0.72358 0.88772 0.0
H21 H 0.78119 0.66876 0.92263 0.0
H22 H 0.75102 0.73301 0.87273 0.0
H23 H 0.83012 0.70145 0.49225 0.0
H24 H 0.7595 0.72474 0.45955 0.0
H25 H 0.77613 0.65318 0.43749 0.0
C26 C 0.80926 0.27751 0.10392 0.0
N27 N 0.84625 0.23676 0.09409 0.0
N28 N 0.78532 0.29678 1.01047 0.0
C29 C 0.78949 0.29189 0.20336 0.0
C30 C 0.8086 0.26576 0.94307 0.0
N31 N 0.84532 0.22909 0.99358 0.0
C32 C 0.79377 0.27072 0.828 0.0
H33 H 0.7517 0.26718 0.20897 0.0
H34 H 0.77835 0.33641 0.20514 0.0
H35 H 0.82185 0.2824 0.27072 0.0
H36 H 0.83005 0.26064 0.79017 0.0
H37 H 0.77908 0.31328 0.80668 0.0
H38 H 0.75949 0.24144 0.79953 0.0
C39 C 0.21678 0.32579 0.42194 0.0
N40 N 0.25555 0.36395 0.46044 0.0
N41 N 0.19253 0.30372 0.49769 0.0
C42 C 0.20943 0.30319 0.31374 0.0
C43 C 0.21849 0.32951 0.58418 0.0
N44 N 0.25746 0.36544 0.56206 0.0
C45 C 0.20793 0.31628 0.69083 0.0
H46 H 0.16858 0.28211 0.29314 0.0
H47 H 0.24295 0.27273 0.30806 0.0
H48 H 0.21273 0.33699 0.2583 0.0
H49 H 0.23447 0.2808 0.72134 0.0
H50 H 0.16384 0.30405 0.6886 0.0
H51 H 0.21778 0.35234 0.74344 0.0
O52 O 0.02801 0.07802 0.82346 0.0
Mg53 Mg 0.08073 0.044 0.72758 0.0
O54 O 0.95568 0.05657 0.70613 0.0
Mg55 Mg -0.00324 0.00277 0.58972 0.0
O56 O 0.0669 0.07056 0.57824 0.0
O57 O 0.13656 0.10032 0.70095 0.0
O58 O 0.03779 0.94896 0.47321 0.0
O59 O 0.95292 0.06397 0.45521 0.0
Mg60 Mg 0.91261 0.96132 0.45166 0.0
O61 O 0.92662 0.93503 0.60114 0.0
O62 O 0.96544 0.92721 0.3561 0.0
O63 O 0.86875 0.03249 0.40608 0.0
O64 O 0.85679 0.90512 0.47894 0.0
C65 C 0.08941 0.93542 0.77628 0.0
C66 C 0.97614 0.07995 0.79144 0.0
C67 C 0.11003 0.10223 0.60789 0.0
C68 C 0.01733 0.92545 0.38803 0.0
C69 C 0.90414 0.07001 0.40294 0.0
C70 C 0.88346 0.90334 0.57192 0.0
O71 O 0.12479 0.97291 0.77296 0.0
O72 O 0.04057 0.94151 0.72424 0.0
O73 O 0.58492 0.46388 0.32955 0.0
Mg74 Mg 0.54169 0.41302 0.21296 0.0
O75 O 0.55671 0.53815 0.23873 0.0
Mg76 Mg 0.49697 0.50283 0.09049 0.0
O77 O 0.55859 0.42897 0.06875 0.0
O78 O 0.58947 0.35459 0.16407 0.0
O79 O 0.43722 0.46752 0.94225 0.0
O80 O 0.55774 0.54554 0.98898 0.0
Mg81 Mg 0.45225 0.59262 0.96801 0.0
O82 O 0.43531 0.57668 0.11219 0.0
O83 O 0.40892 0.54179 0.85149 0.0
O84 O 0.52558 0.62792 0.94289 0.0
O85 O 0.40469 0.6512 1.01707 0.0
C86 C 0.43067 0.41352 0.23478 0.0
C87 C 0.585 0.51597 0.31907 0.0
C88 C 0.58833 0.38381 0.08208 0.0
C89 C 0.40888 0.48969 0.86196 0.0
C90 C 0.56327 0.5921 0.94613 0.0
C91 C 0.40572 0.62193 0.09897 0.0
O92 O 0.46834 0.37768 0.23794 0.0
O93 O 0.43623 0.46011 0.19202 0.0
C94 C 0.11087 0.2433 0.49604 0.0
C95 C 0.16805 0.24963 0.496 0.0
H96 H 0.04633 0.18858 0.52768 0.0
C97 C 0.20297 0.20323 0.50986 0.0
H98 H 0.08367 0.27902 0.48611 0.0
C99 C 0.18207 0.15208 0.53387 0.0
C100 C 0.12576 0.14653 0.54271 0.0
H101 H 0.24726 0.20787 0.51056 0.0
H102 H 0.21078 0.11811 0.55433 0.0
C103 C 0.08962 0.19166 0.51852 0.0
C104 C 0.30992 0.71325 0.21124 0.0
C105 C 0.26129 0.68131 0.18987 0.0
H106 H 0.39667 0.71784 0.20173 0.0
C107 C 0.26519 0.6247 0.16775 0.0
H108 H 0.30734 0.75714 0.22747 0.0
C109 C 0.31651 0.60175 0.15556 0.0
C110 C 0.36389 0.63568 0.16341 0.0
H111 H 0.22782 0.59977 0.15029 0.0
H112 H 0.31751 0.55968 0.12666 0.0
C113 C 0.36093 0.69066 0.19739 0.0
C114 C 0.88298 0.76241 0.68438 0.0
C115 C 0.82584 0.75602 0.68474 0.0
H116 H 0.94736 0.81715 0.65218 0.0
C117 C 0.79085 0.80237 0.67093 0.0
H118 H 0.91023 0.72672 0.69425 0.0
C119 C 0.81164 0.85352 0.64661 0.0
C120 C 0.8679 0.85911 0.63742 0.0
H121 H 0.74659 0.79769 0.67046 0.0
H122 H 0.78287 0.88744 0.62616 0.0
C123 C 0.90412 0.81404 0.6616 0.0
C124 C 0.72866 0.381 1.01231 0.0
C125 C 0.7325 0.32438 0.99016 0.0
H126 H 0.67648 0.44603 0.05384 0.0
C127 C 0.68384 0.29246 0.96915 0.0
H128 H 0.76605 0.40592 1.02953 0.0
C129 C 0.6329 0.31506 0.9834 0.0
C130 C 0.63003 0.37005 1.0174 0.0
H131 H 0.68637 0.24856 0.95291 0.0
H132 H 0.59717 0.2879 0.97932 0.0
C133 C 0.67741 0.40396 1.0249 0.0
C134 C 0.14267 0.85358 0.30937 0.0
C135 C 0.11694 0.81805 0.2306 0.0
H136 H 0.13141 0.91559 0.4218 0.0
C137 C 0.0594 0.82163 0.19831 0.0
H138 H 0.18732 0.85259 0.33345 0.0
C139 C 0.02757 0.85822 0.24689 0.0
C140 C 0.05264 0.89182 0.32967 0.0
H141 H 0.03883 0.79449 0.13798 0.0
H142 H 0.98294 0.85861 0.22178 0.0
C143 C 0.11075 0.88989 0.35917 0.0
C144 C 0.64486 0.65652 0.75742 0.0
C145 C 0.69363 0.6252 0.77194 0.0
H146 H 0.56611 0.67116 0.80205 0.0
C147 C 0.70017 0.582 0.8438 0.0
H148 H 0.63985 0.69037 0.703 0.0
C149 C 0.65783 0.57041 0.90108 0.0
C150 C 0.60924 0.60283 0.88822 0.0
H151 H 0.73821 0.55799 0.85622 0.0
H152 H 0.66343 0.53697 0.95625 0.0
C153 C 0.60323 0.64574 0.81517 0.0
C154 C 0.91317 0.1991 0.24005 0.0
C155 C 0.86281 0.19515 0.17085 0.0
H156 H 0.96647 0.16223 0.3688 0.0
C157 C 0.82613 0.15181 0.18062 0.0
H158 H 0.94154 0.23299 0.23402 0.0
C159 C 0.8393 0.11261 0.25795 0.0
C160 C 0.89004 0.11533 0.3271 0.0
H161 H 0.78687 0.14879 0.12847 0.0
H162 H 0.80971 0.07957 0.26224 0.0
C163 C 0.92703 0.15907 0.31729 0.0
C164 C 0.30551 0.45221 0.62236 0.0
C165 C 0.29822 0.39528 0.6344 0.0
H166 H 0.34593 0.52643 0.68395 0.0
C167 C 0.33051 0.3683 0.71823 0.0
H168 H 0.28141 0.47369 0.55797 0.0
C169 C 0.36749 0.39836 0.79148 0.0
C170 C 0.37326 0.45594 0.78161 0.0
H171 H 0.32685 0.324 0.72736 0.0
H172 H 0.39085 0.37666 0.8564 0.0
C173 C 0.34244 0.48222 0.69497 0.0
C174 C 0.68841 0.55339 0.55865 0.0
C175 C 0.69572 0.61032 0.54663 0.0
H176 H 0.64795 0.47919 0.49705 0.0
C177 C 0.66342 0.63732 0.46283 0.0
H178 H 0.71252 0.5319 0.62302 0.0
C179 C 0.62642 0.60729 0.3896 0.0
C180 C 0.62064 0.5497 0.39944 0.0
H181 H 0.66709 0.68162 0.45372 0.0
H182 H 0.60306 0.62899 0.32469 0.0
C183 C 0.65145 0.5234 0.48605 0.0
C184 C 0.93419 0.18382 0.9812 0.0
C185 C 0.87668 0.18757 0.94876 0.0
H186 H 0.01059 0.14663 0.95789 0.0
C187 C 0.8509 0.15213 0.86987 0.0
H188 H 0.9548 0.21086 1.04166 0.0
C189 C 0.88278 0.11576 0.8201 0.0
C190 C 0.94087 0.11365 0.84977 0.0
H191 H 0.80627 0.15323 0.84569 0.0
H192 H 0.8621 0.09013 0.75738 0.0
C193 C 0.96597 0.14715 0.93266 0.0
C194 C 0.34916 0.34919 0.4237 0.0
C195 C 0.30035 0.38045 0.40907 0.0
H196 H 0.42793 0.33459 0.37913 0.0
C197 C 0.29377 0.4236 0.3371 0.0
H198 H 0.3542 0.31538 0.47821 0.0
C199 C 0.33611 0.43519 0.2798 0.0
C200 C 0.38472 0.40281 0.29276 0.0
H201 H 0.25571 0.44756 0.3246 0.0
H202 H 0.33048 0.46858 0.22454 0.0
C203 C 0.39079 0.35996 0.36593 0.0
C204 C 0.16774 0.85353 0.99817 0.0
C205 C 0.13094 0.81039 1.00855 0.0
H206 H 0.1842 0.92556 0.91599 0.0
C207 C 0.0804 0.80657 0.93984 0.0
H208 H 0.20715 0.85644 1.04991 0.0
C209 C 0.06647 0.84656 0.86252 0.0
C210 C 0.10358 0.89011 0.85214 0.0
H211 H 0.05193 0.77283 0.94632 0.0
H212 H 0.02689 0.84351 0.81143 0.0
C213 C 0.15451 0.89267 0.92076 0.0
loop_
_geom_bond_atom_site_label_1
_geom_bond_atom_site_label_2
_geom_bond_distance
_geom_bond_site_symmetry_2
_ccdc_geom_bond_type
C0 N1 1.317 . S
C0 N2 1.348 . S
C0 C3 1.485 1_554 S
N1 C0 1.317 . S
N1 N5 1.370 . S
N2 C0 1.348 . S
N2 C4 1.346 . S
C3 C0 1.485 1_556 S
C3 H7 0.960 . S
C3 H8 0.961 . S
C3 H9 0.960 . S
C4 N2 1.346 . S
C4 N5 1.307 . S
C4 C6 1.486 . S
N5 N1 1.370 . S
N5 C4 1.307 . S
C6 C4 1.486 . S
C6 H10 0.960 . S
C6 H11 0.960 . S
C6 H12 0.959 . S
H7 C3 0.960 . S
H8 C3 0.961 . S
H9 C3 0.960 . S
H10 C6 0.960 . S
H11 C6 0.960 . S
H12 C6 0.959 . S
C13 N14 1.317 . S
C13 N15 1.348 . S
C13 C16 1.485 . S
N14 C13 1.317 . S
N14 N18 1.370 . S
N15 C13 1.348 . S
N15 C17 1.346 . S
C16 C13 1.485 . S
C16 H20 0.960 . S
C16 H21 0.961 . S
C16 H22 0.960 . S
C17 N15 1.346 . S
C17 N18 1.307 . S
C17 C19 1.486 . S
N18 N14 1.370 . S
N18 C17 1.307 . S
C19 C17 1.486 . S
C19 H23 0.960 . S
C19 H24 0.960 . S
C19 H25 0.959 . S
H20 C16 0.960 . S
H21 C16 0.961 . S
H22 C16 0.960 . S
H23 C19 0.960 . S
H24 C19 0.960 . S
H25 C19 0.959 . S
C26 N27 1.317 . S
C26 N28 1.344 1_554 S
C26 C29 1.485 . S
N27 C26 1.317 . S
N27 N31 1.370 1_554 S
N28 C26 1.344 1_556 S
N28 C30 1.351 . S
C29 C26 1.485 . S
C29 H33 0.960 . S
C29 H34 0.961 . S
C29 H35 0.960 . S
C30 N28 1.351 . S
C30 N31 1.307 . S
C30 C32 1.486 . S
N31 N27 1.370 1_556 S
N31 C30 1.307 . S
C32 C30 1.486 . S
C32 H36 0.960 . S
C32 H37 0.960 . S
C32 H38 0.959 . S
H33 C29 0.960 . S
H34 C29 0.961 . S
H35 C29 0.960 . S
H36 C32 0.960 . S
H37 C32 0.960 . S
H38 C32 0.959 . S
C39 N40 1.317 . S
C39 N41 1.348 . S
C39 C42 1.485 . S
N40 C39 1.317 . S
N40 N44 1.370 . S
N41 C39 1.348 . S
N41 C43 1.346 . S
C42 C39 1.485 . S
C42 H46 0.960 . S
C42 H47 0.961 . S
C42 H48 0.960 . S
C43 N41 1.346 . S
C43 N44 1.307 . S
C43 C45 1.486 . S
N44 N40 1.370 . S
N44 C43 1.307 . S
C45 C43 1.486 . S
C45 H49 0.960 . S
C45 H50 0.960 . S
C45 H51 0.959 . S
H46 C42 0.960 . S
H47 C42 0.961 . S
H48 C42 0.960 . S
H49 C45 0.960 . S
H50 C45 0.960 . S
H51 C45 0.959 . S
O52 Mg53 1.990 . S
O52 C66 1.253 1_455 S
Mg53 O52 1.990 . S
Mg53 O56 2.180 . S
Mg53 O57 2.117 . S
Mg53 O71 2.030 . S
O54 Mg55 2.072 1_655 S
O54 C66 1.260 . S
Mg55 O54 2.072 1_455 S
Mg55 O56 2.099 . S
Mg55 O58 2.079 1_545 S
Mg55 O59 2.072 1_455 S
Mg55 O61 2.099 1_445 S
Mg55 O72 2.079 1_545 S
O56 Mg53 2.180 . S
O56 Mg55 2.099 . S
O56 C67 1.279 . S
O57 Mg53 2.117 . S
O57 C67 1.250 . S
O58 Mg55 2.079 1_565 S
O58 C68 1.264 . S
O59 Mg55 2.072 1_655 S
O59 C69 1.260 . S
Mg60 O61 2.180 . S
Mg60 O62 2.030 1_655 S
Mg60 O63 1.990 1_565 S
Mg60 O64 2.117 . S
O61 Mg55 2.099 1_665 S
O61 Mg60 2.180 . S
O61 C70 1.279 . S
O62 Mg60 2.030 1_455 S
O62 C68 1.248 . S
O63 Mg60 1.990 1_545 S
O63 C69 1.253 . S
O64 Mg60 2.117 . S
O64 C70 1.250 . S
C65 O71 1.248 1_565 S
C65 O72 1.264 . S
C66 O52 1.253 1_655 S
C66 O54 1.260 . S
C67 O56 1.279 . S
C67 O57 1.250 . S
C68 O58 1.264 . S
C68 O62 1.248 . S
C69 O59 1.260 . S
C69 O63 1.253 . S
C70 O61 1.279 . S
C70 O64 1.250 . S
O71 Mg53 2.030 . S
O71 C65 1.248 1_545 S
O72 Mg55 2.079 1_565 S
O72 C65 1.264 . S
O73 Mg74 1.990 . S
O73 C87 1.253 . S
Mg74 O73 1.990 . S
Mg74 O77 2.180 . S
Mg74 O78 2.117 . S
Mg74 O92 2.030 . S
O75 Mg76 2.072 . S
O75 C87 1.260 . S
Mg76 O75 2.072 . S
Mg76 O77 2.099 . S
Mg76 O79 2.079 1_554 S
Mg76 O80 2.072 1_554 S
Mg76 O82 2.099 1_554 S
Mg76 O93 2.079 . S
O77 Mg74 2.180 . S
O77 Mg76 2.099 . S
O77 C88 1.279 . S
O78 Mg74 2.117 . S
O78 C88 1.250 . S
O79 Mg76 2.079 1_556 S
O79 C89 1.264 . S
O80 Mg76 2.072 1_556 S
O80 C90 1.260 . S
Mg81 O82 2.180 . S
Mg81 O83 2.030 . S
Mg81 O84 1.990 . S
Mg81 O85 2.117 . S
O82 Mg76 2.099 1_556 S
O82 Mg81 2.180 . S
O82 C91 1.279 1_556 S
O83 Mg81 2.030 . S
O83 C89 1.248 . S
O84 Mg81 1.990 . S
O84 C90 1.253 . S
O85 Mg81 2.117 . S
O85 C91 1.250 1_556 S
C86 O92 1.248 . S
C86 O93 1.264 . S
C87 O73 1.253 . S
C87 O75 1.260 . S
C88 O77 1.279 . S
C88 O78 1.250 . S
C89 O79 1.264 . S
C89 O83 1.248 . S
C90 O80 1.260 . S
C90 O84 1.253 . S
C91 O82 1.279 1_554 S
C91 O85 1.250 1_554 S
O92 Mg74 2.030 . S
O92 C86 1.248 . S
O93 Mg76 2.079 . S
O93 C86 1.264 . S
C94 C95 1.387 . S
C94 H98 0.950 . S
C94 C103 1.390 . S
C95 C94 1.387 . S
C95 C97 1.387 . S
H96 C103 0.950 . S
C97 C95 1.387 . S
C97 C99 1.390 . S
C97 H101 0.950 . S
H98 C94 0.950 . S
C99 C97 1.390 . S
C99 C100 1.387 . S
C99 H102 0.950 . S
C100 C99 1.387 . S
C100 C103 1.387 . S
H101 C97 0.950 . S
H102 C99 0.950 . S
C103 C94 1.390 . S
C103 H96 0.950 . S
C103 C100 1.387 . S
C104 C105 1.387 . S
C104 H108 0.950 . S
C104 C113 1.390 . S
C105 C104 1.387 . S
C105 C107 1.387 1_554 S
H106 C113 0.950 . S
C107 C105 1.387 1_556 S
C107 C109 1.390 . S
C107 H111 0.950 . S
H108 C104 0.950 . S
C109 C107 1.390 . S
C109 C110 1.387 1_556 S
C109 H112 0.950 . S
C110 C109 1.387 1_554 S
C110 C113 1.387 . S
H111 C107 0.950 . S
H112 C109 0.950 . S
C113 C104 1.390 . S
C113 H106 0.950 . S
C113 C110 1.387 . S
C114 C115 1.387 . S
C114 H118 0.950 . S
C114 C123 1.390 . S
C115 C114 1.387 . S
C115 C117 1.387 . S
H116 C123 0.950 . S
C117 C115 1.387 . S
C117 C119 1.390 . S
C117 H121 0.950 . S
H118 C114 0.950 . S
C119 C117 1.390 . S
C119 C120 1.387 . S
C119 H122 0.950 . S
C120 C119 1.387 . S
C120 C123 1.387 . S
H121 C117 0.950 . S
H122 C119 0.950 . S
C123 C114 1.390 . S
C123 H116 0.950 . S
C123 C120 1.387 . S
C124 C125 1.393 . S
C124 H128 0.950 . S
C124 C133 1.390 . S
C125 C124 1.393 . S
C125 C127 1.382 1_556 S
H126 C133 0.950 . S
C127 C125 1.382 1_554 S
C127 C129 1.390 . S
C127 H131 0.950 . S
H128 C124 0.950 . S
C129 C127 1.390 . S
C129 C130 1.387 . S
C129 H132 0.950 . S
C130 C129 1.387 . S
C130 C133 1.387 1_554 S
H131 C127 0.950 . S
H132 C129 0.950 . S
C133 C124 1.390 . S
C133 H126 0.950 . S
C133 C130 1.387 1_556 S
C134 C135 1.387 . S
C134 H138 0.950 . S
C134 C143 1.390 . S
C135 C134 1.387 . S
C135 C137 1.387 . S
H136 C143 0.950 1_545 S
C137 C135 1.387 . S
C137 C139 1.390 . S
C137 H141 0.950 . S
H138 C134 0.950 . S
C139 C137 1.390 . S
C139 C140 1.387 . S
C139 H142 0.950 . S
C140 C139 1.387 . S
C140 C143 1.387 . S
H141 C137 0.950 . S
H142 C139 0.950 . S
C143 C134 1.390 . S
C143 H136 0.950 1_565 S
C143 C140 1.387 . S
C144 C145 1.387 . S
C144 H148 0.950 . S
C144 C153 1.390 . S
C145 C144 1.387 . S
C145 C147 1.387 . S
H146 C153 0.950 . S
C147 C145 1.387 . S
C147 C149 1.390 . S
C147 H151 0.950 . S
H148 C144 0.950 . S
C149 C147 1.390 . S
C149 C150 1.387 . S
C149 H152 0.950 . S
C150 C149 1.387 . S
C150 C153 1.387 . S
H151 C147 0.950 . S
H152 C149 0.950 . S
C153 C144 1.390 . S
C153 H146 0.950 . S
C153 C150 1.387 . S
C154 C155 1.387 . S
C154 H158 0.950 . S
C154 C163 1.390 . S
C155 C154 1.387 . S
C155 C157 1.387 . S
H156 C163 0.950 1_455 S
C157 C155 1.387 . S
C157 C159 1.390 . S
C157 H161 0.950 . S
H158 C154 0.950 . S
C159 C157 1.390 . S
C159 C160 1.387 . S
C159 H162 0.950 . S
C160 C159 1.387 . S
C160 C163 1.387 . S
H161 C157 0.950 . S
H162 C159 0.950 . S
C163 C154 1.390 . S
C163 H156 0.950 1_655 S
C163 C160 1.387 . S
C164 C165 1.387 . S
C164 H168 0.950 . S
C164 C173 1.390 . S
C165 C164 1.387 . S
C165 C167 1.387 . S
H166 C173 0.950 . S
C167 C165 1.387 . S
C167 C169 1.390 . S
C167 H171 0.950 . S
H168 C164 0.950 . S
C169 C167 1.390 . S
C169 C170 1.387 . S
C169 H172 0.950 . S
C170 C169 1.387 . S
C170 C173 1.387 . S
H171 C167 0.950 . S
H172 C169 0.950 . S
C173 C164 1.390 . S
C173 H166 0.950 . S
C173 C170 1.387 . S
C174 C175 1.387 . S
C174 H178 0.950 . S
C174 C183 1.390 . S
C175 C174 1.387 . S
C175 C177 1.387 . S
H176 C183 0.950 . S
C177 C175 1.387 . S
C177 C179 1.390 . S
C177 H181 0.950 . S
H178 C174 0.950 . S
C179 C177 1.390 . S
C179 C180 1.387 . S
C179 H182 0.950 . S
C180 C179 1.387 . S
C180 C183 1.387 . S
H181 C177 0.950 . S
H182 C179 0.950 . S
C183 C174 1.390 . S
C183 H176 0.950 . S
C183 C180 1.387 . S
C184 C185 1.387 . S
C184 H188 0.950 . S
C184 C193 1.390 . S
C185 C184 1.387 . S
C185 C187 1.387 . S
H186 C193 0.950 . S
C187 C185 1.387 . S
C187 C189 1.390 . S
C187 H191 0.950 . S
H188 C184 0.950 . S
C189 C187 1.390 . S
C189 C190 1.387 . S
C189 H192 0.950 . S
C190 C189 1.387 . S
C190 C193 1.387 . S
H191 C187 0.950 . S
H192 C189 0.950 . S
C193 C184 1.390 . S
C193 H186 0.950 . S
C193 C190 1.387 . S
C194 C195 1.387 . S
C194 H198 0.950 . S
C194 C203 1.390 . S
C195 C194 1.387 . S
C195 C197 1.387 . S
H196 C203 0.950 . S
C197 C195 1.387 . S
C197 C199 1.390 . S
C197 H201 0.950 . S
H198 C194 0.950 . S
C199 C197 1.390 . S
C199 C200 1.387 . S
C199 H202 0.950 . S
C200 C199 1.387 . S
C200 C203 1.387 . S
H201 C197 0.950 . S
H202 C199 0.950 . S
C203 C194 1.390 . S
C203 H196 0.950 . S
C203 C200 1.387 . S
C204 C205 1.387 . S
C204 H208 0.950 1_556 S
C204 C213 1.390 . S
C205 C204 1.387 . S
C205 C207 1.387 . S
H206 C213 0.950 . S
C207 C205 1.387 . S
C207 C209 1.390 . S
C207 H211 0.950 . S
H208 C204 0.950 1_554 S
C209 C207 1.390 . S
C209 C210 1.387 . S
C209 H212 0.950 . S
C210 C209 1.387 . S
C210 C213 1.387 . S
H211 C207 0.950 . S
H212 C209 0.950 . S
C213 C204 1.390 . S
C213 H206 0.950 . S
C213 C210 1.387 . S
C100 C67 1.292 . S
C95 N41 1.484 . S
C105 N2 1.482 . S
C110 C91 1.291 . S
C115 N15 1.582 . S
C120 C70 1.366 . S
C125 N28 1.578 . S
C130 C88 1.366 . S
C140 C68 1.452 . S
C135 N5 1.487 . S
C150 C90 1.498 . S
C145 N14 1.568 . S
C155 N27 1.543 . S
C160 C69 1.503 . S
C165 N44 1.480 . S
C170 C89 1.433 . S
C180 C87 1.502 . S
C175 N18 1.544 . S
C190 C66 1.498 . S
C185 N31 1.573 . S
C200 C86 1.455 . S
C195 N40 1.482 . S
C205 N1 1.482 1_556 S
C210 C65 1.433 . S
