# Generated by pormake.
# Topology pyr, (3,6)-cn, num edge types: 1
# Building blocks:
#     Node 0, Type 0, BuildingBlock: CUQRIR_clean_linker_1, # of connection points: 3
#     Node 1, Type 0, BuildingBlock: CUQRIR_clean_linker_1, # of connection points: 3
#     Node 2, Type 0, BuildingBlock: CUQRIR_clean_linker_1, # of connection points: 3
#     Node 3, Type 0, BuildingBlock: CUQRIR_clean_linker_1, # of connection points: 3
#     Node 4, Type 0, BuildingBlock: CUQRIR_clean_linker_1, # of connection points: 3
#     Node 5, Type 0, BuildingBlock: CUQRIR_clean_linker_1, # of connection points: 3
#     Node 6, Type 0, BuildingBlock: CUQRIR_clean_linker_1, # of connection points: 3
#     Node 7, Type 0, BuildingBlock: CUQRIR_clean_linker_1, # of connection points: 3
#     Node 8, Type 1, BuildingBlock: FUNLAD_clean_sbu_0, # of connection points: 6
#     Node 9, Type 1, BuildingBlock: FUNLAD_clean_sbu_0, # of connection points: 6
#     Node 10, Type 1, BuildingBlock: FUNLAD_clean_sbu_0, # of connection points: 6
#     Node 11, Type 1, BuildingBlock: FUNLAD_clean_sbu_0, # of connection points: 6
#     Edge 12, Type (0, 1), None
#     Edge 13, Type (0, 1), None
#     Edge 14, Type (0, 1), None
#     Edge 15, Type (0, 1), None
#     Edge 16, Type (0, 1), None
#     Edge 17, Type (0, 1), None
#     Edge 18, Type (0, 1), None
#     Edge 19, Type (0, 1), None
#     Edge 20, Type (0, 1), None
#     Edge 21, Type (0, 1), None
#     Edge 22, Type (0, 1), None
#     Edge 23, Type (0, 1), None
#     Edge 24, Type (0, 1), None
#     Edge 25, Type (0, 1), None
#     Edge 26, Type (0, 1), None
#     Edge 27, Type (0, 1), None
#     Edge 28, Type (0, 1), None
#     Edge 29, Type (0, 1), None
#     Edge 30, Type (0, 1), None
#     Edge 31, Type (0, 1), None
#     Edge 32, Type (0, 1), None
#     Edge 33, Type (0, 1), None
#     Edge 34, Type (0, 1), None
#     Edge 35, Type (0, 1), None
# Relax obj value: 0.541
# Max RMSD: 0.264
# Mean RMSD: 0.178
data_MOF--net-pry--node1-FUNLAD_clean_sbu_0--node2-CUQRIR_clean_linker_1--edge1-none
_symmetry_space_group_name_H-M    P1
_symmetry_Int_Tables_number       1
_symmetry_cell_setting            triclinic
loop_
_symmetry_equiv_pos_as_xyz
'x, y, z'
_cell_length_a     13.032201
_cell_length_b     14.190959
_cell_length_c     13.731335
_cell_angle_alpha  86.905843
_cell_angle_beta   93.611983
_cell_angle_gamma 85.392037
loop_
_atom_site_label
_atom_site_type_symbol
_atom_site_fract_x
_atom_site_fract_y
_atom_site_fract_z
_atom_type_partial_charge
C0 C 0.15877 0.35847 0.33953 0.0
N1 N 0.20816 0.26735 0.35223 0.0
N2 N 0.14166 0.39036 0.24353 0.0
C3 C 0.13148 0.41906 0.42236 0.0
C4 C 0.1856 0.3156 0.19792 0.0
N5 N 0.23638 0.24573 0.26018 0.0
C6 C 0.1403 0.28777 1.102 0.0
H7 H 0.06382 0.39322 0.45682 0.0
H8 H 0.11289 0.49381 0.39704 0.0
H9 H 0.19703 0.41479 0.47858 0.0
H10 H 0.20025 0.24942 1.06208 0.0
H11 H 0.09859 0.34862 1.05844 0.0
H12 H 0.08402 0.23516 0.11723 0.0
C13 C 0.38461 0.91223 0.7147 0.0
N14 N 0.35006 0.98848 0.76401 0.0
N15 N 0.45601 0.85376 0.76635 0.0
C16 C 0.38175 0.91692 0.60454 0.0
C17 C 0.47824 0.90625 0.84612 0.0
N18 N 0.4132 0.99009 0.84947 0.0
C19 C 0.57501 0.88263 0.9111 0.0
H20 H 0.30936 0.89242 0.57323 0.0
H21 H 0.44634 0.87425 0.57549 0.0
H22 H 0.3876 0.99184 0.57972 0.0
H23 H 0.56424 0.89927 0.98715 0.0
H24 H 0.63597 0.92413 0.88335 0.0
H25 H 0.60295 0.80713 0.91024 0.0
C26 C 0.92188 0.35268 0.81845 0.0
N27 N 0.9188 0.40121 0.89922 0.0
N28 N 0.97147 0.39744 0.74598 0.0
C29 C 0.8655 0.26582 0.80737 0.0
C30 C 0.026 0.45576 0.79912 0.0
N31 N 0.98668 0.46605 0.8866 0.0
C32 C 0.11019 0.51065 0.75829 0.0
H33 H 0.88314 0.23301 0.73866 0.0
H34 H 0.78125 0.28412 0.80713 0.0
H35 H 0.8869 0.21601 0.87175 0.0
H36 H 0.08367 0.58692 0.7464 0.0
H37 H 0.13366 0.482 0.68863 0.0
H38 H 0.17843 0.50676 0.8105 0.0
C39 C 0.60726 0.78317 0.3373 0.0
N40 N 0.69364 0.81747 0.30676 0.0
N41 N 0.59488 0.80529 0.42966 0.0
C42 C 0.55377 0.70511 0.28773 0.0
C43 C 0.6651 0.86794 0.4472 0.0
N44 N 0.732 0.86834 0.37707 0.0
C45 C 0.67434 0.92158 0.53915 0.0
H46 H 0.55773 0.71095 0.20753 0.0
H47 H 0.47198 0.70882 0.30305 0.0
H48 H 0.58974 0.63443 0.31556 0.0
H49 H 0.71333 0.87543 0.60049 0.0
H50 H 0.59678 0.94612 0.56083 0.0
H51 H 0.71932 0.98395 0.5274 0.0
C52 C 0.86306 0.9595 1.00003 0.0
N53 N 0.93064 0.93133 0.93273 0.0
N54 N 0.78398 1.0192 0.96357 0.0
C55 C 0.89249 0.9536 0.10587 0.0
C56 C 0.80915 1.03531 0.86877 0.0
N57 N 0.89962 0.98427 0.84787 0.0
C58 C 0.73501 0.08578 0.79056 0.0
H59 H 0.84198 0.91008 0.14656 0.0
H60 H 0.88799 1.02577 0.13358 0.0
H61 H 0.97092 0.92368 0.11457 0.0
H62 H 0.77443 0.10723 0.72473 0.0
H63 H 0.69179 0.14785 0.81852 0.0
H64 H 0.67755 1.03672 0.76693 0.0
C65 C 0.75284 0.35301 0.44987 0.0
N66 N 0.77881 0.26101 0.43186 0.0
N67 N 0.64921 0.37256 0.45313 0.0
C68 C 0.82465 0.42728 0.42651 0.0
C69 C 0.61224 0.29115 0.42338 0.0
N70 N 0.68832 0.22572 0.39824 0.0
C71 C 0.49898 0.27511 0.41596 0.0
H72 H 0.8938 0.42002 0.47697 0.0
H73 H 0.78684 0.49994 0.42517 0.0
H74 H 0.85422 0.41329 0.35443 0.0
H75 H 0.45769 0.3266 0.36028 0.0
H76 H 0.46558 0.28668 0.48714 0.0
H77 H 0.48628 0.20192 0.39675 0.0
C78 C 0.09006 0.80202 0.36544 0.0
N79 N 0.18202 0.8286 0.39932 0.0
N80 N 0.06335 0.84418 0.27659 0.0
C81 C 0.04675 0.7097 0.40072 0.0
C82 C 0.13552 0.90717 0.26498 0.0
N83 N 0.21168 0.89247 0.33522 0.0
C84 C 0.14014 0.976 0.17746 0.0
H85 H 0.09006 0.64951 0.36979 0.0
H86 H 0.96522 0.70809 0.37556 0.0
H87 H 0.05147 0.69841 0.4812 0.0
H88 H 0.0723 1.02862 0.17347 0.0
H89 H 0.14152 0.93799 0.10896 0.0
H90 H 0.20863 1.01741 0.18345 0.0
C91 C 0.40449 0.46602 0.97231 0.0
N92 N 0.3866 0.43414 0.88233 0.0
N93 N 0.41895 0.55999 0.96824 0.0
C94 C 0.42605 0.40233 1.05921 0.0
C95 C 0.39524 0.58481 0.87267 0.0
N96 N 0.39257 0.50749 0.8219 0.0
C97 C 0.31795 0.66611 0.83693 0.0
H98 H 0.35939 0.4117 0.10516 0.0
H99 H 0.49769 0.41797 1.10092 0.0
H100 H 0.4372 0.3307 1.03224 0.0
H101 H 0.34539 0.73622 0.84586 0.0
H102 H 0.24476 0.65971 0.87244 0.0
H103 H 0.2978 0.66439 0.75938 0.0
C104 C 0.17986 0.20768 0.43317 0.0
N105 N 0.17554 0.27074 0.74101 0.0
C106 C 0.2677 0.28857 0.70283 0.0
C107 C 0.34807 0.32132 0.75942 0.0
C108 C 0.3305 0.35592 0.85045 0.0
C109 C 0.23801 0.33653 0.89016 0.0
C110 C 0.16572 0.28564 0.83795 0.0
Zn111 Zn 0.08411 0.17953 0.65385 0.0
C112 C 0.86545 0.21234 0.48973 0.0
N113 N 1.01409 0.95459 0.48149 0.0
C114 C 0.97587 0.87959 0.52823 0.0
C115 C 0.97347 0.98783 0.39055 0.0
C116 C 0.88229 0.95598 0.35084 0.0
C117 C 0.83849 0.88278 0.39949 0.0
C118 C 0.88879 0.84151 0.48716 0.0
Zn119 Zn 0.04789 0.06477 0.56079 0.0
O120 O 0.16638 0.2413 0.51732 0.0
C121 C 0.25726 1.03743 0.72261 0.0
O122 O 0.14184 0.12759 0.42445 0.0
H123 H 1.00002 1.05046 0.35581 0.0
H124 H 0.28774 0.26423 0.63357 0.0
H125 H 1.00746 0.85395 0.60033 0.0
O126 O 0.22515 0.11714 0.74658 0.0
O127 O 0.20275 1.00448 0.6504 0.0
H128 H 0.10032 0.26198 0.87385 0.0
O129 O 0.96121 0.99545 0.68963 0.0
O130 O 1.00241 0.10324 0.78614 0.0
O131 O 0.89183 0.12597 0.48221 0.0
O132 O 0.92464 0.25234 0.55407 0.0
C133 C 0.96334 1.02279 0.77723 0.0
H134 H 0.42203 0.32516 0.7286 0.0
H135 H 0.21906 0.36922 0.95596 0.0
H136 H 0.84035 0.99507 0.28933 0.0
H137 H 0.85597 0.78488 0.52684 0.0
C138 C 0.70372 1.05605 1.01706 0.0
N139 N 0.65723 0.30205 1.02733 0.0
C140 C 0.75517 0.28048 1.07191 0.0
C141 C 0.8431 0.32228 1.04015 0.0
C142 C 0.83445 0.39399 0.96544 0.0
C143 C 0.73219 0.42579 0.93167 0.0
C144 C 0.64694 0.375 0.95719 0.0
Zn145 Zn 0.54022 0.19975 1.07821 0.0
C146 C 0.42096 1.05268 0.93129 0.0
N147 N 0.49991 0.95009 0.24372 0.0
C148 C 0.44433 0.89078 0.19232 0.0
C149 C 0.47469 0.97201 0.3357 0.0
C150 C 0.37974 0.9522 0.36828 0.0
C151 C 0.31691 0.89976 0.31256 0.0
C152 C 0.35212 0.8645 0.22618 0.0
Zn153 Zn 0.52547 0.06782 0.16664 0.0
O154 O 0.66308 0.13855 0.99693 0.0
C155 C 0.6649 0.18783 0.30563 0.0
O156 O 0.67132 1.01097 1.09198 0.0
H157 H 0.51531 1.02145 0.37642 0.0
H158 H 0.76953 0.22107 0.12482 0.0
H159 H 0.46632 0.87131 0.12149 0.0
O160 O 0.63244 0.24194 0.22912 0.0
O161 O 0.63154 0.10607 0.30185 0.0
H162 H 0.57503 0.39121 0.91579 0.0
O163 O 0.37197 0.12353 0.24631 0.0
O164 O 0.38303 0.25198 0.16279 0.0
O165 O 0.43271 1.01621 1.02069 0.0
O166 O 0.4516 0.13847 0.92482 0.0
C167 C 0.33474 0.2084 0.22902 0.0
H168 H 0.91841 0.29183 1.06775 0.0
H169 H 0.71908 0.48464 0.87871 0.0
H170 H 0.34868 0.98943 0.42706 0.0
H171 H 0.30333 0.82408 0.18223 0.0
C172 C 0.59638 0.45051 0.4903 0.0
N173 N 0.7471 0.56555 0.69876 0.0
C174 C 0.73931 0.47001 0.69976 0.0
C175 C 0.80983 0.41396 0.65388 0.0
C176 C 0.90944 0.44085 0.66098 0.0
C177 C 0.91333 0.53934 0.6374 0.0
C178 C 0.83204 0.60192 0.66375 0.0
Zn179 Zn 0.60566 0.61929 0.652 0.0
C180 C 0.58262 0.73522 0.49543 0.0
N181 N 0.32939 0.58588 0.51774 0.0
C182 C 0.33272 0.60456 0.42104 0.0
C183 C 0.26379 0.63519 0.57168 0.0
C184 C 0.23332 0.72756 0.54188 0.0
C185 C 0.25029 0.75662 0.44603 0.0
C186 C 0.29547 0.69254 0.38404 0.0
Zn187 Zn 0.46792 0.58233 0.57865 0.0
O188 O 0.64354 0.5105 0.53652 0.0
C189 C 0.45459 0.50037 0.74911 0.0
O190 O 0.49994 0.4593 0.49231 0.0
H191 H 0.24066 0.60339 0.63833 0.0
H192 H 0.66881 0.43864 0.71191 0.0
H193 H 0.37775 0.55848 0.37677 0.0
O194 O 0.54077 0.53516 0.75729 0.0
O195 O 0.4117 0.49514 0.66732 0.0
H196 H 0.83351 0.67727 0.6499 0.0
O197 O 0.43843 0.72061 0.67152 0.0
O198 O 0.58576 0.73 0.75574 0.0
O199 O 0.51202 0.68063 0.47973 0.0
O200 O 0.65181 0.71457 0.56367 0.0
C201 C 0.49428 0.76607 0.73294 0.0
H202 H 0.79307 0.34217 0.64303 0.0
H203 H 0.98088 0.56717 0.60889 0.0
H204 H 0.18471 0.77072 0.58613 0.0
H205 H 0.29441 0.70848 0.30685 0.0
C206 C 0.96914 0.83469 0.94652 0.0
N207 N 0.81075 0.62654 0.12275 0.0
C208 C 0.75215 0.70364 1.08314 0.0
C209 C 0.72434 0.7751 0.14338 0.0
C210 C 0.75045 0.76149 0.24398 0.0
C211 C 0.79025 0.67142 0.28249 0.0
C212 C 0.8104 0.60146 0.21876 0.0
Zn213 Zn 0.95828 0.64701 0.10499 0.0
C214 C 1.00566 0.5359 0.94494 0.0
N215 N 0.25239 0.67684 1.06856 0.0
C216 C 0.30809 0.74227 1.02491 0.0
C217 C 0.30347 0.61801 0.14167 0.0
C218 C 0.40795 0.59474 0.13593 0.0
C219 C 0.44313 0.62189 1.04611 0.0
C220 C 0.41444 0.71799 1.02239 0.0
Zn221 Zn 0.09997 0.66806 1.05106 0.0
O222 O 0.91205 0.7743 0.98638 0.0
C223 C 0.04377 0.78396 0.20794 0.0
O224 O 0.06595 0.81151 0.96187 0.0
H225 H 0.26549 0.58925 0.20244 0.0
H226 H 0.73809 0.71402 1.00476 0.0
H227 H 0.27064 0.80397 0.98355 0.0
O228 O 0.95845 0.74952 0.2011 0.0
O229 O 0.11779 0.74613 0.16614 0.0
H230 H 0.83823 0.53122 0.24551 0.0
O231 O 0.13771 0.5168 0.12651 0.0
O232 O 1.01772 0.52475 0.22591 0.0
O233 O 0.07949 0.5888 0.93219 0.0
O234 O 0.94852 0.54844 1.0132 0.0
C235 C 0.09813 0.47819 0.19914 0.0
H236 H 0.67832 0.83756 0.11381 0.0
H237 H 0.79619 0.6546 0.36058 0.0
H238 H 0.45046 0.54352 0.18759 0.0
H239 H 0.45807 0.75768 0.9742 0.0
loop_
_geom_bond_atom_site_label_1
_geom_bond_atom_site_label_2
_geom_bond_distance
_geom_bond_site_symmetry_2
_ccdc_geom_bond_type
C0 N1 1.317 . S
C0 N2 1.348 . S
C0 C3 1.485 . S
N1 C0 1.317 . S
N1 N5 1.370 . S
N2 C0 1.348 . S
N2 C4 1.346 . S
C3 C0 1.485 . S
C3 H7 0.960 1_455 S
C3 H8 0.961 . S
C3 H9 0.960 . S
C4 N2 1.346 . S
C4 N5 1.307 . S
C4 C6 1.486 . S
N5 N1 1.370 . S
N5 C4 1.307 . S
C6 C4 1.486 . S
C6 H10 0.960 . S
C6 H11 0.960 1_554 S
C6 H12 0.959 . S
H7 C3 0.960 1_655 S
H8 C3 0.961 . S
H9 C3 0.960 . S
H10 C6 0.960 . S
H11 C6 0.960 1_556 S
H12 C6 0.959 . S
C13 N14 1.317 . S
C13 N15 1.348 . S
C13 C16 1.485 . S
N14 C13 1.317 . S
N14 N18 1.370 . S
N15 C13 1.348 . S
N15 C17 1.346 . S
C16 C13 1.485 . S
C16 H20 0.960 . S
C16 H21 0.961 . S
C16 H22 0.960 . S
C17 N15 1.346 . S
C17 N18 1.307 . S
C17 C19 1.486 . S
N18 N14 1.370 . S
N18 C17 1.307 . S
C19 C17 1.486 . S
C19 H23 0.960 . S
C19 H24 0.960 . S
C19 H25 0.959 . S
H20 C16 0.960 . S
H21 C16 0.961 . S
H22 C16 0.960 . S
H23 C19 0.960 . S
H24 C19 0.960 . S
H25 C19 0.959 . S
C26 N27 1.317 . S
C26 N28 1.348 . S
C26 C29 1.485 . S
N27 C26 1.317 . S
N27 N31 1.370 . S
N28 C26 1.348 . S
N28 C30 1.346 . S
C29 C26 1.485 . S
C29 H33 0.960 . S
C29 H34 0.961 . S
C29 H35 0.960 . S
C30 N28 1.346 . S
C30 N31 1.307 . S
C30 C32 1.486 . S
N31 N27 1.370 . S
N31 C30 1.307 . S
C32 C30 1.486 . S
C32 H36 0.960 . S
C32 H37 0.960 . S
C32 H38 0.959 . S
H33 C29 0.960 . S
H34 C29 0.961 . S
H35 C29 0.960 . S
H36 C32 0.960 . S
H37 C32 0.960 . S
H38 C32 0.959 . S
C39 N40 1.317 . S
C39 N41 1.348 . S
C39 C42 1.485 . S
N40 C39 1.317 . S
N40 N44 1.370 . S
N41 C39 1.348 . S
N41 C43 1.346 . S
C42 C39 1.485 . S
C42 H46 0.960 . S
C42 H47 0.961 . S
C42 H48 0.960 . S
C43 N41 1.346 . S
C43 N44 1.307 . S
C43 C45 1.486 . S
N44 N40 1.370 . S
N44 C43 1.307 . S
C45 C43 1.486 . S
C45 H49 0.960 . S
C45 H50 0.960 . S
C45 H51 0.959 . S
H46 C42 0.960 . S
H47 C42 0.961 . S
H48 C42 0.960 . S
H49 C45 0.960 . S
H50 C45 0.960 . S
H51 C45 0.959 . S
C52 N53 1.317 . S
C52 N54 1.348 . S
C52 C55 1.485 1_556 S
N53 C52 1.317 . S
N53 N57 1.370 . S
N54 C52 1.348 . S
N54 C56 1.346 1_565 S
C55 C52 1.485 1_554 S
C55 H59 0.960 1_554 S
C55 H60 0.961 . S
C55 H61 0.960 . S
C56 N54 1.346 1_545 S
C56 N57 1.307 1_545 S
C56 C58 1.486 . S
N57 N53 1.370 . S
N57 C56 1.307 1_565 S
C58 C56 1.486 . S
C58 H62 0.960 . S
C58 H63 0.960 . S
C58 H64 0.959 . S
H59 C55 0.960 1_556 S
H60 C55 0.961 . S
H61 C55 0.960 . S
H62 C58 0.960 . S
H63 C58 0.960 . S
H64 C58 0.959 . S
C65 N66 1.317 . S
C65 N67 1.348 . S
C65 C68 1.485 . S
N66 C65 1.317 . S
N66 N70 1.370 . S
N67 C65 1.348 . S
N67 C69 1.346 . S
C68 C65 1.485 . S
C68 H72 0.960 . S
C68 H73 0.961 . S
C68 H74 0.960 . S
C69 N67 1.346 . S
C69 N70 1.307 . S
C69 C71 1.486 . S
N70 N66 1.370 . S
N70 C69 1.307 . S
C71 C69 1.486 . S
C71 H75 0.960 . S
C71 H76 0.960 . S
C71 H77 0.959 . S
H72 C68 0.960 . S
H73 C68 0.961 . S
H74 C68 0.960 . S
H75 C71 0.960 . S
H76 C71 0.960 . S
H77 C71 0.959 . S
C78 N79 1.317 . S
C78 N80 1.348 . S
C78 C81 1.485 . S
N79 C78 1.317 . S
N79 N83 1.370 . S
N80 C78 1.348 . S
N80 C82 1.346 . S
C81 C78 1.485 . S
C81 H85 0.960 . S
C81 H86 0.961 . S
C81 H87 0.960 . S
C82 N80 1.346 . S
C82 N83 1.307 . S
C82 C84 1.486 1_554 S
N83 N79 1.370 . S
N83 C82 1.307 . S
C84 C82 1.486 1_556 S
C84 H88 0.960 . S
C84 H89 0.960 . S
C84 H90 0.959 . S
H85 C81 0.960 . S
H86 C81 0.961 . S
H87 C81 0.960 . S
H88 C84 0.960 . S
H89 C84 0.960 . S
H90 C84 0.959 . S
C91 N92 1.317 . S
C91 N93 1.348 . S
C91 C94 1.485 . S
N92 C91 1.317 . S
N92 N96 1.370 . S
N93 C91 1.348 . S
N93 C95 1.346 . S
C94 C91 1.485 . S
C94 H98 0.960 . S
C94 H99 0.961 . S
C94 H100 0.960 . S
C95 N93 1.346 . S
C95 N96 1.307 . S
C95 C97 1.486 . S
N96 N92 1.370 . S
N96 C95 1.307 . S
C97 C95 1.486 . S
C97 H101 0.960 . S
C97 H102 0.960 . S
C97 H103 0.959 . S
H98 C94 0.960 . S
H99 C94 0.961 . S
H100 C94 0.960 . S
H101 C97 0.960 . S
H102 C97 0.960 . S
H103 C97 0.959 . S
C104 O120 1.251 . S
C104 O122 1.254 . S
N105 C106 1.333 . S
N105 C110 1.307 . S
N105 Zn111 2.020 . S
C106 N105 1.333 . S
C106 C107 1.379 . S
C106 H124 0.952 . S
C107 C106 1.379 . S
C107 C108 1.390 . S
C107 H134 0.949 . S
C108 C107 1.390 . S
C108 C109 1.357 . S
C109 C108 1.357 . S
C109 C110 1.370 . S
C109 H135 0.950 . S
C110 N105 1.307 . S
C110 C109 1.370 . S
C110 H128 0.948 . S
Zn111 N105 2.020 . S
Zn111 O120 2.039 . S
Zn111 O126 2.034 . S
Zn111 O130 2.025 . S
Zn111 O132 2.024 1_455 S
C112 O131 1.246 . S
C112 O132 1.249 . S
N113 C114 1.307 1_655 S
N113 C115 1.333 . S
N113 Zn119 2.020 1_655 S
C114 N113 1.307 1_455 S
C114 C118 1.370 1_455 S
C114 H125 0.948 . S
C115 N113 1.333 . S
C115 C116 1.379 . S
C115 H123 0.952 . S
C116 C115 1.379 . S
C116 C117 1.390 . S
C116 H136 0.949 . S
C117 C116 1.390 . S
C117 C118 1.357 . S
C118 C114 1.370 1_655 S
C118 C117 1.357 . S
C118 H137 0.950 1_655 S
Zn119 N113 2.020 1_455 S
Zn119 O122 2.025 1_565 S
Zn119 O127 2.024 . S
Zn119 O129 2.041 . S
Zn119 O131 2.034 1_465 S
O120 C104 1.251 . S
O120 Zn111 2.039 . S
C121 O126 1.246 1_565 S
C121 O127 1.249 . S
O122 C104 1.254 . S
O122 Zn119 2.025 1_545 S
H123 C115 0.952 . S
H124 C106 0.952 . S
H125 C114 0.948 . S
O126 Zn111 2.034 . S
O126 C121 1.246 1_545 S
O127 Zn119 2.024 . S
O127 C121 1.249 . S
H128 C110 0.948 . S
O129 Zn119 2.041 . S
O129 C133 1.251 1_565 S
O130 Zn111 2.025 . S
O130 C133 1.254 . S
O131 C112 1.246 . S
O131 Zn119 2.034 1_645 S
O132 Zn111 2.024 1_655 S
O132 C112 1.249 . S
C133 O129 1.251 1_545 S
C133 O130 1.254 . S
H134 C107 0.949 . S
H135 C109 0.950 . S
H136 C116 0.949 . S
H137 C118 0.950 1_455 S
C138 O154 1.251 1_565 S
C138 O156 1.254 1_556 S
N139 C140 1.333 . S
N139 C144 1.307 . S
N139 Zn145 2.020 1_556 S
C140 N139 1.333 . S
C140 C141 1.379 . S
C140 H158 0.952 . S
C141 C140 1.379 . S
C141 C142 1.390 . S
C141 H168 0.949 . S
C142 C141 1.390 . S
C142 C143 1.357 . S
C143 C142 1.357 . S
C143 C144 1.370 . S
C143 H169 0.950 . S
C144 N139 1.307 . S
C144 C143 1.370 . S
C144 H162 0.948 . S
Zn145 N139 2.020 1_554 S
Zn145 O154 2.039 1_554 S
Zn145 O160 2.034 . S
Zn145 O164 2.025 . S
Zn145 O166 2.024 1_554 S
C146 O165 1.246 1_545 S
C146 O166 1.249 . S
N147 C148 1.307 . S
N147 C149 1.333 . S
N147 Zn153 2.020 . S
C148 N147 1.307 . S
C148 C152 1.370 . S
C148 H159 0.948 . S
C149 N147 1.333 . S
C149 C150 1.379 . S
C149 H157 0.952 . S
C150 C149 1.379 . S
C150 C151 1.390 . S
C150 H170 0.949 . S
C151 C150 1.390 . S
C151 C152 1.357 . S
C152 C148 1.370 . S
C152 C151 1.357 . S
C152 H171 0.950 . S
Zn153 N147 2.020 . S
Zn153 O156 2.025 . S
Zn153 O161 2.024 1_565 S
Zn153 O163 2.039 1_565 S
Zn153 O165 2.034 1_554 S
O154 C138 1.251 1_545 S
O154 Zn145 2.039 1_556 S
C155 O160 1.246 . S
C155 O161 1.249 . S
O156 C138 1.254 1_554 S
O156 Zn153 2.025 . S
H157 C149 0.952 . S
H158 C140 0.952 . S
H159 C148 0.948 . S
O160 Zn145 2.034 . S
O160 C155 1.246 . S
O161 Zn153 2.024 1_545 S
O161 C155 1.249 . S
H162 C144 0.948 . S
O163 Zn153 2.039 1_545 S
O163 C167 1.251 . S
O164 Zn145 2.025 . S
O164 C167 1.254 . S
O165 C146 1.246 1_565 S
O165 Zn153 2.034 1_556 S
O166 Zn145 2.024 1_556 S
O166 C146 1.249 . S
C167 O163 1.251 . S
C167 O164 1.254 . S
H168 C141 0.949 . S
H169 C143 0.950 . S
H170 C150 0.949 . S
H171 C152 0.950 . S
C172 O188 1.251 . S
C172 O190 1.254 . S
N173 C174 1.333 . S
N173 C178 1.307 . S
N173 Zn179 2.020 . S
C174 N173 1.333 . S
C174 C175 1.379 . S
C174 H192 0.952 . S
C175 C174 1.379 . S
C175 C176 1.390 . S
C175 H202 0.949 . S
C176 C175 1.390 . S
C176 C177 1.357 . S
C177 C176 1.357 . S
C177 C178 1.370 . S
C177 H203 0.950 . S
C178 N173 1.307 . S
C178 C177 1.370 . S
C178 H196 0.948 . S
Zn179 N173 2.020 . S
Zn179 O188 2.039 . S
Zn179 O194 2.034 . S
Zn179 O198 2.025 . S
Zn179 O200 2.024 . S
C180 O199 1.246 . S
C180 O200 1.249 . S
N181 C182 1.307 . S
N181 C183 1.333 . S
N181 Zn187 2.020 . S
C182 N181 1.307 . S
C182 C186 1.370 . S
C182 H193 0.948 . S
C183 N181 1.333 . S
C183 C184 1.379 . S
C183 H191 0.952 . S
C184 C183 1.379 . S
C184 C185 1.390 . S
C184 H204 0.949 . S
C185 C184 1.390 . S
C185 C186 1.357 . S
C186 C182 1.370 . S
C186 C185 1.357 . S
C186 H205 0.950 . S
Zn187 N181 2.020 . S
Zn187 O190 2.025 . S
Zn187 O195 2.024 . S
Zn187 O197 2.039 . S
Zn187 O199 2.034 . S
O188 C172 1.251 . S
O188 Zn179 2.039 . S
C189 O194 1.246 . S
C189 O195 1.249 . S
O190 C172 1.254 . S
O190 Zn187 2.025 . S
H191 C183 0.952 . S
H192 C174 0.952 . S
H193 C182 0.948 . S
O194 Zn179 2.034 . S
O194 C189 1.246 . S
O195 Zn187 2.024 . S
O195 C189 1.249 . S
H196 C178 0.948 . S
O197 Zn187 2.039 . S
O197 C201 1.251 . S
O198 Zn179 2.025 . S
O198 C201 1.254 . S
O199 C180 1.246 . S
O199 Zn187 2.034 . S
O200 Zn179 2.024 . S
O200 C180 1.249 . S
C201 O197 1.251 . S
C201 O198 1.254 . S
H202 C175 0.949 . S
H203 C177 0.950 . S
H204 C184 0.949 . S
H205 C186 0.950 . S
C206 O222 1.251 1_556 S
C206 O224 1.254 . S
N207 C208 1.333 . S
N207 C212 1.307 . S
N207 Zn213 2.020 . S
C208 N207 1.333 . S
C208 C209 1.379 . S
C208 H226 0.952 . S
C209 C208 1.379 . S
C209 C210 1.390 . S
C209 H236 0.949 . S
C210 C209 1.390 . S
C210 C211 1.357 . S
C211 C210 1.357 . S
C211 C212 1.370 . S
C211 H237 0.950 . S
C212 N207 1.307 . S
C212 C211 1.370 . S
C212 H230 0.948 . S
Zn213 N207 2.020 . S
Zn213 O222 2.039 . S
Zn213 O228 2.034 1_655 S
Zn213 O232 2.025 1_655 S
Zn213 O234 2.024 . S
C214 O233 1.246 . S
C214 O234 1.249 1_556 S
N215 C216 1.307 . S
N215 C217 1.333 . S
N215 Zn221 2.020 . S
C216 N215 1.307 . S
C216 C220 1.370 . S
C216 H227 0.948 . S
C217 N215 1.333 . S
C217 C218 1.379 . S
C217 H225 0.952 . S
C218 C217 1.379 . S
C218 C219 1.390 . S
C218 H238 0.949 . S
C219 C218 1.390 . S
C219 C220 1.357 . S
C220 C216 1.370 . S
C220 C219 1.357 . S
C220 H239 0.950 . S
Zn221 N215 2.020 . S
Zn221 O224 2.025 1_455 S
Zn221 O229 2.024 1_556 S
Zn221 O231 2.043 . S
Zn221 O233 2.034 1_455 S
O222 C206 1.251 1_554 S
O222 Zn213 2.039 . S
C223 O228 1.246 . S
C223 O229 1.249 . S
O224 C206 1.254 . S
O224 Zn221 2.025 1_655 S
H225 C217 0.952 . S
H226 C208 0.952 . S
H227 C216 0.948 . S
O228 Zn213 2.034 1_455 S
O228 C223 1.246 . S
O229 Zn221 2.024 1_554 S
O229 C223 1.249 . S
H230 C212 0.948 . S
O231 Zn221 2.043 . S
O231 C235 1.243 1_556 S
O232 Zn213 2.025 1_455 S
O232 C235 1.254 . S
O233 C214 1.246 . S
O233 Zn221 2.034 1_655 S
O234 Zn213 2.024 . S
O234 C214 1.249 1_554 S
C235 O231 1.243 1_554 S
C235 O232 1.254 . S
H236 C209 0.949 . S
H237 C211 0.950 . S
H238 C218 0.949 . S
H239 C220 0.950 . S
N1 C104 2.945 . S
N18 C146 3.450 1_565 S
C176 N28 0.703 . S
N40 C210 1.027 . S
C167 N5 2.541 . S
C121 N14 2.372 . S
C214 N31 0.419 . S
C180 N41 0.793 . S
N2 C235 2.627 . S
C142 N27 1.080 . S
N44 C117 2.031 . S
N15 C201 2.563 . S
C133 N57 3.406 1_445 S
N70 C155 2.817 . S
N79 C185 0.895 . S
N93 C219 0.577 . S
N54 C138 2.186 . S
C112 N66 2.598 . S
C223 N80 0.936 . S
C189 N96 0.530 . S
N53 C206 2.788 . S
C151 N83 2.206 . S
C108 N92 1.063 . S
N67 C172 2.610 . S
