# Generated by pormake.
# Topology tsx, (6,3)-cn, num edge types: 1
# Building blocks:
#     Node 0, Type 0, BuildingBlock: JUFBIX_clean_sbu_0, # of connection points: 6
#     Node 1, Type 0, BuildingBlock: JUFBIX_clean_sbu_0, # of connection points: 6
#     Node 2, Type 1, BuildingBlock: PAMTOO_clean_linker_0, # of connection points: 3
#     Node 3, Type 1, BuildingBlock: PAMTOO_clean_linker_0, # of connection points: 3
#     Node 4, Type 1, BuildingBlock: PAMTOO_clean_linker_0, # of connection points: 3
#     Node 5, Type 1, BuildingBlock: PAMTOO_clean_linker_0, # of connection points: 3
#     Edge 6, Type (0, 1), BuildingBlock: AJUNOK_clean_linker_0, # of connection points: 2
#     Edge 7, Type (0, 1), BuildingBlock: AJUNOK_clean_linker_0, # of connection points: 2
#     Edge 8, Type (0, 1), BuildingBlock: AJUNOK_clean_linker_0, # of connection points: 2
#     Edge 9, Type (0, 1), BuildingBlock: AJUNOK_clean_linker_0, # of connection points: 2
#     Edge 10, Type (0, 1), BuildingBlock: AJUNOK_clean_linker_0, # of connection points: 2
#     Edge 11, Type (0, 1), BuildingBlock: AJUNOK_clean_linker_0, # of connection points: 2
#     Edge 12, Type (0, 1), BuildingBlock: AJUNOK_clean_linker_0, # of connection points: 2
#     Edge 13, Type (0, 1), BuildingBlock: AJUNOK_clean_linker_0, # of connection points: 2
#     Edge 14, Type (0, 1), BuildingBlock: AJUNOK_clean_linker_0, # of connection points: 2
#     Edge 15, Type (0, 1), BuildingBlock: AJUNOK_clean_linker_0, # of connection points: 2
#     Edge 16, Type (0, 1), BuildingBlock: AJUNOK_clean_linker_0, # of connection points: 2
#     Edge 17, Type (0, 1), BuildingBlock: AJUNOK_clean_linker_0, # of connection points: 2
# Relax obj value: 0.107
# Max RMSD: 0.129
# Mean RMSD: 0.122
data_MOF--net-tsx--node1-JUFBIX_clean_sbu_0--node2-PAMTOO_clean_linker_0--edge1-AJUNOK_clean_linker_0
_symmetry_space_group_name_H-M    P1
_symmetry_Int_Tables_number       1
_symmetry_cell_setting            triclinic
loop_
_symmetry_equiv_pos_as_xyz
'x, y, z'
_cell_length_a     14.743052
_cell_length_b     17.469839
_cell_length_c     24.761875
_cell_angle_alpha  84.315089
_cell_angle_beta   88.889567
_cell_angle_gamma 102.39411
loop_
_atom_site_label
_atom_site_type_symbol
_atom_site_fract_x
_atom_site_fract_y
_atom_site_fract_z
_atom_type_partial_charge
Co0 Co 0.18403 0.07028 -0.01974 0.0
C1 C 0.11327 0.09601 0.87971 0.0
Co2 Co 0.07142 0.13686 -0.01915 0.0
C3 C 0.30358 0.96042 0.95562 0.0
C4 C 0.3639 0.04787 0.00684 0.0
N5 N 0.2862 1.0222 -0.0199 0.0
N6 N 0.3892 0.94699 0.9663 0.0
C7 C 0.42671 1.0022 -0.00147 0.0
H8 H 0.25402 0.92571 0.93109 0.0
H9 H 0.37465 0.09739 0.03074 0.0
C10 C 0.14171 0.10792 0.08153 0.0
N11 N 0.97081 0.18558 -0.01565 0.0
C12 C 0.94665 0.24461 0.95205 0.0
C13 C 0.90332 0.16551 0.02404 0.0
N14 N 0.86618 0.2608 0.96997 0.0
C15 C 0.83922 0.21135 0.01532 0.0
C16 C 1.01263 0.97172 -5e-05 0.0
O17 O 0.19013 0.07101 0.05549 0.0
O18 O 0.08654 0.14409 0.05645 0.0
O19 O 0.9893 0.03781 -0.00312 0.0
O20 O 0.09778 0.96984 -0.00836 0.0
O21 O 0.05784 0.12801 0.90527 0.0
H22 H 0.90078 0.12009 0.05742 0.0
H23 H 0.98616 0.27404 0.91572 0.0
O24 O 0.17583 0.06909 0.90504 0.0
O25 O 0.26766 0.17194 0.96996 0.0
O26 O 0.15392 0.2351 0.96548 0.0
C27 C 0.24038 0.23656 0.9642 0.0
H28 H 0.49574 1.01008 0.01426 0.0
H29 H 0.77754 0.20879 0.04048 0.0
Co30 Co 0.55094 0.47236 0.48027 0.0
C31 C 0.51589 0.53396 0.37623 0.0
Co32 Co 0.44112 0.54072 0.47696 0.0
C33 C 0.64699 0.35171 0.45621 0.0
C34 C 0.72745 0.43358 0.50499 0.0
N35 N 0.64594 0.41788 0.47994 0.0
N36 N 0.72564 0.32608 0.46537 0.0
C37 C 0.77696 0.37728 0.49577 0.0
H38 H 0.59095 0.32222 0.43305 0.0
H39 H 0.74858 0.48161 0.52955 0.0
C40 C 0.48083 0.4826 0.58096 0.0
N41 N 0.34334 0.59115 0.47985 0.0
C42 C 0.33147 0.66009 0.4546 0.0
C43 C 0.26573 0.56325 0.51184 0.0
N44 N 0.24968 0.67626 0.47009 0.0
C45 C 0.2082 0.61521 0.50589 0.0
C46 C 0.37633 0.37997 0.47169 0.0
O47 O 0.53918 0.4529 0.55665 0.0
O48 O 0.43155 0.52213 0.55367 0.0
O49 O 0.35423 0.44614 0.47106 0.0
O50 O 0.4614 0.37711 0.47484 0.0
O51 O 0.45406 0.56091 0.40014 0.0
H52 H 0.2521 0.50859 0.53831 0.0
H53 H 0.38127 0.69684 0.42504 0.0
O54 O 0.56323 0.49246 0.4038 0.0
O55 O 0.63891 0.56949 0.48675 0.0
O56 O 0.52754 0.63509 0.48321 0.0
C57 C 0.61301 0.63438 0.48798 0.0
H58 H 0.84378 0.37268 0.51154 0.0
H59 H 0.1415 0.60914 0.52686 0.0
H60 H 0.18462 0.95878 0.32085 0.0
H61 H 0.98098 0.10254 0.32145 0.0
H62 H 0.98545 0.92703 0.45434 0.0
H63 H 0.7835 0.9865 0.43076 0.0
C64 C 0.82459 0.04101 0.40769 0.0
O65 O 0.91678 0.04919 0.41992 0.0
H66 H 0.81496 0.03553 0.36365 0.0
C67 C 0.12718 0.97637 0.34059 0.0
C68 C 0.09147 0.93747 0.39107 0.0
C69 C 0.08564 0.03367 0.31368 0.0
C70 C 1.01373 0.05776 0.34073 0.0
C71 C 0.97903 1.02042 0.39185 0.0
C72 C 1.01446 0.95741 0.41559 0.0
H73 H 0.16626 0.16315 0.62939 0.0
H74 H 0.96469 0.94427 0.66223 0.0
H75 H 1.0415 0.04379 0.49766 0.0
H76 H 0.83543 0.97466 0.52749 0.0
C77 C 0.84413 0.92237 0.55477 0.0
O78 O 0.93759 0.92451 0.5596 0.0
H79 H 0.81203 0.92493 0.59539 0.0
C80 C 0.11863 0.11363 0.61501 0.0
C81 C 0.10989 0.10948 0.55926 0.0
C82 C 0.06658 0.05447 0.65234 0.0
C83 C 1.00501 0.99064 0.63363 0.0
C84 C 0.99589 0.98645 0.57768 0.0
C85 C 0.04833 0.04614 0.54061 0.0
H86 H 0.63618 0.42227 0.80656 0.0
H87 H 0.49377 0.61215 0.81673 0.0
H88 H 0.68199 0.56378 0.93911 0.0
H89 H 0.61928 0.74625 0.84545 0.0
C90 C 0.60763 0.73488 0.89035 0.0
O91 O 0.56824 0.65643 0.90556 0.0
H92 H 0.67682 0.75016 0.90841 0.0
C93 C 0.61985 0.4695 0.82753 0.0
C94 C 0.66176 0.48516 0.87666 0.0
C95 C 0.55959 0.51512 0.80501 0.0
C96 C 0.54175 0.57723 0.83254 0.0
C97 C 0.5876 0.59662 0.87982 0.0
C98 C 0.64829 0.55074 0.90176 0.0
H99 H 0.73185 0.71883 0.15781 0.0
H100 H 0.53047 0.51223 0.12593 0.0
H101 H 0.6879 0.66243 -0.00631 0.0
H102 H 0.46353 0.58739 -0.02036 0.0
C103 C 0.4653 0.53595 0.00913 0.0
O104 O 0.5563 0.53514 0.02102 0.0
H105 H 0.42494 0.5419 0.04636 0.0
C106 C 0.69622 0.68084 0.12922 0.0
C107 C 0.72093 0.69705 0.0734 0.0
C108 C 0.62727 0.61428 0.14835 0.0
C109 C 0.58342 0.56399 0.11158 0.0
C110 C 0.60352 0.58214 0.05589 0.0
C111 C 0.6723 0.64844 0.0368 0.0
C112 C 0.38501 0.31565 -0.0021 0.0
C113 C 0.30743 0.3124 0.96538 0.0
C114 C 0.43886 0.38799 0.00959 0.0
C115 C 0.41856 0.45979 -0.01199 0.0
H116 H 0.40067 0.26199 0.01747 0.0
H117 H 0.49428 0.38743 0.03761 0.0
S118 S 0.22927 0.48313 0.89555 0.0
N119 N 0.21706 0.38678 0.90845 0.0
N120 N 0.31976 0.52302 0.92941 0.0
C121 C 0.34454 0.45725 0.95285 0.0
C122 C 0.28881 0.38353 0.94161 0.0
C123 C 0.49791 0.85774 -0.01842 0.0
C124 C 0.43501 0.88814 0.94788 0.0
C125 C 0.55152 0.80748 0.96308 0.0
C126 C 0.54503 0.78573 0.90995 0.0
H127 H 0.5067 0.87375 0.02258 0.0
H128 H 0.59995 0.78683 -0.00978 0.0
S129 S 0.38724 0.84411 0.80632 0.0
N130 N 0.36698 0.88959 0.85922 0.0
N131 N 0.46643 0.79375 0.82489 0.0
C132 C 0.47964 0.81259 0.87651 0.0
C133 C 0.42505 0.86414 0.89531 0.0
C134 C 0.86231 0.9067 0.04878 0.0
C135 C 0.94041 0.89971 0.01736 0.0
C136 C 0.79212 0.84095 0.06677 0.0
C137 C 0.79625 0.76558 0.05337 0.0
H138 H 0.85565 0.96353 0.06031 0.0
H139 H 0.73367 0.84926 0.09099 0.0
S140 S 0.98408 0.71477 -0.0286 0.0
N141 N 1.01718 0.81098 -0.02654 0.0
N142 N 0.88391 0.68712 0.00652 0.0
C143 C 0.87315 0.75747 0.02153 0.0
C144 C 0.94569 0.82451 0.00386 0.0
C145 C 0.86071 0.39555 0.93028 0.0
C146 C 0.81583 0.31653 0.94561 0.0
C147 C 0.81036 0.45119 0.90952 0.0
C148 C 0.7141 0.42886 0.9026 0.0
H149 H 0.93469 0.41448 0.93526 0.0
H150 H 0.84697 0.5115 0.89794 0.0
S151 S 0.56511 0.22902 0.93516 0.0
N152 N 0.67022 0.21901 0.95179 0.0
N153 N 0.5763 0.32276 0.91227 0.0
C154 C 0.66894 0.35003 0.91749 0.0
C155 C 0.71963 0.29404 0.9391 0.0
C156 C 0.6473 0.77821 0.49812 0.0
C157 C 0.6789 0.7076 0.49932 0.0
C158 C 0.70283 0.84644 0.51474 0.0
C159 C 0.79302 0.84809 0.53246 0.0
H160 H 0.57774 0.78056 0.4858 0.0
H161 H 0.67358 0.898 0.51525 0.0
S162 S 0.9099 0.67886 0.54313 0.0
N163 N 0.80738 0.64351 0.51921 0.0
N164 N 0.91187 0.77204 0.55057 0.0
C165 C 0.82664 0.77823 0.53315 0.0
C166 C 0.76977 0.70823 0.51617 0.0
C167 C 0.82023 0.25788 0.41253 0.0
C168 C 0.74679 0.25483 0.45003 0.0
C169 C 0.84271 0.18844 0.398 0.0
C170 C 0.79355 0.11388 0.4214 0.0
H171 H 0.86021 0.31433 0.39447 0.0
H172 H 0.90015 0.19304 0.36906 0.0
S173 S 0.59724 0.07604 0.52332 0.0
N174 N 0.62568 0.17305 0.51076 0.0
N175 N 0.66828 0.04216 0.48421 0.0
C176 C 0.71964 0.11059 0.45888 0.0
C177 C 0.69625 0.18127 0.47311 0.0
C178 C 0.21138 0.31315 0.49437 0.0
C179 C 0.30212 0.30739 0.47897 0.0
C180 C 0.14539 0.24668 0.51595 0.0
C181 C 0.16725 0.17224 0.52166 0.0
H182 H 0.19308 0.37002 0.49395 0.0
H183 H 0.0792 0.25431 0.53177 0.0
S184 S 0.38603 0.12235 0.47681 0.0
N185 N 0.40467 0.21903 0.46314 0.0
N186 N 0.27901 0.09366 0.50332 0.0
C187 C 0.25345 0.16406 0.50115 0.0
C188 C 0.32137 0.23187 0.47972 0.0
C189 C 0.11515 0.73381 0.44675 0.0
C190 C 0.21172 0.74321 0.45212 0.0
C191 C 0.07613 0.79774 0.42918 0.0
C192 C 0.13253 0.87315 0.41595 0.0
H193 H 0.06956 0.67614 0.45492 0.0
H194 H 1.0018 0.78754 0.42409 0.0
S195 S 0.388 0.93072 0.42779 0.0
N196 N 0.36178 0.83502 0.44677 0.0
N197 N 0.28868 0.95515 0.41241 0.0
C198 C 0.22883 0.88394 0.42245 0.0
C199 C 0.26845 0.81893 0.44072 0.0
C200 C 0.1362 1.01955 0.16551 0.0
C201 C 0.13689 0.09542 0.14089 0.0
C202 C 0.12127 1.00133 0.22133 0.0
C203 C 0.10907 0.05882 0.2552 0.0
H204 H 0.1428 0.97261 0.14116 0.0
H205 H 0.1159 0.94058 0.23761 0.0
S206 S 0.11543 0.2692 0.21035 0.0
N207 N 0.12866 0.22983 0.15351 0.0
N208 N 0.1064 0.19704 0.25996 0.0
C209 C 0.11357 0.13619 0.23117 0.0
C210 C 0.12624 0.15417 0.17365 0.0
C211 C 1.01604 0.08356 0.79823 0.0
C212 C 0.10285 0.08626 0.82154 0.0
C213 C 1.00365 0.07032 0.74369 0.0
C214 C 0.07802 0.06056 0.71074 0.0
H215 H 0.95699 0.09077 0.82241 0.0
H216 H 0.93617 0.06935 0.72686 0.0
S217 S 0.31898 0.06318 0.75153 0.0
N218 N 0.26429 0.07795 0.8071 0.0
N219 N 0.24068 0.0542 0.70447 0.0
C220 C 0.16496 0.06323 0.73333 0.0
C221 C 0.17748 0.07579 0.78882 0.0
C222 C 0.50613 0.56141 0.65831 0.0
C223 C 0.48518 0.48678 0.6395 0.0
C224 C 0.52585 0.56959 0.71257 0.0
C225 C 0.52336 0.50321 0.75025 0.0
H226 H 0.51273 0.61418 0.63019 0.0
H227 H 0.54799 0.62867 0.72422 0.0
S228 S 0.45466 0.29399 0.72209 0.0
N229 N 0.45373 0.34514 0.66235 0.0
N230 N 0.48437 0.35959 0.7659 0.0
C231 C 0.49529 0.42775 0.73244 0.0
C232 C 0.47789 0.41972 0.67661 0.0
C233 C 0.57846 0.50359 0.28864 0.0
C234 C 0.53858 0.55445 0.31753 0.0
C235 C 0.60756 0.52377 0.23399 0.0
C236 C 0.59969 0.59623 0.20662 0.0
H237 H 0.58729 0.44764 0.30842 0.0
H238 H 0.63716 0.48268 0.21304 0.0
S239 S 0.50094 0.75053 0.26351 0.0
N240 N 0.49247 0.68044 0.31447 0.0
N241 N 0.54881 0.71873 0.21165 0.0
C242 C 0.56025 0.64778 0.23481 0.0
C243 C 0.52905 0.6267 0.2903 0.0
loop_
_geom_bond_atom_site_label_1
_geom_bond_atom_site_label_2
_geom_bond_distance
_geom_bond_site_symmetry_2
_ccdc_geom_bond_type
Co0 N5 2.057 1_554 S
Co0 O17 2.021 . S
Co0 O20 2.062 1_455 S
Co0 O24 2.117 1_564 S
Co0 O25 2.020 1_565 S
C1 O21 1.259 1_455 S
C1 O24 1.258 . S
Co2 N11 2.057 1_556 S
Co2 O18 2.117 1_556 S
Co2 O19 2.020 1_546 S
Co2 O21 2.021 . S
Co2 O26 2.062 1_655 S
C3 N5 1.316 1_554 S
C3 N6 1.347 . S
C3 H8 0.931 . S
C4 N5 1.375 . S
C4 C7 1.350 . S
C4 H9 0.930 . S
N5 Co0 2.057 1_556 S
N5 C3 1.316 1_556 S
N5 C4 1.375 . S
N6 C3 1.347 . S
N6 C7 1.373 1_554 S
C7 C4 1.350 . S
C7 N6 1.373 1_556 S
C7 H28 0.931 . S
H8 C3 0.931 . S
H9 C4 0.930 . S
C10 O17 1.259 1_545 S
C10 O18 1.258 1_455 S
N11 Co2 2.057 1_554 S
N11 C12 1.316 1_554 S
N11 C13 1.375 . S
C12 N11 1.316 1_556 S
C12 N14 1.347 1_556 S
C12 H23 0.931 . S
C13 N11 1.375 . S
C13 C15 1.350 . S
C13 H22 0.930 . S
N14 C12 1.347 1_554 S
N14 C15 1.373 . S
C15 C13 1.350 . S
C15 N14 1.373 . S
C15 H29 0.931 . S
C16 O19 1.256 . S
C16 O20 1.255 . S
O17 Co0 2.021 . S
O17 C10 1.259 1_565 S
O18 Co2 2.117 1_554 S
O18 C10 1.258 1_655 S
O19 Co2 2.020 1_564 S
O19 C16 1.256 . S
O20 Co0 2.062 1_655 S
O20 C16 1.255 . S
O21 C1 1.259 1_655 S
O21 Co2 2.021 . S
H22 C13 0.930 . S
H23 C12 0.931 . S
O24 Co0 2.117 1_546 S
O24 C1 1.258 . S
O25 Co0 2.020 1_545 S
O25 C27 1.255 1_554 S
O26 Co2 2.062 1_455 S
O26 C27 1.256 . S
C27 O25 1.255 1_556 S
C27 O26 1.256 . S
H28 C7 0.931 . S
H29 C15 0.931 . S
Co30 N35 2.057 . S
Co30 O47 2.021 . S
Co30 O50 2.062 . S
Co30 O54 2.117 . S
Co30 O55 2.020 . S
C31 O51 1.259 . S
C31 O54 1.258 . S
Co32 N41 2.057 . S
Co32 O48 2.117 . S
Co32 O49 2.020 . S
Co32 O51 2.021 . S
Co32 O56 2.062 . S
C33 N35 1.316 . S
C33 N36 1.347 . S
C33 H38 0.931 . S
C34 N35 1.375 . S
C34 C37 1.350 . S
C34 H39 0.930 . S
N35 Co30 2.057 . S
N35 C33 1.316 . S
N35 C34 1.375 . S
N36 C33 1.347 . S
N36 C37 1.373 . S
C37 C34 1.350 . S
C37 N36 1.373 . S
C37 H58 0.931 . S
H38 C33 0.931 . S
H39 C34 0.930 . S
C40 O47 1.259 . S
C40 O48 1.258 . S
N41 Co32 2.057 . S
N41 C42 1.316 . S
N41 C43 1.375 . S
C42 N41 1.316 . S
C42 N44 1.347 . S
C42 H53 0.931 . S
C43 N41 1.375 . S
C43 C45 1.350 . S
C43 H52 0.930 . S
N44 C42 1.347 . S
N44 C45 1.373 . S
C45 C43 1.350 . S
C45 N44 1.373 . S
C45 H59 0.931 . S
C46 O49 1.256 . S
C46 O50 1.255 . S
O47 Co30 2.021 . S
O47 C40 1.259 . S
O48 Co32 2.117 . S
O48 C40 1.258 . S
O49 Co32 2.020 . S
O49 C46 1.256 . S
O50 Co30 2.062 . S
O50 C46 1.255 . S
O51 C31 1.259 . S
O51 Co32 2.021 . S
H52 C43 0.930 . S
H53 C42 0.931 . S
O54 Co30 2.117 . S
O54 C31 1.258 . S
O55 Co30 2.020 . S
O55 C57 1.256 . S
O56 Co32 2.062 . S
O56 C57 1.255 . S
C57 O55 1.256 . S
C57 O56 1.255 . S
H58 C37 0.931 . S
H59 C45 0.931 . S
H60 C67 0.929 . S
H61 C70 0.930 . S
H62 C72 0.929 . S
H63 C64 0.969 . S
C64 H63 0.969 . S
C64 O65 1.550 . S
C64 H66 0.973 . S
O65 C64 1.550 . S
O65 C71 1.412 . S
H66 C64 0.973 . S
C67 H60 0.929 . S
C67 C68 1.400 . S
C67 C69 1.364 . S
C68 C67 1.400 . S
C68 C72 1.377 . S
C69 C67 1.364 . S
C69 C70 1.374 1_465 S
C70 H61 0.930 . S
C70 C69 1.374 1_645 S
C70 C71 1.383 . S
C71 O65 1.412 . S
C71 C70 1.383 . S
C71 C72 1.394 1_645 S
C72 H62 0.929 . S
C72 C68 1.377 . S
C72 C71 1.394 1_465 S
H73 C80 0.929 . S
H74 C83 0.930 1_565 S
H75 C85 0.929 . S
H76 C77 0.969 . S
C77 H76 0.969 . S
C77 O78 1.550 . S
C77 H79 0.973 . S
O78 C77 1.550 . S
O78 C84 1.412 1_565 S
H79 C77 0.973 . S
C80 H73 0.929 . S
C80 C81 1.400 . S
C80 C82 1.364 . S
C81 C80 1.400 . S
C81 C85 1.377 . S
C82 C80 1.364 . S
C82 C83 1.374 1_455 S
C83 H74 0.930 1_545 S
C83 C82 1.374 1_655 S
C83 C84 1.383 . S
C84 O78 1.412 1_545 S
C84 C83 1.383 . S
C84 C85 1.394 1_655 S
C85 H75 0.929 . S
C85 C81 1.377 . S
C85 C84 1.394 1_455 S
H86 C93 0.929 . S
H87 C96 0.930 . S
H88 C98 0.929 1_554 S
H89 C90 0.969 . S
C90 H89 0.969 . S
C90 O91 1.556 . S
C90 H92 0.973 . S
O91 C90 1.556 . S
O91 C97 1.426 . S
H92 C90 0.973 . S
C93 H86 0.929 . S
C93 C94 1.400 . S
C93 C95 1.364 . S
C94 C93 1.400 . S
C94 C98 1.377 . S
C95 C93 1.364 . S
C95 C96 1.374 . S
C96 H87 0.930 . S
C96 C95 1.374 . S
C96 C97 1.383 . S
C97 O91 1.426 . S
C97 C96 1.383 . S
C97 C98 1.394 . S
C98 H88 0.929 1_556 S
C98 C94 1.377 . S
C98 C97 1.394 . S
H99 C106 0.929 . S
H100 C109 0.930 . S
H101 C111 0.929 1_556 S
H102 C103 0.969 . S
C103 H102 0.969 . S
C103 O104 1.550 . S
C103 H105 0.973 . S
O104 C103 1.550 . S
O104 C110 1.412 . S
H105 C103 0.973 . S
C106 H99 0.929 . S
C106 C107 1.400 . S
C106 C108 1.364 . S
C107 C106 1.400 . S
C107 C111 1.377 . S
C108 C106 1.364 . S
C108 C109 1.374 . S
C109 H100 0.930 . S
C109 C108 1.374 . S
C109 C110 1.383 . S
C110 O104 1.412 . S
C110 C109 1.383 . S
C110 C111 1.394 . S
C111 H101 0.929 1_554 S
C111 C107 1.377 . S
C111 C110 1.394 . S
C112 C113 1.369 1_554 S
C112 C114 1.419 . S
C112 H116 0.930 . S
C113 C112 1.369 1_556 S
C113 C122 1.429 . S
C114 C112 1.419 . S
C114 C115 1.363 . S
C114 H117 0.929 . S
C115 C114 1.363 . S
C115 C121 1.428 1_554 S
H116 C112 0.930 . S
H117 C114 0.929 . S
S118 N119 1.613 . S
S118 N120 1.610 . S
N119 S118 1.613 . S
N119 C122 1.350 . S
N120 S118 1.610 . S
N120 C121 1.351 . S
C121 C115 1.428 1_556 S
C121 N120 1.351 . S
C121 C122 1.434 . S
C122 C113 1.429 . S
C122 N119 1.350 . S
C122 C121 1.434 . S
C123 C124 1.369 . S
C123 C125 1.419 . S
C123 H127 0.930 . S
C124 C123 1.369 . S
C124 C133 1.431 . S
C125 C123 1.419 . S
C125 C126 1.363 . S
C125 H128 0.929 . S
C126 C125 1.363 . S
C126 C132 1.428 1_554 S
H127 C123 0.930 . S
H128 C125 0.929 . S
S129 N130 1.613 . S
S129 N131 1.610 . S
N130 S129 1.613 . S
N130 C133 1.349 1_556 S
N131 S129 1.610 . S
N131 C132 1.351 . S
C132 C126 1.428 1_556 S
C132 N131 1.351 . S
C132 C133 1.433 1_556 S
C133 C124 1.431 . S
C133 N130 1.349 1_554 S
C133 C132 1.433 1_554 S
C134 C135 1.369 . S
C134 C136 1.419 . S
C134 H138 0.930 1_554 S
C135 C134 1.369 . S
C135 C144 1.429 . S
C136 C134 1.419 . S
C136 C137 1.363 . S
C136 H139 0.929 . S
C137 C136 1.363 . S
C137 C143 1.428 . S
H138 C134 0.930 1_556 S
H139 C136 0.929 . S
S140 N141 1.613 . S
S140 N142 1.610 . S
N141 S140 1.613 . S
N141 C144 1.350 . S
N142 S140 1.610 . S
N142 C143 1.351 . S
C143 C137 1.428 . S
C143 N142 1.351 . S
C143 C144 1.434 . S
C144 C135 1.429 . S
C144 N141 1.350 . S
C144 C143 1.434 . S
C145 C146 1.369 . S
C145 C147 1.419 . S
C145 H149 0.930 . S
C146 C145 1.369 . S
C146 C155 1.429 . S
C147 C145 1.419 . S
C147 C148 1.363 . S
C147 H150 0.929 . S
C148 C147 1.363 . S
C148 C154 1.428 . S
H149 C145 0.930 . S
H150 C147 0.929 . S
S151 N152 1.613 . S
S151 N153 1.610 . S
N152 S151 1.613 . S
N152 C155 1.350 . S
N153 S151 1.610 . S
N153 C154 1.351 . S
C154 C148 1.428 . S
C154 N153 1.351 . S
C154 C155 1.434 . S
C155 C146 1.429 . S
C155 N152 1.350 . S
C155 C154 1.434 . S
C156 C157 1.369 . S
C156 C158 1.419 . S
C156 H160 0.930 . S
C157 C156 1.369 . S
C157 C166 1.429 . S
C158 C156 1.419 . S
C158 C159 1.363 . S
C158 H161 0.929 . S
C159 C158 1.363 . S
C159 C165 1.428 . S
H160 C156 0.930 . S
H161 C158 0.929 . S
S162 N163 1.613 . S
S162 N164 1.610 . S
N163 S162 1.613 . S
N163 C166 1.350 . S
N164 S162 1.610 . S
N164 C165 1.351 . S
C165 C159 1.428 . S
C165 N164 1.351 . S
C165 C166 1.434 . S
C166 C157 1.429 . S
C166 N163 1.350 . S
C166 C165 1.434 . S
C167 C168 1.369 . S
C167 C169 1.419 . S
C167 H171 0.930 . S
C168 C167 1.369 . S
C168 C177 1.429 . S
C169 C167 1.419 . S
C169 C170 1.363 . S
C169 H172 0.929 . S
C170 C169 1.363 . S
C170 C176 1.428 . S
H171 C167 0.930 . S
H172 C169 0.929 . S
S173 N174 1.613 . S
S173 N175 1.610 . S
N174 S173 1.613 . S
N174 C177 1.350 . S
N175 S173 1.610 . S
N175 C176 1.351 . S
C176 C170 1.428 . S
C176 N175 1.351 . S
C176 C177 1.434 . S
C177 C168 1.429 . S
C177 N174 1.350 . S
C177 C176 1.434 . S
C178 C179 1.369 . S
C178 C180 1.419 . S
C178 H182 0.930 . S
C179 C178 1.369 . S
C179 C188 1.429 . S
C180 C178 1.419 . S
C180 C181 1.363 . S
C180 H183 0.929 . S
C181 C180 1.363 . S
C181 C187 1.428 . S
H182 C178 0.930 . S
H183 C180 0.929 . S
S184 N185 1.613 . S
S184 N186 1.610 . S
N185 S184 1.613 . S
N185 C188 1.350 . S
N186 S184 1.610 . S
N186 C187 1.351 . S
C187 C181 1.428 . S
C187 N186 1.351 . S
C187 C188 1.434 . S
C188 C179 1.429 . S
C188 N185 1.350 . S
C188 C187 1.434 . S
C189 C190 1.369 . S
C189 C191 1.419 . S
C189 H193 0.930 . S
C190 C189 1.369 . S
C190 C199 1.429 . S
C191 C189 1.419 . S
C191 C192 1.363 . S
C191 H194 0.929 . S
C192 C191 1.363 . S
C192 C198 1.428 . S
H193 C189 0.930 . S
H194 C191 0.929 . S
S195 N196 1.613 . S
S195 N197 1.610 . S
N196 S195 1.613 . S
N196 C199 1.350 . S
N197 S195 1.610 . S
N197 C198 1.351 . S
C198 C192 1.428 . S
C198 N197 1.351 . S
C198 C199 1.434 . S
C199 C190 1.429 . S
C199 N196 1.350 . S
C199 C198 1.434 . S
C200 C201 1.357 1_565 S
C200 C202 1.419 . S
C200 H204 0.930 . S
C201 C200 1.357 1_545 S
C201 C210 1.442 . S
C202 C200 1.419 . S
C202 C203 1.363 . S
C202 H205 0.929 . S
C203 C202 1.363 . S
C203 C209 1.427 1_465 S
H204 C200 0.930 . S
H205 C202 0.929 . S
S206 N207 1.613 . S
S206 N208 1.610 . S
N207 S206 1.613 . S
N207 C210 1.350 1_655 S
N208 S206 1.610 . S
N208 C209 1.352 . S
C209 C203 1.427 1_645 S
C209 N208 1.352 . S
C209 C210 1.434 1_655 S
C210 C201 1.442 . S
C210 N207 1.350 1_455 S
C210 C209 1.434 1_455 S
C211 C212 1.369 1_655 S
C211 C213 1.419 . S
C211 H215 0.930 1_545 S
C212 C211 1.369 1_455 S
C212 C221 1.429 . S
C213 C211 1.419 . S
C213 C214 1.363 1_655 S
C213 H216 0.929 1_545 S
C214 C213 1.363 1_455 S
C214 C220 1.428 . S
H215 C211 0.930 1_565 S
H216 C213 0.929 1_565 S
S217 N218 1.613 . S
S217 N219 1.610 . S
N218 S217 1.613 . S
N218 C221 1.350 . S
N219 S217 1.610 . S
N219 C220 1.351 . S
C220 C214 1.428 . S
C220 N219 1.351 . S
C220 C221 1.434 . S
C221 C212 1.429 . S
C221 N218 1.350 . S
C221 C220 1.434 . S
C222 C223 1.369 . S
C222 C224 1.419 . S
C222 H226 0.930 . S
C223 C222 1.369 . S
C223 C232 1.429 . S
C224 C222 1.419 . S
C224 C225 1.363 . S
C224 H227 0.929 . S
C225 C224 1.363 . S
C225 C231 1.428 . S
H226 C222 0.930 . S
H227 C224 0.929 . S
S228 N229 1.613 . S
S228 N230 1.610 . S
N229 S228 1.613 . S
N229 C232 1.350 . S
N230 S228 1.610 . S
N230 C231 1.351 . S
C231 C225 1.428 . S
C231 N230 1.351 . S
C231 C232 1.434 . S
C232 C223 1.429 . S
C232 N229 1.350 . S
C232 C231 1.434 . S
C233 C234 1.369 . S
C233 C235 1.419 . S
C233 H237 0.930 . S
C234 C233 1.369 . S
C234 C243 1.429 . S
C235 C233 1.419 . S
C235 C236 1.363 . S
C235 H238 0.929 . S
C236 C235 1.363 . S
C236 C242 1.428 . S
H237 C233 0.930 . S
H238 C235 0.929 . S
S239 N240 1.613 . S
S239 N241 1.610 . S
N240 S239 1.613 . S
N240 C243 1.350 . S
N241 S239 1.610 . S
N241 C242 1.351 . S
C242 C236 1.428 . S
C242 N241 1.351 . S
C242 C243 1.434 . S
C243 C234 1.429 . S
C243 N240 1.350 . S
C243 C242 1.434 . S
C115 C103 1.356 . S
C113 C27 1.488 . S
C124 N6 1.423 . S
C126 C90 1.358 1_554 S
C135 C16 1.504 . S
C137 C107 1.482 . S
C146 N14 1.443 1_556 S
C148 C94 1.459 . S
C157 C57 1.488 . S
C159 C77 1.347 . S
C168 N36 1.426 . S
C170 C64 1.366 . S
C181 C81 1.484 . S
C179 C46 1.503 . S
C192 C68 1.458 . S
C190 N44 1.447 . S
C201 C10 1.471 . S
C203 C69 1.474 . S
C212 C1 1.557 . S
C214 C82 1.558 . S
C225 C95 1.473 . S
C223 C40 1.472 . S
C234 C31 1.557 . S
C236 C108 1.558 . S
