# Generated by pormake.
# Topology tsx, (6,3)-cn, num edge types: 1
# Building blocks:
#     Node 0, Type 0, BuildingBlock: VOLQOD_clean_sbu_1, # of connection points: 6
#     Node 1, Type 0, BuildingBlock: VOLQOD_clean_sbu_1, # of connection points: 6
#     Node 2, Type 1, BuildingBlock: CUQRIR_clean_linker_1, # of connection points: 3
#     Node 3, Type 1, BuildingBlock: CUQRIR_clean_linker_1, # of connection points: 3
#     Node 4, Type 1, BuildingBlock: CUQRIR_clean_linker_1, # of connection points: 3
#     Node 5, Type 1, BuildingBlock: CUQRIR_clean_linker_1, # of connection points: 3
#     Edge 6, Type (0, 1), BuildingBlock: OJICUG_clean_linker_0, # of connection points: 2
#     Edge 7, Type (0, 1), BuildingBlock: OJICUG_clean_linker_0, # of connection points: 2
#     Edge 8, Type (0, 1), BuildingBlock: OJICUG_clean_linker_0, # of connection points: 2
#     Edge 9, Type (0, 1), BuildingBlock: OJICUG_clean_linker_0, # of connection points: 2
#     Edge 10, Type (0, 1), BuildingBlock: OJICUG_clean_linker_0, # of connection points: 2
#     Edge 11, Type (0, 1), BuildingBlock: OJICUG_clean_linker_0, # of connection points: 2
#     Edge 12, Type (0, 1), BuildingBlock: OJICUG_clean_linker_0, # of connection points: 2
#     Edge 13, Type (0, 1), BuildingBlock: OJICUG_clean_linker_0, # of connection points: 2
#     Edge 14, Type (0, 1), BuildingBlock: OJICUG_clean_linker_0, # of connection points: 2
#     Edge 15, Type (0, 1), BuildingBlock: OJICUG_clean_linker_0, # of connection points: 2
#     Edge 16, Type (0, 1), BuildingBlock: OJICUG_clean_linker_0, # of connection points: 2
#     Edge 17, Type (0, 1), BuildingBlock: OJICUG_clean_linker_0, # of connection points: 2
# Relax obj value: 0.079
# Max RMSD: 0.140
# Mean RMSD: 0.123
data_MOF--net-tsx--node1-VOLQOD_clean_sbu_1--node2-CUQRIR_clean_linker_1--edge1-OJICUG_clean_linker_0
_symmetry_space_group_name_H-M    P1
_symmetry_Int_Tables_number       1
_symmetry_cell_setting            triclinic
loop_
_symmetry_equiv_pos_as_xyz
'x, y, z'
_cell_length_a     13.708748
_cell_length_b     14.267843
_cell_length_c     26.251554
_cell_angle_alpha  78.39563
_cell_angle_beta   90.239662
_cell_angle_gamma 90.309851
loop_
_atom_site_label
_atom_site_type_symbol
_atom_site_fract_x
_atom_site_fract_y
_atom_site_fract_z
_atom_type_partial_charge
O0 O 0.09032 0.98211 0.09538 0.0
Zn1 Zn 0.11096 0.02682 0.01871 0.0
O2 O 0.98592 0.05796 0.98637 0.0
Zn3 Zn 0.94567 0.96557 0.94633 0.0
Zn4 Zn 0.8874 0.0721 0.03558 0.0
Zn5 Zn 1.00444 0.17799 0.94017 0.0
O6 O 0.93601 0.03189 0.87009 0.0
O7 O 0.04087 0.1523 0.87016 0.0
O8 O 0.18002 0.92904 0.98436 0.0
O9 O 0.05457 0.87289 0.94506 0.0
O10 O 0.82522 0.8893 0.97846 0.0
O11 O 0.79514 0.96139 0.04428 0.0
O12 O 0.80313 0.18994 0.00668 0.0
O13 O 0.19126 0.14634 0.01819 0.0
O14 O 0.87997 0.24847 0.93241 0.0
O15 O 0.09971 0.25931 0.97106 0.0
C16 C 0.02962 0.01393 0.12447 0.0
C17 C 0.99403 0.09659 0.84629 0.0
C18 C 0.77658 0.89601 0.01908 0.0
C19 C 0.14432 0.8708 0.95791 0.0
C20 C 0.8082 0.24847 0.96286 0.0
C21 C 0.17148 0.23437 0.00158 0.0
O22 O 0.95357 0.06119 0.10616 0.0
O23 O 0.63952 0.42723 0.61525 0.0
Zn24 Zn 0.68711 0.44889 0.54106 0.0
O25 O 0.57992 0.48979 0.49435 0.0
Zn26 Zn 0.54868 0.39259 0.45646 0.0
Zn27 Zn 0.46972 0.50759 0.53457 0.0
Zn28 Zn 0.60758 0.61169 0.45015 0.0
O29 O 0.54594 0.45488 0.38063 0.0
O30 O 0.63328 0.58908 0.37831 0.0
O31 O 0.76066 0.3392 0.52082 0.0
O32 O 0.66013 0.30176 0.46132 0.0
O33 O 0.42823 0.31483 0.48668 0.0
O34 O 0.39587 0.38412 0.55342 0.0
O35 O 0.38037 0.6108 0.49423 0.0
O36 O 0.78142 0.55636 0.53839 0.0
O37 O 0.48694 0.69457 0.43972 0.0
O38 O 0.71872 0.67814 0.48148 0.0
C39 C 0.58322 0.48657 0.63088 0.0
C40 C 0.59329 0.52721 0.35578 0.0
C41 C 0.3827 0.31671 0.5289 0.0
C42 C 0.73934 0.28918 0.48713 0.0
C43 C 0.4006 0.68165 0.45763 0.0
C44 C 0.7827 0.64384 0.51568 0.0
O45 O 0.52125 0.53669 0.60089 0.0
C46 C 0.053 0.98498 0.41781 0.0
N47 N 0.10002 0.95106 0.38009 0.0
N48 N 0.02106 0.0747 0.40013 0.0
C49 C 0.01995 0.92539 0.46807 0.0
C50 C 0.04806 0.09413 0.34984 0.0
N51 N 0.09583 0.01895 0.33721 0.0
C52 C 0.01485 0.18088 0.31131 0.0
H53 H 0.06942 0.86545 0.48273 0.0
H54 H 0.94771 0.89496 0.4612 0.0
H55 H 0.01179 0.97088 0.49738 0.0
H56 H 0.06336 0.19504 0.27684 0.0
H57 H 0.01354 0.24435 0.32977 0.0
H58 H 0.9396 0.16828 0.29836 0.0
C59 C 0.11788 0.92531 0.59562 0.0
N60 N 0.13492 1.00039 0.61907 0.0
N61 N 0.0327 0.88054 0.61222 0.0
C62 C 0.1915 0.89003 0.56142 0.0
C63 C 1.00056 0.9291 0.64798 0.0
N64 N 0.06182 1.0018 0.6521 0.0
C65 C 0.91086 0.90224 0.68077 0.0
H66 H 0.19483 0.93809 0.52272 0.0
H67 H 0.1755 0.81645 0.55631 0.0
H68 H 0.26513 0.89145 0.57899 0.0
H69 H 0.8839 0.82984 0.67824 0.0
H70 H 0.85264 0.95519 0.66717 0.0
H71 H 0.92676 0.90379 0.72208 0.0
C72 C 0.42948 0.53228 0.90257 0.0
N73 N 0.49918 0.49905 0.87478 0.0
N74 N 0.38933 0.61351 0.8752 0.0
C75 C 0.39785 0.48247 0.95524 0.0
C76 C 0.43555 0.62752 0.82897 0.0
N77 N 0.50253 0.55787 0.82866 0.0
C78 C 0.40868 0.70477 0.78312 0.0
H79 H 0.37369 0.4092 0.95347 0.0
H80 H 0.33512 0.51873 0.96822 0.0
H81 H 0.45971 0.47801 0.98301 0.0
H82 H 0.46637 0.76067 0.77717 0.0
H83 H 0.33834 0.73871 0.78949 0.0
H84 H 0.40276 0.67494 0.74733 0.0
C85 C 0.4134 0.59271 0.07503 0.0
N86 N 0.48432 0.61954 0.105 0.0
N87 N 0.37261 0.50783 0.0982 0.0
C88 C 0.38294 0.65338 0.02433 0.0
C89 C 0.42029 0.48583 0.14421 0.0
N90 N 0.48897 0.55265 0.14805 0.0
C91 C 0.39501 0.40125 0.18653 0.0
H92 H 0.30856 0.63534 0.0131 0.0
H93 H 0.43671 0.64525 -0.00582 0.0
H94 H 0.38437 0.72983 0.02741 0.0
H95 H 0.44962 0.34402 0.18691 0.0
H96 H 0.32169 0.37236 0.18003 0.0
H97 H 0.39629 0.42182 0.22511 0.0
C98 C 0.31678 0.28656 0.04697 0.0
C99 C 0.22475 0.30744 0.02394 0.0
H100 H 0.43653 0.3359 0.0873 0.0
C101 C 0.1802 0.39496 0.0271 0.0
H102 H 0.35259 0.21955 0.04578 0.0
C103 C 0.227 0.46014 0.0527 0.0
C104 C 0.32049 0.44033 0.07393 0.0
H105 H 0.10811 0.41205 0.01096 0.0
H106 H 0.19076 0.5261 0.05553 0.0
C107 C 0.36436 0.3526 0.07122 0.0
C108 C 0.30576 0.82793 0.92467 0.0
C109 C 0.20836 0.80351 0.9378 0.0
H110 H 0.43927 0.78597 0.89303 0.0
C111 C 0.17021 0.71714 0.92777 0.0
H112 H 0.33652 0.89477 0.93099 0.0
C113 C 0.22909 0.65523 0.90643 0.0
C114 C 0.32656 0.67923 0.89413 0.0
H115 H 0.09506 0.69698 0.93697 0.0
H116 H 0.19923 0.58814 0.89999 0.0
C117 C 0.36403 0.76667 0.90245 0.0
C118 C 0.62681 0.84848 0.07276 0.0
C119 C 0.69957 0.82504 0.03968 0.0
H120 H 0.49967 0.80153 0.1186 0.0
C121 C 0.70082 0.73211 0.02944 0.0
H122 H 0.62316 0.91973 0.08106 0.0
C123 C 0.63197 0.6639 0.05259 0.0
C124 C 0.56021 0.68754 0.08587 0.0
H125 H 0.75592 0.71164 0.00436 0.0
H126 H 0.63354 0.59274 0.04407 0.0
C127 C 0.55701 0.78073 0.09501 0.0
C128 C 0.63017 0.28257 0.94905 0.0
C129 C 0.7274 0.31432 0.94413 0.0
H130 H 0.48144 0.3136 0.92691 0.0
C131 C 0.74819 0.40586 0.91479 0.0
H132 H 0.6127 0.21104 0.96998 0.0
C133 C 0.67311 0.46527 0.89151 0.0
C134 C 0.57591 0.43378 0.89613 0.0
H135 H 0.82279 0.43145 0.9098 0.0
H136 H 0.6907 0.53646 0.87019 0.0
C137 C 0.55515 0.34127 0.92446 0.0
C138 C 0.94158 0.67216 0.55772 0.0
C139 C 0.85204 0.70769 0.53549 0.0
H140 H 0.06916 0.69918 0.60057 0.0
C141 C 0.8235 0.80034 0.53908 0.0
H142 H 0.96429 0.60004 0.55649 0.0
C143 C 0.88282 0.85596 0.56475 0.0
C144 C 0.97293 0.82112 0.58626 0.0
H145 H 0.75404 0.8288 0.52346 0.0
H146 H 0.85931 0.92731 0.56709 0.0
C147 C 1.00163 0.72853 0.58284 0.0
C148 C 0.91285 0.24444 0.47545 0.0
C149 C 0.81268 0.22504 0.47153 0.0
H150 H 0.05804 0.21322 0.45321 0.0
C151 C 0.78298 0.15257 0.4455 0.0
H152 H 0.93783 0.30082 0.49454 0.0
C153 C 0.85178 0.10255 0.42255 0.0
C154 C 0.95098 0.12503 0.42466 0.0
H155 H 0.70634 0.13625 0.44173 0.0
H156 H 0.82785 0.04759 0.40217 0.0
C157 C 0.98145 0.19528 0.45163 0.0
C158 C 0.32005 0.19998 0.60604 0.0
C159 C 0.3176 0.23667 0.55209 0.0
H160 H 0.26773 0.09323 0.66945 0.0
C161 C 0.25293 0.19619 0.52109 0.0
H162 H 0.36995 0.22975 0.63078 0.0
C163 C 0.19131 0.12102 0.54373 0.0
C164 C 0.19579 0.08177 0.59742 0.0
H165 H 0.24875 0.2238 0.47956 0.0
H166 H 0.14001 0.09292 0.51916 0.0
C167 C 0.26077 0.12234 0.62839 0.0
C168 C 0.34594 0.84013 0.40538 0.0
C169 C 0.32231 0.74823 0.43365 0.0
H170 H 0.29232 0.97665 0.36576 0.0
C171 C 0.22359 0.72004 0.43733 0.0
H172 H 0.42119 0.86388 0.40119 0.0
C173 C 0.15025 0.78372 0.4151 0.0
C174 C 0.17383 0.8778 0.39035 0.0
H175 H 0.20291 0.64906 0.45776 0.0
H176 H 0.07462 0.76146 0.41983 0.0
C177 C 0.27246 0.9043 0.38431 0.0
C178 C 0.97492 0.97927 0.21662 0.0
C179 C 0.05081 1.00021 0.18052 0.0
H180 H 0.93255 0.96425 0.2963 0.0
C181 C 0.14596 0.01408 0.19818 0.0
H182 H 0.90128 0.96766 0.20397 0.0
C183 C 0.16325 0.01408 0.25086 0.0
C184 C 0.08616 0.99733 0.28636 0.0
H185 H 0.20559 0.03066 0.17084 0.0
H186 H 0.23513 0.03182 0.26344 0.0
C187 C 0.99289 0.97629 0.26921 0.0
C188 C 0.95947 0.12658 0.7509 0.0
C189 C 0.02194 0.09272 0.7929 0.0
H190 H 0.92722 0.12752 0.67059 0.0
C191 C 0.10669 0.04315 0.78493 0.0
H192 H 0.89316 0.16407 0.75661 0.0
C193 C 0.12506 0.02133 0.73641 0.0
C194 C 0.06049 0.0509 0.69478 0.0
H195 H 0.1548 0.01511 0.81722 0.0
H196 H 0.18527 0.97452 0.73243 0.0
C197 C 0.97934 0.10664 0.70188 0.0
C198 C 0.60902 0.58675 0.69625 0.0
C199 C 0.5866 0.49714 0.68493 0.0
H200 H 0.60489 0.67494 0.75332 0.0
C201 C 0.55226 0.42324 0.72416 0.0
H202 H 0.6362 0.64431 0.66617 0.0
C203 C 0.53145 0.44172 0.77314 0.0
C204 C 0.54594 0.5338 0.7833 0.0
H205 H 0.5341 0.3539 0.71575 0.0
H206 H 0.49695 0.38629 0.80172 0.0
C207 C 0.59052 0.60444 0.74562 0.0
C208 C 0.61652 0.47045 0.2734 0.0
C209 C 0.59233 0.54437 0.29897 0.0
H210 H 0.60775 0.41878 0.20231 0.0
C211 C 0.55243 0.62942 0.2707 0.0
H212 H 0.64782 0.40446 0.29474 0.0
C213 C 0.52661 0.63602 0.21864 0.0
C214 C 0.54304 0.55884 0.19415 0.0
H215 H 0.5325 0.68681 0.29006 0.0
H216 H 0.48506 0.69716 0.1993 0.0
C217 C 0.59389 0.47863 0.22085 0.0
loop_
_geom_bond_atom_site_label_1
_geom_bond_atom_site_label_2
_geom_bond_distance
_geom_bond_site_symmetry_2
_ccdc_geom_bond_type
O0 Zn1 1.953 . S
O0 C16 1.225 . S
Zn1 O0 1.953 . S
Zn1 O2 1.949 1_565 S
Zn1 O8 1.919 . S
Zn1 O13 1.924 1_565 S
O2 Zn1 1.949 1_545 S
O2 Zn3 1.923 1_544 S
O2 Zn4 1.950 1_455 S
O2 Zn5 1.945 1_554 S
Zn3 O2 1.923 1_566 S
Zn3 O6 1.933 . S
Zn3 O9 1.941 . S
Zn3 O10 1.965 1_455 S
Zn4 O2 1.950 1_655 S
Zn4 O11 1.938 1_545 S
Zn4 O12 1.906 . S
Zn4 O22 1.953 . S
Zn5 O2 1.945 1_556 S
Zn5 O7 1.932 . S
Zn5 O14 1.977 1_455 S
Zn5 O15 1.910 . S
O6 Zn3 1.933 . S
O6 C17 1.226 1_565 S
O7 Zn5 1.932 . S
O7 C17 1.307 . S
O8 Zn1 1.919 . S
O8 C19 1.254 1_554 S
O9 Zn3 1.941 . S
O9 C19 1.283 . S
O10 Zn3 1.965 1_655 S
O10 C18 1.303 1_556 S
O11 Zn4 1.938 1_565 S
O11 C18 1.247 . S
O12 Zn4 1.906 . S
O12 C20 1.304 1_554 S
O13 Zn1 1.924 1_545 S
O13 C21 1.311 . S
O14 Zn5 1.977 1_655 S
O14 C20 1.272 . S
O15 Zn5 1.910 . S
O15 C21 1.231 1_556 S
C16 O0 1.225 . S
C16 O22 1.298 1_465 S
C17 O6 1.226 1_545 S
C17 O7 1.307 . S
C18 O10 1.303 1_554 S
C18 O11 1.247 . S
C19 O8 1.254 1_556 S
C19 O9 1.283 . S
C20 O12 1.304 1_556 S
C20 O14 1.272 . S
C21 O13 1.311 . S
C21 O15 1.231 1_554 S
O22 Zn4 1.953 . S
O22 C16 1.298 1_645 S
O23 Zn24 1.953 . S
O23 C39 1.225 . S
Zn24 O23 1.953 . S
Zn24 O25 1.949 . S
Zn24 O31 1.919 . S
Zn24 O36 1.924 . S
O25 Zn24 1.949 . S
O25 Zn26 1.923 . S
O25 Zn27 1.950 . S
O25 Zn28 1.945 . S
Zn26 O25 1.923 . S
Zn26 O29 1.933 . S
Zn26 O32 1.941 . S
Zn26 O33 1.965 . S
Zn27 O25 1.950 . S
Zn27 O34 1.938 . S
Zn27 O35 1.906 . S
Zn27 O45 1.953 . S
Zn28 O25 1.945 . S
Zn28 O30 1.932 . S
Zn28 O37 1.977 . S
Zn28 O38 1.910 . S
O29 Zn26 1.933 . S
O29 C40 1.226 . S
O30 Zn28 1.932 . S
O30 C40 1.307 . S
O31 Zn24 1.919 . S
O31 C42 1.253 . S
O32 Zn26 1.941 . S
O32 C42 1.283 . S
O33 Zn26 1.965 . S
O33 C41 1.303 . S
O34 Zn27 1.938 . S
O34 C41 1.247 . S
O35 Zn27 1.906 . S
O35 C43 1.304 . S
O36 Zn24 1.924 . S
O36 C44 1.311 . S
O37 Zn28 1.977 . S
O37 C43 1.272 . S
O38 Zn28 1.910 . S
O38 C44 1.231 . S
C39 O23 1.225 . S
C39 O45 1.298 . S
C40 O29 1.226 . S
C40 O30 1.307 . S
C41 O33 1.303 . S
C41 O34 1.247 . S
C42 O31 1.253 . S
C42 O32 1.283 . S
C43 O35 1.304 . S
C43 O37 1.272 . S
C44 O36 1.311 . S
C44 O38 1.231 . S
O45 Zn27 1.953 . S
O45 C39 1.298 . S
C46 N47 1.317 1_545 S
C46 N48 1.348 1_455 S
C46 C49 1.485 1_545 S
N47 C46 1.317 1_565 S
N47 N51 1.370 1_565 S
N48 C46 1.348 1_655 S
N48 C50 1.346 . S
C49 C46 1.485 1_565 S
C49 H53 0.960 1_455 S
C49 H54 0.961 1_565 S
C49 H55 0.960 . S
C50 N48 1.346 . S
C50 N51 1.307 1_655 S
C50 C52 1.486 . S
N51 N47 1.370 1_545 S
N51 C50 1.307 1_455 S
C52 C50 1.486 . S
C52 H56 0.960 . S
C52 H57 0.960 . S
C52 H58 0.959 . S
H53 C49 0.960 1_655 S
H54 C49 0.961 1_545 S
H55 C49 0.960 . S
H56 C52 0.960 . S
H57 C52 0.960 . S
H58 C52 0.959 . S
C59 N60 1.317 . S
C59 N61 1.348 1_445 S
C59 C62 1.485 . S
N60 C59 1.317 . S
N60 N64 1.370 . S
N61 C59 1.348 1_665 S
N61 C63 1.346 . S
C62 C59 1.485 . S
C62 H66 0.960 . S
C62 H67 0.961 1_545 S
C62 H68 0.960 . S
C63 N61 1.346 . S
C63 N64 1.307 1_665 S
C63 C65 1.486 . S
N64 N60 1.370 . S
N64 C63 1.307 1_445 S
C65 C63 1.486 . S
C65 H69 0.960 . S
C65 H70 0.960 . S
C65 H71 0.959 . S
H66 C62 0.960 . S
H67 C62 0.961 1_565 S
H68 C62 0.960 . S
H69 C65 0.960 . S
H70 C65 0.960 . S
H71 C65 0.959 . S
C72 N73 1.317 . S
C72 N74 1.348 . S
C72 C75 1.485 1_556 S
N73 C72 1.317 . S
N73 N77 1.370 . S
N74 C72 1.348 . S
N74 C76 1.346 . S
C75 C72 1.485 1_554 S
C75 H79 0.960 . S
C75 H80 0.961 . S
C75 H81 0.960 . S
C76 N74 1.346 . S
C76 N77 1.307 . S
C76 C78 1.486 . S
N77 N73 1.370 . S
N77 C76 1.307 . S
C78 C76 1.486 . S
C78 H82 0.960 . S
C78 H83 0.960 . S
C78 H84 0.959 . S
H79 C75 0.960 . S
H80 C75 0.961 . S
H81 C75 0.960 . S
H82 C78 0.960 . S
H83 C78 0.960 . S
H84 C78 0.959 . S
C85 N86 1.317 . S
C85 N87 1.348 . S
C85 C88 1.485 1_554 S
N86 C85 1.317 . S
N86 N90 1.370 . S
N87 C85 1.348 . S
N87 C89 1.346 . S
C88 C85 1.485 1_556 S
C88 H92 0.960 . S
C88 H93 0.961 . S
C88 H94 0.960 . S
C89 N87 1.346 . S
C89 N90 1.307 . S
C89 C91 1.486 . S
N90 N86 1.370 . S
N90 C89 1.307 . S
C91 C89 1.486 . S
C91 H95 0.960 . S
C91 H96 0.960 . S
C91 H97 0.959 . S
H92 C88 0.960 . S
H93 C88 0.961 . S
H94 C88 0.960 . S
H95 C91 0.960 . S
H96 C91 0.960 . S
H97 C91 0.959 . S
C98 C99 1.387 . S
C98 H102 0.950 . S
C98 C107 1.390 . S
C99 C98 1.387 . S
C99 C101 1.387 1_554 S
H100 C107 0.950 . S
C101 C99 1.387 1_556 S
C101 C103 1.390 1_556 S
C101 H105 0.950 . S
H102 C98 0.950 . S
C103 C101 1.390 1_554 S
C103 C104 1.387 . S
C103 H106 0.950 1_554 S
C104 C103 1.387 . S
C104 C107 1.387 . S
H105 C101 0.950 . S
H106 C103 0.950 1_556 S
C107 C98 1.390 . S
C107 H100 0.950 . S
C107 C104 1.387 . S
C108 C109 1.387 . S
C108 H112 0.950 . S
C108 C117 1.390 . S
C109 C108 1.387 . S
C109 C111 1.387 1_556 S
H110 C117 0.950 . S
C111 C109 1.387 1_554 S
C111 C113 1.390 1_554 S
C111 H115 0.950 . S
H112 C108 0.950 . S
C113 C111 1.390 1_556 S
C113 C114 1.387 . S
C113 H116 0.950 1_556 S
C114 C113 1.387 . S
C114 C117 1.387 . S
H115 C111 0.950 . S
H116 C113 0.950 1_554 S
C117 C108 1.390 . S
C117 H110 0.950 . S
C117 C114 1.387 . S
C118 C119 1.387 . S
C118 H122 0.950 . S
C118 C127 1.390 . S
C119 C118 1.387 . S
C119 C121 1.387 . S
H120 C127 0.950 . S
C121 C119 1.387 . S
C121 C123 1.390 . S
C121 H125 0.950 1_554 S
H122 C118 0.950 . S
C123 C121 1.390 . S
C123 C124 1.387 . S
C123 H126 0.950 . S
C124 C123 1.387 . S
C124 C127 1.387 . S
H125 C121 0.950 1_556 S
H126 C123 0.950 . S
C127 C118 1.390 . S
C127 H120 0.950 . S
C127 C124 1.387 . S
C128 C129 1.387 . S
C128 H132 0.950 1_556 S
C128 C137 1.390 . S
C129 C128 1.387 . S
C129 C131 1.387 . S
H130 C137 0.950 1_554 S
C131 C129 1.387 . S
C131 C133 1.390 . S
C131 H135 0.950 . S
H132 C128 0.950 1_554 S
C133 C131 1.390 . S
C133 C134 1.387 . S
C133 H136 0.950 . S
C134 C133 1.387 . S
C134 C137 1.387 . S
H135 C131 0.950 . S
H136 C133 0.950 . S
C137 C128 1.390 . S
C137 H130 0.950 1_556 S
C137 C134 1.387 . S
C138 C139 1.387 . S
C138 H142 0.950 . S
C138 C147 1.390 . S
C139 C138 1.387 . S
C139 C141 1.387 . S
H140 C147 0.950 . S
C141 C139 1.387 . S
C141 C143 1.390 . S
C141 H145 0.950 . S
H142 C138 0.950 . S
C143 C141 1.390 . S
C143 C144 1.387 . S
C143 H146 0.950 . S
C144 C143 1.387 . S
C144 C147 1.387 . S
H145 C141 0.950 . S
H146 C143 0.950 . S
C147 C138 1.390 . S
C147 H140 0.950 . S
C147 C144 1.387 . S
C148 C149 1.387 . S
C148 H152 0.950 . S
C148 C157 1.390 . S
C149 C148 1.387 . S
C149 C151 1.387 . S
H150 C157 0.950 . S
C151 C149 1.387 . S
C151 C153 1.390 . S
C151 H155 0.950 . S
H152 C148 0.950 . S
C153 C151 1.390 . S
C153 C154 1.387 . S
C153 H156 0.950 . S
C154 C153 1.387 . S
C154 C157 1.387 . S
H155 C151 0.950 . S
H156 C153 0.950 . S
C157 C148 1.390 . S
C157 H150 0.950 . S
C157 C154 1.387 . S
C158 C159 1.387 . S
C158 H162 0.950 . S
C158 C167 1.390 . S
C159 C158 1.387 . S
C159 C161 1.387 . S
H160 C167 0.950 . S
C161 C159 1.387 . S
C161 C163 1.390 . S
C161 H165 0.950 . S
H162 C158 0.950 . S
C163 C161 1.390 . S
C163 C164 1.387 . S
C163 H166 0.950 . S
C164 C163 1.387 . S
C164 C167 1.387 . S
H165 C161 0.950 . S
H166 C163 0.950 . S
C167 C158 1.390 . S
C167 H160 0.950 . S
C167 C164 1.387 . S
C168 C169 1.387 . S
C168 H172 0.950 . S
C168 C177 1.390 . S
C169 C168 1.387 . S
C169 C171 1.387 . S
H170 C177 0.950 . S
C171 C169 1.387 . S
C171 C173 1.390 . S
C171 H175 0.950 . S
H172 C168 0.950 . S
C173 C171 1.390 . S
C173 C174 1.387 . S
C173 H176 0.950 . S
C174 C173 1.387 . S
C174 C177 1.387 . S
H175 C171 0.950 . S
H176 C173 0.950 . S
C177 C168 1.390 . S
C177 H170 0.950 . S
C177 C174 1.387 . S
C178 C179 1.387 1_645 S
C178 H182 0.950 . S
C178 C187 1.390 . S
C179 C178 1.387 1_465 S
C179 C181 1.387 . S
H180 C187 0.950 . S
C181 C179 1.387 . S
C181 C183 1.390 . S
C181 H185 0.950 . S
H182 C178 0.950 . S
C183 C181 1.390 . S
C183 C184 1.387 . S
C183 H186 0.950 . S
C184 C183 1.387 . S
C184 C187 1.387 1_465 S
H185 C181 0.950 . S
H186 C183 0.950 . S
C187 C178 1.390 . S
C187 H180 0.950 . S
C187 C184 1.387 1_645 S
C188 C189 1.387 . S
C188 H192 0.950 . S
C188 C197 1.390 . S
C189 C188 1.387 . S
C189 C191 1.387 1_445 S
H190 C197 0.950 . S
C191 C189 1.387 1_665 S
C191 C193 1.390 . S
C191 H195 0.950 . S
H192 C188 0.950 . S
C193 C191 1.390 . S
C193 C194 1.387 1_665 S
C193 H196 0.950 . S
C194 C193 1.387 1_445 S
C194 C197 1.387 . S
H195 C191 0.950 . S
H196 C193 0.950 . S
C197 C188 1.390 . S
C197 H190 0.950 . S
C197 C194 1.387 . S
C198 C199 1.387 . S
C198 H202 0.950 . S
C198 C207 1.390 . S
C199 C198 1.387 . S
C199 C201 1.387 . S
H200 C207 0.950 . S
C201 C199 1.387 . S
C201 C203 1.390 . S
C201 H205 0.950 . S
H202 C198 0.950 . S
C203 C201 1.390 . S
C203 C204 1.387 . S
C203 H206 0.950 . S
C204 C203 1.387 . S
C204 C207 1.387 . S
H205 C201 0.950 . S
H206 C203 0.950 . S
C207 C198 1.390 . S
C207 H200 0.950 . S
C207 C204 1.387 . S
C208 C209 1.387 . S
C208 H212 0.950 . S
C208 C217 1.390 . S
C209 C208 1.387 . S
C209 C211 1.387 . S
H210 C217 0.950 . S
C211 C209 1.387 . S
C211 C213 1.390 . S
C211 H215 0.950 . S
H212 C208 0.950 . S
C213 C211 1.390 . S
C213 C214 1.387 . S
C213 H216 0.950 . S
C214 C213 1.387 . S
C214 C217 1.387 . S
H215 C211 0.950 . S
H216 C213 0.950 . S
C217 C208 1.390 . S
C217 H210 0.950 . S
C217 C214 1.387 . S
C104 N87 1.436 . S
C99 C21 1.441 . S
C109 C19 1.434 . S
C114 N74 1.440 . S
C119 C18 1.479 . S
C124 N86 1.508 . S
C129 C20 1.513 . S
C134 N73 1.514 . S
C139 C44 1.441 . S
C144 N61 1.436 . S
C149 C42 1.435 . S
C154 N48 1.440 . S
C164 N60 1.508 . S
C159 C41 1.479 . S
C174 N47 1.514 . S
C169 C43 1.512 . S
C179 C16 1.529 . S
C184 N51 1.512 1_565 S
C189 C17 1.502 . S
C194 N64 1.489 . S
C204 N77 1.512 . S
C199 C39 1.529 . S
C209 C40 1.502 . S
C214 N90 1.488 . S
