# Generated by pormake.
# Topology pts, (4,4)-cn, num edge types: 1
# Building blocks:
#     Node 0, Type 0, BuildingBlock: GIZVER_clean_linker_0, # of connection points: 4
#     Node 1, Type 0, BuildingBlock: GIZVER_clean_linker_0, # of connection points: 4
#     Node 2, Type 1, BuildingBlock: AZAVOO_clean_sbu_0, # of connection points: 4
#     Node 3, Type 1, BuildingBlock: AZAVOO_clean_sbu_0, # of connection points: 4
#     Edge 4, Type (0, 1), BuildingBlock: CIFDUS_clean_linker_0, # of connection points: 2
#     Edge 5, Type (0, 1), BuildingBlock: CIFDUS_clean_linker_0, # of connection points: 2
#     Edge 6, Type (0, 1), BuildingBlock: CIFDUS_clean_linker_0, # of connection points: 2
#     Edge 7, Type (0, 1), BuildingBlock: CIFDUS_clean_linker_0, # of connection points: 2
#     Edge 8, Type (0, 1), BuildingBlock: CIFDUS_clean_linker_0, # of connection points: 2
#     Edge 9, Type (0, 1), BuildingBlock: CIFDUS_clean_linker_0, # of connection points: 2
#     Edge 10, Type (0, 1), BuildingBlock: CIFDUS_clean_linker_0, # of connection points: 2
#     Edge 11, Type (0, 1), BuildingBlock: CIFDUS_clean_linker_0, # of connection points: 2
# Relax obj value: 0.014
# Max RMSD: 0.076
# Mean RMSD: 0.070
data_MOF--net-pts--node1-AZAVOO_clean_sbu_0--node2-GIZVER_clean_linker_0--edge1-CIFDUS_clean_linker_0
_symmetry_space_group_name_H-M    P1
_symmetry_Int_Tables_number       1
_symmetry_cell_setting            triclinic
loop_
_symmetry_equiv_pos_as_xyz
'x, y, z'
_cell_length_a     20.760435
_cell_length_b     23.020327
_cell_length_c     32.336249
_cell_angle_alpha  90.494989
_cell_angle_beta   96.207327
_cell_angle_gamma 89.341122
loop_
_atom_site_label
_atom_site_type_symbol
_atom_site_fract_x
_atom_site_fract_y
_atom_site_fract_z
_atom_type_partial_charge
H0 H 0.63321 0.09801 0.02363 0.0
H1 H 0.61575 0.11492 0.89068 0.0
H2 H 0.77751 0.0213 0.9532 0.0
H3 H 0.56546 0.17601 -0.01294 0.0
H4 H 0.55086 0.17582 0.93172 0.0
H5 H 0.50693 0.11006 0.02908 0.0
H6 H 0.33334 0.03447 -0.03203 0.0
H7 H 0.47205 0.10908 0.89515 0.0
C8 C 0.65098 0.08756 -0.00587 0.0
C9 C 0.70958 0.05641 -0.00677 0.0
C10 C 0.61658 0.10826 0.95728 0.0
C11 C 0.64106 0.0975 0.91904 0.0
C12 C 0.69994 0.06727 0.91758 0.0
C13 C 0.73302 0.04596 0.95462 0.0
C14 C 0.55778 0.14697 -0.04068 0.0
C15 C 0.49714 0.11213 -0.03822 0.0
C16 C 0.47729 0.09787 0.00074 0.0
C17 C 0.41848 0.06916 0.00311 0.0
C18 C 0.37968 0.05513 -0.03371 0.0
C19 C 0.39809 0.06971 0.92735 0.0
C20 C 0.45779 0.09695 0.92514 0.0
H21 H 0.1499 0.58591 0.40748 0.0
H22 H 0.14238 0.56763 0.53865 0.0
H23 H 1.01383 0.68775 0.47076 0.0
H24 H 0.22954 0.52638 0.44857 0.0
H25 H 0.22691 0.51883 0.50344 0.0
H26 H 0.16911 0.46078 0.39942 0.0
H27 H 0.0703 0.3171 0.44722 0.0
H28 H 0.15056 0.44985 0.53079 0.0
C29 C 0.12668 0.59728 0.43485 0.0
C30 C 0.08018 0.64262 0.43372 0.0
C31 C 0.14687 0.56814 0.47218 0.0
C32 C 0.12304 0.58643 0.5092 0.0
C33 C 0.076 0.63048 0.50849 0.0
C34 C 0.05152 0.65498 0.47044 0.0
C35 C 0.19644 0.51971 0.47294 0.0
C36 C 0.16234 0.46252 0.46577 0.0
C37 C 0.15106 0.43896 0.42535 0.0
C38 C 0.11731 0.38676 0.41851 0.0
C39 C 0.09409 0.35871 0.45215 0.0
C40 C 0.10644 0.38077 0.49266 0.0
C41 C 0.14044 0.43285 0.49942 0.0
Mg42 Mg 0.11126 1.00291 0.24681 0.0
O43 O 1.02582 0.99929 0.19537 0.0
O44 O 0.93359 0.99826 0.22504 0.0
Mg45 Mg 0.95946 1.00051 0.29551 0.0
C46 C 0.96399 0.99841 0.19278 0.0
C47 C 0.19586 0.97894 0.17605 0.0
O48 O 0.16857 0.92855 0.18064 0.0
O49 O 0.08929 0.09952 0.2577 0.0
O50 O 0.99891 0.09226 0.28932 0.0
O51 O 0.11406 0.90529 0.25443 0.0
O52 O 0.05638 0.96544 0.28917 0.0
C53 C 1.04307 0.12261 0.27555 0.0
C54 C 0.07436 0.91308 0.28221 0.0
O55 O 0.18111 0.02157 0.19859 0.0
Mg56 Mg 1.0278 1.00219 0.6752 0.0
O57 O 0.12442 0.99956 0.7176 0.0
O58 O 0.2052 0.97676 0.67967 0.0
Mg59 Mg 0.16086 0.9677 0.61236 0.0
C60 C 0.18447 0.98973 0.71437 0.0
C61 C 0.91672 0.03012 0.72922 0.0
O62 O 0.88621 0.9998 0.69868 0.0
O63 O 0.0558 0.09121 0.65177 0.0
O64 O 0.13666 0.06531 0.61452 0.0
O65 O 1.01378 0.90631 0.68178 0.0
O66 O 0.0677 0.94606 0.6341 0.0
C67 C 0.10014 0.10387 0.62893 0.0
C68 C 0.04911 0.89998 0.65144 0.0
O69 O 0.97635 0.04135 0.728 0.0
H70 H 0.36829 0.96892 0.02744 0.0
H71 H 0.40962 0.14462 0.06813 0.0
H72 H 0.34656 0.13157 0.12717 0.0
H73 H 0.27002 0.07315 0.16263 0.0
H74 H 0.22716 0.89826 0.11949 0.0
H75 H 0.29962 0.90838 0.06576 0.0
C76 C 0.3642 1.00405 0.04963 0.0
C77 C 0.39303 0.05773 0.04335 0.0
C78 C 0.32649 0.99676 0.08257 0.0
C79 C 0.38818 0.10274 0.07251 0.0
C80 C 0.35147 0.0955 0.10594 0.0
C81 C 0.27678 0.03721 0.14158 0.0
C82 C 0.24244 0.9853 0.14481 0.0
C83 C 0.31873 0.04325 0.11052 0.0
C84 C 0.25242 0.93889 0.11758 0.0
C85 C 0.29403 0.94453 0.08683 0.0
H86 H 0.19198 0.33117 0.55028 0.0
H87 H 0.98783 0.34521 0.51035 0.0
H88 H 0.966 0.26511 0.55616 0.0
H89 H 1.00757 0.18105 0.59837 0.0
H90 H 0.21341 0.16079 0.63064 0.0
H91 H 0.23237 0.2534 0.59786 0.0
C92 C 0.14261 0.31784 0.55284 0.0
C93 C 0.09146 0.34403 0.52752 0.0
C94 C 0.13103 0.26993 0.57746 0.0
C95 C 1.02772 0.32574 0.53003 0.0
C96 C 1.0154 0.2797 0.5559 0.0
C97 C 0.05625 0.19795 0.59915 0.0
C98 C 0.10908 0.16452 0.61677 0.0
C99 C 0.06696 0.24992 0.57845 0.0
C100 C 0.17216 0.186 0.61708 0.0
C101 C 0.18299 0.23877 0.59825 0.0
H102 H 0.84124 0.05583 0.01097 0.0
H103 H 0.66536 0.01582 0.0646 0.0
H104 H 0.72866 0.99199 0.13043 0.0
H105 H 0.83356 0.98621 0.17354 0.0
H106 H 1.00926 0.02235 0.11852 0.0
H107 H 0.94616 0.04183 0.05197 0.0
C108 C 0.81651 0.04066 0.03663 0.0
C109 C 0.74831 0.03802 0.03262 0.0
C110 C 0.85321 0.02606 0.07419 0.0
C111 C 0.71758 0.01942 0.06683 0.0
C112 C 0.7538 1.00534 0.10447 0.0
C113 C 0.8582 0.99782 0.14692 0.0
C114 C 0.92615 1.00323 0.15128 0.0
C115 C 0.8216 0.00916 0.10864 0.0
C116 C 0.95712 0.01785 0.11624 0.0
C117 C 0.92102 0.02932 0.07814 0.0
H118 H 0.16251 0.69056 0.55812 0.0
H119 H 0.96096 0.64449 0.54164 0.0
H120 H 0.93647 0.71989 0.59191 0.0
H121 H 0.97003 0.80962 0.63053 0.0
H122 H 0.16938 0.86252 0.63832 0.0
H123 H 0.19777 0.77391 0.6019 0.0
C124 C 0.11373 0.69569 0.56687 0.0
C125 C 0.06367 0.66181 0.54692 0.0
C126 C 0.09967 0.74133 0.59354 0.0
C127 C 1.00021 0.66971 0.55727 0.0
C128 C 0.98623 0.71321 0.58557 0.0
C129 C 1.01986 0.80073 0.62508 0.0
C130 C 0.06764 0.84225 0.63667 0.0
C131 C 1.03512 0.75093 0.60244 0.0
C132 C 0.1319 0.83121 0.62913 0.0
C133 C 0.14807 0.7806 0.60839 0.0
H134 H 0.42121 0.01911 0.85357 0.0
H135 H 0.27068 0.09934 0.91724 0.0
H136 H 0.19103 0.07922 0.85801 0.0
H137 H 0.16371 0.03897 0.78843 0.0
H138 H 0.31342 0.95987 0.72323 0.0
H139 H 0.39349 0.97912 0.78269 0.0
C140 C 0.37106 0.0325 0.85418 0.0
C141 C 0.35173 0.06019 0.88978 0.0
C142 C 0.32521 0.02065 0.81992 0.0
C143 C 0.28653 0.07719 0.89037 0.0
C144 C 0.24095 0.0658 0.85651 0.0
C145 C 0.21371 0.02545 0.78724 0.0
C146 C 0.23229 0.99782 0.75141 0.0
C147 C 0.25962 0.03723 0.82126 0.0
C148 C 0.2976 0.98119 0.75042 0.0
C149 C 0.34355 0.99231 0.78438 0.0
H150 H 1.00824 0.35138 0.37282 0.0
H151 H 0.21595 0.35158 0.37505 0.0
H152 H 0.2104 0.27458 0.32209 0.0
H153 H 0.14797 0.19363 0.28766 0.0
H154 H 0.94035 0.19158 0.28893 0.0
H155 H 0.94401 0.28339 0.32703 0.0
C156 C 0.05194 0.33588 0.36048 0.0
C157 C 0.11235 0.35633 0.37788 0.0
C158 C 0.0484 0.29051 0.33116 0.0
C159 C 0.16889 0.33638 0.36187 0.0
C160 C 0.16573 0.29191 0.33197 0.0
C161 C 0.10337 0.21434 0.29499 0.0
C162 C 1.04418 0.18518 0.28637 0.0
C163 C 0.10601 0.26649 0.31813 0.0
C164 C 0.9867 0.21264 0.29595 0.0
C165 C 0.98872 0.26508 0.31788 0.0
H166 H 0.82347 0.09052 0.90412 0.0
H167 H 0.64202 0.03007 0.84209 0.0
H168 H 0.69236 0.01582 0.77755 0.0
H169 H 0.78931 0.01666 0.73987 0.0
H170 H 0.97042 0.07814 0.80233 0.0
H171 H 0.91875 0.09601 0.86559 0.0
C172 C 0.79505 0.07402 0.87647 0.0
C173 C 0.72936 0.06067 0.87792 0.0
C174 C 0.82423 0.06618 0.83962 0.0
C175 C 0.69267 0.04059 0.84168 0.0
C176 C 0.72149 0.03231 0.80488 0.0
C177 C 0.81743 0.03433 0.76722 0.0
C178 C 0.88382 0.04568 0.76635 0.0
C179 C 0.78741 0.04444 0.8036 0.0
C180 C 0.91932 0.06893 0.80205 0.0
C181 C 0.88986 0.079 0.83833 0.0
H182 H 1.04074 0.75701 0.43322 0.0
H183 H 0.09502 0.62079 0.3501 0.0
H184 H 0.09549 0.69179 0.29469 0.0
H185 H 0.08963 0.79511 0.27192 0.0
H186 H 1.02136 0.92504 0.35452 0.0
H187 H 1.01331 0.85212 0.40722 0.0
C188 C 0.04991 0.74091 0.40289 0.0
C189 C 0.06879 0.68257 0.39698 0.0
C190 C 1.04737 0.78116 0.37061 0.0
C191 C 0.08247 0.66534 0.3568 0.0
C192 C 0.08212 0.70597 0.32467 0.0
C193 C 0.07174 0.80707 0.30114 0.0
C194 C 0.05723 0.86569 0.30945 0.0
C195 C 0.06633 0.76445 0.3316 0.0
C196 C 1.03328 0.88044 0.34724 0.0
C197 C 1.02898 0.83877 0.37763 0.0
loop_
_geom_bond_atom_site_label_1
_geom_bond_atom_site_label_2
_geom_bond_distance
_geom_bond_site_symmetry_2
_ccdc_geom_bond_type
H0 C8 0.930 . S
H1 C11 0.930 . S
H2 C13 0.930 . S
H3 C14 0.970 . S
H4 C14 0.970 1_556 S
H5 C16 0.930 . S
H6 C18 0.930 . S
H7 C20 0.930 . S
C8 H0 0.930 . S
C8 C9 1.382 . S
C8 C10 1.426 . S
C9 C8 1.382 . S
C9 C13 1.389 1_545 S
C10 C8 1.426 . S
C10 C11 1.375 1_554 S
C10 C14 1.532 . S
C11 H1 0.930 . S
C11 C10 1.375 1_556 S
C11 C12 1.416 . S
C12 C11 1.416 . S
C12 C13 1.371 1_546 S
C13 H2 0.930 . S
C13 C9 1.389 1_565 S
C13 C12 1.371 1_564 S
C14 H3 0.970 . S
C14 H4 0.970 1_554 S
C14 C10 1.532 . S
C14 C15 1.498 . S
C15 C14 1.498 . S
C15 C16 1.380 . S
C15 C20 1.406 1_554 S
C16 H5 0.930 . S
C16 C15 1.380 . S
C16 C17 1.407 . S
C17 C16 1.407 . S
C17 C18 1.365 1_544 S
C18 H6 0.930 . S
C18 C17 1.365 1_566 S
C18 C19 1.393 1_565 S
C19 C18 1.393 1_545 S
C19 C20 1.387 . S
C20 H7 0.930 . S
C20 C15 1.406 1_556 S
C20 C19 1.387 . S
H21 C29 0.930 . S
H22 C32 0.930 . S
H23 C34 0.930 1_655 S
H24 C35 0.970 . S
H25 C35 0.970 . S
H26 C37 0.930 . S
H27 C39 0.930 1_655 S
H28 C41 0.930 . S
C29 H21 0.930 . S
C29 C30 1.382 . S
C29 C31 1.426 . S
C30 C29 1.382 . S
C30 C34 1.389 . S
C31 C29 1.426 . S
C31 C32 1.375 . S
C31 C35 1.532 . S
C32 H22 0.930 . S
C32 C31 1.375 . S
C32 C33 1.416 . S
C33 C32 1.416 . S
C33 C34 1.371 . S
C34 H23 0.930 1_455 S
C34 C30 1.389 . S
C34 C33 1.371 . S
C35 H24 0.970 . S
C35 H25 0.970 . S
C35 C31 1.532 . S
C35 C36 1.499 . S
C36 C35 1.499 . S
C36 C37 1.370 . S
C36 C41 1.415 . S
C37 H26 0.930 . S
C37 C36 1.370 . S
C37 C38 1.407 . S
C38 C37 1.407 . S
C38 C39 1.365 . S
C39 H27 0.930 1_455 S
C39 C38 1.365 . S
C39 C40 1.393 . S
C40 C39 1.393 . S
C40 C41 1.387 . S
C41 H28 0.930 . S
C41 C36 1.415 . S
C41 C40 1.387 . S
Mg42 O43 2.028 . S
Mg42 O49 1.986 . S
Mg42 O51 2.114 1_545 S
Mg42 O52 2.251 1_545 S
Mg42 O55 2.010 . S
O43 Mg42 2.028 . S
O43 C46 1.250 1_455 S
O44 Mg45 2.028 . S
O44 C46 1.248 . S
Mg45 O44 2.028 . S
Mg45 O50 2.032 . S
Mg45 O52 2.079 1_645 S
C46 O43 1.250 1_655 S
C46 O44 1.248 . S
C47 O48 1.264 . S
C47 O55 1.249 . S
O48 C47 1.264 . S
O49 Mg42 1.986 . S
O49 C53 1.246 . S
O50 Mg45 2.032 . S
O50 C53 1.259 1_655 S
O51 Mg42 2.114 1_565 S
O51 C54 1.252 . S
O52 Mg42 2.251 1_565 S
O52 Mg45 2.079 1_465 S
O52 C54 1.273 . S
C53 O49 1.246 . S
C53 O50 1.259 1_455 S
C54 O51 1.252 . S
C54 O52 1.273 . S
O55 Mg42 2.010 . S
O55 C47 1.249 . S
Mg56 O57 2.028 1_655 S
Mg56 O63 1.986 . S
Mg56 O65 2.114 1_545 S
Mg56 O66 2.251 1_645 S
Mg56 O69 2.010 . S
O57 Mg56 2.028 1_455 S
O57 C60 1.250 . S
O58 Mg59 2.028 . S
O58 C60 1.248 . S
Mg59 O58 2.028 . S
Mg59 O64 2.032 . S
Mg59 O66 2.079 1_545 S
C60 O57 1.250 . S
C60 O58 1.248 . S
C61 O62 1.264 . S
C61 O69 1.249 . S
O62 C61 1.264 . S
O63 Mg56 1.986 . S
O63 C67 1.246 1_655 S
O64 Mg59 2.032 . S
O64 C67 1.259 . S
O65 Mg56 2.114 1_565 S
O65 C68 1.252 1_655 S
O66 Mg56 2.251 1_465 S
O66 Mg59 2.079 1_565 S
O66 C68 1.273 . S
C67 O63 1.246 1_455 S
C67 O64 1.259 . S
C68 O65 1.252 1_455 S
C68 O66 1.273 . S
O69 Mg56 2.010 . S
O69 C61 1.249 . S
H70 C76 0.930 . S
H71 C79 0.930 . S
H72 C80 0.930 . S
H73 C81 0.930 . S
H74 C84 0.930 . S
H75 C85 0.930 . S
C76 H70 0.930 . S
C76 C77 1.355 1_565 S
C76 C78 1.415 . S
C77 C76 1.355 1_545 S
C77 C79 1.419 . S
C78 C76 1.415 . S
C78 C83 1.425 1_565 S
C78 C85 1.409 . S
C79 H71 0.930 . S
C79 C77 1.419 . S
C79 C80 1.362 . S
C80 H72 0.930 . S
C80 C79 1.362 . S
C80 C83 1.409 . S
C81 H73 0.930 . S
C81 C82 1.355 . S
C81 C83 1.415 . S
C82 C81 1.355 . S
C82 C84 1.419 1_545 S
C83 C78 1.425 1_545 S
C83 C80 1.409 . S
C83 C81 1.415 . S
C84 H74 0.930 . S
C84 C82 1.419 1_565 S
C84 C85 1.362 . S
C85 H75 0.930 . S
C85 C78 1.409 . S
C85 C84 1.362 . S
H86 C92 0.930 . S
H87 C95 0.930 . S
H88 C96 0.930 . S
H89 C97 0.930 . S
H90 C100 0.930 . S
H91 C101 0.930 . S
C92 H86 0.930 . S
C92 C93 1.355 . S
C92 C94 1.415 . S
C93 C92 1.355 . S
C93 C95 1.419 1_455 S
C94 C92 1.415 . S
C94 C99 1.425 1_455 S
C94 C101 1.409 . S
C95 H87 0.930 . S
C95 C93 1.419 1_655 S
C95 C96 1.362 . S
C96 H88 0.930 . S
C96 C95 1.362 . S
C96 C99 1.409 . S
C97 H89 0.930 . S
C97 C98 1.355 1_655 S
C97 C99 1.415 . S
C98 C97 1.355 1_455 S
C98 C100 1.419 . S
C99 C94 1.425 1_655 S
C99 C96 1.409 . S
C99 C97 1.415 . S
C100 H90 0.930 . S
C100 C98 1.419 . S
C100 C101 1.362 . S
C101 H91 0.930 . S
C101 C94 1.409 . S
C101 C100 1.362 . S
H102 C108 0.930 . S
H103 C111 0.930 . S
H104 C112 0.930 . S
H105 C113 0.930 . S
H106 C116 0.930 . S
H107 C117 0.930 . S
C108 H102 0.930 . S
C108 C109 1.355 . S
C108 C110 1.415 . S
C109 C108 1.355 . S
C109 C111 1.419 1_545 S
C110 C108 1.415 . S
C110 C115 1.425 1_545 S
C110 C117 1.409 . S
C111 H103 0.930 . S
C111 C109 1.419 1_565 S
C111 C112 1.362 . S
C112 H104 0.930 . S
C112 C111 1.362 . S
C112 C115 1.409 . S
C113 H105 0.930 . S
C113 C114 1.355 1_565 S
C113 C115 1.415 . S
C114 C113 1.355 1_545 S
C114 C116 1.419 . S
C115 C110 1.425 1_565 S
C115 C112 1.409 . S
C115 C113 1.415 . S
C116 H106 0.930 . S
C116 C114 1.419 . S
C116 C117 1.362 . S
C117 H107 0.930 . S
C117 C110 1.409 . S
C117 C116 1.362 . S
H118 C124 0.930 . S
H119 C127 0.930 . S
H120 C128 0.930 . S
H121 C129 0.930 . S
H122 C132 0.930 . S
H123 C133 0.930 . S
C124 H118 0.930 . S
C124 C125 1.355 . S
C124 C126 1.415 . S
C125 C124 1.355 . S
C125 C127 1.419 . S
C126 C124 1.415 . S
C126 C131 1.425 . S
C126 C133 1.409 . S
C127 H119 0.930 . S
C127 C125 1.419 . S
C127 C128 1.362 . S
C128 H120 0.930 . S
C128 C127 1.362 . S
C128 C131 1.409 . S
C129 H121 0.930 . S
C129 C130 1.355 . S
C129 C131 1.415 . S
C130 C129 1.355 . S
C130 C132 1.419 . S
C131 C126 1.425 . S
C131 C128 1.409 . S
C131 C129 1.415 . S
C132 H122 0.930 . S
C132 C130 1.419 . S
C132 C133 1.362 . S
C133 H123 0.930 . S
C133 C126 1.409 . S
C133 C132 1.362 . S
H134 C140 0.930 . S
H135 C143 0.930 . S
H136 C144 0.930 . S
H137 C145 0.930 . S
H138 C148 0.930 . S
H139 C149 0.930 . S
C140 H134 0.930 . S
C140 C141 1.355 1_565 S
C140 C142 1.415 . S
C141 C140 1.355 1_545 S
C141 C143 1.419 . S
C142 C140 1.415 . S
C142 C147 1.425 1_565 S
C142 C149 1.409 . S
C143 H135 0.930 . S
C143 C141 1.419 . S
C143 C144 1.362 . S
C144 H136 0.930 . S
C144 C143 1.362 . S
C144 C147 1.409 . S
C145 H137 0.930 . S
C145 C146 1.355 . S
C145 C147 1.415 . S
C146 C145 1.355 . S
C146 C148 1.419 1_545 S
C147 C142 1.425 1_545 S
C147 C144 1.409 . S
C147 C145 1.415 . S
C148 H138 0.930 . S
C148 C146 1.419 1_565 S
C148 C149 1.362 . S
C149 H139 0.930 . S
C149 C142 1.409 . S
C149 C148 1.362 . S
H150 C156 0.930 1_655 S
H151 C159 0.930 . S
H152 C160 0.930 . S
H153 C161 0.930 . S
H154 C164 0.930 . S
H155 C165 0.930 . S
C156 H150 0.930 1_455 S
C156 C157 1.355 . S
C156 C158 1.415 . S
C157 C156 1.355 . S
C157 C159 1.419 . S
C158 C156 1.415 . S
C158 C163 1.425 . S
C158 C165 1.409 1_455 S
C159 H151 0.930 . S
C159 C157 1.419 . S
C159 C160 1.362 . S
C160 H152 0.930 . S
C160 C159 1.362 . S
C160 C163 1.409 . S
C161 H153 0.930 . S
C161 C162 1.355 . S
C161 C163 1.415 . S
C162 C161 1.355 . S
C162 C164 1.419 1_455 S
C163 C158 1.425 . S
C163 C160 1.409 . S
C163 C161 1.415 . S
C164 H154 0.930 . S
C164 C162 1.419 1_655 S
C164 C165 1.362 . S
C165 H155 0.930 . S
C165 C158 1.409 1_655 S
C165 C164 1.362 . S
H166 C172 0.930 . S
H167 C175 0.930 . S
H168 C176 0.930 . S
H169 C177 0.930 . S
H170 C180 0.930 . S
H171 C181 0.930 . S
C172 H166 0.930 . S
C172 C173 1.355 1_545 S
C172 C174 1.415 . S
C173 C172 1.355 1_565 S
C173 C175 1.419 . S
C174 C172 1.415 . S
C174 C179 1.425 1_545 S
C174 C181 1.409 . S
C175 H167 0.930 . S
C175 C173 1.419 . S
C175 C176 1.362 . S
C176 H168 0.930 . S
C176 C175 1.362 . S
C176 C179 1.409 . S
C177 H169 0.930 . S
C177 C178 1.355 1_565 S
C177 C179 1.415 . S
C178 C177 1.355 1_545 S
C178 C180 1.419 . S
C179 C174 1.425 1_565 S
C179 C176 1.409 . S
C179 C177 1.415 . S
C180 H170 0.930 . S
C180 C178 1.419 . S
C180 C181 1.362 . S
C181 H171 0.930 . S
C181 C174 1.409 . S
C181 C180 1.362 . S
H182 C188 0.930 . S
H183 C191 0.930 . S
H184 C192 0.930 . S
H185 C193 0.930 . S
H186 C196 0.930 . S
H187 C197 0.930 . S
C188 H182 0.930 . S
C188 C189 1.355 . S
C188 C190 1.415 . S
C189 C188 1.355 . S
C189 C191 1.419 . S
C190 C188 1.415 . S
C190 C195 1.425 . S
C190 C197 1.409 . S
C191 H183 0.930 . S
C191 C189 1.419 . S
C191 C192 1.362 . S
C192 H184 0.930 . S
C192 C191 1.362 . S
C192 C195 1.409 . S
C193 H185 0.930 . S
C193 C194 1.355 . S
C193 C195 1.415 . S
C194 C193 1.355 . S
C194 C196 1.419 . S
C195 C190 1.425 . S
C195 C192 1.409 . S
C195 C193 1.415 . S
C196 H186 0.930 . S
C196 C194 1.419 . S
C196 C197 1.362 . S
C197 H187 0.930 . S
C197 C190 1.409 . S
C197 C196 1.362 . S
C82 C47 1.219 . S
C77 C17 1.413 . S
C98 C67 1.510 . S
C93 C40 1.443 . S
C114 C46 1.508 . S
C109 C9 1.503 . S
C130 C68 1.541 . S
C125 C33 1.463 . S
C146 C60 1.454 . S
C141 C19 1.431 . S
C162 C53 1.521 . S
C157 C38 1.404 . S
C178 C61 1.340 . S
C173 C12 1.488 1_565 S
C189 C30 1.513 . S
C194 C54 1.549 . S
