# Generated by pormake.
# Topology anh, (6,3)-cn, num edge types: 1
# Building blocks:
#     Node 0, Type 0, BuildingBlock: BETDEL_clean_sbu_0, # of connection points: 6
#     Node 1, Type 0, BuildingBlock: BETDEL_clean_sbu_0, # of connection points: 6
#     Node 2, Type 0, BuildingBlock: BETDEL_clean_sbu_0, # of connection points: 6
#     Node 3, Type 1, BuildingBlock: INOVEN_clean_linker_0, # of connection points: 3
#     Node 4, Type 1, BuildingBlock: INOVEN_clean_linker_0, # of connection points: 3
#     Node 5, Type 1, BuildingBlock: INOVEN_clean_linker_0, # of connection points: 3
#     Node 6, Type 1, BuildingBlock: INOVEN_clean_linker_0, # of connection points: 3
#     Node 7, Type 1, BuildingBlock: INOVEN_clean_linker_0, # of connection points: 3
#     Node 8, Type 1, BuildingBlock: INOVEN_clean_linker_0, # of connection points: 3
#     Edge 9, Type (0, 1), BuildingBlock: EYOCIG_clean_linker_4, # of connection points: 2
#     Edge 10, Type (0, 1), BuildingBlock: EYOCIG_clean_linker_4, # of connection points: 2
#     Edge 11, Type (0, 1), BuildingBlock: EYOCIG_clean_linker_4, # of connection points: 2
#     Edge 12, Type (0, 1), BuildingBlock: EYOCIG_clean_linker_4, # of connection points: 2
#     Edge 13, Type (0, 1), BuildingBlock: EYOCIG_clean_linker_4, # of connection points: 2
#     Edge 14, Type (0, 1), BuildingBlock: EYOCIG_clean_linker_4, # of connection points: 2
#     Edge 15, Type (0, 1), BuildingBlock: EYOCIG_clean_linker_4, # of connection points: 2
#     Edge 16, Type (0, 1), BuildingBlock: EYOCIG_clean_linker_4, # of connection points: 2
#     Edge 17, Type (0, 1), BuildingBlock: EYOCIG_clean_linker_4, # of connection points: 2
#     Edge 18, Type (0, 1), BuildingBlock: EYOCIG_clean_linker_4, # of connection points: 2
#     Edge 19, Type (0, 1), BuildingBlock: EYOCIG_clean_linker_4, # of connection points: 2
#     Edge 20, Type (0, 1), BuildingBlock: EYOCIG_clean_linker_4, # of connection points: 2
#     Edge 21, Type (0, 1), BuildingBlock: EYOCIG_clean_linker_4, # of connection points: 2
#     Edge 22, Type (0, 1), BuildingBlock: EYOCIG_clean_linker_4, # of connection points: 2
#     Edge 23, Type (0, 1), BuildingBlock: EYOCIG_clean_linker_4, # of connection points: 2
#     Edge 24, Type (0, 1), BuildingBlock: EYOCIG_clean_linker_4, # of connection points: 2
#     Edge 25, Type (0, 1), BuildingBlock: EYOCIG_clean_linker_4, # of connection points: 2
#     Edge 26, Type (0, 1), BuildingBlock: EYOCIG_clean_linker_4, # of connection points: 2
# Relax obj value: 0.104
# Max RMSD: 0.132
# Mean RMSD: 0.097
data_MOF--net-anh--node1-BETDEL_clean_sbu_0--node2-INOVEN_clean_linker_0--edge1-EYOCIG_clean_linker_4
_symmetry_space_group_name_H-M    P1
_symmetry_Int_Tables_number       1
_symmetry_cell_setting            triclinic
loop_
_symmetry_equiv_pos_as_xyz
'x, y, z'
_cell_length_a     23.773892
_cell_length_b     23.872941
_cell_length_c     37.026935
_cell_angle_alpha  92.015717
_cell_angle_beta   92.896907
_cell_angle_gamma 119.82684
loop_
_atom_site_label
_atom_site_type_symbol
_atom_site_fract_x
_atom_site_fract_y
_atom_site_fract_z
_atom_type_partial_charge
Dy0 Dy 0.09849 0.51882 0.16698 0.0
C1 C 0.93104 0.60803 0.17979 0.0
C2 C 0.19415 0.49113 0.16319 0.0
Dy3 Dy 1.02251 0.58051 0.16045 0.0
O4 O 0.15529 0.47479 0.18887 0.0
O5 O 0.1778 0.5181 0.13821 0.0
O6 O 0.06931 0.49286 0.22282 0.0
O7 O 0.08521 0.58221 0.20499 0.0
C8 C 0.06655 0.54465 0.23023 0.0
C9 C 0.05234 0.55548 0.09594 0.0
O10 O 0.11871 0.67442 0.16794 0.0
O11 O 0.17861 0.62321 0.16256 0.0
O12 O 0.95427 0.61717 0.14818 0.0
O13 O 0.95997 0.58699 0.20106 0.0
O14 O 0.04575 0.60525 0.10374 0.0
O15 O 0.03645 0.51768 0.12141 0.0
O16 O 1.00347 0.4249 0.15703 0.0
O17 O 0.94342 0.4753 0.16521 0.0
C18 C 0.17539 0.67705 0.16526 0.0
C19 C 0.94697 0.42163 0.16145 0.0
Dy20 Dy 0.44149 1.00597 0.49819 0.0
C21 C 0.71345 0.18095 0.52549 0.0
C22 C 0.31856 0.91237 0.48497 0.0
Dy23 Dy 0.59682 0.08945 0.49642 0.0
O24 O 0.33835 0.95752 0.51084 0.0
O25 O 0.36433 0.92321 0.46383 0.0
O26 O 0.44195 1.00412 0.55999 0.0
O27 O 0.52567 0.04546 0.53367 0.0
C28 C 0.50483 0.03433 0.56429 0.0
C29 C 0.53965 0.05994 0.42879 0.0
O30 O 0.58658 0.99078 0.50258 0.0
O31 O 0.4725 0.9293 0.4952 0.0
O32 O 0.70324 0.1514 0.4936 0.0
O33 O 0.66074 0.1571 0.54219 0.0
O34 O 0.60236 0.09178 0.43596 0.0
O35 O 0.51238 0.04637 0.45821 0.0
O36 O 0.45158 0.10471 0.49224 0.0
O37 O 0.56546 0.16578 0.49928 0.0
C38 C 0.531 0.9341 0.49918 0.0
C39 C 0.50714 0.16132 0.49609 0.0
Dy40 Dy 0.63881 0.60889 0.83567 0.0
C41 C 0.54519 0.33968 0.84666 0.0
C42 C 0.67114 0.7312 0.82834 0.0
Dy43 Dy 0.56761 0.45368 0.82478 0.0
O44 O 0.69782 0.71323 0.85327 0.0
O45 O 0.63135 0.68331 0.80566 0.0
O46 O 0.64068 0.6148 0.89728 0.0
O47 O 0.59864 0.52777 0.86697 0.0
C48 C 0.6101 0.55252 0.89865 0.0
C49 C 0.58942 0.50712 0.76053 0.0
O50 O 0.4793 0.46375 0.83195 0.0
O51 O 0.53063 0.57701 0.83094 0.0
O52 O 0.52557 0.34772 0.81484 0.0
O53 O 0.57245 0.39286 0.8671 0.0
O54 O 0.55895 0.44488 0.76345 0.0
O55 O 0.60594 0.53504 0.79194 0.0
O56 O 0.72697 0.59785 0.82857 0.0
O57 O 0.67534 0.48484 0.82918 0.0
C58 C 0.47754 0.51873 0.83164 0.0
C59 C 0.72866 0.54285 0.82922 0.0
H60 H 0.51655 0.99402 0.14587 0.0
H61 H 0.42592 0.92872 0.24578 0.0
H62 H 0.6104 0.10295 0.24822 0.0
N63 N 0.62533 0.10306 0.17611 0.0
N64 N 0.67205 0.15157 0.19343 0.0
C65 C 0.51742 1.00024 0.17505 0.0
C66 C 0.46425 0.95417 0.19368 0.0
C67 C 0.57153 0.05499 0.19449 0.0
C68 C 0.5706 0.0619 0.23257 0.0
C69 C 0.5181 1.01659 0.2507 0.0
C70 C 0.46615 0.96326 0.23131 0.0
H71 H 0.51385 0.49465 0.47974 0.0
H72 H 0.54629 0.42896 0.58194 0.0
H73 H 0.55701 0.613 0.57979 0.0
N74 N 0.53008 0.61071 0.50819 0.0
N75 N 0.53821 0.66082 0.52553 0.0
C76 C 0.52485 0.50239 0.50884 0.0
C77 C 0.52892 0.4539 0.52866 0.0
C78 C 0.53482 0.56091 0.52709 0.0
C79 C 0.54917 0.5694 0.565 0.0
C80 C 0.55333 0.52238 0.58448 0.0
C81 C 0.54318 0.46517 0.5664 0.0
H82 H 0.05088 0.52813 0.81258 0.0
H83 H 0.9756 0.53573 0.91533 0.0
H84 H 0.14883 0.5235 0.9133 0.0
N85 N 0.15687 0.52241 0.84109 0.0
N86 N 0.2025 0.52022 0.85841 0.0
C87 C 0.05424 0.52853 0.84187 0.0
C88 C 1.00626 0.53245 0.86182 0.0
C89 C 0.10687 0.52542 0.86023 0.0
C90 C 0.10971 0.52585 0.8984 0.0
C91 C 0.06267 0.52927 0.91791 0.0
C92 C 1.01162 0.53279 0.89974 0.0
H93 H 0.0805 0.56456 0.50943 0.0
H94 H 0.14321 0.65301 0.40913 0.0
H95 H 0.96553 0.4711 0.40953 0.0
N96 N 0.97151 0.46757 0.4822 0.0
N97 N 0.91314 0.44739 0.47394 0.0
C98 C 0.07473 0.56232 0.48005 0.0
C99 C 0.11817 0.61313 0.46116 0.0
C100 C 1.01919 0.51233 0.4616 0.0
C101 C 1.00894 0.51059 0.42381 0.0
C102 C 0.05466 0.56068 0.40484 0.0
C103 C 0.10927 0.61235 0.42354 0.0
H104 H 0.64497 0.09442 0.84181 0.0
H105 H 0.60203 0.16493 0.7449 0.0
H106 H 0.61399 0.99098 0.73893 0.0
N107 N 0.63436 0.99021 0.81024 0.0
N108 N 0.58917 0.93364 0.80503 0.0
C109 C 0.637 0.09141 0.81249 0.0
C110 C 0.62486 0.1355 0.79551 0.0
C111 C 0.63145 0.03899 0.79216 0.0
C112 C 0.61831 0.03249 0.75446 0.0
C113 C 0.61011 0.07925 0.73719 0.0
C114 C 0.61237 0.1306 0.75783 0.0
H115 H 0.58264 0.50348 0.17605 0.0
H116 H 0.67917 0.51278 0.07935 0.0
H117 H 0.48862 0.49211 0.07197 0.0
N118 N 0.48271 0.50232 0.14306 0.0
N119 N 0.47871 0.55159 0.13908 0.0
C120 C 0.58175 0.49949 0.14669 0.0
C121 C 0.63596 0.50761 0.13 0.0
C122 C 0.52969 0.49522 0.12573 0.0
C123 C 0.52917 0.49401 0.0879 0.0
C124 C 0.58191 0.49759 0.071 0.0
C125 C 0.63613 0.50538 0.09214 0.0
C126 C 0.31544 0.52399 0.17067 0.0
C127 C 0.25904 0.50629 0.16974 0.0
C128 C 0.38022 0.54685 0.16548 0.0
C129 C 0.42975 0.55533 0.15458 0.0
C130 C 0.79906 0.30205 0.52828 0.0
C131 C 0.75902 0.24731 0.53123 0.0
C132 C 0.83657 0.36055 0.51341 0.0
C133 C 0.86936 0.40311 0.49513 0.0
C134 C 0.63992 0.81938 0.83526 0.0
C135 C 0.66001 0.7828 0.83534 0.0
C136 C 0.61582 0.85194 0.83059 0.0
C137 C 0.59723 0.88693 0.82051 0.0
C138 C 0.81006 0.57564 0.18144 0.0
C139 C 0.86572 0.58993 0.18368 0.0
C140 C 0.74551 0.54954 0.16882 0.0
C141 C 0.69462 0.53024 0.15194 0.0
C142 C 0.24065 0.79175 0.49403 0.0
C143 C 0.27439 0.84825 0.49191 0.0
C144 C 0.20294 0.72519 0.491 0.0
C145 C 0.16344 0.67147 0.48073 0.0
C146 C 0.58339 0.25582 0.84789 0.0
C147 C 0.56748 0.29556 0.85056 0.0
C148 C 0.60433 0.21506 0.83465 0.0
C149 C 0.6141 0.17819 0.81752 0.0
C150 C 0.53381 0.8224 0.50082 0.0
C151 C 0.53356 0.87371 0.50014 0.0
C152 C 0.53359 0.76188 0.5036 0.0
C153 C 0.53454 0.71232 0.51033 0.0
C154 C 0.84278 0.54372 0.83345 0.0
C155 C 0.79191 0.54538 0.8315 0.0
C156 C 0.90163 0.53995 0.83802 0.0
C157 C 0.95067 0.53637 0.84527 0.0
C158 C 0.28904 0.78983 0.16743 0.0
C159 C 0.23626 0.73969 0.16655 0.0
C160 C 0.35225 0.84799 0.17015 0.0
C161 C 0.40533 0.89736 0.17637 0.0
C162 C 0.50735 0.27493 0.50032 0.0
C163 C 0.50509 0.22224 0.49825 0.0
C164 C 0.51261 0.33812 0.50502 0.0
C165 C 0.51881 0.39176 0.51225 0.0
C166 C 0.36267 0.51511 0.83281 0.0
C167 C 0.41441 0.51566 0.83229 0.0
C168 C 0.30285 0.51607 0.83571 0.0
C169 C 0.25397 0.51777 0.84281 0.0
C170 C 0.8364 0.30716 0.16475 0.0
C171 C 0.88748 0.35844 0.16312 0.0
C172 C 0.77602 0.24828 0.16948 0.0
C173 C 0.72593 0.20083 0.17762 0.0
C174 C 0.06484 0.53149 0.02765 0.0
C175 C 0.05885 0.53808 0.05945 0.0
C176 C 0.06773 0.52904 0.98959 0.0
C177 C 0.06674 0.52905 0.95695 0.0
C178 C 0.50402 0.0309 0.35952 0.0
C179 C 0.51043 0.03911 0.39224 0.0
C180 C 0.50895 0.02725 0.32154 0.0
C181 C 0.51536 0.02454 0.28941 0.0
C182 C 0.58984 0.54362 0.69435 0.0
C183 C 0.5939 0.53548 0.72626 0.0
C184 C 0.57912 0.54077 0.65606 0.0
C185 C 0.56742 0.53292 0.62348 0.0
C186 C 0.56543 0.06072 0.62916 0.0
C187 C 0.54223 0.05092 0.5984 0.0
C188 C 0.5844 0.068 0.66639 0.0
C189 C 0.59615 0.07274 0.69867 0.0
C190 C 0.5864 0.50488 0.96227 0.0
C191 C 0.59407 0.52002 0.93149 0.0
C192 C 0.58255 0.49815 -0.00019 0.0
C193 C 0.58218 0.49789 0.03227 0.0
C194 C 0.0467 0.56591 0.29669 0.0
C195 C 0.05636 0.56162 0.26554 0.0
C196 C 0.04229 0.56395 0.33423 0.0
C197 C 0.0457 0.56027 0.36638 0.0
loop_
_geom_bond_atom_site_label_1
_geom_bond_atom_site_label_2
_geom_bond_distance
_geom_bond_site_symmetry_2
_ccdc_geom_bond_type
Dy0 O4 2.398 . S
Dy0 O5 2.491 . S
Dy0 O6 2.403 . S
Dy0 O7 2.664 . S
Dy0 O11 2.326 . S
Dy0 O15 2.310 . S
Dy0 O16 2.351 1_455 S
C1 O12 1.185 . S
C1 O13 1.355 . S
C2 O4 1.185 . S
C2 O5 1.355 . S
Dy3 O7 2.310 1_655 S
Dy3 O10 2.351 1_655 S
Dy3 O12 2.398 . S
Dy3 O13 2.491 . S
Dy3 O14 2.403 . S
Dy3 O15 2.664 1_655 S
Dy3 O17 2.326 . S
O4 Dy0 2.398 . S
O4 C2 1.185 . S
O5 Dy0 2.491 . S
O5 C2 1.355 . S
O6 Dy0 2.403 . S
O6 C8 1.254 . S
O7 Dy0 2.664 . S
O7 Dy3 2.310 1_455 S
O7 C8 1.268 . S
C8 O6 1.254 . S
C8 O7 1.268 . S
C9 O14 1.254 1_455 S
C9 O15 1.268 . S
O10 Dy3 2.351 1_455 S
O10 C18 1.249 . S
O11 Dy0 2.326 . S
O11 C18 1.267 . S
O12 C1 1.185 . S
O12 Dy3 2.398 . S
O13 C1 1.355 . S
O13 Dy3 2.491 . S
O14 Dy3 2.403 . S
O14 C9 1.254 1_655 S
O15 Dy0 2.310 . S
O15 Dy3 2.664 1_455 S
O15 C9 1.268 . S
O16 Dy0 2.351 1_655 S
O16 C19 1.249 . S
O17 Dy3 2.326 . S
O17 C19 1.267 . S
C18 O10 1.249 . S
C18 O11 1.267 . S
C19 O16 1.249 . S
C19 O17 1.267 . S
Dy20 O24 2.398 . S
Dy20 O25 2.491 . S
Dy20 O26 2.403 . S
Dy20 O27 2.664 1_565 S
Dy20 O31 2.326 . S
Dy20 O35 2.310 1_565 S
Dy20 O36 2.351 1_565 S
C21 O32 1.185 . S
C21 O33 1.355 . S
C22 O24 1.185 . S
C22 O25 1.355 . S
Dy23 O27 2.310 . S
Dy23 O30 2.351 1_545 S
Dy23 O32 2.398 . S
Dy23 O33 2.491 . S
Dy23 O34 2.403 . S
Dy23 O35 2.664 . S
Dy23 O37 2.326 . S
O24 Dy20 2.398 . S
O24 C22 1.185 . S
O25 Dy20 2.491 . S
O25 C22 1.355 . S
O26 Dy20 2.403 . S
O26 C28 1.254 1_565 S
O27 Dy20 2.664 1_545 S
O27 Dy23 2.310 . S
O27 C28 1.268 . S
C28 O26 1.254 1_545 S
C28 O27 1.268 . S
C29 O34 1.254 . S
C29 O35 1.268 . S
O30 Dy23 2.351 1_565 S
O30 C38 1.249 . S
O31 Dy20 2.326 . S
O31 C38 1.267 . S
O32 C21 1.185 . S
O32 Dy23 2.398 . S
O33 C21 1.355 . S
O33 Dy23 2.491 . S
O34 Dy23 2.403 . S
O34 C29 1.254 . S
O35 Dy20 2.310 1_545 S
O35 Dy23 2.664 . S
O35 C29 1.268 . S
O36 Dy20 2.351 1_545 S
O36 C39 1.249 . S
O37 Dy23 2.326 . S
O37 C39 1.267 . S
C38 O30 1.249 . S
C38 O31 1.267 . S
C39 O36 1.249 . S
C39 O37 1.267 . S
Dy40 O44 2.398 . S
Dy40 O45 2.491 . S
Dy40 O46 2.403 . S
Dy40 O47 2.664 . S
Dy40 O51 2.326 . S
Dy40 O55 2.310 . S
Dy40 O56 2.351 . S
C41 O52 1.185 . S
C41 O53 1.355 . S
C42 O44 1.185 . S
C42 O45 1.355 . S
Dy43 O47 2.310 . S
Dy43 O50 2.351 . S
Dy43 O52 2.398 . S
Dy43 O53 2.491 . S
Dy43 O54 2.403 . S
Dy43 O55 2.664 . S
Dy43 O57 2.326 . S
O44 Dy40 2.398 . S
O44 C42 1.185 . S
O45 Dy40 2.491 . S
O45 C42 1.355 . S
O46 Dy40 2.403 . S
O46 C48 1.254 . S
O47 Dy40 2.664 . S
O47 Dy43 2.310 . S
O47 C48 1.268 . S
C48 O46 1.254 . S
C48 O47 1.268 . S
C49 O54 1.254 . S
C49 O55 1.268 . S
O50 Dy43 2.351 . S
O50 C58 1.249 . S
O51 Dy40 2.326 . S
O51 C58 1.267 . S
O52 C41 1.185 . S
O52 Dy43 2.398 . S
O53 C41 1.355 . S
O53 Dy43 2.491 . S
O54 Dy43 2.403 . S
O54 C49 1.254 . S
O55 Dy40 2.310 . S
O55 Dy43 2.664 . S
O55 C49 1.268 . S
O56 Dy40 2.351 . S
O56 C59 1.249 . S
O57 Dy43 2.326 . S
O57 C59 1.267 . S
C58 O50 1.249 . S
C58 O51 1.267 . S
C59 O56 1.249 . S
C59 O57 1.267 . S
H60 C65 0.929 . S
H61 C70 0.931 . S
H62 C68 0.930 . S
N63 N64 1.234 . S
N63 C67 1.453 . S
N64 N63 1.234 . S
C65 H60 0.929 . S
C65 C66 1.373 . S
C65 C67 1.368 1_565 S
C66 C65 1.373 . S
C66 C70 1.397 . S
C67 N63 1.453 . S
C67 C65 1.368 1_545 S
C67 C68 1.373 . S
C68 H62 0.930 . S
C68 C67 1.373 . S
C68 C69 1.370 . S
C69 C68 1.370 . S
C69 C70 1.384 1_545 S
C70 H61 0.931 . S
C70 C66 1.397 . S
C70 C69 1.384 1_565 S
H71 C76 0.929 . S
H72 C81 0.931 . S
H73 C79 0.930 . S
N74 N75 1.234 . S
N74 C78 1.453 . S
N75 N74 1.234 . S
C76 H71 0.929 . S
C76 C77 1.373 . S
C76 C78 1.368 . S
C77 C76 1.373 . S
C77 C81 1.397 . S
C78 N74 1.453 . S
C78 C76 1.368 . S
C78 C79 1.373 . S
C79 H73 0.930 . S
C79 C78 1.373 . S
C79 C80 1.371 . S
C80 C79 1.371 . S
C80 C81 1.383 . S
C81 H72 0.931 . S
C81 C77 1.397 . S
C81 C80 1.383 . S
H82 C87 0.929 . S
H83 C92 0.931 . S
H84 C90 0.930 . S
N85 N86 1.234 . S
N85 C89 1.453 . S
N86 N85 1.234 . S
C87 H82 0.929 . S
C87 C88 1.373 1_455 S
C87 C89 1.368 . S
C88 C87 1.373 1_655 S
C88 C92 1.397 . S
C89 N85 1.453 . S
C89 C87 1.368 . S
C89 C90 1.373 . S
C90 H84 0.930 . S
C90 C89 1.373 . S
C90 C91 1.371 . S
C91 C90 1.371 . S
C91 C92 1.383 1_455 S
C92 H83 0.931 . S
C92 C88 1.397 . S
C92 C91 1.383 1_655 S
H93 C98 0.929 . S
H94 C103 0.931 . S
H95 C101 0.930 . S
N96 N97 1.234 . S
N96 C100 1.453 . S
N97 N96 1.234 . S
C98 H93 0.929 . S
C98 C99 1.373 . S
C98 C100 1.368 1_455 S
C99 C98 1.373 . S
C99 C103 1.397 . S
C100 N96 1.453 . S
C100 C98 1.368 1_655 S
C100 C101 1.373 . S
C101 H95 0.930 . S
C101 C100 1.373 . S
C101 C102 1.371 1_655 S
C102 C101 1.371 1_455 S
C102 C103 1.383 . S
C103 H94 0.931 . S
C103 C99 1.397 . S
C103 C102 1.383 . S
H104 C109 0.929 . S
H105 C114 0.931 . S
H106 C112 0.930 1_565 S
N107 N108 1.234 . S
N107 C111 1.453 1_565 S
N108 N107 1.234 . S
C109 H104 0.929 . S
C109 C110 1.373 . S
C109 C111 1.368 . S
C110 C109 1.373 . S
C110 C114 1.397 . S
C111 N107 1.453 1_545 S
C111 C109 1.368 . S
C111 C112 1.373 . S
C112 H106 0.930 1_545 S
C112 C111 1.373 . S
C112 C113 1.371 . S
C113 C112 1.371 . S
C113 C114 1.383 . S
C114 H105 0.931 . S
C114 C110 1.397 . S
C114 C113 1.383 . S
H115 C120 0.929 . S
H116 C125 0.931 . S
H117 C123 0.930 . S
N118 N119 1.234 . S
N118 C122 1.453 . S
N119 N118 1.234 . S
C120 H115 0.929 . S
C120 C121 1.373 . S
C120 C122 1.368 . S
C121 C120 1.373 . S
C121 C125 1.397 . S
C122 N118 1.453 . S
C122 C120 1.368 . S
C122 C123 1.373 . S
C123 H117 0.930 . S
C123 C122 1.373 . S
C123 C124 1.371 . S
C124 C123 1.371 . S
C124 C125 1.383 . S
C125 H116 0.931 . S
C125 C121 1.397 . S
C125 C124 1.383 . S
C126 C127 1.170 . S
C126 C128 1.380 . S
C127 C126 1.170 . S
C128 C126 1.380 . S
C128 C129 1.170 . S
C129 C128 1.170 . S
C130 C131 1.170 . S
C130 C132 1.380 . S
C131 C130 1.170 . S
C132 C130 1.380 . S
C132 C133 1.170 . S
C133 C132 1.170 . S
C134 C135 1.170 . S
C134 C136 1.380 . S
C135 C134 1.170 . S
C136 C134 1.380 . S
C136 C137 1.170 . S
C137 C136 1.170 . S
C138 C139 1.170 . S
C138 C140 1.380 . S
C139 C138 1.170 . S
C140 C138 1.380 . S
C140 C141 1.170 . S
C141 C140 1.170 . S
C142 C143 1.170 . S
C142 C144 1.380 . S
C143 C142 1.170 . S
C144 C142 1.380 . S
C144 C145 1.170 . S
C145 C144 1.170 . S
C146 C147 1.170 . S
C146 C148 1.380 . S
C147 C146 1.170 . S
C148 C146 1.380 . S
C148 C149 1.170 . S
C149 C148 1.170 . S
C150 C151 1.170 . S
C150 C152 1.380 . S
C151 C150 1.170 . S
C152 C150 1.380 . S
C152 C153 1.170 . S
C153 C152 1.170 . S
C154 C155 1.170 . S
C154 C156 1.380 . S
C155 C154 1.170 . S
C156 C154 1.380 . S
C156 C157 1.170 . S
C157 C156 1.170 . S
C158 C159 1.170 . S
C158 C160 1.380 . S
C159 C158 1.170 . S
C160 C158 1.380 . S
C160 C161 1.170 . S
C161 C160 1.170 . S
C162 C163 1.170 . S
C162 C164 1.380 . S
C163 C162 1.170 . S
C164 C162 1.380 . S
C164 C165 1.170 . S
C165 C164 1.170 . S
C166 C167 1.170 . S
C166 C168 1.380 . S
C167 C166 1.170 . S
C168 C166 1.380 . S
C168 C169 1.170 . S
C169 C168 1.170 . S
C170 C171 1.170 . S
C170 C172 1.380 . S
C171 C170 1.170 . S
C172 C170 1.380 . S
C172 C173 1.170 . S
C173 C172 1.170 . S
C174 C175 1.170 . S
C174 C176 1.380 1_554 S
C175 C174 1.170 . S
C176 C174 1.380 1_556 S
C176 C177 1.170 . S
C177 C176 1.170 . S
C178 C179 1.170 . S
C178 C180 1.380 . S
C179 C178 1.170 . S
C180 C178 1.380 . S
C180 C181 1.170 . S
C181 C180 1.170 . S
C182 C183 1.170 . S
C182 C184 1.380 . S
C183 C182 1.170 . S
C184 C182 1.380 . S
C184 C185 1.170 . S
C185 C184 1.170 . S
C186 C187 1.170 . S
C186 C188 1.380 . S
C187 C186 1.170 . S
C188 C186 1.380 . S
C188 C189 1.170 . S
C189 C188 1.170 . S
C190 C191 1.170 . S
C190 C192 1.380 1_556 S
C191 C190 1.170 . S
C192 C190 1.380 1_554 S
C192 C193 1.170 . S
C193 C192 1.170 . S
C194 C195 1.170 . S
C194 C196 1.380 . S
C195 C194 1.170 . S
C196 C194 1.380 . S
C196 C197 1.170 . S
C197 C196 1.170 . S
C127 C2 1.169 . S
C129 N119 1.114 . S
C131 C21 1.091 . S
C133 N97 1.097 . S
C135 C42 1.120 . S
C137 N108 1.105 . S
C139 C1 0.979 . S
C141 C121 0.988 . S
C145 C99 1.003 . S
C143 C22 1.032 . S
C149 C110 0.954 . S
C147 C41 0.954 . S
C151 C38 1.943 . S
C153 N75 1.876 . S
C155 C59 1.891 . S
C157 C88 1.876 . S
C159 C18 1.841 . S
C161 C66 1.826 . S
C165 C77 1.860 . S
C163 C39 1.896 . S
C169 N86 1.893 . S
C167 C58 1.935 . S
C171 C19 2.011 . S
C173 N64 1.917 . S
C177 C91 1.573 . S
C175 C9 1.551 . S
C179 C29 1.525 . S
C181 C69 1.608 . S
C183 C49 1.523 . S
C185 C80 1.577 . S
C189 C113 1.485 . S
C187 C28 1.482 . S
C193 C124 1.449 . S
C191 C48 1.422 . S
C195 C8 1.389 . S
C197 C102 1.428 . S
