# Generated by pormake.
# Topology pyr, (3,6)-cn, num edge types: 1
# Building blocks:
#     Node 0, Type 0, BuildingBlock: QEWDON_clean_linker_0, # of connection points: 3
#     Node 1, Type 0, BuildingBlock: QEWDON_clean_linker_0, # of connection points: 3
#     Node 2, Type 0, BuildingBlock: QEWDON_clean_linker_0, # of connection points: 3
#     Node 3, Type 0, BuildingBlock: QEWDON_clean_linker_0, # of connection points: 3
#     Node 4, Type 0, BuildingBlock: QEWDON_clean_linker_0, # of connection points: 3
#     Node 5, Type 0, BuildingBlock: QEWDON_clean_linker_0, # of connection points: 3
#     Node 6, Type 0, BuildingBlock: QEWDON_clean_linker_0, # of connection points: 3
#     Node 7, Type 0, BuildingBlock: QEWDON_clean_linker_0, # of connection points: 3
#     Node 8, Type 1, BuildingBlock: MIDCAF_clean_sbu_0, # of connection points: 6
#     Node 9, Type 1, BuildingBlock: MIDCAF_clean_sbu_0, # of connection points: 6
#     Node 10, Type 1, BuildingBlock: MIDCAF_clean_sbu_0, # of connection points: 6
#     Node 11, Type 1, BuildingBlock: MIDCAF_clean_sbu_0, # of connection points: 6
#     Edge 12, Type (0, 1), None
#     Edge 13, Type (0, 1), None
#     Edge 14, Type (0, 1), None
#     Edge 15, Type (0, 1), None
#     Edge 16, Type (0, 1), None
#     Edge 17, Type (0, 1), None
#     Edge 18, Type (0, 1), None
#     Edge 19, Type (0, 1), None
#     Edge 20, Type (0, 1), None
#     Edge 21, Type (0, 1), None
#     Edge 22, Type (0, 1), None
#     Edge 23, Type (0, 1), None
#     Edge 24, Type (0, 1), None
#     Edge 25, Type (0, 1), None
#     Edge 26, Type (0, 1), None
#     Edge 27, Type (0, 1), None
#     Edge 28, Type (0, 1), None
#     Edge 29, Type (0, 1), None
#     Edge 30, Type (0, 1), None
#     Edge 31, Type (0, 1), None
#     Edge 32, Type (0, 1), None
#     Edge 33, Type (0, 1), None
#     Edge 34, Type (0, 1), None
#     Edge 35, Type (0, 1), None
# Relax obj value: 0.171
# Max RMSD: 0.259
# Mean RMSD: 0.184
data_MOF--net-pyr--node1-MIDCAF_clean_sbu_0--node2-QEWDON_clean_linker_0--edge1-none
_symmetry_space_group_name_H-M    P1
_symmetry_Int_Tables_number       1
_symmetry_cell_setting            triclinic
loop_
_symmetry_equiv_pos_as_xyz
'x, y, z'
_cell_length_a     15.900498
_cell_length_b     16.448388
_cell_length_c     16.985101
_cell_angle_alpha  90.304384
_cell_angle_beta   92.320796
_cell_angle_gamma 101.02261
loop_
_atom_site_label
_atom_site_type_symbol
_atom_site_fract_x
_atom_site_fract_y
_atom_site_fract_z
_atom_type_partial_charge
H0 H 0.34926 0.30339 0.23161 0.0
C1 C 0.3197 0.2614 0.27596 0.0
C2 C 0.34086 0.182 0.28274 0.0
C3 C 0.26006 0.28673 0.3255 0.0
H4 H 0.31099 0.0643 0.33985 0.0
C5 C 0.29905 0.12703 0.33827 0.0
C6 C 0.23629 0.14946 0.38645 0.0
C7 C 0.21954 0.23059 0.38138 0.0
C8 C 0.24128 0.37245 0.32033 0.0
H9 H 0.17144 0.24866 0.4176 0.0
C10 C 0.18755 0.3962 0.25953 0.0
C11 C 0.16849 0.47732 0.25814 0.0
C12 C 0.27441 0.43028 0.37992 0.0
H13 H 0.31379 0.41307 0.42807 0.0
C14 C 0.25627 0.51019 0.37853 0.0
H15 H 0.15771 0.35075 0.21543 0.0
C16 C 0.20447 0.53395 0.31779 0.0
H17 H 0.18868 0.59513 0.31979 0.0
H18 H 0.2813 0.55363 0.42573 0.0
H19 H 0.26174 0.89217 0.91348 0.0
C20 C 0.31367 0.86487 0.89247 0.0
C21 C 0.3968 0.88646 0.92916 0.0
C22 C 0.29754 0.80889 0.8279 0.0
H23 H 0.52855 0.86969 0.92043 0.0
C24 C 0.46383 0.85215 0.89582 0.0
C25 C 0.44752 0.79816 0.82802 0.0
C26 C 0.36383 0.7756 0.79776 0.0
C27 C 0.21386 0.78627 0.78467 0.0
H28 H 0.35023 0.73491 0.74639 0.0
C29 C 0.19066 0.83891 0.72604 0.0
C30 C 0.12529 0.80848 0.66909 0.0
C31 C 0.17088 0.70333 0.78551 0.0
H32 H 0.19098 0.66072 0.82739 0.0
C33 C 0.1046 0.67378 0.73013 0.0
H34 H 0.22657 0.9017 0.72196 0.0
C35 C 0.08207 0.726 0.67178 0.0
H36 H 0.03163 0.70188 0.62827 0.0
H37 H 0.07205 0.6097 0.73138 0.0
H38 H 0.80125 0.45217 0.90892 0.0
C39 C 0.76605 0.39191 0.925 0.0
C40 C 0.79841 0.35162 0.98847 0.0
C41 C 0.68086 0.36615 0.89713 0.0
H42 H 0.76526 0.25607 0.07564 0.0
C43 C 0.74565 0.28143 1.02061 0.0
C44 C 0.66281 0.25175 0.98748 0.0
C45 C 0.63628 0.28878 0.91934 0.0
C46 C 0.63063 0.42982 0.87257 0.0
H47 H 0.57276 0.26605 0.89305 0.0
C48 C 0.66949 0.50133 0.83335 0.0
C49 C 0.62695 0.56766 0.8245 0.0
C50 C 0.54725 0.42592 0.90062 0.0
H51 H 0.51557 0.37397 0.93404 0.0
C52 C 0.5047 0.49158 0.89026 0.0
H53 H 0.73236 0.5057 0.8095 0.0
C54 C 0.54467 0.5626 0.8532 0.0
H55 H 0.51126 0.61362 0.84788 0.0
H56 H 0.44141 0.48819 0.91282 0.0
H57 H 0.8274 0.87452 0.29633 0.0
C58 C 0.78798 0.85116 0.34512 0.0
C59 C 0.81303 0.88158 0.42037 0.0
C60 C 0.72064 0.78338 0.33318 0.0
H61 H 0.78755 0.8734 0.54264 0.0
C62 C 0.76522 0.84944 0.48435 0.0
C63 C 0.697 0.7805 0.47533 0.0
C64 C 0.67501 0.74723 0.39835 0.0
C65 C 0.71608 0.74263 0.25504 0.0
H66 H 0.6268 0.69166 0.38958 0.0
C67 C 0.78509 0.70545 0.23572 0.0
C68 C 0.79976 0.68702 0.15718 0.0
C69 C 0.65937 0.75949 0.19473 0.0
H70 H 0.60846 0.79203 0.20764 0.0
C71 C 0.67158 0.73868 0.11639 0.0
H72 H 0.83027 0.69461 0.28229 0.0
C73 C 0.74168 0.70298 0.09748 0.0
H74 H 0.74902 0.68578 0.0369 0.0
H75 H 0.6275 0.75169 0.07001 0.0
H76 H 0.83353 0.7892 0.96295 0.0
C77 C 0.87291 0.82611 0.92085 0.0
C78 C 0.94927 0.80327 0.89745 0.0
C79 C 0.84591 0.89518 0.88648 0.0
H80 H 0.05605 0.83637 0.81901 0.0
C81 C 0.99793 0.8527 0.83875 0.0
C82 C 0.97245 0.92486 0.80812 0.0
C83 C 0.8977 0.94468 0.83457 0.0
C84 C 0.76568 0.92253 0.9037 0.0
H85 H 0.87758 7e-05 0.81238 0.0
C86 C 0.74858 0.93974 0.98121 0.0
C87 C 0.68865 0.98947 0.99583 0.0
C88 C 0.7179 0.95088 0.84121 0.0
H89 H 0.73044 0.93882 0.78043 0.0
C90 C 0.65745 -0.00075 0.85598 0.0
H91 H 0.78481 0.9185 0.02982 0.0
C92 C 0.64347 0.01947 0.93313 0.0
H93 H 0.59398 0.05457 0.94361 0.0
H94 H 0.62169 0.02122 0.80764 0.0
H95 H 0.73164 0.17484 0.62254 0.0
C96 C 0.71157 0.15625 0.56226 0.0
C97 C 0.75995 0.11031 0.51868 0.0
C98 C 0.6379 0.18048 0.52996 0.0
H99 H 0.76912 0.05346 0.40639 0.0
C100 C 0.73159 0.08834 0.44028 0.0
C101 C 0.65555 0.11076 0.40561 0.0
C102 C 0.60913 0.15716 0.45174 0.0
C103 C 0.59252 0.22919 0.58179 0.0
H104 H 0.55145 0.17503 0.42724 0.0
C105 C 0.61894 0.3158 0.58899 0.0
C106 C 0.58593 0.3614 0.64748 0.0
C107 C 0.53437 0.18771 0.63484 0.0
H108 H 0.51534 0.12086 0.63202 0.0
C109 C 0.50318 0.23176 0.69406 0.0
H110 H 0.66495 0.34742 0.54863 0.0
C111 C 0.5291 0.3177 0.70082 0.0
H112 H 0.50257 0.35011 0.74642 0.0
H113 H 0.45883 0.19911 0.73515 0.0
H114 H 0.47578 0.76766 0.27003 0.0
C115 C 0.41802 0.75104 0.23259 0.0
C116 C 0.38444 0.81198 0.19287 0.0
C117 C 0.38183 0.66809 0.22182 0.0
H118 H 0.28481 0.83703 0.11171 0.0
C119 C 0.31091 0.78971 0.14329 0.0
C120 C 0.27076 0.70579 0.13594 0.0
C121 C 0.30837 0.64485 0.17311 0.0
C122 C 0.42158 0.60822 0.26523 0.0
H123 H 0.28088 0.57985 0.16417 0.0
C124 C 0.43974 0.62222 0.34608 0.0
C125 C 0.47934 0.56831 0.38955 0.0
C126 C 0.44582 0.54118 0.22701 0.0
H127 H 0.43312 0.53077 0.16425 0.0
C128 C 0.48853 0.48836 0.26996 0.0
H129 H 0.41774 0.67222 0.37611 0.0
C130 C 0.50478 0.50134 0.35092 0.0
H131 H 0.53455 0.45728 0.38323 0.0
H132 H 0.50755 0.4364 0.24091 0.0
H133 H 0.34418 0.41947 0.78369 0.0
C134 C 0.30733 0.37133 0.74567 0.0
C135 C 0.32264 0.36938 0.6645 0.0
C136 C 0.24306 0.31118 0.77744 0.0
H137 H 0.2728 0.31383 0.55107 0.0
C138 C 0.26742 0.31159 0.61446 0.0
C139 C 0.20241 0.2535 0.64663 0.0
C140 C 0.19615 0.24954 0.72832 0.0
C141 C 0.20619 0.32223 0.85418 0.0
H142 H 0.14467 0.20495 0.75274 0.0
C143 C 0.16819 0.39135 0.86437 0.0
C144 C 0.10952 0.39339 0.92358 0.0
C145 C 0.18746 0.25552 0.90613 0.0
H146 H 0.21404 0.20029 0.89785 0.0
C147 C 0.13008 0.2577 0.96606 0.0
H148 H 0.18118 0.4423 0.82353 0.0
C149 C 0.09033 0.32593 0.97434 0.0
H150 H 0.04715 0.32719 1.02187 0.0
H151 H 0.11546 0.20587 1.00546 0.0
Zn152 Zn 0.98301 0.11357 0.65409 0.0
Zn153 Zn 0.08401 0.92203 0.45463 0.0
Zn154 Zn 0.0287 0.02613 0.55826 0.0
C155 C 0.17885 0.0833 0.42986 0.0
C156 C 0.90174 0.92464 0.43569 0.0
O157 O 0.01903 0.95657 0.67516 0.0
O158 O 0.01223 0.05856 0.75587 0.0
C159 C 0.12768 0.20771 0.60108 0.0
O160 O 0.13925 0.09881 0.4916 0.0
O161 O 0.164 0.01091 0.40045 0.0
O162 O 0.96061 0.88707 0.4169 0.0
O163 O 0.91762 0.98729 0.4829 0.0
O164 O 0.05691 0.21901 0.62526 0.0
O165 O 0.13147 0.13745 0.56943 0.0
O166 O 0.89516 0.05608 0.52011 0.0
O167 O 0.86091 0.11571 0.6269 0.0
C168 C 0.84152 0.09157 0.5567 0.0
O169 O 0.06204 0.91894 0.61983 0.0
O170 O 0.12907 0.85166 0.53654 0.0
C171 C 0.01397 0.98251 0.74631 0.0
C172 C 0.10445 0.86171 0.60508 0.0
Zn173 Zn 0.42574 0.1134 0.05859 0.0
Zn174 Zn 0.59933 0.96776 0.21782 0.0
Zn175 Zn 0.52589 0.05667 0.15234 0.0
C176 C 0.66401 0.00043 0.0758 0.0
C177 C 0.43479 0.89577 0.19851 0.0
O178 O 0.46064 0.12335 0.23696 0.0
O179 O 0.36029 0.1469 0.15055 0.0
C180 C 0.59595 0.19633 0.03057 0.0
O181 O 0.6437 0.06913 0.09649 0.0
O182 O 0.64024 0.93626 0.11564 0.0
O183 O 0.48454 0.91473 0.25829 0.0
O184 O 0.45052 0.93779 0.13615 0.0
O185 O 0.51813 0.19997 1.01573 0.0
O186 O 0.6145 0.14311 0.08009 0.0
O187 O 0.4597 0.95339 0.05646 0.0
O188 O 0.38237 0.01974 0.97854 0.0
C189 C 0.4142 0.95585 0.99089 0.0
O190 O 0.55469 0.08731 0.2867 0.0
O191 O 0.67724 0.04439 0.28723 0.0
C192 C 0.39111 0.15054 0.2209 0.0
C193 C 0.62773 0.08249 0.32219 0.0
Zn194 Zn 0.7015 0.78874 0.73901 0.0
Zn195 Zn 0.54326 0.43996 0.51387 0.0
Zn196 Zn 0.52819 0.6121 0.64761 0.0
C197 C 0.6038 0.45414 0.64718 0.0
C198 C 0.474 0.56967 0.47523 0.0
O199 O 0.49667 0.70545 0.73521 0.0
O200 O 0.59179 0.81125 0.78925 0.0
C201 C 0.66464 0.64048 0.7809 0.0
O202 O 0.55114 0.49157 0.68075 0.0
O203 O 0.64184 0.48956 0.58908 0.0
O204 O 0.44609 0.50138 0.50567 0.0
O205 O 0.51721 0.62865 0.51894 0.0
O206 O 0.72941 0.69153 0.8076 0.0
O207 O 0.62729 0.65958 0.71875 0.0
O208 O 0.59538 0.67822 0.54636 0.0
O209 O 0.6899 0.7747 0.61459 0.0
C210 C 0.65811 0.74179 0.54877 0.0
O211 O 0.43397 0.49292 0.66776 0.0
O212 O 0.42344 0.40412 0.566 0.0
C213 C 0.51584 0.76933 0.78264 0.0
C214 C 0.39565 0.42602 0.631 0.0
Zn215 Zn 0.0964 0.64127 0.95662 0.0
Zn216 Zn 0.93678 0.49684 0.15918 0.0
Zn217 Zn 0.0068 0.57637 0.05306 0.0
C218 C 0.0955 0.49503 0.20795 0.0
C219 C 0.86735 0.40233 0.03779 0.0
O220 O 0.96319 0.69522 0.99861 0.0
O221 O 0.02644 0.69582 0.88575 0.0
C222 C 0.19205 0.68066 0.08723 0.0
O223 O 0.10171 0.55388 0.1562 0.0
O224 O 0.02318 0.45232 0.22051 0.0
O225 O 0.85315 0.40865 0.10959 0.0
O226 O 0.92825 0.45481 1.00695 0.0
O227 O 0.18308 0.71713 1.02328 0.0
O228 O 0.13498 0.61802 0.1067 0.0
O229 O 0.01183 0.47328 0.9759 0.0
O230 O 0.13141 0.53771 0.92536 0.0
C231 C 0.08032 0.4712 0.93892 0.0
O232 O 0.90605 0.64528 0.07497 0.0
O233 O 0.88734 0.59293 0.19388 0.0
C234 C 0.97814 0.72676 0.92894 0.0
C235 C 0.86951 0.64199 0.14129 0.0
loop_
_geom_bond_atom_site_label_1
_geom_bond_atom_site_label_2
_geom_bond_distance
_geom_bond_site_symmetry_2
_ccdc_geom_bond_type
H0 C1 0.949 . S
C1 H0 0.949 . S
C1 C2 1.395 . S
C1 C3 1.391 . S
C2 C1 1.395 . S
C2 C5 1.390 . S
C3 C1 1.391 . S
C3 C7 1.387 . S
C3 C8 1.491 . S
H4 C5 0.950 . S
C5 C2 1.390 . S
C5 H4 0.950 . S
C5 C6 1.378 . S
C6 C5 1.378 . S
C6 C7 1.409 . S
C7 C3 1.387 . S
C7 C6 1.409 . S
C7 H9 0.951 . S
C8 C3 1.491 . S
C8 C10 1.382 . S
C8 C12 1.404 . S
H9 C7 0.951 . S
C10 C8 1.382 . S
C10 C11 1.390 . S
C10 H15 0.949 . S
C11 C10 1.390 . S
C11 C16 1.399 . S
C12 C8 1.404 . S
C12 H13 0.950 . S
C12 C14 1.375 . S
H13 C12 0.950 . S
C14 C12 1.375 . S
C14 C16 1.382 . S
C14 H18 0.950 . S
H15 C10 0.949 . S
C16 C11 1.399 . S
C16 C14 1.382 . S
C16 H17 0.952 . S
H17 C16 0.952 . S
H18 C14 0.950 . S
H19 C20 0.949 . S
C20 H19 0.949 . S
C20 C21 1.395 . S
C20 C22 1.391 . S
C21 C20 1.395 . S
C21 C24 1.390 . S
C22 C20 1.391 . S
C22 C26 1.387 . S
C22 C27 1.491 . S
H23 C24 0.950 . S
C24 C21 1.390 . S
C24 H23 0.950 . S
C24 C25 1.378 . S
C25 C24 1.378 . S
C25 C26 1.409 . S
C26 C22 1.387 . S
C26 C25 1.409 . S
C26 H28 0.951 . S
C27 C22 1.491 . S
C27 C29 1.382 . S
C27 C31 1.404 . S
H28 C26 0.951 . S
C29 C27 1.382 . S
C29 C30 1.390 . S
C29 H34 0.949 . S
C30 C29 1.390 . S
C30 C35 1.399 . S
C31 C27 1.404 . S
C31 H32 0.950 . S
C31 C33 1.375 . S
H32 C31 0.950 . S
C33 C31 1.375 . S
C33 C35 1.382 . S
C33 H37 0.950 . S
H34 C29 0.949 . S
C35 C30 1.399 . S
C35 C33 1.382 . S
C35 H36 0.952 . S
H36 C35 0.952 . S
H37 C33 0.950 . S
H38 C39 0.949 . S
C39 H38 0.949 . S
C39 C40 1.395 . S
C39 C41 1.391 . S
C40 C39 1.395 . S
C40 C43 1.390 1_556 S
C41 C39 1.391 . S
C41 C45 1.387 . S
C41 C46 1.491 . S
H42 C43 0.950 . S
C43 C40 1.390 1_554 S
C43 H42 0.950 . S
C43 C44 1.378 . S
C44 C43 1.378 . S
C44 C45 1.409 1_554 S
C45 C41 1.387 . S
C45 C44 1.409 1_556 S
C45 H47 0.951 . S
C46 C41 1.491 . S
C46 C48 1.382 . S
C46 C50 1.404 . S
H47 C45 0.951 . S
C48 C46 1.382 . S
C48 C49 1.390 . S
C48 H53 0.949 . S
C49 C48 1.390 . S
C49 C54 1.399 . S
C50 C46 1.404 . S
C50 H51 0.950 . S
C50 C52 1.375 . S
H51 C50 0.950 . S
C52 C50 1.375 . S
C52 C54 1.382 . S
C52 H56 0.950 . S
H53 C48 0.949 . S
C54 C49 1.399 . S
C54 C52 1.382 . S
C54 H55 0.952 . S
H55 C54 0.952 . S
H56 C52 0.950 . S
H57 C58 0.949 . S
C58 H57 0.949 . S
C58 C59 1.395 . S
C58 C60 1.391 . S
C59 C58 1.395 . S
C59 C62 1.390 . S
C60 C58 1.391 . S
C60 C64 1.387 . S
C60 C65 1.491 . S
H61 C62 0.950 . S
C62 C59 1.390 . S
C62 H61 0.950 . S
C62 C63 1.378 . S
C63 C62 1.378 . S
C63 C64 1.409 . S
C64 C60 1.387 . S
C64 C63 1.409 . S
C64 H66 0.951 . S
C65 C60 1.491 . S
C65 C67 1.382 . S
C65 C69 1.404 . S
H66 C64 0.951 . S
C67 C65 1.382 . S
C67 C68 1.390 . S
C67 H72 0.949 . S
C68 C67 1.390 . S
C68 C73 1.399 . S
C69 C65 1.404 . S
C69 H70 0.950 . S
C69 C71 1.375 . S
H70 C69 0.950 . S
C71 C69 1.375 . S
C71 C73 1.382 . S
C71 H75 0.950 . S
H72 C67 0.949 . S
C73 C68 1.399 . S
C73 C71 1.382 . S
C73 H74 0.952 . S
H74 C73 0.952 . S
H75 C71 0.950 . S
H76 C77 0.949 1_554 S
C77 H76 0.949 1_556 S
C77 C78 1.395 1_655 S
C77 C79 1.391 . S
C78 C77 1.395 1_455 S
C78 C81 1.390 . S
C79 C77 1.391 . S
C79 C83 1.387 1_565 S
C79 C84 1.491 1_565 S
H80 C81 0.950 . S
C81 C78 1.390 . S
C81 H80 0.950 . S
C81 C82 1.389 . S
C82 C81 1.389 . S
C82 C83 1.403 1_465 S
C83 C79 1.387 1_545 S
C83 C82 1.403 1_645 S
C83 H85 0.951 . S
C84 C79 1.491 1_545 S
C84 C86 1.382 1_556 S
C84 C88 1.404 . S
H85 C83 0.951 . S
C86 C84 1.382 1_554 S
C86 C87 1.390 . S
C86 H91 0.949 . S
C87 C86 1.390 . S
C87 C92 1.401 . S
C88 C84 1.404 . S
C88 H89 0.950 . S
C88 C90 1.375 . S
H89 C88 0.950 . S
C90 C88 1.375 . S
C90 C92 1.380 1_556 S
C90 H94 0.950 . S
H91 C86 0.949 . S
C92 C87 1.401 . S
C92 C90 1.380 1_554 S
C92 H93 0.952 . S
H93 C92 0.952 . S
H94 C90 0.950 . S
H95 C96 0.949 . S
C96 H95 0.949 . S
C96 C97 1.395 . S
C96 C98 1.391 . S
C97 C96 1.395 . S
C97 C100 1.390 . S
C98 C96 1.391 . S
C98 C102 1.387 . S
C98 C103 1.491 . S
H99 C100 0.950 1_565 S
C100 C97 1.390 . S
C100 H99 0.950 1_545 S
C100 C101 1.378 . S
C101 C100 1.378 . S
C101 C102 1.409 . S
C102 C98 1.387 . S
C102 C101 1.409 . S
C102 H104 0.951 . S
C103 C98 1.491 . S
C103 C105 1.382 . S
C103 C107 1.404 . S
H104 C102 0.951 . S
C105 C103 1.382 . S
C105 C106 1.390 . S
C105 H110 0.949 . S
C106 C105 1.390 . S
C106 C111 1.399 . S
C107 C103 1.404 . S
C107 H108 0.950 . S
C107 C109 1.375 . S
H108 C107 0.950 . S
C109 C107 1.375 . S
C109 C111 1.382 . S
C109 H113 0.950 . S
H110 C105 0.949 . S
C111 C106 1.399 . S
C111 C109 1.382 . S
C111 H112 0.952 . S
H112 C111 0.952 . S
H113 C109 0.950 . S
H114 C115 0.949 . S
C115 H114 0.949 . S
C115 C116 1.395 . S
C115 C117 1.391 . S
C116 C115 1.395 . S
C116 C119 1.390 . S
C117 C115 1.391 . S
C117 C121 1.387 . S
C117 C122 1.491 . S
H118 C119 0.950 . S
C119 C116 1.390 . S
C119 H118 0.950 . S
C119 C120 1.378 . S
C120 C119 1.378 . S
C120 C121 1.409 . S
C121 C117 1.387 . S
C121 C120 1.409 . S
C121 H123 0.951 . S
C122 C117 1.491 . S
C122 C124 1.382 . S
C122 C126 1.404 . S
H123 C121 0.951 . S
C124 C122 1.382 . S
C124 C125 1.390 . S
C124 H129 0.949 . S
C125 C124 1.390 . S
C125 C130 1.399 . S
C126 C122 1.404 . S
C126 H127 0.950 . S
C126 C128 1.375 . S
H127 C126 0.950 . S
C128 C126 1.375 . S
C128 C130 1.382 . S
C128 H132 0.950 . S
H129 C124 0.949 . S
C130 C125 1.399 . S
C130 C128 1.382 . S
C130 H131 0.952 . S
H131 C130 0.952 . S
H132 C128 0.950 . S
H133 C134 0.949 . S
C134 H133 0.949 . S
C134 C135 1.395 . S
C134 C136 1.391 . S
C135 C134 1.395 . S
C135 C138 1.390 . S
C136 C134 1.391 . S
C136 C140 1.387 . S
C136 C141 1.491 . S
H137 C138 0.950 . S
C138 C135 1.390 . S
C138 H137 0.950 . S
C138 C139 1.378 . S
C139 C138 1.378 . S
C139 C140 1.409 . S
C140 C136 1.387 . S
C140 C139 1.409 . S
C140 H142 0.951 . S
C141 C136 1.491 . S
C141 C143 1.382 . S
C141 C145 1.404 . S
H142 C140 0.951 . S
C143 C141 1.382 . S
C143 C144 1.390 . S
C143 H148 0.949 . S
C144 C143 1.390 . S
C144 C149 1.399 . S
C145 C141 1.404 . S
C145 H146 0.950 . S
C145 C147 1.375 . S
H146 C145 0.950 . S
C147 C145 1.375 . S
C147 C149 1.382 . S
C147 H151 0.950 1_455 S
H148 C143 0.949 . S
C149 C144 1.399 . S
C149 C147 1.382 . S
C149 H150 0.952 1_455 S
H150 C149 0.952 1_655 S
H151 C147 0.950 1_655 S
Zn152 O158 1.920 . S
Zn152 O164 1.898 . S
Zn152 O167 1.905 . S
Zn153 O161 1.905 1_565 S
Zn153 O162 1.898 . S
Zn153 O170 1.920 . S
Zn154 O157 2.080 1_455 S
Zn154 O160 2.114 . S
Zn154 O163 2.120 1_445 S
Zn154 O165 2.120 . S
Zn154 O166 2.114 1_455 S
Zn154 O169 2.080 . S
C155 O160 1.166 . S
C155 O161 1.182 . S
C156 O162 1.167 1_655 S
C156 O163 1.299 . S
O157 Zn154 2.080 1_655 S
O157 C171 1.305 . S
O158 Zn152 1.920 . S
O158 C171 1.234 . S
C159 O164 1.167 1_455 S
C159 O165 1.299 . S
O160 Zn154 2.114 . S
O160 C155 1.166 . S
O161 Zn153 1.905 1_545 S
O161 C155 1.182 . S
O162 Zn153 1.898 . S
O162 C156 1.167 1_455 S
O163 Zn154 2.120 1_665 S
O163 C156 1.299 . S
O164 Zn152 1.898 . S
O164 C159 1.167 1_655 S
O165 Zn154 2.120 . S
O165 C159 1.299 . S
O166 Zn154 2.114 1_655 S
O166 C168 1.166 . S
O167 Zn152 1.905 . S
O167 C168 1.182 . S
C168 O166 1.166 . S
C168 O167 1.182 . S
O169 Zn154 2.080 . S
O169 C172 1.305 1_545 S
O170 Zn153 1.920 . S
O170 C172 1.234 . S
C171 O157 1.305 . S
C171 O158 1.234 . S
C172 O169 1.305 1_565 S
C172 O170 1.234 . S
Zn173 O179 1.920 1_556 S
Zn173 O185 1.898 . S
Zn173 O188 1.905 . S
Zn174 O182 1.905 . S
Zn174 O183 1.898 . S
Zn174 O191 1.920 . S
Zn175 O178 2.080 . S
Zn175 O181 2.114 1_545 S
Zn175 O184 2.120 1_545 S
Zn175 O186 2.120 . S
Zn175 O187 2.114 1_545 S
Zn175 O190 2.080 . S
C176 O181 1.166 . S
C176 O182 1.182 . S
C177 O183 1.167 . S
C177 O184 1.299 . S
O178 Zn175 2.080 . S
O178 C192 1.305 . S
O179 Zn173 1.920 1_554 S
O179 C192 1.234 . S
C180 O185 1.167 1_554 S
C180 O186 1.299 . S
O181 Zn175 2.114 1_565 S
O181 C176 1.166 . S
O182 Zn174 1.905 . S
O182 C176 1.182 . S
O183 Zn174 1.898 . S
O183 C177 1.167 . S
O184 Zn175 2.120 1_565 S
O184 C177 1.299 . S
O185 Zn173 1.898 . S
O185 C180 1.167 1_556 S
O186 Zn175 2.120 . S
O186 C180 1.299 . S
O187 Zn175 2.114 1_565 S
O187 C189 1.166 1_554 S
O188 Zn173 1.905 . S
O188 C189 1.182 1_545 S
C189 O187 1.166 1_556 S
C189 O188 1.182 1_565 S
O190 Zn175 2.080 . S
O190 C193 1.305 . S
O191 Zn174 1.920 . S
O191 C193 1.234 1_565 S
C192 O178 1.305 . S
C192 O179 1.234 . S
C193 O190 1.305 . S
C193 O191 1.234 1_545 S
Zn194 O200 1.920 . S
Zn194 O206 1.898 . S
Zn194 O209 1.905 . S
Zn195 O203 1.905 . S
Zn195 O204 1.898 . S
Zn195 O212 1.920 . S
Zn196 O199 2.080 . S
Zn196 O202 2.114 . S
Zn196 O205 2.120 . S
Zn196 O207 2.120 . S
Zn196 O208 2.114 . S
Zn196 O211 2.080 . S
C197 O202 1.166 . S
C197 O203 1.182 . S
C198 O204 1.167 . S
C198 O205 1.299 . S
O199 Zn196 2.080 . S
O199 C213 1.305 . S
O200 Zn194 1.920 . S
O200 C213 1.234 . S
C201 O206 1.167 . S
C201 O207 1.299 . S
O202 Zn196 2.114 . S
O202 C197 1.166 . S
O203 Zn195 1.905 . S
O203 C197 1.182 . S
O204 Zn195 1.898 . S
O204 C198 1.167 . S
O205 Zn196 2.120 . S
O205 C198 1.299 . S
O206 Zn194 1.898 . S
O206 C201 1.167 . S
O207 Zn196 2.120 . S
O207 C201 1.299 . S
O208 Zn196 2.114 . S
O208 C210 1.166 . S
O209 Zn194 1.905 . S
O209 C210 1.182 . S
C210 O208 1.166 . S
C210 O209 1.182 . S
O211 Zn196 2.080 . S
O211 C214 1.305 . S
O212 Zn195 1.920 . S
O212 C214 1.234 . S
C213 O199 1.305 . S
C213 O200 1.234 . S
C214 O211 1.305 . S
C214 O212 1.234 . S
Zn215 O221 1.920 . S
Zn215 O227 1.898 . S
Zn215 O230 1.905 . S
Zn216 O224 1.905 1_655 S
Zn216 O225 1.898 . S
Zn216 O233 1.920 . S
Zn217 O220 2.080 1_554 S
Zn217 O223 2.114 . S
Zn217 O226 2.118 1_454 S
Zn217 O228 2.120 . S
Zn217 O229 2.114 1_554 S
Zn217 O232 2.080 . S
C218 O223 1.166 . S
C218 O224 1.182 . S
C219 O225 1.167 1_556 S
C219 O226 1.299 . S
O220 Zn217 2.080 1_556 S
O220 C234 1.305 . S
O221 Zn215 1.920 . S
O221 C234 1.234 . S
C222 O227 1.167 1_554 S
C222 O228 1.299 . S
O223 Zn217 2.114 . S
O223 C218 1.166 . S
O224 Zn216 1.905 1_455 S
O224 C218 1.182 . S
O225 Zn216 1.898 . S
O225 C219 1.167 1_554 S
O226 Zn217 2.118 1_656 S
O226 C219 1.299 . S
O227 Zn215 1.898 . S
O227 C222 1.167 1_556 S
O228 Zn217 2.120 . S
O228 C222 1.299 . S
O229 Zn217 2.114 1_556 S
O229 C231 1.166 . S
O230 Zn215 1.905 . S
O230 C231 1.182 . S
C231 O229 1.166 . S
C231 O230 1.182 . S
O232 Zn217 2.080 . S
O232 C235 1.305 1_455 S
O233 Zn216 1.920 . S
O233 C235 1.234 . S
C234 O220 1.305 . S
C234 O221 1.234 . S
C235 O232 1.305 1_655 S
C235 O233 1.234 . S
C6 C155 1.801 . S
C21 C189 2.527 . S
C201 C49 1.388 . S
C68 C235 1.004 . S
C192 C2 2.435 . S
C172 C30 1.513 . S
C219 C40 1.380 . S
C210 C63 1.528 . S
C11 C218 1.610 . S
C180 C44 2.196 . S
C59 C156 1.478 . S
C25 C213 1.954 . S
C171 C82 2.721 1_645 S
C101 C193 1.927 . S
C125 C198 1.710 . S
C144 C231 1.418 . S
C87 C176 1.420 1_545 S
C168 C97 2.414 . S
C222 C120 1.599 . S
C214 C135 1.693 . S
C78 C234 2.015 . S
C177 C116 1.570 . S
C159 C139 2.147 . S
C106 C197 1.708 . S
