# Generated by pormake.
# Topology anh, (6,3)-cn, num edge types: 1
# Building blocks:
#     Node 0, Type 0, BuildingBlock: NUHQIS_clean_sbu_0, # of connection points: 6
#     Node 1, Type 0, BuildingBlock: NUHQIS_clean_sbu_0, # of connection points: 6
#     Node 2, Type 0, BuildingBlock: NUHQIS_clean_sbu_0, # of connection points: 6
#     Node 3, Type 1, BuildingBlock: BETDIP_clean_linker_0, # of connection points: 3
#     Node 4, Type 1, BuildingBlock: BETDIP_clean_linker_0, # of connection points: 3
#     Node 5, Type 1, BuildingBlock: BETDIP_clean_linker_0, # of connection points: 3
#     Node 6, Type 1, BuildingBlock: BETDIP_clean_linker_0, # of connection points: 3
#     Node 7, Type 1, BuildingBlock: BETDIP_clean_linker_0, # of connection points: 3
#     Node 8, Type 1, BuildingBlock: BETDIP_clean_linker_0, # of connection points: 3
#     Edge 9, Type (0, 1), None
#     Edge 10, Type (0, 1), None
#     Edge 11, Type (0, 1), None
#     Edge 12, Type (0, 1), None
#     Edge 13, Type (0, 1), None
#     Edge 14, Type (0, 1), None
#     Edge 15, Type (0, 1), None
#     Edge 16, Type (0, 1), None
#     Edge 17, Type (0, 1), None
#     Edge 18, Type (0, 1), None
#     Edge 19, Type (0, 1), None
#     Edge 20, Type (0, 1), None
#     Edge 21, Type (0, 1), None
#     Edge 22, Type (0, 1), None
#     Edge 23, Type (0, 1), None
#     Edge 24, Type (0, 1), None
#     Edge 25, Type (0, 1), None
#     Edge 26, Type (0, 1), None
# Relax obj value: 0.743
# Max RMSD: 0.229
# Mean RMSD: 0.167
data_MOF--net-anh--node1-NUHQIS_clean_sbu_0--node2-BETDIP_clean_linker_0--edge1-none
_symmetry_space_group_name_H-M    P1
_symmetry_Int_Tables_number       1
_symmetry_cell_setting            triclinic
loop_
_symmetry_equiv_pos_as_xyz
'x, y, z'
_cell_length_a     13.822725
_cell_length_b     13.520841
_cell_length_c     22.952977
_cell_angle_alpha  93.04923
_cell_angle_beta   95.648144
_cell_angle_gamma 120.24044
loop_
_atom_site_label
_atom_site_type_symbol
_atom_site_fract_x
_atom_site_fract_y
_atom_site_fract_z
_atom_type_partial_charge
Tb0 Tb 0.36815 0.72821 0.16621 0.0
Eu1 Eu 1.20959 0.80467 0.19207 0.0
C2 C 0.35836 0.77073 0.29206 0.0
C3 C 1.11494 0.53239 0.18428 0.0
C4 C 0.64093 0.82828 0.17185 0.0
C5 C 0.83324 0.89123 0.20911 0.0
C6 C 0.721 0.84423 0.21997 0.0
C7 C 0.6803 0.90357 0.12809 0.0
C8 C 0.79477 0.95439 0.12185 0.0
C9 C 0.85084 0.90344 0.14975 0.0
C10 C 0.53304 0.71764 0.15756 0.0
O11 O 1.27429 0.68787 0.07787 0.0
O12 O 1.21181 0.81263 0.09086 0.0
O13 O 0.38368 0.97556 0.21956 0.0
O14 O 0.47421 0.91929 0.16199 0.0
C15 C 1.23281 0.74771 0.0549 0.0
O16 O 1.0834 0.85613 0.17448 0.0
O17 O 1.11815 0.8183 0.26183 0.0
O18 O 1.25333 0.73807 0.27353 0.0
O19 O 0.42897 0.80968 0.25491 0.0
O20 O 1.22414 0.5649 0.19373 0.0
O21 O 1.09299 0.60919 0.1655 0.0
C22 C 0.47799 1.00189 0.1974 0.0
O23 O 0.47789 0.67382 0.20141 0.0
O24 O 0.46823 0.70771 0.10938 0.0
C25 C 0.9336 0.70436 0.21375 0.0
C26 C 0.72856 0.49434 0.18865 0.0
C27 C 0.814 0.51915 0.15422 0.0
C28 C 0.90943 0.62826 0.16314 0.0
C29 C 0.85993 0.66638 0.2564 0.0
C30 C 0.75531 0.56206 0.24314 0.0
C31 C 1.04202 0.81526 0.22252 0.0
H32 H 0.89392 0.88803 0.24108 0.0
H33 H 0.6956 0.79988 0.25857 0.0
H34 H 0.62281 0.90676 0.09364 0.0
H35 H 0.82166 0.99569 0.08256 0.0
H36 H 0.7958 0.46666 0.11269 0.0
H37 H 0.96001 0.65569 0.1277 0.0
H38 H 0.87866 0.72112 0.29707 0.0
H39 H 0.69096 0.54293 0.27124 0.0
Tb40 Tb 0.91959 0.39604 0.49699 0.0
Eu41 Eu 0.65502 0.2395 0.51063 0.0
C42 C 0.85528 0.3568 0.61761 0.0
C43 C 0.80865 1.12066 0.51689 0.0
C44 C 1.20799 0.46359 0.47498 0.0
C45 C 0.37658 0.45194 0.50101 0.0
C46 C 1.28643 0.46056 0.51776 0.0
C47 C 1.21315 0.44366 0.41501 0.0
C48 C 1.30359 0.43551 0.39838 0.0
C49 C 0.39036 0.44933 0.44148 0.0
C50 C 1.12893 0.49753 0.49403 0.0
O51 O 0.84467 0.32022 0.40615 0.0
O52 O 0.65465 0.24107 0.41042 0.0
O53 O 0.69305 0.42393 0.5297 0.0
O54 O 0.87217 0.53188 0.5052 0.0
C55 C 0.73958 0.26926 0.37987 0.0
O56 O 0.47488 1.12003 0.48218 0.0
O57 O 0.53284 1.20095 0.57225 0.0
O58 O 0.76546 0.25872 0.59497 0.0
O59 O 0.90238 0.4387 0.58481 0.0
O60 O 0.89673 0.22663 0.51863 0.0
O61 O 0.70443 1.10099 0.50693 0.0
C62 C 0.78069 0.52481 0.52363 0.0
O63 O 1.08217 0.4515 0.53945 0.0
O64 O 1.0574 0.50119 0.45372 0.0
C65 C 0.40174 1.00227 0.55532 0.0
C66 C 0.37255 0.79512 0.50897 0.0
C67 C 1.27843 0.81023 0.5056 0.0
C68 C 1.29438 0.91662 0.52733 0.0
C69 C 0.47907 0.96955 0.57672 0.0
C70 C 0.46534 0.86577 0.55266 0.0
C71 C 0.45026 1.1171 0.53583 0.0
H72 H 0.44308 0.46335 0.53482 0.0
H73 H 1.28332 0.47419 0.56432 0.0
H74 H 1.15283 0.44342 0.38101 0.0
H75 H 0.31319 0.43335 0.35211 0.0
H76 H 1.20148 0.75171 0.47594 0.0
H77 H 1.23118 0.93833 0.51262 0.0
H78 H 0.56075 1.03276 0.60129 0.0
H79 H 0.53725 0.85391 0.55975 0.0
Tb80 Tb 0.85272 0.86229 0.84665 0.0
Eu81 Eu 0.70757 0.58525 0.82829 0.0
C82 C 0.8025 0.72072 0.95169 0.0
C83 C 0.99273 0.72408 0.86277 0.0
C84 C 1.07195 1.16973 0.84339 0.0
C85 C 1.23636 0.3626 0.86218 0.0
C86 C 1.15509 0.2636 0.88318 0.0
C87 C 1.07872 1.17009 0.78276 0.0
C88 C 1.15903 0.26944 0.76179 0.0
C89 C 1.23258 0.36834 0.80135 0.0
C90 C 0.97343 1.07844 0.86538 0.0
O91 O 0.83692 0.82567 0.74983 0.0
O92 O 0.72179 0.62824 0.73404 0.0
O93 O 0.57122 0.6351 0.84625 0.0
O94 O 0.68079 0.83245 0.85862 0.0
C95 C 0.78013 0.72834 0.71389 0.0
O96 O 0.643 0.41355 0.78249 0.0
O97 O 0.59398 0.4309 0.86727 0.0
O98 O 0.80082 0.63959 0.91857 0.0
O99 O 0.79525 0.80346 0.92899 0.0
O100 O 0.99124 0.82181 0.86604 0.0
O101 O 0.89536 0.62468 0.84619 0.0
C102 C 0.58009 0.73744 0.85739 0.0
O103 O 0.87932 1.02344 0.82846 0.0
O104 O 0.99144 1.00949 0.89592 0.0
C105 C 0.65718 0.30055 0.85176 0.0
C106 C 0.8352 0.27726 0.82462 0.0
C107 C 0.72356 1.1833 0.80858 0.0
C108 C 0.6336 1.19845 0.81918 0.0
C109 C 0.7638 0.36771 0.88664 0.0
C110 C 0.85442 0.35753 0.87226 0.0
C111 C 0.60263 0.36265 0.82857 0.0
H112 H 1.29285 0.43864 0.89309 0.0
H113 H 1.15193 0.26368 0.93017 0.0
H114 H 1.01681 1.09734 0.75139 0.0
H115 H 1.15593 0.27297 0.71463 0.0
H116 H 0.70634 1.11355 0.77582 0.0
H117 H 0.55079 1.14173 0.79384 0.0
H118 H 0.78243 0.44251 0.91578 0.0
H119 H 0.93922 0.4267 0.88972 0.0
H120 H 0.67628 1.15363 0.1434 0.0
H121 H 0.88986 0.37101 0.30219 0.0
H122 H 0.54584 1.10337 0.31002 0.0
H123 H 0.94182 0.38281 0.17423 0.0
C124 C 1.01928 0.41695 0.20232 0.0
C125 C 0.6878 1.17782 0.19038 0.0
C126 C 0.59374 1.11317 0.22276 0.0
C127 C 0.79697 0.27392 0.21858 0.0
C128 C 0.80936 0.30043 0.28015 0.0
C129 C 0.71911 0.24057 0.31343 0.0
C130 C 0.61294 1.15012 0.28401 0.0
N131 N 0.89232 0.34931 0.18398 0.0
H132 H 0.77825 0.71398 0.47655 0.0
H133 H 0.78608 0.88975 0.64152 0.0
H134 H 0.78206 0.56842 0.63864 0.0
H135 H 0.7701 0.94725 0.51163 0.0
C136 C 0.83259 1.02738 0.53551 0.0
C137 C 0.78249 0.71945 0.52404 0.0
C138 C 0.78528 0.63081 0.55391 0.0
C139 C 0.78304 0.81448 0.55525 0.0
C140 C 0.78745 0.81941 0.61751 0.0
C141 C 0.78483 0.72961 0.64816 0.0
C142 C 0.78343 0.63692 0.61551 0.0
N143 N 0.76703 0.89996 0.52209 0.0
H144 H 1.17026 0.70415 0.81457 0.0
H145 H 0.36749 0.73496 -0.01973 0.0
H146 H 1.06238 0.74842 -0.01985 0.0
H147 H 0.52232 0.81082 0.92594 0.0
C148 C 0.48753 0.75077 0.88585 0.0
C149 C 1.18347 0.71553 0.86229 0.0
C150 C 1.1008 0.72573 0.89283 0.0
C151 C 1.28446 0.72237 0.89321 0.0
C152 C 1.29606 0.73421 0.95575 0.0
C153 C 1.21686 0.74327 -0.01223 0.0
C154 C 1.12231 0.74137 0.95572 0.0
N155 N 0.36906 0.71215 0.86201 0.0
H156 H 0.50011 0.69184 0.50015 0.0
H157 H 0.49676 0.68478 0.31339 0.0
H158 H 1.30007 0.79985 0.39531 0.0
H159 H 0.55814 0.46534 0.43896 0.0
C160 C 0.50641 0.50241 0.42685 0.0
C161 C 0.46949 0.70629 0.45809 0.0
C162 C 0.39408 0.74775 0.45504 0.0
C163 C 0.5033 0.67981 0.40659 0.0
C164 C 0.46937 0.70432 0.35268 0.0
C165 C 0.39395 0.74539 0.34887 0.0
C166 C 0.35468 0.76398 0.39942 0.0
N167 N 0.5577 0.61409 0.40739 0.0
H168 H 1.0688 0.41319 0.83455 0.0
H169 H 1.08049 0.48974 0.65574 0.0
H170 H 0.76311 0.25319 0.70832 0.0
H171 H 0.37075 0.54193 0.79003 0.0
C172 C 1.28072 0.48181 0.78016 0.0
C173 C 1.0262 0.397 0.79 0.0
C174 C 0.90793 0.32141 0.77736 0.0
C175 C 1.08898 0.45341 0.74499 0.0
C176 C 1.03199 0.44315 0.68945 0.0
C177 C 0.91457 0.36938 0.67647 0.0
C178 C 0.85419 0.30661 0.71949 0.0
N179 N 1.20944 0.51988 0.75378 0.0
H180 H 0.70715 0.6741 0.16736 0.0
H181 H 0.65874 0.52393 -0.00699 0.0
H182 H 0.90866 0.88412 0.04262 0.0
H183 H 0.54086 0.37669 0.17399 0.0
C184 C 0.61327 0.44008 0.15543 0.0
C185 C 0.73352 0.68538 0.1248 0.0
C186 C 0.81939 0.79421 0.11192 0.0
C187 C 0.67716 0.58726 0.08328 0.0
C188 C 0.70414 0.59802 0.0264 0.0
C189 C 0.78805 0.70528 0.01246 0.0
C190 C 0.84761 0.8013 0.05508 0.0
N191 N 0.59709 0.47752 0.09979 0.0
loop_
_geom_bond_atom_site_label_1
_geom_bond_atom_site_label_2
_geom_bond_distance
_geom_bond_site_symmetry_2
_ccdc_geom_bond_type
Tb0 C10 2.825 . S
Tb0 O11 2.347 . S
Tb0 O14 2.366 . S
Tb0 O19 2.418 . S
Tb0 O20 2.384 1_455 S
Tb0 O23 2.479 . S
Tb0 O24 2.471 . S
Eu1 O12 2.418 . S
Eu1 O13 2.384 . S
Eu1 O16 2.479 1_455 S
Eu1 O17 2.471 1_455 S
Eu1 O18 2.347 . S
Eu1 O21 2.366 1_455 S
Eu1 C31 2.825 1_455 S
C2 O18 1.259 . S
C2 O19 1.265 . S
C3 O20 1.255 . S
C3 O21 1.265 . S
C4 C6 1.380 . S
C4 C7 1.374 . S
C4 C10 1.507 . S
C5 C6 1.384 . S
C5 C9 1.387 . S
C5 H32 0.930 . S
C6 C4 1.380 . S
C6 C5 1.384 . S
C6 H33 0.931 . S
C7 C4 1.374 . S
C7 C8 1.390 . S
C7 H34 0.930 . S
C8 C7 1.390 . S
C8 C9 1.391 . S
C8 H35 0.930 . S
C9 C5 1.387 . S
C9 C8 1.391 . S
C10 Tb0 2.825 . S
C10 C4 1.507 . S
C10 O23 1.238 . S
C10 O24 1.247 . S
O11 Tb0 2.347 . S
O11 C15 1.259 . S
O12 Eu1 2.418 . S
O12 C15 1.265 . S
O13 Eu1 2.384 . S
O13 C22 1.255 . S
O14 Tb0 2.366 . S
O14 C22 1.265 . S
C15 O11 1.259 . S
C15 O12 1.265 . S
O16 Eu1 2.479 1_655 S
O16 C31 1.238 . S
O17 Eu1 2.471 1_655 S
O17 C31 1.247 . S
O18 Eu1 2.347 . S
O18 C2 1.259 . S
O19 Tb0 2.418 . S
O19 C2 1.265 . S
O20 Tb0 2.384 1_655 S
O20 C3 1.255 . S
O21 Eu1 2.366 1_655 S
O21 C3 1.265 . S
C22 O13 1.255 . S
C22 O14 1.265 . S
O23 Tb0 2.479 . S
O23 C10 1.238 . S
O24 Tb0 2.471 . S
O24 C10 1.247 . S
C25 C28 1.380 . S
C25 C29 1.374 . S
C25 C31 1.507 . S
C26 C27 1.387 . S
C26 C30 1.391 . S
C27 C26 1.387 . S
C27 C28 1.384 . S
C27 H36 0.930 . S
C28 C25 1.380 . S
C28 C27 1.384 . S
C28 H37 0.931 . S
C29 C25 1.374 . S
C29 C30 1.390 . S
C29 H38 0.930 . S
C30 C26 1.391 . S
C30 C29 1.390 . S
C30 H39 0.930 . S
C31 Eu1 2.825 1_655 S
C31 O16 1.238 . S
C31 O17 1.247 . S
C31 C25 1.507 . S
H32 C5 0.930 . S
H33 C6 0.931 . S
H34 C7 0.930 . S
H35 C8 0.930 . S
H36 C27 0.930 . S
H37 C28 0.931 . S
H38 C29 0.930 . S
H39 C30 0.930 . S
Tb40 C50 2.825 . S
Tb40 O51 2.347 . S
Tb40 O54 2.366 . S
Tb40 O59 2.418 . S
Tb40 O60 2.384 1_545 S
Tb40 O63 2.479 . S
Tb40 O64 2.471 . S
Eu41 O52 2.418 . S
Eu41 O53 2.384 . S
Eu41 O56 2.479 1_545 S
Eu41 O57 2.471 1_545 S
Eu41 O58 2.347 . S
Eu41 O61 2.366 1_545 S
Eu41 C71 2.825 1_545 S
C42 O58 1.259 . S
C42 O59 1.265 . S
C43 O60 1.255 . S
C43 O61 1.265 . S
C44 C46 1.380 . S
C44 C47 1.374 . S
C44 C50 1.507 . S
C45 C46 1.384 . S
C45 C49 1.387 . S
C45 H72 0.930 . S
C46 C44 1.380 . S
C46 C45 1.384 . S
C46 H73 0.931 . S
C47 C44 1.374 . S
C47 C48 1.390 . S
C47 H74 0.930 . S
C48 C47 1.390 . S
C48 C49 1.391 . S
C48 H75 0.930 . S
C49 C45 1.387 . S
C49 C48 1.391 . S
C50 Tb40 2.825 . S
C50 C44 1.507 . S
C50 O63 1.238 . S
C50 O64 1.247 . S
O51 Tb40 2.347 . S
O51 C55 1.259 . S
O52 Eu41 2.418 . S
O52 C55 1.265 . S
O53 Eu41 2.384 . S
O53 C62 1.255 . S
O54 Tb40 2.366 . S
O54 C62 1.265 . S
C55 O51 1.259 . S
C55 O52 1.265 . S
O56 Eu41 2.479 1_565 S
O56 C71 1.238 . S
O57 Eu41 2.471 1_565 S
O57 C71 1.247 . S
O58 Eu41 2.347 . S
O58 C42 1.259 . S
O59 Tb40 2.418 . S
O59 C42 1.265 . S
O60 Tb40 2.384 1_565 S
O60 C43 1.255 . S
O61 Eu41 2.366 1_565 S
O61 C43 1.265 . S
C62 O53 1.255 . S
C62 O54 1.265 . S
O63 Tb40 2.479 . S
O63 C50 1.238 . S
O64 Tb40 2.471 . S
O64 C50 1.247 . S
C65 C68 1.380 . S
C65 C69 1.374 . S
C65 C71 1.507 . S
C66 C67 1.387 . S
C66 C70 1.391 . S
C67 C66 1.387 . S
C67 C68 1.384 . S
C67 H76 0.930 . S
C68 C65 1.380 . S
C68 C67 1.384 . S
C68 H77 0.931 . S
C69 C65 1.374 . S
C69 C70 1.390 . S
C69 H78 0.930 . S
C70 C66 1.391 . S
C70 C69 1.390 . S
C70 H79 0.930 . S
C71 Eu41 2.825 1_565 S
C71 O56 1.238 . S
C71 O57 1.247 . S
C71 C65 1.507 . S
H72 C45 0.930 . S
H73 C46 0.931 . S
H74 C47 0.930 . S
H75 C48 0.930 . S
H76 C67 0.930 . S
H77 C68 0.931 . S
H78 C69 0.930 . S
H79 C70 0.930 . S
Tb80 C90 2.825 . S
Tb80 O91 2.347 . S
Tb80 O94 2.366 . S
Tb80 O99 2.418 1_556 S
Tb80 O100 2.384 . S
Tb80 O103 2.479 . S
Tb80 O104 2.471 . S
Eu81 O92 2.418 . S
Eu81 O93 2.384 . S
Eu81 O96 2.479 . S
Eu81 O97 2.471 . S
Eu81 O98 2.347 . S
Eu81 O101 2.366 . S
Eu81 C111 2.825 . S
C82 O98 1.256 1_554 S
C82 O99 1.265 . S
C83 O100 1.255 . S
C83 O101 1.265 . S
C84 C86 1.380 . S
C84 C87 1.374 . S
C84 C90 1.507 . S
C85 C86 1.384 . S
C85 C89 1.387 . S
C85 H112 0.930 . S
C86 C84 1.380 . S
C86 C85 1.384 . S
C86 H113 0.931 . S
C87 C84 1.374 . S
C87 C88 1.390 . S
C87 H114 0.930 . S
C88 C87 1.390 . S
C88 C89 1.391 . S
C88 H115 0.930 . S
C89 C85 1.387 . S
C89 C88 1.391 . S
C90 Tb80 2.825 . S
C90 C84 1.507 . S
C90 O103 1.238 . S
C90 O104 1.247 . S
O91 Tb80 2.347 . S
O91 C95 1.259 . S
O92 Eu81 2.418 . S
O92 C95 1.265 . S
O93 Eu81 2.384 . S
O93 C102 1.255 . S
O94 Tb80 2.366 . S
O94 C102 1.265 . S
C95 O91 1.259 . S
C95 O92 1.265 . S
O96 Eu81 2.479 . S
O96 C111 1.238 . S
O97 Eu81 2.471 . S
O97 C111 1.247 . S
O98 Eu81 2.347 . S
O98 C82 1.256 1_556 S
O99 Tb80 2.418 1_554 S
O99 C82 1.265 . S
O100 Tb80 2.384 . S
O100 C83 1.255 . S
O101 Eu81 2.366 . S
O101 C83 1.265 . S
C102 O93 1.255 . S
C102 O94 1.265 . S
O103 Tb80 2.479 . S
O103 C90 1.238 . S
O104 Tb80 2.471 . S
O104 C90 1.247 . S
C105 C108 1.380 . S
C105 C109 1.374 . S
C105 C111 1.507 . S
C106 C107 1.387 . S
C106 C110 1.391 . S
C107 C106 1.387 . S
C107 C108 1.384 . S
C107 H116 0.930 . S
C108 C105 1.380 . S
C108 C107 1.384 . S
C108 H117 0.931 . S
C109 C105 1.374 . S
C109 C110 1.390 . S
C109 H118 0.930 . S
C110 C106 1.391 . S
C110 C109 1.390 . S
C110 H119 0.930 . S
C111 Eu81 2.825 . S
C111 O96 1.238 . S
C111 O97 1.247 . S
C111 C105 1.507 . S
H112 C85 0.930 . S
H113 C86 0.931 . S
H114 C87 0.930 . S
H115 C88 0.930 . S
H116 C107 0.930 . S
H117 C108 0.931 . S
H118 C109 0.930 . S
H119 C110 0.930 . S
H120 C125 0.930 . S
H121 C128 0.930 . S
H122 C130 0.930 . S
H123 C124 1.016 . S
C124 H123 1.016 . S
C124 N131 1.286 . S
C125 H120 0.930 . S
C125 C126 1.397 . S
C125 C127 1.361 1_565 S
C126 C125 1.397 . S
C126 C130 1.390 . S
C127 C125 1.361 1_545 S
C127 C128 1.393 . S
C127 N131 1.413 . S
C128 H121 0.930 . S
C128 C127 1.393 . S
C128 C129 1.399 . S
C129 C128 1.399 . S
C129 C130 1.381 1_545 S
C130 H122 0.930 . S
C130 C126 1.390 . S
C130 C129 1.381 1_565 S
N131 C124 1.286 . S
N131 C127 1.413 . S
H132 C137 0.930 . S
H133 C140 0.930 . S
H134 C142 0.930 . S
H135 C136 1.016 . S
C136 H135 1.016 . S
C136 N143 1.286 . S
C137 H132 0.930 . S
C137 C138 1.397 . S
C137 C139 1.361 . S
C138 C137 1.397 . S
C138 C142 1.390 . S
C139 C137 1.361 . S
C139 C140 1.393 . S
C139 N143 1.413 . S
C140 H133 0.930 . S
C140 C139 1.393 . S
C140 C141 1.399 . S
C141 C140 1.399 . S
C141 C142 1.381 . S
C142 H134 0.930 . S
C142 C138 1.390 . S
C142 C141 1.381 . S
N143 C136 1.286 . S
N143 C139 1.413 . S
H144 C149 0.930 . S
H145 C152 0.930 . S
H146 C154 0.930 1_554 S
H147 C148 1.016 . S
C148 H147 1.016 . S
C148 N155 1.286 . S
C149 H144 0.930 . S
C149 C150 1.397 . S
C149 C151 1.361 1_655 S
C150 C149 1.397 . S
C150 C154 1.390 . S
C151 C149 1.361 1_455 S
C151 C152 1.393 . S
C151 N155 1.413 . S
C152 H145 0.930 . S
C152 C151 1.393 . S
C152 C153 1.399 1_556 S
C153 C152 1.399 1_554 S
C153 C154 1.381 1_454 S
C154 H146 0.930 1_556 S
C154 C150 1.390 . S
C154 C153 1.381 1_656 S
N155 C148 1.286 . S
N155 C151 1.413 . S
H156 C161 0.930 . S
H157 C164 0.930 . S
H158 C166 0.930 . S
H159 C160 1.016 . S
C160 H159 1.016 . S
C160 N167 1.286 . S
C161 H156 0.930 . S
C161 C162 1.397 . S
C161 C163 1.361 1_455 S
C162 C161 1.397 . S
C162 C166 1.390 . S
C163 C161 1.361 1_655 S
C163 C164 1.393 . S
C163 N167 1.413 . S
C164 H157 0.930 . S
C164 C163 1.393 . S
C164 C165 1.399 1_655 S
C165 C164 1.399 1_455 S
C165 C166 1.381 . S
C166 H158 0.930 . S
C166 C162 1.390 . S
C166 C165 1.381 . S
N167 C160 1.286 . S
N167 C163 1.413 . S
H168 C173 0.930 . S
H169 C176 0.930 . S
H170 C178 0.930 . S
H171 C172 1.016 . S
C172 H171 1.016 . S
C172 N179 1.286 . S
C173 H168 0.930 . S
C173 C174 1.397 . S
C173 C175 1.361 1_545 S
C174 C173 1.397 . S
C174 C178 1.390 . S
C175 C173 1.361 1_565 S
C175 C176 1.393 . S
C175 N179 1.413 . S
C176 H169 0.930 . S
C176 C175 1.393 . S
C176 C177 1.399 1_565 S
C177 C176 1.399 1_545 S
C177 C178 1.381 . S
C178 H170 0.930 . S
C178 C174 1.390 . S
C178 C177 1.381 . S
N179 C172 1.286 . S
N179 C175 1.413 . S
H180 C185 0.930 . S
H181 C188 0.930 1_556 S
H182 C190 0.930 . S
H183 C184 1.016 . S
C184 H183 1.016 . S
C184 N191 1.286 . S
C185 H180 0.930 . S
C185 C186 1.397 . S
C185 C187 1.361 . S
C186 C185 1.397 . S
C186 C190 1.390 1_554 S
C187 C185 1.361 . S
C187 C188 1.393 . S
C187 N191 1.413 . S
C188 H181 0.930 1_554 S
C188 C187 1.393 . S
C188 C189 1.399 1_554 S
C189 C188 1.399 1_556 S
C189 C190 1.381 . S
C190 H182 0.930 . S
C190 C186 1.390 1_556 S
C190 C189 1.381 . S
N191 C184 1.286 . S
N191 C187 1.413 . S
C9 C186 3.495 . S
C49 C160 3.590 . S
C89 C172 3.509 . S
C26 C184 3.213 . S
C162 C66 2.971 . S
C174 C106 3.087 . S
C43 C136 4.597 . S
C83 C150 5.029 . S
C22 C126 4.721 . S
C138 C62 4.736 . S
C148 C102 4.379 . S
C3 C124 4.626 . S
C153 C15 2.139 . S
C55 C129 2.036 . S
C95 C141 1.986 . S
C177 C42 0.984 . S
C189 C82 1.211 1_556 S
C2 C165 1.010 . S
