# Generated by pormake.
# Topology rtl, (3,6)-cn, num edge types: 1
# Building blocks:
#     Node 0, Type 0, BuildingBlock: BETDIP_clean_linker_0, # of connection points: 3
#     Node 1, Type 0, BuildingBlock: BETDIP_clean_linker_0, # of connection points: 3
#     Node 2, Type 0, BuildingBlock: BETDIP_clean_linker_0, # of connection points: 3
#     Node 3, Type 0, BuildingBlock: BETDIP_clean_linker_0, # of connection points: 3
#     Node 4, Type 1, BuildingBlock: LEVNOQ01_clean_sbu_1, # of connection points: 6
#     Node 5, Type 1, BuildingBlock: LEVNOQ01_clean_sbu_1, # of connection points: 6
#     Edge 6, Type (0, 1), BuildingBlock: EYOCIG_clean_linker_4, # of connection points: 2
#     Edge 7, Type (0, 1), BuildingBlock: EYOCIG_clean_linker_4, # of connection points: 2
#     Edge 8, Type (0, 1), BuildingBlock: EYOCIG_clean_linker_4, # of connection points: 2
#     Edge 9, Type (0, 1), BuildingBlock: EYOCIG_clean_linker_4, # of connection points: 2
#     Edge 10, Type (0, 1), BuildingBlock: EYOCIG_clean_linker_4, # of connection points: 2
#     Edge 11, Type (0, 1), BuildingBlock: EYOCIG_clean_linker_4, # of connection points: 2
#     Edge 12, Type (0, 1), BuildingBlock: EYOCIG_clean_linker_4, # of connection points: 2
#     Edge 13, Type (0, 1), BuildingBlock: EYOCIG_clean_linker_4, # of connection points: 2
#     Edge 14, Type (0, 1), BuildingBlock: EYOCIG_clean_linker_4, # of connection points: 2
#     Edge 15, Type (0, 1), BuildingBlock: EYOCIG_clean_linker_4, # of connection points: 2
#     Edge 16, Type (0, 1), BuildingBlock: EYOCIG_clean_linker_4, # of connection points: 2
#     Edge 17, Type (0, 1), BuildingBlock: EYOCIG_clean_linker_4, # of connection points: 2
# Relax obj value: 0.018
# Max RMSD: 0.113
# Mean RMSD: 0.086
data_MOF--net-rtl--node1-LEVNOQ01_clean_sbu_1--node2-BETDIP_clean_linker_0--edge1-EYOCIG_clean_linker_4
_symmetry_space_group_name_H-M    P1
_symmetry_Int_Tables_number       1
_symmetry_cell_setting            triclinic
loop_
_symmetry_equiv_pos_as_xyz
'x, y, z'
_cell_length_a     28.495829
_cell_length_b     28.639575
_cell_length_c     17.531868
_cell_angle_alpha  91.335166
_cell_angle_beta   99.13749
_cell_angle_gamma 89.903461
loop_
_atom_site_label
_atom_site_type_symbol
_atom_site_fract_x
_atom_site_fract_y
_atom_site_fract_z
_atom_type_partial_charge
H0 H 0.21245 0.80041 0.95272 0.0
H1 H 0.22495 0.81424 0.2007 0.0
H2 H 0.12656 0.90013 0.05533 0.0
H3 H 0.28882 0.77063 0.20546 0.0
C4 C 0.28799 0.75252 0.15035 0.0
C5 C 0.20199 0.81701 0.00364 0.0
C6 C 0.16702 0.85181 0.99539 0.0
C7 C 0.22379 0.80337 0.07726 0.0
C8 C 0.20981 0.82482 0.14324 0.0
C9 C 0.17496 0.85973 0.1353 0.0
C10 C 0.15369 0.87325 0.06141 0.0
N11 N 0.25859 0.76736 0.08203 0.0
H12 H 0.70952 0.71282 0.72436 0.0
H13 H 0.69506 0.73435 0.47919 0.0
H14 H 0.61842 0.62324 0.56489 0.0
H15 H 0.76865 0.76386 0.51196 0.0
C16 C 0.76895 0.78109 0.56776 0.0
C17 C 0.69431 0.70288 0.66556 0.0
C18 C 0.66265 0.66525 0.65165 0.0
C19 C 0.70722 0.72747 0.60404 0.0
C20 C 0.68673 0.715 0.52764 0.0
C21 C 0.65486 0.6774 0.51348 0.0
C22 C 0.64299 0.65244 0.57563 0.0
N23 N 0.7409 0.76429 0.62115 0.0
H24 H 0.80149 0.21098 0.85265 0.0
H25 H 0.81292 0.23275 0.09897 0.0
H26 H 0.88763 0.11928 0.0076 0.0
H27 H 0.74073 0.26565 0.06509 0.0
C28 C 0.74134 0.28152 0.0097 0.0
C29 C 0.81559 0.20077 0.91101 0.0
C30 C 0.84573 0.16225 0.92305 0.0
C31 C 0.80258 0.22588 0.97361 0.0
C32 C 0.8215 0.21305 0.0496 0.0
C33 C 0.85217 0.17461 0.06191 0.0
C34 C 0.86407 0.14912 -0.00159 0.0
N35 N 0.77026 0.26347 0.95749 0.0
H36 H 0.27356 0.33387 0.34787 0.0
H37 H 0.28351 0.31066 0.59191 0.0
H38 H 0.38105 0.40433 0.50982 0.0
H39 H 0.25007 0.24175 0.54972 0.0
C40 C 0.22701 0.24849 0.49574 0.0
C41 C 0.29041 0.34097 0.40693 0.0
C42 C 0.32886 0.37182 0.42199 0.0
C43 C 0.27441 0.31777 0.4672 0.0
C44 C 0.29636 0.32697 0.5441 0.0
C45 C 0.33479 0.3582 0.55958 0.0
C46 C 0.35109 0.38046 0.49826 0.0
N47 N 0.23655 0.28527 0.44788 0.0
O48 O -0.00541 0.08692 0.69696 0.0
Mg49 Mg 0.06179 0.06827 0.67189 0.0
O50 O 0.95314 0.04104 0.60607 0.0
Mg51 Mg 0.00403 0.00865 0.52598 0.0
O52 O 0.05848 0.06718 0.55536 0.0
O53 O 0.10549 0.11629 0.63246 0.0
O54 O 0.05528 0.97566 0.44574 0.0
O55 O 0.96723 0.0569 0.42607 0.0
Mg56 Mg 0.94703 0.94919 0.37937 0.0
O57 O 0.94805 0.95144 0.49577 0.0
O58 O 0.01426 0.92849 0.35644 0.0
O59 O 0.923 0.01405 0.33405 0.0
O60 O 0.90123 0.90263 0.41789 0.0
C61 C 0.0713 0.96472 0.68961 0.0
C62 C 0.95564 0.06934 0.66405 0.0
C63 C 0.08926 0.10075 0.5638 0.0
C64 C 0.05314 0.9464 0.38892 0.0
C65 C 0.93838 0.05326 0.36228 0.0
C66 C 0.91597 0.91906 0.48653 0.0
O67 O 0.08752 0.00405 0.71568 0.0
O68 O 0.04123 0.96052 0.62707 0.0
O69 O 0.58332 0.52006 0.22899 0.0
Mg70 Mg 0.55915 0.45499 0.18076 0.0
O71 O 0.53912 0.56156 0.13855 0.0
Mg72 Mg 0.50245 0.51136 0.03721 0.0
O73 O 0.55905 0.45449 0.06456 0.0
O74 O 0.60534 0.40771 0.14398 0.0
O75 O 0.46522 0.46094 0.93552 0.0
O76 O 0.55292 0.54298 0.95751 0.0
Mg77 Mg 0.44393 0.56797 0.89387 0.0
O78 O 0.4467 0.56899 0.01042 0.0
O79 O 0.4188 0.50276 0.84815 0.0
O80 O 0.51078 0.58727 0.86874 0.0
O81 O 0.39924 0.61617 0.93404 0.0
C82 C 0.45394 0.45171 0.17291 0.0
C83 C 0.5679 0.55883 0.2023 0.0
C84 C 0.59124 0.42229 0.07514 0.0
C85 C 0.43503 0.46391 0.87325 0.0
C86 C 0.55 0.57054 0.90061 0.0
C87 C 0.41522 0.60191 0.00242 0.0
O88 O 0.49271 0.43403 0.20453 0.0
O89 O 0.45185 0.47988 0.11694 0.0
C90 C 0.15954 0.18571 0.45904 0.0
C91 C 0.18958 0.21568 0.46934 0.0
C92 C 0.12742 0.14984 0.4685 0.0
C93 C 0.10529 0.12268 0.50021 0.0
C94 C 0.34751 0.68384 0.13236 0.0
C95 C 0.32083 0.71484 0.14474 0.0
C96 C 0.37667 0.6495 0.10484 0.0
C97 C 0.39795 0.62411 0.06656 0.0
C98 C 0.83365 0.84718 0.59549 0.0
C99 C 0.80328 0.81756 0.58988 0.0
C100 C 0.86869 0.87914 0.58163 0.0
C101 C 0.89455 0.90175 0.54877 0.0
C102 C 0.67609 0.34606 0.97563 0.0
C103 C 0.70674 0.31686 0.98539 0.0
C104 C 0.64025 0.37877 0.98414 0.0
C105 C 0.61344 0.40295 0.014 0.0
C106 C 0.1452 0.89904 0.2573 0.0
C107 C 0.15956 0.88047 0.20296 0.0
C108 C 0.12191 0.91944 0.31524 0.0
C109 C 0.09462 0.93488 0.35544 0.0
C110 C 0.63781 0.61963 0.76853 0.0
C111 C 0.6494 0.64067 0.71574 0.0
C112 C 0.61716 0.59763 0.8263 0.0
C113 C 0.59109 0.58203 0.86716 0.0
C114 C 0.88817 0.14498 0.20109 0.0
C115 C 0.8707 0.16019 0.13932 0.0
C116 C 0.90836 0.12079 0.26788 0.0
C117 C 0.92463 0.0936 0.31676 0.0
C118 C 0.37779 0.379 0.70192 0.0
C119 C 0.35709 0.36836 0.63824 0.0
C120 C 0.40162 0.39854 0.77253 0.0
C121 C 0.42022 0.42349 0.82525 0.0
C122 C 0.61748 0.64926 0.37175 0.0
C123 C 0.63534 0.66334 0.4352 0.0
C124 C 0.59724 0.62633 0.30191 0.0
C125 C 0.58107 0.59958 0.2502 0.0
C126 C 0.86926 0.11641 0.80227 0.0
C127 C 0.85865 0.13718 0.85752 0.0
C128 C 0.88884 0.09506 0.74138 0.0
C129 C 0.91457 0.0799 0.69861 0.0
C130 C 0.36198 0.41028 0.30556 0.0
C131 C 0.34677 0.39267 0.35843 0.0
C132 C 0.38546 0.42851 0.24777 0.0
C133 C 0.41274 0.44206 0.20723 0.0
C134 C 0.12554 0.87933 0.85734 0.0
C135 C 0.1451 0.866 0.91931 0.0
C136 C 0.1032 0.90033 0.78855 0.0
C137 C 0.08557 0.92525 0.73706 0.0
loop_
_geom_bond_atom_site_label_1
_geom_bond_atom_site_label_2
_geom_bond_distance
_geom_bond_site_symmetry_2
_ccdc_geom_bond_type
H0 C5 0.930 . S
H1 C8 0.930 . S
H2 C10 0.930 . S
H3 C4 1.016 . S
C4 H3 1.016 . S
C4 N11 1.286 . S
C5 H0 0.930 . S
C5 C6 1.397 1_556 S
C5 C7 1.361 1_556 S
C6 C5 1.397 1_554 S
C6 C10 1.390 . S
C7 C5 1.361 1_554 S
C7 C8 1.393 . S
C7 N11 1.413 . S
C8 H1 0.930 . S
C8 C7 1.393 . S
C8 C9 1.399 . S
C9 C8 1.399 . S
C9 C10 1.381 . S
C10 H2 0.930 . S
C10 C6 1.390 . S
C10 C9 1.381 . S
N11 C4 1.286 . S
N11 C7 1.413 . S
H12 C17 0.930 . S
H13 C20 0.930 . S
H14 C22 0.930 . S
H15 C16 1.016 . S
C16 H15 1.016 . S
C16 N23 1.286 . S
C17 H12 0.930 . S
C17 C18 1.397 . S
C17 C19 1.361 . S
C18 C17 1.397 . S
C18 C22 1.390 . S
C19 C17 1.361 . S
C19 C20 1.393 . S
C19 N23 1.413 . S
C20 H13 0.930 . S
C20 C19 1.393 . S
C20 C21 1.399 . S
C21 C20 1.399 . S
C21 C22 1.381 . S
C22 H14 0.930 . S
C22 C18 1.390 . S
C22 C21 1.381 . S
N23 C16 1.286 . S
N23 C19 1.413 . S
H24 C29 0.930 . S
H25 C32 0.930 . S
H26 C34 0.930 . S
H27 C28 1.016 . S
C28 H27 1.016 . S
C28 N35 1.286 1_554 S
C29 H24 0.930 . S
C29 C30 1.397 . S
C29 C31 1.361 . S
C30 C29 1.397 . S
C30 C34 1.390 1_556 S
C31 C29 1.361 . S
C31 C32 1.393 1_556 S
C31 N35 1.413 . S
C32 H25 0.930 . S
C32 C31 1.393 1_554 S
C32 C33 1.399 . S
C33 C32 1.399 . S
C33 C34 1.381 . S
C34 H26 0.930 . S
C34 C30 1.390 1_554 S
C34 C33 1.381 . S
N35 C28 1.286 1_556 S
N35 C31 1.413 . S
H36 C41 0.930 . S
H37 C44 0.930 . S
H38 C46 0.930 . S
H39 C40 1.016 . S
C40 H39 1.016 . S
C40 N47 1.286 . S
C41 H36 0.930 . S
C41 C42 1.397 . S
C41 C43 1.361 . S
C42 C41 1.397 . S
C42 C46 1.390 . S
C43 C41 1.361 . S
C43 C44 1.393 . S
C43 N47 1.413 . S
C44 H37 0.930 . S
C44 C43 1.393 . S
C44 C45 1.399 . S
C45 C44 1.399 . S
C45 C46 1.381 . S
C46 H38 0.930 . S
C46 C42 1.390 . S
C46 C45 1.381 . S
N47 C40 1.286 . S
N47 C43 1.413 . S
O48 Mg49 1.990 . S
O48 C62 1.253 1_455 S
Mg49 O48 1.990 . S
Mg49 O52 2.180 . S
Mg49 O53 2.117 . S
Mg49 O67 2.030 . S
O50 Mg51 2.072 1_655 S
O50 C62 1.260 . S
Mg51 O50 2.072 1_455 S
Mg51 O52 2.099 . S
Mg51 O54 2.079 1_545 S
Mg51 O55 2.072 1_455 S
Mg51 O57 2.099 1_445 S
Mg51 O68 2.079 1_545 S
O52 Mg49 2.180 . S
O52 Mg51 2.099 . S
O52 C63 1.279 . S
O53 Mg49 2.117 . S
O53 C63 1.250 . S
O54 Mg51 2.079 1_565 S
O54 C64 1.264 . S
O55 Mg51 2.072 1_655 S
O55 C65 1.260 . S
Mg56 O57 2.180 . S
Mg56 O58 2.030 1_655 S
Mg56 O59 1.990 1_565 S
Mg56 O60 2.117 . S
O57 Mg51 2.099 1_665 S
O57 Mg56 2.180 . S
O57 C66 1.279 . S
O58 Mg56 2.030 1_455 S
O58 C64 1.248 . S
O59 Mg56 1.990 1_545 S
O59 C65 1.253 . S
O60 Mg56 2.117 . S
O60 C66 1.250 . S
C61 O67 1.248 1_565 S
C61 O68 1.264 . S
C62 O48 1.253 1_655 S
C62 O50 1.260 . S
C63 O52 1.279 . S
C63 O53 1.250 . S
C64 O54 1.264 . S
C64 O58 1.248 . S
C65 O55 1.260 . S
C65 O59 1.253 . S
C66 O57 1.279 . S
C66 O60 1.250 . S
O67 Mg49 2.030 . S
O67 C61 1.248 1_545 S
O68 Mg51 2.079 1_565 S
O68 C61 1.264 . S
O69 Mg70 1.990 . S
O69 C83 1.253 . S
Mg70 O69 1.990 . S
Mg70 O73 2.180 . S
Mg70 O74 2.117 . S
Mg70 O88 2.030 . S
O71 Mg72 2.072 . S
O71 C83 1.260 . S
Mg72 O71 2.072 . S
Mg72 O73 2.099 . S
Mg72 O75 2.079 1_554 S
Mg72 O76 2.072 1_554 S
Mg72 O78 2.099 . S
Mg72 O89 2.079 . S
O73 Mg70 2.180 . S
O73 Mg72 2.099 . S
O73 C84 1.279 . S
O74 Mg70 2.117 . S
O74 C84 1.250 . S
O75 Mg72 2.079 1_556 S
O75 C85 1.264 . S
O76 Mg72 2.072 1_556 S
O76 C86 1.260 . S
Mg77 O78 2.180 1_556 S
Mg77 O79 2.030 . S
Mg77 O80 1.990 . S
Mg77 O81 2.117 . S
O78 Mg72 2.099 . S
O78 Mg77 2.180 1_554 S
O78 C87 1.279 . S
O79 Mg77 2.030 . S
O79 C85 1.248 . S
O80 Mg77 1.990 . S
O80 C86 1.253 . S
O81 Mg77 2.117 . S
O81 C87 1.250 1_556 S
C82 O88 1.248 . S
C82 O89 1.264 . S
C83 O69 1.253 . S
C83 O71 1.260 . S
C84 O73 1.279 . S
C84 O74 1.250 . S
C85 O75 1.264 . S
C85 O79 1.248 . S
C86 O76 1.260 . S
C86 O80 1.253 . S
C87 O78 1.279 . S
C87 O81 1.250 1_554 S
O88 Mg70 2.030 . S
O88 C82 1.248 . S
O89 Mg72 2.079 . S
O89 C82 1.264 . S
C90 C91 1.170 . S
C90 C92 1.380 . S
C91 C90 1.170 . S
C92 C90 1.380 . S
C92 C93 1.170 . S
C93 C92 1.170 . S
C94 C95 1.170 . S
C94 C96 1.380 . S
C95 C94 1.170 . S
C96 C94 1.380 . S
C96 C97 1.170 . S
C97 C96 1.170 . S
C98 C99 1.170 . S
C98 C100 1.380 . S
C99 C98 1.170 . S
C100 C98 1.380 . S
C100 C101 1.170 . S
C101 C100 1.170 . S
C102 C103 1.170 . S
C102 C104 1.380 . S
C103 C102 1.170 . S
C104 C102 1.380 . S
C104 C105 1.170 . S
C105 C104 1.170 . S
C106 C107 1.170 . S
C106 C108 1.380 . S
C107 C106 1.170 . S
C108 C106 1.380 . S
C108 C109 1.170 . S
C109 C108 1.170 . S
C110 C111 1.170 . S
C110 C112 1.380 . S
C111 C110 1.170 . S
C112 C110 1.380 . S
C112 C113 1.170 . S
C113 C112 1.170 . S
C114 C115 1.170 . S
C114 C116 1.380 . S
C115 C114 1.170 . S
C116 C114 1.380 . S
C116 C117 1.170 . S
C117 C116 1.170 . S
C118 C119 1.170 . S
C118 C120 1.380 . S
C119 C118 1.170 . S
C120 C118 1.380 . S
C120 C121 1.170 . S
C121 C120 1.170 . S
C122 C123 1.170 . S
C122 C124 1.380 . S
C123 C122 1.170 . S
C124 C122 1.380 . S
C124 C125 1.170 . S
C125 C124 1.170 . S
C126 C127 1.170 . S
C126 C128 1.380 . S
C127 C126 1.170 . S
C128 C126 1.380 . S
C128 C129 1.170 . S
C129 C128 1.170 . S
C130 C131 1.170 . S
C130 C132 1.380 . S
C131 C130 1.170 . S
C132 C130 1.380 . S
C132 C133 1.170 . S
C133 C132 1.170 . S
C134 C135 1.170 . S
C134 C136 1.380 . S
C135 C134 1.170 . S
C136 C134 1.380 . S
C136 C137 1.170 . S
C137 C136 1.170 . S
C93 C63 1.303 . S
C91 C40 1.464 . S
C95 C4 1.490 . S
C97 C87 1.270 . S
C99 C16 1.578 . S
C101 C66 1.406 . S
C103 C28 1.578 . S
C105 C84 1.395 . S
C109 C64 1.483 . S
C107 C9 1.481 . S
C113 C86 1.520 . S
C111 C18 1.590 . S
C115 C33 1.588 . S
C117 C65 1.533 . S
C119 C45 1.496 . S
C121 C85 1.459 . S
C125 C83 1.483 . S
C123 C21 1.533 . S
C129 C62 1.491 . S
C127 C30 1.539 . S
C133 C82 1.438 . S
C131 C42 1.452 . S
C135 C6 1.462 1_556 S
C137 C61 1.389 . S
