# Generated by pormake.
# Topology pts, (4,4)-cn, num edge types: 1
# Building blocks:
#     Node 0, Type 0, BuildingBlock: MIFKUJ_clean_linker_1, # of connection points: 4
#     Node 1, Type 0, BuildingBlock: MIFKUJ_clean_linker_1, # of connection points: 4
#     Node 2, Type 1, BuildingBlock: QUQFOY_clean_sbu_1, # of connection points: 4
#     Node 3, Type 1, BuildingBlock: QUQFOY_clean_sbu_1, # of connection points: 4
#     Edge 4, Type (0, 1), BuildingBlock: EYOCIG_clean_linker_4, # of connection points: 2
#     Edge 5, Type (0, 1), BuildingBlock: EYOCIG_clean_linker_4, # of connection points: 2
#     Edge 6, Type (0, 1), BuildingBlock: EYOCIG_clean_linker_4, # of connection points: 2
#     Edge 7, Type (0, 1), BuildingBlock: EYOCIG_clean_linker_4, # of connection points: 2
#     Edge 8, Type (0, 1), BuildingBlock: EYOCIG_clean_linker_4, # of connection points: 2
#     Edge 9, Type (0, 1), BuildingBlock: EYOCIG_clean_linker_4, # of connection points: 2
#     Edge 10, Type (0, 1), BuildingBlock: EYOCIG_clean_linker_4, # of connection points: 2
#     Edge 11, Type (0, 1), BuildingBlock: EYOCIG_clean_linker_4, # of connection points: 2
# Relax obj value: 0.095
# Max RMSD: 0.258
# Mean RMSD: 0.153
data_MOF--net-pts--node1-QUQFOY_clean_sbu_1--node2-MIFKUJ_clean_linker_1--edge1-EYOCIG_clean_linker_4
_symmetry_space_group_name_H-M    P1
_symmetry_Int_Tables_number       1
_symmetry_cell_setting            triclinic
loop_
_symmetry_equiv_pos_as_xyz
'x, y, z'
_cell_length_a     23.566746
_cell_length_b     25.859438
_cell_length_c     36.281397
_cell_angle_alpha  90.164451
_cell_angle_beta   90.000265
_cell_angle_gamma 89.944297
loop_
_atom_site_label
_atom_site_type_symbol
_atom_site_fract_x
_atom_site_fract_y
_atom_site_fract_z
_atom_type_partial_charge
H0 H 0.58143 0.93205 0.06931 0.0
H1 H 0.66674 0.93034 0.10794 0.0
H2 H 0.71608 0.07955 0.06603 0.0
H3 H 0.63028 0.08156 0.02729 0.0
H4 H 0.4947 1.00082 0.07269 0.0
H5 H 0.63574 0.94762 0.98597 0.0
H6 H 0.72141 0.95049 0.94756 0.0
H7 H 0.65858 0.08759 0.8939 0.0
H8 H 0.57403 0.08627 0.93313 0.0
H9 H 0.40257 0.08871 0.93896 0.0
H10 H 0.31732 0.0856 0.89999 0.0
H11 H 0.27433 0.93675 0.94533 0.0
H12 H 0.35961 0.93955 0.98418 0.0
H13 H 0.49229 0.02216 0.93699 0.0
H14 H 0.35373 0.07718 0.02215 0.0
H15 H 0.26891 0.0793 0.06104 0.0
H16 H 0.3263 0.9426 0.11768 0.0
H17 H 0.41035 0.93886 0.07774 0.0
C18 C 0.59937 1.00693 0.04548 0.0
C19 C 0.61064 0.96433 0.06825 0.0
C20 C 0.65935 0.96321 0.0901 0.0
C21 C 0.69731 1.00475 0.0897 0.0
C22 C 0.68713 0.04702 0.06648 0.0
C23 C 0.6383 0.04814 0.04446 0.0
C24 C 0.54588 0.0086 0.02386 0.0
C25 C 0.49412 1.00471 0.04293 0.0
C26 C 0.5454 0.01521 0.98515 0.0
C27 C 0.5985 0.01721 0.96292 0.0
C28 C 0.64083 0.97907 0.96662 0.0
C29 C 0.68956 0.98045 0.94458 0.0
C30 C 0.69602 0.0194 0.91817 0.0
C31 C 0.65423 0.05746 0.91441 0.0
C32 C 0.6059 0.05647 0.93664 0.0
C33 C 0.38769 0.01419 0.96427 0.0
C34 C 0.37467 0.05554 0.94067 0.0
C35 C 0.32598 0.05394 0.91867 0.0
C36 C 0.29008 0.01083 0.91982 0.0
C37 C 0.30174 0.97033 0.94422 0.0
C38 C 0.35033 0.97194 0.96629 0.0
C39 C 0.44125 0.01436 0.98583 0.0
C40 C 0.49295 0.01834 0.96675 0.0
C41 C 0.44173 0.00795 0.02453 0.0
C42 C 0.38851 0.00757 0.04669 0.0
C43 C 0.34759 0.04674 0.04218 0.0
C44 C 0.29932 0.04823 0.0645 0.0
C45 C 0.29182 0.01124 0.09213 0.0
C46 C 0.33162 0.97143 0.09633 0.0
C47 C 0.37966 0.96955 0.07373 0.0
H48 H 0.08167 0.43172 0.44063 0.0
H49 H 0.08363 0.3536 0.40204 0.0
H50 H 0.91883 0.31014 0.44329 0.0
H51 H 0.91659 0.38851 0.48183 0.0
H52 H 0.00576 0.51026 0.43711 0.0
H53 H 0.06286 0.38243 0.52493 0.0
H54 H 0.0577 0.30421 0.56282 0.0
H55 H 0.90601 0.36211 0.61505 0.0
H56 H 0.90975 0.43966 0.57634 0.0
H57 H 0.91068 0.59582 0.57149 0.0
H58 H 0.91604 0.67416 0.60988 0.0
H59 H 0.08019 0.70922 0.56372 0.0
H60 H 0.07503 0.63094 0.5254 0.0
H61 H 0.98164 0.51323 0.57285 0.0
H62 H 0.92 0.63704 0.48741 0.0
H63 H 0.91723 0.71498 0.44928 0.0
H64 H 0.06879 0.66522 0.39278 0.0
H65 H 0.07289 0.58773 0.43174 0.0
C66 C -0.00075 0.41556 0.46435 0.0
C67 C 0.04608 0.40525 0.44152 0.0
C68 C 0.04726 0.3608 0.4196 0.0
C69 C 0.00152 0.32632 0.42011 0.0
C70 C 0.95467 0.33635 0.44285 0.0
C71 C 0.95349 0.38081 0.46487 0.0
C72 C -0.00275 0.46405 0.48605 0.0
C73 C 0.00144 0.51095 0.46689 0.0
C74 C 0.98914 0.46466 0.52474 0.0
C75 C 0.98597 0.4166 0.54709 0.0
C76 C 0.02775 0.37797 0.5439 0.0
C77 C 0.02512 0.33353 0.56571 0.0
C78 C 0.98121 0.32744 0.59137 0.0
C79 C 0.93992 0.36607 0.59509 0.0
C80 C 0.94222 0.41031 0.57309 0.0
C81 C 0.99235 0.60782 0.54552 0.0
C82 C 0.9477 0.62048 0.56955 0.0
C83 C 0.95072 0.66502 0.59135 0.0
C84 C -0.00144 0.69704 0.5895 0.0
C85 C 0.04294 0.68481 0.56535 0.0
C86 C 0.03987 0.6404 0.54344 0.0
C87 C 0.99074 0.55924 0.52392 0.0
C88 C 0.98592 0.51243 0.54308 0.0
C89 C -0.0024 0.55863 0.4852 0.0
C90 C -0.00281 0.60679 0.46294 0.0
C91 C 0.95338 0.64322 0.46739 0.0
C92 C 0.95143 0.68745 0.44543 0.0
C93 C 0.99276 0.69556 0.41838 0.0
C94 C 0.03656 0.65944 0.41367 0.0
C95 C 0.03879 0.61529 0.43582 0.0
O96 O 0.93616 0.96338 0.22063 0.0
Cd97 Cd 0.00143 0.96027 0.25817 0.0
Cd98 Cd 0.98458 0.06344 0.25757 0.0
O99 O 0.90763 0.04217 0.23541 0.0
O100 O 0.00928 0.88558 0.27101 0.0
O101 O 0.98482 0.94567 0.31173 0.0
C102 C -0.00536 0.89771 0.30409 0.0
C103 C 0.99201 0.12585 0.3037 0.0
C104 C 0.90118 1.00038 0.21744 0.0
C105 C 0.08536 0.02256 0.21791 0.0
O106 O 0.05026 0.05959 0.2204 0.0
O107 O 0.07858 0.98123 0.23619 0.0
O108 O 0.97727 0.13818 0.27071 0.0
O109 O 0.00131 0.07779 0.31111 0.0
O110 O 0.937 0.0589 0.78928 0.0
Cd111 Cd 0.00197 0.06312 0.75165 0.0
Cd112 Cd 0.9864 0.95982 0.75183 0.0
O113 O 0.90903 0.98024 0.77382 0.0
O114 O 0.00786 0.13795 0.73846 0.0
O115 O 0.98407 0.07712 0.69818 0.0
C116 C 0.99265 0.12534 0.70557 0.0
C117 C -0.00545 0.89739 0.70579 0.0
C118 C 0.90227 0.02172 0.79211 0.0
C119 C 0.08634 1.00147 0.79199 0.0
O120 O 0.05164 0.96422 0.78926 0.0
O121 O 0.07945 0.04276 0.77363 0.0
O122 O 0.97992 0.88503 0.73878 0.0
O123 O 0.0035 0.94547 0.69834 0.0
C124 C 0.20767 0.02001 0.13989 0.0
C125 C 0.24582 0.01646 0.11794 0.0
C126 C 0.16517 0.02366 0.1671 0.0
C127 C 0.12838 0.02418 0.1901 0.0
C128 C 0.97856 0.24395 0.63344 0.0
C129 C 0.97934 0.28215 0.61442 0.0
C130 C 0.9808 0.20032 0.6568 0.0
C131 C 0.98559 0.16468 0.678 0.0
C132 C 0.78223 1.0017 0.13717 0.0
C133 C 0.74427 1.00488 0.11506 0.0
C134 C 0.82363 0.99851 0.16513 0.0
C135 C 0.85937 0.9984 0.18884 0.0
C136 C 0.00433 0.77936 0.63268 0.0
C137 C 0.00243 0.742 0.6128 0.0
C138 C 0.00371 0.82242 0.65665 0.0
C139 C 0.00011 0.85797 0.67808 0.0
C140 C 0.20635 1.00331 0.87163 0.0
C141 C 0.24433 1.00617 0.89376 0.0
C142 C 0.16463 1.0004 0.84385 0.0
C143 C 0.12864 1.00017 0.8203 0.0
C144 C 0.00291 0.2437 0.37699 0.0
C145 C 0.00223 0.28135 0.39666 0.0
C146 C 0.00149 0.20069 0.35297 0.0
C147 C -0.00229 0.16528 0.33141 0.0
C148 C 0.78195 0.02166 0.87149 0.0
C149 C 0.74358 0.01915 0.89332 0.0
C150 C 0.82391 0.02383 0.84387 0.0
C151 C 0.85992 0.02349 0.82035 0.0
C152 C 0.98765 0.7784 0.37587 0.0
C153 C 0.98981 0.74071 0.3953 0.0
C154 C 0.98736 0.82211 0.3526 0.0
C155 C 0.98999 0.85812 0.33162 0.0
loop_
_geom_bond_atom_site_label_1
_geom_bond_atom_site_label_2
_geom_bond_distance
_geom_bond_site_symmetry_2
_ccdc_geom_bond_type
H0 C19 0.949 . S
H1 C20 0.950 . S
H2 C22 0.950 . S
H3 C23 0.950 . S
H4 C25 0.950 . S
H5 C28 0.950 . S
H6 C29 0.950 . S
H7 C31 0.951 . S
H8 C32 0.949 . S
H9 C34 0.949 . S
H10 C35 0.950 . S
H11 C37 0.950 . S
H12 C38 0.950 . S
H13 C40 0.950 . S
H14 C43 0.950 . S
H15 C44 0.950 . S
H16 C46 0.951 . S
H17 C47 0.949 . S
C18 C19 1.373 1_545 S
C18 C23 1.389 . S
C18 C24 1.483 . S
C19 H0 0.949 . S
C19 C18 1.373 1_565 S
C19 C20 1.397 . S
C20 H1 0.950 . S
C20 C19 1.397 . S
C20 C21 1.391 1_565 S
C21 C20 1.391 1_545 S
C21 C22 1.405 . S
C22 H2 0.950 . S
C22 C21 1.405 . S
C22 C23 1.367 . S
C23 H3 0.950 . S
C23 C18 1.389 . S
C23 C22 1.367 . S
C24 C18 1.483 . S
C24 C25 1.381 1_545 S
C24 C26 1.404 1_554 S
C25 H4 0.950 . S
C25 C24 1.381 1_565 S
C25 C41 1.411 1_565 S
C26 C24 1.404 1_556 S
C26 C27 1.489 . S
C26 C40 1.411 . S
C27 C26 1.489 . S
C27 C28 1.383 1_545 S
C27 C32 1.382 . S
C28 H5 0.950 . S
C28 C27 1.383 1_565 S
C28 C29 1.395 . S
C29 H6 0.950 . S
C29 C28 1.395 . S
C29 C30 1.288 1_565 S
C30 C29 1.288 1_545 S
C30 C31 1.392 . S
C31 H7 0.951 . S
C31 C30 1.392 . S
C31 C32 1.392 . S
C32 H8 0.949 . S
C32 C27 1.382 . S
C32 C31 1.392 . S
C33 C34 1.376 . S
C33 C38 1.386 1_545 S
C33 C39 1.483 . S
C34 H9 0.949 . S
C34 C33 1.376 . S
C34 C35 1.397 . S
C35 H10 0.950 . S
C35 C34 1.397 . S
C35 C36 1.391 . S
C36 C35 1.391 . S
C36 C37 1.405 1_545 S
C37 H11 0.950 . S
C37 C36 1.405 1_565 S
C37 C38 1.367 . S
C38 H12 0.950 . S
C38 C33 1.386 1_565 S
C38 C37 1.367 . S
C39 C33 1.483 . S
C39 C40 1.382 . S
C39 C41 1.403 1_556 S
C40 H13 0.950 . S
C40 C26 1.411 . S
C40 C39 1.382 . S
C41 C25 1.411 1_545 S
C41 C39 1.403 1_554 S
C41 C42 1.489 1_545 S
C42 C41 1.489 1_565 S
C42 C43 1.383 1_565 S
C42 C47 1.382 . S
C43 H14 0.950 . S
C43 C42 1.383 1_545 S
C43 C44 1.395 . S
C44 H15 0.950 . S
C44 C43 1.395 . S
C44 C45 1.280 1_545 S
C45 C44 1.280 1_565 S
C45 C46 1.400 . S
C46 H16 0.951 . S
C46 C45 1.400 . S
C46 C47 1.392 . S
C47 H17 0.949 . S
C47 C42 1.382 . S
C47 C46 1.392 . S
H48 C67 0.949 . S
H49 C68 0.950 . S
H50 C70 0.950 . S
H51 C71 0.950 . S
H52 C73 0.950 . S
H53 C76 0.950 . S
H54 C77 0.950 . S
H55 C79 0.951 . S
H56 C80 0.949 . S
H57 C82 0.949 . S
H58 C83 0.950 . S
H59 C85 0.950 . S
H60 C86 0.950 . S
H61 C88 0.950 . S
H62 C91 0.950 . S
H63 C92 0.950 . S
H64 C94 0.951 . S
H65 C95 0.949 . S
C66 C67 1.376 . S
C66 C71 1.386 1_455 S
C66 C72 1.483 . S
C67 H48 0.949 . S
C67 C66 1.376 . S
C67 C68 1.397 . S
C68 H49 0.950 . S
C68 C67 1.397 . S
C68 C69 1.391 . S
C69 C68 1.391 . S
C69 C70 1.405 1_455 S
C70 H50 0.950 . S
C70 C69 1.405 1_655 S
C70 C71 1.367 . S
C71 H51 0.950 . S
C71 C66 1.386 1_655 S
C71 C70 1.367 . S
C72 C66 1.483 . S
C72 C73 1.382 . S
C72 C74 1.403 1_455 S
C73 H52 0.950 . S
C73 C72 1.382 . S
C73 C89 1.411 . S
C74 C72 1.403 1_655 S
C74 C75 1.489 . S
C74 C88 1.411 . S
C75 C74 1.489 . S
C75 C76 1.383 1_655 S
C75 C80 1.382 . S
C76 H53 0.950 . S
C76 C75 1.383 1_455 S
C76 C77 1.395 . S
C77 H54 0.950 . S
C77 C76 1.395 . S
C77 C78 1.288 1_455 S
C78 C77 1.288 1_655 S
C78 C79 1.392 . S
C79 H55 0.951 . S
C79 C78 1.392 . S
C79 C80 1.392 . S
C80 H56 0.949 . S
C80 C75 1.382 . S
C80 C79 1.392 . S
C81 C82 1.376 . S
C81 C86 1.386 1_655 S
C81 C87 1.483 . S
C82 H57 0.949 . S
C82 C81 1.376 . S
C82 C83 1.397 . S
C83 H58 0.950 . S
C83 C82 1.397 . S
C83 C84 1.391 . S
C84 C83 1.391 . S
C84 C85 1.405 1_655 S
C85 H59 0.950 . S
C85 C84 1.405 1_455 S
C85 C86 1.367 . S
C86 H60 0.950 . S
C86 C81 1.386 1_455 S
C86 C85 1.367 . S
C87 C81 1.483 . S
C87 C88 1.382 . S
C87 C89 1.403 1_655 S
C88 H61 0.950 . S
C88 C74 1.411 . S
C88 C87 1.382 . S
C89 C73 1.411 . S
C89 C87 1.403 1_455 S
C89 C90 1.489 . S
C90 C89 1.489 . S
C90 C91 1.383 1_455 S
C90 C95 1.382 . S
C91 H62 0.950 . S
C91 C90 1.383 1_655 S
C91 C92 1.395 . S
C92 H63 0.950 . S
C92 C91 1.395 . S
C92 C93 1.288 1_655 S
C93 C92 1.288 1_455 S
C93 C94 1.392 . S
C94 H64 0.951 . S
C94 C93 1.392 . S
C94 C95 1.392 . S
C95 H65 0.949 . S
C95 C90 1.382 . S
C95 C94 1.392 . S
O96 Cd97 2.223 1_655 S
O96 C104 1.315 . S
Cd97 O96 2.223 1_455 S
Cd97 O100 2.297 1_455 S
Cd97 O101 2.439 1_455 S
Cd97 O107 2.240 1_565 S
Cd98 O99 2.240 1_545 S
Cd98 O106 2.223 1_655 S
Cd98 O108 2.297 1_655 S
Cd98 O109 2.439 1_655 S
O99 Cd98 2.240 1_565 S
O99 C104 1.279 . S
O100 Cd97 2.297 1_655 S
O100 C102 1.247 . S
O101 Cd97 2.439 1_655 S
O101 C102 1.208 . S
C102 O100 1.247 . S
C102 O101 1.208 . S
C103 O108 1.247 . S
C103 O109 1.208 . S
C104 O96 1.315 . S
C104 O99 1.279 . S
C105 O106 1.315 . S
C105 O107 1.279 . S
O106 Cd98 2.223 1_455 S
O106 C105 1.315 . S
O107 Cd97 2.240 1_545 S
O107 C105 1.279 . S
O108 Cd98 2.297 1_455 S
O108 C103 1.247 . S
O109 Cd98 2.439 1_455 S
O109 C103 1.208 . S
O110 Cd111 2.223 1_655 S
O110 C118 1.315 . S
Cd111 O110 2.223 1_455 S
Cd111 O114 2.297 1_455 S
Cd111 O115 2.439 1_455 S
Cd111 O121 2.240 1_545 S
Cd112 O113 2.240 1_565 S
Cd112 O120 2.223 1_655 S
Cd112 O122 2.297 1_655 S
Cd112 O123 2.439 1_655 S
O113 Cd112 2.240 1_545 S
O113 C118 1.279 . S
O114 Cd111 2.297 1_655 S
O114 C116 1.247 . S
O115 Cd111 2.439 1_655 S
O115 C116 1.208 . S
C116 O114 1.247 . S
C116 O115 1.208 . S
C117 O122 1.247 . S
C117 O123 1.208 . S
C118 O110 1.315 . S
C118 O113 1.279 . S
C119 O120 1.315 . S
C119 O121 1.279 . S
O120 Cd112 2.223 1_455 S
O120 C119 1.315 . S
O121 Cd111 2.240 1_565 S
O121 C119 1.279 . S
O122 Cd112 2.297 1_455 S
O122 C117 1.247 . S
O123 Cd112 2.439 1_455 S
O123 C117 1.208 . S
C124 C125 1.170 . S
C124 C126 1.380 . S
C125 C124 1.170 . S
C126 C124 1.380 . S
C126 C127 1.170 . S
C127 C126 1.170 . S
C128 C129 1.170 . S
C128 C130 1.380 . S
C129 C128 1.170 . S
C130 C128 1.380 . S
C130 C131 1.170 . S
C131 C130 1.170 . S
C132 C133 1.170 . S
C132 C134 1.380 . S
C133 C132 1.170 . S
C134 C132 1.380 . S
C134 C135 1.170 . S
C135 C134 1.170 . S
C136 C137 1.170 . S
C136 C138 1.380 . S
C137 C136 1.170 . S
C138 C136 1.380 . S
C138 C139 1.170 . S
C139 C138 1.170 . S
C140 C141 1.170 1_565 S
C140 C142 1.380 . S
C141 C140 1.170 1_545 S
C142 C140 1.380 . S
C142 C143 1.170 . S
C143 C142 1.170 . S
C144 C145 1.170 . S
C144 C146 1.380 . S
C145 C144 1.170 . S
C146 C144 1.380 . S
C146 C147 1.170 . S
C147 C146 1.170 . S
C148 C149 1.170 . S
C148 C150 1.380 . S
C149 C148 1.170 . S
C150 C148 1.380 . S
C150 C151 1.170 . S
C151 C150 1.170 . S
C152 C153 1.170 . S
C152 C154 1.380 . S
C153 C152 1.170 . S
C154 C152 1.380 . S
C154 C155 1.170 . S
C155 C154 1.170 . S
C127 C105 1.633 . S
C125 C45 1.631 1_545 S
C131 C116 1.556 . S
C129 C78 1.594 . S
C135 C104 1.632 . S
C133 C21 1.623 1_565 S
C139 C117 1.560 . S
C137 C84 1.619 1_455 S
C143 C119 1.634 . S
C141 C36 1.636 . S
C147 C103 1.516 . S
C145 C69 1.619 . S
C151 C118 1.634 . S
C149 C30 1.621 . S
C153 C93 1.626 1_655 S
C155 C102 1.555 . S
