# Generated by pormake.
# Topology hwx, (6,3)-cn, num edge types: 1
# Building blocks:
#     Node 0, Type 0, BuildingBlock: OJICUG_clean_sbu_0, # of connection points: 6
#     Node 1, Type 0, BuildingBlock: OJICUG_clean_sbu_0, # of connection points: 6
#     Node 2, Type 0, BuildingBlock: OJICUG_clean_sbu_0, # of connection points: 6
#     Node 3, Type 0, BuildingBlock: OJICUG_clean_sbu_0, # of connection points: 6
#     Node 4, Type 1, BuildingBlock: BETDIP_clean_linker_0, # of connection points: 3
#     Node 5, Type 1, BuildingBlock: BETDIP_clean_linker_0, # of connection points: 3
#     Node 6, Type 1, BuildingBlock: BETDIP_clean_linker_0, # of connection points: 3
#     Node 7, Type 1, BuildingBlock: BETDIP_clean_linker_0, # of connection points: 3
#     Node 8, Type 1, BuildingBlock: BETDIP_clean_linker_0, # of connection points: 3
#     Node 9, Type 1, BuildingBlock: BETDIP_clean_linker_0, # of connection points: 3
#     Node 10, Type 1, BuildingBlock: BETDIP_clean_linker_0, # of connection points: 3
#     Node 11, Type 1, BuildingBlock: BETDIP_clean_linker_0, # of connection points: 3
#     Edge 12, Type (0, 1), None
#     Edge 13, Type (0, 1), None
#     Edge 14, Type (0, 1), None
#     Edge 15, Type (0, 1), None
#     Edge 16, Type (0, 1), None
#     Edge 17, Type (0, 1), None
#     Edge 18, Type (0, 1), None
#     Edge 19, Type (0, 1), None
#     Edge 20, Type (0, 1), None
#     Edge 21, Type (0, 1), None
#     Edge 22, Type (0, 1), None
#     Edge 23, Type (0, 1), None
#     Edge 24, Type (0, 1), None
#     Edge 25, Type (0, 1), None
#     Edge 26, Type (0, 1), None
#     Edge 27, Type (0, 1), None
#     Edge 28, Type (0, 1), None
#     Edge 29, Type (0, 1), None
#     Edge 30, Type (0, 1), None
#     Edge 31, Type (0, 1), None
#     Edge 32, Type (0, 1), None
#     Edge 33, Type (0, 1), None
#     Edge 34, Type (0, 1), None
#     Edge 35, Type (0, 1), None
# Relax obj value: 0.006
# Max RMSD: 0.043
# Mean RMSD: 0.033
data_MOF--net-hwx--node1-OJICUG_clean_sbu_0--node2-BETDIP_clean_linker_0--edge1-none
_symmetry_space_group_name_H-M    P1
_symmetry_Int_Tables_number       1
_symmetry_cell_setting            triclinic
loop_
_symmetry_equiv_pos_as_xyz
'x, y, z'
_cell_length_a     24.471168
_cell_length_b     24.470282
_cell_length_c     9.7158601
_cell_angle_alpha  93.592886
_cell_angle_beta   93.588192
_cell_angle_gamma 90.47275
loop_
_atom_site_label
_atom_site_type_symbol
_atom_site_fract_x
_atom_site_fract_y
_atom_site_fract_z
_atom_type_partial_charge
Sc0 Sc 0.28578 0.28449 0.20707 0.0
Sc1 Sc 0.19722 0.1934 0.0014 0.0
Sc2 Sc 0.28025 0.28985 0.85303 0.0
O3 O 0.25429 0.25556 0.02031 0.0
C4 C 0.2695 0.39477 0.05832 0.0
C5 C 0.15982 0.26186 0.26245 0.0
C6 C 0.15548 0.26943 0.76038 0.0
C7 C 0.27704 0.15886 0.25594 0.0
C8 C 0.39156 0.28672 0.03523 0.0
C9 C 0.26961 0.16222 0.75168 0.0
O10 O 0.2677 0.36806 0.16582 0.0
O11 O 0.14551 0.23398 0.15052 0.0
O12 O 0.19756 0.30069 0.77307 0.0
O13 O 0.30493 0.20326 0.26599 0.0
O14 O 0.36571 0.28088 0.91757 0.0
O15 O 0.24252 0.14599 0.84983 0.0
O16 O 0.36803 0.29286 0.14737 0.0
O17 O 0.23628 0.15039 0.16887 0.0
O18 O 0.28312 0.21205 0.74357 0.0
O19 O 0.2084 0.27916 0.29055 0.0
O20 O 0.27841 0.37269 0.94047 0.0
O21 O 0.1504 0.22803 0.83173 0.0
Sc22 Sc 0.22727 0.79473 0.301 0.0
Sc23 Sc 0.30314 0.69641 0.47228 0.0
Sc24 Sc 0.20485 0.77232 0.6436 0.0
O25 O 0.24485 0.75472 0.4723 0.0
C26 C 0.22278 0.89076 0.53734 0.0
C27 C 0.34965 0.77657 0.25737 0.0
C28 C 0.33122 0.76168 0.75254 0.0
C29 C 0.23786 0.66835 0.19203 0.0
C30 C 0.10882 0.77684 0.40729 0.0
C31 C 0.22297 0.64992 0.6872 0.0
O32 O 0.22402 0.8737 0.41131 0.0
O33 O 0.34973 0.73162 0.3159 0.0
O34 O 0.28046 0.7695 0.76859 0.0
O35 O 0.23005 0.71912 0.17599 0.0
O36 O 0.12589 0.77559 0.53331 0.0
O37 O 0.26792 0.64983 0.62865 0.0
O38 O 0.14037 0.78162 0.30967 0.0
O39 O 0.2575 0.65036 0.30543 0.0
O40 O 0.18804 0.68732 0.67008 0.0
O41 O 0.31227 0.81152 0.27451 0.0
O42 O 0.21799 0.85921 0.63495 0.0
O43 O 0.34921 0.74203 0.63913 0.0
Sc44 Sc 0.71512 0.71386 0.73764 0.0
Sc45 Sc 0.80614 0.80248 0.94331 0.0
Sc46 Sc 0.70972 0.71943 0.09168 0.0
O47 O 0.74401 0.74539 0.9244 0.0
C48 C 0.60481 0.73011 0.8863 0.0
C49 C 0.73769 0.83984 0.68223 0.0
C50 C 0.73008 0.8442 0.18431 0.0
C51 C 0.84074 0.72266 0.6888 0.0
C52 C 0.71292 0.6081 0.90958 0.0
C53 C 0.83734 0.73013 0.19305 0.0
O54 O 0.63154 0.73192 0.77881 0.0
O55 O 0.76552 0.85417 0.79421 0.0
O56 O 0.69881 0.80213 0.17156 0.0
O57 O 0.79636 0.69472 0.67882 0.0
O58 O 0.71875 0.63397 0.02722 0.0
O59 O 0.85357 0.7572 0.09485 0.0
O60 O 0.70676 0.63161 0.79742 0.0
O61 O 0.84916 0.76345 0.77581 0.0
O62 O 0.78751 0.71663 0.20119 0.0
O63 O 0.72044 0.79123 0.65411 0.0
O64 O 0.62689 0.72121 0.00416 0.0
O65 O 0.7715 0.84928 0.113 0.0
Sc66 Sc 0.76809 0.21041 0.644 0.0
Sc67 Sc 0.69149 0.30822 0.47241 0.0
Sc68 Sc 0.78926 0.23157 0.30078 0.0
O69 O 0.74982 0.24986 0.4724 0.0
C70 C 0.88569 0.22668 0.53671 0.0
C71 C 0.75602 0.33712 0.75433 0.0
C72 C 0.77267 0.35357 0.25938 0.0
C73 C 0.64611 0.22705 0.68543 0.0
C74 C 0.77294 0.11398 0.40806 0.0
C75 C 0.66256 0.2437 0.19048 0.0
O76 O 0.8543 0.22458 0.63532 0.0
O77 O 0.73643 0.35505 0.6408 0.0
O78 O 0.80731 0.31598 0.27585 0.0
O79 O 0.68368 0.19239 0.66893 0.0
O80 O 0.77507 0.14536 0.30946 0.0
O81 O 0.64464 0.2633 0.30402 0.0
O82 O 0.77321 0.13118 0.53439 0.0
O83 O 0.64549 0.27205 0.62713 0.0
O84 O 0.71341 0.23551 0.17551 0.0
O85 O 0.76419 0.28626 0.7693 0.0
O86 O 0.86849 0.22642 0.41038 0.0
O87 O 0.72767 0.35421 0.31769 0.0
H88 H 0.23943 0.53995 0.72524 0.0
H89 H 0.25248 0.55884 0.17048 0.0
H90 H 0.20922 0.69544 0.93353 0.0
H91 H 0.24865 0.47141 0.16996 0.0
C92 C 0.25876 0.45363 0.06997 0.0
C93 C 0.23484 0.56469 0.8202 0.0
C94 C 0.22154 0.62031 0.81488 0.0
C95 C 0.24314 0.54111 0.94842 0.0
C96 C 0.24187 0.57476 0.0714 0.0
C97 C 0.22994 0.63051 0.06704 0.0
C98 C 0.21727 0.65206 0.93855 0.0
N99 N 0.2555 0.48436 0.94994 0.0
H100 H 0.95149 0.74348 0.68075 0.0
H101 H 0.94802 0.75054 0.23757 0.0
H102 H 0.80667 0.69571 0.43157 0.0
H103 H 0.03503 0.77036 0.26499 0.0
C104 C 0.04984 0.7703 0.37242 0.0
C105 C 0.93053 0.73543 0.5798 0.0
C106 C 0.87566 0.71802 0.56953 0.0
C107 C 0.95821 0.7443 0.46049 0.0
C108 C 0.92914 0.73956 0.32962 0.0
C109 C 0.87391 0.72283 0.3186 0.0
C110 C 0.8494 0.70812 0.43829 0.0
N111 N 0.01438 0.76008 0.47852 0.0
H112 H 0.75635 0.46241 0.22851 0.0
H113 H 0.74242 0.44832 0.7824 0.0
H114 H 0.78576 0.30899 0.01111 0.0
H115 H 0.70226 0.527 0.80125 0.0
C116 C 0.71487 0.54823 0.89951 0.0
C117 C 0.76046 0.43862 0.13184 0.0
C118 C 0.77427 0.38338 0.13314 0.0
C119 C 0.74983 0.46299 0.00644 0.0
C120 C 0.75153 0.43081 0.88036 0.0
C121 C 0.76385 0.37477 0.88079 0.0
C122 C 0.7775 0.35238 0.00795 0.0
N123 N 0.73644 0.51949 0.01247 0.0
H124 H 0.04791 0.2415 0.26485 0.0
H125 H 0.04557 0.24782 0.71045 0.0
H126 H 0.19086 0.29146 0.52294 0.0
H127 H 0.95877 0.23256 0.67973 0.0
C128 C 0.94469 0.23067 0.57162 0.0
C129 C 0.06796 0.25111 0.36621 0.0
C130 C 0.12335 0.26661 0.37886 0.0
C131 C 0.03831 0.24707 0.48478 0.0
C132 C 0.06577 0.25493 0.61749 0.0
C133 C 0.1209 0.27141 0.63042 0.0
C134 C 0.14785 0.28007 0.51125 0.0
N135 N 0.9815 0.23428 0.46523 0.0
H136 H 0.75805 0.95175 0.67988 0.0
H137 H 0.75169 0.95411 0.23428 0.0
H138 H 0.70805 0.80881 0.42174 0.0
H139 H 0.76706 0.04089 0.26503 0.0
C140 C 0.76893 0.05498 0.37314 0.0
C141 C 0.74842 0.9317 0.57851 0.0
C142 C 0.73292 0.87631 0.56584 0.0
C143 C 0.75246 0.96136 0.45996 0.0
C144 C 0.74458 0.93391 0.32724 0.0
C145 C 0.7281 0.87878 0.31428 0.0
C146 C 0.71944 0.85181 0.43344 0.0
N147 N 0.76527 0.01817 0.47952 0.0
H148 H 0.53727 0.24337 0.71633 0.0
H149 H 0.55136 0.25731 0.16243 0.0
H150 H 0.69069 0.21398 0.93368 0.0
H151 H 0.47264 0.29738 0.14363 0.0
C152 C 0.45143 0.28479 0.04534 0.0
C153 C 0.56107 0.23926 0.81299 0.0
C154 C 0.61631 0.22546 0.81167 0.0
C155 C 0.53669 0.24989 0.9384 0.0
C156 C 0.56888 0.2482 0.06447 0.0
C157 C 0.62491 0.23588 0.06403 0.0
C158 C 0.6473 0.22223 0.93686 0.0
N159 N 0.4802 0.26326 0.93237 0.0
H160 H 0.25621 0.0481 0.26393 0.0
H161 H 0.24919 0.05154 0.70712 0.0
H162 H 0.30406 0.19289 0.51319 0.0
H163 H 0.22928 0.96456 0.67965 0.0
C164 C 0.22935 0.94974 0.57223 0.0
C165 C 0.26428 0.06905 0.36489 0.0
C166 C 0.2817 0.12392 0.37519 0.0
C167 C 0.25541 0.04136 0.48419 0.0
C168 C 0.26017 0.07042 0.61508 0.0
C169 C 0.27692 0.12565 0.62612 0.0
C170 C 0.29163 0.15016 0.50644 0.0
N171 N 0.2396 0.98519 0.46614 0.0
H172 H 0.45961 0.76012 0.21931 0.0
H173 H 0.44074 0.74706 0.77407 0.0
H174 H 0.30414 0.79031 0.01106 0.0
H175 H 0.52817 0.7509 0.77461 0.0
C176 C 0.54595 0.74081 0.8746 0.0
C177 C 0.43487 0.7647 0.12436 0.0
C178 C 0.37926 0.778 0.12968 0.0
C179 C 0.45846 0.7564 -0.00386 0.0
C180 C 0.42481 0.75767 0.87316 0.0
C181 C 0.36906 0.76959 0.87752 0.0
C182 C 0.34751 0.78226 0.00602 0.0
N183 N 0.51521 0.74405 -0.00537 0.0
loop_
_geom_bond_atom_site_label_1
_geom_bond_atom_site_label_2
_geom_bond_distance
_geom_bond_site_symmetry_2
_ccdc_geom_bond_type
Sc0 O3 2.025 . S
Sc0 O10 2.105 . S
Sc0 O13 2.105 . S
Sc0 O16 2.105 . S
Sc0 O19 2.105 . S
Sc1 O3 2.025 1_556 S
Sc1 O11 2.105 1_556 S
Sc1 O15 2.105 . S
Sc1 O17 2.105 1_556 S
Sc1 O21 2.105 . S
Sc2 O3 2.025 1_556 S
Sc2 O12 2.105 . S
Sc2 O14 2.105 . S
Sc2 O18 2.105 . S
Sc2 O20 2.105 . S
O3 Sc0 2.025 . S
O3 Sc1 2.025 1_554 S
O3 Sc2 2.025 1_554 S
C4 O10 1.268 . S
C4 O20 1.268 1_554 S
C5 O11 1.268 . S
C5 O19 1.268 . S
C6 O12 1.268 . S
C6 O21 1.268 . S
C7 O13 1.268 . S
C7 O17 1.268 . S
C8 O14 1.268 1_554 S
C8 O16 1.268 . S
C9 O15 1.268 . S
C9 O18 1.268 . S
O10 Sc0 2.105 . S
O10 C4 1.268 . S
O11 Sc1 2.105 1_554 S
O11 C5 1.268 . S
O12 Sc2 2.105 . S
O12 C6 1.268 . S
O13 Sc0 2.105 . S
O13 C7 1.268 . S
O14 Sc2 2.105 . S
O14 C8 1.268 1_556 S
O15 Sc1 2.105 . S
O15 C9 1.268 . S
O16 Sc0 2.105 . S
O16 C8 1.268 . S
O17 Sc1 2.105 1_554 S
O17 C7 1.268 . S
O18 Sc2 2.105 . S
O18 C9 1.268 . S
O19 Sc0 2.105 . S
O19 C5 1.268 . S
O20 Sc2 2.105 . S
O20 C4 1.268 1_556 S
O21 Sc1 2.105 . S
O21 C6 1.268 . S
Sc22 O25 2.025 . S
Sc22 O32 2.105 . S
Sc22 O35 2.105 . S
Sc22 O38 2.105 . S
Sc22 O41 2.105 . S
Sc23 O25 2.025 . S
Sc23 O33 2.105 . S
Sc23 O37 2.105 . S
Sc23 O39 2.105 . S
Sc23 O43 2.105 . S
Sc24 O25 2.025 . S
Sc24 O34 2.105 . S
Sc24 O36 2.105 . S
Sc24 O40 2.105 . S
Sc24 O42 2.105 . S
O25 Sc22 2.025 . S
O25 Sc23 2.025 . S
O25 Sc24 2.025 . S
C26 O32 1.268 . S
C26 O42 1.268 . S
C27 O33 1.268 . S
C27 O41 1.268 . S
C28 O34 1.268 . S
C28 O43 1.268 . S
C29 O35 1.268 . S
C29 O39 1.268 . S
C30 O36 1.268 . S
C30 O38 1.268 . S
C31 O37 1.268 . S
C31 O40 1.268 . S
O32 Sc22 2.105 . S
O32 C26 1.268 . S
O33 Sc23 2.105 . S
O33 C27 1.268 . S
O34 Sc24 2.105 . S
O34 C28 1.268 . S
O35 Sc22 2.105 . S
O35 C29 1.268 . S
O36 Sc24 2.105 . S
O36 C30 1.268 . S
O37 Sc23 2.105 . S
O37 C31 1.268 . S
O38 Sc22 2.105 . S
O38 C30 1.268 . S
O39 Sc23 2.105 . S
O39 C29 1.268 . S
O40 Sc24 2.105 . S
O40 C31 1.268 . S
O41 Sc22 2.105 . S
O41 C27 1.268 . S
O42 Sc24 2.105 . S
O42 C26 1.268 . S
O43 Sc23 2.105 . S
O43 C28 1.268 . S
Sc44 O47 2.025 1_556 S
Sc44 O54 2.105 . S
Sc44 O57 2.105 . S
Sc44 O60 2.105 . S
Sc44 O63 2.105 . S
Sc45 O47 2.025 . S
Sc45 O55 2.105 1_554 S
Sc45 O59 2.105 . S
Sc45 O61 2.105 1_554 S
Sc45 O65 2.105 . S
Sc46 O47 2.025 . S
Sc46 O56 2.105 . S
Sc46 O58 2.105 . S
Sc46 O62 2.105 . S
Sc46 O64 2.105 . S
O47 Sc44 2.025 1_554 S
O47 Sc45 2.025 . S
O47 Sc46 2.025 . S
C48 O54 1.268 1_554 S
C48 O64 1.268 . S
C49 O55 1.268 . S
C49 O63 1.268 . S
C50 O56 1.268 . S
C50 O65 1.268 . S
C51 O57 1.268 . S
C51 O61 1.268 . S
C52 O58 1.268 . S
C52 O60 1.268 1_554 S
C53 O59 1.268 . S
C53 O62 1.268 . S
O54 Sc44 2.105 . S
O54 C48 1.268 1_556 S
O55 Sc45 2.105 1_556 S
O55 C49 1.268 . S
O56 Sc46 2.105 . S
O56 C50 1.268 . S
O57 Sc44 2.105 . S
O57 C51 1.268 . S
O58 Sc46 2.105 . S
O58 C52 1.268 . S
O59 Sc45 2.105 . S
O59 C53 1.268 . S
O60 Sc44 2.105 . S
O60 C52 1.268 1_556 S
O61 Sc45 2.105 1_556 S
O61 C51 1.268 . S
O62 Sc46 2.105 . S
O62 C53 1.268 . S
O63 Sc44 2.105 . S
O63 C49 1.268 . S
O64 Sc46 2.105 . S
O64 C48 1.268 . S
O65 Sc45 2.105 . S
O65 C50 1.268 . S
Sc66 O69 2.025 . S
Sc66 O76 2.105 . S
Sc66 O79 2.105 . S
Sc66 O82 2.105 . S
Sc66 O85 2.105 . S
Sc67 O69 2.025 . S
Sc67 O77 2.105 . S
Sc67 O81 2.105 . S
Sc67 O83 2.105 . S
Sc67 O87 2.105 . S
Sc68 O69 2.025 . S
Sc68 O78 2.105 . S
Sc68 O80 2.105 . S
Sc68 O84 2.105 . S
Sc68 O86 2.105 . S
O69 Sc66 2.025 . S
O69 Sc67 2.025 . S
O69 Sc68 2.025 . S
C70 O76 1.268 . S
C70 O86 1.268 . S
C71 O77 1.268 . S
C71 O85 1.268 . S
C72 O78 1.268 . S
C72 O87 1.268 . S
C73 O79 1.268 . S
C73 O83 1.268 . S
C74 O80 1.268 . S
C74 O82 1.268 . S
C75 O81 1.268 . S
C75 O84 1.268 . S
O76 Sc66 2.105 . S
O76 C70 1.268 . S
O77 Sc67 2.105 . S
O77 C71 1.268 . S
O78 Sc68 2.105 . S
O78 C72 1.268 . S
O79 Sc66 2.105 . S
O79 C73 1.268 . S
O80 Sc68 2.105 . S
O80 C74 1.268 . S
O81 Sc67 2.105 . S
O81 C75 1.268 . S
O82 Sc66 2.105 . S
O82 C74 1.268 . S
O83 Sc67 2.105 . S
O83 C73 1.268 . S
O84 Sc68 2.105 . S
O84 C75 1.268 . S
O85 Sc66 2.105 . S
O85 C71 1.268 . S
O86 Sc68 2.105 . S
O86 C70 1.268 . S
O87 Sc67 2.105 . S
O87 C72 1.268 . S
H88 C93 0.930 . S
H89 C96 0.930 . S
H90 C98 0.930 . S
H91 C92 1.016 . S
C92 H91 1.016 . S
C92 N99 1.286 1_554 S
C93 H88 0.930 . S
C93 C94 1.397 . S
C93 C95 1.361 . S
C94 C93 1.397 . S
C94 C98 1.390 1_556 S
C95 C93 1.361 . S
C95 C96 1.393 1_556 S
C95 N99 1.413 . S
C96 H89 0.930 . S
C96 C95 1.393 1_554 S
C96 C97 1.399 . S
C97 C96 1.399 . S
C97 C98 1.381 . S
C98 H90 0.930 . S
C98 C94 1.390 1_554 S
C98 C97 1.381 . S
N99 C92 1.286 1_556 S
N99 C95 1.413 . S
H100 C105 0.930 . S
H101 C108 0.931 1_455 S
H102 C110 0.930 . S
H103 C104 1.016 . S
C104 H103 1.016 . S
C104 N111 1.286 . S
C105 H100 0.930 . S
C105 C106 1.397 . S
C105 C107 1.361 1_655 S
C106 C105 1.397 . S
C106 C110 1.390 . S
C107 C105 1.361 1_455 S
C107 C108 1.393 1_455 S
C107 N111 1.413 . S
C108 H101 0.931 1_655 S
C108 C107 1.393 1_655 S
C108 C109 1.399 . S
C109 C108 1.399 . S
C109 C110 1.381 . S
C110 H102 0.930 . S
C110 C106 1.390 . S
C110 C109 1.381 . S
N111 C104 1.286 . S
N111 C107 1.413 . S
H112 C117 0.930 . S
H113 C120 0.930 . S
H114 C122 0.930 . S
H115 C116 1.016 . S
C116 H115 1.016 . S
C116 N123 1.286 1_556 S
C117 H112 0.930 . S
C117 C118 1.397 . S
C117 C119 1.361 . S
C118 C117 1.397 . S
C118 C122 1.390 . S
C119 C117 1.361 . S
C119 C120 1.393 1_554 S
C119 N123 1.413 . S
C120 H113 0.930 . S
C120 C119 1.393 1_556 S
C120 C121 1.399 . S
C121 C120 1.399 . S
C121 C122 1.381 1_556 S
C122 H114 0.930 . S
C122 C118 1.390 . S
C122 C121 1.381 1_554 S
N123 C116 1.286 1_554 S
N123 C119 1.413 . S
H124 C129 0.930 . S
H125 C132 0.930 . S
H126 C134 0.930 . S
H127 C128 1.016 . S
C128 H127 1.016 . S
C128 N135 1.286 . S
C129 H124 0.930 . S
C129 C130 1.397 . S
C129 C131 1.361 1_455 S
C130 C129 1.397 . S
C130 C134 1.390 . S
C131 C129 1.361 1_655 S
C131 C132 1.393 1_655 S
C131 N135 1.413 . S
C132 H125 0.930 . S
C132 C131 1.393 1_455 S
C132 C133 1.399 . S
C133 C132 1.399 . S
C133 C134 1.381 . S
C134 H126 0.930 . S
C134 C130 1.390 . S
C134 C133 1.381 . S
N135 C128 1.286 . S
N135 C131 1.413 . S
H136 C141 0.930 . S
H137 C144 0.930 . S
H138 C146 0.930 . S
H139 C140 1.016 . S
C140 H139 1.016 . S
C140 N147 1.286 . S
C141 H136 0.930 . S
C141 C142 1.397 . S
C141 C143 1.360 1_565 S
C142 C141 1.397 . S
C142 C146 1.390 . S
C143 C141 1.360 1_545 S
C143 C144 1.392 1_545 S
C143 N147 1.415 . S
C144 H137 0.930 . S
C144 C143 1.392 1_565 S
C144 C145 1.399 . S
C145 C144 1.399 . S
C145 C146 1.381 . S
C146 H138 0.930 . S
C146 C142 1.390 . S
C146 C145 1.381 . S
N147 C140 1.286 . S
N147 C143 1.415 . S
H148 C153 0.930 . S
H149 C156 0.930 . S
H150 C158 0.930 . S
H151 C152 1.016 . S
C152 H151 1.016 . S
C152 N159 1.286 1_554 S
C153 H148 0.930 . S
C153 C154 1.397 . S
C153 C155 1.361 . S
C154 C153 1.397 . S
C154 C158 1.390 1_556 S
C155 C153 1.361 . S
C155 C156 1.393 1_556 S
C155 N159 1.413 . S
C156 H149 0.930 . S
C156 C155 1.393 1_554 S
C156 C157 1.399 . S
C157 C156 1.399 . S
C157 C158 1.381 . S
C158 H150 0.930 . S
C158 C154 1.390 1_554 S
C158 C157 1.381 . S
N159 C152 1.286 1_556 S
N159 C155 1.413 . S
H160 C165 0.930 . S
H161 C168 0.932 1_565 S
H162 C170 0.930 . S
H163 C164 1.016 . S
C164 H163 1.016 . S
C164 N171 1.286 . S
C165 H160 0.930 . S
C165 C166 1.397 . S
C165 C167 1.361 1_545 S
C166 C165 1.397 . S
C166 C170 1.390 . S
C167 C165 1.361 1_565 S
C167 C168 1.393 1_565 S
C167 N171 1.413 . S
C168 H161 0.932 1_545 S
C168 C167 1.393 1_545 S
C168 C169 1.399 . S
C169 C168 1.399 . S
C169 C170 1.381 . S
C170 H162 0.930 . S
C170 C166 1.390 . S
C170 C169 1.381 . S
N171 C164 1.286 . S
N171 C167 1.413 . S
H172 C177 0.930 . S
H173 C180 0.930 . S
H174 C182 0.930 . S
H175 C176 1.016 . S
C176 H175 1.016 . S
C176 N183 1.286 1_556 S
C177 H172 0.930 . S
C177 C178 1.397 . S
C177 C179 1.361 . S
C178 C177 1.397 . S
C178 C182 1.390 . S
C179 C177 1.361 . S
C179 C180 1.393 1_554 S
C179 N183 1.413 . S
C180 H173 0.930 . S
C180 C179 1.393 1_556 S
C180 C181 1.399 . S
C181 C180 1.399 . S
C181 C182 1.381 1_556 S
C182 H174 0.930 . S
C182 C178 1.390 . S
C182 C181 1.381 1_554 S
N183 C176 1.286 1_554 S
N183 C179 1.413 . S
C5 C130 1.456 . S
C31 C94 1.511 . S
C109 C53 1.486 . S
C71 C121 1.433 . S
C157 C75 1.433 . S
C169 C9 1.485 . S
C178 C27 1.511 . S
C142 C49 1.456 . S
C51 C106 1.416 . S
C72 C118 1.463 . S
C6 C133 1.510 . S
C97 C29 1.454 . S
C28 C181 1.454 . S
C145 C50 1.510 . S
C154 C73 1.463 . S
C7 C166 1.416 . S
C92 C4 1.548 . S
C104 C30 1.574 . S
C52 C116 1.580 1_554 S
C70 C128 1.541 . S
C140 C74 1.541 . S
C8 C152 1.580 . S
C26 C164 1.574 . S
C48 C176 1.548 1_554 S
