# Generated by pormake.
# Topology cml, (3,6)-cn, num edge types: 1
# Building blocks:
#     Node 0, Type 0, BuildingBlock: QEWDON_clean_linker_0, # of connection points: 3
#     Node 1, Type 0, BuildingBlock: QEWDON_clean_linker_0, # of connection points: 3
#     Node 2, Type 0, BuildingBlock: QEWDON_clean_linker_0, # of connection points: 3
#     Node 3, Type 0, BuildingBlock: QEWDON_clean_linker_0, # of connection points: 3
#     Node 4, Type 0, BuildingBlock: QEWDON_clean_linker_0, # of connection points: 3
#     Node 5, Type 0, BuildingBlock: QEWDON_clean_linker_0, # of connection points: 3
#     Node 6, Type 0, BuildingBlock: QEWDON_clean_linker_0, # of connection points: 3
#     Node 7, Type 0, BuildingBlock: QEWDON_clean_linker_0, # of connection points: 3
#     Node 8, Type 1, BuildingBlock: IZENUY_clean_sbu_0, # of connection points: 6
#     Node 9, Type 1, BuildingBlock: IZENUY_clean_sbu_0, # of connection points: 6
#     Node 10, Type 1, BuildingBlock: IZENUY_clean_sbu_0, # of connection points: 6
#     Node 11, Type 1, BuildingBlock: IZENUY_clean_sbu_0, # of connection points: 6
#     Edge 12, Type (0, 1), None
#     Edge 13, Type (0, 1), None
#     Edge 14, Type (0, 1), None
#     Edge 15, Type (0, 1), None
#     Edge 16, Type (0, 1), None
#     Edge 17, Type (0, 1), None
#     Edge 18, Type (0, 1), None
#     Edge 19, Type (0, 1), None
#     Edge 20, Type (0, 1), None
#     Edge 21, Type (0, 1), None
#     Edge 22, Type (0, 1), None
#     Edge 23, Type (0, 1), None
#     Edge 24, Type (0, 1), None
#     Edge 25, Type (0, 1), None
#     Edge 26, Type (0, 1), None
#     Edge 27, Type (0, 1), None
#     Edge 28, Type (0, 1), None
#     Edge 29, Type (0, 1), None
#     Edge 30, Type (0, 1), None
#     Edge 31, Type (0, 1), None
#     Edge 32, Type (0, 1), None
#     Edge 33, Type (0, 1), None
#     Edge 34, Type (0, 1), None
#     Edge 35, Type (0, 1), None
# Relax obj value: 0.017
# Max RMSD: 0.111
# Mean RMSD: 0.087
data_MOF--net-cml--node1-IZENUY_clean_sbu_0--node2-QEWDON_clean_linker_0--edge1-none
_symmetry_space_group_name_H-M    P1
_symmetry_Int_Tables_number       1
_symmetry_cell_setting            triclinic
loop_
_symmetry_equiv_pos_as_xyz
'x, y, z'
_cell_length_a     18.651574
_cell_length_b     19.538384
_cell_length_c     16.228118
_cell_angle_alpha  90.000079
_cell_angle_beta   90.000026
_cell_angle_gamma 91.113238
loop_
_atom_site_label
_atom_site_type_symbol
_atom_site_fract_x
_atom_site_fract_y
_atom_site_fract_z
_atom_type_partial_charge
H0 H 0.27947 0.47894 0.98271 0.0
C1 C 0.30959 0.46129 0.03553 0.0
C2 C 0.37808 0.48841 0.05024 0.0
C3 C 0.27882 0.41284 0.08998 0.0
H4 H 0.47022 0.48667 0.12779 0.0
C5 C 0.41653 0.46576 0.11838 0.0
C6 C 0.38678 0.41872 0.17558 0.0
C7 C 0.3174 0.39148 0.1605 0.0
C8 C 0.20232 0.39455 0.07782 0.0
H9 H 0.29226 0.35731 0.20494 0.0
C10 C 0.18058 0.33614 1.03237 0.0
C11 C 0.10821 0.32755 1.00863 0.0
C12 C 0.15111 0.44261 0.10103 0.0
H13 H 0.1671 0.48828 0.13478 0.0
C14 C 0.0795 0.43361 0.07831 0.0
H15 H 0.21978 0.29896 1.01372 0.0
C16 C 0.05821 0.37682 1.03177 0.0
H17 H 1.00217 0.37055 1.01517 0.0
H18 H 0.04048 0.47115 0.09609 0.0
H19 H 0.75328 0.55828 0.48271 0.0
C20 C 0.72316 0.57593 0.53553 0.0
C21 C 0.65467 0.54881 0.55024 0.0
C22 C 0.75393 0.62439 0.58998 0.0
H23 H 0.56253 0.55056 0.62779 0.0
C24 C 0.61622 0.57147 0.61838 0.0
C25 C 0.64597 0.6185 0.67558 0.0
C26 C 0.71535 0.64575 0.6605 0.0
C27 C 0.83043 0.64267 0.57782 0.0
H28 H 0.74049 0.67991 0.70494 0.0
C29 C 0.85217 0.70108 0.53237 0.0
C30 C 0.92454 0.70967 0.50863 0.0
C31 C 0.88164 0.59462 0.60103 0.0
H32 H 0.86565 0.54894 0.63478 0.0
C33 C 0.95325 0.60362 0.57831 0.0
H34 H 0.81297 0.73826 0.51372 0.0
C35 C 0.97454 0.66041 0.53177 0.0
H36 H 0.03058 0.66667 0.51516 0.0
H37 H 0.99227 0.56607 0.59609 0.0
H38 H 0.69239 0.46068 0.93945 0.0
C39 C 0.68557 0.45858 1.00579 0.0
C40 C 0.64551 0.50867 0.0458 0.0
C41 C 0.70826 0.40049 0.04856 0.0
H42 H 0.6028 0.54144 0.16261 0.0
C43 C 0.63556 0.50417 0.13144 0.0
C44 C 0.65429 0.44498 0.1741 0.0
C45 C 0.69175 0.3934 0.13263 0.0
C46 C 0.72987 0.34065 0.99972 0.0
H47 H 0.70186 0.34532 0.16353 0.0
C48 C 0.80159 0.31958 0.99584 0.0
C49 C 0.82079 0.268 0.93978 0.0
C50 C 0.67762 0.30794 0.95042 0.0
H51 H 0.62222 0.3236 0.95282 0.0
C52 C 0.69648 0.25607 0.89631 0.0
H53 H 0.84228 0.34496 0.03321 0.0
C54 C 0.7677 0.23673 0.8902 0.0
H55 H 0.78129 0.19662 0.84709 0.0
H56 H 0.65596 0.23145 0.85816 0.0
H57 H 0.34036 0.57654 0.43945 0.0
C58 C 0.34718 0.57864 0.50579 0.0
C59 C 0.38724 0.52855 0.5458 0.0
C60 C 0.32449 0.63674 0.54856 0.0
H61 H 0.42995 0.49578 0.66261 0.0
C62 C 0.39719 0.53305 0.63144 0.0
C63 C 0.37846 0.59225 0.6741 0.0
C64 C 0.341 0.64382 0.63263 0.0
C65 C 0.30288 0.69658 0.49972 0.0
H66 H 0.33089 0.6919 0.66353 0.0
C67 C 0.23116 0.71765 0.49584 0.0
C68 C 0.21196 0.76922 0.43978 0.0
C69 C 0.35513 0.72929 0.45042 0.0
H70 H 0.41053 0.71362 0.45282 0.0
C71 C 0.33627 0.78115 0.39631 0.0
H72 H 0.19047 0.69227 0.53321 0.0
C73 C 0.26505 0.80049 0.3902 0.0
H74 H 0.25146 0.84061 0.3471 0.0
H75 H 0.37679 0.80577 0.35816 0.0
H76 H 0.77947 0.97894 0.98271 0.0
C77 C 0.80959 0.96129 0.03553 0.0
C78 C 0.87808 0.98841 0.05024 0.0
C79 C 0.77882 0.91284 0.08998 0.0
H80 H 0.97022 0.98667 0.12779 0.0
C81 C 0.91653 0.96576 0.11838 0.0
C82 C 0.88678 0.91872 0.17558 0.0
C83 C 0.8174 0.89148 0.1605 0.0
C84 C 0.70232 0.89455 0.07782 0.0
H85 H 0.79226 0.85731 0.20494 0.0
C86 C 0.68058 0.83614 1.03237 0.0
C87 C 0.60821 0.82755 1.00863 0.0
C88 C 0.65111 0.94261 0.10103 0.0
H89 H 0.6671 0.98828 0.13478 0.0
C90 C 0.5795 0.93361 0.07831 0.0
H91 H 0.71978 0.79896 1.01372 0.0
C92 C 0.55821 0.87682 1.03177 0.0
H93 H 0.50217 0.87055 1.01516 0.0
H94 H 0.54048 0.97115 0.09609 0.0
H95 H 0.25328 0.05828 0.48271 0.0
C96 C 0.22316 0.07593 0.53553 0.0
C97 C 0.15467 0.04881 0.55024 0.0
C98 C 0.25393 0.12439 0.58998 0.0
H99 H 0.06253 0.05056 0.62779 0.0
C100 C 0.11622 0.07147 0.61838 0.0
C101 C 0.14597 0.1185 0.67558 0.0
C102 C 0.21535 0.14575 0.6605 0.0
C103 C 0.33043 0.14267 0.57782 0.0
H104 H 0.24049 0.17991 0.70494 0.0
C105 C 0.35217 0.20108 0.53237 0.0
C106 C 0.42454 0.20967 0.50863 0.0
C107 C 0.38164 0.09462 0.60103 0.0
H108 H 0.36565 0.04894 0.63478 0.0
C109 C 0.45325 0.10362 0.57831 0.0
H110 H 0.31297 0.23826 0.51372 0.0
C111 C 0.47454 0.16041 0.53177 0.0
H112 H 0.53058 0.16667 0.51516 0.0
H113 H 0.49227 0.06607 0.59609 0.0
H114 H 0.19239 0.96068 0.93945 0.0
C115 C 0.18557 0.95858 1.00579 0.0
C116 C 0.14551 1.00867 0.0458 0.0
C117 C 0.20826 0.90049 0.04856 0.0
H118 H 0.1028 0.04144 0.16261 0.0
C119 C 0.13556 1.00417 0.13144 0.0
C120 C 0.15429 0.94498 0.1741 0.0
C121 C 0.19175 0.8934 0.13263 0.0
C122 C 0.22987 0.84065 0.99972 0.0
H123 H 0.20186 0.84532 0.16353 0.0
C124 C 0.30159 0.81958 0.99584 0.0
C125 C 0.32079 0.768 0.93978 0.0
C126 C 0.17762 0.80794 0.95042 0.0
H127 H 0.12222 0.8236 0.95282 0.0
C128 C 0.19648 0.75607 0.89631 0.0
H129 H 0.34228 0.84496 0.03321 0.0
C130 C 0.2677 0.73673 0.8902 0.0
H131 H 0.28129 0.69662 0.84709 0.0
H132 H 0.15596 0.73145 0.85816 0.0
H133 H 0.84036 0.07654 0.43945 0.0
C134 C 0.84718 0.07864 0.50579 0.0
C135 C 0.88724 0.02855 0.5458 0.0
C136 C 0.82449 0.13674 0.54856 0.0
H137 H 0.92995 0.99578 0.66261 0.0
C138 C 0.89719 0.03305 0.63144 0.0
C139 C 0.87846 0.09225 0.6741 0.0
C140 C 0.841 0.14382 0.63263 0.0
C141 C 0.80288 0.19658 0.49972 0.0
H142 H 0.83089 0.1919 0.66353 0.0
C143 C 0.73116 0.21765 0.49584 0.0
C144 C 0.71196 0.26922 0.43978 0.0
C145 C 0.85513 0.22929 0.45042 0.0
H146 H 0.91053 0.21362 0.45282 0.0
C147 C 0.83627 0.28115 0.39631 0.0
H148 H 0.69047 0.19227 0.53321 0.0
C149 C 0.76505 0.30049 0.3902 0.0
H150 H 0.75146 0.34061 0.3471 0.0
H151 H 0.87679 0.30577 0.35816 0.0
Fe152 Fe 0.02649 0.82729 0.32676 0.0
Fe153 Fe 0.03986 0.88037 0.50591 0.0
O154 O 0.02872 0.89587 0.39883 0.0
Fe155 Fe 0.02146 0.98102 0.36309 0.0
O156 O 0.96761 0.95885 0.27388 0.0
O157 O 0.93763 0.85028 0.28566 0.0
O158 O 0.98314 0.76531 0.39754 0.0
C159 C 0.95154 0.77167 0.4662 0.0
C160 C 0.11358 0.92826 0.24934 0.0
O161 O 0.96166 0.82404 0.50991 0.0
C162 C 0.11985 0.99908 0.49404 0.0
O163 O 0.11477 0.8018 0.35833 0.0
O164 O 0.1016 0.80867 0.49289 0.0
O165 O 0.10392 0.97414 0.3033 0.0
O166 O 0.07237 0.87605 0.24563 0.0
C167 C 0.93382 0.98298 0.49758 0.0
O168 O 0.11926 0.93642 0.51274 0.0
O169 O 0.07336 0.02179 0.44564 0.0
C170 C 0.13757 0.79181 0.43024 0.0
O171 O 0.98035 0.94916 0.53644 0.0
O172 O 0.93885 0.99158 0.42047 0.0
C173 C 0.928 0.90864 0.25339 0.0
Fe174 Fe 0.99289 0.15686 1.00591 0.0
Fe175 Fe 1.01129 0.05621 0.86309 0.0
O176 O 1.00403 0.14135 0.89883 0.0
Fe177 Fe 1.00626 0.20993 0.82676 0.0
O178 O 0.04961 0.27191 0.89754 0.0
O179 O 0.07109 0.21319 1.00991 0.0
O180 O 0.0524 0.08807 0.03644 0.0
C181 C 0.09893 0.05424 0.99758 0.0
C182 C 0.89518 0.24541 0.93024 0.0
O183 O 0.0939 0.04565 0.92047 0.0
C184 C 0.91917 0.10896 0.74934 0.0
O185 O 0.91349 0.1008 1.01274 0.0
O186 O 0.95939 1.01543 0.94564 0.0
O187 O 0.91798 0.23543 0.85833 0.0
O188 O 0.93115 0.22855 0.99289 0.0
C189 C 0.10475 0.12858 0.75339 0.0
O190 O 0.92883 0.06308 0.8033 0.0
O191 O 0.96038 0.16117 0.74563 0.0
C192 C 0.9129 0.03814 0.99404 0.0
O193 O 0.06514 0.07838 0.77388 0.0
O194 O 0.09512 0.18695 0.78566 0.0
C195 C 0.08121 0.26555 0.9662 0.0
Fe196 Fe 0.52649 0.32729 0.32676 0.0
Fe197 Fe 0.53986 0.38037 0.50591 0.0
O198 O 0.52872 0.39587 0.39883 0.0
Fe199 Fe 0.52146 0.48102 0.36309 0.0
O200 O 0.46761 0.45885 0.27388 0.0
O201 O 0.43763 0.35028 0.28566 0.0
O202 O 0.48314 0.26531 0.39754 0.0
C203 C 0.45154 0.27167 0.4662 0.0
C204 C 0.61358 0.42826 0.24934 0.0
O205 O 0.46166 0.32404 0.50991 0.0
C206 C 0.61985 0.49908 0.49404 0.0
O207 O 0.61477 0.3018 0.35833 0.0
O208 O 0.6016 0.30867 0.49289 0.0
O209 O 0.60392 0.47414 0.3033 0.0
O210 O 0.57237 0.37605 0.24563 0.0
C211 C 0.43382 0.48298 0.49758 0.0
O212 O 0.61926 0.43642 0.51274 0.0
O213 O 0.57336 0.52179 0.44564 0.0
C214 C 0.63757 0.29181 0.43024 0.0
O215 O 0.48035 0.44916 0.53644 0.0
O216 O 0.43885 0.49158 0.42047 0.0
C217 C 0.428 0.40864 0.25339 0.0
Fe218 Fe 0.49289 0.65686 1.00591 0.0
Fe219 Fe 0.51129 0.55621 0.86309 0.0
O220 O 0.50403 0.64135 0.89883 0.0
Fe221 Fe 0.50626 0.70993 0.82676 0.0
O222 O 0.54961 0.77191 0.89754 0.0
O223 O 0.57109 0.71319 1.00991 0.0
O224 O 0.5524 0.58807 0.03644 0.0
C225 C 0.59893 0.55424 0.99758 0.0
C226 C 0.39518 0.74541 0.93024 0.0
O227 O 0.5939 0.54565 0.92047 0.0
C228 C 0.41917 0.60896 0.74934 0.0
O229 O 0.41349 0.6008 1.01274 0.0
O230 O 0.45939 0.51543 0.94564 0.0
O231 O 0.41798 0.73543 0.85833 0.0
O232 O 0.43115 0.72855 0.99289 0.0
C233 C 0.60475 0.62858 0.75339 0.0
O234 O 0.42883 0.56308 0.8033 0.0
O235 O 0.46038 0.66117 0.74563 0.0
C236 C 0.4129 0.53814 0.99404 0.0
O237 O 0.56514 0.57838 0.77388 0.0
O238 O 0.59512 0.68695 0.78566 0.0
C239 C 0.58121 0.76555 0.9662 0.0
loop_
_geom_bond_atom_site_label_1
_geom_bond_atom_site_label_2
_geom_bond_distance
_geom_bond_site_symmetry_2
_ccdc_geom_bond_type
H0 C1 0.949 . S
C1 H0 0.949 . S
C1 C2 1.395 . S
C1 C3 1.391 1_556 S
C2 C1 1.395 . S
C2 C5 1.390 1_556 S
C3 C1 1.391 1_554 S
C3 C7 1.387 . S
C3 C8 1.491 . S
H4 C5 0.950 . S
C5 C2 1.390 1_554 S
C5 H4 0.950 . S
C5 C6 1.378 . S
C6 C5 1.378 . S
C6 C7 1.409 . S
C7 C3 1.387 . S
C7 C6 1.409 . S
C7 H9 0.951 . S
C8 C3 1.491 . S
C8 C10 1.382 1_554 S
C8 C12 1.404 . S
H9 C7 0.951 . S
C10 C8 1.382 1_556 S
C10 C11 1.390 . S
C10 H15 0.949 . S
C11 C10 1.390 . S
C11 C16 1.399 1_556 S
C12 C8 1.404 . S
C12 H13 0.950 . S
C12 C14 1.375 . S
H13 C12 0.950 . S
C14 C12 1.375 . S
C14 C16 1.382 . S
C14 H18 0.950 . S
H15 C10 0.949 . S
C16 C11 1.399 1_554 S
C16 C14 1.382 . S
C16 H17 0.952 . S
H17 C16 0.952 . S
H18 C14 0.950 . S
H19 C20 0.949 . S
C20 H19 0.949 . S
C20 C21 1.395 . S
C20 C22 1.391 . S
C21 C20 1.395 . S
C21 C24 1.390 . S
C22 C20 1.391 . S
C22 C26 1.387 . S
C22 C27 1.491 . S
H23 C24 0.950 . S
C24 C21 1.390 . S
C24 H23 0.950 . S
C24 C25 1.378 . S
C25 C24 1.378 . S
C25 C26 1.409 . S
C26 C22 1.387 . S
C26 C25 1.409 . S
C26 H28 0.951 . S
C27 C22 1.491 . S
C27 C29 1.382 . S
C27 C31 1.404 . S
H28 C26 0.951 . S
C29 C27 1.382 . S
C29 C30 1.390 . S
C29 H34 0.949 . S
C30 C29 1.390 . S
C30 C35 1.399 . S
C31 C27 1.404 . S
C31 H32 0.950 . S
C31 C33 1.375 . S
H32 C31 0.950 . S
C33 C31 1.375 . S
C33 C35 1.382 . S
C33 H37 0.950 . S
H34 C29 0.949 . S
C35 C30 1.399 . S
C35 C33 1.382 . S
C35 H36 0.952 . S
H36 C35 0.952 . S
H37 C33 0.950 . S
H38 C39 0.949 . S
C39 H38 0.949 . S
C39 C40 1.395 . S
C39 C41 1.391 1_556 S
C40 C39 1.395 . S
C40 C43 1.390 1_556 S
C41 C39 1.391 1_554 S
C41 C45 1.387 . S
C41 C46 1.491 . S
H42 C43 0.950 . S
C43 C40 1.390 1_554 S
C43 H42 0.950 . S
C43 C44 1.378 . S
C44 C43 1.378 . S
C44 C45 1.409 . S
C45 C41 1.387 . S
C45 C44 1.409 . S
C45 H47 0.951 . S
C46 C41 1.491 . S
C46 C48 1.382 1_554 S
C46 C50 1.404 . S
H47 C45 0.951 . S
C48 C46 1.382 1_556 S
C48 C49 1.390 . S
C48 H53 0.949 . S
C49 C48 1.390 . S
C49 C54 1.399 . S
C50 C46 1.404 . S
C50 H51 0.950 . S
C50 C52 1.375 . S
H51 C50 0.950 . S
C52 C50 1.375 . S
C52 C54 1.382 1_554 S
C52 H56 0.950 . S
H53 C48 0.949 . S
C54 C49 1.399 . S
C54 C52 1.382 1_556 S
C54 H55 0.952 . S
H55 C54 0.952 . S
H56 C52 0.950 . S
H57 C58 0.949 . S
C58 H57 0.949 . S
C58 C59 1.395 . S
C58 C60 1.391 . S
C59 C58 1.395 . S
C59 C62 1.390 . S
C60 C58 1.391 . S
C60 C64 1.387 . S
C60 C65 1.491 . S
H61 C62 0.950 . S
C62 C59 1.390 . S
C62 H61 0.950 . S
C62 C63 1.378 . S
C63 C62 1.378 . S
C63 C64 1.409 . S
C64 C60 1.387 . S
C64 C63 1.409 . S
C64 H66 0.951 . S
C65 C60 1.491 . S
C65 C67 1.382 . S
C65 C69 1.404 . S
H66 C64 0.951 . S
C67 C65 1.382 . S
C67 C68 1.390 . S
C67 H72 0.949 . S
C68 C67 1.390 . S
C68 C73 1.399 . S
C69 C65 1.404 . S
C69 H70 0.950 . S
C69 C71 1.375 . S
H70 C69 0.950 . S
C71 C69 1.375 . S
C71 C73 1.382 . S
C71 H75 0.950 . S
H72 C67 0.949 . S
C73 C68 1.399 . S
C73 C71 1.382 . S
C73 H74 0.952 . S
H74 C73 0.952 . S
H75 C71 0.950 . S
H76 C77 0.949 . S
C77 H76 0.949 . S
C77 C78 1.395 . S
C77 C79 1.391 1_556 S
C78 C77 1.395 . S
C78 C81 1.390 1_556 S
C79 C77 1.391 1_554 S
C79 C83 1.387 . S
C79 C84 1.491 . S
H80 C81 0.950 . S
C81 C78 1.390 1_554 S
C81 H80 0.950 . S
C81 C82 1.378 . S
C82 C81 1.378 . S
C82 C83 1.409 . S
C83 C79 1.387 . S
C83 C82 1.409 . S
C83 H85 0.951 . S
C84 C79 1.491 . S
C84 C86 1.382 1_554 S
C84 C88 1.404 . S
H85 C83 0.951 . S
C86 C84 1.382 1_556 S
C86 C87 1.390 . S
C86 H91 0.949 . S
C87 C86 1.390 . S
C87 C92 1.399 1_556 S
C88 C84 1.404 . S
C88 H89 0.950 . S
C88 C90 1.375 . S
H89 C88 0.950 . S
C90 C88 1.375 . S
C90 C92 1.382 . S
C90 H94 0.950 . S
H91 C86 0.949 . S
C92 C87 1.399 1_554 S
C92 C90 1.382 . S
C92 H93 0.952 . S
H93 C92 0.952 . S
H94 C90 0.950 . S
H95 C96 0.949 . S
C96 H95 0.949 . S
C96 C97 1.395 . S
C96 C98 1.391 . S
C97 C96 1.395 . S
C97 C100 1.390 . S
C98 C96 1.391 . S
C98 C102 1.387 . S
C98 C103 1.491 . S
H99 C100 0.950 . S
C100 C97 1.390 . S
C100 H99 0.950 . S
C100 C101 1.378 . S
C101 C100 1.378 . S
C101 C102 1.409 . S
C102 C98 1.387 . S
C102 C101 1.409 . S
C102 H104 0.951 . S
C103 C98 1.491 . S
C103 C105 1.382 . S
C103 C107 1.404 . S
H104 C102 0.951 . S
C105 C103 1.382 . S
C105 C106 1.390 . S
C105 H110 0.949 . S
C106 C105 1.390 . S
C106 C111 1.399 . S
C107 C103 1.404 . S
C107 H108 0.950 . S
C107 C109 1.375 . S
H108 C107 0.950 . S
C109 C107 1.375 . S
C109 C111 1.382 . S
C109 H113 0.950 . S
H110 C105 0.949 . S
C111 C106 1.399 . S
C111 C109 1.382 . S
C111 H112 0.952 . S
H112 C111 0.952 . S
H113 C109 0.950 . S
H114 C115 0.949 . S
C115 H114 0.949 . S
C115 C116 1.395 . S
C115 C117 1.391 1_556 S
C116 C115 1.395 . S
C116 C119 1.390 1_556 S
C117 C115 1.391 1_554 S
C117 C121 1.387 . S
C117 C122 1.491 . S
H118 C119 0.950 1_545 S
C119 C116 1.390 1_554 S
C119 H118 0.950 1_565 S
C119 C120 1.378 . S
C120 C119 1.378 . S
C120 C121 1.409 . S
C121 C117 1.387 . S
C121 C120 1.409 . S
C121 H123 0.951 . S
C122 C117 1.491 . S
C122 C124 1.382 1_554 S
C122 C126 1.404 . S
H123 C121 0.951 . S
C124 C122 1.382 1_556 S
C124 C125 1.390 . S
C124 H129 0.949 . S
C125 C124 1.390 . S
C125 C130 1.399 . S
C126 C122 1.404 . S
C126 H127 0.950 . S
C126 C128 1.375 . S
H127 C126 0.950 . S
C128 C126 1.375 . S
C128 C130 1.382 1_554 S
C128 H132 0.950 . S
H129 C124 0.949 . S
C130 C125 1.399 . S
C130 C128 1.382 1_556 S
C130 H131 0.952 . S
H131 C130 0.952 . S
H132 C128 0.950 . S
H133 C134 0.949 . S
C134 H133 0.949 . S
C134 C135 1.395 . S
C134 C136 1.391 . S
C135 C134 1.395 . S
C135 C138 1.390 . S
C136 C134 1.391 . S
C136 C140 1.387 . S
C136 C141 1.491 . S
H137 C138 0.950 1_565 S
C138 C135 1.390 . S
C138 H137 0.950 1_545 S
C138 C139 1.378 . S
C139 C138 1.378 . S
C139 C140 1.409 . S
C140 C136 1.387 . S
C140 C139 1.409 . S
C140 H142 0.951 . S
C141 C136 1.491 . S
C141 C143 1.382 . S
C141 C145 1.404 . S
H142 C140 0.951 . S
C143 C141 1.382 . S
C143 C144 1.390 . S
C143 H148 0.949 . S
C144 C143 1.390 . S
C144 C149 1.399 . S
C145 C141 1.404 . S
C145 H146 0.950 . S
C145 C147 1.375 . S
H146 C145 0.950 . S
C147 C145 1.375 . S
C147 C149 1.382 . S
C147 H151 0.950 . S
H148 C143 0.949 . S
C149 C144 1.399 . S
C149 C147 1.382 . S
C149 H150 0.952 . S
H150 C149 0.952 . S
H151 C147 0.950 . S
Fe152 O154 1.918 . S
Fe152 O157 1.997 1_455 S
Fe152 O158 2.002 1_455 S
Fe152 O163 1.976 . S
Fe152 O166 1.996 . S
Fe153 O154 1.918 . S
Fe153 O161 1.997 1_455 S
Fe153 O164 1.996 . S
Fe153 O168 1.976 . S
Fe153 O171 2.002 1_455 S
O154 Fe152 1.918 . S
O154 Fe153 1.918 . S
O154 Fe155 1.918 . S
Fe155 O154 1.918 . S
Fe155 O156 2.002 1_455 S
Fe155 O165 1.976 . S
Fe155 O169 1.996 1_565 S
Fe155 O172 1.997 1_465 S
O156 Fe155 2.002 1_655 S
O156 C173 1.295 . S
O157 Fe152 1.997 1_655 S
O157 C173 1.235 . S
O158 Fe152 2.002 1_655 S
O158 C159 1.295 . S
C159 O158 1.295 . S
C159 O161 1.235 . S
C160 O165 1.287 . S
C160 O166 1.255 . S
O161 Fe153 1.997 1_655 S
O161 C159 1.235 . S
C162 O168 1.287 1_545 S
C162 O169 1.255 . S
O163 Fe152 1.976 . S
O163 C170 1.287 . S
O164 Fe153 1.996 . S
O164 C170 1.255 . S
O165 Fe155 1.976 . S
O165 C160 1.287 . S
O166 Fe152 1.996 . S
O166 C160 1.255 . S
C167 O171 1.295 1_545 S
C167 O172 1.235 . S
O168 Fe153 1.976 . S
O168 C162 1.287 1_565 S
O169 Fe155 1.996 1_545 S
O169 C162 1.255 . S
C170 O163 1.287 . S
C170 O164 1.255 . S
O171 Fe153 2.002 1_655 S
O171 C167 1.295 1_565 S
O172 Fe155 1.997 1_645 S
O172 C167 1.235 . S
C173 O156 1.295 . S
C173 O157 1.235 . S
Fe174 O176 1.918 . S
Fe174 O179 1.992 1_655 S
Fe174 O180 1.997 1_655 S
Fe174 O185 1.981 . S
Fe174 O188 2.000 . S
Fe175 O176 1.918 . S
Fe175 O183 1.992 1_645 S
Fe175 O186 2.000 1_545 S
Fe175 O190 1.981 . S
Fe175 O193 1.997 1_655 S
O176 Fe174 1.918 . S
O176 Fe175 1.918 . S
O176 Fe177 1.918 . S
Fe177 O176 1.918 . S
Fe177 O178 1.997 1_655 S
Fe177 O187 1.981 . S
Fe177 O191 2.001 . S
Fe177 O194 1.991 1_655 S
O178 Fe177 1.997 1_455 S
O178 C195 1.295 . S
O179 Fe174 1.992 1_455 S
O179 C195 1.235 . S
O180 Fe174 1.997 1_455 S
O180 C181 1.295 1_545 S
C181 O180 1.295 1_565 S
C181 O183 1.235 . S
C182 O187 1.287 . S
C182 O188 1.255 . S
O183 Fe175 1.992 1_465 S
O183 C181 1.235 . S
C184 O190 1.287 . S
C184 O191 1.255 . S
O185 Fe174 1.981 . S
O185 C192 1.287 1_545 S
O186 Fe175 2.000 1_565 S
O186 C192 1.255 . S
O187 Fe177 1.981 . S
O187 C182 1.287 . S
O188 Fe174 2.000 . S
O188 C182 1.255 . S
C189 O193 1.295 . S
C189 O194 1.235 . S
O190 Fe175 1.981 . S
O190 C184 1.287 . S
O191 Fe177 2.001 . S
O191 C184 1.255 . S
C192 O185 1.287 1_565 S
C192 O186 1.255 . S
O193 Fe175 1.997 1_455 S
O193 C189 1.295 . S
O194 Fe177 1.991 1_455 S
O194 C189 1.235 . S
C195 O178 1.295 . S
C195 O179 1.235 . S
Fe196 O198 1.918 . S
Fe196 O201 1.997 . S
Fe196 O202 2.002 . S
Fe196 O207 1.976 . S
Fe196 O210 1.996 . S
Fe197 O198 1.918 . S
Fe197 O205 1.997 . S
Fe197 O208 1.996 . S
Fe197 O212 1.976 . S
Fe197 O215 2.002 . S
O198 Fe196 1.918 . S
O198 Fe197 1.918 . S
O198 Fe199 1.918 . S
Fe199 O198 1.918 . S
Fe199 O200 2.002 . S
Fe199 O209 1.976 . S
Fe199 O213 1.996 . S
Fe199 O216 1.997 . S
O200 Fe199 2.002 . S
O200 C217 1.295 . S
O201 Fe196 1.997 . S
O201 C217 1.235 . S
O202 Fe196 2.002 . S
O202 C203 1.295 . S
C203 O202 1.295 . S
C203 O205 1.235 . S
C204 O209 1.287 . S
C204 O210 1.255 . S
O205 Fe197 1.997 . S
O205 C203 1.235 . S
C206 O212 1.287 . S
C206 O213 1.255 . S
O207 Fe196 1.976 . S
O207 C214 1.287 . S
O208 Fe197 1.996 . S
O208 C214 1.255 . S
O209 Fe199 1.976 . S
O209 C204 1.287 . S
O210 Fe196 1.996 . S
O210 C204 1.255 . S
C211 O215 1.295 . S
C211 O216 1.235 . S
O212 Fe197 1.976 . S
O212 C206 1.287 . S
O213 Fe199 1.996 . S
O213 C206 1.255 . S
C214 O207 1.287 . S
C214 O208 1.255 . S
O215 Fe197 2.002 . S
O215 C211 1.295 . S
O216 Fe199 1.997 . S
O216 C211 1.235 . S
C217 O200 1.295 . S
C217 O201 1.235 . S
Fe218 O220 1.918 . S
Fe218 O223 1.997 . S
Fe218 O224 2.002 . S
Fe218 O229 1.976 . S
Fe218 O232 1.996 . S
Fe219 O220 1.918 . S
Fe219 O227 1.997 . S
Fe219 O230 1.996 . S
Fe219 O234 1.976 . S
Fe219 O237 2.002 . S
O220 Fe218 1.918 . S
O220 Fe219 1.918 . S
O220 Fe221 1.918 . S
Fe221 O220 1.918 . S
Fe221 O222 2.002 . S
Fe221 O231 1.976 . S
Fe221 O235 1.996 . S
Fe221 O238 1.997 . S
O222 Fe221 2.002 . S
O222 C239 1.295 . S
O223 Fe218 1.997 . S
O223 C239 1.235 . S
O224 Fe218 2.002 . S
O224 C225 1.295 . S
C225 O224 1.295 . S
C225 O227 1.235 . S
C226 O231 1.287 . S
C226 O232 1.255 . S
O227 Fe219 1.997 . S
O227 C225 1.235 . S
C228 O234 1.287 . S
C228 O235 1.255 . S
O229 Fe218 1.976 . S
O229 C236 1.287 . S
O230 Fe219 1.996 . S
O230 C236 1.255 . S
O231 Fe221 1.976 . S
O231 C226 1.287 . S
O232 Fe218 1.996 . S
O232 C226 1.255 . S
C233 O237 1.295 . S
C233 O238 1.235 . S
O234 Fe219 1.976 . S
O234 C228 1.287 . S
O235 Fe221 1.996 . S
O235 C228 1.255 . S
C236 O229 1.287 . S
C236 O230 1.255 . S
O237 Fe219 2.002 . S
O237 C233 1.295 . S
O238 Fe221 1.997 . S
O238 C233 1.235 . S
C239 O222 1.295 . S
C239 O223 1.235 . S
C11 C195 1.547 . S
C159 C30 1.547 . S
C182 C49 1.301 . S
C170 C68 1.301 . S
C239 C87 1.547 . S
C203 C106 1.547 . S
C125 C226 1.301 . S
C214 C144 1.301 . S
C2 C236 1.757 . S
C206 C21 1.757 . S
C40 C225 1.749 . S
C59 C211 1.749 . S
C192 C78 1.757 . S
C97 C162 1.757 . S
C181 C116 1.749 . S
C167 C135 1.749 . S
C217 C6 1.620 . S
C233 C25 1.620 . S
C44 C204 1.606 . S
C228 C63 1.606 . S
C173 C82 1.620 . S
C101 C189 1.620 . S
C120 C160 1.606 . S
C139 C184 1.606 . S
