# Generated by pormake.
# Topology dag, (6,3)-cn, num edge types: 1
# Building blocks:
#     Node 0, Type 0, BuildingBlock: IZENUY_clean_sbu_0, # of connection points: 6
#     Node 1, Type 0, BuildingBlock: IZENUY_clean_sbu_0, # of connection points: 6
#     Node 2, Type 0, BuildingBlock: IZENUY_clean_sbu_0, # of connection points: 6
#     Node 3, Type 0, BuildingBlock: IZENUY_clean_sbu_0, # of connection points: 6
#     Node 4, Type 1, BuildingBlock: INOVEN_clean_linker_0, # of connection points: 3
#     Node 5, Type 1, BuildingBlock: INOVEN_clean_linker_0, # of connection points: 3
#     Node 6, Type 1, BuildingBlock: INOVEN_clean_linker_0, # of connection points: 3
#     Node 7, Type 1, BuildingBlock: INOVEN_clean_linker_0, # of connection points: 3
#     Node 8, Type 1, BuildingBlock: INOVEN_clean_linker_0, # of connection points: 3
#     Node 9, Type 1, BuildingBlock: INOVEN_clean_linker_0, # of connection points: 3
#     Node 10, Type 1, BuildingBlock: INOVEN_clean_linker_0, # of connection points: 3
#     Node 11, Type 1, BuildingBlock: INOVEN_clean_linker_0, # of connection points: 3
#     Edge 12, Type (0, 1), None
#     Edge 13, Type (0, 1), None
#     Edge 14, Type (0, 1), None
#     Edge 15, Type (0, 1), None
#     Edge 16, Type (0, 1), None
#     Edge 17, Type (0, 1), None
#     Edge 18, Type (0, 1), None
#     Edge 19, Type (0, 1), None
#     Edge 20, Type (0, 1), None
#     Edge 21, Type (0, 1), None
#     Edge 22, Type (0, 1), None
#     Edge 23, Type (0, 1), None
#     Edge 24, Type (0, 1), None
#     Edge 25, Type (0, 1), None
#     Edge 26, Type (0, 1), None
#     Edge 27, Type (0, 1), None
#     Edge 28, Type (0, 1), None
#     Edge 29, Type (0, 1), None
#     Edge 30, Type (0, 1), None
#     Edge 31, Type (0, 1), None
#     Edge 32, Type (0, 1), None
#     Edge 33, Type (0, 1), None
#     Edge 34, Type (0, 1), None
#     Edge 35, Type (0, 1), None
# Relax obj value: 0.092
# Max RMSD: 0.126
# Mean RMSD: 0.111
data_MOF--net-dag--node1-IZENUY_clean_sbu_0--node2-INOVEN_clean_linker_0--edge1-none
_symmetry_space_group_name_H-M    P1
_symmetry_Int_Tables_number       1
_symmetry_cell_setting            triclinic
loop_
_symmetry_equiv_pos_as_xyz
'x, y, z'
_cell_length_a     16.104621
_cell_length_b     18.280036
_cell_length_c     16.58192
_cell_angle_alpha  93.172451
_cell_angle_beta   90.013686
_cell_angle_gamma 90.003109
loop_
_atom_site_label
_atom_site_type_symbol
_atom_site_fract_x
_atom_site_fract_y
_atom_site_fract_z
_atom_type_partial_charge
Fe0 Fe 0.29092 0.92155 0.0569 0.0
Fe1 Fe 0.11009 0.94668 0.02069 0.0
O2 O 0.19172 0.88536 0.02933 0.0
Fe3 Fe 0.17108 0.79069 0.00898 0.0
O4 O 0.21269 0.7672 0.10766 0.0
O5 O 0.31942 0.84403 0.11441 0.0
O6 O 0.24907 0.96697 0.15331 0.0
C7 C 0.18723 0.01006 0.15196 0.0
C8 C 0.32661 0.81476 0.93552 0.0
O9 O 0.15287 0.01762 0.08595 0.0
C10 C 0.07214 0.85142 0.89397 0.0
O11 O 0.27893 1.00536 0.00065 0.0
O12 O 0.1622 0.9845 0.93469 0.0
O13 O 0.27084 0.77358 0.96194 0.0
O14 O 0.33854 0.87931 0.96521 0.0
C15 C 0.03366 0.84247 0.10525 0.0
O16 O 0.04801 0.88947 0.9537 0.0
O17 O 0.13012 0.80618 0.90472 0.0
C18 C 0.2319 0.01709 0.94119 0.0
O19 O 0.05991 0.90809 0.10695 0.0
O20 O 0.06569 0.79455 0.05566 0.0
C21 C 0.28131 0.7891 0.13849 0.0
Fe22 Fe 0.79095 0.59424 0.46911 0.0
Fe23 Fe 0.67108 0.72513 0.51674 0.0
O24 O 0.69174 0.63045 0.49657 0.0
Fe25 Fe 0.61013 0.56913 0.50529 0.0
O26 O 0.66225 0.53146 0.5914 0.0
O27 O 0.77897 0.51053 0.52552 0.0
O28 O 0.83855 0.63664 0.56074 0.0
C29 C 0.82662 0.70122 0.59032 0.0
C30 C 0.68725 0.50561 0.37415 0.0
O31 O 0.77082 0.74234 0.56381 0.0
C32 C 0.53367 0.67316 0.4205 0.0
O33 O 0.81943 0.67167 0.41145 0.0
O34 O 0.7127 0.74849 0.41803 0.0
O35 O 0.65293 0.49812 0.44017 0.0
O36 O 0.74912 0.54867 0.37275 0.0
C37 C 0.57211 0.66457 0.63182 0.0
O38 O 0.56569 0.72118 0.46999 0.0
O39 O 0.55995 0.60756 0.41892 0.0
C40 C 0.78132 0.72656 0.38727 0.0
O41 O 0.6301 0.7098 0.62102 0.0
O42 O 0.54802 0.62642 0.57214 0.0
C43 C 0.73196 0.49889 0.58499 0.0
Fe44 Fe 0.89857 0.22511 0.01703 0.0
Fe45 Fe 0.95954 0.06912 0.00533 0.0
O46 O 0.87792 0.13045 -0.00332 0.0
Fe47 Fe 0.77871 0.09427 0.9691 0.0
O48 O 0.75023 0.17179 0.91159 0.0
O49 O 0.85696 0.24861 0.91835 0.0
O50 O 1.00397 0.22125 0.97035 0.0
C51 C 0.03601 0.17331 0.92079 0.0
C52 C 0.74303 0.20106 0.09048 0.0
O53 O 1.00974 0.1077 0.91908 0.0
C54 C 0.83769 0.99874 0.08482 0.0
O55 O 0.93952 0.20963 0.12129 0.0
O56 O 1.02162 0.12632 0.07232 0.0
O57 O 0.7311 0.13651 0.06078 0.0
O58 O 0.79881 0.24223 0.06407 0.0
C59 C 0.88243 1.00578 0.87404 0.0
O60 O 0.9074 0.0313 0.09132 0.0
O61 O 0.79069 0.01046 0.02535 0.0
C62 C 0.9975 0.16438 0.13205 0.0
O63 O 0.91674 0.9982 0.94006 0.0
O64 O 0.82056 0.04884 0.87268 0.0
C65 C 0.78834 0.22672 0.88751 0.0
Fe66 Fe 0.45951 0.44669 0.52072 0.0
Fe67 Fe 0.27869 0.42157 0.55691 0.0
O68 O 0.3779 0.38537 0.52944 0.0
Fe69 Fe 0.39855 0.29068 0.50928 0.0
O70 O 0.50395 0.29464 0.55602 0.0
O71 O 0.50969 0.40826 0.60709 0.0
O72 O 0.4167 0.5177 0.58584 0.0
C73 C 0.3824 0.51021 0.65186 0.0
C74 C 0.49753 0.35124 0.39419 0.0
O75 O 0.32053 0.46715 0.65327 0.0
C76 C 0.24301 0.31459 0.4357 0.0
O77 O 0.40738 0.48436 0.43462 0.0
O78 O 0.29067 0.50529 0.5005 0.0
O79 O 0.43954 0.30602 0.405 0.0
O80 O 0.52162 0.3894 0.45387 0.0
C81 C 0.28832 0.28925 0.63875 0.0
O82 O 0.23108 0.37918 0.46528 0.0
O83 O 0.29881 0.27348 0.4622 0.0
C84 C 0.33768 0.51693 0.44102 0.0
O85 O 0.25021 0.34415 0.61457 0.0
O86 O 0.35693 0.26733 0.60798 0.0
C87 C 0.53597 0.34266 0.60551 0.0
H88 H 0.07238 0.26017 0.25462 0.0
H89 H 1.02927 0.03414 0.18447 0.0
H90 H 0.26863 0.10199 0.26895 0.0
N91 N 0.21597 0.22627 0.33798 0.0
N92 N 0.19095 0.28382 0.37401 0.0
C93 C 0.09156 0.20331 0.25064 0.0
C94 C 0.04283 0.14992 0.20853 0.0
C95 C 0.16928 0.18199 0.28236 0.0
C96 C 0.20356 0.11309 0.25833 0.0
C97 C 0.15403 0.06018 0.21845 0.0
C98 C 0.06852 0.07618 0.21282 0.0
H99 H 0.30097 0.60227 0.76867 0.0
H100 H 0.54028 0.53436 0.6844 0.0
H101 H 0.49721 0.76048 0.75429 0.0
N102 N 0.35363 0.72658 0.83766 0.0
N103 N 0.37868 0.78407 0.8738 0.0
C104 C 0.36604 0.61339 0.75806 0.0
C105 C 0.41559 0.56045 0.71827 0.0
C106 C 0.40031 0.6823 0.78205 0.0
C107 C 0.47804 0.70362 0.75034 0.0
C108 C 0.52677 0.6502 0.7083 0.0
C109 C 0.50109 0.57647 0.71267 0.0
H110 H 0.75704 0.94274 0.21973 0.0
H111 H 0.91315 0.88732 0.01713 0.0
H112 H 0.95244 0.78425 0.23859 0.0
N113 N 0.7973 0.82172 0.29814 0.0
N114 N 0.81929 0.76162 0.32293 0.0
C115 C 0.80558 0.9093 0.19148 0.0
C116 C 0.83683 0.92507 0.11536 0.0
C117 C 0.83927 0.84973 0.23084 0.0
C118 C 0.91568 0.81918 0.2018 0.0
C119 C 0.9448 0.83656 0.12536 0.0
C120 C 0.89329 0.87702 0.07756 0.0
H121 H 0.81261 0.44299 0.72003 0.0
H122 H 0.65648 0.38741 0.5174 0.0
H123 H 0.61718 0.28452 0.73894 0.0
N124 N 0.77236 0.32197 0.79848 0.0
N125 N 0.75037 0.26185 0.82321 0.0
C126 C 0.76405 0.40954 0.69178 0.0
C127 C 0.7328 0.42526 0.61564 0.0
C128 C 0.73036 0.34999 0.73118 0.0
C129 C 0.65394 0.31943 0.70213 0.0
C130 C 0.62482 0.33674 0.62567 0.0
C131 C 0.67633 0.37717 0.57785 0.0
H132 H 0.57242 0.25534 0.27172 0.0
H133 H 0.52931 0.48141 0.34161 0.0
H134 H 0.76868 0.41353 0.25735 0.0
N135 N 0.71601 0.28924 0.18835 0.0
N136 N 0.69096 0.23175 0.1522 0.0
C137 C 0.5916 0.31219 0.27567 0.0
C138 C 0.54288 0.36562 0.31772 0.0
C139 C 0.66933 0.33351 0.24396 0.0
C140 C 0.70361 0.40242 0.26796 0.0
C141 C 0.65406 0.45536 0.30774 0.0
C142 C 0.56856 0.43935 0.31334 0.0
H143 H 0.3126 0.07308 0.8063 0.0
H144 H 0.15652 0.12853 0.00893 0.0
H145 H 0.11721 0.23158 0.78746 0.0
N146 N 0.27235 0.1941 0.72789 0.0
N147 N 0.25035 0.2542 0.7031 0.0
C148 C 0.26407 0.10653 0.83457 0.0
C149 C 0.23283 0.09076 0.91068 0.0
C150 C 0.23038 0.1661 0.7952 0.0
C151 C 0.15398 0.19666 0.82426 0.0
C152 C 0.12486 0.17929 0.9007 0.0
C153 C 0.17638 0.13882 0.9485 0.0
H154 H 0.25703 0.57283 0.30598 0.0
H155 H 0.41316 0.62841 0.50862 0.0
H156 H 0.45247 0.7313 0.28708 0.0
N157 N 0.29728 0.69386 0.22754 0.0
N158 N 0.31928 0.75397 0.2028 0.0
C159 C 0.30559 0.60628 0.33423 0.0
C160 C 0.33684 0.59056 0.41037 0.0
C161 C 0.33928 0.66583 0.29483 0.0
C162 C 0.4157 0.69639 0.32388 0.0
C163 C 0.44482 0.67908 0.40035 0.0
C164 C 0.39331 0.63865 0.44816 0.0
H165 H 0.80102 0.91384 0.75706 0.0
H166 H 0.04031 0.98171 0.84155 0.0
H167 H 0.99724 0.75564 0.7714 0.0
N168 N 0.85366 0.78955 0.68804 0.0
N169 N 0.87868 0.73199 0.65201 0.0
C170 C 0.86609 0.90273 0.76769 0.0
C171 C 0.91563 0.95563 0.80756 0.0
C172 C 0.90035 0.83383 0.74366 0.0
C173 C 0.97807 0.81249 0.77538 0.0
C174 C 1.0268 0.86588 0.81749 0.0
C175 C 1.00113 0.93962 0.8132 0.0
loop_
_geom_bond_atom_site_label_1
_geom_bond_atom_site_label_2
_geom_bond_distance
_geom_bond_site_symmetry_2
_ccdc_geom_bond_type
Fe0 O2 1.918 . S
Fe0 O5 1.997 . S
Fe0 O6 2.002 . S
Fe0 O11 1.976 . S
Fe0 O14 1.996 . S
Fe1 O2 1.918 . S
Fe1 O9 1.997 . S
Fe1 O12 1.996 1_564 S
Fe1 O16 1.976 1_554 S
Fe1 O19 2.002 1_455 S
O2 Fe0 1.918 . S
O2 Fe1 1.918 . S
O2 Fe3 1.918 . S
Fe3 O2 1.918 . S
Fe3 O4 2.002 . S
Fe3 O13 1.976 1_554 S
Fe3 O17 1.996 1_554 S
Fe3 O20 1.997 1_455 S
O4 Fe3 2.002 . S
O4 C21 1.295 . S
O5 Fe0 1.997 . S
O5 C21 1.235 . S
O6 Fe0 2.002 . S
O6 C7 1.295 . S
C7 O6 1.295 . S
C7 O9 1.235 . S
C8 O13 1.287 . S
C8 O14 1.255 1_556 S
O9 Fe1 1.997 . S
O9 C7 1.235 . S
C10 O16 1.287 . S
C10 O17 1.255 . S
O11 Fe0 1.976 . S
O11 C18 1.287 1_564 S
O12 Fe1 1.996 1_546 S
O12 C18 1.255 . S
O13 Fe3 1.976 1_556 S
O13 C8 1.287 . S
O14 Fe0 1.996 . S
O14 C8 1.255 1_554 S
C15 O19 1.295 . S
C15 O20 1.235 . S
O16 Fe1 1.976 1_556 S
O16 C10 1.287 . S
O17 Fe3 1.996 1_556 S
O17 C10 1.255 . S
C18 O11 1.287 1_546 S
C18 O12 1.255 . S
O19 Fe1 2.002 1_655 S
O19 C15 1.295 . S
O20 Fe3 1.997 1_655 S
O20 C15 1.235 . S
C21 O4 1.295 . S
C21 O5 1.235 . S
Fe22 O24 1.918 . S
Fe22 O27 1.997 . S
Fe22 O28 2.002 . S
Fe22 O33 1.976 . S
Fe22 O36 1.996 . S
Fe23 O24 1.918 . S
Fe23 O31 1.997 . S
Fe23 O34 1.996 . S
Fe23 O38 1.976 . S
Fe23 O41 2.002 . S
O24 Fe22 1.918 . S
O24 Fe23 1.918 . S
O24 Fe25 1.918 . S
Fe25 O24 1.918 . S
Fe25 O26 2.002 . S
Fe25 O35 1.976 . S
Fe25 O39 1.996 . S
Fe25 O42 1.997 . S
O26 Fe25 2.002 . S
O26 C43 1.295 . S
O27 Fe22 1.997 . S
O27 C43 1.235 . S
O28 Fe22 2.002 . S
O28 C29 1.295 . S
C29 O28 1.295 . S
C29 O31 1.235 . S
C30 O35 1.287 . S
C30 O36 1.255 . S
O31 Fe23 1.997 . S
O31 C29 1.235 . S
C32 O38 1.287 . S
C32 O39 1.255 . S
O33 Fe22 1.976 . S
O33 C40 1.287 . S
O34 Fe23 1.996 . S
O34 C40 1.255 . S
O35 Fe25 1.976 . S
O35 C30 1.287 . S
O36 Fe22 1.996 . S
O36 C30 1.255 . S
C37 O41 1.295 . S
C37 O42 1.235 . S
O38 Fe23 1.976 . S
O38 C32 1.287 . S
O39 Fe25 1.996 . S
O39 C32 1.255 . S
C40 O33 1.287 . S
C40 O34 1.255 . S
O41 Fe23 2.002 . S
O41 C37 1.295 . S
O42 Fe25 1.997 . S
O42 C37 1.235 . S
C43 O26 1.295 . S
C43 O27 1.235 . S
Fe44 O46 1.918 . S
Fe44 O49 1.997 1_554 S
Fe44 O50 2.002 1_654 S
Fe44 O55 1.976 . S
Fe44 O58 1.996 . S
Fe45 O46 1.918 . S
Fe45 O53 1.997 1_654 S
Fe45 O56 1.996 1_655 S
Fe45 O60 1.976 . S
Fe45 O63 2.002 1_554 S
O46 Fe44 1.918 . S
O46 Fe45 1.918 . S
O46 Fe47 1.918 1_554 S
Fe47 O46 1.918 1_556 S
Fe47 O48 2.002 . S
Fe47 O57 1.976 1_556 S
Fe47 O61 1.996 1_556 S
Fe47 O64 1.997 . S
O48 Fe47 2.002 . S
O48 C65 1.295 . S
O49 Fe44 1.997 1_556 S
O49 C65 1.235 . S
O50 Fe44 2.002 1_456 S
O50 C51 1.295 . S
C51 O50 1.295 . S
C51 O53 1.235 . S
C52 O57 1.287 . S
C52 O58 1.255 . S
O53 Fe45 1.997 1_456 S
O53 C51 1.235 . S
C54 O60 1.287 1_565 S
C54 O61 1.255 1_565 S
O55 Fe44 1.976 . S
O55 C62 1.287 . S
O56 Fe45 1.996 1_455 S
O56 C62 1.255 1_455 S
O57 Fe47 1.976 1_554 S
O57 C52 1.287 . S
O58 Fe44 1.996 . S
O58 C52 1.255 . S
C59 O63 1.295 . S
C59 O64 1.235 . S
O60 Fe45 1.976 . S
O60 C54 1.287 1_545 S
O61 Fe47 1.996 1_554 S
O61 C54 1.255 1_545 S
C62 O55 1.287 . S
C62 O56 1.255 1_655 S
O63 Fe45 2.002 1_556 S
O63 C59 1.295 . S
O64 Fe47 1.997 . S
O64 C59 1.235 . S
C65 O48 1.295 . S
C65 O49 1.235 . S
Fe66 O68 1.918 . S
Fe66 O71 1.997 . S
Fe66 O72 2.002 . S
Fe66 O77 1.976 . S
Fe66 O80 1.996 . S
Fe67 O68 1.918 . S
Fe67 O75 1.997 . S
Fe67 O78 1.996 . S
Fe67 O82 1.976 . S
Fe67 O85 2.002 . S
O68 Fe66 1.918 . S
O68 Fe67 1.918 . S
O68 Fe69 1.918 . S
Fe69 O68 1.918 . S
Fe69 O70 2.002 . S
Fe69 O79 1.976 . S
Fe69 O83 1.996 . S
Fe69 O86 1.997 . S
O70 Fe69 2.002 . S
O70 C87 1.295 . S
O71 Fe66 1.997 . S
O71 C87 1.235 . S
O72 Fe66 2.002 . S
O72 C73 1.295 . S
C73 O72 1.295 . S
C73 O75 1.235 . S
C74 O79 1.287 . S
C74 O80 1.255 . S
O75 Fe67 1.997 . S
O75 C73 1.235 . S
C76 O82 1.287 . S
C76 O83 1.255 . S
O77 Fe66 1.976 . S
O77 C84 1.287 . S
O78 Fe67 1.996 . S
O78 C84 1.255 . S
O79 Fe69 1.976 . S
O79 C74 1.287 . S
O80 Fe66 1.996 . S
O80 C74 1.255 . S
C81 O85 1.295 . S
C81 O86 1.235 . S
O82 Fe67 1.976 . S
O82 C76 1.287 . S
O83 Fe69 1.996 . S
O83 C76 1.255 . S
C84 O77 1.287 . S
C84 O78 1.255 . S
O85 Fe67 2.002 . S
O85 C81 1.295 . S
O86 Fe69 1.997 . S
O86 C81 1.235 . S
C87 O70 1.295 . S
C87 O71 1.235 . S
H88 C93 0.929 . S
H89 C98 0.931 . S
H90 C96 0.930 . S
N91 N92 1.234 . S
N91 C95 1.453 . S
N92 N91 1.234 . S
C93 H88 0.929 . S
C93 C94 1.373 . S
C93 C95 1.368 . S
C94 C93 1.373 . S
C94 C98 1.397 . S
C95 N91 1.453 . S
C95 C93 1.368 . S
C95 C96 1.373 . S
C96 H90 0.930 . S
C96 C95 1.373 . S
C96 C97 1.371 . S
C97 C96 1.371 . S
C97 C98 1.383 . S
C98 H89 0.931 . S
C98 C94 1.397 . S
C98 C97 1.383 . S
H99 C104 0.929 . S
H100 C109 0.931 . S
H101 C107 0.930 . S
N102 N103 1.234 . S
N102 C106 1.453 . S
N103 N102 1.234 . S
C104 H99 0.929 . S
C104 C105 1.373 . S
C104 C106 1.368 . S
C105 C104 1.373 . S
C105 C109 1.397 . S
C106 N102 1.453 . S
C106 C104 1.368 . S
C106 C107 1.373 . S
C107 H101 0.930 . S
C107 C106 1.373 . S
C107 C108 1.371 . S
C108 C107 1.371 . S
C108 C109 1.383 . S
C109 H100 0.931 . S
C109 C105 1.397 . S
C109 C108 1.383 . S
H110 C115 0.929 . S
H111 C120 0.931 . S
H112 C118 0.930 . S
N113 N114 1.234 . S
N113 C117 1.453 . S
N114 N113 1.234 . S
C115 H110 0.929 . S
C115 C116 1.373 . S
C115 C117 1.368 . S
C116 C115 1.373 . S
C116 C120 1.397 . S
C117 N113 1.453 . S
C117 C115 1.368 . S
C117 C118 1.373 . S
C118 H112 0.930 . S
C118 C117 1.373 . S
C118 C119 1.371 . S
C119 C118 1.371 . S
C119 C120 1.383 . S
C120 H111 0.931 . S
C120 C116 1.397 . S
C120 C119 1.383 . S
H121 C126 0.929 . S
H122 C131 0.931 . S
H123 C129 0.930 . S
N124 N125 1.234 . S
N124 C128 1.453 . S
N125 N124 1.234 . S
C126 H121 0.929 . S
C126 C127 1.373 . S
C126 C128 1.368 . S
C127 C126 1.373 . S
C127 C131 1.397 . S
C128 N124 1.453 . S
C128 C126 1.368 . S
C128 C129 1.373 . S
C129 H123 0.930 . S
C129 C128 1.373 . S
C129 C130 1.371 . S
C130 C129 1.371 . S
C130 C131 1.383 . S
C131 H122 0.931 . S
C131 C127 1.397 . S
C131 C130 1.383 . S
H132 C137 0.929 . S
H133 C142 0.931 . S
H134 C140 0.930 . S
N135 N136 1.234 . S
N135 C139 1.453 . S
N136 N135 1.234 . S
C137 H132 0.929 . S
C137 C138 1.373 . S
C137 C139 1.368 . S
C138 C137 1.373 . S
C138 C142 1.397 . S
C139 N135 1.453 . S
C139 C137 1.368 . S
C139 C140 1.373 . S
C140 H134 0.930 . S
C140 C139 1.373 . S
C140 C141 1.371 . S
C141 C140 1.371 . S
C141 C142 1.383 . S
C142 H133 0.931 . S
C142 C138 1.397 . S
C142 C141 1.383 . S
H143 C148 0.929 . S
H144 C153 0.931 . S
H145 C151 0.930 . S
N146 N147 1.234 . S
N146 C150 1.453 . S
N147 N146 1.234 . S
C148 H143 0.929 . S
C148 C149 1.373 . S
C148 C150 1.368 . S
C149 C148 1.373 . S
C149 C153 1.397 . S
C150 N146 1.453 . S
C150 C148 1.368 . S
C150 C151 1.373 . S
C151 H145 0.930 . S
C151 C150 1.373 . S
C151 C152 1.371 . S
C152 C151 1.371 . S
C152 C153 1.383 . S
C153 H144 0.931 . S
C153 C149 1.397 . S
C153 C152 1.383 . S
H154 C159 0.929 . S
H155 C164 0.931 . S
H156 C162 0.930 . S
N157 N158 1.234 . S
N157 C161 1.453 . S
N158 N157 1.234 . S
C159 H154 0.929 . S
C159 C160 1.373 . S
C159 C161 1.368 . S
C160 C159 1.373 . S
C160 C164 1.397 . S
C161 N157 1.453 . S
C161 C159 1.368 . S
C161 C162 1.373 . S
C162 H156 0.930 . S
C162 C161 1.373 . S
C162 C163 1.371 . S
C163 C162 1.371 . S
C163 C164 1.383 . S
C164 H155 0.931 . S
C164 C160 1.397 . S
C164 C163 1.383 . S
H165 C170 0.929 . S
H166 C175 0.931 1_455 S
H167 C173 0.930 . S
N168 N169 1.234 . S
N168 C172 1.453 . S
N169 N168 1.234 . S
C170 H165 0.929 . S
C170 C171 1.373 . S
C170 C172 1.368 . S
C171 C170 1.373 . S
C171 C175 1.397 . S
C172 N168 1.453 . S
C172 C170 1.368 . S
C172 C173 1.373 . S
C173 H167 0.930 . S
C173 C172 1.373 . S
C173 C174 1.371 . S
C174 C173 1.371 . S
C174 C175 1.383 . S
C175 H166 0.931 1_655 S
C175 C171 1.397 . S
C175 C174 1.383 . S
C7 C97 1.545 1_565 S
C37 C108 1.538 . S
C54 C116 1.355 . S
C130 C87 1.438 . S
C141 C30 1.504 . S
C51 C152 1.447 . S
C84 C160 1.405 . S
C10 C174 1.480 1_455 S
C59 C171 1.350 1_545 S
C138 C74 1.236 . S
C149 C18 1.398 . S
C32 C163 1.424 . S
C105 C73 1.375 . S
C15 C119 1.421 . S
C127 C43 1.410 . S
C94 C62 1.271 1_455 S
N158 C21 1.650 . S
N169 C29 1.567 . S
C52 N136 1.431 . S
N147 C81 1.555 . S
N114 C40 1.605 . S
C65 N125 1.533 . S
N92 C76 1.451 . S
N103 C8 1.596 . S
