# Generated by pormake.
# Topology rtl, (3,6)-cn, num edge types: 1
# Building blocks:
#     Node 0, Type 0, BuildingBlock: BETDAH_clean_linker_0, # of connection points: 3
#     Node 1, Type 0, BuildingBlock: BETDAH_clean_linker_0, # of connection points: 3
#     Node 2, Type 0, BuildingBlock: BETDAH_clean_linker_0, # of connection points: 3
#     Node 3, Type 0, BuildingBlock: BETDAH_clean_linker_0, # of connection points: 3
#     Node 4, Type 1, BuildingBlock: LEVNOQ01_clean_sbu_1, # of connection points: 6
#     Node 5, Type 1, BuildingBlock: LEVNOQ01_clean_sbu_1, # of connection points: 6
#     Edge 6, Type (0, 1), BuildingBlock: AJUNOK_clean_linker_0, # of connection points: 2
#     Edge 7, Type (0, 1), BuildingBlock: AJUNOK_clean_linker_0, # of connection points: 2
#     Edge 8, Type (0, 1), BuildingBlock: AJUNOK_clean_linker_0, # of connection points: 2
#     Edge 9, Type (0, 1), BuildingBlock: AJUNOK_clean_linker_0, # of connection points: 2
#     Edge 10, Type (0, 1), BuildingBlock: AJUNOK_clean_linker_0, # of connection points: 2
#     Edge 11, Type (0, 1), BuildingBlock: AJUNOK_clean_linker_0, # of connection points: 2
#     Edge 12, Type (0, 1), BuildingBlock: AJUNOK_clean_linker_0, # of connection points: 2
#     Edge 13, Type (0, 1), BuildingBlock: AJUNOK_clean_linker_0, # of connection points: 2
#     Edge 14, Type (0, 1), BuildingBlock: AJUNOK_clean_linker_0, # of connection points: 2
#     Edge 15, Type (0, 1), BuildingBlock: AJUNOK_clean_linker_0, # of connection points: 2
#     Edge 16, Type (0, 1), BuildingBlock: AJUNOK_clean_linker_0, # of connection points: 2
#     Edge 17, Type (0, 1), BuildingBlock: AJUNOK_clean_linker_0, # of connection points: 2
# Relax obj value: 0.017
# Max RMSD: 0.110
# Mean RMSD: 0.083
data_MOF--net-rtl--node1-LEVNOQ01_clean_sbu_1--node2-BETDAH_clean_linker_0--edge1-AJUNOK_clean_linker_0
_symmetry_space_group_name_H-M    P1
_symmetry_Int_Tables_number       1
_symmetry_cell_setting            triclinic
loop_
_symmetry_equiv_pos_as_xyz
'x, y, z'
_cell_length_a     26.038678
_cell_length_b     26.01919
_cell_length_c     16.241193
_cell_angle_alpha  92.502885
_cell_angle_beta   102.76981
_cell_angle_gamma 89.975471
loop_
_atom_site_label
_atom_site_type_symbol
_atom_site_fract_x
_atom_site_fract_y
_atom_site_fract_z
_atom_type_partial_charge
H0 H 0.14221 0.94066 0.07989 0.0
H1 H 0.28312 0.87656 0.22814 0.0
H2 H 0.26869 0.89461 0.96199 0.0
C3 C 0.18116 0.9247 0.08399 0.0
C4 C 0.20122 0.91883 0.0108 0.0
C5 C 0.21037 0.90997 0.16249 0.0
C6 C 0.26003 0.88779 0.1677 0.0
C7 C 0.28087 0.88204 0.09524 0.0
C8 C 0.25165 0.89784 0.0171 0.0
N9 N 0.33285 0.86414 0.10184 0.0
C10 C 0.34507 0.81251 0.11169 0.0
H11 H 0.59441 0.65323 0.56905 0.0
H12 H 0.70493 0.76878 0.53513 0.0
H13 H 0.67813 0.7449 0.78312 0.0
C14 C 0.62152 0.68447 0.59499 0.0
C15 C 0.63223 0.6965 0.68214 0.0
C16 C 0.6464 0.71112 0.54106 0.0
C17 C 0.68491 0.74869 0.57614 0.0
C18 C 0.69654 0.76076 0.66403 0.0
C19 C 0.66957 0.73501 0.71591 0.0
N20 N 0.73464 0.79868 0.70266 0.0
C21 C 0.7737 0.81705 0.66528 0.0
H22 H 0.84229 0.07328 0.96917 0.0
H23 H 0.80888 0.21717 0.08621 0.0
H24 H 0.81961 0.21041 0.82669 0.0
C25 C 0.8338 0.11387 0.96456 0.0
C26 C 0.83224 0.1378 0.88804 0.0
C27 C 0.82749 0.14244 0.03727 0.0
C28 C 0.8138 0.19473 0.03079 0.0
C29 C 0.80868 0.21826 0.95294 0.0
C30 C 0.8199 0.19031 0.88382 0.0
N31 N 0.79633 0.27099 0.94293 0.0
C32 C 0.75922 0.29653 0.97863 0.0
H33 H 0.44239 0.39284 0.56788 0.0
H34 H 0.32071 0.28808 0.60037 0.0
H35 H 0.33701 0.3223 0.35138 0.0
C36 C 0.41029 0.3664 0.54128 0.0
C37 C 0.39433 0.3594 0.45304 0.0
C38 C 0.38413 0.34111 0.59546 0.0
C39 C 0.34138 0.30768 0.55969 0.0
C40 C 0.32552 0.30016 0.47105 0.0
C41 C 0.3515 0.32668 0.4192 0.0
N42 N 0.28369 0.26675 0.42974 0.0
C43 C 0.24946 0.23991 0.46704 0.0
O44 O 0.93679 0.11005 0.58329 0.0
Mg45 Mg 0.01598 0.08475 0.60617 0.0
O46 O 0.94361 0.02801 0.59762 0.0
Mg47 Mg 0.00494 0.00693 0.51268 0.0
O48 O 0.05987 0.0839 0.51734 0.0
O49 O 0.062 0.14711 0.61728 0.0
O50 O 0.06568 0.97781 0.43177 0.0
O51 O 0.94782 0.04216 0.39485 0.0
Mg52 Mg 0.9649 0.92336 0.38594 0.0
O53 O 0.95308 0.93129 0.50585 0.0
O54 O 0.03997 0.90126 0.37468 0.0
O55 O 0.92154 0.97668 0.30395 0.0
O56 O 0.92231 0.86512 0.41508 0.0
C57 C 0.06893 0.99756 0.70456 0.0
C58 C 0.91937 0.06949 0.60697 0.0
C59 C 0.07907 0.12767 0.55423 0.0
C60 C 0.07459 0.93625 0.39252 0.0
C61 C 0.92062 0.02426 0.32393 0.0
C62 C 0.92625 0.88826 0.48812 0.0
O63 O 0.04863 0.04125 0.71307 0.0
O64 O 0.06164 0.97543 0.6312 0.0
O65 O 0.63643 0.57525 0.20547 0.0
Mg66 Mg 0.59337 0.50616 0.18387 0.0
O67 O 0.5522 0.58874 0.18048 0.0
Mg68 Mg 0.51773 0.52498 0.06804 0.0
O69 O 0.58971 0.46546 0.07127 0.0
O70 O 0.6444 0.44826 0.19484 0.0
O71 O 0.48368 0.4626 0.95395 0.0
O72 O 0.55125 0.57343 0.97534 0.0
Mg73 Mg 0.43381 0.54234 0.95882 0.0
O74 O 0.44753 0.58534 0.06878 0.0
O75 O 0.39972 0.46832 0.94547 0.0
O76 O 0.47961 0.56729 0.87367 0.0
O77 O 0.37604 0.593 0.96344 0.0
C78 C 0.49859 0.4726 0.23497 0.0
C79 C 0.59902 0.60348 0.21626 0.0
C80 C 0.62769 0.43847 0.11506 0.0
C81 C 0.43732 0.44423 0.92541 0.0
C82 C 0.52718 0.58189 0.8998 0.0
C83 C 0.40328 0.60789 0.0368 0.0
O84 O 0.54415 0.48959 0.26846 0.0
O85 O 0.48083 0.47585 0.15598 0.0
C86 C 0.19611 0.21736 0.56821 0.0
C87 C 0.20833 0.20984 0.48902 0.0
C88 C 0.15424 0.19035 0.5881 0.0
C89 C 0.12315 0.15478 0.52949 0.0
H90 H 0.21867 0.24458 0.61473 0.0
H91 H 0.14637 0.19743 0.65035 0.0
S92 S 0.13938 0.12334 0.31188 0.0
N93 N 0.18662 0.1658 0.3508 0.0
N94 N 0.1078 0.11462 0.38804 0.0
C95 C 0.13549 0.14695 0.44996 0.0
C96 C 0.1781 0.17471 0.42974 0.0
C97 C 0.41144 0.74379 0.13034 0.0
C98 C 0.35843 0.75868 0.1109 0.0
C99 C 0.42572 0.69293 0.11367 0.0
C100 C 0.38734 0.65578 0.07646 0.0
H101 H 0.4422 0.77218 0.154 0.0
H102 H 0.46717 0.68383 0.12363 0.0
S103 S 0.2427 0.67495 0.02402 0.0
N104 N 0.26731 0.73205 0.06079 0.0
N105 N 0.29374 0.63652 0.0291 0.0
C106 C 0.33396 0.66976 0.06249 0.0
C107 C 0.31958 0.72133 0.07976 0.0
C108 C 0.8341 0.88489 0.63925 0.0
C109 C 0.81573 0.83375 0.62763 0.0
C110 C 0.87299 0.9019 0.59856 0.0
C111 C 0.89424 0.86818 0.54482 0.0
H112 H 0.81739 0.91219 0.67812 0.0
H113 H 0.88438 0.94213 0.60588 0.0
S114 S 0.86233 0.72894 0.50216 0.0
N115 N 0.82383 0.74877 0.56517 0.0
N116 N 0.8968 0.77997 0.48879 0.0
C117 C 0.87769 0.81621 0.5367 0.0
C118 C 0.83833 0.79918 0.57803 0.0
C119 C 0.6964 0.36823 0.96108 0.0
C120 C 0.721 0.32777 0.00909 0.0
C121 C 0.66315 0.40246 0.99331 0.0
C122 C 0.65428 0.39739 0.07488 0.0
H123 H 0.70417 0.3744 0.89939 0.0
H124 H 0.64658 0.43446 0.95605 0.0
S125 S 0.70469 0.29336 0.22028 0.0
N126 N 0.73071 0.28135 0.13756 0.0
N127 N 0.66864 0.34538 0.199 0.0
C128 C 0.67662 0.35517 0.12121 0.0
C129 C 0.71003 0.32039 0.08809 0.0
C130 C 0.16925 0.96703 0.25685 0.0
C131 C 0.18747 0.91795 0.23765 0.0
C132 C 0.13669 0.97369 0.31455 0.0
C133 C 0.1207 0.93142 0.35386 0.0
H134 H 0.1777 0.99995 0.22324 0.0
H135 H 0.1203 0.01127 0.32277 0.0
S136 S 0.16364 0.79635 0.334 0.0
N137 N 0.1922 0.82757 0.2695 0.0
N138 N 0.13046 0.83993 0.37747 0.0
C139 C 0.14214 0.88292 0.34035 0.0
C140 C 0.17574 0.87624 0.28234 0.0
C141 C 0.63332 0.64793 0.81298 0.0
C142 C 0.60473 0.66819 0.73766 0.0
C143 C 0.60813 0.61984 0.86484 0.0
C144 C 0.55338 0.61076 0.84321 0.0
H145 H 0.67564 0.65322 0.83142 0.0
H146 H 0.63187 0.60488 0.92202 0.0
S147 S 0.4602 0.65866 0.65491 0.0
N148 N 0.51846 0.67967 0.64629 0.0
N149 N 0.47114 0.62626 0.74209 0.0
C150 C 0.5243 0.63132 0.76822 0.0
C151 C 0.54994 0.66015 0.71594 0.0
C152 C 0.88383 0.13812 0.18377 0.0
C153 C 0.84183 0.11798 0.12035 0.0
C154 C 0.90721 0.10904 0.25323 0.0
C155 C 0.88956 0.05872 0.2611 0.0
H156 H 0.90109 0.1751 0.17669 0.0
H157 H 0.94141 0.12475 0.2978 0.0
S158 S 0.7745 0.99256 0.1204 0.0
N159 N 0.77896 0.04793 0.07641 0.0
N160 N 0.82271 0.99319 0.20576 0.0
C161 C 0.84485 0.04005 0.20168 0.0
C162 C 0.82104 0.06969 0.13165 0.0
C163 C 0.35948 0.37096 0.73034 0.0
C164 C 0.39869 0.3547 0.68814 0.0
C165 C 0.37259 0.39586 0.81077 0.0
C166 C 0.42551 0.40591 0.85233 0.0
H167 H 0.3183 0.36784 0.69863 0.0
H168 H 0.34068 0.41039 0.83784 0.0
S169 S 0.54296 0.36054 0.77685 0.0
N170 N 0.49259 0.34218 0.70005 0.0
N171 N 0.51726 0.38979 0.85039 0.0
C172 C 0.46506 0.38523 0.81437 0.0
C173 C 0.45165 0.35958 0.73252 0.0
C174 C 0.67374 0.68095 0.40856 0.0
C175 C 0.63355 0.69635 0.44913 0.0
C176 C 0.66189 0.65502 0.32889 0.0
C177 C 0.60939 0.64337 0.28681 0.0
H178 H 0.71465 0.68554 0.44109 0.0
H179 H 0.6944 0.64097 0.30285 0.0
S180 S 0.48977 0.68533 0.35932 0.0
N181 N 0.53925 0.70595 0.43585 0.0
N182 N 0.51689 0.6565 0.2871 0.0
C183 C 0.56885 0.66328 0.32321 0.0
C184 C 0.58096 0.68981 0.40419 0.0
C185 C 0.82379 0.12325 0.73112 0.0
C186 C 0.84763 0.11019 0.81437 0.0
C187 C 0.84468 0.10676 0.66201 0.0
C188 C 0.88848 0.0744 0.67279 0.0
H189 H 0.7903 0.14871 0.7195 0.0
H190 H 0.82791 0.12124 0.60038 0.0
S191 S 0.96231 0.02337 0.87413 0.0
N192 N 0.91691 0.06046 0.9015 0.0
N193 N 0.95182 0.0252 0.77041 0.0
C194 C 0.90945 0.05669 0.75376 0.0
C195 C 0.89003 0.07547 0.82487 0.0
C196 C 0.4352 0.43999 0.4145 0.0
C197 C 0.42082 0.38781 0.39592 0.0
C198 C 0.4597 0.46761 0.36135 0.0
C199 C 0.46923 0.44451 0.28652 0.0
H200 H 0.42724 0.45986 0.47028 0.0
H201 H 0.47103 0.50738 0.3786 0.0
S202 S 0.44325 0.30877 0.21096 0.0
N203 N 0.42205 0.31348 0.29957 0.0
N204 N 0.46488 0.36675 0.19743 0.0
C205 C 0.45505 0.3928 0.26661 0.0
C206 C 0.43158 0.36413 0.3218 0.0
C207 C 0.14692 0.9866 0.92979 0.0
C208 C 0.1698 0.93767 0.9299 0.0
C209 C 0.1143 0.00484 0.85696 0.0
C210 C 0.10307 0.97522 0.78027 0.0
H211 H 0.15426 0.01117 0.98684 0.0
H212 H 0.09792 0.04291 0.86128 0.0
S213 S 0.15292 0.84393 0.74697 0.0
N214 N 0.17876 0.85933 0.84735 0.0
N215 N 0.11781 0.894 0.70919 0.0
C216 C 0.12607 0.9262 0.77903 0.0
C217 C 0.15941 0.90747 0.85396 0.0
loop_
_geom_bond_atom_site_label_1
_geom_bond_atom_site_label_2
_geom_bond_distance
_geom_bond_site_symmetry_2
_ccdc_geom_bond_type
H0 C3 0.929 . S
H1 C6 0.929 . S
H2 C8 0.930 . S
C3 H0 0.929 . S
C3 C4 1.398 1_554 S
C3 C5 1.396 . S
C4 C3 1.398 1_556 S
C4 C8 1.407 . S
C5 C3 1.396 . S
C5 C6 1.394 . S
C6 H1 0.929 . S
C6 C5 1.394 . S
C6 C7 1.382 . S
C7 C6 1.382 . S
C7 C8 1.392 1_554 S
C7 N9 1.420 . S
C8 H2 0.930 . S
C8 C4 1.407 . S
C8 C7 1.392 1_556 S
N9 C7 1.420 . S
N9 C10 1.244 . S
C10 N9 1.244 . S
H11 C14 0.929 . S
H12 C17 0.929 . S
H13 C19 0.930 . S
C14 H11 0.929 . S
C14 C15 1.398 . S
C14 C16 1.396 . S
C15 C14 1.398 . S
C15 C19 1.407 . S
C16 C14 1.396 . S
C16 C17 1.394 . S
C17 H12 0.929 . S
C17 C16 1.394 . S
C17 C18 1.382 . S
C18 C17 1.382 . S
C18 C19 1.392 . S
C18 N20 1.420 . S
C19 H13 0.930 . S
C19 C15 1.407 . S
C19 C18 1.392 . S
N20 C18 1.420 . S
N20 C21 1.244 . S
C21 N20 1.244 . S
H22 C25 0.929 . S
H23 C28 0.929 . S
H24 C30 0.930 . S
C25 H22 0.929 . S
C25 C26 1.398 1_554 S
C25 C27 1.396 . S
C26 C25 1.398 1_556 S
C26 C30 1.407 . S
C27 C25 1.396 . S
C27 C28 1.394 . S
C28 H23 0.929 . S
C28 C27 1.394 . S
C28 C29 1.382 1_554 S
C29 C28 1.382 1_556 S
C29 C30 1.392 . S
C29 N31 1.420 . S
C30 H24 0.930 . S
C30 C26 1.407 . S
C30 C29 1.392 . S
N31 C29 1.420 . S
N31 C32 1.244 1_556 S
C32 N31 1.244 1_554 S
H33 C36 0.929 . S
H34 C39 0.929 . S
H35 C41 0.930 . S
C36 H33 0.929 . S
C36 C37 1.398 . S
C36 C38 1.396 . S
C37 C36 1.398 . S
C37 C41 1.407 . S
C38 C36 1.396 . S
C38 C39 1.394 . S
C39 H34 0.929 . S
C39 C38 1.394 . S
C39 C40 1.382 . S
C40 C39 1.382 . S
C40 C41 1.392 . S
C40 N42 1.420 . S
C41 H35 0.930 . S
C41 C37 1.407 . S
C41 C40 1.392 . S
N42 C40 1.420 . S
N42 C43 1.244 . S
C43 N42 1.244 . S
O44 Mg45 1.990 . S
O44 C58 1.253 1_455 S
Mg45 O44 1.990 . S
Mg45 O48 2.180 . S
Mg45 O49 2.117 . S
Mg45 O63 2.030 . S
O46 Mg47 2.072 1_655 S
O46 C58 1.260 . S
Mg47 O46 2.072 1_455 S
Mg47 O48 2.099 . S
Mg47 O50 2.079 1_545 S
Mg47 O51 2.072 1_455 S
Mg47 O53 2.099 1_445 S
Mg47 O64 2.079 1_545 S
O48 Mg45 2.180 . S
O48 Mg47 2.099 . S
O48 C59 1.279 . S
O49 Mg45 2.117 . S
O49 C59 1.250 . S
O50 Mg47 2.079 1_565 S
O50 C60 1.264 . S
O51 Mg47 2.072 1_655 S
O51 C61 1.260 . S
Mg52 O53 2.180 . S
Mg52 O54 2.030 1_655 S
Mg52 O55 1.990 1_565 S
Mg52 O56 2.117 . S
O53 Mg47 2.099 1_665 S
O53 Mg52 2.180 . S
O53 C62 1.279 . S
O54 Mg52 2.030 1_455 S
O54 C60 1.248 . S
O55 Mg52 1.990 1_545 S
O55 C61 1.253 . S
O56 Mg52 2.117 . S
O56 C62 1.250 . S
C57 O63 1.248 1_565 S
C57 O64 1.264 . S
C58 O44 1.253 1_655 S
C58 O46 1.260 . S
C59 O48 1.279 . S
C59 O49 1.250 . S
C60 O50 1.264 . S
C60 O54 1.248 . S
C61 O51 1.260 . S
C61 O55 1.253 . S
C62 O53 1.279 . S
C62 O56 1.250 . S
O63 Mg45 2.030 . S
O63 C57 1.248 1_545 S
O64 Mg47 2.079 1_565 S
O64 C57 1.264 . S
O65 Mg66 1.990 . S
O65 C79 1.253 . S
Mg66 O65 1.990 . S
Mg66 O69 2.180 . S
Mg66 O70 2.117 . S
Mg66 O84 2.030 . S
O67 Mg68 2.072 . S
O67 C79 1.260 . S
Mg68 O67 2.072 . S
Mg68 O69 2.099 . S
Mg68 O71 2.079 1_554 S
Mg68 O72 2.072 1_554 S
Mg68 O74 2.099 . S
Mg68 O85 2.079 . S
O69 Mg66 2.180 . S
O69 Mg68 2.099 . S
O69 C80 1.279 . S
O70 Mg66 2.117 . S
O70 C80 1.250 . S
O71 Mg68 2.079 1_556 S
O71 C81 1.264 . S
O72 Mg68 2.072 1_556 S
O72 C82 1.260 . S
Mg73 O74 2.180 1_556 S
Mg73 O75 2.030 . S
Mg73 O76 1.990 . S
Mg73 O77 2.117 . S
O74 Mg68 2.099 . S
O74 Mg73 2.180 1_554 S
O74 C83 1.279 . S
O75 Mg73 2.030 . S
O75 C81 1.248 . S
O76 Mg73 1.990 . S
O76 C82 1.253 . S
O77 Mg73 2.117 . S
O77 C83 1.250 1_556 S
C78 O84 1.248 . S
C78 O85 1.264 . S
C79 O65 1.253 . S
C79 O67 1.260 . S
C80 O69 1.279 . S
C80 O70 1.250 . S
C81 O71 1.264 . S
C81 O75 1.248 . S
C82 O72 1.260 . S
C82 O76 1.253 . S
C83 O74 1.279 . S
C83 O77 1.250 1_554 S
O84 Mg66 2.030 . S
O84 C78 1.248 . S
O85 Mg68 2.079 . S
O85 C78 1.264 . S
C86 C87 1.369 . S
C86 C88 1.419 . S
C86 H90 0.930 . S
C87 C86 1.369 . S
C87 C96 1.429 . S
C88 C86 1.419 . S
C88 C89 1.363 . S
C88 H91 0.929 . S
C89 C88 1.363 . S
C89 C95 1.428 . S
H90 C86 0.930 . S
H91 C88 0.929 . S
S92 N93 1.613 . S
S92 N94 1.610 . S
N93 S92 1.613 . S
N93 C96 1.350 . S
N94 S92 1.610 . S
N94 C95 1.351 . S
C95 C89 1.428 . S
C95 N94 1.351 . S
C95 C96 1.434 . S
C96 C87 1.429 . S
C96 N93 1.350 . S
C96 C95 1.434 . S
C97 C98 1.369 . S
C97 C99 1.419 . S
C97 H101 0.930 . S
C98 C97 1.369 . S
C98 C107 1.429 . S
C99 C97 1.419 . S
C99 C100 1.363 . S
C99 H102 0.929 . S
C100 C99 1.363 . S
C100 C106 1.428 . S
H101 C97 0.930 . S
H102 C99 0.929 . S
S103 N104 1.613 . S
S103 N105 1.610 . S
N104 S103 1.613 . S
N104 C107 1.350 1_556 S
N105 S103 1.610 . S
N105 C106 1.351 1_556 S
C106 C100 1.428 . S
C106 N105 1.351 1_554 S
C106 C107 1.434 . S
C107 C98 1.429 . S
C107 N104 1.350 1_554 S
C107 C106 1.434 . S
C108 C109 1.369 . S
C108 C110 1.419 . S
C108 H112 0.930 . S
C109 C108 1.369 . S
C109 C118 1.429 . S
C110 C108 1.419 . S
C110 C111 1.363 . S
C110 H113 0.929 . S
C111 C110 1.363 . S
C111 C117 1.428 . S
H112 C108 0.930 . S
H113 C110 0.929 . S
S114 N115 1.613 . S
S114 N116 1.610 . S
N115 S114 1.613 . S
N115 C118 1.350 . S
N116 S114 1.610 . S
N116 C117 1.351 . S
C117 C111 1.428 . S
C117 N116 1.351 . S
C117 C118 1.434 . S
C118 C109 1.429 . S
C118 N115 1.350 . S
C118 C117 1.434 . S
C119 C120 1.369 1_556 S
C119 C121 1.419 1_556 S
C119 H123 0.930 . S
C120 C119 1.369 1_554 S
C120 C129 1.429 . S
C121 C119 1.419 1_554 S
C121 C122 1.363 . S
C121 H124 0.929 1_554 S
C122 C121 1.363 . S
C122 C128 1.428 . S
H123 C119 0.930 . S
H124 C121 0.929 1_556 S
S125 N126 1.613 . S
S125 N127 1.610 . S
N126 S125 1.613 . S
N126 C129 1.350 . S
N127 S125 1.610 . S
N127 C128 1.351 . S
C128 C122 1.428 . S
C128 N127 1.351 . S
C128 C129 1.434 . S
C129 C120 1.429 . S
C129 N126 1.350 . S
C129 C128 1.434 . S
C130 C131 1.369 . S
C130 C132 1.419 . S
C130 H134 0.930 . S
C131 C130 1.369 . S
C131 C140 1.429 . S
C132 C130 1.419 . S
C132 C133 1.363 . S
C132 H135 0.929 . S
C133 C132 1.363 . S
C133 C139 1.428 . S
H134 C130 0.930 . S
H135 C132 0.929 . S
S136 N137 1.613 . S
S136 N138 1.610 . S
N137 S136 1.613 . S
N137 C140 1.350 . S
N138 S136 1.610 . S
N138 C139 1.351 . S
C139 C133 1.428 . S
C139 N138 1.351 . S
C139 C140 1.434 . S
C140 C131 1.429 . S
C140 N137 1.350 . S
C140 C139 1.434 . S
C141 C142 1.369 . S
C141 C143 1.419 . S
C141 H145 0.930 . S
C142 C141 1.369 . S
C142 C151 1.429 . S
C143 C141 1.419 . S
C143 C144 1.363 . S
C143 H146 0.929 . S
C144 C143 1.363 . S
C144 C150 1.428 . S
H145 C141 0.930 . S
H146 C143 0.929 . S
S147 N148 1.613 . S
S147 N149 1.610 . S
N148 S147 1.613 . S
N148 C151 1.350 . S
N149 S147 1.610 . S
N149 C150 1.351 . S
C150 C144 1.428 . S
C150 N149 1.351 . S
C150 C151 1.434 . S
C151 C142 1.429 . S
C151 N148 1.350 . S
C151 C150 1.434 . S
C152 C153 1.369 . S
C152 C154 1.419 . S
C152 H156 0.930 . S
C153 C152 1.369 . S
C153 C162 1.429 . S
C154 C152 1.419 . S
C154 C155 1.363 . S
C154 H157 0.929 . S
C155 C154 1.363 . S
C155 C161 1.428 . S
H156 C152 0.930 . S
H157 C154 0.929 . S
S158 N159 1.613 . S
S158 N160 1.610 . S
N159 S158 1.613 . S
N159 C162 1.350 . S
N160 S158 1.610 . S
N160 C161 1.351 . S
C161 C155 1.428 . S
C161 N160 1.351 . S
C161 C162 1.434 . S
C162 C153 1.429 . S
C162 N159 1.350 . S
C162 C161 1.434 . S
C163 C164 1.369 . S
C163 C165 1.419 . S
C163 H167 0.930 . S
C164 C163 1.369 . S
C164 C173 1.429 . S
C165 C163 1.419 . S
C165 C166 1.363 . S
C165 H168 0.929 . S
C166 C165 1.363 . S
C166 C172 1.428 . S
H167 C163 0.930 . S
H168 C165 0.929 . S
S169 N170 1.613 . S
S169 N171 1.610 . S
N170 S169 1.613 . S
N170 C173 1.350 . S
N171 S169 1.610 . S
N171 C172 1.351 . S
C172 C166 1.428 . S
C172 N171 1.351 . S
C172 C173 1.434 . S
C173 C164 1.429 . S
C173 N170 1.350 . S
C173 C172 1.434 . S
C174 C175 1.369 . S
C174 C176 1.419 . S
C174 H178 0.930 . S
C175 C174 1.369 . S
C175 C184 1.429 . S
C176 C174 1.419 . S
C176 C177 1.363 . S
C176 H179 0.929 . S
C177 C176 1.363 . S
C177 C183 1.428 . S
H178 C174 0.930 . S
H179 C176 0.929 . S
S180 N181 1.613 . S
S180 N182 1.610 . S
N181 S180 1.613 . S
N181 C184 1.350 . S
N182 S180 1.610 . S
N182 C183 1.351 . S
C183 C177 1.428 . S
C183 N182 1.351 . S
C183 C184 1.434 . S
C184 C175 1.429 . S
C184 N181 1.350 . S
C184 C183 1.434 . S
C185 C186 1.369 . S
C185 C187 1.419 . S
C185 H189 0.930 . S
C186 C185 1.369 . S
C186 C195 1.429 . S
C187 C185 1.419 . S
C187 C188 1.363 . S
C187 H190 0.929 . S
C188 C187 1.363 . S
C188 C194 1.428 . S
H189 C185 0.930 . S
H190 C187 0.929 . S
S191 N192 1.613 . S
S191 N193 1.610 . S
N192 S191 1.613 . S
N192 C195 1.350 . S
N193 S191 1.610 . S
N193 C194 1.351 . S
C194 C188 1.428 . S
C194 N193 1.351 . S
C194 C195 1.434 . S
C195 C186 1.429 . S
C195 N192 1.350 . S
C195 C194 1.434 . S
C196 C197 1.369 . S
C196 C198 1.419 . S
C196 H200 0.930 . S
C197 C196 1.369 . S
C197 C206 1.429 . S
C198 C196 1.419 . S
C198 C199 1.363 . S
C198 H201 0.929 . S
C199 C198 1.363 . S
C199 C205 1.428 . S
H200 C196 0.930 . S
H201 C198 0.929 . S
S202 N203 1.613 . S
S202 N204 1.610 . S
N203 S202 1.613 . S
N203 C206 1.350 . S
N204 S202 1.610 . S
N204 C205 1.351 . S
C205 C199 1.428 . S
C205 N204 1.351 . S
C205 C206 1.434 . S
C206 C197 1.429 . S
C206 N203 1.350 . S
C206 C205 1.434 . S
C207 C208 1.369 . S
C207 C209 1.419 . S
C207 H211 0.930 . S
C208 C207 1.369 . S
C208 C217 1.429 . S
C209 C207 1.419 . S
C209 C210 1.363 . S
C209 H212 0.929 . S
C210 C209 1.363 . S
C210 C216 1.428 . S
H211 C207 0.930 . S
H212 C209 0.929 . S
S213 N214 1.613 . S
S213 N215 1.610 . S
N214 S213 1.613 . S
N214 C217 1.350 . S
N215 S213 1.610 . S
N215 C216 1.351 . S
C216 C210 1.428 . S
C216 N215 1.351 . S
C216 C217 1.434 . S
C217 C208 1.429 . S
C217 N214 1.350 . S
C217 C216 1.434 . S
C89 C59 1.275 . S
C87 C43 1.462 . S
C98 C10 1.495 . S
C100 C83 1.312 . S
C109 C21 1.569 . S
C111 C62 1.390 . S
C120 C32 1.569 . S
C122 C80 1.363 . S
C133 C60 1.496 . S
C131 C5 1.497 . S
C144 C82 1.518 . S
C142 C15 1.594 . S
C153 C27 1.585 . S
C155 C61 1.539 . S
C164 C38 1.501 . S
C166 C81 1.450 . S
C177 C79 1.472 . S
C175 C16 1.519 . S
C188 C58 1.459 . S
C186 C26 1.526 . S
C199 C78 1.421 . S
C197 C37 1.452 . S
C208 C4 1.455 . S
C210 C57 1.399 . S
