# Generated by pormake.
# Topology tsx, (6,3)-cn, num edge types: 1
# Building blocks:
#     Node 0, Type 0, BuildingBlock: MIDCAF_clean_sbu_0, # of connection points: 6
#     Node 1, Type 0, BuildingBlock: MIDCAF_clean_sbu_0, # of connection points: 6
#     Node 2, Type 1, BuildingBlock: ESEHIV_clean_linker_0, # of connection points: 3
#     Node 3, Type 1, BuildingBlock: ESEHIV_clean_linker_0, # of connection points: 3
#     Node 4, Type 1, BuildingBlock: ESEHIV_clean_linker_0, # of connection points: 3
#     Node 5, Type 1, BuildingBlock: ESEHIV_clean_linker_0, # of connection points: 3
#     Edge 6, Type (0, 1), BuildingBlock: AJUNOK_clean_linker_0, # of connection points: 2
#     Edge 7, Type (0, 1), BuildingBlock: AJUNOK_clean_linker_0, # of connection points: 2
#     Edge 8, Type (0, 1), BuildingBlock: AJUNOK_clean_linker_0, # of connection points: 2
#     Edge 9, Type (0, 1), BuildingBlock: AJUNOK_clean_linker_0, # of connection points: 2
#     Edge 10, Type (0, 1), BuildingBlock: AJUNOK_clean_linker_0, # of connection points: 2
#     Edge 11, Type (0, 1), BuildingBlock: AJUNOK_clean_linker_0, # of connection points: 2
#     Edge 12, Type (0, 1), BuildingBlock: AJUNOK_clean_linker_0, # of connection points: 2
#     Edge 13, Type (0, 1), BuildingBlock: AJUNOK_clean_linker_0, # of connection points: 2
#     Edge 14, Type (0, 1), BuildingBlock: AJUNOK_clean_linker_0, # of connection points: 2
#     Edge 15, Type (0, 1), BuildingBlock: AJUNOK_clean_linker_0, # of connection points: 2
#     Edge 16, Type (0, 1), BuildingBlock: AJUNOK_clean_linker_0, # of connection points: 2
#     Edge 17, Type (0, 1), BuildingBlock: AJUNOK_clean_linker_0, # of connection points: 2
# Relax obj value: 0.118
# Max RMSD: 0.182
# Mean RMSD: 0.113
data_MOF--net-tsx--node1-MIDCAF_clean_sbu_0--node2-ESEHIV_clean_linker_0--edge1-AJUNOK_clean_linker_0
_symmetry_space_group_name_H-M    P1
_symmetry_Int_Tables_number       1
_symmetry_cell_setting            triclinic
loop_
_symmetry_equiv_pos_as_xyz
'x, y, z'
_cell_length_a     12.649571
_cell_length_b     13.960094
_cell_length_c     26.645037
_cell_angle_alpha  90.856248
_cell_angle_beta   98.578618
_cell_angle_gamma 90.068256
loop_
_atom_site_label
_atom_site_type_symbol
_atom_site_fract_x
_atom_site_fract_y
_atom_site_fract_z
_atom_type_partial_charge
Zn0 Zn 0.88699 0.97209 0.93058 0.0
Zn1 Zn 0.24286 0.00877 0.02797 0.0
Zn2 Zn 0.0689 -0.00957 -0.0114 0.0
C3 C 0.21107 0.17965 -0.00909 0.0
C4 C 0.27418 0.86096 0.97448 0.0
O5 O 0.96252 0.90646 0.03176 0.0
O6 O 0.82338 0.87958 0.97199 0.0
C7 C 0.91791 0.16646 0.95432 0.0
O8 O 0.11754 0.14595 -0.00534 0.0
O9 O 0.28934 0.12328 -0.00541 0.0
O10 O 0.31946 0.89197 0.01681 0.0
O11 O 0.18401 0.8968 0.95435 0.0
O12 O 0.84519 0.10878 0.93559 0.0
O13 O 1.0106 0.13584 0.97332 0.0
O14 O 0.10201 0.9241 0.91734 0.0
O15 O 0.94449 0.92911 0.86862 0.0
C16 C 0.04354 0.91254 0.87378 0.0
O17 O 0.05588 0.93947 0.06469 0.0
O18 O 0.19934 0.02278 0.09553 0.0
C19 C 0.87095 0.86678 0.01642 0.0
C20 C 0.11948 0.97357 0.10294 0.0
Zn21 Zn 0.71622 0.48518 0.54422 0.0
Zn22 Zn 0.36303 0.49474 0.44734 0.0
Zn23 Zn 0.54011 0.49165 0.4872 0.0
C24 C 0.49351 0.46894 0.37228 0.0
C25 C 0.38437 0.6713 0.48453 0.0
O26 O 0.51196 0.42529 0.55853 0.0
O27 O 0.6683 0.44305 0.60725 0.0
C28 C 0.74591 0.3769 0.46081 0.0
O29 O 0.56029 0.44197 0.41066 0.0
O30 O 0.40614 0.50636 0.37964 0.0
O31 O 0.31017 0.6101 0.47957 0.0
O32 O 0.48077 0.64322 0.48214 0.0
O33 O 0.78903 0.39442 0.50576 0.0
O34 O 0.65271 0.41139 0.44416 0.0
O35 O 0.58888 0.64209 0.50257 0.0
O36 O 0.75517 0.62126 0.5398 0.0
C37 C 0.68083 0.67622 0.52139 0.0
O38 O 0.43188 0.39196 0.52181 0.0
O39 O 0.29452 0.3749 0.46069 0.0
C40 C 0.57112 0.41926 0.60211 0.0
C41 C 0.34385 0.34949 0.50289 0.0
H42 H 0.9502 0.10143 0.29957 0.0
H43 H 0.18766 0.8867 0.34381 0.0
H44 H 0.08819 0.07392 0.45672 0.0
C45 C 1.00278 0.06424 0.32875 0.0
C46 C 1.00637 0.09233 0.37986 0.0
C47 C 0.07159 -0.00724 0.31508 0.0
C48 C 0.13983 0.94669 0.3535 0.0
C49 C 0.1508 0.97883 0.40406 0.0
C50 C 0.08229 0.05058 0.41742 0.0
H51 H 0.93258 0.88832 0.65813 0.0
H52 H 0.22591 0.04654 0.6647 0.0
H53 H 0.98565 0.06292 0.5329 0.0
C54 C 0.98325 0.93621 0.6407 0.0
C55 C 0.9483 0.96859 0.59123 0.0
C56 C 0.08189 0.96525 0.66833 0.0
C57 C 0.14856 0.02484 0.6447 0.0
C58 C 0.11354 0.06092 0.59617 0.0
C59 C 1.01308 0.03338 0.5699 0.0
H60 H 0.40393 0.56223 0.81301 0.0
H61 H 0.69074 0.39693 0.81793 0.0
H62 H 0.64231 0.57356 0.94593 0.0
C63 C 0.48061 0.53966 0.83276 0.0
C64 C 0.51588 0.57505 0.88194 0.0
C65 C 0.54518 0.47835 0.80843 0.0
C66 C 0.6422 0.44688 0.83585 0.0
C67 C 0.67706 0.47806 0.88613 0.0
C68 C 0.61515 0.54566 0.90805 0.0
H69 H 0.41499 0.39714 0.13347 0.0
H70 H 0.67066 0.59933 0.17363 0.0
H71 H 0.51104 0.57989 0.01952 0.0
C72 C 0.4655 0.45369 0.12263 0.0
C73 C 0.4503 0.48503 0.07221 0.0
C74 C 0.54231 0.49554 0.15995 0.0
C75 C 0.61211 0.56443 0.14539 0.0
C76 C 0.60278 0.59282 0.09462 0.0
C77 C 0.52046 0.55474 0.0582 0.0
C78 C 0.20203 0.33938 0.03151 0.0
C79 C 0.23482 0.283 -0.00732 0.0
C80 C 0.26508 0.41693 0.05258 0.0
C81 C 0.36297 0.43914 0.03574 0.0
H82 H 0.1362 0.31615 0.0502 0.0
H83 H 0.24388 0.45203 0.08621 0.0
S84 S 0.45751 0.33491 0.92167 0.0
N85 N 0.35069 0.27117 0.92823 0.0
N86 N 0.46957 0.41623 0.96786 0.0
C87 C 0.38374 0.39486 -0.00943 0.0
C88 C 0.3193 0.31646 0.96902 0.0
C89 C 0.44103 0.79995 0.94851 0.0
C90 C 0.3304 0.78924 0.94784 0.0
C91 C 0.50018 0.72995 0.92737 0.0
C92 C 0.45089 0.64619 0.90523 0.0
H93 H 0.48225 0.8633 0.96541 0.0
H94 H 0.58502 0.74199 0.92799 0.0
S95 S 0.16444 0.58052 0.89813 0.0
N96 N 0.17399 0.6879 0.92541 0.0
N97 N 0.28584 0.5537 0.88665 0.0
C98 C 0.34021 0.63393 0.90495 0.0
C99 C 0.27966 0.70626 0.92595 0.0
C100 C 0.84712 0.70743 0.05326 0.0
C101 C 0.81734 0.80422 0.04866 0.0
C102 C 0.77793 0.63921 0.06924 0.0
C103 C 0.67682 0.66595 0.08048 0.0
H104 H 0.92121 0.68344 0.04149 0.0
H105 H 0.80197 0.56475 0.07113 0.0
S106 S 0.56589 0.91124 0.07867 0.0
N107 N 0.68341 0.92404 0.05951 0.0
N108 N 0.55377 0.7959 0.08979 0.0
C109 C 0.64839 0.7629 0.07826 0.0
C110 C 0.71867 0.8321 0.06221 0.0
C111 C 0.91609 0.31794 0.90812 0.0
C112 C 0.89507 0.26887 0.95104 0.0
C113 C 0.85561 0.39831 0.89125 0.0
C114 C 0.77063 0.42972 0.91614 0.0
H115 H 0.97095 0.28816 0.88446 0.0
H116 H 0.86736 0.42893 0.85536 0.0
S117 S 0.71368 0.34388 0.04084 0.0
N118 N 0.80602 0.2702 0.02538 0.0
N119 N 0.69321 0.42223 -0.00537 0.0
C120 C 0.76354 0.39129 0.96421 0.0
C121 C 0.82501 0.30946 0.98119 0.0
C122 C 0.69206 0.82805 0.56933 0.0
C123 C 0.70321 0.77909 0.52414 0.0
C124 C 0.7628 0.90221 0.58761 0.0
C125 C 0.84831 0.9273 0.5618 0.0
H126 H 0.63774 0.80118 0.59372 0.0
H127 H 0.75793 0.93213 0.62494 0.0
S128 S 0.88297 0.84281 0.43234 0.0
N129 N 0.78369 0.77734 0.44722 0.0
N130 N 0.91744 0.91631 0.48118 0.0
C131 C 0.84628 0.89079 0.51203 0.0
C132 C 0.77355 0.81595 0.49339 0.0
C133 C 0.91916 0.31998 0.43979 0.0
C134 C 0.80669 0.3148 0.43009 0.0
C135 C 0.98271 0.24918 0.42204 0.0
C136 C 0.93645 0.17038 0.39372 0.0
H137 H 0.95862 0.37738 0.46331 0.0
H138 H 0.06881 0.25495 0.43156 0.0
S139 S 0.64642 0.12706 0.35384 0.0
N140 N 0.65173 0.22804 0.3873 0.0
N141 N 0.77177 0.09417 0.35336 0.0
C142 C 0.82433 0.16702 0.38089 0.0
C143 C 0.75921 0.23958 0.39915 0.0
C144 C 0.18437 0.29056 0.53579 0.0
C145 C 0.29277 0.2785 0.53145 0.0
C146 C 0.12776 0.21992 0.55711 0.0
C147 C 0.17739 0.13419 0.57453 0.0
H148 H 0.14256 0.35487 0.52195 0.0
H149 H 0.04423 0.23242 0.55979 0.0
S150 S 0.45919 0.06636 0.56953 0.0
N151 N 0.44804 0.17491 0.54537 0.0
N152 N 0.34083 0.04002 0.58497 0.0
C153 C 0.28633 0.1214 0.57078 0.0
C154 C 0.34438 0.19422 0.54937 0.0
C155 C 0.25738 0.79929 0.5006 0.0
C156 C 0.35338 0.77334 0.48313 0.0
C157 C 0.19759 0.87777 0.48032 0.0
C158 C 0.23169 0.93164 0.44171 0.0
H159 H 0.22227 0.7525 0.52576 0.0
H160 H 0.11919 0.88878 0.49062 0.0
S161 S 0.49435 0.91373 0.39646 0.0
N162 N 0.49279 0.82282 0.43531 0.0
N163 N 0.38034 0.97088 0.39741 0.0
C164 C 0.33625 0.91705 0.43103 0.0
C165 C 0.39741 0.83736 0.45178 0.0
C166 C 1.00248 0.96157 0.17111 0.0
C167 C 0.10429 0.95839 0.15607 0.0
C168 C 0.99159 0.96924 0.22287 0.0
C169 C 0.08213 0.97383 0.26089 0.0
H170 H 0.93146 0.96347 0.14284 0.0
H171 H 0.91203 0.97425 0.23308 0.0
S172 S 0.36625 0.95985 0.24015 0.0
N173 N 0.29636 0.95041 0.18292 0.0
N174 N 0.27692 0.97145 0.27894 0.0
C175 C 0.18402 0.96623 0.24587 0.0
C176 C 0.19471 0.95655 0.19377 0.0
C177 C 0.06483 0.83668 0.79105 0.0
C178 C 0.09314 0.90926 0.82746 0.0
C179 C 0.07455 0.85105 0.73996 0.0
C180 C 0.10742 0.94038 0.72322 0.0
H181 H 0.02773 0.77136 0.80147 0.0
H182 H 0.04758 0.79441 0.71282 0.0
S183 S 0.20285 0.1488 0.8065 0.0
N184 N 0.16984 0.06735 0.84569 0.0
N185 N 0.17985 0.09851 0.74944 0.0
C186 C 0.14533 0.01012 0.7605 0.0
C187 C 0.13962 -0.00645 0.81272 0.0
C188 C 0.55136 0.34497 0.68401 0.0
C189 C 0.52222 0.41662 0.64842 0.0
C190 C 0.54619 0.3616 0.7356 0.0
C191 C 0.5173 0.45227 0.75346 0.0
H192 H 0.58611 0.27875 0.67251 0.0
H193 H 0.57328 0.30548 0.76204 0.0
S194 S 0.42204 0.65922 0.67265 0.0
N195 N 0.44889 0.57524 0.63226 0.0
N196 N 0.44821 0.61096 0.7293 0.0
C197 C 0.47867 0.52126 0.7171 0.0
C198 C 0.47934 0.50226 0.66448 0.0
C199 C 0.42408 0.46465 0.2807 0.0
C200 C 0.51333 0.46017 0.319 0.0
C201 C 0.43546 0.47378 0.22992 0.0
C202 C 0.5368 0.47671 0.21439 0.0
H203 H 0.34357 0.46491 0.29004 0.0
H204 H 0.36333 0.48244 0.20285 0.0
S205 S 0.79705 0.45564 0.29877 0.0
N206 N 0.7072 0.45295 0.33782 0.0
N207 N 0.72904 0.46533 0.24108 0.0
C208 C 0.6274 0.46682 0.25181 0.0
C209 C 0.61558 0.4589 0.3043 0.0
loop_
_geom_bond_atom_site_label_1
_geom_bond_atom_site_label_2
_geom_bond_distance
_geom_bond_site_symmetry_2
_ccdc_geom_bond_type
Zn0 O6 1.920 1_545 S
Zn0 O12 1.898 . S
Zn0 O15 1.905 1_545 S
Zn1 O9 1.905 . S
Zn1 O10 1.898 1_545 S
Zn1 O18 1.920 1_545 S
Zn2 O5 2.081 1_444 S
Zn2 O8 2.112 1_554 S
Zn2 O11 2.120 1_545 S
Zn2 O13 2.121 1_455 S
Zn2 O14 2.099 1_554 S
Zn2 O17 2.095 . S
C3 O8 1.166 1_554 S
C3 O9 1.182 . S
C4 O10 1.167 1_556 S
C4 O11 1.299 1_556 S
O5 Zn2 2.081 1_666 S
O5 C19 1.305 1_556 S
O6 Zn0 1.920 1_565 S
O6 C19 1.234 1_556 S
C7 O12 1.167 . S
C7 O13 1.299 1_556 S
O8 Zn2 2.112 1_556 S
O8 C3 1.166 1_556 S
O9 Zn1 1.905 . S
O9 C3 1.182 . S
O10 Zn1 1.898 1_565 S
O10 C4 1.167 1_554 S
O11 Zn2 2.120 1_565 S
O11 C4 1.299 1_554 S
O12 Zn0 1.898 . S
O12 C7 1.167 . S
O13 Zn2 2.121 1_655 S
O13 C7 1.299 1_554 S
O14 Zn2 2.099 1_556 S
O14 C16 1.166 1_445 S
O15 Zn0 1.905 1_565 S
O15 C16 1.182 . S
C16 O14 1.166 1_665 S
C16 O15 1.182 . S
O17 Zn2 2.095 . S
O17 C20 1.305 1_545 S
O18 Zn1 1.920 1_565 S
O18 C20 1.234 . S
C19 O5 1.305 1_554 S
C19 O6 1.234 1_554 S
C20 O17 1.305 1_565 S
C20 O18 1.234 . S
Zn21 O27 1.920 . S
Zn21 O33 1.898 . S
Zn21 O36 1.905 . S
Zn22 O30 1.905 . S
Zn22 O31 1.898 . S
Zn22 O39 1.920 . S
Zn23 O26 2.080 . S
Zn23 O29 2.114 . S
Zn23 O32 2.120 . S
Zn23 O34 2.120 . S
Zn23 O35 2.114 . S
Zn23 O38 2.080 . S
C24 O29 1.166 . S
C24 O30 1.182 . S
C25 O31 1.167 . S
C25 O32 1.299 . S
O26 Zn23 2.080 . S
O26 C40 1.305 . S
O27 Zn21 1.920 . S
O27 C40 1.234 . S
C28 O33 1.167 . S
C28 O34 1.299 . S
O29 Zn23 2.114 . S
O29 C24 1.166 . S
O30 Zn22 1.905 . S
O30 C24 1.182 . S
O31 Zn22 1.898 . S
O31 C25 1.167 . S
O32 Zn23 2.120 . S
O32 C25 1.299 . S
O33 Zn21 1.898 . S
O33 C28 1.167 . S
O34 Zn23 2.120 . S
O34 C28 1.299 . S
O35 Zn23 2.114 . S
O35 C37 1.166 . S
O36 Zn21 1.905 . S
O36 C37 1.182 . S
C37 O35 1.166 . S
C37 O36 1.182 . S
O38 Zn23 2.080 . S
O38 C41 1.305 . S
O39 Zn22 1.920 . S
O39 C41 1.234 . S
C40 O26 1.305 . S
C40 O27 1.234 . S
C41 O38 1.305 . S
C41 O39 1.234 . S
H42 C45 0.931 1_655 S
H43 C48 0.928 . S
H44 C50 0.930 . S
C45 H42 0.931 1_455 S
C45 C46 1.413 . S
C45 C47 1.360 . S
C46 C45 1.413 . S
C46 C50 1.429 . S
C47 C45 1.360 . S
C47 C48 1.372 1_545 S
C48 H43 0.928 . S
C48 C47 1.372 1_565 S
C48 C49 1.404 . S
C49 C48 1.404 . S
C49 C50 1.391 1_565 S
C50 H44 0.930 . S
C50 C46 1.429 . S
C50 C49 1.391 1_545 S
H51 C54 0.931 . S
H52 C57 0.928 . S
H53 C59 0.930 . S
C54 H51 0.931 . S
C54 C55 1.413 . S
C54 C56 1.360 1_665 S
C55 C54 1.413 . S
C55 C59 1.429 1_665 S
C56 C54 1.360 1_445 S
C56 C57 1.372 . S
C57 H52 0.928 . S
C57 C56 1.372 . S
C57 C58 1.404 . S
C58 C57 1.404 . S
C58 C59 1.391 . S
C59 H53 0.930 . S
C59 C55 1.429 1_445 S
C59 C58 1.391 . S
H60 C63 0.931 . S
H61 C66 0.928 . S
H62 C68 0.930 . S
C63 H60 0.931 . S
C63 C64 1.413 . S
C63 C65 1.360 . S
C64 C63 1.413 . S
C64 C68 1.429 . S
C65 C63 1.360 . S
C65 C66 1.372 . S
C66 H61 0.928 . S
C66 C65 1.372 . S
C66 C67 1.404 . S
C67 C66 1.404 . S
C67 C68 1.391 . S
C68 H62 0.930 . S
C68 C64 1.429 . S
C68 C67 1.391 . S
H69 C72 0.931 . S
H70 C75 0.928 . S
H71 C77 0.930 . S
C72 H69 0.931 . S
C72 C73 1.413 . S
C72 C74 1.360 . S
C73 C72 1.413 . S
C73 C77 1.429 . S
C74 C72 1.360 . S
C74 C75 1.372 . S
C75 H70 0.928 . S
C75 C74 1.372 . S
C75 C76 1.404 . S
C76 C75 1.404 . S
C76 C77 1.391 . S
C77 H71 0.930 . S
C77 C73 1.429 . S
C77 C76 1.391 . S
C78 C79 1.369 . S
C78 C80 1.419 . S
C78 H82 0.930 . S
C79 C78 1.369 . S
C79 C88 1.429 1_554 S
C80 C78 1.419 . S
C80 C81 1.363 . S
C80 H83 0.929 . S
C81 C80 1.363 . S
C81 C87 1.428 . S
H82 C78 0.930 . S
H83 C80 0.929 . S
S84 N85 1.613 . S
S84 N86 1.610 . S
N85 S84 1.613 . S
N85 C88 1.350 . S
N86 S84 1.610 . S
N86 C87 1.351 1_556 S
C87 C81 1.428 . S
C87 N86 1.351 1_554 S
C87 C88 1.434 1_554 S
C88 C79 1.429 1_556 S
C88 N85 1.350 . S
C88 C87 1.434 1_556 S
C89 C90 1.369 . S
C89 C91 1.419 . S
C89 H93 0.930 1_556 S
C90 C89 1.369 . S
C90 C99 1.429 . S
C91 C89 1.419 . S
C91 C92 1.363 . S
C91 H94 0.929 . S
C92 C91 1.363 . S
C92 C98 1.428 . S
H93 C89 0.930 1_554 S
H94 C91 0.929 . S
S95 N96 1.613 . S
S95 N97 1.610 . S
N96 S95 1.613 . S
N96 C99 1.350 . S
N97 S95 1.610 . S
N97 C98 1.351 . S
C98 C92 1.428 . S
C98 N97 1.351 . S
C98 C99 1.434 . S
C99 C90 1.429 . S
C99 N96 1.350 . S
C99 C98 1.434 . S
C100 C101 1.369 . S
C100 C102 1.419 . S
C100 H104 0.930 . S
C101 C100 1.369 . S
C101 C110 1.429 . S
C102 C100 1.419 . S
C102 C103 1.363 . S
C102 H105 0.929 . S
C103 C102 1.363 . S
C103 C109 1.428 . S
H104 C100 0.930 . S
H105 C102 0.929 . S
S106 N107 1.613 . S
S106 N108 1.610 . S
N107 S106 1.613 . S
N107 C110 1.350 . S
N108 S106 1.610 . S
N108 C109 1.351 . S
C109 C103 1.428 . S
C109 N108 1.351 . S
C109 C110 1.434 . S
C110 C101 1.429 . S
C110 N107 1.350 . S
C110 C109 1.434 . S
C111 C112 1.369 . S
C111 C113 1.419 . S
C111 H115 0.930 1_556 S
C112 C111 1.369 . S
C112 C121 1.429 . S
C113 C111 1.419 . S
C113 C114 1.363 . S
C113 H116 0.929 . S
C114 C113 1.363 . S
C114 C120 1.428 . S
H115 C111 0.930 1_554 S
H116 C113 0.929 . S
S117 N118 1.613 . S
S117 N119 1.610 . S
N118 S117 1.613 . S
N118 C121 1.350 . S
N119 S117 1.610 . S
N119 C120 1.351 . S
C120 C114 1.428 . S
C120 N119 1.351 . S
C120 C121 1.434 . S
C121 C112 1.429 . S
C121 N118 1.350 . S
C121 C120 1.434 . S
C122 C123 1.369 . S
C122 C124 1.419 . S
C122 H126 0.930 . S
C123 C122 1.369 . S
C123 C132 1.429 . S
C124 C122 1.419 . S
C124 C125 1.363 . S
C124 H127 0.929 . S
C125 C124 1.363 . S
C125 C131 1.428 . S
H126 C122 0.930 . S
H127 C124 0.929 . S
S128 N129 1.613 . S
S128 N130 1.610 . S
N129 S128 1.613 . S
N129 C132 1.350 . S
N130 S128 1.610 . S
N130 C131 1.351 . S
C131 C125 1.428 . S
C131 N130 1.351 . S
C131 C132 1.434 . S
C132 C123 1.429 . S
C132 N129 1.350 . S
C132 C131 1.434 . S
C133 C134 1.369 . S
C133 C135 1.419 . S
C133 H137 0.930 . S
C134 C133 1.369 . S
C134 C143 1.429 . S
C135 C133 1.419 . S
C135 C136 1.363 . S
C135 H138 0.929 1_655 S
C136 C135 1.363 . S
C136 C142 1.428 . S
H137 C133 0.930 . S
H138 C135 0.929 1_455 S
S139 N140 1.613 . S
S139 N141 1.610 . S
N140 S139 1.613 . S
N140 C143 1.350 . S
N141 S139 1.610 . S
N141 C142 1.351 . S
C142 C136 1.428 . S
C142 N141 1.351 . S
C142 C143 1.434 . S
C143 C134 1.429 . S
C143 N140 1.350 . S
C143 C142 1.434 . S
C144 C145 1.369 . S
C144 C146 1.419 . S
C144 H148 0.930 . S
C145 C144 1.369 . S
C145 C154 1.429 . S
C146 C144 1.419 . S
C146 C147 1.363 . S
C146 H149 0.929 . S
C147 C146 1.363 . S
C147 C153 1.428 . S
H148 C144 0.930 . S
H149 C146 0.929 . S
S150 N151 1.613 . S
S150 N152 1.610 . S
N151 S150 1.613 . S
N151 C154 1.350 . S
N152 S150 1.610 . S
N152 C153 1.351 . S
C153 C147 1.428 . S
C153 N152 1.351 . S
C153 C154 1.434 . S
C154 C145 1.429 . S
C154 N151 1.350 . S
C154 C153 1.434 . S
C155 C156 1.369 . S
C155 C157 1.419 . S
C155 H159 0.930 . S
C156 C155 1.369 . S
C156 C165 1.429 . S
C157 C155 1.419 . S
C157 C158 1.363 . S
C157 H160 0.929 . S
C158 C157 1.363 . S
C158 C164 1.428 . S
H159 C155 0.930 . S
H160 C157 0.929 . S
S161 N162 1.613 . S
S161 N163 1.610 . S
N162 S161 1.613 . S
N162 C165 1.350 . S
N163 S161 1.610 . S
N163 C164 1.351 . S
C164 C158 1.428 . S
C164 N163 1.351 . S
C164 C165 1.434 . S
C165 C156 1.429 . S
C165 N162 1.350 . S
C165 C164 1.434 . S
C166 C167 1.369 1_645 S
C166 C168 1.419 1_655 S
C166 H170 0.930 . S
C167 C166 1.369 1_465 S
C167 C176 1.429 . S
C168 C166 1.419 1_455 S
C168 C169 1.363 . S
C168 H171 0.929 1_455 S
C169 C168 1.363 . S
C169 C175 1.428 1_545 S
H170 C166 0.930 . S
H171 C168 0.929 1_655 S
S172 N173 1.613 . S
S172 N174 1.610 . S
N173 S172 1.613 . S
N173 C176 1.350 . S
N174 S172 1.610 . S
N174 C175 1.351 . S
C175 C169 1.428 1_565 S
C175 N174 1.351 . S
C175 C176 1.434 . S
C176 C167 1.429 . S
C176 N173 1.350 . S
C176 C175 1.434 . S
C177 C178 1.369 1_655 S
C177 C179 1.419 . S
C177 H181 0.930 . S
C178 C177 1.369 1_455 S
C178 C187 1.429 1_565 S
C179 C177 1.419 . S
C179 C180 1.363 1_665 S
C179 H182 0.929 . S
C180 C179 1.363 1_445 S
C180 C186 1.428 . S
H181 C177 0.930 . S
H182 C179 0.929 . S
S183 N184 1.613 . S
S183 N185 1.610 . S
N184 S183 1.613 . S
N184 C187 1.350 . S
N185 S183 1.610 . S
N185 C186 1.351 . S
C186 C180 1.428 . S
C186 N185 1.351 . S
C186 C187 1.434 . S
C187 C178 1.429 1_545 S
C187 N184 1.350 . S
C187 C186 1.434 . S
C188 C189 1.369 . S
C188 C190 1.419 . S
C188 H192 0.930 . S
C189 C188 1.369 . S
C189 C198 1.429 . S
C190 C188 1.419 . S
C190 C191 1.363 . S
C190 H193 0.929 . S
C191 C190 1.363 . S
C191 C197 1.428 . S
H192 C188 0.930 . S
H193 C190 0.929 . S
S194 N195 1.613 . S
S194 N196 1.610 . S
N195 S194 1.613 . S
N195 C198 1.350 . S
N196 S194 1.610 . S
N196 C197 1.351 . S
C197 C191 1.428 . S
C197 N196 1.351 . S
C197 C198 1.434 . S
C198 C189 1.429 . S
C198 N195 1.350 . S
C198 C197 1.434 . S
C199 C200 1.369 . S
C199 C201 1.419 . S
C199 H203 0.930 . S
C200 C199 1.369 . S
C200 C209 1.429 . S
C201 C199 1.419 . S
C201 C202 1.363 . S
C201 H204 0.929 . S
C202 C201 1.363 . S
C202 C208 1.428 . S
H203 C199 0.930 . S
H204 C201 0.929 . S
S205 N206 1.613 . S
S205 N207 1.610 . S
N206 S205 1.613 . S
N206 C209 1.350 . S
N207 S205 1.610 . S
N207 C208 1.351 . S
C208 C202 1.428 . S
C208 N207 1.351 . S
C208 C209 1.434 . S
C209 C200 1.429 . S
C209 N206 1.350 . S
C209 C208 1.434 . S
C81 C73 1.343 . S
C79 C3 1.175 . S
C90 C4 1.460 . S
C92 C64 1.541 . S
C101 C19 1.480 . S
C103 C76 1.552 . S
C112 C7 1.159 . S
C114 C67 1.335 . S
C123 C37 1.177 . S
C125 C55 1.343 . S
C134 C28 1.455 . S
C136 C46 1.542 1_655 S
C147 C58 1.552 . S
C145 C41 1.484 . S
C158 C49 1.335 . S
C156 C25 1.166 . S
C167 C20 1.336 . S
C169 C47 1.502 . S
C178 C16 1.372 1_455 S
C180 C56 1.548 . S
C191 C65 1.506 . S
C189 C40 1.329 . S
C200 C24 1.377 . S
C202 C74 1.548 . S
