# Generated by pormake.
# Topology anh, (6,3)-cn, num edge types: 1
# Building blocks:
#     Node 0, Type 0, BuildingBlock: BETFEN_clean_sbu_0, # of connection points: 6
#     Node 1, Type 0, BuildingBlock: BETFEN_clean_sbu_0, # of connection points: 6
#     Node 2, Type 0, BuildingBlock: BETFEN_clean_sbu_0, # of connection points: 6
#     Node 3, Type 1, BuildingBlock: QEWDON_clean_linker_0, # of connection points: 3
#     Node 4, Type 1, BuildingBlock: QEWDON_clean_linker_0, # of connection points: 3
#     Node 5, Type 1, BuildingBlock: QEWDON_clean_linker_0, # of connection points: 3
#     Node 6, Type 1, BuildingBlock: QEWDON_clean_linker_0, # of connection points: 3
#     Node 7, Type 1, BuildingBlock: QEWDON_clean_linker_0, # of connection points: 3
#     Node 8, Type 1, BuildingBlock: QEWDON_clean_linker_0, # of connection points: 3
#     Edge 9, Type (0, 1), None
#     Edge 10, Type (0, 1), None
#     Edge 11, Type (0, 1), None
#     Edge 12, Type (0, 1), None
#     Edge 13, Type (0, 1), None
#     Edge 14, Type (0, 1), None
#     Edge 15, Type (0, 1), None
#     Edge 16, Type (0, 1), None
#     Edge 17, Type (0, 1), None
#     Edge 18, Type (0, 1), None
#     Edge 19, Type (0, 1), None
#     Edge 20, Type (0, 1), None
#     Edge 21, Type (0, 1), None
#     Edge 22, Type (0, 1), None
#     Edge 23, Type (0, 1), None
#     Edge 24, Type (0, 1), None
#     Edge 25, Type (0, 1), None
#     Edge 26, Type (0, 1), None
# Relax obj value: 0.346
# Max RMSD: 0.258
# Mean RMSD: 0.143
data_MOF--net-anh--node1-BETFEN_clean_sbu_0--node2-QEWDON_clean_linker_0--edge1-none
_symmetry_space_group_name_H-M    P1
_symmetry_Int_Tables_number       1
_symmetry_cell_setting            triclinic
loop_
_symmetry_equiv_pos_as_xyz
'x, y, z'
_cell_length_a     14.898142
_cell_length_b     15.773228
_cell_length_c     22.477688
_cell_angle_alpha  95.675904
_cell_angle_beta   97.245872
_cell_angle_gamma 89.388081
loop_
_atom_site_label
_atom_site_type_symbol
_atom_site_fract_x
_atom_site_fract_y
_atom_site_fract_z
_atom_type_partial_charge
Pr0 Pr 0.0588 0.63996 0.13569 0.0
Pr1 Pr 0.06711 0.80831 0.11175 0.0
C2 C 1.01506 0.48889 0.16868 0.0
C3 C 0.92409 0.45286 0.16423 0.0
C4 C 0.86179 0.4619 0.11282 0.0
C5 C 0.76963 0.45075 0.11459 0.0
C6 C 0.73815 0.43174 0.16807 0.0
C7 C 0.80121 0.41814 0.21832 0.0
C8 C 0.89352 0.42791 0.2162 0.0
C9 C 0.06253 0.65471 0.01217 0.0
C10 C 0.86224 0.73855 0.10557 0.0
C11 C 0.10876 0.96136 0.08263 0.0
C12 C 0.1746 1.02073 0.1184 0.0
C13 C 0.16874 1.04301 0.18004 0.0
C14 C 0.23801 1.08887 0.21624 0.0
C15 C 0.31481 1.1127 0.19168 0.0
C16 C 0.32088 1.08993 0.13015 0.0
C17 C 0.25113 1.04474 0.09377 0.0
C18 C 0.05337 0.79927 0.23356 0.0
C19 C 0.26498 0.70845 0.14702 0.0
O20 O 1.02805 0.55692 0.20678 0.0
O21 O 0.047 0.49638 0.11795 0.0
O22 O 1.01252 0.69653 0.04538 0.0
O23 O 0.11753 0.60631 0.04305 0.0
O24 O 0.91196 0.78696 0.07784 0.0
O25 O 0.90419 0.68273 0.13937 0.0
O26 O 0.14353 0.89151 0.05872 0.0
O27 O 1.03545 0.94783 0.10668 0.0
O28 O 0.10593 0.75389 0.20396 0.0
O29 O 1.00866 0.85247 0.20114 0.0
O30 O 0.21406 0.65245 0.16677 0.0
O31 O 0.22517 0.76957 0.11697 0.0
H32 H 0.88349 0.48246 0.0723 0.0
H33 H 0.72304 0.45959 0.07464 0.0
H34 H 0.77907 0.40431 0.26036 0.0
H35 H 0.94051 0.42201 0.25648 0.0
H36 H 0.11147 1.02371 0.20083 0.0
H37 H 0.23078 1.10661 0.2632 0.0
H38 H 0.37993 1.10667 0.11016 0.0
H39 H 0.2581 1.02639 0.04683 0.0
Pr40 Pr 0.66766 0.19809 0.48094 0.0
Pr41 Pr 0.48449 0.19558 0.51133 0.0
C42 C 0.81609 0.23933 0.43447 0.0
C43 C 0.85721 0.32468 0.44012 0.0
C44 C 0.86745 0.37364 0.49633 0.0
C45 C 0.88034 0.46138 0.49985 0.0
C46 C 0.88246 0.50214 0.44728 0.0
C47 C 0.87948 0.45241 0.39161 0.0
C48 C 0.86702 0.36419 0.38807 0.0
C49 C 0.65849 0.19655 0.60274 0.0
C50 C 0.57323 0.39471 0.52418 0.0
C51 C 0.32099 0.15885 0.53909 0.0
C52 C 0.25631 1.09546 0.50534 0.0
C53 C 0.21603 1.10704 0.44651 0.0
C54 C 0.16772 1.04095 0.41083 0.0
C55 C 0.15876 0.96175 0.43305 0.0
C56 C 0.19757 0.95088 0.49227 0.0
C57 C 0.24516 1.01712 0.5281 0.0
C58 C 0.48969 0.21152 0.38986 0.0
C59 C 0.59152 0.99832 0.49211 0.0
O60 O 0.73617 0.23366 0.40265 0.0
O61 O 0.82014 0.20129 0.48394 0.0
O62 O 0.61238 0.24208 0.56809 0.0
O63 O 0.71632 1.14969 0.57567 0.0
O64 O 0.51393 0.34588 0.54549 0.0
O65 O 0.63436 0.35334 0.49309 0.0
O66 O 0.39518 1.12737 0.56597 0.0
O67 O 0.33595 0.22602 0.51204 0.0
O68 O 0.53675 0.15865 0.41908 0.0
O69 O 0.43755 0.25561 0.42261 0.0
O70 O 0.65235 1.04388 0.46964 0.0
O71 O 0.52332 1.04199 0.51408 0.0
H72 H 0.85947 0.34532 0.53734 0.0
H73 H 0.88461 0.49782 0.54358 0.0
H74 H 0.88086 0.48234 0.35045 0.0
H75 H 0.85851 0.32775 0.34428 0.0
H76 H 0.22377 0.16638 0.42719 0.0
H77 H 0.13731 1.05201 0.36591 0.0
H78 H 0.19287 0.89038 0.51066 0.0
H79 H 0.2763 1.00593 0.57288 0.0
Pr80 Pr 0.62382 0.55884 0.83857 0.0
Pr81 Pr 0.6299 0.72237 0.81018 0.0
C82 C 0.65027 0.40279 0.87715 0.0
C83 C 0.7162 0.33372 0.87839 0.0
C84 C 0.69634 0.25983 0.90439 0.0
C85 C 0.72122 0.18071 0.87714 0.0
C86 C 0.74931 0.18024 0.8196 0.0
C87 C 0.80552 0.24916 0.81299 0.0
C88 C 0.78187 0.32934 0.83863 0.0
C89 C 0.61693 0.67708 0.93876 0.0
C90 C 0.82766 0.63856 0.83407 0.0
C91 C 0.58747 0.88749 0.81437 0.0
C92 C 0.49861 0.92951 0.81141 0.0
C93 C 0.48236 0.99252 0.85714 0.0
C94 C 0.40364 1.04109 0.85116 0.0
C95 C 0.34362 1.03087 0.79728 0.0
C96 C 0.35039 0.9563 0.75815 0.0
C97 C 0.42886 0.90676 0.76445 0.0
C98 C 0.63769 0.62086 0.70206 0.0
C99 C 0.42423 0.63341 0.80701 0.0
O100 O 0.60775 0.41574 0.82416 0.0
O101 O 0.67395 0.47282 0.91051 0.0
O102 O 0.67327 0.67623 0.90164 0.0
O103 O 0.55327 0.62207 0.91999 0.0
O104 O 0.78605 0.71241 0.83925 0.0
O105 O 0.77862 0.56814 0.82215 0.0
O106 O 0.60868 0.84461 0.76521 0.0
O107 O 0.6102 0.84907 0.86274 0.0
O108 O 0.58701 0.60358 0.74133 0.0
O109 O 0.68919 0.68665 0.72105 0.0
O110 O 0.46588 0.56017 0.81205 0.0
O111 O 0.47232 0.70343 0.80937 0.0
H112 H 0.6501 0.26194 0.93806 0.0
H113 H 0.69099 1.12405 0.88982 0.0
H114 H 0.84482 0.24705 0.7755 0.0
H115 H 0.8036 0.38605 0.82088 0.0
H116 H 0.53337 1.00827 0.89537 0.0
H117 H 0.39914 1.09644 0.88329 0.0
H118 H 0.30397 0.94564 0.71696 0.0
H119 H 0.43761 0.855 0.73025 0.0
H120 H 0.55504 0.32618 0.32588 0.0
C121 C 0.50924 0.2806 0.29855 0.0
C122 C 0.47647 0.21152 0.32423 0.0
C123 C 0.47924 0.29349 0.23847 0.0
H124 H 0.3873 1.10267 0.30963 0.0
C125 C 0.41471 1.1545 0.28917 0.0
C126 C 0.38493 0.1672 0.22871 0.0
C127 C 0.41745 0.23704 0.20408 0.0
C128 C 0.5137 0.36411 0.2099 0.0
H129 H 0.39367 0.24858 0.15796 0.0
C130 C 0.60617 0.3684 0.20575 0.0
C131 C 0.63999 0.42846 0.17228 0.0
C132 C 0.454 0.42077 0.18073 0.0
H133 H 0.38191 0.41741 0.18291 0.0
C134 C 0.48706 0.48099 0.14753 0.0
H135 H 0.65105 0.32202 0.22639 0.0
C136 C 0.57954 0.48492 0.14316 0.0
H137 H 0.60365 0.53258 0.1175 0.0
H138 H 0.4409 0.52432 0.12482 0.0
H139 H 0.61831 0.73249 0.61879 0.0
C140 C 0.60681 0.66814 0.59781 0.0
C141 C 0.61223 0.60032 0.63539 0.0
C142 C 0.58896 0.65522 0.53447 0.0
H143 H 0.60229 0.46483 0.63957 0.0
C144 C 0.59778 0.51515 0.60979 0.0
C145 C 0.58283 0.49304 0.54674 0.0
C146 C 0.5786 0.56471 0.50953 0.0
C147 C 0.58859 0.73576 0.49629 0.0
H148 H 0.56554 0.54895 0.4614 0.0
C149 C 0.58326 0.82832 0.51776 0.0
C150 C 0.5912 0.89737 0.47833 0.0
C151 C 0.59992 0.71874 0.43511 0.0
H152 H 0.60679 0.65432 0.4151 0.0
C153 C 0.60711 0.78339 0.39782 0.0
H154 H 0.57473 0.84662 0.56433 0.0
C155 C 0.60353 0.86948 0.4187 0.0
H156 H 0.61012 0.91551 0.38676 0.0
H157 H 0.61711 0.76621 0.35128 0.0
H158 H 0.17945 0.64355 0.92903 0.0
C159 C 0.10999 0.63793 0.90814 0.0
C160 C 1.04112 0.64323 0.94572 0.0
C161 C 0.08915 0.63219 0.84467 0.0
H162 H 0.89728 0.64739 0.94919 0.0
C163 C 0.95015 0.64221 0.92007 0.0
C164 C 0.92605 0.63396 0.85752 0.0
C165 C 0.99561 0.62738 0.81999 0.0
C166 C 0.16363 0.64045 0.80507 0.0
H167 H 0.97597 0.62034 0.77178 0.0
C168 C 0.25679 0.62087 0.82311 0.0
C169 C 0.32498 0.63909 0.78722 0.0
C170 C 0.14235 0.67606 0.74982 0.0
H171 H 0.07436 0.69577 0.73452 0.0
C172 C 0.20902 0.69139 0.714 0.0
H173 H 0.27707 0.59433 0.86531 0.0
C174 C 0.29925 0.67397 0.73267 0.0
H175 H 0.34978 0.68943 0.70467 0.0
H176 H 0.19083 0.71953 0.67212 0.0
H177 H 0.96007 0.70988 0.30135 0.0
C178 C 1.00221 0.75911 0.32785 0.0
C179 C 0.05879 0.80851 0.29957 0.0
C180 C 0.99586 0.7768 0.38963 0.0
H181 H 0.15327 0.91328 0.31129 0.0
C182 C 0.11052 0.87469 0.33355 0.0
C183 C 0.10616 0.8915 0.39587 0.0
C184 C 0.0483 0.8423 0.42309 0.0
C185 C 0.93274 0.72974 0.42009 0.0
H186 H 1.04254 0.85596 0.47068 0.0
C187 C 0.93382 0.64035 0.4159 0.0
C188 C 0.88065 0.59637 0.45027 0.0
C189 C 0.8761 0.77488 0.45758 0.0
H190 H 0.87382 0.84386 0.46127 0.0
C191 C 0.82301 0.73159 0.49141 0.0
H192 H 0.97881 0.60545 0.388 0.0
C193 C 0.82494 0.64294 0.48783 0.0
H194 H 0.78228 0.6108 0.51415 0.0
H195 H 0.78073 0.76697 0.52083 0.0
H196 H 0.49677 0.22942 0.63859 0.0
C197 C 0.54645 0.20969 0.67394 0.0
C198 C 0.63438 0.18722 0.6624 0.0
C199 C 0.52083 0.20434 0.73049 0.0
H200 H 0.76737 1.1501 0.69955 0.0
C201 C 0.6983 0.16226 0.7084 0.0
C202 C 0.67616 0.1647 0.76753 0.0
C203 C 0.58461 0.17961 0.7767 0.0
C204 C 0.4247 0.20792 0.73931 0.0
H205 H 0.56246 0.17664 0.82052 0.0
C206 C 0.37928 1.13024 0.72952 0.0
C207 C 0.32013 1.111 0.77011 0.0
C208 C 0.38959 0.27566 0.77451 0.0
H209 H 0.42393 0.33666 0.78267 0.0
C210 C 0.31365 0.26196 0.8034 0.0
H211 H 0.41004 1.07866 0.70345 0.0
C212 C 0.28129 0.17876 0.80353 0.0
H213 H 0.23486 0.1661 0.835 0.0
H214 H 0.28718 0.3136 0.83147 0.0
H215 H 0.50759 0.68733 0.02506 0.0
C216 C 0.57648 0.70416 0.04333 0.0
C217 C 0.64101 0.70572 0.00319 0.0
C218 C 0.60082 0.71897 0.10609 0.0
H219 H 0.78115 0.7243 -0.00621 0.0
C220 C 0.7317 0.72379 0.02519 0.0
C221 C 0.76143 0.73295 0.08699 0.0
C222 C 0.69551 0.73119 0.12762 0.0
C223 C 0.52798 0.71254 0.14755 0.0
H224 H 0.71859 0.74041 0.17536 0.0
C225 C 0.43286 0.72435 0.12859 0.0
C226 C 0.36602 0.70609 0.16575 0.0
C227 C 0.55272 0.68706 0.20567 0.0
H228 H 0.62242 0.67483 0.22231 0.0
C229 C 0.4876 0.67175 0.24271 0.0
H230 H 0.41018 0.74517 0.08478 0.0
C231 C 0.39582 0.68002 0.22289 0.0
H232 H 0.34758 0.66575 0.2528 0.0
H233 H 0.50846 0.65085 0.2868 0.0
loop_
_geom_bond_atom_site_label_1
_geom_bond_atom_site_label_2
_geom_bond_distance
_geom_bond_site_symmetry_2
_ccdc_geom_bond_type
Pr0 C2 2.880 . S
Pr0 O20 2.562 . S
Pr0 O21 2.490 . S
Pr0 O22 2.695 1_655 S
Pr0 O23 2.512 . S
Pr0 O25 2.437 . S
Pr0 O28 2.436 . S
Pr0 O30 2.438 1_655 S
Pr1 C11 2.880 . S
Pr1 O22 2.436 . S
Pr1 O24 2.438 1_455 S
Pr1 O26 2.562 . S
Pr1 O27 2.490 . S
Pr1 O28 2.695 1_455 S
Pr1 O29 2.512 . S
Pr1 O31 2.437 . S
C2 Pr0 2.880 . S
C2 C3 1.491 . S
C2 O20 1.254 . S
C2 O21 1.225 . S
C3 C2 1.491 . S
C3 C4 1.392 . S
C3 C8 1.356 . S
C4 C3 1.392 . S
C4 C5 1.368 . S
C4 H32 0.929 . S
C5 C4 1.368 . S
C5 C6 1.386 . S
C5 H33 0.929 . S
C6 C5 1.386 . S
C6 C7 1.373 . S
C7 C6 1.373 . S
C7 C8 1.409 . S
C7 H34 0.931 . S
C8 C3 1.356 . S
C8 C7 1.409 . S
C8 H35 0.930 . S
C9 O22 1.271 . S
C9 O23 1.246 1_455 S
C10 O24 1.267 . S
C10 O25 1.278 . S
C11 Pr1 2.880 . S
C11 C12 1.491 . S
C11 O26 1.254 . S
C11 O27 1.225 . S
C12 C11 1.491 . S
C12 C13 1.392 . S
C12 C17 1.356 . S
C13 C12 1.392 . S
C13 C14 1.368 . S
C13 H36 0.929 . S
C14 C13 1.368 . S
C14 C15 1.386 . S
C14 H37 0.929 . S
C15 C14 1.386 . S
C15 C16 1.373 . S
C16 C15 1.373 . S
C16 C17 1.409 . S
C16 H38 0.931 . S
C17 C12 1.356 . S
C17 C16 1.409 . S
C17 H39 0.930 . S
C18 O28 1.270 1_455 S
C18 O29 1.248 . S
C19 O30 1.267 . S
C19 O31 1.278 . S
O20 Pr0 2.562 . S
O20 C2 1.254 . S
O21 Pr0 2.490 . S
O21 C2 1.225 . S
O22 Pr0 2.695 1_455 S
O22 Pr1 2.436 . S
O22 C9 1.271 . S
O23 Pr0 2.512 . S
O23 C9 1.246 1_655 S
O24 Pr1 2.438 1_655 S
O24 C10 1.267 . S
O25 Pr0 2.437 . S
O25 C10 1.278 . S
O26 Pr1 2.562 . S
O26 C11 1.254 . S
O27 Pr1 2.490 . S
O27 C11 1.225 . S
O28 Pr0 2.436 . S
O28 Pr1 2.695 1_655 S
O28 C18 1.270 1_655 S
O29 Pr1 2.512 . S
O29 C18 1.248 . S
O30 Pr0 2.438 1_455 S
O30 C19 1.267 . S
O31 Pr1 2.437 . S
O31 C19 1.278 . S
H32 C4 0.929 . S
H33 C5 0.929 . S
H34 C7 0.931 . S
H35 C8 0.930 . S
H36 C13 0.929 . S
H37 C14 0.929 . S
H38 C16 0.931 . S
H39 C17 0.930 . S
Pr40 C42 2.880 . S
Pr40 O60 2.562 . S
Pr40 O61 2.490 . S
Pr40 O62 2.695 . S
Pr40 O63 2.512 . S
Pr40 O65 2.437 . S
Pr40 O68 2.436 . S
Pr40 O70 2.438 1_545 S
Pr41 C51 2.880 1_545 S
Pr41 O62 2.436 . S
Pr41 O64 2.438 . S
Pr41 O66 2.562 1_545 S
Pr41 O67 2.490 1_545 S
Pr41 O68 2.695 . S
Pr41 O69 2.512 . S
Pr41 O71 2.437 1_545 S
C42 Pr40 2.880 . S
C42 C43 1.491 . S
C42 O60 1.254 . S
C42 O61 1.225 . S
C43 C42 1.491 . S
C43 C44 1.392 . S
C43 C48 1.356 . S
C44 C43 1.392 . S
C44 C45 1.368 . S
C44 H72 0.929 . S
C45 C44 1.368 . S
C45 C46 1.386 . S
C45 H73 0.929 . S
C46 C45 1.386 . S
C46 C47 1.373 . S
C47 C46 1.373 . S
C47 C48 1.409 . S
C47 H74 0.931 . S
C48 C43 1.356 . S
C48 C47 1.409 . S
C48 H75 0.930 . S
C49 O62 1.270 . S
C49 O63 1.248 . S
C50 O64 1.267 . S
C50 O65 1.278 . S
C51 Pr41 2.880 1_565 S
C51 C52 1.491 . S
C51 O66 1.254 . S
C51 O67 1.225 . S
C52 C51 1.491 . S
C52 C53 1.392 . S
C52 C57 1.356 . S
C53 C52 1.392 . S
C53 C54 1.368 . S
C53 H76 0.929 . S
C54 C53 1.368 . S
C54 C55 1.386 . S
C54 H77 0.929 . S
C55 C54 1.386 . S
C55 C56 1.373 . S
C56 C55 1.373 . S
C56 C57 1.409 . S
C56 H78 0.931 . S
C57 C52 1.356 . S
C57 C56 1.409 . S
C57 H79 0.930 . S
C58 O68 1.270 . S
C58 O69 1.248 . S
C59 O70 1.267 . S
C59 O71 1.278 . S
O60 Pr40 2.562 . S
O60 C42 1.254 . S
O61 Pr40 2.490 . S
O61 C42 1.225 . S
O62 Pr40 2.695 . S
O62 Pr41 2.436 . S
O62 C49 1.270 . S
O63 Pr40 2.512 . S
O63 C49 1.248 . S
O64 Pr41 2.438 . S
O64 C50 1.267 . S
O65 Pr40 2.437 . S
O65 C50 1.278 . S
O66 Pr41 2.562 1_565 S
O66 C51 1.254 . S
O67 Pr41 2.490 1_565 S
O67 C51 1.225 . S
O68 Pr40 2.436 . S
O68 Pr41 2.695 . S
O68 C58 1.270 . S
O69 Pr41 2.512 . S
O69 C58 1.248 . S
O70 Pr40 2.438 1_565 S
O70 C59 1.267 . S
O71 Pr41 2.437 1_565 S
O71 C59 1.278 . S
H72 C44 0.929 . S
H73 C45 0.929 . S
H74 C47 0.931 . S
H75 C48 0.930 . S
H76 C53 0.929 . S
H77 C54 0.929 . S
H78 C56 0.931 . S
H79 C57 0.930 . S
Pr80 C82 2.880 . S
Pr80 O100 2.562 . S
Pr80 O101 2.490 . S
Pr80 O102 2.695 . S
Pr80 O103 2.512 . S
Pr80 O105 2.437 . S
Pr80 O108 2.436 . S
Pr80 O110 2.438 . S
Pr81 C91 2.880 . S
Pr81 O102 2.436 . S
Pr81 O104 2.438 . S
Pr81 O106 2.562 . S
Pr81 O107 2.490 . S
Pr81 O108 2.695 . S
Pr81 O109 2.512 . S
Pr81 O111 2.437 . S
C82 Pr80 2.880 . S
C82 C83 1.491 . S
C82 O100 1.254 . S
C82 O101 1.225 . S
C83 C82 1.491 . S
C83 C84 1.392 . S
C83 C88 1.356 . S
C84 C83 1.392 . S
C84 C85 1.368 . S
C84 H112 0.929 . S
C85 C84 1.368 . S
C85 C86 1.386 . S
C85 H113 0.929 . S
C86 C85 1.386 . S
C86 C87 1.373 . S
C87 C86 1.373 . S
C87 C88 1.409 . S
C87 H114 0.931 . S
C88 C83 1.356 . S
C88 C87 1.409 . S
C88 H115 0.930 . S
C89 O102 1.270 . S
C89 O103 1.248 . S
C90 O104 1.267 . S
C90 O105 1.278 . S
C91 Pr81 2.880 . S
C91 C92 1.491 . S
C91 O106 1.254 . S
C91 O107 1.225 . S
C92 C91 1.491 . S
C92 C93 1.392 . S
C92 C97 1.356 . S
C93 C92 1.392 . S
C93 C94 1.368 . S
C93 H116 0.929 . S
C94 C93 1.368 . S
C94 C95 1.386 . S
C94 H117 0.929 . S
C95 C94 1.386 . S
C95 C96 1.373 . S
C96 C95 1.373 . S
C96 C97 1.409 . S
C96 H118 0.931 . S
C97 C92 1.356 . S
C97 C96 1.409 . S
C97 H119 0.930 . S
C98 O108 1.270 . S
C98 O109 1.248 . S
C99 O110 1.267 . S
C99 O111 1.278 . S
O100 Pr80 2.562 . S
O100 C82 1.254 . S
O101 Pr80 2.490 . S
O101 C82 1.225 . S
O102 Pr80 2.695 . S
O102 Pr81 2.436 . S
O102 C89 1.270 . S
O103 Pr80 2.512 . S
O103 C89 1.248 . S
O104 Pr81 2.438 . S
O104 C90 1.267 . S
O105 Pr80 2.437 . S
O105 C90 1.278 . S
O106 Pr81 2.562 . S
O106 C91 1.254 . S
O107 Pr81 2.490 . S
O107 C91 1.225 . S
O108 Pr80 2.436 . S
O108 Pr81 2.695 . S
O108 C98 1.270 . S
O109 Pr81 2.512 . S
O109 C98 1.248 . S
O110 Pr80 2.438 . S
O110 C99 1.267 . S
O111 Pr81 2.437 . S
O111 C99 1.278 . S
H112 C84 0.929 . S
H113 C85 0.929 . S
H114 C87 0.931 . S
H115 C88 0.930 . S
H116 C93 0.929 . S
H117 C94 0.929 . S
H118 C96 0.931 . S
H119 C97 0.930 . S
H120 C121 0.949 . S
C121 H120 0.949 . S
C121 C122 1.395 . S
C121 C123 1.391 . S
C122 C121 1.395 . S
C122 C125 1.390 1_545 S
C123 C121 1.391 . S
C123 C127 1.387 1_545 S
C123 C128 1.491 . S
H124 C125 0.950 . S
C125 C122 1.390 1_565 S
C125 H124 0.950 . S
C125 C126 1.378 . S
C126 C125 1.378 . S
C126 C127 1.409 . S
C127 C123 1.387 1_565 S
C127 C126 1.409 . S
C127 H129 0.951 . S
C128 C123 1.491 . S
C128 C130 1.382 . S
C128 C132 1.404 . S
H129 C127 0.951 . S
C130 C128 1.382 . S
C130 C131 1.390 . S
C130 H135 0.949 . S
C131 C130 1.390 . S
C131 C136 1.399 . S
C132 C128 1.404 . S
C132 H133 0.950 . S
C132 C134 1.375 . S
H133 C132 0.950 . S
C134 C132 1.375 . S
C134 C136 1.382 . S
C134 H138 0.950 . S
H135 C130 0.949 . S
C136 C131 1.399 . S
C136 C134 1.382 . S
C136 H137 0.952 . S
H137 C136 0.952 . S
H138 C134 0.950 . S
H139 C140 0.949 . S
C140 H139 0.949 . S
C140 C141 1.395 . S
C140 C142 1.391 . S
C141 C140 1.395 . S
C141 C144 1.390 . S
C142 C140 1.391 . S
C142 C146 1.387 . S
C142 C147 1.491 . S
H143 C144 0.950 . S
C144 C141 1.390 . S
C144 H143 0.950 . S
C144 C145 1.378 . S
C145 C144 1.378 . S
C145 C146 1.409 . S
C146 C142 1.387 . S
C146 C145 1.409 . S
C146 H148 0.951 . S
C147 C142 1.491 . S
C147 C149 1.382 . S
C147 C151 1.404 . S
H148 C146 0.951 . S
C149 C147 1.382 . S
C149 C150 1.390 . S
C149 H154 0.949 . S
C150 C149 1.390 . S
C150 C155 1.399 . S
C151 C147 1.404 . S
C151 H152 0.950 . S
C151 C153 1.375 . S
H152 C151 0.950 . S
C153 C151 1.375 . S
C153 C155 1.382 . S
C153 H157 0.950 . S
H154 C149 0.949 . S
C155 C150 1.399 . S
C155 C153 1.382 . S
C155 H156 0.952 . S
H156 C155 0.952 . S
H157 C153 0.950 . S
H158 C159 0.949 . S
C159 H158 0.949 . S
C159 C160 1.395 1_455 S
C159 C161 1.391 . S
C160 C159 1.395 1_655 S
C160 C163 1.390 . S
C161 C159 1.391 . S
C161 C165 1.387 1_455 S
C161 C166 1.491 . S
H162 C163 0.950 . S
C163 C160 1.390 . S
C163 H162 0.950 . S
C163 C164 1.378 . S
C164 C163 1.378 . S
C164 C165 1.409 . S
C165 C161 1.387 1_655 S
C165 C164 1.409 . S
C165 H167 0.951 . S
C166 C161 1.491 . S
C166 C168 1.382 . S
C166 C170 1.404 . S
H167 C165 0.951 . S
C168 C166 1.382 . S
C168 C169 1.390 . S
C168 H173 0.949 . S
C169 C168 1.390 . S
C169 C174 1.399 . S
C170 C166 1.404 . S
C170 H171 0.950 . S
C170 C172 1.375 . S
H171 C170 0.950 . S
C172 C170 1.375 . S
C172 C174 1.382 . S
C172 H176 0.950 . S
H173 C168 0.949 . S
C174 C169 1.399 . S
C174 C172 1.382 . S
C174 H175 0.952 . S
H175 C174 0.952 . S
H176 C172 0.950 . S
H177 C178 0.949 . S
C178 H177 0.949 . S
C178 C179 1.395 1_655 S
C178 C180 1.391 1_655 S
C179 C178 1.395 1_455 S
C179 C182 1.390 . S
C180 C178 1.391 1_455 S
C180 C184 1.387 . S
C180 C185 1.491 1_455 S
H181 C182 0.950 . S
C182 C179 1.390 . S
C182 H181 0.950 . S
C182 C183 1.378 . S
C183 C182 1.378 . S
C183 C184 1.409 . S
C184 C180 1.387 . S
C184 C183 1.409 . S
C184 H186 0.951 . S
C185 C180 1.491 1_655 S
C185 C187 1.382 . S
C185 C189 1.404 . S
H186 C184 0.951 . S
C187 C185 1.382 . S
C187 C188 1.390 . S
C187 H192 0.949 . S
C188 C187 1.390 . S
C188 C193 1.399 . S
C189 C185 1.404 . S
C189 H190 0.950 . S
C189 C191 1.375 . S
H190 C189 0.950 . S
C191 C189 1.375 . S
C191 C193 1.382 . S
C191 H195 0.950 . S
H192 C187 0.949 . S
C193 C188 1.399 . S
C193 C191 1.382 . S
C193 H194 0.952 . S
H194 C193 0.952 . S
H195 C191 0.950 . S
H196 C197 0.949 1_565 S
C197 H196 0.949 1_545 S
C197 C198 1.395 . S
C197 C199 1.391 . S
C198 C197 1.395 . S
C198 C201 1.390 . S
C199 C197 1.391 . S
C199 C203 1.387 . S
C199 C204 1.491 1_545 S
H200 C201 0.950 . S
C201 C198 1.390 . S
C201 H200 0.950 . S
C201 C202 1.378 . S
C202 C201 1.378 . S
C202 C203 1.409 . S
C203 C199 1.387 . S
C203 C202 1.409 . S
C203 H205 0.951 . S
C204 C199 1.491 1_565 S
C204 C206 1.382 . S
C204 C208 1.404 . S
H205 C203 0.951 . S
C206 C204 1.382 . S
C206 C207 1.390 . S
C206 H211 0.949 . S
C207 C206 1.390 . S
C207 C212 1.399 . S
C208 C204 1.404 . S
C208 H209 0.950 1_565 S
C208 C210 1.375 . S
H209 C208 0.950 1_545 S
C210 C208 1.375 . S
C210 C212 1.382 . S
C210 H214 0.950 . S
H211 C206 0.949 . S
C212 C207 1.399 . S
C212 C210 1.382 . S
C212 H213 0.952 . S
H213 C212 0.952 . S
H214 C210 0.950 . S
H215 C216 0.949 . S
C216 H215 0.949 . S
C216 C217 1.395 . S
C216 C218 1.391 . S
C217 C216 1.395 . S
C217 C220 1.390 . S
C218 C216 1.391 . S
C218 C222 1.387 . S
C218 C223 1.491 . S
H219 C220 0.950 . S
C220 C217 1.390 . S
C220 H219 0.950 . S
C220 C221 1.378 . S
C221 C220 1.378 . S
C221 C222 1.409 . S
C222 C218 1.387 . S
C222 C221 1.409 . S
C222 H224 0.951 . S
C223 C218 1.491 . S
C223 C225 1.382 . S
C223 C227 1.404 . S
H224 C222 0.951 . S
C225 C223 1.382 . S
C225 C226 1.390 . S
C225 H230 0.949 . S
C226 C225 1.390 . S
C226 C231 1.399 . S
C227 C223 1.404 . S
C227 H228 0.950 . S
C227 C229 1.375 . S
H228 C227 0.950 . S
C229 C227 1.375 . S
C229 C231 1.382 . S
C229 H233 0.950 . S
H230 C225 0.949 . S
C231 C226 1.399 . S
C231 C229 1.382 . S
C231 H232 0.952 . S
H232 C231 0.952 . S
H233 C229 0.950 . S
C19 C226 2.592 . S
C46 C188 1.858 . S
C95 C207 2.274 . S
C10 C221 2.421 . S
C183 C55 2.170 . S
C202 C86 3.607 . S
C59 C150 4.896 . S
C90 C164 2.648 . S
C15 C126 1.637 . S
C145 C50 4.807 . S
C169 C99 2.683 . S
C6 C131 1.378 . S
C160 C9 1.282 1_656 S
C58 C122 1.687 . S
C98 C141 2.143 . S
C198 C49 0.355 . S
C217 C89 1.453 1_554 S
C18 C179 1.563 . S
