# Generated by pormake.
# Topology anh, (6,3)-cn, num edge types: 1
# Building blocks:
#     Node 0, Type 0, BuildingBlock: PAMTOO_clean_sbu_0, # of connection points: 6
#     Node 1, Type 0, BuildingBlock: PAMTOO_clean_sbu_0, # of connection points: 6
#     Node 2, Type 0, BuildingBlock: PAMTOO_clean_sbu_0, # of connection points: 6
#     Node 3, Type 1, BuildingBlock: PAMTOO_clean_linker_0, # of connection points: 3
#     Node 4, Type 1, BuildingBlock: PAMTOO_clean_linker_0, # of connection points: 3
#     Node 5, Type 1, BuildingBlock: PAMTOO_clean_linker_0, # of connection points: 3
#     Node 6, Type 1, BuildingBlock: PAMTOO_clean_linker_0, # of connection points: 3
#     Node 7, Type 1, BuildingBlock: PAMTOO_clean_linker_0, # of connection points: 3
#     Node 8, Type 1, BuildingBlock: PAMTOO_clean_linker_0, # of connection points: 3
#     Edge 9, Type (0, 1), None
#     Edge 10, Type (0, 1), None
#     Edge 11, Type (0, 1), None
#     Edge 12, Type (0, 1), None
#     Edge 13, Type (0, 1), None
#     Edge 14, Type (0, 1), None
#     Edge 15, Type (0, 1), None
#     Edge 16, Type (0, 1), None
#     Edge 17, Type (0, 1), None
#     Edge 18, Type (0, 1), None
#     Edge 19, Type (0, 1), None
#     Edge 20, Type (0, 1), None
#     Edge 21, Type (0, 1), None
#     Edge 22, Type (0, 1), None
#     Edge 23, Type (0, 1), None
#     Edge 24, Type (0, 1), None
#     Edge 25, Type (0, 1), None
#     Edge 26, Type (0, 1), None
# Relax obj value: 0.429
# Max RMSD: 0.261
# Mean RMSD: 0.155
data_MOF--net-anh--node1-PAMTOO_clean_sbu_0--node2-PAMTOO_clean_linker_0--edge1-none
_symmetry_space_group_name_H-M    P1
_symmetry_Int_Tables_number       1
_symmetry_cell_setting            triclinic
loop_
_symmetry_equiv_pos_as_xyz
'x, y, z'
_cell_length_a     13.300986
_cell_length_b     12.729519
_cell_length_c     22.039293
_cell_angle_alpha  85.089933
_cell_angle_beta   94.677045
_cell_angle_gamma 81.672649
loop_
_atom_site_label
_atom_site_type_symbol
_atom_site_fract_x
_atom_site_fract_y
_atom_site_fract_z
_atom_type_partial_charge
Dy0 Dy 0.25471 0.74737 0.13898 0.0
Dy1 Dy 0.27904 0.4964 0.12532 0.0
C2 C 0.27143 0.66018 0.01133 0.0
O3 O 1.08664 0.71322 0.13687 0.0
O4 O 1.11349 0.55718 0.09202 0.0
O5 O 0.23071 0.90573 0.09236 0.0
O6 O 0.25186 0.88493 0.19105 0.0
O7 O 0.22957 0.52143 0.21793 0.0
O8 O 0.30133 0.66881 0.23322 0.0
O9 O 0.4446 0.52216 0.13987 0.0
O10 O 0.42704 0.70508 0.1261 0.0
O11 O 0.33332 0.33481 0.16467 0.0
O12 O 0.24129 0.36406 0.0773 0.0
C13 C 1.04934 0.63684 0.10812 0.0
O14 O 0.21735 0.72579 0.04243 0.0
O15 O 0.32163 0.56974 0.03786 0.0
C16 C 0.34061 1.00956 0.13851 0.0
C17 C 0.52076 0.09783 0.12353 0.0
C18 C 0.44308 0.10965 0.07535 0.0
C19 C 0.35421 1.06557 0.08267 0.0
C20 C 0.41695 1.00104 0.18747 0.0
C21 C 0.50669 1.04375 0.17974 0.0
C22 C 0.25379 0.94928 0.14186 0.0
C23 C 0.26834 0.58295 0.25506 0.0
C24 C 0.48606 0.61035 0.13175 0.0
C25 C 1.19509 0.2378 0.15021 0.0
C26 C 1.01731 0.17268 0.19404 0.0
C27 C 1.09346 0.20237 0.23439 0.0
C28 C 1.18153 0.2335 0.2129 0.0
C29 C 1.12338 0.20031 0.11052 0.0
C30 C 1.03631 0.16658 0.13231 0.0
C31 C 0.27359 0.29606 0.12509 0.0
H32 H 0.45239 0.15003 0.03133 0.0
H33 H 0.29713 1.07283 0.04394 0.0
H34 H 0.40969 0.95722 0.23083 0.0
H35 H 0.56668 1.03064 0.21694 0.0
H36 H 1.08292 0.20818 0.28208 0.0
H37 H 0.23583 0.26039 0.24505 0.0
H38 H 1.13241 0.20146 0.06207 0.0
H39 H 0.98213 0.13979 0.10003 0.0
Dy40 Dy 0.65828 0.09426 0.47523 0.0
Dy41 Dy 0.90154 1.0739 0.50007 0.0
C42 C 0.76693 0.08421 0.60891 0.0
O43 O 0.68661 0.26175 0.48559 0.0
O44 O 0.85106 0.24391 0.45953 0.0
O45 O 0.5088 0.13476 0.50595 0.0
O46 O 0.52478 1.08167 0.41581 0.0
O47 O 0.87526 1.05801 0.40034 0.0
O48 O 0.71032 0.1428 0.38472 0.0
O49 O 0.86156 0.91056 0.52712 0.0
O50 O 0.71496 0.9225 0.46402 0.0
O51 O 1.05484 1.00754 0.48375 0.0
O52 O 1.03055 0.11473 0.55399 0.0
C53 C 0.76519 0.30416 0.46795 0.0
O54 O 0.70278 1.03914 0.57504 0.0
O55 O 0.83578 0.1308 0.58324 0.0
C56 C 0.39595 1.02244 0.46872 0.0
C57 C 0.28535 0.852 0.48169 0.0
C58 C 0.35199 0.87199 0.53053 0.0
C59 C 0.4072 0.95662 0.52411 0.0
C60 C 0.32619 1.00505 0.42079 0.0
C61 C 0.27124 0.92013 0.42719 0.0
C62 C 0.46344 0.10193 0.45787 0.0
C63 C 0.7964 0.10551 0.36361 0.0
C64 C 0.7921 0.86419 0.49783 0.0
C65 C 1.14947 0.14918 0.48695 0.0
C66 C 0.22558 0.32694 0.43404 0.0
C67 C 1.14699 0.28499 0.40249 0.0
C68 C 1.10983 0.19677 0.42847 0.0
C69 C 0.22893 0.18919 0.51848 0.0
C70 C 0.26792 0.27646 0.49181 0.0
C71 C 1.09472 1.0722 0.51821 0.0
H72 H 0.36546 0.81861 0.57232 0.0
H73 H 0.46165 0.96759 0.56147 0.0
H74 H 0.31699 1.05487 0.37769 0.0
H75 H 0.22131 0.90468 0.3887 0.0
H76 H 1.10973 0.32398 0.35927 0.0
H77 H 1.0459 0.16961 0.40416 0.0
H78 H 0.25904 0.15463 0.56414 0.0
H79 H 0.32948 0.30584 0.51714 0.0
Dy80 Dy 0.89448 0.57747 0.78985 0.0
Dy81 Dy 0.66051 0.62842 0.79232 0.0
C82 C 0.75394 0.6186 0.67331 0.0
O83 O 0.88496 0.7535 0.79886 0.0
O84 O 0.7109 0.78935 0.78069 0.0
O85 O 0.97555 0.48143 0.72712 0.0
O86 O 1.0543 0.57561 0.7886 0.0
O87 O 0.72017 0.63791 0.89069 0.0
O88 O 0.89372 0.58159 0.89137 0.0
O89 O 0.67391 0.45329 0.81524 0.0
O90 O 0.84778 0.41626 0.8141 0.0
O91 O 0.51103 0.65138 0.82442 0.0
O92 O 0.53204 0.69894 0.72922 0.0
C93 C 0.79966 0.82204 0.78978 0.0
O94 O 0.81496 0.66721 0.70509 0.0
O95 O 0.69771 0.5623 0.70387 0.0
C96 C 1.15622 0.43452 0.74864 0.0
C97 C 0.3013 0.51604 0.81464 0.0
C98 C 0.30035 0.52638 0.75046 0.0
C99 C 0.22933 0.47854 0.71653 0.0
C100 C 1.18978 0.38343 0.80709 0.0
C101 C 0.26381 0.42647 0.84156 0.0
C102 C 1.06196 0.51124 0.74516 0.0
C103 C 0.81284 0.61371 0.92005 0.0
C104 C 0.75871 0.38512 0.82006 0.0
C105 C 0.40554 0.80624 0.77348 0.0
C106 C 0.23675 0.95367 0.7897 0.0
C107 C 0.32149 0.93627 0.83382 0.0
C108 C 0.40546 0.86083 0.82616 0.0
C109 C 0.33135 0.84161 0.72426 0.0
C110 C 0.24699 0.91614 0.73218 0.0
C111 C 0.47056 0.70339 0.77223 0.0
H112 H 0.33445 0.58837 0.72707 0.0
H113 H 0.21229 0.50586 0.66833 0.0
H114 H 1.14142 0.33565 0.83094 0.0
H115 H 0.2706 0.40784 0.89074 0.0
H116 H 0.31548 0.96611 0.87818 0.0
H117 H 0.46402 0.83711 0.86392 0.0
H118 H 0.3318 0.80196 0.68269 0.0
H119 H 1.18293 0.92998 0.69731 0.0
H120 H 0.97169 0.10073 0.3085 0.0
H121 H 0.64483 0.1548 0.27093 0.0
H122 H 0.8303 0.21714 0.12709 0.0
H123 H 0.681 1.06019 0.11663 0.0
C124 C 0.62176 0.13262 0.11284 0.0
O125 O 0.64614 0.20403 0.15348 0.0
H126 H 0.6204 0.17188 0.06569 0.0
C127 C 0.90462 0.12502 0.27646 0.0
C128 C 0.91527 0.15897 0.21495 0.0
C129 C 0.80738 0.1263 0.2976 0.0
C130 C 0.72034 0.15401 0.25575 0.0
C131 C 0.7299 0.1823 0.19415 0.0
C132 C 0.82626 0.18847 0.17436 0.0
H133 H 0.73787 0.80211 0.60478 0.0
H134 H 0.77223 0.4646 0.59391 0.0
H135 H 0.8217 0.67556 0.4389 0.0
H136 H 0.76232 0.43506 0.39974 0.0
C137 C 0.75031 0.42286 0.44896 0.0
O138 O 0.82027 0.47251 0.48154 0.0
H139 H 0.67047 0.45876 0.45455 0.0
C140 C 0.75403 0.73491 0.57887 0.0
C141 C 0.7812 0.75257 0.51951 0.0
C142 C 0.75138 0.63229 0.60634 0.0
C143 C 0.76999 0.54481 0.57236 0.0
C144 C 0.79392 0.55983 0.51162 0.0
C145 C 0.79975 0.66422 0.48497 0.0
H146 H 0.36174 0.53874 0.93118 0.0
H147 H 1.15409 0.82843 0.9432 0.0
H148 H 1.18792 0.70949 0.7701 0.0
H149 H 1.13011 1.0129 0.85285 0.0
C150 C 1.13195 0.96782 0.8118 0.0
O151 O 1.10303 0.86842 0.82638 0.0
H152 H 1.07567 1.01244 0.77516 0.0
C153 C 0.30992 0.60764 0.90926 0.0
C154 C 0.28261 0.61425 0.8464 0.0
C155 C 0.26086 0.68147 0.94473 0.0
C156 C 1.19169 0.76952 0.91648 0.0
C157 C 1.16819 0.78139 0.85342 0.0
C158 C 0.21258 0.70316 0.81849 0.0
H159 H 0.23849 0.39677 0.31458 0.0
H160 H 0.31196 0.70744 0.34624 0.0
H161 H 0.27578 0.48845 0.4979 0.0
H162 H 0.22899 0.72295 0.53129 0.0
C163 C 0.24413 0.749 0.48389 0.0
O164 O 0.31833 0.67442 0.46545 0.0
H165 H 1.17169 0.75753 0.45337 0.0
C166 C 0.2543 0.4549 0.34569 0.0
C167 C 0.25545 0.4288 0.4092 0.0
C168 C 0.27328 0.55561 0.32206 0.0
C169 C 0.29653 0.62938 0.36297 0.0
C170 C 0.29778 0.60354 0.42608 0.0
C171 C 0.27739 0.50438 0.44894 0.0
H172 H 0.76503 0.89919 0.67531 0.0
H173 H 0.79709 0.22538 0.69311 0.0
H174 H 0.83556 0.99784 0.85311 0.0
H175 H 0.76103 0.25096 0.88591 0.0
C176 C 0.75342 0.26793 0.83536 0.0
O177 O 0.8312 0.20258 0.81223 0.0
H178 H 0.67676 0.25088 0.81848 0.0
C179 C 0.77882 0.96108 0.70362 0.0
C180 C 0.80248 0.93456 0.76665 0.0
C181 C 0.77734 1.06448 0.67639 0.0
C182 C 0.79677 0.1449 0.71354 0.0
C183 C 0.81506 0.1223 0.77738 0.0
C184 C 0.81984 1.01606 0.80406 0.0
H185 H 0.98884 0.61745 -0.00777 0.0
H186 H 0.66383 0.63968 -0.00208 0.0
H187 H 0.85419 0.67298 0.16119 0.0
H188 H 0.62979 0.58925 0.18936 0.0
C189 C 0.60596 0.59619 0.13954 0.0
O190 O 0.6557 0.67503 0.11091 0.0
H191 H 0.63451 0.51765 0.12362 0.0
C192 C 0.9227 0.62843 0.01801 0.0
C193 C 0.9371 0.64588 0.08065 0.0
C194 C 0.8254 0.62665 -0.01255 0.0
C195 C 0.73899 0.64042 0.02075 0.0
C196 C 0.74637 0.65622 0.08318 0.0
C197 C 0.8467 0.66036 0.1132 0.0
loop_
_geom_bond_atom_site_label_1
_geom_bond_atom_site_label_2
_geom_bond_distance
_geom_bond_site_symmetry_2
_ccdc_geom_bond_type
Dy0 O3 2.307 1_455 S
Dy0 O5 2.395 . S
Dy0 O6 2.379 . S
Dy0 O8 2.339 . S
Dy0 O10 2.298 . S
Dy0 O14 2.275 . S
Dy0 C22 2.738 . S
Dy1 O4 2.298 . S
Dy1 O7 2.275 1_655 S
Dy1 O9 2.307 1_655 S
Dy1 O11 2.395 . S
Dy1 O12 2.379 . S
Dy1 O15 2.339 . S
Dy1 C31 2.738 . S
C2 O14 1.254 . S
C2 O15 1.257 1_455 S
O3 Dy0 2.307 1_655 S
O3 C13 1.266 . S
O4 Dy1 2.298 . S
O4 C13 1.236 . S
O5 Dy0 2.395 . S
O5 C22 1.255 . S
O6 Dy0 2.379 . S
O6 C22 1.249 . S
O7 Dy1 2.275 1_455 S
O7 C23 1.254 . S
O8 Dy0 2.339 . S
O8 C23 1.257 . S
O9 Dy1 2.307 1_455 S
O9 C24 1.266 . S
O10 Dy0 2.298 . S
O10 C24 1.236 . S
O11 Dy1 2.395 . S
O11 C31 1.255 . S
O12 Dy1 2.379 . S
O12 C31 1.249 . S
C13 O3 1.266 . S
C13 O4 1.236 . S
O14 Dy0 2.275 . S
O14 C2 1.254 . S
O15 Dy1 2.339 . S
O15 C2 1.257 1_655 S
C16 C19 1.344 . S
C16 C20 1.328 . S
C16 C22 1.516 . S
C17 C18 1.304 . S
C17 C21 1.323 . S
C18 C17 1.304 . S
C18 C19 1.371 . S
C18 H32 0.930 . S
C19 C16 1.344 . S
C19 C18 1.371 . S
C19 H33 0.931 . S
C20 C16 1.328 . S
C20 C21 1.433 . S
C20 H34 0.931 . S
C21 C17 1.323 . S
C21 C20 1.433 . S
C21 H35 0.933 1_565 S
C22 Dy0 2.738 . S
C22 O5 1.255 . S
C22 O6 1.249 . S
C22 C16 1.516 . S
C23 O7 1.254 . S
C23 O8 1.257 . S
C24 O9 1.266 . S
C24 O10 1.236 . S
C25 C28 1.344 . S
C25 C29 1.328 . S
C25 C31 1.516 . S
C26 C27 1.304 . S
C26 C30 1.323 . S
C27 C26 1.304 . S
C27 C28 1.371 . S
C27 H36 0.930 . S
C28 C25 1.344 . S
C28 C27 1.371 . S
C28 H37 0.931 . S
C29 C25 1.328 . S
C29 C30 1.433 . S
C29 H38 0.931 . S
C30 C26 1.323 . S
C30 C29 1.433 . S
C30 H39 0.933 . S
C31 Dy1 2.738 . S
C31 O11 1.255 . S
C31 O12 1.249 . S
C31 C25 1.516 . S
H32 C18 0.930 . S
H33 C19 0.931 . S
H34 C20 0.931 . S
H35 C21 0.933 1_545 S
H36 C27 0.930 . S
H37 C28 0.931 . S
H38 C29 0.931 . S
H39 C30 0.933 . S
Dy40 O43 2.307 . S
Dy40 O45 2.395 1_545 S
Dy40 O46 2.379 1_545 S
Dy40 O48 2.339 . S
Dy40 O50 2.298 1_545 S
Dy40 O54 2.275 . S
Dy40 C62 2.738 1_545 S
Dy41 O44 2.298 . S
Dy41 O47 2.275 . S
Dy41 O49 2.307 1_545 S
Dy41 O51 2.395 . S
Dy41 O52 2.379 . S
Dy41 O55 2.339 . S
Dy41 C71 2.738 . S
C42 O54 1.254 . S
C42 O55 1.257 . S
O43 Dy40 2.307 . S
O43 C53 1.266 . S
O44 Dy41 2.298 . S
O44 C53 1.236 . S
O45 Dy40 2.395 1_565 S
O45 C62 1.255 . S
O46 Dy40 2.379 1_565 S
O46 C62 1.249 . S
O47 Dy41 2.275 . S
O47 C63 1.254 . S
O48 Dy40 2.339 . S
O48 C63 1.257 . S
O49 Dy41 2.307 1_565 S
O49 C64 1.266 . S
O50 Dy40 2.298 1_565 S
O50 C64 1.236 . S
O51 Dy41 2.395 . S
O51 C71 1.255 . S
O52 Dy41 2.379 . S
O52 C71 1.249 . S
C53 O43 1.266 . S
C53 O44 1.236 . S
O54 Dy40 2.275 . S
O54 C42 1.254 . S
O55 Dy41 2.339 . S
O55 C42 1.257 . S
C56 C59 1.344 . S
C56 C60 1.328 . S
C56 C62 1.516 . S
C57 C58 1.304 . S
C57 C61 1.323 . S
C58 C57 1.304 . S
C58 C59 1.371 . S
C58 H72 0.930 . S
C59 C56 1.344 . S
C59 C58 1.371 . S
C59 H73 0.931 . S
C60 C56 1.328 . S
C60 C61 1.433 . S
C60 H74 0.931 . S
C61 C57 1.323 . S
C61 C60 1.433 . S
C61 H75 0.933 . S
C62 Dy40 2.738 1_565 S
C62 O45 1.255 . S
C62 O46 1.249 . S
C62 C56 1.516 . S
C63 O47 1.254 . S
C63 O48 1.257 . S
C64 O49 1.266 . S
C64 O50 1.236 . S
C65 C68 1.344 . S
C65 C69 1.328 . S
C65 C71 1.516 . S
C66 C67 1.304 . S
C66 C70 1.323 . S
C67 C66 1.304 . S
C67 C68 1.371 . S
C67 H76 0.930 . S
C68 C65 1.344 . S
C68 C67 1.371 . S
C68 H77 0.931 . S
C69 C65 1.328 . S
C69 C70 1.433 . S
C69 H78 0.931 . S
C70 C66 1.323 . S
C70 C69 1.433 . S
C70 H79 0.933 1_655 S
C71 Dy41 2.738 . S
C71 O51 1.255 . S
C71 O52 1.249 . S
C71 C65 1.516 . S
H72 C58 0.930 . S
H73 C59 0.931 . S
H74 C60 0.931 . S
H75 C61 0.933 . S
H76 C67 0.930 . S
H77 C68 0.931 . S
H78 C69 0.931 . S
H79 C70 0.933 1_455 S
Dy80 O83 2.307 . S
Dy80 O85 2.395 . S
Dy80 O86 2.379 . S
Dy80 O88 2.339 . S
Dy80 O90 2.298 . S
Dy80 O94 2.275 . S
Dy80 C102 2.738 . S
Dy81 O84 2.298 . S
Dy81 O87 2.275 . S
Dy81 O89 2.307 . S
Dy81 O91 2.395 . S
Dy81 O92 2.379 . S
Dy81 O95 2.339 . S
Dy81 C111 2.738 . S
C82 O94 1.254 . S
C82 O95 1.257 . S
O83 Dy80 2.307 . S
O83 C93 1.266 . S
O84 Dy81 2.298 . S
O84 C93 1.236 . S
O85 Dy80 2.395 . S
O85 C102 1.255 . S
O86 Dy80 2.379 . S
O86 C102 1.249 . S
O87 Dy81 2.275 . S
O87 C103 1.254 . S
O88 Dy80 2.339 . S
O88 C103 1.257 . S
O89 Dy81 2.307 . S
O89 C104 1.266 . S
O90 Dy80 2.298 . S
O90 C104 1.236 . S
O91 Dy81 2.395 . S
O91 C111 1.255 . S
O92 Dy81 2.379 . S
O92 C111 1.249 . S
C93 O83 1.266 . S
C93 O84 1.236 . S
O94 Dy80 2.275 . S
O94 C82 1.254 . S
O95 Dy81 2.339 . S
O95 C82 1.257 . S
C96 C99 1.344 . S
C96 C100 1.328 . S
C96 C102 1.516 . S
C97 C98 1.304 . S
C97 C101 1.323 . S
C98 C97 1.304 . S
C98 C99 1.371 . S
C98 H112 0.930 . S
C99 C96 1.344 . S
C99 C98 1.371 . S
C99 H113 0.931 . S
C100 C96 1.328 . S
C100 C101 1.433 . S
C100 H114 0.931 . S
C101 C97 1.323 . S
C101 C100 1.433 . S
C101 H115 0.933 1_655 S
C102 Dy80 2.738 . S
C102 O85 1.255 . S
C102 O86 1.249 . S
C102 C96 1.516 . S
C103 O87 1.254 . S
C103 O88 1.257 . S
C104 O89 1.266 . S
C104 O90 1.236 . S
C105 C108 1.344 . S
C105 C109 1.328 . S
C105 C111 1.516 . S
C106 C107 1.304 . S
C106 C110 1.323 . S
C107 C106 1.304 . S
C107 C108 1.371 . S
C107 H116 0.930 . S
C108 C105 1.344 . S
C108 C107 1.371 . S
C108 H117 0.931 . S
C109 C105 1.328 . S
C109 C110 1.433 . S
C109 H118 0.931 . S
C110 C106 1.323 . S
C110 C109 1.433 . S
C110 H119 0.933 . S
C111 Dy81 2.738 . S
C111 O91 1.255 . S
C111 O92 1.249 . S
C111 C105 1.516 . S
H112 C98 0.930 . S
H113 C99 0.931 . S
H114 C100 0.931 . S
H115 C101 0.933 1_455 S
H116 C107 0.930 . S
H117 C108 0.931 . S
H118 C109 0.931 . S
H119 C110 0.933 . S
H120 C127 0.929 . S
H121 C130 0.930 1_565 S
H122 C132 0.929 . S
H123 C124 0.969 1_545 S
C124 H123 0.969 1_565 S
C124 O125 1.550 . S
C124 H126 0.973 . S
O125 C124 1.550 . S
O125 C131 1.412 1_565 S
H126 C124 0.973 . S
C127 H120 0.929 . S
C127 C128 1.400 . S
C127 C129 1.364 . S
C128 C127 1.400 . S
C128 C132 1.377 . S
C129 C127 1.364 . S
C129 C130 1.374 . S
C130 H121 0.930 1_545 S
C130 C129 1.374 . S
C130 C131 1.383 . S
C131 O125 1.412 1_545 S
C131 C130 1.383 . S
C131 C132 1.394 . S
C132 H122 0.929 . S
C132 C128 1.377 . S
C132 C131 1.394 . S
H133 C140 0.929 . S
H134 C143 0.930 . S
H135 C145 0.929 . S
H136 C137 0.969 . S
C137 H136 0.969 . S
C137 O138 1.550 . S
C137 H139 0.973 . S
O138 C137 1.550 . S
O138 C144 1.412 . S
H139 C137 0.973 . S
C140 H133 0.929 . S
C140 C141 1.400 . S
C140 C142 1.364 . S
C141 C140 1.400 . S
C141 C145 1.377 . S
C142 C140 1.364 . S
C142 C143 1.374 . S
C143 H134 0.930 . S
C143 C142 1.374 . S
C143 C144 1.383 . S
C144 O138 1.412 . S
C144 C143 1.383 . S
C144 C145 1.394 . S
C145 H135 0.929 . S
C145 C141 1.377 . S
C145 C144 1.394 . S
H146 C153 0.929 . S
H147 C156 0.927 1_554 S
H148 C158 0.929 . S
H149 C150 0.969 . S
C150 H149 0.969 . S
C150 O151 1.550 . S
C150 H152 0.973 . S
O151 C150 1.550 . S
O151 C157 1.412 . S
H152 C150 0.973 . S
C153 H146 0.929 . S
C153 C154 1.400 1_554 S
C153 C155 1.364 1_655 S
C154 C153 1.400 1_556 S
C154 C158 1.377 1_655 S
C155 C153 1.364 1_455 S
C155 C156 1.368 1_554 S
C156 H147 0.927 1_556 S
C156 C155 1.368 1_556 S
C156 C157 1.393 . S
C157 O151 1.412 . S
C157 C156 1.393 . S
C157 C158 1.394 . S
C158 H148 0.929 . S
C158 C154 1.377 1_455 S
C158 C157 1.394 . S
H159 C166 0.929 . S
H160 C169 0.930 . S
H161 C171 0.929 . S
H162 C163 0.969 . S
C163 H162 0.969 . S
C163 O164 1.550 . S
C163 H165 0.973 . S
O164 C163 1.550 . S
O164 C170 1.412 . S
H165 C163 0.973 . S
C166 H159 0.929 . S
C166 C167 1.400 . S
C166 C168 1.364 1_655 S
C167 C166 1.400 . S
C167 C171 1.377 1_655 S
C168 C166 1.364 1_455 S
C168 C169 1.374 . S
C169 H160 0.930 . S
C169 C168 1.374 . S
C169 C170 1.383 . S
C170 O164 1.412 . S
C170 C169 1.383 . S
C170 C171 1.394 . S
C171 H161 0.929 . S
C171 C167 1.377 1_455 S
C171 C170 1.394 . S
H172 C179 0.929 . S
H173 C182 0.930 . S
H174 C184 0.929 . S
H175 C176 0.969 . S
C176 H175 0.969 . S
C176 O177 1.550 . S
C176 H178 0.973 . S
O177 C176 1.550 . S
O177 C183 1.412 . S
H178 C176 0.973 . S
C179 H172 0.929 . S
C179 C180 1.400 . S
C179 C181 1.370 . S
C180 C179 1.400 . S
C180 C184 1.377 . S
C181 C179 1.370 . S
C181 C182 1.368 1_565 S
C182 H173 0.930 . S
C182 C181 1.368 1_545 S
C182 C183 1.383 . S
C183 O177 1.412 . S
C183 C182 1.383 . S
C183 C184 1.394 1_545 S
C184 H174 0.929 . S
C184 C180 1.377 . S
C184 C183 1.394 1_565 S
H185 C192 0.929 . S
H186 C195 0.930 . S
H187 C197 0.929 . S
H188 C189 0.969 . S
C189 H188 0.969 . S
C189 O190 1.550 . S
C189 H191 0.973 . S
O190 C189 1.550 . S
O190 C196 1.412 . S
H191 C189 0.973 . S
C192 H185 0.929 . S
C192 C193 1.400 . S
C192 C194 1.364 . S
C193 C192 1.400 . S
C193 C197 1.377 . S
C194 C192 1.364 . S
C194 C195 1.374 . S
C195 H186 0.930 . S
C195 C194 1.374 . S
C195 C196 1.383 . S
C196 O190 1.412 . S
C196 C195 1.383 . S
C196 C197 1.394 . S
C197 H187 0.929 . S
C197 C193 1.377 . S
C197 C196 1.394 . S
C24 C189 4.586 . S
C66 C167 2.447 . S
C93 C180 2.368 . S
C13 C193 4.815 . S
C163 C57 2.438 . S
C176 C104 2.473 . S
C64 C141 2.359 . S
C97 C154 3.274 . S
C17 C124 3.210 . S
C137 C53 2.172 . S
C150 C106 4.220 . S
C26 C128 2.449 . S
C155 C2 0.579 . S
C63 C129 1.356 . S
C82 C142 1.171 . S
C181 C42 1.510 1_565 S
C194 C103 1.990 1_554 S
C23 C168 1.505 . S
