# Generated by pormake.
# Topology hwx, (6,3)-cn, num edge types: 1
# Building blocks:
#     Node 0, Type 0, BuildingBlock: IZENUY_clean_sbu_0, # of connection points: 6
#     Node 1, Type 0, BuildingBlock: IZENUY_clean_sbu_0, # of connection points: 6
#     Node 2, Type 0, BuildingBlock: IZENUY_clean_sbu_0, # of connection points: 6
#     Node 3, Type 0, BuildingBlock: IZENUY_clean_sbu_0, # of connection points: 6
#     Node 4, Type 1, BuildingBlock: CUQRIR_clean_linker_1, # of connection points: 3
#     Node 5, Type 1, BuildingBlock: CUQRIR_clean_linker_1, # of connection points: 3
#     Node 6, Type 1, BuildingBlock: CUQRIR_clean_linker_1, # of connection points: 3
#     Node 7, Type 1, BuildingBlock: CUQRIR_clean_linker_1, # of connection points: 3
#     Node 8, Type 1, BuildingBlock: CUQRIR_clean_linker_1, # of connection points: 3
#     Node 9, Type 1, BuildingBlock: CUQRIR_clean_linker_1, # of connection points: 3
#     Node 10, Type 1, BuildingBlock: CUQRIR_clean_linker_1, # of connection points: 3
#     Node 11, Type 1, BuildingBlock: CUQRIR_clean_linker_1, # of connection points: 3
#     Edge 12, Type (0, 1), None
#     Edge 13, Type (0, 1), None
#     Edge 14, Type (0, 1), None
#     Edge 15, Type (0, 1), None
#     Edge 16, Type (0, 1), None
#     Edge 17, Type (0, 1), None
#     Edge 18, Type (0, 1), None
#     Edge 19, Type (0, 1), None
#     Edge 20, Type (0, 1), None
#     Edge 21, Type (0, 1), None
#     Edge 22, Type (0, 1), None
#     Edge 23, Type (0, 1), None
#     Edge 24, Type (0, 1), None
#     Edge 25, Type (0, 1), None
#     Edge 26, Type (0, 1), None
#     Edge 27, Type (0, 1), None
#     Edge 28, Type (0, 1), None
#     Edge 29, Type (0, 1), None
#     Edge 30, Type (0, 1), None
#     Edge 31, Type (0, 1), None
#     Edge 32, Type (0, 1), None
#     Edge 33, Type (0, 1), None
#     Edge 34, Type (0, 1), None
#     Edge 35, Type (0, 1), None
# Relax obj value: 0.001
# Max RMSD: 0.057
# Mean RMSD: 0.046
data_MOF--net-hwx--node1-IZENUY_clean_sbu_0--node2-CUQRIR_clean_linker_1--edge1-none
_symmetry_space_group_name_H-M    P1
_symmetry_Int_Tables_number       1
_symmetry_cell_setting            triclinic
loop_
_symmetry_equiv_pos_as_xyz
'x, y, z'
_cell_length_a     19.255501
_cell_length_b     19.255275
_cell_length_c     7.2386021
_cell_angle_alpha  90.000172
_cell_angle_beta   89.994255
_cell_angle_gamma 89.99637
loop_
_atom_site_label
_atom_site_type_symbol
_atom_site_fract_x
_atom_site_fract_y
_atom_site_fract_z
_atom_type_partial_charge
Fe0 Fe 0.27874 0.28314 0.24937 0.0
Fe1 Fe 0.27992 0.28196 0.81492 0.0
O2 O 0.24731 0.2505 0.03215 0.0
Fe3 Fe 0.18222 0.18535 0.03216 0.0
O4 O 0.13989 0.2104 0.24429 0.0
O5 O 0.19173 0.30483 0.33661 0.0
O6 O 0.28608 0.37221 0.17363 0.0
C7 C 0.27305 0.40432 1.02656 0.0
C8 C 0.27063 0.13818 0.3122 0.0
O9 O 0.26189 0.37224 0.87656 0.0
C10 C 0.2604 0.14394 0.72067 0.0
O11 O 0.36903 0.26519 0.18773 0.0
O12 O 0.36898 0.28938 0.89065 0.0
O13 O 0.24003 0.12529 0.15964 0.0
O14 O 0.27675 0.19983 0.3673 0.0
C15 C 0.13496 0.27371 0.75211 0.0
O16 O 0.30169 0.19497 0.72769 0.0
O17 O 0.20732 0.14304 0.82004 0.0
C18 C 0.40111 0.27637 0.03771 0.0
O19 O 0.19661 0.2799 0.697 0.0
O20 O 0.12211 0.2431 0.90468 0.0
C21 C 0.14074 0.26349 0.34366 0.0
Fe22 Fe 0.27703 0.78196 0.74932 0.0
Fe23 Fe 0.37473 0.68534 0.53207 0.0
O24 O 0.30964 0.75049 0.53208 0.0
Fe25 Fe 0.27821 0.78314 0.31486 0.0
O26 O 0.27085 0.87221 0.3906 0.0
O27 O 0.29505 0.87224 0.68767 0.0
O28 O 0.36033 0.7799 0.86723 0.0
C29 C 0.42198 0.7737 0.81213 0.0
C30 C 0.15584 0.77637 0.52652 0.0
O31 O 0.43484 0.74309 0.65956 0.0
C32 C 0.28633 0.63818 0.25202 0.0
O33 O 0.25526 0.69497 0.83655 0.0
O34 O 0.34963 0.64303 0.74419 0.0
O35 O 0.18792 0.76519 0.3765 0.0
O36 O 0.18796 0.78938 0.67359 0.0
C37 C 0.4162 0.76348 0.22058 0.0
O38 O 0.31693 0.62529 0.40459 0.0
O39 O 0.2802 0.69983 0.19693 0.0
C40 C 0.29655 0.64394 0.84357 0.0
O41 O 0.41706 0.7104 0.31995 0.0
O42 O 0.36522 0.80483 0.22763 0.0
C43 C 0.28388 0.90432 0.53767 0.0
Fe44 Fe 0.77703 0.78127 0.81491 0.0
Fe45 Fe 0.7782 0.78009 0.24936 0.0
O46 O 0.80964 0.81273 0.03213 0.0
Fe47 Fe 0.87473 0.87787 0.03212 0.0
O48 O 0.84963 0.92019 0.82002 0.0
O49 O 0.75527 0.86826 0.72768 0.0
O50 O 0.68797 0.77385 0.89064 0.0
C51 C 0.65584 0.78687 0.03769 0.0
C52 C 0.92198 0.78951 0.75206 0.0
O53 O 0.6879 0.79804 0.18772 0.0
C54 C 0.91621 0.79973 0.34359 0.0
O55 O 0.79505 0.69099 0.87655 0.0
O56 O 0.77085 0.69102 0.17363 0.0
O57 O 0.93484 0.82012 0.90461 0.0
O58 O 0.86034 0.78332 0.69698 0.0
C59 C 0.78632 0.92505 0.3122 0.0
O60 O 0.86521 0.7584 0.33659 0.0
O61 O 0.91706 0.85281 0.24422 0.0
C62 C 0.78388 0.65891 1.02655 0.0
O63 O 0.78018 0.8634 0.36729 0.0
O64 O 0.81693 0.93794 0.15964 0.0
C65 C 0.79656 0.91929 0.72064 0.0
Fe66 Fe 0.68221 0.37788 0.53212 0.0
Fe67 Fe 0.77991 0.28127 0.74933 0.0
O68 O 0.7473 0.31273 0.53211 0.0
Fe69 Fe 0.77875 0.28009 0.31488 0.0
O70 O 0.77676 0.3634 0.19695 0.0
O71 O 0.74001 0.43795 0.4046 0.0
O72 O 0.7073 0.4202 0.74422 0.0
C73 C 0.76038 0.41929 0.84358 0.0
C74 C 0.64074 0.29974 0.22065 0.0
O75 O 0.80167 0.36826 0.83655 0.0
C76 C 0.77306 0.15891 0.53769 0.0
O77 O 0.6221 0.32014 0.65963 0.0
O78 O 0.69661 0.28333 0.86726 0.0
O79 O 0.69174 0.25841 0.22765 0.0
O80 O 0.63987 0.35282 0.32002 0.0
C81 C 0.90111 0.28687 0.52655 0.0
O82 O 0.76189 0.19099 0.6877 0.0
O83 O 0.78609 0.19102 0.39062 0.0
C84 C 0.63496 0.28952 0.81218 0.0
O85 O 0.86898 0.27385 0.6736 0.0
O86 O 0.86904 0.29804 0.37652 0.0
C87 C 0.77062 0.42506 0.25204 0.0
C88 C 0.29065 0.51958 0.89346 0.0
N89 N 0.2828 0.58666 0.95004 0.0
N90 N 0.27318 0.4753 1.03075 0.0
C91 C 0.3355 0.49842 0.73142 0.0
C92 C 0.26139 0.51747 0.17829 0.0
N93 N 0.2699 0.58532 0.13185 0.0
C94 C 0.22478 0.49384 0.35108 0.0
H95 H 0.33374 0.44261 0.69732 0.0
H96 H 0.39035 0.51118 0.76419 0.0
H97 H 0.32132 0.528 0.60794 0.0
H98 H 0.25667 0.45507 0.42534 0.0
H99 H 0.17578 0.46728 0.31184 0.0
H100 H 0.21186 0.53791 0.44364 0.0
C101 C 0.04271 0.76469 0.67829 0.0
N102 N 0.97485 0.77314 0.63184 0.0
N103 N 0.08486 0.77651 0.53074 0.0
C104 C 0.06635 0.72811 0.85109 0.0
C105 C 0.04057 0.79393 0.39345 0.0
N106 N 0.97349 0.78602 0.45002 0.0
C107 C 0.06172 0.83881 0.23148 0.0
H108 H 0.10509 0.76002 0.92534 0.0
H109 H 0.09294 0.67912 0.81187 0.0
H110 H 1.02229 0.71517 0.94367 0.0
H111 H 0.11753 0.83706 0.19736 0.0
H112 H 0.04894 0.89365 0.26435 0.0
H113 H 0.03214 0.82466 0.10797 0.0
C114 C 0.79553 0.54576 0.17827 0.0
N115 N 0.78703 0.47791 0.13182 0.0
N116 N 0.78374 0.58792 1.03073 0.0
C117 C 0.83213 0.56938 0.35107 0.0
C118 C 0.76628 0.54364 0.89344 0.0
N119 N 0.77414 0.47657 0.95001 0.0
C120 C 0.72142 0.56483 0.73148 0.0
H121 H 0.80025 0.60815 0.42534 0.0
H122 H 0.88114 0.59592 0.31182 0.0
H123 H 0.84504 0.5253 0.44363 0.0
H124 H 0.72321 0.62063 0.69735 0.0
H125 H 0.66657 0.5521 0.76435 0.0
H126 H 0.73556 0.53523 0.60797 0.0
C127 C 1.01639 0.26929 0.39354 0.0
N128 N 0.08346 0.27719 0.45012 0.0
N129 N 0.97209 0.28674 0.5308 0.0
C130 C 0.99526 0.22441 0.23154 0.0
C131 C 1.01423 0.29855 0.67835 0.0
N132 N 0.08209 0.29009 0.63193 0.0
C133 C 0.99055 0.33512 0.85115 0.0
H134 H 0.93945 0.22611 0.19751 0.0
H135 H 1.0081 0.16958 0.26433 0.0
H136 H 1.02482 0.23862 0.10802 0.0
H137 H 0.95182 0.30319 0.9254 0.0
H138 H 0.96395 0.3841 0.81193 0.0
H139 H 0.0346 0.34808 0.94372 0.0
C140 C 0.79066 0.04364 0.67077 0.0
N141 N 0.7828 0.97656 0.6142 0.0
N142 N 0.77319 0.08793 0.5335 0.0
C143 C 0.8355 0.06481 0.83279 0.0
C144 C 0.76139 0.04577 0.38596 0.0
N145 N 0.7699 0.97792 0.43239 0.0
C146 C 0.72478 0.06941 0.2132 0.0
H147 H 0.83375 0.12061 0.86688 0.0
H148 H 0.89035 0.05203 0.80001 0.0
H149 H 0.82132 0.03522 0.95628 0.0
H150 H 0.75667 0.10817 0.13892 0.0
H151 H 0.67578 0.09597 0.25247 0.0
H152 H 0.71186 1.02534 0.12064 0.0
C153 C 0.51424 0.2647 0.88595 0.0
N154 N 0.5821 0.27315 0.9324 0.0
N155 N 0.47209 0.27651 0.0335 0.0
C156 C 0.49061 0.22811 0.71314 0.0
C157 C 0.51638 0.29394 0.17079 0.0
N158 N 0.58345 0.28603 0.11422 0.0
C159 C 0.49521 0.33882 0.33276 0.0
H160 H 0.45186 0.26002 0.6389 0.0
H161 H 0.46403 0.17912 0.75237 0.0
H162 H 0.53467 0.21518 0.62057 0.0
H163 H 0.43941 0.33706 0.36689 0.0
H164 H 0.50798 0.39365 0.29989 0.0
H165 H 0.52481 0.32467 0.45627 0.0
C166 C 0.29554 1.01747 0.38595 0.0
N167 N 0.28704 0.08532 0.43241 0.0
N168 N 0.28375 0.9753 0.53349 0.0
C169 C 0.33214 0.99384 0.21313 0.0
C170 C 0.2663 1.01959 0.6708 0.0
N171 N 0.27416 0.08666 0.61423 0.0
C172 C 0.22143 0.9984 0.83278 0.0
H173 H 0.30025 0.95508 0.13888 0.0
H174 H 0.38114 0.96729 0.25235 0.0
H175 H 0.34505 0.03791 0.12057 0.0
H176 H 0.22321 0.94261 0.86691 0.0
H177 H 0.16658 1.01115 0.79993 0.0
H178 H 0.23557 0.028 0.95629 0.0
C179 C 0.54056 0.76929 0.17071 0.0
N180 N 0.47349 0.77718 0.11412 0.0
N181 N 0.58486 0.78674 0.03345 0.0
C182 C 0.56169 0.72441 0.3327 0.0
C183 C 0.54271 0.79855 0.88589 0.0
N184 N 0.47486 0.79008 0.93231 0.0
C185 C 0.56638 0.83512 0.71308 0.0
H186 H 0.6175 0.72611 0.36673 0.0
H187 H 0.54886 0.66958 0.2999 0.0
H188 H 0.53213 0.73861 0.45622 0.0
H189 H 0.60512 0.80318 0.63884 0.0
H190 H 0.59298 0.8841 0.7523 0.0
H191 H 0.52233 0.84807 0.62052 0.0
loop_
_geom_bond_atom_site_label_1
_geom_bond_atom_site_label_2
_geom_bond_distance
_geom_bond_site_symmetry_2
_ccdc_geom_bond_type
Fe0 O2 1.920 . S
Fe0 O5 1.997 . S
Fe0 O6 2.002 . S
Fe0 O11 1.976 . S
Fe0 O14 1.996 . S
Fe1 O2 1.916 1_556 S
Fe1 O9 1.997 . S
Fe1 O12 1.996 . S
Fe1 O16 1.976 . S
Fe1 O19 2.002 . S
O2 Fe0 1.920 . S
O2 Fe1 1.916 1_554 S
O2 Fe3 1.918 1_554 S
Fe3 O2 1.918 1_556 S
Fe3 O4 2.002 1_556 S
Fe3 O13 1.976 1_556 S
Fe3 O17 1.996 . S
Fe3 O20 1.997 . S
O4 Fe3 2.002 1_554 S
O4 C21 1.295 . S
O5 Fe0 1.997 . S
O5 C21 1.235 . S
O6 Fe0 2.002 . S
O6 C7 1.295 . S
C7 O6 1.295 . S
C7 O9 1.235 1_554 S
C8 O13 1.287 . S
C8 O14 1.255 . S
O9 Fe1 1.997 . S
O9 C7 1.235 1_556 S
C10 O16 1.287 . S
C10 O17 1.255 . S
O11 Fe0 1.976 . S
O11 C18 1.287 1_554 S
O12 Fe1 1.996 . S
O12 C18 1.255 . S
O13 Fe3 1.976 1_554 S
O13 C8 1.287 . S
O14 Fe0 1.996 . S
O14 C8 1.255 . S
C15 O19 1.295 . S
C15 O20 1.235 . S
O16 Fe1 1.976 . S
O16 C10 1.287 . S
O17 Fe3 1.996 . S
O17 C10 1.255 . S
C18 O11 1.287 1_556 S
C18 O12 1.255 . S
O19 Fe1 2.002 . S
O19 C15 1.295 . S
O20 Fe3 1.997 . S
O20 C15 1.235 . S
C21 O4 1.295 . S
C21 O5 1.235 . S
Fe22 O24 1.918 . S
Fe22 O27 1.997 . S
Fe22 O28 2.002 . S
Fe22 O33 1.976 . S
Fe22 O36 1.996 . S
Fe23 O24 1.918 . S
Fe23 O31 1.997 . S
Fe23 O34 1.996 . S
Fe23 O38 1.976 . S
Fe23 O41 2.002 . S
O24 Fe22 1.918 . S
O24 Fe23 1.918 . S
O24 Fe25 1.918 . S
Fe25 O24 1.918 . S
Fe25 O26 2.002 . S
Fe25 O35 1.976 . S
Fe25 O39 1.996 . S
Fe25 O42 1.997 . S
O26 Fe25 2.002 . S
O26 C43 1.295 . S
O27 Fe22 1.997 . S
O27 C43 1.235 . S
O28 Fe22 2.002 . S
O28 C29 1.295 . S
C29 O28 1.295 . S
C29 O31 1.235 . S
C30 O35 1.287 . S
C30 O36 1.255 . S
O31 Fe23 1.997 . S
O31 C29 1.235 . S
C32 O38 1.287 . S
C32 O39 1.255 . S
O33 Fe22 1.976 . S
O33 C40 1.287 . S
O34 Fe23 1.996 . S
O34 C40 1.255 . S
O35 Fe25 1.976 . S
O35 C30 1.287 . S
O36 Fe22 1.996 . S
O36 C30 1.255 . S
C37 O41 1.295 . S
C37 O42 1.235 . S
O38 Fe23 1.976 . S
O38 C32 1.287 . S
O39 Fe25 1.996 . S
O39 C32 1.255 . S
C40 O33 1.287 . S
C40 O34 1.255 . S
O41 Fe23 2.002 . S
O41 C37 1.295 . S
O42 Fe25 1.997 . S
O42 C37 1.235 . S
C43 O26 1.295 . S
C43 O27 1.235 . S
Fe44 O46 1.913 1_556 S
Fe44 O49 1.997 . S
Fe44 O50 2.002 . S
Fe44 O55 1.976 . S
Fe44 O58 1.996 . S
Fe45 O46 1.924 . S
Fe45 O53 1.997 . S
Fe45 O56 1.996 . S
Fe45 O60 1.976 . S
Fe45 O63 2.002 . S
O46 Fe44 1.913 1_554 S
O46 Fe45 1.924 . S
O46 Fe47 1.918 . S
Fe47 O46 1.918 . S
Fe47 O48 2.002 1_554 S
Fe47 O57 1.976 1_554 S
Fe47 O61 1.996 . S
Fe47 O64 1.997 . S
O48 Fe47 2.002 1_556 S
O48 C65 1.295 . S
O49 Fe44 1.997 . S
O49 C65 1.235 . S
O50 Fe44 2.002 . S
O50 C51 1.295 . S
C51 O50 1.295 . S
C51 O53 1.235 1_556 S
C52 O57 1.287 . S
C52 O58 1.255 . S
O53 Fe45 1.997 . S
O53 C51 1.235 1_554 S
C54 O60 1.287 . S
C54 O61 1.255 . S
O55 Fe44 1.976 . S
O55 C62 1.287 1_556 S
O56 Fe45 1.996 . S
O56 C62 1.255 . S
O57 Fe47 1.976 1_556 S
O57 C52 1.287 . S
O58 Fe44 1.996 . S
O58 C52 1.255 . S
C59 O63 1.295 . S
C59 O64 1.235 . S
O60 Fe45 1.976 . S
O60 C54 1.287 . S
O61 Fe47 1.996 . S
O61 C54 1.255 . S
C62 O55 1.287 1_554 S
C62 O56 1.255 . S
O63 Fe45 2.002 . S
O63 C59 1.295 . S
O64 Fe47 1.997 . S
O64 C59 1.235 . S
C65 O48 1.295 . S
C65 O49 1.235 . S
Fe66 O68 1.918 . S
Fe66 O71 1.997 . S
Fe66 O72 2.002 . S
Fe66 O77 1.976 . S
Fe66 O80 1.996 . S
Fe67 O68 1.918 . S
Fe67 O75 1.997 . S
Fe67 O78 1.996 . S
Fe67 O82 1.976 . S
Fe67 O85 2.002 . S
O68 Fe66 1.918 . S
O68 Fe67 1.918 . S
O68 Fe69 1.918 . S
Fe69 O68 1.918 . S
Fe69 O70 2.002 . S
Fe69 O79 1.976 . S
Fe69 O83 1.996 . S
Fe69 O86 1.997 . S
O70 Fe69 2.002 . S
O70 C87 1.295 . S
O71 Fe66 1.997 . S
O71 C87 1.235 . S
O72 Fe66 2.002 . S
O72 C73 1.295 . S
C73 O72 1.295 . S
C73 O75 1.235 . S
C74 O79 1.287 . S
C74 O80 1.255 . S
O75 Fe67 1.997 . S
O75 C73 1.235 . S
C76 O82 1.287 . S
C76 O83 1.255 . S
O77 Fe66 1.976 . S
O77 C84 1.287 . S
O78 Fe67 1.996 . S
O78 C84 1.255 . S
O79 Fe69 1.976 . S
O79 C74 1.287 . S
O80 Fe66 1.996 . S
O80 C74 1.255 . S
C81 O85 1.295 . S
C81 O86 1.235 . S
O82 Fe67 1.976 . S
O82 C76 1.287 . S
O83 Fe69 1.996 . S
O83 C76 1.255 . S
C84 O77 1.287 . S
C84 O78 1.255 . S
O85 Fe67 2.002 . S
O85 C81 1.295 . S
O86 Fe69 1.997 . S
O86 C81 1.235 . S
C87 O70 1.295 . S
C87 O71 1.235 . S
C88 N89 1.317 . S
C88 N90 1.348 . S
C88 C91 1.485 . S
N89 C88 1.317 . S
N89 N93 1.370 1_556 S
N90 C88 1.348 . S
N90 C92 1.346 1_556 S
C91 C88 1.485 . S
C91 H95 0.960 . S
C91 H96 0.961 . S
C91 H97 0.960 . S
C92 N90 1.346 1_554 S
C92 N93 1.307 . S
C92 C94 1.486 . S
N93 N89 1.370 1_554 S
N93 C92 1.307 . S
C94 C92 1.486 . S
C94 H98 0.960 . S
C94 H99 0.960 . S
C94 H100 0.959 . S
H95 C91 0.960 . S
H96 C91 0.961 . S
H97 C91 0.960 . S
H98 C94 0.960 . S
H99 C94 0.960 . S
H100 C94 0.959 . S
C101 N102 1.317 1_455 S
C101 N103 1.348 . S
C101 C104 1.485 . S
N102 C101 1.317 1_655 S
N102 N106 1.370 . S
N103 C101 1.348 . S
N103 C105 1.346 . S
C104 C101 1.485 . S
C104 H108 0.960 . S
C104 H109 0.961 . S
C104 H110 0.970 . S
C105 N103 1.346 . S
C105 N106 1.307 1_455 S
C105 C107 1.486 . S
N106 N102 1.370 . S
N106 C105 1.307 1_655 S
C107 C105 1.486 . S
C107 H111 0.960 . S
C107 H112 0.960 . S
C107 H113 0.959 . S
H108 C104 0.960 . S
H109 C104 0.961 . S
H110 C104 0.970 . S
H111 C107 0.960 . S
H112 C107 0.960 . S
H113 C107 0.959 . S
C114 N115 1.317 . S
C114 N116 1.348 . S
C114 C117 1.485 . S
N115 C114 1.317 . S
N115 N119 1.370 1_554 S
N116 C114 1.348 . S
N116 C118 1.346 1_554 S
C117 C114 1.485 . S
C117 H121 0.960 . S
C117 H122 0.961 . S
C117 H123 0.960 . S
C118 N116 1.346 1_556 S
C118 N119 1.307 . S
C118 C120 1.486 . S
N119 N115 1.370 1_556 S
N119 C118 1.307 . S
C120 C118 1.486 . S
C120 H124 0.960 . S
C120 H125 0.960 . S
C120 H126 0.959 . S
H121 C117 0.960 . S
H122 C117 0.961 . S
H123 C117 0.960 . S
H124 C120 0.960 . S
H125 C120 0.960 . S
H126 C120 0.959 . S
C127 N128 1.317 1_655 S
C127 N129 1.348 . S
C127 C130 1.485 . S
N128 C127 1.317 1_455 S
N128 N132 1.370 . S
N129 C127 1.348 . S
N129 C131 1.346 . S
C130 C127 1.485 . S
C130 H134 0.960 . S
C130 H135 0.961 . S
C130 H136 0.960 . S
C131 N129 1.346 . S
C131 N132 1.307 1_655 S
C131 C133 1.486 . S
N132 N128 1.370 . S
N132 C131 1.307 1_455 S
C133 C131 1.486 . S
C133 H137 0.960 . S
C133 H138 0.960 . S
C133 H139 0.959 1_655 S
H134 C130 0.960 . S
H135 C130 0.961 . S
H136 C130 0.960 . S
H137 C133 0.960 . S
H138 C133 0.960 . S
H139 C133 0.959 1_455 S
C140 N141 1.317 1_545 S
C140 N142 1.348 . S
C140 C143 1.485 . S
N141 C140 1.317 1_565 S
N141 N145 1.370 . S
N142 C140 1.348 . S
N142 C144 1.346 . S
C143 C140 1.485 . S
C143 H147 0.960 . S
C143 H148 0.961 . S
C143 H149 0.960 . S
C144 N142 1.346 . S
C144 N145 1.307 1_545 S
C144 C146 1.486 . S
N145 N141 1.370 . S
N145 C144 1.307 1_565 S
C146 C144 1.486 . S
C146 H150 0.960 . S
C146 H151 0.960 . S
C146 H152 0.959 . S
H147 C143 0.960 . S
H148 C143 0.961 . S
H149 C143 0.960 . S
H150 C146 0.960 . S
H151 C146 0.960 . S
H152 C146 0.959 . S
C153 N154 1.317 . S
C153 N155 1.348 . S
C153 C156 1.485 . S
N154 C153 1.317 . S
N154 N158 1.370 1_556 S
N155 C153 1.348 . S
N155 C157 1.346 1_556 S
C156 C153 1.485 . S
C156 H160 0.960 . S
C156 H161 0.961 . S
C156 H162 0.960 . S
C157 N155 1.346 1_554 S
C157 N158 1.307 . S
C157 C159 1.486 . S
N158 N154 1.370 1_554 S
N158 C157 1.307 . S
C159 C157 1.486 . S
C159 H163 0.960 . S
C159 H164 0.960 . S
C159 H165 0.959 . S
H160 C156 0.960 . S
H161 C156 0.961 . S
H162 C156 0.960 . S
H163 C159 0.960 . S
H164 C159 0.960 . S
H165 C159 0.959 . S
C166 N167 1.317 1_565 S
C166 N168 1.348 . S
C166 C169 1.485 . S
N167 C166 1.317 1_545 S
N167 N171 1.370 . S
N168 C166 1.348 . S
N168 C170 1.346 . S
C169 C166 1.485 . S
C169 H173 0.960 . S
C169 H174 0.961 . S
C169 H175 0.960 1_565 S
C170 N168 1.346 . S
C170 N171 1.307 1_565 S
C170 C172 1.486 . S
N171 N167 1.370 . S
N171 C170 1.307 1_545 S
C172 C170 1.486 . S
C172 H176 0.960 . S
C172 H177 0.960 . S
C172 H178 0.959 . S
H173 C169 0.960 . S
H174 C169 0.961 . S
H175 C169 0.960 1_545 S
H176 C172 0.960 . S
H177 C172 0.960 . S
H178 C172 0.959 . S
C179 N180 1.317 . S
C179 N181 1.348 . S
C179 C182 1.485 . S
N180 C179 1.317 . S
N180 N184 1.370 1_554 S
N181 C179 1.348 . S
N181 C183 1.346 1_554 S
C182 C179 1.485 . S
C182 H186 0.960 . S
C182 H187 0.961 . S
C182 H188 0.960 . S
C183 N181 1.346 1_556 S
C183 N184 1.307 . S
C183 C185 1.486 . S
N184 N180 1.370 1_556 S
N184 C183 1.307 . S
C185 C183 1.486 . S
C185 H189 0.960 . S
C185 H190 0.960 . S
C185 H191 0.959 . S
H186 C182 0.960 . S
H187 C182 0.961 . S
H188 C182 0.960 . S
H189 C185 0.960 . S
H190 C185 0.960 . S
H191 C185 0.959 . S
C21 N128 1.508 . S
C40 N89 1.478 . S
N106 C54 1.457 . S
C73 N119 1.516 . S
N158 C74 1.457 . S
N171 C10 1.498 . S
N180 C37 1.509 . S
N141 C65 1.494 . S
C52 N102 1.458 . S
C87 N115 1.524 . S
C15 N132 1.518 . S
N93 C32 1.494 . S
C29 N184 1.518 . S
N145 C59 1.511 . S
N154 C84 1.458 . S
C8 N167 1.506 . S
N90 C7 1.506 1_556 S
N103 C30 1.475 . S
C62 N116 1.529 . S
C81 N129 1.504 . S
N142 C76 1.511 . S
C18 N155 1.475 . S
C43 N168 1.523 . S
C51 N181 1.504 1_556 S
