# Generated by pormake.
# Topology zzz, (3,6)-cn, num edge types: 1
# Building blocks:
#     Node 0, Type 0, BuildingBlock: PAMTOO_clean_linker_0, # of connection points: 3
#     Node 1, Type 0, BuildingBlock: PAMTOO_clean_linker_0, # of connection points: 3
#     Node 2, Type 0, BuildingBlock: PAMTOO_clean_linker_0, # of connection points: 3
#     Node 3, Type 0, BuildingBlock: PAMTOO_clean_linker_0, # of connection points: 3
#     Node 4, Type 0, BuildingBlock: PAMTOO_clean_linker_0, # of connection points: 3
#     Node 5, Type 0, BuildingBlock: PAMTOO_clean_linker_0, # of connection points: 3
#     Node 6, Type 0, BuildingBlock: PAMTOO_clean_linker_0, # of connection points: 3
#     Node 7, Type 0, BuildingBlock: PAMTOO_clean_linker_0, # of connection points: 3
#     Node 8, Type 1, BuildingBlock: CUKXOW_clean_sbu_0, # of connection points: 6
#     Node 9, Type 1, BuildingBlock: CUKXOW_clean_sbu_0, # of connection points: 6
#     Node 10, Type 1, BuildingBlock: CUKXOW_clean_sbu_0, # of connection points: 6
#     Node 11, Type 1, BuildingBlock: CUKXOW_clean_sbu_0, # of connection points: 6
#     Edge 12, Type (0, 1), None
#     Edge 13, Type (0, 1), None
#     Edge 14, Type (0, 1), None
#     Edge 15, Type (0, 1), None
#     Edge 16, Type (0, 1), None
#     Edge 17, Type (0, 1), None
#     Edge 18, Type (0, 1), None
#     Edge 19, Type (0, 1), None
#     Edge 20, Type (0, 1), None
#     Edge 21, Type (0, 1), None
#     Edge 22, Type (0, 1), None
#     Edge 23, Type (0, 1), None
#     Edge 24, Type (0, 1), None
#     Edge 25, Type (0, 1), None
#     Edge 26, Type (0, 1), None
#     Edge 27, Type (0, 1), None
#     Edge 28, Type (0, 1), None
#     Edge 29, Type (0, 1), None
#     Edge 30, Type (0, 1), None
#     Edge 31, Type (0, 1), None
#     Edge 32, Type (0, 1), None
#     Edge 33, Type (0, 1), None
#     Edge 34, Type (0, 1), None
#     Edge 35, Type (0, 1), None
# Relax obj value: 0.052
# Max RMSD: 0.128
# Mean RMSD: 0.073
data_MOF--net-zzz--node1-CUKXOW_clean_sbu_0--node2-PAMTOO_clean_linker_0--edge1-none
_symmetry_space_group_name_H-M    P1
_symmetry_Int_Tables_number       1
_symmetry_cell_setting            triclinic
loop_
_symmetry_equiv_pos_as_xyz
'x, y, z'
_cell_length_a     20.349724
_cell_length_b     22.413265
_cell_length_c     8.4140988
_cell_angle_alpha  95.354448
_cell_angle_beta   84.113484
_cell_angle_gamma 93.952316
loop_
_atom_site_label
_atom_site_type_symbol
_atom_site_fract_x
_atom_site_fract_y
_atom_site_fract_z
_atom_type_partial_charge
H0 H 0.97482 0.54001 0.25141 0.0
H1 H 0.84341 0.51305 0.88056 0.0
H2 H 0.76861 0.57152 0.36453 0.0
H3 H 0.75198 0.61566 -0.04798 0.0
C4 C 0.71236 0.58945 0.02172 0.0
O5 O 0.73628 0.53864 0.07051 0.0
H6 H 0.69449 0.61876 0.12911 0.0
C7 C 0.92494 0.53841 0.21483 0.0
C8 C 0.87347 0.558 0.32494 0.0
C9 C 0.91511 0.52299 0.05526 0.0
C10 C 0.85136 0.52335 0.00574 0.0
C11 C 0.79782 0.53886 0.11838 0.0
C12 C 0.80905 0.55697 0.27893 0.0
H13 H 0.0696 1.0041 0.20914 0.0
H14 H 0.12471 0.86169 0.85304 0.0
H15 H 1.04186 0.82132 0.32759 0.0
H16 H 0.98944 0.76457 -0.03013 0.0
C17 C 1.02605 0.73921 0.02199 0.0
O18 O 0.08407 0.77415 0.03951 0.0
H19 H 1.00427 0.72738 0.1424 0.0
C20 C 0.07276 0.95639 0.17394 0.0
C21 C 1.04979 0.91493 0.28331 0.0
C22 C 0.10183 0.93823 0.02163 0.0
C23 C 0.10502 0.87653 -0.02634 0.0
C24 C 0.08281 0.83393 0.08416 0.0
C25 C 1.05744 0.85367 0.24121 0.0
H26 H 0.61252 0.0764 0.19018 0.0
H27 H 0.78688 0.06166 0.85979 0.0
H28 H 0.79263 1.02395 0.35108 0.0
H29 H 0.92282 0.08377 0.22113 0.0
C30 C 0.90927 0.08182 0.09601 0.0
O31 O 0.86287 1.03475 0.07225 0.0
H32 H 0.88914 0.12539 0.07776 0.0
C33 C 0.66417 0.0665 0.16642 0.0
C34 C 0.69831 0.04931 0.29013 0.0
C35 C 0.69517 0.07002 0.01095 0.0
C36 C 0.76217 0.05875 -0.02055 0.0
C37 C 0.7974 0.04263 0.10237 0.0
C38 C 0.76514 1.03648 0.2569 0.0
H39 H 0.52511 0.62218 0.30213 0.0
H40 H 0.53541 0.7138 0.87459 0.0
H41 H 0.62682 0.79604 0.28771 0.0
H42 H 0.64882 0.77545 0.7877 0.0
C43 C 0.64888 0.8163 0.87361 0.0
O44 O 0.59816 0.8107 -0.00544 0.0
H45 H 0.69702 0.82398 0.926 0.0
C46 C 0.54079 0.66108 0.23723 0.0
C47 C 0.57677 0.70874 0.31396 0.0
C48 C 0.52784 0.66094 0.07724 0.0
C49 C 0.54706 0.71196 -0.00386 0.0
C50 C 0.583 0.7606 0.07145 0.0
C51 C 0.59902 0.75863 0.23002 0.0
H52 H 0.13275 0.60928 0.24104 0.0
H53 H 0.25526 0.60742 0.62591 0.0
H54 H 0.32855 0.5455 0.14441 0.0
H55 H 0.38498 0.48414 0.40135 0.0
C56 C 0.37474 0.5189 0.50236 0.0
O57 O 0.36001 0.57132 0.4424 0.0
H58 H 0.33233 0.50232 0.58421 0.0
C59 C 0.18053 0.60297 0.28213 0.0
C60 C 0.22938 0.57681 0.17487 0.0
C61 C 0.18817 0.61223 0.44476 0.0
C62 C 0.24884 0.6011 0.4992 0.0
C63 C 0.30069 0.5793 0.39011 0.0
C64 C 0.2903 0.56558 0.22736 0.0
H65 H 0.10107 0.1318 0.35308 0.0
H66 H 1.0542 0.27508 0.71349 0.0
H67 H 0.1569 0.31409 0.25616 0.0
H68 H 1.01063 0.37494 0.49919 0.0
C69 C 0.06123 0.39736 0.48735 0.0
O70 O 0.10622 0.36136 0.53701 0.0
H71 H 0.07504 0.40532 0.35946 0.0
C72 C 0.10288 0.17949 0.39178 0.0
C73 C 0.134 0.22026 0.2891 0.0
C74 C 0.07347 0.19844 0.54314 0.0
C75 C 0.07534 0.2599 0.59438 0.0
C76 C 0.10569 0.30185 0.49057 0.0
C77 C 0.13489 0.28185 0.33732 0.0
H78 H 0.53204 1.00066 0.25005 0.0
H79 H 0.3555 1.0009 0.57496 0.0
H80 H 0.34784 0.04244 0.08749 0.0
H81 H 0.23789 0.10857 0.34922 0.0
C82 C 0.25763 0.0843 0.44126 0.0
O83 O 0.27912 1.03035 0.36917 0.0
H84 H 0.29866 0.11337 0.49122 0.0
C85 C 0.4795 1.007 0.27274 0.0
C86 C 0.44413 1.02199 0.14855 0.0
C87 C 0.44823 1.0003 0.42666 0.0
C88 C 0.38018 1.00583 0.45604 0.0
C89 C 0.34415 1.02155 0.33454 0.0
C90 C 0.37609 1.03045 0.18089 0.0
H91 H 0.55405 0.47991 0.2141 0.0
H92 H 0.57566 0.38043 0.61516 0.0
H93 H 0.49423 0.29255 0.19327 0.0
H94 H 0.43597 0.24985 0.54593 0.0
C95 C 0.48429 0.25958 0.59659 0.0
O96 O 0.532 0.27735 0.47866 0.0
H97 H 0.47923 0.29534 0.69725 0.0
C98 C 0.54783 0.43832 0.27137 0.0
C99 C 0.52119 0.38742 0.18662 0.0
C100 C 0.56623 0.43719 0.42656 0.0
C101 C 0.55975 0.38273 0.4973 0.0
C102 C 0.53338 0.3305 0.41384 0.0
C103 C 0.51351 0.33288 0.2583 0.0
Tb104 Tb 1.04952 1.0326 0.66131 0.0
C105 C 0.2034 0.07415 0.5717 0.0
Tb106 Tb 0.12644 0.1057 0.90467 0.0
O107 O 1.00335 0.11259 0.60404 0.0
O108 O 0.09511 0.11955 0.68308 0.0
O109 O 0.15118 1.03781 0.53734 0.0
C110 C 0.15466 0.19566 0.12584 0.0
O111 O 0.20301 0.11054 0.70549 0.0
C112 C 0.1227 0.98653 0.9172 0.0
C113 C 0.97027 0.07439 -0.01769 0.0
O114 O 0.18166 0.14417 0.10229 0.0
O115 O 0.11479 0.19688 0.01591 0.0
O116 O 0.17164 1.02397 -0.04494 0.0
O117 O 0.07865 1.01888 0.88571 0.0
O118 O 1.02373 0.10898 0.01517 0.0
O119 O 0.9698 1.03468 0.85482 0.0
C120 C 1.02767 0.93963 0.44569 0.0
O121 O 0.99623 0.98894 0.46656 0.0
O122 O 0.0676 0.94168 0.55677 0.0
C123 C 1.05089 0.15081 0.64732 0.0
Tb124 Tb 0.55692 0.10333 0.72003 0.0
C125 C 0.66221 0.04674 0.45139 0.0
Tb126 Tb 0.58605 0.96932 0.71929 0.0
O127 O 0.6512 0.13059 0.82261 0.0
O128 O 0.60133 0.0493 0.86445 0.0
O129 O 0.62051 0.08971 0.49644 0.0
C130 C 0.63585 0.8688 0.78754 0.0
O131 O 0.66215 0.99737 0.52901 0.0
C132 C 0.48848 0.99245 0.5573 0.0
C133 C 0.48028 1.02541 -0.01262 0.0
O134 O 0.58362 0.87145 0.71239 0.0
O135 O 0.66141 0.92275 0.8189 0.0
O136 O 0.49198 0.94158 0.6178 0.0
O137 O 0.54153 1.02305 0.5746 0.0
O138 O 0.52187 0.98248 -0.05826 0.0
O139 O 0.48082 0.07515 0.91101 0.0
C140 C 0.5053 0.20432 0.65936 0.0
O141 O 0.55894 0.20151 0.72902 0.0
O142 O 0.4798 0.15036 0.62747 0.0
C143 C 0.65465 0.07939 0.88159 0.0
Tb144 Tb 0.57197 0.60333 0.64917 0.0
C145 C 0.43473 0.52935 0.59428 0.0
Tb146 Tb 0.52138 0.49539 0.85728 0.0
O147 O 0.59325 0.54357 0.43453 0.0
O148 O 0.58846 0.5105 0.65484 0.0
O149 O 0.47093 0.58099 0.58356 0.0
C150 C 0.50533 0.39604 0.02304 0.0
O151 O 0.44936 0.48591 0.68009 0.0
C152 C 0.50075 0.60412 -0.0015 0.0
C153 C 0.65573 0.5742 0.92121 0.0
O154 O 0.4612 0.43441 0.01071 0.0
O155 O 0.55477 0.41044 0.92008 0.0
O156 O 0.49609 0.55538 0.07121 0.0
O157 O 0.50521 0.58764 0.85081 0.0
O158 O 0.62032 0.52218 -0.06513 0.0
O159 O 0.64225 0.61547 0.82787 0.0
C160 C 0.59151 0.70051 0.47795 0.0
O161 O 0.63448 0.66146 0.49286 0.0
O162 O 0.5413 0.68819 0.58079 0.0
C163 C 0.59033 0.49488 0.50669 0.0
Tb164 Tb 1.00123 0.58703 0.64464 0.0
C165 C 0.05962 0.45694 0.58433 0.0
Tb166 Tb 0.10016 0.55215 0.85515 0.0
O167 O 0.07753 0.64462 0.51962 0.0
O168 O 0.10332 0.57032 0.61611 0.0
O169 O 1.01129 0.49162 0.5644 0.0
C170 C 0.20804 0.55471 0.01855 0.0
O171 O 0.10816 0.47581 0.67441 0.0
C172 C 0.97468 0.52043 -0.05722 0.0
C173 C 1.03706 0.68163 0.91929 0.0
O174 O 0.1602 0.51319 0.0149 0.0
O175 O 0.19525 0.59322 0.92179 0.0
O176 O 1.02501 0.49244 -0.02539 0.0
O177 O 0.99795 0.56757 0.88373 0.0
O178 O 0.08592 0.64766 -0.057 0.0
O179 O 0.99089 0.66234 0.82361 0.0
C180 C 0.89327 0.58209 0.48112 0.0
O181 O 0.9404 0.62438 0.48394 0.0
O182 O 0.90646 0.54465 0.58013 0.0
C183 C 0.12734 0.61637 0.55351 0.0
loop_
_geom_bond_atom_site_label_1
_geom_bond_atom_site_label_2
_geom_bond_distance
_geom_bond_site_symmetry_2
_ccdc_geom_bond_type
H0 C7 0.929 . S
H1 C10 0.930 . S
H2 C12 0.929 . S
H3 C4 0.969 . S
C4 H3 0.969 . S
C4 O5 1.550 1_556 S
C4 H6 0.973 . S
O5 C4 1.550 1_554 S
O5 C11 1.412 . S
H6 C4 0.973 . S
C7 H0 0.929 . S
C7 C8 1.400 . S
C7 C9 1.364 1_554 S
C8 C7 1.400 . S
C8 C12 1.377 . S
C9 C7 1.364 1_556 S
C9 C10 1.374 . S
C10 H1 0.930 . S
C10 C9 1.374 . S
C10 C11 1.383 1_556 S
C11 O5 1.412 . S
C11 C10 1.383 1_554 S
C11 C12 1.394 . S
C12 H2 0.929 . S
C12 C8 1.377 . S
C12 C11 1.394 . S
H13 C20 0.929 . S
H14 C23 0.930 . S
H15 C25 0.929 . S
H16 C17 0.969 1_455 S
C17 H16 0.969 1_655 S
C17 O18 1.550 1_556 S
C17 H19 0.973 . S
O18 C17 1.550 1_554 S
O18 C24 1.412 . S
H19 C17 0.973 . S
C20 H13 0.929 . S
C20 C21 1.400 . S
C20 C22 1.364 1_554 S
C21 C20 1.400 . S
C21 C25 1.377 . S
C22 C20 1.364 1_556 S
C22 C23 1.374 . S
C23 H14 0.930 . S
C23 C22 1.374 . S
C23 C24 1.383 1_556 S
C24 O18 1.412 . S
C24 C23 1.383 1_554 S
C24 C25 1.394 . S
C25 H15 0.929 . S
C25 C21 1.377 . S
C25 C24 1.394 . S
H26 C33 0.929 . S
H27 C36 0.930 1_556 S
H28 C38 0.929 . S
H29 C30 0.969 1_545 S
C30 H29 0.969 1_565 S
C30 O31 1.550 1_556 S
C30 H32 0.973 . S
O31 C30 1.550 1_554 S
O31 C37 1.412 . S
H32 C30 0.973 . S
C33 H26 0.929 . S
C33 C34 1.400 . S
C33 C35 1.364 . S
C34 C33 1.400 . S
C34 C38 1.377 . S
C35 C33 1.364 . S
C35 C36 1.374 . S
C36 H27 0.930 1_554 S
C36 C35 1.374 . S
C36 C37 1.383 . S
C37 O31 1.412 . S
C37 C36 1.383 . S
C37 C38 1.394 . S
C38 H28 0.929 . S
C38 C34 1.377 . S
C38 C37 1.394 . S
H39 C46 0.929 . S
H40 C49 0.930 . S
H41 C51 0.929 . S
H42 C43 0.969 . S
C43 H42 0.969 . S
C43 O44 1.550 1_556 S
C43 H45 0.973 . S
O44 C43 1.550 1_554 S
O44 C50 1.412 . S
H45 C43 0.973 . S
C46 H39 0.929 . S
C46 C47 1.400 . S
C46 C48 1.364 1_554 S
C47 C46 1.400 . S
C47 C51 1.377 . S
C48 C46 1.364 1_556 S
C48 C49 1.374 . S
C49 H40 0.930 . S
C49 C48 1.374 . S
C49 C50 1.383 1_556 S
C50 O44 1.412 . S
C50 C49 1.383 1_554 S
C50 C51 1.394 . S
C51 H41 0.929 . S
C51 C47 1.377 . S
C51 C50 1.394 . S
H52 C59 0.929 . S
H53 C62 0.930 . S
H54 C64 0.929 . S
H55 C56 0.969 . S
C56 H55 0.969 . S
C56 O57 1.550 . S
C56 H58 0.973 . S
O57 C56 1.550 . S
O57 C63 1.412 . S
H58 C56 0.973 . S
C59 H52 0.929 . S
C59 C60 1.400 . S
C59 C61 1.364 . S
C60 C59 1.400 . S
C60 C64 1.377 . S
C61 C59 1.364 . S
C61 C62 1.374 . S
C62 H53 0.930 . S
C62 C61 1.374 . S
C62 C63 1.383 . S
C63 O57 1.412 . S
C63 C62 1.383 . S
C63 C64 1.394 . S
C64 H54 0.929 . S
C64 C60 1.377 . S
C64 C63 1.394 . S
H65 C72 0.929 . S
H66 C75 0.930 . S
H67 C77 0.929 . S
H68 C69 0.969 . S
C69 H68 0.969 . S
C69 O70 1.550 . S
C69 H71 0.973 . S
O70 C69 1.550 . S
O70 C76 1.412 . S
H71 C69 0.973 . S
C72 H65 0.929 . S
C72 C73 1.400 . S
C72 C74 1.364 . S
C73 C72 1.400 . S
C73 C77 1.377 . S
C74 C72 1.364 . S
C74 C75 1.374 . S
C75 H66 0.930 . S
C75 C74 1.374 . S
C75 C76 1.383 . S
C76 O70 1.412 . S
C76 C75 1.383 . S
C76 C77 1.394 . S
C77 H67 0.929 . S
C77 C73 1.377 . S
C77 C76 1.394 . S
H78 C85 0.929 . S
H79 C88 0.930 . S
H80 C90 0.929 . S
H81 C82 0.969 . S
C82 H81 0.969 . S
C82 O83 1.550 . S
C82 H84 0.973 . S
O83 C82 1.550 . S
O83 C89 1.412 . S
H84 C82 0.973 . S
C85 H78 0.929 . S
C85 C86 1.400 . S
C85 C87 1.364 . S
C86 C85 1.400 . S
C86 C90 1.377 . S
C87 C85 1.364 . S
C87 C88 1.374 . S
C88 H79 0.930 . S
C88 C87 1.374 . S
C88 C89 1.383 . S
C89 O83 1.412 . S
C89 C88 1.383 . S
C89 C90 1.394 . S
C90 H80 0.929 . S
C90 C86 1.377 . S
C90 C89 1.394 . S
H91 C98 0.929 . S
H92 C101 0.930 . S
H93 C103 0.929 . S
H94 C95 0.969 . S
C95 H94 0.969 . S
C95 O96 1.550 . S
C95 H97 0.973 . S
O96 C95 1.550 . S
O96 C102 1.412 . S
H97 C95 0.973 . S
C98 H91 0.929 . S
C98 C99 1.400 . S
C98 C100 1.364 . S
C99 C98 1.400 . S
C99 C103 1.377 . S
C100 C98 1.364 . S
C100 C101 1.374 . S
C101 H92 0.930 . S
C101 C100 1.374 . S
C101 C102 1.383 . S
C102 O96 1.412 . S
C102 C101 1.383 . S
C102 C103 1.394 . S
C103 H93 0.929 . S
C103 C99 1.377 . S
C103 C102 1.394 . S
Tb104 O107 2.453 . S
Tb104 O108 2.596 1_655 S
Tb104 O109 2.374 1_655 S
Tb104 O117 2.343 1_545 S
Tb104 O119 2.353 . S
Tb104 O121 2.427 1_545 S
Tb104 O122 2.513 1_645 S
C105 O109 1.251 . S
C105 O111 1.263 . S
Tb106 O108 2.343 1_554 S
Tb106 O111 2.353 1_554 S
Tb106 O114 2.427 . S
Tb106 O115 2.513 1_455 S
Tb106 O116 2.453 1_545 S
Tb106 O117 2.596 1_444 S
Tb106 O118 2.374 1_455 S
O107 Tb104 2.453 . S
O107 C123 1.245 1_655 S
O108 Tb104 2.596 1_455 S
O108 Tb106 2.343 1_556 S
O108 C123 1.259 . S
O109 Tb104 2.374 1_455 S
O109 C105 1.251 . S
C110 O114 1.275 . S
C110 O115 1.246 1_455 S
O111 C105 1.263 . S
O111 Tb106 2.353 1_556 S
C112 O116 1.245 1_656 S
C112 O117 1.259 . S
C113 O118 1.250 1_556 S
C113 O119 1.263 . S
O114 Tb106 2.427 . S
O114 C110 1.275 . S
O115 Tb106 2.513 1_655 S
O115 C110 1.246 1_655 S
O116 Tb106 2.453 1_565 S
O116 C112 1.245 1_454 S
O117 Tb104 2.343 1_565 S
O117 Tb106 2.596 1_666 S
O117 C112 1.259 . S
O118 Tb106 2.374 1_655 S
O118 C113 1.250 1_554 S
O119 Tb104 2.353 . S
O119 C113 1.263 . S
C120 O121 1.275 . S
C120 O122 1.246 1_655 S
O121 Tb104 2.427 1_565 S
O121 C120 1.275 . S
O122 Tb104 2.513 1_465 S
O122 C120 1.246 1_455 S
C123 O107 1.245 1_455 S
C123 O108 1.259 . S
Tb124 O127 2.453 1_556 S
Tb124 O128 2.596 1_545 S
Tb124 O129 2.374 . S
Tb124 O137 2.343 . S
Tb124 O139 2.353 1_556 S
Tb124 O141 2.427 . S
Tb124 O142 2.513 . S
C125 O129 1.237 1_565 S
C125 O131 1.274 . S
Tb126 O128 2.343 . S
Tb126 O131 2.353 . S
Tb126 O134 2.427 . S
Tb126 O135 2.513 1_556 S
Tb126 O136 2.453 . S
Tb126 O137 2.596 1_565 S
Tb126 O138 2.374 1_556 S
O127 Tb124 2.453 1_554 S
O127 C143 1.245 1_554 S
O128 Tb124 2.596 1_565 S
O128 Tb126 2.343 . S
O128 C143 1.259 1_565 S
O129 Tb124 2.374 . S
O129 C125 1.237 1_545 S
C130 O134 1.275 . S
C130 O135 1.246 1_556 S
O131 C125 1.274 . S
O131 Tb126 2.353 . S
C132 O136 1.245 1_545 S
C132 O137 1.259 . S
C133 O138 1.250 1_545 S
C133 O139 1.263 . S
O134 Tb126 2.427 . S
O134 C130 1.275 . S
O135 Tb126 2.513 1_554 S
O135 C130 1.246 1_554 S
O136 Tb126 2.453 . S
O136 C132 1.245 1_565 S
O137 Tb124 2.343 . S
O137 Tb126 2.596 1_545 S
O137 C132 1.259 . S
O138 Tb126 2.374 1_554 S
O138 C133 1.250 1_565 S
O139 Tb124 2.353 1_554 S
O139 C133 1.263 . S
C140 O141 1.275 . S
C140 O142 1.246 . S
O141 Tb124 2.427 . S
O141 C140 1.275 . S
O142 Tb124 2.513 . S
O142 C140 1.246 . S
C143 O127 1.245 1_556 S
C143 O128 1.259 1_545 S
Tb144 O147 2.453 . S
Tb144 O148 2.596 . S
Tb144 O149 2.374 . S
Tb144 O157 2.343 . S
Tb144 O159 2.353 . S
Tb144 O161 2.427 . S
Tb144 O162 2.513 . S
C145 O149 1.251 . S
C145 O151 1.263 . S
Tb146 O148 2.343 1_554 S
Tb146 O151 2.353 1_554 S
Tb146 O154 2.427 . S
Tb146 O155 2.513 . S
Tb146 O156 2.453 . S
Tb146 O157 2.596 1_554 S
Tb146 O158 2.374 . S
O147 Tb144 2.453 . S
O147 C163 1.245 . S
O148 Tb144 2.596 . S
O148 Tb146 2.343 1_556 S
O148 C163 1.259 . S
O149 Tb144 2.374 . S
O149 C145 1.251 . S
C150 O154 1.275 . S
C150 O155 1.246 . S
O151 C145 1.263 . S
O151 Tb146 2.353 1_556 S
C152 O156 1.245 1_556 S
C152 O157 1.259 . S
C153 O158 1.250 1_556 S
C153 O159 1.263 . S
O154 Tb146 2.427 . S
O154 C150 1.275 . S
O155 Tb146 2.513 . S
O155 C150 1.246 . S
O156 Tb146 2.453 . S
O156 C152 1.245 1_554 S
O157 Tb144 2.343 . S
O157 Tb146 2.596 1_556 S
O157 C152 1.259 . S
O158 Tb146 2.374 . S
O158 C153 1.250 1_554 S
O159 Tb144 2.353 . S
O159 C153 1.263 . S
C160 O161 1.275 . S
C160 O162 1.246 . S
O161 Tb144 2.427 . S
O161 C160 1.275 . S
O162 Tb144 2.513 . S
O162 C160 1.246 . S
C163 O147 1.245 . S
C163 O148 1.259 . S
Tb164 O167 2.445 1_655 S
Tb164 O168 2.590 1_655 S
Tb164 O169 2.373 1_655 S
Tb164 O177 2.347 . S
Tb164 O179 2.353 1_655 S
Tb164 O181 2.433 . S
Tb164 O182 2.519 . S
C165 O169 1.251 . S
C165 O171 1.263 . S
Tb166 O168 2.343 1_554 S
Tb166 O171 2.353 1_554 S
Tb166 O174 2.427 . S
Tb166 O175 2.513 . S
Tb166 O176 2.453 1_455 S
Tb166 O177 2.596 1_454 S
Tb166 O178 2.374 . S
O167 Tb164 2.445 1_455 S
O167 C183 1.245 . S
O168 Tb164 2.590 1_455 S
O168 Tb166 2.343 1_556 S
O168 C183 1.259 . S
O169 Tb164 2.373 1_455 S
O169 C165 1.251 . S
C170 O174 1.275 . S
C170 O175 1.246 . S
O171 C165 1.263 . S
O171 Tb166 2.353 1_556 S
C172 O176 1.245 1_556 S
C172 O177 1.259 . S
C173 O178 1.250 1_656 S
C173 O179 1.263 1_655 S
O174 Tb166 2.427 . S
O174 C170 1.275 . S
O175 Tb166 2.513 . S
O175 C170 1.246 . S
O176 Tb166 2.453 1_655 S
O176 C172 1.245 1_554 S
O177 Tb164 2.347 . S
O177 Tb166 2.596 1_656 S
O177 C172 1.259 . S
O178 Tb166 2.374 . S
O178 C173 1.250 1_454 S
O179 Tb164 2.353 1_455 S
O179 C173 1.263 1_455 S
C180 O181 1.275 . S
C180 O182 1.246 . S
O181 Tb164 2.433 . S
O181 C180 1.275 . S
O182 Tb164 2.519 . S
O182 C180 1.246 . S
C183 O167 1.245 . S
C183 O168 1.259 . S
C82 C105 1.714 . S
C140 C95 1.866 . S
C145 C56 1.396 . S
C165 C69 1.931 . S
C113 C30 1.500 1_545 S
C43 C130 1.541 . S
C4 C153 1.213 . S
C17 C173 1.724 . S
C123 C74 1.662 . S
C132 C87 1.357 . S
C163 C100 1.782 . S
C61 C183 0.963 . S
C22 C112 1.650 . S
C143 C35 1.343 1_546 S
C152 C48 1.763 . S
C9 C172 0.955 . S
C73 C110 1.362 . S
C86 C133 1.668 . S
C150 C99 1.499 . S
C170 C60 1.511 . S
C21 C120 1.351 . S
C125 C34 1.657 . S
C160 C47 1.480 . S
C8 C180 1.506 . S
