# Generated by pormake.
# Topology ftw, (4,12)-cn, num edge types: 1
# Building blocks:
#     Node 0, Type 0, BuildingBlock: NAWXER_clean_linker_0, # of connection points: 4
#     Node 1, Type 0, BuildingBlock: NAWXER_clean_linker_0, # of connection points: 4
#     Node 2, Type 0, BuildingBlock: NAWXER_clean_linker_0, # of connection points: 4
#     Node 3, Type 1, BuildingBlock: QEWDON_clean_sbu_0, # of connection points: 12
#     Edge 4, Type (0, 1), None
#     Edge 5, Type (0, 1), None
#     Edge 6, Type (0, 1), None
#     Edge 7, Type (0, 1), None
#     Edge 8, Type (0, 1), None
#     Edge 9, Type (0, 1), None
#     Edge 10, Type (0, 1), None
#     Edge 11, Type (0, 1), None
#     Edge 12, Type (0, 1), None
#     Edge 13, Type (0, 1), None
#     Edge 14, Type (0, 1), None
#     Edge 15, Type (0, 1), None
# Relax obj value: 0.061
# Max RMSD: 0.148
# Mean RMSD: 0.119
data_MOF--net-ftw--node1-QEWDON_clean_sbu_0--node2-NAWXER_clean_linker_0--edge1-none
_symmetry_space_group_name_H-M    P1
_symmetry_Int_Tables_number       1
_symmetry_cell_setting            triclinic
loop_
_symmetry_equiv_pos_as_xyz
'x, y, z'
_cell_length_a     16.285043
_cell_length_b     17.926555
_cell_length_c     16.337539
_cell_angle_alpha  90.004447
_cell_angle_beta   89.772758
_cell_angle_gamma 88.774032
loop_
_atom_site_label
_atom_site_type_symbol
_atom_site_fract_x
_atom_site_fract_y
_atom_site_fract_z
_atom_type_partial_charge
C0 C 0.08519 0.66383 0.73256 0.0
C1 C 0.04615 0.73411 0.72499 0.0
C2 C 0.06951 0.60687 0.67692 0.0
C3 C 0.01443 0.6182 0.61187 0.0
C4 C -0.00857 0.7461 0.65942 0.0
C5 C 0.97522 0.6885 0.60369 0.0
C6 C -0.00565 0.55317 0.55942 0.0
C7 C 0.95629 0.69903 0.30608 0.0
C8 C 0.02907 0.73946 0.31025 0.0
C9 C 0.94247 0.6404 0.36101 0.0
C10 C 0.00017 0.62218 0.42217 0.0
C11 C 0.08558 0.72236 0.37303 0.0
C12 C 0.07136 0.66439 0.42825 0.0
C13 C -0.01044 0.55433 0.4729 0.0
C14 C 0.87036 0.25502 0.37258 0.0
C15 C 0.92746 0.23716 0.31015 0.0
C16 C 0.88467 0.31316 0.42762 0.0
C17 C 0.95623 0.35493 0.42117 0.0
C18 C 0.00046 0.27734 0.30564 0.0
C19 C 0.01417 0.33623 0.36005 0.0
C20 C 0.96782 0.42224 0.47235 0.0
C21 C 0.97561 0.22647 0.65294 0.0
C22 C 0.92583 0.23723 0.72287 0.0
C23 C -0.01119 0.28541 0.59801 0.0
C24 C 0.95114 0.3558 0.61122 0.0
C25 C 0.88876 0.30773 0.73584 0.0
C26 C 0.90119 0.36598 0.68084 0.0
C27 C 0.96783 0.42189 0.55897 0.0
H28 H 0.12794 0.65244 0.78185 0.0
H29 H 0.10032 0.55323 0.68525 0.0
H30 H 0.95997 0.79949 0.652 0.0
H31 H 0.93059 0.69843 0.55578 0.0
H32 H 0.91182 0.71049 0.25838 0.0
H33 H 0.88735 0.60814 0.35467 0.0
H34 H 0.14235 0.75242 0.37808 0.0
H35 H 0.11763 0.65068 0.47358 0.0
H36 H 0.81347 0.22511 0.37779 0.0
H37 H 0.8385 0.32715 0.47334 0.0
H38 H 0.04537 0.26532 0.2581 0.0
H39 H 0.0696 0.36811 0.35357 0.0
H40 H 0.0055 0.17293 0.64139 0.0
H41 H 0.03 0.27628 0.54665 0.0
H42 H 0.84972 0.31817 0.78862 0.0
H43 H 0.87176 0.41962 0.69319 0.0
N44 N -0.01786 0.4872 0.59821 0.0
N45 N 0.97762 0.4886 0.43315 0.0
C46 C 0.62327 0.0064 0.80974 0.0
C47 C 0.68962 0.95506 0.80245 0.0
C48 C 0.56784 0.01663 0.74482 0.0
C49 C 0.57662 0.97356 0.67326 0.0
C50 C 0.69901 0.91398 0.72984 0.0
C51 C 0.64305 0.92276 0.66656 0.0
C52 C 0.52352 -0.01673 0.60071 0.0
C53 C 0.33944 0.94968 0.81108 0.0
C54 C 0.26984 -0.00265 0.80508 0.0
C55 C 0.39464 0.94236 0.74505 0.0
C56 C 0.38265 -0.01486 0.6737 0.0
C57 C 0.25668 0.03736 0.7324 0.0
C58 C 0.31256 0.03186 0.66819 0.0
C59 C 0.43674 0.97991 0.60057 0.0
C60 C 0.26211 0.94382 0.31332 0.0
C61 C 0.25997 0.00927 0.26659 0.0
C62 C 0.32482 0.93172 0.37023 0.0
C63 C 0.38698 -0.01582 0.37984 0.0
C64 C 0.32474 0.05956 0.27282 0.0
C65 C 0.3882 0.04685 0.32864 0.0
C66 C 0.43811 0.98157 0.45397 0.0
C67 C 0.70337 0.02883 0.31669 0.0
C68 C 0.7024 0.9669 0.26453 0.0
C69 C 0.64071 0.03964 0.37457 0.0
C70 C 0.5757 -0.01059 0.37996 0.0
C71 C 0.63491 0.91933 0.26659 0.0
C72 C 0.57172 0.93073 0.3235 0.0
C73 C 0.52385 -0.01095 0.45424 0.0
H74 H 0.61454 0.03882 0.86511 0.0
H75 H 0.51879 0.05807 0.75041 0.0
H76 H 0.74886 0.87356 0.72217 0.0
H77 H 0.65186 0.88938 0.61177 0.0
H78 H 0.351 0.91804 0.86643 0.0
H79 H 0.44603 0.90334 0.74986 0.0
H80 H 0.20426 0.07509 0.72569 0.0
H81 H 0.30095 0.06503 0.61382 0.0
H82 H 0.21225 0.90516 0.31067 0.0
H83 H 0.3222 0.88354 0.41014 0.0
H84 H 0.32428 0.11049 0.23708 0.0
H85 H 0.4345 0.08879 0.33612 0.0
H86 H 0.75555 0.06508 0.31746 0.0
H87 H 0.64556 0.08466 0.41843 0.0
H88 H 0.6332 0.87093 0.22691 0.0
H89 H 0.52345 0.89023 0.32755 0.0
N90 N 0.56286 -0.01174 0.52741 0.0
N91 N 0.39831 0.97861 0.52691 0.0
C92 C 0.24237 0.31534 0.94522 0.0
C93 C 0.1931 0.31051 1.01592 0.0
C94 C 0.31185 0.35921 0.94516 0.0
C95 C 0.33218 0.39984 1.01507 0.0
C96 C 0.21014 0.35622 0.08347 0.0
C97 C 0.2791 0.40112 0.08273 0.0
C98 C 0.40984 0.43942 1.01807 0.0
C99 C 0.54834 0.2155 0.08669 0.0
C100 C 0.58656 0.18622 1.0159 0.0
C101 C 0.5036 0.2828 0.08264 0.0
C102 C 0.49626 0.32074 1.00792 0.0
C103 C 0.56588 0.21766 0.93944 0.0
C104 C 0.52242 0.2855 0.93572 0.0
C105 C 0.48624 0.40232 1.00902 0.0
C106 C 0.72872 0.62535 0.10512 0.0
C107 C 0.76939 0.64699 0.03304 0.0
C108 C 0.65947 0.5813 0.10085 0.0
C109 C 0.63104 0.55724 0.02484 0.0
C110 C 0.74408 0.61771 0.95749 0.0
C111 C 0.67528 0.5728 0.95354 0.0
C112 C 0.5536 0.5179 1.02007 0.0
C113 C 0.41926 0.74826 0.96969 0.0
C114 C 0.38302 0.77359 0.04328 0.0
C115 C 0.46138 0.67957 0.96721 0.0
C116 C 0.46821 0.63621 0.03826 0.0
C117 C 0.4025 0.73573 0.11641 0.0
C118 C 0.44369 0.66665 0.11362 0.0
C119 C 0.47744 0.55487 0.03041 0.0
H120 H 0.23097 0.28115 0.89197 0.0
H121 H 0.35132 0.35937 0.89161 0.0
H122 H 0.1731 0.35399 0.13862 0.0
H123 H 0.29353 0.43348 0.13662 0.0
H124 H 0.5615 0.19197 0.14641 0.0
H125 H 0.48358 0.30944 0.13904 0.0
H126 H 0.59242 0.1956 0.88331 0.0
H127 H 0.51699 0.3141 0.87749 0.0
H128 H 0.74657 0.6467 0.16432 0.0
H129 H 0.62622 0.5684 0.15649 0.0
H130 H 0.77425 0.63311 0.90094 0.0
H131 H 0.6542 0.55347 0.89456 0.0
H132 H 0.40658 0.77676 0.91248 0.0
H133 H 0.48009 0.65669 0.90846 0.0
H134 H 0.3766 0.75404 0.17439 0.0
H135 H 0.44869 0.63369 0.16905 0.0
N136 N 0.40793 0.51444 0.02883 0.0
N137 N 0.55567 0.44285 1.01028 0.0
Zn138 Zn 0.07834 0.10243 0.95023 0.0
Zn139 Zn 0.07118 0.13375 0.14587 0.0
O140 O 0.05564 0.05561 0.05982 0.0
H141 H 0.03583 0.00588 0.06849 0.0
C142 C 0.91114 0.17584 0.78201 0.0
O143 O 0.93202 0.10658 0.7639 0.0
Zn144 Zn 0.88781 0.83585 0.14436 0.0
Zn145 Zn 0.88156 0.84984 0.94669 0.0
O146 O 0.90136 0.90675 0.05072 0.0
H147 H 0.90691 0.96018 0.05297 0.0
Zn148 Zn 0.83207 0.11613 0.93957 0.0
O149 O 0.89028 0.11272 0.05034 0.0
Zn150 Zn 0.80563 0.09797 0.13889 0.0
H151 H 0.8688 0.11488 0.99538 0.0
Zn152 Zn 0.14837 0.84909 0.94211 0.0
O153 O 0.08083 0.86124 0.04761 0.0
H154 H 0.10678 0.85504 0.99474 0.0
Zn155 Zn 0.1591 0.87611 0.14144 0.0
C156 C 0.0631 0.79373 0.78568 0.0
O157 O 0.03593 0.86243 0.77405 0.0
O158 O 0.12422 0.2069 0.96245 0.0
O159 O 0.11672 0.22712 0.09651 0.0
O160 O 0.83888 0.74519 0.96855 0.0
O161 O 0.84234 0.73917 0.10435 0.0
O162 O 0.70839 0.1347 0.95925 0.0
O163 O 0.69345 0.12957 0.09473 0.0
C164 C 0.18678 0.0306 0.21891 0.0
O165 O 0.26864 0.82352 0.97273 0.0
O166 O 0.27359 0.84115 0.10761 0.0
O167 O 0.81192 0.90122 0.85706 0.0
C168 C 0.13679 0.24772 0.02463 0.0
O169 O 0.1453 0.04458 0.86234 0.0
C170 C 0.77562 0.94439 0.21691 0.0
O171 O 0.87415 0.18995 0.84929 0.0
C172 C 0.82472 0.71098 0.03517 0.0
O173 O 0.10619 0.77849 0.8487 0.0
C174 C 0.90674 0.18147 0.24657 0.0
O175 O 0.15971 0.09752 0.2226 0.0
O176 O 0.14994 -0.01523 0.17331 0.0
C177 C 0.66404 0.14187 0.02337 0.0
O178 O 0.8005 0.87683 0.22027 0.0
O179 O 0.81389 -0.01062 0.1712 0.0
C180 C 0.05123 0.79412 0.2459 0.0
O181 O 0.8323 0.16425 0.23573 0.0
O182 O 0.95993 0.15327 0.19774 0.0
C183 C 0.30764 0.82111 0.04027 0.0
O184 O 0.12588 0.81138 0.23697 0.0
O185 O -0.00012 0.82145 0.19502 0.0
C186 C 0.74692 0.93996 0.87068 0.0
O187 O 0.72571 0.95623 0.94637 0.0
C188 C 0.21375 0.01109 0.87509 0.0
O189 O 0.24017 0.00256 0.95045 0.0
loop_
_geom_bond_atom_site_label_1
_geom_bond_atom_site_label_2
_geom_bond_distance
_geom_bond_site_symmetry_2
_ccdc_geom_bond_type
C0 C1 1.384 1_455 S
C0 C2 1.384 . S
C0 H28 0.931 . S
C1 C0 1.384 1_655 S
C1 C4 1.382 . S
C2 C0 1.384 . S
C2 C3 1.381 1_455 S
C2 H29 0.930 . S
C3 C2 1.381 1_655 S
C3 C5 1.381 . S
C3 C6 1.487 . S
C4 C1 1.382 . S
C4 C5 1.387 . S
C4 H30 0.930 . S
C5 C3 1.381 . S
C5 C4 1.387 . S
C5 H31 0.931 . S
C6 C3 1.487 . S
C6 C13 1.399 1_655 S
C6 N44 1.343 . S
C7 C8 1.384 1_655 S
C7 C9 1.384 . S
C7 H32 0.931 . S
C8 C7 1.384 1_455 S
C8 C11 1.382 . S
C9 C7 1.384 . S
C9 C10 1.381 1_655 S
C9 H33 0.930 . S
C10 C9 1.381 1_455 S
C10 C12 1.381 . S
C10 C13 1.487 . S
C11 C8 1.382 . S
C11 C12 1.387 . S
C11 H34 0.930 . S
C12 C10 1.381 . S
C12 C11 1.387 . S
C12 H35 0.931 . S
C13 C6 1.399 1_455 S
C13 C10 1.487 . S
C13 N45 1.343 . S
C14 C15 1.384 1_655 S
C14 C16 1.384 . S
C14 H36 0.931 . S
C15 C14 1.384 1_455 S
C15 C18 1.382 . S
C16 C14 1.384 . S
C16 C17 1.381 1_655 S
C16 H37 0.930 . S
C17 C16 1.381 1_455 S
C17 C19 1.381 . S
C17 C20 1.487 . S
C18 C15 1.382 . S
C18 C19 1.387 . S
C18 H38 0.930 . S
C19 C17 1.381 . S
C19 C18 1.387 . S
C19 H39 0.931 . S
C20 C17 1.487 . S
C20 C27 1.399 1_455 S
C20 N45 1.343 . S
C21 C22 1.384 1_455 S
C21 C23 1.384 . S
C21 H40 0.931 . S
C22 C21 1.384 1_655 S
C22 C25 1.382 . S
C23 C21 1.384 . S
C23 C24 1.381 1_455 S
C23 H41 0.930 . S
C24 C23 1.381 1_655 S
C24 C26 1.381 . S
C24 C27 1.487 . S
C25 C22 1.382 . S
C25 C26 1.387 . S
C25 H42 0.930 . S
C26 C24 1.381 . S
C26 C25 1.387 . S
C26 H43 0.931 . S
C27 C20 1.399 1_655 S
C27 C24 1.487 . S
C27 N44 1.343 . S
H28 C0 0.931 . S
H29 C2 0.930 . S
H30 C4 0.930 . S
H31 C5 0.931 . S
H32 C7 0.931 . S
H33 C9 0.930 . S
H34 C11 0.930 . S
H35 C12 0.931 . S
H36 C14 0.931 . S
H37 C16 0.930 . S
H38 C18 0.930 . S
H39 C19 0.931 . S
H40 C21 0.931 . S
H41 C23 0.930 . S
H42 C25 0.930 . S
H43 C26 0.931 . S
N44 C6 1.343 . S
N44 C27 1.343 . S
N45 C13 1.343 . S
N45 C20 1.343 . S
C46 C47 1.384 1_545 S
C46 C48 1.384 . S
C46 H74 0.931 . S
C47 C46 1.384 1_565 S
C47 C50 1.382 . S
C48 C46 1.384 . S
C48 C49 1.381 1_545 S
C48 H75 0.930 . S
C49 C48 1.381 1_565 S
C49 C51 1.381 . S
C49 C52 1.487 . S
C50 C47 1.382 . S
C50 C51 1.387 . S
C50 H76 0.930 . S
C51 C49 1.381 . S
C51 C50 1.387 . S
C51 H77 0.931 . S
C52 C49 1.487 . S
C52 C59 1.399 1_565 S
C52 N90 1.343 . S
C53 C54 1.384 1_565 S
C53 C55 1.384 . S
C53 H78 0.931 . S
C54 C53 1.384 1_545 S
C54 C57 1.382 . S
C55 C53 1.384 . S
C55 C56 1.381 1_565 S
C55 H79 0.930 . S
C56 C55 1.381 1_545 S
C56 C58 1.381 . S
C56 C59 1.487 . S
C57 C54 1.382 . S
C57 C58 1.387 . S
C57 H80 0.930 . S
C58 C56 1.381 . S
C58 C57 1.387 . S
C58 H81 0.931 . S
C59 C52 1.399 1_545 S
C59 C56 1.487 . S
C59 N91 1.343 . S
C60 C61 1.384 1_565 S
C60 C62 1.384 . S
C60 H82 0.931 . S
C61 C60 1.384 1_545 S
C61 C64 1.382 . S
C62 C60 1.384 . S
C62 C63 1.381 1_565 S
C62 H83 0.930 . S
C63 C62 1.381 1_545 S
C63 C65 1.381 . S
C63 C66 1.487 . S
C64 C61 1.382 . S
C64 C65 1.387 . S
C64 H84 0.930 . S
C65 C63 1.381 . S
C65 C64 1.387 . S
C65 H85 0.931 . S
C66 C63 1.487 . S
C66 C73 1.399 1_545 S
C66 N91 1.343 . S
C67 C68 1.384 1_545 S
C67 C69 1.384 . S
C67 H86 0.931 . S
C68 C67 1.384 1_565 S
C68 C71 1.382 . S
C69 C67 1.384 . S
C69 C70 1.381 1_545 S
C69 H87 0.930 . S
C70 C69 1.381 1_565 S
C70 C72 1.381 . S
C70 C73 1.487 . S
C71 C68 1.382 . S
C71 C72 1.387 . S
C71 H88 0.930 . S
C72 C70 1.381 . S
C72 C71 1.387 . S
C72 H89 0.931 . S
C73 C66 1.399 1_565 S
C73 C70 1.487 . S
C73 N90 1.343 . S
H74 C46 0.931 . S
H75 C48 0.930 . S
H76 C50 0.930 . S
H77 C51 0.931 . S
H78 C53 0.931 . S
H79 C55 0.930 . S
H80 C57 0.930 . S
H81 C58 0.931 . S
H82 C60 0.931 . S
H83 C62 0.930 . S
H84 C64 0.930 . S
H85 C65 0.931 . S
H86 C67 0.931 . S
H87 C69 0.930 . S
H88 C71 0.930 . S
H89 C72 0.931 . S
N90 C52 1.343 . S
N90 C73 1.343 . S
N91 C59 1.343 . S
N91 C66 1.343 . S
C92 C93 1.384 1_556 S
C92 C94 1.384 . S
C92 H120 0.931 . S
C93 C92 1.384 1_554 S
C93 C96 1.382 . S
C94 C92 1.384 . S
C94 C95 1.381 1_556 S
C94 H121 0.930 . S
C95 C94 1.381 1_554 S
C95 C97 1.381 . S
C95 C98 1.487 . S
C96 C93 1.382 . S
C96 C97 1.387 . S
C96 H122 0.930 . S
C97 C95 1.381 . S
C97 C96 1.387 . S
C97 H123 0.931 . S
C98 C95 1.487 . S
C98 C105 1.399 . S
C98 N136 1.343 . S
C99 C100 1.384 . S
C99 C101 1.384 . S
C99 H124 0.931 . S
C100 C99 1.384 . S
C100 C103 1.382 1_554 S
C101 C99 1.384 . S
C101 C102 1.381 . S
C101 H125 0.930 . S
C102 C101 1.381 . S
C102 C104 1.381 1_554 S
C102 C105 1.487 . S
C103 C100 1.382 1_556 S
C103 C104 1.387 . S
C103 H126 0.930 . S
C104 C102 1.381 1_556 S
C104 C103 1.387 . S
C104 H127 0.931 . S
C105 C98 1.399 . S
C105 C102 1.487 . S
C105 N137 1.343 1_554 S
C106 C107 1.384 . S
C106 C108 1.384 . S
C106 H128 0.931 . S
C107 C106 1.384 . S
C107 C110 1.382 1_554 S
C108 C106 1.384 . S
C108 C109 1.381 . S
C108 H129 0.930 . S
C109 C108 1.381 . S
C109 C111 1.381 1_554 S
C109 C112 1.487 . S
C110 C107 1.382 1_556 S
C110 C111 1.387 . S
C110 H130 0.930 . S
C111 C109 1.381 1_556 S
C111 C110 1.387 . S
C111 H131 0.931 . S
C112 C109 1.487 . S
C112 C119 1.399 . S
C112 N137 1.343 1_554 S
C113 C114 1.384 1_556 S
C113 C115 1.384 . S
C113 H132 0.931 . S
C114 C113 1.384 1_554 S
C114 C117 1.382 . S
C115 C113 1.384 . S
C115 C116 1.381 1_556 S
C115 H133 0.930 . S
C116 C115 1.381 1_554 S
C116 C118 1.381 . S
C116 C119 1.487 . S
C117 C114 1.382 . S
C117 C118 1.387 . S
C117 H134 0.930 . S
C118 C116 1.381 . S
C118 C117 1.387 . S
C118 H135 0.931 . S
C119 C112 1.399 . S
C119 C116 1.487 . S
C119 N136 1.343 . S
H120 C92 0.931 . S
H121 C94 0.930 . S
H122 C96 0.930 . S
H123 C97 0.931 . S
H124 C99 0.931 . S
H125 C101 0.930 . S
H126 C103 0.930 . S
H127 C104 0.931 . S
H128 C106 0.931 . S
H129 C108 0.930 . S
H130 C110 0.930 . S
H131 C111 0.931 . S
H132 C113 0.931 . S
H133 C115 0.930 . S
H134 C117 0.930 . S
H135 C118 0.931 . S
N136 C98 1.343 . S
N136 C119 1.343 . S
N137 C105 1.343 1_556 S
N137 C112 1.343 1_556 S
Zn138 O140 1.933 1_556 S
Zn138 O158 1.985 . S
Zn138 O169 1.955 . S
Zn139 O140 1.911 . S
Zn139 O159 1.970 . S
Zn139 O175 1.945 . S
Zn139 O182 1.981 . S
O140 Zn138 1.933 1_554 S
O140 Zn139 1.911 . S
O140 H141 0.840 1_554 S
H141 O140 0.840 1_556 S
C142 O143 1.246 . S
C142 O171 1.276 1_455 S
O143 C142 1.246 . S
Zn144 O146 1.911 . S
Zn144 O161 1.970 . S
Zn144 O178 1.945 . S
Zn144 O185 1.981 . S
Zn145 O146 1.933 1_556 S
Zn145 O160 1.985 . S
Zn145 O167 1.955 . S
O146 Zn144 1.911 . S
O146 Zn145 1.933 1_554 S
O146 H147 0.840 1_554 S
H147 O146 0.840 1_556 S
Zn148 O149 1.933 1_556 S
Zn148 O162 1.985 . S
Zn148 O171 1.955 . S
O149 Zn148 1.933 1_554 S
O149 Zn150 1.911 . S
O149 H151 0.840 1_554 S
Zn150 O149 1.911 . S
Zn150 O163 1.970 . S
Zn150 O179 1.981 . S
Zn150 O181 1.945 . S
H151 O149 0.840 1_556 S
Zn152 O153 1.933 1_556 S
Zn152 O165 1.985 . S
Zn152 O173 1.955 . S
O153 Zn152 1.933 1_554 S
O153 H154 0.840 1_554 S
O153 Zn155 1.911 . S
H154 O153 0.840 1_556 S
Zn155 O153 1.911 . S
Zn155 O166 1.970 . S
Zn155 O176 1.981 . S
Zn155 O184 1.945 . S
C156 O157 1.246 . S
C156 O173 1.276 1_655 S
O157 C156 1.246 . S
O158 Zn138 1.985 . S
O158 C168 1.245 1_556 S
O159 Zn139 1.970 . S
O159 C168 1.263 . S
O160 Zn145 1.985 . S
O160 C172 1.245 1_556 S
O161 Zn144 1.970 . S
O161 C172 1.263 . S
O162 Zn148 1.985 . S
O162 C177 1.245 1_556 S
O163 Zn150 1.970 . S
O163 C177 1.263 . S
C164 O175 1.264 . S
C164 O176 1.243 1_545 S
O165 Zn152 1.985 . S
O165 C183 1.245 1_556 S
O166 Zn155 1.970 . S
O166 C183 1.263 . S
O167 Zn145 1.955 . S
O167 C186 1.276 1_565 S
C168 O158 1.245 1_554 S
C168 O159 1.263 . S
O169 Zn138 1.955 . S
O169 C188 1.276 1_545 S
C170 O178 1.261 . S
C170 O179 1.245 1_565 S
O171 C142 1.276 1_655 S
O171 Zn148 1.955 . S
C172 O160 1.245 1_554 S
C172 O161 1.263 . S
O173 Zn152 1.955 . S
O173 C156 1.276 1_455 S
C174 O181 1.261 . S
C174 O182 1.245 1_655 S
O175 Zn139 1.945 . S
O175 C164 1.264 . S
O176 Zn155 1.981 . S
O176 C164 1.243 1_565 S
C177 O162 1.245 1_554 S
C177 O163 1.263 . S
O178 Zn144 1.945 . S
O178 C170 1.261 . S
O179 Zn150 1.981 . S
O179 C170 1.245 1_545 S
C180 O184 1.264 . S
C180 O185 1.243 1_455 S
O181 Zn150 1.945 . S
O181 C174 1.261 . S
O182 Zn139 1.981 . S
O182 C174 1.245 1_455 S
C183 O165 1.245 1_554 S
C183 O166 1.263 . S
O184 Zn155 1.945 . S
O184 C180 1.264 . S
O185 Zn144 1.981 . S
O185 C180 1.243 1_655 S
C186 O167 1.276 1_545 S
C186 O187 1.246 . S
O187 C186 1.246 . S
C188 O169 1.276 1_565 S
C188 O189 1.246 . S
O189 C188 1.246 . S
C174 C15 2.148 1_655 S
C170 C68 1.525 . S
C180 C8 2.149 . S
C164 C61 1.523 . S
C1 C156 2.249 . S
C188 C54 1.718 1_565 S
C22 C142 2.251 1_655 S
C47 C186 1.721 1_565 S
C93 C168 1.000 . S
C114 C183 0.735 . S
C177 C100 0.731 . S
C172 C107 1.001 . S
