# Generated by pormake.
# Topology pyr, (3,6)-cn, num edge types: 1
# Building blocks:
#     Node 0, Type 0, BuildingBlock: QEWDON_clean_linker_0, # of connection points: 3
#     Node 1, Type 0, BuildingBlock: QEWDON_clean_linker_0, # of connection points: 3
#     Node 2, Type 0, BuildingBlock: QEWDON_clean_linker_0, # of connection points: 3
#     Node 3, Type 0, BuildingBlock: QEWDON_clean_linker_0, # of connection points: 3
#     Node 4, Type 0, BuildingBlock: QEWDON_clean_linker_0, # of connection points: 3
#     Node 5, Type 0, BuildingBlock: QEWDON_clean_linker_0, # of connection points: 3
#     Node 6, Type 0, BuildingBlock: QEWDON_clean_linker_0, # of connection points: 3
#     Node 7, Type 0, BuildingBlock: QEWDON_clean_linker_0, # of connection points: 3
#     Node 8, Type 1, BuildingBlock: CIFDUS_clean_sbu_1, # of connection points: 6
#     Node 9, Type 1, BuildingBlock: CIFDUS_clean_sbu_1, # of connection points: 6
#     Node 10, Type 1, BuildingBlock: CIFDUS_clean_sbu_1, # of connection points: 6
#     Node 11, Type 1, BuildingBlock: CIFDUS_clean_sbu_1, # of connection points: 6
#     Edge 12, Type (0, 1), None
#     Edge 13, Type (0, 1), None
#     Edge 14, Type (0, 1), None
#     Edge 15, Type (0, 1), None
#     Edge 16, Type (0, 1), None
#     Edge 17, Type (0, 1), None
#     Edge 18, Type (0, 1), None
#     Edge 19, Type (0, 1), None
#     Edge 20, Type (0, 1), None
#     Edge 21, Type (0, 1), None
#     Edge 22, Type (0, 1), None
#     Edge 23, Type (0, 1), None
#     Edge 24, Type (0, 1), None
#     Edge 25, Type (0, 1), None
#     Edge 26, Type (0, 1), None
#     Edge 27, Type (0, 1), None
#     Edge 28, Type (0, 1), None
#     Edge 29, Type (0, 1), None
#     Edge 30, Type (0, 1), None
#     Edge 31, Type (0, 1), None
#     Edge 32, Type (0, 1), None
#     Edge 33, Type (0, 1), None
#     Edge 34, Type (0, 1), None
#     Edge 35, Type (0, 1), None
# Relax obj value: 0.155
# Max RMSD: 0.243
# Mean RMSD: 0.181
data_MOF--net-pry--node1-CIFDUS_clean_sbu_1--node2-QEWDON_clean_linker_0--edge1-none
_symmetry_space_group_name_H-M    P1
_symmetry_Int_Tables_number       1
_symmetry_cell_setting            triclinic
loop_
_symmetry_equiv_pos_as_xyz
'x, y, z'
_cell_length_a     16.73095
_cell_length_b     15.990421
_cell_length_c     16.502065
_cell_angle_alpha  87.656359
_cell_angle_beta   94.055262
_cell_angle_gamma 108.08323
loop_
_atom_site_label
_atom_site_type_symbol
_atom_site_fract_x
_atom_site_fract_y
_atom_site_fract_z
_atom_type_partial_charge
H0 H 0.30662 0.20546 0.10862 0.0
C1 C 0.27355 0.18517 0.16367 0.0
C2 C 0.30147 0.1286 0.21809 0.0
C3 C 0.21566 0.22723 0.18534 0.0
H4 H 0.27267 0.05228 0.33076 0.0
C5 C 0.25446 0.09741 0.28814 0.0
C6 C 0.18506 0.12785 0.30356 0.0
C7 C 0.17028 0.19572 0.25444 0.0
C8 C 0.21109 0.31024 0.14159 0.0
H9 H 0.12294 0.22381 0.27143 0.0
C10 C 0.14055 0.34155 0.14431 0.0
C11 C 0.14225 0.42399 0.10932 0.0
C12 C 0.28221 0.3638 0.10236 0.0
H13 H 0.33991 0.3469 0.10229 0.0
C14 C 0.28253 0.44334 0.06523 0.0
H15 H 0.08474 0.30327 0.17383 0.0
C16 C 0.21373 0.47354 0.06901 0.0
H17 H 0.21818 0.53781 1.0425 0.0
H18 H 0.33777 0.48336 1.03568 0.0
H19 H 0.37049 0.98722 0.8888 0.0
C20 C 0.41057 0.95794 0.85885 0.0
C21 C 0.48805 0.95666 0.89685 0.0
C22 C 0.38153 0.91289 0.78529 0.0
H23 H 0.59083 0.9005 0.88869 0.0
C24 C 0.53409 0.90882 0.85829 0.0
C25 C 0.50136 0.8589 0.78821 0.0
C26 C 0.42843 0.86754 0.74921 0.0
C27 C 0.29706 0.89991 0.7481 0.0
H28 H 0.4013 0.82838 0.69626 0.0
C29 C 0.28881 0.94852 0.67794 0.0
C30 C 0.21244 0.92804 0.63086 0.0
C31 C 0.23054 0.82582 0.7693 0.0
H32 H 0.23794 0.78477 0.82139 0.0
C33 C 0.15572 0.80171 0.72045 0.0
H34 H 0.34184 1.00428 0.66161 0.0
C35 C 0.14641 0.85251 0.65163 0.0
H36 H 0.0864 0.83508 0.61714 0.0
H37 H 0.10452 0.74424 0.7364 0.0
H38 H 0.79325 0.38849 0.83669 0.0
C39 C 0.75944 0.36626 0.89038 0.0
C40 C 0.78555 0.41463 0.96171 0.0
C41 C 0.67814 0.30683 0.88145 0.0
H42 H 0.75728 0.4214 0.08649 0.0
C43 C 0.73902 0.38488 1.03071 0.0
C44 C 0.66533 0.31108 1.0258 0.0
C45 C 0.63667 0.2709 0.95131 0.0
C46 C 0.62343 0.33176 0.81822 0.0
H47 H 0.57353 0.22464 0.94504 0.0
C48 C 0.61204 0.41394 0.82772 0.0
C49 C 0.54593 0.4353 0.78702 0.0
C50 C 0.56981 0.27183 0.76348 0.0
H51 H 0.57633 0.2071 0.75741 0.0
C52 C 0.50457 0.29462 0.71945 0.0
H53 H 0.65064 0.45909 0.87286 0.0
C54 C 0.49103 0.37517 0.73287 0.0
H55 H 0.43727 0.38969 0.70248 0.0
H56 H 0.46205 0.24824 0.67789 0.0
H57 H 0.9856 0.77784 0.47021 0.0
C58 C 0.93772 0.7666 0.51411 0.0
C59 C 0.92073 0.84035 0.54113 0.0
C60 C 0.87131 0.68853 0.51045 0.0
H61 H 0.83993 0.88774 0.60972 0.0
C62 C 0.85711 0.83025 0.59499 0.0
C63 C 0.79911 0.74669 0.60655 0.0
C64 C 0.81148 0.67453 0.56856 0.0
C65 C 0.84467 0.65228 0.42734 0.0
H66 H 0.76073 0.61438 0.56469 0.0
C67 C 0.90389 0.63606 0.38003 0.0
C68 C 0.88873 0.62466 0.29536 0.0
C69 C 0.76756 0.65461 0.38844 0.0
H70 H 0.72181 0.67184 0.4214 0.0
C71 C 0.75118 0.64144 0.30473 0.0
H72 H 0.96398 0.63614 0.40947 0.0
C73 C 0.812 0.62742 0.2578 0.0
H74 H 0.79865 0.61732 0.19311 0.0
H75 H 0.69189 0.64424 0.2759 0.0
H76 H 0.87264 0.86723 0.98539 0.0
C77 C 0.91104 0.90142 0.93681 0.0
C78 C 0.97127 0.8668 0.90876 0.0
C79 C 0.89514 0.97536 0.89683 0.0
H80 H 0.06272 0.884 0.81616 0.0
C81 C 1.01653 0.9098 0.83975 0.0
C82 C 0.99875 0.98123 0.79686 0.0
C83 C 0.94043 1.01474 0.82841 0.0
C84 C 0.82723 1.00968 0.92087 0.0
H85 H 0.93132 0.07335 0.79929 0.0
C86 C 0.80647 1.00997 1.00275 0.0
C87 C 0.74616 0.04982 1.02229 0.0
C88 C 0.78301 0.04466 0.85949 0.0
H89 H 0.79198 0.04002 0.7957 0.0
C90 C 0.7263 0.08654 0.87875 0.0
H91 H 0.83688 0.98025 0.05066 0.0
C92 C 0.70892 0.09007 0.95892 0.0
H93 H 0.66069 0.1189 0.96999 0.0
H94 H 0.69374 0.11428 0.83108 0.0
H95 H 0.88063 0.27321 0.54733 0.0
C96 C 0.82882 0.24753 0.50311 0.0
C97 C 0.83696 0.18743 0.44537 0.0
C98 C 0.75434 0.27447 0.50161 0.0
H99 H 0.77746 0.12228 0.33215 0.0
C100 C 0.77123 0.16081 0.38245 0.0
C101 C 0.69736 0.18505 0.38234 0.0
C102 C 0.68749 0.23432 0.44611 0.0
C103 C 0.74338 0.34501 0.55453 0.0
H104 H 0.62743 0.24618 0.44771 0.0
C105 C 0.68143 0.38917 0.5337 0.0
C106 C 0.66605 0.4484 0.58721 0.0
C107 C 0.79526 0.37057 0.62563 0.0
H108 H 0.8446 0.34211 0.64394 0.0
C109 C 0.78515 0.43496 0.67458 0.0
H110 H 0.64553 0.37955 0.47594 0.0
C111 C 0.71897 0.46986 0.65827 0.0
H112 H 0.71348 0.51957 0.69834 0.0
H113 H 0.83022 0.45943 0.72482 0.0
H114 H 0.43284 0.92674 0.32932 0.0
C115 C 0.3761 0.89425 0.29236 0.0
C116 C 0.38387 0.87678 0.21184 0.0
C117 C 0.30493 0.84399 0.3314 0.0
H118 H 0.32055 0.80813 0.1035 0.0
C119 C 0.31308 0.82655 0.16437 0.0
C120 C 0.23582 0.78982 0.19989 0.0
C121 C 0.23219 0.8008 0.28408 0.0
C122 C 0.32146 0.80168 0.40945 0.0
H123 H 0.17719 0.76202 0.31505 0.0
C124 C 0.38247 0.75768 0.41186 0.0
C125 C 0.40519 0.71857 0.48338 0.0
C126 C 0.27722 0.80031 0.47857 0.0
H127 H 0.22818 0.83148 0.47737 0.0
C128 C 0.29767 0.75914 0.55015 0.0
H129 H 0.4141 0.75583 0.35712 0.0
C130 C 0.36245 0.72028 0.55309 0.0
H131 H 0.37928 0.69313 0.60984 0.0
H132 H 0.26436 0.75854 0.60405 0.0
H133 H 0.20329 0.55198 0.74345 0.0
C134 C 0.19846 0.49202 0.71238 0.0
C135 C 0.26795 0.48731 0.67361 0.0
C136 C 0.13227 0.41464 0.72658 0.0
H137 H 0.31684 0.40368 0.60538 0.0
C138 C 0.26155 0.41102 0.63112 0.0
C139 C 0.1895 0.33737 0.63577 0.0
C140 C 0.12337 0.34067 0.68083 0.0
C141 C 0.08876 0.40492 0.8027 0.0
H142 H 0.07408 0.27984 0.69298 0.0
C143 C 0.12923 0.45765 0.86898 0.0
C144 C 0.07865 0.48151 0.92022 0.0
C145 C 1.00713 0.34635 0.81135 0.0
H146 H 0.9739 0.30139 0.76412 0.0
C147 C 0.96721 0.34743 0.88247 0.0
H148 H 0.19404 0.49921 0.8677 0.0
C149 C 1.00298 0.41556 0.93702 0.0
H150 H 0.96787 0.42004 0.98765 0.0
H151 H 0.90625 0.30021 0.89223 0.0
O152 O 0.96632 0.15633 0.5086 0.0
Mn153 Mn 0.05429 0.08232 0.54023 0.0
O154 O 0.90222 0.09416 0.38961 0.0
Mn155 Mn 0.95103 1.00538 0.38136 0.0
O156 O 0.11928 0.99143 0.56347 0.0
O157 O 0.1427 0.18571 0.59634 0.0
Mn158 Mn 0.1985 0.1241 0.6557 0.0
O159 O 1.00336 0.03939 0.65579 0.0
O160 O 0.24717 0.07218 0.58514 0.0
O161 O 0.12056 0.12329 0.43175 0.0
O162 O 0.05393 0.02985 0.33423 0.0
O163 O 0.25681 0.23444 0.68176 0.0
O164 O 0.12506 0.05116 0.73016 0.0
C165 C 0.92702 0.90723 0.47789 0.0
C166 C 0.9088 0.14697 0.44802 0.0
C167 C 0.19628 0.99678 0.57586 0.0
C168 C 0.19953 0.25107 0.63242 0.0
C169 C 0.0443 0.02498 0.72268 0.0
C170 C 0.12028 0.0863 0.36337 0.0
O171 O 0.97261 0.98621 0.48407 0.0
O172 O 0.89159 0.88859 0.40585 0.0
O173 O 0.49909 0.04018 1.02574 0.0
Mn174 Mn 0.54692 0.08262 0.14866 0.0
O175 O 0.54348 0.91961 1.01839 0.0
Mn176 Mn 0.57735 0.90056 0.12314 0.0
O177 O 0.60683 0.11195 0.26706 0.0
O178 O 0.57423 0.2131 0.12274 0.0
Mn179 Mn 0.55235 0.26666 0.2058 0.0
O180 O 0.42335 0.07986 0.18612 0.0
O181 O 0.62501 0.25392 0.29013 0.0
O182 O 0.66475 0.09112 0.11071 0.0
O183 O 0.69053 0.9642 0.13784 0.0
O184 O 0.5971 0.35464 0.13161 0.0
O185 O 0.43945 0.21911 0.22301 0.0
C186 C 0.46849 0.88438 0.18877 0.0
C187 C 0.51077 0.97576 0.98561 0.0
C188 C 0.63982 0.18214 0.30871 0.0
C189 C 0.60798 0.29109 0.09206 0.0
C190 C 0.394 0.13925 0.21403 0.0
C191 C 0.70996 0.04036 0.10352 0.0
O192 O 0.52615 0.95735 0.1787 0.0
O193 O 0.49024 0.8162 0.17279 0.0
O194 O 0.66503 0.69486 0.66198 0.0
Mn195 Mn 0.53561 0.62692 0.66063 0.0
O196 O 0.67991 0.7505 0.53511 0.0
Mn197 Mn 0.59757 0.658 0.48599 0.0
O198 O 0.41175 0.55374 0.65355 0.0
O199 O 0.54483 0.5865 0.77427 0.0
Mn200 Mn 0.46885 0.60944 0.83135 0.0
O201 O 0.51111 0.74156 0.70356 0.0
O202 O 0.36449 0.57757 0.77076 0.0
O203 O 0.56984 0.51961 0.62564 0.0
O204 O 0.61618 0.54723 0.50009 0.0
O205 O 0.48939 0.5108 0.87952 0.0
O206 O 0.52043 0.72878 0.8399 0.0
C207 C 0.4779 0.68394 0.48267 0.0
C208 C 0.71029 0.7416 0.60663 0.0
C209 C 0.35191 0.54663 0.6991 0.0
C210 C 0.52756 0.51292 0.81374 0.0
C211 C 0.52071 0.77569 0.7755 0.0
C212 C 0.60725 0.50172 0.56639 0.0
O213 O 0.51565 0.65944 0.54531 0.0
O214 O 0.51607 0.68516 0.41687 0.0
O215 O 0.90057 0.52764 1.02439 0.0
Mn216 Mn 1.01269 0.62666 0.05542 0.0
O217 O 0.87505 0.53547 0.89005 0.0
Mn218 Mn 0.97589 0.62184 0.86821 0.0
O219 O 0.12405 0.72346 0.09738 0.0
O220 O 0.96212 0.61946 0.17189 0.0
Mn221 Mn 0.04235 0.56701 0.20345 0.0
O222 O 0.07645 0.53344 0.07748 0.0
O223 O 0.1488 0.64644 0.20662 0.0
O224 O 0.9679 0.73734 1.00556 0.0
O225 O 0.9804 0.73531 0.86904 0.0
O226 O 1.00031 0.56681 0.29545 0.0
O227 O 0.03631 0.45269 0.18268 0.0
C228 C 0.07254 0.56955 0.89717 0.0
C229 C 0.85591 0.49916 0.95924 0.0
C230 C 0.16879 0.71554 0.16241 0.0
C231 C 0.95264 0.6031 0.25122 0.0
C232 C 0.07516 0.46487 0.11953 0.0
C233 C 0.97376 0.77505 0.93193 0.0
O234 O 0.05279 0.62057 0.9458 0.0
O235 O 0.04985 0.57891 0.82129 0.0
loop_
_geom_bond_atom_site_label_1
_geom_bond_atom_site_label_2
_geom_bond_distance
_geom_bond_site_symmetry_2
_ccdc_geom_bond_type
H0 C1 0.949 . S
C1 H0 0.949 . S
C1 C2 1.395 . S
C1 C3 1.391 . S
C2 C1 1.395 . S
C2 C5 1.390 . S
C3 C1 1.391 . S
C3 C7 1.387 . S
C3 C8 1.491 . S
H4 C5 0.950 . S
C5 C2 1.390 . S
C5 H4 0.950 . S
C5 C6 1.378 . S
C6 C5 1.378 . S
C6 C7 1.409 . S
C7 C3 1.387 . S
C7 C6 1.409 . S
C7 H9 0.951 . S
C8 C3 1.491 . S
C8 C10 1.382 . S
C8 C12 1.404 . S
H9 C7 0.951 . S
C10 C8 1.382 . S
C10 C11 1.390 . S
C10 H15 0.949 . S
C11 C10 1.390 . S
C11 C16 1.399 . S
C12 C8 1.404 . S
C12 H13 0.950 . S
C12 C14 1.375 . S
H13 C12 0.950 . S
C14 C12 1.375 . S
C14 C16 1.382 . S
C14 H18 0.950 . S
H15 C10 0.949 . S
C16 C11 1.399 . S
C16 C14 1.382 . S
C16 H17 0.952 . S
H17 C16 0.952 . S
H18 C14 0.950 . S
H19 C20 0.949 1_545 S
C20 H19 0.949 1_565 S
C20 C21 1.395 . S
C20 C22 1.391 . S
C21 C20 1.395 . S
C21 C24 1.390 . S
C22 C20 1.391 . S
C22 C26 1.387 . S
C22 C27 1.491 . S
H23 C24 0.950 . S
C24 C21 1.390 . S
C24 H23 0.950 . S
C24 C25 1.378 . S
C25 C24 1.378 . S
C25 C26 1.409 . S
C26 C22 1.387 . S
C26 C25 1.409 . S
C26 H28 0.951 . S
C27 C22 1.491 . S
C27 C29 1.382 . S
C27 C31 1.404 . S
H28 C26 0.951 . S
C29 C27 1.382 . S
C29 C30 1.390 . S
C29 H34 0.949 1_565 S
C30 C29 1.390 . S
C30 C35 1.399 . S
C31 C27 1.404 . S
C31 H32 0.950 . S
C31 C33 1.375 . S
H32 C31 0.950 . S
C33 C31 1.375 . S
C33 C35 1.382 . S
C33 H37 0.950 . S
H34 C29 0.949 1_545 S
C35 C30 1.399 . S
C35 C33 1.382 . S
C35 H36 0.952 . S
H36 C35 0.952 . S
H37 C33 0.950 . S
H38 C39 0.949 . S
C39 H38 0.949 . S
C39 C40 1.395 1_556 S
C39 C41 1.391 . S
C40 C39 1.395 1_554 S
C40 C43 1.390 . S
C41 C39 1.391 . S
C41 C45 1.387 . S
C41 C46 1.491 . S
H42 C43 0.950 . S
C43 C40 1.390 . S
C43 H42 0.950 . S
C43 C44 1.378 . S
C44 C43 1.378 . S
C44 C45 1.409 1_554 S
C45 C41 1.387 . S
C45 C44 1.409 1_556 S
C45 H47 0.951 . S
C46 C41 1.491 . S
C46 C48 1.382 . S
C46 C50 1.404 . S
H47 C45 0.951 . S
C48 C46 1.382 . S
C48 C49 1.390 . S
C48 H53 0.949 . S
C49 C48 1.390 . S
C49 C54 1.399 . S
C50 C46 1.404 . S
C50 H51 0.950 . S
C50 C52 1.375 . S
H51 C50 0.950 . S
C52 C50 1.375 . S
C52 C54 1.382 . S
C52 H56 0.950 . S
H53 C48 0.949 . S
C54 C49 1.399 . S
C54 C52 1.382 . S
C54 H55 0.952 . S
H55 C54 0.952 . S
H56 C52 0.950 . S
H57 C58 0.949 . S
C58 H57 0.949 . S
C58 C59 1.395 . S
C58 C60 1.391 . S
C59 C58 1.395 . S
C59 C62 1.390 . S
C60 C58 1.391 . S
C60 C64 1.387 . S
C60 C65 1.491 . S
H61 C62 0.950 . S
C62 C59 1.390 . S
C62 H61 0.950 . S
C62 C63 1.378 . S
C63 C62 1.378 . S
C63 C64 1.409 . S
C64 C60 1.387 . S
C64 C63 1.409 . S
C64 H66 0.951 . S
C65 C60 1.491 . S
C65 C67 1.382 . S
C65 C69 1.404 . S
H66 C64 0.951 . S
C67 C65 1.382 . S
C67 C68 1.390 . S
C67 H72 0.949 . S
C68 C67 1.390 . S
C68 C73 1.399 . S
C69 C65 1.404 . S
C69 H70 0.950 . S
C69 C71 1.375 . S
H70 C69 0.950 . S
C71 C69 1.375 . S
C71 C73 1.382 . S
C71 H75 0.950 . S
H72 C67 0.949 . S
C73 C68 1.399 . S
C73 C71 1.382 . S
C73 H74 0.952 . S
H74 C73 0.952 . S
H75 C71 0.950 . S
H76 C77 0.949 . S
C77 H76 0.949 . S
C77 C78 1.395 . S
C77 C79 1.391 . S
C78 C77 1.395 . S
C78 C81 1.390 1_655 S
C79 C77 1.391 . S
C79 C83 1.387 . S
C79 C84 1.491 . S
H80 C81 0.950 . S
C81 C78 1.390 1_455 S
C81 H80 0.950 . S
C81 C82 1.378 1_455 S
C82 C81 1.378 1_655 S
C82 C83 1.409 . S
C83 C79 1.387 . S
C83 C82 1.409 . S
C83 H85 0.951 1_565 S
C84 C79 1.491 . S
C84 C86 1.382 . S
C84 C88 1.404 . S
H85 C83 0.951 1_545 S
C86 C84 1.382 . S
C86 C87 1.390 1_565 S
C86 H91 0.949 1_556 S
C87 C86 1.390 1_545 S
C87 C92 1.399 . S
C88 C84 1.404 . S
C88 H89 0.950 . S
C88 C90 1.375 . S
H89 C88 0.950 . S
C90 C88 1.375 . S
C90 C92 1.382 1_565 S
C90 H94 0.950 . S
H91 C86 0.949 1_554 S
C92 C87 1.399 . S
C92 C90 1.382 1_545 S
C92 H93 0.952 . S
H93 C92 0.952 . S
H94 C90 0.950 . S
H95 C96 0.949 . S
C96 H95 0.949 . S
C96 C97 1.395 . S
C96 C98 1.391 . S
C97 C96 1.395 . S
C97 C100 1.390 . S
C98 C96 1.391 . S
C98 C102 1.387 . S
C98 C103 1.491 . S
H99 C100 0.950 . S
C100 C97 1.390 . S
C100 H99 0.950 . S
C100 C101 1.378 . S
C101 C100 1.378 . S
C101 C102 1.409 . S
C102 C98 1.387 . S
C102 C101 1.409 . S
C102 H104 0.951 . S
C103 C98 1.491 . S
C103 C105 1.382 . S
C103 C107 1.404 . S
H104 C102 0.951 . S
C105 C103 1.382 . S
C105 C106 1.390 . S
C105 H110 0.949 . S
C106 C105 1.390 . S
C106 C111 1.399 . S
C107 C103 1.404 . S
C107 H108 0.950 . S
C107 C109 1.375 . S
H108 C107 0.950 . S
C109 C107 1.375 . S
C109 C111 1.382 . S
C109 H113 0.950 . S
H110 C105 0.949 . S
C111 C106 1.399 . S
C111 C109 1.382 . S
C111 H112 0.952 . S
H112 C111 0.952 . S
H113 C109 0.950 . S
H114 C115 0.949 . S
C115 H114 0.949 . S
C115 C116 1.395 . S
C115 C117 1.391 . S
C116 C115 1.395 . S
C116 C119 1.390 . S
C117 C115 1.391 . S
C117 C121 1.387 . S
C117 C122 1.491 . S
H118 C119 0.950 . S
C119 C116 1.390 . S
C119 H118 0.950 . S
C119 C120 1.378 . S
C120 C119 1.378 . S
C120 C121 1.409 . S
C121 C117 1.387 . S
C121 C120 1.409 . S
C121 H123 0.951 . S
C122 C117 1.491 . S
C122 C124 1.382 . S
C122 C126 1.404 . S
H123 C121 0.951 . S
C124 C122 1.382 . S
C124 C125 1.390 . S
C124 H129 0.949 . S
C125 C124 1.390 . S
C125 C130 1.399 . S
C126 C122 1.404 . S
C126 H127 0.950 . S
C126 C128 1.375 . S
H127 C126 0.950 . S
C128 C126 1.375 . S
C128 C130 1.382 . S
C128 H132 0.950 . S
H129 C124 0.949 . S
C130 C125 1.399 . S
C130 C128 1.382 . S
C130 H131 0.952 . S
H131 C130 0.952 . S
H132 C128 0.950 . S
H133 C134 0.949 . S
C134 H133 0.949 . S
C134 C135 1.395 . S
C134 C136 1.391 . S
C135 C134 1.395 . S
C135 C138 1.390 . S
C136 C134 1.391 . S
C136 C140 1.387 . S
C136 C141 1.491 . S
H137 C138 0.950 . S
C138 C135 1.390 . S
C138 H137 0.950 . S
C138 C139 1.378 . S
C139 C138 1.378 . S
C139 C140 1.409 . S
C140 C136 1.387 . S
C140 C139 1.409 . S
C140 H142 0.951 . S
C141 C136 1.491 . S
C141 C143 1.382 . S
C141 C145 1.404 . S
H142 C140 0.951 . S
C143 C141 1.382 . S
C143 C144 1.390 . S
C143 H148 0.949 . S
C144 C143 1.390 . S
C144 C149 1.399 . S
C145 C141 1.404 . S
C145 H146 0.950 . S
C145 C147 1.375 . S
H146 C145 0.950 . S
C147 C145 1.375 . S
C147 C149 1.382 . S
C147 H151 0.948 1_455 S
H148 C143 0.949 . S
C149 C144 1.399 . S
C149 C147 1.382 . S
C149 H150 0.952 1_455 S
H150 C149 0.952 1_655 S
H151 C147 0.948 1_655 S
O152 Mn153 2.163 1_655 S
O152 C166 1.244 . S
Mn153 O152 2.163 1_455 S
Mn153 O156 2.160 . S
Mn153 O157 2.221 . S
Mn153 O159 2.163 1_445 S
Mn153 O161 2.160 . S
Mn153 O171 2.221 1_445 S
O154 Mn155 2.087 1_545 S
O154 C166 1.256 . S
Mn155 O154 2.087 1_565 S
Mn155 O162 2.089 1_565 S
Mn155 O171 2.290 . S
Mn155 O172 2.251 . S
O156 Mn153 2.160 . S
O156 C167 1.239 . S
O157 Mn153 2.221 . S
O157 Mn158 2.290 . S
O157 C168 1.278 . S
Mn158 O157 2.290 . S
Mn158 O160 2.089 . S
Mn158 O163 2.251 . S
Mn158 O164 2.087 . S
O159 Mn153 2.163 1_665 S
O159 C169 1.244 . S
O160 Mn158 2.089 . S
O160 C167 1.256 . S
O161 Mn153 2.160 . S
O161 C170 1.239 . S
O162 Mn155 2.089 1_545 S
O162 C170 1.256 1_655 S
O163 Mn158 2.251 . S
O163 C168 1.241 . S
O164 Mn158 2.087 . S
O164 C169 1.256 1_445 S
C165 O171 1.278 . S
C165 O172 1.241 . S
C166 O152 1.244 . S
C166 O154 1.256 . S
C167 O156 1.239 . S
C167 O160 1.256 . S
C168 O157 1.278 . S
C168 O163 1.241 . S
C169 O159 1.244 . S
C169 O164 1.256 1_665 S
C170 O161 1.239 . S
C170 O162 1.256 1_455 S
O171 Mn153 2.221 1_665 S
O171 Mn155 2.290 . S
O171 C165 1.278 . S
O172 Mn155 2.251 . S
O172 C165 1.241 . S
O173 Mn174 2.163 1_556 S
O173 C187 1.244 1_545 S
Mn174 O173 2.163 1_554 S
Mn174 O177 2.160 . S
Mn174 O178 2.221 . S
Mn174 O180 2.163 . S
Mn174 O182 2.160 . S
Mn174 O192 2.221 1_545 S
O175 Mn176 2.086 1_556 S
O175 C187 1.256 . S
Mn176 O175 2.086 1_554 S
Mn176 O183 2.088 1_554 S
Mn176 O192 2.291 . S
Mn176 O193 2.252 . S
O177 Mn174 2.160 . S
O177 C188 1.239 . S
O178 Mn174 2.221 . S
O178 Mn179 2.290 . S
O178 C189 1.278 . S
Mn179 O178 2.290 . S
Mn179 O181 2.089 . S
Mn179 O184 2.251 . S
Mn179 O185 2.087 . S
O180 Mn174 2.163 . S
O180 C190 1.244 . S
O181 Mn179 2.089 . S
O181 C188 1.256 . S
O182 Mn174 2.160 . S
O182 C191 1.239 1_545 S
O183 Mn176 2.088 1_556 S
O183 C191 1.256 1_556 S
O184 Mn179 2.251 . S
O184 C189 1.241 . S
O185 Mn179 2.087 . S
O185 C190 1.256 . S
C186 O192 1.278 . S
C186 O193 1.241 . S
C187 O173 1.244 1_565 S
C187 O175 1.256 . S
C188 O177 1.239 . S
C188 O181 1.256 . S
C189 O178 1.278 . S
C189 O184 1.241 . S
C190 O180 1.244 . S
C190 O185 1.256 . S
C191 O182 1.239 1_565 S
C191 O183 1.256 1_554 S
O192 Mn174 2.221 1_565 S
O192 Mn176 2.291 . S
O192 C186 1.278 . S
O193 Mn176 2.252 . S
O193 C186 1.241 . S
O194 Mn195 2.163 . S
O194 C208 1.244 . S
Mn195 O194 2.163 . S
Mn195 O198 2.160 . S
Mn195 O199 2.221 . S
Mn195 O201 2.163 . S
Mn195 O203 2.160 . S
Mn195 O213 2.221 . S
O196 Mn197 2.087 . S
O196 C208 1.256 . S
Mn197 O196 2.087 . S
Mn197 O204 2.089 . S
Mn197 O213 2.290 . S
Mn197 O214 2.251 . S
O198 Mn195 2.160 . S
O198 C209 1.239 . S
O199 Mn195 2.221 . S
O199 Mn200 2.290 . S
O199 C210 1.278 . S
Mn200 O199 2.290 . S
Mn200 O202 2.089 . S
Mn200 O205 2.251 . S
Mn200 O206 2.087 . S
O201 Mn195 2.163 . S
O201 C211 1.244 . S
O202 Mn200 2.089 . S
O202 C209 1.256 . S
O203 Mn195 2.160 . S
O203 C212 1.239 . S
O204 Mn197 2.089 . S
O204 C212 1.256 . S
O205 Mn200 2.251 . S
O205 C210 1.241 . S
O206 Mn200 2.087 . S
O206 C211 1.256 . S
C207 O213 1.278 . S
C207 O214 1.241 . S
C208 O194 1.244 . S
C208 O196 1.256 . S
C209 O198 1.239 . S
C209 O202 1.256 . S
C210 O199 1.278 . S
C210 O205 1.241 . S
C211 O201 1.244 . S
C211 O206 1.256 . S
C212 O203 1.239 . S
C212 O204 1.256 . S
O213 Mn195 2.221 . S
O213 Mn197 2.290 . S
O213 C207 1.278 . S
O214 Mn197 2.251 . S
O214 C207 1.241 . S
O215 Mn216 2.163 1_655 S
O215 C229 1.244 1_554 S
Mn216 O215 2.163 1_455 S
Mn216 O219 2.160 . S
Mn216 O220 2.221 . S
Mn216 O222 2.163 . S
Mn216 O224 2.160 1_554 S
Mn216 O234 2.221 1_554 S
O217 Mn218 2.087 . S
O217 C229 1.256 . S
Mn218 O217 2.087 . S
Mn218 O225 2.089 . S
Mn218 O234 2.290 1_655 S
Mn218 O235 2.251 1_655 S
O219 Mn216 2.160 . S
O219 C230 1.239 . S
O220 Mn216 2.221 . S
O220 Mn221 2.290 . S
O220 C231 1.278 1_455 S
Mn221 O220 2.290 . S
Mn221 O223 2.089 . S
Mn221 O226 2.251 1_455 S
Mn221 O227 2.087 . S
O222 Mn216 2.163 . S
O222 C232 1.244 . S
O223 Mn221 2.089 . S
O223 C230 1.256 . S
O224 Mn216 2.160 1_556 S
O224 C233 1.239 1_455 S
O225 Mn218 2.089 . S
O225 C233 1.256 . S
O226 Mn221 2.251 1_655 S
O226 C231 1.241 . S
O227 Mn221 2.087 . S
O227 C232 1.256 . S
C228 O234 1.278 . S
C228 O235 1.241 . S
C229 O215 1.244 1_556 S
C229 O217 1.256 . S
C230 O219 1.239 . S
C230 O223 1.256 . S
C231 O220 1.278 1_655 S
C231 O226 1.241 . S
C232 O222 1.244 . S
C232 O227 1.256 . S
C233 O224 1.239 1_655 S
C233 O225 1.256 . S
O234 Mn216 2.221 1_556 S
O234 Mn218 2.290 1_455 S
O234 C228 1.278 . S
O235 Mn218 2.251 1_455 S
O235 C228 1.241 . S
C6 C170 2.260 . S
C21 C187 2.275 . S
C210 C49 0.988 . S
C68 C231 1.048 . S
C190 C2 2.573 . S
C167 C30 0.934 1_545 S
C229 C40 1.842 1_556 S
C208 C63 1.237 . S
C11 C232 1.445 . S
C189 C44 1.785 . S
C59 C165 1.571 . S
C25 C211 1.878 . S
C169 C82 2.232 . S
C101 C188 2.168 . S
C125 C207 1.011 . S
C144 C228 0.591 . S
C87 C191 1.099 1_546 S
C166 C97 2.543 . S
C230 C120 0.998 . S
C209 C135 2.058 . S
C78 C233 2.016 . S
C186 C116 0.636 . S
C168 C139 1.949 . S
C106 C212 1.677 . S
