# Generated by pormake.
# Topology csq, (4,8)-cn, num edge types: 1
# Building blocks:
#     Node 0, Type 0, BuildingBlock: GIZVER_clean_linker_0, # of connection points: 4
#     Node 1, Type 0, BuildingBlock: GIZVER_clean_linker_0, # of connection points: 4
#     Node 2, Type 0, BuildingBlock: GIZVER_clean_linker_0, # of connection points: 4
#     Node 3, Type 0, BuildingBlock: GIZVER_clean_linker_0, # of connection points: 4
#     Node 4, Type 0, BuildingBlock: GIZVER_clean_linker_0, # of connection points: 4
#     Node 5, Type 0, BuildingBlock: GIZVER_clean_linker_0, # of connection points: 4
#     Node 6, Type 1, BuildingBlock: TAGTUT_clean_sbu_1, # of connection points: 8
#     Node 7, Type 1, BuildingBlock: TAGTUT_clean_sbu_1, # of connection points: 8
#     Node 8, Type 1, BuildingBlock: TAGTUT_clean_sbu_1, # of connection points: 8
#     Edge 9, Type (0, 1), None
#     Edge 10, Type (0, 1), None
#     Edge 11, Type (0, 1), None
#     Edge 12, Type (0, 1), None
#     Edge 13, Type (0, 1), None
#     Edge 14, Type (0, 1), None
#     Edge 15, Type (0, 1), None
#     Edge 16, Type (0, 1), None
#     Edge 17, Type (0, 1), None
#     Edge 18, Type (0, 1), None
#     Edge 19, Type (0, 1), None
#     Edge 20, Type (0, 1), None
#     Edge 21, Type (0, 1), None
#     Edge 22, Type (0, 1), None
#     Edge 23, Type (0, 1), None
#     Edge 24, Type (0, 1), None
#     Edge 25, Type (0, 1), None
#     Edge 26, Type (0, 1), None
#     Edge 27, Type (0, 1), None
#     Edge 28, Type (0, 1), None
#     Edge 29, Type (0, 1), None
#     Edge 30, Type (0, 1), None
#     Edge 31, Type (0, 1), None
#     Edge 32, Type (0, 1), None
# Relax obj value: 0.058
# Max RMSD: 0.126
# Mean RMSD: 0.096
data_MOF--net-csq--node1-TAGTUT_clean_sbu_1--node2-GIZVER_clean_linker_0--edge1-none
_symmetry_space_group_name_H-M    P1
_symmetry_Int_Tables_number       1
_symmetry_cell_setting            triclinic
loop_
_symmetry_equiv_pos_as_xyz
'x, y, z'
_cell_length_a     26.307256
_cell_length_b     26.021258
_cell_length_c     10.021827
_cell_angle_alpha  94.870034
_cell_angle_beta   94.231649
_cell_angle_gamma 118.49666
loop_
_atom_site_label
_atom_site_type_symbol
_atom_site_fract_x
_atom_site_fract_y
_atom_site_fract_z
_atom_type_partial_charge
H0 H 0.224 0.47481 -0.00783 0.0
H1 H 0.21028 0.52 0.40476 0.0
H2 H 0.05871 0.39266 0.13362 0.0
H3 H 0.29791 0.57304 0.15431 0.0
H4 H 0.30498 0.56433 0.32807 0.0
H5 H 0.3156 0.50871 -0.02765 0.0
H6 H 0.41229 0.42773 0.11465 0.0
H7 H 0.36647 0.52614 0.39912 0.0
C8 C 0.19929 0.46509 0.0765 0.0
C9 C 0.13933 0.4283 0.04837 0.0
C10 C 0.22623 0.49503 0.2064 0.0
C11 C 0.19093 0.4909 0.30995 0.0
C12 C 0.12976 0.45497 0.28405 0.0
C13 C 0.10554 0.41967 0.15564 0.0
C14 C 0.29074 0.5398 0.22396 0.0
C15 C 0.32787 0.51131 0.19113 0.0
C16 C 0.33269 0.49493 0.0552 0.0
C17 C 0.3618 0.46264 0.02637 0.0
C18 C 0.38889 0.45108 0.13619 0.0
C19 C 0.39707 0.48002 0.26827 0.0
C20 C 0.36256 0.50586 0.29715 0.0
H21 H 0.87055 0.2572 0.92847 0.0
H22 H 0.86595 0.2541 0.35513 0.0
H23 H 0.94922 0.41856 0.19774 0.0
H24 H 0.82542 0.16536 0.00021 0.0
H25 H 0.84304 0.16172 0.17344 0.0
H26 H 0.72475 0.14094 0.91591 0.0
H27 H 0.60619 0.11848 0.20936 0.0
H28 H 0.78265 0.16528 0.34199 0.0
C29 C 0.87918 0.28029 0.02978 0.0
C30 C 0.91494 0.3415 0.05529 0.0
C31 C 0.85881 0.24803 0.13636 0.0
C32 C 0.87623 0.27849 0.26983 0.0
C33 C 0.90897 0.34093 0.29273 0.0
C34 C 0.92394 0.37144 0.18301 0.0
C35 C 0.82382 0.18142 0.10549 0.0
C36 C 0.76144 0.16051 0.12768 0.0
C37 C 0.71598 0.14347 0.0195 0.0
C38 C 0.65855 0.12568 0.04693 0.0
C39 C 0.64959 0.13049 0.18516 0.0
C40 C 0.6935 0.14222 0.29184 0.0
C41 C 0.74889 0.1569 0.26101 0.0
H42 H 0.63209 0.87661 0.80737 0.0
H43 H 0.65757 0.906 0.24074 0.0
H44 H 0.54198 0.95076 0.02166 0.0
H45 H 0.71027 0.86638 0.94532 0.0
H46 H 0.71754 0.87714 0.12556 0.0
H47 H 0.63078 0.77484 0.81582 0.0
H48 H 0.567 0.62047 0.01145 0.0
H49 H 0.67294 0.79058 0.24541 0.0
C50 C 0.62053 0.88929 0.90137 0.0
C51 C 0.58393 0.91534 0.89988 0.0
C52 C 0.64452 0.88259 0.02553 0.0
C53 C 0.6355 0.90654 0.14553 0.0
C54 C 0.60134 0.93442 0.14209 0.0
C55 C 0.57079 0.9324 0.02118 0.0
C56 C 0.68509 0.85664 0.03299 0.0
C57 C 0.65126 0.79065 0.03231 0.0
C58 C 0.62537 0.75491 0.90821 0.0
C59 C 0.59731 0.69351 0.90128 0.0
C60 C 0.59022 0.66765 0.01801 0.0
C61 C 0.62043 0.70122 0.1406 0.0
C62 C 0.64964 0.76358 0.14992 0.0
H63 H 0.76031 0.6098 0.82783 0.0
H64 H 0.83034 0.67019 0.25026 0.0
H65 H 0.65283 0.53664 0.13752 0.0
H66 H 0.86216 0.6735 0.87925 0.0
H67 H 0.89071 0.71347 0.0465 0.0
H68 H 0.90593 0.60991 0.80752 0.0
H69 H 0.93934 0.51816 0.11227 0.0
H70 H 0.90705 0.65971 0.23 0.0
C71 C 0.7555 0.60656 0.93375 0.0
C72 C 0.70032 0.5732 -0.02835 0.0
C73 C 0.80419 0.63806 0.0335 0.0
C74 C 0.79511 0.64036 0.17299 0.0
C75 C 0.74021 0.60254 0.21243 0.0
C76 C 0.69516 0.56601 0.10926 0.0
C77 C 0.86481 0.66854 -0.0117 0.0
C78 C 0.89596 0.63349 0.01506 0.0
C79 C 0.90977 0.60248 0.91155 0.0
C80 C 0.93051 0.56346 0.94665 0.0
C81 C 0.92919 0.55173 0.08352 0.0
C82 C 0.92268 0.58767 0.18693 0.0
C83 C 0.9097 0.63054 0.15083 0.0
H84 H 0.30026 0.78599 0.92924 0.0
H85 H 0.35772 0.82 0.35694 0.0
H86 H 0.3638 0.95809 0.14267 0.0
H87 H 0.31329 0.71189 0.07392 0.0
H88 H 0.30205 0.71841 0.24749 0.0
H89 H 0.23179 0.67963 0.89001 0.0
H90 H 0.063 0.64154 -0.0073 0.0
H91 H 0.20745 0.70547 0.3057 0.0
C92 C 0.31558 0.81591 0.02309 0.0
C93 C 0.33304 0.87535 0.01864 0.0
C94 C 0.31872 0.79474 0.14662 0.0
C95 C 0.34832 0.8353 0.26593 0.0
C96 C 0.36915 0.89601 0.26361 0.0
C97 C 0.35396 0.91332 0.14258 0.0
C98 C 0.293 0.72902 0.14621 0.0
C99 C 0.22794 0.69931 0.10269 0.0
C100 C 0.20413 0.6788 -0.03434 0.0
C101 C 0.14446 0.65812 0.92681 0.0
C102 C 0.1089 0.65728 0.02282 0.0
C103 C 0.13034 0.67001 0.15887 0.0
C104 C 0.19037 0.69407 0.19927 0.0
H105 H 0.53021 0.30549 0.00514 0.0
H106 H 0.54102 0.31696 0.44035 0.0
H107 H 0.47259 0.41013 0.23401 0.0
H108 H 0.57442 0.25412 0.13521 0.0
H109 H 0.594 0.27624 0.31362 0.0
H110 H 0.4776 0.17623 0.0455 0.0
H111 H 0.39411 0.03912 0.29026 0.0
H112 H 0.535 0.20783 0.47137 0.0
C113 C 0.52264 0.32181 0.10046 0.0
C114 C 0.50212 0.36357 0.10528 0.0
C115 C 0.53486 0.30297 0.22295 0.0
C116 C 0.52872 0.3278 0.34533 0.0
C117 C 0.50826 0.36783 0.34546 0.0
C118 C 0.4917 0.38208 0.2279 0.0
C119 C 0.55717 0.25942 0.2305 0.0
C120 C 0.50896 0.20024 0.25647 0.0
C121 C 0.47115 0.16218 0.14476 0.0
C122 C 0.43285 0.10347 0.15603 0.0
C123 C 0.42409 0.08477 0.28277 0.0
C124 C 0.46022 0.12187 0.39791 0.0
C125 C 0.50402 0.17983 0.38455 0.0
C126 C 0.95102 0.37303 0.95604 0.0
C127 C 0.11285 0.41949 0.90596 0.0
C128 C 0.11627 0.63125 0.78992 0.0
Mg129 Mg 1.00027 0.37349 0.71121 0.0
O130 O 1.01116 0.45037 0.7357 0.0
Mg131 Mg 0.06177 0.50235 0.89697 0.0
Mg132 Mg 0.0264 0.505 0.60683 0.0
O133 O 0.0425 0.56054 0.47839 0.0
Mg134 Mg 0.04662 0.63485 0.51891 0.0
Mg135 Mg 0.99056 0.50673 0.3182 0.0
C136 C 0.93785 0.37385 0.42771 0.0
C137 C 0.09011 0.47055 0.3573 0.0
O138 O 0.99897 0.4217 -0.00353 0.0
O139 O 0.93702 0.34735 0.8352 0.0
O140 O 0.12281 0.46638 0.85712 0.0
O141 O 0.06737 0.37133 0.85542 0.0
O142 O 0.95553 0.34747 0.50672 0.0
O143 O 0.95224 0.42933 0.45479 0.0
C144 C 0.96437 0.54218 0.86129 0.0
O145 O 0.96262 0.53595 0.73038 0.0
O146 O 0.9997 0.53251 0.93275 0.0
O147 O 0.04658 0.59129 0.21761 0.0
O148 O 0.10252 0.67028 0.37542 0.0
O149 O 0.92565 0.53464 0.36523 0.0
C150 C 0.08906 0.64433 0.25436 0.0
O151 O 0.96778 0.63045 0.41211 0.0
O152 O 0.09495 0.65818 0.72247 0.0
C153 C 0.93228 0.58321 0.33323 0.0
O154 O 0.10196 0.57676 0.75629 0.0
O155 O 0.09056 0.47741 0.48732 0.0
O156 O 0.05603 0.47986 0.27959 0.0
C157 C 0.42075 0.06105 0.0383 0.0
C158 C 0.34635 0.89922 0.88655 0.0
C159 C 0.57338 0.94032 0.78125 0.0
Mg160 Mg 0.39228 0.01504 0.75158 0.0
O161 O 0.46741 0.02187 0.78759 0.0
Mg162 Mg 0.47818 0.97509 0.91936 0.0
Mg163 Mg 0.51419 0.01512 0.65263 0.0
O164 O 0.55874 1.00876 0.51345 0.0
Mg165 Mg 0.63377 0.01773 0.55048 0.0
Mg166 Mg 0.54667 0.05688 0.38353 0.0
C167 C 0.46039 0.09385 0.52033 0.0
C168 C 0.42008 0.94269 0.36199 0.0
O169 O 0.44102 0.02496 0.04996 0.0
O170 O 0.40563 0.07176 0.9246 0.0
O171 O 0.38948 0.89846 0.83965 0.0
O172 O 0.33244 0.93763 0.85197 0.0
O173 O 0.41246 0.06643 0.57337 0.0
O174 O 0.50433 0.08599 0.54853 0.0
C175 C 0.60514 0.08763 0.94496 0.0
O176 O 0.60133 0.08653 0.81461 0.0
O177 O 0.56289 0.05036 -0.00283 0.0
O178 O 0.58259 1.00751 0.24778 0.0
O179 O 0.62079 0.96349 0.375 0.0
O180 O 0.63471 0.13154 0.46648 0.0
C181 C 0.60132 0.97026 0.26164 0.0
O182 O 0.69913 0.10212 0.49287 0.0
O183 O 0.61797 0.96717 0.71881 0.0
C184 C 0.6806 0.13268 0.43302 0.0
O185 O 0.52694 0.94601 0.76121 0.0
O186 O 0.42862 0.94152 0.49086 0.0
O187 O 0.45876 0.9829 0.30632 0.0
C188 C 0.62465 0.66906 0.25128 0.0
C189 C 0.72477 0.60265 0.35537 0.0
C190 C 0.50995 0.40096 0.46742 0.0
Mg191 Mg 0.66164 0.65695 0.52169 0.0
O192 O 0.59202 0.58396 0.4875 0.0
Mg193 Mg 0.58652 0.52926 0.33497 0.0
Mg194 Mg 0.55041 0.52955 0.6188 0.0
O195 O 0.50915 0.47521 0.74806 0.0
Mg196 Mg 0.44546 0.39875 0.72972 0.0
Mg197 Mg 0.51596 0.52852 0.90278 0.0
C198 C 0.59167 0.65781 0.7765 0.0
C199 C 0.64569 0.55584 0.8821 0.0
O200 O 0.6122 0.61428 0.2233 0.0
O201 O 0.63981 0.69606 0.37118 0.0
O202 O 0.68337 0.55466 0.38388 0.0
O203 O 0.73234 0.65118 0.41864 0.0
O204 O 0.63543 0.68035 0.70867 0.0
O205 O 0.55067 0.60343 0.75289 0.0
C206 C 0.45329 0.49814 0.35299 0.0
O207 O 0.46076 0.50508 0.48314 0.0
O208 O 0.49541 0.508 0.2863 0.0
O209 O 0.49877 0.44486 0.01631 0.0
O210 O 0.4796 0.36488 0.87243 0.0
O211 O 0.42042 0.50497 0.85926 0.0
C212 C 0.494 0.3927 -0.00889 0.0
O213 O 0.3793 0.4085 0.84566 0.0
O214 O 0.46687 0.37599 0.53576 0.0
C215 C 0.38088 0.45708 0.89069 0.0
O216 O 0.54944 0.45586 0.48947 0.0
O217 O 0.64015 0.55239 0.75251 0.0
O218 O 0.60407 0.54936 0.94586 0.0
loop_
_geom_bond_atom_site_label_1
_geom_bond_atom_site_label_2
_geom_bond_distance
_geom_bond_site_symmetry_2
_ccdc_geom_bond_type
H0 C8 0.930 . S
H1 C11 0.930 . S
H2 C13 0.930 . S
H3 C14 0.970 . S
H4 C14 0.970 . S
H5 C16 0.930 . S
H6 C18 0.930 . S
H7 C20 0.930 . S
C8 H0 0.930 . S
C8 C9 1.382 . S
C8 C10 1.426 . S
C9 C8 1.382 . S
C9 C13 1.389 . S
C10 C8 1.426 . S
C10 C11 1.375 . S
C10 C14 1.532 . S
C11 H1 0.930 . S
C11 C10 1.375 . S
C11 C12 1.416 . S
C12 C11 1.416 . S
C12 C13 1.371 . S
C13 H2 0.930 . S
C13 C9 1.389 . S
C13 C12 1.371 . S
C14 H3 0.970 . S
C14 H4 0.970 . S
C14 C10 1.532 . S
C14 C15 1.499 . S
C15 C14 1.499 . S
C15 C16 1.370 . S
C15 C20 1.415 . S
C16 H5 0.930 . S
C16 C15 1.370 . S
C16 C17 1.407 . S
C17 C16 1.407 . S
C17 C18 1.365 . S
C18 H6 0.930 . S
C18 C17 1.365 . S
C18 C19 1.393 . S
C19 C18 1.393 . S
C19 C20 1.387 . S
C20 H7 0.930 . S
C20 C15 1.415 . S
C20 C19 1.387 . S
H21 C29 0.930 1_556 S
H22 C32 0.930 . S
H23 C34 0.930 . S
H24 C35 0.970 . S
H25 C35 0.970 . S
H26 C37 0.930 1_556 S
H27 C39 0.930 . S
H28 C41 0.930 . S
C29 H21 0.930 1_554 S
C29 C30 1.382 . S
C29 C31 1.426 . S
C30 C29 1.382 . S
C30 C34 1.389 . S
C31 C29 1.426 . S
C31 C32 1.375 . S
C31 C35 1.532 . S
C32 H22 0.930 . S
C32 C31 1.375 . S
C32 C33 1.416 . S
C33 C32 1.416 . S
C33 C34 1.371 . S
C34 H23 0.930 . S
C34 C30 1.389 . S
C34 C33 1.371 . S
C35 H24 0.970 . S
C35 H25 0.970 . S
C35 C31 1.532 . S
C35 C36 1.499 . S
C36 C35 1.499 . S
C36 C37 1.370 . S
C36 C41 1.415 . S
C37 H26 0.930 1_554 S
C37 C36 1.370 . S
C37 C38 1.407 . S
C38 C37 1.407 . S
C38 C39 1.365 . S
C39 H27 0.930 . S
C39 C38 1.365 . S
C39 C40 1.393 . S
C40 C39 1.393 . S
C40 C41 1.387 . S
C41 H28 0.930 . S
C41 C36 1.415 . S
C41 C40 1.387 . S
H42 C50 0.930 . S
H43 C53 0.930 . S
H44 C55 0.930 . S
H45 C56 0.970 1_556 S
H46 C56 0.970 . S
H47 C58 0.930 . S
H48 C60 0.930 1_556 S
H49 C62 0.930 . S
C50 H42 0.930 . S
C50 C51 1.382 . S
C50 C52 1.426 1_556 S
C51 C50 1.382 . S
C51 C55 1.389 1_556 S
C52 C50 1.426 1_554 S
C52 C53 1.375 . S
C52 C56 1.532 . S
C53 H43 0.930 . S
C53 C52 1.375 . S
C53 C54 1.416 . S
C54 C53 1.416 . S
C54 C55 1.371 . S
C55 H44 0.930 . S
C55 C51 1.389 1_554 S
C55 C54 1.371 . S
C56 H45 0.970 1_554 S
C56 H46 0.970 . S
C56 C52 1.532 . S
C56 C57 1.499 . S
C57 C56 1.499 . S
C57 C58 1.370 1_554 S
C57 C62 1.415 . S
C58 H47 0.930 . S
C58 C57 1.370 1_556 S
C58 C59 1.407 . S
C59 C58 1.407 . S
C59 C60 1.365 1_556 S
C60 H48 0.930 1_554 S
C60 C59 1.365 1_554 S
C60 C61 1.393 . S
C61 C60 1.393 . S
C61 C62 1.387 . S
C62 H49 0.930 . S
C62 C57 1.415 . S
C62 C61 1.387 . S
H63 C71 0.930 . S
H64 C74 0.930 . S
H65 C76 0.930 . S
H66 C77 0.970 . S
H67 C77 0.970 . S
H68 C79 0.930 . S
H69 C81 0.930 . S
H70 C83 0.930 . S
C71 H63 0.930 . S
C71 C72 1.382 . S
C71 C73 1.426 1_556 S
C72 C71 1.382 . S
C72 C76 1.389 1_556 S
C73 C71 1.426 1_554 S
C73 C74 1.375 . S
C73 C77 1.532 . S
C74 H64 0.930 . S
C74 C73 1.375 . S
C74 C75 1.416 . S
C75 C74 1.416 . S
C75 C76 1.371 . S
C76 H65 0.930 . S
C76 C72 1.389 1_554 S
C76 C75 1.371 . S
C77 H66 0.970 . S
C77 H67 0.970 . S
C77 C73 1.532 . S
C77 C78 1.499 . S
C78 C77 1.499 . S
C78 C79 1.370 1_554 S
C78 C83 1.415 . S
C79 H68 0.930 . S
C79 C78 1.370 1_556 S
C79 C80 1.407 . S
C80 C79 1.407 . S
C80 C81 1.365 1_556 S
C81 H69 0.930 . S
C81 C80 1.365 1_554 S
C81 C82 1.393 . S
C82 C81 1.393 . S
C82 C83 1.387 . S
C83 H70 0.930 . S
C83 C78 1.415 . S
C83 C82 1.387 . S
H84 C92 0.930 1_556 S
H85 C95 0.930 . S
H86 C97 0.930 . S
H87 C98 0.970 . S
H88 C98 0.970 . S
H89 C100 0.930 . S
H90 C102 0.930 . S
H91 C104 0.930 . S
C92 H84 0.930 1_554 S
C92 C93 1.382 . S
C92 C94 1.426 . S
C93 C92 1.382 . S
C93 C97 1.389 . S
C94 C92 1.426 . S
C94 C95 1.375 . S
C94 C98 1.532 . S
C95 H85 0.930 . S
C95 C94 1.375 . S
C95 C96 1.416 . S
C96 C95 1.416 . S
C96 C97 1.371 . S
C97 H86 0.930 . S
C97 C93 1.389 . S
C97 C96 1.371 . S
C98 H87 0.970 . S
C98 H88 0.970 . S
C98 C94 1.532 . S
C98 C99 1.499 . S
C99 C98 1.499 . S
C99 C100 1.370 1_554 S
C99 C104 1.415 . S
C100 H89 0.930 . S
C100 C99 1.370 1_556 S
C100 C101 1.407 . S
C101 C100 1.407 . S
C101 C102 1.365 1_556 S
C102 H90 0.930 . S
C102 C101 1.365 1_554 S
C102 C103 1.393 . S
C103 C102 1.393 . S
C103 C104 1.387 . S
C104 H91 0.930 . S
C104 C99 1.415 . S
C104 C103 1.387 . S
H105 C113 0.930 . S
H106 C116 0.930 . S
H107 C118 0.930 . S
H108 C119 0.970 . S
H109 C119 0.970 . S
H110 C121 0.930 . S
H111 C123 0.930 . S
H112 C125 0.930 . S
C113 H105 0.930 . S
C113 C114 1.382 . S
C113 C115 1.426 . S
C114 C113 1.382 . S
C114 C118 1.389 . S
C115 C113 1.426 . S
C115 C116 1.375 . S
C115 C119 1.532 . S
C116 H106 0.930 . S
C116 C115 1.375 . S
C116 C117 1.416 . S
C117 C116 1.416 . S
C117 C118 1.371 . S
C118 H107 0.930 . S
C118 C114 1.389 . S
C118 C117 1.371 . S
C119 H108 0.970 . S
C119 H109 0.970 . S
C119 C115 1.532 . S
C119 C120 1.499 . S
C120 C119 1.499 . S
C120 C121 1.370 . S
C120 C125 1.415 . S
C121 H110 0.930 . S
C121 C120 1.370 . S
C121 C122 1.407 . S
C122 C121 1.407 . S
C122 C123 1.365 . S
C123 H111 0.930 . S
C123 C122 1.365 . S
C123 C124 1.393 . S
C124 C123 1.393 . S
C124 C125 1.387 . S
C125 H112 0.930 . S
C125 C120 1.415 . S
C125 C124 1.387 . S
C126 O138 1.241 . S
C126 O139 1.280 1_554 S
C127 O140 1.277 1_556 S
C127 O141 1.245 . S
C128 O152 1.247 . S
C128 O154 1.289 . S
Mg129 O130 1.926 . S
Mg129 O139 1.984 . S
Mg129 O141 1.988 1_655 S
Mg129 O142 2.061 . S
O130 Mg129 1.926 . S
O130 Mg131 1.986 1_656 S
O130 Mg132 1.917 1_655 S
Mg131 O130 1.986 1_454 S
Mg131 O138 2.042 1_455 S
Mg131 O140 2.041 . S
Mg131 O146 2.038 1_454 S
Mg131 O154 2.238 1_554 S
Mg132 O130 1.917 1_455 S
Mg132 O133 1.917 . S
Mg132 O143 2.106 1_455 S
Mg132 O145 2.079 1_455 S
Mg132 O154 2.106 . S
Mg132 O155 2.079 . S
O133 Mg132 1.917 . S
O133 Mg134 1.926 . S
O133 Mg135 1.986 . S
Mg134 O133 1.926 . S
Mg134 O148 1.984 . S
Mg134 O151 1.988 1_455 S
Mg134 O152 2.061 . S
Mg135 O133 1.986 . S
Mg135 O143 2.238 1_455 S
Mg135 O147 2.042 . S
Mg135 O149 2.041 1_455 S
Mg135 O156 2.038 . S
C136 O142 1.247 . S
C136 O143 1.289 . S
C137 O155 1.245 . S
C137 O156 1.274 . S
O138 C126 1.241 . S
O138 Mg131 2.042 1_655 S
O139 C126 1.280 1_556 S
O139 Mg129 1.984 . S
O140 C127 1.277 1_554 S
O140 Mg131 2.041 . S
O141 C127 1.245 . S
O141 Mg129 1.988 1_455 S
O142 Mg129 2.061 . S
O142 C136 1.247 . S
O143 Mg132 2.106 1_655 S
O143 Mg135 2.238 1_655 S
O143 C136 1.289 . S
C144 O145 1.245 . S
C144 O146 1.274 . S
O145 Mg132 2.079 1_655 S
O145 C144 1.245 . S
O146 Mg131 2.038 1_656 S
O146 C144 1.274 . S
O147 Mg135 2.042 . S
O147 C150 1.241 . S
O148 Mg134 1.984 . S
O148 C150 1.280 . S
O149 Mg135 2.041 1_655 S
O149 C153 1.277 . S
C150 O147 1.241 . S
C150 O148 1.280 . S
O151 Mg134 1.988 1_655 S
O151 C153 1.245 . S
O152 C128 1.247 . S
O152 Mg134 2.061 . S
C153 O149 1.277 . S
C153 O151 1.245 . S
O154 C128 1.289 . S
O154 Mg131 2.238 1_556 S
O154 Mg132 2.106 . S
O155 Mg132 2.079 . S
O155 C137 1.245 . S
O156 Mg135 2.038 . S
O156 C137 1.274 . S
C157 O169 1.241 . S
C157 O170 1.280 1_554 S
C158 O171 1.277 . S
C158 O172 1.245 . S
C159 O183 1.247 . S
C159 O185 1.289 . S
Mg160 O161 1.926 . S
Mg160 O170 1.984 . S
Mg160 O172 1.988 1_545 S
Mg160 O173 2.061 . S
O161 Mg160 1.926 . S
O161 Mg162 1.986 1_556 S
O161 Mg163 1.917 . S
Mg162 O161 1.986 1_554 S
Mg162 O169 2.042 . S
Mg162 O171 2.041 1_544 S
Mg162 O177 2.038 1_554 S
Mg162 O185 2.238 1_544 S
Mg163 O161 1.917 . S
Mg163 O164 1.917 1_545 S
Mg163 O174 2.106 . S
Mg163 O176 2.079 . S
Mg163 O185 2.106 1_545 S
Mg163 O186 2.079 1_545 S
O164 Mg163 1.917 1_565 S
O164 Mg165 1.926 . S
O164 Mg166 1.987 . S
Mg165 O164 1.926 . S
Mg165 O179 1.984 . S
Mg165 O182 1.988 1_565 S
Mg165 O183 2.061 . S
Mg166 O164 1.987 . S
Mg166 O174 2.236 1_565 S
Mg166 O178 2.044 . S
Mg166 O180 2.040 1_565 S
Mg166 O187 2.039 . S
C167 O173 1.247 . S
C167 O174 1.289 . S
C168 O186 1.245 . S
C168 O187 1.274 . S
O169 C157 1.241 . S
O169 Mg162 2.042 . S
O170 C157 1.280 1_556 S
O170 Mg160 1.984 . S
O171 C158 1.277 . S
O171 Mg162 2.041 1_566 S
O172 C158 1.245 . S
O172 Mg160 1.988 1_565 S
O173 Mg160 2.061 . S
O173 C167 1.247 . S
O174 Mg163 2.106 . S
O174 Mg166 2.236 1_545 S
O174 C167 1.289 . S
C175 O176 1.245 . S
C175 O177 1.274 . S
O176 Mg163 2.079 . S
O176 C175 1.245 . S
O177 Mg162 2.038 1_556 S
O177 C175 1.274 . S
O178 Mg166 2.044 . S
O178 C181 1.241 . S
O179 Mg165 1.984 . S
O179 C181 1.280 . S
O180 Mg166 2.040 1_545 S
O180 C184 1.277 . S
C181 O178 1.241 . S
C181 O179 1.280 . S
O182 Mg165 1.988 1_545 S
O182 C184 1.245 . S
O183 C159 1.247 . S
O183 Mg165 2.061 . S
C184 O180 1.277 . S
C184 O182 1.245 . S
O185 C159 1.289 . S
O185 Mg162 2.238 1_566 S
O185 Mg163 2.106 1_565 S
O186 Mg163 2.079 1_565 S
O186 C168 1.245 . S
O187 Mg166 2.039 . S
O187 C168 1.274 . S
C188 O200 1.241 . S
C188 O201 1.280 . S
C189 O202 1.277 . S
C189 O203 1.245 . S
C190 O214 1.247 . S
C190 O216 1.289 . S
Mg191 O192 1.926 . S
Mg191 O201 1.984 . S
Mg191 O203 1.988 . S
Mg191 O204 2.061 . S
O192 Mg191 1.926 . S
O192 Mg193 1.986 . S
O192 Mg194 1.917 . S
Mg193 O192 1.986 . S
Mg193 O200 2.042 . S
Mg193 O202 2.041 . S
Mg193 O208 2.038 . S
Mg193 O216 2.238 . S
Mg194 O192 1.917 . S
Mg194 O195 1.917 . S
Mg194 O205 2.106 . S
Mg194 O207 2.079 . S
Mg194 O216 2.106 . S
Mg194 O217 2.079 . S
O195 Mg194 1.917 . S
O195 Mg196 1.926 . S
O195 Mg197 1.986 1_556 S
Mg196 O195 1.926 . S
Mg196 O210 1.984 . S
Mg196 O213 1.988 . S
Mg196 O214 2.061 . S
Mg197 O195 1.986 1_554 S
Mg197 O205 2.238 1_554 S
Mg197 O209 2.042 . S
Mg197 O211 2.041 . S
Mg197 O218 2.038 1_554 S
C198 O204 1.247 . S
C198 O205 1.289 . S
C199 O217 1.245 . S
C199 O218 1.274 . S
O200 C188 1.241 . S
O200 Mg193 2.042 . S
O201 C188 1.280 . S
O201 Mg191 1.984 . S
O202 C189 1.277 . S
O202 Mg193 2.041 . S
O203 C189 1.245 . S
O203 Mg191 1.988 . S
O204 Mg191 2.061 . S
O204 C198 1.247 . S
O205 Mg194 2.106 . S
O205 Mg197 2.238 1_556 S
O205 C198 1.289 . S
C206 O207 1.245 . S
C206 O208 1.274 . S
O207 Mg194 2.079 . S
O207 C206 1.245 . S
O208 Mg193 2.038 . S
O208 C206 1.274 . S
O209 Mg197 2.042 . S
O209 C212 1.241 . S
O210 Mg196 1.984 . S
O210 C212 1.280 1_556 S
O211 Mg197 2.041 . S
O211 C215 1.277 1_554 S
C212 O209 1.241 . S
C212 O210 1.280 1_554 S
O213 Mg196 1.988 . S
O213 C215 1.245 . S
O214 C190 1.247 . S
O214 Mg196 2.061 . S
C215 O211 1.277 1_556 S
C215 O213 1.245 . S
O216 C190 1.289 . S
O216 Mg193 2.238 . S
O216 Mg194 2.106 . S
O217 Mg194 2.079 . S
O217 C199 1.245 . S
O218 Mg197 2.038 1_556 S
O218 C199 1.274 . S
C12 C137 1.982 . S
C40 C184 1.421 . S
C188 C61 1.769 . S
C153 C82 1.398 . S
C96 C168 2.002 . S
C190 C117 0.946 . S
C159 C51 1.805 . S
C72 C199 1.616 . S
C128 C101 1.560 . S
C122 C157 1.100 . S
C17 C215 1.918 1_554 S
C126 C30 1.361 . S
C144 C80 2.158 . S
C158 C93 1.434 1_556 S
C212 C114 1.641 . S
C127 C9 1.418 1_556 S
C175 C38 2.200 1_556 S
C59 C198 1.049 . S
C167 C124 1.651 . S
C206 C19 1.268 . S
C136 C33 1.688 . S
C181 C54 1.134 . S
C75 C189 1.919 . S
C103 C150 1.181 . S
