# Generated by pormake.
# Topology sit, (3,6)-cn, num edge types: 1
# Building blocks:
#     Node 0, Type 0, BuildingBlock: PAMTOO_clean_linker_0, # of connection points: 3
#     Node 1, Type 0, BuildingBlock: PAMTOO_clean_linker_0, # of connection points: 3
#     Node 2, Type 0, BuildingBlock: PAMTOO_clean_linker_0, # of connection points: 3
#     Node 3, Type 0, BuildingBlock: PAMTOO_clean_linker_0, # of connection points: 3
#     Node 4, Type 1, BuildingBlock: MIDCAF_clean_sbu_0, # of connection points: 6
#     Node 5, Type 1, BuildingBlock: MIDCAF_clean_sbu_0, # of connection points: 6
#     Edge 6, Type (0, 1), BuildingBlock: EYOCIG_clean_linker_4, # of connection points: 2
#     Edge 7, Type (0, 1), BuildingBlock: EYOCIG_clean_linker_4, # of connection points: 2
#     Edge 8, Type (0, 1), BuildingBlock: EYOCIG_clean_linker_4, # of connection points: 2
#     Edge 9, Type (0, 1), BuildingBlock: EYOCIG_clean_linker_4, # of connection points: 2
#     Edge 10, Type (0, 1), BuildingBlock: EYOCIG_clean_linker_4, # of connection points: 2
#     Edge 11, Type (0, 1), BuildingBlock: EYOCIG_clean_linker_4, # of connection points: 2
#     Edge 12, Type (0, 1), BuildingBlock: EYOCIG_clean_linker_4, # of connection points: 2
#     Edge 13, Type (0, 1), BuildingBlock: EYOCIG_clean_linker_4, # of connection points: 2
#     Edge 14, Type (0, 1), BuildingBlock: EYOCIG_clean_linker_4, # of connection points: 2
#     Edge 15, Type (0, 1), BuildingBlock: EYOCIG_clean_linker_4, # of connection points: 2
#     Edge 16, Type (0, 1), BuildingBlock: EYOCIG_clean_linker_4, # of connection points: 2
#     Edge 17, Type (0, 1), BuildingBlock: EYOCIG_clean_linker_4, # of connection points: 2
# Relax obj value: 0.077
# Max RMSD: 0.181
# Mean RMSD: 0.114
data_MOF--net-sit--node1-MIDCAF_clean_sbu_0--node2-PAMTOO_clean_linker_0--edge1-EYOCIG_clean_linker_4
_symmetry_space_group_name_H-M    P1
_symmetry_Int_Tables_number       1
_symmetry_cell_setting            triclinic
loop_
_symmetry_equiv_pos_as_xyz
'x, y, z'
_cell_length_a     16.821104
_cell_length_b     26.191371
_cell_length_c     29.581167
_cell_angle_alpha  90.653602
_cell_angle_beta   89.313146
_cell_angle_gamma 86.467927
loop_
_atom_site_label
_atom_site_type_symbol
_atom_site_fract_x
_atom_site_fract_y
_atom_site_fract_z
_atom_type_partial_charge
H0 H 0.04208 0.41425 0.9822 0.0
H1 H 0.20489 0.31477 0.05657 0.0
H2 H 0.96382 0.27389 0.03651 0.0
H3 H 0.03506 0.2661 0.12994 0.0
C4 C 0.091 0.24424 0.11909 0.0
O5 O 0.10078 0.24584 0.07286 0.0
H6 H 0.14239 0.26099 0.13573 0.0
C7 C 0.05397 0.37986 0.00181 0.0
C8 C -0.00563 0.34574 0.00785 0.0
C9 C 0.12966 0.36901 0.01932 0.0
C10 C 0.14581 0.32389 0.04356 0.0
C11 C 0.08567 0.28965 0.04997 0.0
C12 C 0.00985 0.30065 0.03202 0.0
H13 H 0.07778 0.61416 0.98725 0.0
H14 H 0.88844 0.71473 0.04246 0.0
H15 H 0.13085 0.75791 0.04828 0.0
H16 H 0.00336 0.76155 0.1337 0.0
C17 C 0.9656 0.78992 0.11445 0.0
O18 O -0.01796 0.78595 0.06876 0.0
H19 H 0.90197 0.78295 0.12068 0.0
C20 C 0.05817 0.64905 0.00541 0.0
C21 C 0.1134 0.68437 0.01723 0.0
C22 C 0.97738 0.65963 0.0146 0.0
C23 C 0.9514 0.70572 0.0362 0.0
C24 C 0.00697 0.74094 0.04891 0.0
C25 C 0.08825 0.7301 0.03957 0.0
H26 H 0.53429 0.91595 0.48439 0.0
H27 H 0.70416 0.81727 0.55464 0.0
H28 H 0.46309 0.77416 0.53943 0.0
H29 H 0.54593 0.76867 0.63224 0.0
C30 C 0.59843 0.74488 0.61903 0.0
O31 O 0.60305 0.74706 0.57259 0.0
H32 H 0.65345 0.75908 0.63378 0.0
C33 C 0.54822 0.88152 0.50361 0.0
C34 C 0.48996 0.84667 0.5106 0.0
C35 C 0.62521 0.87125 0.51947 0.0
C36 C 0.64405 0.82598 0.543 0.0
C37 C 0.58524 0.79108 0.55048 0.0
C38 C 0.50804 0.80151 0.53425 0.0
H39 H 0.576 0.11425 0.48734 0.0
H40 H 0.38618 0.21382 0.5434 0.0
H41 H 0.62766 0.25906 0.54687 0.0
H42 H 0.50213 0.26223 0.6333 0.0
C43 C 0.46352 0.29025 0.61419 0.0
O44 O 0.47893 0.28607 0.5684 0.0
H45 H 0.40018 0.28293 0.62096 0.0
C46 C 0.55616 0.14917 0.5054 0.0
C47 C 0.61093 0.18507 0.51649 0.0
C48 C 0.47544 0.15918 0.5152 0.0
C49 C 0.4491 0.20527 0.53668 0.0
C50 C 0.50424 0.24108 0.54865 0.0
C51 C 0.58543 0.23082 0.5387 0.0
Zn52 Zn 0.08081 0.11378 0.35948 0.0
Zn53 Zn 0.01889 0.91533 0.35928 0.0
Zn54 Zn 0.0495 0.01468 0.3586 0.0
C55 C 0.01895 0.94588 0.26935 0.0
C56 C 0.90214 0.96921 0.41173 0.0
O57 O 0.16281 0.02153 0.39397 0.0
O58 O 0.17979 0.10482 0.39396 0.0
C59 C 0.07112 0.08329 0.26926 0.0
O60 O 0.03623 0.98886 0.28725 0.0
O61 O 0.00706 0.90775 0.29355 0.0
O62 O 0.92382 0.92449 0.39869 0.0
O63 O 0.93996 1.00789 0.39905 0.0
O64 O 0.08557 0.1214 0.2935 0.0
O65 O 0.0555 0.04035 0.2872 0.0
O66 O 0.95577 0.0597 0.3971 0.0
O67 O -0.01451 0.14097 0.3934 0.0
C68 C 0.94085 0.10734 0.40712 0.0
O69 O 0.14689 0.96974 0.3918 0.0
O70 O 0.11778 0.8883 0.38792 0.0
C71 C 0.20228 0.06008 0.40533 0.0
C72 C 0.16339 0.92213 0.40009 0.0
Zn73 Zn 0.58032 0.61401 0.85855 0.0
Zn74 Zn 0.5226 0.41517 0.85784 0.0
Zn75 Zn 0.55119 0.51469 0.85748 0.0
C76 C 0.51893 0.4464 0.76817 0.0
C77 C 0.40667 0.46751 0.91188 0.0
O78 O 0.665 0.52226 0.89211 0.0
O79 O 0.67979 0.60581 0.89265 0.0
C80 C 0.57018 0.58398 0.76831 0.0
O81 O 0.53635 0.48932 0.78611 0.0
O82 O 0.50821 0.40802 0.79228 0.0
O83 O 0.42904 0.42303 0.8985 0.0
O84 O 0.443 0.50667 0.89887 0.0
O85 O 0.58435 0.62209 0.79263 0.0
O86 O 0.55538 0.54085 0.78615 0.0
O87 O 0.45757 0.55868 0.89696 0.0
O88 O 0.4851 0.64032 0.89296 0.0
C89 C 0.44177 0.60621 0.9071 0.0
O90 O 0.65044 0.47029 0.88949 0.0
O91 O 0.62312 0.38857 0.88494 0.0
C92 C 0.70361 0.56116 0.90357 0.0
C93 C 0.66831 0.42266 0.89704 0.0
C94 C 0.0812 0.15147 0.15355 0.0
C95 C 0.08635 0.19132 0.13399 0.0
C96 C 0.07479 0.11261 0.18585 0.0
C97 C 0.07042 0.09073 0.22133 0.0
C98 C -0.00712 0.87967 0.15232 0.0
C99 C -0.01898 0.84111 0.13143 0.0
C100 C 0.00543 0.91732 0.18559 0.0
C101 C 0.01414 0.9386 0.22137 0.0
C102 C 0.58287 0.65236 0.65289 0.0
C103 C 0.59025 0.69214 0.63358 0.0
C104 C 0.57474 0.61347 0.68499 0.0
C105 C 0.56987 0.59149 0.72039 0.0
C106 C 0.49039 0.3804 0.65141 0.0
C107 C 0.47857 0.34167 0.63076 0.0
C108 C 0.50332 0.41817 0.68451 0.0
C109 C 0.51282 0.43941 0.72022 0.0
C110 C 0.23714 0.43246 0.9946 0.0
C111 C 0.19156 0.40192 0.00742 0.0
C112 C 0.292 0.46037 0.97039 0.0
C113 C 0.34333 0.47206 0.94457 0.0
C114 C 0.8782 0.59505 0.98156 0.0
C115 C 0.92172 0.62529 -0.0029 0.0
C116 C 0.82367 0.56755 0.95695 0.0
C117 C 0.77017 0.55621 0.93303 0.0
C118 C 0.85991 0.37178 0.96757 0.0
C119 C 0.91903 0.35697 0.98701 0.0
C120 C 0.79433 0.39159 0.94303 0.0
C121 C 0.73758 0.40768 0.92216 0.0
C122 C 0.25641 0.65875 0.98536 0.0
C123 C 0.19398 0.67458 0.00184 0.0
C124 C 0.32214 0.6378 0.96024 0.0
C125 C 0.37589 0.62126 0.93615 0.0
C126 C 0.7307 0.9355 0.49343 0.0
C127 C 0.68557 0.90483 0.50652 0.0
C128 C 0.78587 0.96326 0.46932 0.0
C129 C 0.83802 0.97452 0.44387 0.0
C130 C 0.37657 0.09365 0.48338 0.0
C131 C 0.42002 0.12427 0.49835 0.0
C132 C 0.32189 0.06594 0.45907 0.0
C133 C 0.2684 0.05472 0.43508 0.0
C134 C 0.35361 0.8714 0.47189 0.0
C135 C 0.41354 0.85695 0.49073 0.0
C136 C 0.28793 0.89091 0.44728 0.0
C137 C 0.23181 0.90692 0.42584 0.0
C138 C 0.75391 0.1604 0.48404 0.0
C139 C 0.69135 0.17575 0.50066 0.0
C140 C 0.82011 0.13972 0.45916 0.0
C141 C 0.87441 0.12303 0.43553 0.0
loop_
_geom_bond_atom_site_label_1
_geom_bond_atom_site_label_2
_geom_bond_distance
_geom_bond_site_symmetry_2
_ccdc_geom_bond_type
H0 C7 0.929 . S
H1 C10 0.930 . S
H2 C12 0.929 1_655 S
H3 C4 0.969 . S
C4 H3 0.969 . S
C4 O5 1.550 . S
C4 H6 0.973 . S
O5 C4 1.550 . S
O5 C11 1.412 . S
H6 C4 0.973 . S
C7 H0 0.929 . S
C7 C8 1.400 . S
C7 C9 1.364 1_556 S
C8 C7 1.400 . S
C8 C12 1.377 1_556 S
C9 C7 1.364 1_554 S
C9 C10 1.374 . S
C10 H1 0.930 . S
C10 C9 1.374 . S
C10 C11 1.383 . S
C11 O5 1.412 . S
C11 C10 1.383 . S
C11 C12 1.394 . S
C12 H2 0.929 1_455 S
C12 C8 1.377 1_554 S
C12 C11 1.394 . S
H13 C20 0.929 . S
H14 C23 0.930 . S
H15 C25 0.929 . S
H16 C17 0.969 . S
C17 H16 0.969 . S
C17 O18 1.550 1_655 S
C17 H19 0.973 . S
O18 C17 1.550 1_455 S
O18 C24 1.412 . S
H19 C17 0.973 . S
C20 H13 0.929 . S
C20 C21 1.404 . S
C20 C22 1.364 1_456 S
C21 C20 1.404 . S
C21 C25 1.365 1_556 S
C22 C20 1.364 1_654 S
C22 C23 1.374 . S
C23 H14 0.930 . S
C23 C22 1.374 . S
C23 C24 1.383 1_655 S
C24 O18 1.412 . S
C24 C23 1.383 1_455 S
C24 C25 1.394 . S
C25 H15 0.929 . S
C25 C21 1.365 1_554 S
C25 C24 1.394 . S
H26 C33 0.929 . S
H27 C36 0.930 . S
H28 C38 0.929 . S
H29 C30 0.969 . S
C30 H29 0.969 . S
C30 O31 1.550 . S
C30 H32 0.973 . S
O31 C30 1.550 . S
O31 C37 1.412 . S
H32 C30 0.973 . S
C33 H26 0.929 . S
C33 C34 1.400 . S
C33 C35 1.364 . S
C34 C33 1.400 . S
C34 C38 1.377 . S
C35 C33 1.364 . S
C35 C36 1.374 . S
C36 H27 0.930 . S
C36 C35 1.374 . S
C36 C37 1.383 . S
C37 O31 1.412 . S
C37 C36 1.383 . S
C37 C38 1.394 . S
C38 H28 0.929 . S
C38 C34 1.377 . S
C38 C37 1.394 . S
H39 C46 0.929 . S
H40 C49 0.930 . S
H41 C51 0.929 . S
H42 C43 0.969 . S
C43 H42 0.969 . S
C43 O44 1.550 . S
C43 H45 0.973 . S
O44 C43 1.550 . S
O44 C50 1.412 . S
H45 C43 0.973 . S
C46 H39 0.929 . S
C46 C47 1.400 . S
C46 C48 1.364 . S
C47 C46 1.400 . S
C47 C51 1.377 . S
C48 C46 1.364 . S
C48 C49 1.374 . S
C49 H40 0.930 . S
C49 C48 1.374 . S
C49 C50 1.383 . S
C50 O44 1.412 . S
C50 C49 1.383 . S
C50 C51 1.394 . S
C51 H41 0.929 . S
C51 C47 1.377 . S
C51 C50 1.394 . S
Zn52 O58 1.920 . S
Zn52 O64 1.898 . S
Zn52 O67 1.905 1_455 S
Zn53 O61 1.905 . S
Zn53 O62 1.898 1_455 S
Zn53 O70 1.920 . S
Zn54 O57 2.080 . S
Zn54 O60 2.114 1_545 S
Zn54 O63 2.120 1_545 S
Zn54 O65 2.120 . S
Zn54 O66 2.114 1_455 S
Zn54 O69 2.080 1_545 S
C55 O60 1.166 . S
C55 O61 1.182 . S
C56 O62 1.167 . S
C56 O63 1.299 1_655 S
O57 Zn54 2.080 . S
O57 C71 1.305 . S
O58 Zn52 1.920 . S
O58 C71 1.234 . S
C59 O64 1.167 . S
C59 O65 1.299 . S
O60 Zn54 2.114 1_565 S
O60 C55 1.166 . S
O61 Zn53 1.905 . S
O61 C55 1.182 . S
O62 Zn53 1.898 1_655 S
O62 C56 1.167 . S
O63 Zn54 2.120 1_565 S
O63 C56 1.299 1_455 S
O64 Zn52 1.898 . S
O64 C59 1.167 . S
O65 Zn54 2.120 . S
O65 C59 1.299 . S
O66 Zn54 2.114 1_655 S
O66 C68 1.166 . S
O67 Zn52 1.905 1_655 S
O67 C68 1.182 . S
C68 O66 1.166 . S
C68 O67 1.182 . S
O69 Zn54 2.080 1_565 S
O69 C72 1.305 . S
O70 Zn53 1.920 . S
O70 C72 1.234 . S
C71 O57 1.305 . S
C71 O58 1.234 . S
C72 O69 1.305 . S
C72 O70 1.234 . S
Zn73 O79 1.920 . S
Zn73 O85 1.898 . S
Zn73 O88 1.905 . S
Zn74 O82 1.905 . S
Zn74 O83 1.898 . S
Zn74 O91 1.920 . S
Zn75 O78 2.080 . S
Zn75 O81 2.114 . S
Zn75 O84 2.120 . S
Zn75 O86 2.120 . S
Zn75 O87 2.114 . S
Zn75 O90 2.080 . S
C76 O81 1.166 . S
C76 O82 1.182 . S
C77 O83 1.167 . S
C77 O84 1.299 . S
O78 Zn75 2.080 . S
O78 C92 1.305 . S
O79 Zn73 1.920 . S
O79 C92 1.234 . S
C80 O85 1.167 . S
C80 O86 1.299 . S
O81 Zn75 2.114 . S
O81 C76 1.166 . S
O82 Zn74 1.905 . S
O82 C76 1.182 . S
O83 Zn74 1.898 . S
O83 C77 1.167 . S
O84 Zn75 2.120 . S
O84 C77 1.299 . S
O85 Zn73 1.898 . S
O85 C80 1.167 . S
O86 Zn75 2.120 . S
O86 C80 1.299 . S
O87 Zn75 2.114 . S
O87 C89 1.166 . S
O88 Zn73 1.905 . S
O88 C89 1.182 . S
C89 O87 1.166 . S
C89 O88 1.182 . S
O90 Zn75 2.080 . S
O90 C93 1.305 . S
O91 Zn74 1.920 . S
O91 C93 1.234 . S
C92 O78 1.305 . S
C92 O79 1.234 . S
C93 O90 1.305 . S
C93 O91 1.234 . S
C94 C95 1.170 . S
C94 C96 1.380 . S
C95 C94 1.170 . S
C96 C94 1.380 . S
C96 C97 1.170 . S
C97 C96 1.170 . S
C98 C99 1.170 1_455 S
C98 C100 1.380 . S
C99 C98 1.170 1_655 S
C100 C98 1.380 . S
C100 C101 1.170 . S
C101 C100 1.170 . S
C102 C103 1.170 . S
C102 C104 1.380 . S
C103 C102 1.170 . S
C104 C102 1.380 . S
C104 C105 1.170 . S
C105 C104 1.170 . S
C106 C107 1.170 . S
C106 C108 1.380 . S
C107 C106 1.170 . S
C108 C106 1.380 . S
C108 C109 1.170 . S
C109 C108 1.170 . S
C110 C111 1.170 . S
C110 C112 1.380 . S
C111 C110 1.170 . S
C112 C110 1.380 . S
C112 C113 1.170 . S
C113 C112 1.170 . S
C114 C115 1.170 . S
C114 C116 1.380 . S
C115 C114 1.170 . S
C116 C114 1.380 . S
C116 C117 1.170 . S
C117 C116 1.170 . S
C118 C119 1.170 . S
C118 C120 1.380 . S
C119 C118 1.170 . S
C120 C118 1.380 . S
C120 C121 1.170 . S
C121 C120 1.170 . S
C122 C123 1.170 . S
C122 C124 1.380 . S
C123 C122 1.170 . S
C124 C122 1.380 . S
C124 C125 1.170 . S
C125 C124 1.170 . S
C126 C127 1.170 . S
C126 C128 1.380 . S
C127 C126 1.170 . S
C128 C126 1.380 . S
C128 C129 1.170 . S
C129 C128 1.170 . S
C130 C131 1.170 . S
C130 C132 1.380 . S
C131 C130 1.170 . S
C132 C130 1.380 . S
C132 C133 1.170 . S
C133 C132 1.170 . S
C134 C135 1.170 . S
C134 C136 1.380 . S
C135 C134 1.170 . S
C136 C134 1.380 . S
C136 C137 1.170 . S
C137 C136 1.170 . S
C138 C139 1.170 . S
C138 C140 1.380 . S
C139 C138 1.170 . S
C140 C138 1.380 . S
C140 C141 1.170 . S
C141 C140 1.170 . S
C97 C59 1.426 . S
C95 C4 1.497 . S
C101 C55 1.431 . S
C99 C17 1.502 . S
C105 C80 1.437 . S
C103 C30 1.494 . S
C107 C43 1.466 . S
C109 C76 1.441 . S
C111 C9 1.337 1_556 S
C113 C77 1.148 . S
C117 C92 1.198 . S
C115 C22 1.316 1_556 S
C119 C8 1.691 1_655 S
C121 C93 1.541 . S
C125 C89 1.568 . S
C123 C21 1.700 . S
C129 C56 1.211 . S
C127 C35 1.302 . S
C131 C48 1.333 . S
C133 C71 1.158 . S
C137 C72 1.565 . S
C135 C34 1.684 . S
C141 C68 1.561 . S
C139 C47 1.702 . S
