# Generated by pormake.
# Topology anh, (6,3)-cn, num edge types: 1
# Building blocks:
#     Node 0, Type 0, BuildingBlock: VOLQOD_clean_sbu_1, # of connection points: 6
#     Node 1, Type 0, BuildingBlock: VOLQOD_clean_sbu_1, # of connection points: 6
#     Node 2, Type 0, BuildingBlock: VOLQOD_clean_sbu_1, # of connection points: 6
#     Node 3, Type 1, BuildingBlock: INOVEN_clean_linker_0, # of connection points: 3
#     Node 4, Type 1, BuildingBlock: INOVEN_clean_linker_0, # of connection points: 3
#     Node 5, Type 1, BuildingBlock: INOVEN_clean_linker_0, # of connection points: 3
#     Node 6, Type 1, BuildingBlock: INOVEN_clean_linker_0, # of connection points: 3
#     Node 7, Type 1, BuildingBlock: INOVEN_clean_linker_0, # of connection points: 3
#     Node 8, Type 1, BuildingBlock: INOVEN_clean_linker_0, # of connection points: 3
#     Edge 9, Type (0, 1), BuildingBlock: EYOCIG_clean_linker_4, # of connection points: 2
#     Edge 10, Type (0, 1), BuildingBlock: EYOCIG_clean_linker_4, # of connection points: 2
#     Edge 11, Type (0, 1), BuildingBlock: EYOCIG_clean_linker_4, # of connection points: 2
#     Edge 12, Type (0, 1), BuildingBlock: EYOCIG_clean_linker_4, # of connection points: 2
#     Edge 13, Type (0, 1), BuildingBlock: EYOCIG_clean_linker_4, # of connection points: 2
#     Edge 14, Type (0, 1), BuildingBlock: EYOCIG_clean_linker_4, # of connection points: 2
#     Edge 15, Type (0, 1), BuildingBlock: EYOCIG_clean_linker_4, # of connection points: 2
#     Edge 16, Type (0, 1), BuildingBlock: EYOCIG_clean_linker_4, # of connection points: 2
#     Edge 17, Type (0, 1), BuildingBlock: EYOCIG_clean_linker_4, # of connection points: 2
#     Edge 18, Type (0, 1), BuildingBlock: EYOCIG_clean_linker_4, # of connection points: 2
#     Edge 19, Type (0, 1), BuildingBlock: EYOCIG_clean_linker_4, # of connection points: 2
#     Edge 20, Type (0, 1), BuildingBlock: EYOCIG_clean_linker_4, # of connection points: 2
#     Edge 21, Type (0, 1), BuildingBlock: EYOCIG_clean_linker_4, # of connection points: 2
#     Edge 22, Type (0, 1), BuildingBlock: EYOCIG_clean_linker_4, # of connection points: 2
#     Edge 23, Type (0, 1), BuildingBlock: EYOCIG_clean_linker_4, # of connection points: 2
#     Edge 24, Type (0, 1), BuildingBlock: EYOCIG_clean_linker_4, # of connection points: 2
#     Edge 25, Type (0, 1), BuildingBlock: EYOCIG_clean_linker_4, # of connection points: 2
#     Edge 26, Type (0, 1), BuildingBlock: EYOCIG_clean_linker_4, # of connection points: 2
# Relax obj value: 0.156
# Max RMSD: 0.215
# Mean RMSD: 0.131
data_MOF--net-anh--node1-VOLQOD_clean_sbu_1--node2-INOVEN_clean_linker_0--edge1-EYOCIG_clean_linker_4
_symmetry_space_group_name_H-M    P1
_symmetry_Int_Tables_number       1
_symmetry_cell_setting            triclinic
loop_
_symmetry_equiv_pos_as_xyz
'x, y, z'
_cell_length_a     24.124543
_cell_length_b     24.068791
_cell_length_c     45.330354
_cell_angle_alpha  92.289757
_cell_angle_beta   92.084847
_cell_angle_gamma 120.218
loop_
_atom_site_label
_atom_site_type_symbol
_atom_site_fract_x
_atom_site_fract_y
_atom_site_fract_z
_atom_type_partial_charge
O0 O 0.00315 0.61439 0.22464 0.0
Zn1 Zn 0.01037 0.63789 0.18192 0.0
O2 O 0.01992 0.57425 0.15751 0.0
Zn3 Zn 0.94568 0.52521 0.12989 0.0
Zn4 Zn 0.02967 0.51494 0.18249 0.0
Zn5 Zn 0.09451 0.61755 0.13449 0.0
O6 O 0.9706 0.52587 0.08791 0.0
O7 O 0.07132 0.60825 0.09078 0.0
O8 O 0.92897 0.63909 0.16827 0.0
O9 O 0.88804 0.56179 0.13172 0.0
O10 O 0.89029 0.43503 0.14178 0.0
O11 O 0.94801 0.42815 0.17931 0.0
O12 O 0.10649 0.50581 0.17255 0.0
O13 O 0.09206 0.72621 0.18223 0.0
O14 O 0.14999 0.57847 0.13904 0.0
O15 O 0.14967 0.7093 0.14954 0.0
C16 C 0.02016 0.57974 0.23846 0.0
C17 C 0.02135 0.56506 0.07579 0.0
C18 C 0.89705 0.40417 0.16233 0.0
C19 C 0.88556 0.60463 0.14791 0.0
C20 C 0.14975 0.53565 0.15457 0.0
C21 C 0.14325 0.74555 0.16853 0.0
O22 O 0.03788 0.54427 0.22522 0.0
O23 O 0.44433 0.05481 0.42448 0.0
Zn24 Zn 0.4203 0.04808 0.46719 0.0
O25 O 0.48343 0.03898 0.49192 0.0
Zn26 Zn 0.53206 0.11372 0.51937 0.0
Zn27 Zn 0.54272 0.02874 0.46713 0.0
Zn28 Zn 0.44016 0.96486 0.51523 0.0
O29 O 0.53244 0.08925 0.56132 0.0
O30 O 0.44944 -0.01122 0.55889 0.0
O31 O 0.41832 0.12937 0.48083 0.0
O32 O 0.49461 0.17066 0.51769 0.0
O33 O 0.62175 0.16937 0.5072 0.0
O34 O 0.62906 0.11067 0.47007 0.0
O35 O 0.5524 0.95259 0.47769 0.0
O36 O 0.33248 0.96601 0.46687 0.0
O37 O 0.47945 0.90946 0.51109 0.0
O38 O 0.34878 0.90918 0.50017 0.0
C39 C 0.47859 0.03691 0.41085 0.0
C40 C 0.49325 0.03879 0.57366 0.0
C41 C 0.65271 0.16213 0.4868 0.0
C42 C 0.45191 0.17277 0.50137 0.0
C43 C 0.52257 0.90965 0.4958 0.0
C44 C 0.31297 0.91509 0.48085 0.0
O45 O 0.51352 0.01902 0.42432 0.0
O46 O 0.49695 0.47792 0.75591 0.0
Zn47 Zn 0.47959 0.4504 0.79781 0.0
O48 O 0.5508 0.51283 0.82532 0.0
Zn49 Zn 0.52311 0.55909 0.85117 0.0
Zn50 Zn 0.62153 0.57431 0.80296 0.0
Zn51 Zn 0.57954 0.46801 0.85063 0.0
O52 O 0.53827 0.55159 0.89452 0.0
O53 O 0.55762 0.47041 0.8931 0.0
O54 O 0.39487 0.44356 0.8083 0.0
O55 O 0.42882 0.52109 0.84449 0.0
O56 O 0.56024 0.65072 0.84094 0.0
O57 O 0.62868 0.66178 0.80692 0.0
O58 O 0.70572 0.57948 0.81586 0.0
O59 O 0.47469 0.36343 0.79738 0.0
O60 O 0.67456 0.50767 0.8502 0.0
O61 O 0.54482 0.37752 0.83437 0.0
C62 C 0.54902 0.51468 0.74398 0.0
C63 C 0.54629 0.50987 0.90736 0.0
C64 C 0.60039 0.684 0.82246 0.0
C65 C 0.38427 0.47687 0.82742 0.0
C66 C 0.71787 0.54941 0.83521 0.0
C67 C 0.50472 0.34302 0.81314 0.0
O68 O 0.60189 0.54976 0.75917 0.0
H69 H 0.48062 0.02329 0.17785 0.0
H70 H 0.39378 0.95604 0.26004 0.0
H71 H 0.58935 0.11084 0.26105 0.0
N72 N 0.59389 0.11576 0.20133 0.0
N73 N 0.64348 0.16124 0.21426 0.0
C74 C 0.4842 0.02555 0.20182 0.0
C75 C 0.43071 -0.01571 0.21722 0.0
C76 C 0.54178 0.07164 0.21739 0.0
C77 C 0.54563 0.07509 0.24861 0.0
C78 C 0.49233 0.0333 0.26386 0.0
C79 C 0.43531 -0.0123 0.24815 0.0
H80 H 0.51352 0.50872 0.51063 0.0
H81 H 0.51503 0.42455 0.59243 0.0
H82 H 0.55796 0.62092 0.5937 0.0
N83 N 0.54025 0.62233 0.53412 0.0
N84 N 0.54938 0.67328 0.54694 0.0
C85 C 0.52139 0.51319 0.53453 0.0
C86 C 0.51284 0.46014 0.54975 0.0
C87 C 0.53745 0.57143 0.55011 0.0
C88 C 0.54644 0.57661 0.58126 0.0
C89 C 0.53858 0.52373 0.59644 0.0
C90 C 0.52221 0.4658 0.58064 0.0
H91 H 0.00675 0.51364 0.84285 0.0
H92 H 0.94093 0.54584 0.92525 0.0
H93 H 0.09865 0.51052 0.92568 0.0
N94 N 0.10032 0.4988 0.86577 0.0
N95 N 0.1457 0.49606 0.87819 0.0
C96 C 0.0103 0.51741 0.86684 0.0
C97 C 0.96866 0.5307 0.88234 0.0
C98 C 0.05756 0.51021 0.88219 0.0
C99 C 0.06224 0.51563 0.91342 0.0
C100 C 0.02007 0.52831 0.92884 0.0
C101 C 0.97325 0.53554 0.91328 0.0
H102 H 0.0354 0.57725 0.47129 0.0
H103 H 0.10126 0.66466 0.38908 0.0
H104 H 0.94555 0.46931 0.38809 0.0
N105 N 0.94185 0.46437 0.44781 0.0
N106 N 0.896 0.41503 0.43488 0.0
C107 C 0.03261 0.57385 0.4473 0.0
C108 C 0.07377 0.62741 0.43191 0.0
C109 C -0.01409 0.51648 0.43174 0.0
C110 C -0.01825 0.51288 0.40052 0.0
C111 C 0.02345 0.56622 0.38528 0.0
C112 C 0.06966 0.62307 0.40097 0.0
H113 H 0.55438 0.05943 0.8062 0.0
H114 H 0.51806 0.12142 0.72363 0.0
H115 H 0.55559 0.96504 0.72342 0.0
N116 N 0.57016 0.96556 0.78321 0.0
N117 N 0.57404 0.92087 0.77052 0.0
C118 C 0.54981 0.055 0.78222 0.0
C119 C 0.53523 0.0957 0.76659 0.0
C120 C 0.55724 0.00751 0.7669 0.0
C121 C 0.55053 0.00166 0.73568 0.0
C122 C 0.53658 0.04284 0.72022 0.0
C123 C 0.52936 0.0899 0.73568 0.0
H124 H 0.54908 0.54055 0.14027 0.0
H125 H 0.6313 0.53528 0.05828 0.0
H126 H 0.43611 0.49433 0.05754 0.0
N127 N 0.43584 0.51443 0.11708 0.0
N128 N 0.38558 0.5067 0.10433 0.0
C129 C 0.54414 0.5317 0.11642 0.0
C130 C 0.59665 0.53926 0.10104 0.0
C131 C 0.486 0.51576 0.101 0.0
C132 C 0.4803 0.50567 0.06988 0.0
C133 C 0.53259 0.51241 0.05455 0.0
C134 C 0.59043 0.52874 0.0702 0.0
C135 C 0.24401 0.51383 0.14412 0.0
C136 C 0.19933 0.52018 0.15056 0.0
C137 C 0.29569 0.5097 0.13274 0.0
C138 C 0.33821 0.50775 0.12038 0.0
C139 C 0.76028 0.26385 0.47312 0.0
C140 C 0.71116 0.21736 0.47935 0.0
C141 C 0.81224 0.31906 0.46245 0.0
C142 C 0.85265 0.36471 0.45062 0.0
C143 C 0.60446 0.79157 0.80895 0.0
C144 C 0.60342 0.74263 0.81474 0.0
C145 C 0.59676 0.84183 0.79838 0.0
C146 C 0.58666 0.88008 0.78648 0.0
C147 C 0.77527 0.59958 0.1377 0.0
C148 C 0.82769 0.60759 0.14464 0.0
C149 C 0.71185 0.58063 0.12726 0.0
C150 C 0.65843 0.56188 0.11642 0.0
C151 C 0.20601 0.80609 0.46554 0.0
C152 C 0.25355 0.85803 0.47118 0.0
C153 C 0.157 0.74236 0.457 0.0
C154 C 0.11802 0.68855 0.44729 0.0
C155 C 0.50324 0.23505 0.79887 0.0
C156 C 0.50149 0.28357 0.80423 0.0
C157 C 0.51338 0.18369 0.79094 0.0
C158 C 0.52404 0.14256 0.7817 0.0
C159 C 0.54475 0.81588 0.50694 0.0
C160 C 0.53828 0.86034 0.5002 0.0
C161 C 0.54848 0.76417 0.51855 0.0
C162 C 0.5496 0.72131 0.53096 0.0
C163 C 0.82981 0.55835 0.84595 0.0
C164 C 0.78112 0.55847 0.83927 0.0
C165 C 0.88117 0.55042 0.85609 0.0
C166 C 0.92187 0.54101 0.86684 0.0
C167 C 0.25185 0.85303 0.18374 0.0
C168 C 0.19998 0.80537 0.17817 0.0
C169 C 0.31559 0.90194 0.19221 0.0
C170 C 0.36946 0.94055 0.20187 0.0
C171 C 0.45491 0.28224 0.51208 0.0
C172 C 0.44786 0.23016 0.50487 0.0
C173 C 0.47283 0.34534 0.52293 0.0
C174 C 0.491 0.39857 0.5341 0.0
C175 C 0.27341 0.46742 0.83691 0.0
C176 C 0.32077 0.46639 0.83019 0.0
C177 C 0.22455 0.47555 0.84887 0.0
C178 C 0.18679 0.48485 0.86172 0.0
C179 C 0.795 0.29666 0.17599 0.0
C180 C 0.84163 0.34575 0.16977 0.0
C181 C 0.73959 0.24486 0.18667 0.0
C182 C 0.69384 0.20455 0.1985 0.0
C183 C 0.02519 0.55148 0.01802 0.0
C184 C 0.02369 0.55789 0.04441 0.0
C185 C 0.02624 0.54274 0.98715 0.0
C186 C 0.02528 0.53576 0.96064 0.0
C187 C 0.48498 0.04021 0.35295 0.0
C188 C 0.48061 0.03944 0.37934 0.0
C189 C 0.49127 0.04039 0.32213 0.0
C190 C 0.49413 0.03903 0.29566 0.0
C191 C 0.54766 0.52231 0.68597 0.0
C192 C 0.54789 0.51856 0.71243 0.0
C193 C 0.54654 0.52629 0.65495 0.0
C194 C 0.54336 0.52703 0.62835 0.0
C195 C 0.509 0.0353 0.63127 0.0
C196 C 0.50153 0.03656 0.60495 0.0
C197 C 0.51928 0.03467 0.66203 0.0
C198 C 0.52765 0.03631 0.68847 0.0
C199 C 0.53519 0.50412 0.9651 0.0
C200 C 0.54041 0.50609 0.93874 0.0
C201 C 0.53015 0.50404 -0.00394 0.0
C202 C 0.52915 0.50737 0.02265 0.0
C203 C 0.01562 0.57373 0.2963 0.0
C204 C 0.01693 0.57804 0.26993 0.0
C205 C 0.01538 0.56749 0.32709 0.0
C206 C 0.01719 0.56457 0.35353 0.0
loop_
_geom_bond_atom_site_label_1
_geom_bond_atom_site_label_2
_geom_bond_distance
_geom_bond_site_symmetry_2
_ccdc_geom_bond_type
O0 Zn1 1.953 . S
O0 C16 1.225 . S
Zn1 O0 1.953 . S
Zn1 O2 1.949 . S
Zn1 O8 1.919 1_455 S
Zn1 O13 1.924 . S
O2 Zn1 1.949 . S
O2 Zn3 1.923 1_455 S
O2 Zn4 1.950 . S
O2 Zn5 1.945 . S
Zn3 O2 1.923 1_655 S
Zn3 O6 1.933 . S
Zn3 O9 1.941 . S
Zn3 O10 1.965 . S
Zn4 O2 1.950 . S
Zn4 O11 1.938 1_455 S
Zn4 O12 1.906 . S
Zn4 O22 1.953 . S
Zn5 O2 1.945 . S
Zn5 O7 1.932 . S
Zn5 O14 1.977 . S
Zn5 O15 1.910 . S
O6 Zn3 1.933 . S
O6 C17 1.226 1_655 S
O7 Zn5 1.932 . S
O7 C17 1.307 . S
O8 Zn1 1.919 1_655 S
O8 C19 1.253 . S
O9 Zn3 1.941 . S
O9 C19 1.283 . S
O10 Zn3 1.965 . S
O10 C18 1.303 . S
O11 Zn4 1.938 1_655 S
O11 C18 1.247 . S
O12 Zn4 1.906 . S
O12 C20 1.304 . S
O13 Zn1 1.924 . S
O13 C21 1.311 . S
O14 Zn5 1.977 . S
O14 C20 1.272 . S
O15 Zn5 1.910 . S
O15 C21 1.231 . S
C16 O0 1.225 . S
C16 O22 1.298 . S
C17 O6 1.226 1_455 S
C17 O7 1.307 . S
C18 O10 1.303 . S
C18 O11 1.247 . S
C19 O8 1.253 . S
C19 O9 1.283 . S
C20 O12 1.304 . S
C20 O14 1.272 . S
C21 O13 1.311 . S
C21 O15 1.231 . S
O22 Zn4 1.953 . S
O22 C16 1.298 . S
O23 Zn24 1.953 . S
O23 C39 1.225 . S
Zn24 O23 1.953 . S
Zn24 O25 1.949 . S
Zn24 O31 1.919 . S
Zn24 O36 1.924 1_545 S
O25 Zn24 1.949 . S
O25 Zn26 1.923 . S
O25 Zn27 1.950 . S
O25 Zn28 1.945 1_545 S
Zn26 O25 1.923 . S
Zn26 O29 1.933 . S
Zn26 O32 1.941 . S
Zn26 O33 1.965 . S
Zn27 O25 1.950 . S
Zn27 O34 1.938 . S
Zn27 O35 1.906 1_545 S
Zn27 O45 1.953 . S
Zn28 O25 1.945 1_565 S
Zn28 O30 1.932 1_565 S
Zn28 O37 1.977 . S
Zn28 O38 1.910 . S
O29 Zn26 1.933 . S
O29 C40 1.226 . S
O30 Zn28 1.932 1_545 S
O30 C40 1.307 . S
O31 Zn24 1.919 . S
O31 C42 1.253 . S
O32 Zn26 1.941 . S
O32 C42 1.283 . S
O33 Zn26 1.965 . S
O33 C41 1.303 . S
O34 Zn27 1.938 . S
O34 C41 1.247 . S
O35 Zn27 1.906 1_565 S
O35 C43 1.304 . S
O36 Zn24 1.924 1_565 S
O36 C44 1.311 . S
O37 Zn28 1.977 . S
O37 C43 1.272 . S
O38 Zn28 1.910 . S
O38 C44 1.231 . S
C39 O23 1.225 . S
C39 O45 1.298 . S
C40 O29 1.226 . S
C40 O30 1.307 . S
C41 O33 1.303 . S
C41 O34 1.247 . S
C42 O31 1.253 . S
C42 O32 1.283 . S
C43 O35 1.304 . S
C43 O37 1.272 . S
C44 O36 1.311 . S
C44 O38 1.231 . S
O45 Zn27 1.953 . S
O45 C39 1.298 . S
O46 Zn47 1.953 . S
O46 C62 1.225 . S
Zn47 O46 1.953 . S
Zn47 O48 1.949 . S
Zn47 O54 1.919 . S
Zn47 O59 1.924 . S
O48 Zn47 1.949 . S
O48 Zn49 1.923 . S
O48 Zn50 1.950 . S
O48 Zn51 1.945 . S
Zn49 O48 1.923 . S
Zn49 O52 1.933 . S
Zn49 O55 1.941 . S
Zn49 O56 1.965 . S
Zn50 O48 1.950 . S
Zn50 O57 1.938 . S
Zn50 O58 1.906 . S
Zn50 O68 1.953 . S
Zn51 O48 1.945 . S
Zn51 O53 1.932 . S
Zn51 O60 1.977 . S
Zn51 O61 1.910 . S
O52 Zn49 1.933 . S
O52 C63 1.226 . S
O53 Zn51 1.932 . S
O53 C63 1.307 . S
O54 Zn47 1.919 . S
O54 C65 1.253 . S
O55 Zn49 1.941 . S
O55 C65 1.283 . S
O56 Zn49 1.965 . S
O56 C64 1.303 . S
O57 Zn50 1.938 . S
O57 C64 1.247 . S
O58 Zn50 1.906 . S
O58 C66 1.304 . S
O59 Zn47 1.924 . S
O59 C67 1.311 . S
O60 Zn51 1.977 . S
O60 C66 1.272 . S
O61 Zn51 1.910 . S
O61 C67 1.231 . S
C62 O46 1.225 . S
C62 O68 1.298 . S
C63 O52 1.226 . S
C63 O53 1.307 . S
C64 O56 1.303 . S
C64 O57 1.247 . S
C65 O54 1.253 . S
C65 O55 1.283 . S
C66 O58 1.304 . S
C66 O60 1.272 . S
C67 O59 1.311 . S
C67 O61 1.231 . S
O68 Zn50 1.953 . S
O68 C62 1.298 . S
H69 C74 0.929 . S
H70 C79 0.931 1_565 S
H71 C77 0.930 . S
N72 N73 1.234 . S
N72 C76 1.453 . S
N73 N72 1.234 . S
C74 H69 0.929 . S
C74 C75 1.373 1_545 S
C74 C76 1.368 . S
C75 C74 1.373 1_565 S
C75 C79 1.397 1_565 S
C76 N72 1.453 . S
C76 C74 1.368 . S
C76 C77 1.373 . S
C77 H71 0.930 . S
C77 C76 1.373 . S
C77 C78 1.371 . S
C78 C77 1.371 . S
C78 C79 1.383 . S
C79 H70 0.931 1_545 S
C79 C75 1.397 1_545 S
C79 C78 1.383 . S
H80 C85 0.929 . S
H81 C90 0.931 . S
H82 C88 0.930 . S
N83 N84 1.234 . S
N83 C87 1.453 . S
N84 N83 1.234 . S
C85 H80 0.929 . S
C85 C86 1.373 . S
C85 C87 1.368 . S
C86 C85 1.373 . S
C86 C90 1.397 . S
C87 N83 1.453 . S
C87 C85 1.368 . S
C87 C88 1.373 . S
C88 H82 0.930 . S
C88 C87 1.373 . S
C88 C89 1.371 . S
C89 C88 1.371 . S
C89 C90 1.383 . S
C90 H81 0.931 . S
C90 C86 1.397 . S
C90 C89 1.383 . S
H91 C96 0.929 . S
H92 C101 0.931 . S
H93 C99 0.930 . S
N94 N95 1.234 . S
N94 C98 1.453 . S
N95 N94 1.234 . S
C96 H91 0.929 . S
C96 C97 1.373 1_455 S
C96 C98 1.368 . S
C97 C96 1.373 1_655 S
C97 C101 1.397 . S
C98 N94 1.453 . S
C98 C96 1.368 . S
C98 C99 1.373 . S
C99 H93 0.930 . S
C99 C98 1.373 . S
C99 C100 1.371 . S
C100 C99 1.371 . S
C100 C101 1.383 1_455 S
C101 H92 0.931 . S
C101 C97 1.397 . S
C101 C100 1.383 1_655 S
H102 C107 0.929 . S
H103 C112 0.931 . S
H104 C110 0.930 1_655 S
N105 N106 1.234 . S
N105 C109 1.453 1_655 S
N106 N105 1.234 . S
C107 H102 0.929 . S
C107 C108 1.373 . S
C107 C109 1.368 . S
C108 C107 1.373 . S
C108 C112 1.397 . S
C109 N105 1.453 1_455 S
C109 C107 1.368 . S
C109 C110 1.373 . S
C110 H104 0.930 1_455 S
C110 C109 1.373 . S
C110 C111 1.371 . S
C111 C110 1.371 . S
C111 C112 1.383 . S
C112 H103 0.931 . S
C112 C108 1.397 . S
C112 C111 1.383 . S
H113 C118 0.929 . S
H114 C123 0.931 . S
H115 C121 0.930 1_565 S
N116 N117 1.234 . S
N116 C120 1.453 1_565 S
N117 N116 1.234 . S
C118 H113 0.929 . S
C118 C119 1.373 . S
C118 C120 1.368 . S
C119 C118 1.373 . S
C119 C123 1.397 . S
C120 N116 1.453 1_545 S
C120 C118 1.368 . S
C120 C121 1.373 . S
C121 H115 0.930 1_545 S
C121 C120 1.373 . S
C121 C122 1.371 . S
C122 C121 1.371 . S
C122 C123 1.383 . S
C123 H114 0.931 . S
C123 C119 1.397 . S
C123 C122 1.383 . S
H124 C129 0.929 . S
H125 C134 0.931 . S
H126 C132 0.930 . S
N127 N128 1.234 . S
N127 C131 1.453 . S
N128 N127 1.234 . S
C129 H124 0.929 . S
C129 C130 1.373 . S
C129 C131 1.368 . S
C130 C129 1.373 . S
C130 C134 1.397 . S
C131 N127 1.453 . S
C131 C129 1.368 . S
C131 C132 1.373 . S
C132 H126 0.930 . S
C132 C131 1.373 . S
C132 C133 1.371 . S
C133 C132 1.371 . S
C133 C134 1.383 . S
C134 H125 0.931 . S
C134 C130 1.397 . S
C134 C133 1.383 . S
C135 C136 1.170 . S
C135 C137 1.380 . S
C136 C135 1.170 . S
C137 C135 1.380 . S
C137 C138 1.170 . S
C138 C137 1.170 . S
C139 C140 1.170 . S
C139 C141 1.380 . S
C140 C139 1.170 . S
C141 C139 1.380 . S
C141 C142 1.170 . S
C142 C141 1.170 . S
C143 C144 1.170 . S
C143 C145 1.380 . S
C144 C143 1.170 . S
C145 C143 1.380 . S
C145 C146 1.170 . S
C146 C145 1.170 . S
C147 C148 1.170 . S
C147 C149 1.380 . S
C148 C147 1.170 . S
C149 C147 1.380 . S
C149 C150 1.170 . S
C150 C149 1.170 . S
C151 C152 1.170 . S
C151 C153 1.380 . S
C152 C151 1.170 . S
C153 C151 1.380 . S
C153 C154 1.170 . S
C154 C153 1.170 . S
C155 C156 1.170 . S
C155 C157 1.380 . S
C156 C155 1.170 . S
C157 C155 1.380 . S
C157 C158 1.170 . S
C158 C157 1.170 . S
C159 C160 1.170 . S
C159 C161 1.380 . S
C160 C159 1.170 . S
C161 C159 1.380 . S
C161 C162 1.170 . S
C162 C161 1.170 . S
C163 C164 1.170 . S
C163 C165 1.380 . S
C164 C163 1.170 . S
C165 C163 1.380 . S
C165 C166 1.170 . S
C166 C165 1.170 . S
C167 C168 1.170 . S
C167 C169 1.380 . S
C168 C167 1.170 . S
C169 C167 1.380 . S
C169 C170 1.170 . S
C170 C169 1.170 . S
C171 C172 1.170 . S
C171 C173 1.380 . S
C172 C171 1.170 . S
C173 C171 1.380 . S
C173 C174 1.170 . S
C174 C173 1.170 . S
C175 C176 1.170 . S
C175 C177 1.380 . S
C176 C175 1.170 . S
C177 C175 1.380 . S
C177 C178 1.170 . S
C178 C177 1.170 . S
C179 C180 1.170 . S
C179 C181 1.380 . S
C180 C179 1.170 . S
C181 C179 1.380 . S
C181 C182 1.170 . S
C182 C181 1.170 . S
C183 C184 1.170 . S
C183 C185 1.380 1_554 S
C184 C183 1.170 . S
C185 C183 1.380 1_556 S
C185 C186 1.170 . S
C186 C185 1.170 . S
C187 C188 1.170 . S
C187 C189 1.380 . S
C188 C187 1.170 . S
C189 C187 1.380 . S
C189 C190 1.170 . S
C190 C189 1.170 . S
C191 C192 1.170 . S
C191 C193 1.380 . S
C192 C191 1.170 . S
C193 C191 1.380 . S
C193 C194 1.170 . S
C194 C193 1.170 . S
C195 C196 1.170 . S
C195 C197 1.380 . S
C196 C195 1.170 . S
C197 C195 1.380 . S
C197 C198 1.170 . S
C198 C197 1.170 . S
C199 C200 1.170 . S
C199 C201 1.380 1_556 S
C200 C199 1.170 . S
C201 C199 1.380 1_554 S
C201 C202 1.170 . S
C202 C201 1.170 . S
C203 C204 1.170 . S
C203 C205 1.380 . S
C204 C203 1.170 . S
C205 C203 1.380 . S
C205 C206 1.170 . S
C206 C205 1.170 . S
C136 C20 1.324 . S
C138 N128 1.357 . S
C140 C41 1.380 . S
C142 N106 1.340 . S
C144 C64 1.412 . S
C146 N117 1.396 . S
C148 C19 1.351 . S
C150 C130 1.418 . S
C154 C108 1.380 . S
C152 C44 1.374 . S
C158 C119 1.329 . S
C156 C67 1.334 . S
C160 C43 1.348 . S
C162 N84 1.350 . S
C164 C66 1.286 . S
C166 C97 1.315 . S
C168 C21 1.379 . S
C170 C75 1.393 . S
C174 C86 1.411 . S
C172 C42 1.352 . S
C178 N95 1.401 . S
C176 C65 1.341 . S
C180 C18 1.376 . S
C182 N73 1.366 . S
C186 C100 1.512 . S
C184 C17 1.518 . S
C188 C39 1.527 . S
C190 C78 1.526 . S
C192 C62 1.522 . S
C194 C89 1.522 . S
C198 C122 1.515 . S
C196 C40 1.501 . S
C202 C133 1.501 . S
C200 C63 1.518 . S
C204 C16 1.523 . S
C206 C111 1.519 . S
