# Generated by pormake.
# Topology sit, (3,6)-cn, num edge types: 1
# Building blocks:
#     Node 0, Type 0, BuildingBlock: QEWDON_clean_linker_0, # of connection points: 3
#     Node 1, Type 0, BuildingBlock: QEWDON_clean_linker_0, # of connection points: 3
#     Node 2, Type 0, BuildingBlock: QEWDON_clean_linker_0, # of connection points: 3
#     Node 3, Type 0, BuildingBlock: QEWDON_clean_linker_0, # of connection points: 3
#     Node 4, Type 1, BuildingBlock: MIDCAF_clean_sbu_0, # of connection points: 6
#     Node 5, Type 1, BuildingBlock: MIDCAF_clean_sbu_0, # of connection points: 6
#     Edge 6, Type (0, 1), BuildingBlock: EYOCIG_clean_linker_4, # of connection points: 2
#     Edge 7, Type (0, 1), BuildingBlock: EYOCIG_clean_linker_4, # of connection points: 2
#     Edge 8, Type (0, 1), BuildingBlock: EYOCIG_clean_linker_4, # of connection points: 2
#     Edge 9, Type (0, 1), BuildingBlock: EYOCIG_clean_linker_4, # of connection points: 2
#     Edge 10, Type (0, 1), BuildingBlock: EYOCIG_clean_linker_4, # of connection points: 2
#     Edge 11, Type (0, 1), BuildingBlock: EYOCIG_clean_linker_4, # of connection points: 2
#     Edge 12, Type (0, 1), BuildingBlock: EYOCIG_clean_linker_4, # of connection points: 2
#     Edge 13, Type (0, 1), BuildingBlock: EYOCIG_clean_linker_4, # of connection points: 2
#     Edge 14, Type (0, 1), BuildingBlock: EYOCIG_clean_linker_4, # of connection points: 2
#     Edge 15, Type (0, 1), BuildingBlock: EYOCIG_clean_linker_4, # of connection points: 2
#     Edge 16, Type (0, 1), BuildingBlock: EYOCIG_clean_linker_4, # of connection points: 2
#     Edge 17, Type (0, 1), BuildingBlock: EYOCIG_clean_linker_4, # of connection points: 2
# Relax obj value: 0.077
# Max RMSD: 0.186
# Mean RMSD: 0.146
data_MOF--net-sit--node1-MIDCAF_clean_sbu_0--node2-QEWDON_clean_linker_0--edge1-EYOCIG_clean_linker_4
_symmetry_space_group_name_H-M    P1
_symmetry_Int_Tables_number       1
_symmetry_cell_setting            triclinic
loop_
_symmetry_equiv_pos_as_xyz
'x, y, z'
_cell_length_a     16.788812
_cell_length_b     27.940165
_cell_length_c     31.919553
_cell_angle_alpha  89.426397
_cell_angle_beta   84.346457
_cell_angle_gamma 82.433297
loop_
_atom_site_label
_atom_site_type_symbol
_atom_site_fract_x
_atom_site_fract_y
_atom_site_fract_z
_atom_type_partial_charge
H0 H 0.20648 0.29844 0.03564 0.0
C1 C 0.15005 0.31826 0.02763 0.0
C2 C 0.14756 0.36628 0.01381 0.0
C3 C 0.08109 0.29455 0.02734 0.0
H4 H 0.07549 0.42736 0.98883 0.0
C5 C 0.07628 0.39086 0.001 0.0
C6 C 0.00813 0.3675 0.00019 0.0
C7 C 0.01002 0.31948 0.01362 0.0
C8 C 0.08692 0.24187 0.03394 0.0
H9 H 0.958 0.30074 0.01126 0.0
C10 C 0.07775 0.22206 0.07455 0.0
C11 C 0.08049 0.17178 0.07959 0.0
C12 C 0.09932 0.21113 -0.00128 0.0
H13 H 0.10617 0.22584 0.96723 0.0
C14 C 0.10268 0.16124 0.00386 0.0
H15 H 0.06766 0.24561 0.10187 0.0
C16 C 0.09319 0.14157 0.04414 0.0
H17 H 0.09553 0.1028 0.04759 0.0
H18 H 0.11228 0.13779 0.97655 0.0
H19 H 0.09215 0.72444 0.0795 0.0
C20 C 0.0486 0.71009 0.06189 0.0
C21 C 0.07566 0.6755 0.0302 0.0
C22 C 0.96506 0.7255 0.07089 0.0
H23 H 0.04151 0.62939 0.98326 0.0
C24 C 0.02032 0.65603 0.00778 0.0
C25 C 0.93806 0.67092 0.01619 0.0
C26 C 0.91025 0.70576 0.04728 0.0
C27 C 0.93393 0.76096 0.10527 0.0
H28 H 0.84598 0.71765 0.05274 0.0
C29 C -0.02554 0.80071 0.11336 0.0
C30 C 0.94314 0.83344 0.146 0.0
C31 C 0.86223 0.75493 0.13056 0.0
H32 H 0.83046 0.72434 0.12612 0.0
C33 C 0.83105 0.78779 0.16249 0.0
H34 H 0.02986 0.80617 0.09456 0.0
C35 C 0.87126 0.82682 0.17024 0.0
H36 H 0.84674 0.85153 0.19567 0.0
H37 H 0.77596 0.78265 0.18165 0.0
H38 H 0.70548 0.79878 0.53571 0.0
C39 C 0.64901 0.81863 0.5278 0.0
C40 C 0.64653 0.86664 0.51396 0.0
C41 C 0.57996 0.79497 0.52764 0.0
H42 H 0.5744 0.92776 0.48907 0.0
C43 C 0.57519 0.89127 0.50127 0.0
C44 C 0.50696 0.86796 0.50058 0.0
C45 C 0.50883 0.81995 0.51403 0.0
C46 C 0.58576 0.74229 0.53422 0.0
H47 H 0.45675 0.80125 0.51176 0.0
C48 C 0.57688 0.72244 0.57482 0.0
C49 C 0.57957 0.67216 0.57985 0.0
C50 C 0.59783 0.71158 0.49898 0.0
H51 H 0.60446 0.72632 0.46749 0.0
C52 C 0.60115 0.6617 0.5041 0.0
H53 H 0.56703 0.74597 0.60217 0.0
C54 C 0.59194 0.64199 0.54437 0.0
H55 H 0.59425 0.60321 0.54781 0.0
H56 H 0.61049 0.63827 0.47677 0.0
H57 H 0.59148 0.22462 0.57936 0.0
C58 C 0.5478 0.21032 0.56181 0.0
C59 C 0.57462 0.17578 0.53005 0.0
C60 C 0.46429 0.22575 0.57096 0.0
H61 H 0.54012 0.12978 0.48313 0.0
C62 C 0.5191 0.15638 0.50771 0.0
C63 C 0.43688 0.17129 0.51627 0.0
C64 C 0.40929 0.20607 0.54744 0.0
C65 C 0.43341 0.26113 0.60544 0.0
H66 H 0.34503 0.21796 0.55303 0.0
C67 C 0.47396 0.30088 0.61346 0.0
C68 C 0.44286 0.33354 0.64619 0.0
C69 C 0.36192 0.25501 0.63088 0.0
H70 H 0.33015 0.22441 0.62647 0.0
C71 C 0.33097 0.28779 0.6629 0.0
H72 H 0.5292 0.3064 0.59455 0.0
C73 C 0.3712 0.32683 0.67058 0.0
H74 H 0.34686 0.35149 0.69608 0.0
H75 H 0.27605 0.28258 0.68218 0.0
Zn76 Zn 0.03482 0.12767 0.36062 0.0
Zn77 Zn 0.07436 0.93504 0.3597 0.0
Zn78 Zn 0.05333 0.03039 0.36242 0.0
C79 C 0.05407 0.96376 0.27838 0.0
C80 C 0.93775 0.96426 0.41547 0.0
O81 O 0.15686 0.05372 0.3899 0.0
O82 O 0.13406 0.13372 0.38779 0.0
C83 C 0.04291 0.09753 0.27789 0.0
O84 O 0.04933 1.00554 0.29604 0.0
O85 O 0.06543 0.92563 0.29955 0.0
O86 O -0.01941 0.92685 0.4003 0.0
O87 O 0.95351 1.00663 0.40415 0.0
O88 O 0.03537 0.13599 0.29905 0.0
O89 O 0.04889 0.05596 0.29614 0.0
O90 O 0.94442 0.05756 0.40447 0.0
O91 O 0.93293 0.13729 0.39817 0.0
C92 C 0.9083 0.10002 0.41457 0.0
O93 O 0.16676 1.00291 0.38965 0.0
O94 O 0.18005 0.92336 0.38217 0.0
C95 C 0.17631 0.09547 0.39793 0.0
C96 C 0.2053 0.96062 0.39485 0.0
Zn97 Zn 0.53579 0.62751 0.86083 0.0
Zn98 Zn 0.57497 0.43488 0.85965 0.0
Zn99 Zn 0.55413 0.53023 0.86249 0.0
C100 C 0.55434 0.46377 0.7784 0.0
C101 C 0.43862 0.4641 0.91559 0.0
O102 O 0.65789 0.55342 0.88984 0.0
O103 O 0.63522 0.63343 0.88786 0.0
C104 C 0.54335 0.59755 0.77807 0.0
O105 O 0.54977 0.50552 0.7961 0.0
O106 O 0.56572 0.4256 0.79952 0.0
O107 O 0.48133 0.42669 0.90035 0.0
O108 O 0.45442 0.50647 0.9043 0.0
O109 O 0.536 0.63595 0.79929 0.0
O110 O 0.54936 0.55593 0.79625 0.0
O111 O 0.44542 0.55739 0.90468 0.0
O112 O 0.43406 0.63713 0.89851 0.0
C113 C 0.40941 0.59985 0.91489 0.0
O114 O 0.66771 0.50261 0.88953 0.0
O115 O 0.6808 0.42307 0.88197 0.0
C116 C 0.67747 0.59513 0.89789 0.0
C117 C 0.70621 0.46029 0.89463 0.0
C118 C 0.06136 0.13247 0.15519 0.0
C119 C 0.07 0.15077 0.12091 0.0
C120 C 0.05328 0.1131 0.19625 0.0
C121 C 0.04908 0.10153 0.23283 0.0
C122 C 0.00909 0.90613 0.17358 0.0
C123 C -0.01435 0.87233 0.15744 0.0
C124 C 0.02888 0.93951 0.20268 0.0
C125 C 0.03978 0.95841 0.23511 0.0
C126 C 0.56097 0.63275 0.65543 0.0
C127 C 0.56937 0.65111 0.62116 0.0
C128 C 0.55318 0.6133 0.69646 0.0
C129 C 0.54921 0.60165 0.73303 0.0
C130 C 0.5089 0.40626 0.67366 0.0
C131 C 0.4854 0.37246 0.65754 0.0
C132 C 0.52881 0.43963 0.70273 0.0
C133 C 0.53987 0.4585 0.73515 0.0
C134 C 0.27044 0.41394 0.99379 0.0
C135 C 0.21969 0.38858 0.00493 0.0
C136 C 0.32536 0.44116 0.97136 0.0
C137 C 0.37387 0.4575 0.94686 0.0
C138 C 0.8415 0.63149 0.97031 0.0
C139 C 0.88325 0.65039 0.99195 0.0
C140 C 0.79141 0.6115 0.94427 0.0
C141 C 0.74176 0.59952 0.92323 0.0
C142 C 0.88802 0.41433 0.96281 0.0
C143 C 0.94103 0.39143 0.98013 0.0
C144 C 0.82792 0.43859 0.93965 0.0
C145 C 0.77287 0.45348 0.91963 0.0
C146 C 0.22296 0.64113 0.00092 0.0
C147 C 0.15975 0.66002 0.01812 0.0
C148 C 0.28924 0.61988 0.97378 0.0
C149 C 0.34394 0.60645 0.94752 0.0
C150 C 0.76947 0.91419 0.49369 0.0
C151 C 0.71869 0.88888 0.50493 0.0
C152 C 0.8244 0.94135 0.4712 0.0
C153 C 0.87294 0.95766 0.4467 0.0
C154 C 0.34006 0.13195 0.47048 0.0
C155 C 0.38188 0.15082 0.4921 0.0
C156 C 0.28999 0.11196 0.44443 0.0
C157 C 0.24045 0.09995 0.42335 0.0
C158 C 0.38679 0.91482 0.46327 0.0
C159 C 0.43982 0.89191 0.48057 0.0
C160 C 0.32676 0.93907 0.44007 0.0
C161 C 0.27181 0.95391 0.41996 0.0
C162 C 0.7218 0.14136 0.50057 0.0
C163 C 0.65866 0.16026 0.51784 0.0
C164 C 0.78804 0.1201 0.47341 0.0
C165 C 0.84278 0.10665 0.44718 0.0
loop_
_geom_bond_atom_site_label_1
_geom_bond_atom_site_label_2
_geom_bond_distance
_geom_bond_site_symmetry_2
_ccdc_geom_bond_type
H0 C1 0.949 . S
C1 H0 0.949 . S
C1 C2 1.395 1_554 S
C1 C3 1.391 . S
C2 C1 1.395 1_556 S
C2 C5 1.390 . S
C3 C1 1.391 . S
C3 C7 1.387 . S
C3 C8 1.491 . S
H4 C5 0.950 . S
C5 C2 1.390 . S
C5 H4 0.950 . S
C5 C6 1.378 . S
C6 C5 1.378 . S
C6 C7 1.409 1_556 S
C7 C3 1.387 . S
C7 C6 1.409 1_554 S
C7 H9 0.951 . S
C8 C3 1.491 . S
C8 C10 1.382 . S
C8 C12 1.404 . S
H9 C7 0.951 . S
C10 C8 1.382 . S
C10 C11 1.390 . S
C10 H15 0.949 . S
C11 C10 1.390 . S
C11 C16 1.399 . S
C12 C8 1.404 . S
C12 H13 0.950 . S
C12 C14 1.375 . S
H13 C12 0.950 . S
C14 C12 1.375 . S
C14 C16 1.382 . S
C14 H18 0.950 . S
H15 C10 0.949 . S
C16 C11 1.399 . S
C16 C14 1.382 . S
C16 H17 0.952 . S
H17 C16 0.952 . S
H18 C14 0.950 . S
H19 C20 0.949 . S
C20 H19 0.949 . S
C20 C21 1.395 1_554 S
C20 C22 1.391 1_455 S
C21 C20 1.395 1_556 S
C21 C24 1.390 . S
C22 C20 1.391 1_655 S
C22 C26 1.387 . S
C22 C27 1.491 . S
H23 C24 0.950 . S
C24 C21 1.390 . S
C24 H23 0.950 . S
C24 C25 1.378 1_455 S
C25 C24 1.378 1_655 S
C25 C26 1.409 1_556 S
C26 C22 1.387 . S
C26 C25 1.409 1_554 S
C26 H28 0.951 . S
C27 C22 1.491 . S
C27 C29 1.382 . S
C27 C31 1.404 . S
H28 C26 0.951 . S
C29 C27 1.382 . S
C29 C30 1.390 . S
C29 H34 0.949 1_655 S
C30 C29 1.390 . S
C30 C35 1.399 . S
C31 C27 1.404 . S
C31 H32 0.950 . S
C31 C33 1.375 . S
H32 C31 0.950 . S
C33 C31 1.375 . S
C33 C35 1.382 . S
C33 H37 0.950 . S
H34 C29 0.949 1_455 S
C35 C30 1.399 . S
C35 C33 1.382 . S
C35 H36 0.952 . S
H36 C35 0.952 . S
H37 C33 0.950 . S
H38 C39 0.949 . S
C39 H38 0.949 . S
C39 C40 1.395 . S
C39 C41 1.391 . S
C40 C39 1.395 . S
C40 C43 1.390 . S
C41 C39 1.391 . S
C41 C45 1.387 . S
C41 C46 1.491 . S
H42 C43 0.950 . S
C43 C40 1.390 . S
C43 H42 0.950 . S
C43 C44 1.378 . S
C44 C43 1.378 . S
C44 C45 1.409 . S
C45 C41 1.387 . S
C45 C44 1.409 . S
C45 H47 0.951 . S
C46 C41 1.491 . S
C46 C48 1.382 . S
C46 C50 1.404 . S
H47 C45 0.951 . S
C48 C46 1.382 . S
C48 C49 1.390 . S
C48 H53 0.949 . S
C49 C48 1.390 . S
C49 C54 1.399 . S
C50 C46 1.404 . S
C50 H51 0.950 . S
C50 C52 1.375 . S
H51 C50 0.950 . S
C52 C50 1.375 . S
C52 C54 1.382 . S
C52 H56 0.950 . S
H53 C48 0.949 . S
C54 C49 1.399 . S
C54 C52 1.382 . S
C54 H55 0.952 . S
H55 C54 0.952 . S
H56 C52 0.950 . S
H57 C58 0.949 . S
C58 H57 0.949 . S
C58 C59 1.395 . S
C58 C60 1.391 . S
C59 C58 1.395 . S
C59 C62 1.390 . S
C60 C58 1.391 . S
C60 C64 1.387 . S
C60 C65 1.491 . S
H61 C62 0.950 . S
C62 C59 1.390 . S
C62 H61 0.950 . S
C62 C63 1.378 . S
C63 C62 1.378 . S
C63 C64 1.409 . S
C64 C60 1.387 . S
C64 C63 1.409 . S
C64 H66 0.951 . S
C65 C60 1.491 . S
C65 C67 1.382 . S
C65 C69 1.404 . S
H66 C64 0.951 . S
C67 C65 1.382 . S
C67 C68 1.390 . S
C67 H72 0.949 . S
C68 C67 1.390 . S
C68 C73 1.399 . S
C69 C65 1.404 . S
C69 H70 0.950 . S
C69 C71 1.375 . S
H70 C69 0.950 . S
C71 C69 1.375 . S
C71 C73 1.382 . S
C71 H75 0.950 . S
H72 C67 0.949 . S
C73 C68 1.399 . S
C73 C71 1.382 . S
C73 H74 0.952 . S
H74 C73 0.952 . S
H75 C71 0.950 . S
Zn76 O82 1.920 . S
Zn76 O88 1.898 . S
Zn76 O91 1.905 1_455 S
Zn77 O85 1.905 . S
Zn77 O86 1.898 . S
Zn77 O94 1.920 . S
Zn78 O81 2.080 . S
Zn78 O84 2.114 1_545 S
Zn78 O87 2.120 1_545 S
Zn78 O89 2.120 . S
Zn78 O90 2.114 1_455 S
Zn78 O93 2.080 1_545 S
C79 O84 1.166 . S
C79 O85 1.182 . S
C80 O86 1.167 1_655 S
C80 O87 1.299 1_655 S
O81 Zn78 2.080 . S
O81 C95 1.305 . S
O82 Zn76 1.920 . S
O82 C95 1.234 . S
C83 O88 1.167 . S
C83 O89 1.299 . S
O84 Zn78 2.114 1_565 S
O84 C79 1.166 . S
O85 Zn77 1.905 . S
O85 C79 1.182 . S
O86 Zn77 1.898 . S
O86 C80 1.167 1_455 S
O87 Zn78 2.120 1_565 S
O87 C80 1.299 1_455 S
O88 Zn76 1.898 . S
O88 C83 1.167 . S
O89 Zn78 2.120 . S
O89 C83 1.299 . S
O90 Zn78 2.114 1_655 S
O90 C92 1.166 . S
O91 Zn76 1.905 1_655 S
O91 C92 1.182 . S
C92 O90 1.166 . S
C92 O91 1.182 . S
O93 Zn78 2.080 1_565 S
O93 C96 1.305 . S
O94 Zn77 1.920 . S
O94 C96 1.234 . S
C95 O81 1.305 . S
C95 O82 1.234 . S
C96 O93 1.305 . S
C96 O94 1.234 . S
Zn97 O103 1.920 . S
Zn97 O109 1.898 . S
Zn97 O112 1.905 . S
Zn98 O106 1.905 . S
Zn98 O107 1.898 . S
Zn98 O115 1.920 . S
Zn99 O102 2.080 . S
Zn99 O105 2.114 . S
Zn99 O108 2.120 . S
Zn99 O110 2.120 . S
Zn99 O111 2.114 . S
Zn99 O114 2.080 . S
C100 O105 1.166 . S
C100 O106 1.182 . S
C101 O107 1.167 . S
C101 O108 1.299 . S
O102 Zn99 2.080 . S
O102 C116 1.305 . S
O103 Zn97 1.920 . S
O103 C116 1.234 . S
C104 O109 1.167 . S
C104 O110 1.299 . S
O105 Zn99 2.114 . S
O105 C100 1.166 . S
O106 Zn98 1.905 . S
O106 C100 1.182 . S
O107 Zn98 1.898 . S
O107 C101 1.167 . S
O108 Zn99 2.120 . S
O108 C101 1.299 . S
O109 Zn97 1.898 . S
O109 C104 1.167 . S
O110 Zn99 2.120 . S
O110 C104 1.299 . S
O111 Zn99 2.114 . S
O111 C113 1.166 . S
O112 Zn97 1.905 . S
O112 C113 1.182 . S
C113 O111 1.166 . S
C113 O112 1.182 . S
O114 Zn99 2.080 . S
O114 C117 1.305 . S
O115 Zn98 1.920 . S
O115 C117 1.234 . S
C116 O102 1.305 . S
C116 O103 1.234 . S
C117 O114 1.305 . S
C117 O115 1.234 . S
C118 C119 1.170 . S
C118 C120 1.380 . S
C119 C118 1.170 . S
C120 C118 1.380 . S
C120 C121 1.170 . S
C121 C120 1.170 . S
C122 C123 1.170 . S
C122 C124 1.380 . S
C123 C122 1.170 . S
C124 C122 1.380 . S
C124 C125 1.170 . S
C125 C124 1.170 . S
C126 C127 1.170 . S
C126 C128 1.380 . S
C127 C126 1.170 . S
C128 C126 1.380 . S
C128 C129 1.170 . S
C129 C128 1.170 . S
C130 C131 1.170 . S
C130 C132 1.380 . S
C131 C130 1.170 . S
C132 C130 1.380 . S
C132 C133 1.170 . S
C133 C132 1.170 . S
C134 C135 1.170 . S
C134 C136 1.380 . S
C135 C134 1.170 . S
C136 C134 1.380 . S
C136 C137 1.170 . S
C137 C136 1.170 . S
C138 C139 1.170 . S
C138 C140 1.380 . S
C139 C138 1.170 . S
C140 C138 1.380 . S
C140 C141 1.170 . S
C141 C140 1.170 . S
C142 C143 1.170 . S
C142 C144 1.380 . S
C143 C142 1.170 . S
C144 C142 1.380 . S
C144 C145 1.170 . S
C145 C144 1.170 . S
C146 C147 1.170 . S
C146 C148 1.380 . S
C147 C146 1.170 . S
C148 C146 1.380 . S
C148 C149 1.170 . S
C149 C148 1.170 . S
C150 C151 1.170 . S
C150 C152 1.380 . S
C151 C150 1.170 . S
C152 C150 1.380 . S
C152 C153 1.170 . S
C153 C152 1.170 . S
C154 C155 1.170 . S
C154 C156 1.380 . S
C155 C154 1.170 . S
C156 C154 1.380 . S
C156 C157 1.170 . S
C157 C156 1.170 . S
C158 C159 1.170 . S
C158 C160 1.380 . S
C159 C158 1.170 . S
C160 C158 1.380 . S
C160 C161 1.170 . S
C161 C160 1.170 . S
C162 C163 1.170 . S
C162 C164 1.380 . S
C163 C162 1.170 . S
C164 C162 1.380 . S
C164 C165 1.170 . S
C165 C164 1.170 . S
C121 C83 1.432 . S
C119 C11 1.410 . S
C125 C79 1.425 . S
C123 C30 1.430 1_455 S
C129 C104 1.456 . S
C127 C49 1.410 . S
C131 C68 1.400 . S
C133 C100 1.395 . S
C135 C2 1.347 . S
C137 C101 1.225 . S
C141 C116 1.185 . S
C139 C25 1.335 . S
C143 C6 1.753 1_655 S
C145 C117 1.574 . S
C149 C113 1.645 . S
C147 C21 1.741 . S
C153 C80 1.224 . S
C151 C40 1.329 . S
C155 C63 1.359 . S
C157 C95 1.153 . S
C161 C96 1.609 . S
C159 C44 1.745 . S
C165 C92 1.608 . S
C163 C59 1.763 . S
