# Generated by pormake.
# Topology sit, (3,6)-cn, num edge types: 1
# Building blocks:
#     Node 0, Type 0, BuildingBlock: CUQRIR_clean_linker_1, # of connection points: 3
#     Node 1, Type 0, BuildingBlock: CUQRIR_clean_linker_1, # of connection points: 3
#     Node 2, Type 0, BuildingBlock: CUQRIR_clean_linker_1, # of connection points: 3
#     Node 3, Type 0, BuildingBlock: CUQRIR_clean_linker_1, # of connection points: 3
#     Node 4, Type 1, BuildingBlock: MIDCAF_clean_sbu_0, # of connection points: 6
#     Node 5, Type 1, BuildingBlock: MIDCAF_clean_sbu_0, # of connection points: 6
#     Edge 6, Type (0, 1), BuildingBlock: OJICUG_clean_linker_0, # of connection points: 2
#     Edge 7, Type (0, 1), BuildingBlock: OJICUG_clean_linker_0, # of connection points: 2
#     Edge 8, Type (0, 1), BuildingBlock: OJICUG_clean_linker_0, # of connection points: 2
#     Edge 9, Type (0, 1), BuildingBlock: OJICUG_clean_linker_0, # of connection points: 2
#     Edge 10, Type (0, 1), BuildingBlock: OJICUG_clean_linker_0, # of connection points: 2
#     Edge 11, Type (0, 1), BuildingBlock: OJICUG_clean_linker_0, # of connection points: 2
#     Edge 12, Type (0, 1), BuildingBlock: OJICUG_clean_linker_0, # of connection points: 2
#     Edge 13, Type (0, 1), BuildingBlock: OJICUG_clean_linker_0, # of connection points: 2
#     Edge 14, Type (0, 1), BuildingBlock: OJICUG_clean_linker_0, # of connection points: 2
#     Edge 15, Type (0, 1), BuildingBlock: OJICUG_clean_linker_0, # of connection points: 2
#     Edge 16, Type (0, 1), BuildingBlock: OJICUG_clean_linker_0, # of connection points: 2
#     Edge 17, Type (0, 1), BuildingBlock: OJICUG_clean_linker_0, # of connection points: 2
# Relax obj value: 0.072
# Max RMSD: 0.181
# Mean RMSD: 0.117
data_MOF--net-sit--node1-MIDCAF_clean_sbu_0--node2-CUQRIR_clean_linker_1--edge1-OJICUG_clean_linker_0
_symmetry_space_group_name_H-M    P1
_symmetry_Int_Tables_number       1
_symmetry_cell_setting            triclinic
loop_
_symmetry_equiv_pos_as_xyz
'x, y, z'
_cell_length_a     14.226783
_cell_length_b     19.268178
_cell_length_c     26.602402
_cell_angle_alpha  90.485763
_cell_angle_beta   89.273964
_cell_angle_gamma 83.017201
loop_
_atom_site_label
_atom_site_type_symbol
_atom_site_fract_x
_atom_site_fract_y
_atom_site_fract_z
_atom_type_partial_charge
C0 C -0.03392 0.28052 -0.02985 0.0
N1 N -0.01269 0.33233 0.93981 0.0
N2 N 0.04189 0.25597 -0.00206 0.0
C3 C 0.87107 0.25367 -0.02794 0.0
C4 C 0.11032 0.29513 -0.01707 0.0
N5 N 0.07662 0.34213 0.94773 0.0
C6 C 0.21043 0.28531 0.00203 0.0
H7 H 0.82023 0.29153 -0.00662 0.0
H8 H 0.87551 0.20178 -0.00978 0.0
H9 H 0.84322 0.2493 0.93356 0.0
H10 H 0.24584 0.23382 -0.01108 0.0
H11 H 0.20959 0.28562 0.04375 0.0
H12 H 0.25435 0.32494 -0.01139 0.0
C13 C 0.89228 0.80336 0.02163 0.0
N14 N 0.91655 0.76088 -0.01856 0.0
N15 N -0.03263 0.83453 0.03725 0.0
C16 C 0.79367 0.81905 0.04331 0.0
C17 C 0.03812 0.8098 0.00501 0.0
N18 N 0.00696 0.76583 -0.02916 0.0
C19 C 0.13892 0.82576 0.00868 0.0
H20 H 0.78379 0.87127 0.06189 0.0
H21 H 0.78184 0.77919 0.07178 0.0
H22 H 0.74011 0.8175 0.01348 0.0
H23 H 0.16084 0.82599 0.04855 0.0
H24 H 0.14361 0.87856 -0.00673 0.0
H25 H 0.18903 0.78773 -0.01281 0.0
C26 C 0.524 0.86446 0.51342 0.0
N27 N 0.5538 0.90777 0.47851 0.0
N28 N 0.59528 0.84196 0.54476 0.0
C29 C 0.42423 0.84639 0.51806 0.0
C30 C 0.66923 0.87393 0.52786 0.0
N31 N 0.64378 0.91457 0.48772 0.0
C32 C 0.76835 0.86 0.54762 0.0
H33 H 0.40391 0.84113 0.55812 0.0
H34 H 0.42007 0.79564 0.49872 0.0
H35 H 0.37276 0.88642 0.50041 0.0
H36 H 0.77981 0.80853 0.56641 0.0
H37 H 0.77979 0.90126 0.57544 0.0
H38 H 0.82129 0.86097 0.51672 0.0
C39 C 0.45769 0.37549 0.47882 0.0
N40 N 0.49074 0.32843 0.4425 0.0
N41 N 0.52338 0.41894 0.48977 0.0
C42 C 0.3627 0.37729 0.50495 0.0
C43 C 0.59642 0.3971 0.45801 0.0
N44 N 0.57655 0.34267 0.42945 0.0
C45 C 0.68983 0.42637 0.45669 0.0
H46 H 0.33581 0.42988 0.5194 0.0
H47 H 0.36957 0.34105 0.53724 0.0
H48 H 0.30881 0.36111 0.47904 0.0
H49 H 0.74489 0.38821 0.47362 0.0
H50 H 0.68575 0.47693 0.47736 0.0
H51 H 0.71174 0.43432 0.4172 0.0
Zn52 Zn 0.07191 0.20901 0.28368 0.0
Zn53 Zn 0.08675 0.96349 0.32324 0.0
Zn54 Zn 0.0722 0.08608 0.30283 0.0
C55 C 0.03549 0.96578 0.22487 0.0
C56 C 0.9398 1.01825 0.38154 0.0
O57 O 0.20037 0.12619 0.33678 0.0
O58 O 0.16899 0.24022 0.32571 0.0
C59 C 0.0839 0.15071 0.19198 0.0
O60 O 0.05809 1.02826 0.23053 0.0
O61 O 0.03429 0.9266 0.26246 0.0
O62 O 0.00236 0.96608 0.38279 0.0
O63 O 0.94919 1.06871 0.35114 0.0
O64 O 0.10215 0.20655 0.21235 0.0
O65 O 0.06539 0.099 0.21935 0.0
O66 O 0.93948 0.14021 0.33723 0.0
O67 O 0.93966 0.24274 0.30116 0.0
C68 C 0.89814 0.20202 0.32806 0.0
O69 O 0.21034 1.05302 0.34123 0.0
O70 O 0.22266 0.93822 0.33295 0.0
C71 C 0.22142 0.18905 0.34313 0.0
C72 C 0.25855 0.99211 0.34589 0.0
Zn73 Zn 0.48354 0.69449 0.82499 0.0
Zn74 Zn 0.50824 0.44847 0.78213 0.0
Zn75 Zn 0.49985 0.57503 0.80154 0.0
C76 C 0.50733 0.50856 0.68998 0.0
C77 C 0.34702 0.47086 0.83705 0.0
O78 O 0.62037 0.59627 0.84931 0.0
O79 O 0.55606 0.69246 0.88798 0.0
C80 C 0.54123 0.69616 0.72755 0.0
O81 O 0.50848 0.56379 0.7176 0.0
O82 O 0.50289 0.45003 0.70984 0.0
O83 O 0.39739 0.42047 0.81593 0.0
O84 O 0.37222 0.53307 0.83558 0.0
O85 O 0.54642 0.7319 0.76706 0.0
O86 O 0.51378 0.6348 0.7306 0.0
O87 O 0.35944 0.60655 0.8402 0.0
O88 O 0.3462 0.72055 0.82928 0.0
C89 C 0.30975 0.66728 0.84285 0.0
O90 O 0.63217 0.52364 0.83614 0.0
O91 O 0.63294 0.41515 0.80881 0.0
C92 C 0.62395 0.64435 0.88298 0.0
C93 C 0.67274 0.46021 0.83239 0.0
C94 C -0.02942 0.22987 0.07905 0.0
C95 C 0.04184 0.2137 0.04241 0.0
H96 H 0.92647 0.2176 0.15508 0.0
C97 C 0.11822 0.1626 0.05297 0.0
H98 H 0.91194 0.26989 0.07255 0.0
C99 C 0.1291 0.1352 0.10144 0.0
C100 C 0.0605 0.1554 0.13871 0.0
H101 H 0.17245 0.14729 0.02486 0.0
H102 H 0.19338 0.10186 0.11059 0.0
C103 C -0.021 0.19998 0.12639 0.0
C104 C 0.94812 0.84447 0.1288 0.0
C105 C -0.02421 0.87257 0.0834 0.0
H106 H 0.94362 0.85259 0.20866 0.0
C107 C 0.01835 0.93467 0.08421 0.0
H108 H 0.91675 0.79603 0.12916 0.0
C109 C 0.0362 0.96653 0.13007 0.0
C110 C 0.01063 0.93733 0.1756 0.0
H111 H 0.03986 0.95741 0.04948 0.0
H112 H 0.07318 1.01202 0.12999 0.0
C113 C -0.03526 0.87661 0.17431 0.0
C114 C 0.55029 0.7376 0.58834 0.0
C115 C 0.59003 0.80089 0.5894 0.0
H116 H 0.50167 0.65557 0.63167 0.0
C117 C 0.61954 0.82622 0.6353 0.0
H118 H 0.52782 0.71676 0.55317 0.0
C119 C 0.60717 0.7902 0.67959 0.0
C120 C 0.5637 0.7283 0.67916 0.0
H121 H 0.64923 0.8753 0.63713 0.0
H122 H 0.62933 0.81223 0.71446 0.0
C123 C 0.53661 0.70194 0.63299 0.0
C124 C 0.60371 0.43498 0.56911 0.0
C125 C 0.53002 0.45685 0.53622 0.0
H126 H 0.65652 0.43928 0.64354 0.0
C127 C 0.45868 0.50985 0.55195 0.0
H128 H 0.65906 0.39382 0.55823 0.0
C129 C 0.45425 0.53322 0.60207 0.0
C130 C 0.52495 0.50728 0.63565 0.0
H131 H 0.40312 0.52951 0.52652 0.0
H132 H 0.39295 0.56774 0.61527 0.0
C133 C 0.60215 0.461 0.61796 0.0
C134 C 0.18304 0.43435 0.94294 0.0
C135 C 0.12943 0.38754 0.91894 0.0
H136 H 0.30153 0.49256 0.93615 0.0
C137 C 0.13653 0.37937 0.86661 0.0
H138 H 0.17786 0.44172 -0.01668 0.0
C139 C 0.20122 0.41329 0.83916 0.0
C140 C 0.26134 0.45482 0.86373 0.0
H141 H 0.09707 0.34283 0.8474 0.0
H142 H 0.20941 0.40275 0.79916 0.0
C143 C 0.2514 0.46546 0.91581 0.0
C144 C 0.84594 0.72398 0.90291 0.0
C145 C 0.85615 0.71833 0.95511 0.0
H146 H 0.76539 0.70109 0.83871 0.0
C147 C 0.79861 0.67679 -0.01794 0.0
H148 H 0.88675 0.75732 0.88145 0.0
C149 C 0.72604 0.6472 0.95796 0.0
C150 C 0.71348 0.65584 0.90618 0.0
H151 H 0.80627 0.67078 0.02226 0.0
H152 H 0.67719 0.6205 -0.01998 0.0
C153 C 0.77603 0.69209 0.87852 0.0
C154 C 0.89864 0.34656 0.86185 0.0
C155 C 0.9217 0.37353 0.90837 0.0
H156 H 0.80281 0.35456 0.80059 0.0
C157 C 0.8691 0.43454 0.92751 0.0
H158 H 0.9377 0.29874 0.84725 0.0
C159 C 0.79051 0.46611 0.90144 0.0
C160 C 0.76435 0.43693 0.85597 0.0
H161 H 0.8853 0.45486 -0.03594 0.0
H162 H 0.74658 0.5098 0.91856 0.0
C163 C 0.82112 0.37822 0.83566 0.0
C164 C 0.0767 0.76113 0.88629 0.0
C165 C 0.06402 0.72849 0.93228 0.0
H166 H 0.16273 0.76428 0.82003 0.0
C167 C 0.12426 0.66829 0.94471 0.0
H168 H 0.03296 0.80922 0.87714 0.0
C169 C 0.20107 0.64445 0.91327 0.0
C170 C 0.21645 0.67876 0.86822 0.0
H171 H 0.11763 0.6445 -0.01889 0.0
H172 H 0.2541 0.60479 0.92692 0.0
C173 C 0.15131 0.73574 0.85405 0.0
C174 C 0.7161 0.94283 0.40702 0.0
C175 C 0.70405 0.95466 0.45887 0.0
H176 H 0.79952 0.95737 0.34131 0.0
C177 C 0.76081 0.9991 0.48329 0.0
H178 H 0.67599 0.90706 0.3876 0.0
C179 C 0.83422 1.02583 0.45715 0.0
C180 C 0.8489 1.01072 0.40587 0.0
H181 H 0.75213 1.0093 0.52326 0.0
H182 H 0.88251 1.05484 0.47745 0.0
C183 C 0.78727 0.97132 0.38062 0.0
C184 C 0.43568 0.27751 0.36481 0.0
C185 C 0.43942 0.2783 0.41746 0.0
H186 H 0.36524 0.24475 0.29977 0.0
C187 C 0.38311 0.23634 0.44481 0.0
H188 H 0.477 0.31008 0.34279 0.0
C189 C 0.31513 0.20213 0.42034 0.0
C190 C 0.30813 0.2046 0.36787 0.0
H191 H 0.38631 0.23463 0.48539 0.0
H192 H 0.26361 0.17856 0.4427 0.0
C193 C 0.37136 0.24037 0.34023 0.0
C194 C 0.4864 0.90085 0.39486 0.0
C195 C 0.49746 0.93959 0.43868 0.0
H196 H 0.4041 0.88961 0.32923 0.0
C197 C 0.43746 1.00167 0.44794 0.0
H198 H 0.53014 0.85151 0.3882 0.0
C199 C 0.36301 1.02208 0.41535 0.0
C200 C 0.34944 0.98197 0.37245 0.0
H201 H 0.44288 1.03044 0.48272 0.0
H202 H 0.31044 1.06454 0.42644 0.0
C203 C 0.41399 0.92243 0.36154 0.0
C204 C 0.67391 0.32287 0.35314 0.0
C205 C 0.64442 0.29887 0.39942 0.0
H206 H 0.77615 0.30942 0.29349 0.0
C207 C 0.69163 0.23742 0.4196 0.0
H208 H 0.63828 0.37055 0.3375 0.0
C209 C 0.77178 0.20274 0.39508 0.0
C210 C 0.80482 0.22906 0.35 0.0
H211 H 0.67002 0.21913 0.45584 0.0
H212 H 0.81126 0.15859 0.41302 0.0
C213 C 0.75296 0.28804 0.32842 0.0
loop_
_geom_bond_atom_site_label_1
_geom_bond_atom_site_label_2
_geom_bond_distance
_geom_bond_site_symmetry_2
_ccdc_geom_bond_type
C0 N1 1.317 1_554 S
C0 N2 1.348 . S
C0 C3 1.485 1_455 S
N1 C0 1.317 1_556 S
N1 N5 1.370 . S
N2 C0 1.348 . S
N2 C4 1.346 . S
C3 C0 1.485 1_655 S
C3 H7 0.960 . S
C3 H8 0.961 . S
C3 H9 0.960 . S
C4 N2 1.346 . S
C4 N5 1.307 1_554 S
C4 C6 1.486 . S
N5 N1 1.370 . S
N5 C4 1.307 1_556 S
C6 C4 1.486 . S
C6 H10 0.960 . S
C6 H11 0.960 . S
C6 H12 0.959 . S
H7 C3 0.960 . S
H8 C3 0.961 . S
H9 C3 0.960 . S
H10 C6 0.960 . S
H11 C6 0.960 . S
H12 C6 0.959 . S
C13 N14 1.306 1_554 S
C13 N15 1.344 1_655 S
C13 C16 1.485 . S
N14 C13 1.306 1_556 S
N14 N18 1.371 1_655 S
N15 C13 1.344 1_455 S
N15 C17 1.351 . S
C16 C13 1.485 . S
C16 H20 0.960 . S
C16 H21 0.961 . S
C16 H22 0.960 . S
C17 N15 1.351 . S
C17 N18 1.307 1_554 S
C17 C19 1.486 . S
N18 N14 1.371 1_455 S
N18 C17 1.307 1_556 S
C19 C17 1.486 . S
C19 H23 0.960 . S
C19 H24 0.960 . S
C19 H25 0.959 . S
H20 C16 0.960 . S
H21 C16 0.961 . S
H22 C16 0.960 . S
H23 C19 0.960 . S
H24 C19 0.960 . S
H25 C19 0.959 . S
C26 N27 1.317 . S
C26 N28 1.348 . S
C26 C29 1.485 . S
N27 C26 1.317 . S
N27 N31 1.370 . S
N28 C26 1.348 . S
N28 C30 1.346 . S
C29 C26 1.485 . S
C29 H33 0.960 . S
C29 H34 0.961 . S
C29 H35 0.960 . S
C30 N28 1.346 . S
C30 N31 1.307 . S
C30 C32 1.486 . S
N31 N27 1.370 . S
N31 C30 1.307 . S
C32 C30 1.486 . S
C32 H36 0.960 . S
C32 H37 0.960 . S
C32 H38 0.959 . S
H33 C29 0.960 . S
H34 C29 0.961 . S
H35 C29 0.960 . S
H36 C32 0.960 . S
H37 C32 0.960 . S
H38 C32 0.959 . S
C39 N40 1.317 . S
C39 N41 1.348 . S
C39 C42 1.485 . S
N40 C39 1.317 . S
N40 N44 1.370 . S
N41 C39 1.348 . S
N41 C43 1.346 . S
C42 C39 1.485 . S
C42 H46 0.960 . S
C42 H47 0.961 . S
C42 H48 0.960 . S
C43 N41 1.346 . S
C43 N44 1.307 . S
C43 C45 1.486 . S
N44 N40 1.370 . S
N44 C43 1.307 . S
C45 C43 1.486 . S
C45 H49 0.960 . S
C45 H50 0.960 . S
C45 H51 0.959 . S
H46 C42 0.960 . S
H47 C42 0.961 . S
H48 C42 0.960 . S
H49 C45 0.960 . S
H50 C45 0.960 . S
H51 C45 0.959 . S
Zn52 O58 1.920 . S
Zn52 O64 1.898 . S
Zn52 O67 1.905 1_455 S
Zn53 O61 1.905 . S
Zn53 O62 1.898 1_455 S
Zn53 O70 1.920 . S
Zn54 O57 2.080 . S
Zn54 O60 2.114 1_545 S
Zn54 O63 2.120 1_545 S
Zn54 O65 2.120 . S
Zn54 O66 2.114 1_455 S
Zn54 O69 2.080 1_545 S
C55 O60 1.166 . S
C55 O61 1.182 . S
C56 O62 1.167 . S
C56 O63 1.299 1_655 S
O57 Zn54 2.080 . S
O57 C71 1.305 . S
O58 Zn52 1.920 . S
O58 C71 1.234 . S
C59 O64 1.167 . S
C59 O65 1.299 . S
O60 Zn54 2.114 1_565 S
O60 C55 1.166 . S
O61 Zn53 1.905 . S
O61 C55 1.182 . S
O62 Zn53 1.898 1_655 S
O62 C56 1.167 . S
O63 Zn54 2.120 1_565 S
O63 C56 1.299 1_455 S
O64 Zn52 1.898 . S
O64 C59 1.167 . S
O65 Zn54 2.120 . S
O65 C59 1.299 . S
O66 Zn54 2.114 1_655 S
O66 C68 1.166 . S
O67 Zn52 1.905 1_655 S
O67 C68 1.182 . S
C68 O66 1.166 . S
C68 O67 1.182 . S
O69 Zn54 2.080 1_565 S
O69 C72 1.305 . S
O70 Zn53 1.920 . S
O70 C72 1.234 . S
C71 O57 1.305 . S
C71 O58 1.234 . S
C72 O69 1.305 . S
C72 O70 1.234 . S
Zn73 O79 1.920 . S
Zn73 O85 1.898 . S
Zn73 O88 1.905 . S
Zn74 O82 1.905 . S
Zn74 O83 1.898 . S
Zn74 O91 1.920 . S
Zn75 O78 2.080 . S
Zn75 O81 2.114 . S
Zn75 O84 2.120 . S
Zn75 O86 2.120 . S
Zn75 O87 2.114 . S
Zn75 O90 2.080 . S
C76 O81 1.166 . S
C76 O82 1.182 . S
C77 O83 1.167 . S
C77 O84 1.299 . S
O78 Zn75 2.080 . S
O78 C92 1.305 . S
O79 Zn73 1.920 . S
O79 C92 1.234 . S
C80 O85 1.167 . S
C80 O86 1.299 . S
O81 Zn75 2.114 . S
O81 C76 1.166 . S
O82 Zn74 1.905 . S
O82 C76 1.182 . S
O83 Zn74 1.898 . S
O83 C77 1.167 . S
O84 Zn75 2.120 . S
O84 C77 1.299 . S
O85 Zn73 1.898 . S
O85 C80 1.167 . S
O86 Zn75 2.120 . S
O86 C80 1.299 . S
O87 Zn75 2.114 . S
O87 C89 1.166 . S
O88 Zn73 1.905 . S
O88 C89 1.182 . S
C89 O87 1.166 . S
C89 O88 1.182 . S
O90 Zn75 2.080 . S
O90 C93 1.305 . S
O91 Zn74 1.920 . S
O91 C93 1.234 . S
C92 O78 1.305 . S
C92 O79 1.234 . S
C93 O90 1.305 . S
C93 O91 1.234 . S
C94 C95 1.387 . S
C94 H98 0.950 . S
C94 C103 1.390 . S
C95 C94 1.387 . S
C95 C97 1.387 . S
H96 C103 0.950 1_655 S
C97 C95 1.387 . S
C97 C99 1.390 . S
C97 H101 0.950 . S
H98 C94 0.950 . S
C99 C97 1.390 . S
C99 C100 1.387 . S
C99 H102 0.950 . S
C100 C99 1.387 . S
C100 C103 1.387 . S
H101 C97 0.950 . S
H102 C99 0.950 . S
C103 C94 1.390 . S
C103 H96 0.950 1_455 S
C103 C100 1.387 . S
C104 C105 1.387 1_655 S
C104 H108 0.950 . S
C104 C113 1.390 . S
C105 C104 1.387 1_455 S
C105 C107 1.387 . S
H106 C113 0.950 . S
C107 C105 1.387 . S
C107 C109 1.390 . S
C107 H111 0.950 . S
H108 C104 0.950 . S
C109 C107 1.390 . S
C109 C110 1.387 . S
C109 H112 0.950 . S
C110 C109 1.387 . S
C110 C113 1.387 1_455 S
H111 C107 0.950 . S
H112 C109 0.950 . S
C113 C104 1.390 . S
C113 H106 0.950 . S
C113 C110 1.387 1_655 S
C114 C115 1.387 . S
C114 H118 0.950 . S
C114 C123 1.390 . S
C115 C114 1.387 . S
C115 C117 1.387 . S
H116 C123 0.950 . S
C117 C115 1.387 . S
C117 C119 1.390 . S
C117 H121 0.950 . S
H118 C114 0.950 . S
C119 C117 1.390 . S
C119 C120 1.387 . S
C119 H122 0.950 . S
C120 C119 1.387 . S
C120 C123 1.387 . S
H121 C117 0.950 . S
H122 C119 0.950 . S
C123 C114 1.390 . S
C123 H116 0.950 . S
C123 C120 1.387 . S
C124 C125 1.387 . S
C124 H128 0.950 . S
C124 C133 1.390 . S
C125 C124 1.387 . S
C125 C127 1.387 . S
H126 C133 0.950 . S
C127 C125 1.387 . S
C127 C129 1.390 . S
C127 H131 0.950 . S
H128 C124 0.950 . S
C129 C127 1.390 . S
C129 C130 1.387 . S
C129 H132 0.950 . S
C130 C129 1.387 . S
C130 C133 1.387 . S
H131 C127 0.950 . S
H132 C129 0.950 . S
C133 C124 1.390 . S
C133 H126 0.950 . S
C133 C130 1.387 . S
C134 C135 1.387 1_554 S
C134 H138 0.950 . S
C134 C143 1.390 1_554 S
C135 C134 1.387 1_556 S
C135 C137 1.387 . S
H136 C143 0.950 1_554 S
C137 C135 1.387 . S
C137 C139 1.390 . S
C137 H141 0.950 . S
H138 C134 0.950 . S
C139 C137 1.390 . S
C139 C140 1.387 . S
C139 H142 0.950 . S
C140 C139 1.387 . S
C140 C143 1.387 . S
H141 C137 0.950 . S
H142 C139 0.950 . S
C143 C134 1.390 1_556 S
C143 H136 0.950 1_556 S
C143 C140 1.387 . S
C144 C145 1.387 . S
C144 H148 0.950 . S
C144 C153 1.390 . S
C145 C144 1.387 . S
C145 C147 1.387 1_556 S
H146 C153 0.950 . S
C147 C145 1.387 1_554 S
C147 C149 1.390 1_554 S
C147 H151 0.950 . S
H148 C144 0.950 . S
C149 C147 1.390 1_556 S
C149 C150 1.387 . S
C149 H152 0.950 1_556 S
C150 C149 1.387 . S
C150 C153 1.387 . S
H151 C147 0.950 . S
H152 C149 0.950 1_554 S
C153 C144 1.390 . S
C153 H146 0.950 . S
C153 C150 1.387 . S
C154 C155 1.387 . S
C154 H158 0.950 . S
C154 C163 1.390 1_455 S
C155 C154 1.387 . S
C155 C157 1.387 1_455 S
H156 C163 0.950 . S
C157 C155 1.387 1_655 S
C157 C159 1.390 . S
C157 H161 0.950 1_556 S
H158 C154 0.950 . S
C159 C157 1.390 . S
C159 C160 1.387 . S
C159 H162 0.950 . S
C160 C159 1.387 . S
C160 C163 1.387 . S
H161 C157 0.950 1_554 S
H162 C159 0.950 . S
C163 C154 1.390 1_655 S
C163 H156 0.950 . S
C163 C160 1.387 . S
C164 C165 1.387 . S
C164 H168 0.950 . S
C164 C173 1.390 . S
C165 C164 1.387 . S
C165 C167 1.387 . S
H166 C173 0.950 . S
C167 C165 1.387 . S
C167 C169 1.390 . S
C167 H171 0.950 1_556 S
H168 C164 0.950 . S
C169 C167 1.390 . S
C169 C170 1.387 . S
C169 H172 0.950 . S
C170 C169 1.387 . S
C170 C173 1.387 . S
H171 C167 0.950 1_554 S
H172 C169 0.950 . S
C173 C164 1.390 . S
C173 H166 0.950 . S
C173 C170 1.387 . S
C174 C175 1.387 . S
C174 H178 0.950 . S
C174 C183 1.390 . S
C175 C174 1.387 . S
C175 C177 1.387 . S
H176 C183 0.950 . S
C177 C175 1.387 . S
C177 C179 1.390 . S
C177 H181 0.950 . S
H178 C174 0.950 . S
C179 C177 1.390 . S
C179 C180 1.387 . S
C179 H182 0.950 . S
C180 C179 1.387 . S
C180 C183 1.387 . S
H181 C177 0.950 . S
H182 C179 0.950 . S
C183 C174 1.390 . S
C183 H176 0.950 . S
C183 C180 1.387 . S
C184 C185 1.387 . S
C184 H188 0.950 . S
C184 C193 1.390 . S
C185 C184 1.387 . S
C185 C187 1.387 . S
H186 C193 0.950 . S
C187 C185 1.387 . S
C187 C189 1.390 . S
C187 H191 0.950 . S
H188 C184 0.950 . S
C189 C187 1.390 . S
C189 C190 1.387 . S
C189 H192 0.950 . S
C190 C189 1.387 . S
C190 C193 1.387 . S
H191 C187 0.950 . S
H192 C189 0.950 . S
C193 C184 1.390 . S
C193 H186 0.950 . S
C193 C190 1.387 . S
C194 C195 1.387 . S
C194 H198 0.950 . S
C194 C203 1.390 . S
C195 C194 1.387 . S
C195 C197 1.387 . S
H196 C203 0.950 . S
C197 C195 1.387 . S
C197 C199 1.390 . S
C197 H201 0.950 . S
H198 C194 0.950 . S
C199 C197 1.390 . S
C199 C200 1.387 . S
C199 H202 0.950 . S
C200 C199 1.387 . S
C200 C203 1.387 . S
H201 C197 0.950 . S
H202 C199 0.950 . S
C203 C194 1.390 . S
C203 H196 0.950 . S
C203 C200 1.387 . S
C204 C205 1.387 . S
C204 H208 0.950 . S
C204 C213 1.390 . S
C205 C204 1.387 . S
C205 C207 1.387 . S
H206 C213 0.950 . S
C207 C205 1.387 . S
C207 C209 1.390 . S
C207 H211 0.950 . S
H208 C204 0.950 . S
C209 C207 1.390 . S
C209 C210 1.387 . S
C209 H212 0.950 . S
C210 C209 1.387 . S
C210 C213 1.387 . S
H211 C207 0.950 . S
H212 C209 0.950 . S
C213 C204 1.390 . S
C213 H206 0.950 . S
C213 C210 1.387 . S
C100 C59 1.399 . S
C95 N2 1.516 . S
C110 C55 1.403 . S
C105 N15 1.514 . S
C120 C80 1.399 . S
C115 N28 1.516 . S
C125 N41 1.512 . S
C130 C76 1.407 . S
C135 N5 1.372 . S
C140 C77 1.198 . S
C150 C92 1.219 . S
C145 N14 1.379 . S
C155 N1 1.697 . S
C160 C93 1.535 . S
C170 C89 1.554 . S
C165 N18 1.704 . S
C180 C56 1.201 . S
C175 N31 1.371 . S
C185 N40 1.371 . S
C190 C71 1.219 . S
C200 C72 1.537 . S
C195 N27 1.697 . S
C210 C68 1.555 . S
C205 N44 1.704 . S
