# Generated by pormake.
# Topology rtl, (3,6)-cn, num edge types: 1
# Building blocks:
#     Node 0, Type 0, BuildingBlock: BETDAH_clean_linker_0, # of connection points: 3
#     Node 1, Type 0, BuildingBlock: BETDAH_clean_linker_0, # of connection points: 3
#     Node 2, Type 0, BuildingBlock: BETDAH_clean_linker_0, # of connection points: 3
#     Node 3, Type 0, BuildingBlock: BETDAH_clean_linker_0, # of connection points: 3
#     Node 4, Type 1, BuildingBlock: KUMBOL_clean_sbu_1, # of connection points: 6
#     Node 5, Type 1, BuildingBlock: KUMBOL_clean_sbu_1, # of connection points: 6
#     Edge 6, Type (0, 1), None
#     Edge 7, Type (0, 1), None
#     Edge 8, Type (0, 1), None
#     Edge 9, Type (0, 1), None
#     Edge 10, Type (0, 1), None
#     Edge 11, Type (0, 1), None
#     Edge 12, Type (0, 1), None
#     Edge 13, Type (0, 1), None
#     Edge 14, Type (0, 1), None
#     Edge 15, Type (0, 1), None
#     Edge 16, Type (0, 1), None
#     Edge 17, Type (0, 1), None
# Relax obj value: 0.055
# Max RMSD: 0.288
# Mean RMSD: 0.198
data_MOF--net-rtl--node1-KUMBOL_clean_sbu_1--node2-BETDAH_clean_linker_0--edge1-none
_symmetry_space_group_name_H-M    P1
_symmetry_Int_Tables_number       1
_symmetry_cell_setting            triclinic
loop_
_symmetry_equiv_pos_as_xyz
'x, y, z'
_cell_length_a     16.307598
_cell_length_b     16.920438
_cell_length_c     13.752334
_cell_angle_alpha  67.407058
_cell_angle_beta   101.96099
_cell_angle_gamma 94.38422
loop_
_atom_site_label
_atom_site_type_symbol
_atom_site_fract_x
_atom_site_fract_y
_atom_site_fract_z
_atom_type_partial_charge
H0 H 0.0334 0.89355 0.95559 0.0
H1 H 0.2578 0.7781 0.18147 0.0
H2 H 0.25011 0.85647 0.84388 0.0
C3 C 0.09694 0.87033 0.97231 0.0
C4 C 0.13567 0.87672 0.88684 0.0
C5 C 0.1402 0.83311 0.07943 0.0
C6 C 0.22321 0.80519 0.09959 0.0
C7 C 0.26244 0.81262 0.01496 0.0
C8 C 0.21831 0.84751 0.90903 0.0
N9 N 0.34976 0.79807 0.03583 0.0
C10 C 0.3848 0.72588 0.03543 0.0
H11 H 0.58991 0.55953 0.79091 0.0
H12 H 0.76392 0.74739 0.63446 0.0
H13 H 0.64213 0.78394 0.86339 0.0
C14 C 0.6228 0.6199 0.77758 0.0
C15 C 0.61182 0.66726 0.83692 0.0
C16 C 0.67811 0.6472 0.70532 0.0
C17 C 0.72134 0.72567 0.69015 0.0
C18 C 0.70862 0.77546 0.74796 0.0
C19 C 0.65266 0.74599 0.81948 0.0
N20 N 0.74994 0.85484 0.73843 0.0
C21 C 0.81894 0.88952 0.69049 0.0
H22 H 0.01827 0.15118 0.25299 0.0
H23 H 0.8013 0.19105 0.36221 0.0
H24 H 0.79527 0.26788 0.02511 0.0
C25 C 0.95488 0.17495 0.23563 0.0
C26 C 0.91226 0.21224 0.12828 0.0
C27 C 0.91579 0.16924 0.32051 0.0
C28 C 0.83336 0.19931 0.2975 0.0
C29 C 0.78975 0.2341 0.19122 0.0
C30 C 0.82939 0.24077 0.10722 0.0
N31 N 0.70247 0.24925 0.16927 0.0
C32 C 0.66738 0.32086 0.17113 0.0
H33 H 0.4607 0.48729 0.4156 0.0
H34 H 0.28949 0.29824 0.57639 0.0
H35 H 0.41103 0.26035 0.34822 0.0
C36 C 0.42831 0.42658 0.43006 0.0
C37 C 0.43966 0.37848 0.37168 0.0
C38 C 0.37379 0.39918 0.50334 0.0
C39 C 0.33131 0.32023 0.51978 0.0
C40 C 0.34432 0.26974 0.46302 0.0
C41 C 0.39995 0.29901 0.391 0.0
N42 N 0.30449 0.1892 0.47575 0.0
C43 C 0.23122 0.15862 0.51565 0.0
C44 C 0.96135 0.30123 0.55791 0.0
C45 C 0.81012 0.30965 0.50162 0.0
C46 C 0.88366 0.26084 0.55366 0.0
C47 C 0.81581 0.39864 0.45378 0.0
C48 C 0.96686 0.39113 0.51106 0.0
C49 C 0.89347 0.43974 0.45908 0.0
N50 N 0.03159 0.25241 0.60541 0.0
C51 C 0.10905 0.2889 0.61136 0.0
C52 C 0.04609 0.42926 0.51653 0.0
C53 C 0.11748 0.37789 0.56711 0.0
Gd54 Gd 0.0423 0.94096 0.52702 0.0
Gd55 Gd 1.01022 0.1051 0.68051 0.0
N56 N 0.88038 0.17384 0.59744 0.0
C57 C 0.73287 0.26763 0.49829 0.0
C58 C 0.80506 0.13265 0.5985 0.0
C59 C 0.73033 0.17875 0.54817 0.0
H60 H 0.80141 0.06464 0.63904 0.0
H61 H 0.67081 0.14571 0.54816 0.0
H62 H 0.25068 0.98477 0.56406 0.0
H63 H 0.16424 0.24957 0.65279 0.0
H64 H 0.38247 0.90632 0.65657 0.0
H65 H 0.67488 0.30316 0.45861 0.0
H66 H 0.76017 0.4355 0.41003 0.0
H67 H 0.89086 0.79355 0.55701 0.0
H68 H 0.05286 0.49811 0.48219 0.0
H69 H 0.17888 0.40687 0.57259 0.0
H70 H 0.29756 0.61579 0.80537 0.0
H71 H 0.89613 0.50886 0.42108 0.0
H72 H 1.00622 0.54749 0.73345 0.0
H73 H 0.87876 0.63627 0.64079 0.0
N74 N 0.02353 0.79328 0.60394 0.0
C75 C 0.09453 0.74578 0.65247 0.0
C76 C 0.94669 0.75537 0.599 0.0
C77 C 1.01188 0.61636 0.6972 0.0
C78 C 0.9397 0.66632 0.64536 0.0
C79 C 0.09045 0.65593 0.70171 0.0
H80 H 0.16285 0.53982 0.79541 0.0
N81 N 0.17336 0.87461 0.60982 0.0
C82 C 0.17149 0.78761 0.65577 0.0
C83 C 0.32231 0.7836 0.71077 0.0
C84 C 0.24575 0.74026 0.70912 0.0
C85 C 0.24804 0.91696 0.6069 0.0
C86 C 0.32348 0.8723 0.65806 0.0
O87 O 0.981 0.16389 0.49715 0.0
O88 O 0.94276 0.04051 0.47487 0.0
O89 O 0.09523 0.95625 0.38633 0.0
O90 O 0.97181 0.90424 0.39878 0.0
O91 O 0.93062 0.98271 0.71278 0.0
O92 O 0.91415 0.93666 0.56932 0.0
O93 O 0.06995 0.88208 0.71045 0.0
O94 O 0.10913 1.00521 0.73225 0.0
O95 O 0.95702 0.08934 0.82122 0.0
O96 O 0.08085 0.14052 0.80965 0.0
O97 O 0.12022 0.06464 0.49302 0.0
O98 O 0.13835 0.10652 0.63949 0.0
C99 C 0.95634 0.12232 0.43301 0.0
C100 C 0.89419 0.93499 0.65856 0.0
C101 C 0.04862 0.85478 0.30369 0.0
C102 C 0.09754 0.81439 0.17145 0.0
C103 C 0.03706 0.70751 0.31398 0.0
C104 C 0.02492 0.76918 0.35378 0.0
C105 C 0.07376 0.72963 0.22421 0.0
C106 C 0.08464 0.87733 0.21119 0.0
C107 C 0.03161 0.92068 0.3444 0.0
C108 C 0.24142 0.65138 0.75997 0.0
C109 C 0.1645 0.60883 0.75541 0.0
H110 H 0.38081 0.74918 0.75118 0.0
C111 C 0.09471 0.92365 0.77451 0.0
C112 C 0.15651 0.11193 0.54783 0.0
C113 C 1.00442 0.19019 0.90477 0.0
C114 C 0.95561 0.23063 0.03698 0.0
C115 C 0.01871 0.33686 0.89667 0.0
C116 C 0.02987 0.27539 0.85611 0.0
C117 C 0.98125 0.31495 0.98577 0.0
C118 C 0.96751 0.16788 0.9965 0.0
C119 C 0.02087 0.12434 0.86368 0.0
H120 H 0.01783 0.64215 0.35294 0.0
H121 H 0.99605 0.7496 0.42326 0.0
H122 H 0.08361 0.68036 0.1956 0.0
H123 H 0.10301 0.94297 0.17103 0.0
H124 H 0.03933 0.40186 0.85885 0.0
H125 H 0.05948 0.29477 0.78725 0.0
H126 H 0.9722 0.36406 0.01503 0.0
H127 H 0.9478 0.10255 0.0356 0.0
C128 C 0.78038 0.6529 0.10783 0.0
C129 C 0.75812 0.80693 0.02641 0.0
C130 C 0.72829 0.72346 0.07696 0.0
C131 C 0.83906 0.81832 1.00307 0.0
C132 C 0.8617 0.66445 0.0841 0.0
C133 C 0.89023 0.74723 0.03075 0.0
N134 N 0.75124 0.57316 0.15981 0.0
C135 C 0.801 0.50287 0.19073 0.0
C136 C 0.91218 0.59242 0.11458 0.0
C137 C 0.88172 0.51139 0.16831 0.0
Gd138 Gd 0.43631 0.476 0.01505 0.0
Gd139 Gd 0.6147 0.56924 0.19423 0.0
N140 N 0.64862 0.71065 0.09607 0.0
C141 C 0.70537 0.8766 1.00018 0.0
C142 C 0.59887 0.77843 0.07594 0.0
C143 C 0.62572 0.86225 0.02604 0.0
H144 H 0.54 0.76838 0.10234 0.0
H145 H 0.58554 0.9158 0.00932 0.0
H146 H 0.51256 0.27747 0.10517 0.0
H147 H 0.7802 0.43971 0.23432 0.0
H148 H 0.46866 0.12958 0.19901 0.0
H149 H 0.72598 0.94162 0.96148 0.0
H150 H 0.86252 0.88185 0.96305 0.0
H151 H 0.27127 0.60392 0.98054 0.0
H152 H 0.97486 0.59869 0.09754 0.0
H153 H 0.92063 0.45531 0.19323 0.0
H154 H 0.19266 0.1607 0.25048 0.0
H155 H 0.95209 0.75684 0.0111 0.0
H156 H 0.07864 0.44287 0.11979 0.0
H157 H 0.13161 0.58693 0.02426 0.0
N158 N 0.30082 0.4706 0.05289 0.0
C159 C 0.27246 0.39054 0.10495 0.0
C160 C 0.25091 0.54049 0.02377 0.0
C161 C 0.14093 0.44976 0.10144 0.0
C162 C 0.17068 0.53117 0.0478 0.0
C163 C 0.19167 0.37818 0.13034 0.0
H164 H 0.10247 0.28485 0.20462 0.0
N165 N 0.40414 0.33411 0.11381 0.0
C166 C 0.32494 0.3205 0.13452 0.0
C167 C 0.34909 0.16757 0.21053 0.0
C168 C 0.29596 0.23671 0.1854 0.0
C169 C 0.4542 0.26682 0.13285 0.0
C170 C 0.42823 0.18272 0.18318 0.0
O171 O 0.62508 0.59598 0.02362 0.0
O172 O 0.4946 0.59915 0.91681 0.0
O173 O 0.46001 0.41879 0.90633 0.0
O174 O 0.33746 0.46984 0.88637 0.0
O175 O 0.47985 0.6155 0.14935 0.0
O176 O 0.41757 0.61542 0.98215 0.0
O177 O 0.4262 0.45209 0.18515 0.0
O178 O 0.55709 0.44516 0.29159 0.0
O179 O 0.58839 0.62477 0.30338 0.0
O180 O 0.71264 0.57799 0.32213 0.0
O181 O 0.57148 0.43084 0.05838 0.0
O182 O 0.63362 0.43007 0.22601 0.0
C183 C 0.57291 0.62513 0.93125 0.0
C184 C 0.4305 0.64997 0.05504 0.0
C185 C 0.37941 0.47353 0.73139 0.0
C186 C 0.36475 0.4545 0.56209 0.0
C187 C 0.37285 0.59767 0.56592 0.0
C188 C 0.3841 0.5624 0.6774 0.0
C189 C 0.36219 0.54429 0.5083 0.0
C190 C 0.37041 0.41959 0.67379 0.0
C191 C 0.385 0.43586 0.84776 0.0
C192 C 0.21548 0.22449 0.21023 0.0
C193 C 0.16394 0.29508 0.18381 0.0
H194 H 0.32915 0.10233 0.24949 0.0
C195 C 0.47846 0.42012 0.2771 0.0
C196 C 0.62128 0.39633 0.15235 0.0
C197 C 0.67063 0.57268 0.47749 0.0
C198 C 0.68738 0.59196 0.64672 0.0
C199 C 0.67934 0.44865 0.64333 0.0
C200 C 0.66673 0.48379 0.53175 0.0
C201 C 0.69056 0.5022 0.70078 0.0
C202 C 0.68041 0.62675 0.53491 0.0
C203 C 0.66385 0.61025 0.36107 0.0
H204 H 0.37439 0.66643 0.52426 0.0
H205 H 0.39677 0.60447 0.72115 0.0
H206 H 0.35557 0.57328 0.42181 0.0
H207 H 0.37178 0.35073 0.71654 0.0
H208 H 0.67836 0.37989 0.68523 0.0
H209 H 0.65385 0.44165 0.48806 0.0
H210 H 0.69789 0.47341 0.78738 0.0
H211 H 0.67849 0.69561 0.49204 0.0
loop_
_geom_bond_atom_site_label_1
_geom_bond_atom_site_label_2
_geom_bond_distance
_geom_bond_site_symmetry_2
_ccdc_geom_bond_type
H0 C3 0.930 . S
H1 C6 0.929 . S
H2 C8 0.930 . S
C3 H0 0.930 . S
C3 C4 1.398 . S
C3 C5 1.396 1_556 S
C4 C3 1.398 . S
C4 C8 1.407 . S
C5 C3 1.396 1_554 S
C5 C6 1.394 . S
C6 H1 0.929 . S
C6 C5 1.394 . S
C6 C7 1.382 . S
C7 C6 1.382 . S
C7 C8 1.392 1_554 S
C7 N9 1.420 . S
C8 H2 0.930 . S
C8 C4 1.407 . S
C8 C7 1.392 1_556 S
N9 C7 1.420 . S
N9 C10 1.244 . S
C10 N9 1.244 . S
H11 C14 0.929 . S
H12 C17 0.929 . S
H13 C19 0.930 . S
C14 H11 0.929 . S
C14 C15 1.398 . S
C14 C16 1.396 . S
C15 C14 1.398 . S
C15 C19 1.407 . S
C16 C14 1.396 . S
C16 C17 1.394 . S
C17 H12 0.929 . S
C17 C16 1.394 . S
C17 C18 1.382 . S
C18 C17 1.382 . S
C18 C19 1.392 . S
C18 N20 1.420 . S
C19 H13 0.930 . S
C19 C15 1.407 . S
C19 C18 1.392 . S
N20 C18 1.420 . S
N20 C21 1.244 . S
C21 N20 1.244 . S
H22 C25 0.929 . S
H23 C28 0.929 . S
H24 C30 0.930 1_556 S
C25 H22 0.929 . S
C25 C26 1.398 . S
C25 C27 1.396 . S
C26 C25 1.398 . S
C26 C30 1.407 . S
C27 C25 1.396 . S
C27 C28 1.394 . S
C28 H23 0.929 . S
C28 C27 1.394 . S
C28 C29 1.382 . S
C29 C28 1.382 . S
C29 C30 1.392 . S
C29 N31 1.420 . S
C30 H24 0.930 1_554 S
C30 C26 1.407 . S
C30 C29 1.392 . S
N31 C29 1.420 . S
N31 C32 1.244 . S
C32 N31 1.244 . S
H33 C36 0.929 . S
H34 C39 0.929 . S
H35 C41 0.930 . S
C36 H33 0.929 . S
C36 C37 1.398 . S
C36 C38 1.396 . S
C37 C36 1.398 . S
C37 C41 1.407 . S
C38 C36 1.396 . S
C38 C39 1.394 . S
C39 H34 0.929 . S
C39 C38 1.394 . S
C39 C40 1.382 . S
C40 C39 1.382 . S
C40 C41 1.392 . S
C40 N42 1.420 . S
C41 H35 0.930 . S
C41 C37 1.407 . S
C41 C40 1.392 . S
N42 C40 1.420 . S
N42 C43 1.244 . S
C43 N42 1.244 . S
C44 C46 1.422 . S
C44 C48 1.415 . S
C44 N50 1.369 . S
C45 C46 1.421 . S
C45 C47 1.417 . S
C45 C57 1.422 . S
C46 C44 1.422 . S
C46 C45 1.421 . S
C46 N56 1.359 . S
C47 C45 1.417 . S
C47 C49 1.329 . S
C47 H66 0.930 . S
C48 C44 1.415 . S
C48 C49 1.437 . S
C48 C52 1.413 . S
C49 C47 1.329 . S
C49 C48 1.437 . S
C49 H71 0.929 . S
N50 C44 1.369 . S
N50 C51 1.338 1_655 S
N50 Gd55 2.622 . S
C51 N50 1.338 1_455 S
C51 C53 1.378 . S
C51 H63 0.929 . S
C52 C48 1.413 . S
C52 C53 1.348 1_655 S
C52 H68 0.931 . S
C53 C51 1.378 . S
C53 C52 1.348 1_455 S
C53 H69 0.930 . S
Gd54 N74 2.622 . S
Gd54 N81 2.570 . S
Gd54 O88 2.353 1_465 S
Gd54 O89 2.468 . S
Gd54 O90 2.427 . S
Gd54 O92 2.388 1_455 S
Gd54 O93 2.386 . S
Gd54 O97 2.307 1_565 S
Gd54 C107 2.805 . S
Gd55 N50 2.622 . S
Gd55 N56 2.570 . S
Gd55 O87 2.386 . S
Gd55 O91 2.307 1_545 S
Gd55 O94 2.353 1_655 S
Gd55 O95 2.468 . S
Gd55 O96 2.427 . S
Gd55 O98 2.388 1_655 S
Gd55 C119 2.805 . S
N56 C46 1.359 . S
N56 Gd55 2.570 . S
N56 C58 1.343 . S
C57 C45 1.422 . S
C57 C59 1.321 . S
C57 H65 0.931 . S
C58 N56 1.343 . S
C58 C59 1.390 . S
C58 H60 0.931 . S
C59 C57 1.321 . S
C59 C58 1.390 . S
C59 H61 0.930 . S
H60 C58 0.931 . S
H61 C59 0.930 . S
H62 C85 0.931 . S
H63 C51 0.929 . S
H64 C86 0.930 . S
H65 C57 0.931 . S
H66 C47 0.930 . S
H67 C76 0.929 1_655 S
H68 C52 0.931 . S
H69 C53 0.930 . S
H70 C108 0.930 . S
H71 C49 0.929 . S
H72 C77 0.931 . S
H73 C78 0.930 1_655 S
N74 Gd54 2.622 . S
N74 C75 1.369 . S
N74 C76 1.338 . S
C75 N74 1.369 . S
C75 C79 1.415 . S
C75 C82 1.422 . S
C76 H67 0.929 1_455 S
C76 N74 1.338 . S
C76 C78 1.378 . S
C77 H72 0.931 . S
C77 C78 1.348 . S
C77 C79 1.413 . S
C78 H73 0.930 1_455 S
C78 C76 1.378 . S
C78 C77 1.348 . S
C79 C75 1.415 . S
C79 C77 1.413 . S
C79 C109 1.437 . S
H80 C109 0.929 . S
N81 Gd54 2.570 . S
N81 C82 1.359 . S
N81 C85 1.343 . S
C82 C75 1.422 . S
C82 N81 1.359 . S
C82 C84 1.421 . S
C83 C84 1.422 . S
C83 C86 1.321 . S
C83 H110 0.931 . S
C84 C82 1.421 . S
C84 C83 1.422 . S
C84 C108 1.417 . S
C85 H62 0.931 . S
C85 N81 1.343 . S
C85 C86 1.390 . S
C86 H64 0.930 . S
C86 C83 1.321 . S
C86 C85 1.390 . S
O87 Gd55 2.386 . S
O87 C99 1.265 . S
O88 Gd54 2.353 1_645 S
O88 C99 1.242 . S
O89 Gd54 2.468 . S
O89 C107 1.263 . S
O90 Gd54 2.427 . S
O90 C107 1.252 . S
O91 Gd55 2.307 1_565 S
O91 C100 1.261 . S
O92 Gd54 2.388 1_655 S
O92 C100 1.252 . S
O93 Gd54 2.386 . S
O93 C111 1.265 . S
O94 Gd55 2.353 1_455 S
O94 C111 1.242 1_545 S
O95 Gd55 2.468 . S
O95 C119 1.263 . S
O96 Gd55 2.427 . S
O96 C119 1.252 . S
O97 Gd54 2.307 1_545 S
O97 C112 1.261 . S
O98 Gd55 2.388 1_455 S
O98 C112 1.252 . S
C99 O87 1.265 . S
C99 O88 1.242 . S
C100 O91 1.261 . S
C100 O92 1.252 . S
C101 C104 1.394 . S
C101 C106 1.370 . S
C101 C107 1.500 . S
C102 C105 1.383 . S
C102 C106 1.395 . S
C103 C104 1.396 . S
C103 C105 1.365 . S
C103 H120 0.929 . S
C104 C101 1.394 . S
C104 C103 1.396 . S
C104 H121 0.930 . S
C105 C102 1.383 . S
C105 C103 1.365 . S
C105 H122 0.931 . S
C106 C101 1.370 . S
C106 C102 1.395 . S
C106 H123 0.930 . S
C107 Gd54 2.805 . S
C107 O89 1.263 . S
C107 O90 1.252 . S
C107 C101 1.500 . S
C108 H70 0.930 . S
C108 C84 1.417 . S
C108 C109 1.329 . S
C109 C79 1.437 . S
C109 H80 0.929 . S
C109 C108 1.329 . S
H110 C83 0.931 . S
C111 O93 1.265 . S
C111 O94 1.242 1_565 S
C112 O97 1.261 . S
C112 O98 1.252 . S
C113 C116 1.394 . S
C113 C118 1.370 . S
C113 C119 1.500 . S
C114 C117 1.383 . S
C114 C118 1.395 1_554 S
C115 C116 1.396 1_554 S
C115 C117 1.365 . S
C115 H124 0.929 . S
C116 C113 1.394 . S
C116 C115 1.396 1_556 S
C116 H125 0.930 . S
C117 C114 1.383 . S
C117 C115 1.365 . S
C117 H126 0.931 . S
C118 C113 1.370 . S
C118 C114 1.395 1_556 S
C118 H127 0.930 . S
C119 Gd55 2.805 . S
C119 O95 1.263 . S
C119 O96 1.252 . S
C119 C113 1.500 . S
H120 C103 0.929 . S
H121 C104 0.930 . S
H122 C105 0.931 . S
H123 C106 0.930 . S
H124 C115 0.929 . S
H125 C116 0.930 . S
H126 C117 0.931 . S
H127 C118 0.930 . S
C128 C130 1.422 . S
C128 C132 1.415 . S
C128 N134 1.369 . S
C129 C130 1.421 . S
C129 C131 1.417 . S
C129 C141 1.422 . S
C130 C128 1.422 . S
C130 C129 1.421 . S
C130 N140 1.359 . S
C131 C129 1.417 . S
C131 C133 1.329 . S
C131 H150 0.930 . S
C132 C128 1.415 . S
C132 C133 1.437 . S
C132 C136 1.413 . S
C133 C131 1.329 . S
C133 C132 1.437 . S
C133 H155 0.929 . S
N134 C128 1.369 . S
N134 C135 1.338 . S
N134 Gd139 2.622 . S
C135 N134 1.338 . S
C135 C137 1.378 . S
C135 H147 0.929 . S
C136 C132 1.413 . S
C136 C137 1.348 . S
C136 H152 0.931 . S
C137 C135 1.378 . S
C137 C136 1.348 . S
C137 H153 0.930 . S
Gd138 N158 2.622 1_554 S
Gd138 N165 2.570 . S
Gd138 O172 2.353 1_554 S
Gd138 O173 2.468 1_554 S
Gd138 O174 2.427 1_554 S
Gd138 O176 2.388 1_554 S
Gd138 O177 2.386 . S
Gd138 O181 2.307 . S
Gd138 C191 2.805 1_554 S
Gd139 N134 2.622 . S
Gd139 N140 2.570 . S
Gd139 O171 2.386 . S
Gd139 O175 2.307 . S
Gd139 O178 2.353 . S
Gd139 O179 2.468 . S
Gd139 O180 2.427 . S
Gd139 O182 2.388 . S
Gd139 C203 2.805 . S
N140 C130 1.359 . S
N140 Gd139 2.570 . S
N140 C142 1.343 . S
C141 C129 1.422 . S
C141 C143 1.321 . S
C141 H149 0.931 . S
C142 N140 1.343 . S
C142 C143 1.390 . S
C142 H144 0.931 . S
C143 C141 1.321 . S
C143 C142 1.390 . S
C143 H145 0.930 . S
H144 C142 0.931 . S
H145 C143 0.930 . S
H146 C169 0.931 . S
H147 C135 0.929 . S
H148 C170 0.930 . S
H149 C141 0.931 . S
H150 C131 0.930 . S
H151 C160 0.929 . S
H152 C136 0.931 . S
H153 C137 0.930 . S
H154 C192 0.930 . S
H155 C133 0.929 . S
H156 C161 0.931 . S
H157 C162 0.930 . S
N158 Gd138 2.622 1_556 S
N158 C159 1.369 1_556 S
N158 C160 1.338 . S
C159 N158 1.369 1_554 S
C159 C163 1.415 . S
C159 C166 1.422 . S
C160 H151 0.929 . S
C160 N158 1.338 . S
C160 C162 1.378 . S
C161 H156 0.931 . S
C161 C162 1.348 1_554 S
C161 C163 1.413 . S
C162 H157 0.930 . S
C162 C160 1.378 . S
C162 C161 1.348 1_556 S
C163 C159 1.415 . S
C163 C161 1.413 . S
C163 C193 1.437 . S
H164 C193 0.929 . S
N165 Gd138 2.570 . S
N165 C166 1.359 . S
N165 C169 1.343 . S
C166 C159 1.422 . S
C166 N165 1.359 . S
C166 C168 1.421 . S
C167 C168 1.422 . S
C167 C170 1.321 . S
C167 H194 0.931 . S
C168 C166 1.421 . S
C168 C167 1.422 . S
C168 C192 1.417 . S
C169 H146 0.931 . S
C169 N165 1.343 . S
C169 C170 1.390 . S
C170 H148 0.930 . S
C170 C167 1.321 . S
C170 C169 1.390 . S
O171 Gd139 2.386 . S
O171 C183 1.265 1_554 S
O172 Gd138 2.353 1_556 S
O172 C183 1.242 . S
O173 Gd138 2.468 1_556 S
O173 C191 1.263 . S
O174 Gd138 2.427 1_556 S
O174 C191 1.252 . S
O175 Gd139 2.307 . S
O175 C184 1.261 . S
O176 Gd138 2.388 1_556 S
O176 C184 1.252 1_556 S
O177 Gd138 2.386 . S
O177 C195 1.265 . S
O178 Gd139 2.353 . S
O178 C195 1.242 . S
O179 Gd139 2.468 . S
O179 C203 1.263 . S
O180 Gd139 2.427 . S
O180 C203 1.252 . S
O181 Gd138 2.307 . S
O181 C196 1.261 . S
O182 Gd139 2.388 . S
O182 C196 1.252 . S
C183 O171 1.265 1_556 S
C183 O172 1.242 . S
C184 O175 1.261 . S
C184 O176 1.252 1_554 S
C185 C188 1.394 . S
C185 C190 1.370 . S
C185 C191 1.500 . S
C186 C189 1.383 . S
C186 C190 1.395 . S
C187 C188 1.396 . S
C187 C189 1.365 . S
C187 H204 0.929 . S
C188 C185 1.394 . S
C188 C187 1.396 . S
C188 H205 0.930 . S
C189 C186 1.383 . S
C189 C187 1.365 . S
C189 H206 0.931 . S
C190 C185 1.370 . S
C190 C186 1.395 . S
C190 H207 0.930 . S
C191 Gd138 2.805 1_556 S
C191 O173 1.263 . S
C191 O174 1.252 . S
C191 C185 1.500 . S
C192 H154 0.930 . S
C192 C168 1.417 . S
C192 C193 1.329 . S
C193 C163 1.437 . S
C193 H164 0.929 . S
C193 C192 1.329 . S
H194 C167 0.931 . S
C195 O177 1.265 . S
C195 O178 1.242 . S
C196 O181 1.261 . S
C196 O182 1.252 . S
C197 C200 1.394 . S
C197 C202 1.370 . S
C197 C203 1.500 . S
C198 C201 1.383 . S
C198 C202 1.395 . S
C199 C200 1.396 . S
C199 C201 1.365 . S
C199 H208 0.929 . S
C200 C197 1.394 . S
C200 C199 1.396 . S
C200 H209 0.930 . S
C201 C198 1.383 . S
C201 C199 1.365 . S
C201 H210 0.931 . S
C202 C197 1.370 . S
C202 C198 1.395 . S
C202 H211 0.930 . S
C203 Gd139 2.805 . S
C203 O179 1.263 . S
C203 O180 1.252 . S
C203 C197 1.500 . S
H204 C187 0.929 . S
H205 C188 0.930 . S
H206 C189 0.931 . S
H207 C190 0.930 . S
H208 C199 0.929 . S
H209 C200 0.930 . S
H210 C201 0.931 . S
H211 C202 0.930 . S
C112 C43 1.713 . S
C10 C184 1.861 . S
C21 C100 1.736 . S
C32 C196 1.667 . S
C102 C5 1.345 . S
C183 C15 1.842 . S
C27 C99 1.823 . S
C38 C186 1.454 . S
C198 C16 1.424 . S
C114 C26 1.250 . S
C195 C37 1.698 . S
C4 C111 1.745 . S
