# Generated by pormake.
# Topology apo, (3,6)-cn, num edge types: 1
# Building blocks:
#     Node 0, Type 0, BuildingBlock: ESEHIV_clean_linker_0, # of connection points: 3
#     Node 1, Type 0, BuildingBlock: ESEHIV_clean_linker_0, # of connection points: 3
#     Node 2, Type 0, BuildingBlock: ESEHIV_clean_linker_0, # of connection points: 3
#     Node 3, Type 0, BuildingBlock: ESEHIV_clean_linker_0, # of connection points: 3
#     Node 4, Type 0, BuildingBlock: ESEHIV_clean_linker_0, # of connection points: 3
#     Node 5, Type 0, BuildingBlock: ESEHIV_clean_linker_0, # of connection points: 3
#     Node 6, Type 0, BuildingBlock: ESEHIV_clean_linker_0, # of connection points: 3
#     Node 7, Type 0, BuildingBlock: ESEHIV_clean_linker_0, # of connection points: 3
#     Node 8, Type 1, BuildingBlock: MIDCAF_clean_sbu_0, # of connection points: 6
#     Node 9, Type 1, BuildingBlock: MIDCAF_clean_sbu_0, # of connection points: 6
#     Node 10, Type 1, BuildingBlock: MIDCAF_clean_sbu_0, # of connection points: 6
#     Node 11, Type 1, BuildingBlock: MIDCAF_clean_sbu_0, # of connection points: 6
#     Edge 12, Type (0, 1), None
#     Edge 13, Type (0, 1), None
#     Edge 14, Type (0, 1), None
#     Edge 15, Type (0, 1), None
#     Edge 16, Type (0, 1), None
#     Edge 17, Type (0, 1), None
#     Edge 18, Type (0, 1), None
#     Edge 19, Type (0, 1), None
#     Edge 20, Type (0, 1), None
#     Edge 21, Type (0, 1), None
#     Edge 22, Type (0, 1), None
#     Edge 23, Type (0, 1), None
#     Edge 24, Type (0, 1), None
#     Edge 25, Type (0, 1), None
#     Edge 26, Type (0, 1), None
#     Edge 27, Type (0, 1), None
#     Edge 28, Type (0, 1), None
#     Edge 29, Type (0, 1), None
#     Edge 30, Type (0, 1), None
#     Edge 31, Type (0, 1), None
#     Edge 32, Type (0, 1), None
#     Edge 33, Type (0, 1), None
#     Edge 34, Type (0, 1), None
#     Edge 35, Type (0, 1), None
# Relax obj value: 0.085
# Max RMSD: 0.099
# Mean RMSD: 0.090
data_MOF--net-apo--node1-MIDCAF_clean_sbu_0--node2-ESEHIV_clean_linker_0--edge1-none
_symmetry_space_group_name_H-M    P1
_symmetry_Int_Tables_number       1
_symmetry_cell_setting            triclinic
loop_
_symmetry_equiv_pos_as_xyz
'x, y, z'
_cell_length_a     12.443065
_cell_length_b     16.303316
_cell_length_c     14.171129
_cell_angle_alpha  90.002726
_cell_angle_beta   90.000989
_cell_angle_gamma 93.621393
loop_
_atom_site_label
_atom_site_type_symbol
_atom_site_fract_x
_atom_site_fract_y
_atom_site_fract_z
_atom_type_partial_charge
H0 H 0.40659 0.46567 0.53554 0.0
H1 H 0.20717 0.4512 0.28615 0.0
H2 H 0.26119 0.23451 0.44784 0.0
C3 C 0.35028 0.43126 0.48991 0.0
C4 C 0.3362 0.34611 0.50211 0.0
C5 C 0.30645 0.47028 0.41139 0.0
C6 C 0.23855 0.42324 0.34891 0.0
C7 C 0.21745 0.33833 0.36506 0.0
C8 C 0.26832 0.30067 0.44063 0.0
H9 H 0.16839 0.00552 0.03555 0.0
H10 H 0.36782 0.01997 0.78618 0.0
H11 H 0.31373 0.23668 0.94784 0.0
C12 C 0.22469 0.03992 0.98992 0.0
C13 C 0.23875 0.12508 1.00212 0.0
C14 C 0.26854 0.0009 0.91141 0.0
C15 C 0.33642 0.04794 0.84893 0.0
C16 C 0.3575 0.13285 0.86507 0.0
C17 C 0.30662 0.17052 0.94063 0.0
H18 H 0.11411 0.05286 0.60052 0.0
H19 H 0.85975 0.11433 0.78809 0.0
H20 H 0.90237 0.24031 0.52467 0.0
C21 C 0.05241 0.09369 0.62021 0.0
C22 C 1.01936 0.15129 0.55408 0.0
C23 C 0.99364 0.07829 0.7038 0.0
C24 C 0.90951 0.1285 0.72662 0.0
C25 C 0.87743 0.18755 0.66269 0.0
C26 C 0.93315 0.19932 0.57706 0.0
H27 H 0.46084 0.41833 0.10053 0.0
H28 H 0.71519 0.35686 0.28811 0.0
H29 H 0.67257 0.23087 0.02467 0.0
C30 C 0.52254 0.3775 0.12022 0.0
C31 C 0.55559 0.3199 0.05409 0.0
C32 C 0.58131 0.3929 0.20381 0.0
C33 C 0.66543 0.34269 0.22663 0.0
C34 C 0.69752 0.28364 0.1627 0.0
C35 C 0.64179 0.27186 0.07706 0.0
H36 H 0.66836 0.50551 0.47166 0.0
H37 H 0.81379 0.73667 0.55934 0.0
H38 H 0.8678 0.51998 0.72103 0.0
C39 C 0.72468 0.53992 0.51728 0.0
C40 C 0.76851 0.5009 0.5958 0.0
C41 C 0.73876 0.62507 0.50508 0.0
C42 C 0.80665 0.67051 0.56656 0.0
C43 C 0.85754 0.63284 0.64211 0.0
C44 C 0.83641 0.54794 0.65827 0.0
H45 H 0.90656 0.96567 0.97163 0.0
H46 H 0.70715 0.95121 0.22101 0.0
H47 H 0.76122 0.7345 0.05935 0.0
C48 C 0.85026 0.93127 0.01726 0.0
C49 C 0.83621 0.84611 0.00507 0.0
C50 C 0.80642 0.97029 0.09578 0.0
C51 C 0.73854 0.92324 0.15826 0.0
C52 C 0.71747 0.83834 0.14212 0.0
C53 C 0.76834 0.80067 0.06656 0.0
H54 H 0.96084 0.91833 0.40665 0.0
H55 H 0.17261 0.73089 0.48251 0.0
H56 H 0.21518 0.85686 0.21907 0.0
C57 C 1.02255 0.8775 0.38697 0.0
C58 C 0.08131 0.89289 0.30337 0.0
C59 C 0.05561 0.8199 0.4531 0.0
C60 C 0.14182 0.77187 0.43012 0.0
C61 C 0.19753 0.78365 0.34448 0.0
C62 C 0.16543 0.84268 0.28055 0.0
H63 H 0.61412 0.55286 0.90666 0.0
H64 H 0.35976 0.61432 0.71909 0.0
H65 H 0.40239 0.74032 0.98252 0.0
C66 C 0.55242 0.59369 0.88697 0.0
C67 C 0.51937 0.65129 0.9531 0.0
C68 C 0.49364 0.57829 0.80338 0.0
C69 C 0.40953 0.6285 0.78056 0.0
C70 C 0.37744 0.68755 0.84449 0.0
C71 C 0.43317 0.69933 0.93013 0.0
Zn72 Zn 0.18703 0.116 0.29806 0.0
Zn73 Zn 0.9807 0.21105 0.09096 0.0
Zn74 Zn 0.99443 0.14894 0.23968 0.0
C75 C 0.16421 0.16688 0.06451 0.0
C76 C 0.85042 0.05495 0.11848 0.0
O77 O 1.01041 0.18407 0.38868 0.0
O78 O 0.13611 0.1042 0.43474 0.0
C79 C 0.16096 0.28282 0.29652 0.0
O80 O 0.11733 0.12739 0.13226 0.0
O81 O 0.12992 0.23503 0.0396 0.0
O82 O 0.91111 0.0938 0.05911 0.0
O83 O 0.84435 0.08519 0.20166 0.0
O84 O 0.2207 0.23561 0.25216 0.0
O85 O 0.06417 0.25548 0.31543 0.0
O86 O 1.00502 0.02242 0.28024 0.0
O87 O 0.16854 0.00682 0.22839 0.0
C88 C 0.07975 0.97506 0.25935 0.0
O89 O 0.82986 0.19036 0.21062 0.0
O90 O 0.87919 0.29589 0.12013 0.0
C91 C 0.05878 0.1478 0.45533 0.0
C92 C 0.80765 0.25689 0.16861 0.0
Zn93 Zn 0.59423 0.26014 0.59096 0.0
Zn94 Zn 0.38791 0.35517 0.79807 0.0
Zn95 Zn 0.58051 0.32224 0.73969 0.0
C96 C 0.49519 0.49612 0.75936 0.0
C97 C 0.41399 0.18836 0.79653 0.0
O98 O 0.74508 0.28082 0.71062 0.0
O99 O 0.69576 0.1753 0.62011 0.0
C100 C 0.72451 0.41624 0.6185 0.0
O101 O 0.56992 0.44876 0.78025 0.0
O102 O 0.40639 0.46436 0.72841 0.0
O103 O 0.35424 0.23557 0.75216 0.0
O104 O 0.51078 0.2157 0.81543 0.0
O105 O 0.66383 0.37739 0.55912 0.0
O106 O 0.73058 0.38601 0.70168 0.0
O107 O 0.45761 0.34379 0.63227 0.0
O108 O 0.44502 0.23615 0.5396 0.0
C109 C 0.41072 0.30431 0.56451 0.0
O110 O 0.56454 0.28711 0.88868 0.0
O111 O 0.43883 0.36698 0.93475 0.0
C112 C 0.76729 0.21429 0.66859 0.0
C113 C 0.51617 0.32339 0.95534 0.0
Zn114 Zn 0.09425 0.76015 0.91623 0.0
Zn115 Zn 0.88793 0.85518 0.70912 0.0
Zn116 Zn 0.08053 0.82226 0.7675 0.0
C117 C 0.9952 -0.00387 0.74783 0.0
C118 C 0.91402 0.68837 0.71065 0.0
O119 O 0.24511 0.78083 0.79657 0.0
O120 O 0.19577 0.6753 0.88705 0.0
C121 C 0.22454 0.91624 0.88871 0.0
O122 O 0.06993 0.94877 0.72694 0.0
O123 O 0.90641 0.96437 0.77878 0.0
O124 O 0.85426 0.73557 0.75501 0.0
O125 O 1.01081 0.71571 0.69175 0.0
O126 O 0.16385 0.87739 0.94808 0.0
O127 O 0.23062 0.88599 0.80553 0.0
O128 O 0.95763 0.8438 0.87492 0.0
O129 O 0.94504 0.73615 0.96757 0.0
C130 C 0.91074 0.80431 0.94267 0.0
O131 O 0.06456 0.78712 0.6185 0.0
O132 O 0.93885 0.86698 0.57244 0.0
C133 C 0.26731 0.7143 0.83858 0.0
C134 C 1.01619 0.8234 0.55185 0.0
Zn135 Zn 0.68705 0.61601 0.20912 0.0
Zn136 Zn 0.48072 0.71104 0.41625 0.0
Zn137 Zn 0.49446 0.64895 0.26751 0.0
C138 C 0.66424 0.66688 0.44269 0.0
C139 C 0.35045 0.55494 0.38869 0.0
O140 O 0.51042 0.68408 0.11851 0.0
O141 O 0.63612 0.60421 0.07244 0.0
C142 C 0.66098 0.78283 0.21066 0.0
O143 O 0.61735 0.6274 0.37492 0.0
O144 O 0.62993 0.73503 0.46761 0.0
O145 O 0.41113 0.59379 0.44807 0.0
O146 O 0.34439 0.58518 0.30551 0.0
O147 O 0.72072 0.73562 0.25503 0.0
O148 O 0.56419 0.75549 0.19176 0.0
O149 O 0.50504 0.52243 0.22695 0.0
O150 O 0.66857 0.50683 0.27878 0.0
C151 C 0.57977 0.47507 0.24783 0.0
O152 O 0.32988 0.69037 0.29657 0.0
O153 O 0.37919 0.79588 0.3871 0.0
C154 C 0.55879 0.6478 0.05186 0.0
C155 C 0.30766 0.75689 0.33861 0.0
loop_
_geom_bond_atom_site_label_1
_geom_bond_atom_site_label_2
_geom_bond_distance
_geom_bond_site_symmetry_2
_ccdc_geom_bond_type
H0 C3 0.931 . S
H1 C6 0.928 . S
H2 C8 0.930 . S
C3 H0 0.931 . S
C3 C4 1.413 . S
C3 C5 1.360 . S
C4 C3 1.413 . S
C4 C8 1.429 . S
C5 C3 1.360 . S
C5 C6 1.372 . S
C6 H1 0.928 . S
C6 C5 1.372 . S
C6 C7 1.404 . S
C7 C6 1.404 . S
C7 C8 1.391 . S
C8 H2 0.930 . S
C8 C4 1.429 . S
C8 C7 1.391 . S
H9 C12 0.931 . S
H10 C15 0.928 . S
H11 C17 0.930 . S
C12 H9 0.931 . S
C12 C13 1.413 . S
C12 C14 1.360 . S
C13 C12 1.413 . S
C13 C17 1.429 . S
C14 C12 1.360 . S
C14 C15 1.372 . S
C15 H10 0.928 . S
C15 C14 1.372 . S
C15 C16 1.404 . S
C16 C15 1.404 . S
C16 C17 1.391 . S
C17 H11 0.930 . S
C17 C13 1.429 . S
C17 C16 1.391 . S
H18 C21 0.931 . S
H19 C24 0.928 . S
H20 C26 0.930 . S
C21 H18 0.931 . S
C21 C22 1.413 . S
C21 C23 1.360 . S
C22 C21 1.413 . S
C22 C26 1.429 . S
C23 C21 1.360 . S
C23 C24 1.372 . S
C24 H19 0.928 . S
C24 C23 1.372 . S
C24 C25 1.404 . S
C25 C24 1.404 . S
C25 C26 1.391 . S
C26 H20 0.930 . S
C26 C22 1.429 . S
C26 C25 1.391 . S
H27 C30 0.931 . S
H28 C33 0.928 . S
H29 C35 0.930 . S
C30 H27 0.931 . S
C30 C31 1.413 . S
C30 C32 1.360 . S
C31 C30 1.413 . S
C31 C35 1.429 . S
C32 C30 1.360 . S
C32 C33 1.372 . S
C33 H28 0.928 . S
C33 C32 1.372 . S
C33 C34 1.404 . S
C34 C33 1.404 . S
C34 C35 1.391 . S
C35 H29 0.930 . S
C35 C31 1.429 . S
C35 C34 1.391 . S
H36 C39 0.931 . S
H37 C42 0.928 . S
H38 C44 0.930 . S
C39 H36 0.931 . S
C39 C40 1.413 . S
C39 C41 1.360 . S
C40 C39 1.413 . S
C40 C44 1.429 . S
C41 C39 1.360 . S
C41 C42 1.372 . S
C42 H37 0.928 . S
C42 C41 1.372 . S
C42 C43 1.404 . S
C43 C42 1.404 . S
C43 C44 1.391 . S
C44 H38 0.930 . S
C44 C40 1.429 . S
C44 C43 1.391 . S
H45 C48 0.931 . S
H46 C51 0.928 . S
H47 C53 0.930 . S
C48 H45 0.931 . S
C48 C49 1.413 . S
C48 C50 1.360 . S
C49 C48 1.413 . S
C49 C53 1.429 . S
C50 C48 1.360 . S
C50 C51 1.372 . S
C51 H46 0.928 . S
C51 C50 1.372 . S
C51 C52 1.404 . S
C52 C51 1.404 . S
C52 C53 1.391 . S
C53 H47 0.930 . S
C53 C49 1.429 . S
C53 C52 1.391 . S
H54 C57 0.931 . S
H55 C60 0.928 . S
H56 C62 0.930 . S
C57 H54 0.931 . S
C57 C58 1.413 . S
C57 C59 1.360 . S
C58 C57 1.413 . S
C58 C62 1.429 . S
C59 C57 1.360 . S
C59 C60 1.372 . S
C60 H55 0.928 . S
C60 C59 1.372 . S
C60 C61 1.404 . S
C61 C60 1.404 . S
C61 C62 1.391 . S
C62 H56 0.930 . S
C62 C58 1.429 . S
C62 C61 1.391 . S
H63 C66 0.931 . S
H64 C69 0.928 . S
H65 C71 0.930 . S
C66 H63 0.931 . S
C66 C67 1.413 . S
C66 C68 1.360 . S
C67 C66 1.413 . S
C67 C71 1.429 . S
C68 C66 1.360 . S
C68 C69 1.372 . S
C69 H64 0.928 . S
C69 C68 1.372 . S
C69 C70 1.404 . S
C70 C69 1.404 . S
C70 C71 1.391 . S
C71 H65 0.930 . S
C71 C67 1.429 . S
C71 C70 1.391 . S
Zn72 O78 1.920 1_455 S
Zn72 O84 1.898 . S
Zn72 O87 1.905 . S
Zn73 O81 1.905 1_654 S
Zn73 O82 1.898 . S
Zn73 O90 1.920 . S
Zn74 O77 2.080 1_455 S
Zn74 O80 2.114 . S
Zn74 O83 2.120 1_455 S
Zn74 O85 2.120 . S
Zn74 O86 2.114 . S
Zn74 O89 2.080 1_455 S
C75 O80 1.166 . S
C75 O81 1.182 1_554 S
C76 O82 1.167 . S
C76 O83 1.299 . S
O77 Zn74 2.080 1_655 S
O77 C91 1.305 . S
O78 Zn72 1.920 1_655 S
O78 C91 1.234 . S
C79 O84 1.167 . S
C79 O85 1.299 . S
O80 Zn74 2.114 . S
O80 C75 1.166 . S
O81 Zn73 1.905 1_456 S
O81 C75 1.182 1_556 S
O82 Zn73 1.898 . S
O82 C76 1.167 . S
O83 Zn74 2.120 1_655 S
O83 C76 1.299 . S
O84 Zn72 1.898 . S
O84 C79 1.167 . S
O85 Zn74 2.120 . S
O85 C79 1.299 . S
O86 Zn74 2.114 . S
O86 C88 1.166 . S
O87 Zn72 1.905 . S
O87 C88 1.182 . S
C88 O86 1.166 . S
C88 O87 1.182 . S
O89 Zn74 2.080 1_655 S
O89 C92 1.305 . S
O90 Zn73 1.920 . S
O90 C92 1.234 . S
C91 O77 1.305 . S
C91 O78 1.234 . S
C92 O89 1.305 . S
C92 O90 1.234 . S
Zn93 O99 1.920 . S
Zn93 O105 1.898 . S
Zn93 O108 1.905 . S
Zn94 O102 1.905 . S
Zn94 O103 1.898 . S
Zn94 O111 1.920 1_556 S
Zn95 O98 2.080 . S
Zn95 O101 2.114 . S
Zn95 O104 2.120 . S
Zn95 O106 2.120 . S
Zn95 O107 2.114 . S
Zn95 O110 2.080 . S
C96 O101 1.166 . S
C96 O102 1.182 . S
C97 O103 1.167 . S
C97 O104 1.299 . S
O98 Zn95 2.080 . S
O98 C112 1.305 . S
O99 Zn93 1.920 . S
O99 C112 1.234 . S
C100 O105 1.167 . S
C100 O106 1.299 . S
O101 Zn95 2.114 . S
O101 C96 1.166 . S
O102 Zn94 1.905 . S
O102 C96 1.182 . S
O103 Zn94 1.898 . S
O103 C97 1.167 . S
O104 Zn95 2.120 . S
O104 C97 1.299 . S
O105 Zn93 1.898 . S
O105 C100 1.167 . S
O106 Zn95 2.120 . S
O106 C100 1.299 . S
O107 Zn95 2.114 . S
O107 C109 1.166 . S
O108 Zn93 1.905 . S
O108 C109 1.182 . S
C109 O107 1.166 . S
C109 O108 1.182 . S
O110 Zn95 2.080 . S
O110 C113 1.305 . S
O111 Zn94 1.920 1_554 S
O111 C113 1.234 1_554 S
C112 O98 1.305 . S
C112 O99 1.234 . S
C113 O110 1.305 . S
C113 O111 1.234 1_556 S
Zn114 O120 1.920 . S
Zn114 O126 1.898 . S
Zn114 O129 1.905 1_456 S
Zn115 O123 1.905 . S
Zn115 O124 1.898 . S
Zn115 O132 1.920 1_655 S
Zn116 O119 2.080 . S
Zn116 O122 2.114 1_455 S
Zn116 O125 2.120 1_455 S
Zn116 O127 2.120 . S
Zn116 O128 2.114 1_455 S
Zn116 O131 2.080 . S
C117 O122 1.166 . S
C117 O123 1.182 . S
C118 O124 1.167 . S
C118 O125 1.299 . S
O119 Zn116 2.080 . S
O119 C133 1.305 . S
O120 Zn114 1.920 . S
O120 C133 1.234 . S
C121 O126 1.167 . S
C121 O127 1.299 . S
O122 Zn116 2.114 1_655 S
O122 C117 1.166 . S
O123 Zn115 1.905 . S
O123 C117 1.182 . S
O124 Zn115 1.898 . S
O124 C118 1.167 . S
O125 Zn116 2.120 1_655 S
O125 C118 1.299 . S
O126 Zn114 1.898 . S
O126 C121 1.167 . S
O127 Zn116 2.120 . S
O127 C121 1.299 . S
O128 Zn116 2.114 1_655 S
O128 C130 1.166 . S
O129 Zn114 1.905 1_654 S
O129 C130 1.182 1_554 S
C130 O128 1.166 . S
C130 O129 1.182 1_556 S
O131 Zn116 2.080 . S
O131 C134 1.305 . S
O132 Zn115 1.920 1_455 S
O132 C134 1.234 . S
C133 O119 1.305 . S
C133 O120 1.234 . S
C134 O131 1.305 . S
C134 O132 1.234 . S
Zn135 O141 1.920 1_554 S
Zn135 O147 1.898 . S
Zn135 O150 1.905 . S
Zn136 O144 1.905 . S
Zn136 O145 1.898 . S
Zn136 O153 1.920 . S
Zn137 O140 2.080 . S
Zn137 O143 2.114 . S
Zn137 O146 2.120 . S
Zn137 O148 2.120 . S
Zn137 O149 2.114 . S
Zn137 O152 2.080 . S
C138 O143 1.166 . S
C138 O144 1.182 . S
C139 O145 1.167 . S
C139 O146 1.299 . S
O140 Zn137 2.080 . S
O140 C154 1.305 . S
O141 Zn135 1.920 1_556 S
O141 C154 1.234 1_556 S
C142 O147 1.167 . S
C142 O148 1.299 . S
O143 Zn137 2.114 . S
O143 C138 1.166 . S
O144 Zn136 1.905 . S
O144 C138 1.182 . S
O145 Zn136 1.898 . S
O145 C139 1.167 . S
O146 Zn137 2.120 . S
O146 C139 1.299 . S
O147 Zn135 1.898 . S
O147 C142 1.167 . S
O148 Zn137 2.120 . S
O148 C142 1.299 . S
O149 Zn137 2.114 . S
O149 C151 1.166 . S
O150 Zn135 1.905 . S
O150 C151 1.182 . S
C151 O149 1.166 . S
C151 O150 1.182 . S
O152 Zn137 2.080 . S
O152 C155 1.305 . S
O153 Zn136 1.920 . S
O153 C155 1.234 . S
C154 O140 1.305 . S
C154 O141 1.234 1_554 S
C155 O152 1.305 . S
C155 O153 1.234 . S
C58 C88 1.529 1_565 S
C96 C68 1.550 . S
C100 C40 1.522 . S
C50 C76 1.543 1_565 S
C117 C23 1.528 1_565 S
C151 C32 1.528 . S
C5 C139 1.521 . S
C14 C121 1.520 1_545 S
C75 C13 1.244 1_554 S
C109 C4 1.244 . S
C113 C31 1.261 1_556 S
C91 C22 1.262 . S
C130 C49 1.241 1_556 S
C41 C138 1.249 . S
C154 C67 1.257 1_554 S
C59 C134 1.267 . S
C79 C7 1.204 . S
C97 C16 1.203 . S
C25 C112 1.211 . S
C92 C34 1.209 . S
C118 C43 1.199 . S
C52 C142 1.209 . S
C61 C155 1.205 . S
C70 C133 1.216 . S
