# Generated by pormake.
# Topology rtl, (3,6)-cn, num edge types: 1
# Building blocks:
#     Node 0, Type 0, BuildingBlock: INOVEN_clean_linker_0, # of connection points: 3
#     Node 1, Type 0, BuildingBlock: INOVEN_clean_linker_0, # of connection points: 3
#     Node 2, Type 0, BuildingBlock: INOVEN_clean_linker_0, # of connection points: 3
#     Node 3, Type 0, BuildingBlock: INOVEN_clean_linker_0, # of connection points: 3
#     Node 4, Type 1, BuildingBlock: LEVNOQ01_clean_sbu_1, # of connection points: 6
#     Node 5, Type 1, BuildingBlock: LEVNOQ01_clean_sbu_1, # of connection points: 6
#     Edge 6, Type (0, 1), BuildingBlock: AJUNOK_clean_linker_0, # of connection points: 2
#     Edge 7, Type (0, 1), BuildingBlock: AJUNOK_clean_linker_0, # of connection points: 2
#     Edge 8, Type (0, 1), BuildingBlock: AJUNOK_clean_linker_0, # of connection points: 2
#     Edge 9, Type (0, 1), BuildingBlock: AJUNOK_clean_linker_0, # of connection points: 2
#     Edge 10, Type (0, 1), BuildingBlock: AJUNOK_clean_linker_0, # of connection points: 2
#     Edge 11, Type (0, 1), BuildingBlock: AJUNOK_clean_linker_0, # of connection points: 2
#     Edge 12, Type (0, 1), BuildingBlock: AJUNOK_clean_linker_0, # of connection points: 2
#     Edge 13, Type (0, 1), BuildingBlock: AJUNOK_clean_linker_0, # of connection points: 2
#     Edge 14, Type (0, 1), BuildingBlock: AJUNOK_clean_linker_0, # of connection points: 2
#     Edge 15, Type (0, 1), BuildingBlock: AJUNOK_clean_linker_0, # of connection points: 2
#     Edge 16, Type (0, 1), BuildingBlock: AJUNOK_clean_linker_0, # of connection points: 2
#     Edge 17, Type (0, 1), BuildingBlock: AJUNOK_clean_linker_0, # of connection points: 2
# Relax obj value: 0.016
# Max RMSD: 0.110
# Mean RMSD: 0.080
data_MOF--net-rtl--node1-LEVNOQ01_clean_sbu_1--node2-INOVEN_clean_linker_0--edge1-AJUNOK_clean_linker_0
_symmetry_space_group_name_H-M    P1
_symmetry_Int_Tables_number       1
_symmetry_cell_setting            triclinic
loop_
_symmetry_equiv_pos_as_xyz
'x, y, z'
_cell_length_a     26.380673
_cell_length_b     26.249937
_cell_length_c     16.136167
_cell_angle_alpha  91.758609
_cell_angle_beta   102.33806
_cell_angle_gamma 89.701183
loop_
_atom_site_label
_atom_site_type_symbol
_atom_site_fract_x
_atom_site_fract_y
_atom_site_fract_z
_atom_type_partial_charge
H0 H 0.25177 0.84856 0.98692 0.0
H1 H 0.12838 0.9185 0.08551 0.0
H2 H 0.24605 0.83216 0.24932 0.0
N3 N 0.29823 0.80499 0.12668 0.0
N4 N 0.31162 0.77436 0.18507 0.0
C5 C 0.23299 0.8567 0.0394 0.0
C6 C 0.18702 0.88523 0.02612 0.0
C7 C 0.25397 0.83676 0.11907 0.0
C8 C 0.23006 0.84743 0.18758 0.0
C9 C 0.18493 0.87734 0.17578 0.0
C10 C 0.16327 0.89546 0.09474 0.0
H11 H 0.73431 0.71645 0.78165 0.0
H12 H 0.64101 0.60141 0.6243 0.0
H13 H 0.72278 0.71193 0.51147 0.0
N14 N 0.76677 0.76103 0.65777 0.0
N15 N 0.76026 0.79556 0.60524 0.0
C16 C 0.71906 0.69885 0.71975 0.0
C17 C 0.68513 0.65708 0.71159 0.0
C18 C 0.73191 0.71934 0.64786 0.0
C19 C 0.71196 0.69693 0.5671 0.0
C20 C 0.68035 0.6535 0.55886 0.0
C21 C 0.66698 0.6339 0.6312 0.0
H22 H 0.77524 0.21047 0.83917 0.0
H23 H 0.88156 0.10047 0.97155 0.0
H24 H 0.77948 0.18285 0.10236 0.0
N25 N 0.73182 0.23564 0.97378 0.0
N26 N 0.71862 0.26979 0.92131 0.0
C27 C 0.79121 0.19054 0.89672 0.0
C28 C 0.82958 0.15325 0.89647 0.0
C29 C 0.77274 0.2008 0.97114 0.0
C30 C 0.79403 0.17491 0.04535 0.0
C31 C 0.83374 0.13906 0.04644 0.0
C32 C 0.85064 0.12792 0.97129 0.0
H33 H 0.2727 0.32237 0.34242 0.0
H34 H 0.37696 0.43079 0.49683 0.0
H35 H 0.27761 0.33875 0.61011 0.0
N36 N 0.23132 0.28932 0.47134 0.0
N37 N 0.21887 0.25721 0.41185 0.0
C38 C 0.28905 0.34011 0.40374 0.0
C39 C 0.32722 0.3782 0.41073 0.0
C40 C 0.27122 0.32586 0.47583 0.0
C41 C 0.2919 0.34939 0.55484 0.0
C42 C 0.33008 0.38707 0.56275 0.0
C43 C 0.34727 0.40165 0.4905 0.0
O44 O 0.0036 0.12315 0.69161 0.0
Mg45 Mg 0.0669 0.09008 0.65173 0.0
O46 O 0.95697 0.06191 0.61674 0.0
Mg47 Mg 0.00883 0.01681 0.53786 0.0
O48 O 0.06475 0.08568 0.52342 0.0
O49 O 0.11019 0.14348 0.61638 0.0
O50 O 0.06271 0.97316 0.4552 0.0
O51 O 0.95622 0.05128 0.41691 0.0
Mg52 Mg 0.97151 0.93897 0.44313 0.0
O53 O 0.94654 0.95306 0.55303 0.0
O54 O 0.03663 0.89414 0.44613 0.0
O55 O 0.94293 0.98243 0.3351 0.0
O56 O 0.91408 0.8925 0.45385 0.0
C57 C 0.09812 0.99296 0.72171 0.0
C58 C 0.96071 0.10042 0.6678 0.0
C59 C 0.09586 0.12499 0.54005 0.0
C60 C 0.06931 0.92648 0.43512 0.0
C61 C 0.93784 0.03 0.34474 0.0
C62 C 0.91477 0.91533 0.52579 0.0
O63 O 0.11305 0.03872 0.73026 0.0
O64 O 0.06087 0.97948 0.66038 0.0
O65 O 0.60847 0.48548 0.25715 0.0
Mg66 Mg 0.55842 0.44044 0.16708 0.0
O67 O 0.56295 0.54771 0.19136 0.0
Mg68 Mg 0.50982 0.51492 0.06345 0.0
O69 O 0.56023 0.44098 0.04005 0.0
O70 O 0.59745 0.38181 0.13252 0.0
O71 O 0.45598 0.48204 0.93133 0.0
O72 O 0.56894 0.55508 0.99499 0.0
Mg73 Mg 0.45874 0.58056 0.96598 0.0
O74 O 0.46285 0.59081 0.09341 0.0
O75 O 0.39731 0.54052 0.89362 0.0
O76 O 0.51677 0.60337 0.90644 0.0
O77 O 0.43032 0.64738 0.99377 0.0
C78 C 0.45197 0.43545 0.17931 0.0
C79 C 0.59756 0.53225 0.25332 0.0
C80 C 0.58729 0.39921 0.057 0.0
C81 C 0.41429 0.49678 0.88142 0.0
C82 C 0.56169 0.58709 0.9359 0.0
C83 C 0.44047 0.63433 0.07168 0.0
O84 O 0.49358 0.41095 0.20113 0.0
O85 O 0.45055 0.47457 0.13362 0.0
C86 C 0.13361 0.23945 0.44053 0.0
C87 C 0.17836 0.22235 0.41423 0.0
C88 C 0.10129 0.2052 0.46928 0.0
C89 C 0.11304 0.15292 0.47356 0.0
H90 H 0.12612 0.27991 0.44566 0.0
H91 H 0.0702 0.2204 0.49703 0.0
S92 S 0.22038 0.08867 0.39737 0.0
N93 N 0.22826 0.14972 0.3812 0.0
N94 N 0.16805 0.0849 0.43791 0.0
C95 C 0.15409 0.13476 0.43819 0.0
C96 C 0.18671 0.16977 0.4077 0.0
C97 C 0.39534 0.75769 0.14698 0.0
C98 C 0.35493 0.74202 0.18478 0.0
C99 C 0.42894 0.72207 0.12162 0.0
C100 C 0.42299 0.66963 0.13245 0.0
H101 H 0.39823 0.79711 0.13053 0.0
H102 H 0.45626 0.73514 0.08533 0.0
S103 S 0.33072 0.61094 0.24498 0.0
N104 N 0.31682 0.67244 0.24597 0.0
N105 N 0.37969 0.60481 0.19637 0.0
C106 C 0.38739 0.6543 0.18015 0.0
C107 C 0.3533 0.69086 0.20682 0.0
C108 C 0.84965 0.82892 0.64944 0.0
C109 C 0.79742 0.83469 0.60708 0.0
C110 C 0.88847 0.86066 0.63162 0.0
C111 C 0.87587 0.89914 0.57209 0.0
H112 H 0.86118 0.79718 0.69055 0.0
H113 H 0.92875 0.85195 0.65823 0.0
S114 S 0.74439 0.93432 0.45579 0.0
N115 N 0.73481 0.88507 0.51199 0.0
N116 N 0.80755 0.94517 0.47939 0.0
C117 C 0.82345 0.90837 0.53664 0.0
C118 C 0.78422 0.87592 0.554 0.0
C119 C 0.63453 0.28349 0.95938 0.0
C120 C 0.67692 0.30257 0.92993 0.0
C121 C 0.60048 0.31643 0.98991 0.0
C122 C 0.60779 0.36953 0.99263 0.0
H123 H 0.62993 0.2428 0.96449 0.0
H124 H 0.57113 0.30006 0.019 0.0
S125 S 0.70815 0.43831 0.91081 0.0
N126 N 0.72027 0.3774 0.89423 0.0
N127 N 0.65669 0.4398 0.95409 0.0
C128 C 0.64663 0.38919 0.9552 0.0
C129 C 0.68116 0.35544 0.92312 0.0
C130 C 0.10594 0.87438 0.23588 0.0
C131 C 0.15832 0.88799 0.24639 0.0
C132 C 0.07842 0.8861 0.29885 0.0
C133 C 0.1019 0.91268 0.37425 0.0
H134 H 0.08597 0.85472 0.17817 0.0
H135 H 0.03783 0.87541 0.28728 0.0
S136 S 0.23889 0.95463 0.43458 0.0
N137 N 0.2336 0.92739 0.33937 0.0
N138 N 0.18088 0.95077 0.45749 0.0
C139 C 0.15438 0.92615 0.38628 0.0
C140 C 0.1829 0.91325 0.32249 0.0
C141 C 0.66242 0.58844 0.80244 0.0
C142 C 0.66397 0.64055 0.78446 0.0
C143 C 0.63302 0.57121 0.8591 0.0
C144 C 0.60408 0.60558 0.89862 0.0
H145 H 0.6818 0.56062 0.76911 0.0
H146 H 0.62958 0.53063 0.86658 0.0
S147 S 0.59832 0.74582 0.87853 0.0
N148 N 0.63677 0.72642 0.81552 0.0
N149 N 0.58168 0.69391 0.92154 0.0
C150 C 0.60801 0.65788 0.88542 0.0
C151 C 0.63803 0.67545 0.82848 0.0
C152 C 0.86265 0.05939 0.12322 0.0
C153 C 0.85791 0.11268 0.12528 0.0
C154 C 0.88803 0.0334 0.19468 0.0
C155 C 0.9101 0.05956 0.27147 0.0
H156 H 0.8467 0.03751 0.06558 0.0
H157 H 0.89057 0.99229 0.18906 0.0
S158 S 0.90886 0.19979 0.30931 0.0
N159 N 0.87754 0.19115 0.20973 0.0
N160 N 0.92531 0.14235 0.34472 0.0
C161 C 0.90523 0.11302 0.27465 0.0
C162 C 0.87909 0.13953 0.20153 0.0
C163 C 0.38192 0.38933 0.71313 0.0
C164 C 0.34952 0.4139 0.64534 0.0
C165 C 0.40225 0.41583 0.79028 0.0
C166 C 0.38991 0.46743 0.80252 0.0
H167 H 0.39248 0.34978 0.70571 0.0
H168 H 0.42804 0.39593 0.84023 0.0
S169 S 0.30451 0.54761 0.64352 0.0
N170 N 0.30507 0.49146 0.59495 0.0
N171 N 0.3416 0.54133 0.73887 0.0
C172 C 0.35623 0.49169 0.73502 0.0
C173 C 0.33649 0.46492 0.65672 0.0
C174 C 0.68009 0.57664 0.4652 0.0
C175 C 0.66278 0.62651 0.47588 0.0
C176 C 0.66045 0.54766 0.39123 0.0
C177 C 0.62207 0.56709 0.3251 0.0
H178 H 0.70834 0.55951 0.5154 0.0
H179 H 0.67453 0.50901 0.38729 0.0
S180 S 0.56512 0.69696 0.32191 0.0
N181 N 0.60681 0.69533 0.41418 0.0
N182 N 0.56893 0.64071 0.27479 0.0
C183 C 0.60561 0.61779 0.33404 0.0
C184 C 0.62615 0.64751 0.40955 0.0
C185 C 0.88272 0.17929 0.79519 0.0
C186 C 0.85148 0.14244 0.82093 0.0
C187 C 0.91538 0.16607 0.73999 0.0
C188 C 0.91735 0.11573 0.70795 0.0
H189 H 0.88485 0.21758 0.82283 0.0
H190 H 0.94135 0.19488 0.72599 0.0
S191 S 0.83721 0.00708 0.74742 0.0
N192 N 0.82027 0.05508 0.8044 0.0
N193 N 0.88081 0.03028 0.69888 0.0
C194 C 0.88278 0.07965 0.72741 0.0
C195 C 0.85012 0.09299 0.78465 0.0
C196 C 0.35457 0.44378 0.31879 0.0
C197 C 0.34867 0.39213 0.33652 0.0
C198 C 0.38366 0.45798 0.25968 0.0
C199 C 0.40819 0.42095 0.21732 0.0
H200 H 0.33881 0.47348 0.354 0.0
H201 H 0.39053 0.49809 0.25257 0.0
S202 S 0.39974 0.28075 0.23345 0.0
N203 N 0.36576 0.304 0.30076 0.0
N204 N 0.42028 0.33066 0.19006 0.0
C205 C 0.39919 0.36925 0.22961 0.0
C206 C 0.36944 0.35481 0.28916 0.0
C207 C 0.19553 0.93838 0.904 0.0
C208 C 0.16498 0.90635 0.94164 0.0
C209 C 0.1741 0.96388 0.82958 0.0
C210 C 0.12159 0.95753 0.78893 0.0
H211 H 0.23566 0.94572 0.93454 0.0
H212 H 0.19845 0.99022 0.80522 0.0
S213 S 0.02648 0.8738 0.85749 0.0
N214 N 0.08053 0.86679 0.92994 0.0
N215 N 0.04047 0.91408 0.78889 0.0
C216 C 0.0914 0.92322 0.82309 0.0
C217 C 0.11302 0.89791 0.89989 0.0
loop_
_geom_bond_atom_site_label_1
_geom_bond_atom_site_label_2
_geom_bond_distance
_geom_bond_site_symmetry_2
_ccdc_geom_bond_type
H0 C5 0.929 . S
H1 C10 0.931 . S
H2 C8 0.930 . S
N3 N4 1.234 . S
N3 C7 1.453 . S
N4 N3 1.234 . S
C5 H0 0.929 . S
C5 C6 1.373 . S
C5 C7 1.368 1_556 S
C6 C5 1.373 . S
C6 C10 1.397 1_556 S
C7 N3 1.453 . S
C7 C5 1.368 1_554 S
C7 C8 1.373 . S
C8 H2 0.930 . S
C8 C7 1.373 . S
C8 C9 1.371 . S
C9 C8 1.371 . S
C9 C10 1.383 . S
C10 H1 0.931 . S
C10 C6 1.397 1_554 S
C10 C9 1.383 . S
H11 C16 0.929 . S
H12 C21 0.931 . S
H13 C19 0.930 . S
N14 N15 1.234 . S
N14 C18 1.453 . S
N15 N14 1.234 . S
C16 H11 0.929 . S
C16 C17 1.373 . S
C16 C18 1.368 . S
C17 C16 1.373 . S
C17 C21 1.397 . S
C18 N14 1.453 . S
C18 C16 1.368 . S
C18 C19 1.373 . S
C19 H13 0.930 . S
C19 C18 1.373 . S
C19 C20 1.371 . S
C20 C19 1.371 . S
C20 C21 1.383 . S
C21 H12 0.931 . S
C21 C17 1.397 . S
C21 C20 1.383 . S
H22 C27 0.929 . S
H23 C32 0.931 . S
H24 C30 0.930 . S
N25 N26 1.234 1_556 S
N25 C29 1.453 . S
N26 N25 1.234 1_554 S
C27 H22 0.929 . S
C27 C28 1.373 . S
C27 C29 1.368 . S
C28 C27 1.373 . S
C28 C32 1.387 1_556 S
C29 N25 1.453 . S
C29 C27 1.368 . S
C29 C30 1.373 1_556 S
C30 H24 0.930 . S
C30 C29 1.373 1_554 S
C30 C31 1.371 . S
C31 C30 1.371 . S
C31 C32 1.393 . S
C32 H23 0.931 . S
C32 C28 1.387 1_554 S
C32 C31 1.393 . S
H33 C38 0.929 . S
H34 C43 0.931 . S
H35 C41 0.930 . S
N36 N37 1.234 . S
N36 C40 1.453 . S
N37 N36 1.234 . S
C38 H33 0.929 . S
C38 C39 1.373 . S
C38 C40 1.368 . S
C39 C38 1.373 . S
C39 C43 1.397 . S
C40 N36 1.453 . S
C40 C38 1.368 . S
C40 C41 1.373 . S
C41 H35 0.930 . S
C41 C40 1.373 . S
C41 C42 1.371 . S
C42 C41 1.371 . S
C42 C43 1.383 . S
C43 H34 0.931 . S
C43 C39 1.397 . S
C43 C42 1.383 . S
O44 Mg45 1.990 . S
O44 C58 1.253 1_455 S
Mg45 O44 1.990 . S
Mg45 O48 2.180 . S
Mg45 O49 2.117 . S
Mg45 O63 2.030 . S
O46 Mg47 2.072 1_655 S
O46 C58 1.260 . S
Mg47 O46 2.072 1_455 S
Mg47 O48 2.099 . S
Mg47 O50 2.079 1_545 S
Mg47 O51 2.072 1_455 S
Mg47 O53 2.099 1_445 S
Mg47 O64 2.079 1_545 S
O48 Mg45 2.180 . S
O48 Mg47 2.099 . S
O48 C59 1.279 . S
O49 Mg45 2.117 . S
O49 C59 1.250 . S
O50 Mg47 2.079 1_565 S
O50 C60 1.264 . S
O51 Mg47 2.072 1_655 S
O51 C61 1.260 . S
Mg52 O53 2.180 . S
Mg52 O54 2.030 1_655 S
Mg52 O55 1.990 1_565 S
Mg52 O56 2.117 . S
O53 Mg47 2.099 1_665 S
O53 Mg52 2.180 . S
O53 C62 1.279 . S
O54 Mg52 2.030 1_455 S
O54 C60 1.248 . S
O55 Mg52 1.990 1_545 S
O55 C61 1.253 . S
O56 Mg52 2.117 . S
O56 C62 1.250 . S
C57 O63 1.248 1_565 S
C57 O64 1.264 . S
C58 O44 1.253 1_655 S
C58 O46 1.260 . S
C59 O48 1.279 . S
C59 O49 1.250 . S
C60 O50 1.264 . S
C60 O54 1.248 . S
C61 O51 1.260 . S
C61 O55 1.253 . S
C62 O53 1.279 . S
C62 O56 1.250 . S
O63 Mg45 2.030 . S
O63 C57 1.248 1_545 S
O64 Mg47 2.079 1_565 S
O64 C57 1.264 . S
O65 Mg66 1.990 . S
O65 C79 1.253 . S
Mg66 O65 1.990 . S
Mg66 O69 2.180 . S
Mg66 O70 2.117 . S
Mg66 O84 2.030 . S
O67 Mg68 2.072 . S
O67 C79 1.260 . S
Mg68 O67 2.072 . S
Mg68 O69 2.099 . S
Mg68 O71 2.079 1_554 S
Mg68 O72 2.072 1_554 S
Mg68 O74 2.099 . S
Mg68 O85 2.079 . S
O69 Mg66 2.180 . S
O69 Mg68 2.099 . S
O69 C80 1.279 . S
O70 Mg66 2.117 . S
O70 C80 1.250 . S
O71 Mg68 2.079 1_556 S
O71 C81 1.264 . S
O72 Mg68 2.072 1_556 S
O72 C82 1.260 . S
Mg73 O74 2.180 1_556 S
Mg73 O75 2.030 . S
Mg73 O76 1.990 . S
Mg73 O77 2.117 . S
O74 Mg68 2.099 . S
O74 Mg73 2.180 1_554 S
O74 C83 1.279 . S
O75 Mg73 2.030 . S
O75 C81 1.248 . S
O76 Mg73 1.990 . S
O76 C82 1.253 . S
O77 Mg73 2.117 . S
O77 C83 1.250 1_556 S
C78 O84 1.248 . S
C78 O85 1.264 . S
C79 O65 1.253 . S
C79 O67 1.260 . S
C80 O69 1.279 . S
C80 O70 1.250 . S
C81 O71 1.264 . S
C81 O75 1.248 . S
C82 O72 1.260 . S
C82 O76 1.253 . S
C83 O74 1.279 . S
C83 O77 1.250 1_554 S
O84 Mg66 2.030 . S
O84 C78 1.248 . S
O85 Mg68 2.079 . S
O85 C78 1.264 . S
C86 C87 1.369 . S
C86 C88 1.419 . S
C86 H90 0.930 . S
C87 C86 1.369 . S
C87 C96 1.429 . S
C88 C86 1.419 . S
C88 C89 1.363 . S
C88 H91 0.929 . S
C89 C88 1.363 . S
C89 C95 1.428 . S
H90 C86 0.930 . S
H91 C88 0.929 . S
S92 N93 1.613 . S
S92 N94 1.610 . S
N93 S92 1.613 . S
N93 C96 1.350 . S
N94 S92 1.610 . S
N94 C95 1.351 . S
C95 C89 1.428 . S
C95 N94 1.351 . S
C95 C96 1.434 . S
C96 C87 1.429 . S
C96 N93 1.350 . S
C96 C95 1.434 . S
C97 C98 1.369 . S
C97 C99 1.419 . S
C97 H101 0.930 . S
C98 C97 1.369 . S
C98 C107 1.429 . S
C99 C97 1.419 . S
C99 C100 1.363 . S
C99 H102 0.929 1_554 S
C100 C99 1.363 . S
C100 C106 1.428 . S
H101 C97 0.930 . S
H102 C99 0.929 1_556 S
S103 N104 1.613 . S
S103 N105 1.610 . S
N104 S103 1.613 . S
N104 C107 1.350 . S
N105 S103 1.610 . S
N105 C106 1.351 . S
C106 C100 1.428 . S
C106 N105 1.351 . S
C106 C107 1.434 . S
C107 C98 1.429 . S
C107 N104 1.350 . S
C107 C106 1.434 . S
C108 C109 1.369 . S
C108 C110 1.419 . S
C108 H112 0.930 . S
C109 C108 1.369 . S
C109 C118 1.429 . S
C110 C108 1.419 . S
C110 C111 1.363 . S
C110 H113 0.929 . S
C111 C110 1.363 . S
C111 C117 1.428 . S
H112 C108 0.930 . S
H113 C110 0.929 . S
S114 N115 1.613 . S
S114 N116 1.610 . S
N115 S114 1.613 . S
N115 C118 1.350 . S
N116 S114 1.610 . S
N116 C117 1.351 . S
C117 C111 1.428 . S
C117 N116 1.351 . S
C117 C118 1.434 . S
C118 C109 1.429 . S
C118 N115 1.350 . S
C118 C117 1.434 . S
C119 C120 1.369 . S
C119 C121 1.419 . S
C119 H123 0.930 . S
C120 C119 1.369 . S
C120 C129 1.427 1_554 S
C121 C119 1.419 . S
C121 C122 1.363 . S
C121 H124 0.929 . S
C122 C121 1.363 . S
C122 C128 1.428 . S
H123 C119 0.930 . S
H124 C121 0.929 . S
S125 N126 1.613 . S
S125 N127 1.610 . S
N126 S125 1.613 . S
N126 C129 1.352 . S
N127 S125 1.610 . S
N127 C128 1.351 1_556 S
C128 C122 1.428 . S
C128 N127 1.351 1_554 S
C128 C129 1.433 1_554 S
C129 C120 1.427 1_556 S
C129 N126 1.352 . S
C129 C128 1.433 1_556 S
C130 C131 1.369 . S
C130 C132 1.419 . S
C130 H134 0.930 . S
C131 C130 1.369 . S
C131 C140 1.429 . S
C132 C130 1.419 . S
C132 C133 1.363 . S
C132 H135 0.929 . S
C133 C132 1.363 . S
C133 C139 1.428 . S
H134 C130 0.930 . S
H135 C132 0.929 . S
S136 N137 1.613 . S
S136 N138 1.610 . S
N137 S136 1.613 . S
N137 C140 1.350 . S
N138 S136 1.610 . S
N138 C139 1.351 . S
C139 C133 1.428 . S
C139 N138 1.351 . S
C139 C140 1.434 . S
C140 C131 1.429 . S
C140 N137 1.350 . S
C140 C139 1.434 . S
C141 C142 1.369 . S
C141 C143 1.419 . S
C141 H145 0.930 . S
C142 C141 1.369 . S
C142 C151 1.429 . S
C143 C141 1.419 . S
C143 C144 1.363 . S
C143 H146 0.929 . S
C144 C143 1.363 . S
C144 C150 1.428 . S
H145 C141 0.930 . S
H146 C143 0.929 . S
S147 N148 1.613 . S
S147 N149 1.610 . S
N148 S147 1.613 . S
N148 C151 1.350 . S
N149 S147 1.610 . S
N149 C150 1.351 . S
C150 C144 1.428 . S
C150 N149 1.351 . S
C150 C151 1.434 . S
C151 C142 1.429 . S
C151 N148 1.350 . S
C151 C150 1.434 . S
C152 C153 1.369 . S
C152 C154 1.419 . S
C152 H156 0.930 . S
C153 C152 1.369 . S
C153 C162 1.429 . S
C154 C152 1.419 . S
C154 C155 1.363 . S
C154 H157 0.929 . S
C155 C154 1.363 . S
C155 C161 1.428 . S
H156 C152 0.930 . S
H157 C154 0.929 . S
S158 N159 1.613 . S
S158 N160 1.610 . S
N159 S158 1.613 . S
N159 C162 1.350 . S
N160 S158 1.610 . S
N160 C161 1.351 . S
C161 C155 1.428 . S
C161 N160 1.351 . S
C161 C162 1.434 . S
C162 C153 1.429 . S
C162 N159 1.350 . S
C162 C161 1.434 . S
C163 C164 1.369 . S
C163 C165 1.419 . S
C163 H167 0.930 . S
C164 C163 1.369 . S
C164 C173 1.429 . S
C165 C163 1.419 . S
C165 C166 1.363 . S
C165 H168 0.929 . S
C166 C165 1.363 . S
C166 C172 1.428 . S
H167 C163 0.930 . S
H168 C165 0.929 . S
S169 N170 1.613 . S
S169 N171 1.610 . S
N170 S169 1.613 . S
N170 C173 1.350 . S
N171 S169 1.610 . S
N171 C172 1.351 . S
C172 C166 1.428 . S
C172 N171 1.351 . S
C172 C173 1.434 . S
C173 C164 1.429 . S
C173 N170 1.350 . S
C173 C172 1.434 . S
C174 C175 1.369 . S
C174 C176 1.419 . S
C174 H178 0.930 . S
C175 C174 1.369 . S
C175 C184 1.429 . S
C176 C174 1.419 . S
C176 C177 1.363 . S
C176 H179 0.929 . S
C177 C176 1.363 . S
C177 C183 1.428 . S
H178 C174 0.930 . S
H179 C176 0.929 . S
S180 N181 1.613 . S
S180 N182 1.610 . S
N181 S180 1.613 . S
N181 C184 1.350 . S
N182 S180 1.610 . S
N182 C183 1.351 . S
C183 C177 1.428 . S
C183 N182 1.351 . S
C183 C184 1.434 . S
C184 C175 1.429 . S
C184 N181 1.350 . S
C184 C183 1.434 . S
C185 C186 1.369 . S
C185 C187 1.419 . S
C185 H189 0.930 . S
C186 C185 1.369 . S
C186 C195 1.429 . S
C187 C185 1.419 . S
C187 C188 1.363 . S
C187 H190 0.929 . S
C188 C187 1.363 . S
C188 C194 1.428 . S
H189 C185 0.930 . S
H190 C187 0.929 . S
S191 N192 1.613 . S
S191 N193 1.610 . S
N192 S191 1.613 . S
N192 C195 1.350 . S
N193 S191 1.610 . S
N193 C194 1.351 . S
C194 C188 1.428 . S
C194 N193 1.351 . S
C194 C195 1.434 . S
C195 C186 1.429 . S
C195 N192 1.350 . S
C195 C194 1.434 . S
C196 C197 1.369 . S
C196 C198 1.419 . S
C196 H200 0.930 . S
C197 C196 1.369 . S
C197 C206 1.429 . S
C198 C196 1.419 . S
C198 C199 1.363 . S
C198 H201 0.929 . S
C199 C198 1.363 . S
C199 C205 1.428 . S
H200 C196 0.930 . S
H201 C198 0.929 . S
S202 N203 1.613 . S
S202 N204 1.610 . S
N203 S202 1.613 . S
N203 C206 1.350 . S
N204 S202 1.610 . S
N204 C205 1.351 . S
C205 C199 1.428 . S
C205 N204 1.351 . S
C205 C206 1.434 . S
C206 C197 1.429 . S
C206 N203 1.350 . S
C206 C205 1.434 . S
C207 C208 1.369 . S
C207 C209 1.419 . S
C207 H211 0.930 . S
C208 C207 1.369 . S
C208 C217 1.429 . S
C209 C207 1.419 . S
C209 C210 1.363 . S
C209 H212 0.929 1_565 S
C210 C209 1.363 . S
C210 C216 1.428 . S
H211 C207 0.930 . S
H212 C209 0.929 1_545 S
S213 N214 1.613 . S
S213 N215 1.610 . S
N214 S213 1.613 . S
N214 C217 1.350 . S
N215 S213 1.610 . S
N215 C216 1.351 . S
C216 C210 1.428 . S
C216 N215 1.351 . S
C216 C217 1.434 . S
C217 C208 1.429 . S
C217 N214 1.350 . S
C217 C216 1.434 . S
C89 C59 1.266 . S
C87 N37 1.454 . S
C98 N4 1.495 . S
C100 C83 1.320 . S
C109 N15 1.559 . S
C111 C62 1.383 . S
C120 N26 1.563 . S
C122 C80 1.360 . S
C133 C60 1.502 . S
C131 C9 1.500 . S
C144 C82 1.520 . S
C142 C17 1.598 . S
C153 C31 1.584 . S
C155 C61 1.548 . S
C164 C42 1.501 . S
C166 C81 1.448 . S
C177 C79 1.473 . S
C175 C20 1.514 . S
C188 C58 1.455 . S
C186 C28 1.521 . S
C199 C78 1.418 . S
C197 C39 1.450 . S
C208 C6 1.448 . S
C210 C57 1.393 . S
