# Generated by pormake.
# Topology zzz, (3,6)-cn, num edge types: 1
# Building blocks:
#     Node 0, Type 0, BuildingBlock: BETDAH_clean_linker_0, # of connection points: 3
#     Node 1, Type 0, BuildingBlock: BETDAH_clean_linker_0, # of connection points: 3
#     Node 2, Type 0, BuildingBlock: BETDAH_clean_linker_0, # of connection points: 3
#     Node 3, Type 0, BuildingBlock: BETDAH_clean_linker_0, # of connection points: 3
#     Node 4, Type 0, BuildingBlock: BETDAH_clean_linker_0, # of connection points: 3
#     Node 5, Type 0, BuildingBlock: BETDAH_clean_linker_0, # of connection points: 3
#     Node 6, Type 0, BuildingBlock: BETDAH_clean_linker_0, # of connection points: 3
#     Node 7, Type 0, BuildingBlock: BETDAH_clean_linker_0, # of connection points: 3
#     Node 8, Type 1, BuildingBlock: JUFBIX_clean_sbu_0, # of connection points: 6
#     Node 9, Type 1, BuildingBlock: JUFBIX_clean_sbu_0, # of connection points: 6
#     Node 10, Type 1, BuildingBlock: JUFBIX_clean_sbu_0, # of connection points: 6
#     Node 11, Type 1, BuildingBlock: JUFBIX_clean_sbu_0, # of connection points: 6
#     Edge 12, Type (0, 1), None
#     Edge 13, Type (0, 1), None
#     Edge 14, Type (0, 1), None
#     Edge 15, Type (0, 1), None
#     Edge 16, Type (0, 1), None
#     Edge 17, Type (0, 1), None
#     Edge 18, Type (0, 1), None
#     Edge 19, Type (0, 1), None
#     Edge 20, Type (0, 1), None
#     Edge 21, Type (0, 1), None
#     Edge 22, Type (0, 1), None
#     Edge 23, Type (0, 1), None
#     Edge 24, Type (0, 1), None
#     Edge 25, Type (0, 1), None
#     Edge 26, Type (0, 1), None
#     Edge 27, Type (0, 1), None
#     Edge 28, Type (0, 1), None
#     Edge 29, Type (0, 1), None
#     Edge 30, Type (0, 1), None
#     Edge 31, Type (0, 1), None
#     Edge 32, Type (0, 1), None
#     Edge 33, Type (0, 1), None
#     Edge 34, Type (0, 1), None
#     Edge 35, Type (0, 1), None
# Relax obj value: 0.125
# Max RMSD: 0.191
# Mean RMSD: 0.088
data_MOF--net-zzz--node1-JUFBIX_clean_sbu_0--node2-BETDAH_clean_linker_0--edge1-none
_symmetry_space_group_name_H-M    P1
_symmetry_Int_Tables_number       1
_symmetry_cell_setting            triclinic
loop_
_symmetry_equiv_pos_as_xyz
'x, y, z'
_cell_length_a     23.870529
_cell_length_b     23.904854
_cell_length_c     8.5423702
_cell_angle_alpha  72.156232
_cell_angle_beta   88.231321
_cell_angle_gamma 91.642248
loop_
_atom_site_label
_atom_site_type_symbol
_atom_site_fract_x
_atom_site_fract_y
_atom_site_fract_z
_atom_type_partial_charge
H0 H 1.01954 0.49532 0.42889 0.0
H1 H 0.87818 0.5207 0.12435 0.0
H2 H 0.86952 0.56546 0.57709 0.0
C3 C 0.97637 0.50754 0.40949 0.0
C4 C 0.94788 0.53062 0.52198 0.0
C5 C 0.95131 0.50473 0.2653 0.0
C6 C 0.89613 0.52104 0.23907 0.0
C7 C 0.86574 0.54195 0.35168 0.0
C8 C 0.89229 0.54815 0.4916 0.0
N9 N 0.8093 0.55852 0.32179 0.0
C10 C 0.77969 0.54634 0.19661 0.0
H11 H 0.96133 0.93075 0.35653 0.0
H12 H 0.02765 0.8305 0.06664 0.0
H13 H 0.02916 0.76337 0.5905 0.0
C14 C 0.97489 0.88844 0.35062 0.0
C15 C 0.99666 0.85027 0.49045 0.0
C16 C 0.99831 0.8864 0.20289 0.0
C17 C 1.01352 0.83267 0.18632 0.0
C18 C 1.01868 0.78471 0.32828 0.0
C19 C 1.0138 0.79491 0.48255 0.0
N20 N 0.03697 0.73013 0.31578 0.0
C21 C 0.04487 0.72044 0.16368 0.0
H22 H 0.66765 0.96215 0.3196 0.0
H23 H 0.75547 0.03608 0.85554 0.0
H24 H 0.80411 0.08799 0.26529 0.0
C25 C 0.70412 0.98646 0.2497 0.0
C26 C 0.7324 0.02591 0.31154 0.0
C27 C 0.70365 1.00186 0.08066 0.0
C28 C 0.75317 0.02723 0.98786 0.0
C29 C 0.79538 0.05116 0.06292 0.0
C30 C 0.78086 0.05687 0.22048 0.0
N31 N 0.8412 0.08563 0.96389 0.0
C32 C 0.88874 0.06399 0.90277 0.0
H33 H 0.57926 0.56887 0.31743 0.0
H34 H 0.53931 0.72892 0.94916 0.0
H35 H 0.55669 0.7246 0.45488 0.0
C36 C 0.56939 0.61437 0.2856 0.0
C37 C 0.56858 0.64172 0.40878 0.0
C38 C 0.55541 0.64383 0.12304 0.0
C39 C 0.54839 0.70536 0.07519 0.0
C40 C 0.55177 0.73572 0.19359 0.0
C41 C 0.55896 0.70265 0.36124 0.0
N42 N 0.54029 0.79702 0.15743 0.0
C43 C 0.5518 0.84612 0.01625 0.0
H44 H 0.09271 0.5636 0.32015 0.0
H45 H 0.23191 0.53065 0.63327 0.0
H46 H 0.23917 0.48521 0.18173 0.0
C47 C 0.13525 0.54938 0.34183 0.0
C48 C 0.16283 0.52477 0.23115 0.0
C49 C 0.15997 0.55064 0.48795 0.0
C50 C 0.21425 0.53148 0.51724 0.0
C51 C 0.24378 0.50893 0.40655 0.0
C52 C 0.21725 0.50405 0.26531 0.0
N53 N 0.2992 0.48928 0.43989 0.0
C54 C 0.32935 0.50072 0.56514 0.0
H55 H 0.14681 0.12891 0.38858 0.0
H56 H 0.08619 0.23246 0.67571 0.0
H57 H 0.08705 0.29997 0.15143 0.0
C58 C 0.13533 0.17197 0.39375 0.0
C59 C 0.11551 0.21138 0.25278 0.0
C60 C 0.112 0.17525 0.54029 0.0
C61 C 0.09983 0.22974 0.55623 0.0
C62 C 0.09661 0.27799 0.41409 0.0
C63 C 0.10103 0.26765 0.25991 0.0
N64 N 0.08021 0.33318 0.42661 0.0
C65 C 0.07052 0.34154 0.57973 0.0
H66 H 0.45011 0.94886 0.63384 0.0
H67 H 0.34309 0.0563 0.81529 0.0
H68 H 0.29684 1.00376 0.39597 0.0
C69 C 0.41106 0.97155 0.62586 0.0
C70 C 0.37827 0.97702 0.49277 0.0
C71 C 0.40487 1.01052 0.71267 0.0
C72 C 0.3508 0.03061 0.73274 0.0
C73 C 0.30802 1.02034 0.63179 0.0
C74 C 0.32478 1.0009 0.49536 0.0
N75 N 0.25233 0.03986 0.64206 0.0
C76 C 0.21501 0.02865 0.78073 0.0
H77 H 0.54988 0.48256 0.42667 0.0
H78 H 0.55588 0.31761 0.80989 0.0
H79 H 0.53164 0.3227 0.30526 0.0
C80 C 0.55028 0.43554 0.46271 0.0
C81 C 0.5423 0.40754 0.34317 0.0
C82 C 0.55733 0.40447 0.62887 0.0
C83 C 0.5535 0.34198 0.68069 0.0
C84 C 0.54324 0.3117 0.56436 0.0
C85 C 0.5385 0.34532 0.39563 0.0
N86 N 0.53231 0.24896 0.60871 0.0
C87 C 0.54579 0.20106 0.74587 0.0
Co88 Co 0.06179 0.05283 0.96573 0.0
C89 C 0.94739 0.05348 0.86716 0.0
Co90 Co 0.04458 1.01116 0.77555 0.0
C91 C 0.10233 0.14298 0.09342 0.0
C92 C 1.0216 0.10719 0.1964 0.0
N93 N 0.06584 0.09711 0.10849 0.0
N94 N 0.08202 0.18238 0.16316 0.0
C95 C 0.03069 0.15977 0.22574 0.0
H96 H 0.1436 0.14729 0.03367 0.0
H97 H 0.98394 0.07925 0.23174 0.0
C98 C 0.15958 1.0144 0.86642 0.0
N99 N 0.04115 0.96695 0.63235 0.0
C100 C 1.00679 0.91928 0.6493 0.0
C101 C 0.0857 0.95924 0.54156 0.0
N102 N 0.02889 0.88103 0.57829 0.0
C103 C 0.07909 0.90628 0.51282 0.0
C104 C 0.08517 0.12293 0.6545 0.0
O105 O 0.14269 0.03852 0.97279 0.0
O106 O 0.1229 0.99481 0.79099 0.0
O107 O 0.06639 0.08056 0.60735 0.0
O108 O 0.08004 0.12064 0.80269 0.0
O109 O 0.96388 0.02869 0.7616 0.0
H110 H 0.1221 0.98901 0.5047 0.0
H111 H 0.96578 0.91283 0.71141 0.0
O112 O 0.98365 0.06828 0.95296 0.0
O113 O 0.04187 0.98236 0.13474 0.0
O114 O 0.02467 0.9437 0.93831 0.0
C115 C 1.02217 0.94024 0.08753 0.0
H116 H 1.00442 0.17652 0.30559 0.0
H117 H 0.1061 0.89088 0.43163 0.0
Co118 Co 0.53035 1.0219 0.00028 0.0
C119 C 0.55127 0.91031 0.93666 0.0
Co120 Co 0.57647 1.02561 0.76736 0.0
C121 C 0.4386 1.01447 0.24394 0.0
C122 C 0.49307 0.94311 0.30428 0.0
N123 N 0.49098 0.9994 0.20802 0.0
N124 N 0.40746 0.96929 0.35122 0.0
C125 C 0.44131 0.92333 0.37576 0.0
H126 H 0.42324 0.05823 0.19219 0.0
H127 H 0.52903 0.91595 0.3121 0.0
C128 C 0.55438 0.13767 0.82628 0.0
N129 N 0.61638 0.04267 0.56491 0.0
C130 C 0.6649 1.01738 0.54262 0.0
C131 C 0.61774 0.09343 0.43978 0.0
N132 N 0.69715 0.05035 0.41158 0.0
C133 C 0.6667 0.09798 0.34587 0.0
C134 C 0.45808 0.0291 0.76523 0.0
O135 O 0.53235 0.1078 0.96761 0.0
O136 O 0.57512 0.10971 0.73462 0.0
O137 O 0.50348 0.02878 0.67976 0.0
O138 O 0.46077 0.02912 0.91112 0.0
O139 O 0.57757 0.93915 0.80282 0.0
H140 H 0.58612 0.12612 0.42066 0.0
H141 H 0.67645 0.97472 0.62094 0.0
O142 O 0.52838 0.93929 0.02009 0.0
O143 O 0.60359 1.01243 0.09504 0.0
O144 O 0.64539 1.02166 0.85635 0.0
C145 C 0.64819 1.01091 0.00856 0.0
H146 H 0.43295 0.88072 0.46675 0.0
H147 H 0.677 0.13156 0.22986 0.0
Co148 Co 0.60223 0.52363 0.87666 0.0
C149 C 0.54343 0.44511 0.16516 0.0
Co150 Co 0.50924 0.52504 0.87467 0.0
C151 C 0.70655 0.55655 -0.0044 0.0
C152 C 0.71204 0.47573 0.93884 0.0
N153 N 0.67967 0.52289 0.91624 0.0
N154 N 0.75179 0.53097 0.07188 0.0
C155 C 0.75633 0.48065 0.03466 0.0
H156 H 0.69063 0.59612 0.01336 0.0
H157 H 0.70069 0.43674 0.90635 0.0
C158 C 0.56785 0.60348 0.58602 0.0
N159 N 0.43184 0.5262 0.83578 0.0
C160 C 0.40382 0.49148 0.76203 0.0
C161 C 0.40018 0.57398 0.81017 0.0
N162 N 0.35796 0.51657 0.68793 0.0
C163 C 0.35495 0.56819 0.71876 0.0
C164 C 0.55134 0.60777 0.00884 0.0
O165 O 0.61248 0.58243 0.65742 0.0
O166 O 0.52065 0.58413 0.65936 0.0
O167 O 0.50448 0.58722 0.97839 0.0
O168 O 0.59567 0.58539 0.97475 0.0
O169 O 0.49883 0.46545 0.09237 0.0
H170 H 0.4126 0.61377 0.83719 0.0
H171 H 0.41932 0.45135 0.7468 0.0
O172 O 0.59068 0.46533 0.09335 0.0
O173 O 0.60715 0.46098 0.77554 0.0
O174 O 0.51594 0.4635 0.77409 0.0
C175 C 0.56051 0.4405 0.74347 0.0
H176 H 0.78611 0.44725 0.08616 0.0
H177 H 0.32553 0.60176 0.66534 0.0
Co178 Co 0.05246 0.57656 0.84078 0.0
C179 C 0.13251 0.52131 0.08415 0.0
Co180 Co 0.05835 0.47943 0.91168 0.0
C181 C 1.02307 0.67203 0.95847 0.0
C182 C 0.09852 0.69064 0.80786 0.0
N183 N 0.05125 0.65555 0.84013 0.0
N184 N 0.05303 0.71083 0.0103 0.0
C185 C 0.0998 0.72429 0.91329 0.0
H186 H 0.98503 0.65026 0.02347 0.0
H187 H 0.13426 0.68517 0.73388 0.0
C188 C 0.9781 0.53452 0.66871 0.0
N189 N 0.05988 0.40056 0.91252 0.0
C190 C 0.09015 0.3842 0.79772 0.0
C191 C 1.01196 0.36676 0.93518 0.0
N192 N 0.06095 0.34721 0.73734 0.0
C193 C 1.01228 0.33466 0.82577 0.0
C194 C 0.98657 0.50569 0.12063 0.0
O195 O 0.99312 0.58381 0.68709 0.0
O196 O 0.99969 0.488 0.75715 0.0
O197 O 1.00565 0.45997 0.09613 0.0
O198 O 0.99994 0.55561 0.02038 0.0
O199 O 0.11759 0.47214 0.06503 0.0
H200 H 0.97492 0.37302 0.00296 0.0
H201 H 0.12946 0.40535 0.74026 0.0
O202 O 0.11109 0.56796 -0.00435 0.0
O203 O 0.1053 0.59593 0.6558 0.0
O204 O 0.11077 0.50038 0.73218 0.0
C205 C 0.12436 0.55014 0.63176 0.0
H206 H 0.13528 0.75065 0.93097 0.0
H207 H 0.97677 0.3105 0.79858 0.0
loop_
_geom_bond_atom_site_label_1
_geom_bond_atom_site_label_2
_geom_bond_distance
_geom_bond_site_symmetry_2
_ccdc_geom_bond_type
H0 C3 0.929 1_455 S
H1 C6 0.929 . S
H2 C8 0.930 . S
C3 H0 0.929 1_655 S
C3 C4 1.398 . S
C3 C5 1.396 . S
C4 C3 1.398 . S
C4 C8 1.407 . S
C5 C3 1.396 . S
C5 C6 1.394 . S
C6 H1 0.929 . S
C6 C5 1.394 . S
C6 C7 1.382 . S
C7 C6 1.382 . S
C7 C8 1.392 . S
C7 N9 1.420 . S
C8 H2 0.930 . S
C8 C4 1.407 . S
C8 C7 1.392 . S
N9 C7 1.420 . S
N9 C10 1.244 . S
C10 N9 1.244 . S
H11 C14 0.929 . S
H12 C17 0.929 . S
H13 C19 0.930 . S
C14 H11 0.929 . S
C14 C15 1.398 . S
C14 C16 1.396 1_554 S
C15 C14 1.398 . S
C15 C19 1.407 . S
C16 C14 1.396 1_556 S
C16 C17 1.394 . S
C17 H12 0.929 . S
C17 C16 1.394 . S
C17 C18 1.382 1_556 S
C18 C17 1.382 1_554 S
C18 C19 1.392 . S
C18 N20 1.420 . S
C19 H13 0.930 . S
C19 C15 1.407 . S
C19 C18 1.392 . S
N20 C18 1.420 . S
N20 C21 1.244 1_554 S
C21 N20 1.244 1_556 S
H22 C25 0.929 . S
H23 C28 0.929 . S
H24 C30 0.930 . S
C25 H22 0.929 . S
C25 C26 1.398 1_565 S
C25 C27 1.400 1_564 S
C26 C25 1.398 1_545 S
C26 C30 1.407 . S
C27 C25 1.400 1_546 S
C27 C28 1.396 . S
C28 H23 0.929 . S
C28 C27 1.396 . S
C28 C29 1.382 1_556 S
C29 C28 1.382 1_554 S
C29 C30 1.392 . S
C29 N31 1.420 . S
C30 H24 0.930 . S
C30 C26 1.407 . S
C30 C29 1.392 . S
N31 C29 1.420 . S
N31 C32 1.244 1_544 S
C32 N31 1.244 1_566 S
H33 C36 0.929 . S
H34 C39 0.929 1_556 S
H35 C41 0.930 . S
C36 H33 0.929 . S
C36 C37 1.398 . S
C36 C38 1.396 . S
C37 C36 1.398 . S
C37 C41 1.407 . S
C38 C36 1.396 . S
C38 C39 1.394 . S
C39 H34 0.929 1_554 S
C39 C38 1.394 . S
C39 C40 1.382 . S
C40 C39 1.382 . S
C40 C41 1.392 . S
C40 N42 1.420 . S
C41 H35 0.930 . S
C41 C37 1.407 . S
C41 C40 1.392 . S
N42 C40 1.420 . S
N42 C43 1.244 . S
C43 N42 1.244 . S
H44 C47 0.929 . S
H45 C50 0.929 . S
H46 C52 0.930 . S
C47 H44 0.929 . S
C47 C48 1.398 . S
C47 C49 1.396 . S
C48 C47 1.398 . S
C48 C52 1.407 . S
C49 C47 1.396 . S
C49 C50 1.394 . S
C50 H45 0.929 . S
C50 C49 1.394 . S
C50 C51 1.382 . S
C51 C50 1.382 . S
C51 C52 1.392 . S
C51 N53 1.420 . S
C52 H46 0.930 . S
C52 C48 1.407 . S
C52 C51 1.392 . S
N53 C51 1.420 . S
N53 C54 1.244 . S
C54 N53 1.244 . S
H55 C58 0.929 . S
H56 C61 0.929 . S
H57 C63 0.930 . S
C58 H55 0.929 . S
C58 C59 1.398 . S
C58 C60 1.396 . S
C59 C58 1.398 . S
C59 C63 1.407 . S
C60 C58 1.396 . S
C60 C61 1.394 . S
C61 H56 0.929 . S
C61 C60 1.394 . S
C61 C62 1.382 . S
C62 C61 1.382 . S
C62 C63 1.392 . S
C62 N64 1.420 . S
C63 H57 0.930 . S
C63 C59 1.407 . S
C63 C62 1.392 . S
N64 C62 1.420 . S
N64 C65 1.244 . S
C65 N64 1.244 . S
H66 C69 0.929 . S
H67 C72 0.929 . S
H68 C74 0.930 . S
C69 H66 0.929 . S
C69 C70 1.398 1_565 S
C69 C71 1.396 1_565 S
C70 C69 1.398 1_545 S
C70 C74 1.407 . S
C71 C69 1.396 1_545 S
C71 C72 1.394 . S
C72 H67 0.929 . S
C72 C71 1.394 . S
C72 C73 1.382 . S
C73 C72 1.382 . S
C73 C74 1.392 . S
C73 N75 1.420 . S
C74 H68 0.930 . S
C74 C70 1.407 . S
C74 C73 1.392 . S
N75 C73 1.420 . S
N75 C76 1.244 1_545 S
C76 N75 1.244 1_565 S
H77 C80 0.929 . S
H78 C83 0.929 . S
H79 C85 0.930 . S
C80 H77 0.929 . S
C80 C81 1.398 . S
C80 C82 1.396 . S
C81 C80 1.398 . S
C81 C85 1.407 . S
C82 C80 1.396 . S
C82 C83 1.394 . S
C83 H78 0.929 . S
C83 C82 1.394 . S
C83 C84 1.382 . S
C84 C83 1.382 . S
C84 C85 1.392 . S
C84 N86 1.420 . S
C85 H79 0.930 . S
C85 C81 1.407 . S
C85 C84 1.392 . S
N86 C84 1.420 . S
N86 C87 1.244 . S
C87 N86 1.244 . S
Co88 N93 2.057 . S
Co88 O105 2.021 1_545 S
Co88 O108 2.062 1_554 S
Co88 O112 2.117 1_454 S
Co88 O113 2.020 1_545 S
C89 O109 1.259 . S
C89 O112 1.258 . S
Co90 N99 2.057 . S
Co90 O106 2.117 . S
Co90 O107 2.020 1_565 S
Co90 O109 2.021 1_465 S
Co90 O114 2.062 . S
C91 N93 1.316 . S
C91 N94 1.347 . S
C91 H96 0.931 . S
C92 N93 1.375 1_655 S
C92 C95 1.350 1_655 S
C92 H97 0.930 . S
N93 Co88 2.057 . S
N93 C91 1.316 . S
N93 C92 1.375 1_455 S
N94 C91 1.347 . S
N94 C95 1.373 . S
C95 C92 1.350 1_455 S
C95 N94 1.373 . S
C95 H116 0.931 1_455 S
H96 C91 0.931 . S
H97 C92 0.930 . S
C98 O105 1.259 1_556 S
C98 O106 1.258 . S
N99 Co90 2.057 . S
N99 C100 1.316 1_455 S
N99 C101 1.375 . S
C100 N99 1.316 1_655 S
C100 N102 1.347 . S
C100 H111 0.931 . S
C101 N99 1.375 . S
C101 C103 1.350 . S
C101 H110 0.930 . S
N102 C100 1.347 . S
N102 C103 1.373 1_655 S
C103 C101 1.350 . S
C103 N102 1.373 1_455 S
C103 H117 0.931 . S
C104 O107 1.256 . S
C104 O108 1.255 . S
O105 Co88 2.021 1_565 S
O105 C98 1.259 1_554 S
O106 Co90 2.117 . S
O106 C98 1.258 . S
O107 Co90 2.020 1_545 S
O107 C104 1.256 . S
O108 Co88 2.062 1_556 S
O108 C104 1.255 . S
O109 C89 1.259 . S
O109 Co90 2.021 1_645 S
H110 C101 0.930 . S
H111 C100 0.931 . S
O112 Co88 2.117 1_656 S
O112 C89 1.258 . S
O113 Co88 2.020 1_565 S
O113 C115 1.256 . S
O114 Co90 2.062 . S
O114 C115 1.255 1_556 S
C115 O113 1.256 . S
C115 O114 1.255 1_554 S
H116 C95 0.931 1_655 S
H117 C103 0.931 . S
Co118 N123 2.057 1_545 S
Co118 O135 2.021 1_554 S
Co118 O138 2.062 1_554 S
Co118 O142 2.117 1_545 S
Co118 O143 2.020 . S
C119 O139 1.259 . S
C119 O142 1.258 1_556 S
Co120 N129 2.057 1_565 S
Co120 O136 2.117 1_565 S
Co120 O137 2.020 . S
Co120 O139 2.021 . S
Co120 O144 2.062 . S
C121 N123 1.316 1_545 S
C121 N124 1.347 1_545 S
C121 H126 0.931 . S
C122 N123 1.375 . S
C122 C125 1.350 . S
C122 H127 0.930 . S
N123 Co118 2.057 1_565 S
N123 C121 1.316 1_565 S
N123 C122 1.375 . S
N124 C121 1.347 1_565 S
N124 C125 1.373 . S
C125 C122 1.350 . S
C125 N124 1.373 . S
C125 H146 0.931 . S
H126 C121 0.931 . S
H127 C122 0.930 . S
C128 O135 1.259 . S
C128 O136 1.258 . S
N129 Co120 2.057 1_545 S
N129 C130 1.316 1_545 S
N129 C131 1.375 . S
C130 N129 1.316 1_565 S
C130 N132 1.347 1_565 S
C130 H141 0.931 . S
C131 N129 1.375 . S
C131 C133 1.350 . S
C131 H140 0.930 . S
N132 C130 1.347 1_545 S
N132 C133 1.373 . S
C133 C131 1.350 . S
C133 N132 1.373 . S
C133 H147 0.931 . S
C134 O137 1.256 . S
C134 O138 1.255 1_565 S
O135 Co118 2.021 1_556 S
O135 C128 1.259 . S
O136 Co120 2.117 1_545 S
O136 C128 1.258 . S
O137 Co120 2.020 . S
O137 C134 1.256 . S
O138 Co118 2.062 1_556 S
O138 C134 1.255 1_545 S
O139 C119 1.259 . S
O139 Co120 2.021 . S
H140 C131 0.930 . S
H141 C130 0.931 . S
O142 Co118 2.117 1_565 S
O142 C119 1.258 1_554 S
O143 Co118 2.020 . S
O143 C145 1.256 1_554 S
O144 Co120 2.062 . S
O144 C145 1.255 1_565 S
C145 O143 1.256 1_556 S
C145 O144 1.255 1_545 S
H146 C125 0.931 . S
H147 C133 0.931 . S
Co148 N153 2.057 . S
Co148 O165 2.021 . S
Co148 O168 2.062 . S
Co148 O172 2.117 1_556 S
Co148 O173 2.020 . S
C149 O169 1.259 . S
C149 O172 1.258 . S
Co150 N159 2.057 . S
Co150 O166 2.117 . S
Co150 O167 2.020 . S
Co150 O169 2.021 1_556 S
Co150 O174 2.062 . S
C151 N153 1.316 . S
C151 N154 1.347 1_556 S
C151 H156 0.931 . S
C152 N153 1.375 1_554 S
C152 C155 1.350 . S
C152 H157 0.930 . S
N153 Co148 2.057 . S
N153 C151 1.316 . S
N153 C152 1.375 1_556 S
N154 C151 1.347 1_554 S
N154 C155 1.373 . S
C155 C152 1.350 . S
C155 N154 1.373 . S
C155 H176 0.931 . S
H156 C151 0.931 . S
H157 C152 0.930 . S
C158 O165 1.259 . S
C158 O166 1.258 . S
N159 Co150 2.057 . S
N159 C160 1.316 . S
N159 C161 1.375 . S
C160 N159 1.316 . S
C160 N162 1.347 . S
C160 H171 0.931 . S
C161 N159 1.375 . S
C161 C163 1.350 . S
C161 H170 0.930 . S
N162 C160 1.347 . S
N162 C163 1.373 . S
C163 C161 1.350 . S
C163 N162 1.373 . S
C163 H177 0.931 . S
C164 O167 1.256 1_554 S
C164 O168 1.255 1_554 S
O165 Co148 2.021 . S
O165 C158 1.259 . S
O166 Co150 2.117 . S
O166 C158 1.258 . S
O167 Co150 2.020 . S
O167 C164 1.256 1_556 S
O168 Co148 2.062 . S
O168 C164 1.255 1_556 S
O169 C149 1.259 . S
O169 Co150 2.021 1_554 S
H170 C161 0.930 . S
H171 C160 0.931 . S
O172 Co148 2.117 1_554 S
O172 C149 1.258 . S
O173 Co148 2.020 . S
O173 C175 1.256 . S
O174 Co150 2.062 . S
O174 C175 1.255 . S
C175 O173 1.256 . S
C175 O174 1.255 . S
H176 C155 0.931 . S
H177 C163 0.931 . S
Co178 N183 2.057 . S
Co178 O195 2.021 1_455 S
Co178 O198 2.062 1_455 S
Co178 O202 2.117 1_556 S
Co178 O203 2.020 . S
C179 O199 1.259 . S
C179 O202 1.258 . S
Co180 N189 2.057 . S
Co180 O196 2.117 1_455 S
Co180 O197 2.020 1_456 S
Co180 O199 2.021 1_556 S
Co180 O204 2.062 . S
C181 N183 1.316 . S
C181 N184 1.347 . S
C181 H186 0.931 1_455 S
C182 N183 1.375 . S
C182 C185 1.350 . S
C182 H187 0.930 1_556 S
N183 Co178 2.057 . S
N183 C181 1.316 . S
N183 C182 1.375 . S
N184 C181 1.347 . S
N184 C185 1.373 . S
C185 C182 1.350 . S
C185 N184 1.373 . S
C185 H206 0.931 1_556 S
H186 C181 0.931 1_655 S
H187 C182 0.930 1_554 S
C188 O195 1.259 . S
C188 O196 1.258 . S
N189 Co180 2.057 . S
N189 C190 1.316 . S
N189 C191 1.375 1_455 S
C190 N189 1.316 . S
C190 N192 1.347 . S
C190 H201 0.931 1_556 S
C191 N189 1.375 1_655 S
C191 C193 1.350 . S
C191 H200 0.930 . S
N192 C190 1.347 . S
N192 C193 1.373 1_455 S
C193 C191 1.350 . S
C193 N192 1.373 1_655 S
C193 H207 0.931 . S
C194 O197 1.256 . S
C194 O198 1.255 1_554 S
O195 Co178 2.021 1_655 S
O195 C188 1.259 . S
O196 Co180 2.117 1_655 S
O196 C188 1.258 . S
O197 Co180 2.020 1_654 S
O197 C194 1.256 . S
O198 Co178 2.062 1_655 S
O198 C194 1.255 1_556 S
O199 C179 1.259 . S
O199 Co180 2.021 1_554 S
H200 C191 0.930 . S
H201 C190 0.931 1_554 S
O202 Co178 2.117 1_554 S
O202 C179 1.258 . S
O203 Co178 2.020 . S
O203 C205 1.256 . S
O204 Co180 2.062 . S
O204 C205 1.255 . S
C205 O203 1.256 . S
C205 O204 1.255 . S
H206 C185 0.931 1_554 S
H207 C193 0.931 . S
C76 C98 2.073 . S
C128 C87 2.042 . S
N162 C54 1.383 . S
N192 C65 1.939 . S
C89 C32 2.085 1_545 S
C43 C119 2.054 1_554 S
C10 N154 1.406 . S
C21 N184 1.982 1_655 S
C104 C60 1.302 . S
C134 C71 1.389 1_565 S
C175 C82 1.817 . S
C49 C205 1.214 . S
C16 C115 1.263 1_656 S
C145 C27 1.391 . S
C164 C38 1.804 . S
C5 C194 1.181 . S
C59 N94 1.586 . S
C70 N124 1.506 1_545 S
C149 C81 1.823 . S
C179 C48 1.738 . S
C15 N102 1.556 . S
N132 C26 1.500 . S
C158 C37 1.827 . S
C4 C188 1.735 . S
