# Generated by pormake.
# Topology sit, (3,6)-cn, num edge types: 1
# Building blocks:
#     Node 0, Type 0, BuildingBlock: KAKCAD_clean_linker_0, # of connection points: 3
#     Node 1, Type 0, BuildingBlock: KAKCAD_clean_linker_0, # of connection points: 3
#     Node 2, Type 0, BuildingBlock: KAKCAD_clean_linker_0, # of connection points: 3
#     Node 3, Type 0, BuildingBlock: KAKCAD_clean_linker_0, # of connection points: 3
#     Node 4, Type 1, BuildingBlock: MIDCAF_clean_sbu_0, # of connection points: 6
#     Node 5, Type 1, BuildingBlock: MIDCAF_clean_sbu_0, # of connection points: 6
#     Edge 6, Type (0, 1), None
#     Edge 7, Type (0, 1), None
#     Edge 8, Type (0, 1), None
#     Edge 9, Type (0, 1), None
#     Edge 10, Type (0, 1), None
#     Edge 11, Type (0, 1), None
#     Edge 12, Type (0, 1), None
#     Edge 13, Type (0, 1), None
#     Edge 14, Type (0, 1), None
#     Edge 15, Type (0, 1), None
#     Edge 16, Type (0, 1), None
#     Edge 17, Type (0, 1), None
# Relax obj value: 0.110
# Max RMSD: 0.193
# Mean RMSD: 0.107
data_MOF--net-sit--node1-MIDCAF_clean_sbu_0--node2-KAKCAD_clean_linker_0--edge1-none
_symmetry_space_group_name_H-M    P1
_symmetry_Int_Tables_number       1
_symmetry_cell_setting            triclinic
loop_
_symmetry_equiv_pos_as_xyz
'x, y, z'
_cell_length_a     15.755058
_cell_length_b     20.907172
_cell_length_c     24.269679
_cell_angle_alpha  91.08662
_cell_angle_beta   89.308889
_cell_angle_gamma 84.323065
loop_
_atom_site_label
_atom_site_type_symbol
_atom_site_fract_x
_atom_site_fract_y
_atom_site_fract_z
_atom_type_partial_charge
C0 C 0.38147 0.34718 0.96196 0.0
C1 C 0.38937 0.41237 0.95221 0.0
C2 C 0.31 0.32904 -0.0109 0.0
C3 C 0.24492 0.37569 0.00668 0.0
C4 C 0.25669 0.44114 0.00227 0.0
C5 C 0.32991 0.45935 0.97614 0.0
C6 C 0.16091 0.35473 0.02017 0.0
C7 C 0.15475 0.30373 0.05593 0.0
C8 C 0.08008 0.27242 0.05901 0.0
C9 C 0.00954 0.29562 0.02749 0.0
C10 C 0.01445 0.34775 -0.00821 0.0
C11 C 0.09068 0.37696 -0.01127 0.0
C12 C 0.94264 0.36886 0.95484 0.0
C13 C 0.89083 0.32374 0.93338 0.0
C14 C 0.92633 0.43369 0.93949 0.0
C15 C 0.85783 0.45295 0.90539 0.0
C16 C 0.80294 0.40834 0.88767 0.0
C17 C 0.07702 0.21586 0.09525 0.0
C18 C 0.15128 0.174 0.10422 0.0
C19 C 0.00227 0.20637 0.12496 0.0
C20 C 0.00408 0.16052 0.16613 0.0
C21 C 0.08072 0.12423 0.17891 0.0
C22 C 0.15356 0.12953 0.14654 0.0
C23 C 0.82164 0.34329 0.90059 0.0
H24 H 0.4274 0.30962 0.94521 0.0
H25 H 0.30243 0.27824 -0.00797 0.0
H26 H 0.20767 0.47784 0.01666 0.0
H27 H 0.33812 0.50983 0.97236 0.0
H28 H 0.2097 0.28763 0.08027 0.0
H29 H 0.09794 0.41394 0.95882 0.0
H30 H 0.95139 0.27225 0.03 0.0
H31 H 0.90319 0.27307 0.94191 0.0
H32 H 0.96525 0.46993 0.95457 0.0
H33 H 0.84662 0.5028 0.89387 0.0
H34 H 0.20928 0.17799 0.08071 0.0
H35 H 0.94398 0.23749 0.11961 0.0
H36 H 0.78113 0.3074 0.88673 0.0
H37 H 0.21357 0.10256 0.15639 0.0
H38 H 0.94764 0.15809 0.19171 0.0
C39 C 0.70851 0.68223 0.96493 0.0
C40 C 0.7015 0.61623 0.95698 0.0
C41 C 0.78121 0.70295 -0.01176 0.0
C42 C 0.84806 0.65803 0.00378 0.0
C43 C 0.83672 0.59223 0.0022 0.0
C44 C 0.76253 0.57153 0.9798 0.0
C45 C 0.93272 0.68026 0.01193 0.0
C46 C 0.94153 0.73379 0.04606 0.0
C47 C 0.01706 0.76421 0.04537 0.0
C48 C 0.08476 0.73886 0.01075 0.0
C49 C 0.07707 0.6845 0.97663 0.0
C50 C 0.00086 0.65525 0.97789 0.0
C51 C 0.14742 0.66018 0.9382 0.0
C52 C 0.1962 0.70375 0.91217 0.0
C53 C 0.16776 0.5938 0.92796 0.0
C54 C 0.23939 0.57174 0.89573 0.0
C55 C 0.29275 0.61548 0.87483 0.0
C56 C 0.02544 0.82071 0.08241 0.0
C57 C 0.95375 0.86415 0.09614 0.0
C58 C 0.1027 0.82745 0.10932 0.0
C59 C 0.10548 0.87146 0.15299 0.0
C60 C 0.03102 0.90856 0.17095 0.0
C61 C 0.95614 0.90698 0.14082 0.0
C62 C 0.26819 0.6817 0.88115 0.0
H63 H 0.66135 0.71812 0.94892 0.0
H64 H 0.7883 0.754 -0.01071 0.0
H65 H 0.88691 0.557 0.01554 0.0
H66 H 0.75477 0.52076 0.97762 0.0
H67 H 0.88853 0.75185 0.07273 0.0
H68 H -0.00769 0.61562 0.94968 0.0
H69 H 0.14344 0.76176 0.01009 0.0
H70 H 0.18018 0.75516 0.91688 0.0
H71 H 0.13046 0.55882 0.94643 0.0
H72 H 0.25463 0.52064 0.88862 0.0
H73 H 0.89398 0.86203 0.07494 0.0
H74 H 0.1592 0.79499 0.10025 0.0
H75 H 0.30694 0.71692 0.86443 0.0
H76 H 0.89776 0.93468 0.15468 0.0
H77 H 0.16342 0.87113 0.17667 0.0
C78 C 0.88145 0.84721 0.46198 0.0
C79 C 0.88936 0.9124 0.45222 0.0
C80 C 0.80998 0.82908 0.48913 0.0
C81 C 0.7449 0.87573 0.5067 0.0
C82 C 0.75668 0.94118 0.50228 0.0
C83 C 0.82989 0.95939 0.47615 0.0
C84 C 0.66089 0.85478 0.5202 0.0
C85 C 0.65474 0.80378 0.55596 0.0
C86 C 0.58007 0.77247 0.55904 0.0
C87 C 0.50953 0.79566 0.52753 0.0
C88 C 0.51443 0.84779 0.49182 0.0
C89 C 0.59066 0.877 0.48876 0.0
C90 C 0.44263 0.8689 0.45488 0.0
C91 C 0.39081 0.82377 0.43342 0.0
C92 C 0.42631 0.93372 0.43951 0.0
C93 C 0.35781 0.95297 0.4054 0.0
C94 C 0.30293 0.90836 0.3877 0.0
C95 C 0.57702 0.7159 0.59528 0.0
C96 C 0.65128 0.67405 0.60425 0.0
C97 C 0.50227 0.70641 0.62499 0.0
C98 C 0.50408 0.66056 0.66616 0.0
C99 C 0.58073 0.62427 0.67894 0.0
C100 C 0.65357 0.62957 0.64657 0.0
C101 C 0.32163 0.84332 0.40063 0.0
H102 H 0.92738 0.80965 0.44523 0.0
H103 H 0.8024 0.77828 0.49206 0.0
H104 H 0.70766 0.97789 0.51667 0.0
H105 H 0.83811 1.00986 0.47236 0.0
H106 H 0.70969 0.78768 0.5803 0.0
H107 H 0.59792 0.91398 0.45885 0.0
H108 H 0.45137 0.7723 0.53004 0.0
H109 H 0.40317 0.77311 0.44196 0.0
H110 H 0.46523 0.96997 0.45459 0.0
H111 H 0.34661 1.00283 0.39388 0.0
H112 H 0.70928 0.67804 0.58073 0.0
H113 H 0.44398 0.73753 0.61965 0.0
H114 H 0.28111 0.80742 0.38677 0.0
H115 H 0.71358 0.6026 0.65641 0.0
H116 H 0.44765 0.65812 0.69174 0.0
C117 C 0.20851 0.18227 0.4649 0.0
C118 C 0.20149 0.11626 0.45696 0.0
C119 C 0.2812 0.20299 0.48821 0.0
C120 C 0.34804 0.15807 0.50375 0.0
C121 C 0.3367 0.09227 0.50219 0.0
C122 C 0.26251 0.07157 0.4798 0.0
C123 C 0.43271 0.1803 0.51191 0.0
C124 C 0.44152 0.23383 0.54604 0.0
C125 C 0.51705 0.26425 0.54535 0.0
C126 C 0.58475 0.23889 0.51074 0.0
C127 C 0.57706 0.18453 0.47661 0.0
C128 C 0.50085 0.15528 0.47787 0.0
C129 C 0.64741 0.16021 0.43819 0.0
C130 C 0.69619 0.20377 0.41216 0.0
C131 C 0.66775 0.09382 0.42795 0.0
C132 C 0.73938 0.07176 0.39572 0.0
C133 C 0.79274 0.1155 0.37482 0.0
C134 C 0.52543 0.32074 0.58239 0.0
C135 C 0.45374 0.36419 0.59612 0.0
C136 C 0.6027 0.32748 0.6093 0.0
C137 C 0.60548 0.37149 0.65297 0.0
C138 C 0.53102 0.40859 0.67093 0.0
C139 C 0.45614 0.40701 0.6408 0.0
C140 C 0.76819 0.18172 0.38114 0.0
H141 H 0.16135 0.21816 0.44887 0.0
H142 H 0.2883 0.25404 0.48925 0.0
H143 H 0.38688 0.05704 0.51554 0.0
H144 H 0.25474 0.0208 0.47762 0.0
H145 H 0.38851 0.2519 0.5727 0.0
H146 H 0.4923 0.11565 0.44967 0.0
H147 H 0.64343 0.26179 0.51007 0.0
H148 H 0.68018 0.25518 0.41687 0.0
H149 H 0.63044 0.05884 0.44643 0.0
H150 H 0.75462 0.02066 0.38862 0.0
H151 H 0.39398 0.36207 0.57492 0.0
H152 H 0.6592 0.29502 0.60023 0.0
H153 H 0.80694 0.21694 0.36442 0.0
H154 H 0.39776 0.43471 0.65467 0.0
H155 H 0.66342 0.37115 0.67666 0.0
Zn156 Zn 0.03683 0.11878 0.33379 0.0
Zn157 Zn 0.06825 0.90395 0.33031 0.0
Zn158 Zn 0.05155 1.01212 0.3343 0.0
C159 C 0.02534 0.92787 0.22897 0.0
C160 C 0.95531 0.92889 0.41308 0.0
O161 O 0.15039 0.0452 0.38822 0.0
O162 O 0.07405 0.13635 0.40907 0.0
C163 C 0.08933 0.09919 0.23454 0.0
O164 O 0.0543 0.97955 0.24698 0.0
O165 O 0.0069 0.88594 0.26249 0.0
O166 O 0.01555 0.88652 0.4013 0.0
O167 O 0.94748 0.98117 0.38552 0.0
O168 O 0.11194 0.13713 0.27127 0.0
O169 O 0.05459 0.04877 0.2489 0.0
O170 O 0.92285 0.044 0.36825 0.0
O171 O 0.91293 0.13358 0.32175 0.0
C172 C 0.87781 0.09457 0.35134 0.0
O173 O 0.17612 0.98022 0.37213 0.0
O174 O 0.19316 0.88673 0.32806 0.0
C175 C 0.13692 0.09636 0.41884 0.0
C176 C 0.22299 0.92789 0.359 0.0
Zn177 Zn 0.53684 0.61878 0.83381 0.0
Zn178 Zn 0.56826 0.40394 0.83029 0.0
Zn179 Zn 0.55156 0.51212 0.8343 0.0
C180 C 0.52534 0.42789 0.72896 0.0
C181 C 0.45532 0.42887 0.91307 0.0
O182 O 0.6504 0.54518 0.88822 0.0
O183 O 0.57406 0.63632 0.90909 0.0
C184 C 0.58934 0.59921 0.73456 0.0
O185 O 0.55431 0.47957 0.74698 0.0
O186 O 0.5069 0.38596 0.76247 0.0
O187 O 0.51557 0.3865 0.90128 0.0
O188 O 0.44749 0.48115 0.88552 0.0
O189 O 0.61196 0.63714 0.7713 0.0
O190 O 0.55459 0.54879 0.74891 0.0
O191 O 0.42286 0.54398 0.86826 0.0
O192 O 0.41294 0.63358 0.82177 0.0
C193 C 0.37782 0.59456 0.85135 0.0
O194 O 0.67613 0.4802 0.87213 0.0
O195 O 0.69317 0.38672 0.82803 0.0
C196 C 0.63693 0.59633 0.91885 0.0
C197 C 0.723 0.42788 0.85898 0.0
loop_
_geom_bond_atom_site_label_1
_geom_bond_atom_site_label_2
_geom_bond_distance
_geom_bond_site_symmetry_2
_ccdc_geom_bond_type
C0 C1 1.386 . S
C0 C2 1.397 . S
C0 H24 0.931 . S
C1 C0 1.386 . S
C1 C5 1.397 . S
C2 C0 1.397 . S
C2 C3 1.384 . S
C2 H25 0.930 . S
C3 C2 1.384 . S
C3 C4 1.377 . S
C3 C6 1.482 . S
C4 C3 1.377 . S
C4 C5 1.389 . S
C4 H26 0.929 . S
C5 C1 1.397 . S
C5 C4 1.389 . S
C5 H27 0.931 . S
C6 C3 1.482 . S
C6 C7 1.383 1_556 S
C6 C11 1.392 . S
C7 C6 1.383 1_554 S
C7 C8 1.401 . S
C7 H28 0.930 . S
C8 C7 1.401 . S
C8 C9 1.376 . S
C8 C17 1.511 . S
C9 C8 1.376 . S
C9 C10 1.392 1_554 S
C9 H30 0.931 1_455 S
C10 C9 1.392 1_556 S
C10 C11 1.361 . S
C10 C12 1.500 1_455 S
C11 C6 1.392 . S
C11 C10 1.361 . S
C11 H29 0.931 . S
C12 C10 1.500 1_655 S
C12 C13 1.371 . S
C12 C14 1.365 . S
C13 C12 1.371 . S
C13 C23 1.386 . S
C13 H31 0.931 . S
C14 C12 1.365 . S
C14 C15 1.409 . S
C14 H32 0.929 . S
C15 C14 1.409 . S
C15 C16 1.380 . S
C15 H33 0.930 . S
C16 C15 1.380 . S
C16 C23 1.357 . S
C17 C8 1.511 . S
C17 C18 1.341 . S
C17 C19 1.371 . S
C18 C17 1.341 . S
C18 C22 1.394 . S
C18 H34 0.930 . S
C19 C17 1.371 . S
C19 C20 1.392 . S
C19 H35 0.931 . S
C20 C19 1.392 . S
C20 C21 1.331 . S
C20 H38 0.932 . S
C21 C20 1.331 . S
C21 C22 1.336 . S
C22 C18 1.394 . S
C22 C21 1.336 . S
C22 H37 0.929 . S
C23 C13 1.386 . S
C23 C16 1.357 . S
C23 H36 0.928 . S
H24 C0 0.931 . S
H25 C2 0.930 . S
H26 C4 0.929 . S
H27 C5 0.931 . S
H28 C7 0.930 . S
H29 C11 0.931 . S
H30 C9 0.931 1_655 S
H31 C13 0.931 . S
H32 C14 0.929 . S
H33 C15 0.930 . S
H34 C18 0.930 . S
H35 C19 0.931 . S
H36 C23 0.928 . S
H37 C22 0.929 . S
H38 C20 0.932 . S
C39 C40 1.386 . S
C39 C41 1.397 . S
C39 H63 0.931 . S
C40 C39 1.386 . S
C40 C44 1.397 . S
C41 C39 1.397 . S
C41 C42 1.384 . S
C41 H64 0.930 . S
C42 C41 1.384 . S
C42 C43 1.377 . S
C42 C45 1.481 1_556 S
C43 C42 1.377 . S
C43 C44 1.389 . S
C43 H65 0.929 . S
C44 C40 1.397 . S
C44 C43 1.389 . S
C44 H66 0.931 . S
C45 C42 1.481 1_554 S
C45 C46 1.387 . S
C45 C50 1.390 1_654 S
C46 C45 1.387 . S
C46 C47 1.401 1_655 S
C46 H67 0.930 . S
C47 C46 1.401 1_455 S
C47 C48 1.376 . S
C47 C56 1.511 . S
C48 C47 1.376 . S
C48 C49 1.391 1_554 S
C48 H69 0.931 . S
C49 C48 1.391 1_556 S
C49 C50 1.362 . S
C49 C51 1.500 . S
C50 C45 1.390 1_456 S
C50 C49 1.362 . S
C50 H68 0.931 . S
C51 C49 1.500 . S
C51 C52 1.371 . S
C51 C53 1.365 . S
C52 C51 1.371 . S
C52 C62 1.386 . S
C52 H70 0.931 . S
C53 C51 1.365 . S
C53 C54 1.409 . S
C53 H71 0.929 . S
C54 C53 1.409 . S
C54 C55 1.380 . S
C54 H72 0.930 . S
C55 C54 1.380 . S
C55 C62 1.357 . S
C56 C47 1.511 . S
C56 C57 1.341 1_455 S
C56 C58 1.371 . S
C57 C56 1.341 1_655 S
C57 C61 1.394 . S
C57 H73 0.930 . S
C58 C56 1.371 . S
C58 C59 1.392 . S
C58 H74 0.931 . S
C59 C58 1.392 . S
C59 C60 1.331 1_455 S
C59 H77 0.932 . S
C60 C59 1.331 1_655 S
C60 C61 1.336 . S
C61 C57 1.394 . S
C61 C60 1.336 . S
C61 H76 0.929 . S
C62 C52 1.386 . S
C62 C55 1.357 . S
C62 H75 0.928 . S
H63 C39 0.931 . S
H64 C41 0.930 . S
H65 C43 0.929 . S
H66 C44 0.931 . S
H67 C46 0.930 . S
H68 C50 0.931 . S
H69 C48 0.931 . S
H70 C52 0.931 . S
H71 C53 0.929 . S
H72 C54 0.930 . S
H73 C57 0.930 . S
H74 C58 0.931 . S
H75 C62 0.928 . S
H76 C61 0.929 . S
H77 C59 0.932 . S
C78 C79 1.386 . S
C78 C80 1.397 . S
C78 H102 0.931 . S
C79 C78 1.386 . S
C79 C83 1.397 . S
C80 C78 1.397 . S
C80 C81 1.384 . S
C80 H103 0.930 . S
C81 C80 1.384 . S
C81 C82 1.377 . S
C81 C84 1.481 . S
C82 C81 1.377 . S
C82 C83 1.389 . S
C82 H104 0.929 . S
C83 C79 1.397 . S
C83 C82 1.389 . S
C83 H105 0.931 . S
C84 C81 1.481 . S
C84 C85 1.387 . S
C84 C89 1.390 . S
C85 C84 1.387 . S
C85 C86 1.401 . S
C85 H106 0.930 . S
C86 C85 1.401 . S
C86 C87 1.376 . S
C86 C95 1.511 . S
C87 C86 1.376 . S
C87 C88 1.392 . S
C87 H108 0.931 . S
C88 C87 1.392 . S
C88 C89 1.361 . S
C88 C90 1.500 . S
C89 C84 1.390 . S
C89 C88 1.361 . S
C89 H107 0.931 . S
C90 C88 1.500 . S
C90 C91 1.371 . S
C90 C92 1.365 . S
C91 C90 1.371 . S
C91 C101 1.386 . S
C91 H109 0.931 . S
C92 C90 1.365 . S
C92 C93 1.409 . S
C92 H110 0.929 . S
C93 C92 1.409 . S
C93 C94 1.380 . S
C93 H111 0.930 . S
C94 C93 1.380 . S
C94 C101 1.357 . S
C95 C86 1.511 . S
C95 C96 1.341 . S
C95 C97 1.371 . S
C96 C95 1.341 . S
C96 C100 1.394 . S
C96 H112 0.930 . S
C97 C95 1.371 . S
C97 C98 1.392 . S
C97 H113 0.931 . S
C98 C97 1.392 . S
C98 C99 1.331 . S
C98 H116 0.932 . S
C99 C98 1.331 . S
C99 C100 1.336 . S
C100 C96 1.394 . S
C100 C99 1.336 . S
C100 H115 0.929 . S
C101 C91 1.386 . S
C101 C94 1.357 . S
C101 H114 0.928 . S
H102 C78 0.931 . S
H103 C80 0.930 . S
H104 C82 0.929 . S
H105 C83 0.931 . S
H106 C85 0.930 . S
H107 C89 0.931 . S
H108 C87 0.931 . S
H109 C91 0.931 . S
H110 C92 0.929 . S
H111 C93 0.930 . S
H112 C96 0.930 . S
H113 C97 0.931 . S
H114 C101 0.928 . S
H115 C100 0.929 . S
H116 C98 0.932 . S
C117 C118 1.386 . S
C117 C119 1.397 . S
C117 H141 0.931 . S
C118 C117 1.386 . S
C118 C122 1.397 . S
C119 C117 1.397 . S
C119 C120 1.384 . S
C119 H142 0.930 . S
C120 C119 1.384 . S
C120 C121 1.377 . S
C120 C123 1.481 . S
C121 C120 1.377 . S
C121 C122 1.389 . S
C121 H143 0.929 . S
C122 C118 1.397 . S
C122 C121 1.389 . S
C122 H144 0.931 . S
C123 C120 1.481 . S
C123 C124 1.387 . S
C123 C128 1.390 . S
C124 C123 1.387 . S
C124 C125 1.401 . S
C124 H145 0.930 . S
C125 C124 1.401 . S
C125 C126 1.376 . S
C125 C134 1.511 . S
C126 C125 1.376 . S
C126 C127 1.392 . S
C126 H147 0.931 . S
C127 C126 1.392 . S
C127 C128 1.361 . S
C127 C129 1.500 . S
C128 C123 1.390 . S
C128 C127 1.361 . S
C128 H146 0.931 . S
C129 C127 1.500 . S
C129 C130 1.371 . S
C129 C131 1.365 . S
C130 C129 1.371 . S
C130 C140 1.386 . S
C130 H148 0.931 . S
C131 C129 1.365 . S
C131 C132 1.409 . S
C131 H149 0.929 . S
C132 C131 1.409 . S
C132 C133 1.380 . S
C132 H150 0.930 . S
C133 C132 1.380 . S
C133 C140 1.357 . S
C134 C125 1.511 . S
C134 C135 1.341 . S
C134 C136 1.371 . S
C135 C134 1.341 . S
C135 C139 1.394 . S
C135 H151 0.930 . S
C136 C134 1.371 . S
C136 C137 1.392 . S
C136 H152 0.931 . S
C137 C136 1.392 . S
C137 C138 1.331 . S
C137 H155 0.932 . S
C138 C137 1.331 . S
C138 C139 1.336 . S
C139 C135 1.394 . S
C139 C138 1.336 . S
C139 H154 0.929 . S
C140 C130 1.386 . S
C140 C133 1.357 . S
C140 H153 0.928 . S
H141 C117 0.931 . S
H142 C119 0.930 . S
H143 C121 0.929 . S
H144 C122 0.931 . S
H145 C124 0.930 . S
H146 C128 0.931 . S
H147 C126 0.931 . S
H148 C130 0.931 . S
H149 C131 0.929 . S
H150 C132 0.930 . S
H151 C135 0.930 . S
H152 C136 0.931 . S
H153 C140 0.928 . S
H154 C139 0.929 . S
H155 C137 0.932 . S
Zn156 O162 1.920 . S
Zn156 O168 1.898 . S
Zn156 O171 1.905 1_455 S
Zn157 O165 1.905 . S
Zn157 O166 1.898 1_455 S
Zn157 O174 1.920 . S
Zn158 O161 2.080 . S
Zn158 O164 2.114 1_545 S
Zn158 O167 2.120 1_545 S
Zn158 O169 2.120 . S
Zn158 O170 2.114 1_455 S
Zn158 O173 2.080 1_545 S
C159 O164 1.166 . S
C159 O165 1.182 . S
C160 O166 1.167 . S
C160 O167 1.299 1_655 S
O161 Zn158 2.080 . S
O161 C175 1.305 . S
O162 Zn156 1.920 . S
O162 C175 1.234 . S
C163 O168 1.167 . S
C163 O169 1.299 . S
O164 Zn158 2.114 1_565 S
O164 C159 1.166 . S
O165 Zn157 1.905 . S
O165 C159 1.182 . S
O166 Zn157 1.898 1_655 S
O166 C160 1.167 . S
O167 Zn158 2.120 1_565 S
O167 C160 1.299 1_455 S
O168 Zn156 1.898 . S
O168 C163 1.167 . S
O169 Zn158 2.120 . S
O169 C163 1.299 . S
O170 Zn158 2.114 1_655 S
O170 C172 1.166 . S
O171 Zn156 1.905 1_655 S
O171 C172 1.182 . S
C172 O170 1.166 . S
C172 O171 1.182 . S
O173 Zn158 2.080 1_565 S
O173 C176 1.305 . S
O174 Zn157 1.920 . S
O174 C176 1.234 . S
C175 O161 1.305 . S
C175 O162 1.234 . S
C176 O173 1.305 . S
C176 O174 1.234 . S
Zn177 O183 1.920 . S
Zn177 O189 1.898 . S
Zn177 O192 1.905 . S
Zn178 O186 1.905 . S
Zn178 O187 1.898 . S
Zn178 O195 1.920 . S
Zn179 O182 2.080 . S
Zn179 O185 2.114 . S
Zn179 O188 2.120 . S
Zn179 O190 2.120 . S
Zn179 O191 2.114 . S
Zn179 O194 2.080 . S
C180 O185 1.166 . S
C180 O186 1.182 . S
C181 O187 1.167 . S
C181 O188 1.299 . S
O182 Zn179 2.080 . S
O182 C196 1.305 . S
O183 Zn177 1.920 . S
O183 C196 1.234 . S
C184 O189 1.167 . S
C184 O190 1.299 . S
O185 Zn179 2.114 . S
O185 C180 1.166 . S
O186 Zn178 1.905 . S
O186 C180 1.182 . S
O187 Zn178 1.898 . S
O187 C181 1.167 . S
O188 Zn179 2.120 . S
O188 C181 1.299 . S
O189 Zn177 1.898 . S
O189 C184 1.167 . S
O190 Zn179 2.120 . S
O190 C184 1.299 . S
O191 Zn179 2.114 . S
O191 C193 1.166 . S
O192 Zn177 1.905 . S
O192 C193 1.182 . S
C193 O191 1.166 . S
C193 O192 1.182 . S
O194 Zn179 2.080 . S
O194 C197 1.305 . S
O195 Zn178 1.920 . S
O195 C197 1.234 . S
C196 O182 1.305 . S
C196 O183 1.234 . S
C197 O194 1.305 . S
C197 O195 1.234 . S
C163 C21 1.951 . S
C159 C60 1.946 1_455 S
C184 C99 1.951 . S
C138 C180 1.946 . S
C1 C181 1.284 . S
C196 C40 1.310 . S
C16 C197 1.571 . S
C193 C55 1.596 . S
C160 C79 1.284 . S
C118 C175 1.310 . S
C176 C94 1.571 . S
C172 C133 1.596 . S
