# Generated by pormake.
# Topology pts, (4,4)-cn, num edge types: 1
# Building blocks:
#     Node 0, Type 0, BuildingBlock: MIFKUJ_clean_linker_1, # of connection points: 4
#     Node 1, Type 0, BuildingBlock: MIFKUJ_clean_linker_1, # of connection points: 4
#     Node 2, Type 1, BuildingBlock: AZAVOO_clean_sbu_0, # of connection points: 4
#     Node 3, Type 1, BuildingBlock: AZAVOO_clean_sbu_0, # of connection points: 4
#     Edge 4, Type (0, 1), BuildingBlock: EZIPEK_clean_linker_0, # of connection points: 2
#     Edge 5, Type (0, 1), BuildingBlock: EZIPEK_clean_linker_0, # of connection points: 2
#     Edge 6, Type (0, 1), BuildingBlock: EZIPEK_clean_linker_0, # of connection points: 2
#     Edge 7, Type (0, 1), BuildingBlock: EZIPEK_clean_linker_0, # of connection points: 2
#     Edge 8, Type (0, 1), BuildingBlock: EZIPEK_clean_linker_0, # of connection points: 2
#     Edge 9, Type (0, 1), BuildingBlock: EZIPEK_clean_linker_0, # of connection points: 2
#     Edge 10, Type (0, 1), BuildingBlock: EZIPEK_clean_linker_0, # of connection points: 2
#     Edge 11, Type (0, 1), BuildingBlock: EZIPEK_clean_linker_0, # of connection points: 2
# Relax obj value: 0.003
# Max RMSD: 0.041
# Mean RMSD: 0.031
data_MOF--net-pts--node1-AZAVOO_clean_sbu_0--node2-MIFKUJ_clean_linker_1--edge1-EZIPEK_clean_linker_0
_symmetry_space_group_name_H-M    P1
_symmetry_Int_Tables_number       1
_symmetry_cell_setting            triclinic
loop_
_symmetry_equiv_pos_as_xyz
'x, y, z'
_cell_length_a     23.344593
_cell_length_b     24.22026
_cell_length_c     31.674822
_cell_angle_alpha  89.992336
_cell_angle_beta   97.016323
_cell_angle_gamma 90.085257
loop_
_atom_site_label
_atom_site_type_symbol
_atom_site_fract_x
_atom_site_fract_y
_atom_site_fract_z
_atom_type_partial_charge
H0 H 0.66203 0.93677 0.04023 0.0
H1 H 0.75164 0.92877 0.08927 0.0
H2 H 0.70328 0.07129 0.15828 0.0
H3 H 0.61441 0.08037 0.10875 0.0
H4 H 0.52727 0.01292 0.09669 0.0
H5 H 0.6001 0.94053 0.93851 0.0
H6 H 0.68167 0.94611 0.89668 0.0
H7 H 0.74059 0.09473 0.96334 0.0
H8 H 0.65864 0.08946 1.00533 0.0
H9 H 0.42702 0.0791 0.92684 0.0
H10 H 0.33802 0.06961 0.87749 0.0
H11 H 0.28936 0.92788 0.94743 0.0
H12 H 0.37914 0.93625 0.99628 0.0
H13 H 0.51408 0.01201 0.93935 0.0
H14 H 0.38189 0.08849 0.02985 0.0
H15 H 0.29984 0.09362 0.07172 0.0
H16 H 0.36042 0.94703 0.14027 0.0
H17 H 0.44196 0.94146 0.09845 0.0
C18 C 0.63159 0.0095 0.07054 0.0
C19 C 0.67116 0.96703 0.06533 0.0
C20 C 0.72205 0.96219 0.0934 0.0
C21 C 0.73378 -0.00065 0.12737 0.0
C22 C 0.69484 0.04225 0.13224 0.0
C23 C 0.64418 0.04729 0.10407 0.0
C24 C 0.57544 0.01251 0.04286 0.0
C25 C 0.52442 0.01295 0.06224 0.0
C26 C 0.57156 0.01287 0.99795 0.0
C27 C 0.62334 0.0145 0.97508 0.0
C28 C 0.63071 0.97414 0.94439 0.0
C29 C 0.67721 0.97718 0.92067 0.0
C30 C 0.71685 0.02079 0.92705 0.0
C31 C 0.71036 0.06072 0.9582 0.0
C32 C 0.66383 0.05758 0.98212 0.0
C33 C 0.40973 0.00864 0.9655 0.0
C34 C 0.39719 0.04608 0.93174 0.0
C35 C 0.34644 0.04081 0.90368 0.0
C36 C 0.30736 -0.00197 0.90887 0.0
C37 C 0.31907 0.9612 0.94304 0.0
C38 C 0.37006 0.96625 0.97101 0.0
C39 C 0.46588 0.01203 0.99317 0.0
C40 C 0.5169 0.01243 0.97379 0.0
C41 C 0.46976 0.01289 0.03809 0.0
C42 C 0.41799 0.01449 0.06098 0.0
C43 C 0.37705 0.05701 0.05344 0.0
C44 C 0.33047 0.06009 0.07731 0.0
C45 C 0.32446 0.02074 0.109 0.0
C46 C 0.36456 0.97769 0.11591 0.0
C47 C 0.41104 0.97466 0.09219 0.0
H48 H 0.10852 0.41981 0.44749 0.0
H49 H 0.11216 0.33609 0.40423 0.0
H50 H 0.95225 0.28022 0.44494 0.0
H51 H 0.94749 0.36458 0.48732 0.0
H52 H 0.03461 0.50054 0.44183 0.0
H53 H 0.09667 0.36581 0.5491 0.0
H54 H 0.09269 0.28082 0.59097 0.0
H55 H 0.93058 0.33273 0.63002 0.0
H56 H 0.93367 0.4172 0.5875 0.0
H57 H 0.93038 0.58193 0.58499 0.0
H58 H 0.92637 0.66524 0.62863 0.0
H59 H 0.0923 0.71637 0.5958 0.0
H60 H 0.09671 0.63277 0.55218 0.0
H61 H 0.00732 0.49935 0.59461 0.0
H62 H 0.94362 0.63207 0.48504 0.0
H63 H 0.94696 0.71619 0.44181 0.0
H64 H 0.11353 0.66796 0.40877 0.0
H65 H 0.11058 0.58414 0.45201 0.0
C66 C 0.02814 0.39812 0.47114 0.0
C67 C 0.07408 0.3897 0.447 0.0
C68 C 0.0762 0.34215 0.42234 0.0
C69 C 0.03251 0.30228 0.42158 0.0
C70 C 0.98631 0.31071 0.44529 0.0
C71 C 0.98395 0.35847 0.46973 0.0
C72 C 0.02548 0.4495 0.49629 0.0
C73 C 0.02948 0.50018 0.47543 0.0
C74 C 0.01717 0.44918 0.53985 0.0
C75 C 0.01504 0.39748 0.56468 0.0
C76 C 0.05999 0.35873 0.56631 0.0
C77 C 0.05804 0.31063 0.59043 0.0
C78 C 0.01143 0.30093 0.61351 0.0
C79 C 0.96691 0.33984 0.61245 0.0
C80 C 0.96871 0.3878 0.5882 0.0
C81 C 0.01357 0.60148 0.56505 0.0
C82 C 0.96594 0.611 0.58717 0.0
C83 C 0.96367 0.65825 0.61207 0.0
C84 C 0.00922 0.69636 0.61547 0.0
C85 C 0.05701 0.68702 0.59358 0.0
C86 C 0.0592 0.63976 0.5685 0.0
C87 C 0.0165 0.55011 0.5401 0.0
C88 C 0.0125 0.49951 0.56102 0.0
C89 C 0.02485 0.55045 0.49666 0.0
C90 C 0.02714 0.60219 0.47202 0.0
C91 C 0.98104 0.63982 0.46878 0.0
C92 C 0.98264 0.68738 0.44392 0.0
C93 C 0.0303 0.69767 0.42206 0.0
C94 C 0.07633 0.66024 0.4253 0.0
C95 C 0.07466 0.6127 0.44997 0.0
Mg96 Mg 0.07106 -0.01426 0.28836 0.0
O97 O 0.98122 0.98289 0.2498 0.0
O98 O 0.91658 0.97773 0.29635 0.0
Mg99 Mg 0.96465 0.97018 0.36372 0.0
C100 C 0.92918 0.98125 0.25833 0.0
C101 C 0.16597 0.00763 0.2335 0.0
O102 O 0.19331 -0.00967 0.26978 0.0
O103 O 0.05559 0.07403 0.30967 0.0
O104 O -0.00284 0.05923 0.35989 0.0
O105 O 0.07853 0.89351 0.28803 0.0
O106 O 0.04195 0.94169 0.33756 0.0
C107 C 0.02741 0.09109 0.33928 0.0
C108 C 0.05506 0.89451 0.323 0.0
O109 O 0.11151 0.0134 0.22992 0.0
Mg110 Mg 0.96996 -0.01436 0.74769 0.0
O111 O 0.05957 0.98227 0.78654 0.0
O112 O 0.12433 0.97553 0.74019 0.0
Mg113 Mg 0.07647 0.96728 0.6728 0.0
C114 C 0.11164 0.97986 0.77814 0.0
C115 C 0.87549 0.00607 0.8029 0.0
O116 O 0.84877 -0.01491 0.76762 0.0
O117 O 0.98693 0.07333 0.72553 0.0
O118 O 0.04519 0.05677 0.67553 0.0
O119 O 0.96103 0.8935 0.74887 0.0
O120 O -0.00142 0.94035 0.69901 0.0
C121 C 0.01542 0.08943 0.69579 0.0
C122 C 0.98471 0.89361 0.71398 0.0
O123 O 0.9295 0.01481 0.80569 0.0
C124 C 0.22829 -0.00896 0.12848 0.0
C125 C 0.27773 0.0252 0.13664 0.0
C126 C 0.24327 0.0589 0.20198 0.0
C127 C 0.19909 0.01836 0.19731 0.0
N128 N 0.151 0.94283 0.15765 0.0
N129 N 0.33479 0.09011 0.18176 0.0
C130 C 0.19127 0.98415 0.16061 0.0
C131 C 0.28561 0.05927 0.17334 0.0
N132 N 0.21686 0.96532 0.08996 0.0
N133 N 0.24398 0.09763 0.23345 0.0
H134 H 0.36612 0.09261 0.16101 0.0
H135 H 0.34642 0.11048 0.21048 0.0
H136 H 0.213 0.09877 0.25456 0.0
H137 H 0.27164 0.13154 0.23614 0.0
H138 H 0.1786 0.94423 0.08032 0.0
H139 H 0.24358 0.96926 0.066 0.0
H140 H 0.14798 0.91245 0.13423 0.0
H141 H 0.12294 0.93631 0.18036 0.0
C142 C 0.97122 0.20585 0.62006 0.0
C143 C 0.00821 0.24874 0.63753 0.0
C144 C 0.04632 0.18867 0.6967 0.0
C145 C 0.00824 0.14645 0.67971 0.0
N146 N 0.9259 0.11782 0.63126 0.0
N147 N 0.07255 0.2857 0.69606 0.0
C148 C 0.9678 0.15615 0.64334 0.0
C149 C 0.04319 0.24161 0.67707 0.0
N150 N 0.94153 0.21156 0.5803 0.0
N151 N 0.08665 0.17747 0.73062 0.0
H152 H 0.07133 0.32492 0.68235 0.0
H153 H 0.09435 0.28467 0.72674 0.0
H154 H 0.08855 0.13965 0.7465 0.0
H155 H 0.12007 0.20429 0.74158 0.0
H156 H 0.91923 0.17939 0.56381 0.0
H157 H 0.94277 0.24737 0.56214 0.0
H158 H 0.89155 0.12481 0.60767 0.0
H159 H 0.92244 0.0807 0.6475 0.0
C160 C 0.832 0.03072 0.15989 0.0
C161 C 0.78584 -0.00755 0.159 0.0
C162 C 0.83866 0.94187 0.21853 0.0
C163 C 0.88128 0.98405 0.22291 0.0
N164 N 0.91372 0.07363 0.20182 0.0
N165 N 0.7408 0.91616 0.19135 0.0
C166 C 0.87694 0.02974 0.19451 0.0
C167 C 0.78799 0.94912 0.18932 0.0
N168 N 0.83342 0.06736 0.1272 0.0
N169 N 0.84744 0.89398 0.24124 0.0
H170 H 0.70274 0.92008 0.17062 0.0
H171 H 0.73757 0.88807 0.21586 0.0
H172 H 0.88443 0.88664 0.26243 0.0
H173 H 0.82082 0.85948 0.23604 0.0
H174 H 0.86892 0.09235 0.1238 0.0
H175 H 0.80123 0.06918 0.10131 0.0
H176 H 0.90844 0.11058 0.18497 0.0
H177 H 0.94651 0.07535 0.22725 0.0
C178 C 0.97433 0.79297 0.62174 0.0
C179 C 0.00532 0.74731 0.64074 0.0
C180 C 0.02654 0.79873 0.70757 0.0
C181 C 0.99127 0.84245 0.6896 0.0
N182 N 0.92201 0.87677 0.63273 0.0
N183 N 0.05541 0.70291 0.70264 0.0
C184 C 0.96268 0.83849 0.64746 0.0
C185 C 0.02994 0.74907 0.68397 0.0
N186 N 0.95676 0.79315 0.57892 0.0
N187 N 0.05838 0.80546 0.74641 0.0
H188 H 0.06007 0.66637 0.68596 0.0
H189 H 0.06842 0.69951 0.73516 0.0
H190 H 0.05665 0.84116 0.76461 0.0
H191 H 0.08975 0.77764 0.7592 0.0
H192 H 0.93986 0.82785 0.56245 0.0
H193 H 0.96356 0.76005 0.55906 0.0
H194 H 0.89536 0.87273 0.60403 0.0
H195 H 0.91061 0.90995 0.65093 0.0
C196 C 0.25241 0.94731 0.84741 0.0
C197 C 0.25509 -0.00898 0.87743 0.0
C198 C 0.16435 0.02859 0.84175 0.0
C199 C 0.15948 0.98262 0.81362 0.0
N200 N 0.19222 0.89197 0.79595 0.0
N201 N 0.20831 0.06661 0.90884 0.0
C202 C 0.20161 0.9401 0.81829 0.0
C203 C 0.20933 0.02961 0.87635 0.0
N204 N 0.29922 0.91394 0.84553 0.0
N205 N 0.12806 0.07271 0.8342 0.0
H206 H 0.24052 0.06843 0.93472 0.0
H207 H 0.17307 0.0919 0.91211 0.0
H208 H 0.09525 0.0744 0.80879 0.0
H209 H 0.13377 0.1098 0.85082 0.0
H210 H 0.30207 0.8855 0.82121 0.0
H211 H 0.33738 0.91781 0.86619 0.0
H212 H 0.21845 0.85731 0.8014 0.0
H213 H 0.15509 0.88465 0.77488 0.0
C214 C 0.07506 0.20863 0.41295 0.0
C215 C 0.03591 0.25058 0.39698 0.0
C216 C 0.9952 0.18974 0.33902 0.0
C217 C 0.03517 0.14842 0.35457 0.0
N218 N 0.1213 0.12184 0.39974 0.0
N219 N 0.96726 0.28618 0.34055 0.0
C220 C 0.07794 0.15913 0.38935 0.0
C221 C -0.0014 0.24272 0.35857 0.0
N222 N 0.10722 0.21485 0.45176 0.0
N223 N 0.95296 0.17766 0.30654 0.0
H224 H 0.96884 0.32547 0.35415 0.0
H225 H 0.94345 0.28465 0.31056 0.0
H226 H 0.95088 0.13989 0.29057 0.0
H227 H 0.91838 0.20368 0.2969 0.0
H228 H 0.13144 0.18319 0.46733 0.0
H229 H 0.10628 0.2504 0.47023 0.0
H230 H 0.15705 0.12969 0.42196 0.0
H231 H 0.1243 0.08481 0.38332 0.0
C232 C 0.75383 0.05676 0.8612 0.0
C233 C 0.76337 0.02539 0.89923 0.0
C234 C 0.85183 -0.01334 0.87691 0.0
C235 C 0.84218 0.01795 0.83876 0.0
N236 N 0.79333 0.09267 0.79931 0.0
N237 N 0.82698 0.97103 0.94824 0.0
C238 C 0.79603 0.05621 0.83245 0.0
C239 C 0.81443 -0.00608 0.90874 0.0
N240 N 0.70333 0.0852 0.85175 0.0
N241 N 0.89435 0.94758 0.88161 0.0
H242 H 0.79995 0.97516 0.97197 0.0
H243 H 0.86621 0.95222 0.95874 0.0
H244 H 0.92284 0.94104 0.85921 0.0
H245 H 0.89908 0.91897 0.90631 0.0
H246 H 0.69061 0.10323 0.82226 0.0
H247 H 0.67217 0.08804 0.87261 0.0
H248 H 0.764 0.12513 0.79516 0.0
H249 H 0.82416 0.09368 0.77807 0.0
C250 C 0.06419 0.79472 0.41585 0.0
C251 C 0.03351 0.74881 0.39686 0.0
C252 C 0.01238 0.79997 0.32993 0.0
C253 C 0.04774 0.8438 0.34778 0.0
N254 N 0.11665 0.87856 0.40481 0.0
N255 N 0.98357 0.70408 0.335 0.0
C256 C 0.07601 0.84016 0.39004 0.0
C257 C 0.00895 0.75038 0.35362 0.0
N258 N 0.08139 0.79519 0.45871 0.0
N259 N 0.98054 0.80652 0.29108 0.0
H260 H 0.97883 0.66759 0.35174 0.0
H261 H 0.97068 0.70054 0.30247 0.0
H262 H 0.98218 0.84221 0.27285 0.0
H263 H 0.94915 0.77857 0.27835 0.0
H264 H 0.09809 0.83004 0.47513 0.0
H265 H 0.0744 0.76216 0.47862 0.0
H266 H 0.14307 0.87471 0.43361 0.0
H267 H 0.12829 0.91163 0.38656 0.0
loop_
_geom_bond_atom_site_label_1
_geom_bond_atom_site_label_2
_geom_bond_distance
_geom_bond_site_symmetry_2
_ccdc_geom_bond_type
H0 C19 0.949 . S
H1 C20 0.950 . S
H2 C22 0.950 . S
H3 C23 0.950 . S
H4 C25 0.950 . S
H5 C28 0.950 . S
H6 C29 0.950 . S
H7 C31 0.951 . S
H8 C32 0.949 . S
H9 C34 0.949 . S
H10 C35 0.950 . S
H11 C37 0.950 . S
H12 C38 0.950 . S
H13 C40 0.950 . S
H14 C43 0.950 . S
H15 C44 0.950 . S
H16 C46 0.951 . S
H17 C47 0.949 . S
C18 C19 1.376 1_545 S
C18 C23 1.386 . S
C18 C24 1.483 . S
C19 H0 0.949 . S
C19 C18 1.376 1_565 S
C19 C20 1.397 . S
C20 H1 0.950 . S
C20 C19 1.397 . S
C20 C21 1.391 1_565 S
C21 C20 1.391 1_545 S
C21 C22 1.405 . S
C22 H2 0.950 . S
C22 C21 1.405 . S
C22 C23 1.367 . S
C23 H3 0.950 . S
C23 C18 1.386 . S
C23 C22 1.367 . S
C24 C18 1.483 . S
C24 C25 1.382 1_545 S
C24 C26 1.403 1_554 S
C25 H4 0.950 . S
C25 C24 1.382 1_565 S
C25 C41 1.411 1_565 S
C26 C24 1.403 1_556 S
C26 C27 1.489 . S
C26 C40 1.411 . S
C27 C26 1.489 . S
C27 C28 1.383 1_545 S
C27 C32 1.382 . S
C28 H5 0.950 . S
C28 C27 1.383 1_565 S
C28 C29 1.395 . S
C29 H6 0.950 . S
C29 C28 1.395 . S
C29 C30 1.288 1_565 S
C30 C29 1.288 1_545 S
C30 C31 1.392 . S
C31 H7 0.951 . S
C31 C30 1.392 . S
C31 C32 1.392 . S
C32 H8 0.949 . S
C32 C27 1.382 . S
C32 C31 1.392 . S
C33 C34 1.376 . S
C33 C38 1.386 1_545 S
C33 C39 1.483 . S
C34 H9 0.949 . S
C34 C33 1.376 . S
C34 C35 1.397 . S
C35 H10 0.950 . S
C35 C34 1.397 . S
C35 C36 1.391 . S
C36 C35 1.391 . S
C36 C37 1.405 1_545 S
C37 H11 0.950 . S
C37 C36 1.405 1_565 S
C37 C38 1.367 . S
C38 H12 0.950 . S
C38 C33 1.386 1_565 S
C38 C37 1.367 . S
C39 C33 1.483 . S
C39 C40 1.382 . S
C39 C41 1.403 1_556 S
C40 H13 0.950 . S
C40 C26 1.411 . S
C40 C39 1.382 . S
C41 C25 1.411 1_545 S
C41 C39 1.403 1_554 S
C41 C42 1.489 1_545 S
C42 C41 1.489 1_565 S
C42 C43 1.381 1_565 S
C42 C47 1.384 . S
C43 H14 0.950 . S
C43 C42 1.381 1_545 S
C43 C44 1.395 . S
C44 H15 0.950 . S
C44 C43 1.395 . S
C44 C45 1.288 . S
C45 C44 1.288 . S
C45 C46 1.392 1_545 S
C46 H16 0.951 . S
C46 C45 1.392 1_565 S
C46 C47 1.392 . S
C47 H17 0.949 . S
C47 C42 1.384 . S
C47 C46 1.392 . S
H48 C67 0.949 . S
H49 C68 0.950 . S
H50 C70 0.950 . S
H51 C71 0.950 . S
H52 C73 0.950 . S
H53 C76 0.950 . S
H54 C77 0.950 . S
H55 C79 0.951 . S
H56 C80 0.949 . S
H57 C82 0.949 . S
H58 C83 0.950 . S
H59 C85 0.950 . S
H60 C86 0.950 . S
H61 C88 0.950 . S
H62 C91 0.950 . S
H63 C92 0.950 . S
H64 C94 0.951 . S
H65 C95 0.949 . S
C66 C67 1.376 . S
C66 C71 1.386 1_455 S
C66 C72 1.483 . S
C67 H48 0.949 . S
C67 C66 1.376 . S
C67 C68 1.397 . S
C68 H49 0.950 . S
C68 C67 1.397 . S
C68 C69 1.391 . S
C69 C68 1.391 . S
C69 C70 1.405 1_455 S
C70 H50 0.950 . S
C70 C69 1.405 1_655 S
C70 C71 1.367 . S
C71 H51 0.950 . S
C71 C66 1.386 1_655 S
C71 C70 1.367 . S
C72 C66 1.483 . S
C72 C73 1.382 . S
C72 C74 1.403 . S
C73 H52 0.950 . S
C73 C72 1.382 . S
C73 C89 1.411 . S
C74 C72 1.403 . S
C74 C75 1.489 . S
C74 C88 1.411 . S
C75 C74 1.489 . S
C75 C76 1.383 . S
C75 C80 1.382 1_455 S
C76 H53 0.950 . S
C76 C75 1.383 . S
C76 C77 1.395 . S
C77 H54 0.950 . S
C77 C76 1.395 . S
C77 C78 1.288 . S
C78 C77 1.288 . S
C78 C79 1.392 1_455 S
C79 H55 0.951 . S
C79 C78 1.392 1_655 S
C79 C80 1.392 . S
C80 H56 0.949 . S
C80 C75 1.382 1_655 S
C80 C79 1.392 . S
C81 C82 1.376 1_455 S
C81 C86 1.386 . S
C81 C87 1.483 . S
C82 H57 0.949 . S
C82 C81 1.376 1_655 S
C82 C83 1.397 . S
C83 H58 0.950 . S
C83 C82 1.397 . S
C83 C84 1.391 1_655 S
C84 C83 1.391 1_455 S
C84 C85 1.405 . S
C85 H59 0.950 . S
C85 C84 1.405 . S
C85 C86 1.367 . S
C86 H60 0.950 . S
C86 C81 1.386 . S
C86 C85 1.367 . S
C87 C81 1.483 . S
C87 C88 1.382 . S
C87 C89 1.403 . S
C88 H61 0.950 . S
C88 C74 1.411 . S
C88 C87 1.382 . S
C89 C73 1.411 . S
C89 C87 1.403 . S
C89 C90 1.489 . S
C90 C89 1.489 . S
C90 C91 1.383 1_455 S
C90 C95 1.382 . S
C91 H62 0.950 . S
C91 C90 1.383 1_655 S
C91 C92 1.395 . S
C92 H63 0.950 . S
C92 C91 1.395 . S
C92 C93 1.288 1_655 S
C93 C92 1.288 1_455 S
C93 C94 1.392 . S
C94 H64 0.951 . S
C94 C93 1.392 . S
C94 C95 1.392 . S
C95 H65 0.949 . S
C95 C90 1.382 . S
C95 C94 1.392 . S
Mg96 O97 2.028 . S
Mg96 O103 1.986 . S
Mg96 O105 2.114 1_545 S
Mg96 O106 2.251 1_545 S
Mg96 O109 2.010 . S
O97 Mg96 2.028 . S
O97 C100 1.250 1_455 S
O98 Mg99 2.028 . S
O98 C100 1.248 . S
Mg99 O98 2.028 . S
Mg99 O104 2.032 . S
Mg99 O106 2.079 1_645 S
C100 O97 1.250 1_655 S
C100 O98 1.248 . S
C101 O102 1.264 . S
C101 O109 1.249 . S
O102 C101 1.264 . S
O103 Mg96 1.986 . S
O103 C107 1.246 . S
O104 Mg99 2.032 . S
O104 C107 1.259 1_655 S
O105 Mg96 2.114 1_565 S
O105 C108 1.252 . S
O106 Mg96 2.251 1_565 S
O106 Mg99 2.079 1_465 S
O106 C108 1.273 . S
C107 O103 1.246 . S
C107 O104 1.259 1_455 S
C108 O105 1.252 . S
C108 O106 1.273 . S
O109 Mg96 2.010 . S
O109 C101 1.249 . S
Mg110 O111 2.028 1_655 S
Mg110 O117 1.986 . S
Mg110 O119 2.114 1_545 S
Mg110 O120 2.251 1_645 S
Mg110 O123 2.010 . S
O111 Mg110 2.028 1_455 S
O111 C114 1.250 . S
O112 Mg113 2.028 . S
O112 C114 1.248 . S
Mg113 O112 2.028 . S
Mg113 O118 2.032 . S
Mg113 O120 2.079 1_545 S
C114 O111 1.250 . S
C114 O112 1.248 . S
C115 O116 1.264 . S
C115 O123 1.249 . S
O116 C115 1.264 . S
O117 Mg110 1.986 . S
O117 C121 1.246 1_655 S
O118 Mg113 2.032 . S
O118 C121 1.259 . S
O119 Mg110 2.114 1_565 S
O119 C122 1.252 1_655 S
O120 Mg110 2.251 1_465 S
O120 Mg113 2.079 1_565 S
O120 C122 1.273 . S
C121 O117 1.246 1_455 S
C121 O118 1.259 . S
C122 O119 1.252 1_455 S
C122 O120 1.273 . S
O123 Mg110 2.010 . S
O123 C115 1.249 . S
C124 C125 1.363 1_565 S
C124 C130 1.379 . S
C124 N132 1.356 . S
C125 C124 1.363 1_545 S
C125 C131 1.363 . S
C126 C127 1.363 . S
C126 C131 1.379 . S
C126 N133 1.356 . S
C127 C126 1.363 . S
C127 C130 1.363 1_545 S
N128 C130 1.356 . S
N128 H140 0.984 . S
N128 H141 0.985 . S
N129 C131 1.356 . S
N129 H134 0.984 . S
N129 H135 0.985 . S
C130 C124 1.379 . S
C130 C127 1.363 1_565 S
C130 N128 1.356 . S
C131 C125 1.363 . S
C131 C126 1.379 . S
C131 N129 1.356 . S
N132 C124 1.356 . S
N132 H138 0.984 . S
N132 H139 0.984 . S
N133 C126 1.356 . S
N133 H136 0.984 . S
N133 H137 0.985 . S
H134 N129 0.984 . S
H135 N129 0.985 . S
H136 N133 0.984 . S
H137 N133 0.985 . S
H138 N132 0.984 . S
H139 N132 0.984 . S
H140 N128 0.984 . S
H141 N128 0.985 . S
C142 C143 1.363 1_655 S
C142 C148 1.379 . S
C142 N150 1.356 . S
C143 C142 1.363 1_455 S
C143 C149 1.363 . S
C144 C145 1.363 . S
C144 C149 1.379 . S
C144 N151 1.356 . S
C145 C144 1.363 . S
C145 C148 1.363 1_455 S
N146 C148 1.356 . S
N146 H158 0.984 . S
N146 H159 0.985 . S
N147 C149 1.356 . S
N147 H152 0.984 . S
N147 H153 0.985 . S
C148 C142 1.379 . S
C148 C145 1.363 1_655 S
C148 N146 1.356 . S
C149 C143 1.363 . S
C149 C144 1.379 . S
C149 N147 1.356 . S
N150 C142 1.356 . S
N150 H156 0.984 . S
N150 H157 0.984 . S
N151 C144 1.356 . S
N151 H154 0.984 . S
N151 H155 0.985 . S
H152 N147 0.984 . S
H153 N147 0.985 . S
H154 N151 0.984 . S
H155 N151 0.985 . S
H156 N150 0.984 . S
H157 N150 0.984 . S
H158 N146 0.984 . S
H159 N146 0.985 . S
C160 C161 1.363 . S
C160 C166 1.379 . S
C160 N168 1.356 . S
C161 C160 1.363 . S
C161 C167 1.363 1_545 S
C162 C163 1.363 1_565 S
C162 C167 1.379 . S
C162 N169 1.356 . S
C163 C162 1.363 1_545 S
C163 C166 1.363 . S
N164 C166 1.356 . S
N164 H176 0.984 . S
N164 H177 0.985 . S
N165 C167 1.356 . S
N165 H170 0.984 . S
N165 H171 0.985 . S
C166 C160 1.379 . S
C166 C163 1.363 . S
C166 N164 1.356 . S
C167 C161 1.363 1_565 S
C167 C162 1.379 . S
C167 N165 1.356 . S
N168 C160 1.356 . S
N168 H174 0.984 . S
N168 H175 0.984 . S
N169 C162 1.356 . S
N169 H172 0.984 . S
N169 H173 0.985 . S
H170 N165 0.984 . S
H171 N165 0.985 . S
H172 N169 0.984 . S
H173 N169 0.985 . S
H174 N168 0.984 . S
H175 N168 0.984 . S
H176 N164 0.984 . S
H177 N164 0.985 . S
C178 C179 1.363 1_655 S
C178 C184 1.379 . S
C178 N186 1.356 . S
C179 C178 1.363 1_455 S
C179 C185 1.363 . S
C180 C181 1.363 . S
C180 C185 1.379 . S
C180 N187 1.356 . S
C181 C180 1.363 . S
C181 C184 1.363 1_455 S
N182 C184 1.356 . S
N182 H194 0.984 . S
N182 H195 0.985 . S
N183 C185 1.356 . S
N183 H188 0.984 . S
N183 H189 0.985 . S
C184 C178 1.379 . S
C184 C181 1.363 1_655 S
C184 N182 1.356 . S
C185 C179 1.363 . S
C185 C180 1.379 . S
C185 N183 1.356 . S
N186 C178 1.356 . S
N186 H192 0.984 . S
N186 H193 0.984 . S
N187 C180 1.356 . S
N187 H190 0.984 . S
N187 H191 0.985 . S
H188 N183 0.984 . S
H189 N183 0.985 . S
H190 N187 0.984 . S
H191 N187 0.985 . S
H192 N186 0.984 . S
H193 N186 0.984 . S
H194 N182 0.984 . S
H195 N182 0.985 . S
C196 C197 1.363 1_565 S
C196 C202 1.379 . S
C196 N204 1.356 . S
C197 C196 1.363 1_545 S
C197 C203 1.363 . S
C198 C199 1.363 . S
C198 C203 1.379 . S
C198 N205 1.356 . S
C199 C198 1.363 . S
C199 C202 1.363 1_545 S
N200 C202 1.356 . S
N200 H212 0.984 . S
N200 H213 0.985 . S
N201 C203 1.356 . S
N201 H206 0.984 . S
N201 H207 0.985 . S
C202 C196 1.379 . S
C202 C199 1.363 1_565 S
C202 N200 1.356 . S
C203 C197 1.363 . S
C203 C198 1.379 . S
C203 N201 1.356 . S
N204 C196 1.356 . S
N204 H210 0.984 . S
N204 H211 0.984 . S
N205 C198 1.356 . S
N205 H208 0.984 . S
N205 H209 0.985 . S
H206 N201 0.984 . S
H207 N201 0.985 . S
H208 N205 0.984 . S
H209 N205 0.985 . S
H210 N204 0.984 . S
H211 N204 0.984 . S
H212 N200 0.984 . S
H213 N200 0.985 . S
C214 C215 1.363 . S
C214 C220 1.379 . S
C214 N222 1.356 . S
C215 C214 1.363 . S
C215 C221 1.363 . S
C216 C217 1.363 . S
C216 C221 1.379 . S
C216 N223 1.356 1_455 S
C217 C216 1.363 . S
C217 C220 1.363 . S
N218 C220 1.356 . S
N218 H230 0.984 . S
N218 H231 0.985 . S
N219 C221 1.356 1_655 S
N219 H224 0.984 . S
N219 H225 0.985 . S
C220 C214 1.379 . S
C220 C217 1.363 . S
C220 N218 1.356 . S
C221 C215 1.363 . S
C221 C216 1.379 . S
C221 N219 1.356 1_455 S
N222 C214 1.356 . S
N222 H228 0.984 . S
N222 H229 0.984 . S
N223 C216 1.356 1_655 S
N223 H226 0.982 1_655 S
N223 H227 0.985 . S
H224 N219 0.984 . S
H225 N219 0.985 . S
H226 N223 0.982 1_455 S
H227 N223 0.985 . S
H228 N222 0.984 . S
H229 N222 0.984 . S
H230 N218 0.984 . S
H231 N218 0.985 . S
C232 C233 1.363 . S
C232 C238 1.379 . S
C232 N240 1.356 . S
C233 C232 1.363 . S
C233 C239 1.363 1_545 S
C234 C235 1.363 1_565 S
C234 C239 1.379 . S
C234 N241 1.356 . S
C235 C234 1.363 1_545 S
C235 C238 1.363 . S
N236 C238 1.356 . S
N236 H248 0.984 . S
N236 H249 0.985 . S
N237 C239 1.356 . S
N237 H242 0.984 . S
N237 H243 0.985 . S
C238 C232 1.379 . S
C238 C235 1.363 . S
C238 N236 1.356 . S
C239 C233 1.363 1_565 S
C239 C234 1.379 . S
C239 N237 1.356 . S
N240 C232 1.356 . S
N240 H246 0.984 . S
N240 H247 0.984 . S
N241 C234 1.356 . S
N241 H244 0.984 . S
N241 H245 0.985 . S
H242 N237 0.984 . S
H243 N237 0.985 . S
H244 N241 0.984 . S
H245 N241 0.985 . S
H246 N240 0.984 . S
H247 N240 0.984 . S
H248 N236 0.984 . S
H249 N236 0.985 . S
C250 C251 1.363 . S
C250 C256 1.379 . S
C250 N258 1.356 1_455 S
C251 C250 1.363 . S
C251 C257 1.363 . S
C252 C253 1.363 . S
C252 C257 1.379 . S
C252 N259 1.356 . S
C253 C252 1.363 . S
C253 C256 1.363 . S
N254 C256 1.356 1_655 S
N254 H266 0.984 . S
N254 H267 0.985 . S
N255 C257 1.356 . S
N255 H260 0.984 . S
N255 H261 0.985 . S
C256 C250 1.379 . S
C256 C253 1.363 . S
C256 N254 1.356 1_455 S
C257 C251 1.363 . S
C257 C252 1.379 . S
C257 N255 1.356 . S
N258 C250 1.356 1_655 S
N258 H264 0.984 . S
N258 H265 0.984 . S
N259 C252 1.356 . S
N259 H262 0.984 . S
N259 H263 0.985 . S
H260 N255 0.984 . S
H261 N255 0.985 . S
H262 N259 0.984 . S
H263 N259 0.985 . S
H264 N258 0.984 . S
H265 N258 0.984 . S
H266 N254 0.984 . S
H267 N254 0.985 . S
C127 C101 1.270 . S
C125 C45 1.521 . S
C145 C121 1.487 . S
C143 C78 1.507 . S
C163 C100 1.475 . S
C161 C21 1.518 . S
C181 C122 1.521 . S
C179 C84 1.520 . S
C199 C114 1.475 . S
C197 C36 1.516 . S
C217 C107 1.487 . S
C215 C69 1.512 . S
C235 C115 1.270 . S
C233 C30 1.513 . S
C251 C93 1.516 . S
C253 C108 1.521 . S
