# Generated by pormake.
# Topology sit, (3,6)-cn, num edge types: 1
# Building blocks:
#     Node 0, Type 0, BuildingBlock: INOVEN_clean_linker_0, # of connection points: 3
#     Node 1, Type 0, BuildingBlock: INOVEN_clean_linker_0, # of connection points: 3
#     Node 2, Type 0, BuildingBlock: INOVEN_clean_linker_0, # of connection points: 3
#     Node 3, Type 0, BuildingBlock: INOVEN_clean_linker_0, # of connection points: 3
#     Node 4, Type 1, BuildingBlock: MIDCAF_clean_sbu_0, # of connection points: 6
#     Node 5, Type 1, BuildingBlock: MIDCAF_clean_sbu_0, # of connection points: 6
#     Edge 6, Type (0, 1), None
#     Edge 7, Type (0, 1), None
#     Edge 8, Type (0, 1), None
#     Edge 9, Type (0, 1), None
#     Edge 10, Type (0, 1), None
#     Edge 11, Type (0, 1), None
#     Edge 12, Type (0, 1), None
#     Edge 13, Type (0, 1), None
#     Edge 14, Type (0, 1), None
#     Edge 15, Type (0, 1), None
#     Edge 16, Type (0, 1), None
#     Edge 17, Type (0, 1), None
# Relax obj value: 0.072
# Max RMSD: 0.185
# Mean RMSD: 0.096
data_MOF--net-sit--node1-MIDCAF_clean_sbu_0--node2-INOVEN_clean_linker_0--edge1-none
_symmetry_space_group_name_H-M    P1
_symmetry_Int_Tables_number       1
_symmetry_cell_setting            triclinic
loop_
_symmetry_equiv_pos_as_xyz
'x, y, z'
_cell_length_a     9.5825608
_cell_length_b     10.414915
_cell_length_c     20.346726
_cell_angle_alpha  89.985645
_cell_angle_beta   89.991534
_cell_angle_gamma 78.585192
loop_
_atom_site_label
_atom_site_type_symbol
_atom_site_fract_x
_atom_site_fract_y
_atom_site_fract_z
_atom_type_partial_charge
H0 H 0.78572 0.51195 -0.02192 0.0
H1 H 0.00234 0.57862 0.79978 0.0
H2 H 0.22516 0.54696 -0.01532 0.0
N3 N 0.00726 0.51312 0.05838 0.0
N4 N -0.0473 0.42749 0.08536 0.0
C5 C 0.88153 0.52574 -0.04698 0.0
C6 C 0.87949 0.54644 0.88495 0.0
C7 C 0.00568 0.52783 -0.01078 0.0
C8 C 0.12855 0.54781 -0.04318 0.0
C9 C 0.12848 0.56343 0.88839 0.0
C10 C 0.003 0.56542 0.85267 0.0
H11 H 0.7136 0.92766 -0.0155 0.0
H12 H -0.06307 0.89558 0.79972 0.0
H13 H 0.15303 0.96272 -0.02196 0.0
N14 N -0.06869 0.96156 0.05826 0.0
N15 N -0.01435 1.04728 0.08527 0.0
C16 C 0.81028 0.92677 -0.04332 0.0
C17 C 0.81055 0.91098 0.88826 0.0
C18 C -0.06695 0.94685 -0.01089 0.0
C19 C 0.0573 0.94887 -0.04705 0.0
C20 C 0.05953 0.92798 0.88491 0.0
C21 C -0.06387 0.9089 0.85259 0.0
H22 H 0.28535 1.01175 0.47805 0.0
H23 H 0.50164 1.07847 0.29967 0.0
H24 H 0.72477 1.04682 0.48448 0.0
N25 N 0.50703 1.01297 0.55825 0.0
N26 N 0.45283 0.92715 0.58528 0.0
C27 C 0.3811 1.02554 0.45295 0.0
C28 C 0.37895 1.04627 0.38489 0.0
C29 C 0.50532 1.02763 0.4891 0.0
C30 C 0.62812 1.04765 0.45666 0.0
C31 C 0.62793 1.06327 0.38822 0.0
C32 C 0.50239 1.06526 0.35256 0.0
H33 H 0.21321 0.42752 0.4847 0.0
H34 H 0.43623 0.39543 0.29983 0.0
H35 H 0.65265 0.46252 0.47807 0.0
N36 N 0.43108 0.46141 0.55838 0.0
N37 N 0.48578 0.54695 0.58535 0.0
C38 C 0.30985 0.4266 0.45685 0.0
C39 C 0.30999 0.41082 0.38842 0.0
C40 C 0.43269 0.44666 0.48923 0.0
C41 C 0.55688 0.44867 0.45302 0.0
C42 C 0.55899 0.42781 0.38497 0.0
C43 C 0.43552 0.40873 0.35271 0.0
Zn44 Zn -0.08048 0.51665 0.28768 0.0
Zn45 Zn 0.01847 0.95768 0.28754 0.0
Zn46 Zn -0.031 0.23718 0.28335 0.0
C47 C -0.00969 1.05542 0.15449 0.0
C48 C 0.76143 1.06442 0.35337 0.0
O49 O 0.14579 0.30066 0.3347 0.0
O50 O 0.09442 0.51779 0.34136 0.0
C51 C -0.05208 0.41924 0.15458 0.0
O52 O -0.01947 1.16795 0.18198 0.0
O53 O 0.00362 0.95188 0.18855 0.0
O54 O 0.84344 0.95638 0.34109 0.0
O55 O 0.79219 1.17354 0.3346 0.0
O56 O -0.06539 0.52269 0.18868 0.0
O57 O -0.0424 0.30665 0.18203 0.0
O58 O 0.76776 0.31112 0.33317 0.0
O59 O 0.73064 0.52857 0.33375 0.0
C60 C 0.69115 0.42313 0.34813 0.0
O61 O 0.17016 1.16308 0.33316 0.0
O62 O 0.20725 0.94562 0.33367 0.0
C63 C 0.17645 0.40972 0.35359 0.0
C64 C 0.24674 1.05103 0.34809 0.0
Zn65 Zn 0.42005 1.01661 0.78756 0.0
Zn66 Zn 0.51901 0.45764 0.78766 0.0
Zn67 Zn 0.46952 0.73713 0.78335 0.0
C68 C 0.49058 0.55515 0.65457 0.0
C69 C 0.26204 0.56453 0.85356 0.0
O70 O 0.64634 0.80073 0.83461 0.0
O71 O 0.59505 1.01788 0.84112 0.0
C72 C 0.44819 0.91898 0.6545 0.0
O73 O 0.48092 0.66772 0.68201 0.0
O74 O 0.50391 0.45167 0.68867 0.0
O75 O 0.34406 0.45648 0.84133 0.0
O76 O 0.29274 0.67362 0.83469 0.0
O77 O 0.43489 1.02248 0.68856 0.0
O78 O 0.45799 0.80642 0.68199 0.0
O79 O 0.26833 0.81119 0.83317 0.0
O80 O 0.23127 1.02865 0.83369 0.0
C81 C 0.19175 0.92324 0.84811 0.0
O82 O 0.67072 0.66316 0.83316 0.0
O83 O 0.70788 0.4457 0.83372 0.0
C84 C 0.67706 0.90984 0.85339 0.0
C85 C 0.74735 0.55113 0.84811 0.0
loop_
_geom_bond_atom_site_label_1
_geom_bond_atom_site_label_2
_geom_bond_distance
_geom_bond_site_symmetry_2
_ccdc_geom_bond_type
H0 C5 0.929 . S
H1 C10 0.931 . S
H2 C8 0.930 . S
N3 N4 1.234 . S
N3 C7 1.453 . S
N4 N3 1.234 . S
C5 H0 0.929 . S
C5 C6 1.373 1_554 S
C5 C7 1.368 1_655 S
C6 C5 1.373 1_556 S
C6 C10 1.397 1_655 S
C7 N3 1.453 . S
C7 C5 1.368 1_455 S
C7 C8 1.373 . S
C8 H2 0.930 . S
C8 C7 1.373 . S
C8 C9 1.371 1_554 S
C9 C8 1.371 1_556 S
C9 C10 1.383 . S
C10 H1 0.931 . S
C10 C6 1.397 1_455 S
C10 C9 1.383 . S
H11 C16 0.929 . S
H12 C21 0.931 . S
H13 C19 0.930 . S
N14 N15 1.234 1_655 S
N14 C18 1.453 . S
N15 N14 1.234 1_455 S
C16 H11 0.929 . S
C16 C17 1.373 1_554 S
C16 C18 1.368 . S
C17 C16 1.373 1_556 S
C17 C21 1.397 1_655 S
C18 N14 1.453 . S
C18 C16 1.368 . S
C18 C19 1.373 1_655 S
C19 H13 0.930 . S
C19 C18 1.373 1_455 S
C19 C20 1.371 1_554 S
C20 C19 1.371 1_556 S
C20 C21 1.383 . S
C21 H12 0.931 . S
C21 C17 1.397 1_455 S
C21 C20 1.383 . S
H22 C27 0.929 . S
H23 C32 0.931 . S
H24 C30 0.930 . S
N25 N26 1.234 . S
N25 C29 1.453 . S
N26 N25 1.234 . S
C27 H22 0.929 . S
C27 C28 1.373 . S
C27 C29 1.368 . S
C28 C27 1.373 . S
C28 C32 1.397 . S
C29 N25 1.453 . S
C29 C27 1.368 . S
C29 C30 1.373 . S
C30 H24 0.930 . S
C30 C29 1.373 . S
C30 C31 1.371 . S
C31 C30 1.371 . S
C31 C32 1.383 . S
C32 H23 0.931 . S
C32 C28 1.397 . S
C32 C31 1.383 . S
H33 C38 0.929 . S
H34 C43 0.931 . S
H35 C41 0.930 . S
N36 N37 1.234 . S
N36 C40 1.453 . S
N37 N36 1.234 . S
C38 H33 0.929 . S
C38 C39 1.373 . S
C38 C40 1.368 . S
C39 C38 1.373 . S
C39 C43 1.397 . S
C40 N36 1.453 . S
C40 C38 1.368 . S
C40 C41 1.373 . S
C41 H35 0.930 . S
C41 C40 1.373 . S
C41 C42 1.371 . S
C42 C41 1.371 . S
C42 C43 1.383 . S
C43 H34 0.931 . S
C43 C39 1.397 . S
C43 C42 1.383 . S
Zn44 O50 1.920 . S
Zn44 O56 1.898 . S
Zn44 O59 1.905 1_455 S
Zn45 O53 1.905 . S
Zn45 O54 1.898 1_455 S
Zn45 O62 1.920 . S
Zn46 O49 2.080 . S
Zn46 O52 2.114 1_445 S
Zn46 O55 2.120 1_445 S
Zn46 O57 2.120 . S
Zn46 O58 2.114 1_455 S
Zn46 O61 2.080 1_545 S
C47 O52 1.166 1_455 S
C47 O53 1.182 . S
C48 O54 1.167 . S
C48 O55 1.299 . S
O49 Zn46 2.080 . S
O49 C63 1.305 . S
O50 Zn44 1.920 . S
O50 C63 1.234 . S
C51 O56 1.167 . S
C51 O57 1.299 . S
O52 Zn46 2.114 1_665 S
O52 C47 1.166 1_655 S
O53 Zn45 1.905 . S
O53 C47 1.182 . S
O54 Zn45 1.898 1_655 S
O54 C48 1.167 . S
O55 Zn46 2.120 1_665 S
O55 C48 1.299 . S
O56 Zn44 1.898 . S
O56 C51 1.167 . S
O57 Zn46 2.120 . S
O57 C51 1.299 . S
O58 Zn46 2.114 1_655 S
O58 C60 1.166 . S
O59 Zn44 1.905 1_655 S
O59 C60 1.182 . S
C60 O58 1.166 . S
C60 O59 1.182 . S
O61 Zn46 2.080 1_565 S
O61 C64 1.305 . S
O62 Zn45 1.920 . S
O62 C64 1.234 . S
C63 O49 1.305 . S
C63 O50 1.234 . S
C64 O61 1.305 . S
C64 O62 1.234 . S
Zn65 O71 1.920 . S
Zn65 O77 1.898 . S
Zn65 O80 1.905 . S
Zn66 O74 1.905 . S
Zn66 O75 1.898 . S
Zn66 O83 1.920 . S
Zn67 O70 2.080 . S
Zn67 O73 2.114 . S
Zn67 O76 2.120 . S
Zn67 O78 2.120 . S
Zn67 O79 2.114 . S
Zn67 O82 2.080 . S
C68 O73 1.166 . S
C68 O74 1.182 . S
C69 O75 1.167 . S
C69 O76 1.299 . S
O70 Zn67 2.080 . S
O70 C84 1.305 . S
O71 Zn65 1.920 . S
O71 C84 1.234 . S
C72 O77 1.167 . S
C72 O78 1.299 . S
O73 Zn67 2.114 . S
O73 C68 1.166 . S
O74 Zn66 1.905 . S
O74 C68 1.182 . S
O75 Zn66 1.898 . S
O75 C69 1.167 . S
O76 Zn67 2.120 . S
O76 C69 1.299 . S
O77 Zn65 1.898 . S
O77 C72 1.167 . S
O78 Zn67 2.120 . S
O78 C72 1.299 . S
O79 Zn67 2.114 . S
O79 C81 1.166 . S
O80 Zn65 1.905 . S
O80 C81 1.182 . S
C81 O79 1.166 . S
C81 O80 1.182 . S
O82 Zn67 2.080 . S
O82 C85 1.305 . S
O83 Zn66 1.920 . S
O83 C85 1.234 . S
C84 O70 1.305 . S
C84 O71 1.234 . S
C85 O82 1.305 . S
C85 O83 1.234 . S
C51 N4 1.615 . S
C47 N15 1.463 . S
C72 N26 1.615 . S
N37 C68 1.463 . S
C9 C69 1.286 . S
C84 C17 1.303 . S
C6 C85 1.685 . S
C81 C20 1.655 . S
C48 C31 1.286 . S
C39 C63 1.303 . S
C64 C28 1.684 . S
C60 C42 1.655 . S
