# Generated by pormake.
# Topology pts, (4,4)-cn, num edge types: 1
# Building blocks:
#     Node 0, Type 0, BuildingBlock: GIZVER_clean_linker_0, # of connection points: 4
#     Node 1, Type 0, BuildingBlock: GIZVER_clean_linker_0, # of connection points: 4
#     Node 2, Type 1, BuildingBlock: AZAVOO_clean_sbu_0, # of connection points: 4
#     Node 3, Type 1, BuildingBlock: AZAVOO_clean_sbu_0, # of connection points: 4
#     Edge 4, Type (0, 1), BuildingBlock: EZIPEK_clean_linker_0, # of connection points: 2
#     Edge 5, Type (0, 1), BuildingBlock: EZIPEK_clean_linker_0, # of connection points: 2
#     Edge 6, Type (0, 1), BuildingBlock: EZIPEK_clean_linker_0, # of connection points: 2
#     Edge 7, Type (0, 1), BuildingBlock: EZIPEK_clean_linker_0, # of connection points: 2
#     Edge 8, Type (0, 1), BuildingBlock: EZIPEK_clean_linker_0, # of connection points: 2
#     Edge 9, Type (0, 1), BuildingBlock: EZIPEK_clean_linker_0, # of connection points: 2
#     Edge 10, Type (0, 1), BuildingBlock: EZIPEK_clean_linker_0, # of connection points: 2
#     Edge 11, Type (0, 1), BuildingBlock: EZIPEK_clean_linker_0, # of connection points: 2
# Relax obj value: 0.014
# Max RMSD: 0.076
# Mean RMSD: 0.070
data_MOF--net-pts--node1-AZAVOO_clean_sbu_0--node2-GIZVER_clean_linker_0--edge1-EZIPEK_clean_linker_0
_symmetry_space_group_name_H-M    P1
_symmetry_Int_Tables_number       1
_symmetry_cell_setting            triclinic
loop_
_symmetry_equiv_pos_as_xyz
'x, y, z'
_cell_length_a     18.606063
_cell_length_b     19.727253
_cell_length_c     26.113255
_cell_angle_alpha  91.371203
_cell_angle_beta   97.316567
_cell_angle_gamma 90.012617
loop_
_atom_site_label
_atom_site_type_symbol
_atom_site_fract_x
_atom_site_fract_y
_atom_site_fract_z
_atom_type_partial_charge
H0 H 0.61263 0.10495 0.06399 0.0
H1 H 0.58936 0.11015 0.89768 0.0
H2 H 0.77529 0.01539 -0.01906 0.0
H3 H 0.53088 0.18815 0.01522 0.0
H4 H 0.51726 0.18545 0.9463 0.0
H5 H 0.46474 0.11133 0.06511 0.0
H6 H 0.27825 0.00998 -0.01607 0.0
H7 H 0.43372 0.10176 0.89852 0.0
C8 C 0.63171 0.09123 0.02762 0.0
C9 C 0.69755 0.05651 0.02765 0.0
C10 C 0.59194 0.11041 -0.01925 0.0
C11 C 0.61864 0.09425 0.93395 0.0
C12 C 0.68479 0.06012 0.93404 0.0
C13 C 0.72346 0.04061 -0.01917 0.0
C14 C 0.52477 0.1531 -0.0191 0.0
C15 C 0.45835 0.10952 -0.01827 0.0
C16 C 0.43452 0.09359 0.02904 0.0
C17 C 0.36953 0.05782 0.02969 0.0
C18 C 0.32955 0.03594 -0.01668 0.0
C19 C 0.35227 0.05187 0.93607 0.0
C20 C 0.41709 0.08803 0.93521 0.0
H21 H 0.09943 0.55271 0.39674 0.0
H22 H 0.12174 0.59642 0.56042 0.0
H23 H 1.00758 0.73398 0.45411 0.0
H24 H 0.19661 0.50203 0.45776 0.0
H25 H 0.19764 0.51269 0.52576 0.0
H26 H 0.12136 0.41497 0.40907 0.0
H27 H 0.04256 0.25832 0.49874 0.0
H28 H 0.1119 0.44861 0.57213 0.0
C29 C 0.08536 0.58323 0.42906 0.0
C30 C 0.05251 0.64646 0.41991 0.0
C31 C 0.11048 0.5647 0.4799 0.0
C32 C 0.09826 0.60813 0.52151 0.0
C33 C 0.05958 0.66872 0.51258 0.0
C34 C 0.03419 0.68562 0.46158 0.0
C35 C 0.16098 0.50539 0.48889 0.0
C36 C 0.11999 0.43986 0.49024 0.0
C37 C 0.1064 0.39814 0.44549 0.0
C38 C 0.07825 0.33264 0.44866 0.0
C39 C 0.06203 0.30984 0.49609 0.0
C40 C 0.07402 0.35121 0.54062 0.0
C41 C 0.10109 0.41707 0.53743 0.0
Mg42 Mg 0.0745 0.9696 0.24723 0.0
O43 O 0.96546 0.98582 0.19783 0.0
O44 O 0.879 0.97735 0.24963 0.0
Mg45 Mg 0.93356 0.95075 0.33038 0.0
C46 C 0.89912 0.98775 0.20555 0.0
C47 C 0.20517 0.00362 0.19607 0.0
O48 O 0.23224 0.9795 0.24089 0.0
O49 O 0.06712 0.07432 0.28419 0.0
O50 O 0.98673 0.05725 0.33966 0.0
O51 O 0.06996 0.8585 0.23114 0.0
O52 O 0.02853 0.90862 0.2981 0.0
C53 C 0.03194 0.09491 0.32043 0.0
C54 C 0.03995 0.85347 0.27298 0.0
O55 O 0.13691 0.00959 0.18543 0.0
Mg56 Mg 0.97423 0.99715 0.70112 0.0
O57 O 0.07861 0.99174 0.75855 0.0
O58 O 0.17194 0.9955 0.7119 0.0
Mg59 Mg 0.12873 0.9892 0.62608 0.0
C60 C 0.14653 0.99492 0.75506 0.0
C61 C 0.83981 0.00852 0.75925 0.0
O62 O 0.81114 0.97866 0.71592 0.0
O63 O 1.00086 0.10846 0.68885 0.0
O64 O 0.08561 0.09695 0.63549 0.0
O65 O 0.96175 0.88354 0.68849 0.0
O66 O 0.02813 0.94881 0.64689 0.0
C67 C 0.04285 0.13348 0.65905 0.0
C68 C 1.00452 0.88909 0.65343 0.0
O69 O 0.9066 0.02441 0.76525 0.0
C70 C 0.34425 0.98445 0.10182 0.0
C71 C 0.33797 0.04835 0.07825 0.0
C72 C 0.25531 0.08672 0.13883 0.0
C73 C 0.25358 0.01983 0.15734 0.0
N74 N 0.28952 0.90233 0.15248 0.0
N75 N 0.28403 0.15949 0.07076 0.0
C76 C 0.2969 0.96801 0.13828 0.0
C77 C 0.29298 0.09958 0.09605 0.0
N78 N 0.39555 0.93962 0.08918 0.0
N79 N 0.22262 0.13821 0.16308 0.0
H80 H 0.31261 0.17184 0.04039 0.0
H81 H 0.24505 0.19526 0.07772 0.0
H82 H 0.19509 0.13067 0.19489 0.0
H83 H 0.22828 0.18915 0.15477 0.0
H84 H 0.40783 0.89481 0.10866 0.0
H85 H 0.43062 0.95034 0.06223 0.0
H86 H 0.31372 0.86141 0.13552 0.0
H87 H 0.25408 0.88755 0.17804 0.0
C88 C 0.12424 0.29279 0.62142 0.0
C89 C 0.0637 0.32039 0.59042 0.0
C90 C 0.98237 0.24034 0.62438 0.0
C91 C 0.04408 0.20736 0.6501 0.0
N92 N 0.16731 0.21657 0.69018 0.0
N93 N 0.93554 0.33888 0.57669 0.0
C94 C 0.11279 0.23935 0.65485 0.0
C95 C 0.99264 0.3008 0.59759 0.0
N96 N 0.19281 0.31327 0.61559 0.0
N97 N 0.91533 0.21129 0.6218 0.0
H98 H 0.94324 0.38294 0.55662 0.0
H99 H 0.88223 0.33065 0.58325 0.0
H100 H 0.90509 0.16837 0.64215 0.0
H101 H 0.87008 0.2284 0.59809 0.0
H102 H 0.23934 0.28869 0.63201 0.0
H103 H 0.20339 0.35337 0.5924 0.0
H104 H 0.21725 0.24088 0.69868 0.0
H105 H 0.1595 0.17672 0.71446 0.0
C106 C 0.7995 0.08822 0.09618 0.0
C107 C 0.74375 0.04186 0.07671 0.0
C108 C 0.78954 0.95956 0.14179 0.0
C109 C 0.84392 0.00681 0.16233 0.0
N110 N 0.89216 0.12063 0.16631 0.0
N111 N 0.67703 0.93907 0.08531 0.0
C112 C 0.84648 0.0725 0.14156 0.0
C113 C 0.73594 0.97931 0.10106 0.0
N114 N 0.80868 0.14656 0.07043 0.0
N115 N 0.79135 0.89481 0.15947 0.0
H116 H 0.63773 0.95148 0.05485 0.0
H117 H 0.6639 0.89629 0.1048 0.0
H118 H 0.82989 0.87844 0.18908 0.0
H119 H 0.75831 0.85578 0.14238 0.0
H120 H 0.85374 0.17811 0.07862 0.0
H121 H 0.77324 0.16166 0.03855 0.0
H122 H 0.89089 0.17152 0.15659 0.0
H123 H 0.92759 0.1111 0.1996 0.0
C124 C 0.02438 0.70821 0.59994 0.0
C125 C 0.05567 0.72122 0.55432 0.0
C126 C 0.04712 0.84221 0.57158 0.0
C127 C 0.02442 0.83038 0.6207 0.0
N128 N 0.01663 0.74776 0.68734 0.0
N129 N 0.12484 0.80074 0.511 0.0
C130 C 0.02059 0.76203 0.6369 0.0
C131 C 0.07719 0.78825 0.54534 0.0
N132 N 0.99578 0.64608 0.60747 0.0
N133 N 0.03433 0.90223 0.54705 0.0
H134 H 0.15072 0.76186 0.49269 0.0
H135 H 0.1443 0.84939 0.50575 0.0
H136 H 1.00068 0.93982 0.55928 0.0
H137 H 0.0475 0.90975 0.50993 0.0
H138 H 0.96679 0.63674 0.63823 0.0
H139 H 0.99494 0.6061 0.58059 0.0
H140 H 0.01854 0.69834 0.70074 0.0
H141 H 0.02175 0.78471 0.71674 0.0
C142 C 0.30891 0.97822 0.85845 0.0
C143 C 0.30206 0.03849 0.8881 0.0
C144 C 0.19411 0.0706 0.82998 0.0
C145 C 0.19768 0.00788 0.8025 0.0
N146 N 0.25194 0.89812 0.79353 0.0
N147 N 0.23494 0.139 0.9064 0.0
C148 C 0.25356 0.96066 0.81742 0.0
C149 C 0.24368 0.08377 0.87507 0.0
N150 N 0.36872 0.93831 0.86932 0.0
N151 N 0.14562 0.11914 0.81156 0.0
H152 H 0.27263 0.1534 0.93781 0.0
H153 H 0.18825 0.16848 0.90323 0.0
H154 H 0.10743 0.11179 0.77911 0.0
H155 H 0.14665 0.16887 0.8259 0.0
H156 H 0.38105 0.89741 0.84612 0.0
H157 H 0.40922 0.94902 0.8999 0.0
H158 H 0.28673 0.85874 0.80565 0.0
H159 H 0.21167 0.88358 0.76376 0.0
C160 C 1.00182 0.27025 0.37667 0.0
C161 C 0.07118 0.28361 0.4043 0.0
C162 C 0.11773 0.17739 0.37116 0.0
C163 C 0.04788 0.16314 0.34417 0.0
N164 N 0.92855 0.20185 0.31115 0.0
N165 N 0.19908 0.26023 0.41793 0.0
C166 C 0.9915 0.21166 0.34366 0.0
C167 C 0.13057 0.24077 0.39775 0.0
N168 N 0.94535 0.31225 0.3838 0.0
N169 N 0.17019 0.12851 0.37485 0.0
H170 H 0.21005 0.30557 0.43879 0.0
H171 H 0.24556 0.23474 0.41003 0.0
H172 H 0.16323 0.08083 0.35686 0.0
H173 H 0.21892 0.1329 0.39917 0.0
H174 H 0.89152 0.30127 0.37008 0.0
H175 H 0.95229 0.35738 0.40558 0.0
H176 H 0.88782 0.23802 0.30526 0.0
H177 H 0.91955 0.15931 0.28666 0.0
C178 C 0.75515 0.10225 0.86528 0.0
C179 C 0.71732 0.04872 0.8856 0.0
C180 C 0.76049 0.96833 0.82353 0.0
C181 C 0.79497 0.02257 0.80124 0.0
N182 N 0.81177 0.14294 0.79323 0.0
N183 N 0.67151 0.93429 0.87832 0.0
C184 C 0.78839 0.09015 0.81988 0.0
C185 C 0.71594 0.98281 0.86275 0.0
N186 N 0.76173 0.16396 0.89045 0.0
N187 N 0.77358 0.90272 0.80941 0.0
H188 H 0.63858 0.94328 0.90726 0.0
H189 H 0.66237 0.88733 0.85955 0.0
H190 H 0.8072 0.88965 0.78173 0.0
H191 H 0.75639 0.86099 0.82834 0.0
H192 H 0.79587 0.20228 0.881 0.0
H193 H 0.7373 0.17532 0.92341 0.0
H194 H 0.80165 0.19357 0.8019 0.0
H195 H 0.83531 0.13615 0.75929 0.0
C196 C 0.9832 0.69878 0.34199 0.0
C197 C 0.05097 0.68074 0.36961 0.0
C198 C 0.11202 0.76868 0.32632 0.0
C199 C 0.04392 0.78871 0.3004 0.0
N200 N 0.91742 0.76656 0.27466 0.0
N201 N 0.18208 0.68589 0.37761 0.0
C202 C 0.98026 0.75132 0.30517 0.0
C203 C 0.11608 0.71095 0.3578 0.0
N204 N 0.92173 0.66721 0.35283 0.0
N205 N 0.17226 0.80798 0.32419 0.0
H206 H 0.18908 0.64636 0.4033 0.0
H207 H 0.23056 0.70029 0.36494 0.0
H208 H 0.17292 0.85036 0.30118 0.0
H209 H 0.2208 0.80198 0.34826 0.0
H210 H 0.8695 0.6822 0.33872 0.0
H211 H 0.92345 0.6262 0.37751 0.0
H212 H 0.86978 0.73859 0.27318 0.0
H213 H 0.91453 0.80516 0.24782 0.0
loop_
_geom_bond_atom_site_label_1
_geom_bond_atom_site_label_2
_geom_bond_distance
_geom_bond_site_symmetry_2
_ccdc_geom_bond_type
H0 C8 0.930 . S
H1 C11 0.930 . S
H2 C13 0.930 . S
H3 C14 0.970 . S
H4 C14 0.970 1_556 S
H5 C16 0.930 . S
H6 C18 0.930 . S
H7 C20 0.930 . S
C8 H0 0.930 . S
C8 C9 1.382 . S
C8 C10 1.426 . S
C9 C8 1.382 . S
C9 C13 1.389 1_545 S
C10 C8 1.426 . S
C10 C11 1.375 1_554 S
C10 C14 1.532 . S
C11 H1 0.930 . S
C11 C10 1.375 1_556 S
C11 C12 1.416 . S
C12 C11 1.416 . S
C12 C13 1.371 1_546 S
C13 H2 0.930 . S
C13 C9 1.389 1_565 S
C13 C12 1.371 1_564 S
C14 H3 0.970 . S
C14 H4 0.970 1_554 S
C14 C10 1.532 . S
C14 C15 1.499 . S
C15 C14 1.499 . S
C15 C16 1.370 . S
C15 C20 1.415 1_554 S
C16 H5 0.930 . S
C16 C15 1.370 . S
C16 C17 1.407 . S
C17 C16 1.407 . S
C17 C18 1.365 1_544 S
C18 H6 0.930 . S
C18 C17 1.365 1_566 S
C18 C19 1.393 1_565 S
C19 C18 1.393 1_545 S
C19 C20 1.387 . S
C20 H7 0.930 . S
C20 C15 1.415 1_556 S
C20 C19 1.387 . S
H21 C29 0.930 . S
H22 C32 0.930 . S
H23 C34 0.930 1_655 S
H24 C35 0.970 . S
H25 C35 0.970 . S
H26 C37 0.930 . S
H27 C39 0.930 1_655 S
H28 C41 0.930 . S
C29 H21 0.930 . S
C29 C30 1.382 . S
C29 C31 1.426 . S
C30 C29 1.382 . S
C30 C34 1.389 . S
C31 C29 1.426 . S
C31 C32 1.375 . S
C31 C35 1.532 . S
C32 H22 0.930 . S
C32 C31 1.375 . S
C32 C33 1.416 . S
C33 C32 1.416 . S
C33 C34 1.371 . S
C34 H23 0.930 1_455 S
C34 C30 1.389 . S
C34 C33 1.371 . S
C35 H24 0.970 . S
C35 H25 0.970 . S
C35 C31 1.532 . S
C35 C36 1.499 . S
C36 C35 1.499 . S
C36 C37 1.370 . S
C36 C41 1.415 . S
C37 H26 0.930 . S
C37 C36 1.370 . S
C37 C38 1.407 . S
C38 C37 1.407 . S
C38 C39 1.365 . S
C39 H27 0.930 1_455 S
C39 C38 1.365 . S
C39 C40 1.393 . S
C40 C39 1.393 . S
C40 C41 1.387 . S
C41 H28 0.930 . S
C41 C36 1.415 . S
C41 C40 1.387 . S
Mg42 O43 2.028 1_455 S
Mg42 O49 1.986 . S
Mg42 O51 2.114 1_545 S
Mg42 O52 2.251 1_545 S
Mg42 O55 2.010 . S
O43 Mg42 2.028 1_655 S
O43 C46 1.250 . S
O44 Mg45 2.028 . S
O44 C46 1.248 . S
Mg45 O44 2.028 . S
Mg45 O50 2.032 . S
Mg45 O52 2.079 1_645 S
C46 O43 1.250 . S
C46 O44 1.248 . S
C47 O48 1.264 . S
C47 O55 1.249 . S
O48 C47 1.264 . S
O49 Mg42 1.986 . S
O49 C53 1.246 . S
O50 Mg45 2.032 . S
O50 C53 1.259 1_655 S
O51 Mg42 2.114 1_565 S
O51 C54 1.252 . S
O52 Mg42 2.251 1_565 S
O52 Mg45 2.079 1_465 S
O52 C54 1.273 . S
C53 O49 1.246 . S
C53 O50 1.259 1_455 S
C54 O51 1.252 . S
C54 O52 1.273 . S
O55 Mg42 2.010 . S
O55 C47 1.249 . S
Mg56 O57 2.028 1_655 S
Mg56 O63 1.986 . S
Mg56 O65 2.114 1_545 S
Mg56 O66 2.251 1_645 S
Mg56 O69 2.010 . S
O57 Mg56 2.028 1_455 S
O57 C60 1.250 . S
O58 Mg59 2.028 . S
O58 C60 1.248 . S
Mg59 O58 2.028 . S
Mg59 O64 2.032 . S
Mg59 O66 2.079 1_545 S
C60 O57 1.250 . S
C60 O58 1.248 . S
C61 O62 1.264 . S
C61 O69 1.249 . S
O62 C61 1.264 . S
O63 Mg56 1.986 . S
O63 C67 1.246 1_655 S
O64 Mg59 2.032 . S
O64 C67 1.259 . S
O65 Mg56 2.114 1_565 S
O65 C68 1.252 1_655 S
O66 Mg56 2.251 1_465 S
O66 Mg59 2.079 1_565 S
O66 C68 1.273 . S
C67 O63 1.246 1_455 S
C67 O64 1.259 . S
C68 O65 1.252 1_455 S
C68 O66 1.273 . S
O69 Mg56 2.010 . S
O69 C61 1.249 . S
C70 C71 1.352 1_565 S
C70 C76 1.379 . S
C70 N78 1.356 . S
C71 C70 1.352 1_545 S
C71 C77 1.375 . S
C72 C73 1.363 . S
C72 C77 1.379 . S
C72 N79 1.356 . S
C73 C72 1.363 . S
C73 C76 1.363 1_545 S
N74 C76 1.356 . S
N74 H86 0.984 . S
N74 H87 0.985 . S
N75 C77 1.356 . S
N75 H80 0.984 . S
N75 H81 0.985 . S
C76 C70 1.379 . S
C76 C73 1.363 1_565 S
C76 N74 1.356 . S
C77 C71 1.375 . S
C77 C72 1.379 . S
C77 N75 1.356 . S
N78 C70 1.356 . S
N78 H84 0.984 . S
N78 H85 0.984 . S
N79 C72 1.356 . S
N79 H82 0.984 . S
N79 H83 0.985 . S
H80 N75 0.984 . S
H81 N75 0.985 . S
H82 N79 0.984 . S
H83 N79 0.985 . S
H84 N78 0.984 . S
H85 N78 0.984 . S
H86 N74 0.984 . S
H87 N74 0.985 . S
C88 C89 1.363 . S
C88 C94 1.379 . S
C88 N96 1.356 . S
C89 C88 1.363 . S
C89 C95 1.363 1_455 S
C90 C91 1.363 1_655 S
C90 C95 1.379 . S
C90 N97 1.356 . S
C91 C90 1.363 1_455 S
C91 C94 1.363 . S
N92 C94 1.356 . S
N92 H104 0.984 . S
N92 H105 0.985 . S
N93 C95 1.356 . S
N93 H98 0.984 . S
N93 H99 0.985 . S
C94 C88 1.379 . S
C94 C91 1.363 . S
C94 N92 1.356 . S
C95 C89 1.363 1_655 S
C95 C90 1.379 . S
C95 N93 1.356 . S
N96 C88 1.356 . S
N96 H102 0.984 . S
N96 H103 0.984 . S
N97 C90 1.356 . S
N97 H100 0.984 . S
N97 H101 0.985 . S
H98 N93 0.984 . S
H99 N93 0.985 . S
H100 N97 0.984 . S
H101 N97 0.985 . S
H102 N96 0.984 . S
H103 N96 0.984 . S
H104 N92 0.984 . S
H105 N92 0.985 . S
C106 C107 1.363 . S
C106 C112 1.379 . S
C106 N114 1.356 . S
C107 C106 1.363 . S
C107 C113 1.363 1_545 S
C108 C109 1.363 1_565 S
C108 C113 1.379 . S
C108 N115 1.356 . S
C109 C108 1.363 1_545 S
C109 C112 1.363 . S
N110 C112 1.356 . S
N110 H122 0.984 . S
N110 H123 0.985 . S
N111 C113 1.356 . S
N111 H116 0.984 . S
N111 H117 0.985 . S
C112 C106 1.379 . S
C112 C109 1.363 . S
C112 N110 1.356 . S
C113 C107 1.363 1_565 S
C113 C108 1.379 . S
C113 N111 1.356 . S
N114 C106 1.356 . S
N114 H120 0.984 . S
N114 H121 0.984 . S
N115 C108 1.356 . S
N115 H118 0.984 . S
N115 H119 0.985 . S
H116 N111 0.984 . S
H117 N111 0.985 . S
H118 N115 0.984 . S
H119 N115 0.985 . S
H120 N114 0.984 . S
H121 N114 0.984 . S
H122 N110 0.984 . S
H123 N110 0.985 . S
C124 C125 1.363 1_655 S
C124 C130 1.379 . S
C124 N132 1.356 . S
C125 C124 1.363 1_455 S
C125 C131 1.363 . S
C126 C127 1.363 . S
C126 C131 1.379 . S
C126 N133 1.356 . S
C127 C126 1.363 . S
C127 C130 1.363 1_455 S
N128 C130 1.356 . S
N128 H140 0.984 . S
N128 H141 0.985 . S
N129 C131 1.356 . S
N129 H134 0.984 . S
N129 H135 0.985 . S
C130 C124 1.379 . S
C130 C127 1.363 1_655 S
C130 N128 1.356 . S
C131 C125 1.363 . S
C131 C126 1.379 . S
C131 N129 1.356 . S
N132 C124 1.356 . S
N132 H138 0.984 . S
N132 H139 0.984 . S
N133 C126 1.356 . S
N133 H136 0.984 . S
N133 H137 0.985 . S
H134 N129 0.984 . S
H135 N129 0.985 . S
H136 N133 0.984 . S
H137 N133 0.985 . S
H138 N132 0.984 . S
H139 N132 0.984 . S
H140 N128 0.984 . S
H141 N128 0.985 . S
C142 C143 1.363 1_565 S
C142 C148 1.379 . S
C142 N150 1.356 . S
C143 C142 1.363 1_545 S
C143 C149 1.363 . S
C144 C145 1.363 . S
C144 C149 1.379 . S
C144 N151 1.356 . S
C145 C144 1.363 . S
C145 C148 1.363 1_545 S
N146 C148 1.356 . S
N146 H158 0.984 . S
N146 H159 0.985 . S
N147 C149 1.356 . S
N147 H152 0.984 . S
N147 H153 0.985 . S
C148 C142 1.379 . S
C148 C145 1.363 1_565 S
C148 N146 1.356 . S
C149 C143 1.363 . S
C149 C144 1.379 . S
C149 N147 1.356 . S
N150 C142 1.356 . S
N150 H156 0.984 . S
N150 H157 0.984 . S
N151 C144 1.356 . S
N151 H154 0.984 . S
N151 H155 0.985 . S
H152 N147 0.984 . S
H153 N147 0.985 . S
H154 N151 0.984 . S
H155 N151 0.985 . S
H156 N150 0.984 . S
H157 N150 0.984 . S
H158 N146 0.984 . S
H159 N146 0.985 . S
C160 C161 1.363 1_655 S
C160 C166 1.379 . S
C160 N168 1.356 . S
C161 C160 1.363 1_455 S
C161 C167 1.363 . S
C162 C163 1.363 . S
C162 C167 1.379 . S
C162 N169 1.356 . S
C163 C162 1.363 . S
C163 C166 1.363 1_455 S
N164 C166 1.356 . S
N164 H176 0.984 . S
N164 H177 0.985 . S
N165 C167 1.356 . S
N165 H170 0.984 . S
N165 H171 0.985 . S
C166 C160 1.379 . S
C166 C163 1.363 1_655 S
C166 N164 1.356 . S
C167 C161 1.363 . S
C167 C162 1.379 . S
C167 N165 1.356 . S
N168 C160 1.356 . S
N168 H174 0.984 . S
N168 H175 0.984 . S
N169 C162 1.356 . S
N169 H172 0.984 . S
N169 H173 0.985 . S
H170 N165 0.984 . S
H171 N165 0.985 . S
H172 N169 0.984 . S
H173 N169 0.985 . S
H174 N168 0.984 . S
H175 N168 0.984 . S
H176 N164 0.984 . S
H177 N164 0.985 . S
C178 C179 1.363 . S
C178 C184 1.379 . S
C178 N186 1.356 . S
C179 C178 1.363 . S
C179 C185 1.363 1_545 S
C180 C181 1.363 1_565 S
C180 C185 1.379 . S
C180 N187 1.356 . S
C181 C180 1.363 1_545 S
C181 C184 1.363 . S
N182 C184 1.356 . S
N182 H194 0.984 . S
N182 H195 0.985 . S
N183 C185 1.356 . S
N183 H188 0.984 . S
N183 H189 0.985 . S
C184 C178 1.379 . S
C184 C181 1.363 . S
C184 N182 1.356 . S
C185 C179 1.363 1_565 S
C185 C180 1.379 . S
C185 N183 1.356 . S
N186 C178 1.356 . S
N186 H192 0.984 . S
N186 H193 0.984 . S
N187 C180 1.356 . S
N187 H190 0.984 . S
N187 H191 0.985 . S
H188 N183 0.984 . S
H189 N183 0.985 . S
H190 N187 0.984 . S
H191 N187 0.985 . S
H192 N186 0.984 . S
H193 N186 0.984 . S
H194 N182 0.984 . S
H195 N182 0.985 . S
C196 C197 1.363 . S
C196 C202 1.379 . S
C196 N204 1.356 1_455 S
C197 C196 1.363 . S
C197 C203 1.363 . S
C198 C199 1.363 . S
C198 C203 1.379 . S
C198 N205 1.356 . S
C199 C198 1.363 . S
C199 C202 1.363 . S
N200 C202 1.356 1_655 S
N200 H212 0.984 . S
N200 H213 0.985 1_655 S
N201 C203 1.356 . S
N201 H206 0.984 . S
N201 H207 0.985 . S
C202 C196 1.379 . S
C202 C199 1.363 . S
C202 N200 1.356 1_455 S
C203 C197 1.363 . S
C203 C198 1.379 . S
C203 N201 1.356 . S
N204 C196 1.356 1_655 S
N204 H210 0.984 . S
N204 H211 0.984 1_655 S
N205 C198 1.356 . S
N205 H208 0.984 . S
N205 H209 0.985 . S
H206 N201 0.984 . S
H207 N201 0.985 . S
H208 N205 0.984 . S
H209 N205 0.985 . S
H210 N204 0.984 . S
H211 N204 0.984 1_455 S
H212 N200 0.984 . S
H213 N200 0.985 1_455 S
C73 C47 1.267 . S
C71 C17 1.455 . S
C91 C67 1.507 . S
C89 C40 1.470 . S
C109 C46 1.488 . S
C107 C9 1.466 . S
C127 C68 1.539 . S
C125 C33 1.440 . S
C145 C60 1.479 . S
C143 C19 1.469 . S
C163 C53 1.517 . S
C161 C38 1.446 . S
C181 C61 1.266 . S
C179 C12 1.439 . S
C197 C30 1.474 . S
C199 C54 1.546 . S
