# Generated by pormake.
# Topology pts, (4,4)-cn, num edge types: 1
# Building blocks:
#     Node 0, Type 0, BuildingBlock: MIFKUJ_clean_linker_1, # of connection points: 4
#     Node 1, Type 0, BuildingBlock: MIFKUJ_clean_linker_1, # of connection points: 4
#     Node 2, Type 1, BuildingBlock: AZAVOO_clean_sbu_0, # of connection points: 4
#     Node 3, Type 1, BuildingBlock: AZAVOO_clean_sbu_0, # of connection points: 4
#     Edge 4, Type (0, 1), BuildingBlock: AJUNOK_clean_linker_0, # of connection points: 2
#     Edge 5, Type (0, 1), BuildingBlock: AJUNOK_clean_linker_0, # of connection points: 2
#     Edge 6, Type (0, 1), BuildingBlock: AJUNOK_clean_linker_0, # of connection points: 2
#     Edge 7, Type (0, 1), BuildingBlock: AJUNOK_clean_linker_0, # of connection points: 2
#     Edge 8, Type (0, 1), BuildingBlock: AJUNOK_clean_linker_0, # of connection points: 2
#     Edge 9, Type (0, 1), BuildingBlock: AJUNOK_clean_linker_0, # of connection points: 2
#     Edge 10, Type (0, 1), BuildingBlock: AJUNOK_clean_linker_0, # of connection points: 2
#     Edge 11, Type (0, 1), BuildingBlock: AJUNOK_clean_linker_0, # of connection points: 2
# Relax obj value: 0.003
# Max RMSD: 0.041
# Mean RMSD: 0.031
data_MOF--net-pts--node1-AZAVOO_clean_sbu_0--node2-MIFKUJ_clean_linker_1--edge1-AJUNOK_clean_linker_0
_symmetry_space_group_name_H-M    P1
_symmetry_Int_Tables_number       1
_symmetry_cell_setting            triclinic
loop_
_symmetry_equiv_pos_as_xyz
'x, y, z'
_cell_length_a     23.357738
_cell_length_b     24.642113
_cell_length_c     31.001322
_cell_angle_alpha  90.059219
_cell_angle_beta   96.750928
_cell_angle_gamma 89.390078
loop_
_atom_site_label
_atom_site_type_symbol
_atom_site_fract_x
_atom_site_fract_y
_atom_site_fract_z
_atom_type_partial_charge
H0 H 0.63168 0.92365 0.09598 0.0
H1 H 0.7227 0.91631 0.14423 0.0
H2 H 0.75636 0.08509 0.12177 0.0
H3 H 0.66581 0.09212 0.07267 0.0
H4 H 0.54051 0.00066 0.1106 0.0
H5 H 0.66615 0.95207 1.00332 0.0
H6 H 0.74561 0.95882 0.9589 0.0
H7 H 0.68458 0.11789 0.91556 0.0
H8 H 0.60493 0.11094 0.96007 0.0
H9 H 0.42813 0.09919 0.94947 0.0
H10 H 0.34028 0.09217 0.89833 0.0
H11 H 0.30416 0.93734 0.95356 0.0
H12 H 0.39216 0.94422 1.0046 0.0
H13 H 0.51917 0.03719 0.95232 0.0
H14 H 0.39252 0.08801 0.05512 0.0
H15 H 0.31566 0.08829 0.10261 0.0
H16 H 0.3785 0.93448 0.15658 0.0
H17 H 0.45516 0.93431 0.10927 0.0
C18 C 0.64216 0.00841 0.08084 0.0
C19 C 0.65911 0.95883 0.10093 0.0
C20 C 0.71105 0.95457 0.12819 0.0
C21 C 0.74619 0.00011 0.1364 0.0
C22 C 0.72986 0.04946 0.11563 0.0
C23 C 0.67835 0.05348 0.08774 0.0
C24 C 0.58508 0.01362 0.0547 0.0
C25 C 0.53556 0.00797 0.07585 0.0
C26 C 0.57916 0.0257 1.00986 0.0
C27 C 0.62985 0.03125 0.98544 0.0
C28 C 0.67058 -0.01105 0.98509 0.0
C29 C 0.71612 -0.00709 0.95976 0.0
C30 C 0.72174 0.0392 0.93417 0.0
C31 C 0.68136 0.0818 0.93501 0.0
C32 C 0.63587 0.07784 0.96038 0.0
C33 C 0.4169 0.02228 0.98095 0.0
C34 C 0.40103 0.06398 0.95093 0.0
C35 C 0.35096 0.0599 0.92168 0.0
C36 C 0.31596 0.01385 0.92166 0.0
C37 C 0.33032 0.97332 0.953 0.0
C38 C 0.38053 0.97734 0.98223 0.0
C39 C 0.47386 0.02329 1.00801 0.0
C40 C 0.52362 0.03028 0.98711 0.0
C41 C 0.47994 0.01338 0.0533 0.0
C42 C 0.42964 0.01104 0.07851 0.0
C43 C 0.38902 0.05378 0.07651 0.0
C44 C 0.34508 0.05393 0.10363 0.0
C45 C 0.34112 0.0114 0.13327 0.0
C46 C 0.38081 0.968 0.13429 0.0
C47 C 0.42458 0.96784 0.10724 0.0
H48 H 0.09997 0.40414 0.46208 0.0
H49 H 0.10311 0.31714 0.42399 0.0
H50 H 0.93376 0.2798 0.45806 0.0
H51 H 0.93157 0.36605 0.49695 0.0
H52 H 0.02249 0.49117 0.4518 0.0
H53 H 0.09562 0.36599 0.56313 0.0
H54 H 0.09612 0.27988 0.60211 0.0
H55 H 0.92653 0.31677 0.63757 0.0
H56 H 0.92687 0.40381 0.59911 0.0
H57 H 0.93345 0.57627 0.604 0.0
H58 H 0.9369 0.65662 0.65047 0.0
H59 H 0.10282 0.69723 0.61161 0.0
H60 H 0.09896 0.61678 0.5647 0.0
H61 H 0.00573 0.49075 0.60978 0.0
H62 H 0.95388 0.63502 0.50843 0.0
H63 H 0.96321 0.71715 0.46629 0.0
H64 H 0.10005 0.64069 0.40479 0.0
H65 H 0.09537 0.56151 0.45075 0.0
C66 C 0.01578 0.39117 0.48262 0.0
C67 C 0.06333 0.37735 0.4609 0.0
C68 C 0.0649 0.32789 0.43891 0.0
C69 C 0.01853 0.29183 0.43784 0.0
C70 C 0.97029 0.30662 0.45862 0.0
C71 C 0.96895 0.3558 0.48083 0.0
C72 C 0.01553 0.4421 0.50795 0.0
C73 C 0.01977 0.49155 0.48649 0.0
C74 C 0.01036 0.44194 0.55287 0.0
C75 C 0.01092 0.39081 0.57784 0.0
C76 C 0.05864 0.35561 0.57942 0.0
C77 C 0.05887 0.30654 0.60172 0.0
C78 C 0.01138 0.29168 0.62291 0.0
C79 C 0.96409 0.32757 0.62216 0.0
C80 C 0.96405 0.377 0.59997 0.0
C81 C 0.01569 0.59084 0.58063 0.0
C82 C 0.97066 0.6024 0.60557 0.0
C83 C 0.97294 0.64796 0.63243 0.0
C84 C 0.02061 0.68257 0.63521 0.0
C85 C 0.06565 0.67109 0.61012 0.0
C86 C 0.06335 0.62542 0.58318 0.0
C87 C 0.01382 0.54093 0.55387 0.0
C88 C 0.00862 0.49122 0.5751 0.0
C89 C 0.01948 0.54127 0.50877 0.0
C90 C 0.02452 0.59201 0.48351 0.0
C91 C 0.98695 0.63637 0.48676 0.0
C92 C 0.99127 0.68295 0.46163 0.0
C93 C 0.03164 0.68532 0.43135 0.0
C94 C 0.06871 0.64062 0.4279 0.0
C95 C 0.06565 0.59492 0.45397 0.0
Mg96 Mg 0.07692 0.97735 0.3085 0.0
O97 O 0.98938 0.97738 0.2652 0.0
O98 O 0.92265 0.96787 0.311 0.0
Mg99 Mg 0.96543 0.9513 0.37995 0.0
C100 C 0.93683 0.97552 0.27293 0.0
C101 C 0.17868 0.00278 0.26205 0.0
O102 O 0.19877 -0.01714 0.30023 0.0
O103 O 0.05598 0.06166 0.33459 0.0
O104 O 0.99554 0.03936 0.3825 0.0
O105 O 0.08874 0.88732 0.30263 0.0
O106 O 0.04369 0.92741 0.35289 0.0
C107 C 0.0255 0.07431 0.3649 0.0
C108 C 0.0601 0.88337 0.33571 0.0
O109 O 0.12452 0.01016 0.25386 0.0
Mg110 Mg 0.98088 0.9774 0.75881 0.0
O111 O 0.07191 -0.01791 0.79684 0.0
O112 O 0.13375 0.97059 0.74776 0.0
Mg113 Mg 0.0851 0.9542 0.68075 0.0
C114 C 0.12339 0.97974 0.78666 0.0
C115 C 0.88586 0.0249 0.80705 0.0
O116 O 0.86397 0.02523 0.766 0.0
O117 O 0.9921 0.06193 0.73015 0.0
O118 O 0.04997 0.04115 0.67978 0.0
O119 O 0.97829 0.88669 0.76646 0.0
O120 O 0.01107 0.92835 0.71182 0.0
C121 C 0.01922 0.07523 0.69827 0.0
C122 C 1.00112 0.88353 0.73045 0.0
O123 O 0.93816 0.01006 0.81629 0.0
C124 C 0.31721 0.00423 0.2094 0.0
C125 C 0.29843 0.01337 0.16524 0.0
C126 C 0.27823 0.00293 0.24035 0.0
C127 C 0.21858 0.01051 0.22857 0.0
H128 H 0.36258 -0.00236 0.22016 0.0
H129 H 0.2952 -0.00514 0.27379 0.0
S130 S 0.14738 0.03751 0.11701 0.0
N131 N 0.21654 0.03152 0.11113 0.0
N132 N 0.14285 0.02925 0.16937 0.0
C133 C 0.19927 0.02127 0.18458 0.0
C134 C 0.23925 0.02268 0.15294 0.0
C135 C 0.02593 0.19172 0.61967 0.0
C136 C 0.01044 0.23725 0.64315 0.0
C137 C 0.02798 0.13988 0.63786 0.0
C138 C 0.01432 0.13108 0.68035 0.0
H139 H 0.03658 0.19615 0.58676 0.0
H140 H 0.04034 0.10637 0.61817 0.0
S141 S 0.97075 0.23698 0.75556 0.0
N142 N 0.98108 0.27066 0.71113 0.0
N143 N 0.98405 0.17254 0.74537 0.0
C144 C 0.9976 0.17613 0.70404 0.0
C145 C 0.99582 0.22933 0.68544 0.0
C146 C 0.84438 0.96366 0.16402 0.0
C147 C 0.79675 -0.00282 0.16984 0.0
C148 C 0.89087 0.9581 0.19698 0.0
C149 C 0.89015 -0.01536 0.23712 0.0
H150 H 0.84542 0.94141 0.13396 0.0
H151 H 0.92661 0.93157 0.19158 0.0
S152 S 0.77597 0.07793 0.26773 0.0
N153 N 0.7525 0.05847 0.21784 0.0
N154 N 0.83876 0.04691 0.28017 0.0
C155 C 0.84299 0.01865 0.24297 0.0
C156 C 0.79652 0.0252 0.20921 0.0
C157 C 0.03275 0.78255 0.64389 0.0
C158 C 0.02155 0.73229 0.66227 0.0
C159 C 0.02821 0.83088 0.66699 0.0
C160 C 0.01244 0.83098 0.7095 0.0
H161 H 0.04285 0.78481 0.61071 0.0
H162 H 0.03507 0.86856 0.65053 0.0
S163 S 0.98502 0.70917 0.77401 0.0
N164 N 0.99888 0.6847 0.72668 0.0
N165 N 0.98991 0.77577 0.7702 0.0
C166 C 0.0036 0.7807 0.72899 0.0
C167 C 0.00821 0.73135 0.70535 0.0
C168 C 0.21175 -0.00634 0.8977 0.0
C169 C 0.267 0.00627 0.8871 0.0
C170 C 0.16544 -0.01443 0.86514 0.0
C171 C 0.17287 -0.01109 0.82073 0.0
H172 H 0.20421 -0.00959 0.93141 0.0
H173 H 0.12367 0.97607 0.87491 0.0
S174 S 0.3101 0.01958 0.77625 0.0
N175 N 0.32706 0.02073 0.82943 0.0
N176 N 0.24068 0.00577 0.76828 0.0
C177 C 0.22827 0.00127 0.80989 0.0
C178 C 0.2751 0.0099 0.84302 0.0
C179 C 0.00678 0.19166 0.44113 0.0
C180 C 0.02159 0.23727 0.41786 0.0
C181 C 0.00848 0.13956 0.42357 0.0
C182 C 0.02542 0.13058 0.38198 0.0
H183 H 0.99418 0.19615 0.47351 0.0
H184 H 0.99677 0.10596 0.44314 0.0
S185 S 0.06729 0.23668 0.30719 0.0
N186 N 0.05273 0.27058 0.35065 0.0
N187 N 0.05691 0.17206 0.31772 0.0
C188 C 0.04087 0.17579 0.35836 0.0
C189 C 0.03876 0.22921 0.37627 0.0
C190 C 0.75019 0.05397 0.85985 0.0
C191 C 0.76642 0.04097 0.90376 0.0
C192 C 0.78983 0.05077 0.82936 0.0
C193 C 0.84751 0.03455 0.84143 0.0
H194 H 0.70586 0.06473 0.84857 0.0
H195 H 0.77446 0.05966 0.79575 0.0
S196 S 0.91326 0.00197 0.95353 0.0
N197 N 0.84503 0.01565 0.95867 0.0
N198 N 0.91979 0.00933 0.90139 0.0
C199 C 0.86501 0.02389 0.88571 0.0
C200 C 0.82441 0.02701 0.9168 0.0
C201 C 0.09203 0.75304 0.39734 0.0
C202 C 0.03689 0.73464 0.40434 0.0
C203 C 0.09881 0.79991 0.37308 0.0
C204 C 0.05088 0.83078 0.35572 0.0
H205 H 0.13053 0.73193 0.41166 0.0
H206 H 0.14202 0.81331 0.3694 0.0
S207 S 0.89737 0.7989 0.36068 0.0
N208 N 0.93317 0.74925 0.38804 0.0
N209 N 0.94674 0.83932 0.34469 0.0
C210 C 0.99562 0.81291 0.36158 0.0
C211 C 0.98842 0.76437 0.38539 0.0
loop_
_geom_bond_atom_site_label_1
_geom_bond_atom_site_label_2
_geom_bond_distance
_geom_bond_site_symmetry_2
_ccdc_geom_bond_type
H0 C19 0.949 . S
H1 C20 0.950 . S
H2 C22 0.950 . S
H3 C23 0.950 . S
H4 C25 0.950 . S
H5 C28 0.950 . S
H6 C29 0.950 . S
H7 C31 0.951 . S
H8 C32 0.949 . S
H9 C34 0.949 . S
H10 C35 0.950 . S
H11 C37 0.950 . S
H12 C38 0.950 . S
H13 C40 0.950 . S
H14 C43 0.950 . S
H15 C44 0.950 . S
H16 C46 0.951 . S
H17 C47 0.949 . S
C18 C19 1.376 1_545 S
C18 C23 1.386 . S
C18 C24 1.483 . S
C19 H0 0.949 . S
C19 C18 1.376 1_565 S
C19 C20 1.397 . S
C20 H1 0.950 . S
C20 C19 1.397 . S
C20 C21 1.391 1_565 S
C21 C20 1.391 1_545 S
C21 C22 1.405 . S
C22 H2 0.950 . S
C22 C21 1.405 . S
C22 C23 1.367 . S
C23 H3 0.950 . S
C23 C18 1.386 . S
C23 C22 1.367 . S
C24 C18 1.483 . S
C24 C25 1.382 1_545 S
C24 C26 1.403 1_554 S
C25 H4 0.950 . S
C25 C24 1.382 1_565 S
C25 C41 1.411 1_565 S
C26 C24 1.403 1_556 S
C26 C27 1.489 . S
C26 C40 1.411 . S
C27 C26 1.489 . S
C27 C28 1.383 1_545 S
C27 C32 1.382 . S
C28 H5 0.950 . S
C28 C27 1.383 1_565 S
C28 C29 1.395 . S
C29 H6 0.950 . S
C29 C28 1.395 . S
C29 C30 1.288 1_565 S
C30 C29 1.288 1_545 S
C30 C31 1.392 . S
C31 H7 0.951 . S
C31 C30 1.392 . S
C31 C32 1.392 . S
C32 H8 0.949 . S
C32 C27 1.382 . S
C32 C31 1.392 . S
C33 C34 1.376 . S
C33 C38 1.386 1_545 S
C33 C39 1.483 . S
C34 H9 0.949 . S
C34 C33 1.376 . S
C34 C35 1.397 . S
C35 H10 0.950 . S
C35 C34 1.397 . S
C35 C36 1.391 . S
C36 C35 1.391 . S
C36 C37 1.405 1_545 S
C37 H11 0.950 . S
C37 C36 1.405 1_565 S
C37 C38 1.367 . S
C38 H12 0.950 . S
C38 C33 1.386 1_565 S
C38 C37 1.367 . S
C39 C33 1.483 . S
C39 C40 1.382 . S
C39 C41 1.403 1_556 S
C40 H13 0.950 . S
C40 C26 1.411 . S
C40 C39 1.382 . S
C41 C25 1.411 1_545 S
C41 C39 1.403 1_554 S
C41 C42 1.489 1_545 S
C42 C41 1.489 1_565 S
C42 C43 1.382 1_565 S
C42 C47 1.382 . S
C43 H14 0.950 . S
C43 C42 1.382 1_545 S
C43 C44 1.395 . S
C44 H15 0.950 . S
C44 C43 1.395 . S
C44 C45 1.288 . S
C45 C44 1.288 . S
C45 C46 1.392 1_545 S
C46 H16 0.951 . S
C46 C45 1.392 1_565 S
C46 C47 1.392 . S
C47 H17 0.949 . S
C47 C42 1.382 . S
C47 C46 1.392 . S
H48 C67 0.949 . S
H49 C68 0.950 . S
H50 C70 0.950 . S
H51 C71 0.950 . S
H52 C73 0.950 . S
H53 C76 0.950 . S
H54 C77 0.950 . S
H55 C79 0.951 . S
H56 C80 0.949 . S
H57 C82 0.949 . S
H58 C83 0.950 . S
H59 C85 0.950 . S
H60 C86 0.950 . S
H61 C88 0.950 . S
H62 C91 0.950 . S
H63 C92 0.950 . S
H64 C94 0.951 . S
H65 C95 0.949 . S
C66 C67 1.376 . S
C66 C71 1.386 1_455 S
C66 C72 1.483 . S
C67 H48 0.949 . S
C67 C66 1.376 . S
C67 C68 1.397 . S
C68 H49 0.950 . S
C68 C67 1.397 . S
C68 C69 1.391 . S
C69 C68 1.391 . S
C69 C70 1.405 1_455 S
C70 H50 0.950 . S
C70 C69 1.405 1_655 S
C70 C71 1.367 . S
C71 H51 0.950 . S
C71 C66 1.386 1_655 S
C71 C70 1.367 . S
C72 C66 1.483 . S
C72 C73 1.382 . S
C72 C74 1.403 . S
C73 H52 0.950 . S
C73 C72 1.382 . S
C73 C89 1.411 . S
C74 C72 1.403 . S
C74 C75 1.489 . S
C74 C88 1.411 . S
C75 C74 1.489 . S
C75 C76 1.383 . S
C75 C80 1.382 1_455 S
C76 H53 0.950 . S
C76 C75 1.383 . S
C76 C77 1.395 . S
C77 H54 0.950 . S
C77 C76 1.395 . S
C77 C78 1.288 . S
C78 C77 1.288 . S
C78 C79 1.392 1_455 S
C79 H55 0.951 . S
C79 C78 1.392 1_655 S
C79 C80 1.392 . S
C80 H56 0.949 . S
C80 C75 1.382 1_655 S
C80 C79 1.392 . S
C81 C82 1.376 1_455 S
C81 C86 1.386 . S
C81 C87 1.483 . S
C82 H57 0.949 . S
C82 C81 1.376 1_655 S
C82 C83 1.397 . S
C83 H58 0.950 . S
C83 C82 1.397 . S
C83 C84 1.391 1_655 S
C84 C83 1.391 1_455 S
C84 C85 1.405 . S
C85 H59 0.950 . S
C85 C84 1.405 . S
C85 C86 1.367 . S
C86 H60 0.950 . S
C86 C81 1.386 . S
C86 C85 1.367 . S
C87 C81 1.483 . S
C87 C88 1.382 . S
C87 C89 1.403 . S
C88 H61 0.950 . S
C88 C74 1.411 . S
C88 C87 1.382 . S
C89 C73 1.411 . S
C89 C87 1.403 . S
C89 C90 1.489 . S
C90 C89 1.489 . S
C90 C91 1.383 1_455 S
C90 C95 1.382 . S
C91 H62 0.950 . S
C91 C90 1.383 1_655 S
C91 C92 1.395 . S
C92 H63 0.950 . S
C92 C91 1.395 . S
C92 C93 1.288 1_655 S
C93 C92 1.288 1_455 S
C93 C94 1.392 . S
C94 H64 0.951 . S
C94 C93 1.392 . S
C94 C95 1.392 . S
C95 H65 0.949 . S
C95 C90 1.382 . S
C95 C94 1.392 . S
Mg96 O97 2.028 . S
Mg96 O103 1.986 . S
Mg96 O105 2.114 1_545 S
Mg96 O106 2.251 1_545 S
Mg96 O109 2.010 . S
O97 Mg96 2.028 . S
O97 C100 1.250 1_455 S
O98 Mg99 2.028 . S
O98 C100 1.248 . S
Mg99 O98 2.028 . S
Mg99 O104 2.032 . S
Mg99 O106 2.079 1_645 S
C100 O97 1.250 1_655 S
C100 O98 1.248 . S
C101 O102 1.264 . S
C101 O109 1.249 . S
O102 C101 1.264 . S
O103 Mg96 1.986 . S
O103 C107 1.246 . S
O104 Mg99 2.032 . S
O104 C107 1.259 1_655 S
O105 Mg96 2.114 1_565 S
O105 C108 1.252 . S
O106 Mg96 2.251 1_565 S
O106 Mg99 2.079 1_465 S
O106 C108 1.273 . S
C107 O103 1.246 . S
C107 O104 1.259 1_455 S
C108 O105 1.252 . S
C108 O106 1.273 . S
O109 Mg96 2.010 . S
O109 C101 1.249 . S
Mg110 O111 2.028 1_655 S
Mg110 O117 1.986 . S
Mg110 O119 2.114 1_545 S
Mg110 O120 2.251 1_645 S
Mg110 O123 2.010 . S
O111 Mg110 2.028 1_455 S
O111 C114 1.250 . S
O112 Mg113 2.028 . S
O112 C114 1.248 . S
Mg113 O112 2.028 . S
Mg113 O118 2.032 . S
Mg113 O120 2.079 1_545 S
C114 O111 1.250 . S
C114 O112 1.248 . S
C115 O116 1.264 . S
C115 O123 1.249 . S
O116 C115 1.264 . S
O117 Mg110 1.986 . S
O117 C121 1.246 1_655 S
O118 Mg113 2.032 . S
O118 C121 1.259 . S
O119 Mg110 2.114 1_565 S
O119 C122 1.252 1_655 S
O120 Mg110 2.251 1_465 S
O120 Mg113 2.079 1_565 S
O120 C122 1.273 . S
C121 O117 1.246 1_455 S
C121 O118 1.259 . S
C122 O119 1.252 1_455 S
C122 O120 1.273 . S
O123 Mg110 2.010 . S
O123 C115 1.249 . S
C124 C125 1.369 1_565 S
C124 C126 1.419 . S
C124 H128 0.930 . S
C125 C124 1.369 1_545 S
C125 C134 1.429 . S
C126 C124 1.419 . S
C126 C127 1.363 1_565 S
C126 H129 0.929 . S
C127 C126 1.363 1_545 S
C127 C133 1.428 . S
H128 C124 0.930 . S
H129 C126 0.929 . S
S130 N131 1.613 . S
S130 N132 1.610 . S
N131 S130 1.613 . S
N131 C134 1.350 . S
N132 S130 1.610 . S
N132 C133 1.351 . S
C133 C127 1.428 . S
C133 N132 1.351 . S
C133 C134 1.434 . S
C134 C125 1.429 . S
C134 N131 1.350 . S
C134 C133 1.434 . S
C135 C136 1.369 . S
C135 C137 1.419 . S
C135 H139 0.930 . S
C136 C135 1.369 . S
C136 C145 1.429 1_455 S
C137 C135 1.419 . S
C137 C138 1.363 . S
C137 H140 0.929 . S
C138 C137 1.363 . S
C138 C144 1.428 1_455 S
H139 C135 0.930 . S
H140 C137 0.929 . S
S141 N142 1.613 . S
S141 N143 1.610 . S
N142 S141 1.613 . S
N142 C145 1.350 . S
N143 S141 1.610 . S
N143 C144 1.351 . S
C144 C138 1.428 1_655 S
C144 N143 1.351 . S
C144 C145 1.434 . S
C145 C136 1.429 1_655 S
C145 N142 1.350 . S
C145 C144 1.434 . S
C146 C147 1.369 1_565 S
C146 C148 1.419 . S
C146 H150 0.930 . S
C147 C146 1.369 1_545 S
C147 C156 1.429 . S
C148 C146 1.419 . S
C148 C149 1.363 1_565 S
C148 H151 0.929 . S
C149 C148 1.363 1_545 S
C149 C155 1.428 . S
H150 C146 0.930 . S
H151 C148 0.929 . S
S152 N153 1.613 . S
S152 N154 1.610 . S
N153 S152 1.613 . S
N153 C156 1.350 . S
N154 S152 1.610 . S
N154 C155 1.351 . S
C155 C149 1.428 . S
C155 N154 1.351 . S
C155 C156 1.434 . S
C156 C147 1.429 . S
C156 N153 1.350 . S
C156 C155 1.434 . S
C157 C158 1.369 1_655 S
C157 C159 1.419 . S
C157 H161 0.930 . S
C158 C157 1.369 1_455 S
C158 C167 1.429 . S
C159 C157 1.419 . S
C159 C160 1.363 1_655 S
C159 H162 0.929 . S
C160 C159 1.363 1_455 S
C160 C166 1.428 . S
H161 C157 0.930 . S
H162 C159 0.929 . S
S163 N164 1.613 . S
S163 N165 1.610 . S
N164 S163 1.613 . S
N164 C167 1.350 . S
N165 S163 1.610 . S
N165 C166 1.351 . S
C166 C160 1.428 . S
C166 N165 1.351 . S
C166 C167 1.434 . S
C167 C158 1.429 . S
C167 N164 1.350 . S
C167 C166 1.434 . S
C168 C169 1.369 . S
C168 C170 1.419 . S
C168 H172 0.930 1_545 S
C169 C168 1.369 . S
C169 C178 1.429 . S
C170 C168 1.419 . S
C170 C171 1.363 . S
C170 H173 0.929 . S
C171 C170 1.363 . S
C171 C177 1.428 . S
H172 C168 0.930 1_565 S
H173 C170 0.929 . S
S174 N175 1.613 . S
S174 N176 1.610 . S
N175 S174 1.613 . S
N175 C178 1.350 . S
N176 S174 1.610 . S
N176 C177 1.351 . S
C177 C171 1.428 . S
C177 N176 1.351 . S
C177 C178 1.434 . S
C178 C169 1.429 . S
C178 N175 1.350 . S
C178 C177 1.434 . S
C179 C180 1.369 . S
C179 C181 1.419 . S
C179 H183 0.930 . S
C180 C179 1.369 . S
C180 C189 1.429 . S
C181 C179 1.419 . S
C181 C182 1.363 . S
C181 H184 0.929 . S
C182 C181 1.363 . S
C182 C188 1.428 . S
H183 C179 0.930 . S
H184 C181 0.929 . S
S185 N186 1.614 . S
S185 N187 1.610 1_655 S
N186 S185 1.614 . S
N186 C189 1.347 1_655 S
N187 S185 1.610 1_455 S
N187 C188 1.351 . S
C188 C182 1.428 . S
C188 N187 1.351 . S
C188 C189 1.434 . S
C189 C180 1.429 . S
C189 N186 1.347 1_455 S
C189 C188 1.434 . S
C190 C191 1.369 . S
C190 C192 1.419 . S
C190 H194 0.930 . S
C191 C190 1.369 . S
C191 C200 1.430 . S
C192 C190 1.419 . S
C192 C193 1.363 . S
C192 H195 0.929 . S
C193 C192 1.363 . S
C193 C199 1.428 . S
H194 C190 0.930 . S
H195 C192 0.929 . S
S196 N197 1.613 . S
S196 N198 1.610 . S
N197 S196 1.613 . S
N197 C200 1.348 1_565 S
N198 S196 1.610 . S
N198 C199 1.351 1_565 S
C199 C193 1.428 . S
C199 N198 1.351 1_545 S
C199 C200 1.435 . S
C200 C191 1.430 . S
C200 N197 1.348 1_545 S
C200 C199 1.435 . S
C201 C202 1.369 . S
C201 C203 1.419 . S
C201 H205 0.930 . S
C202 C201 1.369 . S
C202 C211 1.429 1_455 S
C203 C201 1.419 . S
C203 C204 1.363 . S
C203 H206 0.929 . S
C204 C203 1.363 . S
C204 C210 1.428 1_455 S
H205 C201 0.930 . S
H206 C203 0.929 . S
S207 N208 1.613 . S
S207 N209 1.610 . S
N208 S207 1.613 . S
N208 C211 1.350 . S
N209 S207 1.610 . S
N209 C210 1.351 . S
C210 C204 1.428 1_655 S
C210 N209 1.351 . S
C210 C211 1.434 . S
C211 C202 1.429 1_655 S
C211 N208 1.350 . S
C211 C210 1.434 . S
C127 C101 1.276 . S
C125 C45 1.522 . S
C138 C121 1.488 . S
C136 C78 1.507 . S
C149 C100 1.477 . S
C147 C21 1.518 . S
C160 C122 1.521 . S
C158 C84 1.521 . S
C171 C114 1.472 . S
C169 C36 1.516 . S
C182 C107 1.487 . S
C180 C69 1.512 . S
C193 C115 1.277 . S
C191 C30 1.514 . S
C202 C93 1.517 . S
C204 C108 1.521 . S
