# Generated by pormake.
# Topology rtl, (3,6)-cn, num edge types: 1
# Building blocks:
#     Node 0, Type 0, BuildingBlock: BETDAH_clean_linker_0, # of connection points: 3
#     Node 1, Type 0, BuildingBlock: BETDAH_clean_linker_0, # of connection points: 3
#     Node 2, Type 0, BuildingBlock: BETDAH_clean_linker_0, # of connection points: 3
#     Node 3, Type 0, BuildingBlock: BETDAH_clean_linker_0, # of connection points: 3
#     Node 4, Type 1, BuildingBlock: KUMBUR_clean_sbu_1, # of connection points: 6
#     Node 5, Type 1, BuildingBlock: KUMBUR_clean_sbu_1, # of connection points: 6
#     Edge 6, Type (0, 1), None
#     Edge 7, Type (0, 1), None
#     Edge 8, Type (0, 1), None
#     Edge 9, Type (0, 1), None
#     Edge 10, Type (0, 1), None
#     Edge 11, Type (0, 1), None
#     Edge 12, Type (0, 1), None
#     Edge 13, Type (0, 1), None
#     Edge 14, Type (0, 1), None
#     Edge 15, Type (0, 1), None
#     Edge 16, Type (0, 1), None
#     Edge 17, Type (0, 1), None
# Relax obj value: 0.055
# Max RMSD: 0.288
# Mean RMSD: 0.198
data_MOF--net-rtl--node1-KUMBUR_clean_sbu_1--node2-BETDAH_clean_linker_0--edge1-none
_symmetry_space_group_name_H-M    P1
_symmetry_Int_Tables_number       1
_symmetry_cell_setting            triclinic
loop_
_symmetry_equiv_pos_as_xyz
'x, y, z'
_cell_length_a     16.210314
_cell_length_b     16.835141
_cell_length_c     13.808457
_cell_angle_alpha  67.374133
_cell_angle_beta   100.23304
_cell_angle_gamma 93.775403
loop_
_atom_site_label
_atom_site_type_symbol
_atom_site_fract_x
_atom_site_fract_y
_atom_site_fract_z
_atom_type_partial_charge
H0 H 0.04877 0.91995 0.96833 0.0
H1 H 0.27798 0.78029 0.14412 0.0
H2 H 0.23922 0.88792 0.80529 0.0
C3 C 0.10885 0.89408 0.97058 0.0
C4 C 0.1361 0.90505 0.87348 0.0
C5 C 0.15893 0.84714 0.07048 0.0
C6 C 0.23687 0.81379 0.06988 0.0
C7 C 0.26438 0.8268 0.97416 0.0
C8 C 0.21453 0.87317 0.87784 0.0
N9 N 0.34745 0.80685 0.97202 0.0
C10 C 0.38088 0.72431 0.01003 0.0
H11 H 0.6044 0.54955 0.79723 0.0
H12 H 0.76639 0.74714 0.62779 0.0
H13 H 0.65596 0.77207 0.87597 0.0
C14 C 0.63723 0.60976 0.78661 0.0
C15 C 0.62801 0.65359 0.85183 0.0
C16 C 0.68686 0.6419 0.70649 0.0
C17 C 0.72816 0.72152 0.68975 0.0
C18 C 0.71817 0.76792 0.7532 0.0
C19 C 0.66631 0.73436 0.8315 0.0
N20 N 0.75662 0.84914 0.74081 0.0
C21 C 0.82108 0.88865 0.68383 0.0
H22 H 0.98242 0.08929 0.27036 0.0
H23 H 0.80542 0.25244 0.30244 0.0
H24 H 0.861 0.29306 0.99399 0.0
C25 C 0.93904 0.14254 0.23426 0.0
C26 C 0.92868 0.18863 0.12539 0.0
C27 C 0.89709 0.16584 0.29854 0.0
C28 C 0.8387 0.23441 0.2528 0.0
C29 C 0.82361 0.27847 0.14135 0.0
C30 C 0.87019 0.25632 0.07902 0.0
N31 N 0.76403 0.34599 0.08662 0.0
C32 C 0.70726 0.37864 0.12679 0.0
H33 H 0.46876 0.4903 0.41356 0.0
H34 H 0.28648 0.31409 0.57843 0.0
H35 H 0.39823 0.26731 0.34571 0.0
C36 C 0.43114 0.43279 0.42764 0.0
C37 C 0.4352 0.38525 0.36554 0.0
C38 C 0.37741 0.40908 0.50427 0.0
C39 C 0.3283 0.33338 0.52037 0.0
C40 C 0.33544 0.28198 0.46192 0.0
C41 C 0.39042 0.30799 0.3872 0.0
N42 N 0.29346 0.20152 0.47836 0.0
C43 C 0.21636 0.17431 0.5125 0.0
Tb44 Tb 0.04217 0.95784 0.51818 0.0
C45 C 0.92804 0.31411 0.50496 0.0
N46 N 1.00043 0.26839 0.55013 0.0
C47 C 0.08045 0.39898 0.50217 0.0
C48 C 0.92933 0.40466 0.45864 0.0
C49 C 0.07625 0.30934 0.54976 0.0
C50 C 1.00665 0.44696 0.45697 0.0
C51 C 0.77638 0.31526 0.45884 0.0
C52 C 0.85217 0.26968 0.50563 0.0
C53 C 0.7778 0.4053 0.41512 0.0
C54 C 0.8536 0.45004 0.41608 0.0
Tb55 Tb 0.98089 0.1253 0.63982 0.0
N56 N 0.85311 0.18201 0.54979 0.0
C57 C 0.7015 0.26904 0.45715 0.0
C58 C 0.78015 0.13652 0.55062 0.0
C59 C 0.70351 0.17927 0.50285 0.0
H60 H 0.13329 0.27387 0.59109 0.0
H61 H 0.64583 0.143 0.50299 0.0
H62 H 0.90694 0.79481 0.57135 0.0
H63 H 0.38113 0.96332 0.59112 0.0
H64 H 0.77985 0.06768 0.58911 0.0
H65 H 0.64191 0.30192 0.42135 0.0
H66 H 0.24046 0.02287 0.50597 0.0
H67 H 0.1405 0.43114 0.50292 0.0
H68 H 0.72065 0.44105 0.37787 0.0
H69 H 0.85304 0.51975 0.38175 0.0
H70 H 0.9111 0.63946 0.67926 0.0
H71 H 1.01 0.51655 0.42166 0.0
H72 H 0.39767 0.81063 0.71378 0.0
N73 N 0.03794 0.8129 0.61219 0.0
C74 C 0.11301 0.77404 0.66179 0.0
C75 C 0.9683 0.67673 0.676 0.0
C76 C 0.11846 0.68511 0.72326 0.0
C77 C 0.96609 0.7653 0.61603 0.0
C78 C 0.04475 0.63652 0.73078 0.0
N79 N 0.17648 0.90953 0.58957 0.0
C80 C 0.246 0.95839 0.56448 0.0
C81 C 0.26406 0.78606 0.6971 0.0
C82 C 0.18472 0.8239 0.6492 0.0
C83 C 0.33545 0.83745 0.6784 0.0
C84 C 0.32633 0.92377 0.61012 0.0
H85 H 0.04636 0.56789 0.77711 0.0
H86 H 0.20232 0.57962 0.82285 0.0
H87 H 0.32985 0.66995 0.80152 0.0
O88 O 0.09906 0.97974 0.38203 0.0
O89 O 0.07226 0.91717 0.69565 0.0
O90 O 0.08321 0.03841 0.73852 0.0
O91 O 0.99228 0.89929 0.4102 0.0
O92 O 0.1014 0.0873 0.47699 0.0
O93 O 0.11271 0.12177 0.62562 0.0
O94 O 0.9192 0.10055 0.77038 0.0
O95 O 0.95833 0.16475 0.46794 0.0
O96 O 0.92785 0.03642 0.45056 0.0
O97 O 1.00494 0.20672 0.72269 0.0
O98 O 0.91611 0.99977 0.6866 0.0
O99 O 0.91497 0.94206 0.5576 0.0
C100 C 0.08822 0.95483 0.76593 0.0
C101 C 0.08452 0.86612 0.31442 0.0
C102 C 0.13139 0.82649 0.1769 0.0
C103 C 0.14273 0.74156 0.25236 0.0
C104 C 0.09846 0.78078 0.3864 0.0
C105 C 0.12661 0.71925 0.35541 0.0
C106 C 0.10017 0.88856 0.20841 0.0
C107 C 0.13928 0.12719 0.53877 0.0
C108 C 0.04846 0.92885 0.34894 0.0
C109 C 0.19713 0.64769 0.77436 0.0
C110 C 0.26956 0.69843 0.76178 0.0
C111 C 0.92234 0.12049 0.41299 0.0
C112 C 0.99326 0.14805 0.90003 0.0
C113 C 0.98 0.16541 0.06189 0.0
C114 C 0.064 0.13851 0.10245 0.0
C115 C 0.07721 0.12263 0.93986 0.0
C116 C 0.94497 0.16877 0.9607 0.0
C117 C 0.1126 0.11853 0.04109 0.0
C118 C 0.89039 0.94288 0.64339 0.0
C119 C 0.95706 0.16432 0.7909 0.0
H120 H 0.16484 0.6917 0.23173 0.0
H121 H 0.08594 0.76078 0.46655 0.0
H122 H 0.13612 0.65352 0.41192 0.0
H123 H 0.08893 0.95351 0.15163 0.0
H124 H 0.09216 0.13233 0.18164 0.0
H125 H 0.11546 0.10778 0.89217 0.0
H126 H 0.88014 0.18819 0.92825 0.0
H127 H 0.17732 0.09889 0.07263 0.0
Tb128 Tb 0.43958 0.46505 0.01759 0.0
C129 C 0.74396 0.6962 0.08963 0.0
N130 N 0.72646 0.61088 0.13668 0.0
C131 C 0.86557 0.57572 0.12713 0.0
C132 C 0.82216 0.72412 0.05688 0.0
C133 C 0.78764 0.55124 0.15926 0.0
C134 C 0.88266 0.66248 0.07463 0.0
C135 C 0.70042 0.84514 0.03116 0.0
C136 C 0.68388 0.75628 0.07648 0.0
C137 C 0.77754 0.87291 0.9967 0.0
C138 C 0.83817 0.81258 0.00938 0.0
Tb139 Tb 0.59587 0.58264 0.18629 0.0
N140 N 0.60896 0.72749 0.1078 0.0
C141 C 0.63915 0.90333 0.02282 0.0
C142 C 0.55206 0.78358 0.10792 0.0
C143 C 0.56511 0.87231 0.06288 0.0
H144 H 0.77943 0.48484 0.20589 0.0
H145 H 0.51886 0.91662 0.06107 0.0
H146 H 0.26668 0.56038 0.01634 0.0
H147 H 0.53667 0.13091 0.17775 0.0
H148 H 0.49768 0.76005 0.14559 0.0
H149 H 0.64942 0.97211 0.98852 0.0
H150 H 0.55276 0.2857 0.08096 0.0
H151 H 0.91312 0.52756 0.14517 0.0
H152 H 0.79124 0.94091 0.96105 0.0
H153 H 0.89774 0.83502 0.98342 0.0
H154 H 0.13468 0.5162 0.08747 0.0
H155 H 0.94352 0.6813 0.05094 0.0
H156 H 0.40766 0.07464 0.25344 0.0
N157 N 0.3165 0.43318 0.08067 0.0
C158 C 0.30157 0.348 0.13068 0.0
C159 C 0.18151 0.46838 0.10128 0.0
C160 C 0.22748 0.32004 0.17353 0.0
C161 C 0.25674 0.49329 0.06182 0.0
C162 C 0.16722 0.38144 0.15862 0.0
N163 N 0.43668 0.31958 0.10815 0.0
C164 C 0.49759 0.26352 0.11714 0.0
C165 C 0.35108 0.20059 0.19885 0.0
C166 C 0.36348 0.28938 0.14446 0.0
C167 C 0.41463 0.1433 0.21177 0.0
C168 C 0.4879 0.1749 0.17009 0.0
H169 H 0.10923 0.36232 0.19012 0.0
H170 H 0.16197 0.21026 0.26952 0.0
H171 H 0.26757 0.10465 0.28683 0.0
O172 O 0.42155 0.39855 0.91246 0.0
O173 O 0.42222 0.45179 0.17734 0.0
O174 O 0.55184 0.45252 0.27604 0.0
O175 O 0.35127 0.5117 0.87892 0.0
O176 O 0.57313 0.43408 0.04905 0.0
O177 O 0.63621 0.45366 0.20393 0.0
O178 O 0.55783 0.61411 0.30561 0.0
O179 O 0.5768 0.64617 0.01088 0.0
O180 O 0.5477 0.53517 0.95098 0.0
O181 O 0.68806 0.59883 0.30461 0.0
O182 O 0.46017 0.6092 0.146 0.0
O183 O 0.41416 0.60039 0.98245 0.0
C184 C 0.47419 0.42395 0.26799 0.0
C185 C 0.38005 0.48784 0.73064 0.0
C186 C 0.37442 0.46614 0.56405 0.0
C187 C 0.38365 0.55583 0.51184 0.0
C188 C 0.39734 0.57539 0.67779 0.0
C189 C 0.39694 0.60935 0.56871 0.0
C190 C 0.37 0.43286 0.67375 0.0
C191 C 0.63313 0.41906 0.13202 0.0
C192 C 0.36811 0.45487 0.84304 0.0
C193 C 0.21667 0.23222 0.23151 0.0
C194 C 0.27738 0.17238 0.24243 0.0
C195 C 0.5801 0.61123 0.94125 0.0
C196 C 0.6507 0.57552 0.4697 0.0
C197 C 0.68977 0.59056 0.64048 0.0
C198 C 0.69712 0.50025 0.6904 0.0
C199 C 0.65038 0.48583 0.52207 0.0
C200 C 0.66942 0.62796 0.52911 0.0
C201 C 0.67623 0.44841 0.63165 0.0
C202 C 0.41564 0.63878 0.04978 0.0
C203 C 0.63431 0.61585 0.35336 0.0
H204 H 0.38298 0.58485 0.4268 0.0
H205 H 0.40997 0.61817 0.72022 0.0
H206 H 0.40741 0.67746 0.52803 0.0
H207 H 0.36073 0.36457 0.71534 0.0
H208 H 0.71412 0.46954 0.77605 0.0
H209 H 0.63035 0.44472 0.47856 0.0
H210 H 0.66435 0.69734 0.48915 0.0
H211 H 0.67805 0.37905 0.67157 0.0
loop_
_geom_bond_atom_site_label_1
_geom_bond_atom_site_label_2
_geom_bond_distance
_geom_bond_site_symmetry_2
_ccdc_geom_bond_type
H0 C3 0.921 1_545 S
H1 C6 0.929 . S
H2 C8 0.930 . S
C3 H0 0.921 1_565 S
C3 C4 1.398 . S
C3 C5 1.396 1_556 S
C4 C3 1.398 . S
C4 C8 1.407 . S
C5 C3 1.396 1_554 S
C5 C6 1.394 . S
C6 H1 0.929 . S
C6 C5 1.394 . S
C6 C7 1.382 . S
C7 C6 1.382 . S
C7 C8 1.392 1_554 S
C7 N9 1.420 . S
C8 H2 0.930 . S
C8 C4 1.407 . S
C8 C7 1.392 1_556 S
N9 C7 1.420 . S
N9 C10 1.244 . S
C10 N9 1.244 . S
H11 C14 0.929 . S
H12 C17 0.929 . S
H13 C19 0.930 . S
C14 H11 0.929 . S
C14 C15 1.398 . S
C14 C16 1.396 . S
C15 C14 1.398 . S
C15 C19 1.407 . S
C16 C14 1.396 . S
C16 C17 1.394 . S
C17 H12 0.929 . S
C17 C16 1.394 . S
C17 C18 1.382 . S
C18 C17 1.382 . S
C18 C19 1.392 . S
C18 N20 1.420 . S
C19 H13 0.930 . S
C19 C15 1.407 . S
C19 C18 1.392 . S
N20 C18 1.420 . S
N20 C21 1.244 . S
C21 N20 1.244 . S
H22 C25 0.929 . S
H23 C28 0.929 . S
H24 C30 0.922 1_556 S
C25 H22 0.929 . S
C25 C26 1.398 . S
C25 C27 1.396 . S
C26 C25 1.398 . S
C26 C30 1.407 . S
C27 C25 1.396 . S
C27 C28 1.394 . S
C28 H23 0.929 . S
C28 C27 1.394 . S
C28 C29 1.382 . S
C29 C28 1.382 . S
C29 C30 1.392 . S
C29 N31 1.420 . S
C30 H24 0.922 1_554 S
C30 C26 1.407 . S
C30 C29 1.392 . S
N31 C29 1.420 . S
N31 C32 1.244 . S
C32 N31 1.244 . S
H33 C36 0.929 . S
H34 C39 0.929 . S
H35 C41 0.930 . S
C36 H33 0.929 . S
C36 C37 1.398 . S
C36 C38 1.396 . S
C37 C36 1.398 . S
C37 C41 1.407 . S
C38 C36 1.396 . S
C38 C39 1.394 . S
C39 H34 0.929 . S
C39 C38 1.394 . S
C39 C40 1.382 . S
C40 C39 1.382 . S
C40 C41 1.392 . S
C40 N42 1.420 . S
C41 H35 0.930 . S
C41 C37 1.407 . S
C41 C40 1.392 . S
N42 C40 1.420 . S
N42 C43 1.244 . S
C43 N42 1.244 . S
Tb44 N73 2.617 . S
Tb44 N79 2.572 . S
Tb44 O88 2.465 . S
Tb44 O89 2.387 . S
Tb44 O91 2.428 . S
Tb44 O92 2.308 1_565 S
Tb44 O96 2.349 1_465 S
Tb44 O99 2.393 1_455 S
Tb44 C108 2.802 . S
C45 N46 1.379 . S
C45 C48 1.416 . S
C45 C52 1.424 . S
N46 C45 1.379 . S
N46 C49 1.334 1_655 S
N46 Tb55 2.617 . S
C47 C49 1.390 . S
C47 C50 1.339 1_455 S
C47 H67 0.930 . S
C48 C45 1.416 . S
C48 C50 1.416 . S
C48 C54 1.448 . S
C49 N46 1.334 1_455 S
C49 C47 1.390 . S
C49 H60 0.930 . S
C50 C47 1.339 1_655 S
C50 C48 1.416 . S
C50 H71 0.930 . S
C51 C52 1.413 . S
C51 C53 1.427 . S
C51 C57 1.416 . S
C52 C45 1.424 . S
C52 C51 1.413 . S
C52 N56 1.361 . S
C53 C51 1.427 . S
C53 C54 1.328 . S
C53 H68 0.929 . S
C54 C48 1.448 . S
C54 C53 1.328 . S
C54 H69 0.930 . S
Tb55 N46 2.617 . S
Tb55 N56 2.572 . S
Tb55 O90 2.349 1_655 S
Tb55 O93 2.393 1_655 S
Tb55 O94 2.465 . S
Tb55 O95 2.387 . S
Tb55 O97 2.428 . S
Tb55 O98 2.308 1_545 S
Tb55 C119 2.802 . S
N56 C52 1.361 . S
N56 Tb55 2.572 . S
N56 C58 1.340 . S
C57 C51 1.416 . S
C57 C59 1.332 . S
C57 H65 0.931 . S
C58 N56 1.340 . S
C58 C59 1.407 . S
C58 H64 0.930 . S
C59 C57 1.332 . S
C59 C58 1.407 . S
C59 H61 0.929 . S
H60 C49 0.930 . S
H61 C59 0.929 . S
H62 C77 0.930 1_655 S
H63 C84 0.929 . S
H64 C58 0.930 . S
H65 C57 0.931 . S
H66 C80 0.930 . S
H67 C47 0.930 . S
H68 C53 0.929 . S
H69 C54 0.930 . S
H70 C75 0.930 1_655 S
H71 C50 0.930 . S
H72 C83 0.931 . S
N73 Tb44 2.617 . S
N73 C74 1.379 . S
N73 C77 1.334 . S
C74 N73 1.379 . S
C74 C76 1.416 . S
C74 C82 1.424 . S
C75 H70 0.930 1_455 S
C75 C77 1.390 . S
C75 C78 1.339 . S
C76 C74 1.416 . S
C76 C78 1.416 . S
C76 C109 1.448 . S
C77 H62 0.930 1_455 S
C77 N73 1.334 . S
C77 C75 1.390 . S
C78 C75 1.339 . S
C78 C76 1.416 . S
C78 H85 0.930 . S
N79 Tb44 2.572 . S
N79 C80 1.340 . S
N79 C82 1.361 . S
C80 H66 0.930 . S
C80 N79 1.340 . S
C80 C84 1.407 . S
C81 C82 1.413 . S
C81 C83 1.416 . S
C81 C110 1.427 . S
C82 C74 1.424 . S
C82 N79 1.361 . S
C82 C81 1.413 . S
C83 H72 0.931 . S
C83 C81 1.416 . S
C83 C84 1.332 . S
C84 H63 0.929 . S
C84 C80 1.407 . S
C84 C83 1.332 . S
H85 C78 0.930 . S
H86 C109 0.930 . S
H87 C110 0.929 . S
O88 Tb44 2.465 . S
O88 C108 1.264 . S
O89 Tb44 2.387 . S
O89 C100 1.264 . S
O90 Tb55 2.349 1_455 S
O90 C100 1.243 1_545 S
O91 Tb44 2.428 . S
O91 C108 1.256 . S
O92 Tb44 2.308 1_545 S
O92 C107 1.266 . S
O93 Tb55 2.393 1_455 S
O93 C107 1.248 . S
O94 Tb55 2.465 . S
O94 C119 1.264 . S
O95 Tb55 2.387 . S
O95 C111 1.264 . S
O96 Tb44 2.349 1_645 S
O96 C111 1.243 . S
O97 Tb55 2.428 . S
O97 C119 1.256 . S
O98 Tb55 2.308 1_565 S
O98 C118 1.266 . S
O99 Tb44 2.393 1_655 S
O99 C118 1.248 . S
C100 O89 1.264 . S
C100 O90 1.243 1_565 S
C101 C104 1.399 . S
C101 C106 1.383 . S
C101 C108 1.496 . S
C102 C103 1.399 . S
C102 C106 1.389 . S
C103 C102 1.399 . S
C103 C105 1.380 . S
C103 H120 0.929 . S
C104 C101 1.399 . S
C104 C105 1.392 . S
C104 H121 0.929 . S
C105 C103 1.380 . S
C105 C104 1.392 . S
C105 H122 0.929 . S
C106 C101 1.383 . S
C106 C102 1.389 . S
C106 H123 0.931 . S
C107 O92 1.266 . S
C107 O93 1.248 . S
C108 Tb44 2.802 . S
C108 O88 1.264 . S
C108 O91 1.256 . S
C108 C101 1.496 . S
C109 C76 1.448 . S
C109 H86 0.930 . S
C109 C110 1.328 . S
C110 C81 1.427 . S
C110 H87 0.929 . S
C110 C109 1.328 . S
C111 O95 1.264 . S
C111 O96 1.243 . S
C112 C115 1.399 . S
C112 C116 1.383 . S
C112 C119 1.496 . S
C113 C114 1.399 . S
C113 C116 1.389 1_554 S
C114 C113 1.399 . S
C114 C117 1.380 . S
C114 H124 0.929 . S
C115 C112 1.399 . S
C115 C117 1.392 1_556 S
C115 H125 0.929 . S
C116 C112 1.383 . S
C116 C113 1.389 1_556 S
C116 H126 0.931 . S
C117 C114 1.380 . S
C117 C115 1.392 1_554 S
C117 H127 0.929 . S
C118 O98 1.266 . S
C118 O99 1.248 . S
C119 Tb55 2.802 . S
C119 O94 1.264 . S
C119 O97 1.256 . S
C119 C112 1.496 . S
H120 C103 0.929 . S
H121 C104 0.929 . S
H122 C105 0.929 . S
H123 C106 0.931 . S
H124 C114 0.929 . S
H125 C115 0.929 . S
H126 C116 0.931 . S
H127 C117 0.929 . S
Tb128 N157 2.617 1_554 S
Tb128 N163 2.572 . S
Tb128 O172 2.465 1_554 S
Tb128 O173 2.387 . S
Tb128 O175 2.428 1_554 S
Tb128 O176 2.308 . S
Tb128 O180 2.349 1_554 S
Tb128 O183 2.393 1_554 S
Tb128 C192 2.802 1_554 S
C129 N130 1.379 . S
C129 C132 1.416 . S
C129 C136 1.424 . S
N130 C129 1.379 . S
N130 C133 1.334 . S
N130 Tb139 2.617 . S
C131 C133 1.390 . S
C131 C134 1.339 . S
C131 H151 0.930 . S
C132 C129 1.416 . S
C132 C134 1.416 . S
C132 C138 1.448 . S
C133 N130 1.334 . S
C133 C131 1.390 . S
C133 H144 0.930 . S
C134 C131 1.339 . S
C134 C132 1.416 . S
C134 H155 0.930 . S
C135 C136 1.413 . S
C135 C137 1.427 . S
C135 C141 1.416 . S
C136 C129 1.424 . S
C136 C135 1.413 . S
C136 N140 1.361 . S
C137 C135 1.427 . S
C137 C138 1.328 . S
C137 H152 0.929 . S
C138 C132 1.448 . S
C138 C137 1.328 . S
C138 H153 0.930 . S
Tb139 N130 2.617 . S
Tb139 N140 2.572 . S
Tb139 O174 2.349 . S
Tb139 O177 2.393 . S
Tb139 O178 2.465 . S
Tb139 O179 2.387 . S
Tb139 O181 2.428 . S
Tb139 O182 2.308 . S
Tb139 C203 2.802 . S
N140 C136 1.361 . S
N140 Tb139 2.572 . S
N140 C142 1.340 . S
C141 C135 1.416 . S
C141 C143 1.332 . S
C141 H149 0.931 . S
C142 N140 1.340 . S
C142 C143 1.407 . S
C142 H148 0.930 . S
C143 C141 1.332 . S
C143 C142 1.407 . S
C143 H145 0.929 . S
H144 C133 0.930 . S
H145 C143 0.929 . S
H146 C161 0.930 . S
H147 C168 0.929 . S
H148 C142 0.930 . S
H149 C141 0.931 . S
H150 C164 0.930 . S
H151 C131 0.930 . S
H152 C137 0.929 . S
H153 C138 0.930 . S
H154 C159 0.930 . S
H155 C134 0.930 . S
H156 C167 0.931 . S
N157 Tb128 2.617 1_556 S
N157 C158 1.379 1_556 S
N157 C161 1.334 . S
C158 N157 1.379 1_554 S
C158 C160 1.416 . S
C158 C166 1.424 . S
C159 H154 0.930 . S
C159 C161 1.390 . S
C159 C162 1.339 1_556 S
C160 C158 1.416 . S
C160 C162 1.416 . S
C160 C193 1.448 . S
C161 H146 0.930 . S
C161 N157 1.334 . S
C161 C159 1.390 . S
C162 C159 1.339 1_554 S
C162 C160 1.416 . S
C162 H169 0.930 . S
N163 Tb128 2.572 . S
N163 C164 1.340 . S
N163 C166 1.361 . S
C164 H150 0.930 . S
C164 N163 1.340 . S
C164 C168 1.407 . S
C165 C166 1.413 . S
C165 C167 1.416 . S
C165 C194 1.427 . S
C166 C158 1.424 . S
C166 N163 1.361 . S
C166 C165 1.413 . S
C167 H156 0.931 . S
C167 C165 1.416 . S
C167 C168 1.332 . S
C168 H147 0.929 . S
C168 C164 1.407 . S
C168 C167 1.332 . S
H169 C162 0.930 . S
H170 C193 0.930 . S
H171 C194 0.929 . S
O172 Tb128 2.465 1_556 S
O172 C192 1.264 . S
O173 Tb128 2.387 . S
O173 C184 1.264 . S
O174 Tb139 2.349 . S
O174 C184 1.243 . S
O175 Tb128 2.428 1_556 S
O175 C192 1.256 . S
O176 Tb128 2.308 . S
O176 C191 1.266 . S
O177 Tb139 2.393 . S
O177 C191 1.248 . S
O178 Tb139 2.465 . S
O178 C203 1.264 . S
O179 Tb139 2.387 . S
O179 C195 1.264 1_554 S
O180 Tb128 2.349 1_556 S
O180 C195 1.243 . S
O181 Tb139 2.428 . S
O181 C203 1.256 . S
O182 Tb139 2.308 . S
O182 C202 1.266 . S
O183 Tb128 2.393 1_556 S
O183 C202 1.248 1_556 S
C184 O173 1.264 . S
C184 O174 1.243 . S
C185 C188 1.399 . S
C185 C190 1.383 . S
C185 C192 1.496 . S
C186 C187 1.399 . S
C186 C190 1.389 . S
C187 C186 1.399 . S
C187 C189 1.380 . S
C187 H204 0.929 . S
C188 C185 1.399 . S
C188 C189 1.392 . S
C188 H205 0.929 . S
C189 C187 1.380 . S
C189 C188 1.392 . S
C189 H206 0.929 . S
C190 C185 1.383 . S
C190 C186 1.389 . S
C190 H207 0.931 . S
C191 O176 1.266 . S
C191 O177 1.248 . S
C192 Tb128 2.802 1_556 S
C192 O172 1.264 . S
C192 O175 1.256 . S
C192 C185 1.496 . S
C193 C160 1.448 . S
C193 H170 0.930 . S
C193 C194 1.328 . S
C194 C165 1.427 . S
C194 H171 0.929 . S
C194 C193 1.328 . S
C195 O179 1.264 1_556 S
C195 O180 1.243 . S
C196 C199 1.399 . S
C196 C200 1.383 . S
C196 C203 1.496 . S
C197 C198 1.399 . S
C197 C200 1.389 . S
C198 C197 1.399 . S
C198 C201 1.380 . S
C198 H208 0.929 . S
C199 C196 1.399 . S
C199 C201 1.392 . S
C199 H209 0.929 . S
C200 C196 1.383 . S
C200 C197 1.389 . S
C200 H210 0.931 . S
C201 C198 1.380 . S
C201 C199 1.392 . S
C201 H211 0.929 . S
C202 O182 1.266 . S
C202 O183 1.248 1_554 S
C203 Tb139 2.802 . S
C203 O178 1.264 . S
C203 O181 1.256 . S
C203 C196 1.496 . S
H204 C187 0.929 . S
H205 C188 0.929 . S
H206 C189 0.929 . S
H207 C190 0.931 . S
H208 C198 0.929 . S
H209 C199 0.929 . S
H210 C200 0.931 . S
H211 C201 0.929 . S
C107 C43 1.716 . S
C10 C202 1.864 . S
C21 C118 1.737 . S
C32 C191 1.671 . S
C102 C5 1.349 . S
C195 C15 1.842 . S
C27 C111 1.824 . S
C38 C186 1.457 . S
C197 C16 1.427 . S
C113 C26 1.253 . S
C184 C37 1.698 . S
C4 C100 1.746 . S
