# Generated by pormake.
# Topology ftw, (4,12)-cn, num edge types: 1
# Building blocks:
#     Node 0, Type 0, BuildingBlock: NAWXER_clean_linker_0, # of connection points: 4
#     Node 1, Type 0, BuildingBlock: NAWXER_clean_linker_0, # of connection points: 4
#     Node 2, Type 0, BuildingBlock: NAWXER_clean_linker_0, # of connection points: 4
#     Node 3, Type 1, BuildingBlock: EZIPEK_clean_sbu_0, # of connection points: 12
#     Edge 4, Type (0, 1), None
#     Edge 5, Type (0, 1), None
#     Edge 6, Type (0, 1), None
#     Edge 7, Type (0, 1), None
#     Edge 8, Type (0, 1), None
#     Edge 9, Type (0, 1), None
#     Edge 10, Type (0, 1), None
#     Edge 11, Type (0, 1), None
#     Edge 12, Type (0, 1), None
#     Edge 13, Type (0, 1), None
#     Edge 14, Type (0, 1), None
#     Edge 15, Type (0, 1), None
# Relax obj value: 0.032
# Max RMSD: 0.131
# Mean RMSD: 0.100
data_MOF--net-ftw--node1-EZIPEK_clean_sbu_0--node2-NAWXER_clean_linker_0--edge1-none
_symmetry_space_group_name_H-M    P1
_symmetry_Int_Tables_number       1
_symmetry_cell_setting            triclinic
loop_
_symmetry_equiv_pos_as_xyz
'x, y, z'
_cell_length_a     16.0451
_cell_length_b     17.007512
_cell_length_c     16.432503
_cell_angle_alpha  90.028681
_cell_angle_beta   89.847938
_cell_angle_gamma 90.090091
loop_
_atom_site_label
_atom_site_type_symbol
_atom_site_fract_x
_atom_site_fract_y
_atom_site_fract_z
_atom_type_partial_charge
C0 C 0.04351 0.77937 0.66779 0.0
C1 C 0.99719 0.76905 0.74033 0.0
C2 C 0.0397 0.72357 0.60419 0.0
C3 C 0.98696 0.65761 0.6104 0.0
C4 C 0.94395 0.70398 0.74591 0.0
C5 C 0.93812 0.64998 0.68178 0.0
C6 C 0.99194 0.58814 0.55391 0.0
C7 C 0.95565 0.77956 0.35447 0.0
C8 C 0.00059 0.7684 0.28126 0.0
C9 C 0.95914 0.72376 0.41799 0.0
C10 C 0.01032 0.65692 0.41105 0.0
C11 C 0.05209 0.70236 0.27478 0.0
C12 C 0.05777 0.64836 0.33885 0.0
C13 C 0.00532 0.58783 0.46807 0.0
C14 C 0.95364 0.25364 0.35472 0.0
C15 C -7e-05 0.26397 0.28217 0.0
C16 C 0.95747 0.30942 0.41833 0.0
C17 C 0.01019 0.37539 0.41212 0.0
C18 C 0.05316 0.32905 0.27658 0.0
C19 C 0.05901 0.38303 0.34072 0.0
C20 C 0.00522 0.44485 0.46863 0.0
C21 C 0.04153 0.25344 0.6681 0.0
C22 C 0.99661 0.26463 0.74132 0.0
C23 C 0.03802 0.30924 0.60457 0.0
C24 C 0.98685 0.37608 0.61151 0.0
C25 C 0.94512 0.33067 0.74781 0.0
C26 C 0.93943 0.38466 0.68372 0.0
C27 C 0.99185 0.44516 0.55448 0.0
H28 H 0.08498 0.82931 0.66138 0.0
H29 H 0.08042 0.73058 0.55209 0.0
H30 H 0.90614 0.69496 0.79983 0.0
H31 H 0.89676 0.6001 0.68949 0.0
H32 H 0.9155 0.83027 0.36151 0.0
H33 H 0.91938 0.73157 0.47065 0.0
H34 H 0.08876 0.69267 0.22025 0.0
H35 H 0.09797 0.59785 0.33051 0.0
H36 H 0.91218 0.20369 0.36113 0.0
H37 H 0.91677 0.3024 0.47044 0.0
H38 H 0.09096 0.33808 0.22265 0.0
H39 H 0.10036 0.43292 0.33301 0.0
H40 H 0.08166 0.20273 0.66106 0.0
H41 H 0.07776 0.30141 0.5519 0.0
H42 H 0.90846 0.34038 0.80234 0.0
H43 H 0.89923 0.43517 0.69206 0.0
N44 N 0.98631 0.5168 0.59119 0.0
N45 N 0.01086 0.51619 0.43135 0.0
C46 C 0.66486 0.06583 0.76604 0.0
C47 C 0.73162 1.01295 0.75997 0.0
C48 C 0.59859 0.06072 0.71192 0.0
C49 C 0.59761 1.00101 0.65311 0.0
C50 C 0.72976 0.95209 0.7031 0.0
C51 C 0.66251 0.94551 0.65069 0.0
C52 C 0.54212 1.00581 0.58282 0.0
C53 C 0.34006 0.97293 0.77032 0.0
C54 C 0.27291 0.02533 0.76456 0.0
C55 C 0.40622 0.97842 0.71581 0.0
C56 C 0.40654 0.03793 0.65689 0.0
C57 C 0.27482 0.08681 0.70846 0.0
C58 C 0.34198 0.09377 0.65565 0.0
C59 C 0.4588 0.03085 0.58435 0.0
C60 C 0.3323 0.96716 0.25649 0.0
C61 C 0.26554 0.02005 0.26257 0.0
C62 C 0.39857 0.97226 0.31062 0.0
C63 C 0.39956 0.03196 0.36942 0.0
C64 C 0.26741 0.0809 0.31944 0.0
C65 C 0.33466 0.08747 0.37186 0.0
C66 C 0.45504 0.02716 0.43971 0.0
C67 C 0.6571 0.06004 0.25223 0.0
C68 C 0.72426 1.00765 0.25798 0.0
C69 C 0.59094 0.05456 0.30673 0.0
C70 C 0.59062 0.99504 0.36565 0.0
C71 C 0.72234 0.94617 0.31408 0.0
C72 C 0.65519 0.9392 0.36689 0.0
C73 C 0.53836 1.00212 0.43819 0.0
H74 H 0.66542 0.11257 0.81092 0.0
H75 H 0.55108 0.10582 0.71335 0.0
H76 H 0.77988 0.90954 0.6996 0.0
H77 H 0.66313 0.89912 0.60542 0.0
H78 H 0.33948 0.92582 0.81465 0.0
H79 H 0.45366 0.93322 0.71642 0.0
H80 H 0.22443 0.12906 0.70532 0.0
H81 H 0.34097 0.13999 0.61025 0.0
H82 H 0.33173 0.92043 0.21161 0.0
H83 H 0.44608 0.92716 0.30918 0.0
H84 H 0.2173 0.12346 0.32294 0.0
H85 H 0.33404 0.13386 0.41712 0.0
H86 H 0.65768 0.10716 0.2079 0.0
H87 H 0.5435 0.09975 0.30612 0.0
H88 H 0.77274 0.90392 0.31722 0.0
H89 H 0.6562 0.89298 0.41228 0.0
N90 N 0.57813 0.9931 0.50977 0.0
N91 N 0.41904 0.03987 0.51277 0.0
C92 C 0.3445 0.25353 0.96852 0.0
C93 C 0.27318 0.26059 0.01808 0.0
C94 C 0.40742 0.311 0.97088 0.0
C95 C 0.4013 0.3747 0.0252 0.0
C96 C 0.26794 0.32304 0.07322 0.0
C97 C 0.33163 0.37869 0.07748 0.0
C98 C 0.45604 0.44513 0.01927 0.0
C99 C 0.65686 0.25684 0.05507 0.0
C100 C 0.7288 0.26517 1.0066 0.0
C101 C 0.59328 0.31326 0.05224 0.0
C102 C 0.59923 0.37717 0.99833 0.0
C103 C 0.73428 0.32812 0.95219 0.0
C104 C 0.66983 0.38277 0.94732 0.0
C105 C 0.54282 0.4462 1.00351 0.0
C106 C 0.65263 0.77947 0.054 0.0
C107 C 0.72392 0.77243 1.00441 0.0
C108 C 0.58972 0.72198 0.05166 0.0
C109 C 0.59584 0.65829 0.99734 0.0
C110 C 0.72915 0.70999 0.94926 0.0
C111 C 0.66548 0.65432 0.94502 0.0
C112 C 0.54112 0.58785 1.00327 0.0
C113 C 0.34033 0.77616 0.9675 0.0
C114 C 0.2684 0.76785 0.01599 0.0
C115 C 0.40389 0.71972 0.9703 0.0
C116 C 0.39794 0.65582 0.02422 0.0
C117 C 0.26294 0.7049 0.07041 0.0
C118 C 0.32737 0.65024 0.07526 0.0
C119 C 0.45434 0.58678 0.01903 0.0
H120 H 0.34978 0.20549 0.92549 0.0
H121 H 0.45843 0.30735 0.92783 0.0
H122 H 0.21437 0.32898 0.11303 0.0
H123 H 0.32466 0.42706 0.11991 0.0
H124 H 0.6513 0.20831 0.09736 0.0
H125 H 0.54174 0.30848 0.09456 0.0
H126 H 0.78829 0.33494 0.91309 0.0
H127 H 0.67671 0.43143 0.90527 0.0
H128 H 0.64736 0.8275 0.09705 0.0
H129 H 0.53873 0.72561 0.09474 0.0
H130 H 0.78271 0.70406 0.90943 0.0
H131 H 0.67244 0.60595 0.90258 0.0
H132 H 0.34588 0.82468 0.92519 0.0
H133 H 0.45542 0.72449 0.92797 0.0
H134 H 0.20894 0.69809 0.10953 0.0
H135 H 0.32049 0.60158 0.11732 0.0
N136 N 0.41679 0.5155 0.02597 0.0
N137 N 0.58036 0.51749 0.99657 0.0
C138 C -4e-05 0.20576 0.80873 0.0
C139 C 0.99625 0.20527 0.21449 0.0
C140 C 0.00089 0.82773 0.80801 0.0
C141 C 0.99722 0.82724 0.21385 0.0
C142 C 0.20065 0.82612 0.01221 0.0
C143 C 0.2047 0.20279 0.01361 0.0
C144 C 0.79242 0.83021 1.0089 0.0
C145 C 0.79654 0.20688 1.01036 0.0
C146 C 0.79284 1.01359 0.20094 0.0
C147 C 0.19823 1.01611 0.20423 0.0
C148 C 0.79894 0.0169 0.81831 0.0
C149 C 0.20433 0.01939 0.8216 0.0
Eu150 Eu 0.00012 0.16878 0.0116 0.0
O151 O 0.0702 0.08619 0.08382 0.0
O152 O 0.92833 0.0883 0.93832 0.0
Eu153 Eu 0.15212 1.01454 0.01195 0.0
Eu154 Eu 0.84503 0.01848 1.01059 0.0
O155 O 0.0729 0.08758 0.93951 0.0
O156 O 0.9254 0.08948 0.08425 0.0
Eu157 Eu 0.00131 0.01671 0.85684 0.0
Eu158 Eu 0.99585 1.01633 0.1657 0.0
O159 O 0.07169 0.94341 0.93834 0.0
O160 O 0.06874 0.94461 0.08415 0.0
O161 O 0.92433 0.94531 0.08298 0.0
O162 O 0.92704 0.94671 0.93879 0.0
Eu163 Eu 0.99703 0.86405 1.01093 0.0
O164 O -0.00116 0.23155 0.88639 0.0
O165 O 0.00212 0.23105 0.13706 0.0
O166 O 0.99503 0.8019 0.88543 0.0
O167 O 0.99832 0.8014 0.1362 0.0
O168 O 0.22424 0.90104 1.00937 0.0
O169 O 0.22678 0.12739 1.01093 0.0
O170 O 0.77037 0.90562 0.01157 0.0
O171 O 0.77292 0.13197 0.01321 0.0
O172 O 0.87047 1.00899 0.22933 0.0
O173 O 0.11996 0.02144 0.23137 0.0
O174 O 0.8772 1.01159 0.79117 0.0
O175 O 0.12669 0.02402 0.79321 0.0
O176 O 0.8706 0.8027 1.00739 0.0
O177 O 0.12189 0.79994 0.01433 0.0
O178 O 0.87532 0.23301 1.00822 0.0
O179 O 0.1265 0.23024 0.01514 0.0
O180 O 0.99024 0.13013 0.23707 0.0
O181 O 0.99587 0.90246 0.23686 0.0
O182 O 0.00131 0.13056 0.78569 0.0
O183 O 0.00689 0.90289 0.78546 0.0
O184 O 0.22669 1.01258 0.8985 0.0
O185 O 0.2226 1.01049 0.12759 0.0
O186 O 0.77456 0.02252 0.89495 0.0
O187 O 0.77047 0.0204 0.12404 0.0
loop_
_geom_bond_atom_site_label_1
_geom_bond_atom_site_label_2
_geom_bond_distance
_geom_bond_site_symmetry_2
_ccdc_geom_bond_type
C0 C1 1.384 1_455 S
C0 C2 1.384 . S
C0 H28 0.931 . S
C1 C0 1.384 1_655 S
C1 C4 1.382 . S
C2 C0 1.384 . S
C2 C3 1.381 1_455 S
C2 H29 0.930 . S
C3 C2 1.381 1_655 S
C3 C5 1.381 . S
C3 C6 1.487 . S
C4 C1 1.382 . S
C4 C5 1.387 . S
C4 H30 0.930 . S
C5 C3 1.381 . S
C5 C4 1.387 . S
C5 H31 0.931 . S
C6 C3 1.487 . S
C6 C13 1.399 1_655 S
C6 N44 1.343 . S
C7 C8 1.384 1_655 S
C7 C9 1.384 . S
C7 H32 0.931 . S
C8 C7 1.384 1_455 S
C8 C11 1.382 . S
C9 C7 1.384 . S
C9 C10 1.381 1_655 S
C9 H33 0.930 . S
C10 C9 1.381 1_455 S
C10 C12 1.381 . S
C10 C13 1.487 . S
C11 C8 1.382 . S
C11 C12 1.387 . S
C11 H34 0.930 . S
C12 C10 1.381 . S
C12 C11 1.387 . S
C12 H35 0.931 . S
C13 C6 1.399 1_455 S
C13 C10 1.487 . S
C13 N45 1.343 . S
C14 C15 1.384 1_655 S
C14 C16 1.384 . S
C14 H36 0.931 . S
C15 C14 1.384 1_455 S
C15 C18 1.382 . S
C16 C14 1.384 . S
C16 C17 1.381 1_655 S
C16 H37 0.930 . S
C17 C16 1.381 1_455 S
C17 C19 1.381 . S
C17 C20 1.487 . S
C18 C15 1.382 . S
C18 C19 1.387 . S
C18 H38 0.930 . S
C19 C17 1.381 . S
C19 C18 1.387 . S
C19 H39 0.931 . S
C20 C17 1.487 . S
C20 C27 1.399 1_455 S
C20 N45 1.343 . S
C21 C22 1.384 1_455 S
C21 C23 1.384 . S
C21 H40 0.931 . S
C22 C21 1.384 1_655 S
C22 C25 1.382 . S
C23 C21 1.384 . S
C23 C24 1.381 1_455 S
C23 H41 0.930 . S
C24 C23 1.381 1_655 S
C24 C26 1.381 . S
C24 C27 1.487 . S
C25 C22 1.382 . S
C25 C26 1.387 . S
C25 H42 0.930 . S
C26 C24 1.381 . S
C26 C25 1.387 . S
C26 H43 0.931 . S
C27 C20 1.399 1_655 S
C27 C24 1.487 . S
C27 N44 1.343 . S
H28 C0 0.931 . S
H29 C2 0.930 . S
H30 C4 0.930 . S
H31 C5 0.931 . S
H32 C7 0.931 . S
H33 C9 0.930 . S
H34 C11 0.930 . S
H35 C12 0.931 . S
H36 C14 0.931 . S
H37 C16 0.930 . S
H38 C18 0.930 . S
H39 C19 0.931 . S
H40 C21 0.931 . S
H41 C23 0.930 . S
H42 C25 0.930 . S
H43 C26 0.931 . S
N44 C6 1.343 . S
N44 C27 1.343 . S
N45 C13 1.343 . S
N45 C20 1.343 . S
C46 C47 1.384 1_545 S
C46 C48 1.384 . S
C46 H74 0.931 . S
C47 C46 1.384 1_565 S
C47 C50 1.382 . S
C48 C46 1.384 . S
C48 C49 1.381 1_545 S
C48 H75 0.930 . S
C49 C48 1.381 1_565 S
C49 C51 1.381 . S
C49 C52 1.487 . S
C50 C47 1.382 . S
C50 C51 1.387 . S
C50 H76 0.930 . S
C51 C49 1.381 . S
C51 C50 1.387 . S
C51 H77 0.931 . S
C52 C49 1.487 . S
C52 C59 1.399 1_565 S
C52 N90 1.343 . S
C53 C54 1.384 1_565 S
C53 C55 1.384 . S
C53 H78 0.931 . S
C54 C53 1.384 1_545 S
C54 C57 1.382 . S
C55 C53 1.384 . S
C55 C56 1.381 1_565 S
C55 H79 0.930 . S
C56 C55 1.381 1_545 S
C56 C58 1.381 . S
C56 C59 1.487 . S
C57 C54 1.382 . S
C57 C58 1.387 . S
C57 H80 0.930 . S
C58 C56 1.381 . S
C58 C57 1.387 . S
C58 H81 0.931 . S
C59 C52 1.399 1_545 S
C59 C56 1.487 . S
C59 N91 1.343 . S
C60 C61 1.384 1_565 S
C60 C62 1.384 . S
C60 H82 0.931 . S
C61 C60 1.384 1_545 S
C61 C64 1.382 . S
C62 C60 1.384 . S
C62 C63 1.381 1_565 S
C62 H83 0.930 . S
C63 C62 1.381 1_545 S
C63 C65 1.381 . S
C63 C66 1.487 . S
C64 C61 1.382 . S
C64 C65 1.387 . S
C64 H84 0.930 . S
C65 C63 1.381 . S
C65 C64 1.387 . S
C65 H85 0.931 . S
C66 C63 1.487 . S
C66 C73 1.399 1_545 S
C66 N91 1.343 . S
C67 C68 1.384 1_545 S
C67 C69 1.384 . S
C67 H86 0.931 . S
C68 C67 1.384 1_565 S
C68 C71 1.382 . S
C69 C67 1.384 . S
C69 C70 1.381 1_545 S
C69 H87 0.930 . S
C70 C69 1.381 1_565 S
C70 C72 1.381 . S
C70 C73 1.487 . S
C71 C68 1.382 . S
C71 C72 1.387 . S
C71 H88 0.930 . S
C72 C70 1.381 . S
C72 C71 1.387 . S
C72 H89 0.931 . S
C73 C66 1.399 1_565 S
C73 C70 1.487 . S
C73 N90 1.343 . S
H74 C46 0.931 . S
H75 C48 0.930 . S
H76 C50 0.930 . S
H77 C51 0.931 . S
H78 C53 0.931 . S
H79 C55 0.930 . S
H80 C57 0.930 . S
H81 C58 0.931 . S
H82 C60 0.931 . S
H83 C62 0.930 . S
H84 C64 0.930 . S
H85 C65 0.931 . S
H86 C67 0.931 . S
H87 C69 0.930 . S
H88 C71 0.930 . S
H89 C72 0.931 . S
N90 C52 1.343 . S
N90 C73 1.343 . S
N91 C59 1.343 . S
N91 C66 1.343 . S
C92 C93 1.384 1_556 S
C92 C94 1.384 . S
C92 H120 0.931 . S
C93 C92 1.384 1_554 S
C93 C96 1.382 . S
C94 C92 1.384 . S
C94 C95 1.381 1_556 S
C94 H121 0.930 . S
C95 C94 1.381 1_554 S
C95 C97 1.381 . S
C95 C98 1.487 . S
C96 C93 1.382 . S
C96 C97 1.387 . S
C96 H122 0.930 . S
C97 C95 1.381 . S
C97 C96 1.387 . S
C97 H123 0.931 . S
C98 C95 1.487 . S
C98 C105 1.399 1_554 S
C98 N136 1.343 . S
C99 C100 1.384 1_554 S
C99 C101 1.384 . S
C99 H124 0.931 . S
C100 C99 1.384 1_556 S
C100 C103 1.382 . S
C101 C99 1.384 . S
C101 C102 1.381 1_554 S
C101 H125 0.930 . S
C102 C101 1.381 1_556 S
C102 C104 1.381 . S
C102 C105 1.487 . S
C103 C100 1.382 . S
C103 C104 1.387 . S
C103 H126 0.930 . S
C104 C102 1.381 . S
C104 C103 1.387 . S
C104 H127 0.931 . S
C105 C98 1.399 1_556 S
C105 C102 1.487 . S
C105 N137 1.343 . S
C106 C107 1.384 1_554 S
C106 C108 1.384 . S
C106 H128 0.931 . S
C107 C106 1.384 1_556 S
C107 C110 1.382 . S
C108 C106 1.384 . S
C108 C109 1.381 1_554 S
C108 H129 0.930 . S
C109 C108 1.381 1_556 S
C109 C111 1.381 . S
C109 C112 1.487 . S
C110 C107 1.382 . S
C110 C111 1.387 . S
C110 H130 0.930 . S
C111 C109 1.381 . S
C111 C110 1.387 . S
C111 H131 0.931 . S
C112 C109 1.487 . S
C112 C119 1.399 1_556 S
C112 N137 1.343 . S
C113 C114 1.384 1_556 S
C113 C115 1.384 . S
C113 H132 0.931 . S
C114 C113 1.384 1_554 S
C114 C117 1.382 . S
C115 C113 1.384 . S
C115 C116 1.381 1_556 S
C115 H133 0.930 . S
C116 C115 1.381 1_554 S
C116 C118 1.381 . S
C116 C119 1.487 . S
C117 C114 1.382 . S
C117 C118 1.387 . S
C117 H134 0.930 . S
C118 C116 1.381 . S
C118 C117 1.387 . S
C118 H135 0.931 . S
C119 C112 1.399 1_554 S
C119 C116 1.487 . S
C119 N136 1.343 . S
H120 C92 0.931 . S
H121 C94 0.930 . S
H122 C96 0.930 . S
H123 C97 0.931 . S
H124 C99 0.931 . S
H125 C101 0.930 . S
H126 C103 0.930 . S
H127 C104 0.931 . S
H128 C106 0.931 . S
H129 C108 0.930 . S
H130 C110 0.930 . S
H131 C111 0.931 . S
H132 C113 0.931 . S
H133 C115 0.930 . S
H134 C117 0.930 . S
H135 C118 0.931 . S
N136 C98 1.343 . S
N136 C119 1.343 . S
N137 C105 1.343 . S
N137 C112 1.343 . S
C138 O164 1.283 . S
C138 O182 1.283 . S
C139 O165 1.283 . S
C139 O180 1.283 . S
C140 O166 1.283 . S
C140 O183 1.283 . S
C141 O167 1.283 . S
C141 O181 1.283 . S
C142 O168 1.283 . S
C142 O177 1.283 . S
C143 O169 1.283 . S
C143 O179 1.283 . S
C144 O170 1.283 . S
C144 O176 1.283 . S
C145 O171 1.283 . S
C145 O178 1.283 . S
C146 O172 1.283 . S
C146 O187 1.283 . S
C147 O173 1.283 . S
C147 O185 1.283 . S
C148 O174 1.283 . S
C148 O186 1.283 . S
C149 O175 1.283 . S
C149 O184 1.283 . S
Eu150 O151 2.370 . S
Eu150 O152 2.370 1_454 S
Eu150 O155 2.370 1_554 S
Eu150 O156 2.370 1_455 S
Eu150 O164 2.363 1_554 S
Eu150 O165 2.363 . S
Eu150 O178 2.363 1_455 S
Eu150 O179 2.363 . S
O151 Eu150 2.370 . S
O151 Eu153 2.370 . S
O151 Eu158 2.370 . S
O152 Eu150 2.370 1_656 S
O152 Eu154 2.370 1_556 S
O152 Eu157 2.370 1_655 S
Eu153 O151 2.370 . S
Eu153 O155 2.370 1_554 S
Eu153 O159 2.370 1_544 S
Eu153 O160 2.370 1_545 S
Eu153 O168 2.363 1_545 S
Eu153 O169 2.363 . S
Eu153 O184 2.363 1_554 S
Eu153 O185 2.363 . S
Eu154 O152 2.370 1_554 S
Eu154 O156 2.370 . S
Eu154 O161 2.370 1_545 S
Eu154 O162 2.370 1_544 S
Eu154 O170 2.363 1_545 S
Eu154 O171 2.363 . S
Eu154 O186 2.363 1_554 S
Eu154 O187 2.363 . S
O155 Eu150 2.370 1_556 S
O155 Eu153 2.370 1_556 S
O155 Eu157 2.370 . S
O156 Eu150 2.370 1_655 S
O156 Eu154 2.370 . S
O156 Eu158 2.370 1_655 S
Eu157 O152 2.370 1_455 S
Eu157 O155 2.370 . S
Eu157 O159 2.370 1_545 S
Eu157 O162 2.370 1_445 S
Eu157 O174 2.363 1_455 S
Eu157 O175 2.363 . S
Eu157 O182 2.363 . S
Eu157 O183 2.363 1_545 S
Eu158 O151 2.370 . S
Eu158 O156 2.370 1_455 S
Eu158 O160 2.370 1_545 S
Eu158 O161 2.370 1_445 S
Eu158 O172 2.363 1_455 S
Eu158 O173 2.363 . S
Eu158 O180 2.363 . S
Eu158 O181 2.363 1_545 S
O159 Eu153 2.370 1_566 S
O159 Eu157 2.370 1_565 S
O159 Eu163 2.370 1_556 S
O160 Eu153 2.370 1_565 S
O160 Eu158 2.370 1_565 S
O160 Eu163 2.370 . S
O161 Eu154 2.370 1_565 S
O161 Eu158 2.370 1_665 S
O161 Eu163 2.370 1_655 S
O162 Eu154 2.370 1_566 S
O162 Eu157 2.370 1_665 S
O162 Eu163 2.370 1_656 S
Eu163 O159 2.370 1_554 S
Eu163 O160 2.370 . S
Eu163 O161 2.370 1_455 S
Eu163 O162 2.370 1_454 S
Eu163 O166 2.363 1_554 S
Eu163 O167 2.363 . S
Eu163 O176 2.363 1_455 S
Eu163 O177 2.363 . S
O164 C138 1.283 . S
O164 Eu150 2.363 1_556 S
O165 C139 1.283 . S
O165 Eu150 2.363 . S
O166 C140 1.283 . S
O166 Eu163 2.363 1_556 S
O167 C141 1.283 . S
O167 Eu163 2.363 . S
O168 C142 1.283 . S
O168 Eu153 2.363 1_565 S
O169 C143 1.283 . S
O169 Eu153 2.363 . S
O170 C144 1.283 . S
O170 Eu154 2.363 1_565 S
O171 C145 1.283 . S
O171 Eu154 2.363 . S
O172 C146 1.283 . S
O172 Eu158 2.363 1_655 S
O173 C147 1.283 . S
O173 Eu158 2.363 . S
O174 C148 1.283 . S
O174 Eu157 2.363 1_655 S
O175 C149 1.283 . S
O175 Eu157 2.363 . S
O176 C144 1.283 . S
O176 Eu163 2.363 1_655 S
O177 C142 1.283 . S
O177 Eu163 2.363 . S
O178 C145 1.283 . S
O178 Eu150 2.363 1_655 S
O179 C143 1.283 . S
O179 Eu150 2.363 . S
O180 C139 1.283 . S
O180 Eu158 2.363 . S
O181 C141 1.283 . S
O181 Eu158 2.363 1_565 S
O182 C138 1.283 . S
O182 Eu157 2.363 . S
O183 C140 1.283 . S
O183 Eu157 2.363 1_565 S
O184 C149 1.283 . S
O184 Eu153 2.363 1_556 S
O185 C147 1.283 . S
O185 Eu153 2.363 . S
O186 C148 1.283 . S
O186 Eu154 2.363 1_556 S
O187 C146 1.283 . S
O187 Eu154 2.363 . S
C139 C15 1.948 . S
C146 C68 1.433 1_545 S
C141 C8 1.949 . S
C147 C61 1.430 . S
C1 C140 1.952 1_655 S
C149 C54 1.431 . S
C22 C138 1.951 1_655 S
C47 C148 1.434 1_565 S
C93 C143 1.597 . S
C114 C142 1.598 . S
C145 C100 1.600 1_554 S
C144 C107 1.601 1_554 S
