# Generated by pormake.
# Topology tsx, (6,3)-cn, num edge types: 1
# Building blocks:
#     Node 0, Type 0, BuildingBlock: LEVNOQ01_clean_sbu_1, # of connection points: 6
#     Node 1, Type 0, BuildingBlock: LEVNOQ01_clean_sbu_1, # of connection points: 6
#     Node 2, Type 1, BuildingBlock: BELTOD_clean_linker_0, # of connection points: 3
#     Node 3, Type 1, BuildingBlock: BELTOD_clean_linker_0, # of connection points: 3
#     Node 4, Type 1, BuildingBlock: BELTOD_clean_linker_0, # of connection points: 3
#     Node 5, Type 1, BuildingBlock: BELTOD_clean_linker_0, # of connection points: 3
#     Edge 6, Type (0, 1), None
#     Edge 7, Type (0, 1), None
#     Edge 8, Type (0, 1), None
#     Edge 9, Type (0, 1), None
#     Edge 10, Type (0, 1), None
#     Edge 11, Type (0, 1), None
#     Edge 12, Type (0, 1), None
#     Edge 13, Type (0, 1), None
#     Edge 14, Type (0, 1), None
#     Edge 15, Type (0, 1), None
#     Edge 16, Type (0, 1), None
#     Edge 17, Type (0, 1), None
# Relax obj value: 0.118
# Max RMSD: 0.151
# Mean RMSD: 0.111
data_MOF--net-tsx--node1-LEVNOQ01_clean_sbu_1--node2-BELTOD_clean_linker_0--edge1-none
_symmetry_space_group_name_H-M    P1
_symmetry_Int_Tables_number       1
_symmetry_cell_setting            triclinic
loop_
_symmetry_equiv_pos_as_xyz
'x, y, z'
_cell_length_a     10.345777
_cell_length_b     13.022785
_cell_length_c     23.498277
_cell_angle_alpha  93.229551
_cell_angle_beta   96.067045
_cell_angle_gamma 94.411352
loop_
_atom_site_label
_atom_site_type_symbol
_atom_site_fract_x
_atom_site_fract_y
_atom_site_fract_z
_atom_type_partial_charge
O0 O 0.11444 0.94952 0.07343 0.0
Mg1 Mg 0.21965 0.01733 0.01173 0.0
O2 O 0.97058 0.04639 0.03745 0.0
Mg3 Mg 0.0369 0.03961 -0.05463 0.0
O4 O 0.2294 0.15803 -0.02731 0.0
O5 O 0.34198 0.12547 0.05619 0.0
O6 O 0.08793 0.03882 0.85164 0.0
O7 O 0.91264 0.18296 0.92924 0.0
Mg8 Mg 0.76924 0.96532 0.84949 0.0
O9 O 0.86101 0.93253 0.92348 0.0
O10 O 0.92159 0.95385 0.7949 0.0
O11 O 0.73482 0.11858 0.87113 0.0
O12 O 0.67949 0.84182 0.89189 0.0
C13 C 0.25176 0.85062 -0.04583 0.0
C14 C 0.01081 -0.00825 0.07747 0.0
C15 C 0.32296 0.18351 0.01416 0.0
C16 C 0.03741 -0.00267 0.80298 0.0
C17 C 0.80085 0.19285 0.90113 0.0
C18 C 0.77777 0.85779 0.93039 0.0
O19 O 0.33782 0.91298 -0.01839 0.0
O20 O 0.13647 0.87818 -0.05691 0.0
O21 O 0.61444 0.44952 0.57343 0.0
Mg22 Mg 0.71965 0.51733 0.51173 0.0
O23 O 0.47059 0.54639 0.53745 0.0
Mg24 Mg 0.5369 0.53961 0.44537 0.0
O25 O 0.7294 0.65803 0.47269 0.0
O26 O 0.84198 0.62546 0.55619 0.0
O27 O 0.58793 0.53882 0.35164 0.0
O28 O 0.41265 0.68296 0.42924 0.0
Mg29 Mg 0.26924 0.46532 0.34949 0.0
O30 O 0.36101 0.43253 0.42348 0.0
O31 O 0.42159 0.45384 0.2949 0.0
O32 O 0.23482 0.61858 0.37113 0.0
O33 O 0.17949 0.34182 0.39189 0.0
C34 C 0.75177 0.35062 0.45417 0.0
C35 C 0.51081 0.49175 0.57747 0.0
C36 C 0.82297 0.68351 0.51416 0.0
C37 C 0.53741 0.49733 0.30298 0.0
C38 C 0.30086 0.69285 0.40113 0.0
C39 C 0.27777 0.35779 0.43039 0.0
O40 O 0.83782 0.41297 0.48161 0.0
O41 O 0.63647 0.37818 0.44309 0.0
P42 P 0.05844 0.07461 0.32693 0.0
H43 H 0.05243 0.1127 0.44839 0.0
H44 H 0.92524 0.22723 0.50214 0.0
H45 H 0.67076 0.2606 0.34783 0.0
H46 H 0.79476 0.14379 0.29484 0.0
H47 H 0.32949 0.04064 0.36921 0.0
H48 H 0.42898 0.8859 0.40142 0.0
H49 H 0.04516 0.72467 0.39004 0.0
H50 H 0.94681 0.88026 0.3616 0.0
H51 H 0.96701 0.19863 0.2348 0.0
H52 H 0.01847 0.87652 0.25631 0.0
O53 O 0.17564 0.16916 0.32513 0.0
H54 H 0.9391 0.16429 0.131 0.0
H55 H 0.99432 0.84308 0.15284 0.0
C56 C 0.93624 0.12288 0.36752 0.0
C57 C 0.96658 0.14172 0.42669 0.0
C58 C 0.89429 0.20702 0.45717 0.0
C59 C 0.79162 0.25468 0.42845 0.0
C60 C 0.75036 0.22508 0.37074 0.0
C61 C 0.8229 0.15944 0.34025 0.0
C62 C 0.13082 0.97047 0.36177 0.0
C63 C 0.26673 0.97275 0.37545 0.0
C64 C 0.32371 0.88473 0.39424 0.0
C65 C 0.24503 0.79331 0.39789 0.0
C66 C 0.10845 0.79421 0.38763 0.0
C67 C 0.05183 0.88275 0.3711 0.0
C68 C 0.99653 0.0406 0.25345 0.0
C69 C 0.96674 0.11978 0.21737 0.0
C70 C 0.94939 0.09999 0.15803 0.0
C71 C 0.96608 0.00135 0.13436 0.0
C72 C 0.98113 0.91983 0.17048 0.0
C73 C 0.99631 0.93934 0.22983 0.0
P74 P 0.27026 -0.00379 0.57799 0.0
H75 H 0.25834 0.78252 0.5339 0.0
H76 H 0.07391 0.655 0.51033 0.0
H77 H 0.80854 0.89437 0.514 0.0
H78 H 0.99537 0.02341 0.53901 0.0
H79 H 0.4488 0.06854 0.49887 0.0
H80 H 0.45265 0.21536 0.4388 0.0
H81 H 0.13782 0.3354 0.52101 0.0
H82 H 0.13153 0.18657 0.5808 0.0
H83 H 0.17574 0.83341 0.64529 0.0
H84 H 0.27022 0.16273 0.67102 0.0
O85 O 0.41011 0.94 0.57917 0.0
H86 H 0.07573 0.83333 0.73421 0.0
H87 H 0.17325 0.16167 0.76243 0.0
C88 C 0.14147 0.91306 0.53724 0.0
C89 C 0.16155 0.80897 0.52713 0.0
C90 C 0.05566 0.73587 0.51388 0.0
C91 C 0.9273 0.76522 0.50987 0.0
C92 C 0.90666 0.87028 0.51539 0.0
C93 C 0.0136 0.94392 0.52946 0.0
C94 C 0.29115 0.11715 0.54505 0.0
C95 C 0.38348 0.12806 0.50568 0.0
C96 C 0.38658 0.2124 0.4716 0.0
C97 C 0.29682 0.28675 0.47618 0.0
C98 C 0.20893 0.27914 0.51757 0.0
C99 C 0.2056 0.19439 0.55172 0.0
C100 C 0.22402 -0.00096 0.6498 0.0
C101 C 0.17551 0.90594 0.67006 0.0
C102 C 0.11897 0.90551 0.72112 0.0
C103 C 0.1147 -0.00234 0.75412 0.0
C104 C 0.17458 0.08981 0.737 0.0
C105 C 0.22882 0.0906 0.68471 0.0
P106 P 0.55844 0.57461 0.82693 0.0
H107 H 0.55243 0.61271 -0.05161 0.0
H108 H 0.42524 0.72723 0.00214 0.0
H109 H 0.17076 0.7606 0.84783 0.0
H110 H 0.29476 0.64379 0.79484 0.0
H111 H 0.82949 0.54064 0.86921 0.0
H112 H 0.92898 0.3859 0.90142 0.0
H113 H 0.54515 0.22467 0.89004 0.0
H114 H 0.44681 0.38027 0.8616 0.0
H115 H 0.46701 0.69863 0.7348 0.0
H116 H 0.51847 0.37652 0.75631 0.0
O117 O 0.67564 0.66916 0.82513 0.0
H118 H 0.4391 0.66429 0.631 0.0
H119 H 0.49432 0.34308 0.65284 0.0
C120 C 0.43624 0.62288 0.86752 0.0
C121 C 0.46658 0.64173 0.92669 0.0
C122 C 0.39428 0.70702 -0.04283 0.0
C123 C 0.29161 0.75468 0.92845 0.0
C124 C 0.25035 0.72508 0.87074 0.0
C125 C 0.3229 0.65944 0.84025 0.0
C126 C 0.63082 0.47047 0.86177 0.0
C127 C 0.76673 0.47276 0.87545 0.0
C128 C 0.82371 0.38473 0.89424 0.0
C129 C 0.74503 0.29331 0.89789 0.0
C130 C 0.60844 0.29421 0.88763 0.0
C131 C 0.55183 0.38276 0.8711 0.0
C132 C 0.49653 0.5406 0.75345 0.0
C133 C 0.46674 0.61978 0.71737 0.0
C134 C 0.44939 0.59999 0.65803 0.0
C135 C 0.46608 0.50135 0.63436 0.0
C136 C 0.48113 0.41983 0.67048 0.0
C137 C 0.49631 0.43934 0.72983 0.0
P138 P 0.77026 0.49621 0.07799 0.0
H139 H 0.75833 0.28252 0.0339 0.0
H140 H 0.57391 0.155 0.01033 0.0
H141 H 0.30854 0.39437 0.014 0.0
H142 H 0.49537 0.52341 0.03901 0.0
H143 H 0.9488 0.56854 -0.00113 0.0
H144 H 0.95265 0.71537 0.9388 0.0
H145 H 0.63782 0.8354 0.02101 0.0
H146 H 0.63153 0.68657 0.0808 0.0
H147 H 0.67575 0.33341 0.14529 0.0
H148 H 0.77022 0.66273 0.17102 0.0
O149 O 0.91011 0.44 0.07917 0.0
H150 H 0.57573 0.33333 0.23421 0.0
H151 H 0.67325 0.66167 0.26243 0.0
C152 C 0.64147 0.41306 0.03724 0.0
C153 C 0.66155 0.30897 0.02713 0.0
C154 C 0.55565 0.23587 0.01388 0.0
C155 C 0.4273 0.26522 0.00987 0.0
C156 C 0.40666 0.37028 0.01539 0.0
C157 C 0.51359 0.44392 0.02946 0.0
C158 C 0.79115 0.61715 0.04505 0.0
C159 C 0.88347 0.62806 0.00568 0.0
C160 C 0.88658 0.7124 -0.0284 0.0
C161 C 0.79682 0.78675 -0.02382 0.0
C162 C 0.70892 0.77914 0.01757 0.0
C163 C 0.7056 0.69439 0.05172 0.0
C164 C 0.72402 0.49904 0.1498 0.0
C165 C 0.67551 0.40594 0.17006 0.0
C166 C 0.61897 0.40551 0.22112 0.0
C167 C 0.6147 0.49766 0.25412 0.0
C168 C 0.67458 0.58981 0.237 0.0
C169 C 0.72882 0.5906 0.18471 0.0
loop_
_geom_bond_atom_site_label_1
_geom_bond_atom_site_label_2
_geom_bond_distance
_geom_bond_site_symmetry_2
_ccdc_geom_bond_type
O0 Mg1 1.990 . S
O0 C14 1.253 . S
Mg1 O0 1.990 . S
Mg1 O4 2.180 . S
Mg1 O5 2.117 . S
Mg1 O19 2.030 1_545 S
O2 Mg3 2.070 1_554 S
O2 C14 1.260 . S
Mg3 O2 2.070 1_556 S
Mg3 O4 2.099 1_556 S
Mg3 O6 2.080 . S
Mg3 O7 2.072 1_456 S
Mg3 O9 2.099 1_445 S
Mg3 O20 2.079 1_545 S
O4 Mg1 2.180 . S
O4 Mg3 2.099 1_554 S
O4 C15 1.279 . S
O5 Mg1 2.117 . S
O5 C15 1.250 . S
O6 Mg3 2.080 . S
O6 C16 1.264 . S
O7 Mg3 2.072 1_654 S
O7 C17 1.260 1_554 S
Mg8 O9 2.180 . S
Mg8 O10 2.030 1_565 S
Mg8 O11 1.990 1_565 S
Mg8 O12 2.117 . S
O9 Mg3 2.099 1_665 S
O9 Mg8 2.180 . S
O9 C18 1.279 1_556 S
O10 Mg8 2.030 1_545 S
O10 C16 1.248 1_655 S
O11 Mg8 1.990 1_545 S
O11 C17 1.253 . S
O12 Mg8 2.117 . S
O12 C18 1.250 1_556 S
C13 O19 1.248 . S
C13 O20 1.264 1_554 S
C14 O0 1.253 . S
C14 O2 1.260 . S
C15 O4 1.279 . S
C15 O5 1.250 . S
C16 O6 1.264 . S
C16 O10 1.248 1_455 S
C17 O7 1.260 1_556 S
C17 O11 1.253 . S
C18 O9 1.279 1_554 S
C18 O12 1.250 1_554 S
O19 Mg1 2.030 1_565 S
O19 C13 1.248 . S
O20 Mg3 2.079 1_565 S
O20 C13 1.264 1_556 S
O21 Mg22 1.990 . S
O21 C35 1.253 . S
Mg22 O21 1.990 . S
Mg22 O25 2.180 . S
Mg22 O26 2.117 . S
Mg22 O40 2.030 . S
O23 Mg24 2.072 . S
O23 C35 1.260 . S
Mg24 O23 2.072 . S
Mg24 O25 2.099 . S
Mg24 O27 2.079 . S
Mg24 O28 2.072 . S
Mg24 O30 2.099 . S
Mg24 O41 2.079 . S
O25 Mg22 2.180 . S
O25 Mg24 2.099 . S
O25 C36 1.279 . S
O26 Mg22 2.117 . S
O26 C36 1.250 . S
O27 Mg24 2.079 . S
O27 C37 1.264 . S
O28 Mg24 2.072 . S
O28 C38 1.260 . S
Mg29 O30 2.180 . S
Mg29 O31 2.030 . S
Mg29 O32 1.990 . S
Mg29 O33 2.117 . S
O30 Mg24 2.099 . S
O30 Mg29 2.180 . S
O30 C39 1.279 . S
O31 Mg29 2.030 . S
O31 C37 1.248 . S
O32 Mg29 1.990 . S
O32 C38 1.253 . S
O33 Mg29 2.117 . S
O33 C39 1.250 . S
C34 O40 1.248 . S
C34 O41 1.264 . S
C35 O21 1.253 . S
C35 O23 1.260 . S
C36 O25 1.279 . S
C36 O26 1.250 . S
C37 O27 1.264 . S
C37 O31 1.248 . S
C38 O28 1.260 . S
C38 O32 1.253 . S
C39 O30 1.279 . S
C39 O33 1.250 . S
O40 Mg22 2.030 . S
O40 C34 1.248 . S
O41 Mg24 2.079 . S
O41 C34 1.264 . S
P42 O53 1.490 . S
P42 C56 1.812 . S
P42 C62 1.803 1_545 S
P42 C68 1.819 . S
H43 C57 0.941 . S
H44 C58 0.939 . S
H45 C60 0.940 . S
H46 C61 0.940 . S
H47 C63 0.939 . S
H48 C64 0.942 . S
H49 C66 0.940 . S
H50 C67 0.939 . S
H51 C69 0.941 . S
H52 C73 0.939 . S
O53 P42 1.490 . S
H54 C70 0.939 . S
H55 C72 0.940 . S
C56 P42 1.812 . S
C56 C57 1.389 . S
C56 C61 1.391 1_455 S
C57 H43 0.941 . S
C57 C56 1.389 . S
C57 C58 1.397 1_455 S
C58 H44 0.939 . S
C58 C57 1.397 1_655 S
C58 C59 1.378 . S
C59 C58 1.378 . S
C59 C60 1.378 . S
C60 H45 0.940 . S
C60 C59 1.378 . S
C60 C61 1.396 . S
C61 H46 0.940 . S
C61 C56 1.391 1_655 S
C61 C60 1.396 . S
C62 P42 1.803 1_565 S
C62 C63 1.378 . S
C62 C67 1.400 . S
C63 H47 0.939 . S
C63 C62 1.378 . S
C63 C64 1.361 . S
C64 H48 0.942 . S
C64 C63 1.361 . S
C64 C65 1.369 . S
C65 C64 1.369 . S
C65 C66 1.404 . S
C66 H49 0.940 . S
C66 C65 1.404 . S
C66 C67 1.389 . S
C67 H50 0.939 . S
C67 C62 1.400 . S
C67 C66 1.389 . S
C68 P42 1.819 . S
C68 C69 1.391 . S
C68 C73 1.391 1_545 S
C69 H51 0.941 . S
C69 C68 1.391 . S
C69 C70 1.396 . S
C70 H54 0.939 . S
C70 C69 1.396 . S
C70 C71 1.397 . S
C71 C70 1.397 . S
C71 C72 1.385 1_545 S
C72 H55 0.940 . S
C72 C71 1.385 1_565 S
C72 C73 1.388 . S
C73 H52 0.939 . S
C73 C68 1.391 1_565 S
C73 C72 1.388 . S
P74 O85 1.490 . S
P74 C88 1.812 1_455 S
P74 C94 1.803 1_565 S
P74 C100 1.819 1_565 S
H75 C89 0.941 . S
H76 C90 0.939 . S
H77 C92 0.940 . S
H78 C93 0.940 1_545 S
H79 C95 0.939 . S
H80 C96 0.942 . S
H81 C98 0.940 . S
H82 C99 0.939 . S
H83 C101 0.941 . S
H84 C105 0.939 . S
O85 P74 1.490 . S
H86 C102 0.939 . S
H87 C104 0.940 . S
C88 P74 1.812 1_655 S
C88 C89 1.389 1_655 S
C88 C93 1.391 . S
C89 H75 0.941 . S
C89 C88 1.389 1_455 S
C89 C90 1.397 1_455 S
C90 H76 0.939 . S
C90 C89 1.397 1_655 S
C90 C91 1.378 . S
C91 C90 1.378 . S
C91 C92 1.378 . S
C92 H77 0.940 . S
C92 C91 1.378 . S
C92 C93 1.396 . S
C93 H78 0.940 1_565 S
C93 C88 1.391 . S
C93 C92 1.396 . S
C94 P74 1.803 1_545 S
C94 C95 1.378 . S
C94 C99 1.400 . S
C95 H79 0.939 . S
C95 C94 1.378 . S
C95 C96 1.361 . S
C96 H80 0.942 . S
C96 C95 1.361 . S
C96 C97 1.369 . S
C97 C96 1.369 . S
C97 C98 1.404 . S
C98 H81 0.940 . S
C98 C97 1.404 . S
C98 C99 1.389 . S
C99 H82 0.939 . S
C99 C94 1.400 . S
C99 C98 1.389 . S
C100 P74 1.819 1_545 S
C100 C101 1.391 1_545 S
C100 C105 1.391 . S
C101 H83 0.941 . S
C101 C100 1.391 1_565 S
C101 C102 1.396 . S
C102 H86 0.939 . S
C102 C101 1.396 . S
C102 C103 1.397 1_565 S
C103 C102 1.397 1_545 S
C103 C104 1.385 . S
C104 H87 0.940 . S
C104 C103 1.385 . S
C104 C105 1.388 . S
C105 H84 0.939 . S
C105 C100 1.391 . S
C105 C104 1.388 . S
P106 O117 1.490 . S
P106 C120 1.812 . S
P106 C126 1.803 . S
P106 C132 1.819 . S
H107 C121 0.941 . S
H108 C122 0.939 . S
H109 C124 0.940 . S
H110 C125 0.940 . S
H111 C127 0.939 . S
H112 C128 0.942 . S
H113 C130 0.940 . S
H114 C131 0.939 . S
H115 C133 0.941 . S
H116 C137 0.939 . S
O117 P106 1.490 . S
H118 C134 0.939 . S
H119 C136 0.940 . S
C120 P106 1.812 . S
C120 C121 1.389 1_556 S
C120 C125 1.391 . S
C121 H107 0.941 . S
C121 C120 1.389 1_554 S
C121 C122 1.397 . S
C122 H108 0.939 . S
C122 C121 1.397 . S
C122 C123 1.378 . S
C123 C122 1.378 . S
C123 C124 1.378 1_554 S
C124 H109 0.940 . S
C124 C123 1.378 1_556 S
C124 C125 1.396 . S
C125 H110 0.940 . S
C125 C120 1.391 . S
C125 C124 1.396 . S
C126 P106 1.803 . S
C126 C127 1.378 . S
C126 C131 1.400 . S
C127 H111 0.939 . S
C127 C126 1.378 . S
C127 C128 1.361 . S
C128 H112 0.942 . S
C128 C127 1.361 . S
C128 C129 1.369 1_556 S
C129 C128 1.369 1_554 S
C129 C130 1.404 . S
C130 H113 0.940 . S
C130 C129 1.404 . S
C130 C131 1.389 1_554 S
C131 H114 0.939 . S
C131 C126 1.400 . S
C131 C130 1.389 1_556 S
C132 P106 1.819 . S
C132 C133 1.391 . S
C132 C137 1.391 . S
C133 H115 0.941 . S
C133 C132 1.391 . S
C133 C134 1.396 . S
C134 H118 0.939 . S
C134 C133 1.396 . S
C134 C135 1.397 . S
C135 C134 1.397 . S
C135 C136 1.385 . S
C136 H119 0.940 . S
C136 C135 1.385 . S
C136 C137 1.388 . S
C137 H116 0.939 . S
C137 C132 1.391 . S
C137 C136 1.388 . S
P138 O149 1.490 . S
P138 C152 1.812 . S
P138 C158 1.803 . S
P138 C164 1.819 . S
H139 C153 0.941 . S
H140 C154 0.939 . S
H141 C156 0.940 . S
H142 C157 0.940 . S
H143 C159 0.939 . S
H144 C160 0.942 . S
H145 C162 0.940 1_556 S
H146 C163 0.939 . S
H147 C165 0.941 . S
H148 C169 0.939 . S
O149 P138 1.490 . S
H150 C166 0.939 . S
H151 C168 0.940 . S
C152 P138 1.812 . S
C152 C153 1.389 1_554 S
C152 C157 1.391 . S
C153 H139 0.941 . S
C153 C152 1.389 1_556 S
C153 C154 1.397 . S
C154 H140 0.939 . S
C154 C153 1.397 . S
C154 C155 1.378 . S
C155 C154 1.378 . S
C155 C156 1.378 1_556 S
C156 H141 0.940 . S
C156 C155 1.378 1_554 S
C156 C157 1.396 . S
C157 H142 0.940 . S
C157 C152 1.391 . S
C157 C156 1.396 . S
C158 P138 1.803 . S
C158 C159 1.378 . S
C158 C163 1.400 . S
C159 H143 0.939 . S
C159 C158 1.378 . S
C159 C160 1.361 . S
C160 H144 0.942 . S
C160 C159 1.361 . S
C160 C161 1.365 1_554 S
C161 C160 1.365 1_556 S
C161 C162 1.403 1_556 S
C162 H145 0.940 1_554 S
C162 C161 1.403 1_554 S
C162 C163 1.389 . S
C163 H146 0.939 . S
C163 C158 1.400 . S
C163 C162 1.389 . S
C164 P138 1.819 . S
C164 C165 1.391 . S
C164 C169 1.391 . S
C165 H147 0.941 . S
C165 C164 1.391 . S
C165 C166 1.396 . S
C166 H150 0.939 . S
C166 C165 1.396 . S
C166 C167 1.397 . S
C167 C166 1.397 . S
C167 C168 1.385 . S
C168 H151 0.940 . S
C168 C167 1.385 . S
C168 C169 1.388 . S
C169 H148 0.939 . S
C169 C164 1.391 . S
C169 C168 1.388 . S
C155 C15 1.840 1_556 S
C13 C123 1.649 . S
C18 C161 1.223 1_554 S
C17 C129 1.505 1_556 S
C36 C91 1.840 . S
C34 C59 1.649 . S
C97 C39 1.221 . S
C65 C38 1.504 . S
C14 C71 1.444 . S
C16 C103 1.314 . S
C135 C35 1.444 . S
C37 C167 1.314 . S
