# Generated by pormake.
# Topology tsx, (6,3)-cn, num edge types: 1
# Building blocks:
#     Node 0, Type 0, BuildingBlock: MIDCAF_clean_sbu_0, # of connection points: 6
#     Node 1, Type 0, BuildingBlock: MIDCAF_clean_sbu_0, # of connection points: 6
#     Node 2, Type 1, BuildingBlock: QEWDON_clean_linker_0, # of connection points: 3
#     Node 3, Type 1, BuildingBlock: QEWDON_clean_linker_0, # of connection points: 3
#     Node 4, Type 1, BuildingBlock: QEWDON_clean_linker_0, # of connection points: 3
#     Node 5, Type 1, BuildingBlock: QEWDON_clean_linker_0, # of connection points: 3
#     Edge 6, Type (0, 1), BuildingBlock: OJICUG_clean_linker_0, # of connection points: 2
#     Edge 7, Type (0, 1), BuildingBlock: OJICUG_clean_linker_0, # of connection points: 2
#     Edge 8, Type (0, 1), BuildingBlock: OJICUG_clean_linker_0, # of connection points: 2
#     Edge 9, Type (0, 1), BuildingBlock: OJICUG_clean_linker_0, # of connection points: 2
#     Edge 10, Type (0, 1), BuildingBlock: OJICUG_clean_linker_0, # of connection points: 2
#     Edge 11, Type (0, 1), BuildingBlock: OJICUG_clean_linker_0, # of connection points: 2
#     Edge 12, Type (0, 1), BuildingBlock: OJICUG_clean_linker_0, # of connection points: 2
#     Edge 13, Type (0, 1), BuildingBlock: OJICUG_clean_linker_0, # of connection points: 2
#     Edge 14, Type (0, 1), BuildingBlock: OJICUG_clean_linker_0, # of connection points: 2
#     Edge 15, Type (0, 1), BuildingBlock: OJICUG_clean_linker_0, # of connection points: 2
#     Edge 16, Type (0, 1), BuildingBlock: OJICUG_clean_linker_0, # of connection points: 2
#     Edge 17, Type (0, 1), BuildingBlock: OJICUG_clean_linker_0, # of connection points: 2
# Relax obj value: 0.088
# Max RMSD: 0.146
# Mean RMSD: 0.144
data_MOF--net-tsx--node1-MIDCAF_clean_sbu_0--node2-QEWDON_clean_linker_0--edge1-OJICUG_clean_linker_0
_symmetry_space_group_name_H-M    P1
_symmetry_Int_Tables_number       1
_symmetry_cell_setting            triclinic
loop_
_symmetry_equiv_pos_as_xyz
'x, y, z'
_cell_length_a     14.651545
_cell_length_b     17.863407
_cell_length_c     25.757837
_cell_angle_alpha  92.865188
_cell_angle_beta   119.607
_cell_angle_gamma 89.611041
loop_
_atom_site_label
_atom_site_type_symbol
_atom_site_fract_x
_atom_site_fract_y
_atom_site_fract_z
_atom_type_partial_charge
Zn0 Zn 1.03212 0.92156 0.94389 0.0
Zn1 Zn 0.26429 -0.02597 0.14252 0.0
Zn2 Zn 0.13718 -0.04007 0.04705 0.0
C3 C 0.25426 0.1027 0.08968 0.0
C4 C 0.31901 0.8613 0.09212 0.0
O5 O 0.10632 0.83733 0.03866 0.0
O6 O 0.95745 0.83905 0.95328 0.0
C7 C 0.96484 0.05208 0.9885 0.0
O8 O 0.23483 0.05203 0.04819 0.0
O9 O 0.25173 0.08479 0.13578 0.0
O10 O 0.36247 0.92108 0.12228 0.0
O11 O 0.21857 0.85308 0.06718 0.0
O12 O 0.97952 0.02662 0.94633 0.0
O13 O 1.00264 0.01729 1.03703 0.0
O14 O 0.19211 0.01171 0.9904 0.0
O15 O 0.17012 0.90019 0.94748 0.0
C16 C 0.20682 -0.03414 0.9552 0.0
O17 O 1.06228 -0.00494 0.10063 0.0
O18 O 0.1724 0.91728 0.16414 0.0
C19 C 1.01568 0.80755 1.00106 0.0
C20 C 0.08949 0.95439 0.14568 0.0
Zn21 Zn 0.77307 0.48034 0.64354 0.0
Zn22 Zn 0.5401 0.42484 0.44462 0.0
Zn23 Zn 0.64541 0.46393 0.54842 0.0
C24 C 0.7142 0.46911 0.45655 0.0
C25 C 0.47219 0.55532 0.48963 0.0
O26 O 0.56899 0.4978 0.60136 0.0
O27 O 0.68355 0.42371 0.66679 0.0
C28 C 0.82867 0.36675 0.59394 0.0
O29 O 0.69838 0.51564 0.49091 0.0
O30 O 0.68032 0.40297 0.45086 0.0
O31 O 0.48712 0.52993 0.44751 0.0
O32 O 0.51027 0.52064 0.53824 0.0
O33 O 0.87123 0.42727 0.62316 0.0
O34 O 0.7284 0.3577 0.5694 0.0
O35 O 0.74062 0.55699 0.54814 0.0
O36 O 0.7581 0.59086 0.63567 0.0
C37 C 0.75946 0.60825 0.58914 0.0
O38 O 0.61554 0.34125 0.54019 0.0
O39 O 0.46638 0.34258 0.4549 0.0
C40 C 0.59829 0.45816 0.64716 0.0
C41 C 0.5249 0.31131 0.50275 0.0
H42 H 0.12763 0.03158 0.40207 0.0
C43 C 0.16671 -0.02157 0.4149 0.0
C44 C 0.15578 0.92548 0.3704 0.0
C45 C 0.22719 -0.03621 0.47574 0.0
H46 H 0.20027 0.81566 0.35367 0.0
C47 C 0.20698 0.85695 0.38772 0.0
C48 C 0.2702 0.84197 0.44852 0.0
C49 C 0.27985 0.89592 0.49267 0.0
C50 C 0.22656 0.01903 0.51957 0.0
H51 H 0.32727 0.8851 0.53964 0.0
C52 C 0.10798 0.05509 0.5016 0.0
C53 C 0.12647 0.16571 0.57771 0.0
C54 C 0.33865 0.05272 0.5805 0.0
H55 H 0.41071 0.02683 0.5878 0.0
C56 C 0.35224 0.12461 0.63067 0.0
H57 H 1.03983 0.02975 0.46177 0.0
C58 C 0.25638 0.17885 0.63108 0.0
H59 H 0.27811 0.22261 0.66596 0.0
H60 H 0.43143 0.13753 0.66613 0.0
H61 H 0.15777 0.06127 0.69695 0.0
C62 C 0.10102 0.01509 0.67877 0.0
C63 C 0.08725 -0.02873 0.71764 0.0
C64 C 1.04237 -0.00048 0.6167 0.0
H65 H 1.00709 0.87525 0.72471 0.0
C66 C 1.01572 0.91056 0.69428 0.0
C67 C 0.95731 0.89414 0.63213 0.0
C68 C 0.97013 0.93956 0.59331 0.0
C69 C 1.0645 0.04328 0.5778 0.0
H70 H 0.92659 0.927 0.54541 0.0
C71 C 0.19278 0.05514 0.59806 0.0
C72 C 0.21463 0.15104 0.53069 0.0
C73 C 0.96797 0.08858 0.52007 0.0
H74 H 0.88871 0.07812 0.5111 0.0
C75 C 0.981 0.15118 0.47579 0.0
H76 H 0.24965 0.0241 0.63604 0.0
C77 C 0.09352 0.18214 0.47918 0.0
H78 H 0.08841 0.22273 0.44811 0.0
H79 H 0.90894 0.17435 0.4418 0.0
H80 H 0.62149 0.52827 0.90042 0.0
C81 C 0.66115 0.47534 0.91331 0.0
C82 C 0.65265 0.4231 0.86894 0.0
C83 C 0.72055 0.46047 0.97413 0.0
H84 H 0.6995 0.3139 0.85258 0.0
C85 C 0.70428 0.35472 0.88643 0.0
C86 C 0.76549 0.33929 0.94725 0.0
C87 C 0.77342 0.39276 0.99124 0.0
C88 C 0.71895 0.51537 1.01779 0.0
H89 H 0.8197 0.38169 0.03823 0.0
C90 C 0.59986 0.55061 0.99961 0.0
C91 C 0.61678 0.66078 0.07568 0.0
C92 C 0.83055 0.54948 0.07882 0.0
H93 H 0.90297 0.52412 0.08621 0.0
C94 C 0.84308 0.62107 0.12898 0.0
H95 H 0.53213 0.52508 0.95966 0.0
C96 C 0.74645 0.67453 0.12923 0.0
H97 H 0.76754 0.7182 0.16411 0.0
H98 H 0.92207 0.63434 0.16455 0.0
H99 H 0.64995 0.55803 0.19445 0.0
C100 C 0.59404 0.51131 0.177 0.0
C101 C 0.58207 0.46796 0.21668 0.0
C102 C 0.53494 0.4946 0.11512 0.0
H103 H 0.50464 0.37155 0.22545 0.0
C104 C 0.51176 0.40652 0.19435 0.0
C105 C 0.45264 0.38902 0.13234 0.0
C106 C 0.46373 0.43403 0.09268 0.0
C107 C 0.55615 0.53787 0.07565 0.0
H108 H 0.41972 0.42069 0.0449 0.0
C109 C 0.68434 0.55058 0.09607 0.0
C110 C 0.70545 0.64719 1.02891 0.0
C111 C 0.4592 0.58281 1.01786 0.0
H112 H 0.38004 0.57192 1.00888 0.0
C113 C 0.47171 0.64585 0.97366 0.0
H114 H 0.74148 0.51965 0.13404 0.0
C115 C 0.58405 0.6777 0.97726 0.0
H116 H 0.5786 0.71841 0.94618 0.0
H117 H 0.39944 0.6687 0.93962 0.0
C118 C 0.26875 0.23656 0.12206 0.0
C119 C 0.28539 0.18007 0.08784 0.0
H120 H 0.30785 0.3477 0.16217 0.0
C121 C 0.34387 0.19681 0.06006 0.0
H122 H 0.22211 0.22542 0.14301 0.0
C123 C 0.39343 0.26725 0.07131 0.0
C124 C 0.38434 0.32122 0.11017 0.0
H125 H 0.35745 0.1541 1.0334 0.0
H126 H 0.44437 0.27764 0.05297 0.0
C127 C 0.31781 0.30642 0.13316 0.0
C128 C 0.40958 0.73945 0.11253 0.0
C129 C 0.38604 0.80681 0.08364 0.0
H130 H 0.50617 0.64372 0.13699 0.0
C131 C 0.44471 0.82984 0.05739 0.0
H132 H 0.36961 0.72302 0.13621 0.0
C133 C 0.52253 0.78431 0.05742 0.0
C134 C 0.54214 0.71437 0.08303 0.0
H135 H 0.43122 0.88377 1.03755 0.0
H136 H 0.56596 0.80322 1.03644 0.0
C137 C 0.48875 0.6945 0.11344 0.0
C138 C 0.91916 0.68819 0.98829 0.0
C139 C 0.96063 0.75705 1.01991 0.0
H140 H 0.80461 0.60049 0.96479 0.0
C141 C 0.91722 0.78985 0.05311 0.0
H142 H 0.94592 0.66452 0.9587 0.0
C143 C 0.83527 0.75441 0.05577 0.0
C144 C 0.79581 0.68428 1.02601 0.0
H145 H 0.94002 0.84636 0.0723 0.0
H146 H 0.80077 0.78307 0.07972 0.0
C147 C 0.83712 0.65223 0.9911 0.0
C148 C 0.8709 0.15212 1.01619 0.0
C149 C 0.91812 0.12678 0.98271 0.0
H150 H 0.78361 0.2401 1.03077 0.0
C151 C 0.92209 0.17435 0.94199 0.0
H152 H 0.86812 0.11689 0.04843 0.0
C153 C 0.87628 0.24413 0.93281 0.0
C154 C 0.82372 0.26828 0.96343 0.0
H155 H 0.96072 0.15769 0.91673 0.0
H156 H 0.88079 0.27895 0.90086 0.0
C157 C 0.82337 0.22254 1.00636 0.0
C158 C 0.84927 0.70211 0.5595 0.0
C159 C 0.78925 0.68568 0.58642 0.0
H160 H 0.95119 0.78271 0.55345 0.0
C161 C 0.77067 0.74255 0.61956 0.0
H162 H 0.86438 0.65907 0.5337 0.0
C163 C 0.81975 0.81244 0.63082 0.0
C164 C 0.88813 0.82683 0.609 0.0
H165 H 0.72286 0.73159 0.63983 0.0
H166 H 0.80869 0.85395 0.65927 0.0
C167 C 0.8988 0.77259 0.57087 0.0
C168 C 0.95482 0.33511 0.55946 0.0
C169 C 0.89644 0.31233 0.58597 0.0
H170 H 1.07557 0.30811 0.53815 0.0
C171 C 0.92046 0.24523 0.61524 0.0
H172 H 0.94097 0.38884 0.5393 0.0
C173 C 0.99964 0.20022 0.61616 0.0
C174 C 1.05245 0.2197 0.58534 0.0
H175 H 0.88077 0.229 0.63912 0.0
H176 H 1.01743 0.14961 0.63997 0.0
C177 C 1.03256 0.28948 0.55945 0.0
C178 C 0.43124 0.19115 0.49202 0.0
C179 C 0.46979 0.26132 0.52192 0.0
H180 H 0.31871 0.10222 0.46952 0.0
C181 C 0.42325 0.2952 0.55307 0.0
H182 H 0.46024 0.16654 0.46378 0.0
C183 C 0.34176 0.25932 0.55591 0.0
C184 C 0.30519 0.18801 0.52792 0.0
H185 H 0.44347 0.3526 0.57058 0.0
H186 H 0.30517 0.28851 0.57849 0.0
C187 C 0.34914 0.15497 0.49466 0.0
C188 C 0.42492 0.6766 0.44148 0.0
C189 C 0.42426 0.62971 0.48354 0.0
H190 H 0.38082 0.78051 0.39946 0.0
C191 C 0.37951 0.65559 0.51822 0.0
H192 H 0.46149 0.6596 0.41518 0.0
C193 C 0.33144 0.72585 0.50846 0.0
C194 C 0.32869 0.77095 0.46436 0.0
H195 H 0.37927 0.62096 0.55149 0.0
H196 H 0.29379 0.74381 0.53396 0.0
C197 C 0.3786 0.74622 0.43237 0.0
C198 C 1.01828 0.8964 0.2027 0.0
C199 C 1.04807 -0.03749 0.18709 0.0
H200 H 1.02687 0.8332 0.27322 0.0
C201 C 0.08722 0.02346 0.22925 0.0
H202 H 0.98958 0.8479 0.17181 0.0
C203 C 0.11379 0.01384 0.28869 0.0
C204 C 0.09905 0.94351 0.3062 0.0
H205 H 0.11263 0.07459 0.21875 0.0
H206 H 0.15623 0.05888 0.32169 0.0
C207 C 1.04284 0.88716 0.26163 0.0
C208 C 0.26177 0.9397 0.8803 0.0
C209 C 0.22089 -0.00867 0.90616 0.0
H210 H 0.24808 0.89176 0.79871 0.0
C211 C 0.15636 0.04845 0.87149 0.0
H212 H 0.31132 0.89498 0.90611 0.0
C213 C 0.1197 0.04622 0.80983 0.0
C214 C 0.14817 -0.01266 0.78284 0.0
H215 H 0.12273 0.08836 0.89008 0.0
H216 H 1.06135 0.08588 0.78257 0.0
C217 C 0.22436 0.93701 0.81881 0.0
C218 C 0.5894 0.52411 0.72984 0.0
C219 C 0.55396 0.4636 0.68725 0.0
H220 H 0.65271 0.5582 0.82214 0.0
C221 C 0.52486 0.39617 0.70151 0.0
H222 H 0.61442 0.57623 0.72043 0.0
C223 C 0.54579 0.38569 0.75964 0.0
C224 C 0.59849 0.44194 0.80493 0.0
H225 H 0.49978 0.34779 0.67053 0.0
H226 H 0.53014 0.33097 0.77021 0.0
C227 C 0.61282 0.5132 0.78859 0.0
C228 C 0.65552 0.54867 0.37039 0.0
C229 C 0.72355 0.49337 0.40565 0.0
H230 H 0.55514 0.58281 0.28098 0.0
C231 C 0.76394 0.44162 0.37958 0.0
H232 H 0.62224 0.58864 0.38915 0.0
C233 C 0.72317 0.43689 0.31777 0.0
C234 C 0.64409 0.48537 0.28164 0.0
H235 H 0.81615 0.39827 0.40584 0.0
H236 H 0.74711 0.39163 0.29779 0.0
C237 C 0.61555 0.54445 0.3084 0.0
loop_
_geom_bond_atom_site_label_1
_geom_bond_atom_site_label_2
_geom_bond_distance
_geom_bond_site_symmetry_2
_ccdc_geom_bond_type
Zn0 O6 1.920 1_545 S
Zn0 O12 1.898 . S
Zn0 O15 1.905 1_545 S
Zn1 O9 1.905 . S
Zn1 O10 1.898 1_545 S
Zn1 O18 1.920 1_545 S
Zn2 O5 2.080 1_444 S
Zn2 O8 2.114 . S
Zn2 O11 2.120 1_545 S
Zn2 O13 2.120 1_455 S
Zn2 O14 2.114 1_554 S
Zn2 O17 2.080 . S
C3 O8 1.166 . S
C3 O9 1.182 . S
C4 O10 1.167 . S
C4 O11 1.299 . S
O5 Zn2 2.080 1_666 S
O5 C19 1.305 . S
O6 Zn0 1.920 1_565 S
O6 C19 1.234 . S
C7 O12 1.167 . S
C7 O13 1.299 1_556 S
O8 Zn2 2.114 . S
O8 C3 1.166 . S
O9 Zn1 1.905 . S
O9 C3 1.182 . S
O10 Zn1 1.898 1_565 S
O10 C4 1.167 . S
O11 Zn2 2.120 1_565 S
O11 C4 1.299 . S
O12 Zn0 1.898 . S
O12 C7 1.167 . S
O13 Zn2 2.120 1_655 S
O13 C7 1.299 1_554 S
O14 Zn2 2.114 1_556 S
O14 C16 1.166 1_445 S
O15 Zn0 1.905 1_565 S
O15 C16 1.182 . S
C16 O14 1.166 1_665 S
C16 O15 1.182 . S
O17 Zn2 2.080 . S
O17 C20 1.305 1_545 S
O18 Zn1 1.920 1_565 S
O18 C20 1.234 . S
C19 O5 1.305 . S
C19 O6 1.234 . S
C20 O17 1.305 1_565 S
C20 O18 1.234 . S
Zn21 O27 1.920 . S
Zn21 O33 1.898 . S
Zn21 O36 1.905 . S
Zn22 O30 1.905 . S
Zn22 O31 1.898 . S
Zn22 O39 1.920 . S
Zn23 O26 2.080 . S
Zn23 O29 2.114 . S
Zn23 O32 2.120 . S
Zn23 O34 2.120 . S
Zn23 O35 2.114 . S
Zn23 O38 2.080 . S
C24 O29 1.166 . S
C24 O30 1.182 . S
C25 O31 1.167 . S
C25 O32 1.299 . S
O26 Zn23 2.080 . S
O26 C40 1.305 . S
O27 Zn21 1.920 . S
O27 C40 1.234 . S
C28 O33 1.167 . S
C28 O34 1.299 . S
O29 Zn23 2.114 . S
O29 C24 1.166 . S
O30 Zn22 1.905 . S
O30 C24 1.182 . S
O31 Zn22 1.898 . S
O31 C25 1.167 . S
O32 Zn23 2.120 . S
O32 C25 1.299 . S
O33 Zn21 1.898 . S
O33 C28 1.167 . S
O34 Zn23 2.120 . S
O34 C28 1.299 . S
O35 Zn23 2.114 . S
O35 C37 1.166 . S
O36 Zn21 1.905 . S
O36 C37 1.182 . S
C37 O35 1.166 . S
C37 O36 1.182 . S
O38 Zn23 2.080 . S
O38 C41 1.305 . S
O39 Zn22 1.920 . S
O39 C41 1.234 . S
C40 O26 1.305 . S
C40 O27 1.234 . S
C41 O38 1.305 . S
C41 O39 1.234 . S
H42 C43 0.949 . S
C43 H42 0.949 . S
C43 C44 1.395 . S
C43 C45 1.391 . S
C44 C43 1.395 . S
C44 C47 1.390 1_545 S
C45 C43 1.391 . S
C45 C49 1.387 1_545 S
C45 C50 1.491 . S
H46 C47 0.950 . S
C47 C44 1.390 1_565 S
C47 H46 0.950 . S
C47 C48 1.378 . S
C48 C47 1.378 . S
C48 C49 1.409 . S
C49 C45 1.387 1_565 S
C49 C48 1.409 . S
C49 H51 0.951 . S
C50 C45 1.491 . S
C50 C52 1.382 . S
C50 C54 1.404 . S
H51 C49 0.951 . S
C52 C50 1.382 . S
C52 C53 1.390 1_455 S
C52 H57 0.949 1_455 S
C53 C52 1.390 1_655 S
C53 C58 1.399 1_655 S
C54 C50 1.404 . S
C54 H55 0.950 . S
C54 C56 1.375 . S
H55 C54 0.950 . S
C56 C54 1.375 . S
C56 C58 1.382 . S
C56 H60 0.950 . S
H57 C52 0.949 1_655 S
C58 C53 1.399 1_455 S
C58 C56 1.382 . S
C58 H59 0.952 . S
H59 C58 0.952 . S
H60 C56 0.950 . S
H61 C62 0.949 . S
C62 H61 0.949 . S
C62 C63 1.395 1_455 S
C62 C64 1.391 1_455 S
C63 C62 1.395 1_655 S
C63 C66 1.390 1_545 S
C64 C62 1.391 1_655 S
C64 C68 1.387 1_545 S
C64 C69 1.491 1_655 S
H65 C66 0.950 . S
C66 C63 1.390 1_565 S
C66 H65 0.950 . S
C66 C67 1.378 . S
C67 C66 1.378 . S
C67 C68 1.409 . S
C68 C64 1.387 1_565 S
C68 C67 1.409 . S
C68 H70 0.951 . S
C69 C64 1.491 1_455 S
C69 C71 1.382 . S
C69 C73 1.404 1_455 S
H70 C68 0.951 . S
C71 C69 1.382 . S
C71 C72 1.390 . S
C71 H76 0.949 . S
C72 C71 1.390 . S
C72 C77 1.399 . S
C73 C69 1.404 1_655 S
C73 H74 0.950 . S
C73 C75 1.375 . S
H74 C73 0.950 . S
C75 C73 1.375 . S
C75 C77 1.382 1_655 S
C75 H79 0.950 . S
H76 C71 0.949 . S
C77 C72 1.399 . S
C77 C75 1.382 1_455 S
C77 H78 0.952 . S
H78 C77 0.952 . S
H79 C75 0.950 . S
H80 C81 0.949 . S
C81 H80 0.949 . S
C81 C82 1.395 . S
C81 C83 1.391 . S
C82 C81 1.395 . S
C82 C85 1.390 . S
C83 C81 1.391 . S
C83 C87 1.387 . S
C83 C88 1.491 . S
H84 C85 0.950 . S
C85 C82 1.390 . S
C85 H84 0.950 . S
C85 C86 1.378 . S
C86 C85 1.378 . S
C86 C87 1.409 . S
C87 C83 1.387 . S
C87 C86 1.409 . S
C87 H89 0.951 1_556 S
C88 C83 1.491 . S
C88 C90 1.382 . S
C88 C92 1.404 1_556 S
H89 C87 0.951 1_554 S
C90 C88 1.382 . S
C90 C91 1.383 1_556 S
C90 H95 0.949 . S
C91 C90 1.383 1_554 S
C91 C96 1.406 . S
C92 C88 1.404 1_554 S
C92 H93 0.950 . S
C92 C94 1.375 . S
H93 C92 0.950 . S
C94 C92 1.375 . S
C94 C96 1.382 . S
C94 H98 0.950 . S
H95 C90 0.949 . S
C96 C91 1.406 . S
C96 C94 1.382 . S
C96 H97 0.952 . S
H97 C96 0.952 . S
H98 C94 0.950 . S
H99 C100 0.949 . S
C100 H99 0.949 . S
C100 C101 1.395 . S
C100 C102 1.391 . S
C101 C100 1.395 . S
C101 C104 1.390 . S
C102 C100 1.391 . S
C102 C106 1.387 . S
C102 C107 1.491 . S
H103 C104 0.950 . S
C104 C101 1.390 . S
C104 H103 0.950 . S
C104 C105 1.378 . S
C105 C104 1.378 . S
C105 C106 1.409 . S
C106 C102 1.387 . S
C106 C105 1.409 . S
C106 H108 0.951 . S
C107 C102 1.491 . S
C107 C109 1.382 . S
C107 C111 1.404 1_554 S
H108 C106 0.951 . S
C109 C107 1.382 . S
C109 C110 1.390 . S
C109 H114 0.949 . S
C110 C109 1.390 . S
C110 C115 1.399 1_554 S
C111 C107 1.404 1_556 S
C111 H112 0.950 . S
C111 C113 1.375 . S
H112 C111 0.950 . S
C113 C111 1.375 . S
C113 C115 1.382 . S
C113 H117 0.950 . S
H114 C109 0.949 . S
C115 C110 1.399 1_556 S
C115 C113 1.382 . S
C115 H116 0.952 . S
H116 C115 0.952 . S
H117 C113 0.950 . S
C118 C119 1.387 . S
C118 H122 0.950 . S
C118 C127 1.390 . S
C119 C118 1.387 . S
C119 C121 1.387 1_554 S
H120 C127 0.950 . S
C121 C119 1.387 1_556 S
C121 C123 1.390 1_556 S
C121 H125 0.950 . S
H122 C118 0.950 . S
C123 C121 1.390 1_554 S
C123 C124 1.387 . S
C123 H126 0.950 1_554 S
C124 C123 1.387 . S
C124 C127 1.387 . S
H125 C121 0.950 . S
H126 C123 0.950 1_556 S
C127 C118 1.390 . S
C127 H120 0.950 . S
C127 C124 1.387 . S
C128 C129 1.387 1_554 S
C128 H132 0.950 . S
C128 C137 1.390 . S
C129 C128 1.387 1_556 S
C129 C131 1.387 . S
H130 C137 0.950 . S
C131 C129 1.387 . S
C131 C133 1.390 . S
C131 H135 0.950 . S
H132 C128 0.950 . S
C133 C131 1.390 . S
C133 C134 1.387 . S
C133 H136 0.950 . S
C134 C133 1.387 . S
C134 C137 1.387 1_556 S
H135 C131 0.950 . S
H136 C133 0.950 . S
C137 C128 1.390 . S
C137 H130 0.950 . S
C137 C134 1.387 1_554 S
C138 C139 1.387 1_556 S
C138 H142 0.950 . S
C138 C147 1.390 . S
C139 C138 1.387 1_554 S
C139 C141 1.387 . S
H140 C147 0.950 . S
C141 C139 1.387 . S
C141 C143 1.390 . S
C141 H145 0.950 . S
H142 C138 0.950 . S
C143 C141 1.390 . S
C143 C144 1.387 . S
C143 H146 0.950 . S
C144 C143 1.387 . S
C144 C147 1.387 1_554 S
H145 C141 0.950 . S
H146 C143 0.950 . S
C147 C138 1.390 . S
C147 H140 0.950 . S
C147 C144 1.387 1_556 S
C148 C149 1.387 1_554 S
C148 H152 0.950 . S
C148 C157 1.390 . S
C149 C148 1.387 1_556 S
C149 C151 1.387 . S
H150 C157 0.950 . S
C151 C149 1.387 . S
C151 C153 1.390 . S
C151 H155 0.950 . S
H152 C148 0.950 . S
C153 C151 1.390 . S
C153 C154 1.387 . S
C153 H156 0.950 . S
C154 C153 1.387 . S
C154 C157 1.387 1_556 S
H155 C151 0.950 . S
H156 C153 0.950 . S
C157 C148 1.390 . S
C157 H150 0.950 . S
C157 C154 1.387 1_554 S
C158 C159 1.387 . S
C158 H162 0.950 . S
C158 C167 1.390 . S
C159 C158 1.387 . S
C159 C161 1.387 . S
H160 C167 0.950 . S
C161 C159 1.387 . S
C161 C163 1.390 . S
C161 H165 0.950 . S
H162 C158 0.950 . S
C163 C161 1.390 . S
C163 C164 1.387 . S
C163 H166 0.950 . S
C164 C163 1.387 . S
C164 C167 1.387 . S
H165 C161 0.950 . S
H166 C163 0.950 . S
C167 C158 1.390 . S
C167 H160 0.950 . S
C167 C164 1.387 . S
C168 C169 1.387 . S
C168 H172 0.950 . S
C168 C177 1.390 . S
C169 C168 1.387 . S
C169 C171 1.387 . S
H170 C177 0.950 . S
C171 C169 1.387 . S
C171 C173 1.390 . S
C171 H175 0.950 . S
H172 C168 0.950 . S
C173 C171 1.390 . S
C173 C174 1.387 . S
C173 H176 0.950 . S
C174 C173 1.387 . S
C174 C177 1.387 . S
H175 C171 0.950 . S
H176 C173 0.950 . S
C177 C168 1.390 . S
C177 H170 0.950 . S
C177 C174 1.387 . S
C178 C179 1.387 . S
C178 H182 0.950 . S
C178 C187 1.390 . S
C179 C178 1.387 . S
C179 C181 1.387 . S
H180 C187 0.950 . S
C181 C179 1.387 . S
C181 C183 1.390 . S
C181 H185 0.950 . S
H182 C178 0.950 . S
C183 C181 1.390 . S
C183 C184 1.387 . S
C183 H186 0.950 . S
C184 C183 1.387 . S
C184 C187 1.387 . S
H185 C181 0.950 . S
H186 C183 0.950 . S
C187 C178 1.390 . S
C187 H180 0.950 . S
C187 C184 1.387 . S
C188 C189 1.387 . S
C188 H192 0.950 . S
C188 C197 1.390 . S
C189 C188 1.387 . S
C189 C191 1.387 . S
H190 C197 0.950 . S
C191 C189 1.387 . S
C191 C193 1.390 . S
C191 H195 0.950 . S
H192 C188 0.950 . S
C193 C191 1.390 . S
C193 C194 1.387 . S
C193 H196 0.950 . S
C194 C193 1.387 . S
C194 C197 1.387 . S
H195 C191 0.950 . S
H196 C193 0.950 . S
C197 C188 1.390 . S
C197 H190 0.950 . S
C197 C194 1.387 . S
C198 C199 1.387 . S
C198 H202 0.950 1_455 S
C198 C207 1.390 . S
C199 C198 1.387 . S
C199 C201 1.387 1_565 S
H200 C207 0.950 . S
C201 C199 1.387 1_545 S
C201 C203 1.390 . S
C201 H205 0.950 . S
H202 C198 0.950 1_655 S
C203 C201 1.390 . S
C203 C204 1.387 . S
C203 H206 0.950 . S
C204 C203 1.387 . S
C204 C207 1.387 1_545 S
H205 C201 0.950 . S
H206 C203 0.950 . S
C207 C198 1.390 . S
C207 H200 0.950 . S
C207 C204 1.387 1_565 S
C208 C209 1.387 . S
C208 H212 0.950 . S
C208 C217 1.390 . S
C209 C208 1.387 . S
C209 C211 1.387 1_455 S
H210 C217 0.950 . S
C211 C209 1.387 1_655 S
C211 C213 1.390 1_565 S
C211 H215 0.950 . S
H212 C208 0.950 . S
C213 C211 1.390 1_545 S
C213 C214 1.388 . S
C213 H216 0.950 . S
C214 C213 1.388 . S
C214 C217 1.384 1_645 S
H215 C211 0.950 . S
H216 C213 0.950 . S
C217 C208 1.390 . S
C217 H210 0.950 . S
C217 C214 1.384 1_465 S
C218 C219 1.387 . S
C218 H222 0.950 . S
C218 C227 1.390 . S
C219 C218 1.387 . S
C219 C221 1.387 . S
H220 C227 0.950 . S
C221 C219 1.387 . S
C221 C223 1.390 . S
C221 H225 0.950 . S
H222 C218 0.950 . S
C223 C221 1.390 . S
C223 C224 1.387 . S
C223 H226 0.950 . S
C224 C223 1.387 . S
C224 C227 1.387 . S
H225 C221 0.950 . S
H226 C223 0.950 . S
C227 C218 1.390 . S
C227 H220 0.950 . S
C227 C224 1.387 . S
C228 C229 1.387 . S
C228 H232 0.950 . S
C228 C237 1.390 . S
C229 C228 1.387 . S
C229 C231 1.387 . S
H230 C237 0.950 . S
C231 C229 1.387 . S
C231 C233 1.390 . S
C231 H235 0.950 . S
H232 C228 0.950 . S
C233 C231 1.390 . S
C233 C234 1.387 . S
C233 H236 0.950 . S
C234 C233 1.387 . S
C234 C237 1.387 . S
H235 C231 0.950 . S
H236 C233 0.950 . S
C237 C228 1.390 . S
C237 H230 0.950 . S
C237 C234 1.387 . S
C124 C105 1.425 . S
C119 C3 1.337 . S
C129 C4 1.416 1_556 S
C134 C91 1.520 1_556 S
C139 C19 1.436 1_554 S
C144 C110 1.523 . S
C149 C7 1.337 . S
C154 C86 1.433 . S
C159 C37 1.333 . S
C164 C67 1.425 . S
C169 C28 1.419 . S
C174 C53 1.517 . S
C184 C72 1.524 . S
C179 C41 1.436 . S
C194 C48 1.432 . S
C189 C25 1.341 . S
C199 C20 1.402 . S
C204 C44 1.533 . S
C209 C16 1.440 1_455 S
C214 C63 1.567 . S
C224 C82 1.535 . S
C219 C40 1.405 . S
C229 C24 1.442 . S
C234 C101 1.569 . S
