# Generated by pormake.
# Topology tsx, (6,3)-cn, num edge types: 1
# Building blocks:
#     Node 0, Type 0, BuildingBlock: MIDCAF_clean_sbu_0, # of connection points: 6
#     Node 1, Type 0, BuildingBlock: MIDCAF_clean_sbu_0, # of connection points: 6
#     Node 2, Type 1, BuildingBlock: BETDIP_clean_linker_0, # of connection points: 3
#     Node 3, Type 1, BuildingBlock: BETDIP_clean_linker_0, # of connection points: 3
#     Node 4, Type 1, BuildingBlock: BETDIP_clean_linker_0, # of connection points: 3
#     Node 5, Type 1, BuildingBlock: BETDIP_clean_linker_0, # of connection points: 3
#     Edge 6, Type (0, 1), BuildingBlock: EYOCIG_clean_linker_4, # of connection points: 2
#     Edge 7, Type (0, 1), BuildingBlock: EYOCIG_clean_linker_4, # of connection points: 2
#     Edge 8, Type (0, 1), BuildingBlock: EYOCIG_clean_linker_4, # of connection points: 2
#     Edge 9, Type (0, 1), BuildingBlock: EYOCIG_clean_linker_4, # of connection points: 2
#     Edge 10, Type (0, 1), BuildingBlock: EYOCIG_clean_linker_4, # of connection points: 2
#     Edge 11, Type (0, 1), BuildingBlock: EYOCIG_clean_linker_4, # of connection points: 2
#     Edge 12, Type (0, 1), BuildingBlock: EYOCIG_clean_linker_4, # of connection points: 2
#     Edge 13, Type (0, 1), BuildingBlock: EYOCIG_clean_linker_4, # of connection points: 2
#     Edge 14, Type (0, 1), BuildingBlock: EYOCIG_clean_linker_4, # of connection points: 2
#     Edge 15, Type (0, 1), BuildingBlock: EYOCIG_clean_linker_4, # of connection points: 2
#     Edge 16, Type (0, 1), BuildingBlock: EYOCIG_clean_linker_4, # of connection points: 2
#     Edge 17, Type (0, 1), BuildingBlock: EYOCIG_clean_linker_4, # of connection points: 2
# Relax obj value: 0.081
# Max RMSD: 0.147
# Mean RMSD: 0.110
data_MOF--net-tsx--node1-MIDCAF_clean_sbu_0--node2-BETDIP_clean_linker_0--edge1-EYOCIG_clean_linker_4
_symmetry_space_group_name_H-M    P1
_symmetry_Int_Tables_number       1
_symmetry_cell_setting            triclinic
loop_
_symmetry_equiv_pos_as_xyz
'x, y, z'
_cell_length_a     15.94464
_cell_length_b     16.935758
_cell_length_c     28.285117
_cell_angle_alpha  90.326321
_cell_angle_beta   106.05096
_cell_angle_gamma 90.043219
loop_
_atom_site_label
_atom_site_type_symbol
_atom_site_fract_x
_atom_site_fract_y
_atom_site_fract_z
_atom_type_partial_charge
Zn0 Zn 0.89917 -0.00291 0.93408 0.0
Zn1 Zn 0.2077 -0.00164 0.06476 0.0
Zn2 Zn 0.05371 -0.00063 -0.00052 0.0
C3 C 0.17559 0.15188 0.02813 0.0
C4 C 0.21878 0.8955 0.99093 0.0
O5 O 0.96239 0.92882 0.0288 0.0
O6 O 0.84863 0.90966 0.96389 0.0
C7 C 0.93214 0.15141 0.97084 0.0
O8 O 0.09836 0.12343 0.01011 0.0
O9 O 0.23749 0.10833 0.05102 0.0
O10 O 0.25839 0.91033 0.03521 0.0
O11 O 0.14502 0.92834 0.97013 0.0
O12 O 0.87008 0.1075 0.94793 0.0
O13 O 0.00926 0.12319 0.98888 0.0
O14 O 0.07221 0.94713 0.93172 0.0
O15 O 0.94672 0.97572 0.87736 0.0
C16 C 0.02388 0.95025 0.88706 0.0
O17 O 0.03523 0.94824 0.06724 0.0
O18 O 0.16065 0.97817 0.12161 0.0
C19 C 0.88849 0.89562 0.00812 0.0
C20 C 0.08356 0.95226 0.1119 0.0
Zn21 Zn 0.70854 0.4988 0.56505 0.0
Zn22 Zn 0.40017 0.49619 0.4342 0.0
Zn23 Zn 0.5546 0.49909 0.49964 0.0
C24 C 0.52525 0.44995 0.38729 0.0
C25 C 0.43224 0.6506 0.47084 0.0
O26 O 0.53623 0.44787 0.56741 0.0
O27 O 0.66137 0.4784 0.62185 0.0
C28 C 0.72032 0.39604 0.4913 0.0
O29 O 0.57354 0.44695 0.43196 0.0
O30 O 0.44797 0.47514 0.37754 0.0
O31 O 0.37039 0.60646 0.44796 0.0
O32 O 0.50949 0.62269 0.48892 0.0
O33 O 0.75975 0.411 0.53559 0.0
O34 O 0.6464 0.42855 0.47043 0.0
O35 O 0.59856 0.62335 0.51015 0.0
O36 O 0.73772 0.60887 0.55119 0.0
C37 C 0.67563 0.65214 0.52818 0.0
O38 O 0.4636 0.42804 0.52894 0.0
O39 O 0.35005 0.40845 0.46398 0.0
C40 C 0.58443 0.45212 0.61209 0.0
C41 C 0.38992 0.3945 0.50822 0.0
H42 H 0.1545 0.01202 0.47828 0.0
H43 H 0.97928 0.04471 0.33316 0.0
H44 H 0.19065 0.88082 0.35445 0.0
H45 H 0.97218 0.16887 0.3629 0.0
C46 C 0.96621 0.15538 0.39928 0.0
C47 C 0.13431 -0.00211 0.43933 0.0
C48 C 0.18064 0.94172 0.41989 0.0
C49 C 0.06228 0.03677 0.40815 0.0
C50 C 0.0357 0.01692 0.35773 0.0
C51 C 0.08207 0.96107 0.33856 0.0
C52 C 0.15432 0.92364 0.36958 0.0
N53 N 0.01699 0.09476 0.42809 0.0
H54 H 0.9582 0.01029 0.52171 0.0
H55 H 0.13406 0.04065 0.66719 0.0
H56 H 0.91861 0.88028 0.64429 0.0
H57 H 0.14653 0.16351 0.63889 0.0
C58 C 0.15054 0.15063 0.60197 0.0
C59 C 0.97801 -0.00402 0.56053 0.0
C60 C 0.93028 0.94065 0.57943 0.0
C61 C 0.05098 0.03381 0.59207 0.0
C62 C 0.07701 0.01372 0.64232 0.0
C63 C 0.02916 0.95879 0.66097 0.0
C64 C 0.95606 0.9224 0.62957 0.0
N65 N 0.09749 0.09114 0.57263 0.0
H66 H 0.65346 0.51196 0.9783 0.0
H67 H 0.47838 0.54369 0.83303 0.0
H68 H 0.69104 0.38117 0.85466 0.0
H69 H 0.46988 0.66759 0.86257 0.0
C70 C 0.4641 0.65416 0.899 0.0
C71 C 0.63351 0.49777 0.93935 0.0
C72 C 0.68034 0.4419 0.92001 0.0
C73 C 0.56123 0.53622 0.90809 0.0
C74 C 0.53496 0.51626 0.85767 0.0
C75 C 0.58186 0.46076 0.8386 0.0
C76 C 0.65432 0.42375 0.86971 0.0
N77 N 0.51542 0.59392 0.92792 0.0
H78 H 0.4574 0.51092 0.02194 0.0
H79 H 0.6337 0.54184 0.16724 0.0
H80 H 0.41962 0.37996 0.14462 0.0
H81 H 0.64444 0.66521 0.13889 0.0
C82 C 0.64867 0.65237 0.102 0.0
C83 C 0.47755 0.49654 0.06075 0.0
C84 C 0.43041 0.44077 0.07972 0.0
C85 C 0.55033 0.53473 0.09222 0.0
C86 C 0.57679 0.51459 0.14245 0.0
C87 C 0.52956 0.45918 0.16116 0.0
C88 C 0.45663 0.42242 0.12984 0.0
N89 N 0.59622 0.5925 0.07272 0.0
C90 C 0.23188 0.2956 0.02277 0.0
C91 C 0.19505 0.23317 0.02175 0.0
C92 C 0.29336 0.35779 0.0324 0.0
C93 C 0.35552 0.4001 0.04895 0.0
C94 C 0.30051 0.79576 0.94754 0.0
C95 C 0.25848 0.84168 0.96432 0.0
C96 C 0.35626 0.7437 0.93157 0.0
C97 C 0.40592 0.70143 0.91804 0.0
C98 C 0.80792 0.79616 0.05195 0.0
C99 C 0.8492 0.84202 0.03481 0.0
C100 C 0.75352 0.74366 0.06852 0.0
C101 C 0.70521 0.7007 0.08254 0.0
C102 C 0.87679 0.29552 0.97633 0.0
C103 C 0.91303 0.23288 0.97724 0.0
C104 C 0.81612 0.35809 0.96692 0.0
C105 C 0.75455 0.40077 0.95057 0.0
C106 C 0.73145 0.79592 0.52252 0.0
C107 C 0.69475 0.73345 0.52161 0.0
C108 C 0.79297 0.85807 0.53204 0.0
C109 C 0.85529 0.90022 0.54858 0.0
C110 C 0.80258 0.29677 0.44793 0.0
C111 C 0.76037 0.34246 0.46474 0.0
C112 C 0.85841 0.2449 0.43189 0.0
C113 C 0.90807 0.2027 0.41831 0.0
C114 C 0.30971 0.29453 0.55194 0.0
C115 C 0.35084 0.34063 0.53487 0.0
C116 C 0.2554 0.24184 0.56843 0.0
C117 C 0.20711 0.19883 0.58245 0.0
C118 C 0.37654 0.79466 0.47615 0.0
C119 C 0.41281 0.73204 0.4771 0.0
C120 C 0.31602 0.85734 0.46671 0.0
C121 C 0.25465 0.90024 0.45036 0.0
C122 C 0.03851 0.92729 0.19259 0.0
C123 C 0.04898 0.93509 0.15234 0.0
C124 C 0.04352 0.9326 0.24301 0.0
C125 C 0.05988 0.94647 0.28642 0.0
C126 C 0.06982 0.92498 0.80649 0.0
C127 C 0.05876 0.93304 0.84664 0.0
C128 C 0.06595 0.93025 0.75624 0.0
C129 C 0.05059 0.94425 0.71299 0.0
C130 C 0.53919 0.4269 0.69269 0.0
C131 C 0.54979 0.43478 0.65248 0.0
C132 C 0.54391 0.43219 0.74309 0.0
C133 C 0.55998 0.44611 0.78647 0.0
C134 C 0.57127 0.42503 0.30672 0.0
C135 C 0.56026 0.43294 0.34689 0.0
C136 C 0.56712 0.43045 0.25644 0.0
C137 C 0.55139 0.44454 0.21319 0.0
loop_
_geom_bond_atom_site_label_1
_geom_bond_atom_site_label_2
_geom_bond_distance
_geom_bond_site_symmetry_2
_ccdc_geom_bond_type
Zn0 O6 1.920 1_545 S
Zn0 O12 1.898 . S
Zn0 O15 1.905 1_545 S
Zn1 O9 1.905 . S
Zn1 O10 1.898 1_545 S
Zn1 O18 1.920 1_545 S
Zn2 O5 2.080 1_444 S
Zn2 O8 2.114 . S
Zn2 O11 2.120 1_545 S
Zn2 O13 2.120 1_455 S
Zn2 O14 2.114 1_554 S
Zn2 O17 2.080 . S
C3 O8 1.166 . S
C3 O9 1.182 . S
C4 O10 1.167 . S
C4 O11 1.299 . S
O5 Zn2 2.080 1_666 S
O5 C19 1.305 . S
O6 Zn0 1.920 1_565 S
O6 C19 1.234 . S
C7 O12 1.167 . S
C7 O13 1.299 1_556 S
O8 Zn2 2.114 . S
O8 C3 1.166 . S
O9 Zn1 1.905 . S
O9 C3 1.182 . S
O10 Zn1 1.898 1_565 S
O10 C4 1.167 . S
O11 Zn2 2.120 1_565 S
O11 C4 1.299 . S
O12 Zn0 1.898 . S
O12 C7 1.167 . S
O13 Zn2 2.120 1_655 S
O13 C7 1.299 1_554 S
O14 Zn2 2.114 1_556 S
O14 C16 1.166 1_445 S
O15 Zn0 1.905 1_565 S
O15 C16 1.182 . S
C16 O14 1.166 1_665 S
C16 O15 1.182 . S
O17 Zn2 2.080 . S
O17 C20 1.305 1_545 S
O18 Zn1 1.920 1_565 S
O18 C20 1.234 . S
C19 O5 1.305 . S
C19 O6 1.234 . S
C20 O17 1.305 1_565 S
C20 O18 1.234 . S
Zn21 O27 1.920 . S
Zn21 O33 1.898 . S
Zn21 O36 1.905 . S
Zn22 O30 1.905 . S
Zn22 O31 1.898 . S
Zn22 O39 1.920 . S
Zn23 O26 2.080 . S
Zn23 O29 2.114 . S
Zn23 O32 2.120 . S
Zn23 O34 2.120 . S
Zn23 O35 2.114 . S
Zn23 O38 2.080 . S
C24 O29 1.166 . S
C24 O30 1.182 . S
C25 O31 1.167 . S
C25 O32 1.299 . S
O26 Zn23 2.080 . S
O26 C40 1.305 . S
O27 Zn21 1.920 . S
O27 C40 1.234 . S
C28 O33 1.167 . S
C28 O34 1.299 . S
O29 Zn23 2.114 . S
O29 C24 1.166 . S
O30 Zn22 1.905 . S
O30 C24 1.182 . S
O31 Zn22 1.898 . S
O31 C25 1.167 . S
O32 Zn23 2.120 . S
O32 C25 1.299 . S
O33 Zn21 1.898 . S
O33 C28 1.167 . S
O34 Zn23 2.120 . S
O34 C28 1.299 . S
O35 Zn23 2.114 . S
O35 C37 1.166 . S
O36 Zn21 1.905 . S
O36 C37 1.182 . S
C37 O35 1.166 . S
C37 O36 1.182 . S
O38 Zn23 2.080 . S
O38 C41 1.305 . S
O39 Zn22 1.920 . S
O39 C41 1.234 . S
C40 O26 1.305 . S
C40 O27 1.234 . S
C41 O38 1.305 . S
C41 O39 1.234 . S
H42 C47 0.930 . S
H43 C50 0.930 . S
H44 C52 0.930 . S
H45 C46 1.016 . S
C46 H45 1.016 . S
C46 N53 1.286 1_655 S
C47 H42 0.930 . S
C47 C48 1.397 . S
C47 C49 1.361 1_565 S
C48 C47 1.397 . S
C48 C52 1.390 . S
C49 C47 1.361 1_545 S
C49 C50 1.393 . S
C49 N53 1.413 . S
C50 H43 0.930 . S
C50 C49 1.393 . S
C50 C51 1.399 . S
C51 C50 1.399 . S
C51 C52 1.381 1_545 S
C52 H44 0.930 . S
C52 C48 1.390 . S
C52 C51 1.381 1_565 S
N53 C46 1.286 1_455 S
N53 C49 1.413 . S
H54 C59 0.930 . S
H55 C62 0.930 . S
H56 C64 0.930 . S
H57 C58 1.016 . S
C58 H57 1.016 . S
C58 N65 1.286 . S
C59 H54 0.930 . S
C59 C60 1.397 . S
C59 C61 1.361 1_665 S
C60 C59 1.397 . S
C60 C64 1.390 . S
C61 C59 1.361 1_445 S
C61 C62 1.393 . S
C61 N65 1.413 . S
C62 H55 0.930 . S
C62 C61 1.393 . S
C62 C63 1.399 1_455 S
C63 C62 1.399 1_655 S
C63 C64 1.381 1_545 S
C64 H56 0.930 . S
C64 C60 1.390 . S
C64 C63 1.381 1_565 S
N65 C58 1.286 . S
N65 C61 1.413 . S
H66 C71 0.930 . S
H67 C74 0.930 . S
H68 C76 0.930 . S
H69 C70 1.016 . S
C70 H69 1.016 . S
C70 N77 1.286 . S
C71 H66 0.930 . S
C71 C72 1.397 . S
C71 C73 1.361 . S
C72 C71 1.397 . S
C72 C76 1.390 . S
C73 C71 1.361 . S
C73 C74 1.393 . S
C73 N77 1.413 . S
C74 H67 0.930 . S
C74 C73 1.393 . S
C74 C75 1.399 . S
C75 C74 1.399 . S
C75 C76 1.381 . S
C76 H68 0.930 . S
C76 C72 1.390 . S
C76 C75 1.381 . S
N77 C70 1.286 . S
N77 C73 1.413 . S
H78 C83 0.930 . S
H79 C86 0.930 . S
H80 C88 0.930 . S
H81 C82 1.016 . S
C82 H81 1.016 . S
C82 N89 1.286 . S
C83 H78 0.930 . S
C83 C84 1.397 . S
C83 C85 1.361 . S
C84 C83 1.397 . S
C84 C88 1.390 . S
C85 C83 1.361 . S
C85 C86 1.393 . S
C85 N89 1.413 . S
C86 H79 0.930 . S
C86 C85 1.393 . S
C86 C87 1.399 . S
C87 C86 1.399 . S
C87 C88 1.381 . S
C88 H80 0.930 . S
C88 C84 1.390 . S
C88 C87 1.381 . S
N89 C82 1.286 . S
N89 C85 1.413 . S
C90 C91 1.170 . S
C90 C92 1.380 . S
C91 C90 1.170 . S
C92 C90 1.380 . S
C92 C93 1.170 . S
C93 C92 1.170 . S
C94 C95 1.170 . S
C94 C96 1.380 . S
C95 C94 1.170 . S
C96 C94 1.380 . S
C96 C97 1.170 . S
C97 C96 1.170 . S
C98 C99 1.170 . S
C98 C100 1.380 . S
C99 C98 1.170 . S
C100 C98 1.380 . S
C100 C101 1.170 . S
C101 C100 1.170 . S
C102 C103 1.170 . S
C102 C104 1.380 . S
C103 C102 1.170 . S
C104 C102 1.380 . S
C104 C105 1.170 . S
C105 C104 1.170 . S
C106 C107 1.170 . S
C106 C108 1.380 . S
C107 C106 1.170 . S
C108 C106 1.380 . S
C108 C109 1.170 . S
C109 C108 1.170 . S
C110 C111 1.170 . S
C110 C112 1.380 . S
C111 C110 1.170 . S
C112 C110 1.380 . S
C112 C113 1.170 . S
C113 C112 1.170 . S
C114 C115 1.170 . S
C114 C116 1.380 . S
C115 C114 1.170 . S
C116 C114 1.380 . S
C116 C117 1.170 . S
C117 C116 1.170 . S
C118 C119 1.170 . S
C118 C120 1.380 . S
C119 C118 1.170 . S
C120 C118 1.380 . S
C120 C121 1.170 . S
C121 C120 1.170 . S
C122 C123 1.170 . S
C122 C124 1.380 1_565 S
C123 C122 1.170 . S
C124 C122 1.380 1_545 S
C124 C125 1.170 . S
C125 C124 1.170 . S
C126 C127 1.170 . S
C126 C128 1.380 . S
C127 C126 1.170 . S
C128 C126 1.380 . S
C128 C129 1.170 1_465 S
C129 C128 1.170 1_645 S
C130 C131 1.170 . S
C130 C132 1.380 . S
C131 C130 1.170 . S
C132 C130 1.380 . S
C132 C133 1.170 . S
C133 C132 1.170 . S
C134 C135 1.170 . S
C134 C136 1.380 . S
C135 C134 1.170 . S
C136 C134 1.380 . S
C136 C137 1.170 . S
C137 C136 1.170 . S
C93 C84 1.361 . S
C91 C3 1.244 . S
C95 C4 1.453 1_556 S
C97 C70 1.514 . S
C99 C19 1.439 1_554 S
C101 C82 1.511 . S
C103 C7 1.263 . S
C105 C72 1.373 . S
C107 C37 1.250 . S
C109 C60 1.363 . S
C111 C28 1.403 . S
C113 C46 1.518 . S
C117 C58 1.524 . S
C115 C41 1.476 . S
C121 C48 1.376 . S
C119 C25 1.272 . S
C123 C20 1.393 . S
C125 C51 1.500 . S
C127 C16 1.421 1_455 S
C129 C63 1.534 . S
C133 C75 1.506 . S
C131 C40 1.401 . S
C135 C24 1.438 . S
C137 C87 1.541 . S
