# Generated by pormake.
# Topology tsx, (6,3)-cn, num edge types: 1
# Building blocks:
#     Node 0, Type 0, BuildingBlock: VOLQOD_clean_sbu_1, # of connection points: 6
#     Node 1, Type 0, BuildingBlock: VOLQOD_clean_sbu_1, # of connection points: 6
#     Node 2, Type 1, BuildingBlock: QEWDON_clean_linker_0, # of connection points: 3
#     Node 3, Type 1, BuildingBlock: QEWDON_clean_linker_0, # of connection points: 3
#     Node 4, Type 1, BuildingBlock: QEWDON_clean_linker_0, # of connection points: 3
#     Node 5, Type 1, BuildingBlock: QEWDON_clean_linker_0, # of connection points: 3
#     Edge 6, Type (0, 1), BuildingBlock: OJICUG_clean_linker_0, # of connection points: 2
#     Edge 7, Type (0, 1), BuildingBlock: OJICUG_clean_linker_0, # of connection points: 2
#     Edge 8, Type (0, 1), BuildingBlock: OJICUG_clean_linker_0, # of connection points: 2
#     Edge 9, Type (0, 1), BuildingBlock: OJICUG_clean_linker_0, # of connection points: 2
#     Edge 10, Type (0, 1), BuildingBlock: OJICUG_clean_linker_0, # of connection points: 2
#     Edge 11, Type (0, 1), BuildingBlock: OJICUG_clean_linker_0, # of connection points: 2
#     Edge 12, Type (0, 1), BuildingBlock: OJICUG_clean_linker_0, # of connection points: 2
#     Edge 13, Type (0, 1), BuildingBlock: OJICUG_clean_linker_0, # of connection points: 2
#     Edge 14, Type (0, 1), BuildingBlock: OJICUG_clean_linker_0, # of connection points: 2
#     Edge 15, Type (0, 1), BuildingBlock: OJICUG_clean_linker_0, # of connection points: 2
#     Edge 16, Type (0, 1), BuildingBlock: OJICUG_clean_linker_0, # of connection points: 2
#     Edge 17, Type (0, 1), BuildingBlock: OJICUG_clean_linker_0, # of connection points: 2
# Relax obj value: 0.079
# Max RMSD: 0.171
# Mean RMSD: 0.146
data_MOF--net-tsx--node1-VOLQOD_clean_sbu_1--node2-QEWDON_clean_linker_0--edge1-OJICUG_clean_linker_0
_symmetry_space_group_name_H-M    P1
_symmetry_Int_Tables_number       1
_symmetry_cell_setting            triclinic
loop_
_symmetry_equiv_pos_as_xyz
'x, y, z'
_cell_length_a     17.221348
_cell_length_b     17.268997
_cell_length_c     28.483576
_cell_angle_alpha  91.593529
_cell_angle_beta   102.37632
_cell_angle_gamma 89.824065
loop_
_atom_site_label
_atom_site_type_symbol
_atom_site_fract_x
_atom_site_fract_y
_atom_site_fract_z
_atom_type_partial_charge
O0 O 0.05509 0.00392 0.09573 0.0
Zn1 Zn 0.07604 0.00769 0.02878 0.0
O2 O -0.01909 0.03655 -0.01483 0.0
Zn3 Zn 0.94749 0.9543 0.93899 0.0
Zn4 Zn 0.89899 0.0532 0.02048 0.0
Zn5 Zn -0.00492 0.12431 0.94849 0.0
O6 O 0.9101 0.99365 0.87283 0.0
O7 O 0.0007 0.08701 0.88103 0.0
O8 O 0.11586 0.90437 0.00712 0.0
O9 O 0.03787 0.88554 0.93456 0.0
O10 O 0.87157 0.88426 0.96126 0.0
O11 O 0.84069 0.95356 0.02134 0.0
O12 O 0.82556 0.1376 -0.01004 0.0
O13 O 0.15783 0.0917 0.03111 0.0
O14 O 0.89674 0.19165 0.94268 0.0
O15 O 0.09747 0.18004 0.98038 0.0
C16 C 0.00416 0.03868 0.11538 0.0
C17 C 0.95359 0.0386 0.85468 0.0
C18 C 0.83734 0.89082 -0.00346 0.0
C19 C 0.09699 0.86685 0.967 0.0
C20 C 0.83385 0.18841 0.95967 0.0
C21 C 0.1574 0.15749 0.01172 0.0
O22 O 0.94458 0.07344 0.09047 0.0
O23 O 0.55691 0.4879 0.59522 0.0
Zn24 Zn 0.58727 0.4998 0.53104 0.0
O25 O 0.49456 0.52991 0.48557 0.0
Zn26 Zn 0.45908 0.44462 0.44216 0.0
Zn27 Zn 0.41454 0.55221 0.5216 0.0
Zn28 Zn 0.51077 0.61659 0.44831 0.0
O29 O 0.42809 0.47803 0.37462 0.0
O30 O 0.51239 0.57726 0.38047 0.0
O31 O 0.63062 0.39818 0.50946 0.0
O32 O 0.5468 0.37214 0.43989 0.0
O33 O 0.38048 0.37992 0.46633 0.0
O34 O 0.35421 0.45425 0.52578 0.0
O35 O 0.34245 0.63653 0.49003 0.0
O36 O 0.66907 0.58534 0.53664 0.0
O37 O 0.41497 0.68779 0.44262 0.0
O38 O 0.61579 0.66913 0.48055 0.0
C39 C 0.51098 0.52974 0.61499 0.0
C40 C 0.46917 0.52436 0.3556 0.0
C41 C 0.34801 0.39009 0.50219 0.0
C42 C 0.60895 0.35714 0.47093 0.0
C43 C 0.35197 0.68653 0.45957 0.0
C44 C 0.67238 0.64862 0.51491 0.0
O45 O 0.46281 0.57738 0.59084 0.0
H46 H 0.94831 0.06116 0.33341 0.0
C47 C -0.01531 0.01141 0.34588 0.0
C48 C 0.02519 0.97132 0.31471 0.0
C49 C -0.00179 0.99263 0.3945 0.0
H50 H 0.10759 0.87886 0.30867 0.0
C51 C 0.07691 0.91062 0.33255 0.0
C52 C 0.09195 0.89219 0.38125 0.0
C53 C 0.05031 0.9319 0.41161 0.0
C54 C 0.97538 0.04668 0.42995 0.0
H55 H 0.06316 0.91967 0.44963 0.0
C56 C 0.88052 0.08188 0.42478 0.0
C57 C 0.84633 0.14534 0.46384 0.0
C58 C 0.05027 0.07402 0.47744 0.0
H59 H 0.10958 0.05027 0.47825 0.0
C60 C -0.00228 0.17008 0.5358 0.0
H61 H 0.83723 0.06231 0.39335 0.0
C62 C 0.89935 0.18759 0.51577 0.0
H63 H 0.8706 0.2277 0.53643 0.0
H64 H 0.02703 0.19992 0.5693 0.0
H65 H 0.04283 0.051 0.64763 0.0
C66 C 0.01547 0.99652 0.63312 0.0
C67 C 0.97699 0.95074 0.66136 0.0
C68 C 0.00923 0.97782 0.58433 0.0
H69 H 0.90508 0.84867 0.66193 0.0
C70 C 0.93585 0.88358 0.6406 0.0
C71 C 0.92803 0.86476 0.59158 0.0
C72 C 0.96668 0.91128 0.564 0.0
C73 C 0.02446 0.03807 0.55203 0.0
H74 H 0.95905 0.89875 0.52575 0.0
C75 C 0.11197 0.08966 0.56121 0.0
C76 C 0.13395 0.16671 0.5287 0.0
C77 C 0.9454 0.06031 0.50681 0.0
H78 H 0.89096 0.02609 0.50351 0.0
C79 C -0.02036 0.17691 0.45833 0.0
H80 H 0.15834 0.07242 0.59104 0.0
C81 C 0.07389 0.20883 0.48073 0.0
H82 H 0.09588 0.25718 0.46393 0.0
H83 H 0.94513 0.20751 0.42762 0.0
H84 H 0.41959 0.54771 0.82597 0.0
C85 C 0.45816 0.50017 0.83987 0.0
C86 C 0.49754 0.45689 0.80932 0.0
C87 C 0.47398 0.4862 0.88928 0.0
H88 H 0.58591 0.36855 0.80664 0.0
C89 C 0.55207 0.39944 0.82913 0.0
C90 C 0.56781 0.38468 0.87833 0.0
C91 C 0.52594 0.42609 0.90774 0.0
C92 C 0.45511 0.54477 0.92363 0.0
H93 H 0.53964 0.4166 0.94612 0.0
C94 C 0.3622 0.58438 0.91928 0.0
C95 C 0.33298 0.65275 0.95755 0.0
C96 C 0.53305 0.57222 0.96927 0.0
H97 H 0.591 0.54566 0.96962 0.0
C98 C 0.48797 0.67569 0.02645 0.0
H99 H 0.31666 0.56406 0.88918 0.0
C100 C 0.39005 0.69659 0.00765 0.0
H101 H 0.36411 0.73952 0.02802 0.0
H102 H 0.52001 0.7067 0.05883 0.0
H103 H 0.54679 0.5487 0.14309 0.0
C104 C 0.51197 0.49824 0.12812 0.0
C105 C 0.47708 0.45148 0.15778 0.0
C106 C 0.49627 0.4837 0.07836 0.0
H107 H 0.39636 0.35588 0.15845 0.0
C108 C 0.42804 0.38902 0.13674 0.0
C109 C 0.41348 0.37306 0.0871 0.0
C110 C 0.44965 0.41952 0.05844 0.0
C111 C 0.51013 0.54404 0.04579 0.0
H112 H 0.43733 0.40858 0.01986 0.0
C113 C 0.5993 0.59163 0.05204 0.0
C114 C 0.62255 0.66441 0.01694 0.0
C115 C 0.43009 0.56658 0.00122 0.0
H116 H 0.37461 0.53482 -0.00032 0.0
C117 C 0.46621 0.67679 0.94863 0.0
H118 H 0.64626 0.57433 0.08152 0.0
C119 C 0.56228 0.70552 0.96859 0.0
H120 H 0.58506 0.75153 0.95024 0.0
H121 H 0.43159 0.70647 0.91756 0.0
C122 C 0.23055 0.28173 0.00659 0.0
C123 C 0.22654 0.21004 0.02816 0.0
H124 H 0.29278 0.38926 0.00824 0.0
C125 C 0.28771 0.19036 0.0673 0.0
H126 H 0.18463 0.29878 0.97639 0.0
C127 C 0.34972 0.2422 0.08551 0.0
C128 C 0.35248 0.31467 0.06479 0.0
H129 H 0.28679 0.13559 0.0848 0.0
H130 H 0.39499 0.22606 0.1163 0.0
C131 C 0.29292 0.33338 0.02463 0.0
C132 C 0.17301 0.79217 0.9158 0.0
C133 C 0.14339 0.79901 0.95801 0.0
H134 H 0.25809 0.73545 0.88154 0.0
C135 C 0.16051 0.7417 -0.00758 0.0
H136 H 0.15903 0.83544 0.88845 0.0
C137 C 0.21292 0.68227 -0.01302 0.0
C138 C 0.25159 0.68182 0.94829 0.0
H139 H 0.13641 0.74501 0.02458 0.0
H140 H 0.23101 0.64261 0.01614 0.0
C141 C 0.22791 0.73407 0.9112 0.0
C142 C 0.75593 0.8293 0.04848 0.0
C143 C 0.79579 0.82325 0.01028 0.0
H144 H 0.67092 0.77763 0.08305 0.0
C145 C 0.79496 0.75201 -0.01492 0.0
H146 H 0.75707 0.88274 0.06945 0.0
C147 C 0.74764 0.69124 -0.00588 0.0
C148 C 0.70036 0.70111 0.02818 0.0
H149 H 0.82676 0.74468 0.95632 0.0
H150 H 0.74061 0.64023 0.97052 0.0
C151 C 0.70847 0.7684 0.05736 0.0
C152 C 0.69432 0.23586 0.95617 0.0
C153 C 0.76675 0.24113 0.94099 0.0
H154 H 0.57426 0.27627 0.94789 0.0
C155 C 0.77303 0.29447 0.90561 0.0
H156 H 0.68724 0.19526 -0.01674 0.0
C157 C 0.70837 0.34041 0.88537 0.0
C158 C 0.63556 0.33424 0.89983 0.0
H159 H 0.82777 0.3004 0.89309 0.0
H160 H 0.71579 0.3815 0.8586 0.0
C161 C 0.62948 0.28211 0.93588 0.0
C162 C 0.80111 0.6824 0.57229 0.0
C163 C 0.74234 0.70051 0.53152 0.0
H164 H 0.90646 0.71922 0.6227 0.0
C165 C 0.74971 0.77003 0.50824 0.0
H166 H 0.79785 0.62923 0.59107 0.0
C167 C 0.81243 0.82143 0.52636 0.0
C168 C 0.86917 0.80473 0.5683 0.0
H169 H 0.70588 0.78585 0.4767 0.0
H170 H 0.81429 0.87597 0.50873 0.0
C171 C 0.86352 0.73396 0.59051 0.0
C172 C 0.67012 0.23079 0.49545 0.0
C173 C 0.65569 0.28972 0.46203 0.0
H174 H 0.73902 0.1306 0.51883 0.0
C175 C 0.68793 0.2847 0.42076 0.0
H176 H 0.64381 0.23278 0.52678 0.0
C177 C 0.74306 0.22675 0.41643 0.0
C178 C 0.76447 0.17305 0.4529 0.0
H179 H 0.67573 0.3292 0.3941 0.0
H180 H 0.77537 0.22953 0.38779 0.0
C181 C 0.72281 0.17151 0.4902 0.0
C182 C 0.26286 0.3358 0.55468 0.0
C183 C 0.30593 0.32472 0.5183 0.0
H184 H 0.17562 0.28874 0.58944 0.0
C185 C 0.30842 0.25027 0.49739 0.0
H186 H 0.26123 0.39193 0.57237 0.0
C187 C 0.26167 0.19063 0.50866 0.0
C188 C 0.21126 0.20475 0.54054 0.0
H189 H 0.34283 0.2391 0.47025 0.0
H190 H 0.25757 0.13653 0.48802 0.0
C191 C 0.2157 0.2761 0.56564 0.0
C192 C 0.21401 0.73768 0.45654 0.0
C193 C 0.28629 0.74096 0.44107 0.0
H194 H 0.09554 0.78168 0.44931 0.0
C195 C 0.29377 0.79428 0.40591 0.0
H196 H 0.20594 0.69711 0.48343 0.0
C197 C 0.2305 0.84251 0.38639 0.0
C198 C 0.15792 0.83867 0.40138 0.0
H199 H 0.34845 0.79864 0.39314 0.0
H200 H 0.23897 0.8837 0.35992 0.0
C201 C 0.1506 0.78608 0.43697 0.0
C202 C 0.94248 0.03596 0.18738 0.0
C203 C 0.01058 0.03178 0.16758 0.0
H204 H 0.89321 0.01848 0.24936 0.0
C205 C 0.08394 0.0138 0.19734 0.0
H206 H 0.88497 0.0494 0.16515 0.0
C207 C 0.08876 0.99715 0.24544 0.0
C208 C 0.02004 0.99656 0.26472 0.0
H209 H 0.13756 0.01118 0.18323 0.0
H210 H 0.14645 0.98349 0.26736 0.0
C211 C 0.94712 0.01818 0.23554 0.0
C212 C 0.89202 0.99198 0.7717 0.0
C213 C 0.95705 0.02566 0.80382 0.0
H214 H 0.84643 0.94447 0.70141 0.0
C215 C 0.02796 0.03842 0.78825 0.0
H216 H 0.83646 0.98208 0.78266 0.0
C217 C 0.03474 0.01446 0.74196 0.0
C218 C 0.9704 0.97817 0.7103 0.0
H219 H 0.07933 0.06361 0.81252 0.0
H220 H 0.091 0.02236 0.7315 0.0
C221 C 0.8983 0.96932 0.72536 0.0
C222 C 0.50378 0.43551 0.67777 0.0
C223 C 0.50378 0.51287 0.66416 0.0
H224 H 0.49602 0.35706 0.73305 0.0
C225 C 0.49336 0.57211 0.69694 0.0
H226 H 0.50911 0.38869 0.65253 0.0
C227 C 0.48802 0.55419 0.74382 0.0
C228 C 0.49082 0.47655 0.75808 0.0
H229 H 0.49209 0.63218 0.68682 0.0
H230 H 0.48491 0.60127 0.76924 0.0
C231 C 0.49603 0.4175 0.72387 0.0
C232 C 0.47952 0.56752 0.27378 0.0
C233 C 0.47532 0.50796 0.3056 0.0
H234 H 0.48109 0.59672 0.20147 0.0
C235 C 0.47875 0.43061 0.28981 0.0
H236 H 0.47767 0.62762 0.28543 0.0
C237 C 0.48399 0.41277 0.24265 0.0
C238 C 0.48353 0.47181 0.20961 0.0
H239 H 0.47791 0.38361 0.31415 0.0
H240 H 0.48702 0.35237 0.23189 0.0
C241 C 0.48252 0.54962 0.22592 0.0
loop_
_geom_bond_atom_site_label_1
_geom_bond_atom_site_label_2
_geom_bond_distance
_geom_bond_site_symmetry_2
_ccdc_geom_bond_type
O0 Zn1 1.953 . S
O0 C16 1.225 1_565 S
Zn1 O0 1.953 . S
Zn1 O2 1.949 1_565 S
Zn1 O8 1.919 . S
Zn1 O13 1.924 1_565 S
O2 Zn1 1.949 1_545 S
O2 Zn3 1.923 1_444 S
O2 Zn4 1.950 1_455 S
O2 Zn5 1.945 1_554 S
Zn3 O2 1.923 1_666 S
Zn3 O6 1.933 . S
Zn3 O9 1.941 1_655 S
Zn3 O10 1.965 . S
Zn4 O2 1.950 1_655 S
Zn4 O11 1.938 1_545 S
Zn4 O12 1.906 . S
Zn4 O22 1.953 . S
Zn5 O2 1.945 1_556 S
Zn5 O7 1.932 . S
Zn5 O14 1.977 1_455 S
Zn5 O15 1.910 . S
O6 Zn3 1.933 . S
O6 C17 1.226 1_565 S
O7 Zn5 1.932 . S
O7 C17 1.307 1_455 S
O8 Zn1 1.919 . S
O8 C19 1.253 . S
O9 Zn3 1.941 1_455 S
O9 C19 1.283 1_556 S
O10 Zn3 1.965 . S
O10 C18 1.303 1_556 S
O11 Zn4 1.938 1_565 S
O11 C18 1.247 . S
O12 Zn4 1.906 . S
O12 C20 1.304 1_554 S
O13 Zn1 1.924 1_545 S
O13 C21 1.311 . S
O14 Zn5 1.977 1_655 S
O14 C20 1.272 . S
O15 Zn5 1.910 . S
O15 C21 1.231 1_556 S
C16 O0 1.225 1_545 S
C16 O22 1.298 1_455 S
C17 O6 1.226 1_545 S
C17 O7 1.307 1_655 S
C18 O10 1.303 1_554 S
C18 O11 1.247 . S
C19 O8 1.253 . S
C19 O9 1.283 1_554 S
C20 O12 1.304 1_556 S
C20 O14 1.272 . S
C21 O13 1.311 . S
C21 O15 1.231 1_554 S
O22 Zn4 1.953 . S
O22 C16 1.298 1_655 S
O23 Zn24 1.953 . S
O23 C39 1.225 . S
Zn24 O23 1.953 . S
Zn24 O25 1.949 . S
Zn24 O31 1.919 . S
Zn24 O36 1.924 . S
O25 Zn24 1.949 . S
O25 Zn26 1.923 . S
O25 Zn27 1.950 . S
O25 Zn28 1.945 . S
Zn26 O25 1.923 . S
Zn26 O29 1.933 . S
Zn26 O32 1.941 . S
Zn26 O33 1.965 . S
Zn27 O25 1.950 . S
Zn27 O34 1.938 . S
Zn27 O35 1.906 . S
Zn27 O45 1.953 . S
Zn28 O25 1.945 . S
Zn28 O30 1.932 . S
Zn28 O37 1.977 . S
Zn28 O38 1.910 . S
O29 Zn26 1.933 . S
O29 C40 1.226 . S
O30 Zn28 1.932 . S
O30 C40 1.307 . S
O31 Zn24 1.919 . S
O31 C42 1.253 . S
O32 Zn26 1.941 . S
O32 C42 1.283 . S
O33 Zn26 1.965 . S
O33 C41 1.303 . S
O34 Zn27 1.938 . S
O34 C41 1.247 . S
O35 Zn27 1.906 . S
O35 C43 1.304 . S
O36 Zn24 1.924 . S
O36 C44 1.311 . S
O37 Zn28 1.977 . S
O37 C43 1.272 . S
O38 Zn28 1.910 . S
O38 C44 1.231 . S
C39 O23 1.225 . S
C39 O45 1.298 . S
C40 O29 1.226 . S
C40 O30 1.307 . S
C41 O33 1.303 . S
C41 O34 1.247 . S
C42 O31 1.253 . S
C42 O32 1.283 . S
C43 O35 1.304 . S
C43 O37 1.272 . S
C44 O36 1.311 . S
C44 O38 1.231 . S
O45 Zn27 1.953 . S
O45 C39 1.298 . S
H46 C47 0.949 1_655 S
C47 H46 0.949 1_455 S
C47 C48 1.395 1_545 S
C47 C49 1.391 . S
C48 C47 1.395 1_565 S
C48 C51 1.390 . S
C49 C47 1.391 . S
C49 C53 1.387 1_545 S
C49 C54 1.491 . S
H50 C51 0.950 . S
C51 C48 1.390 . S
C51 H50 0.950 . S
C51 C52 1.378 . S
C52 C51 1.378 . S
C52 C53 1.409 . S
C53 C49 1.387 1_565 S
C53 C52 1.409 . S
C53 H55 0.951 . S
C54 C49 1.491 . S
C54 C56 1.382 1_455 S
C54 C58 1.404 . S
H55 C53 0.951 . S
C56 C54 1.382 1_655 S
C56 C57 1.390 . S
C56 H61 0.949 . S
C57 C56 1.390 . S
C57 C62 1.399 . S
C58 C54 1.404 . S
C58 H59 0.950 . S
C58 C60 1.375 . S
H59 C58 0.950 . S
C60 C58 1.375 . S
C60 C62 1.382 1_455 S
C60 H64 0.950 . S
H61 C56 0.949 . S
C62 C57 1.399 . S
C62 C60 1.382 1_655 S
C62 H63 0.952 . S
H63 C62 0.952 . S
H64 C60 0.950 . S
H65 C66 0.949 . S
C66 H65 0.949 . S
C66 C67 1.395 1_445 S
C66 C68 1.391 1_455 S
C67 C66 1.395 1_665 S
C67 C70 1.390 . S
C68 C66 1.391 1_655 S
C68 C72 1.387 1_545 S
C68 C73 1.491 1_655 S
H69 C70 0.950 . S
C70 C67 1.390 . S
C70 H69 0.950 . S
C70 C71 1.378 . S
C71 C70 1.378 . S
C71 C72 1.409 . S
C72 C68 1.387 1_565 S
C72 C71 1.409 . S
C72 H74 0.951 . S
C73 C68 1.491 1_455 S
C73 C75 1.382 . S
C73 C77 1.404 1_455 S
H74 C72 0.951 . S
C75 C73 1.382 . S
C75 C76 1.390 . S
C75 H80 0.949 . S
C76 C75 1.390 . S
C76 C81 1.399 . S
C77 C73 1.404 1_655 S
C77 H78 0.950 . S
C77 C79 1.375 . S
H78 C77 0.950 . S
C79 C77 1.375 . S
C79 C81 1.382 1_655 S
C79 H83 0.950 . S
H80 C75 0.949 . S
C81 C76 1.399 . S
C81 C79 1.382 1_455 S
C81 H82 0.952 . S
H82 C81 0.952 . S
H83 C79 0.950 . S
H84 C85 0.949 . S
C85 H84 0.949 . S
C85 C86 1.395 . S
C85 C87 1.391 . S
C86 C85 1.395 . S
C86 C89 1.390 . S
C87 C85 1.391 . S
C87 C91 1.387 . S
C87 C92 1.491 . S
H88 C89 0.950 . S
C89 C86 1.390 . S
C89 H88 0.950 . S
C89 C90 1.378 . S
C90 C89 1.378 . S
C90 C91 1.409 . S
C91 C87 1.387 . S
C91 C90 1.409 . S
C91 H93 0.951 . S
C92 C87 1.491 . S
C92 C94 1.382 . S
C92 C96 1.404 1_556 S
H93 C91 0.951 . S
C94 C92 1.382 . S
C94 C95 1.390 . S
C94 H99 0.949 . S
C95 C94 1.390 . S
C95 C100 1.399 1_556 S
C96 C92 1.404 1_554 S
C96 H97 0.950 . S
C96 C98 1.375 . S
H97 C96 0.950 . S
C98 C96 1.375 . S
C98 C100 1.382 . S
C98 H102 0.950 . S
H99 C94 0.949 . S
C100 C95 1.399 1_554 S
C100 C98 1.382 . S
C100 H101 0.952 . S
H101 C100 0.952 . S
H102 C98 0.950 . S
H103 C104 0.949 . S
C104 H103 0.949 . S
C104 C105 1.395 . S
C104 C106 1.391 . S
C105 C104 1.395 . S
C105 C108 1.390 . S
C106 C104 1.391 . S
C106 C110 1.387 . S
C106 C111 1.491 . S
H107 C108 0.950 . S
C108 C105 1.390 . S
C108 H107 0.950 . S
C108 C109 1.378 . S
C109 C108 1.378 . S
C109 C110 1.409 . S
C110 C106 1.387 . S
C110 C109 1.409 . S
C110 H112 0.951 . S
C111 C106 1.491 . S
C111 C113 1.382 . S
C111 C115 1.413 . S
H112 C110 0.951 . S
C113 C111 1.382 . S
C113 C114 1.390 . S
C113 H118 0.949 . S
C114 C113 1.390 . S
C114 C119 1.399 1_554 S
C115 C111 1.413 . S
C115 H116 0.949 1_554 S
C115 C117 1.366 1_554 S
H116 C115 0.949 1_556 S
C117 C115 1.366 1_556 S
C117 C119 1.382 . S
C117 H121 0.950 . S
H118 C113 0.949 . S
C119 C114 1.399 1_556 S
C119 C117 1.382 . S
C119 H120 0.952 . S
H120 C119 0.952 . S
H121 C117 0.950 . S
C122 C123 1.387 . S
C122 H126 0.950 1_554 S
C122 C131 1.390 . S
C123 C122 1.387 . S
C123 C125 1.387 . S
H124 C131 0.950 1_556 S
C125 C123 1.387 . S
C125 C127 1.390 . S
C125 H129 0.950 . S
H126 C122 0.950 1_556 S
C127 C125 1.390 . S
C127 C128 1.387 . S
C127 H130 0.950 . S
C128 C127 1.387 . S
C128 C131 1.387 . S
H129 C125 0.950 . S
H130 C127 0.950 . S
C131 C122 1.390 . S
C131 H124 0.950 1_554 S
C131 C128 1.387 . S
C132 C133 1.387 . S
C132 H136 0.950 . S
C132 C141 1.390 . S
C133 C132 1.387 . S
C133 C135 1.387 1_556 S
H134 C141 0.950 . S
C135 C133 1.387 1_554 S
C135 C137 1.390 . S
C135 H139 0.950 . S
H136 C132 0.950 . S
C137 C135 1.390 . S
C137 C138 1.387 1_554 S
C137 H140 0.950 . S
C138 C137 1.387 1_556 S
C138 C141 1.387 . S
H139 C135 0.950 . S
H140 C137 0.950 . S
C141 C132 1.390 . S
C141 H134 0.950 . S
C141 C138 1.387 . S
C142 C143 1.387 . S
C142 H146 0.950 . S
C142 C151 1.390 . S
C143 C142 1.387 . S
C143 C145 1.387 1_554 S
H144 C151 0.950 . S
C145 C143 1.387 1_556 S
C145 C147 1.390 . S
C145 H149 0.950 . S
H146 C142 0.950 . S
C147 C145 1.390 . S
C147 C148 1.387 1_556 S
C147 H150 0.950 . S
C148 C147 1.387 1_554 S
C148 C151 1.387 . S
H149 C145 0.950 . S
H150 C147 0.950 . S
C151 C142 1.390 . S
C151 H144 0.950 . S
C151 C148 1.387 . S
C152 C153 1.387 . S
C152 H156 0.950 . S
C152 C161 1.390 . S
C153 C152 1.387 . S
C153 C155 1.406 . S
H154 C161 0.950 . S
C155 C153 1.406 . S
C155 C157 1.391 . S
C155 H159 0.931 1_556 S
H156 C152 0.950 . S
C157 C155 1.391 . S
C157 C158 1.387 . S
C157 H160 0.950 1_556 S
C158 C157 1.387 . S
C158 C161 1.387 . S
H159 C155 0.931 1_554 S
H160 C157 0.950 1_554 S
C161 C152 1.390 . S
C161 H154 0.950 . S
C161 C158 1.387 . S
C162 C163 1.387 . S
C162 H166 0.950 . S
C162 C171 1.390 . S
C163 C162 1.387 . S
C163 C165 1.387 . S
H164 C171 0.950 . S
C165 C163 1.387 . S
C165 C167 1.390 . S
C165 H169 0.950 . S
H166 C162 0.950 . S
C167 C165 1.390 . S
C167 C168 1.387 . S
C167 H170 0.950 . S
C168 C167 1.387 . S
C168 C171 1.387 . S
H169 C165 0.950 . S
H170 C167 0.950 . S
C171 C162 1.390 . S
C171 H164 0.950 . S
C171 C168 1.387 . S
C172 C173 1.387 . S
C172 H176 0.950 . S
C172 C181 1.390 . S
C173 C172 1.387 . S
C173 C175 1.387 . S
H174 C181 0.950 . S
C175 C173 1.387 . S
C175 C177 1.390 . S
C175 H179 0.950 . S
H176 C172 0.950 . S
C177 C175 1.390 . S
C177 C178 1.387 . S
C177 H180 0.950 . S
C178 C177 1.387 . S
C178 C181 1.387 . S
H179 C175 0.950 . S
H180 C177 0.950 . S
C181 C172 1.390 . S
C181 H174 0.950 . S
C181 C178 1.387 . S
C182 C183 1.387 . S
C182 H186 0.950 . S
C182 C191 1.390 . S
C183 C182 1.387 . S
C183 C185 1.387 . S
H184 C191 0.950 . S
C185 C183 1.387 . S
C185 C187 1.390 . S
C185 H189 0.950 . S
H186 C182 0.950 . S
C187 C185 1.390 . S
C187 C188 1.387 . S
C187 H190 0.950 . S
C188 C187 1.387 . S
C188 C191 1.387 . S
H189 C185 0.950 . S
H190 C187 0.950 . S
C191 C182 1.390 . S
C191 H184 0.950 . S
C191 C188 1.387 . S
C192 C193 1.387 . S
C192 H196 0.950 . S
C192 C201 1.390 . S
C193 C192 1.387 . S
C193 C195 1.387 . S
H194 C201 0.950 . S
C195 C193 1.387 . S
C195 C197 1.390 . S
C195 H199 0.950 . S
H196 C192 0.950 . S
C197 C195 1.390 . S
C197 C198 1.387 . S
C197 H200 0.950 . S
C198 C197 1.387 . S
C198 C201 1.387 . S
H199 C195 0.950 . S
H200 C197 0.950 . S
C201 C192 1.390 . S
C201 H194 0.950 . S
C201 C198 1.387 . S
C202 C203 1.381 1_645 S
C202 H206 0.950 . S
C202 C211 1.390 . S
C203 C202 1.381 1_465 S
C203 C205 1.395 . S
H204 C211 0.950 . S
C205 C203 1.395 . S
C205 C207 1.390 . S
C205 H209 0.950 . S
H206 C202 0.950 . S
C207 C205 1.390 . S
C207 C208 1.387 . S
C207 H210 0.950 . S
C208 C207 1.387 . S
C208 C211 1.387 1_465 S
H209 C205 0.950 . S
H210 C207 0.950 . S
C211 C202 1.390 . S
C211 H204 0.950 . S
C211 C208 1.387 1_645 S
C212 C213 1.390 . S
C212 H216 0.950 . S
C212 C221 1.390 . S
C213 C212 1.390 . S
C213 C215 1.385 1_645 S
H214 C221 0.950 . S
C215 C213 1.385 1_465 S
C215 C217 1.390 . S
C215 H219 0.950 . S
H216 C212 0.950 . S
C217 C215 1.390 . S
C217 C218 1.387 1_455 S
C217 H220 0.950 . S
C218 C217 1.387 1_655 S
C218 C221 1.387 1_565 S
H219 C215 0.950 . S
H220 C217 0.950 . S
C221 C212 1.390 . S
C221 H214 0.950 . S
C221 C218 1.387 1_545 S
C222 C223 1.387 . S
C222 H226 0.950 . S
C222 C231 1.390 . S
C223 C222 1.387 . S
C223 C225 1.387 . S
H224 C231 0.950 . S
C225 C223 1.387 . S
C225 C227 1.390 . S
C225 H229 0.950 . S
H226 C222 0.950 . S
C227 C225 1.390 . S
C227 C228 1.387 . S
C227 H230 0.950 . S
C228 C227 1.387 . S
C228 C231 1.387 . S
H229 C225 0.950 . S
H230 C227 0.950 . S
C231 C222 1.390 . S
C231 H224 0.950 . S
C231 C228 1.387 . S
C232 C233 1.387 . S
C232 H236 0.950 . S
C232 C241 1.390 . S
C233 C232 1.387 . S
C233 C235 1.387 . S
H234 C241 0.950 . S
C235 C233 1.387 . S
C235 C237 1.390 . S
C235 H239 0.950 . S
H236 C232 0.950 . S
C237 C235 1.390 . S
C237 C238 1.387 . S
C237 H240 0.950 . S
C238 C237 1.387 . S
C238 C241 1.387 . S
H239 C235 0.950 . S
H240 C237 0.950 . S
C241 C232 1.390 . S
C241 H234 0.950 . S
C241 C238 1.387 . S
C128 C109 1.570 . S
C123 C21 1.560 . S
C133 C19 1.438 1_556 S
C138 C95 1.395 . S
C143 C18 1.406 . S
C148 C114 1.380 . S
C153 C20 1.541 . S
C158 C90 1.562 . S
C163 C44 1.561 . S
C168 C71 1.570 . S
C173 C42 1.439 . S
C178 C57 1.398 . S
C188 C76 1.380 . S
C183 C41 1.406 . S
C198 C52 1.562 . S
C193 C43 1.543 . S
C203 C16 1.563 1_565 S
C208 C48 1.556 . S
C213 C17 1.528 . S
C218 C67 1.521 . S
C228 C86 1.555 . S
C223 C39 1.563 . S
C233 C40 1.528 . S
C238 C105 1.521 . S
