# Generated by pormake.
# Topology pth, (4,4)-cn, num edge types: 1
# Building blocks:
#     Node 0, Type 0, BuildingBlock: TATPOV_clean_sbu_0, # of connection points: 4
#     Node 1, Type 0, BuildingBlock: TATPOV_clean_sbu_0, # of connection points: 4
#     Node 2, Type 0, BuildingBlock: TATPOV_clean_sbu_0, # of connection points: 4
#     Node 3, Type 1, BuildingBlock: NAWXER_clean_linker_0, # of connection points: 4
#     Node 4, Type 1, BuildingBlock: NAWXER_clean_linker_0, # of connection points: 4
#     Node 5, Type 1, BuildingBlock: NAWXER_clean_linker_0, # of connection points: 4
#     Edge 6, Type (0, 1), None
#     Edge 7, Type (0, 1), None
#     Edge 8, Type (0, 1), None
#     Edge 9, Type (0, 1), None
#     Edge 10, Type (0, 1), None
#     Edge 11, Type (0, 1), None
#     Edge 12, Type (0, 1), None
#     Edge 13, Type (0, 1), None
#     Edge 14, Type (0, 1), None
#     Edge 15, Type (0, 1), None
#     Edge 16, Type (0, 1), None
#     Edge 17, Type (0, 1), None
# Relax obj value: 0.038
# Max RMSD: 0.164
# Mean RMSD: 0.080
data_MOF--net-pth--node1-TATPOV_clean_sbu_0--node2-NAWXER_clean_linker_0--edge1-none
_symmetry_space_group_name_H-M    P1
_symmetry_Int_Tables_number       1
_symmetry_cell_setting            triclinic
loop_
_symmetry_equiv_pos_as_xyz
'x, y, z'
_cell_length_a     16.348375
_cell_length_b     16.203511
_cell_length_c     33.305018
_cell_angle_alpha  92.923723
_cell_angle_beta   91.808196
_cell_angle_gamma 120.59044
loop_
_atom_site_label
_atom_site_type_symbol
_atom_site_fract_x
_atom_site_fract_y
_atom_site_fract_z
_atom_type_partial_charge
Zn0 Zn 0.10112 0.95874 1.00901 0.0
Zn1 Zn 0.00955 0.02576 0.04919 0.0
O2 O 0.02666 0.93624 0.08693 0.0
O3 O 0.10939 0.88593 0.05378 0.0
O4 O 0.96654 0.09837 0.08562 0.0
O5 O 0.21052 0.08685 0.99785 0.0
O6 O 0.12101 0.13905 0.02315 0.0
C7 C 0.0657 0.88522 0.08452 0.0
C8 C 0.90601 0.89255 0.97675 0.0
O9 O 0.9022 0.94216 1.00681 0.0
O10 O -0.01798 0.89175 0.97115 0.0
C11 C 0.02566 0.15062 0.11482 0.0
O12 O 0.10442 0.14828 0.12021 0.0
C13 C 0.1948 0.15455 1.00534 0.0
Zn14 Zn 0.19699 0.15533 0.35616 0.0
Zn15 Zn 0.03858 0.06625 0.39171 0.0
O16 O 0.14262 0.08376 0.43462 0.0
O17 O 0.27586 0.15937 0.40388 0.0
O18 O 0.92241 0.02706 0.42324 0.0
O19 O 0.18531 0.26741 0.34156 0.0
O20 O 0.04177 0.17661 0.36199 0.0
C21 C 0.23237 0.11937 0.43433 0.0
C22 C 0.06352 0.95779 0.32309 0.0
O23 O 0.01175 0.9549 0.35147 0.0
O24 O 0.14071 0.03492 0.31821 0.0
C25 C 0.93073 0.0914 0.44941 0.0
O26 O 0.01295 0.17237 0.45502 0.0
C27 C 0.10147 0.25038 0.34495 0.0
Zn28 Zn 0.06789 0.86071 0.75986 0.0
Zn29 Zn -0.00109 0.94153 0.71298 0.0
O30 O 0.08323 0.91753 0.67586 0.0
O31 O 0.14907 0.85969 0.71544 0.0
O32 O 0.9326 -0.01862 0.67439 0.0
O33 O 0.93592 0.74964 0.76896 0.0
O34 O 0.88517 0.83416 0.73867 0.0
C35 C 0.14185 0.88917 0.68177 0.0
C36 C 0.12428 0.05905 0.786 0.0
O37 O 0.07965 0.05563 0.75333 0.0
O38 O 0.12512 -0.01498 0.79615 0.0
C39 C 0.89195 0.02665 0.68575 0.0
O40 O 0.89956 0.05516 0.72404 0.0
C41 C 0.86866 0.76313 0.75868 0.0
C42 C -0.02077 0.26374 0.30374 0.0
C43 C 0.06992 0.3084 0.32421 0.0
C44 C 0.95489 0.31532 0.27842 0.0
C45 C 0.02016 0.41258 0.27417 0.0
C46 C 0.13383 0.40641 0.32072 0.0
C47 C 0.10845 0.45847 0.2964 0.0
C48 C 0.00016 0.46734 0.24555 0.0
C49 C 0.08022 0.27961 0.17107 0.0
C50 C 0.01174 0.22021 0.13998 0.0
C51 C 0.07289 0.35174 0.1925 0.0
C52 C -0.00389 0.36524 0.18378 0.0
C53 C 0.93412 0.23288 0.13166 0.0
C54 C 0.92679 0.30514 0.15321 0.0
C55 C -0.00705 0.44776 0.20333 0.0
C56 C 0.10207 0.76772 0.11369 0.0
C57 C 0.05069 0.81574 0.11476 0.0
C58 C 0.08182 0.69453 0.13894 0.0
C59 C 0.01005 0.66773 0.166 0.0
C60 C -0.02147 0.78889 0.14185 0.0
C61 C 0.95781 0.71488 0.16703 0.0
C62 C -0.00448 0.59431 0.19421 0.0
C63 C 0.96053 0.78029 0.30476 0.0
C64 C 0.04019 0.8697 0.29804 0.0
C65 C 0.94584 0.69615 0.28397 0.0
C66 C 0.00998 0.70038 0.25598 0.0
C67 C 0.10332 0.87341 0.26945 0.0
C68 C 0.08899 0.78952 0.24902 0.0
C69 C -0.00171 0.61112 0.23638 0.0
H70 H 0.92913 0.18783 0.30564 0.0
H71 H 0.88629 0.27908 0.26158 0.0
H72 H 0.20413 0.4422 0.33611 0.0
H73 H 0.15958 0.53371 0.29346 0.0
H74 H 0.14134 0.27246 0.17813 0.0
H75 H 0.12932 0.39918 0.21482 0.0
H76 H 0.88041 0.18878 0.10779 0.0
H77 H 0.86766 0.31515 0.14556 0.0
H78 H 0.15765 0.78604 0.09302 0.0
H79 H 0.12355 0.65979 0.13776 0.0
H80 H 0.93647 0.82325 0.14287 0.0
H81 H 0.9012 0.69463 0.1873 0.0
H82 H 0.91107 0.77495 0.3268 0.0
H83 H 0.8851 0.62762 0.29007 0.0
H84 H 0.16591 0.94086 0.26373 0.0
H85 H 0.1409 0.79415 0.22843 0.0
N86 N 0.00153 0.5476 0.26041 0.0
N87 N -0.00827 0.51257 0.1793 0.0
C88 C 0.8627 0.14491 0.5042 0.0
C89 C 0.84883 0.07845 0.47198 0.0
C90 C 0.7858 0.13443 0.52526 0.0
C91 C 0.69349 0.05732 0.51454 0.0
C92 C 0.75602 0.00198 0.46096 0.0
C93 C 0.67891 -0.00796 0.48186 0.0
C94 C 0.61239 0.0428 0.53793 0.0
C95 C 0.79879 -0.01817 0.61934 0.0
C96 C 0.82679 0.03531 0.65697 0.0
C97 C 0.72962 -0.01831 0.59368 0.0
C98 C 0.68904 0.03705 0.60471 0.0
C99 C 0.78659 0.09116 0.66784 0.0
C100 C 0.71829 0.09194 0.64191 0.0
C101 C 0.61056 0.0325 0.57965 0.0
C102 C 0.20009 0.89212 0.61248 0.0
C103 C 0.21838 0.9157 0.65421 0.0
C104 C 0.276 0.92372 0.58722 0.0
C105 C 0.37076 -0.01631 0.60321 0.0
C106 C 0.3125 0.97412 0.67011 0.0
C107 C 0.38743 0.00868 0.64495 0.0
C108 C 0.4546 0.01124 0.57896 0.0
C109 C 0.29732 0.12147 0.50424 0.0
C110 C 0.28121 0.09051 0.46317 0.0
C111 C 0.35232 0.09864 0.52948 0.0
C112 C 0.38903 0.04221 0.514 0.0
C113 C 0.31602 0.03272 0.44809 0.0
C114 C 0.3688 0.00844 0.47322 0.0
C115 C 0.45942 0.02914 0.53767 0.0
H116 H 0.93314 0.20497 0.51334 0.0
H117 H 0.79844 0.18624 0.55011 0.0
H118 H 0.74283 0.95015 0.43605 0.0
H119 H 0.60808 0.93218 0.47307 0.0
H120 H 0.82758 0.93705 0.61029 0.0
H121 H 0.70594 0.936 0.56586 0.0
H122 H 0.80656 0.13287 0.69664 0.0
H123 H 0.68718 0.1345 0.65118 0.0
H124 H 0.12762 0.84767 0.59965 0.0
H125 H 0.26031 0.89929 0.55558 0.0
H126 H 0.32816 -0.00484 0.70212 0.0
H127 H 0.45915 0.05428 0.65847 0.0
H128 H 0.27122 0.16649 0.5163 0.0
H129 H 0.36922 0.12828 0.56052 0.0
H130 H 0.30359 0.00747 0.41648 0.0
H131 H 0.39645 0.96545 0.46037 0.0
N132 N 0.53733 0.04177 0.51869 0.0
N133 N 0.53151 0.01576 0.59813 0.0
C134 C 0.24163 0.15748 0.84356 0.0
C135 C 0.18361 0.1516 0.81014 0.0
C136 C 0.30865 0.24657 0.86269 0.0
C137 C 0.31755 0.33135 0.84937 0.0
C138 C 0.19041 0.23641 0.79772 0.0
C139 C 0.25727 0.32559 0.81708 0.0
C140 C 0.39775 0.42592 0.86512 0.0
C141 C 0.21079 0.28634 0.9649 0.0
C142 C 0.2541 0.24626 0.98755 0.0
C143 C 0.26439 0.35915 0.93973 0.0
C144 C 0.36212 0.39407 0.93784 0.0
C145 C 0.35275 0.28518 0.98729 0.0
C146 C 0.40668 0.35986 0.96316 0.0
C147 C 0.41699 0.45707 0.90651 0.0
C148 C 0.73254 0.82201 0.95654 0.0
C149 C 0.81957 0.82679 0.95069 0.0
C150 C 0.64869 0.74969 0.9357 0.0
C151 C 0.65072 0.68158 0.90862 0.0
C152 C 0.82162 0.76053 0.92238 0.0
C153 C 0.73795 0.68785 0.90211 0.0
C154 C 0.56073 0.59693 0.89178 0.0
C155 C 0.73942 0.60998 0.7829 0.0
C156 C 0.77522 0.70656 0.77557 0.0
C157 C 0.65868 0.56156 0.80475 0.0
C158 C 0.6151 0.61024 0.82092 0.0
C159 C 0.72677 0.75276 0.78904 0.0
C160 C 0.64797 0.70531 0.81207 0.0
C161 C 0.543 0.56415 0.85054 0.0
H162 H 0.2387 0.09369 0.85378 0.0
H163 H 0.35666 0.24922 0.88653 0.0
H164 H 0.1469 0.23439 0.77205 0.0
H165 H 0.26406 0.3904 0.80603 0.0
H166 H 0.13448 0.25646 0.96431 0.0
H167 H 0.22899 0.38489 0.92038 0.0
H168 H 0.38734 0.25492 1.00437 0.0
H169 H 0.48209 0.38591 0.96199 0.0
H170 H 0.72856 0.87172 0.97826 0.0
H171 H 0.58175 0.74504 0.94166 0.0
H172 H 0.88716 0.76133 0.91739 0.0
H173 H 0.74122 0.63373 0.883 0.0
H174 H 0.7756 0.573 0.77285 0.0
H175 H 0.63424 0.48811 0.81144 0.0
H176 H 0.75347 0.82756 0.78404 0.0
H177 H 0.6151 0.74383 0.82431 0.0
N178 N 0.46186 0.48027 0.83872 0.0
N179 N 0.49745 0.54166 0.91825 0.0
loop_
_geom_bond_atom_site_label_1
_geom_bond_atom_site_label_2
_geom_bond_distance
_geom_bond_site_symmetry_2
_ccdc_geom_bond_type
Zn0 O3 2.031 1_556 S
Zn0 O5 2.049 1_565 S
Zn0 O10 2.067 . S
Zn1 O2 1.962 . S
Zn1 O4 1.986 . S
Zn1 O6 1.996 . S
Zn1 O9 1.943 1_455 S
O2 Zn1 1.962 . S
O2 C7 1.254 1_545 S
O3 Zn0 2.031 1_554 S
O3 C7 1.269 . S
O4 Zn1 1.986 . S
O4 C11 1.262 . S
O5 Zn0 2.049 1_545 S
O5 C13 1.260 . S
O6 Zn1 1.996 . S
O6 C13 1.257 1_554 S
C7 O2 1.254 1_565 S
C7 O3 1.269 . S
C8 O9 1.249 1_566 S
C8 O10 1.270 1_655 S
O9 Zn1 1.943 1_655 S
O9 C8 1.249 1_544 S
O10 Zn0 2.067 . S
O10 C8 1.270 1_455 S
C11 O4 1.262 . S
C11 O12 1.232 1_455 S
O12 C11 1.232 1_655 S
C13 O5 1.260 . S
C13 O6 1.257 1_556 S
Zn14 O17 2.031 . S
Zn14 O19 2.049 . S
Zn14 O24 2.067 . S
Zn15 O16 1.962 . S
Zn15 O18 1.986 1_455 S
Zn15 O20 1.996 . S
Zn15 O23 1.943 1_445 S
O16 Zn15 1.962 . S
O16 C21 1.254 . S
O17 Zn14 2.031 . S
O17 C21 1.269 . S
O18 Zn15 1.986 1_655 S
O18 C25 1.262 . S
O19 Zn14 2.049 . S
O19 C27 1.260 . S
O20 Zn15 1.996 . S
O20 C27 1.257 . S
C21 O16 1.254 . S
C21 O17 1.269 . S
C22 O23 1.249 1_455 S
C22 O24 1.270 1_565 S
O23 Zn15 1.943 1_665 S
O23 C22 1.249 1_655 S
O24 Zn14 2.067 . S
O24 C22 1.270 1_545 S
C25 O18 1.262 . S
C25 O26 1.232 1_545 S
O26 C25 1.232 1_565 S
C27 O19 1.260 . S
C27 O20 1.257 . S
Zn28 O31 2.031 1_565 S
Zn28 O33 2.049 . S
Zn28 O38 2.067 1_565 S
Zn29 O30 1.962 1_545 S
Zn29 O32 1.986 1_445 S
Zn29 O34 1.996 1_445 S
Zn29 O37 1.943 . S
O30 Zn29 1.962 1_565 S
O30 C35 1.254 . S
O31 Zn28 2.031 1_545 S
O31 C35 1.269 1_545 S
O32 Zn29 1.986 1_665 S
O32 C39 1.262 1_565 S
O33 Zn28 2.049 . S
O33 C41 1.260 1_455 S
O34 Zn29 1.996 1_665 S
O34 C41 1.257 . S
C35 O30 1.254 . S
C35 O31 1.269 1_565 S
C36 O37 1.249 . S
C36 O38 1.270 . S
O37 Zn29 1.943 . S
O37 C36 1.249 . S
O38 Zn28 2.067 1_545 S
O38 C36 1.270 . S
C39 O32 1.262 1_545 S
C39 O40 1.232 . S
O40 C39 1.232 . S
C41 O33 1.260 1_655 S
C41 O34 1.257 . S
C42 C43 1.384 1_655 S
C42 C44 1.384 . S
C42 H70 0.931 . S
C43 C42 1.384 1_455 S
C43 C46 1.382 . S
C44 C42 1.384 . S
C44 C45 1.381 1_655 S
C44 H71 0.930 . S
C45 C44 1.381 1_455 S
C45 C47 1.381 . S
C45 C48 1.487 . S
C46 C43 1.382 . S
C46 C47 1.387 . S
C46 H72 0.930 . S
C47 C45 1.381 . S
C47 C46 1.387 . S
C47 H73 0.931 . S
C48 C45 1.487 . S
C48 C55 1.399 . S
C48 N86 1.343 . S
C49 C50 1.384 . S
C49 C51 1.384 . S
C49 H74 0.931 . S
C50 C49 1.384 . S
C50 C53 1.382 1_455 S
C51 C49 1.384 . S
C51 C52 1.381 . S
C51 H75 0.930 . S
C52 C51 1.381 . S
C52 C54 1.381 1_455 S
C52 C55 1.487 . S
C53 C50 1.382 1_655 S
C53 C54 1.387 . S
C53 H76 0.930 . S
C54 C52 1.381 1_655 S
C54 C53 1.387 . S
C54 H77 0.931 . S
C55 C48 1.399 . S
C55 C52 1.487 . S
C55 N87 1.343 . S
C56 C57 1.384 . S
C56 C58 1.384 . S
C56 H78 0.931 . S
C57 C56 1.384 . S
C57 C60 1.382 1_455 S
C58 C56 1.384 . S
C58 C59 1.381 . S
C58 H79 0.930 . S
C59 C58 1.381 . S
C59 C61 1.381 1_455 S
C59 C62 1.487 . S
C60 C57 1.382 1_655 S
C60 C61 1.387 . S
C60 H80 0.930 . S
C61 C59 1.381 1_655 S
C61 C60 1.387 . S
C61 H81 0.931 . S
C62 C59 1.487 . S
C62 C69 1.399 . S
C62 N87 1.343 . S
C63 C64 1.384 1_655 S
C63 C65 1.384 . S
C63 H82 0.931 . S
C64 C63 1.384 1_455 S
C64 C67 1.382 . S
C65 C63 1.384 . S
C65 C66 1.381 1_655 S
C65 H83 0.930 . S
C66 C65 1.381 1_455 S
C66 C68 1.381 . S
C66 C69 1.487 . S
C67 C64 1.382 . S
C67 C68 1.387 . S
C67 H84 0.930 . S
C68 C66 1.381 . S
C68 C67 1.387 . S
C68 H85 0.931 . S
C69 C62 1.399 . S
C69 C66 1.487 . S
C69 N86 1.343 . S
H70 C42 0.931 . S
H71 C44 0.930 . S
H72 C46 0.930 . S
H73 C47 0.931 . S
H74 C49 0.931 . S
H75 C51 0.930 . S
H76 C53 0.930 . S
H77 C54 0.931 . S
H78 C56 0.931 . S
H79 C58 0.930 . S
H80 C60 0.930 . S
H81 C61 0.931 . S
H82 C63 0.931 . S
H83 C65 0.930 . S
H84 C67 0.930 . S
H85 C68 0.931 . S
N86 C48 1.343 . S
N86 C69 1.343 . S
N87 C55 1.343 . S
N87 C62 1.343 . S
C88 C89 1.384 . S
C88 C90 1.384 . S
C88 H116 0.931 . S
C89 C88 1.384 . S
C89 C92 1.382 1_545 S
C90 C88 1.384 . S
C90 C91 1.381 . S
C90 H117 0.930 . S
C91 C90 1.381 . S
C91 C93 1.381 1_545 S
C91 C94 1.487 . S
C92 C89 1.382 1_565 S
C92 C93 1.387 . S
C92 H118 0.930 . S
C93 C91 1.381 1_565 S
C93 C92 1.387 . S
C93 H119 0.931 . S
C94 C91 1.487 . S
C94 C101 1.399 . S
C94 N132 1.343 . S
C95 C96 1.384 1_565 S
C95 C97 1.384 . S
C95 H120 0.931 . S
C96 C95 1.384 1_545 S
C96 C99 1.382 . S
C97 C95 1.384 . S
C97 C98 1.381 1_565 S
C97 H121 0.930 . S
C98 C97 1.381 1_545 S
C98 C100 1.381 . S
C98 C101 1.487 . S
C99 C96 1.382 . S
C99 C100 1.387 . S
C99 H122 0.930 . S
C100 C98 1.381 . S
C100 C99 1.387 . S
C100 H123 0.931 . S
C101 C94 1.399 . S
C101 C98 1.487 . S
C101 N133 1.343 . S
C102 C103 1.384 1_565 S
C102 C104 1.384 . S
C102 H124 0.931 . S
C103 C102 1.384 1_545 S
C103 C106 1.382 . S
C104 C102 1.384 . S
C104 C105 1.381 1_565 S
C104 H125 0.930 . S
C105 C104 1.381 1_545 S
C105 C107 1.381 . S
C105 C108 1.487 . S
C106 C103 1.382 . S
C106 C107 1.387 . S
C106 H126 0.930 . S
C107 C105 1.381 . S
C107 C106 1.387 . S
C107 H127 0.931 . S
C108 C105 1.487 . S
C108 C115 1.399 . S
C108 N133 1.343 . S
C109 C110 1.384 . S
C109 C111 1.384 . S
C109 H128 0.931 . S
C110 C109 1.384 . S
C110 C113 1.382 1_545 S
C111 C109 1.384 . S
C111 C112 1.381 . S
C111 H129 0.930 . S
C112 C111 1.381 . S
C112 C114 1.381 1_545 S
C112 C115 1.487 . S
C113 C110 1.382 1_565 S
C113 C114 1.387 . S
C113 H130 0.930 . S
C114 C112 1.381 1_565 S
C114 C113 1.387 . S
C114 H131 0.931 . S
C115 C108 1.399 . S
C115 C112 1.487 . S
C115 N132 1.343 . S
H116 C88 0.931 . S
H117 C90 0.930 . S
H118 C92 0.930 . S
H119 C93 0.931 . S
H120 C95 0.931 . S
H121 C97 0.930 . S
H122 C99 0.930 . S
H123 C100 0.931 . S
H124 C102 0.931 . S
H125 C104 0.930 . S
H126 C106 0.930 . S
H127 C107 0.931 . S
H128 C109 0.931 . S
H129 C111 0.930 . S
H130 C113 0.930 . S
H131 C114 0.931 . S
N132 C94 1.343 . S
N132 C115 1.343 . S
N133 C101 1.343 . S
N133 C108 1.343 . S
C134 C135 1.384 . S
C134 C136 1.384 . S
C134 H162 0.931 . S
C135 C134 1.384 . S
C135 C138 1.382 . S
C136 C134 1.384 . S
C136 C137 1.381 . S
C136 H163 0.930 . S
C137 C136 1.381 . S
C137 C139 1.381 . S
C137 C140 1.487 . S
C138 C135 1.382 . S
C138 C139 1.387 . S
C138 H164 0.930 . S
C139 C137 1.381 . S
C139 C138 1.387 . S
C139 H165 0.931 . S
C140 C137 1.487 . S
C140 C147 1.399 . S
C140 N178 1.343 . S
C141 C142 1.384 . S
C141 C143 1.384 . S
C141 H166 0.931 . S
C142 C141 1.384 . S
C142 C145 1.382 . S
C143 C141 1.384 . S
C143 C144 1.381 . S
C143 H167 0.930 . S
C144 C143 1.381 . S
C144 C146 1.381 . S
C144 C147 1.487 . S
C145 C142 1.382 . S
C145 C146 1.387 . S
C145 H168 0.930 . S
C146 C144 1.381 . S
C146 C145 1.387 . S
C146 H169 0.931 . S
C147 C140 1.399 . S
C147 C144 1.487 . S
C147 N179 1.343 . S
C148 C149 1.384 . S
C148 C150 1.384 . S
C148 H170 0.931 . S
C149 C148 1.384 . S
C149 C152 1.382 . S
C150 C148 1.384 . S
C150 C151 1.381 . S
C150 H171 0.930 . S
C151 C150 1.381 . S
C151 C153 1.381 . S
C151 C154 1.487 . S
C152 C149 1.382 . S
C152 C153 1.387 . S
C152 H172 0.930 . S
C153 C151 1.381 . S
C153 C152 1.387 . S
C153 H173 0.931 . S
C154 C151 1.487 . S
C154 C161 1.399 . S
C154 N179 1.343 . S
C155 C156 1.384 . S
C155 C157 1.384 . S
C155 H174 0.931 . S
C156 C155 1.384 . S
C156 C159 1.382 . S
C157 C155 1.384 . S
C157 C158 1.381 . S
C157 H175 0.930 . S
C158 C157 1.381 . S
C158 C160 1.381 . S
C158 C161 1.487 . S
C159 C156 1.382 . S
C159 C160 1.387 . S
C159 H176 0.930 . S
C160 C158 1.381 . S
C160 C159 1.387 . S
C160 H177 0.931 . S
C161 C154 1.399 . S
C161 C158 1.487 . S
C161 N178 1.343 . S
H162 C134 0.931 . S
H163 C136 0.930 . S
H164 C138 0.930 . S
H165 C139 0.931 . S
H166 C141 0.931 . S
H167 C143 0.930 . S
H168 C145 0.930 . S
H169 C146 0.931 . S
H170 C148 0.931 . S
H171 C150 0.930 . S
H172 C152 0.930 . S
H173 C153 0.931 . S
H174 C155 0.931 . S
H175 C157 0.930 . S
H176 C159 0.930 . S
H177 C160 0.931 . S
N178 C140 1.343 . S
N178 C161 1.343 . S
N179 C147 1.343 . S
N179 C154 1.343 . S
C50 C11 1.317 . S
C25 C89 1.433 . S
C41 C156 1.414 . S
C7 C57 1.489 . S
C110 C21 1.571 . S
C36 C135 1.514 . S
C96 C39 1.414 . S
C8 C149 1.534 . S
C64 C22 1.496 . S
C103 C35 1.547 1_545 S
C142 C13 1.375 . S
C27 C43 1.648 . S
