# Generated by pormake.
# Topology tsx, (6,3)-cn, num edge types: 1
# Building blocks:
#     Node 0, Type 0, BuildingBlock: VOLQOD_clean_sbu_1, # of connection points: 6
#     Node 1, Type 0, BuildingBlock: VOLQOD_clean_sbu_1, # of connection points: 6
#     Node 2, Type 1, BuildingBlock: PAMTOO_clean_linker_0, # of connection points: 3
#     Node 3, Type 1, BuildingBlock: PAMTOO_clean_linker_0, # of connection points: 3
#     Node 4, Type 1, BuildingBlock: PAMTOO_clean_linker_0, # of connection points: 3
#     Node 5, Type 1, BuildingBlock: PAMTOO_clean_linker_0, # of connection points: 3
#     Edge 6, Type (0, 1), BuildingBlock: OJICUG_clean_linker_0, # of connection points: 2
#     Edge 7, Type (0, 1), BuildingBlock: OJICUG_clean_linker_0, # of connection points: 2
#     Edge 8, Type (0, 1), BuildingBlock: OJICUG_clean_linker_0, # of connection points: 2
#     Edge 9, Type (0, 1), BuildingBlock: OJICUG_clean_linker_0, # of connection points: 2
#     Edge 10, Type (0, 1), BuildingBlock: OJICUG_clean_linker_0, # of connection points: 2
#     Edge 11, Type (0, 1), BuildingBlock: OJICUG_clean_linker_0, # of connection points: 2
#     Edge 12, Type (0, 1), BuildingBlock: OJICUG_clean_linker_0, # of connection points: 2
#     Edge 13, Type (0, 1), BuildingBlock: OJICUG_clean_linker_0, # of connection points: 2
#     Edge 14, Type (0, 1), BuildingBlock: OJICUG_clean_linker_0, # of connection points: 2
#     Edge 15, Type (0, 1), BuildingBlock: OJICUG_clean_linker_0, # of connection points: 2
#     Edge 16, Type (0, 1), BuildingBlock: OJICUG_clean_linker_0, # of connection points: 2
#     Edge 17, Type (0, 1), BuildingBlock: OJICUG_clean_linker_0, # of connection points: 2
# Relax obj value: 0.055
# Max RMSD: 0.109
# Mean RMSD: 0.099
data_MOF--net-tsx--node1-VOLQOD_clean_sbu_1--node2-PAMTOO_clean_linker_0--edge1-OJICUG_clean_linker_0
_symmetry_space_group_name_H-M    P1
_symmetry_Int_Tables_number       1
_symmetry_cell_setting            triclinic
loop_
_symmetry_equiv_pos_as_xyz
'x, y, z'
_cell_length_a     15.697433
_cell_length_b     15.837176
_cell_length_c     28.696181
_cell_angle_alpha  83.205805
_cell_angle_beta   89.63262
_cell_angle_gamma 89.558293
loop_
_atom_site_label
_atom_site_type_symbol
_atom_site_fract_x
_atom_site_fract_y
_atom_site_fract_z
_atom_type_partial_charge
O0 O 0.06842 0.97724 0.08908 0.0
Zn1 Zn 0.10655 0.99686 0.02152 0.0
O2 O 0.00839 0.0235 -0.01842 0.0
Zn3 Zn 0.98339 0.93011 0.94616 0.0
Zn4 Zn 0.91104 0.04887 0.01968 0.0
Zn5 Zn 0.03463 0.12073 0.93734 0.0
O6 O 0.97732 0.97014 0.87669 0.0
O7 O 0.05575 0.08715 0.87313 0.0
O8 O 0.17112 0.89453 0.0026 0.0
O9 O 0.08089 0.84655 0.95263 0.0
O10 O 0.8752 0.87016 0.96963 0.0
O11 O 0.82623 0.95327 0.02116 0.0
O12 O 0.85168 0.15834 -0.00711 0.0
O13 O 0.18479 0.0987 0.01832 0.0
O14 O 0.93608 0.2016 0.93253 0.0
O15 O 0.13314 0.18499 0.95852 0.0
C16 C 0.00866 1.01375 0.10963 0.0
C17 C 0.01958 0.02936 0.85326 0.0
C18 C 0.81971 0.88737 -0.00015 0.0
C19 C 0.15123 0.84076 0.97476 0.0
C20 C 0.86947 0.21083 0.95699 0.0
C21 C 0.18636 0.16906 -0.00833 0.0
O22 O 0.94844 0.05396 0.08677 0.0
O23 O 0.57946 0.49176 0.58685 0.0
Zn24 Zn 0.61159 0.50216 0.51877 0.0
O25 O 0.50999 0.52635 0.48103 0.0
Zn26 Zn 0.48442 0.432 0.44614 0.0
Zn27 Zn 0.41264 0.55034 0.52005 0.0
Zn28 Zn 0.53399 0.62376 0.43626 0.0
O29 O 0.47835 0.47063 0.37655 0.0
O30 O 0.55384 0.58969 0.37209 0.0
O31 O 0.67306 0.39648 0.50191 0.0
O32 O 0.58117 0.34764 0.45311 0.0
O33 O 0.3761 0.37221 0.46969 0.0
O34 O 0.32744 0.45513 0.52133 0.0
O35 O 0.35288 0.66077 0.49391 0.0
O36 O 0.69175 0.60213 0.51202 0.0
O37 O 0.43474 0.70312 0.43228 0.0
O38 O 0.63219 0.69063 0.45586 0.0
C39 C 0.51727 0.52152 0.60879 0.0
C40 C 0.51899 0.53055 0.35272 0.0
C41 C 0.32072 0.38933 0.49997 0.0
C42 C 0.65168 0.34156 0.47506 0.0
C43 C 0.3693 0.71278 0.45753 0.0
C44 C 0.68964 0.67371 0.48664 0.0
O45 O 0.45101 0.55268 0.58736 0.0
H46 H 0.15467 0.92988 0.31329 0.0
H47 H 0.94088 0.10091 0.32065 0.0
H48 H 0.08378 0.01736 0.44431 0.0
H49 H 0.91328 0.04014 0.46745 0.0
C50 C 0.88897 0.07586 0.43473 0.0
O51 O 0.95696 0.11251 0.40961 0.0
H52 H 0.85667 0.02956 0.41449 0.0
C53 C 0.11312 0.96767 0.33297 0.0
C54 C 0.12623 0.96651 0.38147 0.0
C55 C 0.04643 1.01569 0.31006 0.0
C56 C 0.99411 0.06472 0.33662 0.0
C57 C 0.00858 0.0661 0.38459 0.0
C58 C 0.07423 0.01698 0.40699 0.0
H59 H 0.11409 0.16798 0.64429 0.0
H60 H 0.97293 0.93579 0.64437 0.0
H61 H 0.03765 0.08228 0.51414 0.0
H62 H 0.84275 1.01506 0.5367 0.0
C63 C 0.86537 0.95284 0.55445 0.0
O64 O 0.95331 0.94981 0.55444 0.0
H65 H 0.84078 0.94721 0.59114 0.0
C66 C 0.08267 0.1216 0.62562 0.0
C67 C 0.08366 0.13231 0.57622 0.0
C68 C 0.0421 0.05154 0.65097 0.0
C69 C 0.00298 0.99155 0.62602 0.0
C70 C -0.00105 1.00414 0.57707 0.0
C71 C 0.03995 0.07381 0.55209 0.0
H72 H 0.65231 0.42707 0.81332 0.0
H73 H 0.45482 0.61622 0.81898 0.0
H74 H 0.58559 0.51641 0.94454 0.0
H75 H 0.4144 0.54191 0.96564 0.0
C76 C 0.39259 0.57958 0.9329 0.0
O77 O 0.46247 0.6166 0.90967 0.0
H78 H 0.36142 0.53481 0.91121 0.0
C79 C 0.6153 0.46926 0.8328 0.0
C80 C 0.62787 0.46654 0.88136 0.0
C81 C 0.55377 0.52343 0.80947 0.0
C82 C 0.50301 0.57403 0.83584 0.0
C83 C 0.51444 0.57101 0.88438 0.0
C84 C 0.57725 0.51809 0.907 0.0
H85 H 0.61308 0.66652 0.14375 0.0
H86 H 0.47097 0.43482 0.14413 0.0
H87 H 0.53602 0.58076 0.01378 0.0
H88 H 0.34149 0.51409 0.034 0.0
C89 C 0.36305 0.45335 0.05391 0.0
O90 O 0.45092 0.44891 0.05424 0.0
H91 H 0.33804 0.4526 0.09036 0.0
C92 C 0.58149 0.62014 0.12517 0.0
C93 C 0.58231 0.63075 0.07578 0.0
C94 C 0.54083 0.55024 0.15059 0.0
C95 C 0.50129 0.49038 0.12572 0.0
C96 C 0.49715 0.5029 0.07677 0.0
C97 C 0.5384 0.57232 0.05172 0.0
C98 C 0.23654 0.31961 -0.0224 0.0
C99 C 0.24292 0.23817 0.00306 0.0
H100 H 0.26842 0.45139 0.97407 0.0
C101 C 0.29608 0.22665 0.04261 0.0
H102 H 0.1963 0.33096 0.94695 0.0
C103 C 0.33791 0.29597 0.05783 0.0
C104 C 0.32723 0.37786 0.03386 0.0
H105 H 0.30255 0.16489 0.063 0.0
H106 H 0.37595 0.28634 0.08941 0.0
C107 C 0.27791 0.38881 -0.00698 0.0
C108 C 0.29153 0.76356 -0.01147 0.0
C109 C 0.2123 0.77246 0.96569 0.0
H110 H 0.41063 0.69547 -0.00416 0.0
C111 C 0.19283 0.71719 0.93233 0.0
H112 H 0.30875 0.80511 0.01429 0.0
C113 C 0.2512 0.65528 0.92172 0.0
C114 C 0.33019 0.6467 0.94439 0.0
H115 H 0.13269 0.72217 0.91389 0.0
H116 H 0.23453 0.61403 0.89569 0.0
C117 C 0.34994 0.70115 -0.02205 0.0
C118 C 0.68921 0.8441 0.04725 0.0
C119 C 0.75003 0.82632 0.01348 0.0
H120 H 0.58704 0.79697 0.09249 0.0
C121 C 0.74735 0.74707 -0.00409 0.0
H122 H 0.68841 0.9048 0.06112 0.0
C123 C 0.68902 0.68504 0.01407 0.0
C124 C 0.63244 0.70101 0.05022 0.0
H125 H 0.79281 0.7314 0.96965 0.0
H126 H 0.69158 0.62303 0.00171 0.0
C127 C 0.63112 0.78221 0.06535 0.0
C128 C 0.73105 0.29038 0.96361 0.0
C129 C 0.81039 0.28193 0.94146 0.0
H130 H 0.61072 0.35608 0.96196 0.0
C131 C 0.83157 0.33992 0.90219 0.0
H132 H 0.7129 0.24705 -0.00595 0.0
C133 C 0.77343 0.40192 0.88403 0.0
C134 C 0.69268 0.40777 0.90468 0.0
H135 H 0.89243 0.33619 0.88452 0.0
H136 H 0.791 0.44429 0.85307 0.0
C137 C 0.67272 0.35298 0.94541 0.0
C138 C 0.7322 0.82679 0.47715 0.0
C139 C 0.74627 0.74282 0.49792 0.0
H140 H 0.75755 0.95886 0.47929 0.0
C141 C 0.80684 0.72794 0.53394 0.0
H142 H 0.68587 0.84076 0.44945 0.0
C143 C 0.84849 0.79595 0.55064 0.0
C144 C 0.83041 0.87991 0.53166 0.0
H145 H 0.81923 0.66417 0.55074 0.0
H146 H 0.89215 0.78334 0.57977 0.0
C147 C 0.77331 0.89466 0.49414 0.0
C148 C 0.79103 0.26274 0.4891 0.0
C149 C 0.71134 0.27161 0.46676 0.0
H150 H 0.90958 0.19372 0.4963 0.0
C151 C 0.69022 0.21487 0.43445 0.0
H152 H 0.80951 0.30538 0.51405 0.0
C153 C 0.74756 0.15176 0.42424 0.0
C154 C 0.8271 0.14338 0.44631 0.0
H155 H 0.62965 0.21975 0.41642 0.0
H156 H 0.72977 0.10957 0.3989 0.0
C157 C 0.84839 0.19914 0.47893 0.0
C158 C 0.19056 0.3458 0.54767 0.0
C159 C 0.25111 0.3282 0.51372 0.0
H160 H 0.08874 0.29849 0.59313 0.0
C161 C 0.24835 0.24896 0.49613 0.0
H162 H 0.18985 0.40646 0.56158 0.0
C163 C 0.19018 0.18684 0.5144 0.0
C164 C 0.13382 0.20264 0.55069 0.0
H165 H 0.29361 0.23339 0.46975 0.0
H166 H 0.19268 0.12487 0.50198 0.0
C167 C 0.13264 0.28381 0.56589 0.0
C168 C 0.33138 0.84248 0.40317 0.0
C169 C 0.31009 0.78397 0.44224 0.0
H170 H 0.29058 0.94674 0.35398 0.0
C171 C 0.23051 0.79184 0.46418 0.0
H172 H 0.39249 0.83929 0.38569 0.0
C173 C 0.17196 0.85411 0.44582 0.0
C174 C 0.19193 0.90923 0.40518 0.0
H175 H 0.21226 0.74812 0.49443 0.0
H176 H 0.10966 0.85651 0.46211 0.0
C177 C 0.27301 0.90418 0.38486 0.0
C178 C 0.04243 0.94006 0.189 0.0
C179 C 0.01204 1.01239 0.16101 0.0
H180 H 0.07231 0.8823 0.25786 0.0
C181 C 0.98928 0.08475 0.18222 0.0
H182 H 0.05951 0.88312 0.17344 0.0
C183 C -0.0 0.0859 0.2305 0.0
C184 C 0.03159 1.01379 0.2588 0.0
H185 H 0.9664 0.14166 0.16121 0.0
H186 H 0.98569 0.14426 0.24521 0.0
C187 C 0.05069 0.94019 0.2374 0.0
C188 C 0.96019 1.00173 0.7761 0.0
C189 C 0.02658 0.03185 0.80194 0.0
H190 H 0.9112 0.98759 0.70835 0.0
C191 C 0.09928 0.06605 0.77828 0.0
H192 H 0.90314 0.97571 0.79356 0.0
C193 C 0.10547 0.0703 0.72952 0.0
C194 C 0.03804 0.04249 0.70321 0.0
H195 H 0.15185 0.08879 0.79755 0.0
H196 H 0.16333 0.09526 0.7126 0.0
C197 C 0.96532 1.00801 0.72723 0.0
C198 C 0.45318 0.5326 0.68846 0.0
C199 C 0.52506 0.52331 0.66001 0.0
H200 H 0.40535 0.53807 0.75816 0.0
C201 C 0.60598 0.5169 0.6808 0.0
H202 H 0.38999 0.53775 0.6734 0.0
C203 C 0.61498 0.51897 0.72891 0.0
C204 C 0.54321 0.52601 0.75779 0.0
H205 H 0.66287 0.51124 0.65979 0.0
H206 H 0.67861 0.51539 0.74341 0.0
C207 C 0.4621 0.53341 0.73696 0.0
C208 C 0.45938 0.5016 0.27587 0.0
C209 C 0.52586 0.53213 0.30147 0.0
H210 H 0.41014 0.48665 0.20828 0.0
C211 C 0.59856 0.56588 0.27766 0.0
H212 H 0.40236 0.47587 0.29349 0.0
C213 C 0.60464 0.5694 0.22894 0.0
C214 C 0.53704 0.5414 0.20282 0.0
H215 H 0.6512 0.58885 0.29679 0.0
H216 H 0.66252 0.59405 0.2119 0.0
C217 C 0.46437 0.50723 0.22701 0.0
loop_
_geom_bond_atom_site_label_1
_geom_bond_atom_site_label_2
_geom_bond_distance
_geom_bond_site_symmetry_2
_ccdc_geom_bond_type
O0 Zn1 1.953 . S
O0 C16 1.225 . S
Zn1 O0 1.953 . S
Zn1 O2 1.949 1_565 S
Zn1 O8 1.919 . S
Zn1 O13 1.924 1_565 S
O2 Zn1 1.949 1_545 S
O2 Zn3 1.921 1_444 S
O2 Zn4 1.950 1_455 S
O2 Zn5 1.945 1_554 S
Zn3 O2 1.921 1_666 S
Zn3 O6 1.933 1_655 S
Zn3 O9 1.934 1_655 S
Zn3 O10 1.974 . S
Zn4 O2 1.950 1_655 S
Zn4 O11 1.938 1_545 S
Zn4 O12 1.906 . S
Zn4 O22 1.953 . S
Zn5 O2 1.945 1_556 S
Zn5 O7 1.932 . S
Zn5 O14 1.977 1_455 S
Zn5 O15 1.910 . S
O6 Zn3 1.933 1_455 S
O6 C17 1.226 1_565 S
O7 Zn5 1.932 . S
O7 C17 1.307 . S
O8 Zn1 1.919 . S
O8 C19 1.264 . S
O9 Zn3 1.934 1_455 S
O9 C19 1.278 1_556 S
O10 Zn3 1.974 . S
O10 C18 1.303 1_556 S
O11 Zn4 1.938 1_565 S
O11 C18 1.247 . S
O12 Zn4 1.906 . S
O12 C20 1.304 1_554 S
O13 Zn1 1.924 1_545 S
O13 C21 1.311 . S
O14 Zn5 1.977 1_655 S
O14 C20 1.272 . S
O15 Zn5 1.910 . S
O15 C21 1.231 1_556 S
C16 O0 1.225 . S
C16 O22 1.298 1_465 S
C17 O6 1.226 1_545 S
C17 O7 1.307 . S
C18 O10 1.303 1_554 S
C18 O11 1.247 . S
C19 O8 1.264 . S
C19 O9 1.278 1_554 S
C20 O12 1.304 1_556 S
C20 O14 1.272 . S
C21 O13 1.311 . S
C21 O15 1.231 1_554 S
O22 Zn4 1.953 . S
O22 C16 1.298 1_645 S
O23 Zn24 1.953 . S
O23 C39 1.225 . S
Zn24 O23 1.953 . S
Zn24 O25 1.949 . S
Zn24 O31 1.919 . S
Zn24 O36 1.924 . S
O25 Zn24 1.949 . S
O25 Zn26 1.923 . S
O25 Zn27 1.950 . S
O25 Zn28 1.945 . S
Zn26 O25 1.923 . S
Zn26 O29 1.933 . S
Zn26 O32 1.941 . S
Zn26 O33 1.965 . S
Zn27 O25 1.950 . S
Zn27 O34 1.938 . S
Zn27 O35 1.906 . S
Zn27 O45 1.953 . S
Zn28 O25 1.945 . S
Zn28 O30 1.932 . S
Zn28 O37 1.977 . S
Zn28 O38 1.910 . S
O29 Zn26 1.933 . S
O29 C40 1.226 . S
O30 Zn28 1.932 . S
O30 C40 1.307 . S
O31 Zn24 1.919 . S
O31 C42 1.253 . S
O32 Zn26 1.941 . S
O32 C42 1.283 . S
O33 Zn26 1.965 . S
O33 C41 1.303 . S
O34 Zn27 1.938 . S
O34 C41 1.247 . S
O35 Zn27 1.906 . S
O35 C43 1.304 . S
O36 Zn24 1.924 . S
O36 C44 1.311 . S
O37 Zn28 1.977 . S
O37 C43 1.272 . S
O38 Zn28 1.910 . S
O38 C44 1.231 . S
C39 O23 1.225 . S
C39 O45 1.298 . S
C40 O29 1.226 . S
C40 O30 1.307 . S
C41 O33 1.303 . S
C41 O34 1.247 . S
C42 O31 1.253 . S
C42 O32 1.283 . S
C43 O35 1.304 . S
C43 O37 1.272 . S
C44 O36 1.311 . S
C44 O38 1.231 . S
O45 Zn27 1.953 . S
O45 C39 1.298 . S
H46 C53 0.929 . S
H47 C56 0.930 . S
H48 C58 0.929 . S
H49 C50 0.969 . S
C50 H49 0.969 . S
C50 O51 1.550 . S
C50 H52 0.973 . S
O51 C50 1.550 . S
O51 C57 1.412 . S
H52 C50 0.973 . S
C53 H46 0.929 . S
C53 C54 1.400 . S
C53 C55 1.364 . S
C54 C53 1.400 . S
C54 C58 1.377 . S
C55 C53 1.364 . S
C55 C56 1.374 1_465 S
C56 H47 0.930 . S
C56 C55 1.374 1_645 S
C56 C57 1.383 . S
C57 O51 1.412 . S
C57 C56 1.383 . S
C57 C58 1.394 1_645 S
C58 H48 0.929 . S
C58 C54 1.377 . S
C58 C57 1.394 1_465 S
H59 C66 0.929 . S
H60 C69 0.930 . S
H61 C71 0.929 . S
H62 C63 0.969 . S
C63 H62 0.969 . S
C63 O64 1.550 . S
C63 H65 0.973 . S
O64 C63 1.550 . S
O64 C70 1.412 1_565 S
H65 C63 0.973 . S
C66 H59 0.929 . S
C66 C67 1.400 . S
C66 C68 1.364 . S
C67 C66 1.400 . S
C67 C71 1.377 . S
C68 C66 1.364 . S
C68 C69 1.374 1_445 S
C69 H60 0.930 . S
C69 C68 1.374 1_665 S
C69 C70 1.383 1_565 S
C70 O64 1.412 1_545 S
C70 C69 1.383 1_545 S
C70 C71 1.394 1_655 S
C71 H61 0.929 . S
C71 C67 1.377 . S
C71 C70 1.394 1_455 S
H72 C79 0.929 . S
H73 C82 0.930 . S
H74 C84 0.929 . S
H75 C76 0.969 . S
C76 H75 0.969 . S
C76 O77 1.550 . S
C76 H78 0.973 . S
O77 C76 1.550 . S
O77 C83 1.412 . S
H78 C76 0.973 . S
C79 H72 0.929 . S
C79 C80 1.400 . S
C79 C81 1.364 . S
C80 C79 1.400 . S
C80 C84 1.377 . S
C81 C79 1.364 . S
C81 C82 1.374 . S
C82 H73 0.930 . S
C82 C81 1.374 . S
C82 C83 1.383 . S
C83 O77 1.412 . S
C83 C82 1.383 . S
C83 C84 1.394 . S
C84 H74 0.929 . S
C84 C80 1.377 . S
C84 C83 1.394 . S
H85 C92 0.929 . S
H86 C95 0.930 . S
H87 C97 0.929 . S
H88 C89 0.969 . S
C89 H88 0.969 . S
C89 O90 1.550 . S
C89 H91 0.973 . S
O90 C89 1.550 . S
O90 C96 1.412 . S
H91 C89 0.973 . S
C92 H85 0.929 . S
C92 C93 1.400 . S
C92 C94 1.364 . S
C93 C92 1.400 . S
C93 C97 1.377 . S
C94 C92 1.364 . S
C94 C95 1.374 . S
C95 H86 0.930 . S
C95 C94 1.374 . S
C95 C96 1.383 . S
C96 O90 1.412 . S
C96 C95 1.383 . S
C96 C97 1.394 . S
C97 H87 0.929 . S
C97 C93 1.377 . S
C97 C96 1.394 . S
C98 C99 1.387 1_556 S
C98 H102 0.950 . S
C98 C107 1.385 1_556 S
C99 C98 1.387 1_554 S
C99 C101 1.387 . S
H100 C107 0.938 1_556 S
C101 C99 1.387 . S
C101 C103 1.390 . S
C101 H105 0.950 . S
H102 C98 0.950 . S
C103 C101 1.390 . S
C103 C104 1.387 . S
C103 H106 0.950 . S
C104 C103 1.387 . S
C104 C107 1.404 . S
H105 C101 0.950 . S
H106 C103 0.950 . S
C107 C98 1.385 1_554 S
C107 H100 0.938 1_554 S
C107 C104 1.404 . S
C108 C109 1.387 . S
C108 H112 0.950 . S
C108 C117 1.390 . S
C109 C108 1.387 . S
C109 C111 1.387 1_556 S
H110 C117 0.950 . S
C111 C109 1.387 1_554 S
C111 C113 1.390 1_554 S
C111 H115 0.950 . S
H112 C108 0.950 . S
C113 C111 1.390 1_556 S
C113 C114 1.387 . S
C113 H116 0.950 1_556 S
C114 C113 1.387 . S
C114 C117 1.387 . S
H115 C111 0.950 . S
H116 C113 0.950 1_554 S
C117 C108 1.390 . S
C117 H110 0.950 . S
C117 C114 1.387 . S
C118 C119 1.387 . S
C118 H122 0.950 . S
C118 C127 1.390 . S
C119 C118 1.387 . S
C119 C121 1.387 . S
H120 C127 0.950 . S
C121 C119 1.387 . S
C121 C123 1.390 . S
C121 H125 0.950 1_554 S
H122 C118 0.950 . S
C123 C121 1.390 . S
C123 C124 1.387 . S
C123 H126 0.932 1_554 S
C124 C123 1.387 . S
C124 C127 1.387 . S
H125 C121 0.950 1_556 S
H126 C123 0.932 1_556 S
C127 C118 1.390 . S
C127 H120 0.950 . S
C127 C124 1.387 . S
C128 C129 1.387 1_554 S
C128 H132 0.950 . S
C128 C137 1.390 1_554 S
C129 C128 1.387 1_556 S
C129 C131 1.387 . S
H130 C137 0.950 1_554 S
C131 C129 1.387 . S
C131 C133 1.390 . S
C131 H135 0.950 . S
H132 C128 0.950 . S
C133 C131 1.390 . S
C133 C134 1.387 . S
C133 H136 0.950 . S
C134 C133 1.387 . S
C134 C137 1.387 . S
H135 C131 0.950 . S
H136 C133 0.950 . S
C137 C128 1.390 1_556 S
C137 H130 0.950 1_556 S
C137 C134 1.387 . S
C138 C139 1.387 . S
C138 H142 0.950 . S
C138 C147 1.390 . S
C139 C138 1.387 . S
C139 C141 1.387 . S
H140 C147 0.950 . S
C141 C139 1.387 . S
C141 C143 1.390 . S
C141 H145 0.950 . S
H142 C138 0.950 . S
C143 C141 1.390 . S
C143 C144 1.387 . S
C143 H146 0.950 . S
C144 C143 1.387 . S
C144 C147 1.387 . S
H145 C141 0.950 . S
H146 C143 0.950 . S
C147 C138 1.390 . S
C147 H140 0.950 . S
C147 C144 1.387 . S
C148 C149 1.387 . S
C148 H152 0.950 . S
C148 C157 1.390 . S
C149 C148 1.387 . S
C149 C151 1.387 . S
H150 C157 0.950 . S
C151 C149 1.387 . S
C151 C153 1.390 . S
C151 H155 0.950 . S
H152 C148 0.950 . S
C153 C151 1.390 . S
C153 C154 1.387 . S
C153 H156 0.950 . S
C154 C153 1.387 . S
C154 C157 1.387 . S
H155 C151 0.950 . S
H156 C153 0.950 . S
C157 C148 1.390 . S
C157 H150 0.950 . S
C157 C154 1.387 . S
C158 C159 1.387 . S
C158 H162 0.950 . S
C158 C167 1.390 . S
C159 C158 1.387 . S
C159 C161 1.387 . S
H160 C167 0.950 . S
C161 C159 1.387 . S
C161 C163 1.390 . S
C161 H165 0.950 . S
H162 C158 0.950 . S
C163 C161 1.390 . S
C163 C164 1.387 . S
C163 H166 0.950 . S
C164 C163 1.387 . S
C164 C167 1.387 . S
H165 C161 0.950 . S
H166 C163 0.950 . S
C167 C158 1.390 . S
C167 H160 0.950 . S
C167 C164 1.387 . S
C168 C169 1.387 . S
C168 H172 0.950 . S
C168 C177 1.390 . S
C169 C168 1.387 . S
C169 C171 1.387 . S
H170 C177 0.950 . S
C171 C169 1.387 . S
C171 C173 1.390 . S
C171 H175 0.950 . S
H172 C168 0.950 . S
C173 C171 1.390 . S
C173 C174 1.387 . S
C173 H176 0.950 . S
C174 C173 1.387 . S
C174 C177 1.387 . S
H175 C171 0.950 . S
H176 C173 0.950 . S
C177 C168 1.390 . S
C177 H170 0.950 . S
C177 C174 1.387 . S
C178 C179 1.387 1_655 S
C178 H182 0.950 . S
C178 C187 1.390 . S
C179 C178 1.387 1_455 S
C179 C181 1.387 1_565 S
H180 C187 0.950 . S
C181 C179 1.387 1_545 S
C181 C183 1.390 . S
C181 H185 0.950 . S
H182 C178 0.950 . S
C183 C181 1.390 . S
C183 C184 1.387 1_545 S
C183 H186 0.950 . S
C184 C183 1.387 1_565 S
C184 C187 1.387 1_455 S
H185 C181 0.950 . S
H186 C183 0.950 . S
C187 C178 1.390 . S
C187 H180 0.950 . S
C187 C184 1.387 1_655 S
C188 C189 1.387 1_665 S
C188 H192 0.950 . S
C188 C197 1.390 . S
C189 C188 1.387 1_445 S
C189 C191 1.387 . S
H190 C197 0.950 . S
C191 C189 1.387 . S
C191 C193 1.390 . S
C191 H195 0.950 . S
H192 C188 0.950 . S
C193 C191 1.390 . S
C193 C194 1.387 . S
C193 H196 0.950 . S
C194 C193 1.387 . S
C194 C197 1.387 1_445 S
H195 C191 0.950 . S
H196 C193 0.950 . S
C197 C188 1.390 . S
C197 H190 0.950 . S
C197 C194 1.387 1_665 S
C198 C199 1.387 . S
C198 H202 0.950 . S
C198 C207 1.390 . S
C199 C198 1.387 . S
C199 C201 1.387 . S
H200 C207 0.950 . S
C201 C199 1.387 . S
C201 C203 1.390 . S
C201 H205 0.950 . S
H202 C198 0.950 . S
C203 C201 1.390 . S
C203 C204 1.387 . S
C203 H206 0.950 . S
C204 C203 1.387 . S
C204 C207 1.387 . S
H205 C201 0.950 . S
H206 C203 0.950 . S
C207 C198 1.390 . S
C207 H200 0.950 . S
C207 C204 1.387 . S
C208 C209 1.387 . S
C208 H212 0.950 . S
C208 C217 1.390 . S
C209 C208 1.387 . S
C209 C211 1.387 . S
H210 C217 0.950 . S
C211 C209 1.387 . S
C211 C213 1.390 . S
C211 H215 0.950 . S
H212 C208 0.950 . S
C213 C211 1.390 . S
C213 C214 1.387 . S
C213 H216 0.950 . S
C214 C213 1.387 . S
C214 C217 1.387 . S
H215 C211 0.950 . S
H216 C213 0.950 . S
C217 C208 1.390 . S
C217 H210 0.950 . S
C217 C214 1.387 . S
C104 C89 1.353 . S
C99 C21 1.446 . S
C109 C19 1.435 1_556 S
C114 C76 1.364 . S
C119 C18 1.480 . S
C124 C93 1.500 . S
C129 C20 1.512 . S
C134 C80 1.510 . S
C139 C44 1.446 . S
C144 C63 1.353 . S
C149 C42 1.440 . S
C154 C50 1.364 . S
C164 C67 1.501 . S
C159 C41 1.480 . S
C174 C54 1.510 . S
C169 C43 1.512 . S
C179 C16 1.527 . S
C184 C55 1.523 . S
C189 C17 1.500 . S
C194 C68 1.498 . S
C204 C81 1.524 . S
C199 C39 1.527 . S
C209 C40 1.500 . S
C214 C94 1.498 . S
