# Generated by pormake.
# Topology tsx, (6,3)-cn, num edge types: 1
# Building blocks:
#     Node 0, Type 0, BuildingBlock: LEVNOQ01_clean_sbu_1, # of connection points: 6
#     Node 1, Type 0, BuildingBlock: LEVNOQ01_clean_sbu_1, # of connection points: 6
#     Node 2, Type 1, BuildingBlock: QEWDON_clean_linker_0, # of connection points: 3
#     Node 3, Type 1, BuildingBlock: QEWDON_clean_linker_0, # of connection points: 3
#     Node 4, Type 1, BuildingBlock: QEWDON_clean_linker_0, # of connection points: 3
#     Node 5, Type 1, BuildingBlock: QEWDON_clean_linker_0, # of connection points: 3
#     Edge 6, Type (0, 1), None
#     Edge 7, Type (0, 1), None
#     Edge 8, Type (0, 1), None
#     Edge 9, Type (0, 1), None
#     Edge 10, Type (0, 1), None
#     Edge 11, Type (0, 1), None
#     Edge 12, Type (0, 1), None
#     Edge 13, Type (0, 1), None
#     Edge 14, Type (0, 1), None
#     Edge 15, Type (0, 1), None
#     Edge 16, Type (0, 1), None
#     Edge 17, Type (0, 1), None
# Relax obj value: 0.117
# Max RMSD: 0.183
# Mean RMSD: 0.138
data_MOF--net-tsx--node1-LEVNOQ01_clean_sbu_1--node2-QEWDON_clean_linker_0--edge1-none
_symmetry_space_group_name_H-M    P1
_symmetry_Int_Tables_number       1
_symmetry_cell_setting            triclinic
loop_
_symmetry_equiv_pos_as_xyz
'x, y, z'
_cell_length_a     8.0524978
_cell_length_b     12.473212
_cell_length_c     14.381647
_cell_angle_alpha  91.102927
_cell_angle_beta   118.66177
_cell_angle_gamma 91.665766
loop_
_atom_site_label
_atom_site_type_symbol
_atom_site_fract_x
_atom_site_fract_y
_atom_site_fract_z
_atom_type_partial_charge
O0 O 0.59341 0.05699 0.33617 0.0
Mg1 Mg 0.65335 0.06642 0.20707 0.0
O2 O 0.30246 -0.01411 0.23684 0.0
Mg3 Mg 0.20615 -0.00996 0.05222 0.0
O4 O 0.43086 0.12431 0.0888 0.0
O5 O 0.70678 0.21519 0.16768 0.0
O6 O 1.10833 -0.02134 0.86732 0.0
O7 O 1.08173 0.16251 1.03421 0.0
Mg8 Mg 0.83861 0.01891 0.94725 0.0
O9 O 0.91967 0.8617 0.99151 0.0
O10 O 0.82296 0.04341 0.79508 0.0
O11 O 0.80506 0.15612 1.02408 0.0
O12 O 0.62537 0.92096 0.93343 0.0
C13 C 0.63165 0.84469 0.14634 0.0
C14 C 0.44136 0.01594 0.328 0.0
C15 C 0.52862 0.21299 0.10112 0.0
C16 C 0.96027 0.00929 0.78485 0.0
C17 C 0.94844 0.2109 1.0379 0.0
C18 C 0.73379 0.84297 0.95132 0.0
O19 O 0.72655 0.92882 0.15266 0.0
O20 O 0.44896 0.8476 0.11284 0.0
O21 O 1.09343 0.55701 0.83618 0.0
Mg22 Mg 0.15337 0.56642 0.70708 0.0
O23 O 0.80249 0.48589 0.73684 0.0
Mg24 Mg 0.70618 0.49004 0.55222 0.0
O25 O 0.93089 0.62431 0.5888 0.0
O26 O 0.2068 0.7152 0.66768 0.0
O27 O 0.60836 0.47866 0.36732 0.0
O28 O 0.58176 0.66251 0.5342 0.0
Mg29 Mg 0.33867 0.5189 0.44727 0.0
O30 O 0.4197 0.36169 0.49152 0.0
O31 O 0.323 0.54341 0.29509 0.0
O32 O 0.30514 0.6561 0.52412 0.0
O33 O 0.12541 0.42097 0.43346 0.0
C34 C 0.13167 0.34469 0.64635 0.0
C35 C 0.94138 0.51595 0.828 0.0
C36 C 1.02864 0.71299 0.60112 0.0
C37 C 0.46029 0.50929 0.28486 0.0
C38 C 0.44849 0.7109 0.53791 0.0
C39 C 0.23382 0.34297 0.45133 0.0
O40 O 0.22657 0.42882 0.65267 0.0
O41 O 0.94898 0.3476 0.61285 0.0
H42 H 0.4702 0.13619 0.50033 0.0
C43 C 0.45422 0.05129 0.50801 0.0
C44 C 0.44277 -0.0197 0.42636 0.0
C45 C 0.43646 0.01197 0.59561 0.0
H46 H 0.43364 0.81567 0.37731 0.0
C47 C 0.43698 0.87009 0.43813 0.0
C48 C 0.44092 0.82847 0.52804 0.0
C49 C 0.43821 0.89822 0.60521 0.0
C50 C 0.40009 0.08576 0.67088 0.0
H51 H 0.43799 0.86102 0.67175 0.0
C52 C 0.35775 0.19552 0.65324 0.0
C53 C 0.24437 0.24632 0.69202 0.0
C54 C 0.38682 0.04525 0.75743 0.0
H55 H 0.39691 -0.03806 0.7727 0.0
C56 C 0.34769 0.11189 0.82316 0.0
H57 H 0.40362 0.2369 0.60615 0.0
C58 C 0.25588 0.20674 0.78466 0.0
H59 H 0.19565 0.24899 0.82714 0.0
H60 H 0.37101 0.08495 0.89886 0.0
H61 H 0.92201 0.12586 0.60956 0.0
C62 C 0.92998 0.04078 0.59969 0.0
C63 C 0.92788 -0.02708 0.67765 0.0
C64 C 0.9547 -0.00236 0.51415 0.0
H65 H 0.92047 0.81042 0.7211 0.0
C66 C 0.92014 0.86235 0.66115 0.0
C67 C 0.9442 0.8176 0.57948 0.0
C68 C 0.96715 0.88453 0.50922 0.0
C69 C 0.99476 0.06707 0.43924 0.0
H70 H 1.01249 0.84655 0.45784 0.0
C71 C 1.02838 0.17959 0.4527 0.0
C72 C 0.13698 0.23401 0.41201 0.0
C73 C 1.0057 0.02119 0.35236 0.0
H74 H 0.97258 0.93762 0.33014 0.0
C75 C 1.04822 0.08505 0.28696 0.0
H76 H 0.97518 0.22164 0.49616 0.0
C77 C 0.13277 0.18718 0.32229 0.0
H78 H 0.18907 0.2303 0.27818 0.0
H79 H 1.02242 0.05348 0.21077 0.0
H80 H 0.97023 0.6362 1.00034 0.0
C81 C 0.95424 0.55129 1.00802 0.0
C82 C 0.94279 0.48031 0.92636 0.0
C83 C 0.93646 0.51198 0.09562 0.0
H84 H 0.93364 0.31568 0.87731 0.0
C85 C 0.93698 0.37009 0.93813 0.0
C86 C 0.9409 0.32847 1.02803 0.0
C87 C 0.93819 0.39823 0.10521 0.0
C88 C 0.9001 0.58577 0.17088 0.0
H89 H 0.93793 0.36102 0.17173 0.0
C90 C 0.85774 0.69552 0.15324 0.0
C91 C 0.74436 0.74633 0.19201 0.0
C92 C 0.88685 0.54526 0.25744 0.0
H93 H 0.89698 0.46195 0.27272 0.0
C94 C 0.8477 0.6119 0.32317 0.0
H95 H 0.90361 0.73691 0.10614 0.0
C96 C 0.75587 0.70674 0.28466 0.0
H97 H 0.69564 0.749 0.32714 0.0
H98 H 0.87103 0.58496 0.39887 0.0
H99 H 0.42202 0.62585 0.10957 0.0
C100 C 0.42999 0.54078 0.0997 0.0
C101 C 0.42789 0.47292 0.17766 0.0
C102 C 0.4547 0.49764 1.01415 0.0
H103 H 0.42047 0.31042 0.2211 0.0
C104 C 0.42013 0.36235 0.16115 0.0
C105 C 0.44418 0.31759 0.07948 0.0
C106 C 0.46713 0.38453 1.00922 0.0
C107 C 0.49476 0.56707 0.93925 0.0
H108 H 0.51247 0.34654 0.95784 0.0
C109 C 0.52836 0.67959 0.95269 0.0
C110 C 0.63697 0.734 0.91201 0.0
C111 C 0.50572 0.52118 0.85237 0.0
H112 H 0.47261 0.43761 0.83015 0.0
C113 C 0.54824 0.58504 0.78697 0.0
H114 H 0.47515 0.72164 0.99615 0.0
C115 C 0.63277 0.68717 0.82229 0.0
H116 H 0.68907 0.73029 0.77818 0.0
H117 H 0.52245 0.55346 0.71079 0.0
loop_
_geom_bond_atom_site_label_1
_geom_bond_atom_site_label_2
_geom_bond_distance
_geom_bond_site_symmetry_2
_ccdc_geom_bond_type
O0 Mg1 1.990 . S
O0 C14 1.253 . S
Mg1 O0 1.990 . S
Mg1 O4 2.180 . S
Mg1 O5 2.117 . S
Mg1 O19 2.030 1_545 S
O2 Mg3 2.072 . S
O2 C14 1.260 . S
Mg3 O2 2.072 . S
Mg3 O4 2.099 . S
Mg3 O6 2.079 1_554 S
Mg3 O7 2.072 1_455 S
Mg3 O9 2.099 1_444 S
Mg3 O20 2.079 1_545 S
O4 Mg1 2.180 . S
O4 Mg3 2.099 . S
O4 C15 1.279 . S
O5 Mg1 2.117 . S
O5 C15 1.250 . S
O6 Mg3 2.079 1_556 S
O6 C16 1.264 1_455 S
O7 Mg3 2.072 1_655 S
O7 C17 1.260 1_554 S
Mg8 O9 2.180 . S
Mg8 O10 2.030 1_565 S
Mg8 O11 1.990 1_565 S
Mg8 O12 2.117 . S
O9 Mg3 2.099 1_666 S
O9 Mg8 2.180 . S
O9 C18 1.279 . S
O10 Mg8 2.030 1_545 S
O10 C16 1.248 . S
O11 Mg8 1.990 1_545 S
O11 C17 1.253 . S
O12 Mg8 2.117 . S
O12 C18 1.250 . S
C13 O19 1.248 . S
C13 O20 1.266 . S
C14 O0 1.253 . S
C14 O2 1.260 . S
C15 O4 1.279 . S
C15 O5 1.250 . S
C16 O6 1.264 1_655 S
C16 O10 1.248 . S
C17 O7 1.260 1_556 S
C17 O11 1.253 . S
C18 O9 1.279 . S
C18 O12 1.250 . S
O19 Mg1 2.030 1_565 S
O19 C13 1.248 . S
O20 Mg3 2.079 1_565 S
O20 C13 1.266 . S
O21 Mg22 1.990 . S
O21 C35 1.253 . S
Mg22 O21 1.990 . S
Mg22 O25 2.180 . S
Mg22 O26 2.117 . S
Mg22 O40 2.030 . S
O23 Mg24 2.072 . S
O23 C35 1.260 . S
Mg24 O23 2.072 . S
Mg24 O25 2.099 . S
Mg24 O27 2.079 . S
Mg24 O28 2.072 . S
Mg24 O30 2.099 . S
Mg24 O41 2.079 . S
O25 Mg22 2.180 . S
O25 Mg24 2.099 . S
O25 C36 1.279 . S
O26 Mg22 2.117 . S
O26 C36 1.250 . S
O27 Mg24 2.079 . S
O27 C37 1.264 . S
O28 Mg24 2.072 . S
O28 C38 1.260 . S
Mg29 O30 2.180 . S
Mg29 O31 2.030 . S
Mg29 O32 1.990 . S
Mg29 O33 2.117 . S
O30 Mg24 2.099 . S
O30 Mg29 2.180 . S
O30 C39 1.279 . S
O31 Mg29 2.030 . S
O31 C37 1.248 . S
O32 Mg29 1.990 . S
O32 C38 1.253 . S
O33 Mg29 2.117 . S
O33 C39 1.250 . S
C34 O40 1.248 . S
C34 O41 1.264 . S
C35 O21 1.253 . S
C35 O23 1.260 . S
C36 O25 1.279 . S
C36 O26 1.250 . S
C37 O27 1.264 . S
C37 O31 1.248 . S
C38 O28 1.260 . S
C38 O32 1.253 . S
C39 O30 1.279 . S
C39 O33 1.250 . S
O40 Mg22 2.030 . S
O40 C34 1.248 . S
O41 Mg24 2.079 . S
O41 C34 1.264 . S
H42 C43 0.949 . S
C43 H42 0.949 . S
C43 C44 1.395 1_545 S
C43 C45 1.391 . S
C44 C43 1.395 1_565 S
C44 C47 1.390 . S
C45 C43 1.391 . S
C45 C49 1.387 1_545 S
C45 C50 1.491 . S
H46 C47 0.950 . S
C47 C44 1.390 . S
C47 H46 0.950 . S
C47 C48 1.378 . S
C48 C47 1.378 . S
C48 C49 1.409 . S
C49 C45 1.387 1_565 S
C49 C48 1.409 . S
C49 H51 0.951 . S
C50 C45 1.491 . S
C50 C52 1.382 . S
C50 C54 1.404 . S
H51 C49 0.951 . S
C52 C50 1.382 . S
C52 C53 1.390 1_455 S
C52 H57 0.949 1_455 S
C53 C52 1.390 1_655 S
C53 C58 1.399 1_655 S
C54 C50 1.404 . S
C54 H55 0.950 . S
C54 C56 1.375 . S
H55 C54 0.950 . S
C56 C54 1.375 . S
C56 C58 1.382 . S
C56 H60 0.950 . S
H57 C52 0.949 1_655 S
C58 C53 1.399 1_455 S
C58 C56 1.382 . S
C58 H59 0.952 . S
H59 C58 0.952 . S
H60 C56 0.950 . S
H61 C62 0.949 . S
C62 H61 0.949 . S
C62 C63 1.395 1_455 S
C62 C64 1.391 1_455 S
C63 C62 1.395 1_655 S
C63 C66 1.390 1_545 S
C64 C62 1.391 1_655 S
C64 C68 1.387 1_545 S
C64 C69 1.487 1_655 S
H65 C66 0.950 . S
C66 C63 1.390 1_565 S
C66 H65 0.950 . S
C66 C67 1.378 . S
C67 C66 1.378 . S
C67 C68 1.409 . S
C68 C64 1.387 1_565 S
C68 C67 1.409 . S
C68 H70 0.951 . S
C69 C64 1.487 1_455 S
C69 C71 1.389 . S
C69 C73 1.400 1_455 S
H70 C68 0.951 . S
C71 C69 1.389 . S
C71 C72 1.390 . S
C71 H76 0.949 . S
C72 C71 1.390 . S
C72 C77 1.399 . S
C73 C69 1.400 1_655 S
C73 H74 0.950 . S
C73 C75 1.375 . S
H74 C73 0.950 . S
C75 C73 1.375 . S
C75 C77 1.382 1_655 S
C75 H79 0.950 . S
H76 C71 0.949 . S
C77 C72 1.399 . S
C77 C75 1.382 1_455 S
C77 H78 0.952 . S
H78 C77 0.952 . S
H79 C75 0.950 . S
H80 C81 0.949 . S
C81 H80 0.949 . S
C81 C82 1.395 . S
C81 C83 1.391 1_556 S
C82 C81 1.395 . S
C82 C85 1.390 . S
C83 C81 1.391 1_554 S
C83 C87 1.387 . S
C83 C88 1.491 . S
H84 C85 0.950 . S
C85 C82 1.390 . S
C85 H84 0.950 . S
C85 C86 1.378 . S
C86 C85 1.378 . S
C86 C87 1.409 1_556 S
C87 C83 1.387 . S
C87 C86 1.409 1_554 S
C87 H89 0.951 . S
C88 C83 1.491 . S
C88 C90 1.382 . S
C88 C92 1.404 . S
H89 C87 0.951 . S
C90 C88 1.382 . S
C90 C91 1.390 . S
C90 H95 0.949 1_554 S
C91 C90 1.390 . S
C91 C96 1.399 . S
C92 C88 1.404 . S
C92 H93 0.950 . S
C92 C94 1.375 . S
H93 C92 0.950 . S
C94 C92 1.375 . S
C94 C96 1.382 . S
C94 H98 0.950 . S
H95 C90 0.949 1_556 S
C96 C91 1.399 . S
C96 C94 1.382 . S
C96 H97 0.952 . S
H97 C96 0.952 . S
H98 C94 0.950 . S
H99 C100 0.949 . S
C100 H99 0.949 . S
C100 C101 1.395 . S
C100 C102 1.391 . S
C101 C100 1.395 . S
C101 C104 1.390 . S
C102 C100 1.391 . S
C102 C106 1.387 1_554 S
C102 C107 1.491 1_554 S
H103 C104 0.950 . S
C104 C101 1.390 . S
C104 H103 0.950 . S
C104 C105 1.378 . S
C105 C104 1.378 . S
C105 C106 1.409 1_554 S
C106 C102 1.387 1_556 S
C106 C105 1.409 1_556 S
C106 H108 0.951 . S
C107 C102 1.491 1_556 S
C107 C109 1.382 . S
C107 C111 1.404 . S
H108 C106 0.951 . S
C109 C107 1.382 . S
C109 C110 1.390 . S
C109 H114 0.949 1_556 S
C110 C109 1.390 . S
C110 C115 1.399 . S
C111 C107 1.404 . S
C111 H112 0.950 . S
C111 C113 1.375 . S
H112 C111 0.950 . S
C113 C111 1.375 . S
C113 C115 1.382 . S
C113 H117 0.950 . S
H114 C109 0.949 1_554 S
C115 C110 1.399 . S
C115 C113 1.382 . S
C115 H116 0.952 . S
H116 C115 0.952 . S
H117 C113 0.950 . S
C105 C15 1.769 . S
C13 C91 1.570 . S
C18 C110 1.247 . S
C17 C86 1.566 . S
C36 C67 1.769 . S
C34 C53 1.570 . S
C72 C39 1.247 . S
C48 C38 1.566 . S
C14 C44 1.884 1_545 S
C16 C63 1.389 . S
C82 C35 1.884 . S
C37 C101 1.389 . S
