# Generated by pormake.
# Topology tsx, (6,3)-cn, num edge types: 1
# Building blocks:
#     Node 0, Type 0, BuildingBlock: FUNLAD_clean_sbu_0, # of connection points: 6
#     Node 1, Type 0, BuildingBlock: FUNLAD_clean_sbu_0, # of connection points: 6
#     Node 2, Type 1, BuildingBlock: BELTOD_clean_linker_0, # of connection points: 3
#     Node 3, Type 1, BuildingBlock: BELTOD_clean_linker_0, # of connection points: 3
#     Node 4, Type 1, BuildingBlock: BELTOD_clean_linker_0, # of connection points: 3
#     Node 5, Type 1, BuildingBlock: BELTOD_clean_linker_0, # of connection points: 3
#     Edge 6, Type (0, 1), None
#     Edge 7, Type (0, 1), None
#     Edge 8, Type (0, 1), None
#     Edge 9, Type (0, 1), None
#     Edge 10, Type (0, 1), None
#     Edge 11, Type (0, 1), None
#     Edge 12, Type (0, 1), None
#     Edge 13, Type (0, 1), None
#     Edge 14, Type (0, 1), None
#     Edge 15, Type (0, 1), None
#     Edge 16, Type (0, 1), None
#     Edge 17, Type (0, 1), None
# Relax obj value: 0.148
# Max RMSD: 0.145
# Mean RMSD: 0.055
data_MOF--net-tsx--node1-FUNLAD_clean_sbu_0--node2-BELTOD_clean_linker_0--edge1-none
_symmetry_space_group_name_H-M    P1
_symmetry_Int_Tables_number       1
_symmetry_cell_setting            triclinic
loop_
_symmetry_equiv_pos_as_xyz
'x, y, z'
_cell_length_a     10.987096
_cell_length_b     11.425295
_cell_length_c     28.09684
_cell_angle_alpha  90.231301
_cell_angle_beta   92.480236
_cell_angle_gamma 88.929372
loop_
_atom_site_label
_atom_site_type_symbol
_atom_site_fract_x
_atom_site_fract_y
_atom_site_fract_z
_atom_type_partial_charge
C0 C 0.8318 0.8552 -0.00726 0.0
N1 N 0.98225 0.09603 0.08579 0.0
C2 C 0.87363 0.08996 0.10724 0.0
C3 C 0.86677 0.11249 0.156 0.0
C4 C 0.97249 0.14271 0.18259 0.0
C5 C 0.08267 0.15056 0.15942 0.0
C6 C 0.08576 0.12574 0.11091 0.0
Zn7 Zn -0.00544 0.05262 0.01544 0.0
C8 C 0.17382 0.85537 -0.00145 0.0
N9 N 0.02136 0.95139 0.87232 0.0
C10 C 0.92045 0.94703 0.84261 0.0
C11 C 0.13498 0.93369 0.85602 0.0
C12 C 0.15089 0.9161 0.80765 0.0
C13 C 0.04895 0.91804 0.77573 0.0
C14 C 0.93222 0.9305 0.79381 0.0
Zn15 Zn 0.00511 0.99613 0.94153 0.0
O16 O 0.87553 0.91813 0.02596 0.0
C17 C 0.83148 0.193 0.94887 0.0
O18 O 0.86013 0.87474 0.94992 0.0
H19 H 0.21382 0.93646 0.8804 0.0
H20 H 0.79227 0.06629 0.08666 0.0
H21 H 0.83105 0.96076 0.85656 0.0
O22 O 0.84798 0.17377 -0.00651 0.0
O23 O 0.8893 0.13206 0.91964 0.0
H24 H 0.17161 0.12793 0.09355 0.0
O25 O 0.16229 0.11359 0.93925 0.0
O26 O 0.11226 0.18677 0.00791 0.0
O27 O 0.11621 0.86303 0.95911 0.0
O28 O 0.15127 0.92984 0.03133 0.0
C29 C 0.18036 0.18734 -0.02698 0.0
H30 H 0.78023 0.10578 0.17277 0.0
H31 H 0.16663 0.17162 0.17898 0.0
H32 H 0.24229 0.9038 0.79526 0.0
H33 H 0.85131 0.9327 0.77037 0.0
C34 C 0.3318 0.35518 0.49274 0.0
N35 N 0.48225 0.59602 0.58579 0.0
C36 C 0.37363 0.58995 0.60724 0.0
C37 C 0.36677 0.61248 0.656 0.0
C38 C 0.47249 0.6427 0.68259 0.0
C39 C 0.58267 0.65055 0.65942 0.0
C40 C 0.58576 0.62572 0.61091 0.0
Zn41 Zn 0.49456 0.55261 0.51544 0.0
C42 C 0.67382 0.35536 0.49855 0.0
N43 N 0.52136 0.45138 0.37232 0.0
C44 C 0.42045 0.44702 0.34261 0.0
C45 C 0.63499 0.43368 0.35602 0.0
C46 C 0.65089 0.4161 0.30765 0.0
C47 C 0.54895 0.41804 0.27573 0.0
C48 C 0.43222 0.4305 0.29381 0.0
Zn49 Zn 0.50512 0.49612 0.44153 0.0
O50 O 0.37553 0.41812 0.52596 0.0
C51 C 0.33148 0.69298 0.44887 0.0
O52 O 0.36014 0.37473 0.44992 0.0
H53 H 0.71382 0.43645 0.3804 0.0
H54 H 0.29227 0.56628 0.58666 0.0
H55 H 0.33105 0.46075 0.35657 0.0
O56 O 0.34798 0.67376 0.49349 0.0
O57 O 0.3893 0.63205 0.41964 0.0
H58 H 0.67161 0.62792 0.59355 0.0
O59 O 0.66229 0.61358 0.43925 0.0
O60 O 0.61226 0.68676 0.50791 0.0
O61 O 0.61621 0.36302 0.45911 0.0
O62 O 0.65128 0.42983 0.53133 0.0
C63 C 0.68036 0.68733 0.47302 0.0
H64 H 0.28023 0.60578 0.67277 0.0
H65 H 0.66663 0.67161 0.67898 0.0
H66 H 0.74229 0.4038 0.29526 0.0
H67 H 0.35131 0.43269 0.27037 0.0
P68 P 0.07758 0.15265 0.39433 0.0
H69 H 0.05966 0.35535 0.45785 0.0
H70 H 0.90612 0.4236 0.51194 0.0
H71 H 0.6861 0.12803 0.47323 0.0
H72 H 0.84483 0.05277 0.42291 0.0
H73 H 0.33091 0.07193 0.39313 0.0
H74 H 0.43373 0.8897 0.41837 0.0
H75 H 0.08865 0.72498 0.42718 0.0
H76 H 0.98268 0.9123 0.40974 0.0
H77 H 0.10486 0.32852 0.32082 0.0
H78 H 0.91882 1.0016 0.33439 0.0
O79 O 0.18954 0.24898 0.39914 0.0
H80 H 0.06623 0.32299 0.23486 0.0
H81 H 0.87919 0.99646 0.2479 0.0
C82 C 0.96713 0.19577 0.4374 0.0
C83 C 0.98193 0.30081 0.46298 0.0
C84 C 0.89443 0.33992 0.49441 0.0
C85 C 0.78432 0.28146 0.49701 0.0
C86 C 0.77219 0.17287 0.47345 0.0
C87 C 0.8622 0.13099 0.44359 0.0
C88 C 0.14875 1.01013 0.40409 0.0
C89 C 0.276 0.99855 0.40253 0.0
C90 C 0.33501 0.8942 0.41663 0.0
C91 C 0.26717 0.79872 0.43077 0.0
C92 C 0.14056 0.80346 0.42377 0.0
C93 C 0.08087 0.90974 0.41221 0.0
C94 C 0.01792 0.16345 0.33391 0.0
C95 C 0.05361 0.2565 0.30555 0.0
C96 C 0.03153 0.25356 0.25636 0.0
C97 C 0.97189 0.15827 0.23483 0.0
C98 C 0.92573 0.07077 0.26372 0.0
C99 C 0.94887 0.0733 0.3131 0.0
P100 P 0.13099 0.89833 0.56361 0.0
H101 H 0.08396 0.67286 0.51748 0.0
H102 H 0.90708 0.59506 0.47304 0.0
H103 H 0.70794 0.91592 0.49736 0.0
H104 H 0.89082 0.99986 0.53686 0.0
H105 H 0.3402 0.95447 0.50889 0.0
H106 H 0.41439 0.1369 0.47636 0.0
H107 H 0.13728 0.32952 0.5488 0.0
H108 H 0.05118 0.1444 0.57536 0.0
H109 H 0.94455 0.79485 0.62161 0.0
H110 H 0.25118 0.02326 0.64155 0.0
O111 O 0.24477 0.80052 0.56199 0.0
H112 H 0.91468 0.79909 0.70732 0.0
H113 H 0.22038 0.03012 0.72675 0.0
C114 C 0.0021 0.84399 0.52889 0.0
C115 C 0.00405 0.7287 0.51167 0.0
C116 C 0.90325 0.68416 0.48595 0.0
C117 C 0.7951 0.75036 0.48061 0.0
C118 C 0.79232 0.86525 0.49879 0.0
C119 C 0.89579 0.91239 0.52206 0.0
C120 C 0.18536 0.03487 0.54162 0.0
C121 C 0.2901 0.03495 0.51503 0.0
C122 C 0.33277 0.13918 0.4967 0.0
C123 C 0.27449 0.2459 0.50658 0.0
C124 C 0.17755 0.24716 0.53762 0.0
C125 C 0.12939 0.1419 0.55319 0.0
C126 C 0.09774 0.91187 0.62517 0.0
C127 C 0.00381 0.84791 0.64425 0.0
C128 C -0.01292 0.84998 0.69324 0.0
C129 C 0.06536 0.91468 0.72377 0.0
C130 C 0.15953 0.97816 0.70429 0.0
C131 C 0.17607 0.9759 0.65548 0.0
P132 P 0.57758 0.65266 0.89433 0.0
H133 H 0.55966 0.85536 0.95785 0.0
H134 H 0.40612 0.92361 0.01194 0.0
H135 H 0.18609 0.62804 -0.02677 0.0
H136 H 0.34483 0.55278 0.92291 0.0
H137 H 0.83091 0.57195 0.89313 0.0
H138 H 0.93373 0.38971 0.91837 0.0
H139 H 0.58865 0.225 0.92718 0.0
H140 H 0.48268 0.41232 0.90974 0.0
H141 H 0.60487 0.82852 0.82082 0.0
H142 H 0.41881 0.50161 0.83439 0.0
O143 O 0.68953 0.74899 0.89914 0.0
H144 H 0.56624 0.82298 0.73486 0.0
H145 H 0.37919 0.49646 0.7479 0.0
C146 C 0.46713 0.69578 0.9374 0.0
C147 C 0.48193 0.80082 0.96298 0.0
C148 C 0.39442 0.83993 -0.00559 0.0
C149 C 0.28431 0.78147 -0.00299 0.0
C150 C 0.27219 0.67288 -0.02655 0.0
C151 C 0.3622 0.631 0.94359 0.0
C152 C 0.64875 0.51014 0.90409 0.0
C153 C 0.77599 0.49856 0.90253 0.0
C154 C 0.83501 0.39421 0.91663 0.0
C155 C 0.76717 0.29873 0.93077 0.0
C156 C 0.64056 0.30347 0.92377 0.0
C157 C 0.58087 0.40976 0.91221 0.0
C158 C 0.51792 0.66346 0.83391 0.0
C159 C 0.55362 0.7565 0.80555 0.0
C160 C 0.53153 0.75356 0.75635 0.0
C161 C 0.47189 0.65827 0.73483 0.0
C162 C 0.42572 0.57078 0.76373 0.0
C163 C 0.44887 0.57331 0.8131 0.0
P164 P 0.63099 0.39834 0.06361 0.0
H165 H 0.58396 0.17287 0.01748 0.0
H166 H 0.40708 0.09507 -0.02696 0.0
H167 H 0.20794 0.41593 -0.00264 0.0
H168 H 0.39082 0.49987 0.03686 0.0
H169 H 0.8402 0.45448 0.00889 0.0
H170 H 0.91438 0.63691 -0.02364 0.0
H171 H 0.63728 0.82953 0.0488 0.0
H172 H 0.55118 0.64441 0.07536 0.0
H173 H 0.44455 0.29486 0.12161 0.0
H174 H 0.75117 0.52327 0.14155 0.0
O175 O 0.74477 0.30053 0.06199 0.0
H176 H 0.41469 0.29909 0.20732 0.0
H177 H 0.72037 0.53013 0.22676 0.0
C178 C 0.5021 0.34401 0.02889 0.0
C179 C 0.50405 0.22871 0.01167 0.0
C180 C 0.40325 0.18417 -0.01405 0.0
C181 C 0.2951 0.25037 -0.01939 0.0
C182 C 0.29232 0.36526 -0.00121 0.0
C183 C 0.39579 0.41241 0.02206 0.0
C184 C 0.68536 0.53488 0.04162 0.0
C185 C 0.79009 0.53496 0.01503 0.0
C186 C 0.83277 0.6392 -0.0033 0.0
C187 C 0.77449 0.74591 0.00658 0.0
C188 C 0.67755 0.74717 0.03762 0.0
C189 C 0.62938 0.64192 0.05319 0.0
C190 C 0.59774 0.41188 0.12517 0.0
C191 C 0.50381 0.34791 0.14425 0.0
C192 C 0.48708 0.34998 0.19324 0.0
C193 C 0.56536 0.41468 0.22377 0.0
C194 C 0.65952 0.47817 0.20429 0.0
C195 C 0.67607 0.47591 0.15548 0.0
loop_
_geom_bond_atom_site_label_1
_geom_bond_atom_site_label_2
_geom_bond_distance
_geom_bond_site_symmetry_2
_ccdc_geom_bond_type
C0 O16 1.251 . S
C0 O18 1.254 1_554 S
N1 C2 1.333 1_445 S
N1 C6 1.307 . S
N1 Zn7 2.020 . S
C2 N1 1.333 1_665 S
C2 C3 1.379 . S
C2 H20 0.952 . S
C3 C2 1.379 . S
C3 C4 1.390 1_665 S
C3 H30 0.949 . S
C4 C3 1.390 1_445 S
C4 C5 1.357 . S
C5 C4 1.357 . S
C5 C6 1.370 . S
C5 H31 0.950 . S
C6 N1 1.307 . S
C6 C5 1.370 . S
C6 H24 0.948 . S
Zn7 N1 2.020 . S
Zn7 O16 2.039 1_445 S
Zn7 O22 2.034 1_455 S
Zn7 O26 2.025 . S
Zn7 O28 2.024 1_545 S
C8 O27 1.246 1_554 S
C8 O28 1.249 . S
N9 C10 1.307 1_455 S
N9 C11 1.333 1_565 S
N9 Zn15 2.020 1_565 S
C10 N9 1.307 1_655 S
C10 C14 1.370 . S
C10 H21 0.948 . S
C11 N9 1.333 1_545 S
C11 C12 1.379 . S
C11 H19 0.952 . S
C12 C11 1.379 . S
C12 C13 1.390 . S
C12 H32 0.949 . S
C13 C12 1.390 . S
C13 C14 1.357 1_445 S
C14 C10 1.370 . S
C14 C13 1.357 1_665 S
C14 H33 0.950 . S
Zn15 N9 2.020 1_545 S
Zn15 O18 2.025 1_445 S
Zn15 O23 2.024 1_455 S
Zn15 O25 2.039 . S
Zn15 O27 2.034 1_545 S
O16 C0 1.251 . S
O16 Zn7 2.039 1_665 S
C17 O22 1.246 . S
C17 O23 1.249 1_554 S
O18 C0 1.254 1_556 S
O18 Zn15 2.025 1_665 S
H19 C11 0.952 . S
H20 C2 0.952 . S
H21 C10 0.948 . S
O22 Zn7 2.034 1_655 S
O22 C17 1.246 . S
O23 Zn15 2.024 1_655 S
O23 C17 1.249 1_556 S
H24 C6 0.948 . S
O25 Zn15 2.039 . S
O25 C29 1.251 1_556 S
O26 Zn7 2.025 . S
O26 C29 1.254 . S
O27 C8 1.246 1_556 S
O27 Zn15 2.034 1_565 S
O28 Zn7 2.024 1_565 S
O28 C8 1.249 . S
C29 O25 1.251 1_554 S
C29 O26 1.254 . S
H30 C3 0.949 . S
H31 C5 0.950 . S
H32 C12 0.949 . S
H33 C14 0.950 . S
C34 O50 1.251 . S
C34 O52 1.254 . S
N35 C36 1.333 . S
N35 C40 1.307 . S
N35 Zn41 2.020 . S
C36 N35 1.333 . S
C36 C37 1.379 . S
C36 H54 0.952 . S
C37 C36 1.379 . S
C37 C38 1.390 . S
C37 H64 0.949 . S
C38 C37 1.390 . S
C38 C39 1.357 . S
C39 C38 1.357 . S
C39 C40 1.370 . S
C39 H65 0.950 . S
C40 N35 1.307 . S
C40 C39 1.370 . S
C40 H58 0.948 . S
Zn41 N35 2.020 . S
Zn41 O50 2.039 . S
Zn41 O56 2.034 . S
Zn41 O60 2.025 . S
Zn41 O62 2.024 . S
C42 O61 1.246 . S
C42 O62 1.249 . S
N43 C44 1.307 . S
N43 C45 1.333 . S
N43 Zn49 2.020 . S
C44 N43 1.307 . S
C44 C48 1.370 . S
C44 H55 0.948 . S
C45 N43 1.333 . S
C45 C46 1.379 . S
C45 H53 0.952 . S
C46 C45 1.379 . S
C46 C47 1.390 . S
C46 H66 0.949 . S
C47 C46 1.390 . S
C47 C48 1.357 . S
C48 C44 1.370 . S
C48 C47 1.357 . S
C48 H67 0.950 . S
Zn49 N43 2.020 . S
Zn49 O52 2.025 . S
Zn49 O57 2.024 . S
Zn49 O59 2.039 . S
Zn49 O61 2.034 . S
O50 C34 1.251 . S
O50 Zn41 2.039 . S
C51 O56 1.246 . S
C51 O57 1.249 . S
O52 C34 1.254 . S
O52 Zn49 2.025 . S
H53 C45 0.952 . S
H54 C36 0.952 . S
H55 C44 0.948 . S
O56 Zn41 2.034 . S
O56 C51 1.246 . S
O57 Zn49 2.024 . S
O57 C51 1.249 . S
H58 C40 0.948 . S
O59 Zn49 2.039 . S
O59 C63 1.251 . S
O60 Zn41 2.025 . S
O60 C63 1.254 . S
O61 C42 1.246 . S
O61 Zn49 2.034 . S
O62 Zn41 2.024 . S
O62 C42 1.249 . S
C63 O59 1.251 . S
C63 O60 1.254 . S
H64 C37 0.949 . S
H65 C39 0.950 . S
H66 C46 0.949 . S
H67 C48 0.950 . S
P68 O79 1.490 . S
P68 C82 1.812 1_455 S
P68 C88 1.803 1_545 S
P68 C94 1.819 . S
H69 C83 0.941 . S
H70 C84 0.939 . S
H71 C86 0.940 . S
H72 C87 0.940 . S
H73 C89 0.939 . S
H74 C90 0.942 . S
H75 C92 0.940 . S
H76 C93 0.939 . S
H77 C95 0.941 . S
H78 C99 0.939 . S
O79 P68 1.490 . S
H80 C96 0.939 . S
H81 C98 0.940 . S
C82 P68 1.812 1_655 S
C82 C83 1.389 1_655 S
C82 C87 1.391 . S
C83 H69 0.941 . S
C83 C82 1.389 1_455 S
C83 C84 1.397 1_455 S
C84 H70 0.939 . S
C84 C83 1.397 1_655 S
C84 C85 1.378 . S
C85 C84 1.378 . S
C85 C86 1.378 . S
C86 H71 0.940 . S
C86 C85 1.378 . S
C86 C87 1.396 . S
C87 H72 0.940 . S
C87 C82 1.391 . S
C87 C86 1.396 . S
C88 P68 1.803 1_565 S
C88 C89 1.378 . S
C88 C93 1.400 . S
C89 H73 0.939 . S
C89 C88 1.378 . S
C89 C90 1.361 . S
C90 H74 0.942 . S
C90 C89 1.361 . S
C90 C91 1.369 . S
C91 C90 1.369 . S
C91 C92 1.404 . S
C92 H75 0.940 . S
C92 C91 1.404 . S
C92 C93 1.389 . S
C93 H76 0.939 . S
C93 C88 1.400 . S
C93 C92 1.389 . S
C94 P68 1.819 . S
C94 C95 1.391 . S
C94 C99 1.391 1_545 S
C95 H77 0.941 . S
C95 C94 1.391 . S
C95 C96 1.396 . S
C96 H80 0.939 . S
C96 C95 1.396 . S
C96 C97 1.397 . S
C97 C96 1.397 . S
C97 C98 1.385 1_545 S
C98 H81 0.940 . S
C98 C97 1.385 1_565 S
C98 C99 1.388 . S
C99 H78 0.939 . S
C99 C94 1.391 1_565 S
C99 C98 1.388 . S
P100 O111 1.490 . S
P100 C114 1.812 . S
P100 C120 1.803 1_565 S
P100 C126 1.819 . S
H101 C115 0.941 . S
H102 C116 0.939 . S
H103 C118 0.940 . S
H104 C119 0.940 . S
H105 C121 0.939 . S
H106 C122 0.942 . S
H107 C124 0.940 . S
H108 C125 0.939 . S
H109 C127 0.941 . S
H110 C131 0.939 . S
O111 P100 1.490 . S
H112 C128 0.939 . S
H113 C130 0.940 . S
C114 P100 1.812 . S
C114 C115 1.389 . S
C114 C119 1.391 1_455 S
C115 H101 0.941 . S
C115 C114 1.389 . S
C115 C116 1.397 1_455 S
C116 H102 0.939 . S
C116 C115 1.397 1_655 S
C116 C117 1.378 . S
C117 C116 1.378 . S
C117 C118 1.378 . S
C118 H103 0.940 . S
C118 C117 1.378 . S
C118 C119 1.396 . S
C119 H104 0.940 . S
C119 C114 1.391 1_655 S
C119 C118 1.396 . S
C120 P100 1.803 1_545 S
C120 C121 1.378 . S
C120 C125 1.400 . S
C121 H105 0.939 . S
C121 C120 1.378 . S
C121 C122 1.361 . S
C122 H106 0.942 . S
C122 C121 1.361 . S
C122 C123 1.369 . S
C123 C122 1.369 . S
C123 C124 1.404 . S
C124 H107 0.940 . S
C124 C123 1.404 . S
C124 C125 1.389 . S
C125 H108 0.939 . S
C125 C120 1.400 . S
C125 C124 1.389 . S
C126 P100 1.819 . S
C126 C127 1.391 . S
C126 C131 1.391 1_565 S
C127 H109 0.941 . S
C127 C126 1.391 . S
C127 C128 1.396 . S
C128 H112 0.939 . S
C128 C127 1.396 . S
C128 C129 1.397 . S
C129 C128 1.397 . S
C129 C130 1.385 1_565 S
C130 H113 0.940 . S
C130 C129 1.385 1_545 S
C130 C131 1.388 . S
C131 H110 0.939 . S
C131 C126 1.391 1_545 S
C131 C130 1.388 . S
P132 O143 1.490 . S
P132 C146 1.812 . S
P132 C152 1.803 . S
P132 C158 1.819 . S
H133 C147 0.941 . S
H134 C148 0.939 . S
H135 C150 0.940 . S
H136 C151 0.940 . S
H137 C153 0.939 . S
H138 C154 0.942 . S
H139 C156 0.940 . S
H140 C157 0.939 . S
H141 C159 0.941 . S
H142 C163 0.939 . S
O143 P132 1.490 . S
H144 C160 0.939 . S
H145 C162 0.940 . S
C146 P132 1.812 . S
C146 C147 1.389 1_556 S
C146 C151 1.391 . S
C147 H133 0.941 . S
C147 C146 1.389 1_554 S
C147 C148 1.397 . S
C148 H134 0.939 . S
C148 C147 1.397 . S
C148 C149 1.378 . S
C149 C148 1.378 . S
C149 C150 1.378 1_554 S
C150 H135 0.940 . S
C150 C149 1.378 1_556 S
C150 C151 1.396 . S
C151 H136 0.940 . S
C151 C146 1.391 . S
C151 C150 1.396 . S
C152 P132 1.803 . S
C152 C153 1.378 . S
C152 C157 1.400 1_556 S
C153 H137 0.939 . S
C153 C152 1.378 . S
C153 C154 1.361 1_556 S
C154 H138 0.942 . S
C154 C153 1.361 1_554 S
C154 C155 1.369 . S
C155 C154 1.369 . S
C155 C156 1.404 . S
C156 H139 0.940 . S
C156 C155 1.404 . S
C156 C157 1.389 . S
C157 H140 0.939 . S
C157 C152 1.400 1_554 S
C157 C156 1.389 . S
C158 P132 1.819 . S
C158 C159 1.391 . S
C158 C163 1.391 . S
C159 H141 0.941 . S
C159 C158 1.391 . S
C159 C160 1.396 . S
C160 H144 0.939 . S
C160 C159 1.396 . S
C160 C161 1.397 . S
C161 C160 1.397 . S
C161 C162 1.385 . S
C162 H145 0.940 . S
C162 C161 1.385 . S
C162 C163 1.388 . S
C163 H142 0.939 . S
C163 C158 1.391 . S
C163 C162 1.388 . S
P164 O175 1.490 . S
P164 C178 1.812 . S
P164 C184 1.803 . S
P164 C190 1.819 . S
H165 C179 0.941 . S
H166 C180 0.939 . S
H167 C182 0.940 . S
H168 C183 0.940 . S
H169 C185 0.939 . S
H170 C186 0.942 . S
H171 C188 0.940 . S
H172 C189 0.939 . S
H173 C191 0.941 . S
H174 C195 0.939 . S
O175 P164 1.490 . S
H176 C192 0.939 . S
H177 C194 0.940 . S
C178 P164 1.812 . S
C178 C179 1.389 1_554 S
C178 C183 1.391 . S
C179 H165 0.941 . S
C179 C178 1.389 1_556 S
C179 C180 1.397 . S
C180 H166 0.939 . S
C180 C179 1.397 . S
C180 C181 1.378 . S
C181 C180 1.378 . S
C181 C182 1.378 1_556 S
C182 H167 0.940 . S
C182 C181 1.378 1_554 S
C182 C183 1.396 . S
C183 H168 0.940 . S
C183 C178 1.391 . S
C183 C182 1.396 . S
C184 P164 1.803 . S
C184 C185 1.378 . S
C184 C189 1.400 . S
C185 H169 0.939 . S
C185 C184 1.378 . S
C185 C186 1.361 . S
C186 H170 0.942 . S
C186 C185 1.361 . S
C186 C187 1.369 1_554 S
C187 C186 1.369 1_556 S
C187 C188 1.404 . S
C188 H171 0.940 . S
C188 C187 1.404 . S
C188 C189 1.389 1_556 S
C189 H172 0.939 . S
C189 C184 1.400 . S
C189 C188 1.389 1_554 S
C190 P164 1.819 . S
C190 C191 1.391 . S
C190 C195 1.391 . S
C191 H173 0.941 . S
C191 C190 1.391 . S
C191 C192 1.396 . S
C192 H176 0.939 . S
C192 C191 1.396 . S
C192 C193 1.397 . S
C193 C192 1.397 . S
C193 C194 1.385 . S
C194 H177 0.940 . S
C194 C193 1.385 . S
C194 C195 1.388 . S
C195 H174 0.939 . S
C195 C190 1.391 . S
C195 C194 1.388 . S
C181 C29 1.852 1_556 S
C8 C149 1.748 . S
C0 C187 1.789 1_554 S
C17 C155 1.829 . S
C63 C117 1.852 . S
C42 C85 1.748 . S
C123 C34 1.789 . S
C91 C51 1.829 . S
C4 C97 1.436 . S
C13 C129 1.463 1_545 S
C161 C38 1.436 . S
C47 C193 1.463 . S
