# Generated by pormake.
# Topology zzz, (3,6)-cn, num edge types: 1
# Building blocks:
#     Node 0, Type 0, BuildingBlock: ESEHIV_clean_linker_0, # of connection points: 3
#     Node 1, Type 0, BuildingBlock: ESEHIV_clean_linker_0, # of connection points: 3
#     Node 2, Type 0, BuildingBlock: ESEHIV_clean_linker_0, # of connection points: 3
#     Node 3, Type 0, BuildingBlock: ESEHIV_clean_linker_0, # of connection points: 3
#     Node 4, Type 0, BuildingBlock: ESEHIV_clean_linker_0, # of connection points: 3
#     Node 5, Type 0, BuildingBlock: ESEHIV_clean_linker_0, # of connection points: 3
#     Node 6, Type 0, BuildingBlock: ESEHIV_clean_linker_0, # of connection points: 3
#     Node 7, Type 0, BuildingBlock: ESEHIV_clean_linker_0, # of connection points: 3
#     Node 8, Type 1, BuildingBlock: GEDQOX_clean_sbu_0, # of connection points: 6
#     Node 9, Type 1, BuildingBlock: GEDQOX_clean_sbu_0, # of connection points: 6
#     Node 10, Type 1, BuildingBlock: GEDQOX_clean_sbu_0, # of connection points: 6
#     Node 11, Type 1, BuildingBlock: GEDQOX_clean_sbu_0, # of connection points: 6
#     Edge 12, Type (0, 1), None
#     Edge 13, Type (0, 1), None
#     Edge 14, Type (0, 1), None
#     Edge 15, Type (0, 1), None
#     Edge 16, Type (0, 1), None
#     Edge 17, Type (0, 1), None
#     Edge 18, Type (0, 1), None
#     Edge 19, Type (0, 1), None
#     Edge 20, Type (0, 1), None
#     Edge 21, Type (0, 1), None
#     Edge 22, Type (0, 1), None
#     Edge 23, Type (0, 1), None
#     Edge 24, Type (0, 1), None
#     Edge 25, Type (0, 1), None
#     Edge 26, Type (0, 1), None
#     Edge 27, Type (0, 1), None
#     Edge 28, Type (0, 1), None
#     Edge 29, Type (0, 1), None
#     Edge 30, Type (0, 1), None
#     Edge 31, Type (0, 1), None
#     Edge 32, Type (0, 1), None
#     Edge 33, Type (0, 1), None
#     Edge 34, Type (0, 1), None
#     Edge 35, Type (0, 1), None
# Relax obj value: 0.373
# Max RMSD: 0.464
# Mean RMSD: 0.181
data_MOF--net-zzz--node1-GEDQOX_clean_sbu_0--node2-ESEHIV_clean_linker_0--edge1-none
_symmetry_space_group_name_H-M    P1
_symmetry_Int_Tables_number       1
_symmetry_cell_setting            triclinic
loop_
_symmetry_equiv_pos_as_xyz
'x, y, z'
_cell_length_a     19.283006
_cell_length_b     18.809351
_cell_length_c     9.8864654
_cell_angle_alpha  70.111299
_cell_angle_beta   88.418102
_cell_angle_gamma 112.40883
loop_
_atom_site_label
_atom_site_type_symbol
_atom_site_fract_x
_atom_site_fract_y
_atom_site_fract_z
_atom_type_partial_charge
H0 H 0.90982 0.51681 0.33102 0.0
H1 H 0.7805 0.48983 -0.00954 0.0
H2 H 0.7656 0.64467 0.21633 0.0
C3 C 0.86944 0.53057 0.2648 0.0
C4 C 0.8383 0.5818 0.28889 0.0
C5 C 0.85032 0.49738 0.15817 0.0
C6 C 0.79767 0.5167 0.07174 0.0
C7 C 0.76568 0.56913 0.09419 0.0
C8 C 0.79057 0.60558 0.19659 0.0
H9 H 0.21194 0.9151 0.26617 0.0
H10 H 0.11279 0.80182 0.97162 0.0
H11 H 0.06054 0.65558 0.42828 0.0
C12 C 0.18079 0.85853 0.24725 0.0
C13 C 0.13249 0.78885 0.36556 0.0
C14 C 0.15371 0.86677 0.11726 0.0
C15 C 0.12484 0.79577 0.0804 0.0
C16 C 0.10069 0.716 0.19142 0.0
C17 C 0.09512 0.71339 0.33883 0.0
H18 H 0.68002 0.96064 0.35083 0.0
H19 H 0.81435 0.99016 -0.02062 0.0
H20 H 0.80767 0.81657 0.4098 0.0
C21 C 0.70822 0.93207 0.30503 0.0
C22 C 0.71595 0.85793 0.39388 0.0
C23 C 0.7295 0.96717 0.15231 0.0
C24 C 0.79063 0.95697 0.09503 0.0
C25 C 0.82696 0.91278 0.19108 0.0
C26 C 0.78457 0.85596 0.33781 0.0
H27 H 0.57009 0.84093 0.49537 0.0
H28 H 0.54652 0.96264 0.57479 0.0
H29 H 0.3863 0.83596 0.35383 0.0
C30 C 0.55938 0.84214 0.40105 0.0
C31 C 0.48927 0.81797 0.36099 0.0
C32 C 0.56598 0.85094 0.54884 0.0
C33 C 0.52434 0.91462 0.53197 0.0
C34 C 0.47736 0.92267 0.41693 0.0
C35 C 0.43948 0.84912 0.39475 0.0
H36 H 0.19456 0.57226 0.62498 0.0
H37 H 0.32417 0.59955 0.96509 0.0
H38 H 0.33898 0.44465 0.7393 0.0
C39 C 0.23502 0.5586 0.69108 0.0
C40 C 0.26621 0.50742 0.66692 0.0
C41 C 0.25423 0.59188 0.79758 0.0
C42 C 0.30694 0.57263 0.8839 0.0
C43 C 0.33894 0.5202 0.86142 0.0
C44 C 0.314 0.48371 0.7591 0.0
H45 H 0.89246 0.17434 0.68918 0.0
H46 H 0.99194 0.28785 -0.01674 0.0
H47 H 0.04341 0.43402 0.52663 0.0
C48 C 0.92359 0.23094 0.70801 0.0
C49 C 0.97172 0.30066 0.58955 0.0
C50 C 0.95084 0.22282 0.83783 0.0
C51 C 0.97973 0.29384 0.87458 0.0
C52 C 1.00364 0.37358 0.76357 0.0
C53 C 1.00902 0.37617 0.61617 0.0
H54 H 0.4245 0.12866 0.60452 0.0
H55 H 0.29008 0.09912 0.97582 0.0
H56 H 0.2969 0.27276 0.54536 0.0
C57 C 0.39632 0.15725 0.6503 0.0
C58 C 0.3886 0.23139 0.56142 0.0
C59 C 0.37502 0.12217 0.80301 0.0
C60 C 0.31384 0.13233 0.8602 0.0
C61 C 0.27753 0.17652 0.76405 0.0
C62 C 0.31996 0.23336 0.61738 0.0
H63 H 0.53444 0.24834 0.46001 0.0
H64 H 0.55802 0.12667 0.38043 0.0
H65 H 0.71828 0.25341 0.6013 0.0
C66 C 0.54515 0.24709 0.55435 0.0
C67 C 0.61526 0.27128 0.5944 0.0
C68 C 0.53857 0.23835 0.4065 0.0
C69 C 0.58021 0.1747 0.42326 0.0
C70 C 0.62725 0.16668 0.5382 0.0
C71 C 0.66508 0.24022 0.56045 0.0
Nd72 Nd 0.0437 0.02886 0.84914 0.0
Nd73 Nd 0.06063 0.06053 0.1063 0.0
C74 C 1.01635 0.9498 0.66555 0.0
C75 C 0.04664 0.90299 0.60329 0.0
C76 C 1.00592 0.86894 0.50991 0.0
C77 C 1.03159 0.82709 0.44117 0.0
C78 C 0.09776 0.81419 0.4693 0.0
C79 C 0.13904 0.84769 0.56566 0.0
C80 C 0.11348 0.89127 0.63273 0.0
C81 C 0.19282 0.14959 0.81319 0.0
C82 C 0.12145 0.92917 0.0708 0.0
C83 C 0.08774 0.1394 0.29019 0.0
C84 C 0.05752 0.18638 0.35212 0.0
C85 C 0.09828 0.22054 0.44533 0.0
C86 C 0.07263 0.26246 0.51396 0.0
C87 C 1.00646 0.27536 0.48577 0.0
C88 C 0.96518 0.24181 0.38947 0.0
C89 C 0.9907 0.19812 0.32259 0.0
C90 C 0.91167 0.93976 0.14176 0.0
C91 C 0.98304 0.16038 0.88439 0.0
O92 O 0.98523 0.91428 0.80383 0.0
O93 O 0.05492 0.03022 0.62381 0.0
O94 O 0.14809 0.15299 0.71856 0.0
O95 O 0.15519 0.08584 0.92826 0.0
O96 O 0.0725 0.92247 -0.01719 0.0
O97 O 0.13404 0.98552 0.1301 0.0
O98 O 0.1192 0.17493 0.1521 0.0
O99 O 0.04893 0.05904 0.33166 0.0
O100 O 0.9564 0.93613 0.23635 0.0
O101 O 0.94928 1.00378 0.02706 0.0
O102 O 1.03193 0.167 0.97251 0.0
O103 O 0.97041 0.10399 0.82516 0.0
H104 H 0.95385 0.87619 0.48951 0.0
H105 H 1.00089 0.80688 0.36155 0.0
H106 H 0.19244 0.84291 0.58441 0.0
H107 H 0.14664 0.91724 0.70443 0.0
H108 H 0.15035 0.2133 0.46575 0.0
H109 H 0.10335 0.2827 0.59353 0.0
H110 H 0.91178 0.24658 0.3707 0.0
H111 H 0.95752 0.17209 0.25098 0.0
Nd112 Nd 0.51019 0.96544 0.94451 0.0
Nd113 Nd 0.59439 0.12397 0.01085 0.0
C114 C 0.46378 0.82313 0.88207 0.0
C115 C 0.51288 0.80046 0.7938 0.0
C116 C 0.6089 0.87258 0.75666 0.0
C117 C 0.68001 0.87381 0.6419 0.0
C118 C 0.66369 0.80442 0.55257 0.0
C119 C 0.56479 0.71921 0.59217 0.0
C120 C 0.48705 0.72101 0.70888 0.0
C121 C 0.59077 0.09732 0.68701 0.0
C122 C 0.68062 1.00423 0.06062 0.0
C123 C 0.64082 0.26626 0.07331 0.0
C124 C 0.59172 0.28892 0.16156 0.0
C125 C 0.49569 0.21682 0.19858 0.0
C126 C 0.42457 0.21558 0.31335 0.0
C127 C 0.44089 0.28491 0.40278 0.0
C128 C 0.5398 0.37009 0.36331 0.0
C129 C 0.61754 0.36831 0.2466 0.0
C130 C 0.51395 0.99195 0.26806 0.0
C131 C 0.4239 0.0851 0.89474 0.0
O132 O 0.48508 0.83083 0.00159 0.0
O133 O 0.45226 0.88877 0.81222 0.0
O134 O 0.52329 0.04196 0.70581 0.0
O135 O 0.61579 0.08845 0.80989 0.0
O136 O 0.61373 0.95106 0.05093 0.0
O137 O 0.69487 0.08398 0.0207 0.0
O138 O 0.61953 0.25859 0.95377 0.0
O139 O 0.65232 0.20061 0.14316 0.0
O140 O 0.58143 0.04729 0.24939 0.0
O141 O 0.48885 1.0011 0.14522 0.0
O142 O 0.49077 0.13828 0.90453 0.0
O143 O 0.40967 1.00537 0.93459 0.0
H144 H 0.62416 0.92062 0.801 0.0
H145 H 0.73542 0.92545 0.61366 0.0
H146 H 0.55185 0.68053 0.53018 0.0
H147 H 0.42871 0.68311 0.71342 0.0
H148 H 0.48044 0.16881 0.15418 0.0
H149 H 0.36916 0.16395 0.34152 0.0
H150 H 0.55272 0.40875 0.42534 0.0
H151 H 0.67588 0.40619 0.24212 0.0
Nd152 Nd 0.54429 0.54788 0.07123 0.0
Nd153 Nd 0.56038 0.54153 0.88426 0.0
C154 C 0.50429 0.53823 0.33124 0.0
C155 C 0.49601 0.60882 0.33877 0.0
C156 C 0.43399 0.60034 0.42651 0.0
C157 C 0.42113 0.67023 0.41482 0.0
C158 C 0.47254 0.74844 0.31633 0.0
C159 C 0.53315 0.75394 0.22501 0.0
C160 C 0.54447 0.68577 0.2352 0.0
C161 C 0.69757 0.57566 0.034 0.0
C162 C 0.5979 0.73954 0.798 0.0
C163 C 0.60035 0.55109 0.62431 0.0
C164 C 0.60859 0.48047 0.61679 0.0
C165 C 0.6706 0.48892 0.52907 0.0
C166 C 0.68344 0.41902 0.54072 0.0
C167 C 0.63196 0.34081 0.63909 0.0
C168 C 0.57134 0.33532 0.73036 0.0
C169 C 0.56008 0.40351 0.72026 0.0
C170 C 0.40708 0.51371 0.92147 0.0
C171 C 0.50672 0.34986 0.15738 0.0
O172 O 0.45482 0.50102 0.264 0.0
O173 O 0.5739 0.5538 0.28257 0.0
O174 O 0.67261 0.62868 0.04581 0.0
O175 O 0.64321 0.51527 0.02262 0.0
O176 O 0.54988 0.68731 0.92866 0.0
O177 O 0.63354 0.69081 0.79489 0.0
O178 O 0.64985 0.5883 0.69153 0.0
O179 O 0.53076 0.53557 0.67296 0.0
O180 O 0.43206 0.46073 0.90954 0.0
O181 O 0.46142 0.57405 0.93298 0.0
O182 O 0.55476 0.40209 0.02675 0.0
O183 O 0.4711 0.3986 0.16052 0.0
H184 H 0.39994 0.54026 0.50731 0.0
H185 H 0.37831 0.66514 0.49473 0.0
H186 H 0.57874 0.812 0.15862 0.0
H187 H 0.5938 0.69474 0.16531 0.0
H188 H 0.70466 0.54901 0.44831 0.0
H189 H 0.72628 0.42411 0.46088 0.0
H190 H 0.52572 0.27727 0.79667 0.0
H191 H 0.51075 0.39457 0.79015 0.0
Nd192 Nd 1.03317 0.58444 0.86825 0.0
Nd193 Nd 0.07146 0.50502 0.08742 0.0
C194 C 0.95408 0.66553 0.73361 0.0
C195 C 0.88685 0.63196 0.67203 0.0
C196 C 0.86616 0.68644 0.56311 0.0
C197 C 0.8496 0.67152 0.43583 0.0
C198 C 0.84786 0.5984 0.42476 0.0
C199 C 0.85062 0.53617 0.5506 0.0
C200 C 0.8688 0.55245 0.67356 0.0
C201 C 1.02836 0.44967 0.80493 0.0
C202 C 0.89702 0.45702 0.12293 0.0
C203 C 0.15053 0.42395 0.22226 0.0
C204 C 0.21785 0.45745 0.28362 0.0
C205 C 0.2384 0.40287 0.39263 0.0
C206 C 0.25491 0.41774 0.51996 0.0
C207 C 0.25669 0.49087 0.53103 0.0
C208 C 0.25403 0.55317 0.40517 0.0
C209 C 0.23601 0.53698 0.28207 0.0
C210 C 0.07593 0.63989 0.1501 0.0
C211 C 0.2076 0.63233 0.83275 0.0
O212 O 0.94681 0.6364 0.87554 0.0
O213 O 1.01423 0.66527 0.67098 0.0
O214 O 0.0527 0.52527 0.70901 0.0
O215 O 1.00692 0.44651 0.93186 0.0
O216 O 0.91815 0.47776 -0.01499 0.0
O217 O 0.94782 0.44757 0.20415 0.0
O218 O 0.15772 0.45292 0.08034 0.0
O219 O 0.0905 0.42444 0.28487 0.0
O220 O 0.0514 0.56431 0.24616 0.0
O221 O 0.09788 0.64282 0.02367 0.0
O222 O 0.18649 0.61165 0.97066 0.0
O223 O 0.1568 0.64178 0.75152 0.0
H224 H 0.87093 0.74398 0.56953 0.0
H225 H 0.8427 0.71865 0.34459 0.0
H226 H 0.84288 0.47566 0.55275 0.0
H227 H 0.88101 0.5072 0.7576 0.0
H228 H 0.23353 0.3453 0.38624 0.0
H229 H 0.26172 0.37056 0.61125 0.0
H230 H 0.26175 0.61365 0.40311 0.0
H231 H 0.22393 0.5823 0.19792 0.0
loop_
_geom_bond_atom_site_label_1
_geom_bond_atom_site_label_2
_geom_bond_distance
_geom_bond_site_symmetry_2
_ccdc_geom_bond_type
H0 C3 0.931 . S
H1 C6 0.928 . S
H2 C8 0.930 . S
C3 H0 0.931 . S
C3 C4 1.413 . S
C3 C5 1.360 1_554 S
C4 C3 1.413 . S
C4 C8 1.429 . S
C5 C3 1.360 1_556 S
C5 C6 1.372 . S
C6 H1 0.928 . S
C6 C5 1.372 . S
C6 C7 1.404 . S
C7 C6 1.404 . S
C7 C8 1.391 1_556 S
C8 H2 0.930 . S
C8 C4 1.429 . S
C8 C7 1.391 1_554 S
H9 C12 0.931 . S
H10 C15 0.928 1_556 S
H11 C17 0.930 . S
C12 H9 0.931 . S
C12 C13 1.413 . S
C12 C14 1.360 . S
C13 C12 1.413 . S
C13 C17 1.429 . S
C14 C12 1.360 . S
C14 C15 1.372 . S
C15 H10 0.928 1_554 S
C15 C14 1.372 . S
C15 C16 1.404 . S
C16 C15 1.404 . S
C16 C17 1.391 . S
C17 H11 0.930 . S
C17 C13 1.429 . S
C17 C16 1.391 . S
H18 C21 0.931 . S
H19 C24 0.928 1_556 S
H20 C26 0.930 . S
C21 H18 0.931 . S
C21 C22 1.413 . S
C21 C23 1.360 . S
C22 C21 1.413 . S
C22 C26 1.429 . S
C23 C21 1.360 . S
C23 C24 1.372 . S
C24 H19 0.928 1_554 S
C24 C23 1.372 . S
C24 C25 1.404 . S
C25 C24 1.404 . S
C25 C26 1.391 . S
C26 H20 0.930 . S
C26 C22 1.429 . S
C26 C25 1.391 . S
H27 C30 0.931 . S
H28 C33 0.928 . S
H29 C35 0.930 . S
C30 H27 0.931 . S
C30 C31 1.413 . S
C30 C32 1.360 . S
C31 C30 1.413 . S
C31 C35 1.429 . S
C32 C30 1.360 . S
C32 C33 1.372 . S
C33 H28 0.928 . S
C33 C32 1.372 . S
C33 C34 1.404 . S
C34 C33 1.404 . S
C34 C35 1.391 . S
C35 H29 0.930 . S
C35 C31 1.429 . S
C35 C34 1.391 . S
H36 C39 0.931 . S
H37 C42 0.928 . S
H38 C44 0.930 . S
C39 H36 0.931 . S
C39 C40 1.413 . S
C39 C41 1.360 1_556 S
C40 C39 1.413 . S
C40 C44 1.429 . S
C41 C39 1.360 1_554 S
C41 C42 1.372 . S
C42 H37 0.928 . S
C42 C41 1.372 . S
C42 C43 1.404 . S
C43 C42 1.404 . S
C43 C44 1.391 1_554 S
C44 H38 0.930 . S
C44 C40 1.429 . S
C44 C43 1.391 1_556 S
H45 C48 0.931 . S
H46 C51 0.928 1_554 S
H47 C53 0.930 . S
C48 H45 0.931 . S
C48 C49 1.413 . S
C48 C50 1.360 . S
C49 C48 1.413 . S
C49 C53 1.429 . S
C50 C48 1.360 . S
C50 C51 1.372 . S
C51 H46 0.928 1_556 S
C51 C50 1.372 . S
C51 C52 1.404 . S
C52 C51 1.404 . S
C52 C53 1.391 . S
C53 H47 0.930 . S
C53 C49 1.429 . S
C53 C52 1.391 . S
H54 C57 0.931 . S
H55 C60 0.928 1_554 S
H56 C62 0.930 . S
C57 H54 0.931 . S
C57 C58 1.413 . S
C57 C59 1.360 . S
C58 C57 1.413 . S
C58 C62 1.429 . S
C59 C57 1.360 . S
C59 C60 1.372 . S
C60 H55 0.928 1_556 S
C60 C59 1.372 . S
C60 C61 1.404 . S
C61 C60 1.404 . S
C61 C62 1.391 . S
C62 H56 0.930 . S
C62 C58 1.429 . S
C62 C61 1.391 . S
H63 C66 0.931 . S
H64 C69 0.928 . S
H65 C71 0.930 . S
C66 H63 0.931 . S
C66 C67 1.413 . S
C66 C68 1.360 . S
C67 C66 1.413 . S
C67 C71 1.429 . S
C68 C66 1.360 . S
C68 C69 1.372 . S
C69 H64 0.928 . S
C69 C68 1.372 . S
C69 C70 1.404 . S
C70 C69 1.404 . S
C70 C71 1.391 . S
C71 H65 0.930 . S
C71 C67 1.429 . S
C71 C70 1.391 . S
Nd72 C74 2.836 1_445 S
Nd72 O92 2.500 1_445 S
Nd72 O93 2.492 . S
Nd72 O94 2.487 . S
Nd72 O95 2.682 . S
Nd72 O96 2.410 1_545 S
Nd72 O101 2.414 1_446 S
Nd72 O103 2.424 . S
Nd73 C83 2.836 1_565 S
Nd73 O95 2.414 1_564 S
Nd73 O97 2.424 1_455 S
Nd73 O98 2.500 1_565 S
Nd73 O99 2.492 1_465 S
Nd73 O100 2.487 1_455 S
Nd73 O101 2.682 1_455 S
Nd73 O102 2.410 1_565 S
C74 Nd72 2.836 1_665 S
C74 C75 1.498 . S
C74 O92 1.258 . S
C74 O93 1.239 1_665 S
C75 C74 1.498 . S
C75 C76 1.366 . S
C75 C80 1.407 1_655 S
C76 C75 1.366 . S
C76 C77 1.392 . S
C76 H104 0.930 . S
C77 C76 1.392 . S
C77 C78 1.398 . S
C77 H105 0.929 . S
C78 C77 1.398 . S
C78 C79 1.352 1_655 S
C79 C78 1.352 1_455 S
C79 C80 1.384 . S
C79 H106 0.930 . S
C80 C75 1.407 1_455 S
C80 C79 1.384 . S
C80 H107 0.929 . S
C81 O94 1.241 . S
C81 O95 1.273 . S
C82 O96 1.251 1_654 S
C82 O97 1.268 . S
C83 Nd73 2.836 1_545 S
C83 C84 1.498 . S
C83 O98 1.258 . S
C83 O99 1.239 1_455 S
C84 C83 1.498 . S
C84 C85 1.366 . S
C84 C89 1.407 . S
C85 C84 1.366 . S
C85 C86 1.392 . S
C85 H108 0.930 . S
C86 C85 1.392 . S
C86 C87 1.398 . S
C86 H109 0.929 . S
C87 C86 1.398 . S
C87 C88 1.352 . S
C88 C87 1.352 . S
C88 C89 1.384 . S
C88 H110 0.930 1_455 S
C89 C84 1.407 . S
C89 C88 1.384 . S
C89 H111 0.929 1_455 S
C90 O100 1.241 . S
C90 O101 1.273 . S
C91 O102 1.251 1_556 S
C91 O103 1.268 . S
O92 Nd72 2.500 1_665 S
O92 C74 1.258 . S
O93 Nd72 2.492 . S
O93 C74 1.239 1_445 S
O94 Nd72 2.487 . S
O94 C81 1.241 . S
O95 Nd72 2.682 . S
O95 Nd73 2.414 1_546 S
O95 C81 1.273 . S
O96 Nd72 2.410 1_565 S
O96 C82 1.251 1_456 S
O97 Nd73 2.424 1_655 S
O97 C82 1.268 . S
O98 Nd73 2.500 1_545 S
O98 C83 1.258 . S
O99 Nd73 2.492 1_645 S
O99 C83 1.239 1_655 S
O100 Nd73 2.487 1_655 S
O100 C90 1.241 . S
O101 Nd72 2.414 1_664 S
O101 Nd73 2.682 1_655 S
O101 C90 1.273 . S
O102 Nd73 2.410 1_545 S
O102 C91 1.251 1_554 S
O103 Nd72 2.424 . S
O103 C91 1.268 . S
H104 C76 0.930 . S
H105 C77 0.929 . S
H106 C79 0.930 . S
H107 C80 0.929 . S
H108 C85 0.930 . S
H109 C86 0.929 . S
H110 C88 0.930 1_655 S
H111 C89 0.929 1_655 S
Nd112 C114 2.836 . S
Nd112 O132 2.500 . S
Nd112 O133 2.492 . S
Nd112 O134 2.487 1_565 S
Nd112 O135 2.682 1_565 S
Nd112 O136 2.410 1_565 S
Nd112 O141 2.414 1_556 S
Nd112 O143 2.424 1_556 S
Nd113 C123 2.836 . S
Nd113 O135 2.414 1_554 S
Nd113 O137 2.424 1_554 S
Nd113 O138 2.500 . S
Nd113 O139 2.492 . S
Nd113 O140 2.487 1_545 S
Nd113 O141 2.682 1_545 S
Nd113 O142 2.410 . S
C114 Nd112 2.836 . S
C114 C115 1.498 . S
C114 O132 1.258 . S
C114 O133 1.239 . S
C115 C114 1.498 . S
C115 C116 1.366 . S
C115 C120 1.407 . S
C116 C115 1.366 . S
C116 C117 1.392 . S
C116 H144 0.930 . S
C117 C116 1.392 . S
C117 C118 1.398 . S
C117 H145 0.929 . S
C118 C117 1.398 . S
C118 C119 1.352 . S
C119 C118 1.352 . S
C119 C120 1.384 . S
C119 H146 0.930 . S
C120 C115 1.407 . S
C120 C119 1.384 . S
C120 H147 0.929 . S
C121 O134 1.241 . S
C121 O135 1.273 . S
C122 O136 1.251 . S
C122 O137 1.268 . S
C123 Nd113 2.836 . S
C123 C124 1.498 . S
C123 O138 1.258 . S
C123 O139 1.239 . S
C124 C123 1.498 . S
C124 C125 1.366 . S
C124 C129 1.407 . S
C125 C124 1.366 . S
C125 C126 1.392 . S
C125 H148 0.930 . S
C126 C125 1.392 . S
C126 C127 1.398 . S
C126 H149 0.929 . S
C127 C126 1.398 . S
C127 C128 1.352 . S
C128 C127 1.352 . S
C128 C129 1.384 . S
C128 H150 0.930 . S
C129 C124 1.407 . S
C129 C128 1.384 . S
C129 H151 0.929 . S
C130 O140 1.241 . S
C130 O141 1.273 . S
C131 O142 1.251 . S
C131 O143 1.268 1_545 S
O132 Nd112 2.500 . S
O132 C114 1.258 . S
O133 Nd112 2.492 . S
O133 C114 1.239 . S
O134 Nd112 2.487 1_545 S
O134 C121 1.241 . S
O135 Nd112 2.682 1_545 S
O135 Nd113 2.414 1_556 S
O135 C121 1.273 . S
O136 Nd112 2.410 1_545 S
O136 C122 1.251 . S
O137 Nd113 2.424 1_556 S
O137 C122 1.268 . S
O138 Nd113 2.500 . S
O138 C123 1.258 . S
O139 Nd113 2.492 . S
O139 C123 1.239 . S
O140 Nd113 2.487 1_565 S
O140 C130 1.241 . S
O141 Nd112 2.414 1_554 S
O141 Nd113 2.682 1_565 S
O141 C130 1.273 . S
O142 Nd113 2.410 . S
O142 C131 1.251 . S
O143 Nd112 2.424 1_554 S
O143 C131 1.268 1_565 S
H144 C116 0.930 . S
H145 C117 0.929 . S
H146 C119 0.930 . S
H147 C120 0.929 . S
H148 C125 0.930 . S
H149 C126 0.929 . S
H150 C128 0.930 . S
H151 C129 0.929 . S
Nd152 C154 2.836 . S
Nd152 O172 2.500 . S
Nd152 O173 2.492 . S
Nd152 O174 2.487 . S
Nd152 O175 2.682 1_554 S
Nd152 O176 2.410 1_554 S
Nd152 O181 2.414 . S
Nd152 O183 2.424 . S
Nd153 C163 2.836 . S
Nd153 O175 2.414 . S
Nd153 O177 2.424 . S
Nd153 O178 2.500 . S
Nd153 O179 2.492 . S
Nd153 O180 2.487 . S
Nd153 O181 2.682 1_556 S
Nd153 O182 2.410 1_556 S
C154 Nd152 2.836 . S
C154 C155 1.498 . S
C154 O172 1.258 . S
C154 O173 1.239 . S
C155 C154 1.498 . S
C155 C156 1.366 . S
C155 C160 1.407 . S
C156 C155 1.366 . S
C156 C157 1.392 . S
C156 H184 0.930 . S
C157 C156 1.392 . S
C157 C158 1.398 . S
C157 H185 0.929 . S
C158 C157 1.398 . S
C158 C159 1.352 . S
C159 C158 1.352 . S
C159 C160 1.384 . S
C159 H186 0.930 . S
C160 C155 1.407 . S
C160 C159 1.384 . S
C160 H187 0.929 . S
C161 O174 1.241 . S
C161 O175 1.273 1_554 S
C162 O176 1.251 . S
C162 O177 1.268 . S
C163 Nd153 2.836 . S
C163 C164 1.498 . S
C163 O178 1.258 . S
C163 O179 1.239 . S
C164 C163 1.498 . S
C164 C165 1.366 . S
C164 C169 1.407 . S
C165 C164 1.366 . S
C165 C166 1.392 . S
C165 H188 0.930 . S
C166 C165 1.392 . S
C166 C167 1.398 . S
C166 H189 0.929 . S
C167 C166 1.398 . S
C167 C168 1.352 . S
C168 C167 1.352 . S
C168 C169 1.384 . S
C168 H190 0.930 . S
C169 C164 1.407 . S
C169 C168 1.384 . S
C169 H191 0.929 . S
C170 O180 1.241 . S
C170 O181 1.273 1_556 S
C171 O182 1.251 . S
C171 O183 1.268 . S
O172 Nd152 2.500 . S
O172 C154 1.258 . S
O173 Nd152 2.492 . S
O173 C154 1.239 . S
O174 Nd152 2.487 . S
O174 C161 1.241 . S
O175 Nd152 2.682 1_556 S
O175 Nd153 2.414 . S
O175 C161 1.273 1_556 S
O176 Nd152 2.410 1_556 S
O176 C162 1.251 . S
O177 Nd153 2.424 . S
O177 C162 1.268 . S
O178 Nd153 2.500 . S
O178 C163 1.258 . S
O179 Nd153 2.492 . S
O179 C163 1.239 . S
O180 Nd153 2.487 . S
O180 C170 1.241 . S
O181 Nd152 2.414 . S
O181 Nd153 2.682 1_554 S
O181 C170 1.273 1_554 S
O182 Nd153 2.410 1_554 S
O182 C171 1.251 . S
O183 Nd152 2.424 . S
O183 C171 1.268 . S
H184 C156 0.930 . S
H185 C157 0.929 . S
H186 C159 0.930 . S
H187 C160 0.929 . S
H188 C165 0.930 . S
H189 C166 0.929 . S
H190 C168 0.930 . S
H191 C169 0.929 . S
Nd192 C194 2.836 1_455 S
Nd192 O212 2.500 1_455 S
Nd192 O213 2.492 1_455 S
Nd192 O214 2.487 . S
Nd192 O215 2.682 1_556 S
Nd192 O216 2.410 1_455 S
Nd192 O221 2.414 . S
Nd192 O223 2.424 . S
Nd193 C203 2.836 1_655 S
Nd193 O215 2.414 1_655 S
Nd193 O217 2.424 . S
Nd193 O218 2.500 1_655 S
Nd193 O219 2.492 1_655 S
Nd193 O220 2.487 1_655 S
Nd193 O221 2.682 1_654 S
Nd193 O222 2.410 1_655 S
C194 Nd192 2.836 1_655 S
C194 C195 1.498 . S
C194 O212 1.258 . S
C194 O213 1.239 . S
C195 C194 1.498 . S
C195 C196 1.366 . S
C195 C200 1.407 . S
C196 C195 1.366 . S
C196 C197 1.392 . S
C196 H224 0.930 . S
C197 C196 1.392 . S
C197 C198 1.398 . S
C197 H225 0.929 . S
C198 C197 1.398 . S
C198 C199 1.352 . S
C199 C198 1.352 . S
C199 C200 1.384 . S
C199 H226 0.930 . S
C200 C195 1.407 . S
C200 C199 1.384 . S
C200 H227 0.929 . S
C201 O214 1.241 . S
C201 O215 1.273 1_556 S
C202 O216 1.251 1_554 S
C202 O217 1.268 . S
C203 Nd193 2.836 1_455 S
C203 C204 1.498 . S
C203 O218 1.258 . S
C203 O219 1.239 . S
C204 C203 1.498 . S
C204 C205 1.366 . S
C204 C209 1.407 . S
C205 C204 1.366 . S
C205 C206 1.392 . S
C205 H228 0.930 . S
C206 C205 1.392 . S
C206 C207 1.398 . S
C206 H229 0.929 . S
C207 C206 1.398 . S
C207 C208 1.352 . S
C208 C207 1.352 . S
C208 C209 1.384 . S
C208 H230 0.930 . S
C209 C204 1.407 . S
C209 C208 1.384 . S
C209 H231 0.929 . S
C210 O220 1.241 . S
C210 O221 1.273 1_554 S
C211 O222 1.251 1_556 S
C211 O223 1.268 . S
O212 Nd192 2.500 1_655 S
O212 C194 1.258 . S
O213 Nd192 2.492 1_655 S
O213 C194 1.239 . S
O214 Nd192 2.487 . S
O214 C201 1.241 . S
O215 Nd192 2.682 1_554 S
O215 Nd193 2.414 1_455 S
O215 C201 1.273 1_554 S
O216 Nd192 2.410 1_655 S
O216 C202 1.251 1_556 S
O217 Nd193 2.424 . S
O217 C202 1.268 . S
O218 Nd193 2.500 1_455 S
O218 C203 1.258 . S
O219 Nd193 2.492 1_455 S
O219 C203 1.239 . S
O220 Nd193 2.487 1_455 S
O220 C210 1.241 . S
O221 Nd192 2.414 . S
O221 Nd193 2.682 1_456 S
O221 C210 1.273 1_556 S
O222 Nd193 2.410 1_455 S
O222 C211 1.251 1_554 S
O223 Nd192 2.424 . S
O223 C211 1.268 . S
H224 C196 0.930 . S
H225 C197 0.929 . S
H226 C199 0.930 . S
H227 C200 0.929 . S
H228 C205 0.930 . S
H229 C206 0.929 . S
H230 C208 0.930 . S
H231 C209 0.929 . S
C61 C81 1.818 . S
C121 C70 2.546 . S
C170 C43 1.340 1_556 S
C201 C52 2.579 . S
C90 C25 1.836 . S
C34 C130 2.524 . S
C7 C161 1.338 1_556 S
C16 C210 2.595 1_655 S
C91 C50 1.316 . S
C131 C59 2.771 1_554 S
C167 C67 1.173 . S
C41 C211 1.992 1_554 S
C14 C82 1.339 . S
C122 C23 2.805 1_546 S
C158 C31 1.170 . S
C5 C202 2.016 1_556 S
C49 C87 1.893 . S
C58 C127 3.796 . S
C171 C68 2.837 . S
C207 C40 2.638 . S
C13 C78 1.894 . S
C118 C22 3.781 . S
C162 C32 2.828 . S
C4 C198 2.624 . S
