# Generated by pormake.
# Topology tsx, (6,3)-cn, num edge types: 1
# Building blocks:
#     Node 0, Type 0, BuildingBlock: FUNLAD_clean_sbu_0, # of connection points: 6
#     Node 1, Type 0, BuildingBlock: FUNLAD_clean_sbu_0, # of connection points: 6
#     Node 2, Type 1, BuildingBlock: BETDIP_clean_linker_0, # of connection points: 3
#     Node 3, Type 1, BuildingBlock: BETDIP_clean_linker_0, # of connection points: 3
#     Node 4, Type 1, BuildingBlock: BETDIP_clean_linker_0, # of connection points: 3
#     Node 5, Type 1, BuildingBlock: BETDIP_clean_linker_0, # of connection points: 3
#     Edge 6, Type (0, 1), BuildingBlock: AJUNOK_clean_linker_0, # of connection points: 2
#     Edge 7, Type (0, 1), BuildingBlock: AJUNOK_clean_linker_0, # of connection points: 2
#     Edge 8, Type (0, 1), BuildingBlock: AJUNOK_clean_linker_0, # of connection points: 2
#     Edge 9, Type (0, 1), BuildingBlock: AJUNOK_clean_linker_0, # of connection points: 2
#     Edge 10, Type (0, 1), BuildingBlock: AJUNOK_clean_linker_0, # of connection points: 2
#     Edge 11, Type (0, 1), BuildingBlock: AJUNOK_clean_linker_0, # of connection points: 2
#     Edge 12, Type (0, 1), BuildingBlock: AJUNOK_clean_linker_0, # of connection points: 2
#     Edge 13, Type (0, 1), BuildingBlock: AJUNOK_clean_linker_0, # of connection points: 2
#     Edge 14, Type (0, 1), BuildingBlock: AJUNOK_clean_linker_0, # of connection points: 2
#     Edge 15, Type (0, 1), BuildingBlock: AJUNOK_clean_linker_0, # of connection points: 2
#     Edge 16, Type (0, 1), BuildingBlock: AJUNOK_clean_linker_0, # of connection points: 2
#     Edge 17, Type (0, 1), BuildingBlock: AJUNOK_clean_linker_0, # of connection points: 2
# Relax obj value: 0.117
# Max RMSD: 0.122
# Mean RMSD: 0.117
data_MOF--net-tsx--node1-FUNLAD_clean_sbu_0--node2-BETDIP_clean_linker_0--edge1-AJUNOK_clean_linker_0
_symmetry_space_group_name_H-M    P1
_symmetry_Int_Tables_number       1
_symmetry_cell_setting            triclinic
loop_
_symmetry_equiv_pos_as_xyz
'x, y, z'
_cell_length_a     13.708353
_cell_length_b     15.799618
_cell_length_c     31.071264
_cell_angle_alpha  91.093472
_cell_angle_beta   102.00225
_cell_angle_gamma 90.127898
loop_
_atom_site_label
_atom_site_type_symbol
_atom_site_fract_x
_atom_site_fract_y
_atom_site_fract_z
_atom_type_partial_charge
C0 C 0.94041 0.86344 0.00695 0.0
N1 N 0.13154 0.02146 0.09565 0.0
C2 C 0.05364 0.03815 0.11536 0.0
C3 C 0.06956 0.05058 0.16073 0.0
C4 C 0.16624 0.04465 0.18605 0.0
C5 C 0.24591 0.02877 0.16525 0.0
C6 C 0.22682 0.01805 0.11946 0.0
Zn7 Zn 0.09839 -0.00121 0.02937 0.0
C8 C 0.22744 0.87247 -0.00172 0.0
N9 N 0.01582 0.9568 0.89134 0.0
C10 C 0.91908 0.95626 0.8691 0.0
C11 C 0.09246 0.95543 0.86966 0.0
C12 C 0.07341 0.95567 0.82388 0.0
C13 C 0.97475 0.95901 0.80033 0.0
C14 C 0.89669 0.95802 0.82317 0.0
Zn15 Zn 0.05042 0.97414 0.95789 0.0
O16 O 0.98934 0.90983 0.03781 0.0
C17 C 0.92741 0.10751 -0.01435 0.0
O18 O 0.95373 0.87164 0.96786 0.0
H19 H 0.16878 0.95742 0.88786 0.0
H20 H 0.9784 0.03958 0.09603 0.0
H21 H 0.85932 0.95745 0.88699 0.0
O22 O 0.98937 0.09888 0.02189 0.0
O23 O 0.93271 0.05857 0.9535 0.0
H24 H 0.28762 0.00494 0.10308 0.0
O25 O 0.14625 0.07812 0.94963 0.0
O26 O 0.20444 0.08587 0.02102 0.0
O27 O 0.17079 0.8918 0.96223 0.0
O28 O 0.21096 0.90243 0.03441 0.0
C29 C 0.20638 0.11021 0.98265 0.0
H30 H 1.00648 0.06108 0.17614 0.0
H31 H 0.32121 0.02261 0.18427 0.0
H32 H 0.13519 0.95667 0.80708 0.0
H33 H 0.81963 0.95987 0.8057 0.0
C34 C 0.34296 0.38967 0.48666 0.0
N35 N 0.55151 0.51157 0.58494 0.0
C36 C 0.47537 0.51632 0.60682 0.0
C37 C 0.49512 0.51917 0.65258 0.0
C38 C 0.59409 0.51862 0.67593 0.0
C39 C 0.67165 0.51548 0.65284 0.0
C40 C 0.64846 0.51146 0.60688 0.0
Zn41 Zn 0.51532 0.50728 0.51814 0.0
C42 C 0.6292 0.38569 0.47686 0.0
N43 N 0.42748 0.50738 0.37964 0.0
C44 C 0.33358 0.4933 0.35562 0.0
C45 C 0.50572 0.52065 0.35984 0.0
C46 C 0.49138 0.52086 0.31431 0.0
C47 C 0.39611 0.50563 0.28886 0.0
C48 C 0.31621 0.4913 0.30959 0.0
Zn49 Zn 0.46077 0.50765 0.44651 0.0
O50 O 0.39828 0.42333 0.5204 0.0
C51 C 0.35138 0.63288 0.48543 0.0
O52 O 0.3563 0.4072 0.4485 0.0
H53 H 0.58011 0.52985 0.37935 0.0
H54 H 0.39895 0.51753 0.58877 0.0
H55 H 0.27263 0.48262 0.37211 0.0
O56 O 0.41644 0.61302 0.5192 0.0
O57 O 0.34866 0.59407 0.44915 0.0
H58 H 0.70773 0.50783 0.58876 0.0
O59 O 0.56322 0.61211 0.44653 0.0
O60 O 0.62997 0.59104 0.51588 0.0
O61 O 0.57577 0.42076 0.44384 0.0
O62 O 0.6164 0.40435 0.51531 0.0
C63 C 0.62948 0.62989 0.48063 0.0
H64 H 0.43376 0.52153 0.66963 0.0
H65 H 0.74885 0.51407 0.67015 0.0
H66 H 0.55468 0.53048 0.29903 0.0
H67 H 0.242 0.47822 0.29048 0.0
H68 H 0.05072 0.9698 0.47487 0.0
H69 H 0.02871 0.12016 0.35947 0.0
H70 H 0.2467 0.92209 0.38659 0.0
H71 H 0.99991 0.22417 0.41113 0.0
C72 C 0.94642 0.19093 0.42612 0.0
C73 C 0.07615 0.98585 0.44541 0.0
C74 C 0.15361 0.93929 0.43377 0.0
C75 C 0.03458 0.05435 0.42003 0.0
C76 C 0.06682 0.07225 0.38106 0.0
C77 C 0.14286 0.02429 0.36841 0.0
C78 C 0.18796 0.95969 0.39587 0.0
N79 N 0.95864 0.10277 0.43354 0.0
H80 H 0.89107 0.9894 0.48464 0.0
H81 H 1.00199 0.10315 0.6128 0.0
H82 H 0.83411 0.87085 0.59988 0.0
H83 H 1.00131 0.22551 0.56667 0.0
C84 C 0.03874 0.19418 0.54324 0.0
C85 C 0.89789 0.98983 0.51995 0.0
C86 C 0.8571 0.92305 0.53927 0.0
C87 C 0.9512 0.05478 0.54617 0.0
C88 C 0.95853 0.05487 0.59201 0.0
C89 C 0.91558 0.9887 0.61141 0.0
C90 C 0.86555 0.92299 0.58489 0.0
N91 N 1.00613 0.11282 0.52613 0.0
H92 H 0.68014 0.46194 -0.01049 0.0
H93 H 0.58107 0.61247 0.87458 0.0
H94 H 0.73933 0.38098 0.86531 0.0
H95 H 0.59416 0.7193 0.93153 0.0
C96 C 0.55164 0.6849 0.95149 0.0
C97 C 0.6745 0.47295 0.95496 0.0
C98 C 0.71396 0.41278 0.92979 0.0
C99 C 0.62621 0.54542 0.93556 0.0
C100 C 0.62148 0.55894 0.89059 0.0
C101 C 0.66246 0.49963 0.86535 0.0
C102 C 0.70878 0.42716 0.88509 0.0
N103 N 0.57421 0.5985 0.96059 0.0
H104 H 0.53012 0.43484 0.00058 0.0
H105 H 0.56183 0.56583 0.12562 0.0
H106 H 0.32331 0.38648 0.08292 0.0
H107 H 0.6092 0.67404 0.08493 0.0
C108 C 0.65697 0.64234 0.0659 0.0
C109 C 0.50581 0.44762 0.03085 0.0
C110 C 0.42195 0.40442 0.03837 0.0
C111 C 0.55388 0.5095 0.06111 0.0
C112 C 0.52123 0.52271 0.10071 0.0
C113 C 0.43932 0.47708 0.10925 0.0
C114 C 0.38794 0.42061 0.07712 0.0
N115 N 0.63429 0.55732 0.05109 0.0
C116 C 0.36959 0.18274 -0.00427 0.0
C117 C 0.26632 0.18511 0.97885 0.0
C118 C 0.4233 0.2572 0.00994 0.0
C119 C 0.37434 0.33539 0.00872 0.0
H120 H 0.4071 0.12246 0.00167 0.0
H121 H 0.50105 0.25238 0.02619 0.0
S122 S 0.10694 0.37518 0.96272 0.0
N123 N 0.11942 0.27191 0.95686 0.0
N124 N 0.21938 0.41169 0.98514 0.0
C125 C 0.27298 0.33913 -0.01175 0.0
C126 C 0.21903 0.26371 0.97282 0.0
C127 C 0.39424 0.8661 0.97982 0.0
C128 C 0.31866 0.82541 -0.00382 0.0
C129 C 0.47143 0.81987 0.96734 0.0
C130 C 0.47499 0.73117 0.97015 0.0
H131 H 0.3912 0.93385 0.97485 0.0
H132 H 0.5268 0.85363 0.95388 0.0
S133 S 0.29338 0.59638 0.0114 0.0
N134 N 0.25237 0.69342 0.01591 0.0
N135 N 0.39514 0.60504 -0.00887 0.0
C136 C 0.4009 0.69021 -0.01226 0.0
C137 C 0.32312 0.7378 0.00101 0.0
C138 C 0.79009 0.83768 0.03769 0.0
C139 C 0.86459 0.80508 0.01721 0.0
C140 C 0.72329 0.78399 0.05268 0.0
C141 C 0.72949 0.69546 0.04859 0.0
H142 H 0.78402 0.90543 0.04253 0.0
H143 H 0.66667 0.81219 0.068 0.0
S144 S 0.91741 0.57877 0.00035 0.0
N145 N 0.94305 0.67951 -0.00564 0.0
N146 N 0.821 0.57778 0.02465 0.0
C147 C 0.80466 0.66198 0.0285 0.0
C148 C 0.87135 0.71706 0.01227 0.0
C149 C 0.88773 0.25865 -7e-05 0.0
C150 C 0.85959 0.18078 0.97802 0.0
C151 C 0.83692 0.33349 -0.01428 0.0
C152 C 0.75672 0.33262 0.94919 0.0
H153 H 0.95327 0.26284 0.02628 0.0
H154 H 0.86399 0.39279 0.00187 0.0
S155 S 0.64193 0.143 0.88633 0.0
N156 N 0.73769 0.10585 0.92213 0.0
N157 N 0.64233 0.24622 0.89574 0.0
C158 C 0.72291 0.25428 0.92949 0.0
C159 C 0.77434 0.1784 0.94385 0.0
C160 C 0.65849 0.78292 0.47129 0.0
C161 C 0.6976 0.70212 0.48234 0.0
C162 C 0.71438 0.85604 0.48663 0.0
C163 C 0.81056 0.84961 0.51297 0.0
H164 H 0.58144 0.78975 0.45443 0.0
H165 H 0.67944 0.9174 0.48089 0.0
S166 S 0.9525 0.65294 0.54329 0.0
N167 N 0.84233 0.62006 0.51563 0.0
N168 N 0.94788 0.75742 0.54365 0.0
C169 C 0.85379 0.76942 0.52013 0.0
C170 C 0.79699 0.69544 0.50495 0.0
C171 C 0.72079 0.24847 0.47511 0.0
C172 C 0.71595 0.33655 0.46985 0.0
C173 C 0.79636 0.201 0.46156 0.0
C174 C 0.86943 0.24051 0.44267 0.0
H175 H 0.66386 0.21586 0.48808 0.0
H176 H 0.79589 0.13298 0.46494 0.0
S177 S 0.8925 0.47065 0.42547 0.0
N178 N 0.79225 0.46179 0.44674 0.0
N179 N 0.93488 0.3735 0.42223 0.0
C180 C 0.86692 0.32893 0.43901 0.0
C181 C 0.78998 0.37673 0.45235 0.0
C182 C 0.18024 0.37805 0.50858 0.0
C183 C 0.25812 0.33818 0.49302 0.0
C184 C 0.1083 0.33062 0.52387 0.0
C185 C 0.11235 0.24185 0.52433 0.0
H186 H 0.17697 0.44655 0.51032 0.0
H187 H 0.05011 0.36369 0.53611 0.0
S188 S 0.30544 0.10851 0.48918 0.0
N189 N 0.33672 0.20618 0.4795 0.0
N190 N 0.20308 0.11625 0.50918 0.0
C191 C 0.18942 0.20132 0.50827 0.0
C192 C 0.2621 0.24981 0.49238 0.0
C193 C 0.34222 0.78791 0.49486 0.0
C194 C 0.29209 0.71003 0.48517 0.0
C195 C 0.2943 0.86389 0.48108 0.0
C196 C 0.19429 0.8641 0.45842 0.0
H197 H 0.42132 0.78956 0.50933 0.0
H198 H 0.33756 0.92195 0.48555 0.0
S199 S 0.02708 0.67796 0.43089 0.0
N200 N 0.13533 0.63794 0.45532 0.0
N201 N 0.04386 0.78156 0.43116 0.0
C202 C 0.14098 0.78746 0.4523 0.0
C203 C 0.19036 0.70999 0.46529 0.0
C204 C 0.17783 0.96424 0.25412 0.0
C205 C 0.17962 0.0428 0.23415 0.0
C206 C 0.17041 0.95929 0.29815 0.0
C207 C 0.16525 0.0329 0.32393 0.0
H208 H 0.17673 0.90617 0.23487 0.0
H209 H 0.16336 0.89711 0.31132 0.0
S210 S 0.17936 0.2542 0.28756 0.0
N211 N 0.18244 0.19568 0.2432 0.0
N212 N 0.17282 0.18701 0.327 0.0
C213 C 0.17281 0.1121 0.30478 0.0
C214 C 0.17898 0.11691 0.2596 0.0
C215 C 0.98847 0.90345 0.72643 0.0
C216 C 0.95474 0.96653 0.75213 0.0
C217 C 0.9753 0.91133 0.68083 0.0
C218 C 0.92959 0.98326 0.65963 0.0
H219 H 0.02525 0.84771 0.74174 0.0
H220 H 1.00201 0.86125 0.66202 0.0
S221 S 0.82943 0.16638 0.7124 0.0
N222 N 0.87393 0.10303 0.75349 0.0
N223 N 0.85029 0.11838 0.66748 0.0
C224 C 0.89593 0.04693 0.68496 0.0
C225 C 0.90803 0.03833 0.73135 0.0
C226 C 0.57781 0.44736 0.74442 0.0
C227 C 0.61495 0.51562 0.72427 0.0
C228 C 0.59412 0.44292 0.79018 0.0
C229 C 0.64685 0.50723 0.81725 0.0
H230 H 0.53622 0.39685 0.72458 0.0
H231 H 0.5645 0.38914 0.80456 0.0
S232 S 0.75858 0.69957 0.78054 0.0
N233 N 0.70682 0.64876 0.7344 0.0
N234 N 0.73622 0.64104 0.821 0.0
C235 C 0.68397 0.57613 0.7976 0.0
C236 C 0.66857 0.58005 0.75086 0.0
C237 C 0.39548 0.57088 0.21678 0.0
C238 C 0.38468 0.49849 0.24091 0.0
C239 C 0.40827 0.56373 0.17331 0.0
C240 C 0.41223 0.48385 0.15294 0.0
H241 H 0.39836 0.63311 0.23229 0.0
H242 H 0.41849 0.62093 0.15603 0.0
S243 S 0.38745 0.27524 0.20308 0.0
N244 N 0.37598 0.34535 0.24179 0.0
N245 N 0.40311 0.33084 0.16054 0.0
C246 C 0.3981 0.41105 0.17655 0.0
C247 C 0.38371 0.41867 0.22052 0.0
loop_
_geom_bond_atom_site_label_1
_geom_bond_atom_site_label_2
_geom_bond_distance
_geom_bond_site_symmetry_2
_ccdc_geom_bond_type
C0 O16 1.251 . S
C0 O18 1.254 1_554 S
N1 C2 1.333 1_445 S
N1 C6 1.307 . S
N1 Zn7 2.020 . S
C2 N1 1.333 1_665 S
C2 C3 1.379 . S
C2 H20 0.952 . S
C3 C2 1.379 . S
C3 C4 1.390 1_665 S
C3 H30 0.949 . S
C4 C3 1.390 1_445 S
C4 C5 1.357 . S
C5 C4 1.357 . S
C5 C6 1.370 . S
C5 H31 0.950 . S
C6 N1 1.307 . S
C6 C5 1.370 . S
C6 H24 0.948 . S
Zn7 N1 2.020 . S
Zn7 O16 2.039 1_445 S
Zn7 O22 2.034 1_455 S
Zn7 O26 2.025 . S
Zn7 O28 2.024 1_545 S
C8 O27 1.246 1_554 S
C8 O28 1.249 . S
N9 C10 1.307 1_545 S
N9 C11 1.333 1_655 S
N9 Zn15 2.020 1_655 S
C10 N9 1.307 1_565 S
C10 C14 1.370 . S
C10 H21 0.948 . S
C11 N9 1.333 1_455 S
C11 C12 1.379 . S
C11 H19 0.952 . S
C12 C11 1.379 . S
C12 C13 1.390 1_455 S
C12 H32 0.949 . S
C13 C12 1.390 1_655 S
C13 C14 1.357 1_545 S
C14 C10 1.370 . S
C14 C13 1.357 1_565 S
C14 H33 0.950 . S
Zn15 N9 2.020 1_455 S
Zn15 O18 2.025 1_445 S
Zn15 O23 2.024 1_455 S
Zn15 O25 2.039 . S
Zn15 O27 2.034 1_545 S
O16 C0 1.251 . S
O16 Zn7 2.039 1_665 S
C17 O22 1.248 . S
C17 O23 1.247 1_554 S
O18 C0 1.254 1_556 S
O18 Zn15 2.025 1_665 S
H19 C11 0.952 . S
H20 C2 0.952 . S
H21 C10 0.948 . S
O22 Zn7 2.034 1_655 S
O22 C17 1.248 . S
O23 Zn15 2.024 1_655 S
O23 C17 1.247 1_556 S
H24 C6 0.948 . S
O25 Zn15 2.039 . S
O25 C29 1.251 1_556 S
O26 Zn7 2.025 . S
O26 C29 1.254 . S
O27 C8 1.246 1_556 S
O27 Zn15 2.034 1_565 S
O28 Zn7 2.024 1_565 S
O28 C8 1.249 . S
C29 O25 1.251 1_554 S
C29 O26 1.254 . S
H30 C3 0.949 . S
H31 C5 0.950 . S
H32 C12 0.949 . S
H33 C14 0.950 . S
C34 O50 1.251 . S
C34 O52 1.254 . S
N35 C36 1.333 . S
N35 C40 1.307 . S
N35 Zn41 2.020 . S
C36 N35 1.333 . S
C36 C37 1.379 . S
C36 H54 0.952 . S
C37 C36 1.379 . S
C37 C38 1.390 . S
C37 H64 0.949 . S
C38 C37 1.390 . S
C38 C39 1.357 . S
C39 C38 1.357 . S
C39 C40 1.370 . S
C39 H65 0.950 . S
C40 N35 1.307 . S
C40 C39 1.370 . S
C40 H58 0.948 . S
Zn41 N35 2.020 . S
Zn41 O50 2.039 . S
Zn41 O56 2.034 . S
Zn41 O60 2.025 . S
Zn41 O62 2.024 . S
C42 O61 1.246 . S
C42 O62 1.249 . S
N43 C44 1.307 . S
N43 C45 1.333 . S
N43 Zn49 2.020 . S
C44 N43 1.307 . S
C44 C48 1.370 . S
C44 H55 0.948 . S
C45 N43 1.333 . S
C45 C46 1.379 . S
C45 H53 0.952 . S
C46 C45 1.379 . S
C46 C47 1.390 . S
C46 H66 0.949 . S
C47 C46 1.390 . S
C47 C48 1.357 . S
C48 C44 1.370 . S
C48 C47 1.357 . S
C48 H67 0.950 . S
Zn49 N43 2.020 . S
Zn49 O52 2.025 . S
Zn49 O57 2.024 . S
Zn49 O59 2.039 . S
Zn49 O61 2.034 . S
O50 C34 1.251 . S
O50 Zn41 2.039 . S
C51 O56 1.246 . S
C51 O57 1.249 . S
O52 C34 1.254 . S
O52 Zn49 2.025 . S
H53 C45 0.952 . S
H54 C36 0.952 . S
H55 C44 0.948 . S
O56 Zn41 2.034 . S
O56 C51 1.246 . S
O57 Zn49 2.024 . S
O57 C51 1.249 . S
H58 C40 0.948 . S
O59 Zn49 2.039 . S
O59 C63 1.251 . S
O60 Zn41 2.025 . S
O60 C63 1.254 . S
O61 C42 1.246 . S
O61 Zn49 2.034 . S
O62 Zn41 2.024 . S
O62 C42 1.249 . S
C63 O59 1.251 . S
C63 O60 1.254 . S
H64 C37 0.949 . S
H65 C39 0.950 . S
H66 C46 0.949 . S
H67 C48 0.950 . S
H68 C73 0.930 . S
H69 C76 0.930 1_655 S
H70 C78 0.930 . S
H71 C72 1.016 . S
C72 H71 1.016 . S
C72 N79 1.286 . S
C73 H68 0.930 . S
C73 C74 1.397 . S
C73 C75 1.361 1_565 S
C74 C73 1.397 . S
C74 C78 1.390 . S
C75 C73 1.361 1_545 S
C75 C76 1.393 . S
C75 N79 1.413 1_455 S
C76 H69 0.930 1_455 S
C76 C75 1.393 . S
C76 C77 1.399 1_545 S
C77 C76 1.399 1_565 S
C77 C78 1.381 . S
C78 H70 0.930 . S
C78 C74 1.390 . S
C78 C77 1.381 . S
N79 C72 1.286 . S
N79 C75 1.413 1_655 S
H80 C85 0.930 . S
H81 C88 0.930 . S
H82 C90 0.930 . S
H83 C84 1.016 . S
C84 H83 1.016 . S
C84 N91 1.286 . S
C85 H80 0.930 . S
C85 C86 1.397 . S
C85 C87 1.361 1_665 S
C86 C85 1.397 . S
C86 C90 1.390 . S
C87 C85 1.361 1_445 S
C87 C88 1.393 . S
C87 N91 1.413 . S
C88 H81 0.930 . S
C88 C87 1.393 . S
C88 C89 1.399 1_455 S
C89 C88 1.399 1_655 S
C89 C90 1.381 1_545 S
C90 H82 0.930 . S
C90 C86 1.390 . S
C90 C89 1.381 1_565 S
N91 C84 1.286 . S
N91 C87 1.413 . S
H92 C97 0.930 . S
H93 C100 0.930 . S
H94 C102 0.930 . S
H95 C96 1.016 . S
C96 H95 1.016 . S
C96 N103 1.286 1_556 S
C97 H92 0.930 . S
C97 C98 1.397 1_554 S
C97 C99 1.361 1_554 S
C98 C97 1.397 1_556 S
C98 C102 1.390 . S
C99 C97 1.361 1_556 S
C99 C100 1.393 . S
C99 N103 1.413 1_556 S
C100 H93 0.930 . S
C100 C99 1.393 . S
C100 C101 1.399 . S
C101 C100 1.399 . S
C101 C102 1.381 . S
C102 H94 0.930 . S
C102 C98 1.390 . S
C102 C101 1.381 . S
N103 C96 1.286 1_554 S
N103 C99 1.413 1_554 S
H104 C109 0.930 1_556 S
H105 C112 0.930 . S
H106 C114 0.930 . S
H107 C108 1.016 . S
C108 H107 1.016 . S
C108 N115 1.286 . S
C109 H104 0.930 1_554 S
C109 C110 1.397 . S
C109 C111 1.361 . S
C110 C109 1.397 . S
C110 C114 1.390 . S
C111 C109 1.361 . S
C111 C112 1.393 . S
C111 N115 1.413 . S
C112 H105 0.930 . S
C112 C111 1.393 . S
C112 C113 1.399 . S
C113 C112 1.399 . S
C113 C114 1.381 . S
C114 H106 0.930 . S
C114 C110 1.390 . S
C114 C113 1.381 . S
N115 C108 1.286 . S
N115 C111 1.413 . S
C116 C117 1.369 . S
C116 C118 1.419 . S
C116 H120 0.930 1_554 S
C117 C116 1.369 . S
C117 C126 1.429 . S
C118 C116 1.419 . S
C118 C119 1.363 . S
C118 H121 0.922 1_554 S
C119 C118 1.363 . S
C119 C125 1.428 . S
H120 C116 0.930 1_556 S
H121 C118 0.922 1_556 S
S122 N123 1.613 . S
S122 N124 1.610 . S
N123 S122 1.613 . S
N123 C126 1.350 . S
N124 S122 1.610 . S
N124 C125 1.351 . S
C125 C119 1.428 . S
C125 N124 1.351 . S
C125 C126 1.434 . S
C126 C117 1.429 . S
C126 N123 1.350 . S
C126 C125 1.434 . S
C127 C128 1.369 1_556 S
C127 C129 1.419 . S
C127 H131 0.930 . S
C128 C127 1.369 1_554 S
C128 C137 1.429 . S
C129 C127 1.419 . S
C129 C130 1.363 1_556 S
C129 H132 0.929 . S
C130 C129 1.363 1_554 S
C130 C136 1.428 . S
H131 C127 0.930 . S
H132 C129 0.929 . S
S133 N134 1.613 . S
S133 N135 1.610 . S
N134 S133 1.613 . S
N134 C137 1.350 . S
N135 S133 1.610 . S
N135 C136 1.351 . S
C136 C130 1.428 . S
C136 N135 1.351 . S
C136 C137 1.434 . S
C137 C128 1.429 . S
C137 N134 1.350 . S
C137 C136 1.434 . S
C138 C139 1.373 . S
C138 C140 1.419 . S
C138 H142 0.930 . S
C139 C138 1.373 . S
C139 C148 1.425 1_554 S
C140 C138 1.419 . S
C140 C141 1.374 . S
C140 H143 0.929 . S
C141 C140 1.374 . S
C141 C147 1.414 1_554 S
H142 C138 0.930 . S
H143 C140 0.929 . S
S144 N145 1.613 . S
S144 N146 1.610 . S
N145 S144 1.613 . S
N145 C148 1.350 . S
N146 S144 1.610 . S
N146 C147 1.351 . S
C147 C141 1.414 1_556 S
C147 N146 1.351 . S
C147 C148 1.434 . S
C148 C139 1.425 1_556 S
C148 N145 1.350 . S
C148 C147 1.434 . S
C149 C150 1.369 1_554 S
C149 C151 1.419 . S
C149 H153 0.930 . S
C150 C149 1.369 1_556 S
C150 C159 1.429 . S
C151 C149 1.419 . S
C151 C152 1.363 1_554 S
C151 H154 0.929 . S
C152 C151 1.363 1_556 S
C152 C158 1.428 . S
H153 C149 0.930 . S
H154 C151 0.929 . S
S155 N156 1.613 . S
S155 N157 1.610 . S
N156 S155 1.613 . S
N156 C159 1.350 . S
N157 S155 1.610 . S
N157 C158 1.351 . S
C158 C152 1.428 . S
C158 N157 1.351 . S
C158 C159 1.434 . S
C159 C150 1.429 . S
C159 N156 1.350 . S
C159 C158 1.434 . S
C160 C161 1.369 . S
C160 C162 1.419 . S
C160 H164 0.930 . S
C161 C160 1.369 . S
C161 C170 1.429 . S
C162 C160 1.419 . S
C162 C163 1.363 . S
C162 H165 0.929 . S
C163 C162 1.363 . S
C163 C169 1.428 . S
H164 C160 0.930 . S
H165 C162 0.929 . S
S166 N167 1.613 . S
S166 N168 1.610 . S
N167 S166 1.613 . S
N167 C170 1.350 . S
N168 S166 1.610 . S
N168 C169 1.351 . S
C169 C163 1.428 . S
C169 N168 1.351 . S
C169 C170 1.434 . S
C170 C161 1.429 . S
C170 N167 1.350 . S
C170 C169 1.434 . S
C171 C172 1.369 . S
C171 C173 1.419 . S
C171 H175 0.930 . S
C172 C171 1.369 . S
C172 C181 1.429 . S
C173 C171 1.419 . S
C173 C174 1.363 . S
C173 H176 0.929 . S
C174 C173 1.363 . S
C174 C180 1.428 . S
H175 C171 0.930 . S
H176 C173 0.929 . S
S177 N178 1.613 . S
S177 N179 1.610 . S
N178 S177 1.613 . S
N178 C181 1.350 . S
N179 S177 1.610 . S
N179 C180 1.351 . S
C180 C174 1.428 . S
C180 N179 1.351 . S
C180 C181 1.434 . S
C181 C172 1.429 . S
C181 N178 1.350 . S
C181 C180 1.434 . S
C182 C183 1.369 . S
C182 C184 1.419 . S
C182 H186 0.930 . S
C183 C182 1.369 . S
C183 C192 1.429 . S
C184 C182 1.419 . S
C184 C185 1.363 . S
C184 H187 0.929 . S
C185 C184 1.363 . S
C185 C191 1.428 . S
H186 C182 0.930 . S
H187 C184 0.929 . S
S188 N189 1.613 . S
S188 N190 1.610 . S
N189 S188 1.613 . S
N189 C192 1.350 . S
N190 S188 1.610 . S
N190 C191 1.351 . S
C191 C185 1.428 . S
C191 N190 1.351 . S
C191 C192 1.434 . S
C192 C183 1.429 . S
C192 N189 1.350 . S
C192 C191 1.434 . S
C193 C194 1.369 . S
C193 C195 1.419 . S
C193 H197 0.930 . S
C194 C193 1.369 . S
C194 C203 1.429 . S
C195 C193 1.419 . S
C195 C196 1.363 . S
C195 H198 0.929 . S
C196 C195 1.363 . S
C196 C202 1.428 . S
H197 C193 0.930 . S
H198 C195 0.929 . S
S199 N200 1.613 . S
S199 N201 1.610 . S
N200 S199 1.613 . S
N200 C203 1.350 . S
N201 S199 1.610 . S
N201 C202 1.351 . S
C202 C196 1.428 . S
C202 N201 1.351 . S
C202 C203 1.434 . S
C203 C194 1.429 . S
C203 N200 1.350 . S
C203 C202 1.434 . S
C204 C205 1.369 1_565 S
C204 C206 1.419 . S
C204 H208 0.930 . S
C205 C204 1.369 1_545 S
C205 C214 1.429 . S
C206 C204 1.419 . S
C206 C207 1.363 1_565 S
C206 H209 0.929 . S
C207 C206 1.363 1_545 S
C207 C213 1.428 . S
H208 C204 0.930 . S
H209 C206 0.929 . S
S210 N211 1.613 1_655 S
S210 N212 1.610 . S
N211 S210 1.613 1_455 S
N211 C214 1.350 . S
N212 S210 1.610 . S
N212 C213 1.351 1_655 S
C213 C207 1.428 . S
C213 N212 1.351 1_455 S
C213 C214 1.434 . S
C214 C205 1.429 . S
C214 N211 1.350 . S
C214 C213 1.434 . S
C215 C216 1.369 1_565 S
C215 C217 1.419 . S
C215 H219 0.930 . S
C216 C215 1.369 1_545 S
C216 C225 1.429 . S
C217 C215 1.419 . S
C217 C218 1.363 1_565 S
C217 H220 0.929 . S
C218 C217 1.363 1_545 S
C218 C224 1.428 . S
H219 C215 0.930 . S
H220 C217 0.929 . S
S221 N222 1.613 . S
S221 N223 1.610 . S
N222 S221 1.613 . S
N222 C225 1.350 . S
N223 S221 1.610 . S
N223 C224 1.351 . S
C224 C218 1.428 . S
C224 N223 1.351 . S
C224 C225 1.434 . S
C225 C216 1.429 . S
C225 N222 1.350 . S
C225 C224 1.434 . S
C226 C227 1.369 . S
C226 C228 1.419 . S
C226 H230 0.930 . S
C227 C226 1.369 . S
C227 C236 1.429 . S
C228 C226 1.419 . S
C228 C229 1.363 . S
C228 H231 0.929 . S
C229 C228 1.363 . S
C229 C235 1.428 . S
H230 C226 0.930 . S
H231 C228 0.929 . S
S232 N233 1.613 . S
S232 N234 1.610 . S
N233 S232 1.613 . S
N233 C236 1.350 . S
N234 S232 1.610 . S
N234 C235 1.351 . S
C235 C229 1.428 . S
C235 N234 1.351 . S
C235 C236 1.434 . S
C236 C227 1.429 . S
C236 N233 1.350 . S
C236 C235 1.434 . S
C237 C238 1.369 . S
C237 C239 1.419 . S
C237 H241 0.930 . S
C238 C237 1.369 . S
C238 C247 1.429 . S
C239 C237 1.419 . S
C239 C240 1.363 . S
C239 H242 0.929 . S
C240 C239 1.363 . S
C240 C246 1.428 . S
H241 C237 0.930 . S
H242 C239 0.929 . S
S243 N244 1.613 . S
S243 N245 1.610 . S
N244 S243 1.613 . S
N244 C247 1.350 . S
N245 S243 1.610 . S
N245 C246 1.351 . S
C246 C240 1.428 . S
C246 N245 1.351 . S
C246 C247 1.434 . S
C247 C238 1.429 . S
C247 N244 1.350 . S
C247 C246 1.434 . S
C119 C110 1.474 . S
C117 C29 1.514 . S
C128 C8 1.460 . S
C130 C96 1.399 1_554 S
C139 C0 1.463 . S
C141 C108 1.414 . S
C150 C17 1.515 1_556 S
C152 C98 1.474 . S
C161 C63 1.516 . S
C163 C86 1.475 . S
C172 C42 1.459 . S
C174 C72 1.392 . S
C185 C84 1.405 . S
C183 C34 1.463 . S
C196 C74 1.473 . S
C194 C51 1.514 . S
C205 C4 1.524 . S
C207 C77 1.522 1_545 S
C216 C13 1.517 . S
C218 C89 1.514 . S
C229 C101 1.522 . S
C227 C38 1.524 . S
C238 C47 1.515 . S
C240 C113 1.512 . S
