# Generated by pormake.
# Topology rtl, (3,6)-cn, num edge types: 1
# Building blocks:
#     Node 0, Type 0, BuildingBlock: BELTOD_clean_linker_0, # of connection points: 3
#     Node 1, Type 0, BuildingBlock: BELTOD_clean_linker_0, # of connection points: 3
#     Node 2, Type 0, BuildingBlock: BELTOD_clean_linker_0, # of connection points: 3
#     Node 3, Type 0, BuildingBlock: BELTOD_clean_linker_0, # of connection points: 3
#     Node 4, Type 1, BuildingBlock: VOLQOD_clean_sbu_1, # of connection points: 6
#     Node 5, Type 1, BuildingBlock: VOLQOD_clean_sbu_1, # of connection points: 6
#     Edge 6, Type (0, 1), None
#     Edge 7, Type (0, 1), None
#     Edge 8, Type (0, 1), None
#     Edge 9, Type (0, 1), None
#     Edge 10, Type (0, 1), None
#     Edge 11, Type (0, 1), None
#     Edge 12, Type (0, 1), None
#     Edge 13, Type (0, 1), None
#     Edge 14, Type (0, 1), None
#     Edge 15, Type (0, 1), None
#     Edge 16, Type (0, 1), None
#     Edge 17, Type (0, 1), None
# Relax obj value: 0.073
# Max RMSD: 0.154
# Mean RMSD: 0.086
data_MOF--net-rtl--node1-VOLQOD_clean_sbu_1--node2-BELTOD_clean_linker_0--edge1-none
_symmetry_space_group_name_H-M    P1
_symmetry_Int_Tables_number       1
_symmetry_cell_setting            triclinic
loop_
_symmetry_equiv_pos_as_xyz
'x, y, z'
_cell_length_a     22.463474
_cell_length_b     18.800092
_cell_length_c     14.664577
_cell_angle_alpha  89.015096
_cell_angle_beta   90.490843
_cell_angle_gamma 90.855543
loop_
_atom_site_label
_atom_site_type_symbol
_atom_site_fract_x
_atom_site_fract_y
_atom_site_fract_z
_atom_type_partial_charge
P0 P 0.16888 0.78203 0.03722 0.0
H1 H 0.19204 0.76301 0.23157 0.0
H2 H 0.13841 0.80805 0.36211 0.0
H3 H 0.989 0.85753 0.18717 0.0
H4 H 0.04091 0.80876 0.05751 0.0
H5 H 0.21762 0.72745 0.86984 0.0
H6 H 0.29194 0.63714 0.84771 0.0
H7 H 0.26942 0.56486 0.12676 0.0
H8 H 0.1931 0.65367 0.14738 0.0
H9 H 0.15983 0.92995 -0.01628 0.0
H10 H 0.09591 0.72814 0.88399 0.0
O11 O 0.22768 0.83314 0.06382 0.0
H12 H 0.11409 0.99082 0.85456 0.0
H13 H 0.04985 0.78895 0.75223 0.0
C14 C 0.12085 0.78312 0.13453 0.0
C15 C 0.14626 0.77904 0.22213 0.0
C16 C 0.11562 0.80478 0.29684 0.0
C17 C 0.05985 0.83596 0.28398 0.0
C18 C 0.03179 0.83284 0.19839 0.0
C19 C 0.06183 0.80549 0.12414 0.0
C20 C 0.19955 0.69747 0.01029 0.0
C21 C 0.22596 0.68964 0.92481 0.0
C22 C 0.26901 0.6381 0.91235 0.0
C23 C 0.2875 0.5951 -0.0138 0.0
C24 C 0.25658 0.59804 0.06896 0.0
C25 C 0.21273 0.64884 0.08077 0.0
C26 C 0.13312 0.8245 0.94128 0.0
C27 C 0.13624 0.89865 0.93329 0.0
C28 C 0.10965 0.93343 0.85944 0.0
C29 C 0.07898 0.89466 0.79214 0.0
C30 C 0.07362 0.82026 0.80245 0.0
C31 C 0.10021 0.78542 0.87716 0.0
P32 P 0.65906 0.7465 0.45992 0.0
H33 H 0.69683 0.75989 0.27225 0.0
H34 H 0.6487 0.71092 0.13781 0.0
H35 H 0.48233 0.69414 0.28336 0.0
H36 H 0.53018 0.74747 0.41587 0.0
H37 H 0.74211 0.76481 0.6074 0.0
H38 H 0.82421 0.84848 0.63086 0.0
H39 H 0.76509 0.97354 0.39847 0.0
H40 H 0.68219 0.88857 0.37477 0.0
H41 H 0.58347 0.6219 0.47945 0.0
H42 H 0.62974 0.80555 0.63962 0.0
O43 O 0.70555 0.67937 0.44483 0.0
H44 H 0.52876 0.57035 0.60818 0.0
H45 H 0.57831 0.75155 0.77068 0.0
C46 C 0.6178 0.75417 0.35506 0.0
C47 C 0.64928 0.74942 0.27364 0.0
C48 C 0.62166 0.72046 0.19704 0.0
C49 C 0.56243 0.69519 0.2019 0.0
C50 C 0.52859 0.71082 0.27883 0.0
C51 C 0.55606 0.74147 0.35467 0.0
C52 C 0.70616 0.8206 0.48955 0.0
C53 C 0.74542 0.81151 0.56329 0.0
C54 C 0.79244 0.8592 0.57648 0.0
C55 C 0.80105 0.91701 0.51609 0.0
C56 C 0.75895 0.92959 0.44638 0.0
C57 C 0.71181 0.88103 0.43262 0.0
C58 C 0.61109 0.71709 0.55045 0.0
C59 C 0.58085 0.65173 0.54181 0.0
C60 C 0.54932 0.62252 0.61498 0.0
C61 C 0.54958 0.65722 0.69869 0.0
C62 C 0.57758 0.72418 0.70624 0.0
C63 C 0.60743 0.75461 0.63182 0.0
P64 P 0.91693 0.35616 -0.00878 0.0
H65 H 0.02442 0.33813 0.88495 0.0
H66 H 0.04613 0.267 0.75179 0.0
H67 H 0.86029 0.20634 0.73045 0.0
H68 H 0.8391 0.27628 0.86414 0.0
H69 H 0.86135 0.49225 0.94668 0.0
H70 H 0.75738 0.52912 0.94146 0.0
H71 H 0.70224 0.31776 0.03032 0.0
H72 H 0.80593 0.28189 0.03582 0.0
H73 H -0.00547 0.23294 0.01469 0.0
H74 H 0.87299 0.35028 0.17926 0.0
O75 O 0.96249 0.42665 0.00019 0.0
H76 H 0.01445 0.15312 0.14287 0.0
H77 H 0.89182 0.26895 0.30825 0.0
C78 C 0.93022 0.31289 0.88466 0.0
C79 C 0.98818 0.3106 0.85064 0.0
C80 C 0.00049 0.26981 0.77458 0.0
C81 C 0.95484 0.23099 0.73066 0.0
C82 C 0.89628 0.2361 0.76227 0.0
C83 C 0.8842 0.27608 0.83928 0.0
C84 C 0.84117 0.38485 -0.00675 0.0
C85 C 0.82681 0.45429 0.96609 0.0
C86 C 0.76741 0.47516 0.9629 0.0
C87 C 0.72159 0.42634 -0.01451 0.0
C88 C 0.73641 0.35667 0.01242 0.0
C89 C 0.7957 0.33619 0.01628 0.0
C90 C 0.93104 0.29658 0.08635 0.0
C91 C 0.97159 0.24128 0.07804 0.0
C92 C 0.98311 0.19562 0.15185 0.0
C93 C 0.95426 0.20427 0.23567 0.0
C94 C 0.91413 0.26032 0.24428 0.0
C95 C 0.90331 0.30674 0.17051 0.0
P96 P 0.42779 0.1674 0.48528 0.0
H97 H 0.52596 0.18088 0.61789 0.0
H98 H 0.54038 0.25711 0.75064 0.0
H99 H 0.36453 0.34228 0.7078 0.0
H100 H 0.34974 0.26493 0.57809 0.0
H101 H 0.34009 0.15428 0.33542 0.0
H102 H 0.23353 0.12502 0.33569 0.0
H103 H 0.24387 0.07885 0.62522 0.0
H104 H 0.35005 0.10677 0.6241 0.0
H105 H 0.508 0.16145 0.32839 0.0
H106 H 0.37639 0.30344 0.43157 0.0
O107 O 0.47436 0.09908 0.48521 0.0
H108 H 0.52549 0.2431 0.19924 0.0
H109 H 0.39436 0.38554 0.30489 0.0
C110 C 0.43691 0.21736 0.58808 0.0
C111 C 0.49023 0.21507 0.63821 0.0
C112 C 0.49829 0.25841 0.7141 0.0
C113 C 0.45355 0.30568 0.73922 0.0
C114 C 0.39985 0.30665 0.68974 0.0
C115 C 0.39151 0.26257 0.61527 0.0
C116 C 0.35241 0.13468 0.48042 0.0
C117 C 0.31946 0.13736 0.39876 0.0
C118 C 0.2586 0.12072 0.39892 0.0
C119 C 0.23019 0.10159 0.4809 0.0
C120 C 0.26426 0.0952 0.56138 0.0
C121 C 0.32502 0.1107 0.56079 0.0
C122 C 0.44175 0.22702 0.39053 0.0
C123 C 0.48319 0.21032 0.32369 0.0
C124 C 0.49294 0.25692 0.24978 0.0
C125 C 0.46154 0.32104 0.2422 0.0
C126 C 0.41974 0.33703 0.30916 0.0
C127 C 0.40966 0.29017 0.38217 0.0
O128 O 0.86233 0.02134 0.4981 0.0
Zn129 Zn 0.93401 0.08923 0.49737 0.0
O130 O 0.00774 0.03446 0.50469 0.0
Zn131 Zn 0.05723 0.07067 0.60185 0.0
Zn132 Zn -0.0074 0.93315 0.52876 0.0
Zn133 Zn 0.05073 0.0452 0.39134 0.0
O134 O 0.13944 0.0923 0.56024 0.0
O135 O 0.13711 0.07136 0.41191 0.0
O136 O 0.92939 0.15572 0.60572 0.0
O137 O 0.02224 0.15521 0.65948 0.0
O138 O 0.06766 0.99829 0.70068 0.0
O139 O 0.02812 0.89831 0.64827 0.0
O140 O 0.0237 0.87163 0.42788 0.0
O141 O 0.93198 0.15023 0.38077 0.0
O142 O 0.04983 0.95418 0.32479 0.0
O143 O 0.01415 0.11833 0.30985 0.0
C144 C 0.85881 0.95493 0.51732 0.0
C145 C 0.16544 0.08844 0.48396 0.0
C146 C 0.05597 0.93229 0.71008 0.0
C147 C 0.9697 0.17944 0.65965 0.0
C148 C 0.04115 0.88955 0.34833 0.0
C149 C 0.96735 0.15535 0.31319 0.0
O150 O 0.90485 0.9178 0.53305 0.0
O151 O 0.64584 0.5127 0.9703 0.0
Zn152 Zn 0.56819 0.5639 0.96501 0.0
O153 O 0.50055 0.49865 -0.02361 0.0
Zn154 Zn 0.44842 0.50968 0.87028 0.0
Zn155 Zn 0.52937 0.40125 -0.01715 0.0
Zn156 Zn 0.45735 0.5204 0.08674 0.0
O157 O 0.3685 0.54723 0.90529 0.0
O158 O 0.37389 0.54891 0.05654 0.0
O159 O 0.56563 0.61858 0.84895 0.0
O160 O 0.48483 0.57747 0.7778 0.0
O161 O 0.4377 0.41724 0.8059 0.0
O162 O 0.50278 0.34531 0.8736 0.0
O163 O 0.50131 0.351 0.09674 0.0
O164 O 0.57109 0.63423 0.06363 0.0
O165 O 0.45378 0.43491 0.17084 0.0
O166 O 0.49607 0.60288 0.15361 0.0
C167 C 0.65863 0.44737 -0.01951 0.0
C168 C 0.34508 0.5586 -0.01763 0.0
C169 C 0.46442 0.35806 0.8113 0.0
C170 C 0.53068 0.61797 0.7806 0.0
C171 C 0.4726 0.37151 0.16572 0.0
C172 C 0.54031 0.64355 0.13442 0.0
O173 O 0.6182 0.39955 -0.01306 0.0
loop_
_geom_bond_atom_site_label_1
_geom_bond_atom_site_label_2
_geom_bond_distance
_geom_bond_site_symmetry_2
_ccdc_geom_bond_type
P0 O11 1.490 . S
P0 C14 1.812 . S
P0 C20 1.803 . S
P0 C26 1.819 1_554 S
H1 C15 0.941 . S
H2 C16 0.939 . S
H3 C18 0.940 . S
H4 C19 0.940 . S
H5 C21 0.939 . S
H6 C22 0.942 . S
H7 C24 0.940 . S
H8 C25 0.939 . S
H9 C27 0.941 . S
H10 C31 0.939 . S
O11 P0 1.490 . S
H12 C28 0.939 . S
H13 C30 0.940 . S
C14 P0 1.812 . S
C14 C15 1.389 . S
C14 C19 1.391 . S
C15 H1 0.941 . S
C15 C14 1.389 . S
C15 C16 1.397 . S
C16 H2 0.939 . S
C16 C15 1.397 . S
C16 C17 1.378 . S
C17 C16 1.378 . S
C17 C18 1.378 . S
C18 H3 0.940 . S
C18 C17 1.378 . S
C18 C19 1.396 . S
C19 H4 0.940 . S
C19 C14 1.391 . S
C19 C18 1.396 . S
C20 P0 1.803 . S
C20 C21 1.378 1_554 S
C20 C25 1.400 . S
C21 H5 0.939 . S
C21 C20 1.378 1_556 S
C21 C22 1.361 . S
C22 H6 0.942 . S
C22 C21 1.361 . S
C22 C23 1.369 1_556 S
C23 C22 1.369 1_554 S
C23 C24 1.404 . S
C24 H7 0.940 . S
C24 C23 1.404 . S
C24 C25 1.389 . S
C25 H8 0.939 . S
C25 C20 1.400 . S
C25 C24 1.389 . S
C26 P0 1.819 1_556 S
C26 C27 1.391 . S
C26 C31 1.391 . S
C27 H9 0.941 . S
C27 C26 1.391 . S
C27 C28 1.396 . S
C28 H12 0.939 . S
C28 C27 1.396 . S
C28 C29 1.397 . S
C29 C28 1.397 . S
C29 C30 1.385 . S
C30 H13 0.940 . S
C30 C29 1.385 . S
C30 C31 1.388 . S
C31 H10 0.939 . S
C31 C26 1.391 . S
C31 C30 1.388 . S
P32 O43 1.490 . S
P32 C46 1.812 . S
P32 C52 1.803 . S
P32 C58 1.819 . S
H33 C47 0.941 . S
H34 C48 0.939 . S
H35 C50 0.940 . S
H36 C51 0.940 . S
H37 C53 0.939 . S
H38 C54 0.942 . S
H39 C56 0.940 . S
H40 C57 0.939 . S
H41 C59 0.941 . S
H42 C63 0.939 . S
O43 P32 1.490 . S
H44 C60 0.939 . S
H45 C62 0.940 . S
C46 P32 1.812 . S
C46 C47 1.389 . S
C46 C51 1.391 . S
C47 H33 0.941 . S
C47 C46 1.389 . S
C47 C48 1.397 . S
C48 H34 0.939 . S
C48 C47 1.397 . S
C48 C49 1.378 . S
C49 C48 1.378 . S
C49 C50 1.378 . S
C50 H35 0.940 . S
C50 C49 1.378 . S
C50 C51 1.396 . S
C51 H36 0.940 . S
C51 C46 1.391 . S
C51 C50 1.396 . S
C52 P32 1.803 . S
C52 C53 1.378 . S
C52 C57 1.400 . S
C53 H37 0.939 . S
C53 C52 1.378 . S
C53 C54 1.361 . S
C54 H38 0.942 . S
C54 C53 1.361 . S
C54 C55 1.369 . S
C55 C54 1.369 . S
C55 C56 1.404 . S
C56 H39 0.940 . S
C56 C55 1.404 . S
C56 C57 1.389 . S
C57 H40 0.939 . S
C57 C52 1.400 . S
C57 C56 1.389 . S
C58 P32 1.819 . S
C58 C59 1.391 . S
C58 C63 1.391 . S
C59 H41 0.941 . S
C59 C58 1.391 . S
C59 C60 1.396 . S
C60 H44 0.939 . S
C60 C59 1.396 . S
C60 C61 1.397 . S
C61 C60 1.397 . S
C61 C62 1.385 . S
C62 H45 0.940 . S
C62 C61 1.385 . S
C62 C63 1.388 . S
C63 H42 0.939 . S
C63 C58 1.391 . S
C63 C62 1.388 . S
P64 O75 1.490 . S
P64 C78 1.812 1_554 S
P64 C84 1.803 . S
P64 C90 1.819 . S
H65 C79 0.941 . S
H66 C80 0.939 . S
H67 C82 0.940 . S
H68 C83 0.940 . S
H69 C85 0.939 . S
H70 C86 0.942 . S
H71 C88 0.940 . S
H72 C89 0.939 . S
H73 C91 0.941 . S
H74 C95 0.939 . S
O75 P64 1.490 . S
H76 C92 0.939 . S
H77 C94 0.940 . S
C78 P64 1.812 1_556 S
C78 C79 1.389 . S
C78 C83 1.391 . S
C79 H65 0.941 . S
C79 C78 1.389 . S
C79 C80 1.397 . S
C80 H66 0.939 . S
C80 C79 1.397 . S
C80 C81 1.378 . S
C81 C80 1.378 . S
C81 C82 1.378 . S
C82 H67 0.940 . S
C82 C81 1.378 . S
C82 C83 1.396 . S
C83 H68 0.940 . S
C83 C78 1.391 . S
C83 C82 1.396 . S
C84 P64 1.803 . S
C84 C85 1.378 . S
C84 C89 1.400 1_554 S
C85 H69 0.939 . S
C85 C84 1.378 . S
C85 C86 1.361 . S
C86 H70 0.942 . S
C86 C85 1.361 . S
C86 C87 1.369 . S
C87 C86 1.369 . S
C87 C88 1.404 1_554 S
C88 H71 0.940 . S
C88 C87 1.404 1_556 S
C88 C89 1.389 . S
C89 H72 0.939 . S
C89 C84 1.400 1_556 S
C89 C88 1.389 . S
C90 P64 1.819 . S
C90 C91 1.391 1_655 S
C90 C95 1.391 . S
C91 H73 0.941 . S
C91 C90 1.391 1_455 S
C91 C92 1.396 . S
C92 H76 0.939 . S
C92 C91 1.396 . S
C92 C93 1.397 1_455 S
C93 C92 1.397 1_655 S
C93 C94 1.385 . S
C94 H77 0.940 . S
C94 C93 1.385 . S
C94 C95 1.388 . S
C95 H74 0.939 . S
C95 C90 1.391 . S
C95 C94 1.388 . S
P96 O107 1.490 . S
P96 C110 1.812 . S
P96 C116 1.803 . S
P96 C122 1.819 . S
H97 C111 0.941 . S
H98 C112 0.939 . S
H99 C114 0.940 . S
H100 C115 0.940 . S
H101 C117 0.939 . S
H102 C118 0.942 1_565 S
H103 C120 0.940 . S
H104 C121 0.939 . S
H105 C123 0.941 . S
H106 C127 0.939 . S
O107 P96 1.490 . S
H108 C124 0.939 . S
H109 C126 0.940 . S
C110 P96 1.812 . S
C110 C111 1.389 . S
C110 C115 1.391 . S
C111 H97 0.941 . S
C111 C110 1.389 . S
C111 C112 1.397 . S
C112 H98 0.939 . S
C112 C111 1.397 . S
C112 C113 1.378 . S
C113 C112 1.378 . S
C113 C114 1.378 . S
C114 H99 0.940 . S
C114 C113 1.378 . S
C114 C115 1.396 . S
C115 H100 0.940 . S
C115 C110 1.391 . S
C115 C114 1.396 . S
C116 P96 1.803 . S
C116 C117 1.378 . S
C116 C121 1.400 . S
C117 H101 0.939 . S
C117 C116 1.378 . S
C117 C118 1.361 . S
C118 H102 0.942 1_545 S
C118 C117 1.361 . S
C118 C119 1.369 . S
C119 C118 1.369 . S
C119 C120 1.404 . S
C120 H103 0.940 . S
C120 C119 1.404 . S
C120 C121 1.389 . S
C121 H104 0.939 . S
C121 C116 1.400 . S
C121 C120 1.389 . S
C122 P96 1.819 . S
C122 C123 1.391 . S
C122 C127 1.391 . S
C123 H105 0.941 . S
C123 C122 1.391 . S
C123 C124 1.396 . S
C124 H108 0.939 . S
C124 C123 1.396 . S
C124 C125 1.397 . S
C125 C124 1.397 . S
C125 C126 1.385 . S
C126 H109 0.940 . S
C126 C125 1.385 . S
C126 C127 1.388 . S
C127 H106 0.939 . S
C127 C122 1.391 . S
C127 C126 1.388 . S
O128 Zn129 1.953 1_565 S
O128 C144 1.225 . S
Zn129 O128 1.953 1_545 S
Zn129 O130 1.949 1_655 S
Zn129 O136 1.919 . S
Zn129 O141 1.924 . S
O130 Zn129 1.949 1_455 S
O130 Zn131 1.923 . S
O130 Zn132 1.950 1_445 S
O130 Zn133 1.945 . S
Zn131 O130 1.923 . S
Zn131 O134 1.933 . S
Zn131 O137 1.941 . S
Zn131 O138 1.965 1_545 S
Zn132 O130 1.950 1_665 S
Zn132 O139 1.938 1_655 S
Zn132 O140 1.906 1_655 S
Zn132 O150 1.953 . S
Zn133 O130 1.945 . S
Zn133 O135 1.932 . S
Zn133 O142 1.977 1_545 S
Zn133 O143 1.910 1_455 S
O134 Zn131 1.933 . S
O134 C145 1.226 . S
O135 Zn133 1.932 . S
O135 C145 1.307 . S
O136 Zn129 1.919 . S
O136 C147 1.253 . S
O137 Zn131 1.941 . S
O137 C147 1.283 1_455 S
O138 Zn131 1.965 1_565 S
O138 C146 1.303 . S
O139 Zn132 1.938 1_455 S
O139 C146 1.247 . S
O140 Zn132 1.906 1_455 S
O140 C148 1.304 . S
O141 Zn129 1.924 . S
O141 C149 1.311 . S
O142 Zn133 1.977 1_565 S
O142 C148 1.272 . S
O143 Zn133 1.910 1_655 S
O143 C149 1.231 . S
C144 O128 1.225 . S
C144 O150 1.298 . S
C145 O134 1.226 . S
C145 O135 1.307 . S
C146 O138 1.303 . S
C146 O139 1.247 . S
C147 O136 1.253 . S
C147 O137 1.283 1_655 S
C148 O140 1.304 . S
C148 O142 1.272 . S
C149 O141 1.311 . S
C149 O143 1.231 . S
O150 Zn132 1.953 . S
O150 C144 1.298 . S
O151 Zn152 1.953 . S
O151 C167 1.225 1_556 S
Zn152 O151 1.953 . S
Zn152 O153 1.949 1_556 S
Zn152 O159 1.919 . S
Zn152 O164 1.924 1_556 S
O153 Zn152 1.949 1_554 S
O153 Zn154 1.923 1_554 S
O153 Zn155 1.950 . S
O153 Zn156 1.945 . S
Zn154 O153 1.923 1_556 S
Zn154 O157 1.933 . S
Zn154 O160 1.941 . S
Zn154 O161 1.965 . S
Zn155 O153 1.950 . S
Zn155 O162 1.938 1_554 S
Zn155 O163 1.906 . S
Zn155 O173 1.953 . S
Zn156 O153 1.945 . S
Zn156 O158 1.932 . S
Zn156 O165 1.977 . S
Zn156 O166 1.910 . S
O157 Zn154 1.933 . S
O157 C168 1.226 1_556 S
O158 Zn156 1.932 . S
O158 C168 1.307 . S
O159 Zn152 1.919 . S
O159 C170 1.253 . S
O160 Zn154 1.941 . S
O160 C170 1.283 . S
O161 Zn154 1.965 . S
O161 C169 1.303 . S
O162 Zn155 1.938 1_556 S
O162 C169 1.247 . S
O163 Zn155 1.906 . S
O163 C171 1.304 . S
O164 Zn152 1.924 1_554 S
O164 C172 1.311 . S
O165 Zn156 1.977 . S
O165 C171 1.272 . S
O166 Zn156 1.910 . S
O166 C172 1.231 . S
C167 O151 1.225 1_554 S
C167 O173 1.298 . S
C168 O157 1.226 1_554 S
C168 O158 1.307 . S
C169 O161 1.303 . S
C169 O162 1.247 . S
C170 O159 1.253 . S
C170 O160 1.283 . S
C171 O163 1.304 . S
C171 O165 1.272 . S
C172 O164 1.311 . S
C172 O166 1.231 . S
O173 Zn155 1.953 . S
O173 C167 1.298 . S
C145 C119 2.079 . S
C23 C168 1.672 . S
C55 C144 1.654 . S
C87 C167 2.040 . S
C148 C17 1.873 . S
C170 C61 1.638 . S
C93 C149 2.255 . S
C113 C169 1.787 . S
C172 C49 1.830 . S
C147 C81 1.944 . S
C171 C125 2.312 . S
C29 C146 1.515 . S
