# Generated by pormake.
# Topology tsx, (6,3)-cn, num edge types: 1
# Building blocks:
#     Node 0, Type 0, BuildingBlock: LEVNOQ01_clean_sbu_1, # of connection points: 6
#     Node 1, Type 0, BuildingBlock: LEVNOQ01_clean_sbu_1, # of connection points: 6
#     Node 2, Type 1, BuildingBlock: BETDIP_clean_linker_0, # of connection points: 3
#     Node 3, Type 1, BuildingBlock: BETDIP_clean_linker_0, # of connection points: 3
#     Node 4, Type 1, BuildingBlock: BETDIP_clean_linker_0, # of connection points: 3
#     Node 5, Type 1, BuildingBlock: BETDIP_clean_linker_0, # of connection points: 3
#     Edge 6, Type (0, 1), BuildingBlock: OJICUG_clean_linker_0, # of connection points: 2
#     Edge 7, Type (0, 1), BuildingBlock: OJICUG_clean_linker_0, # of connection points: 2
#     Edge 8, Type (0, 1), BuildingBlock: OJICUG_clean_linker_0, # of connection points: 2
#     Edge 9, Type (0, 1), BuildingBlock: OJICUG_clean_linker_0, # of connection points: 2
#     Edge 10, Type (0, 1), BuildingBlock: OJICUG_clean_linker_0, # of connection points: 2
#     Edge 11, Type (0, 1), BuildingBlock: OJICUG_clean_linker_0, # of connection points: 2
#     Edge 12, Type (0, 1), BuildingBlock: OJICUG_clean_linker_0, # of connection points: 2
#     Edge 13, Type (0, 1), BuildingBlock: OJICUG_clean_linker_0, # of connection points: 2
#     Edge 14, Type (0, 1), BuildingBlock: OJICUG_clean_linker_0, # of connection points: 2
#     Edge 15, Type (0, 1), BuildingBlock: OJICUG_clean_linker_0, # of connection points: 2
#     Edge 16, Type (0, 1), BuildingBlock: OJICUG_clean_linker_0, # of connection points: 2
#     Edge 17, Type (0, 1), BuildingBlock: OJICUG_clean_linker_0, # of connection points: 2
# Relax obj value: 0.102
# Max RMSD: 0.148
# Mean RMSD: 0.111
data_MOF--net-tsx--node1-LEVNOQ01_clean_sbu_1--node2-BETDIP_clean_linker_0--edge1-OJICUG_clean_linker_0
_symmetry_space_group_name_H-M    P1
_symmetry_Int_Tables_number       1
_symmetry_cell_setting            triclinic
loop_
_symmetry_equiv_pos_as_xyz
'x, y, z'
_cell_length_a     13.569845
_cell_length_b     16.989955
_cell_length_c     26.239831
_cell_angle_alpha  96.372678
_cell_angle_beta   104.49954
_cell_angle_gamma 90.566244
loop_
_atom_site_label
_atom_site_type_symbol
_atom_site_fract_x
_atom_site_fract_y
_atom_site_fract_z
_atom_type_partial_charge
O0 O 0.2631 0.01777 0.10183 0.0
Mg1 Mg 0.29013 0.01686 0.02672 0.0
O2 O 0.09712 -0.00031 0.06678 0.0
Mg3 Mg 0.06167 0.00344 -0.02493 0.0
O4 O 0.19825 0.09097 -0.01874 0.0
O5 O 0.36778 0.10927 0.01125 0.0
O6 O 0.02929 0.00752 0.88422 0.0
O7 O 0.97632 0.12474 -0.01639 0.0
Mg8 Mg 0.84685 -0.00201 0.93312 0.0
O9 O 0.92583 0.91236 -0.02719 0.0
O10 O 0.86271 0.01407 0.8574 0.0
O11 O 0.81689 0.09675 -0.01958 0.0
O12 O 0.75806 0.90289 0.93232 0.0
C13 C 0.23863 0.86183 -0.03377 0.0
C14 C 0.17396 0.00628 0.10702 0.0
C15 C 0.28093 0.1341 -0.0131 0.0
C16 C 0.94926 0.0144 0.84759 0.0
C17 C 0.88871 0.14763 -0.01247 0.0
C18 C 0.83726 0.87475 0.96205 0.0
O19 O 0.31353 0.90794 -0.01032 0.0
O20 O 0.14731 0.88484 0.95988 0.0
O21 O 0.75264 0.50976 0.59645 0.0
Mg22 Mg 0.77809 0.51315 0.52135 0.0
O23 O 0.58551 0.49565 0.56365 0.0
Mg24 Mg 0.54894 0.50192 0.47204 0.0
O25 O 0.68561 0.58991 0.479 0.0
O26 O 0.85548 0.60709 0.50767 0.0
O27 O 0.51774 0.50856 0.38153 0.0
O28 O 0.46365 0.62297 0.4822 0.0
Mg29 Mg 0.33367 0.49546 0.42748 0.0
O30 O 0.4123 0.41086 0.46857 0.0
O31 O 0.35127 0.51125 0.35206 0.0
O32 O 0.3021 0.59434 0.47395 0.0
O33 O 0.24527 0.4002 0.42661 0.0
C34 C 0.7242 0.36004 0.45967 0.0
C35 C 0.66416 0.49962 0.6029 0.0
C36 C 0.76831 0.63314 0.48488 0.0
C37 C 0.43902 0.51405 0.34386 0.0
C38 C 0.37474 0.6452 0.48428 0.0
C39 C 0.32393 0.37278 0.45724 0.0
O40 O 0.80004 0.40603 0.48162 0.0
O41 O 0.63336 0.38308 0.45554 0.0
H42 H 0.10697 0.96047 0.45976 0.0
H43 H 0.00397 0.04536 0.30822 0.0
H44 H 0.24946 0.88515 0.33435 0.0
H45 H 0.85151 0.05638 0.33245 0.0
C46 C 0.87982 0.0784 0.37413 0.0
C47 C 0.11214 0.96068 0.41938 0.0
C48 C 0.18646 0.91613 0.40165 0.0
C49 C 0.0436 0.00469 0.38535 0.0
C50 C 0.05282 0.00799 0.33375 0.0
C51 C 0.12843 0.96642 0.31565 0.0
C52 C 0.19436 0.92005 0.34948 0.0
N53 N 0.97014 0.04873 0.40518 0.0
H54 H 0.95569 -0.01812 0.48172 0.0
H55 H 0.08353 0.10182 0.63782 0.0
H56 H 0.84461 0.9235 0.61219 0.0
H57 H 0.21742 0.13119 0.60477 0.0
C58 C 0.18637 0.13266 0.56256 0.0
C59 C 0.95752 -0.00867 0.52309 0.0
C60 C 0.89094 0.94592 0.54214 0.0
C61 C 0.02931 0.04579 0.55703 0.0
C62 C 0.03069 0.0586 0.61104 0.0
C63 C 0.96129 0.0162 0.63042 0.0
C64 C 0.89258 0.95985 0.59598 0.0
N65 N 0.09697 0.08683 0.53472 0.0
H66 H 0.62394 0.46437 0.96096 0.0
H67 H 0.50952 0.54308 0.80825 0.0
H68 H 0.75122 0.37916 0.83161 0.0
H69 H 0.36114 0.55772 0.83653 0.0
C70 C 0.393 0.58118 0.87769 0.0
C71 C 0.62501 0.46211 0.91982 0.0
C72 C 0.69564 0.41496 0.90079 0.0
C73 C 0.555 0.50564 0.88619 0.0
C74 C 0.55927 0.50593 0.83354 0.0
C75 C 0.63155 0.46194 0.81408 0.0
C76 C 0.69869 0.41587 0.8476 0.0
N77 N 0.48525 0.55225 0.90736 0.0
H78 H 0.47162 0.4806 -0.01778 0.0
H79 H 0.58848 0.60391 0.13832 0.0
H80 H 0.34729 0.42676 0.10934 0.0
H81 H 0.72571 0.63363 0.1081 0.0
C82 C 0.69772 0.63367 0.06556 0.0
C83 C 0.46971 0.49138 0.02304 0.0
C84 C 0.40008 0.44715 0.04081 0.0
C85 C 0.53982 0.5463 0.05768 0.0
C86 C 0.53673 0.56053 0.11103 0.0
C87 C 0.46461 0.51904 0.12911 0.0
C88 C 0.39734 0.46246 0.094 0.0
N89 N 0.61043 0.58629 0.03665 0.0
C90 C 0.36119 0.24759 0.96036 0.0
C91 C 0.27849 0.21692 -0.02405 0.0
H92 H 0.4649 0.34525 -0.03137 0.0
C93 C 0.21798 0.26913 -0.00111 0.0
H94 H 0.40862 0.20826 0.94234 0.0
C95 C 0.25053 0.34859 0.01443 0.0
C96 C 0.34393 0.37608 0.00726 0.0
H97 H 0.15374 0.24671 0.01129 0.0
H98 H 0.20808 0.38607 0.03673 0.0
C99 C 0.39374 0.32657 -0.02415 0.0
C100 C 0.21296 0.74555 0.89551 0.0
C101 C 0.26182 0.78142 0.94655 0.0
H102 H 0.21779 0.65309 0.83319 0.0
C103 C 0.3464 0.74582 -0.02348 0.0
H104 H 0.14815 0.77247 0.87153 0.0
C105 C 0.38594 0.67879 0.95487 0.0
C106 C 0.34205 0.64564 0.90261 0.0
H107 H 0.38524 0.77219 0.0161 0.0
H108 H 0.45381 0.65551 -0.02151 0.0
C109 C 0.25328 0.67796 0.87355 0.0
C110 C 0.86542 0.79735 0.0401 0.0
C111 C 0.82159 0.80287 -0.01382 0.0
H112 H 0.85893 0.73901 0.10795 0.0
C113 C 0.74633 0.7463 0.95748 0.0
H114 H 0.9228 0.84092 0.06319 0.0
C115 C 0.71013 0.68872 -0.01721 0.0
C116 C 0.74765 0.68676 0.03757 0.0
H117 H 0.71145 0.74918 0.91582 0.0
H118 H 0.64919 0.64839 0.95966 0.0
C119 C 0.82822 0.7397 0.06572 0.0
C120 C 0.90733 0.27694 0.95299 0.0
C121 C 0.85971 0.23066 -0.01813 0.0
H122 H 0.89345 0.37243 0.90497 0.0
C123 C 0.76728 0.25532 -0.00792 0.0
H124 H 0.97832 0.25942 0.94413 0.0
C125 C 0.71763 0.31887 -0.03125 0.0
C126 C 0.75934 0.35974 0.93475 0.0
H127 H 0.72865 0.22097 0.01422 0.0
H128 H 0.64266 0.33138 -0.02594 0.0
C129 C 0.85751 0.34082 0.92957 0.0
C130 C 0.70799 0.76814 0.50105 0.0
C131 C 0.76602 0.71679 0.47581 0.0
H132 H 0.70113 0.88393 0.54133 0.0
C133 C 0.84708 0.74821 0.45922 0.0
H134 H 0.64514 0.74508 0.51431 0.0
C135 C 0.88049 0.82687 0.47548 0.0
C136 C 0.83332 0.87533 0.50874 0.0
H137 H 0.89269 0.70952 0.43952 0.0
H138 H 0.95042 0.84608 0.46713 0.0
C139 C 0.7415 0.84726 0.51745 0.0
C140 C 0.82659 0.24163 0.47198 0.0
C141 C 0.74577 0.27907 0.44047 0.0
H142 H 0.93168 0.14932 0.47604 0.0
C143 C 0.70077 0.24476 0.38854 0.0
H144 H 0.86246 0.26704 0.51222 0.0
C145 C 0.74164 0.17684 0.36736 0.0
C146 C 0.82709 0.14266 0.39809 0.0
H147 H 0.63907 0.27328 0.36339 0.0
H148 H 0.70959 0.15328 0.32636 0.0
C149 C 0.86657 0.17415 0.45113 0.0
C150 C 0.23022 0.24582 0.45371 0.0
C151 C 0.30769 0.30124 0.48165 0.0
H152 H 0.13179 0.14932 0.45697 0.0
C153 C 0.35407 0.29476 0.53518 0.0
H154 H 0.1934 0.24927 0.41234 0.0
C155 C 0.31753 0.23733 0.56123 0.0
C156 C 0.23493 0.18566 0.53392 0.0
H157 H 0.41328 0.33732 0.55772 0.0
H158 H 0.35052 0.23582 0.6032 0.0
C159 C 0.19448 0.18862 0.47946 0.0
C160 C 0.39702 0.77766 0.45462 0.0
C161 C 0.34675 0.72885 0.48085 0.0
H162 H 0.38646 0.87626 0.40942 0.0
C163 C 0.25277 0.75205 0.48972 0.0
H164 H 0.46931 0.76133 0.44689 0.0
C165 C 0.20418 0.81656 0.4672 0.0
C166 C 0.24868 0.86004 0.43551 0.0
H167 H 0.21212 0.71575 0.50985 0.0
H168 H 0.12795 0.8277 0.47107 0.0
C169 C 0.34836 0.84264 0.43212 0.0
C170 C 0.06426 -0.01891 0.168 0.0
C171 C 0.16101 -0.0035 0.16023 0.0
H172 H 0.9783 0.95811 0.22335 0.0
C173 C 0.24688 -0.00023 0.20371 0.0
H174 H -0.00323 0.9775 0.13527 0.0
C175 C 0.23632 -0.01172 0.25386 0.0
C176 C 0.13969 0.97364 0.26173 0.0
H177 H 0.32268 0.01123 0.19916 0.0
H178 H 0.30364 -0.00749 0.28673 0.0
C179 C 0.05371 0.96992 0.21835 0.0
C180 C 0.04917 0.01774 0.77908 0.0
C181 C 0.95569 0.02222 0.79305 0.0
H182 H 0.12439 0.01307 0.71597 0.0
C183 C 0.86644 0.0327 0.75388 0.0
H184 H 0.1193 0.01029 0.80849 0.0
C185 C 0.86964 0.03475 0.7015 0.0
C186 C 0.96204 0.02653 0.68707 0.0
H187 H 0.79331 0.03751 0.76333 0.0
H188 H 0.79921 0.0406 0.67187 0.0
C189 C 0.05232 0.02001 0.72637 0.0
C190 C 0.74216 0.49051 0.69876 0.0
C191 C 0.65424 0.48913 0.65657 0.0
H192 H 0.80361 0.48273 0.78134 0.0
C193 C 0.55857 0.47565 0.66618 0.0
H194 H 0.81725 0.50042 0.69281 0.0
C195 C 0.55111 0.46498 0.71716 0.0
C196 C 0.63916 0.46729 0.75931 0.0
H197 H 0.48956 0.47348 0.63445 0.0
H198 H 0.47646 0.455 0.72366 0.0
C199 C 0.73467 0.47957 0.74949 0.0
C200 C 0.36122 0.53406 0.24987 0.0
C201 C 0.44873 0.52334 0.29006 0.0
H202 H 0.29859 0.543 0.16756 0.0
C203 C 0.54386 0.51997 0.27783 0.0
H204 H 0.28693 0.53815 0.25804 0.0
C205 C 0.55034 0.52317 0.22572 0.0
C206 C 0.4618 0.52966 0.18528 0.0
H207 H 0.61273 0.51241 0.30807 0.0
H208 H 0.62365 0.51672 0.21663 0.0
C209 C 0.36775 0.53719 0.19808 0.0
loop_
_geom_bond_atom_site_label_1
_geom_bond_atom_site_label_2
_geom_bond_distance
_geom_bond_site_symmetry_2
_ccdc_geom_bond_type
O0 Mg1 1.990 . S
O0 C14 1.253 . S
Mg1 O0 1.990 . S
Mg1 O4 2.180 . S
Mg1 O5 2.117 . S
Mg1 O19 2.030 1_545 S
O2 Mg3 2.065 1_554 S
O2 C14 1.260 . S
Mg3 O2 2.065 1_556 S
Mg3 O4 2.098 1_556 S
Mg3 O6 2.086 . S
Mg3 O7 2.072 1_456 S
Mg3 O9 2.099 1_445 S
Mg3 O20 2.079 1_545 S
O4 Mg1 2.180 . S
O4 Mg3 2.098 1_554 S
O4 C15 1.279 . S
O5 Mg1 2.117 . S
O5 C15 1.250 . S
O6 Mg3 2.086 . S
O6 C16 1.264 . S
O7 Mg3 2.072 1_654 S
O7 C17 1.260 1_554 S
Mg8 O9 2.180 . S
Mg8 O10 2.030 1_565 S
Mg8 O11 1.990 1_565 S
Mg8 O12 2.117 . S
O9 Mg3 2.099 1_665 S
O9 Mg8 2.180 . S
O9 C18 1.279 . S
O10 Mg8 2.030 1_545 S
O10 C16 1.248 1_655 S
O11 Mg8 1.990 1_545 S
O11 C17 1.253 . S
O12 Mg8 2.117 . S
O12 C18 1.250 . S
C13 O19 1.248 . S
C13 O20 1.264 1_554 S
C14 O0 1.253 . S
C14 O2 1.260 . S
C15 O4 1.279 . S
C15 O5 1.250 . S
C16 O6 1.264 . S
C16 O10 1.248 1_455 S
C17 O7 1.260 1_556 S
C17 O11 1.253 . S
C18 O9 1.279 . S
C18 O12 1.250 . S
O19 Mg1 2.030 1_565 S
O19 C13 1.248 . S
O20 Mg3 2.079 1_565 S
O20 C13 1.264 1_556 S
O21 Mg22 1.990 . S
O21 C35 1.253 . S
Mg22 O21 1.990 . S
Mg22 O25 2.180 . S
Mg22 O26 2.117 . S
Mg22 O40 2.030 . S
O23 Mg24 2.072 . S
O23 C35 1.260 . S
Mg24 O23 2.072 . S
Mg24 O25 2.099 . S
Mg24 O27 2.079 . S
Mg24 O28 2.072 . S
Mg24 O30 2.099 . S
Mg24 O41 2.079 . S
O25 Mg22 2.180 . S
O25 Mg24 2.099 . S
O25 C36 1.279 . S
O26 Mg22 2.117 . S
O26 C36 1.250 . S
O27 Mg24 2.079 . S
O27 C37 1.264 . S
O28 Mg24 2.072 . S
O28 C38 1.260 . S
Mg29 O30 2.180 . S
Mg29 O31 2.030 . S
Mg29 O32 1.990 . S
Mg29 O33 2.117 . S
O30 Mg24 2.099 . S
O30 Mg29 2.180 . S
O30 C39 1.279 . S
O31 Mg29 2.030 . S
O31 C37 1.248 . S
O32 Mg29 1.990 . S
O32 C38 1.253 . S
O33 Mg29 2.117 . S
O33 C39 1.250 . S
C34 O40 1.248 . S
C34 O41 1.264 . S
C35 O21 1.253 . S
C35 O23 1.260 . S
C36 O25 1.279 . S
C36 O26 1.250 . S
C37 O27 1.264 . S
C37 O31 1.248 . S
C38 O28 1.260 . S
C38 O32 1.253 . S
C39 O30 1.279 . S
C39 O33 1.250 . S
O40 Mg22 2.030 . S
O40 C34 1.248 . S
O41 Mg24 2.079 . S
O41 C34 1.264 . S
H42 C47 0.930 . S
H43 C50 0.930 . S
H44 C52 0.930 . S
H45 C46 1.016 . S
C46 H45 1.016 . S
C46 N53 1.286 . S
C47 H42 0.930 . S
C47 C48 1.397 . S
C47 C49 1.361 1_565 S
C48 C47 1.397 . S
C48 C52 1.390 . S
C49 C47 1.361 1_545 S
C49 C50 1.393 . S
C49 N53 1.413 1_455 S
C50 H43 0.930 . S
C50 C49 1.393 . S
C50 C51 1.399 1_545 S
C51 C50 1.399 1_565 S
C51 C52 1.381 . S
C52 H44 0.930 . S
C52 C48 1.390 . S
C52 C51 1.381 . S
N53 C46 1.286 . S
N53 C49 1.413 1_655 S
H54 C59 0.930 1_565 S
H55 C62 0.930 . S
H56 C64 0.930 . S
H57 C58 1.016 . S
C58 H57 1.016 . S
C58 N65 1.286 . S
C59 H54 0.930 1_545 S
C59 C60 1.397 1_545 S
C59 C61 1.361 1_655 S
C60 C59 1.397 1_565 S
C60 C64 1.390 . S
C61 C59 1.361 1_455 S
C61 C62 1.393 . S
C61 N65 1.413 . S
C62 H55 0.930 . S
C62 C61 1.393 . S
C62 C63 1.399 1_455 S
C63 C62 1.399 1_655 S
C63 C64 1.381 1_545 S
C64 H56 0.930 . S
C64 C60 1.390 . S
C64 C63 1.381 1_565 S
N65 C58 1.286 . S
N65 C61 1.413 . S
H66 C71 0.930 1_554 S
H67 C74 0.930 . S
H68 C76 0.930 . S
H69 C70 1.016 . S
C70 H69 1.016 . S
C70 N77 1.286 . S
C71 H66 0.930 1_556 S
C71 C72 1.397 . S
C71 C73 1.361 . S
C72 C71 1.397 . S
C72 C76 1.390 . S
C73 C71 1.361 . S
C73 C74 1.393 . S
C73 N77 1.413 . S
C74 H67 0.930 . S
C74 C73 1.393 . S
C74 C75 1.399 . S
C75 C74 1.399 . S
C75 C76 1.381 . S
C76 H68 0.930 . S
C76 C72 1.390 . S
C76 C75 1.381 . S
N77 C70 1.286 . S
N77 C73 1.413 . S
H78 C83 0.930 1_556 S
H79 C86 0.930 . S
H80 C88 0.930 . S
H81 C82 1.016 . S
C82 H81 1.016 . S
C82 N89 1.286 . S
C83 H78 0.930 1_554 S
C83 C84 1.397 . S
C83 C85 1.361 . S
C84 C83 1.397 . S
C84 C88 1.390 . S
C85 C83 1.361 . S
C85 C86 1.393 . S
C85 N89 1.413 . S
C86 H79 0.930 . S
C86 C85 1.393 . S
C86 C87 1.399 . S
C87 C86 1.399 . S
C87 C88 1.381 . S
C88 H80 0.930 . S
C88 C84 1.390 . S
C88 C87 1.381 . S
N89 C82 1.286 . S
N89 C85 1.413 . S
C90 C91 1.387 . S
C90 H94 0.950 . S
C90 C99 1.390 . S
C91 C90 1.387 . S
C91 C93 1.380 1_554 S
H92 C99 0.950 . S
C93 C91 1.380 1_556 S
C93 C95 1.393 1_556 S
C93 H97 0.955 . S
H94 C90 0.950 . S
C95 C93 1.393 1_554 S
C95 C96 1.387 . S
C95 H98 0.950 1_554 S
C96 C95 1.387 . S
C96 C99 1.387 . S
H97 C93 0.955 . S
H98 C95 0.950 1_556 S
C99 C90 1.390 . S
C99 H92 0.950 . S
C99 C96 1.387 . S
C100 C101 1.387 1_556 S
C100 H104 0.950 . S
C100 C109 1.390 . S
C101 C100 1.387 1_554 S
C101 C103 1.387 . S
H102 C109 0.950 . S
C103 C101 1.387 . S
C103 C105 1.390 . S
C103 H107 0.950 . S
H104 C100 0.950 . S
C105 C103 1.390 . S
C105 C106 1.387 . S
C105 H108 0.950 . S
C106 C105 1.387 . S
C106 C109 1.387 1_554 S
H107 C103 0.950 . S
H108 C105 0.950 . S
C109 C100 1.390 . S
C109 H102 0.950 . S
C109 C106 1.387 1_556 S
C110 C111 1.387 . S
C110 H114 0.950 . S
C110 C119 1.390 . S
C111 C110 1.387 . S
C111 C113 1.387 . S
H112 C119 0.950 . S
C113 C111 1.387 . S
C113 C115 1.390 . S
C113 H117 0.954 . S
H114 C110 0.950 . S
C115 C113 1.390 . S
C115 C116 1.387 . S
C115 H118 0.950 . S
C116 C115 1.387 . S
C116 C119 1.387 . S
H117 C113 0.954 . S
H118 C115 0.950 . S
C119 C110 1.390 . S
C119 H112 0.950 . S
C119 C116 1.387 . S
C120 C121 1.387 . S
C120 H124 0.950 . S
C120 C129 1.390 . S
C121 C120 1.387 . S
C121 C123 1.387 1_556 S
H122 C129 0.950 . S
C123 C121 1.387 1_554 S
C123 C125 1.390 . S
C123 H127 0.950 . S
H124 C120 0.950 . S
C125 C123 1.390 . S
C125 C126 1.387 1_554 S
C125 H128 0.950 . S
C126 C125 1.387 1_556 S
C126 C129 1.387 . S
H127 C123 0.950 . S
H128 C125 0.950 . S
C129 C120 1.390 . S
C129 H122 0.950 . S
C129 C126 1.387 . S
C130 C131 1.387 . S
C130 H134 0.950 . S
C130 C139 1.390 . S
C131 C130 1.387 . S
C131 C133 1.387 . S
H132 C139 0.950 . S
C133 C131 1.387 . S
C133 C135 1.390 . S
C133 H137 0.950 . S
H134 C130 0.950 . S
C135 C133 1.390 . S
C135 C136 1.387 . S
C135 H138 0.950 . S
C136 C135 1.387 . S
C136 C139 1.387 . S
H137 C133 0.950 . S
H138 C135 0.950 . S
C139 C130 1.390 . S
C139 H132 0.950 . S
C139 C136 1.387 . S
C140 C141 1.387 . S
C140 H144 0.950 . S
C140 C149 1.390 . S
C141 C140 1.387 . S
C141 C143 1.387 . S
H142 C149 0.950 . S
C143 C141 1.387 . S
C143 C145 1.390 . S
C143 H147 0.950 . S
H144 C140 0.950 . S
C145 C143 1.390 . S
C145 C146 1.387 . S
C145 H148 0.950 . S
C146 C145 1.387 . S
C146 C149 1.387 . S
H147 C143 0.950 . S
H148 C145 0.950 . S
C149 C140 1.390 . S
C149 H142 0.950 . S
C149 C146 1.387 . S
C150 C151 1.387 . S
C150 H154 0.950 . S
C150 C159 1.390 . S
C151 C150 1.387 . S
C151 C153 1.387 . S
H152 C159 0.950 . S
C153 C151 1.387 . S
C153 C155 1.390 . S
C153 H157 0.950 . S
H154 C150 0.950 . S
C155 C153 1.390 . S
C155 C156 1.387 . S
C155 H158 0.950 . S
C156 C155 1.387 . S
C156 C159 1.387 . S
H157 C153 0.950 . S
H158 C155 0.950 . S
C159 C150 1.390 . S
C159 H152 0.950 . S
C159 C156 1.387 . S
C160 C161 1.387 . S
C160 H164 0.950 . S
C160 C169 1.390 . S
C161 C160 1.387 . S
C161 C163 1.387 . S
H162 C169 0.950 . S
C163 C161 1.387 . S
C163 C165 1.390 . S
C163 H167 0.950 . S
H164 C160 0.950 . S
C165 C163 1.390 . S
C165 C166 1.387 . S
C165 H168 0.950 . S
C166 C165 1.387 . S
C166 C169 1.387 . S
H167 C163 0.950 . S
H168 C165 0.950 . S
C169 C160 1.390 . S
C169 H162 0.950 . S
C169 C166 1.387 . S
C170 C171 1.394 . S
C170 H174 0.950 1_455 S
C170 C179 1.390 . S
C171 C170 1.394 . S
C171 C173 1.384 1_565 S
H172 C179 0.950 1_655 S
C173 C171 1.384 1_545 S
C173 C175 1.390 . S
C173 H177 0.950 . S
H174 C170 0.950 1_655 S
C175 C173 1.390 . S
C175 C176 1.387 1_545 S
C175 H178 0.950 . S
C176 C175 1.387 1_565 S
C176 C179 1.387 . S
H177 C173 0.950 . S
H178 C175 0.950 . S
C179 C170 1.390 . S
C179 H172 0.950 1_455 S
C179 C176 1.387 . S
C180 C181 1.387 1_665 S
C180 H184 0.950 . S
C180 C189 1.390 . S
C181 C180 1.387 1_445 S
C181 C183 1.387 . S
H182 C189 0.950 . S
C183 C181 1.387 . S
C183 C185 1.390 . S
C183 H187 0.950 . S
H184 C180 0.950 . S
C185 C183 1.390 . S
C185 C186 1.387 1_455 S
C185 H188 0.950 . S
C186 C185 1.387 1_655 S
C186 C189 1.387 1_545 S
H187 C183 0.950 . S
H188 C185 0.950 . S
C189 C180 1.390 . S
C189 H182 0.950 . S
C189 C186 1.387 1_565 S
C190 C191 1.387 . S
C190 H194 0.950 . S
C190 C199 1.390 . S
C191 C190 1.387 . S
C191 C193 1.387 . S
H192 C199 0.950 . S
C193 C191 1.387 . S
C193 C195 1.390 . S
C193 H197 0.950 . S
H194 C190 0.950 . S
C195 C193 1.390 . S
C195 C196 1.387 . S
C195 H198 0.950 . S
C196 C195 1.387 . S
C196 C199 1.387 . S
H197 C193 0.950 . S
H198 C195 0.950 . S
C199 C190 1.390 . S
C199 H192 0.950 . S
C199 C196 1.387 . S
C200 C201 1.387 . S
C200 H204 0.950 . S
C200 C209 1.390 . S
C201 C200 1.387 . S
C201 C203 1.387 . S
H202 C209 0.950 . S
C203 C201 1.387 . S
C203 C205 1.390 . S
C203 H207 0.950 . S
H204 C200 0.950 . S
C205 C203 1.390 . S
C205 C206 1.387 . S
C205 H208 0.950 . S
C206 C205 1.387 . S
C206 C209 1.387 . S
H207 C203 0.950 . S
H208 C205 0.950 . S
C209 C200 1.390 . S
C209 H202 0.950 . S
C209 C206 1.387 . S
C96 C84 1.473 . S
C91 C15 1.374 . S
C101 C13 1.471 . S
C106 C70 1.435 1_554 S
C111 C18 1.278 1_554 S
C116 C82 1.452 . S
C121 C17 1.443 . S
C126 C72 1.474 . S
C131 C36 1.377 . S
C136 C60 1.471 . S
C141 C34 1.469 . S
C146 C46 1.435 . S
C156 C58 1.450 . S
C151 C39 1.274 . S
C166 C48 1.474 . S
C161 C38 1.443 . S
C171 C14 1.571 1_565 S
C176 C51 1.617 . S
C181 C16 1.402 . S
C186 C63 1.433 . S
C196 C75 1.617 . S
C191 C35 1.575 . S
C201 C37 1.399 . S
C206 C87 1.433 . S
