# Generated by pormake.
# Topology tsx, (6,3)-cn, num edge types: 1
# Building blocks:
#     Node 0, Type 0, BuildingBlock: LEVNOQ01_clean_sbu_1, # of connection points: 6
#     Node 1, Type 0, BuildingBlock: LEVNOQ01_clean_sbu_1, # of connection points: 6
#     Node 2, Type 1, BuildingBlock: CUQRIR_clean_linker_1, # of connection points: 3
#     Node 3, Type 1, BuildingBlock: CUQRIR_clean_linker_1, # of connection points: 3
#     Node 4, Type 1, BuildingBlock: CUQRIR_clean_linker_1, # of connection points: 3
#     Node 5, Type 1, BuildingBlock: CUQRIR_clean_linker_1, # of connection points: 3
#     Edge 6, Type (0, 1), None
#     Edge 7, Type (0, 1), None
#     Edge 8, Type (0, 1), None
#     Edge 9, Type (0, 1), None
#     Edge 10, Type (0, 1), None
#     Edge 11, Type (0, 1), None
#     Edge 12, Type (0, 1), None
#     Edge 13, Type (0, 1), None
#     Edge 14, Type (0, 1), None
#     Edge 15, Type (0, 1), None
#     Edge 16, Type (0, 1), None
#     Edge 17, Type (0, 1), None
# Relax obj value: 0.174
# Max RMSD: 0.161
# Mean RMSD: 0.155
data_MOF--net-tsx--node1-LEVNOQ01_clean_sbu_1--node2-CUQRIR_clean_linker_1--edge1-none
_symmetry_space_group_name_H-M    P1
_symmetry_Int_Tables_number       1
_symmetry_cell_setting            triclinic
loop_
_symmetry_equiv_pos_as_xyz
'x, y, z'
_cell_length_a     8.0788428
_cell_length_b     7.5018997
_cell_length_c     15.463404
_cell_angle_alpha  75.350528
_cell_angle_beta   91.720768
_cell_angle_gamma 90.414031
loop_
_atom_site_label
_atom_site_type_symbol
_atom_site_fract_x
_atom_site_fract_y
_atom_site_fract_z
_atom_type_partial_charge
O0 O 0.05945 1.03245 0.1382 0.0
Mg1 Mg 0.15872 1.09107 0.01091 0.0
O2 O 0.90703 0.26783 0.06956 0.0
Mg3 Mg -0.0407 0.20019 -0.06835 0.0
O4 O 0.18133 0.38794 -0.02521 0.0
O5 O 0.37676 0.20611 0.04952 0.0
O6 O 0.04956 0.20235 0.77981 0.0
O7 O 0.74401 0.4659 0.82914 0.0
Mg8 Mg 0.75729 0.17997 -0.07836 0.0
O9 O 0.75313 0.91128 -0.0289 0.0
O10 O 0.79019 0.20667 0.7663 0.0
O11 O 0.52464 0.30386 0.87567 0.0
O12 O 0.6424 1.05143 0.05886 0.0
C13 C 0.23246 0.92352 0.86514 0.0
C14 C -0.01687 0.17834 0.1408 0.0
C15 C 0.32391 0.36984 0.01805 0.0
C16 C -0.07297 0.23348 0.7249 0.0
C17 C 0.58127 0.45066 0.82674 0.0
C18 C 0.65561 0.89904 0.0392 0.0
O19 O 0.24377 0.8734 -0.05041 0.0
O20 O 0.14269 1.06723 0.83201 0.0
O21 O 0.55945 0.53245 0.6382 0.0
Mg22 Mg 0.65872 0.59107 0.51091 0.0
O23 O 0.40703 0.76783 0.56956 0.0
Mg24 Mg 0.4593 0.70019 0.43165 0.0
O25 O 0.68133 0.88794 0.47479 0.0
O26 O 0.87676 0.70611 0.54952 0.0
O27 O 0.54956 0.70235 0.27981 0.0
O28 O 0.24401 0.9659 0.32914 0.0
Mg29 Mg 0.25729 0.67997 0.42164 0.0
O30 O 0.25313 0.41128 0.4711 0.0
O31 O 0.29019 0.70667 0.2663 0.0
O32 O 0.02464 0.80387 0.37567 0.0
O33 O 0.1424 0.55143 0.55886 0.0
C34 C 0.73246 0.42352 0.36514 0.0
C35 C 0.48313 0.67834 0.6408 0.0
C36 C 0.82391 0.86984 0.51805 0.0
C37 C 0.42703 0.73348 0.2249 0.0
C38 C 0.08127 0.95066 0.32674 0.0
C39 C 0.15561 0.39904 0.5392 0.0
O40 O 0.74377 0.3734 0.44959 0.0
O41 O 0.64269 0.56723 0.33201 0.0
C42 C 0.83626 0.14027 0.33509 0.0
N43 N -0.02581 0.10042 0.29559 0.0
N44 N 0.81062 0.3244 0.31316 0.0
C45 C 0.68726 1.04272 0.30881 0.0
C46 C 0.88822 0.37535 0.23365 0.0
N47 N -0.02307 0.22967 0.21963 0.0
C48 C 0.92156 0.57196 0.1876 0.0
H49 H 0.57268 1.07453 0.33994 0.0
H50 H 0.71975 0.89651 0.32588 0.0
H51 H 0.66316 1.08515 0.2353 0.0
H52 H -0.00986 0.63689 0.23457 0.0
H53 H 0.80381 0.64691 0.17233 0.0
H54 H -0.00472 0.58489 0.127 0.0
C55 C 0.02915 0.11578 0.52742 0.0
N56 N 0.05148 0.24434 0.57432 0.0
N57 N 0.89026 1.01218 0.54979 0.0
C58 C 0.17413 1.05182 0.4889 0.0
C59 C 0.85505 1.04655 0.62855 0.0
N60 N -0.06271 0.19938 0.64052 0.0
C61 C 0.82126 0.88457 0.70825 0.0
H62 H 0.19075 0.14688 0.42288 0.0
H63 H 0.16107 0.90526 0.49201 0.0
H64 H 0.28746 1.06912 0.52706 0.0
H65 H 0.79281 0.75516 0.6899 0.0
H66 H 0.7225 0.9138 0.75007 0.0
H67 H -0.06576 0.85669 0.75196 0.0
C68 C 0.33626 0.64027 0.83509 0.0
N69 N 0.47419 0.60042 0.79559 0.0
N70 N 0.31062 0.8244 0.81316 0.0
C71 C 0.18726 0.54271 0.80881 0.0
C72 C 0.38822 0.87535 0.73365 0.0
N73 N 0.47693 0.72967 0.71963 0.0
C74 C 0.42156 1.07196 0.6876 0.0
H75 H 0.07268 0.57453 0.83994 0.0
H76 H 0.21975 0.3965 0.82588 0.0
H77 H 0.16316 0.58515 0.7353 0.0
H78 H 0.49014 0.13689 0.73457 0.0
H79 H 0.30381 0.1469 0.67233 0.0
H80 H 0.49528 1.08489 0.627 0.0
C81 C 0.52915 0.61578 0.02742 0.0
N82 N 0.55148 0.74434 0.07432 0.0
N83 N 0.39026 0.51218 0.04979 0.0
C84 C 0.67413 0.55182 -0.0111 0.0
C85 C 0.35505 0.54655 0.12855 0.0
N86 N 0.43729 0.69938 0.14052 0.0
C87 C 0.32126 0.38457 0.20825 0.0
H88 H 0.69075 0.64688 -0.07712 0.0
H89 H 0.66107 0.40526 -0.00799 0.0
H90 H 0.78746 0.56912 0.02706 0.0
H91 H 0.29281 0.25516 0.1899 0.0
H92 H 0.2225 0.4138 0.25007 0.0
H93 H 0.43424 0.35669 0.25196 0.0
loop_
_geom_bond_atom_site_label_1
_geom_bond_atom_site_label_2
_geom_bond_distance
_geom_bond_site_symmetry_2
_ccdc_geom_bond_type
O0 Mg1 1.990 . S
O0 C14 1.253 . S
Mg1 O0 1.990 . S
Mg1 O4 2.180 . S
Mg1 O5 2.117 . S
Mg1 O19 2.030 1_545 S
O2 Mg3 2.072 1_565 S
O2 C14 1.260 1_565 S
Mg3 O2 2.072 1_545 S
Mg3 O4 2.099 . S
Mg3 O6 2.079 1_554 S
Mg3 O7 2.072 1_455 S
Mg3 O9 2.099 1_444 S
Mg3 O20 2.079 1_544 S
O4 Mg1 2.180 . S
O4 Mg3 2.099 . S
O4 C15 1.279 . S
O5 Mg1 2.117 . S
O5 C15 1.250 . S
O6 Mg3 2.079 1_556 S
O6 C16 1.264 1_455 S
O7 Mg3 2.072 1_655 S
O7 C17 1.260 1_554 S
Mg8 O9 2.180 1_545 S
Mg8 O10 2.030 . S
Mg8 O11 1.990 . S
Mg8 O12 2.117 1_545 S
O9 Mg3 2.099 1_666 S
O9 Mg8 2.180 1_565 S
O9 C18 1.279 1_556 S
O10 Mg8 2.030 . S
O10 C16 1.248 . S
O11 Mg8 1.990 . S
O11 C17 1.253 . S
O12 Mg8 2.117 1_565 S
O12 C18 1.250 1_556 S
C13 O19 1.248 . S
C13 O20 1.264 1_554 S
C14 O0 1.253 . S
C14 O2 1.260 1_545 S
C15 O4 1.279 . S
C15 O5 1.250 . S
C16 O6 1.264 1_655 S
C16 O10 1.248 . S
C17 O7 1.260 1_556 S
C17 O11 1.253 . S
C18 O9 1.279 1_554 S
C18 O12 1.250 1_554 S
O19 Mg1 2.030 1_565 S
O19 C13 1.248 . S
O20 Mg3 2.079 1_566 S
O20 C13 1.264 1_556 S
O21 Mg22 1.990 . S
O21 C35 1.253 . S
Mg22 O21 1.990 . S
Mg22 O25 2.180 . S
Mg22 O26 2.117 . S
Mg22 O40 2.030 . S
O23 Mg24 2.072 . S
O23 C35 1.260 . S
Mg24 O23 2.072 . S
Mg24 O25 2.099 . S
Mg24 O27 2.079 . S
Mg24 O28 2.072 . S
Mg24 O30 2.099 . S
Mg24 O41 2.079 . S
O25 Mg22 2.180 . S
O25 Mg24 2.099 . S
O25 C36 1.279 . S
O26 Mg22 2.117 . S
O26 C36 1.250 . S
O27 Mg24 2.079 . S
O27 C37 1.264 . S
O28 Mg24 2.072 . S
O28 C38 1.260 . S
Mg29 O30 2.180 . S
Mg29 O31 2.030 . S
Mg29 O32 1.990 . S
Mg29 O33 2.117 . S
O30 Mg24 2.099 . S
O30 Mg29 2.180 . S
O30 C39 1.279 . S
O31 Mg29 2.030 . S
O31 C37 1.248 . S
O32 Mg29 1.990 . S
O32 C38 1.253 . S
O33 Mg29 2.117 . S
O33 C39 1.250 . S
C34 O40 1.248 . S
C34 O41 1.264 . S
C35 O21 1.253 . S
C35 O23 1.260 . S
C36 O25 1.279 . S
C36 O26 1.250 . S
C37 O27 1.264 . S
C37 O31 1.248 . S
C38 O28 1.260 . S
C38 O32 1.253 . S
C39 O30 1.279 . S
C39 O33 1.250 . S
O40 Mg22 2.030 . S
O40 C34 1.248 . S
O41 Mg24 2.079 . S
O41 C34 1.264 . S
C42 N43 1.317 1_545 S
C42 N44 1.348 1_455 S
C42 C45 1.485 1_545 S
N43 C42 1.317 1_565 S
N43 N47 1.370 1_565 S
N44 C42 1.348 1_655 S
N44 C46 1.346 . S
C45 C42 1.485 1_565 S
C45 H49 0.960 . S
C45 H50 0.961 1_565 S
C45 H51 0.960 . S
C46 N44 1.346 . S
C46 N47 1.307 1_655 S
C46 C48 1.486 . S
N47 N43 1.370 1_545 S
N47 C46 1.307 1_455 S
C48 C46 1.486 . S
C48 H52 0.960 . S
C48 H53 0.960 . S
C48 H54 0.959 . S
H49 C45 0.960 . S
H50 C45 0.961 1_545 S
H51 C45 0.960 . S
H52 C48 0.960 . S
H53 C48 0.960 . S
H54 C48 0.959 . S
C55 N56 1.317 . S
C55 N57 1.348 1_455 S
C55 C58 1.485 . S
N56 C55 1.317 . S
N56 N60 1.370 . S
N57 C55 1.348 1_655 S
N57 C59 1.346 . S
C58 C55 1.485 . S
C58 H62 0.960 1_455 S
C58 H63 0.961 . S
C58 H64 0.960 . S
C59 N57 1.346 . S
C59 N60 1.307 1_655 S
C59 C61 1.486 1_545 S
N60 N56 1.370 . S
N60 C59 1.307 1_455 S
C61 C59 1.486 1_565 S
C61 H65 0.960 . S
C61 H66 0.960 . S
C61 H67 0.959 . S
H62 C58 0.960 1_655 S
H63 C58 0.961 . S
H64 C58 0.960 . S
H65 C61 0.960 . S
H66 C61 0.960 . S
H67 C61 0.959 . S
C68 N69 1.317 1_554 S
C68 N70 1.348 . S
C68 C71 1.485 . S
N69 C68 1.317 1_556 S
N69 N73 1.370 . S
N70 C68 1.348 . S
N70 C72 1.346 1_554 S
C71 C68 1.485 . S
C71 H75 0.960 . S
C71 H76 0.961 . S
C71 H77 0.960 . S
C72 N70 1.346 1_556 S
C72 N73 1.307 . S
C72 C74 1.486 . S
N73 N69 1.370 . S
N73 C72 1.307 . S
C74 C72 1.486 . S
C74 H78 0.960 . S
C74 H79 0.960 . S
C74 H80 0.959 . S
H75 C71 0.960 . S
H76 C71 0.961 . S
H77 C71 0.960 . S
H78 C74 0.960 . S
H79 C74 0.960 . S
H80 C74 0.959 . S
C81 N82 1.317 1_556 S
C81 N83 1.348 1_556 S
C81 C84 1.485 . S
N82 C81 1.317 1_554 S
N82 N86 1.370 . S
N83 C81 1.348 1_554 S
N83 C85 1.346 . S
C84 C81 1.485 . S
C84 H88 0.960 . S
C84 H89 0.961 . S
C84 H90 0.960 . S
C85 N83 1.346 . S
C85 N86 1.307 . S
C85 C87 1.486 . S
N86 N82 1.370 . S
N86 C85 1.307 . S
C87 C85 1.486 . S
C87 H91 0.960 . S
C87 H92 0.960 . S
C87 H93 0.959 . S
H88 C84 0.960 . S
H89 C84 0.961 . S
H90 C84 0.960 . S
H91 C87 0.960 . S
H92 C87 0.960 . S
H93 C87 0.959 . S
N83 C15 1.418 . S
C13 N70 1.674 . S
C18 N82 1.194 . S
C17 N69 1.387 . S
C36 N57 1.418 1_565 S
C34 N44 1.674 . S
N56 C39 1.194 . S
N43 C38 1.387 . S
C14 N47 1.567 . S
C16 N60 1.331 1_655 S
N73 C35 1.566 . S
C37 N86 1.331 . S
