# Generated by pormake.
# Topology anh, (6,3)-cn, num edge types: 1
# Building blocks:
#     Node 0, Type 0, BuildingBlock: BETDEL_clean_sbu_0, # of connection points: 6
#     Node 1, Type 0, BuildingBlock: BETDEL_clean_sbu_0, # of connection points: 6
#     Node 2, Type 0, BuildingBlock: BETDEL_clean_sbu_0, # of connection points: 6
#     Node 3, Type 1, BuildingBlock: INOVEN_clean_linker_0, # of connection points: 3
#     Node 4, Type 1, BuildingBlock: INOVEN_clean_linker_0, # of connection points: 3
#     Node 5, Type 1, BuildingBlock: INOVEN_clean_linker_0, # of connection points: 3
#     Node 6, Type 1, BuildingBlock: INOVEN_clean_linker_0, # of connection points: 3
#     Node 7, Type 1, BuildingBlock: INOVEN_clean_linker_0, # of connection points: 3
#     Node 8, Type 1, BuildingBlock: INOVEN_clean_linker_0, # of connection points: 3
#     Edge 9, Type (0, 1), None
#     Edge 10, Type (0, 1), None
#     Edge 11, Type (0, 1), None
#     Edge 12, Type (0, 1), None
#     Edge 13, Type (0, 1), None
#     Edge 14, Type (0, 1), None
#     Edge 15, Type (0, 1), None
#     Edge 16, Type (0, 1), None
#     Edge 17, Type (0, 1), None
#     Edge 18, Type (0, 1), None
#     Edge 19, Type (0, 1), None
#     Edge 20, Type (0, 1), None
#     Edge 21, Type (0, 1), None
#     Edge 22, Type (0, 1), None
#     Edge 23, Type (0, 1), None
#     Edge 24, Type (0, 1), None
#     Edge 25, Type (0, 1), None
#     Edge 26, Type (0, 1), None
# Relax obj value: 0.172
# Max RMSD: 0.137
# Mean RMSD: 0.101
data_MOF--net-anh--node1-BETDEL_clean_sbu_0--node2-INOVEN_clean_linker_0--edge1-none
_symmetry_space_group_name_H-M    P1
_symmetry_Int_Tables_number       1
_symmetry_cell_setting            triclinic
loop_
_symmetry_equiv_pos_as_xyz
'x, y, z'
_cell_length_a     13.239625
_cell_length_b     13.194027
_cell_length_c     20.825209
_cell_angle_alpha  92.599706
_cell_angle_beta   94.136154
_cell_angle_gamma 120.81944
loop_
_atom_site_label
_atom_site_type_symbol
_atom_site_fract_x
_atom_site_fract_y
_atom_site_fract_z
_atom_type_partial_charge
Dy0 Dy 0.16583 0.51023 0.12676 0.0
C1 C 0.91921 0.74519 0.14234 0.0
C2 C 0.29189 0.41564 0.0848 0.0
Dy3 Dy 1.06622 0.65946 0.13753 0.0
O4 O 0.28911 0.44467 0.14468 0.0
O5 O 0.21921 0.43213 0.04821 0.0
O6 O 0.11354 0.43996 0.22163 0.0
O7 O 0.16369 0.61725 0.20726 0.0
C8 C 0.12196 0.53737 0.24511 0.0
C9 C 0.10912 0.6248 0.01644 0.0
O10 O 0.24598 0.79909 0.18141 0.0
O11 O 0.33104 0.70227 0.13633 0.0
O12 O 1.01837 0.79476 0.11711 0.0
O13 O 0.91722 0.66524 0.17712 0.0
O14 O 0.12553 0.72359 0.042 0.0
O15 O 1.06358 0.54687 0.0553 0.0
O16 O 0.97597 0.35737 0.12337 0.0
O17 O 0.90893 0.48122 0.15321 0.0
C18 C 0.34141 0.80066 0.16523 0.0
C19 C 0.89081 0.37311 0.14222 0.0
Dy20 Dy 0.42032 0.99688 0.46638 0.0
C21 C 0.90292 0.3005 0.53193 0.0
C22 C 0.19579 0.82261 0.42355 0.0
Dy23 Dy 0.67338 0.13262 0.48957 0.0
O24 O 0.24198 0.84956 0.48321 0.0
O25 O 0.26984 0.90079 0.38863 0.0
O26 O 0.40348 0.06416 0.56354 0.0
O27 O 0.54045 1.0302 0.55164 0.0
C28 C 0.49731 0.06896 0.59086 0.0
C29 C 0.59982 0.05441 0.36367 0.0
O30 O 0.64973 0.96407 0.52116 0.0
O31 O 0.46841 0.85098 0.4621 0.0
O32 O 0.86686 0.20217 0.49627 0.0
O33 O 0.81049 0.29729 0.55088 0.0
O34 O 0.69764 0.07221 0.39321 0.0
O35 O 0.55249 0.09346 0.40044 0.0
O36 O 0.43367 0.17497 0.46346 0.0
O37 O 0.63339 0.27917 0.49782 0.0
C38 C 0.5639 0.85989 0.49411 0.0
C39 C 0.53315 0.27671 0.48305 0.0
Dy40 Dy 0.71937 0.69306 0.79598 0.0
C41 C 0.48917 0.21197 0.81332 0.0
C42 C 0.80153 0.91418 0.75812 0.0
Dy43 Dy 0.57556 0.44764 0.80803 0.0
O44 O 0.79197 0.8865 0.81713 0.0
O45 O 0.77352 0.82089 0.72023 0.0
O46 O 0.81735 0.7273 0.89365 0.0
O47 O 0.63451 0.59874 0.87804 0.0
C48 C 0.7257 0.64708 0.91852 0.0
C49 C 0.56439 0.49949 0.68585 0.0
O50 O 0.44488 0.4921 0.84126 0.0
O51 O 0.53261 0.66677 0.79401 0.0
O52 O 0.43251 0.25793 0.78674 0.0
O53 O 0.58087 0.29681 0.84909 0.0
O54 O 0.47577 0.4211 0.71233 0.0
O55 O 0.65797 0.54222 0.72435 0.0
O56 O 0.86956 0.65932 0.79167 0.0
O57 O 0.76005 0.47511 0.8272 0.0
C58 C 0.43978 0.58226 0.8196 0.0
C59 C 0.86292 0.56323 0.81283 0.0
H60 H 0.53799 0.96187 0.10462 0.0
H61 H 0.40614 0.87547 0.29081 0.0
H62 H 0.74298 0.18775 0.27825 0.0
N63 N 0.7421 0.17037 0.15058 0.0
N64 N 0.78898 0.27925 0.1666 0.0
C65 C 0.54916 0.98116 0.15662 0.0
C66 C 0.45861 0.90444 0.194 0.0
C67 C 0.65102 0.08694 0.18667 0.0
C68 C 0.6634 0.11028 0.25443 0.0
C69 C 0.57616 1.03455 0.29208 0.0
C70 C 0.4736 0.93365 0.26153 0.0
H71 H 0.50174 0.45483 0.427 0.0
H72 H 0.55787 0.33132 0.60731 0.0
H73 H 0.55299 0.65184 0.61091 0.0
N74 N 0.51897 0.6581 0.48355 0.0
N75 N 0.56681 0.75905 0.51378 0.0
C76 C 0.51606 0.46497 0.47933 0.0
C77 C 0.52881 0.37954 0.51303 0.0
C78 C 0.52706 0.56649 0.5145 0.0
C79 C 0.5485 0.57833 0.58261 0.0
C80 C 0.56019 0.49466 0.6153 0.0
C81 C 0.54988 0.39632 0.58077 0.0
H82 H 1.04915 0.55224 0.75768 0.0
H83 H 0.92508 0.59243 0.93791 0.0
H84 H 0.25312 0.60254 0.94112 0.0
N85 N 0.25124 0.56482 0.81358 0.0
N86 N 0.3535 0.60585 0.84199 0.0
C87 C 1.061 0.56581 0.80999 0.0
C88 C 0.97342 0.57154 0.84361 0.0
C89 C 0.16399 0.5772 0.84502 0.0
C90 C 0.17634 0.59385 0.91313 0.0
C91 C 0.09026 0.59821 0.94596 0.0
C92 C 0.99008 0.58698 0.91142 0.0
H93 H 0.08823 0.62956 0.49128 0.0
H94 H 0.1506 0.73872 0.29947 0.0
H95 H 1.05737 0.38552 0.3369 0.0
N96 N 1.01485 0.39985 0.4547 0.0
N97 N 0.98905 0.40656 0.51028 0.0
C98 C 0.09082 0.6097 0.44056 0.0
C99 C 0.12433 0.69833 0.39797 0.0
C100 C 1.06731 0.4971 0.41805 0.0
C101 C 0.07624 0.47313 0.35378 0.0
C102 C 0.10478 0.55949 0.31106 0.0
C103 C 0.12418 0.67039 0.3325 0.0
H104 H 0.62165 0.11619 0.84583 0.0
H105 H 0.40882 0.13779 0.68596 0.0
H106 H 0.66099 1.03641 0.65075 0.0
N107 N 0.71842 1.02586 0.77452 0.0
N108 N 0.76741 0.99251 0.73731 0.0
C109 C 0.59468 0.10627 0.7944 0.0
C110 C 0.50974 0.13315 0.77167 0.0
C111 C 0.64937 0.07199 0.75091 0.0
C112 C 0.61896 0.06397 0.68438 0.0
C113 C 0.52997 0.084 0.66096 0.0
C114 C 0.4738 0.11672 0.70462 0.0
H115 H 0.69461 0.62639 0.17281 0.0
H116 H 0.90246 0.7729 0.01458 0.0
H117 H 0.53465 0.50748 -0.02341 0.0
N118 N 0.49124 0.50126 0.10042 0.0
N119 N 0.39887 0.44074 0.06301 0.0
C120 C 0.70191 0.63227 0.12139 0.0
C121 C 0.81119 0.70797 0.09947 0.0
C122 C 0.6027 0.56003 0.07733 0.0
C123 C 0.61211 0.56294 0.01083 0.0
C124 C 0.7193 0.64159 -0.01174 0.0
C125 C 0.81829 0.71567 0.03254 0.0
loop_
_geom_bond_atom_site_label_1
_geom_bond_atom_site_label_2
_geom_bond_distance
_geom_bond_site_symmetry_2
_ccdc_geom_bond_type
Dy0 O4 2.398 . S
Dy0 O5 2.491 . S
Dy0 O6 2.403 . S
Dy0 O7 2.664 . S
Dy0 O11 2.326 . S
Dy0 O15 2.310 . S
Dy0 O16 2.351 1_455 S
C1 O12 1.185 . S
C1 O13 1.355 . S
C2 O4 1.185 . S
C2 O5 1.355 . S
Dy3 O7 2.310 1_655 S
Dy3 O10 2.351 1_655 S
Dy3 O12 2.398 . S
Dy3 O13 2.491 . S
Dy3 O14 2.403 . S
Dy3 O15 2.664 1_655 S
Dy3 O17 2.326 . S
O4 Dy0 2.398 . S
O4 C2 1.185 . S
O5 Dy0 2.491 . S
O5 C2 1.355 . S
O6 Dy0 2.403 . S
O6 C8 1.254 . S
O7 Dy0 2.664 . S
O7 Dy3 2.310 1_455 S
O7 C8 1.268 . S
C8 O6 1.254 . S
C8 O7 1.268 . S
C9 O14 1.254 1_455 S
C9 O15 1.268 . S
O10 Dy3 2.351 1_455 S
O10 C18 1.249 . S
O11 Dy0 2.326 . S
O11 C18 1.267 . S
O12 C1 1.185 . S
O12 Dy3 2.398 . S
O13 C1 1.355 . S
O13 Dy3 2.491 . S
O14 Dy3 2.403 . S
O14 C9 1.254 1_655 S
O15 Dy0 2.310 . S
O15 Dy3 2.664 1_455 S
O15 C9 1.268 . S
O16 Dy0 2.351 1_655 S
O16 C19 1.249 . S
O17 Dy3 2.326 . S
O17 C19 1.267 . S
C18 O10 1.249 . S
C18 O11 1.267 . S
C19 O16 1.249 . S
C19 O17 1.267 . S
Dy20 O24 2.398 . S
Dy20 O25 2.491 . S
Dy20 O26 2.403 . S
Dy20 O27 2.664 1_565 S
Dy20 O31 2.326 . S
Dy20 O35 2.310 . S
Dy20 O36 2.351 1_565 S
C21 O32 1.185 . S
C21 O33 1.355 . S
C22 O24 1.185 . S
C22 O25 1.355 . S
Dy23 O27 2.310 . S
Dy23 O30 2.351 1_545 S
Dy23 O32 2.398 . S
Dy23 O33 2.491 . S
Dy23 O34 2.403 . S
Dy23 O35 2.664 1_545 S
Dy23 O37 2.326 . S
O24 Dy20 2.398 . S
O24 C22 1.185 . S
O25 Dy20 2.491 . S
O25 C22 1.355 . S
O26 Dy20 2.403 . S
O26 C28 1.254 1_565 S
O27 Dy20 2.664 1_545 S
O27 Dy23 2.310 . S
O27 C28 1.268 . S
C28 O26 1.254 1_545 S
C28 O27 1.268 . S
C29 O34 1.254 . S
C29 O35 1.268 1_545 S
O30 Dy23 2.351 1_565 S
O30 C38 1.249 . S
O31 Dy20 2.326 . S
O31 C38 1.267 . S
O32 C21 1.185 . S
O32 Dy23 2.398 . S
O33 C21 1.355 . S
O33 Dy23 2.491 . S
O34 Dy23 2.403 . S
O34 C29 1.254 . S
O35 Dy20 2.310 . S
O35 Dy23 2.664 1_565 S
O35 C29 1.268 1_565 S
O36 Dy20 2.351 1_545 S
O36 C39 1.249 . S
O37 Dy23 2.326 . S
O37 C39 1.267 . S
C38 O30 1.249 . S
C38 O31 1.267 . S
C39 O36 1.249 . S
C39 O37 1.267 . S
Dy40 O44 2.398 . S
Dy40 O45 2.491 . S
Dy40 O46 2.403 . S
Dy40 O47 2.664 . S
Dy40 O51 2.326 . S
Dy40 O55 2.310 . S
Dy40 O56 2.351 . S
C41 O52 1.185 . S
C41 O53 1.355 . S
C42 O44 1.185 . S
C42 O45 1.355 . S
Dy43 O47 2.310 . S
Dy43 O50 2.351 . S
Dy43 O52 2.398 . S
Dy43 O53 2.491 . S
Dy43 O54 2.403 . S
Dy43 O55 2.664 . S
Dy43 O57 2.326 . S
O44 Dy40 2.398 . S
O44 C42 1.185 . S
O45 Dy40 2.491 . S
O45 C42 1.355 . S
O46 Dy40 2.403 . S
O46 C48 1.254 . S
O47 Dy40 2.664 . S
O47 Dy43 2.310 . S
O47 C48 1.268 . S
C48 O46 1.254 . S
C48 O47 1.268 . S
C49 O54 1.254 . S
C49 O55 1.268 . S
O50 Dy43 2.351 . S
O50 C58 1.249 . S
O51 Dy40 2.326 . S
O51 C58 1.267 . S
O52 C41 1.185 . S
O52 Dy43 2.398 . S
O53 C41 1.355 . S
O53 Dy43 2.491 . S
O54 Dy43 2.403 . S
O54 C49 1.254 . S
O55 Dy40 2.310 . S
O55 Dy43 2.664 . S
O55 C49 1.268 . S
O56 Dy40 2.351 . S
O56 C59 1.249 . S
O57 Dy43 2.326 . S
O57 C59 1.267 . S
C58 O50 1.249 . S
C58 O51 1.267 . S
C59 O56 1.249 . S
C59 O57 1.267 . S
H60 C65 0.929 . S
H61 C70 0.931 . S
H62 C68 0.930 . S
N63 N64 1.234 . S
N63 C67 1.453 . S
N64 N63 1.234 . S
C65 H60 0.929 . S
C65 C66 1.373 . S
C65 C67 1.368 1_565 S
C66 C65 1.373 . S
C66 C70 1.397 . S
C67 N63 1.453 . S
C67 C65 1.368 1_545 S
C67 C68 1.373 . S
C68 H62 0.930 . S
C68 C67 1.373 . S
C68 C69 1.371 1_545 S
C69 C68 1.371 1_565 S
C69 C70 1.383 . S
C70 H61 0.931 . S
C70 C66 1.397 . S
C70 C69 1.383 . S
H71 C76 0.929 . S
H72 C81 0.931 . S
H73 C79 0.930 . S
N74 N75 1.234 . S
N74 C78 1.453 . S
N75 N74 1.234 . S
C76 H71 0.929 . S
C76 C77 1.373 . S
C76 C78 1.368 . S
C77 C76 1.373 . S
C77 C81 1.397 . S
C78 N74 1.453 . S
C78 C76 1.368 . S
C78 C79 1.373 . S
C79 H73 0.930 . S
C79 C78 1.373 . S
C79 C80 1.371 . S
C80 C79 1.371 . S
C80 C81 1.383 . S
C81 H72 0.931 . S
C81 C77 1.397 . S
C81 C80 1.383 . S
H82 C87 0.929 . S
H83 C92 0.931 . S
H84 C90 0.930 . S
N85 N86 1.234 . S
N85 C89 1.453 . S
N86 N85 1.234 . S
C87 H82 0.929 . S
C87 C88 1.373 . S
C87 C89 1.368 1_655 S
C88 C87 1.373 . S
C88 C92 1.397 . S
C89 N85 1.453 . S
C89 C87 1.368 1_455 S
C89 C90 1.373 . S
C90 H84 0.930 . S
C90 C89 1.373 . S
C90 C91 1.371 . S
C91 C90 1.371 . S
C91 C92 1.383 1_455 S
C92 H83 0.931 . S
C92 C88 1.397 . S
C92 C91 1.383 1_655 S
H93 C98 0.929 . S
H94 C103 0.931 . S
H95 C101 0.930 . S
N96 N97 1.234 . S
N96 C100 1.453 . S
N97 N96 1.234 . S
C98 H93 0.929 . S
C98 C99 1.373 . S
C98 C100 1.368 1_455 S
C99 C98 1.373 . S
C99 C103 1.397 . S
C100 N96 1.453 . S
C100 C98 1.368 1_655 S
C100 C101 1.373 . S
C101 H95 0.930 . S
C101 C100 1.373 . S
C101 C102 1.371 1_655 S
C102 C101 1.371 1_455 S
C102 C103 1.383 . S
C103 H94 0.931 . S
C103 C99 1.397 . S
C103 C102 1.383 . S
H104 C109 0.929 . S
H105 C114 0.931 . S
H106 C112 0.930 1_565 S
N107 N108 1.234 . S
N107 C111 1.453 1_565 S
N108 N107 1.234 . S
C109 H104 0.929 . S
C109 C110 1.373 . S
C109 C111 1.368 . S
C110 C109 1.373 . S
C110 C114 1.397 . S
C111 N107 1.453 1_545 S
C111 C109 1.368 . S
C111 C112 1.373 . S
C112 H106 0.930 1_545 S
C112 C111 1.373 . S
C112 C113 1.371 . S
C113 C112 1.371 . S
C113 C114 1.383 . S
C114 H105 0.931 . S
C114 C110 1.397 . S
C114 C113 1.383 . S
H115 C120 0.929 . S
H116 C125 0.931 . S
H117 C123 0.930 . S
N118 N119 1.234 . S
N118 C122 1.453 . S
N119 N118 1.234 . S
C120 H115 0.929 . S
C120 C121 1.373 . S
C120 C122 1.368 . S
C121 C120 1.373 . S
C121 C125 1.397 . S
C122 N118 1.453 . S
C122 C120 1.368 . S
C122 C123 1.373 . S
C123 H117 0.930 . S
C123 C122 1.373 . S
C123 C124 1.371 . S
C124 C123 1.371 . S
C124 C125 1.383 . S
C125 H116 0.931 . S
C125 C121 1.397 . S
C125 C124 1.383 . S
C2 N119 0.865 . S
C21 N97 0.776 . S
C42 N108 0.818 . S
C1 C121 0.952 . S
C99 C22 0.850 . S
C110 C41 0.848 . S
C38 N75 2.363 . S
C59 C88 2.361 . S
C18 C66 2.292 . S
C77 C39 2.356 . S
N86 C58 2.355 . S
C19 N64 2.432 . S
C91 C9 1.617 1_556 S
C29 C69 1.616 1_545 S
C49 C80 1.599 . S
C113 C28 1.530 . S
C124 C48 1.390 1_554 S
C8 C102 1.275 . S
