# Generated by pormake.
# Topology tsx, (6,3)-cn, num edge types: 1
# Building blocks:
#     Node 0, Type 0, BuildingBlock: CIFDUS_clean_sbu_1, # of connection points: 6
#     Node 1, Type 0, BuildingBlock: CIFDUS_clean_sbu_1, # of connection points: 6
#     Node 2, Type 1, BuildingBlock: KAKCAD_clean_linker_0, # of connection points: 3
#     Node 3, Type 1, BuildingBlock: KAKCAD_clean_linker_0, # of connection points: 3
#     Node 4, Type 1, BuildingBlock: KAKCAD_clean_linker_0, # of connection points: 3
#     Node 5, Type 1, BuildingBlock: KAKCAD_clean_linker_0, # of connection points: 3
#     Edge 6, Type (0, 1), BuildingBlock: EYOCIG_clean_linker_4, # of connection points: 2
#     Edge 7, Type (0, 1), BuildingBlock: EYOCIG_clean_linker_4, # of connection points: 2
#     Edge 8, Type (0, 1), BuildingBlock: EYOCIG_clean_linker_4, # of connection points: 2
#     Edge 9, Type (0, 1), BuildingBlock: EYOCIG_clean_linker_4, # of connection points: 2
#     Edge 10, Type (0, 1), BuildingBlock: EYOCIG_clean_linker_4, # of connection points: 2
#     Edge 11, Type (0, 1), BuildingBlock: EYOCIG_clean_linker_4, # of connection points: 2
#     Edge 12, Type (0, 1), BuildingBlock: EYOCIG_clean_linker_4, # of connection points: 2
#     Edge 13, Type (0, 1), BuildingBlock: EYOCIG_clean_linker_4, # of connection points: 2
#     Edge 14, Type (0, 1), BuildingBlock: EYOCIG_clean_linker_4, # of connection points: 2
#     Edge 15, Type (0, 1), BuildingBlock: EYOCIG_clean_linker_4, # of connection points: 2
#     Edge 16, Type (0, 1), BuildingBlock: EYOCIG_clean_linker_4, # of connection points: 2
#     Edge 17, Type (0, 1), BuildingBlock: EYOCIG_clean_linker_4, # of connection points: 2
# Relax obj value: 0.127
# Max RMSD: 0.155
# Mean RMSD: 0.118
data_MOF--net-tsx--node1-CIFDUS_clean_sbu_1--node2-KAKCAD_clean_linker_0--edge1-EYOCIG_clean_linker_4
_symmetry_space_group_name_H-M    P1
_symmetry_Int_Tables_number       1
_symmetry_cell_setting            triclinic
loop_
_symmetry_equiv_pos_as_xyz
'x, y, z'
_cell_length_a     18.200991
_cell_length_b     22.368623
_cell_length_c     37.579612
_cell_angle_alpha  96.897595
_cell_angle_beta   91.505186
_cell_angle_gamma 91.60507
loop_
_atom_site_label
_atom_site_type_symbol
_atom_site_fract_x
_atom_site_fract_y
_atom_site_fract_z
_atom_type_partial_charge
O0 O 0.9938 0.11454 0.01002 0.0
Mn1 Mn 0.05199 0.03464 0.00201 0.0
O2 O 0.88722 0.09754 0.97791 0.0
Mn3 Mn 0.90937 0.02248 0.95526 0.0
O4 O 0.10984 0.95427 0.99368 0.0
O5 O 0.14456 0.08331 0.01713 0.0
Mn6 Mn 0.19964 0.0445 0.04542 0.0
O7 O 0.03368 0.02046 0.05533 0.0
O8 O 0.22314 0.97308 0.01878 0.0
O9 O 0.07228 0.04867 0.94866 0.0
O10 O 0.9681 0.02337 0.9161 0.0
O11 O 0.24965 0.11629 0.04159 0.0
O12 O 0.14349 0.03556 0.08496 0.0
C13 C 0.90485 0.94673 0.98441 0.0
C14 C 0.93053 0.13089 -0.0006 0.0
C15 C 0.17587 0.93874 0.00028 0.0
C16 C 0.19361 0.12661 0.02165 0.0
C17 C 0.07458 0.02357 0.08401 0.0
C18 C 0.03568 0.0395 0.91865 0.0
O19 O 0.95852 0.98635 0.98718 0.0
O20 O 0.85282 0.95558 0.96174 0.0
O21 O 0.49357 0.61472 0.51011 0.0
Mn22 Mn 0.55208 0.53498 0.5021 0.0
O23 O 0.38702 0.59744 0.47802 0.0
Mn24 Mn 0.40943 0.52245 0.45538 0.0
O25 O 0.61025 0.45478 0.49377 0.0
O26 O 0.64449 0.58389 0.51721 0.0
Mn27 Mn 0.69972 0.54524 0.54553 0.0
O28 O 0.53388 0.52075 0.55543 0.0
O29 O 0.72347 0.47386 0.51892 0.0
O30 O 0.57223 0.54908 0.44875 0.0
O31 O 0.46811 0.5235 0.41621 0.0
O32 O 0.7495 0.61711 0.54167 0.0
O33 O 0.64363 0.53621 0.58507 0.0
C34 C 0.40525 0.44671 0.48454 0.0
C35 C 0.43023 0.63091 0.49951 0.0
C36 C 0.67634 0.4394 0.5004 0.0
C37 C 0.69342 0.62728 0.52171 0.0
C38 C 0.57477 0.524 0.58411 0.0
C39 C 0.53562 0.53983 0.41875 0.0
O40 O 0.45878 0.48645 0.48729 0.0
O41 O 0.35315 0.45541 0.46186 0.0
C42 C 0.04287 0.94174 0.27149 0.0
C43 C 0.04895 0.99417 0.2546 0.0
C44 C 0.0497 0.94524 0.30893 0.0
C45 C 0.06225 0.00134 0.32982 0.0
C46 C 0.07093 0.0533 0.31246 0.0
C47 C 0.06429 0.04969 0.27518 0.0
C48 C 0.06078 0.00684 0.36956 0.0
C49 C 0.09866 0.96715 0.38912 0.0
C50 C 0.09605 0.97266 0.42687 0.0
C51 C 0.05375 0.01815 0.44483 0.0
C52 C 0.01644 0.05843 0.42545 0.0
C53 C 0.02021 0.05234 0.38802 0.0
C54 C 0.97177 0.10687 0.44329 0.0
C55 C 0.91158 0.09312 0.46383 0.0
C56 C 0.98308 0.16625 0.4355 0.0
C57 C 0.93285 0.21036 0.44625 0.0
C58 C 0.87054 0.19576 0.46488 0.0
C59 C 0.13993 0.93236 0.44728 0.0
C60 C 0.14675 0.87126 0.43401 0.0
C61 C 0.17881 0.95536 0.47912 0.0
C62 C 0.22523 0.91867 0.49659 0.0
C63 C 0.23357 0.85858 0.4824 0.0
C64 C 0.19341 0.83479 0.45138 0.0
C65 C 0.86102 0.13744 0.47456 0.0
H66 H 0.03159 0.89838 0.25585 0.0
H67 H 0.04251 0.90453 0.32159 0.0
H68 H 0.08178 0.09697 0.3278 0.0
H69 H 0.07004 0.09051 0.26247 0.0
H70 H 0.13202 0.93323 0.37493 0.0
H71 H 0.98958 0.08247 0.37307 0.0
H72 H 0.05023 0.02255 0.47375 0.0
H73 H 0.90146 0.04744 0.46967 0.0
H74 H 0.02924 0.17787 0.41976 0.0
H75 H 0.94127 0.25533 0.43882 0.0
H76 H 0.11676 0.85177 0.40993 0.0
H77 H 0.17573 0.00228 0.48977 0.0
H78 H 0.81321 0.12558 0.48912 0.0
H79 H 0.1992 0.78827 0.44016 0.0
H80 H 0.25615 0.93769 0.52051 0.0
C81 C 0.05016 0.12416 0.73533 0.0
C82 C 0.05881 0.06892 0.74873 0.0
C83 C 0.03717 0.12579 0.69861 0.0
C84 C 0.03264 0.07211 0.67479 0.0
C85 C 0.04075 0.01682 0.68859 0.0
C86 C 0.05366 0.0153 0.72528 0.0
C87 C 0.02204 0.07375 0.63558 0.0
C88 C 0.06071 0.11656 0.61843 0.0
C89 C 0.05469 0.11671 0.58106 0.0
C90 C 1.00856 0.07317 0.56061 0.0
C91 C 0.9698 0.02975 0.57753 0.0
C92 C 0.97641 0.03073 0.6149 0.0
C93 C 0.92423 0.98119 0.5568 0.0
C94 C 0.86403 0.99441 0.53524 0.0
C95 C 0.93669 0.92098 0.56164 0.0
C96 C 0.8883 0.87497 0.54638 0.0
C97 C 0.82669 0.88833 0.52602 0.0
C98 C 0.10191 0.15982 0.56409 0.0
C99 C 0.11158 0.21965 0.58032 0.0
C100 C 0.14502 0.13987 0.53474 0.0
C101 C 0.2002 0.17777 0.52355 0.0
C102 C 0.21238 0.23605 0.54145 0.0
C103 C 0.16648 0.25737 0.56914 0.0
C104 C 0.81537 0.94809 0.51987 0.0
H105 H 0.0532 0.16597 0.75323 0.0
H106 H 0.03027 0.16902 0.68889 0.0
H107 H 0.03855 0.97475 0.67096 0.0
H108 H 0.05984 0.97222 0.73532 0.0
H109 H 0.09863 0.14817 0.63411 0.0
H110 H 0.94572 0.99765 0.62789 0.0
H111 H 1.00402 0.07228 0.53175 0.0
H112 H 0.85283 0.04065 0.5317 0.0
H113 H 0.98282 0.90976 0.57815 0.0
H114 H 0.89788 0.82907 0.55139 0.0
H115 H 0.07839 0.23659 0.60262 0.0
H116 H 0.13879 0.0941 0.52178 0.0
H117 H 0.76779 0.95915 0.50431 0.0
H118 H 0.17444 0.30265 0.58285 0.0
H119 H 0.23469 0.16096 0.50173 0.0
C120 C 0.54311 0.44176 0.77153 0.0
C121 C 0.5491 0.49425 0.75468 0.0
C122 C 0.54983 0.4452 0.80897 0.0
C123 C 0.56216 0.50128 0.8299 0.0
C124 C 0.57073 0.5533 0.81259 0.0
C125 C 0.56422 0.54977 0.77531 0.0
C126 C 0.56066 0.50668 0.86964 0.0
C127 C 0.59873 0.46706 0.88918 0.0
C128 C 0.59615 0.47252 0.92692 0.0
C129 C 0.5537 0.51787 0.9449 0.0
C130 C 0.5162 0.55807 0.92555 0.0
C131 C 0.51994 0.55204 0.88812 0.0
C132 C 0.47139 0.60639 0.94341 0.0
C133 C 0.41102 0.59244 0.96378 0.0
C134 C 0.48268 0.66583 0.93574 0.0
C135 C 0.43229 0.70983 0.94644 0.0
C136 C 0.36982 0.69505 0.9649 0.0
C137 C 0.64022 0.43229 0.94731 0.0
C138 C 0.64725 0.37124 0.93401 0.0
C139 C 0.67903 0.45533 0.97916 0.0
C140 C 0.72557 0.4187 0.99661 0.0
C141 C 0.7341 0.35865 0.9824 0.0
C142 C 0.69402 0.33484 0.95136 0.0
C143 C 0.3603 0.63665 0.97447 0.0
H144 H 0.53201 0.39841 0.75584 0.0
H145 H 0.54272 0.40444 0.82159 0.0
H146 H 0.58141 0.59696 0.82797 0.0
H147 H 0.56988 0.59063 0.76264 0.0
H148 H 0.6322 0.43325 0.87497 0.0
H149 H 0.48919 0.58213 0.87319 0.0
H150 H 0.55021 0.52224 0.97383 0.0
H151 H 0.4009 0.5467 0.96951 0.0
H152 H 0.52897 0.67758 0.92011 0.0
H153 H 0.44071 0.75487 0.9391 0.0
H154 H 0.61732 0.35172 0.90992 0.0
H155 H 0.67579 0.50223 0.98983 0.0
H156 H 0.31235 0.62465 0.98889 0.0
H157 H 0.69996 0.28834 0.94012 0.0
H158 H 0.75642 0.43775 0.02055 0.0
C159 C 0.54959 0.62463 0.23537 0.0
C160 C 0.55829 0.56945 0.24883 0.0
C161 C 0.5366 0.62615 0.19864 0.0
C162 C 0.53212 0.57242 0.17487 0.0
C163 C 0.54026 0.51718 0.18873 0.0
C164 C 0.55317 0.51577 0.22543 0.0
C165 C 0.52156 0.57392 0.13564 0.0
C166 C 0.56019 0.6167 0.11845 0.0
C167 C 0.55423 0.61671 0.08106 0.0
C168 C 0.5082 0.57306 0.06065 0.0
C169 C 0.46949 0.52966 0.0776 0.0
C170 C 0.47603 0.53079 0.11498 0.0
C171 C 0.42405 0.48098 0.05691 0.0
C172 C 0.36389 0.49404 0.03527 0.0
C173 C 0.4366 0.42083 0.06184 0.0
C174 C 0.38835 0.37471 0.04659 0.0
C175 C 0.32678 0.3879 0.02615 0.0
C176 C 0.60141 0.6598 0.06405 0.0
C177 C 0.61102 0.71967 0.08023 0.0
C178 C 0.64453 0.63982 0.03471 0.0
C179 C 0.69966 0.67772 0.02348 0.0
C180 C 0.71178 0.73604 0.04133 0.0
C181 C 0.66588 0.75739 0.06901 0.0
C182 C 0.31536 0.44761 0.01992 0.0
H183 H 0.5526 0.66648 0.25323 0.0
H184 H 0.52968 0.66933 0.18886 0.0
H185 H 0.53811 0.47506 0.17114 0.0
H186 H 0.55938 0.47273 0.23551 0.0
H187 H 0.59805 0.6484 0.13411 0.0
H188 H 0.44536 0.49774 0.12801 0.0
H189 H 0.50371 0.57205 0.03178 0.0
H190 H 0.35261 0.54024 0.03167 0.0
H191 H 0.4827 0.40973 0.07841 0.0
H192 H 0.398 0.32885 0.05167 0.0
H193 H 0.57782 0.73664 0.10252 0.0
H194 H 0.63835 0.59402 0.02178 0.0
H195 H 0.26782 0.45855 0.00428 0.0
H196 H 0.67379 0.8027 0.08267 0.0
H197 H 0.73416 0.66088 0.00167 0.0
C198 C 0.20362 0.23575 0.00444 0.0
C199 C 0.18783 0.18441 0.00888 0.0
C200 C 0.23726 0.29401 0.00673 0.0
C201 C 0.27393 0.33995 0.01396 0.0
C202 C 0.2282 0.8314 0.98169 0.0
C203 C 0.1981 0.87864 0.9885 0.0
C204 C 0.27202 0.78003 0.97651 0.0
C205 C 0.31438 0.73942 0.97204 0.0
C206 C 0.86919 0.85486 0.01712 0.0
C207 C 0.89707 0.89785 0.00558 0.0
C208 C 0.82036 0.80897 0.02592 0.0
C209 C 0.77172 0.77414 0.03199 0.0
C210 C 0.87424 0.23722 0.01249 0.0
C211 C 0.90746 0.19113 0.00957 0.0
C212 C 0.82813 0.28551 0.00779 0.0
C213 C 0.78668 0.32184 -0.0019 0.0
C214 C 0.70327 0.73634 0.50438 0.0
C215 C 0.68752 0.68501 0.50887 0.0
C216 C 0.73695 0.79458 0.50663 0.0
C217 C 0.7737 0.84048 0.51385 0.0
C218 C 0.72902 0.3322 0.4818 0.0
C219 C 0.6988 0.37937 0.48861 0.0
C220 C 0.7729 0.28086 0.47658 0.0
C221 C 0.81522 0.24022 0.47207 0.0
C222 C 0.36984 0.35486 0.51731 0.0
C223 C 0.39764 0.39786 0.50575 0.0
C224 C 0.32102 0.30897 0.5261 0.0
C225 C 0.27235 0.27415 0.53214 0.0
C226 C 0.37364 0.73713 0.51254 0.0
C227 C 0.40697 0.6911 0.50964 0.0
C228 C 0.3275 0.78538 0.50781 0.0
C229 C 0.28609 0.82172 0.4981 0.0
C230 C 0.03234 0.00259 0.14769 0.0
C231 C 0.04361 0.01107 0.11718 0.0
C232 C 0.03242 0.99498 0.1845 0.0
C233 C 0.03935 0.9919 0.21624 0.0
C234 C 0.08154 0.05747 0.85521 0.0
C235 C 0.06925 0.05108 0.88593 0.0
C236 C 0.08039 0.06345 0.81819 0.0
C237 C 0.07054 0.06685 0.78664 0.0
C238 C 0.53265 0.50286 0.64779 0.0
C239 C 0.54388 0.51139 0.61728 0.0
C240 C 0.53273 0.49518 0.68458 0.0
C241 C 0.5396 0.49206 0.71632 0.0
C242 C 0.58124 0.55807 0.3553 0.0
C243 C 0.56906 0.55158 0.38602 0.0
C244 C 0.57998 0.56411 0.3183 0.0
C245 C 0.57008 0.56749 0.28674 0.0
loop_
_geom_bond_atom_site_label_1
_geom_bond_atom_site_label_2
_geom_bond_distance
_geom_bond_site_symmetry_2
_ccdc_geom_bond_type
O0 Mn1 2.163 1_654 S
O0 C14 1.244 1_554 S
Mn1 O0 2.163 1_456 S
Mn1 O4 2.160 1_545 S
Mn1 O5 2.220 1_556 S
Mn1 O7 2.143 1_556 S
Mn1 O9 2.180 . S
Mn1 O19 2.224 1_445 S
O2 Mn3 2.087 . S
O2 C14 1.256 . S
Mn3 O2 2.087 . S
Mn3 O10 2.089 . S
Mn3 O19 2.290 1_545 S
Mn3 O20 2.251 1_545 S
O4 Mn1 2.160 1_565 S
O4 C15 1.239 1_556 S
O5 Mn1 2.220 1_554 S
O5 Mn6 2.290 . S
O5 C16 1.278 . S
Mn6 O5 2.290 . S
Mn6 O8 2.089 1_545 S
Mn6 O11 2.251 . S
Mn6 O12 2.087 . S
O7 Mn1 2.143 1_554 S
O7 C17 1.244 . S
O8 Mn6 2.089 1_565 S
O8 C15 1.256 . S
O9 Mn1 2.180 . S
O9 C18 1.239 . S
O10 Mn3 2.089 . S
O10 C18 1.256 1_655 S
O11 Mn6 2.251 . S
O11 C16 1.241 . S
O12 Mn6 2.087 . S
O12 C17 1.256 . S
C13 O19 1.278 1_554 S
C13 O20 1.241 1_554 S
C14 O0 1.244 1_556 S
C14 O2 1.256 . S
C15 O4 1.239 1_554 S
C15 O8 1.256 . S
C16 O5 1.278 . S
C16 O11 1.241 . S
C17 O7 1.244 . S
C17 O12 1.256 . S
C18 O9 1.239 . S
C18 O10 1.256 1_455 S
O19 Mn1 2.224 1_665 S
O19 Mn3 2.290 1_565 S
O19 C13 1.278 1_556 S
O20 Mn3 2.251 1_565 S
O20 C13 1.241 1_556 S
O21 Mn22 2.163 . S
O21 C35 1.244 . S
Mn22 O21 2.163 . S
Mn22 O25 2.160 . S
Mn22 O26 2.221 . S
Mn22 O28 2.163 . S
Mn22 O30 2.160 . S
Mn22 O40 2.221 . S
O23 Mn24 2.087 . S
O23 C35 1.256 . S
Mn24 O23 2.087 . S
Mn24 O31 2.089 . S
Mn24 O40 2.290 . S
Mn24 O41 2.251 . S
O25 Mn22 2.160 . S
O25 C36 1.239 . S
O26 Mn22 2.221 . S
O26 Mn27 2.290 . S
O26 C37 1.278 . S
Mn27 O26 2.290 . S
Mn27 O29 2.089 . S
Mn27 O32 2.251 . S
Mn27 O33 2.087 . S
O28 Mn22 2.163 . S
O28 C38 1.244 . S
O29 Mn27 2.089 . S
O29 C36 1.256 . S
O30 Mn22 2.160 . S
O30 C39 1.239 . S
O31 Mn24 2.089 . S
O31 C39 1.256 . S
O32 Mn27 2.251 . S
O32 C37 1.241 . S
O33 Mn27 2.087 . S
O33 C38 1.256 . S
C34 O40 1.278 . S
C34 O41 1.241 . S
C35 O21 1.244 . S
C35 O23 1.256 . S
C36 O25 1.239 . S
C36 O29 1.256 . S
C37 O26 1.278 . S
C37 O32 1.241 . S
C38 O28 1.244 . S
C38 O33 1.256 . S
C39 O30 1.239 . S
C39 O31 1.256 . S
O40 Mn22 2.221 . S
O40 Mn24 2.290 . S
O40 C34 1.278 . S
O41 Mn24 2.251 . S
O41 C34 1.241 . S
C42 C43 1.386 . S
C42 C44 1.397 . S
C42 H66 0.931 . S
C43 C42 1.386 . S
C43 C47 1.397 1_565 S
C44 C42 1.397 . S
C44 C45 1.384 . S
C44 H67 0.930 . S
C45 C44 1.384 . S
C45 C46 1.377 1_565 S
C45 C48 1.481 . S
C46 C45 1.377 1_545 S
C46 C47 1.389 . S
C46 H68 0.929 . S
C47 C43 1.397 1_545 S
C47 C46 1.389 . S
C47 H69 0.931 . S
C48 C45 1.481 . S
C48 C49 1.387 . S
C48 C53 1.390 1_565 S
C49 C48 1.387 . S
C49 C50 1.401 . S
C49 H70 0.930 . S
C50 C49 1.401 . S
C50 C51 1.376 1_565 S
C50 C59 1.511 . S
C51 C50 1.376 1_545 S
C51 C52 1.392 . S
C51 H72 0.931 . S
C52 C51 1.392 . S
C52 C53 1.361 . S
C52 C54 1.500 1_455 S
C53 C48 1.390 1_545 S
C53 C52 1.361 . S
C53 H71 0.931 1_455 S
C54 C52 1.500 1_655 S
C54 C55 1.371 . S
C54 C56 1.365 . S
C55 C54 1.371 . S
C55 C65 1.386 . S
C55 H73 0.931 . S
C56 C54 1.365 . S
C56 C57 1.409 . S
C56 H74 0.929 . S
C57 C56 1.409 . S
C57 C58 1.380 . S
C57 H75 0.930 . S
C58 C57 1.380 . S
C58 C65 1.357 . S
C59 C50 1.511 . S
C59 C60 1.341 . S
C59 C61 1.371 . S
C60 C59 1.341 . S
C60 C64 1.394 . S
C60 H76 0.930 . S
C61 C59 1.371 . S
C61 C62 1.392 . S
C61 H77 0.931 . S
C62 C61 1.392 . S
C62 C63 1.331 . S
C62 H80 0.932 . S
C63 C62 1.331 . S
C63 C64 1.336 . S
C64 C60 1.394 . S
C64 C63 1.336 . S
C64 H79 0.929 . S
C65 C55 1.386 . S
C65 C58 1.357 . S
C65 H78 0.928 . S
H66 C42 0.931 . S
H67 C44 0.930 . S
H68 C46 0.929 . S
H69 C47 0.931 . S
H70 C49 0.930 . S
H71 C53 0.931 1_655 S
H72 C51 0.931 . S
H73 C55 0.931 . S
H74 C56 0.929 . S
H75 C57 0.930 . S
H76 C60 0.930 . S
H77 C61 0.931 . S
H78 C65 0.928 . S
H79 C64 0.929 . S
H80 C62 0.932 . S
C81 C82 1.386 . S
C81 C83 1.397 . S
C81 H105 0.931 . S
C82 C81 1.386 . S
C82 C86 1.397 . S
C83 C81 1.397 . S
C83 C84 1.384 . S
C83 H106 0.930 . S
C84 C83 1.384 . S
C84 C85 1.377 . S
C84 C87 1.481 . S
C85 C84 1.377 . S
C85 C86 1.389 . S
C85 H107 0.929 1_545 S
C86 C82 1.397 . S
C86 C85 1.389 . S
C86 H108 0.924 1_545 S
C87 C84 1.481 . S
C87 C88 1.387 . S
C87 C92 1.390 1_455 S
C88 C87 1.387 . S
C88 C89 1.401 . S
C88 H109 0.930 . S
C89 C88 1.401 . S
C89 C90 1.376 1_455 S
C89 C98 1.511 . S
C90 C89 1.376 1_655 S
C90 C91 1.392 . S
C90 H111 0.931 . S
C91 C90 1.392 . S
C91 C92 1.361 . S
C91 C93 1.500 1_545 S
C92 C87 1.390 1_655 S
C92 C91 1.361 . S
C92 H110 0.931 . S
C93 C91 1.500 1_565 S
C93 C94 1.372 . S
C93 C95 1.365 . S
C94 C93 1.372 . S
C94 C104 1.388 . S
C94 H112 0.928 1_565 S
C95 C93 1.365 . S
C95 C96 1.409 . S
C95 H113 0.929 . S
C96 C95 1.409 . S
C96 C97 1.380 . S
C96 H114 0.930 . S
C97 C96 1.380 . S
C97 C104 1.357 . S
C98 C89 1.511 . S
C98 C99 1.341 . S
C98 C100 1.371 . S
C99 C98 1.341 . S
C99 C103 1.394 . S
C99 H115 0.930 . S
C100 C98 1.371 . S
C100 C101 1.392 . S
C100 H116 0.931 . S
C101 C100 1.392 . S
C101 C102 1.331 . S
C101 H119 0.932 . S
C102 C101 1.331 . S
C102 C103 1.336 . S
C103 C99 1.394 . S
C103 C102 1.336 . S
C103 H118 0.929 . S
C104 C94 1.388 . S
C104 C97 1.357 . S
C104 H117 0.928 . S
H105 C81 0.931 . S
H106 C83 0.930 . S
H107 C85 0.929 1_565 S
H108 C86 0.924 1_565 S
H109 C88 0.930 . S
H110 C92 0.931 . S
H111 C90 0.931 . S
H112 C94 0.928 1_545 S
H113 C95 0.929 . S
H114 C96 0.930 . S
H115 C99 0.930 . S
H116 C100 0.931 . S
H117 C104 0.928 . S
H118 C103 0.929 . S
H119 C101 0.932 . S
C120 C121 1.386 . S
C120 C122 1.397 . S
C120 H144 0.931 . S
C121 C120 1.386 . S
C121 C125 1.397 . S
C122 C120 1.397 . S
C122 C123 1.384 . S
C122 H145 0.930 . S
C123 C122 1.384 . S
C123 C124 1.377 . S
C123 C126 1.481 . S
C124 C123 1.377 . S
C124 C125 1.389 . S
C124 H146 0.929 . S
C125 C121 1.397 . S
C125 C124 1.389 . S
C125 H147 0.931 . S
C126 C123 1.481 . S
C126 C127 1.387 . S
C126 C131 1.390 . S
C127 C126 1.387 . S
C127 C128 1.401 . S
C127 H148 0.930 . S
C128 C127 1.401 . S
C128 C129 1.376 . S
C128 C137 1.511 . S
C129 C128 1.376 . S
C129 C130 1.392 . S
C129 H150 0.931 . S
C130 C129 1.392 . S
C130 C131 1.361 . S
C130 C132 1.500 . S
C131 C126 1.390 . S
C131 C130 1.361 . S
C131 H149 0.931 . S
C132 C130 1.500 . S
C132 C133 1.371 . S
C132 C134 1.365 . S
C133 C132 1.371 . S
C133 C143 1.386 1_556 S
C133 H151 0.931 . S
C134 C132 1.365 . S
C134 C135 1.409 . S
C134 H152 0.929 . S
C135 C134 1.409 . S
C135 C136 1.380 . S
C135 H153 0.930 . S
C136 C135 1.380 . S
C136 C143 1.357 1_556 S
C137 C128 1.511 . S
C137 C138 1.341 . S
C137 C139 1.371 . S
C138 C137 1.341 . S
C138 C142 1.394 . S
C138 H154 0.930 . S
C139 C137 1.371 . S
C139 C140 1.392 1_556 S
C139 H155 0.943 . S
C140 C139 1.392 1_554 S
C140 C141 1.331 1_554 S
C140 H158 0.932 . S
C141 C140 1.331 1_556 S
C141 C142 1.336 . S
C142 C138 1.394 . S
C142 C141 1.336 . S
C142 H157 0.929 . S
C143 C133 1.386 1_554 S
C143 C136 1.357 1_554 S
C143 H156 0.928 . S
H144 C120 0.931 . S
H145 C122 0.930 . S
H146 C124 0.929 . S
H147 C125 0.931 . S
H148 C127 0.930 . S
H149 C131 0.931 . S
H150 C129 0.931 . S
H151 C133 0.931 . S
H152 C134 0.929 . S
H153 C135 0.930 . S
H154 C138 0.930 . S
H155 C139 0.943 . S
H156 C143 0.928 . S
H157 C142 0.929 . S
H158 C140 0.932 . S
C159 C160 1.386 . S
C159 C161 1.397 . S
C159 H183 0.931 . S
C160 C159 1.386 . S
C160 C164 1.397 . S
C161 C159 1.397 . S
C161 C162 1.384 . S
C161 H184 0.930 . S
C162 C161 1.384 . S
C162 C163 1.377 . S
C162 C165 1.481 . S
C163 C162 1.377 . S
C163 C164 1.389 . S
C163 H185 0.929 . S
C164 C160 1.397 . S
C164 C163 1.389 . S
C164 H186 0.931 . S
C165 C162 1.481 . S
C165 C166 1.387 . S
C165 C170 1.390 . S
C166 C165 1.387 . S
C166 C167 1.401 . S
C166 H187 0.930 . S
C167 C166 1.401 . S
C167 C168 1.376 . S
C167 C176 1.511 . S
C168 C167 1.376 . S
C168 C169 1.392 . S
C168 H189 0.931 . S
C169 C168 1.392 . S
C169 C170 1.361 . S
C169 C171 1.500 . S
C170 C165 1.390 . S
C170 C169 1.361 . S
C170 H188 0.931 . S
C171 C169 1.500 . S
C171 C172 1.371 . S
C171 C173 1.365 . S
C172 C171 1.371 . S
C172 C182 1.386 . S
C172 H190 0.931 . S
C173 C171 1.365 . S
C173 C174 1.409 . S
C173 H191 0.929 . S
C174 C173 1.409 . S
C174 C175 1.380 . S
C174 H192 0.930 . S
C175 C174 1.380 . S
C175 C182 1.357 . S
C176 C167 1.511 . S
C176 C177 1.341 . S
C176 C178 1.371 . S
C177 C176 1.341 . S
C177 C181 1.394 . S
C177 H193 0.930 . S
C178 C176 1.371 . S
C178 C179 1.392 . S
C178 H194 0.931 . S
C179 C178 1.392 . S
C179 C180 1.331 . S
C179 H197 0.932 1_554 S
C180 C179 1.331 . S
C180 C181 1.336 . S
C181 C177 1.394 . S
C181 C180 1.336 . S
C181 H196 0.929 . S
C182 C172 1.386 . S
C182 C175 1.357 . S
C182 H195 0.928 1_554 S
H183 C159 0.931 . S
H184 C161 0.930 . S
H185 C163 0.929 . S
H186 C164 0.931 . S
H187 C166 0.930 . S
H188 C170 0.931 . S
H189 C168 0.931 . S
H190 C172 0.931 . S
H191 C173 0.929 . S
H192 C174 0.930 . S
H193 C177 0.930 . S
H194 C178 0.931 . S
H195 C182 0.928 1_556 S
H196 C181 0.929 . S
H197 C179 0.932 1_556 S
C198 C199 1.170 . S
C198 C200 1.380 . S
C199 C198 1.170 . S
C200 C198 1.380 . S
C200 C201 1.170 . S
C201 C200 1.170 . S
C202 C203 1.170 . S
C202 C204 1.380 . S
C203 C202 1.170 . S
C204 C202 1.380 . S
C204 C205 1.170 . S
C205 C204 1.170 . S
C206 C207 1.170 . S
C206 C208 1.380 . S
C207 C206 1.170 . S
C208 C206 1.380 . S
C208 C209 1.170 . S
C209 C208 1.170 . S
C210 C211 1.168 . S
C210 C212 1.379 1_554 S
C211 C210 1.168 . S
C212 C210 1.379 1_556 S
C212 C213 1.170 . S
C213 C212 1.170 . S
C214 C215 1.170 . S
C214 C216 1.380 . S
C215 C214 1.170 . S
C216 C214 1.380 . S
C216 C217 1.170 . S
C217 C216 1.170 . S
C218 C219 1.170 . S
C218 C220 1.380 . S
C219 C218 1.170 . S
C220 C218 1.380 . S
C220 C221 1.170 . S
C221 C220 1.170 . S
C222 C223 1.170 . S
C222 C224 1.380 . S
C223 C222 1.170 . S
C224 C222 1.380 . S
C224 C225 1.170 . S
C225 C224 1.170 . S
C226 C227 1.170 . S
C226 C228 1.380 . S
C227 C226 1.170 . S
C228 C226 1.380 . S
C228 C229 1.170 . S
C229 C228 1.170 . S
C230 C231 1.170 . S
C230 C232 1.380 . S
C231 C230 1.170 . S
C232 C230 1.380 . S
C232 C233 1.170 1_545 S
C233 C232 1.170 1_565 S
C234 C235 1.170 . S
C234 C236 1.380 . S
C235 C234 1.170 . S
C236 C234 1.380 . S
C236 C237 1.170 . S
C237 C236 1.170 . S
C238 C239 1.170 . S
C238 C240 1.380 . S
C239 C238 1.170 . S
C240 C238 1.380 . S
C240 C241 1.170 . S
C241 C240 1.170 . S
C242 C243 1.170 . S
C242 C244 1.380 . S
C243 C242 1.170 . S
C244 C242 1.380 . S
C244 C245 1.170 . S
C245 C244 1.170 . S
C201 C175 1.536 . S
C199 C16 1.475 . S
C203 C15 1.609 . S
C205 C136 1.565 1_554 S
C207 C13 1.333 . S
C209 C180 1.534 . S
C211 C14 1.409 1_554 S
C213 C141 1.450 . S
C215 C37 1.472 . S
C217 C97 1.535 . S
C219 C36 1.582 . S
C221 C58 1.559 . S
C225 C102 1.523 . S
C223 C34 1.346 . S
C229 C63 1.447 . S
C227 C35 1.400 . S
C231 C17 1.500 . S
C233 C43 1.558 . S
C235 C18 1.404 . S
C237 C82 1.444 . S
C241 C121 1.557 . S
C239 C38 1.502 . S
C243 C39 1.378 . S
C245 C160 1.454 . S
