# Generated by pormake.
# Topology zzz, (3,6)-cn, num edge types: 1
# Building blocks:
#     Node 0, Type 0, BuildingBlock: QEWDON_clean_linker_0, # of connection points: 3
#     Node 1, Type 0, BuildingBlock: QEWDON_clean_linker_0, # of connection points: 3
#     Node 2, Type 0, BuildingBlock: QEWDON_clean_linker_0, # of connection points: 3
#     Node 3, Type 0, BuildingBlock: QEWDON_clean_linker_0, # of connection points: 3
#     Node 4, Type 0, BuildingBlock: QEWDON_clean_linker_0, # of connection points: 3
#     Node 5, Type 0, BuildingBlock: QEWDON_clean_linker_0, # of connection points: 3
#     Node 6, Type 0, BuildingBlock: QEWDON_clean_linker_0, # of connection points: 3
#     Node 7, Type 0, BuildingBlock: QEWDON_clean_linker_0, # of connection points: 3
#     Node 8, Type 1, BuildingBlock: CUKXOW_clean_sbu_0, # of connection points: 6
#     Node 9, Type 1, BuildingBlock: CUKXOW_clean_sbu_0, # of connection points: 6
#     Node 10, Type 1, BuildingBlock: CUKXOW_clean_sbu_0, # of connection points: 6
#     Node 11, Type 1, BuildingBlock: CUKXOW_clean_sbu_0, # of connection points: 6
#     Edge 12, Type (0, 1), None
#     Edge 13, Type (0, 1), None
#     Edge 14, Type (0, 1), None
#     Edge 15, Type (0, 1), None
#     Edge 16, Type (0, 1), None
#     Edge 17, Type (0, 1), None
#     Edge 18, Type (0, 1), None
#     Edge 19, Type (0, 1), None
#     Edge 20, Type (0, 1), None
#     Edge 21, Type (0, 1), None
#     Edge 22, Type (0, 1), None
#     Edge 23, Type (0, 1), None
#     Edge 24, Type (0, 1), None
#     Edge 25, Type (0, 1), None
#     Edge 26, Type (0, 1), None
#     Edge 27, Type (0, 1), None
#     Edge 28, Type (0, 1), None
#     Edge 29, Type (0, 1), None
#     Edge 30, Type (0, 1), None
#     Edge 31, Type (0, 1), None
#     Edge 32, Type (0, 1), None
#     Edge 33, Type (0, 1), None
#     Edge 34, Type (0, 1), None
#     Edge 35, Type (0, 1), None
# Relax obj value: 0.021
# Max RMSD: 0.101
# Mean RMSD: 0.037
data_MOF--net-zzz--node1-CUKXOW_clean_sbu_0--node2-QEWDON_clean_linker_0--edge1-none
_symmetry_space_group_name_H-M    P1
_symmetry_Int_Tables_number       1
_symmetry_cell_setting            triclinic
loop_
_symmetry_equiv_pos_as_xyz
'x, y, z'
_cell_length_a     24.173239
_cell_length_b     26.012316
_cell_length_c     8.1783574
_cell_angle_alpha  95.213767
_cell_angle_beta   84.795573
_cell_angle_gamma 92.48287
loop_
_atom_site_label
_atom_site_type_symbol
_atom_site_fract_x
_atom_site_fract_y
_atom_site_fract_z
_atom_type_partial_charge
H0 H 0.82813 0.51439 0.88787 0.0
C1 C 0.83064 0.50976 0.01705 0.0
C2 C 0.8749 0.48266 0.06754 0.0
C3 C 0.79264 0.53509 0.13693 0.0
H4 H 0.91141 0.45744 0.27444 0.0
C5 C 0.87737 0.47774 0.23433 0.0
C6 C 0.84839 0.51123 0.34928 0.0
C7 C 0.80444 0.53825 0.30359 0.0
C8 C 0.74873 0.56816 0.09061 0.0
H9 H 0.78187 0.56401 0.39533 0.0
C10 C 0.70316 0.54826 0.00289 0.0
C11 C 0.66117 0.58169 -0.02743 0.0
C12 C 0.75145 0.621 0.14504 0.0
H13 H 0.78576 0.63716 0.21183 0.0
C14 C 0.71013 0.65357 0.11543 0.0
H15 H 0.70061 0.50776 -0.04121 0.0
C16 C 0.66559 0.63417 0.02991 0.0
H17 H 0.6345 0.66059 0.00613 0.0
H18 H 0.71273 0.69415 0.15829 0.0
H19 H 0.05141 0.82334 0.87045 0.0
C20 C 0.04923 0.83524 0.00113 0.0
C21 C 0.06764 0.88641 0.05744 0.0
C22 C 1.0248 0.80094 0.11791 0.0
H23 H 0.07037 0.94195 0.26665 0.0
C24 C 0.05906 0.90239 0.22344 0.0
C25 C 0.02982 0.87164 0.33251 0.0
C26 C 1.01626 0.82041 0.28489 0.0
C27 C 0.99375 0.75075 0.07463 0.0
H28 H 0.99436 0.79704 0.37518 0.0
C29 C 1.01892 0.70267 0.0198 0.0
C30 C 0.9865 0.65534 0.02438 0.0
C31 C 0.93633 0.75014 0.12331 0.0
H32 H 0.91561 0.78583 0.16363 0.0
C33 C 0.90562 0.70407 0.13378 0.0
H34 H 0.0624 0.70213 -0.0255 0.0
C35 C 0.93055 0.65727 0.0882 0.0
H36 H 0.90468 0.62218 0.0923 0.0
H37 H 0.86197 0.70471 0.17697 0.0
H38 H 0.75155 0.05942 -0.02328 0.0
C39 C 0.73059 0.06485 0.09951 0.0
C40 C 0.67777 0.08755 0.12295 0.0
C41 C 0.75424 0.04623 0.23524 0.0
H42 H 0.6096 0.10909 0.29742 0.0
C43 C 0.65016 0.09223 0.28063 0.0
C44 C 0.67218 0.07346 0.41471 0.0
C45 C 0.72417 0.05133 0.39243 0.0
C46 C 0.80722 1.0171 0.21779 0.0
H47 H 0.74121 0.03813 0.49874 0.0
C48 C 0.85629 0.03258 0.12271 0.0
C49 C 0.90608 1.00561 0.1249 0.0
C50 C 0.8089 0.97316 0.30642 0.0
H51 H 0.77205 0.95869 0.37557 0.0
C52 C 0.85774 0.94688 0.3076 0.0
H53 H 0.8559 0.0651 0.04902 0.0
C54 C 0.90589 0.96301 0.21795 0.0
H55 H 0.9427 0.94053 0.2147 0.0
H56 H 0.85802 0.91324 0.37632 0.0
H57 H 0.51013 0.71845 0.84363 0.0
C58 C 0.51975 0.71468 -0.0317 0.0
C59 C 0.49773 0.67227 0.0488 0.0
C60 C 0.55885 0.7492 0.04013 0.0
H61 H 0.49743 0.63259 0.26634 0.0
C62 C 0.51192 0.66693 0.20731 0.0
C63 C 0.55085 0.70098 0.28132 0.0
C64 C 0.57448 0.74249 0.1982 0.0
C65 C 0.58972 0.78555 0.9348 0.0
H66 H 0.60673 0.76719 0.25104 0.0
C67 C 0.57839 0.83833 0.9527 0.0
C68 C 0.6002 0.8704 0.83151 0.0
C69 C 0.62513 0.76569 0.80024 0.0
H70 H 0.6337 0.7249 0.7838 0.0
C71 C 0.64793 0.79785 0.68244 0.0
H72 H 0.55001 0.85351 0.05415 0.0
C73 C 0.63489 0.84983 0.69645 0.0
H74 H 0.65186 0.87401 0.60158 0.0
H75 H 0.67456 0.78216 0.57786 0.0
H76 H 0.18989 0.56547 0.61017 0.0
C77 C 0.18252 0.53886 0.50387 0.0
C78 C 0.12988 0.51477 0.49007 0.0
C79 C 0.22431 0.53103 0.37255 0.0
H80 H 0.08053 0.45965 0.35522 0.0
C81 C 0.12112 0.47928 0.35798 0.0
C82 C 0.15604 0.48033 0.21446 0.0
C83 C 0.20885 0.50542 0.22132 0.0
C84 C 0.2781 0.56088 0.37908 0.0
H85 H 0.23638 0.50716 0.10959 0.0
C86 C 0.31874 0.55163 0.48816 0.0
C87 C 0.36736 0.58423 0.49626 0.0
C88 C 0.28697 0.60174 0.2783 0.0
H89 H 0.25657 0.60953 0.19491 0.0
C90 C 0.33385 0.63413 0.28771 0.0
H91 H 0.31244 0.51981 0.56527 0.0
C92 C 0.37297 0.62606 0.39635 0.0
H93 H 0.40821 0.65302 0.3999 0.0
H94 H 0.33977 0.6661 0.21114 0.0
H95 H 0.99618 0.18265 0.71023 0.0
C96 C 0.02896 0.17447 0.61306 0.0
C97 C 0.05623 0.12724 0.60166 0.0
C98 C 0.04177 0.20942 0.4906 0.0
H99 H 0.11825 0.08033 0.46686 0.0
C100 C 0.0978 0.11685 0.47489 0.0
C101 C 0.10181 0.1446 0.337 0.0
C102 C 0.07572 0.19236 0.34725 0.0
C103 C 1.00746 0.2555 0.48627 0.0
H104 H 0.07769 0.21389 0.23928 0.0
C105 C 1.02065 0.30529 0.56384 0.0
C106 C 0.98761 0.34811 0.54534 0.0
C107 C 0.9613 0.24909 0.39347 0.0
H108 H 0.95061 0.21161 0.33304 0.0
C109 C 0.92881 0.29065 0.37574 0.0
H110 H 0.05636 0.31061 0.63533 0.0
C111 C 0.94175 0.33945 0.44986 0.0
H112 H 0.91497 0.37047 0.43258 0.0
H113 H 0.89333 0.28507 0.30341 0.0
H114 H 0.37172 0.03689 0.66539 0.0
C115 C 0.39153 0.05417 0.55831 0.0
C116 C 0.44718 0.07286 0.55925 0.0
C117 C 0.36352 0.05286 0.41398 0.0
H118 H 0.51739 0.10463 0.41528 0.0
C119 C 0.4739 0.09267 0.41761 0.0
C120 C 0.4483 0.08942 0.27062 0.0
C121 C 0.39279 0.07071 0.27016 0.0
C122 C 0.30885 1.02345 0.4025 0.0
H123 H 0.37384 0.06665 0.15435 0.0
C124 C 0.26361 0.02805 0.52729 0.0
C125 C 0.21336 0.99818 0.50952 0.0
C126 C 0.30306 0.98801 0.26401 0.0
H127 H 0.33695 0.98199 0.169 0.0
C128 C 0.25426 0.95865 0.24689 0.0
H129 H 0.26723 0.05502 0.63504 0.0
C130 C 0.21005 0.96358 0.36743 0.0
H131 H 0.17299 0.93973 0.34809 0.0
H132 H 0.25074 0.93158 0.13936 0.0
H133 H 0.54038 0.41246 0.558 0.0
C134 C 0.51524 0.41344 0.45511 0.0
C135 C 0.4964 0.46062 0.41709 0.0
C136 C 0.50798 0.36889 0.34662 0.0
H137 H 0.44751 0.49913 0.26647 0.0
C138 C 0.46314 0.46205 0.28872 0.0
C139 C 0.46342 0.4216 0.16542 0.0
C140 C 0.48531 0.3742 0.19457 0.0
C141 C 0.53411 0.32048 0.37925 0.0
H142 H 0.4867 0.34278 0.09796 0.0
C143 C 0.52753 0.3014 0.53749 0.0
C144 C 0.55744 0.2586 0.56968 0.0
C145 C 0.5697 0.29537 0.25452 0.0
H146 H 0.57625 0.30942 0.13335 0.0
C147 C 0.59916 0.25311 0.28647 0.0
H148 H 0.4997 0.31987 0.6345 0.0
C149 C 0.59356 0.23522 0.44272 0.0
H150 H 0.61702 0.20229 0.46347 0.0
H151 H 0.62686 0.23435 0.18996 0.0
Tb152 Tb 0.03005 0.98006 0.69782 0.0
C153 C 0.16271 1.00226 0.63026 0.0
Tb154 Tb 0.09079 0.03394 -0.04184 0.0
O155 O 0.99591 0.05278 0.64001 0.0
O156 O 0.07215 0.0524 0.72814 0.0
O157 O 0.1164 0.97742 0.58529 0.0
C158 C 0.11373 0.11348 0.17846 0.0
O159 O 0.16238 0.03229 0.77081 0.0
C160 C 0.08472 0.92996 0.9557 0.0
C161 C 0.95607 1.01342 0.01064 0.0
O162 O 0.1335 0.06726 0.16928 0.0
O163 O 0.08224 0.11448 0.05905 0.0
O164 O 0.12681 0.96012 -0.00294 0.0
O165 O 0.04818 0.96072 0.92959 0.0
O166 O 1.00228 0.03575 0.06793 0.0
O167 O 0.95766 0.98432 0.87004 0.0
C168 C 1.01118 0.89756 0.49076 0.0
O169 O 0.98785 0.94202 0.49525 0.0
O170 O 0.04361 0.89997 0.60832 0.0
C171 C 0.03659 0.08251 0.69272 0.0
Tb172 Tb 0.56444 0.14149 0.84182 0.0
C173 C 0.63887 0.0774 0.57527 0.0
Tb174 Tb 0.56063 1.0235 0.84055 0.0
O175 O 0.64874 0.14655 0.93176 0.0
O176 O 0.59564 0.08588 -0.01873 0.0
O177 O 0.60645 0.11709 0.60585 0.0
C178 C 0.58447 0.92442 0.83798 0.0
O179 O 0.63469 0.03864 0.67089 0.0
C180 C 0.48157 0.06205 0.69191 0.0
C181 C 0.48504 0.08854 0.11552 0.0
O182 O 0.57861 0.94854 0.70932 0.0
O183 O 0.57618 0.95579 -0.03003 0.0
O184 O 0.47623 1.01878 0.76048 0.0
O185 O 0.5315 0.07784 0.69614 0.0
O186 O 0.50789 0.04345 0.06586 0.0
O187 O 0.49919 0.13232 0.04553 0.0
C188 C 0.54963 0.23394 0.72718 0.0
O189 O 0.51253 0.19664 0.74366 0.0
O190 O 0.5927 0.22049 0.79589 0.0
C191 C 0.64559 0.10106 -0.01266 0.0
Tb192 Tb 0.54133 0.60421 0.60525 0.0
C193 C 0.41438 0.57679 0.59999 0.0
Tb194 Tb 0.48567 0.52591 0.84208 0.0
O195 O 0.52575 0.55027 0.39312 0.0
O196 O 0.53456 0.52293 0.6178 0.0
O197 O 0.45271 0.61465 0.60655 0.0
C198 C 0.46083 0.43903 0.00015 0.0
O199 O 0.42129 0.53296 0.66761 0.0
C200 C 0.47942 0.62563 0.95035 0.0
C201 C 0.61463 0.56676 0.86932 0.0
O202 O 0.42764 0.47578 -0.01791 0.0
O203 O 0.50727 0.45082 0.91722 0.0
O204 O 0.44755 0.58904 0.01109 0.0
O205 O 0.51493 0.60263 0.85423 0.0
O206 O 0.57139 0.53721 0.9279 0.0
O207 O 0.61197 0.59604 0.7449 0.0
C208 C 0.56966 0.68605 0.43461 0.0
O209 O 0.59644 0.64323 0.42594 0.0
O210 O 0.53195 0.68401 0.5575 0.0
C211 C 0.52167 0.50999 0.47584 0.0
Tb212 Tb 0.96935 0.52218 0.65311 0.0
C213 C 0.99765 0.40198 0.62354 0.0
Tb214 Tb 0.03711 0.48465 0.8996 0.0
O215 O 0.0447 0.55947 0.53741 0.0
O216 O 0.05004 0.49443 0.65324 0.0
O217 O 0.96722 0.43895 0.57955 0.0
C218 C 0.12651 0.4711 0.06433 0.0
O219 O 0.03473 0.41254 0.73378 0.0
C220 C 0.92775 0.4739 -0.03489 0.0
C221 C 1.00118 0.60564 0.927 0.0
O222 O 0.08066 0.44292 0.06462 0.0
O223 O 0.12117 0.50758 -0.03061 0.0
O224 O 0.96432 0.44376 0.00966 0.0
O225 O 0.95484 0.51099 0.90427 0.0
O226 O 0.03159 0.57001 -0.01611 0.0
O227 O 0.96863 0.59322 0.8074 0.0
C228 C 0.87856 0.52845 0.49127 0.0
O229 O 0.92494 0.55547 0.47005 0.0
O230 O 0.88481 0.49733 0.60219 0.0
C231 C 0.07945 0.52951 0.5919 0.0
loop_
_geom_bond_atom_site_label_1
_geom_bond_atom_site_label_2
_geom_bond_distance
_geom_bond_site_symmetry_2
_ccdc_geom_bond_type
H0 C1 0.949 . S
C1 H0 0.949 . S
C1 C2 1.395 . S
C1 C3 1.391 1_556 S
C2 C1 1.395 . S
C2 C5 1.390 1_556 S
C3 C1 1.391 1_554 S
C3 C7 1.387 . S
C3 C8 1.491 . S
H4 C5 0.950 . S
C5 C2 1.390 1_554 S
C5 H4 0.950 . S
C5 C6 1.378 . S
C6 C5 1.378 . S
C6 C7 1.409 . S
C7 C3 1.387 . S
C7 C6 1.409 . S
C7 H9 0.951 . S
C8 C3 1.491 . S
C8 C10 1.382 1_554 S
C8 C12 1.404 . S
H9 C7 0.951 . S
C10 C8 1.382 1_556 S
C10 C11 1.390 . S
C10 H15 0.949 . S
C11 C10 1.390 . S
C11 C16 1.399 1_556 S
C12 C8 1.404 . S
C12 H13 0.950 . S
C12 C14 1.375 . S
H13 C12 0.950 . S
C14 C12 1.375 . S
C14 C16 1.382 . S
C14 H18 0.950 . S
H15 C10 0.949 . S
C16 C11 1.399 1_554 S
C16 C14 1.382 . S
C16 H17 0.952 . S
H17 C16 0.952 . S
H18 C14 0.950 . S
H19 C20 0.949 . S
C20 H19 0.949 . S
C20 C21 1.395 . S
C20 C22 1.391 1_556 S
C21 C20 1.395 . S
C21 C24 1.390 1_556 S
C22 C20 1.391 1_554 S
C22 C26 1.387 . S
C22 C27 1.491 . S
H23 C24 0.950 . S
C24 C21 1.390 1_554 S
C24 H23 0.950 . S
C24 C25 1.378 . S
C25 C24 1.378 . S
C25 C26 1.409 . S
C26 C22 1.387 . S
C26 C25 1.409 . S
C26 H28 0.951 . S
C27 C22 1.491 . S
C27 C29 1.382 1_554 S
C27 C31 1.404 . S
H28 C26 0.951 . S
C29 C27 1.382 1_556 S
C29 C30 1.390 . S
C29 H34 0.949 . S
C30 C29 1.390 . S
C30 C35 1.399 1_556 S
C31 C27 1.404 . S
C31 H32 0.950 . S
C31 C33 1.375 . S
H32 C31 0.950 . S
C33 C31 1.375 . S
C33 C35 1.382 . S
C33 H37 0.950 . S
H34 C29 0.949 . S
C35 C30 1.399 1_554 S
C35 C33 1.382 . S
C35 H36 0.952 . S
H36 C35 0.952 . S
H37 C33 0.950 . S
H38 C39 0.949 1_556 S
C39 H38 0.949 1_554 S
C39 C40 1.395 . S
C39 C41 1.391 . S
C40 C39 1.395 . S
C40 C43 1.390 . S
C41 C39 1.391 . S
C41 C45 1.387 . S
C41 C46 1.491 . S
H42 C43 0.950 . S
C43 C40 1.390 . S
C43 H42 0.950 . S
C43 C44 1.378 . S
C44 C43 1.378 . S
C44 C45 1.409 . S
C45 C41 1.387 . S
C45 C44 1.409 . S
C45 H47 0.951 . S
C46 C41 1.491 . S
C46 C48 1.382 . S
C46 C50 1.404 . S
H47 C45 0.951 . S
C48 C46 1.382 . S
C48 C49 1.390 1_554 S
C48 H53 0.949 1_554 S
C49 C48 1.390 1_556 S
C49 C54 1.399 1_556 S
C50 C46 1.404 . S
C50 H51 0.950 . S
C50 C52 1.375 . S
H51 C50 0.950 . S
C52 C50 1.375 . S
C52 C54 1.382 . S
C52 H56 0.950 . S
H53 C48 0.949 1_556 S
C54 C49 1.399 1_554 S
C54 C52 1.382 . S
C54 H55 0.952 . S
H55 C54 0.952 . S
H56 C52 0.950 . S
H57 C58 0.949 . S
C58 H57 0.949 . S
C58 C59 1.395 . S
C58 C60 1.391 1_556 S
C59 C58 1.395 . S
C59 C62 1.390 1_556 S
C60 C58 1.391 1_554 S
C60 C64 1.387 . S
C60 C65 1.491 . S
H61 C62 0.950 . S
C62 C59 1.390 1_554 S
C62 H61 0.950 . S
C62 C63 1.378 . S
C63 C62 1.378 . S
C63 C64 1.409 . S
C64 C60 1.387 . S
C64 C63 1.409 . S
C64 H66 0.951 . S
C65 C60 1.491 . S
C65 C67 1.382 . S
C65 C69 1.404 . S
H66 C64 0.951 . S
C67 C65 1.382 . S
C67 C68 1.390 1_554 S
C67 H72 0.949 1_554 S
C68 C67 1.390 1_556 S
C68 C73 1.399 1_556 S
C69 C65 1.404 . S
C69 H70 0.950 . S
C69 C71 1.375 . S
H70 C69 0.950 . S
C71 C69 1.375 . S
C71 C73 1.382 . S
C71 H75 0.950 . S
H72 C67 0.949 1_556 S
C73 C68 1.399 1_554 S
C73 C71 1.382 . S
C73 H74 0.952 . S
H74 C73 0.952 . S
H75 C71 0.950 . S
H76 C77 0.949 . S
C77 H76 0.949 . S
C77 C78 1.395 . S
C77 C79 1.391 . S
C78 C77 1.395 . S
C78 C81 1.390 . S
C79 C77 1.391 . S
C79 C83 1.387 . S
C79 C84 1.491 . S
H80 C81 0.950 . S
C81 C78 1.390 . S
C81 H80 0.950 . S
C81 C82 1.378 . S
C82 C81 1.378 . S
C82 C83 1.409 . S
C83 C79 1.387 . S
C83 C82 1.409 . S
C83 H85 0.951 . S
C84 C79 1.491 . S
C84 C86 1.382 . S
C84 C88 1.404 . S
H85 C83 0.951 . S
C86 C84 1.382 . S
C86 C87 1.390 . S
C86 H91 0.949 . S
C87 C86 1.390 . S
C87 C92 1.399 . S
C88 C84 1.404 . S
C88 H89 0.950 . S
C88 C90 1.375 . S
H89 C88 0.950 . S
C90 C88 1.375 . S
C90 C92 1.382 . S
C90 H94 0.950 . S
H91 C86 0.949 . S
C92 C87 1.399 . S
C92 C90 1.382 . S
C92 H93 0.952 . S
H93 C92 0.952 . S
H94 C90 0.950 . S
H95 C96 0.949 . S
C96 H95 0.949 . S
C96 C97 1.395 . S
C96 C98 1.391 . S
C97 C96 1.395 . S
C97 C100 1.390 . S
C98 C96 1.391 . S
C98 C102 1.387 . S
C98 C103 1.491 . S
H99 C100 0.950 . S
C100 C97 1.390 . S
C100 H99 0.950 . S
C100 C101 1.378 . S
C101 C100 1.378 . S
C101 C102 1.409 . S
C102 C98 1.387 . S
C102 C101 1.409 . S
C102 H104 0.951 . S
C103 C98 1.491 . S
C103 C105 1.382 . S
C103 C107 1.404 1_455 S
H104 C102 0.951 . S
C105 C103 1.382 . S
C105 C106 1.390 . S
C105 H110 0.949 . S
C106 C105 1.390 . S
C106 C111 1.399 1_455 S
C107 C103 1.404 1_655 S
C107 H108 0.950 . S
C107 C109 1.375 . S
H108 C107 0.950 . S
C109 C107 1.375 . S
C109 C111 1.382 . S
C109 H113 0.950 . S
H110 C105 0.949 . S
C111 C106 1.399 1_655 S
C111 C109 1.382 . S
C111 H112 0.952 . S
H112 C111 0.952 . S
H113 C109 0.950 . S
H114 C115 0.949 . S
C115 H114 0.949 . S
C115 C116 1.395 . S
C115 C117 1.391 . S
C116 C115 1.395 . S
C116 C119 1.390 . S
C117 C115 1.391 . S
C117 C121 1.387 . S
C117 C122 1.491 . S
H118 C119 0.950 . S
C119 C116 1.390 . S
C119 H118 0.950 . S
C119 C120 1.378 . S
C120 C119 1.378 . S
C120 C121 1.409 . S
C121 C117 1.387 . S
C121 C120 1.409 . S
C121 H123 0.951 . S
C122 C117 1.491 . S
C122 C124 1.382 . S
C122 C126 1.404 1_545 S
H123 C121 0.951 . S
C124 C122 1.382 . S
C124 C125 1.390 . S
C124 H129 0.949 . S
C125 C124 1.390 . S
C125 C130 1.399 . S
C126 C122 1.404 1_565 S
C126 H127 0.950 . S
C126 C128 1.375 . S
H127 C126 0.950 . S
C128 C126 1.375 . S
C128 C130 1.382 1_565 S
C128 H132 0.950 . S
H129 C124 0.949 . S
C130 C125 1.399 . S
C130 C128 1.382 1_545 S
C130 H131 0.952 1_545 S
H131 C130 0.952 1_565 S
H132 C128 0.950 . S
H133 C134 0.949 . S
C134 H133 0.949 . S
C134 C135 1.395 . S
C134 C136 1.391 . S
C135 C134 1.395 . S
C135 C138 1.390 . S
C136 C134 1.391 . S
C136 C140 1.387 . S
C136 C141 1.491 . S
H137 C138 0.950 . S
C138 C135 1.390 . S
C138 H137 0.950 . S
C138 C139 1.378 . S
C139 C138 1.378 . S
C139 C140 1.409 . S
C140 C136 1.387 . S
C140 C139 1.409 . S
C140 H142 0.951 . S
C141 C136 1.491 . S
C141 C143 1.382 . S
C141 C145 1.404 . S
H142 C140 0.951 . S
C143 C141 1.382 . S
C143 C144 1.390 . S
C143 H148 0.949 . S
C144 C143 1.390 . S
C144 C149 1.399 . S
C145 C141 1.404 . S
C145 H146 0.950 . S
C145 C147 1.375 . S
H146 C145 0.950 . S
C147 C145 1.375 . S
C147 C149 1.382 . S
C147 H151 0.950 . S
H148 C143 0.949 . S
C149 C144 1.399 . S
C149 C147 1.382 . S
C149 H150 0.952 . S
H150 C149 0.952 . S
H151 C147 0.950 . S
Tb152 O155 2.453 1_565 S
Tb152 O156 2.596 1_665 S
Tb152 O157 2.374 1_665 S
Tb152 O165 2.343 1_655 S
Tb152 O167 2.353 1_565 S
Tb152 O169 2.427 . S
Tb152 O170 2.513 1_655 S
C153 O157 1.251 . S
C153 O159 1.263 . S
Tb154 O156 2.343 1_554 S
Tb154 O159 2.353 1_554 S
Tb154 O162 2.427 . S
Tb154 O163 2.513 1_455 S
Tb154 O164 2.453 1_545 S
Tb154 O165 2.596 1_544 S
Tb154 O166 2.374 1_455 S
O155 Tb152 2.453 1_545 S
O155 C171 1.245 1_655 S
O156 Tb152 2.596 1_445 S
O156 Tb154 2.343 1_556 S
O156 C171 1.259 . S
O157 Tb152 2.374 1_445 S
O157 C153 1.251 . S
C158 O162 1.275 . S
C158 O163 1.246 1_455 S
O159 C153 1.263 . S
O159 Tb154 2.353 1_556 S
C160 O164 1.247 1_556 S
C160 O165 1.259 . S
C161 O166 1.250 1_556 S
C161 O167 1.263 . S
O162 Tb154 2.427 . S
O162 C158 1.275 . S
O163 Tb154 2.513 1_655 S
O163 C158 1.246 1_655 S
O164 Tb154 2.453 1_565 S
O164 C160 1.247 1_554 S
O165 Tb152 2.343 1_455 S
O165 Tb154 2.596 1_566 S
O165 C160 1.259 . S
O166 Tb154 2.374 1_655 S
O166 C161 1.250 1_554 S
O167 Tb152 2.353 1_545 S
O167 C161 1.263 . S
C168 O169 1.275 . S
C168 O170 1.246 1_655 S
O169 Tb152 2.427 . S
O169 C168 1.275 . S
O170 Tb152 2.513 1_455 S
O170 C168 1.246 1_455 S
C171 O155 1.245 1_455 S
C171 O156 1.259 . S
Tb172 O175 2.453 1_556 S
Tb172 O176 2.596 1_545 S
Tb172 O177 2.374 . S
Tb172 O185 2.343 . S
Tb172 O187 2.353 1_556 S
Tb172 O189 2.427 . S
Tb172 O190 2.513 . S
C173 O177 1.251 1_565 S
C173 O179 1.263 . S
Tb174 O176 2.343 . S
Tb174 O179 2.353 . S
Tb174 O182 2.427 . S
Tb174 O183 2.513 1_556 S
Tb174 O184 2.453 . S
Tb174 O185 2.596 1_565 S
Tb174 O186 2.374 1_556 S
O175 Tb172 2.453 1_554 S
O175 C191 1.245 1_554 S
O176 Tb172 2.596 1_565 S
O176 Tb174 2.343 . S
O176 C191 1.259 1_565 S
O177 Tb172 2.374 . S
O177 C173 1.251 1_545 S
C178 O182 1.275 . S
C178 O183 1.246 1_556 S
O179 C173 1.263 . S
O179 Tb174 2.353 . S
C180 O184 1.245 1_545 S
C180 O185 1.259 . S
C181 O186 1.250 1_545 S
C181 O187 1.263 . S
O182 Tb174 2.427 . S
O182 C178 1.275 . S
O183 Tb174 2.513 1_554 S
O183 C178 1.246 1_554 S
O184 Tb174 2.453 . S
O184 C180 1.245 1_565 S
O185 Tb172 2.343 . S
O185 Tb174 2.596 1_545 S
O185 C180 1.259 . S
O186 Tb174 2.374 1_554 S
O186 C181 1.250 1_565 S
O187 Tb172 2.353 1_554 S
O187 C181 1.263 . S
C188 O189 1.275 . S
C188 O190 1.246 . S
O189 Tb172 2.427 . S
O189 C188 1.275 . S
O190 Tb172 2.513 . S
O190 C188 1.246 . S
C191 O175 1.245 1_556 S
C191 O176 1.259 1_545 S
Tb192 O195 2.453 . S
Tb192 O196 2.596 . S
Tb192 O197 2.374 . S
Tb192 O205 2.343 . S
Tb192 O207 2.353 . S
Tb192 O209 2.427 . S
Tb192 O210 2.513 . S
C193 O197 1.251 . S
C193 O199 1.263 . S
Tb194 O196 2.343 1_554 S
Tb194 O199 2.353 1_554 S
Tb194 O202 2.427 . S
Tb194 O203 2.513 . S
Tb194 O204 2.453 . S
Tb194 O205 2.596 1_554 S
Tb194 O206 2.374 1_554 S
O195 Tb192 2.453 . S
O195 C211 1.245 . S
O196 Tb192 2.596 . S
O196 Tb194 2.343 1_556 S
O196 C211 1.259 . S
O197 Tb192 2.374 . S
O197 C193 1.251 . S
C198 O202 1.275 . S
C198 O203 1.246 . S
O199 C193 1.263 . S
O199 Tb194 2.353 1_556 S
C200 O204 1.245 1_556 S
C200 O205 1.259 . S
C201 O206 1.250 . S
C201 O207 1.263 . S
O202 Tb194 2.427 . S
O202 C198 1.275 . S
O203 Tb194 2.513 . S
O203 C198 1.246 . S
O204 Tb194 2.453 . S
O204 C200 1.245 1_554 S
O205 Tb192 2.343 . S
O205 Tb194 2.596 1_556 S
O205 C200 1.259 . S
O206 Tb194 2.374 1_556 S
O206 C201 1.250 . S
O207 Tb192 2.353 . S
O207 C201 1.263 . S
C208 O209 1.275 . S
C208 O210 1.246 . S
O209 Tb192 2.427 . S
O209 C208 1.275 . S
O210 Tb192 2.513 . S
O210 C208 1.246 . S
C211 O195 1.245 . S
C211 O196 1.259 . S
Tb212 O215 2.453 . S
Tb212 O216 2.596 . S
Tb212 O217 2.374 . S
Tb212 O225 2.343 1_455 S
Tb212 O227 2.353 . S
Tb212 O229 2.427 1_455 S
Tb212 O230 2.513 1_455 S
C213 O217 1.251 . S
C213 O219 1.263 . S
Tb214 O216 2.343 1_554 S
Tb214 O219 2.353 1_554 S
Tb214 O222 2.427 . S
Tb214 O223 2.513 . S
Tb214 O224 2.453 1_455 S
Tb214 O225 2.596 1_454 S
Tb214 O226 2.374 . S
O215 Tb212 2.453 . S
O215 C231 1.245 . S
O216 Tb212 2.596 . S
O216 Tb214 2.343 1_556 S
O216 C231 1.259 . S
O217 Tb212 2.374 . S
O217 C213 1.251 . S
C218 O222 1.275 . S
C218 O223 1.246 . S
O219 C213 1.263 . S
O219 Tb214 2.353 1_556 S
C220 O224 1.245 1_556 S
C220 O225 1.259 . S
C221 O226 1.250 1_556 S
C221 O227 1.263 . S
O222 Tb214 2.427 . S
O222 C218 1.275 . S
O223 Tb214 2.513 . S
O223 C218 1.246 . S
O224 Tb214 2.453 1_655 S
O224 C220 1.245 1_554 S
O225 Tb212 2.343 1_655 S
O225 Tb214 2.596 1_656 S
O225 C220 1.259 . S
O226 Tb214 2.374 . S
O226 C221 1.250 1_554 S
O227 Tb212 2.353 . S
O227 C221 1.263 . S
C228 O229 1.275 . S
C228 O230 1.246 . S
O229 Tb212 2.427 1_655 S
O229 C228 1.275 . S
O230 Tb212 2.513 1_655 S
O230 C228 1.246 . S
C231 O215 1.245 . S
C231 O216 1.259 . S
C125 C153 1.501 . S
C188 C144 1.445 . S
C193 C87 1.260 . S
C213 C106 1.422 . S
C161 C49 1.888 1_545 S
C68 C178 1.955 . S
C11 C201 1.588 . S
C30 C221 1.772 1_655 S
C171 C97 1.689 . S
C180 C116 1.466 . S
C211 C135 1.750 . S
C78 C231 0.997 . S
C21 C160 1.693 1_655 S
C191 C40 1.474 1_546 S
C200 C59 1.760 . S
C2 C220 1.002 . S
C101 C158 1.349 . S
C120 C181 1.681 . S
C198 C139 1.461 . S
C218 C82 1.526 . S
C25 C168 1.359 . S
C173 C44 1.698 . S
C208 C63 1.478 . S
C6 C228 1.535 . S
