# Generated by pormake.
# Topology tsx, (6,3)-cn, num edge types: 1
# Building blocks:
#     Node 0, Type 0, BuildingBlock: LEVNOQ01_clean_sbu_1, # of connection points: 6
#     Node 1, Type 0, BuildingBlock: LEVNOQ01_clean_sbu_1, # of connection points: 6
#     Node 2, Type 1, BuildingBlock: CUQRIR_clean_linker_1, # of connection points: 3
#     Node 3, Type 1, BuildingBlock: CUQRIR_clean_linker_1, # of connection points: 3
#     Node 4, Type 1, BuildingBlock: CUQRIR_clean_linker_1, # of connection points: 3
#     Node 5, Type 1, BuildingBlock: CUQRIR_clean_linker_1, # of connection points: 3
#     Edge 6, Type (0, 1), BuildingBlock: OJICUG_clean_linker_0, # of connection points: 2
#     Edge 7, Type (0, 1), BuildingBlock: OJICUG_clean_linker_0, # of connection points: 2
#     Edge 8, Type (0, 1), BuildingBlock: OJICUG_clean_linker_0, # of connection points: 2
#     Edge 9, Type (0, 1), BuildingBlock: OJICUG_clean_linker_0, # of connection points: 2
#     Edge 10, Type (0, 1), BuildingBlock: OJICUG_clean_linker_0, # of connection points: 2
#     Edge 11, Type (0, 1), BuildingBlock: OJICUG_clean_linker_0, # of connection points: 2
#     Edge 12, Type (0, 1), BuildingBlock: OJICUG_clean_linker_0, # of connection points: 2
#     Edge 13, Type (0, 1), BuildingBlock: OJICUG_clean_linker_0, # of connection points: 2
#     Edge 14, Type (0, 1), BuildingBlock: OJICUG_clean_linker_0, # of connection points: 2
#     Edge 15, Type (0, 1), BuildingBlock: OJICUG_clean_linker_0, # of connection points: 2
#     Edge 16, Type (0, 1), BuildingBlock: OJICUG_clean_linker_0, # of connection points: 2
#     Edge 17, Type (0, 1), BuildingBlock: OJICUG_clean_linker_0, # of connection points: 2
# Relax obj value: 0.164
# Max RMSD: 0.172
# Mean RMSD: 0.160
data_MOF--net-tsx--node1-LEVNOQ01_clean_sbu_1--node2-CUQRIR_clean_linker_1--edge1-OJICUG_clean_linker_0
_symmetry_space_group_name_H-M    P1
_symmetry_Int_Tables_number       1
_symmetry_cell_setting            triclinic
loop_
_symmetry_equiv_pos_as_xyz
'x, y, z'
_cell_length_a     11.523873
_cell_length_b     13.983073
_cell_length_c     25.585596
_cell_angle_alpha  84.539661
_cell_angle_beta   94.307883
_cell_angle_gamma 92.8324
loop_
_atom_site_label
_atom_site_type_symbol
_atom_site_fract_x
_atom_site_fract_y
_atom_site_fract_z
_atom_type_partial_charge
O0 O 0.28103 1.03372 0.05794 0.0
Mg1 Mg 0.33727 0.10442 -0.01449 0.0
O2 O 0.0903 0.03726 0.03611 0.0
Mg3 Mg 0.08733 0.07992 -0.05248 0.0
O4 O 0.21893 0.20615 -0.03741 0.0
O5 O 0.40508 0.24248 -0.01424 0.0
O6 O 0.10021 0.12975 0.85957 0.0
O7 O 0.94877 0.19215 -0.05455 0.0
Mg8 Mg 0.91086 1.00455 0.86557 0.0
O9 O 0.94398 0.96242 -0.05754 0.0
O10 O 0.0601 0.99729 0.8219 0.0
O11 O 0.85701 0.1487 0.87019 0.0
O12 O 0.81115 0.88376 0.8942 0.0
C13 C 0.30883 0.96113 0.91421 0.0
C14 C 0.17575 1.01979 0.06987 0.0
C15 C 0.30127 0.27007 -0.0282 0.0
C16 C 0.10573 0.08166 0.82026 0.0
C17 C 0.87688 0.20797 0.90516 0.0
C18 C 0.86283 0.89586 -0.06034 0.0
O19 O 0.38004 1.03016 0.92273 0.0
O20 O 0.21045 0.95682 0.93415 0.0
O21 O 0.76276 0.49862 0.55918 0.0
Mg22 Mg 0.81498 0.56964 0.48612 0.0
O23 O 0.58194 0.53978 0.53807 0.0
Mg24 Mg 0.61227 0.56926 0.44949 0.0
O25 O 0.74661 0.70358 0.46946 0.0
O26 O 0.92688 0.67728 0.50589 0.0
O27 O 0.65553 0.59895 0.35994 0.0
O28 O 0.47318 0.6879 0.43457 0.0
Mg29 Mg 0.44215 0.50305 0.36108 0.0
O30 O 0.47047 0.4534 0.43798 0.0
O31 O 0.59327 0.46426 0.3276 0.0
O32 O 0.41889 0.6545 0.35263 0.0
O33 O 0.29591 0.44197 0.39744 0.0
C34 C 0.81648 0.42228 0.42793 0.0
C35 C 0.65965 0.50633 0.57216 0.0
C36 C 0.84557 0.73599 0.49102 0.0
C37 C 0.65537 0.54172 0.32368 0.0
C38 C 0.41944 0.70935 0.38947 0.0
C39 C 0.35948 0.44104 0.44102 0.0
O40 O 0.88468 0.49546 0.42728 0.0
O41 O 0.72153 0.42682 0.44987 0.0
C42 C 1.00091 1.01513 0.35684 0.0
N43 N 0.06122 0.97096 0.32361 0.0
N44 N 0.93777 0.08721 0.33116 0.0
C45 C 1.0064 0.98787 0.4144 0.0
C46 C 0.96006 0.0825 0.2803 0.0
N47 N 0.03435 1.01226 0.27577 0.0
C48 C 0.91511 0.15097 0.23534 0.0
H49 H 1.00045 0.90879 0.42222 0.0
H50 H 0.93257 1.01731 0.43115 0.0
H51 H 0.09131 1.0131 0.43248 0.0
H52 H 0.98493 0.20564 0.22532 0.0
H53 H 0.83818 0.1878 0.24593 0.0
H54 H 0.8911 0.11195 0.20004 0.0
C55 C 1.01074 0.18666 0.53127 0.0
N56 N 0.06076 0.23988 0.56864 0.0
N57 N 0.92898 0.12257 0.5508 0.0
C58 C 0.0578 0.18626 0.47858 0.0
C59 C 0.93081 0.14181 0.60175 0.0
N60 N 1.0138 0.21062 0.61331 0.0
C61 C 0.86659 0.07995 0.64256 0.0
H62 H 0.0877 0.25927 0.46308 0.0
H63 H 0.98947 0.15967 0.45127 0.0
H64 H 0.1335 0.13958 0.4822 0.0
H65 H 0.92013 1.01831 0.65803 0.0
H66 H 0.78267 0.05127 0.62483 0.0
H67 H 0.84996 0.12175 0.6758 0.0
C68 C 0.57391 0.59495 0.8559 0.0
N69 N 0.61266 0.52822 0.82758 0.0
N70 N 0.48151 0.63848 0.82996 0.0
C71 C 0.63777 0.62585 0.90531 0.0
C72 C 0.46609 0.59617 0.78443 0.0
N73 N 0.54633 0.52885 0.78262 0.0
C74 C 0.38338 0.62961 0.73876 0.0
H75 H 0.6494 0.56351 0.93508 0.0
H76 H 0.59242 0.68169 0.92245 0.0
H77 H 0.72583 0.65469 0.89572 0.0
H78 H 0.43375 0.66686 0.70694 0.0
H79 H 0.31972 0.67929 0.75025 0.0
H80 H 0.33543 0.56674 0.72285 0.0
C81 C 0.46068 0.68563 0.04369 0.0
N82 N 0.55685 0.70127 0.07605 0.0
N83 N 0.39828 0.60494 0.06028 0.0
C84 C 0.423 0.75372 -0.00256 0.0
C85 C 0.45784 0.57516 0.10631 0.0
N86 N 0.55557 0.6314 0.11485 0.0
C87 C 0.41639 0.4933 0.14411 0.0
H88 H 0.40085 0.82235 0.01199 0.0
H89 H 0.49497 0.77081 -0.02862 0.0
H90 H 0.34497 0.72429 -0.02442 0.0
H91 H 0.42308 0.4241 0.12685 0.0
H92 H 0.32405 0.5021 0.15117 0.0
H93 H 0.46499 0.49015 0.1831 0.0
C94 C 0.34667 0.44291 -0.04692 0.0
C95 C 0.27695 0.37039 -0.02215 0.0
H96 H 0.44367 0.57454 -0.03889 0.0
C97 C 0.21834 0.39077 0.02138 0.0
H98 H 0.38706 0.43044 0.91779 0.0
C99 C 0.24498 0.47674 0.04472 0.0
C100 C 0.33419 0.54058 0.02613 0.0
H101 H 0.16255 0.3361 0.0409 0.0
H102 H 0.20395 0.4884 0.08003 0.0
C103 C 0.37726 0.52634 -0.02246 0.0
C104 C 0.45624 0.88772 0.86556 0.0
C105 C 0.34495 0.88243 0.88507 0.0
H106 H 0.5859 0.81288 0.83183 0.0
C107 C 0.27264 0.79954 0.87882 0.0
H108 H 0.51325 0.95119 0.86852 0.0
C109 C 0.31575 0.71995 0.85841 0.0
C110 C 0.43007 0.72362 0.84289 0.0
H111 H 0.18575 0.79396 0.8926 0.0
H112 H 0.26231 0.6542 0.85699 0.0
C113 C 0.49807 0.80907 0.84449 0.0
C114 C 0.7482 0.8989 0.01795 0.0
C115 C 0.81398 0.84685 -0.01281 0.0
H116 H 0.61229 0.89153 0.07168 0.0
C117 C 0.81066 0.74629 -0.0047 0.0
H118 H 0.74825 0.97665 0.0117 0.0
C119 C 0.73557 0.69818 0.03054 0.0
C120 C 0.6607 0.74986 0.05716 0.0
H121 H 0.85989 0.70485 -0.02833 0.0
H122 H 0.72688 0.62044 0.03291 0.0
C123 C 0.67097 0.8506 0.05234 0.0
C124 C 0.71554 0.31353 0.91379 0.0
C125 C 0.82261 0.30039 0.89408 0.0
H126 H 0.56481 0.39708 0.90681 0.0
C127 C 0.86386 0.36605 0.85395 0.0
H128 H 0.68167 0.26286 -0.05577 0.0
C129 C 0.79592 0.4417 0.83191 0.0
C130 C 0.68548 0.45171 0.84952 0.0
H131 H 0.94692 0.35686 0.83843 0.0
H132 H 0.82966 0.49138 0.80126 0.0
C133 C 0.64784 0.38887 0.89167 0.0
C134 C 0.77646 0.90556 0.4947 0.0
C135 C 0.86415 0.83776 0.50412 0.0
H136 H 0.72867 0.051 0.50253 0.0
C137 C 0.971 0.86613 0.52995 0.0
H138 H 0.69266 0.88594 0.47572 0.0
C139 C 0.99112 0.95942 0.54453 0.0
C140 C 0.90518 1.02737 0.53421 0.0
H141 H 0.04032 0.81631 0.53883 0.0
H142 H 0.07433 0.97911 0.56408 0.0
C143 C 0.79658 0.99964 0.5101 0.0
C144 C 0.77403 0.24993 0.40648 0.0
C145 C 0.84485 0.33525 0.40248 0.0
H146 H 0.74811 0.10338 0.3865 0.0
C147 C 0.94256 0.33789 0.37243 0.0
H148 H 0.69771 0.24545 0.42898 0.0
C149 C 0.97038 0.25723 0.34814 0.0
C150 C 0.90168 0.17152 0.35324 0.0
H151 H 0.99864 0.4022 0.36801 0.0
H152 H 0.0477 0.2607 0.32634 0.0
C153 C 0.80219 0.16878 0.38203 0.0
C154 C 0.34333 0.33011 0.5232 0.0
C155 C 0.305 0.41052 0.49063 0.0
H156 H 0.29152 0.21064 0.5768 0.0
C157 C 0.19799 0.44854 0.49887 0.0
H158 H 0.4255 0.29956 0.51749 0.0
C159 C 0.12382 0.39978 0.53414 0.0
C160 C 0.15385 0.31073 0.56026 0.0
H161 H 0.1667 0.51073 0.47426 0.0
H162 H 0.03602 0.4238 0.5348 0.0
C163 C 0.26746 0.27996 0.55768 0.0
C164 C 0.35992 0.87581 0.35776 0.0
C165 C 0.33222 0.78357 0.38135 0.0
H166 H 0.29363 1.00913 0.32161 0.0
C167 C 0.21462 0.7532 0.38393 0.0
H168 H 0.44999 0.89945 0.3536 0.0
C169 C 0.12615 0.81312 0.36268 0.0
C170 C 0.15316 0.9054 0.33917 0.0
H171 H 0.1913 0.68107 0.40034 0.0
H172 H 0.03615 0.78775 0.36477 0.0
C173 C 0.2708 0.93701 0.33777 0.0
C174 C 0.22072 0.04752 0.16329 0.0
C175 C 0.15254 0.99907 0.12547 0.0
H176 H 0.23237 0.09202 0.24129 0.0
C177 C 0.05371 0.94327 0.14035 0.0
H178 H 0.29575 0.09277 0.15239 0.0
C179 C 1.02061 0.94009 0.19196 0.0
C180 C 0.08454 0.99422 0.22849 0.0
H181 H 0.99961 0.90585 0.11163 0.0
H182 H 0.94089 0.90112 0.2025 0.0
C183 C 0.18556 0.04651 0.21419 0.0
C184 C 0.06493 0.2216 0.7557 0.0
C185 C 0.12 0.13398 0.7685 0.0
H186 H 0.98647 0.3164 0.69348 0.0
C187 C 0.16749 0.08921 0.72889 0.0
H188 H 0.02726 0.25703 0.78569 0.0
C189 C 0.14899 0.12617 0.67655 0.0
C190 C 0.07825 0.20517 0.66336 0.0
H191 H 0.21032 1.02176 0.73795 0.0
H192 H 0.17563 0.08541 0.64588 0.0
C193 C 0.04251 0.25635 0.70315 0.0
C194 C 0.71328 0.5464 0.66307 0.0
C195 C 0.63814 0.4962 0.6285 0.0
H196 H 0.73884 0.59909 0.73899 0.0
C197 C 0.53903 0.44604 0.64752 0.0
H198 H 0.78882 0.58745 0.649 0.0
C199 C 0.51411 0.44861 0.70026 0.0
C200 C 0.58609 0.50366 0.73391 0.0
H201 H 0.47974 0.40719 0.62139 0.0
H202 H 0.43526 0.41259 0.71401 0.0
C203 C 0.68609 0.55174 0.71482 0.0
C204 C 0.70748 0.51483 0.23369 0.0
C205 C 0.68376 0.57944 0.26998 0.0
H206 H 0.68861 0.48389 0.15292 0.0
C207 C 0.65429 0.67356 0.25104 0.0
H208 H 0.73135 0.44216 0.24724 0.0
C209 C 0.62793 0.69647 0.19712 0.0
C210 C 0.63229 0.62596 0.16196 0.0
H211 H 0.6361 0.7252 0.27803 0.0
H212 H 0.58954 0.76452 0.18392 0.0
C213 C 0.68364 0.53873 0.17975 0.0
loop_
_geom_bond_atom_site_label_1
_geom_bond_atom_site_label_2
_geom_bond_distance
_geom_bond_site_symmetry_2
_ccdc_geom_bond_type
O0 Mg1 1.990 . S
O0 C14 1.253 . S
Mg1 O0 1.990 . S
Mg1 O4 2.180 . S
Mg1 O5 2.117 . S
Mg1 O19 2.030 1_545 S
O2 Mg3 2.072 1_554 S
O2 C14 1.260 . S
Mg3 O2 2.072 1_556 S
Mg3 O4 2.099 1_556 S
Mg3 O6 2.079 . S
Mg3 O7 2.072 1_456 S
Mg3 O9 2.099 1_445 S
Mg3 O20 2.079 1_545 S
O4 Mg1 2.180 . S
O4 Mg3 2.099 1_554 S
O4 C15 1.279 . S
O5 Mg1 2.117 . S
O5 C15 1.250 . S
O6 Mg3 2.079 . S
O6 C16 1.264 . S
O7 Mg3 2.072 1_654 S
O7 C17 1.260 1_554 S
Mg8 O9 2.180 1_545 S
Mg8 O10 2.030 . S
Mg8 O11 1.990 . S
Mg8 O12 2.117 1_545 S
O9 Mg3 2.099 1_665 S
O9 Mg8 2.180 1_565 S
O9 C18 1.279 1_556 S
O10 Mg8 2.030 . S
O10 C16 1.248 1_655 S
O11 Mg8 1.990 . S
O11 C17 1.253 . S
O12 Mg8 2.117 1_565 S
O12 C18 1.250 1_556 S
C13 O19 1.248 . S
C13 O20 1.264 1_554 S
C14 O0 1.253 . S
C14 O2 1.260 . S
C15 O4 1.279 . S
C15 O5 1.250 . S
C16 O6 1.264 . S
C16 O10 1.248 1_455 S
C17 O7 1.260 1_556 S
C17 O11 1.253 . S
C18 O9 1.279 1_554 S
C18 O12 1.250 1_554 S
O19 Mg1 2.030 1_565 S
O19 C13 1.248 . S
O20 Mg3 2.079 1_565 S
O20 C13 1.264 1_556 S
O21 Mg22 1.990 . S
O21 C35 1.253 . S
Mg22 O21 1.990 . S
Mg22 O25 2.180 . S
Mg22 O26 2.117 . S
Mg22 O40 2.030 . S
O23 Mg24 2.072 . S
O23 C35 1.260 . S
Mg24 O23 2.072 . S
Mg24 O25 2.099 . S
Mg24 O27 2.079 . S
Mg24 O28 2.072 . S
Mg24 O30 2.099 . S
Mg24 O41 2.079 . S
O25 Mg22 2.180 . S
O25 Mg24 2.099 . S
O25 C36 1.279 . S
O26 Mg22 2.117 . S
O26 C36 1.250 . S
O27 Mg24 2.079 . S
O27 C37 1.264 . S
O28 Mg24 2.072 . S
O28 C38 1.260 . S
Mg29 O30 2.180 . S
Mg29 O31 2.030 . S
Mg29 O32 1.990 . S
Mg29 O33 2.117 . S
O30 Mg24 2.099 . S
O30 Mg29 2.180 . S
O30 C39 1.279 . S
O31 Mg29 2.030 . S
O31 C37 1.248 . S
O32 Mg29 1.990 . S
O32 C38 1.253 . S
O33 Mg29 2.117 . S
O33 C39 1.250 . S
C34 O40 1.248 . S
C34 O41 1.264 . S
C35 O21 1.253 . S
C35 O23 1.260 . S
C36 O25 1.279 . S
C36 O26 1.250 . S
C37 O27 1.264 . S
C37 O31 1.248 . S
C38 O28 1.260 . S
C38 O32 1.253 . S
C39 O30 1.279 . S
C39 O33 1.250 . S
O40 Mg22 2.030 . S
O40 C34 1.248 . S
O41 Mg24 2.079 . S
O41 C34 1.264 . S
C42 N43 1.317 1_545 S
C42 N44 1.348 1_455 S
C42 C45 1.485 1_545 S
N43 C42 1.317 1_565 S
N43 N47 1.370 1_565 S
N44 C42 1.348 1_655 S
N44 C46 1.346 . S
C45 C42 1.485 1_565 S
C45 H49 0.960 . S
C45 H50 0.961 1_565 S
C45 H51 0.960 . S
C46 N44 1.346 . S
C46 N47 1.307 1_655 S
C46 C48 1.486 . S
N47 N43 1.370 1_545 S
N47 C46 1.307 1_455 S
C48 C46 1.486 . S
C48 H52 0.960 . S
C48 H53 0.960 . S
C48 H54 0.959 . S
H49 C45 0.960 . S
H50 C45 0.961 1_545 S
H51 C45 0.960 . S
H52 C48 0.960 . S
H53 C48 0.960 . S
H54 C48 0.959 . S
C55 N56 1.317 . S
C55 N57 1.348 1_455 S
C55 C58 1.485 . S
N56 C55 1.317 . S
N56 N60 1.370 . S
N57 C55 1.348 1_655 S
N57 C59 1.346 . S
C58 C55 1.485 . S
C58 H62 0.960 1_455 S
C58 H63 0.961 . S
C58 H64 0.960 . S
C59 N57 1.346 . S
C59 N60 1.307 1_655 S
C59 C61 1.486 1_545 S
N60 N56 1.370 . S
N60 C59 1.307 1_455 S
C61 C59 1.486 1_565 S
C61 H65 0.960 . S
C61 H66 0.960 . S
C61 H67 0.959 1_565 S
H62 C58 0.960 1_655 S
H63 C58 0.961 . S
H64 C58 0.960 . S
H65 C61 0.960 . S
H66 C61 0.960 . S
H67 C61 0.959 1_545 S
C68 N69 1.317 . S
C68 N70 1.348 . S
C68 C71 1.485 1_556 S
N69 C68 1.317 . S
N69 N73 1.370 . S
N70 C68 1.348 . S
N70 C72 1.346 . S
C71 C68 1.485 1_554 S
C71 H75 0.960 . S
C71 H76 0.961 . S
C71 H77 0.960 . S
C72 N70 1.346 . S
C72 N73 1.307 . S
C72 C74 1.486 . S
N73 N69 1.370 . S
N73 C72 1.307 . S
C74 C72 1.486 . S
C74 H78 0.960 . S
C74 H79 0.960 . S
C74 H80 0.959 . S
H75 C71 0.960 . S
H76 C71 0.961 . S
H77 C71 0.960 . S
H78 C74 0.960 . S
H79 C74 0.960 . S
H80 C74 0.959 . S
C81 N82 1.317 . S
C81 N83 1.348 . S
C81 C84 1.485 1_554 S
N82 C81 1.317 . S
N82 N86 1.370 . S
N83 C81 1.348 . S
N83 C85 1.346 . S
C84 C81 1.485 1_556 S
C84 H88 0.960 . S
C84 H89 0.961 . S
C84 H90 0.960 . S
C85 N83 1.346 . S
C85 N86 1.307 . S
C85 C87 1.486 . S
N86 N82 1.370 . S
N86 C85 1.307 . S
C87 C85 1.486 . S
C87 H91 0.960 . S
C87 H92 0.960 . S
C87 H93 0.959 . S
H88 C84 0.960 . S
H89 C84 0.961 . S
H90 C84 0.960 . S
H91 C87 0.960 . S
H92 C87 0.960 . S
H93 C87 0.959 . S
C94 C95 1.387 1_556 S
C94 H98 0.950 . S
C94 C103 1.390 . S
C95 C94 1.387 1_554 S
C95 C97 1.387 . S
H96 C103 0.950 . S
C97 C95 1.387 . S
C97 C99 1.390 . S
C97 H101 0.950 . S
H98 C94 0.950 . S
C99 C97 1.390 . S
C99 C100 1.387 . S
C99 H102 0.950 . S
C100 C99 1.387 . S
C100 C103 1.387 1_554 S
H101 C97 0.950 . S
H102 C99 0.950 . S
C103 C94 1.390 . S
C103 H96 0.950 . S
C103 C100 1.387 1_556 S
C104 C105 1.387 1_556 S
C104 H108 0.950 . S
C104 C113 1.390 . S
C105 C104 1.387 1_554 S
C105 C107 1.387 . S
H106 C113 0.950 . S
C107 C105 1.387 . S
C107 C109 1.390 . S
C107 H111 0.950 . S
H108 C104 0.950 . S
C109 C107 1.390 . S
C109 C110 1.387 1_554 S
C109 H112 0.950 . S
C110 C109 1.387 1_556 S
C110 C113 1.387 . S
H111 C107 0.950 . S
H112 C109 0.950 . S
C113 C104 1.390 . S
C113 H106 0.950 . S
C113 C110 1.387 . S
C114 C115 1.387 . S
C114 H118 0.950 . S
C114 C123 1.390 . S
C115 C114 1.387 . S
C115 C117 1.387 1_554 S
H116 C123 0.950 . S
C117 C115 1.387 1_556 S
C117 C119 1.390 . S
C117 H121 0.950 . S
H118 C114 0.950 . S
C119 C117 1.390 . S
C119 C120 1.387 1_556 S
C119 H122 0.950 . S
C120 C119 1.387 1_554 S
C120 C123 1.387 . S
H121 C117 0.950 . S
H122 C119 0.950 . S
C123 C114 1.390 . S
C123 H116 0.950 . S
C123 C120 1.387 . S
C124 C125 1.387 1_554 S
C124 H128 0.950 . S
C124 C133 1.390 . S
C125 C124 1.387 1_556 S
C125 C127 1.387 . S
H126 C133 0.950 . S
C127 C125 1.387 . S
C127 C129 1.390 . S
C127 H131 0.950 . S
H128 C124 0.950 . S
C129 C127 1.390 . S
C129 C130 1.387 . S
C129 H132 0.950 . S
C130 C129 1.387 . S
C130 C133 1.387 1_556 S
H131 C127 0.950 . S
H132 C129 0.950 . S
C133 C124 1.390 . S
C133 H126 0.950 . S
C133 C130 1.387 1_554 S
C134 C135 1.387 . S
C134 H138 0.950 . S
C134 C143 1.390 . S
C135 C134 1.387 . S
C135 C137 1.387 . S
H136 C143 0.950 . S
C137 C135 1.387 . S
C137 C139 1.390 . S
C137 H141 0.950 . S
H138 C134 0.950 . S
C139 C137 1.390 . S
C139 C140 1.387 . S
C139 H142 0.950 . S
C140 C139 1.387 . S
C140 C143 1.387 . S
H141 C137 0.950 . S
H142 C139 0.950 . S
C143 C134 1.390 . S
C143 H136 0.950 . S
C143 C140 1.387 . S
C144 C145 1.387 . S
C144 H148 0.950 . S
C144 C153 1.390 . S
C145 C144 1.387 . S
C145 C147 1.387 . S
H146 C153 0.950 . S
C147 C145 1.387 . S
C147 C149 1.390 . S
C147 H151 0.950 . S
H148 C144 0.950 . S
C149 C147 1.390 . S
C149 C150 1.387 . S
C149 H152 0.950 . S
C150 C149 1.387 . S
C150 C153 1.387 . S
H151 C147 0.950 . S
H152 C149 0.950 . S
C153 C144 1.390 . S
C153 H146 0.950 . S
C153 C150 1.387 . S
C154 C155 1.387 . S
C154 H158 0.950 . S
C154 C163 1.390 . S
C155 C154 1.387 . S
C155 C157 1.387 . S
H156 C163 0.950 . S
C157 C155 1.387 . S
C157 C159 1.390 . S
C157 H161 0.950 . S
H158 C154 0.950 . S
C159 C157 1.390 . S
C159 C160 1.387 . S
C159 H162 0.950 . S
C160 C159 1.387 . S
C160 C163 1.387 . S
H161 C157 0.950 . S
H162 C159 0.950 . S
C163 C154 1.390 . S
C163 H156 0.950 . S
C163 C160 1.387 . S
C164 C165 1.387 . S
C164 H168 0.950 . S
C164 C173 1.390 . S
C165 C164 1.387 . S
C165 C167 1.387 . S
H166 C173 0.950 . S
C167 C165 1.387 . S
C167 C169 1.390 . S
C167 H171 0.950 . S
H168 C164 0.950 . S
C169 C167 1.390 . S
C169 C170 1.387 . S
C169 H172 0.950 . S
C170 C169 1.387 . S
C170 C173 1.387 . S
H171 C167 0.950 . S
H172 C169 0.950 . S
C173 C164 1.390 . S
C173 H166 0.950 . S
C173 C170 1.387 . S
C174 C175 1.387 1_545 S
C174 H178 0.950 . S
C174 C183 1.390 . S
C175 C174 1.387 1_565 S
C175 C177 1.387 . S
H176 C183 0.950 . S
C177 C175 1.387 . S
C177 C179 1.390 . S
C177 H181 0.950 . S
H178 C174 0.950 . S
C179 C177 1.390 . S
C179 C180 1.387 . S
C179 H182 0.950 . S
C180 C179 1.387 . S
C180 C183 1.387 1_565 S
H181 C177 0.950 . S
H182 C179 0.950 . S
C183 C174 1.390 . S
C183 H176 0.950 . S
C183 C180 1.387 1_545 S
C184 C185 1.387 . S
C184 H188 0.950 . S
C184 C193 1.390 . S
C185 C184 1.387 . S
C185 C187 1.387 1_455 S
H186 C193 0.950 . S
C187 C185 1.387 1_655 S
C187 C189 1.390 . S
C187 H191 0.950 1_545 S
H188 C184 0.950 . S
C189 C187 1.390 . S
C189 C190 1.387 1_655 S
C189 H192 0.950 . S
C190 C189 1.387 1_455 S
C190 C193 1.387 . S
H191 C187 0.950 1_565 S
H192 C189 0.950 . S
C193 C184 1.390 . S
C193 H186 0.950 . S
C193 C190 1.387 . S
C194 C195 1.387 . S
C194 H198 0.950 . S
C194 C203 1.390 . S
C195 C194 1.387 . S
C195 C197 1.387 . S
H196 C203 0.950 . S
C197 C195 1.387 . S
C197 C199 1.390 . S
C197 H201 0.950 . S
H198 C194 0.950 . S
C199 C197 1.390 . S
C199 C200 1.387 . S
C199 H202 0.950 . S
C200 C199 1.387 . S
C200 C203 1.387 . S
H201 C197 0.950 . S
H202 C199 0.950 . S
C203 C194 1.390 . S
C203 H196 0.950 . S
C203 C200 1.387 . S
C204 C205 1.387 . S
C204 H208 0.950 . S
C204 C213 1.390 . S
C205 C204 1.387 . S
C205 C207 1.387 . S
H206 C213 0.950 . S
C207 C205 1.387 . S
C207 C209 1.390 . S
C207 H211 0.950 . S
H208 C204 0.950 . S
C209 C207 1.390 . S
C209 C210 1.387 . S
C209 H212 0.950 . S
C210 C209 1.387 . S
C210 C213 1.387 . S
H211 C207 0.950 . S
H212 C209 0.950 . S
C213 C204 1.390 . S
C213 H206 0.950 . S
C213 C210 1.387 . S
C100 N83 1.439 . S
C95 C15 1.285 . S
C105 C13 1.496 . S
C110 N70 1.479 . S
C115 C18 1.300 . S
C120 N82 1.534 . S
C125 C17 1.414 . S
C130 N69 1.494 . S
C135 C36 1.285 . S
C140 N57 1.439 1_565 S
C145 C34 1.494 . S
C150 N44 1.480 . S
C160 N56 1.534 . S
C155 C39 1.299 . S
C170 N43 1.496 . S
C165 C38 1.418 . S
C175 C14 1.539 1_565 S
C180 N47 1.577 1_565 S
C185 C16 1.419 . S
C190 N60 1.452 . S
C200 N73 1.577 . S
C195 C35 1.539 . S
C205 C37 1.422 . S
C210 N86 1.452 . S
