# Generated by pormake.
# Topology anh, (6,3)-cn, num edge types: 1
# Building blocks:
#     Node 0, Type 0, BuildingBlock: HISSIN_clean_sbu_0, # of connection points: 6
#     Node 1, Type 0, BuildingBlock: HISSIN_clean_sbu_0, # of connection points: 6
#     Node 2, Type 0, BuildingBlock: HISSIN_clean_sbu_0, # of connection points: 6
#     Node 3, Type 1, BuildingBlock: BETDIP_clean_linker_0, # of connection points: 3
#     Node 4, Type 1, BuildingBlock: BETDIP_clean_linker_0, # of connection points: 3
#     Node 5, Type 1, BuildingBlock: BETDIP_clean_linker_0, # of connection points: 3
#     Node 6, Type 1, BuildingBlock: BETDIP_clean_linker_0, # of connection points: 3
#     Node 7, Type 1, BuildingBlock: BETDIP_clean_linker_0, # of connection points: 3
#     Node 8, Type 1, BuildingBlock: BETDIP_clean_linker_0, # of connection points: 3
#     Edge 9, Type (0, 1), None
#     Edge 10, Type (0, 1), None
#     Edge 11, Type (0, 1), None
#     Edge 12, Type (0, 1), None
#     Edge 13, Type (0, 1), None
#     Edge 14, Type (0, 1), None
#     Edge 15, Type (0, 1), None
#     Edge 16, Type (0, 1), None
#     Edge 17, Type (0, 1), None
#     Edge 18, Type (0, 1), None
#     Edge 19, Type (0, 1), None
#     Edge 20, Type (0, 1), None
#     Edge 21, Type (0, 1), None
#     Edge 22, Type (0, 1), None
#     Edge 23, Type (0, 1), None
#     Edge 24, Type (0, 1), None
#     Edge 25, Type (0, 1), None
#     Edge 26, Type (0, 1), None
# Relax obj value: 0.738
# Max RMSD: 0.231
# Mean RMSD: 0.167
data_MOF--net-anh--node1-HISSIN_clean_sbu_0--node2-BETDIP_clean_linker_0--edge1-none
_symmetry_space_group_name_H-M    P1
_symmetry_Int_Tables_number       1
_symmetry_cell_setting            triclinic
loop_
_symmetry_equiv_pos_as_xyz
'x, y, z'
_cell_length_a     14.267183
_cell_length_b     13.904283
_cell_length_c     22.906327
_cell_angle_alpha  99.836616
_cell_angle_beta   84.909103
_cell_angle_gamma 122.10189
loop_
_atom_site_label
_atom_site_type_symbol
_atom_site_fract_x
_atom_site_fract_y
_atom_site_fract_z
_atom_type_partial_charge
Eu0 Eu 1.23006 0.60857 0.09082 0.0
Eu1 Eu 0.37447 0.87797 0.11671 0.0
C2 C 0.29609 0.73768 0.22993 0.0
C3 C 1.13499 0.29717 0.08442 0.0
C4 C 1.15895 0.30915 0.14433 0.0
C5 C 1.09193 1.10113 0.07032 0.0
C6 C 1.14172 0.21506 0.16788 0.0
C7 C 1.10769 1.19502 0.04677 0.0
C8 C 1.10134 1.10899 0.13157 0.0
C9 C 1.12871 0.38665 0.06262 0.0
O10 O 0.51707 0.8375 0.10713 0.0
O11 O 0.41085 0.64305 0.08083 0.0
C12 C 0.51116 0.73731 0.09082 0.0
O13 O 1.2441 0.686 0.00844 0.0
O14 O 0.48551 1.05016 0.16305 0.0
O15 O 0.41793 1.02974 0.07797 0.0
O16 O 0.4192 0.81442 0.02904 0.0
C17 C 0.34226 0.75835 -0.01051 0.0
O18 O 1.08674 0.64293 0.08778 0.0
O19 O 1.19447 0.83825 0.09859 0.0
O20 O 0.3433 0.8377 0.21093 0.0
O21 O 1.08911 0.43856 0.09992 0.0
O22 O 1.21544 0.45757 0.0345 0.0
O23 O 1.24982 0.64075 0.19237 0.0
C24 C 0.60693 1.16307 0.09437 0.0
C25 C 0.64571 1.09781 0.05946 0.0
C26 C 0.78914 0.29032 0.13665 0.0
C27 C 0.74755 1.11569 0.07314 0.0
C28 C 0.68391 0.26853 0.12642 0.0
C29 C 0.80832 1.19955 0.12102 0.0
C30 C 0.49404 1.09944 0.11739 0.0
C31 C 1.09382 0.74283 0.09045 0.0
H32 H 1.1827 0.38841 0.17378 0.0
H33 H 1.05845 1.0189 0.04229 0.0
H34 H 1.14952 0.22211 0.21529 0.0
H35 H 1.09043 1.18509 0.00027 0.0
H36 H 0.58977 1.01975 0.03099 0.0
H37 H 0.84109 0.36255 0.16952 0.0
H38 H 0.76438 1.04894 0.05564 0.0
H39 H 0.65759 0.32339 0.15174 0.0
Eu40 Eu 0.78052 1.10274 0.45216 0.0
Eu41 Eu 0.64831 0.22655 0.4332 0.0
C42 C 0.71801 0.23083 0.56906 0.0
C43 C 0.99513 1.02088 0.47867 0.0
C44 C 1.00947 1.02636 0.53921 0.0
C45 C 1.14626 0.98795 0.45555 0.0
C46 C 1.08738 1.00589 0.55727 0.0
C47 C 1.06841 1.0085 0.43741 0.0
C48 C 1.14985 0.97794 0.51491 0.0
C49 C 0.89501 1.00797 0.4564 0.0
O50 O 0.82583 0.37496 0.42674 0.0
O51 O 0.92228 0.28778 0.43551 0.0
C52 C 0.92031 0.37898 0.42672 0.0
O53 O 0.71779 1.04441 0.36046 0.0
O54 O 0.57351 0.32944 0.45822 0.0
O55 O 0.55378 0.2413 0.36871 0.0
O56 O 0.74199 0.21371 0.3497 0.0
C57 C 0.74505 1.12214 0.32758 0.0
O58 O 0.6006 0.94652 0.43232 0.0
O59 O 0.50979 1.03814 0.4218 0.0
O60 O 0.67244 0.26334 0.53496 0.0
O61 O 0.90851 1.06979 0.41596 0.0
O62 O 0.81503 0.99458 0.49345 0.0
O63 O 0.75859 1.16689 0.54648 0.0
C64 C 0.60032 0.43309 0.38253 0.0
C65 C 0.70936 0.47599 0.36218 0.0
C66 C 0.65706 0.61929 0.43759 0.0
C67 C 0.79364 0.58012 0.39096 0.0
C68 C 0.57257 0.51175 0.41156 0.0
C69 C 0.76592 0.64177 0.43699 0.0
C70 C 0.54707 0.32175 0.4037 0.0
C71 C 0.50884 0.9427 0.42066 0.0
H72 H 0.95481 1.03687 0.572 0.0
H73 H 1.19362 0.96616 0.42234 0.0
H74 H 1.08991 0.99901 0.60345 0.0
H75 H 1.05892 1.00441 0.39047 0.0
H76 H 0.7322 0.4192 0.33557 0.0
H77 H 0.63419 0.67262 0.46764 0.0
H78 H 0.87734 0.59857 0.38469 0.0
H79 H 0.48779 0.4831 0.4245 0.0
Eu80 Eu 0.60204 0.62508 0.76605 0.0
Eu81 Eu 0.85191 0.80176 0.78626 0.0
C82 C 0.71265 0.71039 0.90095 0.0
C83 C 0.32204 0.52938 0.7193 0.0
C84 C 0.36391 0.58591 0.66908 0.0
C85 C 1.25667 0.65614 0.7575 0.0
C86 C 0.36719 0.68778 0.6685 0.0
C87 C 1.25291 0.55393 0.75792 0.0
C88 C 0.3275 0.73047 0.7177 0.0
C89 C 0.38947 0.49575 0.74533 0.0
O90 O 0.83424 0.61941 0.75032 0.0
O91 O 0.65461 0.4987 0.7752 0.0
C92 C 0.75019 0.5119 0.7563 0.0
O93 O 0.68867 0.61786 0.67767 0.0
O94 O 0.97029 0.98266 0.81205 0.0
O95 O 1.02912 0.86807 0.78029 0.0
O96 O 0.82879 0.80302 0.69303 0.0
C97 C 0.77409 0.70753 0.65788 0.0
O98 O 0.62819 0.79225 0.7388 0.0
O99 O 0.77791 0.91847 0.79567 0.0
O100 O 0.80845 0.74439 0.8755 0.0
O101 O 0.46284 0.48664 0.71082 0.0
O102 O 0.43199 0.55467 0.79688 0.0
O103 O 0.6253 0.67738 0.86835 0.0
C104 C 1.1283 1.02159 0.85502 0.0
C105 C 1.23762 1.11191 0.85076 0.0
C106 C 1.17242 0.98192 0.94306 0.0
C107 C 0.31589 1.12877 0.89011 0.0
C108 C 1.09346 0.96748 0.90559 0.0
C109 C 1.2844 1.04455 0.92666 0.0
C110 C 1.05548 0.97187 0.80419 0.0
C111 C 0.69829 0.90016 0.76185 0.0
H112 H 0.41303 0.56541 0.63657 0.0
H113 H 1.22144 0.68611 0.7946 0.0
H114 H 0.41921 0.74252 0.63612 0.0
H115 H 1.21581 0.50874 0.7957 0.0
H116 H 1.26433 1.15963 0.81366 0.0
H117 H 1.14365 0.92411 0.97558 0.0
H118 H 0.40254 1.18739 0.88131 0.0
H119 H 1.00751 0.90308 0.91168 0.0
H120 H 0.9024 1.06968 0.11256 0.0
H121 H 0.84916 1.00525 0.29231 0.0
H122 H 0.75713 0.22257 0.23684 0.0
H123 H 1.07089 0.94439 0.15064 0.0
C124 C 1.04215 1.0035 0.15868 0.0
C125 C 0.88069 1.08887 0.15739 0.0
C126 C 0.83703 1.16025 0.16933 0.0
C127 C 0.89179 1.03884 0.2029 0.0
C128 C 0.84517 1.04817 0.25817 0.0
C129 C 0.79641 1.11453 0.26996 0.0
C130 C 0.7971 1.17378 0.22668 0.0
N131 N 0.94635 0.9762 0.19433 0.0
H132 H 0.99071 0.73981 0.4535 0.0
H133 H 0.98281 0.7576 0.64196 0.0
H134 H 0.68499 0.64328 0.55021 0.0
H135 H 1.27369 0.92769 0.51653 0.0
C136 C 1.19058 0.90704 0.52916 0.0
C137 C 0.94365 0.72675 0.49421 0.0
C138 C 0.82979 0.68736 0.49359 0.0
C139 C 0.99825 0.74996 0.54764 0.0
C140 C 0.93927 0.73494 0.60061 0.0
C141 C 0.82691 0.69935 0.60107 0.0
C142 C 0.77241 0.67389 0.54807 0.0
N143 N 1.11494 0.79996 0.54928 0.0
H144 H 0.40523 1.02588 0.83101 0.0
H145 H 0.43223 0.75696 0.87783 0.0
H146 H 1.28022 0.90617 -0.00135 0.0
H147 H 0.43315 0.91181 0.70827 0.0
C148 C 0.39682 0.85287 0.74068 0.0
C149 C 0.39385 0.97363 0.86416 0.0
C150 C 0.3422 0.98069 0.91851 0.0
C151 C 0.42342 0.8921 0.8489 0.0
C152 C 0.40688 0.81879 0.88912 0.0
C153 C 0.35313 0.82329 0.94295 0.0
C154 C 0.3222 0.90432 0.95727 0.0
N155 N 0.46227 0.87926 0.79108 0.0
H156 H 0.3354 0.74045 0.46454 0.0
H157 H 1.14943 0.57422 0.30078 0.0
H158 H 0.45695 0.9006 0.30669 0.0
H159 H 1.09391 0.50265 0.42656 0.0
C160 C 1.02134 0.48614 0.4067 0.0
C161 C 0.32697 0.73911 0.41786 0.0
C162 C 0.40991 0.83326 0.38946 0.0
C163 C 1.23018 0.64531 0.38659 0.0
C164 C 1.22074 0.64551 0.32532 0.0
C165 C 0.30286 0.73667 0.29557 0.0
C166 C 0.39468 0.82969 0.32876 0.0
N167 N 1.14208 0.54743 0.41747 0.0
H168 H 0.75428 0.33803 0.80868 0.0
H169 H 0.71146 1.10557 0.64808 0.0
H170 H 0.73838 0.42672 0.63872 0.0
H171 H 0.72852 1.07503 0.77304 0.0
C172 C 0.69048 0.9982 0.74243 0.0
C173 C 0.74721 0.3183 0.76089 0.0
C174 C 0.75028 0.4008 0.72785 0.0
C175 C 0.73336 0.20945 0.73226 0.0
C176 C 0.72143 1.18577 0.67027 0.0
C177 C 0.72364 0.26268 0.63594 0.0
C178 C 0.73767 0.36868 0.66513 0.0
N179 N 0.73399 1.12297 0.76523 0.0
H180 H 0.7027 0.7489 0.14116 0.0
H181 H 0.86114 0.7221 0.97434 0.0
H182 H 0.55494 0.715 0.97581 0.0
H183 H 0.9348 0.73821 0.09874 0.0
C184 C 0.99535 0.74715 0.06647 0.0
C185 C 0.70436 0.74043 0.0933 0.0
C186 C 0.61453 0.73383 0.06281 0.0
C187 C 0.79606 0.73507 0.06164 0.0
C188 C 0.79434 0.72519 -0.00086 0.0
C189 C 0.70755 0.71693 0.96784 0.0
C190 C 0.61977 0.72032 0.00012 0.0
N191 N 0.88899 0.73692 0.09244 0.0
loop_
_geom_bond_atom_site_label_1
_geom_bond_atom_site_label_2
_geom_bond_distance
_geom_bond_site_symmetry_2
_ccdc_geom_bond_type
Eu0 C9 2.828 . S
Eu0 O11 2.392 1_655 S
Eu0 O13 2.418 1_554 S
Eu0 O18 2.373 . S
Eu0 O21 2.488 . S
Eu0 O22 2.471 . S
Eu0 O23 2.349 . S
Eu1 O10 2.373 . S
Eu1 O14 2.488 . S
Eu1 O15 2.471 . S
Eu1 O16 2.349 . S
Eu1 O19 2.392 1_455 S
Eu1 O20 2.418 . S
Eu1 C30 2.828 . S
C2 O20 1.244 . S
C2 O23 1.265 1_455 S
C3 C4 1.379 . S
C3 C7 1.373 . S
C3 C9 1.505 . S
C4 C3 1.379 . S
C4 C6 1.369 . S
C4 H32 0.930 . S
C5 C7 1.383 . S
C5 C8 1.382 . S
C5 H33 0.931 1_554 S
C6 C4 1.369 . S
C6 C8 1.392 . S
C6 H34 0.930 . S
C7 C3 1.373 . S
C7 C5 1.383 . S
C7 H35 0.931 1_554 S
C8 C5 1.382 . S
C8 C6 1.392 . S
C9 Eu0 2.828 . S
C9 C3 1.505 . S
C9 O21 1.249 . S
C9 O22 1.244 . S
O10 Eu1 2.373 . S
O10 C12 1.258 . S
O11 Eu0 2.392 1_455 S
O11 C12 1.242 . S
C12 O10 1.258 . S
C12 O11 1.242 . S
O13 Eu0 2.418 1_556 S
O13 C17 1.244 1_655 S
O14 Eu1 2.488 . S
O14 C30 1.249 . S
O15 Eu1 2.471 . S
O15 C30 1.244 . S
O16 Eu1 2.349 . S
O16 C17 1.265 1_554 S
C17 O13 1.244 1_455 S
C17 O16 1.265 1_556 S
O18 Eu0 2.373 . S
O18 C31 1.258 . S
O19 Eu1 2.392 1_655 S
O19 C31 1.242 . S
O20 Eu1 2.418 . S
O20 C2 1.244 . S
O21 Eu0 2.488 . S
O21 C9 1.249 . S
O22 Eu0 2.471 . S
O22 C9 1.244 . S
O23 Eu0 2.349 . S
O23 C2 1.265 1_655 S
C24 C25 1.379 . S
C24 C28 1.373 . S
C24 C30 1.505 . S
C25 C24 1.379 . S
C25 C27 1.369 . S
C25 H36 0.930 . S
C26 C28 1.383 . S
C26 C29 1.382 . S
C26 H37 0.930 1_565 S
C27 C25 1.369 . S
C27 C29 1.392 . S
C27 H38 0.930 . S
C28 C24 1.373 . S
C28 C26 1.383 . S
C28 H39 0.931 . S
C29 C26 1.382 . S
C29 C27 1.392 . S
C30 Eu1 2.828 . S
C30 O14 1.249 . S
C30 O15 1.244 . S
C30 C24 1.505 . S
C31 O18 1.258 . S
C31 O19 1.242 . S
H32 C4 0.930 . S
H33 C5 0.931 1_556 S
H34 C6 0.930 . S
H35 C7 0.931 1_556 S
H36 C25 0.930 . S
H37 C26 0.930 1_545 S
H38 C27 0.930 . S
H39 C28 0.931 . S
Eu40 C49 2.828 . S
Eu40 O51 2.392 1_565 S
Eu40 O53 2.418 . S
Eu40 O58 2.373 . S
Eu40 O61 2.488 . S
Eu40 O62 2.471 . S
Eu40 O63 2.352 . S
Eu41 O50 2.373 . S
Eu41 O54 2.488 . S
Eu41 O55 2.471 . S
Eu41 O56 2.349 . S
Eu41 O59 2.392 1_545 S
Eu41 O60 2.418 . S
Eu41 C70 2.828 . S
C42 O60 1.244 . S
C42 O63 1.261 1_545 S
C43 C44 1.379 . S
C43 C47 1.373 . S
C43 C49 1.505 . S
C44 C43 1.379 . S
C44 C46 1.369 . S
C44 H72 0.930 . S
C45 C47 1.383 . S
C45 C48 1.382 . S
C45 H73 0.930 . S
C46 C44 1.369 . S
C46 C48 1.392 . S
C46 H74 0.930 . S
C47 C43 1.373 . S
C47 C45 1.383 . S
C47 H75 0.931 . S
C48 C45 1.382 . S
C48 C46 1.392 . S
C49 Eu40 2.828 . S
C49 C43 1.505 . S
C49 O61 1.249 . S
C49 O62 1.244 . S
O50 Eu41 2.373 . S
O50 C52 1.258 . S
O51 Eu40 2.392 1_545 S
O51 C52 1.242 . S
C52 O50 1.258 . S
C52 O51 1.242 . S
O53 Eu40 2.418 . S
O53 C57 1.244 . S
O54 Eu41 2.488 . S
O54 C70 1.249 . S
O55 Eu41 2.471 . S
O55 C70 1.244 . S
O56 Eu41 2.349 . S
O56 C57 1.265 1_545 S
C57 O53 1.244 . S
C57 O56 1.265 1_565 S
O58 Eu40 2.373 . S
O58 C71 1.258 . S
O59 Eu41 2.392 1_565 S
O59 C71 1.242 . S
O60 Eu41 2.418 . S
O60 C42 1.244 . S
O61 Eu40 2.488 . S
O61 C49 1.249 . S
O62 Eu40 2.471 . S
O62 C49 1.244 . S
O63 Eu40 2.352 . S
O63 C42 1.261 1_565 S
C64 C65 1.379 . S
C64 C68 1.373 . S
C64 C70 1.505 . S
C65 C64 1.379 . S
C65 C67 1.369 . S
C65 H76 0.930 . S
C66 C68 1.383 . S
C66 C69 1.382 . S
C66 H77 0.930 . S
C67 C65 1.369 . S
C67 C69 1.392 . S
C67 H78 0.930 . S
C68 C64 1.373 . S
C68 C66 1.383 . S
C68 H79 0.931 . S
C69 C66 1.382 . S
C69 C67 1.392 . S
C70 Eu41 2.828 . S
C70 O54 1.249 . S
C70 O55 1.244 . S
C70 C64 1.505 . S
C71 O58 1.258 . S
C71 O59 1.242 . S
H72 C44 0.930 . S
H73 C45 0.930 . S
H74 C46 0.930 . S
H75 C47 0.931 . S
H76 C65 0.930 . S
H77 C66 0.930 . S
H78 C67 0.930 . S
H79 C68 0.931 . S
Eu80 C89 2.828 . S
Eu80 O91 2.392 . S
Eu80 O93 2.418 . S
Eu80 O98 2.373 . S
Eu80 O101 2.488 . S
Eu80 O102 2.471 . S
Eu80 O103 2.349 . S
Eu81 O90 2.373 . S
Eu81 O94 2.488 . S
Eu81 O95 2.471 . S
Eu81 O96 2.349 . S
Eu81 O99 2.392 . S
Eu81 O100 2.418 . S
Eu81 C110 2.828 . S
C82 O100 1.244 . S
C82 O103 1.265 . S
C83 C84 1.379 . S
C83 C87 1.373 . S
C83 C89 1.505 . S
C84 C83 1.379 . S
C84 C86 1.369 . S
C84 H112 0.930 . S
C85 C87 1.383 . S
C85 C88 1.382 . S
C85 H113 0.930 . S
C86 C84 1.369 . S
C86 C88 1.392 . S
C86 H114 0.930 . S
C87 C83 1.373 . S
C87 C85 1.383 . S
C87 H115 0.931 . S
C88 C85 1.382 . S
C88 C86 1.392 . S
C89 Eu80 2.828 . S
C89 C83 1.505 . S
C89 O101 1.249 . S
C89 O102 1.244 . S
O90 Eu81 2.373 . S
O90 C92 1.258 . S
O91 Eu80 2.392 . S
O91 C92 1.242 . S
C92 O90 1.258 . S
C92 O91 1.242 . S
O93 Eu80 2.418 . S
O93 C97 1.244 . S
O94 Eu81 2.488 . S
O94 C110 1.249 . S
O95 Eu81 2.471 . S
O95 C110 1.244 . S
O96 Eu81 2.349 . S
O96 C97 1.265 . S
C97 O93 1.244 . S
C97 O96 1.265 . S
O98 Eu80 2.373 . S
O98 C111 1.258 . S
O99 Eu81 2.392 . S
O99 C111 1.242 . S
O100 Eu81 2.418 . S
O100 C82 1.244 . S
O101 Eu80 2.488 . S
O101 C89 1.249 . S
O102 Eu80 2.471 . S
O102 C89 1.244 . S
O103 Eu80 2.349 . S
O103 C82 1.265 . S
C104 C105 1.379 . S
C104 C108 1.373 . S
C104 C110 1.505 . S
C105 C104 1.379 . S
C105 C107 1.369 . S
C105 H116 0.930 . S
C106 C108 1.383 . S
C106 C109 1.382 . S
C106 H117 0.930 . S
C107 C105 1.369 . S
C107 C109 1.392 . S
C107 H118 0.930 . S
C108 C104 1.373 . S
C108 C106 1.383 . S
C108 H119 0.931 . S
C109 C106 1.382 . S
C109 C107 1.392 . S
C110 Eu81 2.828 . S
C110 O94 1.249 . S
C110 O95 1.244 . S
C110 C104 1.505 . S
C111 O98 1.258 . S
C111 O99 1.242 . S
H112 C84 0.930 . S
H113 C85 0.930 . S
H114 C86 0.930 . S
H115 C87 0.931 . S
H116 C105 0.930 . S
H117 C106 0.930 . S
H118 C107 0.930 . S
H119 C108 0.931 . S
H120 C125 0.930 1_565 S
H121 C128 0.930 . S
H122 C130 0.930 . S
H123 C124 1.016 . S
C124 H123 1.016 . S
C124 N131 1.286 . S
C125 H120 0.930 1_545 S
C125 C126 1.397 1_545 S
C125 C127 1.361 . S
C126 C125 1.397 1_565 S
C126 C130 1.390 . S
C127 C125 1.361 . S
C127 C128 1.393 . S
C127 N131 1.413 . S
C128 H121 0.930 . S
C128 C127 1.393 . S
C128 C129 1.399 . S
C129 C128 1.399 . S
C129 C130 1.381 1_545 S
C130 H122 0.930 . S
C130 C126 1.390 . S
C130 C129 1.381 1_565 S
N131 C124 1.286 . S
N131 C127 1.413 . S
H132 C137 0.930 . S
H133 C140 0.930 . S
H134 C142 0.930 . S
H135 C136 1.016 . S
C136 H135 1.016 . S
C136 N143 1.286 . S
C137 H132 0.930 . S
C137 C138 1.397 . S
C137 C139 1.361 . S
C138 C137 1.397 . S
C138 C142 1.390 . S
C139 C137 1.361 . S
C139 C140 1.393 . S
C139 N143 1.413 . S
C140 H133 0.930 . S
C140 C139 1.393 . S
C140 C141 1.399 . S
C141 C140 1.399 . S
C141 C142 1.381 . S
C142 H134 0.930 . S
C142 C138 1.390 . S
C142 C141 1.381 . S
N143 C136 1.286 . S
N143 C139 1.413 . S
H144 C149 0.930 . S
H145 C152 0.930 1_554 S
H146 C154 0.931 . S
H147 C148 1.016 . S
C148 H147 1.016 . S
C148 N155 1.286 . S
C149 H144 0.930 . S
C149 C150 1.397 . S
C149 C151 1.361 1_655 S
C150 C149 1.397 . S
C150 C154 1.388 1_556 S
C151 C149 1.361 1_455 S
C151 C152 1.393 . S
C151 N155 1.413 . S
C152 H145 0.930 1_556 S
C152 C151 1.393 . S
C152 C153 1.399 1_556 S
C153 C152 1.399 1_554 S
C153 C154 1.382 1_455 S
C154 H146 0.931 . S
C154 C150 1.388 1_554 S
C154 C153 1.382 1_655 S
N155 C148 1.286 . S
N155 C151 1.413 . S
H156 C161 0.930 . S
H157 C164 0.930 . S
H158 C166 0.930 . S
H159 C160 1.016 . S
C160 H159 1.016 . S
C160 N167 1.286 . S
C161 H156 0.930 . S
C161 C162 1.397 . S
C161 C163 1.361 . S
C162 C161 1.397 . S
C162 C166 1.390 . S
C163 C161 1.361 . S
C163 C164 1.393 1_455 S
C163 N167 1.413 1_455 S
C164 H157 0.930 . S
C164 C163 1.393 1_655 S
C164 C165 1.399 1_655 S
C165 C164 1.399 1_455 S
C165 C166 1.381 . S
C166 H158 0.930 . S
C166 C162 1.390 . S
C166 C165 1.381 . S
N167 C160 1.286 . S
N167 C163 1.413 1_655 S
H168 C173 0.930 . S
H169 C176 0.930 . S
H170 C178 0.930 . S
H171 C172 1.016 . S
C172 H171 1.016 . S
C172 N179 1.286 . S
C173 H168 0.930 . S
C173 C174 1.397 . S
C173 C175 1.361 . S
C174 C173 1.397 . S
C174 C178 1.390 . S
C175 C173 1.361 . S
C175 C176 1.393 1_545 S
C175 N179 1.413 1_545 S
C176 H169 0.930 . S
C176 C175 1.393 1_565 S
C176 C177 1.399 1_565 S
C177 C176 1.399 1_545 S
C177 C178 1.381 . S
C178 H170 0.930 . S
C178 C174 1.390 . S
C178 C177 1.381 . S
N179 C172 1.286 . S
N179 C175 1.413 1_565 S
H180 C185 0.930 . S
H181 C188 0.930 . S
H182 C190 0.930 1_556 S
H183 C184 1.016 . S
C184 H183 1.016 . S
C184 N191 1.286 . S
C185 H180 0.930 . S
C185 C186 1.397 . S
C185 C187 1.361 . S
C186 C185 1.397 . S
C186 C190 1.390 . S
C187 C185 1.361 . S
C187 C188 1.393 . S
C187 N191 1.413 . S
C188 H181 0.930 . S
C188 C187 1.393 . S
C188 C189 1.399 1_554 S
C189 C188 1.399 1_556 S
C189 C190 1.381 1_556 S
C190 H182 0.930 1_554 S
C190 C186 1.390 . S
C190 C189 1.381 1_554 S
N191 C184 1.286 . S
N191 C187 1.413 . S
C12 C186 4.940 . S
C52 C160 4.606 . S
C111 C172 4.638 . S
C31 C184 4.466 . S
C162 C71 4.691 . S
C174 C92 4.633 . S
C48 C136 3.571 . S
C109 C150 3.440 . S
C29 C126 2.958 . S
C138 C69 3.251 . S
C148 C88 3.315 . S
C8 C124 3.586 . S
C153 C17 1.163 1_554 S
C57 C129 0.916 1_565 S
C97 C141 1.349 . S
C177 C42 1.966 . S
C189 C82 2.236 . S
C2 C165 1.991 . S
