# Generated by pormake.
# Topology dag, (6,3)-cn, num edge types: 1
# Building blocks:
#     Node 0, Type 0, BuildingBlock: IZENUY_clean_sbu_0, # of connection points: 6
#     Node 1, Type 0, BuildingBlock: IZENUY_clean_sbu_0, # of connection points: 6
#     Node 2, Type 0, BuildingBlock: IZENUY_clean_sbu_0, # of connection points: 6
#     Node 3, Type 0, BuildingBlock: IZENUY_clean_sbu_0, # of connection points: 6
#     Node 4, Type 1, BuildingBlock: PAMTOO_clean_linker_0, # of connection points: 3
#     Node 5, Type 1, BuildingBlock: PAMTOO_clean_linker_0, # of connection points: 3
#     Node 6, Type 1, BuildingBlock: PAMTOO_clean_linker_0, # of connection points: 3
#     Node 7, Type 1, BuildingBlock: PAMTOO_clean_linker_0, # of connection points: 3
#     Node 8, Type 1, BuildingBlock: PAMTOO_clean_linker_0, # of connection points: 3
#     Node 9, Type 1, BuildingBlock: PAMTOO_clean_linker_0, # of connection points: 3
#     Node 10, Type 1, BuildingBlock: PAMTOO_clean_linker_0, # of connection points: 3
#     Node 11, Type 1, BuildingBlock: PAMTOO_clean_linker_0, # of connection points: 3
#     Edge 12, Type (0, 1), None
#     Edge 13, Type (0, 1), None
#     Edge 14, Type (0, 1), None
#     Edge 15, Type (0, 1), None
#     Edge 16, Type (0, 1), None
#     Edge 17, Type (0, 1), None
#     Edge 18, Type (0, 1), None
#     Edge 19, Type (0, 1), None
#     Edge 20, Type (0, 1), None
#     Edge 21, Type (0, 1), None
#     Edge 22, Type (0, 1), None
#     Edge 23, Type (0, 1), None
#     Edge 24, Type (0, 1), None
#     Edge 25, Type (0, 1), None
#     Edge 26, Type (0, 1), None
#     Edge 27, Type (0, 1), None
#     Edge 28, Type (0, 1), None
#     Edge 29, Type (0, 1), None
#     Edge 30, Type (0, 1), None
#     Edge 31, Type (0, 1), None
#     Edge 32, Type (0, 1), None
#     Edge 33, Type (0, 1), None
#     Edge 34, Type (0, 1), None
#     Edge 35, Type (0, 1), None
# Relax obj value: 0.088
# Max RMSD: 0.130
# Mean RMSD: 0.108
data_MOF--net-dag--node1-IZENUY_clean_sbu_0--node2-PAMTOO_clean_linker_0--edge1-none
_symmetry_space_group_name_H-M    P1
_symmetry_Int_Tables_number       1
_symmetry_cell_setting            triclinic
loop_
_symmetry_equiv_pos_as_xyz
'x, y, z'
_cell_length_a     17.085694
_cell_length_b     17.460494
_cell_length_c     15.8822
_cell_angle_alpha  90.227998
_cell_angle_beta   93.643738
_cell_angle_gamma 89.306209
loop_
_atom_site_label
_atom_site_type_symbol
_atom_site_fract_x
_atom_site_fract_y
_atom_site_fract_z
_atom_type_partial_charge
Fe0 Fe 0.24533 0.90503 0.05281 0.0
Fe1 Fe 0.07893 0.96378 0.02346 0.0
O2 O 0.14673 0.88923 0.01447 0.0
Fe3 Fe 0.11236 0.80251 0.9669 0.0
O4 O 0.14868 0.74682 0.05763 0.0
O5 O 0.25999 0.80688 0.09296 0.0
O6 O 0.21703 0.93349 0.16027 0.0
C7 C 0.16903 0.98779 0.17097 0.0
C8 C 0.26563 0.8194 0.90746 0.0
O9 O 0.13097 1.01433 0.10798 0.0
C10 C 0.02285 0.90521 0.87123 0.0
O11 O 0.24474 1.00669 0.01494 0.0
O12 O 0.12894 1.01751 0.94597 0.0
O13 O 0.20269 0.78292 0.91408 0.0
O14 O 0.28325 0.87738 0.95253 0.0
C15 C 0.9978 0.84547 0.08215 0.0
O16 O 1.00933 0.93146 0.94193 0.0
O17 O 0.07304 0.85163 0.86802 0.0
C18 C 0.19878 0.04057 0.95968 0.0
O19 O 0.03026 0.90884 0.10045 0.0
O20 O 1.01645 0.80776 0.01703 0.0
C21 C 0.21481 0.75005 0.09805 0.0
Fe22 Fe 0.74662 0.65304 0.55608 0.0
Fe23 Fe 0.615 0.75792 0.46759 0.0
O24 O 0.64816 0.67064 0.51652 0.0
Fe25 Fe 0.58023 0.59847 0.52765 0.0
O26 O 0.63125 0.55144 0.61543 0.0
O27 O 0.71737 0.63127 0.6653 0.0
O28 O 0.76265 0.75139 0.59274 0.0
C29 C 0.71512 0.80618 0.60348 0.0
C30 C 0.70102 0.51469 0.4699 0.0
O31 O 0.65046 0.81255 0.56027 0.0
C32 C 0.52601 0.65455 0.37248 0.0
O33 O 0.78261 0.67388 0.45306 0.0
O34 O 0.70574 0.77267 0.41459 0.0
O35 O 0.63124 0.53877 0.45419 0.0
O36 O 0.74596 0.55005 0.52398 0.0
C37 C 0.49634 0.72194 0.57811 0.0
O38 O 0.57473 0.70868 0.3692 0.0
O39 O 0.51316 0.62778 0.44274 0.0
C40 C 0.76451 0.72955 0.40428 0.0
O41 O 0.51829 0.75734 0.51406 0.0
O42 O 0.52958 0.6591 0.60055 0.0
C43 C 0.66669 0.58102 0.67809 0.0
Fe44 Fe 0.91333 0.25843 0.10069 0.0
Fe45 Fe 0.94577 0.09523 0.04789 0.0
O46 O 0.8786 0.17031 0.05673 0.0
Fe47 Fe 0.77971 0.15446 0.01903 0.0
O48 O 0.76472 0.2514 0.97688 0.0
O49 O 0.87759 0.3101 1.00622 0.0
O50 O 1.00911 0.25171 0.052 0.0
C51 C 0.02777 0.21293 0.98806 0.0
C52 C 0.76092 0.24212 0.16333 0.0
O53 O 0.99513 0.14952 0.97078 0.0
C54 C 0.82644 1.0186 0.11231 0.0
O55 O 0.95434 0.21256 0.20088 0.0
O56 O 1.01508 0.12704 0.12973 0.0
O57 O 0.74295 0.18301 0.11994 0.0
O58 O 0.82277 0.27956 0.15308 0.0
C59 C 0.85712 0.07422 0.89957 0.0
O60 O 0.89607 0.04195 0.12582 0.0
O61 O 0.78029 0.05265 0.0573 0.0
C62 C 1.00398 0.15792 0.19905 0.0
O63 O 0.89256 0.0453 0.96306 0.0
O64 O 0.80803 0.12711 0.91115 0.0
C65 C 0.81276 0.30403 0.96366 0.0
Fe66 Fe 0.45421 0.45954 0.55128 0.0
Fe67 Fe 0.28708 0.4059 0.52236 0.0
O68 O 0.38537 0.38804 0.56246 0.0
Fe69 Fe 0.41805 0.30217 0.61485 0.0
O70 O 0.45727 0.35452 0.7118 0.0
O71 O 0.52179 0.42972 0.636 0.0
O72 O 0.40294 0.51983 0.62419 0.0
C73 C 0.33288 0.54358 0.60856 0.0
C74 C 0.53689 0.3356 0.5016 0.0
O75 O 0.2879 0.50833 0.55465 0.0
C76 C 0.31553 0.24838 0.48386 0.0
O77 O 0.40484 0.50727 0.46355 0.0
O78 O 0.31602 0.42952 0.41371 0.0
O79 O 0.51487 0.301 0.56659 0.0
O80 O 0.50393 0.39835 0.47851 0.0
C81 C 0.26766 0.3312 0.67528 0.0
O82 O 0.27133 0.30708 0.48651 0.0
O83 O 0.38089 0.24345 0.52625 0.0
C84 C 0.36579 0.481 0.40152 0.0
O85 O 0.24959 0.3852 0.62447 0.0
O86 O 0.32797 0.28949 0.66889 0.0
C87 C 0.5067 0.40745 0.7073 0.0
H88 H 0.03392 1.01397 0.23559 0.0
H89 H 0.1056 0.23845 0.31651 0.0
H90 H 0.2777 0.06327 0.2809 0.0
H91 H 0.33136 0.13397 0.43586 0.0
C92 C 0.28403 0.17789 0.43967 0.0
O93 O 0.25225 0.19421 0.35919 0.0
H94 H 0.23803 0.1544 0.47865 0.0
C95 C 0.07918 0.05159 0.26258 0.0
C96 C 0.15768 0.03001 0.25117 0.0
C97 C 0.05971 0.13026 0.26938 0.0
C98 C 0.11803 0.17825 0.30651 0.0
C99 C 0.19582 0.14985 0.32072 0.0
C100 C 0.21647 0.07826 0.28591 0.0
H101 H 0.3848 0.64166 0.50543 0.0
H102 H 0.25995 0.63418 0.73064 0.0
H103 H 0.42019 0.81625 0.69264 0.0
H104 H 0.37715 0.82499 0.85159 0.0
C105 C 0.32519 0.7872 0.85124 0.0
O106 O 0.29231 0.77997 0.7702 0.0
H107 H 0.34383 0.72974 0.87575 0.0
C108 C 0.36771 0.66862 0.56289 0.0
C109 C 0.41351 0.72783 0.59687 0.0
C110 C 0.32304 0.62708 0.61654 0.0
C111 C 0.29807 0.66334 0.68961 0.0
C112 C 0.32523 0.7377 0.70992 0.0
C113 C 0.38869 0.76674 0.66789 0.0
H114 H 0.87279 0.91087 1.01264 0.0
H115 H 0.76984 0.94005 0.25041 0.0
H116 H 0.95099 0.77246 0.22383 0.0
H117 H 0.85728 0.69743 0.3251 0.0
C118 C 0.80723 0.73874 0.32523 0.0
O119 O 0.83479 0.81252 0.31681 0.0
H120 H 0.76512 0.72488 0.27102 0.0
C121 C 0.86329 0.89006 0.07534 0.0
C122 C 0.91878 0.83884 0.11232 0.0
C123 C 0.81867 0.93548 0.12768 0.0
C124 C 0.80582 0.9076 0.20894 0.0
C125 C 0.84749 0.84206 0.23991 0.0
C126 C 0.90907 0.81264 0.19421 0.0
H127 H 0.52496 0.55551 0.72478 0.0
H128 H 0.59916 0.34658 0.84748 0.0
H129 H 0.76379 0.52663 0.8185 0.0
H130 H 0.84477 0.39438 0.88111 0.0
C131 C 0.79287 0.35913 0.89302 0.0
O132 O 0.73181 0.40673 0.91312 0.0
H133 H 0.77677 0.32558 0.83481 0.0
C134 C 0.56891 0.5234 0.76276 0.0
C135 C 0.64739 0.54725 0.7607 0.0
C136 C 0.55358 0.44558 0.778 0.0
C137 C 0.60935 0.40537 0.83011 0.0
C138 C 0.68177 0.44031 0.85445 0.0
C139 C 0.70338 0.5082 0.81357 0.0
H140 H 0.64984 0.41563 0.57277 0.0
H141 H 0.61088 0.24277 0.3837 0.0
H142 H 0.77068 0.42513 0.34497 0.0
H143 H 0.68335 0.33211 0.19821 0.0
C144 C 0.70282 0.27458 0.22173 0.0
O145 O 0.73674 0.28029 0.30271 0.0
H146 H 0.65077 0.23695 0.22192 0.0
C147 C 0.666 0.3889 0.5148 0.0
C148 C 0.71025 0.43093 0.46089 0.0
C149 C 0.61969 0.32955 0.48133 0.0
C150 C 0.64293 0.2919 0.40857 0.0
C151 C 0.70525 0.32163 0.36498 0.0
C152 C 0.73331 0.3955 0.38641 0.0
H153 H 0.15245 0.14825 0.05905 0.0
H154 H 0.07516 0.28581 0.84694 0.0
H155 H 0.25764 0.11917 0.82257 0.0
H156 H 0.26128 0.33478 0.80779 0.0
C157 C 0.2215 0.32155 0.75141 0.0
O158 O 0.19367 0.24764 0.75679 0.0
H159 H 0.17125 0.36272 0.74941 0.0
C160 C 0.16222 0.16885 0.99634 0.0
C161 C 0.2072 0.12344 0.94449 0.0
C162 C 0.1067 0.21939 0.95849 0.0
C163 C 0.11688 0.24562 0.87692 0.0
C164 C 0.17924 0.21672 0.83232 0.0
C165 C 0.22087 0.1513 0.86351 0.0
H166 H 0.49992 0.50959 0.33714 0.0
H167 H 0.4218 0.73371 0.2583 0.0
H168 H 0.2543 0.55872 0.29563 0.0
H169 H 0.19937 0.63434 0.13999 0.0
C170 C 0.24621 0.67798 0.13934 0.0
O171 O 0.27596 0.69114 0.22095 0.0
H172 H 0.29331 0.65543 0.10024 0.0
C173 C 0.45337 0.54683 0.31053 0.0
C174 C 0.37532 0.5246 0.3221 0.0
C175 C 0.47092 0.62556 0.30302 0.0
C176 C 0.4109 0.67353 0.26816 0.0
C177 C 0.3336 0.64581 0.25675 0.0
C178 C 0.31507 0.57358 0.28976 0.0
H179 H 0.99984 0.05203 0.85093 0.0
H180 H 0.93245 0.84092 0.73026 0.0
H181 H 0.76253 1.02097 0.75692 0.0
H182 H 0.68374 0.9014 0.682 0.0
C183 C 0.73387 0.86124 0.67469 0.0
O184 O 0.79989 0.90252 0.65966 0.0
H185 H 0.74452 0.82743 0.7337 0.0
C186 C 0.95686 1.01891 0.81375 0.0
C187 C 0.87779 0.0414 0.8166 0.0
C188 C 0.97451 0.94102 0.79976 0.0
C189 C 0.9202 0.8997 0.74754 0.0
C190 C 0.84727 0.93468 0.72148 0.0
C191 C 0.82333 1.00244 0.76267 0.0
loop_
_geom_bond_atom_site_label_1
_geom_bond_atom_site_label_2
_geom_bond_distance
_geom_bond_site_symmetry_2
_ccdc_geom_bond_type
Fe0 O2 1.918 1_554 S
Fe0 O5 1.997 . S
Fe0 O6 2.002 . S
Fe0 O11 1.976 1_554 S
Fe0 O14 1.996 1_554 S
Fe1 O2 1.918 1_554 S
Fe1 O9 1.997 . S
Fe1 O12 1.996 1_564 S
Fe1 O16 1.976 1_454 S
Fe1 O19 2.002 1_455 S
O2 Fe0 1.918 1_556 S
O2 Fe1 1.918 1_556 S
O2 Fe3 1.918 . S
Fe3 O2 1.918 . S
Fe3 O4 2.002 1_556 S
Fe3 O13 1.976 . S
Fe3 O17 1.996 . S
Fe3 O20 1.997 1_556 S
O4 Fe3 2.002 1_554 S
O4 C21 1.295 . S
O5 Fe0 1.997 . S
O5 C21 1.235 . S
O6 Fe0 2.002 . S
O6 C7 1.295 . S
C7 O6 1.295 . S
C7 O9 1.235 . S
C8 O13 1.287 . S
C8 O14 1.255 . S
O9 Fe1 1.997 . S
O9 C7 1.235 . S
C10 O16 1.287 . S
C10 O17 1.255 1_655 S
O11 Fe0 1.976 1_556 S
O11 C18 1.287 1_565 S
O12 Fe1 1.996 1_546 S
O12 C18 1.255 . S
O13 Fe3 1.976 . S
O13 C8 1.287 . S
O14 Fe0 1.996 1_556 S
O14 C8 1.255 . S
C15 O19 1.295 . S
C15 O20 1.235 1_655 S
O16 Fe1 1.976 1_656 S
O16 C10 1.287 . S
O17 Fe3 1.996 . S
O17 C10 1.255 1_455 S
C18 O11 1.287 1_545 S
C18 O12 1.255 . S
O19 Fe1 2.002 1_655 S
O19 C15 1.295 . S
O20 Fe3 1.997 1_554 S
O20 C15 1.235 1_455 S
C21 O4 1.295 . S
C21 O5 1.235 . S
Fe22 O24 1.918 . S
Fe22 O27 1.997 . S
Fe22 O28 2.002 . S
Fe22 O33 1.976 . S
Fe22 O36 1.996 . S
Fe23 O24 1.918 . S
Fe23 O31 1.997 . S
Fe23 O34 1.996 . S
Fe23 O38 1.976 . S
Fe23 O41 2.002 . S
O24 Fe22 1.918 . S
O24 Fe23 1.918 . S
O24 Fe25 1.918 . S
Fe25 O24 1.918 . S
Fe25 O26 2.002 . S
Fe25 O35 1.976 . S
Fe25 O39 1.996 . S
Fe25 O42 1.997 . S
O26 Fe25 2.002 . S
O26 C43 1.295 . S
O27 Fe22 1.997 . S
O27 C43 1.235 . S
O28 Fe22 2.002 . S
O28 C29 1.295 . S
C29 O28 1.295 . S
C29 O31 1.235 . S
C30 O35 1.287 . S
C30 O36 1.255 . S
O31 Fe23 1.997 . S
O31 C29 1.235 . S
C32 O38 1.287 . S
C32 O39 1.255 . S
O33 Fe22 1.976 . S
O33 C40 1.287 . S
O34 Fe23 1.996 . S
O34 C40 1.255 . S
O35 Fe25 1.976 . S
O35 C30 1.287 . S
O36 Fe22 1.996 . S
O36 C30 1.255 . S
C37 O41 1.295 . S
C37 O42 1.235 . S
O38 Fe23 1.976 . S
O38 C32 1.287 . S
O39 Fe25 1.996 . S
O39 C32 1.255 . S
C40 O33 1.287 . S
C40 O34 1.255 . S
O41 Fe23 2.002 . S
O41 C37 1.295 . S
O42 Fe25 1.997 . S
O42 C37 1.235 . S
C43 O26 1.295 . S
C43 O27 1.235 . S
Fe44 O46 1.918 . S
Fe44 O49 1.997 1_554 S
Fe44 O50 2.002 1_554 S
Fe44 O55 1.976 . S
Fe44 O58 1.996 . S
Fe45 O46 1.918 . S
Fe45 O53 1.997 1_654 S
Fe45 O56 1.996 1_655 S
Fe45 O60 1.976 1_545 S
Fe45 O63 2.002 1_554 S
O46 Fe44 1.918 . S
O46 Fe45 1.918 . S
O46 Fe47 1.918 . S
Fe47 O46 1.918 . S
Fe47 O48 2.002 1_554 S
Fe47 O57 1.976 . S
Fe47 O61 1.996 . S
Fe47 O64 1.997 1_554 S
O48 Fe47 2.002 1_556 S
O48 C65 1.295 . S
O49 Fe44 1.997 1_556 S
O49 C65 1.235 . S
O50 Fe44 2.002 1_556 S
O50 C51 1.295 1_655 S
C51 O50 1.295 1_455 S
C51 O53 1.235 . S
C52 O57 1.287 . S
C52 O58 1.255 . S
O53 Fe45 1.997 1_456 S
O53 C51 1.235 . S
C54 O60 1.287 . S
C54 O61 1.255 1_565 S
O55 Fe44 1.976 . S
O55 C62 1.287 1_655 S
O56 Fe45 1.996 1_455 S
O56 C62 1.255 . S
O57 Fe47 1.976 . S
O57 C52 1.287 . S
O58 Fe44 1.996 . S
O58 C52 1.255 . S
C59 O63 1.295 . S
C59 O64 1.235 . S
O60 Fe45 1.976 1_565 S
O60 C54 1.287 . S
O61 Fe47 1.996 . S
O61 C54 1.255 1_545 S
C62 O55 1.287 1_455 S
C62 O56 1.255 . S
O63 Fe45 2.002 1_556 S
O63 C59 1.295 . S
O64 Fe47 1.997 1_556 S
O64 C59 1.235 . S
C65 O48 1.295 . S
C65 O49 1.235 . S
Fe66 O68 1.918 . S
Fe66 O71 1.997 . S
Fe66 O72 2.002 . S
Fe66 O77 1.976 . S
Fe66 O80 1.996 . S
Fe67 O68 1.918 . S
Fe67 O75 1.997 . S
Fe67 O78 1.996 . S
Fe67 O82 1.976 . S
Fe67 O85 2.002 . S
O68 Fe66 1.918 . S
O68 Fe67 1.918 . S
O68 Fe69 1.918 . S
Fe69 O68 1.918 . S
Fe69 O70 2.002 . S
Fe69 O79 1.976 . S
Fe69 O83 1.996 . S
Fe69 O86 1.997 . S
O70 Fe69 2.002 . S
O70 C87 1.295 . S
O71 Fe66 1.997 . S
O71 C87 1.235 . S
O72 Fe66 2.002 . S
O72 C73 1.295 . S
C73 O72 1.295 . S
C73 O75 1.235 . S
C74 O79 1.287 . S
C74 O80 1.255 . S
O75 Fe67 1.997 . S
O75 C73 1.235 . S
C76 O82 1.287 . S
C76 O83 1.255 . S
O77 Fe66 1.976 . S
O77 C84 1.287 . S
O78 Fe67 1.996 . S
O78 C84 1.255 . S
O79 Fe69 1.976 . S
O79 C74 1.287 . S
O80 Fe66 1.996 . S
O80 C74 1.255 . S
C81 O85 1.295 . S
C81 O86 1.235 . S
O82 Fe67 1.976 . S
O82 C76 1.287 . S
O83 Fe69 1.996 . S
O83 C76 1.255 . S
C84 O77 1.287 . S
C84 O78 1.255 . S
O85 Fe67 2.002 . S
O85 C81 1.295 . S
O86 Fe69 1.997 . S
O86 C81 1.235 . S
C87 O70 1.295 . S
C87 O71 1.235 . S
H88 C95 0.929 . S
H89 C98 0.930 . S
H90 C100 0.929 . S
H91 C92 0.969 . S
C92 H91 0.969 . S
C92 O93 1.550 . S
C92 H94 0.973 . S
O93 C92 1.550 . S
O93 C99 1.412 . S
H94 C92 0.973 . S
C95 H88 0.929 . S
C95 C96 1.400 . S
C95 C97 1.364 . S
C96 C95 1.400 . S
C96 C100 1.377 . S
C97 C95 1.364 . S
C97 C98 1.374 . S
C98 H89 0.930 . S
C98 C97 1.374 . S
C98 C99 1.383 . S
C99 O93 1.412 . S
C99 C98 1.383 . S
C99 C100 1.394 . S
C100 H90 0.929 . S
C100 C96 1.377 . S
C100 C99 1.394 . S
H101 C108 0.929 . S
H102 C111 0.930 . S
H103 C113 0.929 . S
H104 C105 0.969 . S
C105 H104 0.969 . S
C105 O106 1.550 . S
C105 H107 0.973 . S
O106 C105 1.550 . S
O106 C112 1.412 . S
H107 C105 0.973 . S
C108 H101 0.929 . S
C108 C109 1.400 . S
C108 C110 1.364 . S
C109 C108 1.400 . S
C109 C113 1.377 . S
C110 C108 1.364 . S
C110 C111 1.374 . S
C111 H102 0.930 . S
C111 C110 1.374 . S
C111 C112 1.383 . S
C112 O106 1.412 . S
C112 C111 1.383 . S
C112 C113 1.394 . S
C113 H103 0.929 . S
C113 C109 1.377 . S
C113 C112 1.394 . S
H114 C121 0.929 . S
H115 C124 0.930 . S
H116 C126 0.929 . S
H117 C118 0.969 . S
C118 H117 0.969 . S
C118 O119 1.550 . S
C118 H120 0.973 . S
O119 C118 1.550 . S
O119 C125 1.412 . S
H120 C118 0.973 . S
C121 H114 0.929 . S
C121 C122 1.400 . S
C121 C123 1.364 . S
C122 C121 1.400 . S
C122 C126 1.377 . S
C123 C121 1.364 . S
C123 C124 1.374 . S
C124 H115 0.930 . S
C124 C123 1.374 . S
C124 C125 1.383 . S
C125 O119 1.412 . S
C125 C124 1.383 . S
C125 C126 1.394 . S
C126 H116 0.929 . S
C126 C122 1.377 . S
C126 C125 1.394 . S
H127 C134 0.929 . S
H128 C137 0.930 . S
H129 C139 0.929 . S
H130 C131 0.969 . S
C131 H130 0.969 . S
C131 O132 1.550 . S
C131 H133 0.973 . S
O132 C131 1.550 . S
O132 C138 1.412 . S
H133 C131 0.973 . S
C134 H127 0.929 . S
C134 C135 1.400 . S
C134 C136 1.364 . S
C135 C134 1.400 . S
C135 C139 1.377 . S
C136 C134 1.364 . S
C136 C137 1.374 . S
C137 H128 0.930 . S
C137 C136 1.374 . S
C137 C138 1.383 . S
C138 O132 1.412 . S
C138 C137 1.383 . S
C138 C139 1.394 . S
C139 H129 0.929 . S
C139 C135 1.377 . S
C139 C138 1.394 . S
H140 C147 0.929 . S
H141 C150 0.930 . S
H142 C152 0.929 . S
H143 C144 0.969 . S
C144 H143 0.969 . S
C144 O145 1.550 . S
C144 H146 0.973 . S
O145 C144 1.550 . S
O145 C151 1.412 . S
H146 C144 0.973 . S
C147 H140 0.929 . S
C147 C148 1.400 . S
C147 C149 1.364 . S
C148 C147 1.400 . S
C148 C152 1.377 . S
C149 C147 1.364 . S
C149 C150 1.374 . S
C150 H141 0.930 . S
C150 C149 1.374 . S
C150 C151 1.383 . S
C151 O145 1.412 . S
C151 C150 1.383 . S
C151 C152 1.394 . S
C152 H142 0.929 . S
C152 C148 1.377 . S
C152 C151 1.394 . S
H153 C160 0.929 . S
H154 C163 0.930 . S
H155 C165 0.929 . S
H156 C157 0.969 . S
C157 H156 0.969 . S
C157 O158 1.550 . S
C157 H159 0.973 . S
O158 C157 1.550 . S
O158 C164 1.412 . S
H159 C157 0.973 . S
C160 H153 0.929 . S
C160 C161 1.400 . S
C160 C162 1.364 . S
C161 C160 1.400 . S
C161 C165 1.377 . S
C162 C160 1.364 . S
C162 C163 1.374 . S
C163 H154 0.930 . S
C163 C162 1.374 . S
C163 C164 1.383 . S
C164 O158 1.412 . S
C164 C163 1.383 . S
C164 C165 1.394 . S
C165 H155 0.929 . S
C165 C161 1.377 . S
C165 C164 1.394 . S
H166 C173 0.929 . S
H167 C176 0.930 . S
H168 C178 0.929 . S
H169 C170 0.969 . S
C170 H169 0.969 . S
C170 O171 1.550 . S
C170 H172 0.973 . S
O171 C170 1.550 . S
O171 C177 1.412 . S
H172 C170 0.973 . S
C173 H166 0.929 . S
C173 C174 1.400 . S
C173 C175 1.364 . S
C174 C173 1.400 . S
C174 C178 1.377 . S
C175 C173 1.364 . S
C175 C176 1.374 . S
C176 H167 0.930 . S
C176 C175 1.374 . S
C176 C177 1.383 . S
C177 O171 1.412 . S
C177 C176 1.383 . S
C177 C178 1.394 . S
C178 H168 0.929 . S
C178 C174 1.377 . S
C178 C177 1.394 . S
H179 C186 0.929 . S
H180 C189 0.930 . S
H181 C191 0.929 . S
H182 C183 0.969 . S
C183 H182 0.969 . S
C183 O184 1.550 . S
C183 H185 0.973 . S
O184 C183 1.550 . S
O184 C190 1.412 . S
H185 C183 0.973 . S
C186 H179 0.929 . S
C186 C187 1.400 . S
C186 C188 1.364 . S
C187 C186 1.400 . S
C187 C191 1.377 . S
C188 C186 1.364 . S
C188 C189 1.374 . S
C189 H180 0.930 . S
C189 C188 1.374 . S
C189 C190 1.383 . S
C190 O184 1.412 . S
C190 C189 1.383 . S
C190 C191 1.394 . S
C191 H181 0.929 . S
C191 C187 1.377 . S
C191 C190 1.394 . S
C7 C96 1.428 1_565 S
C37 C109 1.136 . S
C54 C123 1.465 . S
C136 C87 1.488 . S
C148 C30 1.255 . S
C51 C162 1.468 . S
C84 C174 1.323 . S
C10 C188 1.467 . S
C59 C187 1.348 1_545 S
C149 C74 1.426 . S
C161 C18 1.283 . S
C32 C175 1.434 . S
C110 C73 1.484 . S
C15 C122 1.161 . S
C135 C43 1.414 . S
C97 C62 1.452 . S
C170 C21 1.321 . S
C183 C29 1.234 . S
C52 C144 1.573 . S
C157 C81 1.786 . S
C118 C40 1.567 . S
C65 C131 1.297 . S
C92 C76 1.406 . S
C105 C8 1.378 . S
