# Generated by pormake.
# Topology rtl, (3,6)-cn, num edge types: 1
# Building blocks:
#     Node 0, Type 0, BuildingBlock: BETDAH_clean_linker_0, # of connection points: 3
#     Node 1, Type 0, BuildingBlock: BETDAH_clean_linker_0, # of connection points: 3
#     Node 2, Type 0, BuildingBlock: BETDAH_clean_linker_0, # of connection points: 3
#     Node 3, Type 0, BuildingBlock: BETDAH_clean_linker_0, # of connection points: 3
#     Node 4, Type 1, BuildingBlock: LEVNOQ01_clean_sbu_1, # of connection points: 6
#     Node 5, Type 1, BuildingBlock: LEVNOQ01_clean_sbu_1, # of connection points: 6
#     Edge 6, Type (0, 1), None
#     Edge 7, Type (0, 1), None
#     Edge 8, Type (0, 1), None
#     Edge 9, Type (0, 1), None
#     Edge 10, Type (0, 1), None
#     Edge 11, Type (0, 1), None
#     Edge 12, Type (0, 1), None
#     Edge 13, Type (0, 1), None
#     Edge 14, Type (0, 1), None
#     Edge 15, Type (0, 1), None
#     Edge 16, Type (0, 1), None
#     Edge 17, Type (0, 1), None
# Relax obj value: 0.018
# Max RMSD: 0.099
# Mean RMSD: 0.075
data_MOF--net-rtl--node1-LEVNOQ01_clean_sbu_1--node2-BETDAH_clean_linker_0--edge1-none
_symmetry_space_group_name_H-M    P1
_symmetry_Int_Tables_number       1
_symmetry_cell_setting            triclinic
loop_
_symmetry_equiv_pos_as_xyz
'x, y, z'
_cell_length_a     16.136404
_cell_length_b     16.558933
_cell_length_c     9.591735
_cell_angle_alpha  90.617818
_cell_angle_beta   102.32753
_cell_angle_gamma 90.640634
loop_
_atom_site_label
_atom_site_type_symbol
_atom_site_fract_x
_atom_site_fract_y
_atom_site_fract_z
_atom_type_partial_charge
H0 H 0.02195 0.90932 0.98279 0.0
H1 H 0.1481 0.7645 0.33232 0.0
H2 H 0.23145 0.76259 0.93443 0.0
C3 C 0.06782 0.86332 0.02381 0.0
C4 C 0.1243 0.83724 0.94062 0.0
C5 C 0.07739 0.83909 0.16615 0.0
C6 C 0.14044 0.7836 0.22261 0.0
C7 C 0.19342 0.75211 0.13765 0.0
C8 C 0.18659 0.78104 0.99755 0.0
N9 N 0.25443 0.69345 0.19655 0.0
C10 C 0.29525 0.64684 0.11112 0.0
H11 H 0.52887 0.58397 0.49178 0.0
H12 H 0.73911 0.73326 0.4431 0.0
H13 H 0.65821 0.73295 0.84342 0.0
C14 C 0.57573 0.63053 0.53361 0.0
C15 C 0.58628 0.6558 0.6766 0.0
C16 C 0.63166 0.65707 0.44978 0.0
C17 C 0.69484 0.71431 0.5071 0.0
C18 C 0.70264 0.74449 0.64788 0.0
C19 C 0.6501 0.71262 0.73348 0.0
N20 N 0.76323 0.80583 0.70548 0.0
C21 C 0.80045 0.85384 0.61727 0.0
H22 H 0.0245 0.08798 0.0885 0.0
H23 H 0.81475 0.23439 0.13695 0.0
H24 H 0.89791 0.23252 0.73888 0.0
C25 C 0.9785 0.13389 0.04747 0.0
C26 C 0.96884 0.1581 0.90509 0.0
C27 C 0.92202 0.15989 0.13074 0.0
C28 C 0.85961 0.21598 0.07378 0.0
C29 C 0.85264 0.24486 0.93362 0.0
C30 C 0.90565 0.21345 0.84862 0.0
N31 N 0.79149 0.30339 0.87471 0.0
C32 C 0.75057 0.34993 0.96012 0.0
H33 H 0.51689 0.41243 0.57958 0.0
H34 H 0.30602 0.26362 0.62742 0.0
H35 H 0.38675 0.26453 0.22707 0.0
C36 C 0.46983 0.36608 0.53753 0.0
C37 C 0.45913 0.34108 0.39437 0.0
C38 C 0.4138 0.3396 0.62125 0.0
C39 C 0.35041 0.28259 0.56363 0.0
C40 C 0.34244 0.25273 0.42266 0.0
C41 C 0.395 0.28464 0.33716 0.0
N42 N 0.2817 0.19162 0.36473 0.0
C43 C 0.24661 0.14159 0.4528 0.0
O44 O 0.09666 0.10224 0.86906 0.0
Mg45 Mg 0.18601 0.04077 0.77089 0.0
O46 O 0.98291 0.09166 0.69041 0.0
Mg47 Mg 0.02324 -0.00147 0.53567 0.0
O48 O 0.15262 0.06221 0.5585 0.0
O49 O 0.27698 0.10268 0.69155 0.0
O50 O 0.06347 0.9054 0.38098 0.0
O51 O 0.9835 0.0856 0.33835 0.0
Mg52 Mg 0.86056 0.95673 0.30079 0.0
O53 O 0.89405 0.93446 0.51289 0.0
O54 O 0.94977 0.89542 0.20212 0.0
O55 O 0.84512 0.08113 0.26063 0.0
O56 O 0.76962 0.89442 0.37947 0.0
C57 C 0.13036 0.88369 0.8124 0.0
C58 C 0.01964 0.11821 0.81426 0.0
C59 C 0.22522 0.09846 0.56913 0.0
C60 C 0.02671 0.87911 0.25697 0.0
C61 C 0.91614 0.11357 0.25923 0.0
C62 C 0.82149 0.89807 0.50182 0.0
O63 O 0.20135 0.91644 0.81179 0.0
O64 O 0.06304 0.91146 0.73287 0.0
O65 O 0.70403 0.58066 0.30865 0.0
Mg66 Mg 0.67584 0.45803 0.258 0.0
O67 O 0.56573 0.58307 0.23993 0.0
Mg68 Mg 0.52282 0.49835 0.0355 0.0
O69 O 0.64944 0.42991 0.0458 0.0
O70 O 0.76842 0.39257 0.19748 0.0
O71 O 0.47986 0.41359 0.83105 0.0
O72 O 0.56937 0.59276 0.89107 0.0
Mg73 Mg 0.36973 0.53863 0.81314 0.0
O74 O 0.39624 0.56678 0.02528 0.0
O75 O 0.34154 0.41596 0.7627 0.0
O76 O 0.45775 0.59804 0.70984 0.0
O77 O 0.2772 0.6041 0.87378 0.0
C78 C 0.51115 0.38025 0.30482 0.0
C79 C 0.63438 0.6119 0.31721 0.0
C80 C 0.72225 0.39404 0.07007 0.0
C81 C 0.41117 0.38474 0.75392 0.0
C82 C 0.53436 0.61656 0.76625 0.0
C83 C 0.32345 0.60267 1.00112 0.0
O84 O 0.58777 0.3987 0.3613 0.0
O85 O 0.47624 0.404 0.17992 0.0
loop_
_geom_bond_atom_site_label_1
_geom_bond_atom_site_label_2
_geom_bond_distance
_geom_bond_site_symmetry_2
_ccdc_geom_bond_type
H0 C3 0.929 . S
H1 C6 0.929 . S
H2 C8 0.930 . S
C3 H0 0.929 . S
C3 C4 1.398 1_554 S
C3 C5 1.396 . S
C4 C3 1.398 1_556 S
C4 C8 1.407 . S
C5 C3 1.396 . S
C5 C6 1.394 . S
C6 H1 0.929 . S
C6 C5 1.394 . S
C6 C7 1.382 . S
C7 C6 1.382 . S
C7 C8 1.392 1_554 S
C7 N9 1.420 . S
C8 H2 0.930 . S
C8 C4 1.407 . S
C8 C7 1.392 1_556 S
N9 C7 1.420 . S
N9 C10 1.244 . S
C10 N9 1.244 . S
H11 C14 0.929 . S
H12 C17 0.929 . S
H13 C19 0.930 . S
C14 H11 0.929 . S
C14 C15 1.398 . S
C14 C16 1.396 . S
C15 C14 1.398 . S
C15 C19 1.407 . S
C16 C14 1.396 . S
C16 C17 1.394 . S
C17 H12 0.929 . S
C17 C16 1.394 . S
C17 C18 1.382 . S
C18 C17 1.382 . S
C18 C19 1.392 . S
C18 N20 1.420 . S
C19 H13 0.930 . S
C19 C15 1.407 . S
C19 C18 1.392 . S
N20 C18 1.420 . S
N20 C21 1.244 . S
C21 N20 1.244 . S
H22 C25 0.929 . S
H23 C28 0.929 . S
H24 C30 0.930 . S
C25 H22 0.929 . S
C25 C26 1.397 1_554 S
C25 C27 1.397 . S
C26 C25 1.397 1_556 S
C26 C30 1.407 . S
C27 C25 1.397 . S
C27 C28 1.394 . S
C28 H23 0.929 . S
C28 C27 1.394 . S
C28 C29 1.382 1_554 S
C29 C28 1.382 1_556 S
C29 C30 1.392 . S
C29 N31 1.420 . S
C30 H24 0.930 . S
C30 C26 1.407 . S
C30 C29 1.392 . S
N31 C29 1.420 . S
N31 C32 1.244 1_556 S
C32 N31 1.244 1_554 S
H33 C36 0.929 . S
H34 C39 0.929 . S
H35 C41 0.930 . S
C36 H33 0.929 . S
C36 C37 1.398 . S
C36 C38 1.396 . S
C37 C36 1.398 . S
C37 C41 1.407 . S
C38 C36 1.396 . S
C38 C39 1.394 . S
C39 H34 0.929 . S
C39 C38 1.394 . S
C39 C40 1.382 . S
C40 C39 1.382 . S
C40 C41 1.392 . S
C40 N42 1.420 . S
C41 H35 0.930 . S
C41 C37 1.407 . S
C41 C40 1.392 . S
N42 C40 1.420 . S
N42 C43 1.244 . S
C43 N42 1.244 . S
O44 Mg45 1.990 . S
O44 C58 1.253 1_455 S
Mg45 O44 1.990 . S
Mg45 O48 2.180 . S
Mg45 O49 2.117 . S
Mg45 O63 2.030 . S
O46 Mg47 2.072 1_655 S
O46 C58 1.260 . S
Mg47 O46 2.072 1_455 S
Mg47 O48 2.099 . S
Mg47 O50 2.079 1_545 S
Mg47 O51 2.072 1_455 S
Mg47 O53 2.099 1_445 S
Mg47 O64 2.079 1_545 S
O48 Mg45 2.180 . S
O48 Mg47 2.099 . S
O48 C59 1.279 . S
O49 Mg45 2.117 . S
O49 C59 1.250 . S
O50 Mg47 2.079 1_565 S
O50 C60 1.264 . S
O51 Mg47 2.072 1_655 S
O51 C61 1.260 . S
Mg52 O53 2.180 . S
Mg52 O54 2.030 1_655 S
Mg52 O55 1.990 1_565 S
Mg52 O56 2.117 . S
O53 Mg47 2.099 1_665 S
O53 Mg52 2.180 . S
O53 C62 1.279 . S
O54 Mg52 2.030 1_455 S
O54 C60 1.248 . S
O55 Mg52 1.990 1_545 S
O55 C61 1.253 . S
O56 Mg52 2.117 . S
O56 C62 1.250 . S
C57 O63 1.248 1_565 S
C57 O64 1.264 . S
C58 O44 1.253 1_655 S
C58 O46 1.260 . S
C59 O48 1.279 . S
C59 O49 1.250 . S
C60 O50 1.264 . S
C60 O54 1.248 . S
C61 O51 1.260 . S
C61 O55 1.253 . S
C62 O53 1.279 . S
C62 O56 1.250 . S
O63 Mg45 2.030 . S
O63 C57 1.248 1_545 S
O64 Mg47 2.079 1_565 S
O64 C57 1.264 . S
O65 Mg66 1.990 . S
O65 C79 1.253 . S
Mg66 O65 1.990 . S
Mg66 O69 2.180 . S
Mg66 O70 2.117 . S
Mg66 O84 2.030 . S
O67 Mg68 2.072 . S
O67 C79 1.260 . S
Mg68 O67 2.072 . S
Mg68 O69 2.099 . S
Mg68 O71 2.079 1_554 S
Mg68 O72 2.072 1_554 S
Mg68 O74 2.099 1_554 S
Mg68 O85 2.079 . S
O69 Mg66 2.180 . S
O69 Mg68 2.099 . S
O69 C80 1.279 . S
O70 Mg66 2.117 . S
O70 C80 1.250 . S
O71 Mg68 2.079 1_556 S
O71 C81 1.264 . S
O72 Mg68 2.072 1_556 S
O72 C82 1.260 . S
Mg73 O74 2.180 . S
Mg73 O75 2.030 . S
Mg73 O76 1.990 . S
Mg73 O77 2.117 . S
O74 Mg68 2.099 1_556 S
O74 Mg73 2.180 . S
O74 C83 1.279 1_556 S
O75 Mg73 2.030 . S
O75 C81 1.248 . S
O76 Mg73 1.990 . S
O76 C82 1.253 . S
O77 Mg73 2.117 . S
O77 C83 1.250 1_556 S
C78 O84 1.248 . S
C78 O85 1.264 . S
C79 O65 1.253 . S
C79 O67 1.260 . S
C80 O69 1.279 . S
C80 O70 1.250 . S
C81 O71 1.264 . S
C81 O75 1.248 . S
C82 O72 1.260 . S
C82 O76 1.253 . S
C83 O74 1.279 1_554 S
C83 O77 1.250 1_554 S
O84 Mg66 2.030 . S
O84 C78 1.248 . S
O85 Mg68 2.079 . S
O85 C78 1.264 . S
C59 C43 1.176 . S
C10 C83 1.527 . S
C21 C62 1.418 . S
C32 C80 1.323 . S
C60 C5 1.488 . S
C82 C15 1.531 . S
C27 C61 1.603 . S
C38 C81 1.377 . S
C79 C16 1.486 . S
C58 C26 1.430 . S
C78 C37 1.411 . S
C4 C57 1.322 . S
