# Generated by pormake.
# Topology rtl, (3,6)-cn, num edge types: 1
# Building blocks:
#     Node 0, Type 0, BuildingBlock: BETDIP_clean_linker_0, # of connection points: 3
#     Node 1, Type 0, BuildingBlock: BETDIP_clean_linker_0, # of connection points: 3
#     Node 2, Type 0, BuildingBlock: BETDIP_clean_linker_0, # of connection points: 3
#     Node 3, Type 0, BuildingBlock: BETDIP_clean_linker_0, # of connection points: 3
#     Node 4, Type 1, BuildingBlock: KUMBOL_clean_sbu_1, # of connection points: 6
#     Node 5, Type 1, BuildingBlock: KUMBOL_clean_sbu_1, # of connection points: 6
#     Edge 6, Type (0, 1), None
#     Edge 7, Type (0, 1), None
#     Edge 8, Type (0, 1), None
#     Edge 9, Type (0, 1), None
#     Edge 10, Type (0, 1), None
#     Edge 11, Type (0, 1), None
#     Edge 12, Type (0, 1), None
#     Edge 13, Type (0, 1), None
#     Edge 14, Type (0, 1), None
#     Edge 15, Type (0, 1), None
#     Edge 16, Type (0, 1), None
#     Edge 17, Type (0, 1), None
# Relax obj value: 0.059
# Max RMSD: 0.289
# Mean RMSD: 0.202
data_MOF--net-rtl--node1-KUMBOL_clean_sbu_1--node2-BETDIP_clean_linker_0--edge1-none
_symmetry_space_group_name_H-M    P1
_symmetry_Int_Tables_number       1
_symmetry_cell_setting            triclinic
loop_
_symmetry_equiv_pos_as_xyz
'x, y, z'
_cell_length_a     15.85595
_cell_length_b     16.781789
_cell_length_c     14.212753
_cell_angle_alpha  66.431418
_cell_angle_beta   96.020108
_cell_angle_gamma 92.576747
loop_
_atom_site_label
_atom_site_type_symbol
_atom_site_fract_x
_atom_site_fract_y
_atom_site_fract_z
_atom_type_partial_charge
H0 H 0.20409 0.80297 0.82289 0.0
H1 H 0.22016 0.7522 0.14437 0.0
H2 H 0.0527 0.94867 0.92704 0.0
H3 H 0.34505 0.69941 0.13778 0.0
C4 C 0.34463 0.67929 0.07398 0.0
C5 C 0.18525 0.81827 0.88349 0.0
C6 C 0.12832 0.88569 0.86081 0.0
C7 C 0.22194 0.77198 0.98303 0.0
C8 C 0.19611 0.78988 0.06539 0.0
C9 C 0.13417 0.85417 0.04515 0.0
C10 C 0.10161 0.90167 0.94249 0.0
N11 N 0.28555 0.71038 -0.00601 0.0
H12 H 0.70489 0.76618 0.85299 0.0
H13 H 0.76717 0.71421 0.59702 0.0
H14 H 0.58967 0.55118 0.79955 0.0
H15 H 0.88569 0.78198 0.61048 0.0
C16 C 0.87136 0.83241 0.63596 0.0
C17 C 0.69828 0.72643 0.80957 0.0
C18 C 0.64291 0.65431 0.83831 0.0
C19 C 0.74519 0.74802 0.72384 0.0
C20 C 0.73301 0.69812 0.66411 0.0
C21 C 0.6762 0.62735 0.69005 0.0
C22 C 0.63224 0.60606 0.77762 0.0
N23 N 0.80321 0.81996 0.69912 0.0
H24 H 0.81856 0.25023 0.00619 0.0
H25 H 0.81895 0.22267 0.32128 0.0
H26 H 0.98625 0.06992 0.24391 0.0
H27 H 0.75929 0.35155 0.2476 0.0
C28 C 0.721 0.35852 0.17743 0.0
C29 C 0.8414 0.21889 0.08706 0.0
C30 C 0.90649 0.15716 0.11807 0.0
C31 C 0.80913 0.24453 0.15885 0.0
C32 C 0.84257 0.20497 0.26425 0.0
C33 C 0.90609 0.14021 0.29636 0.0
C34 C 0.93622 0.11719 0.22198 0.0
N35 N 0.74444 0.31015 0.12172 0.0
H36 H 0.34958 0.30619 0.31961 0.0
H37 H 0.27971 0.35784 0.5745 0.0
H38 H 0.47578 0.50742 0.39371 0.0
H39 H 0.21742 0.23178 0.61262 0.0
C40 C 0.20286 0.21608 0.54579 0.0
C41 C 0.35839 0.34235 0.36795 0.0
C42 C 0.42081 0.40726 0.34961 0.0
C43 C 0.30726 0.32268 0.44898 0.0
C44 C 0.31964 0.36949 0.51314 0.0
C45 C 0.38183 0.4355 0.49476 0.0
C46 C 0.43095 0.45418 0.41195 0.0
N47 N 0.2436 0.25709 0.46092 0.0
C48 C 0.91444 0.28848 0.53209 0.0
C49 C 0.76882 0.29315 0.45707 0.0
C50 C 0.84208 0.24563 0.50976 0.0
C51 C 0.77073 0.38383 0.42181 0.0
C52 C 0.91445 0.37958 0.50015 0.0
C53 C 0.84301 0.42717 0.44246 0.0
N54 N 0.98154 0.24054 0.5927 0.0
C55 C 0.04642 0.2786 0.63107 0.0
C56 C 0.98467 0.41983 0.53126 0.0
C57 C 0.05037 0.36891 0.59841 0.0
Gd58 Gd 0.11111 0.97416 0.50906 0.0
Gd59 Gd 0.96489 0.0906 0.64239 0.0
N60 N 0.84236 0.15736 0.543 0.0
C61 C 0.69563 0.24817 0.44131 0.0
C62 C 0.77128 0.11261 0.53001 0.0
C63 C 0.69689 0.1575 0.47808 0.0
H64 H 0.77173 0.04247 0.5604 0.0
H65 H 0.64048 0.12224 0.46706 0.0
H66 H 0.26089 0.12777 0.41424 0.0
H67 H 0.09447 0.23952 0.68853 0.0
H68 H 0.41198 0.15307 0.45362 0.0
H69 H 0.63787 0.28279 0.40122 0.0
H70 H 0.71629 0.42083 0.37831 0.0
H71 H 0.08046 0.7591 0.62381 0.0
H72 H 0.98691 0.48973 0.5078 0.0
H73 H 0.10299 0.39897 0.62706 0.0
H74 H 0.50678 0.88201 0.71845 0.0
H75 H 0.84218 0.49728 0.41619 0.0
H76 H 0.3132 0.64224 0.79491 0.0
H77 H 0.16286 0.62793 0.7375 0.0
N78 N 0.18354 0.84608 0.61817 0.0
C79 C 0.26699 0.85501 0.6458 0.0
C80 C 0.14633 0.76554 0.64851 0.0
C81 C 0.27789 0.69961 0.74413 0.0
C82 C 0.19279 0.69134 0.71234 0.0
C83 C 0.31637 0.78181 0.71011 0.0
H84 H 0.44042 0.73802 0.78978 0.0
N85 N 0.25584 1.00537 0.54009 0.0
C86 C 0.30368 0.93709 0.60746 0.0
C87 C 0.42969 0.02735 0.57813 0.0
C88 C 0.39157 0.94697 0.63017 0.0
C89 C 0.29549 0.07931 0.47959 0.0
C90 C 0.38189 0.09294 0.5 0.0
O91 O 0.94636 0.13774 0.46732 0.0
O92 O 0.97945 1.01992 0.43365 0.0
O93 O 0.12662 1.01838 0.34442 0.0
O94 O 0.14346 0.88452 0.44282 0.0
O95 O 0.9083 0.96279 0.64571 0.0
O96 O 0.98819 0.90142 0.56015 0.0
O97 O 0.10164 0.9075 0.68197 0.0
O98 O 0.08627 1.02286 0.725 0.0
O99 O 0.92766 1.01497 0.79679 0.0
O100 O 0.9071 0.15238 0.72713 0.0
O101 O 0.12905 0.11827 0.48216 0.0
O102 O 0.10479 0.1177 0.6384 0.0
C103 C 0.94565 0.09734 0.4048 0.0
C104 C 0.92388 0.90141 0.61342 0.0
C105 C 0.09548 0.91378 0.27155 0.0
C106 C 0.09424 0.86624 0.12914 0.0
C107 C 0.96432 0.86512 0.20732 0.0
C108 C 1.00831 0.89628 0.2757 0.0
C109 C 1.00698 0.85027 0.13505 0.0
C110 C 0.13886 0.89812 0.19837 0.0
C111 C 0.14172 0.94135 0.34909 0.0
C112 C 0.43968 0.8752 0.69881 0.0
C113 C 0.40207 0.79291 0.73879 0.0
H114 H 0.49695 0.03743 0.59282 0.0
C115 C 0.09854 0.93973 0.752 0.0
C116 C 0.14314 0.14999 0.55377 0.0
C117 C 0.95389 0.09767 0.89854 0.0
C118 C 0.95163 0.14011 0.04255 0.0
C119 C 0.0852 0.13564 0.97534 0.0
C120 C 0.04211 0.11101 0.90086 0.0
C121 C 0.04021 0.15043 0.04558 0.0
C122 C 0.90842 0.11318 0.96895 0.0
C123 C 0.90877 0.08365 0.81134 0.0
H124 H 0.89699 0.85189 0.21063 0.0
H125 H 0.97448 0.90592 0.33267 0.0
H126 H 0.972 0.82585 0.08334 0.0
H127 H 0.20628 0.91113 0.19493 0.0
H128 H 0.15323 0.14523 0.97715 0.0
H129 H 0.0776 0.10376 0.84389 0.0
H130 H 0.07426 0.17176 0.10121 0.0
H131 H 0.84 0.10597 0.96526 0.0
C132 C 0.75256 0.71548 0.06139 0.0
C133 C 0.69059 0.85936 0.97255 0.0
C134 C 0.68257 0.77028 0.03611 0.0
C135 C 0.76763 0.89127 0.93076 0.0
C136 C 0.82962 0.7472 0.01867 0.0
C137 C 0.83629 0.83503 0.95217 0.0
N138 N 0.74335 0.62971 0.12203 0.0
C139 C 0.8096 0.57344 0.14835 0.0
C140 C 0.89717 0.68918 0.04216 0.0
C141 C 0.88745 0.60222 0.10842 0.0
Gd142 Gd 0.46554 0.46955 0.01365 0.0
Gd143 Gd 0.60911 0.58711 0.17838 0.0
N144 N 0.60686 0.7366 0.07226 0.0
C145 C 0.62061 0.91365 0.95169 0.0
C146 C 0.54078 0.79077 0.05869 0.0
C147 C 0.54587 0.87942 -0.00355 0.0
H148 H 0.48518 0.76745 0.09873 0.0
H149 H 0.49258 0.92159 0.98457 0.0
H150 H 0.58513 0.28849 0.0757 0.0
H151 H 0.8021 0.50639 0.19972 0.0
H152 H 0.57494 0.13183 0.17491 0.0
H153 H 0.62429 0.98236 0.90327 0.0
H154 H 0.77405 0.95907 0.88036 0.0
H155 H 0.27025 0.54826 -0.00897 0.0
H156 H 0.95725 0.71101 0.01015 0.0
H157 H 0.9397 0.55729 0.12826 0.0
H158 H 0.28796 0.08794 0.25982 0.0
H159 H 0.89456 0.8598 0.91721 0.0
H160 H 0.10722 0.33615 0.14575 0.0
H161 H 0.12921 0.49354 0.04698 0.0
N162 N 0.3288 0.42408 0.06238 0.0
C163 C 0.31761 0.33705 0.11385 0.0
C164 C 0.26206 0.47994 0.03662 0.0
C165 C 0.16957 0.36006 0.12243 0.0
C166 C 0.18177 0.44894 0.06703 0.0
C167 C 0.23763 0.30287 0.14573 0.0
H168 H 0.16788 0.18593 0.2277 0.0
N169 N 0.46391 0.31716 0.10634 0.0
C170 C 0.38712 0.2823 0.1372 0.0
C171 C 0.44606 0.1374 0.20637 0.0
C172 C 0.37661 0.19155 0.189 0.0
C173 C 0.52901 0.2635 0.11415 0.0
C174 C 0.5222 0.1735 0.16716 0.0
O175 O 0.64638 0.60113 0.02257 0.0
O176 O 0.51902 0.60374 0.93061 0.0
O177 O 0.49528 0.42742 0.89407 0.0
O178 O 0.37239 0.48015 0.88629 0.0
O179 O 0.46937 0.61183 0.15383 0.0
O180 O 0.41896 0.60194 -0.0008 0.0
O181 O 0.42593 0.44421 0.1706 0.0
O182 O 0.54897 0.45648 0.266 0.0
O183 O 0.58252 0.64097 0.28823 0.0
O184 O 0.70266 0.5794 0.30415 0.0
O185 O 0.60724 0.43183 0.05921 0.0
O186 O 0.64057 0.44879 0.21269 0.0
C187 C 0.59966 0.62444 0.93431 0.0
C188 C 0.4122 0.62793 0.075 0.0
C189 C 0.41909 0.4935 0.72916 0.0
C190 C 0.3957 0.48673 0.55984 0.0
C191 C 0.42574 0.62524 0.57449 0.0
C192 C 0.43126 0.58358 0.68169 0.0
C193 C 0.40798 0.57741 0.51381 0.0
C194 C 0.40106 0.4453 0.66813 0.0
C195 C 0.42147 0.44908 0.84189 0.0
C196 C 0.29691 0.15741 0.2198 0.0
C197 C 0.22812 0.21303 0.20004 0.0
H198 H 0.44054 0.06749 0.24619 0.0
C199 C 0.4688 0.4336 0.25861 0.0
C200 C 0.65501 0.41425 0.14768 0.0
C201 C 0.64834 0.56911 0.45656 0.0
C202 C 0.662 0.57584 0.62558 0.0
C203 C 0.62855 0.4387 0.60927 0.0
C204 C 0.62931 0.48018 0.50266 0.0
C205 C 0.64581 0.48575 0.67072 0.0
C206 C 0.66291 0.61681 0.51786 0.0
C207 C 0.6536 0.61393 0.34502 0.0
H208 H 0.43523 0.69485 0.53831 0.0
H209 H 0.44508 0.62151 0.7276 0.0
H210 H 0.40365 0.61153 0.43071 0.0
H211 H 0.39249 0.37548 0.70503 0.0
H212 H 0.61446 0.36989 0.64435 0.0
H213 H 0.61366 0.44286 0.45659 0.0
H214 H 0.64646 0.45131 0.75346 0.0
H215 H 0.67375 0.68623 0.48082 0.0
loop_
_geom_bond_atom_site_label_1
_geom_bond_atom_site_label_2
_geom_bond_distance
_geom_bond_site_symmetry_2
_ccdc_geom_bond_type
H0 C5 0.930 . S
H1 C8 0.930 . S
H2 C10 0.931 1_545 S
H3 C4 1.016 . S
C4 H3 1.016 . S
C4 N11 1.286 . S
C5 H0 0.930 . S
C5 C6 1.397 . S
C5 C7 1.361 1_556 S
C6 C5 1.397 . S
C6 C10 1.390 . S
C7 C5 1.361 1_554 S
C7 C8 1.393 . S
C7 N11 1.413 . S
C8 H1 0.930 . S
C8 C7 1.393 . S
C8 C9 1.399 . S
C9 C8 1.399 . S
C9 C10 1.381 1_554 S
C10 H2 0.931 1_565 S
C10 C6 1.390 . S
C10 C9 1.381 1_556 S
N11 C4 1.286 . S
N11 C7 1.413 . S
H12 C17 0.930 . S
H13 C20 0.930 . S
H14 C22 0.930 . S
H15 C16 1.016 . S
C16 H15 1.016 . S
C16 N23 1.286 . S
C17 H12 0.930 . S
C17 C18 1.397 . S
C17 C19 1.361 . S
C18 C17 1.397 . S
C18 C22 1.390 . S
C19 C17 1.361 . S
C19 C20 1.393 . S
C19 N23 1.413 . S
C20 H13 0.930 . S
C20 C19 1.393 . S
C20 C21 1.399 . S
C21 C20 1.399 . S
C21 C22 1.381 . S
C22 H14 0.930 . S
C22 C18 1.390 . S
C22 C21 1.381 . S
N23 C16 1.286 . S
N23 C19 1.413 . S
H24 C29 0.930 . S
H25 C32 0.930 . S
H26 C34 0.930 . S
H27 C28 1.016 . S
C28 H27 1.016 . S
C28 N35 1.286 . S
C29 H24 0.930 . S
C29 C30 1.397 . S
C29 C31 1.361 . S
C30 C29 1.397 . S
C30 C34 1.390 . S
C31 C29 1.361 . S
C31 C32 1.393 . S
C31 N35 1.413 . S
C32 H25 0.930 . S
C32 C31 1.393 . S
C32 C33 1.399 . S
C33 C32 1.399 . S
C33 C34 1.381 . S
C34 H26 0.930 . S
C34 C30 1.390 . S
C34 C33 1.381 . S
N35 C28 1.286 . S
N35 C31 1.413 . S
H36 C41 0.930 . S
H37 C44 0.930 . S
H38 C46 0.930 . S
H39 C40 1.016 . S
C40 H39 1.016 . S
C40 N47 1.286 . S
C41 H36 0.930 . S
C41 C42 1.397 . S
C41 C43 1.361 . S
C42 C41 1.397 . S
C42 C46 1.390 . S
C43 C41 1.361 . S
C43 C44 1.393 . S
C43 N47 1.413 . S
C44 H37 0.930 . S
C44 C43 1.393 . S
C44 C45 1.399 . S
C45 C44 1.399 . S
C45 C46 1.381 . S
C46 H38 0.930 . S
C46 C42 1.390 . S
C46 C45 1.381 . S
N47 C40 1.286 . S
N47 C43 1.413 . S
C48 C50 1.422 . S
C48 C52 1.415 . S
C48 N54 1.369 . S
C49 C50 1.421 . S
C49 C51 1.417 . S
C49 C61 1.422 . S
C50 C48 1.422 . S
C50 C49 1.421 . S
C50 N60 1.359 . S
C51 C49 1.417 . S
C51 C53 1.329 . S
C51 H70 0.930 . S
C52 C48 1.415 . S
C52 C53 1.437 . S
C52 C56 1.413 . S
C53 C51 1.329 . S
C53 C52 1.437 . S
C53 H75 0.929 . S
N54 C48 1.369 . S
N54 C55 1.338 1_655 S
N54 Gd59 2.622 . S
C55 N54 1.338 1_455 S
C55 C57 1.378 . S
C55 H67 0.929 . S
C56 C52 1.413 . S
C56 C57 1.338 1_655 S
C56 H72 0.931 . S
C57 C55 1.378 . S
C57 C56 1.338 1_455 S
C57 H73 0.940 . S
Gd58 N78 2.622 . S
Gd58 N85 2.570 . S
Gd58 O92 2.353 1_465 S
Gd58 O93 2.468 . S
Gd58 O94 2.427 . S
Gd58 O96 2.388 1_455 S
Gd58 O97 2.386 . S
Gd58 O101 2.307 1_565 S
Gd58 C111 2.805 . S
Gd59 N54 2.622 . S
Gd59 N60 2.570 . S
Gd59 O91 2.386 . S
Gd59 O95 2.307 1_545 S
Gd59 O98 2.353 1_655 S
Gd59 O99 2.468 . S
Gd59 O100 2.427 . S
Gd59 O102 2.388 1_655 S
Gd59 C123 2.805 . S
N60 C50 1.359 . S
N60 Gd59 2.570 . S
N60 C62 1.343 . S
C61 C49 1.422 . S
C61 C63 1.321 . S
C61 H69 0.931 . S
C62 N60 1.343 . S
C62 C63 1.390 . S
C62 H64 0.931 . S
C63 C61 1.321 . S
C63 C62 1.390 . S
C63 H65 0.930 . S
H64 C62 0.931 . S
H65 C63 0.930 . S
H66 C89 0.931 . S
H67 C55 0.929 . S
H68 C90 0.930 . S
H69 C61 0.931 . S
H70 C51 0.930 . S
H71 C80 0.929 1_655 S
H72 C56 0.931 . S
H73 C57 0.940 . S
H74 C112 0.930 . S
H75 C53 0.929 . S
H76 C81 0.931 . S
H77 C82 0.930 1_655 S
N78 Gd58 2.622 . S
N78 C79 1.369 . S
N78 C80 1.338 . S
C79 N78 1.369 . S
C79 C83 1.415 . S
C79 C86 1.422 . S
C80 H71 0.929 1_455 S
C80 N78 1.338 . S
C80 C82 1.378 . S
C81 H76 0.931 . S
C81 C82 1.348 . S
C81 C83 1.413 . S
C82 H77 0.930 1_455 S
C82 C80 1.378 . S
C82 C81 1.348 . S
C83 C79 1.415 . S
C83 C81 1.413 . S
C83 C113 1.437 . S
H84 C113 0.929 . S
N85 Gd58 2.570 . S
N85 C86 1.359 . S
N85 C89 1.343 . S
C86 C79 1.422 . S
C86 N85 1.359 . S
C86 C88 1.421 . S
C87 C88 1.422 . S
C87 C90 1.321 . S
C87 H114 0.931 . S
C88 C86 1.421 . S
C88 C87 1.422 . S
C88 C112 1.417 . S
C89 H66 0.931 . S
C89 N85 1.343 . S
C89 C90 1.390 . S
C90 H68 0.930 . S
C90 C87 1.321 . S
C90 C89 1.390 . S
O91 Gd59 2.386 . S
O91 C103 1.265 . S
O92 Gd58 2.353 1_645 S
O92 C103 1.242 . S
O93 Gd58 2.468 . S
O93 C111 1.263 . S
O94 Gd58 2.427 . S
O94 C111 1.252 . S
O95 Gd59 2.307 1_565 S
O95 C104 1.261 . S
O96 Gd58 2.388 1_655 S
O96 C104 1.252 . S
O97 Gd58 2.386 . S
O97 C115 1.265 . S
O98 Gd59 2.353 1_455 S
O98 C115 1.242 1_545 S
O99 Gd59 2.468 . S
O99 C123 1.263 . S
O100 Gd59 2.427 . S
O100 C123 1.252 . S
O101 Gd58 2.307 1_545 S
O101 C116 1.261 . S
O102 Gd59 2.388 1_455 S
O102 C116 1.252 . S
C103 O91 1.265 . S
C103 O92 1.242 . S
C104 O95 1.261 . S
C104 O96 1.252 . S
C105 C108 1.394 . S
C105 C110 1.370 . S
C105 C111 1.500 . S
C106 C109 1.383 . S
C106 C110 1.395 . S
C107 C108 1.396 . S
C107 C109 1.365 . S
C107 H124 0.929 . S
C108 C105 1.394 . S
C108 C107 1.396 . S
C108 H125 0.930 . S
C109 C106 1.383 . S
C109 C107 1.365 . S
C109 H126 0.931 . S
C110 C105 1.370 . S
C110 C106 1.395 . S
C110 H127 0.930 . S
C111 Gd58 2.805 . S
C111 O93 1.263 . S
C111 O94 1.252 . S
C111 C105 1.500 . S
C112 H74 0.930 . S
C112 C88 1.417 . S
C112 C113 1.329 . S
C113 C83 1.437 . S
C113 H84 0.929 . S
C113 C112 1.329 . S
H114 C87 0.931 . S
C115 O97 1.265 . S
C115 O98 1.242 1_565 S
C116 O101 1.261 . S
C116 O102 1.252 . S
C117 C120 1.394 . S
C117 C122 1.370 . S
C117 C123 1.500 . S
C118 C121 1.383 . S
C118 C122 1.395 1_554 S
C119 C120 1.396 1_554 S
C119 C121 1.365 . S
C119 H128 0.929 . S
C120 C117 1.394 . S
C120 C119 1.396 1_556 S
C120 H129 0.930 . S
C121 C118 1.383 . S
C121 C119 1.365 . S
C121 H130 0.931 . S
C122 C117 1.370 . S
C122 C118 1.395 1_556 S
C122 H131 0.930 . S
C123 Gd59 2.805 . S
C123 O99 1.263 . S
C123 O100 1.252 . S
C123 C117 1.500 . S
H124 C107 0.929 . S
H125 C108 0.930 . S
H126 C109 0.931 . S
H127 C110 0.930 . S
H128 C119 0.929 . S
H129 C120 0.930 . S
H130 C121 0.931 . S
H131 C122 0.930 . S
C132 C134 1.422 . S
C132 C136 1.415 . S
C132 N138 1.369 . S
C133 C134 1.421 . S
C133 C135 1.417 . S
C133 C145 1.422 . S
C134 C132 1.422 . S
C134 C133 1.421 . S
C134 N144 1.359 . S
C135 C133 1.417 . S
C135 C137 1.329 . S
C135 H154 0.930 . S
C136 C132 1.415 . S
C136 C137 1.437 . S
C136 C140 1.413 . S
C137 C135 1.329 . S
C137 C136 1.437 . S
C137 H159 0.929 . S
N138 C132 1.369 . S
N138 C139 1.338 . S
N138 Gd143 2.622 . S
C139 N138 1.338 . S
C139 C141 1.378 . S
C139 H151 0.929 . S
C140 C136 1.413 . S
C140 C141 1.348 . S
C140 H156 0.931 . S
C141 C139 1.378 . S
C141 C140 1.348 . S
C141 H157 0.930 . S
Gd142 N162 2.622 1_554 S
Gd142 N169 2.570 . S
Gd142 O176 2.353 1_554 S
Gd142 O177 2.468 1_554 S
Gd142 O178 2.427 1_554 S
Gd142 O180 2.388 1_554 S
Gd142 O181 2.386 . S
Gd142 O185 2.307 . S
Gd142 C195 2.805 1_554 S
Gd143 N138 2.622 . S
Gd143 N144 2.570 . S
Gd143 O175 2.386 . S
Gd143 O179 2.307 . S
Gd143 O182 2.353 . S
Gd143 O183 2.468 . S
Gd143 O184 2.427 . S
Gd143 O186 2.388 . S
Gd143 C207 2.805 . S
N144 C134 1.359 . S
N144 Gd143 2.570 . S
N144 C146 1.343 . S
C145 C133 1.422 . S
C145 C147 1.321 . S
C145 H153 0.931 . S
C146 N144 1.343 . S
C146 C147 1.390 . S
C146 H148 0.931 . S
C147 C145 1.321 . S
C147 C146 1.390 . S
C147 H149 0.930 . S
H148 C146 0.931 . S
H149 C147 0.930 . S
H150 C173 0.931 . S
H151 C139 0.929 . S
H152 C174 0.930 . S
H153 C145 0.931 . S
H154 C135 0.930 . S
H155 C164 0.929 . S
H156 C140 0.931 . S
H157 C141 0.930 . S
H158 C196 0.930 . S
H159 C137 0.929 . S
H160 C165 0.931 . S
H161 C166 0.930 . S
N162 Gd142 2.622 1_556 S
N162 C163 1.369 1_556 S
N162 C164 1.338 . S
C163 N162 1.369 1_554 S
C163 C167 1.415 . S
C163 C170 1.422 . S
C164 H155 0.929 . S
C164 N162 1.338 . S
C164 C166 1.378 . S
C165 H160 0.931 . S
C165 C166 1.348 1_554 S
C165 C167 1.413 . S
C166 H161 0.930 . S
C166 C164 1.378 . S
C166 C165 1.348 1_556 S
C167 C163 1.415 . S
C167 C165 1.413 . S
C167 C197 1.437 . S
H168 C197 0.929 . S
N169 Gd142 2.570 . S
N169 C170 1.359 . S
N169 C173 1.343 . S
C170 C163 1.422 . S
C170 N169 1.359 . S
C170 C172 1.421 . S
C171 C172 1.422 . S
C171 C174 1.321 . S
C171 H198 0.931 . S
C172 C170 1.421 . S
C172 C171 1.422 . S
C172 C196 1.417 . S
C173 H150 0.931 . S
C173 N169 1.343 . S
C173 C174 1.390 . S
C174 H152 0.930 . S
C174 C171 1.321 . S
C174 C173 1.390 . S
O175 Gd143 2.386 . S
O175 C187 1.265 1_554 S
O176 Gd142 2.353 1_556 S
O176 C187 1.242 . S
O177 Gd142 2.468 1_556 S
O177 C195 1.263 . S
O178 Gd142 2.427 1_556 S
O178 C195 1.252 . S
O179 Gd143 2.307 . S
O179 C188 1.261 . S
O180 Gd142 2.388 1_556 S
O180 C188 1.252 1_556 S
O181 Gd142 2.386 . S
O181 C199 1.265 . S
O182 Gd143 2.353 . S
O182 C199 1.242 . S
O183 Gd143 2.468 . S
O183 C207 1.263 . S
O184 Gd143 2.427 . S
O184 C207 1.252 . S
O185 Gd142 2.307 . S
O185 C200 1.261 . S
O186 Gd143 2.388 . S
O186 C200 1.252 . S
C187 O175 1.265 1_556 S
C187 O176 1.242 . S
C188 O179 1.261 . S
C188 O180 1.252 1_554 S
C189 C192 1.394 . S
C189 C194 1.370 . S
C189 C195 1.500 . S
C190 C193 1.383 . S
C190 C194 1.395 . S
C191 C192 1.396 . S
C191 C193 1.365 . S
C191 H208 0.929 . S
C192 C189 1.394 . S
C192 C191 1.396 . S
C192 H209 0.930 . S
C193 C190 1.383 . S
C193 C191 1.365 . S
C193 H210 0.931 . S
C194 C189 1.370 . S
C194 C190 1.395 . S
C194 H211 0.930 . S
C195 Gd142 2.805 1_556 S
C195 O177 1.263 . S
C195 O178 1.252 . S
C195 C189 1.500 . S
C196 H158 0.930 . S
C196 C172 1.417 . S
C196 C197 1.329 . S
C197 C167 1.437 . S
C197 H168 0.929 . S
C197 C196 1.329 . S
H198 C171 0.931 . S
C199 O181 1.265 . S
C199 O182 1.242 . S
C200 O185 1.261 . S
C200 O186 1.252 . S
C201 C204 1.394 . S
C201 C206 1.370 . S
C201 C207 1.500 . S
C202 C205 1.383 . S
C202 C206 1.395 . S
C203 C204 1.396 . S
C203 C205 1.365 . S
C203 H212 0.929 . S
C204 C201 1.394 . S
C204 C203 1.396 . S
C204 H213 0.930 . S
C205 C202 1.383 . S
C205 C203 1.365 . S
C205 H214 0.931 . S
C206 C201 1.370 . S
C206 C202 1.395 . S
C206 H215 0.930 . S
C207 Gd143 2.805 . S
C207 O183 1.263 . S
C207 O184 1.252 . S
C207 C201 1.500 . S
H208 C191 0.929 . S
H209 C192 0.930 . S
H210 C193 0.931 . S
H211 C194 0.930 . S
H212 C203 0.929 . S
H213 C204 0.930 . S
H214 C205 0.931 . S
H215 C206 0.930 . S
C116 C40 1.710 . S
C4 C188 1.874 . S
C16 C104 1.718 . S
C28 C200 1.664 . S
C106 C9 1.343 . S
C187 C18 1.848 . S
C33 C103 1.824 . S
C45 C190 1.459 . S
C202 C21 1.444 . S
C118 C30 1.253 . S
C199 C42 1.711 . S
C6 C115 1.745 . S
