# Generated by pormake.
# Topology apo, (3,6)-cn, num edge types: 1
# Building blocks:
#     Node 0, Type 0, BuildingBlock: INOVEN_clean_linker_0, # of connection points: 3
#     Node 1, Type 0, BuildingBlock: INOVEN_clean_linker_0, # of connection points: 3
#     Node 2, Type 0, BuildingBlock: INOVEN_clean_linker_0, # of connection points: 3
#     Node 3, Type 0, BuildingBlock: INOVEN_clean_linker_0, # of connection points: 3
#     Node 4, Type 0, BuildingBlock: INOVEN_clean_linker_0, # of connection points: 3
#     Node 5, Type 0, BuildingBlock: INOVEN_clean_linker_0, # of connection points: 3
#     Node 6, Type 0, BuildingBlock: INOVEN_clean_linker_0, # of connection points: 3
#     Node 7, Type 0, BuildingBlock: INOVEN_clean_linker_0, # of connection points: 3
#     Node 8, Type 1, BuildingBlock: MIDCAF_clean_sbu_0, # of connection points: 6
#     Node 9, Type 1, BuildingBlock: MIDCAF_clean_sbu_0, # of connection points: 6
#     Node 10, Type 1, BuildingBlock: MIDCAF_clean_sbu_0, # of connection points: 6
#     Node 11, Type 1, BuildingBlock: MIDCAF_clean_sbu_0, # of connection points: 6
#     Edge 12, Type (0, 1), None
#     Edge 13, Type (0, 1), None
#     Edge 14, Type (0, 1), None
#     Edge 15, Type (0, 1), None
#     Edge 16, Type (0, 1), None
#     Edge 17, Type (0, 1), None
#     Edge 18, Type (0, 1), None
#     Edge 19, Type (0, 1), None
#     Edge 20, Type (0, 1), None
#     Edge 21, Type (0, 1), None
#     Edge 22, Type (0, 1), None
#     Edge 23, Type (0, 1), None
#     Edge 24, Type (0, 1), None
#     Edge 25, Type (0, 1), None
#     Edge 26, Type (0, 1), None
#     Edge 27, Type (0, 1), None
#     Edge 28, Type (0, 1), None
#     Edge 29, Type (0, 1), None
#     Edge 30, Type (0, 1), None
#     Edge 31, Type (0, 1), None
#     Edge 32, Type (0, 1), None
#     Edge 33, Type (0, 1), None
#     Edge 34, Type (0, 1), None
#     Edge 35, Type (0, 1), None
# Relax obj value: 0.014
# Max RMSD: 0.066
# Mean RMSD: 0.045
data_MOF--net-apo--node1-MIDCAF_clean_sbu_0--node2-INOVEN_clean_linker_0--edge1-none
_symmetry_space_group_name_H-M    P1
_symmetry_Int_Tables_number       1
_symmetry_cell_setting            triclinic
loop_
_symmetry_equiv_pos_as_xyz
'x, y, z'
_cell_length_a     11.68528
_cell_length_b     21.662365
_cell_length_c     14.531575
_cell_angle_alpha  92.152709
_cell_angle_beta   90.004769
_cell_angle_gamma 89.990228
loop_
_atom_site_label
_atom_site_type_symbol
_atom_site_fract_x
_atom_site_fract_y
_atom_site_fract_z
_atom_type_partial_charge
H0 H 0.70565 0.16616 0.46187 0.0
H1 H 0.73312 0.36285 0.44844 0.0
H2 H 0.55207 0.25988 0.23612 0.0
N3 N 0.58843 0.14778 0.31077 0.0
N4 N 0.519 0.13913 0.24619 0.0
C5 C 0.69185 0.2082 0.42521 0.0
C6 C 0.72807 0.26483 0.46437 0.0
C7 C 0.63202 0.20577 0.34111 0.0
C8 C 0.60395 0.26075 0.29795 0.0
C9 C 0.64213 0.31713 0.33692 0.0
C10 C 0.70756 0.31858 0.41741 0.0
H11 H 0.3042 0.15778 0.9733 0.0
H12 H 0.25146 -0.03805 0.97966 0.0
H13 H 0.45064 0.03643 0.76142 0.0
N14 N 0.42185 0.15757 0.81823 0.0
N15 N 0.49393 0.15636 0.75462 0.0
C16 C 0.3177 0.11179 0.94333 0.0
C17 C 0.27172 0.06056 0.98635 0.0
C18 C 0.38152 0.1038 0.86139 0.0
C19 C 0.40111 0.04344 0.82395 0.0
C20 C 0.35255 -0.00773 0.8664 0.0
C21 C 0.28738 0.00154 0.94631 0.0
H22 H 0.20572 0.14709 0.57753 0.0
H23 H 0.23296 -0.04962 0.59082 0.0
H24 H 1.05187 0.05337 0.80312 0.0
N25 N 1.08838 0.16547 0.72857 0.0
N26 N 1.01893 0.17412 0.79314 0.0
C27 C 1.19184 0.10505 0.61415 0.0
C28 C 0.22804 0.04842 0.57497 0.0
C29 C 1.13194 0.10747 0.69822 0.0
C30 C 1.10379 0.05249 0.74131 0.0
C31 C 1.14194 -0.00389 0.70232 0.0
C32 C 0.20742 -0.00534 0.62187 0.0
H33 H 0.80414 0.15545 0.06609 0.0
H34 H 0.75163 0.35131 0.05957 0.0
H35 H 0.95081 0.27681 0.27784 0.0
N36 N 0.92189 0.15567 0.22113 0.0
N37 N 0.994 0.15687 0.28472 0.0
C38 C 0.8177 0.20145 0.09601 0.0
C39 C 0.77177 0.25269 0.05296 0.0
C40 C 0.88158 0.20944 0.17793 0.0
C41 C 0.90125 0.2698 0.21533 0.0
C42 C 0.85273 0.32098 0.17284 0.0
C43 C 0.78752 0.31172 0.09294 0.0
H44 H 0.77466 0.64059 0.55747 0.0
H45 H 0.69845 0.44868 0.58511 0.0
H46 H 0.87086 0.54969 0.80484 0.0
N47 N 0.86595 0.66037 0.71917 0.0
N48 N 0.92606 0.67006 0.78942 0.0
C49 C 0.77478 0.59973 0.59832 0.0
C50 C 0.7308 0.54433 0.56099 0.0
C51 C 0.82104 0.60271 0.68774 0.0
C52 C 0.82835 0.5488 0.73854 0.0
C53 C 0.78212 0.49324 0.70158 0.0
C54 C 0.72994 0.49217 0.61481 0.0
H55 H 0.98477 0.79726 0.28873 0.0
H56 H 1.15151 0.87845 0.05733 0.0
H57 H 1.15057 0.68246 0.07842 0.0
N58 N 1.03469 0.6763 0.22725 0.0
N59 N 0.96314 0.66643 0.28898 0.0
C60 C 1.03284 0.79234 0.22518 0.0
C61 C 1.06532 0.84497 0.1765 0.0
C62 C 1.06575 0.73324 0.18958 0.0
C63 C 1.12748 0.72783 0.10666 0.0
C64 C 1.15736 0.77987 0.05907 0.0
C65 C 1.12729 0.83794 0.09463 0.0
H66 H 0.27456 0.67262 0.4817 0.0
H67 H 1.19854 0.86458 0.45416 0.0
H68 H 0.37105 0.76357 0.23447 0.0
N69 N 0.36599 0.65286 0.32005 0.0
N70 N 0.42615 0.64318 0.24983 0.0
C71 C 0.27475 0.7135 0.44088 0.0
C72 C 0.23078 0.76891 0.47822 0.0
C73 C 0.32109 0.71053 0.35149 0.0
C74 C 0.32849 0.76446 0.30074 0.0
C75 C 0.28227 0.82002 0.33771 0.0
C76 C 0.23001 0.82108 0.42444 0.0
H77 H 0.4846 0.51597 0.75054 0.0
H78 H 0.65133 0.4348 0.982 0.0
H79 H 0.6506 0.63077 0.96073 0.0
N80 N 0.53462 0.63693 0.81193 0.0
N81 N 0.46301 0.6468 0.75023 0.0
C82 C 0.53269 0.5209 0.81408 0.0
C83 C 0.56514 0.46827 0.8628 0.0
C84 C 0.56567 0.57999 0.84963 0.0
C85 C 0.62744 0.58541 0.93253 0.0
C86 C 0.65729 0.53337 0.98017 0.0
C87 C 0.62713 0.4753 0.94467 0.0
Zn88 Zn 0.4038 -0.01915 0.32954 0.0
Zn89 Zn 0.97218 0.02989 0.16204 0.0
Zn90 Zn 0.22428 0.02521 0.28024 0.0
C91 C 0.20948 0.06497 0.0744 0.0
C92 C 1.04343 0.90927 0.20642 0.0
O93 O 0.2157 0.06723 0.415 0.0
O94 O 0.3441 0.00018 0.46048 0.0
C95 C 0.46981 0.07959 0.23692 0.0
O96 O 0.26818 0.06005 0.14872 0.0
O97 O 1.10214 0.05426 0.07161 0.0
O98 O 0.96312 -0.06288 0.16604 0.0
O99 O 1.12939 -0.06047 0.24123 0.0
O100 O 0.51384 0.03844 0.2848 0.0
O101 O 0.36471 0.0742 0.21132 0.0
O102 O 0.23206 -0.07653 0.30348 0.0
O103 O 0.41138 0.89325 0.28528 0.0
C104 C 0.30796 0.87998 0.29891 0.0
O105 O 1.12957 0.09701 0.35681 0.0
O106 O 0.98574 0.05057 0.29609 0.0
C107 C 0.27035 0.04177 0.4798 0.0
C108 C 1.02884 0.1009 0.32448 0.0
Zn109 Zn 0.90364 0.33241 0.7099 0.0
Zn110 Zn 0.47211 0.28334 0.87734 0.0
Zn111 Zn 0.72415 0.28804 0.75909 0.0
C112 C 0.54323 0.40397 0.83292 0.0
C113 C 0.52878 0.21233 0.71488 0.0
O114 O 0.86463 0.23905 0.82799 0.0
O115 O 1.01378 0.27485 0.75463 0.0
C116 C 0.80774 0.43329 0.74044 0.0
O117 O 0.62921 0.37372 0.79808 0.0
O118 O 0.46299 0.3761 0.87333 0.0
O119 O 0.48564 0.26266 0.74329 0.0
O120 O 0.62948 0.21623 0.68252 0.0
O121 O 0.91116 0.42001 0.75414 0.0
O122 O 0.73187 0.38979 0.73583 0.0
O123 O 0.7156 0.24603 0.62434 0.0
O124 O 0.84401 0.31306 0.57894 0.0
C125 C 0.77028 0.27148 0.55957 0.0
O126 O 0.76812 0.25322 0.8906 0.0
O127 O 0.60212 0.25896 0.96775 0.0
C128 C 0.96975 0.23367 0.80243 0.0
C129 C 0.70947 0.24827 0.96493 0.0
Zn130 Zn 0.41089 0.81738 0.84945 0.0
Zn131 Zn 1.02877 0.83238 0.71431 0.0
Zn132 Zn 0.21715 0.79683 0.77402 0.0
C133 C 1.10785 -0.06337 0.7367 0.0
C134 C 0.97083 0.73065 0.80206 0.0
O135 O 0.33425 0.72553 0.71219 0.0
O136 O 0.49095 0.74836 0.79021 0.0
C137 C 0.36942 -0.07203 0.83234 0.0
O138 O 1.18647 0.89523 0.74482 0.0
O139 O 1.00345 -0.07784 0.74043 0.0
O140 O 0.9223 0.7723 0.75786 0.0
O141 O 1.07555 0.7382 0.82836 0.0
O142 O 0.46743 0.90379 0.83554 0.0
O143 O 0.28071 0.89352 0.81542 0.0
O144 O 1.161 0.76128 0.89774 0.0
O145 O 0.31421 0.80236 0.96568 0.0
C146 C 0.21723 0.77614 0.97074 0.0
O147 O 0.25116 0.7563 0.6412 0.0
O148 O 1.1041 0.8097 0.59028 0.0
C149 C 0.43443 0.71022 0.74039 0.0
C150 C 1.19096 0.7757 0.57435 0.0
Zn151 Zn 0.91102 0.49586 0.18966 0.0
Zn152 Zn 0.52896 0.48086 0.32478 0.0
Zn153 Zn 0.71732 0.51641 0.2652 0.0
C154 C 0.69106 0.53752 0.46483 0.0
C155 C 0.60809 0.37661 0.3025 0.0
O156 O 0.66107 0.55196 0.14149 0.0
O157 O 0.81425 0.51088 0.07348 0.0
C158 C 0.93455 0.60302 0.29881 0.0
O159 O 0.75128 0.55694 0.39802 0.0
O160 O 0.60423 0.50352 0.44886 0.0
O161 O 0.50369 0.39108 0.29865 0.0
O162 O 0.68671 0.41801 0.29443 0.0
O163 O 0.99102 0.56489 0.24892 0.0
O164 O 0.83439 0.58771 0.32703 0.0
O165 O 0.78093 0.41973 0.22384 0.0
O166 O 0.96762 0.40946 0.20356 0.0
C167 C 0.86963 0.38528 0.20686 0.0
O168 O 0.57566 0.57506 0.21089 0.0
O169 O 0.42239 0.54092 0.28129 0.0
C170 C 0.71724 0.5371 0.06847 0.0
C171 C 0.47092 0.5826 0.23717 0.0
loop_
_geom_bond_atom_site_label_1
_geom_bond_atom_site_label_2
_geom_bond_distance
_geom_bond_site_symmetry_2
_ccdc_geom_bond_type
H0 C5 0.929 . S
H1 C10 0.931 . S
H2 C8 0.930 . S
N3 N4 1.234 . S
N3 C7 1.453 . S
N4 N3 1.234 . S
C5 H0 0.929 . S
C5 C6 1.373 . S
C5 C7 1.368 . S
C6 C5 1.373 . S
C6 C10 1.397 . S
C7 N3 1.453 . S
C7 C5 1.368 . S
C7 C8 1.373 . S
C8 H2 0.930 . S
C8 C7 1.373 . S
C8 C9 1.371 . S
C9 C8 1.371 . S
C9 C10 1.383 . S
C10 H1 0.931 . S
C10 C6 1.397 . S
C10 C9 1.383 . S
H11 C16 0.929 1_554 S
H12 C21 0.931 . S
H13 C19 0.930 . S
N14 N15 1.234 . S
N14 C18 1.453 . S
N15 N14 1.234 . S
C16 H11 0.929 1_556 S
C16 C17 1.371 1_556 S
C16 C18 1.368 . S
C17 C16 1.371 1_554 S
C17 C21 1.392 1_554 S
C18 N14 1.453 . S
C18 C16 1.368 . S
C18 C19 1.373 . S
C19 H13 0.930 . S
C19 C18 1.373 . S
C19 C20 1.371 . S
C20 C19 1.371 . S
C20 C21 1.383 . S
C21 H12 0.931 . S
C21 C17 1.392 1_556 S
C21 C20 1.383 . S
H22 C27 0.929 . S
H23 C32 0.931 . S
H24 C30 0.930 . S
N25 N26 1.234 . S
N25 C29 1.453 . S
N26 N25 1.234 . S
C27 H22 0.929 . S
C27 C28 1.373 . S
C27 C29 1.368 . S
C28 C27 1.373 . S
C28 C32 1.397 . S
C29 N25 1.453 . S
C29 C27 1.368 . S
C29 C30 1.373 . S
C30 H24 0.930 . S
C30 C29 1.373 . S
C30 C31 1.371 . S
C31 C30 1.371 . S
C31 C32 1.383 . S
C32 H23 0.931 . S
C32 C28 1.397 . S
C32 C31 1.383 . S
H33 C38 0.929 1_556 S
H34 C43 0.931 . S
H35 C41 0.930 . S
N36 N37 1.234 . S
N36 C40 1.453 . S
N37 N36 1.234 . S
C38 H33 0.929 1_554 S
C38 C39 1.373 . S
C38 C40 1.368 . S
C39 C38 1.373 . S
C39 C43 1.397 . S
C40 N36 1.453 . S
C40 C38 1.368 . S
C40 C41 1.373 . S
C41 H35 0.930 . S
C41 C40 1.373 . S
C41 C42 1.371 . S
C42 C41 1.371 . S
C42 C43 1.383 . S
C43 H34 0.931 . S
C43 C39 1.397 . S
C43 C42 1.383 . S
H44 C49 0.929 . S
H45 C54 0.931 . S
H46 C52 0.930 . S
N47 N48 1.234 . S
N47 C51 1.453 . S
N48 N47 1.234 . S
C49 H44 0.929 . S
C49 C50 1.373 . S
C49 C51 1.368 . S
C50 C49 1.373 . S
C50 C54 1.397 . S
C51 N47 1.453 . S
C51 C49 1.368 . S
C51 C52 1.373 . S
C52 H46 0.930 . S
C52 C51 1.373 . S
C52 C53 1.371 . S
C53 C52 1.371 . S
C53 C54 1.383 . S
C54 H45 0.931 . S
C54 C50 1.397 . S
C54 C53 1.383 . S
H55 C60 0.929 . S
H56 C65 0.931 . S
H57 C63 0.930 . S
N58 N59 1.234 . S
N58 C62 1.453 . S
N59 N58 1.234 . S
C60 H55 0.929 . S
C60 C61 1.373 . S
C60 C62 1.368 . S
C61 C60 1.373 . S
C61 C65 1.397 . S
C62 N58 1.453 . S
C62 C60 1.368 . S
C62 C63 1.373 . S
C63 H57 0.930 . S
C63 C62 1.373 . S
C63 C64 1.371 . S
C64 C63 1.371 . S
C64 C65 1.383 . S
C65 H56 0.931 . S
C65 C61 1.397 . S
C65 C64 1.383 . S
H66 C71 0.929 . S
H67 C76 0.931 . S
H68 C74 0.930 . S
N69 N70 1.234 . S
N69 C73 1.453 . S
N70 N69 1.234 . S
C71 H66 0.929 . S
C71 C72 1.373 . S
C71 C73 1.368 . S
C72 C71 1.373 . S
C72 C76 1.397 . S
C73 N69 1.453 . S
C73 C71 1.368 . S
C73 C74 1.373 . S
C74 H68 0.930 . S
C74 C73 1.373 . S
C74 C75 1.371 . S
C75 C74 1.371 . S
C75 C76 1.383 . S
C76 H67 0.931 . S
C76 C72 1.397 . S
C76 C75 1.383 . S
H77 C82 0.929 . S
H78 C87 0.931 . S
H79 C85 0.930 . S
N80 N81 1.234 . S
N80 C84 1.453 . S
N81 N80 1.234 . S
C82 H77 0.929 . S
C82 C83 1.373 . S
C82 C84 1.368 . S
C83 C82 1.373 . S
C83 C87 1.397 . S
C84 N80 1.453 . S
C84 C82 1.368 . S
C84 C85 1.373 . S
C85 H79 0.930 . S
C85 C84 1.373 . S
C85 C86 1.371 . S
C86 C85 1.371 . S
C86 C87 1.383 . S
C87 H78 0.931 . S
C87 C83 1.397 . S
C87 C86 1.383 . S
Zn88 O94 1.920 . S
Zn88 O100 1.898 . S
Zn88 O103 1.905 1_545 S
Zn89 O97 1.905 1_655 S
Zn89 O98 1.898 1_545 S
Zn89 O106 1.920 . S
Zn90 O93 2.080 1_455 S
Zn90 O96 2.114 . S
Zn90 O99 2.120 1_455 S
Zn90 O101 2.120 . S
Zn90 O102 2.114 . S
Zn90 O105 2.080 1_455 S
C91 O96 1.166 . S
C91 O97 1.182 . S
C92 O98 1.167 . S
C92 O99 1.299 1_565 S
O93 Zn90 2.080 1_655 S
O93 C107 1.305 . S
O94 Zn88 1.920 . S
O94 C107 1.234 1_455 S
C95 O100 1.167 . S
C95 O101 1.299 . S
O96 Zn90 2.114 . S
O96 C91 1.166 . S
O97 Zn89 1.905 1_455 S
O97 C91 1.182 . S
O98 Zn89 1.898 1_565 S
O98 C92 1.167 . S
O99 Zn90 2.120 1_655 S
O99 C92 1.299 1_545 S
O100 Zn88 1.898 . S
O100 C95 1.167 . S
O101 Zn90 2.120 . S
O101 C95 1.299 . S
O102 Zn90 2.114 . S
O102 C104 1.166 1_545 S
O103 Zn88 1.905 1_565 S
O103 C104 1.182 . S
C104 O102 1.166 1_565 S
C104 O103 1.182 . S
O105 Zn90 2.080 1_655 S
O105 C108 1.305 . S
O106 Zn89 1.920 . S
O106 C108 1.234 . S
C107 O93 1.305 . S
C107 O94 1.234 1_655 S
C108 O105 1.305 . S
C108 O106 1.234 . S
Zn109 O115 1.920 . S
Zn109 O121 1.898 . S
Zn109 O124 1.905 . S
Zn110 O118 1.905 . S
Zn110 O119 1.898 . S
Zn110 O127 1.920 . S
Zn111 O114 2.080 . S
Zn111 O117 2.114 . S
Zn111 O120 2.120 . S
Zn111 O122 2.120 . S
Zn111 O123 2.114 . S
Zn111 O126 2.080 . S
C112 O117 1.166 . S
C112 O118 1.182 . S
C113 O119 1.167 . S
C113 O120 1.299 . S
O114 Zn111 2.080 . S
O114 C128 1.305 . S
O115 Zn109 1.920 . S
O115 C128 1.234 . S
C116 O121 1.167 . S
C116 O122 1.299 . S
O117 Zn111 2.114 . S
O117 C112 1.166 . S
O118 Zn110 1.905 . S
O118 C112 1.182 . S
O119 Zn110 1.898 . S
O119 C113 1.167 . S
O120 Zn111 2.120 . S
O120 C113 1.299 . S
O121 Zn109 1.898 . S
O121 C116 1.167 . S
O122 Zn111 2.120 . S
O122 C116 1.299 . S
O123 Zn111 2.114 . S
O123 C125 1.166 . S
O124 Zn109 1.905 . S
O124 C125 1.182 . S
C125 O123 1.166 . S
C125 O124 1.182 . S
O126 Zn111 2.080 . S
O126 C129 1.305 . S
O127 Zn110 1.920 . S
O127 C129 1.234 . S
C128 O114 1.305 . S
C128 O115 1.234 . S
C129 O126 1.305 . S
C129 O127 1.234 . S
Zn130 O136 1.920 . S
Zn130 O142 1.898 . S
Zn130 O145 1.905 1_456 S
Zn131 O139 1.905 . S
Zn131 O140 1.898 . S
Zn131 O148 1.920 1_655 S
Zn132 O135 2.080 . S
Zn132 O138 2.114 1_455 S
Zn132 O141 2.120 1_455 S
Zn132 O143 2.120 . S
Zn132 O144 2.114 1_455 S
Zn132 O147 2.080 . S
C133 O138 1.166 1_545 S
C133 O139 1.182 1_545 S
C134 O140 1.167 . S
C134 O141 1.299 . S
O135 Zn132 2.080 . S
O135 C149 1.305 . S
O136 Zn130 1.920 . S
O136 C149 1.234 . S
C137 O142 1.167 1_545 S
C137 O143 1.299 1_545 S
O138 Zn132 2.114 1_655 S
O138 C133 1.166 1_565 S
O139 Zn131 1.905 . S
O139 C133 1.182 1_565 S
O140 Zn131 1.898 . S
O140 C134 1.167 . S
O141 Zn132 2.120 1_655 S
O141 C134 1.299 . S
O142 Zn130 1.898 . S
O142 C137 1.167 1_565 S
O143 Zn132 2.120 . S
O143 C137 1.299 1_565 S
O144 Zn132 2.114 1_655 S
O144 C146 1.166 . S
O145 Zn130 1.905 1_654 S
O145 C146 1.182 1_554 S
C146 O144 1.166 . S
C146 O145 1.182 1_556 S
O147 Zn132 2.080 . S
O147 C150 1.305 . S
O148 Zn131 1.920 1_455 S
O148 C150 1.234 . S
C149 O135 1.305 . S
C149 O136 1.234 . S
C150 O147 1.305 . S
C150 O148 1.234 . S
Zn151 O157 1.920 1_554 S
Zn151 O163 1.898 . S
Zn151 O166 1.905 . S
Zn152 O160 1.905 . S
Zn152 O161 1.898 . S
Zn152 O169 1.920 . S
Zn153 O156 2.080 . S
Zn153 O159 2.114 . S
Zn153 O162 2.120 . S
Zn153 O164 2.120 . S
Zn153 O165 2.114 . S
Zn153 O168 2.080 . S
C154 O159 1.166 . S
C154 O160 1.182 . S
C155 O161 1.167 . S
C155 O162 1.299 . S
O156 Zn153 2.080 . S
O156 C170 1.305 . S
O157 Zn151 1.920 1_556 S
O157 C170 1.234 1_556 S
C158 O163 1.167 . S
C158 O164 1.299 . S
O159 Zn153 2.114 . S
O159 C154 1.166 . S
O160 Zn152 1.905 . S
O160 C154 1.182 . S
O161 Zn152 1.898 . S
O161 C155 1.167 . S
O162 Zn153 2.120 . S
O162 C155 1.299 . S
O163 Zn151 1.898 . S
O163 C158 1.167 . S
O164 Zn153 2.120 . S
O164 C158 1.299 . S
O165 Zn153 2.114 . S
O165 C167 1.166 . S
O166 Zn151 1.905 . S
O166 C167 1.182 . S
C167 O165 1.166 . S
C167 O166 1.182 . S
O168 Zn153 2.080 . S
O168 C171 1.305 . S
O169 Zn152 1.920 . S
O169 C171 1.234 . S
C170 O156 1.305 . S
C170 O157 1.234 1_554 S
C171 O168 1.305 . S
C171 O169 1.234 . S
C75 C104 1.385 . S
C112 C83 1.294 . S
C116 C53 1.380 . S
C61 C92 1.292 . S
C133 C31 1.362 . S
C167 C42 1.487 . S
C9 C155 1.358 . S
C20 C137 1.483 . S
C91 C17 1.153 . S
C125 C6 1.215 . S
C129 C39 1.146 1_556 S
C107 C28 1.212 . S
C146 C64 1.290 1_556 S
C50 C154 1.303 . S
C170 C86 1.288 1_554 S
C72 C150 1.301 . S
C95 N4 1.379 . S
C113 N15 1.457 . S
N26 C128 1.400 . S
C108 N37 1.477 . S
C134 N48 1.388 . S
N59 C158 1.221 . S
N70 C171 1.403 . S
N81 C149 1.222 . S
