# Generated by pormake.
# Topology csq, (4,8)-cn, num edge types: 1
# Building blocks:
#     Node 0, Type 0, BuildingBlock: IZENUY_clean_linker_0, # of connection points: 4
#     Node 1, Type 0, BuildingBlock: IZENUY_clean_linker_0, # of connection points: 4
#     Node 2, Type 0, BuildingBlock: IZENUY_clean_linker_0, # of connection points: 4
#     Node 3, Type 0, BuildingBlock: IZENUY_clean_linker_0, # of connection points: 4
#     Node 4, Type 0, BuildingBlock: IZENUY_clean_linker_0, # of connection points: 4
#     Node 5, Type 0, BuildingBlock: IZENUY_clean_linker_0, # of connection points: 4
#     Node 6, Type 1, BuildingBlock: TAGTUT_clean_sbu_3, # of connection points: 8
#     Node 7, Type 1, BuildingBlock: TAGTUT_clean_sbu_3, # of connection points: 8
#     Node 8, Type 1, BuildingBlock: TAGTUT_clean_sbu_3, # of connection points: 8
#     Edge 9, Type (0, 1), None
#     Edge 10, Type (0, 1), None
#     Edge 11, Type (0, 1), None
#     Edge 12, Type (0, 1), None
#     Edge 13, Type (0, 1), None
#     Edge 14, Type (0, 1), None
#     Edge 15, Type (0, 1), None
#     Edge 16, Type (0, 1), None
#     Edge 17, Type (0, 1), None
#     Edge 18, Type (0, 1), None
#     Edge 19, Type (0, 1), None
#     Edge 20, Type (0, 1), None
#     Edge 21, Type (0, 1), None
#     Edge 22, Type (0, 1), None
#     Edge 23, Type (0, 1), None
#     Edge 24, Type (0, 1), None
#     Edge 25, Type (0, 1), None
#     Edge 26, Type (0, 1), None
#     Edge 27, Type (0, 1), None
#     Edge 28, Type (0, 1), None
#     Edge 29, Type (0, 1), None
#     Edge 30, Type (0, 1), None
#     Edge 31, Type (0, 1), None
#     Edge 32, Type (0, 1), None
# Relax obj value: 0.062
# Max RMSD: 0.136
# Mean RMSD: 0.120
data_MOF--net-csq--node1-TAGTUT_clean_sbu_3--node2-IZENUY_clean_linker_0--edge1-none
_symmetry_space_group_name_H-M    P1
_symmetry_Int_Tables_number       1
_symmetry_cell_setting            triclinic
loop_
_symmetry_equiv_pos_as_xyz
'x, y, z'
_cell_length_a     30.727467
_cell_length_b     28.470302
_cell_length_c     9.95692
_cell_angle_alpha  96.486752
_cell_angle_beta   96.822549
_cell_angle_gamma 119.11959
loop_
_atom_site_label
_atom_site_type_symbol
_atom_site_fract_x
_atom_site_fract_y
_atom_site_fract_z
_atom_type_partial_charge
H0 H 0.18386 0.46865 0.04247 0.0
H1 H 0.20965 0.52684 0.48167 0.0
H2 H 0.05901 0.43033 0.24583 0.0
H3 H 0.33476 0.52651 0.41928 0.0
H4 H 0.33053 0.5209 -0.01518 0.0
H5 H 0.47075 0.57289 0.26267 0.0
N6 N 0.25556 0.51608 0.27988 0.0
N7 N 0.27578 0.51309 0.17994 0.0
C8 C 0.16935 0.47015 0.13587 0.0
C9 C 0.11707 0.44741 0.12773 0.0
C10 C 0.20288 0.49726 0.26507 0.0
C11 C 0.18381 0.50489 0.38334 0.0
C12 C 0.13131 0.48289 0.3742 0.0
C13 C 0.09912 0.45029 0.24994 0.0
C14 C 0.35425 0.53488 0.33343 0.0
C15 C 0.405 0.54858 0.35338 0.0
C16 C 0.32796 0.52866 0.20136 0.0
C17 C 0.35231 0.53167 0.08857 0.0
C18 C 0.40392 0.54553 0.11087 0.0
C19 C 0.43085 0.56029 0.24505 0.0
H20 H 0.70674 0.21606 0.89279 0.0
H21 H 0.7016 0.21868 0.32208 0.0
H22 H 0.565 0.12225 0.01543 0.0
H23 H 0.86143 0.32419 0.31332 0.0
H24 H 0.83722 0.2949 0.86995 0.0
H25 H 0.9875 0.37189 0.10296 0.0
N26 N 0.76371 0.25883 0.15504 0.0
N27 N 0.78979 0.26989 0.06474 0.0
C28 C 0.68499 0.2053 -0.02635 0.0
C29 C 0.63223 0.16757 0.9375 0.0
C30 C 0.70986 0.22597 0.11443 0.0
C31 C 0.68169 0.20692 0.21567 0.0
C32 C 0.62977 0.16733 0.178 0.0
C33 C 0.60482 0.15265 0.04151 0.0
C34 C 0.87674 0.32364 0.22107 0.0
C35 C 0.93027 0.35154 0.22947 0.0
C36 C 0.84348 0.29953 0.08863 0.0
C37 C 0.86298 0.30753 0.96859 0.0
C38 C 0.91461 0.33468 -0.02647 0.0
C39 C 0.94733 0.3502 0.10221 0.0
H40 H 0.59311 0.75378 0.83489 0.0
H41 H 0.58364 0.76908 0.26355 0.0
H42 H 0.6538 0.68299 0.10604 0.0
H43 H 0.6027 0.89941 0.21187 0.0
H44 H 0.56616 0.90072 0.7793 0.0
H45 H 0.615 0.04315 0.09648 0.0
N46 N 0.58811 0.81968 0.05531 0.0
N47 N 0.58937 0.84476 0.95886 0.0
C48 C 0.60373 0.74834 0.93712 0.0
C49 C 0.62081 0.71104 0.95463 0.0
C50 C 0.59595 0.77441 0.0542 0.0
C51 C 0.59764 0.75624 0.18035 0.0
C52 C 0.61728 0.72165 0.19839 0.0
C53 C 0.63868 0.70996 0.09169 0.0
C54 C 0.60129 0.9209 0.1298 0.0
C55 C 0.60917 0.97312 0.16731 0.0
C56 C 0.59054 0.8959 -0.01028 0.0
C57 C 0.58088 0.92227 0.88565 0.0
C58 C 0.58713 0.97531 0.924 0.0
C59 C 0.60834 1.00217 0.06399 0.0
H60 H 0.71975 0.54915 0.81374 0.0
H61 H 0.74851 0.57508 0.25997 0.0
H62 H 0.61895 0.57253 0.03315 0.0
H63 H 0.85118 0.54198 0.14734 0.0
H64 H 0.8436 0.54356 0.71347 0.0
H65 H 0.94107 0.49707 0.93277 0.0
N66 N 0.78334 0.55646 0.03587 0.0
N67 N 0.79813 0.54969 0.92707 0.0
C68 C 0.70943 0.55616 0.91128 0.0
C69 C 0.66478 0.55776 0.9108 0.0
C70 C 0.74025 0.56279 0.03655 0.0
C71 C 0.72619 0.57221 0.16337 0.0
C72 C 0.68175 0.57529 0.16256 0.0
C73 C 0.65238 0.56885 0.03516 0.0
C74 C 0.86217 0.53439 0.05147 0.0
C75 C 0.90088 0.52196 0.05259 0.0
C76 C 0.8392 0.53956 0.92825 0.0
C77 C 0.85798 0.53525 0.80704 0.0
C78 C 0.89594 0.52053 0.8092 0.0
C79 C 0.91299 0.50921 0.92985 0.0
H80 H 0.15115 0.69512 0.91282 0.0
H81 H 0.16422 0.74405 0.34709 0.0
H82 H 0.01967 0.62393 0.10018 0.0
H83 H 0.30096 0.83172 0.30309 0.0
H84 H 0.2823 0.85156 0.88036 0.0
H85 H 0.42723 0.94888 0.16063 0.0
N86 N 0.2134 0.77068 0.14928 0.0
N87 N 0.2348 0.79056 0.05457 0.0
C88 C 0.13271 0.69423 -0.00056 0.0
C89 C 0.08139 0.65357 -0.01058 0.0
C90 C 0.16145 0.72984 0.12845 0.0
C91 C 0.14018 0.72175 0.24647 0.0
C92 C 0.08925 0.68326 0.23709 0.0
C93 C 0.05912 0.65422 0.106 0.0
C94 C 0.31726 0.85008 0.21876 0.0
C95 C 0.36845 0.89274 0.24614 0.0
C96 C 0.28667 0.833 0.08413 0.0
C97 C 0.30647 0.86178 -0.01976 0.0
C98 C 0.35676 0.90505 0.00817 0.0
C99 C 0.38805 0.91646 0.13768 0.0
H100 H 0.45017 0.19853 0.03223 0.0
H101 H 0.44391 0.17682 0.45415 0.0
H102 H 0.39802 0.04039 0.11968 0.0
H103 H 0.45614 0.34857 0.3788 0.0
H104 H 0.43911 0.30445 0.94013 0.0
H105 H 0.41225 0.43114 0.10097 0.0
N106 N 0.44188 0.24474 0.26951 0.0
N107 N 0.44122 0.26667 0.16714 0.0
C108 C 0.43928 0.17224 0.10745 0.0
C109 C 0.42448 0.11821 0.06381 0.0
C110 C 0.43915 0.1924 0.24347 0.0
C111 C 0.43558 0.15923 0.34564 0.0
C112 C 0.42337 0.10359 0.30277 0.0
C113 C 0.40963 0.08286 0.15762 0.0
C114 C 0.44414 0.35225 0.2757 0.0
C115 C 0.43806 0.3971 0.25417 0.0
C116 C 0.43932 0.31528 0.15971 0.0
C117 C 0.43496 0.32777 0.02639 0.0
C118 C 0.42575 0.37026 0.0045 0.0
C119 C 0.41951 0.39837 0.11802 0.0
C120 C 0.10723 0.48591 0.49331 0.0
C121 C 0.08219 0.43811 -0.00066 0.0
C122 C 0.93402 0.36358 0.85998 0.0
Mg123 Mg 0.03905 0.53084 0.33051 0.0
Mg124 Mg 0.97708 0.58375 0.47065 0.0
O125 O 0.99601 0.53037 0.46035 0.0
Mg126 Mg 0.01829 0.50382 0.60813 0.0
O127 O 0.04355 0.47745 0.75182 0.0
Mg128 Mg 0.02697 0.40265 0.66827 0.0
Mg129 Mg 0.00817 0.4756 0.89004 0.0
C130 C 0.92604 0.52624 0.70078 0.0
O131 O 0.06371 0.5929 0.76471 0.0
O132 O 0.97693 0.53274 0.1774 0.0
O133 O 0.02915 0.55887 0.94171 0.0
O134 O 0.08734 0.62471 0.38365 0.0
O135 O 0.92261 0.54339 0.2927 0.0
O136 O 0.03146 0.65272 0.38912 0.0
O137 O 0.97038 0.40795 0.4744 0.0
O138 O 0.99027 0.44252 0.28602 0.0
C139 C 0.96758 0.4012 0.34084 0.0
C140 C 0.93429 0.53091 0.18138 0.0
O141 O 0.94784 0.49712 0.69273 0.0
O142 O 0.08321 0.41709 0.87792 0.0
O143 O 0.9379 0.56722 0.6407 0.0
O144 O 0.96535 0.3561 0.80064 0.0
O145 O 0.05361 0.45796 0.01822 0.0
O146 O 0.93348 0.40777 0.86043 0.0
O147 O 0.08721 0.51658 0.50437 0.0
O148 O 0.09187 0.44425 0.55097 0.0
C149 C 0.07252 0.6581 0.35712 0.0
C150 C 0.05562 0.59987 0.88845 0.0
C151 C 0.44222 0.07175 0.38242 0.0
C152 C 0.60497 0.13136 0.27155 0.0
C153 C 0.59926 0.98922 0.30125 0.0
Mg154 Mg 0.39006 1.00253 0.64458 0.0
Mg155 Mg 0.48307 0.037 0.88517 0.0
O156 O 0.4489 0.99473 0.71267 0.0
Mg157 Mg 0.49796 0.02791 0.60004 0.0
O158 O 0.54484 0.05863 0.47929 0.0
Mg159 Mg 0.50528 1.0103 0.30295 0.0
Mg160 Mg 0.61494 0.08674 0.51287 0.0
C161 C 0.55914 0.99809 0.84368 0.0
O162 O 0.55812 0.10687 0.76444 0.0
O163 O 0.35433 0.93967 0.79406 0.0
O164 O 0.6354 0.12469 0.72547 0.0
O165 O 0.40141 0.06525 0.83837 0.0
O166 O 0.42524 0.97932 0.95951 0.0
O167 O 0.48178 0.11003 0.94301 0.0
O168 O 0.44565 0.95143 0.42089 0.0
O169 O 0.37021 0.93457 0.46296 0.0
C170 C 0.39644 0.92372 0.38868 0.0
C171 C 0.37896 0.94261 0.91285 0.0
O172 O 0.54302 0.98632 0.71098 0.0
O173 O 0.56626 0.08302 0.2206 0.0
O174 O 0.54647 0.02638 0.92095 0.0
O175 O 0.55228 0.96788 0.30673 0.0
O176 O 0.62776 0.14588 0.39689 0.0
O177 O 0.63247 0.03524 0.37799 0.0
O178 O 0.44706 0.06957 0.5135 0.0
O179 O 0.46225 0.05212 0.30667 0.0
C180 C 0.43714 0.10183 0.93466 0.0
C181 C 0.60738 0.13352 0.79798 0.0
C182 C 0.59521 0.6558 0.86326 0.0
C183 C 0.42753 0.53486 -0.00065 0.0
C184 C 0.43956 0.39935 0.88626 0.0
Mg185 Mg 0.64207 0.64102 0.56966 0.0
Mg186 Mg 0.55486 0.55987 0.30876 0.0
O187 O 0.58067 0.56998 0.49005 0.0
Mg188 Mg 0.5342 0.54955 0.61974 0.0
O189 O 0.48893 0.52967 0.75569 0.0
Mg190 Mg 0.53136 0.52887 0.91441 0.0
Mg191 Mg 0.41913 0.47814 0.72282 0.0
C192 C 0.46737 0.45161 0.34981 0.0
O193 O 0.47741 0.56527 0.50268 0.0
O194 O 0.67881 0.61701 0.38747 0.0
O195 O 0.40053 0.49874 0.52968 0.0
O196 O 0.62838 0.69371 0.41509 0.0
O197 O 0.60976 0.54291 0.25341 0.0
O198 O 0.56775 0.6331 0.23891 0.0
O199 O 0.5864 0.53155 0.7617 0.0
O200 O 0.66063 0.59366 0.71526 0.0
C201 C 0.63534 0.55709 0.78299 0.0
C202 C 0.65768 0.57614 0.28294 0.0
O203 O 0.48652 0.45921 0.47854 0.0
O204 O 0.47049 0.53624 0.02981 0.0
O205 O 0.48116 0.49175 0.28725 0.0
O206 O 0.48692 0.4344 0.90117 0.0
O207 O 0.4015 0.51806 0.87711 0.0
O208 O 0.40609 0.40612 0.8152 0.0
O209 O 0.58772 0.64472 0.73027 0.0
O210 O 0.57406 0.61767 0.92974 0.0
C211 C 0.60092 0.68242 0.2952 0.0
C212 C 0.42863 0.53927 0.47481 0.0
loop_
_geom_bond_atom_site_label_1
_geom_bond_atom_site_label_2
_geom_bond_distance
_geom_bond_site_symmetry_2
_ccdc_geom_bond_type
H0 C8 0.940 . S
H1 C11 0.940 . S
H2 C13 0.940 . S
H3 C14 0.940 . S
H4 C17 0.940 . S
H5 C19 0.940 . S
N6 N7 1.190 . S
N6 C10 1.477 . S
N7 N6 1.190 . S
N7 C16 1.477 . S
C8 H0 0.940 . S
C8 C9 1.390 . S
C8 C10 1.322 . S
C9 C8 1.390 . S
C9 C13 1.370 . S
C10 N6 1.477 . S
C10 C8 1.322 . S
C10 C11 1.447 . S
C11 H1 0.940 . S
C11 C10 1.447 . S
C11 C12 1.373 . S
C12 C11 1.373 . S
C12 C13 1.417 . S
C13 H2 0.940 . S
C13 C9 1.370 . S
C13 C12 1.417 . S
C14 H3 0.940 . S
C14 C15 1.390 . S
C14 C16 1.322 . S
C15 C14 1.390 . S
C15 C19 1.370 . S
C16 N7 1.477 . S
C16 C14 1.322 . S
C16 C17 1.447 . S
C17 H4 0.940 . S
C17 C16 1.447 . S
C17 C18 1.373 . S
C18 C17 1.373 . S
C18 C19 1.417 . S
C19 H5 0.940 . S
C19 C15 1.370 . S
C19 C18 1.417 . S
H20 C28 0.940 1_556 S
H21 C31 0.940 . S
H22 C33 0.940 . S
H23 C34 0.940 . S
H24 C37 0.940 . S
H25 C39 0.940 . S
N26 N27 1.190 . S
N26 C30 1.477 . S
N27 N26 1.190 . S
N27 C36 1.477 . S
C28 H20 0.940 1_554 S
C28 C29 1.390 1_554 S
C28 C30 1.322 . S
C29 C28 1.390 1_556 S
C29 C33 1.370 1_556 S
C30 N26 1.477 . S
C30 C28 1.322 . S
C30 C31 1.447 . S
C31 H21 0.940 . S
C31 C30 1.447 . S
C31 C32 1.373 . S
C32 C31 1.373 . S
C32 C33 1.417 . S
C33 H22 0.940 . S
C33 C29 1.370 1_554 S
C33 C32 1.417 . S
C34 H23 0.940 . S
C34 C35 1.390 . S
C34 C36 1.322 . S
C35 C34 1.390 . S
C35 C39 1.370 . S
C36 N27 1.477 . S
C36 C34 1.322 . S
C36 C37 1.447 1_554 S
C37 H24 0.940 . S
C37 C36 1.447 1_556 S
C37 C38 1.373 1_556 S
C38 C37 1.373 1_554 S
C38 C39 1.417 . S
C39 H25 0.940 . S
C39 C35 1.370 . S
C39 C38 1.417 . S
H40 C48 0.940 . S
H41 C51 0.940 . S
H42 C53 0.940 . S
H43 C54 0.940 . S
H44 C57 0.940 . S
H45 C59 0.940 . S
N46 N47 1.190 1_554 S
N46 C50 1.477 . S
N47 N46 1.190 1_556 S
N47 C56 1.477 1_556 S
C48 H40 0.940 . S
C48 C49 1.390 . S
C48 C50 1.322 1_556 S
C49 C48 1.390 . S
C49 C53 1.370 1_556 S
C50 N46 1.477 . S
C50 C48 1.322 1_554 S
C50 C51 1.447 . S
C51 H41 0.940 . S
C51 C50 1.447 . S
C51 C52 1.373 . S
C52 C51 1.373 . S
C52 C53 1.417 . S
C53 H42 0.940 . S
C53 C49 1.370 1_554 S
C53 C52 1.417 . S
C54 H43 0.940 . S
C54 C55 1.390 . S
C54 C56 1.322 . S
C55 C54 1.390 . S
C55 C59 1.370 . S
C56 N47 1.477 1_554 S
C56 C54 1.322 . S
C56 C57 1.447 1_554 S
C57 H44 0.940 . S
C57 C56 1.447 1_556 S
C57 C58 1.373 . S
C58 C57 1.373 . S
C58 C59 1.417 1_556 S
C59 H45 0.940 . S
C59 C55 1.370 . S
C59 C58 1.417 1_554 S
H60 C68 0.940 . S
H61 C71 0.940 . S
H62 C73 0.940 . S
H63 C74 0.940 . S
H64 C77 0.940 . S
H65 C79 0.940 . S
N66 N67 1.190 1_554 S
N66 C70 1.477 . S
N67 N66 1.190 1_556 S
N67 C76 1.477 . S
C68 H60 0.940 . S
C68 C69 1.390 . S
C68 C70 1.322 1_556 S
C69 C68 1.390 . S
C69 C73 1.370 . S
C70 N66 1.477 . S
C70 C68 1.322 1_554 S
C70 C71 1.447 . S
C71 H61 0.940 . S
C71 C70 1.447 . S
C71 C72 1.373 . S
C72 C71 1.373 . S
C72 C73 1.417 1_554 S
C73 H62 0.940 . S
C73 C69 1.370 . S
C73 C72 1.417 1_556 S
C74 H63 0.940 . S
C74 C75 1.390 . S
C74 C76 1.322 1_554 S
C75 C74 1.390 . S
C75 C79 1.370 . S
C76 N67 1.477 . S
C76 C74 1.322 1_556 S
C76 C77 1.447 . S
C77 H64 0.940 . S
C77 C76 1.447 . S
C77 C78 1.373 . S
C78 C77 1.373 . S
C78 C79 1.417 1_556 S
C79 H65 0.940 . S
C79 C75 1.370 . S
C79 C78 1.417 1_554 S
H80 C88 0.940 1_556 S
H81 C91 0.940 . S
H82 C93 0.940 . S
H83 C94 0.940 . S
H84 C97 0.940 1_556 S
H85 C99 0.940 . S
N86 N87 1.190 . S
N86 C90 1.477 . S
N87 N86 1.190 . S
N87 C96 1.477 . S
C88 H80 0.940 1_554 S
C88 C89 1.390 . S
C88 C90 1.322 . S
C89 C88 1.390 . S
C89 C93 1.370 . S
C90 N86 1.477 . S
C90 C88 1.322 . S
C90 C91 1.447 . S
C91 H81 0.940 . S
C91 C90 1.447 . S
C91 C92 1.373 . S
C92 C91 1.373 . S
C92 C93 1.417 . S
C93 H82 0.940 . S
C93 C89 1.370 . S
C93 C92 1.417 . S
C94 H83 0.940 . S
C94 C95 1.390 . S
C94 C96 1.322 . S
C95 C94 1.390 . S
C95 C99 1.370 . S
C96 N87 1.477 . S
C96 C94 1.322 . S
C96 C97 1.447 . S
C97 H84 0.940 1_554 S
C97 C96 1.447 . S
C97 C98 1.373 . S
C98 C97 1.373 . S
C98 C99 1.417 . S
C99 H85 0.940 . S
C99 C95 1.370 . S
C99 C98 1.417 . S
H100 C108 0.940 . S
H101 C111 0.940 . S
H102 C113 0.940 . S
H103 C114 0.940 . S
H104 C117 0.940 . S
H105 C119 0.940 . S
N106 N107 1.190 . S
N106 C110 1.477 . S
N107 N106 1.190 . S
N107 C116 1.477 . S
C108 H100 0.940 . S
C108 C109 1.390 . S
C108 C110 1.322 . S
C109 C108 1.390 . S
C109 C113 1.370 . S
C110 N106 1.477 . S
C110 C108 1.322 . S
C110 C111 1.447 . S
C111 H101 0.940 . S
C111 C110 1.447 . S
C111 C112 1.373 . S
C112 C111 1.373 . S
C112 C113 1.417 . S
C113 H102 0.940 . S
C113 C109 1.370 . S
C113 C112 1.417 . S
C114 H103 0.940 . S
C114 C115 1.390 . S
C114 C116 1.322 . S
C115 C114 1.390 . S
C115 C119 1.370 . S
C116 N107 1.477 . S
C116 C114 1.322 . S
C116 C117 1.447 . S
C117 H104 0.940 . S
C117 C116 1.447 . S
C117 C118 1.373 . S
C118 C117 1.373 . S
C118 C119 1.417 . S
C119 H105 0.940 . S
C119 C115 1.370 . S
C119 C118 1.417 . S
C120 O147 1.312 . S
C120 O148 1.208 . S
C121 O142 1.331 . S
C121 O145 1.244 1_556 S
C122 O144 1.264 . S
C122 O146 1.273 . S
Mg123 O125 1.943 . S
Mg123 O132 2.094 . S
Mg123 O134 2.018 1_655 S
Mg123 O138 2.035 . S
Mg123 O147 2.281 1_655 S
Mg124 O125 1.963 . S
Mg124 O135 1.942 . S
Mg124 O136 1.955 1_655 S
Mg124 O143 1.986 . S
O125 Mg123 1.943 . S
O125 Mg124 1.963 . S
O125 Mg126 1.915 1_655 S
Mg126 O125 1.915 1_455 S
Mg126 O127 1.915 . S
Mg126 O131 2.013 . S
Mg126 O137 2.114 1_455 S
Mg126 O141 2.013 1_455 S
Mg126 O147 2.114 . S
O127 Mg126 1.915 . S
O127 Mg128 1.936 . S
O127 Mg129 1.963 . S
Mg128 O127 1.936 . S
Mg128 O137 2.291 1_455 S
Mg128 O142 2.081 . S
Mg128 O144 2.023 1_455 S
Mg128 O148 2.031 . S
Mg129 O127 1.963 . S
Mg129 O133 1.986 . S
Mg129 O145 1.942 1_556 S
Mg129 O146 1.955 1_455 S
C130 O141 1.191 . S
C130 O143 1.307 . S
O131 Mg126 2.013 . S
O131 C150 1.191 . S
O132 Mg123 2.094 . S
O132 C140 1.331 . S
O133 Mg129 1.986 . S
O133 C150 1.307 . S
O134 Mg123 2.018 1_455 S
O134 C149 1.264 . S
O135 Mg124 1.942 . S
O135 C140 1.244 . S
O136 Mg124 1.955 1_455 S
O136 C149 1.273 . S
O137 Mg126 2.114 1_655 S
O137 Mg128 2.291 1_655 S
O137 C139 1.312 . S
O138 Mg123 2.035 . S
O138 C139 1.208 . S
C139 O137 1.312 . S
C139 O138 1.208 . S
C140 O132 1.331 . S
C140 O135 1.244 . S
O141 Mg126 2.013 1_655 S
O141 C130 1.191 . S
O142 C121 1.331 . S
O142 Mg128 2.081 . S
O143 Mg124 1.986 . S
O143 C130 1.307 . S
O144 C122 1.264 . S
O144 Mg128 2.023 1_655 S
O145 C121 1.244 1_554 S
O145 Mg129 1.942 1_554 S
O146 C122 1.273 . S
O146 Mg129 1.955 1_655 S
O147 C120 1.312 . S
O147 Mg123 2.281 1_455 S
O147 Mg126 2.114 . S
O148 C120 1.208 . S
O148 Mg128 2.031 . S
C149 O134 1.264 . S
C149 O136 1.273 . S
C150 O131 1.191 . S
C150 O133 1.307 . S
C151 O178 1.312 . S
C151 O179 1.208 . S
C152 O173 1.331 . S
C152 O176 1.244 . S
C153 O175 1.264 . S
C153 O177 1.273 . S
Mg154 O156 1.936 1_545 S
Mg154 O163 2.081 1_545 S
Mg154 O165 2.023 . S
Mg154 O169 2.031 1_545 S
Mg154 O178 2.291 . S
Mg155 O156 1.963 1_545 S
Mg155 O166 1.942 1_546 S
Mg155 O167 1.955 1_556 S
Mg155 O174 1.986 1_545 S
O156 Mg154 1.936 1_565 S
O156 Mg155 1.963 1_565 S
O156 Mg157 1.915 1_565 S
Mg157 O156 1.915 1_545 S
Mg157 O158 1.915 . S
Mg157 O162 2.013 . S
Mg157 O168 2.114 1_545 S
Mg157 O172 2.013 1_545 S
Mg157 O178 2.114 . S
O158 Mg157 1.915 . S
O158 Mg159 1.936 . S
O158 Mg160 1.963 . S
Mg159 O158 1.936 . S
Mg159 O168 2.291 1_545 S
Mg159 O173 2.081 . S
Mg159 O175 2.023 1_545 S
Mg159 O179 2.031 . S
Mg160 O158 1.963 . S
Mg160 O164 1.986 . S
Mg160 O176 1.942 . S
Mg160 O177 1.955 1_545 S
C161 O172 1.191 . S
C161 O174 1.307 . S
O162 Mg157 2.013 . S
O162 C181 1.191 . S
O163 Mg154 2.081 1_565 S
O163 C171 1.331 . S
O164 Mg160 1.986 . S
O164 C181 1.307 . S
O165 Mg154 2.023 . S
O165 C180 1.264 . S
O166 Mg155 1.942 1_564 S
O166 C171 1.244 1_554 S
O167 Mg155 1.955 1_554 S
O167 C180 1.273 1_554 S
O168 Mg157 2.114 1_565 S
O168 Mg159 2.291 1_565 S
O168 C170 1.312 . S
O169 Mg154 2.031 1_565 S
O169 C170 1.208 . S
C170 O168 1.312 . S
C170 O169 1.208 . S
C171 O163 1.331 . S
C171 O166 1.244 1_556 S
O172 Mg157 2.013 1_565 S
O172 C161 1.191 . S
O173 C152 1.331 . S
O173 Mg159 2.081 . S
O174 Mg155 1.986 1_565 S
O174 C161 1.307 . S
O175 C153 1.264 . S
O175 Mg159 2.023 1_565 S
O176 C152 1.244 . S
O176 Mg160 1.942 . S
O177 C153 1.273 . S
O177 Mg160 1.955 1_565 S
O178 C151 1.312 . S
O178 Mg154 2.291 . S
O178 Mg157 2.114 . S
O179 C151 1.208 . S
O179 Mg159 2.031 . S
C180 O165 1.264 . S
C180 O167 1.273 1_556 S
C181 O162 1.191 . S
C181 O164 1.307 . S
C182 O209 1.312 . S
C182 O210 1.208 . S
C183 O204 1.331 . S
C183 O207 1.244 1_554 S
C184 O206 1.264 . S
C184 O208 1.273 . S
Mg185 O187 1.936 . S
Mg185 O194 2.081 . S
Mg185 O196 2.023 . S
Mg185 O200 2.031 . S
Mg185 O209 2.291 . S
Mg186 O187 1.963 . S
Mg186 O197 1.942 . S
Mg186 O198 1.955 . S
Mg186 O205 1.986 . S
O187 Mg185 1.936 . S
O187 Mg186 1.963 . S
O187 Mg188 1.915 . S
Mg188 O187 1.915 . S
Mg188 O189 1.915 . S
Mg188 O193 2.013 . S
Mg188 O199 2.114 . S
Mg188 O203 2.013 . S
Mg188 O209 2.114 . S
O189 Mg188 1.915 . S
O189 Mg190 1.936 . S
O189 Mg191 1.963 . S
Mg190 O189 1.936 . S
Mg190 O199 2.291 . S
Mg190 O204 2.081 1_556 S
Mg190 O206 2.023 . S
Mg190 O210 2.031 . S
Mg191 O189 1.963 . S
Mg191 O195 1.986 . S
Mg191 O207 1.942 . S
Mg191 O208 1.955 . S
C192 O203 1.191 . S
C192 O205 1.307 . S
O193 Mg188 2.013 . S
O193 C212 1.191 . S
O194 Mg185 2.081 . S
O194 C202 1.331 . S
O195 Mg191 1.986 . S
O195 C212 1.307 . S
O196 Mg185 2.023 . S
O196 C211 1.264 . S
O197 Mg186 1.942 . S
O197 C202 1.244 . S
O198 Mg186 1.955 . S
O198 C211 1.273 . S
O199 Mg188 2.114 . S
O199 Mg190 2.291 . S
O199 C201 1.312 . S
O200 Mg185 2.031 . S
O200 C201 1.208 . S
C201 O199 1.312 . S
C201 O200 1.208 . S
C202 O194 1.331 . S
C202 O197 1.244 . S
O203 Mg188 2.013 . S
O203 C192 1.191 . S
O204 C183 1.331 . S
O204 Mg190 2.081 1_554 S
O205 Mg186 1.986 . S
O205 C192 1.307 . S
O206 C184 1.264 . S
O206 Mg190 2.023 . S
O207 C183 1.244 1_556 S
O207 Mg191 1.942 . S
O208 C184 1.273 . S
O208 Mg191 1.955 . S
O209 C182 1.312 . S
O209 Mg185 2.291 . S
O209 Mg188 2.114 . S
O210 C182 1.208 . S
O210 Mg190 2.031 . S
C211 O196 1.264 . S
C211 O198 1.273 . S
C212 O193 1.191 . S
C212 O195 1.307 . S
C12 C120 2.087 . S
C32 C152 1.458 . S
C211 C52 2.084 . S
C140 C75 1.408 . S
C95 C170 2.088 . S
C192 C115 1.458 . S
C161 C58 2.103 . S
C69 C201 1.456 . S
C150 C89 2.159 1_556 S
C109 C180 1.583 1_554 S
C18 C183 1.919 . S
C122 C38 1.613 1_556 S
C130 C78 1.927 . S
C171 C98 1.409 1_556 S
C184 C118 2.069 1_556 S
C121 C9 1.513 1_556 S
C181 C29 1.983 . S
C49 C182 1.345 . S
C151 C112 1.887 . S
C212 C15 1.405 . S
C139 C35 1.968 . S
C153 C55 1.647 . S
C72 C202 1.913 . S
C92 C149 1.584 . S
