# Generated by pormake.
# Topology anh, (6,3)-cn, num edge types: 1
# Building blocks:
#     Node 0, Type 0, BuildingBlock: BETFAJ_clean_sbu_0, # of connection points: 6
#     Node 1, Type 0, BuildingBlock: BETFAJ_clean_sbu_0, # of connection points: 6
#     Node 2, Type 0, BuildingBlock: BETFAJ_clean_sbu_0, # of connection points: 6
#     Node 3, Type 1, BuildingBlock: INOVEN_clean_linker_0, # of connection points: 3
#     Node 4, Type 1, BuildingBlock: INOVEN_clean_linker_0, # of connection points: 3
#     Node 5, Type 1, BuildingBlock: INOVEN_clean_linker_0, # of connection points: 3
#     Node 6, Type 1, BuildingBlock: INOVEN_clean_linker_0, # of connection points: 3
#     Node 7, Type 1, BuildingBlock: INOVEN_clean_linker_0, # of connection points: 3
#     Node 8, Type 1, BuildingBlock: INOVEN_clean_linker_0, # of connection points: 3
#     Edge 9, Type (0, 1), None
#     Edge 10, Type (0, 1), None
#     Edge 11, Type (0, 1), None
#     Edge 12, Type (0, 1), None
#     Edge 13, Type (0, 1), None
#     Edge 14, Type (0, 1), None
#     Edge 15, Type (0, 1), None
#     Edge 16, Type (0, 1), None
#     Edge 17, Type (0, 1), None
#     Edge 18, Type (0, 1), None
#     Edge 19, Type (0, 1), None
#     Edge 20, Type (0, 1), None
#     Edge 21, Type (0, 1), None
#     Edge 22, Type (0, 1), None
#     Edge 23, Type (0, 1), None
#     Edge 24, Type (0, 1), None
#     Edge 25, Type (0, 1), None
#     Edge 26, Type (0, 1), None
# Relax obj value: 0.400
# Max RMSD: 0.304
# Mean RMSD: 0.151
data_MOF--net-anh--node1-BETFAJ_clean_sbu_0--node2-INOVEN_clean_linker_0--edge1-none
_symmetry_space_group_name_H-M    P1
_symmetry_Int_Tables_number       1
_symmetry_cell_setting            triclinic
loop_
_symmetry_equiv_pos_as_xyz
'x, y, z'
_cell_length_a     14.556104
_cell_length_b     19.97301
_cell_length_c     22.27979
_cell_angle_alpha  94.307855
_cell_angle_beta   90.646878
_cell_angle_gamma 137.69184
loop_
_atom_site_label
_atom_site_type_symbol
_atom_site_fract_x
_atom_site_fract_y
_atom_site_fract_z
_atom_type_partial_charge
Sm0 Sm 0.42798 0.65748 0.13682 0.0
Sm1 Sm 0.27051 0.68863 0.16926 0.0
C2 C 0.52941 0.60397 0.08979 0.0
C3 C 0.43991 0.49551 0.08363 0.0
C4 C 0.37414 0.43817 0.02676 0.0
C5 C 0.28019 0.33431 0.0206 0.0
C6 C 0.25461 0.28672 0.07123 0.0
C7 C 0.30625 0.34146 0.12892 0.0
C8 C 0.39915 0.44523 0.13515 0.0
C9 C 0.40567 0.66451 0.25868 0.0
C10 C 0.59532 0.89536 0.15568 0.0
C11 C 1.15273 0.72566 0.22764 0.0
C12 C 1.00772 0.658 0.23536 0.0
C13 C 0.92219 0.55535 0.23491 0.0
C14 C 0.78706 0.4849 0.20952 0.0
C15 C 0.73873 0.51772 0.18451 0.0
C16 C 0.81307 0.61801 0.19972 0.0
C17 C 0.94953 0.68894 0.22397 0.0
C18 C 1.20487 0.60493 0.04899 0.0
C19 C 1.11549 0.4582 0.1649 0.0
O20 O 0.48605 0.62827 0.05568 0.0
O21 O 0.5733 0.65037 0.14502 0.0
O22 O 0.43423 0.72409 0.2245 0.0
O23 O 0.38387 0.59511 0.22866 0.0
O24 O 0.60808 0.83552 0.14895 0.0
O25 O 0.47245 0.85529 0.15989 0.0
O26 O 0.20898 0.70534 0.25447 0.0
O27 O 1.18351 0.74441 0.17181 0.0
O28 O 0.32473 0.67552 0.07592 0.0
O29 O 1.11631 0.58116 0.08454 0.0
O30 O 1.12901 0.52588 0.19376 0.0
O31 O 0.20962 0.48896 0.12916 0.0
H32 H 0.39957 0.47451 -0.01302 0.0
H33 H 0.24156 0.29324 -0.02434 0.0
H34 H 0.28732 0.30572 0.16852 0.0
H35 H 0.44207 0.48602 0.18021 0.0
H36 H 0.96414 0.52955 0.24536 0.0
H37 H 0.73041 0.40754 0.20016 0.0
H38 H 0.77465 0.64401 0.18302 0.0
H39 H 1.0135 0.76788 0.22545 0.0
Sm40 Sm 0.92597 0.13076 0.46325 0.0
Sm41 Sm 0.71891 0.11691 0.44906 0.0
C42 C 1.0712 0.10495 0.49844 0.0
C43 C 1.03088 1.02605 0.53062 0.0
C44 C 0.92747 0.97824 0.56982 0.0
C45 C 0.88183 0.89919 0.59791 0.0
C46 C 0.93265 0.86256 0.58446 0.0
C47 C 1.03557 0.90935 0.54479 0.0
C48 C 1.08509 0.99137 0.51832 0.0
C49 C 0.8722 0.12965 0.34403 0.0
C50 C 0.6 0.90346 0.44121 0.0
C51 C 0.56993 0.14488 0.43105 0.0
C52 C 0.5893 0.22379 0.46089 0.0
C53 C 0.7144 0.3257 0.46097 0.0
C54 C 0.74139 0.39935 0.49775 0.0
C55 C 0.64381 0.37313 0.53518 0.0
C56 C 0.51636 0.27139 0.53317 0.0
C57 C 0.48982 0.19756 0.49656 0.0
C58 C 0.76822 0.11273 0.56786 0.0
C59 C 1.04671 0.34397 0.44961 0.0
O60 O 1.07519 0.16544 0.52942 0.0
O61 O 1.01114 0.07503 0.4437 0.0
O62 O 0.78156 0.07182 0.37932 0.0
O63 O 0.99478 0.18983 0.37083 0.0
O64 O 0.72168 0.95847 0.47072 0.0
O65 O 0.58038 0.95078 0.41671 0.0
O66 O 0.66183 0.17329 0.39544 0.0
O67 O 0.53693 0.0814 0.46602 0.0
O68 O 0.86092 0.17282 0.53385 0.0
O69 O 0.64824 0.05555 0.53988 0.0
O70 O 0.9149 0.28496 0.43654 0.0
O71 O 1.08416 0.30434 0.46674 0.0
H72 H 0.87744 0.99892 0.57662 0.0
H73 H 0.80057 0.8624 0.62737 0.0
H74 H 1.07555 0.88149 0.53353 0.0
H75 H 1.16136 1.02513 0.48656 0.0
H76 H 0.79426 0.34875 0.43462 0.0
H77 H 0.84133 0.47662 0.49866 0.0
H78 H 0.43801 0.24856 0.56069 0.0
H79 H 0.39377 0.11952 0.49798 0.0
Sm80 Sm 0.79126 0.61929 0.86751 0.0
Sm81 Sm 0.57894 0.39797 0.84118 0.0
C82 C 0.97654 0.81266 0.85479 0.0
C83 C 0.96771 0.88076 0.84562 0.0
C84 C 1.02496 0.93637 0.79615 0.0
C85 C 0.99923 0.98834 0.7804 0.0
C86 C 0.91579 0.98604 0.81416 0.0
C87 C 0.86396 0.93436 0.86515 0.0
C88 C 0.88881 0.88173 0.88064 0.0
C89 C 0.67747 0.51788 0.96663 0.0
C90 C 0.45802 0.49781 0.86338 0.0
C91 C 0.44031 0.20798 0.82592 0.0
C92 C 0.48817 0.16427 0.81308 0.0
C93 C 0.61147 0.2076 0.84229 0.0
C94 C 0.67582 0.18493 0.81831 0.0
C95 C 0.61788 0.11859 0.7648 0.0
C96 C 0.48814 0.06825 0.73924 0.0
C97 C 0.42427 0.09109 0.76303 0.0
C98 C 0.64128 0.49171 0.74038 0.0
C99 C 0.9198 0.52556 0.866 0.0
O100 O 0.91873 0.74231 0.8098 0.0
O101 O 0.95296 0.78011 0.90764 0.0
O102 O 0.71324 0.49992 0.92359 0.0
O103 O 0.7124 0.5988 0.96208 0.0
O104 O 0.58882 0.58288 0.85482 0.0
O105 O 0.43459 0.41865 0.86966 0.0
O106 O 0.47705 0.25774 0.87926 0.0
O107 O 0.45268 0.25385 0.78256 0.0
O108 O 0.72607 0.5195 0.7823 0.0
O109 O 0.51754 0.41173 0.75159 0.0
O110 O 0.78659 0.43816 0.8483 0.0
O111 O 0.94599 0.60623 0.87919 0.0
H112 H 1.08473 0.93592 0.76799 0.0
H113 H 1.04057 1.02717 0.74066 0.0
H114 H 0.79889 0.93112 0.89147 0.0
H115 H 0.84165 0.83859 0.91851 0.0
H116 H 0.66294 0.26392 0.88124 0.0
H117 H 0.77559 0.22491 0.83901 0.0
H118 H 0.43978 1.0155 0.69852 0.0
H119 H 0.32964 0.0568 0.73959 0.0
H120 H 0.76806 0.08136 0.10305 0.0
H121 H 0.69139 0.95646 0.26976 0.0
H122 H 0.99448 0.27416 0.27289 0.0
N123 N 0.97299 0.28139 0.15523 0.0
N124 N 1.01946 0.35959 0.18437 0.0
C125 C 0.79064 0.09117 0.15139 0.0
C126 C 0.71662 1.00449 0.18245 0.0
C127 C 0.89232 0.19075 0.18405 0.0
C128 C 0.91722 0.20029 0.24711 0.0
C129 C 0.84406 0.11637 0.27777 0.0
C130 C 0.74604 1.02027 0.24541 0.0
H131 H 0.78659 0.56206 0.51482 0.0
H132 H 0.57943 0.36147 0.6516 0.0
H133 H 0.78591 0.66269 0.69195 0.0
N134 N 0.86547 0.71457 0.57981 0.0
N135 N 0.86925 0.77338 0.60716 0.0
C136 C 0.75696 0.54687 0.56045 0.0
C137 C 0.67812 0.45165 0.57777 0.0
C138 C 0.79462 0.62249 0.60088 0.0
C139 C 0.75587 0.60417 0.66006 0.0
C140 C 0.6769 0.50982 0.67794 0.0
C141 C 0.63728 0.43353 0.63675 0.0
H142 H 1.0808 0.48974 0.80814 0.0
H143 H 1.02741 0.57533 -0.02237 0.0
H144 H 0.3104 0.5634 -0.02423 0.0
N145 N 0.29356 0.51114 0.85771 0.0
N146 N 0.361 0.50073 0.88556 0.0
C147 C 1.10505 0.5116 0.85652 0.0
C148 C 1.03326 0.53047 0.88861 0.0
C149 C 0.21004 0.52259 0.88747 0.0
C150 C 0.23681 0.5535 0.95046 0.0
C151 C 1.17203 0.57244 -0.01807 0.0
C152 C 1.07375 0.56015 0.95125 0.0
H153 H 0.436 0.72437 0.50061 0.0
H154 H 0.54656 0.83609 0.32748 0.0
H155 H 0.27185 0.52373 0.335 0.0
N156 N 0.25007 0.52324 0.45405 0.0
N157 N 1.14264 0.43918 0.42618 0.0
C158 C 0.42944 0.71164 0.4519 0.0
C159 C 0.50611 0.79465 0.41726 0.0
C160 C 0.33896 0.61112 0.42215 0.0
C161 C 0.33553 0.59797 0.35869 0.0
C162 C 0.41073 0.67886 0.32501 0.0
C163 C 0.49127 0.77482 0.35428 0.0
H164 H 0.76036 0.08553 0.80523 0.0
H165 H 0.65011 0.13184 0.64626 0.0
H166 H 0.92597 0.11447 0.6376 0.0
N167 N 0.90345 0.06425 0.74666 0.0
N168 N 0.87216 1.02642 0.79499 0.0
C169 C 0.77053 0.09824 0.75817 0.0
C170 C 0.70018 0.11336 0.73057 0.0
C171 C 0.84983 0.09601 0.72406 0.0
C172 C 0.86369 0.11447 0.66335 0.0
C173 C 0.78729 0.12312 0.63453 0.0
C174 C 0.70742 0.12356 0.66855 0.0
H175 H 0.49541 0.31703 0.15919 0.0
H176 H 0.78481 0.59476 0.08063 0.0
H177 H 0.45081 0.31894 0.96894 0.0
N178 N 0.31983 0.20957 0.05938 0.0
N179 N 0.22524 0.20083 0.06293 0.0
C180 C 0.53374 0.35736 0.12 0.0
C181 C 0.64939 0.46217 0.12718 0.0
C182 C 0.46019 0.30555 0.06298 0.0
C183 C 0.51048 0.35816 0.01238 0.0
C184 C 0.62523 0.4628 0.01932 0.0
C185 C 0.69302 0.51427 0.07648 0.0
loop_
_geom_bond_atom_site_label_1
_geom_bond_atom_site_label_2
_geom_bond_distance
_geom_bond_site_symmetry_2
_ccdc_geom_bond_type
Sm0 C2 2.846 . S
Sm0 O20 2.543 . S
Sm0 O21 2.450 . S
Sm0 O22 2.681 . S
Sm0 O23 2.464 . S
Sm0 O24 2.396 . S
Sm0 O28 2.386 . S
Sm0 O31 2.408 1_455 S
Sm1 C11 2.846 . S
Sm1 O22 2.386 1_655 S
Sm1 O25 2.408 1_655 S
Sm1 O26 2.543 . S
Sm1 O27 2.450 . S
Sm1 O28 2.681 1_655 S
Sm1 O29 2.464 . S
Sm1 O30 2.396 . S
C2 Sm0 2.846 . S
C2 C3 1.506 . S
C2 O20 1.261 . S
C2 O21 1.242 . S
C3 C2 1.506 . S
C3 C4 1.358 . S
C3 C8 1.382 . S
C4 C3 1.358 . S
C4 C5 1.385 . S
C4 H32 0.930 . S
C5 C4 1.385 . S
C5 C6 1.395 . S
C5 H33 0.929 . S
C6 C5 1.395 . S
C6 C7 1.335 . S
C7 C6 1.335 . S
C7 C8 1.398 . S
C7 H34 0.930 . S
C8 C3 1.382 . S
C8 C7 1.398 . S
C8 H35 0.929 . S
C9 O22 1.271 . S
C9 O23 1.251 . S
C10 O24 1.252 . S
C10 O25 1.272 . S
C11 Sm1 2.846 . S
C11 C12 1.506 . S
C11 O26 1.261 . S
C11 O27 1.242 . S
C12 C11 1.506 . S
C12 C13 1.358 . S
C12 C17 1.382 . S
C13 C12 1.358 . S
C13 C14 1.385 . S
C13 H36 0.930 . S
C14 C13 1.385 . S
C14 C15 1.395 . S
C14 H37 0.929 . S
C15 C14 1.395 . S
C15 C16 1.335 . S
C16 C15 1.335 . S
C16 C17 1.398 . S
C16 H38 0.930 . S
C17 C12 1.382 . S
C17 C16 1.398 . S
C17 H39 0.929 . S
C18 O28 1.271 . S
C18 O29 1.251 1_455 S
C19 O30 1.252 . S
C19 O31 1.272 . S
O20 Sm0 2.543 . S
O20 C2 1.261 . S
O21 Sm0 2.450 . S
O21 C2 1.242 . S
O22 Sm0 2.681 . S
O22 Sm1 2.386 1_455 S
O22 C9 1.271 . S
O23 Sm0 2.464 . S
O23 C9 1.251 . S
O24 Sm0 2.396 . S
O24 C10 1.252 . S
O25 Sm1 2.408 1_455 S
O25 C10 1.272 . S
O26 Sm1 2.543 . S
O26 C11 1.261 . S
O27 Sm1 2.450 . S
O27 C11 1.242 . S
O28 Sm0 2.386 . S
O28 Sm1 2.681 1_455 S
O28 C18 1.271 . S
O29 Sm1 2.464 . S
O29 C18 1.251 1_655 S
O30 Sm1 2.396 . S
O30 C19 1.252 . S
O31 Sm0 2.408 1_655 S
O31 C19 1.272 . S
H32 C4 0.930 . S
H33 C5 0.929 . S
H34 C7 0.930 . S
H35 C8 0.929 . S
H36 C13 0.930 . S
H37 C14 0.929 . S
H38 C16 0.930 . S
H39 C17 0.929 . S
Sm40 C42 2.833 1_545 S
Sm40 O60 2.532 1_545 S
Sm40 O61 2.437 1_545 S
Sm40 O62 2.692 . S
Sm40 O63 2.466 1_545 S
Sm40 O64 2.394 1_545 S
Sm40 O68 2.392 . S
Sm40 O71 2.419 . S
Sm41 C51 2.846 . S
Sm41 O62 2.386 . S
Sm41 O65 2.408 1_545 S
Sm41 O66 2.543 . S
Sm41 O67 2.450 . S
Sm41 O68 2.681 . S
Sm41 O69 2.464 . S
Sm41 O70 2.396 . S
C42 Sm40 2.833 1_565 S
C42 C43 1.506 . S
C42 O60 1.261 . S
C42 O61 1.242 . S
C43 C42 1.506 . S
C43 C44 1.358 . S
C43 C48 1.382 . S
C44 C43 1.358 . S
C44 C45 1.385 . S
C44 H72 0.930 . S
C45 C44 1.385 . S
C45 C46 1.395 . S
C45 H73 0.929 . S
C46 C45 1.395 . S
C46 C47 1.335 . S
C47 C46 1.335 . S
C47 C48 1.398 . S
C47 H74 0.930 . S
C48 C43 1.382 . S
C48 C47 1.398 . S
C48 H75 0.929 . S
C49 O62 1.271 . S
C49 O63 1.251 1_545 S
C50 O64 1.252 . S
C50 O65 1.272 . S
C51 Sm41 2.846 . S
C51 C52 1.506 . S
C51 O66 1.261 . S
C51 O67 1.242 . S
C52 C51 1.506 . S
C52 C53 1.358 . S
C52 C57 1.382 . S
C53 C52 1.358 . S
C53 C54 1.385 . S
C53 H76 0.930 . S
C54 C53 1.385 . S
C54 C55 1.395 . S
C54 H77 0.929 . S
C55 C54 1.395 . S
C55 C56 1.335 . S
C56 C55 1.335 . S
C56 C57 1.398 . S
C56 H78 0.930 . S
C57 C52 1.382 . S
C57 C56 1.398 . S
C57 H79 0.929 . S
C58 O68 1.271 . S
C58 O69 1.251 . S
C59 O70 1.252 . S
C59 O71 1.272 . S
O60 Sm40 2.532 1_565 S
O60 C42 1.261 . S
O61 Sm40 2.437 1_565 S
O61 C42 1.242 . S
O62 Sm40 2.692 . S
O62 Sm41 2.386 . S
O62 C49 1.271 . S
O63 Sm40 2.466 1_565 S
O63 C49 1.251 1_565 S
O64 Sm40 2.394 1_565 S
O64 C50 1.252 . S
O65 Sm41 2.408 1_565 S
O65 C50 1.272 . S
O66 Sm41 2.543 . S
O66 C51 1.261 . S
O67 Sm41 2.450 . S
O67 C51 1.242 . S
O68 Sm40 2.392 . S
O68 Sm41 2.681 . S
O68 C58 1.271 . S
O69 Sm41 2.464 . S
O69 C58 1.251 . S
O70 Sm41 2.396 . S
O70 C59 1.252 . S
O71 Sm40 2.419 . S
O71 C59 1.272 . S
H72 C44 0.930 . S
H73 C45 0.929 . S
H74 C47 0.930 . S
H75 C48 0.929 . S
H76 C53 0.930 . S
H77 C54 0.929 . S
H78 C56 0.930 . S
H79 C57 0.929 . S
Sm80 C82 2.846 . S
Sm80 O100 2.543 . S
Sm80 O101 2.450 . S
Sm80 O102 2.681 . S
Sm80 O103 2.464 1_556 S
Sm80 O104 2.396 . S
Sm80 O108 2.386 . S
Sm80 O111 2.408 . S
Sm81 C91 2.846 . S
Sm81 O102 2.386 . S
Sm81 O105 2.408 . S
Sm81 O106 2.543 . S
Sm81 O107 2.450 . S
Sm81 O108 2.681 . S
Sm81 O109 2.464 . S
Sm81 O110 2.396 . S
C82 Sm80 2.846 . S
C82 C83 1.506 . S
C82 O100 1.261 . S
C82 O101 1.242 . S
C83 C82 1.506 . S
C83 C84 1.358 . S
C83 C88 1.382 . S
C84 C83 1.358 . S
C84 C85 1.385 . S
C84 H112 0.930 . S
C85 C84 1.385 . S
C85 C86 1.395 . S
C85 H113 0.929 . S
C86 C85 1.395 . S
C86 C87 1.335 . S
C87 C86 1.335 . S
C87 C88 1.398 . S
C87 H114 0.930 1_566 S
C88 C83 1.382 . S
C88 C87 1.398 . S
C88 H115 0.929 1_556 S
C89 O102 1.271 1_554 S
C89 O103 1.251 . S
C90 O104 1.252 . S
C90 O105 1.272 . S
C91 Sm81 2.846 . S
C91 C92 1.506 . S
C91 O106 1.261 . S
C91 O107 1.242 . S
C92 C91 1.506 . S
C92 C93 1.358 . S
C92 C97 1.382 . S
C93 C92 1.358 . S
C93 C94 1.385 . S
C93 H116 0.930 . S
C94 C93 1.385 . S
C94 C95 1.395 . S
C94 H117 0.929 . S
C95 C94 1.395 . S
C95 C96 1.335 . S
C96 C95 1.335 . S
C96 C97 1.398 . S
C96 H118 0.930 . S
C97 C92 1.382 . S
C97 C96 1.398 . S
C97 H119 0.929 . S
C98 O108 1.271 . S
C98 O109 1.251 . S
C99 O110 1.252 . S
C99 O111 1.272 . S
O100 Sm80 2.543 . S
O100 C82 1.261 . S
O101 Sm80 2.450 . S
O101 C82 1.242 . S
O102 Sm80 2.681 . S
O102 Sm81 2.386 . S
O102 C89 1.271 1_556 S
O103 Sm80 2.464 1_554 S
O103 C89 1.251 . S
O104 Sm80 2.396 . S
O104 C90 1.252 . S
O105 Sm81 2.408 . S
O105 C90 1.272 . S
O106 Sm81 2.543 . S
O106 C91 1.261 . S
O107 Sm81 2.450 . S
O107 C91 1.242 . S
O108 Sm80 2.386 . S
O108 Sm81 2.681 . S
O108 C98 1.271 . S
O109 Sm81 2.464 . S
O109 C98 1.251 . S
O110 Sm81 2.396 . S
O110 C99 1.252 . S
O111 Sm80 2.408 . S
O111 C99 1.272 . S
H112 C84 0.930 . S
H113 C85 0.929 . S
H114 C87 0.930 1_544 S
H115 C88 0.929 1_554 S
H116 C93 0.930 . S
H117 C94 0.929 . S
H118 C96 0.930 . S
H119 C97 0.929 . S
H120 C125 0.929 . S
H121 C130 0.931 . S
H122 C128 0.930 . S
N123 N124 1.234 . S
N123 C127 1.453 . S
N124 N123 1.234 . S
C125 H120 0.929 . S
C125 C126 1.373 . S
C125 C127 1.368 1_565 S
C126 C125 1.373 . S
C126 C130 1.397 . S
C127 N123 1.453 . S
C127 C125 1.368 1_545 S
C127 C128 1.373 . S
C128 H122 0.930 . S
C128 C127 1.373 . S
C128 C129 1.371 . S
C129 C128 1.371 . S
C129 C130 1.383 1_545 S
C130 H121 0.931 . S
C130 C126 1.397 . S
C130 C129 1.383 1_565 S
H131 C136 0.929 . S
H132 C141 0.931 . S
H133 C139 0.930 . S
N134 N135 1.234 . S
N134 C138 1.453 . S
N135 N134 1.234 . S
C136 H131 0.929 . S
C136 C137 1.373 . S
C136 C138 1.368 . S
C137 C136 1.373 . S
C137 C141 1.397 . S
C138 N134 1.453 . S
C138 C136 1.368 . S
C138 C139 1.373 . S
C139 H133 0.930 . S
C139 C138 1.373 . S
C139 C140 1.371 . S
C140 C139 1.371 . S
C140 C141 1.383 . S
C141 H132 0.931 . S
C141 C137 1.397 . S
C141 C140 1.383 . S
H142 C147 0.929 . S
H143 C152 0.931 . S
H144 C150 0.930 . S
N145 N146 1.234 . S
N145 C149 1.453 . S
N146 N145 1.234 . S
C147 H142 0.929 . S
C147 C148 1.373 1_455 S
C147 C149 1.368 . S
C148 C147 1.373 1_655 S
C148 C152 1.397 . S
C149 N145 1.453 . S
C149 C147 1.368 . S
C149 C150 1.373 . S
C150 H144 0.930 . S
C150 C149 1.373 . S
C150 C151 1.371 1_556 S
C151 C150 1.371 1_554 S
C151 C152 1.383 1_454 S
C152 H143 0.931 . S
C152 C148 1.397 . S
C152 C151 1.383 1_656 S
H153 C158 0.929 . S
H154 C163 0.931 . S
H155 C161 0.930 . S
N156 N157 1.234 . S
N156 C160 1.454 . S
N157 N156 1.234 . S
C158 H153 0.929 . S
C158 C159 1.373 . S
C158 C160 1.368 1_455 S
C159 C158 1.373 . S
C159 C163 1.397 . S
C160 N156 1.454 . S
C160 C158 1.368 1_655 S
C160 C161 1.372 . S
C161 H155 0.930 . S
C161 C160 1.372 . S
C161 C162 1.371 1_655 S
C162 C161 1.371 1_455 S
C162 C163 1.383 . S
C163 H154 0.931 . S
C163 C159 1.397 . S
C163 C162 1.383 . S
H164 C169 0.929 . S
H165 C174 0.931 . S
H166 C172 0.930 . S
N167 N168 1.234 . S
N167 C171 1.453 1_565 S
N168 N167 1.234 . S
C169 H164 0.929 . S
C169 C170 1.373 . S
C169 C171 1.368 . S
C170 C169 1.373 . S
C170 C174 1.397 . S
C171 N167 1.453 1_545 S
C171 C169 1.368 . S
C171 C172 1.373 1_545 S
C172 H166 0.930 . S
C172 C171 1.373 1_565 S
C172 C173 1.371 1_565 S
C173 C172 1.371 1_545 S
C173 C174 1.383 . S
C174 H165 0.931 . S
C174 C170 1.397 . S
C174 C173 1.383 . S
H175 C180 0.929 . S
H176 C185 0.931 1_556 S
H177 C183 0.930 1_556 S
N178 N179 1.234 . S
N178 C182 1.453 . S
N179 N178 1.234 . S
C180 H175 0.929 . S
C180 C181 1.373 . S
C180 C182 1.368 . S
C181 C180 1.373 . S
C181 C185 1.397 . S
C182 N178 1.453 . S
C182 C180 1.368 . S
C182 C183 1.373 . S
C183 H177 0.930 1_554 S
C183 C182 1.373 . S
C183 C184 1.371 1_554 S
C184 C183 1.371 1_556 S
C184 C185 1.383 1_556 S
C185 H176 0.931 1_554 S
C185 C181 1.397 . S
C185 C184 1.383 1_554 S
C6 N179 4.686 . S
C59 N157 2.370 . S
C86 N168 3.426 . S
C15 C181 3.040 . S
C159 C50 2.416 . S
C170 C95 1.839 . S
C46 N135 2.361 . S
C99 C148 4.757 . S
C10 C126 2.641 . S
C137 C55 2.290 . S
N146 C90 4.712 . S
C19 N124 2.495 . S
C151 C18 1.931 . S
C49 C129 1.089 . S
C98 C140 1.395 . S
C173 C58 1.301 . S
C184 C89 1.716 1_556 S
C9 C162 1.013 . S
