# Generated by pormake.
# Topology ant, (3,6)-cn, num edge types: 1
# Building blocks:
#     Node 0, Type 0, BuildingBlock: CUQRIR_clean_linker_1, # of connection points: 3
#     Node 1, Type 0, BuildingBlock: CUQRIR_clean_linker_1, # of connection points: 3
#     Node 2, Type 0, BuildingBlock: CUQRIR_clean_linker_1, # of connection points: 3
#     Node 3, Type 0, BuildingBlock: CUQRIR_clean_linker_1, # of connection points: 3
#     Node 4, Type 0, BuildingBlock: CUQRIR_clean_linker_1, # of connection points: 3
#     Node 5, Type 0, BuildingBlock: CUQRIR_clean_linker_1, # of connection points: 3
#     Node 6, Type 0, BuildingBlock: CUQRIR_clean_linker_1, # of connection points: 3
#     Node 7, Type 0, BuildingBlock: CUQRIR_clean_linker_1, # of connection points: 3
#     Node 8, Type 1, BuildingBlock: MIDCAF_clean_sbu_0, # of connection points: 6
#     Node 9, Type 1, BuildingBlock: MIDCAF_clean_sbu_0, # of connection points: 6
#     Node 10, Type 1, BuildingBlock: MIDCAF_clean_sbu_0, # of connection points: 6
#     Node 11, Type 1, BuildingBlock: MIDCAF_clean_sbu_0, # of connection points: 6
#     Edge 12, Type (0, 1), None
#     Edge 13, Type (0, 1), None
#     Edge 14, Type (0, 1), None
#     Edge 15, Type (0, 1), None
#     Edge 16, Type (0, 1), None
#     Edge 17, Type (0, 1), None
#     Edge 18, Type (0, 1), None
#     Edge 19, Type (0, 1), None
#     Edge 20, Type (0, 1), None
#     Edge 21, Type (0, 1), None
#     Edge 22, Type (0, 1), None
#     Edge 23, Type (0, 1), None
#     Edge 24, Type (0, 1), None
#     Edge 25, Type (0, 1), None
#     Edge 26, Type (0, 1), None
#     Edge 27, Type (0, 1), None
#     Edge 28, Type (0, 1), None
#     Edge 29, Type (0, 1), None
#     Edge 30, Type (0, 1), None
#     Edge 31, Type (0, 1), None
#     Edge 32, Type (0, 1), None
#     Edge 33, Type (0, 1), None
#     Edge 34, Type (0, 1), None
#     Edge 35, Type (0, 1), None
# Relax obj value: 0.120
# Max RMSD: 0.221
# Mean RMSD: 0.142
data_MOF--net-ant--node1-MIDCAF_clean_sbu_0--node2-CUQRIR_clean_linker_1--edge1-none
_symmetry_space_group_name_H-M    P1
_symmetry_Int_Tables_number       1
_symmetry_cell_setting            triclinic
loop_
_symmetry_equiv_pos_as_xyz
'x, y, z'
_cell_length_a     10.451693
_cell_length_b     10.660357
_cell_length_c     25.585344
_cell_angle_alpha  81.89125
_cell_angle_beta   93.533633
_cell_angle_gamma 87.675241
loop_
_atom_site_label
_atom_site_type_symbol
_atom_site_fract_x
_atom_site_fract_y
_atom_site_fract_z
_atom_type_partial_charge
C0 C 0.99086 0.31729 0.10981 0.0
N1 N 0.03267 0.22076 0.08505 0.0
N2 N 0.0458 0.4259 0.09078 0.0
C3 C 0.9186 0.30187 0.15937 0.0
C4 C 0.12934 0.38928 0.05674 0.0
N5 N 0.11673 0.26626 0.05156 0.0
C6 C 0.25159 0.45537 0.04519 0.0
H7 H 0.86157 0.39041 0.16231 0.0
H8 H 0.98919 0.2835 0.19416 0.0
H9 H 0.85452 0.22147 0.16121 0.0
H10 H 0.31427 0.44385 0.0823 0.0
H11 H 0.23325 0.55842 0.03276 0.0
H12 H 0.30536 0.41274 0.01565 0.0
C13 C 0.19048 0.62005 0.36371 0.0
N14 N 0.2721 0.64967 0.32498 0.0
N15 N 0.07031 0.67288 0.34842 0.0
C16 C 0.23066 0.5505 0.41793 0.0
C17 C 0.08498 0.74179 0.30092 0.0
N18 N 0.20442 0.72116 0.28524 0.0
C19 C 0.9942 0.85048 0.27609 0.0
H20 H 0.17541 0.46381 0.42557 0.0
H21 H 0.20933 0.6118 0.44826 0.0
H22 H 0.33456 0.52398 0.42215 0.0
H23 H 0.96108 0.90495 0.30707 0.0
H24 H 0.90889 0.81235 0.25766 0.0
H25 H 0.03991 0.91708 0.24637 0.0
C26 C 0.58115 0.77582 0.63016 0.0
N27 N 0.57566 0.7055 0.59016 0.0
N28 N 0.60554 0.89759 0.61171 0.0
C29 C 0.56126 0.72716 0.68701 0.0
C30 C 0.63256 0.8919 0.56079 0.0
N31 N 0.59941 0.77955 0.546 0.0
C32 C 0.73833 0.96858 0.53612 0.0
H33 H 0.53569 0.80633 0.70894 0.0
H34 H 0.65147 0.67816 0.70594 0.0
H35 H 0.48486 0.65766 0.68967 0.0
H36 H 0.824 0.96289 0.5642 0.0
H37 H 0.7073 0.06972 0.52714 0.0
H38 H 0.77408 0.93199 0.50167 0.0
C39 C 0.68689 0.12465 0.86528 0.0
N40 N 0.76886 0.14059 0.8262 0.0
N41 N 0.56622 0.17168 0.84713 0.0
C42 C 0.72661 0.0682 0.92157 0.0
C43 C 0.58042 0.2225 0.79645 0.0
N44 N 0.70114 0.19676 0.78302 0.0
C45 C 0.48994 0.32417 0.76605 0.0
H46 H 0.66833 0.98565 0.93373 0.0
H47 H 0.70996 0.13993 0.94825 0.0
H48 H 0.82912 0.03635 0.9262 0.0
H49 H 0.45369 0.38843 0.79299 0.0
H50 H 0.40713 0.27886 0.74976 0.0
H51 H 0.53596 0.38305 0.73397 0.0
C52 C 0.22527 0.68909 0.90843 0.0
N53 N 0.17545 0.7926 0.92807 0.0
N54 N 0.15705 0.58504 0.92237 0.0
C55 C 0.32662 0.69387 0.86834 0.0
C56 C 0.06282 0.62902 0.95036 0.0
N57 N 0.07806 0.75208 0.95657 0.0
C58 C 0.94115 0.56222 0.9629 0.0
H59 H 0.28908 0.75426 0.83121 0.0
H60 H 0.35382 0.60088 0.85691 0.0
H61 H 0.41407 0.73565 0.88394 0.0
H62 H 0.95931 0.46165 0.97955 0.0
H63 H 0.88115 0.56424 0.92544 0.0
H64 H 0.88433 0.60994 0.99029 0.0
C65 C 0.53281 0.77115 0.12645 0.0
N66 N 0.64124 0.77083 0.15844 0.0
N67 N 0.43478 0.83967 0.14331 0.0
C68 C 0.52162 0.69428 0.08075 0.0
C69 C 0.48719 0.87378 0.18906 0.0
N70 N 0.60792 0.81937 0.20143 0.0
C71 C 0.42552 0.96721 0.22002 0.0
H72 H 0.49618 0.75827 0.0431 0.0
H73 H 0.44638 0.62495 0.0871 0.0
H74 H 0.60956 0.63532 0.0773 0.0
H75 H 0.36328 0.91854 0.24902 0.0
H76 H 0.36614 0.04093 0.19316 0.0
H77 H 0.5003 0.01374 0.24212 0.0
C78 C 0.74302 0.1844 0.41345 0.0
N79 N 0.68507 0.28589 0.43169 0.0
N80 N 0.66494 0.08463 0.41558 0.0
C81 C 0.87261 0.18695 0.38982 0.0
C82 C 0.55809 0.12901 0.43641 0.0
N83 N 0.57349 0.24696 0.44927 0.0
C84 C 0.43852 0.05628 0.44602 0.0
H85 H 0.85776 0.2119 0.34617 0.0
H86 H 0.92849 0.09562 0.39836 0.0
H87 H 0.93325 0.25778 0.4057 0.0
H88 H 0.45809 0.97793 0.47909 0.0
H89 H 0.40729 0.01509 0.41014 0.0
H90 H 0.35785 0.11754 0.45576 0.0
C91 C 0.02624 0.30262 0.62721 0.0
N92 N 0.13215 0.29661 0.66074 0.0
N93 N 0.92477 0.36118 0.64582 0.0
C94 C 0.02484 0.2519 0.57414 0.0
C95 C 0.97251 0.38805 0.69339 0.0
N96 N 0.09482 0.33674 0.70509 0.0
C97 C 0.90247 0.46803 0.72748 0.0
H98 H 0.98004 0.32453 0.54216 0.0
H99 H 0.9689 0.16565 0.5753 0.0
H100 H 0.12147 0.22131 0.56371 0.0
H101 H 0.84048 0.40934 0.75346 0.0
H102 H 0.84119 0.54311 0.7023 0.0
H103 H 0.9718 0.51322 0.75271 0.0
Zn104 Zn 0.2851 0.61827 0.14869 0.0
Zn105 Zn 0.88708 0.9145 0.06211 0.0
Zn106 Zn 0.03899 0.81615 0.12201 0.0
C107 C 0.03918 0.80223 0.99969 0.0
C108 C 1.0007 0.09822 0.09347 0.0
O109 O 0.14179 0.76336 0.19735 0.0
O110 O 0.32438 0.65539 0.22215 0.0
C111 C 0.05751 0.52952 0.11507 0.0
O112 O 0.04835 0.73488 0.04602 0.0
O113 O 0.98412 0.91095 0.99465 0.0
O114 O 0.88476 0.07264 0.09714 0.0
O115 O 0.08402 0.00804 0.09208 0.0
O116 O 0.12593 0.51545 0.15788 0.0
O117 O 0.04446 0.64045 0.08721 0.0
O118 O 0.21933 0.89813 0.14566 0.0
O119 O 0.27565 0.77485 0.09117 0.0
C120 C 0.31005 0.85135 0.12196 0.0
O121 O 0.85809 0.81529 0.16265 0.0
O122 O 0.76671 0.7814 0.0882 0.0
C123 C 0.22739 0.71836 0.23382 0.0
C124 C 0.75955 0.78091 0.13747 0.0
Zn125 Zn 0.65927 0.55113 0.32554 0.0
Zn126 Zn 0.81737 0.72151 0.43907 0.0
Zn127 Zn 0.64714 0.70622 0.37901 0.0
C128 C 0.69214 0.96265 0.40628 0.0
C129 C 0.96067 0.66505 0.37494 0.0
O130 O 0.63092 0.50384 0.4208 0.0
O131 O 0.7803 0.43401 0.37563 0.0
C132 C 0.40337 0.63602 0.32987 0.0
O133 O 0.60724 0.87941 0.41082 0.0
O134 O 0.80685 0.91912 0.40683 0.0
O135 O 0.96749 0.6212 0.42341 0.0
O136 O 0.85033 0.7066 0.35196 0.0
O137 O 0.46073 0.52762 0.33696 0.0
O138 O 0.47248 0.73265 0.32674 0.0
O139 O 0.58927 0.78616 0.293 0.0
O140 O 0.71426 0.65744 0.25736 0.0
C141 C 0.64497 0.75934 0.25181 0.0
O142 O 0.59274 0.77237 0.45598 0.0
O143 O 0.74635 0.66663 0.50876 0.0
C144 C 0.70647 0.41111 0.41282 0.0
C145 C 0.64235 0.73247 0.50314 0.0
Zn146 Zn 0.39166 0.40011 0.55324 0.0
Zn147 Zn 0.86764 0.11827 0.65211 0.0
Zn148 Zn 0.54013 0.29592 0.6224 0.0
C149 C 0.80133 0.35833 0.62519 0.0
C150 C 0.6599 0.98163 0.64004 0.0
O151 O 0.35322 0.27596 0.65743 0.0
O152 O 0.23885 0.39222 0.59302 0.0
C153 C 0.53819 0.58537 0.59056 0.0
O154 O 0.70468 0.40559 0.64586 0.0
O155 O 0.77724 0.26819 0.59973 0.0
O156 O 0.77592 0.95733 0.65674 0.0
O157 O 0.61557 0.09757 0.6335 0.0
O158 O 0.47021 0.56218 0.55103 0.0
O159 O 0.57861 0.49482 0.62707 0.0
O160 O 0.57601 0.26779 0.53792 0.0
O161 O 0.40246 0.32763 0.48635 0.0
C162 C 0.51795 0.2866 0.49142 0.0
O163 O 0.66074 0.2314 0.69292 0.0
O164 O 0.84764 0.1457 0.72653 0.0
C165 C 0.24501 0.32722 0.63854 0.0
C166 C 0.73704 0.19155 0.73326 0.0
Zn167 Zn 0.15656 0.0579 0.82523 0.0
Zn168 Zn 0.3168 0.22359 0.94147 0.0
Zn169 Zn 0.14446 0.21026 0.88186 0.0
C170 C 0.15014 0.21409 0.00873 0.0
C171 C 0.18585 0.46207 0.91521 0.0
O172 O 0.07958 0.29512 0.79695 0.0
O173 O 0.20403 0.17177 0.75817 0.0
C174 C 0.20101 0.91752 0.91117 0.0
O175 O 0.09742 0.25842 0.96236 0.0
O176 O 0.25769 0.15555 0.0118 0.0
O177 O 0.30135 0.42187 0.91452 0.0
O178 O 0.1024 0.37743 0.91936 0.0
O179 O 0.27902 0.9421 0.87567 0.0
O180 O 0.12744 0.01014 0.92012 0.0
O181 O 0.96476 0.23152 0.83291 0.0
O182 O 0.96094 0.02657 0.83474 0.0
C183 C 0.89996 0.13218 0.83274 0.0
O184 O 0.34636 0.2112 0.85182 0.0
O185 O 0.46684 0.1342 0.92333 0.0
C186 C 0.13335 0.27247 0.75466 0.0
C187 C 0.45773 0.17183 0.8744 0.0
loop_
_geom_bond_atom_site_label_1
_geom_bond_atom_site_label_2
_geom_bond_distance
_geom_bond_site_symmetry_2
_ccdc_geom_bond_type
C0 N1 1.317 . S
C0 N2 1.348 . S
C0 C3 1.485 . S
N1 C0 1.317 . S
N1 N5 1.370 . S
N2 C0 1.348 . S
N2 C4 1.346 . S
C3 C0 1.485 . S
C3 H7 0.960 . S
C3 H8 0.961 . S
C3 H9 0.960 . S
C4 N2 1.346 . S
C4 N5 1.307 . S
C4 C6 1.486 . S
N5 N1 1.370 . S
N5 C4 1.307 . S
C6 C4 1.486 . S
C6 H10 0.960 . S
C6 H11 0.960 . S
C6 H12 0.959 1_554 S
H7 C3 0.960 . S
H8 C3 0.961 . S
H9 C3 0.960 . S
H10 C6 0.960 . S
H11 C6 0.960 . S
H12 C6 0.959 1_556 S
C13 N14 1.317 . S
C13 N15 1.348 1_455 S
C13 C16 1.485 . S
N14 C13 1.317 . S
N14 N18 1.370 . S
N15 C13 1.348 1_655 S
N15 C17 1.346 1_655 S
C16 C13 1.485 . S
C16 H20 0.960 . S
C16 H21 0.961 . S
C16 H22 0.960 . S
C17 N15 1.346 1_455 S
C17 N18 1.307 . S
C17 C19 1.486 1_455 S
N18 N14 1.370 . S
N18 C17 1.307 . S
C19 C17 1.486 1_655 S
C19 H23 0.960 . S
C19 H24 0.960 . S
C19 H25 0.959 . S
H20 C16 0.960 . S
H21 C16 0.961 . S
H22 C16 0.960 . S
H23 C19 0.960 . S
H24 C19 0.960 . S
H25 C19 0.959 . S
C26 N27 1.317 . S
C26 N28 1.348 . S
C26 C29 1.485 . S
N27 C26 1.317 . S
N27 N31 1.370 . S
N28 C26 1.348 . S
N28 C30 1.346 . S
C29 C26 1.485 . S
C29 H33 0.960 . S
C29 H34 0.961 . S
C29 H35 0.960 . S
C30 N28 1.346 . S
C30 N31 1.307 . S
C30 C32 1.486 . S
N31 N27 1.370 . S
N31 C30 1.307 . S
C32 C30 1.486 . S
C32 H36 0.960 1_565 S
C32 H37 0.960 1_565 S
C32 H38 0.959 . S
H33 C29 0.960 . S
H34 C29 0.961 . S
H35 C29 0.960 . S
H36 C32 0.960 1_545 S
H37 C32 0.960 1_545 S
H38 C32 0.959 . S
C39 N40 1.317 . S
C39 N41 1.348 . S
C39 C42 1.485 . S
N40 C39 1.317 . S
N40 N44 1.370 . S
N41 C39 1.348 . S
N41 C43 1.346 . S
C42 C39 1.485 . S
C42 H46 0.960 . S
C42 H47 0.961 . S
C42 H48 0.960 . S
C43 N41 1.346 . S
C43 N44 1.307 . S
C43 C45 1.486 . S
N44 N40 1.370 . S
N44 C43 1.307 . S
C45 C43 1.486 . S
C45 H49 0.960 . S
C45 H50 0.960 . S
C45 H51 0.959 . S
H46 C42 0.960 . S
H47 C42 0.961 . S
H48 C42 0.960 . S
H49 C45 0.960 . S
H50 C45 0.960 . S
H51 C45 0.959 . S
C52 N53 1.317 . S
C52 N54 1.348 . S
C52 C55 1.485 . S
N53 C52 1.317 . S
N53 N57 1.370 . S
N54 C52 1.348 . S
N54 C56 1.346 . S
C55 C52 1.485 . S
C55 H59 0.960 1_455 S
C55 H60 0.961 . S
C55 H61 0.960 . S
C56 N54 1.346 . S
C56 N57 1.307 . S
C56 C58 1.486 . S
N57 N53 1.370 . S
N57 C56 1.307 . S
C58 C56 1.486 . S
C58 H62 0.960 . S
C58 H63 0.960 1_455 S
C58 H64 0.959 1_556 S
H59 C55 0.960 1_655 S
H60 C55 0.961 . S
H61 C55 0.960 . S
H62 C58 0.960 . S
H63 C58 0.960 1_655 S
H64 C58 0.959 1_554 S
C65 N66 1.317 . S
C65 N67 1.348 . S
C65 C68 1.485 . S
N66 C65 1.317 . S
N66 N70 1.370 . S
N67 C65 1.348 . S
N67 C69 1.346 . S
C68 C65 1.485 . S
C68 H72 0.960 . S
C68 H73 0.961 . S
C68 H74 0.960 . S
C69 N67 1.346 . S
C69 N70 1.307 . S
C69 C71 1.486 . S
N70 N66 1.370 . S
N70 C69 1.307 . S
C71 C69 1.486 . S
C71 H75 0.960 . S
C71 H76 0.960 . S
C71 H77 0.959 . S
H72 C68 0.960 . S
H73 C68 0.961 . S
H74 C68 0.960 . S
H75 C71 0.960 . S
H76 C71 0.960 . S
H77 C71 0.959 . S
C78 N79 1.317 . S
C78 N80 1.348 . S
C78 C81 1.485 . S
N79 C78 1.317 . S
N79 N83 1.370 . S
N80 C78 1.348 . S
N80 C82 1.346 . S
C81 C78 1.485 . S
C81 H85 0.960 . S
C81 H86 0.961 . S
C81 H87 0.960 . S
C82 N80 1.346 . S
C82 N83 1.307 . S
C82 C84 1.486 . S
N83 N79 1.370 . S
N83 C82 1.307 . S
C84 C82 1.486 . S
C84 H88 0.960 1_545 S
C84 H89 0.960 1_545 S
C84 H90 0.959 . S
H85 C81 0.960 . S
H86 C81 0.961 . S
H87 C81 0.960 . S
H88 C84 0.960 1_565 S
H89 C84 0.960 1_565 S
H90 C84 0.959 . S
C91 N92 1.317 . S
C91 N93 1.348 . S
C91 C94 1.485 . S
N92 C91 1.317 . S
N92 N96 1.370 . S
N93 C91 1.348 . S
N93 C95 1.346 . S
C94 C91 1.485 . S
C94 H98 0.960 . S
C94 H99 0.961 . S
C94 H100 0.960 . S
C95 N93 1.346 . S
C95 N96 1.307 . S
C95 C97 1.486 1_455 S
N96 N92 1.370 . S
N96 C95 1.307 . S
C97 C95 1.486 1_655 S
C97 H101 0.960 . S
C97 H102 0.960 . S
C97 H103 0.959 . S
H98 C94 0.960 . S
H99 C94 0.961 . S
H100 C94 0.960 . S
H101 C97 0.960 . S
H102 C97 0.960 . S
H103 C97 0.959 . S
Zn104 O110 1.920 . S
Zn104 O116 1.898 . S
Zn104 O119 1.905 . S
Zn105 O113 1.905 1_554 S
Zn105 O114 1.898 1_665 S
Zn105 O122 1.920 . S
Zn106 O109 2.080 . S
Zn106 O112 2.114 . S
Zn106 O115 2.120 . S
Zn106 O117 2.120 . S
Zn106 O118 2.114 . S
Zn106 O121 2.080 1_455 S
C107 O112 1.166 . S
C107 O113 1.182 1_454 S
C108 O114 1.167 . S
C108 O115 1.299 1_545 S
O109 Zn106 2.080 . S
O109 C123 1.305 . S
O110 Zn104 1.920 . S
O110 C123 1.234 . S
C111 O116 1.167 . S
C111 O117 1.299 . S
O112 Zn106 2.114 . S
O112 C107 1.166 . S
O113 Zn105 1.905 1_556 S
O113 C107 1.182 1_656 S
O114 Zn105 1.898 1_445 S
O114 C108 1.167 . S
O115 Zn106 2.120 . S
O115 C108 1.299 1_565 S
O116 Zn104 1.898 . S
O116 C111 1.167 . S
O117 Zn106 2.120 . S
O117 C111 1.299 . S
O118 Zn106 2.114 . S
O118 C120 1.166 . S
O119 Zn104 1.905 . S
O119 C120 1.182 . S
C120 O118 1.166 . S
C120 O119 1.182 . S
O121 Zn106 2.080 1_655 S
O121 C124 1.305 . S
O122 Zn105 1.920 . S
O122 C124 1.234 . S
C123 O109 1.305 . S
C123 O110 1.234 . S
C124 O121 1.305 . S
C124 O122 1.234 . S
Zn125 O131 1.920 . S
Zn125 O137 1.898 . S
Zn125 O140 1.905 . S
Zn126 O134 1.905 1_565 S
Zn126 O135 1.898 . S
Zn126 O143 1.920 . S
Zn127 O130 2.080 . S
Zn127 O133 2.114 . S
Zn127 O136 2.120 . S
Zn127 O138 2.120 . S
Zn127 O139 2.114 . S
Zn127 O142 2.080 . S
C128 O133 1.166 . S
C128 O134 1.182 1_565 S
C129 O135 1.167 . S
C129 O136 1.299 . S
O130 Zn127 2.080 . S
O130 C144 1.305 . S
O131 Zn125 1.920 . S
O131 C144 1.234 . S
C132 O137 1.167 . S
C132 O138 1.299 . S
O133 Zn127 2.114 . S
O133 C128 1.166 . S
O134 Zn126 1.905 1_545 S
O134 C128 1.182 1_545 S
O135 Zn126 1.898 . S
O135 C129 1.167 . S
O136 Zn127 2.120 . S
O136 C129 1.299 . S
O137 Zn125 1.898 . S
O137 C132 1.167 . S
O138 Zn127 2.120 . S
O138 C132 1.299 . S
O139 Zn127 2.114 . S
O139 C141 1.166 . S
O140 Zn125 1.905 . S
O140 C141 1.182 . S
C141 O139 1.166 . S
C141 O140 1.182 . S
O142 Zn127 2.080 . S
O142 C145 1.305 . S
O143 Zn126 1.920 . S
O143 C145 1.234 . S
C144 O130 1.305 . S
C144 O131 1.234 . S
C145 O142 1.305 . S
C145 O143 1.234 . S
Zn146 O152 1.920 . S
Zn146 O158 1.898 . S
Zn146 O161 1.905 . S
Zn147 O155 1.905 . S
Zn147 O156 1.898 1_545 S
Zn147 O164 1.920 . S
Zn148 O151 2.080 . S
Zn148 O154 2.114 . S
Zn148 O157 2.120 . S
Zn148 O159 2.120 . S
Zn148 O160 2.114 . S
Zn148 O163 2.080 . S
C149 O154 1.166 . S
C149 O155 1.182 . S
C150 O156 1.167 . S
C150 O157 1.299 1_565 S
O151 Zn148 2.080 . S
O151 C165 1.305 . S
O152 Zn146 1.920 . S
O152 C165 1.234 . S
C153 O158 1.167 . S
C153 O159 1.299 . S
O154 Zn148 2.114 . S
O154 C149 1.166 . S
O155 Zn147 1.905 . S
O155 C149 1.182 . S
O156 Zn147 1.898 1_565 S
O156 C150 1.167 . S
O157 Zn148 2.120 . S
O157 C150 1.299 1_545 S
O158 Zn146 1.898 . S
O158 C153 1.167 . S
O159 Zn148 2.120 . S
O159 C153 1.299 . S
O160 Zn148 2.114 . S
O160 C162 1.166 . S
O161 Zn146 1.905 . S
O161 C162 1.182 . S
C162 O160 1.166 . S
C162 O161 1.182 . S
O163 Zn148 2.080 . S
O163 C166 1.305 . S
O164 Zn147 1.920 . S
O164 C166 1.234 . S
C165 O151 1.305 . S
C165 O152 1.234 . S
C166 O163 1.305 . S
C166 O164 1.234 . S
Zn167 O173 1.920 1_655 S
Zn167 O179 1.898 1_545 S
Zn167 O182 1.905 . S
Zn168 O176 1.905 1_556 S
Zn168 O177 1.898 . S
Zn168 O185 1.920 . S
Zn169 O172 2.080 . S
Zn169 O175 2.114 . S
Zn169 O178 2.120 . S
Zn169 O180 2.120 . S
Zn169 O181 2.114 1_455 S
Zn169 O184 2.080 . S
C170 O175 1.166 . S
C170 O176 1.182 1_556 S
C171 O177 1.167 . S
C171 O178 1.299 . S
O172 Zn169 2.080 . S
O172 C186 1.305 . S
O173 Zn167 1.920 1_455 S
O173 C186 1.234 . S
C174 O179 1.167 1_455 S
C174 O180 1.299 1_565 S
O175 Zn169 2.114 . S
O175 C170 1.166 . S
O176 Zn168 1.905 1_554 S
O176 C170 1.182 1_554 S
O177 Zn168 1.898 . S
O177 C171 1.167 . S
O178 Zn169 2.120 . S
O178 C171 1.299 . S
O179 Zn167 1.898 1_565 S
O179 C174 1.167 1_655 S
O180 Zn169 2.120 . S
O180 C174 1.299 1_545 S
O181 Zn169 2.114 1_655 S
O181 C183 1.166 . S
O182 Zn167 1.905 . S
O182 C183 1.182 . S
C183 O181 1.166 . S
C183 O182 1.182 . S
O184 Zn169 2.080 . S
O184 C187 1.305 . S
O185 Zn168 1.920 . S
O185 C187 1.234 . S
C186 O172 1.305 . S
C186 O173 1.234 . S
C187 O184 1.305 . S
C187 O185 1.234 . S
C111 N2 1.485 . S
C129 N15 1.137 . S
N27 C153 1.364 . S
C183 N40 1.497 . S
C171 N54 1.319 . S
N66 C124 1.789 . S
N79 C144 1.371 . S
N93 C149 1.072 1_455 S
N92 C165 1.767 . S
N67 C120 1.064 . S
C187 N41 1.179 . S
C132 N14 1.459 . S
N28 C150 1.463 . S
N1 C108 1.364 . S
C128 N80 1.347 1_565 S
C174 N53 1.339 . S
C170 N5 1.316 1_556 S
C123 N18 1.429 . S
N31 C145 1.299 . S
N44 C166 1.442 . S
C107 N57 1.381 1_554 S
N70 C141 1.807 . S
C162 N83 1.413 . S
C186 N96 1.780 . S
