# Generated by pormake.
# Topology rtl, (3,6)-cn, num edge types: 1
# Building blocks:
#     Node 0, Type 0, BuildingBlock: PAMTOO_clean_linker_0, # of connection points: 3
#     Node 1, Type 0, BuildingBlock: PAMTOO_clean_linker_0, # of connection points: 3
#     Node 2, Type 0, BuildingBlock: PAMTOO_clean_linker_0, # of connection points: 3
#     Node 3, Type 0, BuildingBlock: PAMTOO_clean_linker_0, # of connection points: 3
#     Node 4, Type 1, BuildingBlock: FUNLAD_clean_sbu_0, # of connection points: 6
#     Node 5, Type 1, BuildingBlock: FUNLAD_clean_sbu_0, # of connection points: 6
#     Edge 6, Type (0, 1), BuildingBlock: AJUNOK_clean_linker_0, # of connection points: 2
#     Edge 7, Type (0, 1), BuildingBlock: AJUNOK_clean_linker_0, # of connection points: 2
#     Edge 8, Type (0, 1), BuildingBlock: AJUNOK_clean_linker_0, # of connection points: 2
#     Edge 9, Type (0, 1), BuildingBlock: AJUNOK_clean_linker_0, # of connection points: 2
#     Edge 10, Type (0, 1), BuildingBlock: AJUNOK_clean_linker_0, # of connection points: 2
#     Edge 11, Type (0, 1), BuildingBlock: AJUNOK_clean_linker_0, # of connection points: 2
#     Edge 12, Type (0, 1), BuildingBlock: AJUNOK_clean_linker_0, # of connection points: 2
#     Edge 13, Type (0, 1), BuildingBlock: AJUNOK_clean_linker_0, # of connection points: 2
#     Edge 14, Type (0, 1), BuildingBlock: AJUNOK_clean_linker_0, # of connection points: 2
#     Edge 15, Type (0, 1), BuildingBlock: AJUNOK_clean_linker_0, # of connection points: 2
#     Edge 16, Type (0, 1), BuildingBlock: AJUNOK_clean_linker_0, # of connection points: 2
#     Edge 17, Type (0, 1), BuildingBlock: AJUNOK_clean_linker_0, # of connection points: 2
# Relax obj value: 0.003
# Max RMSD: 0.035
# Mean RMSD: 0.027
data_MOF--net-rtl--node1-FUNLAD_clean_sbu_0--node2-PAMTOO_clean_linker_0--edge1-AJUNOK_clean_linker_0
_symmetry_space_group_name_H-M    P1
_symmetry_Int_Tables_number       1
_symmetry_cell_setting            triclinic
loop_
_symmetry_equiv_pos_as_xyz
'x, y, z'
_cell_length_a     30.451578
_cell_length_b     30.263369
_cell_length_c     15.318678
_cell_angle_alpha  92.653782
_cell_angle_beta   90.820018
_cell_angle_gamma 90.093685
loop_
_atom_site_label
_atom_site_type_symbol
_atom_site_fract_x
_atom_site_fract_y
_atom_site_fract_z
_atom_type_partial_charge
H0 H 0.10841 0.93245 0.00123 0.0
H1 H 0.18775 0.83932 0.13699 0.0
H2 H 0.18974 0.83995 0.85624 0.0
H3 H 0.19555 0.7523 0.92203 0.0
C4 C 0.21195 0.75947 0.9865 0.0
O5 O 0.22299 0.80369 -0.0049 0.0
H6 H 0.1885 0.75131 0.03852 0.0
C7 C 0.13211 0.90569 0.0 0.0
C8 C 0.14721 0.88826 0.91977 0.0
C9 C 0.14613 0.888 0.07847 0.0
C10 C 0.17632 0.85298 0.07661 0.0
C11 C 0.1924 0.836 -0.0035 0.0
C12 C 0.17755 0.8534 0.91803 0.0
H13 H 0.5939 0.61346 0.51537 0.0
H14 H 0.68897 0.6929 0.38818 0.0
H15 H 0.69162 0.6865 0.66806 0.0
H16 H 0.71186 0.77328 0.61926 0.0
C17 C 0.7207 0.76712 0.54954 0.0
O18 O 0.7277 0.72245 0.53362 0.0
H19 H 0.69246 0.77839 0.50938 0.0
C20 C 0.62156 0.63616 0.51914 0.0
C21 C 0.64042 0.64821 0.60072 0.0
C22 C 0.63917 0.65148 0.44214 0.0
C23 C 0.67536 0.68035 0.44716 0.0
C24 C 0.69392 0.69334 0.52872 0.0
C25 C 0.67696 0.6766 0.60529 0.0
H26 H 0.92733 0.10671 0.01237 0.0
H27 H 0.84308 0.19627 0.87874 0.0
H28 H 0.8417 0.19422 0.15942 0.0
H29 H 0.75451 0.20003 0.06775 0.0
C30 C 0.76407 0.22157 0.01415 0.0
O31 O 0.80826 0.23125 0.02167 0.0
H32 H 0.75713 0.20322 0.95081 0.0
C33 C 0.90272 0.13263 0.01441 0.0
C34 C 0.88658 0.14857 0.09489 0.0
C35 C 0.88699 0.14944 0.93647 0.0
C36 C 0.85535 0.18301 0.9389 0.0
C37 C 0.83894 0.19907 0.01937 0.0
C38 C 0.85441 0.18169 0.09738 0.0
H39 H 0.4332 0.41744 0.49858 0.0
H40 H 0.3406 0.33623 0.62784 0.0
H41 H 0.33953 0.3383 0.3472 0.0
H42 H 0.25225 0.33019 0.41775 0.0
C43 C 0.26017 0.31501 0.48081 0.0
O44 O 0.30388 0.30332 0.4831 0.0
H45 H 0.25331 0.3399 0.53471 0.0
C46 C 0.40635 0.39376 0.49521 0.0
C47 C 0.38837 0.37996 0.41387 0.0
C48 C 0.3892 0.3784 0.57246 0.0
C49 C 0.35397 0.34848 0.56838 0.0
C50 C 0.33641 0.33372 0.48705 0.0
C51 C 0.35338 0.34968 0.40983 0.0
C52 C 0.0598 0.97068 0.37793 0.0
N53 N 0.08592 0.09222 0.51376 0.0
C54 C 0.12947 0.08302 0.50593 0.0
C55 C 0.16014 0.11738 0.50294 0.0
C56 C 0.14573 0.16146 0.50856 0.0
C57 C 0.1008 0.16994 0.51835 0.0
C58 C 0.07132 0.13473 0.52031 0.0
Zn59 Zn 0.03982 0.04279 0.51079 0.0
C60 C 0.96819 0.06131 0.38326 0.0
N61 N 0.94062 0.94205 0.5012 0.0
C62 C 0.95067 0.89838 0.50614 0.0
C63 C 0.89812 0.95575 0.49701 0.0
C64 C 0.86379 0.92523 0.49755 0.0
C65 C 0.87313 0.88009 0.50327 0.0
C66 C 0.91717 0.86667 0.50799 0.0
Zn67 Zn 0.98868 0.98984 0.50428 0.0
O68 O 0.07379 1.00759 0.41038 0.0
C69 C 0.06098 0.97165 0.63143 0.0
O70 O 0.02402 0.95486 0.40505 0.0
H71 H 0.89068 0.9906 0.4945 0.0
H72 H 0.14039 0.049 0.50095 0.0
H73 H 0.98464 0.88817 0.50958 0.0
O74 O 0.07528 1.00832 0.60581 0.0
O75 O 0.02484 0.95627 0.60024 0.0
H76 H 0.0366 0.14144 0.52567 0.0
O77 O 0.9543 0.02549 0.60391 0.0
O78 O 1.00489 0.07702 0.61106 0.0
O79 O 0.95367 0.02461 0.40789 0.0
O80 O 1.00402 0.07646 0.4158 0.0
C81 C 0.96877 0.06189 0.63753 0.0
H82 H 0.19467 0.10963 0.49636 0.0
H83 H 0.08845 0.20353 0.52235 0.0
H84 H 0.83021 0.93691 0.49559 0.0
H85 H 0.92554 0.83208 0.51286 0.0
C86 C 0.47063 0.46585 0.87663 0.0
N87 N 0.58861 0.44387 0.0092 0.0
C88 C 0.57494 0.40105 0.0101 0.0
C89 C 0.60529 0.36679 0.01268 0.0
C90 C 0.65031 0.37641 0.01351 0.0
C91 C 0.66382 0.42076 0.01157 0.0
C92 C 0.63216 0.45427 0.00972 0.0
Zn93 Zn 0.54051 0.49114 0.00806 0.0
C94 C 0.55751 0.56131 0.88499 0.0
N95 N 0.43534 0.58504 0.00613 0.0
C96 C 0.39334 0.56955 0.00614 0.0
C97 C 0.44384 0.62917 0.00444 0.0
C98 C 0.40929 0.65958 0.00216 0.0
C99 C 0.36569 0.64435 0.00203 0.0
C100 C 0.35794 0.59874 0.00457 0.0
Zn101 Zn 0.48548 0.53976 0.00759 0.0
O102 O 0.50736 0.45392 0.90767 0.0
C103 C 0.46883 0.46939 0.13084 0.0
O104 O 0.45318 0.5014 0.90662 0.0
H105 H 0.47745 0.64082 0.00476 0.0
H106 H 0.54026 0.39333 0.00904 0.0
H107 H 0.38717 0.53438 0.00694 0.0
O108 O 0.50617 0.45695 0.10349 0.0
O109 O 0.45181 0.50418 0.10196 0.0
H110 H 0.64233 0.48852 0.00911 0.0
O111 O 0.51899 0.57731 0.10925 0.0
O112 O 0.57308 0.52927 0.10727 0.0
O113 O 0.52025 0.5744 0.91247 0.0
O114 O 0.57411 0.52622 0.91374 0.0
C115 C 0.55627 0.56503 0.13796 0.0
H116 H 0.59366 0.33295 0.01331 0.0
H117 H 0.69835 0.42941 0.01281 0.0
H118 H 0.41656 0.6946 0.00139 0.0
H119 H 0.32478 0.58571 0.00407 0.0
C120 C 0.20376 0.27091 0.55978 0.0
C121 C 0.23213 0.27436 0.48877 0.0
C122 C 0.17647 0.2339 0.56643 0.0
C123 C 0.17691 0.19885 0.50279 0.0
H124 H 0.20228 0.29721 0.61008 0.0
H125 H 0.15474 0.23273 0.62166 0.0
S126 S 0.24517 0.19215 0.30411 0.0
N127 N 0.25904 0.23988 0.35369 0.0
N128 N 0.20791 0.17009 0.36634 0.0
C129 C 0.20555 0.20165 0.43212 0.0
C130 C 0.23307 0.23949 0.42504 0.0
C131 C 0.25722 0.70031 0.05673 0.0
C132 C 0.25283 0.73152 -0.00805 0.0
C133 C 0.29411 0.6727 0.06016 0.0
C134 C 0.32811 0.67551 -0.00064 0.0
H135 H 0.23174 0.69682 0.10455 0.0
H136 H 0.29601 0.64889 0.11076 0.0
S137 S 0.33196 0.7514 0.8163 0.0
N138 N 0.28522 0.76345 0.86534 0.0
N139 N 0.35475 0.71175 0.87197 0.0
C140 C 0.32432 0.70691 0.93485 0.0
C141 C 0.28661 0.73479 0.93102 0.0
C142 C 0.79715 0.79355 0.59109 0.0
C143 C 0.76167 0.79304 0.53119 0.0
C144 C 0.83408 0.82042 0.57973 0.0
C145 C 0.83665 0.84779 0.5082 0.0
H146 H 0.79571 0.77398 0.64845 0.0
H147 H 0.85999 0.8211 0.62899 0.0
S148 S 0.75506 0.85434 0.32731 0.0
N149 N 0.73335 0.819 0.39355 0.0
N150 N 0.8025 0.8698 0.37273 0.0
C151 C 0.80236 0.84595 0.44575 0.0
C152 C 0.76498 0.81839 0.45695 0.0
C153 C 0.70551 0.27086 0.08119 0.0
C154 C 0.73765 0.26368 0.01714 0.0
C155 C 0.67831 0.30815 0.08091 0.0
C156 C 0.68242 0.33974 0.01693 0.0
H157 H 0.70072 0.24705 0.13086 0.0
H158 H 0.65342 0.31202 0.13051 0.0
S159 S 0.76181 0.33637 0.83555 0.0
N160 N 0.77244 0.29124 0.88871 0.0
N161 N 0.7214 0.36163 0.88846 0.0
C162 C 0.71512 0.33351 0.95378 0.0
C163 C 0.74264 0.29535 0.95373 0.0
C164 C 0.13467 0.95155 0.1845 0.0
C165 C 0.12826 0.90654 0.16137 0.0
C166 C 0.11344 0.97158 0.25641 0.0
C167 C 0.08429 0.9475 0.30673 0.0
H168 H 0.15555 0.97162 0.14544 0.0
H169 H 0.1188 1.00659 0.27071 0.0
S170 S 0.05797 0.82797 0.27457 0.0
N171 N 0.09248 0.83789 0.19553 0.0
N172 N 0.05183 0.87552 0.33043 0.0
C173 C 0.07849 0.90208 0.28541 0.0
C174 C 0.10071 0.88158 0.2128 0.0
C175 C 0.57685 0.63624 0.69761 0.0
C176 C 0.62162 0.62998 0.67995 0.0
C177 C 0.55676 0.61497 0.76586 0.0
C178 C 0.58055 0.586 0.81797 0.0
H179 H 0.55702 0.65709 0.65712 0.0
H180 H 0.52197 0.6202 0.77588 0.0
S181 S 0.69937 0.5601 0.80015 0.0
N182 N 0.68969 0.59444 0.72142 0.0
N183 N 0.65204 0.55392 0.84953 0.0
C184 C 0.62574 0.58042 0.80229 0.0
C185 C 0.64627 0.60259 0.73338 0.0
C186 C 0.94793 0.13944 0.20078 0.0
C187 C 0.90432 0.13019 0.17538 0.0
C188 C 0.96777 0.11789 0.26988 0.0
C189 C 0.94493 0.08566 0.31491 0.0
H190 H 0.96712 0.16276 0.16552 0.0
H191 H 1.00176 0.12559 0.28609 0.0
S192 S 0.8291 0.05106 0.27437 0.0
N193 N 0.83816 0.08835 0.20124 0.0
N194 N 0.87542 0.04708 0.3309 0.0
C195 C 0.9008 0.07692 0.29111 0.0
C196 C 0.88049 0.0994 0.22134 0.0
C197 C 0.3844 0.42458 0.71078 0.0
C198 C 0.40825 0.39498 0.65663 0.0
C199 C 0.40458 0.44667 0.78322 0.0
C200 C 0.44914 0.43949 0.80419 0.0
H201 H 0.35054 0.43214 0.69479 0.0
H202 H 0.38535 0.47019 0.82194 0.0
S203 S 0.52456 0.36245 0.68463 0.0
N204 N 0.47757 0.35785 0.62981 0.0
N205 N 0.51565 0.39853 0.76659 0.0
C206 C 0.47266 0.40832 0.75224 0.0
C207 C 0.45218 0.38631 0.67815 0.0
C208 C 0.57507 0.63992 0.34027 0.0
C209 C 0.62026 0.63505 0.3573 0.0
C210 C 0.55493 0.61867 0.26694 0.0
C211 C 0.57915 0.59107 0.20907 0.0
H212 H 0.55495 0.65929 0.38547 0.0
H213 H 0.51981 0.62241 0.25773 0.0
S214 S 0.6991 0.56992 0.22206 0.0
N215 N 0.68912 0.60288 0.30841 0.0
N216 N 0.6514 0.56245 0.17081 0.0
C217 C 0.62474 0.58733 0.22372 0.0
C218 C 0.64528 0.60949 0.29776 0.0
C219 C 0.94199 0.14739 0.81813 0.0
C220 C 0.90353 0.13049 0.85323 0.0
C221 C 0.96216 0.1256 0.74669 0.0
C222 C 0.94469 0.08594 0.70849 0.0
H223 H 0.95731 0.17682 0.8479 0.0
H224 H 0.99232 0.13941 0.72289 0.0
S225 S 0.84286 0.02975 0.77609 0.0
N226 N 0.84763 0.07334 0.84453 0.0
N227 N 0.88507 0.03204 0.70995 0.0
C228 C 0.90523 0.06961 0.74193 0.0
C229 C 0.88481 0.09196 0.81455 0.0
C230 C 0.45127 0.39316 0.31652 0.0
C231 C 0.40643 0.39841 0.3344 0.0
C232 C 0.47079 0.41527 0.2488 0.0
C233 C 0.44632 0.44413 0.19759 0.0
H234 H 0.47159 0.37255 0.35659 0.0
H235 H 0.50566 0.41078 0.23854 0.0
S236 S 0.32707 0.46747 0.21645 0.0
N237 N 0.33757 0.43277 0.29418 0.0
N238 N 0.37419 0.475 0.16708 0.0
C239 C 0.40108 0.44871 0.21349 0.0
C240 C 0.38113 0.42562 0.28182 0.0
C241 C 0.13912 0.95038 0.81996 0.0
C242 C 0.12969 0.90644 0.83874 0.0
C243 C 0.11778 0.97068 0.75084 0.0
C244 C 0.08555 0.94799 0.6992 0.0
H245 H 0.16234 0.96952 0.86053 0.0
H246 H 0.12554 1.00491 0.73991 0.0
S247 S 0.0504 0.83146 0.72114 0.0
N248 N 0.08762 0.8402 0.79958 0.0
N249 N 0.04682 0.87821 0.67 0.0
C250 C 0.07673 0.9035 0.71628 0.0
C251 C 0.09898 0.88275 0.78601 0.0
loop_
_geom_bond_atom_site_label_1
_geom_bond_atom_site_label_2
_geom_bond_distance
_geom_bond_site_symmetry_2
_ccdc_geom_bond_type
H0 C7 0.929 . S
H1 C10 0.930 . S
H2 C12 0.929 . S
H3 C4 0.969 . S
C4 H3 0.969 . S
C4 O5 1.550 1_554 S
C4 H6 0.973 . S
O5 C4 1.550 1_556 S
O5 C11 1.412 . S
H6 C4 0.973 . S
C7 H0 0.929 . S
C7 C8 1.400 1_554 S
C7 C9 1.364 . S
C8 C7 1.400 1_556 S
C8 C12 1.377 . S
C9 C7 1.364 . S
C9 C10 1.374 . S
C10 H1 0.930 . S
C10 C9 1.374 . S
C10 C11 1.383 1_554 S
C11 O5 1.412 . S
C11 C10 1.383 1_556 S
C11 C12 1.395 . S
C12 H2 0.929 . S
C12 C8 1.377 . S
C12 C11 1.395 . S
H13 C20 0.929 . S
H14 C23 0.930 . S
H15 C25 0.929 . S
H16 C17 0.969 . S
C17 H16 0.969 . S
C17 O18 1.550 . S
C17 H19 0.973 . S
O18 C17 1.550 . S
O18 C24 1.412 . S
H19 C17 0.973 . S
C20 H13 0.929 . S
C20 C21 1.400 . S
C20 C22 1.364 . S
C21 C20 1.400 . S
C21 C25 1.377 . S
C22 C20 1.364 . S
C22 C23 1.374 . S
C23 H14 0.930 . S
C23 C22 1.374 . S
C23 C24 1.383 . S
C24 O18 1.412 . S
C24 C23 1.383 . S
C24 C25 1.394 . S
C25 H15 0.929 . S
C25 C21 1.377 . S
C25 C24 1.394 . S
H26 C33 0.928 1_556 S
H27 C36 0.930 . S
H28 C38 0.929 . S
H29 C30 0.969 . S
C30 H29 0.969 . S
C30 O31 1.550 1_556 S
C30 H32 0.973 . S
O31 C30 1.550 1_554 S
O31 C37 1.412 . S
H32 C30 0.973 . S
C33 H26 0.928 1_554 S
C33 C34 1.400 . S
C33 C35 1.364 1_554 S
C34 C33 1.400 . S
C34 C38 1.377 . S
C35 C33 1.364 1_556 S
C35 C36 1.374 . S
C36 H27 0.930 . S
C36 C35 1.374 . S
C36 C37 1.383 1_556 S
C37 O31 1.412 . S
C37 C36 1.383 1_554 S
C37 C38 1.394 . S
C38 H28 0.929 . S
C38 C34 1.377 . S
C38 C37 1.394 . S
H39 C46 0.929 . S
H40 C49 0.930 . S
H41 C51 0.929 . S
H42 C43 0.969 . S
C43 H42 0.969 . S
C43 O44 1.550 . S
C43 H45 0.973 . S
O44 C43 1.550 . S
O44 C50 1.412 . S
H45 C43 0.973 . S
C46 H39 0.929 . S
C46 C47 1.400 . S
C46 C48 1.364 . S
C47 C46 1.400 . S
C47 C51 1.377 . S
C48 C46 1.364 . S
C48 C49 1.374 . S
C49 H40 0.930 . S
C49 C48 1.374 . S
C49 C50 1.383 . S
C50 O44 1.412 . S
C50 C49 1.383 . S
C50 C51 1.394 . S
C51 H41 0.929 . S
C51 C47 1.377 . S
C51 C50 1.394 . S
C52 O68 1.251 . S
C52 O70 1.254 . S
N53 C54 1.333 . S
N53 C58 1.307 . S
N53 Zn59 2.020 . S
C54 N53 1.333 . S
C54 C55 1.379 . S
C54 H72 0.952 . S
C55 C54 1.379 . S
C55 C56 1.390 . S
C55 H82 0.949 . S
C56 C55 1.390 . S
C56 C57 1.357 . S
C57 C56 1.357 . S
C57 C58 1.370 . S
C57 H83 0.950 . S
C58 N53 1.307 . S
C58 C57 1.370 . S
C58 H76 0.948 . S
Zn59 N53 2.020 . S
Zn59 O68 2.039 1_545 S
Zn59 O74 2.034 1_545 S
Zn59 O78 2.025 1_455 S
Zn59 O80 2.024 1_455 S
C60 O79 1.246 . S
C60 O80 1.249 . S
N61 C62 1.307 . S
N61 C63 1.333 . S
N61 Zn67 2.020 . S
C62 N61 1.307 . S
C62 C66 1.370 . S
C62 H73 0.948 . S
C63 N61 1.333 . S
C63 C64 1.379 . S
C63 H71 0.952 . S
C64 C63 1.379 . S
C64 C65 1.390 . S
C64 H84 0.949 . S
C65 C64 1.390 . S
C65 C66 1.357 . S
C66 C62 1.370 . S
C66 C65 1.357 . S
C66 H85 0.950 . S
Zn67 N61 2.020 . S
Zn67 O70 2.025 1_655 S
Zn67 O75 2.024 1_655 S
Zn67 O77 2.039 1_565 S
Zn67 O79 2.034 1_565 S
O68 C52 1.251 . S
O68 Zn59 2.039 1_565 S
C69 O74 1.246 . S
C69 O75 1.249 . S
O70 C52 1.254 . S
O70 Zn67 2.025 1_455 S
H71 C63 0.952 . S
H72 C54 0.952 . S
H73 C62 0.948 . S
O74 Zn59 2.034 1_565 S
O74 C69 1.246 . S
O75 Zn67 2.024 1_455 S
O75 C69 1.249 . S
H76 C58 0.948 . S
O77 Zn67 2.039 1_545 S
O77 C81 1.251 . S
O78 Zn59 2.025 1_655 S
O78 C81 1.254 . S
O79 C60 1.246 . S
O79 Zn67 2.034 1_545 S
O80 Zn59 2.024 1_655 S
O80 C60 1.249 . S
C81 O77 1.251 . S
C81 O78 1.254 . S
H82 C55 0.949 . S
H83 C57 0.950 . S
H84 C64 0.949 . S
H85 C66 0.950 . S
C86 O102 1.251 . S
C86 O104 1.254 . S
N87 C88 1.333 1_554 S
N87 C92 1.307 . S
N87 Zn93 2.020 . S
C88 N87 1.333 1_556 S
C88 C89 1.379 . S
C88 H106 0.952 . S
C89 C88 1.379 . S
C89 C90 1.390 1_556 S
C89 H116 0.949 . S
C90 C89 1.390 1_554 S
C90 C91 1.357 . S
C91 C90 1.357 . S
C91 C92 1.370 . S
C91 H117 0.950 . S
C92 N87 1.307 . S
C92 C91 1.370 . S
C92 H110 0.948 . S
Zn93 N87 2.020 . S
Zn93 O102 2.039 1_554 S
Zn93 O108 2.034 . S
Zn93 O112 2.025 . S
Zn93 O114 2.024 1_554 S
C94 O113 1.246 . S
C94 O114 1.249 . S
N95 C96 1.307 1_554 S
N95 C97 1.333 . S
N95 Zn101 2.020 . S
C96 N95 1.307 1_556 S
C96 C100 1.370 . S
C96 H107 0.948 . S
C97 N95 1.333 . S
C97 C98 1.379 . S
C97 H105 0.952 . S
C98 C97 1.379 . S
C98 C99 1.390 . S
C98 H118 0.949 . S
C99 C98 1.390 . S
C99 C100 1.357 1_554 S
C100 C96 1.370 . S
C100 C99 1.357 1_556 S
C100 H119 0.950 . S
Zn101 N95 2.020 . S
Zn101 O104 2.025 1_554 S
Zn101 O109 2.024 . S
Zn101 O111 2.039 . S
Zn101 O113 2.034 1_554 S
O102 C86 1.251 . S
O102 Zn93 2.039 1_556 S
C103 O108 1.246 . S
C103 O109 1.249 . S
O104 C86 1.254 . S
O104 Zn101 2.025 1_556 S
H105 C97 0.952 . S
H106 C88 0.952 . S
H107 C96 0.948 . S
O108 Zn93 2.034 . S
O108 C103 1.246 . S
O109 Zn101 2.024 . S
O109 C103 1.249 . S
H110 C92 0.948 . S
O111 Zn101 2.039 . S
O111 C115 1.251 . S
O112 Zn93 2.025 . S
O112 C115 1.254 . S
O113 C94 1.246 . S
O113 Zn101 2.034 1_556 S
O114 Zn93 2.024 1_556 S
O114 C94 1.249 . S
C115 O111 1.251 . S
C115 O112 1.254 . S
H116 C89 0.949 . S
H117 C91 0.950 . S
H118 C98 0.949 . S
H119 C100 0.950 . S
C120 C121 1.369 . S
C120 C122 1.419 . S
C120 H124 0.930 . S
C121 C120 1.369 . S
C121 C130 1.429 . S
C122 C120 1.419 . S
C122 C123 1.363 . S
C122 H125 0.929 . S
C123 C122 1.363 . S
C123 C129 1.428 . S
H124 C120 0.930 . S
H125 C122 0.929 . S
S126 N127 1.613 . S
S126 N128 1.610 . S
N127 S126 1.613 . S
N127 C130 1.350 . S
N128 S126 1.610 . S
N128 C129 1.351 . S
C129 C123 1.428 . S
C129 N128 1.351 . S
C129 C130 1.434 . S
C130 C121 1.429 . S
C130 N127 1.350 . S
C130 C129 1.434 . S
C131 C132 1.369 . S
C131 C133 1.419 . S
C131 H135 0.930 . S
C132 C131 1.369 . S
C132 C141 1.429 . S
C133 C131 1.419 . S
C133 C134 1.363 . S
C133 H136 0.929 . S
C134 C133 1.363 . S
C134 C140 1.428 . S
H135 C131 0.930 . S
H136 C133 0.929 . S
S137 N138 1.613 . S
S137 N139 1.610 . S
N138 S137 1.613 . S
N138 C141 1.350 1_556 S
N139 S137 1.610 . S
N139 C140 1.351 1_556 S
C140 C134 1.428 . S
C140 N139 1.351 1_554 S
C140 C141 1.434 . S
C141 C132 1.429 . S
C141 N138 1.350 1_554 S
C141 C140 1.434 . S
C142 C143 1.369 . S
C142 C144 1.419 . S
C142 H146 0.930 . S
C143 C142 1.369 . S
C143 C152 1.429 . S
C144 C142 1.419 . S
C144 C145 1.363 . S
C144 H147 0.929 . S
C145 C144 1.363 . S
C145 C151 1.428 . S
H146 C142 0.930 . S
H147 C144 0.929 . S
S148 N149 1.613 . S
S148 N150 1.610 . S
N149 S148 1.613 . S
N149 C152 1.350 . S
N150 S148 1.610 . S
N150 C151 1.351 . S
C151 C145 1.428 . S
C151 N150 1.351 . S
C151 C152 1.434 . S
C152 C143 1.429 . S
C152 N149 1.350 . S
C152 C151 1.434 . S
C153 C154 1.369 1_554 S
C153 C155 1.419 . S
C153 H157 0.930 . S
C154 C153 1.369 1_556 S
C154 C163 1.429 . S
C155 C153 1.419 . S
C155 C156 1.363 1_554 S
C155 H158 0.929 . S
C156 C155 1.363 1_556 S
C156 C162 1.428 . S
H157 C153 0.930 . S
H158 C155 0.929 . S
S159 N160 1.613 . S
S159 N161 1.610 . S
N160 S159 1.613 . S
N160 C163 1.350 . S
N161 S159 1.610 . S
N161 C162 1.351 . S
C162 C156 1.428 . S
C162 N161 1.351 . S
C162 C163 1.434 . S
C163 C154 1.429 . S
C163 N160 1.350 . S
C163 C162 1.434 . S
C164 C165 1.369 . S
C164 C166 1.419 . S
C164 H168 0.930 . S
C165 C164 1.369 . S
C165 C174 1.429 . S
C166 C164 1.419 . S
C166 C167 1.363 . S
C166 H169 0.929 . S
C167 C166 1.363 . S
C167 C173 1.428 . S
H168 C164 0.930 . S
H169 C166 0.929 . S
S170 N171 1.613 . S
S170 N172 1.610 . S
N171 S170 1.613 . S
N171 C174 1.350 . S
N172 S170 1.610 . S
N172 C173 1.351 . S
C173 C167 1.428 . S
C173 N172 1.351 . S
C173 C174 1.434 . S
C174 C165 1.429 . S
C174 N171 1.350 . S
C174 C173 1.434 . S
C175 C176 1.369 . S
C175 C177 1.419 . S
C175 H179 0.930 . S
C176 C175 1.369 . S
C176 C185 1.429 . S
C177 C175 1.419 . S
C177 C178 1.363 . S
C177 H180 0.929 . S
C178 C177 1.363 . S
C178 C184 1.428 . S
H179 C175 0.930 . S
H180 C177 0.929 . S
S181 N182 1.613 . S
S181 N183 1.610 . S
N182 S181 1.613 . S
N182 C185 1.350 . S
N183 S181 1.610 . S
N183 C184 1.351 . S
C184 C178 1.428 . S
C184 N183 1.351 . S
C184 C185 1.434 . S
C185 C176 1.429 . S
C185 N182 1.350 . S
C185 C184 1.434 . S
C186 C187 1.369 . S
C186 C188 1.419 . S
C186 H190 0.930 . S
C187 C186 1.369 . S
C187 C196 1.429 . S
C188 C186 1.419 . S
C188 C189 1.363 . S
C188 H191 0.929 . S
C189 C188 1.363 . S
C189 C195 1.428 . S
H190 C186 0.930 . S
H191 C188 0.929 . S
S192 N193 1.613 . S
S192 N194 1.610 . S
N193 S192 1.613 . S
N193 C196 1.350 . S
N194 S192 1.610 . S
N194 C195 1.351 . S
C195 C189 1.428 . S
C195 N194 1.351 . S
C195 C196 1.434 . S
C196 C187 1.429 . S
C196 N193 1.350 . S
C196 C195 1.434 . S
C197 C198 1.369 . S
C197 C199 1.419 . S
C197 H201 0.930 . S
C198 C197 1.369 . S
C198 C207 1.429 . S
C199 C197 1.419 . S
C199 C200 1.363 . S
C199 H202 0.929 . S
C200 C199 1.363 . S
C200 C206 1.428 . S
H201 C197 0.930 . S
H202 C199 0.929 . S
S203 N204 1.613 . S
S203 N205 1.610 . S
N204 S203 1.613 . S
N204 C207 1.350 . S
N205 S203 1.610 . S
N205 C206 1.351 . S
C206 C200 1.428 . S
C206 N205 1.351 . S
C206 C207 1.434 . S
C207 C198 1.429 . S
C207 N204 1.350 . S
C207 C206 1.434 . S
C208 C209 1.369 . S
C208 C210 1.419 . S
C208 H212 0.930 . S
C209 C208 1.369 . S
C209 C218 1.429 . S
C210 C208 1.419 . S
C210 C211 1.363 . S
C210 H213 0.929 . S
C211 C210 1.363 . S
C211 C217 1.428 . S
H212 C208 0.930 . S
H213 C210 0.929 . S
S214 N215 1.613 . S
S214 N216 1.610 . S
N215 S214 1.613 . S
N215 C218 1.350 . S
N216 S214 1.610 . S
N216 C217 1.351 . S
C217 C211 1.428 . S
C217 N216 1.351 . S
C217 C218 1.434 . S
C218 C209 1.429 . S
C218 N215 1.350 . S
C218 C217 1.434 . S
C219 C220 1.369 . S
C219 C221 1.419 . S
C219 H223 0.930 . S
C220 C219 1.369 . S
C220 C229 1.429 . S
C221 C219 1.419 . S
C221 C222 1.363 . S
C221 H224 0.929 . S
C222 C221 1.363 . S
C222 C228 1.428 . S
H223 C219 0.930 . S
H224 C221 0.929 . S
S225 N226 1.613 1_565 S
S225 N227 1.610 1_565 S
N226 S225 1.613 1_545 S
N226 C229 1.350 . S
N227 S225 1.610 1_545 S
N227 C228 1.353 . S
C228 C222 1.428 . S
C228 N227 1.353 . S
C228 C229 1.434 . S
C229 C220 1.429 . S
C229 N226 1.350 . S
C229 C228 1.434 . S
C230 C231 1.369 . S
C230 C232 1.419 . S
C230 H234 0.930 . S
C231 C230 1.369 . S
C231 C240 1.429 . S
C232 C230 1.419 . S
C232 C233 1.363 . S
C232 H235 0.929 . S
C233 C232 1.363 . S
C233 C239 1.428 . S
H234 C230 0.930 . S
H235 C232 0.929 . S
S236 N237 1.613 . S
S236 N238 1.610 . S
N237 S236 1.613 . S
N237 C240 1.350 . S
N238 S236 1.610 . S
N238 C239 1.351 . S
C239 C233 1.428 . S
C239 N238 1.351 . S
C239 C240 1.434 . S
C240 C231 1.429 . S
C240 N237 1.350 . S
C240 C239 1.434 . S
C241 C242 1.369 . S
C241 C243 1.419 . S
C241 H245 0.930 . S
C242 C241 1.369 . S
C242 C251 1.429 . S
C243 C241 1.419 . S
C243 C244 1.363 . S
C243 H246 0.929 . S
C244 C243 1.363 . S
C244 C250 1.428 . S
H245 C241 0.930 . S
H246 C243 0.929 . S
S247 N248 1.613 1_655 S
S247 N249 1.610 . S
N248 S247 1.613 1_455 S
N248 C251 1.350 . S
N249 S247 1.610 . S
N249 C250 1.351 1_655 S
C250 C244 1.428 . S
C250 N249 1.351 1_455 S
C250 C251 1.434 . S
C251 C242 1.429 . S
C251 N248 1.350 . S
C251 C250 1.434 . S
C123 C56 1.506 . S
C121 C43 1.456 . S
C132 C4 1.462 . S
C134 C99 1.507 . S
C143 C17 1.457 . S
C145 C65 1.506 . S
C154 C30 1.465 . S
C156 C90 1.507 1_556 S
C167 C52 1.509 . S
C165 C9 1.489 . S
C178 C94 1.508 . S
C176 C21 1.505 . S
C187 C34 1.509 . S
C189 C60 1.508 . S
C198 C48 1.490 . S
C200 C86 1.508 . S
C211 C115 1.508 . S
C209 C22 1.492 . S
C222 C81 1.509 . S
C220 C35 1.486 . S
C233 C103 1.508 . S
C231 C47 1.506 . S
C242 C8 1.506 . S
C244 C69 1.508 . S
