# Generated by pormake.
# Topology tsx, (6,3)-cn, num edge types: 1
# Building blocks:
#     Node 0, Type 0, BuildingBlock: MIDCAF_clean_sbu_0, # of connection points: 6
#     Node 1, Type 0, BuildingBlock: MIDCAF_clean_sbu_0, # of connection points: 6
#     Node 2, Type 1, BuildingBlock: BELTOD_clean_linker_0, # of connection points: 3
#     Node 3, Type 1, BuildingBlock: BELTOD_clean_linker_0, # of connection points: 3
#     Node 4, Type 1, BuildingBlock: BELTOD_clean_linker_0, # of connection points: 3
#     Node 5, Type 1, BuildingBlock: BELTOD_clean_linker_0, # of connection points: 3
#     Edge 6, Type (0, 1), None
#     Edge 7, Type (0, 1), None
#     Edge 8, Type (0, 1), None
#     Edge 9, Type (0, 1), None
#     Edge 10, Type (0, 1), None
#     Edge 11, Type (0, 1), None
#     Edge 12, Type (0, 1), None
#     Edge 13, Type (0, 1), None
#     Edge 14, Type (0, 1), None
#     Edge 15, Type (0, 1), None
#     Edge 16, Type (0, 1), None
#     Edge 17, Type (0, 1), None
# Relax obj value: 0.109
# Max RMSD: 0.178
# Mean RMSD: 0.107
data_MOF--net-tsx--node1-MIDCAF_clean_sbu_0--node2-BELTOD_clean_linker_0--edge1-none
_symmetry_space_group_name_H-M    P1
_symmetry_Int_Tables_number       1
_symmetry_cell_setting            triclinic
loop_
_symmetry_equiv_pos_as_xyz
'x, y, z'
_cell_length_a     11.052238
_cell_length_b     12.293243
_cell_length_c     21.795007
_cell_angle_alpha  87.964389
_cell_angle_beta   106.07904
_cell_angle_gamma 89.448647
loop_
_atom_site_label
_atom_site_type_symbol
_atom_site_fract_x
_atom_site_fract_y
_atom_site_fract_z
_atom_type_partial_charge
Zn0 Zn 0.89182 0.97253 0.93442 0.0
Zn1 Zn 0.21878 -0.02071 0.12081 0.0
Zn2 Zn 0.07664 0.01179 0.01435 0.0
C3 C 0.29732 0.1524 0.05655 0.0
C4 C 0.25449 0.81176 0.04772 0.0
O5 O 1.02066 0.84428 0.03247 0.0
O6 O 0.81891 0.87618 0.99074 0.0
C7 C 0.84069 0.17064 0.96543 0.0
O8 O 0.24763 0.09317 1.00911 0.0
O9 O 0.27234 0.13409 0.10923 0.0
O10 O 0.32112 0.86637 0.09203 0.0
O11 O 0.13709 0.83883 0.02493 0.0
O12 O 0.81332 0.11768 0.9151 0.0
O13 O 0.92922 0.13558 0.01421 0.0
O14 O 0.15352 0.05013 0.93698 0.0
O15 O 1.0209 0.9253 0.89001 0.0
C16 C 0.11808 -0.01868 0.89299 0.0
O17 O 1.00291 0.0961 0.08205 0.0
O18 O 0.05685 0.94906 0.14359 0.0
C19 C 0.90589 0.81934 0.0279 0.0
C20 C 0.99651 0.03861 0.13146 0.0
Zn21 Zn 0.71878 0.47929 0.62081 0.0
Zn22 Zn 0.39182 0.47253 0.43442 0.0
Zn23 Zn 0.57664 0.51179 0.51435 0.0
C24 C 0.61808 0.48132 0.39299 0.0
C25 C 0.34069 0.67064 0.46543 0.0
O26 O 0.50291 0.5961 0.58205 0.0
O27 O 0.55685 0.44906 0.64359 0.0
C28 C 0.75449 0.31176 0.54772 0.0
O29 O 0.65352 0.55013 0.43698 0.0
O30 O 0.5209 0.4253 0.39001 0.0
O31 O 0.31332 0.61768 0.4151 0.0
O32 O 0.42922 0.63558 0.51421 0.0
O33 O 0.82112 0.36637 0.59203 0.0
O34 O 0.63709 0.33883 0.52493 0.0
O35 O 0.74763 0.59317 0.50911 0.0
O36 O 0.77234 0.63409 0.60923 0.0
C37 C 0.79732 0.6524 0.55655 0.0
O38 O 0.52066 0.34428 0.53247 0.0
O39 O 0.31891 0.37618 0.49074 0.0
C40 C 0.49651 0.53861 0.63146 0.0
C41 C 0.40589 0.31934 0.5279 0.0
P42 P 0.09217 0.11542 0.40442 0.0
H43 H 1.00458 0.33219 0.4124 0.0
H44 H 0.87361 0.4117 0.47268 0.0
H45 H 0.78795 0.09141 0.53447 0.0
H46 H 0.92605 0.0105 0.47559 0.0
H47 H 0.34603 0.04297 0.47612 0.0
H48 H 0.44583 0.86359 0.50505 0.0
H49 H 0.09093 0.71471 0.41777 0.0
H50 H 0.98841 0.89438 0.39463 0.0
H51 H 0.17733 0.22816 0.30481 0.0
H52 H 0.87469 0.01514 0.31532 0.0
O53 O 0.21007 0.20268 0.42146 0.0
H54 H 0.13359 0.19977 0.19152 0.0
H55 H 0.83398 -0.01693 0.20078 0.0
C56 C 0.97637 0.16584 0.44032 0.0
C57 C 0.95679 0.27847 0.43814 0.0
C58 C 0.88133 0.32383 0.47222 0.0
C59 C 0.81999 0.25731 0.50718 0.0
C60 C 0.83364 0.14375 0.50702 0.0
C61 C 0.91225 0.09788 0.47355 0.0
C62 C 0.15911 -0.01718 0.43368 0.0
C63 C 0.2879 0.97218 0.46596 0.0
C64 C 0.34535 0.8695 0.48241 0.0
C65 C 0.27579 0.77591 0.46389 0.0
C66 C 0.14625 0.78623 0.43286 0.0
C67 C 0.08779 0.88892 0.4191 0.0
C68 C 0.03214 0.12045 0.319 0.0
C69 C 0.0988 0.17776 0.2826 0.0
C70 C 0.07273 0.16279 0.21739 0.0
C71 C 0.97932 0.09061 0.18756 0.0
C72 C 0.90434 0.04126 0.22272 0.0
C73 C 0.92951 0.05759 0.28825 0.0
P74 P 0.26493 0.90778 0.6517 0.0
H75 H 0.21581 0.70898 0.57866 0.0
H76 H 0.02362 0.60707 0.53625 0.0
H77 H 0.80608 0.86399 0.58725 0.0
H78 H 0.99769 0.96764 0.62767 0.0
H79 H 0.50466 -0.01387 0.63806 0.0
H80 H 0.56332 0.15216 0.58949 0.0
H81 H 0.17858 0.27123 0.54632 0.0
H82 H 0.11994 0.10377 0.59326 0.0
H83 H 0.21659 0.76031 0.74747 0.0
H84 H 0.27946 0.10454 0.72921 0.0
O85 O 0.38221 0.8184 0.65913 0.0
H86 H 0.15738 0.78943 0.84545 0.0
H87 H 0.2214 0.13366 0.82826 0.0
C88 C 0.12142 0.84724 0.60541 0.0
C89 C 0.12625 0.74638 0.57769 0.0
C90 C 1.01607 0.68819 0.55292 0.0
C91 C 0.89976 0.72871 0.55723 0.0
C92 C 0.89419 0.83236 0.58175 0.0
C93 C 1.00395 0.89144 0.60523 0.0
C94 C 0.30658 0.03078 0.61658 0.0
C95 C 0.43252 0.04746 0.61746 0.0
C96 C 0.46639 0.14283 0.59024 0.0
C97 C 0.3746 0.22301 0.56226 0.0
C98 C 0.25027 0.20888 0.5654 0.0
C99 C 0.21634 0.11312 0.59198 0.0
C100 C 0.24948 0.93019 0.73028 0.0
C101 C 0.22022 0.84178 0.76524 0.0
C102 C 0.18674 0.85859 0.82123 0.0
C103 C 0.18386 0.96405 0.84385 0.0
C104 C 0.22364 0.05168 0.81188 0.0
C105 C 0.25554 0.03492 0.75493 0.0
P106 P 0.59217 0.61542 0.90442 0.0
H107 H 0.50458 0.83219 0.9124 0.0
H108 H 0.37361 0.9117 0.97268 0.0
H109 H 0.28795 0.59141 0.03447 0.0
H110 H 0.42605 0.5105 0.97559 0.0
H111 H 0.84603 0.54297 0.97612 0.0
H112 H 0.94583 0.36359 1.00505 0.0
H113 H 0.59093 0.21471 0.91777 0.0
H114 H 0.48841 0.39438 0.89463 0.0
H115 H 0.67733 0.72816 0.80481 0.0
H116 H 0.37469 0.51514 0.81532 0.0
O117 O 0.71007 0.70268 0.92146 0.0
H118 H 0.63359 0.69977 0.69152 0.0
H119 H 0.33398 0.48307 0.70078 0.0
C120 C 0.47637 0.66584 0.94032 0.0
C121 C 0.45679 0.77847 0.93814 0.0
C122 C 0.38133 0.82383 0.97222 0.0
C123 C 0.31999 0.75731 1.00718 0.0
C124 C 0.33364 0.64375 1.00702 0.0
C125 C 0.41225 0.59788 0.97355 0.0
C126 C 0.65911 0.48282 0.93368 0.0
C127 C 0.7879 0.47218 0.96596 0.0
C128 C 0.84535 0.3695 0.98241 0.0
C129 C 0.77579 0.27591 0.96389 0.0
C130 C 0.64625 0.28623 0.93286 0.0
C131 C 0.58779 0.38892 0.9191 0.0
C132 C 0.53214 0.62045 0.819 0.0
C133 C 0.5988 0.67776 0.7826 0.0
C134 C 0.57273 0.66279 0.71739 0.0
C135 C 0.47932 0.59061 0.68756 0.0
C136 C 0.40434 0.54126 0.72272 0.0
C137 C 0.42951 0.55759 0.78825 0.0
P138 P 0.76493 0.40778 0.1517 0.0
H139 H 0.71581 0.20898 0.07866 0.0
H140 H 0.52363 0.10707 0.03625 0.0
H141 H 0.30608 0.36399 0.08725 0.0
H142 H 0.49769 0.46764 0.12767 0.0
H143 H 1.00466 0.48613 0.13806 0.0
H144 H 0.06332 0.65216 0.08949 0.0
H145 H 0.67858 0.77123 0.04632 0.0
H146 H 0.61994 0.60377 0.09326 0.0
H147 H 0.71659 0.26031 0.24747 0.0
H148 H 0.77946 0.60454 0.22921 0.0
O149 O 0.88221 0.3184 0.15913 0.0
H150 H 0.65738 0.28943 0.34545 0.0
H151 H 0.7214 0.63366 0.32826 0.0
C152 C 0.62142 0.34724 0.10541 0.0
C153 C 0.62625 0.24638 0.07769 0.0
C154 C 0.51607 0.18819 0.05292 0.0
C155 C 0.39976 0.22871 0.05723 0.0
C156 C 0.39419 0.33236 0.08175 0.0
C157 C 0.50395 0.39144 0.10523 0.0
C158 C 0.80658 0.53078 0.11658 0.0
C159 C 0.93252 0.54746 0.11746 0.0
C160 C 0.96639 0.64283 0.09024 0.0
C161 C 0.8746 0.72301 0.06226 0.0
C162 C 0.75027 0.70888 0.0654 0.0
C163 C 0.71634 0.61312 0.09198 0.0
C164 C 0.74948 0.43019 0.23028 0.0
C165 C 0.72022 0.34178 0.26524 0.0
C166 C 0.68674 0.35859 0.32123 0.0
C167 C 0.68386 0.46405 0.34385 0.0
C168 C 0.72364 0.55168 0.31188 0.0
C169 C 0.75554 0.53492 0.25493 0.0
loop_
_geom_bond_atom_site_label_1
_geom_bond_atom_site_label_2
_geom_bond_distance
_geom_bond_site_symmetry_2
_ccdc_geom_bond_type
Zn0 O6 1.920 1_545 S
Zn0 O12 1.898 . S
Zn0 O15 1.905 1_545 S
Zn1 O9 1.905 . S
Zn1 O10 1.898 1_545 S
Zn1 O18 1.920 1_545 S
Zn2 O5 2.080 1_445 S
Zn2 O8 2.114 . S
Zn2 O11 2.120 1_545 S
Zn2 O13 2.120 1_455 S
Zn2 O14 2.114 1_554 S
Zn2 O17 2.080 . S
C3 O8 1.166 . S
C3 O9 1.182 . S
C4 O10 1.167 . S
C4 O11 1.299 . S
O5 Zn2 2.080 1_665 S
O5 C19 1.305 . S
O6 Zn0 1.920 1_565 S
O6 C19 1.234 1_556 S
C7 O12 1.167 . S
C7 O13 1.299 1_556 S
O8 Zn2 2.114 . S
O8 C3 1.166 . S
O9 Zn1 1.905 . S
O9 C3 1.182 . S
O10 Zn1 1.898 1_565 S
O10 C4 1.167 . S
O11 Zn2 2.120 1_565 S
O11 C4 1.299 . S
O12 Zn0 1.898 . S
O12 C7 1.167 . S
O13 Zn2 2.120 1_655 S
O13 C7 1.299 1_554 S
O14 Zn2 2.114 1_556 S
O14 C16 1.166 1_445 S
O15 Zn0 1.905 1_565 S
O15 C16 1.182 . S
C16 O14 1.166 1_665 S
C16 O15 1.182 . S
O17 Zn2 2.080 . S
O17 C20 1.305 1_545 S
O18 Zn1 1.920 1_565 S
O18 C20 1.234 . S
C19 O5 1.305 . S
C19 O6 1.234 1_554 S
C20 O17 1.305 1_565 S
C20 O18 1.234 . S
Zn21 O27 1.920 . S
Zn21 O33 1.898 . S
Zn21 O36 1.905 . S
Zn22 O30 1.905 . S
Zn22 O31 1.898 . S
Zn22 O39 1.920 . S
Zn23 O26 2.080 . S
Zn23 O29 2.114 . S
Zn23 O32 2.120 . S
Zn23 O34 2.120 . S
Zn23 O35 2.114 . S
Zn23 O38 2.080 . S
C24 O29 1.166 . S
C24 O30 1.182 . S
C25 O31 1.167 . S
C25 O32 1.299 . S
O26 Zn23 2.080 . S
O26 C40 1.305 . S
O27 Zn21 1.920 . S
O27 C40 1.234 . S
C28 O33 1.167 . S
C28 O34 1.299 . S
O29 Zn23 2.114 . S
O29 C24 1.166 . S
O30 Zn22 1.905 . S
O30 C24 1.182 . S
O31 Zn22 1.898 . S
O31 C25 1.167 . S
O32 Zn23 2.120 . S
O32 C25 1.299 . S
O33 Zn21 1.898 . S
O33 C28 1.167 . S
O34 Zn23 2.120 . S
O34 C28 1.299 . S
O35 Zn23 2.114 . S
O35 C37 1.166 . S
O36 Zn21 1.905 . S
O36 C37 1.182 . S
C37 O35 1.166 . S
C37 O36 1.182 . S
O38 Zn23 2.080 . S
O38 C41 1.305 . S
O39 Zn22 1.920 . S
O39 C41 1.234 . S
C40 O26 1.305 . S
C40 O27 1.234 . S
C41 O38 1.305 . S
C41 O39 1.234 . S
P42 O53 1.490 . S
P42 C56 1.812 . S
P42 C62 1.803 . S
P42 C68 1.819 . S
H43 C57 0.941 . S
H44 C58 0.939 . S
H45 C60 0.940 . S
H46 C61 0.940 . S
H47 C63 0.939 1_545 S
H48 C64 0.942 . S
H49 C66 0.940 . S
H50 C67 0.939 . S
H51 C69 0.941 . S
H52 C73 0.939 1_565 S
O53 P42 1.490 . S
H54 C70 0.939 . S
H55 C72 0.940 . S
C56 P42 1.812 . S
C56 C57 1.389 . S
C56 C61 1.391 1_455 S
C57 H43 0.941 . S
C57 C56 1.389 . S
C57 C58 1.397 1_455 S
C58 H44 0.939 . S
C58 C57 1.397 1_655 S
C58 C59 1.378 . S
C59 C58 1.378 . S
C59 C60 1.378 . S
C60 H45 0.940 . S
C60 C59 1.378 . S
C60 C61 1.396 . S
C61 H46 0.940 . S
C61 C56 1.391 1_655 S
C61 C60 1.396 . S
C62 P42 1.803 . S
C62 C63 1.378 1_545 S
C62 C67 1.400 1_545 S
C63 H47 0.939 1_565 S
C63 C62 1.378 1_565 S
C63 C64 1.361 . S
C64 H48 0.942 . S
C64 C63 1.361 . S
C64 C65 1.369 . S
C65 C64 1.369 . S
C65 C66 1.404 . S
C66 H49 0.940 . S
C66 C65 1.404 . S
C66 C67 1.389 . S
C67 H50 0.939 . S
C67 C62 1.400 1_565 S
C67 C66 1.389 . S
C68 P42 1.819 . S
C68 C69 1.391 . S
C68 C73 1.391 . S
C69 H51 0.941 . S
C69 C68 1.391 . S
C69 C70 1.396 . S
C70 H54 0.939 . S
C70 C69 1.396 . S
C70 C71 1.397 . S
C71 C70 1.397 . S
C71 C72 1.385 1_545 S
C72 H55 0.940 . S
C72 C71 1.385 1_565 S
C72 C73 1.388 1_565 S
C73 H52 0.939 1_545 S
C73 C68 1.391 . S
C73 C72 1.388 1_545 S
P74 O85 1.490 . S
P74 C88 1.812 1_455 S
P74 C94 1.803 1_565 S
P74 C100 1.819 . S
H75 C89 0.941 1_455 S
H76 C90 0.939 . S
H77 C92 0.940 . S
H78 C93 0.940 . S
H79 C95 0.939 . S
H80 C96 0.942 . S
H81 C98 0.940 . S
H82 C99 0.939 . S
H83 C101 0.941 . S
H84 C105 0.939 . S
O85 P74 1.490 . S
H86 C102 0.939 . S
H87 C104 0.940 . S
C88 P74 1.812 1_655 S
C88 C89 1.389 . S
C88 C93 1.391 . S
C89 H75 0.941 1_655 S
C89 C88 1.389 . S
C89 C90 1.397 . S
C90 H76 0.939 . S
C90 C89 1.397 . S
C90 C91 1.378 . S
C91 C90 1.378 . S
C91 C92 1.378 . S
C92 H77 0.940 . S
C92 C91 1.378 . S
C92 C93 1.396 . S
C93 H78 0.940 . S
C93 C88 1.391 . S
C93 C92 1.396 . S
C94 P74 1.803 1_545 S
C94 C95 1.378 . S
C94 C99 1.400 . S
C95 H79 0.939 . S
C95 C94 1.378 . S
C95 C96 1.361 . S
C96 H80 0.942 . S
C96 C95 1.361 . S
C96 C97 1.369 . S
C97 C96 1.369 . S
C97 C98 1.404 . S
C98 H81 0.940 . S
C98 C97 1.404 . S
C98 C99 1.389 . S
C99 H82 0.939 . S
C99 C94 1.400 . S
C99 C98 1.389 . S
C100 P74 1.819 . S
C100 C101 1.391 . S
C100 C105 1.391 1_565 S
C101 H83 0.941 . S
C101 C100 1.391 . S
C101 C102 1.396 . S
C102 H86 0.939 . S
C102 C101 1.396 . S
C102 C103 1.397 1_565 S
C103 C102 1.397 1_545 S
C103 C104 1.385 . S
C104 H87 0.940 . S
C104 C103 1.385 . S
C104 C105 1.388 . S
C105 H84 0.939 . S
C105 C100 1.391 1_545 S
C105 C104 1.388 . S
P106 O117 1.490 . S
P106 C120 1.812 . S
P106 C126 1.803 . S
P106 C132 1.819 . S
H107 C121 0.941 1_554 S
H108 C122 0.939 . S
H109 C124 0.940 . S
H110 C125 0.940 . S
H111 C127 0.939 . S
H112 C128 0.942 . S
H113 C130 0.940 1_554 S
H114 C131 0.939 . S
H115 C133 0.941 . S
H116 C137 0.939 . S
O117 P106 1.490 . S
H118 C134 0.939 . S
H119 C136 0.940 . S
C120 P106 1.812 . S
C120 C121 1.389 . S
C120 C125 1.391 . S
C121 H107 0.941 1_556 S
C121 C120 1.389 . S
C121 C122 1.397 1_556 S
C122 H108 0.939 . S
C122 C121 1.397 1_554 S
C122 C123 1.378 1_554 S
C123 C122 1.378 1_556 S
C123 C124 1.378 . S
C124 H109 0.940 . S
C124 C123 1.378 . S
C124 C125 1.396 . S
C125 H110 0.940 . S
C125 C120 1.391 . S
C125 C124 1.396 . S
C126 P106 1.803 . S
C126 C127 1.378 . S
C126 C131 1.400 . S
C127 H111 0.939 . S
C127 C126 1.378 . S
C127 C128 1.361 . S
C128 H112 0.942 . S
C128 C127 1.361 . S
C128 C129 1.369 1_556 S
C129 C128 1.369 1_554 S
C129 C130 1.404 1_554 S
C130 H113 0.940 1_556 S
C130 C129 1.404 1_556 S
C130 C131 1.389 . S
C131 H114 0.939 . S
C131 C126 1.400 . S
C131 C130 1.389 . S
C132 P106 1.819 . S
C132 C133 1.391 . S
C132 C137 1.391 . S
C133 H115 0.941 . S
C133 C132 1.391 . S
C133 C134 1.396 . S
C134 H118 0.939 . S
C134 C133 1.396 . S
C134 C135 1.397 . S
C135 C134 1.397 . S
C135 C136 1.385 . S
C136 H119 0.940 . S
C136 C135 1.385 . S
C136 C137 1.388 . S
C137 H116 0.939 . S
C137 C132 1.391 . S
C137 C136 1.388 . S
P138 O149 1.490 . S
P138 C152 1.812 . S
P138 C158 1.803 . S
P138 C164 1.819 . S
H139 C153 0.941 . S
H140 C154 0.939 1_556 S
H141 C156 0.940 . S
H142 C157 0.940 . S
H143 C159 0.939 . S
H144 C160 0.942 . S
H145 C162 0.940 . S
H146 C163 0.939 . S
H147 C165 0.941 . S
H148 C169 0.939 . S
O149 P138 1.490 . S
H150 C166 0.939 . S
H151 C168 0.940 . S
C152 P138 1.812 . S
C152 C153 1.389 . S
C152 C157 1.391 . S
C153 H139 0.941 . S
C153 C152 1.389 . S
C153 C154 1.397 . S
C154 H140 0.939 1_554 S
C154 C153 1.397 . S
C154 C155 1.378 . S
C155 C154 1.378 . S
C155 C156 1.378 . S
C156 H141 0.940 . S
C156 C155 1.378 . S
C156 C157 1.396 . S
C157 H142 0.940 . S
C157 C152 1.391 . S
C157 C156 1.396 . S
C158 P138 1.803 . S
C158 C159 1.378 . S
C158 C163 1.400 . S
C159 H143 0.939 . S
C159 C158 1.378 . S
C159 C160 1.361 . S
C160 H144 0.942 . S
C160 C159 1.361 . S
C160 C161 1.369 . S
C161 C160 1.369 . S
C161 C162 1.404 . S
C162 H145 0.940 . S
C162 C161 1.404 . S
C162 C163 1.389 . S
C163 H146 0.939 . S
C163 C158 1.400 . S
C163 C162 1.389 . S
C164 P138 1.819 . S
C164 C165 1.391 . S
C164 C169 1.391 . S
C165 H147 0.941 . S
C165 C164 1.391 . S
C165 C166 1.396 . S
C166 H150 0.939 . S
C166 C165 1.396 . S
C166 C167 1.397 . S
C167 C166 1.397 . S
C167 C168 1.385 . S
C168 H151 0.940 . S
C168 C167 1.385 . S
C168 C169 1.388 . S
C169 H148 0.939 . S
C169 C164 1.391 . S
C169 C168 1.388 . S
C155 C3 1.234 . S
C4 C123 1.448 1_554 S
C19 C161 1.588 . S
C7 C129 1.483 1_556 S
C37 C91 1.234 . S
C28 C59 1.448 . S
C97 C41 1.588 . S
C65 C25 1.483 . S
C20 C71 1.528 1_565 S
C16 C103 1.477 1_665 S
C135 C40 1.528 . S
C24 C167 1.477 . S
