# Generated by pormake.
# Topology anh, (6,3)-cn, num edge types: 1
# Building blocks:
#     Node 0, Type 0, BuildingBlock: PAMTOO_clean_sbu_0, # of connection points: 6
#     Node 1, Type 0, BuildingBlock: PAMTOO_clean_sbu_0, # of connection points: 6
#     Node 2, Type 0, BuildingBlock: PAMTOO_clean_sbu_0, # of connection points: 6
#     Node 3, Type 1, BuildingBlock: BETDAH_clean_linker_0, # of connection points: 3
#     Node 4, Type 1, BuildingBlock: BETDAH_clean_linker_0, # of connection points: 3
#     Node 5, Type 1, BuildingBlock: BETDAH_clean_linker_0, # of connection points: 3
#     Node 6, Type 1, BuildingBlock: BETDAH_clean_linker_0, # of connection points: 3
#     Node 7, Type 1, BuildingBlock: BETDAH_clean_linker_0, # of connection points: 3
#     Node 8, Type 1, BuildingBlock: BETDAH_clean_linker_0, # of connection points: 3
#     Edge 9, Type (0, 1), None
#     Edge 10, Type (0, 1), None
#     Edge 11, Type (0, 1), None
#     Edge 12, Type (0, 1), None
#     Edge 13, Type (0, 1), None
#     Edge 14, Type (0, 1), None
#     Edge 15, Type (0, 1), None
#     Edge 16, Type (0, 1), None
#     Edge 17, Type (0, 1), None
#     Edge 18, Type (0, 1), None
#     Edge 19, Type (0, 1), None
#     Edge 20, Type (0, 1), None
#     Edge 21, Type (0, 1), None
#     Edge 22, Type (0, 1), None
#     Edge 23, Type (0, 1), None
#     Edge 24, Type (0, 1), None
#     Edge 25, Type (0, 1), None
#     Edge 26, Type (0, 1), None
# Relax obj value: 0.413
# Max RMSD: 0.261
# Mean RMSD: 0.146
data_MOF--net-anh--node1-PAMTOO_clean_sbu_0--node2-BETDAH_clean_linker_0--edge1-none
_symmetry_space_group_name_H-M    P1
_symmetry_Int_Tables_number       1
_symmetry_cell_setting            triclinic
loop_
_symmetry_equiv_pos_as_xyz
'x, y, z'
_cell_length_a     13.873438
_cell_length_b     13.313344
_cell_length_c     21.812642
_cell_angle_alpha  93.541981
_cell_angle_beta   93.972492
_cell_angle_gamma 84.096259
loop_
_atom_site_label
_atom_site_type_symbol
_atom_site_fract_x
_atom_site_fract_y
_atom_site_fract_z
_atom_type_partial_charge
Dy0 Dy 1.17633 0.7268 0.13412 0.0
Dy1 Dy 0.20596 0.487 0.13025 0.0
C2 C 0.19397 0.60666 0.00924 0.0
O3 O 1.01942 0.68776 0.14213 0.0
O4 O 1.04409 0.52421 0.10398 0.0
O5 O 1.17302 0.86754 0.09005 0.0
O6 O 1.14758 0.86828 0.18717 0.0
O7 O 1.16525 0.54003 0.22549 0.0
O8 O 0.24331 0.67943 0.22403 0.0
O9 O 0.36424 0.52499 0.13924 0.0
O10 O 0.33913 0.69199 0.11599 0.0
O11 O 0.25452 0.34894 0.17527 0.0
O12 O 1.18327 0.34304 0.08351 0.0
C13 C 0.98324 0.60343 0.1199 0.0
O14 O 1.13795 0.67497 0.03868 0.0
O15 O 0.24326 0.53294 0.03857 0.0
C16 C 0.25806 0.97634 0.15813 0.0
C17 C 0.43462 0.05164 0.20054 0.0
C18 C 0.42824 0.99161 0.14544 0.0
C19 C 0.34102 0.95518 0.12424 0.0
C20 C 0.26279 1.03958 0.21188 0.0
C21 C 0.35005 0.07804 0.23255 0.0
C22 C 1.17314 0.91956 0.1428 0.0
C23 C 0.20649 0.61404 0.25517 0.0
C24 C 0.39944 0.6093 0.12557 0.0
C25 C 1.13354 0.23667 0.1537 0.0
C26 C 0.9612 0.1575 0.17767 0.0
C27 C 0.99988 0.22902 0.21943 0.0
C28 C 1.08585 0.26848 0.20759 0.0
C29 C 1.09698 0.16094 0.11392 0.0
C30 C 1.01139 0.12132 0.12598 0.0
C31 C 0.20915 0.29418 0.13302 0.0
H32 H 0.49183 0.96757 0.12016 0.0
H33 H 0.34063 0.9054 0.08304 0.0
H34 H 0.19997 0.05619 0.23901 0.0
H35 H 0.35194 0.1256 0.27463 0.0
H36 H 0.96076 0.25885 0.25899 0.0
H37 H 1.11137 0.32824 0.23857 0.0
H38 H 1.13187 0.13625 0.07189 0.0
H39 H 0.98146 0.06677 0.09294 0.0
Dy40 Dy 0.56907 0.10664 0.50579 0.0
Dy41 Dy 0.80206 0.06567 0.50272 0.0
C42 C 0.70055 0.09015 0.62814 0.0
O43 O 0.61227 0.26148 0.49045 0.0
O44 O 0.77005 0.23127 0.52859 0.0
O45 O 0.43781 0.11173 0.55384 0.0
O46 O 0.42988 0.14306 0.45708 0.0
O47 O 0.74503 0.12023 0.4108 0.0
O48 O 0.60785 1.04364 0.41343 0.0
O49 O 0.75327 0.91039 0.48308 0.0
O50 O 0.60144 0.93978 0.52056 0.0
O51 O 0.93024 1.01568 0.45388 0.0
O52 O 0.9439 0.07628 0.54832 0.0
C53 C 0.69494 0.29462 0.51177 0.0
O54 O 0.63137 0.14711 0.59951 0.0
O55 O 0.76315 1.03041 0.59686 0.0
C56 C 0.32833 1.02697 0.48689 0.0
C57 C 0.25734 0.84371 0.44156 0.0
C58 C 0.31747 0.84786 0.49611 0.0
C59 C 0.35135 0.93835 0.51886 0.0
C60 C 0.26561 1.02442 0.43367 0.0
C61 C 0.22888 0.9341 0.41184 0.0
C62 C 0.38394 0.1146 0.5023 0.0
C63 C 0.66954 0.08343 0.382 0.0
C64 C 0.67388 0.87741 0.50058 0.0
C65 C 1.04821 0.13013 0.48018 0.0
C66 C 1.14225 0.30044 0.45954 0.0
C67 C 1.07258 0.26719 0.41565 0.0
C68 C 1.02558 0.1823 0.42588 0.0
C69 C 1.12063 0.16214 0.52278 0.0
C70 C 1.16722 0.24693 0.51254 0.0
C71 C 0.98746 0.0534 0.49748 0.0
H72 H 0.34351 0.78034 0.51982 0.0
H73 H 0.40095 0.93677 0.55947 0.0
H74 H 0.24793 0.0914 0.40773 0.0
H75 H 1.18091 0.93474 0.37053 0.0
H76 H 1.05147 0.30923 0.37505 0.0
H77 H 0.96851 0.16068 0.39276 0.0
H78 H 1.1385 0.12384 0.56512 0.0
H79 H 0.22022 0.27292 0.54722 0.0
Dy80 Dy 0.86655 0.51269 0.80892 0.0
Dy81 Dy 0.64009 0.57355 0.80233 0.0
C82 C 0.74978 0.5413 0.68525 0.0
O83 O 0.85474 0.68426 0.80484 0.0
O84 O 0.69352 0.72587 0.82244 0.0
O85 O 0.99601 0.51687 0.76076 0.0
O86 O 1.00074 0.43586 0.84536 0.0
O87 O 0.67553 0.54865 0.90331 0.0
O88 O 0.83693 0.57246 0.90415 0.0
O89 O 0.66096 0.40337 0.78264 0.0
O90 O 0.81018 0.36797 0.83089 0.0
O91 O 0.50028 0.62953 0.83421 0.0
O92 O 0.51305 0.57245 0.73917 0.0
C93 C 0.78047 0.75224 0.81539 0.0
O94 O 0.80115 0.4718 0.7161 0.0
O95 O 0.70152 0.61407 0.71623 0.0
C96 C 1.12118 0.38016 0.77313 0.0
C97 C 0.29313 0.44693 0.80857 0.0
C98 C 0.26585 0.44646 0.74505 0.0
C99 C 1.1736 0.41571 0.72711 0.0
C100 C 1.17872 0.32686 0.81853 0.0
C101 C 0.27072 0.35879 0.83526 0.0
C102 C 1.04738 0.45683 0.79844 0.0
C103 C 0.7583 0.56615 0.93362 0.0
C104 C 0.72998 0.337 0.80468 0.0
C105 C 0.40095 0.7159 0.75698 0.0
C106 C 0.23492 0.84906 0.74419 0.0
C107 C 0.31004 0.87397 0.78688 0.0
C108 C 0.3917 0.80468 0.79528 0.0
C109 C 0.34061 0.71008 0.70263 0.0
C110 C 0.25866 0.78006 0.69507 0.0
C111 C 0.45866 0.62416 0.77866 0.0
H112 H 0.29779 0.49474 0.71565 0.0
H113 H 1.13659 0.44294 0.68507 0.0
H114 H 1.14605 0.28203 0.84974 0.0
H115 H 0.30761 0.33449 0.87795 0.0
H116 H 0.29595 0.9325 0.82286 0.0
H117 H 0.44046 0.81487 0.83566 0.0
H118 H 0.34912 0.64502 0.67042 0.0
H119 H 0.20389 0.76382 0.65893 0.0
H120 H 0.50041 0.05746 0.31996 0.0
H121 H 0.79398 0.11657 0.29362 0.0
H122 H 0.58606 0.10035 0.13889 0.0
C123 C 0.55493 0.07461 0.29 0.0
C124 C 0.53106 0.07801 0.22671 0.0
C125 C 0.64899 0.08957 0.31486 0.0
C126 C 0.72073 0.10715 0.2752 0.0
C127 C 0.69729 0.10918 0.21131 0.0
C128 C 0.60275 0.097 0.18805 0.0
N129 N 0.76625 0.11925 0.16776 0.0
C130 C 0.86288 0.13475 0.1806 0.0
H131 H 0.75143 0.36245 0.62302 0.0
H132 H 0.69998 0.68185 0.60018 0.0
H133 H 0.64482 0.46974 0.44679 0.0
C134 C 0.72956 0.42461 0.59363 0.0
C135 C 0.69761 0.40326 0.53243 0.0
C136 C 0.72771 0.52417 0.61864 0.0
C137 C 0.70001 0.60495 0.58076 0.0
C138 C 0.67278 0.58635 0.51803 0.0
C139 C 0.6684 0.48485 0.49455 0.0
N140 N 0.64909 0.66757 0.47791 0.0
C141 C 0.66248 0.76961 0.49274 0.0
H142 H 0.30415 0.48326 0.93397 0.0
H143 H 1.10421 0.75303 0.9379 0.0
H144 H 0.20574 0.63009 0.76703 0.0
C145 C 0.26299 0.54394 0.90987 0.0
C146 C 0.26263 0.54395 0.84533 0.0
C147 C 0.20274 0.61566 0.94305 0.0
C148 C 1.14923 0.69556 0.91271 0.0
C149 C 1.15512 0.70384 0.8499 0.0
C150 C 0.21039 0.62736 0.81642 0.0
N151 N 1.1063 0.7896 0.82084 0.0
C152 C 1.15047 0.82851 0.77362 0.0
H153 H 0.2353 0.78566 0.32032 0.0
H154 H 0.19142 0.47437 0.34159 0.0
H155 H 0.22688 0.67605 0.50082 0.0
C156 C 0.2251 0.72549 0.34973 0.0
C157 C 0.2317 0.74414 0.41378 0.0
C158 C 0.20903 0.62916 0.32302 0.0
C159 C 0.20056 0.54966 0.36146 0.0
C160 C 0.20971 0.56746 0.42589 0.0
C161 C 0.22252 0.66428 0.45115 0.0
N162 N 0.21365 0.48978 0.46768 0.0
C163 C 1.17951 0.39611 0.45557 0.0
H164 H 0.67702 0.2664 0.69244 0.0
H165 H 0.75899 0.9495 0.7125 0.0
H166 H 0.78713 0.16213 0.86891 0.0
C167 C 0.70254 0.20505 0.72174 0.0
C168 C 0.72954 0.22755 0.78373 0.0
C169 C 0.71661 0.10615 0.69545 0.0
C170 C 0.74986 1.02592 0.73286 0.0
C171 C 0.77191 1.04457 0.79628 0.0
C172 C 0.76541 0.14644 0.8209 0.0
N173 N 0.80371 0.96355 0.83564 0.0
C174 C 0.79432 0.86008 0.82187 0.0
H175 H 0.92279 0.57582 0.00446 0.0
H176 H 0.6122 0.58677 0.01605 0.0
H177 H 0.8009 0.62935 0.18048 0.0
C178 C 0.85985 0.58557 0.03186 0.0
C179 C 0.87592 0.6037 0.09553 0.0
C180 C 0.76622 0.58057 0.00245 0.0
C181 C 0.68395 0.59115 0.03837 0.0
C182 C 0.69409 0.6088 0.10299 0.0
C183 C 0.79133 0.61612 0.13107 0.0
N184 N 0.61016 0.61991 0.14086 0.0
C185 C 0.50827 0.61319 0.12598 0.0
loop_
_geom_bond_atom_site_label_1
_geom_bond_atom_site_label_2
_geom_bond_distance
_geom_bond_site_symmetry_2
_ccdc_geom_bond_type
Dy0 O3 2.307 1_455 S
Dy0 O5 2.395 . S
Dy0 O6 2.379 . S
Dy0 O8 2.339 . S
Dy0 O10 2.298 . S
Dy0 O14 2.275 . S
Dy0 C22 2.738 . S
Dy1 O4 2.298 . S
Dy1 O7 2.275 1_655 S
Dy1 O9 2.307 1_655 S
Dy1 O11 2.395 . S
Dy1 O12 2.379 . S
Dy1 O15 2.339 . S
Dy1 C31 2.738 . S
C2 O14 1.254 . S
C2 O15 1.256 1_455 S
O3 Dy0 2.307 1_655 S
O3 C13 1.266 . S
O4 Dy1 2.298 . S
O4 C13 1.236 . S
O5 Dy0 2.395 . S
O5 C22 1.255 . S
O6 Dy0 2.379 . S
O6 C22 1.249 . S
O7 Dy1 2.275 1_455 S
O7 C23 1.254 . S
O8 Dy0 2.339 . S
O8 C23 1.257 . S
O9 Dy1 2.307 1_455 S
O9 C24 1.266 . S
O10 Dy0 2.298 . S
O10 C24 1.236 . S
O11 Dy1 2.395 . S
O11 C31 1.255 . S
O12 Dy1 2.379 . S
O12 C31 1.249 . S
C13 O3 1.266 . S
C13 O4 1.236 . S
O14 Dy0 2.275 . S
O14 C2 1.254 . S
O15 Dy1 2.339 . S
O15 C2 1.256 1_655 S
C16 C19 1.344 . S
C16 C20 1.328 . S
C16 C22 1.516 . S
C17 C18 1.304 1_545 S
C17 C21 1.323 . S
C18 C17 1.304 1_565 S
C18 C19 1.371 . S
C18 H32 0.930 . S
C19 C16 1.344 . S
C19 C18 1.371 . S
C19 H33 0.931 . S
C20 C16 1.328 . S
C20 C21 1.433 1_565 S
C20 H34 0.931 . S
C21 C17 1.323 . S
C21 C20 1.433 1_545 S
C21 H35 0.933 . S
C22 Dy0 2.738 . S
C22 O5 1.255 . S
C22 O6 1.249 . S
C22 C16 1.516 . S
C23 O7 1.254 . S
C23 O8 1.257 . S
C24 O9 1.266 . S
C24 O10 1.236 . S
C25 C28 1.344 . S
C25 C29 1.328 . S
C25 C31 1.516 . S
C26 C27 1.304 . S
C26 C30 1.323 . S
C27 C26 1.304 . S
C27 C28 1.371 . S
C27 H36 0.930 . S
C28 C25 1.344 . S
C28 C27 1.371 . S
C28 H37 0.931 . S
C29 C25 1.328 . S
C29 C30 1.433 . S
C29 H38 0.931 . S
C30 C26 1.323 . S
C30 C29 1.433 . S
C30 H39 0.933 . S
C31 Dy1 2.738 . S
C31 O11 1.255 . S
C31 O12 1.249 . S
C31 C25 1.516 . S
H32 C18 0.930 . S
H33 C19 0.931 . S
H34 C20 0.931 . S
H35 C21 0.933 . S
H36 C27 0.930 . S
H37 C28 0.931 . S
H38 C29 0.931 . S
H39 C30 0.933 . S
Dy40 O43 2.307 . S
Dy40 O45 2.395 1_545 S
Dy40 O46 2.379 1_545 S
Dy40 O48 2.339 . S
Dy40 O50 2.298 1_545 S
Dy40 O54 2.275 . S
Dy40 C62 2.738 1_545 S
Dy41 O44 2.298 . S
Dy41 O47 2.275 . S
Dy41 O49 2.307 1_545 S
Dy41 O51 2.395 . S
Dy41 O52 2.379 . S
Dy41 O55 2.339 . S
Dy41 C71 2.738 . S
C42 O54 1.254 . S
C42 O55 1.257 . S
O43 Dy40 2.307 . S
O43 C53 1.266 . S
O44 Dy41 2.298 . S
O44 C53 1.236 . S
O45 Dy40 2.395 1_565 S
O45 C62 1.255 . S
O46 Dy40 2.379 1_565 S
O46 C62 1.249 . S
O47 Dy41 2.275 . S
O47 C63 1.254 . S
O48 Dy40 2.339 . S
O48 C63 1.257 . S
O49 Dy41 2.307 1_565 S
O49 C64 1.266 . S
O50 Dy40 2.298 1_565 S
O50 C64 1.236 . S
O51 Dy41 2.395 . S
O51 C71 1.255 . S
O52 Dy41 2.379 . S
O52 C71 1.249 . S
C53 O43 1.266 . S
C53 O44 1.236 . S
O54 Dy40 2.275 . S
O54 C42 1.254 . S
O55 Dy41 2.339 . S
O55 C42 1.257 . S
C56 C59 1.344 . S
C56 C60 1.328 . S
C56 C62 1.516 . S
C57 C58 1.304 . S
C57 C61 1.323 . S
C58 C57 1.304 . S
C58 C59 1.371 . S
C58 H72 0.930 . S
C59 C56 1.344 . S
C59 C58 1.371 . S
C59 H73 0.931 . S
C60 C56 1.328 . S
C60 C61 1.433 . S
C60 H74 0.931 . S
C61 C57 1.323 . S
C61 C60 1.433 . S
C61 H75 0.933 . S
C62 Dy40 2.738 1_565 S
C62 O45 1.255 . S
C62 O46 1.249 . S
C62 C56 1.516 . S
C63 O47 1.254 . S
C63 O48 1.257 . S
C64 O49 1.266 . S
C64 O50 1.236 . S
C65 C68 1.344 . S
C65 C69 1.328 . S
C65 C71 1.516 . S
C66 C67 1.304 . S
C66 C70 1.323 . S
C67 C66 1.304 . S
C67 C68 1.371 . S
C67 H76 0.930 . S
C68 C65 1.344 . S
C68 C67 1.371 . S
C68 H77 0.931 . S
C69 C65 1.328 . S
C69 C70 1.433 . S
C69 H78 0.931 . S
C70 C66 1.323 . S
C70 C69 1.433 . S
C70 H79 0.933 . S
C71 Dy41 2.738 . S
C71 O51 1.255 . S
C71 O52 1.249 . S
C71 C65 1.516 . S
H72 C58 0.930 . S
H73 C59 0.931 . S
H74 C60 0.931 . S
H75 C61 0.933 . S
H76 C67 0.930 . S
H77 C68 0.931 . S
H78 C69 0.931 . S
H79 C70 0.933 . S
Dy80 O83 2.307 . S
Dy80 O85 2.395 . S
Dy80 O86 2.379 . S
Dy80 O88 2.339 . S
Dy80 O90 2.298 . S
Dy80 O94 2.275 . S
Dy80 C102 2.738 . S
Dy81 O84 2.298 . S
Dy81 O87 2.275 . S
Dy81 O89 2.307 . S
Dy81 O91 2.395 . S
Dy81 O92 2.379 . S
Dy81 O95 2.339 . S
Dy81 C111 2.738 . S
C82 O94 1.254 . S
C82 O95 1.257 . S
O83 Dy80 2.307 . S
O83 C93 1.266 . S
O84 Dy81 2.298 . S
O84 C93 1.236 . S
O85 Dy80 2.395 . S
O85 C102 1.255 . S
O86 Dy80 2.379 . S
O86 C102 1.249 . S
O87 Dy81 2.275 . S
O87 C103 1.254 . S
O88 Dy80 2.339 . S
O88 C103 1.257 . S
O89 Dy81 2.307 . S
O89 C104 1.266 . S
O90 Dy80 2.298 . S
O90 C104 1.236 . S
O91 Dy81 2.395 . S
O91 C111 1.255 . S
O92 Dy81 2.379 . S
O92 C111 1.249 . S
C93 O83 1.266 . S
C93 O84 1.236 . S
O94 Dy80 2.275 . S
O94 C82 1.254 . S
O95 Dy81 2.339 . S
O95 C82 1.257 . S
C96 C99 1.344 . S
C96 C100 1.328 . S
C96 C102 1.516 . S
C97 C98 1.304 . S
C97 C101 1.323 . S
C98 C97 1.304 . S
C98 C99 1.371 . S
C98 H112 0.930 . S
C99 C96 1.344 . S
C99 C98 1.371 . S
C99 H113 0.931 . S
C100 C96 1.328 . S
C100 C101 1.433 . S
C100 H114 0.931 . S
C101 C97 1.323 . S
C101 C100 1.433 . S
C101 H115 0.933 . S
C102 Dy80 2.738 . S
C102 O85 1.255 . S
C102 O86 1.249 . S
C102 C96 1.516 . S
C103 O87 1.254 . S
C103 O88 1.257 . S
C104 O89 1.266 . S
C104 O90 1.236 . S
C105 C108 1.344 . S
C105 C109 1.328 . S
C105 C111 1.516 . S
C106 C107 1.304 . S
C106 C110 1.323 . S
C107 C106 1.304 . S
C107 C108 1.371 . S
C107 H116 0.930 . S
C108 C105 1.344 . S
C108 C107 1.371 . S
C108 H117 0.931 . S
C109 C105 1.328 . S
C109 C110 1.433 . S
C109 H118 0.931 . S
C110 C106 1.323 . S
C110 C109 1.433 . S
C110 H119 0.933 . S
C111 Dy81 2.738 . S
C111 O91 1.255 . S
C111 O92 1.249 . S
C111 C105 1.516 . S
H112 C98 0.930 . S
H113 C99 0.931 . S
H114 C100 0.931 . S
H115 C101 0.933 . S
H116 C107 0.930 . S
H117 C108 0.931 . S
H118 C109 0.931 . S
H119 C110 0.933 . S
H120 C123 0.929 . S
H121 C126 0.929 . S
H122 C128 0.930 1_565 S
C123 H120 0.929 . S
C123 C124 1.398 . S
C123 C125 1.396 1_565 S
C124 C123 1.398 . S
C124 C128 1.407 1_565 S
C125 C123 1.396 1_545 S
C125 C126 1.394 . S
C126 H121 0.929 . S
C126 C125 1.394 . S
C126 C127 1.382 . S
C127 C126 1.382 . S
C127 C128 1.392 . S
C127 N129 1.420 . S
C128 H122 0.930 1_545 S
C128 C124 1.407 1_545 S
C128 C127 1.392 . S
N129 C127 1.420 . S
N129 C130 1.244 . S
C130 N129 1.244 . S
H131 C134 0.929 . S
H132 C137 0.929 . S
H133 C139 0.930 . S
C134 H131 0.929 . S
C134 C135 1.398 . S
C134 C136 1.396 . S
C135 C134 1.398 . S
C135 C139 1.407 . S
C136 C134 1.396 . S
C136 C137 1.394 . S
C137 H132 0.929 . S
C137 C136 1.394 . S
C137 C138 1.382 . S
C138 C137 1.382 . S
C138 C139 1.392 . S
C138 N140 1.420 . S
C139 H133 0.930 . S
C139 C135 1.407 . S
C139 C138 1.392 . S
N140 C138 1.420 . S
N140 C141 1.244 . S
C141 N140 1.244 . S
H142 C145 0.929 1_554 S
H143 C148 0.929 1_554 S
H144 C150 0.930 . S
C145 H142 0.929 1_556 S
C145 C146 1.398 . S
C145 C147 1.396 1_656 S
C146 C145 1.398 . S
C146 C150 1.407 . S
C147 C145 1.396 1_454 S
C147 C148 1.394 1_554 S
C148 H143 0.929 1_556 S
C148 C147 1.394 1_556 S
C148 C149 1.382 . S
C149 C148 1.382 . S
C149 C150 1.392 1_455 S
C149 N151 1.420 . S
C150 H144 0.930 . S
C150 C146 1.407 . S
C150 C149 1.392 1_655 S
N151 C149 1.420 . S
N151 C152 1.244 . S
C152 N151 1.244 . S
H153 C156 0.929 . S
H154 C159 0.929 . S
H155 C161 0.930 . S
C156 H153 0.929 . S
C156 C157 1.398 . S
C156 C158 1.396 . S
C157 C156 1.398 . S
C157 C161 1.407 . S
C158 C156 1.396 . S
C158 C159 1.394 1_455 S
C159 H154 0.929 . S
C159 C158 1.394 1_655 S
C159 C160 1.382 1_655 S
C160 C159 1.382 1_455 S
C160 C161 1.392 . S
C160 N162 1.420 1_455 S
C161 H155 0.930 . S
C161 C157 1.407 . S
C161 C160 1.392 . S
N162 C160 1.420 1_655 S
N162 C163 1.244 . S
C163 N162 1.244 . S
H164 C167 0.929 . S
H165 C170 0.929 . S
H166 C172 0.930 . S
C167 H164 0.929 . S
C167 C168 1.398 . S
C167 C169 1.396 . S
C168 C167 1.398 . S
C168 C172 1.407 . S
C169 C167 1.396 . S
C169 C170 1.394 1_545 S
C170 H165 0.929 . S
C170 C169 1.394 1_565 S
C170 C171 1.382 . S
C171 C170 1.382 . S
C171 C172 1.392 1_565 S
C171 N173 1.420 . S
C172 H166 0.930 . S
C172 C168 1.407 . S
C172 C171 1.392 1_545 S
N173 C171 1.420 . S
N173 C174 1.244 . S
C174 N173 1.244 . S
H175 C178 0.929 . S
H176 C181 0.929 . S
H177 C183 0.930 . S
C178 H175 0.929 . S
C178 C179 1.398 . S
C178 C180 1.396 . S
C179 C178 1.398 . S
C179 C183 1.407 . S
C180 C178 1.396 . S
C180 C181 1.394 . S
C181 H176 0.929 . S
C181 C180 1.394 . S
C181 C182 1.382 . S
C182 C181 1.382 . S
C182 C183 1.392 . S
C182 N184 1.420 . S
C183 H177 0.930 . S
C183 C179 1.407 . S
C183 C182 1.392 . S
N184 C182 1.420 . S
N184 C185 1.244 . S
C185 N184 1.244 . S
C24 C185 4.740 . S
C66 C163 2.404 . S
C93 C174 2.447 . S
C13 C179 4.843 . S
C157 C57 2.149 . S
C168 C104 2.490 . S
C64 C141 2.434 . S
C97 C146 3.913 . S
C17 C124 3.034 1_545 S
C135 C53 2.303 . S
C152 C106 3.139 . S
C26 C130 2.827 . S
C147 C2 0.493 . S
C63 C125 1.289 . S
C82 C136 1.115 . S
C169 C42 1.205 . S
C180 C103 2.004 1_554 S
C23 C158 1.502 . S
