# Generated by pormake.
# Topology pts, (4,4)-cn, num edge types: 1
# Building blocks:
#     Node 0, Type 0, BuildingBlock: MUDLON_clean_linker_0, # of connection points: 4
#     Node 1, Type 0, BuildingBlock: MUDLON_clean_linker_0, # of connection points: 4
#     Node 2, Type 1, BuildingBlock: QUQFOY_clean_sbu_1, # of connection points: 4
#     Node 3, Type 1, BuildingBlock: QUQFOY_clean_sbu_1, # of connection points: 4
#     Edge 4, Type (0, 1), BuildingBlock: AJUNOK_clean_linker_0, # of connection points: 2
#     Edge 5, Type (0, 1), BuildingBlock: AJUNOK_clean_linker_0, # of connection points: 2
#     Edge 6, Type (0, 1), BuildingBlock: AJUNOK_clean_linker_0, # of connection points: 2
#     Edge 7, Type (0, 1), BuildingBlock: AJUNOK_clean_linker_0, # of connection points: 2
#     Edge 8, Type (0, 1), BuildingBlock: AJUNOK_clean_linker_0, # of connection points: 2
#     Edge 9, Type (0, 1), BuildingBlock: AJUNOK_clean_linker_0, # of connection points: 2
#     Edge 10, Type (0, 1), BuildingBlock: AJUNOK_clean_linker_0, # of connection points: 2
#     Edge 11, Type (0, 1), BuildingBlock: AJUNOK_clean_linker_0, # of connection points: 2
# Relax obj value: 0.110
# Max RMSD: 0.273
# Mean RMSD: 0.180
data_MOF--net-pts--node1-QUQFOY_clean_sbu_1--node2-MUDLON_clean_linker_0--edge1-AJUNOK_clean_linker_0
_symmetry_space_group_name_H-M    P1
_symmetry_Int_Tables_number       1
_symmetry_cell_setting            triclinic
loop_
_symmetry_equiv_pos_as_xyz
'x, y, z'
_cell_length_a     26.279399
_cell_length_b     28.070045
_cell_length_c     37.661248
_cell_angle_alpha  89.95988
_cell_angle_beta   89.978022
_cell_angle_gamma 89.720396
loop_
_atom_site_label
_atom_site_type_symbol
_atom_site_fract_x
_atom_site_fract_y
_atom_site_fract_z
_atom_type_partial_charge
H0 H 0.6739 0.13714 0.09001 0.0
N1 N 0.6682 0.0777 0.03533 0.0
H2 H 0.72282 0.12682 0.14503 0.0
H3 H 0.7273 1.00042 0.05303 0.0
H4 H 0.77701 0.99045 0.10728 0.0
H5 H 0.66638 0.99614 0.99435 0.0
H6 H 0.71428 0.98186 0.94015 0.0
H7 H 0.73212 0.13621 1.00288 0.0
H8 H 0.78287 0.12085 0.94956 0.0
H9 H 0.58682 0.12777 0.01613 0.0
H10 H 0.63254 0.99076 0.0574 0.0
H11 H 0.49774 0.10218 0.0165 0.0
H12 H 0.5441 0.9654 0.0585 0.0
H13 H 0.2438 0.04359 0.05368 0.0
H14 H 0.19295 0.05102 0.10767 0.0
H15 H 0.25743 0.91931 0.14696 0.0
H16 H 0.3065 0.91093 0.09191 0.0
H17 H 0.24308 0.90958 0.00401 0.0
H18 H 0.19115 0.92467 0.9512 0.0
H19 H 0.25748 0.06463 0.94161 0.0
H20 H 0.30661 0.05055 0.99532 0.0
H21 H 0.34153 0.05571 0.05833 0.0
H22 H 0.42997 0.0818 0.05903 0.0
H23 H 0.47681 0.94593 0.01575 0.0
N24 N 0.30658 0.96879 0.03608 0.0
H25 H 0.38801 0.91975 0.01577 0.0
C26 C 0.69718 0.06993 0.06736 0.0
C27 C 0.69614 0.10496 0.09383 0.0
C28 C 0.72398 0.09899 0.12513 0.0
C29 C 0.75325 0.05762 0.13058 0.0
C30 C 0.75389 0.02223 0.10418 0.0
C31 C 0.72596 0.02818 0.07292 0.0
C32 C 0.69523 0.06778 1.00271 0.0
C33 C 0.69099 0.02399 0.98468 0.0
C34 C 0.71902 1.01551 0.95376 0.0
C35 C 0.75288 0.04997 0.94073 0.0
C36 C 0.75676 0.09372 0.95868 0.0
C37 C 0.7281 0.10249 0.98923 0.0
C38 C 0.61626 0.06151 0.03681 0.0
C39 C 0.57753 0.09237 0.02548 0.0
C40 C 0.52682 0.07777 0.02588 0.0
C41 C 0.514 0.03178 0.03755 0.0
C42 C 0.55287 1.00086 0.04901 0.0
C43 C 0.60351 1.01553 0.04868 0.0
C44 C 0.27806 0.97589 0.06841 0.0
C45 C 0.2468 1.01611 0.07373 0.0
C46 C 0.21812 0.02059 0.1048 0.0
C47 C 0.22053 0.98532 0.13129 0.0
C48 C 0.25367 0.94637 0.12661 0.0
C49 C 0.28189 0.94164 0.09536 0.0
C50 C 0.27896 0.9785 1.00369 0.0
C51 C 0.24637 0.94344 0.99042 0.0
C52 C 0.21702 0.95206 0.96017 0.0
C53 C 0.21992 0.99601 0.94235 0.0
C54 C 0.25351 0.03081 0.95515 0.0
C55 C 0.28224 0.02246 0.98576 0.0
C56 C 0.35832 0.98547 0.03715 0.0
C57 C 0.37078 0.03139 0.04921 0.0
C58 C 0.42133 0.04644 0.04933 0.0
C59 C 0.46031 1.01589 0.03748 0.0
C60 C 0.44768 0.97003 0.02548 0.0
C61 C 0.39712 0.95509 0.0253 0.0
H62 H 0.93531 0.73356 0.56128 0.0
N63 N 0.0259 0.69789 0.53626 0.0
H64 H 0.92407 0.78552 0.61282 0.0
H65 H 0.0963 0.72469 0.58254 0.0
H66 H 0.0853 0.7786 0.63348 0.0
H67 H 0.09294 0.75175 0.50265 0.0
H68 H 0.07743 0.8055 0.45242 0.0
H69 H 0.93672 0.70607 0.49893 0.0
H70 H 0.92082 0.76 0.44891 0.0
H71 H 0.93547 0.65348 0.55242 0.0
H72 H 0.08994 0.62853 0.51855 0.0
H73 H 0.91946 0.56833 0.55188 0.0
H74 H 0.07371 0.54276 0.51654 0.0
H75 H 0.88739 0.33501 0.58831 0.0
H76 H 0.89908 0.28442 0.6409 0.0
H77 H 0.05129 0.24975 0.60611 0.0
H78 H 0.0397 0.30068 0.55391 0.0
H79 H 0.03821 0.34179 0.49399 0.0
H80 H 0.0525 0.28808 0.44365 0.0
H81 H 0.89882 0.2361 0.45383 0.0
H82 H 0.88497 0.28963 0.50439 0.0
H83 H 0.89056 0.41724 0.51424 0.0
H84 H 0.90814 0.5027 0.51318 0.0
H85 H 0.0596 0.47488 0.55321 0.0
N86 N 0.9518 0.34709 0.53471 0.0
H87 H 0.04213 0.38952 0.55278 0.0
C88 C 0.0167 0.72405 0.56858 0.0
C89 C 0.96806 0.7416 0.5775 0.0
C90 C 0.96166 0.77177 0.60671 0.0
C91 C 0.00385 0.78579 0.62691 0.0
C92 C 0.05228 0.76809 0.61821 0.0
C93 C 0.05851 0.73717 0.58943 0.0
C94 C 0.01634 0.72463 0.50429 0.0
C95 C 0.05554 0.75285 0.4906 0.0
C96 C 0.0465 0.78374 0.46221 0.0
C97 C -0.00205 0.78685 0.44681 0.0
C98 C 0.95877 0.75784 0.46002 0.0
C99 C 0.96782 0.72703 0.48862 0.0
C100 C 0.01434 0.64764 0.53583 0.0
C101 C 0.96607 0.62987 0.54477 0.0
C102 C 0.95676 0.58081 0.54411 0.0
C103 C -0.00474 0.54834 0.53415 0.0
C104 C 0.04334 0.56641 0.52491 0.0
C105 C 0.05265 0.61545 0.5258 0.0
C106 C 0.96238 0.3216 0.56718 0.0
C107 C 0.92355 0.31718 0.59243 0.0
C108 C 0.9303 0.28836 0.62235 0.0
C109 C 0.97611 0.26326 0.62745 0.0
C110 C 0.01557 0.2686 0.60264 0.0
C111 C 0.00898 0.29783 0.57288 0.0
C112 C 0.96015 0.31999 0.50271 0.0
C113 C 0.00734 0.31946 0.48505 0.0
C114 C 0.01547 0.28875 0.45629 0.0
C115 C 0.97668 0.25803 0.44482 0.0
C116 C 0.92944 0.25921 0.46224 0.0
C117 C 0.92132 0.28995 0.49083 0.0
C118 C 0.96464 0.39701 0.53381 0.0
C119 C 0.92759 0.42973 0.52261 0.0
C120 C 0.93765 0.47859 0.52233 0.0
C121 C 0.98519 0.49599 0.53344 0.0
C122 C 0.02272 0.46292 0.54415 0.0
C123 C 0.01266 0.41394 0.5442 0.0
O124 O 0.91037 0.99447 0.25697 0.0
Cd125 Cd 0.97653 0.97536 0.28285 0.0
Cd126 Cd -0.00425 0.06952 0.28072 0.0
O127 O 0.93059 0.06998 0.25023 0.0
O128 O 0.96644 0.90832 0.29886 0.0
O129 O 0.98192 0.96751 0.33584 0.0
C130 C 0.97392 0.9226 0.33093 0.0
C131 C -0.00151 0.12266 0.32846 0.0
C132 C 0.90063 0.03546 0.24427 0.0
C133 C 0.07102 1.007 0.24401 0.0
O134 O 0.06164 0.04897 0.25498 0.0
O135 O 0.04116 0.97314 0.25189 0.0
O136 O 0.00559 0.13675 0.29626 0.0
O137 O 0.99084 0.07773 0.33365 0.0
O138 O 0.92091 0.06437 0.81772 0.0
Cd139 Cd 0.98836 0.07186 0.79051 0.0
Cd140 Cd 0.9857 0.97496 0.79014 0.0
O141 O 0.91928 0.98587 0.81834 0.0
O142 O 0.98948 0.14048 0.77685 0.0
O143 O 0.98978 0.08215 0.73756 0.0
C144 C 0.9894 0.12735 0.74409 0.0
C145 C 0.9859 0.92184 0.74244 0.0
C146 C 0.90003 0.02571 0.82728 0.0
C147 C 0.07235 0.02033 0.82908 0.0
O148 O 0.05186 0.98175 0.81891 0.0
O149 O 0.05349 0.06033 0.82003 0.0
O150 O 0.98291 0.90706 0.77477 0.0
O151 O 0.98857 0.96723 0.73703 0.0
C152 C 0.18101 0.03162 0.1812 0.0
C153 C 0.18659 0.98833 0.16278 0.0
C154 C 0.14533 0.03665 0.20865 0.0
C155 C 0.11366 0.9986 0.21874 0.0
H156 H 0.20375 0.06218 0.17387 0.0
H157 H 0.14156 0.07116 0.22125 0.0
S158 S 0.11494 0.87697 0.17965 0.0
N159 N 0.15855 0.90631 0.15708 0.0
N160 N 0.09236 0.91518 0.20904 0.0
C161 C 0.12046 0.95445 0.20146 0.0
C162 C 0.15665 0.94947 0.17341 0.0
C163 C -0.0053 0.18193 0.65165 0.0
C164 C 0.98175 0.2299 0.65777 0.0
C165 C -0.00266 0.14905 0.6797 0.0
C166 C 0.9878 0.16309 0.71498 0.0
H167 H 0.00171 0.16948 0.62486 0.0
H168 H 0.00679 0.11235 0.67361 0.0
S169 S 0.95466 0.28553 0.74498 0.0
N170 N 0.96082 0.29032 0.7015 0.0
N171 N 0.9661 0.22902 0.75436 0.0
C172 C 0.97583 0.21135 0.72144 0.0
C173 C 0.97266 0.2446 0.69281 0.0
C174 C 0.81824 0.09032 0.17223 0.0
C175 C 0.78585 0.05282 0.16257 0.0
C176 C 0.85339 0.08511 0.1999 0.0
C177 C 0.8577 0.04211 0.21903 0.0
H178 H 0.81794 0.12336 0.15733 0.0
H179 H 0.87873 0.11455 0.20529 0.0
S180 S 0.7763 0.9354 0.20721 0.0
N181 N 0.75626 0.97312 0.17654 0.0
N182 N 0.82264 0.96288 0.22842 0.0
C183 C 0.82347 1.00519 0.21086 0.0
C184 C 0.7876 1.01061 0.18263 0.0
C185 C 0.01989 0.86562 0.65383 0.0
C186 C -0.00233 0.82028 0.65625 0.0
C187 C 0.01464 0.89888 0.68143 0.0
C188 C 0.98796 0.88746 0.71268 0.0
H189 H 0.04132 0.87544 0.63038 0.0
H190 H 0.03266 0.9333 0.67862 0.0
S191 S 0.92204 0.77348 0.73141 0.0
N192 N 0.94703 0.76594 0.69155 0.0
N193 N 0.93815 0.82774 0.74393 0.0
C194 C 0.96539 0.84219 0.71523 0.0
C195 C 0.96996 0.80877 0.68685 0.0
C196 C 0.17991 0.97045 0.88508 0.0
C197 C 0.18651 1.00563 0.91127 0.0
C198 C 0.14459 0.97647 0.85756 0.0
C199 C 0.11483 0.01812 0.8549 0.0
H200 H 0.20146 0.93749 0.88628 0.0
H201 H 0.13972 0.94772 0.8387 0.0
S202 S 0.1181 0.12147 0.91633 0.0
N203 N 0.16053 0.08383 0.9326 0.0
N204 N 0.09533 0.09578 0.88032 0.0
C205 C 0.12255 0.05447 0.88004 0.0
C206 C 0.15808 0.04807 0.90835 0.0
C207 C 0.97314 0.17551 0.41972 0.0
C208 C 0.98537 0.2239 0.41528 0.0
C209 C 0.97891 0.14283 0.39184 0.0
C210 C -0.00334 0.15733 0.35827 0.0
H211 H 0.95881 0.16282 0.44497 0.0
H212 H 0.9683 0.10611 0.3965 0.0
S213 S 0.03468 0.28024 0.33322 0.0
N214 N 0.01666 0.28474 0.37509 0.0
N215 N 0.02767 0.2236 0.3226 0.0
C216 C 0.00985 0.2056 0.3537 0.0
C217 C 0.00422 0.23877 0.38221 0.0
C218 C 0.7925 0.07556 0.88327 0.0
C219 C 0.78563 0.04018 0.90932 0.0
C220 C 0.82767 0.06952 0.85565 0.0
C221 C 0.85701 0.02764 0.85272 0.0
H222 H 0.77141 0.10876 0.88474 0.0
H223 H 0.83292 0.0985 0.83701 0.0
S224 S 0.85243 0.92343 0.91342 0.0
N225 N 0.81057 0.96134 0.93003 0.0
N226 N 0.87545 0.94937 0.87754 0.0
C227 C 0.84878 0.99099 0.87759 0.0
C228 C 0.81342 0.9974 0.90601 0.0
C229 C 0.0029 0.86917 0.42146 0.0
C230 C 0.98841 0.82127 0.41758 0.0
C231 C -0.00345 0.90202 0.39371 0.0
C232 C 0.97599 0.8881 0.36083 0.0
H233 H 0.01954 0.88133 0.44614 0.0
H234 H 0.00904 0.93831 0.39786 0.0
S235 S 0.93095 0.76675 0.33756 0.0
N236 N 0.9517 0.76162 0.37876 0.0
N237 N 0.93967 0.82305 0.3265 0.0
C238 C 0.96044 0.84038 0.35688 0.0
C239 C 0.96661 0.80707 0.38527 0.0
loop_
_geom_bond_atom_site_label_1
_geom_bond_atom_site_label_2
_geom_bond_distance
_geom_bond_site_symmetry_2
_ccdc_geom_bond_type
H0 C27 0.929 . S
N1 C26 1.433 . S
N1 C32 1.435 . S
N1 C38 1.423 . S
H2 C28 0.930 . S
H3 C31 0.931 . S
H4 C30 0.929 . S
H5 C33 0.930 . S
H6 C34 0.932 . S
H7 C37 0.929 . S
H8 C36 0.931 . S
H9 C39 0.929 . S
H10 C43 0.932 1_566 S
H11 C40 0.931 . S
H12 C42 0.953 1_565 S
H13 C45 0.929 . S
H14 C46 0.930 . S
H15 C48 0.929 . S
H16 C49 0.931 . S
H17 C51 0.930 . S
H18 C52 0.932 . S
H19 C54 0.931 . S
H20 C55 0.929 . S
H21 C57 0.929 . S
H22 C58 0.931 . S
H23 C60 0.953 1_565 S
N24 C44 1.433 . S
N24 C50 1.435 . S
N24 C56 1.423 . S
H25 C61 0.932 1_566 S
C26 N1 1.433 . S
C26 C27 1.363 . S
C26 C31 1.370 1_545 S
C27 H0 0.929 . S
C27 C26 1.363 . S
C27 C28 1.385 . S
C28 H2 0.930 . S
C28 C27 1.385 . S
C28 C29 1.357 . S
C29 C28 1.357 . S
C29 C30 1.406 1_545 S
C30 H4 0.929 . S
C30 C29 1.406 1_565 S
C30 C31 1.391 . S
C31 H3 0.931 . S
C31 C26 1.370 1_565 S
C31 C30 1.391 . S
C32 N1 1.435 . S
C32 C33 1.358 1_545 S
C32 C37 1.371 1_554 S
C33 H5 0.930 . S
C33 C32 1.358 1_565 S
C33 C34 1.405 1_554 S
C34 H6 0.932 . S
C34 C33 1.405 1_556 S
C34 C35 1.383 1_565 S
C35 C34 1.383 1_545 S
C35 C36 1.393 . S
C36 H8 0.931 . S
C36 C35 1.393 . S
C36 C37 1.382 . S
C37 H7 0.929 . S
C37 C32 1.371 1_556 S
C37 C36 1.382 . S
C38 N1 1.423 . S
C38 C39 1.362 . S
C38 C43 1.388 . S
C39 H9 0.929 . S
C39 C38 1.362 . S
C39 C40 1.376 . S
C40 H11 0.931 . S
C40 C39 1.376 . S
C40 C41 1.396 . S
C41 C40 1.396 . S
C41 C42 1.328 1_554 S
C41 C59 1.472 . S
C42 H12 0.953 1_545 S
C42 C41 1.328 1_556 S
C42 C43 1.441 1_556 S
C43 H10 0.932 1_544 S
C43 C38 1.388 . S
C43 C42 1.441 1_554 S
C44 N24 1.433 . S
C44 C45 1.363 . S
C44 C49 1.370 1_545 S
C45 H13 0.929 . S
C45 C44 1.363 . S
C45 C46 1.385 . S
C46 H14 0.930 . S
C46 C45 1.385 . S
C46 C47 1.357 . S
C47 C46 1.357 . S
C47 C48 1.406 1_545 S
C48 H15 0.929 . S
C48 C47 1.406 1_565 S
C48 C49 1.391 . S
C49 H16 0.931 . S
C49 C44 1.370 1_565 S
C49 C48 1.391 . S
C50 N24 1.435 . S
C50 C51 1.358 1_545 S
C50 C55 1.371 1_554 S
C51 H17 0.930 . S
C51 C50 1.358 1_565 S
C51 C52 1.405 1_554 S
C52 H18 0.932 . S
C52 C51 1.405 1_556 S
C52 C53 1.383 1_565 S
C53 C52 1.383 1_545 S
C53 C54 1.393 . S
C54 H19 0.931 . S
C54 C53 1.393 . S
C54 C55 1.382 . S
C55 H20 0.929 . S
C55 C50 1.371 1_556 S
C55 C54 1.382 . S
C56 N24 1.423 . S
C56 C57 1.362 . S
C56 C61 1.388 . S
C57 H21 0.929 . S
C57 C56 1.362 . S
C57 C58 1.376 . S
C58 H22 0.931 . S
C58 C57 1.376 . S
C58 C59 1.396 . S
C59 C41 1.472 . S
C59 C58 1.396 . S
C59 C60 1.328 1_554 S
C60 H23 0.953 1_545 S
C60 C59 1.328 1_556 S
C60 C61 1.441 1_556 S
C61 H25 0.932 1_544 S
C61 C56 1.388 . S
C61 C60 1.441 1_554 S
H62 C89 0.929 . S
N63 C88 1.433 . S
N63 C94 1.435 . S
N63 C100 1.423 . S
H64 C90 0.930 . S
H65 C93 0.931 . S
H66 C92 0.929 . S
H67 C95 0.930 . S
H68 C96 0.932 . S
H69 C99 0.929 . S
H70 C98 0.931 . S
H71 C101 0.929 . S
H72 C105 0.932 1_455 S
H73 C102 0.931 . S
H74 C104 0.929 1_455 S
H75 C107 0.929 . S
H76 C108 0.930 . S
H77 C110 0.929 . S
H78 C111 0.931 . S
H79 C113 0.930 . S
H80 C114 0.932 . S
H81 C116 0.931 . S
H82 C117 0.929 . S
H83 C119 0.929 . S
H84 C120 0.931 . S
H85 C122 0.929 1_455 S
N86 C106 1.433 . S
N86 C112 1.435 . S
N86 C118 1.423 . S
H87 C123 0.932 1_455 S
C88 N63 1.433 . S
C88 C89 1.363 . S
C88 C93 1.370 1_655 S
C89 H62 0.929 . S
C89 C88 1.363 . S
C89 C90 1.385 . S
C90 H64 0.930 . S
C90 C89 1.385 . S
C90 C91 1.357 . S
C91 C90 1.357 . S
C91 C92 1.406 1_655 S
C92 H66 0.929 . S
C92 C91 1.406 1_455 S
C92 C93 1.391 . S
C93 H65 0.931 . S
C93 C88 1.370 1_455 S
C93 C92 1.391 . S
C94 N63 1.435 . S
C94 C95 1.358 1_655 S
C94 C99 1.371 . S
C95 H67 0.930 . S
C95 C94 1.358 1_455 S
C95 C96 1.405 . S
C96 H68 0.932 . S
C96 C95 1.405 . S
C96 C97 1.383 1_455 S
C97 C96 1.383 1_655 S
C97 C98 1.393 . S
C98 H70 0.931 . S
C98 C97 1.393 . S
C98 C99 1.382 . S
C99 H69 0.929 . S
C99 C94 1.371 . S
C99 C98 1.382 . S
C100 N63 1.423 . S
C100 C101 1.362 . S
C100 C105 1.388 . S
C101 H71 0.929 . S
C101 C100 1.362 . S
C101 C102 1.376 . S
C102 H73 0.931 . S
C102 C101 1.376 . S
C102 C103 1.396 . S
C103 C102 1.396 . S
C103 C104 1.348 . S
C103 C121 1.472 . S
C104 H74 0.929 1_655 S
C104 C103 1.348 . S
C104 C105 1.443 . S
C105 H72 0.932 1_655 S
C105 C100 1.388 . S
C105 C104 1.443 . S
C106 N86 1.433 . S
C106 C107 1.363 . S
C106 C111 1.370 1_655 S
C107 H75 0.929 . S
C107 C106 1.363 . S
C107 C108 1.385 . S
C108 H76 0.930 . S
C108 C107 1.385 . S
C108 C109 1.357 . S
C109 C108 1.357 . S
C109 C110 1.406 1_655 S
C110 H77 0.929 . S
C110 C109 1.406 1_455 S
C110 C111 1.391 . S
C111 H78 0.931 . S
C111 C106 1.370 1_455 S
C111 C110 1.391 . S
C112 N86 1.435 . S
C112 C113 1.358 1_655 S
C112 C117 1.371 . S
C113 H79 0.930 . S
C113 C112 1.358 1_455 S
C113 C114 1.405 . S
C114 H80 0.932 . S
C114 C113 1.405 . S
C114 C115 1.383 1_455 S
C115 C114 1.383 1_655 S
C115 C116 1.393 . S
C116 H81 0.931 . S
C116 C115 1.393 . S
C116 C117 1.382 . S
C117 H82 0.929 . S
C117 C112 1.371 . S
C117 C116 1.382 . S
C118 N86 1.423 . S
C118 C119 1.362 . S
C118 C123 1.388 . S
C119 H83 0.929 . S
C119 C118 1.362 . S
C119 C120 1.376 . S
C120 H84 0.931 . S
C120 C119 1.376 . S
C120 C121 1.396 . S
C121 C103 1.472 . S
C121 C120 1.396 . S
C121 C122 1.348 . S
C122 H85 0.929 1_655 S
C122 C121 1.348 . S
C122 C123 1.443 . S
C123 H87 0.932 1_655 S
C123 C118 1.388 . S
C123 C122 1.443 . S
O124 Cd125 2.223 1_655 S
O124 C132 1.315 . S
Cd125 O124 2.223 1_455 S
Cd125 O128 2.297 1_455 S
Cd125 O129 2.439 1_455 S
Cd125 O135 2.240 1_565 S
Cd126 O127 2.240 1_545 S
Cd126 O134 2.223 1_655 S
Cd126 O136 2.297 1_655 S
Cd126 O137 2.439 1_655 S
O127 Cd126 2.240 1_565 S
O127 C132 1.279 . S
O128 Cd125 2.297 1_655 S
O128 C130 1.247 . S
O129 Cd125 2.439 1_655 S
O129 C130 1.208 . S
C130 O128 1.247 . S
C130 O129 1.208 . S
C131 O136 1.247 . S
C131 O137 1.208 . S
C132 O124 1.315 . S
C132 O127 1.279 . S
C133 O134 1.315 . S
C133 O135 1.279 . S
O134 Cd126 2.223 1_455 S
O134 C133 1.315 . S
O135 Cd125 2.240 1_545 S
O135 C133 1.279 . S
O136 Cd126 2.297 1_455 S
O136 C131 1.247 . S
O137 Cd126 2.439 1_455 S
O137 C131 1.208 . S
O138 Cd139 2.223 1_655 S
O138 C146 1.315 . S
Cd139 O138 2.223 1_455 S
Cd139 O142 2.297 1_455 S
Cd139 O143 2.439 1_455 S
Cd139 O149 2.240 1_545 S
Cd140 O141 2.240 1_565 S
Cd140 O148 2.223 1_655 S
Cd140 O150 2.297 1_655 S
Cd140 O151 2.439 1_655 S
O141 Cd140 2.240 1_545 S
O141 C146 1.279 . S
O142 Cd139 2.297 1_655 S
O142 C144 1.247 . S
O143 Cd139 2.439 1_655 S
O143 C144 1.208 . S
C144 O142 1.247 . S
C144 O143 1.208 . S
C145 O150 1.247 . S
C145 O151 1.208 . S
C146 O138 1.315 . S
C146 O141 1.279 . S
C147 O148 1.315 . S
C147 O149 1.279 . S
O148 Cd140 2.223 1_455 S
O148 C147 1.315 . S
O149 Cd139 2.240 1_565 S
O149 C147 1.279 . S
O150 Cd140 2.297 1_455 S
O150 C145 1.247 . S
O151 Cd140 2.439 1_455 S
O151 C145 1.208 . S
C152 C153 1.369 . S
C152 C154 1.419 . S
C152 H156 0.930 . S
C153 C152 1.369 . S
C153 C162 1.429 1_545 S
C154 C152 1.419 . S
C154 C155 1.363 . S
C154 H157 0.929 . S
C155 C154 1.363 . S
C155 C161 1.428 1_545 S
H156 C152 0.930 . S
H157 C154 0.929 . S
S158 N159 1.613 . S
S158 N160 1.610 . S
N159 S158 1.613 . S
N159 C162 1.350 . S
N160 S158 1.610 . S
N160 C161 1.351 . S
C161 C155 1.428 1_565 S
C161 N160 1.351 . S
C161 C162 1.434 . S
C162 C153 1.429 1_565 S
C162 N159 1.350 . S
C162 C161 1.434 . S
C163 C164 1.369 1_455 S
C163 C165 1.419 . S
C163 H167 0.930 . S
C164 C163 1.369 1_655 S
C164 C173 1.429 . S
C165 C163 1.419 . S
C165 C166 1.363 1_455 S
C165 H168 0.929 . S
C166 C165 1.363 1_655 S
C166 C172 1.428 . S
H167 C163 0.930 . S
H168 C165 0.929 . S
S169 N170 1.613 . S
S169 N171 1.610 . S
N170 S169 1.613 . S
N170 C173 1.350 . S
N171 S169 1.610 . S
N171 C172 1.351 . S
C172 C166 1.428 . S
C172 N171 1.351 . S
C172 C173 1.434 . S
C173 C164 1.429 . S
C173 N170 1.350 . S
C173 C172 1.434 . S
C174 C175 1.369 1_545 S
C174 C176 1.419 1_545 S
C174 H178 0.930 . S
C175 C174 1.369 1_565 S
C175 C184 1.429 . S
C176 C174 1.419 1_565 S
C176 C177 1.363 . S
C176 H179 0.929 . S
C177 C176 1.363 . S
C177 C183 1.428 . S
H178 C174 0.930 . S
H179 C176 0.929 . S
S180 N181 1.613 . S
S180 N182 1.610 . S
N181 S180 1.613 . S
N181 C184 1.350 . S
N182 S180 1.610 . S
N182 C183 1.351 . S
C183 C177 1.428 . S
C183 N182 1.351 . S
C183 C184 1.434 . S
C184 C175 1.429 . S
C184 N181 1.350 . S
C184 C183 1.434 . S
C185 C186 1.369 . S
C185 C187 1.419 . S
C185 H189 0.930 . S
C186 C185 1.369 . S
C186 C195 1.429 1_455 S
C187 C185 1.419 . S
C187 C188 1.363 . S
C187 H190 0.929 . S
C188 C187 1.363 . S
C188 C194 1.428 1_455 S
H189 C185 0.930 . S
H190 C187 0.929 . S
S191 N192 1.613 . S
S191 N193 1.610 . S
N192 S191 1.613 . S
N192 C195 1.350 . S
N193 S191 1.610 . S
N193 C194 1.351 . S
C194 C188 1.428 1_655 S
C194 N193 1.351 . S
C194 C195 1.434 . S
C195 C186 1.429 1_655 S
C195 N192 1.350 . S
C195 C194 1.434 . S
C196 C197 1.369 . S
C196 C198 1.419 . S
C196 H200 0.930 . S
C197 C196 1.369 . S
C197 C206 1.429 1_565 S
C198 C196 1.419 . S
C198 C199 1.363 . S
C198 H201 0.929 . S
C199 C198 1.363 . S
C199 C205 1.428 1_565 S
H200 C196 0.930 . S
H201 C198 0.929 . S
S202 N203 1.613 . S
S202 N204 1.610 . S
N203 S202 1.613 . S
N203 C206 1.350 . S
N204 S202 1.610 . S
N204 C205 1.351 . S
C205 C199 1.428 1_545 S
C205 N204 1.351 . S
C205 C206 1.434 . S
C206 C197 1.429 1_545 S
C206 N203 1.350 . S
C206 C205 1.434 . S
C207 C208 1.369 1_655 S
C207 C209 1.419 1_655 S
C207 H211 0.930 . S
C208 C207 1.369 1_455 S
C208 C217 1.429 . S
C209 C207 1.419 1_455 S
C209 C210 1.363 . S
C209 H212 0.929 1_455 S
C210 C209 1.363 . S
C210 C216 1.428 . S
H211 C207 0.930 . S
H212 C209 0.929 1_655 S
S213 N214 1.613 . S
S213 N215 1.610 . S
N214 S213 1.613 . S
N214 C217 1.350 . S
N215 S213 1.610 . S
N215 C216 1.351 . S
C216 C210 1.428 . S
C216 N215 1.351 . S
C216 C217 1.434 . S
C217 C208 1.429 . S
C217 N214 1.350 . S
C217 C216 1.434 . S
C218 C219 1.369 . S
C218 C220 1.419 . S
C218 H222 0.930 . S
C219 C218 1.369 . S
C219 C228 1.429 1_545 S
C220 C218 1.419 . S
C220 C221 1.363 . S
C220 H223 0.929 . S
C221 C220 1.363 . S
C221 C227 1.428 1_545 S
H222 C218 0.930 . S
H223 C220 0.929 . S
S224 N225 1.613 . S
S224 N226 1.610 . S
N225 S224 1.613 . S
N225 C228 1.350 . S
N226 S224 1.610 . S
N226 C227 1.351 . S
C227 C221 1.428 1_565 S
C227 N226 1.351 . S
C227 C228 1.434 . S
C228 C219 1.429 1_565 S
C228 N225 1.350 . S
C228 C227 1.434 . S
C229 C230 1.369 . S
C229 C231 1.419 . S
C229 H233 0.930 . S
C230 C229 1.369 . S
C230 C239 1.429 . S
C231 C229 1.419 . S
C231 C232 1.363 . S
C231 H234 0.929 . S
C232 C231 1.363 . S
C232 C238 1.428 . S
H233 C229 0.930 . S
H234 C231 0.929 . S
S235 N236 1.613 . S
S235 N237 1.610 . S
N236 S235 1.613 . S
N236 C239 1.350 . S
N237 S235 1.610 . S
N237 C238 1.351 . S
C238 C232 1.428 . S
C238 N237 1.351 . S
C238 C239 1.434 . S
C239 C230 1.429 . S
C239 N236 1.350 . S
C239 C238 1.434 . S
C155 C133 1.829 . S
C153 C47 1.713 . S
C166 C144 1.735 . S
C164 C109 1.695 . S
C177 C132 1.828 . S
C175 C29 1.741 1_565 S
C188 C145 1.735 . S
C186 C91 1.722 1_455 S
C199 C147 1.625 . S
C197 C53 1.625 1_565 S
C210 C131 1.455 . S
C208 C115 1.522 1_455 S
C221 C146 1.625 . S
C219 C35 1.617 . S
C230 C97 1.511 . S
C232 C130 1.455 . S
