# Generated by pormake.
# Topology rtl, (3,6)-cn, num edge types: 1
# Building blocks:
#     Node 0, Type 0, BuildingBlock: KAKCAD_clean_linker_0, # of connection points: 3
#     Node 1, Type 0, BuildingBlock: KAKCAD_clean_linker_0, # of connection points: 3
#     Node 2, Type 0, BuildingBlock: KAKCAD_clean_linker_0, # of connection points: 3
#     Node 3, Type 0, BuildingBlock: KAKCAD_clean_linker_0, # of connection points: 3
#     Node 4, Type 1, BuildingBlock: VOLQOD_clean_sbu_1, # of connection points: 6
#     Node 5, Type 1, BuildingBlock: VOLQOD_clean_sbu_1, # of connection points: 6
#     Edge 6, Type (0, 1), None
#     Edge 7, Type (0, 1), None
#     Edge 8, Type (0, 1), None
#     Edge 9, Type (0, 1), None
#     Edge 10, Type (0, 1), None
#     Edge 11, Type (0, 1), None
#     Edge 12, Type (0, 1), None
#     Edge 13, Type (0, 1), None
#     Edge 14, Type (0, 1), None
#     Edge 15, Type (0, 1), None
#     Edge 16, Type (0, 1), None
#     Edge 17, Type (0, 1), None
# Relax obj value: 0.078
# Max RMSD: 0.156
# Mean RMSD: 0.089
data_MOF--net-rtl--node1-VOLQOD_clean_sbu_1--node2-KAKCAD_clean_linker_0--edge1-none
_symmetry_space_group_name_H-M    P1
_symmetry_Int_Tables_number       1
_symmetry_cell_setting            triclinic
loop_
_symmetry_equiv_pos_as_xyz
'x, y, z'
_cell_length_a     25.626687
_cell_length_b     21.221179
_cell_length_c     16.850697
_cell_angle_alpha  89.862137
_cell_angle_beta   89.95369
_cell_angle_gamma 90.154035
loop_
_atom_site_label
_atom_site_type_symbol
_atom_site_fract_x
_atom_site_fract_y
_atom_site_fract_z
_atom_type_partial_charge
C0 C 0.04645 0.80006 0.71419 0.0
C1 C 0.05481 0.86571 0.71616 0.0
C2 C 0.05981 0.7625 0.77963 0.0
C3 C 0.08106 0.7904 0.8477 0.0
C4 C 0.09058 0.85544 0.84875 0.0
C5 C 0.07774 0.89263 0.78381 0.0
C6 C 0.09196 0.75385 0.9201 0.0
C7 C 0.13362 0.71136 0.92243 0.0
C8 C 0.15279 0.68904 -0.00427 0.0
C9 C 0.12834 0.70891 0.06645 0.0
C10 C 0.08788 0.75312 0.06408 0.0
C11 C 0.06837 0.77292 -0.00924 0.0
C12 C 0.07479 0.79032 0.13522 0.0
C13 C 0.05811 0.76209 0.20625 0.0
C14 C 0.08066 0.85602 0.13161 0.0
C15 C 0.0691 0.89318 0.19689 0.0
C16 C 0.0512 0.86569 0.26774 0.0
C17 C 0.20325 0.65437 -0.00143 0.0
C18 C 0.21764 0.61294 0.93724 0.0
C19 C 0.23961 0.66701 0.05919 0.0
C20 C 0.28909 0.63996 0.05779 0.0
C21 C 0.30402 0.60092 -0.00521 0.0
C22 C 0.26774 0.58709 0.93488 0.0
C23 C 0.04593 0.79965 0.27208 0.0
H24 H 0.02911 0.77791 0.66269 0.0
H25 H 0.05236 0.71225 0.77796 0.0
H26 H 0.1075 0.87768 0.90059 0.0
H27 H 0.08511 0.94283 0.78746 0.0
H28 H 0.15398 0.70076 0.8677 0.0
H29 H 0.03798 0.80844 -0.01112 0.0
H30 H 0.14342 0.6943 0.12361 0.0
H31 H 0.05383 0.71139 0.21036 0.0
H32 H 0.09462 0.87884 0.07799 0.0
H33 H 0.07381 0.94374 0.19125 0.0
H34 H 0.19054 0.60128 0.89022 0.0
H35 H 0.23097 0.69993 0.10631 0.0
H36 H 0.03242 0.7771 0.32606 0.0
H37 H 0.27813 0.55639 0.8861 0.0
H38 H 0.31642 0.65174 0.10453 0.0
C39 C 0.56449 0.7344 0.77207 0.0
C40 C 0.53586 0.6785 0.76158 0.0
C41 C 0.57922 0.77096 0.70628 0.0
C42 C 0.56699 0.75112 0.62864 0.0
C43 C 0.53754 0.69525 0.61958 0.0
C44 C 0.52146 0.66031 0.68498 0.0
C45 C 0.58912 0.78307 0.55671 0.0
C46 C 0.63815 0.81309 0.55843 0.0
C47 C 0.66448 0.82734 0.48744 0.0
C48 C 0.6434 0.80769 0.41466 0.0
C49 C 0.59406 0.7789 0.41198 0.0
C50 C 0.5653 0.77374 0.48262 0.0
C51 C 0.57583 0.74462 0.33992 0.0
C52 C 0.58889 0.76455 0.26257 0.0
C53 C 0.54802 0.68769 0.34922 0.0
C54 C 0.53297 0.65244 0.28387 0.0
C55 C 0.54659 0.67171 0.20711 0.0
C56 C 0.71643 0.85733 0.48994 0.0
C57 C 0.72275 0.91703 0.52426 0.0
C58 C 0.75984 0.82645 0.45775 0.0
C59 C 0.80904 0.85474 0.46019 0.0
C60 C 0.81545 0.91496 0.49343 0.0
C61 C 0.7718 0.946 0.52518 0.0
C62 C 0.57484 0.72797 0.19667 0.0
H63 H 0.57571 0.74957 0.83099 0.0
H64 H 0.60103 0.81388 0.71652 0.0
H65 H 0.52868 0.67589 0.56187 0.0
H66 H 0.50004 0.61693 0.67506 0.0
H67 H 0.65776 0.82187 0.6142 0.0
H68 H 0.52557 0.75647 0.48008 0.0
H69 H 0.6664 0.81292 0.36108 0.0
H70 H 0.61008 0.80807 0.25282 0.0
H71 H 0.53901 0.6687 0.40729 0.0
H72 H 0.512 0.6087 0.29386 0.0
H73 H 0.68959 0.94155 0.54932 0.0
H74 H 0.75574 0.78019 0.43138 0.0
H75 H 0.58562 0.74386 0.13775 0.0
H76 H 0.77568 0.99231 0.55147 0.0
H77 H 0.84193 0.82981 0.43499 0.0
C78 C 0.88812 0.19135 0.2631 0.0
C79 C 0.94061 0.17437 0.27334 0.0
C80 C 0.87272 0.22586 0.19638 0.0
C81 C 0.90958 0.24459 0.13891 0.0
C82 C 0.96239 0.23014 0.15126 0.0
C83 C 0.97771 0.19529 0.21753 0.0
C84 C 0.89249 0.27482 0.06367 0.0
C85 C 0.85164 0.31857 0.06344 0.0
C86 C 0.83081 0.34098 -0.0082 0.0
C87 C 0.85263 0.32145 0.91952 0.0
C88 C 0.89366 0.27755 0.91843 0.0
C89 C 0.91348 0.25495 -0.0091 0.0
C90 C 0.91176 0.24898 0.84274 0.0
C91 C 0.87562 0.23113 0.78409 0.0
C92 C 0.96462 0.23357 0.83199 0.0
C93 C 0.98049 0.1981 0.76661 0.0
C94 C 0.94394 0.17761 0.71003 0.0
C95 C 0.78103 0.37593 -0.00723 0.0
C96 C 0.73863 0.35027 0.03453 0.0
C97 C 0.77431 0.43214 0.94969 0.0
C98 C 0.72553 0.462 0.94836 0.0
C99 C 0.68284 0.43489 -0.01166 0.0
C100 C 0.69008 0.37916 0.03193 0.0
C101 C 0.89157 0.19606 0.7183 0.0
H102 H 0.85859 0.17586 0.30489 0.0
H103 H 0.83158 0.23545 0.18824 0.0
H104 H 0.99183 0.24475 0.10883 0.0
H105 H 0.01862 0.18367 0.22412 0.0
H106 H 0.83454 0.33361 0.11911 0.0
H107 H 0.94292 0.21841 -0.00943 0.0
H108 H 0.83573 0.33777 0.86425 0.0
H109 H 0.8345 0.24144 0.79085 0.0
H110 H -0.00641 0.24748 0.87539 0.0
H111 H 0.02128 0.18544 0.76153 0.0
H112 H 0.74263 0.30659 0.06741 0.0
H113 H 0.80658 0.45259 0.91692 0.0
H114 H 0.86239 0.18113 0.6758 0.0
H115 H 0.65793 0.35743 0.06373 0.0
H116 H 0.72077 0.50486 0.91411 0.0
C117 C 0.39576 0.35843 0.23377 0.0
C118 C 0.44619 0.35633 0.20165 0.0
C119 C 0.38299 0.32197 0.29977 0.0
C120 C 0.42071 0.28379 0.3361 0.0
C121 C 0.47111 0.2808 0.30369 0.0
C122 C 0.48358 0.31623 0.23585 0.0
C123 C 0.40687 0.25116 0.41061 0.0
C124 C 0.36385 0.21029 0.41115 0.0
C125 C 0.33901 0.1938 0.48268 0.0
C126 C 0.35999 0.21615 0.55436 0.0
C127 C 0.40425 0.2552 0.55473 0.0
C128 C 0.42808 0.27196 0.48268 0.0
C129 C 0.41841 0.28881 0.62817 0.0
C130 C 0.3818 0.32939 0.66269 0.0
C131 C 0.46824 0.28328 0.66201 0.0
C132 C 0.48125 0.31839 0.7296 0.0
C133 C 0.44501 0.36063 0.76235 0.0
C134 C 0.28747 0.16122 0.48192 0.0
C135 C 0.25132 0.17381 0.42103 0.0
C136 C 0.27239 0.12093 0.54442 0.0
C137 C 0.22204 0.09545 0.547 0.0
C138 C 0.18623 0.10856 0.48621 0.0
C139 C 0.20161 0.14713 0.42267 0.0
C140 C 0.39512 0.36539 0.72861 0.0
H141 H 0.36637 0.38911 0.20846 0.0
H142 H 0.34399 0.32535 0.32434 0.0
H143 H 0.50075 0.25183 0.33132 0.0
H144 H 0.52292 0.31455 0.21239 0.0
H145 H 0.34787 0.19482 0.35493 0.0
H146 H 0.4596 0.30618 0.48235 0.0
H147 H 0.33994 0.20708 0.60989 0.0
H148 H 0.34327 0.33465 0.63708 0.0
H149 H 0.497 0.25229 0.63586 0.0
H150 H 0.52012 0.31441 0.75429 0.0
H151 H 0.26053 0.20601 0.3731 0.0
H152 H 0.29929 0.10942 0.59176 0.0
H153 H 0.36648 0.39755 0.75281 0.0
H154 H 0.17458 0.15846 0.37536 0.0
H155 H 0.21124 0.06523 0.59629 0.0
O156 O 0.871 1.00488 0.4969 0.0
Zn157 Zn 0.93227 0.06493 0.49383 0.0
O158 O -0.00182 0.01801 0.49282 0.0
Zn159 Zn 0.03974 0.04066 0.58499 0.0
Zn160 Zn 0.98491 0.92658 0.49286 0.0
Zn161 Zn 0.03759 0.04049 0.39874 0.0
O162 O 0.11155 0.07148 0.55573 0.0
O163 O 0.10835 0.07451 0.42428 0.0
O164 O 0.92788 0.1213 0.59014 0.0
O165 O 0.00419 0.10736 0.64997 0.0
O166 O 0.04967 0.96555 0.65418 0.0
O167 O 0.01491 0.88435 0.59024 0.0
O168 O 0.0144 0.88406 0.39573 0.0
O169 O 0.92522 0.11991 0.39557 0.0
O170 O 0.04746 0.96543 0.32972 0.0
O171 O 0.00082 0.10523 0.33412 0.0
C172 C 0.86746 0.94499 0.49454 0.0
C173 C 0.13274 0.08311 0.489 0.0
C174 C 0.03917 0.90704 0.64963 0.0
C175 C 0.95978 0.13399 0.6459 0.0
C176 C 0.0374 0.90685 0.33514 0.0
C177 C 0.9565 0.13173 0.33852 0.0
O178 O 0.90778 0.91013 0.49192 0.0
O179 O 0.62322 0.52096 0.978 0.0
Zn180 Zn 0.55674 0.5735 0.98094 0.0
O181 O 0.49435 0.51843 -0.01642 0.0
Zn182 Zn 0.44991 0.53568 0.89281 0.0
Zn183 Zn 0.51453 0.4294 -0.01736 0.0
Zn184 Zn 0.45421 0.53511 0.07867 0.0
O185 O 0.37792 0.56399 0.92396 0.0
O186 O 0.3832 0.56933 0.05508 0.0
O187 O 0.55559 0.63092 0.88549 0.0
O188 O 0.48232 0.60252 0.82441 0.0
O189 O 0.44126 0.45906 0.82604 0.0
O190 O 0.48953 0.38479 0.88293 0.0
O191 O 0.48836 0.38239 0.07983 0.0
O192 O 0.56047 0.62896 0.07833 0.0
O193 O 0.44411 0.45695 0.14294 0.0
O194 O 0.49104 0.5973 0.14686 0.0
C195 C 0.62994 0.46153 -0.0172 0.0
C196 C 0.35767 0.5763 -0.00895 0.0
C197 C 0.45949 0.40342 0.82745 0.0
C198 C 0.52329 0.63646 0.82856 0.0
C199 C 0.46025 0.40053 0.13772 0.0
C200 C 0.53156 0.63158 0.1397 0.0
O201 O 0.59168 0.42334 -0.01411 0.0
loop_
_geom_bond_atom_site_label_1
_geom_bond_atom_site_label_2
_geom_bond_distance
_geom_bond_site_symmetry_2
_ccdc_geom_bond_type
C0 C1 1.386 . S
C0 C2 1.397 . S
C0 H24 0.931 . S
C1 C0 1.386 . S
C1 C5 1.397 . S
C2 C0 1.397 . S
C2 C3 1.384 . S
C2 H25 0.930 . S
C3 C2 1.384 . S
C3 C4 1.377 . S
C3 C6 1.481 . S
C4 C3 1.377 . S
C4 C5 1.389 . S
C4 H26 0.929 . S
C5 C1 1.397 . S
C5 C4 1.389 . S
C5 H27 0.931 . S
C6 C3 1.481 . S
C6 C7 1.387 . S
C6 C11 1.390 1_556 S
C7 C6 1.387 . S
C7 C8 1.401 1_556 S
C7 H28 0.930 . S
C8 C7 1.401 1_554 S
C8 C9 1.376 . S
C8 C17 1.511 . S
C9 C8 1.376 . S
C9 C10 1.392 . S
C9 H30 0.931 . S
C10 C9 1.392 . S
C10 C11 1.361 . S
C10 C12 1.500 . S
C11 C6 1.390 1_554 S
C11 C10 1.361 . S
C11 H29 0.931 . S
C12 C10 1.500 . S
C12 C13 1.371 . S
C12 C14 1.365 . S
C13 C12 1.371 . S
C13 C23 1.386 . S
C13 H31 0.931 . S
C14 C12 1.365 . S
C14 C15 1.409 . S
C14 H32 0.929 . S
C15 C14 1.409 . S
C15 C16 1.380 . S
C15 H33 0.930 . S
C16 C15 1.380 . S
C16 C23 1.357 . S
C17 C8 1.511 . S
C17 C18 1.341 1_554 S
C17 C19 1.371 . S
C18 C17 1.341 1_556 S
C18 C22 1.394 . S
C18 H34 0.930 . S
C19 C17 1.371 . S
C19 C20 1.392 . S
C19 H35 0.931 . S
C20 C19 1.392 . S
C20 C21 1.331 . S
C20 H38 0.932 . S
C21 C20 1.331 . S
C21 C22 1.336 1_554 S
C22 C18 1.394 . S
C22 C21 1.336 1_556 S
C22 H37 0.929 . S
C23 C13 1.386 . S
C23 C16 1.357 . S
C23 H36 0.928 . S
H24 C0 0.931 . S
H25 C2 0.930 . S
H26 C4 0.929 . S
H27 C5 0.931 . S
H28 C7 0.930 . S
H29 C11 0.931 . S
H30 C9 0.931 . S
H31 C13 0.931 . S
H32 C14 0.929 . S
H33 C15 0.930 . S
H34 C18 0.930 . S
H35 C19 0.931 . S
H36 C23 0.928 . S
H37 C22 0.929 . S
H38 C20 0.932 . S
C39 C40 1.386 . S
C39 C41 1.397 . S
C39 H63 0.931 . S
C40 C39 1.386 . S
C40 C44 1.397 . S
C41 C39 1.397 . S
C41 C42 1.384 . S
C41 H64 0.930 . S
C42 C41 1.384 . S
C42 C43 1.377 . S
C42 C45 1.481 . S
C43 C42 1.377 . S
C43 C44 1.389 . S
C43 H65 0.929 . S
C44 C40 1.397 . S
C44 C43 1.389 . S
C44 H66 0.931 . S
C45 C42 1.481 . S
C45 C46 1.387 . S
C45 C50 1.390 . S
C46 C45 1.387 . S
C46 C47 1.401 . S
C46 H67 0.930 . S
C47 C46 1.401 . S
C47 C48 1.376 . S
C47 C56 1.511 . S
C48 C47 1.376 . S
C48 C49 1.392 . S
C48 H69 0.931 . S
C49 C48 1.392 . S
C49 C50 1.361 . S
C49 C51 1.500 . S
C50 C45 1.390 . S
C50 C49 1.361 . S
C50 H68 0.931 . S
C51 C49 1.500 . S
C51 C52 1.371 . S
C51 C53 1.365 . S
C52 C51 1.371 . S
C52 C62 1.386 . S
C52 H70 0.931 . S
C53 C51 1.365 . S
C53 C54 1.409 . S
C53 H71 0.929 . S
C54 C53 1.409 . S
C54 C55 1.380 . S
C54 H72 0.930 . S
C55 C54 1.380 . S
C55 C62 1.357 . S
C56 C47 1.511 . S
C56 C57 1.341 . S
C56 C58 1.371 . S
C57 C56 1.341 . S
C57 C61 1.394 . S
C57 H73 0.930 . S
C58 C56 1.371 . S
C58 C59 1.392 . S
C58 H74 0.931 . S
C59 C58 1.392 . S
C59 C60 1.331 . S
C59 H77 0.932 . S
C60 C59 1.331 . S
C60 C61 1.336 . S
C61 C57 1.394 . S
C61 C60 1.336 . S
C61 H76 0.929 . S
C62 C52 1.386 . S
C62 C55 1.357 . S
C62 H75 0.928 . S
H63 C39 0.931 . S
H64 C41 0.930 . S
H65 C43 0.929 . S
H66 C44 0.931 . S
H67 C46 0.930 . S
H68 C50 0.931 . S
H69 C48 0.931 . S
H70 C52 0.931 . S
H71 C53 0.929 . S
H72 C54 0.930 . S
H73 C57 0.930 . S
H74 C58 0.931 . S
H75 C62 0.928 . S
H76 C61 0.929 . S
H77 C59 0.932 . S
C78 C79 1.386 . S
C78 C80 1.397 . S
C78 H102 0.931 . S
C79 C78 1.386 . S
C79 C83 1.397 1_655 S
C80 C78 1.397 . S
C80 C81 1.384 . S
C80 H103 0.930 . S
C81 C80 1.384 . S
C81 C82 1.377 . S
C81 C84 1.481 . S
C82 C81 1.377 . S
C82 C83 1.389 1_655 S
C82 H104 0.929 1_655 S
C83 C79 1.397 1_455 S
C83 C82 1.389 1_455 S
C83 H105 0.931 . S
C84 C81 1.481 . S
C84 C85 1.387 . S
C84 C89 1.390 . S
C85 C84 1.387 . S
C85 C86 1.401 . S
C85 H106 0.930 . S
C86 C85 1.401 . S
C86 C87 1.376 1_554 S
C86 C95 1.511 . S
C87 C86 1.376 1_556 S
C87 C88 1.392 . S
C87 H108 0.931 . S
C88 C87 1.392 . S
C88 C89 1.361 1_556 S
C88 C90 1.500 . S
C89 C84 1.390 . S
C89 C88 1.361 1_554 S
C89 H107 0.931 . S
C90 C88 1.500 . S
C90 C91 1.371 . S
C90 C92 1.365 . S
C91 C90 1.371 . S
C91 C101 1.386 . S
C91 H109 0.931 . S
C92 C90 1.365 . S
C92 C93 1.409 1_655 S
C92 H110 0.929 1_655 S
C93 C92 1.409 1_455 S
C93 C94 1.380 1_455 S
C93 H111 0.930 . S
C94 C93 1.380 1_655 S
C94 C101 1.357 . S
C95 C86 1.511 . S
C95 C96 1.341 . S
C95 C97 1.371 1_554 S
C96 C95 1.341 . S
C96 C100 1.394 . S
C96 H112 0.930 . S
C97 C95 1.371 1_556 S
C97 C98 1.392 . S
C97 H113 0.931 . S
C98 C97 1.392 . S
C98 C99 1.331 1_556 S
C98 H116 0.932 . S
C99 C98 1.331 1_554 S
C99 C100 1.336 . S
C100 C96 1.394 . S
C100 C99 1.336 . S
C100 H115 0.929 . S
C101 C91 1.386 . S
C101 C94 1.357 . S
C101 H114 0.928 . S
H102 C78 0.931 . S
H103 C80 0.930 . S
H104 C82 0.929 1_455 S
H105 C83 0.931 . S
H106 C85 0.930 . S
H107 C89 0.931 . S
H108 C87 0.931 . S
H109 C91 0.931 . S
H110 C92 0.929 1_455 S
H111 C93 0.930 . S
H112 C96 0.930 . S
H113 C97 0.931 . S
H114 C101 0.928 . S
H115 C100 0.929 . S
H116 C98 0.932 . S
C117 C118 1.386 . S
C117 C119 1.397 . S
C117 H141 0.931 . S
C118 C117 1.386 . S
C118 C122 1.397 . S
C119 C117 1.397 . S
C119 C120 1.384 . S
C119 H142 0.930 . S
C120 C119 1.384 . S
C120 C121 1.377 . S
C120 C123 1.481 . S
C121 C120 1.377 . S
C121 C122 1.389 . S
C121 H143 0.929 . S
C122 C118 1.397 . S
C122 C121 1.389 . S
C122 H144 0.931 . S
C123 C120 1.481 . S
C123 C124 1.387 . S
C123 C128 1.390 . S
C124 C123 1.387 . S
C124 C125 1.401 . S
C124 H145 0.930 . S
C125 C124 1.401 . S
C125 C126 1.376 . S
C125 C134 1.511 . S
C126 C125 1.376 . S
C126 C127 1.392 . S
C126 H147 0.931 . S
C127 C126 1.392 . S
C127 C128 1.361 . S
C127 C129 1.500 . S
C128 C123 1.390 . S
C128 C127 1.361 . S
C128 H146 0.931 . S
C129 C127 1.500 . S
C129 C130 1.371 . S
C129 C131 1.365 . S
C130 C129 1.371 . S
C130 C140 1.386 . S
C130 H148 0.931 . S
C131 C129 1.365 . S
C131 C132 1.409 . S
C131 H149 0.929 . S
C132 C131 1.409 . S
C132 C133 1.380 . S
C132 H150 0.930 . S
C133 C132 1.380 . S
C133 C140 1.357 . S
C134 C125 1.511 . S
C134 C135 1.341 . S
C134 C136 1.371 . S
C135 C134 1.341 . S
C135 C139 1.394 . S
C135 H151 0.930 . S
C136 C134 1.371 . S
C136 C137 1.392 . S
C136 H152 0.931 . S
C137 C136 1.392 . S
C137 C138 1.331 . S
C137 H155 0.932 . S
C138 C137 1.331 . S
C138 C139 1.336 . S
C139 C135 1.394 . S
C139 C138 1.336 . S
C139 H154 0.929 . S
C140 C130 1.386 . S
C140 C133 1.357 . S
C140 H153 0.928 . S
H141 C117 0.931 . S
H142 C119 0.930 . S
H143 C121 0.929 . S
H144 C122 0.931 . S
H145 C124 0.930 . S
H146 C128 0.931 . S
H147 C126 0.931 . S
H148 C130 0.931 . S
H149 C131 0.929 . S
H150 C132 0.930 . S
H151 C135 0.930 . S
H152 C136 0.931 . S
H153 C140 0.928 . S
H154 C139 0.929 . S
H155 C137 0.932 . S
O156 Zn157 1.953 1_565 S
O156 C172 1.225 . S
Zn157 O156 1.953 1_545 S
Zn157 O158 1.949 1_655 S
Zn157 O164 1.919 . S
Zn157 O169 1.924 . S
O158 Zn157 1.949 1_455 S
O158 Zn159 1.923 . S
O158 Zn160 1.950 1_445 S
O158 Zn161 1.945 . S
Zn159 O158 1.923 . S
Zn159 O162 1.933 . S
Zn159 O165 1.941 . S
Zn159 O166 1.965 1_545 S
Zn160 O158 1.950 1_665 S
Zn160 O167 1.938 1_655 S
Zn160 O168 1.906 1_655 S
Zn160 O178 1.953 . S
Zn161 O158 1.945 . S
Zn161 O163 1.932 . S
Zn161 O170 1.977 1_545 S
Zn161 O171 1.910 1_455 S
O162 Zn159 1.933 . S
O162 C173 1.226 . S
O163 Zn161 1.932 . S
O163 C173 1.307 . S
O164 Zn157 1.919 . S
O164 C175 1.253 . S
O165 Zn159 1.941 . S
O165 C175 1.283 1_455 S
O166 Zn159 1.965 1_565 S
O166 C174 1.303 . S
O167 Zn160 1.938 1_455 S
O167 C174 1.247 . S
O168 Zn160 1.906 1_455 S
O168 C176 1.304 . S
O169 Zn157 1.924 . S
O169 C177 1.311 . S
O170 Zn161 1.977 1_565 S
O170 C176 1.272 . S
O171 Zn161 1.910 1_655 S
O171 C177 1.231 . S
C172 O156 1.225 . S
C172 O178 1.298 . S
C173 O162 1.226 . S
C173 O163 1.307 . S
C174 O166 1.303 . S
C174 O167 1.247 . S
C175 O164 1.253 . S
C175 O165 1.283 1_655 S
C176 O168 1.304 . S
C176 O170 1.272 . S
C177 O169 1.311 . S
C177 O171 1.231 . S
O178 Zn160 1.953 . S
O178 C172 1.298 . S
O179 Zn180 1.953 . S
O179 C195 1.225 1_556 S
Zn180 O179 1.953 . S
Zn180 O181 1.949 1_556 S
Zn180 O187 1.919 . S
Zn180 O192 1.924 1_556 S
O181 Zn180 1.949 1_554 S
O181 Zn182 1.923 1_554 S
O181 Zn183 1.950 . S
O181 Zn184 1.945 . S
Zn182 O181 1.923 1_556 S
Zn182 O185 1.933 . S
Zn182 O188 1.941 . S
Zn182 O189 1.965 . S
Zn183 O181 1.950 . S
Zn183 O190 1.938 1_554 S
Zn183 O191 1.906 . S
Zn183 O201 1.953 . S
Zn184 O181 1.945 . S
Zn184 O186 1.932 . S
Zn184 O193 1.977 . S
Zn184 O194 1.910 . S
O185 Zn182 1.933 . S
O185 C196 1.226 1_556 S
O186 Zn184 1.932 . S
O186 C196 1.307 . S
O187 Zn180 1.919 . S
O187 C198 1.253 . S
O188 Zn182 1.941 . S
O188 C198 1.283 . S
O189 Zn182 1.965 . S
O189 C197 1.303 . S
O190 Zn183 1.938 1_556 S
O190 C197 1.247 . S
O191 Zn183 1.906 . S
O191 C199 1.304 . S
O192 Zn180 1.924 1_554 S
O192 C200 1.311 . S
O193 Zn184 1.977 . S
O193 C199 1.272 . S
O194 Zn184 1.910 . S
O194 C200 1.231 . S
C195 O179 1.225 1_554 S
C195 O201 1.298 . S
C196 O185 1.226 1_554 S
C196 O186 1.307 . S
C197 O189 1.303 . S
C197 O190 1.247 . S
C198 O187 1.253 . S
C198 O188 1.283 . S
C199 O191 1.304 . S
C199 O193 1.272 . S
C200 O192 1.311 . S
C200 O194 1.231 . S
O201 Zn183 1.953 . S
O201 C195 1.298 . S
C173 C138 2.147 . S
C21 C196 2.193 . S
C60 C172 2.153 . S
C99 C195 2.109 . S
C176 C16 2.421 . S
C198 C40 2.099 . S
C79 C177 2.346 . S
C133 C197 1.905 . S
C200 C55 2.351 . S
C175 C94 2.092 . S
C199 C118 2.417 . S
C1 C174 1.911 . S
