# Generated by pormake.
# Topology llj, (12,3)-cn, num edge types: 1
# Building blocks:
#     Node 0, Type 0, BuildingBlock: QEWDON_clean_sbu_0, # of connection points: 12
#     Node 1, Type 0, BuildingBlock: QEWDON_clean_sbu_0, # of connection points: 12
#     Node 2, Type 1, BuildingBlock: BETDAH_clean_linker_0, # of connection points: 3
#     Node 3, Type 1, BuildingBlock: BETDAH_clean_linker_0, # of connection points: 3
#     Node 4, Type 1, BuildingBlock: BETDAH_clean_linker_0, # of connection points: 3
#     Node 5, Type 1, BuildingBlock: BETDAH_clean_linker_0, # of connection points: 3
#     Node 6, Type 1, BuildingBlock: BETDAH_clean_linker_0, # of connection points: 3
#     Node 7, Type 1, BuildingBlock: BETDAH_clean_linker_0, # of connection points: 3
#     Node 8, Type 1, BuildingBlock: BETDAH_clean_linker_0, # of connection points: 3
#     Node 9, Type 1, BuildingBlock: BETDAH_clean_linker_0, # of connection points: 3
#     Edge 10, Type (0, 1), None
#     Edge 11, Type (0, 1), None
#     Edge 12, Type (0, 1), None
#     Edge 13, Type (0, 1), None
#     Edge 14, Type (0, 1), None
#     Edge 15, Type (0, 1), None
#     Edge 16, Type (0, 1), None
#     Edge 17, Type (0, 1), None
#     Edge 18, Type (0, 1), None
#     Edge 19, Type (0, 1), None
#     Edge 20, Type (0, 1), None
#     Edge 21, Type (0, 1), None
#     Edge 22, Type (0, 1), None
#     Edge 23, Type (0, 1), None
#     Edge 24, Type (0, 1), None
#     Edge 25, Type (0, 1), None
#     Edge 26, Type (0, 1), None
#     Edge 27, Type (0, 1), None
#     Edge 28, Type (0, 1), None
#     Edge 29, Type (0, 1), None
#     Edge 30, Type (0, 1), None
#     Edge 31, Type (0, 1), None
#     Edge 32, Type (0, 1), None
#     Edge 33, Type (0, 1), None
# Relax obj value: 0.010
# Max RMSD: 0.075
# Mean RMSD: 0.063
data_MOF--net-llj--node1-QEWDON_clean_sbu_0--node2-BETDAH_clean_linker_0--edge1-none
_symmetry_space_group_name_H-M    P1
_symmetry_Int_Tables_number       1
_symmetry_cell_setting            triclinic
loop_
_symmetry_equiv_pos_as_xyz
'x, y, z'
_cell_length_a     20.855694
_cell_length_b     21.005504
_cell_length_c     11.493059
_cell_angle_alpha  90.64338
_cell_angle_beta   89.23541
_cell_angle_gamma 89.649356
loop_
_atom_site_label
_atom_site_type_symbol
_atom_site_fract_x
_atom_site_fract_y
_atom_site_fract_z
_atom_type_partial_charge
Zn0 Zn 0.93906 0.18039 0.92271 0.0
Zn1 Zn 0.90127 0.1298 0.17784 0.0
O2 O 0.95763 0.11179 0.03837 0.0
H3 H 0.98288 0.07396 0.02243 0.0
C4 C 0.84248 0.02523 0.75043 0.0
O5 O 0.83924 0.05572 0.8508 0.0
Zn6 Zn 0.06794 0.85026 0.16348 0.0
Zn7 Zn 0.06132 0.84235 0.88684 0.0
O8 O 0.01218 0.87089 0.02946 0.0
H9 H 0.98255 0.90628 0.02844 0.0
Zn10 Zn 0.84712 0.91487 0.90295 0.0
O11 O 0.87053 0.96453 0.0456 0.0
Zn12 Zn 0.84527 0.90837 0.17717 0.0
H13 H 0.90704 -0.00754 0.04492 0.0
Zn14 Zn 0.17785 0.03323 0.91275 0.0
O15 O 0.1063 0.0167 0.0293 0.0
H16 H 0.06772 -0.007 0.01406 0.0
Zn17 Zn 0.12344 0.07205 0.16853 0.0
C18 C 0.18247 0.93835 0.72766 0.0
O19 O 0.19954 0.9037 0.81667 0.0
O20 O 0.85178 0.22232 0.95142 0.0
O21 O 0.82824 0.19162 0.13275 0.0
O22 O 0.13887 0.78548 0.9185 0.0
O23 O 0.1396 0.78641 0.11286 0.0
O24 O 0.77096 0.85688 0.93593 0.0
O25 O 0.76727 0.85399 0.13012 0.0
C26 C 0.01648 0.14018 0.30951 0.0
O27 O 0.22351 0.11803 0.9417 0.0
O28 O 0.18766 0.14267 0.12084 0.0
O29 O 0.0136 0.83674 0.73129 0.0
C30 C 0.81488 0.22226 0.04039 0.0
O31 O 0.97508 0.17132 0.75453 0.0
C32 C 0.95145 0.83474 0.30006 0.0
O33 O 0.84671 0.96482 0.74919 0.0
C34 C 0.16236 0.76758 0.01437 0.0
O35 O 0.17062 -0.00284 0.74424 0.0
C36 C 0.84012 0.02256 0.31715 0.0
O37 O 0.95784 0.15767 0.3117 0.0
O38 O 0.03825 0.11254 0.21772 0.0
C39 C 0.74525 0.83834 0.03049 0.0
O40 O 0.0109 0.82008 0.2966 0.0
O41 O 0.92691 0.85956 0.21039 0.0
C42 C 0.1362 0.95693 0.30123 0.0
O43 O 0.8251 0.96395 0.31745 0.0
O44 O 0.86206 0.04598 0.22325 0.0
C45 C 0.22187 0.1547 0.03057 0.0
O46 O 0.15223 0.01541 0.30137 0.0
O47 O 0.10758 0.93484 0.21222 0.0
C48 C 0.95381 0.82553 0.73319 0.0
O49 O 0.92476 0.81635 0.83367 0.0
C50 C 0.03545 0.17456 0.74104 0.0
O51 O 0.07115 0.18366 0.83308 0.0
Zn52 Zn 0.39068 0.60858 0.38023 0.0
Zn53 Zn 0.37847 0.60247 0.65726 0.0
O54 O 0.4404 0.59013 0.52432 0.0
H55 H 0.4771 0.56193 0.52331 0.0
C56 C 0.28458 0.50476 0.22767 0.0
O57 O 0.25768 0.53511 0.31635 0.0
Zn58 Zn 0.59763 0.367 0.6677 0.0
Zn59 Zn 0.57585 0.31129 0.40712 0.0
O60 O 0.54153 0.37399 0.5282 0.0
H61 H 0.5125 0.40869 0.51264 0.0
Zn62 Zn 0.31082 0.4127 0.41121 0.0
O63 O 0.3787 0.43738 0.52686 0.0
Zn64 Zn 0.36875 0.3792 0.66371 0.0
H65 H 0.41454 0.46485 0.51073 0.0
Zn66 Zn 0.67214 0.56928 0.42094 0.0
O67 O 0.60884 0.53578 0.5374 0.0
H68 H 0.57683 0.50417 0.52026 0.0
Zn69 Zn 0.60966 0.59448 0.67542 0.0
C70 C 0.67825 0.47418 0.24151 0.0
O71 O 0.68683 0.44019 0.33544 0.0
O72 O 0.30751 0.65887 0.41221 0.0
O73 O 0.30043 0.65594 0.60618 0.0
O74 O 0.66638 0.27714 0.44168 0.0
O75 O 0.6789 0.31538 0.6225 0.0
O76 O 0.27917 0.32187 0.43684 0.0
O77 O 0.31854 0.2998 0.61224 0.0
C78 C 0.48625 0.64016 0.79357 0.0
O79 O 0.70144 0.65977 0.45694 0.0
O80 O 0.66111 0.67572 0.63654 0.0
O81 O 0.53644 0.30771 0.24091 0.0
C82 C 0.27917 0.67337 0.50762 0.0
O83 O 0.4406 0.6239 0.22671 0.0
C84 C 0.48592 0.332 0.80106 0.0
O85 O 0.3109 0.45095 0.24446 0.0
C86 C 0.69934 0.28385 0.5335 0.0
O87 O 0.67074 0.53397 0.25241 0.0
C88 C 0.32943 0.48823 0.79755 0.0
O89 O 0.42539 0.64291 0.7912 0.0
O90 O 0.51655 0.61615 0.70693 0.0
C91 C 0.287 0.2843 0.52166 0.0
O92 O 0.54679 0.32764 0.80021 0.0
O93 O 0.45903 0.35502 0.7117 0.0
C94 C 0.64 0.48435 0.8112 0.0
O95 O 0.32641 0.42778 0.79908 0.0
O96 O 0.35299 0.51393 0.70684 0.0
C97 C 0.69311 0.6944 0.54744 0.0
O98 O 0.64334 0.54497 0.81354 0.0
O99 O 0.61974 0.45748 0.7187 0.0
C100 C 0.47773 0.29268 0.23148 0.0
O101 O 0.44472 0.27928 0.32619 0.0
C102 C 0.4935 0.65368 0.22334 0.0
O103 O 0.51833 0.67479 0.32079 0.0
H104 H 0.53077 0.32047 0.02028 0.0
H105 H 0.35278 0.26612 0.1855 0.0
H106 H 0.35839 0.30382 0.82062 0.0
C107 C 0.48015 0.30955 0.01495 0.0
C108 C 0.44911 0.31374 0.90696 0.0
C109 C 0.44595 0.29299 0.11663 0.0
C110 C 0.38032 0.27873 0.1086 0.0
C111 C 0.34905 0.28295 1.00187 0.0
C112 C 0.38324 0.30109 0.90215 0.0
N113 N 0.28225 0.27255 0.99469 0.0
C114 C 0.25458 0.21453 0.02213 0.0
H115 H 0.65066 0.52825 0.03343 0.0
H116 H 0.70083 0.34959 0.19077 0.0
H117 H 0.66762 0.3572 0.82551 0.0
C118 C 0.66069 0.47767 0.02569 0.0
C119 C 0.65675 0.44725 0.91611 0.0
C120 C 0.67627 0.4429 0.12571 0.0
C121 C 0.68896 0.37738 0.11505 0.0
C122 C 0.68517 0.34677 1.00688 0.0
C123 C 0.66892 0.38153 0.90835 0.0
N124 N 0.69615 0.28048 0.99646 0.0
C125 C 0.75371 0.25298 0.02943 0.0
H126 H 0.46106 0.60655 0.01261 0.0
H127 H 0.57826 0.72949 0.80565 0.0
H128 H 0.58682 0.74149 0.17794 0.0
C129 C 0.49838 0.64221 1.00742 0.0
C130 C 0.52284 0.66965 0.10957 0.0
C131 C 0.51949 0.66241 0.89787 0.0
C132 C 0.56522 0.71053 0.88999 0.0
C133 C 0.58993 0.73866 0.99073 0.0
C134 C 0.56989 0.71727 0.1006 0.0
N135 N 0.62249 0.79703 0.97935 0.0
C136 C 0.68333 0.80957 0.0208 0.0
H137 H 0.31452 0.44745 0.02017 0.0
H138 H 0.30178 0.61504 0.80997 0.0
H139 H 0.26089 0.62864 0.17456 0.0
C140 C 0.30415 0.49781 0.01163 0.0
C141 C 0.28651 0.53413 0.11104 0.0
C142 C 0.30965 0.52642 0.90166 0.0
C143 C 0.29768 0.5919 0.89287 0.0
C144 C 0.27962 0.62839 0.99043 0.0
C145 C 0.2732 0.59947 0.09907 0.0
N146 N 0.27491 0.69522 0.97949 0.0
C147 C 0.22003 0.72996 1.00851 0.0
H148 H 0.00129 0.83296 0.51411 0.0
H149 H 0.82436 0.81563 0.70818 0.0
H150 H 0.82105 0.82693 0.336 0.0
C151 C 0.94945 0.82933 0.51632 0.0
C152 C 0.91545 0.83024 0.41158 0.0
C153 C 0.91729 0.82452 0.62391 0.0
C154 C 0.85021 0.81968 0.62621 0.0
C155 C 0.81571 0.82098 0.5227 0.0
C156 C 0.84817 0.8268 0.4156 0.0
N157 N 0.74818 0.81579 0.52637 0.0
C158 C 0.71985 0.75713 0.54528 0.0
H159 H 0.15868 -0.00277 0.52233 0.0
H160 H 0.18785 0.81216 0.67266 0.0
H161 H 0.14179 0.82724 0.31316 0.0
C162 C 0.1608 0.94581 0.51347 0.0
C163 C 0.14927 0.91709 0.40438 0.0
C164 C 0.17408 0.90848 0.61152 0.0
C165 C 0.17758 0.84191 0.59868 0.0
C166 C 0.16545 0.81296 0.49106 0.0
C167 C 0.15045 0.85044 0.39529 0.0
N168 N 0.16656 0.74588 0.47847 0.0
C169 C 0.22121 0.71037 0.50165 0.0
H170 H 0.97598 0.15657 0.53334 0.0
H171 H 0.14703 0.14548 0.32075 0.0
H172 H 0.16244 0.1771 0.68669 0.0
C173 C 0.02775 0.15795 0.5246 0.0
C174 C 0.06542 0.16725 0.62418 0.0
C175 C 0.05663 0.1496 0.41389 0.0
C176 C 0.12374 0.15043 0.40442 0.0
C177 C 0.16145 0.16082 0.50232 0.0
C178 C 0.1324 0.16928 0.6117 0.0
N179 N 0.22873 0.16519 0.48943 0.0
C180 C 0.25898 0.22241 0.51288 0.0
H181 H 0.84639 0.97578 0.5326 0.0
H182 H 0.83169 0.15381 0.72103 0.0
H183 H 0.82616 0.15182 0.34831 0.0
C184 C 0.84119 0.02718 0.53328 0.0
C185 C 0.83722 0.05955 0.42729 0.0
C186 C 0.83924 0.06042 0.63993 0.0
C187 C 0.83325 0.12705 0.63986 0.0
C188 C 0.8285 0.15974 0.53485 0.0
C189 C 0.83048 0.12609 0.42879 0.0
N190 N 0.82215 0.22674 0.53628 0.0
C191 C 0.76188 0.25507 0.53617 0.0
loop_
_geom_bond_atom_site_label_1
_geom_bond_atom_site_label_2
_geom_bond_distance
_geom_bond_site_symmetry_2
_ccdc_geom_bond_type
Zn0 O2 1.933 1_556 S
Zn0 O20 1.985 . S
Zn0 O31 1.955 . S
Zn1 O2 1.911 . S
Zn1 O21 1.970 . S
Zn1 O37 1.945 . S
Zn1 O44 1.981 . S
O2 Zn0 1.933 1_554 S
O2 Zn1 1.911 . S
O2 H3 0.841 1_655 S
H3 O2 0.841 1_455 S
C4 O5 1.246 . S
C4 O33 1.276 1_545 S
O5 C4 1.246 . S
Zn6 O8 1.911 . S
Zn6 O23 1.970 . S
Zn6 O40 1.945 . S
Zn6 O47 1.981 . S
Zn7 O8 1.933 1_556 S
Zn7 O22 1.985 . S
Zn7 O29 1.955 . S
O8 Zn6 1.911 . S
O8 Zn7 1.933 1_554 S
O8 H9 0.841 1_454 S
H9 O8 0.841 1_656 S
Zn10 O11 1.933 1_556 S
Zn10 O24 1.985 . S
Zn10 O33 1.955 . S
O11 Zn10 1.933 1_554 S
O11 Zn12 1.911 . S
O11 H13 0.841 1_565 S
Zn12 O11 1.911 . S
Zn12 O25 1.970 . S
Zn12 O41 1.981 . S
Zn12 O43 1.945 . S
H13 O11 0.841 1_545 S
Zn14 O15 1.933 1_556 S
Zn14 O27 1.985 . S
Zn14 O35 1.955 . S
O15 Zn14 1.933 1_554 S
O15 H16 0.841 1_545 S
O15 Zn17 1.911 . S
H16 O15 0.841 1_565 S
Zn17 O15 1.911 . S
Zn17 O28 1.970 . S
Zn17 O38 1.981 . S
Zn17 O46 1.945 . S
C18 O19 1.246 . S
C18 O35 1.276 1_565 S
O19 C18 1.246 . S
O20 Zn0 1.985 . S
O20 C30 1.245 1_556 S
O21 Zn1 1.970 . S
O21 C30 1.263 . S
O22 Zn7 1.985 . S
O22 C34 1.240 1_556 S
O23 Zn6 1.970 . S
O23 C34 1.268 . S
O24 Zn10 1.985 . S
O24 C39 1.245 1_556 S
O25 Zn12 1.970 . S
O25 C39 1.263 . S
C26 O37 1.262 1_455 S
C26 O38 1.245 . S
O27 Zn14 1.985 . S
O27 C45 1.245 1_556 S
O28 Zn17 1.970 . S
O28 C45 1.263 . S
O29 Zn7 1.955 . S
O29 C48 1.276 1_455 S
C30 O20 1.245 1_554 S
C30 O21 1.263 . S
O31 Zn0 1.955 . S
O31 C50 1.276 1_655 S
C32 O40 1.262 1_655 S
C32 O41 1.245 . S
O33 C4 1.276 1_565 S
O33 Zn10 1.955 . S
C34 O22 1.240 1_554 S
C34 O23 1.268 . S
O35 Zn14 1.955 . S
O35 C18 1.276 1_545 S
C36 O43 1.262 1_545 S
C36 O44 1.245 . S
O37 Zn1 1.945 . S
O37 C26 1.262 1_655 S
O38 Zn17 1.981 . S
O38 C26 1.245 . S
C39 O24 1.245 1_554 S
C39 O25 1.263 . S
O40 Zn6 1.945 . S
O40 C32 1.262 1_455 S
O41 Zn12 1.981 . S
O41 C32 1.245 . S
C42 O46 1.262 1_565 S
C42 O47 1.245 . S
O43 Zn12 1.945 . S
O43 C36 1.262 1_565 S
O44 Zn1 1.981 . S
O44 C36 1.245 . S
C45 O27 1.245 1_554 S
C45 O28 1.263 . S
O46 Zn17 1.945 . S
O46 C42 1.262 1_545 S
O47 Zn6 1.981 . S
O47 C42 1.245 . S
C48 O29 1.276 1_655 S
C48 O49 1.246 . S
O49 C48 1.246 . S
C50 O31 1.276 1_455 S
C50 O51 1.246 . S
O51 C50 1.246 . S
Zn52 O54 1.933 . S
Zn52 O72 1.985 . S
Zn52 O83 1.955 . S
Zn53 O54 1.911 . S
Zn53 O73 1.970 . S
Zn53 O89 1.945 . S
Zn53 O96 1.981 . S
O54 Zn52 1.933 . S
O54 Zn53 1.911 . S
O54 H55 0.841 . S
H55 O54 0.841 . S
C56 O57 1.246 . S
C56 O85 1.276 . S
O57 C56 1.246 . S
Zn58 O60 1.911 . S
Zn58 O75 1.970 . S
Zn58 O92 1.945 . S
Zn58 O99 1.981 . S
Zn59 O60 1.933 . S
Zn59 O74 1.985 . S
Zn59 O81 1.955 . S
O60 Zn58 1.911 . S
O60 Zn59 1.933 . S
O60 H61 0.841 . S
H61 O60 0.841 . S
Zn62 O63 1.933 . S
Zn62 O76 1.985 . S
Zn62 O85 1.955 . S
O63 Zn62 1.933 . S
O63 Zn64 1.911 . S
O63 H65 0.841 . S
Zn64 O63 1.911 . S
Zn64 O77 1.970 . S
Zn64 O93 1.981 . S
Zn64 O95 1.945 . S
H65 O63 0.841 . S
Zn66 O67 1.933 . S
Zn66 O79 1.985 . S
Zn66 O87 1.955 . S
O67 Zn66 1.933 . S
O67 H68 0.841 . S
O67 Zn69 1.911 . S
H68 O67 0.841 . S
Zn69 O67 1.911 . S
Zn69 O80 1.970 . S
Zn69 O90 1.981 . S
Zn69 O98 1.945 . S
C70 O71 1.246 . S
C70 O87 1.276 . S
O71 C70 1.246 . S
O72 Zn52 1.985 . S
O72 C82 1.245 . S
O73 Zn53 1.970 . S
O73 C82 1.263 . S
O74 Zn59 1.985 . S
O74 C86 1.245 . S
O75 Zn58 1.970 . S
O75 C86 1.263 . S
O76 Zn62 1.985 . S
O76 C91 1.245 . S
O77 Zn64 1.970 . S
O77 C91 1.263 . S
C78 O89 1.262 . S
C78 O90 1.245 . S
O79 Zn66 1.985 . S
O79 C97 1.245 . S
O80 Zn69 1.970 . S
O80 C97 1.263 . S
O81 Zn59 1.955 . S
O81 C100 1.276 . S
C82 O72 1.245 . S
C82 O73 1.263 . S
O83 Zn52 1.955 . S
O83 C102 1.276 . S
C84 O92 1.262 . S
C84 O93 1.245 . S
O85 C56 1.276 . S
O85 Zn62 1.955 . S
C86 O74 1.245 . S
C86 O75 1.263 . S
O87 Zn66 1.955 . S
O87 C70 1.276 . S
C88 O95 1.262 . S
C88 O96 1.245 . S
O89 Zn53 1.945 . S
O89 C78 1.262 . S
O90 Zn69 1.981 . S
O90 C78 1.245 . S
C91 O76 1.245 . S
C91 O77 1.263 . S
O92 Zn58 1.945 . S
O92 C84 1.262 . S
O93 Zn64 1.981 . S
O93 C84 1.245 . S
C94 O98 1.262 . S
C94 O99 1.245 . S
O95 Zn64 1.945 . S
O95 C88 1.262 . S
O96 Zn53 1.981 . S
O96 C88 1.245 . S
C97 O79 1.245 . S
C97 O80 1.263 . S
O98 Zn69 1.945 . S
O98 C94 1.262 . S
O99 Zn58 1.981 . S
O99 C94 1.245 . S
C100 O81 1.276 . S
C100 O101 1.246 . S
O101 C100 1.246 . S
C102 O83 1.276 . S
C102 O103 1.246 . S
O103 C102 1.246 . S
H104 C107 0.929 . S
H105 C110 0.929 . S
H106 C112 0.930 . S
C107 H104 0.929 . S
C107 C108 1.398 1_554 S
C107 C109 1.396 . S
C108 C107 1.398 1_556 S
C108 C112 1.407 . S
C109 C107 1.396 . S
C109 C110 1.394 . S
C110 H105 0.929 . S
C110 C109 1.394 . S
C110 C111 1.382 1_554 S
C111 C110 1.382 1_556 S
C111 C112 1.392 . S
C111 N113 1.420 . S
C112 H106 0.930 . S
C112 C108 1.407 . S
C112 C111 1.392 . S
N113 C111 1.420 . S
N113 C114 1.244 1_556 S
C114 N113 1.244 1_554 S
H115 C118 0.929 . S
H116 C121 0.929 . S
H117 C123 0.930 . S
C118 H115 0.929 . S
C118 C119 1.398 1_554 S
C118 C120 1.396 . S
C119 C118 1.398 1_556 S
C119 C123 1.407 . S
C120 C118 1.396 . S
C120 C121 1.394 . S
C121 H116 0.929 . S
C121 C120 1.394 . S
C121 C122 1.382 1_554 S
C122 C121 1.382 1_556 S
C122 C123 1.392 . S
C122 N124 1.420 . S
C123 H117 0.930 . S
C123 C119 1.407 . S
C123 C122 1.392 . S
N124 C122 1.420 . S
N124 C125 1.244 1_556 S
C125 N124 1.244 1_554 S
H126 C129 0.929 . S
H127 C132 0.929 . S
H128 C134 0.930 . S
C129 H126 0.929 . S
C129 C130 1.398 . S
C129 C131 1.396 1_554 S
C130 C129 1.398 . S
C130 C134 1.407 . S
C131 C129 1.396 1_556 S
C131 C132 1.394 . S
C132 H127 0.929 . S
C132 C131 1.394 . S
C132 C133 1.382 1_556 S
C133 C132 1.382 1_554 S
C133 C134 1.392 . S
C133 N135 1.420 . S
C134 H128 0.930 . S
C134 C130 1.407 . S
C134 C133 1.392 . S
N135 C133 1.420 . S
N135 C136 1.244 1_554 S
C136 N135 1.244 1_556 S
H137 C140 0.929 1_556 S
H138 C143 0.929 . S
H139 C145 0.930 . S
C140 H137 0.929 1_554 S
C140 C141 1.398 . S
C140 C142 1.396 1_554 S
C141 C140 1.398 . S
C141 C145 1.407 . S
C142 C140 1.396 1_556 S
C142 C143 1.394 . S
C143 H138 0.929 . S
C143 C142 1.394 . S
C143 C144 1.382 1_556 S
C144 C143 1.382 1_554 S
C144 C145 1.392 . S
C144 N146 1.420 . S
C145 H139 0.930 . S
C145 C141 1.407 . S
C145 C144 1.392 . S
N146 C144 1.420 . S
N146 C147 1.244 1_554 S
C147 N146 1.244 1_556 S
H148 C151 0.929 1_455 S
H149 C154 0.929 . S
H150 C156 0.930 . S
C151 H148 0.929 1_655 S
C151 C152 1.398 . S
C151 C153 1.396 . S
C152 C151 1.398 . S
C152 C156 1.407 . S
C153 C151 1.396 . S
C153 C154 1.394 . S
C154 H149 0.929 . S
C154 C153 1.394 . S
C154 C155 1.382 . S
C155 C154 1.382 . S
C155 C156 1.392 . S
C155 N157 1.420 . S
C156 H150 0.930 . S
C156 C152 1.407 . S
C156 C155 1.392 . S
N157 C155 1.420 . S
N157 C158 1.244 . S
C158 N157 1.244 . S
H159 C162 0.929 1_545 S
H160 C165 0.929 . S
H161 C167 0.930 . S
C162 H159 0.929 1_565 S
C162 C163 1.398 . S
C162 C164 1.396 . S
C163 C162 1.398 . S
C163 C167 1.407 . S
C164 C162 1.396 . S
C164 C165 1.394 . S
C165 H160 0.929 . S
C165 C164 1.394 . S
C165 C166 1.382 . S
C166 C165 1.382 . S
C166 C167 1.392 . S
C166 N168 1.420 . S
C167 H161 0.930 . S
C167 C163 1.407 . S
C167 C166 1.392 . S
N168 C166 1.420 . S
N168 C169 1.244 . S
C169 N168 1.244 . S
H170 C173 0.929 . S
H171 C176 0.929 . S
H172 C178 0.930 . S
C173 H170 0.929 . S
C173 C174 1.398 . S
C173 C175 1.396 . S
C174 C173 1.398 . S
C174 C178 1.407 . S
C175 C173 1.396 . S
C175 C176 1.394 . S
C176 H171 0.929 . S
C176 C175 1.394 . S
C176 C177 1.382 . S
C177 C176 1.382 . S
C177 C178 1.392 . S
C177 N179 1.420 . S
C178 H172 0.930 . S
C178 C174 1.407 . S
C178 C177 1.392 . S
N179 C177 1.420 . S
N179 C180 1.244 . S
C180 N179 1.244 . S
H181 C184 0.929 1_565 S
H182 C187 0.929 . S
H183 C189 0.930 . S
C184 H181 0.929 1_545 S
C184 C185 1.398 . S
C184 C186 1.396 . S
C185 C184 1.398 . S
C185 C189 1.407 . S
C186 C184 1.396 . S
C186 C187 1.394 . S
C187 H182 0.929 . S
C187 C186 1.394 . S
C187 C188 1.382 . S
C188 C187 1.382 . S
C188 C189 1.392 . S
C188 N190 1.420 . S
C189 H183 0.930 . S
C189 C185 1.407 . S
C189 C188 1.392 . S
N190 C188 1.420 . S
N190 C191 1.244 . S
C191 N190 1.244 . S
C45 C114 1.588 . S
C30 C125 1.603 . S
C39 C136 1.563 1_554 S
C147 C34 1.571 1_556 S
C97 C158 1.578 . S
C169 C82 1.585 . S
C180 C91 1.574 . S
C191 C86 1.619 . S
C175 C26 1.529 . S
C185 C36 1.415 . S
C152 C32 1.530 . S
C163 C42 1.486 . S
C18 C164 1.599 . S
C174 C50 1.565 . S
C4 C186 1.664 . S
C48 C153 1.533 . S
C131 C78 1.501 . S
C88 C142 1.517 . S
C108 C84 1.475 . S
C119 C94 1.464 . S
C120 C70 1.614 . S
C130 C102 1.596 . S
C56 C141 1.565 . S
C100 C109 1.584 . S
