# Generated by pormake.
# Topology tsx, (6,3)-cn, num edge types: 1
# Building blocks:
#     Node 0, Type 0, BuildingBlock: JUFBIX_clean_sbu_0, # of connection points: 6
#     Node 1, Type 0, BuildingBlock: JUFBIX_clean_sbu_0, # of connection points: 6
#     Node 2, Type 1, BuildingBlock: MIDCAF_clean_linker_0, # of connection points: 3
#     Node 3, Type 1, BuildingBlock: MIDCAF_clean_linker_0, # of connection points: 3
#     Node 4, Type 1, BuildingBlock: MIDCAF_clean_linker_0, # of connection points: 3
#     Node 5, Type 1, BuildingBlock: MIDCAF_clean_linker_0, # of connection points: 3
#     Edge 6, Type (0, 1), None
#     Edge 7, Type (0, 1), None
#     Edge 8, Type (0, 1), None
#     Edge 9, Type (0, 1), None
#     Edge 10, Type (0, 1), None
#     Edge 11, Type (0, 1), None
#     Edge 12, Type (0, 1), None
#     Edge 13, Type (0, 1), None
#     Edge 14, Type (0, 1), None
#     Edge 15, Type (0, 1), None
#     Edge 16, Type (0, 1), None
#     Edge 17, Type (0, 1), None
# Relax obj value: 0.163
# Max RMSD: 0.174
# Mean RMSD: 0.144
data_MOF--net-tsx--node1-JUFBIX_clean_sbu_0--node2-MIDCAF_clean_linker_0--edge1-none
_symmetry_space_group_name_H-M    P1
_symmetry_Int_Tables_number       1
_symmetry_cell_setting            triclinic
loop_
_symmetry_equiv_pos_as_xyz
'x, y, z'
_cell_length_a     12.771659
_cell_length_b     16.287882
_cell_length_c     24.943607
_cell_angle_alpha  92.880688
_cell_angle_beta   87.536598
_cell_angle_gamma 104.30276
loop_
_atom_site_label
_atom_site_type_symbol
_atom_site_fract_x
_atom_site_fract_y
_atom_site_fract_z
_atom_type_partial_charge
Co0 Co 0.11957 0.97073 -0.01244 0.0
C1 C 0.04602 0.0123 0.89085 0.0
Co2 Co 0.99914 0.04822 -0.00425 0.0
C3 C 0.23884 0.83594 -0.01386 0.0
C4 C 0.32585 0.95096 0.95074 0.0
N5 N 0.23096 0.91512 -0.02416 0.0
N6 N 0.33573 0.82242 0.96917 0.0
C7 C 0.39001 0.89493 0.94698 0.0
H8 H 0.17457 0.7889 0.00487 0.0
H9 H 0.34653 0.01326 0.93427 0.0
C10 C 0.07195 0.00593 0.09226 0.0
N11 N 0.89138 0.10562 0.007 0.0
C12 C 0.86654 0.16202 -0.02491 0.0
C13 C 0.82147 0.10117 0.04961 0.0
N14 N 0.78488 0.1932 -0.00369 0.0
C15 C 0.75635 0.15565 0.04331 0.0
C16 C 0.91407 0.87176 -0.00442 0.0
O17 O 0.12762 0.96552 0.06281 0.0
O18 O 1.01398 0.0472 0.07053 0.0
O19 O 0.8939 0.94445 -0.00121 0.0
O20 O 1.01124 0.86603 -0.01286 0.0
O21 O 0.98652 0.04853 0.92069 0.0
H22 H 0.81776 0.06079 0.08312 0.0
H23 H 0.90843 0.18093 0.93734 0.0
O24 O 0.10999 0.97551 0.91194 0.0
O25 O 0.22507 0.07774 -0.00958 0.0
O26 O 0.10376 0.15222 -0.00614 0.0
C27 C 0.20205 0.14943 -0.00689 0.0
H28 H 0.4687 0.90535 0.92683 0.0
H29 H 0.69191 0.16583 0.07048 0.0
Co30 Co 0.61978 0.47081 0.48757 0.0
C31 C 0.5462 0.51233 0.39085 0.0
Co32 Co 0.49935 0.5483 0.49575 0.0
C33 C 0.739 0.33598 0.48614 0.0
C34 C 0.82609 0.45102 0.45079 0.0
N35 N 0.73116 0.41518 0.47586 0.0
N36 N 0.83588 0.32245 0.4692 0.0
C37 C 0.89022 0.39497 0.44704 0.0
H38 H 0.67468 0.28894 0.50485 0.0
H39 H 0.84683 0.51333 0.43434 0.0
C40 C 0.57219 0.50606 0.59227 0.0
N41 N 0.3916 0.60571 0.507 0.0
C42 C 0.36677 0.66211 0.47508 0.0
C43 C 0.3217 0.60128 0.54962 0.0
N44 N 0.28512 0.6933 0.4963 0.0
C45 C 0.2566 0.65577 0.54331 0.0
C46 C 0.41428 0.37184 0.49561 0.0
O47 O 0.62784 0.46563 0.56282 0.0
O48 O 0.51422 0.54732 0.57053 0.0
O49 O 0.39411 0.44453 0.49882 0.0
O50 O 0.51144 0.36612 0.48716 0.0
O51 O 0.4867 0.54857 0.42069 0.0
H52 H 0.318 0.56091 0.58313 0.0
H53 H 0.40865 0.681 0.43733 0.0
O54 O 0.61018 0.47555 0.41195 0.0
O55 O 0.72528 0.57782 0.49041 0.0
O56 O 0.60397 0.65229 0.49384 0.0
C57 C 0.70227 0.64951 0.49309 0.0
H58 H 0.96894 0.40538 0.42691 0.0
H59 H 0.19216 0.66596 0.57048 0.0
C60 C 0.80005 0.16625 0.45598 0.0
C61 C 0.8721 0.24518 0.46702 0.0
C62 C 0.98349 0.24964 0.46731 0.0
C63 C 1.02276 0.17901 0.45208 0.0
H64 H 0.15855 0.93378 0.50473 0.0
H65 H 0.23636 0.83035 0.54568 0.0
H66 H 0.22692 0.69052 0.39401 0.0
H67 H 0.1421 0.79029 0.35375 0.0
H68 H 0.15122 0.89954 0.25048 0.0
H69 H 0.16459 0.90945 0.15316 0.0
H70 H 0.97133 0.09373 0.16437 0.0
H71 H 0.95776 0.08403 0.26109 0.0
H72 H 0.78363 0.03651 0.42843 0.0
H73 H 0.71404 0.16109 0.45478 0.0
H74 H 1.04095 0.30942 0.4759 0.0
H75 H 0.10919 0.18654 0.44738 0.0
N76 N 0.04324 0.98427 0.43183 0.0
N77 N 0.09102 0.93177 0.34728 0.0
N78 N 0.9972 0.03833 0.35299 0.0
C79 C 0.09005 0.93002 0.40162 0.0
C80 C 0.0455 0.98595 0.32269 0.0
C81 C 0.99502 0.03746 0.40729 0.0
C82 C 0.14075 0.8694 0.42656 0.0
C83 C 0.16956 0.87987 0.48058 0.0
C84 C 0.21538 0.8213 0.50383 0.0
C85 C 0.23678 0.75284 0.47282 0.0
C86 C 0.21114 0.74325 0.41848 0.0
C87 C 0.16268 0.80048 0.39564 0.0
C88 C 0.05287 0.99069 0.26364 0.0
C89 C 0.11151 0.94216 0.23218 0.0
C90 C 0.11979 0.9481 0.17643 0.0
C91 C 0.06927 0.00242 0.15118 0.0
C92 C 1.0113 0.05123 0.18264 0.0
C93 C 1.00326 0.0455 0.23821 0.0
C94 C 0.95159 0.10182 0.43773 0.0
C95 C 0.83974 0.09513 0.44093 0.0
C96 C 0.77127 0.8075 0.49395 0.0
C97 C 0.78677 0.72748 0.50475 0.0
C98 C 0.87639 0.72283 0.53415 0.0
C99 C 0.9438 0.79641 0.55622 0.0
H100 H 0.26356 0.08176 0.50763 0.0
H101 H 0.39926 0.20253 0.47144 0.0
H102 H 0.23545 0.37425 0.55732 0.0
H103 H 0.10423 0.25429 0.59482 0.0
H104 H 1.01957 0.14481 0.73358 0.0
H105 H 1.01908 0.14099 0.83183 0.0
H106 H 0.06506 0.88679 0.8182 0.0
H107 H 0.06052 0.88919 0.72021 0.0
H108 H 0.8254 0.94237 0.50788 0.0
H109 H 0.70269 0.81271 0.47144 0.0
H110 H 0.89001 0.66207 0.54337 0.0
H111 H 1.00853 0.7911 0.58151 0.0
N112 N 0.04355 0.0203 0.55204 0.0
N113 N 0.09734 0.08818 0.63527 0.0
N114 N 0.98598 0.95014 0.63201 0.0
C115 C 0.10088 0.08839 0.58081 0.0
C116 C 1.04002 0.01905 0.66097 0.0
C117 C 0.98587 0.95107 0.57769 0.0
C118 C 0.17379 0.15942 0.55372 0.0
C119 C 0.25634 0.14554 0.51791 0.0
C120 C 0.33379 0.21437 0.4973 0.0
C121 C 0.32763 0.2977 0.51119 0.0
C122 C 0.24195 0.31079 0.54531 0.0
C123 C 0.16702 0.24238 0.5671 0.0
C124 C 1.03997 0.01726 0.71977 0.0
C125 C 1.02899 0.08816 0.75179 0.0
C126 C 1.02819 0.08581 0.80773 0.0
C127 C 0.04218 0.01363 0.83217 0.0
C128 C 0.05445 0.94316 0.80008 0.0
C129 C 0.0515 0.94444 0.74427 0.0
C130 C 0.92528 0.87593 0.54751 0.0
C131 C 0.84117 0.88144 0.51464 0.0
C132 C 0.29997 0.66622 0.95601 0.0
C133 C 0.372 0.74517 0.96701 0.0
C134 C 0.48341 0.74968 0.96726 0.0
C135 C 0.5227 0.67906 0.95203 0.0
H136 H 0.65835 0.4337 0.00475 0.0
H137 H 0.7361 0.33023 0.0457 0.0
H138 H 0.72669 0.19044 0.89402 0.0
H139 H 0.64192 0.29025 0.85376 0.0
H140 H 0.6513 0.3996 0.7505 0.0
H141 H 0.66474 0.40952 0.65317 0.0
H142 H 0.47167 0.59394 0.66437 0.0
H143 H 0.45803 0.58423 0.76108 0.0
H144 H 0.28359 0.53646 0.9285 0.0
H145 H 0.21395 0.66102 0.95484 0.0
H146 H 0.54084 0.80948 -0.02419 0.0
H147 H 0.60914 0.68662 0.94731 0.0
N148 N 0.54312 0.48424 0.93184 0.0
N149 N 0.59101 0.4318 0.84729 0.0
N150 N 0.49727 0.53841 0.85299 0.0
C151 C 0.58994 0.42999 0.90162 0.0
C152 C 0.54558 0.48603 0.82269 0.0
C153 C 0.49499 0.53748 0.90729 0.0
C154 C 0.64057 0.36934 0.92657 0.0
C155 C 0.66935 0.37978 -0.0194 0.0
C156 C 0.71514 0.32119 0.00384 0.0
C157 C 0.73654 0.25273 0.97283 0.0
C158 C 0.71091 0.24317 0.91849 0.0
C159 C 0.66249 0.30042 0.89565 0.0
C160 C 0.55304 0.49081 0.76364 0.0
C161 C 0.61165 0.44225 0.73219 0.0
C162 C 0.61997 0.4482 0.67645 0.0
C163 C 0.56951 0.50256 0.65119 0.0
C164 C 0.51158 0.55141 0.68265 0.0
C165 C 0.50351 0.54567 0.73821 0.0
C166 C 0.45155 0.60184 0.93773 0.0
C167 C 0.33969 0.59511 0.94097 0.0
C168 C 0.27109 0.30742 -0.00602 0.0
C169 C 0.28656 0.2274 0.00479 0.0
C170 C 0.37615 0.22274 0.0342 0.0
C171 C 0.44357 0.29632 0.05627 0.0
H172 H 0.76337 0.58168 0.00761 0.0
H173 H 0.89905 0.70245 0.9714 0.0
H174 H 0.73524 0.87416 0.05728 0.0
H175 H 0.60403 0.7542 0.09479 0.0
H176 H 0.51957 0.64476 0.23358 0.0
H177 H 0.51918 0.64099 0.33183 0.0
H178 H 0.56522 0.3868 0.31821 0.0
H179 H 0.56057 0.38915 0.22023 0.0
H180 H 0.32526 0.44229 0.00789 0.0
H181 H 0.20252 0.31265 0.97146 0.0
H182 H 0.38975 0.16198 0.04343 0.0
H183 H 0.50829 0.291 0.08157 0.0
N184 N 0.54335 0.52022 0.05205 0.0
N185 N 0.59725 0.58811 0.13526 0.0
N186 N 0.4859 0.45007 0.13203 0.0
C187 C 0.60072 0.58831 0.0808 0.0
C188 C 0.53997 0.51898 0.16098 0.0
C189 C 0.48571 0.45099 0.07772 0.0
C190 C 0.67359 0.65934 0.05369 0.0
C191 C 0.75614 0.64545 0.01788 0.0
C192 C 0.83359 0.71428 -0.00273 0.0
C193 C 0.82742 0.79762 0.01115 0.0
C194 C 0.74174 0.81071 0.04527 0.0
C195 C 0.66682 0.7423 0.06707 0.0
C196 C 0.53999 0.51722 0.21977 0.0
C197 C 0.52902 0.58812 0.25179 0.0
C198 C 0.52829 0.5858 0.30773 0.0
C199 C 0.54232 0.51364 0.33217 0.0
C200 C 0.55458 0.44316 0.30009 0.0
C201 C 0.55156 0.44441 0.24428 0.0
C202 C 0.42509 0.37584 0.04755 0.0
C203 C 0.341 0.38136 0.01466 0.0
loop_
_geom_bond_atom_site_label_1
_geom_bond_atom_site_label_2
_geom_bond_distance
_geom_bond_site_symmetry_2
_ccdc_geom_bond_type
Co0 N5 2.057 . S
Co0 O17 2.021 . S
Co0 O20 2.062 1_455 S
Co0 O24 2.117 1_554 S
Co0 O25 2.020 1_565 S
C1 O21 1.252 1_455 S
C1 O24 1.265 1_545 S
Co2 N11 2.057 . S
Co2 O18 2.117 . S
Co2 O19 2.020 1_545 S
Co2 O21 2.021 1_554 S
Co2 O26 2.062 1_655 S
C3 N5 1.316 . S
C3 N6 1.347 . S
C3 H8 0.931 . S
C4 N5 1.375 1_556 S
C4 C7 1.350 . S
C4 H9 0.930 . S
N5 Co0 2.057 . S
N5 C3 1.316 . S
N5 C4 1.375 1_554 S
N6 C3 1.347 . S
N6 C7 1.373 1_554 S
C7 C4 1.350 . S
C7 N6 1.373 1_556 S
C7 H28 0.931 . S
H8 C3 0.931 . S
H9 C4 0.930 . S
C10 O17 1.259 1_545 S
C10 O18 1.258 1_455 S
N11 Co2 2.057 . S
N11 C12 1.316 . S
N11 C13 1.375 . S
C12 N11 1.316 . S
C12 N14 1.347 . S
C12 H23 0.931 1_554 S
C13 N11 1.375 . S
C13 C15 1.350 . S
C13 H22 0.930 . S
N14 C12 1.347 . S
N14 C15 1.373 . S
C15 C13 1.350 . S
C15 N14 1.373 . S
C15 H29 0.931 . S
C16 O19 1.256 . S
C16 O20 1.255 . S
O17 Co0 2.021 . S
O17 C10 1.259 1_565 S
O18 Co2 2.117 . S
O18 C10 1.258 1_655 S
O19 Co2 2.020 1_565 S
O19 C16 1.256 . S
O20 Co0 2.062 1_655 S
O20 C16 1.255 . S
O21 C1 1.252 1_655 S
O21 Co2 2.021 1_556 S
H22 C13 0.930 . S
H23 C12 0.931 1_556 S
O24 Co0 2.117 1_556 S
O24 C1 1.265 1_565 S
O25 Co0 2.020 1_545 S
O25 C27 1.256 . S
O26 Co2 2.062 1_455 S
O26 C27 1.255 . S
C27 O25 1.256 . S
C27 O26 1.255 . S
H28 C7 0.931 . S
H29 C15 0.931 . S
Co30 N35 2.057 . S
Co30 O47 2.021 . S
Co30 O50 2.062 . S
Co30 O54 2.117 . S
Co30 O55 2.020 . S
C31 O51 1.259 . S
C31 O54 1.258 . S
Co32 N41 2.057 . S
Co32 O48 2.117 . S
Co32 O49 2.020 . S
Co32 O51 2.021 . S
Co32 O56 2.062 . S
C33 N35 1.316 . S
C33 N36 1.347 . S
C33 H38 0.931 . S
C34 N35 1.375 . S
C34 C37 1.350 . S
C34 H39 0.930 . S
N35 Co30 2.057 . S
N35 C33 1.316 . S
N35 C34 1.375 . S
N36 C33 1.347 . S
N36 C37 1.373 . S
C37 C34 1.350 . S
C37 N36 1.373 . S
C37 H58 0.931 . S
H38 C33 0.931 . S
H39 C34 0.930 . S
C40 O47 1.259 . S
C40 O48 1.258 . S
N41 Co32 2.057 . S
N41 C42 1.316 . S
N41 C43 1.375 . S
C42 N41 1.316 . S
C42 N44 1.347 . S
C42 H53 0.931 . S
C43 N41 1.375 . S
C43 C45 1.350 . S
C43 H52 0.930 . S
N44 C42 1.347 . S
N44 C45 1.373 . S
C45 C43 1.350 . S
C45 N44 1.373 . S
C45 H59 0.931 . S
C46 O49 1.256 . S
C46 O50 1.255 . S
O47 Co30 2.021 . S
O47 C40 1.259 . S
O48 Co32 2.117 . S
O48 C40 1.258 . S
O49 Co32 2.020 . S
O49 C46 1.256 . S
O50 Co30 2.062 . S
O50 C46 1.255 . S
O51 C31 1.259 . S
O51 Co32 2.021 . S
H52 C43 0.930 . S
H53 C42 0.931 . S
O54 Co30 2.117 . S
O54 C31 1.258 . S
O55 Co30 2.020 . S
O55 C57 1.256 . S
O56 Co32 2.062 . S
O56 C57 1.255 . S
C57 O55 1.256 . S
C57 O56 1.255 . S
H58 C37 0.931 . S
H59 C45 0.931 . S
C60 C61 1.384 . S
C60 H73 0.947 . S
C60 C95 1.382 . S
C61 C60 1.384 . S
C61 C62 1.378 . S
C62 C61 1.378 . S
C62 C63 1.378 . S
C62 H74 0.952 . S
C63 C62 1.378 . S
C63 H75 0.950 . S
C63 C94 1.383 . S
H64 C83 0.947 . S
H65 C84 0.946 . S
H66 C86 0.953 . S
H67 C87 0.945 . S
H68 C89 0.952 . S
H69 C90 0.949 . S
H70 C92 0.950 . S
H71 C93 0.948 . S
H72 C95 0.951 . S
H73 C60 0.947 . S
H74 C62 0.952 . S
H75 C63 0.950 . S
N76 C79 1.382 1_545 S
N76 C81 1.363 1_455 S
N77 C79 1.371 . S
N77 C80 1.372 1_565 S
N78 C80 1.361 1_655 S
N78 C81 1.377 . S
C79 N76 1.382 1_565 S
C79 N77 1.371 . S
C79 C82 1.480 . S
C80 N77 1.372 1_545 S
C80 N78 1.361 1_455 S
C80 C88 1.457 . S
C81 N76 1.363 1_655 S
C81 N78 1.377 . S
C81 C94 1.479 . S
C82 C79 1.480 . S
C82 C83 1.383 . S
C82 C87 1.385 . S
C83 H64 0.947 . S
C83 C82 1.383 . S
C83 C84 1.388 . S
C84 H65 0.946 . S
C84 C83 1.388 . S
C84 C85 1.384 . S
C85 C84 1.384 . S
C85 C86 1.377 . S
C86 H66 0.953 . S
C86 C85 1.377 . S
C86 C87 1.369 . S
C87 H67 0.945 . S
C87 C82 1.385 . S
C87 C86 1.369 . S
C88 C80 1.457 . S
C88 C89 1.372 1_545 S
C88 C93 1.364 1_455 S
C89 H68 0.952 . S
C89 C88 1.372 1_565 S
C89 C90 1.389 . S
C90 H69 0.949 . S
C90 C89 1.389 . S
C90 C91 1.387 1_565 S
C91 C90 1.387 1_545 S
C91 C92 1.372 1_455 S
C92 H70 0.950 . S
C92 C91 1.372 1_655 S
C92 C93 1.379 . S
C93 H71 0.948 . S
C93 C88 1.364 1_655 S
C93 C92 1.379 . S
C94 C63 1.383 . S
C94 C81 1.479 . S
C94 C95 1.398 . S
C95 C60 1.382 . S
C95 H72 0.951 . S
C95 C94 1.398 . S
C96 C97 1.384 . S
C96 H109 0.947 . S
C96 C131 1.382 . S
C97 C96 1.384 . S
C97 C98 1.378 . S
C98 C97 1.378 . S
C98 C99 1.378 . S
C98 H110 0.952 . S
C99 C98 1.378 . S
C99 H111 0.950 . S
C99 C130 1.383 . S
H100 C119 0.947 . S
H101 C120 0.946 . S
H102 C122 0.953 . S
H103 C123 0.945 . S
H104 C125 0.952 . S
H105 C126 0.949 . S
H106 C128 0.950 . S
H107 C129 0.948 . S
H108 C131 0.951 . S
H109 C96 0.947 . S
H110 C98 0.952 . S
H111 C99 0.950 . S
N112 C115 1.382 . S
N112 C117 1.363 1_445 S
N113 C115 1.371 . S
N113 C116 1.372 . S
N114 C116 1.361 1_665 S
N114 C117 1.377 . S
C115 N112 1.382 . S
C115 N113 1.371 . S
C115 C118 1.480 . S
C116 N113 1.372 . S
C116 N114 1.361 1_445 S
C116 C124 1.457 . S
C117 N112 1.363 1_665 S
C117 N114 1.377 . S
C117 C130 1.479 . S
C118 C115 1.480 . S
C118 C119 1.383 . S
C118 C123 1.385 . S
C119 H100 0.947 . S
C119 C118 1.383 . S
C119 C120 1.388 . S
C120 H101 0.946 . S
C120 C119 1.388 . S
C120 C121 1.384 . S
C121 C120 1.384 . S
C121 C122 1.377 . S
C122 H102 0.953 . S
C122 C121 1.377 . S
C122 C123 1.369 . S
C123 H103 0.945 . S
C123 C118 1.385 . S
C123 C122 1.369 . S
C124 C116 1.457 . S
C124 C125 1.372 . S
C124 C129 1.364 1_445 S
C125 H104 0.952 . S
C125 C124 1.372 . S
C125 C126 1.389 . S
C126 H105 0.949 . S
C126 C125 1.389 . S
C126 C127 1.387 . S
C127 C126 1.387 . S
C127 C128 1.372 1_445 S
C128 H106 0.950 . S
C128 C127 1.372 1_665 S
C128 C129 1.379 . S
C129 H107 0.948 . S
C129 C124 1.364 1_665 S
C129 C128 1.379 . S
C130 C99 1.383 . S
C130 C117 1.479 . S
C130 C131 1.398 . S
C131 C96 1.382 . S
C131 H108 0.951 . S
C131 C130 1.398 . S
C132 C133 1.384 1_556 S
C132 H145 0.947 . S
C132 C167 1.382 . S
C133 C132 1.384 1_554 S
C133 C134 1.378 . S
C134 C133 1.378 . S
C134 C135 1.378 . S
C134 H146 0.952 . S
C135 C134 1.378 . S
C135 H147 0.950 . S
C135 C166 1.383 1_554 S
H136 C155 0.947 . S
H137 C156 0.946 . S
H138 C158 0.953 . S
H139 C159 0.945 . S
H140 C161 0.952 . S
H141 C162 0.949 . S
H142 C164 0.950 . S
H143 C165 0.948 . S
H144 C167 0.951 . S
H145 C132 0.947 . S
H146 C134 0.952 . S
H147 C135 0.950 . S
N148 C151 1.382 . S
N148 C153 1.363 . S
N149 C151 1.371 . S
N149 C152 1.372 . S
N150 C152 1.361 . S
N150 C153 1.377 . S
C151 N148 1.382 . S
C151 N149 1.371 . S
C151 C154 1.480 . S
C152 N149 1.372 . S
C152 N150 1.361 . S
C152 C160 1.457 . S
C153 N148 1.363 . S
C153 N150 1.377 . S
C153 C166 1.479 . S
C154 C151 1.480 . S
C154 C155 1.383 1_556 S
C154 C159 1.385 . S
C155 H136 0.947 . S
C155 C154 1.383 1_554 S
C155 C156 1.388 . S
C156 H137 0.946 . S
C156 C155 1.388 . S
C156 C157 1.384 . S
C157 C156 1.384 . S
C157 C158 1.377 1_554 S
C158 H138 0.953 . S
C158 C157 1.377 1_556 S
C158 C159 1.369 . S
C159 H139 0.945 . S
C159 C154 1.385 . S
C159 C158 1.369 . S
C160 C152 1.457 . S
C160 C161 1.372 . S
C160 C165 1.364 . S
C161 H140 0.952 . S
C161 C160 1.372 . S
C161 C162 1.389 . S
C162 H141 0.949 . S
C162 C161 1.389 . S
C162 C163 1.387 . S
C163 C162 1.387 . S
C163 C164 1.372 . S
C164 H142 0.950 . S
C164 C163 1.372 . S
C164 C165 1.379 . S
C165 H143 0.948 . S
C165 C160 1.364 . S
C165 C164 1.379 . S
C166 C135 1.383 1_556 S
C166 C153 1.479 . S
C166 C167 1.398 . S
C167 C132 1.382 . S
C167 H144 0.951 . S
C167 C166 1.398 . S
C168 C169 1.384 1_554 S
C168 H181 0.947 . S
C168 C203 1.382 . S
C169 C168 1.384 1_556 S
C169 C170 1.378 . S
C170 C169 1.378 . S
C170 C171 1.378 . S
C170 H182 0.952 . S
C171 C170 1.378 . S
C171 H183 0.950 . S
C171 C202 1.383 1_556 S
H172 C191 0.947 . S
H173 C192 0.946 . S
H174 C194 0.953 . S
H175 C195 0.945 . S
H176 C197 0.952 . S
H177 C198 0.949 . S
H178 C200 0.950 . S
H179 C201 0.948 . S
H180 C203 0.951 . S
H181 C168 0.947 . S
H182 C170 0.952 . S
H183 C171 0.950 . S
N184 C187 1.382 . S
N184 C189 1.363 . S
N185 C187 1.371 . S
N185 C188 1.372 . S
N186 C188 1.361 . S
N186 C189 1.377 . S
C187 N184 1.382 . S
C187 N185 1.371 . S
C187 C190 1.480 . S
C188 N185 1.372 . S
C188 N186 1.361 . S
C188 C196 1.457 . S
C189 N184 1.363 . S
C189 N186 1.377 . S
C189 C202 1.479 . S
C190 C187 1.480 . S
C190 C191 1.383 1_554 S
C190 C195 1.385 . S
C191 H172 0.947 . S
C191 C190 1.383 1_556 S
C191 C192 1.388 . S
C192 H173 0.946 . S
C192 C191 1.388 . S
C192 C193 1.384 . S
C193 C192 1.384 . S
C193 C194 1.377 1_556 S
C194 H174 0.953 . S
C194 C193 1.377 1_554 S
C194 C195 1.369 . S
C195 H175 0.945 . S
C195 C190 1.385 . S
C195 C194 1.369 . S
C196 C188 1.457 . S
C196 C197 1.372 . S
C196 C201 1.364 . S
C197 H176 0.952 . S
C197 C196 1.372 . S
C197 C198 1.389 . S
C198 H177 0.949 . S
C198 C197 1.389 . S
C198 C199 1.387 . S
C199 C198 1.387 . S
C199 C200 1.372 . S
C200 H178 0.950 . S
C200 C199 1.372 . S
C200 C201 1.379 . S
C201 H179 0.948 . S
C201 C196 1.364 . S
C201 C200 1.379 . S
C202 C171 1.383 1_554 S
C202 C189 1.479 . S
C202 C203 1.398 . S
C203 C168 1.382 . S
C203 H180 0.951 . S
C203 C202 1.398 . S
C169 C27 1.947 1_556 S
N6 C133 1.770 . S
C16 C193 1.800 1_554 S
N14 C157 1.514 . S
C57 C97 1.947 . S
N36 C61 1.771 . S
C121 C46 1.799 . S
C85 N44 1.513 . S
C10 C91 1.281 . S
C1 C127 1.588 . S
C163 C40 1.281 . S
C31 C199 1.588 . S
