# Generated by pormake.
# Topology pyr, (3,6)-cn, num edge types: 1
# Building blocks:
#     Node 0, Type 0, BuildingBlock: BETDIP_clean_linker_0, # of connection points: 3
#     Node 1, Type 0, BuildingBlock: BETDIP_clean_linker_0, # of connection points: 3
#     Node 2, Type 0, BuildingBlock: BETDIP_clean_linker_0, # of connection points: 3
#     Node 3, Type 0, BuildingBlock: BETDIP_clean_linker_0, # of connection points: 3
#     Node 4, Type 0, BuildingBlock: BETDIP_clean_linker_0, # of connection points: 3
#     Node 5, Type 0, BuildingBlock: BETDIP_clean_linker_0, # of connection points: 3
#     Node 6, Type 0, BuildingBlock: BETDIP_clean_linker_0, # of connection points: 3
#     Node 7, Type 0, BuildingBlock: BETDIP_clean_linker_0, # of connection points: 3
#     Node 8, Type 1, BuildingBlock: VOLQOD_clean_sbu_1, # of connection points: 6
#     Node 9, Type 1, BuildingBlock: VOLQOD_clean_sbu_1, # of connection points: 6
#     Node 10, Type 1, BuildingBlock: VOLQOD_clean_sbu_1, # of connection points: 6
#     Node 11, Type 1, BuildingBlock: VOLQOD_clean_sbu_1, # of connection points: 6
#     Edge 12, Type (0, 1), None
#     Edge 13, Type (0, 1), None
#     Edge 14, Type (0, 1), None
#     Edge 15, Type (0, 1), None
#     Edge 16, Type (0, 1), None
#     Edge 17, Type (0, 1), None
#     Edge 18, Type (0, 1), None
#     Edge 19, Type (0, 1), None
#     Edge 20, Type (0, 1), None
#     Edge 21, Type (0, 1), None
#     Edge 22, Type (0, 1), None
#     Edge 23, Type (0, 1), None
#     Edge 24, Type (0, 1), None
#     Edge 25, Type (0, 1), None
#     Edge 26, Type (0, 1), None
#     Edge 27, Type (0, 1), None
#     Edge 28, Type (0, 1), None
#     Edge 29, Type (0, 1), None
#     Edge 30, Type (0, 1), None
#     Edge 31, Type (0, 1), None
#     Edge 32, Type (0, 1), None
#     Edge 33, Type (0, 1), None
#     Edge 34, Type (0, 1), None
#     Edge 35, Type (0, 1), None
# Relax obj value: 0.121
# Max RMSD: 0.177
# Mean RMSD: 0.143
data_MOF--net-pry--node1-VOLQOD_clean_sbu_1--node2-BETDIP_clean_linker_0--edge1-none
_symmetry_space_group_name_H-M    P1
_symmetry_Int_Tables_number       1
_symmetry_cell_setting            triclinic
loop_
_symmetry_equiv_pos_as_xyz
'x, y, z'
_cell_length_a     16.95917
_cell_length_b     16.798058
_cell_length_c     17.852436
_cell_angle_alpha  96.307013
_cell_angle_beta   82.910646
_cell_angle_gamma 97.805709
loop_
_atom_site_label
_atom_site_type_symbol
_atom_site_fract_x
_atom_site_fract_y
_atom_site_fract_z
_atom_type_partial_charge
H0 H 0.00631 0.11462 0.23926 0.0
H1 H 0.1986 0.13098 0.05679 0.0
H2 H 0.21103 0.98973 0.23989 0.0
H3 H 0.12572 0.20078 0.00995 0.0
C4 C 0.07971 0.22366 0.05104 0.0
C5 C 0.06199 0.09575 0.21105 0.0
C6 C 0.10326 0.04586 0.24678 0.0
C7 C 0.09523 0.12784 0.14268 0.0
C8 C 0.17016 0.10605 0.10793 0.0
C9 C 0.21228 0.05523 0.14135 0.0
C10 C 0.17826 0.02625 0.21141 0.0
N11 N 0.05709 0.18943 0.1166 0.0
H12 H 0.34052 0.96352 0.76856 0.0
H13 H 0.35169 0.78303 0.58148 0.0
H14 H 0.51089 0.79141 0.75365 0.0
H15 H 0.32993 0.97831 0.56898 0.0
C16 C 0.27365 0.94868 0.59479 0.0
C17 C 0.36982 0.91395 0.73862 0.0
C18 C 0.43121 0.88468 0.7691 0.0
C19 C 0.34265 0.87723 0.67115 0.0
C20 C 0.37647 0.81129 0.63244 0.0
C21 C 0.43724 0.77881 0.66126 0.0
C22 C 0.46492 0.81641 0.72992 0.0
N23 N 0.27258 0.89851 0.64821 0.0
H24 H 0.71914 0.47536 0.8849 0.0
H25 H 0.51236 0.29632 0.89741 0.0
H26 H 0.70361 0.28818 0.03321 0.0
H27 H 0.49769 0.33357 0.78911 0.0
C28 C 0.5301 0.39251 0.77992 0.0
C29 C 0.68628 0.42304 0.90998 0.0
C30 C 0.72009 0.38619 0.96367 0.0
C31 C 0.61226 0.39126 0.88469 0.0
C32 C 0.56956 0.3222 0.91546 0.0
C33 C 0.60208 0.28395 0.96833 0.0
C34 C 0.67666 0.31776 0.99361 0.0
N35 N 0.58684 0.42684 0.82406 0.0
H36 H 0.82478 0.49276 0.41681 0.0
H37 H 0.00837 0.69406 0.40304 0.0
H38 H 0.79725 0.71379 0.55919 0.0
H39 H 0.98959 0.66519 0.28391 0.0
C40 C 0.97371 0.60049 0.27253 0.0
C41 C 0.84941 0.55234 0.43936 0.0
C42 C 0.80367 0.59749 0.49488 0.0
C43 C 0.91963 0.58831 0.40228 0.0
C44 C 0.95204 0.66592 0.42946 0.0
C45 C 0.90793 0.71097 0.48564 0.0
C46 C 0.83378 0.67682 0.51924 0.0
N47 N 0.94276 0.55436 0.32807 0.0
H48 H 0.82609 0.89341 0.02175 0.0
H49 H 0.01169 0.91506 0.83717 0.0
H50 H 0.79726 0.02648 0.8361 0.0
H51 H 0.88712 0.75325 0.89589 0.0
C52 C 0.93373 0.76363 0.9341 0.0
C53 C 0.8508 0.92036 0.97008 0.0
C54 C 0.8045 0.96522 0.93525 0.0
C55 C 0.92573 0.90309 0.93502 0.0
C56 C 0.95554 0.93279 0.86544 0.0
C57 C 0.9103 0.97801 0.82887 0.0
C58 C 0.83464 -0.00495 0.86485 0.0
N59 N 0.96054 0.83957 0.95909 0.0
H60 H 0.63516 0.0044 0.32443 0.0
H61 H 0.63563 0.20023 0.50184 0.0
H62 H 0.50951 0.20665 0.30923 0.0
H63 H 0.70803 0.12832 0.55264 0.0
C64 C 0.73326 0.08455 0.51038 0.0
C65 C 0.61405 0.06046 0.34977 0.0
C66 C 0.56696 0.09965 0.31071 0.0
C67 C 0.63991 0.09576 0.41824 0.0
C68 C 0.61492 0.17024 0.44986 0.0
C69 C 0.5672 0.21004 0.4111 0.0
C70 C 0.54397 0.17495 0.34085 0.0
N71 N 0.70088 0.06075 0.44567 0.0
H72 H 0.2826 0.51377 0.15884 0.0
H73 H 0.4863 0.69303 0.18437 0.0
H74 H 0.33254 0.70671 0.01344 0.0
H75 H 0.5244 0.54072 0.21429 0.0
C76 C 0.47858 0.55371 0.26063 0.0
C77 C 0.32151 0.56549 0.13862 0.0
C78 C 0.30158 0.60392 0.0785 0.0
C79 C 0.389 0.59672 0.17601 0.0
C80 C 0.43709 0.66608 0.15282 0.0
C81 C 0.41722 0.70514 0.09394 0.0
C82 C 0.34984 0.67397 0.05668 0.0
N83 N 0.40153 0.56539 0.24349 0.0
H84 H 0.99577 0.34522 0.6326 0.0
H85 H 0.186 0.53264 0.58547 0.0
H86 H 0.21581 0.28825 0.50413 0.0
H87 H 0.17931 0.46914 0.7219 0.0
C88 C 0.11807 0.48223 0.73863 0.0
C89 C 0.0525 0.36455 0.60073 0.0
C90 C 0.09857 0.30724 0.5608 0.0
C91 C 0.08568 0.44524 0.61142 0.0
C92 C 0.1598 0.47071 0.57292 0.0
C93 C 0.20852 0.41331 0.53911 0.0
C94 C 0.17693 0.33226 0.52994 0.0
N95 N 0.06628 0.48618 0.68265 0.0
O96 O 0.00711 0.1958 0.60111 0.0
Zn97 Zn 0.94689 0.08502 0.60974 0.0
O98 O 0.00393 0.00844 0.53756 0.0
Zn99 Zn 0.94426 0.96708 0.45159 0.0
Zn100 Zn 0.10747 0.05555 0.49057 0.0
Zn101 Zn 0.02123 0.92593 0.59908 0.0
O102 O 0.92156 0.8454 0.45446 0.0
O103 O 0.97281 0.81924 0.55744 0.0
O104 O 0.84028 0.09084 0.57712 0.0
O105 O 0.83874 0.0126 0.46801 0.0
O106 O 0.00201 -0.00047 0.34633 0.0
O107 O 0.12435 0.04354 0.37568 0.0
O108 O 0.20035 0.01702 0.52937 0.0
O109 O 0.92333 0.0562 0.72089 0.0
O110 O 0.13731 0.92486 0.60335 0.0
O111 O 0.97327 0.94001 0.70705 0.0
C112 C 0.07044 0.22062 0.55954 0.0
C113 C 0.93458 0.79669 0.50051 0.0
C114 C 0.07513 0.02607 0.32638 0.0
C115 C 0.80577 0.05992 0.51975 0.0
C116 C 0.20135 0.96396 0.57462 0.0
C117 C 0.93727 -0.00672 0.74848 0.0
O118 O 0.11202 0.17243 0.51713 0.0
O119 O 0.50128 0.16673 0.96444 0.0
Zn120 Zn 0.43984 0.0527 0.9816 0.0
O121 O 0.5058 -0.00352 0.03757 0.0
Zn122 Zn 0.54509 0.90286 0.97518 0.0
Zn123 Zn 0.60133 0.06505 0.06708 0.0
Zn124 Zn 0.44235 0.96372 0.1307 0.0
O125 O 0.50153 0.80006 0.02272 0.0
O126 O 0.42883 0.84388 0.12825 0.0
O127 O 0.42586 0.98448 0.87779 0.0
O128 O 0.50206 0.88634 0.87557 0.0
O129 O 0.66601 0.91633 0.94877 0.0
O130 O 0.70613 0.03007 0.0166 0.0
O131 O 0.60104 0.08802 0.17899 0.0
O132 O 0.32733 0.06412 0.04442 0.0
O133 O 0.48902 0.01645 0.22491 0.0
O134 O 0.33196 -0.00364 0.14321 0.0
C135 C 0.56479 0.20374 0.99088 0.0
C136 C 0.45455 0.78708 0.08267 0.0
C137 C 0.72117 0.97127 0.9682 0.0
C138 C 0.45502 0.92143 0.84426 0.0
C139 C 0.55115 0.06638 0.23425 0.0
C140 C 0.29434 0.03709 0.10694 0.0
O141 O 0.60358 0.16993 0.03165 0.0
O142 O 0.55916 0.49345 0.69882 0.0
Zn143 Zn 0.56249 0.56142 0.61094 0.0
O144 O 0.50749 0.4978 0.52803 0.0
Zn145 Zn 0.57918 0.47214 0.43765 0.0
Zn146 Zn 0.45529 0.39499 0.56106 0.0
Zn147 Zn 0.43164 0.56245 0.49922 0.0
O148 O 0.55123 0.51389 0.34364 0.0
O149 O 0.44055 0.56862 0.38642 0.0
O150 O 0.67872 0.59152 0.57283 0.0
O151 O 0.68618 0.52275 0.45853 0.0
O152 O 0.58383 0.35241 0.41116 0.0
O153 O 0.49738 0.29782 0.50041 0.0
O154 O 0.33905 0.38595 0.54883 0.0
O155 O 0.51333 0.6657 0.6503 0.0
O156 O 0.32271 0.50688 0.51781 0.0
O157 O 0.43358 0.67121 0.56183 0.0
C158 C 0.51905 0.42632 0.71464 0.0
C159 C 0.49094 0.54637 0.33192 0.0
C160 C 0.54741 0.29083 0.44169 0.0
C161 C 0.7187 0.56782 0.51114 0.0
C162 C 0.29504 0.43549 0.53186 0.0
C163 C 0.46453 0.70221 0.62182 0.0
O164 O 0.47294 0.38555 0.6693 0.0
O165 O 0.95118 0.4971 0.17834 0.0
Zn166 Zn 0.94793 0.43202 0.07559 0.0
O167 O 0.01526 0.50154 0.00566 0.0
Zn168 Zn 0.95481 0.51625 0.92597 0.0
Zn169 Zn 0.05656 0.61083 0.04382 0.0
Zn170 Zn 0.11042 0.45287 0.96911 0.0
O171 O 0.01695 0.49432 0.82873 0.0
O172 O 0.13439 0.46897 0.85877 0.0
O173 O 0.83113 0.40294 0.04165 0.0
O174 O 0.8486 0.45281 0.92985 0.0
O175 O 0.93238 0.62824 0.92619 0.0
O176 O 0.01619 0.70247 0.99912 0.0
O177 O 0.17708 0.63001 0.04502 0.0
O178 O -0.00081 0.32778 0.08138 0.0
O179 O 0.20501 0.50388 0.02523 0.0
O180 O 0.09615 0.33501 0.98539 0.0
C181 C 0.98106 0.56948 0.19793 0.0
C182 C 0.08942 0.48263 0.81062 0.0
C183 C 0.96233 0.69637 0.95438 0.0
C184 C 0.80414 0.41499 0.98013 0.0
C185 C 0.22487 0.57801 0.04621 0.0
C186 C 0.05527 0.2969 0.03799 0.0
O187 O 0.01729 0.61714 0.15096 0.0
loop_
_geom_bond_atom_site_label_1
_geom_bond_atom_site_label_2
_geom_bond_distance
_geom_bond_site_symmetry_2
_ccdc_geom_bond_type
H0 C5 0.930 . S
H1 C8 0.930 . S
H2 C10 0.930 . S
H3 C4 1.016 . S
C4 H3 1.016 . S
C4 N11 1.286 . S
C5 H0 0.930 . S
C5 C6 1.397 . S
C5 C7 1.361 . S
C6 C5 1.397 . S
C6 C10 1.390 . S
C7 C5 1.361 . S
C7 C8 1.393 . S
C7 N11 1.413 . S
C8 H1 0.930 . S
C8 C7 1.393 . S
C8 C9 1.399 . S
C9 C8 1.399 . S
C9 C10 1.381 . S
C10 H2 0.930 . S
C10 C6 1.390 . S
C10 C9 1.381 . S
N11 C4 1.286 . S
N11 C7 1.413 . S
H12 C17 0.930 . S
H13 C20 0.930 . S
H14 C22 0.930 . S
H15 C16 1.016 . S
C16 H15 1.016 . S
C16 N23 1.286 . S
C17 H12 0.930 . S
C17 C18 1.397 . S
C17 C19 1.361 . S
C18 C17 1.397 . S
C18 C22 1.390 . S
C19 C17 1.361 . S
C19 C20 1.393 . S
C19 N23 1.413 . S
C20 H13 0.930 . S
C20 C19 1.393 . S
C20 C21 1.399 . S
C21 C20 1.399 . S
C21 C22 1.381 . S
C22 H14 0.930 . S
C22 C18 1.390 . S
C22 C21 1.381 . S
N23 C16 1.286 . S
N23 C19 1.413 . S
H24 C29 0.930 . S
H25 C32 0.930 . S
H26 C34 0.930 1_554 S
H27 C28 1.016 . S
C28 H27 1.016 . S
C28 N35 1.286 . S
C29 H24 0.930 . S
C29 C30 1.397 . S
C29 C31 1.361 . S
C30 C29 1.397 . S
C30 C34 1.390 . S
C31 C29 1.361 . S
C31 C32 1.393 . S
C31 N35 1.413 . S
C32 H25 0.930 . S
C32 C31 1.393 . S
C32 C33 1.399 . S
C33 C32 1.399 . S
C33 C34 1.381 . S
C34 H26 0.930 1_556 S
C34 C30 1.390 . S
C34 C33 1.381 . S
N35 C28 1.286 . S
N35 C31 1.413 . S
H36 C41 0.930 . S
H37 C44 0.930 . S
H38 C46 0.930 . S
H39 C40 1.016 . S
C40 H39 1.016 . S
C40 N47 1.286 . S
C41 H36 0.930 . S
C41 C42 1.397 . S
C41 C43 1.361 . S
C42 C41 1.397 . S
C42 C46 1.390 . S
C43 C41 1.361 . S
C43 C44 1.393 . S
C43 N47 1.413 . S
C44 H37 0.930 . S
C44 C43 1.393 . S
C44 C45 1.399 . S
C45 C44 1.399 . S
C45 C46 1.381 . S
C46 H38 0.930 . S
C46 C42 1.390 . S
C46 C45 1.381 . S
N47 C40 1.286 . S
N47 C43 1.413 . S
H48 C53 0.930 1_554 S
H49 C56 0.930 1_455 S
H50 C58 0.930 . S
H51 C52 1.016 1_455 S
C52 H51 1.016 1_655 S
C52 N59 1.286 . S
C53 H48 0.930 1_556 S
C53 C54 1.397 1_565 S
C53 C55 1.361 . S
C54 C53 1.397 1_545 S
C54 C58 1.390 . S
C55 C53 1.361 . S
C55 C56 1.393 . S
C55 N59 1.413 . S
C56 H49 0.930 1_655 S
C56 C55 1.393 . S
C56 C57 1.399 1_565 S
C57 C56 1.399 1_545 S
C57 C58 1.381 . S
C58 H50 0.930 . S
C58 C54 1.390 . S
C58 C57 1.381 . S
N59 C52 1.286 . S
N59 C55 1.413 . S
H60 C65 0.930 1_565 S
H61 C68 0.930 . S
H62 C70 0.930 . S
H63 C64 1.016 . S
C64 H63 1.016 . S
C64 N71 1.286 . S
C65 H60 0.930 1_545 S
C65 C66 1.397 . S
C65 C67 1.361 . S
C66 C65 1.397 . S
C66 C70 1.390 . S
C67 C65 1.361 . S
C67 C68 1.393 . S
C67 N71 1.413 . S
C68 H61 0.930 . S
C68 C67 1.393 . S
C68 C69 1.399 . S
C69 C68 1.399 . S
C69 C70 1.381 . S
C70 H62 0.930 . S
C70 C66 1.390 . S
C70 C69 1.381 . S
N71 C64 1.286 . S
N71 C67 1.413 . S
H72 C77 0.930 . S
H73 C80 0.930 . S
H74 C82 0.930 1_556 S
H75 C76 1.016 . S
C76 H75 1.016 . S
C76 N83 1.286 . S
C77 H72 0.930 . S
C77 C78 1.397 . S
C77 C79 1.361 . S
C78 C77 1.397 . S
C78 C82 1.390 . S
C79 C77 1.361 . S
C79 C80 1.393 . S
C79 N83 1.413 . S
C80 H73 0.930 . S
C80 C79 1.393 . S
C80 C81 1.399 . S
C81 C80 1.399 . S
C81 C82 1.381 . S
C82 H74 0.930 1_554 S
C82 C78 1.390 . S
C82 C81 1.381 . S
N83 C76 1.286 . S
N83 C79 1.413 . S
H84 C89 0.930 . S
H85 C92 0.930 . S
H86 C94 0.930 . S
H87 C88 1.016 . S
C88 H87 1.016 . S
C88 N95 1.286 . S
C89 H84 0.930 . S
C89 C90 1.397 . S
C89 C91 1.361 . S
C90 C89 1.397 . S
C90 C94 1.390 . S
C91 C89 1.361 . S
C91 C92 1.393 . S
C91 N95 1.413 . S
C92 H85 0.930 . S
C92 C91 1.393 . S
C92 C93 1.399 . S
C93 C92 1.399 . S
C93 C94 1.381 . S
C94 H86 0.930 . S
C94 C90 1.390 . S
C94 C93 1.381 . S
N95 C88 1.286 . S
N95 C91 1.413 . S
O96 Zn97 1.953 . S
O96 C112 1.225 1_655 S
Zn97 O96 1.953 . S
Zn97 O98 1.950 1_655 S
Zn97 O104 1.919 . S
Zn97 O109 1.924 . S
O98 Zn97 1.950 1_455 S
O98 Zn99 1.922 1_445 S
O98 Zn100 1.951 . S
O98 Zn101 1.943 1_545 S
Zn99 O98 1.922 1_665 S
Zn99 O102 1.933 . S
Zn99 O105 1.941 1_565 S
Zn99 O106 1.965 1_665 S
Zn100 O98 1.951 . S
Zn100 O107 1.938 . S
Zn100 O108 1.906 1_545 S
Zn100 O118 1.953 . S
Zn101 O98 1.943 1_565 S
Zn101 O103 1.932 1_455 S
Zn101 O110 1.977 . S
Zn101 O111 1.910 1_455 S
O102 Zn99 1.933 . S
O102 C113 1.226 . S
O103 Zn101 1.932 1_655 S
O103 C113 1.307 . S
O104 Zn97 1.919 . S
O104 C115 1.253 . S
O105 Zn99 1.941 1_545 S
O105 C115 1.283 . S
O106 Zn99 1.965 1_445 S
O106 C114 1.303 . S
O107 Zn100 1.938 . S
O107 C114 1.247 . S
O108 Zn100 1.906 1_565 S
O108 C116 1.304 . S
O109 Zn97 1.924 . S
O109 C117 1.311 1_545 S
O110 Zn101 1.977 . S
O110 C116 1.272 . S
O111 Zn101 1.910 1_655 S
O111 C117 1.231 . S
C112 O96 1.225 1_455 S
C112 O118 1.298 . S
C113 O102 1.226 . S
C113 O103 1.307 . S
C114 O106 1.303 . S
C114 O107 1.247 . S
C115 O104 1.253 . S
C115 O105 1.283 . S
C116 O108 1.304 . S
C116 O110 1.272 . S
C117 O109 1.311 1_565 S
C117 O111 1.231 . S
O118 Zn100 1.953 . S
O118 C112 1.298 . S
O119 Zn120 1.953 . S
O119 C135 1.225 . S
Zn120 O119 1.953 . S
Zn120 O121 1.949 1_556 S
Zn120 O127 1.918 . S
Zn120 O132 1.924 1_556 S
O121 Zn120 1.949 1_554 S
O121 Zn122 1.923 1_544 S
O121 Zn123 1.950 . S
O121 Zn124 1.945 1_545 S
Zn122 O121 1.923 1_566 S
Zn122 O125 1.933 1_556 S
Zn122 O128 1.941 . S
Zn122 O129 1.965 . S
Zn123 O121 1.950 . S
Zn123 O130 1.938 . S
Zn123 O131 1.906 . S
Zn123 O141 1.953 . S
Zn124 O121 1.945 1_565 S
Zn124 O126 1.932 . S
Zn124 O133 1.977 1_565 S
Zn124 O134 1.910 1_565 S
O125 Zn122 1.933 1_554 S
O125 C136 1.226 . S
O126 Zn124 1.932 . S
O126 C136 1.307 . S
O127 Zn120 1.918 . S
O127 C138 1.254 1_545 S
O128 Zn122 1.941 . S
O128 C138 1.283 . S
O129 Zn122 1.965 . S
O129 C137 1.303 . S
O130 Zn123 1.938 . S
O130 C137 1.247 1_544 S
O131 Zn123 1.906 . S
O131 C139 1.304 . S
O132 Zn120 1.924 1_554 S
O132 C140 1.311 . S
O133 Zn124 1.977 1_545 S
O133 C139 1.272 . S
O134 Zn124 1.910 1_545 S
O134 C140 1.231 . S
C135 O119 1.225 . S
C135 O141 1.298 1_556 S
C136 O125 1.226 . S
C136 O126 1.307 . S
C137 O129 1.303 . S
C137 O130 1.247 1_566 S
C138 O127 1.254 1_565 S
C138 O128 1.283 . S
C139 O131 1.304 . S
C139 O133 1.272 . S
C140 O132 1.311 . S
C140 O134 1.231 . S
O141 Zn123 1.953 . S
O141 C135 1.298 1_554 S
O142 Zn143 1.953 . S
O142 C158 1.225 . S
Zn143 O142 1.953 . S
Zn143 O144 1.949 . S
Zn143 O150 1.919 . S
Zn143 O155 1.924 . S
O144 Zn143 1.949 . S
O144 Zn145 1.923 . S
O144 Zn146 1.950 . S
O144 Zn147 1.945 . S
Zn145 O144 1.923 . S
Zn145 O148 1.933 . S
Zn145 O151 1.941 . S
Zn145 O152 1.965 . S
Zn146 O144 1.950 . S
Zn146 O153 1.938 . S
Zn146 O154 1.906 . S
Zn146 O164 1.953 . S
Zn147 O144 1.945 . S
Zn147 O149 1.932 . S
Zn147 O156 1.977 . S
Zn147 O157 1.910 . S
O148 Zn145 1.933 . S
O148 C159 1.226 . S
O149 Zn147 1.932 . S
O149 C159 1.307 . S
O150 Zn143 1.919 . S
O150 C161 1.253 . S
O151 Zn145 1.941 . S
O151 C161 1.283 . S
O152 Zn145 1.965 . S
O152 C160 1.303 . S
O153 Zn146 1.938 . S
O153 C160 1.247 . S
O154 Zn146 1.906 . S
O154 C162 1.304 . S
O155 Zn143 1.924 . S
O155 C163 1.311 . S
O156 Zn147 1.977 . S
O156 C162 1.272 . S
O157 Zn147 1.910 . S
O157 C163 1.231 . S
C158 O142 1.225 . S
C158 O164 1.298 . S
C159 O148 1.226 . S
C159 O149 1.307 . S
C160 O152 1.303 . S
C160 O153 1.247 . S
C161 O150 1.253 . S
C161 O151 1.283 . S
C162 O154 1.304 . S
C162 O156 1.272 . S
C163 O155 1.311 . S
C163 O157 1.231 . S
O164 Zn146 1.953 . S
O164 C158 1.298 . S
O165 Zn166 1.953 . S
O165 C181 1.225 . S
Zn166 O165 1.953 . S
Zn166 O167 1.949 1_655 S
Zn166 O173 1.919 . S
Zn166 O178 1.924 . S
O167 Zn166 1.949 1_455 S
O167 Zn168 1.923 1_454 S
O167 Zn169 1.950 . S
O167 Zn170 1.945 1_554 S
Zn168 O167 1.923 1_656 S
Zn168 O171 1.933 1_655 S
Zn168 O174 1.941 . S
Zn168 O175 1.965 . S
Zn169 O167 1.950 . S
Zn169 O176 1.938 . S
Zn169 O177 1.906 . S
Zn169 O187 1.953 . S
Zn170 O167 1.945 1_556 S
Zn170 O172 1.932 . S
Zn170 O179 1.977 1_556 S
Zn170 O180 1.910 1_556 S
O171 Zn168 1.933 1_455 S
O171 C182 1.226 . S
O172 Zn170 1.932 . S
O172 C182 1.307 . S
O173 Zn166 1.919 . S
O173 C184 1.253 1_554 S
O174 Zn168 1.941 . S
O174 C184 1.283 . S
O175 Zn168 1.965 . S
O175 C183 1.303 . S
O176 Zn169 1.938 . S
O176 C183 1.247 1_454 S
O177 Zn169 1.906 . S
O177 C185 1.304 . S
O178 Zn166 1.924 . S
O178 C186 1.311 1_655 S
O179 Zn170 1.977 1_554 S
O179 C185 1.272 . S
O180 Zn170 1.910 1_554 S
O180 C186 1.231 . S
C181 O165 1.225 . S
C181 O187 1.298 1_655 S
C182 O171 1.226 . S
C182 O172 1.307 . S
C183 O175 1.303 . S
C183 O176 1.247 1_656 S
C184 O173 1.253 1_556 S
C184 O174 1.283 . S
C185 O177 1.304 . S
C185 O179 1.272 . S
C186 O178 1.311 1_455 S
C186 O180 1.231 . S
O187 Zn169 1.953 . S
O187 C181 1.298 1_455 S
C6 C114 1.876 . S
C18 C138 1.989 . S
C158 C28 1.444 . S
C40 C181 1.101 . S
C140 C9 2.161 . S
C116 C16 1.581 . S
C184 C30 1.801 . S
C161 C42 1.542 . S
C4 C186 1.590 . S
C135 C33 1.725 . S
C45 C113 1.453 . S
C21 C163 1.787 . S
C117 C57 2.132 1_565 S
C66 C139 2.018 . S
C76 C159 1.916 . S
C88 C182 1.367 . S
C54 C137 1.921 1_545 S
C115 C64 1.662 . S
C185 C78 1.471 . S
C162 C93 1.310 . S
C52 C183 1.656 . S
C136 C81 1.706 . S
C112 C90 1.795 . S
C69 C160 2.112 . S
