# Generated by pormake.
# Topology hwx, (6,3)-cn, num edge types: 1
# Building blocks:
#     Node 0, Type 0, BuildingBlock: IZENUY_clean_sbu_0, # of connection points: 6
#     Node 1, Type 0, BuildingBlock: IZENUY_clean_sbu_0, # of connection points: 6
#     Node 2, Type 0, BuildingBlock: IZENUY_clean_sbu_0, # of connection points: 6
#     Node 3, Type 0, BuildingBlock: IZENUY_clean_sbu_0, # of connection points: 6
#     Node 4, Type 1, BuildingBlock: BETDAH_clean_linker_0, # of connection points: 3
#     Node 5, Type 1, BuildingBlock: BETDAH_clean_linker_0, # of connection points: 3
#     Node 6, Type 1, BuildingBlock: BETDAH_clean_linker_0, # of connection points: 3
#     Node 7, Type 1, BuildingBlock: BETDAH_clean_linker_0, # of connection points: 3
#     Node 8, Type 1, BuildingBlock: BETDAH_clean_linker_0, # of connection points: 3
#     Node 9, Type 1, BuildingBlock: BETDAH_clean_linker_0, # of connection points: 3
#     Node 10, Type 1, BuildingBlock: BETDAH_clean_linker_0, # of connection points: 3
#     Node 11, Type 1, BuildingBlock: BETDAH_clean_linker_0, # of connection points: 3
#     Edge 12, Type (0, 1), None
#     Edge 13, Type (0, 1), None
#     Edge 14, Type (0, 1), None
#     Edge 15, Type (0, 1), None
#     Edge 16, Type (0, 1), None
#     Edge 17, Type (0, 1), None
#     Edge 18, Type (0, 1), None
#     Edge 19, Type (0, 1), None
#     Edge 20, Type (0, 1), None
#     Edge 21, Type (0, 1), None
#     Edge 22, Type (0, 1), None
#     Edge 23, Type (0, 1), None
#     Edge 24, Type (0, 1), None
#     Edge 25, Type (0, 1), None
#     Edge 26, Type (0, 1), None
#     Edge 27, Type (0, 1), None
#     Edge 28, Type (0, 1), None
#     Edge 29, Type (0, 1), None
#     Edge 30, Type (0, 1), None
#     Edge 31, Type (0, 1), None
#     Edge 32, Type (0, 1), None
#     Edge 33, Type (0, 1), None
#     Edge 34, Type (0, 1), None
#     Edge 35, Type (0, 1), None
# Relax obj value: 0.004
# Max RMSD: 0.043
# Mean RMSD: 0.040
data_MOF--net-hwx--node1-IZENUY_clean_sbu_0--node2-BETDAH_clean_linker_0--edge1-none
_symmetry_space_group_name_H-M    P1
_symmetry_Int_Tables_number       1
_symmetry_cell_setting            triclinic
loop_
_symmetry_equiv_pos_as_xyz
'x, y, z'
_cell_length_a     23.223612
_cell_length_b     23.142804
_cell_length_c     9.0598066
_cell_angle_alpha  92.549877
_cell_angle_beta   94.118318
_cell_angle_gamma 89.933426
loop_
_atom_site_label
_atom_site_type_symbol
_atom_site_fract_x
_atom_site_fract_y
_atom_site_fract_z
_atom_type_partial_charge
Fe0 Fe 0.26834 0.27136 0.12887 0.0
Fe1 Fe 0.24888 0.28064 0.79256 0.0
O2 O 0.23933 0.24284 0.95417 0.0
Fe3 Fe 0.2 0.176 0.94027 0.0
O4 O 0.1452 0.20665 0.05779 0.0
O5 O 0.20856 0.24534 0.22736 0.0
O6 O 0.22877 0.33947 0.11048 0.0
C7 C 0.2286 0.37185 1.0018 0.0
C8 C 0.2871 0.15619 0.17151 0.0
O9 O 0.24506 0.35353 0.87868 0.0
C10 C 0.26628 0.16245 0.70311 0.0
O11 O 0.33339 0.30271 0.06041 0.0
O12 O 0.327 0.27912 0.82205 0.0
O13 O 0.23895 0.14477 0.102 0.0
O14 O 0.30979 0.2055 0.16245 0.0
C15 C 0.13896 0.24137 0.71882 0.0
O16 O 0.25522 0.21488 0.67847 0.0
O17 O 0.25243 0.14101 0.82205 0.0
C18 C 0.35629 0.29531 0.93881 0.0
O19 O 0.17093 0.28506 0.74865 0.0
O20 O 0.15323 0.19377 0.77459 0.0
C21 C 0.15769 0.22874 0.18694 0.0
Fe22 Fe 0.27234 0.78491 0.72842 0.0
Fe23 Fe 0.32104 0.6781 0.56506 0.0
O24 O 0.28014 0.74385 0.56152 0.0
Fe25 Fe 0.24804 0.76677 0.39052 0.0
O26 O 0.28356 0.83668 0.40905 0.0
O27 O 0.27769 0.85656 0.64804 0.0
O28 O 0.35047 0.78905 0.77096 0.0
C29 C 0.3815 0.74554 0.79764 0.0
C30 C 0.16261 0.7962 0.59038 0.0
O31 O 0.36685 0.69743 0.73506 0.0
C32 C 0.2348 0.65141 0.33236 0.0
O33 O 0.26454 0.7197 0.83395 0.0
O34 O 0.26876 0.64405 0.67681 0.0
O35 O 0.18224 0.7967 0.46422 0.0
O36 O 0.19419 0.78523 0.70423 0.0
C37 C 0.36126 0.72976 0.32674 0.0
O38 O 0.2841 0.64368 0.39668 0.0
O39 O 0.20928 0.69858 0.35649 0.0
C40 C 0.25423 0.66648 0.79931 0.0
O41 O 0.37504 0.70969 0.45296 0.0
O42 O 0.30914 0.74181 0.28791 0.0
C43 C 0.28732 0.87185 0.51953 0.0
Fe44 Fe 0.75003 0.77565 0.91412 0.0
Fe45 Fe 0.76946 0.76243 0.24956 0.0
O46 O 0.78569 0.79717 0.08749 0.0
Fe47 Fe 0.83839 0.85379 0.09965 0.0
O48 O 0.80685 0.89219 0.94018 0.0
O49 O 0.72423 0.84903 0.88298 0.0
O50 O 0.67948 0.76108 0.98657 0.0
C51 C 0.6605 0.77395 0.11125 0.0
C52 C 0.86745 0.79151 0.85107 0.0
O53 O 0.69392 0.7818 0.22594 0.0
C54 C 0.88455 0.77758 0.31824 0.0
O55 O 0.77394 0.70122 0.92921 0.0
O56 O 0.75641 0.69052 0.16121 0.0
O57 O 0.88451 0.81199 0.97908 0.0
O58 O 0.81406 0.78611 0.81305 0.0
C59 C 0.77902 0.8813 0.34225 0.0
O60 O 0.84449 0.74115 0.28764 0.0
O61 O 0.88115 0.82659 0.26153 0.0
C62 C 0.76937 0.66967 0.03718 0.0
O63 O 0.7791 0.82783 0.36614 0.0
O64 O 0.79506 0.8992 0.22141 0.0
C65 C 0.75712 0.89196 0.87378 0.0
Fe66 Fe 0.68641 0.35503 0.45912 0.0
Fe67 Fe 0.76963 0.27441 0.63151 0.0
O68 O 0.73407 0.29419 0.4615 0.0
Fe69 Fe 0.74553 0.25476 0.29402 0.0
O70 O 0.74392 0.32007 0.18754 0.0
O71 O 0.73401 0.39446 0.34537 0.0
O72 O 0.72024 0.39294 0.62614 0.0
C73 C 0.77016 0.39038 0.69028 0.0
C74 C 0.63298 0.28156 0.22727 0.0
O75 O 0.80049 0.34633 0.66656 0.0
C76 C 0.73955 0.16698 0.50187 0.0
O77 O 0.63711 0.31812 0.57285 0.0
O78 O 0.70644 0.29096 0.73478 0.0
O79 O 0.66855 0.24146 0.25347 0.0
O80 O 0.64171 0.3306 0.29181 0.0
C81 C 0.85674 0.25967 0.42977 0.0
O82 O 0.7417 0.20163 0.61265 0.0
O83 O 0.74942 0.18293 0.37437 0.0
C84 C 0.65327 0.29803 0.69749 0.0
O85 O 0.83853 0.25381 0.5562 0.0
O86 O 0.82286 0.26526 0.31685 0.0
C87 C 0.74957 0.37371 0.22224 0.0
H88 H 0.24044 0.70107 0.08015 0.0
H89 H 0.20254 0.53769 0.25541 0.0
H90 H 0.21792 0.55065 0.78577 0.0
C91 C 0.23244 0.65519 0.06158 0.0
C92 C 0.2348 0.62972 0.91852 0.0
C93 C 0.22378 0.62241 0.18411 0.0
C94 C 0.21157 0.56307 0.16207 0.0
C95 C 0.20741 0.53738 0.01751 0.0
C96 C 0.22053 0.57056 0.89655 0.0
N97 N 0.17845 0.48349 0.9897 0.0
C98 C 0.20261 0.42878 0.00841 0.0
H99 H 0.84183 0.75247 0.56983 0.0
H100 H 0.9992 0.80522 0.39255 0.0
H101 H 0.98232 0.82016 0.86143 0.0
C102 C 0.88636 0.76666 0.58789 0.0
C103 C 0.90806 0.78475 0.73163 0.0
C104 C 0.91792 0.77506 0.46402 0.0
C105 C 0.97512 0.79578 0.48673 0.0
C106 C 0.99923 0.80924 0.63166 0.0
C107 C 0.96507 0.80484 0.75235 0.0
N108 N 0.05301 0.83817 0.65735 0.0
C109 C 0.10537 0.81782 0.6106 0.0
H110 H 0.75918 0.34109 0.94028 0.0
H111 H 0.80077 0.50412 0.77006 0.0
H112 H 0.78195 0.49023 0.238 0.0
C113 C 0.76761 0.38674 0.95961 0.0
C114 C 0.76586 0.41164 0.10327 0.0
C115 C 0.77809 0.41951 0.83861 0.0
C116 C 0.7908 0.4785 0.86221 0.0
C117 C 0.79337 0.50376 0.007 0.0
C118 C 0.77974 0.47059 0.12692 0.0
N119 N 0.81909 0.55887 0.03538 0.0
C120 C 0.78894 0.61068 0.02812 0.0
H121 H 0.18248 0.2102 0.46957 0.0
H122 H 0.02374 0.26967 0.63734 0.0
H123 H 0.04161 0.25488 0.1662 0.0
C124 C 0.13826 0.22361 0.45002 0.0
C125 C 0.11615 0.23016 0.30383 0.0
C126 C 0.10648 0.23861 0.57129 0.0
C127 C 0.0486 0.25612 0.54525 0.0
C128 C 0.02437 0.25959 0.39776 0.0
C129 C 0.05875 0.24748 0.27822 0.0
N130 N 0.96989 0.2856 0.36579 0.0
C131 C 0.91757 0.26748 0.41397 0.0
H132 H 0.79012 0.85347 0.62095 0.0
H133 H 0.7398 0.99629 0.35319 0.0
H134 H 0.71097 1.00086 0.81995 0.0
C135 C 0.77163 0.89597 0.61014 0.0
C136 C 0.75123 0.92356 0.73533 0.0
C137 C 0.76683 0.92039 0.47076 0.0
C138 C 0.74502 0.97689 0.45994 0.0
C139 C 0.72543 1.00629 0.58715 0.0
C140 C 0.72765 0.97897 0.72381 0.0
N141 N 0.69605 0.05973 0.57654 0.0
C142 C 0.71862 0.10948 0.52183 0.0
H143 H 0.67778 0.25987 0.97141 0.0
H144 H 0.5188 0.30947 0.15527 0.0
H145 H 0.53845 0.3276 0.69158 0.0
C146 C 0.63341 0.27418 0.95517 0.0
C147 C 0.61236 0.29259 0.81525 0.0
C148 C 0.60089 0.28111 0.07946 0.0
C149 C 0.54377 0.30144 0.05994 0.0
C150 C 0.52047 0.31553 0.91786 0.0
C151 C 0.55535 0.31238 0.79751 0.0
N152 N 0.46569 0.34214 0.89778 0.0
C153 C 0.41415 0.3159 0.92673 0.0
H154 H 0.28459 0.20119 0.43829 0.0
H155 H 0.29562 0.04392 0.67843 0.0
H156 H 0.31879 0.04148 0.20895 0.0
C157 C 0.29156 0.15497 0.44231 0.0
C158 C 0.30024 0.12492 0.30933 0.0
C159 C 0.2861 0.12656 0.57511 0.0
C160 C 0.2967 0.0664 0.57635 0.0
C161 C 0.31107 0.03601 0.44473 0.0
C162 C 0.3106 0.06525 0.31104 0.0
N163 N 0.33332 0.9787 0.44604 0.0
C164 C 0.30655 0.93016 0.49683 0.0
H165 H 0.33948 0.70919 0.03815 0.0
H166 H 0.49344 0.78272 0.89032 0.0
H167 H 0.47535 0.76487 0.35675 0.0
C168 C 0.38229 0.72642 0.06269 0.0
C169 C 0.40319 0.73446 0.2113 0.0
C170 C 0.41321 0.74462 0.94607 0.0
C171 C 0.46937 0.76684 0.9783 0.0
C172 C 0.49294 0.77153 0.12691 0.0
C173 C 0.45914 0.75639 0.24266 0.0
N174 N 0.54551 0.80149 0.16491 0.0
C175 C 0.59954 0.78336 0.12397 0.0
loop_
_geom_bond_atom_site_label_1
_geom_bond_atom_site_label_2
_geom_bond_distance
_geom_bond_site_symmetry_2
_ccdc_geom_bond_type
Fe0 O2 1.918 . S
Fe0 O5 1.997 . S
Fe0 O6 2.002 . S
Fe0 O11 1.976 . S
Fe0 O14 1.996 . S
Fe1 O2 1.918 1_556 S
Fe1 O9 1.997 . S
Fe1 O12 1.996 . S
Fe1 O16 1.976 . S
Fe1 O19 2.002 . S
O2 Fe0 1.918 . S
O2 Fe1 1.918 1_554 S
O2 Fe3 1.918 1_554 S
Fe3 O2 1.918 1_556 S
Fe3 O4 2.002 1_556 S
Fe3 O13 1.976 1_556 S
Fe3 O17 1.996 . S
Fe3 O20 1.997 . S
O4 Fe3 2.002 1_554 S
O4 C21 1.295 . S
O5 Fe0 1.997 . S
O5 C21 1.235 . S
O6 Fe0 2.002 . S
O6 C7 1.295 . S
C7 O6 1.295 . S
C7 O9 1.235 1_554 S
C8 O13 1.287 . S
C8 O14 1.255 . S
O9 Fe1 1.997 . S
O9 C7 1.235 1_556 S
C10 O16 1.287 . S
C10 O17 1.255 . S
O11 Fe0 1.976 . S
O11 C18 1.287 . S
O12 Fe1 1.996 . S
O12 C18 1.255 1_556 S
O13 Fe3 1.976 1_554 S
O13 C8 1.287 . S
O14 Fe0 1.996 . S
O14 C8 1.255 . S
C15 O19 1.295 . S
C15 O20 1.235 . S
O16 Fe1 1.976 . S
O16 C10 1.287 . S
O17 Fe3 1.996 . S
O17 C10 1.255 . S
C18 O11 1.287 . S
C18 O12 1.255 1_554 S
O19 Fe1 2.002 . S
O19 C15 1.295 . S
O20 Fe3 1.997 . S
O20 C15 1.235 . S
C21 O4 1.295 . S
C21 O5 1.235 . S
Fe22 O24 1.918 . S
Fe22 O27 1.997 . S
Fe22 O28 2.002 . S
Fe22 O33 1.976 . S
Fe22 O36 1.996 . S
Fe23 O24 1.918 . S
Fe23 O31 1.997 . S
Fe23 O34 1.996 . S
Fe23 O38 1.976 . S
Fe23 O41 2.002 . S
O24 Fe22 1.918 . S
O24 Fe23 1.918 . S
O24 Fe25 1.918 . S
Fe25 O24 1.918 . S
Fe25 O26 2.002 . S
Fe25 O35 1.976 . S
Fe25 O39 1.996 . S
Fe25 O42 1.997 . S
O26 Fe25 2.002 . S
O26 C43 1.295 . S
O27 Fe22 1.997 . S
O27 C43 1.235 . S
O28 Fe22 2.002 . S
O28 C29 1.295 . S
C29 O28 1.295 . S
C29 O31 1.235 . S
C30 O35 1.287 . S
C30 O36 1.255 . S
O31 Fe23 1.997 . S
O31 C29 1.235 . S
C32 O38 1.287 . S
C32 O39 1.255 . S
O33 Fe22 1.976 . S
O33 C40 1.287 . S
O34 Fe23 1.996 . S
O34 C40 1.255 . S
O35 Fe25 1.976 . S
O35 C30 1.287 . S
O36 Fe22 1.996 . S
O36 C30 1.255 . S
C37 O41 1.295 . S
C37 O42 1.235 . S
O38 Fe23 1.976 . S
O38 C32 1.287 . S
O39 Fe25 1.996 . S
O39 C32 1.255 . S
C40 O33 1.287 . S
C40 O34 1.255 . S
O41 Fe23 2.002 . S
O41 C37 1.295 . S
O42 Fe25 1.997 . S
O42 C37 1.235 . S
C43 O26 1.295 . S
C43 O27 1.235 . S
Fe44 O46 1.918 1_556 S
Fe44 O49 1.997 . S
Fe44 O50 2.002 . S
Fe44 O55 1.976 . S
Fe44 O58 1.996 . S
Fe45 O46 1.918 . S
Fe45 O53 1.997 . S
Fe45 O56 1.996 . S
Fe45 O60 1.976 . S
Fe45 O63 2.002 . S
O46 Fe44 1.918 1_554 S
O46 Fe45 1.918 . S
O46 Fe47 1.918 . S
Fe47 O46 1.918 . S
Fe47 O48 2.002 1_554 S
Fe47 O57 1.976 1_554 S
Fe47 O61 1.996 . S
Fe47 O64 1.997 . S
O48 Fe47 2.002 1_556 S
O48 C65 1.295 . S
O49 Fe44 1.997 . S
O49 C65 1.235 . S
O50 Fe44 2.002 . S
O50 C51 1.295 1_556 S
C51 O50 1.295 1_554 S
C51 O53 1.235 . S
C52 O57 1.287 . S
C52 O58 1.255 . S
O53 Fe45 1.997 . S
O53 C51 1.235 . S
C54 O60 1.287 . S
C54 O61 1.255 . S
O55 Fe44 1.976 . S
O55 C62 1.287 1_556 S
O56 Fe45 1.996 . S
O56 C62 1.255 . S
O57 Fe47 1.976 1_556 S
O57 C52 1.287 . S
O58 Fe44 1.996 . S
O58 C52 1.255 . S
C59 O63 1.295 . S
C59 O64 1.235 . S
O60 Fe45 1.976 . S
O60 C54 1.287 . S
O61 Fe47 1.996 . S
O61 C54 1.255 . S
C62 O55 1.287 1_554 S
C62 O56 1.255 . S
O63 Fe45 2.002 . S
O63 C59 1.295 . S
O64 Fe47 1.997 . S
O64 C59 1.235 . S
C65 O48 1.295 . S
C65 O49 1.235 . S
Fe66 O68 1.918 . S
Fe66 O71 1.997 . S
Fe66 O72 2.002 . S
Fe66 O77 1.976 . S
Fe66 O80 1.996 . S
Fe67 O68 1.918 . S
Fe67 O75 1.997 . S
Fe67 O78 1.996 . S
Fe67 O82 1.976 . S
Fe67 O85 2.002 . S
O68 Fe66 1.918 . S
O68 Fe67 1.918 . S
O68 Fe69 1.918 . S
Fe69 O68 1.918 . S
Fe69 O70 2.002 . S
Fe69 O79 1.976 . S
Fe69 O83 1.996 . S
Fe69 O86 1.997 . S
O70 Fe69 2.002 . S
O70 C87 1.295 . S
O71 Fe66 1.997 . S
O71 C87 1.235 . S
O72 Fe66 2.002 . S
O72 C73 1.295 . S
C73 O72 1.295 . S
C73 O75 1.235 . S
C74 O79 1.287 . S
C74 O80 1.255 . S
O75 Fe67 1.997 . S
O75 C73 1.235 . S
C76 O82 1.287 . S
C76 O83 1.255 . S
O77 Fe66 1.976 . S
O77 C84 1.287 . S
O78 Fe67 1.996 . S
O78 C84 1.255 . S
O79 Fe69 1.976 . S
O79 C74 1.287 . S
O80 Fe66 1.996 . S
O80 C74 1.255 . S
C81 O85 1.295 . S
C81 O86 1.235 . S
O82 Fe67 1.976 . S
O82 C76 1.287 . S
O83 Fe69 1.996 . S
O83 C76 1.255 . S
C84 O77 1.287 . S
C84 O78 1.255 . S
O85 Fe67 2.002 . S
O85 C81 1.295 . S
O86 Fe69 1.997 . S
O86 C81 1.235 . S
C87 O70 1.295 . S
C87 O71 1.235 . S
H88 C91 0.929 . S
H89 C94 0.929 . S
H90 C96 0.930 . S
C91 H88 0.929 . S
C91 C92 1.398 1_554 S
C91 C93 1.396 . S
C92 C91 1.398 1_556 S
C92 C96 1.407 . S
C93 C91 1.396 . S
C93 C94 1.394 . S
C94 H89 0.929 . S
C94 C93 1.394 . S
C94 C95 1.382 1_554 S
C95 C94 1.382 1_556 S
C95 C96 1.392 . S
C95 N97 1.420 . S
C96 H90 0.930 . S
C96 C92 1.407 . S
C96 C95 1.392 . S
N97 C95 1.420 . S
N97 C98 1.244 1_556 S
C98 N97 1.244 1_554 S
H99 C102 0.929 . S
H100 C105 0.920 1_455 S
H101 C107 0.930 . S
C102 H99 0.929 . S
C102 C103 1.398 . S
C102 C104 1.396 . S
C103 C102 1.398 . S
C103 C107 1.407 . S
C104 C102 1.396 . S
C104 C105 1.394 . S
C105 H100 0.920 1_655 S
C105 C104 1.394 . S
C105 C106 1.382 1_655 S
C106 C105 1.382 1_455 S
C106 C107 1.392 1_455 S
C106 N108 1.420 . S
C107 H101 0.930 . S
C107 C103 1.407 . S
C107 C106 1.392 1_655 S
N108 C106 1.420 . S
N108 C109 1.244 . S
C109 N108 1.244 . S
H110 C113 0.929 . S
H111 C116 0.929 . S
H112 C118 0.930 . S
C113 H110 0.929 . S
C113 C114 1.398 . S
C113 C115 1.396 1_554 S
C114 C113 1.398 . S
C114 C118 1.407 . S
C115 C113 1.396 1_556 S
C115 C116 1.394 . S
C116 H111 0.929 . S
C116 C115 1.394 . S
C116 C117 1.382 1_556 S
C117 C116 1.382 1_554 S
C117 C118 1.392 . S
C117 N119 1.420 . S
C118 H112 0.930 . S
C118 C114 1.407 . S
C118 C117 1.392 . S
N119 C117 1.420 . S
N119 C120 1.244 1_554 S
C120 N119 1.244 1_556 S
H121 C124 0.929 . S
H122 C127 0.928 . S
H123 C129 0.930 . S
C124 H121 0.929 . S
C124 C125 1.398 . S
C124 C126 1.396 . S
C125 C124 1.398 . S
C125 C129 1.407 . S
C126 C124 1.396 . S
C126 C127 1.394 . S
C127 H122 0.928 . S
C127 C126 1.394 . S
C127 C128 1.382 1_455 S
C128 C127 1.382 1_655 S
C128 C129 1.392 1_655 S
C128 N130 1.420 . S
C129 H123 0.930 . S
C129 C125 1.407 . S
C129 C128 1.392 1_455 S
N130 C128 1.420 . S
N130 C131 1.244 . S
C131 N130 1.244 . S
H132 C135 0.929 . S
H133 C138 0.929 1_545 S
H134 C140 0.930 . S
C135 H132 0.929 . S
C135 C136 1.398 . S
C135 C137 1.396 . S
C136 C135 1.398 . S
C136 C140 1.407 . S
C137 C135 1.396 . S
C137 C138 1.394 . S
C138 H133 0.929 1_565 S
C138 C137 1.394 . S
C138 C139 1.382 1_565 S
C139 C138 1.382 1_545 S
C139 C140 1.392 1_545 S
C139 N141 1.420 . S
C140 H134 0.930 . S
C140 C136 1.407 . S
C140 C139 1.392 1_565 S
N141 C139 1.420 . S
N141 C142 1.244 . S
C142 N141 1.244 . S
H143 C146 0.929 . S
H144 C149 0.929 . S
H145 C151 0.930 . S
C146 H143 0.929 . S
C146 C147 1.398 1_554 S
C146 C148 1.396 . S
C147 C146 1.398 1_556 S
C147 C151 1.407 . S
C148 C146 1.396 . S
C148 C149 1.394 . S
C149 H144 0.929 . S
C149 C148 1.394 . S
C149 C150 1.382 1_554 S
C150 C149 1.382 1_556 S
C150 C151 1.392 . S
C150 N152 1.420 . S
C151 H145 0.930 . S
C151 C147 1.407 . S
C151 C150 1.392 . S
N152 C150 1.420 . S
N152 C153 1.244 1_556 S
C153 N152 1.244 1_554 S
H154 C157 0.929 . S
H155 C160 0.929 1_565 S
H156 C162 0.930 . S
C157 H154 0.929 . S
C157 C158 1.398 . S
C157 C159 1.396 . S
C158 C157 1.398 . S
C158 C162 1.407 . S
C159 C157 1.396 . S
C159 C160 1.394 . S
C160 H155 0.929 1_545 S
C160 C159 1.394 . S
C160 C161 1.382 1_545 S
C161 C160 1.382 1_565 S
C161 C162 1.392 1_565 S
C161 N163 1.420 . S
C162 H156 0.930 . S
C162 C158 1.407 . S
C162 C161 1.392 1_545 S
N163 C161 1.420 . S
N163 C164 1.244 . S
C164 N163 1.244 . S
H165 C168 0.929 1_556 S
H166 C171 0.929 . S
H167 C173 0.930 . S
C168 H165 0.929 1_554 S
C168 C169 1.398 . S
C168 C170 1.396 1_554 S
C169 C168 1.398 . S
C169 C173 1.407 . S
C170 C168 1.396 1_556 S
C170 C171 1.394 . S
C171 H166 0.929 . S
C171 C170 1.394 . S
C171 C172 1.382 1_556 S
C172 C171 1.382 1_554 S
C172 C173 1.392 . S
C172 N174 1.420 . S
C173 H167 0.930 . S
C173 C169 1.407 . S
C173 C172 1.392 . S
N174 C172 1.420 . S
N174 C175 1.244 1_554 S
C175 N174 1.244 1_556 S
C21 C125 1.462 . S
C40 C92 1.548 . S
C104 C54 1.435 . S
C73 C115 1.519 . S
C148 C74 1.421 . S
C159 C10 1.528 . S
C169 C37 1.488 . S
C136 C65 1.540 . S
C52 C103 1.423 . S
C87 C114 1.535 . S
C15 C126 1.490 . S
C93 C32 1.481 . S
C29 C170 1.466 . S
C137 C59 1.567 . S
C147 C84 1.427 . S
C8 C158 1.457 . S
C98 C7 1.579 . S
C109 C30 1.489 . S
C62 C120 1.620 1_554 S
C81 C131 1.502 . S
C142 C76 1.586 . S
C18 C153 1.493 . S
C43 C164 1.601 . S
C51 C175 1.505 1_554 S
