# Generated by pormake.
# Topology pyr, (3,6)-cn, num edge types: 1
# Building blocks:
#     Node 0, Type 0, BuildingBlock: ESEHIV_clean_linker_0, # of connection points: 3
#     Node 1, Type 0, BuildingBlock: ESEHIV_clean_linker_0, # of connection points: 3
#     Node 2, Type 0, BuildingBlock: ESEHIV_clean_linker_0, # of connection points: 3
#     Node 3, Type 0, BuildingBlock: ESEHIV_clean_linker_0, # of connection points: 3
#     Node 4, Type 0, BuildingBlock: ESEHIV_clean_linker_0, # of connection points: 3
#     Node 5, Type 0, BuildingBlock: ESEHIV_clean_linker_0, # of connection points: 3
#     Node 6, Type 0, BuildingBlock: ESEHIV_clean_linker_0, # of connection points: 3
#     Node 7, Type 0, BuildingBlock: ESEHIV_clean_linker_0, # of connection points: 3
#     Node 8, Type 1, BuildingBlock: BETDAH_clean_sbu_0, # of connection points: 6
#     Node 9, Type 1, BuildingBlock: BETDAH_clean_sbu_0, # of connection points: 6
#     Node 10, Type 1, BuildingBlock: BETDAH_clean_sbu_0, # of connection points: 6
#     Node 11, Type 1, BuildingBlock: BETDAH_clean_sbu_0, # of connection points: 6
#     Edge 12, Type (0, 1), None
#     Edge 13, Type (0, 1), None
#     Edge 14, Type (0, 1), None
#     Edge 15, Type (0, 1), None
#     Edge 16, Type (0, 1), None
#     Edge 17, Type (0, 1), None
#     Edge 18, Type (0, 1), None
#     Edge 19, Type (0, 1), None
#     Edge 20, Type (0, 1), None
#     Edge 21, Type (0, 1), None
#     Edge 22, Type (0, 1), None
#     Edge 23, Type (0, 1), None
#     Edge 24, Type (0, 1), None
#     Edge 25, Type (0, 1), None
#     Edge 26, Type (0, 1), None
#     Edge 27, Type (0, 1), None
#     Edge 28, Type (0, 1), None
#     Edge 29, Type (0, 1), None
#     Edge 30, Type (0, 1), None
#     Edge 31, Type (0, 1), None
#     Edge 32, Type (0, 1), None
#     Edge 33, Type (0, 1), None
#     Edge 34, Type (0, 1), None
#     Edge 35, Type (0, 1), None
# Relax obj value: 0.505
# Max RMSD: 0.227
# Mean RMSD: 0.111
data_MOF--net-pyr--node1-BETDAH_clean_sbu_0--node2-ESEHIV_clean_linker_0--edge1-none
_symmetry_space_group_name_H-M    P1
_symmetry_Int_Tables_number       1
_symmetry_cell_setting            triclinic
loop_
_symmetry_equiv_pos_as_xyz
'x, y, z'
_cell_length_a     14.851739
_cell_length_b     15.621081
_cell_length_c     13.754456
_cell_angle_alpha  87.755313
_cell_angle_beta   86.576476
_cell_angle_gamma 101.42093
loop_
_atom_site_label
_atom_site_type_symbol
_atom_site_fract_x
_atom_site_fract_y
_atom_site_fract_z
_atom_type_partial_charge
H0 H 0.37365 0.30393 0.55565 0.0
H1 H 0.63641 0.23549 0.51481 0.0
H2 H 0.53481 0.37206 0.28434 0.0
C3 C 0.43882 0.31289 0.51297 0.0
C4 C 0.45039 0.35714 0.42047 0.0
C5 C 0.50747 0.27207 0.5479 0.0
C6 C 0.58828 0.27429 0.49097 0.0
C7 C 0.58987 0.29718 0.39283 0.0
C8 C 0.52879 0.34984 0.36039 0.0
H9 H 0.97338 1.04677 0.99827 0.0
H10 H 0.20647 0.93928 1.06967 0.0
H11 H 0.06064 0.85457 0.82038 0.0
C12 C 1.01545 0.99843 0.98674 0.0
C13 C 1.0109 0.95468 0.90076 0.0
C14 C 0.08458 0.99107 1.04891 0.0
C15 C 0.14755 0.93729 1.02638 0.0
C16 C 0.13907 0.8866 0.94451 0.0
C17 C 0.0677 0.89297 0.88433 0.0
H18 H 0.76662 0.35998 1.13444 0.0
H19 H 0.78649 0.59841 0.95728 0.0
H20 H 0.57428 0.37391 0.91336 0.0
C21 C 0.74274 0.39601 1.07559 0.0
C22 C 0.66377 0.35644 1.02868 0.0
C23 C 0.78857 0.48299 1.05121 0.0
C24 C 0.75308 0.53116 0.97577 0.0
C25 C 0.67685 0.49254 0.92189 0.0
C26 C 0.63399 0.40435 0.95015 0.0
H27 H 0.80347 0.87706 0.62936 0.0
H28 H 1.0328 0.87398 0.42369 0.0
H29 H 0.81327 0.64537 0.47065 0.0
C30 C 0.83704 0.84432 0.57399 0.0
C31 C 0.79736 0.75669 0.55645 0.0
C32 C 0.92092 0.88915 0.52617 0.0
C33 C 0.96629 0.84201 0.45763 0.0
C34 C 0.92814 0.75404 0.43281 0.0
C35 C 0.84217 0.71281 0.48342 0.0
H36 H 0.44531 1.0116 0.85528 0.0
H37 H 0.70818 0.94324 0.81451 0.0
H38 H 0.54693 0.87509 1.08578 0.0
C39 C 0.4935 0.97284 0.8791 0.0
C40 C 0.49185 0.94993 0.97724 0.0
C41 C 0.57435 0.97509 0.82223 0.0
C42 C 0.643 0.9343 0.85719 0.0
C43 C 0.6314 0.89003 0.94967 0.0
C44 C 0.55297 0.8973 1.00973 0.0
H45 H 0.87538 0.30773 0.30024 0.0
H46 H 0.10842 0.20007 0.37136 0.0
H47 H 1.02123 0.39204 0.54965 0.0
C48 C 0.9343 0.30965 0.34353 0.0
C49 C 0.9428 0.36024 0.42548 0.0
C50 C 0.99727 0.2559 0.32085 0.0
C51 C 0.0664 0.24842 0.38299 0.0
C52 C 0.07096 0.29205 0.46905 0.0
C53 C 1.01416 0.35374 0.48563 0.0
H54 H 0.31527 0.88695 0.2355 0.0
H55 H 0.29527 0.64859 0.41284 0.0
H56 H 0.50764 0.87302 0.45657 0.0
C57 C 0.33914 0.85094 0.29438 0.0
C58 C 0.41815 0.89049 0.34125 0.0
C59 C 0.29325 0.76398 0.31881 0.0
C60 C 0.32871 0.71583 0.3943 0.0
C61 C 0.40498 0.75443 0.44816 0.0
C62 C 0.44791 0.84259 0.41981 0.0
H63 H 0.0486 0.37317 0.94613 0.0
H64 H 0.27796 0.36958 0.74067 0.0
H65 H 0.26851 0.60146 0.89913 0.0
C66 C 0.11516 0.40501 0.91223 0.0
C67 C 0.15346 0.49297 0.93699 0.0
C68 C 0.16048 0.35773 0.84379 0.0
C69 C 0.24442 0.40242 0.79597 0.0
C70 C 0.28424 0.49002 0.81344 0.0
C71 C 0.23951 0.53403 0.8864 0.0
Ho72 Ho 0.10788 1.08709 0.68975 0.0
Ho73 Ho 0.97361 0.15984 0.68003 0.0
C74 C 0.11687 0.26672 0.81026 0.0
C75 C 0.25585 1.0303 0.72117 0.0
C76 C 0.35097 1.0746 0.72128 0.0
C77 C 0.37119 0.1572 0.76117 0.0
C78 C 0.43621 0.22306 0.71201 0.0
C79 C 0.48089 0.20454 0.62529 0.0
C80 C 0.47438 1.11768 0.59897 0.0
C81 C 0.41088 1.05187 0.64926 0.0
C82 C 0.97678 0.99484 0.81608 0.0
C83 C 0.96447 0.98015 0.55976 0.0
C84 C 0.82577 0.21674 0.64829 0.0
C85 C 0.73064 0.17242 0.64846 0.0
C86 C 0.71034 1.08977 0.60869 0.0
C87 C 0.6454 1.02394 0.65802 0.0
C88 C 0.60086 1.04256 0.74477 0.0
C89 C 0.60742 0.12945 0.77101 0.0
C90 C 0.67086 0.19521 0.72057 0.0
C91 C 0.10504 0.25169 0.55363 0.0
O92 O 0.16665 0.21915 0.75937 0.0
O93 O 1.02727 0.24573 0.80296 0.0
O94 O 0.20046 1.04848 0.79047 0.0
O95 O 0.22224 1.0331 0.63588 0.0
O96 O 1.00466 0.96639 0.73677 0.0
O97 O 0.99634 1.07736 0.80698 0.0
O98 O 0.91471 1.02762 0.61083 0.0
O99 O 0.05409 1.00125 0.56683 0.0
O100 O 0.88108 0.19824 0.5791 0.0
O101 O 0.85949 0.21434 0.73356 0.0
O102 O 0.07744 0.28025 0.63299 0.0
O103 O 0.08478 0.16922 0.56279 0.0
H104 H 0.32732 0.17483 0.81965 0.0
H105 H 0.44184 0.28987 0.73341 0.0
H106 H 0.50918 1.10204 0.53247 0.0
H107 H 0.39733 0.98744 0.61999 0.0
H108 H 0.75409 1.07207 0.55013 0.0
H109 H 0.63972 0.95712 0.63669 0.0
H110 H 0.57272 0.14514 0.83755 0.0
H111 H 0.68447 0.25967 0.74975 0.0
Ho112 Ho 0.61195 1.09312 0.19154 0.0
Ho113 Ho 0.46972 0.15414 1.17834 0.0
C114 C 0.59056 0.22072 0.33834 0.0
C115 C 0.75777 1.03007 1.1569 0.0
C116 C 0.85447 1.07055 1.15348 0.0
C117 C 0.88178 0.15604 1.11196 0.0
C118 C 0.94217 0.21701 1.15959 0.0
C119 C 0.97426 0.19165 0.24784 0.0
C120 C 0.96124 1.10268 0.277 0.0
C121 C 0.90416 1.04135 0.22676 0.0
C122 C 0.4733 0.97913 0.30271 0.0
C123 C 0.4911 1.02638 1.03172 0.0
C124 C 0.32393 0.21733 0.21259 0.0
C125 C 0.22726 0.17677 0.216 0.0
C126 C 0.20002 1.09132 0.25763 0.0
C127 C 0.13968 1.03024 0.2101 0.0
C128 C 0.10756 1.05545 1.1218 0.0
C129 C 0.12052 0.14438 1.09249 0.0
C130 C 0.17756 0.20582 1.14264 0.0
C131 C 0.60866 0.26778 1.06717 0.0
O132 O 0.65644 0.21245 0.27498 0.0
O133 O 0.51027 0.17253 0.32861 0.0
O134 O 0.7162 1.02923 0.24324 0.0
O135 O 0.71015 1.05414 1.08807 0.0
O136 O 0.55379 1.01199 0.33047 0.0
O137 O 0.46642 1.01358 0.21908 0.0
O138 O 0.42525 1.03466 1.09511 0.0
O139 O 0.57136 1.07463 1.04134 0.0
O140 O 0.36558 0.21801 1.12632 0.0
O141 O 0.37152 0.19343 0.28156 0.0
O142 O 0.52824 0.23489 1.03921 0.0
O143 O 0.61506 0.23362 1.15105 0.0
H144 H 0.84589 0.17916 1.05314 0.0
H145 H 0.95366 0.28536 1.13513 0.0
H146 H 0.98578 1.08138 0.34466 0.0
H147 H 0.88498 0.97489 0.25787 0.0
H148 H 0.23593 1.06831 0.31651 0.0
H149 H 0.12824 0.96192 0.23466 0.0
H150 H 0.09595 0.16557 1.0248 0.0
H151 H 0.19669 0.27225 1.11142 0.0
Ho152 Ho 0.53407 0.56447 0.6357 0.0
Ho153 Ho 0.54775 0.68255 0.73441 0.0
C154 C 0.63842 0.54322 0.8395 0.0
C155 C 0.60686 0.4639 0.52918 0.0
C156 C 0.70366 0.45983 0.50591 0.0
C157 C 0.73877 0.46908 0.40843 0.0
C158 C 0.82141 0.44388 0.38264 0.0
C159 C 0.87061 0.40995 0.454 0.0
C160 C 0.84159 0.4133 0.55282 0.0
C161 C 0.75818 0.43689 0.57855 0.0
C162 C 0.36868 0.53452 0.74804 0.0
C163 C 0.44337 0.70376 0.53059 0.0
C164 C 0.4752 0.78325 0.84092 0.0
C165 C 0.37839 0.78731 0.86415 0.0
C166 C 0.34321 0.77794 0.96161 0.0
C167 C 0.26053 0.80306 0.98737 0.0
C168 C 0.21134 0.83698 0.916 0.0
C169 C 0.24046 0.83377 0.81719 0.0
C170 C 0.32391 0.81028 0.7915 0.0
C171 C 0.71302 0.71202 0.62189 0.0
O172 O 0.60181 0.50354 0.76346 0.0
O173 O 0.63339 0.62604 0.8439 0.0
O174 O 0.57256 0.44065 0.61795 0.0
O175 O 0.5781 0.53041 0.49188 0.0
O176 O 0.3781 0.52261 0.65547 0.0
O177 O 0.44887 0.55854 0.77625 0.0
O178 O 0.47998 0.74345 0.60663 0.0
O179 O 0.44841 0.62094 0.52621 0.0
O180 O 0.50955 0.8065 0.75216 0.0
O181 O 0.50394 0.71675 0.87825 0.0
O182 O 0.70384 0.72372 0.71454 0.0
O183 O 0.63266 0.68863 0.59393 0.0
H184 H 0.69901 0.48932 0.35138 0.0
H185 H 0.84358 0.44595 0.30631 0.0
H186 H 0.87878 0.39115 0.61074 0.0
H187 H 0.73408 0.43171 0.65484 0.0
H188 H 0.38294 0.75768 1.01867 0.0
H189 H 0.23829 0.80093 1.06369 0.0
H190 H 0.20328 0.85594 0.75927 0.0
H191 H 0.34807 0.81555 0.71522 0.0
Ho192 Ho 0.05138 0.57246 0.21908 0.0
Ho193 Ho 1.03041 0.67449 1.15089 0.0
C194 C 0.21083 0.72171 0.26329 0.0
C195 C 0.11306 0.45694 0.31738 0.0
C196 C 0.20706 0.44462 0.33543 0.0
C197 C 0.26864 0.42375 0.26275 0.0
C198 C 0.35297 0.40358 0.28774 0.0
C199 C 0.37426 0.39914 0.38628 0.0
C200 C 0.31547 0.42814 0.45583 0.0
C201 C 0.23446 0.45194 0.43076 0.0
C202 C 0.98881 0.70714 0.36499 0.0
C203 C 0.87097 0.52525 1.10674 0.0
C204 C 0.96867 0.78996 1.05254 0.0
C205 C 0.87466 0.80234 1.03455 0.0
C206 C 0.8132 0.82335 1.10725 0.0
C207 C 0.72888 0.8436 1.08233 0.0
C208 C 0.70748 0.84795 0.98382 0.0
C209 C 0.76612 0.81878 0.91425 0.0
C210 C 0.84715 0.79496 0.93925 0.0
C211 C 0.09288 0.54012 1.00464 0.0
O212 O 0.19521 0.63875 0.25042 0.0
O213 O 0.14787 0.76135 0.22876 0.0
O214 O 0.08901 0.52409 0.35601 0.0
O215 O 0.0796 0.44109 0.23281 0.0
O216 O 0.95678 0.64771 0.30306 0.0
O217 O 0.96066 0.64856 0.30282 0.0
O218 O 0.88655 0.6082 1.11968 0.0
O219 O 0.93396 0.48561 1.14118 0.0
O220 O 0.99263 0.72274 1.01397 0.0
O221 O 1.00222 0.80587 1.13706 0.0
O222 O 0.12495 0.59917 1.06695 0.0
O223 O 0.12115 0.59834 1.06716 0.0
H224 H 0.25094 0.42107 0.18755 0.0
H225 H 0.39813 0.38662 0.23038 0.0
H226 H 0.32922 0.42841 0.53149 0.0
H227 H 0.19039 0.47128 0.48797 0.0
H228 H 0.83097 0.82607 0.18243 0.0
H229 H 0.6838 0.86067 1.1397 0.0
H230 H 0.75221 0.81838 0.83861 0.0
H231 H 0.89114 0.77552 0.88203 0.0
loop_
_geom_bond_atom_site_label_1
_geom_bond_atom_site_label_2
_geom_bond_distance
_geom_bond_site_symmetry_2
_ccdc_geom_bond_type
H0 C3 0.931 . S
H1 C6 0.928 . S
H2 C8 0.930 . S
C3 H0 0.931 . S
C3 C4 1.413 . S
C3 C5 1.360 . S
C4 C3 1.413 . S
C4 C8 1.429 . S
C5 C3 1.360 . S
C5 C6 1.372 . S
C6 H1 0.928 . S
C6 C5 1.372 . S
C6 C7 1.404 . S
C7 C6 1.404 . S
C7 C8 1.391 . S
C8 H2 0.930 . S
C8 C4 1.429 . S
C8 C7 1.391 . S
H9 C12 0.931 . S
H10 C15 0.928 . S
H11 C17 0.930 . S
C12 H9 0.931 . S
C12 C13 1.413 . S
C12 C14 1.360 . S
C13 C12 1.413 . S
C13 C17 1.429 . S
C14 C12 1.360 . S
C14 C15 1.372 . S
C15 H10 0.928 . S
C15 C14 1.372 . S
C15 C16 1.404 . S
C16 C15 1.404 . S
C16 C17 1.391 . S
C17 H11 0.930 . S
C17 C13 1.429 . S
C17 C16 1.391 . S
H18 C21 0.931 . S
H19 C24 0.928 . S
H20 C26 0.930 . S
C21 H18 0.931 . S
C21 C22 1.413 . S
C21 C23 1.360 . S
C22 C21 1.413 . S
C22 C26 1.429 . S
C23 C21 1.360 . S
C23 C24 1.372 . S
C24 H19 0.928 . S
C24 C23 1.372 . S
C24 C25 1.404 . S
C25 C24 1.404 . S
C25 C26 1.391 . S
C26 H20 0.930 . S
C26 C22 1.429 . S
C26 C25 1.391 . S
H27 C30 0.931 . S
H28 C33 0.928 . S
H29 C35 0.930 . S
C30 H27 0.931 . S
C30 C31 1.413 . S
C30 C32 1.360 . S
C31 C30 1.413 . S
C31 C35 1.429 . S
C32 C30 1.360 . S
C32 C33 1.372 . S
C33 H28 0.928 . S
C33 C32 1.372 . S
C33 C34 1.404 . S
C34 C33 1.404 . S
C34 C35 1.391 . S
C35 H29 0.930 . S
C35 C31 1.429 . S
C35 C34 1.391 . S
H36 C39 0.931 . S
H37 C42 0.928 . S
H38 C44 0.930 . S
C39 H36 0.931 . S
C39 C40 1.413 . S
C39 C41 1.360 . S
C40 C39 1.413 . S
C40 C44 1.429 . S
C41 C39 1.360 . S
C41 C42 1.372 . S
C42 H37 0.928 . S
C42 C41 1.372 . S
C42 C43 1.404 . S
C43 C42 1.404 . S
C43 C44 1.391 . S
C44 H38 0.930 . S
C44 C40 1.429 . S
C44 C43 1.391 . S
H45 C48 0.931 . S
H46 C51 0.928 . S
H47 C53 0.930 . S
C48 H45 0.931 . S
C48 C49 1.413 . S
C48 C50 1.360 . S
C49 C48 1.413 . S
C49 C53 1.429 . S
C50 C48 1.360 . S
C50 C51 1.372 . S
C51 H46 0.928 . S
C51 C50 1.372 . S
C51 C52 1.404 . S
C52 C51 1.404 . S
C52 C53 1.391 . S
C53 H47 0.930 . S
C53 C49 1.429 . S
C53 C52 1.391 . S
H54 C57 0.931 . S
H55 C60 0.928 . S
H56 C62 0.930 . S
C57 H54 0.931 . S
C57 C58 1.413 . S
C57 C59 1.360 . S
C58 C57 1.413 . S
C58 C62 1.429 . S
C59 C57 1.360 . S
C59 C60 1.372 . S
C60 H55 0.928 . S
C60 C59 1.372 . S
C60 C61 1.404 . S
C61 C60 1.404 . S
C61 C62 1.391 . S
C62 H56 0.930 . S
C62 C58 1.429 . S
C62 C61 1.391 . S
H63 C66 0.931 . S
H64 C69 0.928 . S
H65 C71 0.930 . S
C66 H63 0.931 . S
C66 C67 1.413 . S
C66 C68 1.360 . S
C67 C66 1.413 . S
C67 C71 1.429 . S
C68 C66 1.360 . S
C68 C69 1.372 . S
C69 H64 0.928 . S
C69 C68 1.372 . S
C69 C70 1.404 . S
C70 C69 1.404 . S
C70 C71 1.391 . S
C71 H65 0.930 . S
C71 C67 1.429 . S
C71 C70 1.391 . S
Ho72 C75 2.811 . S
Ho72 O92 2.322 . S
Ho72 O94 2.378 . S
Ho72 O95 2.524 . S
Ho72 O96 2.381 1_545 S
Ho72 O97 2.669 1_545 S
Ho72 O99 2.346 1_445 S
Ho72 O103 2.305 1_455 S
Ho73 C84 2.811 . S
Ho73 O93 2.346 1_665 S
Ho73 O97 2.305 1_655 S
Ho73 O98 2.322 . S
Ho73 O100 2.378 . S
Ho73 O101 2.524 . S
Ho73 O102 2.381 1_565 S
Ho73 O103 2.669 1_565 S
C74 O92 1.259 . S
C74 O93 1.268 . S
C75 Ho72 2.811 . S
C75 C76 1.488 . S
C75 O94 1.215 . S
C75 O95 1.289 . S
C76 C75 1.488 . S
C76 C77 1.348 . S
C76 C81 1.413 . S
C77 C76 1.348 . S
C77 C78 1.442 . S
C77 H104 0.930 . S
C78 C77 1.442 . S
C78 C79 1.381 . S
C78 H105 0.931 . S
C79 C78 1.381 . S
C79 C80 1.321 . S
C80 C79 1.321 . S
C80 C81 1.403 . S
C80 H106 0.934 . S
C81 C76 1.413 . S
C81 C80 1.403 . S
C81 H107 0.930 . S
C82 O96 1.275 . S
C82 O97 1.256 . S
C83 O98 1.259 . S
C83 O99 1.268 . S
C84 Ho73 2.811 . S
C84 C85 1.488 . S
C84 O100 1.215 . S
C84 O101 1.289 . S
C85 C84 1.488 . S
C85 C86 1.348 . S
C85 C90 1.413 . S
C86 C85 1.348 . S
C86 C87 1.442 . S
C86 H108 0.930 . S
C87 C86 1.442 . S
C87 C88 1.381 . S
C87 H109 0.931 . S
C88 C87 1.381 . S
C88 C89 1.321 . S
C89 C88 1.321 . S
C89 C90 1.403 . S
C89 H110 0.934 . S
C90 C85 1.413 . S
C90 C89 1.403 . S
C90 H111 0.930 . S
C91 O102 1.275 . S
C91 O103 1.256 . S
O92 Ho72 2.322 . S
O92 C74 1.259 . S
O93 Ho73 2.346 1_445 S
O93 C74 1.268 . S
O94 Ho72 2.378 . S
O94 C75 1.215 . S
O95 Ho72 2.524 . S
O95 C75 1.289 . S
O96 Ho72 2.381 1_565 S
O96 C82 1.275 . S
O97 Ho72 2.669 1_565 S
O97 Ho73 2.305 1_455 S
O97 C82 1.256 . S
O98 Ho73 2.322 . S
O98 C83 1.259 . S
O99 Ho72 2.346 1_665 S
O99 C83 1.268 . S
O100 Ho73 2.378 . S
O100 C84 1.215 . S
O101 Ho73 2.524 . S
O101 C84 1.289 . S
O102 Ho73 2.381 1_545 S
O102 C91 1.275 . S
O103 Ho72 2.305 1_655 S
O103 Ho73 2.669 1_545 S
O103 C91 1.256 . S
H104 C77 0.930 . S
H105 C78 0.931 . S
H106 C80 0.934 . S
H107 C81 0.930 . S
H108 C86 0.930 . S
H109 C87 0.931 . S
H110 C89 0.934 . S
H111 C90 0.930 . S
Ho112 C115 2.811 1_565 S
Ho112 O132 2.322 1_565 S
Ho112 O134 2.378 1_565 S
Ho112 O135 2.524 1_565 S
Ho112 O136 2.381 . S
Ho112 O137 2.669 . S
Ho112 O139 2.346 1_554 S
Ho112 O143 2.305 1_564 S
Ho113 C124 2.811 1_545 S
Ho113 O133 2.346 1_556 S
Ho113 O137 2.305 1_546 S
Ho113 O138 2.322 1_545 S
Ho113 O140 2.378 1_545 S
Ho113 O141 2.524 1_545 S
Ho113 O142 2.381 . S
Ho113 O143 2.669 . S
C114 O132 1.259 . S
C114 O133 1.268 . S
C115 Ho112 2.811 1_545 S
C115 C116 1.488 . S
C115 O134 1.215 . S
C115 O135 1.289 . S
C116 C115 1.488 . S
C116 C117 1.348 . S
C116 C121 1.413 . S
C117 C116 1.348 . S
C117 C118 1.442 . S
C117 H144 0.930 . S
C118 C117 1.442 . S
C118 C119 1.381 . S
C118 H145 0.931 . S
C119 C118 1.381 . S
C119 C120 1.321 . S
C120 C119 1.321 . S
C120 C121 1.403 . S
C120 H146 0.934 . S
C121 C116 1.413 . S
C121 C120 1.403 . S
C121 H147 0.930 . S
C122 O136 1.275 . S
C122 O137 1.256 . S
C123 O138 1.259 . S
C123 O139 1.268 . S
C124 Ho113 2.811 1_565 S
C124 C125 1.488 . S
C124 O140 1.215 . S
C124 O141 1.289 . S
C125 C124 1.488 . S
C125 C126 1.348 . S
C125 C130 1.413 . S
C126 C125 1.348 . S
C126 C127 1.442 . S
C126 H148 0.930 . S
C127 C126 1.442 . S
C127 C128 1.381 . S
C127 H149 0.931 . S
C128 C127 1.381 . S
C128 C129 1.321 . S
C129 C128 1.321 . S
C129 C130 1.403 . S
C129 H150 0.934 . S
C130 C125 1.413 . S
C130 C129 1.403 . S
C130 H151 0.930 . S
C131 O142 1.275 . S
C131 O143 1.256 . S
O132 Ho112 2.322 1_545 S
O132 C114 1.259 . S
O133 Ho113 2.346 1_554 S
O133 C114 1.268 . S
O134 Ho112 2.378 1_545 S
O134 C115 1.215 . S
O135 Ho112 2.524 1_545 S
O135 C115 1.289 . S
O136 Ho112 2.381 . S
O136 C122 1.275 . S
O137 Ho112 2.669 . S
O137 Ho113 2.305 1_564 S
O137 C122 1.256 . S
O138 Ho113 2.322 1_565 S
O138 C123 1.259 . S
O139 Ho112 2.346 1_556 S
O139 C123 1.268 . S
O140 Ho113 2.378 1_565 S
O140 C124 1.215 . S
O141 Ho113 2.524 1_565 S
O141 C124 1.289 . S
O142 Ho113 2.381 . S
O142 C131 1.275 . S
O143 Ho112 2.305 1_546 S
O143 Ho113 2.669 . S
O143 C131 1.256 . S
H144 C117 0.930 . S
H145 C118 0.931 . S
H146 C120 0.934 . S
H147 C121 0.930 . S
H148 C126 0.930 . S
H149 C127 0.931 . S
H150 C129 0.934 . S
H151 C130 0.930 . S
Ho152 C155 2.811 . S
Ho152 O172 2.322 . S
Ho152 O174 2.378 . S
Ho152 O175 2.524 . S
Ho152 O176 2.381 . S
Ho152 O177 2.669 . S
Ho152 O179 2.346 . S
Ho152 O183 2.305 . S
Ho153 C164 2.811 . S
Ho153 O173 2.346 . S
Ho153 O177 2.305 . S
Ho153 O178 2.322 . S
Ho153 O180 2.378 . S
Ho153 O181 2.524 . S
Ho153 O182 2.381 . S
Ho153 O183 2.669 . S
C154 O172 1.259 . S
C154 O173 1.268 . S
C155 Ho152 2.811 . S
C155 C156 1.488 . S
C155 O174 1.215 . S
C155 O175 1.289 . S
C156 C155 1.488 . S
C156 C157 1.348 . S
C156 C161 1.413 . S
C157 C156 1.348 . S
C157 C158 1.442 . S
C157 H184 0.930 . S
C158 C157 1.442 . S
C158 C159 1.381 . S
C158 H185 0.931 . S
C159 C158 1.381 . S
C159 C160 1.321 . S
C160 C159 1.321 . S
C160 C161 1.403 . S
C160 H186 0.934 . S
C161 C156 1.413 . S
C161 C160 1.403 . S
C161 H187 0.930 . S
C162 O176 1.275 . S
C162 O177 1.256 . S
C163 O178 1.259 . S
C163 O179 1.268 . S
C164 Ho153 2.811 . S
C164 C165 1.488 . S
C164 O180 1.215 . S
C164 O181 1.289 . S
C165 C164 1.488 . S
C165 C166 1.348 . S
C165 C170 1.413 . S
C166 C165 1.348 . S
C166 C167 1.442 . S
C166 H188 0.930 . S
C167 C166 1.442 . S
C167 C168 1.381 . S
C167 H189 0.931 . S
C168 C167 1.381 . S
C168 C169 1.321 . S
C169 C168 1.321 . S
C169 C170 1.403 . S
C169 H190 0.934 . S
C170 C165 1.413 . S
C170 C169 1.403 . S
C170 H191 0.930 . S
C171 O182 1.275 . S
C171 O183 1.256 . S
O172 Ho152 2.322 . S
O172 C154 1.259 . S
O173 Ho153 2.346 . S
O173 C154 1.268 . S
O174 Ho152 2.378 . S
O174 C155 1.215 . S
O175 Ho152 2.524 . S
O175 C155 1.289 . S
O176 Ho152 2.381 . S
O176 C162 1.275 . S
O177 Ho152 2.669 . S
O177 Ho153 2.305 . S
O177 C162 1.256 . S
O178 Ho153 2.322 . S
O178 C163 1.259 . S
O179 Ho152 2.346 . S
O179 C163 1.268 . S
O180 Ho153 2.378 . S
O180 C164 1.215 . S
O181 Ho153 2.524 . S
O181 C164 1.289 . S
O182 Ho153 2.381 . S
O182 C171 1.275 . S
O183 Ho152 2.305 . S
O183 Ho153 2.669 . S
O183 C171 1.256 . S
H184 C157 0.930 . S
H185 C158 0.931 . S
H186 C160 0.934 . S
H187 C161 0.930 . S
H188 C166 0.930 . S
H189 C167 0.931 . S
H190 C169 0.934 . S
H191 C170 0.930 . S
Ho192 C195 2.811 . S
Ho192 O212 2.322 . S
Ho192 O214 2.378 . S
Ho192 O215 2.524 . S
Ho192 O216 2.381 1_455 S
Ho192 O217 2.669 1_455 S
Ho192 O219 2.346 1_454 S
Ho192 O223 2.305 1_554 S
Ho193 C204 2.811 . S
Ho193 O213 2.346 1_656 S
Ho193 O217 2.305 1_556 S
Ho193 O218 2.322 . S
Ho193 O220 2.378 . S
Ho193 O221 2.524 . S
Ho193 O222 2.381 1_655 S
Ho193 O223 2.669 1_655 S
C194 O212 1.259 . S
C194 O213 1.268 . S
C195 Ho192 2.811 . S
C195 C196 1.488 . S
C195 O214 1.215 . S
C195 O215 1.289 . S
C196 C195 1.488 . S
C196 C197 1.348 . S
C196 C201 1.413 . S
C197 C196 1.348 . S
C197 C198 1.442 . S
C197 H224 0.930 . S
C198 C197 1.442 . S
C198 C199 1.381 . S
C198 H225 0.931 . S
C199 C198 1.381 . S
C199 C200 1.321 . S
C200 C199 1.321 . S
C200 C201 1.403 . S
C200 H226 0.934 . S
C201 C196 1.413 . S
C201 C200 1.403 . S
C201 H227 0.930 . S
C202 O216 1.275 . S
C202 O217 1.256 . S
C203 O218 1.259 . S
C203 O219 1.268 . S
C204 Ho193 2.811 . S
C204 C205 1.488 . S
C204 O220 1.215 . S
C204 O221 1.289 . S
C205 C204 1.488 . S
C205 C206 1.348 . S
C205 C210 1.413 . S
C206 C205 1.348 . S
C206 C207 1.442 . S
C206 H228 0.930 . S
C207 C206 1.442 . S
C207 C208 1.381 . S
C207 H229 0.931 . S
C208 C207 1.381 . S
C208 C209 1.321 . S
C209 C208 1.321 . S
C209 C210 1.403 . S
C209 H230 0.934 . S
C210 C205 1.413 . S
C210 C209 1.403 . S
C210 H231 0.930 . S
C211 O222 1.275 . S
C211 O223 1.256 . S
O212 Ho192 2.322 . S
O212 C194 1.259 . S
O213 Ho193 2.346 1_454 S
O213 C194 1.268 . S
O214 Ho192 2.378 . S
O214 C195 1.215 . S
O215 Ho192 2.524 . S
O215 C195 1.289 . S
O216 Ho192 2.381 1_655 S
O216 C202 1.275 . S
O217 Ho192 2.669 1_655 S
O217 Ho193 2.305 1_554 S
O217 C202 1.256 . S
O218 Ho193 2.322 . S
O218 C203 1.259 . S
O219 Ho192 2.346 1_656 S
O219 C203 1.268 . S
O220 Ho193 2.378 . S
O220 C204 1.215 . S
O221 Ho193 2.524 . S
O221 C204 1.289 . S
O222 Ho193 2.381 1_455 S
O222 C211 1.275 . S
O223 Ho192 2.305 1_556 S
O223 Ho193 2.669 1_455 S
O223 C211 1.256 . S
H224 C197 0.930 . S
H225 C198 0.931 . S
H226 C200 0.934 . S
H227 C201 0.930 . S
H228 C206 0.930 . S
H229 C207 0.931 . S
H230 C209 0.934 . S
H231 C210 0.930 . S
C5 C79 1.134 . S
C14 C128 1.424 . S
C154 C25 3.745 . S
C34 C202 3.769 . S
C114 C7 2.765 . S
C82 C13 1.323 . S
C203 C23 2.571 . S
C171 C31 2.500 . S
C4 C199 1.791 . S
C131 C22 3.471 . S
C32 C83 3.559 . S
C16 C168 1.921 . S
C88 C41 1.108 . S
C50 C119 1.435 . S
C61 C163 3.735 . S
C67 C211 3.780 . S
C40 C123 2.777 . S
C91 C52 1.338 . S
C194 C59 2.577 . S
C162 C70 2.499 . S
C43 C208 1.760 . S
C122 C58 3.488 . S
C74 C68 3.529 . S
C49 C159 1.951 . S
