# Generated by pormake.
# Topology rtl, (3,6)-cn, num edge types: 1
# Building blocks:
#     Node 0, Type 0, BuildingBlock: CUQRIR_clean_linker_1, # of connection points: 3
#     Node 1, Type 0, BuildingBlock: CUQRIR_clean_linker_1, # of connection points: 3
#     Node 2, Type 0, BuildingBlock: CUQRIR_clean_linker_1, # of connection points: 3
#     Node 3, Type 0, BuildingBlock: CUQRIR_clean_linker_1, # of connection points: 3
#     Node 4, Type 1, BuildingBlock: CIFDUS_clean_sbu_1, # of connection points: 6
#     Node 5, Type 1, BuildingBlock: CIFDUS_clean_sbu_1, # of connection points: 6
#     Edge 6, Type (0, 1), None
#     Edge 7, Type (0, 1), None
#     Edge 8, Type (0, 1), None
#     Edge 9, Type (0, 1), None
#     Edge 10, Type (0, 1), None
#     Edge 11, Type (0, 1), None
#     Edge 12, Type (0, 1), None
#     Edge 13, Type (0, 1), None
#     Edge 14, Type (0, 1), None
#     Edge 15, Type (0, 1), None
#     Edge 16, Type (0, 1), None
#     Edge 17, Type (0, 1), None
# Relax obj value: 0.023
# Max RMSD: 0.110
# Mean RMSD: 0.093
data_MOF--net-rtl--node1-CIFDUS_clean_sbu_1--node2-CUQRIR_clean_linker_1--edge1-none
_symmetry_space_group_name_H-M    P1
_symmetry_Int_Tables_number       1
_symmetry_cell_setting            triclinic
loop_
_symmetry_equiv_pos_as_xyz
'x, y, z'
_cell_length_a     14.893766
_cell_length_b     10.889013
_cell_length_c     7.2398012
_cell_angle_alpha  89.976227
_cell_angle_beta   93.792309
_cell_angle_gamma 89.978298
loop_
_atom_site_label
_atom_site_type_symbol
_atom_site_fract_x
_atom_site_fract_y
_atom_site_fract_z
_atom_type_partial_charge
C0 C 0.19402 0.95888 0.95388 0.0
N1 N 0.1409 1.04253 1.0311 0.0
N2 N 0.26798 0.93335 0.06471 0.0
C3 C 0.17085 0.89059 0.77543 0.0
C4 C 0.25202 0.99519 0.22244 0.0
N5 N 0.17283 1.06044 0.20534 0.0
C6 C 0.31754 1.00118 0.38844 0.0
H7 H 0.09793 0.86877 0.76062 0.0
H8 H 0.20922 0.80334 0.77048 0.0
H9 H 0.18849 0.94848 0.65804 0.0
H10 H 0.29579 1.06935 0.49036 0.0
H11 H 0.3852 1.02653 0.34517 0.0
H12 H 0.3231 0.90883 0.45297 0.0
C13 C 0.75094 0.85324 0.71734 0.0
N14 N 0.67564 0.78216 0.71995 0.0
N15 N 0.79689 0.8294 0.56436 0.0
C16 C 0.77721 0.9477 0.86108 0.0
C17 C 0.74428 0.74305 0.47378 0.0
N18 N 0.6687 0.72078 0.56122 0.0
C19 C 0.76581 0.67561 0.29891 0.0
H20 H 0.74882 0.92579 0.99502 0.0
H21 H 0.74929 1.03736 0.81311 0.0
H22 H 0.85146 0.95405 0.8813 0.0
H23 H 0.83546 0.63892 0.31269 0.0
H24 H 0.75924 0.73892 0.17882 0.0
H25 H 0.71999 0.59654 0.27062 0.0
C26 C 0.70151 0.24307 0.2141 0.0
N27 N 0.77707 0.22072 0.12657 0.0
N28 N 0.64887 0.32949 0.12352 0.0
C29 C 0.68001 0.17556 0.38899 0.0
C30 C 0.6948 0.35333 0.97048 0.0
N31 N 0.7701 0.28213 0.96778 0.0
C32 C 0.66849 0.44783 0.82669 0.0
H33 H 0.72582 1.09641 0.41724 0.0
H34 H 0.61036 0.13896 0.37528 0.0
H35 H 0.68662 0.23879 0.50909 0.0
H36 H 0.69677 0.42583 0.69268 0.0
H37 H 0.69648 0.53743 0.87446 0.0
H38 H 0.59423 0.45432 0.80669 0.0
C39 C 0.19374 0.49552 0.46554 0.0
N40 N 0.27286 0.5609 0.48252 0.0
N41 N 0.17771 0.43422 0.62375 0.0
C42 C 0.12831 0.50112 0.29936 0.0
C43 C 0.25157 0.45993 0.73459 0.0
N44 N 0.3047 0.54337 0.65696 0.0
C45 C 0.27488 0.39159 0.91305 0.0
H46 H 0.14986 0.56941 0.19739 0.0
H47 H 0.06051 0.52606 0.34237 0.0
H48 H 0.12314 0.40873 0.235 0.0
H49 H 0.23655 0.30436 0.91829 0.0
H50 H 0.25734 0.44952 1.03039 0.0
H51 H 0.3478 0.36968 0.92765 0.0
O52 O 0.87498 0.23333 0.38163 0.0
Mn53 Mn -0.03079 0.16838 0.57882 0.0
O54 O 0.89815 1.0943 0.16559 0.0
Mn55 Mn 0.95354 0.98655 0.34047 0.0
O56 O 0.06036 1.09145 0.76423 0.0
O57 O 0.03158 0.34264 0.6116 0.0
Mn58 Mn 0.00135 0.34137 0.85078 0.0
O59 O 0.87308 0.19679 0.78321 0.0
O60 O 0.04694 0.21088 1.00393 0.0
O61 O 0.06658 0.15145 0.37567 0.0
O62 O 0.07504 0.95677 0.36111 0.0
O63 O 0.08599 0.45188 0.86031 0.0
O64 O 0.88492 0.38936 0.8668 0.0
C65 C 0.86826 0.88861 0.49173 0.0
C66 C 0.85612 0.18784 0.21996 0.0
C67 C 0.07804 1.11388 0.93415 0.0
C68 C 0.09804 0.40625 0.69785 0.0
C69 C 0.83844 0.29349 0.85332 0.0
C70 C 0.11316 1.05701 0.33987 0.0
O71 O 0.90044 0.9953 0.55631 0.0
O72 O 0.89611 0.8472 0.33841 0.0
O73 O 0.57077 0.73345 0.3062 0.0
Mn74 Mn 0.47657 0.66866 0.10897 0.0
O75 O 0.54764 0.59445 0.52241 0.0
Mn76 Mn 0.49225 0.48671 0.34769 0.0
O77 O 0.38549 0.59209 0.9234 0.0
O78 O 0.4145 0.84296 0.07548 0.0
Mn79 Mn 0.44424 0.84233 0.83612 0.0
O80 O 0.5727 0.69707 0.90472 0.0
O81 O 0.39857 0.71172 0.68352 0.0
O82 O 0.37909 0.65179 0.31197 0.0
O83 O 0.37073 0.4571 0.32713 0.0
O84 O 0.3595 0.95295 0.82798 0.0
O85 O 0.56079 0.88964 0.82029 0.0
C86 C 0.57753 0.38874 0.19628 0.0
C87 C 0.58964 0.68795 0.46791 0.0
C88 C 0.36763 0.61467 0.75353 0.0
C89 C 0.34772 0.90648 0.99011 0.0
C90 C 0.60726 0.7937 0.83425 0.0
C91 C 0.33254 0.55737 0.348 0.0
O92 O 0.54529 0.49549 0.13176 0.0
O93 O 0.54974 0.34732 0.34968 0.0
loop_
_geom_bond_atom_site_label_1
_geom_bond_atom_site_label_2
_geom_bond_distance
_geom_bond_site_symmetry_2
_ccdc_geom_bond_type
C0 N1 1.317 . S
C0 N2 1.348 1_556 S
C0 C3 1.485 . S
N1 C0 1.317 . S
N1 N5 1.370 1_556 S
N2 C0 1.348 1_554 S
N2 C4 1.346 . S
C3 C0 1.485 . S
C3 H7 0.960 . S
C3 H8 0.961 . S
C3 H9 0.960 . S
C4 N2 1.346 . S
C4 N5 1.307 . S
C4 C6 1.486 . S
N5 N1 1.370 1_554 S
N5 C4 1.307 . S
C6 C4 1.486 . S
C6 H10 0.960 . S
C6 H11 0.960 . S
C6 H12 0.959 . S
H7 C3 0.960 . S
H8 C3 0.961 . S
H9 C3 0.960 . S
H10 C6 0.960 . S
H11 C6 0.960 . S
H12 C6 0.959 . S
C13 N14 1.317 . S
C13 N15 1.348 . S
C13 C16 1.485 . S
N14 C13 1.317 . S
N14 N18 1.370 . S
N15 C13 1.348 . S
N15 C17 1.346 . S
C16 C13 1.485 . S
C16 H20 0.960 . S
C16 H21 0.961 . S
C16 H22 0.960 . S
C17 N15 1.346 . S
C17 N18 1.307 . S
C17 C19 1.486 . S
N18 N14 1.370 . S
N18 C17 1.307 . S
C19 C17 1.486 . S
C19 H23 0.960 . S
C19 H24 0.960 . S
C19 H25 0.959 . S
H20 C16 0.960 . S
H21 C16 0.961 . S
H22 C16 0.960 . S
H23 C19 0.960 . S
H24 C19 0.960 . S
H25 C19 0.959 . S
C26 N27 1.317 . S
C26 N28 1.348 1_554 S
C26 C29 1.485 . S
N27 C26 1.317 . S
N27 N31 1.370 1_554 S
N28 C26 1.348 1_556 S
N28 C30 1.346 . S
C29 C26 1.485 . S
C29 H33 0.960 . S
C29 H34 0.961 . S
C29 H35 0.960 . S
C30 N28 1.346 . S
C30 N31 1.307 . S
C30 C32 1.486 . S
N31 N27 1.370 1_556 S
N31 C30 1.307 . S
C32 C30 1.486 . S
C32 H36 0.960 . S
C32 H37 0.960 . S
C32 H38 0.959 . S
H33 C29 0.960 . S
H34 C29 0.961 . S
H35 C29 0.960 . S
H36 C32 0.960 . S
H37 C32 0.960 . S
H38 C32 0.959 . S
C39 N40 1.317 . S
C39 N41 1.348 . S
C39 C42 1.485 . S
N40 C39 1.317 . S
N40 N44 1.370 . S
N41 C39 1.348 . S
N41 C43 1.346 . S
C42 C39 1.485 . S
C42 H46 0.960 . S
C42 H47 0.961 . S
C42 H48 0.960 . S
C43 N41 1.346 . S
C43 N44 1.307 . S
C43 C45 1.486 . S
N44 N40 1.370 . S
N44 C43 1.307 . S
C45 C43 1.486 . S
C45 H49 0.960 . S
C45 H50 0.960 . S
C45 H51 0.959 . S
H46 C42 0.960 . S
H47 C42 0.961 . S
H48 C42 0.960 . S
H49 C45 0.960 . S
H50 C45 0.960 . S
H51 C45 0.959 . S
O52 Mn53 2.163 1_655 S
O52 C66 1.244 . S
Mn53 O52 2.163 1_455 S
Mn53 O56 2.160 1_545 S
Mn53 O57 2.221 . S
Mn53 O59 2.163 1_455 S
Mn53 O61 2.160 1_545 S
Mn53 O71 2.221 1_445 S
O54 Mn55 2.087 1_545 S
O54 C66 1.256 . S
Mn55 O54 2.087 1_565 S
Mn55 O62 2.089 1_655 S
Mn55 O71 2.290 . S
Mn55 O72 2.251 . S
O56 Mn53 2.160 1_565 S
O56 C67 1.239 . S
O57 Mn53 2.221 . S
O57 Mn58 2.290 . S
O57 C68 1.278 . S
Mn58 O57 2.290 . S
Mn58 O60 2.089 . S
Mn58 O63 2.251 . S
Mn58 O64 2.087 . S
O59 Mn53 2.163 1_655 S
O59 C69 1.244 . S
O60 Mn58 2.089 . S
O60 C67 1.256 1_545 S
O61 Mn53 2.160 1_565 S
O61 C70 1.239 . S
O62 Mn55 2.089 1_455 S
O62 C70 1.256 . S
O63 Mn58 2.251 . S
O63 C68 1.241 . S
O64 Mn58 2.087 . S
O64 C69 1.256 1_455 S
C65 O71 1.278 . S
C65 O72 1.241 . S
C66 O52 1.244 . S
C66 O54 1.256 . S
C67 O56 1.239 . S
C67 O60 1.256 1_565 S
C68 O57 1.278 . S
C68 O63 1.241 . S
C69 O59 1.244 . S
C69 O64 1.256 1_655 S
C70 O61 1.239 . S
C70 O62 1.256 . S
O71 Mn53 2.221 1_665 S
O71 Mn55 2.290 . S
O71 C65 1.278 . S
O72 Mn55 2.251 . S
O72 C65 1.241 . S
O73 Mn74 2.163 . S
O73 C87 1.244 . S
Mn74 O73 2.163 . S
Mn74 O77 2.160 1_554 S
Mn74 O78 2.221 1_554 S
Mn74 O80 2.163 1_554 S
Mn74 O82 2.160 . S
Mn74 O92 2.221 . S
O75 Mn76 2.087 . S
O75 C87 1.256 . S
Mn76 O75 2.087 . S
Mn76 O83 2.089 . S
Mn76 O92 2.290 . S
Mn76 O93 2.251 . S
O77 Mn74 2.160 1_556 S
O77 C88 1.239 . S
O78 Mn74 2.221 1_556 S
O78 Mn79 2.290 . S
O78 C89 1.278 . S
Mn79 O78 2.290 . S
Mn79 O81 2.089 . S
Mn79 O84 2.251 . S
Mn79 O85 2.087 . S
O80 Mn74 2.163 1_556 S
O80 C90 1.244 . S
O81 Mn79 2.089 . S
O81 C88 1.256 . S
O82 Mn74 2.160 . S
O82 C91 1.239 . S
O83 Mn76 2.089 . S
O83 C91 1.256 . S
O84 Mn79 2.251 . S
O84 C89 1.241 . S
O85 Mn79 2.087 . S
O85 C90 1.256 . S
C86 O92 1.278 . S
C86 O93 1.241 . S
C87 O73 1.244 . S
C87 O75 1.256 . S
C88 O77 1.239 . S
C88 O81 1.256 . S
C89 O78 1.278 . S
C89 O84 1.241 . S
C90 O80 1.244 . S
C90 O85 1.256 . S
C91 O82 1.239 . S
C91 O83 1.256 . S
O92 Mn74 2.221 . S
O92 Mn76 2.290 . S
O92 C86 1.278 . S
O93 Mn76 2.251 . S
O93 C86 1.241 . S
C68 N41 1.318 . S
N2 C89 1.285 1_554 S
N15 C65 1.411 . S
N28 C86 1.374 1_556 S
C70 N5 1.496 . S
C90 N14 1.539 . S
N27 C66 1.549 . S
N44 C88 1.399 . S
C87 N18 1.532 . S
C69 N31 1.533 . S
C91 N40 1.465 . S
N1 C67 1.394 . S
