# Generated by pormake.
# Topology anh, (6,3)-cn, num edge types: 1
# Building blocks:
#     Node 0, Type 0, BuildingBlock: VOLQOD_clean_sbu_1, # of connection points: 6
#     Node 1, Type 0, BuildingBlock: VOLQOD_clean_sbu_1, # of connection points: 6
#     Node 2, Type 0, BuildingBlock: VOLQOD_clean_sbu_1, # of connection points: 6
#     Node 3, Type 1, BuildingBlock: BETDAH_clean_linker_0, # of connection points: 3
#     Node 4, Type 1, BuildingBlock: BETDAH_clean_linker_0, # of connection points: 3
#     Node 5, Type 1, BuildingBlock: BETDAH_clean_linker_0, # of connection points: 3
#     Node 6, Type 1, BuildingBlock: BETDAH_clean_linker_0, # of connection points: 3
#     Node 7, Type 1, BuildingBlock: BETDAH_clean_linker_0, # of connection points: 3
#     Node 8, Type 1, BuildingBlock: BETDAH_clean_linker_0, # of connection points: 3
#     Edge 9, Type (0, 1), BuildingBlock: EYOCIG_clean_linker_4, # of connection points: 2
#     Edge 10, Type (0, 1), BuildingBlock: EYOCIG_clean_linker_4, # of connection points: 2
#     Edge 11, Type (0, 1), BuildingBlock: EYOCIG_clean_linker_4, # of connection points: 2
#     Edge 12, Type (0, 1), BuildingBlock: EYOCIG_clean_linker_4, # of connection points: 2
#     Edge 13, Type (0, 1), BuildingBlock: EYOCIG_clean_linker_4, # of connection points: 2
#     Edge 14, Type (0, 1), BuildingBlock: EYOCIG_clean_linker_4, # of connection points: 2
#     Edge 15, Type (0, 1), BuildingBlock: EYOCIG_clean_linker_4, # of connection points: 2
#     Edge 16, Type (0, 1), BuildingBlock: EYOCIG_clean_linker_4, # of connection points: 2
#     Edge 17, Type (0, 1), BuildingBlock: EYOCIG_clean_linker_4, # of connection points: 2
#     Edge 18, Type (0, 1), BuildingBlock: EYOCIG_clean_linker_4, # of connection points: 2
#     Edge 19, Type (0, 1), BuildingBlock: EYOCIG_clean_linker_4, # of connection points: 2
#     Edge 20, Type (0, 1), BuildingBlock: EYOCIG_clean_linker_4, # of connection points: 2
#     Edge 21, Type (0, 1), BuildingBlock: EYOCIG_clean_linker_4, # of connection points: 2
#     Edge 22, Type (0, 1), BuildingBlock: EYOCIG_clean_linker_4, # of connection points: 2
#     Edge 23, Type (0, 1), BuildingBlock: EYOCIG_clean_linker_4, # of connection points: 2
#     Edge 24, Type (0, 1), BuildingBlock: EYOCIG_clean_linker_4, # of connection points: 2
#     Edge 25, Type (0, 1), BuildingBlock: EYOCIG_clean_linker_4, # of connection points: 2
#     Edge 26, Type (0, 1), BuildingBlock: EYOCIG_clean_linker_4, # of connection points: 2
# Relax obj value: 0.159
# Max RMSD: 0.216
# Mean RMSD: 0.134
data_MOF--net-anh--node1-VOLQOD_clean_sbu_1--node2-BETDAH_clean_linker_0--edge1-EYOCIG_clean_linker_4
_symmetry_space_group_name_H-M    P1
_symmetry_Int_Tables_number       1
_symmetry_cell_setting            triclinic
loop_
_symmetry_equiv_pos_as_xyz
'x, y, z'
_cell_length_a     24.213088
_cell_length_b     24.154635
_cell_length_c     44.873973
_cell_angle_alpha  91.718528
_cell_angle_beta   91.516936
_cell_angle_gamma 120.37104
loop_
_atom_site_label
_atom_site_type_symbol
_atom_site_fract_x
_atom_site_fract_y
_atom_site_fract_z
_atom_type_partial_charge
O0 O 0.00091 0.6116 0.23125 0.0
Zn1 Zn 0.01093 0.64002 0.18858 0.0
O2 O 0.02333 0.58015 0.16348 0.0
Zn3 Zn 0.94978 0.52949 0.13655 0.0
Zn4 Zn 0.03669 0.52295 0.18843 0.0
Zn5 Zn 0.0965 0.62622 0.13934 0.0
O6 O -0.02302 0.52741 0.09438 0.0
O7 O 0.07173 0.61813 0.0956 0.0
O8 O 0.93055 0.64163 0.17405 0.0
O9 O 0.89312 0.56706 0.13662 0.0
O10 O 0.89409 0.44118 0.15175 0.0
O11 O 0.95511 0.43724 0.18857 0.0
O12 O 0.11059 0.51215 0.17459 0.0
O13 O 0.09221 0.72827 0.18989 0.0
O14 O 0.15187 0.58695 0.14103 0.0
O15 O 0.15114 0.71695 0.15553 0.0
C16 C 0.02389 0.58179 0.24508 0.0
C17 C 0.02532 0.56999 0.08133 0.0
C18 C 0.90251 0.41255 0.17318 0.0
C19 C 0.88936 0.60892 0.15284 0.0
C20 C 0.15187 0.54241 0.15531 0.0
C21 C 0.1437 0.75019 0.17581 0.0
O22 O 0.04904 0.55349 0.23156 0.0
O23 O 0.4528 0.06548 0.43058 0.0
Zn24 Zn 0.42408 0.05471 0.4732 0.0
O25 O 0.48378 0.04252 0.49828 0.0
Zn26 Zn 0.5346 0.11677 0.52492 0.0
Zn27 Zn 0.54037 0.02833 0.47318 0.0
Zn28 Zn 0.43761 0.96977 0.5227 0.0
O29 O 0.5374 0.09037 0.56716 0.0
O30 O 0.44707 -0.00468 0.56646 0.0
O31 O 0.42133 0.1344 0.488 0.0
O32 O 0.49658 0.17315 0.525 0.0
O33 O 0.62248 0.17211 0.50932 0.0
O34 O 0.6266 0.10937 0.4732 0.0
O35 O 0.54932 0.95303 0.48655 0.0
O36 O 0.33639 0.97312 0.4718 0.0
O37 O 0.47538 0.9131 0.52055 0.0
O38 O 0.34671 0.91536 0.50703 0.0
C39 C 0.48259 0.0425 0.41665 0.0
C40 C 0.49528 0.04217 0.58047 0.0
C41 C 0.65122 0.16266 0.48819 0.0
C42 C 0.45402 0.17603 0.50908 0.0
C43 C 0.51887 0.91192 0.50588 0.0
C44 C 0.31401 0.9222 0.48637 0.0
O45 O 0.51044 0.01691 0.43005 0.0
O46 O 0.49802 0.4852 0.76302 0.0
Zn47 Zn 0.48284 0.45513 0.80538 0.0
O48 O 0.55531 0.5159 0.83153 0.0
Zn49 Zn 0.53203 0.56574 0.85712 0.0
Zn50 Zn 0.62506 0.57339 0.80724 0.0
Zn51 Zn 0.58182 0.47056 0.85741 0.0
O52 O 0.55198 0.56267 0.90077 0.0
O53 O 0.55613 0.47258 0.89984 0.0
O54 O 0.39955 0.44685 0.81963 0.0
O55 O 0.43778 0.52629 0.8547 0.0
O56 O 0.56564 0.65452 0.84253 0.0
O57 O 0.63074 0.65958 0.80726 0.0
O58 O 0.70924 0.58142 0.82164 0.0
O59 O 0.47873 0.36909 0.80397 0.0
O60 O 0.67701 0.51173 0.85781 0.0
O61 O 0.54778 0.38066 0.84085 0.0
C62 C 0.55028 0.51602 0.74971 0.0
C63 C 0.55165 0.51657 0.91398 0.0
C64 C 0.60304 0.68378 0.82185 0.0
C65 C 0.39134 0.48034 0.83964 0.0
C66 C 0.72084 0.55328 0.8424 0.0
C67 C 0.50818 0.34766 0.81938 0.0
O68 O 0.6047 0.54439 0.76378 0.0
H69 H 0.39899 0.97643 0.27054 0.0
H70 H 0.59924 0.11086 0.25983 0.0
H71 H 0.47395 0.00717 0.18308 0.0
C72 C 0.43904 0.00087 0.25622 0.0
C73 C 0.42937 -0.0121 0.22539 0.0
C74 C 0.50006 0.04496 0.26872 0.0
C75 C 0.55195 0.07697 0.25015 0.0
C76 C 0.54237 0.06308 0.21904 0.0
C77 C 0.48118 0.01805 0.20698 0.0
N78 N 0.59288 0.09113 0.19909 0.0
C79 C 0.649 0.15013 0.20377 0.0
H80 H 0.50318 0.43025 0.60199 0.0
H81 H 0.57474 0.63257 0.59369 0.0
H82 H 0.53254 0.50815 0.5152 0.0
C83 C 0.51714 0.47095 0.58814 0.0
C84 C 0.51366 0.46198 0.55709 0.0
C85 C 0.5392 0.53223 0.60145 0.0
C86 C 0.55701 0.58498 0.58348 0.0
C87 C 0.55457 0.5761 0.55217 0.0
C88 C 0.5336 0.51471 0.53927 0.0
N89 N 0.57746 0.6281 0.533 0.0
C90 C 0.5663 0.67905 0.53574 0.0
H91 H 0.95839 0.55927 0.93601 0.0
H92 H 0.09766 0.49991 0.92501 0.0
H93 H -0.00829 0.50911 0.84851 0.0
C94 C -0.01592 0.54394 0.92166 0.0
C95 C 0.97102 0.53686 0.89086 0.0
C96 C 0.02957 0.53067 0.93407 0.0
C97 C 0.06278 0.51062 0.91541 0.0
C98 C 0.04878 0.50275 0.8843 0.0
C99 C 0.00273 0.51566 0.87239 0.0
N100 N 0.07738 0.47973 0.864 0.0
C101 C 0.13306 0.47773 0.86921 0.0
H102 H 0.08941 0.66657 0.39145 0.0
H103 H 0.95406 0.46605 0.40187 0.0
H104 H 0.05621 0.59154 0.47886 0.0
C105 C 0.06448 0.62646 0.40572 0.0
C106 C 0.07669 0.63615 0.43658 0.0
C107 C 0.0205 0.56536 0.39312 0.0
C108 C -0.01214 0.51341 0.41162 0.0
C109 C 0.00102 0.52301 0.44277 0.0
C110 C 0.0459 0.58429 0.45493 0.0
N111 N 0.97244 0.47246 0.46268 0.0
C112 C 0.91371 0.41612 0.45785 0.0
H113 H 0.51292 0.11334 0.72618 0.0
H114 H 0.57006 0.97203 0.7359 0.0
H115 H 0.56625 0.08074 0.81301 0.0
C116 C 0.52858 0.08759 0.74026 0.0
C117 C 0.53718 0.10131 0.77102 0.0
C118 C 0.54041 0.04122 0.72751 0.0
C119 C 0.56062 0.00773 0.74579 0.0
C120 C 0.57008 0.02229 0.77687 0.0
C121 C 0.55865 0.06936 0.78915 0.0
N122 N 0.59277 -0.00721 0.79674 0.0
C123 C 0.59391 0.93658 0.791 0.0
H124 H 0.63199 0.55175 0.06093 0.0
H125 H 0.43143 0.4855 0.07016 0.0
H126 H 0.55688 0.52958 0.14819 0.0
C127 C 0.5919 0.53927 0.07498 0.0
C128 C 0.60165 0.54453 0.10602 0.0
C129 C 0.53073 0.51789 0.06195 0.0
C130 C 0.47884 0.50235 0.08018 0.0
C131 C 0.48842 0.5065 0.11149 0.0
C132 C 0.5497 0.52685 0.12411 0.0
N133 N 0.43748 0.48714 0.13109 0.0
C134 C 0.38486 0.49512 0.12691 0.0
C135 C 0.24199 0.51655 0.14111 0.0
C136 C 0.19974 0.52595 0.14861 0.0
C137 C 0.29339 0.50828 0.13263 0.0
C138 C 0.33876 0.50179 0.12798 0.0
C139 C 0.75776 0.2619 0.47068 0.0
C140 C 0.70916 0.21619 0.47844 0.0
C141 C 0.81381 0.31756 0.4624 0.0
C142 C 0.86307 0.36657 0.45827 0.0
C143 C 0.60569 0.7879 0.8035 0.0
C144 C 0.6054 0.74048 0.8114 0.0
C145 C 0.6012 0.84142 0.79504 0.0
C146 C 0.59692 0.88826 0.791 0.0
C147 C 0.78119 0.60597 0.14061 0.0
C148 C 0.83244 0.61282 0.14848 0.0
C149 C 0.71866 0.58763 0.12961 0.0
C150 C 0.66504 0.56791 0.11925 0.0
C151 C 0.20774 0.81566 0.46869 0.0
C152 C 0.25554 0.86608 0.47564 0.0
C153 C 0.15899 0.75326 0.45887 0.0
C154 C 0.1213 0.69945 0.44928 0.0
C155 C 0.50474 0.24031 0.80285 0.0
C156 C 0.50466 0.2889 0.80958 0.0
C157 C 0.51344 0.18922 0.79332 0.0
C158 C 0.52464 0.14894 0.7838 0.0
C159 C 0.54243 0.82001 0.51961 0.0
C160 C 0.53409 0.86304 0.51227 0.0
C161 C 0.55041 0.76856 0.52836 0.0
C162 C 0.55777 0.72393 0.53367 0.0
C163 C 0.83324 0.56721 0.85621 0.0
C164 C 0.78444 0.56506 0.84801 0.0
C165 C 0.88413 0.56048 0.86765 0.0
C166 C 0.92375 0.5497 0.8782 0.0
C167 C 0.24997 0.85666 0.19361 0.0
C168 C 0.19951 0.80889 0.18666 0.0
C169 C 0.31236 0.90542 0.20333 0.0
C170 C 0.36613 0.94318 0.2128 0.0
C171 C 0.45432 0.28299 0.52176 0.0
C172 C 0.44873 0.23221 0.51374 0.0
C173 C 0.47146 0.34521 0.53298 0.0
C174 C 0.4908 0.39873 0.54358 0.0
C175 C 0.28065 0.46662 0.85382 0.0
C176 C 0.32849 0.46844 0.84559 0.0
C177 C 0.23484 0.46906 0.86195 0.0
C178 C 0.18092 0.47423 0.86861 0.0
C179 C 0.80258 0.30629 0.19049 0.0
C180 C 0.84853 0.35477 0.18279 0.0
C181 C 0.75535 0.25844 0.19775 0.0
C182 C 0.69836 0.20098 0.20342 0.0
C183 C 0.03553 0.55354 0.02369 0.0
C184 C 0.03058 0.56077 0.05 0.0
C185 C 0.04024 0.54422 0.99283 0.0
C186 C 0.03938 0.53657 0.96609 0.0
C187 C 0.49639 0.05378 0.35857 0.0
C188 C 0.48912 0.04943 0.38506 0.0
C189 C 0.50505 0.057 0.32752 0.0
C190 C 0.50777 0.05498 0.30073 0.0
C191 C 0.54734 0.52977 0.69155 0.0
C192 C 0.54796 0.5231 0.71809 0.0
C193 C 0.54656 0.5374 0.66044 0.0
C194 C 0.54476 0.53954 0.63361 0.0
C195 C 0.51307 0.03318 0.63808 0.0
C196 C 0.50517 0.03752 0.61178 0.0
C197 C 0.52359 0.02916 0.66886 0.0
C198 C 0.53264 0.03063 0.69551 0.0
C199 C 0.53352 0.5102 0.97191 0.0
C200 C 0.54184 0.51218 0.94547 0.0
C201 C 0.52501 0.50974 0.00298 0.0
C202 C 0.52292 0.51189 0.02982 0.0
C203 C 0.01309 0.56867 0.30322 0.0
C204 C 0.01728 0.57557 0.2767 0.0
C205 C 0.00964 0.56028 0.33428 0.0
C206 C 0.01115 0.55766 0.36108 0.0
loop_
_geom_bond_atom_site_label_1
_geom_bond_atom_site_label_2
_geom_bond_distance
_geom_bond_site_symmetry_2
_ccdc_geom_bond_type
O0 Zn1 1.953 . S
O0 C16 1.225 . S
Zn1 O0 1.953 . S
Zn1 O2 1.949 . S
Zn1 O8 1.919 1_455 S
Zn1 O13 1.924 . S
O2 Zn1 1.949 . S
O2 Zn3 1.923 1_455 S
O2 Zn4 1.950 . S
O2 Zn5 1.945 . S
Zn3 O2 1.923 1_655 S
Zn3 O6 1.933 . S
Zn3 O9 1.941 . S
Zn3 O10 1.965 . S
Zn4 O2 1.950 . S
Zn4 O11 1.938 1_455 S
Zn4 O12 1.906 . S
Zn4 O22 1.953 . S
Zn5 O2 1.945 . S
Zn5 O7 1.932 . S
Zn5 O14 1.977 . S
Zn5 O15 1.910 . S
O6 Zn3 1.933 . S
O6 C17 1.226 1_655 S
O7 Zn5 1.932 . S
O7 C17 1.307 . S
O8 Zn1 1.919 1_655 S
O8 C19 1.253 . S
O9 Zn3 1.941 . S
O9 C19 1.283 . S
O10 Zn3 1.965 . S
O10 C18 1.303 . S
O11 Zn4 1.938 1_655 S
O11 C18 1.247 . S
O12 Zn4 1.906 . S
O12 C20 1.304 . S
O13 Zn1 1.924 . S
O13 C21 1.311 . S
O14 Zn5 1.977 . S
O14 C20 1.272 . S
O15 Zn5 1.910 . S
O15 C21 1.231 . S
C16 O0 1.225 . S
C16 O22 1.298 . S
C17 O6 1.226 1_455 S
C17 O7 1.307 . S
C18 O10 1.303 . S
C18 O11 1.247 . S
C19 O8 1.253 . S
C19 O9 1.283 . S
C20 O12 1.304 . S
C20 O14 1.272 . S
C21 O13 1.311 . S
C21 O15 1.231 . S
O22 Zn4 1.953 . S
O22 C16 1.298 . S
O23 Zn24 1.953 . S
O23 C39 1.225 . S
Zn24 O23 1.953 . S
Zn24 O25 1.949 . S
Zn24 O31 1.919 . S
Zn24 O36 1.924 1_545 S
O25 Zn24 1.949 . S
O25 Zn26 1.923 . S
O25 Zn27 1.950 . S
O25 Zn28 1.945 1_545 S
Zn26 O25 1.923 . S
Zn26 O29 1.933 . S
Zn26 O32 1.941 . S
Zn26 O33 1.965 . S
Zn27 O25 1.950 . S
Zn27 O34 1.938 . S
Zn27 O35 1.906 1_545 S
Zn27 O45 1.953 . S
Zn28 O25 1.945 1_565 S
Zn28 O30 1.932 1_565 S
Zn28 O37 1.977 . S
Zn28 O38 1.910 . S
O29 Zn26 1.933 . S
O29 C40 1.226 . S
O30 Zn28 1.932 1_545 S
O30 C40 1.307 . S
O31 Zn24 1.919 . S
O31 C42 1.253 . S
O32 Zn26 1.941 . S
O32 C42 1.283 . S
O33 Zn26 1.965 . S
O33 C41 1.303 . S
O34 Zn27 1.938 . S
O34 C41 1.247 . S
O35 Zn27 1.906 1_565 S
O35 C43 1.304 . S
O36 Zn24 1.924 1_565 S
O36 C44 1.311 . S
O37 Zn28 1.977 . S
O37 C43 1.272 . S
O38 Zn28 1.910 . S
O38 C44 1.231 . S
C39 O23 1.225 . S
C39 O45 1.298 . S
C40 O29 1.226 . S
C40 O30 1.307 . S
C41 O33 1.303 . S
C41 O34 1.247 . S
C42 O31 1.253 . S
C42 O32 1.283 . S
C43 O35 1.304 . S
C43 O37 1.272 . S
C44 O36 1.311 . S
C44 O38 1.231 . S
O45 Zn27 1.953 . S
O45 C39 1.298 . S
O46 Zn47 1.953 . S
O46 C62 1.225 . S
Zn47 O46 1.953 . S
Zn47 O48 1.949 . S
Zn47 O54 1.919 . S
Zn47 O59 1.924 . S
O48 Zn47 1.949 . S
O48 Zn49 1.923 . S
O48 Zn50 1.950 . S
O48 Zn51 1.945 . S
Zn49 O48 1.923 . S
Zn49 O52 1.933 . S
Zn49 O55 1.941 . S
Zn49 O56 1.965 . S
Zn50 O48 1.950 . S
Zn50 O57 1.938 . S
Zn50 O58 1.906 . S
Zn50 O68 1.953 . S
Zn51 O48 1.945 . S
Zn51 O53 1.932 . S
Zn51 O60 1.977 . S
Zn51 O61 1.910 . S
O52 Zn49 1.933 . S
O52 C63 1.226 . S
O53 Zn51 1.932 . S
O53 C63 1.307 . S
O54 Zn47 1.919 . S
O54 C65 1.253 . S
O55 Zn49 1.941 . S
O55 C65 1.283 . S
O56 Zn49 1.965 . S
O56 C64 1.303 . S
O57 Zn50 1.938 . S
O57 C64 1.247 . S
O58 Zn50 1.906 . S
O58 C66 1.304 . S
O59 Zn47 1.924 . S
O59 C67 1.311 . S
O60 Zn51 1.977 . S
O60 C66 1.272 . S
O61 Zn51 1.910 . S
O61 C67 1.231 . S
C62 O46 1.225 . S
C62 O68 1.298 . S
C63 O52 1.226 . S
C63 O53 1.307 . S
C64 O56 1.303 . S
C64 O57 1.247 . S
C65 O54 1.253 . S
C65 O55 1.283 . S
C66 O58 1.304 . S
C66 O60 1.272 . S
C67 O59 1.311 . S
C67 O61 1.231 . S
O68 Zn50 1.953 . S
O68 C62 1.298 . S
H69 C72 0.929 1_565 S
H70 C75 0.929 . S
H71 C77 0.930 . S
C72 H69 0.929 1_545 S
C72 C73 1.398 1_545 S
C72 C74 1.396 . S
C73 C72 1.398 1_565 S
C73 C77 1.407 1_565 S
C74 C72 1.396 . S
C74 C75 1.394 . S
C75 H70 0.929 . S
C75 C74 1.394 . S
C75 C76 1.382 . S
C76 C75 1.382 . S
C76 C77 1.392 . S
C76 N78 1.420 . S
C77 H71 0.930 . S
C77 C73 1.407 1_545 S
C77 C76 1.392 . S
N78 C76 1.420 . S
N78 C79 1.244 . S
C79 N78 1.244 . S
H80 C83 0.929 . S
H81 C86 0.929 . S
H82 C88 0.930 . S
C83 H80 0.929 . S
C83 C84 1.398 . S
C83 C85 1.396 . S
C84 C83 1.398 . S
C84 C88 1.407 . S
C85 C83 1.396 . S
C85 C86 1.394 . S
C86 H81 0.929 . S
C86 C85 1.394 . S
C86 C87 1.382 . S
C87 C86 1.382 . S
C87 C88 1.392 . S
C87 N89 1.420 . S
C88 H82 0.930 . S
C88 C84 1.407 . S
C88 C87 1.392 . S
N89 C87 1.420 . S
N89 C90 1.244 . S
C90 N89 1.244 . S
H91 C94 0.945 . S
H92 C97 0.929 . S
H93 C99 0.930 . S
C94 H91 0.945 . S
C94 C95 1.399 . S
C94 C96 1.379 1_655 S
C95 C94 1.399 . S
C95 C99 1.407 1_655 S
C96 C94 1.379 1_455 S
C96 C97 1.394 . S
C97 H92 0.929 . S
C97 C96 1.394 . S
C97 C98 1.382 . S
C98 C97 1.382 . S
C98 C99 1.392 . S
C98 N100 1.420 . S
C99 H93 0.930 . S
C99 C95 1.407 1_455 S
C99 C98 1.392 . S
N100 C98 1.420 . S
N100 C101 1.244 . S
C101 N100 1.244 . S
H102 C105 0.929 . S
H103 C108 0.929 1_655 S
H104 C110 0.930 . S
C105 H102 0.929 . S
C105 C106 1.398 . S
C105 C107 1.396 . S
C106 C105 1.398 . S
C106 C110 1.407 . S
C107 C105 1.396 . S
C107 C108 1.394 . S
C108 H103 0.929 1_455 S
C108 C107 1.394 . S
C108 C109 1.382 . S
C109 C108 1.382 . S
C109 C110 1.392 . S
C109 N111 1.420 1_455 S
C110 H104 0.930 . S
C110 C106 1.407 . S
C110 C109 1.392 . S
N111 C109 1.420 1_655 S
N111 C112 1.244 . S
C112 N111 1.244 . S
H113 C116 0.929 . S
H114 C119 0.929 1_565 S
H115 C121 0.930 . S
C116 H113 0.929 . S
C116 C117 1.398 . S
C116 C118 1.396 . S
C117 C116 1.398 . S
C117 C121 1.407 . S
C118 C116 1.396 . S
C118 C119 1.394 . S
C119 H114 0.929 1_545 S
C119 C118 1.394 . S
C119 C120 1.382 . S
C120 C119 1.382 . S
C120 C121 1.392 . S
C120 N122 1.420 1_545 S
C121 H115 0.930 . S
C121 C117 1.407 . S
C121 C120 1.392 . S
N122 C120 1.420 1_565 S
N122 C123 1.244 . S
C123 N122 1.244 . S
H124 C127 0.929 . S
H125 C130 0.929 . S
H126 C132 0.930 . S
C127 H124 0.929 . S
C127 C128 1.398 . S
C127 C129 1.396 . S
C128 C127 1.398 . S
C128 C132 1.407 . S
C129 C127 1.396 . S
C129 C130 1.394 . S
C130 H125 0.929 . S
C130 C129 1.394 . S
C130 C131 1.382 . S
C131 C130 1.382 . S
C131 C132 1.392 . S
C131 N133 1.420 . S
C132 H126 0.930 . S
C132 C128 1.407 . S
C132 C131 1.392 . S
N133 C131 1.420 . S
N133 C134 1.244 . S
C134 N133 1.244 . S
C135 C136 1.170 . S
C135 C137 1.380 . S
C136 C135 1.170 . S
C137 C135 1.380 . S
C137 C138 1.170 . S
C138 C137 1.170 . S
C139 C140 1.170 . S
C139 C141 1.380 . S
C140 C139 1.170 . S
C141 C139 1.380 . S
C141 C142 1.170 . S
C142 C141 1.170 . S
C143 C144 1.170 . S
C143 C145 1.380 . S
C144 C143 1.170 . S
C145 C143 1.380 . S
C145 C146 1.170 . S
C146 C145 1.170 . S
C147 C148 1.170 . S
C147 C149 1.380 . S
C148 C147 1.170 . S
C149 C147 1.380 . S
C149 C150 1.170 . S
C150 C149 1.170 . S
C151 C152 1.170 . S
C151 C153 1.380 . S
C152 C151 1.170 . S
C153 C151 1.380 . S
C153 C154 1.170 . S
C154 C153 1.170 . S
C155 C156 1.170 . S
C155 C157 1.380 . S
C156 C155 1.170 . S
C157 C155 1.380 . S
C157 C158 1.170 . S
C158 C157 1.170 . S
C159 C160 1.170 . S
C159 C161 1.380 . S
C160 C159 1.170 . S
C161 C159 1.380 . S
C161 C162 1.170 . S
C162 C161 1.170 . S
C163 C164 1.170 . S
C163 C165 1.380 . S
C164 C163 1.170 . S
C165 C163 1.380 . S
C165 C166 1.170 . S
C166 C165 1.170 . S
C167 C168 1.170 . S
C167 C169 1.380 . S
C168 C167 1.170 . S
C169 C167 1.380 . S
C169 C170 1.170 . S
C170 C169 1.170 . S
C171 C172 1.170 . S
C171 C173 1.380 . S
C172 C171 1.170 . S
C173 C171 1.380 . S
C173 C174 1.170 . S
C174 C173 1.170 . S
C175 C176 1.170 . S
C175 C177 1.380 . S
C176 C175 1.170 . S
C177 C175 1.380 . S
C177 C178 1.170 . S
C178 C177 1.170 . S
C179 C180 1.170 . S
C179 C181 1.380 . S
C180 C179 1.170 . S
C181 C179 1.380 . S
C181 C182 1.170 . S
C182 C181 1.170 . S
C183 C184 1.170 . S
C183 C185 1.380 1_554 S
C184 C183 1.170 . S
C185 C183 1.380 1_556 S
C185 C186 1.170 . S
C186 C185 1.170 . S
C187 C188 1.170 . S
C187 C189 1.380 . S
C188 C187 1.170 . S
C189 C187 1.380 . S
C189 C190 1.170 . S
C190 C189 1.170 . S
C191 C192 1.170 . S
C191 C193 1.380 . S
C192 C191 1.170 . S
C193 C191 1.380 . S
C193 C194 1.170 . S
C194 C193 1.170 . S
C195 C196 1.170 . S
C195 C197 1.380 . S
C196 C195 1.170 . S
C197 C195 1.380 . S
C197 C198 1.170 . S
C198 C197 1.170 . S
C199 C200 1.170 . S
C199 C201 1.380 1_556 S
C200 C199 1.170 . S
C201 C199 1.380 1_554 S
C201 C202 1.170 . S
C202 C201 1.170 . S
C203 C204 1.170 . S
C203 C205 1.380 . S
C204 C203 1.170 . S
C205 C203 1.380 . S
C205 C206 1.170 . S
C206 C205 1.170 . S
C136 C20 1.347 . S
C138 C134 1.346 . S
C140 C41 1.381 . S
C142 C112 1.355 . S
C144 C64 1.411 . S
C146 C123 1.379 . S
C148 C19 1.313 . S
C150 C128 1.434 . S
C154 C106 1.374 . S
C152 C44 1.385 . S
C158 C117 1.346 . S
C156 C67 1.318 . S
C160 C43 1.321 . S
C162 C90 1.361 . S
C164 C66 1.279 . S
C166 C95 1.307 . S
C168 C21 1.379 . S
C170 C73 1.373 . S
C174 C84 1.395 . S
C172 C42 1.349 . S
C178 C101 1.380 . S
C176 C65 1.364 . S
C180 C18 1.378 . S
C182 C79 1.374 . S
C186 C96 1.527 . S
C184 C17 1.513 . S
C188 C39 1.538 . S
C190 C74 1.521 . S
C192 C62 1.534 . S
C194 C85 1.515 . S
C198 C118 1.508 . S
C196 C40 1.520 . S
C202 C129 1.521 . S
C200 C63 1.523 . S
C204 C16 1.535 . S
C206 C107 1.517 . S
