# Generated by pormake.
# Topology pto, (3,4)-cn, num edge types: 1
# Building blocks:
#     Node 0, Type 0, BuildingBlock: PAMTOO_clean_linker_0, # of connection points: 3
#     Node 1, Type 0, BuildingBlock: PAMTOO_clean_linker_0, # of connection points: 3
#     Node 2, Type 0, BuildingBlock: PAMTOO_clean_linker_0, # of connection points: 3
#     Node 3, Type 0, BuildingBlock: PAMTOO_clean_linker_0, # of connection points: 3
#     Node 4, Type 0, BuildingBlock: PAMTOO_clean_linker_0, # of connection points: 3
#     Node 5, Type 0, BuildingBlock: PAMTOO_clean_linker_0, # of connection points: 3
#     Node 6, Type 0, BuildingBlock: PAMTOO_clean_linker_0, # of connection points: 3
#     Node 7, Type 0, BuildingBlock: PAMTOO_clean_linker_0, # of connection points: 3
#     Node 8, Type 1, BuildingBlock: NAWXER_clean_sbu_0, # of connection points: 4
#     Node 9, Type 1, BuildingBlock: NAWXER_clean_sbu_0, # of connection points: 4
#     Node 10, Type 1, BuildingBlock: NAWXER_clean_sbu_0, # of connection points: 4
#     Node 11, Type 1, BuildingBlock: NAWXER_clean_sbu_0, # of connection points: 4
#     Node 12, Type 1, BuildingBlock: NAWXER_clean_sbu_0, # of connection points: 4
#     Node 13, Type 1, BuildingBlock: NAWXER_clean_sbu_0, # of connection points: 4
#     Edge 14, Type (0, 1), None
#     Edge 15, Type (0, 1), None
#     Edge 16, Type (0, 1), None
#     Edge 17, Type (0, 1), None
#     Edge 18, Type (0, 1), None
#     Edge 19, Type (0, 1), None
#     Edge 20, Type (0, 1), None
#     Edge 21, Type (0, 1), None
#     Edge 22, Type (0, 1), None
#     Edge 23, Type (0, 1), None
#     Edge 24, Type (0, 1), None
#     Edge 25, Type (0, 1), None
#     Edge 26, Type (0, 1), None
#     Edge 27, Type (0, 1), None
#     Edge 28, Type (0, 1), None
#     Edge 29, Type (0, 1), None
#     Edge 30, Type (0, 1), None
#     Edge 31, Type (0, 1), None
#     Edge 32, Type (0, 1), None
#     Edge 33, Type (0, 1), None
#     Edge 34, Type (0, 1), None
#     Edge 35, Type (0, 1), None
#     Edge 36, Type (0, 1), None
#     Edge 37, Type (0, 1), None
# Relax obj value: 0.022
# Max RMSD: 0.143
# Mean RMSD: 0.062
data_MOF--net-pto--node1-NAWXER_clean_sbu_0--node2-PAMTOO_clean_linker_0--edge1-none
_symmetry_space_group_name_H-M    P1
_symmetry_Int_Tables_number       1
_symmetry_cell_setting            triclinic
loop_
_symmetry_equiv_pos_as_xyz
'x, y, z'
_cell_length_a     17.697572
_cell_length_b     16.100549
_cell_length_c     15.77178
_cell_angle_alpha  81.871325
_cell_angle_beta   84.472419
_cell_angle_gamma 100.72065
loop_
_atom_site_label
_atom_site_type_symbol
_atom_site_fract_x
_atom_site_fract_y
_atom_site_fract_z
_atom_type_partial_charge
H0 H 0.1819 0.29541 0.42983 0.0
H1 H 0.4329 0.33589 0.38978 0.0
H2 H 0.31592 0.53137 0.28807 0.0
H3 H 0.51426 0.58204 0.2057 0.0
C4 C 0.46615 0.52665 0.21179 0.0
O5 O 0.44962 0.49058 0.29833 0.0
H6 H 0.41677 0.55135 0.18666 0.0
C7 C 0.23803 0.33396 0.40211 0.0
C8 C 0.24125 0.41451 0.35074 0.0
C9 C 0.30752 0.30441 0.41862 0.0
C10 C 0.37907 0.35658 0.38008 0.0
C11 C 0.38144 0.43783 0.33197 0.0
C12 C 0.31309 0.46683 0.32105 0.0
H13 H 0.16405 0.80591 0.72277 0.0
H14 H 0.23504 0.66592 0.9438 0.0
H15 H 0.38213 0.90062 0.8126 0.0
H16 H 0.44579 0.72384 0.86724 0.0
C17 C 0.41569 0.71485 0.93414 0.0
O18 O 0.36561 0.77078 0.93961 0.0
H19 H 0.38292 0.64766 0.95282 0.0
C20 C 0.20611 0.79989 0.7677 0.0
C21 C 0.27438 0.86492 0.75997 0.0
C22 C 0.19114 0.72756 0.83406 0.0
C23 C 0.24498 0.72071 0.89256 0.0
C24 C 0.3144 0.78105 0.88286 0.0
C25 C 0.3293 0.85294 0.81697 0.0
H26 H 0.66302 0.86072 0.3497 0.0
H27 H 0.76819 0.69683 0.20349 0.0
H28 H 0.88272 0.79963 0.40501 0.0
H29 H 0.97804 0.78263 0.21376 0.0
C30 C 0.94729 0.71473 0.2209 0.0
O31 O 0.88656 0.69678 0.28774 0.0
H32 H 0.92474 0.70185 0.15968 0.0
C33 C 0.70988 0.82732 0.33793 0.0
C34 C 0.77179 0.83489 0.38809 0.0
C35 C 0.70894 0.77829 0.27112 0.0
C36 C 0.76927 0.73568 0.25439 0.0
C37 C 0.83264 0.74476 0.30077 0.0
C38 C 0.83438 0.79481 0.3675 0.0
H39 H 0.77817 0.39337 0.97706 0.0
H40 H 0.63431 0.18186 0.89342 0.0
H41 H 0.87739 0.25214 0.79842 0.0
H42 H 0.72451 0.21579 0.6809 0.0
C43 C 0.70736 0.15019 0.71927 0.0
O44 O 0.74534 0.1449 0.79229 0.0
H45 H 0.64371 0.1361 0.73924 0.0
C46 C 0.77266 0.34016 0.94131 0.0
C47 C 0.83802 0.32651 0.89233 0.0
C48 C 0.69911 0.28987 0.93978 0.0
C49 C 0.69102 0.22135 0.89357 0.0
C50 C 0.75503 0.20804 0.84155 0.0
C51 C 0.82837 0.26127 0.84025 0.0
H52 H 0.80133 0.96038 0.84071 0.0
H53 H 0.72756 0.68733 0.91297 0.0
H54 H 0.92549 0.79384 0.72322 0.0
H55 H 0.86286 0.68385 0.66596 0.0
C56 C 0.85439 0.62986 0.72057 0.0
O57 O 0.83071 0.65115 0.80031 0.0
H58 H 0.80891 0.57856 0.70547 0.0
C59 C 0.81196 0.8963 0.83941 0.0
C60 C 0.8658 0.88331 0.77344 0.0
C61 C 0.76193 0.82631 0.89197 0.0
C62 C 0.76826 0.74293 0.87754 0.0
C63 C 0.82722 0.73092 0.81652 0.0
C64 C 0.88124 0.80208 0.77198 0.0
H65 H 0.94285 0.28831 0.45997 0.0
H66 H 0.75986 0.17216 0.32744 0.0
H67 H 0.80941 0.44462 0.31846 0.0
H68 H 0.62348 0.33158 0.34786 0.0
C69 C 0.63992 0.28631 0.30576 0.0
O70 O 0.71707 0.31331 0.27121 0.0
H71 H 0.63029 0.22121 0.34488 0.0
C72 C 0.89637 0.29399 0.42068 0.0
C73 C 0.88063 0.37433 0.39362 0.0
C74 C 0.85348 0.22133 0.39669 0.0
C75 C 0.79446 0.22887 0.34464 0.0
C76 C 0.77587 0.30843 0.31956 0.0
C77 C 0.81991 0.38197 0.34291 0.0
H78 H 0.11003 0.27684 0.69948 0.0
H79 H 0.23503 0.40921 0.87923 0.0
H80 H 0.27468 0.16328 0.83629 0.0
H81 H 0.28216 0.18888 0.0123 0.0
C82 C 0.30887 0.25831 1.00312 0.0
O83 O 0.31892 0.29219 0.91605 0.0
H84 H 0.26948 0.2914 0.03888 0.0
C85 C 0.15032 0.27843 0.74718 0.0
C86 C 0.18741 0.20977 0.76573 0.0
C87 C 0.1676 0.35078 0.78724 0.0
C88 C 0.22157 0.35352 0.84783 0.0
C89 C 0.26012 0.28561 0.866 0.0
C90 C 0.24231 0.2139 0.82522 0.0
H91 H 0.13022 0.81911 0.47194 0.0
H92 H 0.2996 0.74418 0.29797 0.0
H93 H 0.33525 1.00125 0.34911 0.0
H94 H 0.42937 1.00687 0.18827 0.0
C95 C 0.41616 0.93672 0.18769 0.0
O96 O 0.39699 0.89283 0.27151 0.0
H97 H 0.36664 0.92202 0.1501 0.0
C98 C 0.18336 0.83514 0.42738 0.0
C99 C 0.22779 0.91849 0.4131 0.0
C100 C 0.20898 0.77179 0.38638 0.0
C101 C 0.27917 0.79277 0.32976 0.0
C102 C 0.3246 0.87567 0.31603 0.0
C103 C 0.29828 0.93816 0.35714 0.0
C104 C 0.94281 0.44715 0.39448 0.0
C105 C 0.15848 0.68699 0.39319 0.0
O106 O 0.959 0.47582 0.46343 0.0
Zn107 Zn 0.05454 0.55717 0.41166 0.0
O108 O 0.98938 0.47099 0.32507 0.0
Zn109 Zn 0.09042 0.55694 0.27353 0.0
O110 O 0.16459 0.482 0.25612 0.0
O111 O 0.13627 0.47752 0.39589 0.0
O112 O 0.15571 0.65472 0.32409 0.0
O113 O 0.11143 0.65161 0.46072 0.0
O114 O 1.0046 0.63446 0.32427 0.0
O115 O 0.04442 0.62924 0.18823 0.0
C116 C 0.17302 0.45282 0.33352 0.0
C117 C 1.00244 0.65723 0.244 0.0
C118 C 0.91127 0.39151 0.88204 0.0
C119 C 0.12392 0.65486 0.83908 0.0
O120 O 0.93342 0.43078 0.94331 0.0
Zn121 Zn 1.01825 0.52017 0.87466 0.0
O122 O 0.94563 0.41805 0.80557 0.0
Zn123 Zn 0.03403 0.51749 0.73535 0.0
O124 O 0.10453 0.44491 0.6993 0.0
O125 O 0.09516 0.44439 0.84007 0.0
O126 O 0.10901 0.6244 0.77041 0.0
O127 O 0.08701 0.61589 0.91164 0.0
O128 O 0.94616 0.58143 0.80383 0.0
O129 O 0.96456 0.57266 0.6651 0.0
C130 C 0.12307 0.41891 0.77327 0.0
C131 C 0.92732 0.59602 0.72802 0.0
C132 C 0.28384 0.94639 0.69653 0.0
C133 C 0.30406 0.22124 0.47787 0.0
O134 O 0.22259 0.96655 0.67058 0.0
Zn135 Zn 0.18363 0.05993 0.58835 0.0
O136 O 0.34925 0.997 0.66867 0.0
Zn137 Zn 0.31439 0.08816 0.58764 0.0
O138 O 0.25504 0.13945 0.67657 0.0
O139 O 0.12824 0.1136 0.67426 0.0
O140 O 0.36384 0.19813 0.50615 0.0
O141 O 0.23762 0.17348 0.50442 0.0
O142 O 0.14706 0.98542 0.50462 0.0
O143 O 0.2746 0.01454 0.50057 0.0
C144 C 0.18806 0.14781 0.70598 0.0
C145 C 0.21426 0.97801 0.47258 0.0
C146 C 0.65014 0.77802 0.21197 0.0
C147 C 0.47472 0.73379 0.99369 0.0
O148 O 0.60751 0.7082 0.20295 0.0
Zn149 Zn 0.56043 0.75036 0.10444 0.0
O150 O 0.65073 0.84665 0.15992 0.0
Zn151 Zn 0.59635 0.88304 0.05011 0.0
O152 O 0.53591 0.96344 0.09017 0.0
O153 O 0.48837 0.83031 0.15404 0.0
O154 O 0.51265 0.81077 0.98636 0.0
O155 O 0.48498 0.67638 0.05321 0.0
O156 O 0.65628 0.77576 1.00518 0.0
O157 O 0.68525 0.91477 0.9591 0.0
C158 C 0.48469 0.90971 0.14313 0.0
C159 C 0.69879 0.84024 0.95489 0.0
C160 C 0.86458 0.93226 0.68923 0.0
C161 C 0.85639 0.13807 0.44373 0.0
O162 O 0.79788 0.92731 0.66342 0.0
Zn163 Zn 0.74396 0.98335 0.56533 0.0
O164 O 0.92516 0.97701 0.64288 0.0
Zn165 Zn 0.86777 0.02617 0.55665 0.0
O166 O 0.79908 0.09054 0.63735 0.0
O167 O 0.67509 0.03552 0.63606 0.0
O168 O 0.91786 0.12373 0.47373 0.0
O169 O 0.79095 0.0891 0.4719 0.0
O170 O 0.7072 0.89633 0.49692 0.0
O171 O 0.8348 0.93033 0.47641 0.0
C172 C 0.72758 0.08763 0.66282 0.0
C173 C 0.77118 0.88759 0.45859 0.0
C174 C 0.58919 0.28381 0.23484 0.0
C175 C 0.38494 0.26893 0.04095 0.0
O176 O 0.53026 0.22347 0.23936 0.0
Zn177 Zn 0.4919 0.271 0.13571 0.0
O178 O 0.60193 0.34708 0.17257 0.0
Zn179 Zn 0.54682 0.38765 0.0604 0.0
O180 O 0.534 0.49537 0.08663 0.0
O181 O 0.46631 0.38496 0.18062 0.0
O182 O 0.43688 0.33772 0.01843 0.0
O183 O 0.39414 0.21386 0.10307 0.0
O184 O 0.58399 0.26067 0.04009 0.0
O185 O 0.62581 0.39237 0.9694 0.0
C186 C 0.48991 0.466 0.15694 0.0
C187 C 0.63134 0.31443 0.98229 0.0
loop_
_geom_bond_atom_site_label_1
_geom_bond_atom_site_label_2
_geom_bond_distance
_geom_bond_site_symmetry_2
_ccdc_geom_bond_type
H0 C7 0.929 . S
H1 C10 0.930 . S
H2 C12 0.929 . S
H3 C4 0.969 . S
C4 H3 0.969 . S
C4 O5 1.550 . S
C4 H6 0.973 . S
O5 C4 1.550 . S
O5 C11 1.412 . S
H6 C4 0.973 . S
C7 H0 0.929 . S
C7 C8 1.400 . S
C7 C9 1.364 . S
C8 C7 1.400 . S
C8 C12 1.377 . S
C9 C7 1.364 . S
C9 C10 1.374 . S
C10 H1 0.930 . S
C10 C9 1.374 . S
C10 C11 1.383 . S
C11 O5 1.412 . S
C11 C10 1.383 . S
C11 C12 1.394 . S
C12 H2 0.929 . S
C12 C8 1.377 . S
C12 C11 1.394 . S
H13 C20 0.929 . S
H14 C23 0.930 . S
H15 C25 0.929 . S
H16 C17 0.969 . S
C17 H16 0.969 . S
C17 O18 1.550 . S
C17 H19 0.973 . S
O18 C17 1.550 . S
O18 C24 1.412 . S
H19 C17 0.973 . S
C20 H13 0.929 . S
C20 C21 1.400 . S
C20 C22 1.364 . S
C21 C20 1.400 . S
C21 C25 1.377 . S
C22 C20 1.364 . S
C22 C23 1.374 . S
C23 H14 0.930 . S
C23 C22 1.374 . S
C23 C24 1.383 . S
C24 O18 1.412 . S
C24 C23 1.383 . S
C24 C25 1.394 . S
C25 H15 0.929 . S
C25 C21 1.377 . S
C25 C24 1.394 . S
H26 C33 0.929 . S
H27 C36 0.930 . S
H28 C38 0.929 . S
H29 C30 0.969 . S
C30 H29 0.969 . S
C30 O31 1.550 . S
C30 H32 0.973 . S
O31 C30 1.550 . S
O31 C37 1.412 . S
H32 C30 0.973 . S
C33 H26 0.929 . S
C33 C34 1.400 . S
C33 C35 1.364 . S
C34 C33 1.400 . S
C34 C38 1.377 . S
C35 C33 1.364 . S
C35 C36 1.374 . S
C36 H27 0.930 . S
C36 C35 1.374 . S
C36 C37 1.383 . S
C37 O31 1.412 . S
C37 C36 1.383 . S
C37 C38 1.394 . S
C38 H28 0.929 . S
C38 C34 1.377 . S
C38 C37 1.394 . S
H39 C46 0.929 . S
H40 C49 0.930 . S
H41 C51 0.929 . S
H42 C43 0.969 . S
C43 H42 0.969 . S
C43 O44 1.550 . S
C43 H45 0.973 . S
O44 C43 1.550 . S
O44 C50 1.412 . S
H45 C43 0.973 . S
C46 H39 0.929 . S
C46 C47 1.400 . S
C46 C48 1.364 . S
C47 C46 1.400 . S
C47 C51 1.377 . S
C48 C46 1.364 . S
C48 C49 1.374 . S
C49 H40 0.930 . S
C49 C48 1.374 . S
C49 C50 1.383 . S
C50 O44 1.412 . S
C50 C49 1.383 . S
C50 C51 1.394 . S
C51 H41 0.929 . S
C51 C47 1.377 . S
C51 C50 1.394 . S
H52 C59 0.929 . S
H53 C62 0.930 . S
H54 C64 0.929 . S
H55 C56 0.969 . S
C56 H55 0.969 . S
C56 O57 1.550 . S
C56 H58 0.973 . S
O57 C56 1.550 . S
O57 C63 1.412 . S
H58 C56 0.973 . S
C59 H52 0.929 . S
C59 C60 1.400 . S
C59 C61 1.364 . S
C60 C59 1.400 . S
C60 C64 1.377 . S
C61 C59 1.364 . S
C61 C62 1.374 . S
C62 H53 0.930 . S
C62 C61 1.374 . S
C62 C63 1.383 . S
C63 O57 1.412 . S
C63 C62 1.383 . S
C63 C64 1.394 . S
C64 H54 0.929 . S
C64 C60 1.377 . S
C64 C63 1.394 . S
H65 C72 0.929 . S
H66 C75 0.930 . S
H67 C77 0.929 . S
H68 C69 0.969 . S
C69 H68 0.969 . S
C69 O70 1.550 . S
C69 H71 0.973 . S
O70 C69 1.550 . S
O70 C76 1.412 . S
H71 C69 0.973 . S
C72 H65 0.929 . S
C72 C73 1.400 . S
C72 C74 1.364 . S
C73 C72 1.400 . S
C73 C77 1.377 . S
C74 C72 1.364 . S
C74 C75 1.374 . S
C75 H66 0.930 . S
C75 C74 1.374 . S
C75 C76 1.383 . S
C76 O70 1.412 . S
C76 C75 1.383 . S
C76 C77 1.394 . S
C77 H67 0.929 . S
C77 C73 1.377 . S
C77 C76 1.394 . S
H78 C85 0.929 . S
H79 C88 0.930 . S
H80 C90 0.929 . S
H81 C82 0.969 . S
C82 H81 0.969 . S
C82 O83 1.550 . S
C82 H84 0.973 . S
O83 C82 1.550 . S
O83 C89 1.412 . S
H84 C82 0.973 . S
C85 H78 0.929 . S
C85 C86 1.400 . S
C85 C87 1.364 . S
C86 C85 1.400 . S
C86 C90 1.377 . S
C87 C85 1.364 . S
C87 C88 1.374 . S
C88 H79 0.930 . S
C88 C87 1.374 . S
C88 C89 1.383 . S
C89 O83 1.412 . S
C89 C88 1.383 . S
C89 C90 1.394 . S
C90 H80 0.929 . S
C90 C86 1.377 . S
C90 C89 1.394 . S
H91 C98 0.929 . S
H92 C101 0.930 . S
H93 C103 0.929 . S
H94 C95 0.969 . S
C95 H94 0.969 . S
C95 O96 1.550 . S
C95 H97 0.973 . S
O96 C95 1.550 . S
O96 C102 1.412 . S
H97 C95 0.973 . S
C98 H91 0.929 . S
C98 C99 1.400 . S
C98 C100 1.364 . S
C99 C98 1.400 . S
C99 C103 1.377 . S
C100 C98 1.364 . S
C100 C101 1.374 . S
C101 H92 0.930 . S
C101 C100 1.374 . S
C101 C102 1.383 . S
C102 O96 1.412 . S
C102 C101 1.383 . S
C102 C103 1.394 . S
C103 H93 0.929 . S
C103 C99 1.377 . S
C103 C102 1.394 . S
C104 O106 1.247 . S
C104 O108 1.258 . S
C105 O112 1.247 . S
C105 O113 1.258 . S
O106 C104 1.247 . S
O106 Zn107 2.028 . S
Zn107 O106 2.028 . S
Zn107 O111 2.035 1_655 S
Zn107 O113 2.035 1_655 S
Zn107 O114 2.028 . S
O108 C104 1.258 . S
O108 Zn109 2.035 1_655 S
Zn109 O108 2.035 1_455 S
Zn109 O110 2.028 . S
Zn109 O112 2.028 . S
Zn109 O115 2.035 1_455 S
O110 Zn109 2.028 . S
O110 C116 1.247 . S
O111 Zn107 2.035 1_455 S
O111 C116 1.258 . S
O112 C105 1.247 . S
O112 Zn109 2.028 . S
O113 C105 1.258 . S
O113 Zn107 2.035 1_455 S
O114 Zn107 2.028 . S
O114 C117 1.247 . S
O115 Zn109 2.035 1_655 S
O115 C117 1.258 . S
C116 O110 1.247 . S
C116 O111 1.258 . S
C117 O114 1.247 . S
C117 O115 1.258 . S
C118 O120 1.247 . S
C118 O122 1.258 . S
C119 O126 1.247 . S
C119 O127 1.258 . S
O120 C118 1.247 . S
O120 Zn121 2.028 1_655 S
Zn121 O120 2.028 1_455 S
Zn121 O125 2.035 . S
Zn121 O127 2.035 . S
Zn121 O128 2.028 1_455 S
O122 C118 1.258 . S
O122 Zn123 2.035 1_655 S
Zn123 O122 2.035 1_455 S
Zn123 O124 2.028 . S
Zn123 O126 2.028 . S
Zn123 O129 2.035 1_455 S
O124 Zn123 2.028 . S
O124 C130 1.247 . S
O125 Zn121 2.035 . S
O125 C130 1.258 . S
O126 C119 1.247 . S
O126 Zn123 2.028 . S
O127 C119 1.258 . S
O127 Zn121 2.035 . S
O128 Zn121 2.028 1_655 S
O128 C131 1.247 . S
O129 Zn123 2.035 1_655 S
O129 C131 1.258 . S
C130 O124 1.247 . S
C130 O125 1.258 . S
C131 O128 1.247 . S
C131 O129 1.258 . S
C132 O134 1.247 . S
C132 O136 1.258 . S
C133 O140 1.247 . S
C133 O141 1.258 . S
O134 C132 1.247 . S
O134 Zn135 2.028 1_565 S
Zn135 O134 2.028 1_545 S
Zn135 O139 2.035 . S
Zn135 O141 2.035 . S
Zn135 O142 2.028 1_545 S
O136 C132 1.258 . S
O136 Zn137 2.035 1_565 S
Zn137 O136 2.035 1_545 S
Zn137 O138 2.028 . S
Zn137 O140 2.028 . S
Zn137 O143 2.035 1_545 S
O138 Zn137 2.028 . S
O138 C144 1.247 . S
O139 Zn135 2.035 . S
O139 C144 1.258 . S
O140 C133 1.247 . S
O140 Zn137 2.028 . S
O141 C133 1.258 . S
O141 Zn135 2.035 . S
O142 Zn135 2.028 1_565 S
O142 C145 1.247 . S
O143 Zn137 2.035 1_565 S
O143 C145 1.258 . S
C144 O138 1.247 . S
C144 O139 1.258 . S
C145 O142 1.247 . S
C145 O143 1.258 . S
C146 O148 1.247 . S
C146 O150 1.258 . S
C147 O154 1.247 . S
C147 O155 1.258 1_556 S
O148 C146 1.247 . S
O148 Zn149 2.028 . S
Zn149 O148 2.028 . S
Zn149 O153 2.035 . S
Zn149 O155 2.035 . S
Zn149 O156 2.028 . S
O150 C146 1.258 . S
O150 Zn151 2.035 . S
Zn151 O150 2.035 . S
Zn151 O152 2.028 . S
Zn151 O154 2.028 1_554 S
Zn151 O157 2.035 1_554 S
O152 Zn151 2.028 . S
O152 C158 1.247 . S
O153 Zn149 2.035 . S
O153 C158 1.258 . S
O154 C147 1.247 . S
O154 Zn151 2.028 1_556 S
O155 C147 1.258 1_554 S
O155 Zn149 2.035 . S
O156 Zn149 2.028 . S
O156 C159 1.247 1_554 S
O157 Zn151 2.035 1_556 S
O157 C159 1.258 . S
C158 O152 1.247 . S
C158 O153 1.258 . S
C159 O156 1.247 1_556 S
C159 O157 1.258 . S
C160 O162 1.247 . S
C160 O164 1.258 . S
C161 O168 1.247 . S
C161 O169 1.258 . S
O162 C160 1.247 . S
O162 Zn163 2.028 . S
Zn163 O162 2.028 . S
Zn163 O167 2.035 1_565 S
Zn163 O169 2.035 1_565 S
Zn163 O170 2.028 . S
O164 C160 1.258 . S
O164 Zn165 2.035 1_565 S
Zn165 O164 2.035 1_545 S
Zn165 O166 2.028 . S
Zn165 O168 2.028 . S
Zn165 O171 2.035 1_545 S
O166 Zn165 2.028 . S
O166 C172 1.247 . S
O167 Zn163 2.035 1_545 S
O167 C172 1.258 . S
O168 C161 1.247 . S
O168 Zn165 2.028 . S
O169 C161 1.258 . S
O169 Zn163 2.035 1_545 S
O170 Zn163 2.028 . S
O170 C173 1.247 . S
O171 Zn165 2.035 1_565 S
O171 C173 1.258 . S
C172 O166 1.247 . S
C172 O167 1.258 . S
C173 O170 1.247 . S
C173 O171 1.258 . S
C174 O176 1.247 . S
C174 O178 1.258 . S
C175 O182 1.247 . S
C175 O183 1.258 . S
O176 C174 1.247 . S
O176 Zn177 2.028 . S
Zn177 O176 2.028 . S
Zn177 O181 2.035 . S
Zn177 O183 2.035 1_554 S
Zn177 O184 2.028 1_554 S
O178 C174 1.258 . S
O178 Zn179 2.035 1_554 S
Zn179 O178 2.035 1_556 S
Zn179 O180 2.028 1_556 S
Zn179 O182 2.028 . S
Zn179 O185 2.035 . S
O180 Zn179 2.028 1_554 S
O180 C186 1.247 . S
O181 Zn177 2.035 . S
O181 C186 1.258 . S
O182 C175 1.247 . S
O182 Zn179 2.028 . S
O183 C175 1.258 . S
O183 Zn177 2.035 1_556 S
O184 Zn177 2.028 1_556 S
O184 C187 1.247 . S
O185 Zn179 2.035 . S
O185 C187 1.258 . S
C186 O180 1.247 . S
C186 O181 1.258 . S
C187 O184 1.247 . S
C187 O185 1.258 . S
C116 C8 1.704 . S
C119 C22 1.644 . S
C117 C30 1.988 . S
C118 C47 1.597 . S
C133 C9 1.857 . S
C147 C17 1.663 . S
C34 C173 1.618 . S
C187 C48 1.665 . S
C132 C21 1.900 . S
C35 C146 1.706 . S
C172 C43 1.326 . S
C186 C4 1.669 . S
C56 C131 1.389 . S
C104 C73 1.759 . S
C87 C130 1.814 . S
C100 C105 1.853 . S
C160 C60 1.790 . S
C174 C69 1.668 . S
C144 C86 1.945 . S
C95 C158 1.411 . S
C161 C74 2.029 . S
C175 C82 1.477 . S
C145 C99 1.955 . S
C61 C159 1.581 . S
