# Generated by pormake.
# Topology pth, (4,4)-cn, num edge types: 1
# Building blocks:
#     Node 0, Type 0, BuildingBlock: KUFVIS_clean_sbu_0, # of connection points: 4
#     Node 1, Type 0, BuildingBlock: KUFVIS_clean_sbu_0, # of connection points: 4
#     Node 2, Type 0, BuildingBlock: KUFVIS_clean_sbu_0, # of connection points: 4
#     Node 3, Type 1, BuildingBlock: NAWXER_clean_linker_0, # of connection points: 4
#     Node 4, Type 1, BuildingBlock: NAWXER_clean_linker_0, # of connection points: 4
#     Node 5, Type 1, BuildingBlock: NAWXER_clean_linker_0, # of connection points: 4
#     Edge 6, Type (0, 1), None
#     Edge 7, Type (0, 1), None
#     Edge 8, Type (0, 1), None
#     Edge 9, Type (0, 1), None
#     Edge 10, Type (0, 1), None
#     Edge 11, Type (0, 1), None
#     Edge 12, Type (0, 1), None
#     Edge 13, Type (0, 1), None
#     Edge 14, Type (0, 1), None
#     Edge 15, Type (0, 1), None
#     Edge 16, Type (0, 1), None
#     Edge 17, Type (0, 1), None
# Relax obj value: 0.011
# Max RMSD: 0.077
# Mean RMSD: 0.049
data_MOF--net-pth--node1-KUFVIS_clean_sbu_0--node2-NAWXER_clean_linker_0--edge1-none
_symmetry_space_group_name_H-M    P1
_symmetry_Int_Tables_number       1
_symmetry_cell_setting            triclinic
loop_
_symmetry_equiv_pos_as_xyz
'x, y, z'
_cell_length_a     15.338615
_cell_length_b     15.439258
_cell_length_c     35.395096
_cell_angle_alpha  90.278248
_cell_angle_beta   91.725234
_cell_angle_gamma 120.8542
loop_
_atom_site_label
_atom_site_type_symbol
_atom_site_fract_x
_atom_site_fract_y
_atom_site_fract_z
_atom_type_partial_charge
Mn0 Mn 0.02008 0.06741 0.05023 0.0
Mn1 Mn 0.88954 0.16084 0.00611 0.0
C2 C 0.91327 0.98106 0.99859 0.0
C3 C 0.02995 0.96775 0.0972 0.0
C4 C 0.11225 0.23737 0.99262 0.0
O5 O 0.03207 0.17147 0.08901 0.0
O6 O 0.94339 0.22712 0.05639 0.0
C7 C 0.7211 0.081 0.05935 0.0
N8 N 0.75356 0.09106 0.02335 0.0
C9 C 0.58151 0.99889 0.998 0.0
C10 C 0.54627 0.98925 0.03473 0.0
C11 C 0.61643 0.02991 0.06556 0.0
C12 C 0.68673 0.05059 0.99361 0.0
H13 H 0.77456 0.11126 0.08318 0.0
C14 C 0.99372 0.22737 0.08589 0.0
O15 O 0.11168 0.0394 0.08243 0.0
O16 O 0.94395 0.95674 0.08558 0.0
N17 N 0.82906 0.10314 0.95756 0.0
C18 C 0.8751 0.11031 0.92454 0.0
C19 C 0.81559 0.0726 0.89094 0.0
C20 C 0.7096 0.02755 0.89171 0.0
C21 C 0.6636 0.01743 0.92622 0.0
C22 C 0.72681 0.05821 0.95867 0.0
H23 H 0.95629 0.14387 0.92414 0.0
O24 O 0.98603 0.96585 0.00892 0.0
O25 O 0.90383 0.04565 0.01923 0.0
O26 O 0.12159 0.18006 0.01632 0.0
O27 O 0.02878 0.23597 0.98629 0.0
C28 C 0.55749 0.96768 0.92972 0.0
C29 C 0.51642 0.95781 0.96565 0.0
H30 H 0.46557 0.94972 0.03962 0.0
H31 H 0.58989 0.02182 0.09404 0.0
H32 H 0.85102 0.0784 0.86449 0.0
H33 H 0.66397 1.00051 0.8657 0.0
H34 H 0.50679 0.93528 0.90505 0.0
H35 H 0.4347 0.91781 0.96812 0.0
Mn36 Mn 0.04748 0.08399 0.37937 0.0
Mn37 Mn 0.17338 0.29947 0.43111 0.0
C38 C 0.14299 0.09186 0.43235 0.0
C39 C 0.04752 0.98456 0.32993 0.0
C40 C 0.94702 0.15066 0.43706 0.0
O41 O 0.04601 0.1855 0.34358 0.0
O42 O 0.13415 0.32567 0.38012 0.0
C43 C 0.35649 0.40183 0.38515 0.0
N44 N 0.31372 0.36799 0.41917 0.0
C45 C 0.4779 0.4336 0.4503 0.0
C46 C 0.52375 0.47012 0.41568 0.0
C47 C 0.46271 0.45374 0.38293 0.0
C48 C 0.37165 0.38226 0.45074 0.0
H49 H 0.30999 0.38913 0.35986 0.0
C50 C 0.0874 0.28029 0.34906 0.0
O51 O 0.96246 0.97037 0.34259 0.0
O52 O 0.13079 0.05857 0.3448 0.0
N53 N 0.21854 0.28746 0.48072 0.0
C54 C 0.16241 0.24356 0.51156 0.0
C55 C 0.21211 0.25357 0.54668 0.0
C56 C 0.31879 0.30874 0.54968 0.0
C57 C 0.37486 0.35137 0.51748 0.0
C58 C 0.32127 0.34047 0.4834 0.0
H59 H 0.08041 0.20226 0.50946 0.0
O60 O 0.07033 1.00597 0.41873 0.0
O61 O 0.15825 0.17151 0.41426 0.0
O62 O 0.94007 0.0877 0.41177 0.0
O63 O 0.03021 0.23222 0.44598 0.0
C64 C 0.48189 0.40453 0.51792 0.0
C65 C 0.53338 0.44504 0.48429 0.0
H66 H 0.60566 0.51011 0.41386 0.0
H67 H 0.49746 0.48107 0.35605 0.0
H68 H 0.16835 0.21991 0.57145 0.0
H69 H 0.35733 0.3188 0.57685 0.0
H70 H 0.52529 0.41382 0.54391 0.0
H71 H 0.61564 0.48463 0.48486 0.0
Mn72 Mn 0.0594 0.06838 0.71123 0.0
Mn73 Mn 0.97217 0.2059 0.75189 0.0
C74 C 0.15223 0.18107 0.76075 0.0
C75 C 0.15313 0.04876 0.66481 0.0
C76 C 0.89375 0.98709 0.77044 0.0
O77 O 0.95175 0.05361 0.67192 0.0
O78 O 0.89909 0.14366 0.70345 0.0
C79 C 0.04256 0.36271 0.69355 0.0
N80 N 0.03861 0.33708 0.73051 0.0
C81 C 0.12923 0.51153 0.75082 0.0
C82 C 0.13341 0.5398 0.71303 0.0
C83 C 0.09037 0.46501 0.68425 0.0
C84 C 0.08088 0.40838 0.75831 0.0
H85 H 0.00939 0.30563 0.6713 0.0
C86 C 0.89505 0.09114 0.67475 0.0
O87 O 0.08269 0.97122 0.68197 0.0
O88 O 0.16715 0.13637 0.67417 0.0
N89 N 0.03598 0.27445 0.79869 0.0
C90 C 0.0357 0.23526 0.83305 0.0
C91 C 0.07771 0.30038 0.86481 0.0
C92 C 0.11775 0.40439 0.86094 0.0
C93 C 0.12123 0.44339 0.82511 0.0
C94 C 0.07804 0.37509 0.79452 0.0
H95 H 1.00512 0.15527 0.83589 0.0
O96 O 0.16547 0.1068 0.75254 0.0
O97 O 0.08599 0.18868 0.73938 0.0
O98 O 0.94738 0.97334 0.74685 0.0
O99 O 0.89985 0.07222 0.77566 0.0
C100 C 0.16757 0.5475 0.8185 0.0
C101 C 0.17217 0.58162 0.78132 0.0
H102 H 0.17016 0.61864 0.70577 0.0
H103 H 0.09375 0.48616 0.65499 0.0
H104 H 0.07962 0.2709 0.89217 0.0
H105 H 0.14627 0.4541 0.88551 0.0
H106 H 0.20171 0.60203 0.84172 0.0
H107 H 0.20964 0.66189 0.77646 0.0
C108 C 0.01019 0.30004 0.28816 0.0
C109 C 0.08426 0.34245 0.31787 0.0
C110 C 1.00492 0.36149 0.26019 0.0
C111 C 0.07527 0.46594 0.26101 0.0
C112 C 0.15561 0.44639 0.318 0.0
C113 C 0.15135 0.50706 0.28989 0.0
C114 C 0.06296 0.53645 0.23627 0.0
C115 C 0.08262 0.33128 0.14537 0.0
C116 C 1.0022 0.29342 0.11801 0.0
C117 C 0.09308 0.402 0.17306 0.0
C118 C 0.02196 0.43368 0.17405 0.0
C119 C 0.92936 0.32237 0.12042 0.0
C120 C 0.93892 0.39102 0.1481 0.0
C121 C 0.03934 0.52191 0.19689 0.0
C122 C 0.12106 0.92191 0.14568 0.0
C123 C 0.03259 0.89639 0.12403 0.0
C124 C 0.12299 0.85147 0.16986 0.0
C125 C 0.03725 0.75418 0.17203 0.0
C126 C 0.94623 0.79961 0.12702 0.0
C127 C 0.94907 0.72861 0.15043 0.0
C128 C 0.04137 0.67751 0.1953 0.0
C129 C 0.96612 0.84664 0.28028 0.0
C130 C 0.05164 0.91432 0.30274 0.0
C131 C 0.97 0.77561 0.25683 0.0
C132 C 0.05877 0.77043 0.25614 0.0
C133 C 0.14128 0.91071 0.30097 0.0
C134 C 0.14431 0.83841 0.27824 0.0
C135 C 0.05977 0.68949 0.23447 0.0
H136 H 0.95395 0.22015 0.28734 0.0
H137 H 0.94323 0.32793 0.23911 0.0
H138 H 0.21441 0.48152 0.34014 0.0
H139 H 0.20622 0.58737 0.29139 0.0
H140 H 0.13976 0.31008 0.14423 0.0
H141 H 0.15893 0.43533 0.19233 0.0
H142 H 0.86562 0.29389 0.10025 0.0
H143 H 0.88307 0.41415 0.14824 0.0
H144 H 0.18853 0.99596 0.14385 0.0
H145 H 0.19209 0.87199 0.18617 0.0
H146 H 0.8772 0.77768 0.11042 0.0
H147 H 0.88249 0.6537 0.15167 0.0
H148 H 0.89618 0.84775 0.2812 0.0
H149 H 0.90279 0.72261 0.24016 0.0
H150 H 0.20825 0.96147 0.31821 0.0
H151 H 0.21308 0.83492 0.27816 0.0
N152 N 0.07138 0.6197 0.25343 0.0
N153 N 0.03049 0.59385 0.17804 0.0
C154 C 0.86521 0.18561 0.49085 0.0
C155 C 0.85581 0.12659 0.45875 0.0
C156 C 0.781 0.16164 0.51231 0.0
C157 C 0.6853 0.07797 0.50232 0.0
C158 C 0.75939 0.04339 0.44856 0.0
C159 C 0.67486 0.01999 0.46995 0.0
C160 C 0.59491 0.05521 0.52391 0.0
C161 C 0.7954 0.00943 0.61319 0.0
C162 C 0.82298 0.07947 0.64344 0.0
C163 C 0.72188 0.99782 0.58557 0.0
C164 C 0.67612 0.05654 0.58803 0.0
C165 C 0.77928 0.1403 0.64443 0.0
C166 C 0.70699 0.12873 0.61726 0.0
C167 C 0.58959 0.04018 0.56329 0.0
C168 C 0.21539 0.94856 0.63057 0.0
C169 C 0.21808 0.03991 0.63684 0.0
C170 C 0.28291 0.94423 0.60588 0.0
C171 C 0.35183 0.03036 0.58641 0.0
C172 C 0.28792 0.1258 0.61745 0.0
C173 C 0.35371 0.12097 0.5923 0.0
C174 C 0.42858 0.029 0.56271 0.0
C175 C 0.32204 0.14843 0.4521 0.0
C176 C 0.21804 0.0912 0.45904 0.0
C177 C 0.39204 0.13525 0.47367 0.0
C178 C 0.35899 0.06179 0.50167 0.0
C179 C 0.18476 0.01766 0.48688 0.0
C180 C 0.25421 1.00202 0.50758 0.0
C181 C 0.43455 0.04698 0.52351 0.0
H182 H 0.93789 0.25041 0.49964 0.0
H183 H 0.79054 0.20956 0.53643 0.0
H184 H 0.74903 0.99642 0.42403 0.0
H185 H 0.6013 0.95605 0.46137 0.0
H186 H 0.8283 0.96209 0.61147 0.0
H187 H 0.69853 0.94126 0.5632 0.0
H188 H 0.79958 0.19664 0.66666 0.0
H189 H 0.67341 0.17549 0.61952 0.0
H190 H 0.16315 0.88134 0.64541 0.0
H191 H 0.28173 0.87397 0.60207 0.0
H192 H 0.29302 0.19744 0.6224 0.0
H193 H 0.40835 0.18867 0.57826 0.0
H194 H 0.34889 0.20038 0.42897 0.0
H195 H 0.47201 0.18141 0.46794 0.0
H196 H 0.10437 0.96932 0.49154 0.0
H197 H 0.22513 0.94092 0.52729 0.0
N198 N 0.51703 0.05797 0.50555 0.0
N199 N 0.50631 0.02691 0.5809 0.0
C200 C 0.25466 0.23544 0.82172 0.0
C201 C 0.22313 0.26063 0.788 0.0
C202 C 0.32738 0.31117 0.84633 0.0
C203 C 0.36897 0.41356 0.83787 0.0
C204 C 0.26781 0.36241 0.77873 0.0
C205 C 0.33855 0.43801 0.80363 0.0
C206 C 0.45235 0.4961 0.86152 0.0
C207 C 0.20926 0.39478 0.95511 0.0
C208 C 0.20184 0.30754 0.97054 0.0
C209 C 0.29097 0.45846 0.93282 0.0
C210 C 0.36517 0.43491 0.92444 0.0
C211 C 0.28008 0.28752 0.96403 0.0
C212 C 0.36143 0.35116 0.94144 0.0
C213 C 0.4517 0.50483 0.9014 0.0
C214 C 0.73175 0.86384 0.97884 0.0
C215 C 0.83496 0.91057 0.97084 0.0
C216 C 0.65807 0.78709 0.95498 0.0
C217 C 0.68633 0.75303 0.9233 0.0
C218 C 0.8636 0.87701 0.93926 0.0
C219 C 0.79024 0.79843 0.91595 0.0
C220 C 0.60725 0.66444 0.90062 0.0
C221 C 0.82189 0.81025 0.79475 0.0
C222 C 0.81957 0.90019 0.79282 0.0
C223 C 0.75229 0.72991 0.8165 0.0
C224 C 0.68059 0.73889 0.83724 0.0
C225 C 0.74432 0.90637 0.81237 0.0
C226 C 0.67611 0.82689 0.83449 0.0
C227 C 0.60775 0.6557 0.86085 0.0
H228 H 0.22413 0.15708 0.82875 0.0
H229 H 0.35396 0.28901 0.87087 0.0
H230 H 0.24902 0.38354 0.75193 0.0
H231 H 0.37088 0.51603 0.79572 0.0
H232 H 0.15188 0.414 0.96028 0.0
H233 H 0.29632 0.52642 0.92195 0.0
H234 H 0.27767 0.2218 0.97588 0.0
H235 H 0.42082 0.33438 0.93689 0.0
H236 H 0.70824 0.88409 1.00428 0.0
H237 H 0.57892 0.75251 0.96192 0.0
H238 H 0.94318 0.90928 0.93339 0.0
H239 H 0.8157 0.77066 0.89327 0.0
H240 H 0.87789 0.80216 0.77973 0.0
H241 H 0.75577 0.66166 0.8178 0.0
H242 H 0.73768 0.97269 0.81038 0.0
H243 H 0.61876 0.83326 0.84923 0.0
N244 N 0.53054 0.57222 0.84303 0.0
N245 N 0.52888 0.58873 0.91916 0.0
loop_
_geom_bond_atom_site_label_1
_geom_bond_atom_site_label_2
_geom_bond_distance
_geom_bond_site_symmetry_2
_ccdc_geom_bond_type
Mn0 O5 2.095 . S
Mn0 O15 2.162 1_545 S
Mn0 O16 2.297 1_445 S
Mn0 O24 2.385 1_444 S
Mn0 O25 2.209 1_455 S
Mn0 O26 2.094 . S
Mn1 O6 2.121 1_556 S
Mn1 N8 2.257 . S
Mn1 N17 2.282 . S
Mn1 O25 2.215 1_556 S
Mn1 O27 2.117 1_655 S
C2 O24 1.234 . S
C2 O25 1.283 1_566 S
C3 O15 1.281 . S
C3 O16 1.236 1_455 S
C4 O26 1.240 1_556 S
C4 O27 1.264 . S
O5 Mn0 2.095 . S
O5 C14 1.250 . S
O6 Mn1 2.121 1_554 S
O6 C14 1.258 1_655 S
C7 N8 1.326 1_554 S
C7 C11 1.460 . S
C7 H13 0.929 . S
N8 Mn1 2.257 . S
N8 C7 1.326 1_556 S
N8 C12 1.362 . S
C9 C10 1.258 . S
C9 C12 1.431 . S
C9 C29 1.449 . S
C10 C9 1.258 . S
C10 C11 1.477 1_556 S
C10 H30 0.931 . S
C11 C7 1.460 . S
C11 C10 1.477 1_554 S
C11 H31 0.930 . S
C12 N8 1.362 . S
C12 C9 1.431 . S
C12 C22 1.476 . S
H13 C7 0.929 . S
C14 O5 1.250 . S
C14 O6 1.258 1_455 S
O15 Mn0 2.162 1_565 S
O15 C3 1.281 . S
O16 Mn0 2.297 1_665 S
O16 C3 1.236 1_655 S
N17 Mn1 2.282 . S
N17 C18 1.328 . S
N17 C22 1.318 . S
C18 N17 1.328 . S
C18 C19 1.457 . S
C18 H23 0.929 1_655 S
C19 C18 1.457 . S
C19 C20 1.291 . S
C19 H32 0.931 . S
C20 C19 1.291 . S
C20 C21 1.373 . S
C20 H33 0.929 . S
C21 C20 1.373 . S
C21 C22 1.396 . S
C21 C28 1.403 . S
C22 C12 1.476 . S
C22 N17 1.318 . S
C22 C21 1.396 . S
H23 C18 0.929 1_455 S
O24 Mn0 2.385 1_666 S
O24 C2 1.234 . S
O25 Mn0 2.209 1_655 S
O25 Mn1 2.215 1_554 S
O25 C2 1.283 1_544 S
O26 Mn0 2.094 . S
O26 C4 1.240 1_554 S
O27 Mn1 2.117 1_455 S
O27 C4 1.264 . S
C28 C21 1.403 . S
C28 C29 1.399 . S
C28 H34 0.929 1_545 S
C29 C9 1.449 . S
C29 C28 1.399 . S
C29 H35 0.930 . S
H30 C10 0.931 . S
H31 C11 0.930 . S
H32 C19 0.931 . S
H33 C20 0.929 . S
H34 C28 0.929 1_565 S
H35 C29 0.930 . S
Mn36 O41 2.095 . S
Mn36 O51 2.162 1_545 S
Mn36 O52 2.297 1_645 S
Mn36 O60 2.385 1_645 S
Mn36 O61 2.209 1_655 S
Mn36 O62 2.094 . S
Mn37 O42 2.121 . S
Mn37 N44 2.257 . S
Mn37 N53 2.282 . S
Mn37 O61 2.215 . S
Mn37 O63 2.117 1_455 S
C38 O60 1.234 1_545 S
C38 O61 1.283 . S
C39 O51 1.280 . S
C39 O52 1.236 1_655 S
C40 O62 1.240 . S
C40 O63 1.264 . S
O41 Mn36 2.095 . S
O41 C50 1.250 1_655 S
O42 Mn37 2.121 . S
O42 C50 1.258 . S
C43 N44 1.326 . S
C43 C47 1.460 . S
C43 H49 0.929 . S
N44 Mn37 2.257 . S
N44 C43 1.326 . S
N44 C48 1.362 . S
C45 C46 1.258 . S
C45 C48 1.431 . S
C45 C65 1.449 . S
C46 C45 1.258 . S
C46 C47 1.477 . S
C46 H66 0.931 . S
C47 C43 1.460 . S
C47 C46 1.477 . S
C47 H67 0.930 . S
C48 N44 1.362 . S
C48 C45 1.431 . S
C48 C58 1.476 . S
H49 C43 0.929 . S
C50 O41 1.250 1_455 S
C50 O42 1.258 . S
O51 Mn36 2.162 1_565 S
O51 C39 1.280 . S
O52 Mn36 2.297 1_465 S
O52 C39 1.236 1_455 S
N53 Mn37 2.282 . S
N53 C54 1.328 . S
N53 C58 1.318 . S
C54 N53 1.328 . S
C54 C55 1.457 . S
C54 H59 0.929 . S
C55 C54 1.457 . S
C55 C56 1.291 . S
C55 H68 0.931 . S
C56 C55 1.291 . S
C56 C57 1.373 . S
C56 H69 0.929 . S
C57 C56 1.373 . S
C57 C58 1.396 . S
C57 C64 1.403 . S
C58 C48 1.476 . S
C58 N53 1.318 . S
C58 C57 1.396 . S
H59 C54 0.929 . S
O60 Mn36 2.385 1_465 S
O60 C38 1.234 1_565 S
O61 Mn36 2.209 1_455 S
O61 Mn37 2.215 . S
O61 C38 1.283 . S
O62 Mn36 2.094 . S
O62 C40 1.240 . S
O63 Mn37 2.117 1_655 S
O63 C40 1.264 . S
C64 C57 1.403 . S
C64 C65 1.399 . S
C64 H70 0.929 . S
C65 C45 1.449 . S
C65 C64 1.399 . S
C65 H71 0.930 . S
H66 C46 0.931 . S
H67 C47 0.930 . S
H68 C55 0.931 . S
H69 C56 0.929 . S
H70 C64 0.929 . S
H71 C65 0.930 . S
Mn72 O77 2.095 1_455 S
Mn72 O87 2.162 1_545 S
Mn72 O88 2.297 . S
Mn72 O96 2.385 . S
Mn72 O97 2.209 . S
Mn72 O98 2.094 1_445 S
Mn73 O78 2.121 . S
Mn73 N80 2.257 . S
Mn73 N89 2.282 . S
Mn73 O97 2.215 1_655 S
Mn73 O99 2.117 . S
C74 O96 1.234 . S
C74 O97 1.283 . S
C75 O87 1.281 1_545 S
C75 O88 1.236 . S
C76 O98 1.240 . S
C76 O99 1.264 1_565 S
O77 Mn72 2.095 1_655 S
O77 C86 1.250 . S
O78 Mn73 2.121 . S
O78 C86 1.258 . S
C79 N80 1.326 . S
C79 C83 1.460 . S
C79 H85 0.929 . S
N80 Mn73 2.257 . S
N80 C79 1.326 . S
N80 C84 1.362 1_655 S
C81 C82 1.258 . S
C81 C84 1.431 . S
C81 C101 1.449 . S
C82 C81 1.258 . S
C82 C83 1.477 1_455 S
C82 H102 0.931 . S
C83 C79 1.460 . S
C83 C82 1.477 1_655 S
C83 H103 0.930 . S
C84 N80 1.362 1_455 S
C84 C81 1.431 . S
C84 C94 1.476 . S
H85 C79 0.929 . S
C86 O77 1.250 . S
C86 O78 1.258 . S
O87 Mn72 2.162 1_565 S
O87 C75 1.281 1_565 S
O88 Mn72 2.297 . S
O88 C75 1.236 . S
N89 Mn73 2.282 . S
N89 C90 1.328 1_655 S
N89 C94 1.318 1_655 S
C90 N89 1.328 1_455 S
C90 C91 1.457 . S
C90 H95 0.929 1_455 S
C91 C90 1.457 . S
C91 C92 1.291 . S
C91 H104 0.931 . S
C92 C91 1.291 . S
C92 C93 1.373 . S
C92 H105 0.929 . S
C93 C92 1.373 . S
C93 C94 1.396 . S
C93 C100 1.403 . S
C94 C84 1.476 . S
C94 N89 1.318 1_455 S
C94 C93 1.396 . S
H95 C90 0.929 1_655 S
O96 Mn72 2.385 . S
O96 C74 1.234 . S
O97 Mn72 2.209 . S
O97 Mn73 2.215 1_455 S
O97 C74 1.283 . S
O98 Mn72 2.094 1_665 S
O98 C76 1.240 . S
O99 Mn73 2.117 . S
O99 C76 1.264 1_545 S
C100 C93 1.403 . S
C100 C101 1.399 . S
C100 H106 0.929 . S
C101 C81 1.449 . S
C101 C100 1.399 . S
C101 H107 0.930 . S
H102 C82 0.931 . S
H103 C83 0.930 . S
H104 C91 0.931 . S
H105 C92 0.929 . S
H106 C100 0.929 . S
H107 C101 0.930 . S
C108 C109 1.384 1_655 S
C108 C110 1.384 . S
C108 H136 0.931 . S
C109 C108 1.384 1_455 S
C109 C112 1.382 . S
C110 C108 1.384 . S
C110 C111 1.381 1_655 S
C110 H137 0.930 . S
C111 C110 1.381 1_455 S
C111 C113 1.381 . S
C111 C114 1.487 . S
C112 C109 1.382 . S
C112 C113 1.387 . S
C112 H138 0.930 . S
C113 C111 1.381 . S
C113 C112 1.387 . S
C113 H139 0.931 . S
C114 C111 1.487 . S
C114 C121 1.399 . S
C114 N152 1.343 . S
C115 C116 1.384 . S
C115 C117 1.384 . S
C115 H140 0.931 . S
C116 C115 1.384 . S
C116 C119 1.382 1_455 S
C117 C115 1.384 . S
C117 C118 1.381 . S
C117 H141 0.930 . S
C118 C117 1.381 . S
C118 C120 1.381 1_455 S
C118 C121 1.487 . S
C119 C116 1.382 1_655 S
C119 C120 1.387 . S
C119 H142 0.930 . S
C120 C118 1.381 1_655 S
C120 C119 1.387 . S
C120 H143 0.931 . S
C121 C114 1.399 . S
C121 C118 1.487 . S
C121 N153 1.343 . S
C122 C123 1.384 . S
C122 C124 1.384 . S
C122 H144 0.931 . S
C123 C122 1.384 . S
C123 C126 1.382 1_455 S
C124 C122 1.384 . S
C124 C125 1.381 . S
C124 H145 0.930 . S
C125 C124 1.381 . S
C125 C127 1.381 1_455 S
C125 C128 1.487 . S
C126 C123 1.382 1_655 S
C126 C127 1.387 . S
C126 H146 0.930 . S
C127 C125 1.381 1_655 S
C127 C126 1.387 . S
C127 H147 0.931 . S
C128 C125 1.487 . S
C128 C135 1.399 . S
C128 N153 1.343 . S
C129 C130 1.384 1_655 S
C129 C131 1.384 . S
C129 H148 0.931 . S
C130 C129 1.384 1_455 S
C130 C133 1.382 . S
C131 C129 1.384 . S
C131 C132 1.381 1_655 S
C131 H149 0.930 . S
C132 C131 1.381 1_455 S
C132 C134 1.381 . S
C132 C135 1.487 . S
C133 C130 1.382 . S
C133 C134 1.387 . S
C133 H150 0.930 . S
C134 C132 1.381 . S
C134 C133 1.387 . S
C134 H151 0.931 . S
C135 C128 1.399 . S
C135 C132 1.487 . S
C135 N152 1.343 . S
H136 C108 0.931 . S
H137 C110 0.930 . S
H138 C112 0.930 . S
H139 C113 0.931 . S
H140 C115 0.931 . S
H141 C117 0.930 . S
H142 C119 0.930 . S
H143 C120 0.931 . S
H144 C122 0.931 . S
H145 C124 0.930 . S
H146 C126 0.930 . S
H147 C127 0.931 . S
H148 C129 0.931 . S
H149 C131 0.930 . S
H150 C133 0.930 . S
H151 C134 0.931 . S
N152 C114 1.343 . S
N152 C135 1.343 . S
N153 C121 1.343 . S
N153 C128 1.343 . S
C154 C155 1.384 . S
C154 C156 1.384 . S
C154 H182 0.931 . S
C155 C154 1.384 . S
C155 C158 1.382 . S
C156 C154 1.384 . S
C156 C157 1.381 . S
C156 H183 0.930 . S
C157 C156 1.381 . S
C157 C159 1.381 . S
C157 C160 1.487 . S
C158 C155 1.382 . S
C158 C159 1.387 . S
C158 H184 0.930 1_545 S
C159 C157 1.381 . S
C159 C158 1.387 . S
C159 H185 0.931 1_545 S
C160 C157 1.487 . S
C160 C167 1.399 . S
C160 N198 1.343 . S
C161 C162 1.384 . S
C161 C163 1.384 . S
C161 H186 0.931 1_545 S
C162 C161 1.384 . S
C162 C165 1.382 . S
C163 C161 1.384 . S
C163 C164 1.381 . S
C163 H187 0.930 1_545 S
C164 C163 1.381 . S
C164 C166 1.381 . S
C164 C167 1.487 . S
C165 C162 1.382 . S
C165 C166 1.387 . S
C165 H188 0.930 . S
C166 C164 1.381 . S
C166 C165 1.387 . S
C166 H189 0.931 . S
C167 C160 1.399 . S
C167 C164 1.487 . S
C167 N199 1.343 . S
C168 C169 1.384 . S
C168 C170 1.384 . S
C168 H190 0.931 1_545 S
C169 C168 1.384 . S
C169 C172 1.382 . S
C170 C168 1.384 . S
C170 C171 1.381 . S
C170 H191 0.930 1_545 S
C171 C170 1.381 . S
C171 C173 1.381 . S
C171 C174 1.487 . S
C172 C169 1.382 . S
C172 C173 1.387 . S
C172 H192 0.930 . S
C173 C171 1.381 . S
C173 C172 1.387 . S
C173 H193 0.931 . S
C174 C171 1.487 . S
C174 C181 1.399 . S
C174 N199 1.343 . S
C175 C176 1.384 . S
C175 C177 1.384 . S
C175 H194 0.931 . S
C176 C175 1.384 . S
C176 C179 1.382 . S
C177 C175 1.384 . S
C177 C178 1.381 . S
C177 H195 0.930 . S
C178 C177 1.381 . S
C178 C180 1.381 . S
C178 C181 1.487 . S
C179 C176 1.382 . S
C179 C180 1.387 . S
C179 H196 0.930 1_545 S
C180 C178 1.381 . S
C180 C179 1.387 . S
C180 H197 0.931 1_545 S
C181 C174 1.399 . S
C181 C178 1.487 . S
C181 N198 1.343 . S
H182 C154 0.931 . S
H183 C156 0.930 . S
H184 C158 0.930 1_565 S
H185 C159 0.931 1_565 S
H186 C161 0.931 1_565 S
H187 C163 0.930 1_565 S
H188 C165 0.930 . S
H189 C166 0.931 . S
H190 C168 0.931 1_565 S
H191 C170 0.930 1_565 S
H192 C172 0.930 . S
H193 C173 0.931 . S
H194 C175 0.931 . S
H195 C177 0.930 . S
H196 C179 0.930 1_565 S
H197 C180 0.931 1_565 S
N198 C160 1.343 . S
N198 C181 1.343 . S
N199 C167 1.343 . S
N199 C174 1.343 . S
C200 C201 1.384 . S
C200 C202 1.384 . S
C200 H228 0.931 . S
C201 C200 1.384 . S
C201 C204 1.382 . S
C202 C200 1.384 . S
C202 C203 1.381 . S
C202 H229 0.930 . S
C203 C202 1.381 . S
C203 C205 1.381 . S
C203 C206 1.487 . S
C204 C201 1.382 . S
C204 C205 1.387 . S
C204 H230 0.930 . S
C205 C203 1.381 . S
C205 C204 1.387 . S
C205 H231 0.931 . S
C206 C203 1.487 . S
C206 C213 1.399 . S
C206 N244 1.343 . S
C207 C208 1.384 . S
C207 C209 1.384 . S
C207 H232 0.931 . S
C208 C207 1.384 . S
C208 C211 1.382 . S
C209 C207 1.384 . S
C209 C210 1.381 . S
C209 H233 0.930 . S
C210 C209 1.381 . S
C210 C212 1.381 . S
C210 C213 1.487 . S
C211 C208 1.382 . S
C211 C212 1.387 . S
C211 H234 0.930 . S
C212 C210 1.381 . S
C212 C211 1.387 . S
C212 H235 0.931 . S
C213 C206 1.399 . S
C213 C210 1.487 . S
C213 N245 1.343 . S
C214 C215 1.384 . S
C214 C216 1.384 . S
C214 H236 0.931 . S
C215 C214 1.384 . S
C215 C218 1.382 . S
C216 C214 1.384 . S
C216 C217 1.381 . S
C216 H237 0.930 . S
C217 C216 1.381 . S
C217 C219 1.381 . S
C217 C220 1.487 . S
C218 C215 1.382 . S
C218 C219 1.387 . S
C218 H238 0.930 . S
C219 C217 1.381 . S
C219 C218 1.387 . S
C219 H239 0.931 . S
C220 C217 1.487 . S
C220 C227 1.399 . S
C220 N245 1.343 . S
C221 C222 1.384 . S
C221 C223 1.384 . S
C221 H240 0.931 . S
C222 C221 1.384 . S
C222 C225 1.382 . S
C223 C221 1.384 . S
C223 C224 1.381 . S
C223 H241 0.930 . S
C224 C223 1.381 . S
C224 C226 1.381 . S
C224 C227 1.487 . S
C225 C222 1.382 . S
C225 C226 1.387 . S
C225 H242 0.930 . S
C226 C224 1.381 . S
C226 C225 1.387 . S
C226 H243 0.931 . S
C227 C220 1.399 . S
C227 C224 1.487 . S
C227 N244 1.343 . S
H228 C200 0.931 . S
H229 C202 0.930 . S
H230 C204 0.930 . S
H231 C205 0.931 . S
H232 C207 0.931 . S
H233 C209 0.930 . S
H234 C211 0.930 . S
H235 C212 0.931 . S
H236 C214 0.931 . S
H237 C216 0.930 . S
H238 C218 0.930 . S
H239 C219 0.931 . S
H240 C221 0.931 . S
H241 C223 0.930 . S
H242 C225 0.930 . S
H243 C226 0.931 . S
N244 C206 1.343 . S
N244 C227 1.343 . S
N245 C213 1.343 . S
N245 C220 1.343 . S
C116 C14 1.513 . S
C40 C155 1.509 . S
C76 C222 1.483 . S
C3 C123 1.480 . S
C176 C38 1.496 . S
C74 C201 1.463 . S
C162 C86 1.448 . S
C2 C215 1.456 . S
C130 C39 1.483 1_455 S
C169 C75 1.547 . S
C208 C4 1.474 . S
C50 C109 1.514 . S
