# Generated by pormake.
# Topology anh, (6,3)-cn, num edge types: 1
# Building blocks:
#     Node 0, Type 0, BuildingBlock: VOLQOD_clean_sbu_1, # of connection points: 6
#     Node 1, Type 0, BuildingBlock: VOLQOD_clean_sbu_1, # of connection points: 6
#     Node 2, Type 0, BuildingBlock: VOLQOD_clean_sbu_1, # of connection points: 6
#     Node 3, Type 1, BuildingBlock: QEWDON_clean_linker_0, # of connection points: 3
#     Node 4, Type 1, BuildingBlock: QEWDON_clean_linker_0, # of connection points: 3
#     Node 5, Type 1, BuildingBlock: QEWDON_clean_linker_0, # of connection points: 3
#     Node 6, Type 1, BuildingBlock: QEWDON_clean_linker_0, # of connection points: 3
#     Node 7, Type 1, BuildingBlock: QEWDON_clean_linker_0, # of connection points: 3
#     Node 8, Type 1, BuildingBlock: QEWDON_clean_linker_0, # of connection points: 3
#     Edge 9, Type (0, 1), None
#     Edge 10, Type (0, 1), None
#     Edge 11, Type (0, 1), None
#     Edge 12, Type (0, 1), None
#     Edge 13, Type (0, 1), None
#     Edge 14, Type (0, 1), None
#     Edge 15, Type (0, 1), None
#     Edge 16, Type (0, 1), None
#     Edge 17, Type (0, 1), None
#     Edge 18, Type (0, 1), None
#     Edge 19, Type (0, 1), None
#     Edge 20, Type (0, 1), None
#     Edge 21, Type (0, 1), None
#     Edge 22, Type (0, 1), None
#     Edge 23, Type (0, 1), None
#     Edge 24, Type (0, 1), None
#     Edge 25, Type (0, 1), None
#     Edge 26, Type (0, 1), None
# Relax obj value: 0.180
# Max RMSD: 0.227
# Mean RMSD: 0.160
data_MOF--net-anh--node1-VOLQOD_clean_sbu_1--node2-QEWDON_clean_linker_0--edge1-none
_symmetry_space_group_name_H-M    P1
_symmetry_Int_Tables_number       1
_symmetry_cell_setting            triclinic
loop_
_symmetry_equiv_pos_as_xyz
'x, y, z'
_cell_length_a     15.383845
_cell_length_b     15.14006
_cell_length_c     24.935464
_cell_angle_alpha  95.412061
_cell_angle_beta   96.57763
_cell_angle_gamma 119.67892
loop_
_atom_site_label
_atom_site_type_symbol
_atom_site_fract_x
_atom_site_fract_y
_atom_site_fract_z
_atom_type_partial_charge
O0 O 0.01956 0.6759 0.3035 0.0
Zn1 Zn 0.01653 0.68418 0.22365 0.0
O2 O 0.0319 0.57456 0.1878 0.0
Zn3 Zn 0.92403 0.49254 0.12841 0.0
Zn4 Zn 0.01955 0.4764 0.23596 0.0
Zn5 Zn 0.14909 0.62545 0.15302 0.0
O6 O 0.95347 0.54227 0.05746 0.0
O7 O 0.12151 0.63199 0.07075 0.0
O8 O 0.8752 0.6624 0.19097 0.0
O9 O 0.80782 0.5049 0.14176 0.0
O10 O 0.8794 0.34398 0.12379 0.0
O11 O 0.87816 0.34589 0.21197 0.0
O12 O 0.13522 0.44814 0.22989 0.0
O13 O 0.14836 0.82367 0.22644 0.0
O14 O 0.21664 0.54439 0.16947 0.0
O15 O 0.24349 0.76949 0.18996 0.0
C16 C 0.02811 0.61705 0.3342 0.0
C17 C 0.03515 0.59706 0.04007 0.0
C18 C 0.83754 0.30054 0.16242 0.0
C19 C 0.79858 0.57835 0.16333 0.0
C20 C 0.20632 0.4804 0.20169 0.0
C21 C 0.234 0.84023 0.21535 0.0
O22 O 0.03215 0.53832 0.31478 0.0
O23 O 0.44324 0.09932 0.40101 0.0
Zn24 Zn 0.43476 0.10023 0.48111 0.0
O25 O 0.54235 0.08368 0.51772 0.0
Zn26 Zn 0.62199 0.1906 0.57854 0.0
Zn27 Zn 0.63966 0.09698 0.47093 0.0
Zn28 Zn 0.49029 0.96191 0.55026 0.0
O29 O 0.57479 0.15499 0.64886 0.0
O30 O 0.48194 0.98462 0.63093 0.0
O31 O 0.45171 0.23897 0.51604 0.0
O32 O 0.6056 0.30807 0.56832 0.0
O33 O 0.7687 0.23869 0.58337 0.0
O34 O 0.76525 0.24179 0.49513 0.0
O35 O 0.67553 0.98511 0.4816 0.0
O36 O 0.29788 0.9683 0.47847 0.0
O37 O 0.57443 0.89866 0.53851 0.0
O38 O 0.34901 0.86637 0.51207 0.0
C39 C 0.4997 0.0879 0.37082 0.0
C40 C 0.51861 0.0696 0.66365 0.0
C41 C 0.81004 0.28259 0.54478 0.0
C42 C 0.53147 0.31564 0.54662 0.0
C43 C 0.64317 0.91319 0.51043 0.0
C44 C 0.28 0.8799 0.48823 0.0
O45 O 0.57642 0.08184 0.39111 0.0
O46 O 0.48059 0.47463 0.72395 0.0
Zn47 Zn 0.43762 0.43986 0.79557 0.0
O48 O 0.54765 0.53299 0.85546 0.0
Zn49 Zn 0.50245 0.59359 0.90953 0.0
Zn50 Zn 0.65377 0.64931 0.82665 0.0
Zn51 Zn 0.59732 0.46099 0.89549 0.0
O52 O 0.50219 0.55369 0.98391 0.0
O53 O 0.58304 0.46801 0.97454 0.0
O54 O 0.31772 0.4631 0.79831 0.0
O55 O 0.3677 0.57106 0.87774 0.0
O56 O 0.60136 0.74412 0.9228 0.0
O57 O 0.62197 0.76656 0.83897 0.0
O58 O 0.7955 0.67666 0.86387 0.0
O59 O 0.41472 0.29368 0.79103 0.0
O60 O 0.74459 0.53363 0.90053 0.0
O61 O 0.53877 0.31668 0.85687 0.0
C62 C 0.55967 0.54196 0.70865 0.0
C63 C 0.54432 0.5073 1.00397 0.0
C64 C 0.59979 0.79097 0.88358 0.0
C65 C 0.30391 0.51998 0.83353 0.0
C66 C 0.81462 0.6172 0.89 0.0
C67 C 0.4667 0.26038 0.81644 0.0
O68 O 0.63605 0.61327 0.74335 0.0
H69 H 0.60584 0.16841 0.29013 0.0
C70 C 0.52924 0.10544 0.27377 0.0
C71 C 0.4631 0.0613 0.31078 0.0
C72 C 0.49562 0.06798 0.21658 0.0
H73 H 0.31121 0.94632 0.31896 0.0
C74 C 0.36148 0.98251 0.29059 0.0
C75 C 0.32847 0.94091 0.23472 0.0
C76 C 0.39619 0.98195 0.19872 0.0
C77 C 0.56218 0.11341 0.17485 0.0
H78 H 0.37084 0.94228 0.15665 0.0
C79 C 0.6699 0.17627 0.18894 0.0
C80 C 0.72903 0.2162 0.14825 0.0
C81 C 0.51657 0.09444 0.11917 0.0
H82 H 0.43503 0.0548 0.10576 0.0
C83 C 0.575 0.12762 0.07882 0.0
H84 H 0.7083 0.1963 0.23111 0.0
C85 C 0.6802 0.18685 0.09297 0.0
H86 H 0.72271 0.21467 0.0605 0.0
H87 H 0.53818 0.11001 0.03635 0.0
H88 H 0.64578 0.69121 0.64543 0.0
C89 C 0.61424 0.6136 0.62315 0.0
C90 C 0.56501 0.52887 0.64975 0.0
C91 C 0.62377 0.59821 0.56791 0.0
H92 H 0.49107 0.36326 0.64156 0.0
C93 C 0.5243 0.42875 0.62048 0.0
C94 C 0.53665 0.41259 0.56631 0.0
C95 C 0.58608 0.49739 0.54008 0.0
C96 C 0.67341 0.68732 0.53931 0.0
H97 H 0.59855 0.48512 0.49878 0.0
C98 C 0.64139 0.75937 0.54015 0.0
C99 C 0.6829 0.84177 0.51087 0.0
C100 C 0.74946 0.6989 0.50948 0.0
H101 H 0.77583 0.64446 0.50834 0.0
C102 C 0.79253 0.7815 0.48112 0.0
H103 H 0.58151 0.74893 0.56253 0.0
C104 C 0.75934 0.85248 0.48155 0.0
H105 H 0.79299 0.91506 0.45874 0.0
H106 H 0.85133 0.79007 0.45838 0.0
H107 H 0.15748 0.62437 0.96373 0.0
C108 C 0.09176 0.62949 0.94843 0.0
C109 C 0.02593 0.6238 0.98451 0.0
C110 C 0.06843 0.63468 0.89234 0.0
H111 H 0.8892 0.62634 0.99267 0.0
C112 C 0.94168 0.63274 0.96554 0.0
C113 C 0.91892 0.64166 0.911 0.0
C114 C 0.98168 0.64189 0.8747 0.0
C115 C 0.12554 0.62004 0.85058 0.0
H116 H 0.95626 0.63751 0.83173 0.0
C117 C 0.17844 0.56692 0.85932 0.0
C118 C 0.22643 0.54791 0.81873 0.0
C119 C 0.12401 0.65511 0.80011 0.0
H120 H 0.08953 0.70087 0.79196 0.0
C121 C 0.16786 0.63232 0.75898 0.0
H122 H 0.18379 0.54024 0.8976 0.0
C123 C 0.21807 0.57821 0.76793 0.0
H124 H 0.25645 0.56655 0.73657 0.0
H125 H 0.16551 0.65946 0.7205 0.0
H126 H 0.94217 0.51358 0.41546 0.0
C127 C 0.00802 0.58934 0.43126 0.0
C128 C 0.0556 0.65412 0.39386 0.0
C129 C 0.04543 0.6237 0.48836 0.0
H130 H 0.17648 0.80392 0.38473 0.0
C131 C 0.138 0.75472 0.41342 0.0
C132 C 0.17894 0.78751 0.46931 0.0
C133 C 0.1343 0.72139 0.50605 0.0
C134 C 0.99581 0.5597 0.5303 0.0
H135 H 0.17201 0.74621 0.54862 0.0
C136 C 0.93496 0.45066 0.51795 0.0
C137 C 0.89062 0.39326 0.55873 0.0
C138 C 0.00911 0.60907 0.58414 0.0
H139 H 0.04889 0.69223 0.59529 0.0
C140 C 0.97019 0.55233 0.62498 0.0
H141 H 0.9207 0.41003 0.47693 0.0
C142 C 0.91247 0.4454 0.61272 0.0
H143 H 0.88031 0.40417 0.64523 0.0
H144 H 0.98243 0.59169 0.66612 0.0
H145 H 0.49442 0.93643 0.73539 0.0
C146 C 0.48437 0.99921 0.75136 0.0
C147 C 0.49076 0.07182 0.71835 0.0
C148 C 0.46834 0.00994 0.80556 0.0
H149 H 0.48202 0.20916 0.71381 0.0
C150 C 0.4757 0.15207 0.73881 0.0
C151 C 0.45939 0.16357 0.79247 0.0
C152 C 0.45775 0.09366 0.82583 0.0
C153 C 0.46552 0.93707 0.84243 0.0
H154 H 0.4512 0.1066 0.86832 0.0
C155 C 0.53413 0.90021 0.84412 0.0
C156 C 0.53547 0.83888 0.88309 0.0
C157 C 0.39568 0.90773 0.87841 0.0
H158 H 0.33989 0.93171 0.87696 0.0
C159 C 0.39716 0.84789 0.91705 0.0
H160 H 0.5875 0.92076 0.81623 0.0
C161 C 0.46722 0.81508 0.92005 0.0
H162 H 0.46508 0.76764 0.95036 0.0
H163 H 0.34344 0.82648 0.94474 0.0
H164 H 0.41719 0.46275 0.07784 0.0
C165 C 0.49588 0.49378 0.09693 0.0
C166 C 0.56958 0.51949 0.06387 0.0
C167 C 0.52254 0.50153 0.15396 0.0
H168 H 0.72779 0.57642 0.06219 0.0
C169 C 0.67093 0.55812 0.08804 0.0
C170 C 0.69966 0.56834 0.14461 0.0
C171 C 0.62517 0.53911 0.17765 0.0
C172 C 0.44137 0.46372 0.18747 0.0
H173 H 0.64618 0.54138 0.22097 0.0
C174 C 0.36421 0.48794 0.1795 0.0
C175 C 0.28365 0.44899 0.20882 0.0
C176 C 0.43767 0.3998 0.22558 0.0
H177 H 0.49518 0.37844 0.23199 0.0
C178 C 0.35781 0.36041 0.25472 0.0
H179 H 0.36797 0.53851 0.1507 0.0
C180 C 0.2811 0.38458 0.24646 0.0
H181 H 0.22054 0.35364 0.26989 0.0
H182 H 0.35524 0.31073 0.28377 0.0
loop_
_geom_bond_atom_site_label_1
_geom_bond_atom_site_label_2
_geom_bond_distance
_geom_bond_site_symmetry_2
_ccdc_geom_bond_type
O0 Zn1 1.953 . S
O0 C16 1.225 . S
Zn1 O0 1.953 . S
Zn1 O2 1.949 . S
Zn1 O8 1.919 1_455 S
Zn1 O13 1.924 . S
O2 Zn1 1.949 . S
O2 Zn3 1.923 1_455 S
O2 Zn4 1.950 . S
O2 Zn5 1.945 . S
Zn3 O2 1.923 1_655 S
Zn3 O6 1.933 . S
Zn3 O9 1.941 . S
Zn3 O10 1.965 . S
Zn4 O2 1.950 . S
Zn4 O11 1.938 1_455 S
Zn4 O12 1.906 . S
Zn4 O22 1.953 . S
Zn5 O2 1.945 . S
Zn5 O7 1.932 . S
Zn5 O14 1.977 . S
Zn5 O15 1.910 . S
O6 Zn3 1.933 . S
O6 C17 1.226 1_655 S
O7 Zn5 1.932 . S
O7 C17 1.307 . S
O8 Zn1 1.919 1_655 S
O8 C19 1.253 . S
O9 Zn3 1.941 . S
O9 C19 1.283 . S
O10 Zn3 1.965 . S
O10 C18 1.303 . S
O11 Zn4 1.938 1_655 S
O11 C18 1.247 . S
O12 Zn4 1.906 . S
O12 C20 1.304 . S
O13 Zn1 1.924 . S
O13 C21 1.311 . S
O14 Zn5 1.977 . S
O14 C20 1.272 . S
O15 Zn5 1.910 . S
O15 C21 1.231 . S
C16 O0 1.225 . S
C16 O22 1.298 . S
C17 O6 1.226 1_455 S
C17 O7 1.307 . S
C18 O10 1.303 . S
C18 O11 1.247 . S
C19 O8 1.253 . S
C19 O9 1.283 . S
C20 O12 1.304 . S
C20 O14 1.272 . S
C21 O13 1.311 . S
C21 O15 1.231 . S
O22 Zn4 1.953 . S
O22 C16 1.298 . S
O23 Zn24 1.953 . S
O23 C39 1.225 . S
Zn24 O23 1.953 . S
Zn24 O25 1.949 . S
Zn24 O31 1.919 . S
Zn24 O36 1.924 1_545 S
O25 Zn24 1.949 . S
O25 Zn26 1.923 . S
O25 Zn27 1.950 . S
O25 Zn28 1.945 1_545 S
Zn26 O25 1.923 . S
Zn26 O29 1.933 . S
Zn26 O32 1.941 . S
Zn26 O33 1.965 . S
Zn27 O25 1.950 . S
Zn27 O34 1.938 . S
Zn27 O35 1.906 1_545 S
Zn27 O45 1.953 . S
Zn28 O25 1.945 1_565 S
Zn28 O30 1.932 . S
Zn28 O37 1.977 . S
Zn28 O38 1.910 . S
O29 Zn26 1.933 . S
O29 C40 1.226 . S
O30 Zn28 1.932 . S
O30 C40 1.307 1_565 S
O31 Zn24 1.919 . S
O31 C42 1.253 . S
O32 Zn26 1.941 . S
O32 C42 1.283 . S
O33 Zn26 1.965 . S
O33 C41 1.303 . S
O34 Zn27 1.938 . S
O34 C41 1.247 . S
O35 Zn27 1.906 1_565 S
O35 C43 1.304 . S
O36 Zn24 1.924 1_565 S
O36 C44 1.311 . S
O37 Zn28 1.977 . S
O37 C43 1.272 . S
O38 Zn28 1.910 . S
O38 C44 1.231 . S
C39 O23 1.225 . S
C39 O45 1.298 . S
C40 O29 1.226 . S
C40 O30 1.307 1_545 S
C41 O33 1.303 . S
C41 O34 1.247 . S
C42 O31 1.253 . S
C42 O32 1.283 . S
C43 O35 1.304 . S
C43 O37 1.272 . S
C44 O36 1.311 . S
C44 O38 1.231 . S
O45 Zn27 1.953 . S
O45 C39 1.298 . S
O46 Zn47 1.953 . S
O46 C62 1.225 . S
Zn47 O46 1.953 . S
Zn47 O48 1.949 . S
Zn47 O54 1.919 . S
Zn47 O59 1.924 . S
O48 Zn47 1.949 . S
O48 Zn49 1.923 . S
O48 Zn50 1.950 . S
O48 Zn51 1.945 . S
Zn49 O48 1.923 . S
Zn49 O52 1.933 . S
Zn49 O55 1.941 . S
Zn49 O56 1.965 . S
Zn50 O48 1.950 . S
Zn50 O57 1.938 . S
Zn50 O58 1.906 . S
Zn50 O68 1.953 . S
Zn51 O48 1.945 . S
Zn51 O53 1.932 . S
Zn51 O60 1.977 . S
Zn51 O61 1.910 . S
O52 Zn49 1.933 . S
O52 C63 1.226 . S
O53 Zn51 1.932 . S
O53 C63 1.307 . S
O54 Zn47 1.919 . S
O54 C65 1.253 . S
O55 Zn49 1.941 . S
O55 C65 1.283 . S
O56 Zn49 1.965 . S
O56 C64 1.303 . S
O57 Zn50 1.938 . S
O57 C64 1.247 . S
O58 Zn50 1.906 . S
O58 C66 1.304 . S
O59 Zn47 1.924 . S
O59 C67 1.311 . S
O60 Zn51 1.977 . S
O60 C66 1.272 . S
O61 Zn51 1.910 . S
O61 C67 1.231 . S
C62 O46 1.225 . S
C62 O68 1.298 . S
C63 O52 1.226 . S
C63 O53 1.307 . S
C64 O56 1.303 . S
C64 O57 1.247 . S
C65 O54 1.253 . S
C65 O55 1.283 . S
C66 O58 1.304 . S
C66 O60 1.272 . S
C67 O59 1.311 . S
C67 O61 1.231 . S
O68 Zn50 1.953 . S
O68 C62 1.298 . S
H69 C70 0.949 . S
C70 H69 0.949 . S
C70 C71 1.395 . S
C70 C72 1.391 . S
C71 C70 1.395 . S
C71 C74 1.390 1_545 S
C72 C70 1.391 . S
C72 C76 1.387 1_545 S
C72 C77 1.491 . S
H73 C74 0.950 . S
C74 C71 1.390 1_565 S
C74 H73 0.950 . S
C74 C75 1.378 . S
C75 C74 1.378 . S
C75 C76 1.409 . S
C76 C72 1.387 1_565 S
C76 C75 1.409 . S
C76 H78 0.951 . S
C77 C72 1.491 . S
C77 C79 1.382 . S
C77 C81 1.404 . S
H78 C76 0.951 . S
C79 C77 1.382 . S
C79 C80 1.390 . S
C79 H84 0.949 . S
C80 C79 1.390 . S
C80 C85 1.399 . S
C81 C77 1.404 . S
C81 H82 0.950 . S
C81 C83 1.375 . S
H82 C81 0.950 . S
C83 C81 1.375 . S
C83 C85 1.382 . S
C83 H87 0.950 . S
H84 C79 0.949 . S
C85 C80 1.399 . S
C85 C83 1.382 . S
C85 H86 0.952 . S
H86 C85 0.952 . S
H87 C83 0.950 . S
H88 C89 0.949 . S
C89 H88 0.949 . S
C89 C90 1.395 . S
C89 C91 1.391 . S
C90 C89 1.395 . S
C90 C93 1.390 . S
C91 C89 1.391 . S
C91 C95 1.387 . S
C91 C96 1.491 . S
H92 C93 0.950 . S
C93 C90 1.390 . S
C93 H92 0.950 . S
C93 C94 1.378 . S
C94 C93 1.378 . S
C94 C95 1.409 . S
C95 C91 1.387 . S
C95 C94 1.409 . S
C95 H97 0.951 . S
C96 C91 1.491 . S
C96 C98 1.382 . S
C96 C100 1.404 . S
H97 C95 0.951 . S
C98 C96 1.382 . S
C98 C99 1.390 . S
C98 H103 0.949 . S
C99 C98 1.390 . S
C99 C104 1.399 . S
C100 C96 1.404 . S
C100 H101 0.950 . S
C100 C102 1.375 . S
H101 C100 0.950 . S
C102 C100 1.375 . S
C102 C104 1.382 . S
C102 H106 0.950 . S
H103 C98 0.949 . S
C104 C99 1.399 . S
C104 C102 1.382 . S
C104 H105 0.952 . S
H105 C104 0.952 . S
H106 C102 0.950 . S
H107 C108 0.949 . S
C108 H107 0.949 . S
C108 C109 1.395 . S
C108 C110 1.391 . S
C109 C108 1.395 . S
C109 C112 1.390 1_455 S
C110 C108 1.391 . S
C110 C114 1.387 1_455 S
C110 C115 1.491 . S
H111 C112 0.950 . S
C112 C109 1.390 1_655 S
C112 H111 0.950 . S
C112 C113 1.378 . S
C113 C112 1.378 . S
C113 C114 1.409 . S
C114 C110 1.387 1_655 S
C114 C113 1.409 . S
C114 H116 0.951 . S
C115 C110 1.491 . S
C115 C117 1.382 . S
C115 C119 1.404 . S
H116 C114 0.951 . S
C117 C115 1.382 . S
C117 C118 1.390 . S
C117 H122 0.949 . S
C118 C117 1.390 . S
C118 C123 1.399 . S
C119 C115 1.404 . S
C119 H120 0.950 . S
C119 C121 1.375 . S
H120 C119 0.950 . S
C121 C119 1.375 . S
C121 C123 1.382 . S
C121 H125 0.950 . S
H122 C117 0.949 . S
C123 C118 1.399 . S
C123 C121 1.382 . S
C123 H124 0.952 . S
H124 C123 0.952 . S
H125 C121 0.950 . S
H126 C127 0.949 1_655 S
C127 H126 0.949 1_455 S
C127 C128 1.395 . S
C127 C129 1.391 . S
C128 C127 1.395 . S
C128 C131 1.390 . S
C129 C127 1.391 . S
C129 C133 1.387 . S
C129 C134 1.491 1_455 S
H130 C131 0.950 . S
C131 C128 1.390 . S
C131 H130 0.950 . S
C131 C132 1.378 . S
C132 C131 1.378 . S
C132 C133 1.409 . S
C133 C129 1.387 . S
C133 C132 1.409 . S
C133 H135 0.951 . S
C134 C129 1.491 1_655 S
C134 C136 1.382 . S
C134 C138 1.404 . S
H135 C133 0.951 . S
C136 C134 1.382 . S
C136 C137 1.390 . S
C136 H141 0.949 . S
C137 C136 1.390 . S
C137 C142 1.399 . S
C138 C134 1.404 . S
C138 H139 0.950 . S
C138 C140 1.375 . S
H139 C138 0.950 . S
C140 C138 1.375 . S
C140 C142 1.382 . S
C140 H144 0.950 . S
H141 C136 0.949 . S
C142 C137 1.399 . S
C142 C140 1.382 . S
C142 H143 0.952 . S
H143 C142 0.952 . S
H144 C140 0.950 . S
H145 C146 0.949 1_565 S
C146 H145 0.949 1_545 S
C146 C147 1.395 . S
C146 C148 1.391 . S
C147 C146 1.395 . S
C147 C150 1.390 . S
C148 C146 1.391 . S
C148 C152 1.387 . S
C148 C153 1.491 1_545 S
H149 C150 0.950 . S
C150 C147 1.390 . S
C150 H149 0.950 . S
C150 C151 1.378 . S
C151 C150 1.378 . S
C151 C152 1.409 . S
C152 C148 1.387 . S
C152 C151 1.409 . S
C152 H154 0.951 . S
C153 C148 1.491 1_565 S
C153 C155 1.382 . S
C153 C157 1.404 . S
H154 C152 0.951 . S
C155 C153 1.382 . S
C155 C156 1.390 . S
C155 H160 0.949 . S
C156 C155 1.390 . S
C156 C161 1.399 . S
C157 C153 1.404 . S
C157 H158 0.950 . S
C157 C159 1.375 . S
H158 C157 0.950 . S
C159 C157 1.375 . S
C159 C161 1.382 . S
C159 H163 0.950 . S
H160 C155 0.949 . S
C161 C156 1.399 . S
C161 C159 1.382 . S
C161 H162 0.952 . S
H162 C161 0.952 . S
H163 C159 0.950 . S
H164 C165 0.949 . S
C165 H164 0.949 . S
C165 C166 1.395 . S
C165 C167 1.391 . S
C166 C165 1.395 . S
C166 C169 1.390 . S
C167 C165 1.391 . S
C167 C171 1.387 . S
C167 C172 1.491 . S
H168 C169 0.950 . S
C169 C166 1.390 . S
C169 H168 0.950 . S
C169 C170 1.378 . S
C170 C169 1.378 . S
C170 C171 1.409 . S
C171 C167 1.387 . S
C171 C170 1.409 . S
C171 H173 0.951 . S
C172 C167 1.491 . S
C172 C174 1.382 . S
C172 C176 1.404 . S
H173 C171 0.951 . S
C174 C172 1.382 . S
C174 C175 1.390 . S
C174 H179 0.949 . S
C175 C174 1.390 . S
C175 C180 1.399 . S
C176 C172 1.404 . S
C176 H177 0.950 . S
C176 C178 1.375 . S
H177 C176 0.950 . S
C178 C176 1.375 . S
C178 C180 1.382 . S
C178 H182 0.950 . S
H179 C174 0.949 . S
C180 C175 1.399 . S
C180 C178 1.382 . S
C180 H181 0.952 . S
H181 C180 0.952 . S
H182 C178 0.950 . S
C20 C175 1.308 . S
C41 C137 1.591 . S
C64 C156 1.703 . S
C19 C170 1.902 . S
C132 C44 1.949 . S
C151 C67 1.745 . S
C43 C99 1.313 . S
C66 C113 1.526 . S
C21 C75 1.947 . S
C94 C42 1.847 . S
C118 C65 1.448 . S
C18 C80 1.595 . S
C109 C17 1.669 1_556 S
C39 C71 1.736 . S
C62 C90 1.620 . S
C147 C40 1.678 . S
C166 C63 1.605 1_554 S
C16 C128 1.730 . S
