# Generated by pormake.
# Topology ftw, (4,12)-cn, num edge types: 1
# Building blocks:
#     Node 0, Type 0, BuildingBlock: KUFVIS_clean_linker_0, # of connection points: 4
#     Node 1, Type 0, BuildingBlock: KUFVIS_clean_linker_0, # of connection points: 4
#     Node 2, Type 0, BuildingBlock: KUFVIS_clean_linker_0, # of connection points: 4
#     Node 3, Type 1, BuildingBlock: QEWDON_clean_sbu_0, # of connection points: 12
#     Edge 4, Type (0, 1), BuildingBlock: OJICUG_clean_linker_0, # of connection points: 2
#     Edge 5, Type (0, 1), BuildingBlock: OJICUG_clean_linker_0, # of connection points: 2
#     Edge 6, Type (0, 1), BuildingBlock: OJICUG_clean_linker_0, # of connection points: 2
#     Edge 7, Type (0, 1), BuildingBlock: OJICUG_clean_linker_0, # of connection points: 2
#     Edge 8, Type (0, 1), BuildingBlock: OJICUG_clean_linker_0, # of connection points: 2
#     Edge 9, Type (0, 1), BuildingBlock: OJICUG_clean_linker_0, # of connection points: 2
#     Edge 10, Type (0, 1), BuildingBlock: OJICUG_clean_linker_0, # of connection points: 2
#     Edge 11, Type (0, 1), BuildingBlock: OJICUG_clean_linker_0, # of connection points: 2
#     Edge 12, Type (0, 1), BuildingBlock: OJICUG_clean_linker_0, # of connection points: 2
#     Edge 13, Type (0, 1), BuildingBlock: OJICUG_clean_linker_0, # of connection points: 2
#     Edge 14, Type (0, 1), BuildingBlock: OJICUG_clean_linker_0, # of connection points: 2
#     Edge 15, Type (0, 1), BuildingBlock: OJICUG_clean_linker_0, # of connection points: 2
# Relax obj value: 0.104
# Max RMSD: 0.253
# Mean RMSD: 0.192
data_MOF--net-ftw--node1-QEWDON_clean_sbu_0--node2-KUFVIS_clean_linker_0--edge1-OJICUG_clean_linker_0
_symmetry_space_group_name_H-M    P1
_symmetry_Int_Tables_number       1
_symmetry_cell_setting            triclinic
loop_
_symmetry_equiv_pos_as_xyz
'x, y, z'
_cell_length_a     17.761221
_cell_length_b     20.463313
_cell_length_c     19.163598
_cell_angle_alpha  89.890363
_cell_angle_beta   90.026233
_cell_angle_gamma 90.152949
loop_
_atom_site_label
_atom_site_type_symbol
_atom_site_fract_x
_atom_site_fract_y
_atom_site_fract_z
_atom_type_partial_charge
H0 H -0.01302 0.26398 0.50794 0.0
H1 H 0.00539 0.44479 0.61838 0.0
H2 H 0.96566 0.44303 0.39484 0.0
H3 H 0.00334 0.5439 0.39485 0.0
H4 H -0.01812 0.72267 0.5077 0.0
H5 H 0.96351 0.5416 0.61835 0.0
C6 C -0.01121 0.31693 0.5078 0.0
C7 C 0.98009 0.34992 0.44415 0.0
C8 C -0.00516 0.35093 0.5712 0.0
C9 C -0.00428 0.41996 0.5696 0.0
C10 C -0.01452 0.45587 0.50655 0.0
C11 C 0.97628 0.41899 0.44408 0.0
C12 C -0.01648 0.5308 0.50653 0.0
C13 C -0.00726 0.56784 0.44404 0.0
C14 C -0.01108 0.63689 0.44402 0.0
C15 C 0.98012 0.66972 0.50761 0.0
C16 C 0.97395 0.63558 0.57105 0.0
C17 C 0.97321 0.56654 0.56954 0.0
H18 H 0.48307 -0.00477 0.7735 0.0
H19 H 0.60455 0.97789 0.58204 0.0
H20 H 0.36283 0.01103 0.58114 0.0
H21 H 0.36515 0.96934 0.47777 0.0
H22 H 0.48405 0.99296 0.28516 0.0
H23 H 0.60265 0.01782 0.4777 0.0
C24 C 0.4833 -0.00496 0.71688 0.0
C25 C 0.41516 0.00087 0.68094 0.0
C26 C 0.55171 0.98899 0.68145 0.0
C27 C 0.55144 0.98609 0.60798 0.0
C28 C 0.48371 0.99427 0.56918 0.0
C29 C 0.4158 0.00301 0.60746 0.0
C30 C 0.48385 0.99375 0.48973 0.0
C31 C 0.41712 0.98103 0.45125 0.0
C32 C 0.41625 0.98214 0.37761 0.0
C33 C 0.48397 0.99311 0.3417 0.0
C34 C 0.55164 0.0043 0.37764 0.0
C35 C 0.55068 0.00599 0.45125 0.0
H36 H 0.5882 0.70271 1.00801 0.0
H37 H 0.61465 0.49537 0.0189 0.0
H38 H 0.39905 0.57977 0.96374 0.0
H39 H 0.35499 0.49534 0.02222 0.0
H40 H 0.38131 0.28778 0.01782 0.0
H41 H 0.56877 0.40951 0.96415 0.0
C42 C 0.56429 0.65415 1.00221 0.0
C43 C 0.48834 0.64707 0.98609 0.0
C44 C 0.6097 0.59915 0.01125 0.0
C45 C 0.57878 0.53657 1.00704 0.0
C46 C 0.50193 0.52815 0.99051 0.0
C47 C 0.45789 0.58426 0.97767 0.0
C48 C 0.46687 0.46178 0.99224 0.0
C49 C 0.3906 0.45383 0.01114 0.0
C50 C 0.35996 0.39139 0.01862 0.0
C51 C 0.4051 0.33618 0.01012 0.0
C52 C 0.48039 0.34279 0.99134 0.0
C53 C 0.51049 0.40536 0.98004 0.0
Zn54 Zn 0.06715 0.11834 0.96237 0.0
Zn55 Zn 0.06835 0.11694 0.13383 0.0
O56 O 0.05513 0.05989 0.04859 0.0
H57 H 0.04924 0.013 0.04745 0.0
C58 C 0.96146 0.1874 0.81863 0.0
O59 O 0.97492 0.12469 0.81114 0.0
Zn60 Zn 0.90033 0.87128 0.13315 0.0
Zn61 Zn 0.90311 0.87401 0.96168 0.0
O62 O 0.91421 0.93041 0.04937 0.0
H63 H 0.9221 0.97709 0.0495 0.0
Zn64 Zn 0.87497 0.14133 0.94648 0.0
O65 O 0.91604 0.11871 0.04408 0.0
Zn66 Zn 0.83061 0.10525 0.11416 0.0
H67 H 0.90164 0.12945 0.99685 0.0
Zn68 Zn 0.09175 0.84619 0.94546 0.0
O69 O 0.05152 0.86861 0.04332 0.0
H70 H 0.06554 0.85794 0.99603 0.0
Zn71 Zn 0.13745 0.88186 0.11302 0.0
C72 C 0.00575 0.7993 0.81787 0.0
O73 O -0.00769 0.86198 0.80981 0.0
O74 O 0.09148 0.21309 0.99096 0.0
O75 O 0.1148 0.20193 0.10457 0.0
O76 O 0.87951 0.77852 0.98786 0.0
O77 O 0.85412 0.78704 0.10129 0.0
O78 O 0.7622 0.15804 0.95695 0.0
O79 O 0.73261 0.13453 0.0675 0.0
C80 C 0.16007 0.01254 0.19765 0.0
O81 O 0.20472 0.83033 0.95519 0.0
O82 O 0.2353 0.85307 0.06565 0.0
O83 O 0.83691 0.90546 0.87651 0.0
C84 C 0.11465 0.23619 0.0489 0.0
O85 O 0.1329 0.08772 0.87675 0.0
C86 C 0.80791 0.97392 0.198 0.0
O87 O 0.92551 0.20634 0.8725 0.0
C88 C 0.85532 0.75408 0.04487 0.0
O89 O 0.04145 0.78058 0.87209 0.0
C90 C 0.9192 0.17359 0.21233 0.0
O91 O 0.13726 0.07144 0.20236 0.0
O92 O 0.13545 0.97714 0.14758 0.0
C93 C 0.71449 0.15479 1.00646 0.0
O94 O 0.8309 0.91504 0.20234 0.0
O95 O 0.83262 0.00982 0.14827 0.0
C96 C 0.04932 0.8133 0.21153 0.0
O97 O 0.8503 0.16411 0.19755 0.0
O98 O 0.96743 0.14387 0.17472 0.0
C99 C 0.25291 0.8334 1.00433 0.0
O100 O 0.11818 0.82253 0.19635 0.0
O101 O 0.00092 0.84322 0.17413 0.0
C102 C 0.79821 0.95768 0.87621 0.0
O103 O 0.80242 -0.00303 0.93026 0.0
C104 C 0.16886 0.03406 0.87494 0.0
O105 O 0.16203 0.99314 0.92751 0.0
C106 C 0.0226 0.26244 0.35963 0.0
C107 C 0.96969 0.31045 0.37903 0.0
H108 H 0.04951 0.18258 0.29083 0.0
C109 C 0.90295 0.3154 0.34021 0.0
H110 H 0.07447 0.25723 0.38885 0.0
C111 C 0.8879 0.27174 0.2855 0.0
C112 C 0.93984 0.22268 0.26694 0.0
H113 H 0.86077 0.35119 0.35422 0.0
H114 H 0.83467 0.27587 0.25827 0.0
C115 C 0.00835 0.21965 0.30358 0.0
C116 C 0.6867 0.97288 0.35943 0.0
C117 C 0.62388 0.00918 0.33774 0.0
H118 H 0.79463 0.93439 0.33244 0.0
C119 C 0.62826 0.04338 0.2738 0.0
H120 H 0.68543 0.94567 0.40796 0.0
C121 C 0.69164 0.03727 0.23037 0.0
C122 C 0.75141 -0.00371 0.24977 0.0
H123 H 0.58126 0.07257 0.2559 0.0
H124 H 0.69123 0.06056 0.17962 0.0
C125 C 0.74937 0.96628 0.3159 0.0
C126 C 0.06508 0.67071 0.33904 0.0
C127 C -0.00087 0.67652 0.37881 0.0
H128 H 0.13269 0.70957 0.25612 0.0
C129 C 0.94683 0.72536 0.36013 0.0
H130 H 0.10677 0.63423 0.35242 0.0
C131 C 0.96096 0.76815 0.30391 0.0
C132 C 0.02876 0.76425 0.26634 0.0
H133 H 0.89556 0.73123 0.39003 0.0
H134 H 0.92033 0.80588 0.29175 0.0
C135 C 0.08004 0.71436 0.28413 0.0
C136 C 0.33987 0.94311 0.27356 0.0
C137 C 0.34401 0.97698 0.33761 0.0
H138 H 0.27712 0.92627 0.17918 0.0
C139 C 0.28084 0.0127 0.35935 0.0
H140 H 0.38708 0.91429 0.25562 0.0
C141 C 0.21813 0.01917 0.31578 0.0
C142 C 0.21639 0.98967 0.24949 0.0
H143 H 0.28183 0.03964 0.40794 0.0
H144 H 0.17261 0.05068 0.33239 0.0
C145 C 0.27648 0.94917 0.23004 0.0
C146 C 0.01444 0.65124 0.69706 0.0
C147 C 0.97288 0.67286 0.63873 0.0
H148 H 0.05703 0.67348 0.79928 0.0
C149 C 0.93585 0.73353 0.64368 0.0
H150 H 0.04427 0.6052 0.6954 0.0
C151 C 0.94391 0.77301 0.70299 0.0
C152 C -0.01128 0.75295 0.75966 0.0
H153 H 0.90188 0.75144 0.60082 0.0
H154 H 0.91651 0.82024 0.70355 0.0
C155 C 0.02208 0.69065 0.75675 0.0
C156 C 0.33079 0.95814 0.77519 0.0
C157 C 0.34431 0.00453 0.72237 0.0
H158 H 0.26486 0.93057 0.86383 0.0
C159 C 0.29473 0.05754 0.71555 0.0
H160 H 0.3678 0.91651 0.78139 0.0
C161 C 0.23559 0.06599 0.76339 0.0
C162 C 0.22469 0.02131 0.81863 0.0
H163 H 0.30402 0.09417 0.67558 0.0
H164 H 0.20014 0.10875 0.75854 0.0
C165 C 0.27169 0.96626 0.8225 0.0
C166 C 0.95385 0.33535 0.69707 0.0
C167 C -0.00452 0.31356 0.63899 0.0
H168 H 0.91087 0.31334 0.79924 0.0
C169 C 0.03213 0.25273 0.64429 0.0
H170 H 0.92427 0.38152 0.69514 0.0
C171 C 0.02368 0.21329 0.70375 0.0
C172 C 0.97884 0.23357 0.76018 0.0
H173 H 0.06613 0.23468 0.60162 0.0
H174 H 0.05083 0.16595 0.70462 0.0
C175 C 0.94583 0.296 0.75689 0.0
C176 C 0.6734 0.934 0.7161 0.0
C177 C 0.62238 0.98591 0.72337 0.0
H178 H 0.76922 0.8841 0.75876 0.0
C179 C 0.63462 0.03182 0.77679 0.0
H180 H 0.66522 0.89777 0.67566 0.0
C181 C 0.69374 0.02416 0.82425 0.0
C182 C 0.74222 0.97015 0.81985 0.0
H183 H 0.59666 0.07273 0.78329 0.0
H184 H 0.69954 0.0594 0.866 0.0
C185 C 0.73265 0.92607 0.76402 0.0
C186 C 0.26059 0.35764 0.10022 0.0
C187 C 0.28031 0.38109 0.03405 0.0
H188 H 0.18887 0.2936 0.15773 0.0
C189 C 0.23094 0.37256 0.97782 0.0
H190 H 0.2985 0.36394 0.14405 0.0
C191 C 0.16879 0.33144 0.985 0.0
C192 C 0.15639 0.2985 0.04845 0.0
H193 H 0.24578 0.39045 0.92635 0.0
H194 H 0.13629 0.31959 0.93885 0.0
C195 C 0.19824 0.31684 0.10763 0.0
C196 C 0.39271 0.71684 0.92717 0.0
C197 C 0.43908 0.70483 0.98475 0.0
H198 H 0.29954 0.77013 0.88675 0.0
C199 C 0.43315 0.74456 0.04419 0.0
H200 H 0.39731 0.68728 0.88051 0.0
C201 C 0.37646 0.79155 0.04858 0.0
C202 C 0.32547 0.79974 0.9932 0.0
H203 H 0.46892 0.73612 0.08912 0.0
H204 H 0.36947 0.81804 0.09703 0.0
C205 C 0.33707 0.76458 0.93092 0.0
C206 C 0.53592 0.2448 0.0488 0.0
C207 C 0.52933 0.2848 0.98946 0.0
H208 H 0.59968 0.1706 0.10069 0.0
C209 C 0.57453 0.27258 0.93119 0.0
H210 H 0.50106 0.25333 0.09426 0.0
C211 C 0.62975 0.22441 0.93415 0.0
C212 C 0.64207 0.18895 0.99625 0.0
H213 H 0.56934 0.30223 0.88454 0.0
H214 H 0.66645 0.2187 0.88945 0.0
C215 C 0.59213 0.19732 0.05234 0.0
C216 C 0.73776 0.6209 0.9694 0.0
C217 C 0.68945 0.60977 0.02588 0.0
H218 H 0.8318 0.67543 0.93157 0.0
C219 C 0.71015 0.63049 0.09275 0.0
H220 H 0.72211 0.60514 0.91739 0.0
C221 C 0.77254 0.67108 0.10112 0.0
C222 C 0.8135 0.69186 0.04228 0.0
H223 H 0.67302 0.6222 0.13676 0.0
H224 H 0.78272 0.69222 0.15205 0.0
C225 C 0.80007 0.66165 0.97759 0.0
loop_
_geom_bond_atom_site_label_1
_geom_bond_atom_site_label_2
_geom_bond_distance
_geom_bond_site_symmetry_2
_ccdc_geom_bond_type
H0 C6 0.929 1_655 S
H1 C9 0.931 . S
H2 C11 0.931 . S
H3 C13 0.930 . S
H4 C15 0.930 . S
H5 C17 0.931 . S
C6 H0 0.929 1_455 S
C6 C7 1.380 1_455 S
C6 C8 1.394 . S
C7 C6 1.380 1_655 S
C7 C11 1.382 . S
C8 C6 1.394 . S
C8 C9 1.400 . S
C9 H1 0.931 . S
C9 C8 1.400 . S
C9 C10 1.375 . S
C10 C9 1.375 . S
C10 C11 1.415 1_455 S
C10 C12 1.501 . S
C11 H2 0.931 . S
C11 C7 1.382 . S
C11 C10 1.415 1_655 S
C12 C10 1.501 . S
C12 C13 1.384 . S
C12 C17 1.408 1_455 S
C13 H3 0.930 . S
C13 C12 1.384 . S
C13 C14 1.389 . S
C14 C13 1.389 . S
C14 C15 1.405 . S
C15 H4 0.930 . S
C15 C14 1.405 . S
C15 C16 1.364 1_455 S
C16 C15 1.364 1_655 S
C16 C17 1.400 . S
C17 H5 0.931 . S
C17 C12 1.408 1_655 S
C17 C16 1.400 . S
H18 C24 0.930 . S
H19 C27 0.931 . S
H20 C29 0.931 . S
H21 C31 0.930 . S
H22 C33 0.930 . S
H23 C35 0.931 . S
C24 H18 0.930 . S
C24 C25 1.380 . S
C24 C26 1.394 1_545 S
C25 C24 1.380 . S
C25 C29 1.382 . S
C26 C24 1.394 1_565 S
C26 C27 1.400 . S
C27 H19 0.931 . S
C27 C26 1.400 . S
C27 C28 1.375 . S
C28 C27 1.375 . S
C28 C29 1.415 1_565 S
C28 C30 1.501 . S
C29 H20 0.931 . S
C29 C25 1.382 . S
C29 C28 1.415 1_545 S
C30 C28 1.501 . S
C30 C31 1.384 . S
C30 C35 1.408 1_565 S
C31 H21 0.930 . S
C31 C30 1.384 . S
C31 C32 1.389 . S
C32 C31 1.389 . S
C32 C33 1.405 . S
C33 H22 0.930 . S
C33 C32 1.405 . S
C33 C34 1.364 1_565 S
C34 C33 1.364 1_545 S
C34 C35 1.400 . S
C35 H23 0.931 . S
C35 C30 1.408 1_545 S
C35 C34 1.400 . S
H36 C42 0.930 . S
H37 C45 0.931 . S
H38 C47 0.931 . S
H39 C49 0.930 . S
H40 C51 0.930 . S
H41 C53 0.931 . S
C42 H36 0.930 . S
C42 C43 1.380 . S
C42 C44 1.394 . S
C43 C42 1.380 . S
C43 C47 1.382 . S
C44 C42 1.394 . S
C44 C45 1.400 . S
C45 H37 0.931 . S
C45 C44 1.400 . S
C45 C46 1.375 . S
C46 C45 1.375 . S
C46 C47 1.415 . S
C46 C48 1.501 . S
C47 H38 0.931 . S
C47 C43 1.382 . S
C47 C46 1.415 . S
C48 C46 1.501 . S
C48 C49 1.384 . S
C48 C53 1.408 . S
C49 H39 0.930 . S
C49 C48 1.384 . S
C49 C50 1.389 . S
C50 C49 1.389 . S
C50 C51 1.405 . S
C51 H40 0.930 . S
C51 C50 1.405 . S
C51 C52 1.364 . S
C52 C51 1.364 . S
C52 C53 1.400 . S
C53 H41 0.931 . S
C53 C48 1.408 . S
C53 C52 1.400 . S
Zn54 O56 1.933 1_556 S
Zn54 O74 1.985 . S
Zn54 O85 1.955 . S
Zn55 O56 1.911 . S
Zn55 O75 1.970 . S
Zn55 O91 1.945 . S
Zn55 O98 1.981 . S
O56 Zn54 1.933 1_554 S
O56 Zn55 1.911 . S
O56 H57 0.841 . S
H57 O56 0.841 . S
C58 O59 1.246 . S
C58 O87 1.276 1_455 S
O59 C58 1.246 . S
Zn60 O62 1.911 . S
Zn60 O77 1.970 . S
Zn60 O94 1.945 . S
Zn60 O101 1.981 . S
Zn61 O62 1.933 1_556 S
Zn61 O76 1.985 . S
Zn61 O83 1.955 . S
O62 Zn60 1.911 . S
O62 Zn61 1.933 1_554 S
O62 H63 0.841 . S
H63 O62 0.841 . S
Zn64 O65 1.933 1_556 S
Zn64 O78 1.985 . S
Zn64 O87 1.955 . S
O65 Zn64 1.933 1_554 S
O65 Zn66 1.911 . S
O65 H67 0.841 . S
Zn66 O65 1.911 . S
Zn66 O79 1.970 . S
Zn66 O95 1.981 . S
Zn66 O97 1.945 . S
H67 O65 0.841 . S
Zn68 O69 1.933 1_556 S
Zn68 O81 1.985 . S
Zn68 O89 1.955 . S
O69 Zn68 1.933 1_554 S
O69 H70 0.841 . S
O69 Zn71 1.911 . S
H70 O69 0.841 . S
Zn71 O69 1.911 . S
Zn71 O82 1.970 . S
Zn71 O92 1.981 . S
Zn71 O100 1.945 . S
C72 O73 1.246 . S
C72 O89 1.276 1_655 S
O73 C72 1.246 . S
O74 Zn54 1.985 . S
O74 C84 1.245 1_556 S
O75 Zn55 1.970 . S
O75 C84 1.263 . S
O76 Zn61 1.985 . S
O76 C88 1.245 1_556 S
O77 Zn60 1.970 . S
O77 C88 1.263 . S
O78 Zn64 1.985 . S
O78 C93 1.245 1_556 S
O79 Zn66 1.970 . S
O79 C93 1.263 . S
C80 O91 1.263 . S
C80 O92 1.244 1_545 S
O81 Zn68 1.985 . S
O81 C99 1.245 1_556 S
O82 Zn71 1.970 . S
O82 C99 1.263 . S
O83 Zn61 1.955 . S
O83 C102 1.276 1_565 S
C84 O74 1.245 1_554 S
C84 O75 1.263 . S
O85 Zn54 1.955 . S
O85 C104 1.276 1_545 S
C86 O94 1.261 1_545 S
C86 O95 1.245 . S
O87 C58 1.276 1_655 S
O87 Zn64 1.955 . S
C88 O76 1.245 1_554 S
C88 O77 1.263 . S
O89 Zn68 1.955 . S
O89 C72 1.276 1_455 S
C90 O97 1.262 1_455 S
C90 O98 1.245 . S
O91 Zn55 1.945 . S
O91 C80 1.263 . S
O92 Zn71 1.981 . S
O92 C80 1.244 1_565 S
C93 O78 1.245 1_554 S
C93 O79 1.263 . S
O94 Zn60 1.945 . S
O94 C86 1.261 1_565 S
O95 Zn66 1.981 . S
O95 C86 1.245 . S
C96 O100 1.262 . S
C96 O101 1.245 1_455 S
O97 Zn66 1.945 . S
O97 C90 1.262 1_655 S
O98 Zn55 1.981 . S
O98 C90 1.245 . S
C99 O81 1.245 1_554 S
C99 O82 1.263 . S
O100 Zn71 1.945 . S
O100 C96 1.262 . S
O101 Zn60 1.981 . S
O101 C96 1.245 1_655 S
C102 O83 1.276 1_545 S
C102 O103 1.246 . S
O103 C102 1.246 . S
C104 O85 1.276 1_565 S
C104 O105 1.246 . S
O105 C104 1.246 . S
C106 C107 1.387 1_455 S
C106 H110 0.950 . S
C106 C115 1.390 . S
C107 C106 1.387 1_655 S
C107 C109 1.387 . S
H108 C115 0.950 . S
C109 C107 1.387 . S
C109 C111 1.390 . S
C109 H113 0.950 . S
H110 C106 0.950 . S
C111 C109 1.390 . S
C111 C112 1.387 1_655 S
C111 H114 0.950 . S
C112 C111 1.387 1_455 S
C112 C115 1.387 . S
H113 C109 0.950 . S
H114 C111 0.950 . S
C115 C106 1.390 . S
C115 H108 0.950 . S
C115 C112 1.387 . S
C116 C117 1.387 1_565 S
C116 H120 0.950 . S
C116 C125 1.390 . S
C117 C116 1.387 1_545 S
C117 C119 1.387 . S
H118 C125 0.950 . S
C119 C117 1.387 . S
C119 C121 1.390 . S
C119 H123 0.950 . S
H120 C116 0.950 . S
C121 C119 1.390 . S
C121 C122 1.387 . S
C121 H124 0.950 . S
C122 C121 1.387 . S
C122 C125 1.387 1_545 S
H123 C119 0.950 . S
H124 C121 0.950 . S
C125 C116 1.390 . S
C125 H118 0.950 . S
C125 C122 1.387 1_565 S
C126 C127 1.387 . S
C126 H130 0.950 . S
C126 C135 1.390 . S
C127 C126 1.387 . S
C127 C129 1.387 1_455 S
H128 C135 0.950 . S
C129 C127 1.387 1_655 S
C129 C131 1.390 . S
C129 H133 0.950 . S
H130 C126 0.950 . S
C131 C129 1.390 . S
C131 C132 1.387 . S
C131 H134 0.950 . S
C132 C131 1.387 . S
C132 C135 1.387 1_655 S
H133 C129 0.950 . S
H134 C131 0.950 . S
C135 C126 1.390 . S
C135 H128 0.950 . S
C135 C132 1.387 1_455 S
C136 C137 1.387 . S
C136 H140 0.950 . S
C136 C145 1.390 . S
C137 C136 1.387 . S
C137 C139 1.387 1_565 S
H138 C145 0.950 . S
C139 C137 1.387 1_545 S
C139 C141 1.390 . S
C139 H143 0.950 . S
H140 C136 0.950 . S
C141 C139 1.390 . S
C141 C142 1.387 1_545 S
C141 H144 0.950 . S
C142 C141 1.387 1_565 S
C142 C145 1.387 . S
H143 C139 0.950 . S
H144 C141 0.950 . S
C145 C136 1.390 . S
C145 H138 0.950 . S
C145 C142 1.387 . S
C146 C147 1.387 1_455 S
C146 H150 0.950 . S
C146 C155 1.390 . S
C147 C146 1.387 1_655 S
C147 C149 1.387 . S
H148 C155 0.950 . S
C149 C147 1.387 . S
C149 C151 1.390 . S
C149 H153 0.950 . S
H150 C146 0.950 . S
C151 C149 1.390 . S
C151 C152 1.387 . S
C151 H154 0.950 . S
C152 C151 1.387 . S
C152 C155 1.387 1_655 S
H153 C149 0.950 . S
H154 C151 0.950 . S
C155 C146 1.390 . S
C155 H148 0.950 . S
C155 C152 1.387 1_455 S
C156 C157 1.387 1_565 S
C156 H160 0.950 . S
C156 C165 1.390 . S
C157 C156 1.387 1_545 S
C157 C159 1.387 . S
H158 C165 0.950 . S
C159 C157 1.387 . S
C159 C161 1.390 . S
C159 H163 0.950 . S
H160 C156 0.950 . S
C161 C159 1.390 . S
C161 C162 1.387 1_545 S
C161 H164 0.950 . S
C162 C161 1.387 1_565 S
C162 C165 1.387 . S
H163 C159 0.950 . S
H164 C161 0.950 . S
C165 C156 1.390 . S
C165 H158 0.950 . S
C165 C162 1.387 . S
C166 C167 1.387 1_655 S
C166 H170 0.950 . S
C166 C175 1.390 . S
C167 C166 1.387 1_455 S
C167 C169 1.387 . S
H168 C175 0.950 . S
C169 C167 1.387 . S
C169 C171 1.390 . S
C169 H173 0.950 . S
H170 C166 0.950 . S
C171 C169 1.390 . S
C171 C172 1.387 . S
C171 H174 0.950 . S
C172 C171 1.387 . S
C172 C175 1.387 1_455 S
H173 C169 0.950 . S
H174 C171 0.950 . S
C175 C166 1.390 . S
C175 H168 0.950 . S
C175 C172 1.387 1_655 S
C176 C177 1.387 . S
C176 H180 0.950 . S
C176 C185 1.390 . S
C177 C176 1.387 . S
C177 C179 1.387 1_565 S
H178 C185 0.950 . S
C179 C177 1.387 1_545 S
C179 C181 1.390 . S
C179 H183 0.950 . S
H180 C176 0.950 . S
C181 C179 1.390 . S
C181 C182 1.387 . S
C181 H184 0.950 . S
C182 C181 1.387 . S
C182 C185 1.387 1_545 S
H183 C179 0.950 . S
H184 C181 0.950 . S
C185 C176 1.390 . S
C185 H178 0.950 . S
C185 C182 1.387 1_565 S
C186 C187 1.387 . S
C186 H190 0.950 . S
C186 C195 1.390 . S
C187 C186 1.387 . S
C187 C189 1.387 1_554 S
H188 C195 0.950 . S
C189 C187 1.387 1_556 S
C189 C191 1.390 . S
C189 H193 0.950 . S
H190 C186 0.950 . S
C191 C189 1.390 . S
C191 C192 1.387 1_556 S
C191 H194 0.950 . S
C192 C191 1.387 1_554 S
C192 C195 1.387 . S
H193 C189 0.950 . S
H194 C191 0.950 . S
C195 C186 1.390 . S
C195 H188 0.950 . S
C195 C192 1.387 . S
C196 C197 1.387 1_556 S
C196 H200 0.950 . S
C196 C205 1.390 . S
C197 C196 1.387 1_554 S
C197 C199 1.387 . S
H198 C205 0.950 . S
C199 C197 1.387 . S
C199 C201 1.390 . S
C199 H203 0.950 . S
H200 C196 0.950 . S
C201 C199 1.390 . S
C201 C202 1.387 . S
C201 H204 0.950 . S
C202 C201 1.387 . S
C202 C205 1.387 1_554 S
H203 C199 0.950 . S
H204 C201 0.950 . S
C205 C196 1.390 . S
C205 H198 0.950 . S
C205 C202 1.387 1_556 S
C206 C207 1.387 . S
C206 H210 0.950 . S
C206 C215 1.390 . S
C207 C206 1.387 . S
C207 C209 1.387 1_554 S
H208 C215 0.950 . S
C209 C207 1.387 1_556 S
C209 C211 1.390 . S
C209 H213 0.950 . S
H210 C206 0.950 . S
C211 C209 1.390 . S
C211 C212 1.387 1_556 S
C211 H214 0.950 . S
C212 C211 1.387 1_554 S
C212 C215 1.387 . S
H213 C209 0.950 . S
H214 C211 0.950 . S
C215 C206 1.390 . S
C215 H208 0.950 . S
C215 C212 1.387 . S
C216 C217 1.387 1_556 S
C216 H220 0.950 . S
C216 C225 1.390 . S
C217 C216 1.387 1_554 S
C217 C219 1.387 . S
H218 C225 0.950 . S
C219 C217 1.387 . S
C219 C221 1.390 . S
C219 H223 0.950 . S
H220 C216 0.950 . S
C221 C219 1.390 . S
C221 C222 1.387 . S
C221 H224 0.950 . S
C222 C221 1.387 . S
C222 C225 1.387 1_554 S
H223 C219 0.950 . S
H224 C221 0.950 . S
C225 C216 1.390 . S
C225 H218 0.950 . S
C225 C222 1.387 1_556 S
C112 C90 1.905 . S
C107 C7 1.987 . S
C122 C86 1.357 . S
C117 C34 1.455 . S
C132 C96 1.904 1_655 S
C127 C14 1.995 . S
C142 C80 1.362 1_565 S
C137 C32 1.457 . S
C147 C16 2.073 . S
C152 C72 1.975 . S
C162 C104 1.426 . S
C157 C25 1.567 . S
C167 C8 2.072 . S
C172 C58 1.970 . S
C177 C26 1.568 . S
C182 C102 1.423 . S
C187 C50 1.151 . S
C192 C84 1.119 . S
C197 C43 1.137 . S
C202 C99 1.125 . S
C212 C93 1.126 . S
C207 C52 1.137 . S
C222 C88 1.110 . S
C217 C44 1.147 . S
