# Generated by pormake.
# Topology dag, (6,3)-cn, num edge types: 1
# Building blocks:
#     Node 0, Type 0, BuildingBlock: IZENUY_clean_sbu_0, # of connection points: 6
#     Node 1, Type 0, BuildingBlock: IZENUY_clean_sbu_0, # of connection points: 6
#     Node 2, Type 0, BuildingBlock: IZENUY_clean_sbu_0, # of connection points: 6
#     Node 3, Type 0, BuildingBlock: IZENUY_clean_sbu_0, # of connection points: 6
#     Node 4, Type 1, BuildingBlock: QEWDON_clean_linker_0, # of connection points: 3
#     Node 5, Type 1, BuildingBlock: QEWDON_clean_linker_0, # of connection points: 3
#     Node 6, Type 1, BuildingBlock: QEWDON_clean_linker_0, # of connection points: 3
#     Node 7, Type 1, BuildingBlock: QEWDON_clean_linker_0, # of connection points: 3
#     Node 8, Type 1, BuildingBlock: QEWDON_clean_linker_0, # of connection points: 3
#     Node 9, Type 1, BuildingBlock: QEWDON_clean_linker_0, # of connection points: 3
#     Node 10, Type 1, BuildingBlock: QEWDON_clean_linker_0, # of connection points: 3
#     Node 11, Type 1, BuildingBlock: QEWDON_clean_linker_0, # of connection points: 3
#     Edge 12, Type (0, 1), None
#     Edge 13, Type (0, 1), None
#     Edge 14, Type (0, 1), None
#     Edge 15, Type (0, 1), None
#     Edge 16, Type (0, 1), None
#     Edge 17, Type (0, 1), None
#     Edge 18, Type (0, 1), None
#     Edge 19, Type (0, 1), None
#     Edge 20, Type (0, 1), None
#     Edge 21, Type (0, 1), None
#     Edge 22, Type (0, 1), None
#     Edge 23, Type (0, 1), None
#     Edge 24, Type (0, 1), None
#     Edge 25, Type (0, 1), None
#     Edge 26, Type (0, 1), None
#     Edge 27, Type (0, 1), None
#     Edge 28, Type (0, 1), None
#     Edge 29, Type (0, 1), None
#     Edge 30, Type (0, 1), None
#     Edge 31, Type (0, 1), None
#     Edge 32, Type (0, 1), None
#     Edge 33, Type (0, 1), None
#     Edge 34, Type (0, 1), None
#     Edge 35, Type (0, 1), None
# Relax obj value: 0.045
# Max RMSD: 0.088
# Mean RMSD: 0.084
data_MOF--net-dag--node1-IZENUY_clean_sbu_0--node2-QEWDON_clean_linker_0--edge1-none
_symmetry_space_group_name_H-M    P1
_symmetry_Int_Tables_number       1
_symmetry_cell_setting            triclinic
loop_
_symmetry_equiv_pos_as_xyz
'x, y, z'
_cell_length_a     18.896653
_cell_length_b     18.784243
_cell_length_c     17.893364
_cell_angle_alpha  89.133268
_cell_angle_beta   89.992619
_cell_angle_gamma 90.00344
loop_
_atom_site_label
_atom_site_type_symbol
_atom_site_fract_x
_atom_site_fract_y
_atom_site_fract_z
_atom_type_partial_charge
Fe0 Fe 0.24721 0.96908 0.99822 0.0
Fe1 Fe 0.08879 0.9761 0.0168 0.0
O2 O 0.16583 0.92507 0.01781 0.0
Fe3 Fe 0.15922 0.8327 0.04102 0.0
O4 O 0.24141 0.83045 0.0946 0.0
O5 O 0.28175 0.94119 0.08948 0.0
O6 O 0.22159 0.05383 0.04305 0.0
C7 C 0.17537 0.06438 0.09335 0.0
C8 C 0.2648 0.83099 0.93365 0.0
O9 O 0.12111 1.02469 0.09688 0.0
C10 C 0.04552 0.85973 0.93923 0.0
O11 O 0.21606 1.00215 0.90381 0.0
O12 O 0.12103 0.0444 0.95449 0.0
O13 O 0.20566 0.80715 0.95598 0.0
O14 O 0.28738 0.89129 0.95392 0.0
C15 C 0.05832 0.88788 0.13606 0.0
O16 O 0.05652 0.92656 0.93702 0.0
O17 O 0.07485 0.82109 0.98955 0.0
C18 C 0.1605 0.04049 0.89883 0.0
O19 O 0.03816 0.9208 0.07904 0.0
O20 O 0.11286 0.84921 0.13123 0.0
C21 C 0.2789 0.88006 0.12062 0.0
Fe22 Fe 0.74722 0.56332 0.53627 0.0
Fe23 Fe 0.65925 0.69972 0.49357 0.0
O24 O 0.66585 0.60734 0.51671 0.0
Fe25 Fe 0.58882 0.5563 0.51769 0.0
O26 O 0.62105 0.48797 0.57997 0.0
O27 O 0.71606 0.53021 0.63067 0.0
O28 O 0.78741 0.64109 0.58059 0.0
C29 C 0.76483 0.70137 0.60091 0.0
C30 C 0.67541 0.46808 0.44107 0.0
O31 O 0.70569 0.72522 0.57862 0.0
C32 C 0.55832 0.64464 0.39853 0.0
O33 O 0.78177 0.59124 0.44501 0.0
O34 O 0.74145 0.70199 0.43997 0.0
O35 O 0.62115 0.50776 0.43757 0.0
O36 O 0.7216 0.47859 0.49141 0.0
C37 C 0.54552 0.67262 0.59534 0.0
O38 O 0.61291 0.68326 0.40335 0.0
O39 O 0.53818 0.61161 0.45549 0.0
C40 C 0.77892 0.65239 0.41391 0.0
O41 O 0.57488 0.7113 0.54506 0.0
O42 O 0.55652 0.60579 0.5975 0.0
C43 C 0.66049 0.49188 0.63564 0.0
Fe44 Fe 0.86771 0.19973 0.99344 0.0
Fe45 Fe 0.93812 0.05633 0.01766 0.0
O46 O 0.86109 0.10737 0.01665 0.0
Fe47 Fe 0.77971 0.06337 0.03626 0.0
O48 O 0.74517 0.09125 0.94499 0.0
O49 O 0.78551 0.20199 0.93988 0.0
O50 O 0.91404 0.18321 0.90323 0.0
C51 C 0.96861 0.14459 0.89841 0.0
C52 C 0.76214 0.20147 0.10082 0.0
O53 O 0.98876 0.1116 0.95539 0.0
C54 C 0.86642 0.992 0.13567 0.0
O55 O 0.95209 0.21135 0.0449 0.0
O56 O 0.97043 0.10588 0.09742 0.0
O57 O 0.73954 0.14118 0.08054 0.0
O58 O 0.82129 0.2253 0.07849 0.0
C59 C 0.85151 0.96806 0.94113 0.0
O60 O 0.90587 0.98805 0.08 0.0
O61 O 0.81085 0.03032 0.13067 0.0
C62 C 0.98143 0.1727 0.0952 0.0
O63 O 0.90579 1.00772 0.93759 0.0
O64 O 0.80531 0.97861 0.99145 0.0
C65 C 0.74803 0.15238 0.91385 0.0
Fe66 Fe 0.43811 0.47612 0.51677 0.0
Fe67 Fe 0.2797 0.46909 0.49818 0.0
O68 O 0.36108 0.42508 0.51775 0.0
Fe69 Fe 0.36767 0.3327 0.54091 0.0
O70 O 0.414 0.34917 0.63112 0.0
O71 O 0.48874 0.42081 0.57901 0.0
O72 O 0.40577 0.52468 0.59687 0.0
C73 C 0.3515 0.56435 0.59336 0.0
C74 C 0.48141 0.35978 0.43916 0.0
O75 O 0.30532 0.55383 0.54302 0.0
C76 C 0.26212 0.33103 0.43355 0.0
O77 O 0.40588 0.54442 0.45447 0.0
O78 O 0.31087 0.50218 0.40378 0.0
O79 O 0.45205 0.32111 0.48944 0.0
O80 O 0.47043 0.4266 0.43698 0.0
C81 C 0.24801 0.38003 0.62055 0.0
O82 O 0.23952 0.39131 0.45387 0.0
O83 O 0.32125 0.30719 0.45584 0.0
C84 C 0.36645 0.5405 0.39879 0.0
O85 O 0.24516 0.44118 0.58945 0.0
O86 O 0.28546 0.33043 0.59448 0.0
C87 C 0.46858 0.38778 0.63597 0.0
H88 H 0.22128 0.13036 0.22346 0.0
C89 C 0.17745 0.15514 0.19391 0.0
C90 C 0.16344 0.13717 0.11945 0.0
C91 C 0.12895 0.19814 0.23271 0.0
H92 H 0.0994 0.15938 0.02386 0.0
C93 C 0.10826 0.17177 0.08208 0.0
C94 C 0.05092 0.195 0.12409 0.0
C95 C 0.06204 0.21161 0.19957 0.0
C96 C 0.14228 0.21609 0.31191 0.0
H97 H 1.01853 0.23126 0.23288 0.0
C98 C 0.19864 0.26154 0.33254 0.0
C99 C 0.20845 0.27928 0.40822 0.0
C100 C 0.09749 0.18787 0.36746 0.0
H101 H 0.0544 0.15263 0.35288 0.0
C102 C 0.1081 0.20439 0.44228 0.0
H103 H 0.23307 0.28429 0.29005 0.0
C104 C 0.16284 0.24996 0.46252 0.0
H105 H 0.16919 0.26298 0.52094 0.0
H106 H 0.07333 0.18228 0.48475 0.0
H107 H 0.50839 0.73113 0.73299 0.0
C108 C 0.46488 0.71149 0.69968 0.0
C109 C 0.476 0.69486 0.6242 0.0
C110 C 0.39795 0.69805 0.73282 0.0
H111 H 0.42767 0.65937 0.52397 0.0
C112 C 0.41866 0.67168 0.58218 0.0
C113 C 0.36343 0.63712 0.61955 0.0
C114 C 0.34944 0.65508 0.69401 0.0
C115 C 0.38461 0.71601 0.81201 0.0
H116 H 0.30559 0.63032 0.72357 0.0
C117 C 0.32827 0.76148 0.83265 0.0
C118 C 0.31844 0.77922 0.90832 0.0
C119 C 0.42938 0.68777 0.86757 0.0
H120 H 0.47246 0.65252 0.85299 0.0
C121 C 0.41875 0.70429 0.94239 0.0
H122 H 0.29386 0.78425 0.79015 0.0
C123 C 0.36402 0.74988 0.96263 0.0
H124 H 0.35766 0.7629 0.02105 0.0
H125 H 0.45349 0.68217 0.98486 0.0
H126 H 1.00367 0.77244 0.21358 0.0
C127 C 0.97345 0.82133 0.21725 0.0
C128 C 1.00578 0.88569 0.19818 0.0
C129 C 0.90005 0.81898 0.23204 0.0
H130 H 0.99269 0.99838 0.19441 0.0
C131 C 0.96619 0.9486 0.20822 0.0
C132 C 0.8916 0.94646 0.20016 0.0
C133 C 0.85825 0.88091 0.21812 0.0
C134 C 0.86817 0.74864 0.25033 0.0
H135 H 0.80128 0.87617 0.21375 0.0
C136 C 0.83518 0.736 0.31981 0.0
C137 C 0.81665 0.66602 0.34257 0.0
C138 C 0.87994 0.69111 0.20256 0.0
H139 H 0.90551 0.69945 0.14892 0.0
C140 C 0.8609 0.62211 0.22439 0.0
H141 H 0.8265 0.78008 0.35713 0.0
C142 C 0.83019 0.60937 0.29423 0.0
H143 H 0.81552 0.55536 0.30967 0.0
H144 H 0.87063 0.57819 0.18729 0.0
H145 H 0.72558 0.37613 0.71368 0.0
C146 C 0.66861 0.38083 0.71805 0.0
C147 C 0.63522 0.44635 0.70009 0.0
C148 C 0.62683 0.31887 0.73197 0.0
H149 H 0.53429 0.49833 0.69441 0.0
C150 C 0.56063 0.44845 0.70818 0.0
C151 C 0.52107 0.38553 0.69813 0.0
C152 C 0.55343 0.32118 0.71718 0.0
C153 C 0.65874 0.24855 0.75027 0.0
H154 H 0.52323 0.27227 0.71351 0.0
C155 C 0.69174 0.23594 0.81974 0.0
C156 C 0.7103 0.16598 0.84252 0.0
C157 C 0.64698 0.191 0.70252 0.0
H158 H 0.62141 0.19931 0.64889 0.0
C159 C 0.66604 0.12201 0.72437 0.0
H160 H 0.70041 0.28004 0.85705 0.0
C161 C 0.69676 0.10931 0.7942 0.0
H162 H 0.71145 0.0553 0.80965 0.0
H163 H 0.65633 0.07808 0.68729 0.0
H164 H 0.72129 0.40215 0.31091 0.0
C165 C 0.67745 0.37737 0.34045 0.0
C166 C 0.66343 0.39531 0.41492 0.0
C167 C 0.62896 0.33438 0.30164 0.0
H168 H 0.59936 0.37308 0.5105 0.0
C169 C 0.60823 0.3607 0.45228 0.0
C170 C 0.5509 0.33749 0.41026 0.0
C171 C 0.56204 0.32091 0.33477 0.0
C172 C 0.64232 0.31644 0.22244 0.0
H173 H 0.51853 0.30126 0.30145 0.0
C174 C 0.69865 0.27096 0.20182 0.0
C175 C 0.70849 0.25324 0.12614 0.0
C176 C 0.59756 0.3447 0.16688 0.0
H177 H 0.55449 0.37995 0.18146 0.0
C178 C 0.6082 0.32819 0.09206 0.0
H179 H 0.73305 0.24819 0.24432 0.0
C180 C 0.66293 0.28259 0.07183 0.0
H181 H 0.66931 0.26958 0.01341 0.0
H182 H 0.57348 0.35032 0.04958 0.0
H183 H 0.22564 0.15623 0.82079 0.0
C184 C 0.16867 0.15152 0.81639 0.0
C185 C 0.13527 0.086 0.83435 0.0
C186 C 0.1269 0.21347 0.80244 0.0
H187 H 0.03433 0.03401 0.84002 0.0
C188 C 0.06069 0.08389 0.82624 0.0
C189 C 1.02112 0.1468 0.83625 0.0
C190 C 0.05349 0.21115 0.81718 0.0
C191 C 0.15881 0.28379 0.78416 0.0
H192 H 1.02329 0.26006 0.82083 0.0
C193 C 0.19177 0.29644 0.71466 0.0
C194 C 0.21031 0.36641 0.69191 0.0
C195 C 0.14708 0.34132 0.83195 0.0
H196 H 0.12153 0.33298 0.8856 0.0
C197 C 0.16613 0.41032 0.81012 0.0
H198 H 0.20041 0.25235 0.67733 0.0
C199 C 0.19681 0.42306 0.74026 0.0
H200 H 0.21149 0.47707 0.72483 0.0
H201 H 0.15644 0.45424 0.84723 0.0
H202 H 0.50372 0.7601 0.321 0.0
C203 C 0.4735 0.71121 0.3173 0.0
C204 C 0.50583 0.64684 0.33637 0.0
C205 C 0.40011 0.71355 0.30247 0.0
H206 H 0.49274 0.53415 0.34008 0.0
C207 C 0.46625 0.58394 0.32628 0.0
C208 C 0.39166 0.58606 0.33432 0.0
C209 C 0.35831 0.65161 0.31637 0.0
C210 C 0.36824 0.78388 0.28416 0.0
H211 H 0.30133 0.65633 0.32071 0.0
C212 C 0.3352 0.79649 0.21471 0.0
C213 C 0.31666 0.86646 0.19194 0.0
C214 C 0.38003 0.84144 0.3319 0.0
H215 H 0.40562 0.83313 0.38552 0.0
C216 C 0.36098 0.91043 0.31005 0.0
H217 H 0.3265 0.75239 0.17742 0.0
C218 C 0.33023 0.92313 0.24024 0.0
H219 H 0.31555 0.97714 0.22479 0.0
H220 H 0.37072 0.95437 0.34713 0.0
H221 H 1.00841 0.80119 0.8016 0.0
C222 C 0.96489 0.82086 0.83489 0.0
C223 C 0.976 0.83752 0.91036 0.0
C224 C 0.89798 0.8343 0.80173 0.0
H225 H 0.92764 0.87307 1.01057 0.0
C226 C 0.91864 0.86073 0.95236 0.0
C227 C 0.86343 0.89527 0.91498 0.0
C228 C 0.84946 0.87729 0.84052 0.0
C229 C 0.88467 0.81632 0.72254 0.0
H230 H 0.80563 0.90204 0.81094 0.0
C231 C 0.8283 0.77089 0.70191 0.0
C232 C 0.81851 0.75311 0.62624 0.0
C233 C 0.92951 0.84448 0.66699 0.0
H234 H 0.97261 0.8797 0.68157 0.0
C235 C 0.91892 0.82792 0.59218 0.0
H236 H 0.79383 0.74818 0.7444 0.0
C237 C 0.86416 0.78236 0.57194 0.0
H238 H 0.85783 0.76932 0.51353 0.0
H239 H 0.95372 0.84998 0.54971 0.0
loop_
_geom_bond_atom_site_label_1
_geom_bond_atom_site_label_2
_geom_bond_distance
_geom_bond_site_symmetry_2
_ccdc_geom_bond_type
Fe0 O2 1.918 . S
Fe0 O5 1.997 . S
Fe0 O6 2.002 . S
Fe0 O11 1.976 1_554 S
Fe0 O14 1.996 1_554 S
Fe1 O2 1.918 . S
Fe1 O9 2.002 . S
Fe1 O12 1.996 1_564 S
Fe1 O16 1.976 1_454 S
Fe1 O19 2.002 1_455 S
O2 Fe0 1.918 . S
O2 Fe1 1.918 . S
O2 Fe3 1.918 . S
Fe3 O2 1.918 . S
Fe3 O4 2.002 . S
Fe3 O13 1.976 1_554 S
Fe3 O17 1.996 1_554 S
Fe3 O20 1.997 . S
O4 Fe3 2.002 . S
O4 C21 1.295 . S
O5 Fe0 1.997 . S
O5 C21 1.235 . S
O6 Fe0 2.002 . S
O6 C7 1.295 1_565 S
C7 O6 1.295 1_545 S
C7 O9 1.235 1_545 S
C8 O13 1.287 . S
C8 O14 1.255 . S
O9 Fe1 2.002 . S
O9 C7 1.235 1_565 S
C10 O16 1.287 . S
C10 O17 1.255 1_655 S
O11 Fe0 1.976 1_556 S
O11 C18 1.287 1_565 S
O12 Fe1 1.996 1_546 S
O12 C18 1.255 . S
O13 Fe3 1.976 1_556 S
O13 C8 1.287 . S
O14 Fe0 1.996 1_556 S
O14 C8 1.255 . S
C15 O19 1.295 . S
C15 O20 1.235 1_655 S
O16 Fe1 1.976 1_656 S
O16 C10 1.287 . S
O17 Fe3 1.996 1_556 S
O17 C10 1.255 1_455 S
C18 O11 1.287 1_545 S
C18 O12 1.255 . S
O19 Fe1 2.002 1_655 S
O19 C15 1.295 . S
O20 Fe3 1.997 . S
O20 C15 1.235 1_455 S
C21 O4 1.295 . S
C21 O5 1.235 . S
Fe22 O24 1.918 . S
Fe22 O27 1.997 . S
Fe22 O28 2.002 . S
Fe22 O33 1.976 . S
Fe22 O36 1.996 . S
Fe23 O24 1.918 . S
Fe23 O31 1.997 . S
Fe23 O34 1.996 . S
Fe23 O38 1.976 . S
Fe23 O41 2.002 . S
O24 Fe22 1.918 . S
O24 Fe23 1.918 . S
O24 Fe25 1.918 . S
Fe25 O24 1.918 . S
Fe25 O26 2.002 . S
Fe25 O35 1.976 . S
Fe25 O39 1.996 . S
Fe25 O42 1.997 . S
O26 Fe25 2.002 . S
O26 C43 1.295 . S
O27 Fe22 1.997 . S
O27 C43 1.235 . S
O28 Fe22 2.002 . S
O28 C29 1.295 . S
C29 O28 1.295 . S
C29 O31 1.235 . S
C30 O35 1.287 . S
C30 O36 1.255 . S
O31 Fe23 1.997 . S
O31 C29 1.235 . S
C32 O38 1.287 . S
C32 O39 1.255 . S
O33 Fe22 1.976 . S
O33 C40 1.287 . S
O34 Fe23 1.996 . S
O34 C40 1.255 . S
O35 Fe25 1.976 . S
O35 C30 1.287 . S
O36 Fe22 1.996 . S
O36 C30 1.255 . S
C37 O41 1.295 . S
C37 O42 1.235 . S
O38 Fe23 1.976 . S
O38 C32 1.287 . S
O39 Fe25 1.996 . S
O39 C32 1.255 . S
C40 O33 1.287 . S
C40 O34 1.255 . S
O41 Fe23 2.002 . S
O41 C37 1.295 . S
O42 Fe25 1.997 . S
O42 C37 1.235 . S
C43 O26 1.295 . S
C43 O27 1.235 . S
Fe44 O46 1.918 . S
Fe44 O49 1.997 1_554 S
Fe44 O50 2.002 1_554 S
Fe44 O55 1.976 . S
Fe44 O58 1.996 . S
Fe45 O46 1.918 . S
Fe45 O53 1.997 1_654 S
Fe45 O56 1.996 1_655 S
Fe45 O60 1.976 1_545 S
Fe45 O63 2.002 1_544 S
O46 Fe44 1.918 . S
O46 Fe45 1.918 . S
O46 Fe47 1.919 . S
Fe47 O46 1.919 . S
Fe47 O48 1.993 1_554 S
Fe47 O57 1.985 . S
Fe47 O61 2.005 . S
Fe47 O64 1.987 1_554 S
O48 Fe47 1.993 1_556 S
O48 C65 1.295 . S
O49 Fe44 1.997 1_556 S
O49 C65 1.235 . S
O50 Fe44 2.002 1_556 S
O50 C51 1.295 1_655 S
C51 O50 1.295 1_455 S
C51 O53 1.235 . S
C52 O57 1.287 . S
C52 O58 1.255 . S
O53 Fe45 1.997 1_456 S
O53 C51 1.235 . S
C54 O60 1.287 . S
C54 O61 1.255 1_565 S
O55 Fe44 1.976 . S
O55 C62 1.287 1_655 S
O56 Fe45 1.996 1_455 S
O56 C62 1.255 . S
O57 Fe47 1.985 . S
O57 C52 1.287 . S
O58 Fe44 1.996 . S
O58 C52 1.255 . S
C59 O63 1.295 . S
C59 O64 1.235 1_565 S
O60 Fe45 1.976 1_565 S
O60 C54 1.287 . S
O61 Fe47 2.005 . S
O61 C54 1.255 1_545 S
C62 O55 1.287 1_455 S
C62 O56 1.255 . S
O63 Fe45 2.002 1_566 S
O63 C59 1.295 . S
O64 Fe47 1.987 1_556 S
O64 C59 1.235 1_545 S
C65 O48 1.295 . S
C65 O49 1.235 . S
Fe66 O68 1.918 . S
Fe66 O71 1.997 . S
Fe66 O72 2.002 . S
Fe66 O77 1.976 . S
Fe66 O80 1.996 . S
Fe67 O68 1.918 . S
Fe67 O75 1.997 . S
Fe67 O78 1.996 . S
Fe67 O82 1.976 . S
Fe67 O85 2.002 . S
O68 Fe66 1.918 . S
O68 Fe67 1.918 . S
O68 Fe69 1.918 . S
Fe69 O68 1.918 . S
Fe69 O70 2.002 . S
Fe69 O79 1.976 . S
Fe69 O83 1.996 . S
Fe69 O86 1.997 . S
O70 Fe69 2.002 . S
O70 C87 1.295 . S
O71 Fe66 1.997 . S
O71 C87 1.235 . S
O72 Fe66 2.002 . S
O72 C73 1.295 . S
C73 O72 1.295 . S
C73 O75 1.235 . S
C74 O79 1.287 . S
C74 O80 1.255 . S
O75 Fe67 1.997 . S
O75 C73 1.235 . S
C76 O82 1.287 . S
C76 O83 1.255 . S
O77 Fe66 1.976 . S
O77 C84 1.287 . S
O78 Fe67 1.996 . S
O78 C84 1.255 . S
O79 Fe69 1.976 . S
O79 C74 1.287 . S
O80 Fe66 1.996 . S
O80 C74 1.255 . S
C81 O85 1.295 . S
C81 O86 1.235 . S
O82 Fe67 1.976 . S
O82 C76 1.287 . S
O83 Fe69 1.996 . S
O83 C76 1.255 . S
C84 O77 1.287 . S
C84 O78 1.255 . S
O85 Fe67 2.002 . S
O85 C81 1.295 . S
O86 Fe69 1.997 . S
O86 C81 1.235 . S
C87 O70 1.295 . S
C87 O71 1.235 . S
H88 C89 0.949 . S
C89 H88 0.949 . S
C89 C90 1.395 . S
C89 C91 1.391 . S
C90 C89 1.395 . S
C90 C93 1.390 . S
C91 C89 1.391 . S
C91 C95 1.387 . S
C91 C96 1.491 . S
H92 C93 0.950 . S
C93 C90 1.390 . S
C93 H92 0.950 . S
C93 C94 1.378 . S
C94 C93 1.378 . S
C94 C95 1.409 . S
C95 C91 1.387 . S
C95 C94 1.409 . S
C95 H97 0.951 . S
C96 C91 1.491 . S
C96 C98 1.382 . S
C96 C100 1.404 . S
H97 C95 0.951 . S
C98 C96 1.382 . S
C98 C99 1.390 . S
C98 H103 0.949 . S
C99 C98 1.390 . S
C99 C104 1.399 . S
C100 C96 1.404 . S
C100 H101 0.950 . S
C100 C102 1.375 . S
H101 C100 0.950 . S
C102 C100 1.375 . S
C102 C104 1.382 . S
C102 H106 0.950 . S
H103 C98 0.949 . S
C104 C99 1.399 . S
C104 C102 1.382 . S
C104 H105 0.952 . S
H105 C104 0.952 . S
H106 C102 0.950 . S
H107 C108 0.949 . S
C108 H107 0.949 . S
C108 C109 1.395 . S
C108 C110 1.391 . S
C109 C108 1.395 . S
C109 C112 1.390 . S
C110 C108 1.391 . S
C110 C114 1.387 . S
C110 C115 1.491 . S
H111 C112 0.950 . S
C112 C109 1.390 . S
C112 H111 0.950 . S
C112 C113 1.378 . S
C113 C112 1.378 . S
C113 C114 1.409 . S
C114 C110 1.387 . S
C114 C113 1.409 . S
C114 H116 0.951 . S
C115 C110 1.491 . S
C115 C117 1.382 . S
C115 C119 1.404 . S
H116 C114 0.951 . S
C117 C115 1.382 . S
C117 C118 1.390 . S
C117 H122 0.949 . S
C118 C117 1.390 . S
C118 C123 1.399 . S
C119 C115 1.404 . S
C119 H120 0.950 . S
C119 C121 1.375 . S
H120 C119 0.950 . S
C121 C119 1.375 . S
C121 C123 1.382 . S
C121 H125 0.950 . S
H122 C117 0.949 . S
C123 C118 1.399 . S
C123 C121 1.382 . S
C123 H124 0.952 . S
H124 C123 0.952 . S
H125 C121 0.950 . S
H126 C127 0.949 . S
C127 H126 0.949 . S
C127 C128 1.395 . S
C127 C129 1.391 . S
C128 C127 1.395 . S
C128 C131 1.390 . S
C129 C127 1.391 . S
C129 C133 1.387 . S
C129 C134 1.491 . S
H130 C131 0.950 . S
C131 C128 1.390 . S
C131 H130 0.950 . S
C131 C132 1.378 . S
C132 C131 1.378 . S
C132 C133 1.409 . S
C133 C129 1.387 . S
C133 C132 1.409 . S
C133 H135 0.951 . S
C134 C129 1.491 . S
C134 C136 1.382 . S
C134 C138 1.404 . S
H135 C133 0.951 . S
C136 C134 1.382 . S
C136 C137 1.390 . S
C136 H141 0.949 . S
C137 C136 1.390 . S
C137 C142 1.399 . S
C138 C134 1.404 . S
C138 H139 0.950 . S
C138 C140 1.375 . S
H139 C138 0.950 . S
C140 C138 1.375 . S
C140 C142 1.382 . S
C140 H144 0.950 . S
H141 C136 0.949 . S
C142 C137 1.399 . S
C142 C140 1.382 . S
C142 H143 0.952 . S
H143 C142 0.952 . S
H144 C140 0.950 . S
H145 C146 0.949 . S
C146 H145 0.949 . S
C146 C147 1.395 . S
C146 C148 1.391 . S
C147 C146 1.395 . S
C147 C150 1.390 . S
C148 C146 1.391 . S
C148 C152 1.387 . S
C148 C153 1.491 . S
H149 C150 0.950 . S
C150 C147 1.390 . S
C150 H149 0.950 . S
C150 C151 1.378 . S
C151 C150 1.378 . S
C151 C152 1.409 . S
C152 C148 1.387 . S
C152 C151 1.409 . S
C152 H154 0.951 . S
C153 C148 1.491 . S
C153 C155 1.382 . S
C153 C157 1.404 . S
H154 C152 0.951 . S
C155 C153 1.382 . S
C155 C156 1.390 . S
C155 H160 0.949 . S
C156 C155 1.390 . S
C156 C161 1.399 . S
C157 C153 1.404 . S
C157 H158 0.950 . S
C157 C159 1.375 . S
H158 C157 0.950 . S
C159 C157 1.375 . S
C159 C161 1.382 . S
C159 H163 0.950 . S
H160 C155 0.949 . S
C161 C156 1.399 . S
C161 C159 1.382 . S
C161 H162 0.952 . S
H162 C161 0.952 . S
H163 C159 0.950 . S
H164 C165 0.949 . S
C165 H164 0.949 . S
C165 C166 1.395 . S
C165 C167 1.391 . S
C166 C165 1.395 . S
C166 C169 1.390 . S
C167 C165 1.391 . S
C167 C171 1.387 . S
C167 C172 1.491 . S
H168 C169 0.950 . S
C169 C166 1.390 . S
C169 H168 0.950 . S
C169 C170 1.378 . S
C170 C169 1.378 . S
C170 C171 1.409 . S
C171 C167 1.387 . S
C171 C170 1.409 . S
C171 H173 0.951 . S
C172 C167 1.491 . S
C172 C174 1.382 . S
C172 C176 1.404 . S
H173 C171 0.951 . S
C174 C172 1.382 . S
C174 C175 1.390 . S
C174 H179 0.949 . S
C175 C174 1.390 . S
C175 C180 1.399 . S
C176 C172 1.404 . S
C176 H177 0.950 . S
C176 C178 1.375 . S
H177 C176 0.950 . S
C178 C176 1.375 . S
C178 C180 1.382 . S
C178 H182 0.950 . S
H179 C174 0.949 . S
C180 C175 1.399 . S
C180 C178 1.382 . S
C180 H181 0.952 . S
H181 C180 0.952 . S
H182 C178 0.950 . S
H183 C184 0.949 . S
C184 H183 0.949 . S
C184 C185 1.395 . S
C184 C186 1.391 . S
C185 C184 1.395 . S
C185 C188 1.390 . S
C186 C184 1.391 . S
C186 C190 1.387 . S
C186 C191 1.491 . S
H187 C188 0.950 . S
C188 C185 1.390 . S
C188 H187 0.950 . S
C188 C189 1.378 . S
C189 C188 1.378 . S
C189 C190 1.409 . S
C190 C186 1.387 . S
C190 C189 1.409 . S
C190 H192 0.951 . S
C191 C186 1.491 . S
C191 C193 1.382 . S
C191 C195 1.404 . S
H192 C190 0.951 . S
C193 C191 1.382 . S
C193 C194 1.390 . S
C193 H198 0.949 . S
C194 C193 1.390 . S
C194 C199 1.399 . S
C195 C191 1.404 . S
C195 H196 0.950 . S
C195 C197 1.375 . S
H196 C195 0.950 . S
C197 C195 1.375 . S
C197 C199 1.382 . S
C197 H201 0.950 . S
H198 C193 0.949 . S
C199 C194 1.399 . S
C199 C197 1.382 . S
C199 H200 0.952 . S
H200 C199 0.952 . S
H201 C197 0.950 . S
H202 C203 0.949 . S
C203 H202 0.949 . S
C203 C204 1.395 . S
C203 C205 1.391 . S
C204 C203 1.395 . S
C204 C207 1.390 . S
C205 C203 1.391 . S
C205 C209 1.387 . S
C205 C210 1.491 . S
H206 C207 0.950 . S
C207 C204 1.390 . S
C207 H206 0.950 . S
C207 C208 1.378 . S
C208 C207 1.378 . S
C208 C209 1.409 . S
C209 C205 1.387 . S
C209 C208 1.409 . S
C209 H211 0.951 . S
C210 C205 1.491 . S
C210 C212 1.382 . S
C210 C214 1.404 . S
H211 C209 0.951 . S
C212 C210 1.382 . S
C212 C213 1.390 . S
C212 H217 0.949 . S
C213 C212 1.390 . S
C213 C218 1.399 . S
C214 C210 1.404 . S
C214 H215 0.950 . S
C214 C216 1.375 . S
H215 C214 0.950 . S
C216 C214 1.375 . S
C216 C218 1.382 . S
C216 H220 0.950 . S
H217 C212 0.949 . S
C218 C213 1.399 . S
C218 C216 1.382 . S
C218 H219 0.952 . S
H219 C218 0.952 . S
H220 C216 0.950 . S
H221 C222 0.949 . S
C222 H221 0.949 . S
C222 C223 1.395 . S
C222 C224 1.391 . S
C223 C222 1.395 . S
C223 C226 1.390 . S
C224 C222 1.391 . S
C224 C228 1.387 . S
C224 C229 1.491 . S
H225 C226 0.950 . S
C226 C223 1.390 . S
C226 H225 0.950 . S
C226 C227 1.378 . S
C227 C226 1.378 . S
C227 C228 1.409 . S
C228 C224 1.387 . S
C228 C227 1.409 . S
C228 H230 0.951 . S
C229 C224 1.491 . S
C229 C231 1.382 . S
C229 C233 1.404 . S
H230 C228 0.951 . S
C231 C229 1.382 . S
C231 C232 1.390 . S
C231 H236 0.949 . S
C232 C231 1.390 . S
C232 C237 1.399 . S
C233 C229 1.404 . S
C233 H234 0.950 . S
C233 C235 1.375 . S
H234 C233 0.950 . S
C235 C233 1.375 . S
C235 C237 1.382 . S
C235 H239 0.950 . S
H236 C231 0.949 . S
C237 C232 1.399 . S
C237 C235 1.382 . S
C237 H238 0.952 . S
H238 C237 0.952 . S
H239 C235 0.950 . S
C7 C90 1.419 . S
C37 C109 1.491 . S
C54 C132 1.094 . S
C151 C87 1.106 . S
C166 C30 1.376 . S
C51 C189 1.096 . S
C84 C208 1.108 . S
C10 C223 1.473 . S
C59 C227 1.192 . S
C170 C74 1.032 . S
C185 C18 1.364 . S
C32 C204 1.486 . S
C113 C73 1.200 . S
C15 C128 1.490 . S
C147 C43 1.397 . S
C94 C62 1.062 . S
C213 C21 1.379 . S
C232 C29 1.304 . S
C52 C175 1.145 . S
C194 C81 1.311 . S
C137 C40 1.323 . S
C65 C156 1.313 . S
C99 C76 1.170 . S
C118 C8 1.334 . S
