# Generated by pormake.
# Topology ftw, (4,12)-cn, num edge types: 1
# Building blocks:
#     Node 0, Type 0, BuildingBlock: MIFKUJ_clean_linker_1, # of connection points: 4
#     Node 1, Type 0, BuildingBlock: MIFKUJ_clean_linker_1, # of connection points: 4
#     Node 2, Type 0, BuildingBlock: MIFKUJ_clean_linker_1, # of connection points: 4
#     Node 3, Type 1, BuildingBlock: QEWDON_clean_sbu_0, # of connection points: 12
#     Edge 4, Type (0, 1), None
#     Edge 5, Type (0, 1), None
#     Edge 6, Type (0, 1), None
#     Edge 7, Type (0, 1), None
#     Edge 8, Type (0, 1), None
#     Edge 9, Type (0, 1), None
#     Edge 10, Type (0, 1), None
#     Edge 11, Type (0, 1), None
#     Edge 12, Type (0, 1), None
#     Edge 13, Type (0, 1), None
#     Edge 14, Type (0, 1), None
#     Edge 15, Type (0, 1), None
# Relax obj value: 0.076
# Max RMSD: 0.184
# Mean RMSD: 0.144
data_MOF--net-ftw--node1-QEWDON_clean_sbu_0--node2-MIFKUJ_clean_linker_1--edge1-none
_symmetry_space_group_name_H-M    P1
_symmetry_Int_Tables_number       1
_symmetry_cell_setting            triclinic
loop_
_symmetry_equiv_pos_as_xyz
'x, y, z'
_cell_length_a     16.458307
_cell_length_b     18.280325
_cell_length_c     16.130287
_cell_angle_alpha  89.178508
_cell_angle_beta   88.950221
_cell_angle_gamma 90.390352
loop_
_atom_site_label
_atom_site_type_symbol
_atom_site_fract_x
_atom_site_fract_y
_atom_site_fract_z
_atom_type_partial_charge
H0 H 0.11267 0.57515 0.6637 0.0
H1 H 0.13998 0.67282 0.76037 0.0
H2 H 0.91862 0.78053 0.68833 0.0
H3 H 0.89122 0.68131 0.59129 0.0
H4 H -0.01033 0.48474 0.67853 0.0
H5 H 0.09321 0.64832 0.47782 0.0
H6 H 0.12157 0.74815 0.38104 0.0
H7 H 0.88577 0.71898 0.27237 0.0
H8 H 0.8563 0.61898 0.37238 0.0
H9 H 0.80117 0.37586 0.42169 0.0
H10 H 0.78238 0.2734 0.32803 0.0
H11 H 0.03781 0.22255 0.34424 0.0
H12 H 0.05534 0.3244 0.44013 0.0
H13 H 0.93031 0.49394 0.37866 0.0
H14 H 0.83131 0.32919 0.59694 0.0
H15 H 0.81862 0.2303 0.70011 0.0
H16 H 0.06966 0.26258 0.76571 0.0
H17 H 0.08167 0.36158 0.66242 0.0
C18 C -0.00023 0.62059 0.62026 0.0
C19 C 0.07026 0.62008 0.668 0.0
C20 C 0.08568 0.67604 0.72359 0.0
C21 C 0.03097 0.7342 0.73304 0.0
C22 C 0.96187 0.7364 0.68281 0.0
C23 C 0.94636 0.67998 0.62691 0.0
C24 C -0.02092 0.55504 0.5709 0.0
C25 C -0.02223 0.48693 0.61258 0.0
C26 C 0.96095 0.5582 0.48519 0.0
C27 C -0.02786 0.6262 0.43371 0.0
C28 C 0.04611 0.66462 0.43548 0.0
C29 C 0.06265 0.72149 0.37898 0.0
C30 C 0.00618 0.74125 0.31817 0.0
C31 C 0.93047 0.70522 0.31838 0.0
C32 C 0.91379 0.64792 0.37545 0.0
C33 C 0.92944 0.35741 0.43795 0.0
C34 C 0.85268 0.34173 0.40626 0.0
C35 C 0.8422 0.28307 0.35272 0.0
C36 C 0.9088 0.23994 0.32818 0.0
C37 C -0.01462 0.25474 0.36174 0.0
C38 C -0.00456 0.31271 0.41668 0.0
C39 C 0.94222 0.42453 0.48656 0.0
C40 C 0.94162 0.49263 0.44472 0.0
C41 C 0.96036 0.42166 0.57168 0.0
C42 C 0.95748 0.35271 0.62167 0.0
C43 C 0.88425 0.31358 0.63179 0.0
C44 C 0.87695 0.25741 0.69144 0.0
C45 C 0.94287 0.23907 0.74199 0.0
C46 C 0.01761 0.27537 0.72815 0.0
C47 C 0.02462 0.33195 0.66897 0.0
H48 H 0.41444 0.09082 0.35155 0.0
H49 H 0.30571 0.10937 0.25272 0.0
H50 H 0.21428 0.89163 0.30602 0.0
H51 H 0.32294 0.87343 0.40628 0.0
H52 H 0.31794 0.96855 0.5385 0.0
H53 H 0.61093 0.09699 0.39571 0.0
H54 H 0.722 0.07807 0.29494 0.0
H55 H 0.63745 0.85701 0.25927 0.0
H56 H 0.52652 0.8763 0.35847 0.0
H57 H 0.62049 0.87995 0.6306 0.0
H58 H 0.71813 0.86399 0.73954 0.0
H59 H 0.61225 0.04501 0.87184 0.0
H60 H 0.51587 0.06368 0.75832 0.0
H61 H 0.61687 -0.00193 0.53473 0.0
H62 H 0.43348 0.89792 0.76156 0.0
H63 H 0.34252 0.90681 0.88357 0.0
H64 H 0.2023 0.07069 0.75588 0.0
H65 H 0.29647 0.06752 0.63906 0.0
C66 C 0.37669 -0.01916 0.38611 0.0
C67 C 0.37298 0.04601 0.33976 0.0
C68 C 0.3103 0.05677 0.28408 0.0
C69 C 0.25111 0.00214 0.27295 0.0
C70 C 0.25919 0.93431 0.31341 0.0
C71 C 0.32128 0.92396 0.37045 0.0
C72 C 0.42551 0.97911 0.46198 0.0
C73 C 0.38362 0.97436 0.53829 0.0
C74 C 0.51016 -0.00935 0.46084 0.0
C75 C 0.56034 -0.01193 0.38409 0.0
C76 C 0.61473 0.04546 0.36357 0.0
C77 C 0.6784 0.03464 0.30632 0.0
C78 C 0.68937 0.96587 0.27058 0.0
C79 C 0.63119 0.91044 0.28683 0.0
C80 C 0.56702 0.92159 0.34268 0.0
C81 C 0.56098 0.97308 0.68609 0.0
C82 C 0.61823 0.91666 0.68277 0.0
C83 C 0.67451 0.90786 0.74499 0.0
C84 C 0.674 0.95423 0.8135 0.0
C85 C 0.61469 0.00921 0.81904 0.0
C86 C 0.55912 0.01938 0.75488 0.0
C87 C 0.50987 -0.01511 0.61266 0.0
C88 C 0.55105 -0.00671 0.53601 0.0
C89 C 0.42402 0.97883 0.61416 0.0
C90 C 0.37268 -0.0174 0.69085 0.0
C91 C 0.38434 0.93695 0.76059 0.0
C92 C 0.33141 0.94088 0.82966 0.0
C93 C 0.26402 -0.0123 0.82802 0.0
C94 C 0.25237 0.03254 0.75811 0.0
C95 C 0.30665 0.03094 0.69126 0.0
H96 H 0.6476 0.55675 0.89715 0.0
H97 H 0.76526 0.63884 0.90555 0.0
H98 H 0.71833 0.66147 0.16894 0.0
H99 H 0.60056 0.58058 0.1591 0.0
H100 H 0.60968 0.42156 1.0027 0.0
H101 H 0.4709 0.65678 0.91527 0.0
H102 H 0.39876 0.77305 0.92185 0.0
H103 H 0.3492 0.73477 0.18307 0.0
H104 H 0.42021 0.61834 0.17524 0.0
H105 H 0.28707 0.41519 0.14046 0.0
H106 H 0.17163 0.33065 0.14505 0.0
H107 H 0.23817 0.25553 0.89987 0.0
H108 H 0.35318 0.34054 0.89602 0.0
H109 H 0.33469 0.52705 0.03898 0.0
H110 H 0.48224 0.30882 0.14459 0.0
H111 H 0.55998 0.19587 0.1551 0.0
H112 H 0.59342 0.19791 0.88836 0.0
H113 H 0.51834 0.31192 0.87943 0.0
C114 C 0.61488 0.56474 1.02711 0.0
C115 C 0.6636 0.57904 0.95661 0.0
C116 C 0.73106 0.62526 0.96177 0.0
C117 C 0.75088 0.65698 0.03782 0.0
C118 C 0.70494 0.63792 0.10943 0.0
C119 C 0.63702 0.59257 0.10388 0.0
C120 C 0.54111 0.51987 1.02117 0.0
C121 C 0.54934 0.44474 1.00891 0.0
C122 C 0.46328 0.54978 0.03336 0.0
C123 C 0.44952 0.62879 0.04447 0.0
C124 C 0.44785 0.67524 0.97469 0.0
C125 C 0.40657 0.74174 0.97866 0.0
C126 C 0.3664 0.76226 0.05252 0.0
C127 C 0.37894 0.72056 0.1251 0.0
C128 C 0.41932 0.65369 0.12077 0.0
C129 C 0.32949 0.38239 1.01887 0.0
C130 C 0.27584 0.38121 0.08732 0.0
C131 C 0.20974 0.33317 0.0896 0.0
C132 C 0.19626 0.28587 1.02318 0.0
C133 C 0.24694 0.2911 0.95215 0.0
C134 C 0.31329 0.33888 0.95021 0.0
C135 C 0.40303 0.4285 1.01974 0.0
C136 C 0.39488 0.50384 1.03153 0.0
C137 C 0.48115 0.39847 1.00989 0.0
C138 C 0.49606 0.319 1.01141 0.0
C139 C 0.50324 0.2829 0.08821 0.0
C140 C 0.5478 0.21824 0.09406 0.0
C141 C 0.58568 0.18931 1.02296 0.0
C142 C 0.56672 0.21947 0.94476 0.0
C143 C 0.52351 0.28473 0.93922 0.0
Zn144 Zn 0.07366 0.08051 0.97051 0.0
Zn145 Zn 0.05899 0.12145 0.16223 0.0
O146 O 0.02896 0.0438 0.08181 0.0
H147 H 0.01523 -0.00618 0.09631 0.0
C148 C 0.93158 0.1872 0.81311 0.0
O149 O -0.00634 0.1671 0.85778 0.0
Zn150 Zn 0.87359 0.84117 0.14905 0.0
Zn151 Zn 0.86979 0.85551 0.94902 0.0
O152 O 0.89072 0.91117 0.05334 0.0
H153 H 0.88717 0.96379 0.05431 0.0
Zn154 Zn 0.822 0.10971 0.94355 0.0
O155 O 0.88349 0.1176 0.0529 0.0
Zn156 Zn 0.80005 0.10116 0.14455 0.0
H157 H 0.86152 0.1149 0.99794 0.0
Zn158 Zn 0.14397 0.84616 0.94515 0.0
O159 O 0.07309 0.85922 0.04924 0.0
H160 H 0.10047 0.85278 0.99644 0.0
Zn161 Zn 0.14831 0.87048 0.14571 0.0
C162 C 0.04572 0.7904 0.79684 0.0
O163 O -0.00052 0.84848 0.80243 0.0
O164 O 0.12925 0.18069 0.9736 0.0
O165 O 0.11265 0.20789 0.10616 0.0
O166 O 0.82611 0.75213 0.97183 0.0
O167 O 0.82341 0.74775 0.10956 0.0
O168 O 0.70199 0.13354 0.96541 0.0
O169 O 0.68945 0.13364 0.10292 0.0
C170 C 0.17752 0.02085 0.22703 0.0
O171 O 0.25858 0.81481 0.97951 0.0
O172 O 0.26118 0.83234 0.11575 0.0
O173 O 0.79696 0.90443 0.86225 0.0
C174 C 0.13936 0.22377 0.03363 0.0
O175 O 0.13626 0.01639 0.88733 0.0
C176 C 0.76396 0.94747 0.2232 0.0
O177 O 0.8602 0.16824 0.83647 0.0
C178 C 0.80769 0.71955 0.03984 0.0
O179 O 0.10312 0.78134 0.84775 0.0
C180 C 0.89869 0.18357 0.2637 0.0
O181 O 0.14827 0.08461 0.23461 0.0
O182 O 0.14191 0.97601 0.18019 0.0
C183 C 0.65987 0.14436 1.03102 0.0
O184 O 0.78856 0.88173 0.22594 0.0
O185 O 0.80339 -0.00623 0.17823 0.0
C186 C 0.03178 0.79388 0.2514 0.0
O187 O 0.82764 0.16569 0.24136 0.0
O188 O 0.95993 0.15907 0.22392 0.0
C189 C 0.29502 0.81096 0.04842 0.0
O190 O 0.10699 0.80779 0.24124 0.0
O191 O -0.01685 0.82262 0.2 0.0
C192 C 0.73398 0.94182 0.87902 0.0
O193 O 0.71729 0.95921 0.95618 0.0
C194 C 0.20869 -0.00423 0.90012 0.0
O195 O 0.23881 0.00129 0.97462 0.0
loop_
_geom_bond_atom_site_label_1
_geom_bond_atom_site_label_2
_geom_bond_distance
_geom_bond_site_symmetry_2
_ccdc_geom_bond_type
H0 C19 0.949 . S
H1 C20 0.950 . S
H2 C22 0.950 . S
H3 C23 0.950 . S
H4 C25 0.950 . S
H5 C28 0.950 . S
H6 C29 0.950 . S
H7 C31 0.951 . S
H8 C32 0.949 . S
H9 C34 0.949 . S
H10 C35 0.950 . S
H11 C37 0.950 . S
H12 C38 0.950 . S
H13 C40 0.950 . S
H14 C43 0.950 . S
H15 C44 0.950 . S
H16 C46 0.951 . S
H17 C47 0.949 . S
C18 C19 1.376 . S
C18 C23 1.386 1_455 S
C18 C24 1.483 . S
C19 H0 0.949 . S
C19 C18 1.376 . S
C19 C20 1.397 . S
C20 H1 0.950 . S
C20 C19 1.397 . S
C20 C21 1.391 . S
C21 C20 1.391 . S
C21 C22 1.405 1_455 S
C22 H2 0.950 . S
C22 C21 1.405 1_655 S
C22 C23 1.367 . S
C23 H3 0.950 . S
C23 C18 1.386 1_655 S
C23 C22 1.367 . S
C24 C18 1.483 . S
C24 C25 1.382 . S
C24 C26 1.403 1_455 S
C25 H4 0.950 . S
C25 C24 1.382 . S
C25 C41 1.411 . S
C26 C24 1.403 1_655 S
C26 C27 1.489 . S
C26 C40 1.411 . S
C27 C26 1.489 . S
C27 C28 1.383 1_655 S
C27 C32 1.382 . S
C28 H5 0.950 . S
C28 C27 1.383 1_455 S
C28 C29 1.395 . S
C29 H6 0.950 . S
C29 C28 1.395 . S
C29 C30 1.288 1_455 S
C30 C29 1.288 1_655 S
C30 C31 1.392 . S
C31 H7 0.951 . S
C31 C30 1.392 . S
C31 C32 1.392 . S
C32 H8 0.949 . S
C32 C27 1.382 . S
C32 C31 1.392 . S
C33 C34 1.376 . S
C33 C38 1.386 1_655 S
C33 C39 1.483 . S
C34 H9 0.949 . S
C34 C33 1.376 . S
C34 C35 1.397 . S
C35 H10 0.950 . S
C35 C34 1.397 . S
C35 C36 1.391 . S
C36 C35 1.391 . S
C36 C37 1.405 1_655 S
C37 H11 0.950 . S
C37 C36 1.405 1_455 S
C37 C38 1.367 . S
C38 H12 0.950 . S
C38 C33 1.386 1_455 S
C38 C37 1.367 . S
C39 C33 1.483 . S
C39 C40 1.382 . S
C39 C41 1.403 1_655 S
C40 H13 0.950 . S
C40 C26 1.411 . S
C40 C39 1.382 . S
C41 C25 1.411 . S
C41 C39 1.403 1_455 S
C41 C42 1.489 . S
C42 C41 1.489 . S
C42 C43 1.383 1_455 S
C42 C47 1.382 . S
C43 H14 0.950 . S
C43 C42 1.383 1_655 S
C43 C44 1.395 . S
C44 H15 0.950 . S
C44 C43 1.395 . S
C44 C45 1.288 1_655 S
C45 C44 1.288 1_455 S
C45 C46 1.392 . S
C46 H16 0.951 . S
C46 C45 1.392 . S
C46 C47 1.392 . S
C47 H17 0.949 . S
C47 C42 1.382 . S
C47 C46 1.392 . S
H48 C67 0.949 . S
H49 C68 0.950 . S
H50 C70 0.950 . S
H51 C71 0.950 . S
H52 C73 0.950 . S
H53 C76 0.950 . S
H54 C77 0.950 . S
H55 C79 0.951 . S
H56 C80 0.949 . S
H57 C82 0.949 . S
H58 C83 0.950 . S
H59 C85 0.950 . S
H60 C86 0.950 . S
H61 C88 0.950 . S
H62 C91 0.950 . S
H63 C92 0.950 . S
H64 C94 0.951 . S
H65 C95 0.949 . S
C66 C67 1.376 . S
C66 C71 1.386 1_545 S
C66 C72 1.483 . S
C67 H48 0.949 . S
C67 C66 1.376 . S
C67 C68 1.397 . S
C68 H49 0.950 . S
C68 C67 1.397 . S
C68 C69 1.391 . S
C69 C68 1.391 . S
C69 C70 1.405 1_545 S
C70 H50 0.950 . S
C70 C69 1.405 1_565 S
C70 C71 1.367 . S
C71 H51 0.950 . S
C71 C66 1.386 1_565 S
C71 C70 1.367 . S
C72 C66 1.483 . S
C72 C73 1.382 . S
C72 C74 1.403 1_545 S
C73 H52 0.950 . S
C73 C72 1.382 . S
C73 C89 1.411 . S
C74 C72 1.403 1_565 S
C74 C75 1.489 . S
C74 C88 1.411 . S
C75 C74 1.489 . S
C75 C76 1.383 1_565 S
C75 C80 1.382 . S
C76 H53 0.950 . S
C76 C75 1.383 1_545 S
C76 C77 1.395 . S
C77 H54 0.950 . S
C77 C76 1.395 . S
C77 C78 1.288 1_545 S
C78 C77 1.288 1_565 S
C78 C79 1.392 . S
C79 H55 0.951 . S
C79 C78 1.392 . S
C79 C80 1.392 . S
C80 H56 0.949 . S
C80 C75 1.382 . S
C80 C79 1.392 . S
C81 C82 1.376 . S
C81 C86 1.386 1_565 S
C81 C87 1.483 . S
C82 H57 0.949 . S
C82 C81 1.376 . S
C82 C83 1.397 . S
C83 H58 0.950 . S
C83 C82 1.397 . S
C83 C84 1.391 . S
C84 C83 1.391 . S
C84 C85 1.405 1_565 S
C85 H59 0.950 . S
C85 C84 1.405 1_545 S
C85 C86 1.367 . S
C86 H60 0.950 . S
C86 C81 1.386 1_545 S
C86 C85 1.367 . S
C87 C81 1.483 . S
C87 C88 1.382 . S
C87 C89 1.403 1_565 S
C88 H61 0.950 . S
C88 C74 1.411 . S
C88 C87 1.382 . S
C89 C73 1.411 . S
C89 C87 1.403 1_545 S
C89 C90 1.489 . S
C90 C89 1.489 . S
C90 C91 1.383 1_545 S
C90 C95 1.382 . S
C91 H62 0.950 . S
C91 C90 1.383 1_565 S
C91 C92 1.395 . S
C92 H63 0.950 . S
C92 C91 1.395 . S
C92 C93 1.288 1_565 S
C93 C92 1.288 1_545 S
C93 C94 1.392 . S
C94 H64 0.951 . S
C94 C93 1.392 . S
C94 C95 1.392 . S
C95 H65 0.949 . S
C95 C90 1.382 . S
C95 C94 1.392 . S
H96 C115 0.949 . S
H97 C116 0.950 . S
H98 C118 0.950 . S
H99 C119 0.950 . S
H100 C121 0.950 . S
H101 C124 0.950 . S
H102 C125 0.950 . S
H103 C127 0.951 . S
H104 C128 0.949 . S
H105 C130 0.949 . S
H106 C131 0.950 . S
H107 C133 0.950 . S
H108 C134 0.950 . S
H109 C136 0.950 . S
H110 C139 0.950 . S
H111 C140 0.950 . S
H112 C142 0.951 . S
H113 C143 0.949 . S
C114 C115 1.370 1_554 S
C114 C119 1.392 . S
C114 C120 1.483 . S
C115 H96 0.949 . S
C115 C114 1.370 1_556 S
C115 C116 1.397 . S
C116 H97 0.950 . S
C116 C115 1.397 . S
C116 C117 1.391 1_556 S
C117 C116 1.391 1_554 S
C117 C118 1.405 . S
C118 H98 0.950 . S
C118 C117 1.405 . S
C118 C119 1.367 . S
C119 H99 0.950 . S
C119 C114 1.392 . S
C119 C118 1.367 . S
C120 C114 1.483 . S
C120 C121 1.381 1_554 S
C120 C122 1.405 . S
C121 H100 0.950 . S
C121 C120 1.381 1_556 S
C121 C137 1.411 1_556 S
C122 C120 1.405 . S
C122 C123 1.489 . S
C122 C136 1.411 . S
C123 C122 1.489 . S
C123 C124 1.383 1_554 S
C123 C128 1.382 . S
C124 H101 0.950 . S
C124 C123 1.383 1_556 S
C124 C125 1.395 . S
C125 H102 0.950 . S
C125 C124 1.395 . S
C125 C126 1.288 1_556 S
C126 C125 1.288 1_554 S
C126 C127 1.392 . S
C127 H103 0.951 . S
C127 C126 1.392 . S
C127 C128 1.392 . S
C128 H104 0.949 . S
C128 C123 1.382 . S
C128 C127 1.392 . S
C129 C130 1.376 . S
C129 C134 1.386 1_554 S
C129 C135 1.483 . S
C130 H105 0.949 . S
C130 C129 1.376 . S
C130 C131 1.397 . S
C131 H106 0.950 . S
C131 C130 1.397 . S
C131 C132 1.391 . S
C132 C131 1.391 . S
C132 C133 1.405 1_554 S
C133 H107 0.950 . S
C133 C132 1.405 1_556 S
C133 C134 1.367 . S
C134 H108 0.950 . S
C134 C129 1.386 1_556 S
C134 C133 1.367 . S
C135 C129 1.483 . S
C135 C136 1.382 . S
C135 C137 1.403 . S
C136 H109 0.950 . S
C136 C122 1.411 . S
C136 C135 1.382 . S
C137 C121 1.411 1_554 S
C137 C135 1.403 . S
C137 C138 1.489 1_554 S
C138 C137 1.489 1_556 S
C138 C139 1.383 1_556 S
C138 C143 1.382 . S
C139 H110 0.950 . S
C139 C138 1.383 1_554 S
C139 C140 1.395 . S
C140 H111 0.950 . S
C140 C139 1.395 . S
C140 C141 1.281 1_554 S
C141 C140 1.281 1_556 S
C141 C142 1.399 . S
C142 H112 0.951 . S
C142 C141 1.399 . S
C142 C143 1.392 . S
C143 H113 0.949 . S
C143 C138 1.382 . S
C143 C142 1.392 . S
Zn144 O146 1.933 1_556 S
Zn144 O164 1.985 . S
Zn144 O175 1.955 . S
Zn145 O146 1.911 . S
Zn145 O165 1.970 . S
Zn145 O181 1.945 . S
Zn145 O188 1.981 . S
O146 Zn144 1.933 1_554 S
O146 Zn145 1.911 . S
O146 H147 0.841 1_554 S
H147 O146 0.841 1_556 S
C148 O149 1.246 . S
C148 O177 1.276 1_455 S
O149 C148 1.246 . S
Zn150 O152 1.911 . S
Zn150 O167 1.970 . S
Zn150 O184 1.945 . S
Zn150 O191 1.981 . S
Zn151 O152 1.933 1_556 S
Zn151 O166 1.985 . S
Zn151 O173 1.955 . S
O152 Zn150 1.911 . S
O152 Zn151 1.933 1_554 S
O152 H153 0.841 1_554 S
H153 O152 0.841 1_556 S
Zn154 O155 1.933 1_556 S
Zn154 O168 1.985 . S
Zn154 O177 1.955 . S
O155 Zn154 1.933 1_554 S
O155 Zn156 1.911 . S
O155 H157 0.841 1_554 S
Zn156 O155 1.911 . S
Zn156 O169 1.970 . S
Zn156 O185 1.981 . S
Zn156 O187 1.945 . S
H157 O155 0.841 1_556 S
Zn158 O159 1.933 1_556 S
Zn158 O171 1.985 . S
Zn158 O179 1.955 . S
O159 Zn158 1.933 1_554 S
O159 H160 0.841 1_554 S
O159 Zn161 1.911 . S
H160 O159 0.841 1_556 S
Zn161 O159 1.911 . S
Zn161 O172 1.970 . S
Zn161 O182 1.981 . S
Zn161 O190 1.945 . S
C162 O163 1.246 . S
C162 O179 1.276 1_655 S
O163 C162 1.246 . S
O164 Zn144 1.985 . S
O164 C174 1.245 1_556 S
O165 Zn145 1.970 . S
O165 C174 1.263 . S
O166 Zn151 1.985 . S
O166 C178 1.245 1_556 S
O167 Zn150 1.970 . S
O167 C178 1.263 . S
O168 Zn154 1.985 . S
O168 C183 1.245 1_556 S
O169 Zn156 1.970 . S
O169 C183 1.263 . S
C170 O181 1.266 . S
C170 O182 1.242 1_545 S
O171 Zn158 1.985 . S
O171 C189 1.245 1_556 S
O172 Zn161 1.970 . S
O172 C189 1.263 . S
O173 Zn151 1.955 . S
O173 C192 1.276 1_565 S
C174 O164 1.245 1_554 S
C174 O165 1.263 . S
O175 Zn144 1.955 . S
O175 C194 1.276 1_545 S
C176 O184 1.261 . S
C176 O185 1.245 1_565 S
O177 C148 1.276 1_655 S
O177 Zn154 1.955 . S
C178 O166 1.245 1_554 S
C178 O167 1.263 . S
O179 Zn158 1.955 . S
O179 C162 1.276 1_455 S
C180 O187 1.262 1_455 S
C180 O188 1.245 . S
O181 Zn145 1.945 . S
O181 C170 1.266 . S
O182 Zn161 1.981 . S
O182 C170 1.242 1_565 S
C183 O168 1.245 1_554 S
C183 O169 1.263 . S
O184 Zn150 1.945 . S
O184 C176 1.261 . S
O185 Zn156 1.981 . S
O185 C176 1.245 1_545 S
C186 O190 1.264 . S
C186 O191 1.243 1_455 S
O187 Zn156 1.945 . S
O187 C180 1.262 1_655 S
O188 Zn145 1.981 . S
O188 C180 1.245 . S
C189 O171 1.245 1_554 S
C189 O172 1.263 . S
O190 Zn161 1.945 . S
O190 C186 1.264 . S
O191 Zn150 1.981 . S
O191 C186 1.243 1_655 S
C192 O173 1.276 1_545 S
C192 O193 1.246 . S
O193 C192 1.246 . S
C194 O175 1.276 1_565 S
C194 O195 1.246 . S
O195 C194 1.246 . S
C180 C36 2.325 1_455 S
C176 C78 1.508 . S
C186 C30 2.277 1_455 S
C170 C69 1.554 . S
C21 C162 2.421 1_455 S
C194 C93 1.713 1_565 S
C45 C148 2.368 . S
C84 C192 1.761 1_565 S
C132 C174 1.093 . S
C126 C189 0.758 . S
C183 C141 0.746 1_554 S
C178 C117 1.093 . S
