# Generated by pormake.
# Topology zzz, (3,6)-cn, num edge types: 1
# Building blocks:
#     Node 0, Type 0, BuildingBlock: CUQRIR_clean_linker_1, # of connection points: 3
#     Node 1, Type 0, BuildingBlock: CUQRIR_clean_linker_1, # of connection points: 3
#     Node 2, Type 0, BuildingBlock: CUQRIR_clean_linker_1, # of connection points: 3
#     Node 3, Type 0, BuildingBlock: CUQRIR_clean_linker_1, # of connection points: 3
#     Node 4, Type 0, BuildingBlock: CUQRIR_clean_linker_1, # of connection points: 3
#     Node 5, Type 0, BuildingBlock: CUQRIR_clean_linker_1, # of connection points: 3
#     Node 6, Type 0, BuildingBlock: CUQRIR_clean_linker_1, # of connection points: 3
#     Node 7, Type 0, BuildingBlock: CUQRIR_clean_linker_1, # of connection points: 3
#     Node 8, Type 1, BuildingBlock: JUFBIX_clean_sbu_0, # of connection points: 6
#     Node 9, Type 1, BuildingBlock: JUFBIX_clean_sbu_0, # of connection points: 6
#     Node 10, Type 1, BuildingBlock: JUFBIX_clean_sbu_0, # of connection points: 6
#     Node 11, Type 1, BuildingBlock: JUFBIX_clean_sbu_0, # of connection points: 6
#     Edge 12, Type (0, 1), None
#     Edge 13, Type (0, 1), None
#     Edge 14, Type (0, 1), None
#     Edge 15, Type (0, 1), None
#     Edge 16, Type (0, 1), None
#     Edge 17, Type (0, 1), None
#     Edge 18, Type (0, 1), None
#     Edge 19, Type (0, 1), None
#     Edge 20, Type (0, 1), None
#     Edge 21, Type (0, 1), None
#     Edge 22, Type (0, 1), None
#     Edge 23, Type (0, 1), None
#     Edge 24, Type (0, 1), None
#     Edge 25, Type (0, 1), None
#     Edge 26, Type (0, 1), None
#     Edge 27, Type (0, 1), None
#     Edge 28, Type (0, 1), None
#     Edge 29, Type (0, 1), None
#     Edge 30, Type (0, 1), None
#     Edge 31, Type (0, 1), None
#     Edge 32, Type (0, 1), None
#     Edge 33, Type (0, 1), None
#     Edge 34, Type (0, 1), None
#     Edge 35, Type (0, 1), None
# Relax obj value: 0.152
# Max RMSD: 0.202
# Mean RMSD: 0.102
data_MOF--net-zzz--node1-JUFBIX_clean_sbu_0--node2-CUQRIR_clean_linker_1--edge1-none
_symmetry_space_group_name_H-M    P1
_symmetry_Int_Tables_number       1
_symmetry_cell_setting            triclinic
loop_
_symmetry_equiv_pos_as_xyz
'x, y, z'
_cell_length_a     19.550321
_cell_length_b     19.51356
_cell_length_c     7.0628679
_cell_angle_alpha  69.793868
_cell_angle_beta   89.188772
_cell_angle_gamma 90.806244
loop_
_atom_site_label
_atom_site_type_symbol
_atom_site_fract_x
_atom_site_fract_y
_atom_site_fract_z
_atom_type_partial_charge
C0 C 0.8628 0.59188 0.43291 0.0
N1 N 0.93052 0.60914 0.43618 0.0
N2 N 0.83693 0.62055 0.24413 0.0
C3 C 0.82122 0.54615 0.60914 0.0
C4 C 0.89092 0.6593 0.13912 0.0
N5 N 0.94957 0.63921 0.24249 0.0
C6 C 0.88904 0.70073 0.91506 0.0
H7 H 0.83037 0.48796 0.63472 0.0
H8 H 0.76602 0.55648 0.58 0.0
H9 H 0.83708 0.559 0.74241 0.0
H10 H 0.84251 0.73433 0.87886 0.0
H11 H 0.88733 0.66183 0.8321 0.0
H12 H 0.93473 0.73704 0.86363 0.0
C13 C 0.175 0.79897 0.30187 0.0
N14 N 0.1544 0.85604 0.35385 0.0
N15 N 0.13654 0.7932 0.14829 0.0
C16 C 0.24003 0.76076 0.36768 0.0
C17 C 0.09157 0.84809 0.11643 0.0
N18 N 0.10908 0.89078 0.22314 0.0
C19 C 1.01739 0.83948 0.07288 0.0
H20 H 0.26023 0.76856 0.50329 0.0
H21 H 0.28011 0.78472 0.25004 0.0
H22 H 0.23025 0.70263 0.38918 0.0
H23 H 1.00111 0.78129 0.14028 0.0
H24 H 1.00811 0.85803 0.90928 0.0
H25 H 0.98458 0.87149 0.13917 0.0
C26 C 0.87742 1.00514 0.1904 0.0
N27 N 0.80757 1.01132 0.19496 0.0
N28 N 0.90274 1.01486 0.99983 0.0
C29 C 0.91849 0.97227 0.37599 0.0
C30 C 0.84471 1.02824 0.89078 0.0
N31 N 0.78744 1.02409 0.00899 0.0
C32 C 0.84653 0.06253 0.66791 0.0
H33 H 0.94042 1.01519 0.42672 0.0
H34 H 0.96124 0.94169 0.34216 0.0
H35 H 0.88619 0.93429 0.49917 0.0
H36 H 0.83597 1.01763 0.61304 0.0
H37 H 0.89729 0.0869 0.61012 0.0
H38 H 0.80836 0.10612 0.61559 0.0
C39 C 0.60703 0.77836 0.253 0.0
N40 N 0.58796 0.70552 0.30196 0.0
N41 N 0.58793 0.82144 0.06095 0.0
C42 C 0.65046 0.80643 0.38573 0.0
C43 C 0.55607 0.77087 0.99682 0.0
N44 N 0.55698 0.7014 0.13631 0.0
C45 C 0.51529 0.7897 0.80798 0.0
H46 H 0.67135 0.8621 0.3032 0.0
H47 H 0.69376 0.7693 0.44341 0.0
H48 H 0.62007 0.80751 0.51742 0.0
H49 H 0.52403 0.84686 0.71382 0.0
H50 H 0.4601 0.78064 0.8497 0.0
H51 H 0.5283 0.75404 0.72065 0.0
C52 C 0.25871 0.52282 0.36922 0.0
N53 N 0.18941 0.50902 0.37928 0.0
N54 N 0.28726 0.49546 0.55461 0.0
C55 C 0.30071 0.56329 0.18403 0.0
C56 C 0.23339 0.46503 0.67532 0.0
N57 N 0.17335 0.48236 0.57665 0.0
C58 C 0.23947 0.42977 0.90158 0.0
H59 H 0.35028 0.5357 0.18978 0.0
H60 H 0.31263 0.61904 0.18288 0.0
H61 H 0.27487 0.56733 0.04364 0.0
H62 H 0.26134 0.46912 0.96535 0.0
H63 H 0.27546 0.38384 0.93433 0.0
H64 H 0.19008 0.40876 0.98001 0.0
C65 C 0.97021 0.29871 0.54994 0.0
N66 N 1.01378 0.25728 0.48144 0.0
N67 N 1.0027 0.32266 0.68912 0.0
C68 C 0.89811 0.31543 0.48486 0.0
C69 C 0.06649 0.2977 0.68478 0.0
N70 N 0.06833 0.24905 0.59111 0.0
C71 C 0.13 0.31731 0.77116 0.0
H72 H 0.88877 0.37345 0.46062 0.0
H73 H 0.86248 0.28067 0.60427 0.0
H74 H 0.88756 0.30666 0.34231 0.0
H75 H 0.13688 0.28292 0.93075 0.0
H76 H 0.12535 0.37226 0.76425 0.0
H77 H 0.17591 0.31219 0.68285 0.0
C78 C 0.31719 0.05705 0.502 0.0
N79 N 0.38643 0.05931 0.49436 0.0
N80 N 0.29207 0.07323 0.66488 0.0
C81 C 0.27581 1.04061 0.34477 0.0
C82 C 0.3511 0.08593 0.7509 0.0
N83 N 0.40798 0.07311 0.65339 0.0
C84 C 0.35426 0.13119 0.884 0.0
H85 H 0.25774 0.09268 0.23556 0.0
H86 H 0.23095 1.00638 0.40868 0.0
H87 H 0.30603 1.01065 0.26593 0.0
H88 H 0.36616 0.09577 0.03675 0.0
H89 H 0.30572 0.1596 0.8859 0.0
H90 H 0.3964 0.17255 0.83176 0.0
C91 C 0.60339 0.32152 0.45761 0.0
N92 N 0.58543 0.39184 0.43591 0.0
N93 N 0.59274 0.27253 0.65097 0.0
C94 C 0.6333 0.30044 0.29104 0.0
C95 C 0.57034 0.31886 0.74744 0.0
N96 N 0.57313 0.39116 0.62397 0.0
C97 C 0.52586 0.2937 0.93547 0.0
H98 H 0.6 0.25686 0.27711 0.0
H99 H 0.68518 0.27877 0.33368 0.0
H100 H 0.63715 0.34551 0.1442 0.0
H101 H 0.54102 0.24055 0.04212 0.0
H102 H 0.47266 0.28691 0.8911 0.0
H103 H 0.52487 0.33429 0.01275 0.0
Co104 Co 0.11392 0.09651 0.05562 0.0
C105 C 0.97065 1.02465 0.92722 0.0
Co106 Co 0.08968 1.02615 0.6977 0.0
C107 C 0.06363 0.19261 0.26928 0.0
C108 C 0.97641 0.14799 0.18504 0.0
N109 N 1.04613 0.14053 0.19132 0.0
N110 N 1.00914 0.22236 0.33552 0.0
C111 C 0.95398 0.19342 0.28242 0.0
H112 H 0.11649 0.20565 0.28879 0.0
H113 H 0.941 0.12728 0.10339 0.0
C114 C 0.22377 0.07261 0.7268 0.0
N115 N 0.1197 0.9324 0.72242 0.0
C116 C 0.09997 0.89509 0.60558 0.0
C117 C 0.18613 0.91323 0.76065 0.0
N118 N 0.15303 0.86282 0.54523 0.0
C119 C 0.20766 0.8745 0.64245 0.0
C120 C 0.08881 0.1813 0.69792 0.0
O121 O 0.20509 0.07556 0.90179 0.0
O122 O 0.1784 0.06026 0.61629 0.0
O123 O 0.06726 0.12611 0.65608 0.0
O124 O 0.11354 0.1735 0.86522 0.0
O125 O 0.99277 0.99859 0.79192 0.0
H126 H 0.21992 0.93365 0.84912 0.0
H127 H 0.05082 0.90305 0.53523 0.0
O128 O 1.01377 0.05879 0.00104 0.0
O129 O 0.11942 1.00389 0.25959 0.0
O130 O 0.10666 0.99891 0.96401 0.0
C131 C 0.114 0.96465 0.14813 0.0
H132 H 0.9013 0.20192 0.31404 0.0
H133 H 0.26021 0.864 0.61338 0.0
Co134 Co 0.57673 1.04534 0.98656 0.0
C135 C 0.59043 0.89841 0.96952 0.0
Co136 Co 0.61719 1.04774 0.69487 0.0
C137 C 0.4784 0.07266 0.24811 0.0
C138 C 0.52038 0.96708 0.37309 0.0
N139 N 0.53451 1.03396 0.23531 0.0
N140 N 0.42958 1.03169 0.37786 0.0
C141 C 0.45579 0.96488 0.45432 0.0
H142 H 0.47276 0.12994 0.16181 0.0
H143 H 0.55423 0.92146 0.40851 0.0
C144 C 0.59875 0.19512 0.72508 0.0
N145 N 0.6646 0.05365 0.45213 0.0
C146 C 0.71456 1.00632 0.44061 0.0
C147 C 0.68976 0.11861 0.32792 0.0
N148 N 0.76935 1.04028 0.32073 0.0
C149 C 0.75344 0.1114 0.2544 0.0
C150 C 0.47447 0.06396 0.71743 0.0
O151 O 0.57974 0.15534 0.90449 0.0
O152 O 0.62167 0.1597 0.61491 0.0
O153 O 0.52465 0.06024 0.60263 0.0
O154 O 0.48674 0.05284 0.89827 0.0
O155 O 0.60836 0.93361 0.78422 0.0
H156 H 0.66314 0.16851 0.2871 0.0
H157 H 0.71149 0.94802 0.52074 0.0
O158 O 0.57452 0.93784 0.07127 0.0
O159 O 0.67098 1.03692 0.07213 0.0
O160 O 0.70504 1.03935 0.7791 0.0
C161 C 0.72018 1.03469 0.9523 0.0
H162 H 0.43267 0.92038 0.57732 0.0
H163 H 0.78167 0.15381 0.13757 0.0
Co164 Co 0.62882 0.55247 0.88003 0.0
C165 C 0.57445 0.44848 0.25135 0.0
Co166 Co 0.51912 0.54418 0.87596 0.0
C167 C 0.75096 0.60844 0.99984 0.0
C168 C 0.7551 0.49422 0.05125 0.0
N169 N 0.72278 0.55536 0.93845 0.0
N170 N 0.79357 0.58127 0.15655 0.0
C171 C 0.79728 0.50982 0.18613 0.0
H172 H 0.73521 0.66476 0.94514 0.0
H173 H 0.7432 0.43988 0.05129 0.0
C174 C 0.58593 0.65157 0.49871 0.0
N175 N 0.42488 0.54354 0.8264 0.0
C176 C 0.38887 0.49514 0.7636 0.0
C177 C 0.39528 0.60811 0.73055 0.0
N178 N 0.34197 0.52841 0.62387 0.0
C179 C 0.34548 0.59888 0.60658 0.0
C180 C 0.55914 0.6425 0.0693 0.0
O181 O 0.63732 0.63925 0.61664 0.0
O182 O 0.5307 0.61536 0.57699 0.0
O183 O 0.5086 0.62569 0.98073 0.0
O184 O 0.61635 0.61733 0.04143 0.0
O185 O 0.51495 0.47143 0.17821 0.0
H186 H 0.4144 0.66053 0.72916 0.0
H187 H 0.3997 0.43754 0.80807 0.0
O188 O 0.62416 0.47072 0.12984 0.0
O189 O 0.63479 0.48105 0.71645 0.0
O190 O 0.52541 0.46438 0.77925 0.0
C191 C 0.57757 0.44979 0.69465 0.0
H192 H 0.82836 0.47177 0.29716 0.0
H193 H 0.3162 0.64104 0.50573 0.0
Co194 Co 0.08709 0.60797 0.83327 0.0
C195 C 0.14402 0.51736 0.22074 0.0
Co196 Co 1.02819 0.50667 0.99169 0.0
C197 C 0.10641 0.74213 0.88293 0.0
C198 C 0.19904 0.6971 0.82901 0.0
N199 N 0.13193 0.69893 0.78508 0.0
N200 N 0.15072 0.75572 0.01128 0.0
C201 C 0.21038 0.72928 0.97158 0.0
H202 H 0.05363 0.7571 0.87307 0.0
H203 H 0.23542 0.66341 0.78744 0.0
C204 C 0.97316 0.59863 0.60151 0.0
N205 N 0.98162 0.41424 0.0507 0.0
C206 C 1.0125 0.36553 0.98352 0.0
C207 C 0.91694 0.41224 0.98758 0.0
N208 N 0.97594 0.34735 0.84403 0.0
C209 C 0.91348 0.37295 0.85843 0.0
C210 C 0.98817 0.59966 0.15613 0.0
O211 O 1.02345 0.64228 0.59877 0.0
O212 O 0.96385 0.54399 0.76321 0.0
O213 O 0.97082 0.53456 0.17259 0.0
O214 O 1.0269 0.6337 0.01026 0.0
O215 O 0.0939 0.47272 0.22828 0.0
H216 H 0.87863 0.44942 0.99731 0.0
H217 H 0.06402 0.35118 0.02508 0.0
O218 O 0.1509 0.57138 0.0588 0.0
O219 O 0.14543 0.58236 0.65604 0.0
O220 O 0.08926 0.48069 0.80525 0.0
C221 C 0.13017 0.51786 0.66414 0.0
H222 H 0.25922 0.73237 0.03572 0.0
H223 H 0.86954 0.36954 0.77205 0.0
loop_
_geom_bond_atom_site_label_1
_geom_bond_atom_site_label_2
_geom_bond_distance
_geom_bond_site_symmetry_2
_ccdc_geom_bond_type
C0 N1 1.317 . S
C0 N2 1.348 . S
C0 C3 1.485 . S
N1 C0 1.317 . S
N1 N5 1.370 . S
N2 C0 1.348 . S
N2 C4 1.346 . S
C3 C0 1.485 . S
C3 H7 0.960 . S
C3 H8 0.961 . S
C3 H9 0.960 . S
C4 N2 1.346 . S
C4 N5 1.307 . S
C4 C6 1.486 1_554 S
N5 N1 1.370 . S
N5 C4 1.307 . S
C6 C4 1.486 1_556 S
C6 H10 0.960 . S
C6 H11 0.960 . S
C6 H12 0.959 . S
H7 C3 0.960 . S
H8 C3 0.961 . S
H9 C3 0.960 . S
H10 C6 0.960 . S
H11 C6 0.960 . S
H12 C6 0.959 . S
C13 N14 1.317 . S
C13 N15 1.348 1_554 S
C13 C16 1.485 . S
N14 C13 1.317 . S
N14 N18 1.370 1_554 S
N15 C13 1.348 1_556 S
N15 C17 1.346 . S
C16 C13 1.485 . S
C16 H20 0.960 1_655 S
C16 H21 0.961 . S
C16 H22 0.960 . S
C17 N15 1.346 . S
C17 N18 1.307 . S
C17 C19 1.486 . S
N18 N14 1.370 1_556 S
N18 C17 1.307 . S
C19 C17 1.486 . S
C19 H23 0.960 . S
C19 H24 0.960 1_655 S
C19 H25 0.959 . S
H20 C16 0.960 1_455 S
H21 C16 0.961 . S
H22 C16 0.960 . S
H23 C19 0.960 . S
H24 C19 0.960 1_455 S
H25 C19 0.959 . S
C26 N27 1.317 . S
C26 N28 1.348 1_554 S
C26 C29 1.485 . S
N27 C26 1.317 . S
N27 N31 1.367 1_554 S
N28 C26 1.348 1_556 S
N28 C30 1.347 1_565 S
C29 C26 1.485 . S
C29 H33 0.960 1_565 S
C29 H34 0.961 . S
C29 H35 0.960 . S
C30 N28 1.347 1_545 S
C30 N31 1.310 1_545 S
C30 C32 1.484 . S
N31 N27 1.367 1_556 S
N31 C30 1.310 1_565 S
C32 C30 1.484 . S
C32 H36 0.960 1_545 S
C32 H37 0.960 . S
C32 H38 0.959 . S
H33 C29 0.960 1_545 S
H34 C29 0.961 . S
H35 C29 0.960 . S
H36 C32 0.960 1_565 S
H37 C32 0.960 . S
H38 C32 0.959 . S
C39 N40 1.317 . S
C39 N41 1.348 . S
C39 C42 1.485 . S
N40 C39 1.317 . S
N40 N44 1.370 . S
N41 C39 1.348 . S
N41 C43 1.346 . S
C42 C39 1.485 . S
C42 H46 0.960 . S
C42 H47 0.961 . S
C42 H48 0.960 . S
C43 N41 1.346 . S
C43 N44 1.307 . S
C43 C45 1.486 1_554 S
N44 N40 1.370 . S
N44 C43 1.307 . S
C45 C43 1.486 1_556 S
C45 H49 0.960 . S
C45 H50 0.960 . S
C45 H51 0.959 . S
H46 C42 0.960 . S
H47 C42 0.961 . S
H48 C42 0.960 . S
H49 C45 0.960 . S
H50 C45 0.960 . S
H51 C45 0.959 . S
C52 N53 1.317 . S
C52 N54 1.348 . S
C52 C55 1.485 . S
N53 C52 1.317 . S
N53 N57 1.370 . S
N54 C52 1.348 . S
N54 C56 1.346 . S
C55 C52 1.485 . S
C55 H59 0.960 . S
C55 H60 0.961 . S
C55 H61 0.960 . S
C56 N54 1.346 . S
C56 N57 1.307 . S
C56 C58 1.486 . S
N57 N53 1.370 . S
N57 C56 1.307 . S
C58 C56 1.486 . S
C58 H62 0.960 . S
C58 H63 0.960 . S
C58 H64 0.959 . S
H59 C55 0.960 . S
H60 C55 0.961 . S
H61 C55 0.960 . S
H62 C58 0.960 . S
H63 C58 0.960 . S
H64 C58 0.959 . S
C65 N66 1.317 . S
C65 N67 1.348 . S
C65 C68 1.485 . S
N66 C65 1.317 . S
N66 N70 1.370 . S
N67 C65 1.348 . S
N67 C69 1.346 . S
C68 C65 1.485 . S
C68 H72 0.960 . S
C68 H73 0.961 . S
C68 H74 0.960 . S
C69 N67 1.346 . S
C69 N70 1.307 . S
C69 C71 1.486 1_556 S
N70 N66 1.370 . S
N70 C69 1.307 . S
C71 C69 1.486 1_554 S
C71 H75 0.960 . S
C71 H76 0.960 . S
C71 H77 0.959 . S
H72 C68 0.960 . S
H73 C68 0.961 . S
H74 C68 0.960 . S
H75 C71 0.960 . S
H76 C71 0.960 . S
H77 C71 0.959 . S
C78 N79 1.317 . S
C78 N80 1.348 . S
C78 C81 1.485 . S
N79 C78 1.317 . S
N79 N83 1.374 . S
N80 C78 1.348 . S
N80 C82 1.343 1_565 S
C81 C78 1.485 . S
C81 H85 0.960 1_565 S
C81 H86 0.961 . S
C81 H87 0.960 . S
C82 N80 1.343 1_545 S
C82 N83 1.303 1_545 S
C82 C84 1.490 1_556 S
N83 N79 1.374 . S
N83 C82 1.303 1_565 S
C84 C82 1.490 1_554 S
C84 H88 0.960 1_545 S
C84 H89 0.960 . S
C84 H90 0.959 . S
H85 C81 0.960 1_545 S
H86 C81 0.961 . S
H87 C81 0.960 . S
H88 C84 0.960 1_565 S
H89 C84 0.960 . S
H90 C84 0.959 . S
C91 N92 1.317 . S
C91 N93 1.348 . S
C91 C94 1.485 . S
N92 C91 1.317 . S
N92 N96 1.370 . S
N93 C91 1.348 . S
N93 C95 1.346 . S
C94 C91 1.485 . S
C94 H98 0.960 . S
C94 H99 0.961 . S
C94 H100 0.960 . S
C95 N93 1.346 . S
C95 N96 1.307 . S
C95 C97 1.486 . S
N96 N92 1.370 . S
N96 C95 1.307 . S
C97 C95 1.486 . S
C97 H101 0.960 1_556 S
C97 H102 0.960 1_556 S
C97 H103 0.959 1_556 S
H98 C94 0.960 . S
H99 C94 0.961 . S
H100 C94 0.960 . S
H101 C97 0.960 1_554 S
H102 C97 0.960 1_554 S
H103 C97 0.959 1_554 S
Co104 N109 2.057 . S
Co104 O121 2.021 1_545 S
Co104 O124 2.062 1_554 S
Co104 O128 2.117 1_455 S
Co104 O129 2.020 1_545 S
C105 O125 1.259 . S
C105 O128 1.258 1_556 S
Co106 N115 2.066 . S
Co106 O122 2.120 . S
Co106 O123 2.003 1_565 S
Co106 O125 2.017 1_465 S
Co106 O130 2.076 1_455 S
C107 N109 1.316 . S
C107 N110 1.347 . S
C107 H112 0.931 . S
C108 N109 1.375 1_655 S
C108 C111 1.350 1_655 S
C108 H113 0.930 . S
N109 Co104 2.057 . S
N109 C107 1.316 . S
N109 C108 1.375 1_455 S
N110 C107 1.347 . S
N110 C111 1.373 . S
C111 C108 1.350 1_455 S
C111 N110 1.373 . S
C111 H132 0.931 1_455 S
H112 C107 0.931 . S
H113 C108 0.930 . S
C114 O121 1.259 1_556 S
C114 O122 1.258 . S
N115 Co106 2.066 . S
N115 C116 1.316 1_455 S
N115 C117 1.375 . S
C116 N115 1.316 1_655 S
C116 N118 1.347 . S
C116 H127 0.931 . S
C117 N115 1.375 . S
C117 C119 1.350 . S
C117 H126 0.930 . S
N118 C116 1.347 . S
N118 C119 1.373 1_655 S
C119 C117 1.350 . S
C119 N118 1.373 1_455 S
C119 H133 0.931 . S
C120 O123 1.256 . S
C120 O124 1.255 . S
O121 Co104 2.021 1_565 S
O121 C114 1.259 1_554 S
O122 Co106 2.120 . S
O122 C114 1.258 . S
O123 Co106 2.003 1_545 S
O123 C120 1.256 . S
O124 Co104 2.062 1_556 S
O124 C120 1.255 . S
O125 C105 1.259 . S
O125 Co106 2.017 1_645 S
H126 C117 0.930 . S
H127 C116 0.931 . S
O128 Co104 2.117 1_655 S
O128 C105 1.258 1_554 S
O129 Co104 2.020 1_565 S
O129 C131 1.256 . S
O130 Co106 2.076 1_655 S
O130 C131 1.255 1_656 S
C131 O129 1.256 . S
C131 O130 1.255 1_454 S
H132 C111 0.931 1_655 S
H133 C119 0.931 . S
Co134 N139 2.057 1_545 S
Co134 O151 2.021 1_554 S
Co134 O154 2.062 1_554 S
Co134 O158 2.117 1_545 S
Co134 O159 2.020 . S
C135 O155 1.259 . S
C135 O158 1.258 1_556 S
Co136 N145 2.057 1_565 S
Co136 O152 2.117 1_565 S
Co136 O153 2.020 . S
Co136 O155 2.021 . S
Co136 O160 2.062 . S
C137 N139 1.316 1_545 S
C137 N140 1.347 1_545 S
C137 H142 0.931 . S
C138 N139 1.375 . S
C138 C141 1.350 . S
C138 H143 0.930 . S
N139 Co134 2.057 1_565 S
N139 C137 1.316 1_565 S
N139 C138 1.375 . S
N140 C137 1.347 1_565 S
N140 C141 1.373 . S
C141 C138 1.350 . S
C141 N140 1.373 . S
C141 H162 0.931 . S
H142 C137 0.931 . S
H143 C138 0.930 . S
C144 O151 1.259 . S
C144 O152 1.258 . S
N145 Co136 2.057 1_545 S
N145 C146 1.316 1_545 S
N145 C147 1.375 . S
C146 N145 1.316 1_565 S
C146 N148 1.347 1_565 S
C146 H157 0.931 . S
C147 N145 1.375 . S
C147 C149 1.350 . S
C147 H156 0.930 . S
N148 C146 1.347 1_545 S
N148 C149 1.373 . S
C149 C147 1.350 . S
C149 N148 1.373 . S
C149 H163 0.931 . S
C150 O153 1.256 1_545 S
C150 O154 1.255 . S
O151 Co134 2.021 1_556 S
O151 C144 1.259 . S
O152 Co136 2.117 1_545 S
O152 C144 1.258 . S
O153 Co136 2.020 . S
O153 C150 1.256 1_565 S
O154 Co134 2.062 1_556 S
O154 C150 1.255 . S
O155 C135 1.259 . S
O155 Co136 2.021 . S
H156 C147 0.930 . S
H157 C146 0.931 . S
O158 Co134 2.117 1_565 S
O158 C135 1.258 1_554 S
O159 Co134 2.020 . S
O159 C161 1.256 1_545 S
O160 Co136 2.062 . S
O160 C161 1.255 1_556 S
C161 O159 1.256 1_565 S
C161 O160 1.255 1_554 S
H162 C141 0.931 . S
H163 C149 0.931 . S
Co164 N169 2.057 1_556 S
Co164 O181 2.021 . S
Co164 O184 2.062 1_556 S
Co164 O188 2.117 1_556 S
Co164 O189 2.020 . S
C165 O185 1.259 . S
C165 O188 1.258 . S
Co166 N175 2.057 . S
Co166 O182 2.117 . S
Co166 O183 2.020 . S
Co166 O185 2.021 1_556 S
Co166 O190 2.062 . S
C167 N169 1.316 1_556 S
C167 N170 1.347 1_556 S
C167 H172 0.931 . S
C168 N169 1.375 . S
C168 C171 1.350 . S
C168 H173 0.930 . S
N169 Co164 2.057 1_554 S
N169 C167 1.316 1_554 S
N169 C168 1.375 . S
N170 C167 1.347 1_554 S
N170 C171 1.373 . S
C171 C168 1.350 . S
C171 N170 1.373 . S
C171 H192 0.931 . S
H172 C167 0.931 . S
H173 C168 0.930 . S
C174 O181 1.259 . S
C174 O182 1.258 . S
N175 Co166 2.057 . S
N175 C176 1.316 . S
N175 C177 1.375 . S
C176 N175 1.316 . S
C176 N178 1.347 . S
C176 H187 0.931 . S
C177 N175 1.375 . S
C177 C179 1.350 . S
C177 H186 0.930 . S
N178 C176 1.347 . S
N178 C179 1.373 . S
C179 C177 1.350 . S
C179 N178 1.373 . S
C179 H193 0.931 . S
C180 O183 1.256 1_554 S
C180 O184 1.255 . S
O181 Co164 2.021 . S
O181 C174 1.259 . S
O182 Co166 2.117 . S
O182 C174 1.258 . S
O183 Co166 2.020 . S
O183 C180 1.256 1_556 S
O184 Co164 2.062 1_554 S
O184 C180 1.255 . S
O185 C165 1.259 . S
O185 Co166 2.021 1_554 S
H186 C177 0.930 . S
H187 C176 0.931 . S
O188 Co164 2.117 1_554 S
O188 C165 1.258 . S
O189 Co164 2.020 . S
O189 C191 1.256 . S
O190 Co166 2.062 . S
O190 C191 1.255 . S
C191 O189 1.256 . S
C191 O190 1.255 . S
H192 C171 0.931 . S
H193 C179 0.931 . S
Co194 N199 2.057 . S
Co194 O211 2.021 1_455 S
Co194 O214 2.062 1_456 S
Co194 O218 2.117 1_556 S
Co194 O219 2.020 . S
C195 O215 1.259 . S
C195 O218 1.258 . S
Co196 N205 2.057 . S
Co196 O212 2.117 1_455 S
Co196 O213 2.020 1_456 S
Co196 O215 2.021 1_556 S
Co196 O220 2.062 . S
C197 N199 1.316 . S
C197 N200 1.347 . S
C197 H202 0.931 1_455 S
C198 N199 1.375 . S
C198 C201 1.350 . S
C198 H203 0.930 1_556 S
N199 Co194 2.057 . S
N199 C197 1.316 . S
N199 C198 1.375 . S
N200 C197 1.347 . S
N200 C201 1.373 . S
C201 C198 1.350 . S
C201 N200 1.373 . S
C201 H222 0.931 1_556 S
H202 C197 0.931 1_655 S
H203 C198 0.930 1_554 S
C204 O211 1.259 . S
C204 O212 1.258 . S
N205 Co196 2.057 . S
N205 C206 1.316 1_556 S
N205 C207 1.375 1_455 S
C206 N205 1.316 1_554 S
C206 N208 1.347 1_554 S
C206 H217 0.931 . S
C207 N205 1.375 1_655 S
C207 C209 1.350 . S
C207 H216 0.930 . S
N208 C206 1.347 1_556 S
N208 C209 1.373 1_455 S
C209 C207 1.350 . S
C209 N208 1.373 1_655 S
C209 H223 0.931 . S
C210 O213 1.256 . S
C210 O214 1.255 . S
O211 Co194 2.021 1_655 S
O211 C204 1.259 . S
O212 Co196 2.117 1_655 S
O212 C204 1.258 . S
O213 Co196 2.020 1_654 S
O213 C210 1.256 . S
O214 Co194 2.062 1_654 S
O214 C210 1.255 . S
O215 C195 1.259 . S
O215 Co196 2.021 1_554 S
H216 C207 0.930 . S
H217 C206 0.931 . S
O218 Co194 2.117 1_554 S
O218 C195 1.258 . S
O219 Co194 2.020 . S
O219 C221 1.256 . S
O220 Co196 2.062 . S
O220 C221 1.255 . S
C221 O219 1.256 . S
C221 O220 1.255 . S
H222 C201 0.931 1_554 S
H223 C209 0.931 . S
N80 C114 2.139 . S
C144 N93 2.070 . S
N178 N54 1.432 . S
N208 N67 1.890 . S
C105 N28 2.157 1_545 S
N41 C135 2.078 1_554 S
N2 N170 1.457 . S
N15 N200 1.943 1_655 S
C120 N70 1.143 . S
C150 N83 1.603 1_545 S
C191 N96 1.886 . S
N57 C221 0.976 . S
N18 C131 1.157 1_656 S
C161 N31 1.602 1_554 S
C180 N44 1.891 . S
N5 C210 0.992 . S
N66 N110 1.806 . S
N79 N140 1.738 . S
C165 N92 1.894 . S
C195 N53 1.729 . S
N14 N118 1.847 . S
N148 N27 1.757 1_545 S
C174 N40 1.877 . S
N1 C204 1.725 . S
