# Generated by pormake.
# Topology nom, (4,4)-cn, num edge types: 1
# Building blocks:
#     Node 0, Type 0, BuildingBlock: KUFVIS_clean_linker_0, # of connection points: 4
#     Node 1, Type 0, BuildingBlock: KUFVIS_clean_linker_0, # of connection points: 4
#     Node 2, Type 0, BuildingBlock: KUFVIS_clean_linker_0, # of connection points: 4
#     Node 3, Type 0, BuildingBlock: KUFVIS_clean_linker_0, # of connection points: 4
#     Node 4, Type 0, BuildingBlock: KUFVIS_clean_linker_0, # of connection points: 4
#     Node 5, Type 0, BuildingBlock: KUFVIS_clean_linker_0, # of connection points: 4
#     Node 6, Type 1, BuildingBlock: QUQFOY_clean_sbu_3, # of connection points: 4
#     Node 7, Type 1, BuildingBlock: QUQFOY_clean_sbu_3, # of connection points: 4
#     Node 8, Type 1, BuildingBlock: QUQFOY_clean_sbu_3, # of connection points: 4
#     Node 9, Type 1, BuildingBlock: QUQFOY_clean_sbu_3, # of connection points: 4
#     Node 10, Type 1, BuildingBlock: QUQFOY_clean_sbu_3, # of connection points: 4
#     Node 11, Type 1, BuildingBlock: QUQFOY_clean_sbu_3, # of connection points: 4
#     Edge 12, Type (0, 1), None
#     Edge 13, Type (0, 1), None
#     Edge 14, Type (0, 1), None
#     Edge 15, Type (0, 1), None
#     Edge 16, Type (0, 1), None
#     Edge 17, Type (0, 1), None
#     Edge 18, Type (0, 1), None
#     Edge 19, Type (0, 1), None
#     Edge 20, Type (0, 1), None
#     Edge 21, Type (0, 1), None
#     Edge 22, Type (0, 1), None
#     Edge 23, Type (0, 1), None
#     Edge 24, Type (0, 1), None
#     Edge 25, Type (0, 1), None
#     Edge 26, Type (0, 1), None
#     Edge 27, Type (0, 1), None
#     Edge 28, Type (0, 1), None
#     Edge 29, Type (0, 1), None
#     Edge 30, Type (0, 1), None
#     Edge 31, Type (0, 1), None
#     Edge 32, Type (0, 1), None
#     Edge 33, Type (0, 1), None
#     Edge 34, Type (0, 1), None
#     Edge 35, Type (0, 1), None
# Relax obj value: 0.003
# Max RMSD: 0.054
# Mean RMSD: 0.036
data_MOF--net-nom--node1-QUQFOY_clean_sbu_3--node2-KUFVIS_clean_linker_0--edge1-none
_symmetry_space_group_name_H-M    P1
_symmetry_Int_Tables_number       1
_symmetry_cell_setting            triclinic
loop_
_symmetry_equiv_pos_as_xyz
'x, y, z'
_cell_length_a     21.634109
_cell_length_b     22.258945
_cell_length_c     23.445741
_cell_angle_alpha  89.999846
_cell_angle_beta   89.99975
_cell_angle_gamma 120.28857
loop_
_atom_site_label
_atom_site_type_symbol
_atom_site_fract_x
_atom_site_fract_y
_atom_site_fract_z
_atom_type_partial_charge
H0 H 0.24439 0.67175 0.33992 0.0
H1 H 0.08795 0.62798 0.20959 0.0
H2 H 0.02305 0.52653 0.37387 0.0
H3 H 0.92425 0.53779 0.34658 0.0
H4 H 0.77381 0.42303 0.21402 0.0
H5 H -0.00127 0.51765 0.18064 0.0
C6 C 0.18929 0.64288 0.32533 0.0
C7 C 0.13542 0.59879 0.36324 0.0
C8 C 0.17217 0.65395 0.2702 0.0
C9 C 0.10076 0.61814 0.252 0.0
C10 C 0.0462 0.57018 0.2883 0.0
C11 C 0.06406 0.56213 0.34469 0.0
C12 C 0.97092 0.52919 0.26748 0.0
C13 C 0.91372 0.51596 0.30396 0.0
C14 C 0.84274 0.47687 0.28506 0.0
C15 C 0.82858 0.45022 0.22948 0.0
C16 C 0.8847 0.46664 0.19127 0.0
C17 C 0.95572 0.50552 0.21044 0.0
H18 H 0.59596 0.23979 0.51044 0.0
H19 H 0.47981 0.09753 0.37531 0.0
H20 H 0.49656 0.02194 0.54223 0.0
H21 H 0.40171 0.92307 0.51296 0.0
H22 H 0.3899 0.78972 0.37645 0.0
H23 H 0.48652 0.00741 0.34543 0.0
C24 C 0.56474 0.18682 0.49468 0.0
C25 C 0.5461 0.13182 0.53222 0.0
C26 C 0.54119 0.1749 0.43814 0.0
C27 C 0.49879 0.10601 0.41889 0.0
C28 C 0.48371 0.04907 0.45543 0.0
C29 C 0.50636 0.06331 0.51284 0.0
C30 C 0.45142 0.97611 0.4331 0.0
C31 C 0.41454 0.91724 0.46946 0.0
C32 C 0.39444 0.85014 0.44959 0.0
C33 C 0.40878 0.84171 0.39296 0.0
C34 C 0.43849 0.89777 0.35526 0.0
C35 C 0.46097 0.96475 0.37534 0.0
H36 H 0.59945 0.36886 0.53587 0.0
H37 H 0.4859 0.39858 0.67277 0.0
H38 H 0.4944 0.48436 0.50473 0.0
H39 H 0.38897 0.47131 0.53533 0.0
H40 H 0.36317 0.59247 0.66503 0.0
H41 H 0.49084 0.49936 0.69969 0.0
C42 C 0.56813 0.39098 0.55193 0.0
C43 C 0.54734 0.42594 0.5143 0.0
C44 C 0.54608 0.38066 0.60888 0.0
C45 C 0.50361 0.40757 0.62881 0.0
C46 C 0.48551 0.44698 0.59198 0.0
C47 C 0.50673 0.45437 0.53415 0.0
C48 C 0.44808 0.48355 0.61355 0.0
C49 C 0.40254 0.49465 0.57735 0.0
C50 C 0.3736 0.53552 0.59517 0.0
C51 C 0.38873 0.56415 0.65004 0.0
C52 C 0.4285 0.54874 0.68828 0.0
C53 C 0.45889 0.50939 0.66986 0.0
H54 H 0.23671 0.59602 0.71402 0.0
H55 H 0.08627 0.48126 0.84658 0.0
H56 H 0.0118 0.5014 0.68064 0.0
H57 H 0.92258 0.39108 0.70959 0.0
H58 H 0.76612 0.34729 0.83992 0.0
H59 H 0.98747 0.49252 0.87387 0.0
C60 C 0.18194 0.56883 0.72948 0.0
C61 C 0.12583 0.55241 0.69127 0.0
C62 C 0.16778 0.54218 0.78507 0.0
C63 C 0.0968 0.50309 0.80396 0.0
C64 C 0.0396 0.48986 0.76748 0.0
C65 C 0.05481 0.51353 0.71044 0.0
C66 C 0.96432 0.44887 0.7883 0.0
C67 C 0.90977 0.40091 0.75199 0.0
C68 C 0.83835 0.36509 0.7702 0.0
C69 C 0.82123 0.37617 0.82532 0.0
C70 C 0.87509 0.42026 0.86324 0.0
C71 C 0.94646 0.45692 0.84469 0.0
H72 H 0.41457 0.77925 0.01044 0.0
H73 H 0.53072 0.92151 0.87531 0.0
H74 H 0.51397 0.9971 0.04223 0.0
H75 H 0.60882 0.09597 0.01296 0.0
H76 H 0.62063 0.22932 0.87645 0.0
H77 H 0.52401 0.01164 0.84543 0.0
C78 C 0.44579 0.83222 -0.00532 0.0
C79 C 0.46443 0.88722 0.03222 0.0
C80 C 0.46934 0.84414 0.93814 0.0
C81 C 0.51174 0.91303 0.91889 0.0
C82 C 0.52682 0.96997 -0.04457 0.0
C83 C 0.50417 0.95573 0.01284 0.0
C84 C 0.55912 0.04293 0.9331 0.0
C85 C 0.59599 0.1018 -0.03054 0.0
C86 C 0.61609 0.1689 0.94959 0.0
C87 C 0.60175 0.17733 0.89296 0.0
C88 C 0.57204 0.12127 0.85526 0.0
C89 C 0.54956 0.05429 0.87534 0.0
H90 H 0.41107 0.65017 0.03587 0.0
H91 H 0.52462 0.62045 0.17277 0.0
H92 H 0.51611 0.53467 0.00473 0.0
H93 H 0.62154 0.54773 0.03533 0.0
H94 H 0.64734 0.42656 0.16503 0.0
H95 H 0.51967 0.51967 0.19969 0.0
C96 C 0.44238 0.62806 0.05193 0.0
C97 C 0.46317 0.59309 0.0143 0.0
C98 C 0.46443 0.63838 0.10888 0.0
C99 C 0.50691 0.61146 0.12881 0.0
C100 C 0.525 0.57205 0.09198 0.0
C101 C 0.50378 0.56467 0.03415 0.0
C102 C 0.56243 0.53549 0.11355 0.0
C103 C 0.60798 0.52438 0.07735 0.0
C104 C 0.63691 0.48352 0.09517 0.0
C105 C 0.62178 0.45489 0.15004 0.0
C106 C 0.58201 0.4703 0.18828 0.0
C107 C 0.55162 0.50965 0.16986 0.0
C108 C 0.78376 0.47286 0.31926 0.0
O109 O 0.7916 0.52784 0.34232 0.0
Cd110 Cd 0.68779 0.53238 0.37034 0.0
O111 O 0.72286 0.41722 0.31874 0.0
Cd112 Cd 0.60138 0.37193 0.36006 0.0
C113 C 0.58706 0.45821 0.24924 0.0
O114 O 0.63217 0.44678 0.44248 0.0
O115 O 0.52168 0.39919 0.41598 0.0
O116 O 0.6229 0.29107 0.41048 0.0
C117 C 0.56856 0.43064 0.45436 0.0
O118 O 0.62189 0.51165 0.28063 0.0
C119 C 0.56276 0.23677 0.40187 0.0
O120 O 0.57332 0.39829 0.26602 0.0
O121 O 0.51975 0.24263 0.36838 0.0
C122 C 0.32051 0.54176 0.56011 0.0
O123 O 0.27088 0.48811 0.53588 0.0
Cd124 Cd 0.16635 0.49179 0.50754 0.0
O125 O 0.31934 0.59845 0.56062 0.0
Cd126 Cd 0.24843 0.64802 0.51895 0.0
C127 C 0.14305 0.56363 0.62999 0.0
O128 O 0.20119 0.57684 0.43313 0.0
O129 O 0.14202 0.62527 0.46228 0.0
O130 O 0.3569 0.73271 0.47294 0.0
C131 C 0.15527 0.59466 0.42252 0.0
O132 O 0.12057 0.51017 0.59829 0.0
C133 C 0.35205 0.78607 0.48363 0.0
O134 O 0.19266 0.62281 0.61299 0.0
O135 O 0.30081 0.77724 0.51588 0.0
C136 C 0.7815 0.31238 0.73382 0.0
O137 O 0.79074 0.26657 0.70955 0.0
Cd138 Cd 0.68641 0.16258 0.67722 0.0
O139 O 0.72098 0.30893 0.732 0.0
Cd140 Cd 0.60296 0.23992 0.68493 0.0
C141 C 0.57937 0.13683 0.7941 0.0
O142 O 0.63282 0.19389 0.60299 0.0
O143 O 0.52232 0.13496 0.63033 0.0
O144 O 0.62677 0.34286 0.63509 0.0
C145 C 0.56863 0.14834 0.59172 0.0
O146 O 0.61574 0.11745 0.76475 0.0
C147 C 0.56728 0.33933 0.64446 0.0
O148 O 0.56714 0.18368 0.77594 0.0
O149 O 0.52376 0.29118 0.67758 0.0
C150 C 0.22676 0.54619 0.81926 0.0
O151 O 0.21892 0.49121 0.84232 0.0
Cd152 Cd 0.32272 0.48666 0.87034 0.0
O153 O 0.28766 0.60183 0.81874 0.0
Cd154 Cd 0.40914 0.64711 0.86006 0.0
C155 C 0.42346 0.56082 0.74924 0.0
O156 O 0.37834 0.57226 0.94248 0.0
O157 O 0.48884 0.61984 0.91598 0.0
O158 O 0.38762 0.72797 0.91048 0.0
C159 C 0.44195 0.5884 -0.04564 0.0
O160 O 0.38862 0.50738 0.78063 0.0
C161 C 0.44777 0.78227 0.90187 0.0
O162 O 0.4372 0.62074 0.76602 0.0
O163 O 0.49078 0.7764 0.86838 0.0
C164 C 0.69001 0.47728 0.06011 0.0
O165 O 0.73964 0.53093 0.03588 0.0
Cd166 Cd 0.84417 0.52725 0.00753 0.0
O167 O 0.69117 0.42058 0.06062 0.0
Cd168 Cd 0.7621 0.37102 0.01895 0.0
C169 C 0.86748 0.45541 0.12999 0.0
O170 O 0.80932 0.4422 0.93313 0.0
O171 O 0.8685 0.39377 -0.03772 0.0
O172 O 0.65363 0.28633 -0.02705 0.0
C173 C 0.85525 0.42438 0.92252 0.0
O174 O 0.88995 0.50888 0.09829 0.0
C175 C 0.65848 0.23297 -0.01637 0.0
O176 O 0.81786 0.39624 0.11299 0.0
O177 O 0.70972 0.24181 0.01588 0.0
C178 C 0.22902 0.70667 0.23382 0.0
O179 O 0.21979 0.75248 0.20955 0.0
Cd180 Cd 0.32412 0.85646 0.17722 0.0
O181 O 0.28954 0.71011 0.232 0.0
Cd182 Cd 0.40757 0.77912 0.18493 0.0
C183 C 0.43116 0.88221 0.2941 0.0
O184 O 0.37771 0.82515 0.10299 0.0
O185 O 0.48821 0.88407 0.13033 0.0
O186 O 0.38375 0.67618 0.13509 0.0
C187 C 0.44189 0.8707 0.09172 0.0
O188 O 0.3948 0.9016 0.26475 0.0
C189 C 0.44324 0.67971 0.14446 0.0
O190 O 0.44339 0.83536 0.27594 0.0
O191 O 0.48676 0.72785 0.17758 0.0
loop_
_geom_bond_atom_site_label_1
_geom_bond_atom_site_label_2
_geom_bond_distance
_geom_bond_site_symmetry_2
_ccdc_geom_bond_type
H0 C6 0.930 . S
H1 C9 0.931 . S
H2 C11 0.931 . S
H3 C13 0.930 . S
H4 C15 0.930 . S
H5 C17 0.931 . S
C6 H0 0.930 . S
C6 C7 1.380 . S
C6 C8 1.394 . S
C7 C6 1.380 . S
C7 C11 1.382 . S
C8 C6 1.394 . S
C8 C9 1.400 . S
C9 H1 0.931 . S
C9 C8 1.400 . S
C9 C10 1.375 . S
C10 C9 1.375 . S
C10 C11 1.415 . S
C10 C12 1.501 1_455 S
C11 H2 0.931 . S
C11 C7 1.382 . S
C11 C10 1.415 . S
C12 C10 1.501 1_655 S
C12 C13 1.384 . S
C12 C17 1.408 . S
C13 H3 0.930 . S
C13 C12 1.384 . S
C13 C14 1.389 . S
C14 C13 1.389 . S
C14 C15 1.405 . S
C15 H4 0.930 . S
C15 C14 1.405 . S
C15 C16 1.364 . S
C16 C15 1.364 . S
C16 C17 1.400 . S
C17 H5 0.931 . S
C17 C12 1.408 . S
C17 C16 1.400 . S
H18 C24 0.930 . S
H19 C27 0.931 . S
H20 C29 0.931 . S
H21 C31 0.930 . S
H22 C33 0.930 . S
H23 C35 0.931 . S
C24 H18 0.930 . S
C24 C25 1.380 . S
C24 C26 1.394 . S
C25 C24 1.380 . S
C25 C29 1.382 . S
C26 C24 1.394 . S
C26 C27 1.400 . S
C27 H19 0.931 . S
C27 C26 1.400 . S
C27 C28 1.375 . S
C28 C27 1.375 . S
C28 C29 1.415 . S
C28 C30 1.501 1_545 S
C29 H20 0.931 . S
C29 C25 1.382 . S
C29 C28 1.415 . S
C30 C28 1.501 1_565 S
C30 C31 1.384 . S
C30 C35 1.408 . S
C31 H21 0.930 . S
C31 C30 1.384 . S
C31 C32 1.389 . S
C32 C31 1.389 . S
C32 C33 1.405 . S
C33 H22 0.930 . S
C33 C32 1.405 . S
C33 C34 1.364 . S
C34 C33 1.364 . S
C34 C35 1.400 . S
C35 H23 0.931 . S
C35 C30 1.408 . S
C35 C34 1.400 . S
H36 C42 0.930 . S
H37 C45 0.931 . S
H38 C47 0.931 . S
H39 C49 0.930 . S
H40 C51 0.930 . S
H41 C53 0.931 . S
C42 H36 0.930 . S
C42 C43 1.380 . S
C42 C44 1.394 . S
C43 C42 1.380 . S
C43 C47 1.382 . S
C44 C42 1.394 . S
C44 C45 1.400 . S
C45 H37 0.931 . S
C45 C44 1.400 . S
C45 C46 1.375 . S
C46 C45 1.375 . S
C46 C47 1.415 . S
C46 C48 1.501 . S
C47 H38 0.931 . S
C47 C43 1.382 . S
C47 C46 1.415 . S
C48 C46 1.501 . S
C48 C49 1.384 . S
C48 C53 1.408 . S
C49 H39 0.930 . S
C49 C48 1.384 . S
C49 C50 1.389 . S
C50 C49 1.389 . S
C50 C51 1.405 . S
C51 H40 0.930 . S
C51 C50 1.405 . S
C51 C52 1.364 . S
C52 C51 1.364 . S
C52 C53 1.400 . S
C53 H41 0.931 . S
C53 C48 1.408 . S
C53 C52 1.400 . S
H54 C60 0.930 . S
H55 C63 0.931 . S
H56 C65 0.931 . S
H57 C67 0.930 . S
H58 C69 0.930 . S
H59 C71 0.931 . S
C60 H54 0.930 . S
C60 C61 1.380 . S
C60 C62 1.394 . S
C61 C60 1.380 . S
C61 C65 1.382 . S
C62 C60 1.394 . S
C62 C63 1.400 . S
C63 H55 0.931 . S
C63 C62 1.400 . S
C63 C64 1.375 . S
C64 C63 1.375 . S
C64 C65 1.415 . S
C64 C66 1.501 1_455 S
C65 H56 0.931 . S
C65 C61 1.382 . S
C65 C64 1.415 . S
C66 C64 1.501 1_655 S
C66 C67 1.384 . S
C66 C71 1.408 . S
C67 H57 0.930 . S
C67 C66 1.384 . S
C67 C68 1.389 . S
C68 C67 1.389 . S
C68 C69 1.405 . S
C69 H58 0.930 . S
C69 C68 1.405 . S
C69 C70 1.364 . S
C70 C69 1.364 . S
C70 C71 1.400 . S
C71 H59 0.931 . S
C71 C66 1.408 . S
C71 C70 1.400 . S
H72 C78 0.930 . S
H73 C81 0.931 . S
H74 C83 0.931 . S
H75 C85 0.930 . S
H76 C87 0.930 . S
H77 C89 0.931 . S
C78 H72 0.930 . S
C78 C79 1.380 . S
C78 C80 1.394 1_554 S
C79 C78 1.380 . S
C79 C83 1.382 . S
C80 C78 1.394 1_556 S
C80 C81 1.400 . S
C81 H73 0.931 . S
C81 C80 1.400 . S
C81 C82 1.375 1_556 S
C82 C81 1.375 1_554 S
C82 C83 1.415 . S
C82 C84 1.501 1_564 S
C83 H74 0.931 . S
C83 C79 1.382 . S
C83 C82 1.415 . S
C84 C82 1.501 1_546 S
C84 C85 1.384 1_556 S
C84 C89 1.408 . S
C85 H75 0.930 . S
C85 C84 1.384 1_554 S
C85 C86 1.389 . S
C86 C85 1.389 . S
C86 C87 1.405 1_554 S
C87 H76 0.930 . S
C87 C86 1.405 1_556 S
C87 C88 1.364 . S
C88 C87 1.364 . S
C88 C89 1.400 . S
C89 H77 0.931 . S
C89 C84 1.408 . S
C89 C88 1.400 . S
H90 C96 0.930 . S
H91 C99 0.931 . S
H92 C101 0.931 . S
H93 C103 0.930 . S
H94 C105 0.930 . S
H95 C107 0.931 . S
C96 H90 0.930 . S
C96 C97 1.380 . S
C96 C98 1.394 . S
C97 C96 1.380 . S
C97 C101 1.382 . S
C98 C96 1.394 . S
C98 C99 1.400 . S
C99 H91 0.931 . S
C99 C98 1.400 . S
C99 C100 1.375 . S
C100 C99 1.375 . S
C100 C101 1.415 . S
C100 C102 1.501 . S
C101 H92 0.931 . S
C101 C97 1.382 . S
C101 C100 1.415 . S
C102 C100 1.501 . S
C102 C103 1.384 . S
C102 C107 1.408 . S
C103 H93 0.930 . S
C103 C102 1.384 . S
C103 C104 1.389 . S
C104 C103 1.389 . S
C104 C105 1.405 . S
C105 H94 0.930 . S
C105 C104 1.405 . S
C105 C106 1.364 . S
C106 C105 1.364 . S
C106 C107 1.400 . S
C107 H95 0.931 . S
C107 C102 1.408 . S
C107 C106 1.400 . S
C108 O109 1.306 . S
C108 O111 1.160 . S
O109 C108 1.306 . S
O109 Cd110 2.228 . S
Cd110 O109 2.228 . S
Cd110 O114 2.273 . S
Cd110 O118 2.277 . S
O111 C108 1.160 . S
O111 Cd112 2.203 . S
Cd112 O111 2.203 . S
Cd112 O114 2.411 . S
Cd112 O115 2.333 . S
Cd112 O116 2.352 . S
Cd112 O120 2.277 . S
Cd112 O121 2.356 . S
C113 O118 1.209 . S
C113 O120 1.226 . S
O114 Cd110 2.273 . S
O114 Cd112 2.411 . S
O114 C117 1.320 . S
O115 Cd112 2.333 . S
O115 C117 1.214 . S
O116 Cd112 2.352 . S
O116 C119 1.258 . S
C117 O114 1.320 . S
C117 O115 1.214 . S
O118 Cd110 2.277 . S
O118 C113 1.209 . S
C119 O116 1.258 . S
C119 O121 1.282 . S
O120 Cd112 2.277 . S
O120 C113 1.226 . S
O121 Cd112 2.356 . S
O121 C119 1.282 . S
C122 O123 1.306 . S
C122 O125 1.160 . S
O123 C122 1.306 . S
O123 Cd124 2.228 . S
Cd124 O123 2.228 . S
Cd124 O128 2.273 . S
Cd124 O132 2.277 . S
O125 C122 1.160 . S
O125 Cd126 2.203 . S
Cd126 O125 2.203 . S
Cd126 O128 2.411 . S
Cd126 O129 2.333 . S
Cd126 O130 2.352 . S
Cd126 O134 2.277 . S
Cd126 O135 2.356 . S
C127 O132 1.209 . S
C127 O134 1.226 . S
O128 Cd124 2.273 . S
O128 Cd126 2.411 . S
O128 C131 1.320 . S
O129 Cd126 2.333 . S
O129 C131 1.214 . S
O130 Cd126 2.352 . S
O130 C133 1.258 . S
C131 O128 1.320 . S
C131 O129 1.214 . S
O132 Cd124 2.277 . S
O132 C127 1.209 . S
C133 O130 1.258 . S
C133 O135 1.282 . S
O134 Cd126 2.277 . S
O134 C127 1.226 . S
O135 Cd126 2.356 . S
O135 C133 1.282 . S
C136 O137 1.306 . S
C136 O139 1.160 . S
O137 C136 1.306 . S
O137 Cd138 2.228 . S
Cd138 O137 2.228 . S
Cd138 O142 2.273 . S
Cd138 O146 2.277 . S
O139 C136 1.160 . S
O139 Cd140 2.203 . S
Cd140 O139 2.203 . S
Cd140 O142 2.411 . S
Cd140 O143 2.333 . S
Cd140 O144 2.352 . S
Cd140 O148 2.277 . S
Cd140 O149 2.356 . S
C141 O146 1.209 . S
C141 O148 1.226 . S
O142 Cd138 2.273 . S
O142 Cd140 2.411 . S
O142 C145 1.320 . S
O143 Cd140 2.333 . S
O143 C145 1.214 . S
O144 Cd140 2.352 . S
O144 C147 1.258 . S
C145 O142 1.320 . S
C145 O143 1.214 . S
O146 Cd138 2.277 . S
O146 C141 1.209 . S
C147 O144 1.258 . S
C147 O149 1.282 . S
O148 Cd140 2.277 . S
O148 C141 1.226 . S
O149 Cd140 2.356 . S
O149 C147 1.282 . S
C150 O151 1.306 . S
C150 O153 1.160 . S
O151 C150 1.306 . S
O151 Cd152 2.228 . S
Cd152 O151 2.228 . S
Cd152 O156 2.273 . S
Cd152 O160 2.277 . S
O153 C150 1.160 . S
O153 Cd154 2.203 . S
Cd154 O153 2.203 . S
Cd154 O156 2.411 . S
Cd154 O157 2.333 . S
Cd154 O158 2.352 . S
Cd154 O162 2.277 . S
Cd154 O163 2.356 . S
C155 O160 1.209 . S
C155 O162 1.226 . S
O156 Cd152 2.273 . S
O156 Cd154 2.411 . S
O156 C159 1.320 . S
O157 Cd154 2.333 . S
O157 C159 1.214 . S
O158 Cd154 2.352 . S
O158 C161 1.258 . S
C159 O156 1.320 . S
C159 O157 1.214 . S
O160 Cd152 2.277 . S
O160 C155 1.209 . S
C161 O158 1.258 . S
C161 O163 1.282 . S
O162 Cd154 2.277 . S
O162 C155 1.226 . S
O163 Cd154 2.356 . S
O163 C161 1.282 . S
C164 O165 1.306 . S
C164 O167 1.160 . S
O165 C164 1.306 . S
O165 Cd166 2.228 . S
Cd166 O165 2.228 . S
Cd166 O170 2.273 1_554 S
Cd166 O174 2.277 . S
O167 C164 1.160 . S
O167 Cd168 2.203 . S
Cd168 O167 2.203 . S
Cd168 O170 2.411 1_554 S
Cd168 O171 2.333 . S
Cd168 O172 2.352 . S
Cd168 O176 2.277 . S
Cd168 O177 2.356 . S
C169 O174 1.209 . S
C169 O176 1.226 . S
O170 Cd166 2.273 1_556 S
O170 Cd168 2.411 1_556 S
O170 C173 1.320 . S
O171 Cd168 2.333 . S
O171 C173 1.214 1_554 S
O172 Cd168 2.352 . S
O172 C175 1.258 . S
C173 O170 1.320 . S
C173 O171 1.214 1_556 S
O174 Cd166 2.277 . S
O174 C169 1.209 . S
C175 O172 1.258 . S
C175 O177 1.282 . S
O176 Cd168 2.277 . S
O176 C169 1.226 . S
O177 Cd168 2.356 . S
O177 C175 1.282 . S
C178 O179 1.306 . S
C178 O181 1.160 . S
O179 C178 1.306 . S
O179 Cd180 2.228 . S
Cd180 O179 2.228 . S
Cd180 O184 2.273 . S
Cd180 O188 2.277 . S
O181 C178 1.160 . S
O181 Cd182 2.203 . S
Cd182 O181 2.203 . S
Cd182 O184 2.411 . S
Cd182 O185 2.333 . S
Cd182 O186 2.352 . S
Cd182 O190 2.277 . S
Cd182 O191 2.356 . S
C183 O188 1.209 . S
C183 O190 1.226 . S
O184 Cd180 2.273 . S
O184 Cd182 2.411 . S
O184 C187 1.320 . S
O185 Cd182 2.333 . S
O185 C187 1.214 . S
O186 Cd182 2.352 . S
O186 C189 1.258 . S
C187 O184 1.320 . S
C187 O185 1.214 . S
O188 Cd180 2.277 . S
O188 C183 1.209 . S
C189 O186 1.258 . S
C189 O191 1.282 . S
O190 Cd182 2.277 . S
O190 C183 1.226 . S
O191 Cd182 2.356 . S
O191 C189 1.282 . S
C178 C8 1.574 . S
C26 C119 1.570 . S
C50 C122 1.538 . S
C68 C136 1.570 . S
C161 C80 1.570 . S
C104 C164 1.530 . S
C32 C133 1.525 . S
C44 C147 1.557 . S
C62 C150 1.522 . S
C175 C86 1.518 . S
C189 C98 1.556 . S
C108 C14 1.517 . S
C7 C131 1.461 . S
C25 C145 1.462 . S
C155 C52 1.485 . S
C70 C173 1.464 . S
C187 C79 1.464 . S
C113 C106 1.486 . S
C183 C34 1.485 . S
C43 C117 1.451 . S
C127 C61 1.487 . S
C88 C141 1.486 . S
C97 C159 1.451 1_554 S
C16 C169 1.490 . S
