# Generated by pormake.
# Topology anh, (6,3)-cn, num edge types: 1
# Building blocks:
#     Node 0, Type 0, BuildingBlock: GEDQOX_clean_sbu_0, # of connection points: 6
#     Node 1, Type 0, BuildingBlock: GEDQOX_clean_sbu_0, # of connection points: 6
#     Node 2, Type 0, BuildingBlock: GEDQOX_clean_sbu_0, # of connection points: 6
#     Node 3, Type 1, BuildingBlock: CUQRIR_clean_linker_1, # of connection points: 3
#     Node 4, Type 1, BuildingBlock: CUQRIR_clean_linker_1, # of connection points: 3
#     Node 5, Type 1, BuildingBlock: CUQRIR_clean_linker_1, # of connection points: 3
#     Node 6, Type 1, BuildingBlock: CUQRIR_clean_linker_1, # of connection points: 3
#     Node 7, Type 1, BuildingBlock: CUQRIR_clean_linker_1, # of connection points: 3
#     Node 8, Type 1, BuildingBlock: CUQRIR_clean_linker_1, # of connection points: 3
#     Edge 9, Type (0, 1), None
#     Edge 10, Type (0, 1), None
#     Edge 11, Type (0, 1), None
#     Edge 12, Type (0, 1), None
#     Edge 13, Type (0, 1), None
#     Edge 14, Type (0, 1), None
#     Edge 15, Type (0, 1), None
#     Edge 16, Type (0, 1), None
#     Edge 17, Type (0, 1), None
#     Edge 18, Type (0, 1), None
#     Edge 19, Type (0, 1), None
#     Edge 20, Type (0, 1), None
#     Edge 21, Type (0, 1), None
#     Edge 22, Type (0, 1), None
#     Edge 23, Type (0, 1), None
#     Edge 24, Type (0, 1), None
#     Edge 25, Type (0, 1), None
#     Edge 26, Type (0, 1), None
# Relax obj value: 0.512
# Max RMSD: 0.329
# Mean RMSD: 0.209
data_MOF--net-anh--node1-GEDQOX_clean_sbu_0--node2-CUQRIR_clean_linker_1--edge1-none
_symmetry_space_group_name_H-M    P1
_symmetry_Int_Tables_number       1
_symmetry_cell_setting            triclinic
loop_
_symmetry_equiv_pos_as_xyz
'x, y, z'
_cell_length_a     12.666556
_cell_length_b     11.093146
_cell_length_c     19.450342
_cell_angle_alpha  87.258155
_cell_angle_beta   88.244709
_cell_angle_gamma 85.286397
loop_
_atom_site_label
_atom_site_type_symbol
_atom_site_fract_x
_atom_site_fract_y
_atom_site_fract_z
_atom_type_partial_charge
Nd0 Nd 1.14955 0.59207 0.10207 0.0
Nd1 Nd 1.15095 0.48828 0.09825 0.0
C2 C 0.18802 0.82655 0.10776 0.0
C3 C 0.28042 0.88136 0.13818 0.0
C4 C 0.38563 0.84948 0.11533 0.0
C5 C 0.47288 0.89073 0.14775 0.0
C6 C 0.45832 0.9659 0.20394 0.0
C7 C 0.3536 1.00133 0.22569 0.0
C8 C 0.26594 0.95912 0.19358 0.0
C9 C 1.16232 0.53242 0.24341 0.0
C10 C 0.4383 0.53816 0.11629 0.0
C11 C 1.08184 0.27218 0.14089 0.0
C12 C 0.98841 0.22621 0.179 0.0
C13 C 0.91451 0.30379 0.21445 0.0
C14 C 0.82171 0.26078 0.24491 0.0
C15 C 0.79989 0.13995 0.23902 0.0
C16 C 0.87484 1.06168 0.20483 0.0
C17 C 0.96809 0.10422 0.17531 0.0
C18 C 0.20163 0.45495 0.96471 0.0
C19 C 0.86287 0.546 0.10858 0.0
O20 O 0.20827 0.76199 0.05473 0.0
O21 O 1.1219 0.77465 0.14941 0.0
O22 O 1.07189 0.55595 0.21342 0.0
O23 O 0.23228 0.52374 0.19706 0.0
O24 O 0.34781 0.53298 0.07865 0.0
O25 O 0.34785 0.53287 0.07796 0.0
O26 O 1.14819 0.32829 0.17444 0.0
O27 O 1.06378 0.32575 0.0814 0.0
O28 O 0.23713 0.37986 0.01334 0.0
O29 O 1.14628 0.54547 -0.01241 0.0
O30 O 0.95718 0.57231 0.0752 0.0
O31 O 0.95488 0.57436 0.07298 0.0
H32 H 0.40124 0.78966 0.07332 0.0
H33 H 0.55225 0.86224 0.12955 0.0
H34 H 0.33966 1.06106 0.26801 0.0
H35 H 0.1869 0.98536 0.21312 0.0
H36 H 0.92732 0.39836 0.2172 0.0
H37 H 0.76515 0.32236 0.27099 0.0
H38 H 0.85864 0.96858 0.19845 0.0
H39 H 1.02237 1.04269 0.14722 0.0
Nd40 Nd 0.60216 0.09376 0.51465 0.0
Nd41 Nd 0.80891 0.07642 0.51961 0.0
C42 C 0.39742 1.06564 0.52262 0.0
C43 C 0.33687 0.97365 0.49286 0.0
C44 C 0.34719 0.85246 0.51842 0.0
C45 C 0.30451 0.7625 0.48299 0.0
C46 C 0.25008 0.79235 0.42222 0.0
C47 C 0.23488 0.9131 0.39833 0.0
C48 C 0.27893 1.00311 0.433 0.0
C49 C 0.686 0.09293 0.37933 0.0
C50 C 0.72705 0.80877 0.53088 0.0
C51 C 1.01009 0.10556 0.49385 0.0
C52 C 1.04904 0.20555 0.45157 0.0
C53 C 0.98588 0.26035 0.39853 0.0
C54 C 1.01037 0.37016 0.36694 0.0
C55 C 1.09934 0.42396 0.38641 0.0
C56 C 1.16675 0.36495 0.43595 0.0
C57 C 1.13967 0.25834 0.47007 0.0
C58 C 0.71472 0.08033 0.65258 0.0
C59 C 0.6945 0.35997 0.51822 0.0
O60 O 0.4625 1.02725 0.5712 0.0
O61 O 0.43909 0.14161 0.47845 0.0
O62 O 0.61882 0.17532 0.40379 0.0
O63 O 0.7141 1.02197 0.42963 0.0
O64 O 0.63944 0.88094 0.54362 0.0
O65 O 0.81318 0.8638 0.51451 0.0
O66 O 0.95794 1.03154 0.46061 0.0
O67 O 0.96234 0.13687 0.55139 0.0
O68 O 0.78999 1.00043 0.63391 0.0
O69 O 0.69147 0.15078 0.60187 0.0
O70 O 0.77771 0.29354 0.49224 0.0
O71 O 0.61643 0.29595 0.54231 0.0
H72 H 0.39163 0.82604 0.56418 0.0
H73 H 0.31561 0.66918 0.50202 0.0
H74 H 0.19199 0.9367 0.35165 0.0
H75 H 0.27352 0.0942 0.41033 0.0
H76 H 0.91366 0.22256 0.38474 0.0
H77 H 0.95644 0.41775 0.33121 0.0
H78 H 0.23644 0.40616 0.45134 0.0
H79 H 0.18756 0.21914 0.51195 0.0
Nd80 Nd 0.64132 0.68138 0.81385 0.0
Nd81 Nd 0.80355 0.65283 0.79842 0.0
C82 C 0.44716 0.78823 0.81457 0.0
C83 C 0.35234 0.85159 0.8463 0.0
C84 C 0.26567 0.85037 0.80325 0.0
C85 C 0.20595 0.74922 0.81048 0.0
C86 C 0.23236 0.66132 0.86336 0.0
C87 C 0.28608 0.70021 0.91984 0.0
C88 C 0.33409 0.8092 0.91361 0.0
C89 C 0.76108 0.59031 0.9574 0.0
C90 C 0.74811 0.93426 0.78663 0.0
C91 C 0.99687 0.56306 0.77443 0.0
C92 C 1.03256 0.4477 0.74263 0.0
C93 C 1.0284 0.33664 0.78103 0.0
C94 C 1.11325 0.24872 0.77304 0.0
C95 C 0.20719 0.29361 0.74539 0.0
C96 C 0.18539 0.35711 0.68188 0.0
C97 C 1.09998 0.44721 0.68355 0.0
C98 C 0.70601 0.66046 0.66765 0.0
C99 C 0.70495 0.38905 0.80948 0.0
O100 O 0.52954 0.84698 0.79852 0.0
O101 O 0.47109 0.67365 0.83213 0.0
O102 O 0.73514 0.68289 0.91433 0.0
O103 O 0.73424 0.67707 0.91233 0.0
O104 O 0.67559 0.87227 0.76117 0.0
O105 O 0.81864 0.86353 0.82114 0.0
O106 O 0.95174 0.55552 0.83547 0.0
O107 O 0.95291 0.64947 0.73482 0.0
O108 O 0.77594 0.73191 0.684 0.0
O109 O 0.68691 0.59255 0.7187 0.0
O110 O 0.79127 0.43999 0.82387 0.0
O111 O 0.62439 0.47077 0.79585 0.0
H112 H 0.26341 0.90355 0.75505 0.0
H113 H 1.15554 0.73019 0.76918 0.0
H114 H 0.30942 0.64 0.96218 0.0
H115 H 0.38731 0.82989 0.95306 0.0
H116 H 0.97111 0.32412 0.8225 0.0
H117 H 1.11569 0.16821 0.80668 0.0
H118 H 0.24722 0.36477 0.64264 0.0
H119 H 1.09809 0.52357 0.64664 0.0
C120 C 0.62537 0.07513 0.20869 0.0
N121 N 0.69562 0.10101 0.25629 0.0
N122 N 0.54909 1.00843 0.23726 0.0
C123 C 0.6305 0.11747 0.13416 0.0
C124 C 0.5775 0.99279 0.30421 0.0
N125 N 0.66634 1.04947 0.31649 0.0
C126 C 0.52533 0.91009 0.35559 0.0
H127 H 0.54978 0.13282 0.11315 0.0
H128 H 0.67584 1.04674 0.10434 0.0
H129 H 0.67124 0.20232 0.12764 0.0
H130 H 0.5467 0.81497 0.34202 0.0
H131 H 0.43904 0.92686 0.35227 0.0
H132 H 0.54889 0.92099 0.4091 0.0
C133 C 0.74803 0.58308 0.50684 0.0
N134 N 0.73019 0.68329 0.54759 0.0
N135 N 0.69472 0.48456 0.5327 0.0
C136 C 0.79861 0.58814 0.4365 0.0
C137 C 0.63846 0.53602 0.58609 0.0
N138 N 0.67659 0.64175 0.60184 0.0
C139 C 0.51952 0.53406 0.58918 0.0
H140 H 0.73566 0.59953 0.39774 0.0
H141 H 0.84562 0.50162 0.4277 0.0
H142 H 0.84919 0.6651 0.42984 0.0
H143 H 0.48609 0.58635 0.63304 0.0
H144 H 0.49162 0.4422 0.59228 0.0
H145 H 0.48755 0.57938 0.54125 0.0
C146 C 0.26554 0.48151 0.79012 0.0
N147 N 0.23519 0.5335 0.85025 0.0
N148 N 0.26409 0.3584 0.79512 0.0
C149 C 0.3135 0.54671 0.72828 0.0
C150 C 0.25309 0.33839 0.86469 0.0
N151 N 0.22935 0.44321 0.89711 0.0
C152 C 0.25854 0.21426 0.8999 0.0
H153 H 0.25154 0.59664 0.69678 0.0
H154 H 0.3607 0.4812 0.69619 0.0
H155 H 0.36618 0.61385 0.74333 0.0
H156 H 0.18078 0.19831 0.92511 0.0
H157 H 0.31867 0.20832 0.94044 0.0
H158 H 0.28134 0.14297 0.86285 0.0
C159 C 1.13133 0.62926 0.40837 0.0
N160 N 1.11645 0.54481 0.36248 0.0
N161 N 0.20738 0.69995 0.38552 0.0
C162 C 1.08112 0.63286 0.4796 0.0
C163 C 0.23846 0.65706 0.32361 0.0
N164 N 0.18007 0.5654 0.30841 0.0
C165 C 0.33654 0.69003 0.28428 0.0
H166 H 1.01205 0.57759 0.48435 0.0
H167 H 1.0563 0.72782 0.492 0.0
H168 H 1.13995 0.59614 0.51786 0.0
H169 H 0.36268 0.77623 0.3006 0.0
H170 H 0.32369 0.69623 0.22845 0.0
H171 H 0.40087 0.6177 0.29403 0.0
C172 C 0.76166 0.15672 0.81477 0.0
N173 N 0.74753 1.0608 0.77278 0.0
N174 N 0.70626 0.26537 0.79217 0.0
C175 C 0.81641 0.14067 0.88207 0.0
C176 C 0.65906 0.22727 0.73618 0.0
N177 N 0.695 0.11289 0.71967 0.0
C178 C 0.56392 0.29376 0.70474 0.0
H179 H 0.76737 0.08859 0.91916 0.0
H180 H 0.82835 0.22929 0.90351 0.0
H181 H 0.89375 0.08741 0.87502 0.0
H182 H 0.58804 0.38104 0.68421 0.0
H183 H 0.50223 0.3123 0.74549 0.0
H184 H 0.52945 0.24239 0.66462 0.0
C185 C 0.6521 0.54283 0.12403 0.0
N186 N 0.74916 0.55625 0.08319 0.0
N187 N 0.55199 0.54652 0.08927 0.0
C188 C 0.65293 0.5304 0.20098 0.0
C189 C 0.59586 0.56382 0.02412 0.0
N190 N 0.70628 0.57526 0.01986 0.0
C191 C 0.53076 0.55782 0.96243 0.0
H192 H 0.61813 0.44516 0.21832 0.0
H193 H 0.6014 0.60601 0.22257 0.0
H194 H 0.73387 0.53156 0.22092 0.0
H195 H 0.49645 0.65066 0.95213 0.0
H196 H 0.467 0.49598 0.97159 0.0
H197 H 0.57912 0.5262 0.91772 0.0
loop_
_geom_bond_atom_site_label_1
_geom_bond_atom_site_label_2
_geom_bond_distance
_geom_bond_site_symmetry_2
_ccdc_geom_bond_type
Nd0 C2 2.836 . S
Nd0 O20 2.500 . S
Nd0 O21 2.492 . S
Nd0 O22 2.487 . S
Nd0 O23 2.682 1_455 S
Nd0 O24 2.410 . S
Nd0 O29 2.414 . S
Nd0 O31 2.424 1_455 S
Nd1 C11 2.836 . S
Nd1 O23 2.414 . S
Nd1 O25 2.424 1_655 S
Nd1 O26 2.500 . S
Nd1 O27 2.492 . S
Nd1 O28 2.487 1_554 S
Nd1 O29 2.682 1_655 S
Nd1 O30 2.410 . S
C2 Nd0 2.836 . S
C2 C3 1.498 . S
C2 O20 1.258 . S
C2 O21 1.239 . S
C3 C2 1.498 . S
C3 C4 1.366 . S
C3 C8 1.407 . S
C4 C3 1.366 . S
C4 C5 1.392 . S
C4 H32 0.930 . S
C5 C4 1.392 . S
C5 C6 1.398 . S
C5 H33 0.929 . S
C6 C5 1.398 . S
C6 C7 1.352 . S
C7 C6 1.352 . S
C7 C8 1.384 . S
C7 H34 0.930 . S
C8 C3 1.407 . S
C8 C7 1.384 . S
C8 H35 0.929 . S
C9 O22 1.241 . S
C9 O23 1.273 1_455 S
C10 O24 1.251 . S
C10 O25 1.268 . S
C11 Nd1 2.836 . S
C11 C12 1.498 . S
C11 O26 1.258 . S
C11 O27 1.239 . S
C12 C11 1.498 . S
C12 C13 1.366 . S
C12 C17 1.407 . S
C13 C12 1.366 . S
C13 C14 1.392 . S
C13 H36 0.930 . S
C14 C13 1.392 . S
C14 C15 1.398 1_545 S
C14 H37 0.929 . S
C15 C14 1.398 1_565 S
C15 C16 1.352 . S
C16 C15 1.352 . S
C16 C17 1.384 1_565 S
C16 H38 0.930 . S
C17 C12 1.407 . S
C17 C16 1.384 1_545 S
C17 H39 0.929 . S
C18 O28 1.241 1_455 S
C18 O29 1.273 1_556 S
C19 O30 1.251 . S
C19 O31 1.268 . S
O20 Nd0 2.500 . S
O20 C2 1.258 . S
O21 Nd0 2.492 . S
O21 C2 1.239 . S
O22 Nd0 2.487 . S
O22 C9 1.241 . S
O23 Nd0 2.682 1_655 S
O23 Nd1 2.414 . S
O23 C9 1.273 1_655 S
O24 Nd0 2.410 . S
O24 C10 1.251 . S
O25 Nd1 2.424 1_455 S
O25 C10 1.268 . S
O26 Nd1 2.500 . S
O26 C11 1.258 . S
O27 Nd1 2.492 . S
O27 C11 1.239 . S
O28 Nd1 2.487 1_556 S
O28 C18 1.241 1_655 S
O29 Nd0 2.414 . S
O29 Nd1 2.682 1_455 S
O29 C18 1.273 1_554 S
O30 Nd1 2.410 . S
O30 C19 1.251 . S
O31 Nd0 2.424 1_655 S
O31 C19 1.268 . S
H32 C4 0.930 . S
H33 C5 0.929 . S
H34 C7 0.930 . S
H35 C8 0.929 . S
H36 C13 0.930 . S
H37 C14 0.929 . S
H38 C16 0.930 . S
H39 C17 0.929 . S
Nd40 C42 2.836 . S
Nd40 O60 2.500 . S
Nd40 O61 2.492 . S
Nd40 O62 2.487 . S
Nd40 O63 2.682 1_565 S
Nd40 O64 2.410 . S
Nd40 O69 2.414 . S
Nd40 O71 2.424 1_565 S
Nd41 C51 2.836 . S
Nd41 O63 2.414 . S
Nd41 O65 2.424 1_545 S
Nd41 O66 2.500 . S
Nd41 O67 2.492 . S
Nd41 O68 2.487 . S
Nd41 O69 2.682 1_545 S
Nd41 O70 2.410 . S
C42 Nd40 2.836 . S
C42 C43 1.498 . S
C42 O60 1.258 . S
C42 O61 1.239 . S
C43 C42 1.498 . S
C43 C44 1.366 . S
C43 C48 1.407 . S
C44 C43 1.366 . S
C44 C45 1.392 . S
C44 H72 0.930 . S
C45 C44 1.392 . S
C45 C46 1.398 . S
C45 H73 0.929 . S
C46 C45 1.398 . S
C46 C47 1.352 . S
C47 C46 1.352 . S
C47 C48 1.384 . S
C47 H74 0.930 . S
C48 C43 1.407 . S
C48 C47 1.384 . S
C48 H75 0.929 . S
C49 O62 1.241 1_545 S
C49 O63 1.273 . S
C50 O64 1.251 . S
C50 O65 1.268 . S
C51 Nd41 2.836 . S
C51 C52 1.498 . S
C51 O66 1.258 . S
C51 O67 1.239 . S
C52 C51 1.498 . S
C52 C53 1.366 . S
C52 C57 1.407 . S
C53 C52 1.366 . S
C53 C54 1.392 . S
C53 H76 0.930 . S
C54 C53 1.392 . S
C54 C55 1.398 . S
C54 H77 0.929 . S
C55 C54 1.398 . S
C55 C56 1.352 . S
C56 C55 1.352 . S
C56 C57 1.384 . S
C56 H78 0.930 . S
C57 C52 1.407 . S
C57 C56 1.384 . S
C57 H79 0.929 . S
C58 O68 1.241 1_565 S
C58 O69 1.273 . S
C59 O70 1.251 . S
C59 O71 1.268 . S
O60 Nd40 2.500 . S
O60 C42 1.258 . S
O61 Nd40 2.492 . S
O61 C42 1.239 . S
O62 Nd40 2.487 . S
O62 C49 1.241 1_565 S
O63 Nd40 2.682 1_545 S
O63 Nd41 2.414 . S
O63 C49 1.273 . S
O64 Nd40 2.410 . S
O64 C50 1.251 . S
O65 Nd41 2.424 1_565 S
O65 C50 1.268 . S
O66 Nd41 2.500 . S
O66 C51 1.258 . S
O67 Nd41 2.492 . S
O67 C51 1.239 . S
O68 Nd41 2.487 . S
O68 C58 1.241 1_545 S
O69 Nd40 2.414 . S
O69 Nd41 2.682 1_565 S
O69 C58 1.273 . S
O70 Nd41 2.410 . S
O70 C59 1.251 . S
O71 Nd40 2.424 1_545 S
O71 C59 1.268 . S
H72 C44 0.930 . S
H73 C45 0.929 . S
H74 C47 0.930 . S
H75 C48 0.929 . S
H76 C53 0.930 . S
H77 C54 0.929 . S
H78 C56 0.930 . S
H79 C57 0.929 . S
Nd80 C82 2.836 . S
Nd80 O100 2.500 . S
Nd80 O101 2.492 . S
Nd80 O102 2.487 . S
Nd80 O103 2.682 . S
Nd80 O104 2.410 . S
Nd80 O109 2.414 . S
Nd80 O111 2.424 . S
Nd81 C91 2.836 . S
Nd81 O103 2.414 . S
Nd81 O105 2.424 . S
Nd81 O106 2.500 . S
Nd81 O107 2.492 . S
Nd81 O108 2.487 . S
Nd81 O109 2.682 . S
Nd81 O110 2.410 . S
C82 Nd80 2.836 . S
C82 C83 1.498 . S
C82 O100 1.258 . S
C82 O101 1.239 . S
C83 C82 1.498 . S
C83 C84 1.366 . S
C83 C88 1.407 . S
C84 C83 1.366 . S
C84 C85 1.392 . S
C84 H112 0.930 . S
C85 C84 1.392 . S
C85 C86 1.398 . S
C85 H113 0.929 . S
C86 C85 1.398 . S
C86 C87 1.352 . S
C87 C86 1.352 . S
C87 C88 1.384 . S
C87 H114 0.930 . S
C88 C83 1.407 . S
C88 C87 1.384 . S
C88 H115 0.929 . S
C89 O102 1.241 . S
C89 O103 1.273 . S
C90 O104 1.251 . S
C90 O105 1.268 . S
C91 Nd81 2.836 . S
C91 C92 1.498 . S
C91 O106 1.258 . S
C91 O107 1.239 . S
C92 C91 1.498 . S
C92 C93 1.366 . S
C92 C97 1.407 . S
C93 C92 1.366 . S
C93 C94 1.392 . S
C93 H116 0.930 . S
C94 C93 1.392 . S
C94 C95 1.398 . S
C94 H117 0.929 . S
C95 C94 1.398 . S
C95 C96 1.352 . S
C96 C95 1.352 . S
C96 C97 1.384 . S
C96 H118 0.930 . S
C97 C92 1.407 . S
C97 C96 1.384 . S
C97 H119 0.929 . S
C98 O108 1.241 . S
C98 O109 1.273 . S
C99 O110 1.251 . S
C99 O111 1.268 . S
O100 Nd80 2.500 . S
O100 C82 1.258 . S
O101 Nd80 2.492 . S
O101 C82 1.239 . S
O102 Nd80 2.487 . S
O102 C89 1.241 . S
O103 Nd80 2.682 . S
O103 Nd81 2.414 . S
O103 C89 1.273 . S
O104 Nd80 2.410 . S
O104 C90 1.251 . S
O105 Nd81 2.424 . S
O105 C90 1.268 . S
O106 Nd81 2.500 . S
O106 C91 1.258 . S
O107 Nd81 2.492 . S
O107 C91 1.239 . S
O108 Nd81 2.487 . S
O108 C98 1.241 . S
O109 Nd80 2.414 . S
O109 Nd81 2.682 . S
O109 C98 1.273 . S
O110 Nd81 2.410 . S
O110 C99 1.251 . S
O111 Nd80 2.424 . S
O111 C99 1.268 . S
H112 C84 0.930 . S
H113 C85 0.929 . S
H114 C87 0.930 . S
H115 C88 0.929 . S
H116 C93 0.930 . S
H117 C94 0.929 . S
H118 C96 0.930 . S
H119 C97 0.929 . S
C120 N121 1.314 1_565 S
C120 N122 1.352 . S
C120 C123 1.484 1_565 S
N121 C120 1.314 1_545 S
N121 N125 1.370 . S
N122 C120 1.352 . S
N122 C124 1.346 . S
C123 C120 1.484 1_545 S
C123 H127 0.960 . S
C123 H128 0.961 1_545 S
C123 H129 0.960 . S
C124 N122 1.346 . S
C124 N125 1.307 1_565 S
C124 C126 1.486 . S
N125 N121 1.370 . S
N125 C124 1.307 1_545 S
C126 C124 1.486 . S
C126 H130 0.960 . S
C126 H131 0.960 . S
C126 H132 0.959 . S
H127 C123 0.960 . S
H128 C123 0.961 1_565 S
H129 C123 0.960 . S
H130 C126 0.960 . S
H131 C126 0.960 . S
H132 C126 0.959 . S
C133 N134 1.317 . S
C133 N135 1.348 . S
C133 C136 1.485 . S
N134 C133 1.317 . S
N134 N138 1.370 . S
N135 C133 1.348 . S
N135 C137 1.346 . S
C136 C133 1.485 . S
C136 H140 0.960 . S
C136 H141 0.961 . S
C136 H142 0.960 . S
C137 N135 1.346 . S
C137 N138 1.307 . S
C137 C139 1.486 . S
N138 N134 1.370 . S
N138 C137 1.307 . S
C139 C137 1.486 . S
C139 H143 0.960 . S
C139 H144 0.960 . S
C139 H145 0.959 . S
H140 C136 0.960 . S
H141 C136 0.961 . S
H142 C136 0.960 . S
H143 C139 0.960 . S
H144 C139 0.960 . S
H145 C139 0.959 . S
C146 N147 1.317 . S
C146 N148 1.348 1_455 S
C146 C149 1.485 . S
N147 C146 1.317 . S
N147 N151 1.370 1_556 S
N148 C146 1.348 1_655 S
N148 C150 1.346 1_556 S
C149 C146 1.485 . S
C149 H153 0.960 . S
C149 H154 0.961 1_455 S
C149 H155 0.960 . S
C150 N148 1.346 1_554 S
C150 N151 1.307 1_655 S
C150 C152 1.486 . S
N151 N147 1.370 1_554 S
N151 C150 1.307 1_455 S
C152 C150 1.486 . S
C152 H156 0.960 . S
C152 H157 0.960 . S
C152 H158 0.959 . S
H153 C149 0.960 . S
H154 C149 0.961 1_655 S
H155 C149 0.960 . S
H156 C152 0.960 . S
H157 C152 0.960 . S
H158 C152 0.959 . S
C159 N160 1.317 1_455 S
C159 N161 1.348 . S
C159 C162 1.485 . S
N160 C159 1.317 1_655 S
N160 N164 1.370 1_655 S
N161 C159 1.348 . S
N161 C163 1.346 . S
C162 C159 1.485 . S
C162 H166 0.960 1_455 S
C162 H167 0.961 . S
C162 H168 0.960 1_455 S
C163 N161 1.346 . S
C163 N164 1.307 . S
C163 C165 1.486 . S
N164 N160 1.370 1_455 S
N164 C163 1.307 . S
C165 C163 1.486 . S
C165 H169 0.960 . S
C165 H170 0.960 . S
C165 H171 0.959 . S
H166 C162 0.960 1_655 S
H167 C162 0.961 . S
H168 C162 0.960 1_655 S
H169 C165 0.960 . S
H170 C165 0.960 . S
H171 C165 0.959 . S
C172 N173 1.317 1_545 S
C172 N174 1.348 . S
C172 C175 1.485 . S
N173 C172 1.317 1_565 S
N173 N177 1.370 1_565 S
N174 C172 1.348 . S
N174 C176 1.346 . S
C175 C172 1.485 . S
C175 H179 0.960 . S
C175 H180 0.961 . S
C175 H181 0.960 1_545 S
C176 N174 1.346 . S
C176 N177 1.307 . S
C176 C178 1.486 . S
N177 N173 1.370 1_545 S
N177 C176 1.307 . S
C178 C176 1.486 . S
C178 H182 0.960 . S
C178 H183 0.960 . S
C178 H184 0.959 . S
H179 C175 0.960 . S
H180 C175 0.961 . S
H181 C175 0.960 1_565 S
H182 C178 0.960 . S
H183 C178 0.960 . S
H184 C178 0.959 . S
C185 N186 1.317 . S
C185 N187 1.348 . S
C185 C188 1.485 . S
N186 C185 1.317 . S
N186 N190 1.370 . S
N187 C185 1.348 . S
N187 C189 1.346 . S
C188 C185 1.485 . S
C188 H192 0.960 . S
C188 H193 0.961 . S
C188 H194 0.960 . S
C189 N187 1.346 . S
C189 N190 1.307 . S
C189 C191 1.486 1_554 S
N190 N186 1.370 . S
N190 C189 1.307 . S
C191 C189 1.486 1_556 S
C191 H195 0.960 1_556 S
C191 H196 0.960 . S
C191 H197 0.959 . S
H192 C188 0.960 . S
H193 C188 0.961 . S
H194 C188 0.960 . S
H195 C191 0.960 1_554 S
H196 C191 0.960 . S
H197 C191 0.959 . S
C10 N187 4.572 . S
C55 N160 1.953 . S
C90 N173 2.596 . S
C19 N186 5.109 . S
N161 C46 2.773 . S
N174 C99 2.731 . S
C50 N134 2.377 . S
C95 N148 4.208 . S
C6 N122 2.275 . S
N135 C59 2.505 . S
N147 C86 3.953 . S
C15 N121 3.462 1_565 S
N151 C18 1.786 1_554 S
C49 N125 1.207 . S
C98 N138 1.015 . S
N177 C58 1.278 1_545 S
N190 C89 2.067 1_554 S
C9 N164 1.380 . S
