# Generated by pormake.
# Topology rtl, (3,6)-cn, num edge types: 1
# Building blocks:
#     Node 0, Type 0, BuildingBlock: KAKCAD_clean_linker_0, # of connection points: 3
#     Node 1, Type 0, BuildingBlock: KAKCAD_clean_linker_0, # of connection points: 3
#     Node 2, Type 0, BuildingBlock: KAKCAD_clean_linker_0, # of connection points: 3
#     Node 3, Type 0, BuildingBlock: KAKCAD_clean_linker_0, # of connection points: 3
#     Node 4, Type 1, BuildingBlock: LEVNOQ01_clean_sbu_1, # of connection points: 6
#     Node 5, Type 1, BuildingBlock: LEVNOQ01_clean_sbu_1, # of connection points: 6
#     Edge 6, Type (0, 1), None
#     Edge 7, Type (0, 1), None
#     Edge 8, Type (0, 1), None
#     Edge 9, Type (0, 1), None
#     Edge 10, Type (0, 1), None
#     Edge 11, Type (0, 1), None
#     Edge 12, Type (0, 1), None
#     Edge 13, Type (0, 1), None
#     Edge 14, Type (0, 1), None
#     Edge 15, Type (0, 1), None
#     Edge 16, Type (0, 1), None
#     Edge 17, Type (0, 1), None
# Relax obj value: 0.026
# Max RMSD: 0.059
# Mean RMSD: 0.045
data_MOF--net-rtl--node1-LEVNOQ01_clean_sbu_1--node2-KAKCAD_clean_linker_0--edge1-none
_symmetry_space_group_name_H-M    P1
_symmetry_Int_Tables_number       1
_symmetry_cell_setting            triclinic
loop_
_symmetry_equiv_pos_as_xyz
'x, y, z'
_cell_length_a     21.058907
_cell_length_b     22.691097
_cell_length_c     16.467839
_cell_angle_alpha  89.682101
_cell_angle_beta   98.925951
_cell_angle_gamma 89.864074
loop_
_atom_site_label
_atom_site_type_symbol
_atom_site_fract_x
_atom_site_fract_y
_atom_site_fract_z
_atom_type_partial_charge
C0 C 0.1301 0.95696 0.80697 0.0
C1 C 0.10655 0.01496 0.80237 0.0
C2 C 0.1654 0.93527 0.87998 0.0
C3 C 0.17941 0.97152 0.94971 0.0
C4 C 0.15666 0.03003 0.94416 0.0
C5 C 0.12008 0.05125 0.87169 0.0
C6 C 0.21718 0.94827 0.02778 0.0
C7 C 0.26564 0.90599 0.02564 0.0
C8 C 0.29917 0.88151 0.09827 0.0
C9 C 0.28653 0.90164 0.17441 0.0
C10 C 0.23876 0.94472 0.17881 0.0
C11 C 0.20377 0.96685 0.1048 0.0
C12 C 0.2216 0.96324 0.25984 0.0
C13 C 0.22705 0.92313 0.32602 0.0
C14 C 0.19476 0.01929 0.27009 0.0
C15 C 0.16776 0.03217 0.34059 0.0
C16 C 0.16843 0.9898 0.40315 0.0
C17 C 0.34621 0.83372 0.09272 0.0
C18 C 0.33839 0.77749 0.12631 0.0
C19 C 0.39482 0.84244 0.0449 0.0
C20 C 0.4323 0.79529 0.02642 0.0
C21 C 0.42174 0.73795 0.05461 0.0
C22 C 0.37595 0.72973 0.10725 0.0
C23 C 0.20181 0.93663 0.39707 0.0
H24 H 0.11969 0.92774 0.75482 0.0
H25 H 0.1805 0.88959 0.88191 0.0
H26 H 0.16735 0.05977 0.99562 0.0
H27 H 0.10281 0.09633 0.86973 0.0
H28 H 0.27707 0.89115 0.96716 0.0
H29 H 0.16404 0.99682 0.10692 0.0
H30 H 0.31452 0.88373 0.22978 0.0
H31 H 0.24678 0.87943 0.32151 0.0
H32 H 0.1919 0.05246 0.22217 0.0
H33 H 0.14302 0.07382 0.34372 0.0
H34 H 0.30087 0.76984 0.16326 0.0
H35 H 0.40213 0.88547 0.01904 0.0
H36 H 0.20377 0.90296 0.4443 0.0
H37 H 0.36689 0.68618 0.13008 0.0
H38 H 0.46798 0.80359 0.98695 0.0
C39 C 0.69715 0.631 0.88278 0.0
C40 C 0.66337 0.57831 0.88996 0.0
C41 C 0.72507 0.64264 0.81309 0.0
C42 C 0.7218 0.60116 0.74946 0.0
C43 C 0.69417 0.5457 0.76108 0.0
C44 C 0.66463 0.53461 0.83023 0.0
C45 C 0.74161 0.61792 0.66906 0.0
C46 C 0.79011 0.66015 0.66507 0.0
C47 C 0.80438 0.67969 0.58911 0.0
C48 C 0.77184 0.65522 0.51637 0.0
C49 C 0.72295 0.61355 0.51823 0.0
C50 C 0.70792 0.5956 0.59494 0.0
C51 C 0.68584 0.59074 0.44013 0.0
C52 C 0.67195 0.62736 0.37015 0.0
C53 C 0.66311 0.5324 0.43513 0.0
C54 C 0.62635 0.51174 0.36299 0.0
C55 C 0.61254 0.54848 0.29353 0.0
C56 C 0.85111 0.72771 0.58397 0.0
C57 C 0.84416 0.78267 0.62094 0.0
C58 C 0.89873 0.72072 0.53417 0.0
C59 C 0.93624 0.76839 0.5176 0.0
C60 C 0.92682 0.82451 0.54992 0.0
C61 C 0.88173 0.83088 0.6039 0.0
C62 C 0.63634 0.60625 0.29746 0.0
H63 H 0.69772 0.66559 0.92797 0.0
H64 H 0.74522 0.68598 0.80729 0.0
H65 H 0.69275 0.51163 0.71509 0.0
H66 H 0.63963 0.49329 0.83438 0.0
H67 H 0.81706 0.67814 0.72071 0.0
H68 H 0.66774 0.56622 0.59659 0.0
H69 H 0.78401 0.66979 0.45796 0.0
H70 H 0.68722 0.67291 0.37176 0.0
H71 H 0.67377 0.50246 0.48689 0.0
H72 H 0.60894 0.46681 0.36151 0.0
H73 H 0.80743 0.78909 0.65941 0.0
H74 H 0.90549 0.67868 0.50573 0.0
H75 H 0.62578 0.63577 0.24514 0.0
H76 H 0.87357 0.87343 0.63 0.0
H77 H 0.97126 0.76145 0.47684 0.0
C78 C 0.82317 0.07424 0.28829 0.0
C79 C 0.88425 0.04996 0.28544 0.0
C80 C 0.78431 0.09332 0.21607 0.0
C81 C 0.80632 0.08939 0.1398 0.0
C82 C 0.86799 0.06568 0.13788 0.0
C83 C 0.90603 0.04559 0.20951 0.0
C84 C 0.76734 0.11187 0.06233 0.0
C85 C 0.72904 0.16251 0.0615 0.0
C86 C 0.69949 0.18742 0.98686 0.0
C87 C 0.71237 0.16412 0.91221 0.0
C88 C 0.75 0.11241 0.91147 0.0
C89 C 0.77247 0.08473 0.98737 0.0
C90 C 0.7715 0.09002 0.83423 0.0
C91 C 0.7403 0.1068 0.75529 0.0
C92 C 0.82807 0.05562 0.83905 0.0
C93 C 0.85412 0.04149 0.76907 0.0
C94 C 0.82664 0.06369 0.6922 0.0
C95 C 0.65262 0.23577 0.98903 0.0
C96 C 0.59789 0.22447 0.02502 0.0
C97 C 0.6643 0.29351 0.96363 0.0
C98 C 0.62364 0.34001 0.97943 0.0
C99 C 0.57108 0.32889 0.02061 0.0
C100 C 0.55749 0.27029 0.0402 0.0
C101 C 0.7684 0.09491 0.68528 0.0
H102 H 0.8051 0.07783 0.34618 0.0
H103 H 0.73703 0.11076 0.22012 0.0
H104 H 0.88779 0.06356 0.08109 0.0
H105 H 0.95324 0.02777 0.20557 0.0
H106 H 0.72266 0.18349 0.11864 0.0
H107 H 0.79606 0.04233 0.98922 0.0
H108 H 0.69276 0.18664 0.85583 0.0
H109 H 0.69573 0.13138 0.74714 0.0
H110 H 0.85604 0.04258 0.89693 0.0
H111 H 0.89971 0.01822 0.77677 0.0
H112 H 0.5877 0.1802 0.04436 0.0
H113 H 0.70647 0.303 0.93572 0.0
H114 H 0.74631 0.1126 0.62636 0.0
H115 H 0.5169 0.25989 0.07081 0.0
H116 H 0.6353 0.38468 0.96366 0.0
C117 C 0.2745 0.46598 0.18999 0.0
C118 C 0.33558 0.49188 0.19797 0.0
C119 C 0.24675 0.45262 0.26001 0.0
C120 C 0.28092 0.46247 0.33951 0.0
C121 C 0.3419 0.4893 0.34606 0.0
C122 C 0.3679 0.50513 0.27649 0.0
C123 C 0.25522 0.44326 0.41548 0.0
C124 C 0.21277 0.39505 0.41498 0.0
C125 C 0.19155 0.37664 0.48781 0.0
C126 C 0.21543 0.40431 0.56233 0.0
C127 C 0.25925 0.45086 0.56494 0.0
C128 C 0.27629 0.47154 0.49086 0.0
C129 C 0.29181 0.47475 0.64487 0.0
C130 C 0.30994 0.53442 0.65215 0.0
C131 C 0.31072 0.43674 0.71227 0.0
C132 C 0.34889 0.45731 0.78349 0.0
C133 C 0.37011 0.51594 0.78815 0.0
C134 C 0.14397 0.32881 0.48839 0.0
C135 C 0.08767 0.34037 0.52098 0.0
C136 C 0.15743 0.27069 0.46687 0.0
C137 C 0.11732 0.2242 0.48381 0.0
C138 C 0.06353 0.23564 0.52244 0.0
C139 C 0.04786 0.29445 0.53753 0.0
C140 C 0.34942 0.55454 0.72248 0.0
H141 H 0.24909 0.45459 0.12983 0.0
H142 H 0.19928 0.43335 0.25139 0.0
H143 H 0.37196 0.49576 0.4047 0.0
H144 H 0.41596 0.5234 0.2847 0.0
H145 H 0.19612 0.37152 0.35874 0.0
H146 H 0.30809 0.50888 0.4928 0.0
H147 H 0.2001 0.38896 0.61865 0.0
H148 H 0.29486 0.5655 0.60278 0.0
H149 H 0.2986 0.39039 0.70887 0.0
H150 H 0.36418 0.42664 0.83341 0.0
H151 H 0.07603 0.38489 0.53729 0.0
H152 H 0.20085 0.26088 0.44179 0.0
H153 H 0.36412 0.6003 0.72524 0.0
H154 H 0.00619 0.30496 0.56599 0.0
H155 H 0.13052 0.17934 0.47145 0.0
O156 O 0.87218 0.1154 0.59264 0.0
Mg157 Mg 0.97422 0.11635 0.62038 0.0
O158 O 0.91278 0.02983 0.62698 0.0
Mg159 Mg -0.00516 0.03104 0.54253 0.0
O160 O 0.02773 0.13375 0.5307 0.0
O161 O -0.00131 0.20105 0.61791 0.0
O162 O 0.07954 0.03292 0.45723 0.0
O163 O 0.91788 0.04892 0.4307 0.0
Mg164 Mg 0.01491 0.95286 0.47115 0.0
O165 O 0.95989 0.92771 0.55425 0.0
O166 O 0.11586 0.94938 0.50635 0.0
O167 O 0.97004 0.99226 0.35682 0.0
O168 O -0.00863 0.8678 0.45994 0.0
C169 C 0.06596 0.03681 0.72681 0.0
C170 C 0.8669 0.06642 0.62675 0.0
C171 C 0.02787 0.18795 0.5572 0.0
C172 C 0.124 0.99427 0.46438 0.0
C173 C 0.92561 0.02938 0.36091 0.0
C174 C 0.96117 0.8756 0.5212 0.0
O175 O 0.02559 0.07784 0.73134 0.0
O176 O 0.06971 0.01361 0.65746 0.0
O177 O 0.53167 0.48583 0.22427 0.0
Mg178 Mg 0.47977 0.44849 0.11379 0.0
O179 O 0.57307 0.55135 0.14919 0.0
Mg180 Mg 0.4954 0.53266 0.03827 0.0
O181 O 0.53297 0.43068 0.02448 0.0
O182 O 0.50564 0.36412 0.11451 0.0
O183 O 0.41627 0.51246 0.92988 0.0
O184 O 0.57586 0.53466 0.94738 0.0
Mg185 Mg 0.50646 0.61317 0.96343 0.0
O186 O 0.45683 0.63504 0.05356 0.0
O187 O 0.45426 0.57769 0.85202 0.0
O188 O 0.60742 0.62112 0.98767 0.0
O189 O 0.48066 0.69772 0.95684 0.0
C190 C 0.37232 0.49343 0.12897 0.0
C191 C 0.57112 0.5273 0.21879 0.0
C192 C 0.53445 0.37678 0.05323 0.0
C193 C 0.41527 0.53639 0.85986 0.0
C194 C 0.61774 0.57521 0.9498 0.0
C195 C 0.45484 0.68793 0.02138 0.0
O196 O 0.37737 0.44629 0.09088 0.0
O197 O 0.41689 0.53111 0.12875 0.0
loop_
_geom_bond_atom_site_label_1
_geom_bond_atom_site_label_2
_geom_bond_distance
_geom_bond_site_symmetry_2
_ccdc_geom_bond_type
C0 C1 1.386 . S
C0 C2 1.397 . S
C0 H24 0.931 . S
C1 C0 1.386 . S
C1 C5 1.397 1_565 S
C2 C0 1.397 . S
C2 C3 1.384 . S
C2 H25 0.930 . S
C3 C2 1.384 . S
C3 C4 1.375 . S
C3 C6 1.481 1_556 S
C4 C3 1.375 . S
C4 C5 1.390 1_565 S
C4 H26 0.931 1_565 S
C5 C1 1.397 1_545 S
C5 C4 1.390 1_545 S
C5 H27 0.931 . S
C6 C3 1.481 1_554 S
C6 C7 1.387 . S
C6 C11 1.390 . S
C7 C6 1.387 . S
C7 C8 1.401 . S
C7 H28 0.930 1_554 S
C8 C7 1.401 . S
C8 C9 1.376 . S
C8 C17 1.511 . S
C9 C8 1.376 . S
C9 C10 1.392 . S
C9 H30 0.931 . S
C10 C9 1.392 . S
C10 C11 1.361 . S
C10 C12 1.500 . S
C11 C6 1.390 . S
C11 C10 1.361 . S
C11 H29 0.931 . S
C12 C10 1.500 . S
C12 C13 1.371 . S
C12 C14 1.365 . S
C13 C12 1.371 . S
C13 C23 1.386 . S
C13 H31 0.931 . S
C14 C12 1.365 . S
C14 C15 1.409 1_565 S
C14 H32 0.929 1_565 S
C15 C14 1.409 1_545 S
C15 C16 1.380 1_545 S
C15 H33 0.930 . S
C16 C15 1.380 1_565 S
C16 C23 1.357 . S
C17 C8 1.511 . S
C17 C18 1.341 . S
C17 C19 1.371 . S
C18 C17 1.341 . S
C18 C22 1.394 . S
C18 H34 0.930 1_554 S
C19 C17 1.371 . S
C19 C20 1.392 . S
C19 H35 0.931 . S
C20 C19 1.392 . S
C20 C21 1.331 . S
C20 H38 0.932 . S
C21 C20 1.331 . S
C21 C22 1.336 . S
C22 C18 1.394 . S
C22 C21 1.336 . S
C22 H37 0.929 1_554 S
C23 C13 1.386 . S
C23 C16 1.357 . S
C23 H36 0.928 . S
H24 C0 0.931 . S
H25 C2 0.930 . S
H26 C4 0.931 1_545 S
H27 C5 0.931 . S
H28 C7 0.930 1_556 S
H29 C11 0.931 . S
H30 C9 0.931 . S
H31 C13 0.931 . S
H32 C14 0.929 1_545 S
H33 C15 0.930 . S
H34 C18 0.930 1_556 S
H35 C19 0.931 . S
H36 C23 0.928 . S
H37 C22 0.929 1_556 S
H38 C20 0.932 . S
C39 C40 1.386 . S
C39 C41 1.397 . S
C39 H63 0.931 . S
C40 C39 1.386 . S
C40 C44 1.397 . S
C41 C39 1.397 . S
C41 C42 1.384 . S
C41 H64 0.930 . S
C42 C41 1.384 . S
C42 C43 1.377 . S
C42 C45 1.481 . S
C43 C42 1.377 . S
C43 C44 1.389 . S
C43 H65 0.929 . S
C44 C40 1.397 . S
C44 C43 1.389 . S
C44 H66 0.931 . S
C45 C42 1.481 . S
C45 C46 1.387 . S
C45 C50 1.390 . S
C46 C45 1.387 . S
C46 C47 1.401 . S
C46 H67 0.930 . S
C47 C46 1.401 . S
C47 C48 1.376 . S
C47 C56 1.511 . S
C48 C47 1.376 . S
C48 C49 1.392 . S
C48 H69 0.931 . S
C49 C48 1.392 . S
C49 C50 1.361 . S
C49 C51 1.500 . S
C50 C45 1.390 . S
C50 C49 1.361 . S
C50 H68 0.931 . S
C51 C49 1.500 . S
C51 C52 1.371 . S
C51 C53 1.365 . S
C52 C51 1.371 . S
C52 C62 1.386 . S
C52 H70 0.931 . S
C53 C51 1.365 . S
C53 C54 1.409 . S
C53 H71 0.929 . S
C54 C53 1.409 . S
C54 C55 1.380 . S
C54 H72 0.930 . S
C55 C54 1.380 . S
C55 C62 1.357 . S
C56 C47 1.511 . S
C56 C57 1.341 . S
C56 C58 1.371 . S
C57 C56 1.341 . S
C57 C61 1.394 . S
C57 H73 0.930 . S
C58 C56 1.371 . S
C58 C59 1.392 . S
C58 H74 0.931 . S
C59 C58 1.392 . S
C59 C60 1.331 . S
C59 H77 0.932 . S
C60 C59 1.331 . S
C60 C61 1.336 . S
C61 C57 1.394 . S
C61 C60 1.336 . S
C61 H76 0.929 . S
C62 C52 1.386 . S
C62 C55 1.357 . S
C62 H75 0.928 . S
H63 C39 0.931 . S
H64 C41 0.930 . S
H65 C43 0.929 . S
H66 C44 0.931 . S
H67 C46 0.930 . S
H68 C50 0.931 . S
H69 C48 0.931 . S
H70 C52 0.931 . S
H71 C53 0.929 . S
H72 C54 0.930 . S
H73 C57 0.930 . S
H74 C58 0.931 . S
H75 C62 0.928 . S
H76 C61 0.929 . S
H77 C59 0.932 . S
C78 C79 1.386 . S
C78 C80 1.397 . S
C78 H102 0.931 . S
C79 C78 1.386 . S
C79 C83 1.397 . S
C80 C78 1.397 . S
C80 C81 1.384 . S
C80 H103 0.930 . S
C81 C80 1.384 . S
C81 C82 1.377 . S
C81 C84 1.481 . S
C82 C81 1.377 . S
C82 C83 1.389 . S
C82 H104 0.929 . S
C83 C79 1.397 . S
C83 C82 1.389 . S
C83 H105 0.931 . S
C84 C81 1.481 . S
C84 C85 1.387 . S
C84 C89 1.390 . S
C85 C84 1.387 . S
C85 C86 1.401 1_554 S
C85 H106 0.930 . S
C86 C85 1.401 1_556 S
C86 C87 1.376 . S
C86 C95 1.511 . S
C87 C86 1.376 . S
C87 C88 1.392 . S
C87 H108 0.931 . S
C88 C87 1.392 . S
C88 C89 1.361 1_556 S
C88 C90 1.500 . S
C89 C84 1.390 . S
C89 C88 1.361 1_554 S
C89 H107 0.931 . S
C90 C88 1.500 . S
C90 C91 1.371 . S
C90 C92 1.365 . S
C91 C90 1.371 . S
C91 C101 1.386 . S
C91 H109 0.931 . S
C92 C90 1.365 . S
C92 C93 1.409 . S
C92 H110 0.929 . S
C93 C92 1.409 . S
C93 C94 1.380 . S
C93 H111 0.930 . S
C94 C93 1.380 . S
C94 C101 1.357 . S
C95 C86 1.511 . S
C95 C96 1.341 1_556 S
C95 C97 1.371 . S
C96 C95 1.341 1_554 S
C96 C100 1.394 . S
C96 H112 0.930 . S
C97 C95 1.371 . S
C97 C98 1.392 . S
C97 H113 0.931 . S
C98 C97 1.392 . S
C98 C99 1.331 . S
C98 H116 0.932 . S
C99 C98 1.331 . S
C99 C100 1.336 1_556 S
C100 C96 1.394 . S
C100 C99 1.336 1_554 S
C100 H115 0.929 . S
C101 C91 1.386 . S
C101 C94 1.357 . S
C101 H114 0.928 . S
H102 C78 0.931 . S
H103 C80 0.930 . S
H104 C82 0.929 . S
H105 C83 0.931 . S
H106 C85 0.930 . S
H107 C89 0.931 . S
H108 C87 0.931 . S
H109 C91 0.931 . S
H110 C92 0.929 . S
H111 C93 0.930 . S
H112 C96 0.930 . S
H113 C97 0.931 . S
H114 C101 0.928 . S
H115 C100 0.929 . S
H116 C98 0.932 . S
C117 C118 1.386 . S
C117 C119 1.397 . S
C117 H141 0.931 . S
C118 C117 1.386 . S
C118 C122 1.397 . S
C119 C117 1.397 . S
C119 C120 1.384 . S
C119 H142 0.930 . S
C120 C119 1.384 . S
C120 C121 1.377 . S
C120 C123 1.481 . S
C121 C120 1.377 . S
C121 C122 1.389 . S
C121 H143 0.929 . S
C122 C118 1.397 . S
C122 C121 1.389 . S
C122 H144 0.931 . S
C123 C120 1.481 . S
C123 C124 1.387 . S
C123 C128 1.390 . S
C124 C123 1.387 . S
C124 C125 1.401 . S
C124 H145 0.930 . S
C125 C124 1.401 . S
C125 C126 1.376 . S
C125 C134 1.511 . S
C126 C125 1.376 . S
C126 C127 1.392 . S
C126 H147 0.931 . S
C127 C126 1.392 . S
C127 C128 1.361 . S
C127 C129 1.500 . S
C128 C123 1.390 . S
C128 C127 1.361 . S
C128 H146 0.931 . S
C129 C127 1.500 . S
C129 C130 1.371 . S
C129 C131 1.365 . S
C130 C129 1.371 . S
C130 C140 1.386 . S
C130 H148 0.931 . S
C131 C129 1.365 . S
C131 C132 1.409 . S
C131 H149 0.929 . S
C132 C131 1.409 . S
C132 C133 1.380 . S
C132 H150 0.930 . S
C133 C132 1.380 . S
C133 C140 1.357 . S
C134 C125 1.511 . S
C134 C135 1.341 . S
C134 C136 1.371 . S
C135 C134 1.341 . S
C135 C139 1.394 . S
C135 H151 0.930 . S
C136 C134 1.371 . S
C136 C137 1.392 . S
C136 H152 0.931 . S
C137 C136 1.392 . S
C137 C138 1.331 . S
C137 H155 0.932 . S
C138 C137 1.331 . S
C138 C139 1.336 . S
C139 C135 1.394 . S
C139 C138 1.336 . S
C139 H154 0.929 . S
C140 C130 1.386 . S
C140 C133 1.357 . S
C140 H153 0.928 . S
H141 C117 0.931 . S
H142 C119 0.930 . S
H143 C121 0.929 . S
H144 C122 0.931 . S
H145 C124 0.930 . S
H146 C128 0.931 . S
H147 C126 0.931 . S
H148 C130 0.931 . S
H149 C131 0.929 . S
H150 C132 0.930 . S
H151 C135 0.930 . S
H152 C136 0.931 . S
H153 C140 0.928 . S
H154 C139 0.929 . S
H155 C137 0.932 . S
O156 Mg157 1.990 1_655 S
O156 C170 1.253 . S
Mg157 O156 1.990 1_455 S
Mg157 O160 2.180 . S
Mg157 O161 2.117 . S
Mg157 O175 2.030 . S
O158 Mg159 2.072 1_655 S
O158 C170 1.260 . S
Mg159 O158 2.072 1_455 S
Mg159 O160 2.099 . S
Mg159 O162 2.079 1_545 S
Mg159 O163 2.072 1_455 S
Mg159 O165 2.099 1_445 S
Mg159 O176 2.079 1_545 S
O160 Mg157 2.180 . S
O160 Mg159 2.099 . S
O160 C171 1.279 . S
O161 Mg157 2.117 . S
O161 C171 1.250 . S
O162 Mg159 2.079 1_565 S
O162 C172 1.264 . S
O163 Mg159 2.072 1_655 S
O163 C173 1.260 . S
Mg164 O165 2.180 . S
Mg164 O166 2.030 1_655 S
Mg164 O167 1.990 . S
Mg164 O168 2.117 . S
O165 Mg159 2.099 1_665 S
O165 Mg164 2.180 . S
O165 C174 1.279 . S
O166 Mg164 2.030 1_455 S
O166 C172 1.248 . S
O167 Mg164 1.990 . S
O167 C173 1.253 1_565 S
O168 Mg164 2.117 . S
O168 C174 1.250 . S
C169 O175 1.248 1_565 S
C169 O176 1.264 . S
C170 O156 1.253 . S
C170 O158 1.260 . S
C171 O160 1.279 . S
C171 O161 1.250 . S
C172 O162 1.264 . S
C172 O166 1.248 . S
C173 O163 1.260 . S
C173 O167 1.253 1_545 S
C174 O165 1.279 . S
C174 O168 1.250 . S
O175 Mg157 2.030 . S
O175 C169 1.248 1_545 S
O176 Mg159 2.079 1_565 S
O176 C169 1.264 . S
O177 Mg178 1.990 . S
O177 C191 1.253 . S
Mg178 O177 1.990 . S
Mg178 O181 2.180 . S
Mg178 O182 2.117 . S
Mg178 O196 2.030 . S
O179 Mg180 2.072 . S
O179 C191 1.260 . S
Mg180 O179 2.072 . S
Mg180 O181 2.099 . S
Mg180 O183 2.079 1_554 S
Mg180 O184 2.072 1_554 S
Mg180 O186 2.099 . S
Mg180 O197 2.079 . S
O181 Mg178 2.180 . S
O181 Mg180 2.099 . S
O181 C192 1.279 . S
O182 Mg178 2.117 . S
O182 C192 1.250 . S
O183 Mg180 2.079 1_556 S
O183 C193 1.264 . S
O184 Mg180 2.072 1_556 S
O184 C194 1.260 . S
Mg185 O186 2.180 1_556 S
Mg185 O187 2.030 . S
Mg185 O188 1.990 . S
Mg185 O189 2.117 . S
O186 Mg180 2.099 . S
O186 Mg185 2.180 1_554 S
O186 C195 1.279 . S
O187 Mg185 2.030 . S
O187 C193 1.248 . S
O188 Mg185 1.990 . S
O188 C194 1.253 . S
O189 Mg185 2.117 . S
O189 C195 1.250 1_556 S
C190 O196 1.248 . S
C190 O197 1.264 . S
C191 O177 1.253 . S
C191 O179 1.260 . S
C192 O181 1.279 . S
C192 O182 1.250 . S
C193 O183 1.264 . S
C193 O187 1.248 . S
C194 O184 1.260 . S
C194 O188 1.253 . S
C195 O186 1.279 . S
C195 O189 1.250 1_554 S
O196 Mg178 2.030 . S
O196 C190 1.248 . S
O197 Mg180 2.079 . S
O197 C190 1.264 . S
C171 C138 1.952 . S
C21 C195 1.926 . S
C60 C174 1.963 . S
C99 C192 2.016 1_556 S
C172 C16 2.276 . S
C194 C40 1.996 . S
C79 C173 1.682 . S
C133 C193 1.821 . S
C191 C55 1.676 . S
C170 C94 1.993 . S
C190 C118 2.288 . S
C1 C169 1.821 . S
