# Generated by pormake.
# Topology pth, (4,4)-cn, num edge types: 1
# Building blocks:
#     Node 0, Type 0, BuildingBlock: KUFVIS_clean_sbu_0, # of connection points: 4
#     Node 1, Type 0, BuildingBlock: KUFVIS_clean_sbu_0, # of connection points: 4
#     Node 2, Type 0, BuildingBlock: KUFVIS_clean_sbu_0, # of connection points: 4
#     Node 3, Type 1, BuildingBlock: MIFKUJ_clean_linker_1, # of connection points: 4
#     Node 4, Type 1, BuildingBlock: MIFKUJ_clean_linker_1, # of connection points: 4
#     Node 5, Type 1, BuildingBlock: MIFKUJ_clean_linker_1, # of connection points: 4
#     Edge 6, Type (0, 1), None
#     Edge 7, Type (0, 1), None
#     Edge 8, Type (0, 1), None
#     Edge 9, Type (0, 1), None
#     Edge 10, Type (0, 1), None
#     Edge 11, Type (0, 1), None
#     Edge 12, Type (0, 1), None
#     Edge 13, Type (0, 1), None
#     Edge 14, Type (0, 1), None
#     Edge 15, Type (0, 1), None
#     Edge 16, Type (0, 1), None
#     Edge 17, Type (0, 1), None
# Relax obj value: 0.017
# Max RMSD: 0.085
# Mean RMSD: 0.063
data_MOF--net-pth--node1-KUFVIS_clean_sbu_0--node2-MIFKUJ_clean_linker_1--edge1-none
_symmetry_space_group_name_H-M    P1
_symmetry_Int_Tables_number       1
_symmetry_cell_setting            triclinic
loop_
_symmetry_equiv_pos_as_xyz
'x, y, z'
_cell_length_a     15.626988
_cell_length_b     15.679424
_cell_length_c     34.717975
_cell_angle_alpha  90.368611
_cell_angle_beta   92.172294
_cell_angle_gamma 120.7305
loop_
_atom_site_label
_atom_site_type_symbol
_atom_site_fract_x
_atom_site_fract_y
_atom_site_fract_z
_atom_type_partial_charge
Mn0 Mn 0.04575 0.05816 0.04282 0.0
Mn1 Mn 0.91478 0.15458 1.00294 0.0
C2 C 0.93109 0.97314 0.99231 0.0
C3 C 0.06149 0.96066 0.08971 0.0
C4 C 0.12925 0.22543 0.98434 0.0
O5 O 0.06744 0.16297 0.08299 0.0
O6 O 0.97741 0.22128 0.05368 0.0
C7 C 0.75871 0.08386 0.06035 0.0
N8 N 0.78466 0.09047 0.02302 0.0
C9 C 0.61273 1.00561 1.00019 0.0
C10 C 0.5842 0.99889 0.03837 0.0
C11 C 0.65756 0.03778 0.0686 0.0
C12 C 0.7147 0.05262 0.99378 0.0
H13 H 0.81474 0.1135 0.08362 0.0
C14 C 0.0326 0.22061 0.08167 0.0
O15 O 0.1389 0.02791 0.07251 0.0
O16 O 0.97646 0.95208 0.0802 0.0
N17 N 0.84734 0.0974 0.95431 0.0
C18 C 0.88646 0.09825 0.91992 0.0
C19 C 0.82295 0.05998 0.88672 0.0
C20 C 0.72014 0.02096 0.88929 0.0
C21 C 0.68107 0.01677 0.92529 0.0
C22 C 0.74805 0.05735 0.95728 0.0
H23 H 0.96511 0.12615 0.91822 0.0
O24 O 1.00269 0.95646 1.00065 0.0
O25 O 0.92726 0.03878 0.01436 0.0
O26 O 0.14064 0.16737 0.00691 0.0
O27 O 0.04729 0.22507 0.98012 0.0
C28 C 0.5782 0.97187 0.93081 0.0
C29 C 0.54399 0.96589 0.96829 0.0
H30 H 0.50623 0.96309 0.04484 0.0
H31 H 0.63619 0.03229 0.09818 0.0
H32 H 0.85286 0.0601 0.85927 0.0
H33 H 0.67154 0.99315 0.86358 0.0
H34 H 0.52467 0.93984 0.90655 0.0
H35 H 0.46465 0.92945 0.9723 0.0
Mn36 Mn 0.03425 0.05457 0.37347 0.0
Mn37 Mn 0.15788 0.275 0.42197 0.0
C38 C 0.13859 0.07405 0.42602 0.0
C39 C 0.02679 0.95137 0.32337 0.0
C40 C 0.93809 0.12485 0.43062 0.0
O41 O 0.02093 0.14789 0.33651 0.0
O42 O 0.11715 0.29358 0.36915 0.0
C43 C 0.33677 0.37501 0.37553 0.0
N44 N 0.29544 0.34421 0.41028 0.0
C45 C 0.45712 0.41683 0.44288 0.0
C46 C 0.50145 0.4501 0.40747 0.0
C47 C 0.44095 0.42875 0.37363 0.0
C48 C 0.35288 0.36388 0.44298 0.0
H49 H 0.29057 0.35858 0.34946 0.0
C50 C 0.06384 0.2421 0.33956 0.0
O51 O 0.94632 0.93685 0.33903 0.0
O52 O 0.11041 0.02764 0.33586 0.0
N53 N 0.20351 0.26925 0.47327 0.0
C54 C 0.14914 0.22619 0.50463 0.0
C55 C 0.19855 0.23917 0.54075 0.0
C56 C 0.30309 0.29653 0.54418 0.0
C57 C 0.3574 0.33875 0.51145 0.0
C58 C 0.30415 0.32456 0.47636 0.0
H59 H 0.06874 0.18305 0.50217 0.0
O60 O 0.069 0.98659 0.41367 0.0
O61 O 0.14646 0.1486 0.40665 0.0
O62 O 0.93281 0.05699 0.40844 0.0
O63 O 0.01727 0.20949 0.43662 0.0
C64 C 0.46236 0.39383 0.51225 0.0
C65 C 0.51222 0.43245 0.47795 0.0
H66 H 0.58179 0.49121 0.40588 0.0
H67 H 0.47456 0.45361 0.34615 0.0
H68 H 0.15622 0.20589 0.56594 0.0
H69 H 0.34132 0.30839 0.57204 0.0
H70 H 0.50547 0.40576 0.53901 0.0
H71 H 0.59293 0.47331 0.4788 0.0
Mn72 Mn 0.06363 0.0645 0.70517 0.0
Mn73 Mn 0.96822 0.1978 0.74049 0.0
C74 C 0.14967 0.18083 0.75477 0.0
C75 C 0.16121 0.04646 0.66024 0.0
C76 C 0.89544 0.98434 0.76221 0.0
O77 O 0.95744 0.04115 0.66373 0.0
O78 O 0.90215 0.13506 0.68969 0.0
C79 C 0.0439 0.35222 0.68147 0.0
N80 N 0.0341 0.32697 0.71916 0.0
C81 C 0.11824 0.49851 0.74026 0.0
C82 C 0.1274 0.52629 0.70164 0.0
C83 C 0.09067 0.45277 0.67211 0.0
C84 C 0.07056 0.39709 0.74775 0.0
H85 H 0.01668 0.29604 0.6588 0.0
C86 C 0.90119 0.07786 0.66306 0.0
O87 O 0.09345 0.97021 0.67788 0.0
O88 O 0.17002 0.1315 0.66812 0.0
N89 N 0.02467 0.26571 0.78895 0.0
C90 C 0.02287 0.22742 0.82413 0.0
C91 C 0.06031 0.29137 0.8568 0.0
C92 C 0.09879 0.39354 0.85296 0.0
C93 C 0.10395 0.43173 0.81628 0.0
C94 C 0.06451 0.36447 0.78481 0.0
H95 H 0.9946 0.14909 0.82691 0.0
O96 O 0.16635 0.10924 0.74822 0.0
O97 O 0.0837 0.18371 0.73149 0.0
O98 O 0.95415 0.97206 0.74124 0.0
O99 O 0.89592 0.06619 0.76451 0.0
C100 C 0.14896 0.53404 0.80963 0.0
C101 C 0.15657 0.56748 0.77159 0.0
H102 H 0.16385 0.60381 0.69434 0.0
H103 H 0.09855 0.47355 0.64222 0.0
H104 H 0.06006 0.26241 0.88485 0.0
H105 H 0.12545 0.44236 0.87825 0.0
H106 H 0.18009 0.58774 0.83349 0.0
H107 H 0.19339 0.64641 0.76674 0.0
H108 H 0.2083 0.53167 0.14062 0.0
H109 H 0.19255 0.40577 0.09382 0.0
H110 H 0.91541 0.18999 0.14147 0.0
H111 H 0.92865 0.31577 0.18717 0.0
H112 H 0.09172 0.6014 0.13971 0.0
H113 H 0.19422 0.4624 0.24074 0.0
H114 H 0.2014 0.34996 0.28781 0.0
H115 H 0.90383 0.25953 0.32035 0.0
H116 H 0.89671 0.37284 0.27345 0.0
H117 H 0.88449 0.63619 0.26658 0.0
H118 H 0.87615 0.76117 0.30646 0.0
H119 H 0.17637 0.97889 0.27786 0.0
H120 H 0.18388 0.85409 0.23801 0.0
H121 H 0.01941 0.57199 0.27839 0.0
H122 H 0.91814 0.70975 0.17747 0.0
H123 H 0.91693 0.83443 0.13627 0.0
H124 H 0.21751 0.93058 0.10503 0.0
H125 H 0.21825 0.80497 0.1467 0.0
C126 C 0.06982 0.4334 0.16759 0.0
C127 C 0.1452 0.45671 0.1416 0.0
C128 C 0.13666 0.38493 0.11507 0.0
C129 C 0.05308 0.28887 0.11441 0.0
C130 C 0.98077 0.26373 0.14175 0.0
C131 C 0.98885 0.33548 0.16807 0.0
C132 C 0.06824 0.51344 0.19013 0.0
C133 C 0.0785 0.59589 0.17029 0.0
C134 C 0.04671 0.50478 0.22964 0.0
C135 C 0.04488 0.42587 0.25355 0.0
C136 C 0.12958 0.4167 0.25729 0.0
C137 C 0.13384 0.35292 0.28422 0.0
C138 C 0.053 0.2965 0.30736 0.0
C139 C 0.96648 0.30189 0.30242 0.0
C140 C 0.96265 0.36667 0.27584 0.0
C141 C 0.03483 0.73598 0.24943 0.0
C142 C 0.94793 0.71124 0.2686 0.0
C143 C 0.94303 0.78278 0.29112 0.0
C144 C 0.02567 0.87967 0.29529 0.0
C145 C 0.1115 0.90481 0.27518 0.0
C146 C 0.11592 0.83366 0.25237 0.0
C147 C 0.04307 0.65883 0.22791 0.0
C148 C 0.0337 0.57727 0.2479 0.0
C149 C 0.06587 0.66837 0.18864 0.0
C150 C 0.06843 0.74844 0.16531 0.0
C151 C 0.98438 0.75861 0.16224 0.0
C152 C 0.98373 0.82976 0.13854 0.0
C153 C 0.06719 0.8923 0.11738 0.0
C154 C 0.15234 0.88374 0.12113 0.0
C155 C 0.15266 0.8118 0.14473 0.0
H156 H 0.73354 0.22367 0.4843 0.0
H157 H 0.87887 0.25549 0.4486 0.0
H158 H 0.7965 0.94882 0.45937 0.0
H159 H 0.65294 0.9183 0.49639 0.0
H160 H 0.52433 0.07562 0.46742 0.0
H161 H 0.78522 0.18304 0.56151 0.0
H162 H 0.91802 0.2015 0.60615 0.0
H163 H 0.72447 0.90768 0.64731 0.0
H164 H 0.5912 0.88734 0.60129 0.0
H165 H 0.29633 0.87861 0.59939 0.0
H166 H 0.17728 0.88404 0.64221 0.0
H167 H 0.30045 0.19407 0.61872 0.0
H168 H 0.41591 0.18743 0.5749 0.0
H169 H 0.51046 1.00372 0.60659 0.0
H170 H 0.23702 0.94146 0.52357 0.0
H171 H 0.11104 0.95873 0.48721 0.0
H172 H 0.33983 0.19202 0.42273 0.0
H173 H 0.46772 0.18865 0.46392 0.0
C174 C 0.68288 0.06877 0.49304 0.0
C175 C 0.74672 0.16329 0.47887 0.0
C176 C 0.82975 0.18142 0.45863 0.0
C177 C 0.84868 0.10454 0.45116 0.0
C178 C 0.78317 1.0092 0.4645 0.0
C179 C 0.70154 0.99176 0.48572 0.0
C180 C 0.59768 0.05177 0.51595 0.0
C181 C 0.52111 0.06116 0.49798 0.0
C182 C 0.59338 0.0297 0.55546 0.0
C183 C 0.6784 0.03318 0.57756 0.0
C184 C 0.77223 0.12065 0.5788 0.0
C185 C 0.84797 0.13167 0.60465 0.0
C186 C 0.83113 0.05586 0.62994 0.0
C187 C 0.73933 0.96634 0.62752 0.0
C188 C 0.66327 0.95509 0.6015 0.0
C189 C 0.36389 0.03235 0.58361 0.0
C190 C 0.29659 0.94737 0.60318 0.0
C191 C 0.22857 0.95048 0.62751 0.0
C192 C 0.2286 0.03931 0.63327 0.0
C193 C 0.29721 0.12424 0.61406 0.0
C194 C 0.36353 0.12069 0.58922 0.0
C195 C 0.4375 0.03054 0.55842 0.0
C196 C 0.51202 0.01702 0.57591 0.0
C197 C 0.44137 0.05266 0.5187 0.0
C198 C 0.36341 0.06577 0.49785 0.0
C199 C 0.26148 1.00156 0.50373 0.0
C200 C 0.18891 0.01053 0.48248 0.0
C201 C 0.21602 0.08094 0.45365 0.0
C202 C 0.31719 0.14292 0.4468 0.0
C203 C 0.39022 0.13808 0.46956 0.0
H204 H 0.36215 0.29786 0.86326 0.0
H205 H 0.22882 0.1647 0.82318 0.0
H206 H 0.23534 0.37986 0.74508 0.0
H207 H 0.3575 0.51423 0.78818 0.0
H208 H 0.53121 0.57254 0.80227 0.0
H209 H 0.4475 0.35421 0.93688 0.0
H210 H 0.30869 0.23539 0.97488 0.0
H211 H 0.14667 0.38259 0.94403 0.0
H212 H 0.28514 0.49906 0.90567 0.0
H213 H 0.59745 0.76244 0.95615 0.0
H214 H 0.73057 0.88731 0.99924 0.0
H215 H 0.95008 0.89361 0.92612 0.0
H216 H 0.81848 0.7582 0.88642 0.0
H217 H 0.54114 0.58919 0.94506 0.0
H218 H 0.62127 0.83284 0.8397 0.0
H219 H 0.7392 0.96988 0.80091 0.0
H220 H 0.88226 0.80425 0.7739 0.0
H221 H 0.76172 0.66675 0.81204 0.0
C222 C 0.3684 0.4174 0.83001 0.0
C223 C 0.33077 0.31748 0.83907 0.0
C224 C 0.25544 0.24094 0.81568 0.0
C225 C 0.21793 0.26227 0.78206 0.0
C226 C 0.25776 0.36155 0.77215 0.0
C227 C 0.32982 0.4383 0.7964 0.0
C228 C 0.45354 0.49985 0.85323 0.0
C229 C 0.53253 0.57613 0.83352 0.0
C230 C 0.45769 0.50508 0.89415 0.0
C231 C 0.37447 0.43287 0.91731 0.0
C232 C 0.38141 0.35988 0.9381 0.0
C233 C 0.30204 0.29221 0.95986 0.0
C234 C 0.21507 0.29768 0.96189 0.0
C235 C 0.21094 0.37403 0.94232 0.0
C236 C 0.28963 0.44053 0.92023 0.0
C237 C 0.69673 0.7514 0.917 0.0
C238 C 0.67409 0.79072 0.94903 0.0
C239 C 0.75009 0.86429 0.9732 0.0
C240 C 0.85022 0.90459 0.96465 0.0
C241 C 0.87316 0.86654 0.93249 0.0
C242 C 0.79749 0.78988 0.90931 0.0
C243 C 0.61541 0.66499 0.89399 0.0
C244 C 0.53893 0.58635 0.91379 0.0
C245 C 0.61203 0.659 0.85311 0.0
C246 C 0.68483 0.74143 0.82968 0.0
C247 C 0.67907 0.82713 0.8258 0.0
C248 C 0.74653 0.90511 0.80354 0.0
C249 C 0.82221 0.89957 0.78496 0.0
C250 C 0.82599 0.81198 0.78812 0.0
C251 C 0.75726 0.73328 0.80994 0.0
loop_
_geom_bond_atom_site_label_1
_geom_bond_atom_site_label_2
_geom_bond_distance
_geom_bond_site_symmetry_2
_ccdc_geom_bond_type
Mn0 O5 2.095 . S
Mn0 O15 2.162 1_545 S
Mn0 O16 2.297 1_445 S
Mn0 O24 2.385 1_444 S
Mn0 O25 2.209 1_455 S
Mn0 O26 2.094 . S
Mn1 O6 2.121 1_556 S
Mn1 N8 2.257 . S
Mn1 N17 2.282 . S
Mn1 O25 2.215 1_556 S
Mn1 O27 2.117 1_655 S
C2 O24 1.234 . S
C2 O25 1.283 1_566 S
C3 O15 1.281 . S
C3 O16 1.236 1_455 S
C4 O26 1.240 1_556 S
C4 O27 1.264 . S
O5 Mn0 2.095 . S
O5 C14 1.250 . S
O6 Mn1 2.121 1_554 S
O6 C14 1.258 1_655 S
C7 N8 1.326 1_554 S
C7 C11 1.460 . S
C7 H13 0.929 . S
N8 Mn1 2.257 . S
N8 C7 1.326 1_556 S
N8 C12 1.362 . S
C9 C10 1.258 . S
C9 C12 1.431 . S
C9 C29 1.449 . S
C10 C9 1.258 . S
C10 C11 1.477 1_556 S
C10 H30 0.931 . S
C11 C7 1.460 . S
C11 C10 1.477 1_554 S
C11 H31 0.930 . S
C12 N8 1.362 . S
C12 C9 1.431 . S
C12 C22 1.476 . S
H13 C7 0.929 . S
C14 O5 1.250 . S
C14 O6 1.258 1_455 S
O15 Mn0 2.162 1_565 S
O15 C3 1.281 . S
O16 Mn0 2.297 1_665 S
O16 C3 1.236 1_655 S
N17 Mn1 2.282 . S
N17 C18 1.328 . S
N17 C22 1.318 . S
C18 N17 1.328 . S
C18 C19 1.457 . S
C18 H23 0.929 1_655 S
C19 C18 1.457 . S
C19 C20 1.291 . S
C19 H32 0.931 . S
C20 C19 1.291 . S
C20 C21 1.373 . S
C20 H33 0.929 1_545 S
C21 C20 1.373 . S
C21 C22 1.396 . S
C21 C28 1.403 . S
C22 C12 1.476 . S
C22 N17 1.318 . S
C22 C21 1.396 . S
H23 C18 0.929 1_455 S
O24 Mn0 2.385 1_666 S
O24 C2 1.234 . S
O25 Mn0 2.209 1_655 S
O25 Mn1 2.215 1_554 S
O25 C2 1.283 1_544 S
O26 Mn0 2.094 . S
O26 C4 1.240 1_554 S
O27 Mn1 2.117 1_455 S
O27 C4 1.264 . S
C28 C21 1.403 . S
C28 C29 1.399 . S
C28 H34 0.929 1_545 S
C29 C9 1.449 . S
C29 C28 1.399 . S
C29 H35 0.930 . S
H30 C10 0.931 . S
H31 C11 0.930 . S
H32 C19 0.931 . S
H33 C20 0.929 1_565 S
H34 C28 0.929 1_565 S
H35 C29 0.930 . S
Mn36 O41 2.095 . S
Mn36 O51 2.162 1_545 S
Mn36 O52 2.297 1_645 S
Mn36 O60 2.385 1_645 S
Mn36 O61 2.209 1_655 S
Mn36 O62 2.094 1_545 S
Mn37 O42 2.121 . S
Mn37 N44 2.257 . S
Mn37 N53 2.282 . S
Mn37 O61 2.215 . S
Mn37 O63 2.117 1_455 S
C38 O60 1.234 1_545 S
C38 O61 1.283 . S
C39 O51 1.285 . S
C39 O52 1.234 1_655 S
C40 O62 1.240 1_545 S
C40 O63 1.264 . S
O41 Mn36 2.095 . S
O41 C50 1.250 1_655 S
O42 Mn37 2.121 . S
O42 C50 1.258 . S
C43 N44 1.326 . S
C43 C47 1.460 . S
C43 H49 0.929 . S
N44 Mn37 2.257 . S
N44 C43 1.326 . S
N44 C48 1.362 . S
C45 C46 1.258 . S
C45 C48 1.431 . S
C45 C65 1.449 . S
C46 C45 1.258 . S
C46 C47 1.477 . S
C46 H66 0.931 . S
C47 C43 1.460 . S
C47 C46 1.477 . S
C47 H67 0.930 . S
C48 N44 1.362 . S
C48 C45 1.431 . S
C48 C58 1.476 . S
H49 C43 0.929 . S
C50 O41 1.250 1_455 S
C50 O42 1.258 . S
O51 Mn36 2.162 1_565 S
O51 C39 1.285 . S
O52 Mn36 2.297 1_465 S
O52 C39 1.234 1_455 S
N53 Mn37 2.282 . S
N53 C54 1.328 . S
N53 C58 1.318 . S
C54 N53 1.328 . S
C54 C55 1.457 . S
C54 H59 0.929 . S
C55 C54 1.457 . S
C55 C56 1.291 . S
C55 H68 0.931 . S
C56 C55 1.291 . S
C56 C57 1.373 . S
C56 H69 0.929 . S
C57 C56 1.373 . S
C57 C58 1.396 . S
C57 C64 1.403 . S
C58 C48 1.476 . S
C58 N53 1.318 . S
C58 C57 1.396 . S
H59 C54 0.929 . S
O60 Mn36 2.385 1_465 S
O60 C38 1.234 1_565 S
O61 Mn36 2.209 1_455 S
O61 Mn37 2.215 . S
O61 C38 1.283 . S
O62 Mn36 2.094 1_565 S
O62 C40 1.240 1_565 S
O63 Mn37 2.117 1_655 S
O63 C40 1.264 . S
C64 C57 1.403 . S
C64 C65 1.399 . S
C64 H70 0.929 . S
C65 C45 1.449 . S
C65 C64 1.399 . S
C65 H71 0.930 . S
H66 C46 0.931 . S
H67 C47 0.930 . S
H68 C55 0.931 . S
H69 C56 0.929 . S
H70 C64 0.929 . S
H71 C65 0.930 . S
Mn72 O77 2.095 1_455 S
Mn72 O87 2.162 1_545 S
Mn72 O88 2.297 . S
Mn72 O96 2.385 . S
Mn72 O97 2.209 . S
Mn72 O98 2.094 1_445 S
Mn73 O78 2.121 . S
Mn73 N80 2.257 . S
Mn73 N89 2.282 . S
Mn73 O97 2.215 1_655 S
Mn73 O99 2.117 . S
C74 O96 1.234 . S
C74 O97 1.283 . S
C75 O87 1.281 1_545 S
C75 O88 1.236 . S
C76 O98 1.240 . S
C76 O99 1.264 1_565 S
O77 Mn72 2.095 1_655 S
O77 C86 1.250 . S
O78 Mn73 2.121 . S
O78 C86 1.258 . S
C79 N80 1.326 . S
C79 C83 1.460 . S
C79 H85 0.929 . S
N80 Mn73 2.257 . S
N80 C79 1.326 . S
N80 C84 1.362 1_655 S
C81 C82 1.258 . S
C81 C84 1.431 . S
C81 C101 1.449 . S
C82 C81 1.258 . S
C82 C83 1.477 1_455 S
C82 H102 0.931 . S
C83 C79 1.460 . S
C83 C82 1.477 1_655 S
C83 H103 0.930 . S
C84 N80 1.362 1_455 S
C84 C81 1.431 . S
C84 C94 1.476 . S
H85 C79 0.929 . S
C86 O77 1.250 . S
C86 O78 1.258 . S
O87 Mn72 2.162 1_565 S
O87 C75 1.281 1_565 S
O88 Mn72 2.297 . S
O88 C75 1.236 . S
N89 Mn73 2.282 . S
N89 C90 1.328 1_655 S
N89 C94 1.318 1_655 S
C90 N89 1.328 1_455 S
C90 C91 1.457 . S
C90 H95 0.929 1_455 S
C91 C90 1.457 . S
C91 C92 1.291 . S
C91 H104 0.931 . S
C92 C91 1.291 . S
C92 C93 1.373 . S
C92 H105 0.929 . S
C93 C92 1.373 . S
C93 C94 1.396 . S
C93 C100 1.403 . S
C94 C84 1.476 . S
C94 N89 1.318 1_455 S
C94 C93 1.396 . S
H95 C90 0.929 1_655 S
O96 Mn72 2.385 . S
O96 C74 1.234 . S
O97 Mn72 2.209 . S
O97 Mn73 2.215 1_455 S
O97 C74 1.283 . S
O98 Mn72 2.094 1_665 S
O98 C76 1.240 . S
O99 Mn73 2.117 . S
O99 C76 1.264 1_545 S
C100 C93 1.403 . S
C100 C101 1.399 . S
C100 H106 0.929 . S
C101 C81 1.449 . S
C101 C100 1.399 . S
C101 H107 0.930 . S
H102 C82 0.931 . S
H103 C83 0.930 . S
H104 C91 0.931 . S
H105 C92 0.929 . S
H106 C100 0.929 . S
H107 C101 0.930 . S
H108 C127 0.949 . S
H109 C128 0.950 . S
H110 C130 0.950 . S
H111 C131 0.950 . S
H112 C133 0.950 . S
H113 C136 0.950 . S
H114 C137 0.950 . S
H115 C139 0.951 . S
H116 C140 0.949 . S
H117 C142 0.949 . S
H118 C143 0.950 . S
H119 C145 0.950 . S
H120 C146 0.950 . S
H121 C148 0.950 1_655 S
H122 C151 0.950 . S
H123 C152 0.950 . S
H124 C154 0.951 . S
H125 C155 0.949 . S
C126 C127 1.376 . S
C126 C131 1.386 1_455 S
C126 C132 1.483 . S
C127 H108 0.949 . S
C127 C126 1.376 . S
C127 C128 1.397 . S
C128 H109 0.950 . S
C128 C127 1.397 . S
C128 C129 1.391 . S
C129 C128 1.391 . S
C129 C130 1.405 1_455 S
C130 H110 0.950 . S
C130 C129 1.405 1_655 S
C130 C131 1.367 . S
C131 H111 0.950 . S
C131 C126 1.386 1_655 S
C131 C130 1.367 . S
C132 C126 1.483 . S
C132 C133 1.382 . S
C132 C134 1.403 . S
C133 H112 0.950 . S
C133 C132 1.382 . S
C133 C149 1.411 . S
C134 C132 1.403 . S
C134 C135 1.489 . S
C134 C148 1.411 . S
C135 C134 1.489 . S
C135 C136 1.383 . S
C135 C140 1.382 1_455 S
C136 H113 0.950 . S
C136 C135 1.383 . S
C136 C137 1.395 . S
C137 H114 0.950 . S
C137 C136 1.395 . S
C137 C138 1.288 . S
C138 C137 1.288 . S
C138 C139 1.392 1_455 S
C139 H115 0.951 . S
C139 C138 1.392 1_655 S
C139 C140 1.392 . S
C140 H116 0.949 . S
C140 C135 1.382 1_655 S
C140 C139 1.392 . S
C141 C142 1.376 1_455 S
C141 C146 1.386 . S
C141 C147 1.483 . S
C142 H117 0.949 . S
C142 C141 1.376 1_655 S
C142 C143 1.397 . S
C143 H118 0.950 . S
C143 C142 1.397 . S
C143 C144 1.391 1_655 S
C144 C143 1.391 1_455 S
C144 C145 1.405 . S
C145 H119 0.950 . S
C145 C144 1.405 . S
C145 C146 1.367 . S
C146 H120 0.950 . S
C146 C141 1.386 . S
C146 C145 1.367 . S
C147 C141 1.483 . S
C147 C148 1.382 . S
C147 C149 1.403 . S
C148 H121 0.950 1_455 S
C148 C134 1.411 . S
C148 C147 1.382 . S
C149 C133 1.411 . S
C149 C147 1.403 . S
C149 C150 1.489 . S
C150 C149 1.489 . S
C150 C151 1.383 1_455 S
C150 C155 1.382 . S
C151 H122 0.950 . S
C151 C150 1.383 1_655 S
C151 C152 1.395 . S
C152 H123 0.950 . S
C152 C151 1.395 . S
C152 C153 1.288 1_655 S
C153 C152 1.288 1_455 S
C153 C154 1.392 . S
C154 H124 0.951 . S
C154 C153 1.392 . S
C154 C155 1.392 . S
C155 H125 0.949 . S
C155 C150 1.382 . S
C155 C154 1.392 . S
H156 C175 0.949 . S
H157 C176 0.950 . S
H158 C178 0.950 1_565 S
H159 C179 0.950 1_565 S
H160 C181 0.950 . S
H161 C184 0.950 . S
H162 C185 0.950 . S
H163 C187 0.951 1_565 S
H164 C188 0.949 1_565 S
H165 C190 0.949 1_565 S
H166 C191 0.950 1_565 S
H167 C193 0.950 . S
H168 C194 0.950 . S
H169 C196 0.950 . S
H170 C199 0.950 1_565 S
H171 C200 0.950 1_565 S
H172 C202 0.951 . S
H173 C203 0.949 . S
C174 C175 1.376 . S
C174 C179 1.386 . S
C174 C180 1.483 . S
C175 H156 0.949 . S
C175 C174 1.376 . S
C175 C176 1.397 . S
C176 H157 0.950 . S
C176 C175 1.397 . S
C176 C177 1.391 . S
C177 C176 1.391 . S
C177 C178 1.405 . S
C178 H158 0.950 1_545 S
C178 C177 1.405 . S
C178 C179 1.367 . S
C179 H159 0.950 1_545 S
C179 C174 1.386 . S
C179 C178 1.367 . S
C180 C174 1.483 . S
C180 C181 1.382 . S
C180 C182 1.403 . S
C181 H160 0.950 . S
C181 C180 1.382 . S
C181 C197 1.411 . S
C182 C180 1.403 . S
C182 C183 1.489 . S
C182 C196 1.411 . S
C183 C182 1.489 . S
C183 C184 1.383 . S
C183 C188 1.382 . S
C184 H161 0.950 . S
C184 C183 1.383 . S
C184 C185 1.395 . S
C185 H162 0.950 . S
C185 C184 1.395 . S
C185 C186 1.288 . S
C186 C185 1.288 . S
C186 C187 1.392 . S
C187 H163 0.951 1_545 S
C187 C186 1.392 . S
C187 C188 1.392 . S
C188 H164 0.949 1_545 S
C188 C183 1.382 . S
C188 C187 1.392 . S
C189 C190 1.376 . S
C189 C194 1.386 . S
C189 C195 1.483 . S
C190 H165 0.949 1_545 S
C190 C189 1.376 . S
C190 C191 1.397 . S
C191 H166 0.950 1_545 S
C191 C190 1.397 . S
C191 C192 1.391 . S
C192 C191 1.391 . S
C192 C193 1.405 . S
C193 H167 0.950 . S
C193 C192 1.405 . S
C193 C194 1.367 . S
C194 H168 0.950 . S
C194 C189 1.386 . S
C194 C193 1.367 . S
C195 C189 1.483 . S
C195 C196 1.382 . S
C195 C197 1.403 . S
C196 H169 0.950 . S
C196 C182 1.411 . S
C196 C195 1.382 . S
C197 C181 1.411 . S
C197 C195 1.403 . S
C197 C198 1.489 . S
C198 C197 1.489 . S
C198 C199 1.383 . S
C198 C203 1.382 . S
C199 H170 0.950 1_545 S
C199 C198 1.383 . S
C199 C200 1.395 . S
C200 H171 0.950 1_545 S
C200 C199 1.395 . S
C200 C201 1.288 . S
C201 C200 1.288 . S
C201 C202 1.392 . S
C202 H172 0.951 . S
C202 C201 1.392 . S
C202 C203 1.392 . S
C203 H173 0.949 . S
C203 C198 1.382 . S
C203 C202 1.392 . S
H204 C223 0.949 . S
H205 C224 0.950 . S
H206 C226 0.950 . S
H207 C227 0.950 . S
H208 C229 0.950 . S
H209 C232 0.950 . S
H210 C233 0.950 . S
H211 C235 0.951 . S
H212 C236 0.949 . S
H213 C238 0.949 . S
H214 C239 0.950 . S
H215 C241 0.950 . S
H216 C242 0.950 . S
H217 C244 0.950 . S
H218 C247 0.950 . S
H219 C248 0.950 . S
H220 C250 0.951 . S
H221 C251 0.949 . S
C222 C223 1.376 . S
C222 C227 1.386 . S
C222 C228 1.483 . S
C223 H204 0.949 . S
C223 C222 1.376 . S
C223 C224 1.397 . S
C224 H205 0.950 . S
C224 C223 1.397 . S
C224 C225 1.391 . S
C225 C224 1.391 . S
C225 C226 1.405 . S
C226 H206 0.950 . S
C226 C225 1.405 . S
C226 C227 1.367 . S
C227 H207 0.950 . S
C227 C222 1.386 . S
C227 C226 1.367 . S
C228 C222 1.483 . S
C228 C229 1.382 . S
C228 C230 1.403 . S
C229 H208 0.950 . S
C229 C228 1.382 . S
C229 C245 1.411 . S
C230 C228 1.403 . S
C230 C231 1.489 . S
C230 C244 1.411 . S
C231 C230 1.489 . S
C231 C232 1.383 . S
C231 C236 1.382 . S
C232 H209 0.950 . S
C232 C231 1.383 . S
C232 C233 1.395 . S
C233 H210 0.950 . S
C233 C232 1.395 . S
C233 C234 1.288 . S
C234 C233 1.288 . S
C234 C235 1.392 . S
C235 H211 0.951 . S
C235 C234 1.392 . S
C235 C236 1.392 . S
C236 H212 0.949 . S
C236 C231 1.382 . S
C236 C235 1.392 . S
C237 C238 1.376 . S
C237 C242 1.386 . S
C237 C243 1.483 . S
C238 H213 0.949 . S
C238 C237 1.376 . S
C238 C239 1.397 . S
C239 H214 0.950 . S
C239 C238 1.397 . S
C239 C240 1.391 . S
C240 C239 1.391 . S
C240 C241 1.405 . S
C241 H215 0.950 . S
C241 C240 1.405 . S
C241 C242 1.367 . S
C242 H216 0.950 . S
C242 C237 1.386 . S
C242 C241 1.367 . S
C243 C237 1.483 . S
C243 C244 1.382 . S
C243 C245 1.403 . S
C244 H217 0.950 . S
C244 C230 1.411 . S
C244 C243 1.382 . S
C245 C229 1.411 . S
C245 C243 1.403 . S
C245 C246 1.489 . S
C246 C245 1.489 . S
C246 C247 1.383 . S
C246 C251 1.382 . S
C247 H218 0.950 . S
C247 C246 1.383 . S
C247 C248 1.395 . S
C248 H219 0.950 . S
C248 C247 1.395 . S
C248 C249 1.288 . S
C249 C248 1.288 . S
C249 C250 1.392 . S
C250 H220 0.951 . S
C250 C249 1.392 . S
C250 C251 1.392 . S
C251 H221 0.949 . S
C251 C246 1.382 . S
C251 C250 1.392 . S
C129 C14 1.554 . S
C40 C177 1.555 . S
C76 C249 1.476 . S
C3 C153 1.471 . S
C201 C38 1.542 . S
C74 C225 1.480 . S
C186 C86 1.441 . S
C2 C240 1.490 . S
C144 C39 1.494 1_455 S
C192 C75 1.549 . S
C234 C4 1.517 . S
C50 C138 1.533 . S
