# Generated by pormake.
# Topology scu, (8,4)-cn, num edge types: 1
# Building blocks:
#     Node 0, Type 0, BuildingBlock: TAGTUT_clean_sbu_3, # of connection points: 8
#     Node 1, Type 1, BuildingBlock: IZENUY_clean_linker_0, # of connection points: 4
#     Node 2, Type 1, BuildingBlock: IZENUY_clean_linker_0, # of connection points: 4
#     Edge 3, Type (0, 1), BuildingBlock: AJUNOK_clean_linker_0, # of connection points: 2
#     Edge 4, Type (0, 1), BuildingBlock: AJUNOK_clean_linker_0, # of connection points: 2
#     Edge 5, Type (0, 1), BuildingBlock: AJUNOK_clean_linker_0, # of connection points: 2
#     Edge 6, Type (0, 1), BuildingBlock: AJUNOK_clean_linker_0, # of connection points: 2
#     Edge 7, Type (0, 1), BuildingBlock: AJUNOK_clean_linker_0, # of connection points: 2
#     Edge 8, Type (0, 1), BuildingBlock: AJUNOK_clean_linker_0, # of connection points: 2
#     Edge 9, Type (0, 1), BuildingBlock: AJUNOK_clean_linker_0, # of connection points: 2
#     Edge 10, Type (0, 1), BuildingBlock: AJUNOK_clean_linker_0, # of connection points: 2
# Relax obj value: 0.049
# Max RMSD: 0.190
# Mean RMSD: 0.140
data_MOF--net-scu--node1-TAGTUT_clean_sbu_3--node2-IZENUY_clean_linker_0--edge1-AJUNOK_clean_linker_0
_symmetry_space_group_name_H-M    P1
_symmetry_Int_Tables_number       1
_symmetry_cell_setting            triclinic
loop_
_symmetry_equiv_pos_as_xyz
'x, y, z'
_cell_length_a     23.495539
_cell_length_b     19.872526
_cell_length_c     15.405747
_cell_angle_alpha  93.035236
_cell_angle_beta   89.718358
_cell_angle_gamma 89.13962
loop_
_atom_site_label
_atom_site_type_symbol
_atom_site_fract_x
_atom_site_fract_y
_atom_site_fract_z
_atom_type_partial_charge
C0 C 1.02631 0.88833 0.07692 0.0
C1 C 0.82383 0.99186 0.0527 0.0
C2 C 0.87541 0.04965 0.80244 0.0
Mg3 Mg 0.1478 0.93551 -0.00262 0.0
Mg4 Mg 0.17018 0.09644 0.96696 0.0
O5 O 0.12422 0.02093 0.94328 0.0
Mg6 Mg 0.04098 0.02382 -0.03047 0.0
O7 O 0.958 0.02019 -0.004 0.0
Mg8 Mg 0.93632 0.93493 0.93036 0.0
Mg9 Mg 0.90965 0.0956 -0.0137 0.0
C10 C 0.06745 0.16156 0.86283 0.0
O11 O 0.04512 0.10914 0.07738 0.0
O12 O 0.23252 0.94461 0.91754 0.0
O13 O 0.96207 0.16655 0.06349 0.0
O14 O 0.18901 0.99056 0.11353 0.0
O15 O 0.2424 0.05531 0.89684 0.0
O16 O 0.1961 0.10137 0.10202 0.0
O17 O 1.02603 0.9393 0.86215 0.0
O18 O 0.10659 0.88186 0.88338 0.0
C19 C 0.06003 0.88953 0.8426 0.0
C20 C 0.25922 0.99386 0.88545 0.0
O21 O 0.03478 0.11116 0.87485 0.0
O22 O 0.8518 0.94283 0.01336 0.0
O23 O 0.11617 0.16813 0.90023 0.0
O24 O 0.89218 0.99136 0.82332 0.0
O25 O 0.83915 0.05331 0.05082 0.0
O26 O 0.88233 0.10188 0.85308 0.0
O27 O 0.05803 0.93882 0.06405 0.0
O28 O 0.97956 0.88005 0.03627 0.0
C29 C 0.20356 0.04846 0.14449 0.0
C30 C 1.01131 0.1591 0.09855 0.0
H31 H 0.04643 0.42704 0.35577 0.0
H32 H 0.04135 0.43228 0.63542 0.0
H33 H 0.03674 0.24269 0.48793 0.0
H34 H 0.04374 0.62483 0.5826 0.0
H35 H 0.05417 0.62207 0.30271 0.0
H36 H 0.04606 0.81064 0.45316 0.0
N37 N 0.04555 0.50936 0.50172 0.0
N38 N 0.04861 0.54301 0.43574 0.0
C39 C 0.04418 0.40099 0.41568 0.0
C40 C 0.04199 0.33037 0.41214 0.0
C41 C 0.04395 0.43787 0.49631 0.0
C42 C 0.04152 0.40363 0.57356 0.0
C43 C 0.03865 0.33301 0.57129 0.0
C44 C 0.03885 0.29711 0.49023 0.0
C45 C 0.04544 0.65094 0.52268 0.0
C46 C 0.04401 0.72147 0.52638 0.0
C47 C 0.04921 0.61456 0.4418 0.0
C48 C 0.05239 0.64971 0.36526 0.0
C49 C 0.05151 0.72044 0.36941 0.0
C50 C 0.04713 0.75594 0.44996 0.0
H51 H 0.60522 0.98639 0.33462 0.0
H52 H 0.64535 0.0353 0.60263 0.0
H53 H 0.7796 1.00962 0.41233 0.0
H54 H 0.47797 0.98916 0.60165 0.0
H55 H 0.4339 0.032 0.33884 0.0
H56 H 0.30287 0.01603 0.53272 0.0
N57 N 0.56017 0.0129 0.49626 0.0
N58 N 0.52103 1.01228 0.44181 0.0
C59 C 0.63628 0.99718 0.385 0.0
C60 C 0.69453 0.99505 0.36387 0.0
C61 C 0.61851 1.01203 0.47152 0.0
C62 C 0.6593 0.0254 0.53596 0.0
C63 C 0.7176 0.02527 0.51517 0.0
C64 C 0.73471 1.00942 0.42911 0.0
C65 C 0.44629 0.9995 0.55306 0.0
C66 C 0.38843 0.99856 0.57541 0.0
C67 C 0.46284 1.01224 0.46741 0.0
C68 C 0.42097 0.02394 0.40507 0.0
C69 C 0.36284 0.02459 0.42751 0.0
C70 C 0.34732 0.01323 0.5134 0.0
C71 C 0.99694 0.26861 0.1852 0.0
C72 C 1.02639 0.20649 0.17263 0.0
C73 C 1.00408 0.30993 0.26097 0.0
C74 C 0.04101 0.29086 0.32725 0.0
H75 H 0.9666 0.28456 0.13743 0.0
H76 H 0.97852 0.35566 0.26929 0.0
S77 S 0.13088 0.13599 0.32498 0.0
N78 N 0.09544 0.12937 0.23277 0.0
N79 N 0.11097 0.20883 0.37239 0.0
C80 C 0.073 0.23085 0.31355 0.0
C81 C 0.06526 0.18831 0.23702 0.0
C82 C 0.78821 0.92969 0.17711 0.0
C83 C 0.7783 0.97797 0.11527 0.0
C84 C 0.75726 0.93185 0.25536 0.0
C85 C 0.71488 0.98156 0.27339 0.0
H86 H 0.82367 0.89438 0.16906 0.0
H87 H 0.76922 0.89741 0.3046 0.0
S88 S 0.6661 0.1114 0.12557 0.0
N89 N 0.71832 0.07087 0.07185 0.0
N90 N 0.65967 0.07423 0.21844 0.0
C91 C 0.70056 0.02533 0.20813 0.0
C92 C 0.73244 0.02366 0.12904 0.0
C93 C 0.98845 0.82515 0.19774 0.0
C94 C 0.03621 0.84497 0.15024 0.0
C95 C 0.99414 0.78307 0.26678 0.0
C96 C 0.04765 0.75851 0.29042 0.0
H97 H 0.94611 0.84319 0.18236 0.0
H98 H 0.95642 0.77038 0.3029 0.0
S99 S 0.18575 0.79181 0.18516 0.0
N100 N 0.13872 0.83511 0.13028 0.0
N101 N 0.14937 0.75485 0.26103 0.0
C102 C 0.09587 0.77681 0.24339 0.0
C103 C 0.09017 0.82054 0.17307 0.0
C104 C 0.2838 0.0939 0.23516 0.0
C105 C 0.23725 0.05053 0.22543 0.0
C106 C 0.32369 0.08612 0.30166 0.0
C107 C 0.31819 0.03505 0.36107 0.0
H108 H 0.29117 0.13175 0.18846 0.0
H109 H 0.35967 0.11957 0.30561 0.0
S110 S 0.19987 0.91346 0.36899 0.0
N111 N 0.1848 0.95909 0.28543 0.0
N112 N 0.26017 0.94313 0.40851 0.0
C113 C 0.27012 0.9936 0.3544 0.0
C114 C 0.2296 1.00169 0.28709 0.0
C115 C 0.10114 0.81461 0.72402 0.0
C116 C 0.05219 0.845 0.76375 0.0
C117 C 0.09751 0.77312 0.64862 0.0
C118 C 0.04488 0.76006 0.6101 0.0
H119 H 0.14315 0.82389 0.75023 0.0
H120 H 0.13633 0.75216 0.61917 0.0
S121 S 0.90363 0.82186 0.68953 0.0
N122 N 0.94898 0.85585 0.76026 0.0
N123 N 0.94245 0.7773 0.6168 0.0
C124 C 0.99537 0.78855 0.64894 0.0
C125 C 0.99896 0.83127 0.72623 0.0
C126 C 0.34689 0.02943 0.81019 0.0
C127 C 0.305 0.98037 0.82048 0.0
C128 C 0.3787 0.03107 0.7331 0.0
C129 C 0.36912 0.98407 0.66377 0.0
H130 H 0.35197 0.06994 0.85931 0.0
H131 H 0.40719 0.07267 0.72492 0.0
S132 S 0.27088 0.83992 0.66214 0.0
N133 N 0.26107 0.87881 0.75861 0.0
N134 N 0.32046 0.88256 0.61338 0.0
C135 C 0.33147 0.93114 0.67623 0.0
C136 C 0.29958 0.92896 0.75497 0.0
C137 C 0.0847 0.26928 0.78895 0.0
C138 C 0.05214 0.21068 0.79629 0.0
C139 C 0.07798 0.31079 0.71862 0.0
C140 C 0.03823 0.29569 0.65277 0.0
H141 H 0.11745 0.28192 0.83601 0.0
H142 H 0.10621 0.35302 0.71359 0.0
S143 S 0.93775 0.15367 0.64507 0.0
N144 N 0.97574 0.14292 0.73325 0.0
N145 N 0.96134 0.223 0.60423 0.0
C146 C 1.00267 0.24025 0.6623 0.0
C147 C 1.00997 0.19735 0.73317 0.0
C148 C 0.84717 1.00159 0.65674 0.0
C149 C 0.84072 0.05297 0.72263 0.0
C150 C 0.80812 0.99429 0.5888 0.0
C151 C 0.76103 0.03835 0.58365 0.0
H152 H 0.88183 0.9653 0.65914 0.0
H153 H 0.81373 0.95213 0.54186 0.0
S154 S 0.72914 0.1873 0.73232 0.0
N155 N 0.78658 0.15272 0.77376 0.0
N156 N 0.71367 0.13992 0.64454 0.0
C157 C 0.756 0.09265 0.64583 0.0
C158 C 0.79588 0.1 0.71539 0.0
loop_
_geom_bond_atom_site_label_1
_geom_bond_atom_site_label_2
_geom_bond_distance
_geom_bond_site_symmetry_2
_ccdc_geom_bond_type
C0 O27 1.298 1_655 S
C0 O28 1.227 . S
C1 O22 1.331 . S
C1 O25 1.244 1_565 S
C2 O24 1.264 1_545 S
C2 O26 1.273 . S
Mg3 O5 1.936 1_565 S
Mg3 O12 2.081 . S
Mg3 O14 2.023 1_556 S
Mg3 O18 2.031 . S
Mg3 O27 2.291 1_556 S
Mg4 O5 1.963 . S
Mg4 O15 1.942 . S
Mg4 O16 1.955 1_556 S
Mg4 O23 1.986 . S
O5 Mg3 1.936 1_545 S
O5 Mg4 1.963 . S
O5 Mg6 1.912 1_556 S
Mg6 O5 1.912 1_554 S
Mg6 O7 1.919 1_455 S
Mg6 O11 2.021 . S
Mg6 O17 2.107 1_444 S
Mg6 O21 2.004 1_454 S
Mg6 O27 2.121 1_545 S
O7 Mg6 1.919 1_655 S
O7 Mg8 1.936 1_545 S
O7 Mg9 1.963 . S
Mg8 O7 1.936 1_565 S
Mg8 O17 2.291 1_554 S
Mg8 O22 2.081 . S
Mg8 O24 2.023 1_554 S
Mg8 O28 2.031 . S
Mg9 O7 1.963 . S
Mg9 O13 1.986 . S
Mg9 O25 1.942 . S
Mg9 O26 1.955 1_554 S
C10 O21 1.191 1_455 S
C10 O23 1.307 . S
O11 Mg6 2.021 . S
O11 C30 1.191 1_455 S
O12 Mg3 2.081 . S
O12 C20 1.331 . S
O13 Mg9 1.986 . S
O13 C30 1.307 . S
O14 Mg3 2.023 1_554 S
O14 C29 1.264 1_565 S
O15 Mg4 1.942 . S
O15 C20 1.244 1_545 S
O16 Mg4 1.955 1_554 S
O16 C29 1.273 . S
O17 Mg6 2.107 1_666 S
O17 Mg8 2.291 1_556 S
O17 C19 1.312 1_655 S
O18 Mg3 2.031 . S
O18 C19 1.208 . S
C19 O17 1.312 1_455 S
C19 O18 1.208 . S
C20 O12 1.331 . S
C20 O15 1.244 1_565 S
O21 Mg6 2.004 1_656 S
O21 C10 1.191 1_655 S
O22 C1 1.331 . S
O22 Mg8 2.081 . S
O23 Mg4 1.986 . S
O23 C10 1.307 . S
O24 C2 1.264 1_565 S
O24 Mg8 2.023 1_556 S
O25 C1 1.244 1_545 S
O25 Mg9 1.942 . S
O26 C2 1.273 . S
O26 Mg9 1.955 1_556 S
O27 C0 1.298 1_455 S
O27 Mg3 2.291 1_554 S
O27 Mg6 2.121 1_565 S
O28 C0 1.227 . S
O28 Mg8 2.031 . S
C29 O14 1.264 1_545 S
C29 O16 1.273 . S
C30 O11 1.191 1_655 S
C30 O13 1.307 . S
H31 C39 0.940 . S
H32 C42 0.940 . S
H33 C44 0.940 1_655 S
H34 C45 0.940 . S
H35 C48 0.940 . S
H36 C50 0.940 1_655 S
N37 N38 1.190 . S
N37 C41 1.477 . S
N38 N37 1.190 . S
N38 C47 1.477 . S
C39 H31 0.940 . S
C39 C40 1.390 . S
C39 C41 1.322 . S
C40 C39 1.390 . S
C40 C44 1.370 . S
C41 N37 1.477 . S
C41 C39 1.322 . S
C41 C42 1.447 . S
C42 H32 0.940 . S
C42 C41 1.447 . S
C42 C43 1.373 . S
C43 C42 1.373 . S
C43 C44 1.417 . S
C44 H33 0.940 1_455 S
C44 C40 1.370 . S
C44 C43 1.417 . S
C45 H34 0.940 . S
C45 C46 1.390 . S
C45 C47 1.322 . S
C46 C45 1.390 . S
C46 C50 1.370 . S
C47 N38 1.477 . S
C47 C45 1.322 . S
C47 C48 1.447 . S
C48 H35 0.940 . S
C48 C47 1.447 . S
C48 C49 1.373 . S
C49 C48 1.373 . S
C49 C50 1.417 . S
C50 H36 0.940 1_455 S
C50 C46 1.370 . S
C50 C49 1.417 . S
H51 C59 0.940 . S
H52 C62 0.940 . S
H53 C64 0.938 1_565 S
H54 C65 0.940 . S
H55 C68 0.940 . S
H56 C70 0.938 1_565 S
N57 N58 1.190 . S
N57 C61 1.477 . S
N58 N57 1.190 . S
N58 C67 1.477 . S
C59 H51 0.940 . S
C59 C60 1.390 . S
C59 C61 1.322 . S
C60 C59 1.390 . S
C60 C64 1.370 . S
C61 N57 1.477 . S
C61 C59 1.322 . S
C61 C62 1.447 . S
C62 H52 0.940 . S
C62 C61 1.447 . S
C62 C63 1.373 . S
C63 C62 1.373 . S
C63 C64 1.419 . S
C64 H53 0.938 1_545 S
C64 C60 1.370 . S
C64 C63 1.419 . S
C65 H54 0.940 . S
C65 C66 1.390 . S
C65 C67 1.322 . S
C66 C65 1.390 . S
C66 C70 1.370 . S
C67 N58 1.477 . S
C67 C65 1.322 . S
C67 C68 1.447 . S
C68 H55 0.940 . S
C68 C67 1.447 . S
C68 C69 1.373 . S
C69 C68 1.373 . S
C69 C70 1.419 . S
C70 H56 0.938 1_545 S
C70 C66 1.370 . S
C70 C69 1.419 . S
C71 C72 1.368 1_655 S
C71 C73 1.419 . S
C71 H75 0.931 . S
C72 C71 1.368 1_455 S
C72 C81 1.429 . S
C73 C71 1.419 . S
C73 C74 1.362 1_655 S
C73 H76 0.929 . S
C74 C73 1.362 1_455 S
C74 C80 1.429 . S
H75 C71 0.931 . S
H76 C73 0.929 . S
S77 N78 1.613 . S
S77 N79 1.610 . S
N78 S77 1.613 . S
N78 C81 1.350 . S
N79 S77 1.610 . S
N79 C80 1.351 . S
C80 C74 1.429 . S
C80 N79 1.351 . S
C80 C81 1.434 . S
C81 C72 1.429 . S
C81 N78 1.350 . S
C81 C80 1.434 . S
C82 C83 1.369 . S
C82 C84 1.419 . S
C82 H86 0.930 . S
C83 C82 1.369 . S
C83 C92 1.429 1_565 S
C84 C82 1.419 . S
C84 C85 1.363 . S
C84 H87 0.929 . S
C85 C84 1.363 . S
C85 C91 1.428 1_565 S
H86 C82 0.930 . S
H87 C84 0.929 . S
S88 N89 1.613 . S
S88 N90 1.610 . S
N89 S88 1.613 . S
N89 C92 1.350 . S
N90 S88 1.610 . S
N90 C91 1.351 . S
C91 C85 1.428 1_545 S
C91 N90 1.351 . S
C91 C92 1.434 . S
C92 C83 1.429 1_545 S
C92 N89 1.350 . S
C92 C91 1.434 . S
C93 C94 1.369 1_655 S
C93 C95 1.419 . S
C93 H97 0.930 . S
C94 C93 1.369 1_455 S
C94 C103 1.429 . S
C95 C93 1.419 . S
C95 C96 1.363 1_655 S
C95 H98 0.929 . S
C96 C95 1.363 1_455 S
C96 C102 1.428 . S
H97 C93 0.930 . S
H98 C95 0.929 . S
S99 N100 1.613 . S
S99 N101 1.610 . S
N100 S99 1.613 . S
N100 C103 1.350 . S
N101 S99 1.610 . S
N101 C102 1.351 . S
C102 C96 1.428 . S
C102 N101 1.351 . S
C102 C103 1.434 . S
C103 C94 1.429 . S
C103 N100 1.350 . S
C103 C102 1.434 . S
C104 C105 1.369 . S
C104 C106 1.419 . S
C104 H108 0.930 . S
C105 C104 1.369 . S
C105 C114 1.429 1_545 S
C106 C104 1.419 . S
C106 C107 1.363 . S
C106 H109 0.929 . S
C107 C106 1.363 . S
C107 C113 1.428 1_545 S
H108 C104 0.930 . S
H109 C106 0.929 . S
S110 N111 1.613 . S
S110 N112 1.610 . S
N111 S110 1.613 . S
N111 C114 1.350 . S
N112 S110 1.610 . S
N112 C113 1.351 . S
C113 C107 1.428 1_565 S
C113 N112 1.351 . S
C113 C114 1.434 . S
C114 C105 1.429 1_565 S
C114 N111 1.350 . S
C114 C113 1.434 . S
C115 C116 1.369 . S
C115 C117 1.419 . S
C115 H119 0.930 . S
C116 C115 1.369 . S
C116 C125 1.429 1_455 S
C117 C115 1.419 . S
C117 C118 1.368 . S
C117 H120 0.929 . S
C118 C117 1.368 . S
C118 C124 1.424 1_455 S
H119 C115 0.930 . S
H120 C117 0.929 . S
S121 N122 1.613 . S
S121 N123 1.610 . S
N122 S121 1.613 . S
N122 C125 1.350 . S
N123 S121 1.610 . S
N123 C124 1.351 . S
C124 C118 1.424 1_655 S
C124 N123 1.351 . S
C124 C125 1.434 . S
C125 C116 1.429 1_655 S
C125 N122 1.350 . S
C125 C124 1.434 . S
C126 C127 1.369 1_545 S
C126 C128 1.419 . S
C126 H130 0.930 . S
C127 C126 1.369 1_565 S
C127 C136 1.429 . S
C128 C126 1.419 . S
C128 C129 1.363 1_545 S
C128 H131 0.929 . S
C129 C128 1.363 1_565 S
C129 C135 1.428 . S
H130 C126 0.930 . S
H131 C128 0.929 . S
S132 N133 1.613 . S
S132 N134 1.610 . S
N133 S132 1.613 . S
N133 C136 1.350 . S
N134 S132 1.610 . S
N134 C135 1.351 . S
C135 C129 1.428 . S
C135 N134 1.351 . S
C135 C136 1.434 . S
C136 C127 1.429 . S
C136 N133 1.350 . S
C136 C135 1.434 . S
C137 C138 1.369 . S
C137 C139 1.419 . S
C137 H141 0.930 . S
C138 C137 1.369 . S
C138 C147 1.429 1_455 S
C139 C137 1.419 . S
C139 C140 1.363 . S
C139 H142 0.929 . S
C140 C139 1.363 . S
C140 C146 1.428 1_455 S
H141 C137 0.930 . S
H142 C139 0.929 . S
S143 N144 1.613 . S
S143 N145 1.610 . S
N144 S143 1.613 . S
N144 C147 1.350 . S
N145 S143 1.610 . S
N145 C146 1.351 . S
C146 C140 1.428 1_655 S
C146 N145 1.351 . S
C146 C147 1.434 . S
C147 C138 1.429 1_655 S
C147 N144 1.350 . S
C147 C146 1.434 . S
C148 C149 1.369 . S
C148 C150 1.418 1_545 S
C148 H152 0.930 1_545 S
C149 C148 1.369 . S
C149 C158 1.429 . S
C150 C148 1.418 1_565 S
C150 C151 1.361 1_565 S
C150 H153 0.931 . S
C151 C150 1.361 1_545 S
C151 C157 1.428 . S
H152 C148 0.930 1_565 S
H153 C150 0.931 . S
S154 N155 1.613 . S
S154 N156 1.610 . S
N155 S154 1.613 . S
N155 C158 1.350 . S
N156 S154 1.610 . S
N156 C157 1.351 . S
C157 C151 1.428 . S
C157 N156 1.351 . S
C157 C158 1.434 . S
C158 C149 1.429 . S
C158 N155 1.350 . S
C158 C157 1.434 . S
C72 C30 1.515 1_455 S
C74 C40 1.498 . S
C83 C1 1.608 . S
C85 C60 1.577 1_565 S
C94 C0 1.482 1_455 S
C96 C49 1.533 . S
C105 C29 1.631 . S
C107 C69 1.633 . S
C116 C19 1.503 . S
C118 C46 1.521 . S
C127 C20 1.609 . S
C129 C66 1.585 1_565 S
C140 C43 1.513 . S
C138 C10 1.495 . S
C149 C2 1.628 . S
C151 C63 1.628 . S
