# Generated by pormake.
# Topology rtl, (3,6)-cn, num edge types: 1
# Building blocks:
#     Node 0, Type 0, BuildingBlock: ESEHIV_clean_linker_0, # of connection points: 3
#     Node 1, Type 0, BuildingBlock: ESEHIV_clean_linker_0, # of connection points: 3
#     Node 2, Type 0, BuildingBlock: ESEHIV_clean_linker_0, # of connection points: 3
#     Node 3, Type 0, BuildingBlock: ESEHIV_clean_linker_0, # of connection points: 3
#     Node 4, Type 1, BuildingBlock: LEVNOQ01_clean_sbu_1, # of connection points: 6
#     Node 5, Type 1, BuildingBlock: LEVNOQ01_clean_sbu_1, # of connection points: 6
#     Edge 6, Type (0, 1), BuildingBlock: OJICUG_clean_linker_0, # of connection points: 2
#     Edge 7, Type (0, 1), BuildingBlock: OJICUG_clean_linker_0, # of connection points: 2
#     Edge 8, Type (0, 1), BuildingBlock: OJICUG_clean_linker_0, # of connection points: 2
#     Edge 9, Type (0, 1), BuildingBlock: OJICUG_clean_linker_0, # of connection points: 2
#     Edge 10, Type (0, 1), BuildingBlock: OJICUG_clean_linker_0, # of connection points: 2
#     Edge 11, Type (0, 1), BuildingBlock: OJICUG_clean_linker_0, # of connection points: 2
#     Edge 12, Type (0, 1), BuildingBlock: OJICUG_clean_linker_0, # of connection points: 2
#     Edge 13, Type (0, 1), BuildingBlock: OJICUG_clean_linker_0, # of connection points: 2
#     Edge 14, Type (0, 1), BuildingBlock: OJICUG_clean_linker_0, # of connection points: 2
#     Edge 15, Type (0, 1), BuildingBlock: OJICUG_clean_linker_0, # of connection points: 2
#     Edge 16, Type (0, 1), BuildingBlock: OJICUG_clean_linker_0, # of connection points: 2
#     Edge 17, Type (0, 1), BuildingBlock: OJICUG_clean_linker_0, # of connection points: 2
# Relax obj value: 0.026
# Max RMSD: 0.059
# Mean RMSD: 0.044
data_MOF--net-rtl--node1-LEVNOQ01_clean_sbu_1--node2-ESEHIV_clean_linker_0--edge1-OJICUG_clean_linker_0
_symmetry_space_group_name_H-M    P1
_symmetry_Int_Tables_number       1
_symmetry_cell_setting            triclinic
loop_
_symmetry_equiv_pos_as_xyz
'x, y, z'
_cell_length_a     21.741325
_cell_length_b     22.539763
_cell_length_c     16.325752
_cell_angle_alpha  89.428214
_cell_angle_beta   99.163463
_cell_angle_gamma 89.740473
loop_
_atom_site_label
_atom_site_type_symbol
_atom_site_fract_x
_atom_site_fract_y
_atom_site_fract_z
_atom_type_partial_charge
H0 H 0.1481 0.99778 0.113 0.0
H1 H 0.29109 0.8804 0.23841 0.0
H2 H 0.24078 0.87407 0.97504 0.0
C3 C 0.18422 0.96489 0.11146 0.0
C4 C 0.19221 0.94121 0.03431 0.0
C5 C 0.21937 0.94383 0.18644 0.0
C6 C 0.26276 0.89757 0.18263 0.0
C7 C 0.26766 0.87054 0.1071 0.0
C8 C 0.23392 0.89358 0.0333 0.0
H9 H 0.64802 0.57347 0.60747 0.0
H10 H 0.76034 0.67238 0.46111 0.0
H11 H 0.79322 0.68769 0.72616 0.0
C12 C 0.68692 0.60269 0.60382 0.0
C13 C 0.71978 0.6271 0.67701 0.0
C14 C 0.70113 0.61854 0.52545 0.0
C15 C 0.74892 0.65952 0.52101 0.0
C16 C 0.78142 0.68519 0.59311 0.0
C17 C 0.76722 0.66838 0.67076 0.0
H18 H 0.7832 0.04078 0.99105 0.0
H19 H 0.7091 0.18616 0.11218 0.0
H20 H 0.68925 0.18588 0.84741 0.0
C21 C 0.75857 0.08257 0.98707 0.0
C22 C 0.73807 0.109 0.90873 0.0
C23 C 0.75143 0.11124 0.06102 0.0
C24 C 0.71738 0.16449 0.05595 0.0
C25 C 0.69384 0.19047 0.97887 0.0
C26 C 0.70458 0.16305 0.90571 0.0
H27 H 0.3109 0.48117 0.47375 0.0
H28 H 0.1974 0.38424 0.62062 0.0
H29 H 0.16609 0.36621 0.3558 0.0
C30 C 0.27196 0.45204 0.47757 0.0
C31 C 0.23932 0.42721 0.40456 0.0
C32 C 0.25738 0.43695 0.55599 0.0
C33 C 0.20932 0.39629 0.56068 0.0
C34 C 0.17697 0.3701 0.48884 0.0
C35 C 0.19185 0.38592 0.41106 0.0
O36 O 0.85804 0.11254 0.59344 0.0
Mg37 Mg 0.95687 0.11424 0.62481 0.0
O38 O 0.89808 0.02635 0.62693 0.0
Mg39 Mg -0.02183 0.02975 0.54405 0.0
O40 O 0.01037 0.13315 0.53702 0.0
O41 O -0.01906 0.19949 0.62552 0.0
O42 O 0.06014 0.0319 0.45975 0.0
O43 O 0.90553 0.05073 0.43037 0.0
Mg44 Mg -0.00464 0.94886 0.4672 0.0
O45 O 0.94315 0.92638 0.5531 0.0
O46 O 0.09298 0.94563 0.50371 0.0
O47 O 0.94651 0.98701 0.35373 0.0
O48 O -0.02756 0.86332 0.46059 0.0
C49 C 0.04531 0.03199 0.73084 0.0
C50 C 0.85297 0.06248 0.62609 0.0
C51 C 0.01059 0.18718 0.56545 0.0
C52 C 0.10294 0.99268 0.46656 0.0
C53 C 0.90734 0.02787 0.36011 0.0
C54 C 0.94321 0.87332 0.52169 0.0
O55 O 0.00609 0.07317 0.73591 0.0
O56 O 0.04951 1.00974 0.66055 0.0
O57 O 0.52544 0.47511 0.23345 0.0
Mg58 Mg 0.4814 0.43356 0.12263 0.0
O59 O 0.54777 0.55155 0.15924 0.0
Mg60 Mg 0.47887 0.52932 0.0403 0.0
O61 O 0.52717 0.43441 0.02346 0.0
O62 O 0.52546 0.35691 0.11166 0.0
O63 O 0.40989 0.50676 0.9216 0.0
O64 O 0.55971 0.54834 0.95951 0.0
Mg65 Mg 0.47744 0.62364 0.95755 0.0
O66 O 0.43162 0.62539 0.0567 0.0
O67 O 0.43281 0.58243 0.84656 0.0
O68 O 0.57275 0.64269 0.97757 0.0
O69 O 0.43564 0.70151 0.96666 0.0
C70 C 0.36611 0.46222 0.12726 0.0
C71 C 0.55347 0.52388 0.2285 0.0
C72 C 0.5428 0.38015 0.04679 0.0
C73 C 0.4044 0.53394 0.852 0.0
C74 C 0.59243 0.59449 0.95359 0.0
C75 C 0.41785 0.67987 0.0322 0.0
O76 O 0.38619 0.41436 0.10266 0.0
O77 O 0.39822 0.50888 0.12137 0.0
C78 C 0.13154 0.26825 0.46269 0.0
C79 C 0.12873 0.32513 0.49675 0.0
H80 H 0.0962 0.17917 0.45774 0.0
C81 C 0.08267 0.33747 0.54523 0.0
H82 H 0.16687 0.25772 0.42514 0.0
C83 C 0.04241 0.29313 0.56337 0.0
C84 C 0.04748 0.23504 0.5341 0.0
H85 H 0.07901 0.38115 0.57125 0.0
H86 H 0.00869 0.30414 0.60311 0.0
C87 C 0.09126 0.22336 0.48145 0.0
C88 C 0.3697 0.81599 0.13393 0.0
C89 C 0.30546 0.8161 0.10451 0.0
H90 H 0.45668 0.77042 0.13461 0.0
C91 C 0.27778 0.76512 0.06612 0.0
H92 H 0.39192 0.85487 0.16361 0.0
C93 C 0.31441 0.71644 0.05177 0.0
C94 C 0.37919 0.7183 0.07506 0.0
H95 H 0.22815 0.76418 0.04355 0.0
H96 H 0.29276 0.67954 0.01632 0.0
C97 C 0.40649 0.76758 0.11829 0.0
C98 C 0.87395 0.72125 0.53563 0.0
C99 C 0.8285 0.73132 0.58583 0.0
H100 H 0.94644 0.75771 0.47773 0.0
C101 C 0.82513 0.78716 0.62275 0.0
H102 H 0.87804 0.67839 0.50743 0.0
C103 C 0.86429 0.83332 0.60534 0.0
C104 C 0.90744 0.82397 0.55115 0.0
H105 H 0.79021 0.79592 0.66165 0.0
H106 H 0.85898 0.8767 0.63141 0.0
C107 C 0.9131 0.76689 0.51877 0.0
C108 C 0.68515 0.29526 0.02369 0.0
C109 C 0.6591 0.24719 0.97643 0.0
H110 H 0.66772 0.37774 0.0802 0.0
C111 C 0.59691 0.25076 0.93691 0.0
H112 H 0.73313 0.29346 0.05446 0.0
C113 C 0.55956 0.29898 0.95177 0.0
C114 C 0.58448 0.34456 0.0047 0.0
H115 H 0.57587 0.21402 0.90058 0.0
H116 H 0.51015 0.29818 0.92775 0.0
C117 C 0.64808 0.34371 0.03754 0.0
C118 C 0.17651 0.02051 0.27599 0.0
C119 C 0.20459 0.96461 0.26818 0.0
H120 H 0.12186 0.07401 0.34583 0.0
C121 C 0.21136 0.92559 0.33697 0.0
H122 H 0.17295 0.05332 0.2266 0.0
C123 C 0.18511 0.93909 0.40694 0.0
C124 C 0.14916 0.99083 0.40912 0.0
H125 H 0.23225 0.88213 0.33523 0.0
H126 H 0.18787 0.90585 0.45583 0.0
C127 C 0.14821 0.03315 0.34528 0.0
C128 C 0.67652 0.5577 0.77567 0.0
C129 C 0.70001 0.61386 0.75852 0.0
H130 H 0.62465 0.50679 0.85249 0.0
C131 C 0.69846 0.65932 0.81647 0.0
H132 H 0.67862 0.52111 0.73369 0.0
C133 C 0.6691 0.65059 0.88549 0.0
C134 C 0.63959 0.59656 0.89758 0.0
H135 H 0.71576 0.70322 0.80575 0.0
H136 H 0.66533 0.68791 0.92576 0.0
C137 C 0.64637 0.54916 0.84446 0.0
C138 C 0.79757 0.02779 0.15632 0.0
C139 C 0.78542 0.08885 0.1423 0.0
H140 H 0.8472 0.96094 0.23527 0.0
C141 C 0.81131 0.12905 0.20381 0.0
H142 H 0.77717 0.9951 0.11217 0.0
C143 C 0.84941 0.10895 0.27583 0.0
C144 C 0.86409 0.04851 0.2868 0.0
H145 H 0.80441 0.17642 0.19524 0.0
H146 H 0.86953 0.14096 0.32136 0.0
C147 C 0.83744 1.008 0.22705 0.0
C148 C 0.30934 0.42702 0.70517 0.0
C149 C 0.29372 0.46214 0.63292 0.0
H150 H 0.35618 0.42206 0.83095 0.0
C151 C 0.31401 0.52133 0.63433 0.0
H152 H 0.29551 0.38097 0.70613 0.0
C153 C 0.34969 0.54451 0.70547 0.0
C154 C 0.36548 0.50932 0.77741 0.0
H155 H 0.30203 0.55004 0.5805 0.0
H156 H 0.36468 0.59022 0.70411 0.0
C157 C 0.3445 0.45044 0.77671 0.0
C158 C 0.64451 0.53476 0.44591 0.0
C159 C 0.66448 0.59404 0.44832 0.0
H160 H 0.59399 0.46631 0.37507 0.0
C161 C 0.64834 0.62989 0.37686 0.0
H162 H 0.65688 0.50555 0.49911 0.0
C163 C 0.61302 0.60704 0.30505 0.0
C164 C 0.59241 0.54803 0.30334 0.0
H165 H 0.66191 0.67604 0.37674 0.0
H166 H 0.60097 0.63593 0.25141 0.0
C167 C 0.60868 0.51215 0.37451 0.0
C168 C 0.72796 0.09957 0.75203 0.0
C169 C 0.75871 0.08427 0.83234 0.0
H170 H 0.73422 0.105 0.62214 0.0
C171 C 0.81401 0.05019 0.83885 0.0
H172 H 0.68408 0.12339 0.74288 0.0
C173 C 0.8399 0.03607 0.76893 0.0
C174 C 0.81322 0.058 0.69077 0.0
H175 H 0.84107 0.03791 0.89791 0.0
H176 H 0.88467 0.01354 0.77774 0.0
C177 C 0.75579 0.08785 0.68215 0.0
C178 C 0.2613 0.39537 0.26507 0.0
C179 C 0.25903 0.4407 0.323 0.0
H180 H 0.29492 0.36747 0.15573 0.0
C181 C 0.28174 0.49721 0.30582 0.0
H182 H 0.24452 0.35127 0.27582 0.0
C183 C 0.31177 0.50633 0.23702 0.0
C184 C 0.31924 0.45918 0.18379 0.0
H185 H 0.27907 0.53371 0.34778 0.0
H186 H 0.33278 0.54904 0.22896 0.0
C187 C 0.2906 0.40465 0.19603 0.0
C188 C 0.13666 0.92711 0.88751 0.0
C189 C 0.15535 0.96471 0.95538 0.0
H190 H 0.08839 0.91923 0.76293 0.0
C191 C 0.13829 0.02511 0.94717 0.0
H192 H 0.14726 0.88012 0.89147 0.0
C193 C 0.10255 0.04688 0.87422 0.0
C194 C 0.08453 1.00924 0.80682 0.0
H195 H 0.15278 0.05592 0.99687 0.0
H196 H 0.08963 0.09342 0.87018 0.0
C197 C 0.10245 0.94934 0.81372 0.0
loop_
_geom_bond_atom_site_label_1
_geom_bond_atom_site_label_2
_geom_bond_distance
_geom_bond_site_symmetry_2
_ccdc_geom_bond_type
H0 C3 0.931 . S
H1 C6 0.928 . S
H2 C8 0.930 1_556 S
C3 H0 0.931 . S
C3 C4 1.413 . S
C3 C5 1.360 . S
C4 C3 1.413 . S
C4 C8 1.429 . S
C5 C3 1.360 . S
C5 C6 1.372 . S
C6 H1 0.928 . S
C6 C5 1.372 . S
C6 C7 1.404 . S
C7 C6 1.404 . S
C7 C8 1.391 . S
C8 H2 0.930 1_554 S
C8 C4 1.429 . S
C8 C7 1.391 . S
H9 C12 0.931 . S
H10 C15 0.928 . S
H11 C17 0.930 . S
C12 H9 0.931 . S
C12 C13 1.413 . S
C12 C14 1.360 . S
C13 C12 1.413 . S
C13 C17 1.429 . S
C14 C12 1.360 . S
C14 C15 1.372 . S
C15 H10 0.928 . S
C15 C14 1.372 . S
C15 C16 1.404 . S
C16 C15 1.404 . S
C16 C17 1.391 . S
C17 H11 0.930 . S
C17 C13 1.429 . S
C17 C16 1.391 . S
H18 C21 0.931 . S
H19 C24 0.928 . S
H20 C26 0.930 . S
C21 H18 0.931 . S
C21 C22 1.413 1_554 S
C21 C23 1.360 . S
C22 C21 1.413 1_556 S
C22 C26 1.429 . S
C23 C21 1.360 . S
C23 C24 1.372 . S
C24 H19 0.928 . S
C24 C23 1.372 . S
C24 C25 1.404 1_554 S
C25 C24 1.404 1_556 S
C25 C26 1.391 . S
C26 H20 0.930 . S
C26 C22 1.429 . S
C26 C25 1.391 . S
H27 C30 0.931 . S
H28 C33 0.928 . S
H29 C35 0.930 . S
C30 H27 0.931 . S
C30 C31 1.413 . S
C30 C32 1.360 . S
C31 C30 1.413 . S
C31 C35 1.429 . S
C32 C30 1.360 . S
C32 C33 1.372 . S
C33 H28 0.928 . S
C33 C32 1.372 . S
C33 C34 1.404 . S
C34 C33 1.404 . S
C34 C35 1.391 . S
C35 H29 0.930 . S
C35 C31 1.429 . S
C35 C34 1.391 . S
O36 Mg37 1.990 1_655 S
O36 C50 1.253 . S
Mg37 O36 1.990 1_455 S
Mg37 O40 2.180 . S
Mg37 O41 2.117 . S
Mg37 O55 2.030 . S
O38 Mg39 2.072 1_655 S
O38 C50 1.260 . S
Mg39 O38 2.072 1_455 S
Mg39 O40 2.099 . S
Mg39 O42 2.079 1_545 S
Mg39 O43 2.072 1_455 S
Mg39 O45 2.099 1_445 S
Mg39 O56 2.079 1_545 S
O40 Mg37 2.180 . S
O40 Mg39 2.099 . S
O40 C51 1.279 . S
O41 Mg37 2.117 . S
O41 C51 1.250 . S
O42 Mg39 2.079 1_565 S
O42 C52 1.264 . S
O43 Mg39 2.072 1_655 S
O43 C53 1.260 . S
Mg44 O45 2.180 . S
Mg44 O46 2.030 1_655 S
Mg44 O47 1.990 . S
Mg44 O48 2.117 . S
O45 Mg39 2.099 1_665 S
O45 Mg44 2.180 . S
O45 C54 1.279 . S
O46 Mg44 2.030 1_455 S
O46 C52 1.248 . S
O47 Mg44 1.990 . S
O47 C53 1.253 1_565 S
O48 Mg44 2.117 . S
O48 C54 1.250 . S
C49 O55 1.248 1_565 S
C49 O56 1.264 . S
C50 O36 1.253 . S
C50 O38 1.260 . S
C51 O40 1.279 . S
C51 O41 1.250 . S
C52 O42 1.264 . S
C52 O46 1.248 . S
C53 O43 1.260 . S
C53 O47 1.253 1_545 S
C54 O45 1.279 . S
C54 O48 1.250 . S
O55 Mg37 2.030 . S
O55 C49 1.248 1_545 S
O56 Mg39 2.079 1_565 S
O56 C49 1.264 . S
O57 Mg58 1.990 . S
O57 C71 1.253 . S
Mg58 O57 1.990 . S
Mg58 O61 2.180 . S
Mg58 O62 2.117 . S
Mg58 O76 2.030 . S
O59 Mg60 2.072 . S
O59 C71 1.260 . S
Mg60 O59 2.072 . S
Mg60 O61 2.099 . S
Mg60 O63 2.079 1_554 S
Mg60 O64 2.072 1_554 S
Mg60 O66 2.099 . S
Mg60 O77 2.079 . S
O61 Mg58 2.180 . S
O61 Mg60 2.099 . S
O61 C72 1.279 . S
O62 Mg58 2.117 . S
O62 C72 1.250 . S
O63 Mg60 2.079 1_556 S
O63 C73 1.264 . S
O64 Mg60 2.072 1_556 S
O64 C74 1.260 . S
Mg65 O66 2.180 1_556 S
Mg65 O67 2.030 . S
Mg65 O68 1.990 . S
Mg65 O69 2.117 . S
O66 Mg60 2.099 . S
O66 Mg65 2.180 1_554 S
O66 C75 1.279 . S
O67 Mg65 2.030 . S
O67 C73 1.248 . S
O68 Mg65 1.990 . S
O68 C74 1.253 . S
O69 Mg65 2.117 . S
O69 C75 1.250 1_556 S
C70 O76 1.248 . S
C70 O77 1.264 . S
C71 O57 1.253 . S
C71 O59 1.260 . S
C72 O61 1.279 . S
C72 O62 1.250 . S
C73 O63 1.264 . S
C73 O67 1.248 . S
C74 O64 1.260 . S
C74 O68 1.253 . S
C75 O66 1.279 . S
C75 O69 1.250 1_554 S
O76 Mg58 2.030 . S
O76 C70 1.248 . S
O77 Mg60 2.079 . S
O77 C70 1.264 . S
C78 C79 1.387 . S
C78 H82 0.950 . S
C78 C87 1.390 . S
C79 C78 1.387 . S
C79 C81 1.387 . S
H80 C87 0.950 . S
C81 C79 1.387 . S
C81 C83 1.390 . S
C81 H85 0.950 . S
H82 C78 0.950 . S
C83 C81 1.390 . S
C83 C84 1.387 . S
C83 H86 0.950 . S
C84 C83 1.387 . S
C84 C87 1.387 . S
H85 C81 0.950 . S
H86 C83 0.950 . S
C87 C78 1.390 . S
C87 H80 0.950 . S
C87 C84 1.387 . S
C88 C89 1.387 . S
C88 H92 0.950 . S
C88 C97 1.390 . S
C89 C88 1.387 . S
C89 C91 1.387 . S
H90 C97 0.950 . S
C91 C89 1.387 . S
C91 C93 1.392 . S
C91 H95 0.950 1_554 S
H92 C88 0.950 . S
C93 C91 1.392 . S
C93 C94 1.395 . S
C93 H96 0.940 1_554 S
C94 C93 1.395 . S
C94 C97 1.387 . S
H95 C91 0.950 1_556 S
H96 C93 0.940 1_556 S
C97 C88 1.390 . S
C97 H90 0.950 . S
C97 C94 1.387 . S
C98 C99 1.387 . S
C98 H102 0.950 . S
C98 C107 1.390 . S
C99 C98 1.387 . S
C99 C101 1.387 . S
H100 C107 0.950 . S
C101 C99 1.387 . S
C101 C103 1.390 . S
C101 H105 0.950 . S
H102 C98 0.950 . S
C103 C101 1.390 . S
C103 C104 1.387 . S
C103 H106 0.950 . S
C104 C103 1.387 . S
C104 C107 1.387 . S
H105 C101 0.950 . S
H106 C103 0.950 . S
C107 C98 1.390 . S
C107 H100 0.950 . S
C107 C104 1.387 . S
C108 C109 1.387 1_556 S
C108 H112 0.950 . S
C108 C117 1.390 . S
C109 C108 1.387 1_554 S
C109 C111 1.388 . S
H110 C117 0.950 . S
C111 C109 1.388 . S
C111 C113 1.390 . S
C111 H115 0.950 . S
H112 C108 0.950 . S
C113 C111 1.390 . S
C113 C114 1.387 . S
C113 H116 0.950 . S
C114 C113 1.387 . S
C114 C117 1.387 1_554 S
H115 C111 0.950 . S
H116 C113 0.950 . S
C117 C108 1.390 . S
C117 H110 0.950 . S
C117 C114 1.387 1_556 S
C118 C119 1.387 . S
C118 H122 0.950 1_565 S
C118 C127 1.394 . S
C119 C118 1.387 . S
C119 C121 1.387 . S
H120 C127 0.933 1_545 S
C121 C119 1.387 . S
C121 C123 1.390 . S
C121 H125 0.950 . S
H122 C118 0.950 1_545 S
C123 C121 1.390 . S
C123 C124 1.387 . S
C123 H126 0.950 . S
C124 C123 1.387 . S
C124 C127 1.401 . S
H125 C121 0.950 . S
H126 C123 0.950 . S
C127 C118 1.394 . S
C127 H120 0.933 1_565 S
C127 C124 1.401 . S
C128 C129 1.387 . S
C128 H132 0.950 . S
C128 C137 1.390 . S
C129 C128 1.387 . S
C129 C131 1.387 . S
H130 C137 0.950 . S
C131 C129 1.387 . S
C131 C133 1.390 . S
C131 H135 0.950 . S
H132 C128 0.950 . S
C133 C131 1.390 . S
C133 C134 1.387 . S
C133 H136 0.950 . S
C134 C133 1.387 . S
C134 C137 1.387 . S
H135 C131 0.950 . S
H136 C133 0.950 . S
C137 C128 1.390 . S
C137 H130 0.950 . S
C137 C134 1.387 . S
C138 C139 1.387 . S
C138 H142 0.950 . S
C138 C147 1.390 . S
C139 C138 1.387 . S
C139 C141 1.387 . S
H140 C147 0.950 1_565 S
C141 C139 1.387 . S
C141 C143 1.390 . S
C141 H145 0.950 . S
H142 C138 0.950 . S
C143 C141 1.390 . S
C143 C144 1.387 . S
C143 H146 0.950 . S
C144 C143 1.387 . S
C144 C147 1.387 . S
H145 C141 0.950 . S
H146 C143 0.950 . S
C147 C138 1.390 . S
C147 H140 0.950 1_545 S
C147 C144 1.387 . S
C148 C149 1.387 . S
C148 H152 0.950 . S
C148 C157 1.390 . S
C149 C148 1.387 . S
C149 C151 1.387 . S
H150 C157 0.950 . S
C151 C149 1.387 . S
C151 C153 1.390 . S
C151 H155 0.950 . S
H152 C148 0.950 . S
C153 C151 1.390 . S
C153 C154 1.387 . S
C153 H156 0.950 . S
C154 C153 1.387 . S
C154 C157 1.387 . S
H155 C151 0.950 . S
H156 C153 0.950 . S
C157 C148 1.390 . S
C157 H150 0.950 . S
C157 C154 1.387 . S
C158 C159 1.387 . S
C158 H162 0.950 . S
C158 C167 1.390 . S
C159 C158 1.387 . S
C159 C161 1.387 . S
H160 C167 0.950 . S
C161 C159 1.387 . S
C161 C163 1.390 . S
C161 H165 0.950 . S
H162 C158 0.950 . S
C163 C161 1.390 . S
C163 C164 1.387 . S
C163 H166 0.950 . S
C164 C163 1.387 . S
C164 C167 1.387 . S
H165 C161 0.950 . S
H166 C163 0.950 . S
C167 C158 1.390 . S
C167 H160 0.950 . S
C167 C164 1.387 . S
C168 C169 1.387 . S
C168 H172 0.950 . S
C168 C177 1.390 . S
C169 C168 1.387 . S
C169 C171 1.387 . S
H170 C177 0.950 . S
C171 C169 1.387 . S
C171 C173 1.390 . S
C171 H175 0.950 . S
H172 C168 0.950 . S
C173 C171 1.390 . S
C173 C174 1.387 . S
C173 H176 0.950 . S
C174 C173 1.387 . S
C174 C177 1.387 . S
H175 C171 0.950 . S
H176 C173 0.950 . S
C177 C168 1.390 . S
C177 H170 0.950 . S
C177 C174 1.387 . S
C178 C179 1.387 . S
C178 H182 0.950 . S
C178 C187 1.390 . S
C179 C178 1.387 . S
C179 C181 1.387 . S
H180 C187 0.950 . S
C181 C179 1.387 . S
C181 C183 1.390 . S
C181 H185 0.950 . S
H182 C178 0.950 . S
C183 C181 1.390 . S
C183 C184 1.387 . S
C183 H186 0.950 . S
C184 C183 1.387 . S
C184 C187 1.387 . S
H185 C181 0.950 . S
H186 C183 0.950 . S
C187 C178 1.390 . S
C187 H180 0.950 . S
C187 C184 1.387 . S
C188 C189 1.387 . S
C188 H192 0.950 . S
C188 C197 1.390 . S
C189 C188 1.387 . S
C189 C191 1.387 . S
H190 C197 0.950 . S
C191 C189 1.387 . S
C191 C193 1.390 . S
C191 H195 0.950 1_565 S
H192 C188 0.950 . S
C193 C191 1.390 . S
C193 C194 1.387 . S
C193 H196 0.950 1_565 S
C194 C193 1.387 . S
C194 C197 1.387 . S
H195 C191 0.950 1_545 S
H196 C193 0.950 1_545 S
C197 C188 1.390 . S
C197 H190 0.950 . S
C197 C194 1.387 . S
C84 C51 1.284 . S
C79 C34 1.465 . S
C89 C7 1.471 . S
C94 C75 1.284 . S
C99 C16 1.569 . S
C104 C54 1.363 . S
C109 C25 1.568 1_554 S
C114 C72 1.363 . S
C124 C52 1.484 . S
C119 C5 1.503 . S
C134 C74 1.498 . S
C129 C13 1.550 . S
C139 C23 1.546 . S
C144 C53 1.475 . S
C149 C32 1.497 . S
C154 C73 1.436 . S
C164 C71 1.473 . S
C159 C14 1.544 . S
C174 C50 1.495 . S
C169 C22 1.549 . S
C184 C70 1.484 . S
C179 C31 1.495 . S
C189 C4 1.502 1_556 S
C194 C49 1.436 . S
