# Generated by pormake.
# Topology pts, (4,4)-cn, num edge types: 1
# Building blocks:
#     Node 0, Type 0, BuildingBlock: AZAVOO_clean_linker_0, # of connection points: 4
#     Node 1, Type 0, BuildingBlock: AZAVOO_clean_linker_0, # of connection points: 4
#     Node 2, Type 1, BuildingBlock: QUQFOY_clean_sbu_1, # of connection points: 4
#     Node 3, Type 1, BuildingBlock: QUQFOY_clean_sbu_1, # of connection points: 4
#     Edge 4, Type (0, 1), None
#     Edge 5, Type (0, 1), None
#     Edge 6, Type (0, 1), None
#     Edge 7, Type (0, 1), None
#     Edge 8, Type (0, 1), None
#     Edge 9, Type (0, 1), None
#     Edge 10, Type (0, 1), None
#     Edge 11, Type (0, 1), None
# Relax obj value: 0.244
# Max RMSD: 0.245
# Mean RMSD: 0.234
data_MOF--net-pts--node1-QUQFOY_clean_sbu_1--node2-AZAVOO_clean_linker_0--edge1-none
_symmetry_space_group_name_H-M    P1
_symmetry_Int_Tables_number       1
_symmetry_cell_setting            triclinic
loop_
_symmetry_equiv_pos_as_xyz
'x, y, z'
_cell_length_a     14.076574
_cell_length_b     15.214126
_cell_length_c     25.950957
_cell_angle_alpha  91.905453
_cell_angle_beta   95.48817
_cell_angle_gamma 89.534998
loop_
_atom_site_label
_atom_site_type_symbol
_atom_site_fract_x
_atom_site_fract_y
_atom_site_fract_z
_atom_type_partial_charge
H0 H 0.24908 0.22443 0.6885 0.0
H1 H 0.16655 0.05912 0.06216 0.0
H2 H 0.31401 0.28594 0.98045 0.0
H3 H 0.17932 0.2683 0.91478 0.0
H4 H 0.19863 0.98608 0.9281 0.0
H5 H 0.33419 1.00477 0.99338 0.0
H6 H 0.44407 0.29299 0.89524 0.0
H7 H 0.36016 0.29129 0.80802 0.0
H8 H 0.34547 1.00755 0.80914 0.0
H9 H 0.42998 0.01032 0.89616 0.0
H10 H 0.6642 0.2859 0.91121 0.0
H11 H 0.75795 0.27416 0.83662 0.0
H12 H 0.72282 0.99134 0.83202 0.0
H13 H 0.63024 1.00456 0.90673 0.0
H14 H 0.76161 0.28915 0.024 0.0
H15 H 0.93598 0.2856 0.03987 0.0
H16 H 0.93034 1.00141 0.02866 0.0
H17 H 0.75602 1.00613 0.01254 0.0
H18 H 0.66016 0.28069 0.12049 0.0
H19 H 0.79591 0.26712 0.18593 0.0
H20 H 0.78154 0.98388 0.16696 0.0
H21 H 0.64551 0.99862 0.10193 0.0
H22 H 0.39562 0.28732 0.09406 0.0
H23 H 0.28203 0.27917 0.15981 0.0
H24 H 0.33685 0.99988 0.16964 0.0
H25 H 0.45016 1.00912 0.10429 0.0
O26 O 0.2813 0.22371 0.72314 0.0
O27 O 0.26385 0.07925 0.72853 0.0
O28 O 0.09846 0.2084 0.05239 0.0
O29 O 0.09821 0.06234 0.05354 0.0
C30 C 0.4399 0.15289 0.99937 0.0
C31 C 0.49185 0.15335 0.95538 0.0
C32 C 0.59166 0.15206 0.96151 0.0
C33 C 0.64059 0.15039 0.0113 0.0
C34 C 0.58875 0.14898 0.05547 0.0
C35 C 0.48795 0.15125 0.0496 0.0
C36 C 0.33522 0.14654 0.99029 0.0
C37 C 0.28533 0.22071 0.9716 0.0
C38 C 0.20996 0.21026 0.93306 0.0
C39 C 0.18289 0.12554 0.9142 0.0
C40 C 0.22047 0.05207 0.94066 0.0
C41 C 0.2966 0.06268 0.97888 0.0
C42 C 0.44184 0.15192 0.90213 0.0
C43 C 0.4227 0.23063 0.87648 0.0
C44 C 0.37482 0.2294 0.82671 0.0
C45 C 0.34578 0.14928 0.80168 0.0
C46 C 0.3665 0.07039 0.82736 0.0
C47 C 0.41467 0.07175 0.87703 0.0
C48 C 0.6441 0.14578 0.91507 0.0
C49 C 0.67654 0.22175 0.89362 0.0
C50 C 0.72842 0.21483 0.85049 0.0
C51 C 0.74896 0.13161 0.82867 0.0
C52 C 0.70881 0.05639 0.84789 0.0
C53 C 0.65736 0.06349 0.89106 0.0
C54 C 0.74654 0.14794 0.01728 0.0
C55 C 0.79838 0.22631 0.02453 0.0
C56 C 0.89786 0.22403 0.03369 0.0
C57 C 0.94713 0.14314 0.03583 0.0
C58 C 0.89471 0.06476 0.02749 0.0
C59 C 0.79525 0.06721 0.01812 0.0
C60 C 0.64288 0.14067 0.10677 0.0
C61 C 0.68349 0.21579 0.13239 0.0
C62 C 0.76189 0.20775 0.16929 0.0
C63 C 0.80098 0.12438 0.18072 0.0
C64 C 0.75397 0.04905 0.15857 0.0
C65 C 0.6753 0.05722 0.12195 0.0
C66 C 0.43166 0.14893 0.09489 0.0
C67 C 0.38464 0.22492 0.11149 0.0
C68 C 0.31977 0.2201 0.14896 0.0
C69 C 0.30007 0.13884 0.16984 0.0
C70 C 0.35015 0.06349 0.15429 0.0
C71 C 0.41541 0.06858 0.1172 0.0
C72 C 0.29439 0.14827 0.74897 0.0
C73 C 0.05249 0.14029 0.04756 0.0
H74 H 0.03328 0.48422 0.18065 0.0
H75 H 0.16179 0.19864 0.594 0.0
H76 H 0.93492 0.46093 0.45782 0.0
H77 H 0.93014 0.35032 0.38739 0.0
H78 H 0.22712 0.29012 0.42788 0.0
H79 H 0.2328 0.40392 0.49771 0.0
H80 H 0.96274 0.60998 0.38912 0.0
H81 H 0.96508 0.56592 0.29767 0.0
H82 H 0.25975 0.48452 0.3275 0.0
H83 H 0.25656 0.52962 0.41877 0.0
H84 H 0.96527 0.80159 0.45293 0.0
H85 H 0.95917 0.90746 0.3835 0.0
H86 H 0.23896 0.82334 0.34686 0.0
H87 H 0.24853 0.72233 0.41924 0.0
H88 H 0.95141 0.80646 0.56288 0.0
H89 H 0.94304 0.96358 0.58517 0.0
H90 H 0.23953 0.99057 0.5579 0.0
H91 H 0.24713 0.8329 0.5361 0.0
H92 H 0.94747 0.64529 0.62952 0.0
H93 H 0.9207 0.75311 0.69929 0.0
H94 H 0.21139 0.8412 0.70096 0.0
H95 H 0.23999 0.72935 0.63414 0.0
H96 H 0.95139 0.43532 0.55691 0.0
H97 H 0.93728 0.31876 0.61843 0.0
H98 H 0.1909 0.41298 0.70893 0.0
H99 H 0.21071 0.52468 0.64456 0.0
O100 O 0.03432 0.50238 0.2168 0.0
O101 O 0.18585 0.46184 0.23414 0.0
O102 O 0.00906 0.11981 0.59374 0.0
O103 O 0.16405 0.13594 0.58652 0.0
C104 C 0.09708 0.53281 0.50324 0.0
C105 C 0.10692 0.59792 0.46633 0.0
C106 C 0.10854 0.68742 0.48145 0.0
C107 C 0.10399 0.71267 0.53375 0.0
C108 C 0.09962 0.64792 0.57172 0.0
C109 C 0.09383 0.55711 0.55645 0.0
C110 C 0.08429 0.44086 0.48287 0.0
C111 C -0.00241 0.42041 0.4537 0.0
C112 C -0.00475 0.35827 0.41293 0.0
C113 C 0.07864 0.31344 0.40208 0.0
C114 C 0.16206 0.32434 0.43582 0.0
C115 C 0.16499 0.38829 0.47615 0.0
C116 C 0.10928 0.57242 0.41053 0.0
C117 C 0.02777 0.58293 0.37571 0.0
C118 C 0.02931 0.55759 0.32355 0.0
C119 C 0.11258 0.52154 0.30528 0.0
C120 C 0.19445 0.51198 0.34029 0.0
C121 C 0.19281 0.53747 0.39243 0.0
C122 C 0.1077 0.75487 0.44141 0.0
C123 C 0.0264 0.80771 0.43096 0.0
C124 C 0.02258 0.86735 0.39123 0.0
C125 C 0.09843 0.8723 0.36029 0.0
C126 C 0.17974 0.81971 0.37047 0.0
C127 C 0.18512 0.76237 0.41153 0.0
C128 C 0.10004 0.80819 0.54825 0.0
C129 C 0.0147 0.84626 0.5622 0.0
C130 C 0.01001 0.9361 0.57467 0.0
C131 C 0.09062 0.98972 0.5732 0.0
C132 C 0.17619 0.95119 0.55944 0.0
C133 C 0.18074 0.86124 0.54691 0.0
C134 C 0.09542 0.67993 0.62628 0.0
C135 C 0.00704 0.68382 0.64718 0.0
C136 C -0.00859 0.74644 0.68637 0.0
C137 C 0.06338 0.80665 0.70405 0.0
C138 C 0.15455 0.7962 0.68722 0.0
C139 C 0.17123 0.73141 0.6497 0.0
C140 C 0.08319 0.48829 0.59528 0.0
C141 C 0.006 0.42944 0.5889 0.0
C142 C -0.0025 0.36308 0.6242 0.0
C143 C 0.06362 0.3567 0.66784 0.0
C144 C 0.13951 0.41648 0.67519 0.0
C145 C 0.15022 0.48072 0.63873 0.0
C146 C 0.11356 0.49349 0.24998 0.0
C147 C 0.08516 0.08561 0.58525 0.0
O148 O 0.93852 0.0429 0.21222 0.0
Cd149 Cd 0.07295 0.02387 0.2485 0.0
Cd150 Cd 0.0715 0.19662 0.26999 0.0
O151 O 0.93583 0.18488 0.23185 0.0
O152 O 0.08909 0.89985 0.2699 0.0
O153 O 0.08332 0.01471 0.32483 0.0
C154 C 0.0912 0.93105 0.31684 0.0
C155 C 0.081 0.26762 0.35156 0.0
C156 C 0.89526 0.11653 0.21087 0.0
C157 C 0.22232 0.13048 0.20406 0.0
O158 O 0.18581 0.19835 0.22466 0.0
O159 O 0.18865 0.0547 0.21011 0.0
O160 O 0.06561 0.31074 0.30965 0.0
O161 O 0.09439 0.18398 0.34765 0.0
O162 O 0.88001 0.18875 0.79071 0.0
Cd163 Cd 0.01663 0.19304 0.77089 0.0
Cd164 Cd 0.00208 0.00964 0.78447 0.0
O165 O 0.86231 0.04446 0.78885 0.0
O166 O 0.03638 0.31905 0.75397 0.0
O167 O 0.04419 0.20922 0.6967 0.0
C168 C 0.04883 0.29253 0.70754 0.0
C169 C 0.04104 0.88493 0.73563 0.0
C170 C 0.82999 0.12147 0.79685 0.0
C171 C 0.12344 0.11439 0.8646 0.0
O172 O 0.08645 0.04011 0.85148 0.0
O173 O 0.11219 0.17922 0.83486 0.0
O174 O -0.00123 0.87773 0.77713 0.0
O175 O 0.06055 0.96283 0.72143 0.0
loop_
_geom_bond_atom_site_label_1
_geom_bond_atom_site_label_2
_geom_bond_distance
_geom_bond_site_symmetry_2
_ccdc_geom_bond_type
H0 O26 0.856 . S
H1 O29 0.854 . S
H2 C37 0.930 . S
H3 C38 0.930 . S
H4 C40 0.930 . S
H5 C41 0.930 . S
H6 C43 0.931 . S
H7 C44 0.930 . S
H8 C46 0.930 1_565 S
H9 C47 0.929 1_565 S
H10 C49 0.930 . S
H11 C50 0.931 . S
H12 C52 0.930 1_565 S
H13 C53 0.929 1_565 S
H14 C55 0.931 . S
H15 C56 0.930 1_455 S
H16 C58 0.930 1_465 S
H17 C59 0.932 1_565 S
H18 C61 0.930 . S
H19 C62 0.929 . S
H20 C64 0.931 . S
H21 C65 0.930 . S
H22 C67 0.929 . S
H23 C68 0.931 . S
H24 C70 0.940 . S
H25 C71 0.929 . S
O26 H0 0.856 . S
O26 C72 1.300 . S
O27 C72 1.209 . S
O28 C73 1.199 . S
O29 H1 0.854 . S
O29 C73 1.297 . S
C30 C31 1.404 . S
C30 C35 1.397 1_556 S
C30 C36 1.492 . S
C31 C30 1.404 . S
C31 C32 1.396 . S
C31 C42 1.492 . S
C32 C31 1.396 . S
C32 C33 1.397 1_556 S
C32 C48 1.509 . S
C33 C32 1.397 1_554 S
C33 C34 1.412 . S
C33 C54 1.485 . S
C34 C33 1.412 . S
C34 C35 1.388 . S
C34 C60 1.490 . S
C35 C30 1.397 1_554 S
C35 C34 1.388 . S
C35 C66 1.519 . S
C36 C30 1.492 . S
C36 C37 1.363 . S
C36 C41 1.390 . S
C37 H2 0.930 . S
C37 C36 1.363 . S
C37 C38 1.372 . S
C38 H3 0.930 . S
C38 C37 1.372 . S
C38 C39 1.383 . S
C39 C38 1.383 . S
C39 C40 1.395 . S
C40 H4 0.930 . S
C40 C39 1.395 . S
C40 C41 1.362 . S
C41 H5 0.930 . S
C41 C36 1.390 . S
C41 C40 1.362 . S
C42 C31 1.492 . S
C42 C43 1.377 . S
C42 C47 1.397 . S
C43 H6 0.931 . S
C43 C42 1.377 . S
C43 C44 1.376 . S
C44 H7 0.930 . S
C44 C43 1.376 . S
C44 C45 1.376 . S
C45 C44 1.376 . S
C45 C46 1.378 . S
C45 C72 1.486 . S
C46 H8 0.930 1_545 S
C46 C45 1.378 . S
C46 C47 1.376 . S
C47 H9 0.929 1_545 S
C47 C42 1.397 . S
C47 C46 1.376 . S
C48 C32 1.509 . S
C48 C49 1.391 . S
C48 C53 1.386 . S
C49 H10 0.930 . S
C49 C48 1.391 . S
C49 C50 1.375 . S
C50 H11 0.931 . S
C50 C49 1.375 . S
C50 C51 1.375 . S
C51 C50 1.375 . S
C51 C52 1.361 . S
C52 H12 0.930 1_545 S
C52 C51 1.361 . S
C52 C53 1.399 . S
C53 H13 0.929 1_545 S
C53 C48 1.386 . S
C53 C52 1.399 . S
C54 C33 1.485 . S
C54 C55 1.394 . S
C54 C59 1.360 . S
C55 H14 0.931 . S
C55 C54 1.394 . S
C55 C56 1.372 . S
C56 H15 0.930 1_655 S
C56 C55 1.372 . S
C56 C57 1.397 1_655 S
C57 C56 1.397 1_455 S
C57 C58 1.390 1_455 S
C57 C73 1.476 . S
C58 H16 0.930 1_645 S
C58 C57 1.390 1_655 S
C58 C59 1.366 . S
C59 H17 0.932 1_545 S
C59 C54 1.360 . S
C59 C58 1.366 . S
C60 C34 1.490 . S
C60 C61 1.380 . S
C60 C65 1.386 . S
C61 H18 0.930 . S
C61 C60 1.380 . S
C61 C62 1.381 . S
C62 H19 0.929 . S
C62 C61 1.381 . S
C62 C63 1.371 . S
C63 C62 1.371 . S
C63 C64 1.380 . S
C64 H20 0.931 . S
C64 C63 1.380 . S
C64 C65 1.387 . S
C65 H21 0.930 . S
C65 C60 1.386 . S
C65 C64 1.387 . S
C66 C35 1.519 . S
C66 C67 1.377 . S
C66 C71 1.361 . S
C67 H22 0.929 . S
C67 C66 1.377 . S
C67 C68 1.386 . S
C68 H23 0.931 . S
C68 C67 1.386 . S
C68 C69 1.363 . S
C69 C68 1.363 . S
C69 C70 1.385 . S
C70 H24 0.940 . S
C70 C69 1.385 . S
C70 C71 1.396 . S
C71 H25 0.929 . S
C71 C66 1.361 . S
C71 C70 1.396 . S
C72 O26 1.300 . S
C72 O27 1.209 . S
C72 C45 1.486 . S
C73 O28 1.199 . S
C73 O29 1.297 . S
C73 C57 1.476 . S
H74 O100 0.856 . S
H75 O103 0.854 . S
H76 C111 0.930 . S
H77 C112 0.930 . S
H78 C114 0.930 . S
H79 C115 0.930 . S
H80 C117 0.931 1_655 S
H81 C118 0.930 1_655 S
H82 C120 0.930 . S
H83 C121 0.929 . S
H84 C123 0.930 1_655 S
H85 C124 0.931 1_655 S
H86 C126 0.930 . S
H87 C127 0.929 . S
H88 C129 0.931 1_655 S
H89 C130 0.930 1_655 S
H90 C132 0.930 . S
H91 C133 0.932 . S
H92 C135 0.930 . S
H93 C136 0.929 . S
H94 C138 0.931 . S
H95 C139 0.930 . S
H96 C141 0.929 1_655 S
H97 C142 0.931 1_655 S
H98 C144 0.930 . S
H99 C145 0.929 . S
O100 H74 0.856 . S
O100 C146 1.300 . S
O101 C146 1.209 . S
O102 C147 1.199 . S
O103 H75 0.854 . S
O103 C147 1.297 . S
C104 C105 1.404 . S
C104 C109 1.397 . S
C104 C110 1.492 . S
C105 C104 1.404 . S
C105 C106 1.396 . S
C105 C116 1.492 . S
C106 C105 1.396 . S
C106 C107 1.397 . S
C106 C122 1.509 . S
C107 C106 1.397 . S
C107 C108 1.412 . S
C107 C128 1.485 . S
C108 C107 1.412 . S
C108 C109 1.388 . S
C108 C134 1.490 . S
C109 C104 1.397 . S
C109 C108 1.388 . S
C109 C140 1.519 . S
C110 C104 1.492 . S
C110 C111 1.363 1_455 S
C110 C115 1.390 . S
C111 H76 0.930 . S
C111 C110 1.363 1_655 S
C111 C112 1.372 . S
C112 H77 0.930 . S
C112 C111 1.372 . S
C112 C113 1.383 1_655 S
C113 C112 1.383 1_455 S
C113 C114 1.395 . S
C114 H78 0.930 . S
C114 C113 1.395 . S
C114 C115 1.362 . S
C115 H79 0.930 . S
C115 C110 1.390 . S
C115 C114 1.362 . S
C116 C105 1.492 . S
C116 C117 1.377 . S
C116 C121 1.397 . S
C117 H80 0.931 1_455 S
C117 C116 1.377 . S
C117 C118 1.376 . S
C118 H81 0.930 1_455 S
C118 C117 1.376 . S
C118 C119 1.376 . S
C119 C118 1.376 . S
C119 C120 1.378 . S
C119 C146 1.486 . S
C120 H82 0.930 . S
C120 C119 1.378 . S
C120 C121 1.376 . S
C121 H83 0.929 . S
C121 C116 1.397 . S
C121 C120 1.376 . S
C122 C106 1.509 . S
C122 C123 1.391 . S
C122 C127 1.386 . S
C123 H84 0.930 1_455 S
C123 C122 1.391 . S
C123 C124 1.375 . S
C124 H85 0.931 1_455 S
C124 C123 1.375 . S
C124 C125 1.375 . S
C125 C124 1.375 . S
C125 C126 1.361 . S
C126 H86 0.930 . S
C126 C125 1.361 . S
C126 C127 1.399 . S
C127 H87 0.929 . S
C127 C122 1.386 . S
C127 C126 1.399 . S
C128 C107 1.485 . S
C128 C129 1.394 . S
C128 C133 1.360 . S
C129 H88 0.931 1_455 S
C129 C128 1.394 . S
C129 C130 1.372 . S
C130 H89 0.930 1_455 S
C130 C129 1.372 . S
C130 C131 1.397 . S
C131 C130 1.397 . S
C131 C132 1.390 . S
C131 C147 1.476 1_565 S
C132 H90 0.930 . S
C132 C131 1.390 . S
C132 C133 1.366 . S
C133 H91 0.932 . S
C133 C128 1.360 . S
C133 C132 1.366 . S
C134 C108 1.490 . S
C134 C135 1.380 1_455 S
C134 C139 1.386 . S
C135 H92 0.930 . S
C135 C134 1.380 1_655 S
C135 C136 1.381 . S
C136 H93 0.929 . S
C136 C135 1.381 . S
C136 C137 1.371 1_655 S
C137 C136 1.371 1_455 S
C137 C138 1.380 . S
C138 H94 0.931 . S
C138 C137 1.380 . S
C138 C139 1.387 . S
C139 H95 0.930 . S
C139 C134 1.386 . S
C139 C138 1.387 . S
C140 C109 1.519 . S
C140 C141 1.377 . S
C140 C145 1.361 . S
C141 H96 0.929 1_455 S
C141 C140 1.377 . S
C141 C142 1.386 . S
C142 H97 0.931 1_455 S
C142 C141 1.386 . S
C142 C143 1.363 . S
C143 C142 1.363 . S
C143 C144 1.385 . S
C144 H98 0.930 . S
C144 C143 1.385 . S
C144 C145 1.396 . S
C145 H99 0.929 . S
C145 C140 1.361 . S
C145 C144 1.396 . S
C146 O100 1.300 . S
C146 O101 1.209 . S
C146 C119 1.486 . S
C147 O102 1.199 . S
C147 O103 1.297 . S
C147 C131 1.476 1_545 S
O148 Cd149 2.223 1_655 S
O148 C156 1.315 . S
Cd149 O148 2.223 1_455 S
Cd149 O152 2.297 1_545 S
Cd149 O153 2.439 . S
Cd149 O159 2.240 . S
Cd150 O151 2.240 1_455 S
Cd150 O158 2.223 . S
Cd150 O160 2.297 . S
Cd150 O161 2.439 . S
O151 Cd150 2.240 1_655 S
O151 C156 1.279 . S
O152 Cd149 2.297 1_565 S
O152 C154 1.247 . S
O153 Cd149 2.439 . S
O153 C154 1.208 1_545 S
C154 O152 1.247 . S
C154 O153 1.208 1_565 S
C155 O160 1.247 . S
C155 O161 1.208 . S
C156 O148 1.315 . S
C156 O151 1.279 . S
C157 O158 1.315 . S
C157 O159 1.279 . S
O158 Cd150 2.223 . S
O158 C157 1.315 . S
O159 Cd149 2.240 . S
O159 C157 1.279 . S
O160 Cd150 2.297 . S
O160 C155 1.247 . S
O161 Cd150 2.439 . S
O161 C155 1.208 . S
O162 Cd163 2.223 . S
O162 C170 1.315 1_455 S
Cd163 O162 2.223 . S
Cd163 O166 2.297 . S
Cd163 O167 2.439 . S
Cd163 O173 2.240 . S
Cd164 O165 2.240 1_465 S
Cd164 O172 2.223 . S
Cd164 O174 2.297 . S
Cd164 O175 2.439 . S
O165 Cd164 2.240 1_645 S
O165 C170 1.279 . S
O166 Cd163 2.297 . S
O166 C168 1.247 . S
O167 Cd163 2.439 . S
O167 C168 1.208 . S
C168 O166 1.247 . S
C168 O167 1.208 . S
C169 O174 1.247 . S
C169 O175 1.208 . S
C170 O162 1.315 1_655 S
C170 O165 1.279 . S
C171 O172 1.315 1_545 S
C171 O173 1.279 . S
O172 Cd164 2.223 . S
O172 C171 1.315 1_565 S
O173 Cd163 2.240 . S
O173 C171 1.279 . S
O174 Cd164 2.297 . S
O174 C169 1.247 . S
O175 Cd164 2.439 . S
O175 C169 1.208 . S
C157 C69 2.701 . S
C168 C143 2.826 . S
C156 C63 3.099 . S
C169 C137 2.337 . S
C171 C39 2.878 . S
C155 C113 2.600 . S
C170 C51 1.223 . S
C125 C154 1.590 . S
