# Generated by pormake.
# Topology anh, (6,3)-cn, num edge types: 1
# Building blocks:
#     Node 0, Type 0, BuildingBlock: PAMTOO_clean_sbu_0, # of connection points: 6
#     Node 1, Type 0, BuildingBlock: PAMTOO_clean_sbu_0, # of connection points: 6
#     Node 2, Type 0, BuildingBlock: PAMTOO_clean_sbu_0, # of connection points: 6
#     Node 3, Type 1, BuildingBlock: INOVEN_clean_linker_0, # of connection points: 3
#     Node 4, Type 1, BuildingBlock: INOVEN_clean_linker_0, # of connection points: 3
#     Node 5, Type 1, BuildingBlock: INOVEN_clean_linker_0, # of connection points: 3
#     Node 6, Type 1, BuildingBlock: INOVEN_clean_linker_0, # of connection points: 3
#     Node 7, Type 1, BuildingBlock: INOVEN_clean_linker_0, # of connection points: 3
#     Node 8, Type 1, BuildingBlock: INOVEN_clean_linker_0, # of connection points: 3
#     Edge 9, Type (0, 1), None
#     Edge 10, Type (0, 1), None
#     Edge 11, Type (0, 1), None
#     Edge 12, Type (0, 1), None
#     Edge 13, Type (0, 1), None
#     Edge 14, Type (0, 1), None
#     Edge 15, Type (0, 1), None
#     Edge 16, Type (0, 1), None
#     Edge 17, Type (0, 1), None
#     Edge 18, Type (0, 1), None
#     Edge 19, Type (0, 1), None
#     Edge 20, Type (0, 1), None
#     Edge 21, Type (0, 1), None
#     Edge 22, Type (0, 1), None
#     Edge 23, Type (0, 1), None
#     Edge 24, Type (0, 1), None
#     Edge 25, Type (0, 1), None
#     Edge 26, Type (0, 1), None
# Relax obj value: 0.416
# Max RMSD: 0.262
# Mean RMSD: 0.145
data_MOF--net-anh--node1-PAMTOO_clean_sbu_0--node2-INOVEN_clean_linker_0--edge1-none
_symmetry_space_group_name_H-M    P1
_symmetry_Int_Tables_number       1
_symmetry_cell_setting            triclinic
loop_
_symmetry_equiv_pos_as_xyz
'x, y, z'
_cell_length_a     13.285298
_cell_length_b     12.717543
_cell_length_c     22.633427
_cell_angle_alpha  98.939694
_cell_angle_beta   95.44535
_cell_angle_gamma 82.819116
loop_
_atom_site_label
_atom_site_type_symbol
_atom_site_fract_x
_atom_site_fract_y
_atom_site_fract_z
_atom_type_partial_charge
Dy0 Dy 0.28111 0.65542 0.06525 0.0
Dy1 Dy 0.30057 0.41714 0.09758 0.0
C2 C 0.26568 0.44912 0.96374 0.0
O3 O 1.1167 0.63324 0.06969 0.0
O4 O 1.12982 0.451 0.06878 0.0
O5 O 0.32431 0.77589 0.01767 0.0
O6 O 0.22334 0.82131 0.08935 0.0
O7 O 0.23226 0.5302 0.17043 0.0
O8 O 0.32814 0.65958 0.16302 0.0
O9 O 0.46933 0.44851 0.09869 0.0
O10 O 0.44316 0.59517 0.04988 0.0
O11 O 0.34012 0.31667 0.16699 0.0
O12 O 0.28197 0.24934 0.07795 0.0
C13 C 1.07343 0.54432 0.06607 0.0
O14 O 0.23217 0.55108 -0.02055 0.0
O15 O 0.3207 0.39399 0.00156 0.0
C16 C 0.36307 0.92063 0.09303 0.0
C17 C 0.51665 1.02178 0.16974 0.0
C18 C 0.53724 0.96527 0.11245 0.0
C19 C 0.46137 0.91728 0.07443 0.0
C20 C 0.3421 0.97582 0.15 0.0
C21 C 0.41687 1.02701 0.18728 0.0
C22 C 0.28831 0.85306 0.05797 0.0
C23 C 0.27647 0.61287 0.19545 0.0
C24 C 0.50583 0.52093 0.07246 0.0
C25 C 1.21025 0.20259 0.16047 0.0
C26 C 1.03214 0.16628 0.20869 0.0
C27 C 1.11564 0.1979 0.24674 0.0
C28 C 1.20394 0.21674 0.22296 0.0
C29 C 1.12863 0.16371 0.12259 0.0
C30 C 1.04021 0.14634 0.1464 0.0
C31 C 0.29636 0.23795 0.13463 0.0
H32 H 0.61266 0.95384 0.0968 0.0
H33 H 0.48141 0.8732 0.03145 0.0
H34 H 0.26782 0.97809 0.1665 0.0
H35 H 0.3949 0.07049 0.2298 0.0
H36 H 1.11092 0.21123 0.29483 0.0
H37 H 0.26591 0.24539 0.25337 0.0
H38 H 1.13135 0.15019 0.0743 0.0
H39 H 0.97747 0.1198 0.11597 0.0
Dy40 Dy 0.53009 0.21141 0.49108 0.0
Dy41 Dy 0.77894 0.20428 0.50397 0.0
C42 C 0.65945 0.21536 0.61627 0.0
O43 O 0.55567 0.38023 0.48492 0.0
O44 O 0.71538 0.37428 0.53328 0.0
O45 O 0.39265 0.17045 0.52179 0.0
O46 O 0.38414 0.25914 0.44661 0.0
O47 O 0.72492 0.22876 0.41045 0.0
O48 O 0.58638 0.138 0.40244 0.0
O49 O 0.75764 1.02993 0.49339 0.0
O50 O 0.58445 1.04075 0.50071 0.0
O51 O 0.92656 0.1602 0.46916 0.0
O52 O 0.91264 0.25479 0.55694 0.0
C53 C 0.63142 0.42861 0.51363 0.0
O54 O 0.58102 0.26425 0.58759 0.0
O55 O 0.7335 0.15964 0.58744 0.0
C56 C 0.29564 0.10705 0.43498 0.0
C57 C 0.25871 0.90241 0.37429 0.0
C58 C 0.32164 0.96486 0.3512 0.0
C59 C 0.3384 1.06618 0.38057 0.0
C60 C 0.22833 1.0484 0.45674 0.0
C61 C 1.20841 0.94787 0.42606 0.0
C62 C 0.33885 0.19696 0.4739 0.0
C63 C 0.65867 0.17213 0.37758 0.0
C64 C 0.67468 0.98529 0.49722 0.0
C65 C 1.0335 0.29857 0.4969 0.0
C66 C 1.13444 0.45557 0.45886 0.0
C67 C 1.1283 0.35497 0.42327 0.0
C68 C 1.07776 0.27787 0.44188 0.0
C69 C 1.04422 0.39701 0.53392 0.0
C70 C 1.0939 0.47509 0.51485 0.0
C71 C 0.97168 0.2202 0.51347 0.0
H72 H 0.36359 0.93397 0.31233 0.0
H73 H 0.39104 0.10911 0.36264 0.0
H74 H 1.19479 0.07817 0.49879 0.0
H75 H 1.15635 0.90473 0.44432 0.0
H76 H 1.15967 0.33689 0.37998 0.0
H77 H 1.07106 0.20303 0.41232 0.0
H78 H 1.01101 0.4152 0.57661 0.0
H79 H 1.09762 0.55201 0.5428 0.0
Dy80 Dy 0.81988 0.71659 0.78131 0.0
Dy81 Dy 0.61232 0.69126 0.83072 0.0
C82 C 0.63013 0.69674 0.69606 0.0
O83 O 0.77078 0.88149 0.82809 0.0
O84 O 0.60008 0.8667 0.81884 0.0
O85 O 0.8867 0.71512 0.69806 0.0
O86 O 0.97424 0.75334 0.78301 0.0
O87 O 0.71969 0.73234 0.9099 0.0
O88 O 0.86293 0.64993 0.86824 0.0
O89 O 0.69944 0.52913 0.83145 0.0
O90 O 0.79525 0.54013 0.7556 0.0
O91 O 0.45207 0.67147 0.81391 0.0
O92 O 0.52819 0.6577 0.90196 0.0
C93 C 0.67619 0.92648 0.82403 0.0
O94 O 0.69049 0.76785 0.7189 0.0
O95 O 0.6057 0.63377 0.73146 0.0
C96 C 1.05469 0.63726 0.70763 0.0
C97 C 1.17591 0.46622 0.74812 0.0
C98 C 0.21491 0.56472 0.75089 0.0
C99 C 1.15474 0.6502 0.72967 0.0
C100 C 1.025 0.5333 0.6925 0.0
C101 C 1.08608 0.44725 0.7129 0.0
C102 C 0.97683 0.72517 0.72494 0.0
C103 C 0.80906 0.67652 0.91531 0.0
C104 C 0.7542 0.48141 0.78828 0.0
C105 C 0.4611 0.50393 0.8494 0.0
C106 C 0.48265 0.27803 0.82628 0.0
C107 C 0.49618 0.33087 0.88518 0.0
C108 C 0.48422 0.44298 0.89666 0.0
C109 C 0.46004 0.44958 0.79005 0.0
C110 C 0.46957 0.33793 0.77872 0.0
C111 C 0.45944 0.62234 0.86113 0.0
H112 H 0.28382 0.58102 0.77797 0.0
H113 H 1.17929 0.72952 0.74091 0.0
H114 H 0.94849 0.52083 0.67391 0.0
H115 H 1.05558 0.37117 0.70943 0.0
H116 H 0.50683 0.28556 0.92247 0.0
H117 H 0.49136 0.48208 0.94249 0.0
H118 H 0.44971 0.49298 0.75199 0.0
H119 H 0.45966 0.29827 0.73296 0.0
H120 H 0.69773 0.08041 0.14076 0.0
H121 H 0.52571 0.07838 0.29366 0.0
H122 H 0.8192 0.19171 0.31731 0.0
N123 N 0.86082 0.14069 0.20166 0.0
N124 N 0.94016 0.15842 0.23386 0.0
C125 C 0.68812 0.09424 0.18831 0.0
C126 C 0.59889 0.07234 0.21107 0.0
C127 C 0.76852 0.13263 0.22646 0.0
C128 C 0.75748 0.15965 0.28805 0.0
C129 C 0.66821 0.1437 0.31213 0.0
C130 C 0.5909 0.09679 0.27383 0.0
H131 H 0.61718 0.60844 0.45583 0.0
H132 H 0.60531 0.50528 0.62749 0.0
H133 H 0.62362 0.83613 0.61768 0.0
N134 N 0.61683 0.82068 0.50106 0.0
N135 N 0.68609 0.88051 0.51283 0.0
C136 C 0.6144 0.62651 0.50406 0.0
C137 C 0.61353 0.54328 0.53873 0.0
C138 C 0.61777 0.7328 0.53302 0.0
C139 C 0.61917 0.75455 0.59569 0.0
C140 C 0.61405 0.67341 0.63011 0.0
C141 C 0.60834 0.56858 0.60116 0.0
H142 H 0.25289 0.25668 0.73601 0.0
H143 H 1.18324 0.53562 0.8656 0.0
H144 H 0.31366 0.23829 0.92327 0.0
N145 N 0.36587 0.15123 0.81635 0.0
N146 N 0.45619 0.171 0.81592 0.0
C147 C 0.2447 0.2923 0.78227 0.0
C148 C 1.20882 0.4008 0.79568 0.0
C149 C 0.28586 0.23507 0.82862 0.0
C150 C 0.27868 0.28328 0.88828 0.0
C151 C 0.24638 0.3935 0.90207 0.0
C152 C 1.20859 0.4508 0.85556 0.0
H153 H 0.22228 0.73208 0.42867 0.0
H154 H 0.27565 0.81414 0.2561 0.0
H155 H 0.24941 0.4896 0.27615 0.0
N156 N 1.20327 0.52318 0.38501 0.0
N157 N 1.17171 0.54003 0.43608 0.0
C158 C 0.23391 0.71062 0.38148 0.0
C159 C 0.25197 0.78866 0.34657 0.0
C160 C 0.23214 0.60323 0.35526 0.0
C161 C 0.25126 0.57305 0.29546 0.0
C162 C 0.26779 0.64849 0.25982 0.0
C163 C 0.2673 0.75611 0.28508 0.0
H164 H 0.76107 0.30525 0.85118 0.0
H165 H 0.71827 0.39786 0.67441 0.0
H166 H 0.65651 0.08626 0.69879 0.0
N167 N 0.72028 0.09711 0.81381 0.0
N168 N 0.65691 1.02981 0.80521 0.0
C169 C 0.7392 0.28736 0.80369 0.0
C170 C 0.74035 0.36678 0.76565 0.0
C171 C 0.70904 0.18465 0.77969 0.0
C172 C 0.67742 0.16466 0.71835 0.0
C173 C 0.67871 0.24221 0.68114 0.0
C174 C 0.71321 0.34069 0.70438 0.0
H175 H 0.89731 0.49058 0.11561 0.0
H176 H 0.99638 0.62144 0.96785 0.0
H177 H 0.67896 0.61132 -0.01827 0.0
N178 N 0.68829 0.52776 0.0815 0.0
N179 N 0.60689 0.50521 0.05133 0.0
C180 C 0.88016 0.52375 0.07409 0.0
C181 C 0.96171 0.55108 0.04365 0.0
C182 C 0.77588 0.54293 0.05079 0.0
C183 C 0.75699 0.59283 -0.00117 0.0
C184 C 0.83534 0.62271 0.96955 0.0
C185 C 0.93646 0.59901 -0.00881 0.0
loop_
_geom_bond_atom_site_label_1
_geom_bond_atom_site_label_2
_geom_bond_distance
_geom_bond_site_symmetry_2
_ccdc_geom_bond_type
Dy0 O3 2.307 1_455 S
Dy0 O5 2.395 . S
Dy0 O6 2.379 . S
Dy0 O8 2.339 . S
Dy0 O10 2.298 . S
Dy0 O14 2.275 . S
Dy0 C22 2.738 . S
Dy1 O4 2.298 . S
Dy1 O7 2.275 1_655 S
Dy1 O9 2.307 1_655 S
Dy1 O11 2.395 . S
Dy1 O12 2.379 . S
Dy1 O15 2.339 . S
Dy1 C31 2.738 . S
C2 O14 1.254 . S
C2 O15 1.254 1_455 S
O3 Dy0 2.307 1_655 S
O3 C13 1.266 . S
O4 Dy1 2.298 . S
O4 C13 1.236 . S
O5 Dy0 2.395 . S
O5 C22 1.255 . S
O6 Dy0 2.379 . S
O6 C22 1.249 . S
O7 Dy1 2.275 1_455 S
O7 C23 1.254 . S
O8 Dy0 2.339 . S
O8 C23 1.257 . S
O9 Dy1 2.307 1_455 S
O9 C24 1.266 . S
O10 Dy0 2.298 . S
O10 C24 1.236 . S
O11 Dy1 2.395 . S
O11 C31 1.255 . S
O12 Dy1 2.379 . S
O12 C31 1.249 . S
C13 O3 1.266 . S
C13 O4 1.236 . S
O14 Dy0 2.275 . S
O14 C2 1.254 . S
O15 Dy1 2.339 . S
O15 C2 1.254 1_655 S
C16 C19 1.344 . S
C16 C20 1.328 . S
C16 C22 1.516 . S
C17 C18 1.304 1_545 S
C17 C21 1.323 . S
C18 C17 1.304 1_565 S
C18 C19 1.371 . S
C18 H32 0.930 . S
C19 C16 1.344 . S
C19 C18 1.371 . S
C19 H33 0.931 . S
C20 C16 1.328 . S
C20 C21 1.433 1_565 S
C20 H34 0.931 . S
C21 C17 1.323 . S
C21 C20 1.433 1_545 S
C21 H35 0.933 . S
C22 Dy0 2.738 . S
C22 O5 1.255 . S
C22 O6 1.249 . S
C22 C16 1.516 . S
C23 O7 1.254 . S
C23 O8 1.257 . S
C24 O9 1.266 . S
C24 O10 1.236 . S
C25 C28 1.344 . S
C25 C29 1.328 . S
C25 C31 1.516 . S
C26 C27 1.304 . S
C26 C30 1.323 . S
C27 C26 1.304 . S
C27 C28 1.371 . S
C27 H36 0.930 . S
C28 C25 1.344 . S
C28 C27 1.371 . S
C28 H37 0.931 . S
C29 C25 1.328 . S
C29 C30 1.433 . S
C29 H38 0.931 . S
C30 C26 1.323 . S
C30 C29 1.433 . S
C30 H39 0.933 . S
C31 Dy1 2.738 . S
C31 O11 1.255 . S
C31 O12 1.249 . S
C31 C25 1.516 . S
H32 C18 0.930 . S
H33 C19 0.931 . S
H34 C20 0.931 . S
H35 C21 0.933 . S
H36 C27 0.930 . S
H37 C28 0.931 . S
H38 C29 0.931 . S
H39 C30 0.933 . S
Dy40 O43 2.307 . S
Dy40 O45 2.395 1_545 S
Dy40 O46 2.379 1_545 S
Dy40 O48 2.339 . S
Dy40 O50 2.298 1_545 S
Dy40 O54 2.275 . S
Dy40 C62 2.738 1_545 S
Dy41 O44 2.298 . S
Dy41 O47 2.275 . S
Dy41 O49 2.307 1_545 S
Dy41 O51 2.395 . S
Dy41 O52 2.379 . S
Dy41 O55 2.339 . S
Dy41 C71 2.738 . S
C42 O54 1.254 . S
C42 O55 1.257 . S
O43 Dy40 2.307 . S
O43 C53 1.266 . S
O44 Dy41 2.298 . S
O44 C53 1.236 . S
O45 Dy40 2.395 1_565 S
O45 C62 1.255 . S
O46 Dy40 2.379 1_565 S
O46 C62 1.249 . S
O47 Dy41 2.275 . S
O47 C63 1.254 . S
O48 Dy40 2.339 . S
O48 C63 1.257 . S
O49 Dy41 2.307 1_565 S
O49 C64 1.266 . S
O50 Dy40 2.298 1_565 S
O50 C64 1.236 . S
O51 Dy41 2.395 . S
O51 C71 1.255 . S
O52 Dy41 2.379 . S
O52 C71 1.249 . S
C53 O43 1.266 . S
C53 O44 1.236 . S
O54 Dy40 2.275 . S
O54 C42 1.254 . S
O55 Dy41 2.339 . S
O55 C42 1.257 . S
C56 C59 1.344 . S
C56 C60 1.328 . S
C56 C62 1.516 . S
C57 C58 1.304 . S
C57 C61 1.323 . S
C58 C57 1.304 . S
C58 C59 1.371 . S
C58 H72 0.930 . S
C59 C56 1.344 . S
C59 C58 1.371 . S
C59 H73 0.931 . S
C60 C56 1.328 . S
C60 C61 1.433 . S
C60 H74 0.931 . S
C61 C57 1.323 . S
C61 C60 1.433 . S
C61 H75 0.933 . S
C62 Dy40 2.738 1_565 S
C62 O45 1.255 . S
C62 O46 1.249 . S
C62 C56 1.516 . S
C63 O47 1.254 . S
C63 O48 1.257 . S
C64 O49 1.266 . S
C64 O50 1.236 . S
C65 C68 1.344 . S
C65 C69 1.328 . S
C65 C71 1.516 . S
C66 C67 1.304 . S
C66 C70 1.323 . S
C67 C66 1.304 . S
C67 C68 1.371 . S
C67 H76 0.930 . S
C68 C65 1.344 . S
C68 C67 1.371 . S
C68 H77 0.931 . S
C69 C65 1.328 . S
C69 C70 1.433 . S
C69 H78 0.931 . S
C70 C66 1.323 . S
C70 C69 1.433 . S
C70 H79 0.933 . S
C71 Dy41 2.738 . S
C71 O51 1.255 . S
C71 O52 1.249 . S
C71 C65 1.516 . S
H72 C58 0.930 . S
H73 C59 0.931 . S
H74 C60 0.931 . S
H75 C61 0.933 . S
H76 C67 0.930 . S
H77 C68 0.931 . S
H78 C69 0.931 . S
H79 C70 0.933 . S
Dy80 O83 2.307 . S
Dy80 O85 2.395 . S
Dy80 O86 2.379 . S
Dy80 O88 2.339 . S
Dy80 O90 2.298 . S
Dy80 O94 2.275 . S
Dy80 C102 2.738 . S
Dy81 O84 2.298 . S
Dy81 O87 2.275 . S
Dy81 O89 2.307 . S
Dy81 O91 2.395 . S
Dy81 O92 2.379 . S
Dy81 O95 2.339 . S
Dy81 C111 2.738 . S
C82 O94 1.254 . S
C82 O95 1.257 . S
O83 Dy80 2.307 . S
O83 C93 1.266 . S
O84 Dy81 2.298 . S
O84 C93 1.236 . S
O85 Dy80 2.395 . S
O85 C102 1.255 . S
O86 Dy80 2.379 . S
O86 C102 1.249 . S
O87 Dy81 2.275 . S
O87 C103 1.254 . S
O88 Dy80 2.339 . S
O88 C103 1.257 . S
O89 Dy81 2.307 . S
O89 C104 1.266 . S
O90 Dy80 2.298 . S
O90 C104 1.236 . S
O91 Dy81 2.395 . S
O91 C111 1.255 . S
O92 Dy81 2.379 . S
O92 C111 1.249 . S
C93 O83 1.266 . S
C93 O84 1.236 . S
O94 Dy80 2.275 . S
O94 C82 1.254 . S
O95 Dy81 2.339 . S
O95 C82 1.257 . S
C96 C99 1.344 . S
C96 C100 1.328 . S
C96 C102 1.516 . S
C97 C98 1.304 . S
C97 C101 1.323 . S
C98 C97 1.304 . S
C98 C99 1.371 . S
C98 H112 0.930 . S
C99 C96 1.344 . S
C99 C98 1.371 . S
C99 H113 0.931 . S
C100 C96 1.328 . S
C100 C101 1.433 . S
C100 H114 0.931 . S
C101 C97 1.323 . S
C101 C100 1.433 . S
C101 H115 0.933 . S
C102 Dy80 2.738 . S
C102 O85 1.255 . S
C102 O86 1.249 . S
C102 C96 1.516 . S
C103 O87 1.254 . S
C103 O88 1.257 . S
C104 O89 1.266 . S
C104 O90 1.236 . S
C105 C108 1.344 . S
C105 C109 1.328 . S
C105 C111 1.516 . S
C106 C107 1.304 . S
C106 C110 1.323 . S
C107 C106 1.304 . S
C107 C108 1.371 . S
C107 H116 0.930 . S
C108 C105 1.344 . S
C108 C107 1.371 . S
C108 H117 0.931 . S
C109 C105 1.328 . S
C109 C110 1.433 . S
C109 H118 0.931 . S
C110 C106 1.323 . S
C110 C109 1.433 . S
C110 H119 0.933 . S
C111 Dy81 2.738 . S
C111 O91 1.255 . S
C111 O92 1.249 . S
C111 C105 1.516 . S
H112 C98 0.930 . S
H113 C99 0.931 . S
H114 C100 0.931 . S
H115 C101 0.933 . S
H116 C107 0.930 . S
H117 C108 0.931 . S
H118 C109 0.931 . S
H119 C110 0.933 . S
H120 C125 0.929 . S
H121 C130 0.931 . S
H122 C128 0.930 . S
N123 N124 1.234 . S
N123 C127 1.453 . S
N124 N123 1.234 . S
C125 H120 0.929 . S
C125 C126 1.373 1_545 S
C125 C127 1.368 . S
C126 C125 1.373 1_565 S
C126 C130 1.397 . S
C127 N123 1.453 . S
C127 C125 1.368 . S
C127 C128 1.373 . S
C128 H122 0.930 . S
C128 C127 1.373 . S
C128 C129 1.371 . S
C129 C128 1.371 . S
C129 C130 1.383 1_545 S
C130 H121 0.931 . S
C130 C126 1.397 . S
C130 C129 1.383 1_565 S
H131 C136 0.929 . S
H132 C141 0.931 . S
H133 C139 0.930 . S
N134 N135 1.234 . S
N134 C138 1.453 . S
N135 N134 1.234 . S
C136 H131 0.929 . S
C136 C137 1.373 . S
C136 C138 1.368 . S
C137 C136 1.373 . S
C137 C141 1.397 . S
C138 N134 1.453 . S
C138 C136 1.368 . S
C138 C139 1.373 . S
C139 H133 0.930 . S
C139 C138 1.373 . S
C139 C140 1.371 . S
C140 C139 1.371 . S
C140 C141 1.383 . S
C141 H132 0.931 . S
C141 C137 1.397 . S
C141 C140 1.383 . S
H142 C147 0.929 . S
H143 C152 0.931 1_554 S
H144 C150 0.930 1_554 S
N145 N146 1.234 . S
N145 C149 1.453 . S
N146 N145 1.234 . S
C147 H142 0.929 . S
C147 C148 1.373 . S
C147 C149 1.368 1_655 S
C148 C147 1.373 . S
C148 C152 1.397 . S
C149 N145 1.453 . S
C149 C147 1.368 1_455 S
C149 C150 1.373 . S
C150 H144 0.930 1_556 S
C150 C149 1.373 . S
C150 C151 1.371 1_556 S
C151 C150 1.371 1_554 S
C151 C152 1.383 1_454 S
C152 H143 0.931 1_556 S
C152 C148 1.397 . S
C152 C151 1.383 1_656 S
H153 C158 0.929 . S
H154 C163 0.931 . S
H155 C161 0.930 . S
N156 N157 1.234 . S
N156 C160 1.453 1_655 S
N157 N156 1.234 . S
C158 H153 0.929 . S
C158 C159 1.373 . S
C158 C160 1.368 . S
C159 C158 1.373 . S
C159 C163 1.397 . S
C160 N156 1.453 1_455 S
C160 C158 1.368 . S
C160 C161 1.373 1_455 S
C161 H155 0.930 . S
C161 C160 1.373 1_655 S
C161 C162 1.371 1_655 S
C162 C161 1.371 1_455 S
C162 C163 1.383 . S
C163 H154 0.931 . S
C163 C159 1.397 . S
C163 C162 1.383 . S
H164 C169 0.929 . S
H165 C174 0.931 . S
H166 C172 0.930 . S
N167 N168 1.234 . S
N167 C171 1.453 . S
N168 N167 1.234 . S
C169 H164 0.929 . S
C169 C170 1.373 . S
C169 C171 1.368 1_545 S
C170 C169 1.373 . S
C170 C174 1.397 . S
C171 N167 1.453 . S
C171 C169 1.368 1_565 S
C171 C172 1.373 . S
C172 H166 0.930 . S
C172 C171 1.373 . S
C172 C173 1.371 1_565 S
C173 C172 1.371 1_545 S
C173 C174 1.383 . S
C174 H165 0.931 . S
C174 C170 1.397 . S
C174 C173 1.383 . S
H175 C180 0.929 . S
H176 C185 0.931 . S
H177 C183 0.930 . S
N178 N179 1.234 . S
N178 C182 1.453 . S
N179 N178 1.234 . S
C180 H175 0.929 . S
C180 C181 1.373 . S
C180 C182 1.368 . S
C181 C180 1.373 . S
C181 C185 1.397 . S
C182 N178 1.453 . S
C182 C180 1.368 . S
C182 C183 1.373 . S
C183 H177 0.930 . S
C183 C182 1.373 . S
C183 C184 1.371 . S
C184 C183 1.371 . S
C184 C185 1.383 . S
C185 H176 0.931 . S
C185 C181 1.397 . S
C185 C184 1.383 . S
C24 N179 4.723 . S
C66 N157 2.440 . S
C93 N168 2.418 . S
C13 C181 4.852 . S
C159 C57 2.148 . S
C170 C104 2.501 . S
C64 N135 2.403 . S
C97 C148 3.898 . S
C17 C126 3.017 1_545 S
C137 C53 2.319 . S
N146 C106 3.210 . S
C26 N124 2.883 . S
C151 C2 0.521 . S
C63 C129 1.276 . S
C82 C140 1.108 . S
C173 C42 1.197 . S
C184 C103 1.994 1_554 S
C23 C162 1.485 . S
