# Generated by pormake.
# Topology pto, (3,4)-cn, num edge types: 1
# Building blocks:
#     Node 0, Type 0, BuildingBlock: BETDAH_clean_linker_0, # of connection points: 3
#     Node 1, Type 0, BuildingBlock: BETDAH_clean_linker_0, # of connection points: 3
#     Node 2, Type 0, BuildingBlock: BETDAH_clean_linker_0, # of connection points: 3
#     Node 3, Type 0, BuildingBlock: BETDAH_clean_linker_0, # of connection points: 3
#     Node 4, Type 0, BuildingBlock: BETDAH_clean_linker_0, # of connection points: 3
#     Node 5, Type 0, BuildingBlock: BETDAH_clean_linker_0, # of connection points: 3
#     Node 6, Type 0, BuildingBlock: BETDAH_clean_linker_0, # of connection points: 3
#     Node 7, Type 0, BuildingBlock: BETDAH_clean_linker_0, # of connection points: 3
#     Node 8, Type 1, BuildingBlock: NAWXER_clean_sbu_0, # of connection points: 4
#     Node 9, Type 1, BuildingBlock: NAWXER_clean_sbu_0, # of connection points: 4
#     Node 10, Type 1, BuildingBlock: NAWXER_clean_sbu_0, # of connection points: 4
#     Node 11, Type 1, BuildingBlock: NAWXER_clean_sbu_0, # of connection points: 4
#     Node 12, Type 1, BuildingBlock: NAWXER_clean_sbu_0, # of connection points: 4
#     Node 13, Type 1, BuildingBlock: NAWXER_clean_sbu_0, # of connection points: 4
#     Edge 14, Type (0, 1), None
#     Edge 15, Type (0, 1), None
#     Edge 16, Type (0, 1), None
#     Edge 17, Type (0, 1), None
#     Edge 18, Type (0, 1), None
#     Edge 19, Type (0, 1), None
#     Edge 20, Type (0, 1), None
#     Edge 21, Type (0, 1), None
#     Edge 22, Type (0, 1), None
#     Edge 23, Type (0, 1), None
#     Edge 24, Type (0, 1), None
#     Edge 25, Type (0, 1), None
#     Edge 26, Type (0, 1), None
#     Edge 27, Type (0, 1), None
#     Edge 28, Type (0, 1), None
#     Edge 29, Type (0, 1), None
#     Edge 30, Type (0, 1), None
#     Edge 31, Type (0, 1), None
#     Edge 32, Type (0, 1), None
#     Edge 33, Type (0, 1), None
#     Edge 34, Type (0, 1), None
#     Edge 35, Type (0, 1), None
#     Edge 36, Type (0, 1), None
#     Edge 37, Type (0, 1), None
# Relax obj value: 0.016
# Max RMSD: 0.131
# Mean RMSD: 0.054
data_MOF--net-pto--node1-NAWXER_clean_sbu_0--node2-BETDAH_clean_linker_0--edge1-none
_symmetry_space_group_name_H-M    P1
_symmetry_Int_Tables_number       1
_symmetry_cell_setting            triclinic
loop_
_symmetry_equiv_pos_as_xyz
'x, y, z'
_cell_length_a     17.313634
_cell_length_b     17.01401
_cell_length_c     16.301254
_cell_angle_alpha  112.95832
_cell_angle_beta   95.644908
_cell_angle_gamma 100.20331
loop_
_atom_site_label
_atom_site_type_symbol
_atom_site_fract_x
_atom_site_fract_y
_atom_site_fract_z
_atom_type_partial_charge
H0 H 0.47951 0.1422 0.44689 0.0
H1 H 0.39513 0.35558 0.41577 0.0
H2 H 0.35706 0.29719 0.64415 0.0
C3 C 0.4498 0.19576 0.47091 0.0
C4 C 0.42006 0.21422 0.55175 0.0
C5 C 0.4411 0.24611 0.42097 0.0
C6 C 0.4005 0.31501 0.45235 0.0
C7 C 0.36994 0.33362 0.53326 0.0
C8 C 0.38092 0.28332 0.58219 0.0
N9 N 0.33465 0.40652 0.57285 0.0
C10 C 0.28369 0.43903 0.52861 0.0
H11 H 0.3108 0.57595 0.90395 0.0
H12 H 0.44981 0.7375 0.79751 0.0
H13 H 0.19329 0.66499 0.72288 0.0
C14 C 0.31368 0.6112 0.86103 0.0
C15 C 0.24203 0.61552 0.81489 0.0
C16 C 0.38899 0.65415 0.85425 0.0
C17 C 0.39243 0.7039 0.80279 0.0
C18 C 0.32221 0.70669 0.75419 0.0
C19 C 0.24738 0.66167 0.75964 0.0
N20 N 0.3257 0.74704 0.6926 0.0
C21 C 0.36899 0.83175 0.7118 0.0
H22 H 0.94906 0.75396 0.53317 0.0
H23 H 0.73735 0.70861 0.34119 0.0
H24 H 0.8751 0.51393 0.29133 0.0
C25 C 0.90705 0.71201 0.47082 0.0
C26 C 0.92036 0.63069 0.41655 0.0
C27 C 0.84101 0.74042 0.44394 0.0
C28 C 0.78768 0.68648 0.36203 0.0
C29 C 0.80049 0.60442 0.3068 0.0
C30 C 0.86577 0.57698 0.33513 0.0
N31 N 0.7498 0.5478 0.2222 0.0
C32 C 0.70484 0.57602 0.16818 0.0
H33 H 0.83073 0.25203 0.73863 0.0
H34 H 0.72182 0.10823 0.87878 0.0
H35 H 0.89331 0.35318 0.02881 0.0
C36 C 0.81927 0.25036 0.80226 0.0
C37 C 0.86629 0.3152 0.88364 0.0
C38 C 0.77159 0.17299 0.79989 0.0
C39 C 0.75628 0.16893 0.88067 0.0
C40 C 0.8 0.23379 0.96358 0.0
C41 C 0.85606 0.30617 0.96499 0.0
N42 N 0.79748 0.21904 0.04335 0.0
C43 C 0.7266 0.18587 0.06525 0.0
H44 H 0.82276 0.64721 0.98224 0.0
H45 H 1.02679 0.7925 0.9302 0.0
H46 H 0.80788 0.87915 0.93825 0.0
C47 C 0.84929 0.7013 0.96673 0.0
C48 C 0.80429 0.76103 0.96061 0.0
C49 C 0.92955 0.71305 0.95655 0.0
C50 C 0.96474 0.78324 0.93796 0.0
C51 C 0.92086 0.84178 0.92897 0.0
C52 C 0.84072 0.83147 0.94133 0.0
N53 N 0.96145 0.91578 0.91753 0.0
C54 C 0.94271 0.93126 0.84116 0.0
H55 H 0.85114 0.37336 0.30057 0.0
H56 H 0.98475 0.26677 0.45143 0.0
H57 H 0.74882 0.29422 0.49425 0.0
C58 C 0.85523 0.34511 0.34958 0.0
C59 C 0.79164 0.33735 0.39528 0.0
C60 C 0.92525 0.31949 0.36912 0.0
C61 C 0.92934 0.28145 0.43144 0.0
C62 C 0.86634 0.27375 0.47743 0.0
C63 C 0.79827 0.30261 0.46006 0.0
N64 N 0.87321 0.24519 0.54779 0.0
C65 C 0.90078 0.17152 0.54165 0.0
H66 H 0.42015 0.17003 0.96252 0.0
H67 H 0.42039 0.43646 0.13312 0.0
H68 H 0.26725 0.30658 0.87201 0.0
C69 C 0.3959 0.22735 0.97499 0.0
C70 C 0.33874 0.22728 0.90657 0.0
C71 C 0.42497 0.30258 0.05738 0.0
C72 C 0.39726 0.37742 0.07105 0.0
C73 C 0.33923 0.37833 0.00699 0.0
C74 C 0.30874 0.30331 0.9242 0.0
N75 N 0.32052 0.46011 0.02592 0.0
C76 C 0.24423 0.47199 0.01473 0.0
H77 H 0.16182 0.77046 0.41682 0.0
H78 H 0.38523 0.90048 0.38502 0.0
H79 H 0.30982 0.62112 0.25357 0.0
C80 C 0.21151 0.76862 0.38095 0.0
C81 C 0.22533 0.68651 0.32508 0.0
C82 C 0.26928 0.84648 0.40469 0.0
C83 C 0.33716 0.84218 0.36311 0.0
C84 C 0.35222 0.76141 0.30904 0.0
C85 C 0.29483 0.68375 0.28781 0.0
N86 N 0.43271 0.75635 0.3074 0.0
C87 C 0.47654 0.76992 0.24544 0.0
C88 C 0.99998 0.3686 0.36112 0.0
C89 C 0.18249 0.60815 0.33385 0.0
O90 O 0.03388 0.43515 0.43401 0.0
Zn91 Zn 0.11329 0.55552 0.48245 0.0
O92 O 1.01965 0.36134 0.28538 0.0
Zn93 Zn 0.10192 0.47258 0.33563 0.0
O94 O 0.19285 0.44832 0.41568 0.0
O95 O 0.19943 0.539 0.55785 0.0
O96 O 0.15864 0.53233 0.26809 0.0
O97 O 0.17021 0.61917 0.41287 0.0
O98 O 0.0329 0.62812 0.51801 0.0
O99 O 1.01669 0.54897 0.37068 0.0
C100 C 0.22434 0.47846 0.49959 0.0
C101 C 0.99368 0.60277 0.43768 0.0
C102 C 0.93179 0.38445 0.8805 0.0
C103 C 0.1632 0.57708 0.83094 0.0
O104 O 0.97061 0.44908 0.9536 0.0
Zn105 Zn 0.06643 0.56251 0.9881 0.0
O106 O 0.95163 0.37902 0.80548 0.0
Zn107 Zn 0.04039 0.48355 0.84583 0.0
O108 O 0.12893 0.45375 0.92127 0.0
O109 O 0.14465 0.5442 0.06633 0.0
O110 O 0.11148 0.51391 0.76767 0.0
O111 O 0.15119 0.6019 0.9127 0.0
O112 O 1.01612 0.66049 0.03534 0.0
O113 O 0.98191 0.58863 0.88662 0.0
C114 C 0.16557 0.48413 0.00304 0.0
C115 C 0.97653 0.65033 0.96062 0.0
C116 C 0.38427 0.91659 0.70786 0.0
C117 C 0.41507 0.15283 0.596 0.0
O118 O 0.32247 0.94397 0.6939 0.0
Zn119 Zn 0.28435 0.03518 0.65196 0.0
O120 O 0.45199 0.9542 0.69969 0.0
Zn121 Zn 0.41607 0.04364 0.66391 0.0
O122 O 0.38462 0.12968 0.78258 0.0
O123 O 0.25479 0.11973 0.76325 0.0
O124 O 0.47438 0.12489 0.61751 0.0
O125 O 0.34605 0.1241 0.60832 0.0
O126 O 0.21826 0.94654 0.53065 0.0
O127 O 0.34737 0.95539 0.5398 0.0
C128 C 0.32395 0.15489 0.81356 0.0
C129 C 0.2769 0.92203 0.49368 0.0
C130 C 0.65688 0.60171 0.11007 0.0
C131 C 0.46352 0.65228 0.90618 0.0
O132 O 0.60734 0.54375 0.04097 0.0
Zn133 Zn 0.56974 0.62487 0.99995 0.0
O134 O 0.66524 0.68351 0.12785 0.0
Zn135 Zn 0.61143 0.76243 0.07018 0.0
O136 O 0.56698 0.82939 0.17348 0.0
O137 O 0.5147 0.68616 0.11281 0.0
O138 O 0.50977 0.72448 0.96422 0.0
O139 O 0.47889 0.58002 0.89948 0.0
O140 O 0.67844 0.67721 0.96408 0.0
O141 O 0.70268 0.82109 0.03623 0.0
C142 C 0.51843 0.76323 0.17242 0.0
C143 C 0.72309 0.7534 0.98408 0.0
C144 C 0.92935 0.95453 0.7659 0.0
C145 C 0.90763 0.0954 0.55715 0.0
O146 O 0.85834 0.93485 0.72129 0.0
Zn147 Zn 0.79831 0.95864 0.61388 0.0
O148 O 0.98677 -0.00113 0.74737 0.0
Zn149 Zn 0.92669 0.01422 0.65071 0.0
O150 O 0.85463 0.09043 0.72425 0.0
O151 O 0.72534 0.02603 0.68043 0.0
O152 O 0.97271 0.09341 0.5991 0.0
O153 O 0.84185 0.0459 0.55476 0.0
O154 O 0.76263 0.84254 0.51364 0.0
O155 O 0.89411 0.88719 0.54839 0.0
C156 C 0.78207 0.09237 0.73001 0.0
C157 C 0.83117 0.82782 0.50214 0.0
C158 C 0.71203 0.33752 0.3556 0.0
C159 C 0.48547 0.30543 0.12933 0.0
O160 O 0.66516 0.26178 0.31434 0.0
Zn161 Zn 0.56299 0.19363 0.21569 0.0
O162 O 0.69558 0.40317 0.34388 0.0
Zn163 Zn 0.59505 0.33704 0.25667 0.0
O164 O 0.51816 0.30275 0.33538 0.0
O165 O 0.49164 0.15909 0.29004 0.0
O166 O 0.53046 0.37836 0.18669 0.0
O167 O 0.49162 0.23392 0.13482 0.0
O168 O 0.62148 0.12374 0.12396 0.0
O169 O 0.65157 0.26557 0.15635 0.0
C170 C 0.48299 0.23413 0.34313 0.0
C171 C 0.66052 0.18878 0.11245 0.0
loop_
_geom_bond_atom_site_label_1
_geom_bond_atom_site_label_2
_geom_bond_distance
_geom_bond_site_symmetry_2
_ccdc_geom_bond_type
H0 C3 0.929 . S
H1 C6 0.929 . S
H2 C8 0.930 . S
C3 H0 0.929 . S
C3 C4 1.398 . S
C3 C5 1.396 . S
C4 C3 1.398 . S
C4 C8 1.407 . S
C5 C3 1.396 . S
C5 C6 1.394 . S
C6 H1 0.929 . S
C6 C5 1.394 . S
C6 C7 1.382 . S
C7 C6 1.382 . S
C7 C8 1.392 . S
C7 N9 1.420 . S
C8 H2 0.930 . S
C8 C4 1.407 . S
C8 C7 1.392 . S
N9 C7 1.420 . S
N9 C10 1.244 . S
C10 N9 1.244 . S
H11 C14 0.929 . S
H12 C17 0.929 . S
H13 C19 0.930 . S
C14 H11 0.929 . S
C14 C15 1.398 . S
C14 C16 1.396 . S
C15 C14 1.398 . S
C15 C19 1.407 . S
C16 C14 1.396 . S
C16 C17 1.394 . S
C17 H12 0.929 . S
C17 C16 1.394 . S
C17 C18 1.382 . S
C18 C17 1.382 . S
C18 C19 1.392 . S
C18 N20 1.420 . S
C19 H13 0.930 . S
C19 C15 1.407 . S
C19 C18 1.392 . S
N20 C18 1.420 . S
N20 C21 1.244 . S
C21 N20 1.244 . S
H22 C25 0.929 . S
H23 C28 0.929 . S
H24 C30 0.930 . S
C25 H22 0.929 . S
C25 C26 1.398 . S
C25 C27 1.396 . S
C26 C25 1.398 . S
C26 C30 1.407 . S
C27 C25 1.396 . S
C27 C28 1.394 . S
C28 H23 0.929 . S
C28 C27 1.394 . S
C28 C29 1.382 . S
C29 C28 1.382 . S
C29 C30 1.392 . S
C29 N31 1.420 . S
C30 H24 0.930 . S
C30 C26 1.407 . S
C30 C29 1.392 . S
N31 C29 1.420 . S
N31 C32 1.244 . S
C32 N31 1.244 . S
H33 C36 0.929 . S
H34 C39 0.929 . S
H35 C41 0.930 . S
C36 H33 0.929 . S
C36 C37 1.398 . S
C36 C38 1.396 . S
C37 C36 1.398 . S
C37 C41 1.407 1_556 S
C38 C36 1.396 . S
C38 C39 1.394 . S
C39 H34 0.929 . S
C39 C38 1.394 . S
C39 C40 1.382 1_556 S
C40 C39 1.382 1_554 S
C40 C41 1.392 . S
C40 N42 1.420 . S
C41 H35 0.930 . S
C41 C37 1.407 1_554 S
C41 C40 1.392 . S
N42 C40 1.420 . S
N42 C43 1.244 . S
C43 N42 1.244 . S
H44 C47 0.929 . S
H45 C50 0.929 . S
H46 C52 0.930 . S
C47 H44 0.929 . S
C47 C48 1.398 . S
C47 C49 1.396 . S
C48 C47 1.398 . S
C48 C52 1.407 . S
C49 C47 1.396 . S
C49 C50 1.394 . S
C50 H45 0.929 . S
C50 C49 1.394 . S
C50 C51 1.382 . S
C51 C50 1.382 . S
C51 C52 1.392 . S
C51 N53 1.420 . S
C52 H46 0.930 . S
C52 C48 1.407 . S
C52 C51 1.392 . S
N53 C51 1.420 . S
N53 C54 1.244 . S
C54 N53 1.244 . S
H55 C58 0.929 . S
H56 C61 0.929 . S
H57 C63 0.930 . S
C58 H55 0.929 . S
C58 C59 1.398 . S
C58 C60 1.396 . S
C59 C58 1.398 . S
C59 C63 1.407 . S
C60 C58 1.396 . S
C60 C61 1.394 . S
C61 H56 0.929 . S
C61 C60 1.394 . S
C61 C62 1.382 . S
C62 C61 1.382 . S
C62 C63 1.392 . S
C62 N64 1.420 . S
C63 H57 0.930 . S
C63 C59 1.407 . S
C63 C62 1.392 . S
N64 C62 1.420 . S
N64 C65 1.244 . S
C65 N64 1.244 . S
H66 C69 0.929 . S
H67 C72 0.929 . S
H68 C74 0.930 . S
C69 H66 0.929 . S
C69 C70 1.398 . S
C69 C71 1.396 1_556 S
C70 C69 1.398 . S
C70 C74 1.407 . S
C71 C69 1.396 1_554 S
C71 C72 1.394 . S
C72 H67 0.929 . S
C72 C71 1.394 . S
C72 C73 1.382 1_554 S
C73 C72 1.382 1_556 S
C73 C74 1.392 . S
C73 N75 1.420 . S
C74 H68 0.930 . S
C74 C70 1.407 . S
C74 C73 1.392 . S
N75 C73 1.420 . S
N75 C76 1.244 . S
C76 N75 1.244 . S
H77 C80 0.929 . S
H78 C83 0.929 . S
H79 C85 0.930 . S
C80 H77 0.929 . S
C80 C81 1.398 . S
C80 C82 1.396 . S
C81 C80 1.398 . S
C81 C85 1.407 . S
C82 C80 1.396 . S
C82 C83 1.394 . S
C83 H78 0.929 . S
C83 C82 1.394 . S
C83 C84 1.382 . S
C84 C83 1.382 . S
C84 C85 1.392 . S
C84 N86 1.420 . S
C85 H79 0.930 . S
C85 C81 1.407 . S
C85 C84 1.392 . S
N86 C84 1.420 . S
N86 C87 1.244 . S
C87 N86 1.244 . S
C88 O90 1.247 . S
C88 O92 1.258 . S
C89 O96 1.247 . S
C89 O97 1.258 . S
O90 C88 1.247 . S
O90 Zn91 2.028 1_655 S
Zn91 O90 2.028 1_455 S
Zn91 O95 2.035 . S
Zn91 O97 2.035 . S
Zn91 O98 2.019 1_455 S
O92 C88 1.258 . S
O92 Zn93 2.035 1_655 S
Zn93 O92 2.035 1_455 S
Zn93 O94 2.028 . S
Zn93 O96 2.028 . S
Zn93 O99 2.035 1_455 S
O94 Zn93 2.028 . S
O94 C100 1.247 . S
O95 Zn91 2.035 . S
O95 C100 1.258 . S
O96 C89 1.247 . S
O96 Zn93 2.028 . S
O97 C89 1.258 . S
O97 Zn91 2.035 . S
O98 Zn91 2.019 1_655 S
O98 C101 1.252 . S
O99 Zn93 2.035 1_655 S
O99 C101 1.258 . S
C100 O94 1.247 . S
C100 O95 1.258 . S
C101 O98 1.252 . S
C101 O99 1.258 . S
C102 O104 1.252 . S
C102 O106 1.258 1_554 S
C103 O110 1.247 . S
C103 O111 1.258 1_556 S
O104 C102 1.252 . S
O104 Zn105 2.020 1_655 S
Zn105 O104 2.020 1_455 S
Zn105 O109 2.035 . S
Zn105 O111 2.035 . S
Zn105 O112 2.028 . S
O106 C102 1.258 1_556 S
O106 Zn107 2.035 1_655 S
Zn107 O106 2.035 1_455 S
Zn107 O108 2.028 . S
Zn107 O110 2.028 . S
Zn107 O113 2.035 1_455 S
O108 Zn107 2.028 . S
O108 C114 1.247 . S
O109 Zn105 2.035 . S
O109 C114 1.258 1_554 S
O110 C103 1.247 . S
O110 Zn107 2.028 . S
O111 C103 1.258 1_554 S
O111 Zn105 2.035 . S
O112 Zn105 2.028 . S
O112 C115 1.247 1_454 S
O113 Zn107 2.035 1_655 S
O113 C115 1.258 . S
C114 O108 1.247 . S
C114 O109 1.258 1_556 S
C115 O112 1.247 1_656 S
C115 O113 1.258 . S
C116 O118 1.247 . S
C116 O120 1.258 . S
C117 O124 1.247 . S
C117 O125 1.258 . S
O118 C116 1.247 . S
O118 Zn119 2.028 1_565 S
Zn119 O118 2.028 1_545 S
Zn119 O123 2.035 . S
Zn119 O125 2.035 . S
Zn119 O126 2.028 1_545 S
O120 C116 1.258 . S
O120 Zn121 2.035 1_565 S
Zn121 O120 2.035 1_545 S
Zn121 O122 2.028 . S
Zn121 O124 2.028 . S
Zn121 O127 2.035 1_545 S
O122 Zn121 2.028 . S
O122 C128 1.247 . S
O123 Zn119 2.035 . S
O123 C128 1.258 . S
O124 C117 1.247 . S
O124 Zn121 2.028 . S
O125 C117 1.258 . S
O125 Zn119 2.035 . S
O126 Zn119 2.028 1_565 S
O126 C129 1.247 . S
O127 Zn121 2.035 1_565 S
O127 C129 1.258 . S
C128 O122 1.247 . S
C128 O123 1.258 . S
C129 O126 1.247 . S
C129 O127 1.258 . S
C130 O132 1.247 . S
C130 O134 1.258 . S
C131 O138 1.247 . S
C131 O139 1.258 . S
O132 C130 1.247 . S
O132 Zn133 2.028 1_554 S
Zn133 O132 2.028 1_556 S
Zn133 O137 2.035 1_556 S
Zn133 O139 2.035 . S
Zn133 O140 2.028 . S
O134 C130 1.258 . S
O134 Zn135 2.035 . S
Zn135 O134 2.035 . S
Zn135 O136 2.028 . S
Zn135 O138 2.028 1_554 S
Zn135 O141 2.035 1_554 S
O136 Zn135 2.028 . S
O136 C142 1.247 . S
O137 Zn133 2.035 1_554 S
O137 C142 1.258 . S
O138 C131 1.247 . S
O138 Zn135 2.028 1_556 S
O139 C131 1.258 . S
O139 Zn133 2.035 . S
O140 Zn133 2.028 . S
O140 C143 1.247 . S
O141 Zn135 2.035 1_556 S
O141 C143 1.258 . S
C142 O136 1.247 . S
C142 O137 1.258 . S
C143 O140 1.247 . S
C143 O141 1.258 . S
C144 O146 1.247 . S
C144 O148 1.258 . S
C145 O152 1.247 . S
C145 O153 1.258 . S
O146 C144 1.247 . S
O146 Zn147 2.037 . S
Zn147 O146 2.037 . S
Zn147 O151 2.030 1_565 S
Zn147 O153 2.026 1_565 S
Zn147 O154 2.033 . S
O148 C144 1.258 . S
O148 Zn149 2.035 1_565 S
Zn149 O148 2.035 1_545 S
Zn149 O150 2.028 . S
Zn149 O152 2.028 . S
Zn149 O155 2.035 1_545 S
O150 Zn149 2.028 . S
O150 C156 1.247 . S
O151 Zn147 2.030 1_545 S
O151 C156 1.258 . S
O152 C145 1.247 . S
O152 Zn149 2.028 . S
O153 C145 1.258 . S
O153 Zn147 2.026 1_545 S
O154 Zn147 2.033 . S
O154 C157 1.247 . S
O155 Zn149 2.035 1_565 S
O155 C157 1.258 . S
C156 O150 1.247 . S
C156 O151 1.258 . S
C157 O154 1.247 . S
C157 O155 1.258 . S
C158 O160 1.247 . S
C158 O162 1.258 . S
C159 O166 1.247 . S
C159 O167 1.258 . S
O160 C158 1.247 . S
O160 Zn161 2.028 . S
Zn161 O160 2.028 . S
Zn161 O165 2.035 . S
Zn161 O167 2.035 . S
Zn161 O168 2.028 . S
O162 C158 1.258 . S
O162 Zn163 2.035 . S
Zn163 O162 2.035 . S
Zn163 O164 2.028 . S
Zn163 O166 2.028 . S
Zn163 O169 2.035 . S
O164 Zn163 2.028 . S
O164 C170 1.247 . S
O165 Zn161 2.035 . S
O165 C170 1.258 . S
O166 C159 1.247 . S
O166 Zn163 2.028 . S
O167 C159 1.258 . S
O167 Zn161 2.035 . S
O168 Zn161 2.028 . S
O168 C171 1.247 . S
O169 Zn163 2.035 . S
O169 C171 1.258 . S
C170 O164 1.247 . S
C170 O165 1.258 . S
C171 O168 1.247 . S
C171 O169 1.258 . S
C100 C10 1.532 . S
C103 C15 1.987 . S
C101 C26 1.415 . S
C102 C37 1.659 1_554 S
C117 C4 1.820 . S
C131 C16 1.800 . S
C27 C157 1.659 . S
C171 C43 1.370 . S
C116 C21 1.702 . S
C32 C130 1.565 . S
C156 C38 1.646 . S
C170 C5 1.666 . S
C49 C115 2.018 . S
C88 C60 1.730 . S
C76 C114 1.532 . S
C81 C89 1.582 . S
C144 C54 1.601 . S
C158 C59 1.773 . S
C128 C70 1.685 . S
C87 C142 1.744 . S
C145 C65 1.665 . S
C159 C71 1.634 . S
C129 C82 1.851 . S
C48 C143 1.858 . S
