# Generated by pormake.
# Topology tsx, (6,3)-cn, num edge types: 1
# Building blocks:
#     Node 0, Type 0, BuildingBlock: VOLQOD_clean_sbu_1, # of connection points: 6
#     Node 1, Type 0, BuildingBlock: VOLQOD_clean_sbu_1, # of connection points: 6
#     Node 2, Type 1, BuildingBlock: CUQRIR_clean_linker_1, # of connection points: 3
#     Node 3, Type 1, BuildingBlock: CUQRIR_clean_linker_1, # of connection points: 3
#     Node 4, Type 1, BuildingBlock: CUQRIR_clean_linker_1, # of connection points: 3
#     Node 5, Type 1, BuildingBlock: CUQRIR_clean_linker_1, # of connection points: 3
#     Edge 6, Type (0, 1), BuildingBlock: AJUNOK_clean_linker_0, # of connection points: 2
#     Edge 7, Type (0, 1), BuildingBlock: AJUNOK_clean_linker_0, # of connection points: 2
#     Edge 8, Type (0, 1), BuildingBlock: AJUNOK_clean_linker_0, # of connection points: 2
#     Edge 9, Type (0, 1), BuildingBlock: AJUNOK_clean_linker_0, # of connection points: 2
#     Edge 10, Type (0, 1), BuildingBlock: AJUNOK_clean_linker_0, # of connection points: 2
#     Edge 11, Type (0, 1), BuildingBlock: AJUNOK_clean_linker_0, # of connection points: 2
#     Edge 12, Type (0, 1), BuildingBlock: AJUNOK_clean_linker_0, # of connection points: 2
#     Edge 13, Type (0, 1), BuildingBlock: AJUNOK_clean_linker_0, # of connection points: 2
#     Edge 14, Type (0, 1), BuildingBlock: AJUNOK_clean_linker_0, # of connection points: 2
#     Edge 15, Type (0, 1), BuildingBlock: AJUNOK_clean_linker_0, # of connection points: 2
#     Edge 16, Type (0, 1), BuildingBlock: AJUNOK_clean_linker_0, # of connection points: 2
#     Edge 17, Type (0, 1), BuildingBlock: AJUNOK_clean_linker_0, # of connection points: 2
# Relax obj value: 0.079
# Max RMSD: 0.140
# Mean RMSD: 0.123
data_MOF--net-tsx--node1-VOLQOD_clean_sbu_1--node2-CUQRIR_clean_linker_1--edge1-AJUNOK_clean_linker_0
_symmetry_space_group_name_H-M    P1
_symmetry_Int_Tables_number       1
_symmetry_cell_setting            triclinic
loop_
_symmetry_equiv_pos_as_xyz
'x, y, z'
_cell_length_a     13.743153
_cell_length_b     14.439617
_cell_length_c     26.382156
_cell_angle_alpha  77.990653
_cell_angle_beta   90.463745
_cell_angle_gamma 90.475767
loop_
_atom_site_label
_atom_site_type_symbol
_atom_site_fract_x
_atom_site_fract_y
_atom_site_fract_z
_atom_type_partial_charge
O0 O 0.09617 0.9505 0.11314 0.0
Zn1 Zn 0.12928 0.98088 0.03772 0.0
O2 O 0.01459 0.02234 -0.00277 0.0
Zn3 Zn 0.98355 0.93453 0.95425 0.0
Zn4 Zn 0.905 0.0279 0.04105 0.0
Zn5 Zn 0.03958 0.1451 0.95428 0.0
O6 O 0.95959 1.00723 0.88098 0.0
O7 O 0.06484 0.12602 0.88134 0.0
O8 O 0.20056 0.87934 0.01102 0.0
O9 O 0.10051 0.85736 0.94799 0.0
O10 O 0.87995 0.83973 0.9879 0.0
O11 O 0.82827 0.90609 0.05153 0.0
O12 O 0.81726 0.13821 0.00772 0.0
O13 O 0.22256 0.08738 0.03517 0.0
O14 O 0.91692 0.22304 0.94945 0.0
O15 O 0.15227 0.21126 0.98464 0.0
C16 C 0.03211 0.99056 0.1358 0.0
C17 C 1.01404 0.07435 0.85713 0.0
C18 C 0.8273 0.8379 0.02776 0.0
C19 C 0.18019 0.84091 0.97288 0.0
C20 C 0.83407 0.21008 0.97138 0.0
C21 C 0.22041 0.17543 0.0157 0.0
O22 O 0.95898 0.0337 0.11172 0.0
O23 O 0.59482 0.45276 0.61159 0.0
Zn24 Zn 0.6302 0.48594 0.53641 0.0
O25 O 0.51684 0.53173 0.49584 0.0
Zn26 Zn 0.4828 0.44576 0.4525 0.0
Zn27 Zn 0.40715 0.54018 0.53885 0.0
Zn28 Zn 0.54569 0.65295 0.45239 0.0
O29 O 0.45724 0.51934 0.37996 0.0
O30 O 0.57105 0.63045 0.38022 0.0
O31 O 0.69919 0.38425 0.50828 0.0
O32 O 0.599 0.36983 0.44416 0.0
O33 O 0.37818 0.35216 0.4859 0.0
O34 O 0.32472 0.42265 0.54746 0.0
O35 O 0.32429 0.65405 0.50583 0.0
O36 O 0.726 0.59044 0.53473 0.0
O37 O 0.42549 0.7349 0.44686 0.0
O38 O 0.66142 0.71539 0.48222 0.0
C39 C 0.52993 0.4909 0.63474 0.0
C40 C 0.51686 0.58146 0.35607 0.0
C41 C 0.32288 0.35365 0.52437 0.0
C42 C 0.67851 0.34991 0.46867 0.0
C43 C 0.34281 0.72479 0.46912 0.0
C44 C 0.72806 0.67796 0.51386 0.0
O45 O 0.45921 0.53834 0.61065 0.0
C46 C 0.99457 0.04359 0.41524 0.0
N47 N 0.05146 1.00174 0.38512 0.0
N48 N 0.96694 0.13021 0.38979 0.0
C49 C 0.94692 0.993 0.46393 0.0
C50 C 1.00754 0.13932 0.34259 0.0
N51 N 0.05888 0.06104 0.33953 0.0
C52 C 0.99072 0.22106 0.29783 0.0
H53 H 0.86677 0.9975 0.45865 0.0
H54 H 0.96551 0.02912 0.4959 0.0
H55 H 0.96701 0.91751 0.47368 0.0
H56 H 0.05902 0.23859 0.27562 0.0
H57 H 0.96488 0.28439 0.3113 0.0
H58 H 0.93548 0.20042 0.27125 0.0
C59 C 0.07652 0.95449 0.58701 0.0
N60 N 0.09757 0.02151 0.61481 0.0
N61 N 0.99808 0.90204 0.60679 0.0
C62 C 0.1343 0.9387 0.54138 0.0
C63 C 0.97416 0.93724 0.64851 0.0
N64 N 0.03393 0.00991 0.65345 0.0
C65 C 0.89456 0.89673 0.68569 0.0
H66 H 0.20852 0.91518 0.55458 0.0
H67 H 0.14145 1.00576 0.51215 0.0
H68 H 0.10204 0.88274 0.52353 0.0
H69 H 0.87343 0.82451 0.6812 0.0
H70 H 0.82972 0.94289 0.6778 0.0
H71 H 0.91837 0.89348 0.72631 0.0
C72 C 0.48192 0.52431 0.91812 0.0
N73 N 0.53741 0.48191 0.88762 0.0
N74 N 0.45385 0.61069 0.89281 0.0
C75 C 0.43918 0.47624 0.96847 0.0
C76 C 0.49157 0.61933 0.84516 0.0
N77 N 0.54289 0.54108 0.84186 0.0
C78 C 0.46677 0.69782 0.8 0.0
H79 H 0.35883 0.4808 0.9654 0.0
H80 H 0.46201 0.51438 -0.00101 0.0
H81 H 0.45848 0.40068 0.97845 0.0
H82 H 0.5277 0.71066 0.77201 0.0
H83 H 0.45007 0.76398 0.81327 0.0
H84 H 0.40156 0.67677 0.77989 0.0
C85 C 0.57765 0.43902 0.09065 0.0
N86 N 0.60513 0.50388 0.11878 0.0
N87 N 0.49671 0.39096 0.1109 0.0
C88 C 0.63062 0.42199 0.04376 0.0
C89 C 0.47812 0.4263 0.15328 0.0
N90 N 0.54254 0.49544 0.15768 0.0
C91 C 0.39913 0.38972 0.19166 0.0
H92 H 0.64148 0.48958 0.01536 0.0
H93 H 0.59293 0.36963 0.02544 0.0
H94 H 0.70303 0.3918 0.05562 0.0
H95 H 0.42662 0.38401 0.23186 0.0
H96 H 0.37218 0.3194 0.18692 0.0
H97 H 0.33741 0.43992 0.18563 0.0
C98 C 0.38556 0.19874 0.05199 0.0
C99 C 0.29336 0.23603 0.03518 0.0
C100 C 0.45249 0.24976 0.0762 0.0
C101 C 0.42862 0.33882 0.08557 0.0
H102 H 0.40583 0.12897 0.04685 0.0
H103 H 0.52269 0.21912 0.08834 0.0
S104 S 0.19692 0.46734 0.05111 0.0
N105 N 0.18215 0.36768 0.03044 0.0
N106 N 0.30693 0.46216 0.07717 0.0
C107 C 0.33634 0.37623 0.06999 0.0
C108 C 0.26922 0.32553 0.04417 0.0
C109 C 0.21991 0.7095 0.92865 0.0
C110 C 0.25211 0.78066 0.95428 0.0
C111 C 0.2863 0.65541 0.90743 0.0
C112 C 0.38655 0.67141 0.91083 0.0
H113 H 0.14289 0.69526 0.92515 0.0
H114 H 0.25966 0.60002 0.88874 0.0
S115 S 0.50862 0.85208 0.96998 0.0
N116 N 0.39152 0.8665 0.97944 0.0
N117 N 0.51583 0.76334 0.93952 0.0
C118 C 0.41995 0.74231 0.9356 0.0
C119 C 0.35275 0.79731 0.95746 0.0
C120 C 0.67607 0.75836 0.06833 0.0
C121 C 0.77132 0.75135 0.05053 0.0
C122 C 0.62305 0.67725 0.09161 0.0
C123 C 0.6649 0.58667 0.1001 0.0
H124 H 0.64173 0.82692 0.06339 0.0
H125 H 0.5481 0.68513 0.10223 0.0
S126 S 0.91889 0.53278 0.07058 0.0
N127 N 0.90873 0.64783 0.04765 0.0
N128 N 0.81205 0.49688 0.09585 0.0
C129 C 0.76232 0.57957 0.08576 0.0
C130 C 0.81487 0.66155 0.05997 0.0
C131 C 0.77805 0.37459 0.93385 0.0
C132 C 0.75518 0.27812 0.9516 0.0
C133 C 0.70654 0.43994 0.91203 0.0
C134 C 0.60982 0.41132 0.90655 0.0
H135 H 0.85173 0.39997 0.93724 0.0
H136 H 0.72642 0.51395 0.89997 0.0
S137 S 0.51354 0.16644 0.94124 0.0
N138 N 0.62917 0.15662 0.95918 0.0
N139 N 0.49562 0.2801 0.9169 0.0
C140 C 0.58607 0.31515 0.92263 0.0
C141 C 0.65853 0.24845 0.94564 0.0
C142 C 0.77905 0.8293 0.53825 0.0
C143 C 0.80299 0.73761 0.53251 0.0
C144 C 0.84304 0.88185 0.56307 0.0
C145 C 0.93484 0.84641 0.58101 0.0
H146 H 0.70883 0.85924 0.52542 0.0
H147 H 0.82142 0.95152 0.56778 0.0
S148 S 0.03245 0.61048 0.57686 0.0
N149 N 0.92429 0.61239 0.54881 0.0
N150 N 0.04611 0.71461 0.59279 0.0
C151 C 0.96046 0.7558 0.57514 0.0
C152 C 0.8943 0.70076 0.55133 0.0
C153 C 0.84308 0.27556 0.47183 0.0
C154 C 0.75086 0.29167 0.44812 0.0
C155 C 0.91438 0.22493 0.45165 0.0
C156 C 0.89609 0.18899 0.40701 0.0
H157 H 0.86054 0.3025 0.50613 0.0
H158 H 0.98423 0.21304 0.47117 0.0
S159 S 0.66706 0.20666 0.3311 0.0
N160 N 0.64551 0.26492 0.3774 0.0
N161 N 0.77977 0.16809 0.34083 0.0
C162 C 0.80469 0.20327 0.3831 0.0
C163 C 0.73196 0.25498 0.40334 0.0
C164 C 0.30476 0.17886 0.55572 0.0
C165 C 0.26323 0.26955 0.5468 0.0
C166 C 0.25242 0.0987 0.58091 0.0
C167 C 0.15554 0.10577 0.59646 0.0
H168 H 0.37911 0.17009 0.54431 0.0
H169 H 0.2878 0.03058 0.58792 0.0
S170 S 1.01406 0.32748 0.58224 0.0
N171 N 0.1214 0.36259 0.55739 0.0
N172 N 0.02041 0.21117 0.60094 0.0
C173 C 0.11353 0.19625 0.58797 0.0
C174 C 0.16788 0.27821 0.56389 0.0
C175 C 0.28941 0.89103 0.43385 0.0
C176 C 0.26552 0.79435 0.44919 0.0
C177 C 0.21907 0.95783 0.41218 0.0
C178 C 0.12273 0.93034 0.40447 0.0
H179 H 0.3629 0.91535 0.43903 0.0
H180 H 0.23951 0.03193 0.40188 0.0
S181 S 0.02536 0.68573 0.43122 0.0
N182 N 0.13975 0.67397 0.45128 0.0
N183 N 1.00842 0.80031 0.40949 0.0
C184 C 0.09826 0.83407 0.41794 0.0
C185 C 0.16944 0.76589 0.44072 0.0
C186 C 0.97345 0.96597 0.22627 0.0
C187 C 0.04774 0.99501 0.19025 0.0
C188 C 0.98197 0.98099 0.27678 0.0
C189 C 0.06369 0.02763 0.29221 0.0
H190 H 0.90737 0.934 0.21488 0.0
H191 H 0.92177 0.96149 0.30321 0.0
S192 S 0.27825 0.11592 0.2127 0.0
N193 N 0.20731 0.06889 0.17371 0.0
N194 N 0.22076 0.10044 0.26869 0.0
C195 C 0.13967 0.05434 0.25722 0.0
C196 C 0.13222 0.03718 0.20605 0.0
C197 C 0.94711 0.10059 0.76743 0.0
C198 C 0.02749 0.08273 0.80109 0.0
C199 C 0.95319 0.08763 0.71635 0.0
C200 C 0.0386 0.05292 0.69807 0.0
H201 H 0.87789 0.12005 0.78146 0.0
H202 H 0.8885 0.09752 0.69219 0.0
S203 S 0.27128 1.00338 0.7699 0.0
N204 N 0.19759 0.03812 0.8114 0.0
N205 N 0.20726 1.009 0.71606 0.0
C206 C 0.12139 0.04176 0.73014 0.0
C207 C 0.116 0.0572 0.78175 0.0
C208 C 0.62444 0.5247 0.70958 0.0
C209 C 0.5407 0.4864 0.69044 0.0
C210 C 0.62858 0.5368 0.76097 0.0
C211 C 0.55021 0.50856 0.79442 0.0
H212 H 0.68413 0.55096 0.68384 0.0
H213 H 0.69052 0.57279 0.77389 0.0
S214 S 0.32041 0.39501 0.76456 0.0
N215 N 0.38148 0.41425 0.70961 0.0
N216 N 0.39099 0.43402 0.80672 0.0
C217 C 0.4696 0.46399 0.77669 0.0
C218 C 0.46426 0.45382 0.72436 0.0
C219 C 0.45801 0.60576 0.26499 0.0
C220 C 0.5343 0.58343 0.30102 0.0
C221 C 0.46567 0.58678 0.21521 0.0
C222 C 0.54851 0.54226 0.20068 0.0
H223 H 0.39026 0.63335 0.27627 0.0
H224 H 0.40364 0.60006 0.18921 0.0
S225 S 0.76967 0.47434 0.28012 0.0
N226 N 0.69772 0.52111 0.31785 0.0
N227 N 0.71014 0.48207 0.22473 0.0
C228 C 0.62759 0.52554 0.23512 0.0
C229 C 0.62067 0.54644 0.28545 0.0
loop_
_geom_bond_atom_site_label_1
_geom_bond_atom_site_label_2
_geom_bond_distance
_geom_bond_site_symmetry_2
_ccdc_geom_bond_type
O0 Zn1 1.953 . S
O0 C16 1.225 . S
Zn1 O0 1.953 . S
Zn1 O2 1.949 1_565 S
Zn1 O8 1.919 . S
Zn1 O13 1.924 1_565 S
O2 Zn1 1.949 1_545 S
O2 Zn3 1.923 1_544 S
O2 Zn4 1.950 1_455 S
O2 Zn5 1.945 1_554 S
Zn3 O2 1.923 1_566 S
Zn3 O6 1.933 . S
Zn3 O9 1.941 . S
Zn3 O10 1.965 1_455 S
Zn4 O2 1.950 1_655 S
Zn4 O11 1.938 1_545 S
Zn4 O12 1.906 . S
Zn4 O22 1.953 . S
Zn5 O2 1.945 1_556 S
Zn5 O7 1.932 . S
Zn5 O14 1.977 1_455 S
Zn5 O15 1.910 . S
O6 Zn3 1.933 . S
O6 C17 1.226 1_565 S
O7 Zn5 1.932 . S
O7 C17 1.307 . S
O8 Zn1 1.919 . S
O8 C19 1.249 1_554 S
O9 Zn3 1.941 . S
O9 C19 1.285 . S
O10 Zn3 1.965 1_655 S
O10 C18 1.303 1_556 S
O11 Zn4 1.938 1_565 S
O11 C18 1.247 . S
O12 Zn4 1.906 . S
O12 C20 1.304 1_554 S
O13 Zn1 1.924 1_545 S
O13 C21 1.311 . S
O14 Zn5 1.977 1_655 S
O14 C20 1.272 . S
O15 Zn5 1.910 . S
O15 C21 1.231 1_556 S
C16 O0 1.225 . S
C16 O22 1.298 1_465 S
C17 O6 1.226 1_545 S
C17 O7 1.307 . S
C18 O10 1.303 1_554 S
C18 O11 1.247 . S
C19 O8 1.249 1_556 S
C19 O9 1.285 . S
C20 O12 1.304 1_556 S
C20 O14 1.272 . S
C21 O13 1.311 . S
C21 O15 1.231 1_554 S
O22 Zn4 1.953 . S
O22 C16 1.298 1_645 S
O23 Zn24 1.953 . S
O23 C39 1.225 . S
Zn24 O23 1.953 . S
Zn24 O25 1.949 . S
Zn24 O31 1.919 . S
Zn24 O36 1.924 . S
O25 Zn24 1.949 . S
O25 Zn26 1.923 . S
O25 Zn27 1.950 . S
O25 Zn28 1.945 . S
Zn26 O25 1.923 . S
Zn26 O29 1.933 . S
Zn26 O32 1.941 . S
Zn26 O33 1.965 . S
Zn27 O25 1.950 . S
Zn27 O34 1.938 . S
Zn27 O35 1.906 . S
Zn27 O45 1.953 . S
Zn28 O25 1.945 . S
Zn28 O30 1.932 . S
Zn28 O37 1.977 . S
Zn28 O38 1.910 . S
O29 Zn26 1.933 . S
O29 C40 1.226 . S
O30 Zn28 1.932 . S
O30 C40 1.307 . S
O31 Zn24 1.919 . S
O31 C42 1.253 . S
O32 Zn26 1.941 . S
O32 C42 1.283 . S
O33 Zn26 1.965 . S
O33 C41 1.303 . S
O34 Zn27 1.938 . S
O34 C41 1.247 . S
O35 Zn27 1.906 . S
O35 C43 1.304 . S
O36 Zn24 1.924 . S
O36 C44 1.311 . S
O37 Zn28 1.977 . S
O37 C43 1.272 . S
O38 Zn28 1.910 . S
O38 C44 1.231 . S
C39 O23 1.225 . S
C39 O45 1.298 . S
C40 O29 1.226 . S
C40 O30 1.307 . S
C41 O33 1.303 . S
C41 O34 1.247 . S
C42 O31 1.253 . S
C42 O32 1.283 . S
C43 O35 1.304 . S
C43 O37 1.272 . S
C44 O36 1.311 . S
C44 O38 1.231 . S
O45 Zn27 1.953 . S
O45 C39 1.298 . S
C46 N47 1.317 1_545 S
C46 N48 1.348 1_455 S
C46 C49 1.485 1_545 S
N47 C46 1.317 1_565 S
N47 N51 1.370 1_565 S
N48 C46 1.348 1_655 S
N48 C50 1.346 . S
C49 C46 1.485 1_565 S
C49 H53 0.960 1_455 S
C49 H54 0.961 1_565 S
C49 H55 0.960 . S
C50 N48 1.346 . S
C50 N51 1.307 1_655 S
C50 C52 1.486 . S
N51 N47 1.370 1_545 S
N51 C50 1.307 1_455 S
C52 C50 1.486 . S
C52 H56 0.960 . S
C52 H57 0.960 . S
C52 H58 0.959 . S
H53 C49 0.960 1_655 S
H54 C49 0.961 1_545 S
H55 C49 0.960 . S
H56 C52 0.960 . S
H57 C52 0.960 . S
H58 C52 0.959 . S
C59 N60 1.317 . S
C59 N61 1.348 1_445 S
C59 C62 1.485 . S
N60 C59 1.317 . S
N60 N64 1.370 . S
N61 C59 1.348 1_665 S
N61 C63 1.346 . S
C62 C59 1.485 . S
C62 H66 0.960 . S
C62 H67 0.961 1_545 S
C62 H68 0.960 . S
C63 N61 1.346 . S
C63 N64 1.307 1_665 S
C63 C65 1.486 . S
N64 N60 1.370 . S
N64 C63 1.307 1_445 S
C65 C63 1.486 . S
C65 H69 0.960 . S
C65 H70 0.960 . S
C65 H71 0.959 . S
H66 C62 0.960 . S
H67 C62 0.961 1_565 S
H68 C62 0.960 . S
H69 C65 0.960 . S
H70 C65 0.960 . S
H71 C65 0.959 . S
C72 N73 1.317 . S
C72 N74 1.348 . S
C72 C75 1.485 1_556 S
N73 C72 1.317 . S
N73 N77 1.370 . S
N74 C72 1.348 . S
N74 C76 1.346 . S
C75 C72 1.485 1_554 S
C75 H79 0.960 . S
C75 H80 0.961 . S
C75 H81 0.960 . S
C76 N74 1.346 . S
C76 N77 1.307 . S
C76 C78 1.486 . S
N77 N73 1.370 . S
N77 C76 1.307 . S
C78 C76 1.486 . S
C78 H82 0.960 . S
C78 H83 0.960 . S
C78 H84 0.959 . S
H79 C75 0.960 . S
H80 C75 0.961 . S
H81 C75 0.960 . S
H82 C78 0.960 . S
H83 C78 0.960 . S
H84 C78 0.959 . S
C85 N86 1.317 . S
C85 N87 1.348 . S
C85 C88 1.485 1_554 S
N86 C85 1.317 . S
N86 N90 1.370 . S
N87 C85 1.348 . S
N87 C89 1.346 . S
C88 C85 1.485 1_556 S
C88 H92 0.960 . S
C88 H93 0.961 . S
C88 H94 0.960 . S
C89 N87 1.346 . S
C89 N90 1.307 . S
C89 C91 1.486 . S
N90 N86 1.370 . S
N90 C89 1.307 . S
C91 C89 1.486 . S
C91 H95 0.960 . S
C91 H96 0.960 . S
C91 H97 0.959 . S
H92 C88 0.960 . S
H93 C88 0.961 . S
H94 C88 0.960 . S
H95 C91 0.960 . S
H96 C91 0.960 . S
H97 C91 0.959 . S
C98 C99 1.369 . S
C98 C100 1.419 . S
C98 H102 0.930 . S
C99 C98 1.369 . S
C99 C108 1.429 . S
C100 C98 1.419 . S
C100 C101 1.363 . S
C100 H103 0.929 . S
C101 C100 1.363 . S
C101 C107 1.428 . S
H102 C98 0.930 . S
H103 C100 0.929 . S
S104 N105 1.613 . S
S104 N106 1.610 . S
N105 S104 1.613 . S
N105 C108 1.350 . S
N106 S104 1.610 . S
N106 C107 1.351 . S
C107 C101 1.428 . S
C107 N106 1.351 . S
C107 C108 1.434 . S
C108 C99 1.429 . S
C108 N105 1.350 . S
C108 C107 1.434 . S
C109 C110 1.369 . S
C109 C111 1.419 . S
C109 H113 0.930 1_556 S
C110 C109 1.369 . S
C110 C119 1.429 . S
C111 C109 1.419 . S
C111 C112 1.363 . S
C111 H114 0.929 . S
C112 C111 1.363 . S
C112 C118 1.428 . S
H113 C109 0.930 1_554 S
H114 C111 0.929 . S
S115 N116 1.613 . S
S115 N117 1.610 . S
N116 S115 1.613 . S
N116 C119 1.350 . S
N117 S115 1.610 . S
N117 C118 1.351 . S
C118 C112 1.428 . S
C118 N117 1.351 . S
C118 C119 1.434 . S
C119 C110 1.429 . S
C119 N116 1.350 . S
C119 C118 1.434 . S
C120 C121 1.369 . S
C120 C122 1.419 . S
C120 H124 0.930 . S
C121 C120 1.369 . S
C121 C130 1.429 . S
C122 C120 1.419 . S
C122 C123 1.363 . S
C122 H125 0.929 . S
C123 C122 1.363 . S
C123 C129 1.428 . S
H124 C120 0.930 . S
H125 C122 0.929 . S
S126 N127 1.613 . S
S126 N128 1.610 . S
N127 S126 1.613 . S
N127 C130 1.350 . S
N128 S126 1.610 . S
N128 C129 1.351 . S
C129 C123 1.428 . S
C129 N128 1.351 . S
C129 C130 1.434 . S
C130 C121 1.429 . S
C130 N127 1.350 . S
C130 C129 1.434 . S
C131 C132 1.369 . S
C131 C133 1.419 . S
C131 H135 0.930 . S
C132 C131 1.369 . S
C132 C141 1.429 . S
C133 C131 1.419 . S
C133 C134 1.363 . S
C133 H136 0.929 . S
C134 C133 1.363 . S
C134 C140 1.428 . S
H135 C131 0.930 . S
H136 C133 0.929 . S
S137 N138 1.613 . S
S137 N139 1.610 . S
N138 S137 1.613 . S
N138 C141 1.350 . S
N139 S137 1.610 . S
N139 C140 1.351 . S
C140 C134 1.428 . S
C140 N139 1.351 . S
C140 C141 1.434 . S
C141 C132 1.429 . S
C141 N138 1.350 . S
C141 C140 1.434 . S
C142 C143 1.369 . S
C142 C144 1.419 . S
C142 H146 0.930 . S
C143 C142 1.369 . S
C143 C152 1.429 . S
C144 C142 1.419 . S
C144 C145 1.363 . S
C144 H147 0.929 . S
C145 C144 1.363 . S
C145 C151 1.428 . S
H146 C142 0.930 . S
H147 C144 0.929 . S
S148 N149 1.613 . S
S148 N150 1.610 . S
N149 S148 1.613 . S
N149 C152 1.350 . S
N150 S148 1.610 . S
N150 C151 1.351 . S
C151 C145 1.428 . S
C151 N150 1.351 . S
C151 C152 1.434 . S
C152 C143 1.429 . S
C152 N149 1.350 . S
C152 C151 1.434 . S
C153 C154 1.369 . S
C153 C155 1.419 . S
C153 H157 0.930 . S
C154 C153 1.369 . S
C154 C163 1.429 . S
C155 C153 1.419 . S
C155 C156 1.363 . S
C155 H158 0.929 . S
C156 C155 1.363 . S
C156 C162 1.428 . S
H157 C153 0.930 . S
H158 C155 0.929 . S
S159 N160 1.613 . S
S159 N161 1.610 . S
N160 S159 1.613 . S
N160 C163 1.350 . S
N161 S159 1.610 . S
N161 C162 1.351 . S
C162 C156 1.428 . S
C162 N161 1.351 . S
C162 C163 1.434 . S
C163 C154 1.429 . S
C163 N160 1.350 . S
C163 C162 1.434 . S
C164 C165 1.369 . S
C164 C166 1.419 . S
C164 H168 0.930 . S
C165 C164 1.369 . S
C165 C174 1.429 . S
C166 C164 1.419 . S
C166 C167 1.363 . S
C166 H169 0.929 . S
C167 C166 1.363 . S
C167 C173 1.428 . S
H168 C164 0.930 . S
H169 C166 0.929 . S
S170 N171 1.613 . S
S170 N172 1.610 . S
N171 S170 1.613 . S
N171 C174 1.350 . S
N172 S170 1.610 . S
N172 C173 1.351 . S
C173 C167 1.428 . S
C173 N172 1.351 . S
C173 C174 1.434 . S
C174 C165 1.429 . S
C174 N171 1.350 . S
C174 C173 1.434 . S
C175 C176 1.369 . S
C175 C177 1.419 . S
C175 H179 0.930 . S
C176 C175 1.369 . S
C176 C185 1.429 . S
C177 C175 1.419 . S
C177 C178 1.363 . S
C177 H180 0.929 . S
C178 C177 1.363 . S
C178 C184 1.428 . S
H179 C175 0.930 . S
H180 C177 0.929 . S
S181 N182 1.613 . S
S181 N183 1.610 . S
N182 S181 1.613 . S
N182 C185 1.350 . S
N183 S181 1.610 . S
N183 C184 1.351 . S
C184 C178 1.428 . S
C184 N183 1.351 . S
C184 C185 1.434 . S
C185 C176 1.429 . S
C185 N182 1.350 . S
C185 C184 1.434 . S
C186 C187 1.369 . S
C186 C188 1.419 . S
C186 H190 0.930 . S
C187 C186 1.369 . S
C187 C196 1.429 1_565 S
C188 C186 1.419 . S
C188 C189 1.363 . S
C188 H191 0.929 . S
C189 C188 1.363 . S
C189 C195 1.428 1_565 S
H190 C186 0.930 . S
H191 C188 0.929 . S
S192 N193 1.613 . S
S192 N194 1.610 . S
N193 S192 1.613 . S
N193 C196 1.350 1_655 S
N194 S192 1.610 . S
N194 C195 1.351 1_655 S
C195 C189 1.428 1_545 S
C195 N194 1.351 1_455 S
C195 C196 1.434 . S
C196 C187 1.429 1_545 S
C196 N193 1.350 1_455 S
C196 C195 1.434 . S
C197 C198 1.369 . S
C197 C199 1.419 . S
C197 H201 0.930 . S
C198 C197 1.369 . S
C198 C207 1.429 1_445 S
C199 C197 1.419 . S
C199 C200 1.363 . S
C199 H202 0.929 . S
C200 C199 1.363 . S
C200 C206 1.428 1_445 S
H201 C197 0.930 . S
H202 C199 0.929 . S
S203 N204 1.613 . S
S203 N205 1.610 . S
N204 S203 1.613 . S
N204 C207 1.350 . S
N205 S203 1.610 . S
N205 C206 1.351 . S
C206 C200 1.428 1_665 S
C206 N205 1.351 . S
C206 C207 1.434 . S
C207 C198 1.429 1_665 S
C207 N204 1.350 . S
C207 C206 1.434 . S
C208 C209 1.369 . S
C208 C210 1.419 . S
C208 H212 0.930 . S
C209 C208 1.369 . S
C209 C218 1.429 . S
C210 C208 1.419 . S
C210 C211 1.363 . S
C210 H213 0.929 . S
C211 C210 1.363 . S
C211 C217 1.428 . S
H212 C208 0.930 . S
H213 C210 0.929 . S
S214 N215 1.613 . S
S214 N216 1.610 . S
N215 S214 1.613 . S
N215 C218 1.350 . S
N216 S214 1.610 . S
N216 C217 1.351 . S
C217 C211 1.428 . S
C217 N216 1.351 . S
C217 C218 1.434 . S
C218 C209 1.429 . S
C218 N215 1.350 . S
C218 C217 1.434 . S
C219 C220 1.369 . S
C219 C221 1.419 . S
C219 H223 0.930 . S
C220 C219 1.369 . S
C220 C229 1.429 . S
C221 C219 1.419 . S
C221 C222 1.363 . S
C221 H224 0.929 . S
C222 C221 1.363 . S
C222 C228 1.428 . S
H223 C219 0.930 . S
H224 C221 0.929 . S
S225 N226 1.613 . S
S225 N227 1.610 . S
N226 S225 1.613 . S
N226 C229 1.350 . S
N227 S225 1.610 . S
N227 C228 1.351 . S
C228 C222 1.428 . S
C228 N227 1.351 . S
C228 C229 1.434 . S
C229 C220 1.429 . S
C229 N226 1.350 . S
C229 C228 1.434 . S
C101 N87 1.435 . S
C99 C21 1.440 . S
C110 C19 1.439 . S
C112 N74 1.437 . S
C121 C18 1.480 . S
C123 N86 1.507 . S
C132 C20 1.514 . S
C134 N73 1.515 . S
C143 C44 1.440 . S
C145 N61 1.433 . S
C154 C42 1.431 . S
C156 N48 1.440 . S
C167 N60 1.508 . S
C165 C41 1.480 . S
C178 N47 1.515 . S
C176 C43 1.514 . S
C187 C16 1.528 . S
C189 N51 1.510 1_565 S
C198 C17 1.500 . S
C200 N64 1.486 . S
C211 N77 1.513 . S
C209 C39 1.530 . S
C220 C40 1.500 . S
C222 N90 1.486 . S
