# Generated by pormake.
# Topology dag, (6,3)-cn, num edge types: 1
# Building blocks:
#     Node 0, Type 0, BuildingBlock: IZENUY_clean_sbu_0, # of connection points: 6
#     Node 1, Type 0, BuildingBlock: IZENUY_clean_sbu_0, # of connection points: 6
#     Node 2, Type 0, BuildingBlock: IZENUY_clean_sbu_0, # of connection points: 6
#     Node 3, Type 0, BuildingBlock: IZENUY_clean_sbu_0, # of connection points: 6
#     Node 4, Type 1, BuildingBlock: BETDIP_clean_linker_0, # of connection points: 3
#     Node 5, Type 1, BuildingBlock: BETDIP_clean_linker_0, # of connection points: 3
#     Node 6, Type 1, BuildingBlock: BETDIP_clean_linker_0, # of connection points: 3
#     Node 7, Type 1, BuildingBlock: BETDIP_clean_linker_0, # of connection points: 3
#     Node 8, Type 1, BuildingBlock: BETDIP_clean_linker_0, # of connection points: 3
#     Node 9, Type 1, BuildingBlock: BETDIP_clean_linker_0, # of connection points: 3
#     Node 10, Type 1, BuildingBlock: BETDIP_clean_linker_0, # of connection points: 3
#     Node 11, Type 1, BuildingBlock: BETDIP_clean_linker_0, # of connection points: 3
#     Edge 12, Type (0, 1), None
#     Edge 13, Type (0, 1), None
#     Edge 14, Type (0, 1), None
#     Edge 15, Type (0, 1), None
#     Edge 16, Type (0, 1), None
#     Edge 17, Type (0, 1), None
#     Edge 18, Type (0, 1), None
#     Edge 19, Type (0, 1), None
#     Edge 20, Type (0, 1), None
#     Edge 21, Type (0, 1), None
#     Edge 22, Type (0, 1), None
#     Edge 23, Type (0, 1), None
#     Edge 24, Type (0, 1), None
#     Edge 25, Type (0, 1), None
#     Edge 26, Type (0, 1), None
#     Edge 27, Type (0, 1), None
#     Edge 28, Type (0, 1), None
#     Edge 29, Type (0, 1), None
#     Edge 30, Type (0, 1), None
#     Edge 31, Type (0, 1), None
#     Edge 32, Type (0, 1), None
#     Edge 33, Type (0, 1), None
#     Edge 34, Type (0, 1), None
#     Edge 35, Type (0, 1), None
# Relax obj value: 0.084
# Max RMSD: 0.123
# Mean RMSD: 0.106
data_MOF--net-dag--node1-IZENUY_clean_sbu_0--node2-BETDIP_clean_linker_0--edge1-none
_symmetry_space_group_name_H-M    P1
_symmetry_Int_Tables_number       1
_symmetry_cell_setting            triclinic
loop_
_symmetry_equiv_pos_as_xyz
'x, y, z'
_cell_length_a     18.646867
_cell_length_b     16.286167
_cell_length_c     16.459919
_cell_angle_alpha  87.068194
_cell_angle_beta   90.024298
_cell_angle_gamma 90.001948
loop_
_atom_site_label
_atom_site_type_symbol
_atom_site_fract_x
_atom_site_fract_y
_atom_site_fract_z
_atom_type_partial_charge
Fe0 Fe 0.20163 0.91499 0.96763 0.0
Fe1 Fe 0.0526 0.96949 0.01015 0.0
O2 O 0.11329 0.8894 0.00042 0.0
Fe3 Fe 0.08343 0.78731 0.02413 0.0
O4 O 0.16886 0.75408 0.06683 0.0
O5 O 0.24055 0.86308 0.05881 0.0
O6 O 0.20571 1.0118 0.0222 0.0
C7 C 0.16966 1.03327 0.08324 0.0
C8 C 0.17093 0.76642 0.8904 0.0
O9 O 0.10606 1.00651 0.09345 0.0
C10 C 0.96979 0.86119 0.93115 0.0
O11 O 0.16787 0.96868 0.87079 0.0
O12 O 0.09604 1.04087 0.94019 0.0
O13 O 0.11034 0.7538 0.92386 0.0
O14 O 0.2126 0.82278 0.91127 0.0
C15 C 0.01265 0.87133 0.14159 0.0
O16 O 2e-05 0.93121 0.92704 0.0
O17 O 0.99223 0.80537 0.98191 0.0
C18 C 0.1217 1.02589 0.87287 0.0
O19 O -0.00501 0.91669 0.08193 0.0
O20 O 0.05512 0.81232 0.12971 0.0
C21 C 0.22487 0.7914 0.08721 0.0
Fe22 Fe 0.70161 0.6697 0.57145 0.0
Fe23 Fe 0.58352 0.79726 0.51427 0.0
O24 O 0.61331 0.69521 0.53839 0.0
Fe25 Fe 0.5526 0.61511 0.5288 0.0
O26 O 0.59596 0.54395 0.5991 0.0
O27 O 0.66777 0.61635 0.66838 0.0
O28 O 0.71258 0.76212 0.62748 0.0
C29 C 0.67091 0.8186 0.64806 0.0
C30 C 0.66973 0.55104 0.45619 0.0
O31 O 0.61035 0.83112 0.61445 0.0
C32 C 0.51278 0.71287 0.39698 0.0
O33 O 0.74063 0.72126 0.48019 0.0
O34 O 0.66901 0.83029 0.47164 0.0
O35 O 0.60613 0.57776 0.44577 0.0
O36 O 0.70571 0.57268 0.51725 0.0
C37 C 0.46976 0.72374 0.60722 0.0
O38 O 0.55529 0.77189 0.40874 0.0
O39 O 0.49508 0.66767 0.45671 0.0
C40 C 0.72503 0.79286 0.45153 0.0
O41 O 0.49227 0.7794 0.55634 0.0
O42 O 0.49995 0.65371 0.61165 0.0
C43 C 0.62156 0.55916 0.66641 0.0
Fe44 Fe 0.90444 0.29845 0.01372 0.0
Fe45 Fe 0.9348 0.11618 0.02763 0.0
O46 O 0.87431 0.19639 0.03721 0.0
Fe47 Fe 0.78532 0.17124 0.06809 0.0
O48 O 0.7494 0.22149 0.97438 0.0
O49 O 0.82004 0.33119 0.96867 0.0
O50 O 0.93328 0.27364 0.90851 0.0
C51 C 0.9747 0.21398 0.89636 0.0
C52 C 0.81512 0.3199 0.14569 0.0
O53 O 0.99275 0.169 0.95613 0.0
C54 C 0.86378 0.05995 0.16416 0.0
O55 O -0.00478 0.28028 0.05715 0.0
O56 O 0.98729 0.15398 0.11102 0.0
O57 O 0.77323 0.2644 0.12316 0.0
O58 O 0.87636 0.33187 0.1136 0.0
C59 C 0.81794 0.05234 0.9542 0.0
O60 O 0.89075 1.04533 0.09737 0.0
O61 O 0.81756 0.11752 0.16585 0.0
C62 C 0.01761 0.22394 0.1074 0.0
O63 O 0.88147 0.0793 0.94408 0.0
O64 O 0.78176 0.07391 0.01493 0.0
C65 C 0.76832 0.29054 0.94205 0.0
Fe66 Fe 0.43481 0.46847 0.51153 0.0
Fe67 Fe 0.28533 0.41333 0.47103 0.0
O68 O 0.3743 0.38824 0.50211 0.0
Fe69 Fe 0.40437 0.28622 0.52598 0.0
O70 O 0.43316 0.31134 0.63113 0.0
O71 O 0.49268 0.41585 0.58332 0.0
O72 O 0.38145 0.50567 0.59484 0.0
C73 C 0.31793 0.53262 0.58453 0.0
C74 C 0.51763 0.36036 0.43228 0.0
O75 O 0.28179 0.51085 0.52382 0.0
C76 C 0.3151 0.26435 0.39399 0.0
O77 O 0.39084 0.5391 0.44148 0.0
O78 O 0.31762 0.46671 0.37316 0.0
O79 O 0.49519 0.3042 0.48266 0.0
O80 O 0.48735 0.43034 0.42839 0.0
C81 C 0.26828 0.29448 0.59746 0.0
O82 O 0.27322 0.31995 0.41629 0.0
O83 O 0.37634 0.25249 0.42617 0.0
C84 C 0.36386 0.52428 0.37472 0.0
O85 O 0.24938 0.36343 0.56486 0.0
O86 O 0.31993 0.25366 0.57098 0.0
C87 C 0.47458 0.37104 0.64317 0.0
H88 H 0.0909 0.27452 0.24506 0.0
H89 H 0.24865 0.08678 0.2173 0.0
H90 H 0.11621 0.16639 0.01583 0.0
H91 H 0.32438 0.17105 0.29969 0.0
C92 C 0.28826 0.21145 0.3305 0.0
C93 C 0.12031 0.23535 0.20552 0.0
C94 C 0.09436 0.22166 0.12746 0.0
C95 C 0.18395 0.1961 0.23294 0.0
C96 C 0.21041 0.12968 0.18958 0.0
C97 C 0.18147 0.11605 0.11241 0.0
C98 C 0.1356 0.17495 0.07674 0.0
N99 N 0.21514 0.2208 0.30652 0.0
H100 H 0.23874 0.58721 0.71717 0.0
H101 H 0.39583 0.77589 0.74386 0.0
H102 H 0.37158 0.66506 0.51578 0.0
H103 H 0.16216 0.67195 0.79721 0.0
C104 C 0.19794 0.71298 0.82774 0.0
C105 C 0.277 0.62996 0.68927 0.0
C106 C 0.30632 0.61563 0.61264 0.0
C107 C 0.30308 0.69691 0.73194 0.0
C108 C 0.36671 0.73617 0.70457 0.0
C109 C 0.39297 0.72173 0.62683 0.0
C110 C 0.35207 0.67428 0.57648 0.0
N111 N 0.27128 0.72221 0.80478 0.0
H112 H 0.9386 0.76875 0.25858 0.0
H113 H 0.7846 0.96231 0.27805 0.0
H114 H -0.00248 1.01838 0.19783 0.0
H115 H 0.77515 0.90811 0.41079 0.0
C116 C 0.7768 0.84215 0.4037 0.0
C117 C 0.92754 0.83408 0.25756 0.0
C118 C 0.97457 0.89031 0.21827 0.0
C119 C 0.86352 0.86328 0.29181 0.0
C120 C 0.84007 0.94479 0.27 0.0
C121 C 0.88758 1.00083 0.23163 0.0
C122 C 0.95964 0.97486 0.2254 0.0
N123 N 0.82178 0.80972 0.34374 0.0
H124 H 0.54534 0.27066 0.76368 0.0
H125 H 0.69644 0.46874 0.78815 0.0
H126 H 0.48714 0.51903 0.69751 0.0
H127 H 0.76492 0.37132 0.83308 0.0
C128 C 0.73369 0.32656 0.86892 0.0
C129 C 0.5561 0.33607 0.76269 0.0
C130 C 0.51015 0.39151 0.7208 0.0
C131 C 0.62013 0.36524 0.797 0.0
C132 C 0.64279 0.44758 0.77638 0.0
C133 C 0.59608 0.50219 0.73477 0.0
C134 C 0.52443 0.47608 0.72701 0.0
N135 N 0.66186 0.30992 0.84742 0.0
H136 H 0.59098 0.30937 0.29487 0.0
H137 H 0.74871 0.49721 0.32239 0.0
H138 H 0.61622 0.41809 0.52385 0.0
H139 H 0.82439 0.41301 0.24018 0.0
C140 C 0.78829 0.37257 0.20936 0.0
C141 C 0.62038 0.34863 0.33436 0.0
C142 C 0.5944 0.36253 0.41234 0.0
C143 C 0.68403 0.38783 0.30693 0.0
C144 C 0.71047 0.45436 0.35015 0.0
C145 C 0.68151 0.46817 0.42725 0.0
C146 C 0.63563 0.40936 0.463 0.0
N147 N 0.71523 0.36298 0.23343 0.0
H148 H 0.04542 0.31456 0.77598 0.0
H149 H 0.19651 0.11654 0.75122 0.0
H150 H 0.98727 0.0661 0.84177 0.0
H151 H 0.26501 0.2143 0.70688 0.0
C152 C 0.23372 0.25882 0.67078 0.0
C153 C 0.05619 0.24916 0.7769 0.0
C154 C 0.01027 0.19366 0.81871 0.0
C155 C 0.12019 0.22003 0.74252 0.0
C156 C 0.14287 0.13768 0.76306 0.0
C157 C 0.09619 0.08301 0.80461 0.0
C158 C 0.02455 0.1091 0.81238 0.0
N159 N 0.16185 0.27537 0.6921 0.0
H160 H 0.43878 0.81525 0.27979 0.0
H161 H 0.28466 0.62176 0.26069 0.0
H162 H 0.49761 0.56568 0.34101 0.0
H163 H 0.27458 0.67597 0.12819 0.0
C164 C 0.2765 0.74193 0.13514 0.0
C165 C 0.42769 0.74992 0.28091 0.0
C166 C 0.47471 0.69373 0.3203 0.0
C167 C 0.36362 0.72072 0.24673 0.0
C168 C 0.34014 0.63925 0.26866 0.0
C169 C 0.38766 0.58322 0.30712 0.0
C170 C 0.45973 0.60917 0.31333 0.0
N171 N 0.32181 0.7743 0.19485 0.0
H172 H 0.73876 0.99811 0.82128 0.0
H173 H 0.89591 0.8096 0.7942 0.0
H174 H 0.87161 0.91972 0.02261 0.0
H175 H 0.66214 0.91333 0.74099 0.0
C176 C 0.69794 0.87234 0.71049 0.0
C177 C 0.77703 0.95531 0.84909 0.0
C178 C 0.80635 0.96943 0.92581 0.0
C179 C 0.80315 0.88852 0.80625 0.0
C180 C 0.86679 0.8492 0.83357 0.0
C181 C 0.89302 0.86339 0.9114 0.0
C182 C 0.85212 0.91069 0.96185 0.0
N183 N 0.77135 0.86338 0.73332 0.0
loop_
_geom_bond_atom_site_label_1
_geom_bond_atom_site_label_2
_geom_bond_distance
_geom_bond_site_symmetry_2
_ccdc_geom_bond_type
Fe0 O2 1.918 . S
Fe0 O5 1.997 1_556 S
Fe0 O6 2.002 1_556 S
Fe0 O11 1.976 . S
Fe0 O14 1.996 . S
Fe1 O2 1.918 1_554 S
Fe1 O9 1.997 1_565 S
Fe1 O12 1.996 1_564 S
Fe1 O16 1.976 1_454 S
Fe1 O19 2.002 . S
O2 Fe0 1.918 . S
O2 Fe1 1.918 1_556 S
O2 Fe3 1.918 1_556 S
Fe3 O2 1.918 1_554 S
Fe3 O4 2.002 . S
Fe3 O13 1.976 1_554 S
Fe3 O17 1.996 1_554 S
Fe3 O20 1.997 . S
O4 Fe3 2.002 . S
O4 C21 1.295 . S
O5 Fe0 1.997 1_554 S
O5 C21 1.235 . S
O6 Fe0 2.002 1_554 S
O6 C7 1.295 1_565 S
C7 O6 1.295 1_545 S
C7 O9 1.235 . S
C8 O13 1.287 . S
C8 O14 1.255 . S
O9 Fe1 1.997 1_545 S
O9 C7 1.235 . S
C10 O16 1.287 . S
C10 O17 1.255 1_655 S
O11 Fe0 1.976 . S
O11 C18 1.287 1_565 S
O12 Fe1 1.996 1_546 S
O12 C18 1.255 . S
O13 Fe3 1.976 1_556 S
O13 C8 1.287 . S
O14 Fe0 1.996 . S
O14 C8 1.255 . S
C15 O19 1.295 . S
C15 O20 1.235 . S
O16 Fe1 1.976 1_656 S
O16 C10 1.287 . S
O17 Fe3 1.996 1_556 S
O17 C10 1.255 1_455 S
C18 O11 1.287 1_545 S
C18 O12 1.255 . S
O19 Fe1 2.002 . S
O19 C15 1.295 . S
O20 Fe3 1.997 . S
O20 C15 1.235 . S
C21 O4 1.295 . S
C21 O5 1.235 . S
Fe22 O24 1.918 . S
Fe22 O27 1.997 . S
Fe22 O28 2.002 . S
Fe22 O33 1.976 . S
Fe22 O36 1.996 . S
Fe23 O24 1.918 . S
Fe23 O31 1.997 . S
Fe23 O34 1.996 . S
Fe23 O38 1.976 . S
Fe23 O41 2.002 . S
O24 Fe22 1.918 . S
O24 Fe23 1.918 . S
O24 Fe25 1.918 . S
Fe25 O24 1.918 . S
Fe25 O26 2.002 . S
Fe25 O35 1.976 . S
Fe25 O39 1.996 . S
Fe25 O42 1.997 . S
O26 Fe25 2.002 . S
O26 C43 1.295 . S
O27 Fe22 1.997 . S
O27 C43 1.235 . S
O28 Fe22 2.002 . S
O28 C29 1.295 . S
C29 O28 1.295 . S
C29 O31 1.235 . S
C30 O35 1.287 . S
C30 O36 1.255 . S
O31 Fe23 1.997 . S
O31 C29 1.235 . S
C32 O38 1.287 . S
C32 O39 1.255 . S
O33 Fe22 1.976 . S
O33 C40 1.287 . S
O34 Fe23 1.996 . S
O34 C40 1.255 . S
O35 Fe25 1.976 . S
O35 C30 1.287 . S
O36 Fe22 1.996 . S
O36 C30 1.255 . S
C37 O41 1.295 . S
C37 O42 1.235 . S
O38 Fe23 1.976 . S
O38 C32 1.287 . S
O39 Fe25 1.996 . S
O39 C32 1.255 . S
C40 O33 1.287 . S
C40 O34 1.255 . S
O41 Fe23 2.002 . S
O41 C37 1.295 . S
O42 Fe25 1.997 . S
O42 C37 1.235 . S
C43 O26 1.295 . S
C43 O27 1.235 . S
Fe44 O46 1.918 . S
Fe44 O49 1.997 1_554 S
Fe44 O50 2.002 1_554 S
Fe44 O55 1.976 . S
Fe44 O58 1.996 . S
Fe45 O46 1.918 . S
Fe45 O53 1.997 1_554 S
Fe45 O56 1.996 1_655 S
Fe45 O60 1.976 1_545 S
Fe45 O63 2.002 1_544 S
O46 Fe44 1.918 . S
O46 Fe45 1.918 . S
O46 Fe47 1.918 . S
Fe47 O46 1.918 . S
Fe47 O48 2.002 1_554 S
Fe47 O57 1.976 . S
Fe47 O61 1.996 . S
Fe47 O64 1.997 1_554 S
O48 Fe47 2.002 1_556 S
O48 C65 1.295 . S
O49 Fe44 1.997 1_556 S
O49 C65 1.235 . S
O50 Fe44 2.002 1_556 S
O50 C51 1.295 . S
C51 O50 1.295 . S
C51 O53 1.235 . S
C52 O57 1.287 . S
C52 O58 1.255 . S
O53 Fe45 1.997 1_556 S
O53 C51 1.235 . S
C54 O60 1.287 . S
C54 O61 1.255 1_565 S
O55 Fe44 1.976 . S
O55 C62 1.287 1_655 S
O56 Fe45 1.996 1_455 S
O56 C62 1.255 . S
O57 Fe47 1.976 . S
O57 C52 1.287 . S
O58 Fe44 1.996 . S
O58 C52 1.255 . S
C59 O63 1.295 . S
C59 O64 1.235 1_565 S
O60 Fe45 1.976 1_565 S
O60 C54 1.287 . S
O61 Fe47 1.996 . S
O61 C54 1.255 1_545 S
C62 O55 1.287 1_455 S
C62 O56 1.255 . S
O63 Fe45 2.002 1_566 S
O63 C59 1.295 . S
O64 Fe47 1.997 1_556 S
O64 C59 1.235 1_545 S
C65 O48 1.295 . S
C65 O49 1.235 . S
Fe66 O68 1.918 . S
Fe66 O71 1.997 . S
Fe66 O72 2.002 . S
Fe66 O77 1.976 . S
Fe66 O80 1.996 . S
Fe67 O68 1.918 . S
Fe67 O75 1.997 . S
Fe67 O78 1.996 . S
Fe67 O82 1.976 . S
Fe67 O85 2.002 . S
O68 Fe66 1.918 . S
O68 Fe67 1.918 . S
O68 Fe69 1.918 . S
Fe69 O68 1.918 . S
Fe69 O70 2.002 . S
Fe69 O79 1.976 . S
Fe69 O83 1.996 . S
Fe69 O86 1.997 . S
O70 Fe69 2.002 . S
O70 C87 1.295 . S
O71 Fe66 1.997 . S
O71 C87 1.235 . S
O72 Fe66 2.002 . S
O72 C73 1.295 . S
C73 O72 1.295 . S
C73 O75 1.235 . S
C74 O79 1.287 . S
C74 O80 1.255 . S
O75 Fe67 1.997 . S
O75 C73 1.235 . S
C76 O82 1.287 . S
C76 O83 1.255 . S
O77 Fe66 1.976 . S
O77 C84 1.287 . S
O78 Fe67 1.996 . S
O78 C84 1.255 . S
O79 Fe69 1.976 . S
O79 C74 1.287 . S
O80 Fe66 1.996 . S
O80 C74 1.255 . S
C81 O85 1.295 . S
C81 O86 1.235 . S
O82 Fe67 1.976 . S
O82 C76 1.287 . S
O83 Fe69 1.996 . S
O83 C76 1.255 . S
C84 O77 1.287 . S
C84 O78 1.255 . S
O85 Fe67 2.002 . S
O85 C81 1.295 . S
O86 Fe69 1.997 . S
O86 C81 1.235 . S
C87 O70 1.295 . S
C87 O71 1.235 . S
H88 C93 0.930 . S
H89 C96 0.930 . S
H90 C98 0.930 . S
H91 C92 1.016 . S
C92 H91 1.016 . S
C92 N99 1.286 . S
C93 H88 0.930 . S
C93 C94 1.397 . S
C93 C95 1.361 . S
C94 C93 1.397 . S
C94 C98 1.390 . S
C95 C93 1.361 . S
C95 C96 1.393 . S
C95 N99 1.413 . S
C96 H89 0.930 . S
C96 C95 1.393 . S
C96 C97 1.399 . S
C97 C96 1.399 . S
C97 C98 1.381 . S
C98 H90 0.930 . S
C98 C94 1.390 . S
C98 C97 1.381 . S
N99 C92 1.286 . S
N99 C95 1.413 . S
H100 C105 0.930 . S
H101 C108 0.930 . S
H102 C110 0.930 . S
H103 C104 1.016 . S
C104 H103 1.016 . S
C104 N111 1.286 . S
C105 H100 0.930 . S
C105 C106 1.397 . S
C105 C107 1.361 . S
C106 C105 1.397 . S
C106 C110 1.390 . S
C107 C105 1.361 . S
C107 C108 1.393 . S
C107 N111 1.413 . S
C108 H101 0.930 . S
C108 C107 1.393 . S
C108 C109 1.399 . S
C109 C108 1.399 . S
C109 C110 1.381 . S
C110 H102 0.930 . S
C110 C106 1.390 . S
C110 C109 1.381 . S
N111 C104 1.286 . S
N111 C107 1.413 . S
H112 C117 0.930 . S
H113 C120 0.930 . S
H114 C122 0.930 . S
H115 C116 1.016 . S
C116 H115 1.016 . S
C116 N123 1.286 . S
C117 H112 0.930 . S
C117 C118 1.397 . S
C117 C119 1.361 . S
C118 C117 1.397 . S
C118 C122 1.390 . S
C119 C117 1.361 . S
C119 C120 1.393 . S
C119 N123 1.413 . S
C120 H113 0.930 . S
C120 C119 1.393 . S
C120 C121 1.399 . S
C121 C120 1.399 . S
C121 C122 1.381 . S
C122 H114 0.930 . S
C122 C118 1.390 . S
C122 C121 1.381 . S
N123 C116 1.286 . S
N123 C119 1.413 . S
H124 C129 0.930 . S
H125 C132 0.930 . S
H126 C134 0.930 . S
H127 C128 1.016 . S
C128 H127 1.016 . S
C128 N135 1.286 . S
C129 H124 0.930 . S
C129 C130 1.397 . S
C129 C131 1.361 . S
C130 C129 1.397 . S
C130 C134 1.390 . S
C131 C129 1.361 . S
C131 C132 1.393 . S
C131 N135 1.413 . S
C132 H125 0.930 . S
C132 C131 1.393 . S
C132 C133 1.399 . S
C133 C132 1.399 . S
C133 C134 1.381 . S
C134 H126 0.930 . S
C134 C130 1.390 . S
C134 C133 1.381 . S
N135 C128 1.286 . S
N135 C131 1.413 . S
H136 C141 0.930 . S
H137 C144 0.930 . S
H138 C146 0.930 . S
H139 C140 1.016 . S
C140 H139 1.016 . S
C140 N147 1.286 . S
C141 H136 0.930 . S
C141 C142 1.397 . S
C141 C143 1.361 . S
C142 C141 1.397 . S
C142 C146 1.390 . S
C143 C141 1.361 . S
C143 C144 1.393 . S
C143 N147 1.413 . S
C144 H137 0.930 . S
C144 C143 1.393 . S
C144 C145 1.399 . S
C145 C144 1.399 . S
C145 C146 1.381 . S
C146 H138 0.930 . S
C146 C142 1.390 . S
C146 C145 1.381 . S
N147 C140 1.286 . S
N147 C143 1.413 . S
H148 C153 0.930 . S
H149 C156 0.930 . S
H150 C158 0.930 . S
H151 C152 1.016 . S
C152 H151 1.016 . S
C152 N159 1.286 . S
C153 H148 0.930 . S
C153 C154 1.397 . S
C153 C155 1.361 . S
C154 C153 1.397 . S
C154 C158 1.390 . S
C155 C153 1.361 . S
C155 C156 1.393 . S
C155 N159 1.413 . S
C156 H149 0.930 . S
C156 C155 1.393 . S
C156 C157 1.399 . S
C157 C156 1.399 . S
C157 C158 1.381 . S
C158 H150 0.930 . S
C158 C154 1.390 . S
C158 C157 1.381 . S
N159 C152 1.286 . S
N159 C155 1.413 . S
H160 C165 0.930 . S
H161 C168 0.930 . S
H162 C170 0.930 . S
H163 C164 1.016 . S
C164 H163 1.016 . S
C164 N171 1.286 . S
C165 H160 0.930 . S
C165 C166 1.397 . S
C165 C167 1.361 . S
C166 C165 1.397 . S
C166 C170 1.390 . S
C167 C165 1.361 . S
C167 C168 1.393 . S
C167 N171 1.413 . S
C168 H161 0.930 . S
C168 C167 1.393 . S
C168 C169 1.399 . S
C169 C168 1.399 . S
C169 C170 1.381 . S
C170 H162 0.930 . S
C170 C166 1.390 . S
C170 C169 1.381 . S
N171 C164 1.286 . S
N171 C167 1.413 . S
H172 C177 0.930 . S
H173 C180 0.930 . S
H174 C182 0.930 . S
H175 C176 1.016 . S
C176 H175 1.016 . S
C176 N183 1.286 . S
C177 H172 0.930 . S
C177 C178 1.397 . S
C177 C179 1.361 . S
C178 C177 1.397 . S
C178 C182 1.390 . S
C179 C177 1.361 . S
C179 C180 1.393 . S
C179 N183 1.413 . S
C180 H173 0.930 . S
C180 C179 1.393 . S
C180 C181 1.399 . S
C181 C180 1.399 . S
C181 C182 1.381 . S
C182 H174 0.930 . S
C182 C178 1.390 . S
C182 C181 1.381 . S
N183 C176 1.286 . S
N183 C179 1.413 . S
C7 C97 1.378 . S
C37 C109 1.470 . S
C54 C121 1.439 . S
C130 C87 1.424 . S
C145 C30 1.364 . S
C51 C154 1.402 1_655 S
C84 C169 1.408 . S
C10 C181 1.483 . S
C59 C178 1.264 . S
C142 C74 1.285 . S
C157 C18 1.455 . S
C32 C166 1.309 . S
C106 C73 1.222 . S
C15 C118 1.357 1_455 S
C133 C43 1.498 . S
C94 C62 1.268 . S
C164 C21 1.391 . S
C176 C29 1.517 . S
C52 C140 1.599 . S
C152 C81 1.383 . S
C116 C40 1.418 . S
C65 C128 1.388 . S
C92 C76 1.596 . S
C104 C8 1.490 . S
