# Generated by pormake.
# Topology tsx, (6,3)-cn, num edge types: 1
# Building blocks:
#     Node 0, Type 0, BuildingBlock: VOLQOD_clean_sbu_1, # of connection points: 6
#     Node 1, Type 0, BuildingBlock: VOLQOD_clean_sbu_1, # of connection points: 6
#     Node 2, Type 1, BuildingBlock: PAMTOO_clean_linker_0, # of connection points: 3
#     Node 3, Type 1, BuildingBlock: PAMTOO_clean_linker_0, # of connection points: 3
#     Node 4, Type 1, BuildingBlock: PAMTOO_clean_linker_0, # of connection points: 3
#     Node 5, Type 1, BuildingBlock: PAMTOO_clean_linker_0, # of connection points: 3
#     Edge 6, Type (0, 1), None
#     Edge 7, Type (0, 1), None
#     Edge 8, Type (0, 1), None
#     Edge 9, Type (0, 1), None
#     Edge 10, Type (0, 1), None
#     Edge 11, Type (0, 1), None
#     Edge 12, Type (0, 1), None
#     Edge 13, Type (0, 1), None
#     Edge 14, Type (0, 1), None
#     Edge 15, Type (0, 1), None
#     Edge 16, Type (0, 1), None
#     Edge 17, Type (0, 1), None
# Relax obj value: 0.058
# Max RMSD: 0.102
# Mean RMSD: 0.094
data_MOF--net-tsx--node1-VOLQOD_clean_sbu_1--node2-PAMTOO_clean_linker_0--edge1-none
_symmetry_space_group_name_H-M    P1
_symmetry_Int_Tables_number       1
_symmetry_cell_setting            triclinic
loop_
_symmetry_equiv_pos_as_xyz
'x, y, z'
_cell_length_a     9.2371731
_cell_length_b     9.9279391
_cell_length_c     18.447674
_cell_angle_alpha  78.291201
_cell_angle_beta   90.261284
_cell_angle_gamma 89.831626
loop_
_atom_site_label
_atom_site_type_symbol
_atom_site_fract_x
_atom_site_fract_y
_atom_site_fract_z
_atom_type_partial_charge
O0 O 0.1947 0.99857 0.11727 0.0
Zn1 Zn 0.23739 0.06861 0.00962 0.0
O2 O 0.05359 0.09046 -0.03622 0.0
Zn3 Zn 1.00943 0.93158 0.92702 0.0
Zn4 Zn 0.9118 0.13961 0.02716 0.0
Zn5 Zn 0.07801 0.23537 0.88408 0.0
O6 O 0.98657 0.98451 0.81553 0.0
O7 O 0.13694 0.16364 0.79662 0.0
O8 O 0.35657 0.96224 0.9449 0.0
O9 O 0.1856 0.80959 0.93997 0.0
O10 O 0.83958 0.83607 -0.01431 0.0
O11 O 0.78388 0.97598 0.0622 0.0
O12 O 0.78525 0.30146 -0.03136 0.0
O13 O 0.31698 0.25515 0.00989 0.0
O14 O 0.88912 0.31699 0.85862 0.0
O15 O 0.20005 0.38133 0.91427 0.0
C16 C 0.11375 0.06725 0.15325 0.0
C17 C 0.06662 0.07091 0.77279 0.0
C18 C 0.7669 0.86399 0.03981 0.0
C19 C 0.31135 0.85677 0.92176 0.0
C20 C 0.78615 0.34516 0.89816 0.0
C21 C 0.28645 0.37093 -0.03095 0.0
O22 O 1.0208 0.15568 0.12032 0.0
O23 O 0.59628 0.40643 0.63782 0.0
Zn24 Zn 0.68173 0.42855 0.53508 0.0
O25 O 0.53508 0.50906 0.4678 0.0
Zn26 Zn 0.46659 0.38785 0.40915 0.0
Zn27 Zn 0.37853 0.56083 0.52096 0.0
Zn28 Zn 0.60208 0.67186 0.40798 0.0
O29 O 0.4661 0.49735 0.30376 0.0
O30 O 0.663 0.62503 0.31263 0.0
O31 O 0.76022 0.25543 0.50329 0.0
O32 O 0.61514 0.24554 0.40752 0.0
O33 O 0.29128 0.27899 0.46057 0.0
O34 O 0.25855 0.39592 0.54976 0.0
O35 O 0.26252 0.71283 0.45533 0.0
O36 O 0.84022 0.56571 0.54088 0.0
O37 O 0.43159 0.79379 0.37307 0.0
O38 O 0.74339 0.75563 0.47301 0.0
C39 C 0.53178 0.50416 0.66097 0.0
C40 C 0.57041 0.57419 0.27382 0.0
C41 C 0.23305 0.29153 0.52181 0.0
C42 C 0.72209 0.20097 0.44887 0.0
C43 C 0.30162 0.793 0.39548 0.0
C44 C 0.83173 0.69645 0.52334 0.0
O45 O 0.4578 0.59519 0.61693 0.0
H46 H 0.2965 0.89207 0.24554 0.0
H47 H 0.94672 0.18193 0.2469 0.0
H48 H 0.05674 0.89233 0.44259 0.0
H49 H 0.83737 1.01498 0.48335 0.0
C50 C 0.80414 0.08235 0.43114 0.0
O51 O 0.92589 0.12838 0.39121 0.0
H52 H 0.73362 1.02371 0.3995 0.0
C53 C 0.21185 0.93525 0.27449 0.0
C54 C 0.19582 0.88851 0.35126 0.0
C55 C 0.11479 0.03389 0.23501 0.0
C56 C 1.01388 0.09715 0.27461 0.0
C57 C 1.00043 0.05214 0.35085 0.0
C58 C 0.07962 0.93755 0.38625 0.0
H59 H 0.15152 0.27386 0.66332 0.0
H60 H 1.01067 0.85377 0.70805 0.0
H61 H 0.15663 0.04623 0.49104 0.0
H62 H 0.80521 0.85888 0.58365 0.0
C63 C 0.88316 0.77449 0.58083 0.0
O64 O 1.02412 0.82263 0.57107 0.0
H65 H 0.87691 0.70443 0.63605 0.0
C66 C 0.12857 0.1804 0.64361 0.0
C67 C 0.15578 0.17478 0.56946 0.0
C68 C 0.07991 0.06467 0.69416 0.0
C69 C 0.04951 0.94349 0.66956 0.0
C70 C 0.06626 0.93782 0.59482 0.0
C71 C 0.12591 0.05213 0.54596 0.0
H72 H 0.66391 0.32274 0.77033 0.0
H73 H 0.45986 0.72174 0.72376 0.0
H74 H 0.68009 0.57522 0.93036 0.0
H75 H 0.2956 0.75538 0.82965 0.0
C76 C 0.37065 0.8274 0.85011 0.0
O77 O 0.51168 0.7773 0.85446 0.0
H78 H 0.36705 0.92433 0.80768 0.0
C79 C 0.62961 0.41551 0.78803 0.0
C80 C 0.67232 0.4355 0.85813 0.0
C81 C 0.55487 0.51844 0.73849 0.0
C82 C 0.51573 0.64004 0.76151 0.0
C83 C 0.5499 0.65836 0.83317 0.0
C84 C 0.63293 0.5569 0.88008 0.0
H85 H 0.72417 0.78386 0.18941 0.0
H86 H 0.45112 0.43649 0.17531 0.0
H87 H 0.57817 0.71988 -0.01964 0.0
H88 H 0.34591 0.58066 0.94307 0.0
C89 C 0.33402 0.4987 -0.00742 0.0
O90 O 0.46282 0.4774 0.03091 0.0
H91 H 0.248 0.52937 0.02812 0.0
C92 C 0.66207 0.72437 0.15709 0.0
C93 C 0.66632 0.7597 0.07951 0.0
C94 C 0.57987 0.61017 0.19251 0.0
C95 C 0.50794 0.52905 0.14946 0.0
C96 C 0.51351 0.56453 0.07247 0.0
C97 C 0.58421 0.68452 0.03876 0.0
loop_
_geom_bond_atom_site_label_1
_geom_bond_atom_site_label_2
_geom_bond_distance
_geom_bond_site_symmetry_2
_ccdc_geom_bond_type
O0 Zn1 1.953 . S
O0 C16 1.225 . S
Zn1 O0 1.953 . S
Zn1 O2 1.949 1_565 S
Zn1 O8 1.919 . S
Zn1 O13 1.924 1_565 S
O2 Zn1 1.949 1_545 S
O2 Zn3 1.923 1_444 S
O2 Zn4 1.950 1_455 S
O2 Zn5 1.945 1_554 S
Zn3 O2 1.923 1_666 S
Zn3 O6 1.933 . S
Zn3 O9 1.941 1_655 S
Zn3 O10 1.965 . S
Zn4 O2 1.950 1_655 S
Zn4 O11 1.938 1_545 S
Zn4 O12 1.906 . S
Zn4 O22 1.953 . S
Zn5 O2 1.945 1_556 S
Zn5 O7 1.932 . S
Zn5 O14 1.977 1_455 S
Zn5 O15 1.910 . S
O6 Zn3 1.933 . S
O6 C17 1.226 1_665 S
O7 Zn5 1.932 . S
O7 C17 1.307 . S
O8 Zn1 1.919 . S
O8 C19 1.253 1_554 S
O9 Zn3 1.941 1_455 S
O9 C19 1.283 . S
O10 Zn3 1.965 . S
O10 C18 1.303 1_556 S
O11 Zn4 1.938 1_565 S
O11 C18 1.247 . S
O12 Zn4 1.906 . S
O12 C20 1.304 1_554 S
O13 Zn1 1.924 1_545 S
O13 C21 1.311 . S
O14 Zn5 1.977 1_655 S
O14 C20 1.272 . S
O15 Zn5 1.910 . S
O15 C21 1.231 1_556 S
C16 O0 1.225 . S
C16 O22 1.298 1_465 S
C17 O6 1.226 1_445 S
C17 O7 1.307 . S
C18 O10 1.303 1_554 S
C18 O11 1.247 . S
C19 O8 1.253 1_556 S
C19 O9 1.283 . S
C20 O12 1.304 1_556 S
C20 O14 1.272 . S
C21 O13 1.311 . S
C21 O15 1.231 1_554 S
O22 Zn4 1.953 . S
O22 C16 1.298 1_645 S
O23 Zn24 1.953 . S
O23 C39 1.225 . S
Zn24 O23 1.953 . S
Zn24 O25 1.949 . S
Zn24 O31 1.919 . S
Zn24 O36 1.924 . S
O25 Zn24 1.949 . S
O25 Zn26 1.923 . S
O25 Zn27 1.950 . S
O25 Zn28 1.945 . S
Zn26 O25 1.923 . S
Zn26 O29 1.933 . S
Zn26 O32 1.941 . S
Zn26 O33 1.965 . S
Zn27 O25 1.950 . S
Zn27 O34 1.938 . S
Zn27 O35 1.906 . S
Zn27 O45 1.953 . S
Zn28 O25 1.945 . S
Zn28 O30 1.932 . S
Zn28 O37 1.977 . S
Zn28 O38 1.910 . S
O29 Zn26 1.933 . S
O29 C40 1.226 . S
O30 Zn28 1.932 . S
O30 C40 1.307 . S
O31 Zn24 1.919 . S
O31 C42 1.253 . S
O32 Zn26 1.941 . S
O32 C42 1.283 . S
O33 Zn26 1.965 . S
O33 C41 1.303 . S
O34 Zn27 1.938 . S
O34 C41 1.247 . S
O35 Zn27 1.906 . S
O35 C43 1.304 . S
O36 Zn24 1.924 . S
O36 C44 1.311 . S
O37 Zn28 1.977 . S
O37 C43 1.272 . S
O38 Zn28 1.910 . S
O38 C44 1.231 . S
C39 O23 1.225 . S
C39 O45 1.298 . S
C40 O29 1.226 . S
C40 O30 1.307 . S
C41 O33 1.303 . S
C41 O34 1.247 . S
C42 O31 1.253 . S
C42 O32 1.283 . S
C43 O35 1.304 . S
C43 O37 1.272 . S
C44 O36 1.311 . S
C44 O38 1.231 . S
O45 Zn27 1.953 . S
O45 C39 1.298 . S
H46 C53 0.929 . S
H47 C56 0.930 . S
H48 C58 0.929 . S
H49 C50 0.969 . S
C50 H49 0.969 . S
C50 O51 1.550 . S
C50 H52 0.973 . S
O51 C50 1.550 . S
O51 C57 1.412 . S
H52 C50 0.973 . S
C53 H46 0.929 . S
C53 C54 1.400 . S
C53 C55 1.364 . S
C54 C53 1.400 . S
C54 C58 1.377 . S
C55 C53 1.364 . S
C55 C56 1.374 1_465 S
C56 H47 0.930 . S
C56 C55 1.374 1_645 S
C56 C57 1.383 . S
C57 O51 1.412 . S
C57 C56 1.383 . S
C57 C58 1.394 1_645 S
C58 H48 0.929 . S
C58 C54 1.377 . S
C58 C57 1.394 1_465 S
H59 C66 0.929 . S
H60 C69 0.930 . S
H61 C71 0.929 . S
H62 C63 0.969 . S
C63 H62 0.969 . S
C63 O64 1.550 . S
C63 H65 0.973 . S
O64 C63 1.550 . S
O64 C70 1.412 1_565 S
H65 C63 0.973 . S
C66 H59 0.929 . S
C66 C67 1.400 . S
C66 C68 1.364 . S
C67 C66 1.400 . S
C67 C71 1.377 . S
C68 C66 1.364 . S
C68 C69 1.374 1_445 S
C69 H60 0.930 . S
C69 C68 1.374 1_665 S
C69 C70 1.383 1_565 S
C70 O64 1.412 1_545 S
C70 C69 1.383 1_545 S
C70 C71 1.394 1_655 S
C71 H61 0.929 . S
C71 C67 1.377 . S
C71 C70 1.394 1_455 S
H72 C79 0.929 . S
H73 C82 0.930 . S
H74 C84 0.929 1_554 S
H75 C76 0.969 . S
C76 H75 0.969 . S
C76 O77 1.550 . S
C76 H78 0.973 . S
O77 C76 1.550 . S
O77 C83 1.412 . S
H78 C76 0.973 . S
C79 H72 0.929 . S
C79 C80 1.400 . S
C79 C81 1.364 . S
C80 C79 1.400 . S
C80 C84 1.377 . S
C81 C79 1.364 . S
C81 C82 1.374 . S
C82 H73 0.930 . S
C82 C81 1.374 . S
C82 C83 1.383 . S
C83 O77 1.412 . S
C83 C82 1.383 . S
C83 C84 1.394 . S
C84 H74 0.929 1_556 S
C84 C80 1.377 . S
C84 C83 1.394 . S
H85 C92 0.929 . S
H86 C95 0.930 . S
H87 C97 0.929 1_556 S
H88 C89 0.969 . S
C89 H88 0.969 . S
C89 O90 1.550 . S
C89 H91 0.973 . S
O90 C89 1.550 . S
O90 C96 1.412 . S
H91 C89 0.973 . S
C92 H85 0.929 . S
C92 C93 1.400 . S
C92 C94 1.364 . S
C93 C92 1.400 . S
C93 C97 1.377 . S
C94 C92 1.364 . S
C94 C95 1.374 . S
C95 H86 0.930 . S
C95 C94 1.374 . S
C95 C96 1.383 . S
C96 O90 1.412 . S
C96 C95 1.383 . S
C96 C97 1.394 . S
C97 H87 0.929 1_554 S
C97 C93 1.377 . S
C97 C96 1.394 . S
C89 C21 1.388 . S
C19 C76 1.358 . S
C18 C93 1.459 . S
C20 C80 1.547 . S
C44 C63 1.388 . S
C42 C50 1.358 . S
C67 C41 1.459 . S
C54 C43 1.547 . S
C16 C55 1.561 . S
C17 C68 1.530 . S
C81 C39 1.561 . S
C40 C94 1.530 . S
