# Generated by pormake.
# Topology pts, (4,4)-cn, num edge types: 1
# Building blocks:
#     Node 0, Type 0, BuildingBlock: GIZVER_clean_linker_0, # of connection points: 4
#     Node 1, Type 0, BuildingBlock: GIZVER_clean_linker_0, # of connection points: 4
#     Node 2, Type 1, BuildingBlock: AZAVOO_clean_sbu_0, # of connection points: 4
#     Node 3, Type 1, BuildingBlock: AZAVOO_clean_sbu_0, # of connection points: 4
#     Edge 4, Type (0, 1), BuildingBlock: OJICUG_clean_linker_0, # of connection points: 2
#     Edge 5, Type (0, 1), BuildingBlock: OJICUG_clean_linker_0, # of connection points: 2
#     Edge 6, Type (0, 1), BuildingBlock: OJICUG_clean_linker_0, # of connection points: 2
#     Edge 7, Type (0, 1), BuildingBlock: OJICUG_clean_linker_0, # of connection points: 2
#     Edge 8, Type (0, 1), BuildingBlock: OJICUG_clean_linker_0, # of connection points: 2
#     Edge 9, Type (0, 1), BuildingBlock: OJICUG_clean_linker_0, # of connection points: 2
#     Edge 10, Type (0, 1), BuildingBlock: OJICUG_clean_linker_0, # of connection points: 2
#     Edge 11, Type (0, 1), BuildingBlock: OJICUG_clean_linker_0, # of connection points: 2
# Relax obj value: 0.014
# Max RMSD: 0.076
# Mean RMSD: 0.070
data_MOF--net-pts--node1-AZAVOO_clean_sbu_0--node2-GIZVER_clean_linker_0--edge1-OJICUG_clean_linker_0
_symmetry_space_group_name_H-M    P1
_symmetry_Int_Tables_number       1
_symmetry_cell_setting            triclinic
loop_
_symmetry_equiv_pos_as_xyz
'x, y, z'
_cell_length_a     17.760221
_cell_length_b     19.107202
_cell_length_c     27.370592
_cell_angle_alpha  90.136383
_cell_angle_beta   96.341062
_cell_angle_gamma 90.839575
loop_
_atom_site_label
_atom_site_type_symbol
_atom_site_fract_x
_atom_site_fract_y
_atom_site_fract_z
_atom_type_partial_charge
H0 H 0.62695 0.10519 0.02898 0.0
H1 H 0.62153 0.13258 0.87323 0.0
H2 H 0.81679 0.0423 -0.04578 0.0
H3 H 0.54984 0.20002 -0.01663 0.0
H4 H 0.53604 0.19757 0.91789 0.0
H5 H 0.47687 0.12463 0.03169 0.0
H6 H 0.29104 1.00741 -0.04387 0.0
H7 H 0.45829 0.10295 0.87427 0.0
C8 C 0.65448 0.09942 -0.00412 0.0
C9 C 0.72711 0.07005 -0.00212 0.0
C10 C 0.61697 0.1232 0.95131 0.0
C11 C 0.65038 0.11412 0.90766 0.0
C12 C 0.72223 0.08424 0.90852 0.0
C13 C 0.76045 0.06329 -0.04628 0.0
C14 C 0.54487 0.16396 0.95114 0.0
C15 C 0.47683 0.11629 0.95294 0.0
C16 C 0.44833 0.10256 -0.00202 0.0
C17 C 0.38028 0.06463 -0.0009 0.0
C18 C 0.34285 0.03784 -0.04489 0.0
C19 C 0.36965 0.05187 0.90977 0.0
C20 C 0.43775 0.09008 0.90905 0.0
H21 H 0.13764 0.61485 0.38679 0.0
H22 H 0.15207 0.58735 0.54298 0.0
H23 H 0.99495 0.73334 0.47344 0.0
H24 H 0.23216 0.53959 0.4273 0.0
H25 H 0.24441 0.53389 0.49298 0.0
H26 H 0.14091 0.46181 0.37787 0.0
H27 H 0.0496 0.28587 0.45042 0.0
H28 H 0.17359 0.4465 0.53619 0.0
C29 C 0.11609 0.62699 0.42122 0.0
C30 C 0.06379 0.68134 0.4241 0.0
C31 C 0.14514 0.59046 0.46364 0.0
C32 C 0.12492 0.61087 0.5097 0.0
C33 C 0.07172 0.66345 0.51298 0.0
C34 C 0.03735 0.69412 0.46992 0.0
C35 C 0.20128 0.53272 0.46024 0.0
C36 C 0.16022 0.46302 0.45742 0.0
C37 C 0.13119 0.43482 0.41145 0.0
C38 C 0.09052 0.37126 0.40889 0.0
C39 C 0.0783 0.33652 0.45241 0.0
C40 C 0.10866 0.36275 0.49824 0.0
C41 C 0.14946 0.42626 0.50076 0.0
Mg42 Mg 0.088 1.0056 0.23278 0.0
O43 O 0.97959 1.00435 0.17885 0.0
O44 O 0.88044 1.00955 0.22237 0.0
Mg45 Mg 0.92489 1.00012 0.30373 0.0
C46 C 0.90852 1.00849 0.18145 0.0
C47 C 0.2275 0.02561 0.1731 0.0
O48 O 0.26313 1.00105 0.21396 0.0
O49 O 0.07029 0.12095 0.25222 0.0
O50 O 0.97561 0.11032 0.29948 0.0
O51 O 0.08932 0.8876 0.23759 0.0
O52 O 1.03284 0.95707 0.28605 0.0
C53 C 1.02464 0.14751 0.27999 0.0
C54 C 0.05058 0.89468 0.27466 0.0
O55 O 0.15627 0.03414 0.17013 0.0
Mg56 Mg 1.00226 1.00166 0.67249 0.0
O57 O 0.10893 1.00011 0.72745 0.0
O58 O 0.2107 0.97739 0.68926 0.0
Mg59 Mg 0.16774 0.96338 0.60796 0.0
C60 C 0.18017 0.99127 0.72815 0.0
C61 C 0.86823 0.03214 0.73338 0.0
O62 O 0.83386 0.99212 0.69843 0.0
O63 O 0.03862 0.109 0.64531 0.0
O64 O 0.13716 0.08011 0.60525 0.0
O65 O 0.98329 0.88582 0.67925 0.0
O66 O 0.05374 0.93506 0.62671 0.0
C67 C 0.09215 0.12552 0.61967 0.0
C68 C 1.02798 0.87901 0.64533 0.0
O69 O 0.93754 0.04866 0.73185 0.0
C70 C 0.38411 0.03715 0.08929 0.0
C71 C 0.34347 0.05815 0.04496 0.0
H72 H 0.37917 1.00991 0.16485 0.0
C73 C 0.2658 0.07193 0.04396 0.0
H74 H 0.44404 0.02632 0.09103 0.0
C75 C 0.22884 0.0627 0.08584 0.0
C76 C 0.26859 0.03946 0.12986 0.0
H77 H 0.23333 0.08964 0.01055 0.0
H78 H 0.1687 0.07291 0.08339 0.0
C79 C 0.34688 0.02762 0.1314 0.0
C80 C 0.17255 0.28417 0.56129 0.0
C81 C 0.10607 0.31711 0.54151 0.0
H82 H 0.2201 0.19672 0.60197 0.0
C83 C 0.03601 0.29371 0.55513 0.0
H84 H 0.22703 0.30074 0.55068 0.0
C85 C 1.03202 0.23481 0.5851 0.0
C86 C 0.09788 0.19749 0.60066 0.0
H87 H 0.98398 0.31795 0.53969 0.0
H88 H 0.97688 0.215 0.59232 0.0
C89 C 0.16845 0.2244 0.59026 0.0
C90 C 0.75901 0.08607 0.08961 0.0
C91 C 0.76973 0.04991 0.04599 0.0
H92 H 0.79322 0.09986 0.16662 0.0
C93 C 0.82402 0.99644 0.04862 0.0
H94 H 0.71954 0.12866 0.08953 0.0
C95 C 0.86863 0.98222 0.09276 0.0
C96 C 0.85797 0.01908 0.13572 0.0
H97 H 0.83287 0.96568 0.01657 0.0
H98 H 0.91144 0.94232 0.09334 0.0
C99 C 0.80174 0.07002 0.13401 0.0
C100 C 0.1271 0.74052 0.58055 0.0
C101 C 0.06502 0.69992 0.55989 0.0
H102 H 0.16368 0.83034 0.62434 0.0
C103 C 0.99353 0.71027 0.57588 0.0
H104 H 0.1825 0.73418 0.56817 0.0
C105 C 0.9831 0.7646 0.60876 0.0
C106 C 0.04355 0.81027 0.6247 0.0
H107 H 0.94475 0.68024 0.55979 0.0
H108 H 0.9264 0.77513 0.61767 0.0
C109 C 0.11623 0.79595 0.61222 0.0
C110 C 0.35395 1.00824 0.82209 0.0
C111 C 0.32189 0.03286 0.86346 0.0
H112 H 0.33437 0.97492 0.74688 0.0
C113 C 0.24296 0.0414 0.86018 0.0
H114 H 0.41448 1.00073 0.82355 0.0
C115 C 0.19718 0.02595 0.81676 0.0
C116 C 0.22903 1.00224 0.77511 0.0
H117 H 0.21638 0.06181 0.89089 0.0
H118 H 0.13681 0.03428 0.81566 0.0
C119 C 0.30795 0.99306 0.77831 0.0
C120 C 0.99349 0.30952 0.35158 0.0
C121 C 0.06816 0.3346 0.36185 0.0
H122 H 0.92048 0.23084 0.31575 0.0
C123 C 0.12441 0.30879 0.33462 0.0
H124 H 0.94925 0.32889 0.37209 0.0
C125 C 0.10819 0.25206 0.30244 0.0
C126 C 0.03563 0.22066 0.29748 0.0
H127 H 0.18253 0.32717 0.34223 0.0
H128 H 0.15426 0.22837 0.28583 0.0
C129 C 0.97728 0.25314 0.31952 0.0
C130 C 0.83481 0.09403 0.86078 0.0
C131 C 0.75817 0.07574 0.8624 0.0
H132 H 0.92942 0.09558 0.81867 0.0
C133 C 0.71678 0.04716 0.82013 0.0
H134 H 0.86787 0.11716 0.89254 0.0
C135 C 0.752 0.03476 0.77774 0.0
C136 C 0.82924 0.05121 0.77659 0.0
H137 H 0.65771 0.03231 0.82035 0.0
H138 H 0.71899 1.01101 0.74621 0.0
C139 C 0.8699 0.08213 0.81831 0.0
C140 C 0.05517 0.71453 0.33328 0.0
C141 C 0.04651 0.73203 0.38253 0.0
H142 H 0.064 0.75228 0.26005 0.0
C143 C 1.02916 0.80201 0.39289 0.0
H144 H 0.06657 0.6614 0.32291 0.0
C145 C 1.0238 0.85264 0.35642 0.0
C146 C 0.03878 0.83635 0.30856 0.0
H147 H 1.0244 0.82019 0.42979 0.0
H148 H 1.01356 0.90605 0.36702 0.0
C149 C 0.05263 0.76643 0.29684 0.0
loop_
_geom_bond_atom_site_label_1
_geom_bond_atom_site_label_2
_geom_bond_distance
_geom_bond_site_symmetry_2
_ccdc_geom_bond_type
H0 C8 0.930 . S
H1 C11 0.930 . S
H2 C13 0.930 . S
H3 C14 0.970 . S
H4 C14 0.970 1_556 S
H5 C16 0.930 . S
H6 C18 0.930 . S
H7 C20 0.930 . S
C8 H0 0.930 . S
C8 C9 1.382 . S
C8 C10 1.426 . S
C9 C8 1.382 . S
C9 C13 1.389 1_545 S
C10 C8 1.426 . S
C10 C11 1.375 1_554 S
C10 C14 1.532 . S
C11 H1 0.930 . S
C11 C10 1.375 1_556 S
C11 C12 1.416 . S
C12 C11 1.416 . S
C12 C13 1.371 1_546 S
C13 H2 0.930 . S
C13 C9 1.389 1_565 S
C13 C12 1.371 1_564 S
C14 H3 0.970 . S
C14 H4 0.970 1_554 S
C14 C10 1.532 . S
C14 C15 1.499 . S
C15 C14 1.499 . S
C15 C16 1.370 . S
C15 C20 1.415 1_554 S
C16 H5 0.930 . S
C16 C15 1.370 . S
C16 C17 1.407 . S
C17 C16 1.407 . S
C17 C18 1.365 1_544 S
C18 H6 0.930 . S
C18 C17 1.365 1_566 S
C18 C19 1.393 1_565 S
C19 C18 1.393 1_545 S
C19 C20 1.387 . S
C20 H7 0.930 . S
C20 C15 1.415 1_556 S
C20 C19 1.387 . S
H21 C29 0.930 . S
H22 C32 0.930 . S
H23 C34 0.930 1_655 S
H24 C35 0.970 . S
H25 C35 0.970 . S
H26 C37 0.930 . S
H27 C39 0.930 1_655 S
H28 C41 0.930 . S
C29 H21 0.930 . S
C29 C30 1.382 . S
C29 C31 1.426 . S
C30 C29 1.382 . S
C30 C34 1.389 . S
C31 C29 1.426 . S
C31 C32 1.375 . S
C31 C35 1.532 . S
C32 H22 0.930 . S
C32 C31 1.375 . S
C32 C33 1.416 . S
C33 C32 1.416 . S
C33 C34 1.371 . S
C34 H23 0.930 1_455 S
C34 C30 1.389 . S
C34 C33 1.371 . S
C35 H24 0.970 . S
C35 H25 0.970 . S
C35 C31 1.532 . S
C35 C36 1.499 . S
C36 C35 1.499 . S
C36 C37 1.370 . S
C36 C41 1.415 . S
C37 H26 0.930 . S
C37 C36 1.370 . S
C37 C38 1.407 . S
C38 C37 1.407 . S
C38 C39 1.365 . S
C39 H27 0.930 1_455 S
C39 C38 1.365 . S
C39 C40 1.393 . S
C40 C39 1.393 . S
C40 C41 1.387 . S
C41 H28 0.930 . S
C41 C36 1.415 . S
C41 C40 1.387 . S
Mg42 O43 2.028 1_455 S
Mg42 O49 1.986 . S
Mg42 O51 2.114 1_545 S
Mg42 O52 2.251 1_545 S
Mg42 O55 2.010 . S
O43 Mg42 2.028 1_655 S
O43 C46 1.250 . S
O44 Mg45 2.028 . S
O44 C46 1.248 . S
Mg45 O44 2.028 . S
Mg45 O50 2.032 . S
Mg45 O52 2.079 1_645 S
C46 O43 1.250 . S
C46 O44 1.248 . S
C47 O48 1.264 . S
C47 O55 1.249 . S
O48 C47 1.264 . S
O49 Mg42 1.986 . S
O49 C53 1.246 . S
O50 Mg45 2.032 . S
O50 C53 1.259 1_655 S
O51 Mg42 2.114 1_565 S
O51 C54 1.252 . S
O52 Mg42 2.251 1_565 S
O52 Mg45 2.079 1_465 S
O52 C54 1.273 . S
C53 O49 1.246 . S
C53 O50 1.259 1_455 S
C54 O51 1.252 . S
C54 O52 1.273 . S
O55 Mg42 2.010 . S
O55 C47 1.249 . S
Mg56 O57 2.028 1_655 S
Mg56 O63 1.986 . S
Mg56 O65 2.114 1_545 S
Mg56 O66 2.251 1_645 S
Mg56 O69 2.010 . S
O57 Mg56 2.028 1_455 S
O57 C60 1.250 . S
O58 Mg59 2.028 . S
O58 C60 1.248 . S
Mg59 O58 2.028 . S
Mg59 O64 2.032 . S
Mg59 O66 2.079 1_545 S
C60 O57 1.250 . S
C60 O58 1.248 . S
C61 O62 1.264 . S
C61 O69 1.249 . S
O62 C61 1.264 . S
O63 Mg56 1.986 . S
O63 C67 1.246 1_655 S
O64 Mg59 2.032 . S
O64 C67 1.259 . S
O65 Mg56 2.114 1_565 S
O65 C68 1.252 1_655 S
O66 Mg56 2.251 1_465 S
O66 Mg59 2.079 1_565 S
O66 C68 1.273 . S
C67 O63 1.246 1_455 S
C67 O64 1.259 . S
C68 O65 1.252 1_455 S
C68 O66 1.273 . S
O69 Mg56 2.010 . S
O69 C61 1.249 . S
C70 C71 1.375 1_565 S
C70 H74 0.950 . S
C70 C79 1.390 . S
C71 C70 1.375 1_545 S
C71 C73 1.401 . S
H72 C79 0.950 . S
C73 C71 1.401 . S
C73 C75 1.390 . S
C73 H77 0.950 . S
H74 C70 0.950 . S
C75 C73 1.390 . S
C75 C76 1.387 . S
C75 H78 0.950 . S
C76 C75 1.387 . S
C76 C79 1.387 1_545 S
H77 C73 0.950 . S
H78 C75 0.950 . S
C79 C70 1.390 . S
C79 H72 0.950 . S
C79 C76 1.387 1_565 S
C80 C81 1.387 . S
C80 H84 0.950 . S
C80 C89 1.390 . S
C81 C80 1.387 . S
C81 C83 1.387 1_455 S
H82 C89 0.950 . S
C83 C81 1.387 1_655 S
C83 C85 1.390 . S
C83 H87 0.950 . S
H84 C80 0.950 . S
C85 C83 1.390 . S
C85 C86 1.387 1_655 S
C85 H88 0.950 . S
C86 C85 1.387 1_455 S
C86 C89 1.387 . S
H87 C83 0.950 . S
H88 C85 0.950 . S
C89 C80 1.390 . S
C89 H82 0.950 . S
C89 C86 1.387 . S
C90 C91 1.387 . S
C90 H94 0.950 . S
C90 C99 1.390 . S
C91 C90 1.387 . S
C91 C93 1.387 1_545 S
H92 C99 0.950 . S
C93 C91 1.387 1_565 S
C93 C95 1.390 . S
C93 H97 0.950 . S
H94 C90 0.950 . S
C95 C93 1.390 . S
C95 C96 1.387 1_565 S
C95 H98 0.950 . S
C96 C95 1.387 1_545 S
C96 C99 1.387 . S
H97 C93 0.950 . S
H98 C95 0.950 . S
C99 C90 1.390 . S
C99 H92 0.950 . S
C99 C96 1.387 . S
C100 C101 1.387 . S
C100 H104 0.950 . S
C100 C109 1.390 . S
C101 C100 1.387 . S
C101 C103 1.387 1_455 S
H102 C109 0.950 . S
C103 C101 1.387 1_655 S
C103 C105 1.390 . S
C103 H107 0.950 . S
H104 C100 0.950 . S
C105 C103 1.390 . S
C105 C106 1.387 1_655 S
C105 H108 0.950 . S
C106 C105 1.387 1_455 S
C106 C109 1.387 . S
H107 C103 0.950 . S
H108 C105 0.950 . S
C109 C100 1.390 . S
C109 H102 0.950 . S
C109 C106 1.387 . S
C110 C111 1.387 1_565 S
C110 H114 0.950 . S
C110 C119 1.390 . S
C111 C110 1.387 1_545 S
C111 C113 1.387 . S
H112 C119 0.950 . S
C113 C111 1.387 . S
C113 C115 1.390 . S
C113 H117 0.950 . S
H114 C110 0.950 . S
C115 C113 1.390 . S
C115 C116 1.387 . S
C115 H118 0.950 . S
C116 C115 1.387 . S
C116 C119 1.387 1_545 S
H117 C113 0.950 . S
H118 C115 0.950 . S
C119 C110 1.390 . S
C119 H112 0.950 . S
C119 C116 1.387 1_565 S
C120 C121 1.387 1_655 S
C120 H124 0.950 . S
C120 C129 1.390 . S
C121 C120 1.387 1_455 S
C121 C123 1.387 . S
H122 C129 0.950 . S
C123 C121 1.387 . S
C123 C125 1.390 . S
C123 H127 0.950 . S
H124 C120 0.950 . S
C125 C123 1.390 . S
C125 C126 1.387 . S
C125 H128 0.950 . S
C126 C125 1.387 . S
C126 C129 1.387 1_455 S
H127 C123 0.950 . S
H128 C125 0.950 . S
C129 C120 1.390 . S
C129 H122 0.950 . S
C129 C126 1.387 1_655 S
C130 C131 1.389 . S
C130 H134 0.950 . S
C130 C139 1.390 . S
C131 C130 1.389 . S
C131 C133 1.386 1_545 S
H132 C139 0.950 . S
C133 C131 1.386 1_565 S
C133 C135 1.390 . S
C133 H137 0.950 . S
H134 C130 0.950 . S
C135 C133 1.390 . S
C135 C136 1.387 1_565 S
C135 H138 0.950 . S
C136 C135 1.387 1_545 S
C136 C139 1.387 . S
H137 C133 0.950 . S
H138 C135 0.950 . S
C139 C130 1.390 . S
C139 H132 0.950 . S
C139 C136 1.387 . S
C140 C141 1.387 . S
C140 H144 0.950 . S
C140 C149 1.390 . S
C141 C140 1.387 . S
C141 C143 1.387 . S
H142 C149 0.950 . S
C143 C141 1.387 . S
C143 C145 1.390 . S
C143 H147 0.950 1_455 S
H144 C140 0.950 . S
C145 C143 1.390 . S
C145 C146 1.387 . S
C145 H148 0.950 1_455 S
C146 C145 1.387 . S
C146 C149 1.387 . S
H147 C143 0.950 1_655 S
H148 C145 0.950 1_655 S
C149 C140 1.390 . S
C149 H142 0.950 . S
C149 C146 1.387 . S
C76 C47 1.264 . S
C71 C17 1.453 . S
C86 C67 1.506 . S
C81 C40 1.470 . S
C96 C46 1.487 . S
C91 C9 1.464 . S
C106 C68 1.539 . S
C101 C33 1.441 . S
C116 C60 1.481 . S
C111 C19 1.470 . S
C126 C53 1.517 . S
C121 C38 1.444 . S
C136 C61 1.269 . S
C131 C12 1.440 . S
C141 C30 1.473 . S
C146 C54 1.546 . S
