# Generated by pormake.
# Topology tsx, (6,3)-cn, num edge types: 1
# Building blocks:
#     Node 0, Type 0, BuildingBlock: JUFBIX_clean_sbu_0, # of connection points: 6
#     Node 1, Type 0, BuildingBlock: JUFBIX_clean_sbu_0, # of connection points: 6
#     Node 2, Type 1, BuildingBlock: BETDAH_clean_linker_0, # of connection points: 3
#     Node 3, Type 1, BuildingBlock: BETDAH_clean_linker_0, # of connection points: 3
#     Node 4, Type 1, BuildingBlock: BETDAH_clean_linker_0, # of connection points: 3
#     Node 5, Type 1, BuildingBlock: BETDAH_clean_linker_0, # of connection points: 3
#     Edge 6, Type (0, 1), BuildingBlock: OJICUG_clean_linker_0, # of connection points: 2
#     Edge 7, Type (0, 1), BuildingBlock: OJICUG_clean_linker_0, # of connection points: 2
#     Edge 8, Type (0, 1), BuildingBlock: OJICUG_clean_linker_0, # of connection points: 2
#     Edge 9, Type (0, 1), BuildingBlock: OJICUG_clean_linker_0, # of connection points: 2
#     Edge 10, Type (0, 1), BuildingBlock: OJICUG_clean_linker_0, # of connection points: 2
#     Edge 11, Type (0, 1), BuildingBlock: OJICUG_clean_linker_0, # of connection points: 2
#     Edge 12, Type (0, 1), BuildingBlock: OJICUG_clean_linker_0, # of connection points: 2
#     Edge 13, Type (0, 1), BuildingBlock: OJICUG_clean_linker_0, # of connection points: 2
#     Edge 14, Type (0, 1), BuildingBlock: OJICUG_clean_linker_0, # of connection points: 2
#     Edge 15, Type (0, 1), BuildingBlock: OJICUG_clean_linker_0, # of connection points: 2
#     Edge 16, Type (0, 1), BuildingBlock: OJICUG_clean_linker_0, # of connection points: 2
#     Edge 17, Type (0, 1), BuildingBlock: OJICUG_clean_linker_0, # of connection points: 2
# Relax obj value: 0.101
# Max RMSD: 0.131
# Mean RMSD: 0.115
data_MOF--net-tsx--node1-JUFBIX_clean_sbu_0--node2-BETDAH_clean_linker_0--edge1-OJICUG_clean_linker_0
_symmetry_space_group_name_H-M    P1
_symmetry_Int_Tables_number       1
_symmetry_cell_setting            triclinic
loop_
_symmetry_equiv_pos_as_xyz
'x, y, z'
_cell_length_a     14.864399
_cell_length_b     17.537683
_cell_length_c     24.659878
_cell_angle_alpha  92.924666
_cell_angle_beta   95.394384
_cell_angle_gamma 100.68584
loop_
_atom_site_label
_atom_site_type_symbol
_atom_site_fract_x
_atom_site_fract_y
_atom_site_fract_z
_atom_type_partial_charge
Co0 Co 0.11985 1.00159 -0.0277 0.0
C1 C 0.04302 0.03924 0.87217 0.0
Co2 Co 1.00592 0.06586 -0.02163 0.0
C3 C 0.20978 0.87669 0.93958 0.0
C4 C 0.30217 0.96547 -0.00948 0.0
N5 N 0.21546 0.94739 -0.03431 0.0
N6 N 0.28879 0.84913 0.94776 0.0
C7 C 0.34735 0.90542 -0.02046 0.0
H8 H 0.1478 0.8452 0.916 0.0
H9 H 0.32959 0.01743 0.01685 0.0
C10 C 0.08616 0.03011 0.07774 0.0
N11 N 0.90796 0.11557 -0.01338 0.0
C12 C 0.87214 0.16419 0.95393 0.0
C13 C 0.85174 0.10469 0.02669 0.0
N14 N 0.79623 0.18405 -0.02774 0.0
C15 C 0.7835 0.14708 0.01816 0.0
C16 C 0.94957 0.90536 -0.02772 0.0
O17 O 0.1355 0.99701 0.04853 0.0
O18 O 0.02621 0.06428 0.05509 0.0
O19 O 0.92277 0.96979 -0.02461 0.0
O20 O 0.03398 0.90532 -0.03221 0.0
O21 O 0.98825 0.06746 0.90064 0.0
H22 H 0.85806 0.06639 0.05927 0.0
H23 H 0.90055 0.18401 0.91715 0.0
O24 O 0.10435 1.00686 0.89571 0.0
O25 O 0.20349 0.09916 -0.02124 0.0
O26 O 0.08891 0.16193 -0.01713 0.0
C27 C 0.17488 0.16307 -0.0159 0.0
H28 H 0.41644 0.90201 -0.00393 0.0
H29 H 0.72693 0.1483 0.04263 0.0
Co30 Co 0.62628 0.50446 0.47262 0.0
C31 C 0.54725 0.54009 0.37237 0.0
Co32 Co 0.51242 0.56921 0.47866 0.0
C33 C 0.71661 0.37735 0.44307 0.0
C34 C 0.81073 0.47182 0.48751 0.0
N35 N 0.7223 0.45015 0.46596 0.0
N36 N 0.7974 0.35218 0.45009 0.0
C37 C 0.8569 0.41205 0.47782 0.0
H38 H 0.65317 0.34213 0.42364 0.0
H39 H 0.83929 0.52658 0.5104 0.0
C40 C 0.59497 0.53551 0.57814 0.0
N41 N 0.41417 0.6189 0.48715 0.0
C42 C 0.37569 0.66547 0.45387 0.0
C43 C 0.36012 0.60939 0.52835 0.0
N44 N 0.30033 0.68541 0.47298 0.0
C45 C 0.29069 0.65055 0.51995 0.0
C46 C 0.45638 0.40862 0.47436 0.0
O47 O 0.64351 0.50149 0.54893 0.0
O48 O 0.53467 0.56928 0.55542 0.0
O49 O 0.42971 0.47313 0.47712 0.0
O50 O 0.54059 0.40828 0.4694 0.0
O51 O 0.4931 0.56901 0.40093 0.0
H52 H 0.36857 0.57271 0.56168 0.0
H53 H 0.40174 0.68369 0.41611 0.0
O54 O 0.60911 0.50821 0.3959 0.0
O55 O 0.7095 0.60232 0.47788 0.0
O56 O 0.59504 0.66531 0.48171 0.0
C57 C 0.68098 0.66636 0.48273 0.0
H58 H 0.92848 0.41252 0.49109 0.0
H59 H 0.23536 0.65228 0.54531 0.0
H60 H 0.16288 0.90572 0.31337 0.0
H61 H 0.93116 0.02162 0.30479 0.0
H62 H 0.95623 0.85497 0.42338 0.0
C63 C 0.09831 0.91421 0.3274 0.0
C64 C 0.06593 0.87415 0.37141 0.0
C65 C 0.04751 0.96359 0.30049 0.0
C66 C 0.97051 0.98213 0.32369 0.0
C67 C 0.94013 0.94555 0.36979 0.0
C68 C 0.9838 0.8873 0.39055 0.0
N69 N 0.86594 0.96622 0.39578 0.0
C70 C 0.85251 0.04265 0.40123 0.0
H71 H 0.8911 0.94663 0.63821 0.0
H72 H 0.14481 0.10685 0.62349 0.0
H73 H 1.00808 0.95789 0.48638 0.0
C74 C 0.94243 0.97456 0.61339 0.0
C75 C 0.93968 0.94691 0.55896 0.0
C76 C 1.01652 0.03201 0.63737 0.0
C77 C 0.08597 0.0644 0.60516 0.0
C78 C 0.0816 0.03752 0.55004 0.0
C79 C 1.00886 0.97931 0.52794 0.0
N80 N 0.1533 0.0601 0.51674 0.0
C81 C 0.21123 0.13218 0.5198 0.0
H82 H 0.67097 0.41355 0.81537 0.0
H83 H 0.43666 0.52633 0.80311 0.0
H84 H 0.4568 0.35627 0.91975 0.0
C85 C 0.60517 0.42096 0.82813 0.0
C86 C 0.57027 0.379 0.87072 0.0
C87 C 0.5549 0.47024 0.80069 0.0
C88 C 0.47582 0.48702 0.82241 0.0
C89 C 0.44296 0.44858 0.86727 0.0
C90 C 0.48636 0.39034 0.8882 0.0
N91 N 0.36622 0.467 0.89168 0.0
C92 C 0.34972 0.54251 0.89655 0.0
H93 H 0.38993 0.44285 0.1396 0.0
H94 H 0.64232 0.60306 0.12194 0.0
H95 H 0.50062 0.45435 -0.01412 0.0
C96 C 0.44026 0.47065 0.11413 0.0
C97 C 0.43561 0.44292 0.05957 0.0
C98 C 0.51489 0.52824 0.1373 0.0
C99 C 0.58308 0.56051 0.10424 0.0
C100 C 0.57671 0.53365 0.04899 0.0
C101 C 0.50331 0.47551 0.02764 0.0
N102 N 0.6468 0.55642 0.01462 0.0
C103 C 0.70494 0.62837 0.01732 0.0
C104 C 0.3362 0.23845 0.00093 0.0
C105 C 0.2411 0.23705 -0.00183 0.0
H106 H 0.47176 0.30479 0.02356 0.0
C107 C 0.21021 0.30523 0.01422 0.0
H108 H 0.36236 0.18696 -0.0107 0.0
C109 C 0.27321 0.37263 0.03409 0.0
C110 C 0.36792 0.37312 0.03759 0.0
H111 H 0.13733 0.30595 0.01292 0.0
H112 H 0.24811 0.42413 0.04696 0.0
C113 C 0.39887 0.3058 0.02053 0.0
C114 C 0.22947 0.70926 0.92024 0.0
C115 C 0.30403 0.77243 0.93148 0.0
H116 H 0.18611 0.5864 0.90027 0.0
C117 C 0.39392 0.75845 0.92875 0.0
H118 H 0.15946 0.71708 0.92275 0.0
C119 C 0.40879 0.68325 0.91615 0.0
C120 C 0.33416 0.6208 0.9059 0.0
H121 H 0.45291 0.80549 0.93659 0.0
H122 H 0.47865 0.67375 0.91516 0.0
C123 C 0.24451 0.63421 0.90763 0.0
C124 C 0.79311 0.83459 -0.01117 0.0
C125 C 0.88538 0.83279 -0.01907 0.0
H126 H 0.66333 0.77029 0.00748 0.0
C127 C 0.9173 0.76264 -0.0136 0.0
H128 H 0.76636 0.88771 -0.01483 0.0
C129 C 0.85843 0.69607 -5e-05 0.0
C130 C 0.76711 0.69872 0.00834 0.0
H131 H 0.988 0.75936 -0.01906 0.0
H132 H 0.88408 0.64238 0.00345 0.0
C133 C 0.73438 0.76791 0.00226 0.0
C134 C 0.69243 0.27778 -0.02126 0.0
C135 C 0.73745 0.23119 0.94678 0.0
H136 H 0.60585 0.36241 -0.02034 0.0
C137 C 0.72346 0.23049 0.8897 0.0
H138 H 0.7027 0.27968 0.02287 0.0
C139 C 0.66643 0.27641 0.86501 0.0
C140 C 0.62325 0.32469 0.89695 0.0
H141 H 0.75591 0.19387 0.86419 0.0
H142 H 0.65664 0.27456 0.82084 0.0
C143 C 0.63633 0.32451 0.95405 0.0
C144 C 0.71613 0.8099 0.50853 0.0
C145 C 0.74732 0.74039 0.49654 0.0
H146 H 0.75314 0.93019 0.53828 0.0
C147 C 0.84229 0.7407 0.50359 0.0
H148 H 0.64335 0.81156 0.50384 0.0
C149 C 0.90431 0.80822 0.52364 0.0
C150 C 0.87287 0.87689 0.53657 0.0
H151 H 0.86867 0.68822 0.49521 0.0
H152 H 0.97693 0.80644 0.53009 0.0
C153 C 0.7785 0.87758 0.52861 0.0
C154 C 0.88693 0.24684 0.46355 0.0
C155 C 0.81396 0.27515 0.43568 0.0
H156 H 0.9559 0.15036 0.4742 0.0
C157 C 0.75577 0.22568 0.39474 0.0
H158 H 0.93263 0.28232 0.49572 0.0
C159 C 0.76917 0.14982 0.38278 0.0
C160 C 0.84101 0.12205 0.41138 0.0
H161 H 0.69974 0.24539 0.37186 0.0
H162 H 0.72284 0.11267 0.35156 0.0
C163 C 0.90018 0.17105 0.45151 0.0
C164 C 0.42378 0.26601 0.4888 0.0
C165 C 0.39218 0.33634 0.48359 0.0
H166 H 0.39011 0.14568 0.50558 0.0
C167 C 0.30018 0.3385 0.49198 0.0
H168 H 0.49426 0.26246 0.48299 0.0
C169 C 0.24132 0.27194 0.50547 0.0
C170 C 0.27366 0.2025 0.51111 0.0
H171 H 0.27371 0.39179 0.48856 0.0
H172 H 0.17044 0.27456 0.51099 0.0
C173 C 0.36477 0.19956 0.50239 0.0
C174 C 0.22223 0.72773 0.39045 0.0
C175 C 0.23925 0.73074 0.4475 0.0
H176 H 0.15097 0.76832 0.32166 0.0
C177 C 0.19475 0.77775 0.47951 0.0
H178 H 0.25416 0.69072 0.36491 0.0
C179 C 0.13637 0.82272 0.45487 0.0
C180 C 0.12044 0.8208 0.39775 0.0
H181 H 0.20721 0.78141 0.52361 0.0
H182 H 0.10649 0.86104 0.4805 0.0
C183 C 0.16292 0.77189 0.36582 0.0
C184 C 0.11667 0.95462 0.15698 0.0
C185 C 0.09014 0.02093 0.13657 0.0
H186 H 0.11994 0.88269 0.22319 0.0
C187 C 0.05808 0.07316 0.17161 0.0
H188 H 0.14057 0.91297 0.13058 0.0
C189 C 0.0492 0.05742 0.22603 0.0
C190 C 0.06994 0.98812 0.24573 0.0
H191 H 0.03781 0.12513 0.1566 0.0
H192 H 0.02382 0.09851 0.252 0.0
C193 C 0.10536 0.93773 0.21059 0.0
C194 C 0.9585 0.0599 0.78257 0.0
C195 C 0.03812 0.04533 0.81238 0.0
H196 H 0.8894 0.06776 0.70316 0.0
C197 C 0.11378 0.03531 0.78441 0.0
H198 H 0.89939 0.0684 0.80306 0.0
C199 C 0.10877 0.03666 0.72767 0.0
C200 C 0.02757 0.04701 0.69755 0.0
H201 H 0.17658 0.02496 0.80629 0.0
H202 H 0.16678 0.02539 0.70715 0.0
C203 C 0.95295 0.05995 0.72556 0.0
C204 C 0.56631 0.57942 0.67173 0.0
C205 C 0.59999 0.52762 0.63717 0.0
H206 H 0.53009 0.60458 0.75168 0.0
C207 C 0.62868 0.46256 0.65827 0.0
H208 H 0.54452 0.63055 0.65624 0.0
C209 C 0.61722 0.44601 0.71192 0.0
C210 C 0.57937 0.49552 0.74643 0.0
H211 H 0.65408 0.42132 0.63232 0.0
H212 H 0.63319 0.39159 0.72491 0.0
C213 C 0.55721 0.56405 0.72619 0.0
C214 C 0.61564 0.53379 0.2839 0.0
C215 C 0.54088 0.54472 0.31243 0.0
H216 H 0.66655 0.52213 0.20612 0.0
C217 C 0.46068 0.55888 0.28303 0.0
H218 H 0.67885 0.5237 0.30544 0.0
C219 C 0.4537 0.55775 0.22595 0.0
C220 C 0.52743 0.54403 0.19742 0.0
H221 H 0.40223 0.56804 0.30393 0.0
H222 H 0.38974 0.56536 0.20393 0.0
C223 C 0.6092 0.53398 0.22706 0.0
loop_
_geom_bond_atom_site_label_1
_geom_bond_atom_site_label_2
_geom_bond_distance
_geom_bond_site_symmetry_2
_ccdc_geom_bond_type
Co0 N5 2.054 1_554 S
Co0 O17 2.021 . S
Co0 O20 2.062 1_455 S
Co0 O24 2.117 1_554 S
Co0 O25 2.020 1_565 S
C1 O21 1.264 . S
C1 O24 1.255 1_645 S
Co2 N11 2.057 1_556 S
Co2 O18 2.117 1_556 S
Co2 O19 2.020 1_545 S
Co2 O21 2.021 . S
Co2 O26 2.062 1_656 S
C3 N5 1.310 1_554 S
C3 N6 1.347 . S
C3 H8 0.931 . S
C4 N5 1.384 . S
C4 C7 1.350 . S
C4 H9 0.930 . S
N5 Co0 2.054 1_556 S
N5 C3 1.310 1_556 S
N5 C4 1.384 . S
N6 C3 1.347 . S
N6 C7 1.373 1_554 S
C7 C4 1.350 . S
C7 N6 1.373 1_556 S
C7 H28 0.931 . S
H8 C3 0.931 . S
H9 C4 0.930 . S
C10 O17 1.259 1_545 S
C10 O18 1.258 1_455 S
N11 Co2 2.057 1_554 S
N11 C12 1.316 1_554 S
N11 C13 1.375 . S
C12 N11 1.316 1_556 S
C12 N14 1.347 1_556 S
C12 H23 0.931 . S
C13 N11 1.375 . S
C13 C15 1.350 . S
C13 H22 0.930 . S
N14 C12 1.347 1_554 S
N14 C15 1.373 . S
C15 C13 1.350 . S
C15 N14 1.373 . S
C15 H29 0.931 . S
C16 O19 1.256 1_554 S
C16 O20 1.255 . S
O17 Co0 2.021 . S
O17 C10 1.259 1_565 S
O18 Co2 2.117 1_554 S
O18 C10 1.258 1_655 S
O19 Co2 2.020 1_565 S
O19 C16 1.256 1_556 S
O20 Co0 2.062 1_655 S
O20 C16 1.255 . S
O21 C1 1.264 . S
O21 Co2 2.021 . S
H22 C13 0.930 . S
H23 C12 0.931 . S
O24 Co0 2.117 1_556 S
O24 C1 1.255 1_465 S
O25 Co0 2.020 1_545 S
O25 C27 1.256 . S
O26 Co2 2.062 1_454 S
O26 C27 1.255 . S
C27 O25 1.256 . S
C27 O26 1.255 . S
H28 C7 0.931 . S
H29 C15 0.931 . S
Co30 N35 2.057 . S
Co30 O47 2.021 . S
Co30 O50 2.062 . S
Co30 O54 2.117 . S
Co30 O55 2.020 . S
C31 O51 1.259 . S
C31 O54 1.258 . S
Co32 N41 2.057 . S
Co32 O48 2.117 . S
Co32 O49 2.020 . S
Co32 O51 2.021 . S
Co32 O56 2.062 . S
C33 N35 1.316 . S
C33 N36 1.347 . S
C33 H38 0.931 . S
C34 N35 1.375 . S
C34 C37 1.350 . S
C34 H39 0.930 . S
N35 Co30 2.057 . S
N35 C33 1.316 . S
N35 C34 1.375 . S
N36 C33 1.347 . S
N36 C37 1.373 . S
C37 C34 1.350 . S
C37 N36 1.373 . S
C37 H58 0.931 . S
H38 C33 0.931 . S
H39 C34 0.930 . S
C40 O47 1.259 . S
C40 O48 1.258 . S
N41 Co32 2.057 . S
N41 C42 1.316 . S
N41 C43 1.375 . S
C42 N41 1.316 . S
C42 N44 1.347 . S
C42 H53 0.931 . S
C43 N41 1.375 . S
C43 C45 1.350 . S
C43 H52 0.930 . S
N44 C42 1.347 . S
N44 C45 1.373 . S
C45 C43 1.350 . S
C45 N44 1.373 . S
C45 H59 0.931 . S
C46 O49 1.256 . S
C46 O50 1.255 . S
O47 Co30 2.021 . S
O47 C40 1.259 . S
O48 Co32 2.117 . S
O48 C40 1.258 . S
O49 Co32 2.020 . S
O49 C46 1.256 . S
O50 Co30 2.062 . S
O50 C46 1.255 . S
O51 C31 1.259 . S
O51 Co32 2.021 . S
H52 C43 0.930 . S
H53 C42 0.931 . S
O54 Co30 2.117 . S
O54 C31 1.258 . S
O55 Co30 2.020 . S
O55 C57 1.256 . S
O56 Co32 2.062 . S
O56 C57 1.255 . S
C57 O55 1.256 . S
C57 O56 1.255 . S
H58 C37 0.931 . S
H59 C45 0.931 . S
H60 C63 0.929 . S
H61 C66 0.929 1_655 S
H62 C68 0.930 . S
C63 H60 0.929 . S
C63 C64 1.398 . S
C63 C65 1.396 . S
C64 C63 1.398 . S
C64 C68 1.407 . S
C65 C63 1.396 . S
C65 C66 1.394 1_565 S
C66 H61 0.929 1_455 S
C66 C65 1.394 1_545 S
C66 C67 1.382 . S
C67 C66 1.382 . S
C67 C68 1.392 1_545 S
C67 N69 1.420 1_455 S
C68 H62 0.930 . S
C68 C64 1.407 . S
C68 C67 1.392 1_565 S
N69 C67 1.420 1_655 S
N69 C70 1.244 . S
C70 N69 1.244 . S
H71 C74 0.929 . S
H72 C77 0.929 . S
H73 C79 0.930 . S
C74 H71 0.929 . S
C74 C75 1.398 . S
C74 C76 1.396 . S
C75 C74 1.398 . S
C75 C79 1.407 . S
C76 C74 1.396 . S
C76 C77 1.394 1_665 S
C77 H72 0.929 . S
C77 C76 1.394 1_445 S
C77 C78 1.382 . S
C78 C77 1.382 . S
C78 C79 1.392 1_445 S
C78 N80 1.420 . S
C79 H73 0.930 . S
C79 C75 1.407 . S
C79 C78 1.392 1_665 S
N80 C78 1.420 . S
N80 C81 1.244 . S
C81 N80 1.244 . S
H82 C85 0.929 . S
H83 C88 0.929 . S
H84 C90 0.930 1_554 S
C85 H82 0.929 . S
C85 C86 1.398 . S
C85 C87 1.396 . S
C86 C85 1.398 . S
C86 C90 1.407 . S
C87 C85 1.396 . S
C87 C88 1.394 . S
C88 H83 0.929 . S
C88 C87 1.394 . S
C88 C89 1.382 . S
C89 C88 1.382 . S
C89 C90 1.392 . S
C89 N91 1.420 . S
C90 H84 0.930 1_556 S
C90 C86 1.407 . S
C90 C89 1.392 . S
N91 C89 1.420 . S
N91 C92 1.244 . S
C92 N91 1.244 . S
H93 C96 0.929 . S
H94 C99 0.929 . S
H95 C101 0.930 1_556 S
C96 H93 0.929 . S
C96 C97 1.398 . S
C96 C98 1.396 . S
C97 C96 1.398 . S
C97 C101 1.407 . S
C98 C96 1.396 . S
C98 C99 1.394 . S
C99 H94 0.929 . S
C99 C98 1.394 . S
C99 C100 1.382 . S
C100 C99 1.382 . S
C100 C101 1.392 . S
C100 N102 1.420 . S
C101 H95 0.930 1_554 S
C101 C97 1.407 . S
C101 C100 1.392 . S
N102 C100 1.420 . S
N102 C103 1.244 . S
C103 N102 1.244 . S
C104 C105 1.387 . S
C104 H108 0.950 . S
C104 C113 1.390 . S
C105 C104 1.387 . S
C105 C107 1.387 1_554 S
H106 C113 0.950 . S
C107 C105 1.387 1_556 S
C107 C109 1.390 . S
C107 H111 0.950 . S
H108 C104 0.950 . S
C109 C107 1.390 . S
C109 C110 1.387 1_556 S
C109 H112 0.950 . S
C110 C109 1.387 1_554 S
C110 C113 1.387 . S
H111 C107 0.950 . S
H112 C109 0.950 . S
C113 C104 1.390 . S
C113 H106 0.950 . S
C113 C110 1.387 . S
C114 C115 1.387 . S
C114 H118 0.950 . S
C114 C123 1.390 . S
C115 C114 1.387 . S
C115 C117 1.387 1_554 S
H116 C123 0.950 . S
C117 C115 1.387 1_556 S
C117 C119 1.390 . S
C117 H121 0.950 . S
H118 C114 0.950 . S
C119 C117 1.390 . S
C119 C120 1.387 1_556 S
C119 H122 0.950 . S
C120 C119 1.387 1_554 S
C120 C123 1.387 . S
H121 C117 0.950 . S
H122 C119 0.950 . S
C123 C114 1.390 . S
C123 H116 0.950 . S
C123 C120 1.387 . S
C124 C125 1.401 . S
C124 H128 0.950 . S
C124 C133 1.390 . S
C125 C124 1.401 . S
C125 C127 1.377 1_554 S
H126 C133 0.950 . S
C127 C125 1.377 1_556 S
C127 C129 1.390 . S
C127 H131 0.950 . S
H128 C124 0.950 . S
C129 C127 1.390 . S
C129 C130 1.387 1_556 S
C129 H132 0.950 . S
C130 C129 1.387 1_554 S
C130 C133 1.387 . S
H131 C127 0.950 . S
H132 C129 0.950 . S
C133 C124 1.390 . S
C133 H126 0.950 . S
C133 C130 1.387 . S
C134 C135 1.387 1_554 S
C134 H138 0.950 . S
C134 C143 1.390 . S
C135 C134 1.387 1_556 S
C135 C137 1.387 . S
H136 C143 0.950 . S
C137 C135 1.387 . S
C137 C139 1.390 . S
C137 H141 0.950 . S
H138 C134 0.950 . S
C139 C137 1.390 . S
C139 C140 1.387 . S
C139 H142 0.950 . S
C140 C139 1.387 . S
C140 C143 1.387 1_556 S
H141 C137 0.950 . S
H142 C139 0.950 . S
C143 C134 1.390 . S
C143 H136 0.950 . S
C143 C140 1.387 1_554 S
C144 C145 1.387 . S
C144 H148 0.950 . S
C144 C153 1.390 . S
C145 C144 1.387 . S
C145 C147 1.387 . S
H146 C153 0.950 . S
C147 C145 1.387 . S
C147 C149 1.390 . S
C147 H151 0.950 . S
H148 C144 0.950 . S
C149 C147 1.390 . S
C149 C150 1.387 . S
C149 H152 0.950 . S
C150 C149 1.387 . S
C150 C153 1.387 . S
H151 C147 0.950 . S
H152 C149 0.950 . S
C153 C144 1.390 . S
C153 H146 0.950 . S
C153 C150 1.387 . S
C154 C155 1.387 . S
C154 H158 0.950 . S
C154 C163 1.390 . S
C155 C154 1.387 . S
C155 C157 1.387 . S
H156 C163 0.950 . S
C157 C155 1.387 . S
C157 C159 1.390 . S
C157 H161 0.950 . S
H158 C154 0.950 . S
C159 C157 1.390 . S
C159 C160 1.387 . S
C159 H162 0.950 . S
C160 C159 1.387 . S
C160 C163 1.387 . S
H161 C157 0.950 . S
H162 C159 0.950 . S
C163 C154 1.390 . S
C163 H156 0.950 . S
C163 C160 1.387 . S
C164 C165 1.387 . S
C164 H168 0.950 . S
C164 C173 1.390 . S
C165 C164 1.387 . S
C165 C167 1.387 . S
H166 C173 0.950 . S
C167 C165 1.387 . S
C167 C169 1.390 . S
C167 H171 0.950 . S
H168 C164 0.950 . S
C169 C167 1.390 . S
C169 C170 1.387 . S
C169 H172 0.950 . S
C170 C169 1.387 . S
C170 C173 1.387 . S
H171 C167 0.950 . S
H172 C169 0.950 . S
C173 C164 1.390 . S
C173 H166 0.950 . S
C173 C170 1.387 . S
C174 C175 1.387 . S
C174 H178 0.950 . S
C174 C183 1.390 . S
C175 C174 1.387 . S
C175 C177 1.387 . S
H176 C183 0.950 . S
C177 C175 1.387 . S
C177 C179 1.390 . S
C177 H181 0.950 . S
H178 C174 0.950 . S
C179 C177 1.390 . S
C179 C180 1.387 . S
C179 H182 0.950 . S
C180 C179 1.387 . S
C180 C183 1.387 . S
H181 C177 0.950 . S
H182 C179 0.950 . S
C183 C174 1.390 . S
C183 H176 0.950 . S
C183 C180 1.387 . S
C184 C185 1.374 1_565 S
C184 H188 0.950 . S
C184 C193 1.390 . S
C185 C184 1.374 1_545 S
C185 C187 1.400 . S
H186 C193 0.950 . S
C187 C185 1.400 . S
C187 C189 1.390 . S
C187 H191 0.950 . S
H188 C184 0.950 . S
C189 C187 1.390 . S
C189 C190 1.387 1_545 S
C189 H192 0.950 . S
C190 C189 1.387 1_565 S
C190 C193 1.387 . S
H191 C187 0.950 . S
H192 C189 0.950 . S
C193 C184 1.390 . S
C193 H186 0.950 . S
C193 C190 1.387 . S
C194 C195 1.387 1_455 S
C194 H198 0.950 . S
C194 C203 1.390 1_455 S
C195 C194 1.387 1_655 S
C195 C197 1.387 1_545 S
H196 C203 0.950 1_455 S
C197 C195 1.387 1_565 S
C197 C199 1.390 . S
C197 H201 0.950 . S
H198 C194 0.950 . S
C199 C197 1.390 . S
C199 C200 1.387 . S
C199 H202 0.950 . S
C200 C199 1.387 . S
C200 C203 1.387 1_565 S
H201 C197 0.950 . S
H202 C199 0.950 . S
C203 C194 1.390 1_655 S
C203 H196 0.950 1_655 S
C203 C200 1.387 1_545 S
C204 C205 1.387 . S
C204 H208 0.950 . S
C204 C213 1.390 . S
C205 C204 1.387 . S
C205 C207 1.387 . S
H206 C213 0.950 . S
C207 C205 1.387 . S
C207 C209 1.390 . S
C207 H211 0.950 . S
H208 C204 0.950 . S
C209 C207 1.390 . S
C209 C210 1.387 . S
C209 H212 0.950 . S
C210 C209 1.387 . S
C210 C213 1.387 . S
H211 C207 0.950 . S
H212 C209 0.950 . S
C213 C204 1.390 . S
C213 H206 0.950 . S
C213 C210 1.387 . S
C214 C215 1.387 . S
C214 H218 0.950 . S
C214 C223 1.390 . S
C215 C214 1.387 . S
C215 C217 1.387 . S
H216 C223 0.950 . S
C217 C215 1.387 . S
C217 C219 1.390 . S
C217 H221 0.950 . S
H218 C214 0.950 . S
C219 C217 1.390 . S
C219 C220 1.387 . S
C219 H222 0.950 . S
C220 C219 1.387 . S
C220 C223 1.387 . S
H221 C217 0.950 . S
H222 C219 0.950 . S
C223 C214 1.390 . S
C223 H216 0.950 . S
C223 C220 1.387 . S
C110 C97 1.470 . S
C105 C27 1.502 . S
C115 N6 1.401 . S
C120 C92 1.431 1_554 S
C125 C16 1.476 . S
C130 C103 1.434 . S
C135 N14 1.451 1_556 S
C140 C86 1.448 . S
C145 C57 1.503 . S
C150 C75 1.471 . S
C155 N36 1.401 . S
C160 C70 1.431 . S
C170 C81 1.434 . S
C165 C46 1.478 . S
C180 C64 1.448 . S
C175 N44 1.452 . S
C185 C10 1.475 . S
C190 C65 1.475 . S
C195 C1 1.547 . S
C200 C76 1.545 . S
C210 C87 1.475 . S
C205 C40 1.475 . S
C215 C31 1.548 . S
C220 C98 1.545 . S
