# Generated by pormake.
# Topology ssa, (4,4)-cn, num edge types: 1
# Building blocks:
#     Node 0, Type 0, BuildingBlock: IZENUY_clean_linker_0, # of connection points: 4
#     Node 1, Type 0, BuildingBlock: IZENUY_clean_linker_0, # of connection points: 4
#     Node 2, Type 0, BuildingBlock: IZENUY_clean_linker_0, # of connection points: 4
#     Node 3, Type 0, BuildingBlock: IZENUY_clean_linker_0, # of connection points: 4
#     Node 4, Type 0, BuildingBlock: IZENUY_clean_linker_0, # of connection points: 4
#     Node 5, Type 0, BuildingBlock: IZENUY_clean_linker_0, # of connection points: 4
#     Node 6, Type 1, BuildingBlock: MUDLON_clean_sbu_0, # of connection points: 4
#     Node 7, Type 1, BuildingBlock: MUDLON_clean_sbu_0, # of connection points: 4
#     Node 8, Type 1, BuildingBlock: MUDLON_clean_sbu_0, # of connection points: 4
#     Node 9, Type 1, BuildingBlock: MUDLON_clean_sbu_0, # of connection points: 4
#     Node 10, Type 1, BuildingBlock: MUDLON_clean_sbu_0, # of connection points: 4
#     Node 11, Type 1, BuildingBlock: MUDLON_clean_sbu_0, # of connection points: 4
#     Edge 12, Type (0, 1), None
#     Edge 13, Type (0, 1), None
#     Edge 14, Type (0, 1), None
#     Edge 15, Type (0, 1), None
#     Edge 16, Type (0, 1), None
#     Edge 17, Type (0, 1), None
#     Edge 18, Type (0, 1), None
#     Edge 19, Type (0, 1), None
#     Edge 20, Type (0, 1), None
#     Edge 21, Type (0, 1), None
#     Edge 22, Type (0, 1), None
#     Edge 23, Type (0, 1), None
#     Edge 24, Type (0, 1), None
#     Edge 25, Type (0, 1), None
#     Edge 26, Type (0, 1), None
#     Edge 27, Type (0, 1), None
#     Edge 28, Type (0, 1), None
#     Edge 29, Type (0, 1), None
#     Edge 30, Type (0, 1), None
#     Edge 31, Type (0, 1), None
#     Edge 32, Type (0, 1), None
#     Edge 33, Type (0, 1), None
#     Edge 34, Type (0, 1), None
#     Edge 35, Type (0, 1), None
# Relax obj value: 0.001
# Max RMSD: 0.033
# Mean RMSD: 0.019
data_MOF--net-ssa--node1-MUDLON_clean_sbu_0--node2-IZENUY_clean_linker_0--edge1-none
_symmetry_space_group_name_H-M    P1
_symmetry_Int_Tables_number       1
_symmetry_cell_setting            triclinic
loop_
_symmetry_equiv_pos_as_xyz
'x, y, z'
_cell_length_a     23.629259
_cell_length_b     23.326999
_cell_length_c     22.348148
_cell_angle_alpha  91.296682
_cell_angle_beta   91.198056
_cell_angle_gamma 121.53199
loop_
_atom_site_label
_atom_site_type_symbol
_atom_site_fract_x
_atom_site_fract_y
_atom_site_fract_z
_atom_type_partial_charge
H0 H 0.96786 0.40407 0.92563 0.0
H1 H 0.94664 0.57711 0.9215 0.0
H2 H 0.84142 0.41404 0.79138 0.0
H3 H 0.06199 0.61644 0.06517 0.0
H4 H 0.0814 0.44361 0.07537 0.0
H5 H 0.17084 0.60036 0.21374 0.0
N6 N 0.0049 0.52534 0.98143 0.0
N7 N 0.02861 0.49708 1.01028 0.0
C8 C 0.94766 0.43147 0.90497 0.0
C9 C 0.90391 0.40276 0.85468 0.0
C10 C 0.96387 0.49534 0.92884 0.0
C11 C 0.93578 0.52921 0.90215 0.0
C12 C 0.89067 0.4994 0.85321 0.0
C13 C 0.8762 0.43713 0.82936 0.0
C14 C 0.08113 0.58931 0.08813 0.0
C15 C 0.11828 0.61626 0.14239 0.0
C16 C 0.06789 0.52685 0.0639 0.0
C17 C 0.09222 0.49173 0.09411 0.0
C18 C 0.12954 0.51784 0.14818 0.0
C19 C 0.14239 0.58014 0.17181 0.0
H20 H 0.61711 0.04697 0.58092 0.0
H21 H 0.47473 0.10697 0.59628 0.0
H22 H 0.64804 0.19713 0.71391 0.0
H23 H 0.39633 0.96517 0.46446 0.0
H24 H 0.5548 0.92873 0.43385 0.0
H25 H 0.37423 0.82259 0.32647 0.0
N26 N 0.50266 0.02992 0.53341 0.0
N27 N 0.52025 0.99665 0.50327 0.0
C28 C 0.60169 0.07833 0.60258 0.0
C29 C 0.63983 0.12167 0.65168 0.0
C30 C 0.54276 0.07407 0.58196 0.0
C31 C 0.52121 0.11227 0.61132 0.0
C32 C 0.55827 0.156 0.66 0.0
C33 C 0.61868 0.16214 0.67822 0.0
C34 C 0.41591 0.93902 0.44012 0.0
C35 C 0.37735 0.89249 0.39315 0.0
C36 C 0.48005 0.9516 0.45531 0.0
C37 C 0.50539 0.91842 0.42266 0.0
C38 C 0.46695 0.87154 0.37646 0.0
C39 C 0.40324 0.85848 0.36274 0.0
H40 H 0.51633 0.39737 1.00607 0.0
H41 H 0.6821 0.6006 0.99909 0.0
H42 H 0.6723 0.44527 0.88423 0.0
H43 H 0.57579 0.61989 0.11075 0.0
H44 H 0.39552 0.42637 0.12148 0.0
H45 H 0.41659 0.6016 0.21339 0.0
N46 N 0.57026 0.52551 0.05127 0.0
N47 N 0.51355 0.4903 0.07125 0.0
C48 C 0.56434 0.4332 0.98893 0.0
C49 C 0.5913 0.4126 0.94371 0.0
C50 C 0.59801 0.50098 1.00975 0.0
C51 C 0.65828 0.54801 0.98492 0.0
C52 C 0.68472 0.52854 0.93879 0.0
C53 C 0.65236 0.46033 0.9204 0.0
C54 C 0.52603 0.58879 0.12676 0.0
C55 C 0.50029 0.61853 0.16322 0.0
C56 C 0.4881 0.51964 0.11061 0.0
C57 C 0.42418 0.4798 0.13303 0.0
C58 C 0.39758 0.50893 0.17023 0.0
C59 C 0.43575 0.57867 0.18392 0.0
H60 H 0.02544 0.45103 0.45319 0.0
H61 H 0.05274 0.6482 0.43537 0.0
H62 H 0.17182 0.59238 0.33725 0.0
H63 H 0.93252 0.57384 0.57144 0.0
H64 H 0.87839 0.3668 0.56934 0.0
H65 H 0.78953 0.4375 0.69333 0.0
N66 N 0.98573 0.53603 0.4931 0.0
N67 N 0.9536 0.4811 0.51779 0.0
C68 C 0.0505 0.50005 0.43372 0.0
C69 C 0.10157 0.51646 0.39367 0.0
C70 C 0.03327 0.54819 0.44944 0.0
C71 C 0.06585 0.61143 0.42337 0.0
C72 C 0.11653 0.62776 0.38351 0.0
C73 C 0.13375 0.5802 0.36939 0.0
C74 C 0.90254 0.52354 0.5878 0.0
C75 C 0.85969 0.51199 0.63487 0.0
C76 C 0.90821 0.47052 0.56324 0.0
C77 C 0.87165 0.40645 0.58687 0.0
C78 C 0.82899 0.39419 0.6342 0.0
C79 C 0.8218 0.44667 0.65639 0.0
H80 H 0.40638 0.07119 0.97094 0.0
H81 H 0.60469 0.1094 0.96881 0.0
H82 H 0.53903 0.1942 0.83708 0.0
H83 H 0.53298 0.98387 0.09076 0.0
H84 H 0.33138 0.93676 0.109 0.0
H85 H 0.4059 0.83508 0.21219 0.0
N86 N 0.49458 0.04377 0.02364 0.0
N87 N 0.44066 0.01065 0.04872 0.0
C88 C 0.45478 0.09599 0.95144 0.0
C89 C 0.46695 0.13605 0.90109 0.0
C90 C 0.50498 0.0869 0.97586 0.0
C91 C 0.56703 0.11787 0.95023 0.0
C92 C 0.57974 0.15654 0.89974 0.0
C93 C 0.52967 0.16578 0.87613 0.0
C94 C 0.48522 0.95563 0.11116 0.0
C95 C 0.47538 0.90791 0.15339 0.0
C96 C 0.43298 0.96585 0.09444 0.0
C97 C 0.37139 0.92908 0.12167 0.0
C98 C 0.3612 0.88125 0.16383 0.0
C99 C 0.41328 0.87117 0.17887 0.0
H100 H 0.41009 0.48305 0.46922 0.0
H101 H 0.59374 0.67332 0.45908 0.0
H102 H 0.42938 0.62219 0.33681 0.0
H103 H 0.62458 0.5937 0.59815 0.0
H104 H 0.45153 0.39348 0.60189 0.0
H105 H 0.61009 0.46146 0.73511 0.0
N106 N 0.53387 0.56263 0.51938 0.0
N107 N 0.50413 0.50797 0.54496 0.0
C108 C 0.43962 0.53105 0.44854 0.0
C109 C 0.41189 0.5476 0.40092 0.0
C110 C 0.5051 0.57687 0.46998 0.0
C111 C 0.54317 0.63871 0.44261 0.0
C112 C 0.51652 0.65558 0.39419 0.0
C113 C 0.45048 0.60994 0.37431 0.0
C114 C 0.59673 0.54559 0.619 0.0
C115 C 0.62432 0.5336 0.66961 0.0
C116 C 0.53356 0.49567 0.59522 0.0
C117 C 0.49913 0.43251 0.62138 0.0
C118 C 0.52625 0.41981 0.67229 0.0
C119 C 0.588 0.47138 0.6968 0.0
Mg120 Mg 0.22624 0.45981 0.28831 0.0
C121 C 0.15391 0.47994 0.18105 0.0
O122 O 0.13706 0.41885 0.16296 0.0
C123 C 0.3439 0.49942 0.37665 0.0
O124 O 0.31738 0.43432 0.38149 0.0
C125 C 0.12204 0.46894 0.37361 0.0
O126 O 0.0787 0.40395 0.36841 0.0
O127 O 0.17851 0.49397 0.34994 0.0
O128 O 0.18979 0.50607 0.22858 0.0
O129 O 0.3075 0.49677 0.22627 0.0
C130 C 0.33237 0.46736 0.19838 0.0
O131 O 0.30446 0.40185 0.20093 0.0
O132 O 0.31406 0.52096 0.34512 0.0
Mg133 Mg 0.74294 0.24217 0.77238 0.0
C134 C 0.69848 0.1202 0.67621 0.0
O135 O 0.71091 0.07567 0.65338 0.0
C136 C 0.88081 0.33504 0.82911 0.0
O137 O 0.90036 0.33218 0.77516 0.0
C138 C 0.64364 0.18353 0.86971 0.0
O139 O 0.69067 0.17558 0.89259 0.0
O140 O 0.65219 0.21094 0.81959 0.0
O141 O 0.73654 0.15859 0.71976 0.0
O142 O 0.76458 0.3217 0.71144 0.0
C143 C 0.7983 0.32969 0.6653 0.0
O144 O 0.81435 0.28505 0.65159 0.0
O145 O 0.82213 0.28997 0.84202 0.0
Mg146 Mg 0.57107 0.81387 0.25668 0.0
C147 C 0.52875 0.89597 0.17318 0.0
O148 O 0.59151 0.94032 0.16441 0.0
C149 C 0.55697 0.71948 0.36296 0.0
O150 O 0.61873 0.7633 0.38047 0.0
C151 C 0.49224 0.83697 0.33997 0.0
O152 O 0.44976 0.78088 0.30991 0.0
O153 O 0.55364 0.86494 0.32965 0.0
O154 O 0.51313 0.84488 0.2042 0.0
O155 O 0.51586 0.72146 0.20291 0.0
C156 C 0.54254 0.68988 0.18361 0.0
O157 O 0.60725 0.71795 0.18987 0.0
O158 O 0.53149 0.73077 0.31755 0.0
Mg159 Mg 0.81104 0.61446 0.77884 0.0
C160 C 0.69316 0.58263 0.69149 0.0
O161 O 0.73775 0.62369 0.65456 0.0
C162 C 0.85301 0.52826 0.82898 0.0
O163 O 0.79285 0.48705 0.80595 0.0
C164 C 0.74002 0.5791 0.90354 0.0
O165 O 0.77689 0.64234 0.92242 0.0
O166 O 0.74666 0.56141 0.8513 0.0
O167 O 0.71142 0.57631 0.74345 0.0
O168 O 0.81521 0.55396 0.70528 0.0
C169 C 0.85899 0.56815 0.66671 0.0
O170 O 0.90891 0.63047 0.66339 0.0
O171 O 0.87759 0.59145 0.82697 0.0
Mg172 Mg 0.19061 0.79574 0.27199 0.0
C173 C 0.1315 0.68127 0.16929 0.0
O174 O 0.11131 0.71695 0.14176 0.0
C175 C 0.31098 0.87889 0.37296 0.0
O176 O 0.28399 0.90988 0.39813 0.0
C177 C 0.15407 0.69347 0.35535 0.0
O178 O 0.21217 0.71066 0.33444 0.0
O179 O 0.12817 0.72756 0.34055 0.0
O180 O 0.16269 0.70255 0.21978 0.0
O181 O 0.25648 0.85881 0.20233 0.0
C182 C 0.2977 0.83998 0.19374 0.0
O183 O 0.28831 0.7863 0.22053 0.0
O184 O 0.28163 0.83771 0.32852 0.0
Mg185 Mg 0.51513 0.26725 0.7969 0.0
C186 C 0.53108 0.1909 0.69424 0.0
O187 O 0.47 0.17609 0.68283 0.0
C188 C 0.55112 0.34575 0.91253 0.0
O189 O 0.48601 0.31408 0.91324 0.0
C190 C 0.41268 0.14218 0.87255 0.0
O191 O 0.35115 0.10078 0.88762 0.0
O192 O 0.42288 0.18542 0.83314 0.0
O193 O 0.56362 0.23023 0.73878 0.0
O194 O 0.51357 0.3474 0.75016 0.0
C195 C 0.49499 0.35195 0.69756 0.0
O196 O 0.46078 0.29769 0.66262 0.0
O197 O 0.57759 0.32833 0.87266 0.0
loop_
_geom_bond_atom_site_label_1
_geom_bond_atom_site_label_2
_geom_bond_distance
_geom_bond_site_symmetry_2
_ccdc_geom_bond_type
H0 C8 0.940 . S
H1 C11 0.940 . S
H2 C13 0.940 . S
H3 C14 0.940 . S
H4 C17 0.940 . S
H5 C19 0.940 . S
N6 N7 1.190 1_655 S
N6 C10 1.477 1_554 S
N7 N6 1.190 1_455 S
N7 C16 1.477 . S
C8 H0 0.940 . S
C8 C9 1.390 . S
C8 C10 1.322 . S
C9 C8 1.390 . S
C9 C13 1.370 . S
C10 N6 1.477 1_556 S
C10 C8 1.322 . S
C10 C11 1.447 . S
C11 H1 0.940 . S
C11 C10 1.447 . S
C11 C12 1.373 . S
C12 C11 1.373 . S
C12 C13 1.417 . S
C13 H2 0.940 . S
C13 C9 1.370 . S
C13 C12 1.417 . S
C14 H3 0.940 . S
C14 C15 1.390 . S
C14 C16 1.322 . S
C15 C14 1.390 . S
C15 C19 1.370 . S
C16 N7 1.477 . S
C16 C14 1.322 . S
C16 C17 1.447 . S
C17 H4 0.940 . S
C17 C16 1.447 . S
C17 C18 1.373 . S
C18 C17 1.373 . S
C18 C19 1.417 . S
C19 H5 0.940 . S
C19 C15 1.370 . S
C19 C18 1.417 . S
H20 C28 0.940 . S
H21 C31 0.940 . S
H22 C33 0.940 . S
H23 C34 0.940 . S
H24 C37 0.940 . S
H25 C39 0.940 . S
N26 N27 1.190 . S
N26 C30 1.477 . S
N27 N26 1.190 . S
N27 C36 1.477 1_545 S
C28 H20 0.940 . S
C28 C29 1.390 . S
C28 C30 1.322 . S
C29 C28 1.390 . S
C29 C33 1.370 . S
C30 N26 1.477 . S
C30 C28 1.322 . S
C30 C31 1.447 . S
C31 H21 0.940 . S
C31 C30 1.447 . S
C31 C32 1.373 . S
C32 C31 1.373 . S
C32 C33 1.417 . S
C33 H22 0.940 . S
C33 C29 1.370 . S
C33 C32 1.417 . S
C34 H23 0.940 . S
C34 C35 1.390 . S
C34 C36 1.322 . S
C35 C34 1.390 . S
C35 C39 1.370 . S
C36 N27 1.477 1_565 S
C36 C34 1.322 . S
C36 C37 1.447 . S
C37 H24 0.940 . S
C37 C36 1.447 . S
C37 C38 1.373 . S
C38 C37 1.373 . S
C38 C39 1.417 . S
C39 H25 0.940 . S
C39 C35 1.370 . S
C39 C38 1.417 . S
H40 C48 0.940 . S
H41 C51 0.940 . S
H42 C53 0.940 . S
H43 C54 0.940 . S
H44 C57 0.940 . S
H45 C59 0.940 . S
N46 N47 1.190 1_556 S
N46 C50 1.477 . S
N47 N46 1.190 1_554 S
N47 C56 1.477 . S
C48 H40 0.940 . S
C48 C49 1.390 . S
C48 C50 1.322 . S
C49 C48 1.390 . S
C49 C53 1.370 . S
C50 N46 1.477 . S
C50 C48 1.322 . S
C50 C51 1.447 . S
C51 H41 0.940 . S
C51 C50 1.447 . S
C51 C52 1.373 . S
C52 C51 1.373 . S
C52 C53 1.417 . S
C53 H42 0.940 . S
C53 C49 1.370 . S
C53 C52 1.417 . S
C54 H43 0.940 . S
C54 C55 1.390 . S
C54 C56 1.322 . S
C55 C54 1.390 . S
C55 C59 1.370 . S
C56 N47 1.477 . S
C56 C54 1.322 . S
C56 C57 1.447 . S
C57 H44 0.940 . S
C57 C56 1.447 . S
C57 C58 1.373 . S
C58 C57 1.373 . S
C58 C59 1.417 . S
C59 H45 0.940 . S
C59 C55 1.370 . S
C59 C58 1.417 . S
H60 C68 0.940 . S
H61 C71 0.940 . S
H62 C73 0.940 . S
H63 C74 0.940 . S
H64 C77 0.940 . S
H65 C79 0.940 . S
N66 N67 1.190 . S
N66 C70 1.477 1_655 S
N67 N66 1.190 . S
N67 C76 1.477 . S
C68 H60 0.940 . S
C68 C69 1.390 . S
C68 C70 1.322 . S
C69 C68 1.390 . S
C69 C73 1.370 . S
C70 N66 1.477 1_455 S
C70 C68 1.322 . S
C70 C71 1.447 . S
C71 H61 0.940 . S
C71 C70 1.447 . S
C71 C72 1.373 . S
C72 C71 1.373 . S
C72 C73 1.417 . S
C73 H62 0.940 . S
C73 C69 1.370 . S
C73 C72 1.417 . S
C74 H63 0.940 . S
C74 C75 1.390 . S
C74 C76 1.322 . S
C75 C74 1.390 . S
C75 C79 1.370 . S
C76 N67 1.477 . S
C76 C74 1.322 . S
C76 C77 1.447 . S
C77 H64 0.940 . S
C77 C76 1.447 . S
C77 C78 1.373 . S
C78 C77 1.373 . S
C78 C79 1.417 . S
C79 H65 0.940 . S
C79 C75 1.370 . S
C79 C78 1.417 . S
H80 C88 0.940 . S
H81 C91 0.940 . S
H82 C93 0.940 . S
H83 C94 0.940 . S
H84 C97 0.940 . S
H85 C99 0.940 . S
N86 N87 1.190 . S
N86 C90 1.477 1_554 S
N87 N86 1.190 . S
N87 C96 1.477 1_545 S
C88 H80 0.940 . S
C88 C89 1.390 . S
C88 C90 1.322 . S
C89 C88 1.390 . S
C89 C93 1.370 . S
C90 N86 1.477 1_556 S
C90 C88 1.322 . S
C90 C91 1.447 . S
C91 H81 0.940 . S
C91 C90 1.447 . S
C91 C92 1.373 . S
C92 C91 1.373 . S
C92 C93 1.417 . S
C93 H82 0.940 . S
C93 C89 1.370 . S
C93 C92 1.417 . S
C94 H83 0.940 . S
C94 C95 1.390 . S
C94 C96 1.322 . S
C95 C94 1.390 . S
C95 C99 1.370 . S
C96 N87 1.477 1_565 S
C96 C94 1.322 . S
C96 C97 1.447 . S
C97 H84 0.940 . S
C97 C96 1.447 . S
C97 C98 1.373 . S
C98 C97 1.373 . S
C98 C99 1.417 . S
C99 H85 0.940 . S
C99 C95 1.370 . S
C99 C98 1.417 . S
H100 C108 0.940 . S
H101 C111 0.940 . S
H102 C113 0.940 . S
H103 C114 0.940 . S
H104 C117 0.940 . S
H105 C119 0.940 . S
N106 N107 1.190 . S
N106 C110 1.477 . S
N107 N106 1.190 . S
N107 C116 1.477 . S
C108 H100 0.940 . S
C108 C109 1.390 . S
C108 C110 1.322 . S
C109 C108 1.390 . S
C109 C113 1.370 . S
C110 N106 1.477 . S
C110 C108 1.322 . S
C110 C111 1.447 . S
C111 H101 0.940 . S
C111 C110 1.447 . S
C111 C112 1.373 . S
C112 C111 1.373 . S
C112 C113 1.417 . S
C113 H102 0.940 . S
C113 C109 1.370 . S
C113 C112 1.417 . S
C114 H103 0.940 . S
C114 C115 1.390 . S
C114 C116 1.322 . S
C115 C114 1.390 . S
C115 C119 1.370 . S
C116 N107 1.477 . S
C116 C114 1.322 . S
C116 C117 1.447 . S
C117 H104 0.940 . S
C117 C116 1.447 . S
C117 C118 1.373 . S
C118 C117 1.373 . S
C118 C119 1.417 . S
C119 H105 0.940 . S
C119 C115 1.370 . S
C119 C118 1.417 . S
Mg120 O127 2.141 . S
Mg120 O128 2.048 . S
Mg120 O129 2.048 . S
Mg120 O132 2.141 . S
C121 O122 1.313 . S
C121 O128 1.195 . S
O122 C121 1.313 . S
C123 O124 1.245 . S
C123 O132 1.289 . S
O124 C123 1.245 . S
C125 O126 1.245 . S
C125 O127 1.289 . S
O126 C125 1.245 . S
O127 Mg120 2.141 . S
O127 C125 1.289 . S
O128 Mg120 2.048 . S
O128 C121 1.195 . S
O129 Mg120 2.048 . S
O129 C130 1.195 . S
C130 O129 1.195 . S
C130 O131 1.313 . S
O131 C130 1.313 . S
O132 Mg120 2.141 . S
O132 C123 1.289 . S
Mg133 O140 2.141 . S
Mg133 O141 2.048 . S
Mg133 O142 2.048 . S
Mg133 O145 2.141 . S
C134 O135 1.313 . S
C134 O141 1.195 . S
O135 C134 1.313 . S
C136 O137 1.245 . S
C136 O145 1.289 . S
O137 C136 1.245 . S
C138 O139 1.245 . S
C138 O140 1.289 . S
O139 C138 1.245 . S
O140 Mg133 2.141 . S
O140 C138 1.289 . S
O141 Mg133 2.048 . S
O141 C134 1.195 . S
O142 Mg133 2.048 . S
O142 C143 1.195 . S
C143 O142 1.195 . S
C143 O144 1.313 . S
O144 C143 1.313 . S
O145 Mg133 2.141 . S
O145 C136 1.289 . S
Mg146 O153 2.141 . S
Mg146 O154 2.048 . S
Mg146 O155 2.048 . S
Mg146 O158 2.141 . S
C147 O148 1.313 . S
C147 O154 1.195 . S
O148 C147 1.313 . S
C149 O150 1.245 . S
C149 O158 1.289 . S
O150 C149 1.245 . S
C151 O152 1.245 . S
C151 O153 1.289 . S
O152 C151 1.245 . S
O153 Mg146 2.141 . S
O153 C151 1.289 . S
O154 Mg146 2.048 . S
O154 C147 1.195 . S
O155 Mg146 2.048 . S
O155 C156 1.195 . S
C156 O155 1.195 . S
C156 O157 1.313 . S
O157 C156 1.313 . S
O158 Mg146 2.141 . S
O158 C149 1.289 . S
Mg159 O166 2.141 . S
Mg159 O167 2.048 . S
Mg159 O168 2.048 . S
Mg159 O171 2.141 . S
C160 O161 1.313 . S
C160 O167 1.195 . S
O161 C160 1.313 . S
C162 O163 1.245 . S
C162 O171 1.289 . S
O163 C162 1.245 . S
C164 O165 1.245 . S
C164 O166 1.289 . S
O165 C164 1.245 . S
O166 Mg159 2.141 . S
O166 C164 1.289 . S
O167 Mg159 2.048 . S
O167 C160 1.195 . S
O168 Mg159 2.048 . S
O168 C169 1.195 . S
C169 O168 1.195 . S
C169 O170 1.313 . S
O170 C169 1.313 . S
O171 Mg159 2.141 . S
O171 C162 1.289 . S
Mg172 O179 2.141 . S
Mg172 O180 2.048 . S
Mg172 O181 2.048 . S
Mg172 O184 2.141 . S
C173 O174 1.313 . S
C173 O180 1.195 . S
O174 C173 1.313 . S
C175 O176 1.245 . S
C175 O184 1.289 . S
O176 C175 1.245 . S
C177 O178 1.245 . S
C177 O179 1.289 . S
O178 C177 1.245 . S
O179 Mg172 2.141 . S
O179 C177 1.289 . S
O180 Mg172 2.048 . S
O180 C173 1.195 . S
O181 Mg172 2.048 . S
O181 C182 1.195 . S
C182 O181 1.195 . S
C182 O183 1.313 . S
O183 C182 1.313 . S
O184 Mg172 2.141 . S
O184 C175 1.289 . S
Mg185 O192 2.141 . S
Mg185 O193 2.048 . S
Mg185 O194 2.048 . S
Mg185 O197 2.141 . S
C186 O187 1.313 . S
C186 O193 1.195 . S
O187 C186 1.313 . S
C188 O189 1.245 . S
C188 O197 1.289 . S
O189 C188 1.245 . S
C190 O191 1.245 . S
C190 O192 1.289 . S
O191 C190 1.245 . S
O192 Mg185 2.141 . S
O192 C190 1.289 . S
O193 Mg185 2.048 . S
O193 C186 1.195 . S
O194 Mg185 2.048 . S
O194 C195 1.195 . S
C195 O194 1.195 . S
C195 O196 1.313 . S
O196 C195 1.313 . S
O197 Mg185 2.141 . S
O197 C188 1.289 . S
C18 C121 1.484 . S
C29 C134 1.621 . S
C156 C55 1.407 . S
C169 C75 1.520 . S
C182 C98 1.398 . S
C195 C118 1.476 . S
C38 C151 1.339 . S
C52 C164 1.454 . S
C177 C72 1.375 . S
C190 C89 1.479 . S
C109 C123 1.526 . S
C136 C9 1.608 . S
C162 C12 1.325 . S
C35 C175 1.437 . S
C188 C49 1.351 . S
C69 C125 1.632 . S
C92 C138 1.517 . S
C112 C149 1.441 . S
C32 C186 1.390 . S
C130 C58 1.625 . S
C78 C143 1.548 . S
C95 C147 1.520 . S
C115 C160 1.409 . S
C15 C173 1.492 . S
