# Generated by pormake.
# Topology anh, (6,3)-cn, num edge types: 1
# Building blocks:
#     Node 0, Type 0, BuildingBlock: BETDAH_clean_sbu_0, # of connection points: 6
#     Node 1, Type 0, BuildingBlock: BETDAH_clean_sbu_0, # of connection points: 6
#     Node 2, Type 0, BuildingBlock: BETDAH_clean_sbu_0, # of connection points: 6
#     Node 3, Type 1, BuildingBlock: ESEHIV_clean_linker_0, # of connection points: 3
#     Node 4, Type 1, BuildingBlock: ESEHIV_clean_linker_0, # of connection points: 3
#     Node 5, Type 1, BuildingBlock: ESEHIV_clean_linker_0, # of connection points: 3
#     Node 6, Type 1, BuildingBlock: ESEHIV_clean_linker_0, # of connection points: 3
#     Node 7, Type 1, BuildingBlock: ESEHIV_clean_linker_0, # of connection points: 3
#     Node 8, Type 1, BuildingBlock: ESEHIV_clean_linker_0, # of connection points: 3
#     Edge 9, Type (0, 1), None
#     Edge 10, Type (0, 1), None
#     Edge 11, Type (0, 1), None
#     Edge 12, Type (0, 1), None
#     Edge 13, Type (0, 1), None
#     Edge 14, Type (0, 1), None
#     Edge 15, Type (0, 1), None
#     Edge 16, Type (0, 1), None
#     Edge 17, Type (0, 1), None
#     Edge 18, Type (0, 1), None
#     Edge 19, Type (0, 1), None
#     Edge 20, Type (0, 1), None
#     Edge 21, Type (0, 1), None
#     Edge 22, Type (0, 1), None
#     Edge 23, Type (0, 1), None
#     Edge 24, Type (0, 1), None
#     Edge 25, Type (0, 1), None
#     Edge 26, Type (0, 1), None
# Relax obj value: 0.509
# Max RMSD: 0.359
# Mean RMSD: 0.228
data_MOF--net-anh--node1-BETDAH_clean_sbu_0--node2-ESEHIV_clean_linker_0--edge1-none
_symmetry_space_group_name_H-M    P1
_symmetry_Int_Tables_number       1
_symmetry_cell_setting            triclinic
loop_
_symmetry_equiv_pos_as_xyz
'x, y, z'
_cell_length_a     12.12895
_cell_length_b     17.263964
_cell_length_c     22.439259
_cell_angle_alpha  90.115761
_cell_angle_beta   92.264634
_cell_angle_gamma 140.73332
loop_
_atom_site_label
_atom_site_type_symbol
_atom_site_fract_x
_atom_site_fract_y
_atom_site_fract_z
_atom_type_partial_charge
Ho0 Ho 0.41356 0.58265 0.17818 0.0
Ho1 Ho 1.13911 0.52215 0.1613 0.0
C2 C 0.49361 0.80844 0.17716 0.0
C3 C 0.73458 0.71792 0.18821 0.0
C4 C 0.88993 0.85006 0.17868 0.0
C5 C 0.91405 0.89756 0.12287 0.0
C6 C 1.08443 1.00823 0.10852 0.0
C7 C 1.22025 1.04603 0.1436 0.0
C8 C 1.19637 1.03999 0.20531 0.0
C9 C 1.02806 0.93084 0.22314 0.0
C10 C 0.27784 0.54181 0.2826 0.0
C11 C 1.05344 0.29108 0.16923 0.0
C12 C 0.83978 0.41385 0.18535 0.0
C13 C 0.80037 0.45799 0.22369 0.0
C14 C 0.69893 0.45809 0.19247 0.0
C15 C 0.78906 0.56751 0.16747 0.0
C16 C 0.96851 0.67602 0.18387 0.0
C17 C 1.04053 0.67747 0.23506 0.0
C18 C 0.94837 0.56545 0.25788 0.0
C19 C 0.2819 0.5838 0.05429 0.0
O20 O 0.54297 0.76843 0.15612 0.0
O21 O 0.33038 0.72251 0.19305 0.0
O22 O 0.64947 0.69057 0.23419 0.0
O23 O 0.6317 0.64447 0.14115 0.0
O24 O 0.31109 0.49044 0.26518 0.0
O25 O 0.30884 0.60672 0.24264 0.0
O26 O 0.99524 0.32868 0.15463 0.0
O27 O 1.22519 0.37622 0.17977 0.0
O28 O 0.91139 0.39333 0.21314 0.0
O29 O 0.92015 0.47667 0.13743 0.0
O30 O 1.2176 0.612 0.07561 0.0
O31 O 1.26307 0.51786 0.09088 0.0
H32 H 0.80739 0.84537 0.08915 0.0
H33 H 1.10418 1.03671 0.06319 0.0
H34 H 0.30642 0.09179 0.23741 0.0
H35 H 1.01147 0.90356 0.26858 0.0
H36 H 0.57243 0.3734 0.17172 0.0
H37 H 0.72611 0.56276 0.12952 0.0
H38 H 1.17422 0.7603 0.25164 0.0
H39 H 1.01711 0.56481 0.28977 0.0
Ho40 Ho 0.8589 0.0791 0.47565 0.0
Ho41 Ho 0.59365 1.0451 0.46265 0.0
C42 C 0.45931 0.80105 0.45873 0.0
C43 C 1.04665 1.0621 0.50459 0.0
C44 C 0.9972 0.96075 0.53046 0.0
C45 C 0.95818 0.9356 0.59041 0.0
C46 C 0.89973 0.83547 0.61447 0.0
C47 C 0.88286 0.75917 0.57934 0.0
C48 C 0.92618 0.78565 0.5194 0.0
C49 C 0.98078 0.88484 0.49493 0.0
C50 C 0.80303 0.08929 0.35958 0.0
C51 C 0.99818 0.32735 0.46597 0.0
C52 C 0.3978 1.05699 0.44314 0.0
C53 C 0.40987 0.13512 0.47885 0.0
C54 C 0.47921 0.23936 0.45423 0.0
C55 C 0.54071 0.3331 0.4911 0.0
C56 C 0.52735 0.32295 0.55376 0.0
C57 C 0.43894 0.21118 0.57698 0.0
C58 C 0.38695 0.12072 0.54044 0.0
C59 C 0.6731 1.05413 0.58007 0.0
O60 O 0.61162 0.87211 0.48852 0.0
O61 O 0.43305 0.85451 0.4329 0.0
O62 O 0.98345 1.04054 0.4502 0.0
O63 O 1.03731 0.11801 0.53889 0.0
O64 O 0.95441 0.1644 0.38773 0.0
O65 O 0.6835 1.0113 0.39493 0.0
O66 O 0.83193 0.2507 0.45013 0.0
O67 O 1.04513 0.28234 0.48319 0.0
O68 O 0.34507 0.9667 0.47045 0.0
O69 O 0.53368 0.11701 0.41255 0.0
O70 O 0.5175 0.98103 0.55686 0.0
O71 O 0.78029 0.12244 0.54069 0.0
H72 H 0.96831 0.99146 0.61847 0.0
H73 H 0.86278 0.81603 0.66022 0.0
H74 H 0.9167 0.72938 0.49132 0.0
H75 H 1.01036 0.9023 0.44839 0.0
H76 H 0.50008 0.25328 0.40695 0.0
H77 H 0.60855 0.41565 0.4695 0.0
H78 H 0.41475 0.19329 0.62365 0.0
H79 H 0.33294 1.04083 0.56109 0.0
Ho80 Ho 0.92355 0.69532 0.86684 0.0
Ho81 Ho 0.80861 0.5785 0.87756 0.0
C82 C 0.57251 0.61844 0.87059 0.0
C83 C 1.02314 0.86578 0.80281 0.0
C84 C 1.01449 0.94588 0.79752 0.0
C85 C 1.09524 1.02523 0.7504 0.0
C86 C 1.04998 0.07598 0.73286 0.0
C87 C 0.91566 1.04231 0.7598 0.0
C88 C 0.84515 0.97078 0.81024 0.0
C89 C 0.89644 0.92459 0.8295 0.0
C90 C 1.0485 0.78992 -0.02255 0.0
C91 C 1.13292 0.63068 0.85927 0.0
C92 C 0.63725 0.36069 0.90074 0.0
C93 C 0.64265 0.29049 0.86526 0.0
C94 C 0.77847 0.31098 0.87703 0.0
C95 C 0.80505 0.26436 0.83772 0.0
C96 C 0.69229 0.19085 0.78627 0.0
C97 C 0.55248 0.16684 0.77548 0.0
C98 C 0.52918 0.21696 0.8142 0.0
C99 C 0.77213 0.54427 0.75646 0.0
O100 O 0.66408 0.61233 0.90029 0.0
O101 O 0.65987 0.61109 0.90308 0.0
O102 O 1.1224 0.88836 0.84543 0.0
O103 O 0.87306 0.74973 0.79542 0.0
O104 O 1.14642 0.84381 0.9326 0.0
O105 O 0.89081 0.6872 0.96225 0.0
O106 O 1.08378 0.66757 0.88852 0.0
O107 O 1.0857 0.66857 0.8893 0.0
O108 O 0.56468 0.38078 0.87408 0.0
O109 O 0.78148 0.45889 0.93015 0.0
O110 O 0.65699 0.51364 0.78817 0.0
O111 O 0.90912 0.61015 0.78898 0.0
H112 H 1.18569 1.04222 0.72473 0.0
H113 H 1.1131 0.13617 0.69597 0.0
H114 H 0.7429 0.9443 0.83267 0.0
H115 H 0.83481 0.86532 0.86661 0.0
H116 H 0.86964 0.36775 0.91551 0.0
H117 H 0.91801 0.28936 0.84736 0.0
H118 H 0.46137 0.10998 0.73702 0.0
H119 H 0.4254 0.20133 0.80334 0.0
H120 H 0.53078 0.88323 0.28847 0.0
H121 H 1.04085 0.25996 0.28387 0.0
H122 H 0.76925 1.03781 0.12015 0.0
C123 C 0.63768 0.96006 0.263 0.0
C124 C 0.63346 0.94146 0.20134 0.0
C125 C 0.78527 0.07365 0.29318 0.0
C126 C 0.92699 0.17332 0.26046 0.0
C127 C 0.9223 0.16692 0.19798 0.0
C128 C 0.77464 1.04775 0.16818 0.0
H129 H 0.94417 0.73733 0.69163 0.0
H130 H 0.59668 0.35631 0.67843 0.0
H131 H 0.65449 0.53638 0.526 0.0
C132 C 0.85203 0.65229 0.66475 0.0
C133 C 0.81176 0.64921 0.60488 0.0
C134 C 0.76473 0.54465 0.69132 0.0
C135 C 0.654 0.43576 0.65633 0.0
C136 C 0.62231 0.43222 0.59434 0.0
C137 C 0.69303 0.53852 0.57073 0.0
H138 H 1.15085 0.60839 0.97389 0.0
H139 H 0.48072 0.58587 -0.01 0.0
H140 H 0.36924 0.63498 0.81703 0.0
C141 C 1.23276 0.61124 0.95293 0.0
C142 C 1.24671 0.62567 0.89141 0.0
C143 C 0.31157 0.59461 -0.01158 0.0
C144 C 0.41792 0.59566 0.96174 0.0
C145 C 0.44672 0.61217 0.8993 0.0
C146 C 0.35488 0.62473 0.86464 0.0
H147 H 1.0639 0.35907 0.35498 0.0
H148 H 0.44914 0.74508 0.34835 0.0
H149 H 1.22466 0.5716 0.51563 0.0
C150 C 1.1451 0.44614 0.37796 0.0
C151 C 1.13089 0.45023 0.43904 0.0
C152 C 1.25857 0.55101 0.34552 0.0
C153 C 0.35922 0.66397 0.37388 0.0
C154 C 0.35065 0.67475 0.43512 0.0
C155 C 1.23553 0.56627 0.46854 0.0
H156 H 0.6203 0.13902 0.6628 0.0
H157 H 0.8301 1.02524 0.64221 0.0
H158 H 0.82413 0.12145 0.81714 0.0
C159 C 0.67988 0.12001 0.68276 0.0
C160 C 0.72217 0.13993 0.74527 0.0
C161 C 0.72012 0.07917 0.64541 0.0
C162 C 0.80294 1.05877 0.6708 0.0
C163 C 0.84055 0.07381 0.73284 0.0
C164 C 0.79782 0.11267 0.76937 0.0
H165 H 1.26824 1.01839 0.02828 0.0
H166 H 0.94693 0.64952 0.06486 0.0
H167 H 1.24261 0.92049 0.20856 0.0
C168 C 1.22948 0.95426 0.05993 0.0
C169 C 1.25306 0.98218 0.12209 0.0
C170 C 1.11525 0.83266 0.0397 0.0
C171 C 1.04117 0.74425 0.08067 0.0
C172 C 1.08096 0.77523 0.14172 0.0
C173 C 1.21137 0.89854 0.16096 0.0
loop_
_geom_bond_atom_site_label_1
_geom_bond_atom_site_label_2
_geom_bond_distance
_geom_bond_site_symmetry_2
_ccdc_geom_bond_type
Ho0 C3 2.811 . S
Ho0 O20 2.322 . S
Ho0 O22 2.378 . S
Ho0 O23 2.524 . S
Ho0 O24 2.381 . S
Ho0 O25 2.669 . S
Ho0 O27 2.346 1_455 S
Ho0 O31 2.305 . S
Ho1 C12 2.811 . S
Ho1 O21 2.346 1_655 S
Ho1 O25 2.305 1_655 S
Ho1 O26 2.322 . S
Ho1 O28 2.378 . S
Ho1 O29 2.524 . S
Ho1 O30 2.381 . S
Ho1 O31 2.669 1_655 S
C2 O20 1.259 . S
C2 O21 1.268 . S
C3 Ho0 2.811 . S
C3 C4 1.488 . S
C3 O22 1.215 . S
C3 O23 1.289 . S
C4 C3 1.488 . S
C4 C5 1.348 . S
C4 C9 1.413 . S
C5 C4 1.348 . S
C5 C6 1.442 . S
C5 H32 0.930 . S
C6 C5 1.442 . S
C6 C7 1.381 . S
C6 H33 0.931 . S
C7 C6 1.381 . S
C7 C8 1.321 . S
C8 C7 1.321 . S
C8 C9 1.403 . S
C8 H34 0.934 . S
C9 C4 1.413 . S
C9 C8 1.403 . S
C9 H35 0.930 . S
C10 O24 1.275 . S
C10 O25 1.256 . S
C11 O26 1.259 . S
C11 O27 1.268 . S
C12 Ho1 2.811 . S
C12 C13 1.488 . S
C12 O28 1.215 . S
C12 O29 1.289 . S
C13 C12 1.488 . S
C13 C14 1.348 . S
C13 C18 1.413 . S
C14 C13 1.348 . S
C14 C15 1.442 . S
C14 H36 0.930 . S
C15 C14 1.442 . S
C15 C16 1.381 . S
C15 H37 0.931 . S
C16 C15 1.381 . S
C16 C17 1.321 . S
C17 C16 1.321 . S
C17 C18 1.403 . S
C17 H38 0.934 . S
C18 C13 1.413 . S
C18 C17 1.403 . S
C18 H39 0.930 . S
C19 O30 1.275 1_455 S
C19 O31 1.256 . S
O20 Ho0 2.322 . S
O20 C2 1.259 . S
O21 Ho1 2.346 1_455 S
O21 C2 1.268 . S
O22 Ho0 2.378 . S
O22 C3 1.215 . S
O23 Ho0 2.524 . S
O23 C3 1.289 . S
O24 Ho0 2.381 . S
O24 C10 1.275 . S
O25 Ho0 2.669 . S
O25 Ho1 2.305 1_455 S
O25 C10 1.256 . S
O26 Ho1 2.322 . S
O26 C11 1.259 . S
O27 Ho0 2.346 1_655 S
O27 C11 1.268 . S
O28 Ho1 2.378 . S
O28 C12 1.215 . S
O29 Ho1 2.524 . S
O29 C12 1.289 . S
O30 Ho1 2.381 . S
O30 C19 1.275 1_655 S
O31 Ho0 2.305 . S
O31 Ho1 2.669 1_455 S
O31 C19 1.256 . S
H32 C5 0.930 . S
H33 C6 0.931 . S
H34 C8 0.934 . S
H35 C9 0.930 . S
H36 C14 0.930 . S
H37 C15 0.931 . S
H38 C17 0.934 . S
H39 C18 0.930 . S
Ho40 C43 2.811 1_545 S
Ho40 O60 2.322 1_545 S
Ho40 O62 2.378 1_545 S
Ho40 O63 2.524 1_545 S
Ho40 O64 2.381 . S
Ho40 O65 2.669 . S
Ho40 O67 2.346 . S
Ho40 O71 2.305 . S
Ho41 C52 2.811 . S
Ho41 O61 2.346 1_545 S
Ho41 O65 2.305 . S
Ho41 O66 2.322 . S
Ho41 O68 2.378 . S
Ho41 O69 2.524 . S
Ho41 O70 2.381 . S
Ho41 O71 2.669 . S
C42 O60 1.259 . S
C42 O61 1.268 . S
C43 Ho40 2.811 1_565 S
C43 C44 1.488 . S
C43 O62 1.215 . S
C43 O63 1.289 . S
C44 C43 1.488 . S
C44 C45 1.348 . S
C44 C49 1.413 . S
C45 C44 1.348 . S
C45 C46 1.442 . S
C45 H72 0.930 . S
C46 C45 1.442 . S
C46 C47 1.381 . S
C46 H73 0.931 . S
C47 C46 1.381 . S
C47 C48 1.321 . S
C48 C47 1.321 . S
C48 C49 1.403 . S
C48 H74 0.934 . S
C49 C44 1.413 . S
C49 C48 1.403 . S
C49 H75 0.930 . S
C50 O64 1.275 . S
C50 O65 1.256 . S
C51 O66 1.259 . S
C51 O67 1.268 . S
C52 Ho41 2.811 . S
C52 C53 1.488 . S
C52 O68 1.215 . S
C52 O69 1.289 . S
C53 C52 1.488 . S
C53 C54 1.348 . S
C53 C58 1.413 . S
C54 C53 1.348 . S
C54 C55 1.442 . S
C54 H76 0.930 . S
C55 C54 1.442 . S
C55 C56 1.381 . S
C55 H77 0.931 . S
C56 C55 1.381 . S
C56 C57 1.321 . S
C57 C56 1.321 . S
C57 C58 1.403 . S
C57 H78 0.934 . S
C58 C53 1.413 . S
C58 C57 1.403 . S
C58 H79 0.930 . S
C59 O70 1.275 . S
C59 O71 1.256 . S
O60 Ho40 2.322 1_565 S
O60 C42 1.259 . S
O61 Ho41 2.346 1_565 S
O61 C42 1.268 . S
O62 Ho40 2.378 1_565 S
O62 C43 1.215 . S
O63 Ho40 2.524 1_565 S
O63 C43 1.289 . S
O64 Ho40 2.381 . S
O64 C50 1.275 . S
O65 Ho40 2.669 . S
O65 Ho41 2.305 . S
O65 C50 1.256 . S
O66 Ho41 2.322 . S
O66 C51 1.259 . S
O67 Ho40 2.346 . S
O67 C51 1.268 . S
O68 Ho41 2.378 . S
O68 C52 1.215 . S
O69 Ho41 2.524 . S
O69 C52 1.289 . S
O70 Ho41 2.381 . S
O70 C59 1.275 . S
O71 Ho40 2.305 . S
O71 Ho41 2.669 . S
O71 C59 1.256 . S
H72 C45 0.930 . S
H73 C46 0.931 . S
H74 C48 0.934 . S
H75 C49 0.930 . S
H76 C54 0.930 . S
H77 C55 0.931 . S
H78 C57 0.934 . S
H79 C58 0.930 . S
Ho80 C83 2.811 . S
Ho80 O100 2.322 . S
Ho80 O102 2.378 . S
Ho80 O103 2.524 . S
Ho80 O104 2.381 1_556 S
Ho80 O105 2.669 . S
Ho80 O107 2.346 . S
Ho80 O111 2.305 . S
Ho81 C92 2.811 . S
Ho81 O101 2.346 . S
Ho81 O105 2.305 . S
Ho81 O106 2.322 . S
Ho81 O108 2.378 . S
Ho81 O109 2.524 . S
Ho81 O110 2.381 . S
Ho81 O111 2.669 . S
C82 O100 1.259 . S
C82 O101 1.268 . S
C83 Ho80 2.811 . S
C83 C84 1.488 . S
C83 O102 1.215 . S
C83 O103 1.289 . S
C84 C83 1.488 . S
C84 C85 1.348 . S
C84 C89 1.413 . S
C85 C84 1.348 . S
C85 C86 1.442 1_565 S
C85 H112 0.930 . S
C86 C85 1.442 1_545 S
C86 C87 1.381 . S
C86 H113 0.931 . S
C87 C86 1.381 . S
C87 C88 1.321 . S
C88 C87 1.321 . S
C88 C89 1.403 1_545 S
C88 H114 0.934 1_556 S
C89 C84 1.413 . S
C89 C88 1.403 1_565 S
C89 H115 0.930 1_556 S
C90 O104 1.275 . S
C90 O105 1.256 1_554 S
C91 O106 1.259 . S
C91 O107 1.268 . S
C92 Ho81 2.811 . S
C92 C93 1.488 . S
C92 O108 1.215 . S
C92 O109 1.289 . S
C93 C92 1.488 . S
C93 C94 1.348 . S
C93 C98 1.413 . S
C94 C93 1.348 . S
C94 C95 1.442 . S
C94 H116 0.930 . S
C95 C94 1.442 . S
C95 C96 1.381 . S
C95 H117 0.931 . S
C96 C95 1.381 . S
C96 C97 1.321 . S
C97 C96 1.321 . S
C97 C98 1.403 . S
C97 H118 0.934 . S
C98 C93 1.413 . S
C98 C97 1.403 . S
C98 H119 0.930 . S
C99 O110 1.275 . S
C99 O111 1.256 . S
O100 Ho80 2.322 . S
O100 C82 1.259 . S
O101 Ho81 2.346 . S
O101 C82 1.268 . S
O102 Ho80 2.378 . S
O102 C83 1.215 . S
O103 Ho80 2.524 . S
O103 C83 1.289 . S
O104 Ho80 2.381 1_554 S
O104 C90 1.275 . S
O105 Ho80 2.669 . S
O105 Ho81 2.305 . S
O105 C90 1.256 1_556 S
O106 Ho81 2.322 . S
O106 C91 1.259 . S
O107 Ho80 2.346 . S
O107 C91 1.268 . S
O108 Ho81 2.378 . S
O108 C92 1.215 . S
O109 Ho81 2.524 . S
O109 C92 1.289 . S
O110 Ho81 2.381 . S
O110 C99 1.275 . S
O111 Ho80 2.305 . S
O111 Ho81 2.669 . S
O111 C99 1.256 . S
H112 C85 0.930 . S
H113 C86 0.931 . S
H114 C88 0.934 1_554 S
H115 C89 0.930 1_554 S
H116 C94 0.930 . S
H117 C95 0.931 . S
H118 C97 0.934 . S
H119 C98 0.930 . S
H120 C123 0.931 . S
H121 C126 0.928 . S
H122 C128 0.930 . S
C123 H120 0.931 . S
C123 C124 1.413 . S
C123 C125 1.360 1_565 S
C124 C123 1.413 . S
C124 C128 1.429 1_565 S
C125 C123 1.360 1_545 S
C125 C126 1.372 . S
C126 H121 0.928 . S
C126 C125 1.372 . S
C126 C127 1.404 . S
C127 C126 1.404 . S
C127 C128 1.391 . S
C128 H122 0.930 . S
C128 C124 1.429 1_545 S
C128 C127 1.391 . S
H129 C132 0.931 . S
H130 C135 0.928 . S
H131 C137 0.930 . S
C132 H129 0.931 . S
C132 C133 1.413 . S
C132 C134 1.360 . S
C133 C132 1.413 . S
C133 C137 1.429 . S
C134 C132 1.360 . S
C134 C135 1.372 . S
C135 H130 0.928 . S
C135 C134 1.372 . S
C135 C136 1.404 . S
C136 C135 1.404 . S
C136 C137 1.391 . S
C137 H131 0.930 . S
C137 C133 1.429 . S
C137 C136 1.391 . S
H138 C141 0.931 1_654 S
H139 C144 0.928 1_554 S
H140 C146 0.930 . S
C141 H138 0.931 1_456 S
C141 C142 1.413 . S
C141 C143 1.360 1_556 S
C142 C141 1.413 . S
C142 C146 1.429 . S
C143 C141 1.360 1_554 S
C143 C144 1.372 1_554 S
C144 H139 0.928 1_556 S
C144 C143 1.372 1_556 S
C144 C145 1.404 . S
C145 C144 1.404 . S
C145 C146 1.391 . S
C146 H140 0.930 . S
C146 C142 1.429 . S
C146 C145 1.391 . S
H147 C150 0.931 . S
H148 C153 0.928 . S
H149 C155 0.930 . S
C150 H147 0.931 . S
C150 C151 1.413 . S
C150 C152 1.360 1_655 S
C151 C150 1.413 . S
C151 C155 1.429 1_655 S
C152 C150 1.360 1_455 S
C152 C153 1.372 . S
C153 H148 0.928 . S
C153 C152 1.372 . S
C153 C154 1.404 . S
C154 C153 1.404 . S
C154 C155 1.391 . S
C155 H149 0.930 . S
C155 C151 1.429 1_455 S
C155 C154 1.391 . S
H156 C159 0.931 . S
H157 C162 0.928 . S
H158 C164 0.930 . S
C159 H156 0.931 . S
C159 C160 1.413 . S
C159 C161 1.360 1_545 S
C160 C159 1.413 . S
C160 C164 1.429 . S
C161 C159 1.360 1_565 S
C161 C162 1.372 . S
C162 H157 0.928 . S
C162 C161 1.372 . S
C162 C163 1.404 . S
C163 C162 1.404 . S
C163 C164 1.391 1_565 S
C164 H158 0.930 . S
C164 C160 1.429 . S
C164 C163 1.391 1_545 S
H165 C168 0.931 1_556 S
H166 C171 0.928 1_556 S
H167 C173 0.930 . S
C168 H165 0.931 1_554 S
C168 C169 1.413 . S
C168 C170 1.360 1_554 S
C169 C168 1.413 . S
C169 C173 1.429 . S
C170 C168 1.360 1_556 S
C170 C171 1.372 1_556 S
C171 H166 0.928 1_554 S
C171 C170 1.372 1_554 S
C171 C172 1.404 . S
C172 C171 1.404 . S
C172 C173 1.391 . S
C173 H167 0.930 . S
C173 C169 1.429 . S
C173 C172 1.391 . S
C7 C169 5.240 . S
C51 C151 2.360 . S
C87 C163 4.662 1_545 S
C16 C172 3.741 . S
C154 C42 2.382 . S
C160 C96 2.327 . S
C47 C133 3.003 . S
C91 C142 4.657 1_655 S
C2 C124 2.656 . S
C136 C56 3.437 . S
C145 C82 4.709 . S
C11 C127 2.475 . S
C143 C19 1.994 . S
C50 C125 0.926 . S
C99 C134 1.289 . S
C161 C59 1.271 1_565 S
C170 C90 1.953 1_556 S
C10 C152 0.887 . S
