# Generated by pormake.
# Topology pth, (4,4)-cn, num edge types: 1
# Building blocks:
#     Node 0, Type 0, BuildingBlock: QUQFOY_clean_sbu_1, # of connection points: 4
#     Node 1, Type 0, BuildingBlock: QUQFOY_clean_sbu_1, # of connection points: 4
#     Node 2, Type 0, BuildingBlock: QUQFOY_clean_sbu_1, # of connection points: 4
#     Node 3, Type 1, BuildingBlock: AZAVOO_clean_linker_0, # of connection points: 4
#     Node 4, Type 1, BuildingBlock: AZAVOO_clean_linker_0, # of connection points: 4
#     Node 5, Type 1, BuildingBlock: AZAVOO_clean_linker_0, # of connection points: 4
#     Edge 6, Type (0, 1), None
#     Edge 7, Type (0, 1), None
#     Edge 8, Type (0, 1), None
#     Edge 9, Type (0, 1), None
#     Edge 10, Type (0, 1), None
#     Edge 11, Type (0, 1), None
#     Edge 12, Type (0, 1), None
#     Edge 13, Type (0, 1), None
#     Edge 14, Type (0, 1), None
#     Edge 15, Type (0, 1), None
#     Edge 16, Type (0, 1), None
#     Edge 17, Type (0, 1), None
# Relax obj value: 0.156
# Max RMSD: 0.231
# Mean RMSD: 0.168
data_MOF--net-pth--node1-QUQFOY_clean_sbu_1--node2-AZAVOO_clean_linker_0--edge1-none
_symmetry_space_group_name_H-M    P1
_symmetry_Int_Tables_number       1
_symmetry_cell_setting            triclinic
loop_
_symmetry_equiv_pos_as_xyz
'x, y, z'
_cell_length_a     13.561473
_cell_length_b     15.364972
_cell_length_c     39.033484
_cell_angle_alpha  92.967547
_cell_angle_beta   88.383161
_cell_angle_gamma 120.4482
loop_
_atom_site_label
_atom_site_type_symbol
_atom_site_fract_x
_atom_site_fract_y
_atom_site_fract_z
_atom_type_partial_charge
O0 O 0.23306 0.25192 0.15995 0.0
Cd1 Cd 0.09509 0.13156 0.18082 0.0
Cd2 Cd 0.22895 0.05494 0.16735 0.0
O3 O 0.35801 0.20059 0.16132 0.0
O4 O 0.00153 0.18879 0.20114 0.0
O5 O 0.0881 0.13225 0.23267 0.0
C6 C 0.02921 0.17641 0.23106 0.0
C7 C 0.20311 0.95219 0.21181 0.0
C8 C 0.33361 0.26777 0.15488 0.0
C9 C 0.03297 0.98621 0.12063 0.0
O10 O 0.12882 0.99218 0.12472 0.0
O11 O -0.00517 0.02476 0.14324 0.0
O12 O 0.27458 0.96331 0.18738 0.0
O13 O 0.15119 0.00303 0.21135 0.0
O14 O 0.00097 0.12831 0.54363 0.0
Cd15 Cd 0.08911 0.1495 0.49821 0.0
Cd16 Cd -0.0038 0.94122 0.50833 0.0
O17 O 0.90359 0.96175 0.54734 0.0
O18 O 0.126 0.28578 0.48338 0.0
O19 O 0.02012 0.14588 0.45225 0.0
C20 C 0.06713 0.24282 0.45598 0.0
C21 C 0.94557 0.79084 0.47682 0.0
C22 C 0.93294 0.0499 0.5598 0.0
C23 C 0.2503 0.09479 0.52101 0.0
O24 O 0.16171 0.00816 0.52245 0.0
O25 O 0.24624 0.16641 0.50759 0.0
O26 O 0.96173 0.79812 0.50938 0.0
O27 O 0.94745 0.86554 0.4625 0.0
O28 O 0.93736 0.05609 0.80429 0.0
Cd29 Cd 0.03799 0.03817 0.83876 0.0
Cd30 Cd 0.1547 0.24365 0.83608 0.0
O31 O 0.006 0.21978 0.81362 0.0
O32 O 0.9439 0.89696 0.85496 0.0
O33 O -0.00488 0.03276 0.88891 0.0
C34 C 0.93971 0.93539 0.88475 0.0
C35 C 0.25969 0.35708 0.88029 0.0
C36 C 0.93363 0.13551 0.79921 0.0
C37 C 0.2658 0.13348 0.80457 0.0
O38 O 0.25835 0.21263 0.80546 0.0
O39 O 0.19097 0.05493 0.81945 0.0
O40 O 0.25376 0.38927 0.85098 0.0
O41 O 0.19669 0.26159 0.88547 0.0
H42 H 0.97942 0.45798 0.10665 0.0
H43 H 0.2341 0.19404 0.40394 0.0
H44 H 0.84629 0.32911 0.28497 0.0
H45 H 0.84868 0.20418 0.24406 0.0
H46 H 0.1699 0.26555 0.28605 0.0
H47 H 0.17043 0.39493 0.32561 0.0
H48 H 0.89907 0.52807 0.25053 0.0
H49 H 0.90265 0.49715 0.18857 0.0
H50 H 0.21373 0.48798 0.19942 0.0
H51 H 0.20989 0.52029 0.26144 0.0
H52 H 0.95246 0.73223 0.29079 0.0
H53 H 0.0139 0.86978 0.25195 0.0
H54 H 0.32585 0.86552 0.23096 0.0
H55 H 0.26924 0.73482 0.27305 0.0
H56 H 0.8909 0.71097 0.35473 0.0
H57 H 0.91699 0.87634 0.37244 0.0
H58 H 0.28181 0.99776 0.37933 0.0
H59 H 0.25437 0.83162 0.36143 0.0
H60 H 0.81725 0.53732 0.39144 0.0
H61 H 0.78177 0.63615 0.43643 0.0
H62 H 0.13283 0.77568 0.46878 0.0
H63 H 0.17043 0.68402 0.42238 0.0
H64 H 0.87586 0.2879 0.36694 0.0
H65 H 0.90015 0.18135 0.40672 0.0
H66 H 0.20692 0.44296 0.44635 0.0
H67 H 0.18884 0.54609 0.40455 0.0
O68 O 0.97917 0.46883 0.13129 0.0
O69 O 0.13769 0.46266 0.13813 0.0
O70 O 0.03873 0.06723 0.38479 0.0
O71 O 0.22155 0.12747 0.39754 0.0
C72 C 0.02796 0.4715 0.32178 0.0
C73 C 0.05146 0.54693 0.29809 0.0
C74 C 0.07081 0.64254 0.30988 0.0
C75 C 0.05501 0.65974 0.34481 0.0
C76 C 0.02744 0.58375 0.36847 0.0
C77 C 0.02311 0.49221 0.35752 0.0
C78 C 0.00911 0.37231 0.3079 0.0
C79 C 0.91497 0.31277 0.2863 0.0
C80 C 0.91654 0.24174 0.26285 0.0
C81 C 0.01007 0.22635 0.26167 0.0
C82 C 0.09657 0.27591 0.28652 0.0
C83 C 0.09685 0.34956 0.30927 0.0
C84 C 0.05391 0.526 0.26049 0.0
C85 C 0.96793 0.51936 0.23948 0.0
C86 C 0.97016 0.50165 0.20409 0.0
C87 C 0.05858 0.49029 0.18903 0.0
C88 C 0.14443 0.49644 0.21021 0.0
C89 C 0.14225 0.51448 0.24564 0.0
C90 C 0.10725 0.72475 0.28542 0.0
C91 C 0.03587 0.76329 0.27885 0.0
C92 C 0.07062 0.84117 0.25633 0.0
C93 C 0.17432 0.87789 0.23832 0.0
C94 C 0.24536 0.83847 0.24448 0.0
C95 C 0.21282 0.76355 0.2683 0.0
C96 C 0.07075 0.75945 0.35686 0.0
C97 C 0.97628 0.7732 0.36033 0.0
C98 C -0.00852 0.86782 0.37028 0.0
C99 C 0.10161 0.95037 0.37714 0.0
C100 C 0.19592 0.93577 0.37422 0.0
C101 C 0.18059 0.84112 0.364 0.0
C102 C -0.00389 0.60151 0.40386 0.0
C103 C 0.88496 0.58494 0.40944 0.0
C104 C 0.86494 0.64235 0.43476 0.0
C105 C 0.95474 0.7131 0.45579 0.0
C106 C 0.06208 0.72047 0.45297 0.0
C107 C 0.08321 0.66632 0.42687 0.0
C108 C 0.02894 0.4262 0.38325 0.0
C109 C 0.94864 0.32219 0.38407 0.0
C110 C 0.96255 0.26129 0.40684 0.0
C111 C 0.05442 0.30403 0.43011 0.0
C112 C 0.13408 0.40787 0.42922 0.0
C113 C 0.12264 0.46754 0.40568 0.0
C114 C 0.06121 0.47295 0.15133 0.0
C115 C 0.11824 0.05162 0.38677 0.0
H116 H 0.76489 0.05332 0.4455 0.0
H117 H 0.00687 0.23903 0.70492 0.0
H118 H 0.66608 0.93793 0.6473 0.0
H119 H 0.76732 0.90557 0.60024 0.0
H120 H 0.00887 0.22624 0.5977 0.0
H121 H 0.9074 0.25715 0.64463 0.0
H122 H 0.58232 0.9721 0.58496 0.0
H123 H 0.64148 0.97531 0.52508 0.0
H124 H 0.82433 0.30204 0.53185 0.0
H125 H 0.76533 0.29762 0.59194 0.0
H126 H 0.39664 0.97323 0.5966 0.0
H127 H 0.29434 0.95596 0.54439 0.0
H128 H 0.4108 0.27571 0.55173 0.0
H129 H 0.52229 0.29344 0.60307 0.0
H130 H 0.27456 0.98139 0.66825 0.0
H131 H 0.09668 0.98295 0.6792 0.0
H132 H 0.28998 0.30927 0.68969 0.0
H133 H 0.46708 0.3064 0.67855 0.0
H134 H 0.39901 0.97063 0.73042 0.0
H135 H 0.2728 0.96882 0.77696 0.0
H136 H 0.46333 0.29548 0.7834 0.0
H137 H 0.58804 0.2961 0.73704 0.0
H138 H 0.65902 0.96742 0.71403 0.0
H139 H 0.77901 0.97107 0.76032 0.0
H140 H 0.90394 0.28982 0.7798 0.0
H141 H 0.78387 0.28503 0.73323 0.0
O142 O 0.74594 0.05424 0.46954 0.0
O143 O 0.81529 0.22031 0.4723 0.0
O144 O 0.9798 0.06891 0.69276 0.0
O145 O 0.07561 0.23638 0.69991 0.0
C146 C 0.6847 0.12144 0.65668 0.0
C147 C 0.62914 0.13288 0.62862 0.0
C148 C 0.53178 0.14147 0.63402 0.0
C149 C 0.49094 0.14181 0.66745 0.0
C150 C 0.5496 0.13541 0.69579 0.0
C151 C 0.64741 0.12596 0.69052 0.0
C152 C 0.77769 0.10021 0.64867 0.0
C153 C 0.74537 1.00044 0.63813 0.0
C154 C 0.8015 0.98225 0.61054 0.0
C155 C 0.89081 0.06397 0.59377 0.0
C156 C 0.93636 0.16192 0.60898 0.0
C157 C 0.88063 0.17976 0.63659 0.0
C158 C 0.67117 0.13464 0.59288 0.0
C159 C 0.63648 0.04427 0.57359 0.0
C160 C 0.66999 0.04632 0.53937 0.0
C161 C 0.73745 0.13893 0.52371 0.0
C162 C 0.77224 0.22945 0.54317 0.0
C163 C 0.73911 0.22722 0.57747 0.0
C164 C 0.46428 0.13399 0.60387 0.0
C165 C 0.40154 0.03986 0.58664 0.0
C166 C 0.34483 0.03064 0.5565 0.0
C167 C 0.34428 0.11451 0.54394 0.0
C168 C 0.41103 0.21008 0.5605 0.0
C169 C 0.47168 0.21984 0.5903 0.0
C170 C 0.38327 0.14374 0.67271 0.0
C171 C 0.27801 0.05306 0.67275 0.0
C172 C 0.17671 0.05422 0.67906 0.0
C173 C 0.17913 0.14629 0.68545 0.0
C174 C 0.28504 0.2371 0.68495 0.0
C175 C 0.38626 0.23577 0.67855 0.0
C176 C 0.50245 0.13355 0.73051 0.0
C177 C 0.4164 0.04146 0.74304 0.0
C178 C 0.34397 0.0406 0.76944 0.0
C179 C 0.35675 0.132 0.78328 0.0
C180 C 0.45037 0.22379 0.77289 0.0
C181 C 0.52269 0.22448 0.74669 0.0
C182 C 0.71349 0.12604 0.72012 0.0
C183 C 0.71178 0.03774 0.72846 0.0
C184 C 0.78005 0.04005 0.75508 0.0
C185 C 0.85151 0.13093 0.77381 0.0
C186 C 0.84997 0.21858 0.76601 0.0
C187 C 0.78155 0.21606 0.73938 0.0
C188 C 0.76913 0.14074 0.48702 0.0
C189 C 0.07196 0.14777 0.69286 0.0
H190 H 0.80927 0.7481 0.24301 0.0
H191 H 0.01947 0.98524 0.99414 0.0
H192 H 0.71211 0.87052 0.05328 0.0
H193 H 0.84373 0.98472 0.09755 0.0
H194 H 0.07374 0.87365 0.07184 0.0
H195 H 0.94066 0.75914 0.02778 0.0
H196 H 0.61287 0.72662 0.10939 0.0
H197 H 0.68288 0.75545 0.16838 0.0
H198 H 0.90182 0.63522 0.13871 0.0
H199 H 0.8308 0.60678 0.07982 0.0
H200 H 0.40425 0.53955 0.09243 0.0
H201 H 0.3129 0.42858 0.14012 0.0
H202 H 0.52534 0.29586 0.12034 0.0
H203 H 0.61833 0.40968 0.0732 0.0
H204 H 0.30356 0.48938 0.00948 0.0
H205 H 0.12288 0.32946 1.00155 0.0
H206 H 0.30412 0.16636 0.00721 0.0
H207 H 0.48415 0.32678 0.01477 0.0
H208 H 0.4462 0.64277 0.95365 0.0
H209 H 0.30598 0.54204 0.9081 0.0
H210 H 0.41828 0.32474 0.90669 0.0
H211 H 0.56215 0.42794 0.95014 0.0
H212 H 0.72738 0.87265 0.98567 0.0
H213 H 0.84746 0.98374 0.94058 0.0
H214 H 0.87225 0.73688 0.89179 0.0
H215 H 0.75811 0.6278 0.93802 0.0
O216 O 0.78891 0.74264 0.21911 0.0
O217 O 0.90529 0.68622 0.20215 0.0
O218 O -0.00036 0.13658 0.99627 0.0
O219 O 0.08953 0.04944 0.99745 0.0
C220 C 0.71677 0.70588 0.0284 0.0
C221 C 0.66677 0.63896 0.05544 0.0
C222 C 0.56743 0.54553 0.0498 0.0
C223 C 0.51648 0.51701 0.01727 0.0
C224 C 0.56926 0.58082 0.98934 0.0
C225 C 0.67084 0.67639 0.99473 0.0
C226 C 0.81639 0.80591 0.03753 0.0
C227 C 0.79411 0.87529 0.05577 0.0
C228 C 0.86795 0.9384 0.08178 0.0
C229 C 0.96597 0.93411 0.08933 0.0
C230 C -0.00307 0.87633 0.06731 0.0
C231 C 0.92248 0.81266 0.04143 0.0
C232 C 0.71784 0.66576 0.09038 0.0
C233 C 0.67709 0.70792 0.11564 0.0
C234 C 0.71692 0.7239 0.1493 0.0
C235 C 0.79759 0.69725 0.15827 0.0
C236 C 0.83972 0.65663 0.13265 0.0
C237 C 0.7997 0.64063 0.09901 0.0
C238 C 0.51445 0.47949 0.07891 0.0
C239 C 0.43123 0.48685 0.09866 0.0
C240 C 0.38047 0.42446 0.12607 0.0
C241 C 0.41093 0.35264 0.13367 0.0
C242 C 0.50018 0.35048 0.11518 0.0
C243 C 0.55176 0.41382 0.08791 0.0
C244 C 0.40677 0.41958 0.01268 0.0
C245 C 0.30394 0.419 0.00894 0.0
C246 C 0.20093 0.32757 1.00447 0.0
C247 C 0.19902 0.23502 1.00375 0.0
C248 C 0.30245 0.23612 0.00763 0.0
C249 C 0.40535 0.3276 0.01207 0.0
C250 C 0.51482 0.54294 0.95513 0.0
C251 C 0.44401 0.57593 0.94234 0.0
C252 C 0.36257 0.51747 0.91695 0.0
C253 C 0.34923 0.42426 0.90505 0.0
C254 C 0.42515 0.3951 0.91624 0.0
C255 C 0.5088 0.45498 0.94049 0.0
C256 C 0.73372 0.74158 0.96548 0.0
C257 C 0.7596 0.84256 0.96551 0.0
C258 C 0.82835 0.90614 0.9397 0.0
C259 C 0.87018 0.86934 0.91279 0.0
C260 C 0.84153 0.76757 0.91222 0.0
C261 C 0.77518 0.70477 0.93848 0.0
C262 C 0.83463 0.70879 0.19441 0.0
C263 C 0.08987 0.13765 0.99895 0.0
loop_
_geom_bond_atom_site_label_1
_geom_bond_atom_site_label_2
_geom_bond_distance
_geom_bond_site_symmetry_2
_ccdc_geom_bond_type
O0 Cd1 2.223 . S
O0 C8 1.315 . S
Cd1 O0 2.223 . S
Cd1 O4 2.297 . S
Cd1 O5 2.439 . S
Cd1 O11 2.240 1_455 S
Cd2 O3 2.240 . S
Cd2 O10 2.223 1_545 S
Cd2 O12 2.297 1_545 S
Cd2 O13 2.439 1_545 S
O3 Cd2 2.240 . S
O3 C8 1.279 . S
O4 Cd1 2.297 . S
O4 C6 1.247 . S
O5 Cd1 2.439 . S
O5 C6 1.208 . S
C6 O4 1.247 . S
C6 O5 1.208 . S
C7 O12 1.247 . S
C7 O13 1.208 . S
C8 O0 1.315 . S
C8 O3 1.279 . S
C9 O10 1.315 . S
C9 O11 1.279 1_465 S
O10 Cd2 2.223 1_565 S
O10 C9 1.315 . S
O11 Cd1 2.240 1_655 S
O11 C9 1.279 1_645 S
O12 Cd2 2.297 1_565 S
O12 C7 1.247 . S
O13 Cd2 2.439 1_565 S
O13 C7 1.208 . S
O14 Cd15 2.223 . S
O14 C22 1.315 1_455 S
Cd15 O14 2.223 . S
Cd15 O18 2.297 . S
Cd15 O19 2.439 . S
Cd15 O25 2.240 . S
Cd16 O17 2.240 1_565 S
Cd16 O24 2.223 1_655 S
Cd16 O26 2.297 1_655 S
Cd16 O27 2.439 1_655 S
O17 Cd16 2.240 1_545 S
O17 C22 1.279 . S
O18 Cd15 2.297 . S
O18 C20 1.247 . S
O19 Cd15 2.439 . S
O19 C20 1.208 . S
C20 O18 1.247 . S
C20 O19 1.208 . S
C21 O26 1.247 . S
C21 O27 1.208 . S
C22 O14 1.315 1_655 S
C22 O17 1.279 . S
C23 O24 1.315 1_545 S
C23 O25 1.279 . S
O24 Cd16 2.223 1_455 S
O24 C23 1.315 1_565 S
O25 Cd15 2.240 . S
O25 C23 1.279 . S
O26 Cd16 2.297 1_455 S
O26 C21 1.247 . S
O27 Cd16 2.439 1_455 S
O27 C21 1.208 . S
O28 Cd29 2.223 1_545 S
O28 C36 1.315 . S
Cd29 O28 2.223 1_565 S
Cd29 O32 2.297 1_455 S
Cd29 O33 2.439 1_565 S
Cd29 O39 2.240 1_565 S
Cd30 O31 2.240 . S
Cd30 O38 2.223 . S
Cd30 O40 2.297 . S
Cd30 O41 2.439 . S
O31 Cd30 2.240 . S
O31 C36 1.279 . S
O32 Cd29 2.297 1_655 S
O32 C34 1.247 . S
O33 Cd29 2.439 1_545 S
O33 C34 1.208 1_445 S
C34 O32 1.247 . S
C34 O33 1.208 1_665 S
C35 O40 1.247 . S
C35 O41 1.208 . S
C36 O28 1.315 . S
C36 O31 1.279 . S
C37 O38 1.315 . S
C37 O39 1.279 . S
O38 Cd30 2.223 . S
O38 C37 1.315 . S
O39 Cd29 2.240 1_545 S
O39 C37 1.279 . S
O40 Cd30 2.297 . S
O40 C35 1.247 . S
O41 Cd30 2.439 . S
O41 C35 1.208 . S
H42 O68 0.856 . S
H43 O71 0.854 . S
H44 C79 0.930 . S
H45 C80 0.930 . S
H46 C82 0.930 . S
H47 C83 0.930 . S
H48 C85 0.931 1_655 S
H49 C86 0.930 1_655 S
H50 C88 0.930 . S
H51 C89 0.929 . S
H52 C91 0.930 1_655 S
H53 C92 0.931 1_655 S
H54 C94 0.930 . S
H55 C95 0.929 . S
H56 C97 0.931 . S
H57 C98 0.930 . S
H58 C100 0.930 1_545 S
H59 C101 0.932 . S
H60 C103 0.930 . S
H61 C104 0.929 . S
H62 C106 0.931 . S
H63 C107 0.930 . S
H64 C109 0.929 . S
H65 C110 0.931 . S
H66 C112 0.930 . S
H67 C113 0.929 . S
O68 H42 0.856 . S
O68 C114 1.300 . S
O69 C114 1.209 . S
O70 C115 1.199 . S
O71 H43 0.854 . S
O71 C115 1.297 . S
C72 C73 1.404 . S
C72 C77 1.397 . S
C72 C78 1.492 . S
C73 C72 1.404 . S
C73 C74 1.396 . S
C73 C84 1.492 . S
C74 C73 1.396 . S
C74 C75 1.397 . S
C74 C90 1.509 . S
C75 C74 1.397 . S
C75 C76 1.412 . S
C75 C96 1.485 . S
C76 C75 1.412 . S
C76 C77 1.388 . S
C76 C102 1.490 . S
C77 C72 1.397 . S
C77 C76 1.388 . S
C77 C108 1.519 . S
C78 C72 1.492 . S
C78 C79 1.363 1_455 S
C78 C83 1.390 . S
C79 H44 0.930 . S
C79 C78 1.363 1_655 S
C79 C80 1.372 . S
C80 H45 0.930 . S
C80 C79 1.372 . S
C80 C81 1.383 1_655 S
C81 C80 1.383 1_455 S
C81 C82 1.395 . S
C82 H46 0.930 . S
C82 C81 1.395 . S
C82 C83 1.362 . S
C83 H47 0.930 . S
C83 C78 1.390 . S
C83 C82 1.362 . S
C84 C73 1.492 . S
C84 C85 1.377 . S
C84 C89 1.397 . S
C85 H48 0.931 1_455 S
C85 C84 1.377 . S
C85 C86 1.376 . S
C86 H49 0.930 1_455 S
C86 C85 1.376 . S
C86 C87 1.376 . S
C87 C86 1.376 . S
C87 C88 1.378 . S
C87 C114 1.486 . S
C88 H50 0.930 . S
C88 C87 1.378 . S
C88 C89 1.376 . S
C89 H51 0.929 . S
C89 C84 1.397 . S
C89 C88 1.376 . S
C90 C74 1.509 . S
C90 C91 1.391 . S
C90 C95 1.386 . S
C91 H52 0.930 1_455 S
C91 C90 1.391 . S
C91 C92 1.375 . S
C92 H53 0.931 1_455 S
C92 C91 1.375 . S
C92 C93 1.375 . S
C93 C92 1.375 . S
C93 C94 1.361 . S
C94 H54 0.930 . S
C94 C93 1.361 . S
C94 C95 1.399 . S
C95 H55 0.929 . S
C95 C90 1.386 . S
C95 C94 1.399 . S
C96 C75 1.485 . S
C96 C97 1.394 1_455 S
C96 C101 1.360 . S
C97 H56 0.931 . S
C97 C96 1.394 1_655 S
C97 C98 1.372 . S
C98 H57 0.930 . S
C98 C97 1.372 . S
C98 C99 1.397 1_655 S
C99 C98 1.397 1_455 S
C99 C100 1.390 . S
C99 C115 1.476 1_565 S
C100 H58 0.930 1_565 S
C100 C99 1.390 . S
C100 C101 1.366 . S
C101 H59 0.932 . S
C101 C96 1.360 . S
C101 C100 1.366 . S
C102 C76 1.490 . S
C102 C103 1.380 1_455 S
C102 C107 1.386 . S
C103 H60 0.930 . S
C103 C102 1.380 1_655 S
C103 C104 1.381 . S
C104 H61 0.929 . S
C104 C103 1.381 . S
C104 C105 1.371 1_655 S
C105 C104 1.371 1_455 S
C105 C106 1.380 . S
C106 H62 0.931 . S
C106 C105 1.380 . S
C106 C107 1.387 . S
C107 H63 0.930 . S
C107 C102 1.386 . S
C107 C106 1.387 . S
C108 C77 1.519 . S
C108 C109 1.377 1_455 S
C108 C113 1.361 . S
C109 H64 0.929 . S
C109 C108 1.377 1_655 S
C109 C110 1.386 . S
C110 H65 0.931 . S
C110 C109 1.386 . S
C110 C111 1.363 1_655 S
C111 C110 1.363 1_455 S
C111 C112 1.385 . S
C112 H66 0.930 . S
C112 C111 1.385 . S
C112 C113 1.396 . S
C113 H67 0.929 . S
C113 C108 1.361 . S
C113 C112 1.396 . S
C114 O68 1.300 . S
C114 O69 1.209 . S
C114 C87 1.486 . S
C115 O70 1.199 . S
C115 O71 1.297 . S
C115 C99 1.476 1_545 S
H116 O142 0.856 . S
H117 O145 0.854 . S
H118 C153 0.930 1_565 S
H119 C154 0.930 . S
H120 C156 0.930 1_455 S
H121 C157 0.930 . S
H122 C159 0.931 1_565 S
H123 C160 0.930 1_565 S
H124 C162 0.930 . S
H125 C163 0.929 . S
H126 C165 0.930 1_565 S
H127 C166 0.931 1_565 S
H128 C168 0.930 . S
H129 C169 0.929 . S
H130 C171 0.931 1_565 S
H131 C172 0.930 . S
H132 C174 0.930 . S
H133 C175 0.932 . S
H134 C177 0.930 1_565 S
H135 C178 0.929 1_565 S
H136 C180 0.931 . S
H137 C181 0.930 . S
H138 C183 0.929 1_565 S
H139 C184 0.931 . S
H140 C186 0.930 . S
H141 C187 0.929 . S
O142 H116 0.856 . S
O142 C188 1.300 . S
O143 C188 1.209 . S
O144 C189 1.199 . S
O145 H117 0.854 . S
O145 C189 1.297 . S
C146 C147 1.404 . S
C146 C151 1.397 . S
C146 C152 1.492 . S
C147 C146 1.404 . S
C147 C148 1.396 . S
C147 C158 1.492 . S
C148 C147 1.396 . S
C148 C149 1.397 . S
C148 C164 1.509 . S
C149 C148 1.397 . S
C149 C150 1.412 . S
C149 C170 1.485 . S
C150 C149 1.412 . S
C150 C151 1.388 . S
C150 C176 1.490 . S
C151 C146 1.397 . S
C151 C150 1.388 . S
C151 C182 1.519 . S
C152 C146 1.492 . S
C152 C153 1.363 . S
C152 C157 1.390 . S
C153 H118 0.930 1_545 S
C153 C152 1.363 . S
C153 C154 1.372 1_545 S
C154 H119 0.930 . S
C154 C153 1.372 1_565 S
C154 C155 1.383 1_565 S
C155 C154 1.383 1_545 S
C155 C156 1.395 . S
C156 H120 0.930 1_655 S
C156 C155 1.395 . S
C156 C157 1.362 . S
C157 H121 0.930 . S
C157 C152 1.390 . S
C157 C156 1.362 . S
C158 C147 1.492 . S
C158 C159 1.377 . S
C158 C163 1.397 . S
C159 H122 0.931 1_545 S
C159 C158 1.377 . S
C159 C160 1.376 . S
C160 H123 0.930 1_545 S
C160 C159 1.376 . S
C160 C161 1.376 . S
C161 C160 1.376 . S
C161 C162 1.378 . S
C161 C188 1.486 . S
C162 H124 0.930 . S
C162 C161 1.378 . S
C162 C163 1.376 . S
C163 H125 0.929 . S
C163 C158 1.397 . S
C163 C162 1.376 . S
C164 C148 1.509 . S
C164 C165 1.391 . S
C164 C169 1.386 . S
C165 H126 0.930 1_545 S
C165 C164 1.391 . S
C165 C166 1.375 . S
C166 H127 0.931 1_545 S
C166 C165 1.375 . S
C166 C167 1.375 . S
C167 C166 1.375 . S
C167 C168 1.361 . S
C168 H128 0.930 . S
C168 C167 1.361 . S
C168 C169 1.399 . S
C169 H129 0.929 . S
C169 C164 1.386 . S
C169 C168 1.399 . S
C170 C149 1.485 . S
C170 C171 1.394 . S
C170 C175 1.360 . S
C171 H130 0.931 1_545 S
C171 C170 1.394 . S
C171 C172 1.372 . S
C172 H131 0.930 . S
C172 C171 1.372 . S
C172 C173 1.397 . S
C173 C172 1.397 . S
C173 C174 1.390 . S
C173 C189 1.476 . S
C174 H132 0.930 . S
C174 C173 1.390 . S
C174 C175 1.366 . S
C175 H133 0.932 . S
C175 C170 1.360 . S
C175 C174 1.366 . S
C176 C150 1.490 . S
C176 C177 1.380 . S
C176 C181 1.386 . S
C177 H134 0.930 1_545 S
C177 C176 1.380 . S
C177 C178 1.381 . S
C178 H135 0.929 1_545 S
C178 C177 1.381 . S
C178 C179 1.371 . S
C179 C178 1.371 . S
C179 C180 1.380 . S
C180 H136 0.931 . S
C180 C179 1.380 . S
C180 C181 1.387 . S
C181 H137 0.930 . S
C181 C176 1.386 . S
C181 C180 1.387 . S
C182 C151 1.519 . S
C182 C183 1.377 . S
C182 C187 1.361 . S
C183 H138 0.929 1_545 S
C183 C182 1.377 . S
C183 C184 1.386 . S
C184 H139 0.931 . S
C184 C183 1.386 . S
C184 C185 1.363 . S
C185 C184 1.363 . S
C185 C186 1.385 . S
C186 H140 0.930 . S
C186 C185 1.385 . S
C186 C187 1.396 . S
C187 H141 0.929 . S
C187 C182 1.361 . S
C187 C186 1.396 . S
C188 O142 1.300 . S
C188 O143 1.209 . S
C188 C161 1.486 . S
C189 O144 1.199 . S
C189 O145 1.297 . S
C189 C173 1.476 . S
H190 O216 0.856 . S
H191 O219 0.854 1_565 S
H192 C227 0.930 . S
H193 C228 0.930 . S
H194 C230 0.930 1_455 S
H195 C231 0.930 . S
H196 C233 0.931 . S
H197 C234 0.930 . S
H198 C236 0.930 . S
H199 C237 0.929 . S
H200 C239 0.930 . S
H201 C240 0.931 . S
H202 C242 0.930 . S
H203 C243 0.929 . S
H204 C245 0.931 . S
H205 C246 0.930 . S
H206 C248 0.938 . S
H207 C249 0.932 . S
H208 C251 0.930 . S
H209 C252 0.929 . S
H210 C254 0.931 . S
H211 C255 0.930 . S
H212 C257 0.929 . S
H213 C258 0.931 . S
H214 C260 0.930 . S
H215 C261 0.929 . S
O216 H190 0.856 . S
O216 C262 1.300 . S
O217 C262 1.209 . S
O218 C263 1.199 . S
O219 H191 0.854 1_545 S
O219 C263 1.297 . S
C220 C221 1.404 . S
C220 C225 1.399 1_554 S
C220 C226 1.492 . S
C221 C220 1.404 . S
C221 C222 1.396 . S
C221 C232 1.492 . S
C222 C221 1.396 . S
C222 C223 1.397 . S
C222 C238 1.509 . S
C223 C222 1.397 . S
C223 C224 1.412 1_554 S
C223 C244 1.485 . S
C224 C223 1.412 1_556 S
C224 C225 1.388 . S
C224 C250 1.490 . S
C225 C220 1.399 1_556 S
C225 C224 1.388 . S
C225 C256 1.517 . S
C226 C220 1.492 . S
C226 C227 1.363 . S
C226 C231 1.390 . S
C227 H192 0.930 . S
C227 C226 1.363 . S
C227 C228 1.372 . S
C228 H193 0.930 . S
C228 C227 1.372 . S
C228 C229 1.383 . S
C229 C228 1.383 . S
C229 C230 1.395 . S
C230 H194 0.930 1_655 S
C230 C229 1.395 . S
C230 C231 1.362 . S
C231 H195 0.930 . S
C231 C226 1.390 . S
C231 C230 1.362 . S
C232 C221 1.492 . S
C232 C233 1.377 . S
C232 C237 1.397 . S
C233 H196 0.931 . S
C233 C232 1.377 . S
C233 C234 1.376 . S
C234 H197 0.930 . S
C234 C233 1.376 . S
C234 C235 1.376 . S
C235 C234 1.376 . S
C235 C236 1.378 . S
C235 C262 1.486 . S
C236 H198 0.930 . S
C236 C235 1.378 . S
C236 C237 1.376 . S
C237 H199 0.929 . S
C237 C232 1.397 . S
C237 C236 1.376 . S
C238 C222 1.509 . S
C238 C239 1.391 . S
C238 C243 1.386 . S
C239 H200 0.930 . S
C239 C238 1.391 . S
C239 C240 1.375 . S
C240 H201 0.931 . S
C240 C239 1.375 . S
C240 C241 1.375 . S
C241 C240 1.375 . S
C241 C242 1.361 . S
C242 H202 0.930 . S
C242 C241 1.361 . S
C242 C243 1.399 . S
C243 H203 0.929 . S
C243 C238 1.386 . S
C243 C242 1.399 . S
C244 C223 1.485 . S
C244 C245 1.394 1_554 S
C244 C249 1.360 . S
C245 H204 0.931 . S
C245 C244 1.394 1_556 S
C245 C246 1.372 . S
C246 H205 0.930 . S
C246 C245 1.372 . S
C246 C247 1.397 . S
C247 C246 1.397 . S
C247 C248 1.390 . S
C247 C263 1.476 . S
C248 H206 0.938 . S
C248 C247 1.390 . S
C248 C249 1.366 1_556 S
C249 H207 0.932 . S
C249 C244 1.360 . S
C249 C248 1.366 1_554 S
C250 C224 1.490 . S
C250 C251 1.380 . S
C250 C255 1.386 . S
C251 H208 0.930 . S
C251 C250 1.380 . S
C251 C252 1.381 . S
C252 H209 0.929 . S
C252 C251 1.381 . S
C252 C253 1.371 . S
C253 C252 1.371 . S
C253 C254 1.380 . S
C254 H210 0.931 . S
C254 C253 1.380 . S
C254 C255 1.387 . S
C255 H211 0.930 . S
C255 C250 1.386 . S
C255 C254 1.387 . S
C256 C225 1.517 . S
C256 C257 1.377 . S
C256 C261 1.361 . S
C257 H212 0.929 . S
C257 C256 1.377 . S
C257 C258 1.386 . S
C258 H213 0.931 . S
C258 C257 1.386 . S
C258 C259 1.363 . S
C259 C258 1.363 . S
C259 C260 1.385 . S
C260 H214 0.930 . S
C260 C259 1.385 . S
C260 C261 1.396 . S
C261 H215 0.929 . S
C261 C256 1.361 . S
C261 C260 1.396 . S
C262 O216 1.300 . S
C262 O217 1.209 . S
C262 C235 1.486 . S
C263 O218 1.199 . S
C263 O219 1.297 . S
C263 C247 1.476 . S
C81 C6 2.410 . S
C22 C155 2.331 . S
C34 C259 2.230 . S
C7 C93 0.639 . S
C167 C23 1.430 . S
C35 C253 1.855 . S
C185 C36 2.622 1_655 S
C9 C229 2.399 1_455 S
C105 C21 2.243 . S
C179 C37 2.684 . S
C241 C8 1.184 . S
C20 C111 2.532 . S
