# Generated by pormake.
# Topology the, (3,8)-cn, num edge types: 1
# Building blocks:
#     Node 0, Type 0, BuildingBlock: PAMTOO_clean_linker_0, # of connection points: 3
#     Node 1, Type 0, BuildingBlock: PAMTOO_clean_linker_0, # of connection points: 3
#     Node 2, Type 0, BuildingBlock: PAMTOO_clean_linker_0, # of connection points: 3
#     Node 3, Type 0, BuildingBlock: PAMTOO_clean_linker_0, # of connection points: 3
#     Node 4, Type 0, BuildingBlock: PAMTOO_clean_linker_0, # of connection points: 3
#     Node 5, Type 0, BuildingBlock: PAMTOO_clean_linker_0, # of connection points: 3
#     Node 6, Type 0, BuildingBlock: PAMTOO_clean_linker_0, # of connection points: 3
#     Node 7, Type 0, BuildingBlock: PAMTOO_clean_linker_0, # of connection points: 3
#     Node 8, Type 1, BuildingBlock: GIZVER_clean_sbu_0, # of connection points: 8
#     Node 9, Type 1, BuildingBlock: GIZVER_clean_sbu_0, # of connection points: 8
#     Node 10, Type 1, BuildingBlock: GIZVER_clean_sbu_0, # of connection points: 8
#     Edge 11, Type (0, 1), None
#     Edge 12, Type (0, 1), None
#     Edge 13, Type (0, 1), None
#     Edge 14, Type (0, 1), None
#     Edge 15, Type (0, 1), None
#     Edge 16, Type (0, 1), None
#     Edge 17, Type (0, 1), None
#     Edge 18, Type (0, 1), None
#     Edge 19, Type (0, 1), None
#     Edge 20, Type (0, 1), None
#     Edge 21, Type (0, 1), None
#     Edge 22, Type (0, 1), None
#     Edge 23, Type (0, 1), None
#     Edge 24, Type (0, 1), None
#     Edge 25, Type (0, 1), None
#     Edge 26, Type (0, 1), None
#     Edge 27, Type (0, 1), None
#     Edge 28, Type (0, 1), None
#     Edge 29, Type (0, 1), None
#     Edge 30, Type (0, 1), None
#     Edge 31, Type (0, 1), None
#     Edge 32, Type (0, 1), None
#     Edge 33, Type (0, 1), None
#     Edge 34, Type (0, 1), None
# Relax obj value: 0.092
# Max RMSD: 0.287
# Mean RMSD: 0.132
data_MOF--net-the--node1-GIZVER_clean_sbu_0--node2-PAMTOO_clean_linker_0--edge1-none
_symmetry_space_group_name_H-M    P1
_symmetry_Int_Tables_number       1
_symmetry_cell_setting            triclinic
loop_
_symmetry_equiv_pos_as_xyz
'x, y, z'
_cell_length_a     19.978646
_cell_length_b     17.513502
_cell_length_c     16.349672
_cell_angle_alpha  89.747645
_cell_angle_beta   98.935256
_cell_angle_gamma 120.95985
loop_
_atom_site_label
_atom_site_type_symbol
_atom_site_fract_x
_atom_site_fract_y
_atom_site_fract_z
_atom_type_partial_charge
H0 H 0.30277 0.51599 0.37083 0.0
H1 H 0.35509 0.4819 0.62987 0.0
H2 H 0.48181 0.45288 0.45613 0.0
H3 H 0.35575 0.32015 0.61567 0.0
C4 C 0.42152 0.35461 0.63299 0.0
O5 O 0.45884 0.44082 0.61029 0.0
H6 H 0.43589 0.35738 0.7016 0.0
C7 C 0.33609 0.50215 0.4209 0.0
C8 C 0.39456 0.48571 0.40376 0.0
C9 C 0.32061 0.5 0.50262 0.0
C10 C 0.3659 0.4842 0.56669 0.0
C11 C 0.42243 0.46565 0.54935 0.0
C12 C 0.43704 0.46658 0.46841 0.0
H13 H 0.79353 0.35472 0.53366 0.0
H14 H 0.60884 0.33999 0.34856 0.0
H15 H 0.84977 0.54518 0.35021 0.0
H16 H 0.64075 0.39513 0.19046 0.0
C17 C 0.66986 0.4682 0.20718 0.0
O18 O 0.70213 0.48989 0.29067 0.0
H19 H 0.71725 0.5035 0.16948 0.0
C20 C 0.7762 0.3746 0.47504 0.0
C21 C 0.83273 0.45123 0.44272 0.0
C22 C 0.69551 0.33165 0.4387 0.0
C23 C 0.6715 0.36675 0.37105 0.0
C24 C 0.72711 0.44317 0.33878 0.0
C25 C 0.80786 0.4825 0.37188 0.0
H26 H 0.60327 0.84873 0.25628 0.0
H27 H 0.74047 0.7255 0.24576 0.0
H28 H 0.79831 0.91152 0.45208 0.0
H29 H 0.94426 0.89646 0.3998 0.0
C30 C 0.90324 0.82452 0.37812 0.0
O31 O 0.82801 0.79807 0.39024 0.0
H32 H 0.9033 0.81279 0.31137 0.0
C33 C 0.65555 0.84534 0.27956 0.0
C34 C 0.70092 0.88995 0.35718 0.0
C35 C 0.66821 0.78476 0.23877 0.0
C36 C 0.73292 0.77655 0.27247 0.0
C37 C 0.78108 0.8244 0.34816 0.0
C38 C 0.76604 0.88235 0.38984 0.0
H39 H 0.32455 0.87208 0.49117 0.0
H40 H 0.16483 0.64775 0.31285 0.0
H41 H 0.40717 0.81988 0.28359 0.0
H42 H 0.20502 0.55228 0.16544 0.0
C43 C 0.25629 0.59647 0.21481 0.0
O44 O 0.26715 0.68139 0.21513 0.0
H45 H 0.24149 0.56742 0.27464 0.0
C46 C 0.31153 0.83577 0.43161 0.0
C47 C 0.37341 0.85677 0.38935 0.0
C48 C 0.23804 0.75721 0.4078 0.0
C49 C 0.22135 0.70941 0.33136 0.0
C50 C 0.28209 0.73234 0.28559 0.0
C51 C 0.35901 0.80485 0.31604 0.0
H52 H 0.33517 0.85562 0.63455 0.0
H53 H 0.28882 0.71616 0.85544 0.0
H54 H 0.52744 0.9045 0.83137 0.0
H55 H 0.38599 0.65408 0.85533 0.0
C56 C 0.41622 0.69008 0.91828 0.0
O57 O 0.43703 0.77896 0.91808 0.0
H58 H 0.37325 0.6569 0.96116 0.0
C59 C 0.35584 0.84763 0.69727 0.0
C60 C 0.43823 0.89611 0.73034 0.0
C61 C 0.30165 0.78032 0.74137 0.0
C62 C 0.32958 0.76881 0.82183 0.0
C63 C 0.41094 0.80979 0.85178 0.0
C64 C 0.46468 0.87396 0.80695 0.0
H65 H 0.33945 0.48955 0.83291 0.0
H66 H 0.16633 0.23888 0.6888 0.0
H67 H 0.37546 0.27029 0.84579 0.0
H68 H 0.23085 0.15695 0.61967 0.0
C69 C 0.24528 0.12345 0.67151 0.0
O70 O 0.24421 0.15734 0.74723 0.0
H71 H 0.19665 1.05225 0.66056 0.0
C72 C 0.31693 0.42011 0.81392 0.0
C73 C 0.36331 0.38556 0.84603 0.0
C74 C 0.24583 0.36942 0.75607 0.0
C75 C 0.22074 0.27984 0.73275 0.0
C76 C 0.26795 0.24401 0.7658 0.0
C77 C 0.33891 0.29733 0.82202 0.0
H78 H 0.57247 0.30621 0.79636 0.0
H79 H 0.80239 0.54068 0.80124 0.0
H80 H 0.75383 0.28746 0.70219 0.0
H81 H 0.95013 0.44631 0.77389 0.0
C82 C 0.93222 0.49688 0.76981 0.0
O83 O 0.85642 0.45866 0.72404 0.0
H84 H 0.93454 0.52226 0.83313 0.0
C85 C 0.63329 0.33593 0.78709 0.0
C86 C 0.65627 0.28345 0.74894 0.0
C87 C 0.6855 0.4285 0.80608 0.0
C88 C 0.76312 0.46876 0.79069 0.0
C89 C 0.78821 0.41724 0.75496 0.0
C90 C 0.73535 0.32484 0.73543 0.0
H91 H 0.62659 0.78984 0.71589 0.0
H92 H 0.83228 0.76545 0.77413 0.0
H93 H 0.83449 0.95862 0.61116 0.0
H94 H 0.9871 0.9427 0.59631 0.0
C95 C 0.94104 0.87758 0.61413 0.0
O96 O 0.91657 0.89276 0.6834 0.0
H97 H 0.89131 0.84607 0.56006 0.0
C98 C 0.68408 0.80565 0.70387 0.0
C99 C 0.72381 0.87492 0.65358 0.0
C100 C 0.72315 0.7662 0.74843 0.0
C101 C 0.80037 0.79259 0.73791 0.0
C102 C 0.83952 0.86061 0.68684 0.0
C103 C 0.80171 0.90228 0.64612 0.0
Co104 Co 0.17858 0.50946 0.67094 0.0
Co105 Co 0.19592 0.56885 0.54048 0.0
Co106 Co 0.07484 0.61251 0.57277 0.0
O107 O 0.10384 0.51596 0.58065 0.0
H108 H 0.06427 0.45981 0.54929 0.0
O109 O 0.05212 0.71031 0.56463 0.0
Co110 Co 0.95841 0.69385 0.5021 0.0
Co111 Co 1.02243 0.73674 0.65731 0.0
H112 H 0.09732 0.76449 0.55189 0.0
O113 O 0.20403 0.50668 0.46045 0.0
O114 O 0.26094 0.53967 0.59861 0.0
O115 O 0.24606 0.69317 0.52824 0.0
O116 O 0.12667 0.6606 0.47199 0.0
O117 O 0.97297 0.52502 0.49519 0.0
O118 O 0.87495 0.6878 0.43935 0.0
O119 O 1.00207 0.80277 0.46315 0.0
O120 O 0.90305 0.57809 0.53551 0.0
O121 O 1.01809 0.55863 0.66995 0.0
O122 O 0.98411 0.64482 0.73124 0.0
O123 O 0.93649 0.73803 0.59943 0.0
O124 O 1.04308 0.85162 0.68176 0.0
C125 C 0.20656 0.41844 0.7202 0.0
C126 C 0.22778 0.70134 0.69674 0.0
C127 C 0.2015 0.70796 0.47616 0.0
C128 C 0.25793 0.51444 0.52168 0.0
C129 C 0.92838 0.76896 0.42767 0.0
C130 C 0.90607 0.51679 0.49864 0.0
C131 C 0.98547 0.57352 0.72454 0.0
C132 C 0.97519 0.81996 0.63261 0.0
O133 O 0.23958 0.5002 0.75043 0.0
O134 O 0.14789 0.3886 0.65629 0.0
O135 O 0.1745 0.70705 0.64897 0.0
O136 O 0.22514 0.6283 0.70111 0.0
Co137 Co 0.60239 0.95346 0.47387 0.0
Co138 Co 0.63988 1.00713 0.62714 0.0
Co139 Co 0.54 0.08693 0.54125 0.0
O140 O 0.62392 1.05827 0.53551 0.0
H141 H 0.67341 0.11045 0.5281 0.0
O142 O 0.45855 0.11846 0.54517 0.0
Co143 Co 0.42489 0.1336 0.64603 0.0
Co144 Co 0.50217 0.23999 0.54535 0.0
H145 H 0.41449 0.08767 0.49952 0.0
O146 O 0.73433 1.01569 0.66113 0.0
O147 O 0.62426 0.90236 0.57926 0.0
O148 O 0.56953 0.97834 0.70447 0.0
O149 O 0.47868 0.98726 0.61475 0.0
O150 O 0.60931 0.17293 0.63865 0.0
O151 O 0.37659 0.14351 0.72915 0.0
O152 O 0.33257 0.11512 0.59104 0.0
O153 O 0.52251 0.1591 0.71715 0.0
O154 O 0.59827 0.18559 0.46768 0.0
O155 O 0.61108 0.30559 0.53216 0.0
O156 O 0.47912 0.26389 0.6411 0.0
O157 O 0.44138 0.29195 0.51336 0.0
C158 C 0.66406 0.91872 0.41115 0.0
C159 C 0.45388 0.92325 0.43109 0.0
C160 C 0.49872 0.95936 0.68148 0.0
C161 C 0.6935 0.93373 0.62749 0.0
C162 C 0.32166 0.12755 0.66489 0.0
C163 C 0.59373 0.19535 0.70371 0.0
C164 C 0.63509 0.27043 0.48559 0.0
C165 C 0.44964 0.30244 0.59367 0.0
O166 O 0.58959 0.86375 0.41337 0.0
O167 O 0.70309 0.99571 0.45576 0.0
O168 O 0.47125 1.00375 0.44056 0.0
O169 O 0.49353 0.89678 0.47806 0.0
Co170 Co 0.42716 0.60049 0.17519 0.0
Co171 Co 0.48026 0.50411 0.22774 0.0
Co172 Co 0.53201 0.55871 0.0523 0.0
O173 O 0.44781 0.51699 0.1226 0.0
H174 H 0.39935 0.46308 0.09787 0.0
O175 O 0.61597 0.6009 0.98177 0.0
Co176 Co 0.59644 0.53224 0.88227 0.0
Co177 Co 0.62345 0.68356 0.91058 0.0
H178 H 0.66727 0.61962 1.01486 0.0
O179 O 0.40762 0.41906 0.285 0.0
O180 O 0.45044 0.56677 0.28953 0.0
O181 O 0.58358 0.51426 0.24489 0.0
O182 O 0.58048 0.49109 0.10921 0.0
O183 O 0.45422 0.44957 0.97352 0.0
O184 O 0.58423 0.46354 0.7963 0.0
O185 O 0.69257 0.54303 0.89593 0.0
O186 O 0.49297 0.5083 0.8576 0.0
O187 O 0.48077 0.62462 0.99755 0.0
O188 O 0.54037 0.71057 0.89924 0.0
O189 O 0.63028 0.63833 0.8122 0.0
O190 O 0.72002 0.76854 0.892 0.0
C191 C 0.32828 0.59747 0.19778 0.0
C192 C 0.60094 0.7128 0.17998 0.0
C193 C 0.60867 0.49426 0.18606 0.0
C194 C 0.41333 0.48936 0.31967 0.0
C195 C 0.65406 0.48209 0.83314 0.0
C196 C 0.44225 0.44748 0.89455 0.0
C197 C 0.48603 0.67898 0.94273 0.0
C198 C 0.69297 0.71948 0.8216 0.0
O199 O 0.3978 0.66919 0.21905 0.0
O200 O 0.32191 0.52522 0.16597 0.0
O201 O 0.61147 0.66588 0.1306 0.0
O202 O 0.53269 0.68946 0.19322 0.0
loop_
_geom_bond_atom_site_label_1
_geom_bond_atom_site_label_2
_geom_bond_distance
_geom_bond_site_symmetry_2
_ccdc_geom_bond_type
H0 C7 0.929 . S
H1 C10 0.930 . S
H2 C12 0.929 . S
H3 C4 0.969 . S
C4 H3 0.969 . S
C4 O5 1.550 . S
C4 H6 0.973 . S
O5 C4 1.550 . S
O5 C11 1.412 . S
H6 C4 0.973 . S
C7 H0 0.929 . S
C7 C8 1.400 . S
C7 C9 1.364 . S
C8 C7 1.400 . S
C8 C12 1.377 . S
C9 C7 1.364 . S
C9 C10 1.374 . S
C10 H1 0.930 . S
C10 C9 1.374 . S
C10 C11 1.383 . S
C11 O5 1.412 . S
C11 C10 1.383 . S
C11 C12 1.394 . S
C12 H2 0.929 . S
C12 C8 1.377 . S
C12 C11 1.394 . S
H13 C20 0.929 . S
H14 C23 0.930 . S
H15 C25 0.929 . S
H16 C17 0.969 . S
C17 H16 0.969 . S
C17 O18 1.550 . S
C17 H19 0.973 . S
O18 C17 1.550 . S
O18 C24 1.412 . S
H19 C17 0.973 . S
C20 H13 0.929 . S
C20 C21 1.400 . S
C20 C22 1.364 . S
C21 C20 1.400 . S
C21 C25 1.377 . S
C22 C20 1.364 . S
C22 C23 1.374 . S
C23 H14 0.930 . S
C23 C22 1.374 . S
C23 C24 1.383 . S
C24 O18 1.412 . S
C24 C23 1.383 . S
C24 C25 1.394 . S
C25 H15 0.929 . S
C25 C21 1.377 . S
C25 C24 1.394 . S
H26 C33 0.929 . S
H27 C36 0.930 . S
H28 C38 0.929 . S
H29 C30 0.969 . S
C30 H29 0.969 . S
C30 O31 1.550 . S
C30 H32 0.973 . S
O31 C30 1.550 . S
O31 C37 1.412 . S
H32 C30 0.973 . S
C33 H26 0.929 . S
C33 C34 1.400 . S
C33 C35 1.364 . S
C34 C33 1.400 . S
C34 C38 1.377 . S
C35 C33 1.364 . S
C35 C36 1.374 . S
C36 H27 0.930 . S
C36 C35 1.374 . S
C36 C37 1.383 . S
C37 O31 1.412 . S
C37 C36 1.383 . S
C37 C38 1.394 . S
C38 H28 0.929 . S
C38 C34 1.377 . S
C38 C37 1.394 . S
H39 C46 0.929 . S
H40 C49 0.930 . S
H41 C51 0.929 . S
H42 C43 0.969 . S
C43 H42 0.969 . S
C43 O44 1.550 . S
C43 H45 0.973 . S
O44 C43 1.550 . S
O44 C50 1.412 . S
H45 C43 0.973 . S
C46 H39 0.929 . S
C46 C47 1.400 . S
C46 C48 1.364 . S
C47 C46 1.400 . S
C47 C51 1.377 . S
C48 C46 1.364 . S
C48 C49 1.374 . S
C49 H40 0.930 . S
C49 C48 1.374 . S
C49 C50 1.383 . S
C50 O44 1.412 . S
C50 C49 1.383 . S
C50 C51 1.394 . S
C51 H41 0.929 . S
C51 C47 1.377 . S
C51 C50 1.394 . S
H52 C59 0.929 . S
H53 C62 0.930 . S
H54 C64 0.929 . S
H55 C56 0.969 . S
C56 H55 0.969 . S
C56 O57 1.550 . S
C56 H58 0.973 . S
O57 C56 1.550 . S
O57 C63 1.412 . S
H58 C56 0.973 . S
C59 H52 0.929 . S
C59 C60 1.400 . S
C59 C61 1.364 . S
C60 C59 1.400 . S
C60 C64 1.377 . S
C61 C59 1.364 . S
C61 C62 1.374 . S
C62 H53 0.930 . S
C62 C61 1.374 . S
C62 C63 1.383 . S
C63 O57 1.412 . S
C63 C62 1.383 . S
C63 C64 1.394 . S
C64 H54 0.929 . S
C64 C60 1.377 . S
C64 C63 1.394 . S
H65 C72 0.929 . S
H66 C75 0.930 . S
H67 C77 0.929 . S
H68 C69 0.969 . S
C69 H68 0.969 . S
C69 O70 1.550 . S
C69 H71 0.973 . S
O70 C69 1.550 . S
O70 C76 1.412 . S
H71 C69 0.973 . S
C72 H65 0.929 . S
C72 C73 1.400 . S
C72 C74 1.364 . S
C73 C72 1.400 . S
C73 C77 1.377 . S
C74 C72 1.364 . S
C74 C75 1.374 . S
C75 H66 0.930 . S
C75 C74 1.374 . S
C75 C76 1.383 . S
C76 O70 1.412 . S
C76 C75 1.383 . S
C76 C77 1.394 . S
C77 H67 0.929 . S
C77 C73 1.377 . S
C77 C76 1.394 . S
H78 C85 0.929 . S
H79 C88 0.930 . S
H80 C90 0.929 . S
H81 C82 0.969 . S
C82 H81 0.969 . S
C82 O83 1.550 . S
C82 H84 0.973 . S
O83 C82 1.550 . S
O83 C89 1.412 . S
H84 C82 0.973 . S
C85 H78 0.929 . S
C85 C86 1.400 . S
C85 C87 1.364 . S
C86 C85 1.400 . S
C86 C90 1.377 . S
C87 C85 1.364 . S
C87 C88 1.374 . S
C88 H79 0.930 . S
C88 C87 1.374 . S
C88 C89 1.383 . S
C89 O83 1.412 . S
C89 C88 1.383 . S
C89 C90 1.394 . S
C90 H80 0.929 . S
C90 C86 1.377 . S
C90 C89 1.394 . S
H91 C98 0.929 . S
H92 C101 0.930 . S
H93 C103 0.929 . S
H94 C95 0.969 . S
C95 H94 0.969 . S
C95 O96 1.550 . S
C95 H97 0.973 . S
O96 C95 1.550 . S
O96 C102 1.412 . S
H97 C95 0.973 . S
C98 H91 0.929 . S
C98 C99 1.400 . S
C98 C100 1.364 . S
C99 C98 1.400 . S
C99 C103 1.377 . S
C100 C98 1.364 . S
C100 C101 1.374 . S
C101 H92 0.930 . S
C101 C100 1.374 . S
C101 C102 1.383 . S
C102 O96 1.412 . S
C102 C101 1.383 . S
C102 C103 1.394 . S
C103 H93 0.929 . S
C103 C99 1.377 . S
C103 C102 1.394 . S
Co104 O107 2.042 . S
Co104 O114 2.264 . S
Co104 O133 2.286 . S
Co104 O134 2.069 . S
Co104 O136 2.015 . S
Co105 O107 2.122 . S
Co105 O113 2.073 . S
Co105 O114 2.327 . S
Co105 O115 1.976 . S
Co106 O107 2.087 . S
Co106 O109 2.087 . S
Co106 O116 2.111 . S
Co106 O117 2.143 1_455 S
Co106 O121 2.111 1_455 S
Co106 O135 2.143 . S
O107 Co104 2.042 . S
O107 Co105 2.122 . S
O107 Co106 2.087 . S
O107 H108 0.980 . S
H108 O107 0.980 . S
O109 Co106 2.087 . S
O109 Co110 2.042 1_455 S
O109 Co111 2.122 1_455 S
O109 H112 0.980 . S
Co110 O109 2.042 1_655 S
Co110 O118 2.286 . S
Co110 O119 2.069 . S
Co110 O120 2.015 . S
Co110 O123 2.264 . S
Co111 O109 2.122 1_655 S
Co111 O122 1.976 . S
Co111 O123 2.327 . S
Co111 O124 2.073 . S
H112 O109 0.980 . S
O113 Co105 2.073 . S
O113 C128 1.245 . S
O114 Co104 2.264 . S
O114 Co105 2.327 . S
O114 C128 1.257 . S
O115 Co105 1.976 . S
O115 C127 1.251 . S
O116 Co106 2.111 . S
O116 C127 1.274 . S
O117 Co106 2.143 1_655 S
O117 C130 1.246 . S
O118 Co110 2.286 . S
O118 C129 1.259 . S
O119 Co110 2.069 . S
O119 C129 1.289 . S
O120 Co110 2.015 . S
O120 C130 1.257 . S
O121 Co106 2.111 1_655 S
O121 C131 1.274 . S
O122 Co111 1.976 . S
O122 C131 1.251 . S
O123 Co110 2.264 . S
O123 Co111 2.327 . S
O123 C132 1.257 . S
O124 Co111 2.073 . S
O124 C132 1.245 . S
C125 O133 1.259 . S
C125 O134 1.289 . S
C126 O135 1.246 . S
C126 O136 1.257 . S
C127 O115 1.251 . S
C127 O116 1.274 . S
C128 O113 1.245 . S
C128 O114 1.257 . S
C129 O118 1.259 . S
C129 O119 1.289 . S
C130 O117 1.246 . S
C130 O120 1.257 . S
C131 O121 1.274 . S
C131 O122 1.251 . S
C132 O123 1.257 . S
C132 O124 1.245 . S
O133 Co104 2.286 . S
O133 C125 1.259 . S
O134 Co104 2.069 . S
O134 C125 1.289 . S
O135 Co106 2.143 . S
O135 C126 1.246 . S
O136 Co104 2.015 . S
O136 C126 1.257 . S
Co137 O140 2.042 . S
Co137 O147 2.264 . S
Co137 O166 2.286 . S
Co137 O167 2.069 . S
Co137 O169 2.015 . S
Co138 O140 2.122 . S
Co138 O146 2.073 . S
Co138 O147 2.327 . S
Co138 O148 1.976 . S
Co139 O140 2.087 1_545 S
Co139 O142 2.087 . S
Co139 O149 2.111 1_545 S
Co139 O150 2.143 . S
Co139 O154 2.111 . S
Co139 O168 2.143 1_545 S
O140 Co137 2.042 . S
O140 Co138 2.122 . S
O140 Co139 2.087 1_565 S
O140 H141 0.980 1_565 S
H141 O140 0.980 1_545 S
O142 Co139 2.087 . S
O142 Co143 2.042 . S
O142 Co144 2.122 . S
O142 H145 0.980 . S
Co143 O142 2.042 . S
Co143 O151 2.286 . S
Co143 O152 2.069 . S
Co143 O153 2.015 . S
Co143 O156 2.264 . S
Co144 O142 2.122 . S
Co144 O155 1.976 . S
Co144 O156 2.327 . S
Co144 O157 2.073 . S
H145 O142 0.980 . S
O146 Co138 2.073 . S
O146 C161 1.245 . S
O147 Co137 2.264 . S
O147 Co138 2.327 . S
O147 C161 1.257 . S
O148 Co138 1.976 . S
O148 C160 1.251 . S
O149 Co139 2.111 1_565 S
O149 C160 1.274 . S
O150 Co139 2.143 . S
O150 C163 1.246 . S
O151 Co143 2.286 . S
O151 C162 1.259 . S
O152 Co143 2.069 . S
O152 C162 1.289 . S
O153 Co143 2.015 . S
O153 C163 1.257 . S
O154 Co139 2.111 . S
O154 C164 1.274 . S
O155 Co144 1.976 . S
O155 C164 1.251 . S
O156 Co143 2.264 . S
O156 Co144 2.327 . S
O156 C165 1.257 . S
O157 Co144 2.073 . S
O157 C165 1.245 . S
C158 O166 1.259 . S
C158 O167 1.289 . S
C159 O168 1.246 . S
C159 O169 1.257 . S
C160 O148 1.251 . S
C160 O149 1.274 . S
C161 O146 1.245 . S
C161 O147 1.257 . S
C162 O151 1.259 . S
C162 O152 1.289 . S
C163 O150 1.246 . S
C163 O153 1.257 . S
C164 O154 1.274 . S
C164 O155 1.251 . S
C165 O156 1.257 . S
C165 O157 1.245 . S
O166 Co137 2.286 . S
O166 C158 1.259 . S
O167 Co137 2.069 . S
O167 C158 1.289 . S
O168 Co139 2.143 1_565 S
O168 C159 1.246 . S
O169 Co137 2.015 . S
O169 C159 1.257 . S
Co170 O173 2.042 . S
Co170 O180 2.264 . S
Co170 O199 2.286 . S
Co170 O200 2.069 . S
Co170 O202 2.015 . S
Co171 O173 2.122 . S
Co171 O179 2.073 . S
Co171 O180 2.327 . S
Co171 O181 1.976 . S
Co172 O173 2.087 . S
Co172 O175 2.087 1_554 S
Co172 O182 2.111 . S
Co172 O183 2.143 1_554 S
Co172 O187 2.111 1_554 S
Co172 O201 2.143 . S
O173 Co170 2.042 . S
O173 Co171 2.122 . S
O173 Co172 2.087 . S
O173 H174 0.980 . S
H174 O173 0.980 . S
O175 Co172 2.087 1_556 S
O175 Co176 2.042 . S
O175 Co177 2.122 . S
O175 H178 0.980 . S
Co176 O175 2.042 . S
Co176 O184 2.286 . S
Co176 O185 2.069 . S
Co176 O186 2.015 . S
Co176 O189 2.264 . S
Co177 O175 2.122 . S
Co177 O188 1.976 . S
Co177 O189 2.327 . S
Co177 O190 2.073 . S
H178 O175 0.980 . S
O179 Co171 2.073 . S
O179 C194 1.245 . S
O180 Co170 2.264 . S
O180 Co171 2.327 . S
O180 C194 1.257 . S
O181 Co171 1.976 . S
O181 C193 1.251 . S
O182 Co172 2.111 . S
O182 C193 1.274 . S
O183 Co172 2.143 1_556 S
O183 C196 1.246 . S
O184 Co176 2.286 . S
O184 C195 1.259 . S
O185 Co176 2.069 . S
O185 C195 1.289 . S
O186 Co176 2.015 . S
O186 C196 1.257 . S
O187 Co172 2.111 1_556 S
O187 C197 1.274 . S
O188 Co177 1.976 . S
O188 C197 1.251 . S
O189 Co176 2.264 . S
O189 Co177 2.327 . S
O189 C198 1.257 . S
O190 Co177 2.073 . S
O190 C198 1.245 . S
C191 O199 1.259 . S
C191 O200 1.289 . S
C192 O201 1.246 . S
C192 O202 1.257 . S
C193 O181 1.251 . S
C193 O182 1.274 . S
C194 O179 1.245 . S
C194 O180 1.257 . S
C195 O184 1.259 . S
C195 O185 1.289 . S
C196 O183 1.246 . S
C196 O186 1.257 . S
C197 O187 1.274 . S
C197 O188 1.251 . S
C198 O189 1.257 . S
C198 O190 1.245 . S
O199 Co170 2.286 . S
O199 C191 1.259 . S
O200 Co170 2.069 . S
O200 C191 1.289 . S
O201 Co172 2.143 . S
O201 C192 1.246 . S
O202 Co170 2.015 . S
O202 C192 1.257 . S
C128 C9 1.596 . S
C164 C22 2.402 . S
C129 C30 1.223 . S
C159 C47 1.490 . S
C126 C61 1.274 . S
C69 C162 1.463 . S
C82 C131 1.211 . S
C161 C99 1.625 . S
C165 C4 1.854 . S
C130 C21 1.877 . S
C158 C34 2.286 . S
C127 C48 0.565 . S
C160 C60 1.497 . S
C74 C125 1.632 . S
C86 C163 1.547 . S
C132 C95 1.238 . S
C194 C8 1.801 . S
C56 C197 1.544 . S
C196 C73 1.985 . S
C87 C195 2.835 . S
C198 C100 1.913 . S
C35 C192 2.351 . S
C191 C43 1.506 . S
C17 C193 2.224 . S
