# Generated by pormake.
# Topology rtl, (3,6)-cn, num edge types: 1
# Building blocks:
#     Node 0, Type 0, BuildingBlock: BETDAH_clean_linker_0, # of connection points: 3
#     Node 1, Type 0, BuildingBlock: BETDAH_clean_linker_0, # of connection points: 3
#     Node 2, Type 0, BuildingBlock: BETDAH_clean_linker_0, # of connection points: 3
#     Node 3, Type 0, BuildingBlock: BETDAH_clean_linker_0, # of connection points: 3
#     Node 4, Type 1, BuildingBlock: CIFDUS_clean_sbu_1, # of connection points: 6
#     Node 5, Type 1, BuildingBlock: CIFDUS_clean_sbu_1, # of connection points: 6
#     Edge 6, Type (0, 1), BuildingBlock: OJICUG_clean_linker_0, # of connection points: 2
#     Edge 7, Type (0, 1), BuildingBlock: OJICUG_clean_linker_0, # of connection points: 2
#     Edge 8, Type (0, 1), BuildingBlock: OJICUG_clean_linker_0, # of connection points: 2
#     Edge 9, Type (0, 1), BuildingBlock: OJICUG_clean_linker_0, # of connection points: 2
#     Edge 10, Type (0, 1), BuildingBlock: OJICUG_clean_linker_0, # of connection points: 2
#     Edge 11, Type (0, 1), BuildingBlock: OJICUG_clean_linker_0, # of connection points: 2
#     Edge 12, Type (0, 1), BuildingBlock: OJICUG_clean_linker_0, # of connection points: 2
#     Edge 13, Type (0, 1), BuildingBlock: OJICUG_clean_linker_0, # of connection points: 2
#     Edge 14, Type (0, 1), BuildingBlock: OJICUG_clean_linker_0, # of connection points: 2
#     Edge 15, Type (0, 1), BuildingBlock: OJICUG_clean_linker_0, # of connection points: 2
#     Edge 16, Type (0, 1), BuildingBlock: OJICUG_clean_linker_0, # of connection points: 2
#     Edge 17, Type (0, 1), BuildingBlock: OJICUG_clean_linker_0, # of connection points: 2
# Relax obj value: 0.017
# Max RMSD: 0.108
# Mean RMSD: 0.082
data_MOF--net-rtl--node1-CIFDUS_clean_sbu_1--node2-BETDAH_clean_linker_0--edge1-OJICUG_clean_linker_0
_symmetry_space_group_name_H-M    P1
_symmetry_Int_Tables_number       1
_symmetry_cell_setting            triclinic
loop_
_symmetry_equiv_pos_as_xyz
'x, y, z'
_cell_length_a     26.020009
_cell_length_b     26.178872
_cell_length_c     15.962224
_cell_angle_alpha  91.271025
_cell_angle_beta   100.05715
_cell_angle_gamma 90.425871
loop_
_atom_site_label
_atom_site_type_symbol
_atom_site_fract_x
_atom_site_fract_y
_atom_site_fract_z
_atom_type_partial_charge
H0 H 0.12907 0.92315 0.06571 0.0
H1 H 0.21708 0.81253 0.22691 0.0
H2 H 0.19642 0.79381 0.95583 0.0
C3 C 0.1531 0.88938 0.07369 0.0
C4 C 0.16224 0.86196 1.00074 0.0
C5 C 0.17272 0.87224 0.15628 0.0
C6 C 0.2025 0.82737 0.16454 0.0
C7 C 0.21088 0.79905 0.09289 0.0
C8 C 0.19129 0.8167 0.01113 0.0
N9 N 0.22862 0.74817 0.10339 0.0
C10 C 0.28075 0.73446 0.11212 0.0
H11 H 0.63612 0.61748 0.58524 0.0
H12 H 0.68966 0.75174 0.47416 0.0
H13 H 0.70228 0.7444 0.7455 0.0
C14 C 0.65499 0.65473 0.59319 0.0
C15 C 0.66928 0.67662 0.67537 0.0
C16 C 0.66289 0.68078 0.52006 0.0
C17 C 0.68432 0.73063 0.52966 0.0
C18 C 0.69866 0.75325 0.61156 0.0
C19 C 0.69131 0.72611 0.68335 0.0
N20 N 0.71391 0.80547 0.6225 0.0
C21 C 0.76334 0.82364 0.61537 0.0
H22 H 0.8971 0.11508 0.01866 0.0
H23 H 0.83578 0.24892 0.12575 0.0
H24 H 0.82563 0.23349 0.85522 0.0
C25 C 0.87652 0.15092 0.00955 0.0
C26 C 0.86205 0.17005 0.92692 0.0
C27 C 0.86697 0.17887 0.08159 0.0
C28 C 0.84206 0.22644 0.07069 0.0
C29 C 0.82684 0.24577 0.98853 0.0
C30 C 0.83665 0.21743 0.91768 0.0
N31 N 0.81025 0.29704 0.97705 0.0
C32 C 0.75937 0.3129 0.97764 0.0
H33 H 0.41147 0.41134 0.51838 0.0
H34 H 0.28299 0.33397 0.60048 0.0
H35 H 0.28255 0.35371 0.33415 0.0
C36 C 0.37536 0.38945 0.50322 0.0
C37 C 0.3507 0.38348 0.41783 0.0
C38 C 0.35166 0.37174 0.57014 0.0
C39 C 0.30356 0.34479 0.55004 0.0
C40 C 0.27935 0.33725 0.46407 0.0
C41 C 0.30303 0.35696 0.39934 0.0
N42 N 0.22716 0.31898 0.44063 0.0
C43 C 0.20809 0.27308 0.46562 0.0
O44 O 0.97688 0.06509 0.4381 0.0
Mn45 Mn 0.01306 0.01754 0.53914 0.0
O46 O 0.92671 0.01237 0.34475 0.0
Mn47 Mn 0.95469 0.95395 0.39371 0.0
O48 O 0.04717 0.96818 0.63835 0.0
O49 O 0.06889 0.0758 0.57313 0.0
Mn50 Mn 0.07586 0.07252 0.686 0.0
O51 O 0.96249 0.0488 0.61701 0.0
O52 O 0.10711 0.01362 0.72605 0.0
O53 O 0.06447 0.98717 0.46162 0.0
O54 O 0.017 0.93372 0.36647 0.0
O55 O 0.11931 0.12346 0.67513 0.0
O56 O 0.01547 0.08973 0.72365 0.0
C57 C 0.92377 0.92179 0.49161 0.0
C58 C 0.94247 0.05699 0.3699 0.0
C59 C 0.08543 0.97139 0.70159 0.0
C60 C 0.10411 0.11255 0.59492 0.0
C61 C 0.97031 0.07602 0.68634 0.0
C62 C 0.0602 0.9541 0.39985 0.0
O63 O 0.95861 0.95906 0.5056 0.0
O64 O 0.91021 0.90502 0.41378 0.0
O65 O 0.55747 0.56341 0.15635 0.0
Mn66 Mn 0.51742 0.52136 0.04601 0.0
O67 O 0.61152 0.50848 0.22738 0.0
Mn68 Mn 0.57024 0.45647 0.17612 0.0
O69 O 0.47663 0.4791 0.93454 0.0
O70 O 0.47097 0.58749 0.03093 0.0
Mn71 Mn 0.46341 0.58473 0.91798 0.0
O72 O 0.57261 0.55167 0.97749 0.0
O73 O 0.419 0.53391 0.8733 0.0
O74 O 0.46224 0.4922 0.11575 0.0
O75 O 0.50961 0.44607 0.21624 0.0
O76 O 0.43217 0.64259 0.93182 0.0
O77 O 0.52282 0.59265 0.87309 0.0
C78 C 0.59405 0.41493 0.08242 0.0
C79 C 0.5953 0.55352 0.21739 0.0
C80 C 0.43619 0.48919 0.87798 0.0
C81 C 0.44278 0.62892 0.01055 0.0
C82 C 0.56695 0.5779 0.90963 0.0
C83 C 0.46659 0.46424 0.18161 0.0
O84 O 0.565 0.45598 0.06308 0.0
O85 O 0.60381 0.40011 0.1606 0.0
C86 C 0.12805 0.22005 0.4566 0.0
C87 C 0.18223 0.22644 0.48304 0.0
H88 H 0.05959 0.17606 0.46888 0.0
C89 C 0.2106 0.18833 0.52979 0.0
H90 H 0.10562 0.24913 0.41965 0.0
C91 C 0.18461 0.14621 0.55565 0.0
C92 C 0.12981 0.14164 0.53573 0.0
H93 H 0.25241 0.19247 0.55031 0.0
H94 H 0.20694 0.11946 0.59802 0.0
C95 C 0.10184 0.17782 0.483 0.0
C96 C 0.34076 0.66166 0.13815 0.0
C97 C 0.33155 0.71237 0.11291 0.0
H98 H 0.38672 0.59452 0.12844 0.0
C99 C 0.36846 0.73813 0.07519 0.0
H100 H 0.31243 0.64122 0.16745 0.0
C101 C 0.41136 0.71191 0.0549 0.0
C102 C 0.41731 0.65924 0.07026 0.0
H103 H 0.36192 0.77715 0.0549 0.0
H104 H 0.43645 0.73131 0.0179 0.0
C105 C 0.38366 0.63513 0.11714 0.0
C106 C 0.85115 0.81935 0.57769 0.0
C107 C 0.81225 0.84788 0.60655 0.0
H108 H 0.92043 0.82165 0.52277 0.0
C109 C 0.81886 0.90108 0.61817 0.0
H110 H 0.84685 0.77829 0.56854 0.0
C111 C 0.86149 0.92605 0.59307 0.0
C112 C 0.89768 0.89791 0.55586 0.0
H113 H 0.78916 0.9237 0.64085 0.0
H114 H 0.86287 0.96744 0.5941 0.0
C115 C 0.89363 0.84417 0.55287 0.0
C116 C 0.67165 0.30849 0.01532 0.0
C117 C 0.7092 0.33564 0.98114 0.0
H118 H 0.6022 0.31286 0.06931 0.0
C119 C 0.70021 0.38705 0.9598 0.0
H120 H 0.67785 0.26886 0.03222 0.0
C121 C 0.65654 0.41248 0.98053 0.0
C122 C 0.62172 0.38659 0.02312 0.0
H123 H 0.72888 0.40856 0.93293 0.0
H124 H 0.65334 0.45334 0.97191 0.0
C125 C 0.62803 0.33364 0.03538 0.0
C126 C 0.14773 0.94988 0.23792 0.0
C127 C 0.15606 0.89681 0.23271 0.0
H128 H 0.1119 0.01073 0.29903 0.0
C129 C 0.14268 0.8661 0.29721 0.0
H130 H 0.15821 0.9749 0.19032 0.0
C131 C 0.11753 0.88692 0.36021 0.0
C132 C 0.10506 0.93889 0.36066 0.0
H133 H 0.14746 0.82509 0.29536 0.0
H134 H 0.10338 0.86139 0.4039 0.0
C135 C 0.12229 0.97071 0.3013 0.0
C136 C 0.63951 0.67723 0.81739 0.0
C137 C 0.65664 0.64949 0.75112 0.0
H138 H 0.59991 0.67479 0.92385 0.0
C139 C 0.65583 0.59557 0.75365 0.0
H140 H 0.63868 0.71855 0.81798 0.0
C141 C 0.6327 0.57042 0.81462 0.0
C142 C 0.6113 0.59874 0.87536 0.0
H143 H 0.67003 0.57271 0.70534 0.0
H144 H 0.62732 0.52932 0.80937 0.0
C145 C 0.61749 0.65208 0.87896 0.0
C146 C 0.85054 0.12126 0.19628 0.0
C147 C 0.88312 0.15715 0.16743 0.0
H148 H 0.84347 0.06301 0.2853 0.0
C149 C 0.93341 0.16621 0.21513 0.0
H150 H 0.81186 0.1133 0.16041 0.0
C151 C 0.95189 0.13728 0.28759 0.0
C152 C 0.92037 0.09861 0.31264 0.0
H153 H 0.95939 0.19353 0.19351 0.0
H154 H 0.99192 0.1424 0.31962 0.0
C155 C 0.8688 0.09256 0.26799 0.0
C156 C 0.35807 0.44792 0.6639 0.0
C157 C 0.36918 0.3962 0.65573 0.0
H158 H 0.36982 0.51629 0.73686 0.0
C159 C 0.40155 0.37258 0.72405 0.0
H160 H 0.33425 0.4674 0.61192 0.0
C161 C 0.42324 0.40134 0.79862 0.0
C162 C 0.41263 0.45394 0.80535 0.0
H163 H 0.41126 0.33263 0.71873 0.0
H164 H 0.44871 0.38283 0.84971 0.0
C165 C 0.37908 0.47604 0.73662 0.0
C166 C 0.61678 0.67313 0.36494 0.0
C167 C 0.65034 0.65335 0.43571 0.0
H168 H 0.57228 0.65735 0.2392 0.0
C169 C 0.66894 0.60366 0.42919 0.0
H170 H 0.60181 0.71147 0.36818 0.0
C171 C 0.65284 0.57343 0.35655 0.0
C172 C 0.6168 0.59126 0.28708 0.0
H173 H 0.69507 0.58734 0.48198 0.0
H174 H 0.66749 0.53481 0.35701 0.0
C175 C 0.59978 0.64214 0.29125 0.0
C176 C 0.89704 0.17272 0.78972 0.0
C177 C 0.87863 0.14371 0.85183 0.0
H178 H 0.93873 0.17296 0.68547 0.0
C179 C 0.88111 0.08996 0.84529 0.0
H180 H 0.89692 0.21406 0.79285 0.0
C181 C 0.9054 0.06634 0.78279 0.0
C182 C 0.92708 0.09602 0.72528 0.0
H183 H 0.86665 0.06626 0.89104 0.0
H184 H 0.911 0.02538 0.78391 0.0
C185 C 0.92084 0.14915 0.72737 0.0
C186 C 0.39309 0.45847 0.36002 0.0
C187 C 0.37241 0.40849 0.34849 0.0
H188 H 0.43752 0.51687 0.31197 0.0
C189 C 0.37354 0.38233 0.27087 0.0
H190 H 0.3918 0.48013 0.41822 0.0
C191 C 0.39864 0.40403 0.20928 0.0
C192 C 0.42236 0.45246 0.22365 0.0
H193 H 0.35796 0.34382 0.25999 0.0
H194 H 0.40334 0.38123 0.15368 0.0
C195 C 0.41796 0.48016 0.29826 0.0
C196 C 0.17189 0.88883 0.85381 0.0
C197 C 0.13963 0.87992 0.91411 0.0
H198 H 0.17923 0.92451 0.73652 0.0
C199 C 0.08639 0.89215 0.89349 0.0
H200 H 0.21305 0.87995 0.868 0.0
C201 C 0.06663 0.91592 0.81677 0.0
C202 C 0.09989 0.92874 0.75984 0.0
H203 H 0.06052 0.88539 0.9385 0.0
H204 H 0.02648 0.92851 0.80574 0.0
C205 C 0.15238 0.91369 0.77804 0.0
loop_
_geom_bond_atom_site_label_1
_geom_bond_atom_site_label_2
_geom_bond_distance
_geom_bond_site_symmetry_2
_ccdc_geom_bond_type
H0 C3 0.929 . S
H1 C6 0.929 . S
H2 C8 0.930 . S
C3 H0 0.929 . S
C3 C4 1.398 1_554 S
C3 C5 1.396 . S
C4 C3 1.398 1_556 S
C4 C8 1.407 . S
C5 C3 1.396 . S
C5 C6 1.394 . S
C6 H1 0.929 . S
C6 C5 1.394 . S
C6 C7 1.382 . S
C7 C6 1.382 . S
C7 C8 1.392 1_554 S
C7 N9 1.420 . S
C8 H2 0.930 . S
C8 C4 1.407 . S
C8 C7 1.392 1_556 S
N9 C7 1.420 . S
N9 C10 1.244 . S
C10 N9 1.244 . S
H11 C14 0.929 . S
H12 C17 0.929 . S
H13 C19 0.930 . S
C14 H11 0.929 . S
C14 C15 1.398 . S
C14 C16 1.396 . S
C15 C14 1.398 . S
C15 C19 1.407 . S
C16 C14 1.396 . S
C16 C17 1.394 . S
C17 H12 0.929 . S
C17 C16 1.394 . S
C17 C18 1.382 . S
C18 C17 1.382 . S
C18 C19 1.392 . S
C18 N20 1.420 . S
C19 H13 0.930 . S
C19 C15 1.407 . S
C19 C18 1.392 . S
N20 C18 1.420 . S
N20 C21 1.244 . S
C21 N20 1.244 . S
H22 C25 0.929 . S
H23 C28 0.929 . S
H24 C30 0.930 . S
C25 H22 0.929 . S
C25 C26 1.398 1_554 S
C25 C27 1.396 . S
C26 C25 1.398 1_556 S
C26 C30 1.407 . S
C27 C25 1.396 . S
C27 C28 1.394 . S
C28 H23 0.929 . S
C28 C27 1.394 . S
C28 C29 1.382 1_554 S
C29 C28 1.382 1_556 S
C29 C30 1.392 . S
C29 N31 1.420 . S
C30 H24 0.930 . S
C30 C26 1.407 . S
C30 C29 1.392 . S
N31 C29 1.420 . S
N31 C32 1.244 1_556 S
C32 N31 1.244 1_554 S
H33 C36 0.929 . S
H34 C39 0.929 . S
H35 C41 0.930 . S
C36 H33 0.929 . S
C36 C37 1.398 . S
C36 C38 1.396 . S
C37 C36 1.398 . S
C37 C41 1.407 . S
C38 C36 1.396 . S
C38 C39 1.394 . S
C39 H34 0.929 . S
C39 C38 1.394 . S
C39 C40 1.382 . S
C40 C39 1.382 . S
C40 C41 1.392 . S
C40 N42 1.420 . S
C41 H35 0.930 . S
C41 C37 1.407 . S
C41 C40 1.392 . S
N42 C40 1.420 . S
N42 C43 1.244 . S
C43 N42 1.244 . S
O44 Mn45 2.163 1_655 S
O44 C58 1.244 . S
Mn45 O44 2.163 1_455 S
Mn45 O48 2.160 1_545 S
Mn45 O49 2.221 . S
Mn45 O51 2.163 1_455 S
Mn45 O53 2.160 1_545 S
Mn45 O63 2.221 1_445 S
O46 Mn47 2.087 1_545 S
O46 C58 1.256 . S
Mn47 O46 2.087 1_565 S
Mn47 O54 2.089 1_655 S
Mn47 O63 2.290 . S
Mn47 O64 2.251 . S
O48 Mn45 2.160 1_565 S
O48 C59 1.239 . S
O49 Mn45 2.221 . S
O49 Mn50 2.290 . S
O49 C60 1.278 . S
Mn50 O49 2.290 . S
Mn50 O52 2.089 . S
Mn50 O55 2.251 . S
Mn50 O56 2.087 . S
O51 Mn45 2.163 1_655 S
O51 C61 1.244 . S
O52 Mn50 2.089 . S
O52 C59 1.256 1_545 S
O53 Mn45 2.160 1_565 S
O53 C62 1.239 . S
O54 Mn47 2.089 1_455 S
O54 C62 1.256 . S
O55 Mn50 2.251 . S
O55 C60 1.241 . S
O56 Mn50 2.087 . S
O56 C61 1.256 1_455 S
C57 O63 1.278 . S
C57 O64 1.241 . S
C58 O44 1.244 . S
C58 O46 1.256 . S
C59 O48 1.239 . S
C59 O52 1.256 1_565 S
C60 O49 1.278 . S
C60 O55 1.241 . S
C61 O51 1.244 . S
C61 O56 1.256 1_655 S
C62 O53 1.239 . S
C62 O54 1.256 . S
O63 Mn45 2.221 1_665 S
O63 Mn47 2.290 . S
O63 C57 1.278 . S
O64 Mn47 2.251 . S
O64 C57 1.241 . S
O65 Mn66 2.163 . S
O65 C79 1.244 . S
Mn66 O65 2.163 . S
Mn66 O69 2.160 1_554 S
Mn66 O70 2.221 . S
Mn66 O72 2.163 1_554 S
Mn66 O74 2.160 . S
Mn66 O84 2.221 . S
O67 Mn68 2.087 . S
O67 C79 1.256 . S
Mn68 O67 2.087 . S
Mn68 O75 2.089 . S
Mn68 O84 2.290 . S
Mn68 O85 2.251 . S
O69 Mn66 2.160 1_556 S
O69 C80 1.239 . S
O70 Mn66 2.221 . S
O70 Mn71 2.290 1_554 S
O70 C81 1.278 . S
Mn71 O70 2.290 1_556 S
Mn71 O73 2.089 . S
Mn71 O76 2.251 . S
Mn71 O77 2.087 . S
O72 Mn66 2.163 1_556 S
O72 C82 1.244 . S
O73 Mn71 2.089 . S
O73 C80 1.256 . S
O74 Mn66 2.160 . S
O74 C83 1.239 . S
O75 Mn68 2.089 . S
O75 C83 1.256 . S
O76 Mn71 2.251 . S
O76 C81 1.241 1_556 S
O77 Mn71 2.087 . S
O77 C82 1.256 . S
C78 O84 1.278 . S
C78 O85 1.241 . S
C79 O65 1.244 . S
C79 O67 1.256 . S
C80 O69 1.239 . S
C80 O73 1.256 . S
C81 O70 1.278 . S
C81 O76 1.241 1_554 S
C82 O72 1.244 . S
C82 O77 1.256 . S
C83 O74 1.239 . S
C83 O75 1.256 . S
O84 Mn66 2.221 . S
O84 Mn68 2.290 . S
O84 C78 1.278 . S
O85 Mn68 2.251 . S
O85 C78 1.241 . S
C86 C87 1.387 . S
C86 H90 0.950 . S
C86 C95 1.390 . S
C87 C86 1.387 . S
C87 C89 1.387 . S
H88 C95 0.950 . S
C89 C87 1.387 . S
C89 C91 1.390 . S
C89 H93 0.950 . S
H90 C86 0.950 . S
C91 C89 1.390 . S
C91 C92 1.387 . S
C91 H94 0.950 . S
C92 C91 1.387 . S
C92 C95 1.387 . S
H93 C89 0.950 . S
H94 C91 0.950 . S
C95 C86 1.390 . S
C95 H88 0.950 . S
C95 C92 1.387 . S
C96 C97 1.387 . S
C96 H100 0.950 . S
C96 C105 1.390 . S
C97 C96 1.387 . S
C97 C99 1.387 . S
H98 C105 0.950 . S
C99 C97 1.387 . S
C99 C101 1.390 . S
C99 H103 0.950 1_554 S
H100 C96 0.950 . S
C101 C99 1.390 . S
C101 C102 1.387 . S
C101 H104 0.950 1_554 S
C102 C101 1.387 . S
C102 C105 1.387 . S
H103 C99 0.950 1_556 S
H104 C101 0.950 1_556 S
C105 C96 1.390 . S
C105 H98 0.950 . S
C105 C102 1.387 . S
C106 C107 1.387 . S
C106 H110 0.950 . S
C106 C115 1.390 . S
C107 C106 1.387 . S
C107 C109 1.387 . S
H108 C115 0.950 . S
C109 C107 1.387 . S
C109 C111 1.390 . S
C109 H113 0.950 . S
H110 C106 0.950 . S
C111 C109 1.390 . S
C111 C112 1.387 . S
C111 H114 0.950 . S
C112 C111 1.387 . S
C112 C115 1.387 . S
H113 C109 0.950 . S
H114 C111 0.950 . S
C115 C106 1.390 . S
C115 H108 0.950 . S
C115 C112 1.387 . S
C116 C117 1.387 . S
C116 H120 0.950 . S
C116 C125 1.390 . S
C117 C116 1.387 . S
C117 C119 1.387 1_554 S
H118 C125 0.950 . S
C119 C117 1.387 1_556 S
C119 C121 1.390 . S
C119 H123 0.950 . S
H120 C116 0.950 . S
C121 C119 1.390 . S
C121 C122 1.387 1_556 S
C121 H124 0.950 . S
C122 C121 1.387 1_554 S
C122 C125 1.387 . S
H123 C119 0.950 . S
H124 C121 0.950 . S
C125 C116 1.390 . S
C125 H118 0.950 . S
C125 C122 1.387 . S
C126 C127 1.387 . S
C126 H130 0.950 . S
C126 C135 1.390 . S
C127 C126 1.387 . S
C127 C129 1.387 . S
H128 C135 0.950 1_545 S
C129 C127 1.387 . S
C129 C131 1.390 . S
C129 H133 0.950 . S
H130 C126 0.950 . S
C131 C129 1.390 . S
C131 C132 1.387 . S
C131 H134 0.950 . S
C132 C131 1.387 . S
C132 C135 1.387 . S
H133 C129 0.950 . S
H134 C131 0.950 . S
C135 C126 1.390 . S
C135 H128 0.950 1_565 S
C135 C132 1.387 . S
C136 C137 1.387 . S
C136 H140 0.950 . S
C136 C145 1.390 . S
C137 C136 1.387 . S
C137 C139 1.387 . S
H138 C145 0.950 . S
C139 C137 1.387 . S
C139 C141 1.390 . S
C139 H143 0.950 . S
H140 C136 0.950 . S
C141 C139 1.390 . S
C141 C142 1.387 . S
C141 H144 0.950 . S
C142 C141 1.387 . S
C142 C145 1.387 . S
H143 C139 0.950 . S
H144 C141 0.950 . S
C145 C136 1.390 . S
C145 H138 0.950 . S
C145 C142 1.387 . S
C146 C147 1.387 . S
C146 H150 0.950 . S
C146 C155 1.390 . S
C147 C146 1.387 . S
C147 C149 1.387 . S
H148 C155 0.950 . S
C149 C147 1.387 . S
C149 C151 1.390 . S
C149 H153 0.950 . S
H150 C146 0.950 . S
C151 C149 1.390 . S
C151 C152 1.387 . S
C151 H154 0.950 . S
C152 C151 1.387 . S
C152 C155 1.387 . S
H153 C149 0.950 . S
H154 C151 0.950 . S
C155 C146 1.390 . S
C155 H148 0.950 . S
C155 C152 1.387 . S
C156 C157 1.387 . S
C156 H160 0.950 . S
C156 C165 1.390 . S
C157 C156 1.387 . S
C157 C159 1.387 . S
H158 C165 0.950 . S
C159 C157 1.387 . S
C159 C161 1.390 . S
C159 H163 0.950 . S
H160 C156 0.950 . S
C161 C159 1.390 . S
C161 C162 1.387 . S
C161 H164 0.950 . S
C162 C161 1.387 . S
C162 C165 1.387 . S
H163 C159 0.950 . S
H164 C161 0.950 . S
C165 C156 1.390 . S
C165 H158 0.950 . S
C165 C162 1.387 . S
C166 C167 1.387 . S
C166 H170 0.950 . S
C166 C175 1.390 . S
C167 C166 1.387 . S
C167 C169 1.387 . S
H168 C175 0.950 . S
C169 C167 1.387 . S
C169 C171 1.390 . S
C169 H173 0.950 . S
H170 C166 0.950 . S
C171 C169 1.390 . S
C171 C172 1.387 . S
C171 H174 0.950 . S
C172 C171 1.387 . S
C172 C175 1.387 . S
H173 C169 0.950 . S
H174 C171 0.950 . S
C175 C166 1.390 . S
C175 H168 0.950 . S
C175 C172 1.387 . S
C176 C177 1.387 . S
C176 H180 0.950 . S
C176 C185 1.390 . S
C177 C176 1.387 . S
C177 C179 1.387 . S
H178 C185 0.950 . S
C179 C177 1.387 . S
C179 C181 1.390 . S
C179 H183 0.950 . S
H180 C176 0.950 . S
C181 C179 1.390 . S
C181 C182 1.387 . S
C181 H184 0.950 . S
C182 C181 1.387 . S
C182 C185 1.387 . S
H183 C179 0.950 . S
H184 C181 0.950 . S
C185 C176 1.390 . S
C185 H178 0.950 . S
C185 C182 1.387 . S
C186 C187 1.387 . S
C186 H190 0.950 . S
C186 C195 1.390 . S
C187 C186 1.387 . S
C187 C189 1.387 . S
H188 C195 0.950 . S
C189 C187 1.387 . S
C189 C191 1.390 . S
C189 H193 0.950 . S
H190 C186 0.950 . S
C191 C189 1.390 . S
C191 C192 1.387 . S
C191 H194 0.950 . S
C192 C191 1.387 . S
C192 C195 1.387 . S
H193 C189 0.950 . S
H194 C191 0.950 . S
C195 C186 1.390 . S
C195 H188 0.950 . S
C195 C192 1.387 . S
C196 C197 1.387 . S
C196 H200 0.950 . S
C196 C205 1.390 . S
C197 C196 1.387 . S
C197 C199 1.387 . S
H198 C205 0.950 . S
C199 C197 1.387 . S
C199 C201 1.390 . S
C199 H203 0.950 . S
H200 C196 0.950 . S
C201 C199 1.390 . S
C201 C202 1.387 . S
C201 H204 0.950 . S
C202 C201 1.387 . S
C202 C205 1.387 . S
H203 C199 0.950 . S
H204 C201 0.950 . S
C205 C196 1.390 . S
C205 H198 0.950 . S
C205 C202 1.387 . S
C92 C60 1.263 . S
C87 C43 1.451 . S
C97 C10 1.486 . S
C102 C81 1.309 . S
C107 C21 1.574 . S
C112 C57 1.394 . S
C117 C32 1.574 . S
C122 C78 1.368 . S
C132 C62 1.502 . S
C127 C5 1.499 . S
C142 C82 1.524 . S
C137 C15 1.590 . S
C147 C27 1.578 . S
C152 C58 1.545 . S
C157 C38 1.510 . S
C162 C80 1.453 . S
C172 C79 1.475 . S
C167 C16 1.513 . S
C182 C61 1.463 . S
C177 C26 1.522 . S
C192 C83 1.426 . S
C187 C37 1.455 . S
C197 C4 1.462 . S
C202 C59 1.401 . S
