# Generated by pormake.
# Topology rtl, (3,6)-cn, num edge types: 1
# Building blocks:
#     Node 0, Type 0, BuildingBlock: QEWDON_clean_linker_0, # of connection points: 3
#     Node 1, Type 0, BuildingBlock: QEWDON_clean_linker_0, # of connection points: 3
#     Node 2, Type 0, BuildingBlock: QEWDON_clean_linker_0, # of connection points: 3
#     Node 3, Type 0, BuildingBlock: QEWDON_clean_linker_0, # of connection points: 3
#     Node 4, Type 1, BuildingBlock: KUMBUR_clean_sbu_1, # of connection points: 6
#     Node 5, Type 1, BuildingBlock: KUMBUR_clean_sbu_1, # of connection points: 6
#     Edge 6, Type (0, 1), None
#     Edge 7, Type (0, 1), None
#     Edge 8, Type (0, 1), None
#     Edge 9, Type (0, 1), None
#     Edge 10, Type (0, 1), None
#     Edge 11, Type (0, 1), None
#     Edge 12, Type (0, 1), None
#     Edge 13, Type (0, 1), None
#     Edge 14, Type (0, 1), None
#     Edge 15, Type (0, 1), None
#     Edge 16, Type (0, 1), None
#     Edge 17, Type (0, 1), None
# Relax obj value: 0.089
# Max RMSD: 0.324
# Mean RMSD: 0.239
data_MOF--net-rtl--node1-KUMBUR_clean_sbu_1--node2-QEWDON_clean_linker_0--edge1-none
_symmetry_space_group_name_H-M    P1
_symmetry_Int_Tables_number       1
_symmetry_cell_setting            triclinic
loop_
_symmetry_equiv_pos_as_xyz
'x, y, z'
_cell_length_a     18.066219
_cell_length_b     18.60718
_cell_length_c     13.519685
_cell_angle_alpha  67.747377
_cell_angle_beta   100.69983
_cell_angle_gamma 92.749342
loop_
_atom_site_label
_atom_site_type_symbol
_atom_site_fract_x
_atom_site_fract_y
_atom_site_fract_z
_atom_type_partial_charge
H0 H 0.28998 0.81157 0.1734 0.0
C1 C 0.25521 0.83969 0.09404 0.0
C2 C 0.18213 0.86815 0.08522 0.0
C3 C 0.28351 0.84801 1.00056 0.0
H4 H 0.08173 0.92687 0.97318 0.0
C5 C 0.13794 0.9051 0.98088 0.0
C6 C 0.16467 0.909 0.88721 0.0
C7 C 0.23731 0.88119 0.89866 0.0
C8 C 0.36236 0.8271 1.00424 0.0
H9 H 0.2595 0.88748 0.82749 0.0
C10 C 0.38818 0.74916 0.04659 0.0
C11 C 0.45629 0.73029 0.024 0.0
C12 C 0.40788 0.8857 0.94704 0.0
H13 H 0.38891 0.94596 0.91343 0.0
C14 C 0.47617 0.86701 0.92771 0.0
H15 H 0.35314 0.70344 0.08972 0.0
C16 C 0.49934 0.7896 0.96342 0.0
H17 H 0.5512 0.77585 0.94415 0.0
H18 H 0.51001 0.91256 0.88171 0.0
H19 H 0.79137 0.69073 0.66135 0.0
C20 C 0.75031 0.67845 0.71368 0.0
C21 C 0.69905 0.61912 0.71589 0.0
C22 C 0.7561 0.71339 0.79018 0.0
H23 H 0.61149 0.55114 0.79132 0.0
C24 C 0.6486 0.59934 0.78802 0.0
C25 C 0.65307 0.63275 0.86579 0.0
C26 C 0.70699 0.69002 0.86655 0.0
C27 C 0.82643 0.7541 0.81194 0.0
H28 H 0.71397 0.71308 0.93021 0.0
C29 C 0.84955 0.82374 0.73543 0.0
C30 C 0.91827 0.85755 0.76363 0.0
C31 C 0.87434 0.71741 0.91172 0.0
H32 H 0.85984 0.66178 0.96754 0.0
C33 C 0.94168 0.75034 0.93904 0.0
H34 H 0.81412 0.85175 0.65669 0.0
C35 C 0.96281 0.82016 0.86645 0.0
H36 H 1.01535 0.84407 0.89033 0.0
H37 H 0.97806 0.7215 1.01655 0.0
H38 H 0.83704 0.17238 0.364 0.0
C39 C 0.86991 0.18096 0.30142 0.0
C40 C 0.94213 0.14567 0.32865 0.0
C41 C 0.83875 0.22378 0.19229 0.0
H42 H 0.03844 0.12642 0.26683 0.0
C43 C 0.98265 0.15294 0.24619 0.0
C44 C 0.95211 0.1967 0.13732 0.0
C45 C 0.88119 0.23267 0.11146 0.0
C46 C 0.75783 0.24653 0.15631 0.0
H47 H 0.85753 0.26569 0.0269 0.0
C48 C 0.72552 0.30932 0.17024 0.0
C49 C 0.65289 0.33954 0.11082 0.0
C50 C 0.71522 0.21024 0.09146 0.0
H51 H 0.73867 0.16157 0.08099 0.0
C52 C 0.6444 0.23895 0.03387 0.0
H53 H 0.75795 0.33548 0.22267 0.0
C54 C 0.61473 0.304 0.04037 0.0
H55 H 0.56058 0.32562 0.98949 0.0
H56 H 0.61317 0.2121 0.98103 0.0
H57 H 0.31756 0.33886 0.57669 0.0
C58 C 0.35119 0.3585 0.51325 0.0
C59 C 0.38855 0.43042 0.49063 0.0
C60 C 0.35772 0.31295 0.45177 0.0
H61 H 0.46467 0.50751 0.39512 0.0
C62 C 0.43467 0.45358 0.41156 0.0
C63 C 0.4386 0.41112 0.34805 0.0
C64 C 0.39873 0.34308 0.36601 0.0
C65 C 0.32585 0.2334 0.47292 0.0
H66 H 0.40069 0.31287 0.31274 0.0
C67 C 0.25394 0.21057 0.50215 0.0
C68 C 0.22261 0.14008 0.49653 0.0
C69 C 0.36784 0.18048 0.45189 0.0
H70 H 0.42532 0.19174 0.43874 0.0
C71 C 0.33512 0.11566 0.43786 0.0
H72 H 0.22214 0.24784 0.52487 0.0
C73 C 0.26213 0.09806 0.45412 0.0
H74 H 0.23861 0.04835 0.43776 0.0
H75 H 0.36625 0.07933 0.41263 0.0
Tb76 Tb 0.05787 0.94127 0.53949 0.0
C77 C 0.94569 0.26284 0.55976 0.0
N78 N 1.01543 0.2303 0.60623 0.0
C79 C 0.06959 0.35639 0.55704 0.0
C80 C 0.93525 0.34407 0.50852 0.0
C81 C 0.07723 0.27546 0.60542 0.0
C82 C 0.99827 0.39092 0.50824 0.0
C83 C 0.81188 0.24607 0.51054 0.0
C84 C 0.88484 0.21423 0.56133 0.0
C85 C 0.80143 0.32679 0.45757 0.0
C86 C 0.86272 0.37577 0.45811 0.0
Tb87 Tb 1.02206 0.09861 0.68158 0.0
N88 N 0.8975 0.13595 0.61076 0.0
C89 C 0.7515 0.1959 0.51433 0.0
C90 C 0.83774 0.08727 0.61948 0.0
C91 C 0.76444 0.11626 0.57016 0.0
H92 H 0.1325 0.24923 0.6438 0.0
H93 H 0.71777 0.07703 0.57623 0.0
H94 H 0.91035 0.82918 0.53817 0.0
H95 H 0.35635 0.87732 0.67455 0.0
H96 H 0.84436 0.02631 0.66604 0.0
H97 H 0.69466 0.21811 0.47604 0.0
H98 H 0.2424 0.96134 0.60693 0.0
H99 H 0.11871 0.39203 0.5573 0.0
H100 H 0.74587 0.35183 0.41705 0.0
H101 H 0.85351 0.43804 0.41937 0.0
H102 H 0.88834 0.68885 0.58654 0.0
H103 H 0.99252 0.45362 0.47 0.0
H104 H 0.34453 0.73492 0.73377 0.0
N105 N 1.028 0.81338 0.6008 0.0
C106 C 0.08722 0.76205 0.64626 0.0
C107 C 0.94379 0.70866 0.6081 0.0
C108 C 0.0767 0.68153 0.67612 0.0
C109 C 0.95674 0.78802 0.58054 0.0
C110 C 1.0037 0.65506 0.65812 0.0
N111 N 0.16654 0.86891 0.62204 0.0
C112 C 0.23638 0.90011 0.62766 0.0
C113 C 0.22253 0.74027 0.69462 0.0
C114 C 0.15907 0.79086 0.65483 0.0
C115 C 0.29429 0.77186 0.70183 0.0
C116 C 0.30122 0.85222 0.66804 0.0
H117 H 0.99342 0.59375 0.67793 0.0
H118 H 0.13284 0.56865 0.73829 0.0
H119 H 0.25975 0.62058 0.75112 0.0
O120 O 0.11024 0.97061 0.40134 0.0
O121 O 0.10281 0.90157 0.71683 0.0
O122 O 0.11854 0.01959 0.72839 0.0
O123 O 1.00619 0.91133 0.40789 0.0
O124 O 0.12834 0.04435 0.51129 0.0
O125 O 0.12442 0.12733 0.60564 0.0
O126 O 0.9782 0.09354 0.81901 0.0
O127 O 0.99582 0.14398 0.504 0.0
O128 O 0.96742 0.02863 0.4885 0.0
O129 O 0.09204 0.12631 0.80352 0.0
O130 O 0.97403 0.98133 0.7379 0.0
O131 O 0.9501 0.94405 0.59076 0.0
C132 C 0.11915 0.94426 0.77652 0.0
C133 C 0.09051 0.87819 0.31551 0.0
C134 C 0.14881 0.84716 0.18516 0.0
C135 C 0.14395 0.76783 0.24754 0.0
C136 C 0.08462 0.79809 0.37308 0.0
C137 C 0.11183 0.74367 0.3403 0.0
C138 C 0.12191 0.90281 0.21942 0.0
C139 C 0.15186 0.10513 0.53637 0.0
C140 C 0.0612 0.9346 0.35438 0.0
C141 C 0.1396 0.63067 0.71601 0.0
C142 C 0.21219 0.6602 0.72373 0.0
C143 C 0.97656 0.10345 0.44297 0.0
C144 C 0.03516 0.17504 0.91093 0.0
C145 C 0.99552 0.21079 0.04981 0.0
C146 C 0.032 0.28146 1.01216 0.0
C147 C 0.07388 0.24517 0.8776 0.0
C148 C 0.99644 0.1577 0.99848 0.0
C149 C 0.07163 0.29818 0.92728 0.0
C150 C 0.94567 0.93224 0.69186 0.0
C151 C 0.04034 0.11691 0.86206 0.0
H152 H 0.16385 0.72416 0.22307 0.0
H153 H 0.05744 0.77683 0.44255 0.0
H154 H 0.10709 0.68228 0.38646 0.0
H155 H 0.12563 0.96425 0.17224 0.0
H156 H 0.02961 0.32363 0.04885 0.0
H157 H 0.10702 0.2589 0.81442 0.0
H158 H 0.96732 0.10334 0.02656 0.0
H159 H 0.10104 0.35228 0.9002 0.0
Tb160 Tb 0.4494 0.50142 0.99741 0.0
C161 C 0.75927 0.64294 0.1761 0.0
N162 N 0.73639 0.57007 0.18706 0.0
C163 C 0.86259 0.53246 0.19167 0.0
C164 C 0.83505 0.66351 0.17159 0.0
C165 C 0.78665 0.51523 0.19369 0.0
C166 C 0.88716 0.60655 0.1823 0.0
C167 C 0.72909 0.77213 0.16325 0.0
C168 C 0.70706 0.69611 0.17395 0.0
C169 C 0.80354 0.79411 0.15251 0.0
C170 C 0.85666 0.73959 0.15844 0.0
Tb171 Tb 0.61595 0.54385 0.21614 0.0
N172 N 0.63644 0.67183 0.18991 0.0
C173 C 0.67685 0.82259 0.16954 0.0
C174 C 0.58889 0.71817 0.2093 0.0
C175 C 0.60696 0.79492 0.19496 0.0
H176 H 0.76954 0.45708 0.20615 0.0
H177 H 0.5676 0.83208 0.20605 0.0
H178 H 0.33072 0.64953 0.94311 0.0
H179 H 0.42723 0.1898 0.19222 0.0
H180 H 0.53673 0.69651 0.23656 0.0
H181 H 0.69136 0.88161 0.16074 0.0
H182 H 0.49605 0.31027 0.12681 0.0
H183 H 0.90237 0.48805 0.19964 0.0
H184 H 0.82134 0.85229 0.14392 0.0
H185 H 0.91453 0.75664 0.15406 0.0
H186 H 0.19988 0.66529 0.95941 0.0
H187 H 0.94625 0.61942 0.18209 0.0
H188 H 0.29104 0.19517 0.19434 0.0
N189 N 0.33224 0.52615 1.01724 0.0
C190 C 0.29078 0.46164 0.05463 0.0
C191 C 0.2251 0.6077 0.98817 0.0
C192 C 0.21467 0.468 0.06127 0.0
C193 C 0.30018 0.59861 0.98185 0.0
C194 C 0.18205 0.54215 0.02777 0.0
N195 N 0.40037 0.38459 0.08687 0.0
C196 C 0.43697 0.31427 0.12452 0.0
C197 C 0.28426 0.32085 0.12896 0.0
C198 C 0.32556 0.38873 0.08895 0.0
C199 C 0.32103 0.24864 0.16394 0.0
C200 C 0.39787 0.24538 0.16267 0.0
H201 H 0.12354 0.54943 0.03108 0.0
H202 H 0.11536 0.40444 0.10812 0.0
H203 H 0.17585 0.27549 0.16621 0.0
O204 O 0.43484 0.44093 0.89002 0.0
O205 O 0.43144 0.48349 0.15992 0.0
O206 O 0.54748 0.44077 0.26214 0.0
O207 O 0.37329 0.5464 0.85306 0.0
O208 O 0.55322 0.43364 0.03964 0.0
O209 O 0.63785 0.43487 0.19335 0.0
O210 O 0.59711 0.55711 0.35797 0.0
O211 O 0.63893 0.59732 0.05096 0.0
O212 O 0.54497 0.5654 0.92936 0.0
O213 O 0.6975 0.49604 0.35848 0.0
O214 O 0.5043 0.60367 0.15367 0.0
O215 O 0.46537 0.62237 0.97399 0.0
C216 C 0.47436 0.44416 0.25233 0.0
C217 C 0.38878 0.51755 0.70337 0.0
C218 C 0.37925 0.48573 0.54277 0.0
C219 C 0.36978 0.5656 0.47766 0.0
C220 C 0.38375 0.59707 0.63693 0.0
C221 C 0.37324 0.6207 0.52466 0.0
C222 C 0.38719 0.46186 0.65593 0.0
C223 C 0.61445 0.40833 0.11449 0.0
C224 C 0.38561 0.49233 0.81937 0.0
C225 C 0.17369 0.40042 0.10153 0.0
C226 C 0.20819 0.3271 0.13471 0.0
C227 C 0.60904 0.59784 0.95406 0.0
C228 C 0.68835 0.51122 0.52622 0.0
C229 C 0.71247 0.56213 0.66972 0.0
C230 C 0.75662 0.49548 0.737 0.0
C231 C 0.73197 0.44461 0.59477 0.0
C232 C 0.67789 0.5699 0.56435 0.0
C233 C 0.76601 0.43687 0.69968 0.0
C234 C 0.47971 0.64932 0.0519 0.0
C235 C 0.66162 0.52332 0.41186 0.0
H236 H 0.3616 0.58572 0.38987 0.0
H237 H 0.38555 0.64118 0.6712 0.0
H238 H 0.36753 0.6819 0.47383 0.0
H239 H 0.39282 0.40055 0.70683 0.0
H240 H 0.7829 0.48843 0.81912 0.0
H241 H 0.74012 0.39876 0.56705 0.0
H242 H 0.64439 0.62171 0.51206 0.0
H243 H 0.79979 0.38544 0.75205 0.0
loop_
_geom_bond_atom_site_label_1
_geom_bond_atom_site_label_2
_geom_bond_distance
_geom_bond_site_symmetry_2
_ccdc_geom_bond_type
H0 C1 0.949 . S
C1 H0 0.949 . S
C1 C2 1.395 . S
C1 C3 1.391 1_554 S
C2 C1 1.395 . S
C2 C5 1.390 1_554 S
C3 C1 1.391 1_556 S
C3 C7 1.387 . S
C3 C8 1.491 . S
H4 C5 0.950 . S
C5 C2 1.390 1_556 S
C5 H4 0.950 . S
C5 C6 1.378 . S
C6 C5 1.378 . S
C6 C7 1.409 . S
C7 C3 1.387 . S
C7 C6 1.409 . S
C7 H9 0.951 . S
C8 C3 1.491 . S
C8 C10 1.382 1_556 S
C8 C12 1.404 . S
H9 C7 0.951 . S
C10 C8 1.382 1_554 S
C10 C11 1.390 . S
C10 H15 0.949 . S
C11 C10 1.390 . S
C11 C16 1.399 . S
C12 C8 1.404 . S
C12 H13 0.950 . S
C12 C14 1.375 . S
H13 C12 0.950 . S
C14 C12 1.375 . S
C14 C16 1.382 1_556 S
C14 H18 0.950 . S
H15 C10 0.949 . S
C16 C11 1.399 . S
C16 C14 1.382 1_554 S
C16 H17 0.952 . S
H17 C16 0.952 . S
H18 C14 0.950 . S
H19 C20 0.949 . S
C20 H19 0.949 . S
C20 C21 1.395 . S
C20 C22 1.391 . S
C21 C20 1.395 . S
C21 C24 1.390 . S
C22 C20 1.391 . S
C22 C26 1.387 . S
C22 C27 1.491 . S
H23 C24 0.950 . S
C24 C21 1.390 . S
C24 H23 0.950 . S
C24 C25 1.378 . S
C25 C24 1.378 . S
C25 C26 1.409 . S
C26 C22 1.387 . S
C26 C25 1.409 . S
C26 H28 0.951 . S
C27 C22 1.491 . S
C27 C29 1.382 . S
C27 C31 1.404 . S
H28 C26 0.951 . S
C29 C27 1.382 . S
C29 C30 1.390 . S
C29 H34 0.949 . S
C30 C29 1.390 . S
C30 C35 1.399 . S
C31 C27 1.404 . S
C31 H32 0.950 . S
C31 C33 1.375 . S
H32 C31 0.950 . S
C33 C31 1.375 . S
C33 C35 1.382 . S
C33 H37 0.950 . S
H34 C29 0.949 . S
C35 C30 1.399 . S
C35 C33 1.382 . S
C35 H36 0.952 . S
H36 C35 0.952 . S
H37 C33 0.950 . S
H38 C39 0.949 . S
C39 H38 0.949 . S
C39 C40 1.395 . S
C39 C41 1.391 . S
C40 C39 1.395 . S
C40 C43 1.390 . S
C41 C39 1.391 . S
C41 C45 1.387 . S
C41 C46 1.491 . S
H42 C43 0.950 . S
C43 C40 1.390 . S
C43 H42 0.950 . S
C43 C44 1.378 . S
C44 C43 1.378 . S
C44 C45 1.409 . S
C45 C41 1.387 . S
C45 C44 1.409 . S
C45 H47 0.951 1_554 S
C46 C41 1.491 . S
C46 C48 1.382 . S
C46 C50 1.404 . S
H47 C45 0.951 1_556 S
C48 C46 1.382 . S
C48 C49 1.390 . S
C48 H53 0.949 . S
C49 C48 1.390 . S
C49 C54 1.399 . S
C50 C46 1.404 . S
C50 H51 0.948 1_554 S
C50 C52 1.375 1_554 S
H51 C50 0.948 1_556 S
C52 C50 1.375 1_556 S
C52 C54 1.382 1_556 S
C52 H56 0.950 . S
H53 C48 0.949 . S
C54 C49 1.399 . S
C54 C52 1.382 1_554 S
C54 H55 0.952 . S
H55 C54 0.952 . S
H56 C52 0.950 . S
H57 C58 0.949 . S
C58 H57 0.949 . S
C58 C59 1.395 . S
C58 C60 1.391 . S
C59 C58 1.395 . S
C59 C62 1.390 . S
C60 C58 1.391 . S
C60 C64 1.387 . S
C60 C65 1.491 . S
H61 C62 0.950 . S
C62 C59 1.390 . S
C62 H61 0.950 . S
C62 C63 1.378 . S
C63 C62 1.378 . S
C63 C64 1.409 . S
C64 C60 1.387 . S
C64 C63 1.409 . S
C64 H66 0.951 . S
C65 C60 1.491 . S
C65 C67 1.382 . S
C65 C69 1.404 . S
H66 C64 0.951 . S
C67 C65 1.382 . S
C67 C68 1.390 . S
C67 H72 0.949 . S
C68 C67 1.390 . S
C68 C73 1.399 . S
C69 C65 1.404 . S
C69 H70 0.950 . S
C69 C71 1.375 . S
H70 C69 0.950 . S
C71 C69 1.375 . S
C71 C73 1.382 . S
C71 H75 0.950 . S
H72 C67 0.949 . S
C73 C68 1.399 . S
C73 C71 1.382 . S
C73 H74 0.952 . S
H74 C73 0.952 . S
H75 C71 0.950 . S
Tb76 N105 2.617 . S
Tb76 N111 2.572 . S
Tb76 O120 2.465 . S
Tb76 O121 2.387 . S
Tb76 O123 2.428 . S
Tb76 O124 2.308 1_565 S
Tb76 O128 2.349 1_465 S
Tb76 O131 2.393 1_455 S
Tb76 C140 2.802 . S
C77 N78 1.379 . S
C77 C80 1.416 . S
C77 C84 1.424 . S
N78 C77 1.379 . S
N78 C81 1.334 1_655 S
N78 Tb87 2.617 . S
C79 C81 1.390 . S
C79 C82 1.339 1_455 S
C79 H99 0.930 . S
C80 C77 1.416 . S
C80 C82 1.416 . S
C80 C86 1.448 . S
C81 N78 1.334 1_455 S
C81 C79 1.390 . S
C81 H92 0.930 . S
C82 C79 1.339 1_655 S
C82 C80 1.416 . S
C82 H103 0.930 . S
C83 C84 1.413 . S
C83 C85 1.427 . S
C83 C89 1.416 . S
C84 C77 1.424 . S
C84 C83 1.413 . S
C84 N88 1.361 . S
C85 C83 1.427 . S
C85 C86 1.328 . S
C85 H100 0.929 . S
C86 C80 1.448 . S
C86 C85 1.328 . S
C86 H101 0.930 . S
Tb87 N78 2.617 . S
Tb87 N88 2.572 . S
Tb87 O122 2.349 1_655 S
Tb87 O125 2.393 1_655 S
Tb87 O126 2.465 . S
Tb87 O127 2.387 . S
Tb87 O129 2.428 . S
Tb87 O130 2.308 1_545 S
Tb87 C151 2.802 . S
N88 C84 1.361 . S
N88 Tb87 2.572 . S
N88 C90 1.340 . S
C89 C83 1.416 . S
C89 C91 1.332 . S
C89 H97 0.931 . S
C90 N88 1.340 . S
C90 C91 1.407 . S
C90 H96 0.930 . S
C91 C89 1.332 . S
C91 C90 1.407 . S
C91 H93 0.929 . S
H92 C81 0.930 . S
H93 C91 0.929 . S
H94 C109 0.930 1_655 S
H95 C116 0.929 . S
H96 C90 0.930 . S
H97 C89 0.931 . S
H98 C112 0.930 . S
H99 C79 0.930 . S
H100 C85 0.929 . S
H101 C86 0.930 . S
H102 C107 0.930 1_655 S
H103 C82 0.930 . S
H104 C115 0.931 . S
N105 Tb76 2.617 . S
N105 C106 1.379 . S
N105 C109 1.334 . S
C106 N105 1.379 . S
C106 C108 1.416 . S
C106 C114 1.424 . S
C107 H102 0.930 1_455 S
C107 C109 1.390 . S
C107 C110 1.339 . S
C108 C106 1.416 . S
C108 C110 1.416 . S
C108 C141 1.448 . S
C109 H94 0.930 1_455 S
C109 N105 1.334 . S
C109 C107 1.390 . S
C110 C107 1.339 . S
C110 C108 1.416 . S
C110 H117 0.930 . S
N111 Tb76 2.572 . S
N111 C112 1.340 . S
N111 C114 1.361 . S
C112 H98 0.930 . S
C112 N111 1.340 . S
C112 C116 1.407 . S
C113 C114 1.413 . S
C113 C115 1.416 . S
C113 C142 1.427 . S
C114 C106 1.424 . S
C114 N111 1.361 . S
C114 C113 1.413 . S
C115 H104 0.931 . S
C115 C113 1.416 . S
C115 C116 1.332 . S
C116 H95 0.929 . S
C116 C112 1.407 . S
C116 C115 1.332 . S
H117 C110 0.930 . S
H118 C141 0.930 . S
H119 C142 0.929 . S
O120 Tb76 2.465 . S
O120 C140 1.264 . S
O121 Tb76 2.387 . S
O121 C132 1.264 . S
O122 Tb87 2.349 1_455 S
O122 C132 1.243 1_545 S
O123 Tb76 2.428 . S
O123 C140 1.256 . S
O124 Tb76 2.308 1_545 S
O124 C139 1.266 . S
O125 Tb87 2.393 1_455 S
O125 C139 1.248 . S
O126 Tb87 2.465 . S
O126 C151 1.264 . S
O127 Tb87 2.387 . S
O127 C143 1.264 . S
O128 Tb76 2.349 1_645 S
O128 C143 1.243 . S
O129 Tb87 2.428 . S
O129 C151 1.256 . S
O130 Tb87 2.308 1_565 S
O130 C150 1.266 . S
O131 Tb76 2.393 1_655 S
O131 C150 1.248 . S
C132 O121 1.264 . S
C132 O122 1.243 1_565 S
C133 C136 1.399 . S
C133 C138 1.383 . S
C133 C140 1.496 . S
C134 C135 1.399 . S
C134 C138 1.389 . S
C135 C134 1.399 . S
C135 C137 1.380 . S
C135 H152 0.929 . S
C136 C133 1.399 . S
C136 C137 1.392 . S
C136 H153 0.929 . S
C137 C135 1.380 . S
C137 C136 1.392 . S
C137 H154 0.929 . S
C138 C133 1.383 . S
C138 C134 1.389 . S
C138 H155 0.931 . S
C139 O124 1.266 . S
C139 O125 1.248 . S
C140 Tb76 2.802 . S
C140 O120 1.264 . S
C140 O123 1.256 . S
C140 C133 1.496 . S
C141 C108 1.448 . S
C141 H118 0.930 . S
C141 C142 1.328 . S
C142 C113 1.427 . S
C142 H119 0.929 . S
C142 C141 1.328 . S
C143 O127 1.264 . S
C143 O128 1.243 . S
C144 C147 1.399 . S
C144 C148 1.383 . S
C144 C151 1.496 . S
C145 C146 1.399 . S
C145 C148 1.389 1_554 S
C146 C145 1.399 . S
C146 C149 1.380 . S
C146 H156 0.929 . S
C147 C144 1.399 . S
C147 C149 1.392 1_556 S
C147 H157 0.929 1_655 S
C148 C144 1.383 . S
C148 C145 1.389 1_556 S
C148 H158 0.931 . S
C149 C146 1.380 . S
C149 C147 1.392 1_554 S
C149 H159 0.929 . S
C150 O130 1.266 . S
C150 O131 1.248 . S
C151 Tb87 2.802 . S
C151 O126 1.264 . S
C151 O129 1.256 . S
C151 C144 1.496 . S
H152 C135 0.929 . S
H153 C136 0.929 . S
H154 C137 0.929 . S
H155 C138 0.931 . S
H156 C146 0.929 . S
H157 C147 0.929 1_455 S
H158 C148 0.931 . S
H159 C149 0.929 . S
Tb160 N189 2.617 1_554 S
Tb160 N195 2.572 . S
Tb160 O204 2.465 1_554 S
Tb160 O205 2.387 . S
Tb160 O207 2.428 1_554 S
Tb160 O208 2.308 . S
Tb160 O212 2.349 1_554 S
Tb160 O215 2.393 1_554 S
Tb160 C224 2.802 1_554 S
C161 N162 1.379 . S
C161 C164 1.416 . S
C161 C168 1.424 . S
N162 C161 1.379 . S
N162 C165 1.334 . S
N162 Tb171 2.617 . S
C163 C165 1.390 . S
C163 C166 1.339 . S
C163 H183 0.930 . S
C164 C161 1.416 . S
C164 C166 1.416 . S
C164 C170 1.448 . S
C165 N162 1.334 . S
C165 C163 1.390 . S
C165 H176 0.930 . S
C166 C163 1.339 . S
C166 C164 1.416 . S
C166 H187 0.930 . S
C167 C168 1.413 . S
C167 C169 1.427 . S
C167 C173 1.416 . S
C168 C161 1.424 . S
C168 C167 1.413 . S
C168 N172 1.361 . S
C169 C167 1.427 . S
C169 C170 1.328 . S
C169 H184 0.929 . S
C170 C164 1.448 . S
C170 C169 1.328 . S
C170 H185 0.930 . S
Tb171 N162 2.617 . S
Tb171 N172 2.572 . S
Tb171 O206 2.349 . S
Tb171 O209 2.393 . S
Tb171 O210 2.465 . S
Tb171 O211 2.387 . S
Tb171 O213 2.428 . S
Tb171 O214 2.308 . S
Tb171 C235 2.802 . S
N172 C168 1.361 . S
N172 Tb171 2.572 . S
N172 C174 1.340 . S
C173 C167 1.416 . S
C173 C175 1.332 . S
C173 H181 0.931 . S
C174 N172 1.340 . S
C174 C175 1.407 . S
C174 H180 0.930 . S
C175 C173 1.332 . S
C175 C174 1.407 . S
C175 H177 0.929 . S
H176 C165 0.930 . S
H177 C175 0.929 . S
H178 C193 0.930 . S
H179 C200 0.929 . S
H180 C174 0.930 . S
H181 C173 0.931 . S
H182 C196 0.930 . S
H183 C163 0.930 . S
H184 C169 0.929 . S
H185 C170 0.930 . S
H186 C191 0.930 . S
H187 C166 0.930 . S
H188 C199 0.931 . S
N189 Tb160 2.617 1_556 S
N189 C190 1.379 1_556 S
N189 C193 1.334 . S
C190 N189 1.379 1_554 S
C190 C192 1.416 . S
C190 C198 1.424 . S
C191 H186 0.930 . S
C191 C193 1.390 . S
C191 C194 1.339 1_556 S
C192 C190 1.416 . S
C192 C194 1.416 . S
C192 C225 1.448 . S
C193 H178 0.930 . S
C193 N189 1.334 . S
C193 C191 1.390 . S
C194 C191 1.339 1_554 S
C194 C192 1.416 . S
C194 H201 0.930 . S
N195 Tb160 2.572 . S
N195 C196 1.340 . S
N195 C198 1.361 . S
C196 H182 0.930 . S
C196 N195 1.340 . S
C196 C200 1.407 . S
C197 C198 1.413 . S
C197 C199 1.416 . S
C197 C226 1.427 . S
C198 C190 1.424 . S
C198 N195 1.361 . S
C198 C197 1.413 . S
C199 H188 0.931 . S
C199 C197 1.416 . S
C199 C200 1.332 . S
C200 H179 0.929 . S
C200 C196 1.407 . S
C200 C199 1.332 . S
H201 C194 0.930 . S
H202 C225 0.930 . S
H203 C226 0.929 . S
O204 Tb160 2.465 1_556 S
O204 C224 1.264 . S
O205 Tb160 2.387 . S
O205 C216 1.264 . S
O206 Tb171 2.349 . S
O206 C216 1.243 . S
O207 Tb160 2.428 1_556 S
O207 C224 1.256 . S
O208 Tb160 2.308 . S
O208 C223 1.266 . S
O209 Tb171 2.393 . S
O209 C223 1.248 . S
O210 Tb171 2.465 . S
O210 C235 1.264 . S
O211 Tb171 2.387 . S
O211 C227 1.264 1_554 S
O212 Tb160 2.349 1_556 S
O212 C227 1.243 . S
O213 Tb171 2.428 . S
O213 C235 1.256 . S
O214 Tb171 2.308 . S
O214 C234 1.266 . S
O215 Tb160 2.393 1_556 S
O215 C234 1.248 1_556 S
C216 O205 1.264 . S
C216 O206 1.243 . S
C217 C220 1.399 . S
C217 C222 1.383 . S
C217 C224 1.496 . S
C218 C219 1.399 . S
C218 C222 1.389 . S
C219 C218 1.399 . S
C219 C221 1.380 . S
C219 H236 0.929 . S
C220 C217 1.399 . S
C220 C221 1.392 . S
C220 H237 0.929 . S
C221 C219 1.380 . S
C221 C220 1.392 . S
C221 H238 0.929 . S
C222 C217 1.383 . S
C222 C218 1.389 . S
C222 H239 0.931 . S
C223 O208 1.266 . S
C223 O209 1.248 . S
C224 Tb160 2.802 1_556 S
C224 O204 1.264 . S
C224 O207 1.256 . S
C224 C217 1.496 . S
C225 C192 1.448 . S
C225 H202 0.930 . S
C225 C226 1.328 . S
C226 C197 1.427 . S
C226 H203 0.929 . S
C226 C225 1.328 . S
C227 O211 1.264 1_556 S
C227 O212 1.243 . S
C228 C231 1.399 . S
C228 C232 1.383 . S
C228 C235 1.496 . S
C229 C230 1.399 . S
C229 C232 1.389 . S
C230 C229 1.399 . S
C230 C233 1.380 . S
C230 H240 0.929 . S
C231 C228 1.399 . S
C231 C233 1.392 . S
C231 H241 0.929 . S
C232 C228 1.383 . S
C232 C229 1.389 . S
C232 H242 0.931 . S
C233 C230 1.380 . S
C233 C231 1.392 . S
C233 H243 0.929 . S
C234 O214 1.266 . S
C234 O215 1.248 1_554 S
C235 Tb171 2.802 . S
C235 O210 1.264 . S
C235 O213 1.256 . S
C235 C228 1.496 . S
H236 C219 0.929 . S
H237 C220 0.929 . S
H238 C221 0.929 . S
H239 C222 0.931 . S
H240 C230 0.929 . S
H241 C231 0.929 . S
H242 C232 0.931 . S
H243 C233 0.929 . S
C139 C68 1.909 . S
C11 C234 1.750 . S
C30 C150 1.891 . S
C49 C223 1.873 . S
C134 C2 1.497 . S
C227 C25 1.967 . S
C40 C143 1.933 . S
C59 C218 1.601 . S
C229 C21 1.537 . S
C145 C44 1.337 . S
C216 C63 1.790 . S
C6 C132 1.900 . S
