# Generated by pormake.
# Topology tsx, (6,3)-cn, num edge types: 1
# Building blocks:
#     Node 0, Type 0, BuildingBlock: JUFBIX_clean_sbu_0, # of connection points: 6
#     Node 1, Type 0, BuildingBlock: JUFBIX_clean_sbu_0, # of connection points: 6
#     Node 2, Type 1, BuildingBlock: CUQRIR_clean_linker_1, # of connection points: 3
#     Node 3, Type 1, BuildingBlock: CUQRIR_clean_linker_1, # of connection points: 3
#     Node 4, Type 1, BuildingBlock: CUQRIR_clean_linker_1, # of connection points: 3
#     Node 5, Type 1, BuildingBlock: CUQRIR_clean_linker_1, # of connection points: 3
#     Edge 6, Type (0, 1), None
#     Edge 7, Type (0, 1), None
#     Edge 8, Type (0, 1), None
#     Edge 9, Type (0, 1), None
#     Edge 10, Type (0, 1), None
#     Edge 11, Type (0, 1), None
#     Edge 12, Type (0, 1), None
#     Edge 13, Type (0, 1), None
#     Edge 14, Type (0, 1), None
#     Edge 15, Type (0, 1), None
#     Edge 16, Type (0, 1), None
#     Edge 17, Type (0, 1), None
# Relax obj value: 0.134
# Max RMSD: 0.178
# Mean RMSD: 0.153
data_MOF--net-tsx--node1-JUFBIX_clean_sbu_0--node2-CUQRIR_clean_linker_1--edge1-none
_symmetry_space_group_name_H-M    P1
_symmetry_Int_Tables_number       1
_symmetry_cell_setting            triclinic
loop_
_symmetry_equiv_pos_as_xyz
'x, y, z'
_cell_length_a     8.4701215
_cell_length_b     9.2809293
_cell_length_c     13.454696
_cell_angle_alpha  80.644407
_cell_angle_beta   89.990058
_cell_angle_gamma 114.07754
loop_
_atom_site_label
_atom_site_type_symbol
_atom_site_fract_x
_atom_site_fract_y
_atom_site_fract_z
_atom_type_partial_charge
Co0 Co 0.14439 1.00349 -0.01263 0.0
C1 C 0.11876 0.1072 0.76589 0.0
Co2 Co 0.99827 0.1546 -0.0476 0.0
C3 C 0.26349 0.77428 0.91029 0.0
C4 C 0.45443 0.99291 0.93792 0.0
N5 N 0.28742 0.89566 -0.03621 0.0
N6 N 0.41082 0.79351 0.85666 0.0
C7 C 0.5197 0.94114 0.8662 0.0
H8 H 0.14028 0.67467 0.91061 0.0
H9 H 0.52586 0.10149 -0.0353 0.0
C10 C 1.03377 1.01834 0.1589 0.0
N11 N 0.8616 0.28332 0.92471 0.0
C12 C 0.76902 0.32811 0.8484 0.0
C13 C 0.87514 0.38137 -0.01116 0.0
N14 N 0.71753 0.44377 0.86896 0.0
C15 C 0.79343 0.47667 -0.04538 0.0
C16 C 0.77634 0.82199 0.02556 0.0
O17 O 0.13561 0.96617 0.12459 0.0
O18 O 0.98255 0.11393 0.09863 0.0
O19 O 0.77792 0.95597 -0.01884 0.0
O20 O 0.92136 0.80726 0.01484 0.0
O21 O 1.03191 0.17874 0.79749 0.0
H22 H 0.939 0.38205 0.05818 0.0
H23 H 0.74587 0.28203 0.77864 0.0
O24 O 0.16431 1.02727 0.83578 0.0
O25 O 0.35019 0.2125 -0.00201 0.0
O26 O 0.20578 0.35678 -0.04015 0.0
C27 C 0.33683 0.3446 0.00108 0.0
H28 H 0.63616 1.01419 0.82084 0.0
H29 H 0.78552 0.56093 -0.00672 0.0
Co30 Co 0.6444 0.50349 0.48737 0.0
C31 C 0.61877 0.6072 0.26589 0.0
Co32 Co 0.49827 0.65461 0.4524 0.0
C33 C 0.7635 0.2743 0.41028 0.0
C34 C 0.95444 0.49291 0.43793 0.0
N35 N 0.78743 0.39566 0.46379 0.0
N36 N 0.91084 0.29352 0.35666 0.0
C37 C 1.01971 0.44114 0.36621 0.0
H38 H 0.64029 0.17469 0.4106 0.0
H39 H 1.02587 0.60148 0.46472 0.0
C40 C 0.53378 0.51835 0.6589 0.0
N41 N 0.3616 0.78332 0.42471 0.0
C42 C 0.26902 0.82811 0.3484 0.0
C43 C 0.37515 0.88138 0.48884 0.0
N44 N 0.21753 0.94377 0.36896 0.0
C45 C 0.29343 0.97667 0.45462 0.0
C46 C 0.27635 0.32199 0.52557 0.0
O47 O 0.63562 0.46618 0.62459 0.0
O48 O 0.48256 0.61394 0.59863 0.0
O49 O 0.27793 0.45597 0.48117 0.0
O50 O 0.42137 0.30726 0.51484 0.0
O51 O 0.53191 0.67875 0.29749 0.0
H52 H 0.439 0.88205 0.55818 0.0
H53 H 0.24587 0.78203 0.27864 0.0
O54 O 0.66431 0.52727 0.33578 0.0
O55 O 0.8502 0.71251 0.49798 0.0
O56 O 0.70579 0.85678 0.45985 0.0
C57 C 0.83683 0.84461 0.50108 0.0
H58 H 0.13619 0.5142 0.32085 0.0
H59 H 0.28552 1.06093 0.49328 0.0
C60 C 0.12236 0.16446 0.34687 0.0
N61 N 0.12245 1.03127 0.31875 0.0
N62 N 0.96465 0.17216 0.33617 0.0
C63 C 0.28284 0.30237 0.3086 0.0
C64 C 0.88128 1.05013 0.28722 0.0
N65 N 0.99032 0.98482 0.26032 0.0
C66 C 0.71759 1.03137 0.23799 0.0
H67 H 0.39432 0.27643 0.33301 0.0
H68 H 0.30277 0.41417 0.3273 0.0
H69 H 0.2739 0.31775 0.22646 0.0
H70 H 0.75057 0.13994 0.18195 0.0
H71 H 0.61481 1.02011 0.29282 0.0
H72 H 0.67321 0.93228 0.19522 0.0
C73 C 0.97515 0.12024 0.54997 0.0
N74 N 0.12906 0.20574 0.5884 0.0
N75 N 0.95522 0.96599 0.54997 0.0
C76 C 0.82202 0.12989 0.60139 0.0
C77 C 0.05579 0.95374 0.62832 0.0
N78 N 0.14158 0.09718 0.6628 0.0
C79 C 0.07339 0.80215 0.66824 0.0
H80 H 0.8511 0.25345 0.61225 0.0
H81 H 0.79678 0.06273 0.67838 0.0
H82 H 0.70037 0.07102 0.56653 0.0
H83 H 0.10437 0.75597 0.6046 0.0
H84 H 0.94987 0.70137 0.69869 0.0
H85 H 0.17327 0.82413 0.72324 0.0
C86 C 0.62235 0.66445 0.84688 0.0
N87 N 0.62244 0.53127 0.81875 0.0
N88 N 0.46464 0.67215 0.83617 0.0
C89 C 0.78283 0.80237 0.8086 0.0
C90 C 0.38128 0.55012 0.78722 0.0
N91 N 0.49033 0.48482 0.76032 0.0
C92 C 0.21759 0.53137 0.73799 0.0
H93 H 0.89432 0.77644 0.83301 0.0
H94 H 0.80275 0.91417 0.8273 0.0
H95 H 0.77389 0.81774 0.72645 0.0
H96 H 0.25057 0.63993 0.68195 0.0
H97 H 0.1148 0.5201 0.79282 0.0
H98 H 0.17321 0.43227 0.69521 0.0
C99 C 0.47514 0.62024 0.04997 0.0
N100 N 0.62905 0.70574 0.0884 0.0
N101 N 0.45521 0.46599 0.04997 0.0
C102 C 0.32202 0.62988 0.10139 0.0
C103 C 0.55579 0.45374 0.12832 0.0
N104 N 0.64158 0.59718 0.1628 0.0
C105 C 0.5734 0.30216 0.16824 0.0
H106 H 0.35109 0.75345 0.11225 0.0
H107 H 0.29678 0.56273 0.17839 0.0
H108 H 0.20036 0.57101 0.06653 0.0
H109 H 0.44988 0.20138 0.1987 0.0
H110 H 0.6733 0.32415 0.22323 0.0
H111 H 0.60436 0.25597 0.1046 0.0
loop_
_geom_bond_atom_site_label_1
_geom_bond_atom_site_label_2
_geom_bond_distance
_geom_bond_site_symmetry_2
_ccdc_geom_bond_type
Co0 N5 2.057 1_554 S
Co0 O17 2.021 . S
Co0 O20 2.062 1_455 S
Co0 O24 2.117 1_564 S
Co0 O25 2.020 1_565 S
C1 O21 1.259 1_455 S
C1 O24 1.258 . S
Co2 N11 2.057 1_556 S
Co2 O18 2.117 1_556 S
Co2 O19 2.020 1_546 S
Co2 O21 2.021 . S
Co2 O26 2.062 1_655 S
C3 N5 1.316 1_554 S
C3 N6 1.347 . S
C3 H8 0.931 . S
C4 N5 1.375 . S
C4 C7 1.350 . S
C4 H9 0.930 . S
N5 Co0 2.057 1_556 S
N5 C3 1.316 1_556 S
N5 C4 1.375 . S
N6 C3 1.347 . S
N6 C7 1.373 1_554 S
C7 C4 1.350 . S
C7 N6 1.373 1_556 S
C7 H28 0.931 . S
H8 C3 0.931 . S
H9 C4 0.930 . S
C10 O17 1.259 . S
C10 O18 1.258 1_465 S
N11 Co2 2.057 1_554 S
N11 C12 1.316 1_554 S
N11 C13 1.375 . S
C12 N11 1.316 1_556 S
C12 N14 1.342 1_556 S
C12 H23 0.931 . S
C13 N11 1.375 . S
C13 C15 1.350 . S
C13 H22 0.930 . S
N14 C12 1.342 1_554 S
N14 C15 1.381 . S
C15 C13 1.350 . S
C15 N14 1.381 . S
C15 H29 0.931 . S
C16 O19 1.256 . S
C16 O20 1.255 . S
O17 Co0 2.021 . S
O17 C10 1.259 . S
O18 Co2 2.117 1_554 S
O18 C10 1.258 1_645 S
O19 Co2 2.020 1_564 S
O19 C16 1.256 . S
O20 Co0 2.062 1_655 S
O20 C16 1.255 . S
O21 C1 1.259 1_655 S
O21 Co2 2.021 . S
H22 C13 0.930 . S
H23 C12 0.931 . S
O24 Co0 2.117 1_546 S
O24 C1 1.258 . S
O25 Co0 2.020 1_545 S
O25 C27 1.256 1_554 S
O26 Co2 2.062 1_455 S
O26 C27 1.255 . S
C27 O25 1.256 1_556 S
C27 O26 1.255 . S
H28 C7 0.931 . S
H29 C15 0.931 . S
Co30 N35 2.057 . S
Co30 O47 2.021 . S
Co30 O50 2.062 . S
Co30 O54 2.117 . S
Co30 O55 2.020 . S
C31 O51 1.259 . S
C31 O54 1.258 . S
Co32 N41 2.057 . S
Co32 O48 2.117 . S
Co32 O49 2.020 . S
Co32 O51 2.021 . S
Co32 O56 2.062 . S
C33 N35 1.316 . S
C33 N36 1.347 . S
C33 H38 0.931 . S
C34 N35 1.375 . S
C34 C37 1.350 . S
C34 H39 0.930 . S
N35 Co30 2.057 . S
N35 C33 1.316 . S
N35 C34 1.375 . S
N36 C33 1.347 . S
N36 C37 1.373 . S
C37 C34 1.350 . S
C37 N36 1.373 . S
C37 H58 0.931 . S
H38 C33 0.931 . S
H39 C34 0.930 . S
C40 O47 1.259 . S
C40 O48 1.258 . S
N41 Co32 2.057 . S
N41 C42 1.316 . S
N41 C43 1.375 . S
C42 N41 1.316 . S
C42 N44 1.347 . S
C42 H53 0.931 . S
C43 N41 1.375 . S
C43 C45 1.350 . S
C43 H52 0.930 . S
N44 C42 1.347 . S
N44 C45 1.373 . S
C45 C43 1.350 . S
C45 N44 1.373 . S
C45 H59 0.931 . S
C46 O49 1.256 . S
C46 O50 1.255 . S
O47 Co30 2.021 . S
O47 C40 1.259 . S
O48 Co32 2.117 . S
O48 C40 1.258 . S
O49 Co32 2.020 . S
O49 C46 1.256 . S
O50 Co30 2.062 . S
O50 C46 1.255 . S
O51 C31 1.259 . S
O51 Co32 2.021 . S
H52 C43 0.930 . S
H53 C42 0.931 . S
O54 Co30 2.117 . S
O54 C31 1.258 . S
O55 Co30 2.020 . S
O55 C57 1.256 . S
O56 Co32 2.062 . S
O56 C57 1.255 . S
C57 O55 1.256 . S
C57 O56 1.255 . S
H58 C37 0.931 . S
H59 C45 0.931 . S
C60 N61 1.317 1_545 S
C60 N62 1.348 1_455 S
C60 C63 1.485 1_545 S
N61 C60 1.317 1_565 S
N61 N65 1.370 . S
N62 C60 1.348 1_655 S
N62 C64 1.346 . S
C63 C60 1.485 1_565 S
C63 H67 0.960 1_455 S
C63 H68 0.961 1_565 S
C63 H69 0.960 . S
C64 N62 1.346 . S
C64 N65 1.307 1_645 S
C64 C66 1.486 . S
N65 N61 1.370 . S
N65 C64 1.307 1_465 S
C66 C64 1.486 . S
C66 H70 0.960 . S
C66 H71 0.960 . S
C66 H72 0.959 . S
H67 C63 0.960 1_655 S
H68 C63 0.961 1_545 S
H69 C63 0.960 . S
H70 C66 0.960 . S
H71 C66 0.960 . S
H72 C66 0.959 . S
C73 N74 1.317 . S
C73 N75 1.348 1_445 S
C73 C76 1.485 . S
N74 C73 1.317 . S
N74 N78 1.370 . S
N75 C73 1.348 1_665 S
N75 C77 1.346 . S
C76 C73 1.485 . S
C76 H80 0.960 . S
C76 H81 0.961 . S
C76 H82 0.960 . S
C77 N75 1.346 . S
C77 N78 1.307 1_665 S
C77 C79 1.486 . S
N78 N74 1.370 . S
N78 C77 1.307 1_445 S
C79 C77 1.486 . S
C79 H83 0.960 . S
C79 H84 0.960 . S
C79 H85 0.959 . S
H80 C76 0.960 . S
H81 C76 0.961 . S
H82 C76 0.960 . S
H83 C79 0.960 . S
H84 C79 0.960 . S
H85 C79 0.959 . S
C86 N87 1.317 1_554 S
C86 N88 1.348 1_554 S
C86 C89 1.485 . S
N87 C86 1.317 1_556 S
N87 N91 1.370 . S
N88 C86 1.348 1_556 S
N88 C90 1.346 . S
C89 C86 1.485 . S
C89 H93 0.960 . S
C89 H94 0.961 . S
C89 H95 0.960 . S
C90 N88 1.346 . S
C90 N91 1.307 . S
C90 C92 1.486 . S
N91 N87 1.370 . S
N91 C90 1.307 . S
C92 C90 1.486 . S
C92 H96 0.960 . S
C92 H97 0.960 . S
C92 H98 0.959 . S
H93 C89 0.960 . S
H94 C89 0.961 . S
H95 C89 0.960 . S
H96 C92 0.960 . S
H97 C92 0.960 . S
H98 C92 0.959 . S
C99 N100 1.317 1_556 S
C99 N101 1.348 1_556 S
C99 C102 1.485 . S
N100 C99 1.317 1_554 S
N100 N104 1.370 . S
N101 C99 1.348 1_554 S
N101 C103 1.346 . S
C102 C99 1.485 . S
C102 H106 0.960 . S
C102 H107 0.961 . S
C102 H108 0.960 . S
C103 N101 1.346 . S
C103 N104 1.307 . S
C103 C105 1.486 . S
N104 N100 1.370 . S
N104 C103 1.307 . S
C105 C103 1.486 . S
C105 H109 0.960 . S
C105 H110 0.960 . S
C105 H111 0.959 . S
H106 C102 0.960 . S
H107 C102 0.961 . S
H108 C102 0.960 . S
H109 C105 0.960 . S
H110 C105 0.960 . S
H111 C105 0.959 . S
N101 C27 1.524 1_554 S
N6 N88 1.455 1_554 S
C16 N100 1.514 . S
N14 N87 1.444 1_554 S
C57 N75 1.524 . S
N36 N62 1.455 . S
N74 C46 1.514 . S
N61 N44 1.447 . S
C10 N65 1.405 . S
C1 N78 1.592 . S
N91 C40 1.405 . S
C31 N104 1.592 . S
