# Generated by pormake.
# Topology sit, (3,6)-cn, num edge types: 1
# Building blocks:
#     Node 0, Type 0, BuildingBlock: BETDAH_clean_linker_0, # of connection points: 3
#     Node 1, Type 0, BuildingBlock: BETDAH_clean_linker_0, # of connection points: 3
#     Node 2, Type 0, BuildingBlock: BETDAH_clean_linker_0, # of connection points: 3
#     Node 3, Type 0, BuildingBlock: BETDAH_clean_linker_0, # of connection points: 3
#     Node 4, Type 1, BuildingBlock: MIDCAF_clean_sbu_0, # of connection points: 6
#     Node 5, Type 1, BuildingBlock: MIDCAF_clean_sbu_0, # of connection points: 6
#     Edge 6, Type (0, 1), BuildingBlock: OJICUG_clean_linker_0, # of connection points: 2
#     Edge 7, Type (0, 1), BuildingBlock: OJICUG_clean_linker_0, # of connection points: 2
#     Edge 8, Type (0, 1), BuildingBlock: OJICUG_clean_linker_0, # of connection points: 2
#     Edge 9, Type (0, 1), BuildingBlock: OJICUG_clean_linker_0, # of connection points: 2
#     Edge 10, Type (0, 1), BuildingBlock: OJICUG_clean_linker_0, # of connection points: 2
#     Edge 11, Type (0, 1), BuildingBlock: OJICUG_clean_linker_0, # of connection points: 2
#     Edge 12, Type (0, 1), BuildingBlock: OJICUG_clean_linker_0, # of connection points: 2
#     Edge 13, Type (0, 1), BuildingBlock: OJICUG_clean_linker_0, # of connection points: 2
#     Edge 14, Type (0, 1), BuildingBlock: OJICUG_clean_linker_0, # of connection points: 2
#     Edge 15, Type (0, 1), BuildingBlock: OJICUG_clean_linker_0, # of connection points: 2
#     Edge 16, Type (0, 1), BuildingBlock: OJICUG_clean_linker_0, # of connection points: 2
#     Edge 17, Type (0, 1), BuildingBlock: OJICUG_clean_linker_0, # of connection points: 2
# Relax obj value: 0.072
# Max RMSD: 0.182
# Mean RMSD: 0.105
data_MOF--net-sit--node1-MIDCAF_clean_sbu_0--node2-BETDAH_clean_linker_0--edge1-OJICUG_clean_linker_0
_symmetry_space_group_name_H-M    P1
_symmetry_Int_Tables_number       1
_symmetry_cell_setting            triclinic
loop_
_symmetry_equiv_pos_as_xyz
'x, y, z'
_cell_length_a     16.71874
_cell_length_b     22.022105
_cell_length_c     26.991326
_cell_angle_alpha  90.7083
_cell_angle_beta   85.536568
_cell_angle_gamma 80.773792
loop_
_atom_site_label
_atom_site_type_symbol
_atom_site_fract_x
_atom_site_fract_y
_atom_site_fract_z
_atom_type_partial_charge
H0 H 0.03793 0.4837 0.98571 0.0
H1 H 0.21611 0.33664 0.03342 0.0
H2 H -0.03215 0.31207 0.03142 0.0
C3 C 0.05362 0.43851 1.00108 0.0
C4 C -0.00615 0.40068 0.00759 0.0
C5 C 0.13456 0.41621 0.01031 0.0
C6 C 0.15375 0.35619 0.0281 0.0
C7 C 0.0937 0.31952 0.03744 0.0
C8 C 0.01358 0.3418 0.02712 0.0
N9 N 0.11681 0.25852 0.05318 0.0
C10 C 0.07045 0.23186 0.08903 0.0
H11 H 0.04101 0.65916 0.98298 0.0
H12 H 0.08754 0.83928 0.02385 0.0
H13 H 0.84248 0.80664 0.02143 0.0
C14 C 0.01887 0.70595 0.99628 0.0
C15 C -0.06512 0.72683 0.00346 0.0
C16 C 0.0743 0.7465 1.0027 0.0
C17 C 0.04528 0.80749 0.01924 0.0
C18 C -0.0385 0.8287 0.02649 0.0
C19 C 0.90699 0.78869 0.0179 0.0
N20 N -0.06932 0.8912 0.03894 0.0
C21 C -0.0416 0.92155 0.07784 0.0
H22 H 0.49972 0.9933 0.48848 0.0
H23 H 0.616 0.81384 0.52941 0.0
H24 H 0.35736 0.85157 0.52559 0.0
C25 C 0.49569 0.94773 0.50224 0.0
C26 C 0.41958 0.9286 0.50868 0.0
C27 C 0.56699 0.9065 0.50924 0.0
C28 C 0.56132 0.84652 0.52508 0.0
C29 C 0.48538 0.82716 0.53142 0.0
C30 C 0.41522 0.86807 0.52302 0.0
N31 N 0.47892 0.76491 0.54046 0.0
C32 C 0.51314 0.73368 0.57991 0.0
H33 H 0.41887 0.15763 0.50194 0.0
H34 H 0.52905 0.31311 0.54263 0.0
H35 H 0.27364 0.33677 0.52758 0.0
C36 C 0.41366 0.20589 0.51226 0.0
C37 C 0.3376 0.24379 0.51366 0.0
C38 C 0.48387 0.23048 0.52083 0.0
C39 C 0.47577 0.29259 0.53675 0.0
C40 C 0.39931 0.33029 0.54046 0.0
C41 C 0.33123 0.30614 0.52767 0.0
N42 N 0.39021 0.39389 0.55293 0.0
C43 C 0.43343 0.41687 0.58874 0.0
Zn44 Zn 0.9216 0.19923 0.3788 0.0
Zn45 Zn 0.01815 0.95827 0.37147 0.0
Zn46 Zn -0.03387 0.07714 0.37516 0.0
C47 C 0.00872 0.99265 0.27388 0.0
C48 C 0.86301 0.97694 0.42193 0.0
O49 O 0.05588 0.11986 0.4127 0.0
O50 O 0.01006 0.22021 0.41665 0.0
C51 C -0.04927 0.16361 0.27861 0.0
O52 O -0.01965 1.04476 0.2961 0.0
O53 O 0.03466 0.9465 0.29873 0.0
O54 O 0.91932 0.93474 0.40538 0.0
O55 O 0.86929 1.0339 0.41486 0.0
O56 O 0.9259 0.21084 0.30599 0.0
O57 O -0.03251 0.11031 0.29803 0.0
O58 O 0.84522 0.09877 0.41728 0.0
O59 O 0.81786 0.2008 0.4172 0.0
C60 C 0.79878 0.14995 0.43022 0.0
O61 O 0.08055 1.05629 0.41282 0.0
O62 O 0.11372 0.95473 0.40955 0.0
C63 C 0.06245 0.17501 0.42632 0.0
C64 C 0.12771 1.00667 0.42312 0.0
Zn65 Zn 0.55026 0.67985 0.87001 0.0
Zn66 Zn 0.56327 0.44688 0.86794 0.0
Zn67 Zn 0.54973 0.56647 0.87084 0.0
C68 C 0.5467 0.48127 0.7714 0.0
C69 C 0.42001 0.49521 0.92659 0.0
O70 O 0.6582 0.58669 0.90697 0.0
O71 O 0.6289 0.68775 0.91821 0.0
C72 C 0.57106 0.64692 0.77255 0.0
O73 O 0.54264 0.53459 0.79277 0.0
O74 O 0.5583 0.43294 0.79615 0.0
O75 O 0.46404 0.44499 0.91267 0.0
O76 O 0.44058 0.54699 0.9138 0.0
O77 O 0.58433 0.69079 0.79949 0.0
O78 O 0.55186 0.59781 0.79266 0.0
O79 O 0.43566 0.6117 0.91335 0.0
O80 O 0.43616 0.70858 0.89349 0.0
C81 C 0.40084 0.66847 0.91494 0.0
O82 O 0.66212 0.52236 0.90601 0.0
O83 O 0.66703 0.42196 0.8956 0.0
C84 C 0.67399 0.63757 0.92502 0.0
C85 C 0.69732 0.46643 0.91166 0.0
C86 C 0.0684 0.15379 0.15306 0.0
C87 C 0.03028 0.20708 0.13135 0.0
H88 H 0.07269 0.09792 0.21744 0.0
C89 C -0.04059 0.24094 0.15504 0.0
H90 H 0.1239 0.1276 0.13535 0.0
C91 C -0.07043 0.22373 0.20169 0.0
C92 C -0.0296 0.17248 0.22518 0.0
H93 H -0.07025 0.28255 0.13883 0.0
H94 H 0.87707 0.25243 0.22056 0.0
C95 C 0.0387 0.13657 0.19978 0.0
C96 C -0.07054 0.99836 0.14654 0.0
C97 C -0.01957 0.94793 0.12277 0.0
H98 H 0.89901 1.05291 0.21378 0.0
C99 C 0.04664 0.91777 0.14626 0.0
H100 H 0.87752 1.02172 0.12884 0.0
C101 C 0.05907 0.93547 0.1945 0.0
C102 C 0.00531 0.98358 0.21987 0.0
H103 H 0.08617 0.87846 0.1284 0.0
H104 H 0.10852 0.90955 0.21285 0.0
C105 C -0.05809 1.01625 0.19491 0.0
C106 C 0.4831 0.66786 0.64894 0.0
C107 C 0.5364 0.7026 0.62433 0.0
H108 H 0.45182 0.62459 0.71655 0.0
C109 C 0.60662 0.7126 0.64609 0.0
H110 H 0.42769 0.66084 0.63294 0.0
C111 C 0.62146 0.69018 0.69335 0.0
C112 C 0.56628 0.65746 0.71908 0.0
H113 H 0.64781 0.74005 0.62767 0.0
H114 H 0.6739 0.70089 0.7108 0.0
C115 C 0.49769 0.64584 0.6962 0.0
C116 C 0.42052 0.48503 0.66226 0.0
C117 C 0.46859 0.44073 0.63033 0.0
H118 H 0.40807 0.53195 0.73309 0.0
C119 C 0.54675 0.41519 0.64223 0.0
H120 H 0.35936 0.50429 0.65394 0.0
C121 C 0.5753 0.43214 0.68695 0.0
C122 C 0.5261 0.47505 0.71987 0.0
H123 H 0.58407 0.38021 0.61819 0.0
H124 H 0.63412 0.40965 0.69695 0.0
C125 C 0.44882 0.50165 0.707 0.0
C126 C 0.27124 0.44537 0.02159 0.0
C127 C 0.20114 0.45126 0.99522 0.0
H128 H 0.39701 0.45497 0.0198 0.0
C129 C 0.2003 0.48359 0.95046 0.0
H130 H 0.27334 0.42232 0.05678 0.0
C131 C 0.27044 0.50409 0.93032 0.0
C132 C 0.34232 0.49203 0.95435 0.0
H133 H 0.1479 0.48874 0.92881 0.0
H134 H 0.27038 0.52464 0.89405 0.0
C135 C 0.34171 0.46465 1.00087 0.0
C136 C 0.80024 0.69198 0.01824 0.0
C137 C 0.87546 0.68727 0.9902 0.0
H138 H 0.67617 0.67873 0.01891 0.0
C139 C 0.88794 0.65233 0.94539 0.0
H140 H 0.78948 0.71727 0.05345 0.0
C141 C 0.82337 0.62888 0.92631 0.0
C142 C 0.74601 0.6405 0.95175 0.0
H143 H -0.05485 0.6479 0.92285 0.0
H144 H 0.83198 0.60707 0.88966 0.0
C145 C 0.73572 0.66945 0.99883 0.0
C146 C 0.89733 0.38062 0.94678 0.0
C147 C 0.91603 0.41798 0.98522 0.0
H148 H 0.81486 0.36798 0.89257 0.0
C149 C 0.86305 0.47265 0.99925 0.0
H150 H -0.06197 0.33873 0.93486 0.0
C151 C 0.79131 0.48894 0.97553 0.0
C152 C 0.77359 0.45211 0.93629 0.0
H153 H 0.8765 0.50201 0.02896 0.0
H154 H 0.74871 0.52898 0.98885 0.0
C155 C 0.82716 0.39763 0.92243 0.0
C156 C 0.19645 0.76499 0.95044 0.0
C157 C 0.16054 0.72786 0.9845 0.0
H158 H 0.29928 0.77469 0.90126 0.0
C159 C 0.2051 0.67127 0.99714 0.0
H160 H 0.16302 0.80833 0.9394 0.0
C161 C 0.2842 0.6521 0.97555 0.0
C162 C 0.31879 0.68828 0.93997 0.0
H163 H 0.17871 0.64198 0.02358 0.0
H164 H 0.31836 0.60951 0.98701 0.0
C165 C 0.27443 0.74538 0.92833 0.0
C166 C 0.66827 0.97963 0.50479 0.0
C167 C 0.64656 0.92284 0.4916 0.0
H168 H 0.75716 1.03962 0.49525 0.0
C169 C 0.69801 0.88354 0.45724 0.0
H170 H 0.62976 1.01053 0.53153 0.0
C171 C 0.76835 0.90138 0.43518 0.0
C172 C 0.7892 0.95882 0.44715 0.0
H173 H 0.68215 0.83994 0.44582 0.0
H174 H 0.80547 0.87063 0.40773 0.0
C175 C 0.73989 0.99697 0.48326 0.0
C176 C 0.27798 0.18031 0.45298 0.0
C177 C 0.26706 0.22014 0.49507 0.0
H178 H 0.22058 0.13544 0.39801 0.0
C179 C 0.18785 0.24106 0.51638 0.0
H180 H 0.33786 0.16442 0.43481 0.0
C181 C 0.12098 0.22484 0.4947 0.0
C182 C 0.13242 0.18647 0.45209 0.0
H183 H 0.17741 0.27104 0.54914 0.0
H184 H 0.06028 0.24297 0.51074 0.0
C185 C 0.21109 0.16355 0.4318 0.0
C186 C 0.34715 0.99033 0.44417 0.0
C187 C 0.34597 0.96712 0.49245 0.0
H188 H 0.27628 1.02176 0.38393 0.0
C189 C 0.27132 0.97068 0.52096 0.0
H190 H 0.40379 0.98747 0.42121 0.0
C191 C 0.19861 0.99108 0.49972 0.0
C192 C 0.19989 1.00831 0.44993 0.0
H193 H 0.26902 0.95319 0.5583 0.0
H194 H 0.14146 0.98832 0.52078 0.0
C195 C 0.27436 1.01012 0.42285 0.0
C196 C 0.6341 0.20428 0.52904 0.0
C197 C 0.56535 0.19481 0.50504 0.0
H198 H 0.76387 0.19622 0.52347 0.0
C199 C 0.57653 0.15804 0.46101 0.0
H200 H 0.62785 0.23101 0.56347 0.0
C201 C 0.65446 0.13677 0.439 0.0
C202 C 0.72209 0.15221 0.46049 0.0
H203 H 0.52537 0.1501 0.441 0.0
H204 H 0.66144 0.11317 0.40307 0.0
C205 C 0.71187 0.18375 0.50657 0.0
loop_
_geom_bond_atom_site_label_1
_geom_bond_atom_site_label_2
_geom_bond_distance
_geom_bond_site_symmetry_2
_ccdc_geom_bond_type
H0 C3 0.929 . S
H1 C6 0.929 . S
H2 C8 0.930 1_655 S
C3 H0 0.929 . S
C3 C4 1.398 . S
C3 C5 1.396 . S
C4 C3 1.398 . S
C4 C8 1.407 1_556 S
C5 C3 1.396 . S
C5 C6 1.394 1_556 S
C6 H1 0.929 . S
C6 C5 1.394 1_554 S
C6 C7 1.382 . S
C7 C6 1.382 . S
C7 C8 1.392 . S
C7 N9 1.420 . S
C8 H2 0.930 1_455 S
C8 C4 1.407 1_554 S
C8 C7 1.392 . S
N9 C7 1.420 . S
N9 C10 1.244 . S
C10 N9 1.244 . S
H11 C14 0.929 . S
H12 C17 0.929 . S
H13 C19 0.930 . S
C14 H11 0.929 . S
C14 C15 1.398 1_455 S
C14 C16 1.396 . S
C15 C14 1.398 1_655 S
C15 C19 1.407 1_556 S
C16 C14 1.396 . S
C16 C17 1.394 1_556 S
C17 H12 0.929 . S
C17 C16 1.394 1_554 S
C17 C18 1.382 1_455 S
C18 C17 1.382 1_655 S
C18 C19 1.392 . S
C18 N20 1.420 . S
C19 H13 0.930 . S
C19 C15 1.407 1_554 S
C19 C18 1.392 . S
N20 C18 1.420 . S
N20 C21 1.244 1_655 S
C21 N20 1.244 1_455 S
H22 C25 0.929 . S
H23 C28 0.929 . S
H24 C30 0.930 . S
C25 H22 0.929 . S
C25 C26 1.398 . S
C25 C27 1.396 . S
C26 C25 1.398 . S
C26 C30 1.407 . S
C27 C25 1.396 . S
C27 C28 1.394 . S
C28 H23 0.929 . S
C28 C27 1.394 . S
C28 C29 1.382 . S
C29 C28 1.382 . S
C29 C30 1.392 . S
C29 N31 1.420 . S
C30 H24 0.930 . S
C30 C26 1.407 . S
C30 C29 1.392 . S
N31 C29 1.420 . S
N31 C32 1.244 . S
C32 N31 1.244 . S
H33 C36 0.929 . S
H34 C39 0.929 . S
H35 C41 0.930 . S
C36 H33 0.929 . S
C36 C37 1.398 . S
C36 C38 1.396 . S
C37 C36 1.398 . S
C37 C41 1.407 . S
C38 C36 1.396 . S
C38 C39 1.394 . S
C39 H34 0.929 . S
C39 C38 1.394 . S
C39 C40 1.382 . S
C40 C39 1.382 . S
C40 C41 1.392 . S
C40 N42 1.420 . S
C41 H35 0.930 . S
C41 C37 1.407 . S
C41 C40 1.392 . S
N42 C40 1.420 . S
N42 C43 1.244 . S
C43 N42 1.244 . S
Zn44 O50 1.920 . S
Zn44 O56 1.898 . S
Zn44 O59 1.905 1_455 S
Zn45 O53 1.905 . S
Zn45 O54 1.898 1_455 S
Zn45 O62 1.920 . S
Zn46 O49 2.080 . S
Zn46 O52 2.114 1_545 S
Zn46 O55 2.120 1_545 S
Zn46 O57 2.120 . S
Zn46 O58 2.114 1_455 S
Zn46 O61 2.080 1_545 S
C47 O52 1.166 . S
C47 O53 1.182 . S
C48 O54 1.167 . S
C48 O55 1.299 1_655 S
O49 Zn46 2.080 . S
O49 C63 1.305 . S
O50 Zn44 1.920 . S
O50 C63 1.234 . S
C51 O56 1.167 . S
C51 O57 1.299 . S
O52 Zn46 2.114 1_565 S
O52 C47 1.166 . S
O53 Zn45 1.905 . S
O53 C47 1.182 . S
O54 Zn45 1.898 1_655 S
O54 C48 1.167 . S
O55 Zn46 2.120 1_565 S
O55 C48 1.299 1_455 S
O56 Zn44 1.898 . S
O56 C51 1.167 . S
O57 Zn46 2.120 . S
O57 C51 1.299 . S
O58 Zn46 2.114 1_655 S
O58 C60 1.166 . S
O59 Zn44 1.905 1_655 S
O59 C60 1.182 . S
C60 O58 1.166 . S
C60 O59 1.182 . S
O61 Zn46 2.080 1_565 S
O61 C64 1.305 . S
O62 Zn45 1.920 . S
O62 C64 1.234 . S
C63 O49 1.305 . S
C63 O50 1.234 . S
C64 O61 1.305 . S
C64 O62 1.234 . S
Zn65 O71 1.920 . S
Zn65 O77 1.898 . S
Zn65 O80 1.905 . S
Zn66 O74 1.905 . S
Zn66 O75 1.898 . S
Zn66 O83 1.920 . S
Zn67 O70 2.080 . S
Zn67 O73 2.114 . S
Zn67 O76 2.120 . S
Zn67 O78 2.120 . S
Zn67 O79 2.114 . S
Zn67 O82 2.080 . S
C68 O73 1.166 . S
C68 O74 1.182 . S
C69 O75 1.167 . S
C69 O76 1.299 . S
O70 Zn67 2.080 . S
O70 C84 1.305 . S
O71 Zn65 1.920 . S
O71 C84 1.234 . S
C72 O77 1.167 . S
C72 O78 1.299 . S
O73 Zn67 2.114 . S
O73 C68 1.166 . S
O74 Zn66 1.905 . S
O74 C68 1.182 . S
O75 Zn66 1.898 . S
O75 C69 1.167 . S
O76 Zn67 2.120 . S
O76 C69 1.299 . S
O77 Zn65 1.898 . S
O77 C72 1.167 . S
O78 Zn67 2.120 . S
O78 C72 1.299 . S
O79 Zn67 2.114 . S
O79 C81 1.166 . S
O80 Zn65 1.905 . S
O80 C81 1.182 . S
C81 O79 1.166 . S
C81 O80 1.182 . S
O82 Zn67 2.080 . S
O82 C85 1.305 . S
O83 Zn66 1.920 . S
O83 C85 1.234 . S
C84 O70 1.305 . S
C84 O71 1.234 . S
C85 O82 1.305 . S
C85 O83 1.234 . S
C86 C87 1.387 . S
C86 H90 0.950 . S
C86 C95 1.390 . S
C87 C86 1.387 . S
C87 C89 1.387 . S
H88 C95 0.950 . S
C89 C87 1.387 . S
C89 C91 1.390 . S
C89 H93 0.950 . S
H90 C86 0.950 . S
C91 C89 1.390 . S
C91 C92 1.387 . S
C91 H94 0.950 . S
C92 C91 1.387 . S
C92 C95 1.387 . S
H93 C89 0.950 . S
H94 C91 0.950 . S
C95 C86 1.390 . S
C95 H88 0.950 . S
C95 C92 1.387 . S
C96 C97 1.387 1_655 S
C96 H100 0.950 . S
C96 C105 1.390 1_655 S
C97 C96 1.387 1_455 S
C97 C99 1.387 . S
H98 C105 0.950 1_655 S
C99 C97 1.387 . S
C99 C101 1.390 . S
C99 H103 0.950 . S
H100 C96 0.950 . S
C101 C99 1.390 . S
C101 C102 1.387 . S
C101 H104 0.950 . S
C102 C101 1.387 . S
C102 C105 1.387 . S
H103 C99 0.950 . S
H104 C101 0.950 . S
C105 C96 1.390 1_455 S
C105 H98 0.950 1_455 S
C105 C102 1.387 . S
C106 C107 1.387 . S
C106 H110 0.950 . S
C106 C115 1.390 . S
C107 C106 1.387 . S
C107 C109 1.387 . S
H108 C115 0.950 . S
C109 C107 1.387 . S
C109 C111 1.390 . S
C109 H113 0.950 . S
H110 C106 0.950 . S
C111 C109 1.390 . S
C111 C112 1.387 . S
C111 H114 0.950 . S
C112 C111 1.387 . S
C112 C115 1.387 . S
H113 C109 0.950 . S
H114 C111 0.950 . S
C115 C106 1.390 . S
C115 H108 0.950 . S
C115 C112 1.387 . S
C116 C117 1.387 . S
C116 H120 0.950 . S
C116 C125 1.390 . S
C117 C116 1.387 . S
C117 C119 1.387 . S
H118 C125 0.950 . S
C119 C117 1.387 . S
C119 C121 1.390 . S
C119 H123 0.950 . S
H120 C116 0.950 . S
C121 C119 1.390 . S
C121 C122 1.387 . S
C121 H124 0.950 . S
C122 C121 1.387 . S
C122 C125 1.387 . S
H123 C119 0.950 . S
H124 C121 0.950 . S
C125 C116 1.390 . S
C125 H118 0.950 . S
C125 C122 1.387 . S
C126 C127 1.387 1_554 S
C126 H130 0.950 . S
C126 C135 1.390 . S
C127 C126 1.387 1_556 S
C127 C129 1.387 . S
H128 C135 0.950 . S
C129 C127 1.387 . S
C129 C131 1.390 . S
C129 H133 0.950 . S
H130 C126 0.950 . S
C131 C129 1.390 . S
C131 C132 1.387 . S
C131 H134 0.950 . S
C132 C131 1.387 . S
C132 C135 1.387 1_556 S
H133 C129 0.950 . S
H134 C131 0.950 . S
C135 C126 1.390 . S
C135 H128 0.950 . S
C135 C132 1.387 1_554 S
C136 C137 1.387 1_554 S
C136 H140 0.950 . S
C136 C145 1.390 . S
C137 C136 1.387 1_556 S
C137 C139 1.387 . S
H138 C145 0.950 . S
C139 C137 1.387 . S
C139 C141 1.390 . S
C139 H143 0.950 . S
H140 C136 0.950 . S
C141 C139 1.390 . S
C141 C142 1.387 . S
C141 H144 0.950 . S
C142 C141 1.387 . S
C142 C145 1.387 1_556 S
H143 C139 0.950 . S
H144 C141 0.950 . S
C145 C136 1.390 . S
C145 H138 0.950 . S
C145 C142 1.387 1_554 S
C146 C147 1.387 . S
C146 H150 0.950 . S
C146 C155 1.390 . S
C147 C146 1.387 . S
C147 C149 1.387 . S
H148 C155 0.950 . S
C149 C147 1.387 . S
C149 C151 1.390 . S
C149 H153 0.950 1_655 S
H150 C146 0.950 . S
C151 C149 1.390 . S
C151 C152 1.387 . S
C151 H154 0.950 . S
C152 C151 1.387 . S
C152 C155 1.387 . S
H153 C149 0.950 1_455 S
H154 C151 0.950 . S
C155 C146 1.390 . S
C155 H148 0.950 . S
C155 C152 1.387 . S
C156 C157 1.387 . S
C156 H160 0.950 . S
C156 C165 1.390 . S
C157 C156 1.387 . S
C157 C159 1.387 . S
H158 C165 0.950 . S
C159 C157 1.387 . S
C159 C161 1.390 . S
C159 H163 0.950 1_556 S
H160 C156 0.950 . S
C161 C159 1.390 . S
C161 C162 1.387 . S
C161 H164 0.950 . S
C162 C161 1.387 . S
C162 C165 1.387 . S
H163 C159 0.950 1_554 S
H164 C161 0.950 . S
C165 C156 1.390 . S
C165 H158 0.950 . S
C165 C162 1.387 . S
C166 C167 1.387 . S
C166 H170 0.950 . S
C166 C175 1.390 . S
C167 C166 1.387 . S
C167 C169 1.387 . S
H168 C175 0.950 . S
C169 C167 1.387 . S
C169 C171 1.390 . S
C169 H173 0.950 . S
H170 C166 0.950 . S
C171 C169 1.390 . S
C171 C172 1.387 . S
C171 H174 0.950 . S
C172 C171 1.387 . S
C172 C175 1.387 . S
H173 C169 0.950 . S
H174 C171 0.950 . S
C175 C166 1.390 . S
C175 H168 0.950 . S
C175 C172 1.387 . S
C176 C177 1.387 . S
C176 H180 0.950 . S
C176 C185 1.390 . S
C177 C176 1.387 . S
C177 C179 1.387 . S
H178 C185 0.950 . S
C179 C177 1.387 . S
C179 C181 1.390 . S
C179 H183 0.950 . S
H180 C176 0.950 . S
C181 C179 1.390 . S
C181 C182 1.387 . S
C181 H184 0.950 . S
C182 C181 1.387 . S
C182 C185 1.387 . S
H183 C179 0.950 . S
H184 C181 0.950 . S
C185 C176 1.390 . S
C185 H178 0.950 . S
C185 C182 1.387 . S
C186 C187 1.387 . S
C186 H190 0.950 . S
C186 C195 1.390 . S
C187 C186 1.387 . S
C187 C189 1.387 . S
H188 C195 0.950 . S
C189 C187 1.387 . S
C189 C191 1.390 . S
C189 H193 0.950 . S
H190 C186 0.950 . S
C191 C189 1.390 . S
C191 C192 1.387 . S
C191 H194 0.950 . S
C192 C191 1.387 . S
C192 C195 1.387 . S
H193 C189 0.950 . S
H194 C191 0.950 . S
C195 C186 1.390 . S
C195 H188 0.950 . S
C195 C192 1.387 . S
C196 C197 1.387 . S
C196 H200 0.950 . S
C196 C205 1.390 . S
C197 C196 1.387 . S
C197 C199 1.387 . S
H198 C205 0.950 . S
C199 C197 1.387 . S
C199 C201 1.390 . S
C199 H203 0.950 . S
H200 C196 0.950 . S
C201 C199 1.390 . S
C201 C202 1.387 . S
C201 H204 0.950 . S
C202 C201 1.387 . S
C202 C205 1.387 . S
H203 C199 0.950 . S
H204 C201 0.950 . S
C205 C196 1.390 . S
C205 H198 0.950 . S
C205 C202 1.387 . S
C92 C51 1.432 . S
C87 C10 1.539 . S
C102 C47 1.417 . S
C97 C21 1.505 . S
C112 C72 1.434 . S
C107 C32 1.539 . S
C117 C43 1.503 . S
C122 C68 1.418 . S
C127 C5 1.355 . S
C132 C69 1.186 . S
C142 C84 1.194 . S
C137 C15 1.366 . S
C147 C4 1.678 1_655 S
C152 C85 1.537 . S
C162 C81 1.562 . S
C157 C16 1.693 . S
C172 C48 1.188 . S
C167 C27 1.355 . S
C177 C37 1.368 . S
C182 C63 1.199 . S
C192 C64 1.535 . S
C187 C26 1.678 . S
C202 C60 1.566 . S
C197 C38 1.695 . S
