# Generated by pormake.
# Topology sit, (3,6)-cn, num edge types: 1
# Building blocks:
#     Node 0, Type 0, BuildingBlock: ESEHIV_clean_linker_0, # of connection points: 3
#     Node 1, Type 0, BuildingBlock: ESEHIV_clean_linker_0, # of connection points: 3
#     Node 2, Type 0, BuildingBlock: ESEHIV_clean_linker_0, # of connection points: 3
#     Node 3, Type 0, BuildingBlock: ESEHIV_clean_linker_0, # of connection points: 3
#     Node 4, Type 1, BuildingBlock: MIDCAF_clean_sbu_0, # of connection points: 6
#     Node 5, Type 1, BuildingBlock: MIDCAF_clean_sbu_0, # of connection points: 6
#     Edge 6, Type (0, 1), None
#     Edge 7, Type (0, 1), None
#     Edge 8, Type (0, 1), None
#     Edge 9, Type (0, 1), None
#     Edge 10, Type (0, 1), None
#     Edge 11, Type (0, 1), None
#     Edge 12, Type (0, 1), None
#     Edge 13, Type (0, 1), None
#     Edge 14, Type (0, 1), None
#     Edge 15, Type (0, 1), None
#     Edge 16, Type (0, 1), None
#     Edge 17, Type (0, 1), None
# Relax obj value: 0.111
# Max RMSD: 0.194
# Mean RMSD: 0.106
data_MOF--net-sit--node1-MIDCAF_clean_sbu_0--node2-ESEHIV_clean_linker_0--edge1-none
_symmetry_space_group_name_H-M    P1
_symmetry_Int_Tables_number       1
_symmetry_cell_setting            triclinic
loop_
_symmetry_equiv_pos_as_xyz
'x, y, z'
_cell_length_a     9.5785667
_cell_length_b     8.494393
_cell_length_c     16.467889
_cell_angle_alpha  90.001295
_cell_angle_beta   90.000165
_cell_angle_gamma 84.075244
loop_
_atom_site_label
_atom_site_type_symbol
_atom_site_fract_x
_atom_site_fract_y
_atom_site_fract_z
_atom_type_partial_charge
H0 H 0.02605 0.54012 0.78822 0.0
H1 H 0.23916 0.46994 0.01776 0.0
H2 H 0.79223 0.45416 0.00396 0.0
C3 C 0.02308 0.5189 0.85311 0.0
C4 C 0.8954 0.49802 0.89102 0.0
C5 C 0.14761 0.50676 0.89849 0.0
C6 C 0.14324 0.47796 -0.01765 0.0
C7 C 0.01476 0.46027 0.02049 0.0
C8 C 0.89153 0.46823 -0.02548 0.0
H9 H -0.02342 0.91062 0.78809 0.0
H10 H 0.76351 0.98051 0.01765 0.0
H11 H 0.21044 0.99626 0.00385 0.0
C12 C -0.02044 0.93179 0.85299 0.0
C13 C 0.10725 0.95259 0.8909 0.0
C14 C 0.85503 0.94386 0.89837 0.0
C15 C 0.85942 0.97255 -0.01776 0.0
C16 C -0.0121 0.9902 0.02039 0.0
C17 C 0.11114 0.98227 -0.02559 0.0
H18 H 0.52611 1.03961 0.28809 0.0
H19 H 0.73919 0.9697 0.51765 0.0
H20 H 0.29225 0.95395 0.50385 0.0
C21 C 0.52313 1.01844 0.35299 0.0
C22 C 0.39544 0.99763 0.3909 0.0
C23 C 0.64766 1.00636 0.39837 0.0
C24 C 0.64327 0.97766 0.48224 0.0
C25 C 0.51479 0.96001 0.52039 0.0
C26 C 0.39156 0.96794 0.47441 0.0
H27 H 0.47664 0.41011 0.28822 0.0
H28 H 0.26353 0.48027 0.51776 0.0
H29 H 0.71046 0.49604 0.50396 0.0
C30 C 0.47961 0.43133 0.35311 0.0
C31 C 0.6073 0.4522 0.39102 0.0
C32 C 0.35508 0.44346 0.39849 0.0
C33 C 0.35946 0.47225 0.48235 0.0
C34 C 0.48793 0.48994 0.52049 0.0
C35 C 0.61117 0.48198 0.47452 0.0
Zn36 Zn -0.02433 0.55658 0.27325 0.0
Zn37 Zn 0.02705 0.89341 0.27308 0.0
Zn38 Zn 0.00136 0.22502 0.26688 0.0
C39 C -0.00428 1.0063 0.10874 0.0
C40 C 0.78249 1.01222 0.35686 0.0
O41 O 0.18414 0.30512 0.33041 0.0
O42 O 0.144 0.56554 0.3444 0.0
C43 C 0.00697 0.44401 0.10884 0.0
O44 O -0.00059 1.14337 0.1412 0.0
O45 O 0.00378 0.88279 0.15179 0.0
O46 O 0.85872 0.88435 0.34422 0.0
O47 O 0.8186 1.14481 0.33037 0.0
O48 O -0.00107 0.56744 0.15195 0.0
O49 O 0.00328 0.30688 0.14124 0.0
O50 O 0.8057 0.31076 0.32838 0.0
O51 O 0.78514 0.5732 0.32453 0.0
C52 C 0.73716 0.4456 0.34403 0.0
O53 O 0.19702 1.13916 0.32833 0.0
O54 O 0.2176 0.87672 0.32435 0.0
C55 C 0.22024 0.43765 0.35696 0.0
C56 C 0.26557 1.00429 0.34391 0.0
Zn57 Zn 0.47564 1.05681 0.77308 0.0
Zn58 Zn 0.52702 0.39363 0.77325 0.0
Zn59 Zn 0.50133 0.7252 0.76688 0.0
C60 C 0.49573 0.5062 0.60884 0.0
C61 C 0.28245 0.51257 0.85697 0.0
O62 O 0.68409 0.80541 0.83037 0.0
O63 O 0.64397 1.06587 0.84422 0.0
C64 C 0.50697 0.94391 0.60874 0.0
O65 O 0.49941 0.64333 0.64124 0.0
O66 O 0.50376 0.38277 0.65195 0.0
O67 O 0.35869 0.38468 0.8444 0.0
O68 O 0.31855 0.6451 0.83041 0.0
O69 O 0.49891 1.06742 0.65179 0.0
O70 O 0.50328 0.80684 0.6412 0.0
O71 O 0.30568 0.81106 0.82833 0.0
O72 O 0.28509 1.0735 0.82435 0.0
C73 C 0.23712 0.94593 0.84391 0.0
O74 O 0.69699 0.63946 0.82838 0.0
O75 O 0.71755 0.37701 0.82453 0.0
C76 C 0.7202 0.938 0.85685 0.0
C77 C 0.76553 0.50462 0.84403 0.0
loop_
_geom_bond_atom_site_label_1
_geom_bond_atom_site_label_2
_geom_bond_distance
_geom_bond_site_symmetry_2
_ccdc_geom_bond_type
H0 C3 0.931 . S
H1 C6 0.928 . S
H2 C8 0.930 . S
C3 H0 0.931 . S
C3 C4 1.413 1_455 S
C3 C5 1.360 . S
C4 C3 1.413 1_655 S
C4 C8 1.429 1_556 S
C5 C3 1.360 . S
C5 C6 1.372 1_556 S
C6 H1 0.928 . S
C6 C5 1.372 1_554 S
C6 C7 1.404 . S
C7 C6 1.404 . S
C7 C8 1.391 1_455 S
C8 H2 0.930 . S
C8 C4 1.429 1_554 S
C8 C7 1.391 1_655 S
H9 C12 0.931 . S
H10 C15 0.928 . S
H11 C17 0.930 . S
C12 H9 0.931 . S
C12 C13 1.413 . S
C12 C14 1.360 1_455 S
C13 C12 1.413 . S
C13 C17 1.429 1_556 S
C14 C12 1.360 1_655 S
C14 C15 1.372 1_556 S
C15 H10 0.928 . S
C15 C14 1.372 1_554 S
C15 C16 1.404 . S
C16 C15 1.404 . S
C16 C17 1.391 1_655 S
C17 H11 0.930 . S
C17 C13 1.429 1_554 S
C17 C16 1.391 1_455 S
H18 C21 0.931 . S
H19 C24 0.928 . S
H20 C26 0.930 . S
C21 H18 0.931 . S
C21 C22 1.413 . S
C21 C23 1.360 . S
C22 C21 1.413 . S
C22 C26 1.429 . S
C23 C21 1.360 . S
C23 C24 1.372 . S
C24 H19 0.928 . S
C24 C23 1.372 . S
C24 C25 1.404 . S
C25 C24 1.404 . S
C25 C26 1.391 . S
C26 H20 0.930 . S
C26 C22 1.429 . S
C26 C25 1.391 . S
H27 C30 0.931 . S
H28 C33 0.928 . S
H29 C35 0.930 . S
C30 H27 0.931 . S
C30 C31 1.413 . S
C30 C32 1.360 . S
C31 C30 1.413 . S
C31 C35 1.429 . S
C32 C30 1.360 . S
C32 C33 1.372 . S
C33 H28 0.928 . S
C33 C32 1.372 . S
C33 C34 1.404 . S
C34 C33 1.404 . S
C34 C35 1.391 . S
C35 H29 0.930 . S
C35 C31 1.429 . S
C35 C34 1.391 . S
Zn36 O42 1.920 . S
Zn36 O48 1.898 . S
Zn36 O51 1.905 1_455 S
Zn37 O45 1.905 . S
Zn37 O46 1.898 1_455 S
Zn37 O54 1.920 . S
Zn38 O41 2.080 . S
Zn38 O44 2.114 1_445 S
Zn38 O47 2.120 1_445 S
Zn38 O49 2.120 . S
Zn38 O50 2.114 1_455 S
Zn38 O53 2.080 1_545 S
C39 O44 1.166 1_455 S
C39 O45 1.182 . S
C40 O46 1.167 . S
C40 O47 1.299 . S
O41 Zn38 2.080 . S
O41 C55 1.305 . S
O42 Zn36 1.920 . S
O42 C55 1.234 . S
C43 O48 1.167 . S
C43 O49 1.299 . S
O44 Zn38 2.114 1_665 S
O44 C39 1.166 1_655 S
O45 Zn37 1.905 . S
O45 C39 1.182 . S
O46 Zn37 1.898 1_655 S
O46 C40 1.167 . S
O47 Zn38 2.120 1_665 S
O47 C40 1.299 . S
O48 Zn36 1.898 . S
O48 C43 1.167 . S
O49 Zn38 2.120 . S
O49 C43 1.299 . S
O50 Zn38 2.114 1_655 S
O50 C52 1.166 . S
O51 Zn36 1.905 1_655 S
O51 C52 1.182 . S
C52 O50 1.166 . S
C52 O51 1.182 . S
O53 Zn38 2.080 1_565 S
O53 C56 1.305 . S
O54 Zn37 1.920 . S
O54 C56 1.234 . S
C55 O41 1.305 . S
C55 O42 1.234 . S
C56 O53 1.305 . S
C56 O54 1.234 . S
Zn57 O63 1.920 . S
Zn57 O69 1.898 . S
Zn57 O72 1.905 . S
Zn58 O66 1.905 . S
Zn58 O67 1.898 . S
Zn58 O75 1.920 . S
Zn59 O62 2.080 . S
Zn59 O65 2.114 . S
Zn59 O68 2.120 . S
Zn59 O70 2.120 . S
Zn59 O71 2.114 . S
Zn59 O74 2.080 . S
C60 O65 1.166 . S
C60 O66 1.182 . S
C61 O67 1.167 . S
C61 O68 1.299 . S
O62 Zn59 2.080 . S
O62 C76 1.304 1_556 S
O63 Zn57 1.920 . S
O63 C76 1.231 1_556 S
C64 O69 1.167 . S
C64 O70 1.299 . S
O65 Zn59 2.114 . S
O65 C60 1.166 . S
O66 Zn58 1.905 . S
O66 C60 1.182 . S
O67 Zn58 1.898 . S
O67 C61 1.167 . S
O68 Zn59 2.120 . S
O68 C61 1.299 . S
O69 Zn57 1.898 . S
O69 C64 1.167 . S
O70 Zn59 2.120 . S
O70 C64 1.299 . S
O71 Zn59 2.114 . S
O71 C73 1.166 . S
O72 Zn57 1.905 . S
O72 C73 1.182 . S
C73 O71 1.166 . S
C73 O72 1.182 . S
O74 Zn59 2.080 . S
O74 C77 1.305 . S
O75 Zn58 1.920 . S
O75 C77 1.234 . S
C76 O62 1.304 1_554 S
C76 O63 1.231 1_554 S
C77 O74 1.305 . S
C77 O75 1.234 . S
C43 C7 1.483 . S
C39 C16 1.485 1_455 S
C64 C25 1.483 . S
C34 C60 1.485 . S
C5 C61 1.347 . S
C76 C14 1.394 1_554 S
C4 C77 1.585 . S
C73 C13 1.620 . S
C40 C23 1.347 . S
C32 C55 1.395 . S
C56 C22 1.585 . S
C52 C31 1.620 . S
