# Generated by pormake.
# Topology cml, (3,6)-cn, num edge types: 1
# Building blocks:
#     Node 0, Type 0, BuildingBlock: INOVEN_clean_linker_0, # of connection points: 3
#     Node 1, Type 0, BuildingBlock: INOVEN_clean_linker_0, # of connection points: 3
#     Node 2, Type 0, BuildingBlock: INOVEN_clean_linker_0, # of connection points: 3
#     Node 3, Type 0, BuildingBlock: INOVEN_clean_linker_0, # of connection points: 3
#     Node 4, Type 0, BuildingBlock: INOVEN_clean_linker_0, # of connection points: 3
#     Node 5, Type 0, BuildingBlock: INOVEN_clean_linker_0, # of connection points: 3
#     Node 6, Type 0, BuildingBlock: INOVEN_clean_linker_0, # of connection points: 3
#     Node 7, Type 0, BuildingBlock: INOVEN_clean_linker_0, # of connection points: 3
#     Node 8, Type 1, BuildingBlock: OJICUG_clean_sbu_0, # of connection points: 6
#     Node 9, Type 1, BuildingBlock: OJICUG_clean_sbu_0, # of connection points: 6
#     Node 10, Type 1, BuildingBlock: OJICUG_clean_sbu_0, # of connection points: 6
#     Node 11, Type 1, BuildingBlock: OJICUG_clean_sbu_0, # of connection points: 6
#     Edge 12, Type (0, 1), None
#     Edge 13, Type (0, 1), None
#     Edge 14, Type (0, 1), None
#     Edge 15, Type (0, 1), None
#     Edge 16, Type (0, 1), None
#     Edge 17, Type (0, 1), None
#     Edge 18, Type (0, 1), None
#     Edge 19, Type (0, 1), None
#     Edge 20, Type (0, 1), None
#     Edge 21, Type (0, 1), None
#     Edge 22, Type (0, 1), None
#     Edge 23, Type (0, 1), None
#     Edge 24, Type (0, 1), None
#     Edge 25, Type (0, 1), None
#     Edge 26, Type (0, 1), None
#     Edge 27, Type (0, 1), None
#     Edge 28, Type (0, 1), None
#     Edge 29, Type (0, 1), None
#     Edge 30, Type (0, 1), None
#     Edge 31, Type (0, 1), None
#     Edge 32, Type (0, 1), None
#     Edge 33, Type (0, 1), None
#     Edge 34, Type (0, 1), None
#     Edge 35, Type (0, 1), None
# Relax obj value: 0.009
# Max RMSD: 0.043
# Mean RMSD: 0.040
data_MOF--net-cml--node1-OJICUG_clean_sbu_0--node2-INOVEN_clean_linker_0--edge1-none
_symmetry_space_group_name_H-M    P1
_symmetry_Int_Tables_number       1
_symmetry_cell_setting            triclinic
loop_
_symmetry_equiv_pos_as_xyz
'x, y, z'
_cell_length_a     18.059543
_cell_length_b     18.329254
_cell_length_c     17.030141
_cell_angle_alpha  88.092966
_cell_angle_beta   92.070402
_cell_angle_gamma 91.551583
loop_
_atom_site_label
_atom_site_type_symbol
_atom_site_fract_x
_atom_site_fract_y
_atom_site_fract_z
_atom_type_partial_charge
H0 H 0.30827 0.28561 0.08095 0.0
H1 H 0.44671 0.47703 0.03988 0.0
H2 H 0.27895 0.41973 0.86883 0.0
N3 N 0.22283 0.30295 0.95119 0.0
N4 N 0.18735 0.31406 0.88786 0.0
C5 C 0.32342 0.33337 0.04529 0.0
C6 C 0.38246 0.37977 0.06989 0.0
C7 C 0.28384 0.3489 -0.02602 0.0
C8 C 0.30593 0.40921 0.92578 0.0
C9 C 0.36363 0.45584 0.95104 0.0
C10 C 0.39987 0.44182 0.02323 0.0
H11 H 0.73383 0.69733 0.57691 0.0
H12 H 0.60616 0.49712 0.55135 0.0
H13 H 0.76614 0.55892 0.3813 0.0
N14 N 0.8176 0.68097 0.45455 0.0
N15 N 0.85515 0.66966 0.39627 0.0
C16 C 0.72094 0.64751 0.54614 0.0
C17 C 0.66546 0.59887 0.57327 0.0
C18 C 0.75989 0.63195 0.47876 0.0
C19 C 0.7403 0.56894 0.43621 0.0
C20 C 0.68557 0.51972 0.46361 0.0
C21 C 0.65077 0.53397 0.53306 0.0
H22 H 0.75627 0.29721 0.07332 0.0
H23 H 0.60008 0.46849 0.04877 0.0
H24 H 0.73386 0.42042 0.85309 0.0
N25 N 0.81431 0.31323 0.93521 0.0
N26 N 0.84137 0.31845 0.86858 0.0
C27 C 0.73125 0.34084 0.03791 0.0
C28 C 0.67641 0.38227 0.06965 0.0
C29 C 0.75475 0.35555 0.96087 0.0
C30 C 0.71863 0.41041 0.91349 0.0
C31 C 0.66255 0.45232 0.94559 0.0
C32 C 0.64424 0.4385 0.02405 0.0
H33 H 0.33418 0.56882 0.32544 0.0
H34 H 0.45511 0.51606 0.54098 0.0
H35 H 0.29421 0.68347 0.53629 0.0
N36 N 0.24725 0.66164 0.38518 0.0
N37 N 0.19219 0.67696 0.42191 0.0
C38 C 0.34649 0.57789 0.38721 0.0
C39 C 0.39841 0.53611 0.42894 0.0
C40 C 0.30677 0.62839 0.42628 0.0
C41 C 0.32292 0.64174 0.5067 0.0
C42 C 0.37604 0.60021 0.54841 0.0
C43 C 0.41232 0.54679 0.5093 0.0
H44 H 0.80827 0.78561 0.08095 0.0
H45 H 0.94671 0.97703 0.03988 0.0
H46 H 0.77895 0.91973 0.86883 0.0
N47 N 0.72283 0.80295 0.95119 0.0
N48 N 0.68735 0.81406 0.88786 0.0
C49 C 0.82342 0.83337 0.04529 0.0
C50 C 0.88246 0.87977 0.06989 0.0
C51 C 0.78384 0.8489 -0.02602 0.0
C52 C 0.80593 0.90921 0.92578 0.0
C53 C 0.86363 0.95584 0.95104 0.0
C54 C 0.89987 0.94182 0.02323 0.0
H55 H 0.23383 0.19733 0.57691 0.0
H56 H 0.10616 -0.00288 0.55135 0.0
H57 H 0.26614 0.05892 0.3813 0.0
N58 N 0.3176 0.18097 0.45455 0.0
N59 N 0.35515 0.16966 0.39627 0.0
C60 C 0.22094 0.14751 0.54614 0.0
C61 C 0.16546 0.09887 0.57327 0.0
C62 C 0.25989 0.13195 0.47876 0.0
C63 C 0.2403 0.06894 0.43621 0.0
C64 C 0.18557 0.01972 0.46361 0.0
C65 C 0.15077 0.03397 0.53306 0.0
H66 H 0.25627 0.79721 0.07332 0.0
H67 H 0.10008 0.96849 0.04877 0.0
H68 H 0.23386 0.92042 0.85309 0.0
N69 N 0.31431 0.81323 0.93521 0.0
N70 N 0.34137 0.81845 0.86858 0.0
C71 C 0.23125 0.84084 0.03791 0.0
C72 C 0.17641 0.88227 0.06965 0.0
C73 C 0.25475 0.85555 0.96087 0.0
C74 C 0.21863 0.91041 0.91349 0.0
C75 C 0.16255 0.95232 0.94559 0.0
C76 C 0.14424 0.9385 0.02405 0.0
H77 H 0.83418 0.06882 0.32544 0.0
H78 H 0.95511 0.01606 0.54098 0.0
H79 H 0.79421 0.18347 0.53629 0.0
N80 N 0.74725 0.16164 0.38518 0.0
N81 N 0.69219 0.17696 0.42191 0.0
C82 C 0.84649 0.07789 0.38721 0.0
C83 C 0.89841 0.03611 0.42894 0.0
C84 C 0.80677 0.12839 0.42628 0.0
C85 C 0.82292 0.14174 0.5067 0.0
C86 C 0.87604 0.10021 0.54841 0.0
C87 C 0.91232 0.04679 0.5093 0.0
Sc88 Sc 0.03116 0.76 0.24173 0.0
Sc89 Sc 0.04642 0.949 0.25761 0.0
Sc90 Sc 0.0286 0.83791 0.4255 0.0
O91 O 0.03476 0.84929 0.30806 0.0
C92 C 0.9139 0.71799 0.3746 0.0
C93 C 0.931 0.86509 0.14038 0.0
C94 C 0.94051 0.98193 0.39062 0.0
C95 C 0.14475 0.86507 0.14691 0.0
C96 C 0.13209 0.7129 0.38624 0.0
C97 C 0.14941 0.96467 0.41289 0.0
O98 O 0.95249 0.70176 0.31681 0.0
O99 O 0.97021 0.91922 0.16447 0.0
O100 O 0.96654 0.93173 0.43484 0.0
O101 O 0.10611 0.80632 0.15468 0.0
O102 O 0.08965 0.74138 0.4328 0.0
O103 O 0.12217 0.98887 0.34762 0.0
O104 O 0.12477 0.71945 0.31154 0.0
O105 O 0.13897 0.9183 0.19184 0.0
O106 O 0.12856 0.90389 0.44494 0.0
O107 O 0.93875 0.80025 0.16862 0.0
O108 O 0.92781 0.77406 0.41506 0.0
O109 O 0.95547 -0.00935 0.31863 0.0
Sc110 Sc 0.01529 0.22319 0.72338 0.0
Sc111 Sc 1.00414 0.03179 0.75467 0.0
Sc112 Sc 1.00999 0.14536 0.91488 0.0
O113 O 1.00988 0.13358 0.79753 0.0
C114 C 0.12613 0.26894 0.86545 0.0
C115 C 0.11716 0.11464 0.63899 0.0
C116 C 0.11586 0.00584 0.89937 0.0
C117 C 0.90399 0.11597 0.62845 0.0
C118 C 0.90158 0.2734 0.85035 0.0
C119 C 0.89814 0.01123 0.89927 0.0
O120 O 0.09652 0.27952 0.79738 0.0
O121 O 0.08128 0.06018 0.66729 0.0
O122 O 0.08727 0.05692 0.93676 0.0
O123 O 0.93819 0.17688 0.63726 0.0
O124 O 0.93085 0.23315 0.90511 0.0
O125 O 0.92633 0.98874 0.83776 0.0
O126 O 0.92361 0.27412 0.77989 0.0
O127 O 0.91371 0.0609 0.67493 0.0
O128 O 0.9177 0.07113 0.93011 0.0
O129 O 0.10618 0.17999 0.65867 0.0
O130 O 0.10343 0.21979 0.91366 0.0
O131 O 0.09582 -0.00799 0.82896 0.0
Sc132 Sc 0.53116 0.26 0.24173 0.0
Sc133 Sc 0.54642 0.449 0.25761 0.0
Sc134 Sc 0.5286 0.33791 0.4255 0.0
O135 O 0.53476 0.34929 0.30806 0.0
C136 C 0.4139 0.21799 0.3746 0.0
C137 C 0.431 0.36509 0.14038 0.0
C138 C 0.44051 0.48193 0.39062 0.0
C139 C 0.64475 0.36507 0.14691 0.0
C140 C 0.63209 0.2129 0.38624 0.0
C141 C 0.64941 0.46467 0.41289 0.0
O142 O 0.45249 0.20176 0.31681 0.0
O143 O 0.47021 0.41922 0.16447 0.0
O144 O 0.46654 0.43173 0.43484 0.0
O145 O 0.60611 0.30632 0.15468 0.0
O146 O 0.58965 0.24138 0.4328 0.0
O147 O 0.62217 0.48887 0.34762 0.0
O148 O 0.62477 0.21945 0.31154 0.0
O149 O 0.63897 0.4183 0.19184 0.0
O150 O 0.62856 0.40389 0.44494 0.0
O151 O 0.43875 0.30025 0.16862 0.0
O152 O 0.42781 0.27406 0.41506 0.0
O153 O 0.45547 0.49065 0.31863 0.0
Sc154 Sc 0.51529 0.72319 0.72338 0.0
Sc155 Sc 0.50414 0.53179 0.75467 0.0
Sc156 Sc 0.50999 0.64536 0.91488 0.0
O157 O 0.50988 0.63358 0.79753 0.0
C158 C 0.62613 0.76894 0.86545 0.0
C159 C 0.61716 0.61464 0.63899 0.0
C160 C 0.61586 0.50584 0.89937 0.0
C161 C 0.40399 0.61597 0.62845 0.0
C162 C 0.40158 0.7734 0.85035 0.0
C163 C 0.39814 0.51123 0.89927 0.0
O164 O 0.59652 0.77952 0.79738 0.0
O165 O 0.58128 0.56018 0.66729 0.0
O166 O 0.58727 0.55692 0.93676 0.0
O167 O 0.43819 0.67688 0.63726 0.0
O168 O 0.43085 0.73315 0.90511 0.0
O169 O 0.42633 0.48874 0.83776 0.0
O170 O 0.42361 0.77412 0.77989 0.0
O171 O 0.41371 0.5609 0.67493 0.0
O172 O 0.4177 0.57113 0.93011 0.0
O173 O 0.60618 0.67999 0.65867 0.0
O174 O 0.60343 0.71979 0.91366 0.0
O175 O 0.59582 0.49201 0.82896 0.0
loop_
_geom_bond_atom_site_label_1
_geom_bond_atom_site_label_2
_geom_bond_distance
_geom_bond_site_symmetry_2
_ccdc_geom_bond_type
H0 C5 0.929 . S
H1 C10 0.931 . S
H2 C8 0.930 . S
N3 N4 1.234 . S
N3 C7 1.453 1_556 S
N4 N3 1.234 . S
C5 H0 0.929 . S
C5 C6 1.373 . S
C5 C7 1.368 . S
C6 C5 1.373 . S
C6 C10 1.397 . S
C7 N3 1.453 1_554 S
C7 C5 1.368 . S
C7 C8 1.373 1_554 S
C8 H2 0.930 . S
C8 C7 1.373 1_556 S
C8 C9 1.371 . S
C9 C8 1.371 . S
C9 C10 1.383 1_556 S
C10 H1 0.931 . S
C10 C6 1.397 . S
C10 C9 1.383 1_554 S
H11 C16 0.929 . S
H12 C21 0.931 . S
H13 C19 0.930 . S
N14 N15 1.234 . S
N14 C18 1.453 . S
N15 N14 1.234 . S
C16 H11 0.929 . S
C16 C17 1.373 . S
C16 C18 1.368 . S
C17 C16 1.373 . S
C17 C21 1.397 . S
C18 N14 1.453 . S
C18 C16 1.368 . S
C18 C19 1.373 . S
C19 H13 0.930 . S
C19 C18 1.373 . S
C19 C20 1.371 . S
C20 C19 1.371 . S
C20 C21 1.383 . S
C21 H12 0.931 . S
C21 C17 1.397 . S
C21 C20 1.383 . S
H22 C27 0.929 . S
H23 C32 0.931 . S
H24 C30 0.930 . S
N25 N26 1.234 1_554 S
N25 C29 1.453 . S
N26 N25 1.234 1_556 S
C27 H22 0.929 . S
C27 C28 1.373 . S
C27 C29 1.368 . S
C28 C27 1.373 . S
C28 C32 1.397 . S
C29 N25 1.453 . S
C29 C27 1.368 . S
C29 C30 1.373 1_554 S
C30 H24 0.930 . S
C30 C29 1.373 1_556 S
C30 C31 1.371 . S
C31 C30 1.371 . S
C31 C32 1.383 1_556 S
C32 H23 0.931 . S
C32 C28 1.397 . S
C32 C31 1.383 1_554 S
H33 C38 0.929 . S
H34 C43 0.931 . S
H35 C41 0.930 . S
N36 N37 1.234 . S
N36 C40 1.453 . S
N37 N36 1.234 . S
C38 H33 0.929 . S
C38 C39 1.373 . S
C38 C40 1.368 . S
C39 C38 1.373 . S
C39 C43 1.397 . S
C40 N36 1.453 . S
C40 C38 1.368 . S
C40 C41 1.373 . S
C41 H35 0.930 . S
C41 C40 1.373 . S
C41 C42 1.371 . S
C42 C41 1.371 . S
C42 C43 1.383 . S
C43 H34 0.931 . S
C43 C39 1.397 . S
C43 C42 1.383 . S
H44 C49 0.929 . S
H45 C54 0.931 1_545 S
H46 C52 0.930 . S
N47 N48 1.234 . S
N47 C51 1.453 1_556 S
N48 N47 1.234 . S
C49 H44 0.929 . S
C49 C50 1.373 . S
C49 C51 1.368 . S
C50 C49 1.373 . S
C50 C54 1.397 . S
C51 N47 1.453 1_554 S
C51 C49 1.368 . S
C51 C52 1.373 1_554 S
C52 H46 0.930 . S
C52 C51 1.373 1_556 S
C52 C53 1.371 . S
C53 C52 1.371 . S
C53 C54 1.383 1_556 S
C54 H45 0.931 1_565 S
C54 C50 1.397 . S
C54 C53 1.383 1_554 S
H55 C60 0.929 . S
H56 C65 0.931 . S
H57 C63 0.930 . S
N58 N59 1.234 . S
N58 C62 1.453 . S
N59 N58 1.234 . S
C60 H55 0.929 . S
C60 C61 1.373 . S
C60 C62 1.368 . S
C61 C60 1.373 . S
C61 C65 1.397 . S
C62 N58 1.453 . S
C62 C60 1.368 . S
C62 C63 1.373 . S
C63 H57 0.930 . S
C63 C62 1.373 . S
C63 C64 1.371 . S
C64 C63 1.371 . S
C64 C65 1.383 . S
C65 H56 0.931 . S
C65 C61 1.397 . S
C65 C64 1.383 . S
H66 C71 0.929 . S
H67 C76 0.931 . S
H68 C74 0.930 . S
N69 N70 1.234 1_554 S
N69 C73 1.453 . S
N70 N69 1.234 1_556 S
C71 H66 0.929 . S
C71 C72 1.373 . S
C71 C73 1.368 . S
C72 C71 1.373 . S
C72 C76 1.397 . S
C73 N69 1.453 . S
C73 C71 1.368 . S
C73 C74 1.373 1_554 S
C74 H68 0.930 . S
C74 C73 1.373 1_556 S
C74 C75 1.371 . S
C75 C74 1.371 . S
C75 C76 1.383 1_556 S
C76 H67 0.931 . S
C76 C72 1.397 . S
C76 C75 1.383 1_554 S
H77 C82 0.929 . S
H78 C87 0.931 . S
H79 C85 0.930 . S
N80 N81 1.234 . S
N80 C84 1.453 . S
N81 N80 1.234 . S
C82 H77 0.929 . S
C82 C83 1.373 . S
C82 C84 1.368 . S
C83 C82 1.373 . S
C83 C87 1.397 . S
C84 N80 1.453 . S
C84 C82 1.368 . S
C84 C85 1.373 . S
C85 H79 0.930 . S
C85 C84 1.373 . S
C85 C86 1.371 . S
C86 C85 1.371 . S
C86 C87 1.383 . S
C87 H78 0.931 . S
C87 C83 1.397 . S
C87 C86 1.383 . S
Sc88 O91 2.025 . S
Sc88 O98 2.105 1_455 S
Sc88 O101 2.105 . S
Sc88 O104 2.105 . S
Sc88 O107 2.105 1_455 S
Sc89 O91 2.025 . S
Sc89 O99 2.105 1_455 S
Sc89 O103 2.105 1_565 S
Sc89 O105 2.105 . S
Sc89 O109 2.105 1_465 S
Sc90 O91 2.025 . S
Sc90 O100 2.105 1_455 S
Sc90 O102 2.105 . S
Sc90 O106 2.105 . S
Sc90 O108 2.105 1_455 S
O91 Sc88 2.025 . S
O91 Sc89 2.025 . S
O91 Sc90 2.025 . S
C92 O98 1.268 . S
C92 O108 1.268 . S
C93 O99 1.268 . S
C93 O107 1.268 . S
C94 O100 1.268 1_545 S
C94 O109 1.268 . S
C95 O101 1.268 . S
C95 O105 1.268 . S
C96 O102 1.268 . S
C96 O104 1.268 . S
C97 O103 1.268 . S
C97 O106 1.268 1_545 S
O98 Sc88 2.105 1_655 S
O98 C92 1.268 . S
O99 Sc89 2.105 1_655 S
O99 C93 1.268 . S
O100 Sc90 2.105 1_655 S
O100 C94 1.268 1_565 S
O101 Sc88 2.105 . S
O101 C95 1.268 . S
O102 Sc90 2.105 . S
O102 C96 1.268 . S
O103 Sc89 2.105 1_545 S
O103 C97 1.268 . S
O104 Sc88 2.105 . S
O104 C96 1.268 . S
O105 Sc89 2.105 . S
O105 C95 1.268 . S
O106 Sc90 2.105 . S
O106 C97 1.268 1_565 S
O107 Sc88 2.105 1_655 S
O107 C93 1.268 . S
O108 Sc90 2.105 1_655 S
O108 C92 1.268 . S
O109 Sc89 2.105 1_645 S
O109 C94 1.268 . S
Sc110 O113 2.025 . S
Sc110 O120 2.105 . S
Sc110 O123 2.105 1_455 S
Sc110 O126 2.105 1_455 S
Sc110 O129 2.105 . S
Sc111 O113 2.025 . S
Sc111 O121 2.105 . S
Sc111 O125 2.105 1_445 S
Sc111 O127 2.105 1_455 S
Sc111 O131 2.105 1_545 S
Sc112 O113 2.025 . S
Sc112 O122 2.105 . S
Sc112 O124 2.105 1_455 S
Sc112 O128 2.105 1_455 S
Sc112 O130 2.105 . S
O113 Sc110 2.025 . S
O113 Sc111 2.025 . S
O113 Sc112 2.025 . S
C114 O120 1.268 . S
C114 O130 1.268 . S
C115 O121 1.268 . S
C115 O129 1.268 . S
C116 O122 1.268 1_565 S
C116 O131 1.268 . S
C117 O123 1.268 . S
C117 O127 1.268 . S
C118 O124 1.268 . S
C118 O126 1.268 . S
C119 O125 1.268 . S
C119 O128 1.268 1_565 S
O120 Sc110 2.105 . S
O120 C114 1.268 . S
O121 Sc111 2.105 . S
O121 C115 1.268 . S
O122 Sc112 2.105 . S
O122 C116 1.268 1_545 S
O123 Sc110 2.105 1_655 S
O123 C117 1.268 . S
O124 Sc112 2.105 1_655 S
O124 C118 1.268 . S
O125 Sc111 2.105 1_665 S
O125 C119 1.268 . S
O126 Sc110 2.105 1_655 S
O126 C118 1.268 . S
O127 Sc111 2.105 1_655 S
O127 C117 1.268 . S
O128 Sc112 2.105 1_655 S
O128 C119 1.268 1_545 S
O129 Sc110 2.105 . S
O129 C115 1.268 . S
O130 Sc112 2.105 . S
O130 C114 1.268 . S
O131 Sc111 2.105 1_565 S
O131 C116 1.268 . S
Sc132 O135 2.025 . S
Sc132 O142 2.105 . S
Sc132 O145 2.105 . S
Sc132 O148 2.105 . S
Sc132 O151 2.105 . S
Sc133 O135 2.025 . S
Sc133 O143 2.105 . S
Sc133 O147 2.105 . S
Sc133 O149 2.105 . S
Sc133 O153 2.105 . S
Sc134 O135 2.025 . S
Sc134 O144 2.105 . S
Sc134 O146 2.105 . S
Sc134 O150 2.105 . S
Sc134 O152 2.105 . S
O135 Sc132 2.025 . S
O135 Sc133 2.025 . S
O135 Sc134 2.025 . S
C136 O142 1.268 . S
C136 O152 1.268 . S
C137 O143 1.268 . S
C137 O151 1.268 . S
C138 O144 1.268 . S
C138 O153 1.268 . S
C139 O145 1.268 . S
C139 O149 1.268 . S
C140 O146 1.268 . S
C140 O148 1.268 . S
C141 O147 1.268 . S
C141 O150 1.268 . S
O142 Sc132 2.105 . S
O142 C136 1.268 . S
O143 Sc133 2.105 . S
O143 C137 1.268 . S
O144 Sc134 2.105 . S
O144 C138 1.268 . S
O145 Sc132 2.105 . S
O145 C139 1.268 . S
O146 Sc134 2.105 . S
O146 C140 1.268 . S
O147 Sc133 2.105 . S
O147 C141 1.268 . S
O148 Sc132 2.105 . S
O148 C140 1.268 . S
O149 Sc133 2.105 . S
O149 C139 1.268 . S
O150 Sc134 2.105 . S
O150 C141 1.268 . S
O151 Sc132 2.105 . S
O151 C137 1.268 . S
O152 Sc134 2.105 . S
O152 C136 1.268 . S
O153 Sc133 2.105 . S
O153 C138 1.268 . S
Sc154 O157 2.025 . S
Sc154 O164 2.105 . S
Sc154 O167 2.105 . S
Sc154 O170 2.105 . S
Sc154 O173 2.105 . S
Sc155 O157 2.025 . S
Sc155 O165 2.105 . S
Sc155 O169 2.105 . S
Sc155 O171 2.105 . S
Sc155 O175 2.105 . S
Sc156 O157 2.025 . S
Sc156 O166 2.105 . S
Sc156 O168 2.105 . S
Sc156 O172 2.105 . S
Sc156 O174 2.105 . S
O157 Sc154 2.025 . S
O157 Sc155 2.025 . S
O157 Sc156 2.025 . S
C158 O164 1.268 . S
C158 O174 1.268 . S
C159 O165 1.268 . S
C159 O173 1.268 . S
C160 O166 1.268 . S
C160 O175 1.268 . S
C161 O167 1.268 . S
C161 O171 1.268 . S
C162 O168 1.268 . S
C162 O170 1.268 . S
C163 O169 1.268 . S
C163 O172 1.268 . S
O164 Sc154 2.105 . S
O164 C158 1.268 . S
O165 Sc155 2.105 . S
O165 C159 1.268 . S
O166 Sc156 2.105 . S
O166 C160 1.268 . S
O167 Sc154 2.105 . S
O167 C161 1.268 . S
O168 Sc156 2.105 . S
O168 C162 1.268 . S
O169 Sc155 2.105 . S
O169 C163 1.268 . S
O170 Sc154 2.105 . S
O170 C162 1.268 . S
O171 Sc155 2.105 . S
O171 C161 1.268 . S
O172 Sc156 2.105 . S
O172 C163 1.268 . S
O173 Sc154 2.105 . S
O173 C159 1.268 . S
O174 Sc156 2.105 . S
O174 C158 1.268 . S
O175 Sc155 2.105 . S
O175 C160 1.268 . S
N4 C114 1.524 . S
C92 N15 1.526 . S
C118 N26 1.609 . S
C96 N37 1.469 . S
C158 N48 1.524 . S
C136 N59 1.526 . S
N70 C162 1.609 . S
C140 N81 1.469 . S
C9 C163 1.546 . S
C141 C20 1.473 . S
C31 C160 1.657 . S
C39 C138 1.439 . S
C119 C53 1.546 . S
C64 C97 1.473 . S
C116 C75 1.657 . S
C94 C83 1.439 . S
C137 C6 1.475 . S
C159 C17 1.507 . S
C28 C139 1.503 . S
C161 C42 1.456 . S
C93 C50 1.475 . S
C61 C115 1.507 . S
C72 C95 1.503 . S
C86 C117 1.456 . S
