# Generated by pormake.
# Topology tsx, (6,3)-cn, num edge types: 1
# Building blocks:
#     Node 0, Type 0, BuildingBlock: CIFDUS_clean_sbu_1, # of connection points: 6
#     Node 1, Type 0, BuildingBlock: CIFDUS_clean_sbu_1, # of connection points: 6
#     Node 2, Type 1, BuildingBlock: BETDIP_clean_linker_0, # of connection points: 3
#     Node 3, Type 1, BuildingBlock: BETDIP_clean_linker_0, # of connection points: 3
#     Node 4, Type 1, BuildingBlock: BETDIP_clean_linker_0, # of connection points: 3
#     Node 5, Type 1, BuildingBlock: BETDIP_clean_linker_0, # of connection points: 3
#     Edge 6, Type (0, 1), None
#     Edge 7, Type (0, 1), None
#     Edge 8, Type (0, 1), None
#     Edge 9, Type (0, 1), None
#     Edge 10, Type (0, 1), None
#     Edge 11, Type (0, 1), None
#     Edge 12, Type (0, 1), None
#     Edge 13, Type (0, 1), None
#     Edge 14, Type (0, 1), None
#     Edge 15, Type (0, 1), None
#     Edge 16, Type (0, 1), None
#     Edge 17, Type (0, 1), None
# Relax obj value: 0.103
# Max RMSD: 0.134
# Mean RMSD: 0.105
data_MOF--net-tsx--node1-CIFDUS_clean_sbu_1--node2-BETDIP_clean_linker_0--edge1-none
_symmetry_space_group_name_H-M    P1
_symmetry_Int_Tables_number       1
_symmetry_cell_setting            triclinic
loop_
_symmetry_equiv_pos_as_xyz
'x, y, z'
_cell_length_a     8.6781853
_cell_length_b     9.1872363
_cell_length_c     17.334964
_cell_angle_alpha  89.401021
_cell_angle_beta   104.78774
_cell_angle_gamma 89.096966
loop_
_atom_site_label
_atom_site_type_symbol
_atom_site_fract_x
_atom_site_fract_y
_atom_site_fract_z
_atom_type_partial_charge
O0 O 0.89968 0.31425 0.90849 0.0
Mn1 Mn 0.02937 0.11345 -0.06594 0.0
O2 O 0.6454 0.24999 0.85566 0.0
Mn3 Mn 0.6911 0.06108 0.83403 0.0
O4 O 0.13108 0.89724 -0.06394 0.0
O5 O 0.23873 0.24352 -0.03734 0.0
Mn6 Mn 0.32545 0.07092 0.00215 0.0
O7 O 0.02724 0.11814 0.05056 0.0
O8 O 0.35638 0.96057 -0.07927 0.0
O9 O 0.02932 0.11344 0.81344 0.0
O10 O 0.78439 1.03738 0.75093 0.0
O11 O 0.48514 0.17964 0.04462 0.0
O12 O 0.25398 0.99672 0.08915 0.0
C13 C 0.72349 0.90823 -0.06872 0.0
C14 C 0.75123 0.34625 0.87561 0.0
C15 C 0.24729 0.87206 0.90476 0.0
C16 C 0.37321 0.27583 0.01649 0.0
C17 C 0.12999 1.05172 0.10489 0.0
C18 C 0.92543 0.07367 0.75081 0.0
O19 O 0.83033 0.99709 0.91975 0.0
O20 O 0.59696 0.91155 0.87355 0.0
O21 O 0.39969 0.81425 0.40849 0.0
Mn22 Mn 0.52939 0.61345 0.43406 0.0
O23 O 0.14541 0.74999 0.35566 0.0
Mn24 Mn 0.19111 0.56108 0.33403 0.0
O25 O 0.63109 0.39724 0.43606 0.0
O26 O 0.73874 0.74352 0.46266 0.0
Mn27 Mn 0.82546 0.57093 0.50216 0.0
O28 O 0.52725 0.61814 0.55056 0.0
O29 O 0.8564 0.46057 0.42074 0.0
O30 O 0.52934 0.61344 0.31344 0.0
O31 O 0.2844 0.53738 0.25093 0.0
O32 O -0.01484 0.67964 0.54462 0.0
O33 O 0.75399 0.49673 0.58916 0.0
C34 C 0.2235 0.40823 0.43128 0.0
C35 C 0.25124 0.84625 0.37561 0.0
C36 C 0.74731 0.37206 0.40477 0.0
C37 C 0.87322 0.77584 0.51649 0.0
C38 C 0.63 0.55173 0.60489 0.0
C39 C 0.42544 0.57366 0.25081 0.0
O40 O 0.33034 0.49709 0.41975 0.0
O41 O 0.09698 0.41155 0.37355 0.0
H42 H 0.10746 0.102 0.40597 0.0
H43 H 0.90387 0.19838 0.15932 0.0
H44 H 0.30383 0.89964 0.23383 0.0
H45 H 0.7092 0.13934 0.36793 0.0
C46 C 0.77125 0.23825 0.36092 0.0
C47 C 0.09297 0.07761 0.34508 0.0
C48 C 0.2057 0.98115 0.32753 0.0
C49 C -0.02512 0.14868 0.28448 0.0
C50 C -0.01178 0.13763 0.20588 0.0
C51 C 0.1118 1.05379 0.18749 0.0
C52 C 0.21839 0.97488 0.24858 0.0
N53 N 0.85715 0.24789 0.30041 0.0
H54 H 0.93472 1.02407 0.45128 0.0
H55 H 0.07794 0.2642 0.6701 0.0
H56 H 0.86649 0.84115 0.66249 0.0
H57 H 0.33674 0.28656 0.54635 0.0
C58 C 0.22598 0.31967 0.50423 0.0
C59 C -0.04104 1.03316 0.51438 0.0
C60 C 0.90325 0.91962 0.55231 0.0
C61 C 0.0372 0.15332 0.55727 0.0
C62 C 0.0372 0.16535 0.63834 0.0
C63 C -0.03221 1.05517 0.67498 0.0
C64 C 0.91065 0.93011 0.63278 0.0
N65 N 0.07425 0.27568 0.51434 0.0
H66 H 0.60743 0.60199 0.90597 0.0
H67 H 0.40387 0.69839 0.65932 0.0
H68 H 0.80384 0.39965 0.73383 0.0
H69 H 0.20919 0.63934 0.86792 0.0
C70 C 0.27123 0.73825 0.86092 0.0
C71 C 0.59295 0.57761 0.84508 0.0
C72 C 0.70569 0.48115 0.82753 0.0
C73 C 0.47488 0.64868 0.78448 0.0
C74 C 0.48822 0.63764 0.70588 0.0
C75 C 0.6118 0.55379 0.68749 0.0
C76 C 0.71839 0.47489 0.74858 0.0
N77 N 0.35713 0.74789 0.8004 0.0
H78 H 0.43469 0.52407 -0.04872 0.0
H79 H 0.57795 0.7642 0.17009 0.0
H80 H 0.3665 0.34115 0.16249 0.0
H81 H 0.83673 0.78656 0.04635 0.0
C82 C 0.72597 0.81967 0.00422 0.0
C83 C 0.45894 0.53316 0.01438 0.0
C84 C 0.40325 0.41961 0.05231 0.0
C85 C 0.53718 0.65331 0.05727 0.0
C86 C 0.5372 0.66534 0.13834 0.0
C87 C 0.4678 0.55517 0.17498 0.0
C88 C 0.41066 0.4301 0.13278 0.0
N89 N 0.57424 0.77568 0.01433 0.0
loop_
_geom_bond_atom_site_label_1
_geom_bond_atom_site_label_2
_geom_bond_distance
_geom_bond_site_symmetry_2
_ccdc_geom_bond_type
O0 Mn1 2.163 1_654 S
O0 C14 1.244 1_554 S
Mn1 O0 2.163 1_456 S
Mn1 O4 2.160 1_545 S
Mn1 O5 2.221 1_556 S
Mn1 O7 2.163 1_556 S
Mn1 O9 2.160 . S
Mn1 O19 2.221 1_445 S
O2 Mn3 2.087 1_545 S
O2 C14 1.256 . S
Mn3 O2 2.087 1_565 S
Mn3 O10 2.089 1_565 S
Mn3 O19 2.290 . S
Mn3 O20 2.251 . S
O4 Mn1 2.160 1_565 S
O4 C15 1.239 1_556 S
O5 Mn1 2.221 1_554 S
O5 Mn6 2.290 . S
O5 C16 1.278 . S
Mn6 O5 2.290 . S
Mn6 O8 2.089 1_545 S
Mn6 O11 2.251 . S
Mn6 O12 2.087 . S
O7 Mn1 2.163 1_554 S
O7 C17 1.244 . S
O8 Mn6 2.089 1_565 S
O8 C15 1.256 . S
O9 Mn1 2.160 . S
O9 C18 1.239 1_455 S
O10 Mn3 2.089 1_545 S
O10 C18 1.256 . S
O11 Mn6 2.251 . S
O11 C16 1.241 . S
O12 Mn6 2.087 . S
O12 C17 1.256 . S
C13 O19 1.278 . S
C13 O20 1.241 . S
C14 O0 1.244 1_556 S
C14 O2 1.256 . S
C15 O4 1.239 1_554 S
C15 O8 1.256 . S
C16 O5 1.278 . S
C16 O11 1.241 . S
C17 O7 1.244 . S
C17 O12 1.256 . S
C18 O9 1.239 1_655 S
C18 O10 1.256 . S
O19 Mn1 2.221 1_665 S
O19 Mn3 2.290 . S
O19 C13 1.278 . S
O20 Mn3 2.251 . S
O20 C13 1.241 . S
O21 Mn22 2.163 . S
O21 C35 1.244 . S
Mn22 O21 2.163 . S
Mn22 O25 2.160 . S
Mn22 O26 2.221 . S
Mn22 O28 2.163 . S
Mn22 O30 2.160 . S
Mn22 O40 2.221 . S
O23 Mn24 2.087 . S
O23 C35 1.256 . S
Mn24 O23 2.087 . S
Mn24 O31 2.089 . S
Mn24 O40 2.290 . S
Mn24 O41 2.251 . S
O25 Mn22 2.160 . S
O25 C36 1.239 . S
O26 Mn22 2.221 . S
O26 Mn27 2.290 . S
O26 C37 1.278 . S
Mn27 O26 2.290 . S
Mn27 O29 2.089 . S
Mn27 O32 2.251 . S
Mn27 O33 2.087 . S
O28 Mn22 2.163 . S
O28 C38 1.244 . S
O29 Mn27 2.089 . S
O29 C36 1.256 . S
O30 Mn22 2.160 . S
O30 C39 1.239 . S
O31 Mn24 2.089 . S
O31 C39 1.256 . S
O32 Mn27 2.251 . S
O32 C37 1.241 . S
O33 Mn27 2.087 . S
O33 C38 1.256 . S
C34 O40 1.278 . S
C34 O41 1.241 . S
C35 O21 1.244 . S
C35 O23 1.256 . S
C36 O25 1.239 . S
C36 O29 1.256 . S
C37 O26 1.278 . S
C37 O32 1.241 . S
C38 O28 1.244 . S
C38 O33 1.256 . S
C39 O30 1.239 . S
C39 O31 1.256 . S
O40 Mn22 2.221 . S
O40 Mn24 2.290 . S
O40 C34 1.278 . S
O41 Mn24 2.251 . S
O41 C34 1.241 . S
H42 C47 0.930 . S
H43 C50 0.930 1_655 S
H44 C52 0.930 . S
H45 C46 1.016 . S
C46 H45 1.016 . S
C46 N53 1.286 . S
C47 H42 0.930 . S
C47 C48 1.397 . S
C47 C49 1.361 1_565 S
C48 C47 1.397 . S
C48 C52 1.390 . S
C49 C47 1.361 1_545 S
C49 C50 1.393 . S
C49 N53 1.413 1_455 S
C50 H43 0.930 1_455 S
C50 C49 1.393 . S
C50 C51 1.399 1_545 S
C51 C50 1.399 1_565 S
C51 C52 1.381 . S
C52 H44 0.930 . S
C52 C48 1.390 . S
C52 C51 1.381 . S
N53 C46 1.286 . S
N53 C49 1.413 1_655 S
H54 C59 0.930 . S
H55 C62 0.930 . S
H56 C64 0.930 . S
H57 C58 1.016 . S
C58 H57 1.016 . S
C58 N65 1.286 . S
C59 H54 0.930 . S
C59 C60 1.397 . S
C59 C61 1.361 1_665 S
C60 C59 1.397 . S
C60 C64 1.390 . S
C61 C59 1.361 1_445 S
C61 C62 1.393 . S
C61 N65 1.413 . S
C62 H55 0.930 . S
C62 C61 1.393 . S
C62 C63 1.399 1_455 S
C63 C62 1.399 1_655 S
C63 C64 1.381 1_545 S
C64 H56 0.930 . S
C64 C60 1.390 . S
C64 C63 1.381 1_565 S
N65 C58 1.286 . S
N65 C61 1.413 . S
H66 C71 0.930 . S
H67 C74 0.930 . S
H68 C76 0.930 . S
H69 C70 1.016 1_556 S
C70 H69 1.016 1_554 S
C70 N77 1.286 . S
C71 H66 0.930 . S
C71 C72 1.397 1_554 S
C71 C73 1.361 1_554 S
C72 C71 1.397 1_556 S
C72 C76 1.390 . S
C73 C71 1.361 1_556 S
C73 C74 1.393 . S
C73 N77 1.413 1_556 S
C74 H67 0.930 . S
C74 C73 1.393 . S
C74 C75 1.399 . S
C75 C74 1.399 . S
C75 C76 1.381 . S
C76 H68 0.930 . S
C76 C72 1.390 . S
C76 C75 1.381 . S
N77 C70 1.286 . S
N77 C73 1.413 1_554 S
H78 C83 0.930 . S
H79 C86 0.930 . S
H80 C88 0.930 . S
H81 C82 1.016 . S
C82 H81 1.016 . S
C82 N89 1.286 1_554 S
C83 H78 0.930 . S
C83 C84 1.397 1_556 S
C83 C85 1.361 1_556 S
C84 C83 1.397 1_554 S
C84 C88 1.390 . S
C85 C83 1.361 1_554 S
C85 C86 1.393 . S
C85 N89 1.413 1_554 S
C86 H79 0.930 . S
C86 C85 1.393 . S
C86 C87 1.399 . S
C87 C86 1.399 . S
C87 C88 1.381 . S
C88 H80 0.930 . S
C88 C84 1.390 . S
C88 C87 1.381 . S
N89 C82 1.286 1_556 S
N89 C85 1.413 1_556 S
C84 C16 1.520 . S
C15 C70 1.470 . S
C13 C82 1.155 1_556 S
C14 C72 1.421 . S
C37 C60 1.520 . S
C36 C46 1.470 . S
C58 C34 1.155 . S
C48 C35 1.421 . S
C17 C51 1.733 1_545 S
C18 C63 1.326 . S
C75 C38 1.733 . S
C39 C87 1.326 . S
