# Generated by pormake.
# Topology pts, (4,4)-cn, num edge types: 1
# Building blocks:
#     Node 0, Type 0, BuildingBlock: NAWXER_clean_linker_0, # of connection points: 4
#     Node 1, Type 0, BuildingBlock: NAWXER_clean_linker_0, # of connection points: 4
#     Node 2, Type 1, BuildingBlock: AZAVOO_clean_sbu_0, # of connection points: 4
#     Node 3, Type 1, BuildingBlock: AZAVOO_clean_sbu_0, # of connection points: 4
#     Edge 4, Type (0, 1), BuildingBlock: CIFDUS_clean_linker_0, # of connection points: 2
#     Edge 5, Type (0, 1), BuildingBlock: CIFDUS_clean_linker_0, # of connection points: 2
#     Edge 6, Type (0, 1), BuildingBlock: CIFDUS_clean_linker_0, # of connection points: 2
#     Edge 7, Type (0, 1), BuildingBlock: CIFDUS_clean_linker_0, # of connection points: 2
#     Edge 8, Type (0, 1), BuildingBlock: CIFDUS_clean_linker_0, # of connection points: 2
#     Edge 9, Type (0, 1), BuildingBlock: CIFDUS_clean_linker_0, # of connection points: 2
#     Edge 10, Type (0, 1), BuildingBlock: CIFDUS_clean_linker_0, # of connection points: 2
#     Edge 11, Type (0, 1), BuildingBlock: CIFDUS_clean_linker_0, # of connection points: 2
# Relax obj value: 0.000
# Max RMSD: 0.034
# Mean RMSD: 0.019
data_MOF--net-pts--node1-AZAVOO_clean_sbu_0--node2-NAWXER_clean_linker_0--edge1-CIFDUS_clean_linker_0
_symmetry_space_group_name_H-M    P1
_symmetry_Int_Tables_number       1
_symmetry_cell_setting            triclinic
loop_
_symmetry_equiv_pos_as_xyz
'x, y, z'
_cell_length_a     26.054199
_cell_length_b     27.428941
_cell_length_c     37.680422
_cell_angle_alpha  89.50951
_cell_angle_beta   96.396356
_cell_angle_gamma 88.832356
loop_
_atom_site_label
_atom_site_type_symbol
_atom_site_fract_x
_atom_site_fract_y
_atom_site_fract_z
_atom_type_partial_charge
C0 C 0.70198 0.0458 0.95788 0.0
C1 C 0.6988 0.01353 0.92895 0.0
C2 C 0.66572 0.04409 0.98273 0.0
C3 C 0.62636 0.00952 0.97928 0.0
C4 C 0.66048 0.97806 0.92638 0.0
C5 C 0.62465 0.97619 0.95116 0.0
C6 C 0.58319 0.01079 1.00181 0.0
C7 C 0.72543 0.97529 0.07752 0.0
C8 C 0.73419 0.00651 0.10683 0.0
C9 C 0.67863 0.9779 0.05531 0.0
C10 C 0.64017 0.01263 0.06146 0.0
C11 C 0.69569 0.04111 0.11298 0.0
C12 C 0.64919 0.04406 0.09058 0.0
C13 C 0.58916 0.01426 0.03946 0.0
C14 C 0.37 0.98225 0.07333 0.0
C15 C 0.36699 0.01562 0.10126 0.0
C16 C 0.4126 0.98115 0.05385 0.0
C17 C 0.45249 0.01467 0.06075 0.0
C18 C 0.4081 0.04785 0.10905 0.0
C19 C 0.45026 0.04738 0.089 0.0
C20 C 0.49702 0.01508 0.03924 0.0
C21 C 0.35538 0.04407 0.95947 0.0
C22 C 0.34856 0.00899 0.93244 0.0
C23 C 0.4015 0.04498 0.98244 0.0
C24 C 0.44108 0.01024 0.97911 0.0
C25 C 0.38815 0.97421 0.92942 0.0
C26 C 0.43392 0.97498 0.95238 0.0
C27 C 0.4914 0.01159 1.0016 0.0
H28 H 0.73094 0.07371 0.96035 0.0
H29 H 0.66721 0.07097 1.00368 0.0
H30 H 0.65754 0.95226 0.90467 0.0
H31 H 0.59468 0.94925 0.94786 0.0
H32 H 0.75402 0.94771 0.07252 0.0
H33 H 0.67212 0.95186 0.03394 0.0
H34 H 0.70146 0.06582 0.13527 0.0
H35 H 0.62009 0.07084 0.09614 0.0
H36 H 0.33923 0.95706 0.06612 0.0
H37 H 0.41411 0.95408 0.03324 0.0
H38 H 0.40812 0.07322 0.1309 0.0
H39 H 0.48097 0.07298 0.09539 0.0
H40 H 0.32574 0.07163 0.96215 0.0
H41 H 0.40659 0.07329 1.0023 0.0
H42 H 0.38378 0.94635 0.90916 0.0
H43 H 0.46391 0.94793 0.94922 0.0
N44 N 0.53463 0.00937 0.98463 0.0
N45 N 0.54574 0.01665 0.05663 0.0
C46 C 0.06401 0.641 0.59954 0.0
C47 C 0.01892 0.65321 0.61531 0.0
C48 C 0.06305 0.60578 0.57293 0.0
C49 C 0.0173 0.58152 0.56204 0.0
C50 C 0.97298 0.62902 0.60376 0.0
C51 C 0.97242 0.59305 0.57774 0.0
C52 C 0.01742 0.54059 0.53713 0.0
C53 C 0.00993 0.67229 0.46155 0.0
C54 C 0.05143 0.67407 0.44063 0.0
C55 C 0.00405 0.63175 0.48343 0.0
C56 C 0.03964 0.59251 0.48477 0.0
C57 C 0.08822 0.63567 0.44348 0.0
C58 C 0.08216 0.59521 0.46511 0.0
C59 C 0.02916 0.54563 0.5017 0.0
C60 C 0.97724 0.34709 0.44203 0.0
C61 C 0.01203 0.34508 0.416 0.0
C62 C 0.97974 0.38424 0.46717 0.0
C63 C 0.01818 0.41942 0.46771 0.0
C64 C 0.04962 0.38115 0.41599 0.0
C65 C 0.05266 0.41785 0.44158 0.0
C66 C 0.02042 0.45999 0.49356 0.0
C67 C 0.04653 0.32577 0.56092 0.0
C68 C 0.00753 0.31581 0.58273 0.0
C69 C 0.04787 0.37084 0.54379 0.0
C70 C 0.00987 0.40673 0.54775 0.0
C71 C 0.97056 0.35236 0.58777 0.0
C72 C 0.97185 0.39759 0.57047 0.0
C73 C 0.01165 0.45463 0.52977 0.0
H74 H 0.10039 0.65792 0.60815 0.0
H75 H 0.09838 0.59641 0.56164 0.0
H76 H 0.93722 0.63801 0.61458 0.0
H77 H 0.93687 0.57424 0.5698 0.0
H78 H 0.98069 0.7011 0.45973 0.0
H79 H 0.97024 0.62995 0.49768 0.0
H80 H 0.12122 0.63638 0.42838 0.0
H81 H 0.10998 0.56522 0.46568 0.0
H82 H 0.94819 0.31967 0.44334 0.0
H83 H 0.9512 0.38553 0.48596 0.0
H84 H 0.07648 0.38136 0.39604 0.0
H85 H 0.08209 0.44509 0.44095 0.0
H86 H 0.07633 0.29874 0.55727 0.0
H87 H 0.07882 0.37769 0.52757 0.0
H88 H 0.94012 0.34563 0.60445 0.0
H89 H 0.9427 0.42517 0.57437 0.0
N90 N 0.00959 0.49525 0.54996 0.0
N91 N 0.02959 0.50521 0.48123 0.0
Mg92 Mg 0.08816 -0.00663 0.28996 0.0
O93 O 0.00518 -0.01016 0.25978 0.0
O94 O 0.95209 -0.00941 0.30252 0.0
Mg95 Mg 0.99656 -0.00516 0.35765 0.0
C96 C 0.95967 -0.01062 0.26964 0.0
C97 C 0.13507 0.97022 0.21984 0.0
O98 O 0.11653 0.92794 0.22809 0.0
O99 O 0.07601 0.07486 0.30013 0.0
O100 O 0.02155 0.07064 0.34209 0.0
O101 O 0.09304 0.91188 0.29802 0.0
O102 O 0.06331 0.96304 0.33583 0.0
C103 C 0.04827 0.09505 0.32204 0.0
C104 C 0.07298 0.91882 0.3275 0.0
O105 O 0.12583 0.0071 0.23857 0.0
Mg106 Mg 0.9993 0.98077 0.75033 0.0
O107 O 0.08187 -0.01222 0.77891 0.0
O108 O 0.13455 0.9816 0.7361 0.0
Mg109 Mg 0.08882 0.96786 0.68205 0.0
C110 C 0.12712 -0.01241 0.76873 0.0
C111 C 0.91342 0.01087 0.79351 0.0
O112 O 0.89123 0.00337 0.76101 0.0
O113 O 1.00184 0.05848 0.72697 0.0
O114 O 0.0508 0.04288 0.68312 0.0
O115 O 1.00252 0.89863 0.75614 0.0
O116 O 0.02774 0.93907 0.71069 0.0
C117 C 0.02245 0.07173 0.69928 0.0
C118 C 0.02265 0.89794 0.72627 0.0
O119 O 0.96235 0.00683 0.79919 0.0
H120 H 0.31011 0.9383 0.1195 0.0
H121 H 0.32097 0.09445 0.13093 0.0
H122 H 0.24932 0.09474 0.16741 0.0
H123 H 0.18477 0.05023 0.19762 0.0
H124 H 0.17161 0.89486 0.18264 0.0
H125 H 0.24152 0.89534 0.1449 0.0
C126 C 0.29639 0.97271 0.12922 0.0
C127 C 0.32166 0.01621 0.12245 0.0
C128 C 0.25426 0.9729 0.14947 0.0
C129 C 0.30342 0.06009 0.13622 0.0
C130 C 0.26196 0.06043 0.15687 0.0
C131 C 0.19678 0.01658 0.18576 0.0
C132 C 0.17303 0.97255 0.19327 0.0
C133 C 0.2373 0.01697 0.16392 0.0
C134 C 0.18909 0.92933 0.1775 0.0
C135 C 0.22934 0.92947 0.15597 0.0
H136 H 0.99163 0.29305 0.65156 0.0
H137 H 0.01834 0.22871 0.55085 0.0
H138 H 0.02295 0.14784 0.57817 0.0
H139 H 0.02404 0.09612 0.63053 0.0
H140 H 0.99678 0.15722 0.73202 0.0
H141 H 0.98669 0.23891 0.70434 0.0
C142 C 0.99778 0.26119 0.6356 0.0
C143 C 0.00549 0.26687 0.59937 0.0
C144 C 1.00043 0.2145 0.65155 0.0
C145 C 0.01344 0.22536 0.57894 0.0
C146 C 0.01585 0.17911 0.59448 0.0
C147 C 0.01594 0.12725 0.64676 0.0
C148 C 0.01208 0.12086 0.68339 0.0
C149 C 0.01037 0.17343 0.6308 0.0
C150 C 1.00022 0.16135 0.70377 0.0
C151 C 0.99463 0.20796 0.68797 0.0
H152 H 0.74111 0.00242 0.17883 0.0
H153 H 0.83452 -0.00159 0.09141 0.0
H154 H 0.91308 -0.00862 0.13374 0.0
H155 H 0.95514 -0.01148 0.19617 0.0
H156 H 0.85899 -0.00856 0.28258 0.0
H157 H 0.78207 -0.00316 0.24013 0.0
C158 C 0.7787 0.00035 0.16904 0.0
C159 C 0.78206 0.00148 0.13212 0.0
C160 C 0.82337 -0.00394 0.1934 0.0
C161 C 0.83096 -0.0024 0.11978 0.0
C162 C 0.87585 -0.00629 0.14397 0.0
C163 C 0.91738 -0.0099 0.20569 0.0
C164 C 0.91332 -0.0102 0.2427 0.0
C165 C 0.87257 -0.00686 0.18094 0.0
C166 C 0.8638 -0.00828 0.2544 0.0
C167 C 0.81948 -0.00511 0.23011 0.0
H168 H 0.07482 0.73621 0.61954 0.0
H169 H 0.96413 0.65733 0.67374 0.0
H170 H 0.95898 0.72446 0.71534 0.0
H171 H 0.98102 0.80866 0.73328 0.0
H172 H 0.09527 0.8839 0.68038 0.0
H173 H 0.10531 0.81428 0.64235 0.0
C174 C 0.05048 0.73282 0.64092 0.0
C175 C 0.01938 0.69182 0.64294 0.0
C176 C 0.04834 0.77106 0.66515 0.0
C177 C 0.9875 0.68896 0.67072 0.0
C178 C 0.98485 0.72718 0.69482 0.0
C179 C 0.00889 0.80933 0.71395 0.0
C180 C 0.03632 0.85203 0.70904 0.0
C181 C 0.01436 0.76889 0.69185 0.0
C182 C 0.07238 0.85232 0.68397 0.0
C183 C 0.07836 0.8123 0.66223 0.0
H184 H 0.34379 0.00017 0.86081 0.0
H185 H 0.24748 0.0189 0.94581 0.0
H186 H 0.16996 0.01528 0.90264 0.0
H187 H 0.12986 0.00365 0.84074 0.0
H188 H 0.22827 -0.01544 0.75657 0.0
H189 H 0.30443 -0.00897 0.79952 0.0
C190 C 0.30581 0.00318 0.86994 0.0
C191 C 0.30133 0.00925 0.90645 0.0
C192 C 0.26173 0.00082 0.84512 0.0
C193 C 0.2519 0.01431 0.91779 0.0
C194 C 0.20763 0.01199 0.89315 0.0
C195 C 0.16794 0.00102 0.83177 0.0
C196 C 0.17302 -0.00665 0.79537 0.0
C197 C 0.21207 0.0048 0.85673 0.0
C198 C 0.22285 -0.00969 0.78432 0.0
C199 C 0.26664 -0.00601 0.80889 0.0
H200 H 0.09264 0.29795 0.38898 0.0
H201 H 0.926 0.3012 0.38343 0.0
H202 H 0.92239 0.22657 0.34889 0.0
H203 H 0.96701 0.15492 0.3276 0.0
H204 H 0.13281 0.1524 0.33074 0.0
H205 H 0.13621 0.2336 0.35754 0.0
C206 C 0.05538 0.28325 0.37944 0.0
C207 C 0.00975 0.30454 0.38987 0.0
C208 C 0.05343 0.24056 0.35905 0.0
C209 C 0.96192 0.28467 0.37709 0.0
C210 C 0.9597 0.24218 0.35701 0.0
C211 C 0.0037 0.17291 0.33322 0.0
C212 C 0.04961 0.14797 0.32761 0.0
C213 C 0.00528 0.21895 0.34899 0.0
C214 C 0.09701 0.1713 0.33471 0.0
C215 C 0.09894 0.21737 0.35042 0.0
H216 H 0.80397 0.02252 0.93519 0.0
H217 H 0.66939 0.01544 0.85769 0.0
H218 H 0.72381 0.01738 0.80917 0.0
H219 H 0.80915 0.01647 0.78869 0.0
H220 H 0.94518 0.02136 0.8651 0.0
H221 H 0.89074 0.02565 0.91402 0.0
C222 C 0.78672 0.02193 0.90765 0.0
C223 C 0.7328 0.01821 0.90005 0.0
C224 C 0.81843 0.02259 0.8797 0.0
C225 C 0.71085 0.01739 0.86425 0.0
C226 C 0.7419 0.0187 0.83647 0.0
C227 C 0.82708 0.01887 0.816 0.0
C228 C 0.88121 0.0183 0.82317 0.0
C229 C 0.7957 0.02051 0.84388 0.0
C230 C 0.90359 0.02162 0.85878 0.0
C231 C 0.87247 0.02393 0.88679 0.0
H232 H 0.03327 0.77102 0.45003 0.0
H233 H 0.07787 0.66781 0.37266 0.0
H234 H 0.08684 0.73404 0.33036 0.0
H235 H 0.08404 0.82157 0.31576 0.0
H236 H 0.03921 0.92449 0.3933 0.0
H237 H 0.02709 0.85809 0.43456 0.0
C238 C 0.04439 0.76297 0.42378 0.0
C239 C 0.05537 0.71457 0.41473 0.0
C240 C 0.04914 0.80119 0.39943 0.0
C241 C 0.07022 0.70485 0.38066 0.0
C242 C 0.075 0.74266 0.3563 0.0
C243 C 0.07122 0.82943 0.34156 0.0
C244 C 0.06226 0.87795 0.35124 0.0
C245 C 0.06494 0.79102 0.36549 0.0
C246 C 0.04583 0.8875 0.38487 0.0
C247 C 0.03919 0.84952 0.40868 0.0
loop_
_geom_bond_atom_site_label_1
_geom_bond_atom_site_label_2
_geom_bond_distance
_geom_bond_site_symmetry_2
_ccdc_geom_bond_type
C0 C1 1.384 . S
C0 C2 1.384 . S
C0 H28 0.931 . S
C1 C0 1.384 . S
C1 C4 1.382 1_545 S
C2 C0 1.384 . S
C2 C3 1.381 . S
C2 H29 0.930 . S
C3 C2 1.381 . S
C3 C5 1.381 1_545 S
C3 C6 1.487 . S
C4 C1 1.382 1_565 S
C4 C5 1.387 . S
C4 H30 0.930 . S
C5 C3 1.381 1_565 S
C5 C4 1.387 . S
C5 H31 0.931 . S
C6 C3 1.487 . S
C6 C13 1.399 1_556 S
C6 N44 1.343 . S
C7 C8 1.384 1_565 S
C7 C9 1.384 . S
C7 H32 0.931 . S
C8 C7 1.384 1_545 S
C8 C11 1.382 . S
C9 C7 1.384 . S
C9 C10 1.381 1_565 S
C9 H33 0.930 . S
C10 C9 1.381 1_545 S
C10 C12 1.381 . S
C10 C13 1.487 . S
C11 C8 1.382 . S
C11 C12 1.387 . S
C11 H34 0.930 . S
C12 C10 1.381 . S
C12 C11 1.387 . S
C12 H35 0.931 . S
C13 C6 1.399 1_554 S
C13 C10 1.487 . S
C13 N45 1.343 . S
C14 C15 1.384 1_565 S
C14 C16 1.384 . S
C14 H36 0.931 . S
C15 C14 1.384 1_545 S
C15 C18 1.382 . S
C16 C14 1.384 . S
C16 C17 1.381 1_565 S
C16 H37 0.930 . S
C17 C16 1.381 1_545 S
C17 C19 1.381 . S
C17 C20 1.487 . S
C18 C15 1.382 . S
C18 C19 1.387 . S
C18 H38 0.930 . S
C19 C17 1.381 . S
C19 C18 1.387 . S
C19 H39 0.931 . S
C20 C17 1.487 . S
C20 C27 1.399 1_554 S
C20 N45 1.343 . S
C21 C22 1.384 . S
C21 C23 1.384 . S
C21 H40 0.931 . S
C22 C21 1.384 . S
C22 C25 1.382 1_545 S
C23 C21 1.384 . S
C23 C24 1.381 . S
C23 H41 0.930 . S
C24 C23 1.381 . S
C24 C26 1.381 1_545 S
C24 C27 1.487 . S
C25 C22 1.382 1_565 S
C25 C26 1.387 . S
C25 H42 0.930 . S
C26 C24 1.381 1_565 S
C26 C25 1.387 . S
C26 H43 0.931 . S
C27 C20 1.399 1_556 S
C27 C24 1.487 . S
C27 N44 1.343 . S
H28 C0 0.931 . S
H29 C2 0.930 . S
H30 C4 0.930 . S
H31 C5 0.931 . S
H32 C7 0.931 . S
H33 C9 0.930 . S
H34 C11 0.930 . S
H35 C12 0.931 . S
H36 C14 0.931 . S
H37 C16 0.930 . S
H38 C18 0.930 . S
H39 C19 0.931 . S
H40 C21 0.931 . S
H41 C23 0.930 . S
H42 C25 0.930 . S
H43 C26 0.931 . S
N44 C6 1.343 . S
N44 C27 1.343 . S
N45 C13 1.343 . S
N45 C20 1.343 . S
C46 C47 1.384 . S
C46 C48 1.384 . S
C46 H74 0.931 . S
C47 C46 1.384 . S
C47 C50 1.382 1_455 S
C48 C46 1.384 . S
C48 C49 1.381 . S
C48 H75 0.930 . S
C49 C48 1.381 . S
C49 C51 1.381 1_455 S
C49 C52 1.487 . S
C50 C47 1.382 1_655 S
C50 C51 1.387 . S
C50 H76 0.930 . S
C51 C49 1.381 1_655 S
C51 C50 1.387 . S
C51 H77 0.931 . S
C52 C49 1.487 . S
C52 C59 1.399 . S
C52 N90 1.343 . S
C53 C54 1.384 . S
C53 C55 1.386 . S
C53 H78 0.931 1_455 S
C54 C53 1.384 . S
C54 C57 1.382 . S
C55 C53 1.386 . S
C55 C56 1.392 . S
C55 H79 0.918 1_455 S
C56 C55 1.392 . S
C56 C58 1.381 . S
C56 C59 1.487 . S
C57 C54 1.382 . S
C57 C58 1.387 . S
C57 H80 0.930 . S
C58 C56 1.381 . S
C58 C57 1.387 . S
C58 H81 0.931 . S
C59 C52 1.399 . S
C59 C56 1.487 . S
C59 N91 1.343 . S
C60 C61 1.384 . S
C60 C62 1.386 . S
C60 H82 0.931 1_455 S
C61 C60 1.384 . S
C61 C64 1.382 . S
C62 C60 1.386 . S
C62 C63 1.392 . S
C62 H83 0.918 1_455 S
C63 C62 1.392 . S
C63 C65 1.381 . S
C63 C66 1.487 . S
C64 C61 1.382 . S
C64 C65 1.387 . S
C64 H84 0.930 . S
C65 C63 1.381 . S
C65 C64 1.387 . S
C65 H85 0.931 . S
C66 C63 1.487 . S
C66 C73 1.399 . S
C66 N91 1.343 . S
C67 C68 1.384 . S
C67 C69 1.384 . S
C67 H86 0.931 . S
C68 C67 1.384 . S
C68 C71 1.382 1_455 S
C69 C67 1.384 . S
C69 C70 1.381 . S
C69 H87 0.930 . S
C70 C69 1.381 . S
C70 C72 1.381 1_455 S
C70 C73 1.487 . S
C71 C68 1.382 1_655 S
C71 C72 1.387 . S
C71 H88 0.930 . S
C72 C70 1.381 1_655 S
C72 C71 1.387 . S
C72 H89 0.931 . S
C73 C66 1.399 . S
C73 C70 1.487 . S
C73 N90 1.343 . S
H74 C46 0.931 . S
H75 C48 0.930 . S
H76 C50 0.930 . S
H77 C51 0.931 . S
H78 C53 0.931 1_655 S
H79 C55 0.918 1_655 S
H80 C57 0.930 . S
H81 C58 0.931 . S
H82 C60 0.931 1_655 S
H83 C62 0.918 1_655 S
H84 C64 0.930 . S
H85 C65 0.931 . S
H86 C67 0.931 . S
H87 C69 0.930 . S
H88 C71 0.930 . S
H89 C72 0.931 . S
N90 C52 1.343 . S
N90 C73 1.343 . S
N91 C59 1.343 . S
N91 C66 1.343 . S
Mg92 O93 2.028 . S
Mg92 O99 1.986 . S
Mg92 O101 2.114 1_545 S
Mg92 O102 2.251 1_545 S
Mg92 O105 2.010 . S
O93 Mg92 2.028 . S
O93 C96 1.250 1_455 S
O94 Mg95 2.028 . S
O94 C96 1.248 . S
Mg95 O94 2.028 . S
Mg95 O100 2.032 . S
Mg95 O102 2.079 1_645 S
C96 O93 1.250 1_655 S
C96 O94 1.248 . S
C97 O98 1.264 . S
C97 O105 1.249 . S
O98 C97 1.264 . S
O99 Mg92 1.986 . S
O99 C103 1.246 . S
O100 Mg95 2.032 . S
O100 C103 1.259 1_655 S
O101 Mg92 2.114 1_565 S
O101 C104 1.252 . S
O102 Mg92 2.251 1_565 S
O102 Mg95 2.079 1_465 S
O102 C104 1.273 . S
C103 O99 1.246 . S
C103 O100 1.259 1_455 S
C104 O101 1.252 . S
C104 O102 1.273 . S
O105 Mg92 2.010 . S
O105 C97 1.249 . S
Mg106 O107 2.028 1_655 S
Mg106 O113 1.986 . S
Mg106 O115 2.114 1_545 S
Mg106 O116 2.251 1_645 S
Mg106 O119 2.010 . S
O107 Mg106 2.028 1_455 S
O107 C110 1.250 . S
O108 Mg109 2.028 . S
O108 C110 1.248 . S
Mg109 O108 2.028 . S
Mg109 O114 2.032 . S
Mg109 O116 2.079 1_545 S
C110 O107 1.250 . S
C110 O108 1.248 . S
C111 O112 1.264 . S
C111 O119 1.249 . S
O112 C111 1.264 . S
O113 Mg106 1.986 . S
O113 C117 1.246 1_655 S
O114 Mg109 2.032 . S
O114 C117 1.259 . S
O115 Mg106 2.114 1_565 S
O115 C118 1.252 1_655 S
O116 Mg106 2.251 1_465 S
O116 Mg109 2.079 1_565 S
O116 C118 1.273 . S
C117 O113 1.246 1_455 S
C117 O114 1.259 . S
C118 O115 1.252 1_455 S
C118 O116 1.273 . S
O119 Mg106 2.010 . S
O119 C111 1.249 . S
H120 C126 0.930 . S
H121 C129 0.930 . S
H122 C130 0.930 . S
H123 C131 0.930 . S
H124 C134 0.930 . S
H125 C135 0.930 . S
C126 H120 0.930 . S
C126 C127 1.355 1_565 S
C126 C128 1.415 . S
C127 C126 1.355 1_545 S
C127 C129 1.419 . S
C128 C126 1.415 . S
C128 C133 1.425 1_565 S
C128 C135 1.409 . S
C129 H121 0.930 . S
C129 C127 1.419 . S
C129 C130 1.362 . S
C130 H122 0.930 . S
C130 C129 1.362 . S
C130 C133 1.409 . S
C131 H123 0.930 . S
C131 C132 1.355 . S
C131 C133 1.415 . S
C132 C131 1.355 . S
C132 C134 1.419 1_545 S
C133 C128 1.425 1_545 S
C133 C130 1.409 . S
C133 C131 1.415 . S
C134 H124 0.930 . S
C134 C132 1.419 1_565 S
C134 C135 1.362 . S
C135 H125 0.930 . S
C135 C128 1.409 . S
C135 C134 1.362 . S
H136 C142 0.922 1_655 S
H137 C145 0.930 . S
H138 C146 0.930 . S
H139 C147 0.930 . S
H140 C150 0.930 . S
H141 C151 0.930 . S
C142 H136 0.922 1_455 S
C142 C143 1.355 . S
C142 C144 1.415 . S
C143 C142 1.355 . S
C143 C145 1.419 . S
C144 C142 1.415 . S
C144 C149 1.425 . S
C144 C151 1.409 1_455 S
C145 H137 0.930 . S
C145 C143 1.419 . S
C145 C146 1.362 . S
C146 H138 0.930 . S
C146 C145 1.362 . S
C146 C149 1.409 . S
C147 H139 0.930 . S
C147 C148 1.355 . S
C147 C149 1.415 . S
C148 C147 1.355 . S
C148 C150 1.419 1_455 S
C149 C144 1.425 . S
C149 C146 1.409 . S
C149 C147 1.415 . S
C150 H140 0.930 . S
C150 C148 1.419 1_655 S
C150 C151 1.362 . S
C151 H141 0.930 . S
C151 C144 1.409 1_655 S
C151 C150 1.362 . S
H152 C158 0.930 . S
H153 C161 0.930 . S
H154 C162 0.930 . S
H155 C163 0.930 1_565 S
H156 C166 0.930 . S
H157 C167 0.930 . S
C158 H152 0.930 . S
C158 C159 1.355 . S
C158 C160 1.415 . S
C159 C158 1.355 . S
C159 C161 1.419 1_545 S
C160 C158 1.415 . S
C160 C165 1.425 . S
C160 C167 1.409 . S
C161 H153 0.930 . S
C161 C159 1.419 1_565 S
C161 C162 1.362 . S
C162 H154 0.930 . S
C162 C161 1.362 . S
C162 C165 1.409 1_565 S
C163 H155 0.930 1_545 S
C163 C164 1.355 . S
C163 C165 1.415 . S
C164 C163 1.355 . S
C164 C166 1.419 . S
C165 C160 1.425 . S
C165 C162 1.409 1_545 S
C165 C163 1.415 . S
C166 H156 0.930 . S
C166 C164 1.419 . S
C166 C167 1.362 . S
C167 H157 0.930 . S
C167 C160 1.409 . S
C167 C166 1.362 . S
H168 C174 0.930 . S
H169 C177 0.930 . S
H170 C178 0.930 . S
H171 C179 0.930 . S
H172 C182 0.930 . S
H173 C183 0.930 . S
C174 H168 0.930 . S
C174 C175 1.355 . S
C174 C176 1.415 . S
C175 C174 1.355 . S
C175 C177 1.419 1_455 S
C176 C174 1.415 . S
C176 C181 1.425 1_455 S
C176 C183 1.409 . S
C177 H169 0.930 . S
C177 C175 1.419 1_655 S
C177 C178 1.362 . S
C178 H170 0.930 . S
C178 C177 1.362 . S
C178 C181 1.409 . S
C179 H171 0.930 . S
C179 C180 1.355 1_655 S
C179 C181 1.415 . S
C180 C179 1.355 1_455 S
C180 C182 1.419 . S
C181 C176 1.425 1_655 S
C181 C178 1.409 . S
C181 C179 1.415 . S
C182 H172 0.930 . S
C182 C180 1.419 . S
C182 C183 1.362 . S
C183 H173 0.930 . S
C183 C176 1.409 . S
C183 C182 1.362 . S
H184 C190 0.930 . S
H185 C193 0.930 . S
H186 C194 0.930 . S
H187 C195 0.930 . S
H188 C198 0.930 . S
H189 C199 0.930 . S
C190 H184 0.930 . S
C190 C191 1.355 . S
C190 C192 1.415 . S
C191 C190 1.355 . S
C191 C193 1.419 1_545 S
C192 C190 1.415 . S
C192 C197 1.425 1_545 S
C192 C199 1.409 . S
C193 H185 0.930 . S
C193 C191 1.419 1_565 S
C193 C194 1.362 . S
C194 H186 0.930 . S
C194 C193 1.362 . S
C194 C197 1.409 . S
C195 H187 0.930 . S
C195 C196 1.355 1_565 S
C195 C197 1.415 . S
C196 C195 1.355 1_545 S
C196 C198 1.419 . S
C197 C192 1.425 1_565 S
C197 C194 1.409 . S
C197 C195 1.415 . S
C198 H188 0.930 . S
C198 C196 1.419 . S
C198 C199 1.362 . S
C199 H189 0.930 . S
C199 C192 1.409 . S
C199 C198 1.362 . S
H200 C206 0.930 . S
H201 C209 0.930 . S
H202 C210 0.930 . S
H203 C211 0.930 . S
H204 C214 0.930 . S
H205 C215 0.930 . S
C206 H200 0.930 . S
C206 C207 1.355 . S
C206 C208 1.415 . S
C207 C206 1.355 . S
C207 C209 1.419 . S
C208 C206 1.415 . S
C208 C213 1.425 . S
C208 C215 1.409 . S
C209 H201 0.930 . S
C209 C207 1.419 . S
C209 C210 1.362 . S
C210 H202 0.930 . S
C210 C209 1.362 . S
C210 C213 1.409 . S
C211 H203 0.930 . S
C211 C212 1.355 . S
C211 C213 1.415 . S
C212 C211 1.355 . S
C212 C214 1.419 . S
C213 C208 1.425 . S
C213 C210 1.409 . S
C213 C211 1.415 . S
C214 H204 0.930 . S
C214 C212 1.419 . S
C214 C215 1.362 . S
C215 H205 0.930 . S
C215 C208 1.409 . S
C215 C214 1.362 . S
H216 C222 0.930 . S
H217 C225 0.930 . S
H218 C226 0.930 . S
H219 C227 0.930 . S
H220 C230 0.930 . S
H221 C231 0.930 1_565 S
C222 H216 0.930 . S
C222 C223 1.355 . S
C222 C224 1.415 . S
C223 C222 1.355 . S
C223 C225 1.419 . S
C224 C222 1.415 . S
C224 C229 1.425 . S
C224 C231 1.409 . S
C225 H217 0.930 . S
C225 C223 1.419 . S
C225 C226 1.362 . S
C226 H218 0.930 . S
C226 C225 1.362 . S
C226 C229 1.409 . S
C227 H219 0.930 . S
C227 C228 1.355 . S
C227 C229 1.415 . S
C228 C227 1.355 . S
C228 C230 1.419 . S
C229 C224 1.425 . S
C229 C226 1.409 . S
C229 C227 1.415 . S
C230 H220 0.930 . S
C230 C228 1.419 . S
C230 C231 1.362 . S
C231 H221 0.930 1_545 S
C231 C224 1.409 . S
C231 C230 1.362 . S
H232 C238 0.930 . S
H233 C241 0.930 . S
H234 C242 0.930 . S
H235 C243 0.930 . S
H236 C246 0.930 . S
H237 C247 0.930 . S
C238 H232 0.930 . S
C238 C239 1.355 . S
C238 C240 1.415 . S
C239 C238 1.355 . S
C239 C241 1.419 . S
C240 C238 1.415 . S
C240 C245 1.425 . S
C240 C247 1.409 . S
C241 H233 0.930 . S
C241 C239 1.419 . S
C241 C242 1.362 . S
C242 H234 0.930 . S
C242 C241 1.362 . S
C242 C245 1.409 . S
C243 H235 0.930 . S
C243 C244 1.355 . S
C243 C245 1.415 . S
C244 C243 1.355 . S
C244 C246 1.419 . S
C245 C240 1.425 . S
C245 C242 1.409 . S
C245 C243 1.415 . S
C246 H236 0.930 . S
C246 C244 1.419 . S
C246 C247 1.362 . S
C247 H237 0.930 . S
C247 C240 1.409 . S
C247 C246 1.362 . S
C132 C97 1.190 . S
C127 C15 1.490 . S
C148 C117 1.488 . S
C143 C68 1.487 . S
C164 C96 1.425 . S
C159 C8 1.491 . S
C180 C118 1.502 . S
C175 C47 1.502 . S
C196 C110 1.432 . S
C191 C22 1.494 . S
C212 C103 1.448 . S
C207 C61 1.494 . S
C228 C111 1.320 . S
C223 C1 1.502 . S
C239 C54 1.505 . S
C244 C104 1.499 . S
