# Generated by pormake.
# Topology sit, (3,6)-cn, num edge types: 1
# Building blocks:
#     Node 0, Type 0, BuildingBlock: BETDAH_clean_linker_0, # of connection points: 3
#     Node 1, Type 0, BuildingBlock: BETDAH_clean_linker_0, # of connection points: 3
#     Node 2, Type 0, BuildingBlock: BETDAH_clean_linker_0, # of connection points: 3
#     Node 3, Type 0, BuildingBlock: BETDAH_clean_linker_0, # of connection points: 3
#     Node 4, Type 1, BuildingBlock: MIDCAF_clean_sbu_0, # of connection points: 6
#     Node 5, Type 1, BuildingBlock: MIDCAF_clean_sbu_0, # of connection points: 6
#     Edge 6, Type (0, 1), BuildingBlock: EYOCIG_clean_linker_4, # of connection points: 2
#     Edge 7, Type (0, 1), BuildingBlock: EYOCIG_clean_linker_4, # of connection points: 2
#     Edge 8, Type (0, 1), BuildingBlock: EYOCIG_clean_linker_4, # of connection points: 2
#     Edge 9, Type (0, 1), BuildingBlock: EYOCIG_clean_linker_4, # of connection points: 2
#     Edge 10, Type (0, 1), BuildingBlock: EYOCIG_clean_linker_4, # of connection points: 2
#     Edge 11, Type (0, 1), BuildingBlock: EYOCIG_clean_linker_4, # of connection points: 2
#     Edge 12, Type (0, 1), BuildingBlock: EYOCIG_clean_linker_4, # of connection points: 2
#     Edge 13, Type (0, 1), BuildingBlock: EYOCIG_clean_linker_4, # of connection points: 2
#     Edge 14, Type (0, 1), BuildingBlock: EYOCIG_clean_linker_4, # of connection points: 2
#     Edge 15, Type (0, 1), BuildingBlock: EYOCIG_clean_linker_4, # of connection points: 2
#     Edge 16, Type (0, 1), BuildingBlock: EYOCIG_clean_linker_4, # of connection points: 2
#     Edge 17, Type (0, 1), BuildingBlock: EYOCIG_clean_linker_4, # of connection points: 2
# Relax obj value: 0.072
# Max RMSD: 0.181
# Mean RMSD: 0.107
data_MOF--net-sit--node1-MIDCAF_clean_sbu_0--node2-BETDAH_clean_linker_0--edge1-EYOCIG_clean_linker_4
_symmetry_space_group_name_H-M    P1
_symmetry_Int_Tables_number       1
_symmetry_cell_setting            triclinic
loop_
_symmetry_equiv_pos_as_xyz
'x, y, z'
_cell_length_a     17.098554
_cell_length_b     25.883671
_cell_length_c     29.39387
_cell_angle_alpha  90.217076
_cell_angle_beta   85.960102
_cell_angle_gamma 82.437425
loop_
_atom_site_label
_atom_site_type_symbol
_atom_site_fract_x
_atom_site_fract_y
_atom_site_fract_z
_atom_type_partial_charge
H0 H 0.04905 0.41824 0.00751 0.0
H1 H 0.21119 0.28538 0.04194 0.0
H2 H 0.96518 0.27058 0.0325 0.0
C3 C 0.05964 0.37807 0.01854 0.0
C4 C -0.00193 0.34753 0.02042 0.0
C5 C 0.13622 0.35601 0.02652 0.0
C6 C 0.15113 0.30326 0.03791 0.0
C7 C 0.08916 0.27256 0.04137 0.0
C8 C 0.01216 0.2949 0.03275 0.0
N9 N 0.10742 0.21796 0.04604 0.0
C10 C 0.08236 0.19165 0.08432 0.0
H11 H 0.0444 0.63697 0.00516 0.0
H12 H 0.09492 0.77918 0.06616 0.0
H13 H 0.85518 0.75958 0.0406 0.0
C14 C 0.02382 0.67492 0.02069 0.0
C15 C 0.94369 0.69414 0.02235 0.0
C16 C 0.07825 0.70544 0.03624 0.0
C17 C 0.05218 0.75518 0.05525 0.0
C18 C -0.02901 0.77486 0.05705 0.0
C19 C 0.9173 0.74408 0.04034 0.0
N20 N 0.94161 0.82628 0.07257 0.0
C21 C -0.01879 0.8569 0.09968 0.0
H22 H 0.53893 0.9189 0.50597 0.0
H23 H 0.71396 0.79421 0.542 0.0
H24 H 0.46977 0.76952 0.54227 0.0
C25 C 0.55375 0.87968 0.51856 0.0
C26 C 0.49528 0.84687 0.52427 0.0
C27 C 0.63226 0.86103 0.52523 0.0
C28 C 0.65248 0.80943 0.53866 0.0
C29 C 0.59392 0.77656 0.54614 0.0
C30 C 0.51461 0.79551 0.5392 0.0
N31 N 0.61789 0.72324 0.55501 0.0
C32 C 0.58116 0.69535 0.58864 0.0
H33 H 0.54857 0.1367 0.50547 0.0
H34 H 0.59429 0.28202 0.56289 0.0
H35 H 0.3551 0.25562 0.5431 0.0
C36 C 0.52681 0.17455 0.52086 0.0
C37 C 0.44597 0.19181 0.52404 0.0
C38 C 0.58021 0.20694 0.53457 0.0
C39 C 0.55248 0.25656 0.55338 0.0
C40 C 0.47056 0.27422 0.55674 0.0
C41 C 0.41785 0.24163 0.54176 0.0
N42 N 0.43927 0.32542 0.57199 0.0
C43 C 0.47748 0.35687 0.59911 0.0
Zn44 Zn 0.04945 0.13196 0.37298 0.0
Zn45 Zn 0.05343 0.92584 0.37104 0.0
Zn46 Zn 0.05087 0.02867 0.375 0.0
C47 C 0.05278 0.95763 0.28205 0.0
C48 C 0.91781 0.96723 0.42459 0.0
O49 O 0.15631 0.0464 0.40815 0.0
O50 O 0.14927 0.13233 0.40275 0.0
C51 C 0.0496 0.10086 0.2834 0.0
O52 O 0.051 1.00208 0.30241 0.0
O53 O 0.05482 0.91617 0.30449 0.0
O54 O 0.95303 0.92463 0.40831 0.0
O55 O 0.94457 1.01054 0.41558 0.0
O56 O 0.04832 0.14206 0.30654 0.0
O57 O 0.05108 0.05622 0.30298 0.0
O58 O 0.94507 0.06488 0.41684 0.0
O59 O 0.95097 0.14984 0.41236 0.0
C60 C 0.91757 0.11235 0.42786 0.0
O61 O 0.15566 0.99196 0.4088 0.0
O62 O 0.15088 0.907 0.40267 0.0
C63 C 0.18351 0.08943 0.41587 0.0
C64 C 0.18328 0.94438 0.41684 0.0
Zn65 Zn 0.53922 0.63261 0.8727 0.0
Zn66 Zn 0.55574 0.42557 0.87053 0.0
Zn67 Zn 0.54702 0.52887 0.87478 0.0
C68 C 0.54825 0.45767 0.78192 0.0
C69 C 0.42174 0.46313 0.92699 0.0
O70 O 0.65265 0.54981 0.90588 0.0
O71 O 0.64025 0.63593 0.9006 0.0
C72 C 0.536 0.60131 0.78339 0.0
O73 O 0.54493 0.50219 0.80239 0.0
O74 O 0.55384 0.41599 0.80413 0.0
O75 O 0.45835 0.42135 0.90985 0.0
O76 O 0.44498 0.50741 0.91745 0.0
O77 O 0.53364 0.64269 0.80644 0.0
O78 O 0.54133 0.55655 0.80295 0.0
O79 O 0.44184 0.56204 0.91854 0.0
O80 O 0.44228 0.64754 0.91385 0.0
C81 C 0.41225 0.60901 0.93001 0.0
O82 O 0.65558 0.4951 0.90635 0.0
O83 O 0.65597 0.40963 0.90003 0.0
C84 C 0.67761 0.59372 0.91308 0.0
C85 C 0.68664 0.44804 0.91363 0.0
C86 C 0.05702 0.14335 0.15256 0.0
C87 C 0.06696 0.16725 0.11793 0.0
C88 C 0.05164 0.11922 0.19554 0.0
C89 C 0.0507 0.10534 0.23468 0.0
C90 C 0.02841 0.91167 0.15529 0.0
C91 C 0.00828 0.88472 0.12582 0.0
C92 C 0.04259 0.93853 0.19523 0.0
C93 C 0.04755 0.95369 0.23365 0.0
C94 C 0.54324 0.64472 0.65311 0.0
C95 C 0.55814 0.66968 0.61977 0.0
C96 C 0.53583 0.61983 0.69564 0.0
C97 C 0.53598 0.60567 0.7347 0.0
C98 C 0.52234 0.41228 0.65507 0.0
C99 C 0.50329 0.38515 0.62539 0.0
C100 C 0.53591 0.43898 0.69521 0.0
C101 C 0.54137 0.45383 0.73366 0.0
C102 C 0.24822 0.4142 0.00436 0.0
C103 C 0.19997 0.38574 0.01512 0.0
C104 C 0.30423 0.44303 0.98272 0.0
C105 C 0.35534 0.45904 0.95861 0.0
C106 C 0.84772 0.63765 0.98401 0.0
C107 C 0.89048 0.66399 0.00165 0.0
C108 C 0.79544 0.61144 0.96035 0.0
C109 C 0.74419 0.59704 0.93934 0.0
C110 C 0.86823 0.39287 0.98645 0.0
C111 C 0.9249 0.36918 0.00256 0.0
C112 C 0.80675 0.41967 0.96276 0.0
C113 C 0.7529 0.43753 0.94088 0.0
C114 C 0.22372 0.66369 0.01295 0.0
C115 C 0.16064 0.68712 0.02614 0.0
C116 C 0.29068 0.6369 0.98836 0.0
C117 C 0.34542 0.6193 0.96243 0.0
C118 C 0.73939 0.92185 0.49983 0.0
C119 C 0.69231 0.89301 0.51177 0.0
C120 C 0.79611 0.95016 0.47825 0.0
C121 C 0.84925 0.96506 0.45501 0.0
C122 C 0.35144 0.13228 0.48822 0.0
C123 C 0.39355 0.15997 0.50472 0.0
C124 C 0.29981 0.10526 0.46485 0.0
C125 C 0.24914 0.09114 0.44321 0.0
C126 C 0.36148 0.88733 0.49198 0.0
C127 C 0.41935 0.86494 0.5079 0.0
C128 C 0.30029 0.9138 0.46782 0.0
C129 C 0.24794 0.93224 0.44509 0.0
C130 C 0.72629 0.16836 0.50891 0.0
C131 C 0.66274 0.19045 0.52293 0.0
C132 C 0.79383 0.14224 0.48432 0.0
C133 C 0.84938 0.12427 0.45911 0.0
loop_
_geom_bond_atom_site_label_1
_geom_bond_atom_site_label_2
_geom_bond_distance
_geom_bond_site_symmetry_2
_ccdc_geom_bond_type
H0 C3 0.929 . S
H1 C6 0.929 . S
H2 C8 0.930 . S
C3 H0 0.929 . S
C3 C4 1.402 . S
C3 C5 1.396 1_556 S
C4 C3 1.402 . S
C4 C8 1.395 1_556 S
C5 C3 1.396 1_554 S
C5 C6 1.394 . S
C6 H1 0.929 . S
C6 C5 1.394 . S
C6 C7 1.382 . S
C7 C6 1.382 . S
C7 C8 1.392 . S
C7 N9 1.420 . S
C8 H2 0.930 . S
C8 C4 1.395 1_554 S
C8 C7 1.392 . S
N9 C7 1.420 . S
N9 C10 1.244 . S
C10 N9 1.244 . S
H11 C14 0.929 . S
H12 C17 0.929 . S
H13 C19 0.930 . S
C14 H11 0.929 . S
C14 C15 1.398 1_456 S
C14 C16 1.396 1_556 S
C15 C14 1.398 1_654 S
C15 C19 1.407 . S
C16 C14 1.396 1_554 S
C16 C17 1.394 . S
C17 H12 0.929 . S
C17 C16 1.394 . S
C17 C18 1.382 1_455 S
C18 C17 1.382 1_655 S
C18 C19 1.392 . S
C18 N20 1.420 . S
C19 H13 0.930 . S
C19 C15 1.407 . S
C19 C18 1.392 . S
N20 C18 1.420 . S
N20 C21 1.244 1_655 S
C21 N20 1.244 1_455 S
H22 C25 0.929 . S
H23 C28 0.929 . S
H24 C30 0.930 . S
C25 H22 0.929 . S
C25 C26 1.398 . S
C25 C27 1.396 . S
C26 C25 1.398 . S
C26 C30 1.407 . S
C27 C25 1.396 . S
C27 C28 1.394 . S
C28 H23 0.929 . S
C28 C27 1.394 . S
C28 C29 1.382 . S
C29 C28 1.382 . S
C29 C30 1.392 . S
C29 N31 1.420 . S
C30 H24 0.930 . S
C30 C26 1.407 . S
C30 C29 1.392 . S
N31 C29 1.420 . S
N31 C32 1.244 . S
C32 N31 1.244 . S
H33 C36 0.929 . S
H34 C39 0.929 . S
H35 C41 0.930 . S
C36 H33 0.929 . S
C36 C37 1.398 . S
C36 C38 1.396 . S
C37 C36 1.398 . S
C37 C41 1.407 . S
C38 C36 1.396 . S
C38 C39 1.394 . S
C39 H34 0.929 . S
C39 C38 1.394 . S
C39 C40 1.382 . S
C40 C39 1.382 . S
C40 C41 1.392 . S
C40 N42 1.420 . S
C41 H35 0.930 . S
C41 C37 1.407 . S
C41 C40 1.392 . S
N42 C40 1.420 . S
N42 C43 1.244 . S
C43 N42 1.244 . S
Zn44 O50 1.920 . S
Zn44 O56 1.898 . S
Zn44 O59 1.905 1_455 S
Zn45 O53 1.905 . S
Zn45 O54 1.898 . S
Zn45 O62 1.920 . S
Zn46 O49 2.080 . S
Zn46 O52 2.114 1_545 S
Zn46 O55 2.120 1_545 S
Zn46 O57 2.120 . S
Zn46 O58 2.114 1_455 S
Zn46 O61 2.080 1_545 S
C47 O52 1.166 . S
C47 O53 1.182 . S
C48 O54 1.167 1_655 S
C48 O55 1.299 1_655 S
O49 Zn46 2.080 . S
O49 C63 1.305 . S
O50 Zn44 1.920 . S
O50 C63 1.234 . S
C51 O56 1.167 . S
C51 O57 1.299 . S
O52 Zn46 2.114 1_565 S
O52 C47 1.166 . S
O53 Zn45 1.905 . S
O53 C47 1.182 . S
O54 Zn45 1.898 . S
O54 C48 1.167 1_455 S
O55 Zn46 2.120 1_565 S
O55 C48 1.299 1_455 S
O56 Zn44 1.898 . S
O56 C51 1.167 . S
O57 Zn46 2.120 . S
O57 C51 1.299 . S
O58 Zn46 2.114 1_655 S
O58 C60 1.166 . S
O59 Zn44 1.905 1_655 S
O59 C60 1.182 . S
C60 O58 1.166 . S
C60 O59 1.182 . S
O61 Zn46 2.080 1_565 S
O61 C64 1.305 . S
O62 Zn45 1.920 . S
O62 C64 1.234 . S
C63 O49 1.305 . S
C63 O50 1.234 . S
C64 O61 1.305 . S
C64 O62 1.234 . S
Zn65 O71 1.920 . S
Zn65 O77 1.898 . S
Zn65 O80 1.905 . S
Zn66 O74 1.905 . S
Zn66 O75 1.898 . S
Zn66 O83 1.920 . S
Zn67 O70 2.080 . S
Zn67 O73 2.114 . S
Zn67 O76 2.120 . S
Zn67 O78 2.120 . S
Zn67 O79 2.114 . S
Zn67 O82 2.080 . S
C68 O73 1.166 . S
C68 O74 1.182 . S
C69 O75 1.167 . S
C69 O76 1.299 . S
O70 Zn67 2.080 . S
O70 C84 1.305 . S
O71 Zn65 1.920 . S
O71 C84 1.234 . S
C72 O77 1.167 . S
C72 O78 1.299 . S
O73 Zn67 2.114 . S
O73 C68 1.166 . S
O74 Zn66 1.905 . S
O74 C68 1.182 . S
O75 Zn66 1.898 . S
O75 C69 1.167 . S
O76 Zn67 2.120 . S
O76 C69 1.299 . S
O77 Zn65 1.898 . S
O77 C72 1.167 . S
O78 Zn67 2.120 . S
O78 C72 1.299 . S
O79 Zn67 2.114 . S
O79 C81 1.166 . S
O80 Zn65 1.905 . S
O80 C81 1.182 . S
C81 O79 1.166 . S
C81 O80 1.182 . S
O82 Zn67 2.080 . S
O82 C85 1.305 . S
O83 Zn66 1.920 . S
O83 C85 1.234 . S
C84 O70 1.305 . S
C84 O71 1.234 . S
C85 O82 1.305 . S
C85 O83 1.234 . S
C86 C87 1.170 . S
C86 C88 1.380 . S
C87 C86 1.170 . S
C88 C86 1.380 . S
C88 C89 1.170 . S
C89 C88 1.170 . S
C90 C91 1.170 . S
C90 C92 1.380 . S
C91 C90 1.170 . S
C92 C90 1.380 . S
C92 C93 1.170 . S
C93 C92 1.170 . S
C94 C95 1.170 . S
C94 C96 1.380 . S
C95 C94 1.170 . S
C96 C94 1.380 . S
C96 C97 1.170 . S
C97 C96 1.170 . S
C98 C99 1.170 . S
C98 C100 1.380 . S
C99 C98 1.170 . S
C100 C98 1.380 . S
C100 C101 1.170 . S
C101 C100 1.170 . S
C102 C103 1.170 . S
C102 C104 1.380 . S
C103 C102 1.170 . S
C104 C102 1.380 . S
C104 C105 1.170 . S
C105 C104 1.170 . S
C106 C107 1.170 . S
C106 C108 1.380 . S
C107 C106 1.170 . S
C108 C106 1.380 . S
C108 C109 1.170 . S
C109 C108 1.170 . S
C110 C111 1.170 . S
C110 C112 1.380 . S
C111 C110 1.170 . S
C112 C110 1.380 . S
C112 C113 1.170 . S
C113 C112 1.170 . S
C114 C115 1.170 . S
C114 C116 1.380 . S
C115 C114 1.170 . S
C116 C114 1.380 . S
C116 C117 1.170 . S
C117 C116 1.170 . S
C118 C119 1.170 . S
C118 C120 1.380 . S
C119 C118 1.170 . S
C120 C118 1.380 . S
C120 C121 1.170 . S
C121 C120 1.170 . S
C122 C123 1.170 . S
C122 C124 1.380 . S
C123 C122 1.170 . S
C124 C122 1.380 . S
C124 C125 1.170 . S
C125 C124 1.170 . S
C126 C127 1.170 . S
C126 C128 1.380 . S
C127 C126 1.170 . S
C128 C126 1.380 . S
C128 C129 1.170 . S
C129 C128 1.170 . S
C130 C131 1.170 . S
C130 C132 1.380 . S
C131 C130 1.170 . S
C132 C130 1.380 . S
C132 C133 1.170 . S
C133 C132 1.170 . S
C89 C51 1.398 . S
C87 C10 1.533 . S
C93 C47 1.383 . S
C91 C21 1.490 . S
C97 C72 1.440 . S
C95 C32 1.535 . S
C99 C43 1.502 . S
C101 C68 1.409 . S
C103 C5 1.344 1_556 S
C105 C69 1.136 . S
C109 C84 1.173 . S
C107 C15 1.333 1_556 S
C111 C4 1.693 1_655 S
C113 C85 1.527 . S
C117 C81 1.565 . S
C115 C16 1.706 1_556 S
C121 C48 1.209 . S
C119 C27 1.311 . S
C123 C37 1.350 . S
C125 C63 1.142 . S
C129 C64 1.541 . S
C127 C26 1.682 . S
C133 C60 1.577 . S
C131 C38 1.705 . S
