# Generated by pormake.
# Topology pts, (4,4)-cn, num edge types: 1
# Building blocks:
#     Node 0, Type 0, BuildingBlock: GIZVER_clean_linker_0, # of connection points: 4
#     Node 1, Type 0, BuildingBlock: GIZVER_clean_linker_0, # of connection points: 4
#     Node 2, Type 1, BuildingBlock: AZAVOO_clean_sbu_0, # of connection points: 4
#     Node 3, Type 1, BuildingBlock: AZAVOO_clean_sbu_0, # of connection points: 4
#     Edge 4, Type (0, 1), BuildingBlock: KIFKEQ_clean_linker_1, # of connection points: 2
#     Edge 5, Type (0, 1), BuildingBlock: KIFKEQ_clean_linker_1, # of connection points: 2
#     Edge 6, Type (0, 1), BuildingBlock: KIFKEQ_clean_linker_1, # of connection points: 2
#     Edge 7, Type (0, 1), BuildingBlock: KIFKEQ_clean_linker_1, # of connection points: 2
#     Edge 8, Type (0, 1), BuildingBlock: KIFKEQ_clean_linker_1, # of connection points: 2
#     Edge 9, Type (0, 1), BuildingBlock: KIFKEQ_clean_linker_1, # of connection points: 2
#     Edge 10, Type (0, 1), BuildingBlock: KIFKEQ_clean_linker_1, # of connection points: 2
#     Edge 11, Type (0, 1), BuildingBlock: KIFKEQ_clean_linker_1, # of connection points: 2
# Relax obj value: 0.014
# Max RMSD: 0.077
# Mean RMSD: 0.070
data_MOF--net-pts--node1-AZAVOO_clean_sbu_0--node2-GIZVER_clean_linker_0--edge1-KIFKEQ_clean_linker_1
_symmetry_space_group_name_H-M    P1
_symmetry_Int_Tables_number       1
_symmetry_cell_setting            triclinic
loop_
_symmetry_equiv_pos_as_xyz
'x, y, z'
_cell_length_a     25.271107
_cell_length_b     26.737863
_cell_length_c     35.612138
_cell_angle_alpha  90.424409
_cell_angle_beta   96.188479
_cell_angle_gamma 89.359326
loop_
_atom_site_label
_atom_site_type_symbol
_atom_site_fract_x
_atom_site_fract_y
_atom_site_fract_z
_atom_type_partial_charge
H0 H 0.61039 0.09433 0.03829 0.0
H1 H 0.58177 0.10759 0.91708 0.0
H2 H 0.72763 0.04182 0.96787 0.0
H3 H 0.54385 0.15498 0.00814 0.0
H4 H 0.5297 0.15743 0.9581 0.0
H5 H 0.49973 0.09503 0.04546 0.0
H6 H 0.36366 0.01955 -0.00934 0.0
H7 H 0.46754 0.09864 0.92411 0.0
C8 C 0.62244 0.08707 0.01044 0.0
C9 C 0.67293 0.06602 0.0069 0.0
C10 C 0.589 0.10205 0.97809 0.0
C11 C 0.60631 0.09483 0.94209 0.0
C12 C 0.65607 0.07259 0.93849 0.0
C13 C 0.68867 0.05794 0.97082 0.0
C14 C 0.53837 0.13129 -0.01779 0.0
C15 C 0.49108 0.09764 -0.01571 0.0
C16 C 0.47647 0.08303 0.01968 0.0
C17 C 0.43043 0.05486 0.02179 0.0
C18 C 0.39944 0.04094 -0.01143 0.0
C19 C 0.41098 0.05793 0.95325 0.0
C20 C 0.45811 0.08489 0.95112 0.0
H21 H 0.12247 0.5748 0.43601 0.0
H22 H 0.12413 0.5505 0.55568 0.0
H23 H 0.0429 0.67847 0.50442 0.0
H24 H 0.18195 0.51239 0.46767 0.0
H25 H 0.18623 0.50492 0.51776 0.0
H26 H 0.12132 0.46188 0.426 0.0
H27 H 0.03824 0.34351 0.47431 0.0
H28 H 0.11991 0.4537 0.54677 0.0
C29 C 0.10947 0.58551 0.46298 0.0
C30 C 0.08113 0.63054 0.46634 0.0
C31 C 0.12422 0.55586 0.49504 0.0
C32 C 0.1106 0.57171 0.53058 0.0
C33 C 0.08077 0.6157 0.53385 0.0
C34 C 0.06491 0.64383 0.50154 0.0
C35 C 0.15776 0.50939 0.49187 0.0
C36 C 0.12294 0.46392 0.48689 0.0
C37 C 0.10768 0.44447 0.45056 0.0
C38 C 0.07639 0.40147 0.44605 0.0
C39 C 0.05987 0.37834 0.4779 0.0
C40 C 0.07584 0.39636 0.51439 0.0
C41 C 0.10688 0.43969 0.51869 0.0
Mg42 Mg 0.08309 0.99678 0.2584 0.0
O43 O 1.00344 0.99807 0.21931 0.0
O44 O 0.93943 0.99159 0.25785 0.0
Mg45 Mg 0.97576 0.98335 0.31888 0.0
C46 C 0.9542 0.99644 0.22489 0.0
C47 C 0.14744 0.99338 0.18858 0.0
O48 O 0.1271 0.94832 0.18669 0.0
O49 O 0.06624 0.07675 0.27717 0.0
O50 O 1.00427 0.06451 0.31634 0.0
O51 O 0.08942 0.91304 0.25554 0.0
O52 O 0.04825 0.95465 0.29758 0.0
C53 C 0.03501 0.09335 0.3004 0.0
C54 C 0.0619 0.91221 0.28411 0.0
O55 O 0.13304 0.02415 0.213 0.0
Mg56 Mg 0.99649 0.99598 0.7018 0.0
O57 O 0.07581 1.00166 0.741 0.0
O58 O 0.14111 0.98183 0.70534 0.0
Mg59 Mg 0.10554 0.96817 0.64477 0.0
C60 C 0.12515 0.99449 0.73692 0.0
C61 C 0.89788 0.01733 0.73796 0.0
O62 O 0.88524 0.98778 0.70879 0.0
O63 O 1.01412 0.07165 0.67716 0.0
O64 O 0.07978 0.05119 0.64243 0.0
O65 O 0.99009 0.91435 0.713 0.0
O66 O 0.03255 0.94532 0.66759 0.0
C67 C 0.0482 0.08352 0.65487 0.0
C68 C 1.01925 0.90672 0.68578 0.0
O69 O 0.94599 0.03133 0.74461 0.0
H70 H 0.41375 0.96624 0.05529 0.0
H71 H 0.39109 0.12542 0.0662 0.0
H72 H 0.34972 0.95194 0.10066 0.0
H73 H 0.32511 0.11168 0.1101 0.0
H74 H 0.21817 0.0704 0.19998 0.0
H75 H 0.29704 0.08449 0.16771 0.0
H76 H 0.25612 0.95747 0.0949 0.0
H77 H 0.17883 0.94236 0.12813 0.0
C78 C 0.39633 0.99815 0.06852 0.0
C79 C 0.40756 0.04687 0.05767 0.0
C80 C 0.35882 0.99009 0.09389 0.0
C81 C 0.33095 0.0306 0.10829 0.0
C82 C 0.34572 0.07952 0.09979 0.0
C83 C 0.38385 0.08754 0.07481 0.0
C84 C 0.22593 0.04569 0.17692 0.0
C85 C 0.1922 1.00524 0.1666 0.0
C86 C 0.27126 0.05371 0.15843 0.0
C87 C 0.28363 0.02174 0.12897 0.0
C88 C 0.24898 0.98204 0.11817 0.0
C89 C 0.2041 0.97372 0.13689 0.0
H90 H 0.14818 0.36895 0.57321 0.0
H91 H 0.98374 0.35074 0.52858 0.0
H92 H 0.14033 0.29978 0.61648 0.0
H93 H 0.97623 0.28074 0.5712 0.0
H94 H 0.1289 0.12625 0.62208 0.0
H95 H 0.13316 0.21065 0.59814 0.0
H96 H 0.98032 0.24538 0.63624 0.0
H97 H 0.97578 0.16009 0.66031 0.0
C98 C 0.10985 0.35133 0.57354 0.0
C99 C 0.06676 0.3648 0.54717 0.0
C100 C 0.10552 0.31133 0.59803 0.0
C101 C 0.05801 0.28417 0.59668 0.0
C102 C 1.01338 0.30087 0.57294 0.0
C103 C 1.01775 0.34079 0.54839 0.0
C104 C 0.09629 0.15185 0.6257 0.0
C105 C 0.05174 0.13619 0.64278 0.0
C106 C 0.09905 0.20053 0.61234 0.0
C107 C 0.0572 0.23482 0.61548 0.0
C108 C 1.01312 0.21971 0.63339 0.0
C109 C 1.01059 0.17093 0.64717 0.0
H110 H 0.7746 0.09847 0.01857 0.0
H111 H 0.65931 0.01183 0.07024 0.0
H112 H 0.84159 0.07941 0.07086 0.0
H113 H 0.72703 0.99115 0.12251 0.0
H114 H 0.84729 0.00914 0.22783 0.0
H115 H 0.77879 0.02532 0.17612 0.0
H116 H 0.89646 0.01312 0.09691 0.0
H117 H 0.96568 0.99866 0.14902 0.0
C118 C 0.76378 0.075 0.04116 0.0
C119 C 0.71191 0.05631 0.0403 0.0
C120 C 0.8023 0.06372 0.07101 0.0
C121 C 0.79014 0.03309 0.10074 0.0
C122 C 0.73779 0.01514 0.10024 0.0
C123 C 0.69895 0.02689 0.07038 0.0
C124 C 0.85871 0.00962 0.19939 0.0
C125 C 0.91225 1.00285 0.19268 0.0
C126 C 0.81916 0.01864 0.16962 0.0
C127 C 0.83192 0.02081 0.13225 0.0
C128 C 0.88526 0.01271 0.1254 0.0
C129 C 0.92499 1.00407 0.15526 0.0
H130 H 0.15754 0.64293 0.589 0.0
H131 H 0.98737 0.64262 0.56018 0.0
H132 H 0.14756 0.70628 0.63776 0.0
H133 H 0.97717 0.70559 0.60897 0.0
H134 H 0.10042 0.8786 0.64489 0.0
H135 H 0.11862 0.79572 0.62065 0.0
H136 H 0.99159 0.73546 0.67792 0.0
H137 H 0.97352 0.81889 0.70266 0.0
C138 C 0.11786 0.65463 0.59441 0.0
C139 C 0.07318 0.63818 0.57092 0.0
C140 C 0.11218 0.69119 0.622 0.0
C141 C 0.06168 0.71132 0.62673 0.0
C142 C 1.01654 0.69061 0.6061 0.0
C143 C 1.02229 0.65455 0.57821 0.0
C144 C 0.07691 0.84774 0.6529 0.0
C145 C 0.03514 0.85551 0.67531 0.0
C146 C 0.08774 0.80001 0.63934 0.0
C147 C 0.05654 0.7591 0.64746 0.0
C148 C 1.01624 0.76637 0.67126 0.0
C149 C 1.00599 0.81409 0.68538 0.0
H150 H 0.30324 0.06673 0.95207 0.0
H151 H 0.42587 0.03672 0.87899 0.0
H152 H 0.23552 0.05002 0.90076 0.0
H153 H 0.35723 0.02425 0.82599 0.0
H154 H 0.22315 0.95064 0.74968 0.0
H155 H 0.29276 0.96786 0.80067 0.0
H156 H 0.19078 0.07915 0.84578 0.0
H157 H 0.12027 0.05943 0.796 0.0
C158 C 0.31589 0.05652 0.92491 0.0
C159 C 0.37028 0.0517 0.92003 0.0
C160 C 0.27671 0.04792 0.89507 0.0
C161 C 0.29045 0.03562 0.85894 0.0
C162 C 0.34493 0.03264 0.85356 0.0
C163 C 0.38442 0.04044 0.88382 0.0
C164 C 0.21557 0.97846 0.77077 0.0
C165 C 0.1661 1.00337 0.76909 0.0
C166 C 0.25576 0.98882 0.7998 0.0
C167 C 0.24786 0.02508 0.82753 0.0
C168 C 0.19824 0.05019 0.82556 0.0
C169 C 0.15766 0.03902 0.79696 0.0
H170 H 0.98156 0.37932 0.40623 0.0
H171 H 0.15113 0.36096 0.40566 0.0
H172 H 0.96661 0.3132 0.35873 0.0
H173 H 0.13679 0.29323 0.35966 0.0
H174 H 0.09975 0.16734 0.27815 0.0
H175 H 0.10532 0.25385 0.30088 0.0
H176 H 0.97772 0.2265 0.36954 0.0
H177 H 0.97114 0.14157 0.34623 0.0
C178 C 1.01553 0.36218 0.39486 0.0
C179 C 0.06741 0.37488 0.4095 0.0
C180 C 1.00713 0.32391 0.36806 0.0
C181 C 0.05049 0.29682 0.35616 0.0
C182 C 0.1024 0.31322 0.36801 0.0
C183 C 0.11075 0.35211 0.39438 0.0
C184 C 0.07233 0.18017 0.29761 0.0
C185 C 0.03545 0.14722 0.31071 0.0
C186 C 0.07562 0.22973 0.3107 0.0
C187 C 0.04204 0.24733 0.3371 0.0
C188 C 1.00364 0.21486 0.34872 0.0
C189 C 1.00029 0.16564 0.33565 0.0
H190 H 0.67307 0.9876 0.89955 0.0
H191 H 0.6918 0.14753 0.89724 0.0
H192 H 0.72742 0.9783 0.84703 0.0
H193 H 0.7469 0.1385 0.84479 0.0
H194 H 0.90644 0.08257 0.79834 0.0
H195 H 0.83979 0.09995 0.84195 0.0
H196 H 0.73065 0.9998 0.77838 0.0
H197 H 0.79668 0.9825 0.7349 0.0
C198 C 0.68756 0.0208 0.88688 0.0
C199 C 0.67775 0.06826 0.90178 0.0
C200 C 0.71879 0.01557 0.857 0.0
C201 C 0.74164 0.0577 0.84198 0.0
C202 C 0.73007 0.10542 0.85601 0.0
C203 C 0.69809 0.11067 0.88558 0.0
C204 C 0.86806 0.06465 0.7935 0.0
C205 C 0.85707 0.0309 0.7633 0.0
C206 C 0.82979 0.07485 0.8183 0.0
C207 C 0.78007 0.05111 0.81356 0.0
C208 C 0.76873 0.01833 0.78288 0.0
C209 C 0.80664 0.00855 0.75794 0.0
H210 H 0.05084 0.61395 0.39026 0.0
H211 H 0.0974 0.73045 0.47155 0.0
H212 H 0.03703 0.67751 0.34027 0.0
H213 H 0.08239 0.79279 0.4226 0.0
H214 H 1.00268 0.8995 0.34291 0.0
H215 H 1.00028 0.82601 0.38228 0.0
H216 H 0.09574 0.74402 0.30885 0.0
H217 H 0.09764 0.81783 0.26868 0.0
C218 C 0.05798 0.65289 0.39745 0.0
C219 C 0.07388 0.66728 0.43504 0.0
C220 C 0.04995 0.68912 0.36896 0.0
C221 C 0.05735 0.74009 0.37785 0.0
C222 C 0.07472 0.75397 0.41514 0.0
C223 C 0.0832 0.71814 0.44324 0.0
C224 C 1.02202 0.86561 0.33443 0.0
C225 C 0.05104 0.86485 0.30296 0.0
C226 C 1.02075 0.82349 0.3571 0.0
C227 C 0.04863 0.77971 0.34893 0.0
C228 C 0.0739 0.77734 0.31573 0.0
C229 C 0.07511 0.81967 0.29287 0.0
loop_
_geom_bond_atom_site_label_1
_geom_bond_atom_site_label_2
_geom_bond_distance
_geom_bond_site_symmetry_2
_ccdc_geom_bond_type
H0 C8 0.930 . S
H1 C11 0.930 . S
H2 C13 0.930 . S
H3 C14 0.970 . S
H4 C14 0.970 1_556 S
H5 C16 0.930 . S
H6 C18 0.928 . S
H7 C20 0.930 . S
C8 H0 0.930 . S
C8 C9 1.382 . S
C8 C10 1.426 . S
C9 C8 1.382 . S
C9 C13 1.389 1_545 S
C10 C8 1.426 . S
C10 C11 1.375 1_554 S
C10 C14 1.532 . S
C11 H1 0.930 . S
C11 C10 1.375 1_556 S
C11 C12 1.416 . S
C12 C11 1.416 . S
C12 C13 1.371 1_546 S
C13 H2 0.930 . S
C13 C9 1.389 1_565 S
C13 C12 1.371 1_564 S
C14 H3 0.970 . S
C14 H4 0.970 1_554 S
C14 C10 1.532 . S
C14 C15 1.498 . S
C15 C14 1.498 . S
C15 C16 1.379 . S
C15 C20 1.407 1_554 S
C16 H5 0.930 . S
C16 C15 1.379 . S
C16 C17 1.407 . S
C17 C16 1.407 . S
C17 C18 1.345 1_544 S
C18 H6 0.928 . S
C18 C17 1.345 1_566 S
C18 C19 1.415 1_565 S
C19 C18 1.415 1_545 S
C19 C20 1.387 . S
C20 H7 0.930 . S
C20 C15 1.407 1_556 S
C20 C19 1.387 . S
H21 C29 0.930 . S
H22 C32 0.930 . S
H23 C34 0.923 1_655 S
H24 C35 0.970 . S
H25 C35 0.970 . S
H26 C37 0.930 . S
H27 C39 0.930 1_655 S
H28 C41 0.930 . S
C29 H21 0.930 . S
C29 C30 1.382 . S
C29 C31 1.426 . S
C30 C29 1.382 . S
C30 C34 1.389 . S
C31 C29 1.426 . S
C31 C32 1.375 . S
C31 C35 1.532 . S
C32 H22 0.930 . S
C32 C31 1.375 . S
C32 C33 1.416 . S
C33 C32 1.416 . S
C33 C34 1.371 . S
C34 H23 0.923 1_455 S
C34 C30 1.389 . S
C34 C33 1.371 . S
C35 H24 0.970 . S
C35 H25 0.970 . S
C35 C31 1.532 . S
C35 C36 1.499 . S
C36 C35 1.499 . S
C36 C37 1.370 . S
C36 C41 1.415 . S
C37 H26 0.930 . S
C37 C36 1.370 . S
C37 C38 1.407 . S
C38 C37 1.407 . S
C38 C39 1.365 . S
C39 H27 0.930 1_455 S
C39 C38 1.365 . S
C39 C40 1.393 . S
C40 C39 1.393 . S
C40 C41 1.387 . S
C41 H28 0.930 . S
C41 C36 1.415 . S
C41 C40 1.387 . S
Mg42 O43 2.028 . S
Mg42 O49 1.986 . S
Mg42 O51 2.114 1_545 S
Mg42 O52 2.251 1_545 S
Mg42 O55 2.010 . S
O43 Mg42 2.028 . S
O43 C46 1.250 1_455 S
O44 Mg45 2.028 . S
O44 C46 1.248 . S
Mg45 O44 2.028 . S
Mg45 O50 2.032 . S
Mg45 O52 2.079 1_645 S
C46 O43 1.250 1_655 S
C46 O44 1.248 . S
C47 O48 1.264 . S
C47 O55 1.249 . S
O48 C47 1.264 . S
O49 Mg42 1.986 . S
O49 C53 1.246 . S
O50 Mg45 2.032 . S
O50 C53 1.259 1_655 S
O51 Mg42 2.114 1_565 S
O51 C54 1.252 . S
O52 Mg42 2.251 1_565 S
O52 Mg45 2.079 1_465 S
O52 C54 1.273 . S
C53 O49 1.246 . S
C53 O50 1.259 1_455 S
C54 O51 1.252 . S
C54 O52 1.273 . S
O55 Mg42 2.010 . S
O55 C47 1.249 . S
Mg56 O57 2.028 1_655 S
Mg56 O63 1.986 . S
Mg56 O65 2.114 1_545 S
Mg56 O66 2.251 1_645 S
Mg56 O69 2.010 . S
O57 Mg56 2.028 1_455 S
O57 C60 1.250 . S
O58 Mg59 2.028 . S
O58 C60 1.248 . S
Mg59 O58 2.028 . S
Mg59 O64 2.032 . S
Mg59 O66 2.079 1_545 S
C60 O57 1.250 . S
C60 O58 1.248 . S
C61 O62 1.264 . S
C61 O69 1.249 . S
O62 C61 1.264 . S
O63 Mg56 1.986 . S
O63 C67 1.246 1_655 S
O64 Mg59 2.032 . S
O64 C67 1.259 . S
O65 Mg56 2.114 1_565 S
O65 C68 1.252 1_655 S
O66 Mg56 2.251 1_465 S
O66 Mg59 2.079 1_565 S
O66 C68 1.273 . S
C67 O63 1.246 1_455 S
C67 O64 1.259 . S
C68 O65 1.252 1_455 S
C68 O66 1.273 . S
O69 Mg56 2.010 . S
O69 C61 1.249 . S
H70 C78 0.950 . S
H71 C83 0.950 . S
H72 C80 0.950 . S
H73 C82 0.950 . S
H74 C84 0.950 . S
H75 C86 0.950 . S
H76 C88 0.950 . S
H77 C89 0.950 . S
C78 H70 0.950 . S
C78 C79 1.392 . S
C78 C80 1.391 . S
C79 C78 1.392 . S
C79 C83 1.386 1_565 S
C80 H72 0.950 . S
C80 C78 1.391 . S
C80 C81 1.400 1_565 S
C81 C80 1.400 1_545 S
C81 C82 1.398 . S
C81 C87 1.491 . S
C82 H73 0.950 . S
C82 C81 1.398 . S
C82 C83 1.391 . S
C83 H71 0.950 . S
C83 C79 1.386 1_545 S
C83 C82 1.391 . S
C84 H74 0.950 . S
C84 C85 1.386 . S
C84 C86 1.391 . S
C85 C84 1.386 . S
C85 C89 1.393 1_545 S
C86 H75 0.950 . S
C86 C84 1.391 . S
C86 C87 1.400 . S
C87 C81 1.491 . S
C87 C86 1.400 . S
C87 C88 1.398 1_545 S
C88 H76 0.950 . S
C88 C87 1.398 1_565 S
C88 C89 1.391 . S
C89 H77 0.950 . S
C89 C85 1.393 1_565 S
C89 C88 1.391 . S
H90 C98 0.950 . S
H91 C103 0.950 . S
H92 C100 0.950 . S
H93 C102 0.950 . S
H94 C104 0.950 . S
H95 C106 0.950 . S
H96 C108 0.950 . S
H97 C109 0.950 . S
C98 H90 0.950 . S
C98 C99 1.386 . S
C98 C100 1.391 . S
C99 C98 1.386 . S
C99 C103 1.393 1_455 S
C100 H92 0.950 . S
C100 C98 1.391 . S
C100 C101 1.400 . S
C101 C100 1.400 . S
C101 C102 1.398 1_455 S
C101 C107 1.491 . S
C102 H93 0.950 . S
C102 C101 1.398 1_655 S
C102 C103 1.391 . S
C103 H91 0.950 . S
C103 C99 1.393 1_655 S
C103 C102 1.391 . S
C104 H94 0.950 . S
C104 C105 1.386 1_655 S
C104 C106 1.391 . S
C105 C104 1.386 1_455 S
C105 C109 1.393 . S
C106 H95 0.950 . S
C106 C104 1.391 . S
C106 C107 1.400 1_655 S
C107 C101 1.491 . S
C107 C106 1.400 1_455 S
C107 C108 1.398 . S
C108 H96 0.950 . S
C108 C107 1.398 . S
C108 C109 1.391 . S
C109 H97 0.950 . S
C109 C105 1.393 . S
C109 C108 1.391 . S
H110 C118 0.950 . S
H111 C123 0.950 . S
H112 C120 0.950 . S
H113 C122 0.950 . S
H114 C124 0.950 . S
H115 C126 0.950 . S
H116 C128 0.949 1_565 S
H117 C129 0.950 . S
C118 H110 0.950 . S
C118 C119 1.386 . S
C118 C120 1.391 . S
C119 C118 1.386 . S
C119 C123 1.393 . S
C120 H112 0.950 . S
C120 C118 1.391 . S
C120 C121 1.400 . S
C121 C120 1.400 . S
C121 C122 1.398 . S
C121 C127 1.491 . S
C122 H113 0.950 . S
C122 C121 1.398 . S
C122 C123 1.391 . S
C123 H111 0.950 . S
C123 C119 1.393 . S
C123 C122 1.391 . S
C124 H114 0.950 . S
C124 C125 1.386 . S
C124 C126 1.391 . S
C125 C124 1.386 . S
C125 C129 1.393 . S
C126 H115 0.950 . S
C126 C124 1.391 . S
C126 C127 1.400 . S
C127 C121 1.491 . S
C127 C126 1.400 . S
C127 C128 1.398 . S
C128 H116 0.949 1_545 S
C128 C127 1.398 . S
C128 C129 1.391 . S
C129 H117 0.950 . S
C129 C125 1.393 . S
C129 C128 1.391 . S
H130 C138 0.950 . S
H131 C143 0.950 . S
H132 C140 0.950 . S
H133 C142 0.950 . S
H134 C144 0.950 . S
H135 C146 0.950 . S
H136 C148 0.950 . S
H137 C149 0.950 . S
C138 H130 0.950 . S
C138 C139 1.386 . S
C138 C140 1.391 . S
C139 C138 1.386 . S
C139 C143 1.393 1_455 S
C140 H132 0.950 . S
C140 C138 1.391 . S
C140 C141 1.400 . S
C141 C140 1.400 . S
C141 C142 1.398 1_455 S
C141 C147 1.491 . S
C142 H133 0.950 . S
C142 C141 1.398 1_655 S
C142 C143 1.391 . S
C143 H131 0.950 . S
C143 C139 1.393 1_655 S
C143 C142 1.391 . S
C144 H134 0.950 . S
C144 C145 1.386 1_655 S
C144 C146 1.391 . S
C145 C144 1.386 1_455 S
C145 C149 1.393 . S
C146 H135 0.950 . S
C146 C144 1.391 . S
C146 C147 1.400 1_655 S
C147 C141 1.491 . S
C147 C146 1.400 1_455 S
C147 C148 1.398 . S
C148 H136 0.950 . S
C148 C147 1.398 . S
C148 C149 1.391 . S
C149 H137 0.950 . S
C149 C145 1.393 . S
C149 C148 1.391 . S
H150 C158 0.950 . S
H151 C163 0.950 . S
H152 C160 0.950 . S
H153 C162 0.950 . S
H154 C164 0.950 . S
H155 C166 0.950 . S
H156 C168 0.950 . S
H157 C169 0.950 . S
C158 H150 0.950 . S
C158 C159 1.386 . S
C158 C160 1.391 . S
C159 C158 1.386 . S
C159 C163 1.393 1_545 S
C160 H152 0.950 . S
C160 C158 1.391 . S
C160 C161 1.400 . S
C161 C160 1.400 . S
C161 C162 1.398 1_545 S
C161 C167 1.491 . S
C162 H153 0.950 . S
C162 C161 1.398 1_565 S
C162 C163 1.391 . S
C163 H151 0.950 . S
C163 C159 1.393 1_565 S
C163 C162 1.391 . S
C164 H154 0.950 . S
C164 C165 1.386 1_565 S
C164 C166 1.391 . S
C165 C164 1.386 1_545 S
C165 C169 1.393 . S
C166 H155 0.950 . S
C166 C164 1.391 . S
C166 C167 1.400 1_565 S
C167 C161 1.491 . S
C167 C166 1.400 1_545 S
C167 C168 1.398 . S
C168 H156 0.950 . S
C168 C167 1.398 . S
C168 C169 1.391 . S
C169 H157 0.950 . S
C169 C165 1.393 . S
C169 C168 1.391 . S
H170 C178 0.950 1_655 S
H171 C183 0.950 . S
H172 C180 0.950 1_655 S
H173 C182 0.950 . S
H174 C184 0.950 . S
H175 C186 0.950 . S
H176 C188 0.950 . S
H177 C189 0.950 . S
C178 H170 0.950 1_455 S
C178 C179 1.386 . S
C178 C180 1.391 . S
C179 C178 1.386 . S
C179 C183 1.393 . S
C180 H172 0.950 1_455 S
C180 C178 1.391 . S
C180 C181 1.400 . S
C181 C180 1.400 . S
C181 C182 1.398 . S
C181 C187 1.491 . S
C182 H173 0.950 . S
C182 C181 1.398 . S
C182 C183 1.391 . S
C183 H171 0.950 . S
C183 C179 1.393 . S
C183 C182 1.391 . S
C184 H174 0.950 . S
C184 C185 1.386 . S
C184 C186 1.391 . S
C185 C184 1.386 . S
C185 C189 1.393 . S
C186 H175 0.950 . S
C186 C184 1.391 . S
C186 C187 1.400 . S
C187 C181 1.491 . S
C187 C186 1.400 . S
C187 C188 1.398 . S
C188 H176 0.950 . S
C188 C187 1.398 . S
C188 C189 1.391 . S
C189 H177 0.950 . S
C189 C185 1.393 . S
C189 C188 1.391 . S
H190 C198 0.950 . S
H191 C203 0.950 . S
H192 C200 0.950 . S
H193 C202 0.950 . S
H194 C204 0.950 . S
H195 C206 0.950 . S
H196 C208 0.950 . S
H197 C209 0.950 . S
C198 H190 0.950 . S
C198 C199 1.386 1_565 S
C198 C200 1.391 . S
C199 C198 1.386 1_545 S
C199 C203 1.393 . S
C200 H192 0.950 . S
C200 C198 1.391 . S
C200 C201 1.400 1_565 S
C201 C200 1.400 1_545 S
C201 C202 1.398 . S
C201 C207 1.491 . S
C202 H193 0.950 . S
C202 C201 1.398 . S
C202 C203 1.391 . S
C203 H191 0.950 . S
C203 C199 1.393 . S
C203 C202 1.391 . S
C204 H194 0.950 . S
C204 C205 1.386 . S
C204 C206 1.391 . S
C205 C204 1.386 . S
C205 C209 1.393 1_545 S
C206 H195 0.950 . S
C206 C204 1.391 . S
C206 C207 1.400 . S
C207 C201 1.491 . S
C207 C206 1.400 . S
C207 C208 1.398 1_545 S
C208 H196 0.950 . S
C208 C207 1.398 1_565 S
C208 C209 1.391 . S
C209 H197 0.950 . S
C209 C205 1.393 1_565 S
C209 C208 1.391 . S
H210 C218 0.950 . S
H211 C223 0.950 . S
H212 C220 0.950 . S
H213 C222 0.950 . S
H214 C224 0.950 . S
H215 C226 0.950 . S
H216 C228 0.950 . S
H217 C229 0.950 . S
C218 H210 0.950 . S
C218 C219 1.386 . S
C218 C220 1.391 . S
C219 C218 1.386 . S
C219 C223 1.393 . S
C220 H212 0.950 . S
C220 C218 1.391 . S
C220 C221 1.400 . S
C221 C220 1.400 . S
C221 C222 1.398 . S
C221 C227 1.491 . S
C222 H213 0.950 . S
C222 C221 1.398 . S
C222 C223 1.391 . S
C223 H211 0.950 . S
C223 C219 1.393 . S
C223 C222 1.391 . S
C224 H214 0.950 . S
C224 C225 1.386 . S
C224 C226 1.391 . S
C225 C224 1.386 . S
C225 C229 1.393 . S
C226 H215 0.950 . S
C226 C224 1.391 . S
C226 C227 1.400 . S
C227 C221 1.491 . S
C227 C226 1.400 . S
C227 C228 1.398 . S
C228 H216 0.950 . S
C228 C227 1.398 . S
C228 C229 1.391 . S
C229 H217 0.950 . S
C229 C225 1.393 . S
C229 C228 1.391 . S
C85 C47 1.307 . S
C79 C17 1.485 1_565 S
C105 C67 1.514 . S
C99 C40 1.493 . S
C125 C46 1.498 . S
C119 C9 1.468 . S
C145 C68 1.548 . S
C139 C33 1.435 . S
C165 C60 1.495 . S
C159 C19 1.479 . S
C185 C53 1.535 . S
C179 C38 1.476 . S
C205 C61 1.294 . S
C199 C12 1.456 . S
C219 C30 1.487 . S
C225 C54 1.557 . S
