# Generated by pormake.
# Topology pth, (4,4)-cn, num edge types: 1
# Building blocks:
#     Node 0, Type 0, BuildingBlock: GALJAG_clean_sbu_0, # of connection points: 4
#     Node 1, Type 0, BuildingBlock: GALJAG_clean_sbu_0, # of connection points: 4
#     Node 2, Type 0, BuildingBlock: GALJAG_clean_sbu_0, # of connection points: 4
#     Node 3, Type 1, BuildingBlock: MUDLON_clean_linker_0, # of connection points: 4
#     Node 4, Type 1, BuildingBlock: MUDLON_clean_linker_0, # of connection points: 4
#     Node 5, Type 1, BuildingBlock: MUDLON_clean_linker_0, # of connection points: 4
#     Edge 6, Type (0, 1), None
#     Edge 7, Type (0, 1), None
#     Edge 8, Type (0, 1), None
#     Edge 9, Type (0, 1), None
#     Edge 10, Type (0, 1), None
#     Edge 11, Type (0, 1), None
#     Edge 12, Type (0, 1), None
#     Edge 13, Type (0, 1), None
#     Edge 14, Type (0, 1), None
#     Edge 15, Type (0, 1), None
#     Edge 16, Type (0, 1), None
#     Edge 17, Type (0, 1), None
# Relax obj value: 0.021
# Max RMSD: 0.066
# Mean RMSD: 0.062
data_MOF--net-pth--node1-GALJAG_clean_sbu_0--node2-MUDLON_clean_linker_0--edge1-none
_symmetry_space_group_name_H-M    P1
_symmetry_Int_Tables_number       1
_symmetry_cell_setting            triclinic
loop_
_symmetry_equiv_pos_as_xyz
'x, y, z'
_cell_length_a     20.420052
_cell_length_b     20.421809
_cell_length_c     37.96851
_cell_angle_alpha  90.078897
_cell_angle_beta   90.079829
_cell_angle_gamma 120.01118
loop_
_atom_site_label
_atom_site_type_symbol
_atom_site_fract_x
_atom_site_fract_y
_atom_site_fract_z
_atom_type_partial_charge
In0 In 0.98476 0.00241 0.03869 0.0
O1 O 0.94569 0.07439 0.0687 0.0
O2 O 0.05635 0.09233 0.07841 0.0
C3 C 0.87939 0.91928 0.99034 0.0
C4 C 0.09097 0.08593 0.99099 0.0
C5 C 0.96143 0.89441 0.08568 0.0
O6 O 0.87407 0.96757 1.0093 0.0
O7 O 0.93644 0.91244 0.99655 0.0
O8 O 0.02318 0.93027 0.06903 0.0
O9 O 0.91236 0.91237 0.07797 0.0
C10 C 0.0071 0.11025 0.08575 0.0
O11 O 0.0959 0.03737 0.00984 0.0
O12 O 0.03389 0.09282 0.997 0.0
In13 In 0.98391 0.00339 0.37198 0.0
O14 O 0.05971 0.1141 0.34282 0.0
O15 O 0.94213 0.05177 0.33004 0.0
C16 C 0.0695 0.98116 0.41899 0.0
C17 C 0.89921 0.02658 0.41904 0.0
C18 C 0.9612 0.89729 0.32398 0.0
O19 O 0.095 0.04256 0.40209 0.0
O20 O 0.00234 0.93184 0.41151 0.0
O21 O 0.90771 0.89228 0.34287 0.0
O22 O 0.02517 0.95439 0.3301 0.0
C23 C 0.00603 0.10883 0.32392 0.0
O24 O 0.87335 0.96484 0.40226 0.0
O25 O 0.96623 0.07571 0.41142 0.0
In26 In 0.98552 0.00418 0.70538 0.0
O27 O 0.91333 0.89304 0.73515 0.0
O28 O 0.89539 0.98576 0.74479 0.0
C29 C 0.06902 0.98222 0.65731 0.0
C30 C 0.90226 0.02692 0.65738 0.0
C31 C 0.09327 0.08868 0.75273 0.0
O32 O 0.02057 0.9285 0.67606 0.0
O33 O 0.07583 0.04609 0.66358 0.0
O34 O 0.05756 0.11465 0.73595 0.0
O35 O 0.07527 0.02163 0.74497 0.0
C36 C 0.87741 0.91856 0.75208 0.0
O37 O 0.9507 0.0804 0.67641 0.0
O38 O 0.89536 0.96295 0.66336 0.0
H39 H 0.81372 0.68238 0.25607 0.0
N40 N 0.91209 0.70453 0.20509 0.0
H41 H 0.83274 0.76425 0.30715 0.0
H42 H 0.04452 0.83086 0.22432 0.0
H43 H 0.06431 0.911 0.27515 0.0
H44 H 0.04233 0.77754 0.16577 0.0
H45 H 0.06268 0.85858 0.11471 0.0
H46 H 0.81058 0.72608 0.1718 0.0
H47 H 0.83028 0.80675 0.12081 0.0
H48 H 0.82547 0.56119 0.18631 0.0
H49 H 0.04953 0.71964 0.22381 0.0
H50 H 0.85855 0.4614 0.18511 0.0
H51 H 0.08196 0.62037 0.22406 0.0
H52 H 0.92214 0.17405 0.22403 0.0
H53 H 0.90267 0.09432 0.27486 0.0
H54 H 0.13412 0.24199 0.30734 0.0
H55 H 0.15279 0.32343 0.25628 0.0
H56 H 0.15658 0.27953 0.17232 0.0
H57 H 0.13777 0.19865 0.12138 0.0
H58 H 0.90502 0.14543 0.11423 0.0
H59 H 0.92447 0.22666 0.16527 0.0
H60 H 0.91643 0.28487 0.22309 0.0
H61 H 0.88373 0.38399 0.2234 0.0
H62 H 0.10746 0.54349 0.18555 0.0
N63 N 0.05431 0.30052 0.20508 0.0
H64 H 0.14077 0.44388 0.18671 0.0
C65 C 0.92753 0.74981 0.23651 0.0
C66 C 0.86873 0.73177 0.26048 0.0
C67 C 0.87962 0.77855 0.28951 0.0
C68 C 0.94999 0.84397 0.29514 0.0
C69 C 0.00948 0.86077 0.27165 0.0
C70 C -0.0017 0.81461 0.24252 0.0
C71 C 0.92455 0.74573 0.17265 0.0
C72 C -0.00454 0.78267 0.15583 0.0
C73 C 0.0071 0.82901 0.1266 0.0
C74 C 0.94823 0.83934 0.11388 0.0
C75 C 0.87689 0.80016 0.13003 0.0
C76 C 0.86535 0.75393 0.15908 0.0
C77 C 0.93427 0.64766 0.2054 0.0
C78 C 0.88152 0.57421 0.19457 0.0
C79 C 0.90045 0.51727 0.19412 0.0
C80 C 0.97289 0.53268 0.20465 0.0
C81 C 0.02596 0.60661 0.21537 0.0
C82 C 0.00708 0.6636 0.21558 0.0
C83 C 0.03902 0.25551 0.23649 0.0
C84 C 0.96838 0.19059 0.24235 0.0
C85 C 0.95738 0.14466 0.27147 0.0
C86 C 0.01696 0.16185 0.29508 0.0
C87 C 0.08718 0.2274 0.2896 0.0
C88 C 0.09787 0.27394 0.26058 0.0
C89 C 0.04237 0.25922 0.17264 0.0
C90 C 0.10193 0.25134 0.15938 0.0
C91 C 0.0909 0.20498 0.13036 0.0
C92 C 0.01972 0.16537 0.11393 0.0
C93 C 0.96048 0.17535 0.12634 0.0
C94 C 0.9716 0.2218 0.15555 0.0
C95 C 0.03185 0.35717 0.20526 0.0
C96 C 0.95887 0.341 0.21511 0.0
C97 C 0.93984 0.3979 0.21493 0.0
C98 C -0.00704 0.47194 0.20458 0.0
C99 C 0.06553 0.48753 0.1943 0.0
C100 C 0.0846 0.43069 0.19472 0.0
H101 H 0.83509 0.1744 0.58967 0.0
N102 N 0.75865 0.07591 0.53855 0.0
H103 H 0.89793 0.15544 0.64074 0.0
H104 H 0.75238 0.94347 0.55757 0.0
H105 H 0.8127 0.92374 0.60838 0.0
H106 H 0.70152 0.94558 0.49902 0.0
H107 H 0.76223 0.92523 0.44792 0.0
H108 H 0.88159 0.17746 0.50541 0.0
H109 H 0.94256 0.15776 0.45438 0.0
H110 H 0.70207 0.16268 0.52006 0.0
H111 H 0.6362 0.93847 0.55687 0.0
H112 H 0.56922 0.12973 0.51881 0.0
H113 H 0.50452 0.90616 0.55708 0.0
H114 H 0.21826 0.06629 0.55763 0.0
H115 H 0.15797 0.08568 0.60852 0.0
H116 H 0.0741 0.85419 0.64039 0.0
H117 H 0.13688 0.83561 0.58927 0.0
H118 H 0.0893 0.83181 0.50529 0.0
H119 H 0.02728 0.85052 0.45433 0.0
H120 H 0.20665 0.08337 0.44778 0.0
H121 H 0.26837 0.06401 0.49884 0.0
H122 H 0.33481 0.07193 0.55668 0.0
H123 H 0.46663 0.10453 0.55704 0.0
H124 H 0.40215 0.88086 0.51856 0.0
N125 N 0.21247 0.93415 0.53832 0.0
H126 H 0.26925 0.84765 0.51968 0.0
C127 C 0.78851 0.06052 0.56995 0.0
C128 C 0.82937 0.11938 0.594 0.0
C129 C 0.86525 0.10852 0.62303 0.0
C130 C 0.86019 0.03813 0.62854 0.0
C131 C 0.81739 0.97858 0.60497 0.0
C132 C 0.78242 0.98974 0.57585 0.0
C133 C 0.78738 0.06342 0.50609 0.0
C134 C 0.75347 0.99247 0.48915 0.0
C135 C 0.78819 0.98083 0.4599 0.0
C136 C 0.85731 0.03974 0.44727 0.0
C137 C 0.88942 0.11112 0.46353 0.0
C138 C 0.85472 0.12266 0.49261 0.0
C139 C 0.67961 0.05379 0.53882 0.0
C140 C 0.65899 0.10663 0.52816 0.0
C141 C 0.58313 0.08777 0.52768 0.0
C142 C 0.52603 0.01532 0.53801 0.0
C143 C 0.54681 0.96217 0.54855 0.0
C144 C 0.62267 0.98098 0.54879 0.0
C145 C 0.18277 0.9494 0.56978 0.0
C146 C 0.18852 0.02003 0.57583 0.0
C147 C 0.15359 0.03098 0.60499 0.0
C148 C 0.11116 0.97136 0.62844 0.0
C149 C 0.10648 0.90116 0.62278 0.0
C150 C 0.14232 0.89051 0.59372 0.0
C151 C 0.1831 0.94608 0.50591 0.0
C152 C 0.11572 0.88646 0.49248 0.0
C153 C 0.08043 0.89744 0.46345 0.0
C154 C 0.11198 0.96861 0.44718 0.0
C155 C 0.18113 0.02791 0.45977 0.0
C156 C 0.21642 0.01685 0.48899 0.0
C157 C 0.29158 0.95655 0.53853 0.0
C158 C 0.34845 0.02949 0.54857 0.0
C159 C 0.42437 0.04846 0.54843 0.0
C160 C 0.44523 -0.00468 0.53791 0.0
C161 C 0.38819 0.92281 0.52744 0.0
C162 C 0.31229 0.90379 0.52783 0.0
H163 H 0.6646 0.85129 0.92233 0.0
N164 N 0.68745 0.77581 0.87112 0.0
H165 H 0.74611 0.91404 0.97356 0.0
H166 H 0.81429 0.77066 0.89014 0.0
H167 H 0.8941 0.8309 0.94113 0.0
H168 H 0.76104 0.71962 0.83141 0.0
H169 H 0.84214 0.78129 0.7805 0.0
H170 H 0.7082 0.89886 0.83829 0.0
H171 H 0.78896 0.96082 0.78747 0.0
H172 H 0.54364 0.71851 0.8531 0.0
H173 H 0.70369 0.65389 0.88901 0.0
H174 H 0.44404 0.58552 0.85234 0.0
H175 H 0.60463 0.52203 0.8897 0.0
H176 H 0.1575 0.23593 0.89155 0.0
H177 H 0.07743 0.17561 0.94223 0.0
H178 H 0.22392 0.09041 0.9744 0.0
H179 H 0.30573 0.15325 0.92347 0.0
H180 H 0.26148 0.10606 0.83925 0.0
H181 H 0.18067 0.04502 0.78813 0.0
H182 H 0.12924 0.22581 0.78181 0.0
H183 H 0.21043 0.28658 0.83302 0.0
H184 H 0.26897 0.352 0.89134 0.0
H185 H 0.36825 0.48373 0.89122 0.0
H186 H 0.52619 0.4188 0.85175 0.0
N187 N 0.28352 0.22944 0.87245 0.0
H188 H 0.42644 0.28593 0.85333 0.0
C189 C 0.73268 0.80577 0.90255 0.0
C190 C 0.7142 0.84604 0.92667 0.0
C191 C 0.76077 0.88186 0.95579 0.0
C192 C 0.8264 0.87732 0.96134 0.0
C193 C 0.84368 0.83515 0.93769 0.0
C194 C 0.79773 0.80025 0.90847 0.0
C195 C 0.72851 0.80497 0.8387 0.0
C196 C 0.76585 0.77158 0.82167 0.0
C197 C 0.81224 0.80685 0.79253 0.0
C198 C 0.82223 0.87605 0.78013 0.0
C199 C 0.78264 0.90764 0.79646 0.0
C200 C 0.73634 0.87237 0.8254 0.0
C201 C 0.63089 0.69666 0.87137 0.0
C202 C 0.55707 0.67566 0.86107 0.0
C203 C 0.50024 0.59972 0.86089 0.0
C204 C 0.51613 0.54294 0.87116 0.0
C205 C 0.59047 0.56408 0.88125 0.0
C206 C 0.64735 0.64003 0.8812 0.0
C207 C 0.23843 0.19981 0.90385 0.0
C208 C 0.17372 0.20591 0.90977 0.0
C209 C 0.1276 0.17094 0.93881 0.0
C210 C 0.14433 0.12812 0.96229 0.0
C211 C 0.20968 0.1231 0.95677 0.0
C212 C 0.25643 0.15899 0.92782 0.0
C213 C 0.24206 0.20051 0.84 0.0
C214 C 0.23368 0.133 0.82647 0.0
C215 C 0.18736 0.09826 0.79734 0.0
C216 C 0.14829 0.1305 0.78108 0.0
C217 C 0.15874 0.19976 0.79378 0.0
C218 C 0.20516 0.2345 0.82309 0.0
C219 C 0.34047 0.30849 0.87272 0.0
C220 C 0.3248 0.36549 0.88294 0.0
C221 C 0.38179 0.44138 0.88251 0.0
C222 C 0.45542 0.46211 0.87152 0.0
C223 C 0.47057 0.40494 0.86097 0.0
C224 C 0.41364 0.32906 0.86164 0.0
loop_
_geom_bond_atom_site_label_1
_geom_bond_atom_site_label_2
_geom_bond_distance
_geom_bond_site_symmetry_2
_ccdc_geom_bond_type
In0 O1 2.294 1_455 S
In0 O2 2.326 . S
In0 O6 2.266 1_445 S
In0 O7 2.326 1_444 S
In0 O8 2.266 1_545 S
In0 O9 2.326 1_445 S
In0 O11 2.294 . S
In0 O12 2.326 1_554 S
O1 In0 2.294 1_655 S
O1 C10 1.240 1_655 S
O2 In0 2.326 . S
O2 C10 1.252 . S
C3 O6 1.252 1_556 S
C3 O7 1.260 . S
C4 O11 1.240 1_556 S
C4 O12 1.252 . S
C5 O8 1.252 1_655 S
C5 O9 1.260 . S
O6 In0 2.266 1_665 S
O6 C3 1.252 1_554 S
O7 In0 2.326 1_666 S
O7 C3 1.260 . S
O8 In0 2.266 1_565 S
O8 C5 1.252 1_455 S
O9 In0 2.326 1_665 S
O9 C5 1.260 . S
C10 O1 1.240 1_455 S
C10 O2 1.252 . S
O11 In0 2.294 . S
O11 C4 1.240 1_554 S
O12 In0 2.326 1_556 S
O12 C4 1.252 . S
In13 O14 2.294 . S
In13 O15 2.326 1_455 S
In13 O19 2.266 . S
In13 O20 2.326 1_545 S
In13 O21 2.266 1_445 S
In13 O22 2.326 1_545 S
In13 O24 2.294 1_445 S
In13 O25 2.326 1_455 S
O14 In13 2.294 . S
O14 C23 1.240 1_455 S
O15 In13 2.326 1_655 S
O15 C23 1.252 . S
C16 O19 1.252 1_565 S
C16 O20 1.260 . S
C17 O24 1.240 1_545 S
C17 O25 1.252 . S
C18 O21 1.252 1_455 S
C18 O22 1.260 . S
O19 In13 2.266 . S
O19 C16 1.252 1_545 S
O20 In13 2.326 1_565 S
O20 C16 1.260 . S
O21 In13 2.266 1_665 S
O21 C18 1.252 1_655 S
O22 In13 2.326 1_565 S
O22 C18 1.260 . S
C23 O14 1.240 1_655 S
C23 O15 1.252 . S
O24 In13 2.294 1_665 S
O24 C17 1.240 1_565 S
O25 In13 2.326 1_655 S
O25 C17 1.252 . S
In26 O27 2.294 1_445 S
In26 O28 2.326 1_445 S
In26 O32 2.266 1_545 S
In26 O33 2.326 . S
In26 O34 2.266 . S
In26 O35 2.326 . S
In26 O37 2.294 1_455 S
In26 O38 2.326 1_445 S
O27 In26 2.294 1_665 S
O27 C36 1.240 . S
O28 In26 2.326 1_665 S
O28 C36 1.252 . S
C29 O32 1.252 1_545 S
C29 O33 1.260 . S
C30 O37 1.240 1_565 S
C30 O38 1.252 . S
C31 O34 1.252 . S
C31 O35 1.260 . S
O32 In26 2.266 1_565 S
O32 C29 1.252 1_565 S
O33 In26 2.326 . S
O33 C29 1.260 . S
O34 In26 2.266 . S
O34 C31 1.252 . S
O35 In26 2.326 . S
O35 C31 1.260 . S
C36 O27 1.240 . S
C36 O28 1.252 . S
O37 In26 2.294 1_655 S
O37 C30 1.240 1_545 S
O38 In26 2.326 1_665 S
O38 C30 1.252 . S
H39 C66 0.929 . S
N40 C65 1.433 . S
N40 C71 1.435 . S
N40 C77 1.423 . S
H41 C67 0.930 . S
H42 C70 0.931 . S
H43 C69 0.929 . S
H44 C72 0.930 . S
H45 C73 0.932 . S
H46 C76 0.929 . S
H47 C75 0.931 . S
H48 C78 0.929 . S
H49 C82 0.932 1_455 S
H50 C79 0.931 . S
H51 C81 0.929 1_455 S
H52 C84 0.929 . S
H53 C85 0.930 . S
H54 C87 0.929 . S
H55 C88 0.931 . S
H56 C90 0.930 . S
H57 C91 0.932 . S
H58 C93 0.931 . S
H59 C94 0.929 . S
H60 C96 0.929 . S
H61 C97 0.931 . S
H62 C99 0.929 1_455 S
N63 C83 1.433 . S
N63 C89 1.435 . S
N63 C95 1.423 . S
H64 C100 0.932 1_455 S
C65 N40 1.433 . S
C65 C66 1.363 . S
C65 C70 1.370 1_655 S
C66 H39 0.929 . S
C66 C65 1.363 . S
C66 C67 1.385 . S
C67 H41 0.930 . S
C67 C66 1.385 . S
C67 C68 1.357 . S
C68 C67 1.357 . S
C68 C69 1.406 1_655 S
C69 H43 0.929 . S
C69 C68 1.406 1_455 S
C69 C70 1.391 . S
C70 H42 0.931 . S
C70 C65 1.370 1_455 S
C70 C69 1.391 . S
C71 N40 1.435 . S
C71 C72 1.358 1_655 S
C71 C76 1.371 . S
C72 H44 0.930 . S
C72 C71 1.358 1_455 S
C72 C73 1.405 . S
C73 H45 0.932 . S
C73 C72 1.405 . S
C73 C74 1.383 . S
C74 C73 1.383 . S
C74 C75 1.393 1_455 S
C75 H47 0.931 . S
C75 C74 1.393 1_655 S
C75 C76 1.382 . S
C76 H46 0.929 . S
C76 C71 1.371 . S
C76 C75 1.382 . S
C77 N40 1.423 . S
C77 C78 1.362 . S
C77 C82 1.388 . S
C78 H48 0.929 . S
C78 C77 1.362 . S
C78 C79 1.376 . S
C79 H50 0.931 . S
C79 C78 1.376 . S
C79 C80 1.396 . S
C80 C79 1.396 . S
C80 C81 1.348 . S
C80 C98 1.472 . S
C81 H51 0.929 1_655 S
C81 C80 1.348 . S
C81 C82 1.443 . S
C82 H49 0.932 1_655 S
C82 C77 1.388 . S
C82 C81 1.443 . S
C83 N63 1.433 . S
C83 C84 1.363 . S
C83 C88 1.370 1_655 S
C84 H52 0.929 . S
C84 C83 1.363 . S
C84 C85 1.385 . S
C85 H53 0.930 . S
C85 C84 1.385 . S
C85 C86 1.357 . S
C86 C85 1.357 . S
C86 C87 1.406 1_655 S
C87 H54 0.929 . S
C87 C86 1.406 1_455 S
C87 C88 1.391 . S
C88 H55 0.931 . S
C88 C83 1.370 1_455 S
C88 C87 1.391 . S
C89 N63 1.435 . S
C89 C90 1.358 1_655 S
C89 C94 1.371 . S
C90 H56 0.930 . S
C90 C89 1.358 1_455 S
C90 C91 1.405 . S
C91 H57 0.932 . S
C91 C90 1.405 . S
C91 C92 1.384 . S
C92 C91 1.384 . S
C92 C93 1.392 1_455 S
C93 H58 0.931 . S
C93 C92 1.392 1_655 S
C93 C94 1.382 . S
C94 H59 0.929 . S
C94 C89 1.371 . S
C94 C93 1.382 . S
C95 N63 1.423 . S
C95 C96 1.362 . S
C95 C100 1.388 . S
C96 H60 0.929 . S
C96 C95 1.362 . S
C96 C97 1.376 . S
C97 H61 0.931 . S
C97 C96 1.376 . S
C97 C98 1.396 . S
C98 C80 1.472 . S
C98 C97 1.396 . S
C98 C99 1.348 . S
C99 H62 0.929 1_655 S
C99 C98 1.348 . S
C99 C100 1.443 . S
C100 H64 0.932 1_655 S
C100 C95 1.388 . S
C100 C99 1.443 . S
H101 C128 0.929 . S
N102 C127 1.433 . S
N102 C133 1.435 . S
N102 C139 1.423 . S
H103 C129 0.930 . S
H104 C132 0.931 . S
H105 C131 0.929 . S
H106 C134 0.930 . S
H107 C135 0.932 . S
H108 C138 0.929 . S
H109 C137 0.931 . S
H110 C140 0.929 . S
H111 C144 0.932 1_565 S
H112 C141 0.931 . S
H113 C143 0.929 1_565 S
H114 C146 0.929 . S
H115 C147 0.930 . S
H116 C149 0.929 . S
H117 C150 0.931 . S
H118 C152 0.930 . S
H119 C153 0.932 . S
H120 C155 0.931 . S
H121 C156 0.929 . S
H122 C158 0.929 . S
H123 C159 0.931 . S
H124 C161 0.929 1_565 S
N125 C145 1.433 . S
N125 C151 1.435 . S
N125 C157 1.423 . S
H126 C162 0.932 1_565 S
C127 N102 1.433 . S
C127 C128 1.363 . S
C127 C132 1.370 1_545 S
C128 H101 0.929 . S
C128 C127 1.363 . S
C128 C129 1.385 . S
C129 H103 0.930 . S
C129 C128 1.385 . S
C129 C130 1.357 . S
C130 C129 1.357 . S
C130 C131 1.406 1_545 S
C131 H105 0.929 . S
C131 C130 1.406 1_565 S
C131 C132 1.391 . S
C132 H104 0.931 . S
C132 C127 1.370 1_565 S
C132 C131 1.391 . S
C133 N102 1.435 . S
C133 C134 1.358 1_545 S
C133 C138 1.371 . S
C134 H106 0.930 . S
C134 C133 1.358 1_565 S
C134 C135 1.405 . S
C135 H107 0.932 . S
C135 C134 1.405 . S
C135 C136 1.383 1_565 S
C136 C135 1.383 1_545 S
C136 C137 1.393 . S
C137 H109 0.931 . S
C137 C136 1.393 . S
C137 C138 1.382 . S
C138 H108 0.929 . S
C138 C133 1.371 . S
C138 C137 1.382 . S
C139 N102 1.423 . S
C139 C140 1.362 . S
C139 C144 1.388 . S
C140 H110 0.929 . S
C140 C139 1.362 . S
C140 C141 1.376 . S
C141 H112 0.931 . S
C141 C140 1.376 . S
C141 C142 1.396 . S
C142 C141 1.396 . S
C142 C143 1.348 . S
C142 C160 1.472 . S
C143 H113 0.929 1_545 S
C143 C142 1.348 . S
C143 C144 1.443 . S
C144 H111 0.932 1_545 S
C144 C139 1.388 . S
C144 C143 1.443 . S
C145 N125 1.433 . S
C145 C146 1.363 . S
C145 C150 1.370 1_545 S
C146 H114 0.929 . S
C146 C145 1.363 . S
C146 C147 1.385 . S
C147 H115 0.930 . S
C147 C146 1.385 . S
C147 C148 1.357 . S
C148 C147 1.357 . S
C148 C149 1.406 1_545 S
C149 H116 0.929 . S
C149 C148 1.406 1_565 S
C149 C150 1.391 . S
C150 H117 0.931 . S
C150 C145 1.370 1_565 S
C150 C149 1.391 . S
C151 N125 1.435 . S
C151 C152 1.358 1_545 S
C151 C156 1.371 . S
C152 H118 0.930 . S
C152 C151 1.358 1_565 S
C152 C153 1.405 . S
C153 H119 0.932 . S
C153 C152 1.405 . S
C153 C154 1.383 1_565 S
C154 C153 1.383 1_545 S
C154 C155 1.393 . S
C155 H120 0.931 . S
C155 C154 1.393 . S
C155 C156 1.382 . S
C156 H121 0.929 . S
C156 C151 1.371 . S
C156 C155 1.382 . S
C157 N125 1.423 . S
C157 C158 1.362 . S
C157 C162 1.388 . S
C158 H122 0.929 . S
C158 C157 1.362 . S
C158 C159 1.376 . S
C159 H123 0.931 . S
C159 C158 1.376 . S
C159 C160 1.396 . S
C160 C142 1.472 . S
C160 C159 1.396 . S
C160 C161 1.348 . S
C161 H124 0.929 1_545 S
C161 C160 1.348 . S
C161 C162 1.443 . S
C162 H126 0.932 1_545 S
C162 C157 1.388 . S
C162 C161 1.443 . S
H163 C190 0.929 . S
N164 C189 1.433 . S
N164 C195 1.435 . S
N164 C201 1.423 . S
H165 C191 0.930 . S
H166 C194 0.931 . S
H167 C193 0.929 . S
H168 C196 0.930 . S
H169 C197 0.932 . S
H170 C200 0.929 . S
H171 C199 0.931 . S
H172 C202 0.929 . S
H173 C206 0.932 . S
H174 C203 0.931 . S
H175 C205 0.929 . S
H176 C208 0.929 . S
H177 C209 0.930 . S
H178 C211 0.929 . S
H179 C212 0.931 . S
H180 C214 0.930 . S
H181 C215 0.932 . S
H182 C217 0.931 . S
H183 C218 0.929 . S
H184 C220 0.929 . S
H185 C221 0.931 . S
H186 C223 0.929 . S
N187 C207 1.433 . S
N187 C213 1.435 . S
N187 C219 1.423 . S
H188 C224 0.932 . S
C189 N164 1.433 . S
C189 C190 1.363 . S
C189 C194 1.370 . S
C190 H163 0.929 . S
C190 C189 1.363 . S
C190 C191 1.385 . S
C191 H165 0.930 . S
C191 C190 1.385 . S
C191 C192 1.357 . S
C192 C191 1.357 . S
C192 C193 1.406 . S
C193 H167 0.929 . S
C193 C192 1.406 . S
C193 C194 1.391 . S
C194 H166 0.931 . S
C194 C189 1.370 . S
C194 C193 1.391 . S
C195 N164 1.435 . S
C195 C196 1.358 . S
C195 C200 1.371 . S
C196 H168 0.930 . S
C196 C195 1.358 . S
C196 C197 1.405 . S
C197 H169 0.932 . S
C197 C196 1.405 . S
C197 C198 1.383 . S
C198 C197 1.383 . S
C198 C199 1.393 . S
C199 H171 0.931 . S
C199 C198 1.393 . S
C199 C200 1.382 . S
C200 H170 0.929 . S
C200 C195 1.371 . S
C200 C199 1.382 . S
C201 N164 1.423 . S
C201 C202 1.362 . S
C201 C206 1.388 . S
C202 H172 0.929 . S
C202 C201 1.362 . S
C202 C203 1.376 . S
C203 H174 0.931 . S
C203 C202 1.376 . S
C203 C204 1.396 . S
C204 C203 1.396 . S
C204 C205 1.348 . S
C204 C222 1.472 . S
C205 H175 0.929 . S
C205 C204 1.348 . S
C205 C206 1.443 . S
C206 H173 0.932 . S
C206 C201 1.388 . S
C206 C205 1.443 . S
C207 N187 1.433 . S
C207 C208 1.363 . S
C207 C212 1.370 . S
C208 H176 0.929 . S
C208 C207 1.363 . S
C208 C209 1.385 . S
C209 H177 0.930 . S
C209 C208 1.385 . S
C209 C210 1.357 . S
C210 C209 1.357 . S
C210 C211 1.406 . S
C211 H178 0.929 . S
C211 C210 1.406 . S
C211 C212 1.391 . S
C212 H179 0.931 . S
C212 C207 1.370 . S
C212 C211 1.391 . S
C213 N187 1.435 . S
C213 C214 1.358 . S
C213 C218 1.371 . S
C214 H180 0.930 . S
C214 C213 1.358 . S
C214 C215 1.405 . S
C215 H181 0.932 . S
C215 C214 1.405 . S
C215 C216 1.383 . S
C216 C215 1.383 . S
C216 C217 1.393 . S
C217 H182 0.931 . S
C217 C216 1.393 . S
C217 C218 1.382 . S
C218 H183 0.929 . S
C218 C213 1.371 . S
C218 C217 1.382 . S
C219 N187 1.423 . S
C219 C220 1.362 . S
C219 C224 1.388 . S
C220 H184 0.929 . S
C220 C219 1.362 . S
C220 C221 1.376 . S
C221 H185 0.931 . S
C221 C220 1.376 . S
C221 C222 1.396 . S
C222 C204 1.472 . S
C222 C221 1.396 . S
C222 C223 1.348 . S
C223 H186 0.929 . S
C223 C222 1.348 . S
C223 C224 1.443 . S
C224 H188 0.932 . S
C224 C219 1.388 . S
C224 C223 1.443 . S
C92 C10 1.747 . S
C17 C136 1.737 . S
C36 C198 1.743 . S
C5 C74 1.723 1_655 S
C154 C16 1.734 1_545 S
C31 C216 1.725 . S
C130 C30 1.741 1_545 S
C3 C192 1.739 . S
C68 C18 1.746 1_655 S
C148 C29 1.727 . S
C210 C4 1.724 . S
C23 C86 1.723 . S
