# Generated by pormake.
# Topology pth, (4,4)-cn, num edge types: 1
# Building blocks:
#     Node 0, Type 0, BuildingBlock: QUQFOY_clean_sbu_3, # of connection points: 4
#     Node 1, Type 0, BuildingBlock: QUQFOY_clean_sbu_3, # of connection points: 4
#     Node 2, Type 0, BuildingBlock: QUQFOY_clean_sbu_3, # of connection points: 4
#     Node 3, Type 1, BuildingBlock: NAWXER_clean_linker_0, # of connection points: 4
#     Node 4, Type 1, BuildingBlock: NAWXER_clean_linker_0, # of connection points: 4
#     Node 5, Type 1, BuildingBlock: NAWXER_clean_linker_0, # of connection points: 4
#     Edge 6, Type (0, 1), None
#     Edge 7, Type (0, 1), None
#     Edge 8, Type (0, 1), None
#     Edge 9, Type (0, 1), None
#     Edge 10, Type (0, 1), None
#     Edge 11, Type (0, 1), None
#     Edge 12, Type (0, 1), None
#     Edge 13, Type (0, 1), None
#     Edge 14, Type (0, 1), None
#     Edge 15, Type (0, 1), None
#     Edge 16, Type (0, 1), None
#     Edge 17, Type (0, 1), None
# Relax obj value: 0.008
# Max RMSD: 0.060
# Mean RMSD: 0.041
data_MOF--net-pth--node1-QUQFOY_clean_sbu_3--node2-NAWXER_clean_linker_0--edge1-none
_symmetry_space_group_name_H-M    P1
_symmetry_Int_Tables_number       1
_symmetry_cell_setting            triclinic
loop_
_symmetry_equiv_pos_as_xyz
'x, y, z'
_cell_length_a     16.461745
_cell_length_b     16.330353
_cell_length_c     35.842042
_cell_angle_alpha  90.143872
_cell_angle_beta   90.569458
_cell_angle_gamma 120.90516
loop_
_atom_site_label
_atom_site_type_symbol
_atom_site_fract_x
_atom_site_fract_y
_atom_site_fract_z
_atom_type_partial_charge
C0 C 0.9239 0.19435 0.0927 0.0
O1 O 0.87088 0.18456 0.065 0.0
Cd2 Cd 0.85778 0.09384 0.01006 0.0
O3 O -0.0318 0.14954 0.09357 0.0
Cd4 Cd -0.02411 0.02896 0.05461 0.0
C5 C 0.09201 0.19039 0.98819 0.0
O6 O 0.81662 0.93596 0.02717 0.0
O7 O 0.92678 0.92054 1.00179 0.0
O8 O 0.94114 0.93649 0.11066 0.0
C9 C 0.83955 0.89265 1.00393 0.0
O10 O 0.01097 0.17728 0.97942 0.0
C11 C 0.01031 0.9231 0.1085 0.0
O12 O 0.10246 0.14993 0.01666 0.0
O13 O 0.06689 0.9625 0.08158 0.0
C14 C 0.20873 0.11516 0.42668 0.0
O15 O 0.25692 0.17916 0.40292 0.0
Cd16 Cd 0.18712 0.20028 0.34758 0.0
O17 O 0.11874 0.06909 0.42489 0.0
Cd18 Cd -0.00968 0.06652 0.38796 0.0
C19 C 0.05635 0.96046 0.32478 0.0
O20 O 0.06164 0.22639 0.36262 0.0
O21 O 0.93596 0.11639 0.33404 0.0
O22 O 0.93129 0.0969 0.44473 0.0
C23 C -0.00097 0.20403 0.33724 0.0
O24 O 0.12466 0.04441 0.31814 0.0
C25 C 0.84818 0.02483 0.44162 0.0
O26 O -0.00352 0.94567 0.3501 0.0
O27 O 0.83135 0.96965 0.41373 0.0
C28 C 0.83726 0.0716 0.67842 0.0
O29 O 0.85262 0.13061 0.70458 0.0
Cd30 Cd 0.95031 0.15357 0.7581 0.0
O31 O 0.88222 0.02743 0.67745 0.0
Cd32 Cd 0.01015 0.02581 0.71339 0.0
C33 C 0.8516 0.91617 0.78114 0.0
O34 O 0.10204 0.18703 0.73891 0.0
O35 O 0.12047 0.07922 0.76592 0.0
O36 O 0.09972 0.06343 0.6567 0.0
C37 C 0.14596 0.16655 0.76292 0.0
O38 O 0.86673 -0.00073 0.78852 0.0
C39 C 0.11231 -0.00692 0.65769 0.0
O40 O 0.8911 0.90199 0.75344 0.0
O41 O 0.07365 0.93429 0.68425 0.0
C42 C 0.93076 0.25042 0.28421 0.0
C43 C 0.00275 0.27575 0.31117 0.0
C44 C 0.93344 0.31919 0.26022 0.0
C45 C 0.00885 0.41408 0.26251 0.0
C46 C 0.07814 0.37066 0.31325 0.0
C47 C 0.08093 0.43906 0.28924 0.0
C48 C 0.00993 0.49033 0.24007 0.0
C49 C 0.00958 0.28882 0.15035 0.0
C50 C 0.93715 0.26124 0.12331 0.0
C51 C 0.02727 0.35918 0.17701 0.0
C52 C -0.02811 0.40183 0.17729 0.0
C53 C 0.88021 0.30209 0.12458 0.0
C54 C 0.8975 0.37158 0.15122 0.0
C55 C -0.00365 0.48578 0.20092 0.0
C56 C 0.08452 0.82899 0.12794 0.0
C57 C 0.01932 0.8584 0.13455 0.0
C58 C 0.08526 0.75954 0.15035 0.0
C59 C 0.02194 0.71964 0.17998 0.0
C60 C 0.95694 0.81924 0.16465 0.0
C61 C 0.95797 0.75014 0.18707 0.0
C62 C 0.01945 0.64226 0.2019 0.0
C63 C -0.0205 0.78494 0.31178 0.0
C64 C 0.04984 0.87933 0.30371 0.0
C65 C -0.02522 0.70876 0.29201 0.0
C66 C 0.03961 0.72577 0.26367 0.0
C67 C 0.11626 0.89571 0.27591 0.0
C68 C 0.11141 0.81958 0.25621 0.0
C69 C 0.02887 0.64528 0.24102 0.0
H70 H 0.87144 0.17783 0.28207 0.0
H71 H 0.87546 0.29868 0.24065 0.0
H72 H 0.13472 0.39242 0.33365 0.0
H73 H 0.13935 0.51213 0.29176 0.0
H74 H 0.05486 0.25877 0.15006 0.0
H75 H 0.08637 0.38281 0.19631 0.0
H76 H 0.82347 0.28209 0.10441 0.0
H77 H 0.85403 0.40374 0.15084 0.0
H78 H 0.13294 0.85742 0.10481 0.0
H79 H 0.13473 0.73624 0.14436 0.0
H80 H 0.90554 0.84014 0.17033 0.0
H81 H 0.90727 0.71886 0.20937 0.0
H82 H 0.9279 0.76981 0.33325 0.0
H83 H 0.91899 0.63667 0.29819 0.0
H84 H 0.17204 0.9674 0.26924 0.0
H85 H 0.1631 0.83404 0.23484 0.0
N86 N 0.02466 0.56974 0.25861 0.0
N87 N 0.00285 0.56255 0.18345 0.0
C88 C 0.793 0.07668 0.49679 0.0
C89 C 0.77324 0.0102 0.46789 0.0
C90 C 0.72032 0.06907 0.51911 0.0
C91 C 0.6269 -0.00594 0.51325 0.0
C92 C 0.67996 0.93395 0.46272 0.0
C93 C 0.60743 0.92633 0.48508 0.0
C94 C 0.54738 -0.00855 0.53296 0.0
C95 C 0.73651 -0.02184 0.62303 0.0
C96 C 0.7634 0.05106 0.64994 0.0
C97 C 0.66307 0.95646 0.59746 0.0
C98 C 0.61627 0.008 0.5983 0.0
C99 C 0.71606 0.10207 0.65052 0.0
C100 C 0.64332 0.08059 0.62507 0.0
C101 C 0.53863 -0.01105 0.57211 0.0
C102 C 0.19082 0.90825 0.63229 0.0
C103 C 0.17571 -0.01467 0.63088 0.0
C104 C 0.25903 0.90713 0.60976 0.0
C105 C 0.31277 -0.01741 0.5853 0.0
C106 C 0.22796 0.05967 0.60563 0.0
C107 C 0.29662 0.05883 0.58335 0.0
C108 C 0.39255 -0.01427 0.56556 0.0
C109 C 0.35677 0.1397 0.45707 0.0
C110 C 0.25756 0.0878 0.45439 0.0
C111 C 0.40384 0.10953 0.48064 0.0
C112 C 0.35302 0.02716 0.50221 0.0
C113 C 0.20637 0.00548 0.47627 0.0
C114 C 0.25381 0.97504 0.49986 0.0
C115 C 0.40675 -0.00117 0.52677 0.0
H116 H 0.8641 0.13659 0.50137 0.0
H117 H 0.73661 0.12366 0.53998 0.0
H118 H 0.6624 0.88181 0.44065 0.0
H119 H 0.53549 0.86862 0.47983 0.0
H120 H 0.77119 0.93701 0.62206 0.0
H121 H 0.64243 0.89921 0.57739 0.0
H122 H 0.73468 0.15848 0.6708 0.0
H123 H 0.60842 0.12158 0.62616 0.0
H124 H 0.15202 0.85021 0.65156 0.0
H125 H 0.27146 0.84828 0.61205 0.0
H126 H 0.21862 0.12058 0.60411 0.0
H127 H 0.33929 0.1194 0.56564 0.0
H128 H 0.39841 0.20311 0.44059 0.0
H129 H 0.4805 0.15112 0.48215 0.0
H130 H 0.12981 0.96327 0.47454 0.0
H131 H 0.21323 0.91058 0.5159 0.0
N132 N 0.48209 -0.00174 0.51193 0.0
N133 N 0.46008 -0.01671 0.58671 0.0
C134 C 0.25317 0.21286 0.81884 0.0
C135 C 0.21748 0.23957 0.78841 0.0
C136 C 0.32004 0.28202 0.84323 0.0
C137 C 0.3522 0.37889 0.83754 0.0
C138 C 0.25041 0.33667 0.78266 0.0
C139 C 0.31776 0.40575 0.80687 0.0
C140 C 0.42417 0.45322 0.86249 0.0
C141 C 0.16287 0.2964 0.93292 0.0
C142 C 0.17453 0.25391 0.96505 0.0
C143 C 0.24088 0.35872 0.91164 0.0
C144 C 0.33192 0.37902 0.92183 0.0
C145 C 0.26579 0.274 0.97505 0.0
C146 C 0.34379 0.33647 0.95375 0.0
C147 C 0.41594 0.45157 0.90169 0.0
C148 C 0.6723 0.78443 0.98253 0.0
C149 C 0.76902 0.81649 0.97918 0.0
C150 C 0.60588 0.71269 0.95889 0.0
C151 C 0.63511 0.67268 0.93126 0.0
C152 C 0.79797 0.77498 0.95193 0.0
C153 C 0.7315 0.70344 0.92823 0.0
C154 C 0.56382 0.59766 0.90633 0.0
C155 C 0.76206 0.7417 0.79677 0.0
C156 C 0.78376 0.83538 0.80433 0.0
C157 C 0.69399 0.66555 0.81772 0.0
C158 C 0.64727 0.68187 0.84675 0.0
C159 C 0.73684 0.85127 0.83355 0.0
C160 C 0.66878 0.77527 0.8543 0.0
C161 C 0.57103 0.60049 0.86707 0.0
H162 H 0.22928 0.13853 0.82391 0.0
H163 H 0.34722 0.25995 0.86629 0.0
H164 H 0.22448 0.35939 0.75938 0.0
H165 H 0.34229 0.48029 0.80188 0.0
H166 H 0.09363 0.28278 0.92445 0.0
H167 H 0.23024 0.39302 0.88782 0.0
H168 H 0.2773 0.24263 0.99963 0.0
H169 H 0.41368 0.35222 0.96237 0.0
H170 H 0.64789 0.81474 1.00338 0.0
H171 H 0.53163 0.68936 0.96182 0.0
H172 H 0.87202 0.7978 0.94884 0.0
H173 H 0.75533 0.67197 0.90764 0.0
H174 H 0.79654 0.72697 0.77438 0.0
H175 H 0.67745 0.59376 0.81114 0.0
H176 H 0.7511 0.92233 0.83999 0.0
H177 H 0.63146 0.78943 0.87569 0.0
N178 N 0.50117 0.52784 0.84668 0.0
N179 N 0.48639 0.5236 0.92208 0.0
loop_
_geom_bond_atom_site_label_1
_geom_bond_atom_site_label_2
_geom_bond_distance
_geom_bond_site_symmetry_2
_ccdc_geom_bond_type
C0 O1 1.306 1_455 S
C0 O3 1.160 . S
O1 C0 1.306 1_655 S
O1 Cd2 2.228 . S
Cd2 O1 2.228 . S
Cd2 O6 2.273 . S
Cd2 O10 2.277 1_654 S
O3 C0 1.160 . S
O3 Cd4 2.203 . S
Cd4 O3 2.203 . S
Cd4 O6 2.411 1_455 S
Cd4 O7 2.333 1_445 S
Cd4 O8 2.352 1_445 S
Cd4 O12 2.277 . S
Cd4 O13 2.356 1_545 S
C5 O10 1.209 . S
C5 O12 1.226 1_556 S
O6 Cd2 2.273 . S
O6 Cd4 2.411 1_655 S
O6 C9 1.320 1_544 S
O7 Cd4 2.333 1_665 S
O7 C9 1.214 1_554 S
O8 Cd4 2.352 1_665 S
O8 C11 1.258 1_655 S
C9 O6 1.320 1_566 S
C9 O7 1.214 1_556 S
O10 Cd2 2.277 1_456 S
O10 C5 1.209 . S
C11 O8 1.258 1_455 S
C11 O13 1.282 . S
O12 Cd4 2.277 . S
O12 C5 1.226 1_554 S
O13 Cd4 2.356 1_565 S
O13 C11 1.282 . S
C14 O15 1.306 . S
C14 O17 1.160 . S
O15 C14 1.306 . S
O15 Cd16 2.228 . S
Cd16 O15 2.228 . S
Cd16 O20 2.273 . S
Cd16 O24 2.277 . S
O17 C14 1.160 . S
O17 Cd18 2.203 1_455 S
Cd18 O17 2.203 1_655 S
Cd18 O20 2.411 1_655 S
Cd18 O21 2.333 . S
Cd18 O22 2.352 . S
Cd18 O26 2.277 1_545 S
Cd18 O27 2.356 1_545 S
C19 O24 1.209 1_565 S
C19 O26 1.226 1_455 S
O20 Cd16 2.273 . S
O20 Cd18 2.411 1_455 S
O20 C23 1.320 . S
O21 Cd18 2.333 . S
O21 C23 1.214 1_655 S
O22 Cd18 2.352 . S
O22 C25 1.258 . S
C23 O20 1.320 . S
C23 O21 1.214 1_455 S
O24 Cd16 2.277 . S
O24 C19 1.209 1_545 S
C25 O22 1.258 . S
C25 O27 1.282 1_545 S
O26 Cd18 2.277 1_565 S
O26 C19 1.226 1_655 S
O27 Cd18 2.356 1_565 S
O27 C25 1.282 1_565 S
C28 O29 1.306 . S
C28 O31 1.160 . S
O29 C28 1.306 . S
O29 Cd30 2.228 . S
Cd30 O29 2.228 . S
Cd30 O34 2.273 1_655 S
Cd30 O38 2.277 . S
O31 C28 1.160 . S
O31 Cd32 2.203 1_655 S
Cd32 O31 2.203 1_455 S
Cd32 O34 2.411 . S
Cd32 O35 2.333 . S
Cd32 O36 2.352 . S
Cd32 O40 2.277 1_445 S
Cd32 O41 2.356 1_545 S
C33 O38 1.209 1_565 S
C33 O40 1.226 . S
O34 Cd30 2.273 1_455 S
O34 Cd32 2.411 . S
O34 C37 1.320 . S
O35 Cd32 2.333 . S
O35 C37 1.214 . S
O36 Cd32 2.352 . S
O36 C39 1.258 . S
C37 O34 1.320 . S
C37 O35 1.214 . S
O38 Cd30 2.277 . S
O38 C33 1.209 1_545 S
C39 O36 1.258 . S
C39 O41 1.282 1_545 S
O40 Cd32 2.277 1_665 S
O40 C33 1.226 . S
O41 Cd32 2.356 1_565 S
O41 C39 1.282 1_565 S
C42 C43 1.384 1_655 S
C42 C44 1.384 . S
C42 H70 0.931 . S
C43 C42 1.384 1_455 S
C43 C46 1.382 . S
C44 C42 1.384 . S
C44 C45 1.381 1_655 S
C44 H71 0.930 . S
C45 C44 1.381 1_455 S
C45 C47 1.381 . S
C45 C48 1.487 . S
C46 C43 1.382 . S
C46 C47 1.387 . S
C46 H72 0.930 . S
C47 C45 1.381 . S
C47 C46 1.387 . S
C47 H73 0.931 . S
C48 C45 1.487 . S
C48 C55 1.399 . S
C48 N86 1.343 . S
C49 C50 1.384 . S
C49 C51 1.384 . S
C49 H74 0.931 . S
C50 C49 1.384 . S
C50 C53 1.382 1_455 S
C51 C49 1.384 . S
C51 C52 1.381 . S
C51 H75 0.930 . S
C52 C51 1.381 . S
C52 C54 1.381 1_455 S
C52 C55 1.487 . S
C53 C50 1.382 1_655 S
C53 C54 1.387 . S
C53 H76 0.930 . S
C54 C52 1.381 1_655 S
C54 C53 1.387 . S
C54 H77 0.931 . S
C55 C48 1.399 . S
C55 C52 1.487 . S
C55 N87 1.343 . S
C56 C57 1.384 . S
C56 C58 1.384 . S
C56 H78 0.931 . S
C57 C56 1.384 . S
C57 C60 1.382 1_455 S
C58 C56 1.384 . S
C58 C59 1.381 . S
C58 H79 0.930 . S
C59 C58 1.381 . S
C59 C61 1.381 1_455 S
C59 C62 1.487 . S
C60 C57 1.382 1_655 S
C60 C61 1.387 . S
C60 H80 0.930 . S
C61 C59 1.381 1_655 S
C61 C60 1.387 . S
C61 H81 0.931 . S
C62 C59 1.487 . S
C62 C69 1.399 . S
C62 N87 1.343 . S
C63 C64 1.384 1_655 S
C63 C65 1.384 . S
C63 H82 0.931 . S
C64 C63 1.384 1_455 S
C64 C67 1.382 . S
C65 C63 1.384 . S
C65 C66 1.381 1_655 S
C65 H83 0.930 . S
C66 C65 1.381 1_455 S
C66 C68 1.381 . S
C66 C69 1.487 . S
C67 C64 1.382 . S
C67 C68 1.387 . S
C67 H84 0.930 . S
C68 C66 1.381 . S
C68 C67 1.387 . S
C68 H85 0.931 . S
C69 C62 1.399 . S
C69 C66 1.487 . S
C69 N86 1.343 . S
H70 C42 0.931 . S
H71 C44 0.930 . S
H72 C46 0.930 . S
H73 C47 0.931 . S
H74 C49 0.931 . S
H75 C51 0.930 . S
H76 C53 0.930 . S
H77 C54 0.931 . S
H78 C56 0.931 . S
H79 C58 0.930 . S
H80 C60 0.930 . S
H81 C61 0.931 . S
H82 C63 0.931 . S
H83 C65 0.930 . S
H84 C67 0.930 . S
H85 C68 0.931 . S
N86 C48 1.343 . S
N86 C69 1.343 . S
N87 C55 1.343 . S
N87 C62 1.343 . S
C88 C89 1.384 . S
C88 C90 1.384 . S
C88 H116 0.931 . S
C89 C88 1.384 . S
C89 C92 1.382 1_545 S
C90 C88 1.384 . S
C90 C91 1.381 . S
C90 H117 0.930 . S
C91 C90 1.381 . S
C91 C93 1.381 1_545 S
C91 C94 1.487 . S
C92 C89 1.382 1_565 S
C92 C93 1.387 . S
C92 H118 0.930 . S
C93 C91 1.381 1_565 S
C93 C92 1.387 . S
C93 H119 0.931 . S
C94 C91 1.487 . S
C94 C101 1.399 . S
C94 N132 1.343 . S
C95 C96 1.384 1_565 S
C95 C97 1.384 . S
C95 H120 0.931 . S
C96 C95 1.384 1_545 S
C96 C99 1.382 . S
C97 C95 1.384 . S
C97 C98 1.381 1_565 S
C97 H121 0.930 . S
C98 C97 1.381 1_545 S
C98 C100 1.381 . S
C98 C101 1.487 . S
C99 C96 1.382 . S
C99 C100 1.387 . S
C99 H122 0.930 . S
C100 C98 1.381 . S
C100 C99 1.387 . S
C100 H123 0.931 . S
C101 C94 1.399 . S
C101 C98 1.487 . S
C101 N133 1.343 . S
C102 C103 1.384 1_565 S
C102 C104 1.384 . S
C102 H124 0.931 . S
C103 C102 1.384 1_545 S
C103 C106 1.382 . S
C104 C102 1.384 . S
C104 C105 1.381 1_565 S
C104 H125 0.930 . S
C105 C104 1.381 1_545 S
C105 C107 1.381 . S
C105 C108 1.487 . S
C106 C103 1.382 . S
C106 C107 1.387 . S
C106 H126 0.930 . S
C107 C105 1.381 . S
C107 C106 1.387 . S
C107 H127 0.931 . S
C108 C105 1.487 . S
C108 C115 1.399 . S
C108 N133 1.343 . S
C109 C110 1.384 . S
C109 C111 1.384 . S
C109 H128 0.931 . S
C110 C109 1.384 . S
C110 C113 1.382 1_545 S
C111 C109 1.384 . S
C111 C112 1.381 . S
C111 H129 0.930 . S
C112 C111 1.381 . S
C112 C114 1.381 1_545 S
C112 C115 1.487 . S
C113 C110 1.382 1_565 S
C113 C114 1.387 . S
C113 H130 0.930 . S
C114 C112 1.381 1_565 S
C114 C113 1.387 . S
C114 H131 0.931 . S
C115 C108 1.399 . S
C115 C112 1.487 . S
C115 N132 1.343 . S
H116 C88 0.931 . S
H117 C90 0.930 . S
H118 C92 0.930 . S
H119 C93 0.931 . S
H120 C95 0.931 . S
H121 C97 0.930 . S
H122 C99 0.930 . S
H123 C100 0.931 . S
H124 C102 0.931 . S
H125 C104 0.930 . S
H126 C106 0.930 . S
H127 C107 0.931 . S
H128 C109 0.931 . S
H129 C111 0.930 . S
H130 C113 0.930 . S
H131 C114 0.931 . S
N132 C94 1.343 . S
N132 C115 1.343 . S
N133 C101 1.343 . S
N133 C108 1.343 . S
C134 C135 1.384 . S
C134 C136 1.384 . S
C134 H162 0.931 . S
C135 C134 1.384 . S
C135 C138 1.382 . S
C136 C134 1.384 . S
C136 C137 1.381 . S
C136 H163 0.930 . S
C137 C136 1.381 . S
C137 C139 1.381 . S
C137 C140 1.487 . S
C138 C135 1.382 . S
C138 C139 1.387 . S
C138 H164 0.930 . S
C139 C137 1.381 . S
C139 C138 1.387 . S
C139 H165 0.931 . S
C140 C137 1.487 . S
C140 C147 1.399 . S
C140 N178 1.343 . S
C141 C142 1.384 . S
C141 C143 1.384 . S
C141 H166 0.931 . S
C142 C141 1.384 . S
C142 C145 1.382 . S
C143 C141 1.384 . S
C143 C144 1.381 . S
C143 H167 0.930 . S
C144 C143 1.381 . S
C144 C146 1.381 . S
C144 C147 1.487 . S
C145 C142 1.382 . S
C145 C146 1.387 . S
C145 H168 0.930 . S
C146 C144 1.381 . S
C146 C145 1.387 . S
C146 H169 0.931 . S
C147 C140 1.399 . S
C147 C144 1.487 . S
C147 N179 1.343 . S
C148 C149 1.384 . S
C148 C150 1.384 . S
C148 H170 0.931 . S
C149 C148 1.384 . S
C149 C152 1.382 . S
C150 C148 1.384 . S
C150 C151 1.381 . S
C150 H171 0.930 . S
C151 C150 1.381 . S
C151 C153 1.381 . S
C151 C154 1.487 . S
C152 C149 1.382 . S
C152 C153 1.387 . S
C152 H172 0.930 . S
C153 C151 1.381 . S
C153 C152 1.387 . S
C153 H173 0.931 . S
C154 C151 1.487 . S
C154 C161 1.399 . S
C154 N179 1.343 . S
C155 C156 1.384 . S
C155 C157 1.384 . S
C155 H174 0.931 . S
C156 C155 1.384 . S
C156 C159 1.382 . S
C157 C155 1.384 . S
C157 C158 1.381 . S
C157 H175 0.930 . S
C158 C157 1.381 . S
C158 C160 1.381 . S
C158 C161 1.487 . S
C159 C156 1.382 . S
C159 C160 1.387 . S
C159 H176 0.930 . S
C160 C158 1.381 . S
C160 C159 1.387 . S
C160 H177 0.931 . S
C161 C154 1.399 . S
C161 C158 1.487 . S
C161 N178 1.343 . S
H162 C134 0.931 . S
H163 C136 0.930 . S
H164 C138 0.930 . S
H165 C139 0.931 . S
H166 C141 0.931 . S
H167 C143 0.930 . S
H168 C145 0.930 . S
H169 C146 0.931 . S
H170 C148 0.931 . S
H171 C150 0.930 . S
H172 C152 0.930 . S
H173 C153 0.931 . S
H174 C155 0.931 . S
H175 C157 0.930 . S
H176 C159 0.930 . S
H177 C160 0.931 . S
N178 C140 1.343 . S
N178 C161 1.343 . S
N179 C147 1.343 . S
N179 C154 1.343 . S
C50 C0 1.492 . S
C25 C89 1.506 . S
C33 C156 1.570 . S
C11 C57 1.435 . S
C110 C14 1.507 . S
C37 C135 1.552 . S
C96 C28 1.495 . S
C9 C149 1.538 . S
C64 C19 1.578 . S
C103 C39 1.510 . S
C142 C5 1.546 . S
C23 C43 1.589 . S
