# Generated by pormake.
# Topology scu, (8,4)-cn, num edge types: 1
# Building blocks:
#     Node 0, Type 0, BuildingBlock: GIZVER_clean_sbu_0, # of connection points: 8
#     Node 1, Type 1, BuildingBlock: IZENUY_clean_linker_0, # of connection points: 4
#     Node 2, Type 1, BuildingBlock: IZENUY_clean_linker_0, # of connection points: 4
#     Edge 3, Type (0, 1), BuildingBlock: AJUNOK_clean_linker_0, # of connection points: 2
#     Edge 4, Type (0, 1), BuildingBlock: AJUNOK_clean_linker_0, # of connection points: 2
#     Edge 5, Type (0, 1), BuildingBlock: AJUNOK_clean_linker_0, # of connection points: 2
#     Edge 6, Type (0, 1), BuildingBlock: AJUNOK_clean_linker_0, # of connection points: 2
#     Edge 7, Type (0, 1), BuildingBlock: AJUNOK_clean_linker_0, # of connection points: 2
#     Edge 8, Type (0, 1), BuildingBlock: AJUNOK_clean_linker_0, # of connection points: 2
#     Edge 9, Type (0, 1), BuildingBlock: AJUNOK_clean_linker_0, # of connection points: 2
#     Edge 10, Type (0, 1), BuildingBlock: AJUNOK_clean_linker_0, # of connection points: 2
# Relax obj value: 0.118
# Max RMSD: 0.252
# Mean RMSD: 0.210
data_MOF--net-scu--node1-GIZVER_clean_sbu_0--node2-IZENUY_clean_linker_0--edge1-AJUNOK_clean_linker_0
_symmetry_space_group_name_H-M    P1
_symmetry_Int_Tables_number       1
_symmetry_cell_setting            triclinic
loop_
_symmetry_equiv_pos_as_xyz
'x, y, z'
_cell_length_a     20.687703
_cell_length_b     21.115416
_cell_length_c     16.891244
_cell_angle_alpha  103.96281
_cell_angle_beta   77.604171
_cell_angle_gamma 109.3658
loop_
_atom_site_label
_atom_site_type_symbol
_atom_site_fract_x
_atom_site_fract_y
_atom_site_fract_z
_atom_type_partial_charge
Co0 Co 0.04953 0.96795 0.16617 0.0
Co1 Co 0.1586 0.05731 0.11212 0.0
Co2 Co 0.03988 0.04567 1.01663 0.0
O3 O 0.08628 0.99581 0.06196 0.0
H4 H 0.10206 0.96156 0.02058 0.0
O5 O 0.99405 0.09586 0.97147 0.0
Co6 Co 1.02934 0.11982 0.8652 0.0
Co7 Co 0.91996 1.03423 0.92546 0.0
H8 H 0.97992 0.13156 1.01216 0.0
O9 O 0.23175 1.03268 0.12292 0.0
O10 O 0.13391 1.03247 0.21508 0.0
O11 O 0.1681 0.1531 0.12848 0.0
O12 O 0.06162 0.13205 0.1034 0.0
O13 O 0.12869 0.07941 0.94376 0.0
O14 O 0.06109 0.14796 0.77096 0.0
O15 O 0.99524 0.19209 0.88052 0.0
O16 O 0.07441 0.05103 0.83531 0.0
O17 O 1.01716 0.95875 0.93031 0.0
O18 O 0.90878 0.93822 0.91203 0.0
O19 O 0.94259 0.05655 0.82136 0.0
O20 O 0.8475 0.06067 0.91711 0.0
C21 C 0.04906 0.89133 0.22097 0.0
C22 C 0.94812 1.02338 0.16623 0.0
C23 C 0.11454 0.17168 0.13613 0.0
C24 C 0.19808 1.03 0.19707 0.0
C25 C 1.03139 0.19491 0.80699 0.0
C26 C 0.12958 0.06381 0.86594 0.0
C27 C 0.96249 0.91914 0.9011 0.0
C28 C 0.87958 0.06211 0.84213 0.0
O29 O 1.01641 0.93582 0.25775 0.0
O30 O 0.08641 0.89722 0.14855 0.0
O31 O 0.95083 1.01195 0.0884 0.0
O32 O 1.00211 1.03487 0.19838 0.0
H33 H 0.05918 0.45233 0.39495 0.0
H34 H 1.0244 0.45551 0.65709 0.0
H35 H 0.06392 0.28089 0.48513 0.0
H36 H 1.01523 0.6394 0.64118 0.0
H37 H 0.05971 0.63631 0.37905 0.0
H38 H 1.01427 0.81024 0.54571 0.0
N39 N 1.03441 0.52926 0.54638 0.0
N40 N 0.04518 0.56301 0.49105 0.0
C41 C 0.05388 0.42787 0.44645 0.0
C42 C 0.06236 0.36261 0.43104 0.0
C43 C 0.04016 0.46182 0.52838 0.0
C44 C 1.03394 0.42919 0.59418 0.0
C45 C 0.04324 0.36421 0.579 0.0
C46 C 0.05674 0.33117 0.4973 0.0
C47 C 1.02263 0.66408 0.58928 0.0
C48 C 1.01341 0.72909 0.6032 0.0
C49 C 0.03927 0.63032 0.50808 0.0
C50 C 0.04801 0.6627 0.4414 0.0
C51 C 1.0385 0.72734 0.45455 0.0
C52 C 1.02145 0.76011 0.53546 0.0
H53 H 0.64112 1.04168 0.39592 0.0
H54 H 0.63855 0.07713 0.65848 0.0
H55 H 0.81537 1.03713 0.49129 0.0
H56 H 0.44531 0.06089 0.64054 0.0
H57 H 0.44989 1.04212 0.37982 0.0
H58 H 0.27526 0.08089 0.55279 0.0
N59 N 0.56216 0.06265 0.54638 0.0
N60 N 0.52739 0.05352 0.49053 0.0
C61 C 0.6658 0.04631 0.44835 0.0
C62 C 0.73249 1.03912 0.43516 0.0
C63 C 0.63111 0.05849 0.52955 0.0
C64 C 0.66477 0.0656 0.5964 0.0
C65 C 0.73138 0.05775 0.58347 0.0
C66 C 0.76435 0.04419 0.50249 0.0
C67 C 0.42222 0.06283 0.58971 0.0
C68 C 0.35481 0.06817 0.60439 0.0
C69 C 0.4582 0.05714 0.50831 0.0
C70 C 0.4239 0.05174 0.44242 0.0
C71 C 0.35613 0.05719 0.45734 0.0
C72 C 0.32535 0.07166 0.53915 0.0
C73 C 0.04162 0.24425 0.22473 0.0
C74 C 0.10709 0.23271 0.19964 0.0
C75 C 1.02841 0.29036 0.29707 0.0
C76 C 0.08033 0.32698 0.3464 0.0
H77 H 0.9989 0.21449 0.19117 0.0
H78 H 0.9763 0.29436 0.31705 0.0
S79 S 0.26271 0.32459 0.30328 0.0
N80 N 0.22659 0.26916 0.22617 0.0
N81 N 0.20082 0.35489 0.36208 0.0
C82 C 0.14704 0.3202 0.31924 0.0
C83 C 0.16076 0.27354 0.24568 0.0
C84 C 0.85901 0.07914 0.24497 0.0
C85 C 0.88209 1.02086 0.22042 0.0
C86 C 0.80445 0.08239 0.31016 0.0
C87 C 0.77186 1.02738 0.35203 0.0
H88 H 0.886 0.12382 0.21724 0.0
H89 H 0.79135 0.12988 0.33197 0.0
S90 S 0.80807 0.86072 0.30362 0.0
N91 N 0.86438 0.90499 0.23672 0.0
N92 N 0.76198 0.91107 0.35934 0.0
C93 C 0.7913 0.9672 0.32366 0.0
C94 C 0.84664 0.96398 0.25774 0.0
C95 C 0.98472 0.81624 0.322 0.0
C96 C 0.04517 0.83796 0.26636 0.0
C97 C 0.98242 0.77779 0.37979 0.0
C98 C 0.04053 0.75939 0.38456 0.0
H99 H 0.93945 0.83163 0.32338 0.0
H100 H 0.93541 0.76436 0.42317 0.0
S101 S 0.21089 0.80112 0.25156 0.0
N102 N 0.16393 0.83586 0.21742 0.0
N103 N 0.15966 0.76325 0.32693 0.0
C104 C 0.10036 0.77752 0.3267 0.0
C105 C 0.10264 0.81678 0.2672 0.0
C106 C 0.30941 0.06307 0.25344 0.0
C107 C 0.23692 1.03352 0.26308 0.0
C108 C 0.3478 0.06979 0.31564 0.0
C109 C 0.31556 0.04541 0.38913 0.0
H110 H 0.33673 0.08327 0.19834 0.0
H111 H 0.40284 0.09578 0.30665 0.0
S112 S 0.12769 0.95709 0.44102 0.0
N113 N 0.13468 0.97939 0.35176 0.0
N114 N 0.20723 0.98274 0.46313 0.0
C115 C 0.24343 1.0123 0.39742 0.0
C116 C 0.20404 1.00889 0.33601 0.0
C117 C 0.92332 0.83603 0.77533 0.0
C118 C 0.96742 0.85845 0.83601 0.0
C119 C 0.93637 0.79087 0.70242 0.0
C120 C 0.99333 0.76522 0.68749 0.0
H121 H 0.88092 0.85698 0.78122 0.0
H122 H 0.90334 0.7783 0.65557 0.0
S123 S 0.11846 0.79909 0.83123 0.0
N124 N 0.06609 0.84523 0.87987 0.0
N125 N 0.08971 0.75916 0.74294 0.0
C126 C 1.03422 0.78211 0.75042 0.0
C127 C 1.02155 0.82907 0.82456 0.0
C128 C 0.25578 0.11084 0.81535 0.0
C129 C 0.19329 0.05743 0.81023 0.0
C130 C 0.31237 0.11186 0.75162 0.0
C131 C 0.30811 0.05852 0.6828 0.0
H132 H 0.25899 0.15445 0.86534 0.0
H133 H 0.35735 0.15655 0.75326 0.0
S134 S 0.16004 0.9028 0.64701 0.0
N135 N 0.13306 0.94761 0.73486 0.0
N136 N 0.24043 0.94739 0.61849 0.0
C137 C 0.24843 1.00194 0.68167 0.0
C138 C 0.19054 1.00199 0.74448 0.0
C139 C 0.98175 0.27254 0.76233 0.0
C140 C 1.03803 0.24863 0.76081 0.0
C141 C 0.98454 0.31334 0.70601 0.0
C142 C 0.04377 0.33143 0.64716 0.0
H143 H 0.93404 0.25632 0.80362 0.0
H144 H 0.93904 0.3278 0.70566 0.0
S145 S 0.20841 0.29112 0.62718 0.0
N146 N 0.15724 0.2529 0.7021 0.0
N147 N 0.16228 0.32933 0.5975 0.0
C148 C 0.10174 0.31181 0.64931 0.0
C149 C 0.09892 0.27049 0.70588 0.0
C150 C 0.87504 0.09465 0.71092 0.0
C151 C 0.84078 0.06262 0.77844 0.0
C152 C 0.8387 0.09537 0.65024 0.0
C153 C 0.76701 0.06193 0.65315 0.0
H154 H 0.93024 0.11952 0.70482 0.0
H155 H 0.8673 0.12176 0.60004 0.0
S156 S 0.65467 0.96449 0.81337 0.0
N157 N 0.73167 0.99451 0.84361 0.0
N158 N 0.66421 0.99226 0.72701 0.0
C159 C 0.73239 1.0287 0.71985 0.0
C160 C 0.76909 1.02963 0.78283 0.0
loop_
_geom_bond_atom_site_label_1
_geom_bond_atom_site_label_2
_geom_bond_distance
_geom_bond_site_symmetry_2
_ccdc_geom_bond_type
Co0 O3 2.046 . S
Co0 O10 2.275 1_565 S
Co0 O29 2.287 1_455 S
Co0 O30 2.081 . S
Co0 O32 2.001 1_455 S
Co1 O3 2.122 1_545 S
Co1 O9 2.073 . S
Co1 O10 2.327 . S
Co1 O11 1.976 . S
Co2 O3 2.106 1_545 S
Co2 O5 2.068 1_454 S
Co2 O12 2.112 . S
Co2 O13 2.151 1_554 S
Co2 O17 2.110 1_444 S
Co2 O31 2.136 1_445 S
O3 Co0 2.046 . S
O3 Co1 2.122 1_565 S
O3 Co2 2.106 1_565 S
O3 H4 0.980 . S
H4 O3 0.980 . S
O5 Co2 2.068 1_656 S
O5 Co6 2.039 1_655 S
O5 Co7 2.122 1_545 S
O5 H8 0.980 . S
Co6 O5 2.039 1_455 S
Co6 O14 2.286 . S
Co6 O15 2.057 1_455 S
Co6 O16 2.030 . S
Co6 O19 2.252 1_445 S
Co7 O5 2.122 1_565 S
Co7 O18 1.976 . S
Co7 O19 2.327 . S
Co7 O20 2.073 . S
H8 O5 0.980 . S
O9 Co1 2.073 . S
O9 C24 1.245 1_545 S
O10 Co0 2.275 1_545 S
O10 Co1 2.327 . S
O10 C24 1.257 1_545 S
O11 Co1 1.976 . S
O11 C23 1.251 . S
O12 Co2 2.112 . S
O12 C23 1.274 . S
O13 Co2 2.151 1_556 S
O13 C26 1.246 . S
O14 Co6 2.286 . S
O14 C25 1.259 1_455 S
O15 Co6 2.057 1_655 S
O15 C25 1.289 . S
O16 Co6 2.030 . S
O16 C26 1.257 . S
O17 Co2 2.110 1_666 S
O17 C27 1.274 . S
O18 Co7 1.976 . S
O18 C27 1.251 . S
O19 Co6 2.252 1_665 S
O19 Co7 2.327 . S
O19 C28 1.257 1_565 S
O20 Co7 2.073 . S
O20 C28 1.245 1_565 S
C21 O29 1.259 1_455 S
C21 O30 1.289 . S
C22 O31 1.246 . S
C22 O32 1.257 . S
C23 O11 1.251 . S
C23 O12 1.274 . S
C24 O9 1.245 1_565 S
C24 O10 1.257 1_565 S
C25 O14 1.259 1_655 S
C25 O15 1.289 . S
C26 O13 1.246 . S
C26 O16 1.257 . S
C27 O17 1.274 . S
C27 O18 1.251 . S
C28 O19 1.257 1_545 S
C28 O20 1.245 1_545 S
O29 Co0 2.287 1_655 S
O29 C21 1.259 1_655 S
O30 Co0 2.081 . S
O30 C21 1.289 . S
O31 Co2 2.136 1_665 S
O31 C22 1.246 . S
O32 Co0 2.001 1_655 S
O32 C22 1.257 . S
H33 C41 0.940 . S
H34 C44 0.940 . S
H35 C46 0.940 . S
H36 C47 0.940 . S
H37 C50 0.940 . S
H38 C52 0.940 . S
N39 N40 1.190 . S
N39 C43 1.477 . S
N40 N39 1.190 . S
N40 C49 1.477 . S
C41 H33 0.940 . S
C41 C42 1.390 1_455 S
C41 C43 1.322 . S
C42 C41 1.390 1_655 S
C42 C46 1.370 . S
C43 N39 1.477 . S
C43 C41 1.322 . S
C43 C44 1.447 . S
C44 H34 0.940 . S
C44 C43 1.447 . S
C44 C45 1.373 . S
C45 C44 1.373 . S
C45 C46 1.417 1_455 S
C46 H35 0.940 . S
C46 C42 1.370 . S
C46 C45 1.417 1_655 S
C47 H36 0.940 . S
C47 C48 1.390 1_455 S
C47 C49 1.322 . S
C48 C47 1.390 1_655 S
C48 C52 1.370 . S
C49 N40 1.477 . S
C49 C47 1.322 . S
C49 C50 1.447 . S
C50 H37 0.940 . S
C50 C49 1.447 . S
C50 C51 1.373 . S
C51 C50 1.373 . S
C51 C52 1.417 1_455 S
C52 H38 0.940 . S
C52 C48 1.370 . S
C52 C51 1.417 1_655 S
H53 C61 0.940 . S
H54 C64 0.940 . S
H55 C66 0.940 . S
H56 C67 0.940 . S
H57 C70 0.940 . S
H58 C72 0.940 . S
N59 N60 1.190 . S
N59 C63 1.477 . S
N60 N59 1.190 . S
N60 C69 1.477 . S
C61 H53 0.940 . S
C61 C62 1.390 1_545 S
C61 C63 1.322 . S
C62 C61 1.390 1_565 S
C62 C66 1.370 . S
C63 N59 1.477 . S
C63 C61 1.322 . S
C63 C64 1.447 . S
C64 H54 0.940 . S
C64 C63 1.447 . S
C64 C65 1.373 . S
C65 C64 1.373 . S
C65 C66 1.417 1_545 S
C66 H55 0.940 . S
C66 C62 1.370 . S
C66 C65 1.417 1_565 S
C67 H56 0.940 . S
C67 C68 1.390 1_545 S
C67 C69 1.322 . S
C68 C67 1.390 1_565 S
C68 C72 1.370 . S
C69 N60 1.477 . S
C69 C67 1.322 . S
C69 C70 1.447 . S
C70 H57 0.940 . S
C70 C69 1.447 . S
C70 C71 1.373 . S
C71 C70 1.373 . S
C71 C72 1.417 1_545 S
C72 H58 0.940 . S
C72 C68 1.370 . S
C72 C71 1.417 1_565 S
C73 C74 1.369 . S
C73 C75 1.419 . S
C73 H77 0.930 . S
C74 C73 1.369 . S
C74 C83 1.429 1_655 S
C75 C73 1.419 . S
C75 C76 1.363 . S
C75 H78 0.929 . S
C76 C75 1.363 . S
C76 C82 1.428 1_655 S
H77 C73 0.930 . S
H78 C75 0.929 . S
S79 N80 1.613 . S
S79 N81 1.610 . S
N80 S79 1.613 . S
N80 C83 1.350 . S
N81 S79 1.610 . S
N81 C82 1.351 . S
C82 C76 1.428 1_455 S
C82 N81 1.351 . S
C82 C83 1.434 . S
C83 C74 1.429 1_455 S
C83 N80 1.350 . S
C83 C82 1.434 . S
C84 C85 1.369 1_545 S
C84 C86 1.419 . S
C84 H88 0.930 . S
C85 C84 1.369 1_565 S
C85 C94 1.429 . S
C86 C84 1.419 . S
C86 C87 1.363 1_545 S
C86 H89 0.929 . S
C87 C86 1.363 1_565 S
C87 C93 1.428 . S
H88 C84 0.930 . S
H89 C86 0.929 . S
S90 N91 1.613 . S
S90 N92 1.610 . S
N91 S90 1.613 . S
N91 C94 1.350 . S
N92 S90 1.610 . S
N92 C93 1.351 . S
C93 C87 1.428 . S
C93 N92 1.351 . S
C93 C94 1.434 . S
C94 C85 1.429 . S
C94 N91 1.350 . S
C94 C93 1.434 . S
C95 C96 1.369 1_655 S
C95 C97 1.419 . S
C95 H99 0.930 . S
C96 C95 1.369 1_455 S
C96 C105 1.429 . S
C97 C95 1.419 . S
C97 C98 1.363 1_655 S
C97 H100 0.929 . S
C98 C97 1.363 1_455 S
C98 C104 1.428 . S
H99 C95 0.930 . S
H100 C97 0.929 . S
S101 N102 1.613 . S
S101 N103 1.610 . S
N102 S101 1.613 . S
N102 C105 1.350 . S
N103 S101 1.610 . S
N103 C104 1.351 . S
C104 C98 1.428 . S
C104 N103 1.351 . S
C104 C105 1.434 . S
C105 C96 1.429 . S
C105 N102 1.350 . S
C105 C104 1.434 . S
C106 C107 1.369 1_545 S
C106 C108 1.419 . S
C106 H110 0.930 . S
C107 C106 1.369 1_565 S
C107 C116 1.429 . S
C108 C106 1.419 . S
C108 C109 1.363 . S
C108 H111 0.929 . S
C109 C108 1.363 . S
C109 C115 1.428 1_545 S
H110 C106 0.930 . S
H111 C108 0.929 . S
S112 N113 1.613 . S
S112 N114 1.610 . S
N113 S112 1.613 . S
N113 C116 1.350 . S
N114 S112 1.610 . S
N114 C115 1.351 . S
C115 C109 1.428 1_565 S
C115 N114 1.351 . S
C115 C116 1.434 . S
C116 C107 1.429 . S
C116 N113 1.350 . S
C116 C115 1.434 . S
C117 C118 1.369 1_655 S
C117 C119 1.419 . S
C117 H121 0.930 . S
C118 C117 1.369 1_455 S
C118 C127 1.429 . S
C119 C117 1.419 . S
C119 C120 1.363 . S
C119 H122 0.929 . S
C120 C119 1.363 . S
C120 C126 1.428 1_655 S
H121 C117 0.930 . S
H122 C119 0.929 . S
S123 N124 1.613 . S
S123 N125 1.610 . S
N124 S123 1.613 . S
N124 C127 1.350 . S
N125 S123 1.610 . S
N125 C126 1.351 . S
C126 C120 1.428 1_455 S
C126 N125 1.351 . S
C126 C127 1.434 . S
C127 C118 1.429 . S
C127 N124 1.350 . S
C127 C126 1.434 . S
C128 C129 1.369 . S
C128 C130 1.419 . S
C128 H132 0.930 . S
C129 C128 1.369 . S
C129 C138 1.429 1_545 S
C130 C128 1.419 . S
C130 C131 1.363 1_545 S
C130 H133 0.929 . S
C131 C130 1.363 1_565 S
C131 C137 1.428 . S
H132 C128 0.930 . S
H133 C130 0.929 . S
S134 N135 1.613 . S
S134 N136 1.610 . S
N135 S134 1.613 . S
N135 C138 1.350 . S
N136 S134 1.610 . S
N136 C137 1.351 . S
C137 C131 1.428 . S
C137 N136 1.351 . S
C137 C138 1.434 . S
C138 C129 1.429 1_565 S
C138 N135 1.350 . S
C138 C137 1.434 . S
C139 C140 1.369 . S
C139 C141 1.419 . S
C139 H143 0.930 . S
C140 C139 1.369 . S
C140 C149 1.429 1_655 S
C141 C139 1.419 . S
C141 C142 1.363 1_655 S
C141 H144 0.929 . S
C142 C141 1.363 1_455 S
C142 C148 1.428 . S
H143 C139 0.930 . S
H144 C141 0.929 . S
S145 N146 1.613 . S
S145 N147 1.610 . S
N146 S145 1.613 . S
N146 C149 1.350 . S
N147 S145 1.610 . S
N147 C148 1.351 . S
C148 C142 1.428 . S
C148 N147 1.351 . S
C148 C149 1.434 . S
C149 C140 1.429 1_455 S
C149 N146 1.350 . S
C149 C148 1.434 . S
C150 C151 1.369 . S
C150 C152 1.419 . S
C150 H154 0.930 . S
C151 C150 1.369 . S
C151 C160 1.429 . S
C152 C150 1.419 . S
C152 C153 1.363 . S
C152 H155 0.929 . S
C153 C152 1.363 . S
C153 C159 1.428 . S
H154 C150 0.930 . S
H155 C152 0.929 . S
S156 N157 1.617 1_565 S
S156 N158 1.605 1_565 S
N157 S156 1.617 1_545 S
N157 C160 1.350 . S
N158 S156 1.605 1_545 S
N158 C159 1.351 . S
C159 C153 1.428 . S
C159 N158 1.351 . S
C159 C160 1.434 . S
C160 C151 1.429 . S
C160 N157 1.350 . S
C160 C159 1.434 . S
C74 C23 1.518 1_655 S
C76 C42 1.592 . S
C85 C22 1.635 . S
C87 C62 1.665 . S
C96 C21 1.832 . S
C98 C51 1.822 . S
C107 C24 1.657 . S
C109 C71 1.730 . S
C118 C27 1.511 1_455 S
C120 C48 1.592 . S
C129 C26 1.646 . S
C131 C68 1.665 . S
C142 C45 1.827 . S
C140 C25 1.831 . S
C151 C28 1.654 . S
C153 C65 1.721 . S
