# Generated by pormake.
# Topology ant, (3,6)-cn, num edge types: 1
# Building blocks:
#     Node 0, Type 0, BuildingBlock: ESEHIV_clean_linker_0, # of connection points: 3
#     Node 1, Type 0, BuildingBlock: ESEHIV_clean_linker_0, # of connection points: 3
#     Node 2, Type 0, BuildingBlock: ESEHIV_clean_linker_0, # of connection points: 3
#     Node 3, Type 0, BuildingBlock: ESEHIV_clean_linker_0, # of connection points: 3
#     Node 4, Type 0, BuildingBlock: ESEHIV_clean_linker_0, # of connection points: 3
#     Node 5, Type 0, BuildingBlock: ESEHIV_clean_linker_0, # of connection points: 3
#     Node 6, Type 0, BuildingBlock: ESEHIV_clean_linker_0, # of connection points: 3
#     Node 7, Type 0, BuildingBlock: ESEHIV_clean_linker_0, # of connection points: 3
#     Node 8, Type 1, BuildingBlock: MIDCAF_clean_sbu_0, # of connection points: 6
#     Node 9, Type 1, BuildingBlock: MIDCAF_clean_sbu_0, # of connection points: 6
#     Node 10, Type 1, BuildingBlock: MIDCAF_clean_sbu_0, # of connection points: 6
#     Node 11, Type 1, BuildingBlock: MIDCAF_clean_sbu_0, # of connection points: 6
#     Edge 12, Type (0, 1), None
#     Edge 13, Type (0, 1), None
#     Edge 14, Type (0, 1), None
#     Edge 15, Type (0, 1), None
#     Edge 16, Type (0, 1), None
#     Edge 17, Type (0, 1), None
#     Edge 18, Type (0, 1), None
#     Edge 19, Type (0, 1), None
#     Edge 20, Type (0, 1), None
#     Edge 21, Type (0, 1), None
#     Edge 22, Type (0, 1), None
#     Edge 23, Type (0, 1), None
#     Edge 24, Type (0, 1), None
#     Edge 25, Type (0, 1), None
#     Edge 26, Type (0, 1), None
#     Edge 27, Type (0, 1), None
#     Edge 28, Type (0, 1), None
#     Edge 29, Type (0, 1), None
#     Edge 30, Type (0, 1), None
#     Edge 31, Type (0, 1), None
#     Edge 32, Type (0, 1), None
#     Edge 33, Type (0, 1), None
#     Edge 34, Type (0, 1), None
#     Edge 35, Type (0, 1), None
# Relax obj value: 0.103
# Max RMSD: 0.160
# Mean RMSD: 0.106
data_MOF--net-ant--node1-MIDCAF_clean_sbu_0--node2-ESEHIV_clean_linker_0--edge1-none
_symmetry_space_group_name_H-M    P1
_symmetry_Int_Tables_number       1
_symmetry_cell_setting            triclinic
loop_
_symmetry_equiv_pos_as_xyz
'x, y, z'
_cell_length_a     10.878284
_cell_length_b     10.964986
_cell_length_c     31.158106
_cell_angle_alpha  87.705932
_cell_angle_beta   101.69558
_cell_angle_gamma 77.819646
loop_
_atom_site_label
_atom_site_type_symbol
_atom_site_fract_x
_atom_site_fract_y
_atom_site_fract_z
_atom_type_partial_charge
H0 H 0.18615 0.44755 0.00567 0.0
H1 H 0.14397 0.0682 0.00801 0.0
H2 H 0.02967 0.29971 0.10731 0.0
C3 C 0.14917 0.37398 0.0191 0.0
C4 C 0.10199 0.38907 0.05766 0.0
C5 C 0.15961 0.25936 0.00028 0.0
C6 C 0.13249 0.15777 0.02188 0.0
C7 C 0.08478 0.17277 0.06024 0.0
C8 C 0.06711 0.28868 0.07762 0.0
H9 H 0.94695 0.68735 0.24712 0.0
H10 H 0.27372 0.8503 0.24931 0.0
H11 H 0.13984 0.80347 0.36695 0.0
C12 C 0.01191 0.74185 0.2631 0.0
C13 C 0.01968 0.7592 0.30774 0.0
C14 C 0.09983 0.78039 0.24126 0.0
C15 C 0.19964 0.83035 0.26524 0.0
C16 C 0.21968 0.83068 0.31101 0.0
C17 C 0.12467 0.80273 0.33147 0.0
H18 H 0.68108 0.90074 0.49057 0.0
H19 H 0.65683 0.51497 0.50317 0.0
H20 H 0.50227 0.7748 0.58919 0.0
C21 C 0.64587 0.82743 0.50532 0.0
C22 C 0.58503 0.85349 0.54029 0.0
C23 C 0.66983 0.70558 0.49131 0.0
C24 C 0.63573 0.60901 0.51334 0.0
C25 C 0.57384 0.63439 0.54841 0.0
C26 C 0.54638 0.75667 0.56114 0.0
H27 H 0.40679 0.17413 0.75355 0.0
H28 H 0.77372 0.19807 0.72871 0.0
H29 H 0.7149 0.21218 0.86009 0.0
C30 C 0.50072 0.19242 0.76505 0.0
C31 C 0.54618 0.20224 0.8101 0.0
C32 C 0.58129 0.19482 0.73549 0.0
C33 C 0.70872 0.20652 0.75109 0.0
C34 C 0.75826 0.21279 0.79566 0.0
C35 C 0.67624 0.21086 0.82525 0.0
H36 H 0.0467 0.57312 0.95291 0.0
H37 H 0.08125 0.95587 0.95058 0.0
H38 H 0.28138 0.7018 0.87294 0.0
C39 C 0.08874 0.64618 0.94181 0.0
C40 C 0.17033 0.62234 0.91188 0.0
C41 C 0.06273 0.76425 0.95797 0.0
C42 C 0.10738 0.86278 0.94019 0.0
C43 C 0.18557 0.84267 0.90924 0.0
C44 C 0.22018 0.72026 0.89647 0.0
H45 H 0.38232 0.83203 0.19159 0.0
H46 H 0.78769 0.80191 0.2041 0.0
H47 H 0.53404 0.83083 0.07664 0.0
C48 C 0.46487 0.83108 0.17723 0.0
C49 C 0.44627 0.83626 0.13162 0.0
C50 C 0.58914 0.80439 0.20432 0.0
C51 C 0.69354 0.80965 0.18436 0.0
C52 C 0.6737 0.82402 0.13787 0.0
C53 C 0.5501 0.83176 0.11214 0.0
H54 H 0.50905 0.05692 0.44486 0.0
H55 H 0.53286 0.4446 0.44423 0.0
H56 H 0.68838 0.21304 0.35154 0.0
C57 C 0.5376 0.13621 0.43113 0.0
C58 C 0.59813 0.12362 0.39519 0.0
C59 C 0.51726 0.25065 0.45006 0.0
C60 C 0.55487 0.35388 0.43161 0.0
C61 C 0.61758 0.34155 0.39619 0.0
C62 C 0.63993 0.22492 0.3788 0.0
H63 H 0.88338 0.33173 0.70683 0.0
H64 H 0.27604 0.31557 0.70003 0.0
H65 H -0.0108 0.3263 0.58179 0.0
C66 C 0.95385 0.33925 0.68745 0.0
C67 C 0.9206 0.33463 0.6417 0.0
C68 C 0.08255 0.32548 0.709 0.0
C69 C 0.17657 0.32505 0.68375 0.0
C70 C 0.14332 0.33086 0.63757 0.0
C71 C 0.01445 0.33468 0.61689 0.0
Zn72 Zn 0.22147 0.63734 0.13292 0.0
Zn73 Zn 0.87696 0.93341 0.05304 0.0
Zn74 Zn 0.05221 0.78726 0.09642 0.0
C75 C -0.00251 0.78725 -0.00468 0.0
C76 C 0.03739 0.07134 0.07766 0.0
O77 O 0.0143 0.76547 0.16355 0.0
O78 O 0.22167 0.69759 0.19133 0.0
C79 C 0.10905 0.50015 0.08148 0.0
O80 O 0.03333 0.71244 0.03088 0.0
O81 O 0.92945 0.89529 -0.00383 0.0
O82 O 0.91833 0.08953 0.07651 0.0
O83 O 0.10565 0.95954 0.0816 0.0
O84 O 0.16151 0.48352 0.12177 0.0
O85 O 0.07458 0.61184 0.062 0.0
O86 O 0.22079 0.86373 0.11166 0.0
O87 O 0.3433 0.68927 0.0992 0.0
C88 C 0.33105 0.80238 0.1075 0.0
O89 O 0.89648 0.80486 0.13292 0.0
O90 O 0.74339 0.86823 0.07361 0.0
C91 C 0.11041 0.7441 0.19689 0.0
C92 C 0.7765 0.83089 0.11403 0.0
Zn93 Zn 0.53209 0.62235 0.31581 0.0
Zn94 Zn 0.82123 0.77846 0.39302 0.0
Zn95 Zn 0.63902 0.74676 0.35119 0.0
C96 C 0.6385 1.00042 0.37936 0.0
C97 C 0.9271 0.72427 0.33192 0.0
O98 O 0.6411 0.55827 0.38812 0.0
O99 O 0.62912 0.44804 0.33064 0.0
C100 C 0.35438 0.79591 0.33601 0.0
O101 O 0.56422 0.92402 0.37264 0.0
O102 O 0.75605 0.96422 0.37808 0.0
O103 O 0.96844 0.69083 0.37228 0.0
O104 O 0.80391 0.75414 0.31612 0.0
O105 O 0.39207 0.68142 0.34925 0.0
O106 O 0.43984 0.8538 0.32878 0.0
O107 O 0.68911 0.75771 0.28404 0.0
O108 O 0.50996 0.70154 0.25654 0.0
C109 C 0.59957 0.75218 0.2504 0.0
O110 O 0.67386 0.65007 0.41807 0.0
O111 O 0.82108 0.7422 0.45335 0.0
C112 C 0.63894 0.45197 0.37161 0.0
C113 C 0.73315 0.68473 0.45417 0.0
Zn114 Zn 0.35096 0.40665 0.55069 0.0
Zn115 Zn 0.68533 0.08302 0.62935 0.0
Zn116 Zn 0.52829 0.25443 0.59076 0.0
C117 C 0.81465 0.27363 0.62537 0.0
C118 C 0.60493 0.96088 0.56511 0.0
O119 O 0.36352 0.29071 0.6262 0.0
O120 O 0.20208 0.36634 0.57006 0.0
C121 C 0.52563 0.5357 0.56803 0.0
O122 O 0.70031 0.33437 0.60728 0.0
O123 O 0.83637 0.15754 0.63556 0.0
O124 O 0.68998 0.93561 0.59994 0.0
O125 O 0.53896 0.07498 0.55387 0.0
O126 O 0.40878 0.55924 0.57065 0.0
O127 O 0.59061 0.42168 0.57299 0.0
O128 O 0.50134 0.18758 0.52409 0.0
O129 O 0.39041 0.37189 0.49227 0.0
C130 C 0.46036 0.2663 0.48956 0.0
O131 O 0.49003 0.23661 0.65812 0.0
O132 O 0.63123 0.0614 0.68407 0.0
C133 C 0.24113 0.32754 0.61023 0.0
C134 C 0.55132 0.15575 0.69067 0.0
Zn135 Zn 0.15832 0.07403 0.8149 0.0
Zn136 Zn 0.36639 0.25645 0.90769 0.0
Zn137 Zn 0.15782 0.24867 0.85655 0.0
C138 C 0.20438 0.24327 0.95932 0.0
C139 C 0.20984 0.49418 0.89848 0.0
O140 O 0.07043 0.31617 0.78619 0.0
O141 O 0.19136 0.15908 0.76148 0.0
C142 C 0.21689 0.95086 0.88625 0.0
O143 O 0.13226 0.29629 0.92256 0.0
O144 O 0.31849 0.18414 0.96069 0.0
O145 O 0.32749 0.44925 0.8995 0.0
O146 O 0.13104 0.42112 0.89173 0.0
O147 O 0.27528 0.93108 0.85499 0.0
O148 O 0.16134 0.06406 0.8907 0.0
O149 O 0.96023 0.28069 0.81534 0.0
O150 O 0.96655 0.08053 0.81363 0.0
C151 C 0.90039 0.19117 0.8111 0.0
O152 O 0.33676 0.23374 0.82901 0.0
O153 O 0.51 0.17311 0.88205 0.0
C154 C 0.12188 0.26925 0.75494 0.0
C155 C 0.46022 0.19999 0.8416 0.0
loop_
_geom_bond_atom_site_label_1
_geom_bond_atom_site_label_2
_geom_bond_distance
_geom_bond_site_symmetry_2
_ccdc_geom_bond_type
H0 C3 0.931 . S
H1 C6 0.928 . S
H2 C8 0.930 . S
C3 H0 0.931 . S
C3 C4 1.413 . S
C3 C5 1.360 . S
C4 C3 1.413 . S
C4 C8 1.429 . S
C5 C3 1.360 . S
C5 C6 1.372 . S
C6 H1 0.928 . S
C6 C5 1.372 . S
C6 C7 1.404 . S
C7 C6 1.404 . S
C7 C8 1.391 . S
C8 H2 0.930 . S
C8 C4 1.429 . S
C8 C7 1.391 . S
H9 C12 0.931 . S
H10 C15 0.928 . S
H11 C17 0.930 . S
C12 H9 0.931 . S
C12 C13 1.413 1_655 S
C12 C14 1.360 1_655 S
C13 C12 1.413 1_455 S
C13 C17 1.429 . S
C14 C12 1.360 1_455 S
C14 C15 1.372 . S
C15 H10 0.928 . S
C15 C14 1.372 . S
C15 C16 1.404 . S
C16 C15 1.404 . S
C16 C17 1.391 . S
C17 H11 0.930 . S
C17 C13 1.429 . S
C17 C16 1.391 . S
H18 C21 0.931 . S
H19 C24 0.928 . S
H20 C26 0.930 . S
C21 H18 0.931 . S
C21 C22 1.413 . S
C21 C23 1.360 . S
C22 C21 1.413 . S
C22 C26 1.429 . S
C23 C21 1.360 . S
C23 C24 1.372 . S
C24 H19 0.928 . S
C24 C23 1.372 . S
C24 C25 1.404 . S
C25 C24 1.404 . S
C25 C26 1.391 . S
C26 H20 0.930 . S
C26 C22 1.429 . S
C26 C25 1.391 . S
H27 C30 0.931 . S
H28 C33 0.928 . S
H29 C35 0.930 . S
C30 H27 0.931 . S
C30 C31 1.413 . S
C30 C32 1.360 . S
C31 C30 1.413 . S
C31 C35 1.429 . S
C32 C30 1.360 . S
C32 C33 1.372 . S
C33 H28 0.928 . S
C33 C32 1.372 . S
C33 C34 1.404 . S
C34 C33 1.404 . S
C34 C35 1.391 . S
C35 H29 0.930 . S
C35 C31 1.429 . S
C35 C34 1.391 . S
H36 C39 0.931 . S
H37 C42 0.928 . S
H38 C44 0.930 . S
C39 H36 0.931 . S
C39 C40 1.413 . S
C39 C41 1.360 . S
C40 C39 1.413 . S
C40 C44 1.429 . S
C41 C39 1.360 . S
C41 C42 1.372 . S
C42 H37 0.928 . S
C42 C41 1.372 . S
C42 C43 1.404 . S
C43 C42 1.404 . S
C43 C44 1.391 . S
C44 H38 0.930 . S
C44 C40 1.429 . S
C44 C43 1.391 . S
H45 C48 0.931 . S
H46 C51 0.928 . S
H47 C53 0.930 . S
C48 H45 0.931 . S
C48 C49 1.413 . S
C48 C50 1.360 . S
C49 C48 1.413 . S
C49 C53 1.429 . S
C50 C48 1.360 . S
C50 C51 1.372 . S
C51 H46 0.928 . S
C51 C50 1.372 . S
C51 C52 1.404 . S
C52 C51 1.404 . S
C52 C53 1.391 . S
C53 H47 0.930 . S
C53 C49 1.429 . S
C53 C52 1.391 . S
H54 C57 0.931 . S
H55 C60 0.928 . S
H56 C62 0.930 . S
C57 H54 0.931 . S
C57 C58 1.413 . S
C57 C59 1.360 . S
C58 C57 1.413 . S
C58 C62 1.429 . S
C59 C57 1.360 . S
C59 C60 1.372 . S
C60 H55 0.928 . S
C60 C59 1.372 . S
C60 C61 1.404 . S
C61 C60 1.404 . S
C61 C62 1.391 . S
C62 H56 0.930 . S
C62 C58 1.429 . S
C62 C61 1.391 . S
H63 C66 0.931 1_655 S
H64 C69 0.928 . S
H65 C71 0.930 . S
C66 H63 0.931 1_455 S
C66 C67 1.413 . S
C66 C68 1.360 . S
C67 C66 1.413 . S
C67 C71 1.429 . S
C68 C66 1.360 . S
C68 C69 1.372 . S
C69 H64 0.928 . S
C69 C68 1.372 . S
C69 C70 1.404 . S
C70 C69 1.404 . S
C70 C71 1.391 . S
C71 H65 0.930 . S
C71 C67 1.429 . S
C71 C70 1.391 . S
Zn72 O78 1.920 . S
Zn72 O84 1.898 . S
Zn72 O87 1.905 . S
Zn73 O81 1.905 . S
Zn73 O82 1.898 1_665 S
Zn73 O90 1.920 . S
Zn74 O77 2.080 . S
Zn74 O80 2.114 . S
Zn74 O83 2.120 . S
Zn74 O85 2.120 . S
Zn74 O86 2.114 . S
Zn74 O89 2.080 1_455 S
C75 O80 1.166 . S
C75 O81 1.182 1_455 S
C76 O82 1.167 . S
C76 O83 1.299 1_545 S
O77 Zn74 2.080 . S
O77 C91 1.305 . S
O78 Zn72 1.920 . S
O78 C91 1.234 . S
C79 O84 1.167 . S
C79 O85 1.299 . S
O80 Zn74 2.114 . S
O80 C75 1.166 . S
O81 Zn73 1.905 . S
O81 C75 1.182 1_655 S
O82 Zn73 1.898 1_445 S
O82 C76 1.167 . S
O83 Zn74 2.120 . S
O83 C76 1.299 1_565 S
O84 Zn72 1.898 . S
O84 C79 1.167 . S
O85 Zn74 2.120 . S
O85 C79 1.299 . S
O86 Zn74 2.114 . S
O86 C88 1.166 . S
O87 Zn72 1.905 . S
O87 C88 1.182 . S
C88 O86 1.166 . S
C88 O87 1.182 . S
O89 Zn74 2.080 1_655 S
O89 C92 1.305 . S
O90 Zn73 1.920 . S
O90 C92 1.234 . S
C91 O77 1.305 . S
C91 O78 1.234 . S
C92 O89 1.305 . S
C92 O90 1.234 . S
Zn93 O99 1.920 . S
Zn93 O105 1.898 . S
Zn93 O108 1.905 . S
Zn94 O102 1.905 1_565 S
Zn94 O103 1.898 . S
Zn94 O111 1.920 . S
Zn95 O98 2.080 . S
Zn95 O101 2.114 . S
Zn95 O104 2.120 . S
Zn95 O106 2.120 . S
Zn95 O107 2.114 . S
Zn95 O110 2.080 . S
C96 O101 1.166 1_545 S
C96 O102 1.182 . S
C97 O103 1.167 . S
C97 O104 1.299 . S
O98 Zn95 2.080 . S
O98 C112 1.305 . S
O99 Zn93 1.920 . S
O99 C112 1.234 . S
C100 O105 1.167 . S
C100 O106 1.299 . S
O101 Zn95 2.114 . S
O101 C96 1.166 1_565 S
O102 Zn94 1.905 1_545 S
O102 C96 1.182 . S
O103 Zn94 1.898 . S
O103 C97 1.167 . S
O104 Zn95 2.120 . S
O104 C97 1.299 . S
O105 Zn93 1.898 . S
O105 C100 1.167 . S
O106 Zn95 2.120 . S
O106 C100 1.299 . S
O107 Zn95 2.114 . S
O107 C109 1.166 . S
O108 Zn93 1.905 . S
O108 C109 1.182 . S
C109 O107 1.166 . S
C109 O108 1.182 . S
O110 Zn95 2.080 . S
O110 C113 1.305 . S
O111 Zn94 1.920 . S
O111 C113 1.234 . S
C112 O98 1.305 . S
C112 O99 1.234 . S
C113 O110 1.305 . S
C113 O111 1.234 . S
Zn114 O120 1.920 . S
Zn114 O126 1.898 . S
Zn114 O129 1.905 . S
Zn115 O123 1.905 . S
Zn115 O124 1.898 1_545 S
Zn115 O132 1.920 . S
Zn116 O119 2.080 . S
Zn116 O122 2.114 . S
Zn116 O125 2.120 . S
Zn116 O127 2.120 . S
Zn116 O128 2.114 . S
Zn116 O131 2.080 . S
C117 O122 1.166 . S
C117 O123 1.182 . S
C118 O124 1.167 . S
C118 O125 1.299 1_565 S
O119 Zn116 2.080 . S
O119 C133 1.305 . S
O120 Zn114 1.920 . S
O120 C133 1.234 . S
C121 O126 1.167 . S
C121 O127 1.299 . S
O122 Zn116 2.114 . S
O122 C117 1.166 . S
O123 Zn115 1.905 . S
O123 C117 1.182 . S
O124 Zn115 1.898 1_565 S
O124 C118 1.167 . S
O125 Zn116 2.120 . S
O125 C118 1.299 1_545 S
O126 Zn114 1.898 . S
O126 C121 1.167 . S
O127 Zn116 2.120 . S
O127 C121 1.299 . S
O128 Zn116 2.114 . S
O128 C130 1.166 . S
O129 Zn114 1.905 . S
O129 C130 1.182 . S
C130 O128 1.166 . S
C130 O129 1.182 . S
O131 Zn116 2.080 . S
O131 C134 1.305 . S
O132 Zn115 1.920 . S
O132 C134 1.234 . S
C133 O119 1.305 . S
C133 O120 1.234 . S
C134 O131 1.305 . S
C134 O132 1.234 . S
Zn135 O141 1.920 1_655 S
Zn135 O147 1.898 1_545 S
Zn135 O150 1.905 . S
Zn136 O144 1.905 . S
Zn136 O145 1.898 . S
Zn136 O153 1.920 . S
Zn137 O140 2.080 . S
Zn137 O143 2.114 . S
Zn137 O146 2.120 . S
Zn137 O148 2.120 . S
Zn137 O149 2.114 1_455 S
Zn137 O152 2.080 . S
C138 O143 1.166 . S
C138 O144 1.182 . S
C139 O145 1.167 . S
C139 O146 1.299 . S
O140 Zn137 2.080 . S
O140 C154 1.305 . S
O141 Zn135 1.920 1_455 S
O141 C154 1.234 . S
C142 O147 1.167 1_455 S
C142 O148 1.299 1_565 S
O143 Zn137 2.114 . S
O143 C138 1.166 . S
O144 Zn136 1.905 . S
O144 C138 1.182 . S
O145 Zn136 1.898 . S
O145 C139 1.167 . S
O146 Zn137 2.120 . S
O146 C139 1.299 . S
O147 Zn135 1.898 1_565 S
O147 C142 1.167 1_655 S
O148 Zn137 2.120 . S
O148 C142 1.299 1_545 S
O149 Zn137 2.114 1_655 S
O149 C151 1.166 . S
O150 Zn135 1.905 . S
O150 C151 1.182 . S
C151 O149 1.166 . S
C151 O150 1.182 . S
O152 Zn137 2.080 . S
O152 C155 1.305 . S
O153 Zn136 1.920 . S
O153 C155 1.234 . S
C154 O140 1.305 . S
C154 O141 1.234 . S
C155 O152 1.305 . S
C155 O153 1.234 . S
C79 C4 1.461 . S
C97 C13 1.466 1_655 S
C25 C121 1.307 . S
C151 C34 1.179 . S
C139 C40 1.333 . S
C52 C92 1.509 . S
C61 C112 1.498 . S
C67 C117 1.206 1_455 S
C70 C133 1.484 . S
C49 C88 1.211 . S
C155 C31 1.508 . S
C100 C16 1.142 . S
C22 C118 1.439 . S
C7 C76 1.315 . S
C96 C58 1.354 . S
C142 C43 1.470 . S
C138 C5 1.233 1_556 S
C91 C14 1.582 . S
C23 C113 1.197 . S
C32 C134 1.592 . S
C75 C41 1.231 1_554 S
C50 C109 1.630 . S
C130 C59 1.263 . S
C154 C68 1.604 . S
