# Generated by pormake.
# Topology rtl, (3,6)-cn, num edge types: 1
# Building blocks:
#     Node 0, Type 0, BuildingBlock: CUQRIR_clean_linker_1, # of connection points: 3
#     Node 1, Type 0, BuildingBlock: CUQRIR_clean_linker_1, # of connection points: 3
#     Node 2, Type 0, BuildingBlock: CUQRIR_clean_linker_1, # of connection points: 3
#     Node 3, Type 0, BuildingBlock: CUQRIR_clean_linker_1, # of connection points: 3
#     Node 4, Type 1, BuildingBlock: FUNLAD_clean_sbu_0, # of connection points: 6
#     Node 5, Type 1, BuildingBlock: FUNLAD_clean_sbu_0, # of connection points: 6
#     Edge 6, Type (0, 1), BuildingBlock: AJUNOK_clean_linker_0, # of connection points: 2
#     Edge 7, Type (0, 1), BuildingBlock: AJUNOK_clean_linker_0, # of connection points: 2
#     Edge 8, Type (0, 1), BuildingBlock: AJUNOK_clean_linker_0, # of connection points: 2
#     Edge 9, Type (0, 1), BuildingBlock: AJUNOK_clean_linker_0, # of connection points: 2
#     Edge 10, Type (0, 1), BuildingBlock: AJUNOK_clean_linker_0, # of connection points: 2
#     Edge 11, Type (0, 1), BuildingBlock: AJUNOK_clean_linker_0, # of connection points: 2
#     Edge 12, Type (0, 1), BuildingBlock: AJUNOK_clean_linker_0, # of connection points: 2
#     Edge 13, Type (0, 1), BuildingBlock: AJUNOK_clean_linker_0, # of connection points: 2
#     Edge 14, Type (0, 1), BuildingBlock: AJUNOK_clean_linker_0, # of connection points: 2
#     Edge 15, Type (0, 1), BuildingBlock: AJUNOK_clean_linker_0, # of connection points: 2
#     Edge 16, Type (0, 1), BuildingBlock: AJUNOK_clean_linker_0, # of connection points: 2
#     Edge 17, Type (0, 1), BuildingBlock: AJUNOK_clean_linker_0, # of connection points: 2
# Relax obj value: 0.002
# Max RMSD: 0.020
# Mean RMSD: 0.013
data_MOF--net-rtl--node1-FUNLAD_clean_sbu_0--node2-CUQRIR_clean_linker_1--edge1-AJUNOK_clean_linker_0
_symmetry_space_group_name_H-M    P1
_symmetry_Int_Tables_number       1
_symmetry_cell_setting            triclinic
loop_
_symmetry_equiv_pos_as_xyz
'x, y, z'
_cell_length_a     28.266648
_cell_length_b     28.31185
_cell_length_c     13.066484
_cell_angle_alpha  90.18119
_cell_angle_beta   90.870787
_cell_angle_gamma 89.995292
loop_
_atom_site_label
_atom_site_type_symbol
_atom_site_fract_x
_atom_site_fract_y
_atom_site_fract_z
_atom_type_partial_charge
C0 C 0.19634 0.81897 0.95038 0.0
N1 N 0.16388 0.85079 0.98139 0.0
N2 N 0.21202 0.7928 0.03058 0.0
C3 C 0.21263 0.81363 0.84183 0.0
C4 C 0.18791 0.80997 0.11141 0.0
N5 N 0.15824 0.84489 0.08118 0.0
C6 C 0.1943 0.7935 0.22001 0.0
H7 H 0.24698 0.79481 0.83821 0.0
H8 H 0.21623 0.84862 0.80497 0.0
H9 H 0.18563 0.79335 0.79757 0.0
H10 H 0.22083 0.81644 0.25907 0.0
H11 H 0.20718 0.75649 0.22258 0.0
H12 H 0.16072 0.79616 0.26235 0.0
C13 C 0.69375 0.69325 0.61056 0.0
N14 N 0.66175 0.66044 0.57978 0.0
N15 N 0.71311 0.71477 0.52874 0.0
C16 C 0.70426 0.70591 0.72043 0.0
C17 C 0.69179 0.69361 0.44706 0.0
N18 N 0.66027 0.66097 0.4782 0.0
C19 C 0.7043 0.70186 0.33704 0.0
H20 H 0.71586 0.74323 0.72759 0.0
H21 H 0.73311 0.68282 0.7497 0.0
H22 H 0.67271 0.70025 0.76839 0.0
H23 H 0.70361 0.66804 0.29386 0.0
H24 H 0.73978 0.71822 0.33043 0.0
H25 H 0.67751 0.72559 0.30155 0.0
C26 C 0.81994 0.1882 0.10561 0.0
N27 N 0.85295 0.15692 0.07478 0.0
N28 N 0.80061 0.21097 0.02404 0.0
C29 C 0.80961 0.19905 0.21586 0.0
C30 C 0.82374 0.19283 0.94277 0.0
N31 N 0.85579 0.16019 0.97382 0.0
C32 C 0.8134 0.20525 0.83287 0.0
H33 H 0.78459 0.17232 0.24525 0.0
H34 H 0.79377 0.23466 0.22454 0.0
H35 H 0.84251 0.19694 0.26306 0.0
H36 H 0.83617 0.23536 0.81089 0.0
H37 H 0.77587 0.21589 0.82221 0.0
H38 H 0.82122 0.17505 0.78149 0.0
C39 C 0.32718 0.31156 0.4363 0.0
N40 N 0.35775 0.3459 0.46592 0.0
N41 N 0.30379 0.2945 0.51799 0.0
C42 C 0.31968 0.29514 0.3277 0.0
C43 C 0.32094 0.32009 0.5981 0.0
N44 N 0.35365 0.35133 0.56623 0.0
C45 C 0.30531 0.31538 0.70713 0.0
H46 H 0.30758 0.25788 0.32526 0.0
H47 H 0.35253 0.2986 0.28306 0.0
H48 H 0.29209 0.31751 0.29091 0.0
H49 H 0.33223 0.29477 0.75062 0.0
H50 H 0.27063 0.29726 0.71185 0.0
H51 H 0.30272 0.35064 0.74383 0.0
C52 C 0.05544 0.95465 0.37655 0.0
N53 N 0.08834 0.08254 0.52274 0.0
C54 C 0.13425 0.06874 0.51475 0.0
C55 C 0.17039 0.10226 0.51302 0.0
C56 C 0.15933 0.15045 0.52192 0.0
C57 C 0.11161 0.16369 0.5296 0.0
C58 C 0.07651 0.12901 0.52935 0.0
Zn59 Zn 0.03662 0.0323 0.52544 0.0
C60 C 0.95891 0.05159 0.37641 0.0
N61 N 0.9296 0.92628 0.53287 0.0
C62 C 0.94112 0.87995 0.52094 0.0
C63 C 0.88389 0.93997 0.54508 0.0
C64 C 0.84766 0.90651 0.54583 0.0
C65 C 0.85831 0.85852 0.53096 0.0
C66 C 0.90586 0.8454 0.51903 0.0
Zn67 Zn 0.98143 0.97658 0.53054 0.0
O68 O 0.07186 0.99338 0.41103 0.0
C69 C 0.05895 0.95723 0.67979 0.0
O70 O 0.01738 0.93854 0.41357 0.0
H71 H 0.87539 0.97696 0.55424 0.0
H72 H 0.14292 0.03162 0.50953 0.0
H73 H 0.97769 0.86974 0.5121 0.0
O74 O 0.0744 0.9955 0.64219 0.0
O75 O 0.02023 0.94017 0.6454 0.0
H76 H 0.03978 0.13924 0.53491 0.0
O77 O 0.94664 0.01544 0.6475 0.0
O78 O 1.00054 0.07078 0.63988 0.0
O79 O 0.94319 0.01381 0.41568 0.0
O80 O 0.99817 0.06824 0.40873 0.0
C81 C 0.96299 0.05478 0.67913 0.0
H82 H 0.20653 0.09051 0.50389 0.0
H83 H 0.10155 0.20045 0.53675 0.0
H84 H 0.81178 0.91819 0.55876 0.0
H85 H 0.91572 0.80885 0.50722 0.0
C86 C 0.45954 0.45794 0.8672 0.0
N87 N 0.58772 0.42611 0.02007 0.0
C88 C 0.5747 0.38058 1.00166 0.0
C89 C 0.60853 0.34474 1.00072 0.0
C90 C 0.65618 0.3555 0.02212 0.0
C91 C 0.66866 0.40285 0.04055 0.0
C92 C 0.63377 0.4378 0.03844 0.0
Zn93 Zn 0.53652 0.47709 0.02164 0.0
C94 C 0.55615 0.55434 0.87464 0.0
N95 N 0.42843 0.58185 0.02544 0.0
C96 C 0.38262 0.56784 0.03409 0.0
C97 C 0.43997 0.62835 0.01796 0.0
C98 C 0.40465 0.66284 0.01804 0.0
C99 C 0.35705 0.64936 0.02654 0.0
C100 C 0.34629 0.60115 0.03579 0.0
Zn101 Zn 0.48028 0.53173 0.02356 0.0
O102 O 0.49928 0.44243 0.89928 0.0
C103 C 0.46148 0.45344 0.17028 0.0
O104 O 0.4424 0.49461 0.90863 0.0
H105 H 0.47662 0.63873 1.0116 0.0
H106 H 0.53792 0.37189 0.98765 0.0
H107 H 0.3742 0.5307 0.03992 0.0
O108 O 0.49903 0.43762 0.13062 0.0
O109 O 0.44521 0.49298 0.14003 0.0
H110 H 0.64349 0.47423 0.05222 0.0
O111 O 0.51852 0.5689 0.13847 0.0
O112 O 0.57225 0.51309 0.14395 0.0
O113 O 0.51656 0.56907 0.90699 0.0
O114 O 0.57392 0.51692 0.91258 0.0
C115 C 0.55621 0.55198 0.17788 0.0
H116 H 0.59739 0.30907 0.98261 0.0
H117 H 0.70495 0.41277 0.0575 0.0
H118 H 0.41444 0.69964 1.01055 0.0
H119 H 0.31022 0.58926 0.04529 0.0
C120 C 0.22656 0.26299 0.46118 0.0
C121 C 0.26848 0.25801 0.51898 0.0
C122 C 0.19149 0.22802 0.46244 0.0
C123 C 0.19715 0.18691 0.52189 0.0
H124 H 0.22086 0.29433 0.41533 0.0
H125 H 0.15988 0.23308 0.41587 0.0
S126 S 0.30104 0.15795 0.68743 0.0
N127 N 0.31454 0.20919 0.6354 0.0
N128 N 0.24795 0.14415 0.64206 0.0
C129 C 0.23912 0.18178 0.58032 0.0
C130 C 0.27492 0.2172 0.57794 0.0
C131 C 0.28901 0.76141 0.08878 0.0
C132 C 0.24724 0.75621 0.03049 0.0
C133 C 0.32431 0.72666 0.0872 0.0
C134 C 0.31899 0.68555 0.02704 0.0
H135 H 0.29446 0.7928 0.13503 0.0
H136 H 0.35586 0.73189 0.13395 0.0
S137 S 0.21556 0.65606 0.86024 0.0
N138 N 0.20169 0.70723 0.91286 0.0
N139 N 0.26862 0.64249 0.906 0.0
C140 C 0.27712 0.68015 0.96836 0.0
C141 C 0.24112 0.71538 0.97094 0.0
C142 C 0.79191 0.74418 0.58085 0.0
C143 C 0.74865 0.75114 0.52895 0.0
C144 C 0.82705 0.77909 0.58133 0.0
C145 C 0.8203 0.82213 0.52917 0.0
H146 H 0.79859 0.71137 0.62086 0.0
H147 H 0.8596 0.77242 0.62364 0.0
S148 S 0.71276 0.85676 0.3806 0.0
N149 N 0.70016 0.80401 0.4263 0.0
N150 N 0.76701 0.86877 0.42149 0.0
C151 C 0.77706 0.82921 0.47631 0.0
C152 C 0.74109 0.79389 0.47742 0.0
C153 C 0.77188 0.29036 0.97765 0.0
C154 C 0.76409 0.24636 0.0236 0.0
C155 C 0.73684 0.32539 0.97746 0.0
C156 C 0.69284 0.31775 0.02398 0.0
H157 H 0.80544 0.29772 0.94219 0.0
H158 H 0.74416 0.35855 0.93974 0.0
S159 S 0.65581 0.20804 0.15591 0.0
N160 N 0.70943 0.19626 0.11446 0.0
N161 N 0.64441 0.26283 0.12026 0.0
C162 C 0.68495 0.27377 0.07098 0.0
C163 C 0.72039 0.23794 0.06943 0.0
C164 C 0.08918 0.8567 0.19105 0.0
C165 C 0.13036 0.87435 0.14656 0.0
C166 C 0.06461 0.88326 0.26396 0.0
C167 C 0.08065 0.92833 0.29513 0.0
H168 H 0.07667 0.82169 0.17084 0.0
H169 H 0.03342 0.86787 0.29755 0.0
S170 S 0.18659 0.99017 0.19629 0.0
N171 N 0.1858 0.93904 0.13515 0.0
N172 N 0.14003 0.98974 0.27114 0.0
C173 C 0.12143 0.94663 0.24839 0.0
C174 C 0.14617 0.91945 0.17427 0.0
C175 C 0.65612 0.59757 0.70809 0.0
C176 C 0.63386 0.63113 0.64509 0.0
C177 C 0.63048 0.57228 0.78072 0.0
C178 C 0.58175 0.58037 0.79408 0.0
H179 H 0.69381 0.59156 0.70202 0.0
H180 H 0.64931 0.54709 0.82846 0.0
S181 S 0.50736 0.6643 0.64434 0.0
N182 N 0.56094 0.67072 0.59756 0.0
N183 N 0.51215 0.6237 0.73448 0.0
C184 C 0.55904 0.61351 0.72975 0.0
C185 C 0.58525 0.63875 0.65503 0.0
C186 C 0.92822 0.13692 0.16089 0.0
C187 C 0.88059 0.12655 0.13995 0.0
C188 C 0.95352 0.11212 0.23679 0.0
C189 C 0.93194 0.07592 0.29362 0.0
H190 H 0.94532 0.16553 0.12091 0.0
H191 H 0.99002 0.12187 0.25189 0.0
S192 S 0.80782 0.03452 0.26143 0.0
N193 N 0.81301 0.07747 0.17711 0.0
N194 N 0.86002 0.03012 0.31914 0.0
C195 C 0.88448 0.06439 0.27012 0.0
C196 C 0.85891 0.08994 0.19343 0.0
C197 C 0.42665 0.36609 0.66516 0.0
C198 C 0.38213 0.38147 0.63049 0.0
C199 C 0.45193 0.39157 0.74026 0.0
C200 C 0.43332 0.43325 0.78331 0.0
H201 H 0.44111 0.3333 0.63636 0.0
H202 H 0.48577 0.37781 0.76633 0.0
S203 S 0.31842 0.48892 0.71122 0.0
N204 N 0.32101 0.44098 0.63917 0.0
N205 N 0.36792 0.4896 0.78004 0.0
C206 C 0.38919 0.44962 0.7458 0.0
C207 C 0.36372 0.42353 0.66939 0.0
C208 C 0.59628 0.65287 0.35042 0.0
C209 C 0.63109 0.63189 0.41282 0.0
C210 C 0.57149 0.62641 0.27642 0.0
C211 C 0.58133 0.57813 0.26096 0.0
H212 H 0.58901 0.69027 0.35777 0.0
H213 H 0.54539 0.64436 0.22903 0.0
S214 S 0.66889 0.5069 0.40874 0.0
N215 N 0.6736 0.56055 0.45796 0.0
N216 N 0.62755 0.51023 0.31825 0.0
C217 C 0.61563 0.55661 0.32494 0.0
C218 C 0.64036 0.58365 0.40114 0.0
C219 C 0.87679 0.08517 0.8906 0.0
C220 C 0.88628 0.13302 0.90936 0.0
C221 C 0.9022 0.05991 0.81686 0.0
C222 C 0.93823 0.0817 0.76017 0.0
H223 H 0.84847 0.06778 0.93075 0.0
H224 H 0.89307 0.02324 0.80335 0.0
S225 S 0.97747 0.20647 0.78715 0.0
N226 N 0.93435 0.20108 0.87019 0.0
N227 N 0.98289 0.15412 0.73243 0.0
C228 C 0.94887 0.12942 0.7815 0.0
C229 C 0.92265 0.15497 0.85588 0.0
C230 C 0.37135 0.41911 0.37041 0.0
C231 C 0.38656 0.37407 0.4004 0.0
C232 C 0.39611 0.44481 0.29681 0.0
C233 C 0.43698 0.4262 0.25088 0.0
H234 H 0.33937 0.43383 0.40213 0.0
H235 H 0.38264 0.47918 0.27477 0.0
S236 S 0.49179 0.30979 0.30985 0.0
N237 N 0.44499 0.31228 0.38385 0.0
N238 N 0.49219 0.35994 0.24563 0.0
C239 C 0.45307 0.38138 0.28328 0.0
C240 C 0.4277 0.35547 0.3581 0.0
C241 C 0.09047 0.86763 0.88605 0.0
C242 C 0.13624 0.88117 0.91626 0.0
C243 C 0.06547 0.89287 0.81057 0.0
C244 C 0.08549 0.93266 0.76297 0.0
H245 H 0.07471 0.83634 0.91863 0.0
H246 H 0.03053 0.88054 0.78828 0.0
S247 S 0.20419 0.98329 0.82184 0.0
N248 N 0.20028 0.93705 0.89797 0.0
N249 N 0.1537 0.98533 0.75667 0.0
C250 C 0.13094 0.94734 0.7959 0.0
C251 C 0.15624 0.92137 0.87247 0.0
loop_
_geom_bond_atom_site_label_1
_geom_bond_atom_site_label_2
_geom_bond_distance
_geom_bond_site_symmetry_2
_ccdc_geom_bond_type
C0 N1 1.317 . S
C0 N2 1.348 1_556 S
C0 C3 1.485 . S
N1 C0 1.317 . S
N1 N5 1.370 1_556 S
N2 C0 1.348 1_554 S
N2 C4 1.346 . S
C3 C0 1.485 . S
C3 H7 0.960 . S
C3 H8 0.961 . S
C3 H9 0.960 . S
C4 N2 1.346 . S
C4 N5 1.307 . S
C4 C6 1.486 . S
N5 N1 1.370 1_554 S
N5 C4 1.307 . S
C6 C4 1.486 . S
C6 H10 0.960 . S
C6 H11 0.960 . S
C6 H12 0.959 . S
H7 C3 0.960 . S
H8 C3 0.961 . S
H9 C3 0.960 . S
H10 C6 0.960 . S
H11 C6 0.960 . S
H12 C6 0.959 . S
C13 N14 1.317 . S
C13 N15 1.348 . S
C13 C16 1.485 . S
N14 C13 1.317 . S
N14 N18 1.370 . S
N15 C13 1.348 . S
N15 C17 1.346 . S
C16 C13 1.485 . S
C16 H20 0.960 . S
C16 H21 0.961 . S
C16 H22 0.960 . S
C17 N15 1.346 . S
C17 N18 1.307 . S
C17 C19 1.486 . S
N18 N14 1.370 . S
N18 C17 1.307 . S
C19 C17 1.486 . S
C19 H23 0.960 . S
C19 H24 0.960 . S
C19 H25 0.959 . S
H20 C16 0.960 . S
H21 C16 0.961 . S
H22 C16 0.960 . S
H23 C19 0.960 . S
H24 C19 0.960 . S
H25 C19 0.959 . S
C26 N27 1.317 . S
C26 N28 1.348 . S
C26 C29 1.485 . S
N27 C26 1.317 . S
N27 N31 1.370 1_554 S
N28 C26 1.348 . S
N28 C30 1.346 1_554 S
C29 C26 1.485 . S
C29 H33 0.960 . S
C29 H34 0.961 . S
C29 H35 0.960 . S
C30 N28 1.346 1_556 S
C30 N31 1.307 . S
C30 C32 1.486 . S
N31 N27 1.370 1_556 S
N31 C30 1.307 . S
C32 C30 1.486 . S
C32 H36 0.960 . S
C32 H37 0.960 . S
C32 H38 0.959 . S
H33 C29 0.960 . S
H34 C29 0.961 . S
H35 C29 0.960 . S
H36 C32 0.960 . S
H37 C32 0.960 . S
H38 C32 0.959 . S
C39 N40 1.317 . S
C39 N41 1.348 . S
C39 C42 1.485 . S
N40 C39 1.317 . S
N40 N44 1.370 . S
N41 C39 1.348 . S
N41 C43 1.346 . S
C42 C39 1.485 . S
C42 H46 0.960 . S
C42 H47 0.961 . S
C42 H48 0.960 . S
C43 N41 1.346 . S
C43 N44 1.307 . S
C43 C45 1.486 . S
N44 N40 1.370 . S
N44 C43 1.307 . S
C45 C43 1.486 . S
C45 H49 0.960 . S
C45 H50 0.960 . S
C45 H51 0.959 . S
H46 C42 0.960 . S
H47 C42 0.961 . S
H48 C42 0.960 . S
H49 C45 0.960 . S
H50 C45 0.960 . S
H51 C45 0.959 . S
C52 O68 1.251 . S
C52 O70 1.254 . S
N53 C54 1.333 . S
N53 C58 1.307 . S
N53 Zn59 2.020 . S
C54 N53 1.333 . S
C54 C55 1.379 . S
C54 H72 0.952 . S
C55 C54 1.379 . S
C55 C56 1.390 . S
C55 H82 0.949 . S
C56 C55 1.390 . S
C56 C57 1.357 . S
C57 C56 1.357 . S
C57 C58 1.370 . S
C57 H83 0.950 . S
C58 N53 1.307 . S
C58 C57 1.370 . S
C58 H76 0.948 . S
Zn59 N53 2.020 . S
Zn59 O68 2.039 1_545 S
Zn59 O74 2.034 1_545 S
Zn59 O78 2.025 1_455 S
Zn59 O80 2.024 1_455 S
C60 O79 1.246 . S
C60 O80 1.249 . S
N61 C62 1.307 . S
N61 C63 1.333 . S
N61 Zn67 2.020 . S
C62 N61 1.307 . S
C62 C66 1.370 . S
C62 H73 0.948 . S
C63 N61 1.333 . S
C63 C64 1.379 . S
C63 H71 0.952 . S
C64 C63 1.379 . S
C64 C65 1.390 . S
C64 H84 0.949 . S
C65 C64 1.390 . S
C65 C66 1.357 . S
C66 C62 1.370 . S
C66 C65 1.357 . S
C66 H85 0.950 . S
Zn67 N61 2.020 . S
Zn67 O70 2.025 1_655 S
Zn67 O75 2.024 1_655 S
Zn67 O77 2.039 1_565 S
Zn67 O79 2.034 1_565 S
O68 C52 1.251 . S
O68 Zn59 2.039 1_565 S
C69 O74 1.246 . S
C69 O75 1.249 . S
O70 C52 1.254 . S
O70 Zn67 2.025 1_455 S
H71 C63 0.952 . S
H72 C54 0.952 . S
H73 C62 0.948 . S
O74 Zn59 2.034 1_565 S
O74 C69 1.246 . S
O75 Zn67 2.024 1_455 S
O75 C69 1.249 . S
H76 C58 0.948 . S
O77 Zn67 2.039 1_545 S
O77 C81 1.251 . S
O78 Zn59 2.025 1_655 S
O78 C81 1.254 . S
O79 C60 1.246 . S
O79 Zn67 2.034 1_545 S
O80 Zn59 2.024 1_655 S
O80 C60 1.249 . S
C81 O77 1.251 . S
C81 O78 1.254 . S
H82 C55 0.949 . S
H83 C57 0.950 . S
H84 C64 0.949 . S
H85 C66 0.950 . S
C86 O102 1.251 . S
C86 O104 1.254 . S
N87 C88 1.333 1_554 S
N87 C92 1.307 . S
N87 Zn93 2.020 . S
C88 N87 1.333 1_556 S
C88 C89 1.379 . S
C88 H106 0.952 . S
C89 C88 1.379 . S
C89 C90 1.390 1_556 S
C89 H116 0.949 . S
C90 C89 1.390 1_554 S
C90 C91 1.357 . S
C91 C90 1.357 . S
C91 C92 1.370 . S
C91 H117 0.950 . S
C92 N87 1.307 . S
C92 C91 1.370 . S
C92 H110 0.948 . S
Zn93 N87 2.020 . S
Zn93 O102 2.039 1_554 S
Zn93 O108 2.034 . S
Zn93 O112 2.025 . S
Zn93 O114 2.024 1_554 S
C94 O113 1.246 . S
C94 O114 1.249 . S
N95 C96 1.307 1_554 S
N95 C97 1.333 . S
N95 Zn101 2.020 . S
C96 N95 1.307 1_556 S
C96 C100 1.370 . S
C96 H107 0.948 . S
C97 N95 1.333 . S
C97 C98 1.379 . S
C97 H105 0.952 . S
C98 C97 1.379 . S
C98 C99 1.390 . S
C98 H118 0.949 . S
C99 C98 1.390 . S
C99 C100 1.357 1_554 S
C100 C96 1.370 . S
C100 C99 1.357 1_556 S
C100 H119 0.950 . S
Zn101 N95 2.020 . S
Zn101 O104 2.025 1_554 S
Zn101 O109 2.024 . S
Zn101 O111 2.039 . S
Zn101 O113 2.034 1_554 S
O102 C86 1.251 . S
O102 Zn93 2.039 1_556 S
C103 O108 1.246 . S
C103 O109 1.249 . S
O104 C86 1.254 . S
O104 Zn101 2.025 1_556 S
H105 C97 0.952 . S
H106 C88 0.952 . S
H107 C96 0.948 . S
O108 Zn93 2.034 . S
O108 C103 1.246 . S
O109 Zn101 2.024 . S
O109 C103 1.249 . S
H110 C92 0.948 . S
O111 Zn101 2.039 . S
O111 C115 1.251 . S
O112 Zn93 2.025 . S
O112 C115 1.254 . S
O113 C94 1.246 . S
O113 Zn101 2.034 1_556 S
O114 Zn93 2.024 1_556 S
O114 C94 1.249 . S
C115 O111 1.251 . S
C115 O112 1.254 . S
H116 C89 0.949 . S
H117 C91 0.950 . S
H118 C98 0.949 . S
H119 C100 0.950 . S
C120 C121 1.369 . S
C120 C122 1.419 . S
C120 H124 0.930 . S
C121 C120 1.369 . S
C121 C130 1.429 . S
C122 C120 1.419 . S
C122 C123 1.363 . S
C122 H125 0.929 . S
C123 C122 1.363 . S
C123 C129 1.428 . S
H124 C120 0.930 . S
H125 C122 0.929 . S
S126 N127 1.613 . S
S126 N128 1.610 . S
N127 S126 1.613 . S
N127 C130 1.350 . S
N128 S126 1.610 . S
N128 C129 1.351 . S
C129 C123 1.428 . S
C129 N128 1.351 . S
C129 C130 1.434 . S
C130 C121 1.429 . S
C130 N127 1.350 . S
C130 C129 1.434 . S
C131 C132 1.369 . S
C131 C133 1.419 . S
C131 H135 0.930 . S
C132 C131 1.369 . S
C132 C141 1.429 1_554 S
C133 C131 1.419 . S
C133 C134 1.363 . S
C133 H136 0.929 . S
C134 C133 1.363 . S
C134 C140 1.428 1_554 S
H135 C131 0.930 . S
H136 C133 0.929 . S
S137 N138 1.613 . S
S137 N139 1.610 . S
N138 S137 1.613 . S
N138 C141 1.350 . S
N139 S137 1.610 . S
N139 C140 1.351 . S
C140 C134 1.428 1_556 S
C140 N139 1.351 . S
C140 C141 1.434 . S
C141 C132 1.429 1_556 S
C141 N138 1.350 . S
C141 C140 1.434 . S
C142 C143 1.369 . S
C142 C144 1.419 . S
C142 H146 0.930 . S
C143 C142 1.369 . S
C143 C152 1.429 . S
C144 C142 1.419 . S
C144 C145 1.363 . S
C144 H147 0.929 . S
C145 C144 1.363 . S
C145 C151 1.428 . S
H146 C142 0.930 . S
H147 C144 0.929 . S
S148 N149 1.613 . S
S148 N150 1.610 . S
N149 S148 1.613 . S
N149 C152 1.350 . S
N150 S148 1.610 . S
N150 C151 1.351 . S
C151 C145 1.428 . S
C151 N150 1.351 . S
C151 C152 1.434 . S
C152 C143 1.429 . S
C152 N149 1.350 . S
C152 C151 1.434 . S
C153 C154 1.369 1_556 S
C153 C155 1.419 . S
C153 H157 0.930 . S
C154 C153 1.369 1_554 S
C154 C163 1.429 . S
C155 C153 1.419 . S
C155 C156 1.363 1_556 S
C155 H158 0.929 . S
C156 C155 1.363 1_554 S
C156 C162 1.428 . S
H157 C153 0.930 . S
H158 C155 0.929 . S
S159 N160 1.613 . S
S159 N161 1.610 . S
N160 S159 1.613 . S
N160 C163 1.350 . S
N161 S159 1.610 . S
N161 C162 1.351 . S
C162 C156 1.428 . S
C162 N161 1.351 . S
C162 C163 1.434 . S
C163 C154 1.429 . S
C163 N160 1.350 . S
C163 C162 1.434 . S
C164 C165 1.369 . S
C164 C166 1.419 . S
C164 H168 0.930 . S
C165 C164 1.369 . S
C165 C174 1.429 . S
C166 C164 1.419 . S
C166 C167 1.363 . S
C166 H169 0.929 . S
C167 C166 1.363 . S
C167 C173 1.428 . S
H168 C164 0.930 . S
H169 C166 0.929 . S
S170 N171 1.613 . S
S170 N172 1.610 . S
N171 S170 1.613 . S
N171 C174 1.350 . S
N172 S170 1.610 . S
N172 C173 1.351 . S
C173 C167 1.428 . S
C173 N172 1.351 . S
C173 C174 1.434 . S
C174 C165 1.429 . S
C174 N171 1.350 . S
C174 C173 1.434 . S
C175 C176 1.369 . S
C175 C177 1.419 . S
C175 H179 0.930 . S
C176 C175 1.369 . S
C176 C185 1.429 . S
C177 C175 1.419 . S
C177 C178 1.363 . S
C177 H180 0.929 . S
C178 C177 1.363 . S
C178 C184 1.428 . S
H179 C175 0.930 . S
H180 C177 0.929 . S
S181 N182 1.613 . S
S181 N183 1.610 . S
N182 S181 1.613 . S
N182 C185 1.350 . S
N183 S181 1.610 . S
N183 C184 1.351 . S
C184 C178 1.428 . S
C184 N183 1.351 . S
C184 C185 1.434 . S
C185 C176 1.429 . S
C185 N182 1.350 . S
C185 C184 1.434 . S
C186 C187 1.369 . S
C186 C188 1.419 . S
C186 H190 0.930 . S
C187 C186 1.369 . S
C187 C196 1.429 . S
C188 C186 1.419 . S
C188 C189 1.363 . S
C188 H191 0.929 . S
C189 C188 1.363 . S
C189 C195 1.428 . S
H190 C186 0.930 . S
H191 C188 0.929 . S
S192 N193 1.613 . S
S192 N194 1.610 . S
N193 S192 1.613 . S
N193 C196 1.350 . S
N194 S192 1.610 . S
N194 C195 1.351 . S
C195 C189 1.428 . S
C195 N194 1.351 . S
C195 C196 1.434 . S
C196 C187 1.429 . S
C196 N193 1.350 . S
C196 C195 1.434 . S
C197 C198 1.369 . S
C197 C199 1.419 . S
C197 H201 0.930 . S
C198 C197 1.369 . S
C198 C207 1.429 . S
C199 C197 1.419 . S
C199 C200 1.363 . S
C199 H202 0.929 . S
C200 C199 1.363 . S
C200 C206 1.428 . S
H201 C197 0.930 . S
H202 C199 0.929 . S
S203 N204 1.613 . S
S203 N205 1.610 . S
N204 S203 1.613 . S
N204 C207 1.350 . S
N205 S203 1.610 . S
N205 C206 1.351 . S
C206 C200 1.428 . S
C206 N205 1.351 . S
C206 C207 1.434 . S
C207 C198 1.429 . S
C207 N204 1.350 . S
C207 C206 1.434 . S
C208 C209 1.369 . S
C208 C210 1.419 . S
C208 H212 0.930 . S
C209 C208 1.369 . S
C209 C218 1.429 . S
C210 C208 1.419 . S
C210 C211 1.363 . S
C210 H213 0.929 . S
C211 C210 1.363 . S
C211 C217 1.428 . S
H212 C208 0.930 . S
H213 C210 0.929 . S
S214 N215 1.613 . S
S214 N216 1.610 . S
N215 S214 1.613 . S
N215 C218 1.350 . S
N216 S214 1.610 . S
N216 C217 1.351 . S
C217 C211 1.428 . S
C217 N216 1.351 . S
C217 C218 1.434 . S
C218 C209 1.429 . S
C218 N215 1.350 . S
C218 C217 1.434 . S
C219 C220 1.369 . S
C219 C221 1.419 . S
C219 H223 0.930 . S
C220 C219 1.369 . S
C220 C229 1.429 . S
C221 C219 1.419 . S
C221 C222 1.363 . S
C221 H224 0.929 . S
C222 C221 1.363 . S
C222 C228 1.428 . S
H223 C219 0.930 . S
H224 C221 0.929 . S
S225 N226 1.613 . S
S225 N227 1.610 . S
N226 S225 1.613 . S
N226 C229 1.350 . S
N227 S225 1.610 . S
N227 C228 1.351 . S
C228 C222 1.428 . S
C228 N227 1.351 . S
C228 C229 1.434 . S
C229 C220 1.429 . S
C229 N226 1.350 . S
C229 C228 1.434 . S
C230 C231 1.369 . S
C230 C232 1.419 . S
C230 H234 0.930 . S
C231 C230 1.369 . S
C231 C240 1.429 . S
C232 C230 1.419 . S
C232 C233 1.363 . S
C232 H235 0.929 . S
C233 C232 1.363 . S
C233 C239 1.428 . S
H234 C230 0.930 . S
H235 C232 0.929 . S
S236 N237 1.613 . S
S236 N238 1.610 . S
N237 S236 1.613 . S
N237 C240 1.350 . S
N238 S236 1.610 . S
N238 C239 1.351 . S
C239 C233 1.428 . S
C239 N238 1.351 . S
C239 C240 1.434 . S
C240 C231 1.429 . S
C240 N237 1.350 . S
C240 C239 1.434 . S
C241 C242 1.369 . S
C241 C243 1.419 . S
C241 H245 0.930 . S
C242 C241 1.369 . S
C242 C251 1.429 . S
C243 C241 1.419 . S
C243 C244 1.363 . S
C243 H246 0.929 . S
C244 C243 1.363 . S
C244 C250 1.428 . S
H245 C241 0.930 . S
H246 C243 0.929 . S
S247 N248 1.613 . S
S247 N249 1.610 . S
N248 S247 1.613 . S
N248 C251 1.350 . S
N249 S247 1.610 . S
N249 C250 1.351 . S
C250 C244 1.428 . S
C250 N249 1.351 . S
C250 C251 1.434 . S
C251 C242 1.429 . S
C251 N248 1.350 . S
C251 C250 1.434 . S
C123 C56 1.508 . S
C121 N41 1.509 . S
C132 N2 1.509 . S
C134 C99 1.507 . S
C143 N15 1.509 . S
C145 C65 1.508 . S
C154 N28 1.508 . S
C156 C90 1.508 . S
C167 C52 1.515 . S
C165 N5 1.511 . S
C178 C94 1.513 . S
C176 N14 1.510 . S
C187 N27 1.505 . S
C189 C60 1.511 . S
C198 N44 1.509 . S
C200 C86 1.515 . S
C211 C115 1.515 . S
C209 N18 1.507 . S
C222 C81 1.516 . S
C220 N31 1.510 . S
C233 C103 1.512 . S
C231 N40 1.511 . S
C242 N1 1.508 . S
C244 C69 1.512 . S
