# Generated by pormake.
# Topology tsx, (6,3)-cn, num edge types: 1
# Building blocks:
#     Node 0, Type 0, BuildingBlock: MIDCAF_clean_sbu_0, # of connection points: 6
#     Node 1, Type 0, BuildingBlock: MIDCAF_clean_sbu_0, # of connection points: 6
#     Node 2, Type 1, BuildingBlock: KAKCAD_clean_linker_0, # of connection points: 3
#     Node 3, Type 1, BuildingBlock: KAKCAD_clean_linker_0, # of connection points: 3
#     Node 4, Type 1, BuildingBlock: KAKCAD_clean_linker_0, # of connection points: 3
#     Node 5, Type 1, BuildingBlock: KAKCAD_clean_linker_0, # of connection points: 3
#     Edge 6, Type (0, 1), BuildingBlock: EYOCIG_clean_linker_4, # of connection points: 2
#     Edge 7, Type (0, 1), BuildingBlock: EYOCIG_clean_linker_4, # of connection points: 2
#     Edge 8, Type (0, 1), BuildingBlock: EYOCIG_clean_linker_4, # of connection points: 2
#     Edge 9, Type (0, 1), BuildingBlock: EYOCIG_clean_linker_4, # of connection points: 2
#     Edge 10, Type (0, 1), BuildingBlock: EYOCIG_clean_linker_4, # of connection points: 2
#     Edge 11, Type (0, 1), BuildingBlock: EYOCIG_clean_linker_4, # of connection points: 2
#     Edge 12, Type (0, 1), BuildingBlock: EYOCIG_clean_linker_4, # of connection points: 2
#     Edge 13, Type (0, 1), BuildingBlock: EYOCIG_clean_linker_4, # of connection points: 2
#     Edge 14, Type (0, 1), BuildingBlock: EYOCIG_clean_linker_4, # of connection points: 2
#     Edge 15, Type (0, 1), BuildingBlock: EYOCIG_clean_linker_4, # of connection points: 2
#     Edge 16, Type (0, 1), BuildingBlock: EYOCIG_clean_linker_4, # of connection points: 2
#     Edge 17, Type (0, 1), BuildingBlock: EYOCIG_clean_linker_4, # of connection points: 2
# Relax obj value: 0.118
# Max RMSD: 0.182
# Mean RMSD: 0.113
data_MOF--net-tsx--node1-MIDCAF_clean_sbu_0--node2-KAKCAD_clean_linker_0--edge1-EYOCIG_clean_linker_4
_symmetry_space_group_name_H-M    P1
_symmetry_Int_Tables_number       1
_symmetry_cell_setting            triclinic
loop_
_symmetry_equiv_pos_as_xyz
'x, y, z'
_cell_length_a     19.116676
_cell_length_b     21.747881
_cell_length_c     39.060813
_cell_angle_alpha  90.648948
_cell_angle_beta   97.650062
_cell_angle_gamma 89.993415
loop_
_atom_site_label
_atom_site_type_symbol
_atom_site_fract_x
_atom_site_fract_y
_atom_site_fract_z
_atom_type_partial_charge
Zn0 Zn 0.93718 -0.01995 0.9749 0.0
Zn1 Zn 0.17538 -0.01891 0.05101 0.0
Zn2 Zn 0.05637 -0.02132 0.01309 0.0
C3 C 0.1551 0.09727 0.02494 0.0
C4 C 0.18575 0.89189 0.00144 0.0
O5 O 0.98304 0.9206 0.03816 0.0
O6 O 0.89887 0.90499 0.99421 0.0
C7 C 0.95766 0.09698 0.00169 0.0
O8 O 0.09214 0.07531 0.01841 0.0
O9 O 0.20601 0.06307 0.0363 0.0
O10 O 0.21394 0.90555 0.03159 0.0
O11 O 0.12976 0.91999 0.98772 0.0
O12 O 0.90677 0.06254 0.98999 0.0
O13 O 1.02055 0.07514 0.00826 0.0
O14 O 0.07685 0.94099 0.96281 0.0
O15 O 0.97987 -0.02565 0.9312 0.0
C16 C 0.04101 0.95176 0.9332 0.0
O17 O 0.03616 0.94207 0.06321 0.0
O18 O 0.13325 -0.02343 0.09478 0.0
C19 C 0.92705 0.89212 0.02431 0.0
C20 C 0.07223 0.95369 0.0928 0.0
Zn21 Zn 0.67594 0.48198 0.55126 0.0
Zn22 Zn 0.43762 0.48005 0.47501 0.0
Zn23 Zn 0.55687 0.47898 0.51324 0.0
C24 C 0.54164 0.45186 0.43337 0.0
C25 C 0.45772 0.59706 0.50165 0.0
O26 O 0.53681 0.44221 0.56335 0.0
O27 O 0.6337 0.47698 0.59498 0.0
C28 C 0.68676 0.39279 0.50167 0.0
O29 O 0.57755 0.44132 0.46298 0.0
O30 O 0.48039 0.47425 0.43134 0.0
O31 O 0.40692 0.56254 0.48994 0.0
O32 O 0.52063 0.5753 0.50831 0.0
O33 O 0.71496 0.4067 0.53178 0.0
O34 O 0.63056 0.42055 0.48794 0.0
O35 O 0.59217 0.57576 0.5186 0.0
O36 O 0.70606 0.5642 0.53668 0.0
C37 C 0.65493 0.59811 0.52524 0.0
O38 O 0.48373 0.42064 0.5383 0.0
O39 O 0.3995 0.40497 0.49438 0.0
C40 C 0.5728 0.45383 0.59296 0.0
C41 C 0.42778 0.39209 0.52446 0.0
C42 C 0.06348 0.92542 0.28031 0.0
C43 C 0.05412 -0.02481 0.25782 0.0
C44 C 0.07524 0.9355 0.31598 0.0
C45 C 0.07802 -0.00434 0.32978 0.0
C46 C 0.06901 0.04557 0.30697 0.0
C47 C 0.05721 0.03535 0.27121 0.0
C48 C 0.08805 0.00566 0.36785 0.0
C49 C 0.1351 0.96886 0.38925 0.0
C50 C 0.13979 -0.02694 0.42545 0.0
C51 C 0.09834 0.01683 0.44033 0.0
C52 C 0.05248 0.05549 0.41916 0.0
C53 C 0.04762 0.04936 0.38305 0.0
C54 C 1.00629 0.10056 0.43397 0.0
C55 C 0.96386 0.08289 0.45899 0.0
C56 C 0.9992 0.1602 0.42043 0.0
C57 C 0.94839 0.2003 0.43031 0.0
C58 C 0.90384 0.18148 0.45385 0.0
C59 C 0.18697 0.93006 0.44697 0.0
C60 C 0.19143 0.86836 0.43624 0.0
C61 C 0.2307 0.95036 0.47685 0.0
C62 C 0.28046 0.91042 0.49443 0.0
C63 C 0.28662 0.84999 0.48231 0.0
C64 C 0.24101 0.8289 0.45364 0.0
C65 C 0.91265 0.12317 0.4688 0.0
H66 H 0.06157 0.87869 0.2703 0.0
H67 H 0.0809 0.89602 0.33277 0.0
H68 H 0.0716 0.09244 0.31675 0.0
H69 H 0.05076 0.07436 0.25406 0.0
H70 H 0.16824 0.93651 0.37756 0.0
H71 H 1.00981 0.07697 0.36673 0.0
H72 H 0.10108 0.02037 0.46818 0.0
H73 H 0.96802 0.03712 0.46973 0.0
H74 H 0.03182 0.17523 0.40145 0.0
H75 H 0.94272 0.2455 0.41886 0.0
H76 H 0.15738 0.85074 0.4139 0.0
H77 H 0.22841 -0.00246 0.4858 0.0
H78 H 0.87885 0.10822 0.48728 0.0
H79 H 0.24474 0.78212 0.44417 0.0
H80 H 0.31523 0.92716 0.51676 0.0
C81 C 0.06491 0.03113 0.75617 0.0
C82 C 0.06741 0.97101 0.76885 0.0
C83 C 0.05444 0.04123 0.72052 0.0
C84 C 0.04613 -0.00875 0.69711 0.0
C85 C 0.04878 0.93111 0.71017 0.0
C86 C 0.05925 0.92115 0.74574 0.0
C87 C 0.03578 0.00123 0.65917 0.0
C88 C 0.0758 0.04517 0.64437 0.0
C89 C 0.06945 0.05208 0.60831 0.0
C90 C 0.02243 0.01395 0.58683 0.0
C91 C 0.98165 0.96981 0.60135 0.0
C92 C 0.98799 0.96471 0.63748 0.0
C93 C 0.93301 0.92759 0.57949 0.0
C94 C 0.88662 0.9492 0.55115 0.0
C95 C 0.92943 0.86542 0.58867 0.0
C96 C 0.87811 0.8267 0.57139 0.0
C97 C 0.82979 0.84909 0.5444 0.0
C98 C 0.11482 0.09768 0.59377 0.0
C99 C 0.12393 0.15662 0.6089 0.0
C100 C 0.15404 0.08131 0.56701 0.0
C101 C 0.20399 0.12215 0.5569 0.0
C102 C 0.21481 0.17972 0.5733 0.0
C103 C 0.17355 0.19724 0.59875 0.0
C104 C 0.83505 0.91004 0.5337 0.0
H105 H 0.0705 0.0702 0.77379 0.0
H106 H 0.05193 0.08807 0.71129 0.0
H107 H 0.0436 0.89161 0.69289 0.0
H108 H 0.06077 0.87444 0.75519 0.0
H109 H 0.11419 0.0725 0.66091 0.0
H110 H 0.95525 0.93207 0.64887 0.0
H111 H 1.01813 0.01822 0.55901 0.0
H112 H 0.8882 -0.00318 0.54345 0.0
H113 H 0.9654 0.84696 0.60984 0.0
H114 H 0.87507 0.77952 0.57976 0.0
H115 H 0.09371 0.1708 0.62919 0.0
H116 H 0.1483 0.03614 0.55498 0.0
H117 H 0.79813 0.9278 0.51269 0.0
H118 H 0.18077 0.24187 0.61135 0.0
H119 H 0.23522 0.1082 0.53694 0.0
C120 C 0.56407 0.42487 0.7805 0.0
C121 C 0.5548 0.47458 0.75797 0.0
C122 C 0.57573 0.43503 0.81617 0.0
C123 C 0.5785 0.49523 0.82992 0.0
C124 C 0.56962 0.54509 0.80707 0.0
C125 C 0.55793 0.53478 0.77131 0.0
C126 C 0.58831 0.50532 0.86798 0.0
C127 C 0.63521 0.46853 0.88946 0.0
C128 C 0.63959 0.47274 0.92565 0.0
C129 C 0.598 0.51651 0.94044 0.0
C130 C 0.55227 0.55515 0.91919 0.0
C131 C 0.54774 0.54903 0.88308 0.0
C132 C 0.50583 0.60015 0.93389 0.0
C133 C 0.46317 0.58239 0.95878 0.0
C134 C 0.49874 0.65979 0.92034 0.0
C135 C 0.44772 0.6998 0.9301 0.0
C136 C 0.40297 0.68089 0.95353 0.0
C137 C 0.68661 0.42971 0.94725 0.0
C138 C 0.69111 0.36801 0.93653 0.0
C139 C 0.73022 0.45001 0.97717 0.0
C140 C 0.77996 0.41009 0.99477 0.0
C141 C 0.78622 0.34967 0.98265 0.0
C142 C 0.74067 0.32857 0.95396 0.0
C143 C 0.41176 0.62258 0.96848 0.0
H144 H 0.56213 0.3781 0.77053 0.0
H145 H 0.58129 0.39559 0.83299 0.0
H146 H 0.57221 0.59197 0.81682 0.0
H147 H 0.55155 0.57374 0.75413 0.0
H148 H 0.66845 0.43617 0.87785 0.0
H149 H 0.51002 0.57661 0.8667 0.0
H150 H 0.60049 0.52004 0.96828 0.0
H151 H 0.46732 0.53661 0.96952 0.0
H152 H 0.53153 0.67489 0.90145 0.0
H153 H 0.44207 0.745 0.91867 0.0
H154 H 0.65713 0.3504 0.91416 0.0
H155 H 0.72788 0.49719 0.98611 0.0
H156 H 0.3778 0.60755 0.98688 0.0
H157 H 0.74445 0.2818 0.94448 0.0
H158 H 0.81467 0.42684 0.01712 0.0
C159 C 0.56439 0.53088 0.25625 0.0
C160 C 0.56721 0.47077 0.26894 0.0
C161 C 0.55384 0.54095 0.22059 0.0
C162 C 0.54576 0.49095 0.19718 0.0
C163 C 0.54866 0.43082 0.21027 0.0
C164 C 0.55922 0.42088 0.24584 0.0
C165 C 0.53546 0.50091 0.15924 0.0
C166 C 0.57532 0.54501 0.14447 0.0
C167 C 0.5691 0.55188 0.10841 0.0
C168 C 0.52237 0.51355 0.08691 0.0
C169 C 0.48176 0.46924 0.10139 0.0
C170 C 0.48795 0.46418 0.13752 0.0
C171 C 0.43344 0.42684 0.07948 0.0
C172 C 0.38728 0.44825 0.051 0.0
C173 C 0.42997 0.36468 0.08871 0.0
C174 C 0.37893 0.3258 0.07135 0.0
C175 C 0.3308 0.348 0.04422 0.0
C176 C 0.61434 0.59763 0.09389 0.0
C177 C 0.62329 0.65657 0.10903 0.0
C178 C 0.65353 0.58142 0.0671 0.0
C179 C 0.70331 0.6224 0.05697 0.0
C180 C 0.71399 0.67997 0.07339 0.0
C181 C 0.67274 0.69733 0.09887 0.0
C182 C 0.336 0.40892 0.03347 0.0
H183 H 0.56984 0.56997 0.27386 0.0
H184 H 0.55112 0.58778 0.21135 0.0
H185 H 0.54366 0.3913 0.19299 0.0
H186 H 0.56098 0.37418 0.2553 0.0
H187 H 0.61352 0.57249 0.16104 0.0
H188 H 0.45533 0.43142 0.14889 0.0
H189 H 0.51819 0.51779 0.05909 0.0
H190 H 0.38878 0.49584 0.04325 0.0
H191 H 0.46579 0.34636 0.10998 0.0
H192 H 0.37592 0.27864 0.07976 0.0
H193 H 0.59306 0.67064 0.12935 0.0
H194 H 0.64793 0.53626 0.05505 0.0
H195 H 0.29924 0.42653 0.01235 0.0
H196 H 0.67985 0.74196 0.11149 0.0
H197 H 0.73453 0.60856 0.03699 0.0
C198 C 0.19328 0.21199 0.01845 0.0
C199 C 0.16905 0.16116 0.02017 0.0
C200 C 0.23329 0.26674 0.02149 0.0
C201 C 0.27457 0.30803 0.02932 0.0
C202 C 0.25361 0.80356 0.97352 0.0
C203 C 0.21785 0.84414 0.98327 0.0
C204 C 0.30223 0.75782 0.96635 0.0
C205 C 0.34732 0.72131 0.96128 0.0
C206 C 0.85974 0.80423 0.05202 0.0
C207 C 0.89508 0.84471 0.04224 0.0
C208 C 0.81204 0.75823 0.05949 0.0
C209 C 0.76804 0.7212 0.06501 0.0
C210 C 0.92006 0.21208 0.00865 0.0
C211 C 0.94383 0.16104 0.00671 0.0
C212 C 0.88099 0.26725 0.00575 0.0
C213 C 0.84077 0.309 0.99794 0.0
C214 C 0.69231 0.71305 0.51877 0.0
C215 C 0.66842 0.66209 0.52047 0.0
C216 C 0.73211 0.76792 0.52179 0.0
C217 C 0.77341 0.80922 0.52956 0.0
C218 C 0.75479 0.30439 0.4739 0.0
C219 C 0.71897 0.34498 0.4836 0.0
C220 C 0.80335 0.25858 0.46677 0.0
C221 C 0.84832 0.22197 0.46167 0.0
C222 C 0.36074 0.30394 0.5521 0.0
C223 C 0.39598 0.34453 0.54237 0.0
C224 C 0.31305 0.25785 0.55948 0.0
C225 C 0.26899 0.22084 0.56494 0.0
C226 C 0.42012 0.71221 0.50844 0.0
C227 C 0.44381 0.66113 0.50657 0.0
C228 C 0.3812 0.76745 0.50548 0.0
C229 C 0.34108 0.80926 0.49762 0.0
C230 C 0.03322 0.94643 0.15429 0.0
C231 C 0.04284 0.94626 0.12442 0.0
C232 C 0.03468 0.95457 0.1903 0.0
C233 C 0.04352 0.96419 0.22104 0.0
C234 C 0.08196 0.94352 0.87199 0.0
C235 C 0.07107 0.94401 0.90169 0.0
C236 C 0.08264 0.95097 0.83616 0.0
C237 C 0.0757 0.96019 0.8055 0.0
C238 C 0.53387 0.446 0.65444 0.0
C239 C 0.54346 0.44606 0.62456 0.0
C240 C 0.53536 0.45395 0.69046 0.0
C241 C 0.54421 0.46351 0.72121 0.0
C242 C 0.58242 0.44351 0.37213 0.0
C243 C 0.57167 0.44407 0.40185 0.0
C244 C 0.58285 0.45085 0.33627 0.0
C245 C 0.57573 0.45998 0.3056 0.0
loop_
_geom_bond_atom_site_label_1
_geom_bond_atom_site_label_2
_geom_bond_distance
_geom_bond_site_symmetry_2
_ccdc_geom_bond_type
Zn0 O6 1.920 1_545 S
Zn0 O12 1.898 . S
Zn0 O15 1.905 1_545 S
Zn1 O9 1.905 . S
Zn1 O10 1.898 1_545 S
Zn1 O18 1.920 1_545 S
Zn2 O5 2.080 1_445 S
Zn2 O8 2.114 . S
Zn2 O11 2.120 1_545 S
Zn2 O13 2.120 1_455 S
Zn2 O14 2.114 1_554 S
Zn2 O17 2.080 . S
C3 O8 1.166 . S
C3 O9 1.182 . S
C4 O10 1.167 . S
C4 O11 1.299 . S
O5 Zn2 2.080 1_665 S
O5 C19 1.305 . S
O6 Zn0 1.920 1_565 S
O6 C19 1.234 1_556 S
C7 O12 1.167 . S
C7 O13 1.299 1_556 S
O8 Zn2 2.114 . S
O8 C3 1.166 . S
O9 Zn1 1.905 . S
O9 C3 1.182 . S
O10 Zn1 1.898 1_565 S
O10 C4 1.167 . S
O11 Zn2 2.120 1_565 S
O11 C4 1.299 . S
O12 Zn0 1.898 . S
O12 C7 1.167 . S
O13 Zn2 2.120 1_655 S
O13 C7 1.299 1_554 S
O14 Zn2 2.114 1_556 S
O14 C16 1.170 1_545 S
O15 Zn0 1.905 1_565 S
O15 C16 1.175 1_655 S
C16 O14 1.170 1_565 S
C16 O15 1.175 1_455 S
O17 Zn2 2.080 . S
O17 C20 1.305 1_545 S
O18 Zn1 1.920 1_565 S
O18 C20 1.234 . S
C19 O5 1.305 . S
C19 O6 1.234 1_554 S
C20 O17 1.305 1_565 S
C20 O18 1.234 . S
Zn21 O27 1.920 . S
Zn21 O33 1.898 . S
Zn21 O36 1.905 . S
Zn22 O30 1.905 . S
Zn22 O31 1.898 . S
Zn22 O39 1.920 . S
Zn23 O26 2.080 . S
Zn23 O29 2.114 . S
Zn23 O32 2.120 . S
Zn23 O34 2.120 . S
Zn23 O35 2.114 . S
Zn23 O38 2.080 . S
C24 O29 1.166 . S
C24 O30 1.182 . S
C25 O31 1.167 . S
C25 O32 1.299 . S
O26 Zn23 2.080 . S
O26 C40 1.305 . S
O27 Zn21 1.920 . S
O27 C40 1.234 . S
C28 O33 1.167 . S
C28 O34 1.299 . S
O29 Zn23 2.114 . S
O29 C24 1.166 . S
O30 Zn22 1.905 . S
O30 C24 1.182 . S
O31 Zn22 1.898 . S
O31 C25 1.167 . S
O32 Zn23 2.120 . S
O32 C25 1.299 . S
O33 Zn21 1.898 . S
O33 C28 1.167 . S
O34 Zn23 2.120 . S
O34 C28 1.299 . S
O35 Zn23 2.114 . S
O35 C37 1.166 . S
O36 Zn21 1.905 . S
O36 C37 1.182 . S
C37 O35 1.166 . S
C37 O36 1.182 . S
O38 Zn23 2.080 . S
O38 C41 1.305 . S
O39 Zn22 1.920 . S
O39 C41 1.234 . S
C40 O26 1.305 . S
C40 O27 1.234 . S
C41 O38 1.305 . S
C41 O39 1.234 . S
C42 C43 1.386 1_565 S
C42 C44 1.397 . S
C42 H66 0.931 . S
C43 C42 1.386 1_545 S
C43 C47 1.397 . S
C44 C42 1.397 . S
C44 C45 1.384 1_565 S
C44 H67 0.930 . S
C45 C44 1.384 1_545 S
C45 C46 1.377 . S
C45 C48 1.481 . S
C46 C45 1.377 . S
C46 C47 1.389 . S
C46 H68 0.929 . S
C47 C43 1.397 . S
C47 C46 1.389 . S
C47 H69 0.931 . S
C48 C45 1.481 . S
C48 C49 1.387 1_545 S
C48 C53 1.390 . S
C49 C48 1.387 1_565 S
C49 C50 1.401 . S
C49 H70 0.930 . S
C50 C49 1.401 . S
C50 C51 1.376 1_565 S
C50 C59 1.511 . S
C51 C50 1.376 1_545 S
C51 C52 1.392 . S
C51 H72 0.931 . S
C52 C51 1.392 . S
C52 C53 1.361 . S
C52 C54 1.500 1_455 S
C53 C48 1.390 . S
C53 C52 1.361 . S
C53 H71 0.931 . S
C54 C52 1.500 1_655 S
C54 C55 1.371 . S
C54 C56 1.365 . S
C55 C54 1.371 . S
C55 C65 1.386 . S
C55 H73 0.931 . S
C56 C54 1.365 . S
C56 C57 1.409 . S
C56 H74 0.929 . S
C57 C56 1.409 . S
C57 C58 1.380 . S
C57 H75 0.930 . S
C58 C57 1.380 . S
C58 C65 1.357 . S
C59 C50 1.511 . S
C59 C60 1.341 . S
C59 C61 1.371 . S
C60 C59 1.341 . S
C60 C64 1.394 . S
C60 H76 0.930 . S
C61 C59 1.371 . S
C61 C62 1.392 . S
C61 H77 0.931 . S
C62 C61 1.392 . S
C62 C63 1.331 . S
C62 H80 0.932 . S
C63 C62 1.331 . S
C63 C64 1.336 . S
C64 C60 1.394 . S
C64 C63 1.336 . S
C64 H79 0.929 . S
C65 C55 1.386 . S
C65 C58 1.357 . S
C65 H78 0.928 . S
H66 C42 0.931 . S
H67 C44 0.930 . S
H68 C46 0.929 . S
H69 C47 0.931 . S
H70 C49 0.930 . S
H71 C53 0.931 . S
H72 C51 0.931 . S
H73 C55 0.931 . S
H74 C56 0.929 . S
H75 C57 0.930 . S
H76 C60 0.930 . S
H77 C61 0.931 . S
H78 C65 0.928 . S
H79 C64 0.929 . S
H80 C62 0.932 . S
C81 C82 1.386 . S
C81 C83 1.397 . S
C81 H105 0.931 . S
C82 C81 1.386 . S
C82 C86 1.397 1_545 S
C83 C81 1.397 . S
C83 C84 1.384 . S
C83 H106 0.930 . S
C84 C83 1.384 . S
C84 C85 1.377 1_545 S
C84 C87 1.481 . S
C85 C84 1.377 1_565 S
C85 C86 1.389 . S
C85 H107 0.929 . S
C86 C82 1.397 1_565 S
C86 C85 1.389 . S
C86 H108 0.931 . S
C87 C84 1.481 . S
C87 C88 1.387 . S
C87 C92 1.390 1_445 S
C88 C87 1.387 . S
C88 C89 1.401 . S
C88 H109 0.930 . S
C89 C88 1.401 . S
C89 C90 1.367 1_455 S
C89 C98 1.511 . S
C90 C89 1.367 1_655 S
C90 C91 1.401 1_545 S
C90 H111 0.931 . S
C91 C90 1.401 1_565 S
C91 C92 1.361 . S
C91 C93 1.500 . S
C92 C87 1.390 1_665 S
C92 C91 1.361 . S
C92 H110 0.931 . S
C93 C91 1.500 . S
C93 C94 1.371 . S
C93 C95 1.365 . S
C94 C93 1.371 . S
C94 C104 1.386 . S
C94 H112 0.931 . S
C95 C93 1.365 . S
C95 C96 1.409 . S
C95 H113 0.929 . S
C96 C95 1.409 . S
C96 C97 1.380 . S
C96 H114 0.930 . S
C97 C96 1.380 . S
C97 C104 1.357 . S
C98 C89 1.511 . S
C98 C99 1.341 . S
C98 C100 1.371 . S
C99 C98 1.341 . S
C99 C103 1.394 . S
C99 H115 0.930 . S
C100 C98 1.371 . S
C100 C101 1.392 . S
C100 H116 0.931 . S
C101 C100 1.392 . S
C101 C102 1.331 . S
C101 H119 0.932 . S
C102 C101 1.331 . S
C102 C103 1.336 . S
C103 C99 1.394 . S
C103 C102 1.336 . S
C103 H118 0.929 . S
C104 C94 1.386 . S
C104 C97 1.357 . S
C104 H117 0.928 . S
H105 C81 0.931 . S
H106 C83 0.930 . S
H107 C85 0.929 . S
H108 C86 0.931 . S
H109 C88 0.930 . S
H110 C92 0.931 . S
H111 C90 0.931 . S
H112 C94 0.931 . S
H113 C95 0.929 . S
H114 C96 0.930 . S
H115 C99 0.930 . S
H116 C100 0.931 . S
H117 C104 0.928 . S
H118 C103 0.929 . S
H119 C101 0.932 . S
C120 C121 1.386 . S
C120 C122 1.397 . S
C120 H144 0.931 . S
C121 C120 1.386 . S
C121 C125 1.397 . S
C122 C120 1.397 . S
C122 C123 1.384 . S
C122 H145 0.930 . S
C123 C122 1.384 . S
C123 C124 1.377 . S
C123 C126 1.481 . S
C124 C123 1.377 . S
C124 C125 1.389 . S
C124 H146 0.929 . S
C125 C121 1.397 . S
C125 C124 1.389 . S
C125 H147 0.931 . S
C126 C123 1.481 . S
C126 C127 1.387 . S
C126 C131 1.390 . S
C127 C126 1.387 . S
C127 C128 1.401 . S
C127 H148 0.930 . S
C128 C127 1.401 . S
C128 C129 1.376 . S
C128 C137 1.511 . S
C129 C128 1.376 . S
C129 C130 1.392 . S
C129 H150 0.931 . S
C130 C129 1.392 . S
C130 C131 1.361 . S
C130 C132 1.500 . S
C131 C126 1.390 . S
C131 C130 1.361 . S
C131 H149 0.931 . S
C132 C130 1.500 . S
C132 C133 1.371 . S
C132 C134 1.365 . S
C133 C132 1.371 . S
C133 C143 1.386 . S
C133 H151 0.931 . S
C134 C132 1.365 . S
C134 C135 1.409 . S
C134 H152 0.929 . S
C135 C134 1.409 . S
C135 C136 1.380 . S
C135 H153 0.930 . S
C136 C135 1.380 . S
C136 C143 1.357 . S
C137 C128 1.511 . S
C137 C138 1.341 . S
C137 C139 1.371 . S
C138 C137 1.341 . S
C138 C142 1.394 . S
C138 H154 0.930 . S
C139 C137 1.371 . S
C139 C140 1.392 . S
C139 H155 0.931 . S
C140 C139 1.392 . S
C140 C141 1.331 . S
C140 H158 0.932 1_556 S
C141 C140 1.331 . S
C141 C142 1.336 . S
C142 C138 1.394 . S
C142 C141 1.336 . S
C142 H157 0.929 . S
C143 C133 1.386 . S
C143 C136 1.357 . S
C143 H156 0.928 1_556 S
H144 C120 0.931 . S
H145 C122 0.930 . S
H146 C124 0.929 . S
H147 C125 0.931 . S
H148 C127 0.930 . S
H149 C131 0.931 . S
H150 C129 0.931 . S
H151 C133 0.931 . S
H152 C134 0.929 . S
H153 C135 0.930 . S
H154 C138 0.930 . S
H155 C139 0.931 . S
H156 C143 0.928 1_554 S
H157 C142 0.929 . S
H158 C140 0.932 1_554 S
C159 C160 1.386 . S
C159 C161 1.397 . S
C159 H183 0.931 . S
C160 C159 1.386 . S
C160 C164 1.397 . S
C161 C159 1.397 . S
C161 C162 1.384 . S
C161 H184 0.930 . S
C162 C161 1.384 . S
C162 C163 1.377 . S
C162 C165 1.481 . S
C163 C162 1.377 . S
C163 C164 1.389 . S
C163 H185 0.929 . S
C164 C160 1.397 . S
C164 C163 1.389 . S
C164 H186 0.931 . S
C165 C162 1.481 . S
C165 C166 1.387 . S
C165 C170 1.390 . S
C166 C165 1.387 . S
C166 C167 1.401 . S
C166 H187 0.930 . S
C167 C166 1.401 . S
C167 C168 1.376 . S
C167 C176 1.511 . S
C168 C167 1.376 . S
C168 C169 1.392 . S
C168 H189 0.931 . S
C169 C168 1.392 . S
C169 C170 1.361 . S
C169 C171 1.500 . S
C170 C165 1.390 . S
C170 C169 1.361 . S
C170 H188 0.931 . S
C171 C169 1.500 . S
C171 C172 1.371 . S
C171 C173 1.365 . S
C172 C171 1.371 . S
C172 C182 1.386 . S
C172 H190 0.931 . S
C173 C171 1.365 . S
C173 C174 1.409 . S
C173 H191 0.929 . S
C174 C173 1.409 . S
C174 C175 1.380 . S
C174 H192 0.930 . S
C175 C174 1.380 . S
C175 C182 1.357 . S
C176 C167 1.511 . S
C176 C177 1.341 . S
C176 C178 1.371 . S
C177 C176 1.341 . S
C177 C181 1.394 . S
C177 H193 0.930 . S
C178 C176 1.371 . S
C178 C179 1.392 . S
C178 H194 0.931 . S
C179 C178 1.392 . S
C179 C180 1.331 . S
C179 H197 0.932 . S
C180 C179 1.331 . S
C180 C181 1.336 . S
C181 C177 1.394 . S
C181 C180 1.336 . S
C181 H196 0.929 . S
C182 C172 1.386 . S
C182 C175 1.357 . S
C182 H195 0.928 . S
H183 C159 0.931 . S
H184 C161 0.930 . S
H185 C163 0.929 . S
H186 C164 0.931 . S
H187 C166 0.930 . S
H188 C170 0.931 . S
H189 C168 0.931 . S
H190 C172 0.931 . S
H191 C173 0.929 . S
H192 C174 0.930 . S
H193 C177 0.930 . S
H194 C178 0.931 . S
H195 C182 0.928 . S
H196 C181 0.929 . S
H197 C179 0.932 . S
C198 C199 1.170 . S
C198 C200 1.380 . S
C199 C198 1.170 . S
C200 C198 1.380 . S
C200 C201 1.170 . S
C201 C200 1.170 . S
C202 C203 1.170 . S
C202 C204 1.380 . S
C203 C202 1.170 . S
C204 C202 1.380 . S
C204 C205 1.170 . S
C205 C204 1.170 . S
C206 C207 1.170 . S
C206 C208 1.380 . S
C207 C206 1.170 . S
C208 C206 1.380 . S
C208 C209 1.170 . S
C209 C208 1.170 . S
C210 C211 1.169 1_556 S
C210 C212 1.382 . S
C211 C210 1.169 1_554 S
C212 C210 1.382 . S
C212 C213 1.170 . S
C213 C212 1.170 . S
C214 C215 1.170 . S
C214 C216 1.380 . S
C215 C214 1.170 . S
C216 C214 1.380 . S
C216 C217 1.170 . S
C217 C216 1.170 . S
C218 C219 1.170 . S
C218 C220 1.380 . S
C219 C218 1.170 . S
C220 C218 1.380 . S
C220 C221 1.170 . S
C221 C220 1.170 . S
C222 C223 1.170 . S
C222 C224 1.380 . S
C223 C222 1.170 . S
C224 C222 1.380 . S
C224 C225 1.170 . S
C225 C224 1.170 . S
C226 C227 1.170 . S
C226 C228 1.380 . S
C227 C226 1.170 . S
C228 C226 1.380 . S
C228 C229 1.170 . S
C229 C228 1.170 . S
C230 C231 1.170 1_545 S
C230 C232 1.380 . S
C231 C230 1.170 1_565 S
C232 C230 1.380 . S
C232 C233 1.170 . S
C233 C232 1.170 . S
C234 C235 1.170 1_545 S
C234 C236 1.380 . S
C235 C234 1.170 1_565 S
C236 C234 1.380 . S
C236 C237 1.170 . S
C237 C236 1.170 . S
C238 C239 1.170 . S
C238 C240 1.380 . S
C239 C238 1.170 . S
C240 C238 1.380 . S
C240 C241 1.170 . S
C241 C240 1.170 . S
C242 C243 1.170 . S
C242 C244 1.380 . S
C243 C242 1.170 . S
C244 C242 1.380 . S
C244 C245 1.170 . S
C245 C244 1.170 . S
C201 C175 1.313 . S
C199 C3 1.210 . S
C203 C4 1.521 1_556 S
C205 C136 1.604 . S
C207 C19 1.512 . S
C209 C180 1.623 . S
C211 C7 1.213 1_554 S
C213 C141 1.318 . S
C215 C37 1.224 . S
C217 C97 1.308 . S
C219 C28 1.467 . S
C221 C58 1.625 . S
C225 C102 1.622 . S
C223 C41 1.543 . S
C229 C63 1.329 . S
C227 C25 1.247 . S
C231 C20 1.285 . S
C233 C43 1.498 . S
C235 C16 1.328 . S
C237 C82 1.540 . S
C241 C121 1.494 . S
C239 C40 1.279 . S
C243 C24 1.325 . S
C245 C160 1.540 . S
