# Generated by pormake.
# Topology pts, (4,4)-cn, num edge types: 1
# Building blocks:
#     Node 0, Type 0, BuildingBlock: MIFKUJ_clean_linker_1, # of connection points: 4
#     Node 1, Type 0, BuildingBlock: MIFKUJ_clean_linker_1, # of connection points: 4
#     Node 2, Type 1, BuildingBlock: QUQFOY_clean_sbu_1, # of connection points: 4
#     Node 3, Type 1, BuildingBlock: QUQFOY_clean_sbu_1, # of connection points: 4
#     Edge 4, Type (0, 1), None
#     Edge 5, Type (0, 1), None
#     Edge 6, Type (0, 1), None
#     Edge 7, Type (0, 1), None
#     Edge 8, Type (0, 1), None
#     Edge 9, Type (0, 1), None
#     Edge 10, Type (0, 1), None
#     Edge 11, Type (0, 1), None
# Relax obj value: 0.093
# Max RMSD: 0.255
# Mean RMSD: 0.152
data_MOF--net-pts--node1-QUQFOY_clean_sbu_1--node2-MIFKUJ_clean_linker_1--edge1-none
_symmetry_space_group_name_H-M    P1
_symmetry_Int_Tables_number       1
_symmetry_cell_setting            triclinic
loop_
_symmetry_equiv_pos_as_xyz
'x, y, z'
_cell_length_a     16.882287
_cell_length_b     17.757226
_cell_length_c     21.839524
_cell_angle_alpha  90.776608
_cell_angle_beta   89.74551
_cell_angle_gamma 89.843534
loop_
_atom_site_label
_atom_site_type_symbol
_atom_site_fract_x
_atom_site_fract_y
_atom_site_fract_z
_atom_type_partial_charge
H0 H 0.58082 0.88342 0.15061 0.0
H1 H 0.70478 0.88322 0.20873 0.0
H2 H 0.74894 0.11232 0.15354 0.0
H3 H 0.62579 0.11153 0.09517 0.0
H4 H 0.44889 0.98554 0.16574 0.0
H5 H 0.62337 0.8947 1.00561 0.0
H6 H 0.74598 0.89372 0.94578 0.0
H7 H 0.70161 0.12364 0.89257 0.0
H8 H 0.57808 0.12361 0.95216 0.0
H9 H 0.31264 0.12502 0.95591 0.0
H10 H 0.18868 0.12522 0.89779 0.0
H11 H 0.1445 0.89613 0.95298 0.0
H12 H 0.26765 0.89691 1.01135 0.0
H13 H 0.44456 0.0229 0.94079 0.0
H14 H 0.27008 0.11373 0.10091 0.0
H15 H 0.14747 0.11472 0.16075 0.0
H16 H 0.19184 0.88481 0.21397 0.0
H17 H 0.31537 0.88483 0.15437 0.0
C18 C 0.59463 -0.00267 0.11851 0.0
C19 C 0.61752 0.93337 0.15106 0.0
C20 C 0.68834 0.93333 0.18402 0.0
C21 C 0.73652 -0.00218 0.1858 0.0
C22 C 0.713 0.06188 0.15331 0.0
C23 C 0.64288 0.06146 0.11972 0.0
C24 C 0.51949 -0.00186 0.08408 0.0
C25 C 0.44793 0.9925 0.11646 0.0
C26 C 0.51829 0.0093 1.02015 0.0
C27 C 0.59214 0.00935 0.98348 0.0
C28 C 0.64013 0.94481 0.98099 0.0
C29 C 0.70994 0.94429 0.94654 0.0
C30 C 0.73351 0.00865 0.91442 0.0
C31 C 0.68514 0.07327 0.91693 0.0
C32 C 0.61459 0.07334 0.95078 0.0
C33 C 0.29881 0.01111 0.98802 0.0
C34 C 0.27593 0.07506 0.95547 0.0
C35 C 0.20511 0.07511 0.9225 0.0
C36 C 0.15693 0.01062 0.92072 0.0
C37 C 0.18045 0.94656 0.95322 0.0
C38 C 0.25056 0.94698 0.9868 0.0
C39 C 0.37396 0.0103 1.02245 0.0
C40 C 0.44552 0.01594 0.99006 0.0
C41 C 0.37516 -0.00086 0.08638 0.0
C42 C 0.30131 -0.00091 0.12304 0.0
C43 C 0.25332 0.06362 0.12554 0.0
C44 C 0.18351 0.06415 0.15999 0.0
C45 C 0.15994 -0.0002 0.19211 0.0
C46 C 0.20831 0.93517 0.1896 0.0
C47 C 0.27886 0.9351 0.15576 0.0
H48 H 0.04675 0.40145 0.42628 0.0
H49 H 0.04371 0.29311 0.3566 0.0
H50 H 0.8511 0.19793 0.46006 0.0
H51 H 0.84979 0.30975 0.52766 0.0
H52 H -0.05382 0.50317 0.44008 0.0
H53 H 0.04226 0.30925 0.5773 0.0
H54 H 0.04042 0.19904 0.64422 0.0
H55 H 0.84774 0.29821 0.74789 0.0
H56 H 0.84534 0.40498 0.67894 0.0
H57 H 0.84666 0.607 0.68024 0.0
H58 H 0.84972 0.71535 0.74992 0.0
H59 H 0.04233 0.81051 0.64646 0.0
H60 H 0.04363 0.69868 0.57887 0.0
H61 H -0.05279 0.50528 0.66644 0.0
H62 H 0.85115 0.6992 0.52922 0.0
H63 H 0.85301 0.80942 0.46231 0.0
H64 H 0.04568 0.71023 0.35864 0.0
H65 H 0.04807 0.60345 0.42759 0.0
C66 C -0.0513 0.36414 0.48262 0.0
C67 C 0.00348 0.35764 0.43417 0.0
C68 C 0.00202 0.29561 0.39447 0.0
C69 C -0.05262 0.23748 0.40332 0.0
C70 C 0.89433 0.24195 0.45291 0.0
C71 C 0.89391 0.30561 0.49163 0.0
C72 C -0.05291 0.43454 0.52051 0.0
C73 C -0.05253 0.50362 0.48975 0.0
C74 C 0.94567 0.43517 0.58534 0.0
C75 C 0.94347 0.36554 0.62258 0.0
C76 C -0.00198 0.30631 0.61323 0.0
C77 C -0.00273 0.24355 0.65154 0.0
C78 C 0.94408 0.24071 0.70103 0.0
C79 C 0.88953 0.29946 0.71011 0.0
C80 C 0.88845 0.36059 0.67083 0.0
C81 C 0.94471 0.6443 0.6239 0.0
C82 C 0.88994 0.65081 0.67236 0.0
C83 C 0.8914 0.71284 0.71206 0.0
C84 C 0.94605 0.77096 0.7032 0.0
C85 C -0.0009 0.76649 0.65361 0.0
C86 C -0.00049 0.70282 0.61489 0.0
C87 C -0.05369 0.57391 0.58601 0.0
C88 C 0.94593 0.50483 0.61677 0.0
C89 C -0.05227 0.57328 0.52119 0.0
C90 C -0.05006 0.6429 0.48395 0.0
C91 C 0.89539 0.70214 0.4933 0.0
C92 C 0.89615 0.7649 0.45499 0.0
C93 C -0.05065 0.76774 0.4055 0.0
C94 C 0.00389 0.70898 0.39642 0.0
C95 C 0.00497 0.64785 0.4357 0.0
O96 O 0.84202 0.93721 0.23817 0.0
Cd97 Cd 0.94586 0.922 0.28656 0.0
Cd98 Cd 0.94461 0.07971 0.28406 0.0
O99 O 0.84252 0.06157 0.2352 0.0
O100 O -0.04926 0.81236 0.30297 0.0
O101 O 0.93944 0.89841 0.3768 0.0
C102 C 0.94568 0.82848 0.36048 0.0
C103 C 0.9437 0.17544 0.35814 0.0
C104 C 0.81067 -0.00117 0.22156 0.0
C105 C 0.08453 8e-05 0.22689 0.0
O106 O 0.05042 0.06225 0.23917 0.0
O107 O 0.05326 0.93833 0.24273 0.0
O108 O -0.05182 0.1899 0.30064 0.0
O109 O 0.93834 0.10597 0.37433 0.0
O110 O 0.84019 0.07011 0.8638 0.0
Cd111 Cd -0.05241 0.08645 0.81997 0.0
Cd112 Cd -0.05116 0.92873 0.82246 0.0
O113 O 0.84303 0.9462 0.86735 0.0
O114 O 0.94271 0.19609 0.80356 0.0
O115 O -0.046 0.11003 0.72973 0.0
C116 C -0.05224 0.17996 0.74605 0.0
C117 C -0.05026 0.833 0.74839 0.0
C118 C 0.80892 0.00836 0.87964 0.0
C119 C 0.08278 0.00962 0.88496 0.0
O120 O 0.05093 0.94687 0.87132 0.0
O121 O 0.05143 0.07123 0.86835 0.0
O122 O 0.94526 0.81855 0.80589 0.0
O123 O -0.0449 0.90248 0.73219 0.0
loop_
_geom_bond_atom_site_label_1
_geom_bond_atom_site_label_2
_geom_bond_distance
_geom_bond_site_symmetry_2
_ccdc_geom_bond_type
H0 C19 0.949 . S
H1 C20 0.950 . S
H2 C22 0.950 . S
H3 C23 0.950 . S
H4 C25 0.950 . S
H5 C28 0.950 . S
H6 C29 0.950 . S
H7 C31 0.951 . S
H8 C32 0.949 . S
H9 C34 0.949 . S
H10 C35 0.950 . S
H11 C37 0.950 . S
H12 C38 0.950 . S
H13 C40 0.950 . S
H14 C43 0.950 . S
H15 C44 0.950 . S
H16 C46 0.951 . S
H17 C47 0.949 . S
C18 C19 1.376 1_545 S
C18 C23 1.386 . S
C18 C24 1.483 . S
C19 H0 0.949 . S
C19 C18 1.376 1_565 S
C19 C20 1.397 . S
C20 H1 0.950 . S
C20 C19 1.397 . S
C20 C21 1.391 1_565 S
C21 C20 1.391 1_545 S
C21 C22 1.405 . S
C22 H2 0.950 . S
C22 C21 1.405 . S
C22 C23 1.367 . S
C23 H3 0.950 . S
C23 C18 1.386 . S
C23 C22 1.367 . S
C24 C18 1.483 . S
C24 C25 1.382 1_545 S
C24 C26 1.403 1_554 S
C25 H4 0.950 . S
C25 C24 1.382 1_565 S
C25 C41 1.411 1_565 S
C26 C24 1.403 1_556 S
C26 C27 1.489 . S
C26 C40 1.411 . S
C27 C26 1.489 . S
C27 C28 1.383 1_545 S
C27 C32 1.382 . S
C28 H5 0.950 . S
C28 C27 1.383 1_565 S
C28 C29 1.395 . S
C29 H6 0.950 . S
C29 C28 1.395 . S
C29 C30 1.288 1_565 S
C30 C29 1.288 1_545 S
C30 C31 1.392 . S
C31 H7 0.951 . S
C31 C30 1.392 . S
C31 C32 1.392 . S
C32 H8 0.949 . S
C32 C27 1.382 . S
C32 C31 1.392 . S
C33 C34 1.376 . S
C33 C38 1.386 1_545 S
C33 C39 1.483 . S
C34 H9 0.949 . S
C34 C33 1.376 . S
C34 C35 1.397 . S
C35 H10 0.950 . S
C35 C34 1.397 . S
C35 C36 1.391 . S
C36 C35 1.391 . S
C36 C37 1.405 1_545 S
C37 H11 0.950 . S
C37 C36 1.405 1_565 S
C37 C38 1.367 . S
C38 H12 0.950 . S
C38 C33 1.386 1_565 S
C38 C37 1.367 . S
C39 C33 1.483 . S
C39 C40 1.382 . S
C39 C41 1.403 1_556 S
C40 H13 0.950 . S
C40 C26 1.411 . S
C40 C39 1.382 . S
C41 C25 1.411 1_545 S
C41 C39 1.403 1_554 S
C41 C42 1.488 1_545 S
C42 C41 1.488 1_565 S
C42 C43 1.373 1_565 S
C42 C47 1.392 . S
C43 H14 0.950 . S
C43 C42 1.373 1_545 S
C43 C44 1.395 . S
C44 H15 0.950 . S
C44 C43 1.395 . S
C44 C45 1.296 . S
C45 C44 1.296 . S
C45 C46 1.383 1_545 S
C46 H16 0.951 . S
C46 C45 1.383 1_565 S
C46 C47 1.392 . S
C47 H17 0.949 . S
C47 C42 1.392 . S
C47 C46 1.392 . S
H48 C67 0.949 . S
H49 C68 0.950 . S
H50 C70 0.950 . S
H51 C71 0.950 . S
H52 C73 0.950 . S
H53 C76 0.950 . S
H54 C77 0.950 . S
H55 C79 0.951 . S
H56 C80 0.949 . S
H57 C82 0.949 . S
H58 C83 0.950 . S
H59 C85 0.950 . S
H60 C86 0.950 . S
H61 C88 0.950 . S
H62 C91 0.950 . S
H63 C92 0.950 . S
H64 C94 0.951 . S
H65 C95 0.949 . S
C66 C67 1.376 . S
C66 C71 1.386 1_455 S
C66 C72 1.483 . S
C67 H48 0.949 . S
C67 C66 1.376 . S
C67 C68 1.397 . S
C68 H49 0.950 . S
C68 C67 1.397 . S
C68 C69 1.391 . S
C69 C68 1.391 . S
C69 C70 1.405 1_455 S
C70 H50 0.950 . S
C70 C69 1.405 1_655 S
C70 C71 1.367 . S
C71 H51 0.950 . S
C71 C66 1.386 1_655 S
C71 C70 1.367 . S
C72 C66 1.483 . S
C72 C73 1.382 . S
C72 C74 1.403 1_455 S
C73 H52 0.950 . S
C73 C72 1.382 . S
C73 C89 1.411 . S
C74 C72 1.403 1_655 S
C74 C75 1.489 . S
C74 C88 1.411 . S
C75 C74 1.489 . S
C75 C76 1.383 1_655 S
C75 C80 1.382 . S
C76 H53 0.950 . S
C76 C75 1.383 1_455 S
C76 C77 1.395 . S
C77 H54 0.950 . S
C77 C76 1.395 . S
C77 C78 1.288 1_455 S
C78 C77 1.288 1_655 S
C78 C79 1.392 . S
C79 H55 0.951 . S
C79 C78 1.392 . S
C79 C80 1.392 . S
C80 H56 0.949 . S
C80 C75 1.382 . S
C80 C79 1.392 . S
C81 C82 1.376 . S
C81 C86 1.386 1_655 S
C81 C87 1.483 . S
C82 H57 0.949 . S
C82 C81 1.376 . S
C82 C83 1.397 . S
C83 H58 0.950 . S
C83 C82 1.397 . S
C83 C84 1.391 . S
C84 C83 1.391 . S
C84 C85 1.405 1_655 S
C85 H59 0.950 . S
C85 C84 1.405 1_455 S
C85 C86 1.367 . S
C86 H60 0.950 . S
C86 C81 1.386 1_455 S
C86 C85 1.367 . S
C87 C81 1.483 . S
C87 C88 1.382 . S
C87 C89 1.403 1_655 S
C88 H61 0.950 . S
C88 C74 1.411 . S
C88 C87 1.382 . S
C89 C73 1.411 . S
C89 C87 1.403 1_455 S
C89 C90 1.489 . S
C90 C89 1.489 . S
C90 C91 1.383 1_455 S
C90 C95 1.382 . S
C91 H62 0.950 . S
C91 C90 1.383 1_655 S
C91 C92 1.395 . S
C92 H63 0.950 . S
C92 C91 1.395 . S
C92 C93 1.288 1_655 S
C93 C92 1.288 1_455 S
C93 C94 1.392 . S
C94 H64 0.951 . S
C94 C93 1.392 . S
C94 C95 1.392 . S
C95 H65 0.949 . S
C95 C90 1.382 . S
C95 C94 1.392 . S
O96 Cd97 2.223 1_655 S
O96 C104 1.315 . S
Cd97 O96 2.223 1_455 S
Cd97 O100 2.297 1_455 S
Cd97 O101 2.439 1_455 S
Cd97 O107 2.240 1_565 S
Cd98 O99 2.240 1_545 S
Cd98 O106 2.223 1_655 S
Cd98 O108 2.297 1_655 S
Cd98 O109 2.439 1_655 S
O99 Cd98 2.240 1_565 S
O99 C104 1.279 . S
O100 Cd97 2.297 1_655 S
O100 C102 1.247 . S
O101 Cd97 2.439 1_655 S
O101 C102 1.208 . S
C102 O100 1.247 . S
C102 O101 1.208 . S
C103 O108 1.247 . S
C103 O109 1.208 . S
C104 O96 1.315 . S
C104 O99 1.279 . S
C105 O106 1.315 . S
C105 O107 1.279 . S
O106 Cd98 2.223 1_455 S
O106 C105 1.315 . S
O107 Cd97 2.240 1_545 S
O107 C105 1.279 . S
O108 Cd98 2.297 1_455 S
O108 C103 1.247 . S
O109 Cd98 2.439 1_455 S
O109 C103 1.208 . S
O110 Cd111 2.223 1_655 S
O110 C118 1.315 . S
Cd111 O110 2.223 1_455 S
Cd111 O114 2.297 1_455 S
Cd111 O115 2.439 1_455 S
Cd111 O121 2.240 1_545 S
Cd112 O113 2.240 1_565 S
Cd112 O120 2.223 1_655 S
Cd112 O122 2.297 1_655 S
Cd112 O123 2.439 1_655 S
O113 Cd112 2.240 1_545 S
O113 C118 1.279 . S
O114 Cd111 2.297 1_655 S
O114 C116 1.247 . S
O115 Cd111 2.439 1_655 S
O115 C116 1.208 . S
C116 O114 1.247 . S
C116 O115 1.208 . S
C117 O122 1.247 . S
C117 O123 1.208 . S
C118 O110 1.315 . S
C118 O113 1.279 . S
C119 O120 1.315 . S
C119 O121 1.279 . S
O120 Cd112 2.223 1_455 S
O120 C119 1.315 . S
O121 Cd111 2.240 1_565 S
O121 C119 1.279 . S
O122 Cd112 2.297 1_455 S
O122 C117 1.247 . S
O123 Cd112 2.439 1_455 S
O123 C117 1.208 . S
C105 C45 1.939 . S
C116 C78 1.637 . S
C104 C21 1.873 1_565 S
C117 C84 1.718 1_455 S
C119 C36 1.912 1_565 S
C103 C69 1.685 . S
C118 C30 1.825 . S
C93 C102 1.729 1_455 S
