# Generated by pormake.
# Topology tsx, (6,3)-cn, num edge types: 1
# Building blocks:
#     Node 0, Type 0, BuildingBlock: JUFBIX_clean_sbu_0, # of connection points: 6
#     Node 1, Type 0, BuildingBlock: JUFBIX_clean_sbu_0, # of connection points: 6
#     Node 2, Type 1, BuildingBlock: BETDIP_clean_linker_0, # of connection points: 3
#     Node 3, Type 1, BuildingBlock: BETDIP_clean_linker_0, # of connection points: 3
#     Node 4, Type 1, BuildingBlock: BETDIP_clean_linker_0, # of connection points: 3
#     Node 5, Type 1, BuildingBlock: BETDIP_clean_linker_0, # of connection points: 3
#     Edge 6, Type (0, 1), BuildingBlock: OJICUG_clean_linker_0, # of connection points: 2
#     Edge 7, Type (0, 1), BuildingBlock: OJICUG_clean_linker_0, # of connection points: 2
#     Edge 8, Type (0, 1), BuildingBlock: OJICUG_clean_linker_0, # of connection points: 2
#     Edge 9, Type (0, 1), BuildingBlock: OJICUG_clean_linker_0, # of connection points: 2
#     Edge 10, Type (0, 1), BuildingBlock: OJICUG_clean_linker_0, # of connection points: 2
#     Edge 11, Type (0, 1), BuildingBlock: OJICUG_clean_linker_0, # of connection points: 2
#     Edge 12, Type (0, 1), BuildingBlock: OJICUG_clean_linker_0, # of connection points: 2
#     Edge 13, Type (0, 1), BuildingBlock: OJICUG_clean_linker_0, # of connection points: 2
#     Edge 14, Type (0, 1), BuildingBlock: OJICUG_clean_linker_0, # of connection points: 2
#     Edge 15, Type (0, 1), BuildingBlock: OJICUG_clean_linker_0, # of connection points: 2
#     Edge 16, Type (0, 1), BuildingBlock: OJICUG_clean_linker_0, # of connection points: 2
#     Edge 17, Type (0, 1), BuildingBlock: OJICUG_clean_linker_0, # of connection points: 2
# Relax obj value: 0.106
# Max RMSD: 0.136
# Mean RMSD: 0.120
data_MOF--net-tsx--node1-JUFBIX_clean_sbu_0--node2-BETDIP_clean_linker_0--edge1-OJICUG_clean_linker_0
_symmetry_space_group_name_H-M    P1
_symmetry_Int_Tables_number       1
_symmetry_cell_setting            triclinic
loop_
_symmetry_equiv_pos_as_xyz
'x, y, z'
_cell_length_a     14.937671
_cell_length_b     17.319935
_cell_length_c     24.639425
_cell_angle_alpha  94.702405
_cell_angle_beta   98.345875
_cell_angle_gamma 102.51748
loop_
_atom_site_label
_atom_site_type_symbol
_atom_site_fract_x
_atom_site_fract_y
_atom_site_fract_z
_atom_type_partial_charge
Co0 Co 0.07526 0.96499 -0.02728 0.0
C1 C 0.96882 0.98038 0.87212 0.0
Co2 Co 0.98567 0.05122 -0.0235 0.0
C3 C 0.23488 0.89168 -0.02718 0.0
C4 C 0.10324 0.80979 0.94545 0.0
N5 N 0.1422 0.88702 0.96411 0.0
N6 N 0.25446 0.82009 0.96101 0.0
C7 C 0.17169 0.76866 0.94388 0.0
H8 H 0.28688 0.94634 -0.01276 0.0
H9 H 0.02955 0.78489 0.93253 0.0
C10 C 0.09423 0.03664 0.07652 0.0
N11 N 0.91647 0.12677 -0.01399 0.0
C12 C 0.89805 0.18228 0.95338 0.0
C13 C 0.87666 0.13969 0.03072 0.0
N14 N 0.84975 0.22975 -0.02342 0.0
C15 C 0.83631 0.20335 0.02524 0.0
C16 C 0.89718 0.90223 -0.00417 0.0
O17 O 0.12427 0.98577 0.04867 0.0
O18 O 0.03448 0.07026 0.05267 0.0
O19 O 0.88596 0.97194 -0.0092 0.0
O20 O 0.97394 0.8863 -0.01151 0.0
O21 O 0.93891 0.03149 0.89999 0.0
H22 H 0.87741 0.10526 0.0654 0.0
H23 H 0.92128 0.18893 0.91403 0.0
O24 O 0.02635 0.94484 0.89638 0.0
O25 O 0.17567 0.04603 0.95881 0.0
O26 O 0.0856 0.13053 0.96308 0.0
C27 C 0.16405 0.11663 0.95736 0.0
H28 H 0.16157 0.70623 0.92916 0.0
H29 H 0.79903 0.22786 0.05432 0.0
Co30 Co 0.54644 0.45564 0.46852 0.0
C31 C 0.44499 0.47789 0.36824 0.0
Co32 Co 0.45933 0.54343 0.4742 0.0
C33 C 0.70365 0.37986 0.46812 0.0
C34 C 0.5714 0.30067 0.43717 0.0
N35 N 0.61139 0.37677 0.45843 0.0
N36 N 0.72204 0.30838 0.45429 0.0
C37 C 0.63888 0.25861 0.43491 0.0
H38 H 0.75621 0.4334 0.48466 0.0
H39 H 0.49773 0.27733 0.42292 0.0
C40 C 0.56467 0.52235 0.57372 0.0
N41 N 0.39148 0.61954 0.48494 0.0
C42 C 0.37458 0.67645 0.45325 0.0
C43 C 0.34985 0.6306 0.52916 0.0
N44 N 0.32515 0.7229 0.47644 0.0
C45 C 0.30963 0.69443 0.52422 0.0
C46 C 0.3671 0.39372 0.48951 0.0
O47 O 0.59407 0.47262 0.54446 0.0
O48 O 0.50569 0.55787 0.55114 0.0
O49 O 0.35728 0.46403 0.48557 0.0
O50 O 0.44355 0.37718 0.48225 0.0
O51 O 0.41549 0.52856 0.39685 0.0
H52 H 0.34898 0.59459 0.56302 0.0
H53 H 0.39945 0.68463 0.41449 0.0
O54 O 0.49941 0.43938 0.39213 0.0
O55 O 0.64873 0.53639 0.45677 0.0
O56 O 0.56158 0.62286 0.46376 0.0
C57 C 0.63929 0.60781 0.4575 0.0
H58 H 0.62792 0.19686 0.41821 0.0
H59 H 0.27088 0.71751 0.55305 0.0
H60 H 0.13811 1.01739 0.46165 0.0
H61 H 0.10771 0.16116 0.32998 0.0
H62 H 0.23706 0.96451 0.31068 0.0
H63 H 0.10686 0.25494 0.40388 0.0
C64 C 0.05629 0.21499 0.42235 0.0
C65 C 0.15138 0.03193 0.42128 0.0
C66 C 0.19637 0.98527 0.39002 0.0
C67 C 0.12086 0.09616 0.40018 0.0
C68 C 0.13342 0.11286 0.34684 0.0
C69 C 0.17119 0.06334 0.31327 0.0
C70 C 0.20602 1.00183 0.33597 0.0
N71 N 0.06808 0.13725 0.4305 0.0
H72 H 0.97029 0.94846 0.48176 0.0
H73 H 0.03309 0.07336 0.64613 0.0
H74 H 0.85925 0.83675 0.61508 0.0
H75 H 0.04486 0.18292 0.594 0.0
C76 C 0.08876 0.16298 0.56695 0.0
C77 C 0.96317 0.95041 0.52498 0.0
C78 C 0.90995 0.8845 0.54429 0.0
C79 C 1.00718 1.01907 0.56149 0.0
C80 C 0.99687 0.02167 0.61731 0.0
C81 C 0.94402 0.95591 0.6369 0.0
C82 C 0.9013 0.8874 0.60027 0.0
N83 N 0.06574 0.08282 0.54191 0.0
H84 H 0.67193 0.52937 0.9654 0.0
H85 H 0.60837 0.6562 0.8283 0.0
H86 H 0.7319 0.45656 0.806 0.0
H87 H 0.6317 0.76071 0.90233 0.0
C88 C 0.58523 0.72411 0.92516 0.0
C89 C 0.67476 0.53835 0.92271 0.0
C90 C 0.71045 0.48676 0.88904 0.0
C91 C 0.63995 0.60048 0.90131 0.0
C92 C 0.638 0.60984 0.84529 0.0
C93 C 0.66789 0.55631 0.81018 0.0
C94 C 0.70711 0.49691 0.83279 0.0
N95 N 0.5975 0.64708 0.93514 0.0
H96 H 0.50264 0.45778 -0.01504 0.0
H97 H 0.54666 0.5813 0.1491 0.0
H98 H 0.36062 0.35021 0.10935 0.0
H99 H 0.57243 0.69105 0.09806 0.0
C100 C 0.61795 0.6706 0.07239 0.0
C101 C 0.48814 0.46029 0.02683 0.0
C102 C 0.42691 0.39627 0.043 0.0
C103 C 0.53051 0.52788 0.06473 0.0
C104 C 0.51128 0.53086 0.11901 0.0
C105 C 0.45064 0.46656 0.13557 0.0
C106 C 0.40862 0.39973 0.09719 0.0
N107 N 0.59582 0.59008 0.04811 0.0
C108 C 0.3315 0.18152 -0.01069 0.0
C109 C 0.244 0.18511 0.96109 0.0
H110 H 0.46009 0.24814 0.03801 0.0
C111 C 0.22827 0.25942 0.94873 0.0
H112 H 0.34535 0.12519 -0.00026 0.0
C113 C 0.29455 0.3295 -0.03006 0.0
C114 C 0.3769 0.32605 0.00402 0.0
H115 H 0.16145 0.26381 0.92694 0.0
H116 H 0.27734 0.38633 0.96446 0.0
C117 C 0.39718 0.25176 0.01125 0.0
C118 C 0.41576 0.85419 0.94246 0.0
C119 C 0.34371 0.8015 0.96062 0.0
H120 H 0.54921 0.87013 0.91668 0.0
C121 C 0.35632 0.72631 -0.02723 0.0
H122 H 0.40759 0.91231 0.9326 0.0
C123 C 0.4369 0.70234 0.9639 0.0
C124 C 0.50621 0.75297 0.9422 0.0
H125 H 0.3023 0.68505 -0.01246 0.0
H126 H 0.44283 0.64293 -0.0281 0.0
C127 C 0.49626 0.82988 0.93305 0.0
C128 C 0.7508 0.86522 0.03559 0.0
C129 C 0.82472 0.84226 0.0142 0.0
H130 H 0.62845 0.82857 0.0718 0.0
C131 C 0.83145 0.76249 0.01352 0.0
H132 H 0.74415 0.92638 0.0372 0.0
C133 C 0.76521 0.70677 0.03335 0.0
C134 C 0.69119 0.72983 0.05432 0.0
H135 H 0.8879 0.74306 -0.00231 0.0
H136 H 0.77188 0.64566 0.03221 0.0
C137 C 0.68519 0.80961 0.05596 0.0
C138 C 0.82761 0.36651 -0.01222 0.0
C139 C 0.81757 0.29465 0.95427 0.0
H140 H 0.80531 0.48447 -0.00683 0.0
C141 C 0.77246 0.28577 0.89947 0.0
H142 H 0.86268 0.37443 0.03021 0.0
C143 C 0.7364 0.34735 0.87863 0.0
C144 C 0.74731 0.42032 0.91171 0.0
H145 H 0.76268 0.23017 0.87335 0.0
H146 H 0.69855 0.33679 0.8368 0.0
C147 C 0.79394 0.42909 0.96658 0.0
C148 C 0.70804 0.75013 0.45008 0.0
C149 C 0.72077 0.67513 0.46276 0.0
H150 H 0.76128 0.87664 0.46533 0.0
C151 C 0.80653 0.66956 0.49224 0.0
H152 H 0.64247 0.75594 0.42741 0.0
C153 C 0.8736 0.7387 0.51467 0.0
C154 C 0.8566 0.81388 0.50661 0.0
H155 H 0.8179 0.61261 0.50298 0.0
H156 H 0.93532 0.7337 0.54197 0.0
C157 C 0.77592 0.81911 0.47158 0.0
C158 C 0.82119 0.21199 0.46296 0.0
C159 C 0.81095 0.28901 0.4542 0.0
H160 H 0.907 0.12814 0.46055 0.0
C161 C 0.88574 0.34372 0.44018 0.0
H162 H 0.76504 0.16907 0.47459 0.0
C163 C 0.96703 0.32013 0.4317 0.0
C164 C 0.97504 0.24186 0.43768 0.0
H165 H 0.87951 0.40329 0.43295 0.0
H166 H 0.02245 0.36232 0.41874 0.0
C167 C 0.90256 0.18867 0.45503 0.0
C168 C 0.22059 0.35724 0.5292 0.0
C169 C 0.29419 0.33399 0.50761 0.0
H170 H 0.09879 0.32096 0.56604 0.0
C171 C 0.30111 0.25432 0.50729 0.0
H172 H 0.21395 0.41839 0.53063 0.0
C173 C 0.23546 0.19898 0.52774 0.0
C174 C 0.16161 0.22222 0.54874 0.0
H175 H 0.35743 0.2347 0.49144 0.0
H176 H 0.24236 0.13795 0.52698 0.0
C177 C 0.1554 0.30192 0.5501 0.0
C178 C 0.29686 0.85753 0.48992 0.0
C179 C 0.29404 0.78875 0.45476 0.0
H180 H 0.2714 0.97444 0.49697 0.0
C181 C 0.25829 0.7842 0.39852 0.0
H182 H 0.32472 0.86232 0.53347 0.0
C183 C 0.22503 0.84711 0.37775 0.0
C184 C 0.2292 0.91706 0.41256 0.0
H185 H 0.25398 0.73104 0.37094 0.0
H186 H 0.19487 0.84009 0.33446 0.0
C187 C 0.26569 0.92138 0.46899 0.0
C188 C 0.06027 0.07825 0.16812 0.0
C189 C 0.1213 0.05213 0.13671 0.0
H190 H 0.02614 0.0994 0.2476 0.0
C191 C 0.20429 0.03724 0.1635 0.0
H192 H 0.99539 0.08962 0.14851 0.0
C193 C 0.22425 0.04593 0.2212 0.0
C194 C 0.16024 0.0676 0.25279 0.0
H195 H 0.25294 1.01792 0.13992 0.0
H196 H 0.28847 0.03361 0.24089 0.0
C197 C 0.07877 0.08485 0.22532 0.0
C198 C 0.9211 0.02859 0.78208 0.0
C199 C 0.94665 0.96838 0.81142 0.0
H200 H 0.90091 0.07195 0.70323 0.0
C201 C 0.96239 0.90072 0.78231 0.0
H202 H 0.909 0.08154 0.80357 0.0
C203 C 0.95731 0.89515 0.72515 0.0
C204 C 0.93754 0.95757 0.69621 0.0
H205 H 0.98199 0.85334 0.80396 0.0
H206 H 0.97338 0.84379 0.70396 0.0
C207 C 0.91732 0.0235 0.72489 0.0
C208 C 0.68097 0.52336 0.65763 0.0
C209 C 0.59542 0.53684 0.63373 0.0
H210 H 0.77373 0.52304 0.73234 0.0
C211 C 0.53751 0.56243 0.66774 0.0
H212 H 0.72732 0.50457 0.63203 0.0
C213 C 0.56261 0.57095 0.72489 0.0
C214 C 0.64736 0.55593 0.74935 0.0
H215 H 0.47085 0.57276 0.65026 0.0
H216 H 0.5134 0.58613 0.74972 0.0
C217 C 0.70726 0.53372 0.71499 0.0
C218 C 0.4393 0.40161 0.27748 0.0
C219 C 0.42811 0.47042 0.30744 0.0
H220 H 0.45549 0.3468 0.19977 0.0
C221 C 0.41553 0.53577 0.27949 0.0
H222 H 0.44931 0.35043 0.29806 0.0
C223 C 0.42023 0.53406 0.22308 0.0
C224 C 0.43608 0.46652 0.19377 0.0
H225 H 0.40762 0.58981 0.30176 0.0
H226 H 0.41377 0.58613 0.20268 0.0
C227 C 0.44281 0.39953 0.2212 0.0
loop_
_geom_bond_atom_site_label_1
_geom_bond_atom_site_label_2
_geom_bond_distance
_geom_bond_site_symmetry_2
_ccdc_geom_bond_type
Co0 N5 2.059 . S
Co0 O17 2.021 . S
Co0 O20 2.062 1_455 S
Co0 O24 2.117 1_554 S
Co0 O25 2.020 1_565 S
C1 O21 1.259 . S
C1 O24 1.258 1_645 S
Co2 N11 2.057 1_556 S
Co2 O18 2.118 1_556 S
Co2 O19 2.020 1_545 S
Co2 O21 2.021 . S
Co2 O26 2.062 1_656 S
C3 N5 1.320 . S
C3 N6 1.347 . S
C3 H8 0.931 . S
C4 N5 1.369 1_556 S
C4 C7 1.350 . S
C4 H9 0.930 . S
N5 Co0 2.059 . S
N5 C3 1.320 . S
N5 C4 1.369 1_554 S
N6 C3 1.347 . S
N6 C7 1.373 1_554 S
C7 C4 1.350 . S
C7 N6 1.373 1_556 S
C7 H28 0.931 . S
H8 C3 0.931 . S
H9 C4 0.930 . S
C10 O17 1.259 1_545 S
C10 O18 1.253 1_455 S
N11 Co2 2.057 1_554 S
N11 C12 1.316 1_554 S
N11 C13 1.375 . S
C12 N11 1.316 1_556 S
C12 N14 1.347 1_556 S
C12 H23 0.931 . S
C13 N11 1.375 . S
C13 C15 1.350 . S
C13 H22 0.930 . S
N14 C12 1.347 1_554 S
N14 C15 1.373 . S
C15 C13 1.350 . S
C15 N14 1.373 . S
C15 H29 0.931 . S
C16 O19 1.256 1_554 S
C16 O20 1.255 . S
O17 Co0 2.021 . S
O17 C10 1.259 1_565 S
O18 Co2 2.118 1_554 S
O18 C10 1.253 1_655 S
O19 Co2 2.020 1_565 S
O19 C16 1.256 1_556 S
O20 Co0 2.062 1_655 S
O20 C16 1.255 . S
O21 C1 1.259 . S
O21 Co2 2.021 . S
H22 C13 0.930 . S
H23 C12 0.931 . S
O24 Co0 2.117 1_556 S
O24 C1 1.258 1_465 S
O25 Co0 2.020 1_545 S
O25 C27 1.256 . S
O26 Co2 2.062 1_454 S
O26 C27 1.255 . S
C27 O25 1.256 . S
C27 O26 1.255 . S
H28 C7 0.931 . S
H29 C15 0.931 . S
Co30 N35 2.057 . S
Co30 O47 2.021 . S
Co30 O50 2.062 . S
Co30 O54 2.117 . S
Co30 O55 2.020 . S
C31 O51 1.259 . S
C31 O54 1.258 . S
Co32 N41 2.057 . S
Co32 O48 2.117 . S
Co32 O49 2.020 . S
Co32 O51 2.021 . S
Co32 O56 2.062 . S
C33 N35 1.316 . S
C33 N36 1.347 . S
C33 H38 0.931 . S
C34 N35 1.375 . S
C34 C37 1.350 . S
C34 H39 0.930 . S
N35 Co30 2.057 . S
N35 C33 1.316 . S
N35 C34 1.375 . S
N36 C33 1.347 . S
N36 C37 1.373 . S
C37 C34 1.350 . S
C37 N36 1.373 . S
C37 H58 0.931 . S
H38 C33 0.931 . S
H39 C34 0.930 . S
C40 O47 1.259 . S
C40 O48 1.258 . S
N41 Co32 2.057 . S
N41 C42 1.316 . S
N41 C43 1.375 . S
C42 N41 1.316 . S
C42 N44 1.347 . S
C42 H53 0.931 . S
C43 N41 1.375 . S
C43 C45 1.350 . S
C43 H52 0.930 . S
N44 C42 1.347 . S
N44 C45 1.373 . S
C45 C43 1.350 . S
C45 N44 1.373 . S
C45 H59 0.931 . S
C46 O49 1.256 . S
C46 O50 1.255 . S
O47 Co30 2.021 . S
O47 C40 1.259 . S
O48 Co32 2.117 . S
O48 C40 1.258 . S
O49 Co32 2.020 . S
O49 C46 1.256 . S
O50 Co30 2.062 . S
O50 C46 1.255 . S
O51 C31 1.259 . S
O51 Co32 2.021 . S
H52 C43 0.930 . S
H53 C42 0.931 . S
O54 Co30 2.117 . S
O54 C31 1.258 . S
O55 Co30 2.020 . S
O55 C57 1.256 . S
O56 Co32 2.062 . S
O56 C57 1.255 . S
C57 O55 1.256 . S
C57 O56 1.255 . S
H58 C37 0.931 . S
H59 C45 0.931 . S
H60 C65 0.930 . S
H61 C68 0.930 1_655 S
H62 C70 0.930 . S
H63 C64 1.016 . S
C64 H63 1.016 . S
C64 N71 1.286 . S
C65 H60 0.930 . S
C65 C66 1.397 . S
C65 C67 1.361 1_565 S
C66 C65 1.397 . S
C66 C70 1.390 . S
C67 C65 1.361 1_545 S
C67 C68 1.393 . S
C67 N71 1.413 1_455 S
C68 H61 0.930 1_455 S
C68 C67 1.393 . S
C68 C69 1.399 1_545 S
C69 C68 1.399 1_565 S
C69 C70 1.381 . S
C70 H62 0.930 . S
C70 C66 1.390 . S
C70 C69 1.381 . S
N71 C64 1.286 . S
N71 C67 1.413 1_655 S
H72 C77 0.930 . S
H73 C80 0.930 . S
H74 C82 0.930 . S
H75 C76 1.016 . S
C76 H75 1.016 . S
C76 N83 1.286 . S
C77 H72 0.930 . S
C77 C78 1.397 . S
C77 C79 1.361 1_665 S
C78 C77 1.397 . S
C78 C82 1.390 . S
C79 C77 1.361 1_445 S
C79 C80 1.393 . S
C79 N83 1.413 . S
C80 H73 0.930 . S
C80 C79 1.393 . S
C80 C81 1.399 1_445 S
C81 C80 1.399 1_665 S
C81 C82 1.381 . S
C82 H74 0.930 . S
C82 C78 1.390 . S
C82 C81 1.381 . S
N83 C76 1.286 . S
N83 C79 1.413 . S
H84 C89 0.930 1_554 S
H85 C92 0.930 . S
H86 C94 0.930 . S
H87 C88 1.016 . S
C88 H87 1.016 . S
C88 N95 1.286 . S
C89 H84 0.930 1_556 S
C89 C90 1.397 . S
C89 C91 1.361 . S
C90 C89 1.397 . S
C90 C94 1.390 . S
C91 C89 1.361 . S
C91 C92 1.393 . S
C91 N95 1.413 . S
C92 H85 0.930 . S
C92 C91 1.393 . S
C92 C93 1.399 . S
C93 C92 1.399 . S
C93 C94 1.381 . S
C94 H86 0.930 . S
C94 C90 1.390 . S
C94 C93 1.381 . S
N95 C88 1.286 . S
N95 C91 1.413 . S
H96 C101 0.930 1_556 S
H97 C104 0.930 . S
H98 C106 0.930 . S
H99 C100 1.016 . S
C100 H99 1.016 . S
C100 N107 1.286 . S
C101 H96 0.930 1_554 S
C101 C102 1.397 . S
C101 C103 1.361 . S
C102 C101 1.397 . S
C102 C106 1.390 . S
C103 C101 1.361 . S
C103 C104 1.393 . S
C103 N107 1.413 . S
C104 H97 0.930 . S
C104 C103 1.393 . S
C104 C105 1.399 . S
C105 C104 1.399 . S
C105 C106 1.381 . S
C106 H98 0.930 . S
C106 C102 1.390 . S
C106 C105 1.381 . S
N107 C100 1.286 . S
N107 C103 1.413 . S
C108 C109 1.387 . S
C108 H112 0.950 . S
C108 C117 1.390 . S
C109 C108 1.387 . S
C109 C111 1.387 1_554 S
H110 C117 0.950 . S
C111 C109 1.387 1_556 S
C111 C113 1.390 . S
C111 H115 0.950 . S
H112 C108 0.950 . S
C113 C111 1.390 . S
C113 C114 1.387 1_556 S
C113 H116 0.950 . S
C114 C113 1.387 1_554 S
C114 C117 1.387 . S
H115 C111 0.950 . S
H116 C113 0.950 . S
C117 C108 1.390 . S
C117 H110 0.950 . S
C117 C114 1.387 . S
C118 C119 1.387 1_556 S
C118 H122 0.950 . S
C118 C127 1.390 . S
C119 C118 1.387 1_554 S
C119 C121 1.387 . S
H120 C127 0.950 . S
C121 C119 1.387 . S
C121 C123 1.390 . S
C121 H125 0.950 . S
H122 C118 0.950 . S
C123 C121 1.390 . S
C123 C124 1.387 . S
C123 H126 0.950 . S
C124 C123 1.387 . S
C124 C127 1.387 1_554 S
H125 C121 0.950 . S
H126 C123 0.950 . S
C127 C118 1.390 . S
C127 H120 0.950 . S
C127 C124 1.387 1_556 S
C128 C129 1.396 . S
C128 H132 0.950 . S
C128 C137 1.390 . S
C129 C128 1.396 . S
C129 C131 1.381 1_554 S
H130 C137 0.950 . S
C131 C129 1.381 1_556 S
C131 C133 1.390 . S
C131 H135 0.950 . S
H132 C128 0.950 . S
C133 C131 1.390 . S
C133 C134 1.387 1_556 S
C133 H136 0.950 . S
C134 C133 1.387 1_554 S
C134 C137 1.387 . S
H135 C131 0.950 . S
H136 C133 0.950 . S
C137 C128 1.390 . S
C137 H130 0.950 . S
C137 C134 1.387 . S
C138 C139 1.387 1_554 S
C138 H142 0.950 . S
C138 C147 1.390 . S
C139 C138 1.387 1_556 S
C139 C141 1.387 . S
H140 C147 0.950 . S
C141 C139 1.387 . S
C141 C143 1.390 . S
C141 H145 0.950 . S
H142 C138 0.950 . S
C143 C141 1.390 . S
C143 C144 1.387 . S
C143 H146 0.950 . S
C144 C143 1.387 . S
C144 C147 1.387 1_556 S
H145 C141 0.950 . S
H146 C143 0.950 . S
C147 C138 1.390 . S
C147 H140 0.950 . S
C147 C144 1.387 1_554 S
C148 C149 1.387 . S
C148 H152 0.950 . S
C148 C157 1.390 . S
C149 C148 1.387 . S
C149 C151 1.387 . S
H150 C157 0.950 . S
C151 C149 1.387 . S
C151 C153 1.390 . S
C151 H155 0.950 . S
H152 C148 0.950 . S
C153 C151 1.390 . S
C153 C154 1.387 . S
C153 H156 0.950 . S
C154 C153 1.387 . S
C154 C157 1.387 . S
H155 C151 0.950 . S
H156 C153 0.950 . S
C157 C148 1.390 . S
C157 H150 0.950 . S
C157 C154 1.387 . S
C158 C159 1.387 . S
C158 H162 0.950 . S
C158 C167 1.390 . S
C159 C158 1.387 . S
C159 C161 1.387 . S
H160 C167 0.950 . S
C161 C159 1.387 . S
C161 C163 1.390 . S
C161 H165 0.950 . S
H162 C158 0.950 . S
C163 C161 1.390 . S
C163 C164 1.387 . S
C163 H166 0.950 . S
C164 C163 1.387 . S
C164 C167 1.387 . S
H165 C161 0.950 . S
H166 C163 0.950 . S
C167 C158 1.390 . S
C167 H160 0.950 . S
C167 C164 1.387 . S
C168 C169 1.387 . S
C168 H172 0.950 . S
C168 C177 1.390 . S
C169 C168 1.387 . S
C169 C171 1.387 . S
H170 C177 0.950 . S
C171 C169 1.387 . S
C171 C173 1.390 . S
C171 H175 0.950 . S
H172 C168 0.950 . S
C173 C171 1.390 . S
C173 C174 1.387 . S
C173 H176 0.950 . S
C174 C173 1.387 . S
C174 C177 1.387 . S
H175 C171 0.950 . S
H176 C173 0.950 . S
C177 C168 1.390 . S
C177 H170 0.950 . S
C177 C174 1.387 . S
C178 C179 1.387 . S
C178 H182 0.950 . S
C178 C187 1.390 . S
C179 C178 1.387 . S
C179 C181 1.387 . S
H180 C187 0.950 . S
C181 C179 1.387 . S
C181 C183 1.390 . S
C181 H185 0.950 . S
H182 C178 0.950 . S
C183 C181 1.390 . S
C183 C184 1.387 . S
C183 H186 0.950 . S
C184 C183 1.387 . S
C184 C187 1.387 . S
H185 C181 0.950 . S
H186 C183 0.950 . S
C187 C178 1.390 . S
C187 H180 0.950 . S
C187 C184 1.387 . S
C188 C189 1.387 1_665 S
C188 H192 0.950 . S
C188 C197 1.390 . S
C189 C188 1.387 1_445 S
C189 C191 1.387 . S
H190 C197 0.950 . S
C191 C189 1.387 . S
C191 C193 1.390 . S
C191 H195 0.950 . S
H192 C188 0.950 . S
C193 C191 1.390 . S
C193 C194 1.387 1_545 S
C193 H196 0.950 . S
C194 C193 1.387 1_565 S
C194 C197 1.387 1_455 S
H195 C191 0.950 . S
H196 C193 0.950 . S
C197 C188 1.390 . S
C197 H190 0.950 . S
C197 C194 1.387 1_655 S
C198 C199 1.387 . S
C198 H202 0.950 . S
C198 C207 1.390 . S
C199 C198 1.387 . S
C199 C201 1.387 1_645 S
H200 C207 0.950 . S
C201 C199 1.387 1_465 S
C201 C203 1.390 . S
C201 H205 0.950 . S
H202 C198 0.950 . S
C203 C201 1.390 . S
C203 C204 1.387 1_455 S
C203 H206 0.950 . S
C204 C203 1.387 1_655 S
C204 C207 1.387 1_565 S
H205 C201 0.950 . S
H206 C203 0.950 . S
C207 C198 1.390 . S
C207 H200 0.950 . S
C207 C204 1.387 1_545 S
C208 C209 1.387 . S
C208 H212 0.950 . S
C208 C217 1.390 . S
C209 C208 1.387 . S
C209 C211 1.387 . S
H210 C217 0.950 . S
C211 C209 1.387 . S
C211 C213 1.390 . S
C211 H215 0.950 . S
H212 C208 0.950 . S
C213 C211 1.390 . S
C213 C214 1.387 . S
C213 H216 0.950 . S
C214 C213 1.387 . S
C214 C217 1.387 . S
H215 C211 0.950 . S
H216 C213 0.950 . S
C217 C208 1.390 . S
C217 H210 0.950 . S
C217 C214 1.387 . S
C218 C219 1.387 . S
C218 H222 0.950 . S
C218 C227 1.390 . S
C219 C218 1.387 . S
C219 C221 1.387 . S
H220 C227 0.950 . S
C221 C219 1.387 . S
C221 C223 1.390 . S
C221 H225 0.950 . S
H222 C218 0.950 . S
C223 C221 1.390 . S
C223 C224 1.387 . S
C223 H226 0.950 . S
C224 C223 1.387 . S
C224 C227 1.387 . S
H225 C221 0.950 . S
H226 C223 0.950 . S
C227 C218 1.390 . S
C227 H220 0.950 . S
C227 C224 1.387 . S
C114 C102 1.472 . S
C109 C27 1.504 . S
C119 N6 1.402 . S
C124 C88 1.422 1_554 S
C129 C16 1.478 . S
C134 C100 1.424 . S
C139 N14 1.452 1_556 S
C144 C90 1.450 . S
C149 C57 1.505 . S
C154 C78 1.473 . S
C159 N36 1.402 . S
C164 C64 1.422 . S
C174 C76 1.425 . S
C169 C46 1.479 . S
C184 C66 1.450 . S
C179 N44 1.452 . S
C189 C10 1.478 . S
C194 C69 1.479 . S
C199 C1 1.550 . S
C204 C81 1.548 . S
C214 C93 1.479 . S
C209 C40 1.478 . S
C219 C31 1.550 . S
C224 C105 1.548 . S
