# Generated by pormake.
# Topology tsx, (6,3)-cn, num edge types: 1
# Building blocks:
#     Node 0, Type 0, BuildingBlock: CIFDUS_clean_sbu_1, # of connection points: 6
#     Node 1, Type 0, BuildingBlock: CIFDUS_clean_sbu_1, # of connection points: 6
#     Node 2, Type 1, BuildingBlock: QEWDON_clean_linker_0, # of connection points: 3
#     Node 3, Type 1, BuildingBlock: QEWDON_clean_linker_0, # of connection points: 3
#     Node 4, Type 1, BuildingBlock: QEWDON_clean_linker_0, # of connection points: 3
#     Node 5, Type 1, BuildingBlock: QEWDON_clean_linker_0, # of connection points: 3
#     Edge 6, Type (0, 1), None
#     Edge 7, Type (0, 1), None
#     Edge 8, Type (0, 1), None
#     Edge 9, Type (0, 1), None
#     Edge 10, Type (0, 1), None
#     Edge 11, Type (0, 1), None
#     Edge 12, Type (0, 1), None
#     Edge 13, Type (0, 1), None
#     Edge 14, Type (0, 1), None
#     Edge 15, Type (0, 1), None
#     Edge 16, Type (0, 1), None
#     Edge 17, Type (0, 1), None
# Relax obj value: 0.112
# Max RMSD: 0.180
# Mean RMSD: 0.136
data_MOF--net-tsx--node1-CIFDUS_clean_sbu_1--node2-QEWDON_clean_linker_0--edge1-none
_symmetry_space_group_name_H-M    P1
_symmetry_Int_Tables_number       1
_symmetry_cell_setting            triclinic
loop_
_symmetry_equiv_pos_as_xyz
'x, y, z'
_cell_length_a     8.4403011
_cell_length_b     11.345921
_cell_length_c     14.146802
_cell_angle_alpha  94.437676
_cell_angle_beta   117.72618
_cell_angle_gamma 91.60001
loop_
_atom_site_label
_atom_site_type_symbol
_atom_site_fract_x
_atom_site_fract_y
_atom_site_fract_z
_atom_type_partial_charge
O0 O 1.07844 0.18871 1.04847 0.0
Mn1 Mn 0.20241 0.02511 0.06175 0.0
O2 O 0.79702 0.15993 0.99768 0.0
Mn3 Mn 0.86319 0.03889 0.92849 0.0
O4 O 0.40598 0.88863 0.11096 0.0
O5 O 0.40612 0.14337 0.09997 0.0
Mn6 Mn 0.60972 0.12172 0.20744 0.0
O7 O 0.26083 0.02989 0.22717 0.0
O8 O 0.67198 0.99039 0.1559 0.0
O9 O 0.16425 0.01101 0.9013 0.0
O10 O 0.91737 0.09815 0.82921 0.0
O11 O 0.63294 0.27034 0.16716 0.0
O12 O 0.55322 0.09554 0.31744 0.0
C13 C 0.78798 0.85768 0.91836 0.0
C14 C 0.93392 0.23136 1.03906 0.0
C15 C 0.58232 0.89397 0.14286 0.0
C16 C 0.46468 0.249 0.09955 0.0
C17 C 0.41035 0.05527 0.31615 0.0
C18 C 1.03842 0.04886 0.81836 0.0
O19 O 0.94606 0.90667 1.00284 0.0
O20 O 0.71571 0.91928 0.84017 0.0
O21 O 0.57844 0.68871 0.54847 0.0
Mn22 Mn 0.70242 0.52511 0.56175 0.0
O23 O 0.29703 0.65992 0.49769 0.0
Mn24 Mn 0.36319 0.53889 0.42849 0.0
O25 O 0.90599 0.38863 0.61096 0.0
O26 O 0.90612 0.64337 0.59997 0.0
Mn27 Mn 1.10972 0.62172 0.70743 0.0
O28 O 0.76083 0.52989 0.72717 0.0
O29 O 0.17198 0.49039 0.65589 0.0
O30 O 0.66425 0.51102 0.4013 0.0
O31 O 0.41737 0.59815 0.32921 0.0
O32 O 0.13294 0.77034 0.66716 0.0
O33 O 1.05323 0.59553 0.81743 0.0
C34 C 0.28798 0.35768 0.41836 0.0
C35 C 0.43392 0.73135 0.53906 0.0
C36 C 1.08232 0.39397 0.64285 0.0
C37 C 0.96468 0.74901 0.59955 0.0
C38 C 0.91035 0.55527 0.81615 0.0
C39 C 0.53842 0.54886 0.31836 0.0
O40 O 0.44606 0.40667 0.50284 0.0
O41 O 0.21571 0.41928 0.34017 0.0
H42 H 0.51478 0.19555 0.51049 0.0
C43 C 0.48561 0.10419 0.51554 0.0
C44 C 0.43401 0.02036 0.42282 0.0
C45 C 0.46688 0.07395 0.60617 0.0
H46 H 0.3766 0.83565 0.36449 0.0
C47 C 0.40326 0.90061 0.43147 0.0
C48 C 0.41808 0.8622 0.5271 0.0
C49 C 0.44156 0.94922 0.61162 0.0
C50 C 0.44408 0.16882 0.68457 0.0
H51 H 0.43446 0.91835 0.67968 0.0
C52 C 0.33495 0.2658 0.65127 0.0
C53 C 0.2054 0.29486 0.6858 0.0
C54 C 0.48849 0.1479 0.78933 0.0
H55 H 0.57871 0.08411 0.82584 0.0
C56 C 0.38966 0.19195 0.83963 0.0
H57 H 0.36133 0.32506 0.60765 0.0
C58 C 0.23795 0.25541 0.78338 0.0
H59 H 0.14687 0.27405 0.81573 0.0
H60 H 0.41672 0.1622 0.91548 0.0
H61 H 0.22568 0.01596 0.69901 0.0
C62 C 1.09096 0.03543 0.65422 0.0
C63 C 0.99293 1.00236 0.70631 0.0
C64 C 1.02058 0.01488 0.54197 0.0
H65 H 0.79949 0.86953 0.69582 0.0
C66 C 0.85569 0.91231 0.65138 0.0
C67 C 0.85116 0.84909 0.56082 0.0
C68 C 0.88845 0.9207 0.49502 0.0
C69 C 1.00244 0.1212 0.48071 0.0
H70 H 0.78281 0.93114 0.41634 0.0
C71 C 0.11788 0.16145 0.43979 0.0
C72 C 0.13246 0.28412 0.42299 0.0
C73 C 0.86414 0.19026 0.46798 0.0
H74 H 0.77432 0.16573 0.4988 0.0
C75 C 0.83294 0.28663 0.40956 0.0
H76 H 0.16573 0.09504 0.40607 0.0
C77 C 0.97203 0.34081 0.39743 0.0
H78 H 0.95245 0.42709 0.36847 0.0
H79 H 0.70388 0.3207 0.38127 0.0
H80 H 1.01478 0.69555 1.01049 0.0
C81 C 0.98561 0.6042 1.01554 0.0
C82 C 0.93402 0.52036 0.92282 0.0
C83 C 0.96688 0.57396 0.10616 0.0
H84 H 0.8766 0.33565 0.86449 0.0
C85 C 0.90327 0.40061 0.93147 0.0
C86 C 0.91808 0.3622 1.0271 0.0
C87 C 0.94156 0.44922 0.11162 0.0
C88 C 0.94408 0.66882 0.18456 0.0
H89 H 0.93446 0.41835 0.17967 0.0
C90 C 0.83494 0.7658 0.15127 0.0
C91 C 0.7054 0.79485 0.1858 0.0
C92 C 0.9885 0.6479 0.28933 0.0
H93 H 1.07873 0.58412 0.32583 0.0
C94 C 0.88967 0.69195 0.33963 0.0
H95 H 0.86132 0.82507 0.10765 0.0
C96 C 0.73796 0.75541 0.28338 0.0
H97 H 0.64689 0.77404 0.31574 0.0
H98 H 0.91675 0.6622 0.41549 0.0
H99 H 0.72569 0.51597 0.19901 0.0
C100 C 0.59096 0.53542 0.15422 0.0
C101 C 0.49293 0.50236 0.20631 0.0
C102 C 0.52058 0.51487 1.04197 0.0
H103 H 0.29948 0.36953 0.19582 0.0
C104 C 0.35569 0.41231 0.15138 0.0
C105 C 0.35116 0.34909 0.06082 0.0
C106 C 0.38845 0.42069 0.99502 0.0
C107 C 0.50244 0.62119 0.98071 0.0
H108 H 0.2828 0.43113 0.91634 0.0
C109 C 0.61788 0.66145 0.93978 0.0
C110 C 0.63246 0.78412 0.92299 0.0
C111 C 0.36414 0.69025 0.96798 0.0
H112 H 0.27433 0.66572 0.9988 0.0
C113 C 0.33294 0.78663 0.90957 0.0
H114 H 0.66573 0.59504 0.90607 0.0
C115 C 0.47203 0.84081 0.89743 0.0
H116 H 0.45245 0.92709 0.86847 0.0
H117 H 0.20388 0.8207 0.88128 0.0
loop_
_geom_bond_atom_site_label_1
_geom_bond_atom_site_label_2
_geom_bond_distance
_geom_bond_site_symmetry_2
_ccdc_geom_bond_type
O0 Mn1 2.164 1_655 S
O0 C14 1.244 1_554 S
Mn1 O0 2.164 1_455 S
Mn1 O4 2.159 1_544 S
Mn1 O5 2.221 . S
Mn1 O7 2.172 . S
Mn1 O9 2.151 1_554 S
Mn1 O19 2.221 1_444 S
O2 Mn3 2.087 1_545 S
O2 C14 1.256 . S
Mn3 O2 2.087 1_565 S
Mn3 O10 2.089 1_565 S
Mn3 O19 2.290 . S
Mn3 O20 2.251 . S
O4 Mn1 2.159 1_566 S
O4 C15 1.239 1_556 S
O5 Mn1 2.221 . S
O5 Mn6 2.290 . S
O5 C16 1.278 . S
Mn6 O5 2.290 . S
Mn6 O8 2.089 1_545 S
Mn6 O11 2.251 . S
Mn6 O12 2.087 . S
O7 Mn1 2.172 . S
O7 C17 1.244 . S
O8 Mn6 2.089 1_565 S
O8 C15 1.256 . S
O9 Mn1 2.151 1_556 S
O9 C18 1.239 1_455 S
O10 Mn3 2.089 1_545 S
O10 C18 1.256 . S
O11 Mn6 2.251 . S
O11 C16 1.241 . S
O12 Mn6 2.087 . S
O12 C17 1.256 . S
C13 O19 1.278 . S
C13 O20 1.241 . S
C14 O0 1.244 1_556 S
C14 O2 1.256 . S
C15 O4 1.239 1_554 S
C15 O8 1.256 . S
C16 O5 1.278 . S
C16 O11 1.241 . S
C17 O7 1.244 . S
C17 O12 1.256 . S
C18 O9 1.239 1_655 S
C18 O10 1.256 . S
O19 Mn1 2.221 1_666 S
O19 Mn3 2.290 . S
O19 C13 1.278 . S
O20 Mn3 2.251 . S
O20 C13 1.241 . S
O21 Mn22 2.163 . S
O21 C35 1.244 . S
Mn22 O21 2.163 . S
Mn22 O25 2.160 . S
Mn22 O26 2.221 . S
Mn22 O28 2.163 . S
Mn22 O30 2.160 . S
Mn22 O40 2.221 . S
O23 Mn24 2.087 . S
O23 C35 1.256 . S
Mn24 O23 2.087 . S
Mn24 O31 2.089 . S
Mn24 O40 2.290 . S
Mn24 O41 2.251 . S
O25 Mn22 2.160 . S
O25 C36 1.239 . S
O26 Mn22 2.221 . S
O26 Mn27 2.290 . S
O26 C37 1.278 . S
Mn27 O26 2.290 . S
Mn27 O29 2.089 . S
Mn27 O32 2.251 . S
Mn27 O33 2.087 . S
O28 Mn22 2.163 . S
O28 C38 1.244 . S
O29 Mn27 2.089 . S
O29 C36 1.256 . S
O30 Mn22 2.160 . S
O30 C39 1.239 . S
O31 Mn24 2.089 . S
O31 C39 1.256 . S
O32 Mn27 2.251 . S
O32 C37 1.241 . S
O33 Mn27 2.087 . S
O33 C38 1.256 . S
C34 O40 1.278 . S
C34 O41 1.241 . S
C35 O21 1.244 . S
C35 O23 1.256 . S
C36 O25 1.239 . S
C36 O29 1.256 . S
C37 O26 1.278 . S
C37 O32 1.241 . S
C38 O28 1.244 . S
C38 O33 1.256 . S
C39 O30 1.239 . S
C39 O31 1.256 . S
O40 Mn22 2.221 . S
O40 Mn24 2.290 . S
O40 C34 1.278 . S
O41 Mn24 2.251 . S
O41 C34 1.241 . S
H42 C43 0.949 . S
C43 H42 0.949 . S
C43 C44 1.395 1_545 S
C43 C45 1.391 . S
C44 C43 1.395 1_565 S
C44 C47 1.390 . S
C45 C43 1.391 . S
C45 C49 1.387 1_545 S
C45 C50 1.491 . S
H46 C47 0.950 . S
C47 C44 1.390 . S
C47 H46 0.950 . S
C47 C48 1.378 . S
C48 C47 1.378 . S
C48 C49 1.409 . S
C49 C45 1.387 1_565 S
C49 C48 1.409 . S
C49 H51 0.951 . S
C50 C45 1.491 . S
C50 C52 1.379 1_455 S
C50 C54 1.404 . S
H51 C49 0.951 . S
C52 C50 1.379 1_655 S
C52 C53 1.391 . S
C52 H57 0.950 . S
C53 C52 1.391 . S
C53 C58 1.399 1_655 S
C54 C50 1.404 . S
C54 H55 0.950 . S
C54 C56 1.375 . S
H55 C54 0.950 . S
C56 C54 1.375 . S
C56 C58 1.382 . S
C56 H60 0.950 . S
H57 C52 0.950 . S
C58 C53 1.399 1_455 S
C58 C56 1.382 . S
C58 H59 0.952 . S
H59 C58 0.952 . S
H60 C56 0.950 . S
H61 C62 0.949 . S
C62 H61 0.949 . S
C62 C63 1.395 1_455 S
C62 C64 1.391 1_455 S
C63 C62 1.395 1_655 S
C63 C66 1.390 1_545 S
C64 C62 1.391 1_655 S
C64 C68 1.387 1_545 S
C64 C69 1.488 1_655 S
H65 C66 0.950 . S
C66 C63 1.390 1_565 S
C66 H65 0.950 . S
C66 C67 1.378 . S
C67 C66 1.378 . S
C67 C68 1.409 . S
C68 C64 1.387 1_565 S
C68 C67 1.409 . S
C68 H70 0.951 . S
C69 C64 1.488 1_455 S
C69 C71 1.387 . S
C69 C73 1.401 1_455 S
H70 C68 0.951 . S
C71 C69 1.387 . S
C71 C72 1.390 . S
C71 H76 0.949 . S
C72 C71 1.390 . S
C72 C77 1.399 . S
C73 C69 1.401 1_655 S
C73 H74 0.950 . S
C73 C75 1.375 . S
H74 C73 0.950 . S
C75 C73 1.375 . S
C75 C77 1.382 1_655 S
C75 H79 0.950 . S
H76 C71 0.949 . S
C77 C72 1.399 . S
C77 C75 1.382 1_455 S
C77 H78 0.952 . S
H78 C77 0.952 . S
H79 C75 0.950 . S
H80 C81 0.949 . S
C81 H80 0.949 . S
C81 C82 1.395 . S
C81 C83 1.391 . S
C82 C81 1.395 . S
C82 C85 1.390 . S
C83 C81 1.391 . S
C83 C87 1.387 1_556 S
C83 C88 1.491 1_556 S
H84 C85 0.950 . S
C85 C82 1.390 . S
C85 H84 0.950 . S
C85 C86 1.378 . S
C86 C85 1.378 . S
C86 C87 1.409 1_556 S
C87 C83 1.387 1_554 S
C87 C86 1.409 1_554 S
C87 H89 0.951 . S
C88 C83 1.491 1_554 S
C88 C90 1.382 . S
C88 C92 1.404 . S
H89 C87 0.951 . S
C90 C88 1.382 . S
C90 C91 1.390 . S
C90 H95 0.949 1_554 S
C91 C90 1.390 . S
C91 C96 1.399 . S
C92 C88 1.404 . S
C92 H93 0.950 . S
C92 C94 1.375 . S
H93 C92 0.950 . S
C94 C92 1.375 . S
C94 C96 1.382 . S
C94 H98 0.950 . S
H95 C90 0.949 1_556 S
C96 C91 1.399 . S
C96 C94 1.382 . S
C96 H97 0.952 . S
H97 C96 0.952 . S
H98 C94 0.950 . S
H99 C100 0.949 . S
C100 H99 0.949 . S
C100 C101 1.395 . S
C100 C102 1.391 . S
C101 C100 1.395 . S
C101 C104 1.390 . S
C102 C100 1.391 . S
C102 C106 1.387 1_554 S
C102 C107 1.491 1_554 S
H103 C104 0.950 . S
C104 C101 1.390 . S
C104 H103 0.950 . S
C104 C105 1.378 . S
C105 C104 1.378 . S
C105 C106 1.409 1_554 S
C106 C102 1.387 1_556 S
C106 C105 1.409 1_556 S
C106 H108 0.951 . S
C107 C102 1.491 1_556 S
C107 C109 1.382 . S
C107 C111 1.404 . S
H108 C106 0.951 . S
C109 C107 1.382 . S
C109 C110 1.390 . S
C109 H114 0.949 1_556 S
C110 C109 1.390 . S
C110 C115 1.399 . S
C111 C107 1.404 . S
C111 H112 0.950 . S
C111 C113 1.375 . S
H112 C111 0.950 . S
C113 C111 1.375 . S
C113 C115 1.382 . S
C113 H117 0.950 . S
H114 C109 0.949 1_554 S
C115 C110 1.399 . S
C115 C113 1.382 . S
C115 H116 0.952 . S
H116 C115 0.952 . S
H117 C113 0.950 . S
C105 C16 1.755 . S
C15 C91 1.563 . S
C13 C110 1.230 . S
C14 C86 1.558 . S
C37 C67 1.755 . S
C36 C53 1.562 . S
C72 C34 1.230 . S
C48 C35 1.558 . S
C17 C44 1.877 1_545 S
C18 C63 1.381 . S
C82 C38 1.877 . S
C39 C101 1.381 . S
