# Generated by pormake.
# Topology tsx, (6,3)-cn, num edge types: 1
# Building blocks:
#     Node 0, Type 0, BuildingBlock: FUNLAD_clean_sbu_0, # of connection points: 6
#     Node 1, Type 0, BuildingBlock: FUNLAD_clean_sbu_0, # of connection points: 6
#     Node 2, Type 1, BuildingBlock: BETDAH_clean_linker_0, # of connection points: 3
#     Node 3, Type 1, BuildingBlock: BETDAH_clean_linker_0, # of connection points: 3
#     Node 4, Type 1, BuildingBlock: BETDAH_clean_linker_0, # of connection points: 3
#     Node 5, Type 1, BuildingBlock: BETDAH_clean_linker_0, # of connection points: 3
#     Edge 6, Type (0, 1), BuildingBlock: OJICUG_clean_linker_0, # of connection points: 2
#     Edge 7, Type (0, 1), BuildingBlock: OJICUG_clean_linker_0, # of connection points: 2
#     Edge 8, Type (0, 1), BuildingBlock: OJICUG_clean_linker_0, # of connection points: 2
#     Edge 9, Type (0, 1), BuildingBlock: OJICUG_clean_linker_0, # of connection points: 2
#     Edge 10, Type (0, 1), BuildingBlock: OJICUG_clean_linker_0, # of connection points: 2
#     Edge 11, Type (0, 1), BuildingBlock: OJICUG_clean_linker_0, # of connection points: 2
#     Edge 12, Type (0, 1), BuildingBlock: OJICUG_clean_linker_0, # of connection points: 2
#     Edge 13, Type (0, 1), BuildingBlock: OJICUG_clean_linker_0, # of connection points: 2
#     Edge 14, Type (0, 1), BuildingBlock: OJICUG_clean_linker_0, # of connection points: 2
#     Edge 15, Type (0, 1), BuildingBlock: OJICUG_clean_linker_0, # of connection points: 2
#     Edge 16, Type (0, 1), BuildingBlock: OJICUG_clean_linker_0, # of connection points: 2
#     Edge 17, Type (0, 1), BuildingBlock: OJICUG_clean_linker_0, # of connection points: 2
# Relax obj value: 0.112
# Max RMSD: 0.118
# Mean RMSD: 0.113
data_MOF--net-tsx--node1-FUNLAD_clean_sbu_0--node2-BETDAH_clean_linker_0--edge1-OJICUG_clean_linker_0
_symmetry_space_group_name_H-M    P1
_symmetry_Int_Tables_number       1
_symmetry_cell_setting            triclinic
loop_
_symmetry_equiv_pos_as_xyz
'x, y, z'
_cell_length_a     13.933449
_cell_length_b     15.562102
_cell_length_c     30.360617
_cell_angle_alpha  90.854892
_cell_angle_beta   101.3504
_cell_angle_gamma 89.980855
loop_
_atom_site_label
_atom_site_type_symbol
_atom_site_fract_x
_atom_site_fract_y
_atom_site_fract_z
_atom_type_partial_charge
C0 C 0.89075 0.88967 -0.00083 0.0
N1 N 0.07618 0.02328 0.1012 0.0
C2 C 0.99898 0.03982 0.12135 0.0
C3 C 0.01338 0.05223 0.16769 0.0
C4 C 0.108 0.04654 0.19376 0.0
C5 C 0.18652 0.02854 0.17231 0.0
C6 C 0.16892 0.01761 0.12561 0.0
Zn7 Zn 0.04836 0.01711 0.03277 0.0
C8 C 0.16521 0.88895 -0.00718 0.0
N9 N 0.98038 0.01812 0.89108 0.0
C10 C 0.88737 0.01349 0.86676 0.0
C11 C 0.05768 0.0336 0.87102 0.0
C12 C 0.04304 0.04665 0.82493 0.0
C13 C 0.94806 0.04269 0.799 0.0
C14 C 0.86951 0.02508 0.82028 0.0
Zn15 Zn 0.0083 0.01471 0.95946 0.0
O16 O 0.93406 0.93137 0.03357 0.0
C17 C 0.88812 0.14031 -0.00467 0.0
O18 O 0.90987 0.90696 0.96081 0.0
H19 H 0.13107 0.03686 0.8909 0.0
H20 H 0.92578 0.04377 0.10142 0.0
H21 H 0.82695 0.00197 0.88349 0.0
O22 O 0.94904 0.12536 0.03144 0.0
O23 O 0.89375 0.09872 0.95988 0.0
H24 H 0.22928 0.00519 0.10882 0.0
O25 O 0.10806 0.12252 0.96098 0.0
O26 O 0.16352 0.1007 0.0326 0.0
O27 O 0.12202 0.92856 0.95836 0.0
O28 O 0.14623 0.90882 0.03116 0.0
C29 C 0.16911 0.13978 -0.003 0.0
H30 H 0.95064 0.0638 0.1831 0.0
H31 H 0.26051 0.02307 0.19144 0.0
H32 H 0.10575 0.05783 0.80958 0.0
H33 H 0.79524 0.02086 0.80122 0.0
C34 C 0.38749 0.38482 0.49833 0.0
N35 N 0.57286 0.51806 0.60065 0.0
C36 C 0.49587 0.53466 0.62093 0.0
C37 C 0.51077 0.54804 0.66722 0.0
C38 C 0.60569 0.54329 0.69308 0.0
C39 C 0.68392 0.52491 0.67151 0.0
C40 C 0.66582 0.51296 0.62488 0.0
Zn41 Zn 0.54495 0.51212 0.53225 0.0
C42 C 0.66199 0.38431 0.49219 0.0
N43 N 0.47757 0.51436 0.39063 0.0
C44 C 0.3846 0.51079 0.36621 0.0
C45 C 0.55514 0.53 0.37078 0.0
C46 C 0.54083 0.54454 0.32484 0.0
C47 C 0.44588 0.54194 0.29884 0.0
C48 C 0.36705 0.5239 0.31986 0.0
Zn49 Zn 0.50521 0.51025 0.45897 0.0
O50 O 0.43061 0.42632 0.53285 0.0
C51 C 0.38482 0.63544 0.49497 0.0
O52 O 0.40682 0.4024 0.46005 0.0
H53 H 0.62849 0.53246 0.39074 0.0
H54 H 0.42252 0.53821 0.60111 0.0
H55 H 0.32397 0.49914 0.38279 0.0
O56 O 0.44564 0.62033 0.53108 0.0
O57 O 0.3906 0.5941 0.45947 0.0
H58 H 0.72599 0.50051 0.60798 0.0
O59 O 0.60492 0.61818 0.46073 0.0
O60 O 0.66016 0.59575 0.53229 0.0
O61 O 0.61899 0.42418 0.45778 0.0
O62 O 0.6428 0.4039 0.53052 0.0
C63 C 0.66587 0.63516 0.49681 0.0
H64 H 0.44826 0.55987 0.68274 0.0
H65 H 0.75812 0.52014 0.69049 0.0
H66 H 0.60372 0.55595 0.30965 0.0
H67 H 0.2928 0.52064 0.30071 0.0
H68 H 0.22892 0.94836 0.4043 0.0
H69 H 0.94885 0.07512 0.36962 0.0
H70 H 0.98522 0.86735 0.46033 0.0
C71 C 0.15411 0.95756 0.40847 0.0
C72 C 0.11725 0.90521 0.4384 0.0
C73 C 0.09142 0.01263 0.3797 0.0
C74 C 0.9981 0.03013 0.38937 0.0
C75 C 0.96311 0.98128 0.42142 0.0
C76 C 0.01872 0.9129 0.44152 0.0
N77 N 0.8698 0.99594 0.4318 0.0
C78 C 0.84298 0.07606 0.44606 0.0
H79 H 0.82262 0.95168 0.58637 0.0
H80 H 0.10335 0.07877 0.62258 0.0
H81 H 0.06575 0.87024 0.52921 0.0
C82 C 0.89739 0.961 0.58223 0.0
C83 C 0.93397 0.9082 0.55168 0.0
C84 C 0.96059 0.01591 0.61187 0.0
C85 C 0.05371 0.03376 0.60221 0.0
C86 C 0.08813 0.985 0.56927 0.0
C87 C 0.03234 0.9162 0.54842 0.0
N88 N 0.18145 -0.00032 0.55904 0.0
C89 C 0.20737 0.07903 0.54452 0.0
H90 H 0.73104 0.45252 0.90447 0.0
H91 H 0.45047 0.57844 0.86974 0.0
H92 H 0.48811 0.3718 0.96108 0.0
C93 C 0.6563 0.46173 0.90875 0.0
C94 C 0.61983 0.40968 0.93893 0.0
C95 C 0.59315 0.51612 0.87977 0.0
C96 C 0.50002 0.53383 0.8896 0.0
C97 C 0.46552 0.48546 0.92196 0.0
C98 C 0.52137 0.4173 0.94216 0.0
N99 N 0.37235 0.50025 0.93247 0.0
C100 C 0.34575 0.58043 0.94675 0.0
H101 H 0.32322 0.45713 0.08549 0.0
H102 H 0.60374 0.58392 0.12356 0.0
H103 H 0.5687 0.37599 0.02992 0.0
C104 C 0.39831 0.46646 0.08185 0.0
C105 C 0.43586 0.41372 0.05158 0.0
C106 C 0.4609 0.52103 0.11195 0.0
C107 C 0.55449 0.53909 0.10286 0.0
C108 C 0.58985 0.49063 0.07009 0.0
C109 C 0.53456 0.42185 0.0489 0.0
N110 N 0.68371 0.50543 0.06049 0.0
C111 C 0.70976 0.58464 0.04585 0.0
C112 C 0.33953 0.19053 0.0217 0.0
C113 C 0.24325 0.20747 -0.00041 0.0
H114 H 0.4774 0.24346 0.05449 0.0
C115 C 0.21512 0.29222 0.98867 0.0
H116 H 0.36215 0.12544 0.03073 0.0
C117 C 0.28022 0.35992 0.0033 0.0
C118 C 0.37462 0.34319 0.02803 0.0
H119 H 0.14067 0.30655 0.97224 0.0
H120 H 0.25532 0.42546 -0.00262 0.0
C121 C 0.40523 0.25785 0.03529 0.0
C122 C 0.26294 0.80843 0.94546 0.0
C123 C 0.22803 0.81512 0.9859 0.0
H124 H 0.32812 0.72784 0.90151 0.0
C125 C 0.24205 0.74568 0.01557 0.0
H126 H 0.25376 0.86091 0.92195 0.0
C127 C 0.28437 0.66918 0.0035 0.0
C128 C 0.31367 0.66178 0.96193 0.0
H129 H 0.21538 0.74867 0.04675 0.0
H130 H 0.29068 0.61487 0.02581 0.0
C131 C 0.30534 0.73243 0.93361 0.0
C132 C 0.81332 0.74522 0.97661 0.0
C133 C 0.82767 0.81651 0.00619 0.0
H134 H 0.76429 0.6139 0.96659 0.0
C135 C 0.79289 0.81253 0.04668 0.0
H136 H 0.83987 0.74611 0.94541 0.0
C137 C 0.75036 0.73743 0.05868 0.0
C138 C 0.74172 0.66498 0.03046 0.0
H139 H 0.80232 0.86647 0.07013 0.0
H140 H 0.72776 0.73497 0.09082 0.0
C141 C 0.77083 0.66963 0.98882 0.0
C142 C 0.7176 0.18903 0.97047 0.0
C143 C 0.81387 0.20787 -0.00764 0.0
H144 H 0.57953 0.23901 0.93721 0.0
C145 C 0.84188 0.29359 0.00225 0.0
H146 H 0.6951 0.12313 0.96216 0.0
C147 C 0.77655 0.35999 0.98695 0.0
C148 C 0.68214 0.34106 0.96246 0.0
H149 H 0.91634 0.30934 0.01846 0.0
H150 H 0.80117 0.42604 -0.00769 0.0
C151 C 0.65175 0.25512 0.95614 0.0
C152 C 0.83642 0.68542 0.52163 0.0
C153 C 0.74019 0.70274 0.4996 0.0
H154 H 0.97459 0.7378 0.55442 0.0
C155 C 0.71233 0.78764 0.48891 0.0
H156 H 0.85883 0.6202 0.53049 0.0
C157 C 0.77773 0.85509 0.50364 0.0
C158 C 0.87213 0.83795 0.52824 0.0
H159 H 0.63792 0.80225 0.47255 0.0
H160 H 0.75313 0.92075 0.49784 0.0
C161 C 0.90241 0.75249 0.53533 0.0
C162 C 0.75963 0.30389 0.44474 0.0
C163 C 0.72481 0.31051 0.48522 0.0
H164 H 0.82487 0.22341 0.40077 0.0
C165 C 0.73901 0.24109 0.51489 0.0
H166 H 0.75031 0.35636 0.42123 0.0
C167 C 0.78147 0.16466 0.50282 0.0
C168 C 0.81069 0.15733 0.46122 0.0
H169 H 0.71243 0.24403 0.54609 0.0
H170 H 0.78798 0.11036 0.52514 0.0
C171 C 0.80214 0.22796 0.43288 0.0
C172 C 0.31098 0.24014 0.4756 0.0
C173 C 0.32449 0.31148 0.50515 0.0
H174 H 0.26291 0.10857 0.46552 0.0
C175 C 0.28907 0.30734 0.54548 0.0
H176 H 0.33805 0.24115 0.44453 0.0
C177 C 0.24678 0.23203 0.55736 0.0
C178 C 0.23904 0.15954 0.5292 0.0
H179 H 0.29786 0.36133 0.56889 0.0
H180 H 0.22368 0.22945 0.58939 0.0
C181 C 0.26875 0.16433 0.48771 0.0
C182 C 0.33887 0.78874 0.50188 0.0
C183 C 0.31065 0.70306 0.49201 0.0
H184 H 0.29856 0.92124 0.49183 0.0
C185 C 0.21439 0.68437 0.47006 0.0
H186 H 0.41334 0.80437 0.51811 0.0
C187 C 0.14874 0.75057 0.45564 0.0
C188 C 0.17935 0.83646 0.46194 0.0
H189 H 0.19175 0.61851 0.46176 0.0
H190 H 0.07652 0.73457 0.43668 0.0
C191 C 0.27376 0.85523 0.48649 0.0
C192 C 0.17265 0.98431 0.26858 0.0
C193 C 0.12188 0.05042 0.24333 0.0
H194 H 0.2015 0.91933 0.33041 0.0
C195 C 0.07431 0.113 0.2651 0.0
H196 H 0.20911 0.93473 0.25261 0.0
C197 C 0.07166 0.10581 0.31077 0.0
C198 C 0.11488 0.03488 0.33527 0.0
H199 H 0.03574 0.16549 0.24634 0.0
H200 H 0.03175 0.1536 0.32613 0.0
C201 C 0.1686 0.97615 0.31376 0.0
C202 C 0.98163 0.11167 0.72927 0.0
C203 C 0.93351 0.04848 0.74956 0.0
H204 H 0.02345 0.15457 0.66908 0.0
C205 C 0.88113 0.98372 0.72272 0.0
H206 H 0.02144 0.16317 0.74932 0.0
C207 C 0.88409 0.97735 0.67726 0.0
C208 C 0.93825 0.03667 0.65704 0.0
H209 H 0.84417 0.93373 0.73754 0.0
H210 H 0.84993 0.92132 0.65925 0.0
C211 C 0.98313 0.10637 0.68332 0.0
C212 C 0.6721 0.48389 0.76838 0.0
C213 C 0.62036 0.5489 0.74264 0.0
H214 H 0.70281 0.42134 0.83087 0.0
C215 C 0.57298 0.61221 0.76402 0.0
H216 H 0.70849 0.4338 0.75272 0.0
C217 C 0.57148 0.60679 0.80987 0.0
C218 C 0.61566 0.53688 0.83496 0.0
H219 H 0.53371 0.66391 0.74485 0.0
H220 H 0.53168 0.65507 0.82495 0.0
C221 C 0.6692 0.47746 0.81376 0.0
C222 C 0.48048 0.61337 0.22994 0.0
C223 C 0.43161 0.54962 0.2495 0.0
H224 H 0.52351 0.65807 0.17038 0.0
C225 C 0.3789 0.48596 0.22197 0.0
H226 H 0.52051 0.66407 0.25055 0.0
C227 C 0.38244 0.48103 0.17653 0.0
C228 C 0.43755 0.54075 0.15705 0.0
H229 H 0.34133 0.43561 0.2362 0.0
H230 H 0.34807 0.42564 0.158 0.0
C231 C 0.48255 0.60954 0.18403 0.0
loop_
_geom_bond_atom_site_label_1
_geom_bond_atom_site_label_2
_geom_bond_distance
_geom_bond_site_symmetry_2
_ccdc_geom_bond_type
C0 O16 1.256 . S
C0 O18 1.248 1_554 S
N1 C2 1.333 1_445 S
N1 C6 1.307 . S
N1 Zn7 2.020 . S
C2 N1 1.333 1_665 S
C2 C3 1.379 . S
C2 H20 0.952 . S
C3 C2 1.379 . S
C3 C4 1.390 1_665 S
C3 H30 0.949 . S
C4 C3 1.390 1_445 S
C4 C5 1.357 . S
C5 C4 1.357 . S
C5 C6 1.370 . S
C5 H31 0.950 . S
C6 N1 1.307 . S
C6 C5 1.370 . S
C6 H24 0.948 . S
Zn7 N1 2.020 . S
Zn7 O16 2.039 1_445 S
Zn7 O22 2.034 1_455 S
Zn7 O26 2.025 . S
Zn7 O28 2.024 1_545 S
C8 O27 1.246 1_554 S
C8 O28 1.249 . S
N9 C10 1.307 1_545 S
N9 C11 1.333 1_655 S
N9 Zn15 2.020 1_655 S
C10 N9 1.307 1_565 S
C10 C14 1.370 . S
C10 H21 0.948 . S
C11 N9 1.333 1_455 S
C11 C12 1.379 . S
C11 H19 0.952 . S
C12 C11 1.379 . S
C12 C13 1.390 1_455 S
C12 H32 0.949 . S
C13 C12 1.390 1_655 S
C13 C14 1.357 1_545 S
C14 C10 1.370 . S
C14 C13 1.357 1_565 S
C14 H33 0.950 . S
Zn15 N9 2.020 1_455 S
Zn15 O18 2.025 1_445 S
Zn15 O23 2.024 1_455 S
Zn15 O25 2.039 . S
Zn15 O27 2.034 1_545 S
O16 C0 1.256 . S
O16 Zn7 2.039 1_665 S
C17 O22 1.246 1_556 S
C17 O23 1.249 . S
O18 C0 1.248 1_556 S
O18 Zn15 2.025 1_665 S
H19 C11 0.952 . S
H20 C2 0.952 . S
H21 C10 0.948 . S
O22 Zn7 2.034 1_655 S
O22 C17 1.246 1_554 S
O23 Zn15 2.024 1_655 S
O23 C17 1.249 . S
H24 C6 0.948 . S
O25 Zn15 2.039 . S
O25 C29 1.251 1_556 S
O26 Zn7 2.025 . S
O26 C29 1.254 . S
O27 C8 1.246 1_556 S
O27 Zn15 2.034 1_565 S
O28 Zn7 2.024 1_565 S
O28 C8 1.249 . S
C29 O25 1.251 1_554 S
C29 O26 1.254 . S
H30 C3 0.949 . S
H31 C5 0.950 . S
H32 C12 0.949 . S
H33 C14 0.950 . S
C34 O50 1.251 . S
C34 O52 1.254 . S
N35 C36 1.333 . S
N35 C40 1.307 . S
N35 Zn41 2.020 . S
C36 N35 1.333 . S
C36 C37 1.379 . S
C36 H54 0.952 . S
C37 C36 1.379 . S
C37 C38 1.390 . S
C37 H64 0.949 . S
C38 C37 1.390 . S
C38 C39 1.357 . S
C39 C38 1.357 . S
C39 C40 1.370 . S
C39 H65 0.950 . S
C40 N35 1.307 . S
C40 C39 1.370 . S
C40 H58 0.948 . S
Zn41 N35 2.020 . S
Zn41 O50 2.039 . S
Zn41 O56 2.034 . S
Zn41 O60 2.025 . S
Zn41 O62 2.024 . S
C42 O61 1.246 . S
C42 O62 1.249 . S
N43 C44 1.307 . S
N43 C45 1.333 . S
N43 Zn49 2.020 . S
C44 N43 1.307 . S
C44 C48 1.370 . S
C44 H55 0.948 . S
C45 N43 1.333 . S
C45 C46 1.379 . S
C45 H53 0.952 . S
C46 C45 1.379 . S
C46 C47 1.390 . S
C46 H66 0.949 . S
C47 C46 1.390 . S
C47 C48 1.357 . S
C48 C44 1.370 . S
C48 C47 1.357 . S
C48 H67 0.950 . S
Zn49 N43 2.020 . S
Zn49 O52 2.025 . S
Zn49 O57 2.024 . S
Zn49 O59 2.039 . S
Zn49 O61 2.034 . S
O50 C34 1.251 . S
O50 Zn41 2.039 . S
C51 O56 1.246 . S
C51 O57 1.249 . S
O52 C34 1.254 . S
O52 Zn49 2.025 . S
H53 C45 0.952 . S
H54 C36 0.952 . S
H55 C44 0.948 . S
O56 Zn41 2.034 . S
O56 C51 1.246 . S
O57 Zn49 2.024 . S
O57 C51 1.249 . S
H58 C40 0.948 . S
O59 Zn49 2.039 . S
O59 C63 1.251 . S
O60 Zn41 2.025 . S
O60 C63 1.254 . S
O61 C42 1.246 . S
O61 Zn49 2.034 . S
O62 Zn41 2.024 . S
O62 C42 1.249 . S
C63 O59 1.251 . S
C63 O60 1.254 . S
H64 C37 0.949 . S
H65 C39 0.950 . S
H66 C46 0.949 . S
H67 C48 0.950 . S
H68 C71 0.929 . S
H69 C74 0.929 1_655 S
H70 C76 0.930 . S
C71 H68 0.929 . S
C71 C72 1.398 . S
C71 C73 1.396 . S
C72 C71 1.398 . S
C72 C76 1.407 . S
C73 C71 1.396 . S
C73 C74 1.394 1_565 S
C74 H69 0.929 1_455 S
C74 C73 1.394 1_545 S
C74 C75 1.382 . S
C75 C74 1.382 . S
C75 C76 1.392 1_545 S
C75 N77 1.420 1_455 S
C76 H70 0.930 . S
C76 C72 1.407 . S
C76 C75 1.392 1_565 S
N77 C75 1.420 1_655 S
N77 C78 1.244 . S
C78 N77 1.244 . S
H79 C82 0.929 . S
H80 C85 0.929 . S
H81 C87 0.930 . S
C82 H79 0.929 . S
C82 C83 1.398 . S
C82 C84 1.396 1_565 S
C83 C82 1.398 . S
C83 C87 1.407 . S
C84 C82 1.396 1_545 S
C84 C85 1.394 1_655 S
C85 H80 0.929 . S
C85 C84 1.394 1_455 S
C85 C86 1.382 . S
C86 C85 1.382 . S
C86 C87 1.392 1_445 S
C86 N88 1.420 . S
C87 H81 0.930 . S
C87 C83 1.407 . S
C87 C86 1.392 1_665 S
N88 C86 1.420 . S
N88 C89 1.244 . S
C89 N88 1.244 . S
H90 C93 0.929 . S
H91 C96 0.929 . S
H92 C98 0.930 . S
C93 H90 0.929 . S
C93 C94 1.398 . S
C93 C95 1.396 . S
C94 C93 1.398 . S
C94 C98 1.407 1_556 S
C95 C93 1.396 . S
C95 C96 1.394 . S
C96 H91 0.929 . S
C96 C95 1.394 . S
C96 C97 1.382 . S
C97 C96 1.382 . S
C97 C98 1.392 1_556 S
C97 N99 1.420 1_556 S
C98 H92 0.930 . S
C98 C94 1.407 1_554 S
C98 C97 1.392 1_554 S
N99 C97 1.420 1_554 S
N99 C100 1.244 1_554 S
C100 N99 1.244 1_556 S
H101 C104 0.929 . S
H102 C107 0.929 . S
H103 C109 0.930 1_556 S
C104 H101 0.929 . S
C104 C105 1.398 . S
C104 C106 1.396 . S
C105 C104 1.398 . S
C105 C109 1.407 . S
C106 C104 1.396 . S
C106 C107 1.394 . S
C107 H102 0.929 . S
C107 C106 1.394 . S
C107 C108 1.382 . S
C108 C107 1.382 . S
C108 C109 1.392 . S
C108 N110 1.420 . S
C109 H103 0.930 1_554 S
C109 C105 1.407 . S
C109 C108 1.392 . S
N110 C108 1.420 . S
N110 C111 1.244 . S
C111 N110 1.244 . S
C112 C113 1.387 . S
C112 H116 0.950 . S
C112 C121 1.390 . S
C113 C112 1.387 . S
C113 C115 1.387 1_554 S
H114 C121 0.950 . S
C115 C113 1.387 1_556 S
C115 C117 1.390 . S
C115 H119 0.950 . S
H116 C112 0.950 . S
C117 C115 1.390 . S
C117 C118 1.387 1_556 S
C117 H120 0.950 . S
C118 C117 1.387 1_554 S
C118 C121 1.387 . S
H119 C115 0.950 . S
H120 C117 0.950 . S
C121 C112 1.390 . S
C121 H114 0.950 . S
C121 C118 1.387 . S
C122 C123 1.387 1_556 S
C122 H126 0.950 . S
C122 C131 1.390 . S
C123 C122 1.387 1_554 S
C123 C125 1.387 . S
H124 C131 0.950 . S
C125 C123 1.387 . S
C125 C127 1.390 . S
C125 H129 0.950 . S
H126 C122 0.950 . S
C127 C125 1.390 . S
C127 C128 1.387 . S
C127 H130 0.950 . S
C128 C127 1.387 . S
C128 C131 1.387 1_554 S
H129 C125 0.950 . S
H130 C127 0.950 . S
C131 C122 1.390 . S
C131 H124 0.950 . S
C131 C128 1.387 1_556 S
C132 C133 1.395 . S
C132 H136 0.950 . S
C132 C141 1.390 . S
C133 C132 1.395 . S
C133 C135 1.378 1_556 S
H134 C141 0.950 . S
C135 C133 1.378 1_554 S
C135 C137 1.390 . S
C135 H139 0.950 . S
H136 C132 0.950 . S
C137 C135 1.390 . S
C137 C138 1.390 1_554 S
C137 H140 0.950 . S
C138 C137 1.390 1_556 S
C138 C141 1.385 . S
H139 C135 0.950 . S
H140 C137 0.950 . S
C141 C132 1.390 . S
C141 H134 0.950 . S
C141 C138 1.385 . S
C142 C143 1.387 . S
C142 H146 0.950 . S
C142 C151 1.390 . S
C143 C142 1.387 . S
C143 C145 1.387 1_556 S
H144 C151 0.950 . S
C145 C143 1.387 1_554 S
C145 C147 1.390 . S
C145 H149 0.950 . S
H146 C142 0.950 . S
C147 C145 1.390 . S
C147 C148 1.387 1_554 S
C147 H150 0.950 . S
C148 C147 1.387 1_556 S
C148 C151 1.387 . S
H149 C145 0.950 . S
H150 C147 0.950 . S
C151 C142 1.390 . S
C151 H144 0.950 . S
C151 C148 1.387 . S
C152 C153 1.387 . S
C152 H156 0.950 . S
C152 C161 1.390 . S
C153 C152 1.387 . S
C153 C155 1.387 . S
H154 C161 0.950 . S
C155 C153 1.387 . S
C155 C157 1.390 . S
C155 H159 0.950 . S
H156 C152 0.950 . S
C157 C155 1.390 . S
C157 C158 1.387 . S
C157 H160 0.950 . S
C158 C157 1.387 . S
C158 C161 1.387 . S
H159 C155 0.950 . S
H160 C157 0.950 . S
C161 C152 1.390 . S
C161 H154 0.950 . S
C161 C158 1.387 . S
C162 C163 1.387 . S
C162 H166 0.950 . S
C162 C171 1.390 . S
C163 C162 1.387 . S
C163 C165 1.387 . S
H164 C171 0.950 . S
C165 C163 1.387 . S
C165 C167 1.390 . S
C165 H169 0.950 . S
H166 C162 0.950 . S
C167 C165 1.390 . S
C167 C168 1.387 . S
C167 H170 0.950 . S
C168 C167 1.387 . S
C168 C171 1.387 . S
H169 C165 0.950 . S
H170 C167 0.950 . S
C171 C162 1.390 . S
C171 H164 0.950 . S
C171 C168 1.387 . S
C172 C173 1.387 . S
C172 H176 0.950 . S
C172 C181 1.390 . S
C173 C172 1.387 . S
C173 C175 1.387 . S
H174 C181 0.950 . S
C175 C173 1.387 . S
C175 C177 1.390 . S
C175 H179 0.950 . S
H176 C172 0.950 . S
C177 C175 1.390 . S
C177 C178 1.387 . S
C177 H180 0.950 . S
C178 C177 1.387 . S
C178 C181 1.387 . S
H179 C175 0.950 . S
H180 C177 0.950 . S
C181 C172 1.390 . S
C181 H174 0.950 . S
C181 C178 1.387 . S
C182 C183 1.387 . S
C182 H186 0.950 . S
C182 C191 1.390 . S
C183 C182 1.387 . S
C183 C185 1.387 . S
H184 C191 0.950 . S
C185 C183 1.387 . S
C185 C187 1.390 . S
C185 H189 0.950 . S
H186 C182 0.950 . S
C187 C185 1.390 . S
C187 C188 1.387 . S
C187 H190 0.950 . S
C188 C187 1.387 . S
C188 C191 1.387 . S
H189 C185 0.950 . S
H190 C187 0.950 . S
C191 C182 1.390 . S
C191 H184 0.950 . S
C191 C188 1.387 . S
C192 C193 1.387 1_565 S
C192 H196 0.950 . S
C192 C201 1.390 . S
C193 C192 1.387 1_545 S
C193 C195 1.387 . S
H194 C201 0.950 . S
C195 C193 1.387 . S
C195 C197 1.390 . S
C195 H199 0.950 . S
H196 C192 0.950 . S
C197 C195 1.390 . S
C197 C198 1.387 . S
C197 H200 0.950 . S
C198 C197 1.387 . S
C198 C201 1.387 1_545 S
H199 C195 0.950 . S
H200 C197 0.950 . S
C201 C192 1.390 . S
C201 H194 0.950 . S
C201 C198 1.387 1_565 S
C202 C203 1.387 . S
C202 H206 0.950 . S
C202 C211 1.390 . S
C203 C202 1.387 . S
C203 C205 1.387 1_545 S
H204 C211 0.950 . S
C205 C203 1.387 1_565 S
C205 C207 1.390 . S
C205 H209 0.950 . S
H206 C202 0.950 . S
C207 C205 1.390 . S
C207 C208 1.387 1_565 S
C207 H210 0.950 . S
C208 C207 1.387 1_545 S
C208 C211 1.387 . S
H209 C205 0.950 . S
H210 C207 0.950 . S
C211 C202 1.390 . S
C211 H204 0.950 . S
C211 C208 1.387 . S
C212 C213 1.387 . S
C212 H216 0.950 . S
C212 C221 1.390 . S
C213 C212 1.387 . S
C213 C215 1.387 . S
H214 C221 0.950 . S
C215 C213 1.387 . S
C215 C217 1.390 . S
C215 H219 0.950 . S
H216 C212 0.950 . S
C217 C215 1.390 . S
C217 C218 1.387 . S
C217 H220 0.950 . S
C218 C217 1.387 . S
C218 C221 1.387 . S
H219 C215 0.950 . S
H220 C217 0.950 . S
C221 C212 1.390 . S
C221 H214 0.950 . S
C221 C218 1.387 . S
C222 C223 1.387 . S
C222 H226 0.950 . S
C222 C231 1.390 . S
C223 C222 1.387 . S
C223 C225 1.387 . S
H224 C231 0.950 . S
C225 C223 1.387 . S
C225 C227 1.390 . S
C225 H229 0.950 . S
H226 C222 0.950 . S
C227 C225 1.390 . S
C227 C228 1.387 . S
C227 H230 0.950 . S
C228 C227 1.387 . S
C228 C231 1.387 . S
H229 C225 0.950 . S
H230 C227 0.950 . S
C231 C222 1.390 . S
C231 H224 0.950 . S
C231 C228 1.387 . S
C118 C105 1.470 . S
C113 C29 1.513 . S
C123 C8 1.461 . S
C128 C100 1.408 1_554 S
C133 C0 1.467 1_556 S
C138 C111 1.414 1_556 S
C143 C17 1.513 . S
C148 C94 1.473 . S
C153 C63 1.513 . S
C158 C83 1.471 . S
C163 C42 1.461 . S
C168 C78 1.409 . S
C178 C89 1.413 . S
C173 C34 1.463 . S
C188 C72 1.474 . S
C183 C51 1.513 . S
C193 C4 1.522 . S
C198 C73 1.517 1_545 S
C203 C13 1.514 . S
C208 C84 1.510 . S
C218 C95 1.517 . S
C213 C38 1.522 . S
C223 C47 1.514 . S
C228 C106 1.510 . S
