# Generated by pormake.
# Topology zzz, (3,6)-cn, num edge types: 1
# Building blocks:
#     Node 0, Type 0, BuildingBlock: CUQRIR_clean_linker_1, # of connection points: 3
#     Node 1, Type 0, BuildingBlock: CUQRIR_clean_linker_1, # of connection points: 3
#     Node 2, Type 0, BuildingBlock: CUQRIR_clean_linker_1, # of connection points: 3
#     Node 3, Type 0, BuildingBlock: CUQRIR_clean_linker_1, # of connection points: 3
#     Node 4, Type 0, BuildingBlock: CUQRIR_clean_linker_1, # of connection points: 3
#     Node 5, Type 0, BuildingBlock: CUQRIR_clean_linker_1, # of connection points: 3
#     Node 6, Type 0, BuildingBlock: CUQRIR_clean_linker_1, # of connection points: 3
#     Node 7, Type 0, BuildingBlock: CUQRIR_clean_linker_1, # of connection points: 3
#     Node 8, Type 1, BuildingBlock: VOLQOD_clean_sbu_1, # of connection points: 6
#     Node 9, Type 1, BuildingBlock: VOLQOD_clean_sbu_1, # of connection points: 6
#     Node 10, Type 1, BuildingBlock: VOLQOD_clean_sbu_1, # of connection points: 6
#     Node 11, Type 1, BuildingBlock: VOLQOD_clean_sbu_1, # of connection points: 6
#     Edge 12, Type (0, 1), None
#     Edge 13, Type (0, 1), None
#     Edge 14, Type (0, 1), None
#     Edge 15, Type (0, 1), None
#     Edge 16, Type (0, 1), None
#     Edge 17, Type (0, 1), None
#     Edge 18, Type (0, 1), None
#     Edge 19, Type (0, 1), None
#     Edge 20, Type (0, 1), None
#     Edge 21, Type (0, 1), None
#     Edge 22, Type (0, 1), None
#     Edge 23, Type (0, 1), None
#     Edge 24, Type (0, 1), None
#     Edge 25, Type (0, 1), None
#     Edge 26, Type (0, 1), None
#     Edge 27, Type (0, 1), None
#     Edge 28, Type (0, 1), None
#     Edge 29, Type (0, 1), None
#     Edge 30, Type (0, 1), None
#     Edge 31, Type (0, 1), None
#     Edge 32, Type (0, 1), None
#     Edge 33, Type (0, 1), None
#     Edge 34, Type (0, 1), None
#     Edge 35, Type (0, 1), None
# Relax obj value: 0.195
# Max RMSD: 0.234
# Mean RMSD: 0.125
data_MOF--net-zzz--node1-VOLQOD_clean_sbu_1--node2-CUQRIR_clean_linker_1--edge1-none
_symmetry_space_group_name_H-M    P1
_symmetry_Int_Tables_number       1
_symmetry_cell_setting            triclinic
loop_
_symmetry_equiv_pos_as_xyz
'x, y, z'
_cell_length_a     20.13308
_cell_length_b     20.065654
_cell_length_c     6.9304971
_cell_angle_alpha  89.397466
_cell_angle_beta   89.288522
_cell_angle_gamma 92.868833
loop_
_atom_site_label
_atom_site_type_symbol
_atom_site_fract_x
_atom_site_fract_y
_atom_site_fract_z
_atom_type_partial_charge
C0 C 0.79088 0.54427 0.05915 0.0
N1 N 0.84337 0.50961 0.12571 0.0
N2 N 0.75895 0.51068 0.91122 0.0
C3 C 0.7638 0.60363 0.1576 0.0
C4 C 0.79239 0.45369 0.89833 0.0
N5 N 0.84577 0.45569 0.01456 0.0
C6 C 0.76753 0.39074 0.7965 0.0
H7 H 0.71014 0.59367 0.19102 0.0
H8 H 0.76832 0.64741 0.05833 0.0
H9 H 0.79021 0.61537 0.29343 0.0
H10 H 0.71422 0.37928 0.83131 0.0
H11 H 0.79354 0.34613 0.84404 0.0
H12 H 0.7738 0.39748 0.638 0.0
C13 C 0.9683 0.75339 0.14699 0.0
N14 N 0.99313 0.81784 0.16231 0.0
N15 N 0.99981 0.72196 -0.00026 0.0
C16 C 0.90594 0.72664 0.24693 0.0
C17 C 0.04844 0.7674 0.94406 0.0
N18 N 0.04324 0.82639 0.03433 0.0
C19 C 0.10006 0.75653 0.78872 0.0
H20 H 0.91839 0.70908 0.39381 0.0
H21 H 0.88265 0.68472 0.16588 0.0
H22 H 0.86975 0.76626 0.26156 0.0
H23 H 0.07766 0.76324 0.64464 0.0
H24 H 0.11814 0.70525 0.79931 0.0
H25 H 0.14291 0.79319 0.8017 0.0
C26 C 0.76694 0.99743 0.08533 0.0
N27 N 0.70549 0.01873 0.12927 0.0
N28 N 0.79717 0.03822 0.94797 0.0
C29 C 0.7938 0.93321 0.15737 0.0
C30 C 0.75466 0.08824 0.92956 0.0
N31 N 0.69551 0.07225 0.01818 0.0
C32 C 0.76357 0.14588 0.78773 0.0
H33 H 0.84884 0.93761 0.16267 0.0
H34 H 0.77896 0.89251 0.05712 0.0
H35 H 0.77434 0.91947 0.30323 0.0
H36 H 0.76492 0.12669 0.63812 0.0
H37 H 0.81099 0.17457 0.8154 0.0
H38 H 0.72213 0.18013 0.80133 0.0
C39 C 0.55545 0.77132 0.10452 0.0
N40 N 0.53479 0.70933 0.17025 0.0
N41 N 0.51181 0.79411 -0.02785 0.0
C42 C 0.62216 0.80447 0.14668 0.0
C43 C 0.46121 0.74659 -0.01958 0.0
N44 N 0.47948 0.69102 0.07463 0.0
C45 C 0.39868 0.74713 0.86191 0.0
H46 H 0.61742 0.8589 0.15958 0.0
H47 H 0.65697 0.79557 0.02528 0.0
H48 H 0.64333 0.78485 0.28148 0.0
H49 H 0.41153 0.74303 0.70636 0.0
H50 H 0.37324 0.79426 0.88494 0.0
H51 H 0.36379 0.70465 0.90358 0.0
C52 C 0.27079 0.52039 0.17804 0.0
N53 N 0.20668 0.5381 0.15358 0.0
N54 N 0.30057 0.55683 0.32151 0.0
C55 C 0.30205 0.46437 0.07476 0.0
C56 C 0.25324 0.59803 0.37708 0.0
N57 N 0.19468 0.58436 0.28583 0.0
C58 C 0.26022 0.64342 0.5486 0.0
H59 H 0.27015 0.41795 0.09278 0.0
H60 H 0.35219 0.45582 0.13076 0.0
H61 H 0.30575 0.47642 0.91831 0.0
H62 H 0.30935 0.67109 0.54347 0.0
H63 H 0.25748 0.61289 0.6833 0.0
H64 H 0.22002 0.67932 0.55162 0.0
C65 C 0.05532 0.2646 0.11513 0.0
N66 N 0.07371 0.2005 0.08591 0.0
N67 N 0.07861 0.28874 0.2882 0.0
C68 C 1.0152 0.30354 -0.02134 0.0
C69 C 0.10975 0.23615 0.35985 0.0
N70 N 0.09837 0.18125 0.25145 0.0
C71 C 0.1415 0.2338 0.55561 0.0
H72 H 0.03673 0.35541 -0.03211 0.0
H73 H 0.96389 0.30391 0.03799 0.0
H74 H 1.01325 0.28171 0.83287 0.0
H75 H 0.10729 0.25151 0.66759 0.0
H76 H 0.18684 0.26761 0.55469 0.0
H77 H 0.15556 0.1826 0.59334 0.0
C78 C 0.2667 0.98592 0.12478 0.0
N79 N 0.32669 0.01926 0.0853 0.0
N80 N 0.24275 1.0031 0.3047 0.0
C81 C 0.23719 0.93203 -0.00095 0.0
C82 C 0.29179 0.04568 0.36718 0.0
N83 N 0.3445 0.04807 0.24729 0.0
C84 C 0.29158 0.08539 0.5511 0.0
H85 H 0.21497 0.95527 0.87128 0.0
H86 H 0.19987 0.89927 0.0768 0.0
H87 H 0.27659 0.89992 0.94616 0.0
H88 H 0.28097 0.05224 0.67717 0.0
H89 H 0.25216 0.12187 0.5437 0.0
H90 H 0.33993 0.11338 0.57169 0.0
C91 C 0.52419 0.27298 0.12962 0.0
N92 N 0.49607 0.33312 0.10055 0.0
N93 N 0.50731 0.24649 0.30927 0.0
C94 C 0.56358 0.23861 -0.02001 0.0
C95 C 0.46897 0.29377 0.38238 0.0
N96 N 0.46997 0.34881 0.26832 0.0
C97 C 0.43406 0.2905 0.57615 0.0
H98 H 0.53071 0.19791 0.92295 0.0
H99 H 0.60837 0.21812 0.04481 0.0
H100 H 0.57949 0.27159 0.85751 0.0
H101 H 0.47037 0.28241 0.69126 0.0
H102 H 0.39671 0.24789 0.57951 0.0
H103 H 0.40817 0.33703 0.60478 0.0
O104 O 0.17226 0.0169 0.56443 0.0
Zn105 Zn 0.09489 1.01346 0.76553 0.0
O106 O 1.01514 1.00542 0.62225 0.0
Zn107 Zn 0.97477 0.0904 0.64583 0.0
Zn108 Zn 0.05173 0.9843 0.37593 0.0
Zn109 Zn 0.94808 0.93541 0.64825 0.0
O110 O 0.87861 0.0762 0.7339 0.0
O111 O 0.87029 0.96803 0.80776 0.0
O112 O 0.096 0.10268 0.92831 0.0
O113 O 1.00891 0.15743 0.84126 0.0
O114 O 1.0087 0.13919 0.41806 0.0
O115 O 0.08036 0.07155 0.28928 0.0
O116 O 0.989 0.92975 0.22128 0.0
O117 O 0.09029 0.92615 0.92263 0.0
O118 O 0.94338 0.86087 0.43642 0.0
O119 O 0.99175 0.88515 0.82249 0.0
C120 C 0.18515 0.98609 0.40801 0.0
C121 C 0.85028 0.0271 0.82797 0.0
C122 C 0.06485 0.12916 0.33716 0.0
C123 C 0.06059 0.15443 0.9416 0.0
C124 C 0.97049 0.87027 0.27052 0.0
C125 C 0.04411 0.87999 0.9172 0.0
O126 O 0.14074 0.9461 0.34161 0.0
O127 O 0.49427 0.1695 0.56177 0.0
Zn128 Zn 0.50619 0.08864 0.7564 0.0
O129 O 0.52312 1.01167 0.61101 0.0
Zn130 Zn 0.44559 0.95124 0.63001 0.0
Zn131 Zn 0.54052 0.05406 0.36739 0.0
Zn132 Zn 0.59794 0.95814 0.63347 0.0
O133 O 0.46955 0.86119 0.73749 0.0
O134 O 0.57561 0.87706 0.8123 0.0
O135 O 0.41951 0.06486 0.92364 0.0
O136 O 0.37171 0.9713 0.81662 0.0
O137 O 0.40241 0.96743 0.38579 0.0
O138 O 0.45283 0.06288 0.2883 0.0
O139 O 0.59568 1.00094 0.2022 0.0
O140 O 0.5924 0.0994 0.91386 0.0
O141 O 0.66717 0.96261 0.40587 0.0
O142 O 0.64538 0.0142 0.79384 0.0
C143 C 0.52398 0.18843 0.40326 0.0
C144 C 0.51939 0.84551 0.83823 0.0
C145 C 0.40079 0.02772 0.32341 0.0
C146 C 0.37171 0.01938 0.9324 0.0
C147 C 0.65525 0.98836 0.24156 0.0
C148 C 0.64433 0.06572 0.89567 0.0
O149 O 0.56657 0.15102 0.33116 0.0
O150 O 0.36493 0.51027 0.55891 0.0
Zn151 Zn 0.44483 0.51118 0.76464 0.0
O152 O 0.52949 0.53109 0.63331 0.0
Zn153 Zn 0.58119 0.45498 0.64937 0.0
Zn154 Zn 0.49653 0.54818 0.38558 0.0
Zn155 Zn 0.59071 0.60553 0.66841 0.0
O156 O 0.67844 0.48016 0.69286 0.0
O157 O 0.6763 0.58089 0.8162 0.0
O158 O 0.4558 0.42153 0.92757 0.0
O159 O 0.55666 0.38846 0.86051 0.0
O160 O 0.5517 0.40243 0.43141 0.0
O161 O 0.47245 0.45988 0.29798 0.0
O162 O 0.56319 0.60286 0.23649 0.0
O163 O 0.43874 0.59242 0.94175 0.0
O164 O 0.58783 0.67913 0.44854 0.0
O165 O 0.53751 0.6407 0.85615 0.0
C166 C 0.36016 0.5496 0.41168 0.0
C167 C 0.70361 0.5249 0.80423 0.0
C168 C 0.49578 0.4051 0.34689 0.0
C169 C 0.50194 0.3797 0.95156 0.0
C170 C 0.56995 0.66451 0.2772 0.0
C171 C 0.48449 0.63884 0.95579 0.0
O172 O 0.40916 0.58898 0.36581 0.0
O173 O 0.91441 0.56926 0.33532 0.0
Zn174 Zn 0.99914 0.58135 0.52618 0.0
O175 O 1.01403 0.49868 0.67159 0.0
Zn176 Zn 1.00714 0.5213 0.94137 0.0
Zn177 Zn 0.95468 0.42745 0.5758 0.0
Zn178 Zn 0.10151 0.45752 0.67092 0.0
O179 O 0.09924 0.53415 0.0492 0.0
O180 O 0.16762 0.46925 0.90312 0.0
O181 O 0.99853 0.65756 0.72693 0.0
O182 O 0.96834 0.61056 0.00551 0.0
O183 O 0.95606 0.44312 0.05483 0.0
O184 O 0.90566 0.39088 0.81678 0.0
O185 O 1.0018 0.36011 0.40251 0.0
O186 O 0.08669 0.6007 0.37637 0.0
O187 O 0.10435 0.37022 0.5117 0.0
O188 O 0.14469 0.52038 0.50628 0.0
C189 C 0.87926 0.51579 0.29532 0.0
C190 C 0.15719 0.51215 0.03325 0.0
C191 C 0.90212 0.42216 -0.023 0.0
C192 C 0.98489 0.66264 0.90746 0.0
C193 C 0.06185 0.3429 0.39658 0.0
C194 C 0.14133 0.57198 0.40223 0.0
O195 O 0.88976 0.4618 0.38569 0.0
loop_
_geom_bond_atom_site_label_1
_geom_bond_atom_site_label_2
_geom_bond_distance
_geom_bond_site_symmetry_2
_ccdc_geom_bond_type
C0 N1 1.317 . S
C0 N2 1.348 1_554 S
C0 C3 1.485 . S
N1 C0 1.317 . S
N1 N5 1.370 1_554 S
N2 C0 1.348 1_556 S
N2 C4 1.346 . S
C3 C0 1.485 . S
C3 H7 0.960 . S
C3 H8 0.961 . S
C3 H9 0.960 . S
C4 N2 1.346 . S
C4 N5 1.307 . S
C4 C6 1.486 . S
N5 N1 1.370 1_556 S
N5 C4 1.307 . S
C6 C4 1.486 . S
C6 H10 0.960 . S
C6 H11 0.960 . S
C6 H12 0.959 . S
H7 C3 0.960 . S
H8 C3 0.961 . S
H9 C3 0.960 . S
H10 C6 0.960 . S
H11 C6 0.960 . S
H12 C6 0.959 . S
C13 N14 1.317 . S
C13 N15 1.348 . S
C13 C16 1.485 . S
N14 C13 1.317 . S
N14 N18 1.370 1_655 S
N15 C13 1.348 . S
N15 C17 1.346 1_554 S
C16 C13 1.485 . S
C16 H20 0.960 1_655 S
C16 H21 0.961 . S
C16 H22 0.960 . S
C17 N15 1.346 1_556 S
C17 N18 1.307 1_656 S
C17 C19 1.486 1_655 S
N18 N14 1.370 1_455 S
N18 C17 1.307 1_454 S
C19 C17 1.486 1_455 S
C19 H23 0.960 1_455 S
C19 H24 0.960 . S
C19 H25 0.959 . S
H20 C16 0.960 1_455 S
H21 C16 0.961 . S
H22 C16 0.960 . S
H23 C19 0.960 1_655 S
H24 C19 0.960 . S
H25 C19 0.959 . S
C26 N27 1.317 . S
C26 N28 1.348 . S
C26 C29 1.485 . S
N27 C26 1.317 . S
N27 N31 1.371 1_554 S
N28 C26 1.348 . S
N28 C30 1.346 1_564 S
C29 C26 1.485 . S
C29 H33 0.960 1_565 S
C29 H34 0.961 . S
C29 H35 0.960 . S
C30 N28 1.346 1_546 S
C30 N31 1.307 1_545 S
C30 C32 1.486 . S
N31 N27 1.371 1_556 S
N31 C30 1.307 1_565 S
C32 C30 1.486 . S
C32 H36 0.960 1_545 S
C32 H37 0.960 . S
C32 H38 0.959 . S
H33 C29 0.960 1_545 S
H34 C29 0.961 . S
H35 C29 0.960 . S
H36 C32 0.960 1_565 S
H37 C32 0.960 . S
H38 C32 0.959 . S
C39 N40 1.317 . S
C39 N41 1.348 1_554 S
C39 C42 1.485 . S
N40 C39 1.317 . S
N40 N44 1.370 1_554 S
N41 C39 1.348 1_556 S
N41 C43 1.346 . S
C42 C39 1.485 . S
C42 H46 0.960 . S
C42 H47 0.961 . S
C42 H48 0.960 . S
C43 N41 1.346 . S
C43 N44 1.307 . S
C43 C45 1.486 . S
N44 N40 1.370 1_556 S
N44 C43 1.307 . S
C45 C43 1.486 . S
C45 H49 0.960 . S
C45 H50 0.960 . S
C45 H51 0.959 . S
H46 C42 0.960 . S
H47 C42 0.961 . S
H48 C42 0.960 . S
H49 C45 0.960 . S
H50 C45 0.960 . S
H51 C45 0.959 . S
C52 N53 1.317 . S
C52 N54 1.348 . S
C52 C55 1.485 1_554 S
N53 C52 1.317 . S
N53 N57 1.370 . S
N54 C52 1.348 . S
N54 C56 1.346 . S
C55 C52 1.485 1_556 S
C55 H59 0.960 . S
C55 H60 0.961 . S
C55 H61 0.960 . S
C56 N54 1.346 . S
C56 N57 1.307 . S
C56 C58 1.486 . S
N57 N53 1.370 . S
N57 C56 1.307 . S
C58 C56 1.486 . S
C58 H62 0.960 . S
C58 H63 0.960 . S
C58 H64 0.959 . S
H59 C55 0.960 . S
H60 C55 0.961 . S
H61 C55 0.960 . S
H62 C58 0.960 . S
H63 C58 0.960 . S
H64 C58 0.959 . S
C65 N66 1.317 . S
C65 N67 1.348 . S
C65 C68 1.485 1_554 S
N66 C65 1.317 . S
N66 N70 1.370 . S
N67 C65 1.348 . S
N67 C69 1.346 . S
C68 C65 1.485 1_556 S
C68 H72 0.960 . S
C68 H73 0.962 1_456 S
C68 H74 0.960 . S
C69 N67 1.346 . S
C69 N70 1.307 . S
C69 C71 1.486 . S
N70 N66 1.370 . S
N70 C69 1.307 . S
C71 C69 1.486 . S
C71 H75 0.960 1_455 S
C71 H76 0.960 . S
C71 H77 0.959 . S
H72 C68 0.960 . S
H73 C68 0.962 1_654 S
H74 C68 0.960 . S
H75 C71 0.960 1_655 S
H76 C71 0.960 . S
H77 C71 0.959 . S
C78 N79 1.317 . S
C78 N80 1.348 . S
C78 C81 1.484 1_544 S
N79 C78 1.317 . S
N79 N83 1.370 . S
N80 C78 1.348 . S
N80 C82 1.346 . S
C81 C78 1.484 1_566 S
C81 H85 0.953 1_565 S
C81 H86 0.966 . S
C81 H87 0.963 . S
C82 N80 1.346 . S
C82 N83 1.307 . S
C82 C84 1.486 . S
N83 N79 1.370 . S
N83 C82 1.307 . S
C84 C82 1.486 . S
C84 H88 0.960 1_545 S
C84 H89 0.960 . S
C84 H90 0.959 . S
H85 C81 0.953 1_545 S
H86 C81 0.966 . S
H87 C81 0.963 . S
H88 C84 0.960 1_565 S
H89 C84 0.960 . S
H90 C84 0.959 . S
C91 N92 1.317 . S
C91 N93 1.348 . S
C91 C94 1.485 1_554 S
N92 C91 1.317 . S
N92 N96 1.370 . S
N93 C91 1.348 . S
N93 C95 1.346 . S
C94 C91 1.485 1_556 S
C94 H98 0.960 . S
C94 H99 0.961 . S
C94 H100 0.960 . S
C95 N93 1.346 . S
C95 N96 1.307 . S
C95 C97 1.486 . S
N96 N92 1.370 . S
N96 C95 1.307 . S
C97 C95 1.486 . S
C97 H101 0.960 . S
C97 H102 0.960 . S
C97 H103 0.959 . S
H98 C94 0.960 . S
H99 C94 0.961 . S
H100 C94 0.960 . S
H101 C97 0.960 . S
H102 C97 0.960 . S
H103 C97 0.959 . S
O104 Zn105 1.953 . S
O104 C120 1.225 1_545 S
Zn105 O104 1.953 . S
Zn105 O106 1.949 1_545 S
Zn105 O112 1.919 1_556 S
Zn105 O117 1.924 1_546 S
O106 Zn105 1.949 1_565 S
O106 Zn107 1.923 1_465 S
O106 Zn108 1.950 . S
O106 Zn109 1.945 1_455 S
Zn107 O106 1.923 1_645 S
Zn107 O110 1.933 . S
Zn107 O113 1.941 . S
Zn107 O114 1.965 . S
Zn108 O106 1.950 . S
Zn108 O115 1.938 1_565 S
Zn108 O116 1.906 . S
Zn108 O126 1.953 . S
Zn109 O106 1.945 1_655 S
Zn109 O111 1.932 . S
Zn109 O118 1.977 . S
Zn109 O119 1.910 . S
O110 Zn107 1.933 . S
O110 C121 1.226 . S
O111 Zn109 1.932 . S
O111 C121 1.307 1_565 S
O112 Zn105 1.919 1_554 S
O112 C123 1.253 . S
O113 Zn107 1.941 . S
O113 C123 1.283 1_656 S
O114 Zn107 1.965 . S
O114 C122 1.303 1_655 S
O115 Zn108 1.938 1_545 S
O115 C122 1.247 . S
O116 Zn108 1.906 . S
O116 C124 1.304 1_455 S
O117 Zn105 1.924 1_564 S
O117 C125 1.311 . S
O118 Zn109 1.977 . S
O118 C124 1.272 . S
O119 Zn109 1.910 . S
O119 C125 1.231 1_656 S
C120 O104 1.225 1_565 S
C120 O126 1.298 . S
C121 O110 1.226 . S
C121 O111 1.307 1_545 S
C122 O114 1.303 1_455 S
C122 O115 1.247 . S
C123 O112 1.253 . S
C123 O113 1.283 1_454 S
C124 O116 1.304 1_655 S
C124 O118 1.272 . S
C125 O117 1.311 . S
C125 O119 1.231 1_454 S
O126 Zn108 1.953 . S
O126 C120 1.298 . S
O127 Zn128 1.953 . S
O127 C143 1.225 . S
Zn128 O127 1.953 . S
Zn128 O129 1.949 . S
Zn128 O135 1.919 1_556 S
Zn128 O140 1.924 1_556 S
O129 Zn128 1.949 . S
O129 Zn130 1.923 1_545 S
O129 Zn131 1.950 . S
O129 Zn132 1.945 1_545 S
Zn130 O129 1.923 1_565 S
Zn130 O133 1.933 . S
Zn130 O136 1.941 . S
Zn130 O137 1.965 . S
Zn131 O129 1.950 . S
Zn131 O138 1.938 . S
Zn131 O139 1.906 . S
Zn131 O149 1.953 . S
Zn132 O129 1.945 1_565 S
Zn132 O134 1.932 . S
Zn132 O141 1.977 . S
Zn132 O142 1.910 . S
O133 Zn130 1.933 . S
O133 C144 1.226 . S
O134 Zn132 1.932 . S
O134 C144 1.307 . S
O135 Zn128 1.919 1_554 S
O135 C146 1.253 . S
O136 Zn130 1.941 . S
O136 C146 1.283 1_566 S
O137 Zn130 1.965 . S
O137 C145 1.303 1_565 S
O138 Zn131 1.938 . S
O138 C145 1.247 . S
O139 Zn131 1.906 . S
O139 C147 1.304 1_545 S
O140 Zn128 1.924 1_554 S
O140 C148 1.311 1_554 S
O141 Zn132 1.977 . S
O141 C147 1.272 . S
O142 Zn132 1.910 . S
O142 C148 1.231 1_565 S
C143 O127 1.225 . S
C143 O149 1.298 . S
C144 O133 1.226 . S
C144 O134 1.307 . S
C145 O137 1.303 1_545 S
C145 O138 1.247 . S
C146 O135 1.253 . S
C146 O136 1.283 1_544 S
C147 O139 1.304 1_565 S
C147 O141 1.272 . S
C148 O140 1.311 1_556 S
C148 O142 1.231 1_545 S
O149 Zn131 1.953 . S
O149 C143 1.298 . S
O150 Zn151 1.953 . S
O150 C166 1.225 . S
Zn151 O150 1.953 . S
Zn151 O152 1.949 . S
Zn151 O158 1.919 1_556 S
Zn151 O163 1.924 . S
O152 Zn151 1.949 . S
O152 Zn153 1.923 . S
O152 Zn154 1.950 . S
O152 Zn155 1.945 . S
Zn153 O152 1.923 . S
Zn153 O156 1.933 . S
Zn153 O159 1.941 . S
Zn153 O160 1.965 . S
Zn154 O152 1.950 . S
Zn154 O161 1.938 . S
Zn154 O162 1.906 . S
Zn154 O172 1.953 . S
Zn155 O152 1.945 . S
Zn155 O157 1.932 . S
Zn155 O164 1.977 . S
Zn155 O165 1.910 . S
O156 Zn153 1.933 . S
O156 C167 1.226 . S
O157 Zn155 1.932 . S
O157 C167 1.307 . S
O158 Zn151 1.919 1_554 S
O158 C169 1.253 . S
O159 Zn153 1.941 . S
O159 C169 1.283 1_556 S
O160 Zn153 1.965 . S
O160 C168 1.303 . S
O161 Zn154 1.938 . S
O161 C168 1.247 . S
O162 Zn154 1.906 . S
O162 C170 1.304 . S
O163 Zn151 1.924 . S
O163 C171 1.311 . S
O164 Zn155 1.977 . S
O164 C170 1.272 . S
O165 Zn155 1.910 . S
O165 C171 1.231 . S
C166 O150 1.225 . S
C166 O172 1.298 . S
C167 O156 1.226 . S
C167 O157 1.307 . S
C168 O160 1.303 . S
C168 O161 1.247 . S
C169 O158 1.253 . S
C169 O159 1.283 1_554 S
C170 O162 1.304 . S
C170 O164 1.272 . S
C171 O163 1.311 . S
C171 O165 1.231 . S
O172 Zn154 1.953 . S
O172 C166 1.298 . S
O173 Zn174 1.953 1_655 S
O173 C189 1.225 . S
Zn174 O173 1.953 1_455 S
Zn174 O175 1.949 . S
Zn174 O181 1.919 . S
Zn174 O186 1.924 . S
O175 Zn174 1.949 . S
O175 Zn176 1.923 1_455 S
O175 Zn177 1.950 1_455 S
O175 Zn178 1.945 . S
Zn176 O175 1.923 1_655 S
Zn176 O179 1.933 1_656 S
Zn176 O182 1.941 . S
Zn176 O183 1.965 1_556 S
Zn177 O175 1.950 1_655 S
Zn177 O184 1.938 . S
Zn177 O185 1.906 . S
Zn177 O195 1.953 . S
Zn178 O175 1.945 . S
Zn178 O180 1.932 . S
Zn178 O187 1.977 . S
Zn178 O188 1.910 . S
O179 Zn176 1.933 1_454 S
O179 C190 1.226 . S
O180 Zn178 1.932 . S
O180 C190 1.307 1_556 S
O181 Zn174 1.919 . S
O181 C192 1.254 . S
O182 Zn176 1.941 . S
O182 C192 1.279 1_655 S
O183 Zn176 1.965 1_554 S
O183 C191 1.303 1_554 S
O184 Zn177 1.938 . S
O184 C191 1.247 . S
O185 Zn177 1.906 . S
O185 C193 1.304 1_655 S
O186 Zn174 1.924 . S
O186 C194 1.311 . S
O187 Zn178 1.977 . S
O187 C193 1.272 . S
O188 Zn178 1.910 . S
O188 C194 1.231 . S
C189 O173 1.225 . S
C189 O195 1.298 . S
C190 O179 1.226 . S
C190 O180 1.307 1_554 S
C191 O183 1.303 1_556 S
C191 O184 1.247 . S
C192 O181 1.254 . S
C192 O182 1.279 1_455 S
C193 O185 1.304 1_455 S
C193 O187 1.272 . S
C194 O186 1.311 . S
C194 O188 1.231 . S
O195 Zn177 1.953 . S
O195 C189 1.298 . S
N80 C120 1.953 1_545 S
C143 N93 1.959 . S
C166 N54 1.914 . S
C193 N67 1.719 . S
C121 N28 1.707 1_546 S
N41 C144 1.713 . S
N2 C167 1.723 . S
N15 C192 1.755 1_654 S
C122 N70 1.099 . S
C145 N83 1.010 . S
C168 N96 1.014 . S
N57 C194 1.336 . S
N18 C125 1.368 . S
C148 N31 1.446 1_545 S
C171 N44 1.398 . S
N5 C191 0.954 . S
N66 C123 1.624 . S
N79 C146 1.636 . S
C169 N92 1.648 . S
C190 N53 1.739 . S
N14 C124 1.958 . S
C147 N27 1.848 . S
C170 N40 1.821 . S
N1 C189 1.913 . S
