# Generated by pormake.
# Topology pts, (4,4)-cn, num edge types: 1
# Building blocks:
#     Node 0, Type 0, BuildingBlock: MIFKUJ_clean_linker_1, # of connection points: 4
#     Node 1, Type 0, BuildingBlock: MIFKUJ_clean_linker_1, # of connection points: 4
#     Node 2, Type 1, BuildingBlock: AZAVOO_clean_sbu_0, # of connection points: 4
#     Node 3, Type 1, BuildingBlock: AZAVOO_clean_sbu_0, # of connection points: 4
#     Edge 4, Type (0, 1), BuildingBlock: OJICUG_clean_linker_0, # of connection points: 2
#     Edge 5, Type (0, 1), BuildingBlock: OJICUG_clean_linker_0, # of connection points: 2
#     Edge 6, Type (0, 1), BuildingBlock: OJICUG_clean_linker_0, # of connection points: 2
#     Edge 7, Type (0, 1), BuildingBlock: OJICUG_clean_linker_0, # of connection points: 2
#     Edge 8, Type (0, 1), BuildingBlock: OJICUG_clean_linker_0, # of connection points: 2
#     Edge 9, Type (0, 1), BuildingBlock: OJICUG_clean_linker_0, # of connection points: 2
#     Edge 10, Type (0, 1), BuildingBlock: OJICUG_clean_linker_0, # of connection points: 2
#     Edge 11, Type (0, 1), BuildingBlock: OJICUG_clean_linker_0, # of connection points: 2
# Relax obj value: 0.003
# Max RMSD: 0.041
# Mean RMSD: 0.031
data_MOF--net-pts--node1-AZAVOO_clean_sbu_0--node2-MIFKUJ_clean_linker_1--edge1-OJICUG_clean_linker_0
_symmetry_space_group_name_H-M    P1
_symmetry_Int_Tables_number       1
_symmetry_cell_setting            triclinic
loop_
_symmetry_equiv_pos_as_xyz
'x, y, z'
_cell_length_a     23.105974
_cell_length_b     24.316299
_cell_length_c     31.589291
_cell_angle_alpha  89.966606
_cell_angle_beta   96.604946
_cell_angle_gamma 89.283557
loop_
_atom_site_label
_atom_site_type_symbol
_atom_site_fract_x
_atom_site_fract_y
_atom_site_fract_z
_atom_type_partial_charge
H0 H 0.66916 0.95063 0.03629 0.0
H1 H 0.75958 0.94138 0.08479 0.0
H2 H 0.71209 0.08603 0.15271 0.0
H3 H 0.62253 0.0958 0.10391 0.0
H4 H 0.5364 0.02596 0.09779 0.0
H5 H 0.59293 0.95046 0.93526 0.0
H6 H 0.66794 0.95179 0.88701 0.0
H7 H 0.74053 0.09785 0.94887 0.0
H8 H 0.66452 0.09665 0.99728 0.0
H9 H 0.39608 0.09901 0.95416 0.0
H10 H 0.30403 0.08276 0.90896 0.0
H11 H 0.319 0.90949 0.93885 0.0
H12 H 0.41034 0.9262 0.98457 0.0
H13 H 0.51007 0.0221 0.93984 0.0
H14 H 0.38696 0.09971 0.04417 0.0
H15 H 0.30047 0.09252 0.08226 0.0
H16 H 0.36197 0.93402 0.13165 0.0
H17 H 0.44816 0.94152 0.09363 0.0
C18 C 0.63897 0.02405 0.06636 0.0
C19 C 0.67898 0.98129 0.06084 0.0
C20 C 0.73059 0.97592 0.08859 0.0
C21 C 0.74253 0.01272 0.12267 0.0
C22 C 0.70364 0.05673 0.12698 0.0
C23 C 0.65249 0.06235 0.09911 0.0
C24 C 0.58064 0.02597 0.04103 0.0
C25 C 0.53105 0.02594 0.06322 0.0
C26 C 0.5731 0.02483 0.99587 0.0
C27 C 0.62276 0.02359 0.96981 0.0
C28 C 0.62503 -0.01726 0.93864 0.0
C29 C 0.66787 -0.01638 0.91098 0.0
C30 C 0.70964 0.02538 0.91376 0.0
C31 C 0.70896 0.06512 0.94606 0.0
C32 C 0.66563 0.0644 0.97374 0.0
C33 C 0.40968 0.01375 0.97247 0.0
C34 C 0.3789 0.05776 0.95143 0.0
C35 C 0.32635 0.04847 0.92592 0.0
C36 C 0.3046 -0.00512 0.92052 0.0
C37 C 0.33496 0.95112 0.94248 0.0
C38 C 0.38694 0.96058 0.9685 0.0
C39 C 0.46737 0.02231 0.9967 0.0
C40 C 0.51632 0.02352 0.9744 0.0
C41 C 0.47461 0.02395 0.04153 0.0
C42 C 0.42381 0.02108 0.06609 0.0
C43 C 0.38179 0.06356 0.06336 0.0
C44 C 0.3326 0.05951 0.0852 0.0
C45 C 0.32433 0.01257 0.10968 0.0
C46 C 0.36684 0.97037 0.11261 0.0
C47 C 0.41628 0.97476 0.09122 0.0
H48 H 0.09667 0.41547 0.43525 0.0
H49 H 0.09004 0.33298 0.39154 0.0
H50 H 0.95518 0.27205 0.46305 0.0
H51 H 0.9583 0.35702 0.50374 0.0
H52 H 0.02564 0.49344 0.44212 0.0
H53 H 0.1101 0.35546 0.53991 0.0
H54 H 0.11226 0.27067 0.581 0.0
H55 H 0.97751 0.33659 0.65177 0.0
H56 H 0.97169 0.41876 0.60763 0.0
H57 H 0.96157 0.56458 0.60303 0.0
H58 H 0.95738 0.64351 0.6489 0.0
H59 H 0.09052 0.72207 0.58496 0.0
H60 H 0.09955 0.63918 0.54271 0.0
H61 H 0.0411 0.49496 0.59965 0.0
H62 H 0.96254 0.63866 0.49801 0.0
H63 H 0.96819 0.72108 0.45495 0.0
H64 H 0.10117 0.64164 0.38944 0.0
H65 H 0.10089 0.56355 0.43644 0.0
C66 C 0.02857 0.39227 0.47328 0.0
C67 C 0.0652 0.38455 0.44118 0.0
C68 C 0.0618 0.33691 0.41646 0.0
C69 C 0.02229 0.29532 0.42369 0.0
C70 C 0.98551 0.30333 0.45585 0.0
C71 C 0.98798 0.35162 0.47986 0.0
C72 C 0.03189 0.44375 0.49871 0.0
C73 C 0.02977 0.49392 0.47669 0.0
C74 C 0.03627 0.44416 0.54379 0.0
C75 C 0.03985 0.39314 0.56991 0.0
C76 C 0.0803 0.35122 0.56376 0.0
C77 C 0.08221 0.30302 0.58799 0.0
C78 C 0.04497 0.29636 0.61992 0.0
C79 C 0.00597 0.33939 0.62696 0.0
C80 C 0.00308 0.3869 0.602 0.0
C81 C 0.03028 0.59596 0.5688 0.0
C82 C 0.99044 0.59853 0.59913 0.0
C83 C 0.98744 0.64446 0.62507 0.0
C84 C 0.0228 0.69028 0.62051 0.0
C85 C 0.0629 0.68766 0.59004 0.0
C86 C 0.06738 0.64055 0.56507 0.0
C87 C 0.0336 0.54509 0.54305 0.0
C88 C 0.03709 0.49474 0.56508 0.0
C89 C 0.03143 0.5447 0.49797 0.0
C90 C 0.03241 0.59523 0.47149 0.0
C91 C 0.99411 0.6398 0.47522 0.0
C92 C 0.99656 0.68665 0.4497 0.0
C93 C 0.03563 0.68899 0.41853 0.0
C94 C 0.07195 0.64303 0.41383 0.0
C95 C 0.07115 0.59747 0.44042 0.0
Mg96 Mg 0.07432 -0.01796 0.29224 0.0
O97 O 0.98567 0.98075 0.24939 0.0
O98 O 0.91844 0.96893 0.29417 0.0
Mg99 Mg 0.96045 0.9579 0.36243 0.0
C100 C 0.93249 0.9766 0.25669 0.0
C101 C 0.13162 0.98145 0.20864 0.0
O102 O 0.10635 0.93331 0.20781 0.0
O103 O 0.05274 0.06767 0.31616 0.0
O104 O 0.98704 0.04836 0.36089 0.0
O105 O 0.08696 0.89071 0.28904 0.0
O106 O 0.04049 0.93302 0.33708 0.0
C107 C 0.01863 0.08241 0.34334 0.0
C108 C 0.05787 0.88778 0.32155 0.0
O109 O 0.12304 0.01484 0.23836 0.0
Mg110 Mg 0.9779 -0.01561 0.74474 0.0
O111 O 0.0636 0.97809 0.79009 0.0
O112 O 0.13464 0.95879 0.74954 0.0
Mg113 Mg 0.09697 0.95519 0.67976 0.0
C114 C 0.11708 0.96803 0.78578 0.0
C115 C 0.87275 0.01506 0.78794 0.0
O116 O 0.85308 -0.00126 0.74935 0.0
O117 O 0.0038 0.06908 0.72332 0.0
O118 O 0.07382 0.0473 0.68241 0.0
O119 O 0.96279 0.89388 0.74683 0.0
O120 O 0.01316 0.93453 0.70064 0.0
C121 C 0.04138 0.08263 0.69862 0.0
C122 C 0.99395 0.88995 0.71542 0.0
O123 O 0.92758 0.01762 0.79775 0.0
C124 C 0.25286 0.0501 0.15711 0.0
C125 C 0.27155 0.00704 0.13205 0.0
H126 H 0.19384 0.07597 0.20111 0.0
C127 C 0.24071 0.95754 0.12968 0.0
H128 H 0.2759 0.08869 0.15955 0.0
C129 C 0.19355 0.95042 0.15302 0.0
C130 C 0.17642 -0.00757 0.17971 0.0
H131 H 0.25354 0.92396 0.1101 0.0
H132 H 0.17177 0.91116 0.15114 0.0
C133 C 0.20594 0.04276 0.18092 0.0
C134 C 0.99346 0.22344 0.65758 0.0
C135 C 0.0454 0.24409 0.64466 0.0
H136 H 0.95188 0.15665 0.68577 0.0
C137 C 0.09714 0.21304 0.65392 0.0
H138 H 0.95248 0.24545 0.65053 0.0
C139 C 0.09626 0.16137 0.67311 0.0
C140 C 0.04398 0.14021 0.68452 0.0
H141 H 0.13831 0.22807 0.64571 0.0
H142 H 0.13634 0.13747 0.67833 0.0
C143 C 0.99293 0.17234 0.67774 0.0
C144 C 0.78203 0.00334 0.19908 0.0
C145 C 0.79205 0.00263 0.15613 0.0
H146 H 0.81784 -0.00475 0.264 0.0
C147 C 0.84876 -0.00822 0.14595 0.0
H148 H 0.73863 0.01075 0.20786 0.0
C149 C 0.89485 -0.01689 0.17841 0.0
C150 C 0.88463 -0.01588 0.22149 0.0
H151 H 0.85755 -0.00906 0.11301 0.0
H152 H 0.93829 0.97558 0.1698 0.0
C153 C 0.82753 -0.00603 0.23127 0.0
C154 C 0.96276 0.75447 0.66109 0.0
C155 C 0.0168 0.74052 0.64698 0.0
H156 H 0.91417 0.81168 0.69504 0.0
C157 C 0.06441 0.7754 0.65809 0.0
H158 H 0.9244 0.73007 0.65243 0.0
C159 C 0.05753 0.82359 0.68125 0.0
C160 C 0.00352 0.83693 0.69498 0.0
H161 H 0.10708 0.76577 0.64894 0.0
H162 H 0.09447 0.85031 0.68855 0.0
C163 C 0.95656 0.80155 0.68544 0.0
C164 C 0.25815 0.94501 0.85681 0.0
C165 C 0.25354 -0.01597 0.88901 0.0
H166 H 0.21844 0.90953 0.79881 0.0
C167 C 0.20162 0.01475 0.889 0.0
H168 H 0.29789 0.92111 0.85594 0.0
C169 C 0.15558 0.00742 0.85665 0.0
C170 C 0.16145 0.97025 0.8233 0.0
H171 H 0.19708 0.04501 0.9136 0.0
H172 H 0.11659 0.03262 0.85665 0.0
C173 C 0.21282 0.93856 0.82407 0.0
C174 C 0.96767 0.21485 0.38951 0.0
C175 C 0.0203 0.24331 0.39862 0.0
H176 H 0.92607 0.1415 0.36486 0.0
C177 C 0.07139 0.22035 0.38508 0.0
H178 H 0.92709 0.23175 0.39813 0.0
C179 C 0.07018 0.16944 0.36449 0.0
C180 C 0.01821 0.13988 0.35792 0.0
H181 H 0.11295 0.24042 0.39191 0.0
H182 H 0.11053 0.15182 0.35593 0.0
C183 C 0.96683 0.1634 0.36994 0.0
C184 C 0.73215 0.02008 0.83837 0.0
C185 C 0.75179 0.02802 0.88165 0.0
H186 H 0.75455 0.01065 0.7751 0.0
C187 C 0.81155 0.03628 0.89369 0.0
H188 H 0.68624 0.01472 0.82796 0.0
C189 C 0.85114 0.03397 0.86316 0.0
C190 C 0.83149 0.02377 0.82007 0.0
H191 H 0.8279 0.04251 0.92685 0.0
H192 H 0.89716 0.03861 0.87349 0.0
C193 C 0.7714 0.01806 0.80801 0.0
C194 C 0.0926 0.75212 0.37583 0.0
C195 C 0.03968 0.73908 0.39155 0.0
H196 H 0.13867 0.80826 0.34011 0.0
C197 C 0.99147 0.77483 0.38163 0.0
H198 H 0.13151 0.72725 0.38358 0.0
C199 C 0.99676 0.8229 0.35807 0.0
C200 C 0.04962 0.83512 0.34262 0.0
H201 H 0.94955 0.76603 0.39202 0.0
H202 H 0.95952 0.85041 0.3518 0.0
C203 C 0.09708 0.79893 0.351 0.0
loop_
_geom_bond_atom_site_label_1
_geom_bond_atom_site_label_2
_geom_bond_distance
_geom_bond_site_symmetry_2
_ccdc_geom_bond_type
H0 C19 0.949 . S
H1 C20 0.950 . S
H2 C22 0.950 . S
H3 C23 0.950 . S
H4 C25 0.950 . S
H5 C28 0.950 . S
H6 C29 0.950 . S
H7 C31 0.951 . S
H8 C32 0.949 . S
H9 C34 0.949 . S
H10 C35 0.950 . S
H11 C37 0.950 . S
H12 C38 0.950 . S
H13 C40 0.950 . S
H14 C43 0.950 . S
H15 C44 0.950 . S
H16 C46 0.951 . S
H17 C47 0.949 . S
C18 C19 1.376 1_545 S
C18 C23 1.386 . S
C18 C24 1.483 . S
C19 H0 0.949 . S
C19 C18 1.376 1_565 S
C19 C20 1.397 . S
C20 H1 0.950 . S
C20 C19 1.397 . S
C20 C21 1.391 1_565 S
C21 C20 1.391 1_545 S
C21 C22 1.405 . S
C22 H2 0.950 . S
C22 C21 1.405 . S
C22 C23 1.367 . S
C23 H3 0.950 . S
C23 C18 1.386 . S
C23 C22 1.367 . S
C24 C18 1.483 . S
C24 C25 1.382 1_545 S
C24 C26 1.403 1_554 S
C25 H4 0.950 . S
C25 C24 1.382 1_565 S
C25 C41 1.411 1_565 S
C26 C24 1.403 1_556 S
C26 C27 1.489 . S
C26 C40 1.411 . S
C27 C26 1.489 . S
C27 C28 1.383 1_545 S
C27 C32 1.382 . S
C28 H5 0.950 . S
C28 C27 1.383 1_565 S
C28 C29 1.395 . S
C29 H6 0.950 . S
C29 C28 1.395 . S
C29 C30 1.288 1_565 S
C30 C29 1.288 1_545 S
C30 C31 1.392 . S
C31 H7 0.951 . S
C31 C30 1.392 . S
C31 C32 1.392 . S
C32 H8 0.949 . S
C32 C27 1.382 . S
C32 C31 1.392 . S
C33 C34 1.376 . S
C33 C38 1.386 1_545 S
C33 C39 1.483 . S
C34 H9 0.949 . S
C34 C33 1.376 . S
C34 C35 1.397 . S
C35 H10 0.950 . S
C35 C34 1.397 . S
C35 C36 1.391 . S
C36 C35 1.391 . S
C36 C37 1.405 1_545 S
C37 H11 0.950 . S
C37 C36 1.405 1_565 S
C37 C38 1.367 . S
C38 H12 0.950 . S
C38 C33 1.386 1_565 S
C38 C37 1.367 . S
C39 C33 1.483 . S
C39 C40 1.382 . S
C39 C41 1.403 1_556 S
C40 H13 0.950 . S
C40 C26 1.411 . S
C40 C39 1.382 . S
C41 C25 1.411 1_545 S
C41 C39 1.403 1_554 S
C41 C42 1.489 1_545 S
C42 C41 1.489 1_565 S
C42 C43 1.381 1_565 S
C42 C47 1.384 . S
C43 H14 0.950 . S
C43 C42 1.381 1_545 S
C43 C44 1.395 . S
C44 H15 0.950 . S
C44 C43 1.395 . S
C44 C45 1.288 . S
C45 C44 1.288 . S
C45 C46 1.392 1_545 S
C46 H16 0.951 . S
C46 C45 1.392 1_565 S
C46 C47 1.392 . S
C47 H17 0.949 . S
C47 C42 1.384 . S
C47 C46 1.392 . S
H48 C67 0.949 . S
H49 C68 0.950 . S
H50 C70 0.950 . S
H51 C71 0.950 . S
H52 C73 0.950 . S
H53 C76 0.950 . S
H54 C77 0.950 . S
H55 C79 0.951 . S
H56 C80 0.949 . S
H57 C82 0.949 . S
H58 C83 0.950 . S
H59 C85 0.950 . S
H60 C86 0.950 . S
H61 C88 0.950 . S
H62 C91 0.950 . S
H63 C92 0.950 . S
H64 C94 0.951 . S
H65 C95 0.949 . S
C66 C67 1.376 . S
C66 C71 1.386 1_455 S
C66 C72 1.483 . S
C67 H48 0.949 . S
C67 C66 1.376 . S
C67 C68 1.397 . S
C68 H49 0.950 . S
C68 C67 1.397 . S
C68 C69 1.391 . S
C69 C68 1.391 . S
C69 C70 1.405 1_455 S
C70 H50 0.950 . S
C70 C69 1.405 1_655 S
C70 C71 1.367 . S
C71 H51 0.950 . S
C71 C66 1.386 1_655 S
C71 C70 1.367 . S
C72 C66 1.483 . S
C72 C73 1.382 . S
C72 C74 1.403 . S
C73 H52 0.950 . S
C73 C72 1.382 . S
C73 C89 1.411 . S
C74 C72 1.403 . S
C74 C75 1.489 . S
C74 C88 1.411 . S
C75 C74 1.489 . S
C75 C76 1.383 . S
C75 C80 1.382 1_455 S
C76 H53 0.950 . S
C76 C75 1.383 . S
C76 C77 1.395 . S
C77 H54 0.950 . S
C77 C76 1.395 . S
C77 C78 1.288 . S
C78 C77 1.288 . S
C78 C79 1.392 1_455 S
C79 H55 0.951 . S
C79 C78 1.392 1_655 S
C79 C80 1.392 . S
C80 H56 0.949 . S
C80 C75 1.382 1_655 S
C80 C79 1.392 . S
C81 C82 1.376 1_455 S
C81 C86 1.386 . S
C81 C87 1.483 . S
C82 H57 0.949 . S
C82 C81 1.376 1_655 S
C82 C83 1.397 . S
C83 H58 0.950 . S
C83 C82 1.397 . S
C83 C84 1.391 1_655 S
C84 C83 1.391 1_455 S
C84 C85 1.405 . S
C85 H59 0.950 . S
C85 C84 1.405 . S
C85 C86 1.367 . S
C86 H60 0.950 . S
C86 C81 1.386 . S
C86 C85 1.367 . S
C87 C81 1.483 . S
C87 C88 1.382 . S
C87 C89 1.403 . S
C88 H61 0.950 . S
C88 C74 1.411 . S
C88 C87 1.382 . S
C89 C73 1.411 . S
C89 C87 1.403 . S
C89 C90 1.489 . S
C90 C89 1.489 . S
C90 C91 1.383 1_455 S
C90 C95 1.382 . S
C91 H62 0.950 . S
C91 C90 1.383 1_655 S
C91 C92 1.395 . S
C92 H63 0.950 . S
C92 C91 1.395 . S
C92 C93 1.288 1_655 S
C93 C92 1.288 1_455 S
C93 C94 1.392 . S
C94 H64 0.951 . S
C94 C93 1.392 . S
C94 C95 1.392 . S
C95 H65 0.949 . S
C95 C90 1.382 . S
C95 C94 1.392 . S
Mg96 O97 2.028 . S
Mg96 O103 1.986 . S
Mg96 O105 2.114 1_545 S
Mg96 O106 2.251 1_545 S
Mg96 O109 2.010 . S
O97 Mg96 2.028 . S
O97 C100 1.250 1_455 S
O98 Mg99 2.028 . S
O98 C100 1.248 . S
Mg99 O98 2.028 . S
Mg99 O104 2.032 . S
Mg99 O106 2.079 1_645 S
C100 O97 1.250 1_655 S
C100 O98 1.248 . S
C101 O102 1.264 . S
C101 O109 1.249 . S
O102 C101 1.264 . S
O103 Mg96 1.986 . S
O103 C107 1.246 . S
O104 Mg99 2.032 . S
O104 C107 1.259 1_655 S
O105 Mg96 2.114 1_565 S
O105 C108 1.252 . S
O106 Mg96 2.251 1_565 S
O106 Mg99 2.079 1_465 S
O106 C108 1.273 . S
C107 O103 1.246 . S
C107 O104 1.259 1_455 S
C108 O105 1.252 . S
C108 O106 1.273 . S
O109 Mg96 2.010 . S
O109 C101 1.249 . S
Mg110 O111 2.028 1_655 S
Mg110 O117 1.986 . S
Mg110 O119 2.114 1_545 S
Mg110 O120 2.251 1_645 S
Mg110 O123 2.010 . S
O111 Mg110 2.028 1_455 S
O111 C114 1.250 . S
O112 Mg113 2.028 . S
O112 C114 1.248 . S
Mg113 O112 2.028 . S
Mg113 O118 2.032 . S
Mg113 O120 2.079 1_545 S
C114 O111 1.250 . S
C114 O112 1.248 . S
C115 O116 1.264 . S
C115 O123 1.249 . S
O116 C115 1.264 . S
O117 Mg110 1.986 . S
O117 C121 1.246 1_655 S
O118 Mg113 2.032 . S
O118 C121 1.259 . S
O119 Mg110 2.114 1_565 S
O119 C122 1.252 1_655 S
O120 Mg110 2.251 1_465 S
O120 Mg113 2.079 1_565 S
O120 C122 1.273 . S
C121 O117 1.246 1_455 S
C121 O118 1.259 . S
C122 O119 1.252 1_455 S
C122 O120 1.273 . S
O123 Mg110 2.010 . S
O123 C115 1.249 . S
C124 C125 1.387 . S
C124 H128 0.950 . S
C124 C133 1.390 . S
C125 C124 1.387 . S
C125 C127 1.387 1_545 S
H126 C133 0.950 . S
C127 C125 1.387 1_565 S
C127 C129 1.390 . S
C127 H131 0.950 . S
H128 C124 0.950 . S
C129 C127 1.390 . S
C129 C130 1.387 1_565 S
C129 H132 0.950 . S
C130 C129 1.387 1_545 S
C130 C133 1.387 . S
H131 C127 0.950 . S
H132 C129 0.950 . S
C133 C124 1.390 . S
C133 H126 0.950 . S
C133 C130 1.387 . S
C134 C135 1.387 1_655 S
C134 H138 0.950 . S
C134 C143 1.390 . S
C135 C134 1.387 1_455 S
C135 C137 1.387 . S
H136 C143 0.950 . S
C137 C135 1.387 . S
C137 C139 1.390 . S
C137 H141 0.950 . S
H138 C134 0.950 . S
C139 C137 1.390 . S
C139 C140 1.387 . S
C139 H142 0.950 . S
C140 C139 1.387 . S
C140 C143 1.387 1_455 S
H141 C137 0.950 . S
H142 C139 0.950 . S
C143 C134 1.390 . S
C143 H136 0.950 . S
C143 C140 1.387 1_655 S
C144 C145 1.387 . S
C144 H148 0.950 . S
C144 C153 1.390 . S
C145 C144 1.387 . S
C145 C147 1.387 1_545 S
H146 C153 0.950 . S
C147 C145 1.387 1_565 S
C147 C149 1.390 . S
C147 H151 0.950 . S
H148 C144 0.950 . S
C149 C147 1.390 . S
C149 C150 1.387 1_565 S
C149 H152 0.950 . S
C150 C149 1.387 1_545 S
C150 C153 1.387 . S
H151 C147 0.950 . S
H152 C149 0.950 . S
C153 C144 1.390 . S
C153 H146 0.950 . S
C153 C150 1.387 . S
C154 C155 1.387 1_655 S
C154 H158 0.950 . S
C154 C163 1.390 . S
C155 C154 1.387 1_455 S
C155 C157 1.387 . S
H156 C163 0.950 . S
C157 C155 1.387 . S
C157 C159 1.390 . S
C157 H161 0.950 . S
H158 C154 0.950 . S
C159 C157 1.390 . S
C159 C160 1.387 . S
C159 H162 0.950 . S
C160 C159 1.387 . S
C160 C163 1.387 1_455 S
H161 C157 0.950 . S
H162 C159 0.950 . S
C163 C154 1.390 . S
C163 H156 0.950 . S
C163 C160 1.387 1_655 S
C164 C165 1.387 1_565 S
C164 H168 0.950 . S
C164 C173 1.390 . S
C165 C164 1.387 1_545 S
C165 C167 1.387 . S
H166 C173 0.950 . S
C167 C165 1.387 . S
C167 C169 1.390 . S
C167 H171 0.950 . S
H168 C164 0.950 . S
C169 C167 1.390 . S
C169 C170 1.387 . S
C169 H172 0.950 . S
C170 C169 1.387 . S
C170 C173 1.387 1_545 S
H171 C167 0.950 . S
H172 C169 0.950 . S
C173 C164 1.390 . S
C173 H166 0.950 . S
C173 C170 1.387 1_565 S
C174 C175 1.387 1_655 S
C174 H178 0.950 . S
C174 C183 1.390 . S
C175 C174 1.387 1_455 S
C175 C177 1.387 . S
H176 C183 0.950 . S
C177 C175 1.387 . S
C177 C179 1.390 . S
C177 H181 0.950 . S
H178 C174 0.950 . S
C179 C177 1.390 . S
C179 C180 1.387 . S
C179 H182 0.950 . S
C180 C179 1.387 . S
C180 C183 1.387 1_455 S
H181 C177 0.950 . S
H182 C179 0.950 . S
C183 C174 1.390 . S
C183 H176 0.950 . S
C183 C180 1.387 1_655 S
C184 C185 1.387 1_565 S
C184 H188 0.950 . S
C184 C193 1.390 . S
C185 C184 1.387 1_545 S
C185 C187 1.387 . S
H186 C193 0.950 . S
C187 C185 1.387 . S
C187 C189 1.390 . S
C187 H191 0.950 . S
H188 C184 0.950 . S
C189 C187 1.390 . S
C189 C190 1.387 . S
C189 H192 0.950 . S
C190 C189 1.387 . S
C190 C193 1.387 1_545 S
H191 C187 0.950 . S
H192 C189 0.950 . S
C193 C184 1.390 . S
C193 H186 0.950 . S
C193 C190 1.387 1_565 S
C194 C195 1.387 . S
C194 H198 0.950 . S
C194 C203 1.390 . S
C195 C194 1.387 . S
C195 C197 1.387 1_455 S
H196 C203 0.950 . S
C197 C195 1.387 1_655 S
C197 C199 1.390 . S
C197 H201 0.950 . S
H198 C194 0.950 . S
C199 C197 1.390 . S
C199 C200 1.387 1_655 S
C199 H202 0.950 . S
C200 C199 1.387 1_455 S
C200 C203 1.387 . S
H201 C197 0.950 . S
H202 C199 0.950 . S
C203 C194 1.390 . S
C203 H196 0.950 . S
C203 C200 1.387 . S
C130 C101 1.273 . S
C125 C45 1.521 . S
C140 C121 1.486 . S
C135 C78 1.507 . S
C150 C100 1.473 . S
C145 C21 1.518 . S
C160 C122 1.521 . S
C155 C84 1.520 . S
C170 C114 1.476 . S
C165 C36 1.516 . S
C180 C107 1.488 . S
C175 C69 1.512 . S
C190 C115 1.267 . S
C185 C30 1.513 . S
C195 C93 1.516 . S
C200 C108 1.521 . S
