# Generated by pormake.
# Topology tsx, (6,3)-cn, num edge types: 1
# Building blocks:
#     Node 0, Type 0, BuildingBlock: CIFDUS_clean_sbu_1, # of connection points: 6
#     Node 1, Type 0, BuildingBlock: CIFDUS_clean_sbu_1, # of connection points: 6
#     Node 2, Type 1, BuildingBlock: ESEHIV_clean_linker_0, # of connection points: 3
#     Node 3, Type 1, BuildingBlock: ESEHIV_clean_linker_0, # of connection points: 3
#     Node 4, Type 1, BuildingBlock: ESEHIV_clean_linker_0, # of connection points: 3
#     Node 5, Type 1, BuildingBlock: ESEHIV_clean_linker_0, # of connection points: 3
#     Edge 6, Type (0, 1), BuildingBlock: EYOCIG_clean_linker_4, # of connection points: 2
#     Edge 7, Type (0, 1), BuildingBlock: EYOCIG_clean_linker_4, # of connection points: 2
#     Edge 8, Type (0, 1), BuildingBlock: EYOCIG_clean_linker_4, # of connection points: 2
#     Edge 9, Type (0, 1), BuildingBlock: EYOCIG_clean_linker_4, # of connection points: 2
#     Edge 10, Type (0, 1), BuildingBlock: EYOCIG_clean_linker_4, # of connection points: 2
#     Edge 11, Type (0, 1), BuildingBlock: EYOCIG_clean_linker_4, # of connection points: 2
#     Edge 12, Type (0, 1), BuildingBlock: EYOCIG_clean_linker_4, # of connection points: 2
#     Edge 13, Type (0, 1), BuildingBlock: EYOCIG_clean_linker_4, # of connection points: 2
#     Edge 14, Type (0, 1), BuildingBlock: EYOCIG_clean_linker_4, # of connection points: 2
#     Edge 15, Type (0, 1), BuildingBlock: EYOCIG_clean_linker_4, # of connection points: 2
#     Edge 16, Type (0, 1), BuildingBlock: EYOCIG_clean_linker_4, # of connection points: 2
#     Edge 17, Type (0, 1), BuildingBlock: EYOCIG_clean_linker_4, # of connection points: 2
# Relax obj value: 0.128
# Max RMSD: 0.155
# Mean RMSD: 0.117
data_MOF--net-tsx--node1-CIFDUS_clean_sbu_1--node2-ESEHIV_clean_linker_0--edge1-EYOCIG_clean_linker_4
_symmetry_space_group_name_H-M    P1
_symmetry_Int_Tables_number       1
_symmetry_cell_setting            triclinic
loop_
_symmetry_equiv_pos_as_xyz
'x, y, z'
_cell_length_a     12.817621
_cell_length_b     15.820574
_cell_length_c     28.234152
_cell_angle_alpha  96.729595
_cell_angle_beta   93.863702
_cell_angle_gamma 92.458704
loop_
_atom_site_label
_atom_site_type_symbol
_atom_site_fract_x
_atom_site_fract_y
_atom_site_fract_z
_atom_type_partial_charge
O0 O 0.98576 0.15399 -0.00805 0.0
Mn1 Mn 0.06745 0.04141 -0.01429 0.0
O2 O 0.83817 0.12432 0.94294 0.0
Mn3 Mn 0.86203 0.01307 0.91998 0.0
O4 O 0.14645 0.92716 0.97639 0.0
O5 O 0.20205 0.1119 0.00586 0.0
Mn6 Mn 0.28523 0.05397 0.04117 0.0
O7 O 0.04842 0.02609 0.05728 0.0
O8 O 0.31474 0.95631 0.00308 0.0
O9 O 0.09107 0.05581 0.91402 0.0
O10 O 0.94575 1.00227 0.86953 0.0
O11 O 0.35543 0.15737 0.03906 0.0
O12 O 0.21179 0.03613 0.09391 0.0
C13 C 0.85278 0.9187 0.96744 0.0
C14 C 0.89855 0.17488 0.97213 0.0
C15 C 0.24219 0.90649 -0.01876 0.0
C16 C 0.27191 0.17443 0.01441 0.0
C17 C 0.11269 0.02509 0.09424 0.0
C18 C 0.03999 0.03179 0.87357 0.0
O19 O 0.93159 0.97246 0.9673 0.0
O20 O 0.7784 0.92391 0.9348 0.0
O21 O 0.48493 0.65375 0.49189 0.0
Mn22 Mn 0.56742 0.54156 0.48563 0.0
O23 O 0.33756 0.62338 0.44278 0.0
Mn24 Mn 0.36212 0.51231 0.41972 0.0
O25 O 0.64681 0.42755 0.47627 0.0
O26 O 0.70181 0.61246 0.50588 0.0
Mn27 Mn 0.78485 0.55438 0.54123 0.0
O28 O 0.54821 0.5259 0.55714 0.0
O29 O 0.81485 0.45666 0.50328 0.0
O30 O 0.59105 0.55636 0.41401 0.0
O31 O 0.4462 0.5021 0.36938 0.0
O32 O 0.85533 0.65761 0.5392 0.0
O33 O 0.7114 0.53648 0.59395 0.0
C34 C 0.35372 0.4181 0.46737 0.0
C35 C 0.3975 0.67416 0.47205 0.0
C36 C 0.74246 0.40685 0.4813 0.0
C37 C 0.772 0.6748 0.51445 0.0
C38 C 0.61233 0.52506 0.59417 0.0
C39 C 0.5402 0.53222 0.37352 0.0
O40 O 0.43207 0.47218 0.46708 0.0
O41 O 0.27926 0.42273 0.43469 0.0
H42 H 0.93462 0.09336 0.32434 0.0
H43 H 0.17184 0.91004 0.33278 0.0
H44 H 0.04602 0.02324 0.46082 0.0
C45 C 0.98391 0.05551 0.34545 0.0
C46 C 0.98194 0.06517 0.39525 0.0
C47 C 0.05133 0.99912 0.32283 0.0
C48 C 0.11799 0.95246 0.3502 0.0
C49 C 0.11633 0.96204 0.40022 0.0
C50 C 0.04702 0.01717 0.42248 0.0
H51 H 0.93328 0.97741 0.63404 0.0
H52 H 0.17749 0.17575 0.65078 0.0
H53 H 0.9976 0.11675 0.5161 0.0
C54 C 0.97692 0.0272 0.61928 0.0
C55 C 0.95737 0.0393 0.57107 0.0
C56 C 0.05449 0.07787 0.64818 0.0
C57 C 0.11493 0.13882 0.62875 0.0
C58 C 0.0965 0.15114 0.58081 0.0
C59 C 1.01428 0.10436 0.55254 0.0
H60 H 0.43572 0.5934 0.82426 0.0
H61 H 0.67389 0.41087 0.83272 0.0
H62 H 0.55102 0.52651 0.96094 0.0
C63 C 0.48576 0.55615 0.84542 0.0
C64 C 0.48479 0.56665 0.89525 0.0
C65 C 0.55307 0.49969 0.82279 0.0
C66 C 0.62037 0.45355 0.85018 0.0
C67 C 0.61972 0.46397 0.90024 0.0
C68 C 0.55094 0.51955 0.92254 0.0
H69 H 0.43194 0.47851 0.13466 0.0
H70 H 0.67577 0.67707 0.15032 0.0
H71 H 0.49465 0.61645 0.01603 0.0
C72 C 0.47524 0.52819 0.11965 0.0
C73 C 0.45522 0.53975 0.0714 0.0
C74 C 0.55298 0.57917 0.14828 0.0
C75 C 0.61305 0.63993 0.12852 0.0
C76 C 0.59413 0.6517 0.08051 0.0
C77 C 0.51175 0.6046 0.05253 0.0
C78 C 0.27894 0.33693 0.0081 0.0
C79 C 0.25747 0.26122 0.00567 0.0
C80 C 0.32909 0.4187 0.02218 0.0
C81 C 0.38683 0.47762 0.04087 0.0
C82 C 0.30862 0.75676 0.94874 0.0
C83 C 0.27067 0.82306 0.96222 0.0
C84 C 0.36537 0.68537 0.93299 0.0
C85 C 0.42108 0.63048 0.91773 0.0
C86 C 0.79591 0.81181 0.02508 0.0
C87 C 0.83763 0.86293 0.00307 0.0
C88 C 0.72755 0.75506 0.04468 0.0
C89 C 0.6653 0.70752 0.05982 0.0
C90 C 0.81912 0.32264 0.97113 0.0
C91 C 0.8685 0.26145 0.97788 0.0
C92 C 0.75123 0.37931 0.9512 0.0
C93 C 0.69049 0.4187 0.92892 0.0
C94 C 0.78031 0.83715 0.50765 0.0
C95 C 0.75826 0.76154 0.50542 0.0
C96 C 0.83095 0.91879 0.52159 0.0
C97 C 0.88884 0.97759 0.54031 0.0
C98 C 0.80811 0.25671 0.44892 0.0
C99 C 0.77088 0.32332 0.4624 0.0
C100 C 0.86381 0.18471 0.43313 0.0
C101 C 0.91889 0.1294 0.41782 0.0
C102 C 0.29785 0.31172 0.52549 0.0
C103 C 0.33905 0.36271 0.50323 0.0
C104 C 0.22994 0.25494 0.5453 0.0
C105 C 0.16785 0.20725 0.56043 0.0
C106 C 0.31632 0.82123 0.47119 0.0
C107 C 0.3665 0.76047 0.47792 0.0
C108 C 0.24783 0.87748 0.45125 0.0
C109 C 0.18708 0.9168 0.42894 0.0
C110 C 0.05803 1.00038 0.17976 0.0
C111 C 0.0735 0.01088 0.13917 0.0
C112 C 0.05372 0.99335 0.22897 0.0
C113 C 0.05531 0.99383 0.27173 0.0
C114 C 0.09823 0.05149 0.78867 0.0
C115 C 0.08447 0.04614 0.82996 0.0
C116 C 0.09089 0.05861 0.73934 0.0
C117 C 0.07384 0.06702 0.69776 0.0
C118 C 0.55772 0.49989 0.6796 0.0
C119 C 0.57303 0.51055 0.63902 0.0
C120 C 0.55396 0.49295 0.72884 0.0
C121 C 0.55629 0.49383 0.77165 0.0
C122 C 0.59817 0.55306 0.28873 0.0
C123 C 0.58453 0.54726 0.32998 0.0
C124 C 0.5905 0.56041 0.23943 0.0
C125 C 0.57305 0.56869 0.19786 0.0
loop_
_geom_bond_atom_site_label_1
_geom_bond_atom_site_label_2
_geom_bond_distance
_geom_bond_site_symmetry_2
_ccdc_geom_bond_type
O0 Mn1 2.163 1_654 S
O0 C14 1.244 1_554 S
Mn1 O0 2.163 1_456 S
Mn1 O4 2.160 1_545 S
Mn1 O5 2.221 1_556 S
Mn1 O7 2.163 1_556 S
Mn1 O9 2.160 . S
Mn1 O19 2.221 1_445 S
O2 Mn3 2.087 . S
O2 C14 1.256 . S
Mn3 O2 2.087 . S
Mn3 O10 2.089 . S
Mn3 O19 2.290 1_545 S
Mn3 O20 2.251 1_545 S
O4 Mn1 2.160 1_565 S
O4 C15 1.239 1_556 S
O5 Mn1 2.221 1_554 S
O5 Mn6 2.290 . S
O5 C16 1.278 . S
Mn6 O5 2.290 . S
Mn6 O8 2.089 1_545 S
Mn6 O11 2.251 . S
Mn6 O12 2.087 . S
O7 Mn1 2.163 1_554 S
O7 C17 1.244 . S
O8 Mn6 2.089 1_565 S
O8 C15 1.256 . S
O9 Mn1 2.160 . S
O9 C18 1.239 . S
O10 Mn3 2.089 . S
O10 C18 1.256 1_655 S
O11 Mn6 2.251 . S
O11 C16 1.241 . S
O12 Mn6 2.087 . S
O12 C17 1.256 . S
C13 O19 1.278 1_554 S
C13 O20 1.241 1_554 S
C14 O0 1.244 1_556 S
C14 O2 1.256 . S
C15 O4 1.239 1_554 S
C15 O8 1.256 . S
C16 O5 1.278 . S
C16 O11 1.241 . S
C17 O7 1.244 . S
C17 O12 1.256 . S
C18 O9 1.239 . S
C18 O10 1.256 1_455 S
O19 Mn1 2.221 1_665 S
O19 Mn3 2.290 1_565 S
O19 C13 1.278 1_556 S
O20 Mn3 2.251 1_565 S
O20 C13 1.241 1_556 S
O21 Mn22 2.163 . S
O21 C35 1.244 . S
Mn22 O21 2.163 . S
Mn22 O25 2.160 . S
Mn22 O26 2.221 . S
Mn22 O28 2.163 . S
Mn22 O30 2.160 . S
Mn22 O40 2.221 . S
O23 Mn24 2.087 . S
O23 C35 1.256 . S
Mn24 O23 2.087 . S
Mn24 O31 2.089 . S
Mn24 O40 2.290 . S
Mn24 O41 2.251 . S
O25 Mn22 2.160 . S
O25 C36 1.239 . S
O26 Mn22 2.221 . S
O26 Mn27 2.290 . S
O26 C37 1.278 . S
Mn27 O26 2.290 . S
Mn27 O29 2.089 . S
Mn27 O32 2.251 . S
Mn27 O33 2.087 . S
O28 Mn22 2.163 . S
O28 C38 1.244 . S
O29 Mn27 2.089 . S
O29 C36 1.256 . S
O30 Mn22 2.160 . S
O30 C39 1.239 . S
O31 Mn24 2.089 . S
O31 C39 1.256 . S
O32 Mn27 2.251 . S
O32 C37 1.241 . S
O33 Mn27 2.087 . S
O33 C38 1.256 . S
C34 O40 1.278 . S
C34 O41 1.241 . S
C35 O21 1.244 . S
C35 O23 1.256 . S
C36 O25 1.239 . S
C36 O29 1.256 . S
C37 O26 1.278 . S
C37 O32 1.241 . S
C38 O28 1.244 . S
C38 O33 1.256 . S
C39 O30 1.239 . S
C39 O31 1.256 . S
O40 Mn22 2.221 . S
O40 Mn24 2.290 . S
O40 C34 1.278 . S
O41 Mn24 2.251 . S
O41 C34 1.241 . S
H42 C45 0.931 . S
H43 C48 0.928 . S
H44 C50 0.930 . S
C45 H42 0.931 . S
C45 C46 1.413 . S
C45 C47 1.360 1_645 S
C46 C45 1.413 . S
C46 C50 1.429 1_655 S
C47 C45 1.360 1_465 S
C47 C48 1.372 . S
C48 H43 0.928 . S
C48 C47 1.372 . S
C48 C49 1.404 . S
C49 C48 1.404 . S
C49 C50 1.391 1_565 S
C50 H44 0.930 . S
C50 C46 1.429 1_455 S
C50 C49 1.391 1_545 S
H51 C54 0.931 1_565 S
H52 C57 0.928 . S
H53 C59 0.930 . S
C54 H51 0.931 1_545 S
C54 C55 1.413 . S
C54 C56 1.360 1_655 S
C55 C54 1.413 . S
C55 C59 1.429 . S
C56 C54 1.360 1_455 S
C56 C57 1.372 . S
C57 H52 0.928 . S
C57 C56 1.372 . S
C57 C58 1.404 . S
C58 C57 1.404 . S
C58 C59 1.391 1_455 S
C59 H53 0.930 . S
C59 C55 1.429 . S
C59 C58 1.391 1_655 S
H60 C63 0.931 . S
H61 C66 0.928 . S
H62 C68 0.934 . S
C63 H60 0.931 . S
C63 C64 1.413 . S
C63 C65 1.360 . S
C64 C63 1.413 . S
C64 C68 1.429 . S
C65 C63 1.360 . S
C65 C66 1.372 . S
C66 H61 0.928 . S
C66 C65 1.372 . S
C66 C67 1.404 . S
C67 C66 1.404 . S
C67 C68 1.391 . S
C68 H62 0.934 . S
C68 C64 1.429 . S
C68 C67 1.391 . S
H69 C72 0.931 . S
H70 C75 0.928 . S
H71 C77 0.930 . S
C72 H69 0.931 . S
C72 C73 1.413 . S
C72 C74 1.360 . S
C73 C72 1.413 . S
C73 C77 1.429 . S
C74 C72 1.360 . S
C74 C75 1.372 . S
C75 H70 0.928 . S
C75 C74 1.372 . S
C75 C76 1.404 . S
C76 C75 1.404 . S
C76 C77 1.391 . S
C77 H71 0.930 . S
C77 C73 1.429 . S
C77 C76 1.391 . S
C78 C79 1.170 . S
C78 C80 1.380 . S
C79 C78 1.170 . S
C80 C78 1.380 . S
C80 C81 1.170 . S
C81 C80 1.170 . S
C82 C83 1.170 . S
C82 C84 1.380 . S
C83 C82 1.170 . S
C84 C82 1.380 . S
C84 C85 1.170 . S
C85 C84 1.170 . S
C86 C87 1.170 . S
C86 C88 1.380 . S
C87 C86 1.170 . S
C88 C86 1.380 . S
C88 C89 1.170 . S
C89 C88 1.170 . S
C90 C91 1.170 . S
C90 C92 1.380 . S
C91 C90 1.170 . S
C92 C90 1.380 . S
C92 C93 1.170 . S
C93 C92 1.170 . S
C94 C95 1.170 . S
C94 C96 1.380 . S
C95 C94 1.170 . S
C96 C94 1.380 . S
C96 C97 1.170 . S
C97 C96 1.170 . S
C98 C99 1.170 . S
C98 C100 1.380 . S
C99 C98 1.170 . S
C100 C98 1.380 . S
C100 C101 1.170 . S
C101 C100 1.170 . S
C102 C103 1.170 . S
C102 C104 1.380 . S
C103 C102 1.170 . S
C104 C102 1.380 . S
C104 C105 1.170 . S
C105 C104 1.170 . S
C106 C107 1.170 . S
C106 C108 1.380 . S
C107 C106 1.170 . S
C108 C106 1.380 . S
C108 C109 1.170 . S
C109 C108 1.170 . S
C110 C111 1.170 . S
C110 C112 1.380 . S
C111 C110 1.170 . S
C112 C110 1.380 . S
C112 C113 1.170 . S
C113 C112 1.170 . S
C114 C115 1.170 . S
C114 C116 1.380 . S
C115 C114 1.170 . S
C116 C114 1.380 . S
C116 C117 1.170 . S
C117 C116 1.170 . S
C118 C119 1.170 . S
C118 C120 1.380 . S
C119 C118 1.170 . S
C120 C118 1.380 . S
C120 C121 1.170 . S
C121 C120 1.170 . S
C122 C123 1.170 . S
C122 C124 1.380 . S
C123 C122 1.170 . S
C124 C122 1.380 . S
C124 C125 1.170 . S
C125 C124 1.170 . S
C81 C73 1.403 . S
C79 C16 1.186 . S
C83 C15 1.472 1_556 S
C85 C64 1.466 . S
C87 C13 1.268 . S
C89 C76 1.453 . S
C91 C14 1.357 . S
C93 C67 1.404 . S
C95 C37 1.249 . S
C97 C55 1.420 1_565 S
C99 C36 1.478 . S
C101 C46 1.472 . S
C105 C58 1.451 . S
C103 C34 1.286 . S
C109 C49 1.413 . S
C107 C35 1.360 . S
C111 C17 1.485 . S
C113 C47 1.547 1_545 S
C115 C18 1.362 . S
C117 C56 1.435 . S
C121 C65 1.546 . S
C119 C38 1.491 . S
C123 C39 1.386 . S
C125 C74 1.442 . S
