# Generated by pormake.
# Topology pts, (4,4)-cn, num edge types: 1
# Building blocks:
#     Node 0, Type 0, BuildingBlock: GIZVER_clean_linker_0, # of connection points: 4
#     Node 1, Type 0, BuildingBlock: GIZVER_clean_linker_0, # of connection points: 4
#     Node 2, Type 1, BuildingBlock: QUQFOY_clean_sbu_1, # of connection points: 4
#     Node 3, Type 1, BuildingBlock: QUQFOY_clean_sbu_1, # of connection points: 4
#     Edge 4, Type (0, 1), BuildingBlock: EZIPEK_clean_linker_0, # of connection points: 2
#     Edge 5, Type (0, 1), BuildingBlock: EZIPEK_clean_linker_0, # of connection points: 2
#     Edge 6, Type (0, 1), BuildingBlock: EZIPEK_clean_linker_0, # of connection points: 2
#     Edge 7, Type (0, 1), BuildingBlock: EZIPEK_clean_linker_0, # of connection points: 2
#     Edge 8, Type (0, 1), BuildingBlock: EZIPEK_clean_linker_0, # of connection points: 2
#     Edge 9, Type (0, 1), BuildingBlock: EZIPEK_clean_linker_0, # of connection points: 2
#     Edge 10, Type (0, 1), BuildingBlock: EZIPEK_clean_linker_0, # of connection points: 2
#     Edge 11, Type (0, 1), BuildingBlock: EZIPEK_clean_linker_0, # of connection points: 2
# Relax obj value: 0.103
# Max RMSD: 0.274
# Mean RMSD: 0.183
data_MOF--net-pts--node1-QUQFOY_clean_sbu_1--node2-GIZVER_clean_linker_0--edge1-EZIPEK_clean_linker_0
_symmetry_space_group_name_H-M    P1
_symmetry_Int_Tables_number       1
_symmetry_cell_setting            triclinic
loop_
_symmetry_equiv_pos_as_xyz
'x, y, z'
_cell_length_a     18.419777
_cell_length_b     18.168371
_cell_length_c     29.398508
_cell_angle_alpha  90.437922
_cell_angle_beta   89.343947
_cell_angle_gamma 88.514308
loop_
_atom_site_label
_atom_site_type_symbol
_atom_site_fract_x
_atom_site_fract_y
_atom_site_fract_z
_atom_type_partial_charge
H0 H 0.57213 0.15012 0.03124 0.0
H1 H 0.5643 0.15993 0.88497 0.0
H2 H 0.74754 1.05759 0.95028 0.0
H3 H 0.49358 0.23978 -0.00617 0.0
H4 H 0.49408 0.24777 0.93346 0.0
H5 H 0.41907 0.14608 0.03205 0.0
H6 H 0.23042 0.08503 -0.04278 0.0
H7 H 0.41171 0.17697 0.88683 0.0
C8 C 0.59419 0.13404 -0.00182 0.0
C9 C 0.66219 0.09777 -0.00469 0.0
C10 C 0.55817 0.15605 -0.0416 0.0
C11 C 0.58972 0.13951 0.91564 0.0
C12 C 0.65796 0.10383 0.9127 0.0
C13 C 0.69298 0.08144 0.9525 0.0
C14 C 0.4928 0.2072 -0.03837 0.0
C15 C 0.42354 0.16543 -0.04038 0.0
C16 C 0.39144 0.13986 -6e-05 0.0
C17 C 0.32099 0.1123 -0.00057 0.0
C18 C 0.28535 0.1052 -0.04218 0.0
C19 C 0.31847 0.12667 0.91714 0.0
C20 C 0.38757 0.15701 0.91804 0.0
H21 H 0.07181 0.66064 0.38448 0.0
H22 H 0.08281 0.65538 0.53074 0.0
H23 H 0.99127 0.8453 0.46401 0.0
H24 H 0.16225 0.58141 0.42346 0.0
H25 H 0.16382 0.57652 0.48385 0.0
H26 H 0.08122 0.50459 0.37904 0.0
H27 H 0.00044 0.3154 0.44819 0.0
H28 H 0.0791 0.4976 0.52567 0.0
C29 C 0.05878 0.68508 0.41743 0.0
C30 C 0.02666 0.75592 0.4198 0.0
C31 C 0.07939 0.6483 0.45733 0.0
C32 C 0.0651 0.68216 0.49981 0.0
C33 C 0.03303 0.75306 0.50227 0.0
C34 C 0.0135 0.78947 0.46224 0.0
C35 C 0.12669 0.57937 0.45427 0.0
C36 C 0.08302 0.51032 0.45259 0.0
C37 C 0.0668 0.47754 0.41049 0.0
C38 C 0.03707 0.40718 0.40896 0.0
C39 C 0.02136 0.37066 0.44942 0.0
C40 C 0.03575 0.40335 0.49142 0.0
C41 C 0.06555 0.47362 0.49307 0.0
O42 O 0.90229 1.00725 0.14714 0.0
Cd43 Cd 0.99175 0.99245 0.18893 0.0
Cd44 Cd 0.98528 0.13931 0.19149 0.0
O45 O 0.88647 0.12612 0.16177 0.0
O46 O 0.99328 0.8928 0.21693 0.0
O47 O 0.98277 0.9972 0.25664 0.0
C48 C 0.98889 0.92618 0.25583 0.0
C49 C -0.00379 0.22072 0.25222 0.0
C50 C 0.86667 1.06756 0.14212 0.0
C51 C 0.11169 1.06661 0.14168 0.0
O52 O 0.07406 0.12524 0.14882 0.0
O53 O 0.09239 1.00641 0.15914 0.0
O54 O 0.98805 0.24458 0.21139 0.0
O55 O -0.00286 0.15053 0.25881 0.0
O56 O 0.89304 0.13542 0.74583 0.0
Cd57 Cd 0.99182 0.14358 0.71225 0.0
Cd58 Cd 1e-05 0.99883 0.7329 0.0
O59 O 0.90361 1.01924 0.76716 0.0
O60 O 0.99039 0.2459 0.6879 0.0
O61 O -0.00019 0.14646 0.64402 0.0
C62 C -0.00232 0.21727 0.64789 0.0
C63 C 0.00743 0.92536 0.66834 0.0
C64 C 0.86941 0.08089 0.76795 0.0
C65 C 0.1145 0.08989 0.77263 0.0
O66 O 0.09105 1.02501 0.76888 0.0
O67 O 0.08395 0.14308 0.75176 0.0
O68 O 0.00778 0.8962 0.7083 0.0
O69 O 0.00249 0.99624 0.66518 0.0
C70 C 0.26429 0.15027 0.07523 0.0
C71 C 0.28092 0.09482 0.04211 0.0
C72 C 0.19046 1.01565 0.07656 0.0
C73 C 0.17664 1.06958 0.11123 0.0
N74 N 0.2211 0.17497 0.1519 0.0
N75 N 0.27768 0.96641 0.02132 0.0
C76 C 0.22066 0.13244 0.1134 0.0
C77 C 0.25034 1.02444 0.0465 0.0
N78 N 0.28512 0.22116 0.06904 0.0
N79 N 0.14377 0.95961 0.06931 0.0
H80 H 0.32232 0.97122 -0.00056 0.0
H81 H 0.26108 0.91254 0.026 0.0
H82 H 0.09579 0.95302 0.08763 0.0
H83 H 0.14869 0.92397 0.04143 0.0
H84 H 0.26756 0.26433 0.09035 0.0
H85 H 0.31343 0.23858 0.0404 0.0
H86 H 0.25663 0.21817 0.15621 0.0
H87 H 0.19233 0.16143 0.18134 0.0
C88 C 0.9579 0.35767 0.55525 0.0
C89 C 0.02675 0.35941 0.53327 0.0
C90 C 0.0751 0.26485 0.58469 0.0
C91 C 0.00696 0.26501 0.60783 0.0
N92 N 0.88523 0.31476 0.6187 0.0
N93 N 0.1532 0.32212 0.52882 0.0
C94 C 0.94889 0.31263 0.59422 0.0
C95 C 0.08604 0.31502 0.54851 0.0
N96 N 0.90073 0.39753 0.53787 0.0
N97 N 0.12926 0.21638 0.59724 0.0
H98 H 0.1629 0.35638 0.50123 0.0
H99 H 0.20066 0.29795 0.5413 0.0
H100 H 0.1257 0.18262 0.62564 0.0
H101 H 0.17675 0.20654 0.57845 0.0
H102 H 0.84713 0.39268 0.54871 0.0
H103 H 0.90622 0.43334 0.51054 0.0
H104 H 0.8439 0.35403 0.6142 0.0
H105 H 0.87461 0.2789 0.64535 0.0
C106 C 0.76699 0.14155 0.03975 0.0
C107 C 0.7091 0.09219 0.03595 0.0
C108 C 0.74897 1.03047 0.10573 0.0
C109 C 0.81177 1.07422 0.10582 0.0
N110 N 0.88941 0.15753 0.06512 0.0
N111 N 0.64736 0.98516 0.06244 0.0
C112 C 0.82321 0.12609 0.07074 0.0
C113 C 0.70049 1.03533 0.06825 0.0
N114 N 0.76777 0.20406 0.01417 0.0
N115 N 0.73472 0.98611 0.14188 0.0
H116 H 0.61022 0.98847 0.03595 0.0
H117 H 0.64299 0.93792 0.08201 0.0
H118 H 0.76907 0.98167 0.16976 0.0
H119 H 0.68639 0.95829 0.14593 0.0
H120 H 0.80527 0.24534 0.01889 0.0
H121 H 0.72634 0.21851 -0.00818 0.0
H122 H 0.90227 0.18993 0.03721 0.0
H123 H 0.93428 0.14455 0.08511 0.0
C124 C 0.96268 0.79169 0.57261 0.0
C125 C 0.02769 0.79341 0.54636 0.0
C126 C 0.07898 0.88208 0.5998 0.0
C127 C 0.01482 0.87867 0.6269 0.0
N128 N 0.89852 0.82573 0.64263 0.0
N129 N 0.15123 0.83167 0.53675 0.0
C130 C 0.95764 0.83178 0.61444 0.0
C131 C 0.08688 0.83623 0.5605 0.0
N132 N 0.90507 0.75351 0.55665 0.0
N133 N 0.13211 0.92978 0.6115 0.0
H134 H 0.15849 0.80052 0.50703 0.0
H135 H 0.19916 0.85461 0.54778 0.0
H136 H 0.1311 0.96019 0.64173 0.0
H137 H 0.17579 0.94226 0.59044 0.0
H138 H 0.85326 0.75628 0.57111 0.0
H139 H 0.90786 0.72162 0.52698 0.0
H140 H 0.85884 0.78661 0.63846 0.0
H141 H 0.89062 0.85761 0.672 0.0
C142 C 0.28709 1.06849 0.84197 0.0
C143 C 0.27545 0.12521 0.87484 0.0
C144 C 0.15982 0.15974 0.84024 0.0
C145 C 0.17243 0.10526 0.80581 0.0
N146 N 0.2557 1.01979 0.76785 0.0
N147 N 0.21261 0.23771 0.89744 0.0
C148 C 0.23857 1.06323 0.80478 0.0
C149 C 0.21587 0.17535 0.8711 0.0
N150 N 0.34266 1.01812 0.84722 0.0
N151 N 0.09267 0.19257 0.84605 0.0
H152 H 0.25307 0.25076 0.9205 0.0
H153 H 0.17389 0.2798 0.89298 0.0
H154 H 0.04798 0.17977 0.82646 0.0
H155 H 0.07905 0.22665 0.87368 0.0
H156 H 0.34885 0.97062 0.82735 0.0
H157 H 0.38016 1.02149 0.87343 0.0
H158 H 0.30601 0.9931 0.76329 0.0
H159 H 0.2221 1.0161 0.73964 0.0
C160 C 0.95961 0.36561 0.34454 0.0
C161 C 0.02871 0.36713 0.36527 0.0
C162 C 0.0768 0.27401 0.31121 0.0
C163 C 0.00771 0.27266 0.2903 0.0
N164 N 0.88593 0.32252 0.28223 0.0
N165 N 0.15579 0.33204 0.36572 0.0
C166 C 0.94997 0.3205 0.30536 0.0
C167 C 0.08821 0.32414 0.34769 0.0
N168 N 0.90273 0.40547 0.36346 0.0
N169 N 0.13119 0.22656 0.29644 0.0
H170 H 0.1658 0.36646 0.39337 0.0
H171 H 0.20316 0.30854 0.3518 0.0
H172 H 0.1268 0.19283 0.26779 0.0
H173 H 0.17984 0.2178 0.31341 0.0
H174 H 0.84895 0.40059 0.35373 0.0
H175 H 0.9088 0.44164 0.39082 0.0
H176 H 0.84453 0.3616 0.28804 0.0
H177 H 0.87518 0.28714 0.25518 0.0
C178 C 0.69924 1.04521 0.83842 0.0
C179 C 0.70098 0.10467 0.86979 0.0
C180 C 0.81063 0.14996 0.83343 0.0
C181 C 0.80787 0.09237 0.80047 0.0
N182 N 0.74091 0.995 0.76559 0.0
N183 N 0.74419 0.22511 0.88868 0.0
C184 C 0.74934 1.04289 0.80108 0.0
C185 C 0.75175 0.16107 0.86418 0.0
N186 N 0.65121 0.99019 0.84509 0.0
N187 N 0.8718 0.19032 0.83822 0.0
H188 H 0.70131 0.23541 0.91149 0.0
H189 H 0.77584 0.27084 0.8827 0.0
H190 H 0.91878 0.1818 0.81871 0.0
H191 H 0.87905 0.22697 0.86512 0.0
H192 H 0.65256 0.94119 0.82647 0.0
H193 H 0.61217 0.99214 0.87112 0.0
H194 H 0.69589 0.96201 0.76211 0.0
H195 H 0.77583 0.99322 0.73739 0.0
C196 C 0.94982 0.79606 0.35387 0.0
C197 C 0.01613 0.79942 0.37776 0.0
C198 C 0.0614 0.89073 0.32406 0.0
C199 C -0.00315 0.88408 0.2985 0.0
N200 N 0.88195 0.82716 0.28595 0.0
N201 N 0.13848 0.84226 0.38378 0.0
C202 C 0.94173 0.83561 0.31248 0.0
C203 C 0.0728 0.84489 0.36243 0.0
N204 N 0.89409 0.75654 0.37154 0.0
N205 N 0.11189 0.94101 0.31164 0.0
H206 H 0.14851 0.81093 0.41272 0.0
H207 H 0.18492 0.86693 0.37129 0.0
H208 H 0.10873 0.97179 0.28192 0.0
H209 H 0.15522 0.95559 0.33194 0.0
H210 H 0.84166 0.75772 0.35874 0.0
H211 H 0.89899 0.72561 0.40116 0.0
H212 H 0.84371 0.78684 0.29116 0.0
H213 H 0.87214 0.85843 0.25695 0.0
loop_
_geom_bond_atom_site_label_1
_geom_bond_atom_site_label_2
_geom_bond_distance
_geom_bond_site_symmetry_2
_ccdc_geom_bond_type
H0 C8 0.930 . S
H1 C11 0.930 . S
H2 C13 0.920 1_565 S
H3 C14 0.970 . S
H4 C14 0.970 1_556 S
H5 C16 0.930 . S
H6 C18 0.930 . S
H7 C20 0.930 . S
C8 H0 0.930 . S
C8 C9 1.382 . S
C8 C10 1.426 . S
C9 C8 1.382 . S
C9 C13 1.395 . S
C10 C8 1.426 . S
C10 C11 1.375 1_554 S
C10 C14 1.532 . S
C11 H1 0.930 . S
C11 C10 1.375 1_556 S
C11 C12 1.416 . S
C12 C11 1.416 . S
C12 C13 1.375 1_556 S
C13 H2 0.920 1_545 S
C13 C9 1.395 . S
C13 C12 1.375 1_554 S
C14 H3 0.970 . S
C14 H4 0.970 1_554 S
C14 C10 1.532 . S
C14 C15 1.499 . S
C15 C14 1.499 . S
C15 C16 1.370 . S
C15 C20 1.415 1_554 S
C16 H5 0.930 . S
C16 C15 1.370 . S
C16 C17 1.407 . S
C17 C16 1.407 . S
C17 C18 1.365 1_545 S
C18 H6 0.930 . S
C18 C17 1.365 1_565 S
C18 C19 1.393 1_564 S
C19 C18 1.393 1_546 S
C19 C20 1.387 . S
C20 H7 0.930 . S
C20 C15 1.415 1_556 S
C20 C19 1.387 . S
H21 C29 0.930 . S
H22 C32 0.930 . S
H23 C34 0.936 . S
H24 C35 0.970 . S
H25 C35 0.970 . S
H26 C37 0.930 . S
H27 C39 0.930 . S
H28 C41 0.930 . S
C29 H21 0.930 . S
C29 C30 1.382 . S
C29 C31 1.426 . S
C30 C29 1.382 . S
C30 C34 1.385 1_455 S
C31 C29 1.426 . S
C31 C32 1.375 . S
C31 C35 1.532 . S
C32 H22 0.930 . S
C32 C31 1.375 . S
C32 C33 1.416 . S
C33 C32 1.416 . S
C33 C34 1.368 1_455 S
C34 H23 0.936 . S
C34 C30 1.385 1_655 S
C34 C33 1.368 1_655 S
C35 H24 0.970 . S
C35 H25 0.970 . S
C35 C31 1.532 . S
C35 C36 1.499 . S
C36 C35 1.499 . S
C36 C37 1.370 . S
C36 C41 1.415 . S
C37 H26 0.930 . S
C37 C36 1.370 . S
C37 C38 1.407 . S
C38 C37 1.407 . S
C38 C39 1.365 1_455 S
C39 H27 0.930 . S
C39 C38 1.365 1_655 S
C39 C40 1.393 1_655 S
C40 C39 1.393 1_455 S
C40 C41 1.387 . S
C41 H28 0.930 . S
C41 C36 1.415 . S
C41 C40 1.387 . S
O42 Cd43 2.223 1_655 S
O42 C50 1.315 . S
Cd43 O42 2.223 1_455 S
Cd43 O46 2.297 1_455 S
Cd43 O47 2.439 1_455 S
Cd43 O53 2.240 1_565 S
Cd44 O45 2.240 . S
Cd44 O52 2.223 1_655 S
Cd44 O54 2.297 1_655 S
Cd44 O55 2.439 1_655 S
O45 Cd44 2.240 . S
O45 C50 1.279 1_545 S
O46 Cd43 2.297 1_655 S
O46 C48 1.247 . S
O47 Cd43 2.439 1_655 S
O47 C48 1.208 . S
C48 O46 1.247 . S
C48 O47 1.208 . S
C49 O54 1.247 . S
C49 O55 1.208 . S
C50 O42 1.315 . S
C50 O45 1.279 1_565 S
C51 O52 1.315 . S
C51 O53 1.279 . S
O52 Cd44 2.223 1_455 S
O52 C51 1.315 . S
O53 Cd43 2.240 1_545 S
O53 C51 1.279 . S
O54 Cd44 2.297 1_455 S
O54 C49 1.247 . S
O55 Cd44 2.439 1_455 S
O55 C49 1.208 . S
O56 Cd57 2.223 1_655 S
O56 C64 1.315 . S
Cd57 O56 2.223 1_455 S
Cd57 O60 2.297 1_455 S
Cd57 O61 2.439 1_455 S
Cd57 O67 2.237 1_545 S
Cd58 O59 2.240 1_565 S
Cd58 O66 2.223 1_655 S
Cd58 O68 2.297 1_655 S
Cd58 O69 2.439 1_655 S
O59 Cd58 2.240 1_545 S
O59 C64 1.279 . S
O60 Cd57 2.297 1_655 S
O60 C62 1.247 . S
O61 Cd57 2.439 1_655 S
O61 C62 1.208 . S
C62 O60 1.247 . S
C62 O61 1.208 . S
C63 O68 1.247 . S
C63 O69 1.208 . S
C64 O56 1.315 . S
C64 O59 1.279 . S
C65 O66 1.315 . S
C65 O67 1.281 . S
O66 Cd58 2.223 1_455 S
O66 C65 1.315 . S
O67 Cd57 2.237 1_565 S
O67 C65 1.281 . S
O68 Cd58 2.297 1_455 S
O68 C63 1.247 . S
O69 Cd58 2.439 1_455 S
O69 C63 1.208 . S
C70 C71 1.363 . S
C70 C76 1.379 . S
C70 N78 1.356 . S
C71 C70 1.363 . S
C71 C77 1.363 1_545 S
C72 C73 1.363 1_565 S
C72 C77 1.379 . S
C72 N79 1.356 . S
C73 C72 1.363 1_545 S
C73 C76 1.363 . S
N74 C76 1.356 . S
N74 H86 0.984 . S
N74 H87 0.985 . S
N75 C77 1.356 . S
N75 H80 0.984 . S
N75 H81 0.985 . S
C76 C70 1.379 . S
C76 C73 1.363 . S
C76 N74 1.356 . S
C77 C71 1.363 1_565 S
C77 C72 1.379 . S
C77 N75 1.356 . S
N78 C70 1.356 . S
N78 H84 0.984 . S
N78 H85 0.984 . S
N79 C72 1.356 . S
N79 H82 0.984 . S
N79 H83 0.985 . S
H80 N75 0.984 . S
H81 N75 0.985 . S
H82 N79 0.984 . S
H83 N79 0.985 . S
H84 N78 0.984 . S
H85 N78 0.984 . S
H86 N74 0.984 . S
H87 N74 0.985 . S
C88 C89 1.358 1_655 S
C88 C94 1.379 . S
C88 N96 1.356 . S
C89 C88 1.358 1_455 S
C89 C95 1.366 . S
C90 C91 1.357 1_455 S
C90 C95 1.382 . S
C90 N97 1.358 . S
C91 C90 1.357 1_655 S
C91 C94 1.363 . S
N92 C94 1.356 . S
N92 H104 0.984 . S
N92 H105 0.985 . S
N93 C95 1.356 . S
N93 H98 0.984 . S
N93 H99 0.985 . S
C94 C88 1.379 . S
C94 C91 1.363 . S
C94 N92 1.356 . S
C95 C89 1.366 . S
C95 C90 1.382 . S
C95 N93 1.356 . S
N96 C88 1.356 . S
N96 H102 0.984 . S
N96 H103 0.984 . S
N97 C90 1.358 . S
N97 H100 0.984 1_455 S
N97 H101 0.985 . S
H98 N93 0.984 . S
H99 N93 0.985 . S
H100 N97 0.984 1_655 S
H101 N97 0.985 . S
H102 N96 0.984 . S
H103 N96 0.984 . S
H104 N92 0.984 . S
H105 N92 0.985 . S
C106 C107 1.363 . S
C106 C112 1.379 . S
C106 N114 1.356 . S
C107 C106 1.363 . S
C107 C113 1.363 1_545 S
C108 C109 1.363 . S
C108 C113 1.379 . S
C108 N115 1.356 . S
C109 C108 1.363 . S
C109 C112 1.363 1_565 S
N110 C112 1.356 . S
N110 H122 0.984 . S
N110 H123 0.985 . S
N111 C113 1.356 . S
N111 H116 0.984 . S
N111 H117 0.985 . S
C112 C106 1.379 . S
C112 C109 1.363 1_545 S
C112 N110 1.356 . S
C113 C107 1.363 1_565 S
C113 C108 1.379 . S
C113 N111 1.356 . S
N114 C106 1.356 . S
N114 H120 0.984 . S
N114 H121 0.984 . S
N115 C108 1.356 . S
N115 H118 0.984 . S
N115 H119 0.985 . S
H116 N111 0.984 . S
H117 N111 0.985 . S
H118 N115 0.984 . S
H119 N115 0.985 . S
H120 N114 0.984 . S
H121 N114 0.984 . S
H122 N110 0.984 . S
H123 N110 0.985 . S
C124 C125 1.363 . S
C124 C130 1.379 . S
C124 N132 1.356 1_455 S
C125 C124 1.363 . S
C125 C131 1.363 . S
C126 C127 1.363 . S
C126 C131 1.379 . S
C126 N133 1.356 . S
C127 C126 1.363 . S
C127 C130 1.363 . S
N128 C130 1.356 . S
N128 H140 0.984 . S
N128 H141 0.985 . S
N129 C131 1.356 . S
N129 H134 0.984 . S
N129 H135 0.985 . S
C130 C124 1.379 . S
C130 C127 1.363 . S
C130 N128 1.356 . S
C131 C125 1.363 . S
C131 C126 1.379 . S
C131 N129 1.356 . S
N132 C124 1.356 1_655 S
N132 H138 0.984 . S
N132 H139 0.984 . S
N133 C126 1.356 . S
N133 H136 0.984 . S
N133 H137 0.985 . S
H134 N129 0.984 . S
H135 N129 0.985 . S
H136 N133 0.984 . S
H137 N133 0.985 . S
H138 N132 0.984 . S
H139 N132 0.984 . S
H140 N128 0.984 . S
H141 N128 0.985 . S
C142 C143 1.363 1_565 S
C142 C148 1.379 . S
C142 N150 1.356 . S
C143 C142 1.363 1_545 S
C143 C149 1.363 . S
C144 C145 1.363 1_545 S
C144 C149 1.379 . S
C144 N151 1.356 . S
C145 C144 1.363 1_565 S
C145 C148 1.363 . S
N146 C148 1.356 . S
N146 H158 0.984 . S
N146 H159 0.985 . S
N147 C149 1.356 . S
N147 H152 0.984 . S
N147 H153 0.985 . S
C148 C142 1.379 . S
C148 C145 1.363 . S
C148 N146 1.356 . S
C149 C143 1.363 . S
C149 C144 1.379 . S
C149 N147 1.356 . S
N150 C142 1.356 . S
N150 H156 0.984 . S
N150 H157 0.984 . S
N151 C144 1.356 . S
N151 H154 0.984 . S
N151 H155 0.985 . S
H152 N147 0.984 . S
H153 N147 0.985 . S
H154 N151 0.984 . S
H155 N151 0.985 . S
H156 N150 0.984 . S
H157 N150 0.984 . S
H158 N146 0.984 . S
H159 N146 0.985 . S
C160 C161 1.363 1_655 S
C160 C166 1.379 1_655 S
C160 N168 1.356 . S
C161 C160 1.363 1_455 S
C161 C167 1.363 . S
C162 C163 1.363 . S
C162 C167 1.379 . S
C162 N169 1.356 . S
C163 C162 1.363 . S
C163 C166 1.363 . S
N164 C166 1.356 1_655 S
N164 H176 0.984 . S
N164 H177 0.985 1_655 S
N165 C167 1.356 . S
N165 H170 0.984 . S
N165 H171 0.985 . S
C166 C160 1.379 1_455 S
C166 C163 1.363 . S
C166 N164 1.356 1_455 S
C167 C161 1.363 . S
C167 C162 1.379 . S
C167 N165 1.356 . S
N168 C160 1.356 . S
N168 H174 0.984 . S
N168 H175 0.984 . S
N169 C162 1.356 . S
N169 H172 0.984 . S
N169 H173 0.985 . S
H170 N165 0.984 . S
H171 N165 0.985 . S
H172 N169 0.984 . S
H173 N169 0.985 . S
H174 N168 0.984 . S
H175 N168 0.984 . S
H176 N164 0.984 . S
H177 N164 0.985 1_455 S
C178 C179 1.363 1_565 S
C178 C184 1.379 1_565 S
C178 N186 1.356 . S
C179 C178 1.363 1_545 S
C179 C185 1.363 . S
C180 C181 1.363 . S
C180 C185 1.379 . S
C180 N187 1.356 . S
C181 C180 1.363 . S
C181 C184 1.363 . S
N182 C184 1.356 1_565 S
N182 H194 0.984 . S
N182 H195 0.985 1_565 S
N183 C185 1.356 . S
N183 H188 0.984 . S
N183 H189 0.985 1_556 S
C184 C178 1.379 1_545 S
C184 C181 1.363 . S
C184 N182 1.356 1_545 S
C185 C179 1.363 . S
C185 C180 1.379 . S
C185 N183 1.356 . S
N186 C178 1.356 . S
N186 H192 0.984 . S
N186 H193 0.984 . S
N187 C180 1.356 . S
N187 H190 0.984 . S
N187 H191 0.985 . S
H188 N183 0.984 . S
H189 N183 0.985 1_554 S
H190 N187 0.984 . S
H191 N187 0.985 . S
H192 N186 0.984 . S
H193 N186 0.984 . S
H194 N182 0.984 . S
H195 N182 0.985 1_545 S
C196 C197 1.363 1_655 S
C196 C202 1.379 . S
C196 N204 1.356 . S
C197 C196 1.363 1_455 S
C197 C203 1.363 . S
C198 C199 1.363 1_455 S
C198 C203 1.379 . S
C198 N205 1.356 . S
C199 C198 1.363 1_655 S
C199 C202 1.363 . S
N200 C202 1.356 . S
N200 H212 0.984 . S
N200 H213 0.985 . S
N201 C203 1.356 . S
N201 H206 0.984 . S
N201 H207 0.985 . S
C202 C196 1.379 . S
C202 C199 1.363 . S
C202 N200 1.356 . S
C203 C197 1.363 . S
C203 C198 1.379 . S
C203 N201 1.356 . S
N204 C196 1.356 . S
N204 H210 0.984 . S
N204 H211 0.984 . S
N205 C198 1.356 . S
N205 H208 0.985 1_455 S
N205 H209 0.985 . S
H206 N201 0.984 . S
H207 N201 0.985 . S
H208 N205 0.985 1_655 S
H209 N205 0.985 . S
H210 N204 0.984 . S
H211 N204 0.984 . S
H212 N200 0.984 . S
H213 N200 0.985 . S
C73 C51 1.680 . S
C71 C17 1.565 . S
C91 C62 1.546 . S
C89 C40 1.599 . S
C109 C50 1.678 . S
C107 C9 1.625 . S
C127 C63 1.552 . S
C125 C33 1.509 . S
C145 C65 1.667 . S
C143 C19 1.624 . S
C163 C49 1.557 . S
C161 C38 1.528 . S
C181 C64 1.676 . S
C179 C12 1.548 . S
C197 C30 1.599 . S
C199 C48 1.556 . S
