# Generated by pormake.
# Topology sit, (3,6)-cn, num edge types: 1
# Building blocks:
#     Node 0, Type 0, BuildingBlock: BETDIP_clean_linker_0, # of connection points: 3
#     Node 1, Type 0, BuildingBlock: BETDIP_clean_linker_0, # of connection points: 3
#     Node 2, Type 0, BuildingBlock: BETDIP_clean_linker_0, # of connection points: 3
#     Node 3, Type 0, BuildingBlock: BETDIP_clean_linker_0, # of connection points: 3
#     Node 4, Type 1, BuildingBlock: MIDCAF_clean_sbu_0, # of connection points: 6
#     Node 5, Type 1, BuildingBlock: MIDCAF_clean_sbu_0, # of connection points: 6
#     Edge 6, Type (0, 1), BuildingBlock: AJUNOK_clean_linker_0, # of connection points: 2
#     Edge 7, Type (0, 1), BuildingBlock: AJUNOK_clean_linker_0, # of connection points: 2
#     Edge 8, Type (0, 1), BuildingBlock: AJUNOK_clean_linker_0, # of connection points: 2
#     Edge 9, Type (0, 1), BuildingBlock: AJUNOK_clean_linker_0, # of connection points: 2
#     Edge 10, Type (0, 1), BuildingBlock: AJUNOK_clean_linker_0, # of connection points: 2
#     Edge 11, Type (0, 1), BuildingBlock: AJUNOK_clean_linker_0, # of connection points: 2
#     Edge 12, Type (0, 1), BuildingBlock: AJUNOK_clean_linker_0, # of connection points: 2
#     Edge 13, Type (0, 1), BuildingBlock: AJUNOK_clean_linker_0, # of connection points: 2
#     Edge 14, Type (0, 1), BuildingBlock: AJUNOK_clean_linker_0, # of connection points: 2
#     Edge 15, Type (0, 1), BuildingBlock: AJUNOK_clean_linker_0, # of connection points: 2
#     Edge 16, Type (0, 1), BuildingBlock: AJUNOK_clean_linker_0, # of connection points: 2
#     Edge 17, Type (0, 1), BuildingBlock: AJUNOK_clean_linker_0, # of connection points: 2
# Relax obj value: 0.072
# Max RMSD: 0.182
# Mean RMSD: 0.107
data_MOF--net-sit--node1-MIDCAF_clean_sbu_0--node2-BETDIP_clean_linker_0--edge1-AJUNOK_clean_linker_0
_symmetry_space_group_name_H-M    P1
_symmetry_Int_Tables_number       1
_symmetry_cell_setting            triclinic
loop_
_symmetry_equiv_pos_as_xyz
'x, y, z'
_cell_length_a     16.393041
_cell_length_b     22.157957
_cell_length_c     27.968282
_cell_angle_alpha  90.656147
_cell_angle_beta   85.99349
_cell_angle_gamma 84.044216
loop_
_atom_site_label
_atom_site_type_symbol
_atom_site_fract_x
_atom_site_fract_y
_atom_site_fract_z
_atom_type_partial_charge
H0 H 0.92094 0.40801 0.05588 0.0
H1 H 0.18232 0.36215 0.04444 0.0
H2 H 0.06741 0.46284 0.93307 0.0
H3 H 0.13697 0.26962 0.07845 0.0
C4 C 0.08665 0.28753 0.10366 0.0
C5 C -0.02035 0.41005 0.03594 0.0
C6 C -0.0158 0.44044 0.99209 0.0
C7 C 0.04962 0.3787 0.05333 0.0
C8 C 0.12714 0.38344 0.02989 0.0
C9 C 0.13287 0.41629 0.98747 0.0
C10 C 0.06157 0.44219 0.96782 0.0
N11 N 0.03892 0.34288 0.09443 0.0
H12 H 0.86161 0.78377 0.07474 0.0
H13 H 0.12633 0.75782 0.06182 0.0
H14 H -0.01138 0.6536 0.97359 0.0
H15 H 0.12027 0.80484 0.13027 0.0
C16 C 0.0624 0.83316 0.13615 0.0
C17 C 0.91848 0.75937 0.05964 0.0
C18 C 0.91646 0.71568 0.02309 0.0
C19 C -0.00622 0.77333 0.07565 0.0
C20 C 0.06758 0.74425 0.0533 0.0
C21 C 0.066 0.70049 0.01668 0.0
C22 C -0.00988 0.68562 0.00278 0.0
N23 N -0.00713 0.81933 0.11187 0.0
H24 H 0.3919 0.81613 0.4963 0.0
H25 H 0.65092 0.82532 0.5047 0.0
H26 H 0.51548 0.94327 0.41041 0.0
H27 H 0.64923 0.74442 0.54826 0.0
C28 C 0.58687 0.74125 0.56295 0.0
C29 C 0.44816 0.8346 0.48381 0.0
C30 C 0.44513 0.88206 0.45114 0.0
C31 C 0.52194 0.81308 0.50296 0.0
C32 C 0.59443 0.8389 0.48827 0.0
C33 C 0.59386 0.88475 0.45372 0.0
C34 C 0.51807 0.90684 0.43596 0.0
N35 N 0.51878 0.76913 0.53963 0.0
H36 H 0.31538 0.31092 0.55512 0.0
H37 H 0.57498 0.3223 0.55569 0.0
H38 H 0.48757 0.15482 0.51558 0.0
H39 H 0.52713 0.42262 0.53723 0.0
C40 C 0.4818 0.42859 0.56764 0.0
C41 C 0.37766 0.28873 0.55157 0.0
C42 C 0.39335 0.22837 0.53416 0.0
C43 C 0.44259 0.32283 0.56009 0.0
C44 C 0.52376 0.29592 0.55162 0.0
C45 C 0.53967 0.23579 0.53459 0.0
C46 C 0.47456 0.20107 0.52921 0.0
N47 N 0.42501 0.38464 0.57508 0.0
Zn48 Zn -0.00728 0.20192 0.38436 0.0
Zn49 Zn 0.02927 0.88068 0.36074 0.0
Zn50 Zn 0.00294 0.09313 0.37403 0.0
C51 C 0.02469 1.00077 0.29784 0.0
C52 C 0.89692 0.99577 0.40127 0.0
O53 O 0.10527 0.11162 0.41687 0.0
O54 O 0.07844 0.21069 0.42896 0.0
C55 C 0.01766 0.17905 0.28581 0.0
O56 O 0.0172 1.05885 0.30009 0.0
O57 O 0.02189 0.97248 0.33737 0.0
O58 O -0.03534 0.96681 0.38396 0.0
O59 O 0.89504 1.05371 0.40387 0.0
O60 O 0.01149 0.22177 0.3165 0.0
O61 O 0.01503 0.12395 0.29928 0.0
O62 O 0.88254 0.11684 0.41389 0.0
O63 O 0.88081 0.21655 0.41257 0.0
C64 C 0.84649 0.17015 0.4245 0.0
O65 O 0.10949 1.04989 0.40665 0.0
O66 O 0.06703 0.96456 0.38489 0.0
C67 C 0.12098 0.16151 0.43647 0.0
C68 C 0.12264 0.99194 0.40351 0.0
Zn69 Zn 0.50387 0.70652 0.85766 0.0
Zn70 Zn 0.57619 0.47103 0.8328 0.0
Zn71 Zn 0.53984 0.58607 0.85212 0.0
C72 C 0.56566 0.51675 0.74588 0.0
C73 C 0.42524 0.48404 0.88543 0.0
O74 O 0.63509 0.62113 0.89439 0.0
O75 O 0.59099 0.71892 0.90171 0.0
C76 C 0.5359 0.67989 0.7621 0.0
O77 O 0.54268 0.56316 0.77376 0.0
O78 O 0.59379 0.46716 0.76292 0.0
O79 O 0.47256 0.44469 0.8613 0.0
O80 O 0.44124 0.53964 0.88736 0.0
O81 O 0.52357 0.72643 0.78904 0.0
O82 O 0.53977 0.62639 0.77991 0.0
O83 O 0.42116 0.6035 0.89447 0.0
O84 O 0.38988 0.70243 0.88612 0.0
C85 C 0.37147 0.6521 0.90203 0.0
O86 O 0.65555 0.55776 0.8851 0.0
O87 O 0.67104 0.4585 0.87065 0.0
C88 C 0.64175 0.67466 0.9114 0.0
C89 C 0.69498 0.50492 0.88937 0.0
C90 C -0.00354 0.27591 0.17789 0.0
C91 C 0.06392 0.25293 0.14678 0.0
C92 C -0.0217 0.24805 0.22121 0.0
C93 C 0.0262 0.19584 0.23515 0.0
H94 H -0.04125 0.3171 0.16988 0.0
H95 H 0.92838 0.26929 0.24514 0.0
S96 S 0.20344 0.11336 0.1645 0.0
N97 N 0.17453 0.17163 0.13094 0.0
N98 N 0.13957 0.11899 0.21314 0.0
C99 C 0.09026 0.16972 0.20321 0.0
C100 C 0.10939 0.19848 0.15885 0.0
C101 C -0.01792 0.91963 0.1841 0.0
C102 C 0.05545 0.88105 0.17424 0.0
C103 C -0.0261 0.96175 0.22261 0.0
C104 C 0.0386 0.96623 0.25237 0.0
H105 H 0.92996 0.91634 0.16283 0.0
H106 H 0.91553 0.9889 0.23045 0.0
S107 S 0.24467 0.8796 0.23991 0.0
N108 N 0.19552 0.85347 0.19576 0.0
N109 N 0.17898 0.93167 0.2684 0.0
C110 C 0.11281 0.92974 0.24194 0.0
C111 C 0.12159 0.88745 0.20268 0.0
C112 C 0.63777 0.72033 0.6434 0.0
C113 C 0.57469 0.71804 0.61207 0.0
C114 C 0.62539 0.70601 0.69187 0.0
C115 C 0.55021 0.68764 0.71025 0.0
H116 H 0.69592 0.73586 0.63084 0.0
H117 H 0.67424 0.71068 0.71541 0.0
S118 S 0.36856 0.66792 0.6425 0.0
N119 N 0.43621 0.69163 0.60229 0.0
N120 N 0.41372 0.66421 0.69353 0.0
C121 C 0.48807 0.6822 0.67904 0.0
C122 C 0.50014 0.6975 0.62979 0.0
C123 C 0.58112 0.47628 0.61523 0.0
C124 C 0.4991 0.46723 0.60825 0.0
C125 C 0.60262 0.49913 0.65905 0.0
C126 C 0.5423 0.51549 0.69633 0.0
H127 H 0.62975 0.46068 0.58833 0.0
H128 H 0.66711 0.49986 0.66504 0.0
S129 S 0.31783 0.50961 0.69308 0.0
N130 N 0.35652 0.4829 0.63996 0.0
N131 N 0.39691 0.5272 0.72194 0.0
C132 C 0.45944 0.51237 0.68798 0.0
C133 C 0.43771 0.48789 0.64389 0.0
C134 C 0.26361 0.46384 0.98518 0.0
C135 C 0.21267 0.42617 0.96331 0.0
C136 C 0.33249 0.48289 0.95954 0.0
C137 C 0.35197 0.46488 0.91149 0.0
H138 H 0.24854 0.48023 0.02171 0.0
H139 H 0.37124 0.51125 0.97743 0.0
S140 S 0.23915 0.3649 0.83882 0.0
N141 N 0.18703 0.37022 0.89168 0.0
N142 N 0.31687 0.40596 0.84344 0.0
C143 C 0.30276 0.42588 0.88973 0.0
C144 C 0.23274 0.40666 0.91568 0.0
C145 C 0.80381 0.65345 0.00273 0.0
C146 C 0.83995 0.70825 -0.00027 0.0
C147 C 0.73827 0.6431 0.97485 0.0
C148 C 0.70902 0.6863 0.94193 0.0
H149 H 0.82732 0.61808 0.02609 0.0
H150 H 0.71099 0.60083 0.97869 0.0
S151 S 0.78398 0.83698 0.92107 0.0
N152 N 0.84122 0.80646 0.96259 0.0
N153 N 0.72053 0.78655 0.90901 0.0
C154 C 0.74401 0.74171 0.9395 0.0
C155 C 0.80923 0.75261 0.96849 0.0
C156 C 0.83917 0.43058 0.97433 0.0
C157 C 0.9079 0.46379 0.96933 0.0
C158 C 0.76938 0.4464 0.94976 0.0
C159 C 0.76552 0.49553 0.91861 0.0
H160 H 0.84002 0.39012 -0.00432 0.0
H161 H 0.71873 0.41867 0.95412 0.0
S162 S 0.9263 0.59779 0.89156 0.0
N163 N -0.03505 0.55075 0.93159 0.0
N164 N 0.83474 0.57694 0.88262 0.0
C165 C 0.83238 0.52975 0.91312 0.0
C166 C 0.90334 0.5147 0.93912 0.0
C167 C 0.14562 0.68237 0.93753 0.0
C168 C 0.14263 0.67747 0.98779 0.0
C169 C 0.21968 0.66993 0.90948 0.0
C170 C 0.29304 0.65135 0.93057 0.0
H171 H 0.09125 0.69926 0.9199 0.0
H172 H 0.22026 0.67748 0.87125 0.0
S173 S 0.31795 0.62733 0.05976 0.0
N174 N 0.2188 0.64867 0.05698 0.0
N175 N 0.35872 0.62676 0.00401 0.0
C176 C 0.29065 0.64354 0.98032 0.0
C177 C 0.21518 0.65624 0.00902 0.0
C178 C 0.67176 0.97463 0.43364 0.0
C179 C 0.67173 0.91145 0.43833 0.0
C180 C 0.74448 1.00087 0.42113 0.0
C181 C 0.82106 0.96549 0.41367 0.0
H182 H 0.61532 1.00441 0.44038 0.0
H183 H 0.74023 1.04957 0.41717 0.0
S184 S 0.85426 0.79741 0.41798 0.0
N185 N 0.75448 0.81358 0.43066 0.0
N186 N 0.89135 0.8633 0.41006 0.0
C187 C 0.82183 0.90218 0.41743 0.0
C188 C 0.74739 0.87519 0.42923 0.0
C189 C 0.24761 0.20402 0.53558 0.0
C190 C 0.32724 0.19869 0.51265 0.0
C191 C 0.18087 0.18754 0.51168 0.0
C192 C 0.19211 0.1639 0.46466 0.0
H193 H 0.23618 0.2239 0.57129 0.0
H194 H 0.1196 0.19588 0.52922 0.0
S195 S 0.38703 0.13736 0.3892 0.0
N196 N 0.4129 0.16621 0.43996 0.0
N197 N 0.28714 0.13282 0.3966 0.0
C198 C 0.27137 0.15462 0.44233 0.0
C199 C 0.33924 0.17241 0.46604 0.0
C200 C 0.3332 0.96748 0.45339 0.0
C201 C 0.36403 0.90902 0.43679 0.0
C202 C 0.25399 0.99238 0.44386 0.0
C203 C 0.20287 0.96064 0.41639 0.0
H204 H 0.36993 0.99367 0.47486 0.0
H205 H 0.23246 1.03688 0.45856 0.0
S206 S 0.25599 0.80528 0.36467 0.0
N207 N 0.33783 0.81899 0.39262 0.0
N208 N 0.19 0.86672 0.37292 0.0
C209 C 0.23318 0.90178 0.39973 0.0
C210 C 0.31355 0.8759 0.41024 0.0
C211 C 0.64302 0.25047 0.46915 0.0
C212 C 0.61908 0.21618 0.50853 0.0
C213 C 0.71471 0.23275 0.44087 0.0
C214 C 0.76565 0.18018 0.45096 0.0
H215 H 0.60544 0.29121 0.45979 0.0
H216 H 0.7311 0.26121 0.41118 0.0
S217 S 0.72902 0.07383 0.54961 0.0
N218 N 0.64893 0.12593 0.55541 0.0
N219 N 0.78752 0.09367 0.50308 0.0
C220 C 0.74193 0.1446 0.48976 0.0
C221 C 0.66755 0.16236 0.51837 0.0
loop_
_geom_bond_atom_site_label_1
_geom_bond_atom_site_label_2
_geom_bond_distance
_geom_bond_site_symmetry_2
_ccdc_geom_bond_type
H0 C5 0.930 1_655 S
H1 C8 0.930 . S
H2 C10 0.930 . S
H3 C4 1.016 . S
C4 H3 1.016 . S
C4 N11 1.286 . S
C5 H0 0.930 1_455 S
C5 C6 1.397 1_554 S
C5 C7 1.361 . S
C6 C5 1.397 1_556 S
C6 C10 1.390 . S
C7 C5 1.361 . S
C7 C8 1.393 . S
C7 N11 1.413 . S
C8 H1 0.930 . S
C8 C7 1.393 . S
C8 C9 1.399 1_554 S
C9 C8 1.399 1_556 S
C9 C10 1.381 . S
C10 H2 0.930 . S
C10 C6 1.390 . S
C10 C9 1.381 . S
N11 C4 1.286 . S
N11 C7 1.413 . S
H12 C17 0.930 . S
H13 C20 0.930 . S
H14 C22 0.930 . S
H15 C16 1.016 . S
C16 H15 1.016 . S
C16 N23 1.286 1_455 S
C17 H12 0.930 . S
C17 C18 1.397 1_554 S
C17 C19 1.361 . S
C18 C17 1.397 1_556 S
C18 C22 1.390 1_655 S
C19 C17 1.361 . S
C19 C20 1.393 1_655 S
C19 N23 1.413 . S
C20 H13 0.930 . S
C20 C19 1.393 1_455 S
C20 C21 1.399 1_554 S
C21 C20 1.399 1_556 S
C21 C22 1.381 . S
C22 H14 0.930 . S
C22 C18 1.390 1_455 S
C22 C21 1.381 . S
N23 C16 1.286 1_655 S
N23 C19 1.413 . S
H24 C29 0.930 . S
H25 C32 0.930 . S
H26 C34 0.930 . S
H27 C28 1.016 . S
C28 H27 1.016 . S
C28 N35 1.286 . S
C29 H24 0.930 . S
C29 C30 1.397 . S
C29 C31 1.361 . S
C30 C29 1.397 . S
C30 C34 1.390 . S
C31 C29 1.361 . S
C31 C32 1.393 . S
C31 N35 1.413 . S
C32 H25 0.930 . S
C32 C31 1.393 . S
C32 C33 1.399 . S
C33 C32 1.399 . S
C33 C34 1.381 . S
C34 H26 0.930 . S
C34 C30 1.390 . S
C34 C33 1.381 . S
N35 C28 1.286 . S
N35 C31 1.413 . S
H36 C41 0.930 . S
H37 C44 0.930 . S
H38 C46 0.930 . S
H39 C40 1.016 . S
C40 H39 1.016 . S
C40 N47 1.286 . S
C41 H36 0.930 . S
C41 C42 1.397 . S
C41 C43 1.361 . S
C42 C41 1.397 . S
C42 C46 1.390 . S
C43 C41 1.361 . S
C43 C44 1.393 . S
C43 N47 1.413 . S
C44 H37 0.930 . S
C44 C43 1.393 . S
C44 C45 1.399 . S
C45 C44 1.399 . S
C45 C46 1.381 . S
C46 H38 0.930 . S
C46 C42 1.390 . S
C46 C45 1.381 . S
N47 C40 1.286 . S
N47 C43 1.413 . S
Zn48 O54 1.920 . S
Zn48 O60 1.898 . S
Zn48 O63 1.905 1_455 S
Zn49 O57 1.905 . S
Zn49 O58 1.898 1_455 S
Zn49 O66 1.920 . S
Zn50 O53 2.080 . S
Zn50 O56 2.114 1_545 S
Zn50 O59 2.120 1_545 S
Zn50 O61 2.120 . S
Zn50 O62 2.114 1_455 S
Zn50 O65 2.080 1_545 S
C51 O56 1.166 . S
C51 O57 1.182 . S
C52 O58 1.167 . S
C52 O59 1.299 1_655 S
O53 Zn50 2.080 . S
O53 C67 1.305 . S
O54 Zn48 1.920 . S
O54 C67 1.234 . S
C55 O60 1.167 . S
C55 O61 1.299 . S
O56 Zn50 2.114 1_565 S
O56 C51 1.166 . S
O57 Zn49 1.905 . S
O57 C51 1.182 . S
O58 Zn49 1.898 1_655 S
O58 C52 1.167 . S
O59 Zn50 2.120 1_565 S
O59 C52 1.299 1_455 S
O60 Zn48 1.898 . S
O60 C55 1.167 . S
O61 Zn50 2.120 . S
O61 C55 1.299 . S
O62 Zn50 2.114 1_655 S
O62 C64 1.166 . S
O63 Zn48 1.905 1_655 S
O63 C64 1.182 . S
C64 O62 1.166 . S
C64 O63 1.182 . S
O65 Zn50 2.080 1_565 S
O65 C68 1.305 . S
O66 Zn49 1.920 . S
O66 C68 1.234 . S
C67 O53 1.305 . S
C67 O54 1.234 . S
C68 O65 1.305 . S
C68 O66 1.234 . S
Zn69 O75 1.920 . S
Zn69 O81 1.898 . S
Zn69 O84 1.905 . S
Zn70 O78 1.905 . S
Zn70 O79 1.898 . S
Zn70 O87 1.920 . S
Zn71 O74 2.080 . S
Zn71 O77 2.114 . S
Zn71 O80 2.120 . S
Zn71 O82 2.120 . S
Zn71 O83 2.114 . S
Zn71 O86 2.080 . S
C72 O77 1.166 . S
C72 O78 1.182 . S
C73 O79 1.167 . S
C73 O80 1.299 . S
O74 Zn71 2.080 . S
O74 C88 1.305 . S
O75 Zn69 1.920 . S
O75 C88 1.234 . S
C76 O81 1.167 . S
C76 O82 1.299 . S
O77 Zn71 2.114 . S
O77 C72 1.166 . S
O78 Zn70 1.905 . S
O78 C72 1.182 . S
O79 Zn70 1.898 . S
O79 C73 1.167 . S
O80 Zn71 2.120 . S
O80 C73 1.299 . S
O81 Zn69 1.898 . S
O81 C76 1.167 . S
O82 Zn71 2.120 . S
O82 C76 1.299 . S
O83 Zn71 2.114 . S
O83 C85 1.166 . S
O84 Zn69 1.905 . S
O84 C85 1.182 . S
C85 O83 1.166 . S
C85 O84 1.182 . S
O86 Zn71 2.080 . S
O86 C89 1.305 . S
O87 Zn70 1.920 . S
O87 C89 1.234 . S
C88 O74 1.305 . S
C88 O75 1.234 . S
C89 O86 1.305 . S
C89 O87 1.234 . S
C90 C91 1.369 . S
C90 C92 1.419 . S
C90 H94 0.930 . S
C91 C90 1.369 . S
C91 C100 1.429 . S
C92 C90 1.419 . S
C92 C93 1.363 . S
C92 H95 0.929 . S
C93 C92 1.363 . S
C93 C99 1.428 . S
H94 C90 0.930 . S
H95 C92 0.929 . S
S96 N97 1.613 . S
S96 N98 1.610 . S
N97 S96 1.613 . S
N97 C100 1.350 . S
N98 S96 1.610 . S
N98 C99 1.351 . S
C99 C93 1.428 . S
C99 N98 1.351 . S
C99 C100 1.434 . S
C100 C91 1.429 . S
C100 N97 1.350 . S
C100 C99 1.434 . S
C101 C102 1.369 1_655 S
C101 C103 1.419 . S
C101 H105 0.930 . S
C102 C101 1.369 1_455 S
C102 C111 1.429 . S
C103 C101 1.419 . S
C103 C104 1.363 1_655 S
C103 H106 0.929 . S
C104 C103 1.363 1_455 S
C104 C110 1.428 . S
H105 C101 0.930 . S
H106 C103 0.929 . S
S107 N108 1.613 . S
S107 N109 1.610 . S
N108 S107 1.613 . S
N108 C111 1.350 . S
N109 S107 1.610 . S
N109 C110 1.351 . S
C110 C104 1.428 . S
C110 N109 1.351 . S
C110 C111 1.434 . S
C111 C102 1.429 . S
C111 N108 1.350 . S
C111 C110 1.434 . S
C112 C113 1.369 . S
C112 C114 1.419 . S
C112 H116 0.930 . S
C113 C112 1.369 . S
C113 C122 1.429 . S
C114 C112 1.419 . S
C114 C115 1.363 . S
C114 H117 0.929 . S
C115 C114 1.363 . S
C115 C121 1.428 . S
H116 C112 0.930 . S
H117 C114 0.929 . S
S118 N119 1.613 . S
S118 N120 1.610 . S
N119 S118 1.613 . S
N119 C122 1.350 . S
N120 S118 1.610 . S
N120 C121 1.351 . S
C121 C115 1.428 . S
C121 N120 1.351 . S
C121 C122 1.434 . S
C122 C113 1.429 . S
C122 N119 1.350 . S
C122 C121 1.434 . S
C123 C124 1.369 . S
C123 C125 1.419 . S
C123 H127 0.930 . S
C124 C123 1.369 . S
C124 C133 1.429 . S
C125 C123 1.419 . S
C125 C126 1.363 . S
C125 H128 0.929 . S
C126 C125 1.363 . S
C126 C132 1.428 . S
H127 C123 0.930 . S
H128 C125 0.929 . S
S129 N130 1.613 . S
S129 N131 1.610 . S
N130 S129 1.613 . S
N130 C133 1.350 . S
N131 S129 1.610 . S
N131 C132 1.351 . S
C132 C126 1.428 . S
C132 N131 1.351 . S
C132 C133 1.434 . S
C133 C124 1.429 . S
C133 N130 1.350 . S
C133 C132 1.434 . S
C134 C135 1.369 1_554 S
C134 C136 1.419 . S
C134 H138 0.930 . S
C135 C134 1.369 1_556 S
C135 C144 1.429 . S
C136 C134 1.419 . S
C136 C137 1.363 1_554 S
C136 H139 0.929 . S
C137 C136 1.363 1_556 S
C137 C143 1.428 . S
H138 C134 0.930 . S
H139 C136 0.929 . S
S140 N141 1.613 . S
S140 N142 1.610 . S
N141 S140 1.613 . S
N141 C144 1.350 . S
N142 S140 1.610 . S
N142 C143 1.351 . S
C143 C137 1.428 . S
C143 N142 1.351 . S
C143 C144 1.434 . S
C144 C135 1.429 . S
C144 N141 1.350 . S
C144 C143 1.434 . S
C145 C146 1.369 . S
C145 C147 1.419 . S
C145 H149 0.930 . S
C146 C145 1.369 . S
C146 C155 1.429 . S
C147 C145 1.419 . S
C147 C148 1.363 . S
C147 H150 0.929 . S
C148 C147 1.363 . S
C148 C154 1.428 . S
H149 C145 0.930 . S
H150 C147 0.929 . S
S151 N152 1.613 . S
S151 N153 1.610 . S
N152 S151 1.613 . S
N152 C155 1.350 . S
N153 S151 1.610 . S
N153 C154 1.351 . S
C154 C148 1.428 . S
C154 N153 1.351 . S
C154 C155 1.434 . S
C155 C146 1.429 . S
C155 N152 1.350 . S
C155 C154 1.434 . S
C156 C157 1.369 . S
C156 C158 1.419 . S
C156 H160 0.930 . S
C157 C156 1.369 . S
C157 C166 1.429 . S
C158 C156 1.419 . S
C158 C159 1.363 . S
C158 H161 0.929 . S
C159 C158 1.363 . S
C159 C165 1.428 . S
H160 C156 0.930 . S
H161 C158 0.929 . S
S162 N163 1.613 1_655 S
S162 N164 1.610 . S
N163 S162 1.613 1_455 S
N163 C166 1.350 1_455 S
N164 S162 1.610 . S
N164 C165 1.351 . S
C165 C159 1.428 . S
C165 N164 1.351 . S
C165 C166 1.434 . S
C166 C157 1.429 . S
C166 N163 1.350 1_655 S
C166 C165 1.434 . S
C167 C168 1.369 . S
C167 C169 1.419 . S
C167 H171 0.930 . S
C168 C167 1.369 . S
C168 C177 1.429 . S
C169 C167 1.419 . S
C169 C170 1.363 . S
C169 H172 0.929 . S
C170 C169 1.363 . S
C170 C176 1.428 . S
H171 C167 0.930 . S
H172 C169 0.929 . S
S173 N174 1.613 . S
S173 N175 1.612 1_554 S
N174 S173 1.613 . S
N174 C177 1.350 1_554 S
N175 S173 1.612 1_556 S
N175 C176 1.351 . S
C176 C170 1.428 . S
C176 N175 1.351 . S
C176 C177 1.434 . S
C177 C168 1.429 . S
C177 N174 1.350 1_556 S
C177 C176 1.434 . S
C178 C179 1.369 . S
C178 C180 1.419 . S
C178 H182 0.930 . S
C179 C178 1.369 . S
C179 C188 1.429 . S
C180 C178 1.419 . S
C180 C181 1.363 . S
C180 H183 0.929 . S
C181 C180 1.363 . S
C181 C187 1.428 . S
H182 C178 0.930 . S
H183 C180 0.929 . S
S184 N185 1.613 1_455 S
S184 N186 1.610 . S
N185 S184 1.613 1_655 S
N185 C188 1.350 . S
N186 S184 1.610 . S
N186 C187 1.351 1_455 S
C187 C181 1.428 . S
C187 N186 1.351 1_655 S
C187 C188 1.434 . S
C188 C179 1.429 . S
C188 N185 1.350 . S
C188 C187 1.434 . S
C189 C190 1.369 . S
C189 C191 1.419 . S
C189 H193 0.930 . S
C190 C189 1.369 . S
C190 C199 1.429 . S
C191 C189 1.419 . S
C191 C192 1.363 . S
C191 H194 0.929 . S
C192 C191 1.363 . S
C192 C198 1.428 . S
H193 C189 0.930 . S
H194 C191 0.929 . S
S195 N196 1.613 . S
S195 N197 1.610 . S
N196 S195 1.613 . S
N196 C199 1.350 . S
N197 S195 1.610 . S
N197 C198 1.351 . S
C198 C192 1.428 . S
C198 N197 1.351 . S
C198 C199 1.434 . S
C199 C190 1.429 . S
C199 N196 1.350 . S
C199 C198 1.434 . S
C200 C201 1.369 . S
C200 C202 1.419 . S
C200 H204 0.930 . S
C201 C200 1.369 . S
C201 C210 1.429 . S
C202 C200 1.419 . S
C202 C203 1.363 . S
C202 H205 0.929 . S
C203 C202 1.363 . S
C203 C209 1.428 . S
H204 C200 0.930 . S
H205 C202 0.929 . S
S206 N207 1.613 . S
S206 N208 1.610 . S
N207 S206 1.613 . S
N207 C210 1.350 . S
N208 S206 1.610 . S
N208 C209 1.351 . S
C209 C203 1.428 . S
C209 N208 1.351 . S
C209 C210 1.434 . S
C210 C201 1.429 . S
C210 N207 1.350 . S
C210 C209 1.434 . S
C211 C212 1.369 . S
C211 C213 1.419 . S
C211 H215 0.930 . S
C212 C211 1.369 . S
C212 C221 1.429 . S
C213 C211 1.419 . S
C213 C214 1.363 . S
C213 H216 0.929 . S
C214 C213 1.363 . S
C214 C220 1.428 . S
H215 C211 0.930 . S
H216 C213 0.929 . S
S217 N218 1.613 . S
S217 N219 1.610 . S
N218 S217 1.613 . S
N218 C221 1.350 . S
N219 S217 1.610 . S
N219 C220 1.351 . S
C220 C214 1.428 . S
C220 N219 1.351 . S
C220 C221 1.434 . S
C221 C212 1.429 . S
C221 N218 1.350 . S
C221 C220 1.434 . S
C93 C55 1.435 . S
C91 C4 1.540 . S
C104 C51 1.414 . S
C102 C16 1.495 . S
C115 C76 1.426 . S
C113 C28 1.537 . S
C124 C40 1.501 . S
C126 C72 1.424 . S
C135 C9 1.355 . S
C137 C73 1.182 . S
C148 C88 1.192 . S
C146 C18 1.372 . S
C157 C6 1.682 1_655 S
C159 C89 1.544 . S
C170 C85 1.571 . S
C168 C21 1.700 . S
C181 C52 1.181 . S
C179 C33 1.357 . S
C190 C42 1.371 . S
C192 C67 1.193 . S
C203 C68 1.540 . S
C201 C30 1.685 . S
C214 C64 1.566 . S
C212 C45 1.702 . S
