# Generated by pormake.
# Topology anh, (6,3)-cn, num edge types: 1
# Building blocks:
#     Node 0, Type 0, BuildingBlock: CUKXOW_clean_sbu_0, # of connection points: 6
#     Node 1, Type 0, BuildingBlock: CUKXOW_clean_sbu_0, # of connection points: 6
#     Node 2, Type 0, BuildingBlock: CUKXOW_clean_sbu_0, # of connection points: 6
#     Node 3, Type 1, BuildingBlock: BETDAH_clean_linker_0, # of connection points: 3
#     Node 4, Type 1, BuildingBlock: BETDAH_clean_linker_0, # of connection points: 3
#     Node 5, Type 1, BuildingBlock: BETDAH_clean_linker_0, # of connection points: 3
#     Node 6, Type 1, BuildingBlock: BETDAH_clean_linker_0, # of connection points: 3
#     Node 7, Type 1, BuildingBlock: BETDAH_clean_linker_0, # of connection points: 3
#     Node 8, Type 1, BuildingBlock: BETDAH_clean_linker_0, # of connection points: 3
#     Edge 9, Type (0, 1), None
#     Edge 10, Type (0, 1), None
#     Edge 11, Type (0, 1), None
#     Edge 12, Type (0, 1), None
#     Edge 13, Type (0, 1), None
#     Edge 14, Type (0, 1), None
#     Edge 15, Type (0, 1), None
#     Edge 16, Type (0, 1), None
#     Edge 17, Type (0, 1), None
#     Edge 18, Type (0, 1), None
#     Edge 19, Type (0, 1), None
#     Edge 20, Type (0, 1), None
#     Edge 21, Type (0, 1), None
#     Edge 22, Type (0, 1), None
#     Edge 23, Type (0, 1), None
#     Edge 24, Type (0, 1), None
#     Edge 25, Type (0, 1), None
#     Edge 26, Type (0, 1), None
# Relax obj value: 0.100
# Max RMSD: 0.161
# Mean RMSD: 0.091
data_MOF--net-anh--node1-CUKXOW_clean_sbu_0--node2-BETDAH_clean_linker_0--edge1-none
_symmetry_space_group_name_H-M    P1
_symmetry_Int_Tables_number       1
_symmetry_cell_setting            triclinic
loop_
_symmetry_equiv_pos_as_xyz
'x, y, z'
_cell_length_a     12.288599
_cell_length_b     12.184146
_cell_length_c     20.484441
_cell_angle_alpha  98.136666
_cell_angle_beta   90.945379
_cell_angle_gamma 103.96381
loop_
_atom_site_label
_atom_site_type_symbol
_atom_site_fract_x
_atom_site_fract_y
_atom_site_fract_z
_atom_type_partial_charge
Tb0 Tb 0.15777 0.69832 0.15982 0.0
C1 C 0.11619 0.5984 0.29573 0.0
Tb2 Tb 1.05361 0.43684 0.16012 0.0
O3 O 1.00119 0.72922 0.12383 0.0
O4 O 0.99661 0.59201 0.17566 0.0
O5 O 0.17111 0.68115 0.26391 0.0
C6 C 0.89852 0.24134 0.14499 0.0
O7 O 1.05386 0.49904 0.26513 0.0
C8 C 0.2789 0.48631 0.15557 0.0
C9 C 0.09833 0.53385 0.02507 0.0
O10 O 0.98545 0.26622 0.18626 0.0
O11 O 0.89798 0.32595 0.11335 0.0
O12 O 0.21681 0.38415 0.15814 0.0
O13 O 0.21032 0.548 0.15576 0.0
O14 O 1.04845 0.44807 0.05569 0.0
O15 O 0.15329 0.63595 0.05543 0.0
C16 C 0.32571 0.88493 0.16864 0.0
O17 O 0.31693 0.7915 0.12778 0.0
O18 O 0.23668 0.8747 0.20329 0.0
C19 C 0.93637 0.63795 0.14188 0.0
Tb20 Tb 0.49664 0.01224 0.49278 0.0
C21 C 0.59318 0.05219 0.35516 0.0
Tb22 Tb 0.74514 0.114 0.48729 0.0
O23 O 0.4535 0.172 0.47674 0.0
O24 O 0.60626 0.17664 0.52132 0.0
O25 O 0.51482 0.99034 0.38761 0.0
C26 C 0.94281 0.26032 0.48093 0.0
O27 O 0.69113 0.11196 0.38419 0.0
C28 C 0.68454 0.88883 0.48295 0.0
C29 C 0.64595 0.0865 0.62598 0.0
O30 O 0.92892 0.16121 0.50014 0.0
O31 O 0.84634 0.27644 0.4646 0.0
O32 O 0.78259 0.95168 0.50524 0.0
O33 O 0.63363 0.95093 0.45687 0.0
O34 O 0.72658 0.14542 0.59338 0.0
O35 O 0.5509 0.02128 0.59607 0.0
C36 C 0.30773 0.84896 0.49401 0.0
O37 O 0.31681 0.94337 0.46959 0.0
O38 O 0.40418 0.85062 0.52117 0.0
C39 C 0.55253 0.23739 0.49547 0.0
Tb40 Tb 0.52417 0.50245 0.82014 0.0
C41 C 0.65988 0.5717 0.95239 0.0
Tb42 Tb 0.75305 0.61749 0.81246 0.0
O43 O 0.57814 0.37117 0.86295 0.0
O44 O 0.66605 0.44281 0.78807 0.0
O45 O 0.5569 0.55423 0.92607 0.0
C46 C 0.97552 0.65159 0.82461 0.0
O47 O 0.74714 0.58179 0.91451 0.0
C48 C 0.62301 0.757 0.80983 0.0
C49 C 0.61351 0.54994 0.68187 0.0
O50 O 0.91408 0.69988 0.86442 0.0
O51 O 0.91183 0.60287 0.77252 0.0
O52 O 0.71836 0.76908 0.7822 0.0
O53 O 0.61073 0.67747 0.84421 0.0
O54 O 0.71552 0.56699 0.70813 0.0
O55 O 0.52495 0.53844 0.71837 0.0
C56 C 0.31312 0.38452 0.802 0.0
O57 O 0.3969 0.34914 0.7784 0.0
O58 O 0.34653 0.48688 0.83518 0.0
C59 C 0.65904 0.36573 0.82422 0.0
H60 H 0.39151 0.98246 0.29137 0.0
H61 H 0.74311 0.09792 0.2588 0.0
H62 H 0.50607 0.94611 0.09483 0.0
C63 C 0.45914 0.99881 0.25795 0.0
C64 C 0.43532 0.96235 0.19041 0.0
C65 C 0.5704 0.043 0.28342 0.0
C66 C 0.65702 0.06358 0.23969 0.0
C67 C 0.63302 0.03106 0.17117 0.0
C68 C 0.52293 0.97746 0.14714 0.0
N69 N 0.71912 0.04556 0.12586 0.0
C70 C 0.81195 0.13785 0.13658 0.0
H71 H 0.56702 0.33817 0.62001 0.0
H72 H 0.63204 0.68802 0.58773 0.0
H73 H 0.57981 0.41606 0.42147 0.0
C74 C 0.57666 0.39998 0.58588 0.0
C75 C 0.57071 0.36227 0.51804 0.0
C76 C 0.59702 0.5164 0.61055 0.0
C77 C 0.6133 0.598 0.56752 0.0
C78 C 0.60679 0.56294 0.49877 0.0
C79 C 0.58416 0.44414 0.47425 0.0
N80 N 0.62463 0.64437 0.45358 0.0
C81 C 0.6539 0.76399 0.471 0.0
H82 H 1.06653 0.68591 0.94884 0.0
H83 H 0.09503 0.33952 0.94213 0.0
H84 H 1.02969 0.46119 0.76328 0.0
C85 C 1.0701 0.60479 0.92039 0.0
C86 C 1.04324 0.58402 0.85234 0.0
C87 C 0.08574 0.51601 0.95315 0.0
C88 C 1.0793 0.40764 0.9174 0.0
C89 C 1.06066 0.38893 0.84888 0.0
C90 C 1.04494 0.47756 0.81648 0.0
N91 N 0.08903 0.29479 0.8118 0.0
C92 C 0.20087 0.31759 0.79859 0.0
H93 H 0.20487 0.79785 0.3746 0.0
H94 H 1.07022 0.43896 0.37903 0.0
H95 H 0.24381 0.65718 0.55172 0.0
C96 C 0.18608 0.72589 0.40174 0.0
C97 C 0.22653 0.74131 0.46759 0.0
C98 C 0.13309 0.61653 0.36856 0.0
C99 C 0.11068 0.52383 0.40411 0.0
C100 C 0.14872 0.53889 0.47079 0.0
C101 C 0.20909 0.64705 0.5016 0.0
N102 N 0.13308 0.44534 0.50659 0.0
C103 C 1.04393 0.34962 0.49171 0.0
H104 H 0.71079 0.29212 0.7004 0.0
H105 H 0.58455 0.93466 0.71075 0.0
H106 H 0.61613 0.1805 0.8863 0.0
C107 C 0.68529 0.22385 0.72984 0.0
C108 C 0.66875 0.25038 0.79726 0.0
C109 C 0.6529 0.11015 0.69835 0.0
C110 C 0.612 0.02219 0.73544 0.0
C111 C 0.60202 0.04778 0.80385 0.0
C112 C 0.63046 0.16138 0.83428 0.0
N113 N 0.55769 0.96102 0.8422 0.0
C114 C 0.57867 0.85409 0.82733 0.0
H115 H 0.85972 0.608 0.01847 0.0
H116 H 0.5045 0.54145 0.04688 0.0
H117 H 0.74007 0.58451 0.213 0.0
C118 C 0.79026 0.59215 0.05068 0.0
C119 C 0.81459 0.5952 0.11813 0.0
C120 C 0.67943 0.57257 0.02436 0.0
C121 C 0.58975 0.55543 0.06678 0.0
C122 C 0.60986 0.55862 0.13499 0.0
C123 C 0.72319 0.57804 0.16035 0.0
N124 N 0.51931 0.54738 0.17932 0.0
C125 C 0.40267 0.52161 0.16272 0.0
loop_
_geom_bond_atom_site_label_1
_geom_bond_atom_site_label_2
_geom_bond_distance
_geom_bond_site_symmetry_2
_ccdc_geom_bond_type
Tb0 O3 2.453 1_455 S
Tb0 O4 2.596 1_455 S
Tb0 O5 2.374 . S
Tb0 O13 2.343 . S
Tb0 O15 2.353 . S
Tb0 O17 2.427 . S
Tb0 O18 2.513 . S
C1 O5 1.251 . S
C1 O7 1.263 . S
Tb2 O4 2.343 . S
Tb2 O7 2.353 1_655 S
Tb2 O10 2.427 . S
Tb2 O11 2.513 . S
Tb2 O12 2.453 1_655 S
Tb2 O13 2.596 1_655 S
Tb2 O14 2.374 1_655 S
O3 Tb0 2.453 1_655 S
O3 C19 1.245 . S
O4 Tb0 2.596 1_655 S
O4 Tb2 2.343 . S
O4 C19 1.259 . S
O5 Tb0 2.374 . S
O5 C1 1.251 . S
C6 O10 1.275 . S
C6 O11 1.246 . S
O7 C1 1.263 . S
O7 Tb2 2.353 1_455 S
C8 O12 1.245 . S
C8 O13 1.259 . S
C9 O14 1.251 . S
C9 O15 1.263 . S
O10 Tb2 2.427 . S
O10 C6 1.275 . S
O11 Tb2 2.513 . S
O11 C6 1.246 . S
O12 Tb2 2.453 1_455 S
O12 C8 1.245 . S
O13 Tb0 2.343 . S
O13 Tb2 2.596 1_455 S
O13 C8 1.259 . S
O14 Tb2 2.374 1_455 S
O14 C9 1.251 . S
O15 Tb0 2.353 . S
O15 C9 1.263 . S
C16 O17 1.275 . S
C16 O18 1.246 . S
O17 Tb0 2.427 . S
O17 C16 1.275 . S
O18 Tb0 2.513 . S
O18 C16 1.246 . S
C19 O3 1.245 . S
C19 O4 1.259 . S
Tb20 O23 2.453 . S
Tb20 O24 2.596 . S
Tb20 O25 2.374 . S
Tb20 O33 2.343 1_545 S
Tb20 O35 2.353 . S
Tb20 O37 2.427 1_545 S
Tb20 O38 2.513 1_545 S
C21 O25 1.251 . S
C21 O27 1.263 . S
Tb22 O24 2.343 . S
Tb22 O27 2.353 . S
Tb22 O30 2.427 . S
Tb22 O31 2.513 . S
Tb22 O32 2.453 1_545 S
Tb22 O33 2.596 1_545 S
Tb22 O34 2.374 . S
O23 Tb20 2.453 . S
O23 C39 1.245 . S
O24 Tb20 2.596 . S
O24 Tb22 2.343 . S
O24 C39 1.259 . S
O25 Tb20 2.374 . S
O25 C21 1.251 . S
C26 O30 1.275 . S
C26 O31 1.246 . S
O27 C21 1.263 . S
O27 Tb22 2.353 . S
C28 O32 1.245 . S
C28 O33 1.259 . S
C29 O34 1.250 . S
C29 O35 1.263 . S
O30 Tb22 2.427 . S
O30 C26 1.275 . S
O31 Tb22 2.513 . S
O31 C26 1.246 . S
O32 Tb22 2.453 1_565 S
O32 C28 1.245 . S
O33 Tb20 2.343 1_565 S
O33 Tb22 2.596 1_565 S
O33 C28 1.259 . S
O34 Tb22 2.374 . S
O34 C29 1.250 . S
O35 Tb20 2.353 . S
O35 C29 1.263 . S
C36 O37 1.275 . S
C36 O38 1.246 . S
O37 Tb20 2.427 1_565 S
O37 C36 1.275 . S
O38 Tb20 2.513 1_565 S
O38 C36 1.246 . S
C39 O23 1.245 . S
C39 O24 1.259 . S
Tb40 O43 2.453 . S
Tb40 O44 2.596 . S
Tb40 O45 2.374 . S
Tb40 O53 2.343 . S
Tb40 O55 2.353 . S
Tb40 O57 2.427 . S
Tb40 O58 2.513 . S
C41 O45 1.251 . S
C41 O47 1.263 . S
Tb42 O44 2.343 . S
Tb42 O47 2.353 . S
Tb42 O50 2.427 . S
Tb42 O51 2.513 . S
Tb42 O52 2.453 . S
Tb42 O53 2.596 . S
Tb42 O54 2.374 . S
O43 Tb40 2.453 . S
O43 C59 1.245 . S
O44 Tb40 2.596 . S
O44 Tb42 2.343 . S
O44 C59 1.259 . S
O45 Tb40 2.374 . S
O45 C41 1.251 . S
C46 O50 1.275 . S
C46 O51 1.246 . S
O47 C41 1.263 . S
O47 Tb42 2.353 . S
C48 O52 1.245 . S
C48 O53 1.259 . S
C49 O54 1.250 . S
C49 O55 1.263 . S
O50 Tb42 2.427 . S
O50 C46 1.275 . S
O51 Tb42 2.513 . S
O51 C46 1.246 . S
O52 Tb42 2.453 . S
O52 C48 1.245 . S
O53 Tb40 2.343 . S
O53 Tb42 2.596 . S
O53 C48 1.259 . S
O54 Tb42 2.374 . S
O54 C49 1.250 . S
O55 Tb40 2.353 . S
O55 C49 1.263 . S
C56 O57 1.275 . S
C56 O58 1.246 . S
O57 Tb40 2.427 . S
O57 C56 1.275 . S
O58 Tb40 2.513 . S
O58 C56 1.246 . S
C59 O43 1.245 . S
C59 O44 1.259 . S
H60 C63 0.929 . S
H61 C66 0.929 . S
H62 C68 0.930 . S
C63 H60 0.929 . S
C63 C64 1.398 . S
C63 C65 1.396 1_565 S
C64 C63 1.398 . S
C64 C68 1.407 . S
C65 C63 1.396 1_545 S
C65 C66 1.394 . S
C66 H61 0.929 . S
C66 C65 1.394 . S
C66 C67 1.382 . S
C67 C66 1.382 . S
C67 C68 1.392 1_545 S
C67 N69 1.420 . S
C68 H62 0.930 . S
C68 C64 1.407 . S
C68 C67 1.392 1_565 S
N69 C67 1.420 . S
N69 C70 1.244 . S
C70 N69 1.244 . S
H71 C74 0.929 . S
H72 C77 0.929 . S
H73 C79 0.930 . S
C74 H71 0.929 . S
C74 C75 1.398 . S
C74 C76 1.396 . S
C75 C74 1.398 . S
C75 C79 1.407 . S
C76 C74 1.396 . S
C76 C77 1.394 . S
C77 H72 0.929 . S
C77 C76 1.394 . S
C77 C78 1.382 . S
C78 C77 1.382 . S
C78 C79 1.392 . S
C78 N80 1.420 . S
C79 H73 0.930 . S
C79 C75 1.407 . S
C79 C78 1.392 . S
N80 C78 1.420 . S
N80 C81 1.244 . S
C81 N80 1.244 . S
H82 C85 0.929 . S
H83 C88 0.929 . S
H84 C90 0.930 . S
C85 H82 0.929 . S
C85 C86 1.398 . S
C85 C87 1.396 1_655 S
C86 C85 1.398 . S
C86 C90 1.407 . S
C87 C85 1.396 1_455 S
C87 C88 1.394 . S
C88 H83 0.929 . S
C88 C87 1.394 . S
C88 C89 1.382 . S
C89 C88 1.382 . S
C89 C90 1.392 1_455 S
C89 N91 1.420 . S
C90 H84 0.930 . S
C90 C86 1.407 . S
C90 C89 1.392 1_655 S
N91 C89 1.420 . S
N91 C92 1.244 . S
C92 N91 1.244 . S
H93 C96 0.929 . S
H94 C99 0.929 . S
H95 C101 0.930 . S
C96 H93 0.929 . S
C96 C97 1.398 . S
C96 C98 1.396 . S
C97 C96 1.398 . S
C97 C101 1.407 . S
C98 C96 1.396 . S
C98 C99 1.394 1_455 S
C99 H94 0.929 . S
C99 C98 1.394 1_655 S
C99 C100 1.382 . S
C100 C99 1.382 . S
C100 C101 1.392 1_655 S
C100 N102 1.420 . S
C101 H95 0.930 . S
C101 C97 1.407 . S
C101 C100 1.392 1_455 S
N102 C100 1.420 . S
N102 C103 1.244 . S
C103 N102 1.244 . S
H104 C107 0.929 . S
H105 C110 0.929 . S
H106 C112 0.930 . S
C107 H104 0.929 . S
C107 C108 1.398 . S
C107 C109 1.396 . S
C108 C107 1.398 . S
C108 C112 1.407 . S
C109 C107 1.396 . S
C109 C110 1.394 1_545 S
C110 H105 0.929 . S
C110 C109 1.394 1_565 S
C110 C111 1.382 1_565 S
C111 C110 1.382 1_545 S
C111 C112 1.392 . S
C111 N113 1.420 1_545 S
C112 H106 0.930 . S
C112 C108 1.407 . S
C112 C111 1.392 . S
N113 C111 1.420 1_565 S
N113 C114 1.244 . S
C114 N113 1.244 . S
H115 C118 0.929 . S
H116 C121 0.929 . S
H117 C123 0.930 . S
C118 H115 0.929 . S
C118 C119 1.398 . S
C118 C120 1.396 . S
C119 C118 1.398 . S
C119 C123 1.407 . S
C120 C118 1.396 . S
C120 C121 1.394 . S
C121 H116 0.929 . S
C121 C120 1.394 . S
C121 C122 1.382 . S
C122 C121 1.382 . S
C122 C123 1.392 . S
C122 N124 1.420 . S
C123 H117 0.930 . S
C123 C119 1.407 . S
C123 C122 1.392 . S
N124 C122 1.420 . S
N124 C125 1.244 . S
C125 N124 1.244 . S
C8 C125 2.418 . S
C26 C103 1.373 . S
C48 C114 1.626 . S
C19 C119 2.309 . S
C97 C36 1.199 . S
C108 C59 1.566 . S
C28 C81 1.653 . S
C46 C86 0.738 . S
C16 C64 1.230 . S
C75 C39 1.605 . S
C92 C56 0.773 . S
C6 C70 1.554 . S
C87 C9 1.373 1_556 S
C21 C65 1.527 . S
C49 C76 1.495 . S
C109 C29 1.460 . S
C120 C41 1.655 1_554 S
C1 C98 1.491 . S
