# Generated by pormake.
# Topology apo, (3,6)-cn, num edge types: 1
# Building blocks:
#     Node 0, Type 0, BuildingBlock: PAMTOO_clean_linker_0, # of connection points: 3
#     Node 1, Type 0, BuildingBlock: PAMTOO_clean_linker_0, # of connection points: 3
#     Node 2, Type 0, BuildingBlock: PAMTOO_clean_linker_0, # of connection points: 3
#     Node 3, Type 0, BuildingBlock: PAMTOO_clean_linker_0, # of connection points: 3
#     Node 4, Type 0, BuildingBlock: PAMTOO_clean_linker_0, # of connection points: 3
#     Node 5, Type 0, BuildingBlock: PAMTOO_clean_linker_0, # of connection points: 3
#     Node 6, Type 0, BuildingBlock: PAMTOO_clean_linker_0, # of connection points: 3
#     Node 7, Type 0, BuildingBlock: PAMTOO_clean_linker_0, # of connection points: 3
#     Node 8, Type 1, BuildingBlock: MIDCAF_clean_sbu_0, # of connection points: 6
#     Node 9, Type 1, BuildingBlock: MIDCAF_clean_sbu_0, # of connection points: 6
#     Node 10, Type 1, BuildingBlock: MIDCAF_clean_sbu_0, # of connection points: 6
#     Node 11, Type 1, BuildingBlock: MIDCAF_clean_sbu_0, # of connection points: 6
#     Edge 12, Type (0, 1), None
#     Edge 13, Type (0, 1), None
#     Edge 14, Type (0, 1), None
#     Edge 15, Type (0, 1), None
#     Edge 16, Type (0, 1), None
#     Edge 17, Type (0, 1), None
#     Edge 18, Type (0, 1), None
#     Edge 19, Type (0, 1), None
#     Edge 20, Type (0, 1), None
#     Edge 21, Type (0, 1), None
#     Edge 22, Type (0, 1), None
#     Edge 23, Type (0, 1), None
#     Edge 24, Type (0, 1), None
#     Edge 25, Type (0, 1), None
#     Edge 26, Type (0, 1), None
#     Edge 27, Type (0, 1), None
#     Edge 28, Type (0, 1), None
#     Edge 29, Type (0, 1), None
#     Edge 30, Type (0, 1), None
#     Edge 31, Type (0, 1), None
#     Edge 32, Type (0, 1), None
#     Edge 33, Type (0, 1), None
#     Edge 34, Type (0, 1), None
#     Edge 35, Type (0, 1), None
# Relax obj value: 0.013
# Max RMSD: 0.058
# Mean RMSD: 0.044
data_MOF--net-apo--node1-MIDCAF_clean_sbu_0--node2-PAMTOO_clean_linker_0--edge1-none
_symmetry_space_group_name_H-M    P1
_symmetry_Int_Tables_number       1
_symmetry_cell_setting            triclinic
loop_
_symmetry_equiv_pos_as_xyz
'x, y, z'
_cell_length_a     13.633612
_cell_length_b     20.998998
_cell_length_c     12.858858
_cell_angle_alpha  93.121878
_cell_angle_beta   90.002083
_cell_angle_gamma 90.000492
loop_
_atom_site_label
_atom_site_type_symbol
_atom_site_fract_x
_atom_site_fract_y
_atom_site_fract_z
_atom_type_partial_charge
H0 H 0.59848 0.39072 0.48176 0.0
H1 H 0.34577 0.39284 0.28421 0.0
H2 H 0.38145 0.24291 0.49609 0.0
H3 H 0.336 0.23222 0.22592 0.0
C4 C 0.26421 0.24127 0.26538 0.0
O5 O 0.27137 0.2878 0.34522 0.0
H6 H 0.21097 0.25704 0.20665 0.0
C7 C 0.5331 0.36697 0.45103 0.0
C8 C 0.49898 0.31161 0.49598 0.0
C9 C 0.47711 0.39743 0.3776 0.0
C10 C 0.39033 0.36929 0.34044 0.0
C11 C 0.3576 0.3124 0.37987 0.0
C12 C 0.41007 0.28449 0.46047 0.0
H13 H 0.16696 -0.00537 1.05386 0.0
H14 H 0.1347 0.1837 0.9457 0.0
H15 H 0.28208 0.03787 0.75547 0.0
H16 H 0.28706 0.19773 0.64349 0.0
C17 C 0.307 0.17896 0.71969 0.0
O18 O 0.22176 0.15809 0.76608 0.0
H19 H 0.35771 0.13821 0.70311 0.0
C20 C 0.18379 0.02954 0.99709 0.0
C21 C 0.23416 0.01 0.90638 0.0
C22 C 0.14667 0.09154 1.01157 0.0
C23 C 0.16577 0.13624 0.93669 0.0
C24 C 0.21739 0.11761 0.84493 0.0
C25 C 0.24908 0.05375 0.829 0.0
H26 H 1.09857 -0.01058 0.67602 0.0
H27 H 0.84584 -0.01251 0.87354 0.0
H28 H 0.88164 0.13727 0.66141 0.0
H29 H 0.83627 0.14772 0.93136 0.0
C30 C 0.76414 0.13887 0.89248 0.0
O31 O 0.77151 0.09252 0.81232 0.0
H32 H 0.71133 0.12327 0.95177 0.0
C33 C 1.03321 0.0132 0.70671 0.0
C34 C 0.99911 0.06852 0.66162 0.0
C35 C 0.97721 -0.01718 0.7802 0.0
C36 C 0.89042 0.01099 0.81728 0.0
C37 C 0.85774 0.06787 0.77775 0.0
C38 C 0.91024 0.09571 0.69712 0.0
H39 H 0.66677 0.38556 0.1039 0.0
H40 H 0.63464 0.19643 0.21183 0.0
H41 H 0.78196 0.34223 0.40222 0.0
H42 H 0.78703 0.18237 0.51407 0.0
C43 C 0.80694 0.20114 0.43786 0.0
O44 O 0.72168 0.22199 0.39148 0.0
H45 H 0.85765 0.24189 0.45441 0.0
C46 C 0.6836 0.35064 0.16063 0.0
C47 C 0.73399 0.37015 0.25135 0.0
C48 C 0.64653 0.28863 0.14607 0.0
C49 C 0.66567 0.2439 0.2209 0.0
C50 C 0.71728 0.26251 0.31268 0.0
C51 C 0.74894 0.32637 0.32868 0.0
H52 H 0.61849 0.48945 0.67572 0.0
H53 H 0.83555 0.63725 0.66141 0.0
H54 H 0.87117 0.48732 0.87328 0.0
H55 H 1.00595 0.62307 0.95091 0.0
C56 C 0.95272 0.63884 0.89218 0.0
O57 O 0.94559 0.59234 0.81229 0.0
H58 H 0.88092 0.64787 0.93163 0.0
C59 C 0.68387 0.5132 0.70644 0.0
C60 C 0.73984 0.48275 0.77988 0.0
C61 C 0.71801 0.56855 0.66147 0.0
C62 C 0.80693 0.59567 0.69701 0.0
C63 C 0.85938 0.56775 0.77761 0.0
C64 C 0.82663 0.51087 0.81704 0.0
H65 H 1.04986 0.88549 0.10373 0.0
H66 H 0.93477 0.8422 0.40214 0.0
H67 H 1.08247 0.69649 0.212 0.0
H68 H 0.85979 0.74133 0.45648 0.0
C69 C 0.9106 0.70089 0.43796 0.0
O70 O 0.99563 0.72211 0.39166 0.0
H71 H 0.93005 0.682 0.5142 0.0
C72 C 1.03306 0.85059 0.16051 0.0
C73 C 1.07027 0.78861 0.14604 0.0
C74 C 0.98266 0.87011 0.25122 0.0
C75 C 0.96779 0.82634 0.32861 0.0
C76 C 0.99965 0.76253 0.31272 0.0
C77 C 1.05128 0.74391 0.22096 0.0
H78 H 0.1184 0.89071 0.48165 0.0
H79 H 0.33537 0.74287 0.49626 0.0
H80 H 0.37111 0.89266 0.28412 0.0
H81 H 0.50561 0.75692 0.20584 0.0
C82 C 0.4528 0.74132 0.26511 0.0
O83 O 0.44547 0.78764 0.34531 0.0
H84 H 0.38066 0.7325 0.22624 0.0
C85 C 0.18377 0.86692 0.45097 0.0
C86 C 0.23975 0.89731 0.37747 0.0
C87 C 0.21789 0.81161 0.49607 0.0
C88 C 0.30677 0.78443 0.46057 0.0
C89 C 0.35925 0.81229 0.37993 0.0
C90 C 0.32655 0.86915 0.34039 0.0
H91 H 0.55003 0.49461 1.05367 0.0
H92 H 0.43489 0.538 0.75531 0.0
H93 H 0.58253 0.68368 0.94562 0.0
H94 H 0.35987 0.63887 0.70111 0.0
C95 C 0.41067 0.67932 0.71963 0.0
O96 O 0.49572 0.65811 0.76592 0.0
H97 H 0.43012 0.69822 0.64338 0.0
C98 C 0.53323 0.52953 0.99692 0.0
C99 C 0.5704 0.59152 1.01146 0.0
C100 C 0.48282 0.51004 0.9062 0.0
C101 C 0.46792 0.55384 0.82886 0.0
C102 C 0.49976 0.61766 0.84482 0.0
C103 C 0.55138 0.63624 0.9366 0.0
Zn104 Zn 0.21883 0.08302 0.4306 0.0
Zn105 Zn 0.9013 0.05832 0.20603 0.0
Zn106 Zn 1.06139 0.07597 0.33269 0.0
C107 C 1.07555 0.10235 0.0969 0.0
C108 C 0.96445 0.93898 0.26945 0.0
O109 O 1.00591 0.10549 0.48729 0.0
O110 O 0.1423 0.07477 0.56172 0.0
C111 C 0.22944 0.18179 0.31088 0.0
O112 O 0.10834 0.11662 0.18896 0.0
O113 O 0.99292 0.07524 0.08532 0.0
O114 O 0.88635 -0.03631 0.23654 0.0
O115 O 1.03718 -0.02536 0.29812 0.0
O116 O 0.26703 0.1661 0.39514 0.0
O117 O 0.16001 0.14807 0.26778 0.0
O118 O 0.12753 -0.01764 0.35426 0.0
O119 O 0.2851 0.00471 0.37044 0.0
C120 C 0.21745 -0.03605 0.35911 0.0
O121 O 0.94013 0.12696 0.41082 0.0
O122 O 0.82927 0.13106 0.28504 0.0
C123 C 1.05234 0.08921 0.56882 0.0
C124 C 0.85998 0.14957 0.37462 0.0
Zn125 Zn 0.71888 0.29694 0.7267 0.0
Zn126 Zn 0.40131 0.32186 0.95139 0.0
Zn127 Zn 0.5615 0.30415 0.82486 0.0
C128 C 0.46455 0.44117 0.88794 0.0
C129 C 0.36004 0.23052 0.78294 0.0
O130 O 0.66035 0.23221 0.88994 0.0
O131 O 0.76715 0.21392 0.76247 0.0
C132 C 0.71749 0.4161 0.79815 0.0
O133 O 0.53727 0.40549 0.85934 0.0
O134 O 0.38642 0.41649 0.92082 0.0
O135 O 0.32924 0.24912 0.87243 0.0
O136 O 0.44025 0.25309 0.74678 0.0
O137 O 0.78511 0.37532 0.78666 0.0
O138 O 0.62758 0.39773 0.80316 0.0
O139 O 0.50591 0.2746 0.67027 0.0
O140 O 0.64229 0.30512 0.59561 0.0
C141 C 0.55228 0.2908 0.58866 0.0
O142 O 0.60832 0.26354 0.96866 0.0
O143 O 0.49284 0.30494 1.07219 0.0
C144 C 0.73028 0.1987 0.84734 0.0
C145 C 0.57546 0.27783 1.06068 0.0
Zn146 Zn 0.31569 0.82187 0.95155 0.0
Zn147 Zn 0.99811 0.79712 0.72708 0.0
Zn148 Zn 0.15555 0.80411 0.82493 0.0
C149 C 0.9995 0.91617 0.79854 0.0
C150 C 0.98746 0.69834 0.84673 0.0
O151 O 0.27683 0.75302 0.74693 0.0
O152 O 0.38808 0.74935 0.8724 0.0
C153 C 0.25244 -0.05886 0.88819 0.0
O154 O 1.08942 0.89773 0.80332 0.0
O155 O 0.93182 0.87542 0.78728 0.0
O156 O 0.9499 0.71404 0.76247 0.0
O157 O 1.0569 0.73205 0.88985 0.0
O158 O 0.33054 0.91649 0.92119 0.0
O159 O 0.17978 0.90544 0.85945 0.0
O160 O 0.10855 0.76352 0.96865 0.0
O161 O 0.22405 0.80486 1.07225 0.0
C162 C 0.14138 0.7778 1.06069 0.0
O163 O 0.21108 0.77456 0.67037 0.0
O164 O 1.07472 0.8054 0.59601 0.0
C165 C 0.35717 0.73061 0.78302 0.0
C166 C 0.16466 0.79091 0.58887 0.0
Zn167 Zn 0.81567 0.55825 0.20617 0.0
Zn168 Zn 0.49805 0.58322 0.43077 0.0
Zn169 Zn 0.65543 0.57607 0.33268 0.0
C170 C 0.66471 0.58938 0.5688 0.0
C171 C 0.49945 0.46408 0.35935 0.0
O172 O 0.60857 0.61662 0.18888 0.0
O173 O 0.72412 0.57525 0.08539 0.0
C174 C 0.8571 0.64959 0.37457 0.0
O175 O 0.71107 0.60565 0.48721 0.0
O176 O 0.57472 0.57501 0.56181 0.0
O177 O 0.43181 0.50484 0.37077 0.0
O178 O 0.58936 0.48248 0.35441 0.0
O179 O 0.8881 0.63077 0.28526 0.0
O180 O 0.77671 0.62722 0.41062 0.0
O181 O 0.67967 0.47472 0.29825 0.0
O182 O 0.83046 0.46363 0.2366 0.0
C183 C 0.75233 0.439 0.26957 0.0
O184 O 0.55655 0.64797 0.26758 0.0
O185 O 0.44978 0.66624 0.39507 0.0
C186 C 0.64146 0.60233 0.09687 0.0
C187 C 0.48663 0.68147 0.3102 0.0
loop_
_geom_bond_atom_site_label_1
_geom_bond_atom_site_label_2
_geom_bond_distance
_geom_bond_site_symmetry_2
_ccdc_geom_bond_type
H0 C7 0.929 . S
H1 C10 0.930 . S
H2 C12 0.929 . S
H3 C4 0.969 . S
C4 H3 0.969 . S
C4 O5 1.550 . S
C4 H6 0.973 . S
O5 C4 1.550 . S
O5 C11 1.412 . S
H6 C4 0.973 . S
C7 H0 0.929 . S
C7 C8 1.400 . S
C7 C9 1.364 . S
C8 C7 1.400 . S
C8 C12 1.377 . S
C9 C7 1.364 . S
C9 C10 1.374 . S
C10 H1 0.930 . S
C10 C9 1.374 . S
C10 C11 1.383 . S
C11 O5 1.412 . S
C11 C10 1.383 . S
C11 C12 1.394 . S
C12 H2 0.929 . S
C12 C8 1.377 . S
C12 C11 1.394 . S
H13 C20 0.929 . S
H14 C23 0.930 . S
H15 C25 0.929 . S
H16 C17 0.969 . S
C17 H16 0.969 . S
C17 O18 1.550 . S
C17 H19 0.973 . S
O18 C17 1.550 . S
O18 C24 1.412 . S
H19 C17 0.973 . S
C20 H13 0.929 . S
C20 C21 1.400 . S
C20 C22 1.364 . S
C21 C20 1.400 . S
C21 C25 1.377 . S
C22 C20 1.364 . S
C22 C23 1.374 . S
C23 H14 0.930 . S
C23 C22 1.374 . S
C23 C24 1.383 . S
C24 O18 1.412 . S
C24 C23 1.383 . S
C24 C25 1.394 . S
C25 H15 0.929 . S
C25 C21 1.377 . S
C25 C24 1.394 . S
H26 C33 0.929 . S
H27 C36 0.930 . S
H28 C38 0.929 . S
H29 C30 0.969 . S
C30 H29 0.969 . S
C30 O31 1.550 . S
C30 H32 0.973 . S
O31 C30 1.550 . S
O31 C37 1.412 . S
H32 C30 0.973 . S
C33 H26 0.929 . S
C33 C34 1.400 . S
C33 C35 1.364 . S
C34 C33 1.400 . S
C34 C38 1.377 . S
C35 C33 1.364 . S
C35 C36 1.374 . S
C36 H27 0.930 . S
C36 C35 1.374 . S
C36 C37 1.383 . S
C37 O31 1.412 . S
C37 C36 1.383 . S
C37 C38 1.394 . S
C38 H28 0.929 . S
C38 C34 1.377 . S
C38 C37 1.394 . S
H39 C46 0.929 . S
H40 C49 0.930 . S
H41 C51 0.929 . S
H42 C43 0.969 . S
C43 H42 0.969 . S
C43 O44 1.550 . S
C43 H45 0.973 . S
O44 C43 1.550 . S
O44 C50 1.412 . S
H45 C43 0.973 . S
C46 H39 0.929 . S
C46 C47 1.400 . S
C46 C48 1.364 . S
C47 C46 1.400 . S
C47 C51 1.377 . S
C48 C46 1.364 . S
C48 C49 1.374 . S
C49 H40 0.930 . S
C49 C48 1.374 . S
C49 C50 1.383 . S
C50 O44 1.412 . S
C50 C49 1.383 . S
C50 C51 1.394 . S
C51 H41 0.929 . S
C51 C47 1.377 . S
C51 C50 1.394 . S
H52 C59 0.929 . S
H53 C62 0.930 . S
H54 C64 0.929 . S
H55 C56 0.969 . S
C56 H55 0.969 . S
C56 O57 1.550 . S
C56 H58 0.973 . S
O57 C56 1.550 . S
O57 C63 1.412 . S
H58 C56 0.973 . S
C59 H52 0.929 . S
C59 C60 1.400 . S
C59 C61 1.364 . S
C60 C59 1.400 . S
C60 C64 1.377 . S
C61 C59 1.364 . S
C61 C62 1.374 . S
C62 H53 0.930 . S
C62 C61 1.374 . S
C62 C63 1.383 . S
C63 O57 1.412 . S
C63 C62 1.383 . S
C63 C64 1.394 . S
C64 H54 0.929 . S
C64 C60 1.377 . S
C64 C63 1.394 . S
H65 C72 0.929 . S
H66 C75 0.930 . S
H67 C77 0.929 1_556 S
H68 C69 0.969 . S
C69 H68 0.969 . S
C69 O70 1.550 . S
C69 H71 0.973 . S
O70 C69 1.550 . S
O70 C76 1.412 . S
H71 C69 0.973 . S
C72 H65 0.929 . S
C72 C73 1.400 1_554 S
C72 C74 1.364 . S
C73 C72 1.400 1_556 S
C73 C77 1.377 1_556 S
C74 C72 1.364 . S
C74 C75 1.374 . S
C75 H66 0.930 . S
C75 C74 1.374 . S
C75 C76 1.383 . S
C76 O70 1.412 . S
C76 C75 1.383 . S
C76 C77 1.394 . S
C77 H67 0.929 1_554 S
C77 C73 1.377 1_554 S
C77 C76 1.394 . S
H78 C85 0.929 . S
H79 C88 0.930 . S
H80 C90 0.929 . S
H81 C82 0.969 . S
C82 H81 0.969 . S
C82 O83 1.550 . S
C82 H84 0.973 . S
O83 C82 1.550 . S
O83 C89 1.412 . S
H84 C82 0.973 . S
C85 H78 0.929 . S
C85 C86 1.400 . S
C85 C87 1.364 . S
C86 C85 1.400 . S
C86 C90 1.377 . S
C87 C85 1.364 . S
C87 C88 1.374 . S
C88 H79 0.930 . S
C88 C87 1.374 . S
C88 C89 1.383 . S
C89 O83 1.412 . S
C89 C88 1.383 . S
C89 C90 1.394 . S
C90 H80 0.929 . S
C90 C86 1.377 . S
C90 C89 1.394 . S
H91 C98 0.929 . S
H92 C101 0.930 . S
H93 C103 0.929 1_554 S
H94 C95 0.969 . S
C95 H94 0.969 . S
C95 O96 1.550 . S
C95 H97 0.973 . S
O96 C95 1.550 . S
O96 C102 1.412 . S
H97 C95 0.973 . S
C98 H91 0.929 . S
C98 C99 1.400 1_556 S
C98 C100 1.364 . S
C99 C98 1.400 1_554 S
C99 C103 1.377 1_554 S
C100 C98 1.364 . S
C100 C101 1.374 . S
C101 H92 0.930 . S
C101 C100 1.374 . S
C101 C102 1.383 . S
C102 O96 1.412 . S
C102 C101 1.383 . S
C102 C103 1.394 . S
C103 H93 0.929 1_556 S
C103 C99 1.377 1_556 S
C103 C102 1.394 . S
Zn104 O110 1.920 1_455 S
Zn104 O116 1.898 . S
Zn104 O119 1.905 . S
Zn105 O113 1.905 1_654 S
Zn105 O114 1.898 . S
Zn105 O122 1.920 . S
Zn106 O109 2.080 1_455 S
Zn106 O112 2.114 . S
Zn106 O115 2.120 1_455 S
Zn106 O117 2.120 . S
Zn106 O118 2.114 . S
Zn106 O121 2.080 1_455 S
C107 O112 1.166 . S
C107 O113 1.182 1_554 S
C108 O114 1.167 1_565 S
C108 O115 1.299 1_565 S
O109 Zn106 2.080 1_655 S
O109 C123 1.305 . S
O110 Zn104 1.920 1_655 S
O110 C123 1.234 . S
C111 O116 1.167 . S
C111 O117 1.299 . S
O112 Zn106 2.114 . S
O112 C107 1.166 . S
O113 Zn105 1.905 1_456 S
O113 C107 1.182 1_556 S
O114 Zn105 1.898 . S
O114 C108 1.167 1_545 S
O115 Zn106 2.120 1_655 S
O115 C108 1.299 1_545 S
O116 Zn104 1.898 . S
O116 C111 1.167 . S
O117 Zn106 2.120 . S
O117 C111 1.299 . S
O118 Zn106 2.114 . S
O118 C120 1.166 1_545 S
O119 Zn104 1.905 . S
O119 C120 1.182 1_545 S
C120 O118 1.166 1_565 S
C120 O119 1.182 1_565 S
O121 Zn106 2.080 1_655 S
O121 C124 1.305 . S
O122 Zn105 1.920 . S
O122 C124 1.234 . S
C123 O109 1.305 . S
C123 O110 1.234 . S
C124 O121 1.305 . S
C124 O122 1.234 . S
Zn125 O131 1.920 . S
Zn125 O137 1.898 . S
Zn125 O140 1.905 . S
Zn126 O134 1.905 . S
Zn126 O135 1.898 . S
Zn126 O143 1.920 1_556 S
Zn127 O130 2.080 . S
Zn127 O133 2.114 . S
Zn127 O136 2.120 . S
Zn127 O138 2.120 . S
Zn127 O139 2.114 . S
Zn127 O142 2.080 . S
C128 O133 1.166 . S
C128 O134 1.182 . S
C129 O135 1.167 . S
C129 O136 1.299 . S
O130 Zn127 2.080 . S
O130 C144 1.305 . S
O131 Zn125 1.920 . S
O131 C144 1.234 . S
C132 O137 1.167 . S
C132 O138 1.299 . S
O133 Zn127 2.114 . S
O133 C128 1.166 . S
O134 Zn126 1.905 . S
O134 C128 1.182 . S
O135 Zn126 1.898 . S
O135 C129 1.167 . S
O136 Zn127 2.120 . S
O136 C129 1.299 . S
O137 Zn125 1.898 . S
O137 C132 1.167 . S
O138 Zn127 2.120 . S
O138 C132 1.299 . S
O139 Zn127 2.114 . S
O139 C141 1.166 . S
O140 Zn125 1.905 . S
O140 C141 1.182 . S
C141 O139 1.166 . S
C141 O140 1.182 . S
O142 Zn127 2.080 . S
O142 C145 1.305 . S
O143 Zn126 1.920 1_554 S
O143 C145 1.234 1_554 S
C144 O130 1.305 . S
C144 O131 1.234 . S
C145 O142 1.305 . S
C145 O143 1.234 1_556 S
Zn146 O152 1.920 . S
Zn146 O158 1.898 . S
Zn146 O161 1.905 1_455 S
Zn147 O155 1.905 . S
Zn147 O156 1.898 . S
Zn147 O164 1.920 1_655 S
Zn148 O151 2.080 . S
Zn148 O154 2.114 1_455 S
Zn148 O157 2.120 1_455 S
Zn148 O159 2.120 . S
Zn148 O160 2.114 1_455 S
Zn148 O163 2.080 . S
C149 O154 1.166 1_545 S
C149 O155 1.182 1_545 S
C150 O156 1.167 . S
C150 O157 1.299 . S
O151 Zn148 2.080 . S
O151 C165 1.305 . S
O152 Zn146 1.920 . S
O152 C165 1.234 . S
C153 O158 1.167 1_545 S
C153 O159 1.299 1_545 S
O154 Zn148 2.114 1_655 S
O154 C149 1.166 1_565 S
O155 Zn147 1.905 . S
O155 C149 1.182 1_565 S
O156 Zn147 1.898 . S
O156 C150 1.167 . S
O157 Zn148 2.120 1_655 S
O157 C150 1.299 . S
O158 Zn146 1.898 . S
O158 C153 1.167 1_565 S
O159 Zn148 2.120 . S
O159 C153 1.299 1_565 S
O160 Zn148 2.114 1_655 S
O160 C162 1.166 . S
O161 Zn146 1.905 1_655 S
O161 C162 1.182 . S
C162 O160 1.166 . S
C162 O161 1.182 . S
O163 Zn148 2.080 . S
O163 C166 1.305 . S
O164 Zn147 1.920 1_455 S
O164 C166 1.234 . S
C165 O151 1.305 . S
C165 O152 1.234 . S
C166 O163 1.305 . S
C166 O164 1.234 . S
Zn167 O173 1.920 . S
Zn167 O179 1.898 . S
Zn167 O182 1.905 . S
Zn168 O176 1.905 . S
Zn168 O177 1.898 . S
Zn168 O185 1.920 . S
Zn169 O172 2.080 . S
Zn169 O175 2.114 . S
Zn169 O178 2.120 . S
Zn169 O180 2.120 . S
Zn169 O181 2.114 . S
Zn169 O184 2.080 . S
C170 O175 1.166 . S
C170 O176 1.182 . S
C171 O177 1.167 . S
C171 O178 1.299 . S
O172 Zn169 2.080 . S
O172 C186 1.305 . S
O173 Zn167 1.920 . S
O173 C186 1.234 . S
C174 O179 1.167 . S
C174 O180 1.299 . S
O175 Zn169 2.114 . S
O175 C170 1.166 . S
O176 Zn168 1.905 . S
O176 C170 1.182 . S
O177 Zn168 1.898 . S
O177 C171 1.167 . S
O178 Zn169 2.120 . S
O178 C171 1.299 . S
O179 Zn167 1.898 . S
O179 C174 1.167 . S
O180 Zn169 2.120 . S
O180 C174 1.299 . S
O181 Zn169 2.114 . S
O181 C183 1.166 . S
O182 Zn167 1.905 . S
O182 C183 1.182 . S
C183 O181 1.166 . S
C183 O182 1.182 . S
O184 Zn169 2.080 . S
O184 C187 1.305 . S
O185 Zn168 1.920 . S
O185 C187 1.234 . S
C186 O172 1.305 . S
C186 O173 1.234 . S
C187 O184 1.305 . S
C187 O185 1.234 . S
C86 C120 1.296 . S
C128 C100 1.537 . S
C132 C60 1.294 . S
C74 C108 1.533 . S
C149 C35 1.547 . S
C183 C47 1.272 . S
C9 C171 1.543 . S
C21 C153 1.269 . S
C107 C22 1.271 1_554 S
C141 C8 1.200 . S
C145 C48 1.275 1_556 S
C123 C34 1.199 . S
C162 C73 1.203 . S
C61 C170 1.269 . S
C186 C99 1.205 . S
C87 C166 1.272 . S
C111 C4 1.509 . S
C129 C17 1.071 . S
C30 C144 1.526 . S
C124 C43 1.072 . S
C150 C56 1.176 . S
C69 C174 1.456 . S
C82 C187 1.169 . S
C95 C165 1.481 . S
