# Generated by pormake.
# Topology rtl, (3,6)-cn, num edge types: 1
# Building blocks:
#     Node 0, Type 0, BuildingBlock: BETDIP_clean_linker_0, # of connection points: 3
#     Node 1, Type 0, BuildingBlock: BETDIP_clean_linker_0, # of connection points: 3
#     Node 2, Type 0, BuildingBlock: BETDIP_clean_linker_0, # of connection points: 3
#     Node 3, Type 0, BuildingBlock: BETDIP_clean_linker_0, # of connection points: 3
#     Node 4, Type 1, BuildingBlock: LEVNOQ01_clean_sbu_1, # of connection points: 6
#     Node 5, Type 1, BuildingBlock: LEVNOQ01_clean_sbu_1, # of connection points: 6
#     Edge 6, Type (0, 1), BuildingBlock: OJICUG_clean_linker_0, # of connection points: 2
#     Edge 7, Type (0, 1), BuildingBlock: OJICUG_clean_linker_0, # of connection points: 2
#     Edge 8, Type (0, 1), BuildingBlock: OJICUG_clean_linker_0, # of connection points: 2
#     Edge 9, Type (0, 1), BuildingBlock: OJICUG_clean_linker_0, # of connection points: 2
#     Edge 10, Type (0, 1), BuildingBlock: OJICUG_clean_linker_0, # of connection points: 2
#     Edge 11, Type (0, 1), BuildingBlock: OJICUG_clean_linker_0, # of connection points: 2
#     Edge 12, Type (0, 1), BuildingBlock: OJICUG_clean_linker_0, # of connection points: 2
#     Edge 13, Type (0, 1), BuildingBlock: OJICUG_clean_linker_0, # of connection points: 2
#     Edge 14, Type (0, 1), BuildingBlock: OJICUG_clean_linker_0, # of connection points: 2
#     Edge 15, Type (0, 1), BuildingBlock: OJICUG_clean_linker_0, # of connection points: 2
#     Edge 16, Type (0, 1), BuildingBlock: OJICUG_clean_linker_0, # of connection points: 2
#     Edge 17, Type (0, 1), BuildingBlock: OJICUG_clean_linker_0, # of connection points: 2
# Relax obj value: 0.018
# Max RMSD: 0.112
# Mean RMSD: 0.086
data_MOF--net-rtl--node1-LEVNOQ01_clean_sbu_1--node2-BETDIP_clean_linker_0--edge1-OJICUG_clean_linker_0
_symmetry_space_group_name_H-M    P1
_symmetry_Int_Tables_number       1
_symmetry_cell_setting            triclinic
loop_
_symmetry_equiv_pos_as_xyz
'x, y, z'
_cell_length_a     26.509241
_cell_length_b     25.977592
_cell_length_c     16.121062
_cell_angle_alpha  91.231123
_cell_angle_beta   101.3849
_cell_angle_gamma 90.458576
loop_
_atom_site_label
_atom_site_type_symbol
_atom_site_fract_x
_atom_site_fract_y
_atom_site_fract_z
_atom_type_partial_charge
H0 H 0.17937 0.79158 0.94319 0.0
H1 H 0.19886 0.79224 0.21456 0.0
H2 H 0.10851 0.909 0.07176 0.0
H3 H 0.27517 0.75752 0.20414 0.0
C4 C 0.26683 0.73227 0.14846 0.0
C5 C 0.17111 0.80828 0.00119 0.0
C6 C 0.1413 0.85281 0.99833 0.0
C7 C 0.19329 0.78716 0.07914 0.0
C8 C 0.18327 0.80931 0.15443 0.0
C9 C 0.15251 0.85316 0.15264 0.0
C10 C 0.13228 0.87508 0.07424 0.0
N11 N 0.22638 0.74438 0.07979 0.0
H12 H 0.74119 0.71039 0.7354 0.0
H13 H 0.69097 0.72549 0.46751 0.0
H14 H 0.62844 0.60463 0.59657 0.0
H15 H 0.81003 0.75806 0.7141 0.0
C16 C 0.7927 0.78409 0.66503 0.0
C17 C 0.71833 0.69635 0.67606 0.0
C18 C 0.68409 0.65462 0.67562 0.0
C19 C 0.72075 0.7218 0.60094 0.0
C20 C 0.68977 0.70461 0.52457 0.0
C21 C 0.65684 0.66171 0.52177 0.0
C22 C 0.65461 0.63691 0.59774 0.0
N23 N 0.75096 0.76709 0.60038 0.0
H24 H 0.78158 0.22635 0.83137 0.0
H25 H 0.8175 0.2254 0.10487 0.0
H26 H 0.90602 0.13565 0.96158 0.0
H27 H 0.73374 0.23949 0.08527 0.0
C28 C 0.72799 0.26939 0.03834 0.0
C29 C 0.80559 0.21411 0.88983 0.0
C30 C 0.84446 0.17789 0.88769 0.0
C31 C 0.79572 0.23209 0.96817 0.0
C32 C 0.82537 0.21339 0.04411 0.0
C33 C 0.86369 0.17688 0.04186 0.0
C34 C 0.87512 0.16251 0.96367 0.0
N35 N 0.75428 0.2666 0.96951 0.0
H36 H 0.26202 0.3383 0.31695 0.0
H37 H 0.29331 0.34327 0.58925 0.0
H38 H 0.36866 0.45074 0.45495 0.0
H39 H 0.28213 0.25579 0.56435 0.0
C40 C 0.24686 0.25553 0.51659 0.0
C41 C 0.28233 0.35553 0.37605 0.0
C42 C 0.31606 0.39772 0.37573 0.0
C43 C 0.27524 0.33447 0.45244 0.0
C44 C 0.3005 0.35728 0.52983 0.0
C45 C 0.33321 0.4 0.53079 0.0
C46 C 0.34141 0.41928 0.45371 0.0
N47 N 0.24152 0.29127 0.45008 0.0
O48 O 0.9852 0.06494 0.70618 0.0
Mg49 Mg 0.04431 0.05483 0.63536 0.0
O50 O 0.93802 0.06514 0.58013 0.0
Mg51 Mg -0.00307 0.01688 0.52087 0.0
O52 O 0.0601 0.08754 0.52934 0.0
O53 O 0.07957 0.12323 0.65962 0.0
O54 O 0.05238 0.96948 0.4491 0.0
O55 O 0.96101 0.05862 0.39537 0.0
Mg56 Mg 0.93715 0.93662 0.38791 0.0
O57 O 0.93389 0.9539 0.50895 0.0
O58 O 0.00759 0.90325 0.38165 0.0
O59 O 0.91549 0.99929 0.31084 0.0
O60 O 0.88288 0.89462 0.4307 0.0
C61 C 0.07509 0.96768 0.69352 0.0
C62 C 0.94266 0.07371 0.65879 0.0
C63 C 0.08427 0.12263 0.58191 0.0
C64 C 0.04973 0.92758 0.4049 0.0
C65 C 0.93158 0.04529 0.32539 0.0
C66 C 0.89843 0.91848 0.50235 0.0
O67 O 0.10283 0.00576 0.68556 0.0
O68 O 0.03007 0.96527 0.64687 0.0
O69 O 0.5204 0.5205 0.22997 0.0
Mg70 Mg 0.5103 0.46695 0.12379 0.0
O71 O 0.54929 0.57128 0.14435 0.0
Mg72 Mg 0.50082 0.52902 0.02813 0.0
O73 O 0.5591 0.45527 0.04235 0.0
O74 O 0.56417 0.4155 0.16571 0.0
O75 O 0.4527 0.49219 0.90314 0.0
O76 O 0.56372 0.55713 0.95164 0.0
Mg77 Mg 0.47047 0.62129 0.90664 0.0
O78 O 0.45085 0.60065 0.01493 0.0
O79 O 0.44112 0.56045 0.82017 0.0
O80 O 0.54905 0.63952 0.92935 0.0
O81 O 0.4203 0.67129 0.94825 0.0
C82 C 0.41417 0.46035 0.10959 0.0
C83 C 0.54402 0.56132 0.21865 0.0
C84 C 0.58048 0.42136 0.09651 0.0
C85 C 0.43544 0.51254 0.83147 0.0
C86 C 0.57827 0.60124 0.93078 0.0
C87 C 0.4218 0.64059 0.01041 0.0
O88 O 0.44153 0.42381 0.093 0.0
O89 O 0.43099 0.50593 0.10225 0.0
C90 C 0.20717 0.19974 0.60811 0.0
C91 C 0.20429 0.22119 0.52856 0.0
H92 H 0.17143 0.15265 0.68658 0.0
C93 C 0.16133 0.20967 0.46388 0.0
H94 H 0.23986 0.20783 0.6589 0.0
C95 C 0.12184 0.17681 0.47928 0.0
C96 C 0.12451 0.15652 0.56009 0.0
H97 H 0.15846 0.22565 0.40167 0.0
H98 H 0.0891 0.16808 0.429 0.0
C99 C 0.16768 0.16832 0.62392 0.0
C100 C 0.35939 0.71019 0.16602 0.0
C101 C 0.30769 0.69772 0.13214 0.0
H102 H 0.43783 0.7005 0.153 0.0
C103 C 0.29593 0.6569 0.07289 0.0
H104 H 0.3692 0.74156 0.21192 0.0
C105 C 0.33513 0.63262 0.04116 0.0
C106 C 0.38628 0.64934 0.0677 0.0
H107 H 0.25628 0.64627 0.04675 0.0
H108 H 0.325 0.60439 0.98995 0.0
C109 C 0.39858 0.68654 0.13298 0.0
C110 C 0.79536 0.87048 0.60281 0.0
C111 C 0.8215 0.83046 0.64954 0.0
H112 H 0.80118 0.93325 0.52142 0.0
C113 C 0.87551 0.83111 0.66826 0.0
H114 H 0.75368 0.87127 0.58901 0.0
C115 C 0.90276 0.86704 0.63004 0.0
C116 C 0.87597 0.90251 0.57368 0.0
H117 H 0.89636 0.80063 0.70456 0.0
H118 H 0.94397 0.8629 0.63617 0.0
C119 C 0.82251 0.90639 0.5652 0.0
C120 C 0.68122 0.31833 0.13111 0.0
C121 C 0.69341 0.31194 0.05098 0.0
H122 H 0.63772 0.35852 0.20854 0.0
C123 C 0.67115 0.34467 0.98571 0.0
H124 H 0.69829 0.294 0.18274 0.0
C125 C 0.63536 0.38191 1.00012 0.0
C126 C 0.62191 0.38688 0.08007 0.0
H127 H 0.68008 0.34043 0.92323 0.0
H128 H 0.61725 0.40559 0.9484 0.0
C129 C 0.64636 0.35546 0.14569 0.0
C130 C 0.13523 0.9271 0.24693 0.0
C131 C 0.13833 0.87374 0.23167 0.0
H132 H 0.10625 0.98668 0.31853 0.0
C133 C 0.12271 0.83963 0.28847 0.0
H134 H 0.14778 0.95435 0.20503 0.0
C135 C 0.09966 0.85814 0.35365 0.0
C136 C 0.09201 0.91112 0.36381 0.0
H137 H 0.12429 0.79836 0.27849 0.0
H138 H 0.08358 0.83073 0.39136 0.0
C139 C 0.11247 0.94568 0.31294 0.0
C140 C 0.67 0.66975 0.82326 0.0
C141 C 0.67271 0.63487 0.75637 0.0
H142 H 0.63938 0.68517 0.93403 0.0
C143 C 0.65596 0.58363 0.76236 0.0
H144 H 0.68225 0.70949 0.82168 0.0
C145 C 0.63055 0.56984 0.82723 0.0
C146 C 0.6219 0.60708 0.88714 0.0
H147 H 0.6589 0.55519 0.71348 0.0
H148 H 0.61316 0.53183 0.82514 0.0
C149 C 0.64514 0.65586 0.88806 0.0
C150 C 0.88842 0.09238 0.10517 0.0
C151 C 0.88494 0.14586 0.11691 0.0
H152 H 0.90688 0.01999 0.16042 0.0
C153 C 0.89885 0.16723 0.19948 0.0
H154 H 0.87676 0.07402 0.0433 0.0
C155 C 0.91569 0.13523 0.26863 0.0
C156 C 0.91798 0.08164 0.25565 0.0
H157 H 0.89644 0.20832 0.21051 0.0
H158 H 0.9255 0.15207 0.33188 0.0
C159 C 0.90501 0.061 0.17305 0.0
C160 C 0.35482 0.48066 0.61626 0.0
C161 C 0.35703 0.42688 0.61136 0.0
H162 H 0.37697 0.54918 0.68879 0.0
C163 C 0.38282 0.4002 0.68223 0.0
H164 H 0.3342 0.50219 0.5636 0.0
C165 C 0.40777 0.42743 0.75543 0.0
C166 C 0.40705 0.48158 0.75845 0.0
H167 H 0.38492 0.35858 0.68009 0.0
H168 H 0.42852 0.40631 0.80845 0.0
C169 C 0.37941 0.50757 0.68848 0.0
C170 C 0.64378 0.64269 0.36479 0.0
C171 C 0.62457 0.64259 0.44025 0.0
H172 H 0.63267 0.61768 0.23474 0.0
C173 C 0.57541 0.62101 0.43823 0.0
H174 H 0.68139 0.65885 0.36358 0.0
C175 C 0.54835 0.59612 0.36512 0.0
C176 C 0.56904 0.59368 0.2916 0.0
H177 H 0.55824 0.62208 0.49384 0.0
H178 H 0.51163 0.57789 0.36658 0.0
C179 C 0.61599 0.61891 0.29092 0.0
C180 C 0.86955 0.17791 0.7455 0.0
C181 C 0.85217 0.15103 0.80921 0.0
H182 H 0.91166 0.17311 0.64453 0.0
C183 C 0.85414 0.09684 0.80837 0.0
H184 H 0.86865 0.21957 0.74511 0.0
C185 C 0.87961 0.07064 0.75274 0.0
C186 C 0.90193 0.09803 0.69518 0.0
H187 H 0.84067 0.07521 0.85668 0.0
H188 H 0.88536 0.02954 0.75922 0.0
C189 C 0.89423 0.15136 0.68834 0.0
C190 C 0.34029 0.46939 0.28644 0.0
C191 C 0.3286 0.41693 0.2953 0.0
H192 H 0.37569 0.52505 0.21878 0.0
C193 C 0.33504 0.38191 0.2307 0.0
H194 H 0.3344 0.49779 0.33366 0.0
C195 C 0.35754 0.39782 0.164 0.0
C196 C 0.37471 0.449 0.16057 0.0
H197 H 0.3266 0.34132 0.23484 0.0
H198 H 0.36542 0.36894 0.11891 0.0
C199 C 0.36321 0.48529 0.21976 0.0
C200 C 0.09112 0.85648 0.84754 0.0
C201 C 0.12418 0.87977 0.91779 0.0
H202 H 0.0481 0.86643 0.72046 0.0
C203 C 0.14107 0.93046 0.91227 0.0
H204 H 0.07769 0.81722 0.85065 0.0
C205 C 0.12534 0.95769 0.83869 0.0
C206 C 0.09149 0.93542 0.76852 0.0
H207 H 0.16672 0.94913 0.96525 0.0
H208 H 0.13912 0.99701 0.8377 0.0
C209 C 0.07416 0.8845 0.7735 0.0
loop_
_geom_bond_atom_site_label_1
_geom_bond_atom_site_label_2
_geom_bond_distance
_geom_bond_site_symmetry_2
_ccdc_geom_bond_type
H0 C5 0.930 . S
H1 C8 0.930 . S
H2 C10 0.930 . S
H3 C4 1.016 . S
C4 H3 1.016 . S
C4 N11 1.286 . S
C5 H0 0.930 . S
C5 C6 1.397 . S
C5 C7 1.361 1_556 S
C6 C5 1.397 . S
C6 C10 1.390 1_556 S
C7 C5 1.361 1_554 S
C7 C8 1.393 . S
C7 N11 1.413 . S
C8 H1 0.930 . S
C8 C7 1.393 . S
C8 C9 1.399 . S
C9 C8 1.399 . S
C9 C10 1.381 . S
C10 H2 0.930 . S
C10 C6 1.390 1_554 S
C10 C9 1.381 . S
N11 C4 1.286 . S
N11 C7 1.413 . S
H12 C17 0.930 . S
H13 C20 0.930 . S
H14 C22 0.930 . S
H15 C16 1.016 . S
C16 H15 1.016 . S
C16 N23 1.286 . S
C17 H12 0.930 . S
C17 C18 1.397 . S
C17 C19 1.361 . S
C18 C17 1.397 . S
C18 C22 1.390 . S
C19 C17 1.361 . S
C19 C20 1.393 . S
C19 N23 1.413 . S
C20 H13 0.930 . S
C20 C19 1.393 . S
C20 C21 1.399 . S
C21 C20 1.399 . S
C21 C22 1.381 . S
C22 H14 0.930 . S
C22 C18 1.390 . S
C22 C21 1.381 . S
N23 C16 1.286 . S
N23 C19 1.413 . S
H24 C29 0.930 . S
H25 C32 0.930 . S
H26 C34 0.930 . S
H27 C28 1.016 . S
C28 H27 1.016 . S
C28 N35 1.286 1_554 S
C29 H24 0.930 . S
C29 C30 1.397 . S
C29 C31 1.361 . S
C30 C29 1.397 . S
C30 C34 1.390 1_556 S
C31 C29 1.361 . S
C31 C32 1.393 1_556 S
C31 N35 1.413 . S
C32 H25 0.930 . S
C32 C31 1.393 1_554 S
C32 C33 1.399 . S
C33 C32 1.399 . S
C33 C34 1.381 . S
C34 H26 0.930 . S
C34 C30 1.390 1_554 S
C34 C33 1.381 . S
N35 C28 1.286 1_556 S
N35 C31 1.413 . S
H36 C41 0.930 . S
H37 C44 0.930 . S
H38 C46 0.930 . S
H39 C40 1.016 . S
C40 H39 1.016 . S
C40 N47 1.286 . S
C41 H36 0.930 . S
C41 C42 1.397 . S
C41 C43 1.361 . S
C42 C41 1.397 . S
C42 C46 1.390 . S
C43 C41 1.361 . S
C43 C44 1.393 . S
C43 N47 1.413 . S
C44 H37 0.930 . S
C44 C43 1.393 . S
C44 C45 1.399 . S
C45 C44 1.399 . S
C45 C46 1.381 . S
C46 H38 0.930 . S
C46 C42 1.390 . S
C46 C45 1.381 . S
N47 C40 1.286 . S
N47 C43 1.413 . S
O48 Mg49 1.990 . S
O48 C62 1.253 1_455 S
Mg49 O48 1.990 . S
Mg49 O52 2.180 . S
Mg49 O53 2.117 . S
Mg49 O67 2.030 . S
O50 Mg51 2.072 1_655 S
O50 C62 1.260 . S
Mg51 O50 2.072 1_455 S
Mg51 O52 2.099 . S
Mg51 O54 2.079 1_545 S
Mg51 O55 2.072 1_455 S
Mg51 O57 2.099 1_445 S
Mg51 O68 2.079 1_545 S
O52 Mg49 2.180 . S
O52 Mg51 2.099 . S
O52 C63 1.279 . S
O53 Mg49 2.117 . S
O53 C63 1.250 . S
O54 Mg51 2.079 1_565 S
O54 C64 1.264 . S
O55 Mg51 2.072 1_655 S
O55 C65 1.260 . S
Mg56 O57 2.180 . S
Mg56 O58 2.030 1_655 S
Mg56 O59 1.990 1_565 S
Mg56 O60 2.117 . S
O57 Mg51 2.099 1_665 S
O57 Mg56 2.180 . S
O57 C66 1.279 . S
O58 Mg56 2.030 1_455 S
O58 C64 1.248 . S
O59 Mg56 1.990 1_545 S
O59 C65 1.253 . S
O60 Mg56 2.117 . S
O60 C66 1.250 . S
C61 O67 1.248 1_565 S
C61 O68 1.264 . S
C62 O48 1.253 1_655 S
C62 O50 1.260 . S
C63 O52 1.279 . S
C63 O53 1.250 . S
C64 O54 1.264 . S
C64 O58 1.248 . S
C65 O55 1.260 . S
C65 O59 1.253 . S
C66 O57 1.279 . S
C66 O60 1.250 . S
O67 Mg49 2.030 . S
O67 C61 1.248 1_545 S
O68 Mg51 2.079 1_565 S
O68 C61 1.264 . S
O69 Mg70 1.990 . S
O69 C83 1.253 . S
Mg70 O69 1.990 . S
Mg70 O73 2.180 . S
Mg70 O74 2.117 . S
Mg70 O88 2.030 . S
O71 Mg72 2.072 . S
O71 C83 1.260 . S
Mg72 O71 2.072 . S
Mg72 O73 2.099 . S
Mg72 O75 2.079 1_554 S
Mg72 O76 2.072 1_554 S
Mg72 O78 2.099 . S
Mg72 O89 2.079 . S
O73 Mg70 2.180 . S
O73 Mg72 2.099 . S
O73 C84 1.279 . S
O74 Mg70 2.117 . S
O74 C84 1.250 . S
O75 Mg72 2.079 1_556 S
O75 C85 1.264 . S
O76 Mg72 2.072 1_556 S
O76 C86 1.260 . S
Mg77 O78 2.180 1_556 S
Mg77 O79 2.030 . S
Mg77 O80 1.990 . S
Mg77 O81 2.117 . S
O78 Mg72 2.099 . S
O78 Mg77 2.180 1_554 S
O78 C87 1.279 . S
O79 Mg77 2.030 . S
O79 C85 1.248 . S
O80 Mg77 1.990 . S
O80 C86 1.253 . S
O81 Mg77 2.117 . S
O81 C87 1.250 1_556 S
C82 O88 1.248 . S
C82 O89 1.264 . S
C83 O69 1.253 . S
C83 O71 1.260 . S
C84 O73 1.279 . S
C84 O74 1.250 . S
C85 O75 1.264 . S
C85 O79 1.248 . S
C86 O76 1.260 . S
C86 O80 1.253 . S
C87 O78 1.279 . S
C87 O81 1.250 1_554 S
O88 Mg70 2.030 . S
O88 C82 1.248 . S
O89 Mg72 2.079 . S
O89 C82 1.264 . S
C90 C91 1.387 . S
C90 H94 0.950 . S
C90 C99 1.390 . S
C91 C90 1.387 . S
C91 C93 1.387 . S
H92 C99 0.950 . S
C93 C91 1.387 . S
C93 C95 1.390 . S
C93 H97 0.950 . S
H94 C90 0.950 . S
C95 C93 1.390 . S
C95 C96 1.387 . S
C95 H98 0.950 . S
C96 C95 1.387 . S
C96 C99 1.387 . S
H97 C93 0.950 . S
H98 C95 0.950 . S
C99 C90 1.390 . S
C99 H92 0.950 . S
C99 C96 1.387 . S
C100 C101 1.387 . S
C100 H104 0.950 . S
C100 C109 1.390 . S
C101 C100 1.387 . S
C101 C103 1.387 . S
H102 C109 0.950 . S
C103 C101 1.387 . S
C103 C105 1.390 . S
C103 H107 0.950 1_554 S
H104 C100 0.950 . S
C105 C103 1.390 . S
C105 C106 1.387 . S
C105 H108 0.950 1_554 S
C106 C105 1.387 . S
C106 C109 1.387 . S
H107 C103 0.950 1_556 S
H108 C105 0.950 1_556 S
C109 C100 1.390 . S
C109 H102 0.950 . S
C109 C106 1.387 . S
C110 C111 1.387 . S
C110 H114 0.950 . S
C110 C119 1.390 . S
C111 C110 1.387 . S
C111 C113 1.387 . S
H112 C119 0.950 . S
C113 C111 1.387 . S
C113 C115 1.390 . S
C113 H117 0.950 . S
H114 C110 0.950 . S
C115 C113 1.390 . S
C115 C116 1.387 . S
C115 H118 0.950 . S
C116 C115 1.387 . S
C116 C119 1.387 . S
H117 C113 0.950 . S
H118 C115 0.950 . S
C119 C110 1.390 . S
C119 H112 0.950 . S
C119 C116 1.387 . S
C120 C121 1.387 . S
C120 H124 0.950 . S
C120 C129 1.390 . S
C121 C120 1.387 . S
C121 C123 1.387 1_554 S
H122 C129 0.950 . S
C123 C121 1.387 1_556 S
C123 C125 1.390 . S
C123 H127 0.950 . S
H124 C120 0.950 . S
C125 C123 1.390 . S
C125 C126 1.387 1_556 S
C125 H128 0.950 . S
C126 C125 1.387 1_554 S
C126 C129 1.387 . S
H127 C123 0.950 . S
H128 C125 0.950 . S
C129 C120 1.390 . S
C129 H122 0.950 . S
C129 C126 1.387 . S
C130 C131 1.387 . S
C130 H134 0.950 . S
C130 C139 1.390 . S
C131 C130 1.387 . S
C131 C133 1.387 . S
H132 C139 0.950 . S
C133 C131 1.387 . S
C133 C135 1.390 . S
C133 H137 0.950 . S
H134 C130 0.950 . S
C135 C133 1.390 . S
C135 C136 1.387 . S
C135 H138 0.950 . S
C136 C135 1.387 . S
C136 C139 1.387 . S
H137 C133 0.950 . S
H138 C135 0.950 . S
C139 C130 1.390 . S
C139 H132 0.950 . S
C139 C136 1.387 . S
C140 C141 1.387 . S
C140 H144 0.950 . S
C140 C149 1.390 . S
C141 C140 1.387 . S
C141 C143 1.387 . S
H142 C149 0.950 . S
C143 C141 1.387 . S
C143 C145 1.390 . S
C143 H147 0.950 . S
H144 C140 0.950 . S
C145 C143 1.390 . S
C145 C146 1.387 . S
C145 H148 0.950 . S
C146 C145 1.387 . S
C146 C149 1.387 . S
H147 C143 0.950 . S
H148 C145 0.950 . S
C149 C140 1.390 . S
C149 H142 0.950 . S
C149 C146 1.387 . S
C150 C151 1.387 . S
C150 H154 0.950 . S
C150 C159 1.390 . S
C151 C150 1.387 . S
C151 C153 1.387 . S
H152 C159 0.950 . S
C153 C151 1.387 . S
C153 C155 1.390 . S
C153 H157 0.950 . S
H154 C150 0.950 . S
C155 C153 1.390 . S
C155 C156 1.387 . S
C155 H158 0.950 . S
C156 C155 1.387 . S
C156 C159 1.387 . S
H157 C153 0.950 . S
H158 C155 0.950 . S
C159 C150 1.390 . S
C159 H152 0.950 . S
C159 C156 1.387 . S
C160 C161 1.387 . S
C160 H164 0.950 . S
C160 C169 1.390 . S
C161 C160 1.387 . S
C161 C163 1.387 . S
H162 C169 0.950 . S
C163 C161 1.387 . S
C163 C165 1.390 . S
C163 H167 0.950 . S
H164 C160 0.950 . S
C165 C163 1.390 . S
C165 C166 1.387 . S
C165 H168 0.950 . S
C166 C165 1.387 . S
C166 C169 1.387 . S
H167 C163 0.950 . S
H168 C165 0.950 . S
C169 C160 1.390 . S
C169 H162 0.950 . S
C169 C166 1.387 . S
C170 C171 1.387 . S
C170 H174 0.950 . S
C170 C179 1.390 . S
C171 C170 1.387 . S
C171 C173 1.387 . S
H172 C179 0.950 . S
C173 C171 1.387 . S
C173 C175 1.390 . S
C173 H177 0.950 . S
H174 C170 0.950 . S
C175 C173 1.390 . S
C175 C176 1.387 . S
C175 H178 0.950 . S
C176 C175 1.387 . S
C176 C179 1.387 . S
H177 C173 0.950 . S
H178 C175 0.950 . S
C179 C170 1.390 . S
C179 H172 0.950 . S
C179 C176 1.387 . S
C180 C181 1.387 . S
C180 H184 0.950 . S
C180 C189 1.390 . S
C181 C180 1.387 . S
C181 C183 1.387 . S
H182 C189 0.950 . S
C183 C181 1.387 . S
C183 C185 1.390 . S
C183 H187 0.950 . S
H184 C180 0.950 . S
C185 C183 1.390 . S
C185 C186 1.387 . S
C185 H188 0.950 . S
C186 C185 1.387 . S
C186 C189 1.387 . S
H187 C183 0.950 . S
H188 C185 0.950 . S
C189 C180 1.390 . S
C189 H182 0.950 . S
C189 C186 1.387 . S
C190 C191 1.387 . S
C190 H194 0.950 . S
C190 C199 1.390 . S
C191 C190 1.387 . S
C191 C193 1.387 . S
H192 C199 0.950 . S
C193 C191 1.387 . S
C193 C195 1.390 . S
C193 H197 0.950 . S
H194 C190 0.950 . S
C195 C193 1.390 . S
C195 C196 1.387 . S
C195 H198 0.950 . S
C196 C195 1.387 . S
C196 C199 1.387 . S
H197 C193 0.950 . S
H198 C195 0.950 . S
C199 C190 1.390 . S
C199 H192 0.950 . S
C199 C196 1.387 . S
C200 C201 1.387 . S
C200 H204 0.950 . S
C200 C209 1.390 . S
C201 C200 1.387 . S
C201 C203 1.387 . S
H202 C209 0.950 . S
C203 C201 1.387 . S
C203 C205 1.390 . S
C203 H207 0.950 . S
H204 C200 0.950 . S
C205 C203 1.390 . S
C205 C206 1.387 . S
C205 H208 0.950 1_565 S
C206 C205 1.387 . S
C206 C209 1.387 . S
H207 C203 0.950 . S
H208 C205 0.950 1_545 S
C209 C200 1.390 . S
C209 H202 0.950 . S
C209 C206 1.387 . S
C96 C63 1.274 . S
C91 C40 1.458 . S
C101 C4 1.496 . S
C106 C87 1.315 . S
C111 C16 1.563 . S
C116 C66 1.390 . S
C121 C28 1.565 . S
C126 C84 1.366 . S
C136 C64 1.491 . S
C131 C9 1.495 . S
C146 C86 1.519 . S
C141 C18 1.594 . S
C151 C33 1.583 . S
C156 C65 1.539 . S
C161 C45 1.504 . S
C166 C85 1.447 . S
C176 C83 1.479 . S
C171 C21 1.528 . S
C186 C62 1.466 . S
C181 C30 1.536 . S
C196 C82 1.426 . S
C191 C42 1.458 . S
C201 C6 1.462 . S
C206 C61 1.402 . S
