# Generated by pormake.
# Topology tsx, (6,3)-cn, num edge types: 1
# Building blocks:
#     Node 0, Type 0, BuildingBlock: FUNLAD_clean_sbu_0, # of connection points: 6
#     Node 1, Type 0, BuildingBlock: FUNLAD_clean_sbu_0, # of connection points: 6
#     Node 2, Type 1, BuildingBlock: PAMTOO_clean_linker_0, # of connection points: 3
#     Node 3, Type 1, BuildingBlock: PAMTOO_clean_linker_0, # of connection points: 3
#     Node 4, Type 1, BuildingBlock: PAMTOO_clean_linker_0, # of connection points: 3
#     Node 5, Type 1, BuildingBlock: PAMTOO_clean_linker_0, # of connection points: 3
#     Edge 6, Type (0, 1), None
#     Edge 7, Type (0, 1), None
#     Edge 8, Type (0, 1), None
#     Edge 9, Type (0, 1), None
#     Edge 10, Type (0, 1), None
#     Edge 11, Type (0, 1), None
#     Edge 12, Type (0, 1), None
#     Edge 13, Type (0, 1), None
#     Edge 14, Type (0, 1), None
#     Edge 15, Type (0, 1), None
#     Edge 16, Type (0, 1), None
#     Edge 17, Type (0, 1), None
# Relax obj value: 0.140
# Max RMSD: 0.157
# Mean RMSD: 0.140
data_MOF--net-tsx--node1-FUNLAD_clean_sbu_0--node2-PAMTOO_clean_linker_0--edge1-none
_symmetry_space_group_name_H-M    P1
_symmetry_Int_Tables_number       1
_symmetry_cell_setting            triclinic
loop_
_symmetry_equiv_pos_as_xyz
'x, y, z'
_cell_length_a     8.2350854
_cell_length_b     9.8759208
_cell_length_c     19.315783
_cell_angle_alpha  85.333313
_cell_angle_beta   82.364644
_cell_angle_gamma 90.815257
loop_
_atom_site_label
_atom_site_type_symbol
_atom_site_fract_x
_atom_site_fract_y
_atom_site_fract_z
_atom_type_partial_charge
C0 C 0.73162 0.885 0.0549 0.0
N1 N 0.04441 0.0517 0.18885 0.0
C2 C 0.90358 0.06349 0.23309 0.0
C3 C 0.90843 0.07247 0.30437 0.0
C4 C 0.05964 0.06884 0.33061 0.0
C5 C 0.20372 0.06515 0.28312 0.0
C6 C 0.19324 0.05589 0.21204 0.0
Zn7 Zn 0.0324 0.02688 0.08609 0.0
C8 C 0.14396 0.75158 0.05652 0.0
N9 N 0.02403 -0.01408 0.87005 0.0
C10 C 0.90082 0.04591 0.83945 0.0
C11 C 0.16265 0.94762 0.83039 0.0
C12 C 0.18724 -0.01952 0.75771 0.0
C13 C 0.06743 0.05287 0.72572 0.0
C14 C 0.91985 0.07989 0.7673 0.0
Zn15 Zn 0.02161 -0.00225 0.97635 0.0
O16 O 0.81162 0.90413 0.1062 0.0
C17 C 0.83903 0.2291 0.02771 0.0
O18 O 0.79343 0.92344 0.99338 0.0
H19 H 0.2598 0.90068 0.85567 0.0
H20 H 0.78658 0.06108 0.2135 0.0
H21 H 0.79162 0.07577 0.87146 0.0
O22 O 0.87748 0.18734 0.08614 0.0
O23 O 0.91453 0.18839 0.97137 0.0
H24 H 0.30381 0.04755 0.17572 0.0
O25 O 0.2562 0.08385 0.94943 0.0
O26 O 0.25361 0.16543 0.0508 0.0
O27 O 0.10094 0.79127 0.99685 0.0
O28 O 0.16672 0.84182 0.09787 0.0
C29 C 0.317 0.16513 0.9865 0.0
H30 H 0.79323 0.07225 0.33835 0.0
H31 H 0.32304 0.06368 0.30075 0.0
H32 H 0.30279 0.95684 0.72808 0.0
H33 H 0.82207 0.13202 0.74462 0.0
C34 C 0.23172 0.38471 0.55475 0.0
N35 N 0.54468 0.55133 0.68885 0.0
C36 C 0.40382 0.56352 0.73301 0.0
C37 C 0.40858 0.57297 0.80427 0.0
C38 C 0.55974 0.56938 0.83054 0.0
C39 C 0.70386 0.56534 0.78312 0.0
C40 C 0.69347 0.55559 0.71207 0.0
Zn41 Zn 0.53298 0.52637 0.58609 0.0
C42 C 0.64428 0.25104 0.5565 0.0
N43 N 0.52415 0.48547 0.36993 0.0
C44 C 0.40083 0.54518 0.3393 0.0
C45 C 0.66291 0.44731 0.33032 0.0
C46 C 0.68755 0.48015 0.25764 0.0
C47 C 0.56767 0.55235 0.22563 0.0
C48 C 0.41993 0.57913 0.26715 0.0
Zn49 Zn 0.52166 0.49753 0.4762 0.0
O50 O 0.31139 0.40427 0.6061 0.0
C51 C 0.33953 0.72897 0.5277 0.0
O52 O 0.294 0.42251 0.49322 0.0
H53 H 0.76013 0.40059 0.35564 0.0
H54 H 0.28686 0.56114 0.71339 0.0
H55 H 0.29152 0.57491 0.37128 0.0
O56 O 0.37893 0.68754 0.58602 0.0
O57 O 0.41385 0.6877 0.47129 0.0
H58 H 0.80408 0.54696 0.67582 0.0
O59 O 0.75538 0.58484 0.44911 0.0
O60 O 0.7552 0.66386 0.55099 0.0
O61 O 0.60195 0.29107 0.49674 0.0
O62 O 0.66635 0.34101 0.59808 0.0
C63 C 0.81641 0.66573 0.4863 0.0
H64 H 0.29337 0.57304 0.83823 0.0
H65 H 0.82315 0.56393 0.80078 0.0
H66 H 0.80321 0.45668 0.22803 0.0
H67 H 0.3221 0.63113 0.24444 0.0
H68 H 0.33818 0.91004 0.39689 0.0
H69 H 0.77297 0.12143 0.45055 0.0
H70 H 0.98354 0.77928 0.64135 0.0
H71 H 0.5059 0.10849 0.63367 0.0
C72 C 0.60031 0.10357 0.5873 0.0
O73 O 0.72901 0.02716 0.60848 0.0
H74 H 0.53914 0.04873 0.54929 0.0
C75 C 0.23191 0.92602 0.43433 0.0
C76 C 0.20557 0.82002 0.5227 0.0
C77 C 0.06302 0.03848 0.40652 0.0
C78 C 0.86655 0.06003 0.46937 0.0
C79 C 0.83264 0.96463 0.56162 0.0
C80 C 0.99782 0.83269 0.58964 0.0
H81 H 0.00887 0.30497 0.66988 0.0
H82 H 0.24476 0.95201 0.61549 0.0
H83 H 0.13038 0.23537 0.45696 0.0
H84 H 0.06637 0.69474 0.43966 0.0
C85 C 0.95737 0.75888 0.44888 0.0
O86 O 0.98975 0.87825 0.4834 0.0
H87 H 0.92601 0.79194 0.39603 0.0
C88 C 0.04388 0.2346 0.63053 0.0
C89 C 0.09954 0.28273 0.56226 0.0
C90 C 0.09411 0.10618 0.65045 0.0
C91 C 0.17284 0.03399 0.59606 0.0
C92 C 0.10167 0.03746 0.52731 0.0
C93 C 0.11017 0.18763 0.50991 0.0
H94 H 0.83775 0.40994 0.89676 0.0
H95 H 0.27331 0.6227 0.95053 0.0
H96 H 0.48298 0.27961 0.14123 0.0
H97 H 1.00612 0.60927 0.13398 0.0
C98 C 0.10019 0.60423 0.08751 0.0
O99 O 0.22914 0.52799 0.10853 0.0
H100 H 0.03874 0.5492 0.04965 0.0
C101 C 0.73152 0.42603 0.93419 0.0
C102 C 0.70483 0.31984 1.0225 0.0
C103 C 0.56303 0.53907 0.90644 0.0
C104 C 0.36666 0.56101 0.96935 0.0
C105 C 0.33252 0.46544 0.06159 0.0
C106 C 0.49727 0.33296 0.08951 0.0
H107 H 0.50923 0.8046 0.17002 0.0
H108 H 0.74484 0.45162 0.1153 0.0
H109 H 0.63135 0.73561 0.957 0.0
H110 H 0.56456 0.19735 0.93751 0.0
C111 C 0.45524 0.26049 0.94848 0.0
O112 O 0.48927 0.37894 0.9833 0.0
H113 H 0.42224 0.2933 0.89587 0.0
C114 C 0.54426 0.73437 0.1306 0.0
C115 C 0.59983 0.78272 0.06236 0.0
C116 C 0.59449 0.60589 0.1504 0.0
C117 C 0.67311 0.53381 0.09594 0.0
C118 C 0.60179 0.53763 0.02724 0.0
C119 C 0.61067 0.6878 1.00994 0.0
loop_
_geom_bond_atom_site_label_1
_geom_bond_atom_site_label_2
_geom_bond_distance
_geom_bond_site_symmetry_2
_ccdc_geom_bond_type
C0 O16 1.251 . S
C0 O18 1.254 1_554 S
N1 C2 1.333 1_445 S
N1 C6 1.307 . S
N1 Zn7 2.020 . S
C2 N1 1.333 1_665 S
C2 C3 1.379 . S
C2 H20 0.952 . S
C3 C2 1.379 . S
C3 C4 1.390 1_655 S
C3 H30 0.949 . S
C4 C3 1.390 1_455 S
C4 C5 1.357 1_565 S
C5 C4 1.357 1_545 S
C5 C6 1.370 . S
C5 H31 0.950 . S
C6 N1 1.307 . S
C6 C5 1.370 . S
C6 H24 0.948 . S
Zn7 N1 2.020 . S
Zn7 O16 2.039 1_445 S
Zn7 O22 2.034 1_455 S
Zn7 O26 2.025 . S
Zn7 O28 2.024 1_545 S
C8 O27 1.246 1_554 S
C8 O28 1.249 . S
N9 C10 1.307 1_455 S
N9 C11 1.333 . S
N9 Zn15 2.020 . S
C10 N9 1.307 1_655 S
C10 C14 1.370 . S
C10 H21 0.948 . S
C11 N9 1.333 . S
C11 C12 1.379 . S
C11 H19 0.952 . S
C12 C11 1.379 . S
C12 C13 1.390 . S
C12 H32 0.949 . S
C13 C12 1.390 . S
C13 C14 1.357 1_455 S
C14 C10 1.370 . S
C14 C13 1.357 1_655 S
C14 H33 0.950 . S
Zn15 N9 2.020 . S
Zn15 O18 2.025 1_445 S
Zn15 O23 2.024 1_455 S
Zn15 O25 2.039 . S
Zn15 O27 2.034 1_545 S
O16 C0 1.251 . S
O16 Zn7 2.039 1_665 S
C17 O22 1.246 1_556 S
C17 O23 1.249 . S
O18 C0 1.254 1_556 S
O18 Zn15 2.025 1_665 S
H19 C11 0.952 . S
H20 C2 0.952 . S
H21 C10 0.948 . S
O22 Zn7 2.034 1_655 S
O22 C17 1.246 1_554 S
O23 Zn15 2.024 1_655 S
O23 C17 1.249 . S
H24 C6 0.948 . S
O25 Zn15 2.039 . S
O25 C29 1.249 1_556 S
O26 Zn7 2.025 . S
O26 C29 1.256 . S
O27 C8 1.246 1_556 S
O27 Zn15 2.034 1_565 S
O28 Zn7 2.024 1_565 S
O28 C8 1.249 . S
C29 O25 1.249 1_554 S
C29 O26 1.256 . S
H30 C3 0.949 . S
H31 C5 0.950 . S
H32 C12 0.949 . S
H33 C14 0.950 . S
C34 O50 1.251 . S
C34 O52 1.254 . S
N35 C36 1.333 . S
N35 C40 1.307 . S
N35 Zn41 2.020 . S
C36 N35 1.333 . S
C36 C37 1.379 . S
C36 H54 0.952 . S
C37 C36 1.379 . S
C37 C38 1.390 . S
C37 H64 0.949 . S
C38 C37 1.390 . S
C38 C39 1.357 . S
C39 C38 1.357 . S
C39 C40 1.370 . S
C39 H65 0.950 . S
C40 N35 1.307 . S
C40 C39 1.370 . S
C40 H58 0.948 . S
Zn41 N35 2.020 . S
Zn41 O50 2.039 . S
Zn41 O56 2.034 . S
Zn41 O60 2.025 . S
Zn41 O62 2.024 . S
C42 O61 1.246 . S
C42 O62 1.249 . S
N43 C44 1.307 . S
N43 C45 1.333 . S
N43 Zn49 2.020 . S
C44 N43 1.307 . S
C44 C48 1.370 . S
C44 H55 0.948 . S
C45 N43 1.333 . S
C45 C46 1.379 . S
C45 H53 0.952 . S
C46 C45 1.379 . S
C46 C47 1.390 . S
C46 H66 0.949 . S
C47 C46 1.390 . S
C47 C48 1.357 . S
C48 C44 1.370 . S
C48 C47 1.357 . S
C48 H67 0.950 . S
Zn49 N43 2.020 . S
Zn49 O52 2.025 . S
Zn49 O57 2.024 . S
Zn49 O59 2.039 . S
Zn49 O61 2.034 . S
O50 C34 1.251 . S
O50 Zn41 2.039 . S
C51 O56 1.246 . S
C51 O57 1.249 . S
O52 C34 1.254 . S
O52 Zn49 2.025 . S
H53 C45 0.952 . S
H54 C36 0.952 . S
H55 C44 0.948 . S
O56 Zn41 2.034 . S
O56 C51 1.246 . S
O57 Zn49 2.024 . S
O57 C51 1.249 . S
H58 C40 0.948 . S
O59 Zn49 2.039 . S
O59 C63 1.251 . S
O60 Zn41 2.025 . S
O60 C63 1.254 . S
O61 C42 1.246 . S
O61 Zn49 2.034 . S
O62 Zn41 2.024 . S
O62 C42 1.249 . S
C63 O59 1.251 . S
C63 O60 1.254 . S
H64 C37 0.949 . S
H65 C39 0.950 . S
H66 C46 0.949 . S
H67 C48 0.950 . S
H68 C75 0.929 . S
H69 C78 0.930 . S
H70 C80 0.929 . S
H71 C72 0.969 . S
C72 H71 0.969 . S
C72 O73 1.550 . S
C72 H74 0.973 . S
O73 C72 1.550 . S
O73 C79 1.412 . S
H74 C72 0.973 . S
C75 H68 0.929 . S
C75 C76 1.400 . S
C75 C77 1.364 . S
C76 C75 1.400 . S
C76 C80 1.377 . S
C77 C75 1.364 . S
C77 C78 1.374 1_465 S
C78 H69 0.930 . S
C78 C77 1.374 1_645 S
C78 C79 1.383 . S
C79 O73 1.412 . S
C79 C78 1.383 . S
C79 C80 1.394 1_645 S
C80 H70 0.929 . S
C80 C76 1.377 . S
C80 C79 1.394 1_465 S
H81 C88 0.929 . S
H82 C91 0.930 1_565 S
H83 C93 0.929 . S
H84 C85 0.969 . S
C85 H84 0.969 . S
C85 O86 1.550 . S
C85 H87 0.973 . S
O86 C85 1.550 . S
O86 C92 1.412 1_565 S
H87 C85 0.973 . S
C88 H81 0.929 . S
C88 C89 1.400 . S
C88 C90 1.364 . S
C89 C88 1.400 . S
C89 C93 1.377 . S
C90 C88 1.364 . S
C90 C91 1.374 1_455 S
C91 H82 0.930 1_545 S
C91 C90 1.374 1_655 S
C91 C92 1.383 . S
C92 O86 1.412 1_545 S
C92 C91 1.383 . S
C92 C93 1.394 1_655 S
C93 H83 0.929 . S
C93 C89 1.377 . S
C93 C92 1.394 1_455 S
H94 C101 0.929 . S
H95 C104 0.930 . S
H96 C106 0.929 . S
H97 C98 0.969 . S
C98 H97 0.969 . S
C98 O99 1.550 . S
C98 H100 0.973 1_554 S
O99 C98 1.550 . S
O99 C105 1.412 . S
H100 C98 0.973 1_556 S
C101 H94 0.929 . S
C101 C102 1.400 . S
C101 C103 1.364 . S
C102 C101 1.400 . S
C102 C106 1.377 1_556 S
C103 C101 1.364 . S
C103 C104 1.374 . S
C104 H95 0.930 . S
C104 C103 1.374 . S
C104 C105 1.383 1_556 S
C105 O99 1.412 . S
C105 C104 1.383 1_554 S
C105 C106 1.394 . S
C106 H96 0.929 . S
C106 C102 1.377 1_554 S
C106 C105 1.394 . S
H107 C114 0.929 . S
H108 C117 0.930 . S
H109 C119 0.929 . S
H110 C111 0.969 . S
C111 H110 0.969 . S
C111 O112 1.550 . S
C111 H113 0.973 1_556 S
O112 C111 1.550 . S
O112 C118 1.412 1_556 S
H113 C111 0.973 1_554 S
C114 H107 0.929 . S
C114 C115 1.400 . S
C114 C116 1.364 . S
C115 C114 1.400 . S
C115 C119 1.377 1_554 S
C116 C114 1.364 . S
C116 C117 1.374 . S
C117 H108 0.930 . S
C117 C116 1.374 . S
C117 C118 1.383 . S
C118 O112 1.412 1_554 S
C118 C117 1.383 . S
C118 C119 1.394 1_554 S
C119 H109 0.929 . S
C119 C115 1.377 1_556 S
C119 C118 1.394 1_556 S
C111 C29 1.371 1_556 S
C8 C98 1.459 . S
C0 C115 1.542 . S
C17 C102 1.541 . S
C63 C85 1.371 . S
C42 C72 1.459 . S
C89 C34 1.542 . S
C76 C51 1.540 . S
C4 C77 1.535 . S
C13 C90 1.564 . S
C103 C38 1.535 . S
C47 C116 1.564 . S
