# Generated by pormake.
# Topology tsx, (6,3)-cn, num edge types: 1
# Building blocks:
#     Node 0, Type 0, BuildingBlock: VOLQOD_clean_sbu_1, # of connection points: 6
#     Node 1, Type 0, BuildingBlock: VOLQOD_clean_sbu_1, # of connection points: 6
#     Node 2, Type 1, BuildingBlock: INOVEN_clean_linker_0, # of connection points: 3
#     Node 3, Type 1, BuildingBlock: INOVEN_clean_linker_0, # of connection points: 3
#     Node 4, Type 1, BuildingBlock: INOVEN_clean_linker_0, # of connection points: 3
#     Node 5, Type 1, BuildingBlock: INOVEN_clean_linker_0, # of connection points: 3
#     Edge 6, Type (0, 1), BuildingBlock: OJICUG_clean_linker_0, # of connection points: 2
#     Edge 7, Type (0, 1), BuildingBlock: OJICUG_clean_linker_0, # of connection points: 2
#     Edge 8, Type (0, 1), BuildingBlock: OJICUG_clean_linker_0, # of connection points: 2
#     Edge 9, Type (0, 1), BuildingBlock: OJICUG_clean_linker_0, # of connection points: 2
#     Edge 10, Type (0, 1), BuildingBlock: OJICUG_clean_linker_0, # of connection points: 2
#     Edge 11, Type (0, 1), BuildingBlock: OJICUG_clean_linker_0, # of connection points: 2
#     Edge 12, Type (0, 1), BuildingBlock: OJICUG_clean_linker_0, # of connection points: 2
#     Edge 13, Type (0, 1), BuildingBlock: OJICUG_clean_linker_0, # of connection points: 2
#     Edge 14, Type (0, 1), BuildingBlock: OJICUG_clean_linker_0, # of connection points: 2
#     Edge 15, Type (0, 1), BuildingBlock: OJICUG_clean_linker_0, # of connection points: 2
#     Edge 16, Type (0, 1), BuildingBlock: OJICUG_clean_linker_0, # of connection points: 2
#     Edge 17, Type (0, 1), BuildingBlock: OJICUG_clean_linker_0, # of connection points: 2
# Relax obj value: 0.050
# Max RMSD: 0.103
# Mean RMSD: 0.094
data_MOF--net-tsx--node1-VOLQOD_clean_sbu_1--node2-INOVEN_clean_linker_0--edge1-OJICUG_clean_linker_0
_symmetry_space_group_name_H-M    P1
_symmetry_Int_Tables_number       1
_symmetry_cell_setting            triclinic
loop_
_symmetry_equiv_pos_as_xyz
'x, y, z'
_cell_length_a     15.548717
_cell_length_b     16.430188
_cell_length_c     27.8641
_cell_angle_alpha  90.422211
_cell_angle_beta   96.986516
_cell_angle_gamma 90.198643
loop_
_atom_site_label
_atom_site_type_symbol
_atom_site_fract_x
_atom_site_fract_y
_atom_site_fract_z
_atom_type_partial_charge
O0 O 0.08145 0.95491 0.10799 0.0
Zn1 Zn 0.10668 0.96669 0.03919 0.0
O2 O 0.00163 0.97793 -0.00478 0.0
Zn3 Zn 0.97964 0.87628 0.95811 0.0
Zn4 Zn 0.90903 0.005 0.03348 0.0
Zn5 Zn 0.01409 0.06782 0.95217 0.0
O6 O 0.96916 0.90062 0.88595 0.0
O7 O 0.01586 0.02872 0.88474 0.0
O8 O 0.1763 0.87244 0.02038 0.0
O9 O 0.08369 0.80008 0.9699 0.0
O10 O 0.86928 0.82156 0.97582 0.0
O11 O 0.82358 0.91373 0.02583 0.0
O12 O 0.84429 0.10761 0.01211 0.0
O13 O 0.18022 0.06633 0.03698 0.0
O14 O 0.91184 0.14108 0.9493 0.0
O15 O 0.11943 0.13586 0.97388 0.0
C16 C 0.01938 0.98391 0.12858 0.0
C17 C 0.99109 0.96286 0.86297 0.0
C18 C 0.81415 0.846 0.00322 0.0
C19 C 0.15856 0.81004 -0.00633 0.0
C20 C 0.85211 0.15246 0.9759 0.0
C21 C 0.17881 0.12753 0.00915 0.0
O22 O 0.95207 0.0134 0.10442 0.0
O23 O 0.58939 0.4783 0.60354 0.0
Zn24 Zn 0.60969 0.4836 0.53382 0.0
O25 O 0.50079 0.50583 0.49387 0.0
Zn26 Zn 0.46536 0.40901 0.45569 0.0
Zn27 Zn 0.41171 0.5345 0.5348 0.0
Zn28 Zn 0.51783 0.59659 0.45155 0.0
O29 O 0.44691 0.43649 0.3849 0.0
O30 O 0.5033 0.56083 0.38195 0.0
O31 O 0.66568 0.37939 0.51397 0.0
O32 O 0.56158 0.32671 0.4613 0.0
O33 O 0.35841 0.35607 0.47745 0.0
O34 O 0.32262 0.44398 0.53256 0.0
O35 O 0.35108 0.64033 0.51438 0.0
O36 O 0.69403 0.57576 0.52924 0.0
O37 O 0.42863 0.68174 0.45733 0.0
O38 O 0.63276 0.65251 0.46953 0.0
C39 C 0.53232 0.51148 0.62637 0.0
C40 C 0.47004 0.49698 0.36098 0.0
C41 C 0.30943 0.37746 0.50884 0.0
C42 C 0.63721 0.32299 0.48457 0.0
C43 C 0.36727 0.69243 0.48297 0.0
C44 C 0.69525 0.63784 0.50219 0.0
O45 O 0.46422 0.54365 0.60451 0.0
H46 H 0.08063 0.98909 0.47859 0.0
H47 H 0.16514 0.91055 0.34517 0.0
H48 H 0.93671 0.05786 0.34359 0.0
N49 N 0.94442 0.07471 0.43968 0.0
N50 N 0.86974 0.09022 0.4203 0.0
C51 C 0.07151 0.98767 0.43956 0.0
C52 C 0.12884 0.94279 0.41474 0.0
C53 C 0.00219 0.02944 0.41409 0.0
C54 C 0.99126 0.02687 0.36318 0.0
C55 C 0.05023 0.98499 0.33763 0.0
C56 C 0.11913 0.94359 0.36402 0.0
H57 H 0.95838 0.95587 0.51354 0.0
H58 H 0.89951 0.84816 0.64558 0.0
H59 H 0.05157 0.06746 0.65028 0.0
N60 N 0.05104 0.08105 0.55421 0.0
N61 N 0.07561 0.14625 0.57485 0.0
C62 C 0.96389 0.95646 0.55258 0.0
C63 C 0.92651 0.89306 0.57663 0.0
C64 C 0.00871 0.02 0.57889 0.0
C65 C 0.01486 0.01998 0.62975 0.0
C66 C 0.97626 0.95782 0.65429 0.0
C67 C 0.93207 0.89497 0.62726 0.0
H68 H 0.54974 0.4262 0.96869 0.0
H69 H 0.6749 0.40844 0.83993 0.0
H70 H 0.45496 0.56505 0.84394 0.0
N71 N 0.43816 0.54196 0.93606 0.0
N72 N 0.4313 0.6175 0.9357 0.0
C73 C 0.55521 0.44421 0.93197 0.0
C74 C 0.6172 0.40748 0.90626 0.0
C75 C 0.49995 0.50409 0.91004 0.0
C76 C 0.50282 0.52361 0.86127 0.0
C77 C 0.56317 0.4862 0.83468 0.0
C78 C 0.62367 0.43278 0.8588 0.0
H79 H 0.43719 0.44368 0.0131 0.0
H80 H 0.35939 0.36759 0.14823 0.0
H81 H 0.52674 0.57539 0.14361 0.0
N82 N 0.53428 0.56925 0.04802 0.0
N83 N 0.55413 0.63915 0.06322 0.0
C84 C 0.43867 0.45221 0.05164 0.0
C85 C 0.39482 0.3972 0.07826 0.0
C86 C 0.48529 0.51728 0.07488 0.0
C87 C 0.48758 0.52721 0.12531 0.0
C88 C 0.44343 0.47274 0.15239 0.0
C89 C 0.39602 0.40881 0.1282 0.0
C90 C 0.30943 0.18346 0.05943 0.0
C91 C 0.24295 0.19337 0.02106 0.0
H92 H 0.41037 0.24047 0.10703 0.0
C93 C 0.234 0.26897 -0.00245 0.0
H94 H 0.31904 0.12582 0.0779 0.0
C95 C 0.28674 0.33485 0.01438 0.0
C96 C 0.34873 0.32591 0.05498 0.0
H97 H 0.1837 0.27839 0.96767 0.0
H98 H 0.27592 0.39363 -0.00262 0.0
C99 C 0.36167 0.24907 0.07622 0.0
C100 C 0.21405 0.67378 0.96936 0.0
C101 C 0.23005 0.75447 0.98527 0.0
H102 H 0.26767 0.56462 0.94228 0.0
C103 C 0.31529 0.78502 -0.01096 0.0
H104 H 0.14907 0.6487 0.96611 0.0
C105 C 0.3819 0.73793 0.97429 0.0
C106 C 0.36558 0.6586 0.95715 0.0
H107 H 0.32979 0.84708 0.00083 0.0
H108 H 0.44604 0.76419 0.97493 0.0
C109 C 0.28174 0.62566 0.95602 0.0
C110 C 0.68016 0.82305 0.04231 0.0
C111 C 0.73971 0.79381 0.01212 0.0
H112 H 0.57419 0.79492 0.08183 0.0
C113 C 0.73008 0.7136 -0.00596 0.0
H114 H 0.68456 0.88463 0.05657 0.0
C115 C 0.66531 0.66256 0.00829 0.0
C116 C 0.60987 0.69133 0.04096 0.0
H117 H 0.77447 0.68933 0.97053 0.0
H118 H 0.66141 0.59997 -0.00427 0.0
C119 C 0.61653 0.77212 0.05671 0.0
C120 C 0.76352 0.27442 -0.00714 0.0
C121 C 0.78649 0.21407 0.9609 0.0
H122 H 0.69341 0.38527 0.00043 0.0
C123 C 0.74925 0.21437 0.91263 0.0
H124 H 0.79181 0.27489 0.03036 0.0
C125 C 0.69162 0.27514 0.89594 0.0
C126 C 0.67214 0.33908 0.92669 0.0
H127 H 0.76502 0.16743 0.88763 0.0
H128 H 0.6632 0.27236 0.85849 0.0
C129 C 0.70718 0.33718 0.97574 0.0
C130 C 0.83542 0.68275 0.54845 0.0
C131 C 0.76507 0.69918 0.51331 0.0
H132 H 0.9429 0.7313 0.5952 0.0
C133 C 0.75683 0.7779 0.4936 0.0
H134 H 0.84457 0.62263 0.5639 0.0
C135 C 0.81332 0.84042 0.51178 0.0
C136 C 0.87882 0.82513 0.5499 0.0
H137 H 0.70362 0.79255 0.46628 0.0
H138 H 0.80211 0.90162 0.49828 0.0
C139 C 0.89169 0.74502 0.56648 0.0
C140 C 0.66793 0.20042 0.43575 0.0
C141 C 0.69529 0.25564 0.4734 0.0
H142 H 0.70403 0.10457 0.38969 0.0
C143 C 0.78053 0.24961 0.49696 0.0
H144 H 0.60292 0.20287 0.41678 0.0
C145 C 0.83808 0.1922 0.48152 0.0
C146 C 0.81115 0.14042 0.44208 0.0
H147 H 0.80369 0.29099 0.52616 0.0
H148 H 0.90423 0.19083 0.49894 0.0
C149 C 0.72551 0.14398 0.42017 0.0
C150 C 0.22322 0.24681 0.49621 0.0
C151 C 0.24055 0.32101 0.5213 0.0
H152 H 0.15587 0.13215 0.49313 0.0
C153 C 0.19594 0.33817 0.5612 0.0
H154 H 0.25618 0.23157 0.46529 0.0
C155 C 0.13916 0.28108 0.57711 0.0
C156 C 0.12459 0.20611 0.55337 0.0
H157 H 0.20732 0.39449 0.58146 0.0
H158 H 0.10838 0.29436 0.60911 0.0
C159 C 0.16552 0.18986 0.512 0.0
C160 C 0.3367 0.82657 0.44324 0.0
C161 C 0.31137 0.76468 0.47326 0.0
H162 H 0.29925 0.93294 0.40223 0.0
C163 C 0.22986 0.76976 0.49009 0.0
H164 H 0.39967 0.82553 0.43035 0.0
C165 C 0.17225 0.8319 0.47392 0.0
C166 C 0.19544 0.88967 0.44073 0.0
H167 H 0.20869 0.72337 0.51351 0.0
H168 H 0.10769 0.83154 0.48483 0.0
C169 C 0.27938 0.88834 0.42718 0.0
C170 C 0.9972 0.05079 0.20665 0.0
C171 C 0.02566 0.98365 0.18164 0.0
H172 H 0.98635 0.10586 0.27522 0.0
C173 C 0.06045 0.91636 0.20766 0.0
H174 H 0.97067 0.10366 0.18718 0.0
C175 C 0.06614 0.91586 0.25804 0.0
C176 C 0.04005 0.98398 0.28365 0.0
H177 H 0.08175 0.86343 0.18897 0.0
H178 H 0.09052 0.86156 0.27668 0.0
C179 C 0.00555 0.05154 0.25714 0.0
C180 C 0.97985 0.03337 0.78352 0.0
C181 C 0.98666 0.96042 0.80974 0.0
H182 H 0.96871 0.0897 0.71426 0.0
C183 C 0.99046 0.88642 0.78469 0.0
H184 H 0.97594 0.09144 0.80179 0.0
C185 C 0.98849 0.88555 0.73437 0.0
C186 C 0.98101 0.95861 0.70799 0.0
H187 H 0.99653 0.82935 0.80401 0.0
H188 H 0.99376 0.82757 0.71627 0.0
C189 C 0.97637 0.03245 0.73327 0.0
C190 C 0.5759 0.4371 0.70234 0.0
C191 C 0.54296 0.50784 0.67944 0.0
H192 H 0.60333 0.37292 0.76813 0.0
C193 C 0.51835 0.5731 0.70748 0.0
H194 H 0.59398 0.38546 0.68137 0.0
C195 C 0.52736 0.56772 0.75797 0.0
C196 C 0.55871 0.49592 0.78118 0.0
H197 H 0.49307 0.62852 0.69037 0.0
H198 H 0.50965 0.61979 0.77859 0.0
C199 C 0.58216 0.43057 0.7524 0.0
C200 C 0.45873 0.56218 0.27946 0.0
C201 C 0.46125 0.49155 0.30773 0.0
H202 H 0.44847 0.61194 0.20824 0.0
C203 C 0.45779 0.41516 0.28474 0.0
H204 H 0.46097 0.62194 0.29627 0.0
C205 C 0.4529 0.40936 0.23456 0.0
C206 C 0.44942 0.47985 0.20597 0.0
H207 H 0.46091 0.35964 0.30561 0.0
H208 H 0.45327 0.34932 0.21832 0.0
C209 C 0.45217 0.55641 0.22906 0.0
loop_
_geom_bond_atom_site_label_1
_geom_bond_atom_site_label_2
_geom_bond_distance
_geom_bond_site_symmetry_2
_ccdc_geom_bond_type
O0 Zn1 1.953 . S
O0 C16 1.225 1_565 S
Zn1 O0 1.953 . S
Zn1 O2 1.949 1_565 S
Zn1 O8 1.919 . S
Zn1 O13 1.924 1_565 S
O2 Zn1 1.949 1_545 S
O2 Zn3 1.923 1_444 S
O2 Zn4 1.950 1_455 S
O2 Zn5 1.945 1_554 S
Zn3 O2 1.923 1_666 S
Zn3 O6 1.933 . S
Zn3 O9 1.941 1_655 S
Zn3 O10 1.965 . S
Zn4 O2 1.950 1_655 S
Zn4 O11 1.938 1_545 S
Zn4 O12 1.906 . S
Zn4 O22 1.953 . S
Zn5 O2 1.945 1_556 S
Zn5 O7 1.932 . S
Zn5 O14 1.977 1_455 S
Zn5 O15 1.910 . S
O6 Zn3 1.933 . S
O6 C17 1.226 1_565 S
O7 Zn5 1.932 . S
O7 C17 1.307 1_455 S
O8 Zn1 1.919 . S
O8 C19 1.253 1_554 S
O9 Zn3 1.941 1_455 S
O9 C19 1.283 . S
O10 Zn3 1.965 . S
O10 C18 1.303 1_556 S
O11 Zn4 1.938 1_565 S
O11 C18 1.247 . S
O12 Zn4 1.906 . S
O12 C20 1.304 1_554 S
O13 Zn1 1.924 1_545 S
O13 C21 1.311 . S
O14 Zn5 1.977 1_655 S
O14 C20 1.272 . S
O15 Zn5 1.910 . S
O15 C21 1.231 1_556 S
C16 O0 1.225 1_545 S
C16 O22 1.298 1_455 S
C17 O6 1.226 1_545 S
C17 O7 1.307 1_655 S
C18 O10 1.303 1_554 S
C18 O11 1.247 . S
C19 O8 1.253 1_556 S
C19 O9 1.283 . S
C20 O12 1.304 1_556 S
C20 O14 1.272 . S
C21 O13 1.311 . S
C21 O15 1.231 1_554 S
O22 Zn4 1.953 . S
O22 C16 1.298 1_655 S
O23 Zn24 1.953 . S
O23 C39 1.225 . S
Zn24 O23 1.953 . S
Zn24 O25 1.949 . S
Zn24 O31 1.919 . S
Zn24 O36 1.924 . S
O25 Zn24 1.949 . S
O25 Zn26 1.923 . S
O25 Zn27 1.950 . S
O25 Zn28 1.945 . S
Zn26 O25 1.923 . S
Zn26 O29 1.933 . S
Zn26 O32 1.941 . S
Zn26 O33 1.965 . S
Zn27 O25 1.950 . S
Zn27 O34 1.938 . S
Zn27 O35 1.906 . S
Zn27 O45 1.953 . S
Zn28 O25 1.945 . S
Zn28 O30 1.932 . S
Zn28 O37 1.977 . S
Zn28 O38 1.910 . S
O29 Zn26 1.933 . S
O29 C40 1.226 . S
O30 Zn28 1.932 . S
O30 C40 1.307 . S
O31 Zn24 1.919 . S
O31 C42 1.253 . S
O32 Zn26 1.941 . S
O32 C42 1.283 . S
O33 Zn26 1.965 . S
O33 C41 1.303 . S
O34 Zn27 1.938 . S
O34 C41 1.247 . S
O35 Zn27 1.906 . S
O35 C43 1.304 . S
O36 Zn24 1.924 . S
O36 C44 1.311 . S
O37 Zn28 1.977 . S
O37 C43 1.272 . S
O38 Zn28 1.910 . S
O38 C44 1.231 . S
C39 O23 1.225 . S
C39 O45 1.298 . S
C40 O29 1.226 . S
C40 O30 1.307 . S
C41 O33 1.303 . S
C41 O34 1.247 . S
C42 O31 1.253 . S
C42 O32 1.283 . S
C43 O35 1.304 . S
C43 O37 1.272 . S
C44 O36 1.311 . S
C44 O38 1.231 . S
O45 Zn27 1.953 . S
O45 C39 1.298 . S
H46 C51 0.929 . S
H47 C56 0.931 . S
H48 C54 0.930 . S
N49 N50 1.234 . S
N49 C53 1.453 . S
N50 N49 1.234 . S
C51 H46 0.929 . S
C51 C52 1.373 . S
C51 C53 1.368 1_465 S
C52 C51 1.373 . S
C52 C56 1.397 . S
C53 N49 1.453 . S
C53 C51 1.368 1_645 S
C53 C54 1.373 . S
C54 H48 0.930 . S
C54 C53 1.373 . S
C54 C55 1.371 1_645 S
C55 C54 1.371 1_465 S
C55 C56 1.383 . S
C56 H47 0.931 . S
C56 C52 1.397 . S
C56 C55 1.383 . S
H57 C62 0.929 . S
H58 C67 0.931 . S
H59 C65 0.930 . S
N60 N61 1.234 . S
N60 C64 1.453 . S
N61 N60 1.234 . S
C62 H57 0.929 . S
C62 C63 1.373 . S
C62 C64 1.368 1_665 S
C63 C62 1.373 . S
C63 C67 1.397 . S
C64 N60 1.453 . S
C64 C62 1.368 1_445 S
C64 C65 1.373 . S
C65 H59 0.930 . S
C65 C64 1.373 . S
C65 C66 1.371 1_445 S
C66 C65 1.371 1_665 S
C66 C67 1.383 . S
C67 H58 0.931 . S
C67 C63 1.397 . S
C67 C66 1.383 . S
H68 C73 0.929 . S
H69 C78 0.931 . S
H70 C76 0.930 . S
N71 N72 1.234 . S
N71 C75 1.453 . S
N72 N71 1.234 . S
C73 H68 0.929 . S
C73 C74 1.373 . S
C73 C75 1.368 . S
C74 C73 1.373 . S
C74 C78 1.397 . S
C75 N71 1.453 . S
C75 C73 1.368 . S
C75 C76 1.373 . S
C76 H70 0.930 . S
C76 C75 1.373 . S
C76 C77 1.371 . S
C77 C76 1.371 . S
C77 C78 1.383 . S
C78 H69 0.931 . S
C78 C74 1.397 . S
C78 C77 1.383 . S
H79 C84 0.929 . S
H80 C89 0.931 . S
H81 C87 0.930 . S
N82 N83 1.234 . S
N82 C86 1.453 . S
N83 N82 1.234 . S
C84 H79 0.929 . S
C84 C85 1.373 . S
C84 C86 1.368 . S
C85 C84 1.373 . S
C85 C89 1.397 . S
C86 N82 1.453 . S
C86 C84 1.368 . S
C86 C87 1.373 . S
C87 H81 0.930 . S
C87 C86 1.373 . S
C87 C88 1.371 . S
C88 C87 1.371 . S
C88 C89 1.383 . S
C89 H80 0.931 . S
C89 C85 1.397 . S
C89 C88 1.383 . S
C90 C91 1.387 . S
C90 H94 0.950 . S
C90 C99 1.390 . S
C91 C90 1.387 . S
C91 C93 1.387 . S
H92 C99 0.950 . S
C93 C91 1.387 . S
C93 C95 1.390 . S
C93 H97 0.950 . S
H94 C90 0.950 . S
C95 C93 1.390 . S
C95 C96 1.387 . S
C95 H98 0.950 . S
C96 C95 1.387 . S
C96 C99 1.387 . S
H97 C93 0.950 . S
H98 C95 0.950 . S
C99 C90 1.390 . S
C99 H92 0.950 . S
C99 C96 1.387 . S
C100 C101 1.387 . S
C100 H104 0.950 1_556 S
C100 C109 1.390 . S
C101 C100 1.387 . S
C101 C103 1.387 . S
H102 C109 0.950 . S
C103 C101 1.387 . S
C103 C105 1.390 . S
C103 H107 0.950 . S
H104 C100 0.950 1_554 S
C105 C103 1.390 . S
C105 C106 1.387 . S
C105 H108 0.950 . S
C106 C105 1.387 . S
C106 C109 1.387 . S
H107 C103 0.950 . S
H108 C105 0.950 . S
C109 C100 1.390 . S
C109 H102 0.950 . S
C109 C106 1.387 . S
C110 C111 1.387 . S
C110 H114 0.950 . S
C110 C119 1.390 . S
C111 C110 1.387 . S
C111 C113 1.387 1_554 S
H112 C119 0.950 . S
C113 C111 1.387 1_556 S
C113 C115 1.390 1_556 S
C113 H117 0.950 . S
H114 C110 0.950 . S
C115 C113 1.390 1_554 S
C115 C116 1.387 . S
C115 H118 0.950 1_554 S
C116 C115 1.387 . S
C116 C119 1.387 . S
H117 C113 0.950 . S
H118 C115 0.950 1_556 S
C119 C110 1.390 . S
C119 H112 0.950 . S
C119 C116 1.387 . S
C120 C121 1.387 1_554 S
C120 H124 0.950 . S
C120 C129 1.390 1_554 S
C121 C120 1.387 1_556 S
C121 C123 1.387 . S
H122 C129 0.950 1_554 S
C123 C121 1.387 . S
C123 C125 1.390 . S
C123 H127 0.950 . S
H124 C120 0.950 . S
C125 C123 1.390 . S
C125 C126 1.387 . S
C125 H128 0.950 . S
C126 C125 1.387 . S
C126 C129 1.387 . S
H127 C123 0.950 . S
H128 C125 0.950 . S
C129 C120 1.390 1_556 S
C129 H122 0.950 1_556 S
C129 C126 1.387 . S
C130 C131 1.387 . S
C130 H134 0.950 . S
C130 C139 1.390 . S
C131 C130 1.387 . S
C131 C133 1.387 . S
H132 C139 0.950 . S
C133 C131 1.387 . S
C133 C135 1.390 . S
C133 H137 0.950 . S
H134 C130 0.950 . S
C135 C133 1.390 . S
C135 C136 1.387 . S
C135 H138 0.950 . S
C136 C135 1.387 . S
C136 C139 1.387 . S
H137 C133 0.950 . S
H138 C135 0.950 . S
C139 C130 1.390 . S
C139 H132 0.950 . S
C139 C136 1.387 . S
C140 C141 1.387 . S
C140 H144 0.950 . S
C140 C149 1.390 . S
C141 C140 1.387 . S
C141 C143 1.387 . S
H142 C149 0.950 . S
C143 C141 1.387 . S
C143 C145 1.390 . S
C143 H147 0.950 . S
H144 C140 0.950 . S
C145 C143 1.390 . S
C145 C146 1.387 . S
C145 H148 0.950 . S
C146 C145 1.387 . S
C146 C149 1.387 . S
H147 C143 0.950 . S
H148 C145 0.950 . S
C149 C140 1.390 . S
C149 H142 0.950 . S
C149 C146 1.387 . S
C150 C151 1.387 . S
C150 H154 0.950 . S
C150 C159 1.390 . S
C151 C150 1.387 . S
C151 C153 1.387 . S
H152 C159 0.950 . S
C153 C151 1.387 . S
C153 C155 1.390 . S
C153 H157 0.950 . S
H154 C150 0.950 . S
C155 C153 1.390 . S
C155 C156 1.387 . S
C155 H158 0.950 . S
C156 C155 1.387 . S
C156 C159 1.387 . S
H157 C153 0.950 . S
H158 C155 0.950 . S
C159 C150 1.390 . S
C159 H152 0.950 . S
C159 C156 1.387 . S
C160 C161 1.387 . S
C160 H164 0.950 . S
C160 C169 1.390 . S
C161 C160 1.387 . S
C161 C163 1.387 . S
H162 C169 0.950 . S
C163 C161 1.387 . S
C163 C165 1.390 . S
C163 H167 0.950 . S
H164 C160 0.950 . S
C165 C163 1.390 . S
C165 C166 1.387 . S
C165 H168 0.950 . S
C166 C165 1.387 . S
C166 C169 1.387 . S
H167 C163 0.950 . S
H168 C165 0.950 . S
C169 C160 1.390 . S
C169 H162 0.950 . S
C169 C166 1.387 . S
C170 C171 1.387 1_655 S
C170 H174 0.950 . S
C170 C179 1.390 . S
C171 C170 1.387 1_455 S
C171 C173 1.387 1_545 S
H172 C179 0.950 . S
C173 C171 1.387 1_565 S
C173 C175 1.390 . S
C173 H177 0.950 . S
H174 C170 0.950 . S
C175 C173 1.390 . S
C175 C176 1.387 . S
C175 H178 0.950 . S
C176 C175 1.387 . S
C176 C179 1.387 1_465 S
H177 C173 0.950 . S
H178 C175 0.950 . S
C179 C170 1.390 . S
C179 H172 0.950 . S
C179 C176 1.387 1_645 S
C180 C181 1.387 1_455 S
C180 H184 0.950 . S
C180 C189 1.390 . S
C181 C180 1.387 1_655 S
C181 C183 1.387 1_545 S
H182 C189 0.950 . S
C183 C181 1.387 1_565 S
C183 C185 1.390 . S
C183 H187 0.950 . S
H184 C180 0.950 . S
C185 C183 1.390 . S
C185 C186 1.387 . S
C185 H188 0.950 . S
C186 C185 1.387 . S
C186 C189 1.387 1_665 S
H187 C183 0.950 . S
H188 C185 0.950 . S
C189 C180 1.390 . S
C189 H182 0.950 . S
C189 C186 1.387 1_445 S
C190 C191 1.387 . S
C190 H194 0.950 . S
C190 C199 1.390 . S
C191 C190 1.387 . S
C191 C193 1.387 . S
H192 C199 0.950 . S
C193 C191 1.387 . S
C193 C195 1.390 . S
C193 H197 0.950 . S
H194 C190 0.950 . S
C195 C193 1.390 . S
C195 C196 1.387 . S
C195 H198 0.950 . S
C196 C195 1.387 . S
C196 C199 1.387 . S
H197 C193 0.950 . S
H198 C195 0.950 . S
C199 C190 1.390 . S
C199 H192 0.950 . S
C199 C196 1.387 . S
C200 C201 1.387 . S
C200 H204 0.950 . S
C200 C209 1.390 . S
C201 C200 1.387 . S
C201 C203 1.387 . S
H202 C209 0.950 . S
C203 C201 1.387 . S
C203 C205 1.390 . S
C203 H207 0.950 . S
H204 C200 0.950 . S
C205 C203 1.390 . S
C205 C206 1.387 . S
C205 H208 0.950 . S
C206 C205 1.387 . S
C206 C209 1.387 . S
H207 C203 0.950 . S
H208 C205 0.950 . S
C209 C200 1.390 . S
C209 H202 0.950 . S
C209 C206 1.387 . S
C96 C85 1.511 . S
C91 C21 1.510 . S
C101 C19 1.445 . S
C106 N72 1.420 . S
C111 C18 1.416 . S
C116 N83 1.406 . S
C121 C20 1.497 . S
C126 C74 1.504 . S
C131 C44 1.509 . S
C136 C63 1.511 . S
C141 C42 1.445 . S
C146 N50 1.421 . S
C156 N61 1.406 . S
C151 C41 1.414 . S
C166 C52 1.503 . S
C161 C43 1.497 . S
C171 C16 1.527 . S
C176 C55 1.523 . S
C181 C17 1.496 . S
C186 C66 1.491 . S
C196 C77 1.522 . S
C191 C39 1.527 . S
C201 C40 1.496 . S
C206 C88 1.492 . S
