# Generated by pormake.
# Topology ant, (3,6)-cn, num edge types: 1
# Building blocks:
#     Node 0, Type 0, BuildingBlock: BETDIP_clean_linker_0, # of connection points: 3
#     Node 1, Type 0, BuildingBlock: BETDIP_clean_linker_0, # of connection points: 3
#     Node 2, Type 0, BuildingBlock: BETDIP_clean_linker_0, # of connection points: 3
#     Node 3, Type 0, BuildingBlock: BETDIP_clean_linker_0, # of connection points: 3
#     Node 4, Type 0, BuildingBlock: BETDIP_clean_linker_0, # of connection points: 3
#     Node 5, Type 0, BuildingBlock: BETDIP_clean_linker_0, # of connection points: 3
#     Node 6, Type 0, BuildingBlock: BETDIP_clean_linker_0, # of connection points: 3
#     Node 7, Type 0, BuildingBlock: BETDIP_clean_linker_0, # of connection points: 3
#     Node 8, Type 1, BuildingBlock: MIDCAF_clean_sbu_0, # of connection points: 6
#     Node 9, Type 1, BuildingBlock: MIDCAF_clean_sbu_0, # of connection points: 6
#     Node 10, Type 1, BuildingBlock: MIDCAF_clean_sbu_0, # of connection points: 6
#     Node 11, Type 1, BuildingBlock: MIDCAF_clean_sbu_0, # of connection points: 6
#     Edge 12, Type (0, 1), None
#     Edge 13, Type (0, 1), None
#     Edge 14, Type (0, 1), None
#     Edge 15, Type (0, 1), None
#     Edge 16, Type (0, 1), None
#     Edge 17, Type (0, 1), None
#     Edge 18, Type (0, 1), None
#     Edge 19, Type (0, 1), None
#     Edge 20, Type (0, 1), None
#     Edge 21, Type (0, 1), None
#     Edge 22, Type (0, 1), None
#     Edge 23, Type (0, 1), None
#     Edge 24, Type (0, 1), None
#     Edge 25, Type (0, 1), None
#     Edge 26, Type (0, 1), None
#     Edge 27, Type (0, 1), None
#     Edge 28, Type (0, 1), None
#     Edge 29, Type (0, 1), None
#     Edge 30, Type (0, 1), None
#     Edge 31, Type (0, 1), None
#     Edge 32, Type (0, 1), None
#     Edge 33, Type (0, 1), None
#     Edge 34, Type (0, 1), None
#     Edge 35, Type (0, 1), None
# Relax obj value: 0.099
# Max RMSD: 0.190
# Mean RMSD: 0.121
data_MOF--net-ant--node1-MIDCAF_clean_sbu_0--node2-BETDIP_clean_linker_0--edge1-none
_symmetry_space_group_name_H-M    P1
_symmetry_Int_Tables_number       1
_symmetry_cell_setting            triclinic
loop_
_symmetry_equiv_pos_as_xyz
'x, y, z'
_cell_length_a     13.017828
_cell_length_b     12.902828
_cell_length_c     31.166776
_cell_angle_alpha  96.521041
_cell_angle_beta   96.281183
_cell_angle_gamma 94.390233
loop_
_atom_site_label
_atom_site_type_symbol
_atom_site_fract_x
_atom_site_fract_y
_atom_site_fract_z
_atom_type_partial_charge
H0 H 0.18028 0.29608 0.12231 0.0
H1 H 0.25125 0.10566 0.01008 0.0
H2 H 0.11737 0.39632 -0.00408 0.0
H3 H 0.34009 0.98998 0.10947 0.0
C4 C 0.27049 0.02198 0.09613 0.0
C5 C 0.17479 0.28171 0.08716 0.0
C6 C 0.13753 0.35723 0.06117 0.0
C7 C 0.21458 0.19102 0.06919 0.0
C8 C 0.21423 0.17187 0.024 0.0
C9 C 0.17643 0.24475 -0.00258 0.0
C10 C 0.138 0.3368 0.0161 0.0
N11 N 0.27352 0.13306 0.09768 0.0
H12 H 0.00286 0.74846 0.36341 0.0
H13 H 0.20608 0.74838 0.26611 0.0
H14 H 0.87436 0.72121 0.22828 0.0
H15 H 0.30107 0.90475 0.34958 0.0
C16 C 0.29442 0.81965 0.34575 0.0
C17 C 0.01277 0.74119 0.3291 0.0
C18 C 0.92604 0.7371 0.29747 0.0
C19 C 0.11276 0.74941 0.31779 0.0
C20 C 0.12711 0.74303 0.27409 0.0
C21 C 0.04244 0.72615 0.24087 0.0
C22 C 0.94042 0.72656 0.25279 0.0
N23 N 0.19834 0.76518 0.35091 0.0
H24 H 0.68734 0.7844 0.61811 0.0
H25 H 0.74279 0.59893 0.50194 0.0
H26 H 0.60827 0.89105 0.494 0.0
H27 H 0.83584 0.49077 0.61176 0.0
C28 C 0.77079 0.52058 0.59369 0.0
C29 C 0.67629 0.771 0.58289 0.0
C30 C 0.63643 0.8485 0.55844 0.0
C31 C 0.71274 0.68015 0.56291 0.0
C32 C 0.70715 0.6642 0.51747 0.0
C33 C 0.6672 0.73917 0.49261 0.0
C34 C 0.6312 0.8303 0.51312 0.0
N35 N 0.78048 0.62337 0.58854 0.0
H36 H 0.52679 0.23854 0.86148 0.0
H37 H 0.70914 0.25796 0.75795 0.0
H38 H 0.37456 0.22608 0.72998 0.0
H39 H 0.8011 0.37967 0.82847 0.0
C40 C 0.80525 0.30234 0.83897 0.0
C41 C 0.53028 0.23921 0.82688 0.0
C42 C 0.43916 0.24039 0.79808 0.0
C43 C 0.62651 0.24899 0.81224 0.0
C44 C 0.63227 0.2516 0.76828 0.0
C45 C 0.54332 0.23303 0.73745 0.0
C46 C 0.44454 0.23204 0.75256 0.0
N47 N 0.71814 0.24034 0.83997 0.0
H48 H 0.07225 0.64834 0.8419 0.0
H49 H 0.00618 0.83045 0.95773 0.0
H50 H 0.03368 0.50168 0.95673 0.0
H51 H 0.07203 0.96469 0.93098 0.0
C52 C 0.07413 0.94452 0.89637 0.0
C53 C 0.04987 0.65217 0.87452 0.0
C54 C 0.04866 0.56305 0.89594 0.0
C55 C 0.03693 0.74917 0.89695 0.0
C56 C 0.01649 0.75538 0.94038 0.0
C57 C 0.01712 0.66633 0.96269 0.0
C58 C 0.02952 0.5698 0.9397 0.0
N59 N 0.05636 0.83932 0.87606 0.0
H60 H 0.50766 0.82877 0.09667 0.0
H61 H 0.69448 0.86527 0.22068 0.0
H62 H 0.36578 0.79429 0.21283 0.0
H63 H 0.77563 0.74599 0.1665 0.0
C64 C 0.78073 0.80413 0.14409 0.0
C65 C 0.5127 0.83779 0.13186 0.0
C66 C 0.42365 0.81711 0.15211 0.0
C67 C 0.6103 0.85698 0.15672 0.0
C68 C 0.61836 0.85834 0.20201 0.0
C69 C 0.53014 0.83701 0.22249 0.0
C70 C 0.43256 0.82079 0.19761 0.0
N71 N 0.70064 0.8617 0.13525 0.0
H72 H 0.54355 0.15108 0.34106 0.0
H73 H 0.49283 0.32831 0.46099 0.0
H74 H 0.52719 -7e-05 0.45597 0.0
H75 H 0.55518 0.46003 0.4301 0.0
C76 C 0.54622 0.43938 0.39509 0.0
C77 C 0.5266 0.1534 0.37446 0.0
C78 C 0.53187 0.06367 0.39529 0.0
C79 C 0.51392 0.24941 0.39797 0.0
C80 C 0.50163 0.25417 0.44246 0.0
C81 C 0.50778 0.16409 0.46392 0.0
C82 C 0.51868 0.06864 0.43961 0.0
N83 N 0.52497 0.33986 0.37637 0.0
H84 H 0.00352 0.33302 0.59605 0.0
H85 H 0.19927 0.36263 0.71788 0.0
H86 H 0.87266 0.28246 0.71338 0.0
H87 H 0.28097 0.25347 0.6642 0.0
C88 C 0.28168 0.30866 0.64038 0.0
C89 C 0.0113 0.3388 0.63125 0.0
C90 C 0.92433 0.31405 0.65232 0.0
C91 C 0.1106 0.35702 0.65486 0.0
C92 C 0.12212 0.35489 0.7001 0.0
C93 C 0.03631 0.3298 0.72158 0.0
C94 C 0.93732 0.31227 0.6977 0.0
N95 N 0.19897 0.36321 0.63192 0.0
Zn96 Zn 0.19026 0.61949 0.13616 0.0
Zn97 Zn 0.96926 0.90502 0.05438 0.0
Zn98 Zn 0.08699 0.71259 0.09984 0.0
C99 C 0.02033 0.68158 0.01068 0.0
C100 C 0.18214 0.95897 0.08728 0.0
O101 O 0.00889 0.70668 0.16042 0.0
O102 O 0.16153 0.68256 0.19243 0.0
C103 C 0.11869 0.46229 0.08339 0.0
O104 O 0.05793 0.61933 0.03611 0.0
O105 O 0.00042 0.76895 0.02791 0.0
O106 O 0.09898 0.99682 0.07422 0.0
O107 O 0.18268 0.86247 0.0952 0.0
O108 O 0.13674 0.4743 0.12415 0.0
O109 O 0.103 0.54492 0.06402 0.0
O110 O 0.24355 0.79622 0.12333 0.0
O111 O 0.33266 0.65847 0.12219 0.0
C112 C 0.33152 0.75671 0.12743 0.0
O113 O 0.93911 0.75052 0.12596 0.0
O114 O 0.86836 0.88262 0.09575 0.0
C115 C 0.06988 0.70463 0.19567 0.0
C116 C 0.86637 0.81309 0.1214 0.0
Zn117 Zn 0.49888 0.61815 0.30544 0.0
Zn118 Zn 0.74749 0.85338 0.3851 0.0
Zn119 Zn 0.61227 0.74451 0.34919 0.0
C120 C 0.59108 0.98049 0.37823 0.0
C121 C 0.83101 0.77073 0.31473 0.0
O122 O 0.56673 0.61444 0.3843 0.0
O123 O 0.55143 0.49297 0.3278 0.0
C124 C 0.37689 0.76828 0.33787 0.0
O125 O 0.54767 0.89804 0.35396 0.0
O126 O 0.68281 0.98225 0.39592 0.0
O127 O 0.84542 0.85159 0.34216 0.0
O128 O 0.7472 0.71053 0.31294 0.0
O129 O 0.36947 0.66937 0.33095 0.0
O130 O 0.46541 0.81927 0.33599 0.0
O131 O 0.5356 0.83026 0.30014 0.0
O132 O 0.55214 0.68761 0.25641 0.0
C133 C 0.54408 0.78526 0.26179 0.0
O134 O 0.61269 0.71428 0.41636 0.0
O135 O 0.77022 0.78705 0.43999 0.0
C136 C 0.55639 0.5176 0.36848 0.0
C137 C 0.6869 0.73889 0.44728 0.0
Zn138 Zn 0.46381 0.40019 0.54417 0.0
Zn139 Zn 0.68942 0.1115 0.63331 0.0
Zn140 Zn 0.58725 0.20755 0.59817 0.0
C141 C 0.83161 0.25368 0.62764 0.0
C142 C 0.62106 0.95347 0.5818 0.0
O143 O 0.43835 0.25368 0.62152 0.0
O144 O 0.36439 0.3809 0.58836 0.0
C145 C 0.68017 0.4529 0.58199 0.0
O146 O 0.74377 0.2932 0.6222 0.0
O147 O 0.83279 0.15547 0.62274 0.0
O148 O 0.64431 0.96453 0.62233 0.0
O149 O 0.60169 0.03654 0.5631 0.0
O150 O 0.59898 0.48734 0.56432 0.0
O151 O 0.68008 0.35863 0.59284 0.0
O152 O 0.55836 0.1092 0.53503 0.0
O153 O 0.50168 0.25898 0.5331 0.0
C154 C 0.51844 0.17495 0.51211 0.0
O155 O 0.50437 0.20933 0.65713 0.0
O156 O 0.6536 0.17303 0.68819 0.0
C157 C 0.3649 0.31527 0.616 0.0
C158 C 0.56508 0.20364 0.69195 0.0
Zn159 Zn 0.0327 0.11959 0.81021 0.0
Zn160 Zn 0.26722 0.35023 0.89167 0.0
Zn161 Zn 0.13182 0.24828 0.85231 0.0
C162 C 0.20128 0.24181 0.95259 0.0
C163 C 0.10712 0.47792 0.88063 0.0
O164 O 0.05149 0.3266 0.79999 0.0
O165 O 0.06723 0.18283 0.75674 0.0
C166 C 0.08771 0.02036 0.87157 0.0
O167 O 0.12947 0.21973 0.92042 0.0
O168 O 0.28765 0.28617 0.94676 0.0
O169 O 0.19686 0.47721 0.90017 0.0
O170 O 0.06462 0.39766 0.85494 0.0
O171 O 0.09201 0.99677 0.83131 0.0
O172 O 0.09017 0.11687 0.88735 0.0
O173 O 0.98358 0.31571 0.83675 0.0
O174 O 0.90176 0.16095 0.8374 0.0
C175 C 0.89958 0.25925 0.84041 0.0
O176 O 0.26179 0.21497 0.81464 0.0
O177 O 0.36719 0.34513 0.84976 0.0
C178 C 0.05518 0.27972 0.76138 0.0
C179 C 0.3485 0.27104 0.81916 0.0
loop_
_geom_bond_atom_site_label_1
_geom_bond_atom_site_label_2
_geom_bond_distance
_geom_bond_site_symmetry_2
_ccdc_geom_bond_type
H0 C5 0.930 . S
H1 C8 0.930 . S
H2 C10 0.930 . S
H3 C4 1.017 . S
C4 H3 1.017 . S
C4 N11 1.286 . S
C5 H0 0.930 . S
C5 C6 1.397 . S
C5 C7 1.361 . S
C6 C5 1.397 . S
C6 C10 1.390 . S
C7 C5 1.361 . S
C7 C8 1.393 . S
C7 N11 1.413 . S
C8 H1 0.930 . S
C8 C7 1.393 . S
C8 C9 1.399 . S
C9 C8 1.399 . S
C9 C10 1.381 . S
C10 H2 0.930 . S
C10 C6 1.390 . S
C10 C9 1.381 . S
N11 C4 1.286 . S
N11 C7 1.413 . S
H12 C17 0.930 . S
H13 C20 0.930 . S
H14 C22 0.930 . S
H15 C16 1.016 . S
C16 H15 1.016 . S
C16 N23 1.286 . S
C17 H12 0.930 . S
C17 C18 1.397 1_455 S
C17 C19 1.361 . S
C18 C17 1.397 1_655 S
C18 C22 1.390 . S
C19 C17 1.361 . S
C19 C20 1.393 . S
C19 N23 1.413 . S
C20 H13 0.930 . S
C20 C19 1.393 . S
C20 C21 1.399 . S
C21 C20 1.399 . S
C21 C22 1.381 1_455 S
C22 H14 0.930 . S
C22 C18 1.390 . S
C22 C21 1.381 1_655 S
N23 C16 1.286 . S
N23 C19 1.413 . S
H24 C29 0.930 . S
H25 C32 0.930 . S
H26 C34 0.930 . S
H27 C28 1.016 . S
C28 H27 1.016 . S
C28 N35 1.286 . S
C29 H24 0.930 . S
C29 C30 1.397 . S
C29 C31 1.361 . S
C30 C29 1.397 . S
C30 C34 1.390 . S
C31 C29 1.361 . S
C31 C32 1.393 . S
C31 N35 1.413 . S
C32 H25 0.930 . S
C32 C31 1.393 . S
C32 C33 1.399 . S
C33 C32 1.399 . S
C33 C34 1.381 . S
C34 H26 0.930 . S
C34 C30 1.390 . S
C34 C33 1.381 . S
N35 C28 1.286 . S
N35 C31 1.413 . S
H36 C41 0.930 . S
H37 C44 0.930 . S
H38 C46 0.930 . S
H39 C40 1.016 . S
C40 H39 1.016 . S
C40 N47 1.286 . S
C41 H36 0.930 . S
C41 C42 1.397 . S
C41 C43 1.361 . S
C42 C41 1.397 . S
C42 C46 1.390 . S
C43 C41 1.361 . S
C43 C44 1.393 . S
C43 N47 1.413 . S
C44 H37 0.930 . S
C44 C43 1.393 . S
C44 C45 1.399 . S
C45 C44 1.399 . S
C45 C46 1.381 . S
C46 H38 0.930 . S
C46 C42 1.390 . S
C46 C45 1.381 . S
N47 C40 1.286 . S
N47 C43 1.413 . S
H48 C53 0.930 . S
H49 C56 0.930 . S
H50 C58 0.930 . S
H51 C52 1.016 . S
C52 H51 1.016 . S
C52 N59 1.286 . S
C53 H48 0.930 . S
C53 C54 1.397 . S
C53 C55 1.361 . S
C54 C53 1.397 . S
C54 C58 1.390 . S
C55 C53 1.361 . S
C55 C56 1.393 . S
C55 N59 1.413 . S
C56 H49 0.930 . S
C56 C55 1.393 . S
C56 C57 1.399 . S
C57 C56 1.399 . S
C57 C58 1.381 . S
C58 H50 0.930 . S
C58 C54 1.390 . S
C58 C57 1.381 . S
N59 C52 1.286 . S
N59 C55 1.413 . S
H60 C65 0.930 . S
H61 C68 0.930 . S
H62 C70 0.930 . S
H63 C64 1.016 . S
C64 H63 1.016 . S
C64 N71 1.286 . S
C65 H60 0.930 . S
C65 C66 1.397 . S
C65 C67 1.361 . S
C66 C65 1.397 . S
C66 C70 1.390 . S
C67 C65 1.361 . S
C67 C68 1.393 . S
C67 N71 1.413 . S
C68 H61 0.930 . S
C68 C67 1.393 . S
C68 C69 1.399 . S
C69 C68 1.399 . S
C69 C70 1.381 . S
C70 H62 0.930 . S
C70 C66 1.390 . S
C70 C69 1.381 . S
N71 C64 1.286 . S
N71 C67 1.413 . S
H72 C77 0.930 . S
H73 C80 0.930 . S
H74 C82 0.930 . S
H75 C76 1.016 . S
C76 H75 1.016 . S
C76 N83 1.286 . S
C77 H72 0.930 . S
C77 C78 1.397 . S
C77 C79 1.361 . S
C78 C77 1.397 . S
C78 C82 1.390 . S
C79 C77 1.361 . S
C79 C80 1.393 . S
C79 N83 1.413 . S
C80 H73 0.930 . S
C80 C79 1.393 . S
C80 C81 1.399 . S
C81 C80 1.399 . S
C81 C82 1.381 . S
C82 H74 0.930 . S
C82 C78 1.390 . S
C82 C81 1.381 . S
N83 C76 1.286 . S
N83 C79 1.413 . S
H84 C89 0.930 . S
H85 C92 0.930 . S
H86 C94 0.930 . S
H87 C88 1.016 . S
C88 H87 1.016 . S
C88 N95 1.286 . S
C89 H84 0.930 . S
C89 C90 1.397 1_455 S
C89 C91 1.361 . S
C90 C89 1.397 1_655 S
C90 C94 1.390 . S
C91 C89 1.361 . S
C91 C92 1.393 . S
C91 N95 1.413 . S
C92 H85 0.930 . S
C92 C91 1.393 . S
C92 C93 1.399 . S
C93 C92 1.399 . S
C93 C94 1.381 1_455 S
C94 H86 0.930 . S
C94 C90 1.390 . S
C94 C93 1.381 1_655 S
N95 C88 1.286 . S
N95 C91 1.413 . S
Zn96 O102 1.920 . S
Zn96 O108 1.898 . S
Zn96 O111 1.905 . S
Zn97 O105 1.905 . S
Zn97 O106 1.898 1_655 S
Zn97 O114 1.920 . S
Zn98 O101 2.080 . S
Zn98 O104 2.114 . S
Zn98 O107 2.120 . S
Zn98 O109 2.120 . S
Zn98 O110 2.114 . S
Zn98 O113 2.080 1_455 S
C99 O104 1.166 . S
C99 O105 1.182 1_455 S
C100 O106 1.167 . S
C100 O107 1.299 . S
O101 Zn98 2.080 . S
O101 C115 1.305 . S
O102 Zn96 1.920 . S
O102 C115 1.234 . S
C103 O108 1.167 . S
C103 O109 1.299 . S
O104 Zn98 2.114 . S
O104 C99 1.166 . S
O105 Zn97 1.905 . S
O105 C99 1.182 1_655 S
O106 Zn97 1.898 1_455 S
O106 C100 1.167 . S
O107 Zn98 2.120 . S
O107 C100 1.299 . S
O108 Zn96 1.898 . S
O108 C103 1.167 . S
O109 Zn98 2.120 . S
O109 C103 1.299 . S
O110 Zn98 2.114 . S
O110 C112 1.166 . S
O111 Zn96 1.905 . S
O111 C112 1.182 . S
C112 O110 1.166 . S
C112 O111 1.182 . S
O113 Zn98 2.080 1_655 S
O113 C116 1.305 . S
O114 Zn97 1.920 . S
O114 C116 1.234 . S
C115 O101 1.305 . S
C115 O102 1.234 . S
C116 O113 1.305 . S
C116 O114 1.234 . S
Zn117 O123 1.920 . S
Zn117 O129 1.898 . S
Zn117 O132 1.905 . S
Zn118 O126 1.905 1_565 S
Zn118 O127 1.898 . S
Zn118 O135 1.920 . S
Zn119 O122 2.080 . S
Zn119 O125 2.114 . S
Zn119 O128 2.120 . S
Zn119 O130 2.120 . S
Zn119 O131 2.114 . S
Zn119 O134 2.080 . S
C120 O125 1.166 1_545 S
C120 O126 1.182 . S
C121 O127 1.167 . S
C121 O128 1.299 . S
O122 Zn119 2.080 . S
O122 C136 1.305 . S
O123 Zn117 1.920 . S
O123 C136 1.234 . S
C124 O129 1.167 . S
C124 O130 1.299 . S
O125 Zn119 2.114 . S
O125 C120 1.166 1_565 S
O126 Zn118 1.905 1_545 S
O126 C120 1.182 . S
O127 Zn118 1.898 . S
O127 C121 1.167 . S
O128 Zn119 2.120 . S
O128 C121 1.299 . S
O129 Zn117 1.898 . S
O129 C124 1.167 . S
O130 Zn119 2.120 . S
O130 C124 1.299 . S
O131 Zn119 2.114 . S
O131 C133 1.166 . S
O132 Zn117 1.905 . S
O132 C133 1.182 . S
C133 O131 1.166 . S
C133 O132 1.182 . S
O134 Zn119 2.080 . S
O134 C137 1.305 . S
O135 Zn118 1.920 . S
O135 C137 1.234 . S
C136 O122 1.305 . S
C136 O123 1.234 . S
C137 O134 1.305 . S
C137 O135 1.234 . S
Zn138 O144 1.920 . S
Zn138 O150 1.898 . S
Zn138 O153 1.905 . S
Zn139 O147 1.905 . S
Zn139 O148 1.898 1_545 S
Zn139 O156 1.920 . S
Zn140 O143 2.080 . S
Zn140 O146 2.114 . S
Zn140 O149 2.120 . S
Zn140 O151 2.120 . S
Zn140 O152 2.114 . S
Zn140 O155 2.080 . S
C141 O146 1.166 . S
C141 O147 1.182 . S
C142 O148 1.167 . S
C142 O149 1.299 1_565 S
O143 Zn140 2.080 . S
O143 C157 1.305 . S
O144 Zn138 1.920 . S
O144 C157 1.234 . S
C145 O150 1.167 . S
C145 O151 1.299 . S
O146 Zn140 2.114 . S
O146 C141 1.166 . S
O147 Zn139 1.905 . S
O147 C141 1.182 . S
O148 Zn139 1.898 1_565 S
O148 C142 1.167 . S
O149 Zn140 2.120 . S
O149 C142 1.299 1_545 S
O150 Zn138 1.898 . S
O150 C145 1.167 . S
O151 Zn140 2.120 . S
O151 C145 1.299 . S
O152 Zn140 2.114 . S
O152 C154 1.166 . S
O153 Zn138 1.905 . S
O153 C154 1.182 . S
C154 O152 1.166 . S
C154 O153 1.182 . S
O155 Zn140 2.080 . S
O155 C158 1.305 . S
O156 Zn139 1.920 . S
O156 C158 1.234 . S
C157 O143 1.305 . S
C157 O144 1.234 . S
C158 O155 1.305 . S
C158 O156 1.234 . S
Zn159 O165 1.920 1_655 S
Zn159 O171 1.898 . S
Zn159 O174 1.905 . S
Zn160 O168 1.905 . S
Zn160 O169 1.898 . S
Zn160 O177 1.920 . S
Zn161 O164 2.080 . S
Zn161 O167 2.114 . S
Zn161 O170 2.120 . S
Zn161 O172 2.120 . S
Zn161 O173 2.114 1_455 S
Zn161 O176 2.080 . S
C162 O167 1.166 . S
C162 O168 1.182 . S
C163 O169 1.167 . S
C163 O170 1.299 . S
O164 Zn161 2.080 . S
O164 C178 1.305 . S
O165 Zn159 1.920 1_455 S
O165 C178 1.234 . S
C166 O171 1.167 1_455 S
C166 O172 1.299 . S
O167 Zn161 2.114 . S
O167 C162 1.166 . S
O168 Zn160 1.905 . S
O168 C162 1.182 . S
O169 Zn160 1.898 . S
O169 C163 1.167 . S
O170 Zn161 2.120 . S
O170 C163 1.299 . S
O171 Zn159 1.898 . S
O171 C166 1.167 1_655 S
O172 Zn161 2.120 . S
O172 C166 1.299 . S
O173 Zn161 2.114 1_655 S
O173 C175 1.166 . S
O174 Zn159 1.905 . S
O174 C175 1.182 . S
C175 O173 1.166 . S
C175 O174 1.182 . S
O176 Zn161 2.080 . S
O176 C179 1.305 . S
O177 Zn160 1.920 . S
O177 C179 1.234 . S
C178 O164 1.305 . S
C178 O165 1.234 . S
C179 O176 1.305 . S
C179 O177 1.234 . S
C103 C6 1.419 . S
C121 C18 1.765 . S
C28 C145 1.378 . S
C175 C40 1.121 . S
C163 C54 1.325 . S
C64 C116 1.107 . S
C76 C136 1.476 . S
C90 C141 1.475 . S
C88 C157 1.089 . S
C66 C112 1.484 . S
C179 C42 1.806 . S
C124 C16 1.098 . S
C30 C142 1.399 . S
C4 C100 1.382 1_545 S
C120 C78 1.327 . S
C166 C52 1.450 1_545 S
C162 C9 1.280 1_556 S
C115 C21 2.111 . S
C33 C137 1.240 . S
C45 C158 2.111 . S
C99 C57 1.268 1_554 S
C69 C133 1.561 . S
C154 C81 1.300 . S
C178 C93 1.532 . S
