# Generated by pormake.
# Topology ant, (3,6)-cn, num edge types: 1
# Building blocks:
#     Node 0, Type 0, BuildingBlock: INOVEN_clean_linker_0, # of connection points: 3
#     Node 1, Type 0, BuildingBlock: INOVEN_clean_linker_0, # of connection points: 3
#     Node 2, Type 0, BuildingBlock: INOVEN_clean_linker_0, # of connection points: 3
#     Node 3, Type 0, BuildingBlock: INOVEN_clean_linker_0, # of connection points: 3
#     Node 4, Type 0, BuildingBlock: INOVEN_clean_linker_0, # of connection points: 3
#     Node 5, Type 0, BuildingBlock: INOVEN_clean_linker_0, # of connection points: 3
#     Node 6, Type 0, BuildingBlock: INOVEN_clean_linker_0, # of connection points: 3
#     Node 7, Type 0, BuildingBlock: INOVEN_clean_linker_0, # of connection points: 3
#     Node 8, Type 1, BuildingBlock: MIDCAF_clean_sbu_0, # of connection points: 6
#     Node 9, Type 1, BuildingBlock: MIDCAF_clean_sbu_0, # of connection points: 6
#     Node 10, Type 1, BuildingBlock: MIDCAF_clean_sbu_0, # of connection points: 6
#     Node 11, Type 1, BuildingBlock: MIDCAF_clean_sbu_0, # of connection points: 6
#     Edge 12, Type (0, 1), None
#     Edge 13, Type (0, 1), None
#     Edge 14, Type (0, 1), None
#     Edge 15, Type (0, 1), None
#     Edge 16, Type (0, 1), None
#     Edge 17, Type (0, 1), None
#     Edge 18, Type (0, 1), None
#     Edge 19, Type (0, 1), None
#     Edge 20, Type (0, 1), None
#     Edge 21, Type (0, 1), None
#     Edge 22, Type (0, 1), None
#     Edge 23, Type (0, 1), None
#     Edge 24, Type (0, 1), None
#     Edge 25, Type (0, 1), None
#     Edge 26, Type (0, 1), None
#     Edge 27, Type (0, 1), None
#     Edge 28, Type (0, 1), None
#     Edge 29, Type (0, 1), None
#     Edge 30, Type (0, 1), None
#     Edge 31, Type (0, 1), None
#     Edge 32, Type (0, 1), None
#     Edge 33, Type (0, 1), None
#     Edge 34, Type (0, 1), None
#     Edge 35, Type (0, 1), None
# Relax obj value: 0.055
# Max RMSD: 0.146
# Mean RMSD: 0.077
data_MOF--net-ant--node1-MIDCAF_clean_sbu_0--node2-INOVEN_clean_linker_0--edge1-none
_symmetry_space_group_name_H-M    P1
_symmetry_Int_Tables_number       1
_symmetry_cell_setting            triclinic
loop_
_symmetry_equiv_pos_as_xyz
'x, y, z'
_cell_length_a     13.309073
_cell_length_b     12.826544
_cell_length_c     32.089695
_cell_angle_alpha  95.360663
_cell_angle_beta   101.59107
_cell_angle_gamma 94.751677
loop_
_atom_site_label
_atom_site_type_symbol
_atom_site_fract_x
_atom_site_fract_y
_atom_site_fract_z
_atom_type_partial_charge
H0 H 0.18201 0.28271 0.10224 0.0
H1 H 0.07508 0.39364 -0.01889 0.0
H2 H 0.21367 0.10331 -0.01263 0.0
N3 N 0.27501 0.12885 0.07201 0.0
N4 N 0.27273 0.03618 0.08194 0.0
C5 C 0.16167 0.26916 0.06761 0.0
C6 C 0.11773 0.34863 0.04382 0.0
C7 C 0.19357 0.17822 0.04771 0.0
C8 C 0.17859 0.16533 0.00275 0.0
C9 C 0.13587 0.24308 -0.02135 0.0
C10 C 0.1024 0.3317 -0.00061 0.0
H11 H 0.16043 0.80719 0.34838 0.0
H12 H 0.30039 0.78448 0.2402 0.0
H13 H -0.03109 0.74529 0.22141 0.0
N14 N -0.02911 0.79532 0.3072 0.0
N15 N 0.87823 0.77281 0.28957 0.0
C16 C 0.15341 0.80004 0.31395 0.0
C17 C 0.24187 0.79828 0.29709 0.0
C18 C 0.05519 0.78699 0.2869 0.0
C19 C 0.04453 0.76342 0.24215 0.0
C20 C 0.13398 0.75914 0.22516 0.0
C21 C 0.23108 0.7861 0.25281 0.0
H22 H 0.68298 0.78484 0.60219 0.0
H23 H 0.57594 0.8961 0.48113 0.0
H24 H 0.71417 0.60556 0.48722 0.0
N25 N 0.77587 0.63102 0.57186 0.0
N26 N 0.77361 0.53845 0.5819 0.0
C27 C 0.66255 0.77135 0.56756 0.0
C28 C 0.61863 0.85092 0.54381 0.0
C29 C 0.69433 0.6804 0.54761 0.0
C30 C 0.67921 0.66759 0.50265 0.0
C31 C 0.63646 0.74541 0.47858 0.0
C32 C 0.60319 0.83408 0.49938 0.0
H33 H 0.66107 0.30257 0.84883 0.0
H34 H 0.80127 0.28415 0.74067 0.0
H35 H 0.46974 0.24481 0.72174 0.0
N36 N 0.47162 0.29214 0.80767 0.0
N37 N 0.37896 0.27029 0.78993 0.0
C38 C 0.65411 0.29661 0.81441 0.0
C39 C 0.74259 0.29571 0.79755 0.0
C40 C 0.55594 0.28437 0.78735 0.0
C41 C 0.54534 0.26237 0.74253 0.0
C42 C 0.63483 0.25891 0.72553 0.0
C43 C 0.73189 0.28517 0.75327 0.0
H44 H 0.01778 0.6501 0.82431 0.0
H45 H 0.01561 0.5078 0.94027 0.0
H46 H -0.00781 0.83974 0.93697 0.0
N47 N 0.01101 0.84136 0.85651 0.0
N48 N 0.04864 0.9293 0.87538 0.0
C49 C 0.00784 0.65546 0.85719 0.0
C50 C 0.0141 0.5679 0.87947 0.0
C51 C 0.00244 0.75263 0.87845 0.0
C52 C -0.00445 0.76181 0.9214 0.0
C53 C -0.00147 0.67329 0.94452 0.0
C54 C 0.00739 0.5755 0.92298 0.0
H55 H 0.53039 0.77255 0.07567 0.0
H56 H 0.38561 0.77092 0.18264 0.0
H57 H 0.71233 0.75129 0.20162 0.0
N58 N 0.72087 0.78355 0.11888 0.0
N59 N 0.8074 0.75766 0.13489 0.0
C60 C 0.53585 0.77333 0.10986 0.0
C61 C 0.44615 0.77175 0.12624 0.0
C62 C 0.63274 0.77185 0.13717 0.0
C63 C 0.63901 0.75953 0.18096 0.0
C64 C 0.5483 0.7555 0.1972 0.0
C65 C 0.45503 0.77106 0.17018 0.0
H66 H 0.5161 0.1527 0.32447 0.0
H67 H 0.51564 0.01035 0.44052 0.0
H68 H 0.49164 0.34222 0.43732 0.0
N69 N 0.50957 0.34393 0.35675 0.0
N70 N 0.54732 0.4319 0.37557 0.0
C71 C 0.50651 0.15801 0.35738 0.0
C72 C 0.51321 0.07044 0.37966 0.0
C73 C 0.50125 0.25517 0.37871 0.0
C74 C 0.49489 0.26431 0.42171 0.0
C75 C 0.49829 0.17578 0.44482 0.0
C76 C 0.50705 0.07803 0.42323 0.0
H77 H 0.03157 0.27617 0.57621 0.0
H78 H 0.88658 0.2713 0.68306 0.0
H79 H 0.2132 0.25142 0.70189 0.0
N80 N 0.22199 0.28593 0.6194 0.0
N81 N 0.30846 0.25972 0.63532 0.0
C82 C 0.03695 0.276 0.61036 0.0
C83 C 0.94718 0.27382 0.62672 0.0
C84 C 0.13379 0.27381 0.63763 0.0
C85 C 0.13993 0.2602 0.6813 0.0
C86 C 0.04918 0.25556 0.6975 0.0
C87 C 0.95599 0.27183 0.6706 0.0
Zn88 Zn 0.20618 0.60503 0.11755 0.0
Zn89 Zn 0.00031 0.85621 0.06094 0.0
Zn90 Zn 0.10298 0.7113 0.08472 0.0
C91 C 0.00422 0.69279 -0.00865 0.0
C92 C 0.18529 0.96009 0.07534 0.0
O93 O 0.06032 0.71447 0.14838 0.0
O94 O 0.21551 0.67613 0.17496 0.0
C95 C 0.10945 0.45534 0.06646 0.0
O96 O 0.04846 0.63562 0.01906 0.0
O97 O -0.02063 0.78143 0.00374 0.0
O98 O 0.09527 0.98811 0.06904 0.0
O99 O 0.19932 0.86325 0.08118 0.0
O100 O 0.13321 0.46368 0.10668 0.0
O101 O 0.0994 0.54178 0.04812 0.0
O102 O 0.26562 0.78514 0.103 0.0
O103 O 0.32703 0.63597 0.08958 0.0
C104 C 0.34368 0.73434 0.09939 0.0
O105 O -0.03032 0.72719 0.11941 0.0
O106 O 0.88028 0.84558 0.08703 0.0
C107 C 0.13457 0.71397 0.18091 0.0
C108 C 0.88872 0.77799 0.11331 0.0
Zn109 Zn 0.45149 0.63263 0.30022 0.0
Zn110 Zn 0.71502 0.86936 0.37394 0.0
Zn111 Zn 0.57692 0.75301 0.33722 0.0
C112 C 0.55942 0.98372 0.36191 0.0
C113 C 0.80506 0.78925 0.31537 0.0
O114 O 0.5716 0.61166 0.37009 0.0
O115 O 0.50895 0.50189 0.31192 0.0
C116 C 0.33813 0.76855 0.32225 0.0
O117 O 0.5129 0.89114 0.35545 0.0
O118 O 0.6532 -0.00105 0.35997 0.0
O119 O 0.83608 0.83461 0.35289 0.0
O120 O 0.70783 0.76083 0.30122 0.0
O121 O 0.33658 0.67303 0.32871 0.0
O122 O 0.4253 0.81801 0.32081 0.0
O123 O 0.61616 0.74142 0.27299 0.0
O124 O 0.45554 0.68222 0.24423 0.0
C125 C 0.54153 0.72401 0.23994 0.0
O126 O 0.61115 0.69607 0.4018 0.0
O127 O 0.70739 0.84197 0.43202 0.0
C128 C 0.54747 0.51739 0.35148 0.0
C129 C 0.65661 0.75728 0.43567 0.0
Zn130 Zn 0.50126 0.35867 0.56139 0.0
Zn131 Zn 0.70718 0.10727 0.61755 0.0
Zn132 Zn 0.6039 0.21356 0.585 0.0
C133 C 0.84473 0.23682 0.59972 0.0
C134 C 0.61049 0.95762 0.56651 0.0
O135 O 0.47064 0.22927 0.61973 0.0
O136 O 0.38151 0.34829 0.58767 0.0
C137 C 0.68616 0.46243 0.5755 0.0
O138 O 0.76664 0.28752 0.60341 0.0
O139 O 0.82804 0.13855 0.58964 0.0
O140 O 0.63452 0.96585 0.60671 0.0
O141 O 0.60023 0.04413 0.54822 0.0
O142 O 0.59617 0.49051 0.56925 0.0
O143 O 0.70017 0.36562 0.5814 0.0
O144 O 0.54917 0.13809 0.51932 0.0
O145 O 0.47971 0.28382 0.50417 0.0
C146 C 0.50454 0.19524 0.4917 0.0
O147 O 0.56123 0.21591 0.64866 0.0
O148 O 0.71651 0.17757 0.67504 0.0
C149 C 0.38984 0.28034 0.6138 0.0
C150 C 0.63552 0.21502 0.68114 0.0
Zn151 Zn 0.95233 0.12995 0.80004 0.0
Zn152 Zn 0.21536 0.36655 0.87408 0.0
Zn153 Zn 0.07752 0.25045 0.83735 0.0
C154 C 0.1563 0.25499 0.93578 0.0
C155 C 0.06005 0.48094 0.86178 0.0
O156 O 0.11689 0.23985 0.77315 0.0
O157 O 0.95637 0.18066 0.74419 0.0
C158 C 0.04893 0.0149 0.85135 0.0
O159 O 0.11162 0.19339 0.9019 0.0
O160 O 0.20674 0.33989 0.93214 0.0
O161 O 0.1537 0.49596 0.85959 0.0
O162 O 0.01353 0.3884 0.85563 0.0
O163 O 0.01074 -0.00045 0.81176 0.0
O164 O 0.07252 0.10909 0.87007 0.0
O165 O 0.92593 0.31521 0.82112 0.0
O166 O 0.83738 0.16976 0.82864 0.0
C167 C 0.83885 0.26547 0.82247 0.0
O168 O 0.20844 0.25857 0.8014 0.0
O169 O 0.33667 0.33096 0.85336 0.0
C170 C 0.04234 0.22288 0.74006 0.0
C171 C 0.30572 0.28631 0.81572 0.0
loop_
_geom_bond_atom_site_label_1
_geom_bond_atom_site_label_2
_geom_bond_distance
_geom_bond_site_symmetry_2
_ccdc_geom_bond_type
H0 C5 0.929 . S
H1 C10 0.931 . S
H2 C8 0.930 . S
N3 N4 1.234 . S
N3 C7 1.453 . S
N4 N3 1.234 . S
C5 H0 0.929 . S
C5 C6 1.373 . S
C5 C7 1.368 . S
C6 C5 1.373 . S
C6 C10 1.397 . S
C7 N3 1.453 . S
C7 C5 1.368 . S
C7 C8 1.373 . S
C8 H2 0.930 . S
C8 C7 1.373 . S
C8 C9 1.371 . S
C9 C8 1.371 . S
C9 C10 1.383 . S
C10 H1 0.931 . S
C10 C6 1.397 . S
C10 C9 1.383 . S
H11 C16 0.929 . S
H12 C21 0.931 . S
H13 C19 0.930 1_655 S
N14 N15 1.234 . S
N14 C18 1.453 1_655 S
N15 N14 1.234 . S
C16 H11 0.929 . S
C16 C17 1.373 . S
C16 C18 1.368 . S
C17 C16 1.373 . S
C17 C21 1.397 . S
C18 N14 1.453 1_455 S
C18 C16 1.368 . S
C18 C19 1.373 . S
C19 H13 0.930 1_455 S
C19 C18 1.373 . S
C19 C20 1.371 . S
C20 C19 1.371 . S
C20 C21 1.383 . S
C21 H12 0.931 . S
C21 C17 1.397 . S
C21 C20 1.383 . S
H22 C27 0.929 . S
H23 C32 0.931 . S
H24 C30 0.930 . S
N25 N26 1.234 . S
N25 C29 1.453 . S
N26 N25 1.234 . S
C27 H22 0.929 . S
C27 C28 1.373 . S
C27 C29 1.368 . S
C28 C27 1.373 . S
C28 C32 1.397 . S
C29 N25 1.453 . S
C29 C27 1.368 . S
C29 C30 1.373 . S
C30 H24 0.930 . S
C30 C29 1.373 . S
C30 C31 1.371 . S
C31 C30 1.371 . S
C31 C32 1.383 . S
C32 H23 0.931 . S
C32 C28 1.397 . S
C32 C31 1.383 . S
H33 C38 0.929 . S
H34 C43 0.931 . S
H35 C41 0.930 . S
N36 N37 1.234 . S
N36 C40 1.453 . S
N37 N36 1.234 . S
C38 H33 0.929 . S
C38 C39 1.373 . S
C38 C40 1.368 . S
C39 C38 1.373 . S
C39 C43 1.397 . S
C40 N36 1.453 . S
C40 C38 1.368 . S
C40 C41 1.373 . S
C41 H35 0.930 . S
C41 C40 1.373 . S
C41 C42 1.371 . S
C42 C41 1.371 . S
C42 C43 1.383 . S
C43 H34 0.931 . S
C43 C39 1.397 . S
C43 C42 1.383 . S
H44 C49 0.929 . S
H45 C54 0.931 . S
H46 C52 0.930 . S
N47 N48 1.234 . S
N47 C51 1.453 . S
N48 N47 1.234 . S
C49 H44 0.929 . S
C49 C50 1.373 . S
C49 C51 1.368 . S
C50 C49 1.373 . S
C50 C54 1.397 . S
C51 N47 1.453 . S
C51 C49 1.368 . S
C51 C52 1.373 . S
C52 H46 0.930 . S
C52 C51 1.373 . S
C52 C53 1.371 . S
C53 C52 1.371 . S
C53 C54 1.383 . S
C54 H45 0.931 . S
C54 C50 1.397 . S
C54 C53 1.383 . S
H55 C60 0.929 . S
H56 C65 0.931 . S
H57 C63 0.930 . S
N58 N59 1.234 . S
N58 C62 1.453 . S
N59 N58 1.234 . S
C60 H55 0.929 . S
C60 C61 1.373 . S
C60 C62 1.368 . S
C61 C60 1.373 . S
C61 C65 1.397 . S
C62 N58 1.453 . S
C62 C60 1.368 . S
C62 C63 1.373 . S
C63 H57 0.930 . S
C63 C62 1.373 . S
C63 C64 1.371 . S
C64 C63 1.371 . S
C64 C65 1.383 . S
C65 H56 0.931 . S
C65 C61 1.397 . S
C65 C64 1.383 . S
H66 C71 0.929 . S
H67 C76 0.931 . S
H68 C74 0.930 . S
N69 N70 1.234 . S
N69 C73 1.453 . S
N70 N69 1.234 . S
C71 H66 0.929 . S
C71 C72 1.373 . S
C71 C73 1.368 . S
C72 C71 1.373 . S
C72 C76 1.397 . S
C73 N69 1.453 . S
C73 C71 1.368 . S
C73 C74 1.373 . S
C74 H68 0.930 . S
C74 C73 1.373 . S
C74 C75 1.371 . S
C75 C74 1.371 . S
C75 C76 1.383 . S
C76 H67 0.931 . S
C76 C72 1.397 . S
C76 C75 1.383 . S
H77 C82 0.929 . S
H78 C87 0.931 . S
H79 C85 0.930 . S
N80 N81 1.234 . S
N80 C84 1.453 . S
N81 N80 1.234 . S
C82 H77 0.929 . S
C82 C83 1.373 1_455 S
C82 C84 1.368 . S
C83 C82 1.373 1_655 S
C83 C87 1.397 . S
C84 N80 1.453 . S
C84 C82 1.368 . S
C84 C85 1.373 . S
C85 H79 0.930 . S
C85 C84 1.373 . S
C85 C86 1.371 . S
C86 C85 1.371 . S
C86 C87 1.383 1_455 S
C87 H78 0.931 . S
C87 C83 1.397 . S
C87 C86 1.383 1_655 S
Zn88 O94 1.920 . S
Zn88 O100 1.898 . S
Zn88 O103 1.905 . S
Zn89 O97 1.905 . S
Zn89 O98 1.898 1_655 S
Zn89 O106 1.920 . S
Zn90 O93 2.080 . S
Zn90 O96 2.114 . S
Zn90 O99 2.120 . S
Zn90 O101 2.120 . S
Zn90 O102 2.114 . S
Zn90 O105 2.080 1_455 S
C91 O96 1.166 . S
C91 O97 1.182 1_455 S
C92 O98 1.167 . S
C92 O99 1.299 . S
O93 Zn90 2.080 . S
O93 C107 1.305 . S
O94 Zn88 1.920 . S
O94 C107 1.234 . S
C95 O100 1.167 . S
C95 O101 1.299 . S
O96 Zn90 2.114 . S
O96 C91 1.166 . S
O97 Zn89 1.905 . S
O97 C91 1.182 1_655 S
O98 Zn89 1.898 1_455 S
O98 C92 1.167 . S
O99 Zn90 2.120 . S
O99 C92 1.299 . S
O100 Zn88 1.898 . S
O100 C95 1.167 . S
O101 Zn90 2.120 . S
O101 C95 1.299 . S
O102 Zn90 2.114 . S
O102 C104 1.166 . S
O103 Zn88 1.905 . S
O103 C104 1.182 . S
C104 O102 1.166 . S
C104 O103 1.182 . S
O105 Zn90 2.080 1_655 S
O105 C108 1.305 . S
O106 Zn89 1.920 . S
O106 C108 1.234 . S
C107 O93 1.305 . S
C107 O94 1.234 . S
C108 O105 1.305 . S
C108 O106 1.234 . S
Zn109 O115 1.920 . S
Zn109 O121 1.898 . S
Zn109 O124 1.905 . S
Zn110 O118 1.905 1_565 S
Zn110 O119 1.898 . S
Zn110 O127 1.920 . S
Zn111 O114 2.080 . S
Zn111 O117 2.114 . S
Zn111 O120 2.120 . S
Zn111 O122 2.120 . S
Zn111 O123 2.114 . S
Zn111 O126 2.080 . S
C112 O117 1.166 1_545 S
C112 O118 1.182 . S
C113 O119 1.167 . S
C113 O120 1.299 . S
O114 Zn111 2.080 . S
O114 C128 1.305 . S
O115 Zn109 1.920 . S
O115 C128 1.234 . S
C116 O121 1.167 . S
C116 O122 1.299 . S
O117 Zn111 2.114 . S
O117 C112 1.166 1_565 S
O118 Zn110 1.905 1_545 S
O118 C112 1.182 . S
O119 Zn110 1.898 . S
O119 C113 1.167 . S
O120 Zn111 2.120 . S
O120 C113 1.299 . S
O121 Zn109 1.898 . S
O121 C116 1.167 . S
O122 Zn111 2.120 . S
O122 C116 1.299 . S
O123 Zn111 2.114 . S
O123 C125 1.166 . S
O124 Zn109 1.905 . S
O124 C125 1.182 . S
C125 O123 1.166 . S
C125 O124 1.182 . S
O126 Zn111 2.080 . S
O126 C129 1.305 . S
O127 Zn110 1.920 . S
O127 C129 1.234 . S
C128 O114 1.305 . S
C128 O115 1.234 . S
C129 O126 1.305 . S
C129 O127 1.234 . S
Zn130 O136 1.920 . S
Zn130 O142 1.898 . S
Zn130 O145 1.905 . S
Zn131 O139 1.905 . S
Zn131 O140 1.898 1_545 S
Zn131 O148 1.920 . S
Zn132 O135 2.080 . S
Zn132 O138 2.114 . S
Zn132 O141 2.120 . S
Zn132 O143 2.120 . S
Zn132 O144 2.114 . S
Zn132 O147 2.080 . S
C133 O138 1.166 . S
C133 O139 1.182 . S
C134 O140 1.167 . S
C134 O141 1.299 1_565 S
O135 Zn132 2.080 . S
O135 C149 1.305 . S
O136 Zn130 1.920 . S
O136 C149 1.234 . S
C137 O142 1.167 . S
C137 O143 1.299 . S
O138 Zn132 2.114 . S
O138 C133 1.166 . S
O139 Zn131 1.905 . S
O139 C133 1.182 . S
O140 Zn131 1.898 1_565 S
O140 C134 1.167 . S
O141 Zn132 2.120 . S
O141 C134 1.299 1_545 S
O142 Zn130 1.898 . S
O142 C137 1.167 . S
O143 Zn132 2.120 . S
O143 C137 1.299 . S
O144 Zn132 2.114 . S
O144 C146 1.166 . S
O145 Zn130 1.905 . S
O145 C146 1.182 . S
C146 O144 1.166 . S
C146 O145 1.182 . S
O147 Zn132 2.080 . S
O147 C150 1.305 . S
O148 Zn131 1.920 . S
O148 C150 1.234 . S
C149 O135 1.305 . S
C149 O136 1.234 . S
C150 O147 1.305 . S
C150 O148 1.234 . S
Zn151 O157 1.920 1_655 S
Zn151 O163 1.898 . S
Zn151 O166 1.905 . S
Zn152 O160 1.905 . S
Zn152 O161 1.898 . S
Zn152 O169 1.920 . S
Zn153 O156 2.080 . S
Zn153 O159 2.114 . S
Zn153 O162 2.120 . S
Zn153 O164 2.120 . S
Zn153 O165 2.114 1_455 S
Zn153 O168 2.080 . S
C154 O159 1.166 . S
C154 O160 1.182 . S
C155 O161 1.167 . S
C155 O162 1.299 . S
O156 Zn153 2.080 . S
O156 C170 1.305 . S
O157 Zn151 1.920 1_455 S
O157 C170 1.234 . S
C158 O163 1.167 1_455 S
C158 O164 1.299 . S
O159 Zn153 2.114 . S
O159 C154 1.166 . S
O160 Zn152 1.905 . S
O160 C154 1.182 . S
O161 Zn152 1.898 . S
O161 C155 1.167 . S
O162 Zn153 2.120 . S
O162 C155 1.299 . S
O163 Zn151 1.898 . S
O163 C158 1.167 1_655 S
O164 Zn153 2.120 . S
O164 C158 1.299 . S
O165 Zn153 2.114 1_655 S
O165 C167 1.166 . S
O166 Zn151 1.905 . S
O166 C167 1.182 . S
C167 O165 1.166 . S
C167 O166 1.182 . S
O168 Zn153 2.080 . S
O168 C171 1.305 . S
O169 Zn152 1.920 . S
O169 C171 1.234 . S
C170 O156 1.305 . S
C170 O157 1.234 . S
C171 O168 1.305 . S
C171 O169 1.234 . S
C95 C6 1.406 . S
C113 N15 1.420 . S
N26 C137 1.337 . S
C167 C39 1.161 . S
C155 C50 1.278 . S
N59 C108 1.456 . S
N70 C128 1.479 . S
C83 C133 1.214 . S
N81 C149 1.435 . S
C61 C104 1.209 . S
C171 N37 1.463 . S
C116 C17 1.132 . S
C28 C134 1.386 . S
N4 C92 1.342 1_545 S
C112 C72 1.285 . S
C158 N48 1.453 1_545 S
C154 C9 1.270 1_556 S
C107 C20 1.748 . S
C31 C129 1.231 . S
C42 C150 1.746 . S
C91 C53 1.268 1_554 S
C64 C125 1.583 . S
C146 C75 1.297 . S
C170 C86 1.549 . S
