# Generated by pormake.
# Topology ftw, (4,12)-cn, num edge types: 1
# Building blocks:
#     Node 0, Type 0, BuildingBlock: GIZVER_clean_linker_0, # of connection points: 4
#     Node 1, Type 0, BuildingBlock: GIZVER_clean_linker_0, # of connection points: 4
#     Node 2, Type 0, BuildingBlock: GIZVER_clean_linker_0, # of connection points: 4
#     Node 3, Type 1, BuildingBlock: QEWDON_clean_sbu_0, # of connection points: 12
#     Edge 4, Type (0, 1), None
#     Edge 5, Type (0, 1), None
#     Edge 6, Type (0, 1), None
#     Edge 7, Type (0, 1), None
#     Edge 8, Type (0, 1), None
#     Edge 9, Type (0, 1), None
#     Edge 10, Type (0, 1), None
#     Edge 11, Type (0, 1), None
#     Edge 12, Type (0, 1), None
#     Edge 13, Type (0, 1), None
#     Edge 14, Type (0, 1), None
#     Edge 15, Type (0, 1), None
# Relax obj value: 0.122
# Max RMSD: 0.251
# Mean RMSD: 0.210
data_MOF--net-ftw--node1-QEWDON_clean_sbu_0--node2-GIZVER_clean_linker_0--edge1-none
_symmetry_space_group_name_H-M    P1
_symmetry_Int_Tables_number       1
_symmetry_cell_setting            triclinic
loop_
_symmetry_equiv_pos_as_xyz
'x, y, z'
_cell_length_a     13.677693
_cell_length_b     14.428538
_cell_length_c     11.2431
_cell_angle_alpha  87.924131
_cell_angle_beta   90.890303
_cell_angle_gamma 87.468156
loop_
_atom_site_label
_atom_site_type_symbol
_atom_site_fract_x
_atom_site_fract_y
_atom_site_fract_z
_atom_type_partial_charge
H0 H 0.9225 0.34806 0.3084 0.0
H1 H 0.93132 0.38207 0.68569 0.0
H2 H 1.0024 0.1162 0.54386 0.0
H3 H 0.83631 0.47811 0.39147 0.0
H4 H 0.81073 0.47134 0.54595 0.0
H5 H 0.95066 0.58458 0.31695 0.0
H6 H 0.09212 0.76617 0.55217 0.0
H7 H 0.93097 0.53911 0.69509 0.0
C8 C 0.9444 0.32177 0.39687 0.0
C9 C 0.97471 0.22741 0.41407 0.0
C10 C 0.92957 0.37872 0.49506 0.0
C11 C 0.94916 0.34087 0.60987 0.0
C12 C 0.97583 0.24648 0.62831 0.0
C13 C 0.9899 0.19059 0.53004 0.0
C14 C 0.87154 0.47071 0.48132 0.0
C15 C 0.93246 0.55355 0.5034 0.0
C16 C 0.96462 0.60663 0.40623 0.0
C17 C 0.01919 0.68482 0.42321 0.0
C18 C 0.04571 0.7082 0.53955 0.0
C19 C 0.01589 0.65509 0.63887 0.0
C20 C 0.95679 0.57916 0.61967 0.0
H21 H 0.46773 0.04618 0.30961 0.0
H22 H 0.42126 0.17333 0.6455 0.0
H23 H 0.18133 0.05442 0.46161 0.0
H24 H 0.58473 0.17262 0.40486 0.0
H25 H 0.57827 0.17941 0.56243 0.0
H26 H 0.66436 0.04282 0.31654 0.0
H27 H 0.77768 0.81181 0.53616 0.0
H28 H 0.59853 0.02768 0.68967 0.0
C29 C 0.41876 0.06877 0.37876 0.0
C30 C 0.31938 0.04851 0.37212 0.0
C31 C 0.45579 0.11488 0.47687 0.0
C32 C 0.39235 0.14006 0.56837 0.0
C33 C 0.29338 0.11795 0.56407 0.0
C34 C 0.257 0.07394 0.46436 0.0
C35 C 0.56323 0.13426 0.48672 0.0
C36 C 0.62519 0.04528 0.5017 0.0
C37 C 0.67224 0.00758 0.40309 0.0
C38 C 0.7268 0.92327 0.41524 0.0
C39 C 0.73459 0.87667 0.52681 0.0
C40 C 0.68968 0.91377 0.6268 0.0
C41 C 0.63446 -0.00171 0.61355 0.0
H42 H 0.593 0.25551 0.23103 0.0
H43 H 0.65553 0.54145 0.27439 0.0
H44 H 0.78783 0.39234 0.99079 0.0
H45 H 0.53623 0.34146 0.41139 0.0
H46 H 0.55365 0.46407 0.41795 0.0
H47 H 0.40608 0.28354 0.28927 0.0
H48 H 0.23287 0.46983 0.05811 0.0
H49 H 0.46475 0.57493 0.2698 0.0
C50 C 0.6319 0.3161 0.20369 0.0
C51 C 0.69466 0.31189 0.10631 0.0
C52 C 0.6177 0.39867 0.2647 0.0
C53 C 0.66748 0.47724 0.22836 0.0
C54 C 0.72712 0.47563 0.12829 0.0
C55 C 0.73966 0.39343 0.06642 0.0
C56 C 0.53941 0.40705 0.35683 0.0
C57 C 0.44412 0.42748 0.29063 0.0
C58 C 0.38749 0.35376 0.25626 0.0
C59 C 0.31232 0.36973 0.17139 0.0
C60 C 0.2924 0.45872 0.12269 0.0
C61 C 0.34533 0.53343 0.15871 0.0
C62 C 0.42131 0.51783 0.24349 0.0
Zn63 Zn 0.1745 0.21499 0.89694 0.0
Zn64 Zn 0.14385 0.12268 0.16263 0.0
O65 O 0.11684 0.10865 0.98731 0.0
H66 H 0.10683 0.05055 0.9499 0.0
C67 C 0.96453 0.20374 0.7479 0.0
O68 O 0.96783 0.25532 0.84174 0.0
Zn69 Zn 0.86959 0.73637 0.18364 0.0
Zn70 Zn 0.79026 0.72531 0.9163 0.0
O71 O 0.84476 0.81181 1.03443 0.0
H72 H 0.87693 0.86795 1.01242 0.0
Zn73 Zn 0.85618 0.10429 0.91565 0.0
O74 O 0.92768 0.04821 0.05988 0.0
Zn75 Zn 0.82207 0.06149 0.17933 0.0
H76 H 0.97405 -0.00409 0.06055 0.0
Zn77 Zn 0.18215 0.74936 0.94598 0.0
O78 O 0.16914 0.85702 0.05823 0.0
H79 H 0.11376 0.90075 0.05728 0.0
Zn80 Zn 0.24197 0.80561 0.20667 0.0
C81 C 0.05212 0.67401 0.76112 0.0
O82 O 0.03098 0.61845 0.85139 0.0
O83 O 0.23942 0.29809 1.01229 0.0
O84 O 0.2286 0.23018 0.19307 0.0
O85 O 0.75352 0.5957 0.98397 0.0
O86 O 0.8169 0.60741 0.16673 0.0
O87 O 0.78445 0.2201 0.97289 0.0
O88 O 0.70811 0.14623 0.11687 0.0
C89 C 0.2848 -0.01705 0.28561 0.0
O90 O 0.25204 0.63532 1.02761 0.0
O91 O 0.33129 0.69556 0.17846 0.0
O92 O 0.74574 0.78436 0.75223 0.0
C93 C 0.25832 0.29428 0.12358 0.0
O94 O 0.25332 0.19273 0.74351 0.0
C95 C 0.77253 0.88036 0.31186 0.0
O96 O 0.9262 0.12536 0.7576 0.0
C97 C 0.77233 0.56191 0.08873 0.0
O98 O 0.11139 0.73821 0.77843 0.0
C99 C 0.95241 0.16225 0.32101 0.0
O100 O 0.21446 0.00356 0.21327 0.0
O101 O 0.31732 0.8995 0.29346 0.0
C102 C 0.72375 0.22106 0.05704 0.0
O103 O 0.79158 0.79343 0.31461 0.0
O104 O 0.80086 0.92795 0.22293 0.0
C105 C 0.06269 0.73156 0.31958 0.0
O106 O 0.86721 0.1315 0.31815 0.0
O107 O 1.01366 0.13413 0.24484 0.0
C108 C 0.31276 0.62717 0.11503 0.0
O109 O 0.15113 0.75394 0.32837 0.0
O110 O 0.01604 0.74534 0.22103 0.0
C111 C 0.70461 0.8654 0.74458 0.0
O112 O 0.68385 0.90863 0.84252 0.0
C113 C 0.23059 0.1339 0.66775 0.0
O114 O 0.15499 0.08278 0.68706 0.0
loop_
_geom_bond_atom_site_label_1
_geom_bond_atom_site_label_2
_geom_bond_distance
_geom_bond_site_symmetry_2
_ccdc_geom_bond_type
H0 C8 0.930 . S
H1 C11 0.930 . S
H2 C13 0.930 . S
H3 C14 0.970 . S
H4 C14 0.970 . S
H5 C16 0.930 . S
H6 C18 0.930 . S
H7 C20 0.930 . S
C8 H0 0.930 . S
C8 C9 1.382 . S
C8 C10 1.426 . S
C9 C8 1.382 . S
C9 C13 1.389 1_655 S
C10 C8 1.426 . S
C10 C11 1.375 . S
C10 C14 1.532 . S
C11 H1 0.930 . S
C11 C10 1.375 . S
C11 C12 1.416 . S
C12 C11 1.416 . S
C12 C13 1.371 1_655 S
C13 H2 0.930 . S
C13 C9 1.389 1_455 S
C13 C12 1.371 1_455 S
C14 H3 0.970 . S
C14 H4 0.970 . S
C14 C10 1.532 . S
C14 C15 1.499 . S
C15 C14 1.499 . S
C15 C16 1.370 . S
C15 C20 1.415 . S
C16 H5 0.930 . S
C16 C15 1.370 . S
C16 C17 1.407 . S
C17 C16 1.407 . S
C17 C18 1.365 1_655 S
C18 H6 0.930 . S
C18 C17 1.365 1_455 S
C18 C19 1.393 1_455 S
C19 C18 1.393 1_655 S
C19 C20 1.387 . S
C20 H7 0.930 . S
C20 C15 1.415 . S
C20 C19 1.387 . S
H21 C29 0.930 . S
H22 C32 0.930 . S
H23 C34 0.930 . S
H24 C35 0.970 . S
H25 C35 0.970 . S
H26 C37 0.930 . S
H27 C39 0.930 . S
H28 C41 0.930 . S
C29 H21 0.930 . S
C29 C30 1.382 . S
C29 C31 1.426 . S
C30 C29 1.382 . S
C30 C34 1.389 1_545 S
C31 C29 1.426 . S
C31 C32 1.375 . S
C31 C35 1.532 . S
C32 H22 0.930 . S
C32 C31 1.375 . S
C32 C33 1.416 . S
C33 C32 1.416 . S
C33 C34 1.371 1_545 S
C34 H23 0.930 . S
C34 C30 1.389 1_565 S
C34 C33 1.371 1_565 S
C35 H24 0.970 . S
C35 H25 0.970 . S
C35 C31 1.532 . S
C35 C36 1.499 . S
C36 C35 1.499 . S
C36 C37 1.370 . S
C36 C41 1.415 . S
C37 H26 0.930 . S
C37 C36 1.370 . S
C37 C38 1.407 . S
C38 C37 1.407 . S
C38 C39 1.365 1_545 S
C39 H27 0.930 . S
C39 C38 1.365 1_565 S
C39 C40 1.393 1_565 S
C40 C39 1.393 1_545 S
C40 C41 1.387 . S
C41 H28 0.930 . S
C41 C36 1.415 . S
C41 C40 1.387 . S
H42 C50 0.930 . S
H43 C53 0.930 . S
H44 C55 0.930 . S
H45 C56 0.970 . S
H46 C56 0.970 . S
H47 C58 0.930 . S
H48 C60 0.930 . S
H49 C62 0.930 . S
C50 H42 0.930 . S
C50 C51 1.382 . S
C50 C52 1.426 . S
C51 C50 1.382 . S
C51 C55 1.389 1_554 S
C52 C50 1.426 . S
C52 C53 1.375 . S
C52 C56 1.532 . S
C53 H43 0.930 . S
C53 C52 1.375 . S
C53 C54 1.416 . S
C54 C53 1.416 . S
C54 C55 1.371 1_554 S
C55 H44 0.930 . S
C55 C51 1.389 1_556 S
C55 C54 1.371 1_556 S
C56 H45 0.970 . S
C56 H46 0.970 . S
C56 C52 1.532 . S
C56 C57 1.499 . S
C57 C56 1.499 . S
C57 C58 1.370 . S
C57 C62 1.415 . S
C58 H47 0.930 . S
C58 C57 1.370 . S
C58 C59 1.407 . S
C59 C58 1.407 . S
C59 C60 1.365 1_554 S
C60 H48 0.930 . S
C60 C59 1.365 1_556 S
C60 C61 1.393 1_556 S
C61 C60 1.393 1_554 S
C61 C62 1.387 . S
C62 H49 0.930 . S
C62 C57 1.415 . S
C62 C61 1.387 . S
Zn63 O65 1.933 1_556 S
Zn63 O83 1.985 . S
Zn63 O94 1.955 . S
Zn64 O65 1.911 . S
Zn64 O84 1.970 . S
Zn64 O100 1.945 . S
Zn64 O107 1.981 . S
O65 Zn63 1.933 1_554 S
O65 Zn64 1.911 . S
O65 H66 0.841 1_554 S
H66 O65 0.841 1_556 S
C67 O68 1.246 . S
C67 O96 1.276 1_455 S
O68 C67 1.246 . S
Zn69 O71 1.911 . S
Zn69 O86 1.970 . S
Zn69 O103 1.945 . S
Zn69 O110 1.981 . S
Zn70 O71 1.933 1_556 S
Zn70 O85 1.985 . S
Zn70 O92 1.955 . S
O71 Zn69 1.911 . S
O71 Zn70 1.933 1_554 S
O71 H72 0.841 1_554 S
H72 O71 0.841 1_556 S
Zn73 O74 1.933 1_556 S
Zn73 O87 1.985 . S
Zn73 O96 1.955 . S
O74 Zn73 1.933 1_554 S
O74 Zn75 1.911 . S
O74 H76 0.841 1_554 S
Zn75 O74 1.911 . S
Zn75 O88 1.970 . S
Zn75 O104 1.981 . S
Zn75 O106 1.945 . S
H76 O74 0.841 1_556 S
Zn77 O78 1.933 1_556 S
Zn77 O90 1.985 . S
Zn77 O98 1.955 . S
O78 Zn77 1.933 1_554 S
O78 H79 0.841 1_554 S
O78 Zn80 1.911 . S
H79 O78 0.841 1_556 S
Zn80 O78 1.911 . S
Zn80 O91 1.970 . S
Zn80 O101 1.981 . S
Zn80 O109 1.945 . S
C81 O82 1.246 . S
C81 O98 1.276 1_655 S
O82 C81 1.246 . S
O83 Zn63 1.985 . S
O83 C93 1.245 1_556 S
O84 Zn64 1.970 . S
O84 C93 1.263 . S
O85 Zn70 1.985 . S
O85 C97 1.245 1_556 S
O86 Zn69 1.970 . S
O86 C97 1.263 . S
O87 Zn73 1.985 . S
O87 C102 1.245 1_556 S
O88 Zn75 1.970 . S
O88 C102 1.263 . S
C89 O100 1.262 . S
C89 O101 1.245 1_545 S
O90 Zn77 1.985 . S
O90 C108 1.245 1_556 S
O91 Zn80 1.970 . S
O91 C108 1.263 . S
O92 Zn70 1.955 . S
O92 C111 1.276 1_565 S
C93 O83 1.245 1_554 S
C93 O84 1.263 . S
O94 Zn63 1.955 . S
O94 C113 1.276 1_545 S
C95 O103 1.263 . S
C95 O104 1.244 1_565 S
O96 C67 1.276 1_655 S
O96 Zn73 1.955 . S
C97 O85 1.245 1_554 S
C97 O86 1.263 . S
O98 Zn77 1.955 . S
O98 C81 1.276 1_455 S
C99 O106 1.253 1_455 S
C99 O107 1.250 . S
O100 Zn64 1.945 . S
O100 C89 1.262 . S
O101 Zn80 1.981 . S
O101 C89 1.245 1_565 S
C102 O87 1.245 1_554 S
C102 O88 1.263 . S
O103 Zn69 1.945 . S
O103 C95 1.263 . S
O104 Zn75 1.981 . S
O104 C95 1.244 1_545 S
C105 O109 1.266 . S
C105 O110 1.242 1_455 S
O106 Zn75 1.945 . S
O106 C99 1.253 1_655 S
O107 Zn64 1.981 . S
O107 C99 1.250 . S
C108 O90 1.245 1_554 S
C108 O91 1.263 . S
O109 Zn80 1.945 . S
O109 C105 1.266 . S
O110 Zn69 1.981 . S
O110 C105 1.242 1_655 S
C111 O92 1.276 1_545 S
C111 O112 1.246 . S
O112 C111 1.246 . S
C113 O94 1.276 1_565 S
C113 O114 1.246 . S
O114 C113 1.246 . S
C99 C9 1.647 1_455 S
C95 C38 1.821 1_565 S
C105 C17 1.629 1_455 S
C89 C30 1.827 . S
C19 C81 1.658 . S
C113 C33 1.904 1_565 S
C12 C67 1.678 1_655 S
C40 C111 1.900 . S
C59 C93 1.275 . S
C61 C108 1.712 . S
C102 C51 1.713 . S
C97 C54 1.262 . S
