# Generated by pormake.
# Topology dag, (6,3)-cn, num edge types: 1
# Building blocks:
#     Node 0, Type 0, BuildingBlock: MIDCAF_clean_sbu_0, # of connection points: 6
#     Node 1, Type 0, BuildingBlock: MIDCAF_clean_sbu_0, # of connection points: 6
#     Node 2, Type 0, BuildingBlock: MIDCAF_clean_sbu_0, # of connection points: 6
#     Node 3, Type 0, BuildingBlock: MIDCAF_clean_sbu_0, # of connection points: 6
#     Node 4, Type 1, BuildingBlock: CUQRIR_clean_linker_1, # of connection points: 3
#     Node 5, Type 1, BuildingBlock: CUQRIR_clean_linker_1, # of connection points: 3
#     Node 6, Type 1, BuildingBlock: CUQRIR_clean_linker_1, # of connection points: 3
#     Node 7, Type 1, BuildingBlock: CUQRIR_clean_linker_1, # of connection points: 3
#     Node 8, Type 1, BuildingBlock: CUQRIR_clean_linker_1, # of connection points: 3
#     Node 9, Type 1, BuildingBlock: CUQRIR_clean_linker_1, # of connection points: 3
#     Node 10, Type 1, BuildingBlock: CUQRIR_clean_linker_1, # of connection points: 3
#     Node 11, Type 1, BuildingBlock: CUQRIR_clean_linker_1, # of connection points: 3
#     Edge 12, Type (0, 1), None
#     Edge 13, Type (0, 1), None
#     Edge 14, Type (0, 1), None
#     Edge 15, Type (0, 1), None
#     Edge 16, Type (0, 1), None
#     Edge 17, Type (0, 1), None
#     Edge 18, Type (0, 1), None
#     Edge 19, Type (0, 1), None
#     Edge 20, Type (0, 1), None
#     Edge 21, Type (0, 1), None
#     Edge 22, Type (0, 1), None
#     Edge 23, Type (0, 1), None
#     Edge 24, Type (0, 1), None
#     Edge 25, Type (0, 1), None
#     Edge 26, Type (0, 1), None
#     Edge 27, Type (0, 1), None
#     Edge 28, Type (0, 1), None
#     Edge 29, Type (0, 1), None
#     Edge 30, Type (0, 1), None
#     Edge 31, Type (0, 1), None
#     Edge 32, Type (0, 1), None
#     Edge 33, Type (0, 1), None
#     Edge 34, Type (0, 1), None
#     Edge 35, Type (0, 1), None
# Relax obj value: 0.113
# Max RMSD: 0.131
# Mean RMSD: 0.112
data_MOF--net-dag--node1-MIDCAF_clean_sbu_0--node2-CUQRIR_clean_linker_1--edge1-none
_symmetry_space_group_name_H-M    P1
_symmetry_Int_Tables_number       1
_symmetry_cell_setting            triclinic
loop_
_symmetry_equiv_pos_as_xyz
'x, y, z'
_cell_length_a     17.268431
_cell_length_b     17.270234
_cell_length_c     8.5322342
_cell_angle_alpha  90.318994
_cell_angle_beta   90.220387
_cell_angle_gamma 90.006401
loop_
_atom_site_label
_atom_site_type_symbol
_atom_site_fract_x
_atom_site_fract_y
_atom_site_fract_z
_atom_type_partial_charge
Zn0 Zn 0.0455 0.81577 0.52542 0.0
Zn1 Zn 0.04907 0.81847 0.88165 0.0
Zn2 Zn 0.04695 0.81732 0.20342 0.0
C3 C 0.08226 -0.03665 0.9514 0.0
C4 C 0.89517 0.78284 1.02276 0.0
O5 O 0.13783 0.73613 0.28581 0.0
O6 O 0.12564 0.73458 0.54359 0.0
C7 C 0.08128 -0.03061 0.38365 0.0
O8 O 0.0673 0.93183 1.08533 0.0
O9 O 0.08711 0.92253 0.82945 0.0
O10 O -0.06771 0.7996 0.89945 0.0
O11 O 0.92953 0.7831 1.15591 0.0
O12 O 0.06452 0.9325 0.50717 0.0
O13 O 0.08106 -0.06519 0.25062 0.0
O14 O -0.06767 0.7972 0.32117 0.0
O15 O -0.05871 0.77799 0.5772 0.0
C16 C 0.90065 0.78254 0.45512 0.0
O17 O 0.12819 0.72626 1.12168 0.0
O18 O 0.1301 0.73816 0.8639 0.0
C19 C 0.15801 0.70992 0.42118 0.0
C20 C 0.15452 0.70586 0.98639 0.0
Zn21 Zn 0.54582 0.54692 0.37794 0.0
Zn22 Zn 0.54907 0.54859 1.023 0.0
Zn23 Zn 0.54665 0.54772 0.70101 0.0
C24 C 0.58246 0.40318 0.95726 0.0
C25 C 0.39491 0.58355 0.87918 0.0
O26 O 0.63734 0.62868 0.61746 0.0
O27 O 0.62549 0.62867 0.35934 0.0
C28 C 0.58158 0.39428 0.52522 0.0
O29 O 0.5673 0.43394 0.82241 0.0
O30 O 0.58726 0.44469 1.07836 0.0
O31 O 0.43225 0.56766 1.00326 0.0
O32 O 0.42905 0.58219 0.74632 0.0
O33 O 0.56561 0.43038 0.40003 0.0
O34 O 0.58051 0.42973 0.65733 0.0
O35 O 0.43227 0.56722 0.58146 0.0
O36 O 0.44116 0.58383 0.32477 0.0
C37 C 0.40062 0.58076 0.44655 0.0
O38 O 0.62785 0.63941 0.78102 0.0
O39 O 0.63003 0.62918 1.03912 0.0
C40 C 0.65751 0.65428 0.48188 0.0
C41 C 0.6542 0.6608 0.91606 0.0
Zn42 Zn 0.81787 0.04908 0.87942 0.0
Zn43 Zn 0.81484 0.04697 0.52576 0.0
Zn44 Zn 0.81695 0.0473 0.20268 0.0
C45 C -0.03915 0.08111 0.46315 0.0
C46 C 0.78011 0.89391 0.3749 0.0
O47 O 0.73609 0.13872 1.12099 0.0
O48 O 0.73616 0.12903 0.8625 0.0
C49 C -0.02933 0.08396 1.03091 0.0
O50 O 0.93032 0.06726 0.32693 0.0
O51 O 0.91926 0.08412 0.58358 0.0
O52 O 0.79481 0.93038 0.50108 0.0
O53 O 0.78274 0.92903 0.24328 0.0
O54 O -0.06556 0.06922 0.90454 0.0
O55 O -0.0647 0.0814 1.16239 0.0
O56 O 0.79718 -0.06617 1.07878 0.0
O57 O 0.78093 -0.05547 0.822 0.0
C58 C 0.78362 0.90313 0.94256 0.0
O59 O 0.72535 0.1282 0.28369 0.0
O60 O 0.73474 0.12856 0.54217 0.0
C61 C 0.71064 0.16013 0.98571 0.0
C62 C 0.70372 0.15381 0.41886 0.0
Zn63 Zn 0.31792 0.31803 1.02833 0.0
Zn64 Zn 0.31519 0.31575 0.38281 0.0
Zn65 Zn 0.31666 0.31776 0.70503 0.0
C66 C 0.46082 0.28223 0.44724 0.0
C67 C 0.28039 0.46976 0.52835 0.0
O68 O 0.23576 0.22697 0.7885 0.0
O69 O 0.23608 0.23838 1.04674 0.0
C70 C 0.47041 0.28242 0.87928 0.0
O71 O 0.43023 0.29719 0.58251 0.0
O72 O 0.41915 0.27773 0.32643 0.0
O73 O 0.29591 0.43252 0.40376 0.0
O74 O 0.28218 0.4355 0.66095 0.0
O75 O 0.43443 0.29803 1.00498 0.0
O76 O 0.43481 0.28391 0.74746 0.0
O77 O 0.2972 0.43193 0.82566 0.0
O78 O 0.28115 0.42275 1.0825 0.0
C79 C 0.28387 0.46342 0.96098 0.0
O80 O 0.22487 0.23661 0.62519 0.0
O81 O 0.23465 0.23469 0.36697 0.0
C82 C 0.21031 0.20658 0.92407 0.0
C83 C 0.20326 0.21038 0.49019 0.0
C84 C 0.0767 0.15205 0.53402 0.0
N85 N 0.0387 0.08957 0.47612 0.0
N86 N 0.15013 0.15273 0.47889 0.0
C87 C 0.03797 0.21851 0.61763 0.0
C88 C 0.15533 0.08751 0.38952 0.0
N89 N 0.08779 0.04783 0.39169 0.0
C90 C 0.22916 0.05871 0.31615 0.0
H91 H 0.07994 0.26264 0.65923 0.0
H92 H 0.00488 0.19633 0.7191 0.0
H93 H -0.00396 0.24637 0.53676 0.0
H94 H 0.27709 0.06215 0.40299 0.0
H95 H 0.24455 0.09667 0.21665 0.0
H96 H 0.22365 -0.00149 0.27168 0.0
C97 C 0.21291 0.57928 1.02959 0.0
N98 N 0.2751 0.54124 0.97178 0.0
N99 N 0.21194 0.65256 0.97409 0.0
C100 C 0.14675 0.54052 1.11287 0.0
C101 C 0.27674 0.65759 0.88453 0.0
N102 N 0.31644 0.59004 0.88678 0.0
C103 C 0.30536 0.73133 0.8113 0.0
H104 H 0.10211 0.58222 1.15246 0.0
H105 H 0.16921 0.50837 0.21562 0.0
H106 H 0.11936 0.49769 1.03257 0.0
H107 H 0.30319 0.77909 0.89877 0.0
H108 H 0.26653 0.74722 0.71285 0.0
H109 H 0.36507 0.72542 0.76543 0.0
C110 C 0.70572 0.77621 0.37917 0.0
N111 N 0.7737 0.81533 0.3796 0.0
N112 N 0.71087 0.71159 0.46917 0.0
C113 C 0.6316 0.80534 0.30712 0.0
C114 C 0.78464 0.71201 0.52322 0.0
N115 N 0.82281 0.77354 0.46384 0.0
C116 C 0.82334 0.64597 0.60755 0.0
H117 H 0.5854 0.80652 0.39719 0.0
H118 H 0.61279 0.76493 0.21305 0.0
H119 H 0.6385 0.86378 0.25581 0.0
H120 H 0.78173 0.60094 0.6448 0.0
H121 H 0.85455 0.66855 0.71207 0.0
H122 H 0.86699 0.61909 0.52913 0.0
C123 C 0.65297 0.28723 1.02761 0.0
N124 N 0.59115 0.32533 0.96804 0.0
N125 N 0.65309 0.21332 0.97396 0.0
C126 C 0.71929 0.32592 1.11232 0.0
C127 C 0.58806 0.20799 0.88407 0.0
N128 N 0.54896 0.27594 0.88432 0.0
C129 C 0.55876 0.1338 0.81179 0.0
H130 H 0.76385 0.28407 1.15153 0.0
H131 H 0.69697 0.35802 0.21564 0.0
H132 H 0.74663 0.36875 1.03334 0.0
H133 H 0.55921 0.08728 0.90104 0.0
H134 H 0.59821 0.11577 0.71611 0.0
H135 H 0.49962 0.14022 0.76246 0.0
C136 C 0.57674 0.21162 0.37646 0.0
N137 N 0.53867 0.27362 0.43571 0.0
N138 N 0.65058 0.21142 0.43035 0.0
C139 C 0.53803 0.14523 0.29194 0.0
C140 C 0.65591 0.27654 0.52011 0.0
N141 N 0.58805 0.31576 0.5195 0.0
C142 C 0.73005 0.30573 0.59269 0.0
H143 H 0.57993 0.10083 0.25196 0.0
H144 H 0.50559 0.16749 1.18917 0.0
H145 H 0.4955 0.11773 0.3714 0.0
H146 H 0.77698 0.30423 0.50419 0.0
H147 H 0.74728 0.26683 0.68967 0.0
H148 H 0.72395 0.36527 0.64039 0.0
C149 C 0.08829 0.15842 1.02671 0.0
N150 N 0.04926 0.09038 1.02656 0.0
N151 N 0.15298 0.15323 0.93667 0.0
C152 C 0.05901 0.23259 1.09861 0.0
C153 C 0.15272 0.07937 0.88291 0.0
N154 N 0.09122 0.04119 0.94254 0.0
C155 C 0.2188 0.0407 0.79833 0.0
H156 H 0.05742 0.27852 1.00818 0.0
H157 H 0.09957 0.25185 1.19198 0.0
H158 H 0.00072 0.22558 1.15074 0.0
H159 H 0.26379 0.08235 0.76102 0.0
H160 H 0.19626 0.00945 0.69381 0.0
H161 H 0.24572 -0.0029 0.87658 0.0
C162 C 0.20631 0.58784 0.52329 0.0
N163 N 0.27396 0.54826 0.52136 0.0
N164 N 0.21135 0.65256 0.43366 0.0
C165 C 0.13251 0.55916 0.59633 0.0
C166 C 0.28471 0.65166 0.3784 0.0
N167 N 0.32279 0.58964 0.43645 0.0
C168 C 0.32347 0.71776 0.29499 0.0
H169 H 0.08501 0.56063 0.50836 0.0
H170 H 0.11606 0.59836 0.69398 0.0
H171 H 0.13863 0.49972 0.64323 0.0
H172 H 0.28182 0.76255 0.25619 0.0
H173 H 0.3553 0.69525 1.1917 0.0
H174 H 0.36659 0.74497 0.37485 0.0
C175 C 0.71262 0.78729 0.8721 0.0
N176 N 0.77514 0.82529 0.92973 0.0
N177 N 0.71181 0.71397 0.92753 0.0
C178 C 0.64619 0.82601 0.78869 0.0
C179 C 0.77697 0.70884 1.01687 0.0
N180 N 0.81674 0.77631 1.01437 0.0
C181 C 0.80569 0.63509 1.09034 0.0
H182 H 0.60202 0.78408 0.74719 0.0
H183 H 0.66841 0.85903 0.68721 0.0
H184 H 0.61835 0.86801 0.86969 0.0
H185 H 0.80223 0.58705 1.00361 0.0
H186 H 0.7677 0.61988 1.18998 0.0
H187 H 0.8659 0.6406 1.13462 0.0
loop_
_geom_bond_atom_site_label_1
_geom_bond_atom_site_label_2
_geom_bond_distance
_geom_bond_site_symmetry_2
_ccdc_geom_bond_type
Zn0 O6 1.920 . S
Zn0 O12 1.898 . S
Zn0 O15 1.905 1_455 S
Zn1 O9 1.905 1_565 S
Zn1 O10 1.898 . S
Zn1 O18 1.920 . S
Zn2 O5 2.083 . S
Zn2 O8 2.112 1_554 S
Zn2 O11 2.117 1_554 S
Zn2 O13 2.122 . S
Zn2 O14 2.116 . S
Zn2 O17 2.078 1_554 S
C3 O8 1.166 1_545 S
C3 O9 1.182 . S
C4 O10 1.167 1_655 S
C4 O11 1.299 1_655 S
O5 Zn2 2.083 . S
O5 C19 1.305 . S
O6 Zn0 1.920 . S
O6 C19 1.234 . S
C7 O12 1.167 1_545 S
C7 O13 1.299 1_545 S
O8 Zn2 2.112 1_556 S
O8 C3 1.166 1_565 S
O9 Zn1 1.905 1_545 S
O9 C3 1.182 . S
O10 Zn1 1.898 . S
O10 C4 1.167 1_455 S
O11 Zn2 2.117 1_556 S
O11 C4 1.299 1_455 S
O12 Zn0 1.898 . S
O12 C7 1.167 1_565 S
O13 Zn2 2.122 . S
O13 C7 1.299 1_565 S
O14 Zn2 2.116 . S
O14 C16 1.166 1_455 S
O15 Zn0 1.905 1_655 S
O15 C16 1.182 . S
C16 O14 1.166 1_655 S
C16 O15 1.182 . S
O17 Zn2 2.078 1_556 S
O17 C20 1.305 . S
O18 Zn1 1.920 . S
O18 C20 1.234 . S
C19 O5 1.305 . S
C19 O6 1.234 . S
C20 O17 1.305 . S
C20 O18 1.234 . S
Zn21 O27 1.920 . S
Zn21 O33 1.898 . S
Zn21 O36 1.905 . S
Zn22 O30 1.905 . S
Zn22 O31 1.898 . S
Zn22 O39 1.920 . S
Zn23 O26 2.080 . S
Zn23 O29 2.114 . S
Zn23 O32 2.120 . S
Zn23 O34 2.120 . S
Zn23 O35 2.114 . S
Zn23 O38 2.080 . S
C24 O29 1.166 . S
C24 O30 1.182 . S
C25 O31 1.167 . S
C25 O32 1.299 . S
O26 Zn23 2.080 . S
O26 C40 1.305 . S
O27 Zn21 1.920 . S
O27 C40 1.234 . S
C28 O33 1.167 . S
C28 O34 1.299 . S
O29 Zn23 2.114 . S
O29 C24 1.166 . S
O30 Zn22 1.905 . S
O30 C24 1.182 . S
O31 Zn22 1.898 . S
O31 C25 1.167 . S
O32 Zn23 2.120 . S
O32 C25 1.299 . S
O33 Zn21 1.898 . S
O33 C28 1.167 . S
O34 Zn23 2.120 . S
O34 C28 1.299 . S
O35 Zn23 2.114 . S
O35 C37 1.166 . S
O36 Zn21 1.905 . S
O36 C37 1.182 . S
C37 O35 1.166 . S
C37 O36 1.182 . S
O38 Zn23 2.080 . S
O38 C41 1.305 . S
O39 Zn22 1.920 . S
O39 C41 1.234 . S
C40 O26 1.305 . S
C40 O27 1.234 . S
C41 O38 1.305 . S
C41 O39 1.234 . S
Zn42 O48 1.920 . S
Zn42 O54 1.898 . S
Zn42 O57 1.905 1_545 S
Zn43 O51 1.905 1_655 S
Zn43 O52 1.898 . S
Zn43 O60 1.920 . S
Zn44 O47 2.078 1_554 S
Zn44 O50 2.116 . S
Zn44 O53 2.122 . S
Zn44 O55 2.117 1_554 S
Zn44 O56 2.111 1_554 S
Zn44 O59 2.083 . S
C45 O50 1.166 1_455 S
C45 O51 1.182 . S
C46 O52 1.167 1_565 S
C46 O53 1.299 1_565 S
O47 Zn44 2.078 1_556 S
O47 C61 1.305 . S
O48 Zn42 1.920 . S
O48 C61 1.234 . S
C49 O54 1.167 1_455 S
C49 O55 1.299 1_455 S
O50 Zn44 2.116 . S
O50 C45 1.166 1_655 S
O51 Zn43 1.905 1_455 S
O51 C45 1.182 . S
O52 Zn43 1.898 . S
O52 C46 1.167 1_545 S
O53 Zn44 2.122 . S
O53 C46 1.299 1_545 S
O54 Zn42 1.898 . S
O54 C49 1.167 1_655 S
O55 Zn44 2.117 1_556 S
O55 C49 1.299 1_655 S
O56 Zn44 2.111 1_556 S
O56 C58 1.166 1_545 S
O57 Zn42 1.905 1_565 S
O57 C58 1.182 . S
C58 O56 1.166 1_565 S
C58 O57 1.182 . S
O59 Zn44 2.083 . S
O59 C62 1.305 . S
O60 Zn43 1.920 . S
O60 C62 1.234 . S
C61 O47 1.305 . S
C61 O48 1.234 . S
C62 O59 1.305 . S
C62 O60 1.234 . S
Zn63 O69 1.920 . S
Zn63 O75 1.898 . S
Zn63 O78 1.905 . S
Zn64 O72 1.905 . S
Zn64 O73 1.898 . S
Zn64 O81 1.920 . S
Zn65 O68 2.080 . S
Zn65 O71 2.114 . S
Zn65 O74 2.120 . S
Zn65 O76 2.120 . S
Zn65 O77 2.114 . S
Zn65 O80 2.080 . S
C66 O71 1.166 . S
C66 O72 1.182 . S
C67 O73 1.167 . S
C67 O74 1.299 . S
O68 Zn65 2.080 . S
O68 C82 1.305 . S
O69 Zn63 1.920 . S
O69 C82 1.234 . S
C70 O75 1.167 . S
C70 O76 1.299 . S
O71 Zn65 2.114 . S
O71 C66 1.166 . S
O72 Zn64 1.905 . S
O72 C66 1.182 . S
O73 Zn64 1.898 . S
O73 C67 1.167 . S
O74 Zn65 2.120 . S
O74 C67 1.299 . S
O75 Zn63 1.898 . S
O75 C70 1.167 . S
O76 Zn65 2.120 . S
O76 C70 1.299 . S
O77 Zn65 2.114 . S
O77 C79 1.166 . S
O78 Zn63 1.905 . S
O78 C79 1.182 . S
C79 O77 1.166 . S
C79 O78 1.182 . S
O80 Zn65 2.080 . S
O80 C83 1.305 . S
O81 Zn64 1.920 . S
O81 C83 1.234 . S
C82 O68 1.305 . S
C82 O69 1.234 . S
C83 O80 1.305 . S
C83 O81 1.234 . S
C84 N85 1.317 . S
C84 N86 1.348 . S
C84 C87 1.485 . S
N85 C84 1.317 . S
N85 N89 1.370 . S
N86 C84 1.348 . S
N86 C88 1.346 . S
C87 C84 1.485 . S
C87 H91 0.960 . S
C87 H92 0.961 . S
C87 H93 0.960 . S
C88 N86 1.346 . S
C88 N89 1.307 . S
C88 C90 1.486 . S
N89 N85 1.370 . S
N89 C88 1.307 . S
C90 C88 1.486 . S
C90 H94 0.960 . S
C90 H95 0.960 . S
C90 H96 0.959 . S
H91 C87 0.960 . S
H92 C87 0.961 . S
H93 C87 0.960 . S
H94 C90 0.960 . S
H95 C90 0.960 . S
H96 C90 0.959 . S
C97 N98 1.317 . S
C97 N99 1.348 . S
C97 C100 1.485 . S
N98 C97 1.317 . S
N98 N102 1.370 . S
N99 C97 1.348 . S
N99 C101 1.346 . S
C100 C97 1.485 . S
C100 H104 0.960 . S
C100 H105 0.961 . S
C100 H106 0.960 . S
C101 N99 1.346 . S
C101 N102 1.307 . S
C101 C103 1.486 . S
N102 N98 1.370 . S
N102 C101 1.307 . S
C103 C101 1.486 . S
C103 H107 0.960 . S
C103 H108 0.960 . S
C103 H109 0.959 . S
H104 C100 0.960 . S
H105 C100 0.961 . S
H106 C100 0.960 . S
H107 C103 0.960 . S
H108 C103 0.960 . S
H109 C103 0.959 . S
C110 N111 1.317 . S
C110 N112 1.348 . S
C110 C113 1.485 . S
N111 C110 1.317 . S
N111 N115 1.370 . S
N112 C110 1.348 . S
N112 C114 1.346 . S
C113 C110 1.485 . S
C113 H117 0.960 . S
C113 H118 0.961 . S
C113 H119 0.960 . S
C114 N112 1.346 . S
C114 N115 1.307 . S
C114 C116 1.486 . S
N115 N111 1.370 . S
N115 C114 1.307 . S
C116 C114 1.486 . S
C116 H120 0.960 . S
C116 H121 0.960 . S
C116 H122 0.959 . S
H117 C113 0.960 . S
H118 C113 0.961 . S
H119 C113 0.960 . S
H120 C116 0.960 . S
H121 C116 0.960 . S
H122 C116 0.959 . S
C123 N124 1.317 . S
C123 N125 1.348 . S
C123 C126 1.485 . S
N124 C123 1.317 . S
N124 N128 1.370 . S
N125 C123 1.348 . S
N125 C127 1.346 . S
C126 C123 1.485 . S
C126 H130 0.960 . S
C126 H131 0.961 . S
C126 H132 0.960 . S
C127 N125 1.346 . S
C127 N128 1.307 . S
C127 C129 1.486 . S
N128 N124 1.370 . S
N128 C127 1.307 . S
C129 C127 1.486 . S
C129 H133 0.960 . S
C129 H134 0.960 . S
C129 H135 0.959 . S
H130 C126 0.960 . S
H131 C126 0.961 . S
H132 C126 0.960 . S
H133 C129 0.960 . S
H134 C129 0.960 . S
H135 C129 0.959 . S
C136 N137 1.317 . S
C136 N138 1.348 . S
C136 C139 1.485 . S
N137 C136 1.317 . S
N137 N141 1.370 . S
N138 C136 1.348 . S
N138 C140 1.346 . S
C139 C136 1.485 . S
C139 H143 0.960 . S
C139 H144 0.961 . S
C139 H145 0.960 . S
C140 N138 1.346 . S
C140 N141 1.307 . S
C140 C142 1.486 . S
N141 N137 1.370 . S
N141 C140 1.307 . S
C142 C140 1.486 . S
C142 H146 0.960 . S
C142 H147 0.960 . S
C142 H148 0.959 . S
H143 C139 0.960 . S
H144 C139 0.961 . S
H145 C139 0.960 . S
H146 C142 0.960 . S
H147 C142 0.960 . S
H148 C142 0.959 . S
C149 N150 1.317 . S
C149 N151 1.348 . S
C149 C152 1.485 . S
N150 C149 1.317 . S
N150 N154 1.370 . S
N151 C149 1.348 . S
N151 C153 1.346 . S
C152 C149 1.485 . S
C152 H156 0.960 . S
C152 H157 0.961 . S
C152 H158 0.960 . S
C153 N151 1.346 . S
C153 N154 1.307 . S
C153 C155 1.486 . S
N154 N150 1.370 . S
N154 C153 1.307 . S
C155 C153 1.486 . S
C155 H159 0.960 . S
C155 H160 0.960 . S
C155 H161 0.959 . S
H156 C152 0.960 . S
H157 C152 0.961 . S
H158 C152 0.960 . S
H159 C155 0.960 . S
H160 C155 0.960 . S
H161 C155 0.959 . S
C162 N163 1.317 . S
C162 N164 1.348 . S
C162 C165 1.485 . S
N163 C162 1.317 . S
N163 N167 1.370 . S
N164 C162 1.348 . S
N164 C166 1.346 . S
C165 C162 1.485 . S
C165 H169 0.960 . S
C165 H170 0.961 . S
C165 H171 0.960 . S
C166 N164 1.346 . S
C166 N167 1.307 . S
C166 C168 1.486 . S
N167 N163 1.370 . S
N167 C166 1.307 . S
C168 C166 1.486 . S
C168 H172 0.960 . S
C168 H173 0.960 . S
C168 H174 0.959 . S
H169 C165 0.960 . S
H170 C165 0.961 . S
H171 C165 0.960 . S
H172 C168 0.960 . S
H173 C168 0.960 . S
H174 C168 0.959 . S
C175 N176 1.317 . S
C175 N177 1.348 . S
C175 C178 1.485 . S
N176 C175 1.317 . S
N176 N180 1.370 . S
N177 C175 1.348 . S
N177 C179 1.346 . S
C178 C175 1.485 . S
C178 H182 0.960 . S
C178 H183 0.961 . S
C178 H184 0.960 . S
C179 N177 1.346 . S
C179 N180 1.307 . S
C179 C181 1.486 . S
N180 N176 1.370 . S
N180 C179 1.307 . S
C181 C179 1.486 . S
C181 H185 0.960 . S
C181 H186 0.960 . S
C181 H187 0.959 . S
H182 C178 0.960 . S
H183 C178 0.961 . S
H184 C178 0.960 . S
H185 C181 0.960 . S
H186 C181 0.960 . S
H187 C181 0.959 . S
C7 N89 0.940 . S
C25 N102 0.941 . S
C46 N111 0.984 . S
N128 C70 0.941 . S
N141 C28 0.945 . S
C49 N150 0.983 . S
C67 N163 0.983 . S
C4 N180 0.941 . S
C58 N176 1.625 . S
N137 C66 1.626 . S
N154 C3 1.672 . S
C37 N167 1.668 . S
N98 C79 1.628 . S
C16 N115 1.673 . S
N124 C24 1.628 . S
N85 C45 1.625 . S
N164 C19 1.240 . S
N177 C41 1.269 . S
C62 N138 1.265 . S
N151 C82 1.236 . S
N112 C40 1.237 . S
C61 N125 1.264 . S
N86 C83 1.269 . S
N99 C20 1.269 . S
