# Generated by pormake.
# Topology apo, (3,6)-cn, num edge types: 1
# Building blocks:
#     Node 0, Type 0, BuildingBlock: CUQRIR_clean_linker_1, # of connection points: 3
#     Node 1, Type 0, BuildingBlock: CUQRIR_clean_linker_1, # of connection points: 3
#     Node 2, Type 0, BuildingBlock: CUQRIR_clean_linker_1, # of connection points: 3
#     Node 3, Type 0, BuildingBlock: CUQRIR_clean_linker_1, # of connection points: 3
#     Node 4, Type 0, BuildingBlock: CUQRIR_clean_linker_1, # of connection points: 3
#     Node 5, Type 0, BuildingBlock: CUQRIR_clean_linker_1, # of connection points: 3
#     Node 6, Type 0, BuildingBlock: CUQRIR_clean_linker_1, # of connection points: 3
#     Node 7, Type 0, BuildingBlock: CUQRIR_clean_linker_1, # of connection points: 3
#     Node 8, Type 1, BuildingBlock: MIDCAF_clean_sbu_0, # of connection points: 6
#     Node 9, Type 1, BuildingBlock: MIDCAF_clean_sbu_0, # of connection points: 6
#     Node 10, Type 1, BuildingBlock: MIDCAF_clean_sbu_0, # of connection points: 6
#     Node 11, Type 1, BuildingBlock: MIDCAF_clean_sbu_0, # of connection points: 6
#     Edge 12, Type (0, 1), None
#     Edge 13, Type (0, 1), None
#     Edge 14, Type (0, 1), None
#     Edge 15, Type (0, 1), None
#     Edge 16, Type (0, 1), None
#     Edge 17, Type (0, 1), None
#     Edge 18, Type (0, 1), None
#     Edge 19, Type (0, 1), None
#     Edge 20, Type (0, 1), None
#     Edge 21, Type (0, 1), None
#     Edge 22, Type (0, 1), None
#     Edge 23, Type (0, 1), None
#     Edge 24, Type (0, 1), None
#     Edge 25, Type (0, 1), None
#     Edge 26, Type (0, 1), None
#     Edge 27, Type (0, 1), None
#     Edge 28, Type (0, 1), None
#     Edge 29, Type (0, 1), None
#     Edge 30, Type (0, 1), None
#     Edge 31, Type (0, 1), None
#     Edge 32, Type (0, 1), None
#     Edge 33, Type (0, 1), None
#     Edge 34, Type (0, 1), None
#     Edge 35, Type (0, 1), None
# Relax obj value: 0.006
# Max RMSD: 0.056
# Mean RMSD: 0.047
data_MOF--net-apo--node1-MIDCAF_clean_sbu_0--node2-CUQRIR_clean_linker_1--edge1-none
_symmetry_space_group_name_H-M    P1
_symmetry_Int_Tables_number       1
_symmetry_cell_setting            triclinic
loop_
_symmetry_equiv_pos_as_xyz
'x, y, z'
_cell_length_a     12.174278
_cell_length_b     16.005008
_cell_length_c     11.801987
_cell_angle_alpha  90.008535
_cell_angle_beta   89.993805
_cell_angle_gamma 90.005478
loop_
_atom_site_label
_atom_site_type_symbol
_atom_site_fract_x
_atom_site_fract_y
_atom_site_fract_z
_atom_type_partial_charge
C0 C 0.45687 0.19066 0.41873 0.0
N1 N 0.48587 0.26703 0.45581 0.0
N2 N 0.3933 0.19661 0.32327 0.0
C3 C 0.49545 0.11051 0.47348 0.0
C4 C 0.39598 0.28001 0.29893 0.0
N5 N 0.45484 0.32219 0.37845 0.0
C6 C 0.32617 0.32134 0.21042 0.0
H7 H 0.56219 0.12183 0.53562 0.0
H8 H 0.52606 0.06698 0.40737 0.0
H9 H 0.42643 0.0797 0.51813 0.0
H10 H 0.31622 0.27936 0.13643 0.0
H11 H 0.36205 0.38161 0.18264 0.0
H12 H 0.24369 0.33402 0.2466 0.0
C13 C 0.18434 0.27051 0.91891 0.0
N14 N 0.15557 0.19412 0.95613 0.0
N15 N 0.24695 0.26459 0.82276 0.0
C16 C 0.14651 0.35067 0.97428 0.0
C17 C 0.244 0.18122 0.79831 0.0
N18 N 0.18566 0.13905 0.87822 0.0
C19 C 0.31308 0.13992 0.70911 0.0
H20 H 0.08121 0.33933 0.03802 0.0
H21 H 0.11427 0.39393 0.90871 0.0
H22 H 0.21633 0.38182 1.01714 0.0
H23 H 0.3226 0.18197 0.63512 0.0
H24 H 0.27694 0.0797 0.68151 0.0
H25 H 0.3958 0.12715 0.74462 0.0
C26 C 0.95513 0.27057 0.6371 0.0
N27 N 0.98395 0.19417 0.59995 0.0
N28 N 0.8925 0.26469 0.73324 0.0
C29 C 0.99296 0.35071 0.5817 0.0
C30 C 0.89546 0.18134 0.75774 0.0
N31 N 0.95386 0.13913 0.67789 0.0
C32 C 0.82636 0.14007 0.84693 0.0
H33 H 1.05826 0.33936 0.51796 0.0
H34 H 1.02521 0.394 0.64725 0.0
H35 H 0.92315 0.38184 0.53883 0.0
H36 H 0.81685 0.18213 0.92092 0.0
H37 H 0.86246 0.07984 0.87454 0.0
H38 H 0.74363 0.1273 0.81142 0.0
C39 C 0.68262 0.19073 0.1372 0.0
N40 N 0.65363 0.26709 0.1001 0.0
N41 N 0.74617 0.19672 0.23267 0.0
C42 C 0.64405 0.11055 0.08245 0.0
C43 C 0.7435 0.28013 0.25699 0.0
N44 N 0.68464 0.32227 0.17745 0.0
C45 C 0.81328 0.32149 0.34552 0.0
H46 H 0.57737 0.12185 1.02025 0.0
H47 H 0.61338 0.06706 0.14856 0.0
H48 H 0.7131 0.07972 0.03788 0.0
H49 H 0.82323 0.27952 0.4195 0.0
H50 H 0.77739 0.38176 0.37329 0.0
H51 H 0.89576 0.33418 0.30934 0.0
C52 C 0.68444 0.77055 0.63709 0.0
N53 N 0.65565 0.69415 0.59988 0.0
N54 N 0.74691 0.76465 0.73333 0.0
C55 C 0.64677 0.8507 0.58164 0.0
C56 C 0.74389 0.68129 0.7578 0.0
N57 N 0.68558 0.6391 0.67786 0.0
C58 C 0.81284 0.64 0.84708 0.0
H59 H 0.71673 0.88191 0.53908 0.0
H60 H 0.61424 0.89393 0.64712 0.0
H61 H 0.58172 0.83937 0.51763 0.0
H62 H 0.77663 0.57981 0.87469 0.0
H63 H 0.82234 0.68208 0.92106 0.0
H64 H 0.89558 0.62717 0.81165 0.0
C65 C 0.95696 0.6907 0.13728 0.0
N66 N 0.98595 0.76707 0.1002 0.0
N67 N 0.89326 0.69667 0.23266 0.0
C68 C 0.9957 0.61055 0.08262 0.0
C69 C 0.89586 0.78008 0.25697 0.0
N70 N 0.95477 0.82225 0.17749 0.0
C71 C 0.82593 0.82142 0.3454 0.0
H72 H 0.92682 0.57979 0.03766 0.0
H73 H 1.02601 0.56698 0.1488 0.0
H74 H 1.06269 0.62186 1.02076 0.0
H75 H 0.86174 0.88173 0.37317 0.0
H76 H 0.81596 0.77947 0.4194 0.0
H77 H 0.74348 0.83403 0.30915 0.0
C78 C 0.18212 0.69064 0.41873 0.0
N79 N 0.15309 0.76702 0.45573 0.0
N80 N 0.24585 0.69657 0.32337 0.0
C81 C 0.14339 0.6105 0.47343 0.0
C82 C 0.24323 0.77997 0.299 0.0
N83 N 0.18427 0.82216 0.37842 0.0
C84 C 0.31319 0.82128 0.21057 0.0
H85 H 0.21226 0.57977 0.51839 0.0
H86 H 0.11307 0.56691 0.40726 0.0
H87 H 0.0764 0.62184 0.53529 0.0
H88 H 0.27741 0.88158 0.1828 0.0
H89 H 0.32315 0.77931 0.13658 0.0
H90 H 0.39565 0.83389 0.24684 0.0
C91 C 0.45463 0.77048 0.91899 0.0
N92 N 0.48341 0.6941 0.95623 0.0
N93 N 0.39217 0.76454 0.82275 0.0
C94 C 0.49228 0.85066 0.97444 0.0
C95 C 0.39519 0.68117 0.7983 0.0
N96 N 0.45349 0.63902 0.87826 0.0
C97 C 0.32626 0.63985 0.709 0.0
H98 H 0.42229 0.88189 1.01692 0.0
H99 H 0.52487 0.89386 0.90897 0.0
H100 H 0.55727 0.83935 0.03851 0.0
H101 H 0.36249 0.57966 0.68139 0.0
H102 H 0.31676 0.68191 0.63503 0.0
H103 H 0.24352 0.627 0.74442 0.0
Zn104 Zn 0.18928 0.05612 0.42552 0.0
Zn105 Zn 0.95008 0.0562 0.13047 0.0
Zn106 Zn 0.06967 0.08414 0.27802 0.0
C107 C 0.09561 0.17425 0.04879 0.0
C108 C 0.97102 0.9064 0.16807 0.0
O109 O 0.99382 0.15055 0.41706 0.0
O110 O 0.14044 0.14903 0.52462 0.0
C111 C 0.3183 0.13729 0.29012 0.0
O112 O 0.14562 0.15047 0.13899 0.0
O113 O 0.99899 0.14913 0.03145 0.0
O114 O 0.95842 0.94162 0.07328 0.0
O115 O 1.01391 0.94867 0.25041 0.0
O116 O 0.32511 0.06653 0.335 0.0
O117 O 0.22413 0.15808 0.24924 0.0
O118 O 0.12525 0.94862 0.30557 0.0
O119 O 0.18086 0.94155 0.48265 0.0
C120 C 0.16813 0.90633 0.38787 0.0
O121 O 0.9153 0.15819 0.30675 0.0
O122 O 0.81428 0.06659 0.22108 0.0
C123 C 1.04387 0.17426 0.50729 0.0
C124 C 0.82113 0.13739 0.26586 0.0
Zn125 Zn 0.6903 0.4051 0.63125 0.0
Zn126 Zn 0.44907 0.40502 0.92476 0.0
Zn127 Zn 0.56968 0.37738 0.77798 0.0
C128 C 0.47019 0.5549 0.88751 0.0
C129 C 0.32133 0.32401 0.78852 0.0
O130 O 0.72371 0.30329 0.80771 0.0
O131 O 0.82529 0.39514 0.7234 0.0
C132 C 0.66899 0.55498 0.66857 0.0
O133 O 0.51364 0.51284 0.80527 0.0
O134 O 0.45718 0.51952 0.98214 0.0
O135 O 0.31413 0.39505 0.83251 0.0
O136 O 0.41572 0.3032 0.74822 0.0
O137 O 0.68209 0.5196 0.57393 0.0
O138 O 0.62555 0.51287 0.75077 0.0
O139 O 0.49482 0.31093 0.63855 0.0
O140 O 0.64213 0.31198 0.53196 0.0
C141 C 0.54536 0.28695 0.54874 0.0
O142 O 0.64463 0.311 0.91739 0.0
O143 O 0.49729 0.31187 1.02396 0.0
C144 C 0.81808 0.32411 0.76739 0.0
C145 C 0.59411 0.28696 1.00717 0.0
Zn146 Zn 0.19044 0.90504 0.92469 0.0
Zn147 Zn 0.94877 0.90512 0.63134 0.0
Zn148 Zn 0.06961 0.87738 0.77799 0.0
C149 C 0.97032 0.05499 0.66859 0.0
C150 C 0.82123 0.82407 0.76771 0.0
O151 O 0.22349 0.80315 0.74813 0.0
O152 O 0.3252 0.89509 0.83206 0.0
C153 C 0.16909 0.05492 0.88749 0.0
O154 O 1.0138 0.01288 0.75074 0.0
O155 O 0.95703 0.01961 0.57399 0.0
O156 O 0.81397 0.89516 0.72388 0.0
O157 O 0.91564 0.80326 0.80789 0.0
O158 O 0.18225 0.01954 0.9821 0.0
O159 O 0.1256 0.01283 0.8053 0.0
O160 O 0.99481 0.81102 0.9175 0.0
O161 O 0.14223 0.81189 1.02392 0.0
C162 C 1.04539 0.78698 1.00722 0.0
O163 O 0.1443 0.81094 0.63848 0.0
O164 O 0.9969 0.812 0.53203 0.0
C165 C 0.3179 0.82397 0.78832 0.0
C166 C 0.09368 0.78697 0.54872 0.0
Zn167 Zn 0.68897 0.55623 0.1304 0.0
Zn168 Zn 0.45021 0.55615 0.42561 0.0
Zn169 Zn 0.5696 0.58414 0.27803 0.0
C170 C 0.59565 0.67428 0.50726 0.0
C171 C 0.47112 0.40634 0.38788 0.0
O172 O 0.4935 0.65049 0.1391 0.0
O173 O 0.64004 0.64915 0.0314 0.0
C174 C 0.81819 0.63736 0.26566 0.0
O175 O 0.64561 0.65056 0.41698 0.0
O176 O 0.49909 0.64905 0.5247 0.0
O177 O 0.45857 0.44156 0.4827 0.0
O178 O 0.51396 0.44862 0.30553 0.0
O179 O 0.82495 0.56664 0.22062 0.0
O180 O 0.72404 0.65814 0.30666 0.0
O181 O 0.62541 0.44866 0.25045 0.0
O182 O 0.68071 0.44165 0.07325 0.0
C183 C 0.66826 0.40641 0.16806 0.0
O184 O 0.41508 0.65805 0.24942 0.0
O185 O 0.31419 0.56655 0.33548 0.0
C186 C 0.54344 0.67427 0.04884 0.0
C187 C 0.32095 0.63726 0.29045 0.0
loop_
_geom_bond_atom_site_label_1
_geom_bond_atom_site_label_2
_geom_bond_distance
_geom_bond_site_symmetry_2
_ccdc_geom_bond_type
C0 N1 1.317 . S
C0 N2 1.348 . S
C0 C3 1.485 . S
N1 C0 1.317 . S
N1 N5 1.370 . S
N2 C0 1.348 . S
N2 C4 1.346 . S
C3 C0 1.485 . S
C3 H7 0.960 . S
C3 H8 0.961 . S
C3 H9 0.960 . S
C4 N2 1.346 . S
C4 N5 1.307 . S
C4 C6 1.486 . S
N5 N1 1.370 . S
N5 C4 1.307 . S
C6 C4 1.486 . S
C6 H10 0.960 . S
C6 H11 0.960 . S
C6 H12 0.959 . S
H7 C3 0.960 . S
H8 C3 0.961 . S
H9 C3 0.960 . S
H10 C6 0.960 . S
H11 C6 0.960 . S
H12 C6 0.959 . S
C13 N14 1.317 . S
C13 N15 1.348 . S
C13 C16 1.485 1_556 S
N14 C13 1.317 . S
N14 N18 1.370 . S
N15 C13 1.348 . S
N15 C17 1.346 . S
C16 C13 1.485 1_554 S
C16 H20 0.960 . S
C16 H21 0.961 . S
C16 H22 0.960 . S
C17 N15 1.346 . S
C17 N18 1.307 . S
C17 C19 1.486 . S
N18 N14 1.370 . S
N18 C17 1.307 . S
C19 C17 1.486 . S
C19 H23 0.960 . S
C19 H24 0.960 . S
C19 H25 0.959 . S
H20 C16 0.960 . S
H21 C16 0.961 . S
H22 C16 0.960 . S
H23 C19 0.960 . S
H24 C19 0.960 . S
H25 C19 0.959 . S
C26 N27 1.317 . S
C26 N28 1.348 . S
C26 C29 1.485 . S
N27 C26 1.317 . S
N27 N31 1.370 . S
N28 C26 1.348 . S
N28 C30 1.346 . S
C29 C26 1.485 . S
C29 H33 0.960 . S
C29 H34 0.961 . S
C29 H35 0.960 . S
C30 N28 1.346 . S
C30 N31 1.307 . S
C30 C32 1.486 . S
N31 N27 1.370 . S
N31 C30 1.307 . S
C32 C30 1.486 . S
C32 H36 0.960 . S
C32 H37 0.960 . S
C32 H38 0.959 . S
H33 C29 0.960 . S
H34 C29 0.961 . S
H35 C29 0.960 . S
H36 C32 0.960 . S
H37 C32 0.960 . S
H38 C32 0.959 . S
C39 N40 1.317 . S
C39 N41 1.348 . S
C39 C42 1.485 1_554 S
N40 C39 1.317 . S
N40 N44 1.370 . S
N41 C39 1.348 . S
N41 C43 1.346 . S
C42 C39 1.485 1_556 S
C42 H46 0.960 . S
C42 H47 0.961 . S
C42 H48 0.960 . S
C43 N41 1.346 . S
C43 N44 1.307 . S
C43 C45 1.486 . S
N44 N40 1.370 . S
N44 C43 1.307 . S
C45 C43 1.486 . S
C45 H49 0.960 . S
C45 H50 0.960 . S
C45 H51 0.959 . S
H46 C42 0.960 . S
H47 C42 0.961 . S
H48 C42 0.960 . S
H49 C45 0.960 . S
H50 C45 0.960 . S
H51 C45 0.959 . S
C52 N53 1.317 . S
C52 N54 1.348 . S
C52 C55 1.485 . S
N53 C52 1.317 . S
N53 N57 1.370 . S
N54 C52 1.348 . S
N54 C56 1.346 . S
C55 C52 1.485 . S
C55 H59 0.960 . S
C55 H60 0.961 . S
C55 H61 0.960 . S
C56 N54 1.346 . S
C56 N57 1.307 . S
C56 C58 1.486 . S
N57 N53 1.370 . S
N57 C56 1.307 . S
C58 C56 1.486 . S
C58 H62 0.960 . S
C58 H63 0.960 . S
C58 H64 0.959 . S
H59 C55 0.960 . S
H60 C55 0.961 . S
H61 C55 0.960 . S
H62 C58 0.960 . S
H63 C58 0.960 . S
H64 C58 0.959 . S
C65 N66 1.317 . S
C65 N67 1.348 . S
C65 C68 1.485 1_554 S
N66 C65 1.317 . S
N66 N70 1.370 . S
N67 C65 1.348 . S
N67 C69 1.346 . S
C68 C65 1.485 1_556 S
C68 H72 0.960 . S
C68 H73 0.961 . S
C68 H74 0.960 . S
C69 N67 1.346 . S
C69 N70 1.307 . S
C69 C71 1.486 . S
N70 N66 1.370 . S
N70 C69 1.307 . S
C71 C69 1.486 . S
C71 H75 0.960 . S
C71 H76 0.960 . S
C71 H77 0.959 . S
H72 C68 0.960 . S
H73 C68 0.961 . S
H74 C68 0.960 . S
H75 C71 0.960 . S
H76 C71 0.960 . S
H77 C71 0.959 . S
C78 N79 1.317 . S
C78 N80 1.348 . S
C78 C81 1.485 . S
N79 C78 1.317 . S
N79 N83 1.370 . S
N80 C78 1.348 . S
N80 C82 1.346 . S
C81 C78 1.485 . S
C81 H85 0.960 . S
C81 H86 0.961 . S
C81 H87 0.960 . S
C82 N80 1.346 . S
C82 N83 1.307 . S
C82 C84 1.486 . S
N83 N79 1.370 . S
N83 C82 1.307 . S
C84 C82 1.486 . S
C84 H88 0.960 . S
C84 H89 0.960 . S
C84 H90 0.959 . S
H85 C81 0.960 . S
H86 C81 0.961 . S
H87 C81 0.960 . S
H88 C84 0.960 . S
H89 C84 0.960 . S
H90 C84 0.959 . S
C91 N92 1.317 . S
C91 N93 1.348 . S
C91 C94 1.485 1_556 S
N92 C91 1.317 . S
N92 N96 1.370 . S
N93 C91 1.348 . S
N93 C95 1.346 . S
C94 C91 1.485 1_554 S
C94 H98 0.960 . S
C94 H99 0.961 . S
C94 H100 0.960 . S
C95 N93 1.346 . S
C95 N96 1.307 . S
C95 C97 1.486 . S
N96 N92 1.370 . S
N96 C95 1.307 . S
C97 C95 1.486 . S
C97 H101 0.960 . S
C97 H102 0.960 . S
C97 H103 0.959 . S
H98 C94 0.960 . S
H99 C94 0.961 . S
H100 C94 0.960 . S
H101 C97 0.960 . S
H102 C97 0.960 . S
H103 C97 0.959 . S
Zn104 O110 1.920 1_455 S
Zn104 O116 1.898 . S
Zn104 O119 1.905 1_545 S
Zn105 O113 1.905 1_655 S
Zn105 O114 1.898 1_546 S
Zn105 O122 1.920 1_556 S
Zn106 O109 2.080 1_455 S
Zn106 O112 2.114 . S
Zn106 O115 2.120 1_455 S
Zn106 O117 2.120 . S
Zn106 O118 2.114 . S
Zn106 O121 2.080 1_455 S
C107 O112 1.166 . S
C107 O113 1.182 1_554 S
C108 O114 1.167 . S
C108 O115 1.299 1_565 S
O109 Zn106 2.080 1_655 S
O109 C123 1.305 . S
O110 Zn104 1.920 1_655 S
O110 C123 1.234 . S
C111 O116 1.167 . S
C111 O117 1.299 . S
O112 Zn106 2.114 . S
O112 C107 1.166 . S
O113 Zn105 1.905 1_455 S
O113 C107 1.182 1_556 S
O114 Zn105 1.898 1_564 S
O114 C108 1.167 . S
O115 Zn106 2.120 1_655 S
O115 C108 1.299 1_545 S
O116 Zn104 1.898 . S
O116 C111 1.167 . S
O117 Zn106 2.120 . S
O117 C111 1.299 . S
O118 Zn106 2.114 . S
O118 C120 1.166 1_545 S
O119 Zn104 1.905 1_565 S
O119 C120 1.182 . S
C120 O118 1.166 1_565 S
C120 O119 1.182 . S
O121 Zn106 2.080 1_655 S
O121 C124 1.305 . S
O122 Zn105 1.920 1_554 S
O122 C124 1.234 . S
C123 O109 1.305 . S
C123 O110 1.234 . S
C124 O121 1.305 . S
C124 O122 1.234 . S
Zn125 O131 1.920 . S
Zn125 O137 1.898 . S
Zn125 O140 1.905 . S
Zn126 O134 1.905 1_554 S
Zn126 O135 1.898 1_554 S
Zn126 O143 1.920 . S
Zn127 O130 2.080 . S
Zn127 O133 2.114 . S
Zn127 O136 2.120 . S
Zn127 O138 2.120 . S
Zn127 O139 2.114 . S
Zn127 O142 2.080 . S
C128 O133 1.166 . S
C128 O134 1.182 . S
C129 O135 1.167 . S
C129 O136 1.299 . S
O130 Zn127 2.080 . S
O130 C144 1.305 . S
O131 Zn125 1.920 . S
O131 C144 1.234 . S
C132 O137 1.167 . S
C132 O138 1.299 . S
O133 Zn127 2.114 . S
O133 C128 1.166 . S
O134 Zn126 1.905 1_556 S
O134 C128 1.182 . S
O135 Zn126 1.898 1_556 S
O135 C129 1.167 . S
O136 Zn127 2.120 . S
O136 C129 1.299 . S
O137 Zn125 1.898 . S
O137 C132 1.167 . S
O138 Zn127 2.120 . S
O138 C132 1.299 . S
O139 Zn127 2.114 . S
O139 C141 1.166 . S
O140 Zn125 1.905 . S
O140 C141 1.182 . S
C141 O139 1.166 . S
C141 O140 1.182 . S
O142 Zn127 2.080 . S
O142 C145 1.305 . S
O143 Zn126 1.920 . S
O143 C145 1.234 1_554 S
C144 O130 1.305 . S
C144 O131 1.234 . S
C145 O142 1.305 . S
C145 O143 1.234 1_556 S
Zn146 O152 1.920 1_554 S
Zn146 O158 1.898 1_564 S
Zn146 O161 1.905 1_455 S
Zn147 O155 1.905 1_565 S
Zn147 O156 1.898 . S
Zn147 O164 1.920 1_655 S
Zn148 O151 2.085 . S
Zn148 O154 2.108 1_455 S
Zn148 O157 2.115 1_455 S
Zn148 O159 2.126 . S
Zn148 O160 2.110 1_455 S
Zn148 O163 2.084 . S
C149 O154 1.166 1_545 S
C149 O155 1.182 . S
C150 O156 1.167 . S
C150 O157 1.299 . S
O151 Zn148 2.085 . S
O151 C165 1.305 . S
O152 Zn146 1.920 1_556 S
O152 C165 1.234 . S
C153 O158 1.167 . S
C153 O159 1.299 1_545 S
O154 Zn148 2.108 1_655 S
O154 C149 1.166 1_565 S
O155 Zn147 1.905 1_545 S
O155 C149 1.182 . S
O156 Zn147 1.898 . S
O156 C150 1.167 . S
O157 Zn148 2.115 1_655 S
O157 C150 1.299 . S
O158 Zn146 1.898 1_546 S
O158 C153 1.167 . S
O159 Zn148 2.126 . S
O159 C153 1.299 1_565 S
O160 Zn148 2.110 1_655 S
O160 C162 1.166 . S
O161 Zn146 1.905 1_655 S
O161 C162 1.182 1_554 S
C162 O160 1.166 . S
C162 O161 1.182 1_556 S
O163 Zn148 2.084 . S
O163 C166 1.305 . S
O164 Zn147 1.920 1_455 S
O164 C166 1.234 . S
C165 O151 1.305 . S
C165 O152 1.234 . S
C166 O163 1.305 . S
C166 O164 1.234 . S
Zn167 O173 1.920 . S
Zn167 O179 1.898 1_556 S
Zn167 O182 1.905 1_556 S
Zn168 O176 1.905 . S
Zn168 O177 1.898 . S
Zn168 O185 1.920 . S
Zn169 O172 2.080 . S
Zn169 O175 2.114 . S
Zn169 O178 2.120 . S
Zn169 O180 2.120 . S
Zn169 O181 2.114 . S
Zn169 O184 2.080 . S
C170 O175 1.166 . S
C170 O176 1.182 . S
C171 O177 1.167 . S
C171 O178 1.299 . S
O172 Zn169 2.080 . S
O172 C186 1.305 . S
O173 Zn167 1.920 . S
O173 C186 1.234 1_556 S
C174 O179 1.167 . S
C174 O180 1.299 . S
O175 Zn169 2.114 . S
O175 C170 1.166 . S
O176 Zn168 1.905 . S
O176 C170 1.182 . S
O177 Zn168 1.898 . S
O177 C171 1.167 . S
O178 Zn169 2.120 . S
O178 C171 1.299 . S
O179 Zn167 1.898 1_554 S
O179 C174 1.167 . S
O180 Zn169 2.120 . S
O180 C174 1.299 . S
O181 Zn169 2.114 . S
O181 C183 1.166 . S
O182 Zn167 1.905 1_554 S
O182 C183 1.182 . S
C183 O181 1.166 . S
C183 O182 1.182 . S
O184 Zn169 2.080 . S
O184 C187 1.305 . S
O185 Zn168 1.920 . S
O185 C187 1.234 . S
C186 O172 1.305 . S
C186 O173 1.234 1_554 S
C187 O184 1.305 . S
C187 O185 1.234 . S
N83 C120 1.510 . S
C128 N96 1.510 . S
C132 N57 1.507 . S
N70 C108 1.507 . S
C149 N31 1.500 . S
C183 N44 1.500 . S
N5 C171 1.496 . S
N18 C153 1.496 . S
C107 N14 1.361 1_554 S
C141 N1 1.361 . S
C145 N40 1.363 1_556 S
C123 N27 1.363 . S
C162 N66 1.344 1_556 S
N53 C170 1.344 . S
C186 N92 1.338 1_554 S
N79 C166 1.339 . S
C111 N2 1.286 . S
C129 N15 1.286 . S
N28 C144 1.295 . S
C124 N41 1.295 . S
C150 N54 1.296 . S
N67 C174 1.296 . S
N80 C187 1.304 . S
N93 C165 1.304 . S
