# Generated by pormake.
# Topology tsx, (6,3)-cn, num edge types: 1
# Building blocks:
#     Node 0, Type 0, BuildingBlock: VOLQOD_clean_sbu_1, # of connection points: 6
#     Node 1, Type 0, BuildingBlock: VOLQOD_clean_sbu_1, # of connection points: 6
#     Node 2, Type 1, BuildingBlock: BETDIP_clean_linker_0, # of connection points: 3
#     Node 3, Type 1, BuildingBlock: BETDIP_clean_linker_0, # of connection points: 3
#     Node 4, Type 1, BuildingBlock: BETDIP_clean_linker_0, # of connection points: 3
#     Node 5, Type 1, BuildingBlock: BETDIP_clean_linker_0, # of connection points: 3
#     Edge 6, Type (0, 1), None
#     Edge 7, Type (0, 1), None
#     Edge 8, Type (0, 1), None
#     Edge 9, Type (0, 1), None
#     Edge 10, Type (0, 1), None
#     Edge 11, Type (0, 1), None
#     Edge 12, Type (0, 1), None
#     Edge 13, Type (0, 1), None
#     Edge 14, Type (0, 1), None
#     Edge 15, Type (0, 1), None
#     Edge 16, Type (0, 1), None
#     Edge 17, Type (0, 1), None
# Relax obj value: 0.061
# Max RMSD: 0.107
# Mean RMSD: 0.100
data_MOF--net-tsx--node1-VOLQOD_clean_sbu_1--node2-BETDIP_clean_linker_0--edge1-none
_symmetry_space_group_name_H-M    P1
_symmetry_Int_Tables_number       1
_symmetry_cell_setting            triclinic
loop_
_symmetry_equiv_pos_as_xyz
'x, y, z'
_cell_length_a     9.6951943
_cell_length_b     9.9329628
_cell_length_c     18.433331
_cell_angle_alpha  90.592284
_cell_angle_beta   101.45029
_cell_angle_gamma 89.75415
loop_
_atom_site_label
_atom_site_type_symbol
_atom_site_fract_x
_atom_site_fract_y
_atom_site_fract_z
_atom_type_partial_charge
O0 O 0.11362 0.92011 0.12281 0.0
Zn1 Zn 0.17016 0.96123 0.02741 0.0
O2 O 0.006 0.01589 -0.03786 0.0
Zn3 Zn 0.92383 0.8636 0.9083 0.0
Zn4 Zn 0.88671 0.10143 0.0182 0.0
Zn5 Zn 0.06327 0.14291 0.89942 0.0
O6 O 0.88204 0.91803 0.79948 0.0
O7 O 0.07336 0.04672 0.80421 0.0
O8 O 0.26604 0.81512 -0.02498 0.0
O9 O 0.07419 0.72371 0.90565 0.0
O10 O 0.76545 0.79535 0.96052 0.0
O11 O 0.7367 0.97324 0.03104 0.0
O12 O 0.79403 0.2677 0.96116 0.0
O13 O 0.289 0.12269 0.05704 0.0
O14 O 0.90599 0.26889 0.86698 0.0
O15 O 0.22664 0.25456 0.95946 0.0
C16 C 0.0624 1.01343 0.15808 0.0
C17 C 0.97197 0.97606 0.76753 0.0
C18 C 0.70582 0.85375 0.0088 0.0
C19 C 0.20723 0.72716 0.9278 0.0
C20 C 0.80842 0.31185 0.89785 0.0
C21 C 0.29686 0.23397 0.02501 0.0
O22 O -0.00411 0.11413 0.12432 0.0
O23 O 0.61324 0.41999 0.62274 0.0
Zn24 Zn 0.66951 0.46122 0.52729 0.0
O25 O 0.50524 0.51601 0.46215 0.0
Zn26 Zn 0.42285 0.36392 0.40818 0.0
Zn27 Zn 0.38616 0.60157 0.51832 0.0
Zn28 Zn 0.56249 0.64309 0.39949 0.0
O29 O 0.38122 0.41854 0.29937 0.0
O30 O 0.5727 0.54705 0.30428 0.0
O31 O 0.76508 0.31515 0.47474 0.0
O32 O 0.57307 0.22389 0.40543 0.0
O33 O 0.26436 0.29573 0.46038 0.0
O34 O 0.23621 0.47338 0.5312 0.0
O35 O 0.29333 0.76788 0.46132 0.0
O36 O 0.78852 0.6226 0.55698 0.0
O37 O 0.40522 0.769 0.36712 0.0
O38 O 0.72583 0.75469 0.45951 0.0
C39 C 0.56226 0.51335 0.6581 0.0
C40 C 0.47132 0.4765 0.26752 0.0
C41 C 0.20501 0.35403 0.50881 0.0
C42 C 0.70613 0.22728 0.4275 0.0
C43 C 0.30766 0.81197 0.39798 0.0
C44 C 0.79624 0.73398 0.52501 0.0
O45 O 0.49567 0.61408 0.6244 0.0
H46 H 0.1444 0.98163 0.45234 0.0
H47 H 0.91899 0.1501 0.24887 0.0
H48 H 0.24794 0.8556 0.2493 0.0
H49 H 0.73812 0.05558 0.35484 0.0
C50 C 0.79119 0.13523 0.39053 0.0
C51 C 0.12414 0.98977 0.39351 0.0
C52 C 0.20507 0.90869 0.35636 0.0
C53 C 0.01916 0.07547 0.35526 0.0
C54 C -0.00091 0.08308 0.27819 0.0
C55 C 0.08252 1.00512 0.23945 0.0
C56 C 0.18482 0.91765 0.27892 0.0
N57 N 0.9373 0.15674 0.39463 0.0
H58 H 0.93004 0.9343 0.47392 0.0
H59 H 0.07812 0.1459 0.67865 0.0
H60 H 0.83786 0.78004 0.67444 0.0
H61 H 0.05952 0.33235 0.58745 0.0
C62 C 0.10827 0.28026 0.54688 0.0
C63 C 0.93799 0.94423 0.53277 0.0
C64 C 0.876 0.84528 0.56853 0.0
C65 C 0.01068 0.05281 0.57194 0.0
C66 C 0.01979 0.06322 0.64844 0.0
C67 C 0.95792 0.9649 0.68617 0.0
C68 C 0.88611 0.85597 0.64582 0.0
N69 N 0.08602 0.14097 0.53392 0.0
H70 H 0.64585 0.4818 0.9524 0.0
H71 H 0.4195 0.65013 0.74912 0.0
H72 H 0.74812 0.35541 0.74914 0.0
H73 H 0.23938 0.55532 0.85529 0.0
C74 C 0.29239 0.63508 0.89092 0.0
C75 C 0.6253 0.4899 0.89357 0.0
C76 C 0.70588 0.40868 0.8563 0.0
C77 C 0.5202 0.5756 0.85544 0.0
C78 C 0.49971 0.58313 0.77835 0.0
C79 C 0.58284 0.50508 0.73948 0.0
C80 C 0.68525 0.41756 0.77884 0.0
N81 N 0.43844 0.65675 0.89493 0.0
H82 H 0.43174 0.43375 -0.02591 0.0
H83 H 0.57829 0.64598 0.17877 0.0
H84 H 0.33727 0.28056 0.17434 0.0
H85 H 0.55973 0.83221 0.08715 0.0
C86 C 0.60907 0.77997 0.04686 0.0
C87 C 0.43911 0.44395 0.03288 0.0
C88 C 0.37649 0.34532 0.06855 0.0
C89 C 0.51164 0.55258 0.0721 0.0
C90 C 0.52005 0.5633 0.14853 0.0
C91 C 0.45766 0.46521 0.18618 0.0
C92 C 0.38593 0.3563 0.14579 0.0
N93 N 0.58753 0.6405 0.03425 0.0
loop_
_geom_bond_atom_site_label_1
_geom_bond_atom_site_label_2
_geom_bond_distance
_geom_bond_site_symmetry_2
_ccdc_geom_bond_type
O0 Zn1 1.953 . S
O0 C16 1.225 1_565 S
Zn1 O0 1.953 . S
Zn1 O2 1.949 1_565 S
Zn1 O8 1.919 . S
Zn1 O13 1.924 1_565 S
O2 Zn1 1.949 1_545 S
O2 Zn3 1.923 1_444 S
O2 Zn4 1.950 1_455 S
O2 Zn5 1.945 1_554 S
Zn3 O2 1.923 1_666 S
Zn3 O6 1.933 . S
Zn3 O9 1.941 1_655 S
Zn3 O10 1.965 . S
Zn4 O2 1.950 1_655 S
Zn4 O11 1.938 1_545 S
Zn4 O12 1.906 . S
Zn4 O22 1.953 . S
Zn5 O2 1.945 1_556 S
Zn5 O7 1.932 . S
Zn5 O14 1.977 1_455 S
Zn5 O15 1.910 . S
O6 Zn3 1.933 . S
O6 C17 1.226 1_565 S
O7 Zn5 1.932 . S
O7 C17 1.307 1_455 S
O8 Zn1 1.919 . S
O8 C19 1.253 1_554 S
O9 Zn3 1.941 1_455 S
O9 C19 1.283 . S
O10 Zn3 1.965 . S
O10 C18 1.303 1_556 S
O11 Zn4 1.938 1_565 S
O11 C18 1.247 . S
O12 Zn4 1.906 . S
O12 C20 1.304 1_554 S
O13 Zn1 1.924 1_545 S
O13 C21 1.311 . S
O14 Zn5 1.977 1_655 S
O14 C20 1.272 . S
O15 Zn5 1.910 . S
O15 C21 1.231 1_556 S
C16 O0 1.225 1_545 S
C16 O22 1.298 1_455 S
C17 O6 1.226 1_545 S
C17 O7 1.307 1_655 S
C18 O10 1.303 1_554 S
C18 O11 1.247 . S
C19 O8 1.253 1_556 S
C19 O9 1.283 . S
C20 O12 1.304 1_556 S
C20 O14 1.272 . S
C21 O13 1.311 . S
C21 O15 1.231 1_554 S
O22 Zn4 1.953 . S
O22 C16 1.298 1_655 S
O23 Zn24 1.953 . S
O23 C39 1.225 . S
Zn24 O23 1.953 . S
Zn24 O25 1.949 . S
Zn24 O31 1.919 . S
Zn24 O36 1.924 . S
O25 Zn24 1.949 . S
O25 Zn26 1.923 . S
O25 Zn27 1.950 . S
O25 Zn28 1.945 . S
Zn26 O25 1.923 . S
Zn26 O29 1.933 . S
Zn26 O32 1.941 . S
Zn26 O33 1.965 . S
Zn27 O25 1.950 . S
Zn27 O34 1.938 . S
Zn27 O35 1.906 . S
Zn27 O45 1.953 . S
Zn28 O25 1.945 . S
Zn28 O30 1.932 . S
Zn28 O37 1.977 . S
Zn28 O38 1.910 . S
O29 Zn26 1.933 . S
O29 C40 1.226 . S
O30 Zn28 1.932 . S
O30 C40 1.307 . S
O31 Zn24 1.919 . S
O31 C42 1.253 . S
O32 Zn26 1.941 . S
O32 C42 1.283 . S
O33 Zn26 1.965 . S
O33 C41 1.303 . S
O34 Zn27 1.938 . S
O34 C41 1.247 . S
O35 Zn27 1.906 . S
O35 C43 1.304 . S
O36 Zn24 1.924 . S
O36 C44 1.311 . S
O37 Zn28 1.977 . S
O37 C43 1.272 . S
O38 Zn28 1.910 . S
O38 C44 1.231 . S
C39 O23 1.225 . S
C39 O45 1.298 . S
C40 O29 1.226 . S
C40 O30 1.307 . S
C41 O33 1.303 . S
C41 O34 1.247 . S
C42 O31 1.253 . S
C42 O32 1.283 . S
C43 O35 1.304 . S
C43 O37 1.272 . S
C44 O36 1.311 . S
C44 O38 1.231 . S
O45 Zn27 1.953 . S
O45 C39 1.298 . S
H46 C51 0.930 . S
H47 C54 0.930 . S
H48 C56 0.930 . S
H49 C50 1.016 . S
C50 H49 1.016 . S
C50 N57 1.286 . S
C51 H46 0.930 . S
C51 C52 1.397 . S
C51 C53 1.361 1_465 S
C52 C51 1.397 . S
C52 C56 1.390 . S
C53 C51 1.361 1_645 S
C53 C54 1.393 . S
C53 N57 1.413 . S
C54 H47 0.930 . S
C54 C53 1.393 . S
C54 C55 1.399 1_645 S
C55 C54 1.399 1_465 S
C55 C56 1.381 . S
C56 H48 0.930 . S
C56 C52 1.390 . S
C56 C55 1.381 . S
N57 C50 1.286 . S
N57 C53 1.413 . S
H58 C63 0.930 . S
H59 C66 0.930 . S
H60 C68 0.930 . S
H61 C62 1.016 . S
C62 H61 1.016 . S
C62 N69 1.286 . S
C63 H58 0.930 . S
C63 C64 1.397 . S
C63 C65 1.361 1_665 S
C64 C63 1.397 . S
C64 C68 1.390 . S
C65 C63 1.361 1_445 S
C65 C66 1.393 . S
C65 N69 1.413 . S
C66 H59 0.930 . S
C66 C65 1.393 . S
C66 C67 1.399 1_445 S
C67 C66 1.399 1_665 S
C67 C68 1.381 . S
C68 H60 0.930 . S
C68 C64 1.390 . S
C68 C67 1.381 . S
N69 C62 1.286 . S
N69 C65 1.413 . S
H70 C75 0.930 1_554 S
H71 C78 0.930 . S
H72 C80 0.930 . S
H73 C74 1.016 . S
C74 H73 1.016 . S
C74 N81 1.286 . S
C75 H70 0.930 1_556 S
C75 C76 1.397 . S
C75 C77 1.361 . S
C76 C75 1.397 . S
C76 C80 1.390 . S
C77 C75 1.361 . S
C77 C78 1.393 . S
C77 N81 1.413 . S
C78 H71 0.930 . S
C78 C77 1.393 . S
C78 C79 1.399 . S
C79 C78 1.399 . S
C79 C80 1.381 . S
C80 H72 0.930 . S
C80 C76 1.390 . S
C80 C79 1.381 . S
N81 C74 1.286 . S
N81 C77 1.413 . S
H82 C87 0.930 1_556 S
H83 C90 0.930 . S
H84 C92 0.930 . S
H85 C86 1.016 . S
C86 H85 1.016 . S
C86 N93 1.286 . S
C87 H82 0.930 1_554 S
C87 C88 1.397 . S
C87 C89 1.361 . S
C88 C87 1.397 . S
C88 C92 1.390 . S
C89 C87 1.361 . S
C89 C90 1.393 . S
C89 N93 1.413 . S
C90 H83 0.930 . S
C90 C89 1.393 . S
C90 C91 1.399 . S
C91 C90 1.399 . S
C91 C92 1.381 . S
C92 H84 0.930 . S
C92 C88 1.390 . S
C92 C91 1.381 . S
N93 C86 1.286 . S
N93 C89 1.413 . S
C88 C21 1.520 . S
C19 C74 1.444 . S
C18 C86 1.360 . S
C20 C76 1.496 . S
C44 C64 1.519 . S
C42 C50 1.445 . S
C62 C41 1.360 . S
C52 C43 1.496 . S
C16 C55 1.593 1_545 S
C17 C67 1.542 1_545 S
C79 C39 1.593 . S
C40 C91 1.542 . S
