# Generated by pormake.
# Topology nom, (4,4)-cn, num edge types: 1
# Building blocks:
#     Node 0, Type 0, BuildingBlock: GIZVER_clean_linker_0, # of connection points: 4
#     Node 1, Type 0, BuildingBlock: GIZVER_clean_linker_0, # of connection points: 4
#     Node 2, Type 0, BuildingBlock: GIZVER_clean_linker_0, # of connection points: 4
#     Node 3, Type 0, BuildingBlock: GIZVER_clean_linker_0, # of connection points: 4
#     Node 4, Type 0, BuildingBlock: GIZVER_clean_linker_0, # of connection points: 4
#     Node 5, Type 0, BuildingBlock: GIZVER_clean_linker_0, # of connection points: 4
#     Node 6, Type 1, BuildingBlock: QUQFOY_clean_sbu_1, # of connection points: 4
#     Node 7, Type 1, BuildingBlock: QUQFOY_clean_sbu_1, # of connection points: 4
#     Node 8, Type 1, BuildingBlock: QUQFOY_clean_sbu_1, # of connection points: 4
#     Node 9, Type 1, BuildingBlock: QUQFOY_clean_sbu_1, # of connection points: 4
#     Node 10, Type 1, BuildingBlock: QUQFOY_clean_sbu_1, # of connection points: 4
#     Node 11, Type 1, BuildingBlock: QUQFOY_clean_sbu_1, # of connection points: 4
#     Edge 12, Type (0, 1), None
#     Edge 13, Type (0, 1), None
#     Edge 14, Type (0, 1), None
#     Edge 15, Type (0, 1), None
#     Edge 16, Type (0, 1), None
#     Edge 17, Type (0, 1), None
#     Edge 18, Type (0, 1), None
#     Edge 19, Type (0, 1), None
#     Edge 20, Type (0, 1), None
#     Edge 21, Type (0, 1), None
#     Edge 22, Type (0, 1), None
#     Edge 23, Type (0, 1), None
#     Edge 24, Type (0, 1), None
#     Edge 25, Type (0, 1), None
#     Edge 26, Type (0, 1), None
#     Edge 27, Type (0, 1), None
#     Edge 28, Type (0, 1), None
#     Edge 29, Type (0, 1), None
#     Edge 30, Type (0, 1), None
#     Edge 31, Type (0, 1), None
#     Edge 32, Type (0, 1), None
#     Edge 33, Type (0, 1), None
#     Edge 34, Type (0, 1), None
#     Edge 35, Type (0, 1), None
# Relax obj value: 0.003
# Max RMSD: 0.092
# Mean RMSD: 0.079
data_MOF--net-nom--node1-QUQFOY_clean_sbu_1--node2-GIZVER_clean_linker_0--edge1-none
_symmetry_space_group_name_H-M    P1
_symmetry_Int_Tables_number       1
_symmetry_cell_setting            triclinic
loop_
_symmetry_equiv_pos_as_xyz
'x, y, z'
_cell_length_a     22.741604
_cell_length_b     22.759237
_cell_length_c     20.747594
_cell_angle_alpha  89.986982
_cell_angle_beta   90.006341
_cell_angle_gamma 120.02659
loop_
_atom_site_label
_atom_site_type_symbol
_atom_site_fract_x
_atom_site_fract_y
_atom_site_fract_z
_atom_type_partial_charge
H0 H 0.92802 0.6109 0.36854 0.0
H1 H 1.00841 0.58943 0.18821 0.0
H2 H 0.81041 0.43506 0.25014 0.0
H3 H 0.03401 0.70116 0.33262 0.0
H4 H 0.04502 0.70551 0.24706 0.0
H5 H 0.07025 0.62043 0.39233 0.0
H6 H 0.26829 0.66408 0.33056 0.0
H7 H 0.15085 0.72245 0.21203 0.0
C8 C 0.9237 0.58056 0.32664 0.0
C9 C 0.86325 0.51901 0.31571 0.0
C10 C 0.97699 0.60532 0.28152 0.0
C11 C 0.96913 0.5685 0.22483 0.0
C12 C 0.90955 0.50659 0.21383 0.0
C13 C 0.85795 0.48094 0.26051 0.0
C14 C 0.03929 0.67415 0.29029 0.0
C15 C 0.10181 0.66797 0.29912 0.0
C16 C 0.10957 0.63884 0.35575 0.0
C17 C 0.16914 0.63648 0.36679 0.0
C18 C 0.22077 0.66246 0.32015 0.0
C19 C 0.21553 0.69527 0.26495 0.0
C20 C 0.15511 0.69643 0.25398 0.0
H21 H 0.3455 0.91713 0.53509 0.0
H22 H 0.44753 0.99763 0.35481 0.0
H23 H 0.40416 0.79987 0.41677 0.0
H24 H 0.36107 0.02297 0.49915 0.0
H25 H 0.3678 0.034 0.41359 0.0
H26 H 0.47817 0.0593 0.5589 0.0
H27 H 0.63249 0.25733 0.49723 0.0
H28 H 0.45663 0.1399 0.37867 0.0
C29 C 0.37161 0.91288 0.49321 0.0
C30 C 0.37283 0.85253 0.4823 0.0
C31 C 0.40011 0.96614 0.44809 0.0
C32 C 0.42919 0.95837 0.39143 0.0
C33 C 0.43165 0.8989 0.38045 0.0
C34 C 0.40572 0.84733 0.42713 0.0
C35 C 0.39344 0.02831 0.45685 0.0
C36 C 0.46213 0.09086 0.46571 0.0
C37 C 0.49905 0.09863 0.52234 0.0
C38 C 0.56097 0.15819 0.53341 0.0
C39 C 0.5866 0.20982 0.48679 0.0
C40 C 0.54851 0.20458 0.4316 0.0
C41 C 0.48694 0.14416 0.42061 0.0
H42 H 0.34549 0.44609 0.54553 0.0
H43 H 0.44753 0.46763 0.72582 0.0
H44 H 0.40416 0.62201 0.66386 0.0
H45 H 0.36107 0.35583 0.58148 0.0
H46 H 0.3678 0.35153 0.66704 0.0
H47 H 0.47817 0.4366 0.52173 0.0
H48 H 0.63249 0.39289 0.5834 0.0
H49 H 0.45663 0.33446 0.70196 0.0
C50 C 0.37161 0.47645 0.58742 0.0
C51 C 0.37283 0.53802 0.59833 0.0
C52 C 0.40011 0.4517 0.63253 0.0
C53 C 0.42919 0.48855 0.6892 0.0
C54 C 0.43165 0.55048 0.70018 0.0
C55 C 0.40572 0.57611 0.6535 0.0
C56 C 0.39344 0.38286 0.62378 0.0
C57 C 0.46213 0.38901 0.61492 0.0
C58 C 0.49905 0.41815 0.55828 0.0
C59 C 0.56097 0.42051 0.54722 0.0
C60 C 0.5866 0.39451 0.59383 0.0
C61 C 0.54851 0.36166 0.64902 0.0
C62 C 0.48694 0.36051 0.66002 0.0
H63 H 0.92802 0.33484 0.71209 0.0
H64 H 1.00841 0.43671 0.89242 0.0
H65 H 0.81041 0.39309 0.83049 0.0
H66 H 0.034 0.35057 0.74801 0.0
H67 H 0.04501 0.35724 0.83358 0.0
H68 H 0.07024 0.46755 0.6883 0.0
H69 H 0.26829 0.62193 0.75006 0.0
H70 H 0.15085 0.44613 0.8686 0.0
C71 C 0.9237 0.36087 0.75399 0.0
C72 C 0.86325 0.36197 0.76492 0.0
C73 C 0.97699 0.38939 0.79911 0.0
C74 C 0.96913 0.41836 0.8558 0.0
C75 C 0.90955 0.42069 0.8668 0.0
C76 C 0.85796 0.39475 0.82011 0.0
C77 C 0.03928 0.38286 0.79034 0.0
C78 C 0.1018 0.45156 0.78151 0.0
C79 C 0.10957 0.48845 0.72488 0.0
C80 C 0.16914 0.55038 0.71384 0.0
C81 C 0.22077 0.57603 0.76048 0.0
C82 C 0.21553 0.53798 0.81568 0.0
C83 C 0.15511 0.47641 0.82665 0.0
H84 H 0.73327 0.13993 0.03515 0.0
H85 H 0.63139 0.05948 0.85481 0.0
H86 H 0.67454 0.25714 0.91676 0.0
H87 H 0.71779 0.03413 -0.00078 0.0
H88 H 0.71108 0.0231 0.91366 0.0
H89 H 0.60071 0.99776 0.05895 0.0
H90 H 0.44633 0.79979 -0.00276 0.0
H91 H 0.62221 0.91725 0.8787 0.0
C92 C 0.70717 0.14417 -0.00676 0.0
C93 C 0.7059 0.20449 -0.01768 0.0
C94 C 0.67874 0.09094 0.94812 0.0
C95 C 0.64967 0.09871 0.89143 0.0
C96 C 0.64716 0.15816 0.88044 0.0
C97 C 0.67302 0.20969 0.92713 0.0
C98 C 0.68542 0.02878 0.9569 0.0
C99 C 0.61673 0.96624 -0.03424 0.0
C100 C 0.57981 0.95845 0.02239 0.0
C101 C 0.51788 0.8989 0.03344 0.0
C102 C 0.49224 0.8473 -0.01318 0.0
C103 C 0.53032 0.85256 0.93162 0.0
C104 C 0.59191 0.91297 0.92064 0.0
H105 H 0.73327 0.61108 0.04548 0.0
H106 H 0.63139 0.58964 0.22582 0.0
H107 H 0.67455 0.43514 0.16387 0.0
H108 H 0.71779 0.70139 0.08141 0.0
H109 H 0.71108 0.70571 0.16697 0.0
H110 H 0.6007 0.62068 0.02167 0.0
H111 H 0.44633 0.66426 0.08338 0.0
H112 H 0.62221 0.72269 0.20193 0.0
C113 C 0.70717 0.58073 0.08738 0.0
C114 C 0.7059 0.51913 0.09831 0.0
C115 C 0.67874 0.60553 0.13251 0.0
C116 C 0.64967 0.56869 0.1892 0.0
C117 C 0.64717 0.50674 0.20019 0.0
C118 C 0.67302 0.48106 0.1535 0.0
C119 C 0.68542 0.67437 0.12372 0.0
C120 C 0.61673 0.66823 0.11487 0.0
C121 C 0.57981 0.63909 0.05823 0.0
C122 C 0.51788 0.63671 0.04719 0.0
C123 C 0.49224 0.66267 0.09381 0.0
C124 C 0.53032 0.69549 0.14901 0.0
C125 C 0.59191 0.69667 0.15998 0.0
O126 O 0.55353 0.41468 0.4336 0.0
Cd127 Cd 0.5833 0.37153 0.36251 0.0
Cd128 Cd 0.69623 0.48431 0.38488 0.0
O129 O 0.65515 0.45889 0.47607 0.0
O130 O 0.51897 0.27185 0.36409 0.0
O131 O 0.62491 0.32059 0.4005 0.0
C132 C 0.56586 0.26671 0.39443 0.0
C133 C 0.8011 0.50168 0.35292 0.0
C134 C 0.59198 0.43681 0.48266 0.0
C135 C 0.63089 0.47573 0.26475 0.0
O136 O 0.65308 0.51413 0.31382 0.0
O137 O 0.60874 0.4126 0.27133 0.0
O138 O 0.79601 0.54855 0.38329 0.0
O139 O 0.74716 0.44269 0.34687 0.0
O140 O 0.16757 0.54296 0.60021 0.0
Cd141 Cd 0.24058 0.57276 0.52915 0.0
Cd142 Cd 0.24058 0.68555 0.55148 0.0
O143 O 0.22495 0.6445 0.64268 0.0
O144 O 0.27599 0.5085 0.53076 0.0
O145 O 0.3332 0.61436 0.56716 0.0
C146 C 0.32804 0.55536 0.56112 0.0
C147 C 0.32804 0.79041 0.51951 0.0
C148 C 0.18386 0.58137 0.64928 0.0
C149 C 0.18386 0.62021 0.43135 0.0
O150 O 0.16757 0.64233 0.48041 0.0
O151 O 0.22494 0.59816 0.43795 0.0
O152 O 0.27599 0.78521 0.54987 0.0
O153 O 0.3332 0.73657 0.51347 0.0
O154 O 0.65307 0.15668 0.76681 0.0
Cd155 Cd 0.69623 0.22966 0.69574 0.0
Cd156 Cd 0.5833 0.22949 0.71812 0.0
O157 O 0.60874 0.21387 0.8093 0.0
O158 O 0.796 0.26519 0.69734 0.0
O159 O 0.74716 0.3222 0.73376 0.0
C160 C 0.8011 0.31715 0.7277 0.0
C161 C 0.56586 0.31688 0.68619 0.0
C162 C 0.63089 0.17289 0.81588 0.0
C163 C 0.59198 0.1729 0.59797 0.0
O164 O 0.55353 0.15657 0.64703 0.0
O165 O 0.65515 0.214 0.60456 0.0
O166 O 0.51896 0.26485 0.71654 0.0
O167 O 0.62491 0.32205 0.68013 0.0
O168 O 0.52529 0.64249 0.93355 0.0
Cd169 Cd 0.4955 0.68565 0.86247 0.0
Cd170 Cd 0.38261 0.57286 0.88486 0.0
O171 O 0.42368 0.59832 -0.02396 0.0
O172 O 0.55983 0.78533 0.86405 0.0
O173 O 0.45389 0.73658 0.90048 0.0
C174 C 0.51295 0.79046 0.89442 0.0
C175 C 0.2777 0.55538 0.85289 0.0
C176 C 0.48685 0.6204 -0.01737 0.0
C177 C 0.44794 0.58149 0.76473 0.0
O178 O 0.4258 0.54309 0.81381 0.0
O179 O 0.47004 0.64461 0.77129 0.0
O180 O 0.28285 0.50855 0.88329 0.0
O181 O 0.3316 0.6144 0.84681 0.0
O182 O 0.91105 0.41475 -0.01958 0.0
Cd183 Cd 0.83803 0.37149 0.05149 0.0
Cd184 Cd 0.83804 0.48428 0.02914 0.0
O185 O 0.85366 0.45891 0.93794 0.0
O186 O 0.8027 0.27184 0.0499 0.0
O187 O 0.74542 0.32043 0.01349 0.0
C188 C 0.75064 0.26662 0.01954 0.0
C189 C 0.75064 0.50175 0.06109 0.0
C190 C 0.89476 0.43688 0.93136 0.0
C191 C 0.89476 0.47561 0.14927 0.0
O192 O 0.91105 0.51403 0.1002 0.0
O193 O 0.85366 0.41248 0.14269 0.0
O194 O 0.80271 0.54859 0.03073 0.0
O195 O 0.74542 0.44273 0.06714 0.0
O196 O 0.52529 0.90052 0.14707 0.0
Cd197 Cd 0.4955 0.82757 0.21816 0.0
Cd198 Cd 0.38261 0.82747 0.19577 0.0
O199 O 0.42368 0.84309 0.10458 0.0
O200 O 0.55983 0.79222 0.21657 0.0
O201 O 0.45389 0.73504 0.18014 0.0
C202 C 0.51295 0.74022 0.1862 0.0
C203 C 0.2777 0.74005 0.22774 0.0
C204 C 0.48685 0.88418 0.098 0.0
C205 C 0.44794 0.88418 0.3159 0.0
O206 O 0.42581 0.90044 0.26681 0.0
O207 O 0.47004 0.84316 0.30934 0.0
O208 O 0.28286 0.79203 0.19734 0.0
O209 O 0.3316 0.73493 0.23382 0.0
loop_
_geom_bond_atom_site_label_1
_geom_bond_atom_site_label_2
_geom_bond_distance
_geom_bond_site_symmetry_2
_ccdc_geom_bond_type
H0 C8 0.930 . S
H1 C11 0.930 . S
H2 C13 0.930 . S
H3 C14 0.970 1_655 S
H4 C14 0.970 . S
H5 C16 0.930 . S
H6 C18 0.930 . S
H7 C20 0.930 . S
C8 H0 0.930 . S
C8 C9 1.382 . S
C8 C10 1.426 . S
C9 C8 1.382 . S
C9 C13 1.389 . S
C10 C8 1.426 . S
C10 C11 1.375 . S
C10 C14 1.532 1_655 S
C11 H1 0.930 . S
C11 C10 1.375 . S
C11 C12 1.416 . S
C12 C11 1.416 . S
C12 C13 1.371 . S
C13 H2 0.930 . S
C13 C9 1.389 . S
C13 C12 1.371 . S
C14 H3 0.970 1_455 S
C14 H4 0.970 . S
C14 C10 1.532 1_455 S
C14 C15 1.499 . S
C15 C14 1.499 . S
C15 C16 1.370 . S
C15 C20 1.415 . S
C16 H5 0.930 . S
C16 C15 1.370 . S
C16 C17 1.407 . S
C17 C16 1.407 . S
C17 C18 1.365 . S
C18 H6 0.930 . S
C18 C17 1.365 . S
C18 C19 1.393 . S
C19 C18 1.393 . S
C19 C20 1.387 . S
C20 H7 0.930 . S
C20 C15 1.415 . S
C20 C19 1.387 . S
H21 C29 0.930 . S
H22 C32 0.930 . S
H23 C34 0.930 . S
H24 C35 0.970 1_565 S
H25 C35 0.970 . S
H26 C37 0.930 . S
H27 C39 0.930 . S
H28 C41 0.930 . S
C29 H21 0.930 . S
C29 C30 1.382 . S
C29 C31 1.426 . S
C30 C29 1.382 . S
C30 C34 1.389 . S
C31 C29 1.426 . S
C31 C32 1.375 . S
C31 C35 1.532 1_565 S
C32 H22 0.930 . S
C32 C31 1.375 . S
C32 C33 1.416 . S
C33 C32 1.416 . S
C33 C34 1.371 . S
C34 H23 0.930 . S
C34 C30 1.389 . S
C34 C33 1.371 . S
C35 H24 0.970 1_545 S
C35 H25 0.970 . S
C35 C31 1.532 1_545 S
C35 C36 1.499 . S
C36 C35 1.499 . S
C36 C37 1.370 . S
C36 C41 1.415 . S
C37 H26 0.930 . S
C37 C36 1.370 . S
C37 C38 1.407 . S
C38 C37 1.407 . S
C38 C39 1.365 . S
C39 H27 0.930 . S
C39 C38 1.365 . S
C39 C40 1.393 . S
C40 C39 1.393 . S
C40 C41 1.387 . S
C41 H28 0.930 . S
C41 C36 1.415 . S
C41 C40 1.387 . S
H42 C50 0.930 . S
H43 C53 0.930 . S
H44 C55 0.930 . S
H45 C56 0.970 . S
H46 C56 0.970 . S
H47 C58 0.930 . S
H48 C60 0.930 . S
H49 C62 0.930 . S
C50 H42 0.930 . S
C50 C51 1.382 . S
C50 C52 1.426 . S
C51 C50 1.382 . S
C51 C55 1.389 . S
C52 C50 1.426 . S
C52 C53 1.375 . S
C52 C56 1.532 . S
C53 H43 0.930 . S
C53 C52 1.375 . S
C53 C54 1.416 . S
C54 C53 1.416 . S
C54 C55 1.371 . S
C55 H44 0.930 . S
C55 C51 1.389 . S
C55 C54 1.371 . S
C56 H45 0.970 . S
C56 H46 0.970 . S
C56 C52 1.532 . S
C56 C57 1.499 . S
C57 C56 1.499 . S
C57 C58 1.370 . S
C57 C62 1.415 . S
C58 H47 0.930 . S
C58 C57 1.370 . S
C58 C59 1.407 . S
C59 C58 1.407 . S
C59 C60 1.365 . S
C60 H48 0.930 . S
C60 C59 1.365 . S
C60 C61 1.393 . S
C61 C60 1.393 . S
C61 C62 1.387 . S
C62 H49 0.930 . S
C62 C57 1.415 . S
C62 C61 1.387 . S
H63 C71 0.930 . S
H64 C74 0.930 . S
H65 C76 0.930 . S
H66 C77 0.970 1_655 S
H67 C77 0.970 . S
H68 C79 0.930 . S
H69 C81 0.930 . S
H70 C83 0.930 . S
C71 H63 0.930 . S
C71 C72 1.382 . S
C71 C73 1.426 . S
C72 C71 1.382 . S
C72 C76 1.389 . S
C73 C71 1.426 . S
C73 C74 1.375 . S
C73 C77 1.532 1_655 S
C74 H64 0.930 . S
C74 C73 1.375 . S
C74 C75 1.416 . S
C75 C74 1.416 . S
C75 C76 1.371 . S
C76 H65 0.930 . S
C76 C72 1.389 . S
C76 C75 1.371 . S
C77 H66 0.970 1_455 S
C77 H67 0.970 . S
C77 C73 1.532 1_455 S
C77 C78 1.499 . S
C78 C77 1.499 . S
C78 C79 1.370 . S
C78 C83 1.415 . S
C79 H68 0.930 . S
C79 C78 1.370 . S
C79 C80 1.407 . S
C80 C79 1.407 . S
C80 C81 1.365 . S
C81 H69 0.930 . S
C81 C80 1.365 . S
C81 C82 1.393 . S
C82 C81 1.393 . S
C82 C83 1.387 . S
C83 H70 0.930 . S
C83 C78 1.415 . S
C83 C82 1.387 . S
H84 C92 0.930 . S
H85 C95 0.930 . S
H86 C97 0.930 . S
H87 C98 0.970 1_554 S
H88 C98 0.970 1_565 S
H89 C100 0.930 . S
H90 C102 0.930 . S
H91 C104 0.930 . S
C92 H84 0.930 . S
C92 C93 1.382 . S
C92 C94 1.426 1_554 S
C93 C92 1.382 . S
C93 C97 1.389 1_554 S
C94 C92 1.426 1_556 S
C94 C95 1.375 . S
C94 C98 1.532 . S
C95 H85 0.930 . S
C95 C94 1.375 . S
C95 C96 1.416 . S
C96 C95 1.416 . S
C96 C97 1.371 . S
C97 H86 0.930 . S
C97 C93 1.389 1_556 S
C97 C96 1.371 . S
C98 H87 0.970 1_556 S
C98 H88 0.970 1_545 S
C98 C94 1.532 . S
C98 C99 1.499 1_546 S
C99 C98 1.499 1_564 S
C99 C100 1.370 . S
C99 C104 1.415 1_554 S
C100 H89 0.930 . S
C100 C99 1.370 . S
C100 C101 1.407 . S
C101 C100 1.407 . S
C101 C102 1.365 . S
C102 H90 0.930 . S
C102 C101 1.365 . S
C102 C103 1.393 1_554 S
C103 C102 1.393 1_556 S
C103 C104 1.387 . S
C104 H91 0.930 . S
C104 C99 1.415 1_556 S
C104 C103 1.387 . S
H105 C113 0.930 . S
H106 C116 0.930 . S
H107 C118 0.930 . S
H108 C119 0.970 . S
H109 C119 0.970 . S
H110 C121 0.930 . S
H111 C123 0.930 . S
H112 C125 0.930 . S
C113 H105 0.930 . S
C113 C114 1.382 . S
C113 C115 1.426 . S
C114 C113 1.382 . S
C114 C118 1.389 . S
C115 C113 1.426 . S
C115 C116 1.375 . S
C115 C119 1.532 . S
C116 H106 0.930 . S
C116 C115 1.375 . S
C116 C117 1.416 . S
C117 C116 1.416 . S
C117 C118 1.371 . S
C118 H107 0.930 . S
C118 C114 1.389 . S
C118 C117 1.371 . S
C119 H108 0.970 . S
C119 H109 0.970 . S
C119 C115 1.532 . S
C119 C120 1.499 . S
C120 C119 1.499 . S
C120 C121 1.370 . S
C120 C125 1.415 . S
C121 H110 0.930 . S
C121 C120 1.370 . S
C121 C122 1.407 . S
C122 C121 1.407 . S
C122 C123 1.365 . S
C123 H111 0.930 . S
C123 C122 1.365 . S
C123 C124 1.393 . S
C124 C123 1.393 . S
C124 C125 1.387 . S
C125 H112 0.930 . S
C125 C120 1.415 . S
C125 C124 1.387 . S
O126 Cd127 2.223 . S
O126 C134 1.315 . S
Cd127 O126 2.223 . S
Cd127 O130 2.297 . S
Cd127 O131 2.439 . S
Cd127 O137 2.240 . S
Cd128 O129 2.240 . S
Cd128 O136 2.223 . S
Cd128 O138 2.297 . S
Cd128 O139 2.439 . S
O129 Cd128 2.240 . S
O129 C134 1.279 . S
O130 Cd127 2.297 . S
O130 C132 1.247 . S
O131 Cd127 2.439 . S
O131 C132 1.208 . S
C132 O130 1.247 . S
C132 O131 1.208 . S
C133 O138 1.247 . S
C133 O139 1.208 . S
C134 O126 1.315 . S
C134 O129 1.279 . S
C135 O136 1.315 . S
C135 O137 1.279 . S
O136 Cd128 2.223 . S
O136 C135 1.315 . S
O137 Cd127 2.240 . S
O137 C135 1.279 . S
O138 Cd128 2.297 . S
O138 C133 1.247 . S
O139 Cd128 2.439 . S
O139 C133 1.208 . S
O140 Cd141 2.223 . S
O140 C148 1.315 . S
Cd141 O140 2.223 . S
Cd141 O144 2.297 . S
Cd141 O145 2.439 . S
Cd141 O151 2.240 . S
Cd142 O143 2.240 . S
Cd142 O150 2.223 . S
Cd142 O152 2.297 . S
Cd142 O153 2.439 . S
O143 Cd142 2.240 . S
O143 C148 1.279 . S
O144 Cd141 2.297 . S
O144 C146 1.247 . S
O145 Cd141 2.439 . S
O145 C146 1.208 . S
C146 O144 1.247 . S
C146 O145 1.208 . S
C147 O152 1.247 . S
C147 O153 1.208 . S
C148 O140 1.315 . S
C148 O143 1.279 . S
C149 O150 1.315 . S
C149 O151 1.279 . S
O150 Cd142 2.223 . S
O150 C149 1.315 . S
O151 Cd141 2.240 . S
O151 C149 1.279 . S
O152 Cd142 2.297 . S
O152 C147 1.247 . S
O153 Cd142 2.439 . S
O153 C147 1.208 . S
O154 Cd155 2.223 . S
O154 C162 1.315 . S
Cd155 O154 2.223 . S
Cd155 O158 2.297 . S
Cd155 O159 2.439 . S
Cd155 O165 2.240 . S
Cd156 O157 2.240 . S
Cd156 O164 2.223 . S
Cd156 O166 2.297 . S
Cd156 O167 2.439 . S
O157 Cd156 2.240 . S
O157 C162 1.279 . S
O158 Cd155 2.297 . S
O158 C160 1.247 . S
O159 Cd155 2.439 . S
O159 C160 1.208 . S
C160 O158 1.247 . S
C160 O159 1.208 . S
C161 O166 1.247 . S
C161 O167 1.208 . S
C162 O154 1.315 . S
C162 O157 1.279 . S
C163 O164 1.315 . S
C163 O165 1.279 . S
O164 Cd156 2.223 . S
O164 C163 1.315 . S
O165 Cd155 2.240 . S
O165 C163 1.279 . S
O166 Cd156 2.297 . S
O166 C161 1.247 . S
O167 Cd156 2.439 . S
O167 C161 1.208 . S
O168 Cd169 2.223 . S
O168 C176 1.315 . S
Cd169 O168 2.223 . S
Cd169 O172 2.297 . S
Cd169 O173 2.439 . S
Cd169 O179 2.240 . S
Cd170 O171 2.240 . S
Cd170 O178 2.223 . S
Cd170 O180 2.297 . S
Cd170 O181 2.439 . S
O171 Cd170 2.240 . S
O171 C176 1.279 . S
O172 Cd169 2.297 . S
O172 C174 1.247 . S
O173 Cd169 2.439 . S
O173 C174 1.208 . S
C174 O172 1.247 . S
C174 O173 1.208 . S
C175 O180 1.247 . S
C175 O181 1.208 . S
C176 O168 1.315 . S
C176 O171 1.279 . S
C177 O178 1.315 . S
C177 O179 1.279 . S
O178 Cd170 2.223 . S
O178 C177 1.315 . S
O179 Cd169 2.240 . S
O179 C177 1.279 . S
O180 Cd170 2.297 . S
O180 C175 1.247 . S
O181 Cd170 2.439 . S
O181 C175 1.208 . S
O182 Cd183 2.223 . S
O182 C190 1.315 1_554 S
Cd183 O182 2.223 . S
Cd183 O186 2.297 . S
Cd183 O187 2.439 . S
Cd183 O193 2.240 . S
Cd184 O185 2.240 1_554 S
Cd184 O192 2.223 . S
Cd184 O194 2.297 . S
Cd184 O195 2.439 . S
O185 Cd184 2.240 1_556 S
O185 C190 1.279 . S
O186 Cd183 2.297 . S
O186 C188 1.247 . S
O187 Cd183 2.439 . S
O187 C188 1.208 . S
C188 O186 1.247 . S
C188 O187 1.208 . S
C189 O194 1.247 . S
C189 O195 1.208 . S
C190 O182 1.315 1_556 S
C190 O185 1.279 . S
C191 O192 1.315 . S
C191 O193 1.279 . S
O192 Cd184 2.223 . S
O192 C191 1.315 . S
O193 Cd183 2.240 . S
O193 C191 1.279 . S
O194 Cd184 2.297 . S
O194 C189 1.247 . S
O195 Cd184 2.439 . S
O195 C189 1.208 . S
O196 Cd197 2.223 . S
O196 C204 1.315 . S
Cd197 O196 2.223 . S
Cd197 O200 2.297 . S
Cd197 O201 2.439 . S
Cd197 O207 2.240 . S
Cd198 O199 2.240 . S
Cd198 O206 2.223 . S
Cd198 O208 2.297 . S
Cd198 O209 2.439 . S
O199 Cd198 2.240 . S
O199 C204 1.279 . S
O200 Cd197 2.297 . S
O200 C202 1.247 . S
O201 Cd197 2.439 . S
O201 C202 1.208 . S
C202 O200 1.247 . S
C202 O201 1.208 . S
C203 O208 1.247 . S
C203 O209 1.208 . S
C204 O196 1.315 . S
C204 O199 1.279 . S
C205 O206 1.315 . S
C205 O207 1.279 . S
O206 Cd198 2.223 . S
O206 C205 1.315 . S
O207 Cd197 2.240 . S
O207 C205 1.279 . S
O208 Cd198 2.297 . S
O208 C203 1.247 . S
O209 Cd198 2.439 . S
O209 C203 1.208 . S
C203 C19 1.329 . S
C40 C132 1.333 . S
C51 C146 1.321 . S
C72 C160 1.313 . S
C174 C103 1.332 . S
C114 C189 1.311 . S
C30 C147 1.321 . S
C61 C161 1.334 . S
C82 C175 1.329 . S
C188 C93 1.311 . S
C202 C124 1.332 . S
C133 C9 1.313 . S
C17 C149 1.541 . S
C38 C163 1.530 . S
C177 C54 1.544 . S
C75 C190 1.547 . S
C204 C101 1.530 . S
C135 C117 1.542 . S
C205 C33 1.544 . S
C59 C134 1.530 . S
C148 C80 1.541 . S
C96 C162 1.542 . S
C122 C176 1.530 1_554 S
C12 C191 1.547 . S
