# Generated by pormake.
# Topology tsx, (6,3)-cn, num edge types: 1
# Building blocks:
#     Node 0, Type 0, BuildingBlock: MIDCAF_clean_sbu_0, # of connection points: 6
#     Node 1, Type 0, BuildingBlock: MIDCAF_clean_sbu_0, # of connection points: 6
#     Node 2, Type 1, BuildingBlock: BETDIP_clean_linker_0, # of connection points: 3
#     Node 3, Type 1, BuildingBlock: BETDIP_clean_linker_0, # of connection points: 3
#     Node 4, Type 1, BuildingBlock: BETDIP_clean_linker_0, # of connection points: 3
#     Node 5, Type 1, BuildingBlock: BETDIP_clean_linker_0, # of connection points: 3
#     Edge 6, Type (0, 1), None
#     Edge 7, Type (0, 1), None
#     Edge 8, Type (0, 1), None
#     Edge 9, Type (0, 1), None
#     Edge 10, Type (0, 1), None
#     Edge 11, Type (0, 1), None
#     Edge 12, Type (0, 1), None
#     Edge 13, Type (0, 1), None
#     Edge 14, Type (0, 1), None
#     Edge 15, Type (0, 1), None
#     Edge 16, Type (0, 1), None
#     Edge 17, Type (0, 1), None
# Relax obj value: 0.077
# Max RMSD: 0.143
# Mean RMSD: 0.101
data_MOF--net-tsx--node1-MIDCAF_clean_sbu_0--node2-BETDIP_clean_linker_0--edge1-none
_symmetry_space_group_name_H-M    P1
_symmetry_Int_Tables_number       1
_symmetry_cell_setting            triclinic
loop_
_symmetry_equiv_pos_as_xyz
'x, y, z'
_cell_length_a     8.0796357
_cell_length_b     10.087881
_cell_length_c     16.403184
_cell_angle_alpha  90.840274
_cell_angle_beta   105.77829
_cell_angle_gamma 90.633135
loop_
_atom_site_label
_atom_site_type_symbol
_atom_site_fract_x
_atom_site_fract_y
_atom_site_fract_z
_atom_type_partial_charge
Zn0 Zn 0.91526 -0.04263 -0.04289 0.0
Zn1 Zn 0.54561 0.94097 0.08738 0.0
Zn2 Zn 0.23682 -0.01089 -0.02457 0.0
C3 C 0.56301 0.19473 0.05587 0.0
C4 C 0.46136 0.76453 0.93991 0.0
O5 O 0.15829 0.79958 0.0358 0.0
O6 O 0.89215 0.82374 0.04249 0.0
C7 C 0.98857 0.20745 0.91495 0.0
O8 O 0.40681 0.15527 0.02557 0.0
O9 O 0.67919 0.10925 0.07688 0.0
O10 O 0.55798 0.77893 0.01453 0.0
O11 O 0.33389 0.83925 0.913 0.0
O12 O 0.91401 0.16095 -0.03256 0.0
O13 O 0.09991 0.13711 0.8932 0.0
O14 O 0.10322 -0.0031 0.84059 0.0
O15 O 0.86928 0.88154 0.83683 0.0
C16 C 0.97033 0.93087 0.79814 0.0
O17 O 0.1624 -0.00793 0.09173 0.0
O18 O 0.41451 0.948 0.17901 0.0
C19 C 1.02498 0.75368 0.05622 0.0
C20 C 0.25684 -0.02339 0.16716 0.0
Zn21 Zn 0.80887 0.46369 0.48538 0.0
Zn22 Zn 0.18516 0.41019 0.35159 0.0
Zn23 Zn 0.48438 0.46226 0.45985 0.0
C24 C 0.43573 0.47597 0.2637 0.0
C25 C 0.19498 0.66838 0.38409 0.0
O26 O 0.60808 0.48381 0.59366 0.0
O27 O 0.85152 0.38369 0.60294 0.0
C28 C 0.74119 0.28415 0.36598 0.0
O29 O 0.53069 0.48842 0.33967 0.0
O30 O 0.28391 0.42955 0.25043 0.0
O31 O 0.07963 0.58088 0.37999 0.0
O32 O 0.35239 0.6347 0.40345 0.0
O33 O 0.87113 0.35576 0.39841 0.0
O34 O 0.59775 0.31173 0.38242 0.0
O35 O 0.59316 0.62702 0.54254 0.0
O36 O 0.78767 0.66287 0.47501 0.0
C37 C 0.70021 0.70551 0.52287 0.0
O38 O 0.35852 0.32594 0.51747 0.0
O39 O 0.16199 0.23816 0.41039 0.0
C40 C 0.74147 0.42642 0.6384 0.0
C41 C 0.24139 0.24018 0.48824 0.0
H42 H 0.93209 0.82656 0.39456 0.0
H43 H 0.99026 0.10911 0.2087 0.0
H44 H 0.34274 0.78761 0.27917 0.0
H45 H 0.78338 0.22148 0.24614 0.0
C46 C 0.75499 0.18309 0.30207 0.0
C47 C 1.00127 0.86464 0.35218 0.0
C48 C 0.14611 0.79709 0.34393 0.0
C49 C 0.94774 -0.01831 0.30783 0.0
C50 C 1.0328 0.0234 0.24715 0.0
C51 C 0.17582 0.95234 0.23655 0.0
C52 C 0.23514 0.84393 0.28813 0.0
N53 N 0.81469 0.0549 0.32984 0.0
H54 H 0.7665 0.93439 0.45973 0.0
H55 H 0.09218 0.08974 0.69387 0.0
H56 H 0.76423 0.75082 0.69264 0.0
H57 H 0.26779 0.13975 0.60973 0.0
C58 C 0.18456 0.15444 0.54648 0.0
C59 C 0.81151 0.93205 0.52793 0.0
C60 C 0.75854 0.82875 0.57054 0.0
C61 C 0.93917 0.02074 0.5709 0.0
C62 C 0.9955 0.01904 0.65981 0.0
C63 C 0.92262 0.92755 0.70467 0.0
C64 C 0.80649 0.83027 0.65926 0.0
N65 N 1.01425 0.10338 0.52144 0.0
H66 H 0.89712 0.43394 -0.02518 0.0
H67 H 0.60605 0.58528 0.73856 0.0
H68 H 0.93243 0.2487 0.74524 0.0
H69 H 0.42215 0.64937 0.81968 0.0
C70 C 0.50714 0.66834 0.88257 0.0
C71 C 0.85706 0.42693 0.90735 0.0
C72 C 0.91679 0.32442 0.86627 0.0
C73 C 0.73919 0.51655 0.86269 0.0
C74 C 0.69556 0.5141 0.77388 0.0
C75 C 0.7747 0.42271 0.73117 0.0
C76 C 0.88283 0.32597 0.77785 0.0
N77 N 0.66823 0.60624 0.91047 0.0
H78 H 0.8561 0.35853 0.08442 0.0
H79 H 0.69932 0.63662 0.24636 0.0
H80 H 0.35942 0.31802 0.12908 0.0
H81 H 0.11442 0.54884 0.09487 0.0
C82 C 1.0245 0.62561 0.0998 0.0
C83 C 0.75346 0.40169 0.10545 0.0
C84 C 0.59568 0.33068 0.09298 0.0
C85 C 0.7814 0.52257 0.1528 0.0
C86 C 0.66823 0.55426 0.20129 0.0
C87 C 0.51969 0.47705 0.1948 0.0
C88 C 0.47537 0.37636 0.13361 0.0
N89 N 0.92234 0.61243 0.15789 0.0
loop_
_geom_bond_atom_site_label_1
_geom_bond_atom_site_label_2
_geom_bond_distance
_geom_bond_site_symmetry_2
_ccdc_geom_bond_type
Zn0 O6 1.920 1_545 S
Zn0 O12 1.898 . S
Zn0 O15 1.905 1_545 S
Zn1 O9 1.905 . S
Zn1 O10 1.898 1_545 S
Zn1 O18 1.920 1_545 S
Zn2 O5 2.080 1_444 S
Zn2 O8 2.114 . S
Zn2 O11 2.120 1_545 S
Zn2 O13 2.120 1_455 S
Zn2 O14 2.114 1_554 S
Zn2 O17 2.080 . S
C3 O8 1.166 . S
C3 O9 1.182 . S
C4 O10 1.167 . S
C4 O11 1.299 . S
O5 Zn2 2.080 1_666 S
O5 C19 1.305 . S
O6 Zn0 1.920 1_565 S
O6 C19 1.234 . S
C7 O12 1.167 . S
C7 O13 1.299 1_556 S
O8 Zn2 2.114 . S
O8 C3 1.166 . S
O9 Zn1 1.905 . S
O9 C3 1.182 . S
O10 Zn1 1.898 1_565 S
O10 C4 1.167 . S
O11 Zn2 2.120 1_565 S
O11 C4 1.299 . S
O12 Zn0 1.898 . S
O12 C7 1.167 . S
O13 Zn2 2.120 1_655 S
O13 C7 1.299 1_554 S
O14 Zn2 2.114 1_556 S
O14 C16 1.166 1_445 S
O15 Zn0 1.905 1_565 S
O15 C16 1.182 . S
C16 O14 1.166 1_665 S
C16 O15 1.182 . S
O17 Zn2 2.080 . S
O17 C20 1.305 1_545 S
O18 Zn1 1.920 1_565 S
O18 C20 1.234 . S
C19 O5 1.305 . S
C19 O6 1.234 . S
C20 O17 1.305 1_565 S
C20 O18 1.234 . S
Zn21 O27 1.920 . S
Zn21 O33 1.898 . S
Zn21 O36 1.905 . S
Zn22 O30 1.905 . S
Zn22 O31 1.898 . S
Zn22 O39 1.920 . S
Zn23 O26 2.080 . S
Zn23 O29 2.114 . S
Zn23 O32 2.120 . S
Zn23 O34 2.120 . S
Zn23 O35 2.114 . S
Zn23 O38 2.080 . S
C24 O29 1.166 . S
C24 O30 1.182 . S
C25 O31 1.167 . S
C25 O32 1.299 . S
O26 Zn23 2.080 . S
O26 C40 1.305 . S
O27 Zn21 1.920 . S
O27 C40 1.234 . S
C28 O33 1.167 . S
C28 O34 1.299 . S
O29 Zn23 2.114 . S
O29 C24 1.166 . S
O30 Zn22 1.905 . S
O30 C24 1.182 . S
O31 Zn22 1.898 . S
O31 C25 1.167 . S
O32 Zn23 2.120 . S
O32 C25 1.299 . S
O33 Zn21 1.898 . S
O33 C28 1.167 . S
O34 Zn23 2.120 . S
O34 C28 1.299 . S
O35 Zn23 2.114 . S
O35 C37 1.166 . S
O36 Zn21 1.905 . S
O36 C37 1.182 . S
C37 O35 1.166 . S
C37 O36 1.182 . S
O38 Zn23 2.080 . S
O38 C41 1.305 . S
O39 Zn22 1.920 . S
O39 C41 1.234 . S
C40 O26 1.305 . S
C40 O27 1.234 . S
C41 O38 1.305 . S
C41 O39 1.234 . S
H42 C47 0.930 . S
H43 C50 0.930 1_655 S
H44 C52 0.930 . S
H45 C46 1.016 . S
C46 H45 1.016 . S
C46 N53 1.286 . S
C47 H42 0.930 . S
C47 C48 1.397 . S
C47 C49 1.361 1_565 S
C48 C47 1.397 . S
C48 C52 1.390 . S
C49 C47 1.361 1_545 S
C49 C50 1.393 . S
C49 N53 1.413 1_455 S
C50 H43 0.930 1_455 S
C50 C49 1.393 . S
C50 C51 1.399 1_545 S
C51 C50 1.399 1_565 S
C51 C52 1.381 . S
C52 H44 0.930 . S
C52 C48 1.390 . S
C52 C51 1.381 . S
N53 C46 1.286 . S
N53 C49 1.413 1_655 S
H54 C59 0.930 . S
H55 C62 0.930 . S
H56 C64 0.930 . S
H57 C58 1.016 . S
C58 H57 1.016 . S
C58 N65 1.286 . S
C59 H54 0.930 . S
C59 C60 1.397 . S
C59 C61 1.361 1_665 S
C60 C59 1.397 . S
C60 C64 1.390 . S
C61 C59 1.361 1_445 S
C61 C62 1.393 . S
C61 N65 1.413 . S
C62 H55 0.930 . S
C62 C61 1.393 . S
C62 C63 1.399 1_445 S
C63 C62 1.399 1_665 S
C63 C64 1.381 . S
C64 H56 0.930 . S
C64 C60 1.390 . S
C64 C63 1.381 . S
N65 C58 1.286 . S
N65 C61 1.413 . S
H66 C71 0.930 1_554 S
H67 C74 0.930 . S
H68 C76 0.930 . S
H69 C70 1.016 . S
C70 H69 1.016 . S
C70 N77 1.286 . S
C71 H66 0.930 1_556 S
C71 C72 1.397 . S
C71 C73 1.361 . S
C72 C71 1.397 . S
C72 C76 1.390 . S
C73 C71 1.361 . S
C73 C74 1.393 . S
C73 N77 1.413 . S
C74 H67 0.930 . S
C74 C73 1.393 . S
C74 C75 1.399 . S
C75 C74 1.399 . S
C75 C76 1.381 . S
C76 H68 0.930 . S
C76 C72 1.390 . S
C76 C75 1.381 . S
N77 C70 1.286 . S
N77 C73 1.413 . S
H78 C83 0.930 1_556 S
H79 C86 0.930 . S
H80 C88 0.930 . S
H81 C82 1.016 . S
C82 H81 1.016 . S
C82 N89 1.286 . S
C83 H78 0.930 1_554 S
C83 C84 1.397 . S
C83 C85 1.361 . S
C84 C83 1.397 . S
C84 C88 1.390 . S
C85 C83 1.361 . S
C85 C86 1.393 . S
C85 N89 1.413 . S
C86 H79 0.930 . S
C86 C85 1.393 . S
C86 C87 1.399 . S
C87 C86 1.399 . S
C87 C88 1.381 . S
C88 H80 0.930 . S
C88 C84 1.390 . S
C88 C87 1.381 . S
N89 C82 1.286 . S
N89 C85 1.413 . S
C84 C3 1.207 . S
C4 C70 1.396 1_554 S
C19 C82 1.440 1_556 S
C7 C72 1.216 . S
C37 C60 1.207 . S
C28 C46 1.396 . S
C58 C41 1.440 . S
C48 C25 1.216 . S
C20 C51 1.382 . S
C16 C63 1.442 . S
C75 C40 1.382 . S
C24 C87 1.442 . S
