# Generated by pormake.
# Topology tsx, (6,3)-cn, num edge types: 1
# Building blocks:
#     Node 0, Type 0, BuildingBlock: MIDCAF_clean_sbu_0, # of connection points: 6
#     Node 1, Type 0, BuildingBlock: MIDCAF_clean_sbu_0, # of connection points: 6
#     Node 2, Type 1, BuildingBlock: BETDAH_clean_linker_0, # of connection points: 3
#     Node 3, Type 1, BuildingBlock: BETDAH_clean_linker_0, # of connection points: 3
#     Node 4, Type 1, BuildingBlock: BETDAH_clean_linker_0, # of connection points: 3
#     Node 5, Type 1, BuildingBlock: BETDAH_clean_linker_0, # of connection points: 3
#     Edge 6, Type (0, 1), None
#     Edge 7, Type (0, 1), None
#     Edge 8, Type (0, 1), None
#     Edge 9, Type (0, 1), None
#     Edge 10, Type (0, 1), None
#     Edge 11, Type (0, 1), None
#     Edge 12, Type (0, 1), None
#     Edge 13, Type (0, 1), None
#     Edge 14, Type (0, 1), None
#     Edge 15, Type (0, 1), None
#     Edge 16, Type (0, 1), None
#     Edge 17, Type (0, 1), None
# Relax obj value: 0.074
# Max RMSD: 0.143
# Mean RMSD: 0.097
data_MOF--net-tsx--node1-MIDCAF_clean_sbu_0--node2-BETDAH_clean_linker_0--edge1-none
_symmetry_space_group_name_H-M    P1
_symmetry_Int_Tables_number       1
_symmetry_cell_setting            triclinic
loop_
_symmetry_equiv_pos_as_xyz
'x, y, z'
_cell_length_a     8.2036873
_cell_length_b     9.2027861
_cell_length_c     18.118102
_cell_angle_alpha  89.42538
_cell_angle_beta   110.92237
_cell_angle_gamma 89.752582
loop_
_atom_site_label
_atom_site_type_symbol
_atom_site_fract_x
_atom_site_fract_y
_atom_site_fract_z
_atom_type_partial_charge
Zn0 Zn 0.73294 0.97506 0.85587 0.0
Zn1 Zn 0.39571 0.97176 0.01639 0.0
Zn2 Zn 0.06514 0.02221 -0.06334 0.0
C3 C 0.32919 0.26885 -0.01116 0.0
C4 C 0.30879 0.79694 0.88729 0.0
O5 O 0.95079 0.88202 0.00349 0.0
O6 O 0.71038 0.79431 0.91638 0.0
C7 C 0.80222 0.27207 0.88624 0.0
O8 O 0.1708 0.23048 -0.02678 0.0
O9 O 0.44016 0.17619 -0.01551 0.0
O10 O 0.42041 0.79315 -0.04355 0.0
O11 O 0.18101 0.88752 0.86928 0.0
O12 O 0.69092 0.17892 0.88892 0.0
O13 O 0.96101 0.23274 0.90242 0.0
O14 O 0.03669 0.96121 0.81763 0.0
O15 O 0.75345 0.96653 0.74797 0.0
C16 C 0.90951 0.96276 0.75068 0.0
O17 O 0.09092 0.95635 0.05479 0.0
O18 O 0.37421 0.96267 0.12395 0.0
C19 C 0.82315 0.7929 -0.01473 0.0
C20 C 0.21839 0.95934 0.1215 0.0
Zn21 Zn 0.89419 0.47081 0.51568 0.0
Zn22 Zn 0.2323 0.47447 0.35616 0.0
Zn23 Zn 0.56364 0.5222 0.43665 0.0
C24 C 0.40756 0.46311 0.2507 0.0
C25 C 0.30053 0.77168 0.38611 0.0
O26 O 0.59085 0.45655 0.55493 0.0
O27 O 0.87448 0.46194 0.62353 0.0
C28 C 0.80641 0.29595 0.38679 0.0
O29 O 0.5349 0.46129 0.3176 0.0
O30 O 0.25158 0.46638 0.24808 0.0
O31 O 0.18959 0.67835 0.389 0.0
O32 O 0.4594 0.73262 0.40225 0.0
O33 O 0.9185 0.29206 0.45584 0.0
O34 O 0.67877 0.38668 0.36905 0.0
O35 O 0.66979 0.73023 0.47315 0.0
O36 O 0.93831 0.67506 0.48348 0.0
C37 C 0.82823 0.76802 0.48842 0.0
O38 O 0.44877 0.38369 0.50395 0.0
O39 O 0.20998 0.29372 0.41675 0.0
C40 C 0.71892 0.45909 0.62145 0.0
C41 C 0.32139 0.29435 0.48595 0.0
H42 H 0.39105 0.8301 0.26178 0.0
H43 H 0.95503 0.11055 0.14139 0.0
H44 H 0.03688 0.96366 0.37579 0.0
C45 C 0.28256 0.89655 0.26312 0.0
C46 C 0.23189 0.89226 0.32947 0.0
C47 C 0.1791 0.96933 0.19424 0.0
C48 C 0.03373 0.05074 0.19404 0.0
C49 C 0.99014 0.05763 0.26174 0.0
C50 C 0.08514 0.97326 0.32821 0.0
N51 N 0.84347 0.14253 0.25939 0.0
C52 C 0.8286 0.20928 0.3253 0.0
H53 H 0.7353 0.83408 0.61157 0.0
H54 H 0.17686 0.10359 0.72911 0.0
H55 H 0.0993 0.94741 0.49879 0.0
C56 C 0.84583 0.89644 0.6098 0.0
C57 C 0.89855 0.88732 0.5441 0.0
C58 C 0.94962 0.96869 0.67781 0.0
C59 C 0.09756 0.04447 0.67735 0.0
C60 C 0.14333 0.04635 0.61017 0.0
C61 C 0.04822 0.96241 0.5451 0.0
N62 N 0.29293 0.12469 0.61166 0.0
C63 C 0.29924 0.20468 0.54719 0.0
H64 H 0.89225 0.32989 0.76171 0.0
H65 H 0.45693 0.61137 0.64178 0.0
H66 H 0.53991 0.46486 0.87634 0.0
C67 C 0.7842 0.39675 0.76321 0.0
C68 C 0.73405 0.39284 0.8297 0.0
C69 C 0.68059 0.46961 0.69438 0.0
C70 C 0.53575 0.5515 0.69439 0.0
C71 C 0.49268 0.55867 0.7622 0.0
C72 C 0.58778 0.47427 0.82864 0.0
N73 N 0.34624 0.64374 0.75995 0.0
C74 C 0.33144 0.71024 0.82593 0.0
H75 H 0.23542 0.33333 0.11178 0.0
H76 H 0.67201 0.60781 0.22896 0.0
H77 H 0.59805 0.45092 -0.00096 0.0
C78 C 0.34496 0.39698 0.10994 0.0
C79 C 0.39805 0.38866 0.04433 0.0
C80 C 0.44741 0.47016 0.17781 0.0
C81 C 0.59395 0.54788 0.17727 0.0
C82 C 0.6402 0.55045 0.11022 0.0
C83 C 0.54671 0.46537 0.04529 0.0
N84 N 0.78876 0.63082 0.11201 0.0
C85 C 0.80184 0.70179 0.0462 0.0
loop_
_geom_bond_atom_site_label_1
_geom_bond_atom_site_label_2
_geom_bond_distance
_geom_bond_site_symmetry_2
_ccdc_geom_bond_type
Zn0 O6 1.920 1_545 S
Zn0 O12 1.898 . S
Zn0 O15 1.905 1_545 S
Zn1 O9 1.905 . S
Zn1 O10 1.898 1_545 S
Zn1 O18 1.920 1_545 S
Zn2 O5 2.080 1_444 S
Zn2 O8 2.114 . S
Zn2 O11 2.120 1_545 S
Zn2 O13 2.120 1_455 S
Zn2 O14 2.114 1_554 S
Zn2 O17 2.080 . S
C3 O8 1.166 . S
C3 O9 1.182 . S
C4 O10 1.167 . S
C4 O11 1.299 . S
O5 Zn2 2.080 1_666 S
O5 C19 1.305 . S
O6 Zn0 1.920 1_565 S
O6 C19 1.234 . S
C7 O12 1.167 . S
C7 O13 1.299 1_556 S
O8 Zn2 2.114 . S
O8 C3 1.166 . S
O9 Zn1 1.905 . S
O9 C3 1.182 . S
O10 Zn1 1.898 1_565 S
O10 C4 1.167 . S
O11 Zn2 2.120 1_565 S
O11 C4 1.299 . S
O12 Zn0 1.898 . S
O12 C7 1.167 . S
O13 Zn2 2.120 1_655 S
O13 C7 1.299 1_554 S
O14 Zn2 2.114 1_556 S
O14 C16 1.166 1_445 S
O15 Zn0 1.905 1_565 S
O15 C16 1.182 . S
C16 O14 1.166 1_665 S
C16 O15 1.182 . S
O17 Zn2 2.080 . S
O17 C20 1.305 1_545 S
O18 Zn1 1.920 1_565 S
O18 C20 1.234 . S
C19 O5 1.305 . S
C19 O6 1.234 . S
C20 O17 1.305 1_565 S
C20 O18 1.234 . S
Zn21 O27 1.920 . S
Zn21 O33 1.898 . S
Zn21 O36 1.905 . S
Zn22 O30 1.905 . S
Zn22 O31 1.898 . S
Zn22 O39 1.920 . S
Zn23 O26 2.080 . S
Zn23 O29 2.114 . S
Zn23 O32 2.120 . S
Zn23 O34 2.120 . S
Zn23 O35 2.114 . S
Zn23 O38 2.080 . S
C24 O29 1.166 . S
C24 O30 1.182 . S
C25 O31 1.167 . S
C25 O32 1.299 . S
O26 Zn23 2.080 . S
O26 C40 1.305 . S
O27 Zn21 1.920 . S
O27 C40 1.234 . S
C28 O33 1.167 . S
C28 O34 1.299 . S
O29 Zn23 2.114 . S
O29 C24 1.166 . S
O30 Zn22 1.905 . S
O30 C24 1.182 . S
O31 Zn22 1.898 . S
O31 C25 1.167 . S
O32 Zn23 2.120 . S
O32 C25 1.299 . S
O33 Zn21 1.898 . S
O33 C28 1.167 . S
O34 Zn23 2.120 . S
O34 C28 1.299 . S
O35 Zn23 2.114 . S
O35 C37 1.166 . S
O36 Zn21 1.905 . S
O36 C37 1.182 . S
C37 O35 1.166 . S
C37 O36 1.182 . S
O38 Zn23 2.080 . S
O38 C41 1.305 . S
O39 Zn22 1.920 . S
O39 C41 1.234 . S
C40 O26 1.305 . S
C40 O27 1.234 . S
C41 O38 1.305 . S
C41 O39 1.234 . S
H42 C45 0.929 . S
H43 C48 0.929 1_655 S
H44 C50 0.930 . S
C45 H42 0.929 . S
C45 C46 1.398 . S
C45 C47 1.396 . S
C46 C45 1.398 . S
C46 C50 1.407 . S
C47 C45 1.396 . S
C47 C48 1.394 1_565 S
C48 H43 0.929 1_455 S
C48 C47 1.394 1_545 S
C48 C49 1.382 . S
C49 C48 1.382 . S
C49 C50 1.392 1_545 S
C49 N51 1.420 1_455 S
C50 H44 0.930 . S
C50 C46 1.407 . S
C50 C49 1.392 1_565 S
N51 C49 1.420 1_655 S
N51 C52 1.244 . S
C52 N51 1.244 . S
H53 C56 0.929 . S
H54 C59 0.929 . S
H55 C61 0.930 . S
C56 H53 0.929 . S
C56 C57 1.398 . S
C56 C58 1.396 . S
C57 C56 1.398 . S
C57 C61 1.407 . S
C58 C56 1.396 . S
C58 C59 1.394 1_665 S
C59 H54 0.929 . S
C59 C58 1.394 1_445 S
C59 C60 1.382 . S
C60 C59 1.382 . S
C60 C61 1.392 1_445 S
C60 N62 1.420 . S
C61 H55 0.930 . S
C61 C57 1.407 . S
C61 C60 1.392 1_665 S
N62 C60 1.420 . S
N62 C63 1.244 . S
C63 N62 1.244 . S
H64 C67 0.929 . S
H65 C70 0.929 . S
H66 C72 0.930 1_554 S
C67 H64 0.929 . S
C67 C68 1.398 . S
C67 C69 1.396 . S
C68 C67 1.398 . S
C68 C72 1.407 . S
C69 C67 1.396 . S
C69 C70 1.394 . S
C70 H65 0.929 . S
C70 C69 1.394 . S
C70 C71 1.382 . S
C71 C70 1.382 . S
C71 C72 1.392 . S
C71 N73 1.420 . S
C72 H66 0.930 1_556 S
C72 C68 1.407 . S
C72 C71 1.392 . S
N73 C71 1.420 . S
N73 C74 1.244 . S
C74 N73 1.244 . S
H75 C78 0.929 . S
H76 C81 0.929 . S
H77 C83 0.930 1_556 S
C78 H75 0.929 . S
C78 C79 1.398 . S
C78 C80 1.396 . S
C79 C78 1.398 . S
C79 C83 1.407 . S
C80 C78 1.396 . S
C80 C81 1.394 . S
C81 H76 0.929 . S
C81 C80 1.394 . S
C81 C82 1.382 . S
C82 C81 1.382 . S
C82 C83 1.392 . S
C82 N84 1.420 . S
C83 H77 0.930 1_554 S
C83 C79 1.407 . S
C83 C82 1.392 . S
N84 C82 1.420 . S
N84 C85 1.244 . S
C85 N84 1.244 . S
C79 C3 1.205 . S
C4 C74 1.408 1_554 S
C19 C85 1.451 1_556 S
C7 C68 1.214 . S
C37 C57 1.205 . S
C28 C52 1.408 . S
C63 C41 1.451 . S
C46 C25 1.214 . S
C20 C47 1.374 . S
C16 C58 1.434 . S
C69 C40 1.374 . S
C24 C80 1.434 . S
