# Generated by pormake.
# Topology nom, (4,4)-cn, num edge types: 1
# Building blocks:
#     Node 0, Type 0, BuildingBlock: KUFVIS_clean_linker_0, # of connection points: 4
#     Node 1, Type 0, BuildingBlock: KUFVIS_clean_linker_0, # of connection points: 4
#     Node 2, Type 0, BuildingBlock: KUFVIS_clean_linker_0, # of connection points: 4
#     Node 3, Type 0, BuildingBlock: KUFVIS_clean_linker_0, # of connection points: 4
#     Node 4, Type 0, BuildingBlock: KUFVIS_clean_linker_0, # of connection points: 4
#     Node 5, Type 0, BuildingBlock: KUFVIS_clean_linker_0, # of connection points: 4
#     Node 6, Type 1, BuildingBlock: CEKHIL_clean_sbu_0, # of connection points: 4
#     Node 7, Type 1, BuildingBlock: CEKHIL_clean_sbu_0, # of connection points: 4
#     Node 8, Type 1, BuildingBlock: CEKHIL_clean_sbu_0, # of connection points: 4
#     Node 9, Type 1, BuildingBlock: CEKHIL_clean_sbu_0, # of connection points: 4
#     Node 10, Type 1, BuildingBlock: CEKHIL_clean_sbu_0, # of connection points: 4
#     Node 11, Type 1, BuildingBlock: CEKHIL_clean_sbu_0, # of connection points: 4
#     Edge 12, Type (0, 1), None
#     Edge 13, Type (0, 1), None
#     Edge 14, Type (0, 1), None
#     Edge 15, Type (0, 1), None
#     Edge 16, Type (0, 1), None
#     Edge 17, Type (0, 1), None
#     Edge 18, Type (0, 1), None
#     Edge 19, Type (0, 1), None
#     Edge 20, Type (0, 1), None
#     Edge 21, Type (0, 1), None
#     Edge 22, Type (0, 1), None
#     Edge 23, Type (0, 1), None
#     Edge 24, Type (0, 1), None
#     Edge 25, Type (0, 1), None
#     Edge 26, Type (0, 1), None
#     Edge 27, Type (0, 1), None
#     Edge 28, Type (0, 1), None
#     Edge 29, Type (0, 1), None
#     Edge 30, Type (0, 1), None
#     Edge 31, Type (0, 1), None
#     Edge 32, Type (0, 1), None
#     Edge 33, Type (0, 1), None
#     Edge 34, Type (0, 1), None
#     Edge 35, Type (0, 1), None
# Relax obj value: 0.005
# Max RMSD: 0.056
# Mean RMSD: 0.042
data_MOF--net-nom--node1-CEKHIL_clean_sbu_0--node2-KUFVIS_clean_linker_0--edge1-none
_symmetry_space_group_name_H-M    P1
_symmetry_Int_Tables_number       1
_symmetry_cell_setting            triclinic
loop_
_symmetry_equiv_pos_as_xyz
'x, y, z'
_cell_length_a     20.752374
_cell_length_b     20.199115
_cell_length_c     22.406803
_cell_angle_alpha  89.998174
_cell_angle_beta   90.000435
_cell_angle_gamma 123.22342
loop_
_atom_site_label
_atom_site_type_symbol
_atom_site_fract_x
_atom_site_fract_y
_atom_site_fract_z
_atom_type_partial_charge
H0 H 0.30612 0.69597 0.36677 0.0
H1 H 0.15733 0.64566 0.2179 0.0
H2 H 0.06638 0.58496 0.3988 0.0
H3 H 0.96164 0.56781 0.36027 0.0
H4 H 0.80804 0.42547 0.2196 0.0
H5 H 0.04903 0.53491 0.19381 0.0
C6 C 0.249 0.67237 0.34922 0.0
C7 C 0.18791 0.64314 0.38879 0.0
C8 C 0.2389 0.67545 0.28812 0.0
C9 C 0.1642 0.64367 0.26557 0.0
C10 C 0.09918 0.60635 0.30451 0.0
C11 C 0.11299 0.60984 0.36686 0.0
C12 C 1.01789 0.55981 0.28037 0.0
C13 C 0.95367 0.54333 0.31596 0.0
C14 C 0.87777 0.4925 0.29485 0.0
C15 C 0.86616 0.46304 0.23694 0.0
C16 C 0.92756 0.48015 0.20053 0.0
C17 C 1.00302 0.52643 0.22227 0.0
H18 H 0.6498 0.30216 0.53983 0.0
H19 H 0.53138 0.14692 0.3928 0.0
H20 H 0.5608 0.05698 0.55997 0.0
H21 H 0.44984 0.94548 0.5344 0.0
H22 H 0.42417 0.79591 0.38876 0.0
H23 H 0.51816 0.04008 0.35497 0.0
C24 C 0.6159 0.24267 0.52184 0.0
C25 C 0.60439 0.18031 0.5569 0.0
C26 C 0.59321 0.23179 0.4622 0.0
C27 C 0.54964 0.15443 0.43884 0.0
C28 C 0.53472 0.08867 0.47412 0.0
C29 C 0.56534 0.10375 0.53294 0.0
C30 C 0.49451 1.00588 0.44896 0.0
C31 C 0.45724 0.93895 0.48742 0.0
C32 C 0.43191 0.86321 0.46566 0.0
C33 C 0.4423 0.85387 0.40551 0.0
C34 C 0.4681 0.91584 0.3653 0.0
C35 C 0.4953 0.99223 0.38687 0.0
H36 H 0.67099 0.42664 0.5529 0.0
H37 H 0.561 0.45854 0.70129 0.0
H38 H 0.53077 0.51721 0.52141 0.0
H39 H 0.44009 0.52753 0.55985 0.0
H40 H 0.41575 0.64802 0.70635 0.0
H41 H 0.56612 0.5677 0.72558 0.0
C42 C 0.63645 0.44729 0.57073 0.0
C43 C 0.60028 0.46994 0.53125 0.0
C44 C 0.6205 0.44037 0.6316 0.0
C45 C 0.57368 0.46512 0.65402 0.0
C46 C 0.54462 0.49897 0.61542 0.0
C47 C 0.55557 0.49711 0.55325 0.0
C48 C 0.50568 0.5379 0.64009 0.0
C49 C 0.45463 0.54894 0.60519 0.0
C50 C 0.4245 0.59145 0.62849 0.0
C51 C 0.44006 0.61678 0.68757 0.0
C52 C 0.49012 0.60759 0.72221 0.0
C53 C 0.52446 0.57029 0.69842 0.0
H54 H 0.30839 0.66821 0.7196 0.0
H55 H 0.15478 0.52586 0.86027 0.0
H56 H 0.06739 0.55875 0.69381 0.0
H57 H 0.9591 0.44801 0.71791 0.0
H58 H 0.81031 0.39774 0.86677 0.0
H59 H 0.05005 0.5087 0.8988 0.0
C60 C 0.25026 0.63063 0.73694 0.0
C61 C 0.18886 0.61352 0.70053 0.0
C62 C 0.23865 0.60117 0.79484 0.0
C63 C 0.16275 0.55034 0.81596 0.0
C64 C 0.09854 0.53385 0.78036 0.0
C65 C 0.11341 0.56723 0.72227 0.0
C66 C 1.01725 0.48732 0.80451 0.0
C67 C 0.95222 0.45001 0.76558 0.0
C68 C 0.87753 0.41825 0.78813 0.0
C69 C 0.86744 0.42133 0.84923 0.0
C70 C 0.92852 0.45055 0.88879 0.0
C71 C 1.00344 0.48383 0.86686 0.0
H72 H 0.46661 0.7915 0.03982 0.0
H73 H 0.58507 0.94675 0.8928 0.0
H74 H 0.55566 1.03669 0.05997 0.0
H75 H 0.66661 0.14819 0.0344 0.0
H76 H 0.69228 0.29776 0.88875 0.0
H77 H 0.59829 0.0536 0.85497 0.0
C78 C 0.50053 0.85099 0.02183 0.0
C79 C 0.51204 0.91336 0.05689 0.0
C80 C 0.52322 0.86188 0.9622 0.0
C81 C 0.5668 0.93924 0.93883 0.0
C82 C 0.58173 1.005 -0.02588 0.0
C83 C 0.55111 0.98992 0.03294 0.0
C84 C 0.62195 0.08779 0.94896 0.0
C85 C 0.65921 0.15472 -0.01258 0.0
C86 C 0.68454 0.23047 0.96566 0.0
C87 C 0.67415 0.2398 0.90551 0.0
C88 C 0.64835 0.17784 0.8653 0.0
C89 C 0.62115 0.10144 0.88687 0.0
H90 H 0.44543 0.66703 0.0529 0.0
H91 H 0.55543 0.63513 0.20129 0.0
H92 H 0.58565 0.57646 0.02141 0.0
H93 H 0.67633 0.56613 0.05985 0.0
H94 H 0.70066 0.44562 0.20635 0.0
H95 H 0.55031 0.52597 0.22559 0.0
C96 C 0.47997 0.64638 0.07073 0.0
C97 C 0.51614 0.62374 0.03125 0.0
C98 C 0.49592 0.6533 0.1316 0.0
C99 C 0.54275 0.62855 0.15402 0.0
C100 C 0.57181 0.5947 0.11542 0.0
C101 C 0.56085 0.59656 0.05325 0.0
C102 C 0.61074 0.55577 0.14009 0.0
C103 C 0.66179 0.54472 0.10519 0.0
C104 C 0.69191 0.5022 0.12849 0.0
C105 C 0.67634 0.47687 0.18757 0.0
C106 C 0.62629 0.48607 0.2222 0.0
C107 C 0.59196 0.52338 0.19842 0.0
Co108 Co 0.69455 0.42139 0.37781 0.0
O109 O 0.74551 0.39695 0.31947 0.0
O110 O 0.80327 0.50727 0.37267 0.0
C111 C 0.63245 0.30382 0.42469 0.0
O112 O 0.66054 0.46426 0.44415 0.0
Co113 Co 0.51888 0.337 0.37367 0.0
O114 O 0.53107 0.39351 0.44901 0.0
C115 C 0.61048 0.4526 0.28238 0.0
C116 C 0.808 0.4648 0.3314 0.0
C117 C 0.59706 0.44685 0.46886 0.0
O118 O 0.66981 0.47391 0.31449 0.0
O119 O 0.54327 0.39322 0.2949 0.0
O120 O 0.70398 0.35797 0.43611 0.0
O121 O 0.60194 0.31792 0.37974 0.0
Co122 Co 0.32462 0.67157 0.54569 0.0
O123 O 0.3967 0.68891 0.60616 0.0
O124 O 0.3367 0.58176 0.54959 0.0
C125 C 0.39656 0.79194 0.50363 0.0
O126 O 0.2489 0.63781 0.47625 0.0
Co127 Co 0.24925 0.7673 0.5509 0.0
O128 O 0.20233 0.71586 0.47379 0.0
C129 C 0.2082 0.64588 0.63994 0.0
C130 C 0.38541 0.621 0.59251 0.0
C131 C 0.20804 0.66108 0.45208 0.0
O132 O 0.23948 0.61957 0.60641 0.0
O133 O 0.2124 0.71025 0.62929 0.0
O134 O 0.40724 0.73598 0.49074 0.0
O135 O 0.34831 0.77656 0.54669 0.0
Co136 Co 0.69021 0.32872 0.71082 0.0
O137 O 0.71302 0.40729 0.65203 0.0
O138 O 0.61126 0.35303 0.71142 0.0
C139 C 0.8088 0.39003 0.75051 0.0
O140 O 0.65154 0.24869 0.77942 0.0
Co141 Co 0.76159 0.23101 0.6999 0.0
O142 O 0.713 0.18514 0.77786 0.0
C143 C 0.64223 0.20127 0.61575 0.0
C144 C 0.65041 0.40207 0.66826 0.0
C145 C 0.66654 0.19965 0.80194 0.0
O146 O 0.62906 0.24405 0.64931 0.0
O147 O 0.69807 0.19279 0.62485 0.0
O148 O 0.76053 0.40894 0.76562 0.0
O149 O 0.78761 0.34023 0.7064 0.0
Co150 Co 0.42187 0.67228 0.8778 0.0
O151 O 0.37091 0.69672 0.81946 0.0
O152 O 0.31316 0.58641 0.87267 0.0
C153 C 0.48397 0.78985 0.92469 0.0
O154 O 0.45588 0.62941 0.94415 0.0
Co155 Co 0.59755 0.75667 0.87366 0.0
O156 O 0.58535 0.70017 0.94901 0.0
C157 C 0.50594 0.64106 0.78238 0.0
C158 C 0.30842 0.62887 0.83139 0.0
C159 C 0.51936 0.64683 0.96886 0.0
O160 O 0.44661 0.61977 0.81449 0.0
O161 O 0.57315 0.70044 0.79489 0.0
O162 O 0.41245 0.73571 0.9361 0.0
O163 O 0.51448 0.77575 0.87974 0.0
Co164 Co 0.7918 0.42209 0.04569 0.0
O165 O 0.71971 0.40474 0.10616 0.0
O166 O 0.77971 0.51189 0.04959 0.0
C167 C 0.71987 0.30173 0.00363 0.0
O168 O 0.86753 0.45586 -0.02374 0.0
Co169 Co 0.86718 0.32638 0.0509 0.0
O170 O 0.9141 0.37782 -0.0262 0.0
C171 C 0.90822 0.44779 0.13994 0.0
C172 C 0.731 0.47265 0.09251 0.0
C173 C 0.90839 0.4326 0.95209 0.0
O174 O 0.87694 0.47409 0.10641 0.0
O175 O 0.90403 0.38343 0.12929 0.0
O176 O 0.70919 0.35768 -0.00926 0.0
O177 O 0.76812 0.3171 0.0467 0.0
Co178 Co 0.42622 0.76495 0.21082 0.0
O179 O 0.40341 0.68639 0.15203 0.0
O180 O 0.50517 0.74063 0.21143 0.0
C181 C 0.30762 0.70366 0.2505 0.0
O182 O 0.4649 0.84498 0.27942 0.0
Co183 Co 0.35486 0.86269 0.1999 0.0
O184 O 0.40346 0.90856 0.27786 0.0
C185 C 0.47421 0.8924 0.11575 0.0
C186 C 0.46602 0.6916 0.16826 0.0
C187 C 0.44991 0.89402 0.30194 0.0
O188 O 0.48739 0.84963 0.14931 0.0
O189 O 0.41838 0.90088 0.12485 0.0
O190 O 0.35588 0.68473 0.26562 0.0
O191 O 0.32883 0.75346 0.20639 0.0
loop_
_geom_bond_atom_site_label_1
_geom_bond_atom_site_label_2
_geom_bond_distance
_geom_bond_site_symmetry_2
_ccdc_geom_bond_type
H0 C6 0.930 . S
H1 C9 0.931 . S
H2 C11 0.931 . S
H3 C13 0.930 . S
H4 C15 0.930 . S
H5 C17 0.931 . S
C6 H0 0.930 . S
C6 C7 1.380 . S
C6 C8 1.394 . S
C7 C6 1.380 . S
C7 C11 1.382 . S
C8 C6 1.394 . S
C8 C9 1.400 . S
C9 H1 0.931 . S
C9 C8 1.400 . S
C9 C10 1.375 . S
C10 C9 1.375 . S
C10 C11 1.415 . S
C10 C12 1.501 1_455 S
C11 H2 0.931 . S
C11 C7 1.382 . S
C11 C10 1.415 . S
C12 C10 1.501 1_655 S
C12 C13 1.384 . S
C12 C17 1.408 . S
C13 H3 0.930 . S
C13 C12 1.384 . S
C13 C14 1.389 . S
C14 C13 1.389 . S
C14 C15 1.405 . S
C15 H4 0.930 . S
C15 C14 1.405 . S
C15 C16 1.364 . S
C16 C15 1.364 . S
C16 C17 1.400 . S
C17 H5 0.931 . S
C17 C12 1.408 . S
C17 C16 1.400 . S
H18 C24 0.930 . S
H19 C27 0.931 . S
H20 C29 0.931 . S
H21 C31 0.930 . S
H22 C33 0.930 . S
H23 C35 0.931 . S
C24 H18 0.930 . S
C24 C25 1.380 . S
C24 C26 1.394 . S
C25 C24 1.380 . S
C25 C29 1.382 . S
C26 C24 1.394 . S
C26 C27 1.400 . S
C27 H19 0.931 . S
C27 C26 1.400 . S
C27 C28 1.375 . S
C28 C27 1.375 . S
C28 C29 1.415 . S
C28 C30 1.501 1_545 S
C29 H20 0.931 . S
C29 C25 1.382 . S
C29 C28 1.415 . S
C30 C28 1.501 1_565 S
C30 C31 1.384 . S
C30 C35 1.408 . S
C31 H21 0.930 . S
C31 C30 1.384 . S
C31 C32 1.389 . S
C32 C31 1.389 . S
C32 C33 1.405 . S
C33 H22 0.930 . S
C33 C32 1.405 . S
C33 C34 1.364 . S
C34 C33 1.364 . S
C34 C35 1.400 . S
C35 H23 0.931 . S
C35 C30 1.408 . S
C35 C34 1.400 . S
H36 C42 0.930 . S
H37 C45 0.931 . S
H38 C47 0.931 . S
H39 C49 0.930 . S
H40 C51 0.930 . S
H41 C53 0.931 . S
C42 H36 0.930 . S
C42 C43 1.380 . S
C42 C44 1.394 . S
C43 C42 1.380 . S
C43 C47 1.382 . S
C44 C42 1.394 . S
C44 C45 1.400 . S
C45 H37 0.931 . S
C45 C44 1.400 . S
C45 C46 1.375 . S
C46 C45 1.375 . S
C46 C47 1.415 . S
C46 C48 1.501 . S
C47 H38 0.931 . S
C47 C43 1.382 . S
C47 C46 1.415 . S
C48 C46 1.501 . S
C48 C49 1.384 . S
C48 C53 1.408 . S
C49 H39 0.930 . S
C49 C48 1.384 . S
C49 C50 1.389 . S
C50 C49 1.389 . S
C50 C51 1.405 . S
C51 H40 0.930 . S
C51 C50 1.405 . S
C51 C52 1.364 . S
C52 C51 1.364 . S
C52 C53 1.400 . S
C53 H41 0.931 . S
C53 C48 1.408 . S
C53 C52 1.400 . S
H54 C60 0.930 . S
H55 C63 0.931 . S
H56 C65 0.931 . S
H57 C67 0.930 . S
H58 C69 0.930 . S
H59 C71 0.931 . S
C60 H54 0.930 . S
C60 C61 1.380 . S
C60 C62 1.394 . S
C61 C60 1.380 . S
C61 C65 1.382 . S
C62 C60 1.394 . S
C62 C63 1.400 . S
C63 H55 0.931 . S
C63 C62 1.400 . S
C63 C64 1.375 . S
C64 C63 1.375 . S
C64 C65 1.415 . S
C64 C66 1.501 1_455 S
C65 H56 0.931 . S
C65 C61 1.382 . S
C65 C64 1.415 . S
C66 C64 1.501 1_655 S
C66 C67 1.384 . S
C66 C71 1.408 . S
C67 H57 0.930 . S
C67 C66 1.384 . S
C67 C68 1.389 . S
C68 C67 1.389 . S
C68 C69 1.405 . S
C69 H58 0.930 . S
C69 C68 1.405 . S
C69 C70 1.364 . S
C70 C69 1.364 . S
C70 C71 1.400 . S
C71 H59 0.931 . S
C71 C66 1.408 . S
C71 C70 1.400 . S
H72 C78 0.930 . S
H73 C81 0.931 . S
H74 C83 0.931 . S
H75 C85 0.930 . S
H76 C87 0.930 . S
H77 C89 0.931 . S
C78 H72 0.930 . S
C78 C79 1.380 . S
C78 C80 1.394 1_554 S
C79 C78 1.380 . S
C79 C83 1.382 . S
C80 C78 1.394 1_556 S
C80 C81 1.400 . S
C81 H73 0.931 . S
C81 C80 1.400 . S
C81 C82 1.375 1_556 S
C82 C81 1.375 1_554 S
C82 C83 1.415 . S
C82 C84 1.501 1_564 S
C83 H74 0.931 . S
C83 C79 1.382 . S
C83 C82 1.415 . S
C84 C82 1.501 1_546 S
C84 C85 1.384 1_556 S
C84 C89 1.408 . S
C85 H75 0.930 . S
C85 C84 1.384 1_554 S
C85 C86 1.389 . S
C86 C85 1.389 . S
C86 C87 1.405 1_554 S
C87 H76 0.930 . S
C87 C86 1.405 1_556 S
C87 C88 1.364 . S
C88 C87 1.364 . S
C88 C89 1.400 . S
C89 H77 0.931 . S
C89 C84 1.408 . S
C89 C88 1.400 . S
H90 C96 0.930 . S
H91 C99 0.931 . S
H92 C101 0.931 . S
H93 C103 0.930 . S
H94 C105 0.930 . S
H95 C107 0.931 . S
C96 H90 0.930 . S
C96 C97 1.380 . S
C96 C98 1.394 . S
C97 C96 1.380 . S
C97 C101 1.382 . S
C98 C96 1.394 . S
C98 C99 1.400 . S
C99 H91 0.931 . S
C99 C98 1.400 . S
C99 C100 1.375 . S
C100 C99 1.375 . S
C100 C101 1.415 . S
C100 C102 1.501 . S
C101 H92 0.931 . S
C101 C97 1.382 . S
C101 C100 1.415 . S
C102 C100 1.501 . S
C102 C103 1.384 . S
C102 C107 1.408 . S
C103 H93 0.930 . S
C103 C102 1.384 . S
C103 C104 1.389 . S
C104 C103 1.389 . S
C104 C105 1.405 . S
C105 H94 0.930 . S
C105 C104 1.405 . S
C105 C106 1.364 . S
C106 C105 1.364 . S
C106 C107 1.400 . S
C107 H95 0.931 . S
C107 C102 1.408 . S
C107 C106 1.400 . S
Co108 O109 2.216 . S
Co108 O110 2.091 . S
Co108 O112 2.004 . S
Co108 O118 2.021 . S
Co108 O120 2.137 . S
Co108 O121 2.244 . S
O109 Co108 2.216 . S
O109 C116 1.247 . S
O110 Co108 2.091 . S
O110 C116 1.261 . S
C111 O120 1.247 . S
C111 O121 1.272 . S
O112 Co108 2.004 . S
O112 C117 1.259 . S
Co113 O114 2.061 . S
Co113 O119 2.052 . S
Co113 O121 2.135 . S
O114 Co113 2.061 . S
O114 C117 1.235 . S
C115 O118 1.238 . S
C115 O119 1.241 . S
C116 O109 1.247 . S
C116 O110 1.261 . S
C117 O112 1.259 . S
C117 O114 1.235 . S
O118 Co108 2.021 . S
O118 C115 1.238 . S
O119 Co113 2.052 . S
O119 C115 1.241 . S
O120 Co108 2.137 . S
O120 C111 1.247 . S
O121 Co108 2.244 . S
O121 C111 1.272 . S
O121 Co113 2.135 . S
Co122 O123 2.216 . S
Co122 O124 2.091 . S
Co122 O126 2.004 . S
Co122 O132 2.021 . S
Co122 O134 2.137 . S
Co122 O135 2.244 . S
O123 Co122 2.216 . S
O123 C130 1.247 . S
O124 Co122 2.091 . S
O124 C130 1.261 . S
C125 O134 1.247 . S
C125 O135 1.272 . S
O126 Co122 2.004 . S
O126 C131 1.259 . S
Co127 O128 2.061 . S
Co127 O133 2.052 . S
Co127 O135 2.135 . S
O128 Co127 2.061 . S
O128 C131 1.235 . S
C129 O132 1.238 . S
C129 O133 1.241 . S
C130 O123 1.247 . S
C130 O124 1.261 . S
C131 O126 1.259 . S
C131 O128 1.235 . S
O132 Co122 2.021 . S
O132 C129 1.238 . S
O133 Co127 2.052 . S
O133 C129 1.241 . S
O134 Co122 2.137 . S
O134 C125 1.247 . S
O135 Co122 2.244 . S
O135 C125 1.272 . S
O135 Co127 2.135 . S
Co136 O137 2.216 . S
Co136 O138 2.091 . S
Co136 O140 2.004 . S
Co136 O146 2.021 . S
Co136 O148 2.137 . S
Co136 O149 2.244 . S
O137 Co136 2.216 . S
O137 C144 1.247 . S
O138 Co136 2.091 . S
O138 C144 1.261 . S
C139 O148 1.247 . S
C139 O149 1.272 . S
O140 Co136 2.004 . S
O140 C145 1.259 . S
Co141 O142 2.061 . S
Co141 O147 2.052 . S
Co141 O149 2.135 . S
O142 Co141 2.061 . S
O142 C145 1.235 . S
C143 O146 1.238 . S
C143 O147 1.241 . S
C144 O137 1.247 . S
C144 O138 1.261 . S
C145 O140 1.259 . S
C145 O142 1.235 . S
O146 Co136 2.021 . S
O146 C143 1.238 . S
O147 Co141 2.052 . S
O147 C143 1.241 . S
O148 Co136 2.137 . S
O148 C139 1.247 . S
O149 Co136 2.244 . S
O149 C139 1.272 . S
O149 Co141 2.135 . S
Co150 O151 2.216 . S
Co150 O152 2.091 . S
Co150 O154 2.004 . S
Co150 O160 2.021 . S
Co150 O162 2.137 . S
Co150 O163 2.244 . S
O151 Co150 2.216 . S
O151 C158 1.247 . S
O152 Co150 2.091 . S
O152 C158 1.261 . S
C153 O162 1.247 . S
C153 O163 1.272 . S
O154 Co150 2.004 . S
O154 C159 1.259 1_556 S
Co155 O156 2.061 . S
Co155 O161 2.052 . S
Co155 O163 2.135 . S
O156 Co155 2.061 . S
O156 C159 1.235 1_556 S
C157 O160 1.238 . S
C157 O161 1.241 . S
C158 O151 1.247 . S
C158 O152 1.261 . S
C159 O154 1.259 1_554 S
C159 O156 1.235 1_554 S
O160 Co150 2.021 . S
O160 C157 1.238 . S
O161 Co155 2.052 . S
O161 C157 1.241 . S
O162 Co150 2.137 . S
O162 C153 1.247 . S
O163 Co150 2.244 . S
O163 C153 1.272 . S
O163 Co155 2.135 . S
Co164 O165 2.216 . S
Co164 O166 2.091 . S
Co164 O168 2.004 1_554 S
Co164 O174 2.021 . S
Co164 O176 2.137 . S
Co164 O177 2.244 . S
O165 Co164 2.216 . S
O165 C172 1.247 . S
O166 Co164 2.091 . S
O166 C172 1.261 . S
C167 O176 1.247 . S
C167 O177 1.272 . S
O168 Co164 2.004 1_556 S
O168 C173 1.259 . S
Co169 O170 2.061 . S
Co169 O175 2.052 . S
Co169 O177 2.135 . S
O170 Co169 2.061 . S
O170 C173 1.235 1_554 S
C171 O174 1.238 . S
C171 O175 1.241 . S
C172 O165 1.247 . S
C172 O166 1.261 . S
C173 O168 1.259 . S
C173 O170 1.235 1_556 S
O174 Co164 2.021 . S
O174 C171 1.238 . S
O175 Co169 2.052 . S
O175 C171 1.241 . S
O176 Co164 2.137 . S
O176 C167 1.247 . S
O177 Co164 2.244 . S
O177 C167 1.272 . S
O177 Co169 2.135 . S
Co178 O179 2.216 . S
Co178 O180 2.091 . S
Co178 O182 2.004 . S
Co178 O188 2.021 . S
Co178 O190 2.137 . S
Co178 O191 2.244 . S
O179 Co178 2.216 . S
O179 C186 1.247 . S
O180 Co178 2.091 . S
O180 C186 1.261 . S
C181 O190 1.247 . S
C181 O191 1.272 . S
O182 Co178 2.004 . S
O182 C187 1.259 . S
Co183 O184 2.061 . S
Co183 O189 2.052 . S
Co183 O191 2.135 . S
O184 Co183 2.061 . S
O184 C187 1.235 . S
C185 O188 1.238 . S
C185 O189 1.241 . S
C186 O179 1.247 . S
C186 O180 1.261 . S
C187 O182 1.259 . S
C187 O184 1.235 . S
O188 Co178 2.021 . S
O188 C185 1.238 . S
O189 Co183 2.052 . S
O189 C185 1.241 . S
O190 Co178 2.137 . S
O190 C181 1.247 . S
O191 Co178 2.244 . S
O191 C181 1.272 . S
O191 Co183 2.135 . S
C181 C8 1.529 . S
C26 C111 1.561 . S
C50 C130 1.586 . S
C68 C139 1.527 . S
C153 C80 1.559 . S
C104 C172 1.579 . S
C32 C125 1.524 . S
C44 C144 1.548 . S
C62 C158 1.573 . S
C167 C86 1.517 . S
C186 C98 1.547 . S
C116 C14 1.571 . S
C7 C131 1.518 . S
C25 C143 1.508 . S
C157 C52 1.464 . S
C70 C173 1.512 . S
C185 C79 1.508 . S
C115 C106 1.463 . S
C187 C34 1.491 . S
C43 C117 1.516 . S
C129 C61 1.462 . S
C88 C145 1.493 . S
C97 C159 1.518 . S
C16 C171 1.470 . S
