# Generated by pormake.
# Topology pts, (4,4)-cn, num edge types: 1
# Building blocks:
#     Node 0, Type 0, BuildingBlock: GIZVER_clean_linker_0, # of connection points: 4
#     Node 1, Type 0, BuildingBlock: GIZVER_clean_linker_0, # of connection points: 4
#     Node 2, Type 1, BuildingBlock: QUQFOY_clean_sbu_1, # of connection points: 4
#     Node 3, Type 1, BuildingBlock: QUQFOY_clean_sbu_1, # of connection points: 4
#     Edge 4, Type (0, 1), BuildingBlock: CIFDUS_clean_linker_0, # of connection points: 2
#     Edge 5, Type (0, 1), BuildingBlock: CIFDUS_clean_linker_0, # of connection points: 2
#     Edge 6, Type (0, 1), BuildingBlock: CIFDUS_clean_linker_0, # of connection points: 2
#     Edge 7, Type (0, 1), BuildingBlock: CIFDUS_clean_linker_0, # of connection points: 2
#     Edge 8, Type (0, 1), BuildingBlock: CIFDUS_clean_linker_0, # of connection points: 2
#     Edge 9, Type (0, 1), BuildingBlock: CIFDUS_clean_linker_0, # of connection points: 2
#     Edge 10, Type (0, 1), BuildingBlock: CIFDUS_clean_linker_0, # of connection points: 2
#     Edge 11, Type (0, 1), BuildingBlock: CIFDUS_clean_linker_0, # of connection points: 2
# Relax obj value: 0.104
# Max RMSD: 0.275
# Mean RMSD: 0.183
data_MOF--net-pts--node1-QUQFOY_clean_sbu_1--node2-GIZVER_clean_linker_0--edge1-CIFDUS_clean_linker_0
_symmetry_space_group_name_H-M    P1
_symmetry_Int_Tables_number       1
_symmetry_cell_setting            triclinic
loop_
_symmetry_equiv_pos_as_xyz
'x, y, z'
_cell_length_a     21.203161
_cell_length_b     22.617298
_cell_length_c     34.212967
_cell_angle_alpha  90.333109
_cell_angle_beta   90.538028
_cell_angle_gamma 90.064541
loop_
_atom_site_label
_atom_site_type_symbol
_atom_site_fract_x
_atom_site_fract_y
_atom_site_fract_z
_atom_type_partial_charge
H0 H 0.57425 0.16657 0.02198 0.0
H1 H 0.57916 0.16288 0.89624 0.0
H2 H 0.73057 0.08599 -0.03684 0.0
H3 H 0.50624 0.2333 -0.01811 0.0
H4 H 0.50469 0.22682 0.92974 0.0
H5 H 0.44547 0.16638 0.02218 0.0
H6 H 0.30827 0.05465 -0.0349 0.0
H7 H 0.44985 0.14225 0.89741 0.0
C8 C 0.59724 0.1534 -0.00487 0.0
C9 C 0.65484 0.12306 -0.00323 0.0
C10 C 0.56953 0.16744 0.9589 0.0
C11 C 0.60014 0.1514 0.92419 0.0
C12 C 0.65814 0.12159 0.92546 0.0
C13 C 0.6846 0.10689 -0.03813 0.0
C14 C 0.50837 0.20101 0.95726 0.0
C15 C 0.45369 0.15868 0.95958 0.0
C16 C 0.42661 0.14582 -0.00414 0.0
C17 C 0.37435 0.10788 -0.00183 0.0
C18 C 0.3505 0.0816 -0.0362 0.0
C19 C 0.37717 0.0938 0.92731 0.0
C20 C 0.42918 0.13211 0.92546 0.0
H21 H 0.08613 0.61051 0.3999 0.0
H22 H 0.0825 0.60019 0.52494 0.0
H23 H 1.01346 0.75591 0.46659 0.0
H24 H 0.15845 0.54609 0.43469 0.0
H25 H 0.16023 0.54433 0.48653 0.0
H26 H 0.08847 0.48077 0.39754 0.0
H27 H 0.03838 0.32335 0.45967 0.0
H28 H 0.08355 0.48278 0.52277 0.0
C29 C 0.07239 0.62943 0.42772 0.0
C30 C 0.04561 0.68619 0.4291 0.0
C31 C 0.08637 0.59872 0.46229 0.0
C32 C 0.07129 0.62431 0.49854 0.0
C33 C 0.04574 0.68173 0.50081 0.0
C34 C 0.03218 0.71151 0.46569 0.0
C35 C 0.12764 0.54442 0.46083 0.0
C36 C 0.09084 0.4872 0.46025 0.0
C37 C 0.07879 0.45797 0.42457 0.0
C38 C 0.05791 0.39885 0.42389 0.0
C39 C 0.04816 0.37026 0.45972 0.0
C40 C 0.05491 0.40003 0.4957 0.0
C41 C 0.07594 0.45911 0.49554 0.0
O42 O 0.92857 0.98724 0.16798 0.0
Cd43 Cd 1.01274 0.97339 0.19712 0.0
Cd44 Cd 0.01556 0.09317 0.20136 0.0
O45 O 0.93333 0.08476 0.16907 0.0
O46 O 1.01196 0.89286 0.22057 0.0
O47 O 0.01892 0.97564 0.25538 0.0
C48 C 0.01731 0.91851 0.25426 0.0
C49 C 1.01376 0.15821 0.25436 0.0
C50 C 0.90551 1.03721 0.15883 0.0
C51 C 0.12252 1.0316 0.15971 0.0
O52 O 0.10004 0.0797 0.173 0.0
O53 O 0.09406 0.98297 0.1654 0.0
O54 O 0.01998 0.17734 0.21921 0.0
O55 O 1.00898 0.10189 0.25957 0.0
O56 O 0.93483 0.08606 0.75146 0.0
Cd57 Cd 1.01261 0.09859 0.71649 0.0
Cd58 Cd 0.02398 0.97949 0.72809 0.0
O59 O 0.94687 0.99085 0.76339 0.0
O60 O 1.00784 0.18247 0.69905 0.0
O61 O 1.00161 0.10637 0.65823 0.0
C62 C 1.00252 0.16289 0.66377 0.0
C63 C 0.0153 0.91566 0.67503 0.0
C64 C 0.91694 1.03896 0.76826 0.0
C65 C 0.13268 0.05313 0.75483 0.0
O66 O 0.11102 1.00093 0.7516 0.0
O67 O 0.10082 0.09678 0.74239 0.0
O68 O 0.0276 0.89591 0.70959 0.0
O69 O 1.00855 0.97204 0.67052 0.0
H70 H 0.32636 1.00632 0.02828 0.0
H71 H 0.34376 0.19347 0.05119 0.0
H72 H 0.27272 0.18486 0.10653 0.0
H73 H 0.19601 0.12672 0.14317 0.0
H74 H 0.17513 0.94013 0.11873 0.0
H75 H 0.25715 0.94606 0.06936 0.0
C76 C 0.31502 1.04507 0.04566 0.0
C77 C 0.33987 0.1005 0.0354 0.0
C78 C 0.27297 1.04007 0.07691 0.0
C79 C 0.32569 0.15019 0.05858 0.0
C80 C 0.28456 0.14542 0.09004 0.0
C81 C 0.2099 0.08711 0.12744 0.0
C82 C 0.17869 1.03326 0.13429 0.0
C83 C 0.25647 0.09095 0.0987 0.0
C84 C 0.19794 0.9823 0.11391 0.0
C85 C 0.24476 0.98565 0.08554 0.0
H86 H 0.97165 0.30983 0.50933 0.0
H87 H 0.11648 0.4146 0.56671 0.0
H88 H 0.1073 0.35417 0.62491 0.0
H89 H 0.06562 0.26596 0.65761 0.0
H90 H 0.93486 0.15193 0.59608 0.0
H91 H 0.93306 0.22022 0.54072 0.0
C92 C 1.00217 0.31925 0.53418 0.0
C93 C 0.04519 0.3669 0.53294 0.0
C94 C 0.99986 0.2819 0.56672 0.0
C95 C 0.08214 0.37919 0.56647 0.0
C96 C 0.07763 0.344 0.59979 0.0
C97 C 0.03644 0.25641 0.63212 0.0
C98 C 1.0002 0.20435 0.63077 0.0
C99 C 0.03769 0.29454 0.59991 0.0
C100 C 0.96325 0.19176 0.59754 0.0
C101 C 0.96212 0.23082 0.56603 0.0
H102 H 0.70482 1.02034 0.02301 0.0
H103 H 0.67993 0.20372 0.05415 0.0
H104 H 0.75121 0.19185 0.11019 0.0
H105 H 0.83028 0.13233 0.14517 0.0
H106 H 0.85505 0.94868 0.11387 0.0
H107 H 0.77373 0.95747 0.06332 0.0
C108 C 0.71431 0.05733 0.04254 0.0
C109 C 0.68783 0.11289 0.03442 0.0
C110 C 0.75574 0.05029 0.07437 0.0
C111 C 0.69969 0.16048 0.06 0.0
C112 C 0.7408 0.15382 0.09181 0.0
C113 C 0.81728 0.09402 0.12765 0.0
C114 C 0.84942 1.04022 0.13287 0.0
C115 C 0.77062 0.09941 0.09851 0.0
C116 C 0.83132 0.99072 0.11035 0.0
C117 C 0.78499 0.99574 0.08129 0.0
H118 H 0.96144 0.76891 0.52151 0.0
H119 H 0.11863 0.66818 0.5675 0.0
H120 H 0.11797 0.72759 0.62667 0.0
H121 H 0.08033 0.81447 0.66313 0.0
H122 H 0.93667 0.92536 0.61214 0.0
H123 H 0.92673 0.85746 0.5564 0.0
C124 C 0.99648 0.76013 0.54396 0.0
C125 C 0.04027 0.71371 0.53918 0.0
C126 C 0.99915 0.7973 0.57696 0.0
C127 C 0.08323 0.70234 0.56996 0.0
C128 C 0.08373 0.73711 0.60385 0.0
C129 C 0.04668 0.82348 0.63984 0.0
C130 C 1.00923 0.87462 0.64158 0.0
C131 C 0.04298 0.78553 0.60726 0.0
C132 C 0.96626 0.88637 0.61117 0.0
C133 C 0.96041 0.84746 0.57945 0.0
H134 H 0.346 0.15699 0.86295 0.0
H135 H 0.33518 0.98184 0.91156 0.0
H136 H 0.26457 0.95084 0.85832 0.0
H137 H 0.19486 0.97776 0.80352 0.0
H138 H 0.20199 0.15478 0.75722 0.0
H139 H 0.28614 0.18035 0.80339 0.0
C140 C 0.32964 0.11158 0.86125 0.0
C141 C 0.34531 0.07188 0.89126 0.0
C142 C 0.28784 0.09457 0.83117 0.0
C143 C 0.32312 1.01335 0.88897 0.0
C144 C 0.28272 0.99566 0.85859 0.0
C145 C 0.21576 1.02153 0.80294 0.0
C146 C 0.19151 0.0645 0.77731 0.0
C147 C 0.26297 1.03652 0.83034 0.0
C148 C 0.21921 0.12104 0.77696 0.0
C149 C 0.26728 0.13579 0.80342 0.0
H150 H 0.97573 0.30843 0.4074 0.0
H151 H 0.12513 0.411 0.35548 0.0
H152 H 0.12004 0.34887 0.29726 0.0
H153 H 0.0795 0.26018 0.263 0.0
H154 H 0.94344 0.14897 0.31991 0.0
H155 H 0.93907 0.21823 0.37505 0.0
C156 C 1.00818 0.31698 0.3838 0.0
C157 C 0.05118 0.36453 0.38652 0.0
C158 C 1.00811 0.27872 0.35141 0.0
C159 C 0.09071 0.37567 0.3545 0.0
C160 C 0.08854 0.33951 0.32121 0.0
C161 C 0.04882 0.25139 0.2875 0.0
C162 C 1.01175 0.19982 0.28757 0.0
C163 C 0.04835 0.29024 0.31968 0.0
C164 C 0.97264 0.1883 0.31948 0.0
C165 C 0.96996 0.22796 0.35085 0.0
H166 H 0.72098 1.02156 0.90494 0.0
H167 H 0.67813 0.19794 0.86544 0.0
H168 H 0.75082 0.18594 0.81105 0.0
H169 H 0.83419 0.12927 0.77882 0.0
H170 H 0.87903 0.95358 0.8192 0.0
H171 H 0.79806 0.9615 0.86916 0.0
C172 C 0.72723 0.05713 0.88419 0.0
C173 C 0.69462 0.11067 0.88936 0.0
C174 C 0.76993 0.05033 0.85342 0.0
C175 C 0.7023 0.1561 0.86194 0.0
C176 C 0.74431 0.14948 0.83104 0.0
C177 C 0.82593 0.09247 0.79831 0.0
C178 C 0.86324 1.04124 0.79556 0.0
C179 C 0.77956 0.09739 0.82712 0.0
C180 C 0.85128 0.99369 0.82075 0.0
C181 C 0.80505 0.99819 0.84942 0.0
H182 H 0.06773 0.8039 0.41884 0.0
H183 H 1.00392 0.64752 0.35709 0.0
H184 H 0.99015 0.70538 0.29748 0.0
H185 H 0.99555 0.80069 0.2631 0.0
H186 H 0.05322 0.95746 0.32662 0.0
H187 H 0.0681 0.89918 0.38578 0.0
C188 C 0.04952 0.78241 0.39267 0.0
C189 C 0.03642 0.72131 0.39273 0.0
C190 C 0.0403 0.81612 0.35883 0.0
C191 C 0.01494 0.69428 0.35793 0.0
C192 C 1.00664 0.72743 0.32387 0.0
C193 C 1.0112 0.82211 0.28993 0.0
C194 C 0.02342 0.88333 0.29041 0.0
C195 C 0.01915 0.7884 0.324 0.0
C196 C 0.04332 0.91048 0.32545 0.0
C197 C 0.05205 0.87715 0.35928 0.0
loop_
_geom_bond_atom_site_label_1
_geom_bond_atom_site_label_2
_geom_bond_distance
_geom_bond_site_symmetry_2
_ccdc_geom_bond_type
H0 C8 0.930 . S
H1 C11 0.930 . S
H2 C13 0.930 1_565 S
H3 C14 0.989 . S
H4 C14 0.952 1_556 S
H5 C16 0.930 . S
H6 C18 0.930 1_565 S
H7 C20 0.930 . S
C8 H0 0.930 . S
C8 C9 1.382 . S
C8 C10 1.441 . S
C9 C8 1.382 . S
C9 C13 1.411 . S
C10 C8 1.441 . S
C10 C11 1.361 1_554 S
C10 C14 1.532 . S
C11 H1 0.930 . S
C11 C10 1.361 1_556 S
C11 C12 1.416 . S
C12 C11 1.416 . S
C12 C13 1.348 1_556 S
C13 H2 0.930 1_545 S
C13 C9 1.411 . S
C13 C12 1.348 1_554 S
C14 H3 0.989 . S
C14 H4 0.952 1_554 S
C14 C10 1.532 . S
C14 C15 1.499 . S
C15 C14 1.499 . S
C15 C16 1.371 . S
C15 C20 1.415 1_554 S
C16 H5 0.930 . S
C16 C15 1.371 . S
C16 C17 1.407 . S
C17 C16 1.407 . S
C17 C18 1.365 . S
C18 H6 0.930 1_545 S
C18 C17 1.365 . S
C18 C19 1.393 1_554 S
C19 C18 1.393 1_556 S
C19 C20 1.387 . S
C20 H7 0.930 . S
C20 C15 1.415 1_556 S
C20 C19 1.387 . S
H21 C29 0.930 . S
H22 C32 0.930 . S
H23 C34 0.924 1_655 S
H24 C35 0.970 . S
H25 C35 0.970 . S
H26 C37 0.930 . S
H27 C39 0.930 . S
H28 C41 0.930 . S
C29 H21 0.930 . S
C29 C30 1.382 . S
C29 C31 1.426 . S
C30 C29 1.382 . S
C30 C34 1.392 . S
C31 C29 1.426 . S
C31 C32 1.375 . S
C31 C35 1.532 . S
C32 H22 0.930 . S
C32 C31 1.375 . S
C32 C33 1.416 . S
C33 C32 1.416 . S
C33 C34 1.374 . S
C34 H23 0.924 1_455 S
C34 C30 1.392 . S
C34 C33 1.374 . S
C35 H24 0.970 . S
C35 H25 0.970 . S
C35 C31 1.532 . S
C35 C36 1.499 . S
C36 C35 1.499 . S
C36 C37 1.370 . S
C36 C41 1.415 . S
C37 H26 0.930 . S
C37 C36 1.370 . S
C37 C38 1.407 . S
C38 C37 1.407 . S
C38 C39 1.365 1_455 S
C39 H27 0.930 . S
C39 C38 1.365 1_655 S
C39 C40 1.393 1_655 S
C40 C39 1.393 1_455 S
C40 C41 1.387 . S
C41 H28 0.930 . S
C41 C36 1.415 . S
C41 C40 1.387 . S
O42 Cd43 2.223 1_655 S
O42 C50 1.315 . S
Cd43 O42 2.223 1_455 S
Cd43 O46 2.297 1_455 S
Cd43 O47 2.439 1_455 S
Cd43 O53 2.240 1_565 S
Cd44 O45 2.240 . S
Cd44 O52 2.223 1_655 S
Cd44 O54 2.297 1_655 S
Cd44 O55 2.439 1_655 S
O45 Cd44 2.240 . S
O45 C50 1.279 1_545 S
O46 Cd43 2.297 1_655 S
O46 C48 1.247 . S
O47 Cd43 2.439 1_655 S
O47 C48 1.208 . S
C48 O46 1.247 . S
C48 O47 1.208 . S
C49 O54 1.247 . S
C49 O55 1.208 . S
C50 O42 1.315 . S
C50 O45 1.279 1_565 S
C51 O52 1.315 . S
C51 O53 1.279 . S
O52 Cd44 2.223 1_455 S
O52 C51 1.315 . S
O53 Cd43 2.240 1_545 S
O53 C51 1.279 . S
O54 Cd44 2.297 1_455 S
O54 C49 1.247 . S
O55 Cd44 2.439 1_455 S
O55 C49 1.208 . S
O56 Cd57 2.223 1_655 S
O56 C64 1.315 . S
Cd57 O56 2.223 1_455 S
Cd57 O60 2.297 1_455 S
Cd57 O61 2.439 1_455 S
Cd57 O67 2.240 . S
Cd58 O59 2.240 1_565 S
Cd58 O66 2.223 1_655 S
Cd58 O68 2.297 1_655 S
Cd58 O69 2.439 1_655 S
O59 Cd58 2.240 1_545 S
O59 C64 1.279 . S
O60 Cd57 2.297 1_655 S
O60 C62 1.247 . S
O61 Cd57 2.439 1_655 S
O61 C62 1.208 . S
C62 O60 1.247 . S
C62 O61 1.208 . S
C63 O68 1.247 . S
C63 O69 1.208 . S
C64 O56 1.315 . S
C64 O59 1.279 . S
C65 O66 1.315 . S
C65 O67 1.279 1_565 S
O66 Cd58 2.223 1_455 S
O66 C65 1.315 . S
O67 Cd57 2.240 . S
O67 C65 1.279 1_545 S
O68 Cd58 2.297 1_455 S
O68 C63 1.247 . S
O69 Cd58 2.439 1_455 S
O69 C63 1.208 . S
H70 C76 0.930 . S
H71 C79 0.930 . S
H72 C80 0.930 . S
H73 C81 0.930 . S
H74 C84 0.930 . S
H75 C85 0.930 . S
C76 H70 0.930 . S
C76 C77 1.355 1_565 S
C76 C78 1.415 . S
C77 C76 1.355 1_545 S
C77 C79 1.419 . S
C78 C76 1.415 . S
C78 C83 1.425 1_565 S
C78 C85 1.409 . S
C79 H71 0.930 . S
C79 C77 1.419 . S
C79 C80 1.362 . S
C80 H72 0.930 . S
C80 C79 1.362 . S
C80 C83 1.409 . S
C81 H73 0.930 . S
C81 C82 1.355 . S
C81 C83 1.415 . S
C82 C81 1.355 . S
C82 C84 1.419 1_545 S
C83 C78 1.425 1_545 S
C83 C80 1.409 . S
C83 C81 1.415 . S
C84 H74 0.930 . S
C84 C82 1.419 1_565 S
C84 C85 1.362 . S
C85 H75 0.930 . S
C85 C78 1.409 . S
C85 C84 1.362 . S
H86 C92 0.930 . S
H87 C95 0.930 . S
H88 C96 0.930 . S
H89 C97 0.930 . S
H90 C100 0.930 . S
H91 C101 0.930 . S
C92 H86 0.930 . S
C92 C93 1.355 1_655 S
C92 C94 1.415 . S
C93 C92 1.355 1_455 S
C93 C95 1.419 . S
C94 C92 1.415 . S
C94 C99 1.425 1_655 S
C94 C101 1.409 . S
C95 H87 0.930 . S
C95 C93 1.419 . S
C95 C96 1.362 . S
C96 H88 0.930 . S
C96 C95 1.362 . S
C96 C99 1.409 . S
C97 H89 0.930 . S
C97 C98 1.355 1_455 S
C97 C99 1.415 . S
C98 C97 1.355 1_655 S
C98 C100 1.419 . S
C99 C94 1.425 1_455 S
C99 C96 1.409 . S
C99 C97 1.415 . S
C100 H90 0.930 . S
C100 C98 1.419 . S
C100 C101 1.362 . S
C101 H91 0.930 . S
C101 C94 1.409 . S
C101 C100 1.362 . S
H102 C108 0.930 . S
H103 C111 0.930 . S
H104 C112 0.930 . S
H105 C113 0.930 . S
H106 C116 0.930 . S
H107 C117 0.930 . S
C108 H102 0.930 . S
C108 C109 1.355 1_565 S
C108 C110 1.415 . S
C109 C108 1.355 1_545 S
C109 C111 1.419 . S
C110 C108 1.415 . S
C110 C115 1.425 1_565 S
C110 C117 1.409 . S
C111 H103 0.930 . S
C111 C109 1.419 . S
C111 C112 1.362 . S
C112 H104 0.930 . S
C112 C111 1.362 . S
C112 C115 1.409 . S
C113 H105 0.930 . S
C113 C114 1.355 1_545 S
C113 C115 1.415 . S
C114 C113 1.355 1_565 S
C114 C116 1.419 . S
C115 C110 1.425 1_545 S
C115 C112 1.409 . S
C115 C113 1.415 . S
C116 H106 0.930 . S
C116 C114 1.419 . S
C116 C117 1.362 . S
C117 H107 0.930 . S
C117 C110 1.409 . S
C117 C116 1.362 . S
H118 C124 0.930 . S
H119 C127 0.930 . S
H120 C128 0.930 . S
H121 C129 0.930 . S
H122 C132 0.930 . S
H123 C133 0.930 . S
C124 H118 0.930 . S
C124 C125 1.355 1_655 S
C124 C126 1.415 . S
C125 C124 1.355 1_455 S
C125 C127 1.419 . S
C126 C124 1.415 . S
C126 C131 1.425 1_655 S
C126 C133 1.409 . S
C127 H119 0.930 . S
C127 C125 1.419 . S
C127 C128 1.362 . S
C128 H120 0.930 . S
C128 C127 1.362 . S
C128 C131 1.409 . S
C129 H121 0.930 . S
C129 C130 1.355 . S
C129 C131 1.415 . S
C130 C129 1.355 . S
C130 C132 1.419 1_455 S
C131 C126 1.425 1_455 S
C131 C128 1.409 . S
C131 C129 1.415 . S
C132 H122 0.930 . S
C132 C130 1.419 1_655 S
C132 C133 1.362 . S
C133 H123 0.930 . S
C133 C126 1.409 . S
C133 C132 1.362 . S
H134 C140 0.930 . S
H135 C143 0.930 . S
H136 C144 0.930 . S
H137 C145 0.930 . S
H138 C148 0.930 . S
H139 C149 0.930 . S
C140 H134 0.930 . S
C140 C141 1.355 . S
C140 C142 1.415 . S
C141 C140 1.355 . S
C141 C143 1.419 1_545 S
C142 C140 1.415 . S
C142 C147 1.425 1_545 S
C142 C149 1.409 . S
C143 H135 0.930 . S
C143 C141 1.419 1_565 S
C143 C144 1.362 . S
C144 H136 0.930 . S
C144 C143 1.362 . S
C144 C147 1.409 . S
C145 H137 0.930 . S
C145 C146 1.355 . S
C145 C147 1.415 . S
C146 C145 1.355 . S
C146 C148 1.419 1_565 S
C147 C142 1.425 1_565 S
C147 C144 1.409 . S
C147 C145 1.415 . S
C148 H138 0.930 . S
C148 C146 1.419 1_545 S
C148 C149 1.362 . S
C149 H139 0.930 . S
C149 C142 1.409 . S
C149 C148 1.362 . S
H150 C156 0.930 . S
H151 C159 0.930 . S
H152 C160 0.930 . S
H153 C161 0.930 . S
H154 C164 0.930 . S
H155 C165 0.930 . S
C156 H150 0.930 . S
C156 C157 1.355 1_655 S
C156 C158 1.415 1_655 S
C157 C156 1.355 1_455 S
C157 C159 1.419 . S
C158 C156 1.415 1_455 S
C158 C163 1.425 . S
C158 C165 1.409 1_455 S
C159 H151 0.930 . S
C159 C157 1.419 . S
C159 C160 1.362 . S
C160 H152 0.930 . S
C160 C159 1.362 . S
C160 C163 1.409 . S
C161 H153 0.930 . S
C161 C162 1.355 . S
C161 C163 1.415 . S
C162 C161 1.355 . S
C162 C164 1.419 1_455 S
C163 C158 1.425 . S
C163 C160 1.409 . S
C163 C161 1.415 . S
C164 H154 0.930 . S
C164 C162 1.419 1_655 S
C164 C165 1.362 . S
C165 H155 0.930 . S
C165 C158 1.409 1_655 S
C165 C164 1.362 . S
H166 C172 0.930 . S
H167 C175 0.930 . S
H168 C176 0.930 . S
H169 C177 0.930 . S
H170 C180 0.930 . S
H171 C181 0.930 . S
C172 H166 0.930 . S
C172 C173 1.355 1_565 S
C172 C174 1.415 . S
C173 C172 1.355 1_545 S
C173 C175 1.419 . S
C174 C172 1.415 . S
C174 C179 1.425 1_565 S
C174 C181 1.409 . S
C175 H167 0.930 . S
C175 C173 1.419 . S
C175 C176 1.362 . S
C176 H168 0.930 . S
C176 C175 1.362 . S
C176 C179 1.409 . S
C177 H169 0.930 . S
C177 C178 1.355 . S
C177 C179 1.415 . S
C178 C177 1.355 . S
C178 C180 1.419 1_545 S
C179 C174 1.425 1_545 S
C179 C176 1.409 . S
C179 C177 1.415 . S
C180 H170 0.930 . S
C180 C178 1.419 1_565 S
C180 C181 1.362 . S
C181 H171 0.930 . S
C181 C174 1.409 . S
C181 C180 1.362 . S
H182 C188 0.930 . S
H183 C191 0.930 . S
H184 C192 0.930 . S
H185 C193 0.930 . S
H186 C196 0.930 . S
H187 C197 0.930 . S
C188 H182 0.930 . S
C188 C189 1.346 1_455 S
C188 C190 1.415 . S
C189 C188 1.346 1_655 S
C189 C191 1.432 . S
C190 C188 1.415 . S
C190 C195 1.425 1_455 S
C190 C197 1.409 . S
C191 H183 0.930 . S
C191 C189 1.432 . S
C191 C192 1.362 . S
C192 H184 0.930 . S
C192 C191 1.362 . S
C192 C195 1.409 . S
C193 H185 0.930 . S
C193 C194 1.355 . S
C193 C195 1.415 . S
C194 C193 1.355 . S
C194 C196 1.419 1_655 S
C195 C190 1.425 1_655 S
C195 C192 1.409 . S
C195 C193 1.415 . S
C196 H186 0.930 . S
C196 C194 1.419 1_455 S
C196 C197 1.362 . S
C197 H187 0.930 . S
C197 C190 1.409 . S
C197 C196 1.362 . S
C82 C51 1.668 . S
C77 C17 1.535 . S
C98 C62 1.588 . S
C93 C40 1.584 . S
C114 C50 1.677 . S
C109 C9 1.638 . S
C130 C63 1.519 . S
C125 C33 1.476 . S
C146 C65 1.666 . S
C141 C19 1.641 . S
C162 C49 1.542 . S
C157 C38 1.522 . S
C178 C64 1.661 . S
C173 C12 1.510 . S
C189 C30 1.580 1_655 S
C194 C48 1.521 . S
