# Generated by pormake.
# Topology pto, (3,4)-cn, num edge types: 1
# Building blocks:
#     Node 0, Type 0, BuildingBlock: INOVEN_clean_linker_0, # of connection points: 3
#     Node 1, Type 0, BuildingBlock: INOVEN_clean_linker_0, # of connection points: 3
#     Node 2, Type 0, BuildingBlock: INOVEN_clean_linker_0, # of connection points: 3
#     Node 3, Type 0, BuildingBlock: INOVEN_clean_linker_0, # of connection points: 3
#     Node 4, Type 0, BuildingBlock: INOVEN_clean_linker_0, # of connection points: 3
#     Node 5, Type 0, BuildingBlock: INOVEN_clean_linker_0, # of connection points: 3
#     Node 6, Type 0, BuildingBlock: INOVEN_clean_linker_0, # of connection points: 3
#     Node 7, Type 0, BuildingBlock: INOVEN_clean_linker_0, # of connection points: 3
#     Node 8, Type 1, BuildingBlock: NAWXER_clean_sbu_0, # of connection points: 4
#     Node 9, Type 1, BuildingBlock: NAWXER_clean_sbu_0, # of connection points: 4
#     Node 10, Type 1, BuildingBlock: NAWXER_clean_sbu_0, # of connection points: 4
#     Node 11, Type 1, BuildingBlock: NAWXER_clean_sbu_0, # of connection points: 4
#     Node 12, Type 1, BuildingBlock: NAWXER_clean_sbu_0, # of connection points: 4
#     Node 13, Type 1, BuildingBlock: NAWXER_clean_sbu_0, # of connection points: 4
#     Edge 14, Type (0, 1), None
#     Edge 15, Type (0, 1), None
#     Edge 16, Type (0, 1), None
#     Edge 17, Type (0, 1), None
#     Edge 18, Type (0, 1), None
#     Edge 19, Type (0, 1), None
#     Edge 20, Type (0, 1), None
#     Edge 21, Type (0, 1), None
#     Edge 22, Type (0, 1), None
#     Edge 23, Type (0, 1), None
#     Edge 24, Type (0, 1), None
#     Edge 25, Type (0, 1), None
#     Edge 26, Type (0, 1), None
#     Edge 27, Type (0, 1), None
#     Edge 28, Type (0, 1), None
#     Edge 29, Type (0, 1), None
#     Edge 30, Type (0, 1), None
#     Edge 31, Type (0, 1), None
#     Edge 32, Type (0, 1), None
#     Edge 33, Type (0, 1), None
#     Edge 34, Type (0, 1), None
#     Edge 35, Type (0, 1), None
#     Edge 36, Type (0, 1), None
#     Edge 37, Type (0, 1), None
# Relax obj value: 0.015
# Max RMSD: 0.126
# Mean RMSD: 0.052
data_MOF--net-pto--node1-NAWXER_clean_sbu_0--node2-INOVEN_clean_linker_0--edge1-none
_symmetry_space_group_name_H-M    P1
_symmetry_Int_Tables_number       1
_symmetry_cell_setting            triclinic
loop_
_symmetry_equiv_pos_as_xyz
'x, y, z'
_cell_length_a     17.032304
_cell_length_b     16.570742
_cell_length_c     16.460168
_cell_angle_alpha  106.01537
_cell_angle_beta   96.969977
_cell_angle_gamma 99.549209
loop_
_atom_site_label
_atom_site_type_symbol
_atom_site_fract_x
_atom_site_fract_y
_atom_site_fract_z
_atom_type_partial_charge
H0 H 0.34466 0.28277 0.53355 0.0
H1 H 0.49599 0.12763 0.39682 0.0
H2 H 0.38053 0.29225 0.28303 0.0
N3 N 0.3051 0.3531 0.40589 0.0
N4 N 0.28045 0.39583 0.46922 0.0
C5 C 0.37386 0.26354 0.47842 0.0
C6 C 0.42337 0.20229 0.47449 0.0
C7 C 0.35866 0.29612 0.40911 0.0
C8 C 0.39235 0.2666 0.3362 0.0
C9 C 0.44201 0.20632 0.33086 0.0
C10 C 0.458 0.17449 0.40057 0.0
H11 H 0.21479 0.72911 0.74678 0.0
H12 H 0.32303 0.60663 0.91761 0.0
H13 H 0.47352 0.7815 0.82186 0.0
N14 N 0.35111 0.82513 0.73474 0.0
N15 N 0.41692 0.86876 0.73 0.0
C16 C 0.26806 0.71645 0.78016 0.0
C17 C 0.25917 0.66094 0.83105 0.0
C18 C 0.34527 0.76046 0.77677 0.0
C19 C 0.41414 0.74578 0.8219 0.0
C20 C 0.40685 0.68914 0.87144 0.0
C21 C 0.32918 0.64706 0.876 0.0
H22 H 0.85362 0.5274 0.29856 0.0
H23 H 0.96014 0.72311 0.53776 0.0
H24 H 0.72539 0.72083 0.40852 0.0
N25 N 0.73289 0.60634 0.26385 0.0
N26 N 0.71198 0.67093 0.25061 0.0
C27 C 0.84845 0.58073 0.35182 0.0
C28 C 0.91145 0.61512 0.42439 0.0
C29 C 0.78199 0.62011 0.34497 0.0
C30 C 0.77642 0.69001 0.41363 0.0
C31 C 0.8424 0.73099 0.47897 0.0
C32 C 0.90862 0.6915 0.48671 0.0
H33 H 0.82439 0.3781 0.94917 0.0
H34 H 0.90844 0.2683 0.71501 0.0
H35 H 0.72757 0.11441 0.80079 0.0
N36 N 0.72113 0.23625 0.94417 0.0
N37 N 0.68061 0.16611 0.94533 0.0
C38 C 0.82145 0.32487 0.89235 0.0
C39 C 0.87129 0.33487 0.83158 0.0
C40 C 0.76868 0.2454 0.8808 0.0
C41 C 0.7657 0.17623 0.80844 0.0
C42 C 0.8166 0.18448 0.74961 0.0
C43 C 0.86779 0.26372 0.76018 0.0
H44 H 0.79606 0.90808 0.93759 0.0
H45 H 0.84207 0.69454 0.02333 0.0
H46 H 1.00751 0.80701 0.88717 0.0
N47 N 0.91454 0.91495 0.85244 0.0
N48 N 0.9762 0.92847 0.8201 0.0
C49 C 0.8352 0.8647 0.94652 0.0
C50 C 0.81077 0.80227 -0.01397 0.0
C51 C 0.90576 0.86682 0.91079 0.0
C52 C 0.95479 0.80811 0.918 0.0
C53 C 0.93287 0.74686 0.96003 0.0
C54 C 0.86059 0.74379 -0.00633 0.0
H55 H 0.74359 0.16347 0.33831 0.0
H56 H 0.86141 0.35761 0.23992 0.0
H57 H 1.00258 0.2184 0.36313 0.0
N58 N 0.87678 0.12451 0.40459 0.0
N59 N 0.9418 0.10984 0.43561 0.0
C60 C 0.79825 0.19883 0.32639 0.0
C61 C 0.79353 0.26315 0.2858 0.0
C62 C 0.87332 0.18124 0.35374 0.0
C63 C 0.94374 0.22699 0.33795 0.0
C64 C 0.93902 0.28936 0.29591 0.0
C65 C 0.86421 0.30722 0.26992 0.0
H66 H 0.22784 0.25545 0.80432 0.0
H67 H 0.44789 0.19298 0.90024 0.0
H68 H 0.35063 0.38998 0.06328 0.0
N69 N 0.22321 0.37775 0.9373 0.0
N70 N 0.21062 0.42952 0.00282 0.0
C71 C 0.27774 0.26482 0.85596 0.0
C72 C 0.33721 0.2167 0.84229 0.0
C73 C 0.28263 0.32759 0.93426 0.0
C74 C 0.34753 0.34238 0.00213 0.0
C75 C 0.40722 0.29299 -0.00974 0.0
C76 C 0.40209 0.23138 0.90968 0.0
H77 H 0.27795 0.6518 0.21441 0.0
H78 H 0.18327 0.78068 0.43395 0.0
H79 H 0.37485 0.91883 0.34621 0.0
N80 N 0.39051 0.78013 0.21898 0.0
N81 N 0.44654 0.84107 0.22356 0.0
C82 C 0.27502 0.71038 0.26271 0.0
C83 C 0.22329 0.7076 0.32207 0.0
C84 C 0.32979 0.78611 0.27085 0.0
C85 C 0.32983 0.86106 0.33693 0.0
C86 C 0.27543 0.8597 0.39503 0.0
C87 C 0.2216 0.78313 0.38626 0.0
C88 C 1.00996 0.35524 0.30671 0.0
C89 C 0.17991 0.62474 0.32561 0.0
O90 O 0.03556 0.40431 0.38346 0.0
Zn91 Zn 0.1106 0.52469 0.4499 0.0
O92 O 0.03251 0.37613 0.24295 0.0
Zn93 Zn 0.10106 0.48329 0.31163 0.0
O94 O 0.19326 0.44072 0.37817 0.0
O95 O 0.19623 0.49116 0.51761 0.0
O96 O 0.15559 0.56094 0.25828 0.0
O97 O 0.16822 0.6173 0.39876 0.0
O98 O 1.02822 0.58338 0.49846 0.0
O99 O 1.00773 0.54566 0.35674 0.0
C100 C 0.22301 0.44615 0.45532 0.0
C101 C 0.98552 0.57948 0.42757 0.0
C102 C 0.93291 0.41504 0.84484 0.0
C103 C 0.1776 0.62102 0.8418 0.0
O104 O 0.96524 0.46384 0.92087 0.0
Zn105 Zn 0.0645 0.57531 -0.02326 0.0
O106 O 0.96019 0.43111 0.78113 0.0
Zn107 Zn 0.04759 0.52885 0.84068 0.0
O108 O 0.12299 0.47154 0.91178 0.0
O109 O 0.13272 0.53139 0.05183 0.0
O110 O 0.12586 0.57269 0.77711 0.0
O111 O 0.16146 0.6294 0.91769 0.0
O112 O 1.01182 0.66852 0.027 0.0
O113 O 0.99024 0.63302 0.88569 0.0
C114 C 0.15206 0.47797 -0.0105 0.0
C115 C 0.98026 0.67984 0.95821 0.0
C116 C 0.41641 0.93552 0.69149 0.0
C117 C 0.42349 0.15479 0.53836 0.0
O118 O 0.34913 0.956 0.67196 0.0
Zn119 Zn 0.30118 0.04017 0.61457 0.0
O120 O 0.48127 0.97547 0.67677 0.0
Zn121 Zn 0.43213 0.05344 0.62454 0.0
O122 O 0.39719 0.13506 0.73234 0.0
O123 O 0.26398 0.11471 0.70945 0.0
O124 O 0.48615 0.13126 0.56695 0.0
O125 O 0.35483 0.12665 0.555 0.0
O126 O 0.23179 0.95463 0.51283 0.0
O127 O 0.36257 0.96236 0.51247 0.0
C128 C 0.33204 0.15239 0.75762 0.0
C129 C 0.28926 0.93049 0.47568 0.0
C130 C 0.66462 0.67492 0.17629 0.0
C131 C 0.47853 0.68984 0.93228 0.0
O132 O 0.62053 0.60888 0.11962 0.0
Zn133 Zn 0.57789 0.67594 0.049 0.0
O134 O 0.66481 0.75006 0.16988 0.0
Zn135 Zn 0.61383 0.81387 0.08762 0.0
O136 O 0.55867 0.88631 0.1658 0.0
O137 O 0.50907 0.74685 0.13374 0.0
O138 O 0.52158 0.76286 -0.02215 0.0
O139 O 0.4925 0.62187 0.94752 0.0
O140 O 0.68843 0.72333 0.00913 0.0
O141 O 0.70811 0.86477 0.05061 0.0
C142 C 0.5068 0.82487 0.17264 0.0
C143 C 0.73203 0.79676 0.01604 0.0
C144 C 0.96796 0.96092 0.74929 0.0
C145 C 0.94172 0.05965 0.49288 0.0
O146 O 0.89639 0.95109 0.70892 0.0
Zn147 Zn 0.83308 0.96728 0.59865 0.0
O148 O 1.02881 0.99121 0.72052 0.0
Zn149 Zn 0.96335 0.00461 0.61905 0.0
O150 O 0.90079 0.09973 0.68023 0.0
O151 O 0.76907 0.04376 0.65207 0.0
O152 O 1.00773 0.05605 0.53585 0.0
O153 O 0.87435 0.02749 0.50978 0.0
O154 O 0.78357 0.8507 0.53609 0.0
O155 O 0.91667 0.87253 0.55178 0.0
C156 C 0.82812 0.10692 0.68804 0.0
C157 C 0.84742 0.82138 0.52695 0.0
C158 C 0.71448 0.27415 0.24829 0.0
C159 C 0.46931 0.29394 0.06192 0.0
O160 O 0.66272 0.20539 0.20942 0.0
Zn161 Zn 0.55309 0.15883 0.12775 0.0
O162 O 0.70083 0.34636 0.24275 0.0
Zn163 Zn 0.59305 0.30497 0.16786 0.0
O164 O 0.52339 0.26031 0.24604 0.0
O165 O 0.4869 0.11889 0.20734 0.0
O166 O 0.51908 0.36191 0.10962 0.0
O167 O 0.47841 0.22069 0.0675 0.0
O168 O 0.59619 0.09955 0.0236 0.0
O169 O 0.6338 0.24074 0.0621 0.0
C170 C 0.48714 0.19255 0.25887 0.0
C171 C 0.63473 0.16756 0.01189 0.0
loop_
_geom_bond_atom_site_label_1
_geom_bond_atom_site_label_2
_geom_bond_distance
_geom_bond_site_symmetry_2
_ccdc_geom_bond_type
H0 C5 0.929 . S
H1 C10 0.931 . S
H2 C8 0.930 . S
N3 N4 1.234 . S
N3 C7 1.453 . S
N4 N3 1.234 . S
C5 H0 0.929 . S
C5 C6 1.373 . S
C5 C7 1.368 . S
C6 C5 1.373 . S
C6 C10 1.397 . S
C7 N3 1.453 . S
C7 C5 1.368 . S
C7 C8 1.373 . S
C8 H2 0.930 . S
C8 C7 1.373 . S
C8 C9 1.371 . S
C9 C8 1.371 . S
C9 C10 1.383 . S
C10 H1 0.931 . S
C10 C6 1.397 . S
C10 C9 1.383 . S
H11 C16 0.929 . S
H12 C21 0.931 . S
H13 C19 0.930 . S
N14 N15 1.234 . S
N14 C18 1.453 . S
N15 N14 1.234 . S
C16 H11 0.929 . S
C16 C17 1.373 . S
C16 C18 1.368 . S
C17 C16 1.373 . S
C17 C21 1.397 . S
C18 N14 1.453 . S
C18 C16 1.368 . S
C18 C19 1.373 . S
C19 H13 0.930 . S
C19 C18 1.373 . S
C19 C20 1.371 . S
C20 C19 1.371 . S
C20 C21 1.383 . S
C21 H12 0.931 . S
C21 C17 1.397 . S
C21 C20 1.383 . S
H22 C27 0.929 . S
H23 C32 0.931 . S
H24 C30 0.930 . S
N25 N26 1.234 . S
N25 C29 1.453 . S
N26 N25 1.234 . S
C27 H22 0.929 . S
C27 C28 1.373 . S
C27 C29 1.368 . S
C28 C27 1.373 . S
C28 C32 1.397 . S
C29 N25 1.453 . S
C29 C27 1.368 . S
C29 C30 1.373 . S
C30 H24 0.930 . S
C30 C29 1.373 . S
C30 C31 1.371 . S
C31 C30 1.371 . S
C31 C32 1.383 . S
C32 H23 0.931 . S
C32 C28 1.397 . S
C32 C31 1.383 . S
H33 C38 0.929 . S
H34 C43 0.931 . S
H35 C41 0.930 . S
N36 N37 1.234 . S
N36 C40 1.453 . S
N37 N36 1.234 . S
C38 H33 0.929 . S
C38 C39 1.373 1_554 S
C38 C40 1.368 . S
C39 C38 1.373 1_556 S
C39 C43 1.397 . S
C40 N36 1.453 . S
C40 C38 1.368 . S
C40 C41 1.373 1_554 S
C41 H35 0.930 . S
C41 C40 1.373 1_556 S
C41 C42 1.371 . S
C42 C41 1.371 . S
C42 C43 1.383 . S
C43 H34 0.931 . S
C43 C39 1.397 . S
C43 C42 1.383 . S
H44 C49 0.929 . S
H45 C54 0.931 . S
H46 C52 0.930 . S
N47 N48 1.234 . S
N47 C51 1.453 . S
N48 N47 1.234 . S
C49 H44 0.929 . S
C49 C50 1.373 . S
C49 C51 1.368 . S
C50 C49 1.373 . S
C50 C54 1.397 . S
C51 N47 1.453 . S
C51 C49 1.368 . S
C51 C52 1.373 . S
C52 H46 0.930 . S
C52 C51 1.373 . S
C52 C53 1.371 . S
C53 C52 1.371 . S
C53 C54 1.383 . S
C54 H45 0.931 . S
C54 C50 1.397 . S
C54 C53 1.383 . S
H55 C60 0.929 . S
H56 C65 0.931 . S
H57 C63 0.930 . S
N58 N59 1.234 . S
N58 C62 1.453 . S
N59 N58 1.234 . S
C60 H55 0.929 . S
C60 C61 1.373 . S
C60 C62 1.368 . S
C61 C60 1.373 . S
C61 C65 1.397 . S
C62 N58 1.453 . S
C62 C60 1.368 . S
C62 C63 1.373 . S
C63 H57 0.930 . S
C63 C62 1.373 . S
C63 C64 1.371 . S
C64 C63 1.371 . S
C64 C65 1.383 . S
C65 H56 0.931 . S
C65 C61 1.397 . S
C65 C64 1.383 . S
H66 C71 0.929 . S
H67 C76 0.931 . S
H68 C74 0.930 . S
N69 N70 1.234 . S
N69 C73 1.453 . S
N70 N69 1.234 . S
C71 H66 0.929 . S
C71 C72 1.373 . S
C71 C73 1.368 . S
C72 C71 1.373 . S
C72 C76 1.397 . S
C73 N69 1.453 . S
C73 C71 1.368 . S
C73 C74 1.373 1_556 S
C74 H68 0.930 . S
C74 C73 1.373 1_554 S
C74 C75 1.371 . S
C75 C74 1.371 . S
C75 C76 1.383 1_554 S
C76 H67 0.931 . S
C76 C72 1.397 . S
C76 C75 1.383 1_556 S
H77 C82 0.929 . S
H78 C87 0.931 . S
H79 C85 0.930 . S
N80 N81 1.234 . S
N80 C84 1.453 . S
N81 N80 1.234 . S
C82 H77 0.929 . S
C82 C83 1.373 . S
C82 C84 1.368 . S
C83 C82 1.373 . S
C83 C87 1.397 . S
C84 N80 1.453 . S
C84 C82 1.368 . S
C84 C85 1.373 . S
C85 H79 0.930 . S
C85 C84 1.373 . S
C85 C86 1.371 . S
C86 C85 1.371 . S
C86 C87 1.383 . S
C87 H78 0.931 . S
C87 C83 1.397 . S
C87 C86 1.383 . S
C88 O90 1.247 . S
C88 O92 1.258 . S
C89 O96 1.247 . S
C89 O97 1.258 . S
O90 C88 1.247 . S
O90 Zn91 2.028 1_655 S
Zn91 O90 2.028 1_455 S
Zn91 O95 2.035 . S
Zn91 O97 2.035 . S
Zn91 O98 2.028 1_455 S
O92 C88 1.258 . S
O92 Zn93 2.035 1_655 S
Zn93 O92 2.035 1_455 S
Zn93 O94 2.028 . S
Zn93 O96 2.028 . S
Zn93 O99 2.035 1_455 S
O94 Zn93 2.028 . S
O94 C100 1.247 . S
O95 Zn91 2.035 . S
O95 C100 1.258 . S
O96 C89 1.247 . S
O96 Zn93 2.028 . S
O97 C89 1.258 . S
O97 Zn91 2.035 . S
O98 Zn91 2.028 1_655 S
O98 C101 1.247 . S
O99 Zn93 2.035 1_655 S
O99 C101 1.258 . S
C100 O94 1.247 . S
C100 O95 1.258 . S
C101 O98 1.247 . S
C101 O99 1.258 . S
C102 O104 1.247 . S
C102 O106 1.258 1_554 S
C103 O110 1.247 . S
C103 O111 1.258 1_556 S
O104 C102 1.247 . S
O104 Zn105 2.028 1_655 S
Zn105 O104 2.028 1_455 S
Zn105 O109 2.035 . S
Zn105 O111 2.035 . S
Zn105 O112 2.028 . S
O106 C102 1.258 1_556 S
O106 Zn107 2.035 1_655 S
Zn107 O106 2.035 1_455 S
Zn107 O108 2.028 . S
Zn107 O110 2.028 . S
Zn107 O113 2.035 1_455 S
O108 Zn107 2.028 . S
O108 C114 1.247 . S
O109 Zn105 2.035 . S
O109 C114 1.258 1_554 S
O110 C103 1.247 . S
O110 Zn107 2.028 . S
O111 C103 1.258 1_554 S
O111 Zn105 2.035 . S
O112 Zn105 2.028 . S
O112 C115 1.247 1_454 S
O113 Zn107 2.035 1_655 S
O113 C115 1.258 . S
C114 O108 1.247 . S
C114 O109 1.258 1_556 S
C115 O112 1.247 1_656 S
C115 O113 1.258 . S
C116 O118 1.247 . S
C116 O120 1.258 . S
C117 O124 1.247 . S
C117 O125 1.258 . S
O118 C116 1.247 . S
O118 Zn119 2.028 1_565 S
Zn119 O118 2.028 1_545 S
Zn119 O123 2.035 . S
Zn119 O125 2.035 . S
Zn119 O126 2.028 1_545 S
O120 C116 1.258 . S
O120 Zn121 2.035 1_565 S
Zn121 O120 2.035 1_545 S
Zn121 O122 2.028 . S
Zn121 O124 2.028 . S
Zn121 O127 2.035 1_545 S
O122 Zn121 2.028 . S
O122 C128 1.247 . S
O123 Zn119 2.035 . S
O123 C128 1.258 . S
O124 C117 1.247 . S
O124 Zn121 2.028 . S
O125 C117 1.258 . S
O125 Zn119 2.035 . S
O126 Zn119 2.028 1_565 S
O126 C129 1.247 . S
O127 Zn121 2.035 1_565 S
O127 C129 1.258 . S
C128 O122 1.247 . S
C128 O123 1.258 . S
C129 O126 1.247 . S
C129 O127 1.258 . S
C130 O132 1.247 . S
C130 O134 1.258 . S
C131 O138 1.247 . S
C131 O139 1.258 . S
O132 C130 1.247 . S
O132 Zn133 2.028 1_554 S
Zn133 O132 2.028 1_556 S
Zn133 O137 2.035 1_556 S
Zn133 O139 2.035 . S
Zn133 O140 2.028 . S
O134 C130 1.258 . S
O134 Zn135 2.035 . S
Zn135 O134 2.035 . S
Zn135 O136 2.028 . S
Zn135 O138 2.028 1_554 S
Zn135 O141 2.035 1_554 S
O136 Zn135 2.028 . S
O136 C142 1.247 . S
O137 Zn133 2.035 1_554 S
O137 C142 1.258 . S
O138 C131 1.247 . S
O138 Zn135 2.028 1_556 S
O139 C131 1.258 . S
O139 Zn133 2.035 . S
O140 Zn133 2.028 . S
O140 C143 1.247 . S
O141 Zn135 2.035 1_556 S
O141 C143 1.258 . S
C142 O136 1.247 . S
C142 O137 1.258 . S
C143 O140 1.247 . S
C143 O141 1.258 . S
C144 O146 1.247 . S
C144 O148 1.258 . S
C145 O152 1.247 . S
C145 O153 1.258 . S
O146 C144 1.247 . S
O146 Zn147 2.028 1_565 S
Zn147 O146 2.028 1_545 S
Zn147 O151 2.035 . S
Zn147 O153 2.035 . S
Zn147 O154 2.028 1_545 S
O148 C144 1.258 . S
O148 Zn149 2.035 1_565 S
Zn149 O148 2.035 1_545 S
Zn149 O150 2.028 . S
Zn149 O152 2.028 . S
Zn149 O155 2.035 1_545 S
O150 Zn149 2.028 . S
O150 C156 1.247 . S
O151 Zn147 2.035 . S
O151 C156 1.258 . S
O152 C145 1.247 . S
O152 Zn149 2.028 . S
O153 C145 1.258 . S
O153 Zn147 2.035 . S
O154 Zn147 2.028 1_565 S
O154 C157 1.247 . S
O155 Zn149 2.035 1_565 S
O155 C157 1.258 . S
C156 O150 1.247 . S
C156 O151 1.258 . S
C157 O154 1.247 . S
C157 O155 1.258 . S
C158 O160 1.247 . S
C158 O162 1.258 . S
C159 O166 1.247 . S
C159 O167 1.258 . S
O160 C158 1.247 . S
O160 Zn161 2.028 . S
Zn161 O160 2.028 . S
Zn161 O165 2.035 . S
Zn161 O167 2.035 . S
Zn161 O168 2.028 . S
O162 C158 1.258 . S
O162 Zn163 2.035 . S
Zn163 O162 2.035 . S
Zn163 O164 2.028 . S
Zn163 O166 2.028 . S
Zn163 O169 2.035 . S
O164 Zn163 2.028 . S
O164 C170 1.247 . S
O165 Zn161 2.035 . S
O165 C170 1.258 . S
O166 C159 1.247 . S
O166 Zn163 2.028 . S
O167 C159 1.258 . S
O167 Zn161 2.035 . S
O168 Zn161 2.028 . S
O168 C171 1.247 . S
O169 Zn163 2.035 . S
O169 C171 1.258 . S
C170 O164 1.247 . S
C170 O165 1.258 . S
C171 O168 1.247 . S
C171 O169 1.258 . S
C100 N4 1.527 . S
C103 C17 1.976 . S
C101 C28 1.418 . S
C102 C39 1.655 1_554 S
C117 C6 1.810 . S
C131 C20 1.785 . S
C31 C157 1.658 . S
C171 N37 1.379 . S
C116 N15 1.678 . S
N26 C130 1.581 . S
C156 C42 1.655 . S
C170 C9 1.662 . S
C53 C115 2.000 . S
C88 C64 1.730 . S
N70 C114 1.535 . S
C83 C89 1.580 . S
C144 N48 1.579 . S
C158 C61 1.744 . S
C128 C72 1.676 . S
N81 C142 1.732 . S
C145 N59 1.635 . S
C159 C75 1.616 . S
C129 C86 1.851 . S
C50 C143 1.830 . S
