# Generated by pormake.
# Topology zzz, (3,6)-cn, num edge types: 1
# Building blocks:
#     Node 0, Type 0, BuildingBlock: BETDIP_clean_linker_0, # of connection points: 3
#     Node 1, Type 0, BuildingBlock: BETDIP_clean_linker_0, # of connection points: 3
#     Node 2, Type 0, BuildingBlock: BETDIP_clean_linker_0, # of connection points: 3
#     Node 3, Type 0, BuildingBlock: BETDIP_clean_linker_0, # of connection points: 3
#     Node 4, Type 0, BuildingBlock: BETDIP_clean_linker_0, # of connection points: 3
#     Node 5, Type 0, BuildingBlock: BETDIP_clean_linker_0, # of connection points: 3
#     Node 6, Type 0, BuildingBlock: BETDIP_clean_linker_0, # of connection points: 3
#     Node 7, Type 0, BuildingBlock: BETDIP_clean_linker_0, # of connection points: 3
#     Node 8, Type 1, BuildingBlock: MIFKUJ_clean_sbu_0, # of connection points: 6
#     Node 9, Type 1, BuildingBlock: MIFKUJ_clean_sbu_0, # of connection points: 6
#     Node 10, Type 1, BuildingBlock: MIFKUJ_clean_sbu_0, # of connection points: 6
#     Node 11, Type 1, BuildingBlock: MIFKUJ_clean_sbu_0, # of connection points: 6
#     Edge 12, Type (0, 1), None
#     Edge 13, Type (0, 1), None
#     Edge 14, Type (0, 1), None
#     Edge 15, Type (0, 1), None
#     Edge 16, Type (0, 1), None
#     Edge 17, Type (0, 1), None
#     Edge 18, Type (0, 1), None
#     Edge 19, Type (0, 1), None
#     Edge 20, Type (0, 1), None
#     Edge 21, Type (0, 1), None
#     Edge 22, Type (0, 1), None
#     Edge 23, Type (0, 1), None
#     Edge 24, Type (0, 1), None
#     Edge 25, Type (0, 1), None
#     Edge 26, Type (0, 1), None
#     Edge 27, Type (0, 1), None
#     Edge 28, Type (0, 1), None
#     Edge 29, Type (0, 1), None
#     Edge 30, Type (0, 1), None
#     Edge 31, Type (0, 1), None
#     Edge 32, Type (0, 1), None
#     Edge 33, Type (0, 1), None
#     Edge 34, Type (0, 1), None
#     Edge 35, Type (0, 1), None
# Relax obj value: 0.136
# Max RMSD: 0.133
# Mean RMSD: 0.084
data_MOF--net-zzz--node1-MIFKUJ_clean_sbu_0--node2-BETDIP_clean_linker_0--edge1-none
_symmetry_space_group_name_H-M    P1
_symmetry_Int_Tables_number       1
_symmetry_cell_setting            triclinic
loop_
_symmetry_equiv_pos_as_xyz
'x, y, z'
_cell_length_a     22.721953
_cell_length_b     22.743102
_cell_length_c     8.2354646
_cell_angle_alpha  89.99294
_cell_angle_beta   89.995378
_cell_angle_gamma 89.982702
loop_
_atom_site_label
_atom_site_type_symbol
_atom_site_fract_x
_atom_site_fract_y
_atom_site_fract_z
_atom_type_partial_charge
H0 H 0.69861 0.50925 0.17048 0.0
H1 H 0.72764 0.56336 0.6762 0.0
H2 H 0.86536 0.58251 0.01911 0.0
H3 H 0.63122 0.57391 0.6829 0.0
C4 C 0.6197 0.53222 0.73702 0.0
C5 C 0.72567 0.53092 0.08027 0.0
C6 C 0.7841 0.54876 0.11946 0.0
C7 C 0.70347 0.53869 0.9206 0.0
C8 C 0.74058 0.5631 0.80283 0.0
C9 C 0.79827 0.57741 0.83922 0.0
C10 C 0.81931 0.57275 -0.00313 0.0
N11 N 0.64918 0.51266 0.86942 0.0
H12 H 0.00607 0.69955 0.1703 0.0
H13 H 0.95213 0.72858 0.67584 0.0
H14 H 0.93291 0.86623 0.01858 0.0
H15 H 0.94123 0.6323 0.68293 0.0
C16 C 0.98294 0.62066 0.73697 0.0
C17 C 0.98445 0.72662 0.08 0.0
C18 C 0.96664 0.78502 0.11908 0.0
C19 C 0.9767 0.70443 0.92032 0.0
C20 C 0.95236 0.74153 0.80246 0.0
C21 C 0.93805 0.79918 0.83879 0.0
C22 C 0.94269 0.82021 -0.00359 0.0
N23 N 1.00263 0.65009 0.86926 0.0
H24 H 0.81495 0.00625 0.17012 0.0
H25 H 0.78596 0.95209 0.67591 0.0
H26 H 0.64825 0.93288 0.0189 0.0
H27 H 0.88236 0.94168 0.68242 0.0
C28 C 0.89387 0.98335 0.73661 0.0
C29 C 0.7879 0.98455 0.07994 0.0
C30 C 0.72948 0.96669 0.11918 0.0
C31 C 0.81011 0.97679 0.92027 0.0
C32 C 0.77302 0.95234 0.80255 0.0
C33 C 0.71533 0.93801 0.83898 0.0
C34 C 0.69429 0.94266 -0.00336 0.0
N35 N 0.86438 0.00287 0.86906 0.0
H36 H 0.50757 0.81609 0.1705 0.0
H37 H 0.56144 0.787 0.676 0.0
H38 H 0.58073 0.64941 0.01894 0.0
H39 H 0.57232 0.88326 0.68283 0.0
C40 C 0.53064 0.89493 0.73697 0.0
C41 C 0.52918 0.78902 0.0802 0.0
C42 C 0.547 0.73062 0.11936 0.0
C43 C 0.5369 0.81119 0.92048 0.0
C44 C 0.56123 0.77408 0.80265 0.0
C45 C 0.57556 0.71643 0.83906 0.0
C46 C 0.57095 0.69542 -0.00329 0.0
N47 N 0.51097 0.86553 0.86937 0.0
H48 H 0.31559 0.47072 0.92124 0.0
H49 H 0.27593 0.44047 0.42423 0.0
H50 H 0.13831 0.42851 0.07477 0.0
H51 H 0.33485 0.55591 0.30502 0.0
C52 C 0.36672 0.52056 0.31947 0.0
C53 C 0.28458 0.4572 0.01387 0.0
C54 C 0.22435 0.44664 -0.02638 0.0
C55 C 0.30309 0.45376 0.17839 0.0
C56 C 0.26248 0.43979 0.29774 0.0
C57 C 0.20392 0.43203 0.2588 0.0
C58 C 0.18506 0.43272 0.09874 0.0
N59 N 0.35988 0.47049 0.23358 0.0
H60 H 0.04329 0.31654 0.92102 0.0
H61 H 0.07323 0.27687 0.42417 0.0
H62 H 0.08515 0.13933 0.07484 0.0
H63 H 0.95798 0.33618 0.30529 0.0
C64 C 0.99348 0.36788 0.31954 0.0
C65 C 0.05668 0.28553 0.01373 0.0
C66 C 0.06717 0.22532 -0.02643 0.0
C67 C 0.06006 0.30402 0.17827 0.0
C68 C 0.07391 0.26342 0.29769 0.0
C69 C 0.08163 0.2049 0.25879 0.0
C70 C 0.08097 0.18605 0.09875 0.0
N71 N 0.04351 0.36084 0.23336 0.0
H72 H 0.19812 0.04504 0.92146 0.0
H73 H 0.23773 0.07527 0.42444 0.0
H74 H 0.37539 0.08724 0.07499 0.0
H75 H 0.17883 0.95981 0.30506 0.0
C76 C 0.14695 0.99515 0.31956 0.0
C77 C 0.22911 0.05856 0.01409 0.0
C78 C 0.28935 0.06911 -0.02616 0.0
C79 C 0.21059 0.06199 0.1786 0.0
C80 C 0.25119 0.07596 0.29795 0.0
C81 C 0.30976 0.08372 0.25902 0.0
C82 C 0.32862 0.08304 0.09895 0.0
N83 N 0.1538 0.04525 0.23377 0.0
H84 H 0.47034 0.19909 0.92108 0.0
H85 H 0.44056 0.23876 0.42428 0.0
H86 H 0.42843 0.37628 0.07486 0.0
H87 H 0.55576 0.17939 0.30523 0.0
C88 C 0.52024 0.14771 0.31954 0.0
C89 C 0.45697 0.23009 0.01381 0.0
C90 C 0.44645 0.2903 -0.02638 0.0
C91 C 0.45365 0.21161 0.17837 0.0
C92 C 0.43984 0.25221 0.29779 0.0
C93 C 0.43205 0.31072 0.25886 0.0
C94 C 0.43265 0.32956 0.09881 0.0
N95 N 0.4702 0.15478 0.23343 0.0
Zn96 Zn 0.02521 0.09629 0.6048 0.0
Zn97 Zn 0.99493 0.91641 0.49094 0.0
C98 C 0.05421 0.19946 0.81132 0.0
O99 O 0.02268 0.22941 0.70639 0.0
C100 C 0.97989 0.81373 0.27733 0.0
O101 O 0.01349 0.78709 0.3843 0.0
O102 O 0.02049 0.15091 0.42881 0.0
O103 O 0.07114 0.0281 0.48767 0.0
O104 O 0.07961 0.93275 0.43544 0.0
C105 C 0.07282 0.16269 0.38545 0.0
O106 O 0.11807 0.14168 0.46578 0.0
O107 O 0.06382 0.14447 0.78638 0.0
C108 C 0.93883 0.84063 0.70639 0.0
O109 O 0.90071 0.8361 0.58723 0.0
O110 O 0.98489 0.8715 0.68983 0.0
O111 O 0.96349 0.99714 0.53379 0.0
O112 O 0.94615 0.06969 0.69678 0.0
O113 O 0.96455 0.86733 0.3016 0.0
C114 C 0.09796 0.98535 0.41829 0.0
C115 C 0.93462 0.01767 0.65308 0.0
Zn116 Zn 0.4183 0.02676 0.60499 0.0
Zn117 Zn 0.59816 0.9954 0.4912 0.0
C118 C 0.31525 0.05606 0.81166 0.0
O119 O 0.28525 0.02454 0.70685 0.0
C120 C 0.70076 0.98002 0.2774 0.0
O121 O 0.72745 0.01357 0.38428 0.0
O122 O 0.36356 0.02242 0.42909 0.0
O123 O 0.48679 0.07224 0.48778 0.0
O124 O 0.5823 0.0801 0.43572 0.0
C125 C 0.35202 0.07475 0.3856 0.0
O126 O 0.37335 0.11987 0.46562 0.0
O127 O 0.3703 0.06558 0.78664 0.0
C128 C 0.67382 0.9389 0.70665 0.0
O129 O 0.67822 0.90079 0.58753 0.0
O130 O 0.64311 0.98506 0.69003 0.0
O131 O 0.51719 0.96453 0.5341 0.0
O132 O 0.44446 0.9476 0.69702 0.0
O133 O 0.64709 0.96479 0.30176 0.0
C134 C 0.52975 0.09874 0.41839 0.0
C135 C 0.49648 0.93579 0.65339 0.0
Zn136 Zn 0.48838 0.41934 0.60486 0.0
Zn137 Zn 0.51869 0.59923 0.49127 0.0
C138 C 0.45937 0.31617 0.81134 0.0
O139 O 0.49095 0.28624 0.70645 0.0
C140 C 0.53375 0.70193 0.27764 0.0
O141 O 0.50014 0.72856 0.38459 0.0
O142 O 0.49315 0.36472 0.42891 0.0
O143 O 0.44246 0.48754 0.48768 0.0
O144 O 0.43403 0.58291 0.43563 0.0
C145 C 0.44083 0.35294 0.38547 0.0
O146 O 0.39556 0.37399 0.46564 0.0
O147 O 0.44973 0.37115 0.78639 0.0
C148 C 0.57478 0.67497 0.70672 0.0
O149 O 0.61292 0.67947 0.58758 0.0
O150 O 0.5287 0.64413 0.69016 0.0
O151 O 0.55009 0.51851 0.53415 0.0
O152 O 0.56742 0.4459 0.697 0.0
O153 O 0.5491 0.64833 0.30196 0.0
C154 C 0.41568 0.53032 0.41831 0.0
C155 C 0.57896 0.49794 0.65342 0.0
Zn156 Zn 0.09536 0.48892 0.6048 0.0
Zn157 Zn 0.91545 0.5201 0.4914 0.0
C158 C 0.19846 0.45968 0.81142 0.0
O159 O 0.22844 0.49122 0.70659 0.0
C160 C 0.81282 0.53544 0.27769 0.0
O161 O 0.78614 0.50187 0.38459 0.0
O162 O 0.15008 0.4933 0.42884 0.0
O163 O 0.0269 0.44337 0.48771 0.0
O164 O 0.93138 0.43542 0.43588 0.0
C165 C 0.16165 0.44098 0.38538 0.0
O166 O 0.14036 0.39585 0.46547 0.0
O167 O 0.14342 0.45014 0.78642 0.0
C168 C 0.83978 0.57652 0.70688 0.0
O169 O 0.83536 0.61464 0.58773 0.0
O170 O 0.87052 0.53038 0.69028 0.0
O171 O 0.99639 0.55104 0.53418 0.0
O172 O 0.06916 0.56806 0.69684 0.0
O173 O 0.86648 0.55068 0.30202 0.0
C174 C 0.98395 0.41684 0.41841 0.0
C175 C 0.01711 0.57981 0.65336 0.0
loop_
_geom_bond_atom_site_label_1
_geom_bond_atom_site_label_2
_geom_bond_distance
_geom_bond_site_symmetry_2
_ccdc_geom_bond_type
H0 C5 0.930 . S
H1 C8 0.930 . S
H2 C10 0.930 . S
H3 C4 1.016 . S
C4 H3 1.016 . S
C4 N11 1.286 1_556 S
C5 H0 0.930 . S
C5 C6 1.397 . S
C5 C7 1.361 . S
C6 C5 1.397 . S
C6 C10 1.390 . S
C7 C5 1.361 . S
C7 C8 1.393 1_554 S
C7 N11 1.413 . S
C8 H1 0.930 . S
C8 C7 1.393 1_556 S
C8 C9 1.399 . S
C9 C8 1.399 . S
C9 C10 1.381 1_556 S
C10 H2 0.930 . S
C10 C6 1.390 . S
C10 C9 1.381 1_554 S
N11 C4 1.286 1_554 S
N11 C7 1.413 . S
H12 C17 0.930 1_455 S
H13 C20 0.930 . S
H14 C22 0.930 . S
H15 C16 1.016 . S
C16 H15 1.016 . S
C16 N23 1.286 1_656 S
C17 H12 0.930 1_655 S
C17 C18 1.397 . S
C17 C19 1.361 . S
C18 C17 1.397 . S
C18 C22 1.390 . S
C19 C17 1.361 . S
C19 C20 1.393 1_554 S
C19 N23 1.413 1_655 S
C20 H13 0.930 . S
C20 C19 1.393 1_556 S
C20 C21 1.399 . S
C21 C20 1.399 . S
C21 C22 1.381 1_556 S
C22 H14 0.930 . S
C22 C18 1.390 . S
C22 C21 1.381 1_554 S
N23 C16 1.286 1_454 S
N23 C19 1.413 1_455 S
H24 C29 0.930 1_545 S
H25 C32 0.930 . S
H26 C34 0.930 . S
H27 C28 1.016 . S
C28 H27 1.016 . S
C28 N35 1.286 1_566 S
C29 H24 0.930 1_565 S
C29 C30 1.397 . S
C29 C31 1.362 . S
C30 C29 1.397 . S
C30 C34 1.390 . S
C31 C29 1.362 . S
C31 C32 1.395 1_554 S
C31 N35 1.410 1_565 S
C32 H25 0.930 . S
C32 C31 1.395 1_556 S
C32 C33 1.399 . S
C33 C32 1.399 . S
C33 C34 1.381 1_556 S
C34 H26 0.930 . S
C34 C30 1.390 . S
C34 C33 1.381 1_554 S
N35 C28 1.286 1_544 S
N35 C31 1.410 1_545 S
H36 C41 0.930 . S
H37 C44 0.930 . S
H38 C46 0.930 . S
H39 C40 1.016 . S
C40 H39 1.016 . S
C40 N47 1.286 1_556 S
C41 H36 0.930 . S
C41 C42 1.397 . S
C41 C43 1.361 . S
C42 C41 1.397 . S
C42 C46 1.390 . S
C43 C41 1.361 . S
C43 C44 1.393 1_554 S
C43 N47 1.413 . S
C44 H37 0.930 . S
C44 C43 1.393 1_556 S
C44 C45 1.399 . S
C45 C44 1.399 . S
C45 C46 1.381 1_556 S
C46 H38 0.930 . S
C46 C42 1.390 . S
C46 C45 1.381 1_554 S
N47 C40 1.286 1_554 S
N47 C43 1.413 . S
H48 C53 0.930 . S
H49 C56 0.930 . S
H50 C58 0.930 . S
H51 C52 1.016 . S
C52 H51 1.016 . S
C52 N59 1.286 . S
C53 H48 0.930 . S
C53 C54 1.397 . S
C53 C55 1.361 1_556 S
C54 C53 1.397 . S
C54 C58 1.390 1_556 S
C55 C53 1.361 1_554 S
C55 C56 1.393 . S
C55 N59 1.413 . S
C56 H49 0.930 . S
C56 C55 1.393 . S
C56 C57 1.399 . S
C57 C56 1.399 . S
C57 C58 1.381 . S
C58 H50 0.930 . S
C58 C54 1.390 1_554 S
C58 C57 1.381 . S
N59 C52 1.286 . S
N59 C55 1.413 . S
H60 C65 0.930 . S
H61 C68 0.930 . S
H62 C70 0.930 . S
H63 C64 1.016 . S
C64 H63 1.016 . S
C64 N71 1.286 . S
C65 H60 0.930 . S
C65 C66 1.397 . S
C65 C67 1.361 1_556 S
C66 C65 1.397 . S
C66 C70 1.390 1_556 S
C67 C65 1.361 1_554 S
C67 C68 1.393 . S
C67 N71 1.413 . S
C68 H61 0.930 . S
C68 C67 1.393 . S
C68 C69 1.399 . S
C69 C68 1.399 . S
C69 C70 1.381 . S
C70 H62 0.930 . S
C70 C66 1.390 1_554 S
C70 C69 1.381 . S
N71 C64 1.286 . S
N71 C67 1.413 . S
H72 C77 0.930 . S
H73 C80 0.930 . S
H74 C82 0.930 . S
H75 C76 1.016 . S
C76 H75 1.016 . S
C76 N83 1.286 . S
C77 H72 0.930 . S
C77 C78 1.397 . S
C77 C79 1.361 1_556 S
C78 C77 1.397 . S
C78 C82 1.390 1_556 S
C79 C77 1.361 1_554 S
C79 C80 1.393 . S
C79 N83 1.413 . S
C80 H73 0.930 . S
C80 C79 1.393 . S
C80 C81 1.399 . S
C81 C80 1.399 . S
C81 C82 1.381 . S
C82 H74 0.930 . S
C82 C78 1.390 1_554 S
C82 C81 1.381 . S
N83 C76 1.286 . S
N83 C79 1.413 . S
H84 C89 0.930 . S
H85 C92 0.930 . S
H86 C94 0.930 . S
H87 C88 1.016 . S
C88 H87 1.016 . S
C88 N95 1.286 . S
C89 H84 0.930 . S
C89 C90 1.397 . S
C89 C91 1.361 1_556 S
C90 C89 1.397 . S
C90 C94 1.390 1_556 S
C91 C89 1.361 1_554 S
C91 C92 1.393 . S
C91 N95 1.413 . S
C92 H85 0.930 . S
C92 C91 1.393 . S
C92 C93 1.399 . S
C93 C92 1.399 . S
C93 C94 1.381 . S
C94 H86 0.930 . S
C94 C90 1.390 1_554 S
C94 C93 1.381 . S
N95 C88 1.286 . S
N95 C91 1.413 . S
Zn96 O102 1.969 1_455 S
Zn96 O103 1.965 . S
Zn96 O107 2.024 . S
Zn96 O112 1.969 1_455 S
Zn97 O104 1.969 . S
Zn97 O110 1.969 . S
Zn97 O111 1.965 1_455 S
Zn97 O113 2.024 1_455 S
C98 O99 1.229 1_455 S
C98 O107 1.058 . S
O99 C98 1.229 1_655 S
C100 O101 1.229 1_655 S
C100 O113 1.058 . S
O101 C100 1.229 1_455 S
O102 Zn96 1.969 1_655 S
O102 C105 1.272 . S
O103 Zn96 1.965 . S
O103 C114 1.260 . S
O104 Zn97 1.969 . S
O104 C114 1.258 1_565 S
C105 O102 1.272 . S
C105 O106 1.221 1_655 S
O106 C105 1.221 1_455 S
O107 Zn96 2.024 . S
O107 C98 1.058 . S
C108 O109 1.228 1_455 S
C108 O110 1.267 . S
O109 C108 1.228 1_655 S
O110 Zn97 1.969 . S
O110 C108 1.267 . S
O111 Zn97 1.965 1_655 S
O111 C115 1.260 1_565 S
O112 Zn96 1.969 1_655 S
O112 C115 1.258 . S
O113 Zn97 2.024 1_655 S
O113 C100 1.058 . S
C114 O103 1.260 . S
C114 O104 1.258 1_545 S
C115 O111 1.260 1_545 S
C115 O112 1.258 . S
Zn116 O122 1.969 1_545 S
Zn116 O123 1.965 . S
Zn116 O127 2.024 . S
Zn116 O132 1.969 1_545 S
Zn117 O124 1.969 . S
Zn117 O130 1.969 . S
Zn117 O131 1.965 1_545 S
Zn117 O133 2.024 1_545 S
C118 O119 1.229 1_545 S
C118 O127 1.058 . S
O119 C118 1.229 1_565 S
C120 O121 1.229 1_565 S
C120 O133 1.058 . S
O121 C120 1.229 1_545 S
O122 Zn116 1.969 1_565 S
O122 C125 1.267 1_565 S
O123 Zn116 1.965 . S
O123 C134 1.260 . S
O124 Zn117 1.969 . S
O124 C134 1.258 . S
C125 O122 1.267 1_545 S
C125 O126 1.228 . S
O126 C125 1.228 . S
O127 Zn116 2.024 . S
O127 C118 1.058 . S
C128 O129 1.228 1_545 S
C128 O130 1.267 . S
O129 C128 1.228 1_565 S
O130 Zn117 1.969 . S
O130 C128 1.267 . S
O131 Zn117 1.965 1_565 S
O131 C135 1.260 . S
O132 Zn116 1.969 1_565 S
O132 C135 1.258 . S
O133 Zn117 2.024 1_565 S
O133 C120 1.058 . S
C134 O123 1.260 . S
C134 O124 1.258 . S
C135 O131 1.260 . S
C135 O132 1.258 . S
Zn136 O142 1.969 . S
Zn136 O143 1.965 . S
Zn136 O147 2.024 . S
Zn136 O152 1.969 . S
Zn137 O144 1.969 . S
Zn137 O150 1.969 . S
Zn137 O151 1.965 . S
Zn137 O153 2.024 . S
C138 O139 1.229 . S
C138 O147 1.058 . S
O139 C138 1.229 . S
C140 O141 1.229 . S
C140 O153 1.058 . S
O141 C140 1.229 . S
O142 Zn136 1.969 . S
O142 C145 1.267 . S
O143 Zn136 1.965 . S
O143 C154 1.260 . S
O144 Zn137 1.969 . S
O144 C154 1.258 . S
C145 O142 1.267 . S
C145 O146 1.228 . S
O146 C145 1.228 . S
O147 Zn136 2.024 . S
O147 C138 1.058 . S
C148 O149 1.228 . S
C148 O150 1.267 . S
O149 C148 1.228 . S
O150 Zn137 1.969 . S
O150 C148 1.267 . S
O151 Zn137 1.965 . S
O151 C155 1.260 . S
O152 Zn136 1.969 . S
O152 C155 1.258 . S
O153 Zn137 2.024 . S
O153 C140 1.058 . S
C154 O143 1.260 . S
C154 O144 1.258 . S
C155 O151 1.260 . S
C155 O152 1.258 . S
Zn156 O162 1.969 . S
Zn156 O163 1.965 . S
Zn156 O167 2.024 . S
Zn156 O172 1.969 . S
Zn157 O164 1.969 . S
Zn157 O170 1.969 . S
Zn157 O171 1.965 . S
Zn157 O173 2.024 . S
C158 O159 1.229 . S
C158 O167 1.058 . S
O159 C158 1.229 . S
C160 O161 1.229 . S
C160 O173 1.058 . S
O161 C160 1.229 . S
O162 Zn156 1.969 . S
O162 C165 1.267 . S
O163 Zn156 1.965 . S
O163 C174 1.267 . S
O164 Zn157 1.969 . S
O164 C174 1.247 1_655 S
C165 O162 1.267 . S
C165 O166 1.228 . S
O166 C165 1.228 . S
O167 Zn156 2.024 . S
O167 C158 1.058 . S
C168 O169 1.228 . S
C168 O170 1.267 . S
O169 C168 1.228 . S
O170 Zn157 1.969 . S
O170 C168 1.267 . S
O171 Zn157 1.965 . S
O171 C175 1.260 1_655 S
O172 Zn156 1.969 . S
O172 C175 1.258 . S
O173 Zn157 2.024 . S
O173 C160 1.058 . S
C174 O163 1.267 . S
C174 O164 1.247 1_455 S
C175 O171 1.260 1_455 S
C175 O172 1.258 . S
C76 C114 1.716 . S
C134 C88 1.711 . S
C154 C52 1.716 . S
C174 C64 1.715 . S
C115 C28 1.743 1_545 S
C40 C135 1.738 . S
C4 C155 1.743 . S
C16 C175 1.737 1_655 S
C105 C69 0.939 1_655 S
C125 C81 0.949 . S
C145 C93 0.944 . S
C57 C165 0.948 . S
C21 C108 0.903 1_655 S
C128 C33 0.907 1_545 S
C148 C45 0.904 . S
C9 C168 0.908 . S
C66 C98 1.438 . S
C78 C118 1.439 . S
C138 C90 1.438 . S
C158 C54 1.439 . S
C18 C100 1.443 . S
C120 C30 1.443 . S
C140 C42 1.443 . S
C6 C160 1.443 . S
