# Generated by pormake.
# Topology sit, (3,6)-cn, num edge types: 1
# Building blocks:
#     Node 0, Type 0, BuildingBlock: PAMTOO_clean_linker_0, # of connection points: 3
#     Node 1, Type 0, BuildingBlock: PAMTOO_clean_linker_0, # of connection points: 3
#     Node 2, Type 0, BuildingBlock: PAMTOO_clean_linker_0, # of connection points: 3
#     Node 3, Type 0, BuildingBlock: PAMTOO_clean_linker_0, # of connection points: 3
#     Node 4, Type 1, BuildingBlock: MIDCAF_clean_sbu_0, # of connection points: 6
#     Node 5, Type 1, BuildingBlock: MIDCAF_clean_sbu_0, # of connection points: 6
#     Edge 6, Type (0, 1), None
#     Edge 7, Type (0, 1), None
#     Edge 8, Type (0, 1), None
#     Edge 9, Type (0, 1), None
#     Edge 10, Type (0, 1), None
#     Edge 11, Type (0, 1), None
#     Edge 12, Type (0, 1), None
#     Edge 13, Type (0, 1), None
#     Edge 14, Type (0, 1), None
#     Edge 15, Type (0, 1), None
#     Edge 16, Type (0, 1), None
#     Edge 17, Type (0, 1), None
# Relax obj value: 0.075
# Max RMSD: 0.178
# Mean RMSD: 0.104
data_MOF--net-sit--node1-MIDCAF_clean_sbu_0--node2-PAMTOO_clean_linker_0--edge1-none
_symmetry_space_group_name_H-M    P1
_symmetry_Int_Tables_number       1
_symmetry_cell_setting            triclinic
loop_
_symmetry_equiv_pos_as_xyz
'x, y, z'
_cell_length_a     9.5207296
_cell_length_b     12.499587
_cell_length_c     19.507958
_cell_angle_alpha  90.061472
_cell_angle_beta   89.973979
_cell_angle_gamma 90.173157
loop_
_atom_site_label
_atom_site_type_symbol
_atom_site_fract_x
_atom_site_fract_y
_atom_site_fract_z
_atom_type_partial_charge
H0 H 0.04424 0.5206 0.83775 0.0
H1 H 0.26246 0.3269 -0.01691 0.0
H2 H 0.81534 0.35907 -0.00251 0.0
H3 H 0.20946 0.32334 0.10057 0.0
C4 C 0.13309 0.25566 0.10124 0.0
O5 O 0.03428 0.26458 0.04967 0.0
H6 H 0.19455 0.18147 0.09236 0.0
C7 C 0.04351 0.47792 0.88596 0.0
C8 C 0.91515 0.44948 0.91634 0.0
C9 C 0.1698 0.43786 0.91215 0.0
C10 C 0.16612 0.36511 -0.03328 0.0
C11 C 0.03928 0.34064 3e-05 0.0
C12 C 0.91428 0.38438 -0.02485 0.0
H13 H 0.0341 0.69915 0.83574 0.0
H14 H 0.81499 0.89056 -0.01754 0.0
H15 H 0.26237 0.8589 -0.00341 0.0
H16 H 0.87042 0.888 0.10088 0.0
C17 C 0.94375 0.95763 0.10177 0.0
O18 O 0.04258 0.95156 0.04997 0.0
H19 H 0.87896 1.03024 0.09331 0.0
C20 C 0.03466 0.74155 0.88413 0.0
C21 C 0.16287 0.76963 0.91474 0.0
C22 C 0.90824 0.78105 0.91058 0.0
C23 C 0.91156 0.85305 -0.03435 0.0
C24 C 0.03829 0.87715 -0.00082 0.0
C25 C 0.16353 0.83404 -0.02605 0.0
H26 H 0.54332 1.02007 0.33736 0.0
H27 H 0.7618 0.82613 0.48247 0.0
H28 H 0.3146 0.85808 0.49697 0.0
H29 H 0.70966 0.82157 0.59974 0.0
C30 C 0.63272 0.75427 0.60055 0.0
O31 O 0.53362 0.76366 0.54914 0.0
H32 H 0.69348 0.67977 0.59159 0.0
C33 C 0.54264 0.97723 0.38552 0.0
C34 C 0.41432 0.94866 0.41587 0.0
C35 C 0.66898 0.93718 0.41165 0.0
C36 C 0.6654 0.86432 0.46617 0.0
C37 C 0.53859 0.83978 0.49952 0.0
C38 C 0.41352 0.88346 0.47464 0.0
H39 H 0.53328 0.19866 0.33614 0.0
H40 H 0.31402 0.3899 0.48297 0.0
H41 H 0.76143 0.35875 0.49692 0.0
H42 H 0.37375 0.38313 0.60212 0.0
C43 C 0.44336 0.45498 0.60279 0.0
O44 O 0.54119 0.4509 0.55045 0.0
H45 H 0.37678 0.52673 0.59461 0.0
C46 C 0.53382 0.2411 0.3845 0.0
C47 C 0.66201 0.26931 0.41509 0.0
C48 C 0.40736 0.28056 0.41095 0.0
C49 C 0.41063 0.35259 0.466 0.0
C50 C 0.53734 0.37688 0.49944 0.0
C51 C 0.66264 0.33384 0.47425 0.0
Zn52 Zn 0.02917 0.3229 0.30374 0.0
Zn53 Zn 0.04757 0.89419 0.30453 0.0
Zn54 Zn 0.03824 0.10832 0.30974 0.0
C55 C 0.00831 0.96249 0.17147 0.0
C56 C 0.8022 0.95515 0.37534 0.0
O57 O 0.2308 0.16717 0.36047 0.0
O58 O 0.20266 0.34329 0.35829 0.0
C59 C 0.0686 0.25211 0.17097 0.0
O60 O 0.01479 1.0529 0.20312 0.0
O61 O 0.02896 0.87601 0.20327 0.0
O62 O 0.87386 0.87421 0.35904 0.0
O63 O 0.84553 1.05028 0.36081 0.0
O64 O 0.04841 0.33913 0.20236 0.0
O65 O 0.06167 0.16218 0.20302 0.0
O66 O 0.84671 0.16385 0.36461 0.0
O67 O 0.84974 0.34034 0.35287 0.0
C68 C 0.79293 0.25666 0.37626 0.0
O69 O 0.22988 1.05368 0.36485 0.0
O70 O 0.22667 0.87707 0.35384 0.0
C71 C 0.27419 0.26242 0.37474 0.0
C72 C 0.28357 0.96101 0.37689 0.0
Zn73 Zn 0.53004 0.82313 0.80319 0.0
Zn74 Zn 0.54836 0.39465 0.8055 0.0
Zn75 Zn 0.53909 0.60829 0.80961 0.0
C76 C 0.5102 0.46107 0.67195 0.0
C77 C 0.30307 0.45557 0.87584 0.0
O78 O 0.73157 0.66759 0.86025 0.0
O79 O 0.70369 0.84373 0.85768 0.0
C80 C 0.56877 0.75112 0.67044 0.0
O81 O 0.51606 0.55188 0.70314 0.0
O82 O 0.52959 0.37509 0.70448 0.0
O83 O 0.37495 0.37454 0.86003 0.0
O84 O 0.34628 0.55057 0.86085 0.0
O85 O 0.54889 0.83833 0.70167 0.0
O86 O 0.56206 0.66138 0.7027 0.0
O87 O 0.34756 0.66409 0.86434 0.0
O88 O 0.35059 0.84055 0.85241 0.0
C89 C 0.29378 0.75693 0.8759 0.0
O90 O 0.73086 0.55417 0.86489 0.0
O91 O 0.72735 0.37745 0.85469 0.0
C92 C 0.77508 0.76289 0.87434 0.0
C93 C 0.78445 0.46157 0.87732 0.0
loop_
_geom_bond_atom_site_label_1
_geom_bond_atom_site_label_2
_geom_bond_distance
_geom_bond_site_symmetry_2
_ccdc_geom_bond_type
H0 C7 0.929 . S
H1 C10 0.930 . S
H2 C12 0.929 . S
H3 C4 0.969 . S
C4 H3 0.969 . S
C4 O5 1.550 . S
C4 H6 0.973 . S
O5 C4 1.550 . S
O5 C11 1.412 . S
H6 C4 0.973 . S
C7 H0 0.929 . S
C7 C8 1.399 1_455 S
C7 C9 1.364 . S
C8 C7 1.399 1_655 S
C8 C12 1.377 1_556 S
C9 C7 1.364 . S
C9 C10 1.374 1_556 S
C10 H1 0.930 . S
C10 C9 1.374 1_554 S
C10 C11 1.383 . S
C11 O5 1.412 . S
C11 C10 1.383 . S
C11 C12 1.394 1_455 S
C12 H2 0.929 . S
C12 C8 1.377 1_554 S
C12 C11 1.394 1_655 S
H13 C20 0.929 . S
H14 C23 0.930 . S
H15 C25 0.929 . S
H16 C17 0.969 . S
C17 H16 0.969 . S
C17 O18 1.550 1_655 S
C17 H19 0.973 . S
O18 C17 1.550 1_455 S
O18 C24 1.412 . S
H19 C17 0.973 . S
C20 H13 0.929 . S
C20 C21 1.400 . S
C20 C22 1.364 1_455 S
C21 C20 1.400 . S
C21 C25 1.377 1_556 S
C22 C20 1.364 1_655 S
C22 C23 1.374 1_556 S
C23 H14 0.930 . S
C23 C22 1.374 1_554 S
C23 C24 1.383 1_655 S
C24 O18 1.412 . S
C24 C23 1.383 1_455 S
C24 C25 1.394 . S
C25 H15 0.929 . S
C25 C21 1.377 1_554 S
C25 C24 1.394 . S
H26 C33 0.929 . S
H27 C36 0.930 . S
H28 C38 0.929 . S
H29 C30 0.969 . S
C30 H29 0.969 . S
C30 O31 1.550 . S
C30 H32 0.973 . S
O31 C30 1.550 . S
O31 C37 1.412 . S
H32 C30 0.973 . S
C33 H26 0.929 . S
C33 C34 1.400 . S
C33 C35 1.364 . S
C34 C33 1.400 . S
C34 C38 1.377 . S
C35 C33 1.364 . S
C35 C36 1.374 . S
C36 H27 0.930 . S
C36 C35 1.374 . S
C36 C37 1.383 . S
C37 O31 1.412 . S
C37 C36 1.383 . S
C37 C38 1.394 . S
C38 H28 0.929 . S
C38 C34 1.377 . S
C38 C37 1.394 . S
H39 C46 0.929 . S
H40 C49 0.930 . S
H41 C51 0.929 . S
H42 C43 0.969 . S
C43 H42 0.969 . S
C43 O44 1.550 . S
C43 H45 0.973 . S
O44 C43 1.550 . S
O44 C50 1.412 . S
H45 C43 0.973 . S
C46 H39 0.929 . S
C46 C47 1.400 . S
C46 C48 1.364 . S
C47 C46 1.400 . S
C47 C51 1.377 . S
C48 C46 1.364 . S
C48 C49 1.374 . S
C49 H40 0.930 . S
C49 C48 1.374 . S
C49 C50 1.383 . S
C50 O44 1.412 . S
C50 C49 1.383 . S
C50 C51 1.394 . S
C51 H41 0.929 . S
C51 C47 1.377 . S
C51 C50 1.394 . S
Zn52 O58 1.920 . S
Zn52 O64 1.898 . S
Zn52 O67 1.905 1_455 S
Zn53 O61 1.905 . S
Zn53 O62 1.898 1_455 S
Zn53 O70 1.920 . S
Zn54 O57 2.080 . S
Zn54 O60 2.114 1_445 S
Zn54 O63 2.120 1_445 S
Zn54 O65 2.120 . S
Zn54 O66 2.114 1_455 S
Zn54 O69 2.080 1_545 S
C55 O60 1.166 1_455 S
C55 O61 1.182 . S
C56 O62 1.167 . S
C56 O63 1.299 . S
O57 Zn54 2.080 . S
O57 C71 1.305 . S
O58 Zn52 1.920 . S
O58 C71 1.234 . S
C59 O64 1.167 . S
C59 O65 1.299 . S
O60 Zn54 2.114 1_665 S
O60 C55 1.166 1_655 S
O61 Zn53 1.905 . S
O61 C55 1.182 . S
O62 Zn53 1.898 1_655 S
O62 C56 1.167 . S
O63 Zn54 2.120 1_665 S
O63 C56 1.299 . S
O64 Zn52 1.898 . S
O64 C59 1.167 . S
O65 Zn54 2.120 . S
O65 C59 1.299 . S
O66 Zn54 2.114 1_655 S
O66 C68 1.166 . S
O67 Zn52 1.905 1_655 S
O67 C68 1.182 . S
C68 O66 1.166 . S
C68 O67 1.182 . S
O69 Zn54 2.080 1_565 S
O69 C72 1.305 . S
O70 Zn53 1.920 . S
O70 C72 1.234 . S
C71 O57 1.305 . S
C71 O58 1.234 . S
C72 O69 1.305 . S
C72 O70 1.234 . S
Zn73 O79 1.920 . S
Zn73 O85 1.898 . S
Zn73 O88 1.905 . S
Zn74 O82 1.905 . S
Zn74 O83 1.898 . S
Zn74 O91 1.920 . S
Zn75 O78 2.080 . S
Zn75 O81 2.114 . S
Zn75 O84 2.120 . S
Zn75 O86 2.120 . S
Zn75 O87 2.114 . S
Zn75 O90 2.080 . S
C76 O81 1.166 . S
C76 O82 1.182 . S
C77 O83 1.167 . S
C77 O84 1.299 . S
O78 Zn75 2.080 . S
O78 C92 1.305 . S
O79 Zn73 1.920 . S
O79 C92 1.234 . S
C80 O85 1.167 . S
C80 O86 1.299 . S
O81 Zn75 2.114 . S
O81 C76 1.166 . S
O82 Zn74 1.905 . S
O82 C76 1.182 . S
O83 Zn74 1.898 . S
O83 C77 1.167 . S
O84 Zn75 2.120 . S
O84 C77 1.299 . S
O85 Zn73 1.898 . S
O85 C80 1.167 . S
O86 Zn75 2.120 . S
O86 C80 1.299 . S
O87 Zn75 2.114 . S
O87 C89 1.166 . S
O88 Zn73 1.905 . S
O88 C89 1.182 . S
C89 O87 1.166 . S
C89 O88 1.182 . S
O90 Zn75 2.080 . S
O90 C93 1.305 . S
O91 Zn74 1.920 . S
O91 C93 1.234 . S
C92 O78 1.305 . S
C92 O79 1.234 . S
C93 O90 1.305 . S
C93 O91 1.234 . S
C59 C4 1.455 . S
C55 C17 1.474 1_455 S
C80 C30 1.455 . S
C43 C76 1.473 . S
C9 C77 1.271 . S
C92 C22 1.313 . S
C8 C93 1.617 . S
C89 C21 1.655 . S
C56 C35 1.271 . S
C48 C71 1.313 . S
C72 C34 1.617 . S
C68 C47 1.655 . S
