# Generated by pormake.
# Topology rtl, (3,6)-cn, num edge types: 1
# Building blocks:
#     Node 0, Type 0, BuildingBlock: QEWDON_clean_linker_0, # of connection points: 3
#     Node 1, Type 0, BuildingBlock: QEWDON_clean_linker_0, # of connection points: 3
#     Node 2, Type 0, BuildingBlock: QEWDON_clean_linker_0, # of connection points: 3
#     Node 3, Type 0, BuildingBlock: QEWDON_clean_linker_0, # of connection points: 3
#     Node 4, Type 1, BuildingBlock: LEVNOQ01_clean_sbu_1, # of connection points: 6
#     Node 5, Type 1, BuildingBlock: LEVNOQ01_clean_sbu_1, # of connection points: 6
#     Edge 6, Type (0, 1), BuildingBlock: EYOCIG_clean_linker_4, # of connection points: 2
#     Edge 7, Type (0, 1), BuildingBlock: EYOCIG_clean_linker_4, # of connection points: 2
#     Edge 8, Type (0, 1), BuildingBlock: EYOCIG_clean_linker_4, # of connection points: 2
#     Edge 9, Type (0, 1), BuildingBlock: EYOCIG_clean_linker_4, # of connection points: 2
#     Edge 10, Type (0, 1), BuildingBlock: EYOCIG_clean_linker_4, # of connection points: 2
#     Edge 11, Type (0, 1), BuildingBlock: EYOCIG_clean_linker_4, # of connection points: 2
#     Edge 12, Type (0, 1), BuildingBlock: EYOCIG_clean_linker_4, # of connection points: 2
#     Edge 13, Type (0, 1), BuildingBlock: EYOCIG_clean_linker_4, # of connection points: 2
#     Edge 14, Type (0, 1), BuildingBlock: EYOCIG_clean_linker_4, # of connection points: 2
#     Edge 15, Type (0, 1), BuildingBlock: EYOCIG_clean_linker_4, # of connection points: 2
#     Edge 16, Type (0, 1), BuildingBlock: EYOCIG_clean_linker_4, # of connection points: 2
#     Edge 17, Type (0, 1), BuildingBlock: EYOCIG_clean_linker_4, # of connection points: 2
# Relax obj value: 0.038
# Max RMSD: 0.169
# Mean RMSD: 0.133
data_MOF--net-rtl--node1-LEVNOQ01_clean_sbu_1--node2-QEWDON_clean_linker_0--edge1-EYOCIG_clean_linker_4
_symmetry_space_group_name_H-M    P1
_symmetry_Int_Tables_number       1
_symmetry_cell_setting            triclinic
loop_
_symmetry_equiv_pos_as_xyz
'x, y, z'
_cell_length_a     30.651026
_cell_length_b     30.469965
_cell_length_c     17.331558
_cell_angle_alpha  91.838397
_cell_angle_beta   99.729231
_cell_angle_gamma 89.886383
loop_
_atom_site_label
_atom_site_type_symbol
_atom_site_fract_x
_atom_site_fract_y
_atom_site_fract_z
_atom_type_partial_charge
H0 H 0.22968 0.83634 0.19009 0.0
C1 C 0.2093 0.84602 0.13604 0.0
C2 C 0.17147 0.87232 0.13848 0.0
C3 C 0.22177 0.83417 0.06326 0.0
H4 H 0.11719 0.90647 0.06975 0.0
C5 C 0.14595 0.88581 0.06827 0.0
C6 C 0.15759 0.87322 0.99619 0.0
C7 C 0.19504 0.84749 0.99388 0.0
C8 C 0.26428 0.81151 0.05716 0.0
H9 H 0.20388 0.83841 0.93747 0.0
C10 C 0.27751 0.77264 0.09705 0.0
C11 C 0.31648 0.75095 0.08406 0.0
C12 C 0.29105 0.82827 0.00621 0.0
H13 H 0.28214 0.85823 0.97541 0.0
C14 C 0.32942 0.80667 0.99377 0.0
H15 H 0.25709 0.75876 0.13548 0.0
C16 C 0.34196 0.76813 0.03211 0.0
H17 H 0.37171 0.75154 0.02087 0.0
H18 H 0.34937 0.81972 0.95387 0.0
H19 H 0.70103 0.71795 0.48518 0.0
C20 C 0.68642 0.70486 0.53243 0.0
C21 C 0.64962 0.67669 0.51496 0.0
C22 C 0.70584 0.71385 0.61084 0.0
H23 H 0.60516 0.63367 0.56151 0.0
C24 C 0.63247 0.6568 0.57535 0.0
C25 C 0.65144 0.66563 0.65345 0.0
C26 C 0.68676 0.69522 0.67092 0.0
C27 C 0.7488 0.73789 0.63138 0.0
H28 H 0.70065 0.70223 0.73183 0.0
C29 C 0.75903 0.77563 0.59202 0.0
C30 C 0.79991 0.79739 0.61667 0.0
C31 C 0.7806 0.72221 0.69267 0.0
H32 H 0.77472 0.69274 0.72269 0.0
C33 C 0.82079 0.74376 0.71591 0.0
H34 H 0.73537 0.78833 0.54437 0.0
C35 C 0.83042 0.78108 0.67818 0.0
H36 H 0.86195 0.79743 0.69744 0.0
H37 H 0.84464 0.73141 0.76347 0.0
H38 H 0.80772 0.21518 0.0943 0.0
C39 C 0.82308 0.20233 0.04639 0.0
C40 C 0.85986 0.17434 0.06174 0.0
C41 C 0.80467 0.21137 0.96848 0.0
H42 H 0.90459 0.13151 0.01114 0.0
C43 C 0.8776 0.15479 0.99958 0.0
C44 C 0.85935 0.16395 0.92241 0.0
C45 C 0.82454 0.19349 0.90731 0.0
C46 C 0.76183 0.23445 0.94808 0.0
H47 H 0.81114 0.20055 0.84697 0.0
C48 C 0.75237 0.27401 0.98627 0.0
C49 C 0.71249 0.29591 0.95963 0.0
C50 C 0.73029 0.21698 0.88598 0.0
H51 H 0.73618 0.1863 0.8562 0.0
C52 C 0.69076 0.23868 0.86109 0.0
H53 H 0.77615 0.28819 0.03395 0.0
C54 C 0.68183 0.27795 0.89781 0.0
H55 H 0.65099 0.29466 0.87719 0.0
H56 H 0.66709 0.22513 0.81281 0.0
H57 H 0.3078 0.31349 0.59566 0.0
C58 C 0.31651 0.33235 0.54844 0.0
C59 C 0.34497 0.36871 0.56559 0.0
C60 C 0.30198 0.31853 0.47013 0.0
H61 H 0.38047 0.41965 0.51796 0.0
C62 C 0.35772 0.39214 0.5046 0.0
C63 C 0.34283 0.37894 0.42651 0.0
C64 C 0.31487 0.34246 0.40953 0.0
C65 C 0.27864 0.27607 0.45065 0.0
H66 H 0.30448 0.33159 0.34899 0.0
C67 C 0.23917 0.26592 0.47809 0.0
C68 C 0.21718 0.22612 0.4534 0.0
C69 C 0.29594 0.24555 0.40119 0.0
H70 H 0.32624 0.25252 0.37948 0.0
C71 C 0.27463 0.20569 0.37939 0.0
H72 H 0.2251 0.2892 0.51562 0.0
C73 C 0.2355 0.19595 0.40553 0.0
H74 H 0.21897 0.16501 0.38692 0.0
H75 H 0.28821 0.18247 0.34133 0.0
O76 O 0.99543 0.08796 0.69651 0.0
Mg77 Mg 0.05748 0.07091 0.67124 0.0
O78 O 0.95609 0.04733 0.59997 0.0
Mg79 Mg 0.00345 0.01643 0.52016 0.0
O80 O 0.05361 0.07268 0.55376 0.0
O81 O 0.09761 0.11718 0.63766 0.0
O82 O 0.05208 0.98333 0.43975 0.0
O83 O 0.97139 0.06287 0.42182 0.0
Mg84 Mg 0.95162 0.96296 0.36821 0.0
O85 O 0.94828 0.96438 0.48525 0.0
O86 O 0.01336 0.93947 0.34784 0.0
O87 O 0.93196 0.02445 0.32285 0.0
O88 O 0.90535 0.92101 0.39787 0.0
C89 C 0.06502 0.97434 0.68556 0.0
C90 C 0.95891 0.07291 0.66053 0.0
C91 C 0.08152 0.10505 0.56667 0.0
C92 C 0.04998 0.9551 0.38248 0.0
C93 C 0.9459 0.0607 0.35551 0.0
C94 C 0.917 0.9352 0.46915 0.0
O95 O 0.08165 0.01083 0.71205 0.0
O96 O 0.03636 0.97081 0.62254 0.0
O97 O 0.57487 0.52889 0.23915 0.0
Mg98 Mg 0.55374 0.47067 0.17945 0.0
O99 O 0.5392 0.56624 0.14106 0.0
Mg100 Mg 0.504 0.51755 0.04425 0.0
O101 O 0.56059 0.46582 0.06205 0.0
O102 O 0.60599 0.43518 0.16286 0.0
O103 O 0.46684 0.47164 0.94218 0.0
O104 O 0.54937 0.5474 0.96035 0.0
Mg105 Mg 0.44891 0.57443 0.90498 0.0
O106 O 0.45212 0.57176 0.02312 0.0
O107 O 0.42539 0.51339 0.85491 0.0
O108 O 0.51034 0.59341 0.87879 0.0
O109 O 0.40823 0.61855 0.95123 0.0
C110 C 0.4608 0.45955 0.18218 0.0
C111 C 0.56353 0.56484 0.20805 0.0
C112 C 0.59376 0.44079 0.08898 0.0
C113 C 0.43893 0.47612 0.87904 0.0
C114 C 0.54654 0.5752 0.90591 0.0
C115 C 0.4227 0.60249 0.01859 0.0
O116 O 0.49725 0.44214 0.21022 0.0
O117 O 0.45835 0.48738 0.12786 0.0
C118 C 0.14201 0.19423 0.47576 0.0
C119 C 0.175 0.21484 0.47246 0.0
C120 C 0.111 0.16119 0.48181 0.0
C121 C 0.09239 0.13138 0.50629 0.0
C122 C 0.35291 0.67712 0.13182 0.0
C123 C 0.33096 0.70986 0.11885 0.0
C124 C 0.38241 0.64286 0.11966 0.0
C125 C 0.40509 0.61971 0.08496 0.0
C126 C 0.8337 0.86793 0.5676 0.0
C127 C 0.81271 0.83669 0.58213 0.0
C128 C 0.86509 0.89896 0.55233 0.0
C129 C 0.89232 0.91964 0.52596 0.0
C130 C 0.68147 0.37019 0.00327 0.0
C131 C 0.70147 0.33745 0.99171 0.0
C132 C 0.6497 0.40176 0.01447 0.0
C133 C 0.62093 0.42215 0.03792 0.0
C134 C 0.14151 0.90337 0.2644 0.0
C135 C 0.15837 0.88731 0.21162 0.0
C136 C 0.11601 0.92392 0.31685 0.0
C137 C 0.08915 0.9407 0.35262 0.0
C138 C 0.62457 0.62289 0.76805 0.0
C139 C 0.63678 0.64233 0.71581 0.0
C140 C 0.60648 0.60122 0.82652 0.0
C141 C 0.58382 0.58568 0.86944 0.0
C142 C 0.8957 0.14902 0.20234 0.0
C143 C 0.87756 0.16228 0.1404 0.0
C144 C 0.9167 0.12622 0.26774 0.0
C145 C 0.93256 0.09974 0.31436 0.0
C146 C 0.38223 0.39375 0.70896 0.0
C147 C 0.36401 0.38051 0.64535 0.0
C148 C 0.40481 0.41456 0.7782 0.0
C149 C 0.423 0.4388 0.83002 0.0
C150 C 0.61336 0.6527 0.37102 0.0
C151 C 0.63134 0.66505 0.43509 0.0
C152 C 0.59294 0.63058 0.30198 0.0
C153 C 0.5772 0.60415 0.25223 0.0
C154 C 0.88317 0.12134 0.80154 0.0
C155 C 0.87297 0.14027 0.8577 0.0
C156 C 0.89875 0.09995 0.73857 0.0
C157 C 0.92083 0.08415 0.69393 0.0
C158 C 0.37432 0.41796 0.31277 0.0
C159 C 0.35977 0.39995 0.36412 0.0
C160 C 0.39722 0.43638 0.25716 0.0
C161 C 0.42297 0.44966 0.21764 0.0
C162 C 0.11274 0.89918 0.86142 0.0
C163 C 0.13241 0.88793 0.92384 0.0
C164 C 0.09204 0.91619 0.78963 0.0
C165 C 0.07634 0.93784 0.73489 0.0
loop_
_geom_bond_atom_site_label_1
_geom_bond_atom_site_label_2
_geom_bond_distance
_geom_bond_site_symmetry_2
_ccdc_geom_bond_type
H0 C1 0.949 . S
C1 H0 0.949 . S
C1 C2 1.395 . S
C1 C3 1.391 . S
C2 C1 1.395 . S
C2 C5 1.390 . S
C3 C1 1.391 . S
C3 C7 1.387 1_554 S
C3 C8 1.491 . S
H4 C5 0.950 . S
C5 C2 1.390 . S
C5 H4 0.950 . S
C5 C6 1.378 1_554 S
C6 C5 1.378 1_556 S
C6 C7 1.409 . S
C7 C3 1.387 1_556 S
C7 C6 1.409 . S
C7 H9 0.951 . S
C8 C3 1.491 . S
C8 C10 1.382 . S
C8 C12 1.404 . S
H9 C7 0.951 . S
C10 C8 1.382 . S
C10 C11 1.390 . S
C10 H15 0.949 . S
C11 C10 1.390 . S
C11 C16 1.399 . S
C12 C8 1.404 . S
C12 H13 0.950 1_554 S
C12 C14 1.375 1_554 S
H13 C12 0.950 1_556 S
C14 C12 1.375 1_556 S
C14 C16 1.382 1_556 S
C14 H18 0.950 . S
H15 C10 0.949 . S
C16 C11 1.399 . S
C16 C14 1.382 1_554 S
C16 H17 0.952 . S
H17 C16 0.952 . S
H18 C14 0.950 . S
H19 C20 0.949 . S
C20 H19 0.949 . S
C20 C21 1.395 . S
C20 C22 1.391 . S
C21 C20 1.395 . S
C21 C24 1.390 . S
C22 C20 1.391 . S
C22 C26 1.387 . S
C22 C27 1.491 . S
H23 C24 0.950 . S
C24 C21 1.390 . S
C24 H23 0.950 . S
C24 C25 1.378 . S
C25 C24 1.378 . S
C25 C26 1.409 . S
C26 C22 1.387 . S
C26 C25 1.409 . S
C26 H28 0.951 . S
C27 C22 1.491 . S
C27 C29 1.382 . S
C27 C31 1.404 . S
H28 C26 0.951 . S
C29 C27 1.382 . S
C29 C30 1.390 . S
C29 H34 0.949 . S
C30 C29 1.390 . S
C30 C35 1.399 . S
C31 C27 1.404 . S
C31 H32 0.950 . S
C31 C33 1.375 . S
H32 C31 0.950 . S
C33 C31 1.375 . S
C33 C35 1.382 . S
C33 H37 0.950 . S
H34 C29 0.949 . S
C35 C30 1.399 . S
C35 C33 1.382 . S
C35 H36 0.952 . S
H36 C35 0.952 . S
H37 C33 0.950 . S
H38 C39 0.949 . S
C39 H38 0.949 . S
C39 C40 1.395 . S
C39 C41 1.391 1_554 S
C40 C39 1.395 . S
C40 C43 1.388 1_554 S
C41 C39 1.391 1_556 S
C41 C45 1.387 . S
C41 C46 1.491 . S
H42 C43 0.949 1_554 S
C43 C40 1.388 1_556 S
C43 H42 0.949 1_556 S
C43 C44 1.381 . S
C44 C43 1.381 . S
C44 C45 1.409 . S
C45 C41 1.387 . S
C45 C44 1.409 . S
C45 H47 0.951 . S
C46 C41 1.491 . S
C46 C48 1.382 . S
C46 C50 1.404 . S
H47 C45 0.951 . S
C48 C46 1.382 . S
C48 C49 1.390 . S
C48 H53 0.949 1_556 S
C49 C48 1.390 . S
C49 C54 1.399 . S
C50 C46 1.404 . S
C50 H51 0.950 . S
C50 C52 1.375 . S
H51 C50 0.950 . S
C52 C50 1.375 . S
C52 C54 1.382 . S
C52 H56 0.950 . S
H53 C48 0.949 1_554 S
C54 C49 1.399 . S
C54 C52 1.382 . S
C54 H55 0.952 . S
H55 C54 0.952 . S
H56 C52 0.950 . S
H57 C58 0.949 . S
C58 H57 0.949 . S
C58 C59 1.395 . S
C58 C60 1.391 . S
C59 C58 1.395 . S
C59 C62 1.390 . S
C60 C58 1.391 . S
C60 C64 1.387 . S
C60 C65 1.491 . S
H61 C62 0.950 . S
C62 C59 1.390 . S
C62 H61 0.950 . S
C62 C63 1.378 . S
C63 C62 1.378 . S
C63 C64 1.409 . S
C64 C60 1.387 . S
C64 C63 1.409 . S
C64 H66 0.951 . S
C65 C60 1.491 . S
C65 C67 1.382 . S
C65 C69 1.404 . S
H66 C64 0.951 . S
C67 C65 1.382 . S
C67 C68 1.390 . S
C67 H72 0.949 . S
C68 C67 1.390 . S
C68 C73 1.399 . S
C69 C65 1.404 . S
C69 H70 0.950 . S
C69 C71 1.375 . S
H70 C69 0.950 . S
C71 C69 1.375 . S
C71 C73 1.382 . S
C71 H75 0.950 . S
H72 C67 0.949 . S
C73 C68 1.399 . S
C73 C71 1.382 . S
C73 H74 0.952 . S
H74 C73 0.952 . S
H75 C71 0.950 . S
O76 Mg77 1.990 . S
O76 C90 1.253 1_455 S
Mg77 O76 1.990 . S
Mg77 O80 2.180 . S
Mg77 O81 2.117 . S
Mg77 O95 2.030 . S
O78 Mg79 2.072 1_655 S
O78 C90 1.260 . S
Mg79 O78 2.072 1_455 S
Mg79 O80 2.099 . S
Mg79 O82 2.079 1_545 S
Mg79 O83 2.072 1_455 S
Mg79 O85 2.099 1_445 S
Mg79 O96 2.079 1_545 S
O80 Mg77 2.180 . S
O80 Mg79 2.099 . S
O80 C91 1.279 . S
O81 Mg77 2.117 . S
O81 C91 1.250 . S
O82 Mg79 2.079 1_565 S
O82 C92 1.264 . S
O83 Mg79 2.072 1_655 S
O83 C93 1.260 . S
Mg84 O85 2.180 . S
Mg84 O86 2.030 1_655 S
Mg84 O87 1.990 1_565 S
Mg84 O88 2.117 . S
O85 Mg79 2.099 1_665 S
O85 Mg84 2.180 . S
O85 C94 1.279 . S
O86 Mg84 2.030 1_455 S
O86 C92 1.248 . S
O87 Mg84 1.990 1_545 S
O87 C93 1.253 . S
O88 Mg84 2.117 . S
O88 C94 1.250 . S
C89 O95 1.248 1_565 S
C89 O96 1.264 . S
C90 O76 1.253 1_655 S
C90 O78 1.260 . S
C91 O80 1.279 . S
C91 O81 1.250 . S
C92 O82 1.264 . S
C92 O86 1.248 . S
C93 O83 1.260 . S
C93 O87 1.253 . S
C94 O85 1.279 . S
C94 O88 1.250 . S
O95 Mg77 2.030 . S
O95 C89 1.248 1_545 S
O96 Mg79 2.079 1_565 S
O96 C89 1.264 . S
O97 Mg98 1.990 . S
O97 C111 1.253 . S
Mg98 O97 1.990 . S
Mg98 O101 2.180 . S
Mg98 O102 2.117 . S
Mg98 O116 2.030 . S
O99 Mg100 2.072 . S
O99 C111 1.260 . S
Mg100 O99 2.072 . S
Mg100 O101 2.099 . S
Mg100 O103 2.079 1_554 S
Mg100 O104 2.072 1_554 S
Mg100 O106 2.099 . S
Mg100 O117 2.079 . S
O101 Mg98 2.180 . S
O101 Mg100 2.099 . S
O101 C112 1.279 . S
O102 Mg98 2.117 . S
O102 C112 1.250 . S
O103 Mg100 2.079 1_556 S
O103 C113 1.264 . S
O104 Mg100 2.072 1_556 S
O104 C114 1.260 . S
Mg105 O106 2.180 1_556 S
Mg105 O107 2.030 . S
Mg105 O108 1.990 . S
Mg105 O109 2.117 . S
O106 Mg100 2.099 . S
O106 Mg105 2.180 1_554 S
O106 C115 1.279 . S
O107 Mg105 2.030 . S
O107 C113 1.248 . S
O108 Mg105 1.990 . S
O108 C114 1.253 . S
O109 Mg105 2.117 . S
O109 C115 1.250 1_556 S
C110 O116 1.248 . S
C110 O117 1.264 . S
C111 O97 1.253 . S
C111 O99 1.260 . S
C112 O101 1.279 . S
C112 O102 1.250 . S
C113 O103 1.264 . S
C113 O107 1.248 . S
C114 O104 1.260 . S
C114 O108 1.253 . S
C115 O106 1.279 . S
C115 O109 1.250 1_554 S
O116 Mg98 2.030 . S
O116 C110 1.248 . S
O117 Mg100 2.079 . S
O117 C110 1.264 . S
C118 C119 1.170 . S
C118 C120 1.380 . S
C119 C118 1.170 . S
C120 C118 1.380 . S
C120 C121 1.170 . S
C121 C120 1.170 . S
C122 C123 1.170 . S
C122 C124 1.380 . S
C123 C122 1.170 . S
C124 C122 1.380 . S
C124 C125 1.170 . S
C125 C124 1.170 . S
C126 C127 1.170 . S
C126 C128 1.380 . S
C127 C126 1.170 . S
C128 C126 1.380 . S
C128 C129 1.170 . S
C129 C128 1.170 . S
C130 C131 1.170 . S
C130 C132 1.380 . S
C131 C130 1.170 . S
C132 C130 1.380 . S
C132 C133 1.170 . S
C133 C132 1.170 . S
C134 C135 1.170 . S
C134 C136 1.380 . S
C135 C134 1.170 . S
C136 C134 1.380 . S
C136 C137 1.170 . S
C137 C136 1.170 . S
C138 C139 1.170 . S
C138 C140 1.380 . S
C139 C138 1.170 . S
C140 C138 1.380 . S
C140 C141 1.170 . S
C141 C140 1.170 . S
C142 C143 1.170 . S
C142 C144 1.380 . S
C143 C142 1.170 . S
C144 C142 1.380 . S
C144 C145 1.170 . S
C145 C144 1.170 . S
C146 C147 1.170 . S
C146 C148 1.380 . S
C147 C146 1.170 . S
C148 C146 1.380 . S
C148 C149 1.170 . S
C149 C148 1.170 . S
C150 C151 1.170 . S
C150 C152 1.380 . S
C151 C150 1.170 . S
C152 C150 1.380 . S
C152 C153 1.170 . S
C153 C152 1.170 . S
C154 C155 1.170 . S
C154 C156 1.380 . S
C155 C154 1.170 . S
C156 C154 1.380 . S
C156 C157 1.170 . S
C157 C156 1.170 . S
C158 C159 1.170 . S
C158 C160 1.380 . S
C159 C158 1.170 . S
C160 C158 1.380 . S
C160 C161 1.170 . S
C161 C160 1.170 . S
C162 C163 1.170 . S
C162 C164 1.380 . S
C163 C162 1.170 . S
C164 C162 1.380 . S
C164 C165 1.170 . S
C165 C164 1.170 . S
C121 C91 1.296 . S
C119 C68 1.390 . S
C123 C11 1.358 . S
C125 C115 1.353 . S
C127 C30 1.505 . S
C129 C94 1.440 . S
C131 C49 1.491 1_554 S
C133 C112 1.406 . S
C137 C92 1.567 . S
C135 C2 1.541 . S
C141 C114 1.565 . S
C139 C25 1.643 . S
C143 C40 1.620 . S
C145 C93 1.580 . S
C147 C59 1.526 . S
C149 C113 1.514 . S
C153 C111 1.478 . S
C151 C21 1.525 . S
C157 C90 1.503 . S
C155 C44 1.555 . S
C161 C110 1.461 . S
C159 C63 1.481 . S
C163 C6 1.489 . S
C165 C89 1.451 . S
