# Generated by pormake.
# Topology anh, (6,3)-cn, num edge types: 1
# Building blocks:
#     Node 0, Type 0, BuildingBlock: VOLQOD_clean_sbu_1, # of connection points: 6
#     Node 1, Type 0, BuildingBlock: VOLQOD_clean_sbu_1, # of connection points: 6
#     Node 2, Type 0, BuildingBlock: VOLQOD_clean_sbu_1, # of connection points: 6
#     Node 3, Type 1, BuildingBlock: INOVEN_clean_linker_0, # of connection points: 3
#     Node 4, Type 1, BuildingBlock: INOVEN_clean_linker_0, # of connection points: 3
#     Node 5, Type 1, BuildingBlock: INOVEN_clean_linker_0, # of connection points: 3
#     Node 6, Type 1, BuildingBlock: INOVEN_clean_linker_0, # of connection points: 3
#     Node 7, Type 1, BuildingBlock: INOVEN_clean_linker_0, # of connection points: 3
#     Node 8, Type 1, BuildingBlock: INOVEN_clean_linker_0, # of connection points: 3
#     Edge 9, Type (0, 1), None
#     Edge 10, Type (0, 1), None
#     Edge 11, Type (0, 1), None
#     Edge 12, Type (0, 1), None
#     Edge 13, Type (0, 1), None
#     Edge 14, Type (0, 1), None
#     Edge 15, Type (0, 1), None
#     Edge 16, Type (0, 1), None
#     Edge 17, Type (0, 1), None
#     Edge 18, Type (0, 1), None
#     Edge 19, Type (0, 1), None
#     Edge 20, Type (0, 1), None
#     Edge 21, Type (0, 1), None
#     Edge 22, Type (0, 1), None
#     Edge 23, Type (0, 1), None
#     Edge 24, Type (0, 1), None
#     Edge 25, Type (0, 1), None
#     Edge 26, Type (0, 1), None
# Relax obj value: 0.162
# Max RMSD: 0.217
# Mean RMSD: 0.122
data_MOF--net-anh--node1-VOLQOD_clean_sbu_1--node2-INOVEN_clean_linker_0--edge1-none
_symmetry_space_group_name_H-M    P1
_symmetry_Int_Tables_number       1
_symmetry_cell_setting            triclinic
loop_
_symmetry_equiv_pos_as_xyz
'x, y, z'
_cell_length_a     14.210094
_cell_length_b     13.893895
_cell_length_c     25.837914
_cell_angle_alpha  93.445682
_cell_angle_beta   93.497354
_cell_angle_gamma 121.25155
loop_
_atom_site_label
_atom_site_type_symbol
_atom_site_fract_x
_atom_site_fract_y
_atom_site_fract_z
_atom_type_partial_charge
O0 O -0.00317 0.64625 0.27109 0.0
Zn1 Zn 0.00788 0.6792 0.19614 0.0
O2 O 0.03243 0.57056 0.15694 0.0
Zn3 Zn 0.90735 0.46757 0.10817 0.0
Zn4 Zn 0.06019 0.48032 0.20317 0.0
Zn5 Zn 0.15352 0.65241 0.11627 0.0
O6 O 0.94357 0.46207 0.03431 0.0
O7 O 0.10523 0.6252 0.03921 0.0
O8 O 0.86651 0.67338 0.1642 0.0
O9 O 0.81105 0.52782 0.10413 0.0
O10 O 0.81145 0.31769 0.13483 0.0
O11 O 0.92009 0.32665 0.20268 0.0
O12 O 0.1945 0.47101 0.18444 0.0
O13 O 0.15144 0.83381 0.20278 0.0
O14 O 0.25668 0.59969 0.12782 0.0
O15 O 0.24643 0.81589 0.14188 0.0
C16 C 0.04046 0.60265 0.29812 0.0
C17 C 0.02247 0.53951 0.01269 0.0
C18 C 0.82706 0.27639 0.17475 0.0
C19 C 0.7982 0.60348 0.12621 0.0
C20 C 0.26662 0.53103 0.15446 0.0
C21 C 0.23903 0.87386 0.17952 0.0
O22 O 0.08078 0.54804 0.27738 0.0
O23 O 0.44323 0.09851 0.37281 0.0
Zn24 Zn 0.41266 0.08316 0.44784 0.0
O25 O 0.51791 0.05551 0.4859 0.0
Zn26 Zn 0.62361 0.1806 0.5351 0.0
Zn27 Zn 0.59764 0.01886 0.43745 0.0
Zn28 Zn 0.43604 0.93645 0.5279 0.0
O29 O 0.62546 0.14301 0.61051 0.0
O30 O 0.45819 0.98694 0.60458 0.0
O31 O 0.42074 0.2254 0.48269 0.0
O32 O 0.57114 0.28487 0.53821 0.0
O33 O 0.77088 0.2702 0.50763 0.0
O34 O 0.7528 0.15605 0.43871 0.0
O35 O 0.59424 0.87304 0.45304 0.0
O36 O 0.26065 0.93781 0.44062 0.0
O37 O 0.48906 0.83304 0.51834 0.0
O38 O 0.27703 0.83937 0.50109 0.0
C39 C 0.48168 0.05133 0.34452 0.0
C40 C 0.54423 0.0671 0.6318 0.0
C41 C 0.80764 0.25061 0.46714 0.0
C42 C 0.49536 0.29783 0.51808 0.0
C43 C 0.54468 0.8105 0.48854 0.0
C44 C 0.22083 0.84778 0.46353 0.0
O45 O 0.53169 0.00538 0.36392 0.0
O46 O 0.43206 0.45047 0.71143 0.0
Zn47 Zn 0.41462 0.3957 0.7814 0.0
O48 O 0.54246 0.50674 0.82704 0.0
Zn49 Zn 0.50931 0.60357 0.86645 0.0
Zn50 Zn 0.66601 0.5952 0.78713 0.0
Zn51 Zn 0.57208 0.42144 0.87337 0.0
O52 O 0.54778 0.60838 0.94337 0.0
O53 O 0.54342 0.44584 0.94702 0.0
O54 O 0.27044 0.37438 0.80628 0.0
O55 O 0.34876 0.54042 0.85481 0.0
O56 O 0.57544 0.75546 0.84016 0.0
O57 O 0.68647 0.75266 0.78396 0.0
O58 O 0.80756 0.59699 0.81675 0.0
O59 O 0.42665 0.25695 0.76907 0.0
O60 O 0.73065 0.48734 0.87959 0.0
O61 O 0.52089 0.26237 0.84186 0.0
C62 C 0.51851 0.48642 0.68793 0.0
C63 C 0.54884 0.53349 0.96923 0.0
C64 C 0.64121 0.80116 0.80579 0.0
C65 C 0.26341 0.45102 0.83254 0.0
C66 C 0.8145 0.54893 0.85639 0.0
C67 C 0.47406 0.21682 0.796 0.0
O68 O 0.61485 0.52675 0.71199 0.0
H69 H 0.42825 0.01744 0.13609 0.0
H70 H 0.28935 0.94073 0.28299 0.0
H71 H 0.6405 0.14812 0.2809 0.0
N72 N 0.63755 0.15643 0.17707 0.0
N73 N 0.73402 0.192 0.19659 0.0
C74 C 0.4381 0.02718 0.17837 0.0
C75 C 0.34463 0.97043 0.20604 0.0
C76 C 0.54511 0.09172 0.205 0.0
C77 C 0.55847 0.09924 0.25974 0.0
C78 C 0.46622 0.04761 0.28763 0.0
C79 C 0.35958 0.98571 0.26091 0.0
H80 H 0.49304 0.48094 0.48027 0.0
H81 H 0.48851 0.3199 0.6191 0.0
H82 H 0.52045 0.64343 0.63268 0.0
N83 N 0.50583 0.66494 0.53544 0.0
N84 N 0.55173 0.71475 0.49755 0.0
C85 C 0.49465 0.48008 0.52219 0.0
C86 C 0.48649 0.38741 0.54584 0.0
C87 C 0.50673 0.57247 0.5543 0.0
C88 C 0.51143 0.57204 0.60837 0.0
C89 C 0.50655 0.48227 0.63142 0.0
C90 C 0.49168 0.38937 0.60043 0.0
H91 H -0.02083 0.54308 0.80518 0.0
H92 H 0.87825 0.56949 0.95711 0.0
H93 H 0.13946 0.50529 0.94297 0.0
N94 N 0.14577 0.51567 0.84215 0.0
N95 N 0.16017 0.4344 0.84335 0.0
C96 C -0.01165 0.54316 0.84711 0.0
C97 C 0.91777 0.55804 0.87819 0.0
C98 C 0.06628 0.52064 0.87058 0.0
C99 C 0.07681 0.51859 0.92484 0.0
C100 C 0.01021 0.53779 0.95585 0.0
C101 C 0.93154 0.55748 0.93259 0.0
H102 H 0.07752 0.65488 0.50669 0.0
H103 H 0.15531 0.79804 0.36016 0.0
H104 H 0.94285 0.4397 0.36141 0.0
N105 N 0.93439 0.44266 0.46531 0.0
N106 N 0.8936 0.34313 0.44534 0.0
C107 C 0.06787 0.64521 0.46442 0.0
C108 C 0.12546 0.74073 0.43692 0.0
C109 C 0.00136 0.53631 0.43756 0.0
C110 C -0.00651 0.52311 0.38278 0.0
C111 C 0.04653 0.61766 0.35513 0.0
C112 C 0.11006 0.72622 0.38209 0.0
H113 H 0.52792 0.07202 0.83881 0.0
H114 H 0.48163 0.18341 0.69214 0.0
H115 H 0.6057 0.96083 0.69723 0.0
N116 N 0.58966 0.93418 0.79957 0.0
N117 N 0.64355 0.89284 0.78304 0.0
C118 C 0.53289 0.07298 0.79715 0.0
C119 C 0.49987 0.1365 0.76901 0.0
C120 C 0.57198 0.00992 0.77172 0.0
C121 C 0.5791 0.01163 0.7176 0.0
C122 C 0.54619 0.07381 0.68906 0.0
C123 C 0.50593 0.13492 0.71468 0.0
H124 H 0.64533 0.63204 0.17685 0.0
H125 H 0.73093 0.57389 0.02539 0.0
H126 H 0.41874 0.5444 0.03873 0.0
N127 N 0.44636 0.59818 0.13936 0.0
N128 N 0.35387 0.51412 0.14466 0.0
C129 C 0.62619 0.61264 0.13492 0.0
C130 C 0.70127 0.60575 0.10402 0.0
C131 C 0.52258 0.58672 0.11116 0.0
C132 C 0.49704 0.56029 0.05692 0.0
C133 C 0.57243 0.55669 0.02614 0.0
C134 C 0.67359 0.57893 0.04968 0.0
loop_
_geom_bond_atom_site_label_1
_geom_bond_atom_site_label_2
_geom_bond_distance
_geom_bond_site_symmetry_2
_ccdc_geom_bond_type
O0 Zn1 1.953 . S
O0 C16 1.225 . S
Zn1 O0 1.953 . S
Zn1 O2 1.949 . S
Zn1 O8 1.919 1_455 S
Zn1 O13 1.924 . S
O2 Zn1 1.949 . S
O2 Zn3 1.923 1_455 S
O2 Zn4 1.950 . S
O2 Zn5 1.945 . S
Zn3 O2 1.923 1_655 S
Zn3 O6 1.933 . S
Zn3 O9 1.941 . S
Zn3 O10 1.965 . S
Zn4 O2 1.950 . S
Zn4 O11 1.938 1_455 S
Zn4 O12 1.906 . S
Zn4 O22 1.953 . S
Zn5 O2 1.945 . S
Zn5 O7 1.932 . S
Zn5 O14 1.977 . S
Zn5 O15 1.910 . S
O6 Zn3 1.933 . S
O6 C17 1.226 1_655 S
O7 Zn5 1.932 . S
O7 C17 1.307 . S
O8 Zn1 1.919 1_655 S
O8 C19 1.253 . S
O9 Zn3 1.941 . S
O9 C19 1.283 . S
O10 Zn3 1.965 . S
O10 C18 1.303 . S
O11 Zn4 1.938 1_655 S
O11 C18 1.247 . S
O12 Zn4 1.906 . S
O12 C20 1.304 . S
O13 Zn1 1.924 . S
O13 C21 1.311 . S
O14 Zn5 1.977 . S
O14 C20 1.272 . S
O15 Zn5 1.910 . S
O15 C21 1.231 . S
C16 O0 1.225 . S
C16 O22 1.298 . S
C17 O6 1.226 1_455 S
C17 O7 1.307 . S
C18 O10 1.303 . S
C18 O11 1.247 . S
C19 O8 1.253 . S
C19 O9 1.283 . S
C20 O12 1.304 . S
C20 O14 1.272 . S
C21 O13 1.311 . S
C21 O15 1.231 . S
O22 Zn4 1.953 . S
O22 C16 1.298 . S
O23 Zn24 1.953 . S
O23 C39 1.225 . S
Zn24 O23 1.953 . S
Zn24 O25 1.949 . S
Zn24 O31 1.919 . S
Zn24 O36 1.924 1_545 S
O25 Zn24 1.949 . S
O25 Zn26 1.923 . S
O25 Zn27 1.950 . S
O25 Zn28 1.945 1_545 S
Zn26 O25 1.923 . S
Zn26 O29 1.933 . S
Zn26 O32 1.941 . S
Zn26 O33 1.965 . S
Zn27 O25 1.950 . S
Zn27 O34 1.938 . S
Zn27 O35 1.906 1_545 S
Zn27 O45 1.953 . S
Zn28 O25 1.945 1_565 S
Zn28 O30 1.932 . S
Zn28 O37 1.977 . S
Zn28 O38 1.910 . S
O29 Zn26 1.933 . S
O29 C40 1.226 . S
O30 Zn28 1.932 . S
O30 C40 1.307 1_565 S
O31 Zn24 1.919 . S
O31 C42 1.253 . S
O32 Zn26 1.941 . S
O32 C42 1.283 . S
O33 Zn26 1.965 . S
O33 C41 1.303 . S
O34 Zn27 1.938 . S
O34 C41 1.247 . S
O35 Zn27 1.906 1_565 S
O35 C43 1.304 . S
O36 Zn24 1.924 1_565 S
O36 C44 1.311 . S
O37 Zn28 1.977 . S
O37 C43 1.272 . S
O38 Zn28 1.910 . S
O38 C44 1.231 . S
C39 O23 1.225 . S
C39 O45 1.298 . S
C40 O29 1.226 . S
C40 O30 1.307 1_545 S
C41 O33 1.303 . S
C41 O34 1.247 . S
C42 O31 1.253 . S
C42 O32 1.283 . S
C43 O35 1.304 . S
C43 O37 1.272 . S
C44 O36 1.311 . S
C44 O38 1.231 . S
O45 Zn27 1.953 . S
O45 C39 1.298 . S
O46 Zn47 1.953 . S
O46 C62 1.225 . S
Zn47 O46 1.953 . S
Zn47 O48 1.949 . S
Zn47 O54 1.919 . S
Zn47 O59 1.924 . S
O48 Zn47 1.949 . S
O48 Zn49 1.923 . S
O48 Zn50 1.950 . S
O48 Zn51 1.945 . S
Zn49 O48 1.923 . S
Zn49 O52 1.933 . S
Zn49 O55 1.941 . S
Zn49 O56 1.965 . S
Zn50 O48 1.950 . S
Zn50 O57 1.938 . S
Zn50 O58 1.906 . S
Zn50 O68 1.953 . S
Zn51 O48 1.945 . S
Zn51 O53 1.932 . S
Zn51 O60 1.977 . S
Zn51 O61 1.910 . S
O52 Zn49 1.933 . S
O52 C63 1.226 . S
O53 Zn51 1.932 . S
O53 C63 1.307 . S
O54 Zn47 1.919 . S
O54 C65 1.253 . S
O55 Zn49 1.941 . S
O55 C65 1.283 . S
O56 Zn49 1.965 . S
O56 C64 1.303 . S
O57 Zn50 1.938 . S
O57 C64 1.247 . S
O58 Zn50 1.906 . S
O58 C66 1.304 . S
O59 Zn47 1.924 . S
O59 C67 1.311 . S
O60 Zn51 1.977 . S
O60 C66 1.272 . S
O61 Zn51 1.910 . S
O61 C67 1.231 . S
C62 O46 1.225 . S
C62 O68 1.298 . S
C63 O52 1.226 . S
C63 O53 1.307 . S
C64 O56 1.303 . S
C64 O57 1.247 . S
C65 O54 1.253 . S
C65 O55 1.283 . S
C66 O58 1.304 . S
C66 O60 1.272 . S
C67 O59 1.311 . S
C67 O61 1.231 . S
O68 Zn50 1.953 . S
O68 C62 1.298 . S
H69 C74 0.929 . S
H70 C79 0.931 . S
H71 C77 0.930 . S
N72 N73 1.234 . S
N72 C76 1.453 . S
N73 N72 1.234 . S
C74 H69 0.929 . S
C74 C75 1.373 . S
C74 C76 1.368 1_565 S
C75 C74 1.373 . S
C75 C79 1.397 . S
C76 N72 1.453 . S
C76 C74 1.368 1_545 S
C76 C77 1.373 . S
C77 H71 0.930 . S
C77 C76 1.373 . S
C77 C78 1.371 . S
C78 C77 1.371 . S
C78 C79 1.383 1_545 S
C79 H70 0.931 . S
C79 C75 1.397 . S
C79 C78 1.383 1_565 S
H80 C85 0.929 . S
H81 C90 0.931 . S
H82 C88 0.930 . S
N83 N84 1.234 . S
N83 C87 1.453 . S
N84 N83 1.234 . S
C85 H80 0.929 . S
C85 C86 1.373 . S
C85 C87 1.368 . S
C86 C85 1.373 . S
C86 C90 1.397 . S
C87 N83 1.453 . S
C87 C85 1.368 . S
C87 C88 1.373 . S
C88 H82 0.930 . S
C88 C87 1.373 . S
C88 C89 1.371 . S
C89 C88 1.371 . S
C89 C90 1.383 . S
C90 H81 0.931 . S
C90 C86 1.397 . S
C90 C89 1.383 . S
H91 C96 0.929 . S
H92 C101 0.931 . S
H93 C99 0.930 . S
N94 N95 1.234 . S
N94 C98 1.453 . S
N95 N94 1.234 . S
C96 H91 0.929 . S
C96 C97 1.373 . S
C96 C98 1.368 1_655 S
C97 C96 1.373 . S
C97 C101 1.397 . S
C98 N94 1.453 . S
C98 C96 1.368 1_455 S
C98 C99 1.373 . S
C99 H93 0.930 . S
C99 C98 1.373 . S
C99 C100 1.371 . S
C100 C99 1.371 . S
C100 C101 1.383 1_455 S
C101 H92 0.931 . S
C101 C97 1.397 . S
C101 C100 1.383 1_655 S
H102 C107 0.929 . S
H103 C112 0.931 . S
H104 C110 0.927 1_655 S
N105 N106 1.234 . S
N105 C109 1.453 1_655 S
N106 N105 1.234 . S
C107 H102 0.929 . S
C107 C108 1.373 . S
C107 C109 1.368 . S
C108 C107 1.373 . S
C108 C112 1.397 . S
C109 N105 1.453 1_455 S
C109 C107 1.368 . S
C109 C110 1.373 . S
C110 H104 0.927 1_455 S
C110 C109 1.373 . S
C110 C111 1.373 . S
C111 C110 1.373 . S
C111 C112 1.383 . S
C112 H103 0.931 . S
C112 C108 1.397 . S
C112 C111 1.383 . S
H113 C118 0.929 . S
H114 C123 0.931 . S
H115 C121 0.930 1_565 S
N116 N117 1.234 . S
N116 C120 1.453 1_565 S
N117 N116 1.234 . S
C118 H113 0.929 . S
C118 C119 1.373 . S
C118 C120 1.368 . S
C119 C118 1.373 . S
C119 C123 1.397 . S
C120 N116 1.453 1_545 S
C120 C118 1.368 . S
C120 C121 1.373 . S
C121 H115 0.930 1_545 S
C121 C120 1.373 . S
C121 C122 1.371 . S
C122 C121 1.371 . S
C122 C123 1.383 . S
C123 H114 0.931 . S
C123 C119 1.397 . S
C123 C122 1.383 . S
H124 C129 0.929 . S
H125 C134 0.931 . S
H126 C132 0.930 . S
N127 N128 1.234 . S
N127 C131 1.453 . S
N128 N127 1.234 . S
C129 H124 0.929 . S
C129 C130 1.373 . S
C129 C131 1.368 . S
C130 C129 1.373 . S
C130 C134 1.397 . S
C131 N127 1.453 . S
C131 C129 1.368 . S
C131 C132 1.373 . S
C132 H126 0.930 . S
C132 C131 1.373 . S
C132 C133 1.371 . S
C133 C132 1.371 . S
C133 C134 1.383 . S
C134 H125 0.931 . S
C134 C130 1.397 . S
C134 C133 1.383 . S
C20 N128 1.365 . S
C41 N106 1.575 . S
C64 N117 1.723 . S
C19 C130 1.826 . S
C108 C44 1.893 . S
C119 C67 1.710 . S
C43 N84 1.378 . S
C66 C97 1.506 . S
C21 C75 1.891 . S
C86 C42 1.774 . S
N95 C65 1.521 . S
C18 N73 1.583 . S
C100 C17 1.548 1_556 S
C39 C78 1.603 . S
C62 C89 1.549 . S
C122 C40 1.549 . S
C133 C63 1.532 1_554 S
C16 C111 1.598 . S
