# Generated by pormake.
# Topology pts, (4,4)-cn, num edge types: 1
# Building blocks:
#     Node 0, Type 0, BuildingBlock: NAHDIM_clean_linker_0, # of connection points: 4
#     Node 1, Type 0, BuildingBlock: NAHDIM_clean_linker_0, # of connection points: 4
#     Node 2, Type 1, BuildingBlock: AZAVOO_clean_sbu_0, # of connection points: 4
#     Node 3, Type 1, BuildingBlock: AZAVOO_clean_sbu_0, # of connection points: 4
#     Edge 4, Type (0, 1), None
#     Edge 5, Type (0, 1), None
#     Edge 6, Type (0, 1), None
#     Edge 7, Type (0, 1), None
#     Edge 8, Type (0, 1), None
#     Edge 9, Type (0, 1), None
#     Edge 10, Type (0, 1), None
#     Edge 11, Type (0, 1), None
# Relax obj value: 0.018
# Max RMSD: 0.066
# Mean RMSD: 0.061
data_MOF--net-pts--node1-AZAVOO_clean_sbu_0--node2-NAHDIM_clean_linker_0--edge1-none
_symmetry_space_group_name_H-M    P1
_symmetry_Int_Tables_number       1
_symmetry_cell_setting            triclinic
loop_
_symmetry_equiv_pos_as_xyz
'x, y, z'
_cell_length_a     19.145679
_cell_length_b     19.455657
_cell_length_c     31.289549
_cell_angle_alpha  90.90712
_cell_angle_beta   96.114393
_cell_angle_gamma 89.630875
loop_
_atom_site_label
_atom_site_type_symbol
_atom_site_fract_x
_atom_site_fract_y
_atom_site_fract_z
_atom_type_partial_charge
C0 C 0.90223 0.1856 0.23277 0.0
C1 C 0.87405 0.1177 0.24795 0.0
C2 C 0.79512 0.0683 0.18799 0.0
C3 C 0.78539 0.01113 0.16052 0.0
C4 C 0.72201 1.00083 0.13438 0.0
C5 C 0.66759 0.05041 0.13478 0.0
C6 C 0.67769 0.10946 0.16171 0.0
C7 C 0.74109 0.11756 0.18834 0.0
C8 C 0.71286 0.93615 0.10709 0.0
C9 C 0.62117 0.1637 0.16275 0.0
C10 C 0.19939 0.88641 0.26519 0.0
C11 C 0.22466 0.93592 0.23265 0.0
C12 C 0.31979 0.92514 0.1853 0.0
C13 C 0.32952 0.99591 0.17976 0.0
C14 C 0.38063 0.01944 0.15447 0.0
C15 C 0.42344 0.97141 0.13477 0.0
C16 C 0.4144 0.90024 0.14079 0.0
C17 C 0.36224 0.87814 0.16568 0.0
C18 C 0.38891 0.09572 0.14871 0.0
C19 C 0.45997 0.84757 0.12103 0.0
C20 C 0.26049 0.92998 0.84977 0.0
C21 C 0.25835 0.99649 0.8677 0.0
C22 C 0.3172 0.02376 0.89286 0.0
C23 C 0.3787 0.98309 0.90083 0.0
C24 C 0.38097 0.91633 0.88234 0.0
C25 C 0.32207 0.89113 0.85649 0.0
C26 C 0.31394 0.09614 0.91058 0.0
C27 C 0.44565 0.87154 0.88987 0.0
C28 C 0.87108 0.15485 0.83496 0.0
C29 C 0.8107 0.12787 0.80324 0.0
C30 C 0.70682 0.13145 0.8442 0.0
C31 C 0.65085 0.17313 0.85399 0.0
C32 C 0.6043 0.15202 0.88288 0.0
C33 C 0.6129 0.08646 0.90173 0.0
C34 C 0.66991 0.04401 0.89235 0.0
C35 C 0.71711 0.06746 0.86435 0.0
C36 C 0.54489 0.19927 0.8924 0.0
C37 C 0.67983 0.97299 0.91088 0.0
C38 C 0.59867 0.03799 0.10923 0.0
C39 C 0.54394 0.01363 0.131 0.0
C40 C 0.47908 0.99581 0.10901 0.0
C41 C 0.46874 1.00055 0.06368 0.0
C42 C 0.40537 0.97997 0.04024 0.0
C43 C 0.39654 0.98281 0.99555 0.0
C44 C 0.45 0.00811 0.97263 0.0
C45 C 0.44172 0.01075 0.92721 0.0
C46 C 0.4957 0.03679 0.90557 0.0
C47 C 0.55849 0.06012 0.92781 0.0
C48 C 0.56815 0.05722 0.97325 0.0
C49 C 0.63056 0.08001 0.99683 0.0
C50 C 0.64059 0.07418 0.0414 0.0
C51 C 0.58815 0.04635 0.06414 0.0
C52 C 0.52345 0.02613 0.04121 0.0
C53 C 0.51375 0.03078 0.99568 0.0
C54 C 0.09792 0.84248 0.82827 0.0
C55 C 0.13473 0.91214 0.83132 0.0
O56 O 0.85734 0.07359 0.2132 0.0
O57 O 0.7479 0.15485 0.81462 0.0
O58 O 0.20471 0.90212 0.82527 0.0
O59 O 0.2695 0.89972 0.20831 0.0
H60 H 0.82707 0.12779 0.26527 0.0
H61 H 0.86198 0.21133 0.21027 0.0
H62 H 0.94973 0.17641 0.21587 0.0
H63 H 0.91599 0.22085 0.26065 0.0
H64 H 0.82741 0.97354 0.16035 0.0
H65 H 0.74791 0.16249 0.20911 0.0
H66 H 0.66283 0.91046 0.11216 0.0
H67 H 0.75679 0.89914 0.11435 0.0
H68 H 0.71028 0.94952 0.07262 0.0
H69 H 0.641 0.21134 0.17982 0.0
H70 H 0.57762 0.14328 0.1795 0.0
H71 H 0.5993 0.17688 0.12956 0.0
H72 H 0.25358 0.9781 0.25114 0.0
H73 H 0.173 0.91467 0.28996 0.0
H74 H 0.24509 0.85896 0.2821 0.0
H75 H 0.16289 0.84764 0.24891 0.0
H76 H 0.29697 0.03305 0.19457 0.0
H77 H 0.35442 0.82368 0.17009 0.0
H78 H 0.3853 0.1076 0.11394 0.0
H79 H 0.44167 0.11198 0.1634 0.0
H80 H 0.34854 0.12631 0.1637 0.0
H81 H 0.44873 0.79436 0.1306 0.0
H82 H 0.51626 0.85881 0.13082 0.0
H83 H 0.45132 0.85047 0.08546 0.0
H84 H 0.12954 0.93393 0.86399 0.0
H85 H 0.2113 0.0275 0.86141 0.0
H86 H 0.32331 0.84019 0.84205 0.0
H87 H 0.31844 0.09501 0.94622 0.0
H88 H 0.26423 0.12281 0.89887 0.0
H89 H 0.35886 0.12638 0.90136 0.0
H90 H 0.43663 0.81862 0.87665 0.0
H91 H 0.46277 0.86847 0.92484 0.0
H92 H 0.4892 0.89475 0.87437 0.0
H93 H 0.81034 0.07084 0.80322 0.0
H94 H 0.92204 0.13281 0.8277 0.0
H95 H 0.86274 0.13999 0.86815 0.0
H96 H 0.8738 0.21183 0.83378 0.0
H97 H 0.64347 0.22255 0.8386 0.0
H98 H 0.76058 0.03467 0.85782 0.0
H99 H 0.54028 0.20139 0.92749 0.0
H100 H 0.49469 0.179 0.87613 0.0
H101 H 0.55214 0.25229 0.88101 0.0
H102 H 0.72213 0.94365 0.89692 0.0
H103 H 0.6302 0.94344 0.90504 0.0
H104 H 0.69356 0.97713 0.94617 0.0
H105 H 0.55221 0.0077 0.16561 0.0
H106 H 0.36225 0.96046 0.05617 0.0
H107 H 0.34708 0.96515 0.97919 0.0
H108 H 0.48901 0.03821 0.8707 0.0
H109 H 0.6727 0.10177 0.981 0.0
H110 H 0.69003 0.09172 0.05788 0.0
H111 H 0.04188 0.84854 0.83398 0.0
H112 H 0.12374 0.80764 0.85301 0.0
H113 H 0.10071 0.81836 0.79603 0.0
C114 C 0.17648 0.21909 0.80996 0.0
C115 C 0.12028 0.23143 0.77234 0.0
C116 C 0.1262 0.30765 0.71098 0.0
C117 C 0.05387 0.3201 0.70163 0.0
C118 C 0.02928 0.37275 0.67349 0.0
C119 C 0.07801 0.41429 0.65473 0.0
C120 C 0.15091 0.40134 0.66394 0.0
C121 C 0.17384 0.34734 0.69131 0.0
C122 C 0.95121 0.38424 0.664 0.0
C123 C 0.2048 0.44522 0.64551 0.0
C124 C 0.87976 0.91778 0.64405 0.0
C125 C 0.93958 0.90616 0.67969 0.0
C126 C 0.9533 0.78193 0.68302 0.0
C127 C 0.02187 0.77258 0.67198 0.0
C128 C 0.04262 0.70983 0.65428 0.0
C129 C 0.99349 0.65563 0.64712 0.0
C130 C 0.92525 0.66407 0.66003 0.0
C131 C 0.90637 0.72698 0.67838 0.0
C132 C 0.11663 0.70195 0.64238 0.0
C133 C 0.8717 0.60733 0.65329 0.0
C134 C 0.95598 0.7616 0.36418 0.0
C135 C 0.02064 0.76048 0.38987 0.0
C136 C 0.04091 0.70311 0.41504 0.0
C137 C 0.99444 0.64673 0.41548 0.0
C138 C 0.92939 0.64784 0.38924 0.0
C139 C 0.91178 0.70478 0.36325 0.0
C140 C 0.11209 0.70278 0.44094 0.0
C141 C 0.87833 0.58895 0.38831 0.0
C142 C 0.22362 0.20322 0.30603 0.0
C143 C 0.16965 0.20028 0.33871 0.0
C144 C 0.10818 0.3013 0.36264 0.0
C145 C 0.16132 0.33762 0.38753 0.0
C146 C 0.1445 0.39007 0.4162 0.0
C147 C 0.07306 0.40518 0.42056 0.0
C148 C 0.01961 0.36641 0.39661 0.0
C149 C 0.03795 0.31593 0.36727 0.0
C150 C 0.20285 0.43121 0.44045 0.0
C151 C 0.94293 0.37974 0.40084 0.0
C152 C 0.05305 0.47301 0.62699 0.0
C153 C 0.03369 0.53387 0.64731 0.0
C154 C 0.01205 0.59204 0.62361 0.0
C155 C 0.00992 0.58993 0.57827 0.0
C156 C 0.98747 0.64713 0.55339 0.0
C157 C 0.9879 0.64567 0.50899 0.0
C158 C 0.01113 0.58709 0.48766 0.0
C159 C 0.01419 0.58612 0.44268 0.0
C160 C 0.03572 0.52637 0.42241 0.0
C161 C 0.05379 0.46681 0.44558 0.0
C162 C 0.05192 0.46702 0.49072 0.0
C163 C 0.06958 0.40824 0.51522 0.0
C164 C 0.06925 0.40974 0.55978 0.0
C165 C 0.05118 0.47008 0.58156 0.0
C166 C 0.03065 0.52917 0.55726 0.0
C167 C 0.03128 0.52774 0.51185 0.0
C168 C 0.87595 0.92326 0.34142 0.0
C169 C 0.94519 0.88449 0.35181 0.0
O170 O 0.15213 0.25773 0.73833 0.0
O171 O 0.12308 0.25475 0.33218 0.0
O172 O 0.93513 0.81629 0.33956 0.0
O173 O 0.93127 0.84306 0.69853 0.0
H174 H 0.08209 0.26926 0.78364 0.0
H175 H 0.20332 0.26819 0.81977 0.0
H176 H 0.2164 0.1815 0.8007 0.0
H177 H 0.15228 0.19915 0.83802 0.0
H178 H 0.0165 0.28844 0.71588 0.0
H179 H 0.22952 0.33698 0.69845 0.0
H180 H 0.93652 0.4334 0.67924 0.0
H181 H 0.92025 0.34223 0.67638 0.0
H182 H 0.93668 0.38842 0.62881 0.0
H183 H 0.25911 0.4338 0.65992 0.0
H184 H 0.1935 0.50057 0.65087 0.0
H185 H 0.20219 0.43596 0.6103 0.0
H186 H 0.99018 0.90832 0.66533 0.0
H187 H 0.82807 0.91616 0.65715 0.0
H188 H 0.88092 0.87706 0.61884 0.0
H189 H 0.8856 0.96838 0.62885 0.0
H190 H 0.05935 0.81407 0.67736 0.0
H191 H 0.85394 0.73439 0.68777 0.0
H192 H 0.11568 0.70065 0.60685 0.0
H193 H 0.13986 0.65268 0.65463 0.0
H194 H 0.151 0.74488 0.65532 0.0
H195 H 0.82016 0.62276 0.66381 0.0
H196 H 0.89134 0.56145 0.67158 0.0
H197 H 0.86394 0.59216 0.61875 0.0
H198 H 0.95956 0.88999 0.38716 0.0
H199 H 0.05575 0.80389 0.38966 0.0
H200 H 0.86236 0.70597 0.34284 0.0
H201 H 0.10548 0.70988 0.47553 0.0
H202 H 0.14629 0.74455 0.43142 0.0
H203 H 0.13903 0.6527 0.43704 0.0
H204 H 0.82491 0.60396 0.374 0.0
H205 H 0.8747 0.56946 0.42117 0.0
H206 H 0.89727 0.54633 0.36853 0.0
H207 H 0.19874 0.20276 0.37148 0.0
H208 H 0.26121 0.15954 0.31062 0.0
H209 H 0.25371 0.25188 0.3106 0.0
H210 H 0.19712 0.20132 0.27265 0.0
H211 H 0.21573 0.32688 0.38318 0.0
H212 H 0.9974 0.28757 0.34771 0.0
H213 H 0.20018 0.42674 0.47554 0.0
H214 H 0.19632 0.48642 0.43239 0.0
H215 H 0.25563 0.41381 0.43294 0.0
H216 H 0.90933 0.33656 0.3874 0.0
H217 H 0.92608 0.42689 0.38308 0.0
H218 H 0.9342 0.38819 0.43506 0.0
H219 H 0.0361 0.53621 0.68211 0.0
H220 H 0.96958 0.69398 0.56796 0.0
H221 H 0.97024 0.69136 0.49164 0.0
H222 H 0.03775 0.52598 0.38787 0.0
H223 H 0.08441 0.36059 0.50018 0.0
H224 H 0.08377 0.3631 0.57702 0.0
H225 H 0.86 0.92289 0.30619 0.0
H226 H 0.88097 0.97727 0.35326 0.0
H227 H 0.83395 0.89849 0.35759 0.0
Mg228 Mg 0.07745 0.99042 0.28761 0.0
O229 O 0.97847 0.05048 0.26314 0.0
O230 O 0.9268 0.09237 0.31898 0.0
Mg231 Mg 0.99409 0.05765 0.3801 0.0
C232 C 0.9292 0.08402 0.2786 0.0
C233 C 0.16369 0.96571 0.20396 0.0
O234 O 0.16827 0.97136 0.16256 0.0
O235 O 0.13344 0.09195 0.30454 0.0
O236 O 0.08292 0.12741 0.36244 0.0
O237 O 0.01279 0.89574 0.29043 0.0
O238 O 0.03416 0.96997 0.34448 0.0
C239 C 0.12756 0.13496 0.33531 0.0
C240 C 0.00146 0.91622 0.32868 0.0
O241 O 0.1092 0.98977 0.21906 0.0
Mg242 Mg 0.95685 0.05687 0.7721 0.0
O243 O 0.04231 0.98867 0.80623 0.0
O244 O 0.12335 0.96398 0.76166 0.0
Mg245 Mg 0.09053 0.0192 0.69822 0.0
C246 C 0.09937 0.95947 0.79809 0.0
C247 C 0.82 0.14862 0.75795 0.0
O248 O 0.77396 0.18953 0.73692 0.0
O249 O 0.03062 0.14855 0.77887 0.0
O250 O 0.10836 0.1254 0.73192 0.0
O251 O 0.90032 0.96123 0.74359 0.0
O252 O 0.9799 0.0147 0.71203 0.0
C253 C 0.08329 0.16509 0.75952 0.0
C254 C 0.93976 0.96271 0.71291 0.0
O255 O 0.87127 0.1256 0.73911 0.0
loop_
_geom_bond_atom_site_label_1
_geom_bond_atom_site_label_2
_geom_bond_distance
_geom_bond_site_symmetry_2
_ccdc_geom_bond_type
C0 C1 1.560 . S
C0 H61 0.959 . S
C0 H62 0.959 . S
C0 H63 0.960 . S
C1 C0 1.560 . S
C1 O56 1.426 . S
C1 H60 0.980 . S
C2 C3 1.407 1_545 S
C2 C7 1.418 . S
C2 O56 1.334 . S
C3 C2 1.407 1_565 S
C3 C4 1.360 . S
C3 H64 0.929 . S
C4 C3 1.360 . S
C4 C5 1.401 1_565 S
C4 C8 1.527 . S
C5 C4 1.401 1_545 S
C5 C6 1.405 . S
C5 C38 1.587 1_545 S
C6 C5 1.405 . S
C6 C7 1.332 . S
C6 C9 1.496 . S
C7 C2 1.418 . S
C7 C6 1.332 . S
C7 H65 0.929 . S
C8 C4 1.527 . S
C8 H66 0.959 . S
C8 H67 0.961 . S
C8 H68 0.961 . S
C9 C6 1.496 . S
C9 H69 0.960 . S
C9 H70 0.960 . S
C9 H71 0.961 . S
C10 C11 1.517 . S
C10 H73 0.961 1_565 S
C10 H74 0.960 . S
C10 H75 0.959 . S
C11 C10 1.517 . S
C11 O59 1.468 . S
C11 H72 0.980 1_565 S
C12 C13 1.349 1_565 S
C12 C17 1.367 . S
C12 O59 1.408 . S
C13 C12 1.349 1_545 S
C13 C14 1.407 . S
C13 H76 0.930 . S
C14 C13 1.407 . S
C14 C15 1.449 1_545 S
C14 C18 1.535 . S
C15 C14 1.449 1_565 S
C15 C16 1.384 . S
C15 C40 1.553 . S
C16 C15 1.384 . S
C16 C17 1.364 . S
C16 C19 1.450 . S
C17 C12 1.367 . S
C17 C16 1.364 . S
C17 H77 0.931 . S
C18 C14 1.535 . S
C18 H78 0.959 . S
C18 H79 0.961 . S
C18 H80 0.959 . S
C19 C16 1.450 . S
C19 H81 0.960 . S
C19 H82 0.960 . S
C19 H83 0.960 . S
C20 C21 1.309 1_565 S
C20 C25 1.304 . S
C20 O58 1.435 . S
C21 C20 1.309 1_545 S
C21 C22 1.476 . S
C21 H85 0.930 . S
C22 C21 1.476 . S
C22 C23 1.400 1_545 S
C22 C26 1.567 . S
C23 C22 1.400 1_565 S
C23 C24 1.373 . S
C23 C45 1.432 . S
C24 C23 1.373 . S
C24 C25 1.339 . S
C24 C27 1.530 . S
C25 C20 1.304 . S
C25 C24 1.339 . S
C25 H86 0.930 . S
C26 C22 1.567 . S
C26 H87 0.961 . S
C26 H88 0.960 . S
C26 H89 0.958 . S
C27 C24 1.530 . S
C27 H90 0.961 . S
C27 H91 0.960 . S
C27 H92 0.960 . S
C28 C29 1.530 . S
C28 H94 0.961 . S
C28 H95 0.961 . S
C28 H96 0.959 . S
C29 C28 1.530 . S
C29 O57 1.412 . S
C29 H93 0.980 . S
C30 C31 1.288 . S
C30 C35 1.377 1_545 S
C30 O57 1.393 . S
C31 C30 1.288 . S
C31 C32 1.369 . S
C31 H97 0.932 . S
C32 C31 1.369 . S
C32 C33 1.398 . S
C32 C36 1.527 . S
C33 C32 1.398 . S
C33 C34 1.380 1_545 S
C33 C47 1.497 . S
C34 C33 1.380 1_565 S
C34 C35 1.383 . S
C34 C37 1.603 . S
C35 C30 1.377 1_565 S
C35 C34 1.383 . S
C35 H98 0.929 . S
C36 C32 1.527 . S
C36 H99 0.961 . S
C36 H100 0.959 . S
C36 H101 0.959 . S
C37 C34 1.603 . S
C37 H102 0.960 . S
C37 H103 0.962 . S
C37 H104 0.961 . S
C38 C5 1.587 1_565 S
C38 C39 1.360 . S
C38 C51 1.412 . S
C39 C38 1.360 . S
C39 C40 1.365 . S
C39 H105 0.929 . S
C40 C15 1.553 . S
C40 C39 1.365 . S
C40 C41 1.404 . S
C41 C40 1.404 . S
C41 C42 1.395 . S
C41 C52 1.451 . S
C42 C41 1.395 . S
C42 C43 1.322 1_554 S
C42 H106 0.930 . S
C43 C42 1.322 1_556 S
C43 C44 1.459 . S
C43 H107 0.929 . S
C44 C43 1.459 . S
C44 C45 1.445 . S
C44 C53 1.395 . S
C45 C23 1.432 . S
C45 C44 1.445 . S
C45 C46 1.370 . S
C46 C45 1.370 . S
C46 C47 1.438 1_565 S
C46 H108 0.931 . S
C47 C33 1.497 . S
C47 C46 1.438 1_545 S
C47 C48 1.360 . S
C48 C47 1.360 . S
C48 C49 1.401 . S
C48 C53 1.445 1_545 S
C49 C48 1.401 . S
C49 C50 1.347 1_556 S
C49 H109 0.929 . S
C50 C49 1.347 1_554 S
C50 C51 1.455 1_545 S
C50 H110 0.930 . S
C51 C38 1.412 . S
C51 C50 1.455 1_565 S
C51 C52 1.331 . S
C52 C41 1.451 . S
C52 C51 1.331 . S
C52 C53 1.497 1_554 S
C53 C44 1.395 . S
C53 C48 1.445 1_565 S
C53 C52 1.497 1_556 S
C54 C55 1.582 1_565 S
C54 H111 0.962 . S
C54 H112 0.959 . S
C54 H113 0.958 . S
C55 C54 1.582 1_545 S
C55 O58 1.458 1_545 S
C55 H84 0.980 . S
O56 C1 1.426 . S
O56 C2 1.334 . S
O57 C29 1.412 . S
O57 C30 1.393 . S
O58 C20 1.435 . S
O58 C55 1.458 1_565 S
O59 C11 1.468 . S
O59 C12 1.408 . S
H60 C1 0.980 . S
H61 C0 0.959 . S
H62 C0 0.959 . S
H63 C0 0.960 . S
H64 C3 0.929 . S
H65 C7 0.929 . S
H66 C8 0.959 . S
H67 C8 0.961 . S
H68 C8 0.961 . S
H69 C9 0.960 . S
H70 C9 0.960 . S
H71 C9 0.961 . S
H72 C11 0.980 1_545 S
H73 C10 0.961 1_545 S
H74 C10 0.960 . S
H75 C10 0.959 . S
H76 C13 0.930 . S
H77 C17 0.931 . S
H78 C18 0.959 . S
H79 C18 0.961 . S
H80 C18 0.959 . S
H81 C19 0.960 . S
H82 C19 0.960 . S
H83 C19 0.960 . S
H84 C55 0.980 . S
H85 C21 0.930 . S
H86 C25 0.930 . S
H87 C26 0.961 . S
H88 C26 0.960 . S
H89 C26 0.958 . S
H90 C27 0.961 . S
H91 C27 0.960 . S
H92 C27 0.960 . S
H93 C29 0.980 . S
H94 C28 0.961 . S
H95 C28 0.961 . S
H96 C28 0.959 . S
H97 C31 0.932 . S
H98 C35 0.929 . S
H99 C36 0.961 . S
H100 C36 0.959 . S
H101 C36 0.959 . S
H102 C37 0.960 . S
H103 C37 0.962 . S
H104 C37 0.961 . S
H105 C39 0.929 . S
H106 C42 0.930 . S
H107 C43 0.929 . S
H108 C46 0.931 . S
H109 C49 0.929 . S
H110 C50 0.930 . S
H111 C54 0.962 . S
H112 C54 0.959 . S
H113 C54 0.958 . S
C114 C115 1.560 . S
C114 H175 0.959 . S
C114 H176 0.959 . S
C114 H177 0.960 . S
C115 C114 1.560 . S
C115 O170 1.426 . S
C115 H174 0.980 . S
C116 C117 1.407 1_455 S
C116 C121 1.418 . S
C116 O170 1.334 . S
C117 C116 1.407 1_655 S
C117 C118 1.360 . S
C117 H178 0.929 . S
C118 C117 1.360 . S
C118 C119 1.401 1_655 S
C118 C122 1.527 . S
C119 C118 1.401 1_455 S
C119 C120 1.405 . S
C119 C152 1.587 1_455 S
C120 C119 1.405 . S
C120 C121 1.332 . S
C120 C123 1.496 . S
C121 C116 1.418 . S
C121 C120 1.332 . S
C121 H179 0.929 . S
C122 C118 1.527 . S
C122 H180 0.959 . S
C122 H181 0.961 . S
C122 H182 0.961 . S
C123 C120 1.496 . S
C123 H183 0.960 . S
C123 H184 0.960 . S
C123 H185 0.961 . S
C124 C125 1.517 . S
C124 H187 0.961 . S
C124 H188 0.960 . S
C124 H189 0.959 . S
C125 C124 1.517 . S
C125 O173 1.468 . S
C125 H186 0.980 1_655 S
C126 C127 1.349 1_655 S
C126 C131 1.367 . S
C126 O173 1.408 . S
C127 C126 1.349 1_455 S
C127 C128 1.407 . S
C127 H190 0.930 . S
C128 C127 1.407 . S
C128 C129 1.449 1_455 S
C128 C132 1.535 . S
C129 C128 1.449 1_655 S
C129 C130 1.384 . S
C129 C154 1.553 . S
C130 C129 1.384 . S
C130 C131 1.364 . S
C130 C133 1.450 . S
C131 C126 1.367 . S
C131 C130 1.364 . S
C131 H191 0.931 . S
C132 C128 1.535 . S
C132 H192 0.959 . S
C132 H193 0.961 . S
C132 H194 0.959 . S
C133 C130 1.450 . S
C133 H195 0.960 . S
C133 H196 0.960 . S
C133 H197 0.960 . S
C134 C135 1.309 1_655 S
C134 C139 1.304 . S
C134 O172 1.435 . S
C135 C134 1.309 1_455 S
C135 C136 1.476 . S
C135 H199 0.930 . S
C136 C135 1.476 . S
C136 C137 1.400 . S
C136 C140 1.567 . S
C137 C136 1.400 . S
C137 C138 1.373 1_455 S
C137 C159 1.432 . S
C138 C137 1.373 1_655 S
C138 C139 1.339 . S
C138 C141 1.530 . S
C139 C134 1.304 . S
C139 C138 1.339 . S
C139 H200 0.930 . S
C140 C136 1.567 . S
C140 H201 0.961 . S
C140 H202 0.960 . S
C140 H203 0.958 . S
C141 C138 1.530 . S
C141 H204 0.961 . S
C141 H205 0.960 . S
C141 H206 0.960 . S
C142 C143 1.530 . S
C142 H208 0.961 . S
C142 H209 0.961 . S
C142 H210 0.959 . S
C143 C142 1.530 . S
C143 O171 1.412 . S
C143 H207 0.980 . S
C144 C145 1.288 . S
C144 C149 1.377 . S
C144 O171 1.393 . S
C145 C144 1.288 . S
C145 C146 1.369 . S
C145 H211 0.932 . S
C146 C145 1.369 . S
C146 C147 1.398 . S
C146 C150 1.527 . S
C147 C146 1.398 . S
C147 C148 1.380 . S
C147 C161 1.497 . S
C148 C147 1.380 . S
C148 C149 1.383 . S
C148 C151 1.603 1_455 S
C149 C144 1.377 . S
C149 C148 1.383 . S
C149 H212 0.929 1_455 S
C150 C146 1.527 . S
C150 H213 0.961 . S
C150 H214 0.959 . S
C150 H215 0.959 . S
C151 C148 1.603 1_655 S
C151 H216 0.960 . S
C151 H217 0.962 . S
C151 H218 0.961 . S
C152 C119 1.587 1_655 S
C152 C153 1.360 . S
C152 C165 1.412 1_655 S
C153 C152 1.360 . S
C153 C154 1.365 . S
C153 H219 0.929 . S
C154 C129 1.553 . S
C154 C153 1.365 . S
C154 C155 1.404 . S
C155 C154 1.404 . S
C155 C156 1.395 . S
C155 C166 1.451 . S
C156 C155 1.395 . S
C156 C157 1.322 . S
C156 H220 0.930 . S
C157 C156 1.322 . S
C157 C158 1.459 1_655 S
C157 H221 0.929 . S
C158 C157 1.459 1_455 S
C158 C159 1.445 . S
C158 C167 1.395 . S
C159 C137 1.432 . S
C159 C158 1.445 . S
C159 C160 1.370 . S
C160 C159 1.370 . S
C160 C161 1.438 . S
C160 H222 0.930 . S
C161 C147 1.497 . S
C161 C160 1.438 . S
C161 C162 1.360 . S
C162 C161 1.360 . S
C162 C163 1.401 . S
C162 C167 1.446 . S
C163 C162 1.401 . S
C163 C164 1.347 . S
C163 H223 0.929 . S
C164 C163 1.347 . S
C164 C165 1.455 . S
C164 H224 0.930 . S
C165 C152 1.412 1_455 S
C165 C164 1.455 . S
C165 C166 1.331 1_455 S
C166 C155 1.451 . S
C166 C165 1.331 1_655 S
C166 C167 1.497 1_655 S
C167 C158 1.395 . S
C167 C162 1.446 . S
C167 C166 1.497 1_455 S
C168 C169 1.582 . S
C168 H225 0.962 . S
C168 H226 0.959 1_465 S
C168 H227 0.958 1_455 S
C169 C168 1.582 . S
C169 O172 1.458 1_455 S
C169 H198 0.980 . S
O170 C115 1.426 . S
O170 C116 1.334 . S
O171 C143 1.412 . S
O171 C144 1.393 . S
O172 C134 1.435 . S
O172 C169 1.458 1_655 S
O173 C125 1.468 . S
O173 C126 1.408 . S
H174 C115 0.980 . S
H175 C114 0.959 . S
H176 C114 0.959 . S
H177 C114 0.960 . S
H178 C117 0.929 . S
H179 C121 0.929 . S
H180 C122 0.959 . S
H181 C122 0.961 . S
H182 C122 0.961 . S
H183 C123 0.960 . S
H184 C123 0.960 . S
H185 C123 0.961 . S
H186 C125 0.980 1_455 S
H187 C124 0.961 . S
H188 C124 0.960 . S
H189 C124 0.959 . S
H190 C127 0.930 . S
H191 C131 0.931 . S
H192 C132 0.959 . S
H193 C132 0.961 . S
H194 C132 0.959 . S
H195 C133 0.960 . S
H196 C133 0.960 . S
H197 C133 0.960 . S
H198 C169 0.980 . S
H199 C135 0.930 . S
H200 C139 0.930 . S
H201 C140 0.961 . S
H202 C140 0.960 . S
H203 C140 0.958 . S
H204 C141 0.961 . S
H205 C141 0.960 . S
H206 C141 0.960 . S
H207 C143 0.980 . S
H208 C142 0.961 . S
H209 C142 0.961 . S
H210 C142 0.959 . S
H211 C145 0.932 . S
H212 C149 0.929 1_655 S
H213 C150 0.961 . S
H214 C150 0.959 . S
H215 C150 0.959 . S
H216 C151 0.960 . S
H217 C151 0.962 . S
H218 C151 0.961 . S
H219 C153 0.929 . S
H220 C156 0.930 . S
H221 C157 0.929 . S
H222 C160 0.930 . S
H223 C163 0.929 . S
H224 C164 0.930 . S
H225 C168 0.962 . S
H226 C168 0.959 1_645 S
H227 C168 0.958 1_655 S
Mg228 O229 2.028 . S
Mg228 O235 1.986 . S
Mg228 O237 2.114 1_545 S
Mg228 O238 2.251 1_545 S
Mg228 O241 2.010 . S
O229 Mg228 2.028 . S
O229 C232 1.250 1_455 S
O230 Mg231 2.028 . S
O230 C232 1.248 . S
Mg231 O230 2.028 . S
Mg231 O236 2.032 . S
Mg231 O238 2.079 1_645 S
C232 O229 1.250 1_655 S
C232 O230 1.248 . S
C233 O234 1.264 . S
C233 O241 1.249 . S
O234 C233 1.264 . S
O235 Mg228 1.986 . S
O235 C239 1.246 . S
O236 Mg231 2.032 . S
O236 C239 1.259 1_655 S
O237 Mg228 2.114 1_565 S
O237 C240 1.252 . S
O238 Mg228 2.251 1_565 S
O238 Mg231 2.079 1_465 S
O238 C240 1.273 . S
C239 O235 1.246 . S
C239 O236 1.259 1_455 S
C240 O237 1.252 . S
C240 O238 1.273 . S
O241 Mg228 2.010 . S
O241 C233 1.249 . S
Mg242 O243 2.028 1_655 S
Mg242 O249 1.986 . S
Mg242 O251 2.114 1_545 S
Mg242 O252 2.251 1_645 S
Mg242 O255 2.010 . S
O243 Mg242 2.028 1_455 S
O243 C246 1.250 . S
O244 Mg245 2.028 . S
O244 C246 1.248 . S
Mg245 O244 2.028 . S
Mg245 O250 2.032 . S
Mg245 O252 2.079 1_545 S
C246 O243 1.250 . S
C246 O244 1.248 . S
C247 O248 1.264 . S
C247 O255 1.249 . S
O248 C247 1.264 . S
O249 Mg242 1.986 . S
O249 C253 1.246 1_655 S
O250 Mg245 2.032 . S
O250 C253 1.259 . S
O251 Mg242 2.114 1_565 S
O251 C254 1.252 1_655 S
O252 Mg242 2.251 1_465 S
O252 Mg245 2.079 1_565 S
O252 C254 1.273 . S
C253 O249 1.246 1_455 S
C253 O250 1.259 . S
C254 O251 1.252 1_455 S
C254 O252 1.273 . S
O255 Mg242 2.010 . S
O255 C247 1.249 . S
C233 C11 1.066 1_545 S
C253 C115 1.474 . S
C232 C1 1.037 . S
C254 C125 0.907 1_455 S
C246 C55 1.305 . S
C239 C143 1.036 . S
C247 C29 0.746 . S
C169 C240 1.085 . S
