# Generated by pormake.
# Topology tsx, (6,3)-cn, num edge types: 1
# Building blocks:
#     Node 0, Type 0, BuildingBlock: JUFBIX_clean_sbu_0, # of connection points: 6
#     Node 1, Type 0, BuildingBlock: JUFBIX_clean_sbu_0, # of connection points: 6
#     Node 2, Type 1, BuildingBlock: ESEHIV_clean_linker_0, # of connection points: 3
#     Node 3, Type 1, BuildingBlock: ESEHIV_clean_linker_0, # of connection points: 3
#     Node 4, Type 1, BuildingBlock: ESEHIV_clean_linker_0, # of connection points: 3
#     Node 5, Type 1, BuildingBlock: ESEHIV_clean_linker_0, # of connection points: 3
#     Edge 6, Type (0, 1), BuildingBlock: OJICUG_clean_linker_0, # of connection points: 2
#     Edge 7, Type (0, 1), BuildingBlock: OJICUG_clean_linker_0, # of connection points: 2
#     Edge 8, Type (0, 1), BuildingBlock: OJICUG_clean_linker_0, # of connection points: 2
#     Edge 9, Type (0, 1), BuildingBlock: OJICUG_clean_linker_0, # of connection points: 2
#     Edge 10, Type (0, 1), BuildingBlock: OJICUG_clean_linker_0, # of connection points: 2
#     Edge 11, Type (0, 1), BuildingBlock: OJICUG_clean_linker_0, # of connection points: 2
#     Edge 12, Type (0, 1), BuildingBlock: OJICUG_clean_linker_0, # of connection points: 2
#     Edge 13, Type (0, 1), BuildingBlock: OJICUG_clean_linker_0, # of connection points: 2
#     Edge 14, Type (0, 1), BuildingBlock: OJICUG_clean_linker_0, # of connection points: 2
#     Edge 15, Type (0, 1), BuildingBlock: OJICUG_clean_linker_0, # of connection points: 2
#     Edge 16, Type (0, 1), BuildingBlock: OJICUG_clean_linker_0, # of connection points: 2
#     Edge 17, Type (0, 1), BuildingBlock: OJICUG_clean_linker_0, # of connection points: 2
# Relax obj value: 0.162
# Max RMSD: 0.174
# Mean RMSD: 0.143
data_MOF--net-tsx--node1-JUFBIX_clean_sbu_0--node2-ESEHIV_clean_linker_0--edge1-OJICUG_clean_linker_0
_symmetry_space_group_name_H-M    P1
_symmetry_Int_Tables_number       1
_symmetry_cell_setting            triclinic
loop_
_symmetry_equiv_pos_as_xyz
'x, y, z'
_cell_length_a     12.931402
_cell_length_b     15.96966
_cell_length_c     25.934078
_cell_angle_alpha  91.659709
_cell_angle_beta   89.903252
_cell_angle_gamma 104.23055
loop_
_atom_site_label
_atom_site_type_symbol
_atom_site_fract_x
_atom_site_fract_y
_atom_site_fract_z
_atom_type_partial_charge
Co0 Co 0.11511 0.99217 -0.0206 0.0
C1 C 0.05042 0.03102 0.88257 0.0
Co2 Co 0.9929 0.0676 -0.01847 0.0
C3 C 0.21884 0.8549 0.95517 0.0
C4 C 0.31462 0.955 0.00346 0.0
N5 N 0.22083 0.9324 -0.02217 0.0
N6 N 0.30764 0.82796 -0.03425 0.0
C7 C 0.36828 0.8915 -0.00409 0.0
H8 H 0.15206 0.81827 0.9324 0.0
H9 H 0.34151 0.01319 0.02706 0.0
C10 C 0.05858 0.02906 0.07722 0.0
N11 N 0.88466 0.12505 -0.01351 0.0
C12 C 0.86354 0.18854 0.95817 0.0
C13 C 0.8042 0.10628 0.0208 0.0
N14 N 0.77274 0.20954 -0.02654 0.0
C15 C 0.73565 0.15793 0.01296 0.0
C16 C 0.91118 0.88865 -0.01685 0.0
O17 O 0.11802 0.991 0.05177 0.0
O18 O 0.99864 0.0673 0.05373 0.0
O19 O 0.88777 0.96123 -0.01791 0.0
O20 O 1.00824 0.88608 -0.02094 0.0
O21 O 0.98831 0.06695 0.90829 0.0
H22 H 0.79499 0.05706 0.04939 0.0
H23 H 0.91213 0.2169 0.92611 0.0
O24 O 0.11254 0.99419 0.90622 0.0
O25 O 0.21984 0.09821 -0.01816 0.0
O26 O 0.09981 0.17446 -0.01687 0.0
C27 C 0.19714 0.17116 -0.01459 0.0
H28 H 0.44632 0.89282 0.01134 0.0
H29 H 0.66398 0.15739 0.03471 0.0
Co30 Co 0.61674 0.48839 0.47932 0.0
C31 C 0.55303 0.52851 0.3829 0.0
Co32 Co 0.49848 0.56744 0.48243 0.0
C33 C 0.72143 0.35103 0.45606 0.0
C34 C 0.81655 0.4522 0.50384 0.0
N35 N 0.72296 0.42892 0.47806 0.0
N36 N 0.81036 0.32453 0.46718 0.0
C37 C 0.87054 0.38876 0.49702 0.0
H38 H 0.65487 0.31387 0.43339 0.0
H39 H 0.84308 0.5108 0.52712 0.0
C40 C 0.56428 0.52785 0.57764 0.0
N41 N 0.39003 0.62462 0.48739 0.0
C42 C 0.36582 0.68475 0.45728 0.0
C43 C 0.31209 0.60858 0.52309 0.0
N44 N 0.27556 0.70642 0.47282 0.0
C45 C 0.24206 0.65868 0.51435 0.0
C46 C 0.41453 0.38692 0.48372 0.0
O47 O 0.61782 0.48546 0.55151 0.0
O48 O 0.50758 0.56991 0.55496 0.0
O49 O 0.39308 0.46043 0.48446 0.0
O50 O 0.51064 0.38283 0.478 0.0
O51 O 0.49239 0.56541 0.40901 0.0
H52 H 0.30548 0.56215 0.55322 0.0
H53 H 0.41179 0.71008 0.4238 0.0
O54 O 0.61472 0.49084 0.40621 0.0
O55 O 0.72202 0.59551 0.48273 0.0
O56 O 0.60393 0.67353 0.48248 0.0
C57 C 0.7006 0.66911 0.48548 0.0
H58 H 0.94852 0.39063 0.51273 0.0
H59 H 0.17188 0.65969 0.53692 0.0
H60 H 0.94666 0.10459 0.30614 0.0
H61 H 0.12191 0.90815 0.30153 0.0
H62 H 0.98687 0.97323 0.44362 0.0
C63 C 0.97572 0.0554 0.32536 0.0
C64 C 0.95983 0.04513 0.37839 0.0
C65 C 1.0318 1.00505 0.29711 0.0
C66 C 0.07771 0.94718 0.32286 0.0
C67 C 0.06442 0.93726 0.37603 0.0
C68 C 1.00167 0.98372 0.40326 0.0
H69 H 0.94029 0.91481 0.65297 0.0
H70 H 0.17611 0.1578 0.65501 0.0
H71 H 0.07924 0.02172 0.51138 0.0
C72 C 0.99419 0.96595 0.63257 0.0
C73 C 0.99962 0.96115 0.5786 0.0
C74 C 0.05905 0.03597 0.66033 0.0
C75 C 0.12725 0.10279 0.63371 0.0
C76 C 0.13291 0.09841 0.57965 0.0
C77 C 0.07127 0.02632 0.55259 0.0
H78 H 0.43518 0.59856 0.80317 0.0
H79 H 0.64145 0.4246 0.80606 0.0
H80 H 0.48166 0.47738 0.94352 0.0
C81 C 0.47172 0.5554 0.82396 0.0
C82 C 0.45519 0.54703 0.87717 0.0
C83 C 0.53687 0.51006 0.79768 0.0
C84 C 0.58766 0.45748 0.82544 0.0
C85 C 0.56847 0.44565 0.87806 0.0
C86 C 0.49934 0.4883 0.9034 0.0
H87 H 0.44645 0.41058 0.15223 0.0
H88 H 0.66908 0.66045 0.15542 0.0
H89 H 0.57601 0.52527 0.01108 0.0
C90 C 0.49763 0.46365 0.13212 0.0
C91 C 0.50008 0.46141 0.07809 0.0
C92 C 0.55895 0.53493 0.16033 0.0
C93 C 0.62208 0.60486 0.13392 0.0
C94 C 0.62843 0.60116 0.0798 0.0
C95 C 0.56869 0.52869 0.05236 0.0
C96 C 0.26764 0.33202 -0.00182 0.0
C97 C 0.28131 0.24784 0.00223 0.0
H98 H 0.32872 0.46664 0.01855 0.0
C99 C 0.37145 0.23584 0.02864 0.0
H100 H 0.19863 0.34315 -0.0215 0.0
C101 C 0.44399 0.30571 0.05217 0.0
C102 C 0.42914 0.38922 0.04895 0.0
H103 H 0.38392 0.17187 0.03311 0.0
H104 H 0.51084 0.29437 0.07363 0.0
C105 C 0.34163 0.40236 0.02109 0.0
C106 C 0.28115 0.70156 0.905 0.0
C107 C 0.33411 0.74935 0.94782 0.0
H108 H 0.27521 0.59771 0.85013 0.0
C109 C 0.41726 0.72128 -0.02875 0.0
H110 H 0.21659 0.72045 0.88587 0.0
C111 C 0.45193 0.65174 0.9501 0.0
C112 C 0.40331 0.60755 0.90548 0.0
H113 H 0.45836 0.75457 0.00503 0.0
H114 H 0.52121 0.63626 -0.03315 0.0
C115 C 0.31509 0.63121 0.88424 0.0
C116 C 0.8484 0.72893 -0.00394 0.0
C117 C 0.8304 0.81213 0.00049 0.0
H118 H 0.79689 0.59617 0.01747 0.0
C119 C 0.74191 0.82396 0.02891 0.0
H120 H 0.91617 0.71796 -0.02529 0.0
C121 C 0.67658 0.75532 0.05473 0.0
C122 C 0.69658 0.67305 0.05153 0.0
H123 H 0.72617 0.8873 0.03353 0.0
H124 H 0.61084 0.7666 0.0776 0.0
C125 C 0.78098 0.65962 0.02081 0.0
C126 C 0.78286 0.34314 0.92589 0.0
C127 C 0.72219 0.27091 0.95113 0.0
H128 H 0.78119 0.45618 0.88359 0.0
C129 C 0.61078 0.25891 0.95394 0.0
H130 H 0.86877 0.3547 0.92363 0.0
C131 C 0.56108 0.31737 0.93159 0.0
C132 C 0.62168 0.38855 0.90584 0.0
H133 H 0.56154 0.20298 -0.02787 0.0
H134 H 0.475 0.30544 0.93276 0.0
C135 C 0.73298 0.40138 0.90336 0.0
C136 C 0.8724 0.73414 0.53088 0.0
C137 C 0.78455 0.74572 0.50245 0.0
H138 H 1.00891 0.79374 0.57756 0.0
C139 C 0.77174 0.82986 0.49678 0.0
H140 H 0.88386 0.67017 0.53668 0.0
C141 C 0.84427 0.90067 0.52002 0.0
C142 C 0.92955 0.88811 0.54977 0.0
H143 H 0.70434 0.84063 0.47555 0.0
H144 H 0.83203 0.96493 0.51612 0.0
C145 C 0.94366 0.80459 0.55465 0.0
C146 C 0.78369 0.19683 0.40754 0.0
C147 C 0.83759 0.24596 0.44967 0.0
H148 H 0.77799 0.09257 0.35305 0.0
C149 C 0.92256 0.21943 0.47261 0.0
H150 H 0.71781 0.21435 0.38877 0.0
C151 C 0.95798 0.15014 0.45144 0.0
C152 C 0.90833 0.10498 0.40738 0.0
H153 H 0.96451 0.25375 0.50588 0.0
H154 H 1.02842 0.13566 0.46757 0.0
C155 C 0.8184 0.12693 0.38683 0.0
C156 C 0.24637 0.3221 0.53021 0.0
C157 C 0.33329 0.31037 0.50059 0.0
H158 H 0.117 0.26417 0.57962 0.0
C159 C 0.3498 0.22682 0.49455 0.0
H160 H 0.23176 0.38564 0.53602 0.0
C161 C 0.28278 0.15707 0.5191 0.0
C162 C 0.2003 0.17037 0.55116 0.0
H163 H 0.41633 0.21591 0.47217 0.0
H164 H 0.29772 0.09341 0.51462 0.0
C165 C 0.18144 0.25297 0.55576 0.0
C166 C 0.11224 0.75537 0.45505 0.0
C167 C 0.2229 0.7654 0.44921 0.0
H168 H 0.97539 0.80217 0.43597 0.0
C169 C 0.28088 0.83364 0.41989 0.0
H170 H 0.06474 0.7024 0.47638 0.0
C171 C 0.22927 0.89012 0.39671 0.0
C172 C 0.1189 0.8797 0.40264 0.0
H173 H 0.36618 0.84384 0.41514 0.0
H174 H 0.27562 0.94218 0.37417 0.0
C175 C 0.06086 0.81222 0.43208 0.0
C176 C 0.96044 0.03072 0.15877 0.0
C177 C 0.05419 0.02511 0.1333 0.0
H178 H 0.87862 0.02529 0.23031 0.0
C179 C 0.14156 0.01347 0.16162 0.0
H180 H 0.89149 0.03845 0.1375 0.0
C181 C 0.13531 1.00814 0.2151 0.0
C182 C 1.0408 0.01267 0.24068 0.0
H183 H 0.21482 1.00941 0.1425 0.0
H184 H 0.20453 1.00106 0.23635 0.0
C185 C 0.95336 0.02359 0.21191 0.0
C186 C 0.14462 0.02701 0.79869 0.0
C187 C 0.05244 0.03353 0.82569 0.0
H188 H 0.21922 0.02484 0.72483 0.0
C189 C 0.96293 0.04286 0.79787 0.0
H190 H 0.21499 0.02034 0.81917 0.0
C191 C 0.96494 0.04377 0.74393 0.0
C192 C 0.05737 0.03773 0.7172 0.0
H193 H 0.89084 0.04789 0.81773 0.0
H194 H 0.89459 0.04946 0.72306 0.0
C195 C 0.14742 0.03008 0.74491 0.0
C196 C 0.56509 0.44811 0.6577 0.0
C197 C 0.56412 0.52524 0.63367 0.0
H198 H 0.55243 0.38175 0.72834 0.0
C199 C 0.55889 0.59864 0.66339 0.0
H200 H 0.56802 0.39058 0.6351 0.0
C201 C 0.55399 0.59479 0.71689 0.0
C202 C 0.55075 0.51662 0.74125 0.0
H203 H 0.55919 0.65898 0.64523 0.0
H204 H 0.55224 0.65297 0.73901 0.0
C205 C 0.55691 0.44343 0.71104 0.0
C206 C 0.52282 0.59678 0.3002 0.0
C207 C 0.55346 0.53031 0.32596 0.0
H208 H 0.503 0.65138 0.22715 0.0
C209 C 0.58664 0.46619 0.29683 0.0
H210 H 0.49755 0.64734 0.32174 0.0
C211 C 0.58783 0.46778 0.243 0.0
C212 C 0.55832 0.53461 0.21733 0.0
H213 H 0.61055 0.41416 0.31563 0.0
H214 H 0.61277 0.41717 0.22134 0.0
C215 C 0.52651 0.59948 0.24628 0.0
loop_
_geom_bond_atom_site_label_1
_geom_bond_atom_site_label_2
_geom_bond_distance
_geom_bond_site_symmetry_2
_ccdc_geom_bond_type
Co0 N5 2.057 . S
Co0 O17 2.021 . S
Co0 O20 2.062 1_455 S
Co0 O24 2.117 1_554 S
Co0 O25 2.020 1_565 S
C1 O21 1.258 1_455 S
C1 O24 1.260 1_545 S
Co2 N11 2.057 . S
Co2 O18 2.117 . S
Co2 O19 2.020 1_545 S
Co2 O21 2.021 1_554 S
Co2 O26 2.062 1_655 S
C3 N5 1.316 . S
C3 N6 1.347 . S
C3 H8 0.931 . S
C4 N5 1.375 1_556 S
C4 C7 1.350 . S
C4 H9 0.930 . S
N5 Co0 2.057 . S
N5 C3 1.316 . S
N5 C4 1.375 1_554 S
N6 C3 1.347 . S
N6 C7 1.373 1_554 S
C7 C4 1.350 . S
C7 N6 1.373 1_556 S
C7 H28 0.931 . S
H8 C3 0.931 . S
H9 C4 0.930 . S
C10 O17 1.259 1_545 S
C10 O18 1.258 1_455 S
N11 Co2 2.057 . S
N11 C12 1.316 . S
N11 C13 1.375 . S
C12 N11 1.316 . S
C12 N14 1.347 . S
C12 H23 0.931 1_554 S
C13 N11 1.375 . S
C13 C15 1.350 . S
C13 H22 0.930 . S
N14 C12 1.347 . S
N14 C15 1.373 . S
C15 C13 1.350 . S
C15 N14 1.373 . S
C15 H29 0.931 . S
C16 O19 1.256 . S
C16 O20 1.255 . S
O17 Co0 2.021 . S
O17 C10 1.259 1_565 S
O18 Co2 2.117 . S
O18 C10 1.258 1_655 S
O19 Co2 2.020 1_565 S
O19 C16 1.256 . S
O20 Co0 2.062 1_655 S
O20 C16 1.255 . S
O21 C1 1.258 1_655 S
O21 Co2 2.021 1_556 S
H22 C13 0.930 . S
H23 C12 0.931 1_556 S
O24 Co0 2.117 1_556 S
O24 C1 1.260 1_565 S
O25 Co0 2.020 1_545 S
O25 C27 1.256 . S
O26 Co2 2.062 1_455 S
O26 C27 1.255 . S
C27 O25 1.256 . S
C27 O26 1.255 . S
H28 C7 0.931 . S
H29 C15 0.931 . S
Co30 N35 2.057 . S
Co30 O47 2.021 . S
Co30 O50 2.062 . S
Co30 O54 2.117 . S
Co30 O55 2.020 . S
C31 O51 1.259 . S
C31 O54 1.258 . S
Co32 N41 2.057 . S
Co32 O48 2.117 . S
Co32 O49 2.020 . S
Co32 O51 2.021 . S
Co32 O56 2.062 . S
C33 N35 1.316 . S
C33 N36 1.347 . S
C33 H38 0.931 . S
C34 N35 1.375 . S
C34 C37 1.350 . S
C34 H39 0.930 . S
N35 Co30 2.057 . S
N35 C33 1.316 . S
N35 C34 1.375 . S
N36 C33 1.347 . S
N36 C37 1.373 . S
C37 C34 1.350 . S
C37 N36 1.373 . S
C37 H58 0.931 . S
H38 C33 0.931 . S
H39 C34 0.930 . S
C40 O47 1.259 . S
C40 O48 1.258 . S
N41 Co32 2.057 . S
N41 C42 1.316 . S
N41 C43 1.375 . S
C42 N41 1.316 . S
C42 N44 1.347 . S
C42 H53 0.931 . S
C43 N41 1.375 . S
C43 C45 1.350 . S
C43 H52 0.930 . S
N44 C42 1.347 . S
N44 C45 1.373 . S
C45 C43 1.350 . S
C45 N44 1.373 . S
C45 H59 0.931 . S
C46 O49 1.256 . S
C46 O50 1.255 . S
O47 Co30 2.021 . S
O47 C40 1.259 . S
O48 Co32 2.117 . S
O48 C40 1.258 . S
O49 Co32 2.020 . S
O49 C46 1.256 . S
O50 Co30 2.062 . S
O50 C46 1.255 . S
O51 C31 1.259 . S
O51 Co32 2.021 . S
H52 C43 0.930 . S
H53 C42 0.931 . S
O54 Co30 2.117 . S
O54 C31 1.258 . S
O55 Co30 2.020 . S
O55 C57 1.256 . S
O56 Co32 2.062 . S
O56 C57 1.255 . S
C57 O55 1.256 . S
C57 O56 1.255 . S
H58 C37 0.931 . S
H59 C45 0.931 . S
H60 C63 0.931 . S
H61 C66 0.928 . S
H62 C68 0.930 . S
C63 H60 0.931 . S
C63 C64 1.413 . S
C63 C65 1.365 . S
C64 C63 1.413 . S
C64 C68 1.429 1_655 S
C65 C63 1.365 . S
C65 C66 1.366 1_645 S
C66 H61 0.928 . S
C66 C65 1.366 1_465 S
C66 C67 1.404 . S
C67 C66 1.404 . S
C67 C68 1.391 1_565 S
C68 H62 0.930 . S
C68 C64 1.429 1_455 S
C68 C67 1.391 1_545 S
H69 C72 0.931 . S
H70 C75 0.928 . S
H71 C77 0.930 . S
C72 H69 0.931 . S
C72 C73 1.413 . S
C72 C74 1.360 1_665 S
C73 C72 1.413 . S
C73 C77 1.429 1_665 S
C74 C72 1.360 1_445 S
C74 C75 1.372 . S
C75 H70 0.928 . S
C75 C74 1.372 . S
C75 C76 1.404 . S
C76 C75 1.404 . S
C76 C77 1.391 . S
C77 H71 0.930 . S
C77 C73 1.429 1_445 S
C77 C76 1.391 . S
H78 C81 0.931 . S
H79 C84 0.928 . S
H80 C86 0.930 1_554 S
C81 H78 0.931 . S
C81 C82 1.413 . S
C81 C83 1.360 . S
C82 C81 1.413 . S
C82 C86 1.429 . S
C83 C81 1.360 . S
C83 C84 1.372 . S
C84 H79 0.928 . S
C84 C83 1.372 . S
C84 C85 1.404 . S
C85 C84 1.404 . S
C85 C86 1.391 . S
C86 H80 0.930 1_556 S
C86 C82 1.429 . S
C86 C85 1.391 . S
H87 C90 0.931 . S
H88 C93 0.928 . S
H89 C95 0.930 . S
C90 H87 0.931 . S
C90 C91 1.413 . S
C90 C92 1.360 . S
C91 C90 1.413 . S
C91 C95 1.429 . S
C92 C90 1.360 . S
C92 C93 1.372 . S
C93 H88 0.928 . S
C93 C92 1.372 . S
C93 C94 1.404 . S
C94 C93 1.404 . S
C94 C95 1.391 . S
C95 H89 0.930 . S
C95 C91 1.429 . S
C95 C94 1.391 . S
C96 C97 1.387 1_556 S
C96 H100 0.950 . S
C96 C105 1.390 1_556 S
C97 C96 1.387 1_554 S
C97 C99 1.387 . S
H98 C105 0.950 1_556 S
C99 C97 1.387 . S
C99 C101 1.390 . S
C99 H103 0.950 . S
H100 C96 0.950 . S
C101 C99 1.390 . S
C101 C102 1.387 . S
C101 H104 0.950 . S
C102 C101 1.387 . S
C102 C105 1.387 . S
H103 C99 0.950 . S
H104 C101 0.950 . S
C105 C96 1.390 1_554 S
C105 H98 0.950 1_554 S
C105 C102 1.387 . S
C106 C107 1.387 . S
C106 H110 0.950 . S
C106 C115 1.390 . S
C107 C106 1.387 . S
C107 C109 1.387 1_554 S
H108 C115 0.950 . S
C109 C107 1.387 1_556 S
C109 C111 1.390 . S
C109 H113 0.950 . S
H110 C106 0.950 . S
C111 C109 1.390 . S
C111 C112 1.387 . S
C111 H114 0.950 . S
C112 C111 1.387 . S
C112 C115 1.387 1_556 S
H113 C109 0.950 . S
H114 C111 0.950 . S
C115 C106 1.390 . S
C115 H108 0.950 . S
C115 C112 1.387 1_554 S
C116 C117 1.387 1_556 S
C116 H120 0.950 . S
C116 C125 1.390 1_556 S
C117 C116 1.387 1_554 S
C117 C119 1.387 . S
H118 C125 0.950 1_556 S
C119 C117 1.387 . S
C119 C121 1.390 . S
C119 H123 0.950 . S
H120 C116 0.950 . S
C121 C119 1.390 . S
C121 C122 1.387 . S
C121 H124 0.950 . S
C122 C121 1.387 . S
C122 C125 1.387 . S
H123 C119 0.950 . S
H124 C121 0.950 . S
C125 C116 1.390 1_554 S
C125 H118 0.950 1_554 S
C125 C122 1.387 . S
C126 C127 1.387 . S
C126 H130 0.950 . S
C126 C135 1.390 . S
C127 C126 1.387 . S
C127 C129 1.387 1_554 S
H128 C135 0.950 . S
C129 C127 1.387 1_556 S
C129 C131 1.390 . S
C129 H133 0.950 . S
H130 C126 0.950 . S
C131 C129 1.390 . S
C131 C132 1.387 . S
C131 H134 0.950 . S
C132 C131 1.387 . S
C132 C135 1.387 1_556 S
H133 C129 0.950 . S
H134 C131 0.950 . S
C135 C126 1.390 . S
C135 H128 0.950 . S
C135 C132 1.387 1_554 S
C136 C137 1.387 . S
C136 H140 0.950 . S
C136 C145 1.390 . S
C137 C136 1.387 . S
C137 C139 1.387 . S
H138 C145 0.950 . S
C139 C137 1.387 . S
C139 C141 1.390 . S
C139 H143 0.950 . S
H140 C136 0.950 . S
C141 C139 1.390 . S
C141 C142 1.387 . S
C141 H144 0.950 . S
C142 C141 1.387 . S
C142 C145 1.387 . S
H143 C139 0.950 . S
H144 C141 0.950 . S
C145 C136 1.390 . S
C145 H138 0.950 . S
C145 C142 1.387 . S
C146 C147 1.387 . S
C146 H150 0.950 . S
C146 C155 1.390 . S
C147 C146 1.387 . S
C147 C149 1.387 . S
H148 C155 0.950 . S
C149 C147 1.387 . S
C149 C151 1.390 . S
C149 H153 0.950 . S
H150 C146 0.950 . S
C151 C149 1.390 . S
C151 C152 1.387 . S
C151 H154 0.950 . S
C152 C151 1.387 . S
C152 C155 1.387 . S
H153 C149 0.950 . S
H154 C151 0.950 . S
C155 C146 1.390 . S
C155 H148 0.950 . S
C155 C152 1.387 . S
C156 C157 1.387 . S
C156 H160 0.950 . S
C156 C165 1.390 . S
C157 C156 1.387 . S
C157 C159 1.387 . S
H158 C165 0.950 . S
C159 C157 1.387 . S
C159 C161 1.390 . S
C159 H163 0.950 . S
H160 C156 0.950 . S
C161 C159 1.390 . S
C161 C162 1.387 . S
C161 H164 0.950 . S
C162 C161 1.387 . S
C162 C165 1.387 . S
H163 C159 0.950 . S
H164 C161 0.950 . S
C165 C156 1.390 . S
C165 H158 0.950 . S
C165 C162 1.387 . S
C166 C167 1.387 . S
C166 H170 0.950 . S
C166 C175 1.390 . S
C167 C166 1.387 . S
C167 C169 1.387 . S
H168 C175 0.950 . S
C169 C167 1.387 . S
C169 C171 1.390 . S
C169 H173 0.950 . S
H170 C166 0.950 . S
C171 C169 1.390 . S
C171 C172 1.387 . S
C171 H174 0.950 . S
C172 C171 1.387 . S
C172 C175 1.387 . S
H173 C169 0.950 . S
H174 C171 0.950 . S
C175 C166 1.390 . S
C175 H168 0.950 . S
C175 C172 1.387 . S
C176 C177 1.387 1_655 S
C176 H180 0.950 . S
C176 C185 1.390 . S
C177 C176 1.387 1_455 S
C177 C179 1.387 1_545 S
H178 C185 0.950 . S
C179 C177 1.387 1_565 S
C179 C181 1.390 . S
C179 H183 0.950 . S
H180 C176 0.950 . S
C181 C179 1.390 . S
C181 C182 1.387 1_565 S
C181 H184 0.950 . S
C182 C181 1.387 1_545 S
C182 C185 1.387 1_455 S
H183 C179 0.950 . S
H184 C181 0.950 . S
C185 C176 1.390 . S
C185 H178 0.950 . S
C185 C182 1.387 1_655 S
C186 C187 1.387 . S
C186 H190 0.950 . S
C186 C195 1.390 . S
C187 C186 1.387 . S
C187 C189 1.387 1_445 S
H188 C195 0.950 . S
C189 C187 1.387 1_665 S
C189 C191 1.390 . S
C189 H193 0.950 . S
H190 C186 0.950 . S
C191 C189 1.390 . S
C191 C192 1.387 1_665 S
C191 H194 0.950 . S
C192 C191 1.387 1_445 S
C192 C195 1.387 . S
H193 C189 0.950 . S
H194 C191 0.950 . S
C195 C186 1.390 . S
C195 H188 0.950 . S
C195 C192 1.387 . S
C196 C197 1.387 . S
C196 H200 0.950 . S
C196 C205 1.390 . S
C197 C196 1.387 . S
C197 C199 1.387 . S
H198 C205 0.950 . S
C199 C197 1.387 . S
C199 C201 1.390 . S
C199 H203 0.950 . S
H200 C196 0.950 . S
C201 C199 1.390 . S
C201 C202 1.387 . S
C201 H204 0.950 . S
C202 C201 1.387 . S
C202 C205 1.387 . S
H203 C199 0.950 . S
H204 C201 0.950 . S
C205 C196 1.390 . S
C205 H198 0.950 . S
C205 C202 1.387 . S
C206 C207 1.387 . S
C206 H210 0.950 . S
C206 C215 1.390 . S
C207 C206 1.387 . S
C207 C209 1.387 . S
H208 C215 0.950 . S
C209 C207 1.387 . S
C209 C211 1.390 . S
C209 H213 0.950 . S
H210 C206 0.950 . S
C211 C209 1.390 . S
C211 C212 1.387 . S
C211 H214 0.950 . S
C212 C211 1.387 . S
C212 C215 1.387 . S
H213 C209 0.950 . S
H214 C211 0.950 . S
C215 C206 1.390 . S
C215 H208 0.950 . S
C215 C212 1.387 . S
C102 C91 1.453 . S
C97 C27 1.457 . S
C107 N6 1.357 . S
C112 C82 1.445 . S
C117 C16 1.447 . S
C122 C94 1.446 . S
C127 N14 1.433 . S
C132 C85 1.436 . S
C137 C57 1.456 . S
C142 C73 1.454 . S
C147 N36 1.358 . S
C152 C64 1.445 . S
C162 C76 1.447 . S
C157 C46 1.446 . S
C172 C67 1.436 . S
C167 N44 1.432 . S
C177 C10 1.395 . S
C182 C65 1.399 1_455 S
C187 C1 1.543 . S
C192 C74 1.548 . S
C202 C83 1.399 . S
C197 C40 1.395 . S
C207 C31 1.543 . S
C212 C92 1.548 . S
