# Generated by pormake.
# Topology pyr, (3,6)-cn, num edge types: 1
# Building blocks:
#     Node 0, Type 0, BuildingBlock: BETDAH_clean_linker_0, # of connection points: 3
#     Node 1, Type 0, BuildingBlock: BETDAH_clean_linker_0, # of connection points: 3
#     Node 2, Type 0, BuildingBlock: BETDAH_clean_linker_0, # of connection points: 3
#     Node 3, Type 0, BuildingBlock: BETDAH_clean_linker_0, # of connection points: 3
#     Node 4, Type 0, BuildingBlock: BETDAH_clean_linker_0, # of connection points: 3
#     Node 5, Type 0, BuildingBlock: BETDAH_clean_linker_0, # of connection points: 3
#     Node 6, Type 0, BuildingBlock: BETDAH_clean_linker_0, # of connection points: 3
#     Node 7, Type 0, BuildingBlock: BETDAH_clean_linker_0, # of connection points: 3
#     Node 8, Type 1, BuildingBlock: FUNLAD_clean_sbu_0, # of connection points: 6
#     Node 9, Type 1, BuildingBlock: FUNLAD_clean_sbu_0, # of connection points: 6
#     Node 10, Type 1, BuildingBlock: FUNLAD_clean_sbu_0, # of connection points: 6
#     Node 11, Type 1, BuildingBlock: FUNLAD_clean_sbu_0, # of connection points: 6
#     Edge 12, Type (0, 1), None
#     Edge 13, Type (0, 1), None
#     Edge 14, Type (0, 1), None
#     Edge 15, Type (0, 1), None
#     Edge 16, Type (0, 1), None
#     Edge 17, Type (0, 1), None
#     Edge 18, Type (0, 1), None
#     Edge 19, Type (0, 1), None
#     Edge 20, Type (0, 1), None
#     Edge 21, Type (0, 1), None
#     Edge 22, Type (0, 1), None
#     Edge 23, Type (0, 1), None
#     Edge 24, Type (0, 1), None
#     Edge 25, Type (0, 1), None
#     Edge 26, Type (0, 1), None
#     Edge 27, Type (0, 1), None
#     Edge 28, Type (0, 1), None
#     Edge 29, Type (0, 1), None
#     Edge 30, Type (0, 1), None
#     Edge 31, Type (0, 1), None
#     Edge 32, Type (0, 1), None
#     Edge 33, Type (0, 1), None
#     Edge 34, Type (0, 1), None
#     Edge 35, Type (0, 1), None
# Relax obj value: 0.555
# Max RMSD: 0.237
# Mean RMSD: 0.143
data_MOF--net-pry--node1-FUNLAD_clean_sbu_0--node2-BETDAH_clean_linker_0--edge1-none
_symmetry_space_group_name_H-M    P1
_symmetry_Int_Tables_number       1
_symmetry_cell_setting            triclinic
loop_
_symmetry_equiv_pos_as_xyz
'x, y, z'
_cell_length_a     14.854243
_cell_length_b     16.426179
_cell_length_c     16.826452
_cell_angle_alpha  89.083012
_cell_angle_beta   90.169196
_cell_angle_gamma 83.719629
loop_
_atom_site_label
_atom_site_type_symbol
_atom_site_fract_x
_atom_site_fract_y
_atom_site_fract_z
_atom_type_partial_charge
H0 H 0.24847 0.08388 0.34499 0.0
H1 H 0.23859 0.29838 0.18922 0.0
H2 H 0.04217 0.28683 0.3734 0.0
C3 C 0.21619 0.1429 0.32516 0.0
C4 C 0.13847 0.17906 0.3669 0.0
C5 C 0.25493 0.18551 0.2607 0.0
C6 C 0.21123 0.26406 0.23722 0.0
C7 C 0.13437 0.30027 0.27768 0.0
C8 C 0.10028 0.25755 0.34193 0.0
N9 N 0.09058 0.38112 0.2608 0.0
C10 C 0.09878 0.43642 0.19719 0.0
H11 H 0.52463 0.85377 0.96548 0.0
H12 H 0.35822 0.07969 0.90501 0.0
H13 H 0.35624 0.87474 0.75375 0.0
C14 C 0.47435 0.88811 0.9278 0.0
C15 C 0.44678 0.85247 0.8546 0.0
C16 C 0.43982 0.97136 0.94874 0.0
C17 C 0.38195 1.01614 0.89379 0.0
C18 C 0.35284 0.98124 0.82429 0.0
C19 C 0.38099 0.89969 0.80782 0.0
N20 N 0.30158 1.03293 0.76848 0.0
C21 C 0.24956 1.00968 0.70517 0.0
H22 H 0.77237 0.46389 1.03657 0.0
H23 H 0.97581 0.41171 0.85881 0.0
H24 H 0.80846 0.22849 0.9301 0.0
C25 C 0.81165 0.42042 0.99994 0.0
C26 C 0.78115 0.34335 0.98928 0.0
C27 C 0.88756 0.44351 0.95769 0.0
C28 C 0.92798 0.38986 0.90044 0.0
C29 C 0.89154 0.31608 0.88522 0.0
C30 C 0.83225 0.28733 0.9408 0.0
N31 N 0.87038 0.3009 0.8053 0.0
C32 C 0.7868 0.34025 0.78109 0.0
H33 H 0.84854 0.75599 0.66579 0.0
H34 H 0.91952 0.63818 0.44621 0.0
H35 H 0.75413 0.52527 0.61455 0.0
C36 C 0.85142 0.70169 0.62948 0.0
C37 C 0.79894 0.63981 0.65079 0.0
C38 C 0.89098 0.70254 0.55412 0.0
C39 C 0.88839 0.63644 0.50415 0.0
C40 C 0.83458 0.57437 0.52404 0.0
C41 C 0.7979 0.57187 0.60065 0.0
N42 N 0.79873 0.52856 0.46287 0.0
C43 C 0.78954 0.56117 0.38584 0.0
H44 H 0.96725 0.86316 0.79098 0.0
H45 H 0.87056 0.90794 1.03017 0.0
H46 H 0.88974 0.11022 0.87195 0.0
C47 C 0.94056 0.90494 0.8363 0.0
C48 C 0.92728 0.99294 0.81814 0.0
C49 C 0.91943 0.87228 0.91437 0.0
C50 C 0.88536 0.92884 0.97066 0.0
C51 C 0.87625 1.01284 0.95583 0.0
C52 C 0.89786 1.04446 0.88117 0.0
N53 N 0.8464 1.06636 1.01776 0.0
C54 C 0.77839 1.04797 1.06971 0.0
H55 H 0.74401 0.10262 0.40532 0.0
H56 H 0.74853 0.32302 0.54327 0.0
H57 H 0.55405 0.31485 0.35579 0.0
C58 C 0.71589 0.16425 0.41963 0.0
C59 C 0.64143 0.2023 0.37394 0.0
C60 C 0.75707 0.20732 0.48082 0.0
C61 C 0.71843 0.28816 0.49808 0.0
C62 C 0.64461 0.32639 0.45336 0.0
C63 C 0.60879 0.28363 0.39124 0.0
N64 N 0.61227 0.41119 0.46042 0.0
C65 C 0.59589 0.45681 0.52951 0.0
H66 H 0.24226 0.83115 0.13245 0.0
H67 H 0.07204 0.71235 0.29217 0.0
H68 H 0.2276 0.89106 0.38055 0.0
C69 C 0.21372 0.82627 0.19127 0.0
C70 C 0.25316 0.86113 0.25757 0.0
C71 C 0.13837 0.78183 0.20319 0.0
C72 C 0.11489 0.76069 0.28097 0.0
C73 C 0.15796 0.79288 0.34404 0.0
C74 C 0.2065 0.8595 0.32931 0.0
N75 N 0.18043 0.74273 0.4119 0.0
C76 C 0.25961 0.75481 0.45107 0.0
H77 H 0.28433 0.46485 0.69403 0.0
H78 H 0.23705 0.71683 0.62298 0.0
H79 H 0.02124 0.56807 0.60922 0.0
C80 C 0.23995 0.51465 0.66742 0.0
C81 C 0.1505 0.50312 0.64404 0.0
C82 C 0.27169 0.59167 0.65775 0.0
C83 C 0.21507 0.65609 0.62384 0.0
C84 C 0.12253 0.65003 0.61718 0.0
C85 C 0.09248 0.57222 0.61796 0.0
N86 N 0.06523 0.71492 0.65039 0.0
C87 C 0.0866 0.72792 0.72877 0.0
C88 C 0.09835 0.14201 0.4406 0.0
N89 N 0.05284 0.26654 0.64983 0.0
C90 C 0.14271 0.27419 0.63909 0.0
C91 C 0.17551 0.3502 0.64012 0.0
C92 C 0.11625 0.42107 0.6521 0.0
C93 C 0.02408 0.41194 0.66591 0.0
C94 C 0.99352 0.33424 0.66218 0.0
Zn95 Zn 0.01305 0.15505 0.61354 0.0
C96 C 0.84344 0.17137 0.523 0.0
N97 N 0.97479 0.93191 0.51526 0.0
C98 C 0.03394 0.86589 0.4979 0.0
C99 C 0.88501 0.92528 0.52644 0.0
C100 C 0.85354 0.84953 0.5288 0.0
C101 C 0.91561 0.78018 0.52225 0.0
C102 C 1.00398 0.78818 0.49886 0.0
Zn103 Zn 0.01316 1.03545 0.558 0.0
O104 O 0.07187 0.18856 0.498 0.0
C105 C 0.1752 1.02827 0.65053 0.0
O106 O 0.0834 1.06709 0.44618 0.0
H107 H 0.83891 0.97645 0.545 0.0
H108 H 0.1895 0.22279 0.62202 0.0
H109 H 0.10507 0.87276 0.49211 0.0
O110 O 0.13617 0.09991 0.65512 0.0
O111 O 0.14031 0.97626 0.60817 0.0
H112 H 0.92184 0.32915 0.66369 0.0
O113 O 0.95406 0.99434 0.67342 0.0
O114 O 0.95971 0.11137 0.73175 0.0
O115 O 0.88262 0.10069 0.50634 0.0
O116 O 0.88223 0.21253 0.57364 0.0
C117 C 0.94719 1.03481 0.73751 0.0
H118 H 0.2462 0.35328 0.62632 0.0
H119 H 0.9749 0.4641 0.67668 0.0
H120 H 0.78372 0.84487 0.54522 0.0
H121 H 0.05039 0.73389 0.49221 0.0
C122 C 0.69514 1.05302 0.11285 0.0
N123 N 0.53564 0.26265 1.07479 0.0
C124 C 0.57464 0.31964 0.11758 0.0
C125 C 0.65348 0.35052 1.08996 0.0
C126 C 0.68931 0.32528 1.01614 0.0
C127 C 0.63649 0.27998 0.96745 0.0
C128 C 0.55901 0.25022 0.99753 0.0
Zn129 Zn 0.51252 0.15539 0.13505 0.0
C130 C 0.46469 1.01653 1.02365 0.0
N131 N 0.52261 0.92669 0.25646 0.0
C132 C 0.50242 0.86587 0.20777 0.0
C133 C 0.47063 0.94589 0.32081 0.0
C134 C 0.38154 0.9276 0.32111 0.0
C135 C 0.34935 0.8807 0.25938 0.0
C136 C 0.41382 0.84444 0.20572 0.0
Zn137 Zn 0.53454 1.03468 0.19759 0.0
O138 O 0.64239 0.11705 1.1002 0.0
C139 C 0.5998 0.16163 0.3047 0.0
O140 O 0.67001 0.99575 0.15661 0.0
H141 H 0.48978 0.99068 0.36217 0.0
H142 H 0.55212 0.33386 0.17721 0.0
H143 H 0.54875 0.84543 0.16083 0.0
O144 O 0.56663 0.20444 0.24544 0.0
O145 O 0.59527 0.08484 0.30345 0.0
H146 H 0.52669 0.20738 0.96238 0.0
O147 O 0.38997 0.08537 0.23994 0.0
O148 O 0.37913 0.19954 0.17037 0.0
O149 O 0.48502 0.97804 1.08816 0.0
O150 O 0.46274 0.09496 1.02524 0.0
C151 C 0.34423 0.15404 0.22099 0.0
H152 H 0.68925 0.38834 0.12852 0.0
H153 H 0.65791 0.26226 0.90828 0.0
H154 H 0.33857 0.956 0.36659 0.0
H155 H 0.39608 0.80199 0.16128 0.0
C156 C 0.57849 0.52072 0.58832 0.0
N157 N 0.56409 0.50955 0.83284 0.0
C158 C 0.54694 0.43417 0.80742 0.0
C159 C 0.61945 0.37628 0.78682 0.0
C160 C 0.7078 0.39716 0.79527 0.0
C161 C 0.72113 0.47033 0.83263 0.0
C162 C 0.64728 0.5212 0.86011 0.0
Zn163 Zn 0.53449 0.60008 0.74906 0.0
C164 C 0.71424 0.66615 0.69189 0.0
N165 N 0.5053 0.7741 0.56093 0.0
C166 C 0.43304 0.82786 0.58117 0.0
C167 C 0.50597 0.73614 0.48967 0.0
C168 C 0.42387 0.72642 0.45297 0.0
C169 C 0.34437 0.76375 0.4868 0.0
C170 C 0.34919 0.82065 0.5469 0.0
Zn171 Zn 0.53637 0.69085 0.65174 0.0
O172 O 0.55805 0.50419 0.65931 0.0
C173 C 0.36186 0.60874 0.68458 0.0
O174 O 0.57911 0.59524 0.56789 0.0
H175 H 0.56761 0.70302 0.46783 0.0
H176 H 0.47896 0.42407 0.78996 0.0
H177 H 0.43711 0.86847 0.63043 0.0
O178 O 0.39764 0.57837 0.74859 0.0
O179 O 0.40402 0.65646 0.64215 0.0
H180 H 0.65873 0.58033 0.88323 0.0
O181 O 0.49684 0.78232 0.73722 0.0
O182 O 0.50672 0.70345 0.84257 0.0
O183 O 0.66375 0.7222 0.6565 0.0
O184 O 0.67824 0.61504 0.73531 0.0
C185 C 0.4903 0.77587 0.81231 0.0
H186 H 0.60671 0.31822 0.76188 0.0
H187 H 0.78764 0.49032 0.83722 0.0
H188 H 0.42227 0.68874 0.40081 0.0
H189 H 0.28915 0.85707 0.56826 0.0
C190 C 0.93689 0.78397 0.94813 0.0
N191 N 0.83425 0.66368 0.1634 0.0
C192 C 0.84303 0.71013 0.22885 0.0
C193 C 0.8188 0.68163 0.30378 0.0
C194 C 0.78566 0.60506 0.31055 0.0
C195 C 0.7612 0.56682 0.24178 0.0
C196 C 0.7842 0.59876 0.16815 0.0
Zn197 Zn 0.94017 0.65387 1.07991 0.0
C198 C 0.919 0.52534 0.97023 0.0
N199 N 0.18163 0.61793 0.94056 0.0
C200 C 0.20743 0.69339 0.92258 0.0
C201 C 0.1571 0.57008 0.88154 0.0
C202 C 0.11684 0.60833 0.81448 0.0
C203 C 0.12249 0.69216 0.80159 0.0
C204 C 0.17523 0.73382 0.85267 0.0
Zn205 Zn 0.07067 0.63107 1.01373 0.0
O206 O 0.88849 0.76162 1.00621 0.0
C207 C 0.09347 0.74342 0.13887 0.0
O208 O 0.01105 0.73928 0.93559 0.0
H209 H 0.14935 0.50636 0.89363 0.0
H210 H 0.87767 0.76452 0.22516 0.0
H211 H 0.2408 0.72685 0.96666 0.0
O212 O 0.01245 0.72852 0.14902 0.0
O213 O 0.13811 0.71234 1.0811 0.0
H214 H 0.77054 0.56522 0.1165 0.0
O215 O 0.12794 0.52864 1.08986 0.0
O216 O 0.99685 0.54712 0.15012 0.0
O217 O 0.99945 0.53891 0.95286 0.0
O218 O 0.87191 0.5759 1.01306 0.0
C219 C 0.07433 0.50625 0.14288 0.0
H220 H 0.83314 0.71596 0.35575 0.0
H221 H 0.73192 0.50924 0.2448 0.0
H222 H 0.07865 0.57343 0.77544 0.0
H223 H 0.18785 0.79655 0.84057 0.0
loop_
_geom_bond_atom_site_label_1
_geom_bond_atom_site_label_2
_geom_bond_distance
_geom_bond_site_symmetry_2
_ccdc_geom_bond_type
H0 C3 0.929 . S
H1 C6 0.929 . S
H2 C8 0.930 . S
C3 H0 0.929 . S
C3 C4 1.398 . S
C3 C5 1.396 . S
C4 C3 1.398 . S
C4 C8 1.407 . S
C5 C3 1.396 . S
C5 C6 1.394 . S
C6 H1 0.929 . S
C6 C5 1.394 . S
C6 C7 1.382 . S
C7 C6 1.382 . S
C7 C8 1.392 . S
C7 N9 1.420 . S
C8 H2 0.930 . S
C8 C4 1.407 . S
C8 C7 1.392 . S
N9 C7 1.420 . S
N9 C10 1.244 . S
C10 N9 1.244 . S
H11 C14 0.929 . S
H12 C17 0.929 . S
H13 C19 0.930 . S
C14 H11 0.929 . S
C14 C15 1.398 . S
C14 C16 1.396 . S
C15 C14 1.398 . S
C15 C19 1.407 . S
C16 C14 1.396 . S
C16 C17 1.394 . S
C17 H12 0.929 . S
C17 C16 1.394 . S
C17 C18 1.382 . S
C18 C17 1.382 . S
C18 C19 1.392 . S
C18 N20 1.420 . S
C19 H13 0.930 . S
C19 C15 1.407 . S
C19 C18 1.392 . S
N20 C18 1.420 . S
N20 C21 1.244 . S
C21 N20 1.244 . S
H22 C25 0.929 . S
H23 C28 0.929 . S
H24 C30 0.930 . S
C25 H22 0.929 . S
C25 C26 1.398 1_554 S
C25 C27 1.396 1_554 S
C26 C25 1.398 1_556 S
C26 C30 1.407 . S
C27 C25 1.396 1_556 S
C27 C28 1.394 . S
C28 H23 0.929 . S
C28 C27 1.394 . S
C28 C29 1.382 . S
C29 C28 1.382 . S
C29 C30 1.392 . S
C29 N31 1.420 . S
C30 H24 0.930 . S
C30 C26 1.407 . S
C30 C29 1.392 . S
N31 C29 1.420 . S
N31 C32 1.244 . S
C32 N31 1.244 . S
H33 C36 0.929 . S
H34 C39 0.929 . S
H35 C41 0.930 . S
C36 H33 0.929 . S
C36 C37 1.398 . S
C36 C38 1.396 . S
C37 C36 1.398 . S
C37 C41 1.407 . S
C38 C36 1.396 . S
C38 C39 1.394 . S
C39 H34 0.929 . S
C39 C38 1.394 . S
C39 C40 1.382 . S
C40 C39 1.382 . S
C40 C41 1.392 . S
C40 N42 1.420 . S
C41 H35 0.930 . S
C41 C37 1.407 . S
C41 C40 1.392 . S
N42 C40 1.420 . S
N42 C43 1.244 . S
C43 N42 1.244 . S
H44 C47 0.929 1_455 S
H45 C50 0.929 . S
H46 C52 0.930 1_545 S
C47 H44 0.929 1_655 S
C47 C48 1.398 . S
C47 C49 1.396 . S
C48 C47 1.398 . S
C48 C52 1.407 . S
C49 C47 1.396 . S
C49 C50 1.394 . S
C50 H45 0.929 . S
C50 C49 1.394 . S
C50 C51 1.382 . S
C51 C50 1.382 . S
C51 C52 1.392 . S
C51 N53 1.420 . S
C52 H46 0.930 1_565 S
C52 C48 1.407 . S
C52 C51 1.392 . S
N53 C51 1.420 . S
N53 C54 1.244 . S
C54 N53 1.244 . S
H55 C58 0.929 . S
H56 C61 0.929 . S
H57 C63 0.930 . S
C58 H55 0.929 . S
C58 C59 1.398 . S
C58 C60 1.396 . S
C59 C58 1.398 . S
C59 C63 1.407 . S
C60 C58 1.396 . S
C60 C61 1.394 . S
C61 H56 0.929 . S
C61 C60 1.394 . S
C61 C62 1.382 . S
C62 C61 1.382 . S
C62 C63 1.392 . S
C62 N64 1.420 . S
C63 H57 0.930 . S
C63 C59 1.407 . S
C63 C62 1.392 . S
N64 C62 1.420 . S
N64 C65 1.244 . S
C65 N64 1.244 . S
H66 C69 0.929 1_556 S
H67 C72 0.929 . S
H68 C74 0.930 . S
C69 H66 0.929 1_554 S
C69 C70 1.398 . S
C69 C71 1.396 . S
C70 C69 1.398 . S
C70 C74 1.407 . S
C71 C69 1.396 . S
C71 C72 1.394 . S
C72 H67 0.929 . S
C72 C71 1.394 . S
C72 C73 1.382 . S
C73 C72 1.382 . S
C73 C74 1.392 . S
C73 N75 1.420 . S
C74 H68 0.930 . S
C74 C70 1.407 . S
C74 C73 1.392 . S
N75 C73 1.420 . S
N75 C76 1.244 . S
C76 N75 1.244 . S
H77 C80 0.929 . S
H78 C83 0.929 . S
H79 C85 0.930 . S
C80 H77 0.929 . S
C80 C81 1.398 . S
C80 C82 1.396 . S
C81 C80 1.398 . S
C81 C85 1.407 . S
C82 C80 1.396 . S
C82 C83 1.394 . S
C83 H78 0.929 . S
C83 C82 1.394 . S
C83 C84 1.382 . S
C84 C83 1.382 . S
C84 C85 1.392 . S
C84 N86 1.420 . S
C85 H79 0.930 . S
C85 C81 1.407 . S
C85 C84 1.392 . S
N86 C84 1.420 . S
N86 C87 1.244 . S
C87 N86 1.244 . S
C88 O104 1.251 . S
C88 O106 1.256 . S
N89 C90 1.333 . S
N89 C94 1.307 . S
N89 Zn95 2.020 . S
C90 N89 1.333 . S
C90 C91 1.379 . S
C90 H108 0.952 . S
C91 C90 1.379 . S
C91 C92 1.390 . S
C91 H118 0.949 . S
C92 C91 1.390 . S
C92 C93 1.357 . S
C93 C92 1.357 . S
C93 C94 1.370 . S
C93 H119 0.950 . S
C94 N89 1.307 . S
C94 C93 1.370 . S
C94 H112 0.948 . S
Zn95 N89 2.020 . S
Zn95 O104 2.039 . S
Zn95 O110 2.034 . S
Zn95 O114 2.025 1_455 S
Zn95 O116 2.024 1_455 S
C96 O115 1.246 . S
C96 O116 1.249 . S
N97 C98 1.307 . S
N97 C99 1.333 . S
N97 Zn103 2.020 . S
C98 N97 1.307 . S
C98 C102 1.370 . S
C98 H109 0.948 1_655 S
C99 N97 1.333 . S
C99 C100 1.379 . S
C99 H107 0.952 . S
C100 C99 1.379 . S
C100 C101 1.390 . S
C100 H120 0.949 . S
C101 C100 1.390 . S
C101 C102 1.357 . S
C102 C98 1.370 . S
C102 C101 1.357 . S
C102 H121 0.950 . S
Zn103 N97 2.020 . S
Zn103 O106 2.025 1_665 S
Zn103 O111 2.024 1_655 S
Zn103 O113 2.039 . S
Zn103 O115 2.034 1_565 S
O104 C88 1.251 . S
O104 Zn95 2.039 . S
C105 O110 1.246 1_565 S
C105 O111 1.249 . S
O106 C88 1.256 . S
O106 Zn103 2.025 1_445 S
H107 C99 0.952 . S
H108 C90 0.952 . S
H109 C98 0.948 1_455 S
O110 Zn95 2.034 . S
O110 C105 1.246 1_545 S
O111 Zn103 2.024 1_455 S
O111 C105 1.249 . S
H112 C94 0.948 . S
O113 Zn103 2.039 . S
O113 C117 1.251 1_565 S
O114 Zn95 2.025 1_655 S
O114 C117 1.254 . S
O115 C96 1.246 . S
O115 Zn103 2.034 1_545 S
O116 Zn95 2.024 1_655 S
O116 C96 1.249 . S
C117 O113 1.251 1_545 S
C117 O114 1.254 . S
H118 C91 0.949 . S
H119 C93 0.950 . S
H120 C100 0.949 . S
H121 C102 0.950 . S
C122 O138 1.251 1_565 S
C122 O140 1.254 1_556 S
N123 C124 1.333 . S
N123 C128 1.307 . S
N123 Zn129 2.020 . S
C124 N123 1.333 . S
C124 C125 1.379 . S
C124 H142 0.952 . S
C125 C124 1.379 . S
C125 C126 1.390 . S
C125 H152 0.949 . S
C126 C125 1.390 . S
C126 C127 1.357 . S
C127 C126 1.357 . S
C127 C128 1.370 . S
C127 H153 0.950 . S
C128 N123 1.307 . S
C128 C127 1.370 . S
C128 H146 0.948 . S
Zn129 N123 2.020 . S
Zn129 O138 2.039 . S
Zn129 O144 2.034 1_556 S
Zn129 O148 2.025 1_556 S
Zn129 O150 2.024 . S
C130 O149 1.246 1_545 S
C130 O150 1.249 . S
N131 C132 1.307 . S
N131 C133 1.333 . S
N131 Zn137 2.020 . S
C132 N131 1.307 . S
C132 C136 1.370 . S
C132 H143 0.948 . S
C133 N131 1.333 . S
C133 C134 1.379 . S
C133 H141 0.952 . S
C134 C133 1.379 . S
C134 C135 1.390 . S
C134 H154 0.949 . S
C135 C134 1.390 . S
C135 C136 1.357 . S
C136 C132 1.370 . S
C136 C135 1.357 . S
C136 H155 0.950 . S
Zn137 N131 2.020 . S
Zn137 O140 2.025 . S
Zn137 O145 2.020 1_565 S
Zn137 O147 2.039 1_565 S
Zn137 O149 2.034 1_554 S
O138 C122 1.251 1_545 S
O138 Zn129 2.039 . S
C139 O144 1.246 . S
C139 O145 1.262 . S
O140 C122 1.254 1_554 S
O140 Zn137 2.025 . S
H141 C133 0.952 . S
H142 C124 0.952 . S
H143 C132 0.948 . S
O144 Zn129 2.034 1_554 S
O144 C139 1.246 . S
O145 Zn137 2.020 1_545 S
O145 C139 1.262 . S
H146 C128 0.948 . S
O147 Zn137 2.039 1_545 S
O147 C151 1.251 . S
O148 Zn129 2.025 1_554 S
O148 C151 1.254 . S
O149 C130 1.246 1_565 S
O149 Zn137 2.034 1_556 S
O150 Zn129 2.024 . S
O150 C130 1.249 . S
C151 O147 1.251 . S
C151 O148 1.254 . S
H152 C125 0.949 . S
H153 C127 0.950 . S
H154 C134 0.949 . S
H155 C136 0.950 . S
C156 O172 1.251 . S
C156 O174 1.254 . S
N157 C158 1.333 . S
N157 C162 1.307 . S
N157 Zn163 2.020 . S
C158 N157 1.333 . S
C158 C159 1.379 . S
C158 H176 0.952 . S
C159 C158 1.379 . S
C159 C160 1.390 . S
C159 H186 0.949 . S
C160 C159 1.390 . S
C160 C161 1.357 . S
C161 C160 1.357 . S
C161 C162 1.370 . S
C161 H187 0.950 . S
C162 N157 1.307 . S
C162 C161 1.370 . S
C162 H180 0.948 . S
Zn163 N157 2.020 . S
Zn163 O172 2.039 . S
Zn163 O178 2.034 . S
Zn163 O182 2.025 . S
Zn163 O184 2.024 . S
C164 O183 1.246 . S
C164 O184 1.249 . S
N165 C166 1.307 . S
N165 C167 1.333 . S
N165 Zn171 2.020 . S
C166 N165 1.307 . S
C166 C170 1.370 . S
C166 H177 0.948 . S
C167 N165 1.333 . S
C167 C168 1.379 . S
C167 H175 0.952 . S
C168 C167 1.379 . S
C168 C169 1.390 . S
C168 H188 0.949 . S
C169 C168 1.390 . S
C169 C170 1.357 . S
C170 C166 1.370 . S
C170 C169 1.357 . S
C170 H189 0.950 . S
Zn171 N165 2.020 . S
Zn171 O174 2.025 . S
Zn171 O179 2.024 . S
Zn171 O181 2.039 . S
Zn171 O183 2.034 . S
O172 C156 1.251 . S
O172 Zn163 2.039 . S
C173 O178 1.246 . S
C173 O179 1.249 . S
O174 C156 1.254 . S
O174 Zn171 2.025 . S
H175 C167 0.952 . S
H176 C158 0.952 . S
H177 C166 0.948 . S
O178 Zn163 2.034 . S
O178 C173 1.246 . S
O179 Zn171 2.024 . S
O179 C173 1.249 . S
H180 C162 0.948 . S
O181 Zn171 2.039 . S
O181 C185 1.251 . S
O182 Zn163 2.025 . S
O182 C185 1.254 . S
O183 C164 1.246 . S
O183 Zn171 2.034 . S
O184 Zn163 2.024 . S
O184 C164 1.249 . S
C185 O181 1.251 . S
C185 O182 1.254 . S
H186 C159 0.949 . S
H187 C161 0.950 . S
H188 C168 0.949 . S
H189 C170 0.950 . S
C190 O206 1.251 1_556 S
C190 O208 1.254 1_655 S
N191 C192 1.333 . S
N191 C196 1.307 . S
N191 Zn197 2.020 . S
C192 N191 1.333 . S
C192 C193 1.379 . S
C192 H210 0.952 . S
C193 C192 1.379 . S
C193 C194 1.390 . S
C193 H220 0.949 . S
C194 C193 1.390 . S
C194 C195 1.357 . S
C195 C194 1.357 . S
C195 C196 1.370 . S
C195 H221 0.950 . S
C196 N191 1.307 . S
C196 C195 1.370 . S
C196 H214 0.948 . S
Zn197 N191 2.020 . S
Zn197 O206 2.039 . S
Zn197 O212 2.034 1_655 S
Zn197 O216 2.025 1_655 S
Zn197 O218 2.024 . S
C198 O217 1.246 . S
C198 O218 1.249 1_556 S
N199 C200 1.307 . S
N199 C201 1.333 . S
N199 Zn205 2.020 . S
C200 N199 1.307 . S
C200 C204 1.370 . S
C200 H211 0.948 . S
C201 N199 1.333 . S
C201 C202 1.379 . S
C201 H209 0.952 . S
C202 C201 1.379 . S
C202 C203 1.390 . S
C202 H222 0.949 . S
C203 C202 1.390 . S
C203 C204 1.357 . S
C204 C200 1.370 . S
C204 C203 1.357 . S
C204 H223 0.950 . S
Zn205 N199 2.020 . S
Zn205 O208 2.025 . S
Zn205 O213 2.024 . S
Zn205 O215 2.039 . S
Zn205 O217 2.034 1_455 S
O206 C190 1.251 1_554 S
O206 Zn197 2.039 . S
C207 O212 1.246 . S
C207 O213 1.249 1_554 S
O208 C190 1.254 1_455 S
O208 Zn205 2.025 . S
H209 C201 0.952 . S
H210 C192 0.952 . S
H211 C200 0.948 . S
O212 Zn197 2.034 1_455 S
O212 C207 1.246 . S
O213 Zn205 2.024 . S
O213 C207 1.249 1_556 S
H214 C196 0.948 . S
O215 Zn205 2.039 . S
O215 C219 1.251 1_556 S
O216 Zn197 2.025 1_455 S
O216 C219 1.254 . S
O217 C198 1.246 . S
O217 Zn205 2.034 1_655 S
O218 Zn197 2.024 . S
O218 C198 1.249 1_554 S
C219 O215 1.251 1_554 S
C219 O216 1.254 . S
H220 C193 0.949 . S
H221 C195 0.950 . S
H222 C202 0.949 . S
H223 C204 0.950 . S
C4 C88 3.441 . S
C16 C130 3.738 1_565 S
C160 C32 0.813 . S
C43 C194 0.974 . S
C151 C5 2.847 . S
C105 C21 2.118 . S
C198 C27 0.844 . S
C164 C37 0.238 . S
C10 C219 2.799 . S
C126 C26 1.863 . S
C38 C101 1.734 . S
C15 C185 3.272 . S
C117 C48 3.690 1_545 S
C59 C139 3.265 . S
C76 C169 1.122 . S
C87 C203 0.764 . S
C54 C122 1.946 . S
C96 C60 2.754 . S
C207 C71 0.233 . S
C173 C82 0.676 . S
C49 C190 3.442 . S
C135 C70 1.675 . S
C92 C81 1.718 . S
C65 C156 2.734 . S
