# Generated by pormake.
# Topology rtl, (3,6)-cn, num edge types: 1
# Building blocks:
#     Node 0, Type 0, BuildingBlock: INOVEN_clean_linker_0, # of connection points: 3
#     Node 1, Type 0, BuildingBlock: INOVEN_clean_linker_0, # of connection points: 3
#     Node 2, Type 0, BuildingBlock: INOVEN_clean_linker_0, # of connection points: 3
#     Node 3, Type 0, BuildingBlock: INOVEN_clean_linker_0, # of connection points: 3
#     Node 4, Type 1, BuildingBlock: KUMBUR_clean_sbu_1, # of connection points: 6
#     Node 5, Type 1, BuildingBlock: KUMBUR_clean_sbu_1, # of connection points: 6
#     Edge 6, Type (0, 1), None
#     Edge 7, Type (0, 1), None
#     Edge 8, Type (0, 1), None
#     Edge 9, Type (0, 1), None
#     Edge 10, Type (0, 1), None
#     Edge 11, Type (0, 1), None
#     Edge 12, Type (0, 1), None
#     Edge 13, Type (0, 1), None
#     Edge 14, Type (0, 1), None
#     Edge 15, Type (0, 1), None
#     Edge 16, Type (0, 1), None
#     Edge 17, Type (0, 1), None
# Relax obj value: 0.052
# Max RMSD: 0.289
# Mean RMSD: 0.196
data_MOF--net-rtl--node1-KUMBUR_clean_sbu_1--node2-INOVEN_clean_linker_0--edge1-none
_symmetry_space_group_name_H-M    P1
_symmetry_Int_Tables_number       1
_symmetry_cell_setting            triclinic
loop_
_symmetry_equiv_pos_as_xyz
'x, y, z'
_cell_length_a     15.745942
_cell_length_b     16.565073
_cell_length_c     13.980987
_cell_angle_alpha  67.045634
_cell_angle_beta   97.917281
_cell_angle_gamma 94.112054
loop_
_atom_site_label
_atom_site_type_symbol
_atom_site_fract_x
_atom_site_fract_y
_atom_site_fract_z
_atom_type_partial_charge
H0 H 0.22621 0.8412 0.80078 0.0
H1 H 0.05307 0.93741 0.94262 0.0
H2 H 0.24162 0.7464 0.13292 0.0
N3 N 0.30585 0.72991 0.97111 0.0
N4 N 0.34679 0.68583 0.05641 0.0
C5 C 0.20168 0.84098 0.8684 0.0
C6 C 0.13442 0.89605 0.85718 0.0
C7 C 0.24002 0.78662 0.96603 0.0
C8 C 0.21271 0.78924 0.05642 0.0
C9 C 0.14608 0.84435 0.04954 0.0
C10 C 0.10701 0.89815 0.94894 0.0
H11 H 0.69494 0.77759 0.86524 0.0
H12 H 0.59397 0.54906 0.81306 0.0
H13 H 0.76866 0.72244 0.61287 0.0
N14 N 0.79485 0.83384 0.71233 0.0
N15 N 0.84928 0.84434 0.65134 0.0
C16 C 0.69072 0.73637 0.82118 0.0
C17 C 0.63852 0.66012 0.84883 0.0
C18 C 0.73852 0.75914 0.73649 0.0
C19 C 0.73177 0.70577 0.67813 0.0
C20 C 0.67814 0.63074 0.70375 0.0
C21 C 0.63339 0.6079 0.79049 0.0
H22 H 0.82693 0.27913 -0.00039 0.0
H23 H 0.9994 0.10436 0.2468 0.0
H24 H 0.8212 0.24894 0.31904 0.0
N25 N 0.74816 0.33478 0.11899 0.0
N26 N 0.72017 0.36248 0.17971 0.0
C27 C 0.85023 0.24862 0.08205 0.0
C28 C 0.91754 0.18853 0.11537 0.0
C29 C 0.81526 0.27204 0.1549 0.0
C30 C 0.84759 0.23241 0.26221 0.0
C31 C 0.91245 0.16955 0.29601 0.0
C32 C 0.94716 0.1496 0.22178 0.0
H33 H 0.35793 0.29319 0.32369 0.0
H34 H 0.47311 0.50673 0.39719 0.0
H35 H 0.27258 0.35067 0.56868 0.0
N36 N 0.24263 0.24678 0.45591 0.0
N37 N 0.19741 0.22077 0.52924 0.0
C38 C 0.36157 0.33348 0.36862 0.0
C39 C 0.42208 0.40273 0.35108 0.0
C40 C 0.30602 0.31488 0.44519 0.0
C41 C 0.31442 0.36441 0.50859 0.0
C42 C 0.37597 0.4332 0.49258 0.0
C43 C 0.42821 0.45203 0.41285 0.0
Tb44 Tb 0.08301 0.9746 0.50204 0.0
C45 C 0.92314 0.30244 0.54045 0.0
N46 N 0.98943 0.25086 0.6009 0.0
C47 C 0.07131 0.37749 0.60468 0.0
C48 C 0.92952 0.39426 0.50812 0.0
C49 C 0.06164 0.28647 0.63653 0.0
C50 C 1.00534 0.43172 0.53929 0.0
C51 C 0.77542 0.31323 0.4593 0.0
C52 C 0.84652 0.26227 0.51603 0.0
C53 C 0.7832 0.40447 0.42398 0.0
C54 C 0.85944 0.44529 0.44797 0.0
Tb55 Tb 0.96317 0.10495 0.6448 0.0
N56 N 0.84235 0.17316 0.54755 0.0
C57 C 0.69875 0.27097 0.43921 0.0
C58 C 0.76764 0.13119 0.52979 0.0
C59 C 0.69486 0.1796 0.47481 0.0
H60 H 0.11154 0.24493 0.69033 0.0
H61 H 0.63573 0.14646 0.46016 0.0
H62 H 1.00481 0.76784 0.58028 0.0
H63 H 0.41222 0.09813 0.49523 0.0
H64 H 0.76319 0.06068 0.55802 0.0
H65 H 0.64217 0.30804 0.39673 0.0
H66 H 0.25791 0.10536 0.4359 0.0
H67 H 0.12914 0.40573 0.63164 0.0
H68 H 0.73009 0.44358 0.37801 0.0
H69 H 0.86302 0.51616 0.42093 0.0
H70 H 0.05888 0.62092 0.68966 0.0
H71 H 1.01265 0.50216 0.51569 0.0
H72 H 0.47438 0.95908 0.62504 0.0
N73 N 0.12582 0.83287 0.59074 0.0
C74 C 0.21068 0.82277 0.62591 0.0
C75 C 0.10217 0.67722 0.67309 0.0
C76 C 0.2437 0.73968 0.69109 0.0
C77 C 0.07179 0.76118 0.61109 0.0
C78 C 0.18825 0.66652 0.71478 0.0
N79 N 0.22951 0.97608 0.53989 0.0
C80 C 0.28258 0.04633 0.49703 0.0
C81 C 0.35258 0.88848 0.63609 0.0
C82 C 0.26396 0.89674 0.60092 0.0
C83 C 0.40593 0.96273 0.60053 0.0
C84 C 0.37101 0.04145 0.5282 0.0
H85 H 0.21133 0.60162 0.76456 0.0
H86 H 0.35456 0.67052 0.78925 0.0
H87 H 0.45229 0.79924 0.73537 0.0
O88 O 0.14573 0.97148 0.37719 0.0
O89 O 0.09205 0.91588 0.67611 0.0
O90 O 0.0804 0.03252 0.72528 0.0
O91 O 1.01267 0.94374 0.38104 0.0
O92 O 0.11893 0.11384 0.47452 0.0
O93 O 0.10043 0.12289 0.63107 0.0
O94 O 0.93118 0.0288 0.79726 0.0
O95 O 0.94788 0.16155 0.47296 0.0
O96 O 0.9599 0.03904 0.44183 0.0
O97 O 0.91809 0.1674 0.7315 0.0
O98 O 0.89355 0.98612 0.64172 0.0
O99 O 0.97318 0.90539 0.57974 0.0
C100 C 0.09372 0.94889 0.74918 0.0
C101 C 0.08167 0.87941 0.28796 0.0
C102 C 0.11031 0.8319 0.14854 0.0
C103 C 0.08099 0.74725 0.20821 0.0
C104 C 0.05005 0.79458 0.34235 0.0
C105 C 0.05029 0.72918 0.30324 0.0
C106 C 0.11069 0.89845 0.1891 0.0
C107 C 0.1351 0.15172 0.54318 0.0
C108 C 0.07702 0.94889 0.33029 0.0
C109 C 0.33012 0.73271 0.73339 0.0
C110 C 0.385 0.80643 0.70452 0.0
C111 C 0.94543 0.12267 0.40758 0.0
C112 C 0.96218 0.10988 0.90607 0.0
C113 C 0.96188 0.16723 0.0417 0.0
C114 C 0.05181 0.17308 0.04972 0.0
C115 C 0.05214 0.11561 0.91612 0.0
C116 C 0.91699 0.13568 0.96909 0.0
C117 C 0.09672 0.14672 0.98821 0.0
C118 C 0.90832 0.91574 0.62417 0.0
C119 C 0.91579 0.09768 0.81478 0.0
H120 H 0.08171 0.69445 0.1809 0.0
H121 H 1.02335 0.77881 0.41448 0.0
H122 H 1.0263 0.66397 0.34684 0.0
H123 H 0.13417 0.96379 0.14503 0.0
H124 H 0.08696 0.19863 0.10367 0.0
H125 H 0.08773 0.09992 0.86498 0.0
H126 H 0.84746 0.13279 0.96023 0.0
H127 H 0.16603 0.15215 -0.00502 0.0
Tb128 Tb 0.46412 0.46928 0.01496 0.0
C129 C 0.75054 0.72184 0.08414 0.0
N130 N 0.73942 0.63414 0.13773 0.0
C131 C 0.88619 0.61024 0.12956 0.0
C132 C 0.8303 0.75698 0.05012 0.0
C133 C 0.80611 0.57834 0.16249 0.0
C134 C 0.89808 0.69979 0.07227 0.0
C135 C 0.68955 0.86688 0.00305 0.0
C136 C 0.68003 0.77565 0.05859 0.0
C137 C 0.76947 0.90239 0.97079 0.0
C138 C 0.83947 0.84752 -0.0063 0.0
Tb139 Tb 0.60581 0.591 0.1863 0.0
N140 N 0.60269 0.73879 0.08833 0.0
C141 C 0.61872 0.91991 0.98251 0.0
C142 C 0.53592 0.79162 0.0764 0.0
C143 C 0.54201 0.88224 0.02083 0.0
H144 H 0.79773 0.50933 0.20747 0.0
H145 H 0.48816 0.92329 0.0101 0.0
H146 H 0.26893 0.541 -0.00054 0.0
H147 H 0.58981 0.14039 0.16643 0.0
H148 H 0.47904 0.76579 0.11352 0.0
H149 H 0.6234 0.99024 0.94024 0.0
H150 H 0.59119 0.29862 0.0648 0.0
H151 H 0.93865 0.56574 0.14819 0.0
H152 H 0.77772 0.97223 0.92792 0.0
H153 H 0.90044 0.87568 0.96756 0.0
H154 H 0.13114 0.47824 0.06447 0.0
H155 H 0.95959 0.72415 0.04495 0.0
H156 H 0.46095 0.06743 0.24891 0.0
N157 N 0.33231 0.41867 0.06658 0.0
C158 C 0.32435 0.33041 0.11846 0.0
C159 C 0.18514 0.43605 0.08066 0.0
C160 C 0.2468 0.29177 0.15667 0.0
C161 C 0.2635 0.47152 0.04468 0.0
C162 C 0.17701 0.34599 0.13794 0.0
N163 N 0.47108 0.31999 0.10458 0.0
C164 C 0.5377 0.26998 0.10776 0.0
C165 C 0.39086 0.18806 0.19399 0.0
C166 C 0.39639 0.27975 0.13942 0.0
C167 C 0.4626 0.138 0.20746 0.0
C168 C 0.53572 0.17902 0.16207 0.0
H169 H 0.1166 0.31905 0.16712 0.0
H170 H 0.18462 0.17018 0.24839 0.0
H171 H 0.30868 0.07896 0.27495 0.0
O172 O 0.49284 0.42634 0.89964 0.0
O173 O 0.42735 0.44579 0.1691 0.0
O174 O 0.5511 0.46029 0.27123 0.0
O175 O 0.36977 0.47781 0.88979 0.0
O176 O 0.60439 0.44324 0.05737 0.0
O177 O 0.6396 0.45681 0.21708 0.0
O178 O 0.57164 0.63721 0.29612 0.0
O179 O 0.64091 0.60996 0.0329 0.0
O180 O 0.51392 0.60217 0.93473 0.0
O181 O 0.69873 0.59308 0.30816 0.0
O182 O 0.46778 0.61095 0.15264 0.0
O183 O 0.42144 0.60057 0.99262 0.0
C184 C 0.47125 0.43199 0.26049 0.0
C185 C 0.41593 0.49159 0.73171 0.0
C186 C 0.38858 0.48547 0.55897 0.0
C187 C 0.40462 0.57661 0.51402 0.0
C188 C 0.43482 0.58146 0.68573 0.0
C189 C 0.4281 0.624 0.57727 0.0
C190 C 0.393 0.44373 0.66828 0.0
C191 C 0.65259 0.42366 0.14887 0.0
C192 C 0.41809 0.44643 0.84533 0.0
C193 C 0.24249 0.20103 0.21508 0.0
C194 C 0.31375 0.14915 0.23195 0.0
C195 C 0.59386 0.62944 0.94261 0.0
C196 C 0.64605 0.57265 0.46499 0.0
C197 C 0.66578 0.57813 0.63788 0.0
C198 C 0.65395 0.48637 0.68236 0.0
C199 C 0.63211 0.48164 0.51011 0.0
C200 C 0.66158 0.62047 0.52874 0.0
C201 C 0.63646 0.43873 0.61847 0.0
C202 C 0.41475 0.63073 0.06619 0.0
C203 C 0.646 0.61998 0.35207 0.0
H204 H 0.40057 0.61105 0.42993 0.0
H205 H 0.45549 0.6185 0.73361 0.0
H206 H 0.44214 0.69363 0.54221 0.0
H207 H 0.38122 0.3736 0.70431 0.0
H208 H 0.658 0.4513 0.76631 0.0
H209 H 0.61728 0.44373 0.46205 0.0
H210 H 0.66887 0.69118 0.49255 0.0
H211 H 0.62621 0.36842 0.653 0.0
loop_
_geom_bond_atom_site_label_1
_geom_bond_atom_site_label_2
_geom_bond_distance
_geom_bond_site_symmetry_2
_ccdc_geom_bond_type
H0 C5 0.929 . S
H1 C10 0.931 . S
H2 C8 0.930 . S
N3 N4 1.234 . S
N3 C7 1.453 . S
N4 N3 1.234 . S
C5 H0 0.929 . S
C5 C6 1.373 . S
C5 C7 1.368 1_556 S
C6 C5 1.373 . S
C6 C10 1.397 . S
C7 N3 1.453 . S
C7 C5 1.368 1_554 S
C7 C8 1.373 . S
C8 H2 0.930 . S
C8 C7 1.373 . S
C8 C9 1.371 . S
C9 C8 1.371 . S
C9 C10 1.383 1_554 S
C10 H1 0.931 . S
C10 C6 1.397 . S
C10 C9 1.383 1_556 S
H11 C16 0.929 . S
H12 C21 0.931 . S
H13 C19 0.930 . S
N14 N15 1.234 . S
N14 C18 1.453 . S
N15 N14 1.234 . S
C16 H11 0.929 . S
C16 C17 1.373 . S
C16 C18 1.368 . S
C17 C16 1.373 . S
C17 C21 1.397 . S
C18 N14 1.453 . S
C18 C16 1.368 . S
C18 C19 1.373 . S
C19 H13 0.930 . S
C19 C18 1.373 . S
C19 C20 1.371 . S
C20 C19 1.371 . S
C20 C21 1.383 . S
C21 H12 0.931 . S
C21 C17 1.397 . S
C21 C20 1.383 . S
H22 C27 0.929 1_556 S
H23 C32 0.931 . S
H24 C30 0.930 . S
N25 N26 1.234 . S
N25 C29 1.453 . S
N26 N25 1.234 . S
C27 H22 0.929 1_554 S
C27 C28 1.373 . S
C27 C29 1.368 . S
C28 C27 1.373 . S
C28 C32 1.397 . S
C29 N25 1.453 . S
C29 C27 1.368 . S
C29 C30 1.373 . S
C30 H24 0.930 . S
C30 C29 1.373 . S
C30 C31 1.371 . S
C31 C30 1.371 . S
C31 C32 1.383 . S
C32 H23 0.931 . S
C32 C28 1.397 . S
C32 C31 1.383 . S
H33 C38 0.929 . S
H34 C43 0.931 . S
H35 C41 0.930 . S
N36 N37 1.234 . S
N36 C40 1.453 . S
N37 N36 1.234 . S
C38 H33 0.929 . S
C38 C39 1.373 . S
C38 C40 1.368 . S
C39 C38 1.373 . S
C39 C43 1.397 . S
C40 N36 1.453 . S
C40 C38 1.368 . S
C40 C41 1.373 . S
C41 H35 0.930 . S
C41 C40 1.373 . S
C41 C42 1.371 . S
C42 C41 1.371 . S
C42 C43 1.383 . S
C43 H34 0.931 . S
C43 C39 1.397 . S
C43 C42 1.383 . S
Tb44 N73 2.617 . S
Tb44 N79 2.572 . S
Tb44 O88 2.465 . S
Tb44 O89 2.387 . S
Tb44 O91 2.428 . S
Tb44 O92 2.308 1_565 S
Tb44 O96 2.349 1_465 S
Tb44 O99 2.393 1_455 S
Tb44 C108 2.802 . S
C45 N46 1.379 . S
C45 C48 1.416 . S
C45 C52 1.424 . S
N46 C45 1.379 . S
N46 C49 1.334 1_655 S
N46 Tb55 2.617 . S
C47 C49 1.390 . S
C47 C50 1.339 1_455 S
C47 H67 0.930 . S
C48 C45 1.416 . S
C48 C50 1.416 . S
C48 C54 1.448 . S
C49 N46 1.334 1_455 S
C49 C47 1.390 . S
C49 H60 0.930 . S
C50 C47 1.339 1_655 S
C50 C48 1.416 . S
C50 H71 0.930 . S
C51 C52 1.413 . S
C51 C53 1.427 . S
C51 C57 1.416 . S
C52 C45 1.424 . S
C52 C51 1.413 . S
C52 N56 1.361 . S
C53 C51 1.427 . S
C53 C54 1.328 . S
C53 H68 0.929 . S
C54 C48 1.448 . S
C54 C53 1.328 . S
C54 H69 0.930 . S
Tb55 N46 2.617 . S
Tb55 N56 2.572 . S
Tb55 O90 2.349 1_655 S
Tb55 O93 2.393 1_655 S
Tb55 O94 2.465 . S
Tb55 O95 2.387 . S
Tb55 O97 2.428 . S
Tb55 O98 2.308 1_545 S
Tb55 C119 2.802 . S
N56 C52 1.361 . S
N56 Tb55 2.572 . S
N56 C58 1.340 . S
C57 C51 1.416 . S
C57 C59 1.332 . S
C57 H65 0.931 . S
C58 N56 1.340 . S
C58 C59 1.407 . S
C58 H64 0.930 . S
C59 C57 1.332 . S
C59 C58 1.407 . S
C59 H61 0.929 . S
H60 C49 0.930 . S
H61 C59 0.929 . S
H62 C77 0.930 1_655 S
H63 C84 0.929 . S
H64 C58 0.930 . S
H65 C57 0.931 . S
H66 C80 0.930 . S
H67 C47 0.930 . S
H68 C53 0.929 . S
H69 C54 0.930 . S
H70 C75 0.930 1_655 S
H71 C50 0.930 . S
H72 C83 0.931 . S
N73 Tb44 2.617 . S
N73 C74 1.379 . S
N73 C77 1.334 . S
C74 N73 1.379 . S
C74 C76 1.416 . S
C74 C82 1.424 . S
C75 H70 0.930 1_455 S
C75 C77 1.390 . S
C75 C78 1.339 . S
C76 C74 1.416 . S
C76 C78 1.416 . S
C76 C109 1.448 . S
C77 H62 0.930 1_455 S
C77 N73 1.334 . S
C77 C75 1.390 . S
C78 C75 1.339 . S
C78 C76 1.416 . S
C78 H85 0.930 . S
N79 Tb44 2.572 . S
N79 C80 1.340 . S
N79 C82 1.361 . S
C80 H66 0.930 . S
C80 N79 1.340 . S
C80 C84 1.407 . S
C81 C82 1.413 . S
C81 C83 1.416 . S
C81 C110 1.427 . S
C82 C74 1.424 . S
C82 N79 1.361 . S
C82 C81 1.413 . S
C83 H72 0.931 . S
C83 C81 1.416 . S
C83 C84 1.332 . S
C84 H63 0.929 . S
C84 C80 1.407 . S
C84 C83 1.332 . S
H85 C78 0.930 . S
H86 C109 0.930 . S
H87 C110 0.929 . S
O88 Tb44 2.465 . S
O88 C108 1.264 . S
O89 Tb44 2.387 . S
O89 C100 1.264 . S
O90 Tb55 2.349 1_455 S
O90 C100 1.243 1_545 S
O91 Tb44 2.428 . S
O91 C108 1.256 . S
O92 Tb44 2.308 1_545 S
O92 C107 1.266 . S
O93 Tb55 2.393 1_455 S
O93 C107 1.248 . S
O94 Tb55 2.465 . S
O94 C119 1.264 . S
O95 Tb55 2.387 . S
O95 C111 1.264 . S
O96 Tb44 2.349 1_645 S
O96 C111 1.243 . S
O97 Tb55 2.428 . S
O97 C119 1.256 . S
O98 Tb55 2.308 1_565 S
O98 C118 1.266 . S
O99 Tb44 2.393 1_655 S
O99 C118 1.248 . S
C100 O89 1.264 . S
C100 O90 1.243 1_565 S
C101 C104 1.399 . S
C101 C106 1.383 . S
C101 C108 1.496 . S
C102 C103 1.399 . S
C102 C106 1.389 . S
C103 C102 1.399 . S
C103 C105 1.380 . S
C103 H120 0.929 . S
C104 C101 1.399 . S
C104 C105 1.392 . S
C104 H121 0.929 . S
C105 C103 1.380 . S
C105 C104 1.392 . S
C105 H122 0.929 . S
C106 C101 1.383 . S
C106 C102 1.389 . S
C106 H123 0.931 . S
C107 O92 1.266 . S
C107 O93 1.248 . S
C108 Tb44 2.802 . S
C108 O88 1.264 . S
C108 O91 1.256 . S
C108 C101 1.496 . S
C109 C76 1.448 . S
C109 H86 0.930 . S
C109 C110 1.328 . S
C110 C81 1.427 . S
C110 H87 0.929 . S
C110 C109 1.328 . S
C111 O95 1.264 . S
C111 O96 1.243 . S
C112 C115 1.399 . S
C112 C116 1.383 . S
C112 C119 1.496 . S
C113 C114 1.399 . S
C113 C116 1.389 1_554 S
C114 C113 1.399 . S
C114 C117 1.380 . S
C114 H124 0.929 . S
C115 C112 1.399 . S
C115 C117 1.392 1_556 S
C115 H125 0.929 . S
C116 C112 1.383 . S
C116 C113 1.389 1_556 S
C116 H126 0.931 . S
C117 C114 1.380 . S
C117 C115 1.392 1_554 S
C117 H127 0.929 . S
C118 O98 1.266 . S
C118 O99 1.248 . S
C119 Tb55 2.802 . S
C119 O94 1.264 . S
C119 O97 1.256 . S
C119 C112 1.496 . S
H120 C103 0.929 . S
H121 C104 0.929 . S
H122 C105 0.929 . S
H123 C106 0.931 . S
H124 C114 0.929 . S
H125 C115 0.929 . S
H126 C116 0.931 . S
H127 C117 0.929 . S
Tb128 N157 2.617 1_554 S
Tb128 N163 2.572 . S
Tb128 O172 2.465 1_554 S
Tb128 O173 2.387 . S
Tb128 O175 2.428 1_554 S
Tb128 O176 2.308 . S
Tb128 O180 2.349 1_554 S
Tb128 O183 2.393 1_554 S
Tb128 C192 2.802 1_554 S
C129 N130 1.379 . S
C129 C132 1.416 . S
C129 C136 1.424 . S
N130 C129 1.379 . S
N130 C133 1.334 . S
N130 Tb139 2.617 . S
C131 C133 1.390 . S
C131 C134 1.339 . S
C131 H151 0.930 . S
C132 C129 1.416 . S
C132 C134 1.416 . S
C132 C138 1.448 . S
C133 N130 1.334 . S
C133 C131 1.390 . S
C133 H144 0.930 . S
C134 C131 1.339 . S
C134 C132 1.416 . S
C134 H155 0.930 . S
C135 C136 1.413 . S
C135 C137 1.427 . S
C135 C141 1.416 . S
C136 C129 1.424 . S
C136 C135 1.413 . S
C136 N140 1.361 . S
C137 C135 1.427 . S
C137 C138 1.328 . S
C137 H152 0.929 . S
C138 C132 1.448 . S
C138 C137 1.328 . S
C138 H153 0.930 . S
Tb139 N130 2.617 . S
Tb139 N140 2.572 . S
Tb139 O174 2.349 . S
Tb139 O177 2.393 . S
Tb139 O178 2.465 . S
Tb139 O179 2.387 . S
Tb139 O181 2.428 . S
Tb139 O182 2.308 . S
Tb139 C203 2.802 . S
N140 C136 1.361 . S
N140 Tb139 2.572 . S
N140 C142 1.340 . S
C141 C135 1.416 . S
C141 C143 1.332 . S
C141 H149 0.931 . S
C142 N140 1.340 . S
C142 C143 1.407 . S
C142 H148 0.930 . S
C143 C141 1.332 . S
C143 C142 1.407 . S
C143 H145 0.929 . S
H144 C133 0.930 . S
H145 C143 0.929 . S
H146 C161 0.930 . S
H147 C168 0.929 . S
H148 C142 0.930 . S
H149 C141 0.931 . S
H150 C164 0.930 . S
H151 C131 0.930 . S
H152 C137 0.929 . S
H153 C138 0.930 . S
H154 C159 0.930 . S
H155 C134 0.930 . S
H156 C167 0.931 . S
N157 Tb128 2.617 1_556 S
N157 C158 1.379 1_556 S
N157 C161 1.334 . S
C158 N157 1.379 1_554 S
C158 C160 1.416 . S
C158 C166 1.424 . S
C159 H154 0.930 . S
C159 C161 1.390 . S
C159 C162 1.339 1_556 S
C160 C158 1.416 . S
C160 C162 1.416 . S
C160 C193 1.448 . S
C161 H146 0.930 . S
C161 N157 1.334 . S
C161 C159 1.390 . S
C162 C159 1.339 1_554 S
C162 C160 1.416 . S
C162 H169 0.930 . S
N163 Tb128 2.572 . S
N163 C164 1.340 . S
N163 C166 1.361 . S
C164 H150 0.930 . S
C164 N163 1.340 . S
C164 C168 1.407 . S
C165 C166 1.413 . S
C165 C167 1.416 . S
C165 C194 1.427 . S
C166 C158 1.424 . S
C166 N163 1.361 . S
C166 C165 1.413 . S
C167 H156 0.931 . S
C167 C165 1.416 . S
C167 C168 1.332 . S
C168 H147 0.929 . S
C168 C164 1.407 . S
C168 C167 1.332 . S
H169 C162 0.930 . S
H170 C193 0.930 . S
H171 C194 0.929 . S
O172 Tb128 2.465 1_556 S
O172 C192 1.264 . S
O173 Tb128 2.387 . S
O173 C184 1.264 . S
O174 Tb139 2.349 . S
O174 C184 1.243 . S
O175 Tb128 2.428 1_556 S
O175 C192 1.256 . S
O176 Tb128 2.308 . S
O176 C191 1.266 . S
O177 Tb139 2.393 . S
O177 C191 1.248 . S
O178 Tb139 2.465 . S
O178 C203 1.264 . S
O179 Tb139 2.387 . S
O179 C195 1.264 1_554 S
O180 Tb128 2.349 1_556 S
O180 C195 1.243 . S
O181 Tb139 2.428 . S
O181 C203 1.256 . S
O182 Tb139 2.308 . S
O182 C202 1.266 . S
O183 Tb128 2.393 1_556 S
O183 C202 1.248 1_556 S
C184 O173 1.264 . S
C184 O174 1.243 . S
C185 C188 1.399 . S
C185 C190 1.383 . S
C185 C192 1.496 . S
C186 C187 1.399 . S
C186 C190 1.389 . S
C187 C186 1.399 . S
C187 C189 1.380 . S
C187 H204 0.929 . S
C188 C185 1.399 . S
C188 C189 1.392 . S
C188 H205 0.929 . S
C189 C187 1.380 . S
C189 C188 1.392 . S
C189 H206 0.929 . S
C190 C185 1.383 . S
C190 C186 1.389 . S
C190 H207 0.931 . S
C191 O176 1.266 . S
C191 O177 1.248 . S
C192 Tb128 2.802 1_556 S
C192 O172 1.264 . S
C192 O175 1.256 . S
C192 C185 1.496 . S
C193 C160 1.448 . S
C193 H170 0.930 . S
C193 C194 1.328 . S
C194 C165 1.427 . S
C194 H171 0.929 . S
C194 C193 1.328 . S
C195 O179 1.264 1_556 S
C195 O180 1.243 . S
C196 C199 1.399 . S
C196 C200 1.383 . S
C196 C203 1.496 . S
C197 C198 1.399 . S
C197 C200 1.389 . S
C198 C197 1.399 . S
C198 C201 1.380 . S
C198 H208 0.929 . S
C199 C196 1.399 . S
C199 C201 1.392 . S
C199 H209 0.929 . S
C200 C196 1.383 . S
C200 C197 1.389 . S
C200 H210 0.931 . S
C201 C198 1.380 . S
C201 C199 1.392 . S
C201 H211 0.929 . S
C202 O182 1.266 . S
C202 O183 1.248 1_554 S
C203 Tb139 2.802 . S
C203 O178 1.264 . S
C203 O181 1.256 . S
C203 C196 1.496 . S
H204 C187 0.929 . S
H205 C188 0.929 . S
H206 C189 0.929 . S
H207 C190 0.931 . S
H208 C198 0.929 . S
H209 C199 0.929 . S
H210 C200 0.931 . S
H211 C201 0.929 . S
C107 N37 1.691 . S
N4 C202 1.879 . S
N15 C118 1.708 . S
N26 C191 1.650 . S
C102 C9 1.349 . S
C195 C17 1.847 . S
C31 C111 1.816 . S
C42 C186 1.448 . S
C197 C20 1.416 . S
C113 C28 1.241 . S
C184 C39 1.683 . S
C6 C100 1.720 . S
