# Generated by pormake.
# Topology tsx, (6,3)-cn, num edge types: 1
# Building blocks:
#     Node 0, Type 0, BuildingBlock: FUNLAD_clean_sbu_0, # of connection points: 6
#     Node 1, Type 0, BuildingBlock: FUNLAD_clean_sbu_0, # of connection points: 6
#     Node 2, Type 1, BuildingBlock: ESEHIV_clean_linker_0, # of connection points: 3
#     Node 3, Type 1, BuildingBlock: ESEHIV_clean_linker_0, # of connection points: 3
#     Node 4, Type 1, BuildingBlock: ESEHIV_clean_linker_0, # of connection points: 3
#     Node 5, Type 1, BuildingBlock: ESEHIV_clean_linker_0, # of connection points: 3
#     Edge 6, Type (0, 1), BuildingBlock: OJICUG_clean_linker_0, # of connection points: 2
#     Edge 7, Type (0, 1), BuildingBlock: OJICUG_clean_linker_0, # of connection points: 2
#     Edge 8, Type (0, 1), BuildingBlock: OJICUG_clean_linker_0, # of connection points: 2
#     Edge 9, Type (0, 1), BuildingBlock: OJICUG_clean_linker_0, # of connection points: 2
#     Edge 10, Type (0, 1), BuildingBlock: OJICUG_clean_linker_0, # of connection points: 2
#     Edge 11, Type (0, 1), BuildingBlock: OJICUG_clean_linker_0, # of connection points: 2
#     Edge 12, Type (0, 1), BuildingBlock: OJICUG_clean_linker_0, # of connection points: 2
#     Edge 13, Type (0, 1), BuildingBlock: OJICUG_clean_linker_0, # of connection points: 2
#     Edge 14, Type (0, 1), BuildingBlock: OJICUG_clean_linker_0, # of connection points: 2
#     Edge 15, Type (0, 1), BuildingBlock: OJICUG_clean_linker_0, # of connection points: 2
#     Edge 16, Type (0, 1), BuildingBlock: OJICUG_clean_linker_0, # of connection points: 2
#     Edge 17, Type (0, 1), BuildingBlock: OJICUG_clean_linker_0, # of connection points: 2
# Relax obj value: 0.162
# Max RMSD: 0.152
# Mean RMSD: 0.063
data_MOF--net-tsx--node1-FUNLAD_clean_sbu_0--node2-ESEHIV_clean_linker_0--edge1-OJICUG_clean_linker_0
_symmetry_space_group_name_H-M    P1
_symmetry_Int_Tables_number       1
_symmetry_cell_setting            triclinic
loop_
_symmetry_equiv_pos_as_xyz
'x, y, z'
_cell_length_a     12.12797
_cell_length_b     13.661305
_cell_length_c     30.980132
_cell_angle_alpha  90.71121
_cell_angle_beta   92.255459
_cell_angle_gamma 89.973364
loop_
_atom_site_label
_atom_site_type_symbol
_atom_site_fract_x
_atom_site_fract_y
_atom_site_fract_z
_atom_type_partial_charge
C0 C 0.89875 0.98298 0.00447 0.0
N1 N 0.11393 0.10802 0.09413 0.0
C2 C 0.03058 0.13556 0.1198 0.0
C3 C 0.04212 0.12673 0.16449 0.0
C4 C 0.1393 0.08704 0.1829 0.0
C5 C 0.22507 0.0608 0.156 0.0
C6 C 0.21107 0.07316 0.11137 0.0
Zn7 Zn 0.08467 0.11087 0.02868 0.0
C8 C 0.21486 0.96523 0.9789 0.0
N9 N 0.02123 0.1175 0.89326 0.0
C10 C 0.91488 0.11327 0.8775 0.0
C11 C 0.10758 0.11034 0.86668 0.0
C12 C 0.08863 0.09199 0.82269 0.0
C13 C 0.98 0.0829 0.80611 0.0
C14 C 0.8922 0.09647 0.83352 0.0
Zn15 Zn 0.05174 0.11851 0.95822 0.0
O16 O 0.95264 0.01967 0.03634 0.0
C17 C 0.92573 0.27029 -0.00067 0.0
O18 O 0.92287 0.00685 0.96623 0.0
H19 H 0.19133 0.11416 0.87991 0.0
H20 H 0.95321 0.16114 0.10561 0.0
H21 H 0.84761 0.11872 0.8993 0.0
O22 O 0.97537 0.24056 0.03387 0.0
O23 O 0.94087 0.22701 0.96395 0.0
H24 H 0.27664 0.05218 0.0905 0.0
O25 O 0.18395 0.22783 0.95416 0.0
O26 O 0.21567 0.1995 0.02321 0.0
O27 O 0.16304 0.01203 0.94987 0.0
O28 O 0.19583 0.98415 0.01843 0.0
C29 C 0.24213 0.24131 -0.01098 0.0
H30 H 0.97352 0.14604 0.18429 0.0
H31 H 0.30097 0.02953 0.16928 0.0
H32 H 0.15792 0.08169 0.80206 0.0
H33 H 0.80751 0.08922 0.82144 0.0
C34 C 0.29404 0.26059 0.48222 0.0
N35 N 0.44342 0.37234 0.59405 0.0
C36 C 0.34543 0.39695 0.61121 0.0
C37 C 0.33753 0.40728 0.65582 0.0
C38 C 0.43069 0.38991 0.68281 0.0
C39 C 0.5283 0.35725 0.66457 0.0
C40 C 0.53323 0.34973 0.61972 0.0
Zn41 Zn 0.4595 0.38616 0.52919 0.0
C42 C 0.61427 0.2457 0.48948 0.0
N43 N 0.48306 0.42314 0.39459 0.0
C44 C 0.39444 0.4344 0.36682 0.0
C45 C 0.58771 0.43745 0.38174 0.0
C46 C 0.60644 0.46778 0.33998 0.0
C47 C 0.51666 0.48298 0.3109 0.0
C48 C 0.40951 0.46432 0.3245 0.0
Zn49 Zn 0.46419 0.40201 0.45862 0.0
O50 O 0.32841 0.2941 0.51849 0.0
C51 C 0.31088 0.54592 0.49152 0.0
O52 O 0.33786 0.28906 0.44771 0.0
H53 H 0.65704 0.4287 0.40439 0.0
H54 H 0.27474 0.4136 0.59024 0.0
H55 H 0.31199 0.42308 0.37786 0.0
O56 O 0.34696 0.51435 0.52805 0.0
O57 O 0.34508 0.50774 0.45733 0.0
H58 H 0.61051 0.33118 0.6054 0.0
O59 O 0.59055 0.51428 0.47329 0.0
O60 O 0.59212 0.47709 0.5418 0.0
O61 O 0.58337 0.29695 0.45765 0.0
O62 O 0.57328 0.26116 0.52628 0.0
C63 C 0.63139 0.52565 0.51161 0.0
H64 H 0.26108 0.43278 0.66901 0.0
H65 H 0.60209 0.3445 0.68456 0.0
H66 H 0.69029 0.48209 0.33106 0.0
H67 H 0.33808 0.47337 0.30281 0.0
H68 H 0.9439 0.09414 0.36123 0.0
H69 H 0.19 0.86662 0.36781 0.0
H70 H 0.93027 0.87628 0.45773 0.0
C71 C 0.97977 0.03009 0.37651 0.0
C72 C 0.93305 0.99502 0.414 0.0
C73 C 0.06928 0.98149 0.35817 0.0
C74 C 0.11671 0.90107 0.37994 0.0
C75 C 0.06948 0.86395 0.41711 0.0
C76 C 0.9722 0.90709 0.43145 0.0
H77 H 0.85371 0.82503 0.63483 0.0
H78 H 0.03476 0.08854 0.6116 0.0
H79 H 0.01726 0.85989 0.51612 0.0
C80 C 0.90358 0.86828 0.61391 0.0
C81 C 0.92239 0.8353 0.57177 0.0
C82 C 0.94693 0.95835 0.62884 0.0
C83 C 1.00311 0.01803 0.60046 0.0
C84 C 0.02477 0.98499 0.55862 0.0
C85 C 0.99108 0.89047 0.54597 0.0
H86 H 0.3772 0.64237 0.85836 0.0
H87 H 0.62789 0.42069 0.87113 0.0
H88 H 0.6341 0.6691 0.95653 0.0
C89 C 0.45216 0.61502 0.87408 0.0
C90 C 0.49679 0.66363 0.91109 0.0
C91 C 0.50283 0.53072 0.85741 0.0
C92 C 0.59071 0.48859 0.88158 0.0
C93 C 0.63356 0.53443 0.91929 0.0
C94 C 0.59356 0.62696 0.931 0.0
H95 H 0.47332 0.46022 0.12194 0.0
H96 H 0.66594 0.72359 0.13791 0.0
H97 H 0.60914 0.59126 0.01255 0.0
C98 C 0.52039 0.51859 0.10797 0.0
C99 C 0.53166 0.52129 0.06337 0.0
C100 C 0.5703 0.59022 0.13481 0.0
C101 C 0.62831 0.66788 0.11692 0.0
C102 C 0.64133 0.67071 0.072 0.0
C103 C 0.59606 0.59441 0.04617 0.0
C104 C 0.32736 0.4063 0.98222 0.0
C105 C 0.33736 0.30755 -0.00656 0.0
H106 H 0.38217 0.55274 -0.0037 0.0
C107 C 0.42459 0.27867 0.02178 0.0
H108 H 0.25963 0.43047 0.96113 0.0
C109 C 0.49141 0.34822 0.04298 0.0
C110 C 0.47496 0.4478 0.03504 0.0
H111 H 0.43388 0.20266 0.03092 0.0
H112 H 0.55259 0.32455 0.06707 0.0
C113 C 0.3965 0.47623 0.00285 0.0
C114 C 0.35359 0.82867 -0.00805 0.0
C115 C 0.29663 0.89273 0.96405 0.0
H116 H 0.46381 0.70713 -0.00296 0.0
C117 C 0.31678 0.88757 0.91947 0.0
H118 H 0.34159 0.83174 0.0264 0.0
C119 C 0.3861 0.81678 0.90283 0.0
C120 C 0.43782 0.74853 0.93009 0.0
H121 H 0.27705 0.93722 0.89674 0.0
H122 H 0.39716 0.81427 0.8683 0.0
C123 C 0.42409 0.75749 0.97504 0.0
C124 C 0.73855 0.92648 0.04491 0.0
C125 C 0.81737 0.90688 0.01383 0.0
H126 H 0.62 0.86754 0.08721 0.0
C127 C 0.8358 0.80968 0.00109 0.0
H128 H 0.72522 1.00083 0.05616 0.0
C129 C 0.77931 0.73329 0.02035 0.0
C130 C 0.70122 0.75243 0.05176 0.0
H131 H 0.8994 0.79229 0.97861 0.0
H132 H 0.79952 0.65881 0.01194 0.0
C133 C 0.68016 0.85019 0.06334 0.0
C134 C 0.73683 0.32926 -0.00971 0.0
C135 C 0.84859 0.35275 -0.00275 0.0
H136 H 0.5836 0.36692 0.95815 0.0
C137 C 0.88724 0.44305 0.98245 0.0
H138 H 0.70611 0.25832 -0.00049 0.0
C139 C 0.81678 0.50541 0.95849 0.0
C140 C 0.70709 0.4779 0.94901 0.0
H141 H 0.97432 0.46066 0.9856 0.0
H142 H 0.84958 0.57175 0.94514 0.0
C143 C 0.66738 0.39047 0.96588 0.0
C144 C 0.72757 0.68438 0.49924 0.0
C145 C 0.71869 0.59812 0.52278 0.0
H146 H 0.79461 0.82862 0.49831 0.0
C147 C 0.78521 0.58657 0.56073 0.0
H148 H 0.67579 0.69623 0.47048 0.0
C149 C 0.85587 0.6615 0.57577 0.0
C150 C 0.86099 0.74962 0.55326 0.0
H151 H 0.78003 0.52059 0.5796 0.0
H152 H 0.90379 0.65182 0.60566 0.0
C153 C 0.79681 0.75979 0.51479 0.0
C154 C 0.68251 0.07599 0.47633 0.0
C155 C 0.70409 0.17639 0.48186 0.0
H156 H 0.73583 0.93999 0.44841 0.0
C157 C 0.80161 0.21518 0.4662 0.0
H158 H 0.60512 0.04549 0.48617 0.0
C159 C 0.87446 0.15598 0.44406 0.0
C160 C 0.85264 0.05595 0.43747 0.0
H161 H 0.81819 0.29307 0.46879 0.0
H162 H 0.9478 0.18897 0.43166 0.0
C163 C 0.7566 0.01605 0.45435 0.0
C164 C 0.23529 0.08736 0.48344 0.0
C165 C 0.20628 0.18695 0.48346 0.0
H166 H 0.20184 0.94519 0.50879 0.0
C167 C 0.10861 0.21594 0.50277 0.0
H168 H 0.31261 0.06383 0.47033 0.0
C169 C 0.04672 0.14876 0.52518 0.0
C170 C 0.08071 0.05083 0.52855 0.0
H171 H 0.08603 0.29267 0.50423 0.0
H172 H 0.97507 0.1746 0.54177 0.0
C173 C 0.17281 0.01971 0.50591 0.0
C174 C 0.12928 0.62864 0.47909 0.0
C175 C 0.24423 0.63519 0.48626 0.0
H176 H 0.9829 0.69627 0.45155 0.0
C177 C 0.29895 0.71976 0.47346 0.0
H178 H 0.08592 0.56245 0.4872 0.0
C179 C 0.24147 0.79389 0.45164 0.0
C180 C 0.1273 0.78608 0.44259 0.0
H181 H 0.38799 0.72511 0.47734 0.0
H182 H 0.28705 0.85679 0.44102 0.0
C183 C 0.0709 0.70422 0.45793 0.0
C184 C 0.12078 0.13624 0.26016 0.0
C185 C 0.14457 0.06402 0.22934 0.0
H186 H 0.08431 0.1679 0.32578 0.0
C187 C 0.15823 0.96671 0.24238 0.0
H188 H 0.11078 0.21195 0.25075 0.0
C189 C 0.13972 0.94069 0.28494 0.0
C190 C 0.10872 0.01186 0.31542 0.0
H191 H 0.17562 0.9097 0.21898 0.0
H192 H 0.14293 0.86388 0.29308 0.0
C193 C 0.10448 0.11063 0.30295 0.0
C194 C 0.91982 0.1144 0.72963 0.0
C195 C 0.95962 0.04967 0.76131 0.0
H196 H 0.88373 0.1356 0.66204 0.0
C197 C 0.9856 0.95306 0.74989 0.0
H198 H 0.89931 0.18921 0.73813 0.0
C199 C 0.97534 0.92205 0.70691 0.0
C200 C 0.94055 0.98776 0.67468 0.0
H201 H 0.01621 0.90229 0.77415 0.0
H202 H 0.99967 0.84806 0.69863 0.0
C203 C 0.91108 0.0838 0.68641 0.0
C204 C 0.41281 0.51904 0.73894 0.0
C205 C 0.43204 0.42055 0.72858 0.0
H206 H 0.42311 0.63147 0.78702 0.0
C207 C 0.46391 0.35563 0.76144 0.0
H208 H 0.38957 0.57062 0.71388 0.0
C209 C 0.47988 0.38969 0.80399 0.0
C210 C 0.46781 0.49 0.81412 0.0
H211 H 0.47868 0.27915 0.75401 0.0
H212 H 0.50444 0.3376 0.82858 0.0
C213 C 0.43153 0.55364 0.78108 0.0
C214 C 0.46394 0.58693 0.24698 0.0
C215 C 0.53539 0.51803 0.26672 0.0
H216 H 0.42079 0.66578 0.18913 0.0
C217 C 0.62468 0.48175 0.24373 0.0
H218 H 0.39543 0.61732 0.26409 0.0
C219 C 0.64007 0.51114 0.20151 0.0
C220 C 0.56671 0.57727 0.18157 0.0
H221 H 0.68033 0.42771 0.25772 0.0
H222 H 0.7064 0.47888 0.18368 0.0
C223 C 0.47929 0.61603 0.20454 0.0
loop_
_geom_bond_atom_site_label_1
_geom_bond_atom_site_label_2
_geom_bond_distance
_geom_bond_site_symmetry_2
_ccdc_geom_bond_type
C0 O16 1.251 . S
C0 O18 1.254 1_554 S
N1 C2 1.333 1_445 S
N1 C6 1.307 . S
N1 Zn7 2.020 . S
C2 N1 1.333 1_665 S
C2 C3 1.379 . S
C2 H20 0.952 . S
C3 C2 1.379 . S
C3 C4 1.390 1_665 S
C3 H30 0.949 . S
C4 C3 1.390 1_445 S
C4 C5 1.357 . S
C5 C4 1.357 . S
C5 C6 1.370 . S
C5 H31 0.950 . S
C6 N1 1.307 . S
C6 C5 1.370 . S
C6 H24 0.948 . S
Zn7 N1 2.020 . S
Zn7 O16 2.039 1_445 S
Zn7 O22 2.034 1_455 S
Zn7 O26 2.025 . S
Zn7 O28 2.024 1_545 S
C8 O27 1.246 1_554 S
C8 O28 1.249 . S
N9 C10 1.306 1_445 S
N9 C11 1.334 . S
N9 Zn15 2.020 . S
C10 N9 1.306 1_665 S
C10 C14 1.370 . S
C10 H21 0.948 . S
C11 N9 1.334 . S
C11 C12 1.379 . S
C11 H19 0.952 . S
C12 C11 1.379 . S
C12 C13 1.390 . S
C12 H32 0.949 . S
C13 C12 1.390 . S
C13 C14 1.357 1_445 S
C14 C10 1.370 . S
C14 C13 1.357 1_665 S
C14 H33 0.950 . S
Zn15 N9 2.020 . S
Zn15 O18 2.025 1_445 S
Zn15 O23 2.024 1_455 S
Zn15 O25 2.039 . S
Zn15 O27 2.034 1_545 S
O16 C0 1.251 . S
O16 Zn7 2.039 1_665 S
C17 O22 1.246 . S
C17 O23 1.249 1_554 S
O18 C0 1.254 1_556 S
O18 Zn15 2.025 1_665 S
H19 C11 0.952 . S
H20 C2 0.952 . S
H21 C10 0.948 . S
O22 Zn7 2.034 1_655 S
O22 C17 1.246 . S
O23 Zn15 2.024 1_655 S
O23 C17 1.249 1_556 S
H24 C6 0.948 . S
O25 Zn15 2.039 . S
O25 C29 1.251 1_556 S
O26 Zn7 2.025 . S
O26 C29 1.254 . S
O27 C8 1.246 1_556 S
O27 Zn15 2.034 1_565 S
O28 Zn7 2.024 1_565 S
O28 C8 1.249 . S
C29 O25 1.251 1_554 S
C29 O26 1.254 . S
H30 C3 0.949 . S
H31 C5 0.950 . S
H32 C12 0.949 . S
H33 C14 0.950 . S
C34 O50 1.251 . S
C34 O52 1.254 . S
N35 C36 1.333 . S
N35 C40 1.307 . S
N35 Zn41 2.020 . S
C36 N35 1.333 . S
C36 C37 1.379 . S
C36 H54 0.952 . S
C37 C36 1.379 . S
C37 C38 1.390 . S
C37 H64 0.949 . S
C38 C37 1.390 . S
C38 C39 1.357 . S
C39 C38 1.357 . S
C39 C40 1.370 . S
C39 H65 0.950 . S
C40 N35 1.307 . S
C40 C39 1.370 . S
C40 H58 0.948 . S
Zn41 N35 2.020 . S
Zn41 O50 2.039 . S
Zn41 O56 2.034 . S
Zn41 O60 2.025 . S
Zn41 O62 2.024 . S
C42 O61 1.246 . S
C42 O62 1.249 . S
N43 C44 1.307 . S
N43 C45 1.333 . S
N43 Zn49 2.020 . S
C44 N43 1.307 . S
C44 C48 1.370 . S
C44 H55 0.948 . S
C45 N43 1.333 . S
C45 C46 1.379 . S
C45 H53 0.952 . S
C46 C45 1.379 . S
C46 C47 1.390 . S
C46 H66 0.949 . S
C47 C46 1.390 . S
C47 C48 1.357 . S
C48 C44 1.370 . S
C48 C47 1.357 . S
C48 H67 0.950 . S
Zn49 N43 2.020 . S
Zn49 O52 2.025 . S
Zn49 O57 2.024 . S
Zn49 O59 2.039 . S
Zn49 O61 2.034 . S
O50 C34 1.251 . S
O50 Zn41 2.039 . S
C51 O56 1.246 . S
C51 O57 1.249 . S
O52 C34 1.254 . S
O52 Zn49 2.025 . S
H53 C45 0.952 . S
H54 C36 0.952 . S
H55 C44 0.948 . S
O56 Zn41 2.034 . S
O56 C51 1.246 . S
O57 Zn49 2.024 . S
O57 C51 1.249 . S
H58 C40 0.948 . S
O59 Zn49 2.039 . S
O59 C63 1.251 . S
O60 Zn41 2.025 . S
O60 C63 1.254 . S
O61 C42 1.246 . S
O61 Zn49 2.034 . S
O62 Zn41 2.024 . S
O62 C42 1.249 . S
C63 O59 1.251 . S
C63 O60 1.254 . S
H64 C37 0.949 . S
H65 C39 0.950 . S
H66 C46 0.949 . S
H67 C48 0.950 . S
H68 C71 0.931 . S
H69 C74 0.928 . S
H70 C76 0.930 . S
C71 H68 0.931 . S
C71 C72 1.413 . S
C71 C73 1.357 1_545 S
C72 C71 1.413 . S
C72 C76 1.429 1_645 S
C73 C71 1.357 1_565 S
C73 C74 1.375 1_655 S
C74 H69 0.928 . S
C74 C73 1.375 1_455 S
C74 C75 1.404 . S
C75 C74 1.404 . S
C75 C76 1.391 . S
C76 H70 0.930 . S
C76 C72 1.429 1_465 S
C76 C75 1.391 . S
H77 C80 0.931 . S
H78 C83 0.928 . S
H79 C85 0.930 . S
C80 H77 0.931 . S
C80 C81 1.413 . S
C80 C82 1.360 1_665 S
C81 C80 1.413 . S
C81 C85 1.429 1_665 S
C82 C80 1.360 1_445 S
C82 C83 1.372 . S
C83 H78 0.928 . S
C83 C82 1.372 . S
C83 C84 1.404 . S
C84 C83 1.404 . S
C84 C85 1.391 . S
C85 H79 0.930 . S
C85 C81 1.429 1_445 S
C85 C84 1.391 . S
H86 C89 0.931 . S
H87 C92 0.928 . S
H88 C94 0.930 1_554 S
C89 H86 0.931 . S
C89 C90 1.413 . S
C89 C91 1.360 . S
C90 C89 1.413 . S
C90 C94 1.429 . S
C91 C89 1.360 . S
C91 C92 1.372 . S
C92 H87 0.928 . S
C92 C91 1.372 . S
C92 C93 1.404 . S
C93 C92 1.404 . S
C93 C94 1.391 . S
C94 H88 0.930 1_556 S
C94 C90 1.429 . S
C94 C93 1.391 . S
H95 C98 0.931 . S
H96 C101 0.928 . S
H97 C103 0.930 1_556 S
C98 H95 0.931 . S
C98 C99 1.413 . S
C98 C100 1.360 . S
C99 C98 1.413 . S
C99 C103 1.429 . S
C100 C98 1.360 . S
C100 C101 1.372 . S
C101 H96 0.928 . S
C101 C100 1.372 . S
C101 C102 1.404 . S
C102 C101 1.404 . S
C102 C103 1.391 . S
C103 H97 0.930 1_554 S
C103 C99 1.429 . S
C103 C102 1.391 . S
C104 C105 1.387 1_556 S
C104 H108 0.950 . S
C104 C113 1.390 . S
C105 C104 1.387 1_554 S
C105 C107 1.387 . S
H106 C113 0.950 . S
C107 C105 1.387 . S
C107 C109 1.390 . S
C107 H111 0.950 . S
H108 C104 0.950 . S
C109 C107 1.390 . S
C109 C110 1.387 . S
C109 H112 0.950 . S
C110 C109 1.387 . S
C110 C113 1.387 1_554 S
H111 C107 0.950 . S
H112 C109 0.950 . S
C113 C104 1.390 . S
C113 H106 0.950 . S
C113 C110 1.387 1_556 S
C114 C115 1.387 . S
C114 H118 0.950 . S
C114 C123 1.390 . S
C115 C114 1.387 . S
C115 C117 1.387 1_554 S
H116 C123 0.950 . S
C117 C115 1.387 1_556 S
C117 C119 1.390 . S
C117 H121 0.950 . S
H118 C114 0.950 . S
C119 C117 1.390 . S
C119 C120 1.387 . S
C119 H122 0.950 . S
C120 C119 1.387 . S
C120 C123 1.387 1_556 S
H121 C117 0.950 . S
H122 C119 0.950 . S
C123 C114 1.390 . S
C123 H116 0.950 . S
C123 C120 1.387 1_554 S
C124 C125 1.387 . S
C124 H128 0.950 . S
C124 C133 1.390 . S
C125 C124 1.387 . S
C125 C127 1.387 1_554 S
H126 C133 0.950 . S
C127 C125 1.387 1_556 S
C127 C129 1.390 . S
C127 H131 0.950 . S
H128 C124 0.950 . S
C129 C127 1.390 . S
C129 C130 1.387 1_556 S
C129 H132 0.950 . S
C130 C129 1.387 1_554 S
C130 C133 1.387 . S
H131 C127 0.950 . S
H132 C129 0.950 . S
C133 C124 1.390 . S
C133 H126 0.950 . S
C133 C130 1.387 . S
C134 C135 1.387 . S
C134 H138 0.950 . S
C134 C143 1.390 . S
C135 C134 1.387 . S
C135 C137 1.387 1_554 S
H136 C143 0.950 . S
C137 C135 1.387 1_556 S
C137 C139 1.390 . S
C137 H141 0.950 . S
H138 C134 0.950 . S
C139 C137 1.390 . S
C139 C140 1.387 . S
C139 H142 0.950 . S
C140 C139 1.387 . S
C140 C143 1.387 1_556 S
H141 C137 0.950 . S
H142 C139 0.950 . S
C143 C134 1.390 . S
C143 H136 0.950 . S
C143 C140 1.387 1_554 S
C144 C145 1.387 . S
C144 H148 0.950 . S
C144 C153 1.390 . S
C145 C144 1.387 . S
C145 C147 1.387 . S
H146 C153 0.950 . S
C147 C145 1.387 . S
C147 C149 1.390 . S
C147 H151 0.950 . S
H148 C144 0.950 . S
C149 C147 1.390 . S
C149 C150 1.387 . S
C149 H152 0.950 . S
C150 C149 1.387 . S
C150 C153 1.387 . S
H151 C147 0.950 . S
H152 C149 0.950 . S
C153 C144 1.390 . S
C153 H146 0.950 . S
C153 C150 1.387 . S
C154 C155 1.387 . S
C154 H158 0.950 . S
C154 C163 1.390 . S
C155 C154 1.387 . S
C155 C157 1.387 . S
H156 C163 0.950 . S
C157 C155 1.387 . S
C157 C159 1.390 . S
C157 H161 0.950 . S
H158 C154 0.950 . S
C159 C157 1.390 . S
C159 C160 1.387 . S
C159 H162 0.950 . S
C160 C159 1.387 . S
C160 C163 1.387 . S
H161 C157 0.950 . S
H162 C159 0.950 . S
C163 C154 1.390 . S
C163 H156 0.950 . S
C163 C160 1.387 . S
C164 C165 1.387 . S
C164 H168 0.950 . S
C164 C173 1.390 . S
C165 C164 1.387 . S
C165 C167 1.387 . S
H166 C173 0.950 . S
C167 C165 1.387 . S
C167 C169 1.390 . S
C167 H171 0.950 . S
H168 C164 0.950 . S
C169 C167 1.390 . S
C169 C170 1.387 . S
C169 H172 0.950 . S
C170 C169 1.387 . S
C170 C173 1.387 . S
H171 C167 0.950 . S
H172 C169 0.950 . S
C173 C164 1.390 . S
C173 H166 0.950 . S
C173 C170 1.387 . S
C174 C175 1.387 . S
C174 H178 0.950 . S
C174 C183 1.390 . S
C175 C174 1.387 . S
C175 C177 1.387 . S
H176 C183 0.950 . S
C177 C175 1.387 . S
C177 C179 1.390 . S
C177 H181 0.950 . S
H178 C174 0.950 . S
C179 C177 1.390 . S
C179 C180 1.387 . S
C179 H182 0.950 . S
C180 C179 1.387 . S
C180 C183 1.387 . S
H181 C177 0.950 . S
H182 C179 0.950 . S
C183 C174 1.390 . S
C183 H176 0.950 . S
C183 C180 1.387 . S
C184 C185 1.387 . S
C184 H188 0.950 . S
C184 C193 1.390 . S
C185 C184 1.387 . S
C185 C187 1.387 1_445 S
H186 C193 0.950 . S
C187 C185 1.387 1_665 S
C187 C189 1.390 . S
C187 H191 0.950 . S
H188 C184 0.950 . S
C189 C187 1.390 . S
C189 C190 1.387 1_565 S
C189 H192 0.950 . S
C190 C189 1.387 1_545 S
C190 C193 1.387 1_655 S
H191 C187 0.950 . S
H192 C189 0.950 . S
C193 C184 1.390 . S
C193 H186 0.950 . S
C193 C190 1.387 1_455 S
C194 C195 1.387 . S
C194 H198 0.950 . S
C194 C203 1.390 . S
C195 C194 1.387 . S
C195 C197 1.387 1_545 S
H196 C203 0.950 . S
C197 C195 1.387 1_565 S
C197 C199 1.390 . S
C197 H201 0.950 1_455 S
H198 C194 0.950 . S
C199 C197 1.390 . S
C199 C200 1.387 1_565 S
C199 H202 0.950 1_455 S
C200 C199 1.387 1_545 S
C200 C203 1.387 . S
H201 C197 0.950 1_655 S
H202 C199 0.950 1_655 S
C203 C194 1.390 . S
C203 H196 0.950 . S
C203 C200 1.387 . S
C204 C205 1.387 . S
C204 H208 0.950 . S
C204 C213 1.390 . S
C205 C204 1.387 . S
C205 C207 1.387 . S
H206 C213 0.950 . S
C207 C205 1.387 . S
C207 C209 1.390 . S
C207 H211 0.950 . S
H208 C204 0.950 . S
C209 C207 1.390 . S
C209 C210 1.387 . S
C209 H212 0.950 . S
C210 C209 1.387 . S
C210 C213 1.387 . S
H211 C207 0.950 . S
H212 C209 0.950 . S
C213 C204 1.390 . S
C213 H206 0.950 . S
C213 C210 1.387 . S
C214 C215 1.387 . S
C214 H218 0.950 . S
C214 C223 1.390 . S
C215 C214 1.387 . S
C215 C217 1.387 . S
H216 C223 0.950 . S
C217 C215 1.387 . S
C217 C219 1.390 . S
C217 H221 0.950 . S
H218 C214 0.950 . S
C219 C217 1.390 . S
C219 C220 1.387 . S
C219 H222 0.950 . S
C220 C219 1.387 . S
C220 C223 1.387 . S
H221 C217 0.950 . S
H222 C219 0.950 . S
C223 C214 1.390 . S
C223 H216 0.950 . S
C223 C220 1.387 . S
C110 C99 1.417 . S
C105 C29 1.434 . S
C115 C8 1.436 . S
C120 C90 1.419 . S
C125 C0 1.433 . S
C130 C102 1.414 . S
C135 C17 1.428 . S
C140 C93 1.415 . S
C145 C63 1.434 . S
C150 C81 1.417 . S
C155 C42 1.436 . S
C160 C72 1.418 . S
C170 C84 1.413 . S
C165 C34 1.433 . S
C180 C75 1.414 . S
C175 C51 1.430 . S
C185 C4 1.494 . S
C190 C73 1.495 1_545 S
C195 C13 1.492 . S
C200 C82 1.495 . S
C210 C91 1.496 . S
C205 C38 1.494 . S
C215 C47 1.492 . S
C220 C100 1.495 . S
