# Generated by pormake.
# Topology pyr, (3,6)-cn, num edge types: 1
# Building blocks:
#     Node 0, Type 0, BuildingBlock: CUQRIR_clean_linker_1, # of connection points: 3
#     Node 1, Type 0, BuildingBlock: CUQRIR_clean_linker_1, # of connection points: 3
#     Node 2, Type 0, BuildingBlock: CUQRIR_clean_linker_1, # of connection points: 3
#     Node 3, Type 0, BuildingBlock: CUQRIR_clean_linker_1, # of connection points: 3
#     Node 4, Type 0, BuildingBlock: CUQRIR_clean_linker_1, # of connection points: 3
#     Node 5, Type 0, BuildingBlock: CUQRIR_clean_linker_1, # of connection points: 3
#     Node 6, Type 0, BuildingBlock: CUQRIR_clean_linker_1, # of connection points: 3
#     Node 7, Type 0, BuildingBlock: CUQRIR_clean_linker_1, # of connection points: 3
#     Node 8, Type 1, BuildingBlock: JUFBIX_clean_sbu_0, # of connection points: 6
#     Node 9, Type 1, BuildingBlock: JUFBIX_clean_sbu_0, # of connection points: 6
#     Node 10, Type 1, BuildingBlock: JUFBIX_clean_sbu_0, # of connection points: 6
#     Node 11, Type 1, BuildingBlock: JUFBIX_clean_sbu_0, # of connection points: 6
#     Edge 12, Type (0, 1), None
#     Edge 13, Type (0, 1), None
#     Edge 14, Type (0, 1), None
#     Edge 15, Type (0, 1), None
#     Edge 16, Type (0, 1), None
#     Edge 17, Type (0, 1), None
#     Edge 18, Type (0, 1), None
#     Edge 19, Type (0, 1), None
#     Edge 20, Type (0, 1), None
#     Edge 21, Type (0, 1), None
#     Edge 22, Type (0, 1), None
#     Edge 23, Type (0, 1), None
#     Edge 24, Type (0, 1), None
#     Edge 25, Type (0, 1), None
#     Edge 26, Type (0, 1), None
#     Edge 27, Type (0, 1), None
#     Edge 28, Type (0, 1), None
#     Edge 29, Type (0, 1), None
#     Edge 30, Type (0, 1), None
#     Edge 31, Type (0, 1), None
#     Edge 32, Type (0, 1), None
#     Edge 33, Type (0, 1), None
#     Edge 34, Type (0, 1), None
#     Edge 35, Type (0, 1), None
# Relax obj value: 0.365
# Max RMSD: 0.263
# Mean RMSD: 0.165
data_MOF--net-pry--node1-JUFBIX_clean_sbu_0--node2-CUQRIR_clean_linker_1--edge1-none
_symmetry_space_group_name_H-M    P1
_symmetry_Int_Tables_number       1
_symmetry_cell_setting            triclinic
loop_
_symmetry_equiv_pos_as_xyz
'x, y, z'
_cell_length_a     13.599907
_cell_length_b     13.251392
_cell_length_c     13.198105
_cell_angle_alpha  73.927516
_cell_angle_beta   86.699401
_cell_angle_gamma 96.268392
loop_
_atom_site_label
_atom_site_type_symbol
_atom_site_fract_x
_atom_site_fract_y
_atom_site_fract_z
_atom_type_partial_charge
C0 C 0.18259 0.13176 0.27546 0.0
N1 N 0.25268 0.07555 0.32751 0.0
N2 N 0.2197 0.22663 0.21151 0.0
C3 C 0.08654 0.07902 0.2529 0.0
C4 C 0.31954 0.21613 0.20631 0.0
N5 N 0.34362 0.12197 0.27403 0.0
C6 C 0.39508 0.30178 0.13976 0.0
H7 H 0.10537 0.03679 0.19444 0.0
H8 H 1.04037 0.13733 0.21035 0.0
H9 H 1.04435 0.02388 0.32475 0.0
H10 H 0.47082 0.28461 0.15919 0.0
H11 H 0.38288 0.37933 0.15126 0.0
H12 H 0.38466 0.30748 1.05607 0.0
C13 C 0.56083 0.80031 0.67987 0.0
N14 N 0.53668 0.85956 0.73998 0.0
N15 N 0.52668 0.69579 0.7288 0.0
C16 C 0.58659 0.85497 0.56285 0.0
C17 C 0.5014 0.69405 0.83027 0.0
N18 N 0.51117 0.79451 0.83572 0.0
C19 C 0.47725 0.5989 0.9241 0.0
H20 H 0.53457 0.82636 0.51229 0.0
H21 H 0.66399 0.84957 0.54154 0.0
H22 H 0.58415 0.94088 0.54587 0.0
H23 H 0.54806 0.57263 0.95199 0.0
H24 H 0.43317 0.5338 0.90371 0.0
H25 H 0.43653 0.61877 0.98971 0.0
C26 C 0.67811 0.35033 0.92745 0.0
N27 N 0.72747 0.30557 1.01313 0.0
N28 N 0.7326 0.43063 0.85287 0.0
C29 C 0.5688 0.35724 0.94519 0.0
C30 C 0.80866 0.45401 0.90998 0.0
N31 N 0.81183 0.37696 1.00733 0.0
C32 C 0.85714 0.56575 0.88834 0.0
H33 H 0.52113 0.28047 0.96395 0.0
H34 H 0.54115 0.4114 0.87735 0.0
H35 H 0.55972 0.39089 1.01246 0.0
H36 H 0.81501 0.6219 0.83502 0.0
H37 H 0.93577 0.57354 0.85745 0.0
H38 H 0.85616 0.58721 0.96273 0.0
C39 C 1.05305 0.75814 0.39717 0.0
N40 N 0.11228 0.68886 0.44603 0.0
N41 N 0.96934 0.73965 0.46134 0.0
C42 C 1.07232 0.82646 0.2851 0.0
C43 C 0.99533 0.67361 0.55081 0.0
N44 N 0.09349 0.68551 0.5492 0.0
C45 C 0.9324 0.60582 0.64347 0.0
H46 H 0.14542 0.87507 0.27706 0.0
H47 H 1.01534 0.87952 0.26337 0.0
H48 H 1.07604 0.77837 0.22877 0.0
H49 H 0.87034 0.56547 0.61506 0.0
H50 H 0.91003 0.65812 0.68958 0.0
H51 H 0.97423 0.54585 0.69196 0.0
C52 C 0.8656 0.77344 1.08091 0.0
N53 N 0.94825 0.76152 1.02052 0.0
N54 N 0.83256 0.87004 1.04324 0.0
C55 C 0.7939 0.67813 0.14414 0.0
C56 C 0.8909 0.9098 0.9487 0.0
N57 N 0.96214 0.8463 0.93238 0.0
C58 C 0.8852 0.01808 0.8767 0.0
H59 H 0.78699 0.61692 0.10188 0.0
H60 H 0.7181 0.69916 0.1543 0.0
H61 H 0.82029 0.63929 0.22125 0.0
H62 H 0.95996 0.053 0.83774 0.0
H63 H 0.85813 0.07111 0.92096 0.0
H64 H 0.83365 0.01197 0.81593 0.0
C65 C 0.82691 0.33345 0.47496 0.0
N66 N 0.83672 0.24575 0.44701 0.0
N67 N 0.75322 0.38246 0.42631 0.0
C68 C 0.87787 0.36043 0.56182 0.0
C69 C 0.71935 0.32149 0.36624 0.0
N70 N 0.77285 0.24146 0.37756 0.0
C71 C 0.63 0.33501 0.30443 0.0
H72 H 0.90122 0.44633 0.53988 0.0
H73 H 0.94506 0.32079 0.57044 0.0
H74 H 0.82741 0.33506 0.63594 0.0
H75 H 0.61566 0.4189 0.28232 0.0
H76 H 0.56406 0.28503 0.3538 0.0
H77 H 0.64114 0.30878 0.23223 0.0
C78 C 0.36159 0.5467 0.30181 0.0
N79 N 0.43308 0.60857 0.33535 0.0
N80 N 0.32454 0.60189 0.21128 0.0
C81 C 0.3367 0.42918 0.35004 0.0
C82 C 0.36518 0.70233 0.20145 0.0
N83 N 0.43992 0.70608 0.26625 0.0
C84 C 0.29466 0.78355 0.19013 0.0
H85 H 0.40581 0.3915 0.36093 0.0
H86 H 0.28942 0.3924 0.30137 0.0
H87 H 0.2959 0.4137 0.42848 0.0
H88 H 0.24056 0.7525 0.26037 0.0
H89 H 0.25239 0.79027 0.11975 0.0
H90 H 0.32941 0.86134 0.19486 0.0
C91 C 0.10572 0.29513 0.71847 0.0
N92 N 0.16285 0.21763 0.71533 0.0
N93 N 0.16289 0.37651 0.73821 0.0
C94 C 0.99791 0.27129 0.75888 0.0
C95 C 0.24395 0.3354 0.77306 0.0
N96 N 0.24723 0.24177 0.75432 0.0
C97 C 0.31171 0.3799 0.84153 0.0
H98 H 0.96347 0.34538 0.74569 0.0
H99 H 0.99247 0.23488 0.84582 0.0
H100 H 0.95653 0.21439 0.7245 0.0
H101 H 0.37975 0.34447 0.85749 0.0
H102 H 0.27212 0.367 0.92032 0.0
H103 H 0.33247 0.46538 0.80579 0.0
Co104 Co 1.05922 0.97733 0.61164 0.0
C105 C 0.11641 0.77565 0.58576 0.0
Co106 Co 0.19347 0.92596 0.66216 0.0
C107 C 0.94707 0.1133 0.49354 0.0
C108 C 0.85179 -0.01581 0.60074 0.0
N109 N 0.94495 0.01162 0.55181 0.0
N110 N 0.8644 0.15281 0.51261 0.0
C111 C 0.80174 0.07148 0.57622 0.0
H112 H 1.01153 0.1621 0.44612 0.0
H113 H 0.82496 0.90944 0.65875 0.0
C114 C 0.14192 0.13023 0.68084 0.0
N115 N 0.30751 0.91649 0.7162 0.0
C116 C 0.385 0.88923 0.67011 0.0
C117 C 0.34673 -0.01789 0.76808 0.0
N118 N 0.47125 0.93017 0.69695 0.0
C119 C 0.44719 0.00045 0.74469 0.0
C120 C 0.22263 0.03552 0.43828 0.0
O121 O 1.06154 0.1089 0.64647 0.0
O122 O 0.20369 0.06638 0.68335 0.0
O123 O 0.27361 -0.01203 0.51028 0.0
O124 O 0.13446 0.04362 0.47271 0.0
O125 O 0.18992 0.78727 0.63766 0.0
H126 H 0.30313 0.01254 0.821 0.0
H127 H 0.37828 0.83182 0.62553 0.0
O128 O 1.05573 0.8464 0.57598 0.0
O129 O 0.9819 0.91007 0.74865 0.0
O130 O 0.11369 0.85914 0.81887 0.0
C131 C 1.01945 0.86523 0.83284 0.0
H132 H 0.72549 0.07517 0.60184 0.0
H133 H 0.50102 0.04716 0.7749 0.0
Co134 Co 0.56775 0.00992 1.08988 0.0
C135 C 0.50625 0.79911 0.24894 0.0
Co136 Co 0.62302 0.97976 0.23769 0.0
C137 C 0.5525 0.91745 0.93123 0.0
C138 C 0.41082 0.93675 0.99147 0.0
N139 N 0.50674 -0.01883 0.97769 0.0
N140 N 0.49303 0.8333 0.92246 0.0
C141 C 0.40268 0.84465 0.96028 0.0
H142 H 0.62498 0.94152 0.88724 0.0
H143 H 0.35047 0.96805 1.02432 0.0
C144 C 0.68756 0.19706 1.06385 0.0
N145 N 0.69404 -0.00979 0.34815 0.0
C146 C 0.67751 0.07873 0.37408 0.0
C147 C 0.79392 0.00652 0.32202 0.0
N148 N 0.75564 0.15323 0.34246 0.0
C149 C 0.82953 0.10793 0.31225 0.0
C150 C 0.75387 0.91364 1.08595 0.0
O151 O 0.62163 0.15192 1.01906 0.0
O152 O 0.70337 0.13867 0.15497 0.0
O153 O 0.73399 0.90232 0.18402 0.0
O154 O 0.69698 0.96931 1.02918 0.0
O155 O 0.55218 0.83115 0.31783 0.0
H156 H 0.83819 0.95934 0.29004 0.0
H157 H 0.60866 0.09152 0.41059 0.0
O158 O 0.51377 0.86468 0.15812 0.0
O159 O 0.43739 0.06164 0.14602 0.0
O160 O 0.49863 0.04599 0.29541 0.0
C161 C 0.42341 0.06928 0.24146 0.0
H162 H 0.33434 0.79852 0.95233 0.0
H163 H 0.9037 0.14709 0.28787 0.0
Co164 Co 0.64688 0.58575 0.54485 0.0
C165 C 0.48777 0.57409 0.4209 0.0
Co166 Co 0.55331 0.45492 0.6105 0.0
C167 C 0.80132 0.74698 0.51315 0.0
C168 C 0.74403 0.73622 0.37073 0.0
N169 N 0.72106 0.70971 0.4761 0.0
N170 N 0.8782 0.77309 0.43947 0.0
C171 C 0.84112 0.76986 0.34943 0.0
H172 H 0.80629 0.73938 0.59567 0.0
H173 H 0.70045 0.7146 0.31355 0.0
C174 C 0.703 0.46894 0.74915 0.0
N175 N 0.48036 0.32447 0.66798 0.0
C176 C 0.39193 0.29104 0.64147 0.0
C177 C 0.49259 0.25144 0.75855 0.0
N178 N 0.33902 0.21779 0.72307 0.0
C179 C 0.40398 0.1913 0.79567 0.0
C180 C 0.69795 0.43662 0.47254 0.0
O181 O 0.71639 0.56506 0.68968 0.0
O182 O 0.64846 0.40633 0.71249 0.0
O183 O 0.61102 0.39633 0.51241 0.0
O184 O 0.73786 0.51697 0.49416 0.0
O185 O 0.45246 0.50381 0.50647 0.0
H186 H 0.55634 0.24853 0.80309 0.0
H187 H 0.35614 0.33773 0.57784 0.0
O188 O 0.5777 0.60816 0.41678 0.0
O189 O 0.5641 0.65346 0.58524 0.0
O190 O 0.49757 0.52248 0.71463 0.0
C191 C 0.52296 0.6218 0.67585 0.0
H192 H 0.88295 0.77481 0.27688 0.0
H193 H 0.38404 0.14683 0.87769 0.0
Co194 Co 0.11381 0.51783 1.04024 0.0
C195 C 0.89437 0.38914 1.07015 0.0
Co196 Co 1.03352 0.45813 0.19418 0.0
C197 C 0.10834 0.44675 0.86993 0.0
C198 C 0.19465 0.59933 0.8209 0.0
N199 N 0.14722 0.52594 0.90573 0.0
N200 N 0.13302 0.46211 0.76776 0.0
C201 C 0.18714 0.55901 0.73539 0.0
H202 H 0.08006 0.36893 0.92188 0.0
H203 H 0.23711 0.67255 0.82303 0.0
C204 C 0.24317 0.57246 0.16144 0.0
N205 N 1.01847 0.46752 0.33971 0.0
C206 C 1.02356 0.56716 0.35157 0.0
C207 C 0.07968 0.42307 0.41328 0.0
N208 N 0.09276 0.59074 0.41697 0.0
C209 C 0.12346 0.49699 0.46077 0.0
C210 C 0.16291 0.31114 0.17828 0.0
O211 O 0.24121 0.59521 1.06097 0.0
O212 O 0.16521 0.52178 0.21606 0.0
O213 O 0.0882 0.32068 0.23801 0.0
O214 O 0.1815 0.38237 1.08907 0.0
O215 O 0.89046 0.38145 0.17057 0.0
H216 H 0.10215 0.34545 0.42293 0.0
H217 H 0.97894 0.62362 0.30873 0.0
O218 O 0.97738 0.43993 1.021 0.0
O219 O 1.06211 0.65314 0.98532 0.0
O220 O 0.98056 0.60201 0.13962 0.0
C221 C 0.99906 0.67231 1.04859 0.0
H222 H 0.23308 0.58935 0.66101 0.0
H223 H 0.17671 0.48374 0.51926 0.0
loop_
_geom_bond_atom_site_label_1
_geom_bond_atom_site_label_2
_geom_bond_distance
_geom_bond_site_symmetry_2
_ccdc_geom_bond_type
C0 N1 1.317 . S
C0 N2 1.348 . S
C0 C3 1.485 . S
N1 C0 1.317 . S
N1 N5 1.370 . S
N2 C0 1.348 . S
N2 C4 1.346 . S
C3 C0 1.485 . S
C3 H7 0.960 1_455 S
C3 H8 0.961 . S
C3 H9 0.960 . S
C4 N2 1.346 . S
C4 N5 1.307 . S
C4 C6 1.486 1_554 S
N5 N1 1.370 . S
N5 C4 1.307 . S
C6 C4 1.486 1_556 S
C6 H10 0.960 . S
C6 H11 0.960 . S
C6 H12 0.959 . S
H7 C3 0.960 1_655 S
H8 C3 0.961 . S
H9 C3 0.960 . S
H10 C6 0.960 . S
H11 C6 0.960 . S
H12 C6 0.959 . S
C13 N14 1.317 . S
C13 N15 1.348 . S
C13 C16 1.485 . S
N14 C13 1.317 . S
N14 N18 1.370 . S
N15 C13 1.348 . S
N15 C17 1.346 . S
C16 C13 1.485 . S
C16 H20 0.960 . S
C16 H21 0.961 . S
C16 H22 0.960 . S
C17 N15 1.346 . S
C17 N18 1.307 . S
C17 C19 1.486 . S
N18 N14 1.370 . S
N18 C17 1.307 . S
C19 C17 1.486 . S
C19 H23 0.960 . S
C19 H24 0.960 . S
C19 H25 0.959 . S
H20 C16 0.960 . S
H21 C16 0.961 . S
H22 C16 0.960 . S
H23 C19 0.960 . S
H24 C19 0.960 . S
H25 C19 0.959 . S
C26 N27 1.317 . S
C26 N28 1.348 . S
C26 C29 1.485 . S
N27 C26 1.317 . S
N27 N31 1.370 . S
N28 C26 1.348 . S
N28 C30 1.346 . S
C29 C26 1.485 . S
C29 H33 0.960 . S
C29 H34 0.961 . S
C29 H35 0.960 . S
C30 N28 1.346 . S
C30 N31 1.307 . S
C30 C32 1.486 . S
N31 N27 1.370 . S
N31 C30 1.307 . S
C32 C30 1.486 . S
C32 H36 0.960 . S
C32 H37 0.960 . S
C32 H38 0.959 . S
H33 C29 0.960 . S
H34 C29 0.961 . S
H35 C29 0.960 . S
H36 C32 0.960 . S
H37 C32 0.960 . S
H38 C32 0.959 . S
C39 N40 1.317 . S
C39 N41 1.348 . S
C39 C42 1.485 . S
N40 C39 1.317 . S
N40 N44 1.370 1_655 S
N41 C39 1.348 . S
N41 C43 1.346 . S
C42 C39 1.485 . S
C42 H46 0.960 . S
C42 H47 0.961 . S
C42 H48 0.960 . S
C43 N41 1.346 . S
C43 N44 1.307 1_655 S
C43 C45 1.486 . S
N44 N40 1.370 1_455 S
N44 C43 1.307 1_455 S
C45 C43 1.486 . S
C45 H49 0.960 . S
C45 H50 0.960 . S
C45 H51 0.959 . S
H46 C42 0.960 . S
H47 C42 0.961 . S
H48 C42 0.960 . S
H49 C45 0.960 . S
H50 C45 0.960 . S
H51 C45 0.959 . S
C52 N53 1.317 . S
C52 N54 1.348 . S
C52 C55 1.485 1_556 S
N53 C52 1.317 . S
N53 N57 1.370 . S
N54 C52 1.348 . S
N54 C56 1.346 . S
C55 C52 1.485 1_554 S
C55 H59 0.960 . S
C55 H60 0.961 . S
C55 H61 0.960 . S
C56 N54 1.346 . S
C56 N57 1.307 . S
C56 C58 1.486 1_565 S
N57 N53 1.370 . S
N57 C56 1.307 . S
C58 C56 1.486 1_545 S
C58 H62 0.960 . S
C58 H63 0.960 . S
C58 H64 0.959 . S
H59 C55 0.960 . S
H60 C55 0.961 . S
H61 C55 0.960 . S
H62 C58 0.960 . S
H63 C58 0.960 . S
H64 C58 0.959 . S
C65 N66 1.317 . S
C65 N67 1.348 . S
C65 C68 1.485 . S
N66 C65 1.317 . S
N66 N70 1.370 . S
N67 C65 1.348 . S
N67 C69 1.346 . S
C68 C65 1.485 . S
C68 H72 0.960 . S
C68 H73 0.961 . S
C68 H74 0.960 . S
C69 N67 1.346 . S
C69 N70 1.307 . S
C69 C71 1.486 . S
N70 N66 1.370 . S
N70 C69 1.307 . S
C71 C69 1.486 . S
C71 H75 0.960 . S
C71 H76 0.960 . S
C71 H77 0.959 . S
H72 C68 0.960 . S
H73 C68 0.961 . S
H74 C68 0.960 . S
H75 C71 0.960 . S
H76 C71 0.960 . S
H77 C71 0.959 . S
C78 N79 1.317 . S
C78 N80 1.348 . S
C78 C81 1.485 . S
N79 C78 1.317 . S
N79 N83 1.370 . S
N80 C78 1.348 . S
N80 C82 1.346 . S
C81 C78 1.485 . S
C81 H85 0.960 . S
C81 H86 0.961 . S
C81 H87 0.960 . S
C82 N80 1.346 . S
C82 N83 1.307 . S
C82 C84 1.486 1_554 S
N83 N79 1.370 . S
N83 C82 1.307 . S
C84 C82 1.486 1_556 S
C84 H88 0.961 . S
C84 H89 0.960 . S
C84 H90 0.959 . S
H85 C81 0.960 . S
H86 C81 0.961 . S
H87 C81 0.960 . S
H88 C84 0.961 . S
H89 C84 0.960 . S
H90 C84 0.959 . S
C91 N92 1.317 . S
C91 N93 1.348 . S
C91 C94 1.485 1_455 S
N92 C91 1.317 . S
N92 N96 1.370 . S
N93 C91 1.348 . S
N93 C95 1.346 . S
C94 C91 1.485 1_655 S
C94 H98 0.960 . S
C94 H99 0.961 . S
C94 H100 0.960 . S
C95 N93 1.346 . S
C95 N96 1.307 . S
C95 C97 1.486 . S
N96 N92 1.370 . S
N96 C95 1.307 . S
C97 C95 1.486 . S
C97 H101 0.960 . S
C97 H102 0.960 . S
C97 H103 0.959 . S
H98 C94 0.960 . S
H99 C94 0.961 . S
H100 C94 0.960 . S
H101 C97 0.960 . S
H102 C97 0.960 . S
H103 C97 0.959 . S
Co104 N109 2.057 . S
Co104 O121 2.021 1_655 S
Co104 O124 2.062 1_655 S
Co104 O128 2.117 1_545 S
Co104 O129 2.020 1_545 S
C105 O125 1.259 . S
C105 O128 1.258 1_455 S
Co106 N115 2.057 . S
Co106 O122 2.117 1_565 S
Co106 O123 2.020 1_565 S
Co106 O125 2.021 . S
Co106 O130 2.062 . S
C107 N109 1.316 . S
C107 N110 1.347 . S
C107 H112 0.931 . S
C108 N109 1.375 1_565 S
C108 C111 1.350 1_565 S
C108 H113 0.930 . S
N109 Co104 2.057 . S
N109 C107 1.316 . S
N109 C108 1.375 1_545 S
N110 C107 1.347 . S
N110 C111 1.373 . S
C111 C108 1.350 1_545 S
C111 N110 1.373 . S
C111 H132 0.931 1_545 S
H112 C107 0.931 . S
H113 C108 0.930 . S
C114 O121 1.259 . S
C114 O122 1.258 . S
N115 Co106 2.057 . S
N115 C116 1.316 . S
N115 C117 1.375 1_565 S
C116 N115 1.316 . S
C116 N118 1.347 . S
C116 H127 0.931 . S
C117 N115 1.375 1_545 S
C117 C119 1.350 . S
C117 H126 0.930 . S
N118 C116 1.347 . S
N118 C119 1.373 1_565 S
C119 C117 1.350 . S
C119 N118 1.373 1_545 S
C119 H133 0.931 . S
C120 O123 1.256 . S
C120 O124 1.255 . S
O121 Co104 2.021 1_455 S
O121 C114 1.259 . S
O122 Co106 2.117 1_545 S
O122 C114 1.258 . S
O123 Co106 2.020 1_545 S
O123 C120 1.256 . S
O124 Co104 2.062 1_455 S
O124 C120 1.255 . S
O125 C105 1.259 . S
O125 Co106 2.021 . S
H126 C117 0.930 . S
H127 C116 0.931 . S
O128 Co104 2.117 1_565 S
O128 C105 1.258 1_655 S
O129 Co104 2.020 1_565 S
O129 C131 1.256 1_655 S
O130 Co106 2.062 . S
O130 C131 1.255 . S
C131 O129 1.256 1_455 S
C131 O130 1.255 . S
H132 C111 0.931 1_565 S
H133 C119 0.931 . S
Co134 N139 2.057 1_545 S
Co134 O151 2.021 . S
Co134 O154 2.062 1_545 S
Co134 O158 2.117 1_546 S
Co134 O159 2.020 . S
C135 O155 1.259 . S
C135 O158 1.258 . S
Co136 N145 2.057 . S
Co136 O152 2.117 . S
Co136 O153 2.020 1_545 S
Co136 O155 2.021 1_545 S
Co136 O160 2.062 . S
C137 N139 1.316 . S
C137 N140 1.347 . S
C137 H142 0.931 1_565 S
C138 N139 1.375 . S
C138 C141 1.350 . S
C138 H143 0.930 . S
N139 Co134 2.057 1_565 S
N139 C137 1.316 . S
N139 C138 1.375 . S
N140 C137 1.347 . S
N140 C141 1.373 . S
C141 C138 1.350 . S
C141 N140 1.373 . S
C141 H162 0.931 . S
H142 C137 0.931 1_545 S
H143 C138 0.930 . S
C144 O151 1.259 . S
C144 O152 1.258 1_556 S
N145 Co136 2.057 . S
N145 C146 1.316 . S
N145 C147 1.375 . S
C146 N145 1.316 . S
C146 N148 1.347 . S
C146 H157 0.931 . S
C147 N145 1.375 . S
C147 C149 1.350 . S
C147 H156 0.930 . S
N148 C146 1.347 . S
N148 C149 1.373 . S
C149 C147 1.350 . S
C149 N148 1.373 . S
C149 H163 0.931 . S
C150 O153 1.256 . S
C150 O154 1.255 1_554 S
O151 Co134 2.021 . S
O151 C144 1.259 . S
O152 Co136 2.117 . S
O152 C144 1.258 1_554 S
O153 Co136 2.020 1_565 S
O153 C150 1.256 . S
O154 Co134 2.062 1_565 S
O154 C150 1.255 1_556 S
O155 C135 1.259 . S
O155 Co136 2.021 1_565 S
H156 C147 0.930 . S
H157 C146 0.931 . S
O158 Co134 2.117 1_564 S
O158 C135 1.258 . S
O159 Co134 2.020 . S
O159 C161 1.256 1_556 S
O160 Co136 2.062 . S
O160 C161 1.255 . S
C161 O159 1.256 1_554 S
C161 O160 1.255 . S
H162 C141 0.931 . S
H163 C149 0.931 . S
Co164 N169 2.057 . S
Co164 O181 2.021 . S
Co164 O184 2.062 . S
Co164 O188 2.117 . S
Co164 O189 2.020 . S
C165 O185 1.259 . S
C165 O188 1.258 . S
Co166 N175 2.057 . S
Co166 O182 2.117 . S
Co166 O183 2.020 . S
Co166 O185 2.021 . S
Co166 O190 2.062 . S
C167 N169 1.316 . S
C167 N170 1.347 . S
C167 H172 0.931 . S
C168 N169 1.375 . S
C168 C171 1.350 . S
C168 H173 0.930 . S
N169 Co164 2.057 . S
N169 C167 1.316 . S
N169 C168 1.375 . S
N170 C167 1.347 . S
N170 C171 1.373 . S
C171 C168 1.350 . S
C171 N170 1.373 . S
C171 H192 0.931 . S
H172 C167 0.931 . S
H173 C168 0.930 . S
C174 O181 1.259 . S
C174 O182 1.258 . S
N175 Co166 2.057 . S
N175 C176 1.316 . S
N175 C177 1.375 . S
C176 N175 1.316 . S
C176 N178 1.347 . S
C176 H187 0.931 . S
C177 N175 1.375 . S
C177 C179 1.350 . S
C177 H186 0.930 . S
N178 C176 1.347 . S
N178 C179 1.373 . S
C179 C177 1.350 . S
C179 N178 1.373 . S
C179 H193 0.931 . S
C180 O183 1.256 . S
C180 O184 1.255 . S
O181 Co164 2.021 . S
O181 C174 1.259 . S
O182 Co166 2.117 . S
O182 C174 1.258 . S
O183 Co166 2.020 . S
O183 C180 1.256 . S
O184 Co164 2.062 . S
O184 C180 1.255 . S
O185 C165 1.259 . S
O185 Co166 2.021 . S
H186 C177 0.930 . S
H187 C176 0.931 . S
O188 Co164 2.117 . S
O188 C165 1.258 . S
O189 Co164 2.020 . S
O189 C191 1.256 . S
O190 Co166 2.062 . S
O190 C191 1.255 . S
C191 O189 1.256 . S
C191 O190 1.255 . S
H192 C171 0.931 . S
H193 C179 0.931 . S
Co194 N199 2.057 . S
Co194 O211 2.021 . S
Co194 O214 2.063 . S
Co194 O218 2.117 1_455 S
Co194 O219 2.020 . S
C195 O215 1.259 1_556 S
C195 O218 1.258 . S
Co196 N205 2.057 . S
Co196 O212 2.117 1_655 S
Co196 O213 2.020 1_655 S
Co196 O215 2.021 . S
Co196 O220 2.062 . S
C197 N199 1.316 . S
C197 N200 1.347 . S
C197 H202 0.931 . S
C198 N199 1.375 1_655 S
C198 C201 1.350 . S
C198 H203 0.930 . S
N199 Co194 2.057 . S
N199 C197 1.316 . S
N199 C198 1.375 1_455 S
N200 C197 1.347 . S
N200 C201 1.373 1_455 S
C201 C198 1.350 . S
C201 N200 1.373 1_655 S
C201 H222 0.931 . S
H202 C197 0.931 . S
H203 C198 0.930 . S
C204 O211 1.259 1_554 S
C204 O212 1.258 . S
N205 Co196 2.057 . S
N205 C206 1.316 . S
N205 C207 1.375 1_655 S
C206 N205 1.316 . S
C206 N208 1.347 . S
C206 H217 0.931 . S
C207 N205 1.375 1_455 S
C207 C209 1.350 . S
C207 H216 0.930 . S
N208 C206 1.347 . S
N208 C209 1.373 1_655 S
C209 C207 1.350 . S
C209 N208 1.373 1_455 S
C209 H223 0.931 . S
C210 O213 1.256 . S
C210 O214 1.252 1_554 S
O211 Co194 2.021 . S
O211 C204 1.259 1_556 S
O212 Co196 2.117 1_455 S
O212 C204 1.258 . S
O213 Co196 2.020 1_455 S
O213 C210 1.256 . S
O214 Co194 2.063 . S
O214 C210 1.252 1_556 S
O215 C195 1.259 1_554 S
O215 Co196 2.021 . S
H216 C207 0.930 . S
H217 C206 0.931 . S
O218 Co194 2.117 1_655 S
O218 C195 1.258 . S
O219 Co194 2.020 . S
O219 C221 1.256 1_455 S
O220 Co196 2.062 . S
O220 C221 1.255 1_554 S
C221 O219 1.256 1_655 S
C221 O220 1.255 1_556 S
H222 C201 0.931 . S
H223 C209 0.931 . S
N1 C120 2.694 . S
N18 N140 1.406 . S
C174 N28 2.018 . S
N40 N208 1.342 . S
C161 N5 3.264 . S
N118 N14 1.270 . S
C195 N31 2.618 . S
N170 N41 1.055 . S
N2 C210 2.001 . S
C144 N27 2.029 . S
N44 C105 1.269 . S
N15 C191 1.015 . S
C131 N57 3.076 1_455 S
N70 N148 1.001 . S
N79 C165 2.290 . S
N93 N200 1.244 . S
N54 C150 2.887 1_556 S
N110 N66 1.804 . S
C204 N80 2.083 . S
N178 N96 0.943 . S
N53 C221 2.014 . S
C135 N83 1.960 . S
C114 N92 1.365 . S
N67 C180 0.889 . S
