# Generated by pormake.
# Topology rtl, (3,6)-cn, num edge types: 1
# Building blocks:
#     Node 0, Type 0, BuildingBlock: ESEHIV_clean_linker_0, # of connection points: 3
#     Node 1, Type 0, BuildingBlock: ESEHIV_clean_linker_0, # of connection points: 3
#     Node 2, Type 0, BuildingBlock: ESEHIV_clean_linker_0, # of connection points: 3
#     Node 3, Type 0, BuildingBlock: ESEHIV_clean_linker_0, # of connection points: 3
#     Node 4, Type 1, BuildingBlock: KUMBUR_clean_sbu_1, # of connection points: 6
#     Node 5, Type 1, BuildingBlock: KUMBUR_clean_sbu_1, # of connection points: 6
#     Edge 6, Type (0, 1), None
#     Edge 7, Type (0, 1), None
#     Edge 8, Type (0, 1), None
#     Edge 9, Type (0, 1), None
#     Edge 10, Type (0, 1), None
#     Edge 11, Type (0, 1), None
#     Edge 12, Type (0, 1), None
#     Edge 13, Type (0, 1), None
#     Edge 14, Type (0, 1), None
#     Edge 15, Type (0, 1), None
#     Edge 16, Type (0, 1), None
#     Edge 17, Type (0, 1), None
# Relax obj value: 0.021
# Max RMSD: 0.219
# Mean RMSD: 0.135
data_MOF--net-rtl--node1-KUMBUR_clean_sbu_1--node2-ESEHIV_clean_linker_0--edge1-none
_symmetry_space_group_name_H-M    P1
_symmetry_Int_Tables_number       1
_symmetry_cell_setting            triclinic
loop_
_symmetry_equiv_pos_as_xyz
'x, y, z'
_cell_length_a     13.274803
_cell_length_b     15.067452
_cell_length_c     13.831726
_cell_angle_alpha  63.425971
_cell_angle_beta   95.111194
_cell_angle_gamma 94.062601
loop_
_atom_site_label
_atom_site_type_symbol
_atom_site_fract_x
_atom_site_fract_y
_atom_site_fract_z
_atom_type_partial_charge
H0 H 0.10062 0.90329 0.96108 0.0
H1 H 0.33085 0.70525 0.15614 0.0
H2 H 0.26345 0.74978 0.83004 0.0
C3 C 0.16032 0.85478 0.9685 0.0
C4 C 0.1774 0.83596 0.87925 0.0
C5 C 0.21059 0.8011 0.07101 0.0
C6 C 0.28983 0.74134 0.07799 0.0
C7 C 0.30792 0.71614 0.99474 0.0
C8 C 0.25099 0.76575 0.89473 0.0
H9 H 0.57642 0.55639 0.79963 0.0
H10 H 0.74553 0.77957 0.56102 0.0
H11 H 0.75209 0.76525 0.8815 0.0
C12 C 0.62772 0.61907 0.77855 0.0
C13 C 0.65182 0.65667 0.85238 0.0
C14 C 0.67002 0.65493 0.6801 0.0
C15 C 0.72735 0.74331 0.6446 0.0
C16 C 0.76603 0.78102 0.7181 0.0
C17 C 0.72527 0.73799 0.82358 0.0
H18 H 0.89532 0.06491 0.25146 0.0
H19 H 0.73252 0.21847 0.38248 0.0
H20 H 0.66508 0.26293 0.0564 0.0
C21 C 0.83562 0.11343 0.24404 0.0
C22 C 0.78535 0.16709 0.14154 0.0
C23 C 0.81855 0.13226 0.33329 0.0
C24 C 0.74497 0.20248 0.31779 0.0
C25 C 0.68804 0.25208 0.21779 0.0
C26 C 0.70611 0.22685 0.13456 0.0
H27 H 0.41951 0.41185 0.41286 0.0
H28 H 0.25041 0.18867 0.65149 0.0
H29 H 0.24386 0.20295 0.33103 0.0
C30 C 0.36822 0.34916 0.43396 0.0
C31 C 0.34413 0.31155 0.36013 0.0
C32 C 0.32591 0.3133 0.5324 0.0
C33 C 0.26859 0.22492 0.56792 0.0
C34 C 0.22991 0.1872 0.49443 0.0
C35 C 0.27068 0.23022 0.38894 0.0
Tb36 Tb 0.04221 0.90998 0.52629 0.0
C37 C 0.88765 0.27507 0.56067 0.0
N38 N 0.97322 0.2259 0.60871 0.0
C39 C 0.06253 0.37984 0.57625 0.0
C40 C 0.88865 0.37917 0.51099 0.0
C41 C 0.05805 0.2762 0.62371 0.0
C42 C 0.97787 0.43178 0.51667 0.0
C43 C 0.70671 0.26866 0.52362 0.0
C44 C 0.79711 0.22053 0.56999 0.0
C45 C 0.71142 0.37096 0.45939 0.0
C46 C 0.80019 0.42717 0.459 0.0
Tb47 Tb 0.95374 0.05823 0.68624 0.0
N48 N 0.7993 0.11997 0.61803 0.0
C49 C 0.61671 0.21145 0.53376 0.0
C50 C 0.71224 0.06303 0.63139 0.0
C51 C 0.61935 0.10804 0.58941 0.0
H52 H 0.11814 0.23662 0.68048 0.0
H53 H 0.55024 0.06316 0.59867 0.0
H54 H 0.87781 0.73161 0.53206 0.0
H55 H 0.44571 0.90505 0.61388 0.0
H56 H 0.71397 -0.01667 0.6751 0.0
H57 H 0.54559 0.24609 0.49744 0.0
H58 H 0.28198 -0.01512 0.53745 0.0
H59 H 0.12917 0.41928 0.58987 0.0
H60 H 0.64627 0.40641 0.40898 0.0
H61 H 0.8018 0.50718 0.41613 0.0
H62 H 0.86676 0.54895 0.62266 0.0
H63 H 0.97964 0.51201 0.48116 0.0
H64 H 0.45036 0.72211 0.7151 0.0
N65 N 0.02272 0.74231 0.60383 0.0
C66 C 0.10829 0.69314 0.65187 0.0
C67 C 0.9334 0.58839 0.63628 0.0
C68 C 0.10728 0.58905 0.70155 0.0
C69 C 0.93789 0.69202 0.58884 0.0
C70 C 0.01806 0.53644 0.69586 0.0
N71 N 0.19665 0.84824 0.59449 0.0
C72 C 0.2837 0.90518 0.58115 0.0
C73 C 0.28923 0.69955 0.68891 0.0
C74 C 0.19884 0.74768 0.64254 0.0
C75 C 0.37924 0.75675 0.67877 0.0
C76 C 0.37659 0.86016 0.62314 0.0
H77 H 0.01629 0.45621 0.73136 0.0
H78 H 0.19414 0.46103 0.7964 0.0
H79 H 0.34968 0.56179 0.80354 0.0
O80 O 0.13054 0.94103 0.39238 0.0
O81 O 0.08937 0.85026 0.70568 0.0
O82 O 0.09533 -0.01794 0.74826 0.0
O83 O 0.98696 0.86856 0.40363 0.0
O84 O 0.10619 0.06445 0.47297 0.0
O85 O 0.10787 0.08979 0.62655 0.0
O86 O 0.86541 0.02718 0.82015 0.0
O87 O 0.90659 0.11796 0.50685 0.0
O88 O 0.90062 -0.01384 0.46428 0.0
O89 O 0.00899 0.09966 0.8089 0.0
O90 O 0.88976 0.90376 0.73957 0.0
O91 O 0.88808 0.87844 0.58598 0.0
C92 C 0.11631 0.89066 0.77271 0.0
C93 C 0.10558 0.82635 0.31292 0.0
C94 C 0.16869 0.78176 0.17729 0.0
C95 C 0.16374 0.68144 0.25525 0.0
C96 C 0.1072 0.72567 0.38666 0.0
C97 C 0.13554 0.65455 0.35836 0.0
C98 C 0.13493 0.85465 0.20537 0.0
C99 C 0.14273 0.11039 0.5314 0.0
C100 C 0.06685 0.89759 0.34884 0.0
C101 C 0.19574 0.54104 0.75353 0.0
C102 C 0.28452 0.59725 0.75314 0.0
C103 C 0.87965 0.07756 0.43982 0.0
C104 C 0.89036 0.14186 0.89961 0.0
C105 C 0.82726 0.18644 0.03525 0.0
C106 C 0.83221 0.28677 0.9573 0.0
C107 C 0.88874 0.24255 0.82588 0.0
C108 C 0.86101 0.11356 0.00716 0.0
C109 C 0.8604 0.31366 0.85418 0.0
C110 C 0.85322 0.85783 0.68113 0.0
C111 C 0.92909 0.07063 0.8637 0.0
H112 H 0.1829 0.62202 0.23709 0.0
H113 H 0.08349 0.69986 0.46617 0.0
H114 H 0.13579 0.57752 0.41697 0.0
H115 H 0.13236 0.93143 0.14525 0.0
H116 H 0.81305 0.34618 0.97547 0.0
H117 H 0.91244 0.26835 0.74636 0.0
H118 H 0.86359 0.03678 0.06729 0.0
H119 H 0.86015 0.39069 0.79558 0.0
Tb120 Tb 0.42601 0.42482 0.01452 0.0
C121 C 0.78543 0.63231 0.13042 0.0
N122 N 0.74083 0.53946 0.17862 0.0
C123 C 0.90542 0.46859 0.21158 0.0
C124 C 0.89029 0.64502 0.11795 0.0
C125 C 0.80163 0.45893 0.22353 0.0
C126 C 0.94988 0.56203 0.15686 0.0
C127 C 0.77256 0.81207 0.05484 0.0
C128 C 0.72731 0.71607 0.09852 0.0
C129 C 0.87702 0.82315 0.04407 0.0
C130 C 0.93423 0.7401 0.07251 0.0
Tb131 Tb 0.56991 0.54341 0.19798 0.0
N132 N 0.62573 0.7031 0.10965 0.0
C133 C 0.71123 0.89356 0.0235 0.0
C134 C 0.56723 0.78164 0.08768 0.0
C135 C 0.60839 0.87827 0.04133 0.0
H136 H 0.7753 0.38706 0.27718 0.0
H137 H 0.5612 0.94075 0.02074 0.0
H138 H 0.22065 0.58119 0.9353 0.0
H139 H 0.43466 0.02748 0.1918 0.0
H140 H 0.48938 0.76953 0.10662 0.0
H141 H 0.74199 0.96851 0.98594 0.0
H142 H 0.5065 0.19869 0.10588 0.0
H143 H 0.95163 0.40381 0.24872 0.0
H144 H 0.91524 0.89467 0.01662 0.0
H145 H 0.01333 0.74853 0.06256 0.0
H146 H 0.04432 0.56449 0.96379 0.0
H147 H 0.03102 0.56962 0.15006 0.0
H148 H 0.25386 -0.00025 0.22662 0.0
N149 N 0.25508 0.42879 0.03385 0.0
C150 C 0.21047 0.33595 0.08209 0.0
C151 C 0.09052 0.4997 0.00093 0.0
C152 C 0.10561 0.32327 0.09458 0.0
C153 C 0.19431 0.50934 0.98897 0.0
C154 C 0.04604 0.40627 0.05566 0.0
N155 N 0.37014 0.26514 0.1028 0.0
C156 C 0.42864 0.1866 0.12481 0.0
C157 C 0.2233 0.15619 0.15769 0.0
C158 C 0.26857 0.25218 0.11398 0.0
C159 C 0.28463 0.07469 0.18903 0.0
C160 C 0.38747 0.08997 0.17119 0.0
H161 H 0.96491 0.3987 0.06247 0.0
H162 H 0.98256 0.21979 0.15004 0.0
H163 H 0.08063 0.07361 0.19599 0.0
O164 O 0.34116 0.38444 0.90344 0.0
O165 O 0.41273 0.3339 0.19009 0.0
O166 O 0.41882 0.46566 0.22688 0.0
O167 O 0.49819 0.40022 0.89743 0.0
O168 O 0.57541 0.37247 0.08834 0.0
O169 O 0.6054 0.38239 0.25009 0.0
O170 O 0.65478 0.58376 0.30907 0.0
O171 O 0.5832 0.63432 0.02242 0.0
O172 O 0.57711 0.50256 0.98563 0.0
O173 O 0.49774 0.56805 0.31505 0.0
O174 O 0.42047 0.59566 0.12421 0.0
O175 O 0.39054 0.58584 0.96241 0.0
C176 C 0.39327 0.37145 0.25429 0.0
C177 C 0.40147 0.41144 0.73843 0.0
C178 C 0.33682 0.37847 0.58748 0.0
C179 C 0.3312 0.48188 0.52205 0.0
C180 C 0.41449 0.51194 0.66538 0.0
C181 C 0.37253 0.54799 0.56007 0.0
C182 C 0.3658 0.34345 0.69808 0.0
C183 C 0.6154 0.33628 0.18845 0.0
C184 C 0.41632 0.37637 0.85643 0.0
C185 C 0.06167 0.22819 0.14006 0.0
C186 C 0.11885 0.14512 0.1685 0.0
C187 C 0.60267 0.59677 0.95822 0.0
C188 C 0.59446 0.5568 0.47407 0.0
C189 C 0.65911 0.58977 0.62502 0.0
C190 C 0.66474 0.48635 0.69045 0.0
C191 C 0.58144 0.4563 0.54711 0.0
C192 C 0.63013 0.6248 0.51442 0.0
C193 C 0.62341 0.42025 0.65242 0.0
C194 C 0.38054 0.63193 0.02408 0.0
C195 C 0.57962 0.59187 0.35606 0.0
H196 H 0.30351 0.51148 0.43783 0.0
H197 H 0.45142 0.56485 0.68963 0.0
H198 H 0.37585 0.62685 0.50665 0.0
H199 H 0.36403 0.26446 0.75133 0.0
H200 H 0.69242 0.45676 0.77466 0.0
H201 H 0.54452 0.40339 0.52286 0.0
H202 H 0.63191 0.70378 0.46117 0.0
H203 H 0.62008 0.34139 0.70584 0.0
loop_
_geom_bond_atom_site_label_1
_geom_bond_atom_site_label_2
_geom_bond_distance
_geom_bond_site_symmetry_2
_ccdc_geom_bond_type
H0 C3 0.931 1_545 S
H1 C6 0.928 . S
H2 C8 0.930 . S
C3 H0 0.931 1_565 S
C3 C4 1.413 . S
C3 C5 1.360 1_556 S
C4 C3 1.413 . S
C4 C8 1.429 . S
C5 C3 1.360 1_554 S
C5 C6 1.372 . S
C6 H1 0.928 . S
C6 C5 1.372 . S
C6 C7 1.404 . S
C7 C6 1.404 . S
C7 C8 1.391 1_554 S
C8 H2 0.930 . S
C8 C4 1.429 . S
C8 C7 1.391 1_556 S
H9 C12 0.931 . S
H10 C15 0.928 . S
H11 C17 0.930 . S
C12 H9 0.931 . S
C12 C13 1.413 . S
C12 C14 1.360 . S
C13 C12 1.413 . S
C13 C17 1.429 . S
C14 C12 1.360 . S
C14 C15 1.372 . S
C15 H10 0.928 . S
C15 C14 1.372 . S
C15 C16 1.404 . S
C16 C15 1.404 . S
C16 C17 1.391 . S
C17 H11 0.930 . S
C17 C13 1.429 . S
C17 C16 1.391 . S
H18 C21 0.931 . S
H19 C24 0.928 . S
H20 C26 0.930 . S
C21 H18 0.931 . S
C21 C22 1.413 . S
C21 C23 1.360 . S
C22 C21 1.413 . S
C22 C26 1.429 . S
C23 C21 1.360 . S
C23 C24 1.372 . S
C24 H19 0.928 . S
C24 C23 1.372 . S
C24 C25 1.404 . S
C25 C24 1.404 . S
C25 C26 1.391 . S
C26 H20 0.930 . S
C26 C22 1.429 . S
C26 C25 1.391 . S
H27 C30 0.931 . S
H28 C33 0.928 . S
H29 C35 0.930 . S
C30 H27 0.931 . S
C30 C31 1.413 . S
C30 C32 1.360 . S
C31 C30 1.413 . S
C31 C35 1.429 . S
C32 C30 1.360 . S
C32 C33 1.372 . S
C33 H28 0.928 . S
C33 C32 1.372 . S
C33 C34 1.404 . S
C34 C33 1.404 . S
C34 C35 1.391 . S
C35 H29 0.930 . S
C35 C31 1.429 . S
C35 C34 1.391 . S
Tb36 N65 2.617 . S
Tb36 N71 2.572 . S
Tb36 O80 2.465 . S
Tb36 O81 2.387 . S
Tb36 O83 2.428 . S
Tb36 O84 2.308 1_565 S
Tb36 O88 2.349 1_465 S
Tb36 O91 2.393 1_455 S
Tb36 C100 2.802 . S
C37 N38 1.379 . S
C37 C40 1.416 . S
C37 C44 1.424 . S
N38 C37 1.379 . S
N38 C41 1.334 . S
N38 Tb47 2.617 . S
C39 C41 1.390 . S
C39 C42 1.339 . S
C39 H59 0.930 1_655 S
C40 C37 1.416 . S
C40 C42 1.416 . S
C40 C46 1.448 . S
C41 N38 1.334 . S
C41 C39 1.390 . S
C41 H52 0.930 1_655 S
C42 C39 1.339 . S
C42 C40 1.416 . S
C42 H63 0.930 . S
C43 C44 1.413 . S
C43 C45 1.427 . S
C43 C49 1.416 . S
C44 C37 1.424 . S
C44 C43 1.413 . S
C44 N48 1.361 . S
C45 C43 1.427 . S
C45 C46 1.328 . S
C45 H60 0.929 . S
C46 C40 1.448 . S
C46 C45 1.328 . S
C46 H61 0.930 . S
Tb47 N38 2.617 . S
Tb47 N48 2.572 . S
Tb47 O82 2.349 1_655 S
Tb47 O85 2.393 1_655 S
Tb47 O86 2.465 . S
Tb47 O87 2.387 . S
Tb47 O89 2.428 . S
Tb47 O90 2.308 1_545 S
Tb47 C111 2.802 . S
N48 C44 1.361 . S
N48 Tb47 2.572 . S
N48 C50 1.340 . S
C49 C43 1.416 . S
C49 C51 1.332 . S
C49 H57 0.931 . S
C50 N48 1.340 . S
C50 C51 1.407 . S
C50 H56 0.930 . S
C51 C49 1.332 . S
C51 C50 1.407 . S
C51 H53 0.929 . S
H52 C41 0.930 1_455 S
H53 C51 0.929 . S
H54 C69 0.930 1_655 S
H55 C76 0.929 . S
H56 C50 0.930 . S
H57 C49 0.931 . S
H58 C72 0.930 . S
H59 C39 0.930 1_455 S
H60 C45 0.929 . S
H61 C46 0.930 . S
H62 C67 0.930 1_655 S
H63 C42 0.930 . S
H64 C75 0.931 . S
N65 Tb36 2.617 . S
N65 C66 1.379 . S
N65 C69 1.334 . S
C66 N65 1.379 . S
C66 C68 1.416 . S
C66 C74 1.424 . S
C67 H62 0.930 1_455 S
C67 C69 1.390 . S
C67 C70 1.339 . S
C68 C66 1.416 . S
C68 C70 1.416 . S
C68 C101 1.448 . S
C69 H54 0.930 1_455 S
C69 N65 1.334 . S
C69 C67 1.390 . S
C70 C67 1.339 . S
C70 C68 1.416 . S
C70 H77 0.930 . S
N71 Tb36 2.572 . S
N71 C72 1.340 . S
N71 C74 1.361 . S
C72 H58 0.930 . S
C72 N71 1.340 . S
C72 C76 1.407 . S
C73 C74 1.413 . S
C73 C75 1.416 . S
C73 C102 1.427 . S
C74 C66 1.424 . S
C74 N71 1.361 . S
C74 C73 1.413 . S
C75 H64 0.931 . S
C75 C73 1.416 . S
C75 C76 1.332 . S
C76 H55 0.929 . S
C76 C72 1.407 . S
C76 C75 1.332 . S
H77 C70 0.930 . S
H78 C101 0.930 . S
H79 C102 0.929 . S
O80 Tb36 2.465 . S
O80 C100 1.264 . S
O81 Tb36 2.387 . S
O81 C92 1.264 . S
O82 Tb47 2.349 1_455 S
O82 C92 1.243 1_545 S
O83 Tb36 2.428 . S
O83 C100 1.256 . S
O84 Tb36 2.308 1_545 S
O84 C99 1.266 . S
O85 Tb47 2.393 1_455 S
O85 C99 1.248 . S
O86 Tb47 2.465 . S
O86 C111 1.264 . S
O87 Tb47 2.387 . S
O87 C103 1.264 . S
O88 Tb36 2.349 1_645 S
O88 C103 1.243 . S
O89 Tb47 2.428 . S
O89 C111 1.256 . S
O90 Tb47 2.308 1_565 S
O90 C110 1.266 . S
O91 Tb36 2.393 1_655 S
O91 C110 1.248 . S
C92 O81 1.264 . S
C92 O82 1.243 1_565 S
C93 C96 1.399 . S
C93 C98 1.383 . S
C93 C100 1.496 . S
C94 C95 1.399 . S
C94 C98 1.389 . S
C95 C94 1.399 . S
C95 C97 1.380 . S
C95 H112 0.929 . S
C96 C93 1.399 . S
C96 C97 1.392 . S
C96 H113 0.929 . S
C97 C95 1.380 . S
C97 C96 1.392 . S
C97 H114 0.929 . S
C98 C93 1.383 . S
C98 C94 1.389 . S
C98 H115 0.931 . S
C99 O84 1.266 . S
C99 O85 1.248 . S
C100 Tb36 2.802 . S
C100 O80 1.264 . S
C100 O83 1.256 . S
C100 C93 1.496 . S
C101 C68 1.448 . S
C101 H78 0.930 . S
C101 C102 1.328 . S
C102 C73 1.427 . S
C102 H79 0.929 . S
C102 C101 1.328 . S
C103 O87 1.264 . S
C103 O88 1.243 . S
C104 C107 1.399 . S
C104 C108 1.383 . S
C104 C111 1.496 . S
C105 C106 1.399 . S
C105 C108 1.389 1_554 S
C106 C105 1.399 . S
C106 C109 1.380 1_554 S
C106 H116 0.929 . S
C107 C104 1.399 . S
C107 C109 1.392 . S
C107 H117 0.929 . S
C108 C104 1.383 . S
C108 C105 1.389 1_556 S
C108 H118 0.931 . S
C109 C106 1.380 1_556 S
C109 C107 1.392 . S
C109 H119 0.929 . S
C110 O90 1.266 . S
C110 O91 1.248 . S
C111 Tb47 2.802 . S
C111 O86 1.264 . S
C111 O89 1.256 . S
C111 C104 1.496 . S
H112 C95 0.929 . S
H113 C96 0.929 . S
H114 C97 0.929 . S
H115 C98 0.931 . S
H116 C106 0.929 . S
H117 C107 0.929 . S
H118 C108 0.931 . S
H119 C109 0.929 . S
Tb120 N149 2.617 . S
Tb120 N155 2.572 . S
Tb120 O164 2.465 1_554 S
Tb120 O165 2.387 . S
Tb120 O167 2.428 1_554 S
Tb120 O168 2.308 . S
Tb120 O172 2.349 1_554 S
Tb120 O175 2.393 1_554 S
Tb120 C184 2.802 1_554 S
C121 N122 1.379 . S
C121 C124 1.416 . S
C121 C128 1.424 . S
N122 C121 1.379 . S
N122 C125 1.334 . S
N122 Tb131 2.617 . S
C123 C125 1.390 . S
C123 C126 1.339 1_655 S
C123 H143 0.930 1_655 S
C124 C121 1.416 . S
C124 C126 1.416 1_655 S
C124 C130 1.448 1_655 S
C125 N122 1.334 . S
C125 C123 1.390 . S
C125 H136 0.930 . S
C126 C123 1.339 1_455 S
C126 C124 1.416 1_455 S
C126 H147 0.930 . S
C127 C128 1.413 . S
C127 C129 1.427 . S
C127 C133 1.416 . S
C128 C121 1.424 . S
C128 C127 1.413 . S
C128 N132 1.361 . S
C129 C127 1.427 . S
C129 C130 1.328 1_655 S
C129 H144 0.929 1_655 S
C130 C124 1.448 1_455 S
C130 C129 1.328 1_455 S
C130 H145 0.930 . S
Tb131 N122 2.617 . S
Tb131 N132 2.572 . S
Tb131 O166 2.349 . S
Tb131 O169 2.393 . S
Tb131 O170 2.465 . S
Tb131 O171 2.387 . S
Tb131 O173 2.428 . S
Tb131 O174 2.308 . S
Tb131 C195 2.802 . S
N132 C128 1.361 . S
N132 Tb131 2.572 . S
N132 C134 1.340 . S
C133 C127 1.416 . S
C133 C135 1.332 . S
C133 H141 0.931 1_554 S
C134 N132 1.340 . S
C134 C135 1.407 . S
C134 H140 0.930 . S
C135 C133 1.332 . S
C135 C134 1.407 . S
C135 H137 0.929 . S
H136 C125 0.930 . S
H137 C135 0.929 . S
H138 C153 0.930 . S
H139 C160 0.929 . S
H140 C134 0.930 . S
H141 C133 0.931 1_556 S
H142 C156 0.930 . S
H143 C123 0.930 1_455 S
H144 C129 0.929 1_455 S
H145 C130 0.930 . S
H146 C151 0.930 1_655 S
H147 C126 0.930 . S
H148 C159 0.931 . S
N149 Tb120 2.617 . S
N149 C150 1.379 . S
N149 C153 1.335 1_554 S
C150 N149 1.379 . S
C150 C152 1.416 . S
C150 C158 1.424 . S
C151 H146 0.930 1_455 S
C151 C153 1.390 . S
C151 C154 1.339 1_456 S
C152 C150 1.416 . S
C152 C154 1.416 1_455 S
C152 C185 1.448 1_455 S
C153 H138 0.930 . S
C153 N149 1.335 1_556 S
C153 C151 1.390 . S
C154 C151 1.339 1_654 S
C154 C152 1.416 1_655 S
C154 H161 0.930 . S
N155 Tb120 2.572 . S
N155 C156 1.340 . S
N155 C158 1.361 . S
C156 H142 0.930 . S
C156 N155 1.340 . S
C156 C160 1.407 . S
C157 C158 1.413 . S
C157 C159 1.416 . S
C157 C186 1.427 . S
C158 C150 1.424 . S
C158 N155 1.361 . S
C158 C157 1.413 . S
C159 H148 0.931 . S
C159 C157 1.416 . S
C159 C160 1.332 . S
C160 H139 0.929 . S
C160 C156 1.407 . S
C160 C159 1.332 . S
H161 C154 0.930 . S
H162 C185 0.930 . S
H163 C186 0.929 1_655 S
O164 Tb120 2.465 1_556 S
O164 C184 1.264 . S
O165 Tb120 2.387 . S
O165 C176 1.264 . S
O166 Tb131 2.349 . S
O166 C176 1.243 . S
O167 Tb120 2.428 1_556 S
O167 C184 1.256 . S
O168 Tb120 2.308 . S
O168 C183 1.266 . S
O169 Tb131 2.393 . S
O169 C183 1.248 . S
O170 Tb131 2.465 . S
O170 C195 1.264 . S
O171 Tb131 2.387 . S
O171 C187 1.264 1_554 S
O172 Tb120 2.349 1_556 S
O172 C187 1.243 . S
O173 Tb131 2.428 . S
O173 C195 1.256 . S
O174 Tb131 2.308 . S
O174 C194 1.266 . S
O175 Tb120 2.393 1_556 S
O175 C194 1.248 1_556 S
C176 O165 1.264 . S
C176 O166 1.243 . S
C177 C180 1.399 . S
C177 C182 1.383 . S
C177 C184 1.496 . S
C178 C179 1.399 . S
C178 C182 1.389 . S
C179 C178 1.399 . S
C179 C181 1.380 . S
C179 H196 0.929 . S
C180 C177 1.399 . S
C180 C181 1.392 . S
C180 H197 0.929 . S
C181 C179 1.380 . S
C181 C180 1.392 . S
C181 H198 0.929 . S
C182 C177 1.383 . S
C182 C178 1.389 . S
C182 H199 0.931 . S
C183 O168 1.266 . S
C183 O169 1.248 . S
C184 Tb120 2.802 1_556 S
C184 O164 1.264 . S
C184 O167 1.256 . S
C184 C177 1.496 . S
C185 C152 1.448 1_655 S
C185 H162 0.930 . S
C185 C186 1.328 1_655 S
C186 C157 1.427 . S
C186 H163 0.929 1_455 S
C186 C185 1.328 1_455 S
C187 O171 1.264 1_556 S
C187 O172 1.243 . S
C188 C191 1.399 . S
C188 C192 1.383 . S
C188 C195 1.496 . S
C189 C190 1.399 . S
C189 C192 1.389 . S
C190 C189 1.399 . S
C190 C193 1.380 . S
C190 H200 0.929 . S
C191 C188 1.399 . S
C191 C193 1.392 . S
C191 H201 0.929 . S
C192 C188 1.383 . S
C192 C189 1.389 . S
C192 H202 0.931 . S
C193 C190 1.380 . S
C193 C191 1.392 . S
C193 H203 0.929 . S
C194 O174 1.266 . S
C194 O175 1.248 1_554 S
C195 Tb131 2.802 . S
C195 O170 1.264 . S
C195 O173 1.256 . S
C195 C188 1.496 . S
H196 C179 0.929 . S
H197 C180 0.929 . S
H198 C181 0.929 . S
H199 C182 0.931 . S
H200 C190 0.929 . S
H201 C191 0.929 . S
H202 C192 0.931 . S
H203 C193 0.929 . S
C99 C34 1.646 . S
C7 C194 1.615 . S
C16 C110 1.640 . S
C25 C183 1.607 . S
C94 C5 1.306 . S
C187 C13 1.655 . S
C23 C103 1.739 . S
C32 C178 1.341 . S
C189 C14 1.323 . S
C105 C22 1.301 . S
C176 C31 1.656 . S
C4 C92 1.731 . S
