# Generated by pormake.
# Topology anh, (6,3)-cn, num edge types: 1
# Building blocks:
#     Node 0, Type 0, BuildingBlock: BETGAK_clean_sbu_0, # of connection points: 6
#     Node 1, Type 0, BuildingBlock: BETGAK_clean_sbu_0, # of connection points: 6
#     Node 2, Type 0, BuildingBlock: BETGAK_clean_sbu_0, # of connection points: 6
#     Node 3, Type 1, BuildingBlock: PAMTOO_clean_linker_0, # of connection points: 3
#     Node 4, Type 1, BuildingBlock: PAMTOO_clean_linker_0, # of connection points: 3
#     Node 5, Type 1, BuildingBlock: PAMTOO_clean_linker_0, # of connection points: 3
#     Node 6, Type 1, BuildingBlock: PAMTOO_clean_linker_0, # of connection points: 3
#     Node 7, Type 1, BuildingBlock: PAMTOO_clean_linker_0, # of connection points: 3
#     Node 8, Type 1, BuildingBlock: PAMTOO_clean_linker_0, # of connection points: 3
#     Edge 9, Type (0, 1), None
#     Edge 10, Type (0, 1), None
#     Edge 11, Type (0, 1), None
#     Edge 12, Type (0, 1), None
#     Edge 13, Type (0, 1), None
#     Edge 14, Type (0, 1), None
#     Edge 15, Type (0, 1), None
#     Edge 16, Type (0, 1), None
#     Edge 17, Type (0, 1), None
#     Edge 18, Type (0, 1), None
#     Edge 19, Type (0, 1), None
#     Edge 20, Type (0, 1), None
#     Edge 21, Type (0, 1), None
#     Edge 22, Type (0, 1), None
#     Edge 23, Type (0, 1), None
#     Edge 24, Type (0, 1), None
#     Edge 25, Type (0, 1), None
#     Edge 26, Type (0, 1), None
# Relax obj value: 0.417
# Max RMSD: 0.292
# Mean RMSD: 0.159
data_MOF--net-anh--node1-BETGAK_clean_sbu_0--node2-PAMTOO_clean_linker_0--edge1-none
_symmetry_space_group_name_H-M    P1
_symmetry_Int_Tables_number       1
_symmetry_cell_setting            triclinic
loop_
_symmetry_equiv_pos_as_xyz
'x, y, z'
_cell_length_a     13.172055
_cell_length_b     19.625217
_cell_length_c     22.33825
_cell_angle_alpha  84.788628
_cell_angle_beta   94.062079
_cell_angle_gamma 140.2026
loop_
_atom_site_label
_atom_site_type_symbol
_atom_site_fract_x
_atom_site_fract_y
_atom_site_fract_z
_atom_type_partial_charge
La0 La 0.60164 0.68036 0.15057 0.0
La1 La 0.42256 0.6985 0.19418 0.0
C2 C 0.7017 0.63538 0.10117 0.0
C3 C 0.57674 0.5206 0.08966 0.0
C4 C 0.50639 0.44384 0.13793 0.0
C5 C 0.38202 0.33524 0.12786 0.0
C6 C 1.32835 0.30144 0.06916 0.0
C7 C 0.38033 0.37599 0.02267 0.0
C8 C 0.50535 0.48497 0.0328 0.0
C9 C 0.59877 0.6788 0.26898 0.0
C10 C 0.7687 0.9118 0.15517 0.0
C11 C 1.25299 0.67892 0.25999 0.0
C12 C 1.07994 0.59592 0.26053 0.0
C13 C 0.98857 0.49106 0.25005 0.0
C14 C 0.86181 0.43281 0.20996 0.0
C15 C 0.82472 0.47872 0.18252 0.0
C16 C 0.88934 0.57008 0.2059 0.0
C17 C 1.0169 0.62864 0.24547 0.0
C18 C 0.40154 0.68283 0.07401 0.0
C19 C 1.2541 0.46701 0.18616 0.0
O20 O 0.68793 0.6883 0.07094 0.0
O21 O 0.73438 0.65764 0.15784 0.0
O22 O 0.58246 0.61683 0.24034 0.0
O23 O 0.61577 0.73909 0.23148 0.0
O24 O 0.76847 0.85265 0.13018 0.0
O25 O 0.65323 0.86759 0.19145 0.0
O26 O 1.31828 0.73829 0.20977 0.0
O27 O 1.31042 0.64815 0.27739 0.0
O28 O 0.39012 0.73198 0.10171 0.0
O29 O 0.404 0.63469 0.11408 0.0
O30 O 1.26344 0.52763 0.21497 0.0
O31 O 0.36464 0.51245 0.147 0.0
H32 H 0.55042 0.46728 0.18342 0.0
H33 H 1.34161 0.27899 0.16471 0.0
H34 H 1.33952 0.35141 0.97708 0.0
H35 H 0.55212 0.54204 -0.00427 0.0
H36 H 1.02915 0.46087 0.26468 0.0
H37 H 0.80955 0.36028 0.19426 0.0
H38 H 0.85789 0.6046 0.18689 0.0
H39 H 1.08283 0.70791 0.2548 0.0
La40 La 1.16024 0.2105 0.46829 0.0
La41 La 0.92972 0.20307 0.46002 0.0
C42 C 1.31397 0.18529 0.50749 0.0
C43 C 1.26582 0.09967 0.54574 0.0
C44 C 0.36406 1.09269 0.55248 0.0
C45 C 1.30788 1.00326 0.58299 0.0
C46 C 1.15444 0.92171 0.60764 0.0
C47 C 1.06094 0.93235 0.60425 0.0
C48 C 1.11547 1.02001 0.57269 0.0
C49 C 1.10105 0.23106 0.35806 0.0
C50 C 0.78682 0.98583 0.4621 0.0
C51 C 0.78356 0.2381 0.43633 0.0
C52 C 0.82106 0.32482 0.45662 0.0
C53 C 0.85194 0.3473 0.51777 0.0
C54 C 0.91668 0.44087 0.53565 0.0
C55 C 0.95291 0.51387 0.49281 0.0
C56 C 0.91551 0.48951 0.43208 0.0
C57 C 0.84969 0.39531 0.41412 0.0
C58 C 0.98582 0.17742 0.57123 0.0
C59 C 1.3039 0.43149 0.4492 0.0
O60 O 1.24722 0.15786 0.45431 0.0
O61 O 1.31172 0.24106 0.53372 0.0
O62 O 1.23829 0.27837 0.37621 0.0
O63 O 1.00031 0.16853 0.39917 0.0
O64 O 0.92743 1.03783 0.48366 0.0
O65 O 0.7668 1.03906 0.43868 0.0
O66 O 0.7386 0.16786 0.47807 0.0
O67 O 0.88844 0.26891 0.40015 0.0
O68 O 0.8519 0.13323 0.55158 0.0
O69 O 1.08758 0.24277 0.53042 0.0
O70 O 1.15521 0.37678 0.44778 0.0
O71 O 1.33786 0.38327 0.45919 0.0
H72 H 0.48018 0.15331 0.53171 0.0
H73 H 0.38006 0.99467 0.5844 0.0
H74 H 0.94112 0.86899 0.62184 0.0
H75 H 1.03697 1.02293 0.56744 0.0
H76 H 0.83245 0.29501 0.55166 0.0
H77 H 0.94321 0.45802 0.58277 0.0
H78 H 0.9412 0.54456 0.39843 0.0
H79 H 0.82747 0.37966 0.36683 0.0
La80 La 0.98846 0.72197 0.87362 0.0
La81 La 0.76314 0.49067 0.85168 0.0
C82 C 1.18416 0.91777 0.84898 0.0
C83 C 1.158 0.97366 0.81746 0.0
C84 C 1.04284 0.95796 0.83834 0.0
C85 C 1.0141 1.00745 0.80828 0.0
C86 C 1.10184 1.07676 0.75687 0.0
C87 C 1.21487 1.09055 0.73496 0.0
C88 C 1.24096 1.03842 0.76452 0.0
C89 C 0.85215 0.58969 0.96945 0.0
C90 C 0.62561 0.57404 0.87074 0.0
C91 C 0.56681 0.2936 0.84851 0.0
C92 C 0.58535 0.23502 0.82698 0.0
C93 C 0.65155 0.26123 0.7703 0.0
C94 C 0.69177 0.21699 0.75451 0.0
C95 C 0.66886 0.1474 0.79542 0.0
C96 C 0.59793 0.11845 0.85118 0.0
C97 C 0.55653 0.16202 0.86682 0.0
C98 C 0.91675 0.62079 0.75617 0.0
C99 C 1.12527 0.6349 0.88421 0.0
O100 O 1.11852 0.87156 0.90211 0.0
O101 O 1.16733 0.85742 0.81632 0.0
O102 O 0.90531 0.6795 0.96827 0.0
O103 O 0.89563 0.58737 0.92309 0.0
O104 O 0.77165 0.67369 0.86348 0.0
O105 O 0.59961 0.49285 0.87227 0.0
O106 O 0.57081 0.34854 0.80818 0.0
O107 O 0.65435 0.34803 0.8953 0.0
O108 O 0.88102 0.53865 0.76805 0.0
O109 O 0.86017 0.62595 0.79662 0.0
O110 O 0.97785 0.53768 0.87435 0.0
O111 O 1.15536 0.71764 0.88522 0.0
H112 H 0.97228 0.90584 0.87766 0.0
H113 H 0.9202 0.98941 0.82539 0.0
H114 H 1.2842 0.14213 0.69538 0.0
H115 H 1.32662 1.04908 0.74617 0.0
H116 H 0.67669 0.31816 0.73886 0.0
H117 H 0.74541 0.23959 0.71109 0.0
H118 H 0.57813 1.06426 0.88322 0.0
H119 H 0.50681 0.1415 0.9109 0.0
H120 H 1.20095 0.39873 0.30013 0.0
H121 H 0.91337 1.07457 0.27845 0.0
H122 H 1.06463 0.28185 0.12255 0.0
H123 H 1.01132 1.06168 0.17252 0.0
C124 C 0.90975 1.0323 0.14597 0.0
O125 O 0.87523 1.07955 0.16248 0.0
H126 H 0.94186 1.05341 0.09764 0.0
C127 C 1.14029 0.33532 0.27076 0.0
C128 C 1.14541 0.35437 0.20854 0.0
C129 C 1.06587 0.23753 0.29558 0.0
C130 C 0.97573 0.15168 0.25895 0.0
C131 C 0.97169 0.16606 0.19654 0.0
C132 C 1.06234 0.26914 0.17088 0.0
H133 H 1.04863 0.81351 0.71701 0.0
H134 H 0.87022 0.53378 0.65481 0.0
H135 H 1.07202 0.79128 0.53005 0.0
H136 H 1.13324 0.65228 0.54328 0.0
C137 C 1.03368 0.6176 0.51241 0.0
O138 O 0.92479 0.5991 0.5414 0.0
H139 H 1.08267 0.67526 0.47335 0.0
C140 C 1.02927 0.77024 0.68182 0.0
C141 C 1.07787 0.81628 0.623 0.0
C142 C 0.95824 0.66922 0.6944 0.0
C143 C 0.92767 0.61279 0.64669 0.0
C144 C 0.96518 0.65605 0.58762 0.0
C145 C 1.04194 0.75797 0.57603 0.0
H146 H 1.22418 0.67705 -0.00174 0.0
H147 H 0.50892 0.64233 0.00108 0.0
H148 H 1.29788 0.61611 0.83519 0.0
H149 H 0.41561 0.5162 0.83126 0.0
C150 C 0.48011 0.54854 0.87469 0.0
O151 O 0.51372 0.63423 0.88573 0.0
H152 H 0.39574 0.48198 0.90878 0.0
C153 C 1.27698 0.66384 0.97489 0.0
C154 C 1.24381 0.64389 0.91307 0.0
C155 C 0.37028 0.6619 0.00785 0.0
C156 C 0.43628 0.64266 0.97713 0.0
C157 C 0.41767 0.62952 0.91468 0.0
C158 C 1.31645 0.62749 0.88298 0.0
H159 H 0.43458 0.50155 0.3405 0.0
H160 H 0.71568 0.82846 0.34508 0.0
H161 H 0.46662 0.61752 0.50383 0.0
H162 H 0.58891 0.83913 0.51089 0.0
C163 C 0.64519 0.86531 0.46629 0.0
O164 O 0.68876 0.82059 0.46096 0.0
H165 H 0.55635 0.83768 0.43147 0.0
C166 C 0.47649 0.56504 0.3645 0.0
C167 C 0.42986 0.54453 0.42449 0.0
C168 C 0.57051 0.66493 0.33434 0.0
C169 C 0.63629 0.74959 0.36698 0.0
C170 C 0.60553 0.73422 0.42869 0.0
C171 C 0.49613 0.63039 0.45689 0.0
H172 H 1.11607 0.1318 0.63567 0.0
H173 H 0.9103 0.22325 0.6532 0.0
H174 H 1.0142 0.14535 0.81072 0.0
H175 H 0.70066 1.0545 0.81692 0.0
C176 C 0.72538 0.10784 0.78006 0.0
O177 O 0.88673 0.19416 0.76931 0.0
H178 H 0.66097 1.062 0.73888 0.0
C179 C 1.0766 0.14971 0.66369 0.0
C180 C 1.07047 0.13125 0.72698 0.0
C181 C 1.01877 0.18298 0.63652 0.0
C182 C 0.96124 0.20198 0.67312 0.0
C183 C 0.95871 0.18703 0.73538 0.0
C184 C 1.01726 0.15534 0.76216 0.0
H185 H 0.94276 0.61399 0.08532 0.0
H186 H 0.57074 0.38188 0.96342 0.0
H187 H 0.5556 0.28012 0.14356 0.0
H188 H 1.19887 0.14042 0.09099 0.0
C189 C 1.27046 0.20208 0.05354 0.0
O190 O 0.39598 0.22307 0.04273 0.0
H191 H 1.19331 0.16854 0.01305 0.0
C192 C 0.83307 0.53145 0.0761 0.0
C193 C 0.75623 0.44984 0.12171 0.0
C194 C 0.77029 0.50674 0.01824 0.0
C195 C 0.63005 0.40026 0.00588 0.0
C196 C 0.55087 0.31873 0.05097 0.0
C197 C 0.61871 0.34295 0.10826 0.0
loop_
_geom_bond_atom_site_label_1
_geom_bond_atom_site_label_2
_geom_bond_distance
_geom_bond_site_symmetry_2
_ccdc_geom_bond_type
La0 C2 2.928 . S
La0 O20 2.521 . S
La0 O21 2.628 . S
La0 O22 2.554 . S
La0 O23 2.757 1_455 S
La0 O24 2.470 . S
La0 O29 2.482 . S
La0 O31 2.503 1_455 S
La1 C11 2.928 . S
La1 O23 2.482 . S
La1 O25 2.503 1_655 S
La1 O26 2.521 . S
La1 O27 2.628 . S
La1 O28 2.554 . S
La1 O29 2.757 1_655 S
La1 O30 2.470 . S
C2 La0 2.928 . S
C2 C3 1.503 . S
C2 O20 1.261 . S
C2 O21 1.243 . S
C3 C2 1.503 . S
C3 C4 1.394 . S
C3 C8 1.373 . S
C4 C3 1.394 . S
C4 C5 1.380 . S
C4 H32 0.930 . S
C5 C4 1.380 . S
C5 C6 1.376 . S
C5 H33 0.930 . S
C6 C5 1.376 . S
C6 C7 1.370 . S
C7 C6 1.370 . S
C7 C8 1.396 . S
C7 H34 0.929 . S
C8 C3 1.373 . S
C8 C7 1.396 . S
C8 H35 0.929 . S
C9 O22 1.240 . S
C9 O23 1.289 1_455 S
C10 O24 1.258 . S
C10 O25 1.256 . S
C11 La1 2.928 . S
C11 C12 1.503 . S
C11 O26 1.261 . S
C11 O27 1.243 . S
C12 C11 1.503 . S
C12 C13 1.394 . S
C12 C17 1.373 . S
C13 C12 1.394 . S
C13 C14 1.380 . S
C13 H36 0.930 . S
C14 C13 1.380 . S
C14 C15 1.376 . S
C14 H37 0.930 . S
C15 C14 1.376 . S
C15 C16 1.370 . S
C16 C15 1.370 . S
C16 C17 1.396 . S
C16 H38 0.929 . S
C17 C12 1.373 . S
C17 C16 1.396 . S
C17 H39 0.929 . S
C18 O28 1.240 1_455 S
C18 O29 1.289 . S
C19 O30 1.258 . S
C19 O31 1.256 . S
O20 La0 2.521 . S
O20 C2 1.261 . S
O21 La0 2.628 . S
O21 C2 1.243 . S
O22 La0 2.554 . S
O22 C9 1.240 . S
O23 La0 2.757 1_655 S
O23 La1 2.482 . S
O23 C9 1.289 1_655 S
O24 La0 2.470 . S
O24 C10 1.258 . S
O25 La1 2.503 1_455 S
O25 C10 1.256 . S
O26 La1 2.521 . S
O26 C11 1.261 . S
O27 La1 2.628 . S
O27 C11 1.243 . S
O28 La1 2.554 . S
O28 C18 1.240 1_655 S
O29 La0 2.482 . S
O29 La1 2.757 1_455 S
O29 C18 1.289 . S
O30 La1 2.470 . S
O30 C19 1.258 . S
O31 La0 2.503 1_655 S
O31 C19 1.256 . S
H32 C4 0.930 . S
H33 C5 0.930 . S
H34 C7 0.929 . S
H35 C8 0.929 . S
H36 C13 0.930 . S
H37 C14 0.930 . S
H38 C16 0.929 . S
H39 C17 0.929 . S
La40 C42 2.928 1_545 S
La40 O60 2.521 1_545 S
La40 O61 2.628 1_545 S
La40 O62 2.554 . S
La40 O63 2.757 . S
La40 O64 2.470 1_545 S
La40 O69 2.482 . S
La40 O71 2.503 . S
La41 C51 2.928 . S
La41 O63 2.482 . S
La41 O65 2.503 1_545 S
La41 O66 2.521 . S
La41 O67 2.628 . S
La41 O68 2.554 . S
La41 O69 2.757 . S
La41 O70 2.470 . S
C42 La40 2.928 1_565 S
C42 C43 1.503 . S
C42 O60 1.261 . S
C42 O61 1.243 . S
C43 C42 1.503 . S
C43 C44 1.394 . S
C43 C48 1.373 . S
C44 C43 1.394 . S
C44 C45 1.380 . S
C44 H72 0.930 . S
C45 C44 1.380 . S
C45 C46 1.376 . S
C45 H73 0.930 . S
C46 C45 1.376 . S
C46 C47 1.370 . S
C47 C46 1.370 . S
C47 C48 1.396 . S
C47 H74 0.929 . S
C48 C43 1.373 . S
C48 C47 1.396 . S
C48 H75 0.929 . S
C49 O62 1.240 . S
C49 O63 1.289 . S
C50 O64 1.258 . S
C50 O65 1.256 . S
C51 La41 2.928 . S
C51 C52 1.503 . S
C51 O66 1.261 . S
C51 O67 1.243 . S
C52 C51 1.503 . S
C52 C53 1.394 . S
C52 C57 1.373 . S
C53 C52 1.394 . S
C53 C54 1.380 . S
C53 H76 0.930 . S
C54 C53 1.380 . S
C54 C55 1.376 . S
C54 H77 0.930 . S
C55 C54 1.376 . S
C55 C56 1.370 . S
C56 C55 1.370 . S
C56 C57 1.396 . S
C56 H78 0.929 . S
C57 C52 1.373 . S
C57 C56 1.396 . S
C57 H79 0.929 . S
C58 O68 1.240 . S
C58 O69 1.289 . S
C59 O70 1.258 . S
C59 O71 1.256 . S
O60 La40 2.521 1_565 S
O60 C42 1.261 . S
O61 La40 2.628 1_565 S
O61 C42 1.243 . S
O62 La40 2.554 . S
O62 C49 1.240 . S
O63 La40 2.757 . S
O63 La41 2.482 . S
O63 C49 1.289 . S
O64 La40 2.470 1_565 S
O64 C50 1.258 . S
O65 La41 2.503 1_565 S
O65 C50 1.256 . S
O66 La41 2.521 . S
O66 C51 1.261 . S
O67 La41 2.628 . S
O67 C51 1.243 . S
O68 La41 2.554 . S
O68 C58 1.240 . S
O69 La40 2.482 . S
O69 La41 2.757 . S
O69 C58 1.289 . S
O70 La41 2.470 . S
O70 C59 1.258 . S
O71 La40 2.503 . S
O71 C59 1.256 . S
H72 C44 0.930 . S
H73 C45 0.930 . S
H74 C47 0.929 . S
H75 C48 0.929 . S
H76 C53 0.930 . S
H77 C54 0.930 . S
H78 C56 0.929 . S
H79 C57 0.929 . S
La80 C82 2.928 . S
La80 O100 2.521 . S
La80 O101 2.628 . S
La80 O102 2.554 1_556 S
La80 O103 2.757 . S
La80 O104 2.470 . S
La80 O109 2.482 . S
La80 O111 2.503 . S
La81 C91 2.928 . S
La81 O103 2.482 . S
La81 O105 2.503 . S
La81 O106 2.521 . S
La81 O107 2.628 . S
La81 O108 2.554 . S
La81 O109 2.757 . S
La81 O110 2.470 . S
C82 La80 2.928 . S
C82 C83 1.503 . S
C82 O100 1.261 . S
C82 O101 1.243 . S
C83 C82 1.503 . S
C83 C84 1.394 . S
C83 C88 1.373 . S
C84 C83 1.394 . S
C84 C85 1.380 1_565 S
C84 H112 0.930 . S
C85 C84 1.380 1_545 S
C85 C86 1.376 . S
C85 H113 0.930 . S
C86 C85 1.376 . S
C86 C87 1.370 1_545 S
C87 C86 1.370 1_565 S
C87 C88 1.396 . S
C87 H114 0.929 . S
C88 C83 1.373 . S
C88 C87 1.396 . S
C88 H115 0.929 . S
C89 O102 1.238 1_556 S
C89 O103 1.304 . S
C90 O104 1.258 . S
C90 O105 1.256 . S
C91 La81 2.928 . S
C91 C92 1.503 . S
C91 O106 1.261 . S
C91 O107 1.243 . S
C92 C91 1.503 . S
C92 C93 1.394 . S
C92 C97 1.373 . S
C93 C92 1.394 . S
C93 C94 1.380 . S
C93 H116 0.930 . S
C94 C93 1.380 . S
C94 C95 1.376 . S
C94 H117 0.930 . S
C95 C94 1.376 . S
C95 C96 1.370 . S
C96 C95 1.370 . S
C96 C97 1.396 . S
C96 H118 0.929 . S
C97 C92 1.373 . S
C97 C96 1.396 . S
C97 H119 0.929 . S
C98 O108 1.240 . S
C98 O109 1.289 . S
C99 O110 1.258 . S
C99 O111 1.256 . S
O100 La80 2.521 . S
O100 C82 1.261 . S
O101 La80 2.628 . S
O101 C82 1.243 . S
O102 La80 2.554 1_554 S
O102 C89 1.238 1_554 S
O103 La80 2.757 . S
O103 La81 2.482 . S
O103 C89 1.304 . S
O104 La80 2.470 . S
O104 C90 1.258 . S
O105 La81 2.503 . S
O105 C90 1.256 . S
O106 La81 2.521 . S
O106 C91 1.261 . S
O107 La81 2.628 . S
O107 C91 1.243 . S
O108 La81 2.554 . S
O108 C98 1.240 . S
O109 La80 2.482 . S
O109 La81 2.757 . S
O109 C98 1.289 . S
O110 La81 2.470 . S
O110 C99 1.258 . S
O111 La80 2.503 . S
O111 C99 1.256 . S
H112 C84 0.930 . S
H113 C85 0.930 . S
H114 C87 0.929 . S
H115 C88 0.929 . S
H116 C93 0.930 . S
H117 C94 0.930 . S
H118 C96 0.929 . S
H119 C97 0.929 . S
H120 C127 0.929 . S
H121 C130 0.930 . S
H122 C132 0.929 . S
H123 C124 0.969 . S
C124 H123 0.969 . S
C124 O125 1.550 . S
C124 H126 0.973 . S
O125 C124 1.550 . S
O125 C131 1.412 . S
H126 C124 0.973 . S
C127 H120 0.929 . S
C127 C128 1.400 . S
C127 C129 1.364 . S
C128 C127 1.400 . S
C128 C132 1.377 . S
C129 C127 1.364 . S
C129 C130 1.374 1_545 S
C130 H121 0.930 . S
C130 C129 1.374 1_565 S
C130 C131 1.383 . S
C131 O125 1.412 . S
C131 C130 1.383 . S
C131 C132 1.394 1_565 S
C132 H122 0.929 . S
C132 C128 1.377 . S
C132 C131 1.394 1_545 S
H133 C140 0.929 . S
H134 C143 0.930 . S
H135 C145 0.929 . S
H136 C137 0.969 . S
C137 H136 0.969 . S
C137 O138 1.550 . S
C137 H139 0.973 . S
O138 C137 1.550 . S
O138 C144 1.412 . S
H139 C137 0.973 . S
C140 H133 0.929 . S
C140 C141 1.400 . S
C140 C142 1.364 . S
C141 C140 1.400 . S
C141 C145 1.377 . S
C142 C140 1.364 . S
C142 C143 1.374 . S
C143 H134 0.930 . S
C143 C142 1.374 . S
C143 C144 1.383 . S
C144 O138 1.412 . S
C144 C143 1.383 . S
C144 C145 1.394 . S
C145 H135 0.929 . S
C145 C141 1.377 . S
C145 C144 1.394 . S
H146 C153 0.929 1_655 S
H147 C156 0.930 . S
H148 C158 0.929 . S
H149 C150 0.969 . S
C150 H149 0.969 . S
C150 O151 1.550 . S
C150 H152 0.973 . S
O151 C150 1.550 . S
O151 C157 1.412 . S
H152 C150 0.973 . S
C153 H146 0.929 1_455 S
C153 C154 1.400 . S
C153 C155 1.364 . S
C154 C153 1.400 . S
C154 C158 1.377 . S
C155 C153 1.364 . S
C155 C156 1.374 . S
C156 H147 0.930 . S
C156 C155 1.374 . S
C156 C157 1.383 . S
C157 O151 1.412 . S
C157 C156 1.383 . S
C157 C158 1.394 . S
C158 H148 0.929 . S
C158 C154 1.377 . S
C158 C157 1.394 . S
H159 C166 0.929 . S
H160 C169 0.930 . S
H161 C171 0.929 . S
H162 C163 0.969 . S
C163 H162 0.969 . S
C163 O164 1.550 . S
C163 H165 0.973 . S
O164 C163 1.550 . S
O164 C170 1.412 . S
H165 C163 0.973 . S
C166 H159 0.929 . S
C166 C167 1.400 . S
C166 C168 1.364 . S
C167 C166 1.400 . S
C167 C171 1.377 1_655 S
C168 C166 1.364 . S
C168 C169 1.374 1_655 S
C169 H160 0.930 . S
C169 C168 1.374 1_455 S
C169 C170 1.383 . S
C170 O164 1.412 . S
C170 C169 1.383 . S
C170 C171 1.394 . S
C171 H161 0.929 . S
C171 C167 1.377 1_455 S
C171 C170 1.394 . S
H172 C179 0.929 . S
H173 C182 0.930 . S
H174 C184 0.929 . S
H175 C176 0.969 . S
C176 H175 0.969 . S
C176 O177 1.550 . S
C176 H178 0.973 . S
O177 C176 1.550 . S
O177 C183 1.412 . S
H178 C176 0.973 . S
C179 H172 0.929 . S
C179 C180 1.400 . S
C179 C181 1.361 1_565 S
C180 C179 1.400 . S
C180 C184 1.377 . S
C181 C179 1.361 1_545 S
C181 C182 1.377 . S
C182 H173 0.930 . S
C182 C181 1.377 . S
C182 C183 1.383 . S
C183 O177 1.412 . S
C183 C182 1.383 . S
C183 C184 1.394 1_545 S
C184 H174 0.929 . S
C184 C180 1.377 . S
C184 C183 1.394 1_565 S
H185 C192 0.929 1_556 S
H186 C195 0.930 1_556 S
H187 C197 0.929 . S
H188 C189 0.969 . S
C189 H188 0.969 . S
C189 O190 1.550 . S
C189 H191 0.973 . S
O190 C189 1.550 . S
O190 C196 1.412 . S
H191 C189 0.973 . S
C192 H185 0.929 1_554 S
C192 C193 1.400 . S
C192 C194 1.364 1_554 S
C193 C192 1.400 . S
C193 C197 1.377 . S
C194 C192 1.364 1_556 S
C194 C195 1.374 1_556 S
C195 H186 0.930 1_554 S
C195 C194 1.374 1_554 S
C195 C196 1.383 . S
C196 O190 1.412 . S
C196 C195 1.383 . S
C196 C197 1.394 . S
C197 H187 0.929 . S
C197 C193 1.377 . S
C197 C196 1.394 . S
C6 C189 4.463 . S
C59 C167 2.343 . S
C86 C180 3.279 1_545 S
C15 C193 3.454 . S
C163 C50 2.352 . S
C176 C95 2.122 . S
C46 C141 1.829 . S
C99 C154 4.831 1_655 S
C10 C124 2.583 . S
C137 C55 2.576 . S
C150 C90 4.592 . S
C19 C128 2.477 . S
C155 C18 2.044 1_556 S
C49 C129 1.332 . S
C98 C142 1.467 . S
C181 C58 1.363 . S
C194 C89 1.864 . S
C9 C168 1.027 1_455 S
