# Generated by pormake.
# Topology tsx, (6,3)-cn, num edge types: 1
# Building blocks:
#     Node 0, Type 0, BuildingBlock: FUNLAD_clean_sbu_0, # of connection points: 6
#     Node 1, Type 0, BuildingBlock: FUNLAD_clean_sbu_0, # of connection points: 6
#     Node 2, Type 1, BuildingBlock: INOVEN_clean_linker_0, # of connection points: 3
#     Node 3, Type 1, BuildingBlock: INOVEN_clean_linker_0, # of connection points: 3
#     Node 4, Type 1, BuildingBlock: INOVEN_clean_linker_0, # of connection points: 3
#     Node 5, Type 1, BuildingBlock: INOVEN_clean_linker_0, # of connection points: 3
#     Edge 6, Type (0, 1), BuildingBlock: EYOCIG_clean_linker_4, # of connection points: 2
#     Edge 7, Type (0, 1), BuildingBlock: EYOCIG_clean_linker_4, # of connection points: 2
#     Edge 8, Type (0, 1), BuildingBlock: EYOCIG_clean_linker_4, # of connection points: 2
#     Edge 9, Type (0, 1), BuildingBlock: EYOCIG_clean_linker_4, # of connection points: 2
#     Edge 10, Type (0, 1), BuildingBlock: EYOCIG_clean_linker_4, # of connection points: 2
#     Edge 11, Type (0, 1), BuildingBlock: EYOCIG_clean_linker_4, # of connection points: 2
#     Edge 12, Type (0, 1), BuildingBlock: EYOCIG_clean_linker_4, # of connection points: 2
#     Edge 13, Type (0, 1), BuildingBlock: EYOCIG_clean_linker_4, # of connection points: 2
#     Edge 14, Type (0, 1), BuildingBlock: EYOCIG_clean_linker_4, # of connection points: 2
#     Edge 15, Type (0, 1), BuildingBlock: EYOCIG_clean_linker_4, # of connection points: 2
#     Edge 16, Type (0, 1), BuildingBlock: EYOCIG_clean_linker_4, # of connection points: 2
#     Edge 17, Type (0, 1), BuildingBlock: EYOCIG_clean_linker_4, # of connection points: 2
# Relax obj value: 0.106
# Max RMSD: 0.112
# Mean RMSD: 0.108
data_MOF--net-tsx--node1-FUNLAD_clean_sbu_0--node2-INOVEN_clean_linker_0--edge1-EYOCIG_clean_linker_4
_symmetry_space_group_name_H-M    P1
_symmetry_Int_Tables_number       1
_symmetry_cell_setting            triclinic
loop_
_symmetry_equiv_pos_as_xyz
'x, y, z'
_cell_length_a     15.687902
_cell_length_b     16.478392
_cell_length_c     33.793798
_cell_angle_alpha  90.069214
_cell_angle_beta   101.92655
_cell_angle_gamma 90.016752
loop_
_atom_site_label
_atom_site_type_symbol
_atom_site_fract_x
_atom_site_fract_y
_atom_site_fract_z
_atom_type_partial_charge
C0 C 0.87015 0.89726 -0.02002 0.0
N1 N 0.02673 0.01613 0.07766 0.0
C2 C 0.95419 0.01775 0.09387 0.0
C3 C 0.96173 0.02139 0.13564 0.0
C4 C 0.04455 0.02346 0.16068 0.0
C5 C 0.11852 0.02121 0.1436 0.0
C6 C 0.10805 0.01752 0.10154 0.0
Zn7 Zn 0.00975 0.0154 0.01627 0.0
C8 C 0.12336 0.89758 -0.01511 0.0
N9 N 0.96663 0.0169 0.88759 0.0
C10 C 0.88531 0.01827 0.86371 0.0
C11 C 0.03917 0.019 0.87139 0.0
C12 C 0.03162 0.02312 0.82964 0.0
C13 C 0.94881 0.02518 0.8046 0.0
C14 C 0.87484 0.02244 0.82168 0.0
Zn15 Zn -0.01639 0.01559 0.94898 0.0
O16 O 0.91345 0.92489 0.0131 0.0
C17 C 0.87247 0.13543 -0.02128 0.0
O18 O 0.88519 0.92318 0.94661 0.0
H19 H 0.10315 0.01809 0.8909 0.0
H20 H 0.89021 0.01683 0.07436 0.0
H21 H 0.82865 0.01676 0.87729 0.0
O22 O 0.91244 0.10844 0.01272 0.0
O23 O 0.88856 0.10638 0.94632 0.0
H24 H 0.16471 0.01639 0.08796 0.0
O25 O 0.08073 0.10892 0.95283 0.0
O26 O 0.10465 0.10648 0.01922 0.0
O27 O 0.08004 0.92533 0.95184 0.0
O28 O 0.1083 0.92325 0.01833 0.0
C29 C 0.12063 0.13582 -0.01312 0.0
H30 H 0.90353 0.02289 0.1482 0.0
H31 H 0.18337 0.02258 0.16247 0.0
H32 H 0.08982 0.025 0.81708 0.0
H33 H 0.80999 0.02377 0.80281 0.0
C34 C 0.36948 0.39671 0.47976 0.0
N35 N 0.52588 0.51533 0.57756 0.0
C36 C 0.45326 0.51696 0.59371 0.0
C37 C 0.46066 0.5205 0.63547 0.0
C38 C 0.54342 0.52244 0.66057 0.0
C39 C 0.61747 0.52016 0.64355 0.0
C40 C 0.60714 0.51657 0.6015 0.0
Zn41 Zn 0.5091 0.51474 0.51618 0.0
C42 C 0.62276 0.39693 0.48482 0.0
N43 N 0.46634 0.5165 0.38753 0.0
C44 C 0.38506 0.51795 0.36361 0.0
C45 C 0.53895 0.51862 0.37138 0.0
C46 C 0.53152 0.52287 0.32964 0.0
C47 C 0.44875 0.52502 0.30456 0.0
C48 C 0.37471 0.52225 0.32158 0.0
Zn49 Zn 0.48313 0.51505 0.4489 0.0
O50 O 0.41273 0.42428 0.51291 0.0
C51 C 0.37197 0.63491 0.47862 0.0
O52 O 0.38462 0.42267 0.44642 0.0
H53 H 0.60288 0.51764 0.39093 0.0
H54 H 0.38933 0.51615 0.57416 0.0
H55 H 0.32835 0.51643 0.37714 0.0
O56 O 0.41184 0.60785 0.51262 0.0
O57 O 0.38812 0.60589 0.44622 0.0
H58 H 0.66387 0.51542 0.58796 0.0
O59 O 0.58033 0.60835 0.45286 0.0
O60 O 0.60409 0.60579 0.51925 0.0
O61 O 0.57952 0.42475 0.45177 0.0
O62 O 0.60762 0.42254 0.51825 0.0
C63 C 0.62018 0.63518 0.48695 0.0
H64 H 0.40241 0.52204 0.64799 0.0
H65 H 0.68228 0.52143 0.66246 0.0
H66 H 0.58977 0.52476 0.31712 0.0
H67 H 0.3099 0.52366 0.30268 0.0
H68 H 0.06256 0.98726 0.47336 0.0
H69 H 0.14621 0.91765 0.36513 0.0
H70 H 0.96453 0.11405 0.36154 0.0
N71 N 0.95357 0.10429 0.44066 0.0
N72 N 0.90284 0.15734 0.42322 0.0
C73 C 0.06014 0.99617 0.44148 0.0
C74 C 0.10977 0.94567 0.42169 0.0
C75 C 0.00669 0.05689 0.42009 0.0
C76 C 0.00536 0.06774 0.37863 0.0
C77 C 0.05613 0.01787 0.35907 0.0
C78 C 0.10793 0.95689 0.38054 0.0
H79 H 0.92877 0.98788 0.49185 0.0
H80 H 0.8461 0.91965 0.60044 0.0
H81 H 0.0279 0.11587 0.60338 0.0
N82 N 0.03818 0.10508 0.52419 0.0
N83 N 0.0893 0.1581 0.54151 0.0
C84 C 0.93146 0.99719 0.52374 0.0
C85 C 0.88202 0.94697 0.54372 0.0
C86 C -0.01485 0.05808 0.54495 0.0
C87 C -0.01313 0.06943 0.58642 0.0
C88 C 0.93625 0.01986 0.60618 0.0
C89 C 0.88422 0.95869 0.58488 0.0
H90 H 0.56323 0.48796 -0.02652 0.0
H91 H 0.64564 0.41722 0.86512 0.0
H92 H 0.46419 0.6138 0.86149 0.0
N93 N 0.454 0.60477 0.94072 0.0
N94 N 0.403 0.65759 0.92323 0.0
C95 C 0.56047 0.49657 0.94155 0.0
C96 C 0.60981 0.4458 0.92175 0.0
C97 C 0.50687 0.55714 0.92013 0.0
C98 C 0.50512 0.56759 0.87861 0.0
C99 C 0.55564 0.51749 0.85903 0.0
C100 C 0.60757 0.45664 0.88054 0.0
H101 H 0.42925 0.48852 -0.00814 0.0
H102 H 0.34638 0.42012 0.10036 0.0
H103 H 0.52829 0.61629 0.10346 0.0
N104 N 0.53868 0.60566 0.02429 0.0
N105 N 0.58986 0.65858 0.04165 0.0
C106 C 0.4319 0.4978 0.02374 0.0
C107 C 0.3824 0.44755 0.04368 0.0
C108 C 0.48559 0.55863 0.04499 0.0
C109 C 0.48725 0.56989 0.08647 0.0
C110 C 0.43657 0.52029 0.10618 0.0
C111 C 0.38454 0.45918 0.08483 0.0
C112 C 0.22994 0.25923 -0.00411 0.0
C113 C 0.17954 0.20318 -0.01066 0.0
C114 C 0.28546 0.3261 0.00826 0.0
C115 C 0.3308 0.38234 0.02256 0.0
C116 C 0.24478 0.79274 -0.02446 0.0
C117 C 0.19146 0.83975 -0.01659 0.0
C118 C 0.30408 0.74207 0.96061 0.0
C119 C 0.35144 0.70189 0.94431 0.0
C120 C 0.74856 0.79248 -0.01086 0.0
C121 C 0.80194 0.83945 -0.01869 0.0
C122 C 0.68912 0.74209 0.0041 0.0
C123 C 0.64161 0.70232 0.02048 0.0
C124 C 0.76269 0.25836 0.96988 0.0
C125 C 0.81331 0.20252 -0.02358 0.0
C126 C 0.70694 0.32496 0.95746 0.0
C127 C 0.6615 0.38097 0.94306 0.0
C128 C 0.72954 0.75857 0.49603 0.0
C129 C 0.67912 0.70253 0.48946 0.0
C130 C 0.78507 0.82544 0.50839 0.0
C131 C 0.83041 0.88171 0.52265 0.0
C132 C 0.7442 0.2921 0.47548 0.0
C133 C 0.69086 0.33909 0.48334 0.0
C134 C 0.80358 0.24151 0.46056 0.0
C135 C 0.85107 0.20145 0.44427 0.0
C136 C 0.24786 0.29194 0.48888 0.0
C137 C 0.30124 0.3389 0.48105 0.0
C138 C 0.18844 0.24156 0.50387 0.0
C139 C 0.14098 0.2018 0.52028 0.0
C140 C 0.26231 0.75794 0.46976 0.0
C141 C 0.31287 0.70205 0.47631 0.0
C142 C 0.20665 0.8246 0.45733 0.0
C143 C 0.16131 0.8807 0.44296 0.0
C144 C 0.05518 0.03074 0.23954 0.0
C145 C 0.05275 0.02743 0.20376 0.0
C146 C 0.05473 0.03107 0.28115 0.0
C147 C 0.05362 0.02699 0.31658 0.0
C148 C 0.93808 0.03316 0.72577 0.0
C149 C 0.94059 0.02953 0.76154 0.0
C150 C 0.93835 0.03362 0.68415 0.0
C151 C 0.93923 0.02938 0.64869 0.0
C152 C 0.55394 0.52969 0.73942 0.0
C153 C 0.5515 0.52639 0.70363 0.0
C154 C 0.55365 0.53016 0.78104 0.0
C155 C 0.55281 0.52631 0.8165 0.0
C156 C 0.43823 0.53328 0.22575 0.0
C157 C 0.44065 0.52952 0.26152 0.0
C158 C 0.43858 0.53386 0.18414 0.0
C159 C 0.43951 0.52971 0.14869 0.0
loop_
_geom_bond_atom_site_label_1
_geom_bond_atom_site_label_2
_geom_bond_distance
_geom_bond_site_symmetry_2
_ccdc_geom_bond_type
C0 O16 1.251 . S
C0 O18 1.254 1_554 S
N1 C2 1.333 1_445 S
N1 C6 1.307 . S
N1 Zn7 2.020 . S
C2 N1 1.333 1_665 S
C2 C3 1.379 . S
C2 H20 0.952 . S
C3 C2 1.379 . S
C3 C4 1.390 1_665 S
C3 H30 0.949 . S
C4 C3 1.390 1_445 S
C4 C5 1.357 . S
C5 C4 1.357 . S
C5 C6 1.370 . S
C5 H31 0.950 . S
C6 N1 1.307 . S
C6 C5 1.370 . S
C6 H24 0.948 . S
Zn7 N1 2.020 . S
Zn7 O16 2.039 1_445 S
Zn7 O22 2.034 1_455 S
Zn7 O26 2.025 . S
Zn7 O28 2.024 1_545 S
C8 O27 1.246 1_554 S
C8 O28 1.249 . S
N9 C10 1.307 1_545 S
N9 C11 1.333 1_655 S
N9 Zn15 2.020 1_655 S
C10 N9 1.307 1_565 S
C10 C14 1.370 . S
C10 H21 0.948 . S
C11 N9 1.333 1_455 S
C11 C12 1.379 . S
C11 H19 0.952 . S
C12 C11 1.379 . S
C12 C13 1.390 1_455 S
C12 H32 0.949 . S
C13 C12 1.390 1_655 S
C13 C14 1.357 1_545 S
C14 C10 1.370 . S
C14 C13 1.357 1_565 S
C14 H33 0.950 . S
Zn15 N9 2.020 1_455 S
Zn15 O18 2.025 1_445 S
Zn15 O23 2.024 1_455 S
Zn15 O25 2.039 . S
Zn15 O27 2.034 1_545 S
O16 C0 1.251 . S
O16 Zn7 2.039 1_665 S
C17 O22 1.246 . S
C17 O23 1.249 1_554 S
O18 C0 1.254 1_556 S
O18 Zn15 2.025 1_665 S
H19 C11 0.952 . S
H20 C2 0.952 . S
H21 C10 0.948 . S
O22 Zn7 2.034 1_655 S
O22 C17 1.246 . S
O23 Zn15 2.024 1_655 S
O23 C17 1.249 1_556 S
H24 C6 0.948 . S
O25 Zn15 2.039 . S
O25 C29 1.251 1_556 S
O26 Zn7 2.025 . S
O26 C29 1.254 . S
O27 C8 1.246 1_556 S
O27 Zn15 2.034 1_565 S
O28 Zn7 2.024 1_565 S
O28 C8 1.249 . S
C29 O25 1.251 1_554 S
C29 O26 1.254 . S
H30 C3 0.949 . S
H31 C5 0.950 . S
H32 C12 0.949 . S
H33 C14 0.950 . S
C34 O50 1.251 . S
C34 O52 1.254 . S
N35 C36 1.333 . S
N35 C40 1.307 . S
N35 Zn41 2.020 . S
C36 N35 1.333 . S
C36 C37 1.379 . S
C36 H54 0.952 . S
C37 C36 1.379 . S
C37 C38 1.390 . S
C37 H64 0.949 . S
C38 C37 1.390 . S
C38 C39 1.357 . S
C39 C38 1.357 . S
C39 C40 1.370 . S
C39 H65 0.950 . S
C40 N35 1.307 . S
C40 C39 1.370 . S
C40 H58 0.948 . S
Zn41 N35 2.020 . S
Zn41 O50 2.039 . S
Zn41 O56 2.034 . S
Zn41 O60 2.025 . S
Zn41 O62 2.024 . S
C42 O61 1.246 . S
C42 O62 1.249 . S
N43 C44 1.307 . S
N43 C45 1.333 . S
N43 Zn49 2.020 . S
C44 N43 1.307 . S
C44 C48 1.370 . S
C44 H55 0.948 . S
C45 N43 1.333 . S
C45 C46 1.379 . S
C45 H53 0.952 . S
C46 C45 1.379 . S
C46 C47 1.390 . S
C46 H66 0.949 . S
C47 C46 1.390 . S
C47 C48 1.357 . S
C48 C44 1.370 . S
C48 C47 1.357 . S
C48 H67 0.950 . S
Zn49 N43 2.020 . S
Zn49 O52 2.025 . S
Zn49 O57 2.024 . S
Zn49 O59 2.039 . S
Zn49 O61 2.034 . S
O50 C34 1.251 . S
O50 Zn41 2.039 . S
C51 O56 1.246 . S
C51 O57 1.249 . S
O52 C34 1.254 . S
O52 Zn49 2.025 . S
H53 C45 0.952 . S
H54 C36 0.952 . S
H55 C44 0.948 . S
O56 Zn41 2.034 . S
O56 C51 1.246 . S
O57 Zn49 2.024 . S
O57 C51 1.249 . S
H58 C40 0.948 . S
O59 Zn49 2.039 . S
O59 C63 1.251 . S
O60 Zn41 2.025 . S
O60 C63 1.254 . S
O61 C42 1.246 . S
O61 Zn49 2.034 . S
O62 Zn41 2.024 . S
O62 C42 1.249 . S
C63 O59 1.251 . S
C63 O60 1.254 . S
H64 C37 0.949 . S
H65 C39 0.950 . S
H66 C46 0.949 . S
H67 C48 0.950 . S
H68 C73 0.929 . S
H69 C78 0.931 . S
H70 C76 0.930 1_655 S
N71 N72 1.234 . S
N71 C75 1.453 1_655 S
N72 N71 1.234 . S
C73 H68 0.929 . S
C73 C74 1.373 . S
C73 C75 1.368 1_565 S
C74 C73 1.373 . S
C74 C78 1.397 . S
C75 N71 1.453 1_455 S
C75 C73 1.368 1_545 S
C75 C76 1.373 . S
C76 H70 0.930 1_455 S
C76 C75 1.373 . S
C76 C77 1.370 . S
C77 C76 1.370 . S
C77 C78 1.384 1_545 S
C78 H69 0.931 . S
C78 C74 1.397 . S
C78 C77 1.384 1_565 S
H79 C84 0.929 . S
H80 C89 0.931 . S
H81 C87 0.930 . S
N82 N83 1.234 . S
N82 C86 1.453 . S
N83 N82 1.234 . S
C84 H79 0.929 . S
C84 C85 1.373 . S
C84 C86 1.368 1_665 S
C85 C84 1.373 . S
C85 C89 1.397 . S
C86 N82 1.453 . S
C86 C84 1.368 1_445 S
C86 C87 1.373 . S
C87 H81 0.930 . S
C87 C86 1.373 . S
C87 C88 1.371 1_455 S
C88 C87 1.371 1_655 S
C88 C89 1.383 1_545 S
C89 H80 0.931 . S
C89 C85 1.397 . S
C89 C88 1.383 1_565 S
H90 C95 0.929 . S
H91 C100 0.931 . S
H92 C98 0.930 . S
N93 N94 1.234 1_554 S
N93 C97 1.453 1_554 S
N94 N93 1.234 1_556 S
C95 H90 0.929 . S
C95 C96 1.373 1_554 S
C95 C97 1.368 1_554 S
C96 C95 1.373 1_556 S
C96 C100 1.397 . S
C97 N93 1.453 1_556 S
C97 C95 1.368 1_556 S
C97 C98 1.373 . S
C98 H92 0.930 . S
C98 C97 1.373 . S
C98 C99 1.371 . S
C99 C98 1.371 . S
C99 C100 1.383 . S
C100 H91 0.931 . S
C100 C96 1.397 . S
C100 C99 1.383 . S
H101 C106 0.929 1_556 S
H102 C111 0.931 . S
H103 C109 0.930 . S
N104 N105 1.234 . S
N104 C108 1.453 . S
N105 N104 1.234 . S
C106 H101 0.929 1_554 S
C106 C107 1.373 . S
C106 C108 1.368 . S
C107 C106 1.373 . S
C107 C111 1.397 . S
C108 N104 1.453 . S
C108 C106 1.368 . S
C108 C109 1.373 . S
C109 H103 0.930 . S
C109 C108 1.373 . S
C109 C110 1.371 . S
C110 C109 1.371 . S
C110 C111 1.383 . S
C111 H102 0.931 . S
C111 C107 1.397 . S
C111 C110 1.383 . S
C112 C113 1.170 . S
C112 C114 1.380 . S
C113 C112 1.170 . S
C114 C112 1.380 . S
C114 C115 1.170 . S
C115 C114 1.170 . S
C116 C117 1.170 . S
C116 C118 1.380 . S
C117 C116 1.170 . S
C118 C116 1.380 . S
C118 C119 1.170 . S
C119 C118 1.170 . S
C120 C121 1.170 . S
C120 C122 1.380 . S
C121 C120 1.170 . S
C122 C120 1.380 . S
C122 C123 1.170 . S
C123 C122 1.170 . S
C124 C125 1.170 . S
C124 C126 1.380 . S
C125 C124 1.170 . S
C126 C124 1.380 . S
C126 C127 1.170 1_554 S
C127 C126 1.170 1_556 S
C128 C129 1.170 . S
C128 C130 1.380 . S
C129 C128 1.170 . S
C130 C128 1.380 . S
C130 C131 1.170 . S
C131 C130 1.170 . S
C132 C133 1.170 . S
C132 C134 1.380 . S
C133 C132 1.170 . S
C134 C132 1.380 . S
C134 C135 1.170 . S
C135 C134 1.170 . S
C136 C137 1.170 . S
C136 C138 1.380 . S
C137 C136 1.170 . S
C138 C136 1.380 . S
C138 C139 1.170 . S
C139 C138 1.170 . S
C140 C141 1.170 . S
C140 C142 1.380 . S
C141 C140 1.170 . S
C142 C140 1.380 . S
C142 C143 1.170 . S
C143 C142 1.170 . S
C144 C145 1.170 . S
C144 C146 1.380 . S
C145 C144 1.170 . S
C146 C144 1.380 . S
C146 C147 1.170 . S
C147 C146 1.170 . S
C148 C149 1.170 . S
C148 C150 1.380 . S
C149 C148 1.170 . S
C150 C148 1.380 . S
C150 C151 1.170 . S
C151 C150 1.170 . S
C152 C153 1.170 . S
C152 C154 1.380 . S
C153 C152 1.170 . S
C154 C152 1.380 . S
C154 C155 1.170 . S
C155 C154 1.170 . S
C156 C157 1.170 . S
C156 C158 1.380 . S
C157 C156 1.170 . S
C158 C156 1.380 . S
C158 C159 1.170 . S
C159 C158 1.170 . S
C115 C107 1.466 . S
C113 C29 1.504 . S
C117 C8 1.448 . S
C119 N94 1.409 1_554 S
C121 C0 1.446 . S
C123 N105 1.376 . S
C125 C17 1.503 . S
C127 C96 1.471 . S
C129 C63 1.504 . S
C131 C85 1.462 . S
C133 C42 1.445 . S
C135 N72 1.377 . S
C139 N83 1.413 . S
C137 C34 1.453 . S
C143 C74 1.471 . S
C141 C51 1.501 . S
C145 C4 1.514 . S
C147 C77 1.508 . S
C149 C13 1.512 . S
C151 C88 1.499 . S
C155 C99 1.513 . S
C153 C38 1.517 . S
C157 C47 1.509 . S
C159 C110 1.496 . S
