# Generated by pormake.
# Topology tsx, (6,3)-cn, num edge types: 1
# Building blocks:
#     Node 0, Type 0, BuildingBlock: MIDCAF_clean_sbu_0, # of connection points: 6
#     Node 1, Type 0, BuildingBlock: MIDCAF_clean_sbu_0, # of connection points: 6
#     Node 2, Type 1, BuildingBlock: ESEHIV_clean_linker_0, # of connection points: 3
#     Node 3, Type 1, BuildingBlock: ESEHIV_clean_linker_0, # of connection points: 3
#     Node 4, Type 1, BuildingBlock: ESEHIV_clean_linker_0, # of connection points: 3
#     Node 5, Type 1, BuildingBlock: ESEHIV_clean_linker_0, # of connection points: 3
#     Edge 6, Type (0, 1), None
#     Edge 7, Type (0, 1), None
#     Edge 8, Type (0, 1), None
#     Edge 9, Type (0, 1), None
#     Edge 10, Type (0, 1), None
#     Edge 11, Type (0, 1), None
#     Edge 12, Type (0, 1), None
#     Edge 13, Type (0, 1), None
#     Edge 14, Type (0, 1), None
#     Edge 15, Type (0, 1), None
#     Edge 16, Type (0, 1), None
#     Edge 17, Type (0, 1), None
# Relax obj value: 0.118
# Max RMSD: 0.181
# Mean RMSD: 0.113
data_MOF--net-tsx--node1-MIDCAF_clean_sbu_0--node2-ESEHIV_clean_linker_0--edge1-none
_symmetry_space_group_name_H-M    P1
_symmetry_Int_Tables_number       1
_symmetry_cell_setting            triclinic
loop_
_symmetry_equiv_pos_as_xyz
'x, y, z'
_cell_length_a     7.0782077
_cell_length_b     7.7566698
_cell_length_c     17.751267
_cell_angle_alpha  86.644371
_cell_angle_beta   83.563569
_cell_angle_gamma 91.441522
loop_
_atom_site_label
_atom_site_type_symbol
_atom_site_fract_x
_atom_site_fract_y
_atom_site_fract_z
_atom_type_partial_charge
Zn0 Zn 0.7872 0.03687 0.88792 0.0
Zn1 Zn 0.28599 0.89398 -0.0062 0.0
Zn2 Zn 0.10617 0.08311 -0.0812 0.0
C3 C 0.41116 0.2359 0.02025 0.0
C4 C 0.39157 0.80102 0.848 0.0
O5 O 0.94154 0.85328 -0.01711 0.0
O6 O 0.64861 0.86841 -0.03926 0.0
C7 C 0.818 0.3542 0.84663 0.0
O8 O 0.26283 0.26291 -0.01388 0.0
O9 O 0.467 0.08377 0.02727 0.0
O10 O 0.35248 0.72386 0.91274 0.0
O11 O 0.33193 0.95528 0.83862 0.0
O12 O 0.6804 0.26513 0.881 0.0
O13 O 0.98697 0.29906 0.8483 0.0
O14 O 0.17728 0.06771 0.79612 0.0
O15 O 0.88849 0.97054 0.78217 0.0
C16 C 0.05677 0.01118 0.75355 0.0
O17 O 0.06665 0.10088 0.04872 0.0
O18 O 0.12434 0.83598 0.09045 0.0
C19 C 0.7688 0.79812 -0.00265 0.0
C20 C 0.07348 0.98767 0.10475 0.0
Zn21 Zn 0.7862 0.39382 0.49386 0.0
Zn22 Zn 0.28746 0.53654 0.38796 0.0
Zn23 Zn 0.60635 0.58276 0.41881 0.0
C24 C 0.55691 0.51111 0.25355 0.0
C25 C 0.3182 0.85385 0.34661 0.0
O26 O 0.56679 0.60107 0.54868 0.0
O27 O 0.62421 0.33617 0.59048 0.0
C28 C 0.89172 0.30076 0.34804 0.0
O29 O 0.67734 0.56789 0.29609 0.0
O30 O 0.38874 0.47013 0.28221 0.0
O31 O 0.18064 0.7648 0.38103 0.0
O32 O 0.48718 0.79867 0.34825 0.0
O33 O 0.85266 0.22366 0.4128 0.0
O34 O 0.83211 0.45502 0.33864 0.0
O35 O 0.76296 0.76254 0.4862 0.0
O36 O 0.96729 0.58352 0.5273 0.0
C37 C 0.91136 0.73561 0.52029 0.0
O38 O 0.44188 0.35275 0.48281 0.0
O39 O 0.14887 0.36813 0.46079 0.0
C40 C 0.57341 0.48789 0.60473 0.0
C41 C 0.26911 0.29772 0.49734 0.0
H42 H 0.87156 0.22908 0.19333 0.0
H43 H 0.29047 0.8326 0.19951 0.0
H44 H 0.23801 0.18135 0.37031 0.0
C45 C 0.98796 0.17095 0.21902 0.0
C46 C 1.02908 0.21581 0.2918 0.0
C47 C 0.09285 0.03939 0.18249 0.0
C48 C 0.22442 0.94637 0.22202 0.0
C49 C 0.26809 0.99274 0.29227 0.0
C50 C 0.18717 0.13976 0.32059 0.0
H51 H 0.93781 0.7603 0.67067 0.0
H52 H 0.26718 0.23936 0.65228 0.0
H53 H 0.08354 0.01853 0.45555 0.0
C54 C 1.01347 0.86512 0.63614 0.0
C55 C 1.00824 0.87332 0.55761 0.0
C56 C 0.10419 0.99792 0.67102 0.0
C57 C 0.20609 0.1326 0.62555 0.0
C58 C 0.20554 0.13989 0.54609 0.0
C59 C 0.10033 0.01162 0.5143 0.0
H60 H 0.37147 0.72934 0.69329 0.0
H61 H 0.79038 0.33288 0.69952 0.0
H62 H 0.73788 0.68168 0.87029 0.0
C63 C 0.48787 0.67124 0.71898 0.0
C64 C 0.52897 0.71613 0.79176 0.0
C65 C 0.59277 0.53968 0.68246 0.0
C66 C 0.72432 0.44667 0.72201 0.0
C67 C 0.76796 0.49307 0.79227 0.0
C68 C 0.68706 0.6401 0.82056 0.0
H69 H 0.43794 0.26034 0.17061 0.0
H70 H 0.76704 0.73955 0.1523 0.0
H71 H 0.58323 0.51894 -0.04445 0.0
C72 C 0.5135 0.36525 0.1361 0.0
C73 C 0.5081 0.37357 0.05758 0.0
C74 C 0.60421 0.49802 0.171 0.0
C75 C 0.70596 0.63282 0.12555 0.0
C76 C 0.70527 0.64025 0.04609 0.0
C77 C 0.60007 0.51197 0.01429 0.0
loop_
_geom_bond_atom_site_label_1
_geom_bond_atom_site_label_2
_geom_bond_distance
_geom_bond_site_symmetry_2
_ccdc_geom_bond_type
Zn0 O6 1.920 1_545 S
Zn0 O12 1.898 . S
Zn0 O15 1.905 1_545 S
Zn1 O9 1.905 . S
Zn1 O10 1.898 1_545 S
Zn1 O18 1.920 1_545 S
Zn2 O5 2.080 1_445 S
Zn2 O8 2.114 . S
Zn2 O11 2.120 1_545 S
Zn2 O13 2.120 1_455 S
Zn2 O14 2.114 1_554 S
Zn2 O17 2.080 . S
C3 O8 1.166 . S
C3 O9 1.182 . S
C4 O10 1.167 . S
C4 O11 1.299 . S
O5 Zn2 2.080 1_665 S
O5 C19 1.305 . S
O6 Zn0 1.920 1_565 S
O6 C19 1.234 1_556 S
C7 O12 1.167 . S
C7 O13 1.299 1_556 S
O8 Zn2 2.114 . S
O8 C3 1.166 . S
O9 Zn1 1.905 . S
O9 C3 1.182 . S
O10 Zn1 1.898 1_565 S
O10 C4 1.167 . S
O11 Zn2 2.120 1_565 S
O11 C4 1.299 . S
O12 Zn0 1.898 . S
O12 C7 1.167 . S
O13 Zn2 2.120 1_655 S
O13 C7 1.299 1_554 S
O14 Zn2 2.114 1_556 S
O14 C16 1.166 1_445 S
O15 Zn0 1.905 1_565 S
O15 C16 1.182 . S
C16 O14 1.166 1_665 S
C16 O15 1.182 . S
O17 Zn2 2.080 . S
O17 C20 1.305 1_545 S
O18 Zn1 1.920 1_565 S
O18 C20 1.234 . S
C19 O5 1.305 . S
C19 O6 1.234 1_554 S
C20 O17 1.305 1_565 S
C20 O18 1.234 . S
Zn21 O27 1.920 . S
Zn21 O33 1.898 1_655 S
Zn21 O36 1.905 . S
Zn22 O30 1.905 . S
Zn22 O31 1.898 . S
Zn22 O39 1.920 . S
Zn23 O26 2.080 . S
Zn23 O29 2.114 . S
Zn23 O32 2.120 . S
Zn23 O34 2.120 . S
Zn23 O35 2.114 . S
Zn23 O38 2.080 . S
C24 O29 1.166 . S
C24 O30 1.182 . S
C25 O31 1.167 . S
C25 O32 1.299 . S
O26 Zn23 2.080 . S
O26 C40 1.305 . S
O27 Zn21 1.920 . S
O27 C40 1.234 . S
C28 O33 1.167 1_655 S
C28 O34 1.299 . S
O29 Zn23 2.114 . S
O29 C24 1.166 . S
O30 Zn22 1.905 . S
O30 C24 1.182 . S
O31 Zn22 1.898 . S
O31 C25 1.167 . S
O32 Zn23 2.120 . S
O32 C25 1.299 . S
O33 Zn21 1.898 1_455 S
O33 C28 1.167 1_455 S
O34 Zn23 2.120 . S
O34 C28 1.299 . S
O35 Zn23 2.114 . S
O35 C37 1.166 . S
O36 Zn21 1.905 . S
O36 C37 1.182 . S
C37 O35 1.166 . S
C37 O36 1.182 . S
O38 Zn23 2.080 . S
O38 C41 1.305 . S
O39 Zn22 1.920 . S
O39 C41 1.234 . S
C40 O26 1.305 . S
C40 O27 1.234 . S
C41 O38 1.305 . S
C41 O39 1.234 . S
H42 C45 0.931 . S
H43 C48 0.928 . S
H44 C50 0.930 . S
C45 H42 0.931 . S
C45 C46 1.413 . S
C45 C47 1.360 1_655 S
C46 C45 1.413 . S
C46 C50 1.429 1_655 S
C47 C45 1.360 1_455 S
C47 C48 1.372 1_545 S
C48 H43 0.928 . S
C48 C47 1.372 1_565 S
C48 C49 1.404 . S
C49 C48 1.404 . S
C49 C50 1.391 1_565 S
C50 H44 0.930 . S
C50 C46 1.429 1_455 S
C50 C49 1.391 1_545 S
H51 C54 0.931 . S
H52 C57 0.928 . S
H53 C59 0.930 . S
C54 H51 0.931 . S
C54 C55 1.413 . S
C54 C56 1.360 1_665 S
C55 C54 1.413 . S
C55 C59 1.429 1_665 S
C56 C54 1.360 1_445 S
C56 C57 1.372 . S
C57 H52 0.928 . S
C57 C56 1.372 . S
C57 C58 1.404 . S
C58 C57 1.404 . S
C58 C59 1.391 . S
C59 H53 0.930 . S
C59 C55 1.429 1_445 S
C59 C58 1.391 . S
H60 C63 0.931 . S
H61 C66 0.928 . S
H62 C68 0.935 . S
C63 H60 0.931 . S
C63 C64 1.413 . S
C63 C65 1.360 . S
C64 C63 1.413 . S
C64 C68 1.427 1_556 S
C65 C63 1.360 . S
C65 C66 1.372 . S
C66 H61 0.928 . S
C66 C65 1.372 . S
C66 C67 1.404 . S
C67 C66 1.404 . S
C67 C68 1.388 1_556 S
C68 H62 0.935 . S
C68 C64 1.427 1_554 S
C68 C67 1.388 1_554 S
H69 C72 0.931 . S
H70 C75 0.928 . S
H71 C77 0.930 1_556 S
C72 H69 0.931 . S
C72 C73 1.413 . S
C72 C74 1.360 . S
C73 C72 1.413 . S
C73 C77 1.429 . S
C74 C72 1.360 . S
C74 C75 1.372 . S
C75 H70 0.928 . S
C75 C74 1.372 . S
C75 C76 1.404 . S
C76 C75 1.404 . S
C76 C77 1.391 . S
C77 H71 0.930 1_554 S
C77 C73 1.429 . S
C77 C76 1.391 . S
C73 C3 1.081 . S
C4 C64 1.556 1_554 S
C19 C76 1.603 . S
C7 C67 1.053 . S
C37 C55 1.081 . S
C28 C46 1.556 . S
C58 C41 1.603 . S
C49 C25 1.053 . S
C20 C47 1.461 1_565 S
C16 C56 1.527 1_665 S
C65 C40 1.461 . S
C24 C74 1.527 . S
