# Generated by pormake.
# Topology dag, (6,3)-cn, num edge types: 1
# Building blocks:
#     Node 0, Type 0, BuildingBlock: OJICUG_clean_sbu_0, # of connection points: 6
#     Node 1, Type 0, BuildingBlock: OJICUG_clean_sbu_0, # of connection points: 6
#     Node 2, Type 0, BuildingBlock: OJICUG_clean_sbu_0, # of connection points: 6
#     Node 3, Type 0, BuildingBlock: OJICUG_clean_sbu_0, # of connection points: 6
#     Node 4, Type 1, BuildingBlock: CUQRIR_clean_linker_1, # of connection points: 3
#     Node 5, Type 1, BuildingBlock: CUQRIR_clean_linker_1, # of connection points: 3
#     Node 6, Type 1, BuildingBlock: CUQRIR_clean_linker_1, # of connection points: 3
#     Node 7, Type 1, BuildingBlock: CUQRIR_clean_linker_1, # of connection points: 3
#     Node 8, Type 1, BuildingBlock: CUQRIR_clean_linker_1, # of connection points: 3
#     Node 9, Type 1, BuildingBlock: CUQRIR_clean_linker_1, # of connection points: 3
#     Node 10, Type 1, BuildingBlock: CUQRIR_clean_linker_1, # of connection points: 3
#     Node 11, Type 1, BuildingBlock: CUQRIR_clean_linker_1, # of connection points: 3
#     Edge 12, Type (0, 1), None
#     Edge 13, Type (0, 1), None
#     Edge 14, Type (0, 1), None
#     Edge 15, Type (0, 1), None
#     Edge 16, Type (0, 1), None
#     Edge 17, Type (0, 1), None
#     Edge 18, Type (0, 1), None
#     Edge 19, Type (0, 1), None
#     Edge 20, Type (0, 1), None
#     Edge 21, Type (0, 1), None
#     Edge 22, Type (0, 1), None
#     Edge 23, Type (0, 1), None
#     Edge 24, Type (0, 1), None
#     Edge 25, Type (0, 1), None
#     Edge 26, Type (0, 1), None
#     Edge 27, Type (0, 1), None
#     Edge 28, Type (0, 1), None
#     Edge 29, Type (0, 1), None
#     Edge 30, Type (0, 1), None
#     Edge 31, Type (0, 1), None
#     Edge 32, Type (0, 1), None
#     Edge 33, Type (0, 1), None
#     Edge 34, Type (0, 1), None
#     Edge 35, Type (0, 1), None
# Relax obj value: 0.077
# Max RMSD: 0.105
# Mean RMSD: 0.094
data_MOF--net-dag--node1-OJICUG_clean_sbu_0--node2-CUQRIR_clean_linker_1--edge1-none
_symmetry_space_group_name_H-M    P1
_symmetry_Int_Tables_number       1
_symmetry_cell_setting            triclinic
loop_
_symmetry_equiv_pos_as_xyz
'x, y, z'
_cell_length_a     16.30273
_cell_length_b     16.156551
_cell_length_c     14.011545
_cell_angle_alpha  92.043398
_cell_angle_beta   90.00225
_cell_angle_gamma 90.001629
loop_
_atom_site_label
_atom_site_type_symbol
_atom_site_fract_x
_atom_site_fract_y
_atom_site_fract_z
_atom_type_partial_charge
Sc0 Sc -0.00559 0.90764 1.03352 0.0
Sc1 Sc 0.03677 0.70738 0.07294 0.0
Sc2 Sc 0.19249 0.8673 0.08632 0.0
O3 O 0.07502 0.8269 0.0711 0.0
C4 C 0.13015 -0.00307 0.93581 0.0
C5 C 0.91321 0.77432 0.91699 0.0
C6 C 0.19601 0.71301 0.93458 0.0
C7 C 0.89259 0.79306 0.18106 0.0
C8 C 0.0983 0.00322 0.20515 0.0
C9 C 0.18631 0.71081 0.2216 0.0
O10 O 0.06766 0.95377 0.92414 0.0
O11 O 0.93388 0.71563 0.9701 0.0
O12 O 0.2246 0.78102 0.97093 0.0
O13 O 0.90472 0.8547 0.12917 0.0
O14 O 0.16043 0.95501 0.2011 0.0
O15 O 0.12177 0.67992 0.18456 0.0
O16 O 0.03897 -0.00768 0.14713 0.0
O17 O 0.94491 0.7344 0.18178 0.0
O18 O 0.21902 0.7754 0.18951 0.0
O19 O -0.04183 0.8362 0.91265 0.0
O20 O 0.18624 -0.02563 0.9923 0.0
O21 O 0.12886 0.68014 0.96321 0.0
Sc22 Sc 0.69249 0.54974 0.54297 0.0
Sc23 Sc 0.53677 0.70965 0.55632 0.0
Sc24 Sc 0.49442 0.50939 0.59576 0.0
O25 O 0.57502 0.59013 0.55817 0.0
C26 C 0.5983 0.4138 0.42415 0.0
C27 C 0.68631 0.70621 0.40766 0.0
C28 C 0.39259 0.62396 0.4482 0.0
C29 C 0.696 0.70403 0.69469 0.0
C30 C 0.63015 0.42012 0.69351 0.0
C31 C 0.41321 0.64273 0.71228 0.0
O32 O 0.66043 0.46201 0.4282 0.0
O33 O 0.62178 0.7371 0.4447 0.0
O34 O 0.40473 0.56233 0.5001 0.0
O35 O 0.7246 0.63603 0.65834 0.0
O36 O 0.56766 0.46329 0.70516 0.0
O37 O 0.43388 0.70141 0.65916 0.0
O38 O 0.68624 0.44268 0.637 0.0
O39 O 0.62886 0.7369 0.66605 0.0
O40 O 0.45817 0.58086 0.71662 0.0
O41 O 0.71902 0.64163 0.43977 0.0
O42 O 0.53897 0.42471 0.48217 0.0
O43 O 0.44492 0.68261 0.44748 0.0
Sc44 Sc 0.85393 0.20965 0.05634 0.0
Sc45 Sc 0.6982 0.04974 1.04297 0.0
Sc46 Sc 0.89628 0.00939 0.09577 0.0
O47 O 0.81567 0.09013 0.05819 0.0
C48 C -0.00189 0.12397 0.94822 0.0
C49 C 0.70438 0.20623 0.90769 0.0
C50 C 0.79239 0.91381 0.92414 0.0
C51 C 0.69469 0.20402 0.19471 0.0
C52 C -0.02252 0.14272 0.21231 0.0
C53 C 0.76055 0.9201 0.19347 0.0
O54 O 0.94578 0.18262 0.9475 0.0
O55 O 0.67168 0.14163 0.93978 0.0
O56 O 0.85172 0.92472 0.98216 0.0
O57 O 0.76184 0.23689 0.16608 0.0
O58 O 0.93252 0.08083 0.21664 0.0
O59 O 0.70445 0.94266 0.13699 0.0
O60 O -0.04319 0.20139 0.15919 0.0
O61 O 0.66609 0.13602 0.15836 0.0
O62 O 0.82303 -0.03673 0.20514 0.0
O63 O 0.76892 0.23712 0.94473 0.0
O64 O -0.01403 0.06234 1.00012 0.0
O65 O 0.73026 -0.03798 0.92819 0.0
Sc66 Sc 0.39628 0.40764 0.53352 0.0
Sc67 Sc 0.1982 0.3673 0.58632 0.0
Sc68 Sc 0.35393 0.20739 0.57297 0.0
O69 O 0.31567 0.32691 0.57112 0.0
C70 C 0.47747 0.2743 0.41699 0.0
C71 C 0.26054 0.49692 0.4358 0.0
C72 C 0.19469 0.213 0.4346 0.0
C73 C 0.29239 0.50323 0.70514 0.0
C74 C 0.4981 0.29308 0.68109 0.0
C75 C 0.20438 0.21082 0.72162 0.0
O76 O 0.43252 0.33619 0.41266 0.0
O77 O 0.20445 0.47436 0.49229 0.0
O78 O 0.26184 0.18014 0.46324 0.0
O79 O 0.35172 0.49232 0.64712 0.0
O80 O 0.44577 0.23443 0.68182 0.0
O81 O 0.17168 0.27541 0.68952 0.0
O82 O 0.48597 0.35471 0.62918 0.0
O83 O 0.23026 0.45503 0.70109 0.0
O84 O 0.26891 0.17993 0.68458 0.0
O85 O 0.32303 0.45375 0.42413 0.0
O86 O 0.45681 0.21564 0.47013 0.0
O87 O 0.16609 0.281 0.47095 0.0
C88 C 0.08444 0.20163 0.31504 0.0
N89 N 0.05179 0.14069 0.25778 0.0
N90 N 0.1502 0.17265 0.36403 0.0
C91 C 0.04899 0.2878 0.32865 0.0
C92 C 0.15722 0.09212 0.33251 0.0
N93 N 0.0988 0.0728 0.26603 0.0
C94 C 0.21137 0.02866 0.37868 0.0
H95 H 0.0986 0.33448 0.32354 0.0
H96 H 0.02112 0.29444 0.40078 0.0
H97 H 0.00138 0.30246 0.27582 0.0
H98 H 0.21424 0.03986 0.45711 0.0
H99 H 0.27434 0.03238 0.34905 0.0
H100 H 0.18772 -0.03525 0.36783 0.0
C101 C 0.23348 0.59213 0.83249 0.0
N102 N 0.2919 0.57282 0.76601 0.0
N103 N 0.2405 0.67266 0.86401 0.0
C104 C 0.17936 0.52866 0.87867 0.0
C105 C 0.30626 0.70166 0.81501 0.0
N106 N 0.33891 0.64072 0.75776 0.0
C107 C 0.3417 0.78783 0.82862 0.0
H108 H 0.11639 0.53234 0.84903 0.0
H109 H 0.17648 0.53988 0.9571 0.0
H110 H 0.20303 0.46476 0.86784 0.0
H111 H 0.36958 0.79447 0.90075 0.0
H112 H 0.29209 0.8345 0.82351 0.0
H113 H 0.3893 0.80249 0.77578 0.0
C114 C 0.70008 0.81786 0.29424 0.0
N115 N 0.75903 0.84477 0.2348 0.0
N116 N 0.72341 0.74569 0.33394 0.0
C117 C 0.6232 0.86603 0.32024 0.0
C118 C 0.79635 0.72681 0.29037 0.0
N119 N 0.82084 0.78946 0.23414 0.0
C120 C 0.83833 0.64308 0.29324 0.0
H121 H 0.62696 0.88846 0.39591 0.0
H122 H 0.56877 0.8251 0.31218 0.0
H123 H 0.61364 0.9204 0.27574 0.0
H124 H 0.7963 0.59264 0.31236 0.0
H125 H 0.89022 0.64665 0.34449 0.0
H126 H 0.86183 0.62319 0.22195 0.0
C127 C 0.69061 0.31788 0.79428 0.0
N128 N 0.63167 0.34479 0.73483 0.0
N129 N 0.66728 0.24571 0.83396 0.0
C130 C 0.7675 0.36605 0.82028 0.0
C131 C 0.59434 0.22683 0.79039 0.0
N132 N 0.56985 0.28948 0.73417 0.0
C133 C 0.55236 0.14309 0.79325 0.0
H134 H 0.82192 0.32512 0.81222 0.0
H135 H 0.76375 0.38848 0.89595 0.0
H136 H 0.77706 0.42042 0.77578 0.0
H137 H 0.50048 0.14665 0.8445 0.0
H138 H 0.5944 0.09266 0.81236 0.0
H139 H 0.52886 0.12322 0.72195 0.0
C140 C 0.58443 0.21539 0.31427 0.0
N141 N 0.55178 0.27633 0.37153 0.0
N142 N 0.6502 0.24437 0.26528 0.0
C143 C 0.54898 0.12921 0.30066 0.0
C144 C 0.65722 0.3249 0.2968 0.0
N145 N 0.5988 0.34422 0.36327 0.0
C146 C 0.71136 0.38836 0.25062 0.0
H147 H 0.59859 0.08254 0.30577 0.0
H148 H 0.52111 0.12257 0.22853 0.0
H149 H 0.50137 0.11456 0.35349 0.0
H150 H 0.71423 0.37716 0.17219 0.0
H151 H 0.77433 0.38465 0.28026 0.0
H152 H 0.68771 0.45227 0.26146 0.0
C153 C 0.09434 0.19023 0.83892 0.0
N154 N 0.06985 0.12757 0.89514 0.0
N155 N 0.16728 0.17134 0.79535 0.0
C156 C 0.05236 0.27395 0.83605 0.0
C157 C 0.19061 0.09918 0.83504 0.0
N158 N 0.13167 0.07226 0.89449 0.0
C159 C 0.2675 0.05101 0.80905 0.0
H160 H 0.00045 0.27038 0.78482 0.0
H161 H 0.09438 0.32439 0.81692 0.0
H162 H 0.02887 0.29383 0.90736 0.0
H163 H 0.32192 0.09195 0.81711 0.0
H164 H 0.26375 0.02858 0.73338 0.0
H165 H 0.27706 -0.00336 0.85355 0.0
C166 C 0.20008 0.59916 0.33502 0.0
N167 N 0.25903 0.57225 0.39447 0.0
N168 N 0.22341 0.67133 0.29533 0.0
C169 C 0.1232 0.55098 0.30902 0.0
C170 C 0.29635 0.69021 0.3389 0.0
N171 N 0.32084 0.62756 0.39512 0.0
C172 C 0.33833 0.77394 0.33604 0.0
H173 H 0.12695 0.52856 0.23334 0.0
H174 H 0.06877 0.59191 0.31707 0.0
H175 H 0.11364 0.49661 0.35351 0.0
H176 H 0.29629 0.82438 0.31693 0.0
H177 H 0.39022 0.77039 0.28479 0.0
H178 H 0.36183 0.79382 0.40734 0.0
C179 C 0.73347 0.82491 0.79678 0.0
N180 N 0.7919 0.84423 0.86326 0.0
N181 N 0.74049 0.74439 0.76526 0.0
C182 C 0.67935 0.88839 0.7506 0.0
C183 C 0.80625 0.71539 0.81426 0.0
N184 N 0.83891 0.77633 0.87152 0.0
C185 C 0.8417 0.62922 0.80065 0.0
H186 H 0.61638 0.8847 0.78024 0.0
H187 H 0.67647 0.87718 0.67218 0.0
H188 H 0.70302 0.95229 0.76144 0.0
H189 H 0.86957 0.62258 0.72852 0.0
H190 H 0.79208 0.58255 0.80575 0.0
H191 H 0.8893 0.61456 0.85349 0.0
loop_
_geom_bond_atom_site_label_1
_geom_bond_atom_site_label_2
_geom_bond_distance
_geom_bond_site_symmetry_2
_ccdc_geom_bond_type
Sc0 O3 2.025 . S
Sc0 O10 2.105 1_564 S
Sc0 O13 2.105 1_455 S
Sc0 O16 2.105 1_565 S
Sc0 O19 2.105 1_454 S
Sc1 O3 2.025 . S
Sc1 O11 2.105 1_554 S
Sc1 O15 2.105 . S
Sc1 O17 2.105 1_455 S
Sc1 O21 2.105 1_554 S
Sc2 O3 2.025 . S
Sc2 O12 2.105 1_554 S
Sc2 O14 2.105 . S
Sc2 O18 2.105 . S
Sc2 O20 2.105 1_564 S
O3 Sc0 2.025 . S
O3 Sc1 2.025 . S
O3 Sc2 2.025 . S
C4 O10 1.268 . S
C4 O20 1.268 . S
C5 O11 1.268 1_655 S
C5 O19 1.268 . S
C6 O12 1.268 . S
C6 O21 1.268 . S
C7 O13 1.268 . S
C7 O17 1.268 . S
C8 O14 1.268 1_545 S
C8 O16 1.268 . S
C9 O15 1.268 . S
C9 O18 1.268 . S
O10 Sc0 2.105 1_546 S
O10 C4 1.268 . S
O11 Sc1 2.105 1_556 S
O11 C5 1.268 1_455 S
O12 Sc2 2.105 1_556 S
O12 C6 1.268 . S
O13 Sc0 2.105 1_655 S
O13 C7 1.268 . S
O14 Sc2 2.105 . S
O14 C8 1.268 1_565 S
O15 Sc1 2.105 . S
O15 C9 1.268 . S
O16 Sc0 2.105 1_545 S
O16 C8 1.268 . S
O17 Sc1 2.105 1_655 S
O17 C7 1.268 . S
O18 Sc2 2.105 . S
O18 C9 1.268 . S
O19 Sc0 2.105 1_656 S
O19 C5 1.268 . S
O20 Sc2 2.105 1_546 S
O20 C4 1.268 . S
O21 Sc1 2.105 1_556 S
O21 C6 1.268 . S
Sc22 O25 2.025 . S
Sc22 O32 2.105 . S
Sc22 O35 2.105 . S
Sc22 O38 2.105 . S
Sc22 O41 2.105 . S
Sc23 O25 2.025 . S
Sc23 O33 2.105 . S
Sc23 O37 2.105 . S
Sc23 O39 2.105 . S
Sc23 O43 2.105 . S
Sc24 O25 2.025 . S
Sc24 O34 2.105 . S
Sc24 O36 2.105 . S
Sc24 O40 2.105 . S
Sc24 O42 2.105 . S
O25 Sc22 2.025 . S
O25 Sc23 2.025 . S
O25 Sc24 2.025 . S
C26 O32 1.268 . S
C26 O42 1.268 . S
C27 O33 1.268 . S
C27 O41 1.268 . S
C28 O34 1.268 . S
C28 O43 1.268 . S
C29 O35 1.268 . S
C29 O39 1.268 . S
C30 O36 1.268 . S
C30 O38 1.268 . S
C31 O37 1.268 . S
C31 O40 1.268 . S
O32 Sc22 2.105 . S
O32 C26 1.268 . S
O33 Sc23 2.105 . S
O33 C27 1.268 . S
O34 Sc24 2.105 . S
O34 C28 1.268 . S
O35 Sc22 2.105 . S
O35 C29 1.268 . S
O36 Sc24 2.105 . S
O36 C30 1.268 . S
O37 Sc23 2.105 . S
O37 C31 1.268 . S
O38 Sc22 2.105 . S
O38 C30 1.268 . S
O39 Sc23 2.105 . S
O39 C29 1.268 . S
O40 Sc24 2.105 . S
O40 C31 1.268 . S
O41 Sc22 2.105 . S
O41 C27 1.268 . S
O42 Sc24 2.105 . S
O42 C26 1.268 . S
O43 Sc23 2.105 . S
O43 C28 1.268 . S
Sc44 O47 2.025 . S
Sc44 O54 2.105 1_654 S
Sc44 O57 2.105 . S
Sc44 O60 2.105 . S
Sc44 O63 2.105 1_554 S
Sc45 O47 2.025 1_556 S
Sc45 O55 2.105 . S
Sc45 O59 2.105 1_546 S
Sc45 O61 2.105 1_556 S
Sc45 O65 2.105 . S
Sc46 O47 2.025 . S
Sc46 O56 2.105 1_544 S
Sc46 O58 2.105 1_655 S
Sc46 O62 2.105 1_545 S
Sc46 O64 2.105 1_654 S
O47 Sc44 2.025 . S
O47 Sc45 2.025 1_554 S
O47 Sc46 2.025 . S
C48 O54 1.268 . S
C48 O64 1.268 . S
C49 O55 1.268 . S
C49 O63 1.268 . S
C50 O56 1.268 . S
C50 O65 1.268 1_565 S
C51 O57 1.268 . S
C51 O61 1.268 . S
C52 O58 1.268 . S
C52 O60 1.268 1_455 S
C53 O59 1.268 . S
C53 O62 1.268 . S
O54 Sc44 2.105 1_456 S
O54 C48 1.268 . S
O55 Sc45 2.105 . S
O55 C49 1.268 . S
O56 Sc46 2.105 1_566 S
O56 C50 1.268 . S
O57 Sc44 2.105 . S
O57 C51 1.268 . S
O58 Sc46 2.105 1_455 S
O58 C52 1.268 . S
O59 Sc45 2.105 1_564 S
O59 C53 1.268 . S
O60 Sc44 2.105 . S
O60 C52 1.268 1_655 S
O61 Sc45 2.105 1_554 S
O61 C51 1.268 . S
O62 Sc46 2.105 1_565 S
O62 C53 1.268 . S
O63 Sc44 2.105 1_556 S
O63 C49 1.268 . S
O64 Sc46 2.105 1_456 S
O64 C48 1.268 . S
O65 Sc45 2.105 . S
O65 C50 1.268 1_545 S
Sc66 O69 2.025 . S
Sc66 O76 2.105 . S
Sc66 O79 2.105 . S
Sc66 O82 2.105 . S
Sc66 O85 2.105 . S
Sc67 O69 2.025 . S
Sc67 O77 2.105 . S
Sc67 O81 2.105 . S
Sc67 O83 2.105 . S
Sc67 O87 2.105 . S
Sc68 O69 2.025 . S
Sc68 O78 2.105 . S
Sc68 O80 2.105 . S
Sc68 O84 2.105 . S
Sc68 O86 2.105 . S
O69 Sc66 2.025 . S
O69 Sc67 2.025 . S
O69 Sc68 2.025 . S
C70 O76 1.268 . S
C70 O86 1.268 . S
C71 O77 1.268 . S
C71 O85 1.268 . S
C72 O78 1.268 . S
C72 O87 1.268 . S
C73 O79 1.268 . S
C73 O83 1.268 . S
C74 O80 1.268 . S
C74 O82 1.268 . S
C75 O81 1.268 . S
C75 O84 1.268 . S
O76 Sc66 2.105 . S
O76 C70 1.268 . S
O77 Sc67 2.105 . S
O77 C71 1.268 . S
O78 Sc68 2.105 . S
O78 C72 1.268 . S
O79 Sc66 2.105 . S
O79 C73 1.268 . S
O80 Sc68 2.105 . S
O80 C74 1.268 . S
O81 Sc67 2.105 . S
O81 C75 1.268 . S
O82 Sc66 2.105 . S
O82 C74 1.268 . S
O83 Sc67 2.105 . S
O83 C73 1.268 . S
O84 Sc68 2.105 . S
O84 C75 1.268 . S
O85 Sc66 2.105 . S
O85 C71 1.268 . S
O86 Sc68 2.105 . S
O86 C70 1.268 . S
O87 Sc67 2.105 . S
O87 C72 1.268 . S
C88 N89 1.317 . S
C88 N90 1.348 . S
C88 C91 1.485 . S
N89 C88 1.317 . S
N89 N93 1.370 . S
N90 C88 1.348 . S
N90 C92 1.346 . S
C91 C88 1.485 . S
C91 H95 0.960 . S
C91 H96 0.961 . S
C91 H97 0.960 1_455 S
C92 N90 1.346 . S
C92 N93 1.307 . S
C92 C94 1.486 . S
N93 N89 1.370 . S
N93 C92 1.307 . S
C94 C92 1.486 . S
C94 H98 0.960 . S
C94 H99 0.960 . S
C94 H100 0.959 . S
H95 C91 0.960 . S
H96 C91 0.961 . S
H97 C91 0.960 1_655 S
H98 C94 0.960 . S
H99 C94 0.960 . S
H100 C94 0.959 . S
C101 N102 1.317 . S
C101 N103 1.348 . S
C101 C104 1.485 . S
N102 C101 1.317 . S
N102 N106 1.370 . S
N103 C101 1.348 . S
N103 C105 1.346 . S
C104 C101 1.485 . S
C104 H108 0.960 . S
C104 H109 0.961 . S
C104 H110 0.960 . S
C105 N103 1.346 . S
C105 N106 1.307 . S
C105 C107 1.486 . S
N106 N102 1.370 . S
N106 C105 1.307 . S
C107 C105 1.486 . S
C107 H111 0.960 . S
C107 H112 0.960 . S
C107 H113 0.959 . S
H108 C104 0.960 . S
H109 C104 0.961 . S
H110 C104 0.960 . S
H111 C107 0.960 . S
H112 C107 0.960 . S
H113 C107 0.959 . S
C114 N115 1.317 . S
C114 N116 1.348 . S
C114 C117 1.485 . S
N115 C114 1.317 . S
N115 N119 1.370 . S
N116 C114 1.348 . S
N116 C118 1.346 . S
C117 C114 1.485 . S
C117 H121 0.960 . S
C117 H122 0.961 . S
C117 H123 0.960 . S
C118 N116 1.346 . S
C118 N119 1.307 . S
C118 C120 1.486 . S
N119 N115 1.370 . S
N119 C118 1.307 . S
C120 C118 1.486 . S
C120 H124 0.960 . S
C120 H125 0.960 . S
C120 H126 0.959 . S
H121 C117 0.960 . S
H122 C117 0.961 . S
H123 C117 0.960 . S
H124 C120 0.960 . S
H125 C120 0.960 . S
H126 C120 0.959 . S
C127 N128 1.317 . S
C127 N129 1.348 . S
C127 C130 1.485 . S
N128 C127 1.317 . S
N128 N132 1.370 . S
N129 C127 1.348 . S
N129 C131 1.346 . S
C130 C127 1.485 . S
C130 H134 0.960 . S
C130 H135 0.961 . S
C130 H136 0.960 . S
C131 N129 1.346 . S
C131 N132 1.307 . S
C131 C133 1.486 . S
N132 N128 1.370 . S
N132 C131 1.307 . S
C133 C131 1.486 . S
C133 H137 0.960 . S
C133 H138 0.960 . S
C133 H139 0.959 . S
H134 C130 0.960 . S
H135 C130 0.961 . S
H136 C130 0.960 . S
H137 C133 0.960 . S
H138 C133 0.960 . S
H139 C133 0.959 . S
C140 N141 1.317 . S
C140 N142 1.348 . S
C140 C143 1.485 . S
N141 C140 1.317 . S
N141 N145 1.370 . S
N142 C140 1.348 . S
N142 C144 1.346 . S
C143 C140 1.485 . S
C143 H147 0.960 . S
C143 H148 0.961 . S
C143 H149 0.960 . S
C144 N142 1.346 . S
C144 N145 1.307 . S
C144 C146 1.486 . S
N145 N141 1.370 . S
N145 C144 1.307 . S
C146 C144 1.486 . S
C146 H150 0.960 . S
C146 H151 0.960 . S
C146 H152 0.959 . S
H147 C143 0.960 . S
H148 C143 0.961 . S
H149 C143 0.960 . S
H150 C146 0.960 . S
H151 C146 0.960 . S
H152 C146 0.959 . S
C153 N154 1.317 . S
C153 N155 1.348 . S
C153 C156 1.485 . S
N154 C153 1.317 . S
N154 N158 1.370 . S
N155 C153 1.348 . S
N155 C157 1.346 . S
C156 C153 1.485 . S
C156 H160 0.960 . S
C156 H161 0.961 . S
C156 H162 0.960 . S
C157 N155 1.346 . S
C157 N158 1.307 . S
C157 C159 1.486 . S
N158 N154 1.370 . S
N158 C157 1.307 . S
C159 C157 1.486 . S
C159 H163 0.960 . S
C159 H164 0.960 . S
C159 H165 0.959 . S
H160 C156 0.960 . S
H161 C156 0.961 . S
H162 C156 0.960 . S
H163 C159 0.960 . S
H164 C159 0.960 . S
H165 C159 0.959 . S
C166 N167 1.317 . S
C166 N168 1.348 . S
C166 C169 1.485 . S
N167 C166 1.317 . S
N167 N171 1.370 . S
N168 C166 1.348 . S
N168 C170 1.346 . S
C169 C166 1.485 . S
C169 H173 0.960 . S
C169 H174 0.961 . S
C169 H175 0.960 . S
C170 N168 1.346 . S
C170 N171 1.307 . S
C170 C172 1.486 . S
N171 N167 1.370 . S
N171 C170 1.307 . S
C172 C170 1.486 . S
C172 H176 0.960 . S
C172 H177 0.960 . S
C172 H178 0.959 . S
H173 C169 0.960 . S
H174 C169 0.961 . S
H175 C169 0.960 . S
H176 C172 0.960 . S
H177 C172 0.960 . S
H178 C172 0.959 . S
C179 N180 1.317 . S
C179 N181 1.348 . S
C179 C182 1.485 . S
N180 C179 1.317 . S
N180 N184 1.370 . S
N181 C179 1.348 . S
N181 C183 1.346 . S
C182 C179 1.485 . S
C182 H186 0.960 . S
C182 H187 0.961 . S
C182 H188 0.960 1_565 S
C183 N181 1.346 . S
C183 N184 1.307 . S
C183 C185 1.486 . S
N184 N180 1.370 . S
N184 C183 1.307 . S
C185 C183 1.486 . S
C185 H189 0.960 . S
C185 H190 0.960 . S
C185 H191 0.959 1_655 S
H186 C182 0.960 . S
H187 C182 0.961 . S
H188 C182 0.960 1_545 S
H189 C185 0.960 . S
H190 C185 0.960 . S
H191 C185 0.959 1_455 S
C8 N93 1.451 . S
C31 N106 1.393 . S
C53 N115 1.360 . S
N132 C74 1.392 . S
N145 C26 1.449 . S
C48 N154 1.386 . S
C71 N167 1.361 . S
C5 N184 1.395 . S
C50 N180 1.472 . S
N141 C70 1.412 . S
N158 C4 1.366 . S
C28 N171 1.392 . S
N102 C73 1.470 . S
C7 N119 1.395 . S
N128 C30 1.359 . S
N89 C52 1.415 . S
N168 C9 1.527 . S
N181 C29 1.394 . S
C51 N142 1.396 . S
N155 C75 1.527 . S
N116 C27 1.531 . S
C49 N129 1.489 . S
N90 C72 1.398 . S
N103 C6 1.393 . S
