# Generated by pormake.
# Topology pyr, (3,6)-cn, num edge types: 1
# Building blocks:
#     Node 0, Type 0, BuildingBlock: ESEHIV_clean_linker_0, # of connection points: 3
#     Node 1, Type 0, BuildingBlock: ESEHIV_clean_linker_0, # of connection points: 3
#     Node 2, Type 0, BuildingBlock: ESEHIV_clean_linker_0, # of connection points: 3
#     Node 3, Type 0, BuildingBlock: ESEHIV_clean_linker_0, # of connection points: 3
#     Node 4, Type 0, BuildingBlock: ESEHIV_clean_linker_0, # of connection points: 3
#     Node 5, Type 0, BuildingBlock: ESEHIV_clean_linker_0, # of connection points: 3
#     Node 6, Type 0, BuildingBlock: ESEHIV_clean_linker_0, # of connection points: 3
#     Node 7, Type 0, BuildingBlock: ESEHIV_clean_linker_0, # of connection points: 3
#     Node 8, Type 1, BuildingBlock: PAMTUU_clean_sbu_0, # of connection points: 6
#     Node 9, Type 1, BuildingBlock: PAMTUU_clean_sbu_0, # of connection points: 6
#     Node 10, Type 1, BuildingBlock: PAMTUU_clean_sbu_0, # of connection points: 6
#     Node 11, Type 1, BuildingBlock: PAMTUU_clean_sbu_0, # of connection points: 6
#     Edge 12, Type (0, 1), None
#     Edge 13, Type (0, 1), None
#     Edge 14, Type (0, 1), None
#     Edge 15, Type (0, 1), None
#     Edge 16, Type (0, 1), None
#     Edge 17, Type (0, 1), None
#     Edge 18, Type (0, 1), None
#     Edge 19, Type (0, 1), None
#     Edge 20, Type (0, 1), None
#     Edge 21, Type (0, 1), None
#     Edge 22, Type (0, 1), None
#     Edge 23, Type (0, 1), None
#     Edge 24, Type (0, 1), None
#     Edge 25, Type (0, 1), None
#     Edge 26, Type (0, 1), None
#     Edge 27, Type (0, 1), None
#     Edge 28, Type (0, 1), None
#     Edge 29, Type (0, 1), None
#     Edge 30, Type (0, 1), None
#     Edge 31, Type (0, 1), None
#     Edge 32, Type (0, 1), None
#     Edge 33, Type (0, 1), None
#     Edge 34, Type (0, 1), None
#     Edge 35, Type (0, 1), None
# Relax obj value: 0.515
# Max RMSD: 0.249
# Mean RMSD: 0.107
data_MOF--net-pyr--node1-PAMTUU_clean_sbu_0--node2-ESEHIV_clean_linker_0--edge1-none
_symmetry_space_group_name_H-M    P1
_symmetry_Int_Tables_number       1
_symmetry_cell_setting            triclinic
loop_
_symmetry_equiv_pos_as_xyz
'x, y, z'
_cell_length_a     15.17774
_cell_length_b     15.145656
_cell_length_c     13.742778
_cell_angle_alpha  89.969463
_cell_angle_beta   89.935456
_cell_angle_gamma 100.47123
loop_
_atom_site_label
_atom_site_type_symbol
_atom_site_fract_x
_atom_site_fract_y
_atom_site_fract_z
_atom_type_partial_charge
H0 H 0.36398 0.28644 0.60933 0.0
H1 H 0.60729 0.2024 0.52593 0.0
H2 H 0.49091 0.37344 0.33766 0.0
C3 C 0.42045 0.29339 0.56015 0.0
C4 C 0.42036 0.34339 0.47422 0.0
C5 C 0.49025 0.24659 0.58091 0.0
C6 C 0.55751 0.24373 0.51298 0.0
C7 C 0.55222 0.28192 0.42248 0.0
C8 C 0.48804 0.33713 0.40556 0.0
H9 H 0.98238 1.05506 1.00978 0.0
H10 H 0.21896 0.95035 1.06939 0.0
H11 H 0.05989 0.86234 0.81694 0.0
C12 C 1.02388 1.00613 0.99438 0.0
C13 C 1.01646 0.96369 0.90542 0.0
C14 C 0.09709 1.0014 1.05304 0.0
C15 C 0.158 0.94592 1.02738 0.0
C16 C 0.14496 0.89263 0.9431 0.0
C17 C 0.07056 0.89932 0.88449 0.0
H18 H 0.79505 0.3699 1.1369 0.0
H19 H 0.80273 0.61059 0.96582 0.0
H20 H 0.58409 0.38634 0.93147 0.0
C21 C 0.76561 0.40724 1.08255 0.0
C22 C 0.68354 0.36708 1.03891 0.0
C23 C 0.80933 0.49531 1.05971 0.0
C24 C 0.76963 0.54362 0.98567 0.0
C25 C 0.68847 0.50554 0.93575 0.0
C26 C 0.64664 0.41684 0.9654 0.0
H27 H 0.80941 0.89673 0.6344 0.0
H28 H 1.02653 0.89457 0.43357 0.0
H29 H 0.83171 0.65214 0.47986 0.0
C30 C 0.84205 0.86157 0.58042 0.0
C31 C 0.80869 0.76901 0.56419 0.0
C32 C 0.92038 0.90811 0.53431 0.0
C33 C 0.96469 0.86011 0.46624 0.0
C34 C 0.93355 0.76824 0.4415 0.0
C35 C 0.85504 0.72301 0.49296 0.0
H36 H 0.48193 1.05443 0.89412 0.0
H37 H 0.71873 0.95012 0.83386 0.0
H38 H 0.55996 0.86201 1.08698 0.0
C39 C 0.52355 1.00559 0.90944 0.0
C40 C 0.51638 0.96332 0.99857 0.0
C41 C 0.59674 1.00097 0.85052 0.0
C42 C 0.65779 0.94561 0.87606 0.0
C43 C 0.64491 0.89237 0.96049 0.0
C44 C 0.57052 0.89896 1.01933 0.0
H45 H 0.86457 0.28555 0.29478 0.0
H46 H 0.10796 0.202 0.37822 0.0
H47 H 0.99119 0.37325 0.56595 0.0
C48 C 0.92102 0.29269 0.34386 0.0
C49 C 0.92076 0.34282 0.42961 0.0
C50 C 0.99097 0.24605 0.32315 0.0
C51 C 0.05817 0.24335 0.39104 0.0
C52 C 0.05273 0.28171 0.4814 0.0
C53 C 0.98842 0.33681 0.49819 0.0
H54 H 0.3093 0.8966 0.26912 0.0
H55 H 0.33162 0.65161 0.42313 0.0
H56 H 0.52597 0.89417 0.46993 0.0
C57 C 0.34186 0.86132 0.32301 0.0
C58 C 0.42003 0.90782 0.36921 0.0
C59 C 0.30855 0.76869 0.33906 0.0
C60 C 0.35487 0.72255 0.4102 0.0
C61 C 0.43324 0.76774 0.46175 0.0
C62 C 0.46424 0.85971 0.43721 0.0
H63 H 0.08363 0.38639 0.97213 0.0
H64 H 0.29488 0.36968 0.76662 0.0
H65 H 0.30271 0.61028 0.93757 0.0
C66 C 0.14628 0.41678 0.93814 0.0
C67 C 0.18825 0.5054 0.9677 0.0
C68 C 0.18319 0.36699 0.86465 0.0
C69 C 0.26542 0.40703 0.82098 0.0
C70 C 0.30926 0.49503 0.84378 0.0
C71 C 0.26954 0.54337 0.91777 0.0
Tb72 Tb 0.13423 1.09766 0.6871 0.0
Tb73 Tb 0.96016 0.17699 0.71399 0.0
C74 C 0.96474 1.00073 0.57119 0.0
C75 C 0.35531 1.05048 0.74582 0.0
C76 C 0.47714 0.18071 0.6589 0.0
C77 C 0.4743 1.09054 0.63286 0.0
C78 C 0.41652 1.02404 0.68126 0.0
C79 C 0.37545 0.13516 0.79041 0.0
C80 C 0.43746 0.20145 0.74609 0.0
C81 C 0.26288 1.01981 0.71918 0.0
O82 O 0.13632 0.17904 0.55666 0.0
O83 O 0.06972 0.26675 0.648 0.0
O84 O 0.0448 0.26434 0.81911 0.0
O85 O 0.17792 0.22435 0.77411 0.0
O86 O 0.87607 0.22954 0.61953 0.0
O87 O 0.85917 0.2355 0.77573 0.0
O88 O 0.95399 1.08592 0.83687 0.0
O89 O 1.02438 1.00169 0.74367 0.0
O90 O 0.05304 1.01673 0.57584 0.0
O91 O 0.91819 1.051 0.62357 0.0
C92 C 0.09967 0.25041 0.56378 0.0
O93 O 0.20421 1.03151 0.78506 0.0
O94 O 0.24222 1.04579 0.63239 0.0
C95 C 0.13316 0.27758 0.82414 0.0
C96 C 0.73191 0.2067 0.68123 0.0
C97 C 0.62322 1.07145 0.77933 0.0
C98 C 0.62639 0.16123 0.80779 0.0
C99 C 0.67692 0.22975 0.75464 0.0
C100 C 0.71362 1.12034 0.63989 0.0
C101 C 0.66061 1.05168 0.69082 0.0
C102 C 0.82509 0.24744 0.69025 0.0
C103 C 0.98473 1.01145 0.82437 0.0
H104 H 0.50545 1.07206 0.56678 0.0
H105 H 0.40385 0.95779 0.64897 0.0
H106 H 0.33169 0.15498 0.84543 0.0
H107 H 0.44191 0.27058 0.76912 0.0
H108 H 0.59762 0.17829 0.87588 0.0
H109 H 0.68854 0.29706 0.78472 0.0
H110 H 0.75236 1.10257 0.57905 0.0
H111 H 0.65629 0.9829 0.66669 0.0
Tb112 Tb 0.63435 1.09777 0.21708 0.0
Tb113 Tb 0.46046 0.17707 1.18987 0.0
C114 C 0.48518 1.01143 1.07968 0.0
C115 C 0.85561 1.05018 1.15922 0.0
C116 C 0.978 0.18012 0.24533 0.0
C117 C 0.97481 1.08995 0.27169 0.0
C118 C 0.91666 1.02358 0.22375 0.0
C119 C 0.87603 0.13478 1.11434 0.0
C120 C 0.93841 0.20088 1.15817 0.0
C121 C 0.76311 1.01976 1.1859 0.0
O122 O 0.67824 0.22449 1.12985 0.0
O123 O 0.54519 0.26421 1.08443 0.0
O124 O 0.56973 0.26685 0.25592 0.0
O125 O 0.63573 0.17893 0.34752 0.0
O126 O 0.35978 0.2358 1.12802 0.0
O127 O 0.37612 0.22953 0.28427 0.0
O128 O 0.41804 1.05079 0.2799 0.0
O129 O 0.55271 1.01685 0.3283 0.0
O130 O 0.52504 1.00158 1.16018 0.0
O131 O 0.45455 1.08597 1.06719 0.0
C132 C 0.63355 0.27762 1.07959 0.0
O133 O 0.74225 1.0463 0.2724 0.0
O134 O 0.70463 1.03113 1.11979 0.0
C135 C 0.59933 0.25043 0.34023 0.0
C136 C 0.23221 0.20683 0.22228 0.0
C137 C 0.12368 1.0718 1.12411 0.0
C138 C 0.12708 0.16161 1.09559 0.0
C139 C 0.17751 0.23003 1.14877 0.0
C140 C 0.21379 1.12039 0.26354 0.0
C141 C 0.16088 1.05185 0.21259 0.0
C142 C 0.3254 0.24759 0.21346 0.0
C143 C 0.4644 1.00057 0.33249 0.0
H144 H 1.0059 1.07148 0.33775 0.0
H145 H 0.90369 0.9574 0.25633 0.0
H146 H 0.83233 0.15472 1.05942 0.0
H147 H 0.94312 0.27 1.13492 0.0
H148 H 0.0985 0.17878 1.02749 0.0
H149 H 0.18927 0.29738 1.1187 0.0
H150 H 0.25232 1.10249 0.32442 0.0
H151 H 0.15641 0.98302 0.23672 0.0
Tb152 Tb 0.55966 0.56653 0.64676 0.0
Tb153 Tb 0.55057 0.69819 0.74504 0.0
C154 C 0.49754 0.72314 0.52633 0.0
C155 C 0.68683 0.45806 0.48752 0.0
C156 C 0.84677 0.39436 0.44906 0.0
C157 C 0.79255 0.41672 0.37262 0.0
C158 C 0.71362 0.44862 0.39159 0.0
C159 C 0.74513 0.44637 0.56357 0.0
C160 C 0.82488 0.41664 0.54446 0.0
C161 C 0.59717 0.47603 0.50963 0.0
O162 O 0.7005 0.63642 0.62657 0.0
O163 O 0.67252 0.76957 0.6691 0.0
O164 O 0.6459 0.64117 0.84551 0.0
O165 O 0.60633 0.50575 0.77924 0.0
O166 O 0.49851 0.81755 0.72841 0.0
O167 O 0.52213 0.7638 0.87001 0.0
O168 O 0.44538 0.60861 0.82505 0.0
O169 O 0.42576 0.50467 0.70911 0.0
O170 O 0.4737 0.66789 0.60108 0.0
O171 O 0.4746 0.66782 0.60168 0.0
C172 C 0.72495 0.72365 0.62214 0.0
O173 O 0.56181 0.44084 0.5907 0.0
O174 O 0.58434 0.55789 0.49598 0.0
C175 C 0.64686 0.5536 0.85092 0.0
C176 C 0.38432 0.81146 0.84955 0.0
C177 C 0.21613 0.84275 0.91054 0.0
C178 C 0.27686 0.81868 0.97845 0.0
C179 C 0.3601 0.80308 0.94812 0.0
C180 C 0.31776 0.81753 0.78061 0.0
C181 C 0.23369 0.83188 0.81089 0.0
C182 C 0.47868 0.81542 0.82086 0.0
C183 C 0.3962 0.5365 0.79024 0.0
H184 H 0.80866 0.40704 0.29774 0.0
H185 H 0.67114 0.46085 0.33159 0.0
H186 H 0.72764 0.45706 0.63855 0.0
H187 H 0.86596 0.40764 0.60614 0.0
H188 H 0.26287 0.81753 1.05572 0.0
H189 H 0.40695 0.78912 1.00273 0.0
H190 H 0.33181 0.81618 0.70344 0.0
H191 H 0.18696 0.84304 0.75504 0.0
Tb192 Tb 0.05067 0.6983 1.15818 0.0
Tb193 Tb 0.0594 0.56666 0.25664 0.0
C194 C 0.1467 0.55352 1.05247 0.0
C195 C 0.88453 0.81162 1.05367 0.0
C196 C 0.71627 0.84276 0.993 0.0
C197 C 0.77702 0.81868 0.925 0.0
C198 C 0.86028 0.80314 0.95517 0.0
C199 C 0.81801 0.81785 1.12275 0.0
C200 C 0.73393 0.83214 1.09265 0.0
C201 C 0.97888 0.81548 1.08213 0.0
O202 O 0.9455 0.60884 1.07832 0.0
O203 O 0.92551 0.50497 1.19448 0.0
O204 O 0.97368 0.66823 0.3023 0.0
O205 O 0.97465 0.66818 0.30169 0.0
O206 O 0.06149 0.44096 0.31287 0.0
O207 O 0.08374 0.558 0.40745 0.0
O208 O 0.20032 0.63627 0.27664 0.0
O209 O 0.17262 0.76951 0.234 0.0
O210 O 0.14603 0.64114 1.05781 0.0
O211 O 0.10595 0.50573 1.12421 0.0
C212 C 0.89615 0.5368 1.11326 0.0
O213 O 0.99879 0.81781 1.17452 0.0
O214 O 1.02221 0.76366 1.03307 0.0
C215 C 0.99773 0.72372 0.37668 0.0
C216 C 0.18639 0.45832 0.41597 0.0
C217 C 0.3464 0.39491 0.4546 0.0
C218 C 0.29214 0.41752 0.53098 0.0
C219 C 0.21316 0.44928 0.51192 0.0
C220 C 0.24473 0.44639 0.33991 0.0
C221 C 0.32451 0.4168 0.35911 0.0
C222 C 0.09672 0.47619 0.39386 0.0
C223 C 0.22489 0.72348 0.28103 0.0
H224 H 0.763 0.81741 0.84778 0.0
H225 H 0.90712 0.78912 0.90048 0.0
H226 H 0.83208 0.81658 1.19989 0.0
H227 H 0.68721 0.84334 1.14859 0.0
H228 H 0.30824 0.40814 0.60589 0.0
H229 H 0.17065 0.46169 0.5719 0.0
H230 H 0.22726 0.45679 0.26489 0.0
H231 H 0.36563 0.40762 0.29743 0.0
loop_
_geom_bond_atom_site_label_1
_geom_bond_atom_site_label_2
_geom_bond_distance
_geom_bond_site_symmetry_2
_ccdc_geom_bond_type
H0 C3 0.931 . S
H1 C6 0.928 . S
H2 C8 0.930 . S
C3 H0 0.931 . S
C3 C4 1.413 . S
C3 C5 1.360 . S
C4 C3 1.413 . S
C4 C8 1.429 . S
C5 C3 1.360 . S
C5 C6 1.372 . S
C6 H1 0.928 . S
C6 C5 1.372 . S
C6 C7 1.404 . S
C7 C6 1.404 . S
C7 C8 1.391 . S
C8 H2 0.930 . S
C8 C4 1.429 . S
C8 C7 1.391 . S
H9 C12 0.931 . S
H10 C15 0.928 . S
H11 C17 0.930 . S
C12 H9 0.931 . S
C12 C13 1.413 . S
C12 C14 1.360 1_655 S
C13 C12 1.413 . S
C13 C17 1.429 . S
C14 C12 1.360 1_455 S
C14 C15 1.372 . S
C15 H10 0.928 . S
C15 C14 1.372 . S
C15 C16 1.404 . S
C16 C15 1.404 . S
C16 C17 1.391 1_455 S
C17 H11 0.930 . S
C17 C13 1.429 . S
C17 C16 1.391 1_655 S
H18 C21 0.931 . S
H19 C24 0.928 . S
H20 C26 0.930 . S
C21 H18 0.931 . S
C21 C22 1.413 . S
C21 C23 1.360 . S
C22 C21 1.413 . S
C22 C26 1.429 . S
C23 C21 1.360 . S
C23 C24 1.372 . S
C24 H19 0.928 . S
C24 C23 1.372 . S
C24 C25 1.404 . S
C25 C24 1.404 . S
C25 C26 1.391 . S
C26 H20 0.930 . S
C26 C22 1.429 . S
C26 C25 1.391 . S
H27 C30 0.931 . S
H28 C33 0.928 . S
H29 C35 0.930 . S
C30 H27 0.931 . S
C30 C31 1.413 . S
C30 C32 1.360 . S
C31 C30 1.413 . S
C31 C35 1.429 . S
C32 C30 1.360 . S
C32 C33 1.372 . S
C33 H28 0.928 . S
C33 C32 1.372 . S
C33 C34 1.404 . S
C34 C33 1.404 . S
C34 C35 1.391 . S
C35 H29 0.930 . S
C35 C31 1.429 . S
C35 C34 1.391 . S
H36 C39 0.931 . S
H37 C42 0.928 . S
H38 C44 0.930 . S
C39 H36 0.931 . S
C39 C40 1.413 . S
C39 C41 1.360 . S
C40 C39 1.413 . S
C40 C44 1.429 . S
C41 C39 1.360 . S
C41 C42 1.372 . S
C42 H37 0.928 . S
C42 C41 1.372 . S
C42 C43 1.404 . S
C43 C42 1.404 . S
C43 C44 1.391 . S
C44 H38 0.930 . S
C44 C40 1.429 . S
C44 C43 1.391 . S
H45 C48 0.931 . S
H46 C51 0.928 . S
H47 C53 0.930 . S
C48 H45 0.931 . S
C48 C49 1.413 . S
C48 C50 1.360 . S
C49 C48 1.413 . S
C49 C53 1.429 1_655 S
C50 C48 1.360 . S
C50 C51 1.372 1_655 S
C51 H46 0.928 . S
C51 C50 1.372 1_455 S
C51 C52 1.404 . S
C52 C51 1.404 . S
C52 C53 1.391 . S
C53 H47 0.930 . S
C53 C49 1.429 1_455 S
C53 C52 1.391 . S
H54 C57 0.931 . S
H55 C60 0.928 . S
H56 C62 0.930 . S
C57 H54 0.931 . S
C57 C58 1.413 . S
C57 C59 1.360 . S
C58 C57 1.413 . S
C58 C62 1.429 . S
C59 C57 1.360 . S
C59 C60 1.372 . S
C60 H55 0.928 . S
C60 C59 1.372 . S
C60 C61 1.404 . S
C61 C60 1.404 . S
C61 C62 1.391 . S
C62 H56 0.930 . S
C62 C58 1.429 . S
C62 C61 1.391 . S
H63 C66 0.931 . S
H64 C69 0.928 . S
H65 C71 0.930 . S
C66 H63 0.931 . S
C66 C67 1.413 . S
C66 C68 1.360 . S
C67 C66 1.413 . S
C67 C71 1.429 . S
C68 C66 1.360 . S
C68 C69 1.372 . S
C69 H64 0.928 . S
C69 C68 1.372 . S
C69 C70 1.404 . S
C70 C69 1.404 . S
C70 C71 1.391 . S
C71 H65 0.930 . S
C71 C67 1.429 . S
C71 C70 1.391 . S
Tb72 C81 2.764 1_565 S
Tb72 O82 2.325 1_565 S
Tb72 O85 2.303 1_565 S
Tb72 O89 2.322 . S
Tb72 O90 2.349 . S
Tb72 O93 2.415 1_565 S
Tb72 O94 2.399 1_565 S
Tb73 O83 2.322 . S
Tb73 O84 2.349 . S
Tb73 O86 2.415 1_545 S
Tb73 O87 2.399 1_545 S
Tb73 O88 2.325 1_545 S
Tb73 O91 2.303 1_545 S
Tb73 C102 2.764 1_545 S
C74 O90 1.261 1_655 S
C74 O91 1.257 . S
C75 C78 1.358 . S
C75 C79 1.332 . S
C75 C81 1.504 . S
C76 C77 1.373 . S
C76 C80 1.308 . S
C77 C76 1.373 . S
C77 C78 1.429 . S
C77 H104 0.932 . S
C78 C75 1.358 . S
C78 C77 1.429 . S
C78 H105 0.930 . S
C79 C75 1.332 . S
C79 C80 1.394 . S
C79 H106 0.932 . S
C80 C76 1.308 . S
C80 C79 1.394 . S
C80 H107 0.929 . S
C81 Tb72 2.764 1_545 S
C81 C75 1.504 . S
C81 O93 1.239 . S
C81 O94 1.263 . S
O82 Tb72 2.325 1_545 S
O82 C92 1.236 1_455 S
O83 Tb73 2.322 . S
O83 C92 1.257 . S
O84 Tb73 2.349 . S
O84 C95 1.261 1_655 S
O85 Tb72 2.303 1_545 S
O85 C95 1.257 . S
O86 Tb73 2.415 1_565 S
O86 C102 1.239 . S
O87 Tb73 2.399 1_565 S
O87 C102 1.263 . S
O88 Tb73 2.325 1_565 S
O88 C103 1.236 1_655 S
O89 Tb72 2.322 . S
O89 C103 1.257 . S
O90 Tb72 2.349 . S
O90 C74 1.261 1_455 S
O91 Tb73 2.303 1_565 S
O91 C74 1.257 . S
C92 O82 1.236 1_655 S
C92 O83 1.257 . S
O93 Tb72 2.415 1_545 S
O93 C81 1.239 . S
O94 Tb72 2.399 1_545 S
O94 C81 1.263 . S
C95 O84 1.261 1_455 S
C95 O85 1.257 . S
C96 C99 1.358 . S
C96 C100 1.332 . S
C96 C102 1.504 . S
C97 C98 1.373 . S
C97 C101 1.308 . S
C98 C97 1.373 . S
C98 C99 1.429 . S
C98 H108 0.932 . S
C99 C96 1.358 . S
C99 C98 1.429 . S
C99 H109 0.930 . S
C100 C96 1.332 . S
C100 C101 1.394 . S
C100 H110 0.932 . S
C101 C97 1.308 . S
C101 C100 1.394 . S
C101 H111 0.929 . S
C102 Tb73 2.764 1_565 S
C102 O86 1.239 . S
C102 O87 1.263 . S
C102 C96 1.504 . S
C103 O88 1.236 1_455 S
C103 O89 1.257 . S
H104 C77 0.932 . S
H105 C78 0.930 . S
H106 C79 0.932 . S
H107 C80 0.929 . S
H108 C98 0.932 . S
H109 C99 0.930 . S
H110 C100 0.932 . S
H111 C101 0.929 . S
Tb112 C121 2.761 1_565 S
Tb112 O122 2.320 1_564 S
Tb112 O125 2.298 1_565 S
Tb112 O129 2.327 . S
Tb112 O130 2.355 1_554 S
Tb112 O133 2.409 1_565 S
Tb112 O134 2.399 1_565 S
Tb113 O123 2.322 . S
Tb113 O124 2.349 1_556 S
Tb113 O126 2.415 1_545 S
Tb113 O127 2.399 1_545 S
Tb113 O128 2.325 1_546 S
Tb113 O131 2.303 1_545 S
Tb113 C142 2.764 1_545 S
C114 O130 1.261 . S
C114 O131 1.257 . S
C115 C118 1.358 . S
C115 C119 1.332 . S
C115 C121 1.504 . S
C116 C117 1.373 . S
C116 C120 1.308 . S
C117 C116 1.373 . S
C117 C118 1.429 . S
C117 H144 0.932 1_655 S
C118 C115 1.358 . S
C118 C117 1.429 . S
C118 H145 0.930 . S
C119 C115 1.332 . S
C119 C120 1.394 . S
C119 H146 0.932 . S
C120 C116 1.308 . S
C120 C119 1.394 . S
C120 H147 0.929 . S
C121 Tb112 2.761 1_545 S
C121 C115 1.504 . S
C121 O133 1.239 . S
C121 O134 1.263 . S
O122 Tb112 2.320 1_546 S
O122 C132 1.236 . S
O123 Tb113 2.322 . S
O123 C132 1.257 . S
O124 Tb113 2.349 1_554 S
O124 C135 1.261 . S
O125 Tb112 2.298 1_545 S
O125 C135 1.257 . S
O126 Tb113 2.415 1_565 S
O126 C142 1.239 . S
O127 Tb113 2.399 1_565 S
O127 C142 1.263 . S
O128 Tb113 2.325 1_564 S
O128 C143 1.236 . S
O129 Tb112 2.327 . S
O129 C143 1.257 . S
O130 Tb112 2.355 1_556 S
O130 C114 1.261 . S
O131 Tb113 2.303 1_565 S
O131 C114 1.257 . S
C132 O122 1.236 . S
C132 O123 1.257 . S
O133 Tb112 2.409 1_545 S
O133 C121 1.239 . S
O134 Tb112 2.399 1_545 S
O134 C121 1.263 . S
C135 O124 1.261 . S
C135 O125 1.257 . S
C136 C139 1.358 . S
C136 C140 1.332 . S
C136 C142 1.504 . S
C137 C138 1.373 . S
C137 C141 1.308 . S
C138 C137 1.373 . S
C138 C139 1.429 . S
C138 H148 0.932 1_455 S
C139 C136 1.358 . S
C139 C138 1.429 . S
C139 H149 0.930 . S
C140 C136 1.332 . S
C140 C141 1.394 . S
C140 H150 0.932 . S
C141 C137 1.308 . S
C141 C140 1.394 . S
C141 H151 0.929 . S
C142 Tb113 2.764 1_565 S
C142 O126 1.239 . S
C142 O127 1.263 . S
C142 C136 1.504 . S
C143 O128 1.236 . S
C143 O129 1.257 . S
H144 C117 0.932 1_455 S
H145 C118 0.930 . S
H146 C119 0.932 . S
H147 C120 0.929 . S
H148 C138 0.932 1_655 S
H149 C139 0.930 . S
H150 C140 0.932 . S
H151 C141 0.929 . S
Tb152 C161 2.764 . S
Tb152 O162 2.325 . S
Tb152 O165 2.303 . S
Tb152 O169 2.322 . S
Tb152 O170 2.349 . S
Tb152 O173 2.415 . S
Tb152 O174 2.399 . S
Tb153 O163 2.322 . S
Tb153 O164 2.349 . S
Tb153 O166 2.415 . S
Tb153 O167 2.399 . S
Tb153 O168 2.325 . S
Tb153 O171 2.303 . S
Tb153 C182 2.764 . S
C154 O170 1.261 . S
C154 O171 1.257 . S
C155 C158 1.358 . S
C155 C159 1.332 . S
C155 C161 1.504 . S
C156 C157 1.373 . S
C156 C160 1.308 . S
C157 C156 1.373 . S
C157 C158 1.429 . S
C157 H184 0.932 . S
C158 C155 1.358 . S
C158 C157 1.429 . S
C158 H185 0.930 . S
C159 C155 1.332 . S
C159 C160 1.394 . S
C159 H186 0.932 . S
C160 C156 1.308 . S
C160 C159 1.394 . S
C160 H187 0.929 . S
C161 Tb152 2.764 . S
C161 C155 1.504 . S
C161 O173 1.239 . S
C161 O174 1.263 . S
O162 Tb152 2.325 . S
O162 C172 1.236 . S
O163 Tb153 2.322 . S
O163 C172 1.257 . S
O164 Tb153 2.349 . S
O164 C175 1.261 . S
O165 Tb152 2.303 . S
O165 C175 1.257 . S
O166 Tb153 2.415 . S
O166 C182 1.239 . S
O167 Tb153 2.399 . S
O167 C182 1.263 . S
O168 Tb153 2.325 . S
O168 C183 1.236 . S
O169 Tb152 2.322 . S
O169 C183 1.257 . S
O170 Tb152 2.349 . S
O170 C154 1.261 . S
O171 Tb153 2.303 . S
O171 C154 1.257 . S
C172 O162 1.236 . S
C172 O163 1.257 . S
O173 Tb152 2.415 . S
O173 C161 1.239 . S
O174 Tb152 2.399 . S
O174 C161 1.263 . S
C175 O164 1.261 . S
C175 O165 1.257 . S
C176 C179 1.358 . S
C176 C180 1.332 . S
C176 C182 1.504 . S
C177 C178 1.373 . S
C177 C181 1.308 . S
C178 C177 1.373 . S
C178 C179 1.429 . S
C178 H188 0.932 . S
C179 C176 1.358 . S
C179 C178 1.429 . S
C179 H189 0.930 . S
C180 C176 1.332 . S
C180 C181 1.394 . S
C180 H190 0.932 . S
C181 C177 1.308 . S
C181 C180 1.394 . S
C181 H191 0.929 . S
C182 Tb153 2.764 . S
C182 O166 1.239 . S
C182 O167 1.263 . S
C182 C176 1.504 . S
C183 O168 1.236 . S
C183 O169 1.257 . S
H184 C157 0.932 . S
H185 C158 0.930 . S
H186 C159 0.932 . S
H187 C160 0.929 . S
H188 C178 0.932 . S
H189 C179 0.930 . S
H190 C180 0.932 . S
H191 C181 0.929 . S
Tb192 C201 2.764 . S
Tb192 O202 2.325 . S
Tb192 O205 2.303 1_556 S
Tb192 O209 2.322 1_655 S
Tb192 O210 2.349 1_655 S
Tb192 O213 2.415 . S
Tb192 O214 2.399 . S
Tb193 O203 2.322 1_455 S
Tb193 O204 2.349 1_455 S
Tb193 O206 2.415 . S
Tb193 O207 2.399 . S
Tb193 O208 2.325 . S
Tb193 O211 2.303 1_554 S
Tb193 C222 2.764 . S
C194 O210 1.261 . S
C194 O211 1.257 . S
C195 C198 1.358 . S
C195 C199 1.332 . S
C195 C201 1.504 . S
C196 C197 1.373 . S
C196 C200 1.308 . S
C197 C196 1.373 . S
C197 C198 1.429 . S
C197 H224 0.932 . S
C198 C195 1.358 . S
C198 C197 1.429 . S
C198 H225 0.930 . S
C199 C195 1.332 . S
C199 C200 1.394 . S
C199 H226 0.932 . S
C200 C196 1.308 . S
C200 C199 1.394 . S
C200 H227 0.929 . S
C201 Tb192 2.764 . S
C201 C195 1.504 . S
C201 O213 1.239 . S
C201 O214 1.263 . S
O202 Tb192 2.325 . S
O202 C212 1.236 . S
O203 Tb193 2.322 1_655 S
O203 C212 1.257 1_554 S
O204 Tb193 2.349 1_655 S
O204 C215 1.261 . S
O205 Tb192 2.303 1_554 S
O205 C215 1.257 . S
O206 Tb193 2.415 . S
O206 C222 1.239 . S
O207 Tb193 2.399 . S
O207 C222 1.263 . S
O208 Tb193 2.325 . S
O208 C223 1.236 . S
O209 Tb192 2.322 1_455 S
O209 C223 1.257 1_556 S
O210 Tb192 2.349 1_455 S
O210 C194 1.261 . S
O211 Tb193 2.303 1_556 S
O211 C194 1.257 . S
C212 O202 1.236 . S
C212 O203 1.257 1_556 S
O213 Tb192 2.415 . S
O213 C201 1.239 . S
O214 Tb192 2.399 . S
O214 C201 1.263 . S
C215 O204 1.261 . S
C215 O205 1.257 . S
C216 C219 1.358 . S
C216 C220 1.332 . S
C216 C222 1.504 . S
C217 C218 1.373 . S
C217 C221 1.308 . S
C218 C217 1.373 . S
C218 C219 1.429 . S
C218 H228 0.932 . S
C219 C216 1.358 . S
C219 C218 1.429 . S
C219 H229 0.930 . S
C220 C216 1.332 . S
C220 C221 1.394 . S
C220 H230 0.932 . S
C221 C217 1.308 . S
C221 C220 1.394 . S
C221 H231 0.929 . S
C222 Tb193 2.764 . S
C222 O206 1.239 . S
C222 O207 1.263 . S
C222 C216 1.504 . S
C223 O208 1.236 . S
C223 O209 1.257 1_554 S
H224 C197 0.932 . S
H225 C198 0.930 . S
H226 C199 0.932 . S
H227 C200 0.929 . S
H228 C218 0.932 . S
H229 C219 0.930 . S
H230 C220 0.932 . S
H231 C221 0.929 . S
C5 C76 0.763 . S
C14 C137 1.529 . S
C175 C25 3.894 . S
C34 C215 3.768 . S
C135 C7 2.000 . S
C103 C13 2.303 1_455 S
C212 C23 2.566 . S
C172 C31 2.636 . S
C4 C217 2.029 . S
C132 C22 3.600 . S
C32 C74 3.399 . S
C16 C177 1.806 . S
C97 C41 0.743 . S
C50 C116 1.529 . S
C61 C154 3.889 . S
C67 C194 3.777 . S
C40 C114 1.992 . S
C92 C52 2.289 1_655 S
C223 C59 2.563 . S
C183 C70 2.628 . S
C43 C196 1.989 . S
C143 C58 3.618 . S
C95 C68 3.373 . S
C49 C156 1.844 . S
