# Generated by pormake.
# Topology tsx, (6,3)-cn, num edge types: 1
# Building blocks:
#     Node 0, Type 0, BuildingBlock: MIDCAF_clean_sbu_0, # of connection points: 6
#     Node 1, Type 0, BuildingBlock: MIDCAF_clean_sbu_0, # of connection points: 6
#     Node 2, Type 1, BuildingBlock: INOVEN_clean_linker_0, # of connection points: 3
#     Node 3, Type 1, BuildingBlock: INOVEN_clean_linker_0, # of connection points: 3
#     Node 4, Type 1, BuildingBlock: INOVEN_clean_linker_0, # of connection points: 3
#     Node 5, Type 1, BuildingBlock: INOVEN_clean_linker_0, # of connection points: 3
#     Edge 6, Type (0, 1), BuildingBlock: EYOCIG_clean_linker_4, # of connection points: 2
#     Edge 7, Type (0, 1), BuildingBlock: EYOCIG_clean_linker_4, # of connection points: 2
#     Edge 8, Type (0, 1), BuildingBlock: EYOCIG_clean_linker_4, # of connection points: 2
#     Edge 9, Type (0, 1), BuildingBlock: EYOCIG_clean_linker_4, # of connection points: 2
#     Edge 10, Type (0, 1), BuildingBlock: EYOCIG_clean_linker_4, # of connection points: 2
#     Edge 11, Type (0, 1), BuildingBlock: EYOCIG_clean_linker_4, # of connection points: 2
#     Edge 12, Type (0, 1), BuildingBlock: EYOCIG_clean_linker_4, # of connection points: 2
#     Edge 13, Type (0, 1), BuildingBlock: EYOCIG_clean_linker_4, # of connection points: 2
#     Edge 14, Type (0, 1), BuildingBlock: EYOCIG_clean_linker_4, # of connection points: 2
#     Edge 15, Type (0, 1), BuildingBlock: EYOCIG_clean_linker_4, # of connection points: 2
#     Edge 16, Type (0, 1), BuildingBlock: EYOCIG_clean_linker_4, # of connection points: 2
#     Edge 17, Type (0, 1), BuildingBlock: EYOCIG_clean_linker_4, # of connection points: 2
# Relax obj value: 0.075
# Max RMSD: 0.147
# Mean RMSD: 0.102
data_MOF--net-tsx--node1-MIDCAF_clean_sbu_0--node2-INOVEN_clean_linker_0--edge1-EYOCIG_clean_linker_4
_symmetry_space_group_name_H-M    P1
_symmetry_Int_Tables_number       1
_symmetry_cell_setting            triclinic
loop_
_symmetry_equiv_pos_as_xyz
'x, y, z'
_cell_length_a     15.082429
_cell_length_b     17.590934
_cell_length_c     28.352183
_cell_angle_alpha  90.237611
_cell_angle_beta   109.43019
_cell_angle_gamma 90.008439
loop_
_atom_site_label
_atom_site_type_symbol
_atom_site_fract_x
_atom_site_fract_y
_atom_site_fract_z
_atom_type_partial_charge
Zn0 Zn 0.91625 -0.01975 0.93725 0.0
Zn1 Zn 0.2508 -0.01862 0.07773 0.0
Zn2 Zn 0.08353 -0.01697 0.00751 0.0
C3 C 0.21571 0.12845 0.03732 0.0
C4 C 0.2569 0.87811 0.00495 0.0
O5 O 0.98751 0.91255 0.03356 0.0
O6 O 0.86757 0.89068 0.9642 0.0
C7 C 0.95076 0.12771 0.97801 0.0
O8 O 0.13151 0.1021 0.01894 0.0
O9 O 0.28289 0.08588 0.06116 0.0
O10 O 0.29979 0.89187 0.05059 0.0
O11 O 0.17971 0.91273 0.98128 0.0
O12 O 0.88375 0.08472 0.95407 0.0
O13 O 0.03506 0.10181 0.99635 0.0
O14 O 0.1047 0.93572 0.9404 0.0
O15 O 0.97049 -0.03265 0.88234 0.0
C16 C 0.0537 0.94299 0.89423 0.0
O17 O 0.06276 0.93571 0.07448 0.0
O18 O 0.19679 -0.0317 0.13264 0.0
C19 C 0.91045 0.87748 0.00983 0.0
C20 C 0.11378 0.94329 0.12068 0.0
Zn21 Zn 0.75104 0.48112 0.57779 0.0
Zn22 Zn 0.4166 0.47986 0.4373 0.0
Zn23 Zn 0.58382 0.48272 0.50755 0.0
C24 C 0.55408 0.4427 0.39429 0.0
C25 C 0.45098 0.62733 0.47803 0.0
O26 O 0.563 0.43547 0.57454 0.0
O27 O 0.69699 0.46817 0.63269 0.0
C28 C 0.7572 0.37779 0.50507 0.0
O29 O 0.60506 0.4354 0.44046 0.0
O30 O 0.47086 0.46705 0.3824 0.0
O31 O 0.38399 0.5843 0.45412 0.0
O32 O 0.5353 0.60148 0.49636 0.0
O33 O 0.80003 0.39156 0.55071 0.0
O34 O 0.68004 0.41242 0.48136 0.0
O35 O 0.63175 0.6018 0.51895 0.0
O36 O 0.78313 0.5856 0.56116 0.0
C37 C 0.71595 0.62815 0.53731 0.0
O38 O 0.48783 0.41221 0.53361 0.0
O39 O 0.36797 0.39024 0.46423 0.0
C40 C 0.61398 0.44315 0.62073 0.0
C41 C 0.41082 0.37708 0.50987 0.0
H42 H 0.16783 -0.01697 0.48876 0.0
H43 H 0.20253 0.86827 0.36157 0.0
H44 H 0.98921 0.03849 0.33903 0.0
N45 N 1.02705 0.07271 0.43719 0.0
N46 N 0.96173 0.11236 0.40983 0.0
C47 C 0.14666 -0.02568 0.44866 0.0
C48 C 0.19336 0.92049 0.42872 0.0
C49 C 0.07236 0.01718 0.41659 0.0
C50 C 0.04537 0.00531 0.36443 0.0
C51 C 0.09234 0.95174 0.34484 0.0
C52 C 0.16582 0.90942 0.37697 0.0
H53 H 0.99926 -0.01647 0.52646 0.0
H54 H 0.96518 0.86975 0.65356 0.0
H55 H 0.17946 0.03953 0.67616 0.0
N56 N 0.14088 0.07317 0.57802 0.0
N57 N 0.20668 0.1128 0.60533 0.0
C58 C 1.02073 -0.02495 0.56655 0.0
C59 C 0.97398 0.9215 0.58645 0.0
C60 C 0.09551 0.01792 0.59862 0.0
C61 C 0.12292 0.00634 0.65075 0.0
C62 C 0.07587 0.95303 0.67031 0.0
C63 C 1.00192 0.91071 0.63818 0.0
H64 H 0.66764 0.48345 0.98874 0.0
H65 H 0.70246 0.36861 0.86161 0.0
H66 H 0.48907 0.53878 0.83897 0.0
N67 N 0.52683 0.57308 0.93712 0.0
N68 N 0.4615 0.61269 0.90975 0.0
C69 C 0.6465 0.47471 0.94864 0.0
C70 C 0.69323 0.42088 0.92874 0.0
C71 C 0.57219 0.51753 0.91655 0.0
C72 C 0.54523 0.50563 0.8644 0.0
C73 C 0.59224 0.45205 0.84483 0.0
C74 C 0.66572 0.40977 0.87699 0.0
H75 H 0.49889 0.48394 0.0265 0.0
H76 H 0.46522 0.36991 0.15362 0.0
H77 H 0.67942 0.53974 0.17617 0.0
N78 N 0.64058 0.57354 0.07804 0.0
N79 N 0.7064 0.61317 0.10533 0.0
C80 C 0.52047 0.4754 0.06659 0.0
C81 C 0.4738 0.42179 0.08651 0.0
C82 C 0.59529 0.51824 0.09864 0.0
C83 C 0.62284 0.50658 0.15077 0.0
C84 C 0.57589 0.4532 0.17035 0.0
C85 C 0.50189 0.41091 0.13823 0.0
C86 C 0.27375 0.2671 0.03047 0.0
C87 C 0.23669 0.20636 0.03045 0.0
C88 C 0.33512 0.33014 0.03902 0.0
C89 C 0.39775 0.37569 0.05529 0.0
C90 C 0.33217 0.7734 0.96319 0.0
C91 C 0.2946 0.82164 0.98025 0.0
C92 C 0.37872 0.71596 0.94551 0.0
C93 C 0.41817 0.66734 0.92987 0.0
C94 C 0.83534 0.77316 0.0516 0.0
C95 C 0.87278 0.82124 0.0345 0.0
C96 C 0.78894 0.71595 0.06939 0.0
C97 C 0.74961 0.66756 0.08512 0.0
C98 C 0.89242 0.26632 0.98493 0.0
C99 C 0.92954 0.20563 0.98491 0.0
C100 C 0.83118 0.32932 0.97633 0.0
C101 C 0.76882 0.37484 0.95999 0.0
C102 C 0.77398 0.76678 0.5304 0.0
C103 C 0.73692 0.70605 0.53041 0.0
C104 C 0.83535 0.82982 0.53895 0.0
C105 C 0.89797 0.87537 0.55522 0.0
C106 C 0.8325 0.27306 0.46333 0.0
C107 C 0.79493 0.32131 0.48038 0.0
C108 C 0.87902 0.21562 0.44564 0.0
C109 C 0.91844 0.16701 0.42999 0.0
C110 C 0.33574 0.27274 0.55163 0.0
C111 C 0.37317 0.32083 0.53454 0.0
C112 C 0.28933 0.21553 0.56941 0.0
C113 C 0.24996 0.16716 0.58514 0.0
C114 C 0.39256 0.76594 0.48491 0.0
C115 C 0.42971 0.70525 0.4849 0.0
C116 C 0.33131 0.82892 0.4763 0.0
C117 C 0.26895 0.87444 0.45996 0.0
C118 C 0.05921 0.92648 0.1986 0.0
C119 C 0.07485 0.93114 0.15975 0.0
C120 C 0.05786 0.9324 0.24795 0.0
C121 C 0.07054 0.94339 0.29167 0.0
C122 C 0.10891 0.92732 0.81635 0.0
C123 C 0.09295 0.93153 0.85516 0.0
C124 C 0.11063 0.93369 0.76711 0.0
C125 C 0.09809 0.94484 0.72348 0.0
C126 C 0.55929 0.42654 0.69863 0.0
C127 C 0.575 0.4311 0.65979 0.0
C128 C 0.55786 0.43258 0.74796 0.0
C129 C 0.57047 0.44364 0.79167 0.0
C130 C 0.60928 0.42718 0.3164 0.0
C131 C 0.59335 0.43131 0.35522 0.0
C132 C 0.61091 0.43367 0.26715 0.0
C133 C 0.59826 0.44492 0.22351 0.0
loop_
_geom_bond_atom_site_label_1
_geom_bond_atom_site_label_2
_geom_bond_distance
_geom_bond_site_symmetry_2
_ccdc_geom_bond_type
Zn0 O6 1.920 1_545 S
Zn0 O12 1.898 . S
Zn0 O15 1.905 1_545 S
Zn1 O9 1.905 . S
Zn1 O10 1.898 1_545 S
Zn1 O18 1.920 1_545 S
Zn2 O5 2.080 1_445 S
Zn2 O8 2.114 . S
Zn2 O11 2.120 1_545 S
Zn2 O13 2.120 1_455 S
Zn2 O14 2.114 1_554 S
Zn2 O17 2.080 . S
C3 O8 1.166 . S
C3 O9 1.182 . S
C4 O10 1.167 . S
C4 O11 1.299 . S
O5 Zn2 2.080 1_665 S
O5 C19 1.303 . S
O6 Zn0 1.920 1_565 S
O6 C19 1.228 1_556 S
C7 O12 1.167 . S
C7 O13 1.299 1_556 S
O8 Zn2 2.114 . S
O8 C3 1.166 . S
O9 Zn1 1.905 . S
O9 C3 1.182 . S
O10 Zn1 1.898 1_565 S
O10 C4 1.167 . S
O11 Zn2 2.120 1_565 S
O11 C4 1.299 . S
O12 Zn0 1.898 . S
O12 C7 1.167 . S
O13 Zn2 2.120 1_655 S
O13 C7 1.299 1_554 S
O14 Zn2 2.114 1_556 S
O14 C16 1.166 1_445 S
O15 Zn0 1.905 1_565 S
O15 C16 1.182 . S
C16 O14 1.166 1_665 S
C16 O15 1.182 . S
O17 Zn2 2.080 . S
O17 C20 1.305 1_545 S
O18 Zn1 1.920 1_565 S
O18 C20 1.234 . S
C19 O5 1.303 . S
C19 O6 1.228 1_554 S
C20 O17 1.305 1_565 S
C20 O18 1.234 . S
Zn21 O27 1.920 . S
Zn21 O33 1.898 . S
Zn21 O36 1.905 . S
Zn22 O30 1.905 . S
Zn22 O31 1.898 . S
Zn22 O39 1.920 . S
Zn23 O26 2.080 . S
Zn23 O29 2.114 . S
Zn23 O32 2.120 . S
Zn23 O34 2.120 . S
Zn23 O35 2.114 . S
Zn23 O38 2.080 . S
C24 O29 1.166 . S
C24 O30 1.182 . S
C25 O31 1.167 . S
C25 O32 1.299 . S
O26 Zn23 2.080 . S
O26 C40 1.305 . S
O27 Zn21 1.920 . S
O27 C40 1.234 . S
C28 O33 1.167 . S
C28 O34 1.299 . S
O29 Zn23 2.114 . S
O29 C24 1.166 . S
O30 Zn22 1.905 . S
O30 C24 1.182 . S
O31 Zn22 1.898 . S
O31 C25 1.167 . S
O32 Zn23 2.120 . S
O32 C25 1.299 . S
O33 Zn21 1.898 . S
O33 C28 1.167 . S
O34 Zn23 2.120 . S
O34 C28 1.299 . S
O35 Zn23 2.114 . S
O35 C37 1.166 . S
O36 Zn21 1.905 . S
O36 C37 1.182 . S
C37 O35 1.166 . S
C37 O36 1.182 . S
O38 Zn23 2.080 . S
O38 C41 1.305 . S
O39 Zn22 1.920 . S
O39 C41 1.234 . S
C40 O26 1.305 . S
C40 O27 1.234 . S
C41 O38 1.305 . S
C41 O39 1.234 . S
H42 C47 0.929 . S
H43 C52 0.931 . S
H44 C50 0.930 . S
N45 N46 1.234 1_455 S
N45 C49 1.453 . S
N46 N45 1.234 1_655 S
C47 H42 0.929 . S
C47 C48 1.373 . S
C47 C49 1.368 1_565 S
C48 C47 1.373 . S
C48 C52 1.397 . S
C49 N45 1.453 . S
C49 C47 1.368 1_545 S
C49 C50 1.373 . S
C50 H44 0.930 . S
C50 C49 1.373 . S
C50 C51 1.371 . S
C51 C50 1.371 . S
C51 C52 1.383 1_545 S
C52 H43 0.931 . S
C52 C48 1.397 . S
C52 C51 1.383 1_565 S
H53 C58 0.929 . S
H54 C63 0.931 . S
H55 C61 0.930 . S
N56 N57 1.234 . S
N56 C60 1.453 . S
N57 N56 1.234 . S
C58 H53 0.929 . S
C58 C59 1.373 . S
C58 C60 1.368 1_665 S
C59 C58 1.373 . S
C59 C63 1.397 . S
C60 N56 1.453 . S
C60 C58 1.368 1_445 S
C60 C61 1.373 . S
C61 H55 0.930 . S
C61 C60 1.373 . S
C61 C62 1.371 1_455 S
C62 C61 1.371 1_655 S
C62 C63 1.383 1_545 S
C63 H54 0.931 . S
C63 C59 1.397 . S
C63 C62 1.383 1_565 S
H64 C69 0.929 . S
H65 C74 0.931 . S
H66 C72 0.930 . S
N67 N68 1.234 . S
N67 C71 1.453 . S
N68 N67 1.234 . S
C69 H64 0.929 . S
C69 C70 1.373 . S
C69 C71 1.368 . S
C70 C69 1.373 . S
C70 C74 1.397 . S
C71 N67 1.453 . S
C71 C69 1.368 . S
C71 C72 1.373 . S
C72 H66 0.930 . S
C72 C71 1.373 . S
C72 C73 1.371 . S
C73 C72 1.371 . S
C73 C74 1.383 . S
C74 H65 0.931 . S
C74 C70 1.397 . S
C74 C73 1.383 . S
H75 C80 0.929 . S
H76 C85 0.931 . S
H77 C83 0.930 . S
N78 N79 1.234 . S
N78 C82 1.453 . S
N79 N78 1.234 . S
C80 H75 0.929 . S
C80 C81 1.373 . S
C80 C82 1.368 . S
C81 C80 1.373 . S
C81 C85 1.397 . S
C82 N78 1.453 . S
C82 C80 1.368 . S
C82 C83 1.373 . S
C83 H77 0.930 . S
C83 C82 1.373 . S
C83 C84 1.371 . S
C84 C83 1.371 . S
C84 C85 1.383 . S
C85 H76 0.931 . S
C85 C81 1.397 . S
C85 C84 1.383 . S
C86 C87 1.170 . S
C86 C88 1.380 . S
C87 C86 1.170 . S
C88 C86 1.380 . S
C88 C89 1.170 . S
C89 C88 1.170 . S
C90 C91 1.170 . S
C90 C92 1.380 . S
C91 C90 1.170 . S
C92 C90 1.380 . S
C92 C93 1.170 . S
C93 C92 1.170 . S
C94 C95 1.170 . S
C94 C96 1.380 . S
C95 C94 1.170 . S
C96 C94 1.380 . S
C96 C97 1.170 . S
C97 C96 1.170 . S
C98 C99 1.170 . S
C98 C100 1.380 . S
C99 C98 1.170 . S
C100 C98 1.380 . S
C100 C101 1.170 . S
C101 C100 1.170 . S
C102 C103 1.170 . S
C102 C104 1.380 . S
C103 C102 1.170 . S
C104 C102 1.380 . S
C104 C105 1.170 . S
C105 C104 1.170 . S
C106 C107 1.170 . S
C106 C108 1.380 . S
C107 C106 1.170 . S
C108 C106 1.380 . S
C108 C109 1.170 . S
C109 C108 1.170 . S
C110 C111 1.170 . S
C110 C112 1.380 . S
C111 C110 1.170 . S
C112 C110 1.380 . S
C112 C113 1.170 . S
C113 C112 1.170 . S
C114 C115 1.170 . S
C114 C116 1.380 . S
C115 C114 1.170 . S
C116 C114 1.380 . S
C116 C117 1.170 . S
C117 C116 1.170 . S
C118 C119 1.170 . S
C118 C120 1.380 1_565 S
C119 C118 1.170 . S
C120 C118 1.380 1_545 S
C120 C121 1.170 . S
C121 C120 1.170 . S
C122 C123 1.170 . S
C122 C124 1.380 1_465 S
C123 C122 1.170 . S
C124 C122 1.380 1_645 S
C124 C125 1.170 . S
C125 C124 1.170 . S
C126 C127 1.170 . S
C126 C128 1.380 . S
C127 C126 1.170 . S
C128 C126 1.380 . S
C128 C129 1.170 . S
C129 C128 1.170 . S
C130 C131 1.170 . S
C130 C132 1.380 . S
C131 C130 1.170 . S
C132 C130 1.380 . S
C132 C133 1.170 . S
C133 C132 1.170 . S
C89 C81 1.360 . S
C87 C3 1.238 . S
C91 C4 1.447 1_556 S
C93 N68 1.496 . S
C95 C19 1.439 . S
C97 N79 1.522 . S
C99 C7 1.243 . S
C101 C70 1.367 . S
C103 C37 1.234 . S
C105 C59 1.359 . S
C107 C28 1.426 . S
C109 N46 1.498 . S
C113 N57 1.516 . S
C111 C41 1.478 . S
C117 C48 1.359 . S
C115 C25 1.221 . S
C119 C20 1.393 . S
C121 C51 1.497 . S
C123 C16 1.380 1_455 S
C125 C62 1.545 . S
C129 C73 1.495 . S
C127 C40 1.391 . S
C131 C24 1.391 . S
C133 C84 1.549 . S
