# Generated by pormake.
# Topology tsx, (6,3)-cn, num edge types: 1
# Building blocks:
#     Node 0, Type 0, BuildingBlock: LEVNOQ01_clean_sbu_1, # of connection points: 6
#     Node 1, Type 0, BuildingBlock: LEVNOQ01_clean_sbu_1, # of connection points: 6
#     Node 2, Type 1, BuildingBlock: PAMTOO_clean_linker_0, # of connection points: 3
#     Node 3, Type 1, BuildingBlock: PAMTOO_clean_linker_0, # of connection points: 3
#     Node 4, Type 1, BuildingBlock: PAMTOO_clean_linker_0, # of connection points: 3
#     Node 5, Type 1, BuildingBlock: PAMTOO_clean_linker_0, # of connection points: 3
#     Edge 6, Type (0, 1), None
#     Edge 7, Type (0, 1), None
#     Edge 8, Type (0, 1), None
#     Edge 9, Type (0, 1), None
#     Edge 10, Type (0, 1), None
#     Edge 11, Type (0, 1), None
#     Edge 12, Type (0, 1), None
#     Edge 13, Type (0, 1), None
#     Edge 14, Type (0, 1), None
#     Edge 15, Type (0, 1), None
#     Edge 16, Type (0, 1), None
#     Edge 17, Type (0, 1), None
# Relax obj value: 0.135
# Max RMSD: 0.131
# Mean RMSD: 0.131
data_MOF--net-tsx--node1-LEVNOQ01_clean_sbu_1--node2-PAMTOO_clean_linker_0--edge1-none
_symmetry_space_group_name_H-M    P1
_symmetry_Int_Tables_number       1
_symmetry_cell_setting            triclinic
loop_
_symmetry_equiv_pos_as_xyz
'x, y, z'
_cell_length_a     7.7449118
_cell_length_b     10.47246
_cell_length_c     17.56775
_cell_angle_alpha  78.08167
_cell_angle_beta   84.552625
_cell_angle_gamma 90.215023
loop_
_atom_site_label
_atom_site_type_symbol
_atom_site_fract_x
_atom_site_fract_y
_atom_site_fract_z
_atom_type_partial_charge
O0 O 0.28353 0.94765 0.07336 0.0
Mg1 Mg 0.4005 0.06034 -0.03562 0.0
O2 O 1.05586 0.06877 0.05666 0.0
Mg3 Mg 0.09967 0.08212 -0.07601 0.0
O4 O 0.30602 0.24441 -0.07893 0.0
O5 O 0.51477 0.20576 0.00274 0.0
O6 O 0.16757 0.11687 0.79285 0.0
O7 O 0.93783 0.28992 0.89669 0.0
Mg8 Mg 0.91027 0.0676 0.90853 0.0
O9 O 0.89811 0.8833 -0.05403 0.0
O10 O 0.91644 0.03065 0.7907 0.0
O11 O 0.71789 0.18935 0.86661 0.0
O12 O 0.74057 0.99315 0.0162 0.0
C13 C 0.40219 0.87612 0.88262 0.0
C14 C 0.15131 0.99844 0.10229 0.0
C15 C 0.40705 0.284 -0.03319 0.0
C16 C 1.0556 0.08182 0.75377 0.0
C17 C 0.79389 0.29524 0.86622 0.0
C18 C 0.78152 0.88218 0.00247 0.0
O19 O 0.51368 0.96712 0.87476 0.0
O20 O 0.25816 0.88519 -0.0768 0.0
O21 O 0.78338 0.4478 0.57339 0.0
Mg22 Mg 0.89823 0.5605 0.464 0.0
O23 O 0.55471 0.56782 0.55688 0.0
Mg24 Mg 0.59871 0.58153 0.42413 0.0
O25 O 0.80375 0.74487 0.42134 0.0
O26 O 1.01442 0.70538 0.50203 0.0
O27 O 0.66698 0.61687 0.29288 0.0
O28 O 0.43602 0.78892 0.39716 0.0
Mg29 Mg 0.4102 0.56654 0.40794 0.0
O30 O 0.39797 0.38236 0.44603 0.0
O31 O 0.41734 0.5287 0.2903 0.0
O32 O 0.21811 0.68813 0.36557 0.0
O33 O 0.23955 0.49289 0.51547 0.0
C34 C 0.90128 0.37574 0.38262 0.0
C35 C 0.65085 0.49806 0.60243 0.0
C36 C 0.9076 0.7843 0.466 0.0
C37 C 0.55612 0.58095 0.25358 0.0
C38 C 0.29298 0.79411 0.36597 0.0
C39 C 0.28082 0.38169 0.50223 0.0
O40 O 1.01211 0.46725 0.37446 0.0
O41 O 0.7573 0.38457 0.42327 0.0
H42 H 0.22855 0.8079 0.21929 0.0
H43 H 1.05097 0.20246 0.17128 0.0
H44 H 0.25896 0.04225 0.38878 0.0
H45 H 0.84584 0.18483 0.36508 0.0
C46 C 0.91818 0.27383 0.3328 0.0
O47 O 0.08929 0.24624 0.31106 0.0
H48 H 0.85334 0.31095 0.27904 0.0
C49 C 0.2012 0.89876 0.23819 0.0
C50 C 0.23713 0.9115 0.31294 0.0
C51 C 0.14038 1.00371 0.18575 0.0
C52 C 0.10042 0.1205 0.2109 0.0
C53 C 0.13327 0.13442 0.28624 0.0
C54 C 0.21467 0.03191 0.33446 0.0
H55 H 0.19641 0.30473 0.66095 0.0
H56 H 0.98405 0.9247 0.65622 0.0
H57 H 0.16893 0.18977 0.44386 0.0
H58 H 0.89386 0.98589 0.41853 0.0
C59 C 0.90384 0.92179 0.47604 0.0
O60 O 1.05459 0.95 0.50556 0.0
H61 H 0.7885 0.93337 0.51668 0.0
C62 C 0.15979 0.23305 0.62846 0.0
C63 C 0.19283 0.25984 0.5467 0.0
C64 C 0.08235 0.11215 0.66827 0.0
C65 C 1.03792 0.01941 0.6261 0.0
C66 C 0.07231 0.04595 0.54496 0.0
C67 C 0.14566 0.16667 0.50603 0.0
H68 H 0.72888 0.30802 0.71966 0.0
H69 H 0.55056 0.70238 0.67113 0.0
H70 H 0.76067 0.54379 0.88834 0.0
H71 H 0.34713 0.68509 0.8653 0.0
C72 C 0.41882 0.77422 0.8328 0.0
O73 O 0.58986 0.74704 0.81065 0.0
H74 H 0.35321 0.81109 0.77924 0.0
C75 C 0.70165 0.39906 0.73837 0.0
C76 C 0.73808 0.41234 0.81296 0.0
C77 C 0.64035 0.50371 0.68584 0.0
C78 C 0.60044 0.62068 0.71079 0.0
C79 C 0.63391 0.63512 0.78596 0.0
C80 C 0.71585 0.53298 0.83419 0.0
H81 H 0.6973 0.80418 0.16116 0.0
H82 H 0.48513 0.42448 0.15552 0.0
H83 H 0.66945 0.69086 -0.0564 0.0
H84 H 0.39347 0.48526 -0.08242 0.0
C85 C 0.40508 0.42228 -0.02471 0.0
O86 O 0.55573 0.45081 0.00479 0.0
H87 H 0.28934 0.43548 0.01531 0.0
C88 C 0.66072 0.73275 0.12848 0.0
C89 C 0.69364 0.76011 0.04671 0.0
C90 C 0.58333 0.61168 0.16805 0.0
C91 C 0.53893 0.51932 0.12561 0.0
C92 C 0.57315 0.54644 0.04446 0.0
C93 C 0.64634 0.66735 0.00578 0.0
loop_
_geom_bond_atom_site_label_1
_geom_bond_atom_site_label_2
_geom_bond_distance
_geom_bond_site_symmetry_2
_ccdc_geom_bond_type
O0 Mg1 1.990 . S
O0 C14 1.253 . S
Mg1 O0 1.990 . S
Mg1 O4 2.180 . S
Mg1 O5 2.117 . S
Mg1 O19 2.030 1_545 S
O2 Mg3 2.072 1_554 S
O2 C14 1.260 . S
Mg3 O2 2.072 1_556 S
Mg3 O4 2.099 1_556 S
Mg3 O6 2.079 . S
Mg3 O7 2.072 1_456 S
Mg3 O9 2.099 1_445 S
Mg3 O20 2.079 1_545 S
O4 Mg1 2.180 . S
O4 Mg3 2.099 1_554 S
O4 C15 1.279 . S
O5 Mg1 2.117 . S
O5 C15 1.250 . S
O6 Mg3 2.079 . S
O6 C16 1.264 1_455 S
O7 Mg3 2.072 1_654 S
O7 C17 1.260 1_554 S
Mg8 O9 2.180 1_545 S
Mg8 O10 2.030 . S
Mg8 O11 1.990 . S
Mg8 O12 2.117 1_545 S
O9 Mg3 2.099 1_665 S
O9 Mg8 2.180 1_565 S
O9 C18 1.279 1_556 S
O10 Mg8 2.030 . S
O10 C16 1.248 . S
O11 Mg8 1.990 . S
O11 C17 1.253 . S
O12 Mg8 2.117 1_565 S
O12 C18 1.250 1_556 S
C13 O19 1.248 . S
C13 O20 1.264 1_554 S
C14 O0 1.253 . S
C14 O2 1.260 . S
C15 O4 1.279 . S
C15 O5 1.250 . S
C16 O6 1.264 1_655 S
C16 O10 1.248 . S
C17 O7 1.260 1_556 S
C17 O11 1.253 . S
C18 O9 1.279 1_554 S
C18 O12 1.250 1_554 S
O19 Mg1 2.030 1_565 S
O19 C13 1.248 . S
O20 Mg3 2.079 1_565 S
O20 C13 1.264 1_556 S
O21 Mg22 1.990 . S
O21 C35 1.253 . S
Mg22 O21 1.990 . S
Mg22 O25 2.180 . S
Mg22 O26 2.117 . S
Mg22 O40 2.030 . S
O23 Mg24 2.072 . S
O23 C35 1.260 . S
Mg24 O23 2.072 . S
Mg24 O25 2.099 . S
Mg24 O27 2.079 . S
Mg24 O28 2.072 . S
Mg24 O30 2.099 . S
Mg24 O41 2.079 . S
O25 Mg22 2.180 . S
O25 Mg24 2.099 . S
O25 C36 1.279 . S
O26 Mg22 2.117 . S
O26 C36 1.250 . S
O27 Mg24 2.079 . S
O27 C37 1.264 . S
O28 Mg24 2.072 . S
O28 C38 1.260 . S
Mg29 O30 2.180 . S
Mg29 O31 2.030 . S
Mg29 O32 1.990 . S
Mg29 O33 2.117 . S
O30 Mg24 2.099 . S
O30 Mg29 2.180 . S
O30 C39 1.279 . S
O31 Mg29 2.030 . S
O31 C37 1.248 . S
O32 Mg29 1.990 . S
O32 C38 1.253 . S
O33 Mg29 2.117 . S
O33 C39 1.250 . S
C34 O40 1.248 . S
C34 O41 1.264 . S
C35 O21 1.253 . S
C35 O23 1.260 . S
C36 O25 1.279 . S
C36 O26 1.250 . S
C37 O27 1.264 . S
C37 O31 1.248 . S
C38 O28 1.260 . S
C38 O32 1.253 . S
C39 O30 1.279 . S
C39 O33 1.250 . S
O40 Mg22 2.030 . S
O40 C34 1.248 . S
O41 Mg24 2.079 . S
O41 C34 1.264 . S
H42 C49 0.929 . S
H43 C52 0.930 1_655 S
H44 C54 0.929 . S
H45 C46 0.969 . S
C46 H45 0.969 . S
C46 O47 1.550 . S
C46 H48 0.973 . S
O47 C46 1.550 . S
O47 C53 1.412 1_655 S
H48 C46 0.973 . S
C49 H42 0.929 . S
C49 C50 1.400 . S
C49 C51 1.364 . S
C50 C49 1.400 . S
C50 C54 1.377 . S
C51 C49 1.364 . S
C51 C52 1.374 1_565 S
C52 H43 0.930 1_455 S
C52 C51 1.374 1_545 S
C52 C53 1.383 . S
C53 O47 1.412 1_455 S
C53 C52 1.383 . S
C53 C54 1.394 1_545 S
C54 H44 0.929 . S
C54 C50 1.377 . S
C54 C53 1.394 1_565 S
H55 C62 0.929 . S
H56 C65 0.930 . S
H57 C67 0.929 . S
H58 C59 0.969 . S
C59 H58 0.969 . S
C59 O60 1.551 . S
C59 H61 0.973 . S
O60 C59 1.551 . S
O60 C66 1.411 1_565 S
H61 C59 0.973 . S
C62 H55 0.929 . S
C62 C63 1.400 . S
C62 C64 1.364 . S
C63 C62 1.400 . S
C63 C67 1.377 . S
C64 C62 1.364 . S
C64 C65 1.374 1_455 S
C65 H56 0.930 . S
C65 C64 1.374 1_655 S
C65 C66 1.383 . S
C66 O60 1.411 1_545 S
C66 C65 1.383 . S
C66 C67 1.394 1_655 S
C67 H57 0.929 . S
C67 C63 1.377 . S
C67 C66 1.394 1_455 S
H68 C75 0.929 . S
H69 C78 0.930 . S
H70 C80 0.929 . S
H71 C72 0.968 1_556 S
C72 H71 0.968 1_554 S
C72 O73 1.550 . S
C72 H74 0.973 1_554 S
O73 C72 1.550 . S
O73 C79 1.412 1_554 S
H74 C72 0.973 1_556 S
C75 H68 0.929 . S
C75 C76 1.400 . S
C75 C77 1.364 . S
C76 C75 1.400 . S
C76 C80 1.377 1_556 S
C77 C75 1.364 . S
C77 C78 1.374 . S
C78 H69 0.930 . S
C78 C77 1.374 . S
C78 C79 1.383 . S
C79 O73 1.412 1_556 S
C79 C78 1.383 . S
C79 C80 1.394 1_556 S
C80 H70 0.929 . S
C80 C76 1.377 1_554 S
C80 C79 1.394 1_554 S
H81 C88 0.929 . S
H82 C91 0.930 . S
H83 C93 0.929 . S
H84 C85 0.969 . S
C85 H84 0.969 . S
C85 O86 1.550 1_554 S
C85 H87 0.973 . S
O86 C85 1.550 1_556 S
O86 C92 1.412 1_556 S
H87 C85 0.973 . S
C88 H81 0.929 . S
C88 C89 1.400 . S
C88 C90 1.364 . S
C89 C88 1.400 . S
C89 C93 1.377 1_554 S
C90 C88 1.364 . S
C90 C91 1.374 . S
C91 H82 0.930 . S
C91 C90 1.374 . S
C91 C92 1.383 . S
C92 O86 1.412 1_554 S
C92 C91 1.383 . S
C92 C93 1.394 1_554 S
C93 H83 0.929 . S
C93 C89 1.377 1_556 S
C93 C92 1.394 1_556 S
C85 C15 1.553 . S
C13 C72 1.617 . S
C18 C89 1.208 . S
C17 C76 1.359 . S
C36 C59 1.553 . S
C34 C46 1.617 . S
C63 C39 1.208 . S
C50 C38 1.359 . S
C14 C51 1.621 1_545 S
C16 C64 1.502 1_655 S
C77 C35 1.621 . S
C37 C90 1.502 . S
