# Generated by pormake.
# Topology anh, (6,3)-cn, num edge types: 1
# Building blocks:
#     Node 0, Type 0, BuildingBlock: HISSIN_clean_sbu_0, # of connection points: 6
#     Node 1, Type 0, BuildingBlock: HISSIN_clean_sbu_0, # of connection points: 6
#     Node 2, Type 0, BuildingBlock: HISSIN_clean_sbu_0, # of connection points: 6
#     Node 3, Type 1, BuildingBlock: INOVEN_clean_linker_0, # of connection points: 3
#     Node 4, Type 1, BuildingBlock: INOVEN_clean_linker_0, # of connection points: 3
#     Node 5, Type 1, BuildingBlock: INOVEN_clean_linker_0, # of connection points: 3
#     Node 6, Type 1, BuildingBlock: INOVEN_clean_linker_0, # of connection points: 3
#     Node 7, Type 1, BuildingBlock: INOVEN_clean_linker_0, # of connection points: 3
#     Node 8, Type 1, BuildingBlock: INOVEN_clean_linker_0, # of connection points: 3
#     Edge 9, Type (0, 1), None
#     Edge 10, Type (0, 1), None
#     Edge 11, Type (0, 1), None
#     Edge 12, Type (0, 1), None
#     Edge 13, Type (0, 1), None
#     Edge 14, Type (0, 1), None
#     Edge 15, Type (0, 1), None
#     Edge 16, Type (0, 1), None
#     Edge 17, Type (0, 1), None
#     Edge 18, Type (0, 1), None
#     Edge 19, Type (0, 1), None
#     Edge 20, Type (0, 1), None
#     Edge 21, Type (0, 1), None
#     Edge 22, Type (0, 1), None
#     Edge 23, Type (0, 1), None
#     Edge 24, Type (0, 1), None
#     Edge 25, Type (0, 1), None
#     Edge 26, Type (0, 1), None
# Relax obj value: 0.735
# Max RMSD: 0.230
# Mean RMSD: 0.149
data_MOF--net-anh--node1-HISSIN_clean_sbu_0--node2-INOVEN_clean_linker_0--edge1-none
_symmetry_space_group_name_H-M    P1
_symmetry_Int_Tables_number       1
_symmetry_cell_setting            triclinic
loop_
_symmetry_equiv_pos_as_xyz
'x, y, z'
_cell_length_a     13.680296
_cell_length_b     13.494819
_cell_length_c     22.387321
_cell_angle_alpha  96.013264
_cell_angle_beta   90.814803
_cell_angle_gamma 121.00369
loop_
_atom_site_label
_atom_site_type_symbol
_atom_site_fract_x
_atom_site_fract_y
_atom_site_fract_z
_atom_type_partial_charge
Eu0 Eu 1.21116 0.65013 0.10579 0.0
Eu1 Eu 0.31986 0.87412 0.11134 0.0
C2 C 1.29764 0.77567 0.24036 0.0
C3 C 1.04837 0.32353 0.10255 0.0
C4 C 1.0723 0.31412 0.16198 0.0
C5 C 0.98651 1.12183 0.07207 0.0
C6 C 1.0461 1.20612 0.17692 0.0
C7 C 1.01221 0.22951 0.0571 0.0
C8 C 0.9944 1.10813 0.1326 0.0
C9 C 1.06178 0.43009 0.08596 0.0
O10 O 0.48463 0.86741 0.10238 0.0
O11 O 0.39304 0.67252 0.10325 0.0
C12 C 0.49049 0.77219 0.10027 0.0
O13 O 1.22092 0.66277 0.00824 0.0
O14 O 0.38247 1.05119 0.1531 0.0
O15 O 1.30938 0.99895 0.0608 0.0
O16 O 0.37994 0.83878 0.02193 0.0
C17 C 1.31041 0.74289 -0.01356 0.0
O18 O 1.12305 0.75357 0.08326 0.0
O19 O 1.12298 0.75358 0.08333 0.0
O20 O 0.34151 0.86991 0.21316 0.0
O21 O 1.0528 0.50039 0.12747 0.0
O22 O 1.14667 0.4833 0.05291 0.0
O23 O 1.23933 0.67398 0.20738 0.0
C24 C 0.48346 1.17723 0.08423 0.0
C25 C 0.54311 1.13941 0.04714 0.0
C26 C 0.65972 0.31123 0.14405 0.0
C27 C 0.65342 1.17021 0.06692 0.0
C28 C 0.54752 0.27733 0.12591 0.0
C29 C 0.70156 0.23837 0.12343 0.0
C30 C 0.37352 1.0863 0.10217 0.0
C31 C 1.03905 0.75588 0.11162 0.0
H32 H 1.10437 0.38768 0.19711 0.0
H33 H 0.94679 1.04659 0.03774 0.0
H34 H 1.05301 1.19591 0.22386 0.0
H35 H 0.99725 0.2377 0.01067 0.0
H36 H 0.49828 1.06893 0.01054 0.0
H37 H 0.70301 0.37967 0.18155 0.0
H38 H 0.68949 1.12437 0.04301 0.0
H39 H 0.50549 0.31407 0.15257 0.0
Eu40 Eu 0.8194 1.14507 0.45539 0.0
Eu41 Eu 0.69469 0.28357 0.45477 0.0
C42 C 0.80326 0.26943 0.5847 0.0
C43 C 1.04729 1.06433 0.4515 0.0
C44 C 1.09917 1.09715 0.51035 0.0
C45 C 1.1992 1.0382 0.41562 0.0
C46 C 1.19672 1.09249 0.52211 0.0
C47 C 1.10184 1.0431 0.4037 0.0
C48 C 1.24007 1.05218 0.47535 0.0
C49 C 0.93228 1.04076 0.43908 0.0
O50 O 0.87639 0.43368 0.44326 0.0
O51 O 0.96526 0.32907 0.4369 0.0
C52 C 0.96994 0.42957 0.43568 0.0
O53 O 0.71965 1.09784 0.36809 0.0
O54 O 0.6355 0.39823 0.48985 0.0
O55 O 0.56925 0.29847 0.40141 0.0
O56 O 0.7622 0.27955 0.36335 0.0
C57 C 0.74322 1.18042 0.33614 0.0
O58 O 0.63248 0.99003 0.44647 0.0
O59 O 0.54419 1.0931 0.43845 0.0
O60 O 0.74511 0.30668 0.5564 0.0
O61 O 0.9234 1.10149 0.40016 0.0
O62 O 0.86958 1.02814 0.48464 0.0
O63 O 0.83717 1.20462 0.555 0.0
C64 C 0.63059 0.49667 0.41239 0.0
C65 C 0.72764 0.5276 0.38014 0.0
C66 C 0.7203 0.69449 0.46032 0.0
C67 C 0.82779 0.63389 0.3983 0.0
C68 C 0.62142 0.58538 0.44482 0.0
C69 C 0.82703 0.70966 0.44616 0.0
C70 C 0.58329 0.38725 0.438 0.0
C71 C 0.53798 0.99199 0.43662 0.0
H72 H 1.05956 1.11663 0.54767 0.0
H73 H 1.23201 1.00692 0.37933 0.0
H74 H 1.2283 1.10388 0.56848 0.0
H75 H 1.06343 1.01997 0.35785 0.0
H76 H 0.73438 0.46183 0.35151 0.0
H77 H 0.71571 0.7567 0.49308 0.0
H78 H 0.90686 0.64488 0.3827 0.0
H79 H 0.54542 0.5647 0.46798 0.0
Eu80 Eu 0.79548 0.69469 0.76925 0.0
Eu81 Eu 1.0134 0.83968 0.8 0.0
C82 C 0.86628 0.76465 0.91179 0.0
C83 C 0.47975 0.47105 0.73962 0.0
C84 C 0.41954 0.47477 0.68929 0.0
C85 C 1.31609 0.41973 0.79738 0.0
C86 C 1.3093 0.45377 0.69353 0.0
C87 C 0.42621 0.44059 0.79332 0.0
C88 C 1.25903 0.42983 0.74805 0.0
C89 C 0.59963 0.5052 0.73639 0.0
O90 O 0.93054 0.63924 0.75846 0.0
O91 O 0.92929 0.63822 0.76037 0.0
C92 C 0.913 0.54729 0.78529 0.0
O93 O 0.85676 0.75911 0.67941 0.0
O94 O 1.16737 0.86804 0.84669 0.0
O95 O 1.17429 1.00253 0.79776 0.0
O96 O 1.04004 0.81628 0.70373 0.0
C97 C 0.95993 0.7924 0.66319 0.0
O98 O 0.77279 0.84906 0.76384 0.0
O99 O 0.96012 0.97757 0.79079 0.0
O100 O 0.96665 0.79808 0.89298 0.0
O101 O 0.65652 0.584 0.70135 0.0
O102 O 0.65872 0.52378 0.787 0.0
O103 O 0.78177 0.73414 0.8711 0.0
C104 C 0.33691 0.98713 0.8039 0.0
C105 C 0.43728 1.0428 0.84253 0.0
C106 C 0.414 0.88847 0.74417 0.0
C107 C 0.5158 1.00627 0.83453 0.0
C108 C 0.33201 0.9206 0.75004 0.0
C109 C 0.47611 0.8992 0.79783 0.0
C110 C 1.23218 0.96978 0.82826 0.0
C111 C 0.85802 0.95795 0.77355 0.0
H112 H 0.45905 0.49782 0.64731 0.0
H113 H 1.27701 0.40085 0.83971 0.0
H114 H 1.26576 0.46278 0.65559 0.0
H115 H 0.47031 0.43643 0.83268 0.0
H116 H 0.44718 1.10082 0.88255 0.0
H117 H 0.40335 0.82757 0.70547 0.0
H118 H 0.58516 1.03795 0.86904 0.0
H119 H 1.25941 0.88239 0.71705 0.0
H120 H 0.78062 1.08434 0.10413 0.0
H121 H 0.72595 0.28865 0.24786 0.0
H122 H 0.80044 1.03002 0.28611 0.0
N123 N 0.83517 0.97264 0.17787 0.0
N124 N 0.92183 0.99653 0.1498 0.0
C125 C 0.77781 1.11054 0.15087 0.0
C126 C 0.75128 1.19755 0.16853 0.0
C127 C 0.7986 1.05307 0.19376 0.0
C128 C 0.78672 1.07706 0.25384 0.0
C129 C 0.76149 1.16291 0.27273 0.0
C130 C 0.74833 0.22563 0.23093 0.0
H131 H 1.05846 0.80749 0.4328 0.0
H132 H 0.81388 0.73047 0.56703 0.0
H133 H 1.16732 0.86826 0.61967 0.0
N134 N 1.24234 0.89797 0.51259 0.0
N135 N 1.29387 0.99063 0.48911 0.0
C136 C 1.03751 0.80595 0.47922 0.0
C137 C 0.92437 0.76761 0.49339 0.0
C138 C 1.12507 0.84391 0.52519 0.0
C139 C 1.09874 0.83856 0.58495 0.0
C140 C 0.9867 0.80007 0.59998 0.0
C141 C 0.90065 0.76545 0.55445 0.0
H142 H 0.33539 0.66779 0.74978 0.0
H143 H 0.47996 0.88591 0.92164 0.0
H144 H 1.16683 0.55438 0.9082 0.0
N145 N 1.15004 0.50139 0.79232 0.0
N146 N 1.15629 0.42898 0.75531 0.0
C147 C 0.33718 0.68328 0.79821 0.0
C148 C 0.41896 0.79262 0.83051 0.0
C149 C 1.24594 0.59923 0.82652 0.0
C150 C 1.24044 0.61929 0.88791 0.0
C151 C 0.32601 0.72203 0.9224 0.0
C152 C 0.41754 0.80581 0.89421 0.0
H153 H 0.36109 0.7925 0.48223 0.0
H154 H 0.47292 0.94812 0.31852 0.0
H155 H 1.15573 0.62004 0.31349 0.0
N156 N 1.15618 0.60353 0.43376 0.0
N157 N 1.06252 0.52163 0.40727 0.0
C158 C 0.34753 0.78982 0.43418 0.0
C159 C 0.43071 0.88384 0.40468 0.0
C160 C 1.24466 0.69437 0.40223 0.0
C161 C 1.23136 0.69217 0.33897 0.0
C162 C 1.31343 0.78259 0.30806 0.0
C163 C 0.41055 0.87819 0.34178 0.0
H164 H 0.9217 0.36321 0.82535 0.0
H165 H 0.84597 0.46601 0.66211 0.0
H166 H 0.82907 1.13702 0.65756 0.0
N167 N 0.89404 1.15488 0.77346 0.0
N168 N 0.84118 1.04763 0.75312 0.0
C169 C 0.89626 0.34525 0.77756 0.0
C170 C 0.88747 0.43124 0.74864 0.0
C171 C 0.8758 0.23779 0.74516 0.0
C172 C 0.84332 1.21687 0.68294 0.0
C173 C 0.83131 0.29722 0.65234 0.0
C174 C 0.8535 0.40377 0.68561 0.0
H175 H 0.83724 0.74433 0.15193 0.0
H176 H 1.01251 0.76217 -0.00844 0.0
H177 H 0.69502 0.75658 -0.01956 0.0
N178 N 0.65494 0.74676 0.09956 0.0
N179 N 0.58971 0.77429 0.07507 0.0
C180 C 0.84204 0.74826 0.10393 0.0
C181 C 0.93932 0.75426 0.07638 0.0
C182 C 0.75213 0.75041 0.07025 0.0
C183 C 0.76079 0.75533 0.00725 0.0
C184 C 0.85382 0.75866 -0.02151 0.0
C185 C 0.94125 0.75894 0.0137 0.0
loop_
_geom_bond_atom_site_label_1
_geom_bond_atom_site_label_2
_geom_bond_distance
_geom_bond_site_symmetry_2
_ccdc_geom_bond_type
Eu0 C9 2.828 . S
Eu0 O11 2.392 1_655 S
Eu0 O13 2.418 1_554 S
Eu0 O18 2.373 . S
Eu0 O21 2.488 . S
Eu0 O22 2.471 . S
Eu0 O23 2.349 . S
Eu1 O10 2.373 . S
Eu1 O14 2.488 . S
Eu1 O15 2.471 . S
Eu1 O16 2.349 . S
Eu1 O19 2.392 1_455 S
Eu1 O20 2.418 . S
Eu1 C30 2.828 . S
C2 O20 1.244 . S
C2 O23 1.265 1_455 S
C3 C4 1.379 . S
C3 C7 1.373 . S
C3 C9 1.505 . S
C4 C3 1.379 . S
C4 C6 1.369 . S
C4 H32 0.930 . S
C5 C7 1.383 . S
C5 C8 1.382 . S
C5 H33 0.930 1_554 S
C6 C4 1.369 . S
C6 C8 1.392 . S
C6 H34 0.930 . S
C7 C3 1.373 . S
C7 C5 1.383 . S
C7 H35 0.931 1_554 S
C8 C5 1.382 . S
C8 C6 1.392 . S
C9 Eu0 2.828 . S
C9 C3 1.505 . S
C9 O21 1.249 . S
C9 O22 1.244 . S
O10 Eu1 2.373 . S
O10 C12 1.258 . S
O11 Eu0 2.392 1_455 S
O11 C12 1.242 . S
C12 O10 1.258 . S
C12 O11 1.242 . S
O13 Eu0 2.418 1_556 S
O13 C17 1.244 . S
O14 Eu1 2.488 . S
O14 C30 1.249 . S
O15 Eu1 2.471 . S
O15 C30 1.244 . S
O16 Eu1 2.349 . S
O16 C17 1.265 1_454 S
C17 O13 1.244 . S
C17 O16 1.265 1_656 S
O18 Eu0 2.373 . S
O18 C31 1.258 . S
O19 Eu1 2.392 1_655 S
O19 C31 1.242 . S
O20 Eu1 2.418 . S
O20 C2 1.244 . S
O21 Eu0 2.488 . S
O21 C9 1.249 . S
O22 Eu0 2.471 . S
O22 C9 1.244 . S
O23 Eu0 2.349 . S
O23 C2 1.265 1_655 S
C24 C25 1.379 . S
C24 C28 1.373 . S
C24 C30 1.505 . S
C25 C24 1.379 . S
C25 C27 1.369 . S
C25 H36 0.930 . S
C26 C28 1.383 . S
C26 C29 1.382 . S
C26 H37 0.930 1_565 S
C27 C25 1.369 . S
C27 C29 1.392 . S
C27 H38 0.930 . S
C28 C24 1.373 . S
C28 C26 1.383 . S
C28 H39 0.931 . S
C29 C26 1.382 . S
C29 C27 1.392 . S
C30 Eu1 2.828 . S
C30 O14 1.249 . S
C30 O15 1.244 . S
C30 C24 1.505 . S
C31 O18 1.258 . S
C31 O19 1.242 . S
H32 C4 0.930 . S
H33 C5 0.930 1_556 S
H34 C6 0.930 . S
H35 C7 0.931 1_556 S
H36 C25 0.930 . S
H37 C26 0.930 1_545 S
H38 C27 0.930 . S
H39 C28 0.931 . S
Eu40 C49 2.828 . S
Eu40 O51 2.392 1_565 S
Eu40 O53 2.418 . S
Eu40 O58 2.373 . S
Eu40 O61 2.488 . S
Eu40 O62 2.471 . S
Eu40 O63 2.349 . S
Eu41 O50 2.373 . S
Eu41 O54 2.488 . S
Eu41 O55 2.471 . S
Eu41 O56 2.349 . S
Eu41 O59 2.392 1_545 S
Eu41 O60 2.418 . S
Eu41 C70 2.828 . S
C42 O60 1.244 . S
C42 O63 1.265 1_545 S
C43 C44 1.379 . S
C43 C47 1.373 . S
C43 C49 1.505 . S
C44 C43 1.379 . S
C44 C46 1.369 . S
C44 H72 0.930 . S
C45 C47 1.383 . S
C45 C48 1.382 . S
C45 H73 0.930 . S
C46 C44 1.369 . S
C46 C48 1.392 . S
C46 H74 0.930 . S
C47 C43 1.373 . S
C47 C45 1.383 . S
C47 H75 0.931 . S
C48 C45 1.382 . S
C48 C46 1.392 . S
C49 Eu40 2.828 . S
C49 C43 1.505 . S
C49 O61 1.249 . S
C49 O62 1.244 . S
O50 Eu41 2.373 . S
O50 C52 1.258 . S
O51 Eu40 2.392 1_545 S
O51 C52 1.242 . S
C52 O50 1.258 . S
C52 O51 1.242 . S
O53 Eu40 2.418 . S
O53 C57 1.244 . S
O54 Eu41 2.488 . S
O54 C70 1.249 . S
O55 Eu41 2.471 . S
O55 C70 1.244 . S
O56 Eu41 2.349 . S
O56 C57 1.265 1_545 S
C57 O53 1.244 . S
C57 O56 1.265 1_565 S
O58 Eu40 2.373 . S
O58 C71 1.258 . S
O59 Eu41 2.392 1_565 S
O59 C71 1.242 . S
O60 Eu41 2.418 . S
O60 C42 1.244 . S
O61 Eu40 2.488 . S
O61 C49 1.249 . S
O62 Eu40 2.471 . S
O62 C49 1.244 . S
O63 Eu40 2.349 . S
O63 C42 1.265 1_565 S
C64 C65 1.379 . S
C64 C68 1.373 . S
C64 C70 1.505 . S
C65 C64 1.379 . S
C65 C67 1.369 . S
C65 H76 0.930 . S
C66 C68 1.383 . S
C66 C69 1.382 . S
C66 H77 0.930 . S
C67 C65 1.369 . S
C67 C69 1.392 . S
C67 H78 0.930 . S
C68 C64 1.373 . S
C68 C66 1.383 . S
C68 H79 0.931 . S
C69 C66 1.382 . S
C69 C67 1.392 . S
C70 Eu41 2.828 . S
C70 O54 1.249 . S
C70 O55 1.244 . S
C70 C64 1.505 . S
C71 O58 1.258 . S
C71 O59 1.242 . S
H72 C44 0.930 . S
H73 C45 0.930 . S
H74 C46 0.930 . S
H75 C47 0.931 . S
H76 C65 0.930 . S
H77 C66 0.930 . S
H78 C67 0.930 . S
H79 C68 0.931 . S
Eu80 C89 2.828 . S
Eu80 O91 2.392 . S
Eu80 O93 2.418 . S
Eu80 O98 2.373 . S
Eu80 O101 2.488 . S
Eu80 O102 2.471 . S
Eu80 O103 2.349 . S
Eu81 O90 2.373 . S
Eu81 O94 2.488 . S
Eu81 O95 2.471 . S
Eu81 O96 2.349 . S
Eu81 O99 2.392 . S
Eu81 O100 2.418 . S
Eu81 C110 2.828 . S
C82 O100 1.244 . S
C82 O103 1.265 . S
C83 C84 1.379 . S
C83 C87 1.373 . S
C83 C89 1.505 . S
C84 C83 1.379 . S
C84 C86 1.369 . S
C84 H112 0.930 . S
C85 C87 1.383 . S
C85 C88 1.382 . S
C85 H113 0.930 . S
C86 C84 1.369 . S
C86 C88 1.392 . S
C86 H114 0.930 . S
C87 C83 1.373 . S
C87 C85 1.383 . S
C87 H115 0.931 . S
C88 C85 1.382 . S
C88 C86 1.392 . S
C89 Eu80 2.828 . S
C89 C83 1.505 . S
C89 O101 1.249 . S
C89 O102 1.244 . S
O90 Eu81 2.373 . S
O90 C92 1.258 . S
O91 Eu80 2.392 . S
O91 C92 1.242 . S
C92 O90 1.258 . S
C92 O91 1.242 . S
O93 Eu80 2.418 . S
O93 C97 1.244 . S
O94 Eu81 2.488 . S
O94 C110 1.249 . S
O95 Eu81 2.471 . S
O95 C110 1.244 . S
O96 Eu81 2.349 . S
O96 C97 1.265 . S
C97 O93 1.244 . S
C97 O96 1.265 . S
O98 Eu80 2.373 . S
O98 C111 1.258 . S
O99 Eu81 2.392 . S
O99 C111 1.242 . S
O100 Eu81 2.418 . S
O100 C82 1.244 . S
O101 Eu80 2.488 . S
O101 C89 1.249 . S
O102 Eu80 2.471 . S
O102 C89 1.244 . S
O103 Eu80 2.349 . S
O103 C82 1.265 . S
C104 C105 1.379 . S
C104 C108 1.373 . S
C104 C110 1.505 . S
C105 C104 1.379 . S
C105 C107 1.369 . S
C105 H116 0.930 . S
C106 C108 1.383 . S
C106 C109 1.382 . S
C106 H117 0.930 1_655 S
C107 C105 1.369 . S
C107 C109 1.392 . S
C107 H118 0.930 . S
C108 C104 1.373 . S
C108 C106 1.383 . S
C108 H119 0.931 . S
C109 C106 1.382 . S
C109 C107 1.392 . S
C110 Eu81 2.828 . S
C110 O94 1.249 . S
C110 O95 1.244 . S
C110 C104 1.505 . S
C111 O98 1.258 . S
C111 O99 1.242 . S
H112 C84 0.930 . S
H113 C85 0.930 . S
H114 C86 0.930 . S
H115 C87 0.931 . S
H116 C105 0.930 . S
H117 C106 0.930 1_455 S
H118 C107 0.930 . S
H119 C108 0.931 . S
H120 C125 0.929 . S
H121 C130 0.931 . S
H122 C128 0.930 . S
N123 N124 1.234 . S
N123 C127 1.453 . S
N124 N123 1.234 . S
C125 H120 0.929 . S
C125 C126 1.373 . S
C125 C127 1.368 1_565 S
C126 C125 1.373 . S
C126 C130 1.397 . S
C127 N123 1.453 . S
C127 C125 1.368 1_545 S
C127 C128 1.373 . S
C128 H122 0.930 . S
C128 C127 1.373 . S
C128 C129 1.371 . S
C129 C128 1.371 . S
C129 C130 1.383 1_545 S
C130 H121 0.931 . S
C130 C126 1.397 . S
C130 C129 1.383 1_565 S
H131 C136 0.929 . S
H132 C141 0.931 . S
H133 C139 0.930 . S
N134 N135 1.234 . S
N134 C138 1.453 . S
N135 N134 1.234 . S
C136 H131 0.929 . S
C136 C137 1.373 . S
C136 C138 1.368 . S
C137 C136 1.373 . S
C137 C141 1.397 . S
C138 N134 1.453 . S
C138 C136 1.368 . S
C138 C139 1.373 . S
C139 H133 0.930 . S
C139 C138 1.373 . S
C139 C140 1.371 . S
C140 C139 1.371 . S
C140 C141 1.383 . S
C141 H132 0.931 . S
C141 C137 1.397 . S
C141 C140 1.383 . S
H142 C147 0.929 1_655 S
H143 C152 0.931 1_554 S
H144 C150 0.930 1_554 S
N145 N146 1.234 . S
N145 C149 1.453 . S
N146 N145 1.234 . S
C147 H142 0.929 1_455 S
C147 C148 1.373 1_455 S
C147 C149 1.368 . S
C148 C147 1.373 1_655 S
C148 C152 1.397 . S
C149 N145 1.453 . S
C149 C147 1.368 . S
C149 C150 1.373 . S
C150 H144 0.930 1_556 S
C150 C149 1.373 . S
C150 C151 1.371 1_556 S
C151 C150 1.371 1_554 S
C151 C152 1.383 1_454 S
C152 H143 0.931 1_556 S
C152 C148 1.397 . S
C152 C151 1.383 1_656 S
H153 C158 0.929 . S
H154 C163 0.931 . S
H155 C161 0.930 . S
N156 N157 1.234 . S
N156 C160 1.453 1_655 S
N157 N156 1.234 . S
C158 H153 0.929 . S
C158 C159 1.373 . S
C158 C160 1.368 . S
C159 C158 1.373 . S
C159 C163 1.397 . S
C160 N156 1.453 1_455 S
C160 C158 1.368 . S
C160 C161 1.373 1_455 S
C161 H155 0.930 . S
C161 C160 1.373 1_655 S
C161 C162 1.371 1_655 S
C162 C161 1.371 1_455 S
C162 C163 1.383 . S
C163 H154 0.931 . S
C163 C159 1.397 . S
C163 C162 1.383 . S
H164 C169 0.929 . S
H165 C174 0.931 . S
H166 C172 0.930 . S
N167 N168 1.234 . S
N167 C171 1.453 1_565 S
N168 N167 1.234 . S
C169 H164 0.929 . S
C169 C170 1.373 . S
C169 C171 1.368 . S
C170 C169 1.373 . S
C170 C174 1.397 . S
C171 N167 1.453 1_545 S
C171 C169 1.368 . S
C171 C172 1.373 1_545 S
C172 H166 0.930 . S
C172 C171 1.373 1_565 S
C172 C173 1.371 1_565 S
C173 C172 1.371 1_545 S
C173 C174 1.383 . S
C174 H165 0.931 . S
C174 C170 1.397 . S
C174 C173 1.383 . S
H175 C180 0.929 . S
H176 C185 0.930 . S
H177 C183 0.930 . S
N178 N179 1.234 . S
N178 C182 1.453 . S
N179 N178 1.234 . S
C180 H175 0.929 . S
C180 C181 1.373 . S
C180 C182 1.368 . S
C181 C180 1.373 . S
C181 C185 1.397 . S
C182 N178 1.453 . S
C182 C180 1.368 . S
C182 C183 1.373 . S
C183 H177 0.930 . S
C183 C182 1.373 . S
C183 C184 1.371 1_554 S
C184 C183 1.371 1_556 S
C184 C185 1.383 1_556 S
C185 H176 0.930 . S
C185 C181 1.397 . S
C185 C184 1.383 1_554 S
C12 N179 4.569 . S
C52 N157 4.606 . S
C111 N168 4.631 . S
C31 C181 4.713 . S
C159 C71 4.696 . S
C170 C92 4.644 . S
C48 N135 3.567 . S
C109 C148 3.161 . S
C29 C126 2.955 . S
C137 C69 3.296 . S
N146 C88 3.552 . S
C8 N124 3.672 . S
C151 C17 1.103 1_454 S
C57 C129 0.937 1_565 S
C97 C140 1.280 . S
C173 C42 1.942 . S
C184 C82 1.951 . S
C2 C162 1.996 . S
