# Generated by pormake.
# Topology pts, (4,4)-cn, num edge types: 1
# Building blocks:
#     Node 0, Type 0, BuildingBlock: NAWXER_clean_linker_0, # of connection points: 4
#     Node 1, Type 0, BuildingBlock: NAWXER_clean_linker_0, # of connection points: 4
#     Node 2, Type 1, BuildingBlock: QUQFOY_clean_sbu_1, # of connection points: 4
#     Node 3, Type 1, BuildingBlock: QUQFOY_clean_sbu_1, # of connection points: 4
#     Edge 4, Type (0, 1), None
#     Edge 5, Type (0, 1), None
#     Edge 6, Type (0, 1), None
#     Edge 7, Type (0, 1), None
#     Edge 8, Type (0, 1), None
#     Edge 9, Type (0, 1), None
#     Edge 10, Type (0, 1), None
#     Edge 11, Type (0, 1), None
# Relax obj value: 0.093
# Max RMSD: 0.248
# Mean RMSD: 0.143
data_MOF--net-pts--node1-QUQFOY_clean_sbu_1--node2-NAWXER_clean_linker_0--edge1-none
_symmetry_space_group_name_H-M    P1
_symmetry_Int_Tables_number       1
_symmetry_cell_setting            triclinic
loop_
_symmetry_equiv_pos_as_xyz
'x, y, z'
_cell_length_a     16.638904
_cell_length_b     17.392201
_cell_length_c     22.469806
_cell_angle_alpha  89.204808
_cell_angle_beta   89.895151
_cell_angle_gamma 89.902311
loop_
_atom_site_label
_atom_site_type_symbol
_atom_site_fract_x
_atom_site_fract_y
_atom_site_fract_z
_atom_type_partial_charge
C0 C 0.7064 0.05263 0.94642 0.0
C1 C 0.72626 0.98907 0.91127 0.0
C2 C 0.63712 0.05184 0.9815 0.0
C3 C 0.5859 0.98789 0.9816 0.0
C4 C 0.67468 0.92508 0.91132 0.0
C5 C 0.60442 0.92497 0.94566 0.0
C6 C 0.51195 0.98803 1.01795 0.0
C7 C 0.71039 0.93726 0.14755 0.0
C8 C 0.72971 0.0004 0.18317 0.0
C9 C 0.64061 0.93791 0.11322 0.0
C10 C 0.58843 0.00128 0.11437 0.0
C11 C 0.67755 0.06409 0.18395 0.0
C12 C 0.60684 0.06404 0.15037 0.0
C13 C 0.51312 0.00027 0.0799 0.0
C14 C 0.17581 0.93459 0.15333 0.0
C15 C 0.15595 -0.00184 0.18847 0.0
C16 C 0.24509 0.93539 0.11825 0.0
C17 C 0.29631 -0.00066 0.11815 0.0
C18 C 0.20753 0.06215 0.18842 0.0
C19 C 0.27779 0.06226 0.15408 0.0
C20 C 0.37026 -0.0008 0.0818 0.0
C21 C 0.17182 0.04996 0.9522 0.0
C22 C 0.1525 0.98682 0.91659 0.0
C23 C 0.2416 0.04932 0.98653 0.0
C24 C 0.29378 0.98594 0.98538 0.0
C25 C 0.20465 0.92313 0.91581 0.0
C26 C 0.27536 0.92318 0.94939 0.0
C27 C 0.36909 0.98695 1.01985 0.0
H28 H 0.74502 0.10267 0.94753 0.0
H29 H 0.62317 0.10147 1.00827 0.0
H30 H 0.6883 0.87542 0.88452 0.0
H31 H 0.56516 0.87536 0.94489 0.0
H32 H 0.7495 0.88748 0.14587 0.0
H33 H 0.62676 0.88839 0.08638 0.0
H34 H 0.69075 0.11338 0.21118 0.0
H35 H 0.56685 0.11318 0.15208 0.0
H36 H 0.13719 0.88456 0.15222 0.0
H37 H 0.25905 0.88575 0.09148 0.0
H38 H 0.1939 0.11182 0.21521 0.0
H39 H 0.31704 0.11187 0.15484 0.0
H40 H 0.13272 0.09975 0.95388 0.0
H41 H 0.25545 0.09884 1.01336 0.0
H42 H 0.19144 0.87384 0.88858 0.0
H43 H 0.31535 0.87403 0.94768 0.0
N44 N 0.43997 0.98162 0.99007 0.0
N45 N 0.44224 0.00561 0.10968 0.0
C46 C -0.01269 0.75712 0.64805 0.0
C47 C 0.93797 0.75538 0.6988 0.0
C48 C -0.01214 0.69493 0.60897 0.0
C49 C 0.9362 0.63186 0.61866 0.0
C50 C 0.88737 0.69216 0.70883 0.0
C51 C 0.88594 0.63153 0.66897 0.0
C52 C 0.93821 0.56237 0.58095 0.0
C53 C 0.89396 0.7594 0.44954 0.0
C54 C -0.05687 0.75875 0.39871 0.0
C55 C 0.89358 0.69627 0.48908 0.0
C56 C -0.05471 0.63331 0.47978 0.0
C57 C -0.00634 0.69558 0.389 0.0
C58 C -0.00471 0.634 0.42932 0.0
C59 C -0.05633 0.56302 0.51814 0.0
C60 C 0.89493 0.23011 0.4517 0.0
C61 C -0.05573 0.23184 0.40094 0.0
C62 C 0.8944 0.2923 0.49078 0.0
C63 C -0.05393 0.35537 0.48109 0.0
C64 C -0.00512 0.29506 0.39092 0.0
C65 C -0.00368 0.35569 0.43078 0.0
C66 C -0.05593 0.42485 0.5188 0.0
C67 C -0.01172 0.22782 0.65021 0.0
C68 C 0.93911 0.22847 0.70103 0.0
C69 C -0.01133 0.29095 0.61067 0.0
C70 C 0.93697 0.35392 0.61997 0.0
C71 C 0.88859 0.29165 0.71074 0.0
C72 C 0.88697 0.35323 0.67043 0.0
C73 C 0.93861 0.4242 0.58161 0.0
H74 H 0.02783 0.80486 0.64006 0.0
H75 H 0.02989 0.69554 0.57215 0.0
H76 H 0.8488 0.68954 0.74771 0.0
H77 H 0.84612 0.58352 0.67806 0.0
H78 H 0.8535 0.80709 0.4573 0.0
H79 H 0.85167 0.69614 0.52597 0.0
H80 H 0.0321 0.69379 0.35006 0.0
H81 H 0.03513 0.58611 0.4205 0.0
H82 H 0.85441 0.18238 0.4597 0.0
H83 H 0.85237 0.2917 0.5276 0.0
H84 H 0.03345 0.29768 0.35203 0.0
H85 H 0.03615 0.40369 0.42168 0.0
H86 H 0.02874 0.18012 0.64245 0.0
H87 H 0.03059 0.29108 0.57378 0.0
H88 H 0.85015 0.29345 0.74969 0.0
H89 H 0.84714 0.40112 0.67924 0.0
N90 N 0.93557 0.493 0.60958 0.0
N91 N -0.05329 0.49423 0.49017 0.0
O92 O 0.83661 0.93519 0.23228 0.0
Cd93 Cd 0.94009 0.91704 0.28019 0.0
Cd94 Cd 0.9407 0.07704 0.28298 0.0
O95 O 0.8351 0.06214 0.23584 0.0
O96 O -0.05611 0.80487 0.29805 0.0
O97 O 0.93438 0.89243 0.36829 0.0
C98 C 0.93967 0.82103 0.35371 0.0
C99 C 0.9407 0.17087 0.35621 0.0
C100 C 0.80393 -0.00072 0.21916 0.0
C101 C 0.08079 -0.00218 0.22369 0.0
O102 O 0.04928 0.06084 0.23963 0.0
O103 O 0.04664 0.93432 0.23578 0.0
O104 O -0.05489 0.18863 0.3005 0.0
O105 O 0.93503 0.09908 0.37105 0.0
O106 O 0.83557 0.0529 0.86396 0.0
Cd107 Cd -0.05787 0.07019 0.81956 0.0
Cd108 Cd -0.05849 0.91019 0.81677 0.0
O109 O 0.83292 0.92638 0.86011 0.0
O110 O 0.93833 0.18236 0.8017 0.0
O111 O -0.05216 0.09479 0.73145 0.0
C112 C -0.05744 0.16619 0.74604 0.0
C113 C -0.05848 0.81636 0.74354 0.0
C114 C 0.80141 0.98941 0.87605 0.0
C115 C 0.07828 0.98794 0.8806 0.0
O116 O 0.04711 0.92509 0.86391 0.0
O117 O 0.04559 0.05204 0.86747 0.0
O118 O 0.93711 0.7986 0.79925 0.0
O119 O -0.0528 0.88815 0.7287 0.0
loop_
_geom_bond_atom_site_label_1
_geom_bond_atom_site_label_2
_geom_bond_distance
_geom_bond_site_symmetry_2
_ccdc_geom_bond_type
C0 C1 1.384 1_545 S
C0 C2 1.384 . S
C0 H28 0.931 . S
C1 C0 1.384 1_565 S
C1 C4 1.382 . S
C2 C0 1.384 . S
C2 C3 1.381 1_545 S
C2 H29 0.930 . S
C3 C2 1.381 1_565 S
C3 C5 1.381 . S
C3 C6 1.487 . S
C4 C1 1.382 . S
C4 C5 1.387 . S
C4 H30 0.930 . S
C5 C3 1.381 . S
C5 C4 1.387 . S
C5 H31 0.931 . S
C6 C3 1.487 . S
C6 C13 1.399 1_566 S
C6 N44 1.343 . S
C7 C8 1.384 1_565 S
C7 C9 1.384 . S
C7 H32 0.931 . S
C8 C7 1.384 1_545 S
C8 C11 1.382 . S
C9 C7 1.384 . S
C9 C10 1.381 1_565 S
C9 H33 0.930 . S
C10 C9 1.381 1_545 S
C10 C12 1.381 . S
C10 C13 1.487 . S
C11 C8 1.382 . S
C11 C12 1.387 . S
C11 H34 0.930 . S
C12 C10 1.381 . S
C12 C11 1.387 . S
C12 H35 0.931 . S
C13 C6 1.399 1_544 S
C13 C10 1.487 . S
C13 N45 1.343 . S
C14 C15 1.384 1_565 S
C14 C16 1.384 . S
C14 H36 0.931 . S
C15 C14 1.384 1_545 S
C15 C18 1.382 . S
C16 C14 1.384 . S
C16 C17 1.381 1_565 S
C16 H37 0.930 . S
C17 C16 1.381 1_545 S
C17 C19 1.381 . S
C17 C20 1.487 . S
C18 C15 1.382 . S
C18 C19 1.387 . S
C18 H38 0.930 . S
C19 C17 1.381 . S
C19 C18 1.387 . S
C19 H39 0.931 . S
C20 C17 1.487 . S
C20 C27 1.399 1_544 S
C20 N45 1.343 . S
C21 C22 1.384 1_545 S
C21 C23 1.384 . S
C21 H40 0.931 . S
C22 C21 1.384 1_565 S
C22 C25 1.382 . S
C23 C21 1.384 . S
C23 C24 1.381 1_545 S
C23 H41 0.930 . S
C24 C23 1.381 1_565 S
C24 C26 1.381 . S
C24 C27 1.487 . S
C25 C22 1.382 . S
C25 C26 1.387 . S
C25 H42 0.930 . S
C26 C24 1.381 . S
C26 C25 1.387 . S
C26 H43 0.931 . S
C27 C20 1.399 1_566 S
C27 C24 1.487 . S
C27 N44 1.343 . S
H28 C0 0.931 . S
H29 C2 0.930 . S
H30 C4 0.930 . S
H31 C5 0.931 . S
H32 C7 0.931 . S
H33 C9 0.930 . S
H34 C11 0.930 . S
H35 C12 0.931 . S
H36 C14 0.931 . S
H37 C16 0.930 . S
H38 C18 0.930 . S
H39 C19 0.931 . S
H40 C21 0.931 . S
H41 C23 0.930 . S
H42 C25 0.930 . S
H43 C26 0.931 . S
N44 C6 1.343 . S
N44 C27 1.343 . S
N45 C13 1.343 . S
N45 C20 1.343 . S
C46 C47 1.384 1_455 S
C46 C48 1.384 . S
C46 H74 0.931 . S
C47 C46 1.384 1_655 S
C47 C50 1.382 . S
C48 C46 1.384 . S
C48 C49 1.381 1_455 S
C48 H75 0.930 . S
C49 C48 1.381 1_655 S
C49 C51 1.381 . S
C49 C52 1.487 . S
C50 C47 1.382 . S
C50 C51 1.387 . S
C50 H76 0.930 . S
C51 C49 1.381 . S
C51 C50 1.387 . S
C51 H77 0.931 . S
C52 C49 1.487 . S
C52 C59 1.399 1_655 S
C52 N90 1.343 . S
C53 C54 1.384 1_655 S
C53 C55 1.384 . S
C53 H78 0.931 . S
C54 C53 1.384 1_455 S
C54 C57 1.382 . S
C55 C53 1.384 . S
C55 C56 1.381 1_655 S
C55 H79 0.930 . S
C56 C55 1.381 1_455 S
C56 C58 1.381 . S
C56 C59 1.487 . S
C57 C54 1.382 . S
C57 C58 1.387 . S
C57 H80 0.930 . S
C58 C56 1.381 . S
C58 C57 1.387 . S
C58 H81 0.931 . S
C59 C52 1.399 1_455 S
C59 C56 1.487 . S
C59 N91 1.343 . S
C60 C61 1.384 1_655 S
C60 C62 1.384 . S
C60 H82 0.931 . S
C61 C60 1.384 1_455 S
C61 C64 1.382 . S
C62 C60 1.384 . S
C62 C63 1.381 1_655 S
C62 H83 0.930 . S
C63 C62 1.381 1_455 S
C63 C65 1.381 . S
C63 C66 1.487 . S
C64 C61 1.382 . S
C64 C65 1.387 . S
C64 H84 0.930 . S
C65 C63 1.381 . S
C65 C64 1.387 . S
C65 H85 0.931 . S
C66 C63 1.487 . S
C66 C73 1.399 1_455 S
C66 N91 1.343 . S
C67 C68 1.384 1_455 S
C67 C69 1.384 . S
C67 H86 0.931 . S
C68 C67 1.384 1_655 S
C68 C71 1.382 . S
C69 C67 1.384 . S
C69 C70 1.381 1_455 S
C69 H87 0.930 . S
C70 C69 1.381 1_655 S
C70 C72 1.381 . S
C70 C73 1.487 . S
C71 C68 1.382 . S
C71 C72 1.387 . S
C71 H88 0.930 . S
C72 C70 1.381 . S
C72 C71 1.387 . S
C72 H89 0.931 . S
C73 C66 1.399 1_655 S
C73 C70 1.487 . S
C73 N90 1.343 . S
H74 C46 0.931 . S
H75 C48 0.930 . S
H76 C50 0.930 . S
H77 C51 0.931 . S
H78 C53 0.931 . S
H79 C55 0.930 . S
H80 C57 0.930 . S
H81 C58 0.931 . S
H82 C60 0.931 . S
H83 C62 0.930 . S
H84 C64 0.930 . S
H85 C65 0.931 . S
H86 C67 0.931 . S
H87 C69 0.930 . S
H88 C71 0.930 . S
H89 C72 0.931 . S
N90 C52 1.343 . S
N90 C73 1.343 . S
N91 C59 1.343 . S
N91 C66 1.343 . S
O92 Cd93 2.223 1_655 S
O92 C100 1.315 . S
Cd93 O92 2.223 1_455 S
Cd93 O96 2.297 1_455 S
Cd93 O97 2.439 1_455 S
Cd93 O103 2.240 1_565 S
Cd94 O95 2.240 1_545 S
Cd94 O102 2.223 1_655 S
Cd94 O104 2.297 1_655 S
Cd94 O105 2.439 1_655 S
O95 Cd94 2.240 1_565 S
O95 C100 1.279 . S
O96 Cd93 2.297 1_655 S
O96 C98 1.247 . S
O97 Cd93 2.439 1_655 S
O97 C98 1.208 . S
C98 O96 1.247 . S
C98 O97 1.208 . S
C99 O104 1.247 . S
C99 O105 1.208 . S
C100 O92 1.315 . S
C100 O95 1.279 . S
C101 O102 1.315 . S
C101 O103 1.279 . S
O102 Cd94 2.223 1_455 S
O102 C101 1.315 . S
O103 Cd93 2.240 1_545 S
O103 C101 1.279 . S
O104 Cd94 2.297 1_455 S
O104 C99 1.247 . S
O105 Cd94 2.439 1_455 S
O105 C99 1.208 . S
O106 Cd107 2.223 1_655 S
O106 C114 1.315 . S
Cd107 O106 2.223 1_455 S
Cd107 O110 2.297 1_455 S
Cd107 O111 2.439 1_455 S
Cd107 O117 2.240 1_545 S
Cd108 O109 2.240 1_565 S
Cd108 O116 2.223 1_655 S
Cd108 O118 2.297 1_655 S
Cd108 O119 2.439 1_655 S
O109 Cd108 2.240 1_545 S
O109 C114 1.279 . S
O110 Cd107 2.297 1_655 S
O110 C112 1.247 . S
O111 Cd107 2.439 1_655 S
O111 C112 1.208 . S
C112 O110 1.247 . S
C112 O111 1.208 . S
C113 O118 1.247 . S
C113 O119 1.208 . S
C114 O106 1.315 . S
C114 O109 1.279 . S
C115 O116 1.315 . S
C115 O117 1.279 . S
O116 Cd108 2.223 1_455 S
O116 C115 1.315 . S
O117 Cd107 2.240 1_565 S
O117 C115 1.279 . S
O118 Cd108 2.297 1_455 S
O118 C113 1.247 . S
O119 Cd108 2.439 1_455 S
O119 C113 1.208 . S
C101 C15 1.835 . S
C112 C68 1.668 . S
C100 C8 1.869 1_565 S
C113 C47 1.695 1_455 S
C115 C22 1.838 . S
C99 C61 1.668 . S
C114 C1 1.872 1_545 S
C54 C98 1.694 1_455 S
