# Generated by pormake.
# Topology rtl, (3,6)-cn, num edge types: 1
# Building blocks:
#     Node 0, Type 0, BuildingBlock: MIDCAF_clean_linker_0, # of connection points: 3
#     Node 1, Type 0, BuildingBlock: MIDCAF_clean_linker_0, # of connection points: 3
#     Node 2, Type 0, BuildingBlock: MIDCAF_clean_linker_0, # of connection points: 3
#     Node 3, Type 0, BuildingBlock: MIDCAF_clean_linker_0, # of connection points: 3
#     Node 4, Type 1, BuildingBlock: FUNLAD_clean_sbu_0, # of connection points: 6
#     Node 5, Type 1, BuildingBlock: FUNLAD_clean_sbu_0, # of connection points: 6
#     Edge 6, Type (0, 1), None
#     Edge 7, Type (0, 1), None
#     Edge 8, Type (0, 1), None
#     Edge 9, Type (0, 1), None
#     Edge 10, Type (0, 1), None
#     Edge 11, Type (0, 1), None
#     Edge 12, Type (0, 1), None
#     Edge 13, Type (0, 1), None
#     Edge 14, Type (0, 1), None
#     Edge 15, Type (0, 1), None
#     Edge 16, Type (0, 1), None
#     Edge 17, Type (0, 1), None
# Relax obj value: 0.022
# Max RMSD: 0.132
# Mean RMSD: 0.105
data_MOF--net-rtl--node1-FUNLAD_clean_sbu_0--node2-MIDCAF_clean_linker_0--edge1-none
_symmetry_space_group_name_H-M    P1
_symmetry_Int_Tables_number       1
_symmetry_cell_setting            triclinic
loop_
_symmetry_equiv_pos_as_xyz
'x, y, z'
_cell_length_a     29.45999
_cell_length_b     22.127668
_cell_length_c     15.469156
_cell_angle_alpha  89.434019
_cell_angle_beta   90.597033
_cell_angle_gamma 90.081623
loop_
_atom_site_label
_atom_site_type_symbol
_atom_site_fract_x
_atom_site_fract_y
_atom_site_fract_z
_atom_type_partial_charge
C0 C 0.00997 0.883 0.23912 0.0
C1 C 0.04092 0.90109 0.3035 0.0
C2 C 0.08666 0.88415 0.29725 0.0
C3 C 0.10149 0.85096 0.22673 0.0
H4 H 0.20986 0.75283 0.13533 0.0
H5 H 0.28272 0.70027 0.13563 0.0
H6 H 0.24964 0.62246 0.88815 0.0
H7 H 0.17689 0.6758 0.88667 0.0
H8 H 0.13615 0.82948 0.78468 0.0
H9 H 0.11071 0.8866 0.65738 0.0
H10 H 0.9741 0.88806 0.75577 0.0
H11 H -0.00016 0.83259 0.88492 0.0
H12 H 0.00088 0.83961 0.11679 0.0
H13 H 0.97452 0.89565 0.24247 0.0
H14 H 0.11113 0.89731 0.34638 0.0
H15 H 0.1372 0.83986 0.22263 0.0
N16 N 0.1266 0.77408 0.08245 0.0
N17 N 0.12537 0.76854 0.93111 0.0
N18 N 0.06858 0.82204 0.00289 0.0
C19 C 0.14492 0.75335 0.0082 0.0
C20 C 0.08714 0.80277 0.92808 0.0
C21 C 0.08817 0.80788 0.08027 0.0
C22 C 0.18771 0.71859 0.01079 0.0
C23 C 0.21791 0.72417 0.08124 0.0
C24 C 0.25966 0.69441 0.08133 0.0
C25 C 0.27161 0.65758 0.01185 0.0
C26 C 0.24098 0.65047 0.94259 0.0
C27 C 0.19956 0.68119 0.94164 0.0
C28 C 0.06995 0.82688 0.84478 0.0
C29 C 0.1005 0.84084 0.77833 0.0
C30 C 0.08606 0.87384 0.70578 0.0
C31 C 0.04059 0.89194 0.69731 0.0
C32 C 0.00935 0.87444 0.76081 0.0
C33 C 0.02406 0.84288 0.83463 0.0
C34 C 0.07106 0.83547 0.16001 0.0
C35 C 0.02505 0.85113 0.16728 0.0
C36 C 0.5101 0.64735 0.27149 0.0
C37 C 0.54118 0.62963 0.20839 0.0
C38 C 0.58686 0.64685 0.21668 0.0
C39 C 0.60147 0.68021 0.28776 0.0
H40 H 0.70867 0.77799 0.37926 0.0
H41 H 0.78156 0.83042 0.37764 0.0
H42 H 0.75135 0.91153 0.62291 0.0
H43 H 0.67841 0.85824 0.62578 0.0
H44 H 0.63572 0.70617 0.73051 0.0
H45 H 0.61019 0.64943 0.85717 0.0
H46 H 0.47354 0.64783 0.75361 0.0
H47 H 0.49936 0.70291 0.62515 0.0
H48 H 0.5007 0.69089 0.39326 0.0
H49 H 0.47468 0.63447 0.2665 0.0
H50 H 0.61142 0.63399 0.16857 0.0
H51 H 0.63714 0.69172 0.29326 0.0
N52 N 0.6263 0.75802 0.43117 0.0
N53 N 0.62522 0.76566 0.58219 0.0
N54 N 0.56815 0.71134 0.50969 0.0
C55 C 0.64479 0.77967 0.50539 0.0
C56 C 0.58679 0.73166 0.58467 0.0
C57 C 0.5878 0.72434 0.43275 0.0
C58 C 0.68784 0.81389 0.50282 0.0
C59 C 0.71733 0.80728 0.43267 0.0
C60 C 0.75912 0.83697 0.4318 0.0
C61 C 0.77186 0.87474 0.50018 0.0
C62 C 0.74203 0.88275 0.56931 0.0
C63 C 0.70052 0.85207 0.57107 0.0
C64 C 0.56952 0.70861 0.66787 0.0
C65 C 0.60004 0.69496 0.73564 0.0
C66 C 0.58553 0.66219 0.80785 0.0
C67 C 0.54003 0.64402 0.8146 0.0
C68 C 0.5088 0.6615 0.74993 0.0
C69 C 0.52356 0.69283 0.67649 0.0
C70 C 0.57088 0.69565 0.353 0.0
C71 C 0.52497 0.67943 0.34392 0.0
C72 C 0.98879 0.15043 0.76836 0.0
C73 C 0.95784 0.13233 0.70398 0.0
C74 C 0.9121 0.14927 0.71023 0.0
C75 C 0.89727 0.18246 0.78075 0.0
H76 H 0.78889 0.28059 0.87215 0.0
H77 H 0.71603 0.33316 0.87185 0.0
H78 H 0.74912 0.41097 0.11934 0.0
H79 H 0.82187 0.35763 0.12081 0.0
H80 H 0.86261 0.20395 0.2228 0.0
H81 H 0.88804 0.14683 0.3501 0.0
H82 H 0.02465 0.14537 0.25171 0.0
H83 H -0.00109 0.20084 0.12256 0.0
H84 H -0.00213 0.19382 0.89069 0.0
H85 H 0.02424 0.13778 0.76501 0.0
H86 H 0.88763 0.13612 0.6611 0.0
H87 H 0.86155 0.19356 0.78485 0.0
N88 N 0.87215 0.25935 0.92503 0.0
N89 N 0.87339 0.26489 0.07637 0.0
N90 N 0.93018 0.21139 0.00459 0.0
C91 C 0.85384 0.28008 -0.00071 0.0
C92 C 0.91162 0.23066 0.0794 0.0
C93 C 0.91059 0.22555 0.92721 0.0
C94 C 0.81104 0.31484 -0.00331 0.0
C95 C 0.78085 0.30925 0.92624 0.0
C96 C 0.7391 0.33902 0.92615 0.0
C97 C 0.72715 0.37585 -0.00437 0.0
C98 C 0.75777 0.38296 0.06489 0.0
C99 C 0.7992 0.35224 0.06584 0.0
C100 C 0.9288 0.20655 0.1627 0.0
C101 C 0.89825 0.19258 0.22915 0.0
C102 C 0.9127 0.15959 0.3017 0.0
C103 C 0.95817 0.14148 0.31017 0.0
C104 C 0.9894 0.15899 0.24667 0.0
C105 C 0.9747 0.19055 0.17285 0.0
C106 C 0.9277 0.19796 0.84747 0.0
C107 C 0.97371 0.18229 0.8402 0.0
C108 C 0.48866 0.38607 0.736 0.0
C109 C 0.45758 0.4038 0.7991 0.0
C110 C 0.4119 0.38658 0.79081 0.0
C111 C 0.39728 0.35321 0.71973 0.0
H112 H 0.29009 0.25544 0.62823 0.0
H113 H 0.2172 0.20301 0.62985 0.0
H114 H 0.24741 0.12189 0.38458 0.0
H115 H 0.32035 0.17519 0.38171 0.0
H116 H 0.36303 0.32725 0.27698 0.0
H117 H 0.38857 0.384 0.15032 0.0
H118 H 0.52522 0.3856 0.25389 0.0
H119 H 0.4994 0.33052 0.38234 0.0
H120 H 0.49806 0.34254 0.61423 0.0
H121 H 0.52408 0.39896 0.74099 0.0
H122 H 0.38734 0.39943 0.83892 0.0
H123 H 0.36162 0.3417 0.71423 0.0
N124 N 0.37246 0.27541 0.57632 0.0
N125 N 0.37353 0.26776 0.4253 0.0
N126 N 0.4306 0.32209 0.4978 0.0
C127 C 0.35397 0.25376 0.5021 0.0
C128 C 0.41197 0.30177 0.42282 0.0
C129 C 0.41096 0.30909 0.57474 0.0
C130 C 0.31092 0.21953 0.50467 0.0
C131 C 0.28143 0.22615 0.57482 0.0
C132 C 0.23964 0.19645 0.57569 0.0
C133 C 0.2269 0.15869 0.50731 0.0
C134 C 0.25673 0.15068 0.43818 0.0
C135 C 0.29824 0.18135 0.43642 0.0
C136 C 0.42924 0.32481 0.33962 0.0
C137 C 0.39872 0.33847 0.27185 0.0
C138 C 0.41322 0.37124 0.19964 0.0
C139 C 0.45872 0.3894 0.19289 0.0
C140 C 0.48996 0.37193 0.25756 0.0
C141 C 0.4752 0.34059 0.33101 0.0
C142 C 0.42787 0.33777 0.65449 0.0
C143 C 0.47379 0.354 0.66357 0.0
C144 C 0.02637 0.9404 0.37428 0.0
N145 N 0.09703 0.07503 0.507 0.0
C146 C 0.13467 0.04026 0.49688 0.0
C147 C 0.17771 0.06678 0.49587 0.0
C148 C 0.18189 0.12933 0.5071 0.0
C149 C 0.14265 0.16403 0.5182 0.0
C150 C 0.1003 0.1359 0.51713 0.0
Zn151 Zn 0.03411 0.03653 0.50528 0.0
C152 C 0.97196 0.09999 0.38059 0.0
N153 N 0.90173 0.95839 0.50048 0.0
C154 C 0.89846 0.89753 0.49035 0.0
C155 C 0.86409 0.99316 0.5106 0.0
C156 C 0.82105 0.96665 0.51161 0.0
C157 C 0.81686 0.90409 0.50039 0.0
C158 C 0.8561 0.86939 0.48928 0.0
Zn159 Zn 0.96465 0.9969 0.50221 0.0
O160 O 0.05429 0.97768 0.40695 0.0
C161 C 0.0268 0.93344 0.62689 0.0
O162 O 0.98582 0.93863 0.40137 0.0
H163 H 0.86742 0.04151 0.5181 0.0
H164 H 0.13134 0.99192 0.48938 0.0
H165 H 0.92879 0.87062 0.48347 0.0
O166 O 0.05488 0.9723 0.59859 0.0
O167 O 0.98626 0.93323 0.59792 0.0
H168 H 0.06997 0.16281 0.52401 0.0
O169 O 0.94447 0.05575 0.60053 0.0
O170 O 0.01294 0.09479 0.60611 0.0
O171 O 0.94388 0.06113 0.40889 0.0
O172 O 0.0125 0.1002 0.40956 0.0
C173 C 0.97239 0.09303 0.63321 0.0
H174 H 0.20742 0.0387 0.48762 0.0
H175 H 0.14471 0.21255 0.52625 0.0
H176 H 0.79134 0.99472 0.51986 0.0
H177 H 0.85405 0.82088 0.48124 0.0
C178 C 0.47203 0.44247 0.87119 0.0
N179 N 0.59714 0.45874 0.00083 0.0
C180 C 0.60034 0.39815 -0.01203 0.0
C181 C 0.64271 0.37032 0.98506 0.0
C182 C 0.68209 0.40497 -0.00285 0.0
C183 C 0.67798 0.46721 0.01138 0.0
C184 C 0.6349 0.49347 0.01214 0.0
Zn185 Zn 0.53416 0.49705 0.00296 0.0
C186 C 0.52634 0.60196 0.88392 0.0
N187 N 0.40161 0.57469 0.00666 0.0
C188 C 0.36386 0.53996 -0.00465 0.0
C189 C 0.39842 0.63528 0.01952 0.0
C190 C 0.35604 0.66311 0.02243 0.0
C191 C 0.31666 0.62845 0.01034 0.0
C192 C 0.32077 0.56622 -0.00389 0.0
Zn193 Zn 0.4646 0.53638 0.00453 0.0
O194 O 0.51256 0.4405 0.89987 0.0
C195 C 0.47242 0.43147 0.12357 0.0
O196 O 0.44404 0.4791 0.90383 0.0
H197 H 0.42881 0.66219 0.02739 0.0
H198 H 0.56995 0.37123 0.9801 0.0
H199 H 0.36713 0.49183 0.98575 0.0
O200 O 0.51295 0.4318 0.09612 0.0
O201 O 0.4443 0.47058 0.09526 0.0
H202 H 0.63163 0.5416 0.02174 0.0
O203 O 0.48619 0.59293 0.10762 0.0
O204 O 0.55472 0.55433 0.10366 0.0
O205 O 0.48581 0.60163 0.91137 0.0
O206 O 0.55445 0.56285 0.91223 0.0
C207 C 0.52673 0.59095 0.1363 0.0
H208 H 0.64469 0.32203 0.97485 0.0
H209 H 0.70777 0.49527 0.02059 0.0
H210 H 0.35407 0.7114 0.03264 0.0
H211 H 0.29098 0.53816 -0.0131 0.0
loop_
_geom_bond_atom_site_label_1
_geom_bond_atom_site_label_2
_geom_bond_distance
_geom_bond_site_symmetry_2
_ccdc_geom_bond_type
C0 C1 1.384 . S
C0 H13 0.947 1_455 S
C0 C35 1.382 . S
C1 C0 1.384 . S
C1 C2 1.378 . S
C2 C1 1.378 . S
C2 C3 1.378 . S
C2 H14 0.952 . S
C3 C2 1.378 . S
C3 H15 0.950 . S
C3 C34 1.383 . S
H4 C23 0.947 . S
H5 C24 0.946 . S
H6 C26 0.953 . S
H7 C27 0.945 . S
H8 C29 0.952 . S
H9 C30 0.949 . S
H10 C32 0.950 1_655 S
H11 C33 0.948 . S
H12 C35 0.951 . S
H13 C0 0.947 1_655 S
H14 C2 0.952 . S
H15 C3 0.950 . S
N16 C19 1.382 . S
N16 C21 1.363 . S
N17 C19 1.371 1_556 S
N17 C20 1.372 . S
N18 C20 1.361 1_554 S
N18 C21 1.377 . S
C19 N16 1.382 . S
C19 N17 1.371 1_554 S
C19 C22 1.480 . S
C20 N17 1.372 . S
C20 N18 1.361 1_556 S
C20 C28 1.457 . S
C21 N16 1.363 . S
C21 N18 1.377 . S
C21 C34 1.479 . S
C22 C19 1.480 . S
C22 C23 1.383 . S
C22 C27 1.385 1_554 S
C23 H4 0.947 . S
C23 C22 1.383 . S
C23 C24 1.388 . S
C24 H5 0.946 . S
C24 C23 1.388 . S
C24 C25 1.384 . S
C25 C24 1.384 . S
C25 C26 1.377 1_554 S
C26 H6 0.953 . S
C26 C25 1.377 1_556 S
C26 C27 1.369 . S
C27 H7 0.945 . S
C27 C22 1.385 1_556 S
C27 C26 1.369 . S
C28 C20 1.457 . S
C28 C29 1.372 . S
C28 C33 1.364 . S
C29 H8 0.952 . S
C29 C28 1.372 . S
C29 C30 1.389 . S
C30 H9 0.949 . S
C30 C29 1.389 . S
C30 C31 1.387 . S
C31 C30 1.387 . S
C31 C32 1.372 . S
C32 H10 0.950 1_455 S
C32 C31 1.372 . S
C32 C33 1.379 . S
C33 H11 0.948 . S
C33 C28 1.364 . S
C33 C32 1.379 . S
C34 C3 1.383 . S
C34 C21 1.479 . S
C34 C35 1.398 . S
C35 C0 1.382 . S
C35 H12 0.951 . S
C35 C34 1.398 . S
C36 C37 1.384 . S
C36 H49 0.947 . S
C36 C71 1.382 . S
C37 C36 1.384 . S
C37 C38 1.378 . S
C38 C37 1.378 . S
C38 C39 1.378 . S
C38 H50 0.952 . S
C39 C38 1.378 . S
C39 H51 0.950 . S
C39 C70 1.383 . S
H40 C59 0.947 . S
H41 C60 0.946 . S
H42 C62 0.953 . S
H43 C63 0.945 . S
H44 C65 0.952 . S
H45 C66 0.949 . S
H46 C68 0.950 . S
H47 C69 0.948 . S
H48 C71 0.951 . S
H49 C36 0.947 . S
H50 C38 0.952 . S
H51 C39 0.950 . S
N52 C55 1.382 . S
N52 C57 1.363 . S
N53 C55 1.371 . S
N53 C56 1.372 . S
N54 C56 1.361 . S
N54 C57 1.377 . S
C55 N52 1.382 . S
C55 N53 1.371 . S
C55 C58 1.480 . S
C56 N53 1.372 . S
C56 N54 1.361 . S
C56 C64 1.457 . S
C57 N52 1.363 . S
C57 N54 1.377 . S
C57 C70 1.479 . S
C58 C55 1.480 . S
C58 C59 1.383 . S
C58 C63 1.385 . S
C59 H40 0.947 . S
C59 C58 1.383 . S
C59 C60 1.388 . S
C60 H41 0.946 . S
C60 C59 1.388 . S
C60 C61 1.384 . S
C61 C60 1.384 . S
C61 C62 1.377 . S
C62 H42 0.953 . S
C62 C61 1.377 . S
C62 C63 1.369 . S
C63 H43 0.945 . S
C63 C58 1.385 . S
C63 C62 1.369 . S
C64 C56 1.457 . S
C64 C65 1.372 . S
C64 C69 1.364 . S
C65 H44 0.952 . S
C65 C64 1.372 . S
C65 C66 1.389 . S
C66 H45 0.949 . S
C66 C65 1.389 . S
C66 C67 1.387 . S
C67 C66 1.387 . S
C67 C68 1.372 . S
C68 H46 0.950 . S
C68 C67 1.372 . S
C68 C69 1.379 . S
C69 H47 0.948 . S
C69 C64 1.364 . S
C69 C68 1.379 . S
C70 C39 1.383 . S
C70 C57 1.479 . S
C70 C71 1.398 . S
C71 C36 1.382 . S
C71 H48 0.951 . S
C71 C70 1.398 . S
C72 C73 1.384 . S
C72 H85 0.947 1_655 S
C72 C107 1.382 . S
C73 C72 1.384 . S
C73 C74 1.378 . S
C74 C73 1.378 . S
C74 C75 1.378 . S
C74 H86 0.952 . S
C75 C74 1.378 . S
C75 H87 0.950 . S
C75 C106 1.383 . S
H76 C95 0.947 . S
H77 C96 0.946 . S
H78 C98 0.953 . S
H79 C99 0.945 . S
H80 C101 0.952 . S
H81 C102 0.949 . S
H82 C104 0.950 . S
H83 C105 0.948 1_455 S
H84 C107 0.951 . S
H85 C72 0.947 1_455 S
H86 C74 0.952 . S
H87 C75 0.950 . S
N88 C91 1.382 1_556 S
N88 C93 1.363 . S
N89 C91 1.371 . S
N89 C92 1.372 . S
N90 C92 1.361 . S
N90 C93 1.377 1_554 S
C91 N88 1.382 1_554 S
C91 N89 1.371 . S
C91 C94 1.480 . S
C92 N89 1.372 . S
C92 N90 1.361 . S
C92 C100 1.457 . S
C93 N88 1.363 . S
C93 N90 1.377 1_556 S
C93 C106 1.479 . S
C94 C91 1.480 . S
C94 C95 1.383 1_554 S
C94 C99 1.385 . S
C95 H76 0.947 . S
C95 C94 1.383 1_556 S
C95 C96 1.388 . S
C96 H77 0.946 . S
C96 C95 1.388 . S
C96 C97 1.384 1_556 S
C97 C96 1.384 1_554 S
C97 C98 1.377 . S
C98 H78 0.953 . S
C98 C97 1.377 . S
C98 C99 1.369 . S
C99 H79 0.945 . S
C99 C94 1.385 . S
C99 C98 1.369 . S
C100 C92 1.457 . S
C100 C101 1.372 . S
C100 C105 1.364 . S
C101 H80 0.952 . S
C101 C100 1.372 . S
C101 C102 1.389 . S
C102 H81 0.949 . S
C102 C101 1.389 . S
C102 C103 1.387 . S
C103 C102 1.387 . S
C103 C104 1.372 1_655 S
C104 H82 0.950 . S
C104 C103 1.372 1_455 S
C104 C105 1.379 1_455 S
C105 H83 0.948 1_655 S
C105 C100 1.364 . S
C105 C104 1.379 1_655 S
C106 C75 1.383 . S
C106 C93 1.479 . S
C106 C107 1.398 . S
C107 C72 1.382 . S
C107 H84 0.951 . S
C107 C106 1.398 . S
C108 C109 1.384 . S
C108 H121 0.947 . S
C108 C143 1.382 . S
C109 C108 1.384 . S
C109 C110 1.378 . S
C110 C109 1.378 . S
C110 C111 1.378 . S
C110 H122 0.952 . S
C111 C110 1.378 . S
C111 H123 0.950 . S
C111 C142 1.383 . S
H112 C131 0.947 . S
H113 C132 0.946 . S
H114 C134 0.953 . S
H115 C135 0.945 . S
H116 C137 0.952 . S
H117 C138 0.949 . S
H118 C140 0.950 . S
H119 C141 0.948 . S
H120 C143 0.951 . S
H121 C108 0.947 . S
H122 C110 0.952 . S
H123 C111 0.950 . S
N124 C127 1.382 . S
N124 C129 1.363 . S
N125 C127 1.371 . S
N125 C128 1.372 . S
N126 C128 1.361 . S
N126 C129 1.377 . S
C127 N124 1.382 . S
C127 N125 1.371 . S
C127 C130 1.480 . S
C128 N125 1.372 . S
C128 N126 1.361 . S
C128 C136 1.457 . S
C129 N124 1.363 . S
C129 N126 1.377 . S
C129 C142 1.479 . S
C130 C127 1.480 . S
C130 C131 1.383 . S
C130 C135 1.385 . S
C131 H112 0.947 . S
C131 C130 1.383 . S
C131 C132 1.388 . S
C132 H113 0.946 . S
C132 C131 1.388 . S
C132 C133 1.384 . S
C133 C132 1.384 . S
C133 C134 1.377 . S
C134 H114 0.953 . S
C134 C133 1.377 . S
C134 C135 1.369 . S
C135 H115 0.945 . S
C135 C130 1.385 . S
C135 C134 1.369 . S
C136 C128 1.457 . S
C136 C137 1.372 . S
C136 C141 1.364 . S
C137 H116 0.952 . S
C137 C136 1.372 . S
C137 C138 1.389 . S
C138 H117 0.949 . S
C138 C137 1.389 . S
C138 C139 1.387 . S
C139 C138 1.387 . S
C139 C140 1.372 . S
C140 H118 0.950 . S
C140 C139 1.372 . S
C140 C141 1.379 . S
C141 H119 0.948 . S
C141 C136 1.364 . S
C141 C140 1.379 . S
C142 C111 1.383 . S
C142 C129 1.479 . S
C142 C143 1.398 . S
C143 C108 1.382 . S
C143 H120 0.951 . S
C143 C142 1.398 . S
C144 O160 1.251 . S
C144 O162 1.254 1_455 S
N145 C146 1.333 . S
N145 C150 1.307 . S
N145 Zn151 2.020 . S
C146 N145 1.333 . S
C146 C147 1.379 . S
C146 H164 0.952 . S
C147 C146 1.379 . S
C147 C148 1.390 . S
C147 H174 0.949 . S
C148 C147 1.390 . S
C148 C149 1.357 . S
C149 C148 1.357 . S
C149 C150 1.370 . S
C149 H175 0.950 . S
C150 N145 1.307 . S
C150 C149 1.370 . S
C150 H168 0.948 . S
Zn151 N145 2.020 . S
Zn151 O160 2.039 1_545 S
Zn151 O166 2.034 1_545 S
Zn151 O170 2.025 . S
Zn151 O172 2.024 . S
C152 O171 1.246 . S
C152 O172 1.249 1_655 S
N153 C154 1.307 . S
N153 C155 1.333 . S
N153 Zn159 2.020 . S
C154 N153 1.307 . S
C154 C158 1.370 . S
C154 H165 0.948 . S
C155 N153 1.333 . S
C155 C156 1.379 . S
C155 H163 0.952 . S
C156 C155 1.379 . S
C156 C157 1.390 . S
C156 H176 0.949 . S
C157 C156 1.390 . S
C157 C158 1.357 . S
C158 C154 1.370 . S
C158 C157 1.357 . S
C158 H177 0.950 . S
Zn159 N153 2.020 . S
Zn159 O162 2.025 . S
Zn159 O167 2.024 . S
Zn159 O169 2.039 1_565 S
Zn159 O171 2.034 1_565 S
O160 C144 1.251 . S
O160 Zn151 2.039 1_565 S
C161 O166 1.246 . S
C161 O167 1.249 1_455 S
O162 C144 1.254 1_655 S
O162 Zn159 2.025 . S
H163 C155 0.952 . S
H164 C146 0.952 . S
H165 C154 0.948 . S
O166 Zn151 2.034 1_565 S
O166 C161 1.246 . S
O167 Zn159 2.024 . S
O167 C161 1.249 1_655 S
H168 C150 0.948 . S
O169 Zn159 2.039 1_545 S
O169 C173 1.251 . S
O170 Zn151 2.025 . S
O170 C173 1.254 1_455 S
O171 C152 1.246 . S
O171 Zn159 2.034 1_545 S
O172 Zn151 2.024 . S
O172 C152 1.249 1_455 S
C173 O169 1.251 . S
C173 O170 1.254 1_655 S
H174 C147 0.949 . S
H175 C149 0.950 . S
H176 C156 0.949 . S
H177 C158 0.950 . S
C178 O194 1.251 . S
C178 O196 1.254 . S
N179 C180 1.333 1_554 S
N179 C184 1.307 . S
N179 Zn185 2.020 . S
C180 N179 1.333 1_556 S
C180 C181 1.379 . S
C180 H198 0.952 . S
C181 C180 1.379 . S
C181 C182 1.390 1_556 S
C181 H208 0.949 . S
C182 C181 1.390 1_554 S
C182 C183 1.357 . S
C183 C182 1.357 . S
C183 C184 1.370 . S
C183 H209 0.950 . S
C184 N179 1.307 . S
C184 C183 1.370 . S
C184 H202 0.948 . S
Zn185 N179 2.020 . S
Zn185 O194 2.039 1_554 S
Zn185 O200 2.034 . S
Zn185 O204 2.025 . S
Zn185 O206 2.024 1_554 S
C186 O205 1.246 . S
C186 O206 1.249 . S
N187 C188 1.307 1_554 S
N187 C189 1.333 . S
N187 Zn193 2.020 . S
C188 N187 1.307 1_556 S
C188 C192 1.370 . S
C188 H199 0.948 . S
C189 N187 1.333 . S
C189 C190 1.379 . S
C189 H197 0.952 . S
C190 C189 1.379 . S
C190 C191 1.390 . S
C190 H210 0.949 . S
C191 C190 1.390 . S
C191 C192 1.357 1_554 S
C192 C188 1.370 . S
C192 C191 1.357 1_556 S
C192 H211 0.950 . S
Zn193 N187 2.020 . S
Zn193 O196 2.025 1_554 S
Zn193 O201 2.024 . S
Zn193 O203 2.039 . S
Zn193 O205 2.034 1_554 S
O194 C178 1.251 . S
O194 Zn185 2.039 1_556 S
C195 O200 1.246 . S
C195 O201 1.249 . S
O196 C178 1.254 . S
O196 Zn193 2.025 1_556 S
H197 C189 0.952 . S
H198 C180 0.952 . S
H199 C188 0.948 . S
O200 Zn185 2.034 . S
O200 C195 1.246 . S
O201 Zn193 2.024 . S
O201 C195 1.249 . S
H202 C184 0.948 . S
O203 Zn193 2.039 . S
O203 C207 1.251 . S
O204 Zn185 2.025 . S
O204 C207 1.254 . S
O205 C186 1.246 . S
O205 Zn193 2.034 1_556 S
O206 Zn185 2.024 1_556 S
O206 C186 1.249 . S
C207 O203 1.251 . S
C207 O204 1.254 . S
H208 C181 0.949 . S
H209 C183 0.950 . S
H210 C190 0.949 . S
H211 C192 0.950 . S
C148 C133 2.093 . S
C25 C191 1.731 . S
C61 C157 1.936 . S
C97 C182 1.867 . S
C144 C1 2.064 . S
C186 C67 2.268 . S
C103 C152 2.114 . S
C109 C178 2.416 . S
C207 C37 2.285 . S
C173 C73 2.182 . S
C195 C139 2.437 . S
C31 C161 1.962 . S
