# Generated by pormake.
# Topology pyr, (3,6)-cn, num edge types: 1
# Building blocks:
#     Node 0, Type 0, BuildingBlock: PAMTOO_clean_linker_0, # of connection points: 3
#     Node 1, Type 0, BuildingBlock: PAMTOO_clean_linker_0, # of connection points: 3
#     Node 2, Type 0, BuildingBlock: PAMTOO_clean_linker_0, # of connection points: 3
#     Node 3, Type 0, BuildingBlock: PAMTOO_clean_linker_0, # of connection points: 3
#     Node 4, Type 0, BuildingBlock: PAMTOO_clean_linker_0, # of connection points: 3
#     Node 5, Type 0, BuildingBlock: PAMTOO_clean_linker_0, # of connection points: 3
#     Node 6, Type 0, BuildingBlock: PAMTOO_clean_linker_0, # of connection points: 3
#     Node 7, Type 0, BuildingBlock: PAMTOO_clean_linker_0, # of connection points: 3
#     Node 8, Type 1, BuildingBlock: BETDEL_clean_sbu_0, # of connection points: 6
#     Node 9, Type 1, BuildingBlock: BETDEL_clean_sbu_0, # of connection points: 6
#     Node 10, Type 1, BuildingBlock: BETDEL_clean_sbu_0, # of connection points: 6
#     Node 11, Type 1, BuildingBlock: BETDEL_clean_sbu_0, # of connection points: 6
#     Edge 12, Type (0, 1), None
#     Edge 13, Type (0, 1), None
#     Edge 14, Type (0, 1), None
#     Edge 15, Type (0, 1), None
#     Edge 16, Type (0, 1), None
#     Edge 17, Type (0, 1), None
#     Edge 18, Type (0, 1), None
#     Edge 19, Type (0, 1), None
#     Edge 20, Type (0, 1), None
#     Edge 21, Type (0, 1), None
#     Edge 22, Type (0, 1), None
#     Edge 23, Type (0, 1), None
#     Edge 24, Type (0, 1), None
#     Edge 25, Type (0, 1), None
#     Edge 26, Type (0, 1), None
#     Edge 27, Type (0, 1), None
#     Edge 28, Type (0, 1), None
#     Edge 29, Type (0, 1), None
#     Edge 30, Type (0, 1), None
#     Edge 31, Type (0, 1), None
#     Edge 32, Type (0, 1), None
#     Edge 33, Type (0, 1), None
#     Edge 34, Type (0, 1), None
#     Edge 35, Type (0, 1), None
# Relax obj value: 0.150
# Max RMSD: 0.221
# Mean RMSD: 0.141
data_MOF--net-pyr--node1-BETDEL_clean_sbu_0--node2-PAMTOO_clean_linker_0--edge1-none
_symmetry_space_group_name_H-M    P1
_symmetry_Int_Tables_number       1
_symmetry_cell_setting            triclinic
loop_
_symmetry_equiv_pos_as_xyz
'x, y, z'
_cell_length_a     15.287518
_cell_length_b     17.091045
_cell_length_c     16.015373
_cell_angle_alpha  93.341152
_cell_angle_beta   91.017527
_cell_angle_gamma 104.89624
loop_
_atom_site_label
_atom_site_type_symbol
_atom_site_fract_x
_atom_site_fract_y
_atom_site_fract_z
_atom_type_partial_charge
H0 H 0.129 0.28985 0.30096 0.0
H1 H 0.36044 0.19512 0.33355 0.0
H2 H 0.33392 0.3226 0.11603 0.0
H3 H 0.31843 0.13023 0.11864 0.0
C4 C 0.38023 0.13875 0.15977 0.0
O5 O 0.41368 0.22003 0.1845 0.0
H6 H 0.36152 0.10221 0.21505 0.0
C7 C 0.19448 0.28415 0.28052 0.0
C8 C 0.23019 0.31873 0.20761 0.0
C9 C 0.24005 0.23749 0.32395 0.0
C10 C 0.32547 0.23213 0.30007 0.0
C11 C 0.35636 0.25775 0.22248 0.0
C12 C 0.3104 0.30354 0.17687 0.0
H13 H 0.25568 0.0307 0.75823 0.0
H14 H 0.24027 0.87374 0.53448 0.0
H15 H 0.35261 0.81458 0.75893 0.0
H16 H 0.46584 0.86612 0.62504 0.0
C17 C 0.42959 0.81092 0.58572 0.0
O18 O 0.33817 0.7864 0.60166 0.0
H19 H 0.43647 0.82538 0.51905 0.0
C20 C 0.26194 0.9742 0.72767 0.0
C21 C 0.30794 0.92489 0.76846 0.0
C22 C 0.23295 0.95381 0.6436 0.0
C23 C 0.25424 0.8866 0.60116 0.0
C24 C 0.29799 0.83767 0.64355 0.0
C25 C 0.31645 0.85259 0.72847 0.0
H26 H 0.78875 0.24692 0.01296 0.0
H27 H 0.59135 0.26354 0.82119 0.0
H28 H 0.82933 0.45711 0.86597 0.0
H29 H 0.71095 0.52739 0.81766 0.0
C30 C 0.65735 0.48078 0.78166 0.0
O31 O 0.68291 0.40763 0.77325 0.0
H32 H 0.59354 0.47099 0.81636 0.0
C33 C 0.76578 0.27926 0.9644 0.0
C34 C 0.81787 0.35735 0.9467 0.0
C35 C 0.68333 0.24378 0.91906 0.0
C36 C 0.65393 0.28931 0.857 0.0
C37 C 0.70609 0.36696 0.83838 0.0
C38 C 0.78821 0.39865 0.88233 0.0
H39 H 0.84853 0.81295 0.51981 0.0
H40 H 0.82509 0.58469 0.38216 0.0
H41 H 0.05308 0.79069 0.34696 0.0
H42 H 0.98384 0.68201 0.1856 0.0
C43 C 0.96181 0.6226 0.21405 0.0
O44 O 0.97902 0.63413 0.30066 0.0
H45 H 0.8877 0.59775 0.20232 0.0
C46 C 0.87467 0.77598 0.47433 0.0
C47 C 0.95596 0.81191 0.43692 0.0
C48 C 0.8267 0.6949 0.45737 0.0
C49 C 0.86067 0.64765 0.39644 0.0
C50 C 0.94194 0.68217 0.35424 0.0
C51 C 0.98927 0.76485 0.37543 0.0
H52 H 0.74876 0.97549 0.80804 0.0
H53 H 0.72664 0.81042 1.00399 0.0
H54 H 0.93523 0.82635 0.82597 0.0
H55 H 0.84693 0.67849 0.84297 0.0
C56 C 0.84702 0.67601 0.91234 0.0
O57 O 0.86109 0.75179 0.95189 0.0
H58 H 0.78137 0.63709 0.93152 0.0
C59 C 0.77037 0.92732 0.83684 0.0
C60 C 0.84551 0.9033 0.80786 0.0
C61 C 0.72887 0.89541 0.90843 0.0
C62 C 0.75816 0.83511 0.94781 0.0
C63 C 0.83167 0.80973 0.91636 0.0
C64 C 0.87649 0.84504 0.84784 0.0
H65 H 0.85412 1.02906 0.3376 0.0
H66 H 0.79798 0.25277 0.27006 0.0
H67 H 0.86022 0.22365 0.52337 0.0
H68 H 0.6667 0.23589 0.46925 0.0
C69 C 0.69086 0.27882 0.4199 0.0
O70 O 0.78416 0.30033 0.41987 0.0
H71 H 0.66018 0.25002 0.35847 0.0
C72 C 0.85163 0.09094 0.35347 0.0
C73 C 0.87346 0.12566 0.43641 0.0
C74 C 0.82086 0.13623 0.29315 0.0
C75 C 0.82146 0.21652 0.31456 0.0
C76 C 0.82663 0.24345 0.39786 0.0
C77 C 0.85513 0.20005 0.45865 0.0
H78 H 0.3411 0.79482 0.03801 0.0
H79 H 0.32932 0.59624 0.19909 0.0
H80 H 0.53606 0.81218 0.24374 0.0
H81 H 0.58531 0.64713 0.26044 0.0
C82 C 0.52052 0.61692 0.28889 0.0
O83 O 0.46494 0.66942 0.29375 0.0
H84 H 0.48754 0.56132 0.24898 0.0
C85 C 0.3677 0.76867 0.0896 0.0
C86 C 0.44531 0.81558 0.13805 0.0
C87 C 0.32492 0.68731 0.11002 0.0
C88 C 0.36067 0.65616 0.17901 0.0
C89 C 0.43602 0.70078 0.22565 0.0
C90 C 0.47776 0.77924 0.20521 0.0
H91 H 0.0399 0.29033 0.80316 0.0
H92 H 0.2326 0.52166 0.77432 0.0
H93 H 0.23876 0.31947 0.60955 0.0
H94 H 0.40938 0.44086 0.7155 0.0
C95 C 0.39952 0.48169 0.66638 0.0
O96 O 0.30901 0.47023 0.64533 0.0
H97 H 0.42682 0.54515 0.69235 0.0
C98 C 0.09775 0.32687 0.77297 0.0
C99 C 0.13485 0.29235 0.70186 0.0
C100 C 0.13333 0.41119 0.8007 0.0
C101 C 0.20529 0.45767 0.75665 0.0
C102 C 0.24209 0.42381 0.68872 0.0
C103 C 0.20787 0.34265 0.66271 0.0
Dy104 Dy 0.10602 0.08149 0.49551 0.0
C105 C 0.8966 0.94437 0.74111 0.0
C106 C 0.19285 0.18336 0.38442 0.0
Dy107 Dy 0.99681 1.02787 0.62387 0.0
O108 O 0.22336 0.12689 0.41545 0.0
O109 O 0.1119 0.18027 0.40891 0.0
O110 O 0.19753 1.00421 0.51373 0.0
O111 O 0.14507 0.05374 0.6215 0.0
C112 C 0.1913 1.00566 0.59427 0.0
C113 C 0.91005 0.08553 0.50275 0.0
O114 O 0.05824 0.14453 0.70006 0.0
O115 O 0.11733 0.1966 0.57967 0.0
O116 O 0.87705 1.00321 0.7044 0.0
O117 O 0.97153 0.93156 0.71498 0.0
O118 O 0.90705 0.10423 0.58177 0.0
O119 O 0.96067 0.03913 0.49143 0.0
O120 O 0.0393 0.95803 0.42879 0.0
O121 O 0.99177 0.90874 0.55455 0.0
C122 C 0.09968 0.20771 0.65989 0.0
C123 C 1.00368 0.89537 0.47383 0.0
Dy124 Dy 0.62359 0.04222 0.10447 0.0
C125 C 0.36816 0.95493 0.84126 0.0
C126 C 0.76612 0.10024 0.21705 0.0
Dy127 Dy 0.5045 1.01736 0.95405 0.0
O128 O 0.72435 1.02441 0.20307 0.0
O129 O 0.72886 0.14285 0.16984 0.0
O130 O 0.5587 0.94101 0.18101 0.0
O131 O 0.5 0.94417 0.06241 0.0
C132 C 0.49778 0.90191 0.12582 0.0
C133 C 0.62652 0.15926 0.9319 0.0
O134 O 0.41924 0.06164 0.04511 0.0
O135 O 0.5284 0.11331 0.14973 0.0
O136 O 0.37948 1.02484 0.88183 0.0
O137 O 0.43175 0.92125 0.86175 0.0
O138 O 0.56256 0.12246 0.87872 0.0
O139 O 0.62559 0.11651 0.9952 0.0
O140 O 0.70013 0.97976 0.02023 0.0
O141 O 0.59378 0.94035 0.91136 0.0
C142 C 0.44779 0.10622 0.11458 0.0
C143 C 0.66927 0.93737 0.95006 0.0
Dy144 Dy 0.6002 0.47488 0.50086 0.0
C145 C 0.47386 0.74438 0.5996 0.0
C146 C 0.66014 0.35183 0.43866 0.0
Dy147 Dy 0.57676 0.63735 0.57536 0.0
O148 O 0.5768 0.35582 0.42859 0.0
O149 O 0.71087 0.41611 0.4787 0.0
O150 O 0.49112 0.40815 0.58409 0.0
O151 O 0.48835 0.52004 0.5433 0.0
C152 C 0.45132 0.46646 0.59107 0.0
C153 C 0.74093 0.66844 0.50509 0.0
O154 O 0.6037 0.57572 0.69335 0.0
O155 O 0.66361 0.47681 0.62854 0.0
O156 O 0.55559 0.75496 0.63141 0.0
O157 O 0.44741 0.67392 0.55991 0.0
O158 O 0.70941 0.72085 0.54925 0.0
O159 O 0.68516 0.59913 0.50703 0.0
O160 O 0.56382 0.52368 0.38155 0.0
O161 O 0.54167 0.64503 0.43954 0.0
C162 C 0.6421 0.51369 0.69704 0.0
C163 C 0.54202 0.59342 0.37465 0.0
Dy164 Dy 0.08853 0.45872 0.08294 0.0
C165 C 0.92202 0.64208 0.93784 0.0
C166 C 0.17923 0.36507 0.16179 0.0
Dy167 Dy 0.04857 0.56602 0.98017 0.0
O168 O 0.09932 0.37235 0.18045 0.0
O169 O 0.2089 0.40771 0.09947 0.0
O170 O 0.98894 0.48505 0.17803 0.0
O171 O 0.06956 0.58063 0.11647 0.0
C172 C 1.00946 0.56282 0.17077 0.0
C173 C 0.09298 0.4586 0.86608 0.0
O174 O 0.18024 0.65646 0.02425 0.0
O175 O 0.22157 0.55453 0.08799 0.0
O176 O 1.00424 0.66049 0.90994 0.0
O177 O 0.91147 0.58607 0.98999 0.0
O178 O 0.07639 0.52703 0.85015 0.0
O179 O 0.0939 0.45163 0.94517 0.0
O180 O 0.96851 0.37152 0.01496 0.0
O181 O 0.91551 0.48113 1.00266 0.0
C182 C 0.24104 0.63112 0.06762 0.0
C183 C 0.90141 0.40245 0.99477 0.0
loop_
_geom_bond_atom_site_label_1
_geom_bond_atom_site_label_2
_geom_bond_distance
_geom_bond_site_symmetry_2
_ccdc_geom_bond_type
H0 C7 0.929 . S
H1 C10 0.930 . S
H2 C12 0.929 . S
H3 C4 0.969 . S
C4 H3 0.969 . S
C4 O5 1.550 . S
C4 H6 0.973 . S
O5 C4 1.550 . S
O5 C11 1.412 . S
H6 C4 0.973 . S
C7 H0 0.929 . S
C7 C8 1.400 . S
C7 C9 1.364 . S
C8 C7 1.400 . S
C8 C12 1.377 . S
C9 C7 1.364 . S
C9 C10 1.374 . S
C10 H1 0.930 . S
C10 C9 1.374 . S
C10 C11 1.383 . S
C11 O5 1.412 . S
C11 C10 1.383 . S
C11 C12 1.394 . S
C12 H2 0.929 . S
C12 C8 1.377 . S
C12 C11 1.394 . S
H13 C20 0.929 1_545 S
H14 C23 0.930 . S
H15 C25 0.929 . S
H16 C17 0.969 . S
C17 H16 0.969 . S
C17 O18 1.550 . S
C17 H19 0.973 . S
O18 C17 1.550 . S
O18 C24 1.412 . S
H19 C17 0.973 . S
C20 H13 0.929 1_565 S
C20 C21 1.400 . S
C20 C22 1.364 . S
C21 C20 1.400 . S
C21 C25 1.377 . S
C22 C20 1.364 . S
C22 C23 1.374 . S
C23 H14 0.930 . S
C23 C22 1.374 . S
C23 C24 1.383 . S
C24 O18 1.412 . S
C24 C23 1.383 . S
C24 C25 1.394 . S
C25 H15 0.929 . S
C25 C21 1.377 . S
C25 C24 1.394 . S
H26 C33 0.929 1_554 S
H27 C36 0.930 . S
H28 C38 0.929 . S
H29 C30 0.969 . S
C30 H29 0.969 . S
C30 O31 1.550 . S
C30 H32 0.973 . S
O31 C30 1.550 . S
O31 C37 1.412 . S
H32 C30 0.973 . S
C33 H26 0.929 1_556 S
C33 C34 1.400 . S
C33 C35 1.364 . S
C34 C33 1.400 . S
C34 C38 1.377 . S
C35 C33 1.364 . S
C35 C36 1.374 . S
C36 H27 0.930 . S
C36 C35 1.374 . S
C36 C37 1.383 . S
C37 O31 1.412 . S
C37 C36 1.383 . S
C37 C38 1.394 . S
C38 H28 0.929 . S
C38 C34 1.377 . S
C38 C37 1.394 . S
H39 C46 0.929 . S
H40 C49 0.930 . S
H41 C51 0.929 1_455 S
H42 C43 0.969 . S
C43 H42 0.969 . S
C43 O44 1.550 . S
C43 H45 0.973 . S
O44 C43 1.550 . S
O44 C50 1.412 . S
H45 C43 0.973 . S
C46 H39 0.929 . S
C46 C47 1.400 . S
C46 C48 1.364 . S
C47 C46 1.400 . S
C47 C51 1.377 . S
C48 C46 1.364 . S
C48 C49 1.374 . S
C49 H40 0.930 . S
C49 C48 1.374 . S
C49 C50 1.383 . S
C50 O44 1.412 . S
C50 C49 1.383 . S
C50 C51 1.394 . S
C51 H41 0.929 1_655 S
C51 C47 1.377 . S
C51 C50 1.394 . S
H52 C59 0.929 . S
H53 C62 0.930 . S
H54 C64 0.929 . S
H55 C56 0.969 . S
C56 H55 0.969 . S
C56 O57 1.550 . S
C56 H58 0.973 . S
O57 C56 1.550 . S
O57 C63 1.412 . S
H58 C56 0.973 . S
C59 H52 0.929 . S
C59 C60 1.400 . S
C59 C61 1.364 . S
C60 C59 1.400 . S
C60 C64 1.377 . S
C61 C59 1.364 . S
C61 C62 1.374 . S
C62 H53 0.930 . S
C62 C61 1.374 . S
C62 C63 1.383 . S
C63 O57 1.412 . S
C63 C62 1.383 . S
C63 C64 1.394 . S
C64 H54 0.929 . S
C64 C60 1.377 . S
C64 C63 1.394 . S
H65 C72 0.929 . S
H66 C75 0.930 . S
H67 C77 0.929 . S
H68 C69 0.969 . S
C69 H68 0.969 . S
C69 O70 1.550 . S
C69 H71 0.973 . S
O70 C69 1.550 . S
O70 C76 1.412 . S
H71 C69 0.973 . S
C72 H65 0.929 . S
C72 C73 1.400 . S
C72 C74 1.364 . S
C73 C72 1.400 . S
C73 C77 1.377 . S
C74 C72 1.364 . S
C74 C75 1.374 . S
C75 H66 0.930 . S
C75 C74 1.374 . S
C75 C76 1.383 . S
C76 O70 1.412 . S
C76 C75 1.383 . S
C76 C77 1.394 . S
C77 H67 0.929 . S
C77 C73 1.377 . S
C77 C76 1.394 . S
H78 C85 0.929 . S
H79 C88 0.930 . S
H80 C90 0.929 . S
H81 C82 0.969 . S
C82 H81 0.969 . S
C82 O83 1.550 . S
C82 H84 0.973 . S
O83 C82 1.550 . S
O83 C89 1.412 . S
H84 C82 0.973 . S
C85 H78 0.929 . S
C85 C86 1.400 . S
C85 C87 1.364 . S
C86 C85 1.400 . S
C86 C90 1.377 . S
C87 C85 1.364 . S
C87 C88 1.374 . S
C88 H79 0.930 . S
C88 C87 1.374 . S
C88 C89 1.383 . S
C89 O83 1.412 . S
C89 C88 1.383 . S
C89 C90 1.394 . S
C90 H80 0.929 . S
C90 C86 1.377 . S
C90 C89 1.394 . S
H91 C98 0.929 . S
H92 C101 0.930 . S
H93 C103 0.929 . S
H94 C95 0.969 . S
C95 H94 0.969 . S
C95 O96 1.550 . S
C95 H97 0.973 . S
O96 C95 1.550 . S
O96 C102 1.412 . S
H97 C95 0.973 . S
C98 H91 0.929 . S
C98 C99 1.400 . S
C98 C100 1.364 . S
C99 C98 1.400 . S
C99 C103 1.377 . S
C100 C98 1.364 . S
C100 C101 1.374 . S
C101 H92 0.930 . S
C101 C100 1.374 . S
C101 C102 1.383 . S
C102 O96 1.412 . S
C102 C101 1.383 . S
C102 C103 1.394 . S
C103 H93 0.929 . S
C103 C99 1.377 . S
C103 C102 1.394 . S
Dy104 O108 2.398 . S
Dy104 O109 2.491 . S
Dy104 O110 2.403 1_545 S
Dy104 O111 2.664 1_545 S
Dy104 O115 2.326 . S
Dy104 O119 2.310 1_455 S
Dy104 O120 2.351 1_545 S
C105 O116 1.185 . S
C105 O117 1.355 . S
C106 O108 1.185 . S
C106 O109 1.355 . S
Dy107 O111 2.304 1_645 S
Dy107 O114 2.364 1_655 S
Dy107 O116 2.391 1_545 S
Dy107 O117 2.477 1_545 S
Dy107 O118 2.411 . S
Dy107 O119 2.671 . S
Dy107 O121 2.317 1_545 S
O108 Dy104 2.398 . S
O108 C106 1.185 . S
O109 Dy104 2.491 . S
O109 C106 1.355 . S
O110 Dy104 2.403 1_565 S
O110 C112 1.254 . S
O111 Dy104 2.664 1_565 S
O111 Dy107 2.304 1_465 S
O111 C112 1.268 . S
C112 O110 1.254 . S
C112 O111 1.268 . S
C113 O118 1.254 . S
C113 O119 1.268 . S
O114 Dy107 2.364 1_455 S
O114 C122 1.249 . S
O115 Dy104 2.326 . S
O115 C122 1.267 . S
O116 C105 1.185 . S
O116 Dy107 2.391 1_565 S
O117 C105 1.355 . S
O117 Dy107 2.477 1_565 S
O118 Dy107 2.411 . S
O118 C113 1.254 . S
O119 Dy104 2.310 1_655 S
O119 Dy107 2.671 . S
O119 C113 1.268 . S
O120 Dy104 2.351 1_565 S
O120 C123 1.249 1_455 S
O121 Dy107 2.317 1_565 S
O121 C123 1.267 . S
C122 O114 1.249 . S
C122 O115 1.267 . S
C123 O120 1.249 1_655 S
C123 O121 1.267 . S
Dy124 O128 2.398 . S
Dy124 O129 2.491 . S
Dy124 O130 2.403 1_545 S
Dy124 O131 2.664 1_545 S
Dy124 O135 2.326 . S
Dy124 O139 2.310 1_554 S
Dy124 O140 2.351 1_544 S
C125 O136 1.185 . S
C125 O137 1.355 . S
C126 O128 1.185 . S
C126 O129 1.355 . S
Dy127 O131 2.310 1_546 S
Dy127 O134 2.351 1_556 S
Dy127 O136 2.398 1_545 S
Dy127 O137 2.491 1_545 S
Dy127 O138 2.403 . S
Dy127 O139 2.664 . S
Dy127 O141 2.326 1_545 S
O128 Dy124 2.398 . S
O128 C126 1.185 . S
O129 Dy124 2.491 . S
O129 C126 1.355 . S
O130 Dy124 2.403 1_565 S
O130 C132 1.254 . S
O131 Dy124 2.664 1_565 S
O131 Dy127 2.310 1_564 S
O131 C132 1.268 . S
C132 O130 1.254 . S
C132 O131 1.268 . S
C133 O138 1.254 . S
C133 O139 1.268 . S
O134 Dy127 2.351 1_554 S
O134 C142 1.249 . S
O135 Dy124 2.326 . S
O135 C142 1.267 . S
O136 C125 1.185 . S
O136 Dy127 2.398 1_565 S
O137 C125 1.355 . S
O137 Dy127 2.491 1_565 S
O138 Dy127 2.403 . S
O138 C133 1.254 . S
O139 Dy124 2.310 1_556 S
O139 Dy127 2.664 . S
O139 C133 1.268 . S
O140 Dy124 2.351 1_566 S
O140 C143 1.249 . S
O141 Dy127 2.326 1_565 S
O141 C143 1.267 . S
C142 O134 1.249 . S
C142 O135 1.267 . S
C143 O140 1.249 . S
C143 O141 1.267 . S
Dy144 O148 2.398 . S
Dy144 O149 2.491 . S
Dy144 O150 2.403 . S
Dy144 O151 2.664 . S
Dy144 O155 2.326 . S
Dy144 O159 2.310 . S
Dy144 O160 2.351 . S
C145 O156 1.185 . S
C145 O157 1.355 . S
C146 O148 1.185 . S
C146 O149 1.355 . S
Dy147 O151 2.310 . S
Dy147 O154 2.351 . S
Dy147 O156 2.398 . S
Dy147 O157 2.491 . S
Dy147 O158 2.403 . S
Dy147 O159 2.664 . S
Dy147 O161 2.326 . S
O148 Dy144 2.398 . S
O148 C146 1.185 . S
O149 Dy144 2.491 . S
O149 C146 1.355 . S
O150 Dy144 2.403 . S
O150 C152 1.254 . S
O151 Dy144 2.664 . S
O151 Dy147 2.310 . S
O151 C152 1.268 . S
C152 O150 1.254 . S
C152 O151 1.268 . S
C153 O158 1.254 . S
C153 O159 1.268 . S
O154 Dy147 2.351 . S
O154 C162 1.249 . S
O155 Dy144 2.326 . S
O155 C162 1.267 . S
O156 C145 1.185 . S
O156 Dy147 2.398 . S
O157 C145 1.355 . S
O157 Dy147 2.491 . S
O158 Dy147 2.403 . S
O158 C153 1.254 . S
O159 Dy144 2.310 . S
O159 Dy147 2.664 . S
O159 C153 1.268 . S
O160 Dy144 2.351 . S
O160 C163 1.249 . S
O161 Dy147 2.326 . S
O161 C163 1.267 . S
C162 O154 1.249 . S
C162 O155 1.267 . S
C163 O160 1.249 . S
C163 O161 1.267 . S
Dy164 O168 2.398 . S
Dy164 O169 2.491 . S
Dy164 O170 2.403 1_455 S
Dy164 O171 2.664 1_455 S
Dy164 O175 2.326 . S
Dy164 O179 2.310 1_554 S
Dy164 O180 2.351 1_455 S
C165 O176 1.185 . S
C165 O177 1.355 . S
C166 O168 1.185 . S
C166 O169 1.355 . S
Dy167 O171 2.310 1_456 S
Dy167 O174 2.351 1_556 S
Dy167 O176 2.398 1_455 S
Dy167 O177 2.491 1_455 S
Dy167 O178 2.403 . S
Dy167 O179 2.664 . S
Dy167 O181 2.326 1_455 S
O168 Dy164 2.398 . S
O168 C166 1.185 . S
O169 Dy164 2.491 . S
O169 C166 1.355 . S
O170 Dy164 2.403 1_655 S
O170 C172 1.254 . S
O171 Dy164 2.664 1_655 S
O171 Dy167 2.310 1_654 S
O171 C172 1.268 . S
C172 O170 1.254 . S
C172 O171 1.268 . S
C173 O178 1.254 . S
C173 O179 1.268 . S
O174 Dy167 2.351 1_554 S
O174 C182 1.249 . S
O175 Dy164 2.326 . S
O175 C182 1.267 . S
O176 C165 1.185 . S
O176 Dy167 2.398 1_655 S
O177 C165 1.355 . S
O177 Dy167 2.491 1_655 S
O178 Dy167 2.403 . S
O178 C173 1.254 . S
O179 Dy164 2.310 1_556 S
O179 Dy167 2.664 . S
O179 C173 1.268 . S
O180 Dy164 2.351 1_655 S
O180 C183 1.249 1_554 S
O181 Dy167 2.326 1_655 S
O181 C183 1.267 . S
C182 O174 1.249 . S
C182 O175 1.267 . S
C183 O180 1.249 1_556 S
C183 O181 1.267 . S
C9 C106 1.629 . S
C21 C125 1.752 . S
C162 C30 2.027 . S
C43 C172 1.808 . S
C142 C4 1.787 . S
C112 C22 1.827 . S
C183 C34 1.421 . S
C153 C48 1.527 . S
C8 C166 1.750 . S
C133 C35 2.040 . S
C47 C123 2.266 . S
C17 C145 2.093 . S
C105 C60 1.458 . S
C74 C126 1.567 . S
C82 C163 1.515 . S
C100 C173 2.588 . S
C61 C143 2.468 . S
C113 C73 1.293 . S
C182 C87 2.162 . S
C152 C95 1.752 . S
C56 C165 2.059 . S
C132 C86 2.262 . S
C122 C99 2.319 . S
C69 C146 0.850 . S
