# Generated by pormake.
# Topology pyr, (3,6)-cn, num edge types: 1
# Building blocks:
#     Node 0, Type 0, BuildingBlock: CUQRIR_clean_linker_1, # of connection points: 3
#     Node 1, Type 0, BuildingBlock: CUQRIR_clean_linker_1, # of connection points: 3
#     Node 2, Type 0, BuildingBlock: CUQRIR_clean_linker_1, # of connection points: 3
#     Node 3, Type 0, BuildingBlock: CUQRIR_clean_linker_1, # of connection points: 3
#     Node 4, Type 0, BuildingBlock: CUQRIR_clean_linker_1, # of connection points: 3
#     Node 5, Type 0, BuildingBlock: CUQRIR_clean_linker_1, # of connection points: 3
#     Node 6, Type 0, BuildingBlock: CUQRIR_clean_linker_1, # of connection points: 3
#     Node 7, Type 0, BuildingBlock: CUQRIR_clean_linker_1, # of connection points: 3
#     Node 8, Type 1, BuildingBlock: BETDEL_clean_sbu_0, # of connection points: 6
#     Node 9, Type 1, BuildingBlock: BETDEL_clean_sbu_0, # of connection points: 6
#     Node 10, Type 1, BuildingBlock: BETDEL_clean_sbu_0, # of connection points: 6
#     Node 11, Type 1, BuildingBlock: BETDEL_clean_sbu_0, # of connection points: 6
#     Edge 12, Type (0, 1), None
#     Edge 13, Type (0, 1), None
#     Edge 14, Type (0, 1), None
#     Edge 15, Type (0, 1), None
#     Edge 16, Type (0, 1), None
#     Edge 17, Type (0, 1), None
#     Edge 18, Type (0, 1), None
#     Edge 19, Type (0, 1), None
#     Edge 20, Type (0, 1), None
#     Edge 21, Type (0, 1), None
#     Edge 22, Type (0, 1), None
#     Edge 23, Type (0, 1), None
#     Edge 24, Type (0, 1), None
#     Edge 25, Type (0, 1), None
#     Edge 26, Type (0, 1), None
#     Edge 27, Type (0, 1), None
#     Edge 28, Type (0, 1), None
#     Edge 29, Type (0, 1), None
#     Edge 30, Type (0, 1), None
#     Edge 31, Type (0, 1), None
#     Edge 32, Type (0, 1), None
#     Edge 33, Type (0, 1), None
#     Edge 34, Type (0, 1), None
#     Edge 35, Type (0, 1), None
# Relax obj value: 0.187
# Max RMSD: 0.246
# Mean RMSD: 0.161
data_MOF--net-pyr--node1-BETDEL_clean_sbu_0--node2-CUQRIR_clean_linker_1--edge1-none
_symmetry_space_group_name_H-M    P1
_symmetry_Int_Tables_number       1
_symmetry_cell_setting            triclinic
loop_
_symmetry_equiv_pos_as_xyz
'x, y, z'
_cell_length_a     13.036584
_cell_length_b     13.894746
_cell_length_c     13.00599
_cell_angle_alpha  88.087504
_cell_angle_beta   90.076429
_cell_angle_gamma 101.33177
loop_
_atom_site_label
_atom_site_type_symbol
_atom_site_fract_x
_atom_site_fract_y
_atom_site_fract_z
_atom_type_partial_charge
C0 C 0.20513 0.30339 0.2503 0.0
N1 N 0.28141 0.25009 0.26218 0.0
N2 N 0.18895 0.3222 0.15108 0.0
C3 C 0.14609 0.33888 0.336 0.0
C4 C 0.26155 0.284 0.10089 0.0
N5 N 0.31644 0.23771 0.16917 0.0
C6 C 0.27924 0.29321 0.98635 0.0
H7 H 0.07895 0.27986 0.35861 0.0
H8 H 0.11427 0.40487 0.31609 0.0
H9 H 0.1998 0.36164 0.3992 0.0
H10 H 0.22758 0.33685 0.94678 0.0
H11 H 0.26448 0.21955 0.95262 0.0
H12 H 0.36167 0.32934 0.97169 0.0
C13 C 0.3457 0.91394 0.60463 0.0
N14 N 0.30969 0.97533 0.66674 0.0
N15 N 0.39473 0.8543 0.66087 0.0
C16 C 0.34033 0.9182 0.48832 0.0
C17 C 0.37915 0.87469 0.75888 0.0
N18 N 0.33076 0.95214 0.76371 0.0
C19 C 0.41885 0.82379 0.85085 0.0
H20 H 0.28813 0.85074 0.46167 0.0
H21 H 0.41924 0.92123 0.45502 0.0
H22 H 0.31082 0.9832 0.45838 0.0
H23 H 0.50538 0.84329 0.85114 0.0
H24 H 0.39656 0.74303 0.8449 0.0
H25 H 0.38753 0.84431 0.92442 0.0
C26 C 0.57262 0.34539 0.85679 0.0
N27 N 0.63938 0.33241 0.93654 0.0
N28 N 0.59839 0.43627 0.81042 0.0
C29 C 0.48254 0.26959 0.82153 0.0
C30 C 0.68783 0.4762 0.85675 0.0
N31 N 0.71165 0.41669 0.93553 0.0
C32 C 0.76858 0.55246 0.7986 0.0
H33 H 0.50969 0.2295 0.75788 0.0
H34 H 0.41862 0.30468 0.79136 0.0
H35 H 0.45178 0.218 0.88553 0.0
H36 H 0.747 0.62547 0.80149 0.0
H37 H 0.76924 0.53429 0.71611 0.0
H38 H 0.84924 0.55622 0.8255 0.0
C39 C 0.87677 0.64961 0.37369 0.0
N40 N 0.95435 0.71796 0.32729 0.0
N41 N 0.79818 0.69003 0.4092 0.0
C42 C 0.88845 0.54603 0.39888 0.0
C43 C 0.83312 0.78667 0.38776 0.0
N44 N 0.93478 0.80828 0.35301 0.0
C45 C 0.7676 0.86328 0.40454 0.0
H46 H 0.85541 0.49892 0.33579 0.0
H47 H 0.84745 0.51781 0.47162 0.0
H48 H 0.97251 0.54222 0.40539 0.0
H49 H 0.7584 0.87335 0.48807 0.0
H50 H 0.68837 0.83805 0.37258 0.0
H51 H 0.80398 0.9347 0.36689 0.0
C52 C 0.75452 0.8458 0.94719 0.0
N53 N 0.843 0.83685 0.89762 0.0
N54 N 0.76313 0.93902 0.97635 0.0
C55 C 0.66962 0.76066 0.98405 0.0
C56 C 0.85678 0.98698 0.93944 0.0
N57 N 0.90073 0.92578 0.8832 0.0
C58 C 0.89857 0.09577 0.94724 0.0
H59 H 0.65946 0.70056 0.92873 0.0
H60 H 0.59281 0.78096 0.99498 0.0
H61 H 0.69228 0.73234 0.05982 0.0
H62 H 0.89223 0.11923 0.02712 0.0
H63 H 0.85244 0.13684 0.89653 0.0
H64 H 0.9825 0.1154 0.92653 0.0
C65 C 0.77634 0.2714 0.5191 0.0
N66 N 0.83017 0.21133 0.46936 0.0
N67 N 0.72704 0.32206 0.45001 0.0
C68 C 0.76471 0.27407 0.63414 0.0
C69 C 0.76001 0.29741 0.35871 0.0
N70 N 0.81109 0.22106 0.36899 0.0
C71 C 0.72525 0.3358 0.25669 0.0
H72 H 0.74288 0.1985 0.66803 0.0
H73 H 0.70484 0.31539 0.65771 0.0
H74 H 0.84072 0.30963 0.66629 0.0
H75 H 0.71262 0.41213 0.26125 0.0
H76 H 0.64989 0.28966 0.23438 0.0
H77 H 0.78429 0.33264 0.19644 0.0
C78 C 0.33939 0.65997 0.20587 0.0
N79 N 0.42129 0.71867 0.25307 0.0
N80 N 0.28464 0.71378 0.14689 0.0
C81 C 0.28819 0.55796 0.24704 0.0
C82 C 0.32564 0.80693 0.16794 0.0
N83 N 0.41381 0.81322 0.22535 0.0
C84 C 0.26897 0.89069 0.14775 0.0
H85 H 0.32676 0.50204 0.21292 0.0
H86 H 0.20344 0.54097 0.23277 0.0
H87 H 0.29075 0.55189 0.33214 0.0
H88 H 0.31009 0.96074 0.1796 0.0
H89 H 0.19075 0.87237 0.1851 0.0
H90 H 0.25603 0.89941 0.06419 0.0
C91 C 0.08949 0.37756 0.74831 0.0
N92 N 0.15043 0.35269 0.66999 0.0
N93 N 0.11334 0.47545 0.76855 0.0
C94 C 1.0043 0.30718 0.80606 0.0
C95 C 0.1914 0.50983 0.69874 0.0
N96 N 0.2179 0.43681 0.64029 0.0
C97 C 0.23348 0.61781 0.67926 0.0
H98 H 0.93679 0.3419 0.82183 0.0
H99 H 0.03594 0.28659 0.881 0.0
H100 H 0.97227 0.2405 0.76413 0.0
H101 H 0.17708 0.66338 0.70214 0.0
H102 H 0.25059 0.63414 0.59631 0.0
H103 H 0.30611 0.63881 0.72407 0.0
Dy104 Dy 0.12621 0.09128 0.47799 0.0
C105 C 0.94682 0.95419 0.79132 0.0
C106 C 0.2693 0.17885 0.33531 0.0
Dy107 Dy 1.01198 1.03578 0.60536 0.0
O108 O 0.26392 0.20294 0.42887 0.0
O109 O 0.1994 0.09977 0.32189 0.0
O110 O 0.25573 0.1082 0.59629 0.0
O111 O 0.15326 0.9788 0.59283 0.0
C112 C 0.23254 1.02245 0.63875 0.0
C113 C 0.89652 0.15445 0.51271 0.0
O114 O 0.10025 0.17729 0.68151 0.0
O115 O 0.13452 0.2472 0.52884 0.0
O116 O 1.01815 1.03188 0.77676 0.0
O117 O 0.9073 0.92165 0.70426 0.0
O118 O 0.8951 0.1313 0.60949 0.0
O119 O 0.95867 0.1115 0.46269 0.0
O120 O 0.07006 0.95383 0.37733 0.0
O121 O 0.96225 0.89699 0.50894 0.0
C122 C 0.13431 0.25956 0.62724 0.0
C123 C 0.99712 0.88059 0.41515 0.0
Dy124 Dy 0.59594 0.08856 0.18326 0.0
C125 C 0.37233 1.02128 0.83023 0.0
C126 C 0.75992 0.14328 0.31754 0.0
Dy127 Dy 0.49977 0.06542 0.99857 0.0
O128 O 0.6618 0.10937 0.34171 0.0
O129 O 0.7657 0.14493 0.21795 0.0
O130 O 0.5495 0.94316 0.27736 0.0
O131 O 0.49077 0.95549 0.12858 0.0
C132 C 0.49156 0.89663 0.20728 0.0
C133 C 0.643 0.24168 0.9847 0.0
O134 O 0.38184 0.13952 0.05988 0.0
O135 O 0.46389 0.17111 0.21471 0.0
O136 O 0.47312 0.05226 0.82953 0.0
O137 O 0.34251 1.01397 0.92548 0.0
O138 O 0.6361 0.16814 0.9243 0.0
O139 O 0.58206 0.2078 0.06138 0.0
O140 O 0.71432 0.05472 0.0769 0.0
O141 O 0.59168 0.94979 0.99563 0.0
C142 C 0.38788 0.1811 0.14844 0.0
C143 C 0.68914 0.97851 0.02039 0.0
Dy144 Dy 0.50307 0.48399 0.48713 0.0
C145 C 0.44961 0.79071 0.62576 0.0
C146 C 0.64733 0.37071 0.46504 0.0
Dy147 Dy 0.52804 0.64204 0.56169 0.0
O148 O 0.56629 0.36879 0.40327 0.0
O149 O 0.64706 0.43173 0.53815 0.0
O150 O 0.33982 0.39043 0.51671 0.0
O151 O 0.38281 0.52933 0.58671 0.0
C152 C 0.31075 0.45169 0.58016 0.0
C153 C 0.71592 0.64858 0.47284 0.0
O154 O 0.57257 0.57211 0.7095 0.0
O155 O 0.52593 0.42153 0.64639 0.0
O156 O 0.51549 0.75119 0.6798 0.0
O157 O 0.43294 0.75392 0.53666 0.0
O158 O 0.70158 0.68821 0.55956 0.0
O159 O 0.62756 0.60912 0.43611 0.0
O160 O 0.47117 0.58174 0.34387 0.0
O161 O 0.49638 0.72882 0.41883 0.0
C162 C 0.55959 0.47621 0.72386 0.0
C163 C 0.47068 0.67934 0.33606 0.0
Dy164 Dy 1.01318 0.51667 0.0668 0.0
C165 C 0.88956 0.75924 0.91399 0.0
C166 C 0.1232 0.37847 0.11496 0.0
Dy167 Dy 0.98795 0.62286 1.00336 0.0
O168 O 0.03307 0.3827 0.15748 0.0
O169 O 0.15507 0.45277 0.05352 0.0
O170 O 0.95198 0.61427 0.18271 0.0
O171 O 0.95787 0.61611 0.18011 0.0
C172 C 0.99838 0.69381 0.23291 0.0
C173 C 0.07168 0.52696 0.84445 0.0
O174 O 0.1245 0.72459 0.07093 0.0
O175 O 0.18074 0.58743 0.06408 0.0
O176 O 0.9898 0.76493 0.91255 0.0
O177 O 0.84612 0.68187 0.96549 0.0
O178 O 0.11053 0.61408 0.87521 0.0
O179 O 0.99483 0.49404 0.90249 0.0
O180 O 0.86821 0.40548 0.02226 0.0
O181 O 0.81875 0.54649 1.00982 0.0
C182 C 0.20007 0.67828 0.08865 0.0
C183 C 0.79212 0.45117 1.00152 0.0
loop_
_geom_bond_atom_site_label_1
_geom_bond_atom_site_label_2
_geom_bond_distance
_geom_bond_site_symmetry_2
_ccdc_geom_bond_type
C0 N1 1.317 . S
C0 N2 1.348 . S
C0 C3 1.485 . S
N1 C0 1.317 . S
N1 N5 1.370 . S
N2 C0 1.348 . S
N2 C4 1.346 . S
C3 C0 1.485 . S
C3 H7 0.960 . S
C3 H8 0.961 . S
C3 H9 0.960 . S
C4 N2 1.346 . S
C4 N5 1.307 . S
C4 C6 1.486 . S
N5 N1 1.370 . S
N5 C4 1.307 . S
C6 C4 1.486 . S
C6 H10 0.960 . S
C6 H11 0.960 . S
C6 H12 0.959 . S
H7 C3 0.960 . S
H8 C3 0.961 . S
H9 C3 0.960 . S
H10 C6 0.960 . S
H11 C6 0.960 . S
H12 C6 0.959 . S
C13 N14 1.317 . S
C13 N15 1.348 . S
C13 C16 1.485 . S
N14 C13 1.317 . S
N14 N18 1.370 . S
N15 C13 1.348 . S
N15 C17 1.346 . S
C16 C13 1.485 . S
C16 H20 0.960 . S
C16 H21 0.961 . S
C16 H22 0.960 . S
C17 N15 1.346 . S
C17 N18 1.307 . S
C17 C19 1.486 . S
N18 N14 1.370 . S
N18 C17 1.307 . S
C19 C17 1.486 . S
C19 H23 0.960 . S
C19 H24 0.960 . S
C19 H25 0.959 . S
H20 C16 0.960 . S
H21 C16 0.961 . S
H22 C16 0.960 . S
H23 C19 0.960 . S
H24 C19 0.960 . S
H25 C19 0.959 . S
C26 N27 1.317 . S
C26 N28 1.348 . S
C26 C29 1.485 . S
N27 C26 1.317 . S
N27 N31 1.370 . S
N28 C26 1.348 . S
N28 C30 1.346 . S
C29 C26 1.485 . S
C29 H33 0.960 . S
C29 H34 0.961 . S
C29 H35 0.960 . S
C30 N28 1.346 . S
C30 N31 1.307 . S
C30 C32 1.486 . S
N31 N27 1.370 . S
N31 C30 1.307 . S
C32 C30 1.486 . S
C32 H36 0.960 . S
C32 H37 0.960 . S
C32 H38 0.959 . S
H33 C29 0.960 . S
H34 C29 0.961 . S
H35 C29 0.960 . S
H36 C32 0.960 . S
H37 C32 0.960 . S
H38 C32 0.959 . S
C39 N40 1.317 . S
C39 N41 1.348 . S
C39 C42 1.485 . S
N40 C39 1.317 . S
N40 N44 1.370 . S
N41 C39 1.348 . S
N41 C43 1.346 . S
C42 C39 1.485 . S
C42 H46 0.960 . S
C42 H47 0.961 . S
C42 H48 0.960 . S
C43 N41 1.346 . S
C43 N44 1.307 . S
C43 C45 1.486 . S
N44 N40 1.370 . S
N44 C43 1.307 . S
C45 C43 1.486 . S
C45 H49 0.960 . S
C45 H50 0.960 . S
C45 H51 0.959 . S
H46 C42 0.960 . S
H47 C42 0.961 . S
H48 C42 0.960 . S
H49 C45 0.960 . S
H50 C45 0.960 . S
H51 C45 0.959 . S
C52 N53 1.317 . S
C52 N54 1.348 . S
C52 C55 1.485 . S
N53 C52 1.317 . S
N53 N57 1.370 . S
N54 C52 1.348 . S
N54 C56 1.346 . S
C55 C52 1.485 . S
C55 H59 0.960 . S
C55 H60 0.961 1_556 S
C55 H61 0.960 1_556 S
C56 N54 1.346 . S
C56 N57 1.307 . S
C56 C58 1.486 . S
N57 N53 1.370 . S
N57 C56 1.307 . S
C58 C56 1.486 . S
C58 H62 0.960 1_565 S
C58 H63 0.960 . S
C58 H64 0.959 . S
H59 C55 0.960 . S
H60 C55 0.961 1_554 S
H61 C55 0.960 1_554 S
H62 C58 0.960 1_545 S
H63 C58 0.960 . S
H64 C58 0.959 . S
C65 N66 1.317 . S
C65 N67 1.348 . S
C65 C68 1.485 . S
N66 C65 1.317 . S
N66 N70 1.370 . S
N67 C65 1.348 . S
N67 C69 1.346 . S
C68 C65 1.485 . S
C68 H72 0.960 . S
C68 H73 0.961 . S
C68 H74 0.960 . S
C69 N67 1.346 . S
C69 N70 1.307 . S
C69 C71 1.486 . S
N70 N66 1.370 . S
N70 C69 1.307 . S
C71 C69 1.486 . S
C71 H75 0.960 . S
C71 H76 0.960 . S
C71 H77 0.959 . S
H72 C68 0.960 . S
H73 C68 0.961 . S
H74 C68 0.960 . S
H75 C71 0.960 . S
H76 C71 0.960 . S
H77 C71 0.959 . S
C78 N79 1.317 . S
C78 N80 1.348 . S
C78 C81 1.485 . S
N79 C78 1.317 . S
N79 N83 1.370 . S
N80 C78 1.348 . S
N80 C82 1.346 . S
C81 C78 1.485 . S
C81 H85 0.960 . S
C81 H86 0.961 . S
C81 H87 0.960 . S
C82 N80 1.346 . S
C82 N83 1.307 . S
C82 C84 1.486 . S
N83 N79 1.370 . S
N83 C82 1.307 . S
C84 C82 1.486 . S
C84 H88 0.960 . S
C84 H89 0.960 1_554 S
C84 H90 0.959 . S
H85 C81 0.960 . S
H86 C81 0.961 . S
H87 C81 0.960 . S
H88 C84 0.960 . S
H89 C84 0.960 1_556 S
H90 C84 0.959 . S
C91 N92 1.317 . S
C91 N93 1.348 . S
C91 C94 1.485 1_455 S
N92 C91 1.317 . S
N92 N96 1.370 . S
N93 C91 1.348 . S
N93 C95 1.346 . S
C94 C91 1.485 1_655 S
C94 H98 0.960 . S
C94 H99 0.961 . S
C94 H100 0.960 1_655 S
C95 N93 1.346 . S
C95 N96 1.307 . S
C95 C97 1.486 . S
N96 N92 1.370 . S
N96 C95 1.307 . S
C97 C95 1.486 . S
C97 H101 0.960 . S
C97 H102 0.960 . S
C97 H103 0.959 . S
H98 C94 0.960 . S
H99 C94 0.961 . S
H100 C94 0.960 1_455 S
H101 C97 0.960 . S
H102 C97 0.960 . S
H103 C97 0.959 . S
Dy104 O108 2.398 . S
Dy104 O109 2.491 . S
Dy104 O110 2.403 1_545 S
Dy104 O111 2.664 1_545 S
Dy104 O115 2.326 . S
Dy104 O119 2.310 1_455 S
Dy104 O120 2.351 1_545 S
C105 O116 1.185 . S
C105 O117 1.355 . S
C106 O108 1.185 . S
C106 O109 1.355 . S
Dy107 O111 2.310 1_655 S
Dy107 O114 2.351 1_665 S
Dy107 O116 2.398 . S
Dy107 O117 2.491 . S
Dy107 O118 2.403 1_565 S
Dy107 O119 2.664 1_565 S
Dy107 O121 2.326 . S
O108 Dy104 2.398 . S
O108 C106 1.185 . S
O109 Dy104 2.491 . S
O109 C106 1.355 . S
O110 Dy104 2.403 1_565 S
O110 C112 1.254 . S
O111 Dy104 2.664 1_565 S
O111 Dy107 2.310 1_455 S
O111 C112 1.268 . S
C112 O110 1.254 . S
C112 O111 1.268 . S
C113 O118 1.254 . S
C113 O119 1.268 . S
O114 Dy107 2.351 1_445 S
O114 C122 1.249 . S
O115 Dy104 2.326 . S
O115 C122 1.267 . S
O116 C105 1.185 . S
O116 Dy107 2.398 . S
O117 C105 1.355 . S
O117 Dy107 2.491 . S
O118 Dy107 2.403 1_545 S
O118 C113 1.254 . S
O119 Dy104 2.310 1_655 S
O119 Dy107 2.664 1_545 S
O119 C113 1.268 . S
O120 Dy104 2.351 1_565 S
O120 C123 1.249 1_455 S
O121 Dy107 2.326 . S
O121 C123 1.267 . S
C122 O114 1.249 . S
C122 O115 1.267 . S
C123 O120 1.249 1_655 S
C123 O121 1.267 . S
Dy124 O128 2.398 . S
Dy124 O129 2.491 . S
Dy124 O130 2.403 1_545 S
Dy124 O131 2.664 1_545 S
Dy124 O135 2.326 . S
Dy124 O139 2.310 . S
Dy124 O140 2.351 1_545 S
C125 O136 1.185 1_565 S
C125 O137 1.355 . S
C126 O128 1.185 . S
C126 O129 1.355 . S
Dy127 O131 2.310 1_546 S
Dy127 O134 2.351 1_556 S
Dy127 O136 2.398 . S
Dy127 O137 2.491 1_545 S
Dy127 O138 2.403 . S
Dy127 O139 2.664 1_556 S
Dy127 O141 2.326 1_545 S
O128 Dy124 2.398 . S
O128 C126 1.185 . S
O129 Dy124 2.491 . S
O129 C126 1.355 . S
O130 Dy124 2.403 1_565 S
O130 C132 1.254 . S
O131 Dy124 2.664 1_565 S
O131 Dy127 2.310 1_564 S
O131 C132 1.268 . S
C132 O130 1.254 . S
C132 O131 1.268 . S
C133 O138 1.254 . S
C133 O139 1.268 1_556 S
O134 Dy127 2.351 1_554 S
O134 C142 1.249 . S
O135 Dy124 2.326 . S
O135 C142 1.267 . S
O136 C125 1.185 1_545 S
O136 Dy127 2.398 . S
O137 C125 1.355 . S
O137 Dy127 2.491 1_565 S
O138 Dy127 2.403 . S
O138 C133 1.254 . S
O139 Dy124 2.310 . S
O139 Dy127 2.664 1_554 S
O139 C133 1.268 1_554 S
O140 Dy124 2.351 1_565 S
O140 C143 1.249 1_554 S
O141 Dy127 2.326 1_565 S
O141 C143 1.267 . S
C142 O134 1.249 . S
C142 O135 1.267 . S
C143 O140 1.249 1_556 S
C143 O141 1.267 . S
Dy144 O148 2.398 . S
Dy144 O149 2.491 . S
Dy144 O150 2.403 . S
Dy144 O151 2.664 . S
Dy144 O155 2.326 . S
Dy144 O159 2.310 . S
Dy144 O160 2.351 . S
C145 O156 1.185 . S
C145 O157 1.355 . S
C146 O148 1.185 . S
C146 O149 1.355 . S
Dy147 O151 2.310 . S
Dy147 O154 2.351 . S
Dy147 O156 2.398 . S
Dy147 O157 2.491 . S
Dy147 O158 2.403 . S
Dy147 O159 2.664 . S
Dy147 O161 2.326 . S
O148 Dy144 2.398 . S
O148 C146 1.185 . S
O149 Dy144 2.491 . S
O149 C146 1.355 . S
O150 Dy144 2.403 . S
O150 C152 1.254 . S
O151 Dy144 2.664 . S
O151 Dy147 2.310 . S
O151 C152 1.268 . S
C152 O150 1.254 . S
C152 O151 1.268 . S
C153 O158 1.254 . S
C153 O159 1.268 . S
O154 Dy147 2.351 . S
O154 C162 1.249 . S
O155 Dy144 2.326 . S
O155 C162 1.267 . S
O156 C145 1.185 . S
O156 Dy147 2.398 . S
O157 C145 1.355 . S
O157 Dy147 2.491 . S
O158 Dy147 2.403 . S
O158 C153 1.254 . S
O159 Dy144 2.310 . S
O159 Dy147 2.664 . S
O159 C153 1.268 . S
O160 Dy144 2.351 . S
O160 C163 1.249 . S
O161 Dy147 2.326 . S
O161 C163 1.267 . S
C162 O154 1.249 . S
C162 O155 1.267 . S
C163 O160 1.249 . S
C163 O161 1.267 . S
Dy164 O168 2.398 . S
Dy164 O169 2.491 . S
Dy164 O170 2.403 1_455 S
Dy164 O171 2.664 1_455 S
Dy164 O175 2.326 . S
Dy164 O179 2.310 1_554 S
Dy164 O180 2.351 1_455 S
C165 O176 1.185 . S
C165 O177 1.355 . S
C166 O168 1.185 . S
C166 O169 1.355 . S
Dy167 O171 2.310 1_556 S
Dy167 O174 2.351 1_656 S
Dy167 O176 2.398 . S
Dy167 O177 2.491 . S
Dy167 O178 2.403 1_655 S
Dy167 O179 2.664 1_655 S
Dy167 O181 2.326 . S
O168 Dy164 2.398 . S
O168 C166 1.185 . S
O169 Dy164 2.491 . S
O169 C166 1.355 . S
O170 Dy164 2.403 1_655 S
O170 C172 1.254 . S
O171 Dy164 2.664 1_655 S
O171 Dy167 2.310 1_554 S
O171 C172 1.268 . S
C172 O170 1.254 . S
C172 O171 1.268 . S
C173 O178 1.254 . S
C173 O179 1.268 . S
O174 Dy167 2.351 1_454 S
O174 C182 1.249 . S
O175 Dy164 2.326 . S
O175 C182 1.267 . S
O176 C165 1.185 . S
O176 Dy167 2.398 . S
O177 C165 1.355 . S
O177 Dy167 2.491 . S
O178 Dy167 2.403 1_455 S
O178 C173 1.254 . S
O179 Dy164 2.310 1_556 S
O179 Dy167 2.664 1_455 S
O179 C173 1.268 . S
O180 Dy164 2.351 1_655 S
O180 C183 1.249 1_554 S
O181 Dy167 2.326 . S
O181 C183 1.267 . S
C182 O174 1.249 . S
C182 O175 1.267 . S
C183 O180 1.249 1_556 S
C183 O181 1.267 . S
N1 C106 1.171 . S
N18 C125 1.309 . S
C162 N28 1.739 . S
N40 C172 2.335 . S
C142 N5 2.259 . S
C112 N14 1.034 . S
C183 N31 1.772 . S
C153 N41 1.490 . S
N2 C166 1.608 . S
C133 N27 2.050 . S
N44 C123 2.126 . S
N15 C145 1.022 . S
C105 N57 1.683 . S
N70 C126 1.015 . S
N79 C163 2.038 . S
N93 C173 2.162 . S
N54 C143 1.875 . S
C113 N66 1.623 . S
C182 N80 1.346 . S
C152 N96 1.772 . S
N53 C165 1.616 . S
C132 N83 1.876 . S
C122 N92 2.343 . S
N67 C146 1.760 . S
