# Generated by pormake.
# Topology scu, (8,4)-cn, num edge types: 1
# Building blocks:
#     Node 0, Type 0, BuildingBlock: GIZVER_clean_sbu_0, # of connection points: 8
#     Node 1, Type 1, BuildingBlock: IZENUY_clean_linker_0, # of connection points: 4
#     Node 2, Type 1, BuildingBlock: IZENUY_clean_linker_0, # of connection points: 4
#     Edge 3, Type (0, 1), BuildingBlock: OJICUG_clean_linker_0, # of connection points: 2
#     Edge 4, Type (0, 1), BuildingBlock: OJICUG_clean_linker_0, # of connection points: 2
#     Edge 5, Type (0, 1), BuildingBlock: OJICUG_clean_linker_0, # of connection points: 2
#     Edge 6, Type (0, 1), BuildingBlock: OJICUG_clean_linker_0, # of connection points: 2
#     Edge 7, Type (0, 1), BuildingBlock: OJICUG_clean_linker_0, # of connection points: 2
#     Edge 8, Type (0, 1), BuildingBlock: OJICUG_clean_linker_0, # of connection points: 2
#     Edge 9, Type (0, 1), BuildingBlock: OJICUG_clean_linker_0, # of connection points: 2
#     Edge 10, Type (0, 1), BuildingBlock: OJICUG_clean_linker_0, # of connection points: 2
# Relax obj value: 0.118
# Max RMSD: 0.252
# Mean RMSD: 0.210
data_MOF--net-scu--node1-GIZVER_clean_sbu_0--node2-IZENUY_clean_linker_0--edge1-OJICUG_clean_linker_0
_symmetry_space_group_name_H-M    P1
_symmetry_Int_Tables_number       1
_symmetry_cell_setting            triclinic
loop_
_symmetry_equiv_pos_as_xyz
'x, y, z'
_cell_length_a     20.299899
_cell_length_b     20.611927
_cell_length_c     17.072048
_cell_angle_alpha  104.31687
_cell_angle_beta   77.752324
_cell_angle_gamma 110.68403
loop_
_atom_site_label
_atom_site_type_symbol
_atom_site_fract_x
_atom_site_fract_y
_atom_site_fract_z
_atom_type_partial_charge
Co0 Co 0.06413 0.99297 0.16935 0.0
Co1 Co 0.18048 0.07136 0.09526 0.0
Co2 Co 0.05271 0.05732 0.00964 0.0
O3 O 0.09696 1.00779 0.05939 0.0
H4 H 0.10594 0.96702 0.02245 0.0
O5 O 1.00846 0.10685 0.95989 0.0
Co6 Co 1.04134 0.12169 0.84994 0.0
Co7 Co 0.92494 1.04327 0.92398 0.0
H8 H 0.99948 0.14759 0.99682 0.0
O9 O 0.25028 1.03974 0.11049 0.0
O10 O 0.1572 0.05764 0.20214 0.0
O11 O 0.19745 0.17091 0.1037 0.0
O12 O 0.08691 0.15188 0.08505 0.0
O13 O 0.14124 0.07993 0.92935 0.0
O14 O 0.07037 0.14194 0.75134 0.0
O15 O 1.01244 0.19812 0.85849 0.0
O16 O 0.07997 1.04652 0.8256 0.0
O17 O 1.01851 0.96275 0.93422 0.0
O18 O 0.90799 0.94373 0.91548 0.0
O19 O 0.94826 0.05706 0.81713 0.0
O20 O 0.85517 0.07494 0.90875 0.0
C21 C 0.06116 0.92133 0.2362 0.0
C22 C 0.96855 0.05813 0.16577 0.0
C23 C 0.14433 0.1922 0.11303 0.0
C24 C 0.21698 1.04334 0.18451 0.0
C25 C 1.0443 0.19333 0.7831 0.0
C26 C 0.13693 0.05659 0.85354 0.0
C27 C 0.96111 0.92244 0.90618 0.0
C28 C 0.88854 0.07146 0.83477 0.0
O29 O 1.03512 0.97275 0.26796 0.0
O30 O 0.09303 0.91655 0.16082 0.0
O31 O 0.96418 1.03474 0.08997 0.0
O32 O 1.0255 0.06814 0.19367 0.0
H33 H 0.08472 0.47054 0.3819 0.0
H34 H 1.0394 0.4573 0.63712 0.0
H35 H 0.09553 0.29118 0.45685 0.0
H36 H 1.02045 0.64392 0.63731 0.0
H37 H 0.06563 0.65712 0.38208 0.0
H38 H 1.00973 0.82334 0.5624 0.0
N39 N 1.04847 0.5385 0.53508 0.0
N40 N 0.05659 0.57592 0.48411 0.0
C41 C 0.07938 0.44266 0.43018 0.0
C42 C 0.09326 0.37802 0.41045 0.0
C43 C 0.06012 0.47168 0.51238 0.0
C44 C 0.05344 0.43451 0.57409 0.0
C45 C 0.06702 0.36957 0.55508 0.0
C46 C 0.08645 0.34192 0.4729 0.0
C47 C 1.02577 0.67179 0.58903 0.0
C48 C 1.01197 0.73647 0.60877 0.0
C49 C 1.04496 0.64274 0.50682 0.0
C50 C 0.05163 0.67993 0.44511 0.0
C51 C 1.03813 0.7449 0.46413 0.0
C52 C 1.01876 0.77257 0.54633 0.0
H53 H 0.66004 0.07581 0.39417 0.0
H54 H 0.64568 0.06526 0.6464 0.0
H55 H 0.84803 0.10533 0.49402 0.0
H56 H 0.44601 1.04041 0.62539 0.0
H57 H 0.46046 1.0511 0.37319 0.0
H58 H 0.25803 1.0106 0.52538 0.0
N59 N 0.56986 0.05949 0.53709 0.0
N60 N 0.53626 0.05691 0.48253 0.0
C61 C 0.68526 0.07941 0.4457 0.0
C62 C 0.7591 0.09214 0.4353 0.0
C63 C 0.64447 0.07148 0.523 0.0
C64 C 0.67779 0.07401 0.58824 0.0
C65 C 0.75125 0.08529 0.57803 0.0
C66 C 0.79123 0.09599 0.50207 0.0
C67 C 0.42081 1.03682 0.57385 0.0
C68 C 0.34695 1.02393 0.58418 0.0
C69 C 0.46164 1.04487 0.49659 0.0
C70 C 0.42834 1.0423 0.43132 0.0
C71 C 0.35485 1.03086 0.44147 0.0
C72 C 0.31485 1.02008 0.51739 0.0
C73 C 0.19158 0.28479 0.23163 0.0
C74 C 0.14128 0.25565 0.17657 0.0
H75 H 0.21523 0.34638 0.34931 0.0
C76 C 0.08086 0.27817 0.19335 0.0
H77 H 0.23871 0.26894 0.22114 0.0
C78 C 0.06788 0.32332 0.26696 0.0
C79 C 0.11482 0.34629 0.32515 0.0
H80 H 1.04095 0.25686 0.15247 0.0
H81 H 1.01855 0.33568 0.28106 0.0
C82 C 0.17811 0.32902 0.30539 0.0
C83 C 0.83914 1.03109 0.22135 0.0
C84 C 0.90942 0.07666 0.22236 0.0
H85 H 0.7348 1.00049 0.28968 0.0
C86 C 0.92479 0.13577 0.2854 0.0
H87 H 0.82619 0.98516 0.17313 0.0
C88 C 0.87243 0.14583 0.35016 0.0
C89 C 0.80423 0.09555 0.3547 0.0
H90 H 0.97844 0.17202 0.2871 0.0
H91 H 0.88706 0.18966 0.40038 0.0
C92 C 0.7868 1.04017 0.28765 0.0
C93 C 0.10321 0.83431 0.27778 0.0
C94 C 0.05363 0.87012 0.28769 0.0
H95 H 0.13797 0.76696 0.32661 0.0
C96 C 0.99688 0.86001 0.35166 0.0
H97 H 0.14766 0.8414 0.22918 0.0
C98 C 0.99081 0.81724 0.40621 0.0
C99 C 1.04196 0.78399 0.39947 0.0
H100 H 0.95709 0.8859 0.36027 0.0
H101 H 0.94621 0.81106 0.45468 0.0
C102 C 0.09754 0.7917 0.33347 0.0
C103 C 0.23017 0.06527 0.33136 0.0
C104 C 0.2503 1.03719 0.24992 0.0
H105 H 0.2495 0.08847 0.45467 0.0
C106 C 0.30482 1.00638 0.23131 0.0
H107 H 0.18893 0.09009 0.34745 0.0
C108 C 0.33877 1.00392 0.29322 0.0
C109 C 0.31935 1.03297 0.37479 0.0
H110 H 0.32117 0.98401 0.16889 0.0
H111 H 0.37976 0.97882 0.27724 0.0
C112 C 0.26483 0.06397 0.3929 0.0
C113 C 1.02472 0.83663 0.82571 0.0
C114 C 0.96419 0.85899 0.84264 0.0
H115 H 0.08704 0.7792 0.73789 0.0
C116 C 0.91374 0.82966 0.78775 0.0
H117 H 0.06475 0.85809 0.86645 0.0
C118 C 0.92716 0.78539 0.714 0.0
C119 C 0.99052 0.76825 0.69409 0.0
H120 H 0.86653 0.84538 0.79837 0.0
H121 H 0.88992 0.76787 0.67021 0.0
C122 C 1.03764 0.79144 0.75211 0.0
C123 C 0.18114 0.97942 0.73374 0.0
C124 C 0.19624 1.03844 0.79693 0.0
H125 H 0.21923 0.92593 0.61869 0.0
C126 C 0.2664 0.08427 0.79812 0.0
H127 H 0.12759 0.94297 0.73191 0.0
C128 C 0.31889 0.07553 0.73187 0.0
C129 C 0.30172 1.02023 0.66468 0.0
H130 H 0.27914 0.13013 0.84646 0.0
H131 H 0.37079 0.11539 0.72999 0.0
C132 C 0.23366 0.9697 0.66902 0.0
C133 C 1.00205 0.28017 0.74144 0.0
C134 C 0.05174 0.2445 0.7316 0.0
H135 H 0.96713 0.34736 0.69254 0.0
C136 C 0.10851 0.25469 0.66765 0.0
H137 H 0.95758 0.273 0.79001 0.0
C138 C 0.11449 0.2974 0.61307 0.0
C139 C 0.06324 0.33052 0.61976 0.0
H140 H 0.14838 0.2289 0.65909 0.0
H141 H 0.15911 0.30364 0.56463 0.0
C142 C 1.00764 0.32273 0.68572 0.0
C143 C 0.80107 0.10905 0.78813 0.0
C144 C 0.85542 0.078 0.76941 0.0
H145 H 0.72642 0.13712 0.74234 0.0
C146 C 0.87558 1.05011 0.68791 0.0
H147 H 0.78472 0.1313 0.85059 0.0
C148 C 0.84108 1.05177 0.62642 0.0
C149 C 0.78671 0.08296 0.64464 0.0
H150 H 0.91671 1.02513 0.67173 0.0
H151 H 0.8564 1.02736 0.5646 0.0
C152 C 0.76729 0.11188 0.72626 0.0
loop_
_geom_bond_atom_site_label_1
_geom_bond_atom_site_label_2
_geom_bond_distance
_geom_bond_site_symmetry_2
_ccdc_geom_bond_type
Co0 O3 2.046 . S
Co0 O10 2.274 1_565 S
Co0 O29 2.287 1_455 S
Co0 O30 2.080 . S
Co0 O32 2.002 1_455 S
Co1 O3 2.122 1_545 S
Co1 O9 2.073 . S
Co1 O10 2.327 . S
Co1 O11 1.976 . S
Co2 O3 2.106 1_545 S
Co2 O5 2.068 1_454 S
Co2 O12 2.112 . S
Co2 O13 2.152 1_554 S
Co2 O17 2.110 1_444 S
Co2 O31 2.136 1_445 S
O3 Co0 2.046 . S
O3 Co1 2.122 1_565 S
O3 Co2 2.106 1_565 S
O3 H4 0.980 . S
H4 O3 0.980 . S
O5 Co2 2.068 1_656 S
O5 Co6 2.042 1_655 S
O5 Co7 2.122 1_545 S
O5 H8 0.980 . S
Co6 O5 2.042 1_455 S
Co6 O14 2.286 . S
Co6 O15 2.069 1_455 S
Co6 O16 2.015 . S
Co6 O19 2.264 1_445 S
Co7 O5 2.122 1_565 S
Co7 O18 1.976 . S
Co7 O19 2.327 . S
Co7 O20 2.073 . S
H8 O5 0.980 . S
O9 Co1 2.073 . S
O9 C24 1.245 1_545 S
O10 Co0 2.274 1_545 S
O10 Co1 2.327 . S
O10 C24 1.257 1_545 S
O11 Co1 1.976 . S
O11 C23 1.251 . S
O12 Co2 2.112 . S
O12 C23 1.274 . S
O13 Co2 2.152 1_556 S
O13 C26 1.246 . S
O14 Co6 2.286 . S
O14 C25 1.259 1_455 S
O15 Co6 2.069 1_655 S
O15 C25 1.289 . S
O16 Co6 2.015 . S
O16 C26 1.257 . S
O17 Co2 2.110 1_666 S
O17 C27 1.274 . S
O18 Co7 1.976 . S
O18 C27 1.251 . S
O19 Co6 2.264 1_665 S
O19 Co7 2.327 . S
O19 C28 1.257 1_565 S
O20 Co7 2.073 . S
O20 C28 1.245 1_565 S
C21 O29 1.259 1_455 S
C21 O30 1.289 . S
C22 O31 1.246 . S
C22 O32 1.257 . S
C23 O11 1.251 . S
C23 O12 1.274 . S
C24 O9 1.245 1_565 S
C24 O10 1.257 1_565 S
C25 O14 1.259 1_655 S
C25 O15 1.289 . S
C26 O13 1.246 . S
C26 O16 1.257 . S
C27 O17 1.274 . S
C27 O18 1.251 . S
C28 O19 1.257 1_545 S
C28 O20 1.245 1_545 S
O29 Co0 2.287 1_655 S
O29 C21 1.259 1_655 S
O30 Co0 2.080 . S
O30 C21 1.289 . S
O31 Co2 2.136 1_665 S
O31 C22 1.246 . S
O32 Co0 2.002 1_655 S
O32 C22 1.257 . S
H33 C41 0.940 . S
H34 C44 0.940 . S
H35 C46 0.940 . S
H36 C47 0.940 . S
H37 C50 0.940 . S
H38 C52 0.940 . S
N39 N40 1.190 . S
N39 C43 1.477 . S
N40 N39 1.190 . S
N40 C49 1.477 . S
C41 H33 0.940 . S
C41 C42 1.390 1_455 S
C41 C43 1.322 . S
C42 C41 1.390 1_655 S
C42 C46 1.370 . S
C43 N39 1.477 . S
C43 C41 1.322 . S
C43 C44 1.447 . S
C44 H34 0.940 . S
C44 C43 1.447 . S
C44 C45 1.373 . S
C45 C44 1.373 . S
C45 C46 1.417 1_455 S
C46 H35 0.940 . S
C46 C42 1.370 . S
C46 C45 1.417 1_655 S
C47 H36 0.940 . S
C47 C48 1.390 1_455 S
C47 C49 1.322 . S
C48 C47 1.390 1_655 S
C48 C52 1.370 . S
C49 N40 1.477 . S
C49 C47 1.322 . S
C49 C50 1.447 . S
C50 H37 0.940 . S
C50 C49 1.447 . S
C50 C51 1.373 . S
C51 C50 1.373 . S
C51 C52 1.417 1_455 S
C52 H38 0.940 . S
C52 C48 1.370 . S
C52 C51 1.417 1_655 S
H53 C61 0.940 . S
H54 C64 0.940 . S
H55 C66 0.940 . S
H56 C67 0.940 . S
H57 C70 0.940 . S
H58 C72 0.940 . S
N59 N60 1.190 . S
N59 C63 1.477 . S
N60 N59 1.190 . S
N60 C69 1.477 . S
C61 H53 0.940 . S
C61 C62 1.390 1_545 S
C61 C63 1.322 . S
C62 C61 1.390 1_565 S
C62 C66 1.370 . S
C63 N59 1.477 . S
C63 C61 1.322 . S
C63 C64 1.447 . S
C64 H54 0.940 . S
C64 C63 1.447 . S
C64 C65 1.373 . S
C65 C64 1.373 . S
C65 C66 1.417 1_545 S
C66 H55 0.940 . S
C66 C62 1.370 . S
C66 C65 1.417 1_565 S
C67 H56 0.940 . S
C67 C68 1.390 1_545 S
C67 C69 1.322 . S
C68 C67 1.390 1_565 S
C68 C72 1.370 . S
C69 N60 1.477 . S
C69 C67 1.322 . S
C69 C70 1.447 . S
C70 H57 0.940 . S
C70 C69 1.447 . S
C70 C71 1.373 . S
C71 C70 1.373 . S
C71 C72 1.417 1_545 S
C72 H58 0.940 . S
C72 C68 1.370 . S
C72 C71 1.417 1_565 S
C73 C74 1.387 1_455 S
C73 H77 0.950 . S
C73 C82 1.390 . S
C74 C73 1.387 1_655 S
C74 C76 1.387 . S
H75 C82 0.950 . S
C76 C74 1.387 . S
C76 C78 1.390 . S
C76 H80 0.950 . S
H77 C73 0.950 . S
C78 C76 1.390 . S
C78 C79 1.387 . S
C78 H81 0.950 . S
C79 C78 1.387 . S
C79 C82 1.387 1_655 S
H80 C76 0.950 . S
H81 C78 0.950 . S
C82 C73 1.390 . S
C82 H75 0.950 . S
C82 C79 1.387 1_455 S
C83 C84 1.395 . S
C83 H87 0.950 . S
C83 C92 1.390 . S
C84 C83 1.395 . S
C84 C86 1.379 1_565 S
H85 C92 0.950 . S
C86 C84 1.379 1_545 S
C86 C88 1.390 . S
C86 H90 0.950 . S
H87 C83 0.950 . S
C88 C86 1.390 . S
C88 C89 1.387 1_545 S
C88 H91 0.950 . S
C89 C88 1.387 1_565 S
C89 C92 1.387 . S
H90 C86 0.950 . S
H91 C88 0.950 . S
C92 C83 1.390 . S
C92 H85 0.950 . S
C92 C89 1.387 . S
C93 C94 1.387 . S
C93 H97 0.950 . S
C93 C102 1.390 . S
C94 C93 1.387 . S
C94 C96 1.387 . S
H95 C102 0.950 . S
C96 C94 1.387 . S
C96 C98 1.390 . S
C96 H100 0.950 1_455 S
H97 C93 0.950 . S
C98 C96 1.390 . S
C98 C99 1.387 . S
C98 H101 0.950 1_455 S
C99 C98 1.387 . S
C99 C102 1.387 . S
H100 C96 0.950 1_655 S
H101 C98 0.950 1_655 S
C102 C93 1.390 . S
C102 H95 0.950 . S
C102 C99 1.387 . S
C103 C104 1.387 1_545 S
C103 H107 0.950 . S
C103 C112 1.390 . S
C104 C103 1.387 1_565 S
C104 C106 1.387 . S
H105 C112 0.950 . S
C106 C104 1.387 . S
C106 C108 1.390 . S
C106 H110 0.950 . S
H107 C103 0.950 . S
C108 C106 1.390 . S
C108 C109 1.387 1_565 S
C108 H111 0.950 . S
C109 C108 1.387 1_545 S
C109 C112 1.387 . S
H110 C106 0.950 . S
H111 C108 0.950 . S
C112 C103 1.390 . S
C112 H105 0.950 . S
C112 C109 1.387 . S
C113 C114 1.387 . S
C113 H117 0.950 . S
C113 C122 1.390 . S
C114 C113 1.387 . S
C114 C116 1.387 1_455 S
H115 C122 0.950 . S
C116 C114 1.387 1_655 S
C116 C118 1.390 . S
C116 H120 0.950 . S
H117 C113 0.950 . S
C118 C116 1.390 . S
C118 C119 1.387 . S
C118 H121 0.950 . S
C119 C118 1.387 . S
C119 C122 1.387 1_655 S
H120 C116 0.950 . S
H121 C118 0.950 . S
C122 C113 1.390 . S
C122 H115 0.950 . S
C122 C119 1.387 1_455 S
C123 C124 1.378 1_565 S
C123 H127 0.950 . S
C123 C132 1.390 . S
C124 C123 1.378 1_545 S
C124 C126 1.396 . S
H125 C132 0.950 . S
C126 C124 1.396 . S
C126 C128 1.390 . S
C126 H130 0.950 . S
H127 C123 0.950 . S
C128 C126 1.390 . S
C128 C129 1.387 1_545 S
C128 H131 0.950 . S
C129 C128 1.387 1_565 S
C129 C132 1.387 . S
H130 C126 0.950 . S
H131 C128 0.950 . S
C132 C123 1.390 . S
C132 H125 0.950 . S
C132 C129 1.387 . S
C133 C134 1.387 . S
C133 H137 0.950 . S
C133 C142 1.390 . S
C134 C133 1.387 . S
C134 C136 1.387 1_655 S
H135 C142 0.950 . S
C136 C134 1.387 1_455 S
C136 C138 1.390 . S
C136 H140 0.950 . S
H137 C133 0.950 . S
C138 C136 1.390 . S
C138 C139 1.387 . S
C138 H141 0.950 . S
C139 C138 1.387 . S
C139 C142 1.387 1_455 S
H140 C136 0.950 . S
H141 C138 0.950 . S
C142 C133 1.390 . S
C142 H135 0.950 . S
C142 C139 1.387 1_655 S
C143 C144 1.387 . S
C143 H147 0.950 . S
C143 C152 1.390 . S
C144 C143 1.387 . S
C144 C146 1.387 1_545 S
H145 C152 0.950 . S
C146 C144 1.387 1_565 S
C146 C148 1.390 . S
C146 H150 0.950 . S
H147 C143 0.950 . S
C148 C146 1.390 . S
C148 C149 1.387 1_565 S
C148 H151 0.950 . S
C149 C148 1.387 1_545 S
C149 C152 1.387 . S
H150 C146 0.950 . S
H151 C148 0.950 . S
C152 C143 1.390 . S
C152 H145 0.950 . S
C152 C149 1.387 . S
C74 C23 1.524 1_655 S
C79 C42 1.597 . S
C84 C22 1.642 . S
C89 C62 1.665 . S
C94 C21 1.827 . S
C99 C51 1.817 . S
C104 C24 1.654 . S
C109 C71 1.730 . S
C114 C27 1.508 1_455 S
C119 C48 1.598 . S
C124 C26 1.651 . S
C129 C68 1.666 . S
C139 C45 1.825 . S
C134 C25 1.829 . S
C144 C28 1.655 . S
C149 C65 1.718 . S
