# Generated by pormake.
# Topology pyr, (3,6)-cn, num edge types: 1
# Building blocks:
#     Node 0, Type 0, BuildingBlock: INOVEN_clean_linker_0, # of connection points: 3
#     Node 1, Type 0, BuildingBlock: INOVEN_clean_linker_0, # of connection points: 3
#     Node 2, Type 0, BuildingBlock: INOVEN_clean_linker_0, # of connection points: 3
#     Node 3, Type 0, BuildingBlock: INOVEN_clean_linker_0, # of connection points: 3
#     Node 4, Type 0, BuildingBlock: INOVEN_clean_linker_0, # of connection points: 3
#     Node 5, Type 0, BuildingBlock: INOVEN_clean_linker_0, # of connection points: 3
#     Node 6, Type 0, BuildingBlock: INOVEN_clean_linker_0, # of connection points: 3
#     Node 7, Type 0, BuildingBlock: INOVEN_clean_linker_0, # of connection points: 3
#     Node 8, Type 1, BuildingBlock: MIDCAF_clean_sbu_0, # of connection points: 6
#     Node 9, Type 1, BuildingBlock: MIDCAF_clean_sbu_0, # of connection points: 6
#     Node 10, Type 1, BuildingBlock: MIDCAF_clean_sbu_0, # of connection points: 6
#     Node 11, Type 1, BuildingBlock: MIDCAF_clean_sbu_0, # of connection points: 6
#     Edge 12, Type (0, 1), None
#     Edge 13, Type (0, 1), None
#     Edge 14, Type (0, 1), None
#     Edge 15, Type (0, 1), None
#     Edge 16, Type (0, 1), None
#     Edge 17, Type (0, 1), None
#     Edge 18, Type (0, 1), None
#     Edge 19, Type (0, 1), None
#     Edge 20, Type (0, 1), None
#     Edge 21, Type (0, 1), None
#     Edge 22, Type (0, 1), None
#     Edge 23, Type (0, 1), None
#     Edge 24, Type (0, 1), None
#     Edge 25, Type (0, 1), None
#     Edge 26, Type (0, 1), None
#     Edge 27, Type (0, 1), None
#     Edge 28, Type (0, 1), None
#     Edge 29, Type (0, 1), None
#     Edge 30, Type (0, 1), None
#     Edge 31, Type (0, 1), None
#     Edge 32, Type (0, 1), None
#     Edge 33, Type (0, 1), None
#     Edge 34, Type (0, 1), None
#     Edge 35, Type (0, 1), None
# Relax obj value: 0.098
# Max RMSD: 0.172
# Mean RMSD: 0.126
data_MOF--net-pyr--node1-MIDCAF_clean_sbu_0--node2-INOVEN_clean_linker_0--edge1-none
_symmetry_space_group_name_H-M    P1
_symmetry_Int_Tables_number       1
_symmetry_cell_setting            triclinic
loop_
_symmetry_equiv_pos_as_xyz
'x, y, z'
_cell_length_a     15.01391
_cell_length_b     15.113125
_cell_length_c     15.569988
_cell_angle_alpha  90.730843
_cell_angle_beta   90.2613
_cell_angle_gamma 99.250877
loop_
_atom_site_label
_atom_site_type_symbol
_atom_site_fract_x
_atom_site_fract_y
_atom_site_fract_z
_atom_type_partial_charge
H0 H 0.14934 0.27912 0.40085 0.0
H1 H 0.30032 0.06817 0.33814 0.0
H2 H 0.32567 0.30609 0.18467 0.0
N3 N 0.19195 0.37518 0.27126 0.0
N4 N 0.20676 0.42355 0.20684 0.0
C5 C 0.2027 0.25504 0.36535 0.0
C6 C 0.22259 0.17007 0.38203 0.0
C7 C 0.23849 0.30401 0.29479 0.0
C8 C 0.3015 0.26958 0.24163 0.0
C9 C 0.32808 0.1849 0.25834 0.0
C10 C 0.28744 0.1359 0.32909 0.0
H11 H 0.28045 0.69668 0.69227 0.0
H12 H 0.48909 0.79868 0.87619 0.0
H13 H 0.24927 0.91924 0.85459 0.0
N14 N 0.18849 0.82308 0.71227 0.0
N15 N 0.14882 0.88874 0.7202 0.0
C16 C 0.30487 0.73974 0.74633 0.0
C17 C 0.38995 0.73696 0.78101 0.0
C18 C 0.25632 0.80655 0.77025 0.0
C19 C 0.28745 0.86652 0.83783 0.0
C20 C 0.36945 0.86226 0.88079 0.0
C21 C 0.4222 0.7982 0.84967 0.0
H22 H 0.62 0.25724 0.82528 0.0
H23 H 0.7782 0.25361 0.05512 0.0
H24 H 0.8861 0.40516 0.83668 0.0
N25 N 0.73519 0.39805 0.76172 0.0
N26 N 0.65902 0.39592 0.72979 0.0
C27 C 0.68416 0.27336 0.85868 0.0
C28 C 0.69413 0.23963 0.9414 0.0
C29 C 0.75364 0.33493 0.82259 0.0
C30 C 0.83525 0.35653 0.86552 0.0
C31 C 0.84288 0.33443 0.95148 0.0
C32 C 0.77396 0.27119 0.98816 0.0
H33 H 0.66164 0.64964 0.33685 0.0
H34 H 0.73316 0.86847 0.51466 0.0
H35 H 0.86863 0.86721 0.27391 0.0
N36 N 0.79603 0.69902 0.23366 0.0
N37 N 0.86488 0.7236 0.18977 0.0
C38 C 0.69395 0.71762 0.3495 0.0
C39 C 0.68131 0.75848 0.42922 0.0
C40 C 0.76139 0.75655 0.29298 0.0
C41 C 0.81247 0.83981 0.31425 0.0
C42 C 0.8053 0.87756 0.39584 0.0
C43 C 0.73611 0.84025 0.45053 0.0
H44 H 0.92918 0.10756 0.94529 0.0
H45 H 0.04282 0.88757 0.83765 0.0
H46 H 0.98313 0.89511 0.10661 0.0
N47 N 0.88744 0.02399 0.09245 0.0
N48 N 0.82749 0.06848 0.07276 0.0
C49 C 0.95799 0.04671 0.95215 0.0
C50 C 0.98936 1.00529 0.87934 0.0
C51 C 0.95206 1.00531 0.03241 0.0
C52 C 0.98864 0.92716 0.0445 0.0
C53 C 0.02458 0.88588 0.97534 0.0
C54 C 0.02307 0.92409 0.89205 0.0
H55 H 0.43954 0.07985 0.41329 0.0
H56 H 0.70452 0.00804 0.40758 0.0
H57 H 0.62206 0.15554 0.62286 0.0
N58 N 0.47013 0.18636 0.54387 0.0
N59 N 0.50002 0.25433 0.58737 0.0
C60 C 0.50282 0.0755 0.44516 0.0
C61 C 0.56677 0.0342 0.40361 0.0
C62 C 0.52368 0.12086 0.52262 0.0
C63 C 0.60715 0.11828 0.56323 0.0
C64 C 0.67346 0.07469 0.52406 0.0
C65 C 0.65273 0.03452 0.4427 0.0
H66 H 0.58202 0.66648 0.16705 0.0
H67 H 0.37972 0.75076 1.00814 0.0
H68 H 0.33889 0.48556 0.10683 0.0
N69 N 0.47142 0.52327 0.22105 0.0
N70 N 0.50816 0.56456 0.28515 0.0
C71 C 0.52058 0.65069 0.12923 0.0
C72 C 0.49124 0.71724 0.0795 0.0
C73 C 0.4633 0.56949 0.14371 0.0
C74 C 0.38312 0.54818 0.09603 0.0
C75 C 0.35507 0.61271 0.04295 0.0
C76 C 0.40798 0.69763 0.03777 0.0
H77 H 0.94232 0.40543 0.63254 0.0
H78 H 0.1943 0.35006 0.53173 0.0
H79 H 0.16219 0.619 0.60171 0.0
N80 N 0.02117 0.56378 0.69301 0.0
N81 N -0.00409 0.52249 0.75964 0.0
C82 C 0.00913 0.4279 0.60706 0.0
C83 C 0.06173 0.36544 0.5756 0.0
C84 C 0.04692 0.51751 0.62098 0.0
C85 C 0.13261 0.54961 0.58998 0.0
C86 C 0.1857 0.48984 0.55778 0.0
C87 C 0.15059 0.39722 0.55065 0.0
Zn88 Zn 0.89974 0.13621 0.6751 0.0
Zn89 Zn 0.06359 0.95272 0.49022 0.0
Zn90 Zn 0.9878 0.06461 0.57552 0.0
C91 C 0.16216 0.11069 0.44154 0.0
C92 C 0.88647 0.93073 0.43402 0.0
O93 O 0.00618 0.02348 0.7205 0.0
O94 O 0.91643 0.09844 0.79162 0.0
C95 C 0.02638 0.26896 0.58876 0.0
O96 O 0.10083 0.13871 0.48941 0.0
O97 O 0.16409 0.02796 0.435 0.0
O98 O 0.96092 0.90686 0.4159 0.0
O99 O 0.88154 0.98787 0.49522 0.0
O100 O 0.96633 0.25288 0.64531 0.0
O101 O 0.05257 0.20331 0.54781 0.0
O102 O 0.83418 0.05225 0.534 0.0
O103 O 0.77455 0.12214 0.63826 0.0
C104 C 0.76472 0.08166 0.56696 0.0
O105 O 0.05485 0.98062 0.66151 0.0
O106 O 0.10039 0.87587 0.57953 0.0
C107 C 0.97145 0.04388 0.79299 0.0
C108 C 0.09523 0.91195 0.65239 0.0
Zn109 Zn 0.43524 0.11276 1.01532 0.0
Zn110 Zn 0.62572 0.93816 0.18458 0.0
Zn111 Zn 0.5295 0.02394 0.11172 0.0
C112 C 0.74839 0.05872 0.12173 0.0
C113 C 0.53712 0.81067 0.08999 0.0
O114 O 0.44181 0.09168 0.20758 0.0
O115 O 0.36714 0.16029 0.11331 0.0
C116 C 0.61518 0.18397 0.98215 0.0
O117 O 0.6744 0.07036 0.08443 0.0
O118 O 0.74505 0.01 0.18679 0.0
O119 O 0.6145 0.82396 0.12377 0.0
O120 O 0.49376 0.87737 0.08003 0.0
O121 O 0.53661 0.19615 0.96152 0.0
O122 O 0.6252 0.12291 0.03687 0.0
O123 O 0.45339 0.924 1.01215 0.0
O124 O 0.37941 0.01117 0.93674 0.0
C125 C 0.40249 0.93501 0.94692 0.0
O126 O 0.52028 0.04287 0.25492 0.0
O127 O 0.58152 0.92751 0.2993 0.0
C128 C 0.3823 0.14304 0.19097 0.0
C129 C 0.54865 0.99696 0.31625 0.0
Zn130 Zn 0.61303 0.64494 0.67086 0.0
Zn131 Zn 0.40654 0.43804 0.4777 0.0
Zn132 Zn 0.48495 0.54838 0.57389 0.0
C133 C 0.45572 0.32936 0.58281 0.0
C134 C 0.50334 0.52497 0.36654 0.0
O135 O 0.41953 0.63126 0.66831 0.0
O136 O 0.53164 0.69329 0.75366 0.0
C137 C 0.63755 0.47207 0.68866 0.0
O138 O 0.50255 0.4073 0.59725 0.0
O139 O 0.3844 0.32319 0.53865 0.0
O140 O 0.47642 0.44183 0.37221 0.0
O141 O 0.50832 0.5761 0.43434 0.0
O142 O 0.68026 0.54871 0.70799 0.0
O143 O 0.56514 0.46407 0.64316 0.0
O144 O 0.56682 0.64148 0.48469 0.0
O145 O 0.66108 0.72306 0.57512 0.0
C146 C 0.63172 0.70682 0.49942 0.0
O147 O 0.34024 0.54267 0.59462 0.0
O148 O 0.3021 0.49652 0.46276 0.0
C149 C 0.44877 0.68134 0.73428 0.0
C150 C 0.27978 0.52077 0.53588 0.0
Zn151 Zn 0.13681 0.67429 0.93457 0.0
Zn152 Zn 0.96889 0.49008 0.1482 0.0
Zn153 Zn 0.04794 0.58442 0.03186 0.0
C154 C 0.14091 0.47762 0.18425 0.0
C155 C 0.90834 0.39471 1.0061 0.0
O156 O 0.01923 0.73107 0.02349 0.0
O157 O 0.13888 0.80007 0.9552 0.0
C158 C 0.26396 0.60225 1.00595 0.0
O159 O 0.1469 0.52158 0.11329 0.0
O160 O 0.06707 0.46615 0.22424 0.0
O161 O 0.90642 0.38327 0.08609 0.0
O162 O 0.95511 0.46678 0.97516 0.0
O163 O 0.25503 0.63505 0.93308 0.0
O164 O 0.19433 0.58225 0.05442 0.0
O165 O 0.00182 0.52521 0.90909 0.0
O166 O 0.05598 0.64547 0.83703 0.0
C167 C 0.00942 0.56861 0.83848 0.0
O168 O 0.9722 0.67825 0.09627 0.0
O169 O 0.89263 0.57919 0.18065 0.0
C170 C 0.06331 0.8027 0.9884 0.0
C171 C 0.90889 0.65758 0.15128 0.0
loop_
_geom_bond_atom_site_label_1
_geom_bond_atom_site_label_2
_geom_bond_distance
_geom_bond_site_symmetry_2
_ccdc_geom_bond_type
H0 C5 0.929 . S
H1 C10 0.931 . S
H2 C8 0.930 . S
N3 N4 1.234 . S
N3 C7 1.453 . S
N4 N3 1.234 . S
C5 H0 0.929 . S
C5 C6 1.373 . S
C5 C7 1.368 . S
C6 C5 1.373 . S
C6 C10 1.397 . S
C7 N3 1.453 . S
C7 C5 1.368 . S
C7 C8 1.373 . S
C8 H2 0.930 . S
C8 C7 1.373 . S
C8 C9 1.371 . S
C9 C8 1.371 . S
C9 C10 1.383 . S
C10 H1 0.931 . S
C10 C6 1.397 . S
C10 C9 1.383 . S
H11 C16 0.929 . S
H12 C21 0.931 . S
H13 C19 0.930 . S
N14 N15 1.234 . S
N14 C18 1.453 . S
N15 N14 1.234 . S
C16 H11 0.929 . S
C16 C17 1.373 . S
C16 C18 1.368 . S
C17 C16 1.373 . S
C17 C21 1.397 . S
C18 N14 1.453 . S
C18 C16 1.368 . S
C18 C19 1.373 . S
C19 H13 0.930 . S
C19 C18 1.373 . S
C19 C20 1.371 . S
C20 C19 1.371 . S
C20 C21 1.383 . S
C21 H12 0.931 . S
C21 C17 1.397 . S
C21 C20 1.383 . S
H22 C27 0.929 . S
H23 C32 0.931 1_554 S
H24 C30 0.930 . S
N25 N26 1.234 . S
N25 C29 1.453 . S
N26 N25 1.234 . S
C27 H22 0.929 . S
C27 C28 1.373 . S
C27 C29 1.368 . S
C28 C27 1.373 . S
C28 C32 1.397 . S
C29 N25 1.453 . S
C29 C27 1.368 . S
C29 C30 1.373 . S
C30 H24 0.930 . S
C30 C29 1.373 . S
C30 C31 1.371 . S
C31 C30 1.371 . S
C31 C32 1.383 . S
C32 H23 0.931 1_556 S
C32 C28 1.397 . S
C32 C31 1.383 . S
H33 C38 0.929 . S
H34 C43 0.931 . S
H35 C41 0.930 . S
N36 N37 1.234 . S
N36 C40 1.453 . S
N37 N36 1.234 . S
C38 H33 0.929 . S
C38 C39 1.373 . S
C38 C40 1.368 . S
C39 C38 1.373 . S
C39 C43 1.397 . S
C40 N36 1.453 . S
C40 C38 1.368 . S
C40 C41 1.373 . S
C41 H35 0.930 . S
C41 C40 1.373 . S
C41 C42 1.371 . S
C42 C41 1.371 . S
C42 C43 1.383 . S
C43 H34 0.931 . S
C43 C39 1.397 . S
C43 C42 1.383 . S
H44 C49 0.929 . S
H45 C54 0.931 . S
H46 C52 0.930 1_554 S
N47 N48 1.234 1_556 S
N47 C51 1.449 1_545 S
N48 N47 1.234 1_554 S
C49 H44 0.929 . S
C49 C50 1.373 1_645 S
C49 C51 1.366 1_545 S
C50 C49 1.373 1_465 S
C50 C54 1.397 . S
C51 N47 1.449 1_565 S
C51 C49 1.366 1_565 S
C51 C52 1.378 . S
C52 H46 0.930 1_556 S
C52 C51 1.378 . S
C52 C53 1.371 1_655 S
C53 C52 1.371 1_455 S
C53 C54 1.383 . S
C54 H45 0.931 . S
C54 C50 1.397 . S
C54 C53 1.383 . S
H55 C60 0.929 . S
H56 C65 0.931 1_565 S
H57 C63 0.930 . S
N58 N59 1.234 . S
N58 C62 1.453 . S
N59 N58 1.234 . S
C60 H55 0.929 . S
C60 C61 1.373 . S
C60 C62 1.368 . S
C61 C60 1.373 . S
C61 C65 1.397 . S
C62 N58 1.453 . S
C62 C60 1.368 . S
C62 C63 1.373 . S
C63 H57 0.930 . S
C63 C62 1.373 . S
C63 C64 1.371 . S
C64 C63 1.371 . S
C64 C65 1.383 . S
C65 H56 0.931 1_545 S
C65 C61 1.397 . S
C65 C64 1.383 . S
H66 C71 0.929 . S
H67 C76 0.931 . S
H68 C74 0.930 . S
N69 N70 1.234 . S
N69 C73 1.453 . S
N70 N69 1.234 . S
C71 H66 0.929 . S
C71 C72 1.373 . S
C71 C73 1.368 . S
C72 C71 1.373 . S
C72 C76 1.397 . S
C73 N69 1.453 . S
C73 C71 1.368 . S
C73 C74 1.373 . S
C74 H68 0.930 . S
C74 C73 1.373 . S
C74 C75 1.371 . S
C75 C74 1.371 . S
C75 C76 1.383 . S
C76 H67 0.931 . S
C76 C72 1.397 . S
C76 C75 1.383 . S
H77 C82 0.929 1_655 S
H78 C87 0.931 . S
H79 C85 0.930 . S
N80 N81 1.234 . S
N80 C84 1.453 . S
N81 N80 1.234 . S
C82 H77 0.929 1_455 S
C82 C83 1.373 . S
C82 C84 1.368 . S
C83 C82 1.373 . S
C83 C87 1.397 . S
C84 N80 1.453 . S
C84 C82 1.368 . S
C84 C85 1.373 . S
C85 H79 0.930 . S
C85 C84 1.373 . S
C85 C86 1.371 . S
C86 C85 1.371 . S
C86 C87 1.383 . S
C87 H78 0.931 . S
C87 C83 1.397 . S
C87 C86 1.383 . S
Zn88 O94 1.920 . S
Zn88 O100 1.898 . S
Zn88 O103 1.905 . S
Zn89 O97 1.905 1_565 S
Zn89 O98 1.898 . S
Zn89 O106 1.920 . S
Zn90 O93 2.080 1_445 S
Zn90 O96 2.114 . S
Zn90 O99 2.120 1_445 S
Zn90 O101 2.120 . S
Zn90 O102 2.114 1_455 S
Zn90 O105 2.080 . S
C91 O96 1.166 . S
C91 O97 1.182 . S
C92 O98 1.167 1_655 S
C92 O99 1.299 . S
O93 Zn90 2.080 1_665 S
O93 C107 1.305 1_565 S
O94 Zn88 1.920 . S
O94 C107 1.234 . S
C95 O100 1.167 1_455 S
C95 O101 1.299 . S
O96 Zn90 2.114 . S
O96 C91 1.166 . S
O97 Zn89 1.905 1_545 S
O97 C91 1.182 . S
O98 Zn89 1.898 . S
O98 C92 1.167 1_455 S
O99 Zn90 2.120 1_665 S
O99 C92 1.299 . S
O100 Zn88 1.898 . S
O100 C95 1.167 1_655 S
O101 Zn90 2.120 . S
O101 C95 1.299 . S
O102 Zn90 2.114 1_655 S
O102 C104 1.166 . S
O103 Zn88 1.905 . S
O103 C104 1.182 . S
C104 O102 1.166 . S
C104 O103 1.182 . S
O105 Zn90 2.080 . S
O105 C108 1.305 1_545 S
O106 Zn89 1.920 . S
O106 C108 1.234 . S
C107 O93 1.305 1_545 S
C107 O94 1.234 . S
C108 O105 1.305 1_565 S
C108 O106 1.234 . S
Zn109 O115 1.920 1_556 S
Zn109 O121 1.898 . S
Zn109 O124 1.905 . S
Zn110 O118 1.905 . S
Zn110 O119 1.898 . S
Zn110 O127 1.920 . S
Zn111 O114 2.080 . S
Zn111 O117 2.114 1_545 S
Zn111 O120 2.120 1_545 S
Zn111 O122 2.120 . S
Zn111 O123 2.114 1_544 S
Zn111 O126 2.080 . S
C112 O117 1.166 . S
C112 O118 1.182 . S
C113 O119 1.167 . S
C113 O120 1.299 . S
O114 Zn111 2.080 . S
O114 C128 1.305 . S
O115 Zn109 1.920 1_554 S
O115 C128 1.234 . S
C116 O121 1.167 . S
C116 O122 1.299 1_556 S
O117 Zn111 2.114 1_565 S
O117 C112 1.166 . S
O118 Zn110 1.905 . S
O118 C112 1.182 . S
O119 Zn110 1.898 . S
O119 C113 1.167 . S
O120 Zn111 2.120 1_565 S
O120 C113 1.299 . S
O121 Zn109 1.898 . S
O121 C116 1.167 . S
O122 Zn111 2.120 . S
O122 C116 1.299 1_554 S
O123 Zn111 2.114 1_566 S
O123 C125 1.166 . S
O124 Zn109 1.905 . S
O124 C125 1.182 1_545 S
C125 O123 1.166 . S
C125 O124 1.182 1_565 S
O126 Zn111 2.080 . S
O126 C129 1.305 . S
O127 Zn110 1.920 . S
O127 C129 1.234 1_565 S
C128 O114 1.305 . S
C128 O115 1.234 . S
C129 O126 1.305 . S
C129 O127 1.234 1_545 S
Zn130 O136 1.920 . S
Zn130 O142 1.898 . S
Zn130 O145 1.905 . S
Zn131 O139 1.905 . S
Zn131 O140 1.898 . S
Zn131 O148 1.920 . S
Zn132 O135 2.080 . S
Zn132 O138 2.114 . S
Zn132 O141 2.120 . S
Zn132 O143 2.120 . S
Zn132 O144 2.114 . S
Zn132 O147 2.080 . S
C133 O138 1.166 . S
C133 O139 1.182 . S
C134 O140 1.167 . S
C134 O141 1.299 . S
O135 Zn132 2.080 . S
O135 C149 1.305 . S
O136 Zn130 1.920 . S
O136 C149 1.234 . S
C137 O142 1.167 . S
C137 O143 1.299 . S
O138 Zn132 2.114 . S
O138 C133 1.166 . S
O139 Zn131 1.905 . S
O139 C133 1.182 . S
O140 Zn131 1.898 . S
O140 C134 1.167 . S
O141 Zn132 2.120 . S
O141 C134 1.299 . S
O142 Zn130 1.898 . S
O142 C137 1.167 . S
O143 Zn132 2.120 . S
O143 C137 1.299 . S
O144 Zn132 2.114 . S
O144 C146 1.166 . S
O145 Zn130 1.905 . S
O145 C146 1.182 . S
C146 O144 1.166 . S
C146 O145 1.182 . S
O147 Zn132 2.080 . S
O147 C150 1.305 . S
O148 Zn131 1.920 . S
O148 C150 1.234 . S
C149 O135 1.305 . S
C149 O136 1.234 . S
C150 O147 1.305 . S
C150 O148 1.234 . S
Zn151 O157 1.920 . S
Zn151 O163 1.898 . S
Zn151 O166 1.905 . S
Zn152 O160 1.905 1_655 S
Zn152 O161 1.898 . S
Zn152 O169 1.920 . S
Zn153 O156 2.080 1_554 S
Zn153 O159 2.114 . S
Zn153 O162 2.120 1_454 S
Zn153 O164 2.120 . S
Zn153 O165 2.114 1_554 S
Zn153 O168 2.080 . S
C154 O159 1.166 . S
C154 O160 1.182 . S
C155 O161 1.167 1_556 S
C155 O162 1.299 . S
O156 Zn153 2.080 1_556 S
O156 C170 1.305 . S
O157 Zn151 1.920 . S
O157 C170 1.234 . S
C158 O163 1.167 1_554 S
C158 O164 1.299 . S
O159 Zn153 2.114 . S
O159 C154 1.166 . S
O160 Zn152 1.905 1_455 S
O160 C154 1.182 . S
O161 Zn152 1.898 . S
O161 C155 1.167 1_554 S
O162 Zn153 2.120 1_656 S
O162 C155 1.299 . S
O163 Zn151 1.898 . S
O163 C158 1.167 1_556 S
O164 Zn153 2.120 . S
O164 C158 1.299 . S
O165 Zn153 2.114 1_556 S
O165 C167 1.166 . S
O166 Zn151 1.905 . S
O166 C167 1.182 . S
C167 O165 1.166 . S
C167 O166 1.182 . S
O168 Zn153 2.080 . S
O168 C171 1.305 1_455 S
O169 Zn152 1.920 . S
O169 C171 1.234 . S
C170 O156 1.305 . S
C170 O157 1.234 . S
C171 O168 1.305 1_655 S
C171 O169 1.234 . S
C6 C91 1.608 . S
C20 C125 2.084 . S
C137 N26 1.149 . S
N37 C171 1.342 . S
C128 C9 2.044 . S
C108 N15 1.705 . S
C155 C31 1.243 . S
C146 C39 1.508 . S
N4 C154 1.773 . S
C116 C28 1.849 . S
C42 C92 1.464 . S
C17 C149 1.587 . S
C107 C50 2.260 1_645 S
C61 C129 1.568 . S
N70 C134 1.436 . S
N81 C167 1.409 . S
N48 C112 1.417 1_545 S
C104 C64 1.974 . S
C158 C75 1.603 . S
C150 C86 1.458 . S
C53 C170 1.815 . S
C113 C72 1.541 . S
C95 C83 1.804 . S
N59 C133 1.815 . S
