# Generated by pormake.
# Topology scu, (8,4)-cn, num edge types: 1
# Building blocks:
#     Node 0, Type 0, BuildingBlock: GIZVER_clean_sbu_0, # of connection points: 8
#     Node 1, Type 1, BuildingBlock: IZENUY_clean_linker_0, # of connection points: 4
#     Node 2, Type 1, BuildingBlock: IZENUY_clean_linker_0, # of connection points: 4
#     Edge 3, Type (0, 1), BuildingBlock: CIFDUS_clean_linker_0, # of connection points: 2
#     Edge 4, Type (0, 1), BuildingBlock: CIFDUS_clean_linker_0, # of connection points: 2
#     Edge 5, Type (0, 1), BuildingBlock: CIFDUS_clean_linker_0, # of connection points: 2
#     Edge 6, Type (0, 1), BuildingBlock: CIFDUS_clean_linker_0, # of connection points: 2
#     Edge 7, Type (0, 1), BuildingBlock: CIFDUS_clean_linker_0, # of connection points: 2
#     Edge 8, Type (0, 1), BuildingBlock: CIFDUS_clean_linker_0, # of connection points: 2
#     Edge 9, Type (0, 1), BuildingBlock: CIFDUS_clean_linker_0, # of connection points: 2
#     Edge 10, Type (0, 1), BuildingBlock: CIFDUS_clean_linker_0, # of connection points: 2
# Relax obj value: 0.120
# Max RMSD: 0.251
# Mean RMSD: 0.210
data_MOF--net-scu--node1-GIZVER_clean_sbu_0--node2-IZENUY_clean_linker_0--edge1-CIFDUS_clean_linker_0
_symmetry_space_group_name_H-M    P1
_symmetry_Int_Tables_number       1
_symmetry_cell_setting            triclinic
loop_
_symmetry_equiv_pos_as_xyz
'x, y, z'
_cell_length_a     24.111795
_cell_length_b     24.528576
_cell_length_c     19.445314
_cell_angle_alpha  101.78904
_cell_angle_beta   79.507053
_cell_angle_gamma 109.44256
loop_
_atom_site_label
_atom_site_type_symbol
_atom_site_fract_x
_atom_site_fract_y
_atom_site_fract_z
_atom_type_partial_charge
Co0 Co 0.06009 0.9793 0.14589 0.0
Co1 Co 0.14435 0.06438 0.10531 0.0
Co2 Co 0.03765 0.04524 0.01861 0.0
O3 O 0.08537 1.00952 0.05912 0.0
H4 H 0.10216 0.98393 0.02313 0.0
O5 O 0.99144 0.08082 0.97513 0.0
Co6 Co 1.02052 0.09989 0.88141 0.0
Co7 Co 0.92649 1.02618 0.93688 0.0
H8 H 0.97967 0.11179 1.00732 0.0
O9 O 0.21385 0.05091 0.10022 0.0
O10 O 0.13483 1.0324 0.18603 0.0
O11 O 0.14057 0.14251 0.13216 0.0
O12 O 0.05942 0.12441 0.08174 0.0
O13 O 0.10891 0.07011 0.94746 0.0
O14 O 0.04627 0.12282 0.79845 0.0
O15 O 0.99299 0.16256 0.8903 0.0
O16 O 0.05565 0.03954 0.85876 0.0
O17 O 1.01369 0.96564 0.95644 0.0
O18 O 0.92345 0.94536 0.92572 0.0
O19 O 0.94692 0.0453 0.84602 0.0
O20 O 0.86398 0.04838 0.91954 0.0
C21 C 0.06477 0.91024 0.18641 0.0
C22 C 0.97056 1.02836 0.15693 0.0
C23 C 0.09829 0.15804 0.12122 0.0
C24 C 0.19043 1.03627 0.16215 0.0
C25 C 1.02267 0.16391 0.82687 0.0
C26 C 0.10415 0.04898 0.88262 0.0
C27 C 0.9686 0.93024 0.92768 0.0
C28 C 0.89483 0.05266 0.85769 0.0
O29 O 0.03729 0.94627 0.22271 0.0
O30 O 0.09291 0.91946 0.12362 0.0
O31 O 0.96723 1.02011 0.09059 0.0
O32 O 1.01927 1.03549 0.17982 0.0
H33 H 0.05399 0.46953 0.4185 0.0
H34 H 1.00096 0.46037 0.64135 0.0
H35 H 0.05139 0.31961 0.50184 0.0
H36 H 1.00091 0.62076 0.62505 0.0
H37 H 0.03737 0.62298 0.39952 0.0
H38 H 0.98856 0.76399 0.53989 0.0
N39 N 1.01842 0.52824 0.54494 0.0
N40 N 1.02903 0.55894 0.49732 0.0
C41 C 0.04524 0.44642 0.46312 0.0
C42 C 0.05453 0.39161 0.45267 0.0
C43 C 1.02604 0.47168 0.53159 0.0
C44 C 1.0152 0.44084 0.58876 0.0
C45 C 1.02481 0.38611 0.57872 0.0
C46 C 0.0442 0.362 0.51039 0.0
C47 C 1.00543 0.64211 0.57986 0.0
C48 C 0.9937 0.69581 0.59036 0.0
C49 C 1.02097 0.61531 0.51064 0.0
C50 C 1.0263 0.64377 0.45268 0.0
C51 C 1.01409 0.69719 0.46287 0.0
C52 C 0.99818 0.72278 0.53178 0.0
H53 H 0.61894 0.04085 0.41033 0.0
H54 H 0.61441 0.06212 0.63641 0.0
H55 H 0.78052 0.08569 0.50157 0.0
H56 H 0.44976 1.03587 0.61854 0.0
H57 H 0.44317 1.00851 0.39345 0.0
H58 H 0.28508 1.00295 0.53938 0.0
N59 N 0.5477 0.04387 0.53771 0.0
N60 N 0.51628 1.03267 0.48915 0.0
C61 C 0.64186 0.05166 0.45665 0.0
C62 C 0.70342 0.06123 0.44834 0.0
C63 C 0.61002 0.05386 0.5254 0.0
C64 C 0.63997 0.06402 0.58453 0.0
C65 C 0.7015 0.07405 0.5768 0.0
C66 C 0.73272 0.07556 0.50863 0.0
C67 C 0.42494 1.02649 0.5741 0.0
C68 C 0.36352 1.01741 0.58687 0.0
C69 C 0.45397 1.02321 0.50392 0.0
C70 C 0.42082 1.01103 0.44711 0.0
C71 C 0.35936 1.00249 0.4594 0.0
C72 C 0.33173 1.00629 0.5293 0.0
H73 H 0.1717 0.24155 0.20793 0.0
H74 H 1.0003 0.19468 0.13603 0.0
H75 H 0.97435 0.26976 0.22727 0.0
H76 H 0.99492 0.33893 0.33871 0.0
H77 H 0.16417 0.38115 0.41308 0.0
H78 H 0.19661 0.31846 0.30967 0.0
C79 C 0.1291 0.24845 0.2111 0.0
C80 C 0.0879 0.21183 0.16538 0.0
C81 C 0.11384 0.2908 0.26484 0.0
C82 C 0.03304 0.22196 0.17033 0.0
C83 C 1.0179 0.26474 0.22296 0.0
C84 C 0.03945 0.33557 0.33082 0.0
C85 C 0.07741 0.3647 0.38278 0.0
C86 C 0.05713 0.29802 0.27209 0.0
C87 C 0.1346 0.35937 0.37317 0.0
C88 C 0.15293 0.32326 0.31438 0.0
H89 H 0.88274 0.07871 0.16693 0.0
H90 H 0.93692 0.96331 0.26187 0.0
H91 H 0.85252 0.95595 0.35321 0.0
H92 H 0.76942 0.98903 0.41288 0.0
H93 H 0.71777 0.11184 0.32895 0.0
H94 H 0.79342 0.10846 0.22552 0.0
C95 C 0.87538 0.05157 0.20733 0.0
C96 C 0.91633 1.02202 0.20821 0.0
C97 C 0.82712 0.04883 0.26147 0.0
C98 C 0.9067 0.98716 0.26076 0.0
C99 C 0.8582 0.98267 0.31285 0.0
C100 C 0.77416 1.01446 0.37134 0.0
C101 C 0.73862 0.05099 0.37858 0.0
C102 C 0.81908 1.01431 0.31465 0.0
C103 C 0.74459 0.08324 0.32427 0.0
C104 C 0.78826 0.08175 0.26568 0.0
H105 H 0.97202 0.84685 0.26387 0.0
H106 H 0.15464 0.86335 0.18409 0.0
H107 H 0.1542 0.79326 0.25873 0.0
H108 H 0.10352 0.73551 0.35726 0.0
H109 H 0.92087 0.72229 0.43485 0.0
H110 H 0.91922 0.7821 0.34991 0.0
C111 C 1.01149 0.8343 0.26189 0.0
C112 C 0.06337 0.86036 0.21916 0.0
C113 C 1.01081 0.79472 0.30495 0.0
C114 C 0.11405 0.84347 0.21638 0.0
C115 C 0.11386 0.8038 0.25949 0.0
C116 C 0.06321 0.74485 0.35424 0.0
C117 C 1.01248 0.72509 0.40263 0.0
C118 C 0.0628 0.78024 0.30547 0.0
C119 C 0.9605 0.73755 0.39857 0.0
C120 C 0.95955 0.77178 0.35014 0.0
H121 H 0.16215 0.97114 0.26905 0.0
H122 H 0.30853 0.09124 0.15916 0.0
H123 H 0.37515 0.08795 0.23747 0.0
H124 H 0.39058 0.05615 0.34214 0.0
H125 H 0.24659 0.92916 0.44574 0.0
H126 H 0.18083 0.92891 0.36399 0.0
C127 C 0.2087 0.99596 0.26182 0.0
C128 C 0.23019 1.03146 0.20861 0.0
C129 C 0.24736 0.99261 0.30582 0.0
C130 C 0.29079 0.06341 0.19972 0.0
C131 C 0.32903 0.06162 0.24448 0.0
C132 C 0.3453 1.0273 0.34584 0.0
C133 C 0.32342 0.99376 0.40105 0.0
C134 C 0.30772 1.02685 0.2982 0.0
C135 C 0.26432 0.9567 0.40489 0.0
C136 C 0.22658 0.95645 0.35815 0.0
H137 H 0.89067 0.8525 0.84149 0.0
H138 H 0.06029 0.88382 0.91097 0.0
H139 H 0.08012 0.80728 0.81714 0.0
H140 H 0.05546 0.74161 0.70418 0.0
H141 H 0.88796 0.71504 0.63313 0.0
H142 H 0.86088 0.77876 0.73879 0.0
C143 C 0.93144 0.84182 0.83742 0.0
C144 C 0.97422 0.87481 0.88287 0.0
C145 C 0.94325 0.79873 0.78222 0.0
C146 C 1.02657 0.85963 0.87665 0.0
C147 C 0.0382 0.81599 0.82255 0.0
C148 C 1.01245 0.74863 0.71316 0.0
C149 C 0.97365 0.72383 0.66124 0.0
C150 C 0.99783 0.78675 0.77336 0.0
C151 C 0.91834 0.73372 0.67263 0.0
C152 C 0.90302 0.77035 0.73281 0.0
H153 H 0.22377 0.10259 0.87047 0.0
H154 H 0.08832 0.94861 0.79036 0.0
H155 H 0.16157 0.91819 0.70103 0.0
H156 H 0.25981 0.94286 0.6343 0.0
H157 H 0.39333 0.10347 0.70117 0.0
H158 H 0.32652 0.1231 0.80787 0.0
C159 C 0.2109 0.06182 0.8343 0.0
C160 C 0.15091 1.02772 0.83687 0.0
C161 C 0.25299 0.04614 0.78028 0.0
C162 C 0.13429 0.97537 0.78936 0.0
C163 C 0.17611 0.95808 0.7381 0.0
C164 C 0.27463 0.98172 0.6729 0.0
C165 C 0.33092 1.02214 0.65938 0.0
C166 C 0.23498 0.99424 0.73137 0.0
C167 C 0.35014 0.07168 0.71038 0.0
C168 C 0.31164 0.08324 0.77092 0.0
H169 H 0.9481 0.22745 0.82132 0.0
H170 H 0.12042 0.20756 0.7401 0.0
H171 H 0.13805 0.27831 0.66148 0.0
H172 H 0.10281 0.34017 0.60884 0.0
H173 H 0.93006 0.36005 0.68293 0.0
H174 H 0.91467 0.2963 0.7718 0.0
C175 C 0.9897 0.23946 0.7871 0.0
C176 C 0.03271 0.21192 0.78619 0.0
C177 C 0.99942 0.27999 0.74041 0.0
C178 C 0.0863 0.22754 0.74124 0.0
C179 C 0.09658 0.26813 0.69623 0.0
C180 C 0.06183 0.33077 0.64466 0.0
C181 C 1.01738 0.35411 0.63876 0.0
C182 C 0.05308 0.2936 0.69423 0.0
C183 C 0.96501 0.34256 0.68649 0.0
C184 C 0.95609 0.30581 0.73695 0.0
H185 H 0.80415 0.09735 0.8636 0.0
H186 H 0.92522 1.0199 0.71784 0.0
H187 H 0.87569 1.01945 0.61914 0.0
H188 H 0.79484 1.03451 0.5756 0.0
H189 H 0.67888 0.12134 0.71702 0.0
H190 H 0.72845 0.1226 0.81663 0.0
C191 C 0.8198 0.08075 0.81011 0.0
C192 C 0.86782 0.05807 0.79812 0.0
C193 C 0.7916 0.08142 0.75315 0.0
C194 C 0.88831 1.03751 0.72854 0.0
C195 C 0.85985 1.03697 0.67206 0.0
C196 C 0.78112 0.05553 0.62754 0.0
C197 C 0.73301 0.07809 0.63803 0.0
C198 C 0.81107 0.05812 0.68392 0.0
C199 C 0.71505 0.10279 0.70697 0.0
C200 C 0.74375 0.10401 0.76402 0.0
loop_
_geom_bond_atom_site_label_1
_geom_bond_atom_site_label_2
_geom_bond_distance
_geom_bond_site_symmetry_2
_ccdc_geom_bond_type
Co0 O3 2.042 . S
Co0 O10 2.264 1_565 S
Co0 O29 2.286 1_455 S
Co0 O30 2.069 . S
Co0 O32 2.015 1_455 S
Co1 O3 2.122 1_545 S
Co1 O9 2.073 . S
Co1 O10 2.327 . S
Co1 O11 1.976 . S
Co2 O3 2.089 1_545 S
Co2 O5 2.085 1_454 S
Co2 O12 2.125 . S
Co2 O13 2.148 1_554 S
Co2 O17 2.098 1_444 S
Co2 O31 2.139 1_445 S
O3 Co0 2.042 . S
O3 Co1 2.122 1_565 S
O3 Co2 2.089 1_565 S
O3 H4 0.980 . S
H4 O3 0.980 . S
O5 Co2 2.085 1_656 S
O5 Co6 2.045 . S
O5 Co7 2.122 1_545 S
O5 H8 0.980 . S
Co6 O5 2.045 . S
Co6 O14 2.286 1_655 S
Co6 O15 2.077 . S
Co6 O16 2.005 1_655 S
Co6 O19 2.272 1_545 S
Co7 O5 2.122 1_565 S
Co7 O18 1.976 . S
Co7 O19 2.327 . S
Co7 O20 2.073 . S
H8 O5 0.980 . S
O9 Co1 2.073 . S
O9 C24 1.245 1_545 S
O10 Co0 2.264 1_545 S
O10 Co1 2.327 . S
O10 C24 1.257 1_545 S
O11 Co1 1.976 . S
O11 C23 1.251 . S
O12 Co2 2.125 . S
O12 C23 1.274 . S
O13 Co2 2.148 1_556 S
O13 C26 1.246 . S
O14 Co6 2.286 1_455 S
O14 C25 1.259 1_455 S
O15 Co6 2.077 . S
O15 C25 1.289 . S
O16 Co6 2.005 1_455 S
O16 C26 1.257 . S
O17 Co2 2.098 1_666 S
O17 C27 1.274 . S
O18 Co7 1.976 . S
O18 C27 1.251 . S
O19 Co6 2.272 1_565 S
O19 Co7 2.327 . S
O19 C28 1.257 1_565 S
O20 Co7 2.073 . S
O20 C28 1.245 1_565 S
C21 O29 1.259 1_455 S
C21 O30 1.289 . S
C22 O31 1.246 . S
C22 O32 1.257 . S
C23 O11 1.251 . S
C23 O12 1.274 . S
C24 O9 1.245 1_565 S
C24 O10 1.257 1_565 S
C25 O14 1.259 1_655 S
C25 O15 1.289 . S
C26 O13 1.246 . S
C26 O16 1.257 . S
C27 O17 1.274 . S
C27 O18 1.251 . S
C28 O19 1.257 1_545 S
C28 O20 1.245 1_545 S
O29 Co0 2.286 1_655 S
O29 C21 1.259 1_655 S
O30 Co0 2.069 . S
O30 C21 1.289 . S
O31 Co2 2.139 1_665 S
O31 C22 1.246 . S
O32 Co0 2.015 1_655 S
O32 C22 1.257 . S
H33 C41 0.940 . S
H34 C44 0.940 . S
H35 C46 0.940 . S
H36 C47 0.940 . S
H37 C50 0.940 . S
H38 C52 0.940 . S
N39 N40 1.190 . S
N39 C43 1.477 . S
N40 N39 1.190 . S
N40 C49 1.477 . S
C41 H33 0.940 . S
C41 C42 1.390 1_455 S
C41 C43 1.322 . S
C42 C41 1.390 1_655 S
C42 C46 1.370 . S
C43 N39 1.477 . S
C43 C41 1.322 . S
C43 C44 1.447 . S
C44 H34 0.940 . S
C44 C43 1.447 . S
C44 C45 1.373 . S
C45 C44 1.373 . S
C45 C46 1.417 1_455 S
C46 H35 0.940 . S
C46 C42 1.370 . S
C46 C45 1.417 1_655 S
C47 H36 0.940 . S
C47 C48 1.390 1_455 S
C47 C49 1.322 . S
C48 C47 1.390 1_655 S
C48 C52 1.370 . S
C49 N40 1.477 . S
C49 C47 1.322 . S
C49 C50 1.447 . S
C50 H37 0.940 . S
C50 C49 1.447 . S
C50 C51 1.373 . S
C51 C50 1.373 . S
C51 C52 1.417 1_455 S
C52 H38 0.940 . S
C52 C48 1.370 . S
C52 C51 1.417 1_655 S
H53 C61 0.940 . S
H54 C64 0.940 . S
H55 C66 0.940 . S
H56 C67 0.940 . S
H57 C70 0.940 . S
H58 C72 0.940 . S
N59 N60 1.190 . S
N59 C63 1.477 . S
N60 N59 1.190 . S
N60 C69 1.477 . S
C61 H53 0.940 . S
C61 C62 1.390 1_545 S
C61 C63 1.322 . S
C62 C61 1.390 1_565 S
C62 C66 1.370 . S
C63 N59 1.477 . S
C63 C61 1.322 . S
C63 C64 1.447 . S
C64 H54 0.940 . S
C64 C63 1.447 . S
C64 C65 1.373 . S
C65 C64 1.373 . S
C65 C66 1.417 1_545 S
C66 H55 0.940 . S
C66 C62 1.370 . S
C66 C65 1.417 1_565 S
C67 H56 0.940 . S
C67 C68 1.390 1_545 S
C67 C69 1.322 . S
C68 C67 1.390 1_565 S
C68 C72 1.370 . S
C69 N60 1.477 . S
C69 C67 1.322 . S
C69 C70 1.447 . S
C70 H57 0.940 . S
C70 C69 1.447 . S
C70 C71 1.373 . S
C71 C70 1.373 . S
C71 C72 1.417 1_545 S
C72 H58 0.940 . S
C72 C68 1.370 . S
C72 C71 1.417 1_565 S
H73 C79 0.930 . S
H74 C82 0.930 . S
H75 C83 0.930 . S
H76 C84 0.930 . S
H77 C87 0.930 . S
H78 C88 0.930 . S
C79 H73 0.930 . S
C79 C80 1.355 1_455 S
C79 C81 1.415 . S
C80 C79 1.355 1_655 S
C80 C82 1.419 . S
C81 C79 1.415 . S
C81 C86 1.425 1_455 S
C81 C88 1.409 . S
C82 H74 0.930 . S
C82 C80 1.419 . S
C82 C83 1.362 . S
C83 H75 0.930 . S
C83 C82 1.362 . S
C83 C86 1.409 . S
C84 H76 0.930 . S
C84 C85 1.350 1_655 S
C84 C86 1.415 . S
C85 C84 1.350 1_455 S
C85 C87 1.426 . S
C86 C81 1.425 1_655 S
C86 C83 1.409 . S
C86 C84 1.415 . S
C87 H77 0.930 . S
C87 C85 1.426 . S
C87 C88 1.362 . S
C88 H78 0.930 . S
C88 C81 1.409 . S
C88 C87 1.362 . S
H89 C95 0.930 . S
H90 C98 0.930 . S
H91 C99 0.930 . S
H92 C100 0.930 . S
H93 C103 0.930 . S
H94 C104 0.930 . S
C95 H89 0.930 . S
C95 C96 1.355 1_545 S
C95 C97 1.415 . S
C96 C95 1.355 1_565 S
C96 C98 1.419 . S
C97 C95 1.415 . S
C97 C102 1.425 1_545 S
C97 C104 1.409 . S
C98 H90 0.930 . S
C98 C96 1.419 . S
C98 C99 1.362 . S
C99 H91 0.930 . S
C99 C98 1.362 . S
C99 C102 1.409 . S
C100 H92 0.930 . S
C100 C101 1.361 . S
C100 C102 1.415 . S
C101 C100 1.361 . S
C101 C103 1.412 1_565 S
C102 C97 1.425 1_565 S
C102 C99 1.409 . S
C102 C100 1.415 . S
C103 H93 0.930 . S
C103 C101 1.412 1_545 S
C103 C104 1.362 . S
C104 H94 0.930 . S
C104 C97 1.409 . S
C104 C103 1.362 . S
H105 C111 0.930 . S
H106 C114 0.930 . S
H107 C115 0.930 . S
H108 C116 0.930 . S
H109 C119 0.930 . S
H110 C120 0.930 . S
C111 H105 0.930 . S
C111 C112 1.355 1_655 S
C111 C113 1.415 . S
C112 C111 1.355 1_455 S
C112 C114 1.419 . S
C113 C111 1.415 . S
C113 C118 1.425 1_655 S
C113 C120 1.409 . S
C114 H106 0.930 . S
C114 C112 1.419 . S
C114 C115 1.362 . S
C115 H107 0.930 . S
C115 C114 1.362 . S
C115 C118 1.409 . S
C116 H108 0.930 . S
C116 C117 1.355 . S
C116 C118 1.415 . S
C117 C116 1.355 . S
C117 C119 1.419 1_455 S
C118 C113 1.425 1_455 S
C118 C115 1.409 . S
C118 C116 1.415 . S
C119 H109 0.930 . S
C119 C117 1.419 1_655 S
C119 C120 1.362 . S
C120 H110 0.930 . S
C120 C113 1.409 . S
C120 C119 1.362 . S
H121 C127 0.930 . S
H122 C130 0.930 . S
H123 C131 0.930 . S
H124 C132 0.930 . S
H125 C135 0.930 . S
H126 C136 0.930 . S
C127 H121 0.930 . S
C127 C128 1.355 . S
C127 C129 1.415 . S
C128 C127 1.355 . S
C128 C130 1.419 1_565 S
C129 C127 1.415 . S
C129 C134 1.425 1_565 S
C129 C136 1.409 . S
C130 H122 0.930 . S
C130 C128 1.419 1_545 S
C130 C131 1.362 . S
C131 H123 0.930 . S
C131 C130 1.362 . S
C131 C134 1.409 . S
C132 H124 0.930 . S
C132 C133 1.355 1_545 S
C132 C134 1.415 . S
C133 C132 1.355 1_565 S
C133 C135 1.419 . S
C134 C129 1.425 1_545 S
C134 C131 1.409 . S
C134 C132 1.415 . S
C135 H125 0.930 . S
C135 C133 1.419 . S
C135 C136 1.362 . S
C136 H126 0.930 . S
C136 C129 1.409 . S
C136 C135 1.362 . S
H137 C143 0.930 . S
H138 C146 0.930 . S
H139 C147 0.930 . S
H140 C148 0.930 . S
H141 C151 0.930 . S
H142 C152 0.930 . S
C143 H137 0.930 . S
C143 C144 1.355 1_655 S
C143 C145 1.415 . S
C144 C143 1.355 1_455 S
C144 C146 1.419 . S
C145 C143 1.415 . S
C145 C150 1.425 1_655 S
C145 C152 1.409 . S
C146 H138 0.930 . S
C146 C144 1.419 . S
C146 C147 1.362 . S
C147 H139 0.930 . S
C147 C146 1.362 . S
C147 C150 1.409 . S
C148 H140 0.930 . S
C148 C149 1.355 1_455 S
C148 C150 1.415 . S
C149 C148 1.355 1_655 S
C149 C151 1.419 . S
C150 C145 1.425 1_455 S
C150 C147 1.409 . S
C150 C148 1.415 . S
C151 H141 0.930 . S
C151 C149 1.419 . S
C151 C152 1.362 . S
C152 H142 0.930 . S
C152 C145 1.409 . S
C152 C151 1.362 . S
H153 C159 0.930 . S
H154 C162 0.930 . S
H155 C163 0.930 . S
H156 C164 0.930 . S
H157 C167 0.930 . S
H158 C168 0.930 . S
C159 H153 0.930 . S
C159 C160 1.355 1_545 S
C159 C161 1.415 . S
C160 C159 1.355 1_565 S
C160 C162 1.419 . S
C161 C159 1.415 . S
C161 C166 1.425 1_545 S
C161 C168 1.409 . S
C162 H154 0.930 . S
C162 C160 1.419 . S
C162 C163 1.362 . S
C163 H155 0.930 . S
C163 C162 1.362 . S
C163 C166 1.409 . S
C164 H156 0.930 . S
C164 C165 1.355 1_565 S
C164 C166 1.415 . S
C165 C164 1.355 1_545 S
C165 C167 1.419 . S
C166 C161 1.425 1_565 S
C166 C163 1.409 . S
C166 C164 1.415 . S
C167 H157 0.930 . S
C167 C165 1.419 . S
C167 C168 1.362 . S
C168 H158 0.930 . S
C168 C161 1.409 . S
C168 C167 1.362 . S
H169 C175 0.930 . S
H170 C178 0.930 . S
H171 C179 0.930 . S
H172 C180 0.930 . S
H173 C183 0.930 . S
H174 C184 0.930 . S
C175 H169 0.930 . S
C175 C176 1.355 . S
C175 C177 1.415 . S
C176 C175 1.355 . S
C176 C178 1.419 1_655 S
C177 C175 1.415 . S
C177 C182 1.425 1_655 S
C177 C184 1.409 . S
C178 H170 0.930 . S
C178 C176 1.419 1_455 S
C178 C179 1.362 . S
C179 H171 0.930 . S
C179 C178 1.362 . S
C179 C182 1.409 . S
C180 H172 0.930 . S
C180 C181 1.355 1_455 S
C180 C182 1.415 . S
C181 C180 1.355 1_655 S
C181 C183 1.419 . S
C182 C177 1.425 1_455 S
C182 C179 1.409 . S
C182 C180 1.415 . S
C183 H173 0.930 . S
C183 C181 1.419 . S
C183 C184 1.362 . S
C184 H174 0.930 . S
C184 C177 1.409 . S
C184 C183 1.362 . S
H185 C191 0.930 . S
H186 C194 0.930 1_565 S
H187 C195 0.930 . S
H188 C196 0.930 1_565 S
H189 C199 0.930 . S
H190 C200 0.930 . S
C191 H185 0.930 . S
C191 C192 1.355 . S
C191 C193 1.415 . S
C192 C191 1.355 . S
C192 C194 1.419 . S
C193 C191 1.415 . S
C193 C198 1.425 . S
C193 C200 1.409 . S
C194 H186 0.930 1_545 S
C194 C192 1.419 . S
C194 C195 1.362 1_545 S
C195 H187 0.930 . S
C195 C194 1.362 1_565 S
C195 C198 1.409 1_565 S
C196 H188 0.930 1_545 S
C196 C197 1.355 . S
C196 C198 1.415 . S
C197 C196 1.355 . S
C197 C199 1.419 . S
C198 C193 1.425 . S
C198 C195 1.409 1_545 S
C198 C196 1.415 . S
C199 H189 0.930 . S
C199 C197 1.419 . S
C199 C200 1.362 . S
C200 H190 0.930 . S
C200 C193 1.409 . S
C200 C199 1.362 . S
C80 C23 1.555 1_655 S
C85 C42 1.564 1_455 S
C96 C22 1.607 . S
C101 C62 1.662 . S
C112 C21 1.896 . S
C117 C51 1.871 . S
C128 C24 1.631 . S
C133 C71 1.726 1_565 S
C144 C27 1.548 1_455 S
C149 C48 1.563 . S
C160 C26 1.669 1_565 S
C165 C68 1.636 1_545 S
C181 C45 1.881 1_655 S
C176 C25 1.869 . S
C192 C28 1.657 . S
C197 C65 1.741 . S
