# Generated by pormake.
# Topology rtl, (3,6)-cn, num edge types: 1
# Building blocks:
#     Node 0, Type 0, BuildingBlock: MIDCAF_clean_linker_0, # of connection points: 3
#     Node 1, Type 0, BuildingBlock: MIDCAF_clean_linker_0, # of connection points: 3
#     Node 2, Type 0, BuildingBlock: MIDCAF_clean_linker_0, # of connection points: 3
#     Node 3, Type 0, BuildingBlock: MIDCAF_clean_linker_0, # of connection points: 3
#     Node 4, Type 1, BuildingBlock: VOLQOD_clean_sbu_1, # of connection points: 6
#     Node 5, Type 1, BuildingBlock: VOLQOD_clean_sbu_1, # of connection points: 6
#     Edge 6, Type (0, 1), None
#     Edge 7, Type (0, 1), None
#     Edge 8, Type (0, 1), None
#     Edge 9, Type (0, 1), None
#     Edge 10, Type (0, 1), None
#     Edge 11, Type (0, 1), None
#     Edge 12, Type (0, 1), None
#     Edge 13, Type (0, 1), None
#     Edge 14, Type (0, 1), None
#     Edge 15, Type (0, 1), None
#     Edge 16, Type (0, 1), None
#     Edge 17, Type (0, 1), None
# Relax obj value: 0.080
# Max RMSD: 0.156
# Mean RMSD: 0.091
data_MOF--net-rtl--node1-VOLQOD_clean_sbu_1--node2-MIDCAF_clean_linker_0--edge1-none
_symmetry_space_group_name_H-M    P1
_symmetry_Int_Tables_number       1
_symmetry_cell_setting            triclinic
loop_
_symmetry_equiv_pos_as_xyz
'x, y, z'
_cell_length_a     25.353808
_cell_length_b     20.480371
_cell_length_c     16.906954
_cell_angle_alpha  89.678655
_cell_angle_beta   91.255565
_cell_angle_gamma 89.983668
loop_
_atom_site_label
_atom_site_type_symbol
_atom_site_fract_x
_atom_site_fract_y
_atom_site_fract_z
_atom_type_partial_charge
C0 C 0.0032 0.85512 0.21673 0.0
C1 C 0.03749 0.85663 0.2826 0.0
C2 C 0.08326 0.81829 0.28404 0.0
C3 C 0.09619 0.78139 0.21788 0.0
H4 H 0.20332 0.65084 0.12851 0.0
H5 H 0.29118 0.60344 0.12703 0.0
H6 H 0.28866 0.61345 0.87145 0.0
H7 H 0.20092 0.66071 0.87272 0.0
H8 H 0.08429 0.72418 0.78065 0.0
H9 H 0.06292 0.78982 0.66191 0.0
H10 H 0.02724 0.95457 0.80972 0.0
H11 H 0.04643 0.88925 0.92724 0.0
H12 H 0.98985 0.8204 0.09922 0.0
H13 H 0.96771 0.88465 0.21499 0.0
H14 H 0.11022 0.81947 0.33463 0.0
H15 H 0.1332 0.75494 0.21874 0.0
N16 N 0.12432 0.71573 0.07205 0.0
N17 N 0.12475 0.7237 0.93345 0.0
N18 N 0.06242 0.78167 0.00509 0.0
C19 C 0.14544 0.69837 0.00191 0.0
C20 C 0.08318 0.76533 0.93481 0.0
C21 C 0.08229 0.75675 0.07388 0.0
C22 C 0.1952 0.66052 0.00077 0.0
C23 C 0.22112 0.64217 0.07187 0.0
C24 C 0.27166 0.61508 0.07108 0.0
C25 C 0.29734 0.6057 -0.0008 0.0
C26 C 0.27028 0.62073 0.92797 0.0
C27 C 0.21978 0.64776 0.92873 0.0
C28 C 0.06672 0.80156 0.86295 0.0
C29 C 0.0712 0.77416 0.78739 0.0
C30 C 0.05905 0.81152 0.71978 0.0
C31 C 0.04407 0.87719 0.72716 0.0
C32 C 0.03925 0.90419 0.80263 0.0
C33 C 0.04977 0.86654 0.86984 0.0
C34 C 0.06364 0.78319 0.14941 0.0
C35 C 0.01604 0.81847 0.15068 0.0
C36 C 0.50741 0.69674 0.28726 0.0
C37 C 0.53939 0.69424 0.22045 0.0
C38 C 0.58582 0.73178 0.21981 0.0
C39 C 0.60136 0.76808 0.28621 0.0
H40 H 0.69178 0.94664 0.39809 0.0
H41 H 0.77914 0.99882 0.39713 0.0
H42 H 0.82688 0.88485 0.60194 0.0
H43 H 0.73956 0.83499 0.60509 0.0
H44 H 0.64295 0.79006 0.71479 0.0
H45 H 0.61453 0.73113 0.83204 0.0
H46 H 0.46827 0.68115 0.71067 0.0
H47 H 0.49673 0.73939 0.59384 0.0
H48 H 0.49828 0.73144 0.40503 0.0
H49 H 0.47109 0.66902 0.28963 0.0
H50 H 0.61116 0.73145 0.16906 0.0
H51 H 0.63845 0.79424 0.28489 0.0
N52 N 0.63567 0.83348 0.43068 0.0
N53 N 0.63713 0.83221 0.56963 0.0
N54 N 0.57032 0.77722 0.49942 0.0
C55 C 0.65833 0.8522 0.50054 0.0
C56 C 0.59268 0.79541 0.56957 0.0
C57 C 0.59151 0.79582 0.42973 0.0
C58 C 0.70911 0.88701 0.50172 0.0
C59 C 0.72085 0.9336 0.44338 0.0
C60 C 0.77049 0.96352 0.443 0.0
C61 C 0.80937 0.94543 0.49932 0.0
C62 C 0.79741 0.89932 0.55784 0.0
C63 C 0.74748 0.8711 0.55979 0.0
C64 C 0.57242 0.76858 0.64447 0.0
C65 C 0.60434 0.76743 0.71362 0.0
C66 C 0.58811 0.73351 0.78088 0.0
C67 C 0.53948 0.70058 0.78047 0.0
C68 C 0.50622 0.70542 0.71298 0.0
C69 C 0.52259 0.73877 0.64571 0.0
C70 C 0.57093 0.76725 0.35481 0.0
C71 C 0.52302 0.73268 0.35362 0.0
C72 C 0.98603 0.20624 0.77117 0.0
C73 C 0.95254 0.2008 0.70408 0.0
C74 C 0.90361 0.23311 0.70356 0.0
C75 C 0.88733 0.26694 0.77042 0.0
H76 H 0.75137 0.33312 0.88111 0.0
H77 H 0.66391 0.38267 0.88549 0.0
H78 H 0.71382 0.49839 0.08613 0.0
H79 H 0.80127 0.44651 0.084 0.0
H80 H 0.85564 0.29539 0.19961 0.0
H81 H 0.88319 0.2326 0.31607 0.0
H82 H 0.02149 0.16711 0.19411 0.0
H83 H -0.00596 0.22961 0.07797 0.0
H84 H -0.00431 0.24058 0.88963 0.0
H85 H 0.02421 0.1825 0.77354 0.0
H86 H 0.877 0.23025 0.65269 0.0
H87 H 0.8485 0.28903 0.76927 0.0
N88 N 0.85466 0.33164 0.91395 0.0
N89 N 0.85692 0.3329 0.0529 0.0
N90 N 0.92215 0.27711 -0.01588 0.0
C91 C 0.83377 0.35148 -0.01691 0.0
C92 C 0.90124 0.2955 0.05383 0.0
C93 C 0.89933 0.29518 0.91399 0.0
C94 C 0.78288 0.38606 -0.0177 0.0
C95 C 0.74386 0.36953 0.92574 0.0
C96 C 0.69385 0.39754 0.92843 0.0
C97 C 0.68248 0.44407 -0.01384 0.0
C98 C 0.72199 0.46272 0.04092 0.0
C99 C 0.77169 0.43301 0.03985 0.0
C100 C 0.92222 0.26691 0.12889 0.0
C101 C 0.8924 0.26855 0.19805 0.0
C102 C 0.9081 0.23225 0.26483 0.0
C103 C 0.95408 0.19385 0.26403 0.0
C104 C 0.98553 0.19552 0.1966 0.0
C105 C 0.96976 0.23151 0.12984 0.0
C106 C 0.91951 0.26862 0.83926 0.0
C107 C 0.96962 0.23951 0.83801 0.0
C108 C 0.44983 0.40501 0.68721 0.0
C109 C 0.44576 0.3778 0.76301 0.0
C110 C 0.43132 0.31194 0.77138 0.0
C111 C 0.41929 0.27446 0.70434 0.0
H112 H 0.29158 0.1578 0.61705 0.0
H113 H 0.20384 0.11066 0.61747 0.0
H114 H 0.20158 0.10547 0.36179 0.0
H115 H 0.28948 0.15289 0.36117 0.0
H116 H 0.36993 0.2418 0.26719 0.0
H117 H 0.39306 0.30605 0.15003 0.0
H118 H 0.51838 0.39953 0.28327 0.0
H119 H 0.497 0.33506 0.39935 0.0
H120 H 0.4424 0.39011 0.56289 0.0
H121 H 0.46138 0.45555 0.67935 0.0
H122 H 0.42802 0.29009 0.82956 0.0
H123 H 0.40686 0.22423 0.71173 0.0
N124 N 0.36672 0.22352 0.5575 0.0
N125 N 0.36925 0.2156 0.41899 0.0
N126 N 0.42981 0.28179 0.48726 0.0
C127 C 0.34716 0.19809 0.48871 0.0
C128 C 0.41117 0.25692 0.41811 0.0
C129 C 0.40811 0.26537 0.55694 0.0
C130 C 0.29746 0.16009 0.48902 0.0
C131 C 0.27277 0.14597 0.56081 0.0
C132 C 0.22226 0.11899 0.5611 0.0
C133 C 0.19527 0.10533 0.48963 0.0
C134 C 0.22105 0.11603 0.41793 0.0
C135 C 0.27162 0.14309 0.41761 0.0
C136 C 0.43101 0.28401 0.34312 0.0
C137 C 0.40339 0.27457 0.27095 0.0
C138 C 0.41645 0.31122 0.20403 0.0
C139 C 0.45704 0.35758 0.20888 0.0
C140 C 0.48677 0.36401 0.27894 0.0
C141 C 0.47431 0.32708 0.34525 0.0
C142 C 0.42339 0.30199 0.62845 0.0
C143 C 0.43943 0.3673 0.62061 0.0
O144 O 0.87052 0.03219 0.48435 0.0
Zn145 Zn 0.93693 0.08705 0.48636 0.0
O146 O -0.0001 0.03103 0.49156 0.0
Zn147 Zn 0.04266 0.05323 0.58417 0.0
Zn148 Zn 0.97992 0.93882 0.49947 0.0
Zn149 Zn 0.04133 0.04465 0.39732 0.0
O150 O 0.11628 0.07841 0.55554 0.0
O151 O 0.11573 0.07166 0.42464 0.0
O152 O 0.93414 0.14607 0.5821 0.0
O153 O 0.01043 0.12597 0.64432 0.0
O154 O 0.04737 0.97824 0.66006 0.0
O155 O 0.00945 0.895 0.59747 0.0
O156 O 0.00315 0.88749 0.4055 0.0
O157 O 0.93623 0.14386 0.38833 0.0
O158 O 0.04473 0.96238 0.3341 0.0
O159 O 0.00897 0.11418 0.32725 0.0
C160 C 0.86324 0.9713 0.49534 0.0
C161 C 0.13975 0.08316 0.48997 0.0
C162 C 0.03381 0.91853 0.65728 0.0
C163 C 0.96695 0.15678 0.63878 0.0
C164 C 0.02857 0.90428 0.34474 0.0
C165 C 0.96757 0.14918 0.33075 0.0
O166 O 0.90148 0.93153 0.50439 0.0
O167 O 0.62174 0.53115 0.00116 0.0
Zn168 Zn 0.55571 0.58672 -0.00037 0.0
O169 O 0.49252 0.53112 -0.00426 0.0
Zn170 Zn 0.44933 0.55379 0.90346 0.0
Zn171 Zn 0.51178 0.43863 -0.01132 0.0
Zn172 Zn 0.45184 0.54497 0.09031 0.0
O173 O 0.3761 0.57953 0.93274 0.0
O174 O 0.37707 0.57126 0.06363 0.0
O175 O 0.55816 0.64578 0.90306 0.0
O176 O 0.48156 0.62614 0.84177 0.0
O177 O 0.44349 0.47885 0.82881 0.0
O178 O 0.48144 0.39524 0.89179 0.0
O179 O 0.48854 0.38715 0.08326 0.0
O180 O 0.55727 0.64362 0.09705 0.0
O181 O 0.44991 0.46321 0.15561 0.0
O182 O 0.48422 0.61501 0.15834 0.0
C183 C 0.6287 0.47021 -0.00924 0.0
C184 C 0.35285 0.5835 -0.00153 0.0
C185 C 0.45666 0.419 0.83219 0.0
C186 C 0.52517 0.65666 0.84649 0.0
C187 C 0.4648 0.40466 0.14507 0.0
C188 C 0.52585 0.64953 0.15439 0.0
O189 O 0.59024 0.43069 -0.01721 0.0
loop_
_geom_bond_atom_site_label_1
_geom_bond_atom_site_label_2
_geom_bond_distance
_geom_bond_site_symmetry_2
_ccdc_geom_bond_type
C0 C1 1.384 . S
C0 H13 0.947 1_455 S
C0 C35 1.382 . S
C1 C0 1.384 . S
C1 C2 1.378 . S
C2 C1 1.378 . S
C2 C3 1.378 . S
C2 H14 0.952 . S
C3 C2 1.378 . S
C3 H15 0.950 . S
C3 C34 1.383 . S
H4 C23 0.947 . S
H5 C24 0.946 . S
H6 C26 0.953 . S
H7 C27 0.945 . S
H8 C29 0.952 . S
H9 C30 0.949 . S
H10 C32 0.950 1_655 S
H11 C33 0.948 . S
H12 C35 0.951 . S
H13 C0 0.947 1_655 S
H14 C2 0.952 . S
H15 C3 0.950 . S
N16 C19 1.382 . S
N16 C21 1.363 . S
N17 C19 1.371 1_556 S
N17 C20 1.372 . S
N18 C20 1.361 1_554 S
N18 C21 1.377 . S
C19 N16 1.382 . S
C19 N17 1.371 1_554 S
C19 C22 1.480 . S
C20 N17 1.372 . S
C20 N18 1.361 1_556 S
C20 C28 1.457 . S
C21 N16 1.363 . S
C21 N18 1.377 . S
C21 C34 1.479 . S
C22 C19 1.480 . S
C22 C23 1.383 . S
C22 C27 1.385 1_554 S
C23 H4 0.947 . S
C23 C22 1.383 . S
C23 C24 1.388 . S
C24 H5 0.946 . S
C24 C23 1.388 . S
C24 C25 1.384 . S
C25 C24 1.384 . S
C25 C26 1.377 1_554 S
C26 H6 0.953 . S
C26 C25 1.377 1_556 S
C26 C27 1.369 . S
C27 H7 0.945 . S
C27 C22 1.385 1_556 S
C27 C26 1.369 . S
C28 C20 1.457 . S
C28 C29 1.372 . S
C28 C33 1.364 . S
C29 H8 0.952 . S
C29 C28 1.372 . S
C29 C30 1.389 . S
C30 H9 0.949 . S
C30 C29 1.389 . S
C30 C31 1.387 . S
C31 C30 1.387 . S
C31 C32 1.372 . S
C32 H10 0.950 1_455 S
C32 C31 1.372 . S
C32 C33 1.379 . S
C33 H11 0.948 . S
C33 C28 1.364 . S
C33 C32 1.379 . S
C34 C3 1.383 . S
C34 C21 1.479 . S
C34 C35 1.398 . S
C35 C0 1.382 . S
C35 H12 0.951 . S
C35 C34 1.398 . S
C36 C37 1.384 . S
C36 H49 0.947 . S
C36 C71 1.382 . S
C37 C36 1.384 . S
C37 C38 1.378 . S
C38 C37 1.378 . S
C38 C39 1.378 . S
C38 H50 0.952 . S
C39 C38 1.378 . S
C39 H51 0.950 . S
C39 C70 1.383 . S
H40 C59 0.947 . S
H41 C60 0.946 . S
H42 C62 0.953 . S
H43 C63 0.945 . S
H44 C65 0.952 . S
H45 C66 0.949 . S
H46 C68 0.950 . S
H47 C69 0.948 . S
H48 C71 0.951 . S
H49 C36 0.947 . S
H50 C38 0.952 . S
H51 C39 0.950 . S
N52 C55 1.382 . S
N52 C57 1.363 . S
N53 C55 1.371 . S
N53 C56 1.372 . S
N54 C56 1.361 . S
N54 C57 1.377 . S
C55 N52 1.382 . S
C55 N53 1.371 . S
C55 C58 1.480 . S
C56 N53 1.372 . S
C56 N54 1.361 . S
C56 C64 1.457 . S
C57 N52 1.363 . S
C57 N54 1.377 . S
C57 C70 1.479 . S
C58 C55 1.480 . S
C58 C59 1.383 . S
C58 C63 1.385 . S
C59 H40 0.947 . S
C59 C58 1.383 . S
C59 C60 1.388 . S
C60 H41 0.946 . S
C60 C59 1.388 . S
C60 C61 1.384 . S
C61 C60 1.384 . S
C61 C62 1.377 . S
C62 H42 0.953 . S
C62 C61 1.377 . S
C62 C63 1.369 . S
C63 H43 0.945 . S
C63 C58 1.385 . S
C63 C62 1.369 . S
C64 C56 1.457 . S
C64 C65 1.372 . S
C64 C69 1.364 . S
C65 H44 0.952 . S
C65 C64 1.372 . S
C65 C66 1.389 . S
C66 H45 0.949 . S
C66 C65 1.389 . S
C66 C67 1.387 . S
C67 C66 1.387 . S
C67 C68 1.372 . S
C68 H46 0.950 . S
C68 C67 1.372 . S
C68 C69 1.379 . S
C69 H47 0.948 . S
C69 C64 1.364 . S
C69 C68 1.379 . S
C70 C39 1.383 . S
C70 C57 1.479 . S
C70 C71 1.398 . S
C71 C36 1.382 . S
C71 H48 0.951 . S
C71 C70 1.398 . S
C72 C73 1.384 . S
C72 H85 0.947 1_655 S
C72 C107 1.382 . S
C73 C72 1.384 . S
C73 C74 1.378 . S
C74 C73 1.378 . S
C74 C75 1.378 . S
C74 H86 0.952 . S
C75 C74 1.378 . S
C75 H87 0.950 . S
C75 C106 1.383 . S
H76 C95 0.947 . S
H77 C96 0.946 . S
H78 C98 0.953 . S
H79 C99 0.945 . S
H80 C101 0.952 . S
H81 C102 0.949 . S
H82 C104 0.950 1_455 S
H83 C105 0.948 . S
H84 C107 0.951 . S
H85 C72 0.947 1_455 S
H86 C74 0.952 . S
H87 C75 0.950 . S
N88 C91 1.382 1_556 S
N88 C93 1.363 . S
N89 C91 1.371 . S
N89 C92 1.372 . S
N90 C92 1.361 . S
N90 C93 1.377 1_554 S
C91 N88 1.382 1_554 S
C91 N89 1.371 . S
C91 C94 1.480 . S
C92 N89 1.372 . S
C92 N90 1.361 . S
C92 C100 1.457 . S
C93 N88 1.363 . S
C93 N90 1.377 1_556 S
C93 C106 1.479 . S
C94 C91 1.480 . S
C94 C95 1.383 1_554 S
C94 C99 1.385 . S
C95 H76 0.947 . S
C95 C94 1.383 1_556 S
C95 C96 1.388 . S
C96 H77 0.946 . S
C96 C95 1.388 . S
C96 C97 1.384 1_556 S
C97 C96 1.384 1_554 S
C97 C98 1.377 . S
C98 H78 0.953 . S
C98 C97 1.377 . S
C98 C99 1.369 . S
C99 H79 0.945 . S
C99 C94 1.385 . S
C99 C98 1.369 . S
C100 C92 1.457 . S
C100 C101 1.372 . S
C100 C105 1.364 . S
C101 H80 0.952 . S
C101 C100 1.372 . S
C101 C102 1.389 . S
C102 H81 0.949 . S
C102 C101 1.389 . S
C102 C103 1.387 . S
C103 C102 1.387 . S
C103 C104 1.372 . S
C104 H82 0.950 1_655 S
C104 C103 1.372 . S
C104 C105 1.379 . S
C105 H83 0.948 . S
C105 C100 1.364 . S
C105 C104 1.379 . S
C106 C75 1.383 . S
C106 C93 1.479 . S
C106 C107 1.398 . S
C107 C72 1.382 . S
C107 H84 0.951 . S
C107 C106 1.398 . S
C108 C109 1.384 . S
C108 H121 0.947 . S
C108 C143 1.382 . S
C109 C108 1.384 . S
C109 C110 1.378 . S
C110 C109 1.378 . S
C110 C111 1.378 . S
C110 H122 0.952 . S
C111 C110 1.378 . S
C111 H123 0.950 . S
C111 C142 1.383 . S
H112 C131 0.947 . S
H113 C132 0.946 . S
H114 C134 0.953 . S
H115 C135 0.945 . S
H116 C137 0.952 . S
H117 C138 0.949 . S
H118 C140 0.950 . S
H119 C141 0.948 . S
H120 C143 0.951 . S
H121 C108 0.947 . S
H122 C110 0.952 . S
H123 C111 0.950 . S
N124 C127 1.382 . S
N124 C129 1.363 . S
N125 C127 1.371 . S
N125 C128 1.372 . S
N126 C128 1.361 . S
N126 C129 1.377 . S
C127 N124 1.382 . S
C127 N125 1.371 . S
C127 C130 1.480 . S
C128 N125 1.372 . S
C128 N126 1.361 . S
C128 C136 1.457 . S
C129 N124 1.363 . S
C129 N126 1.377 . S
C129 C142 1.479 . S
C130 C127 1.480 . S
C130 C131 1.383 . S
C130 C135 1.385 . S
C131 H112 0.947 . S
C131 C130 1.383 . S
C131 C132 1.388 . S
C132 H113 0.946 . S
C132 C131 1.388 . S
C132 C133 1.384 . S
C133 C132 1.384 . S
C133 C134 1.377 . S
C134 H114 0.953 . S
C134 C133 1.377 . S
C134 C135 1.369 . S
C135 H115 0.945 . S
C135 C130 1.385 . S
C135 C134 1.369 . S
C136 C128 1.457 . S
C136 C137 1.372 . S
C136 C141 1.364 . S
C137 H116 0.952 . S
C137 C136 1.372 . S
C137 C138 1.389 . S
C138 H117 0.949 . S
C138 C137 1.389 . S
C138 C139 1.387 . S
C139 C138 1.387 . S
C139 C140 1.372 . S
C140 H118 0.950 . S
C140 C139 1.372 . S
C140 C141 1.379 . S
C141 H119 0.948 . S
C141 C136 1.364 . S
C141 C140 1.379 . S
C142 C111 1.383 . S
C142 C129 1.479 . S
C142 C143 1.398 . S
C143 C108 1.382 . S
C143 H120 0.951 . S
C143 C142 1.398 . S
O144 Zn145 1.953 1_565 S
O144 C160 1.225 . S
Zn145 O144 1.953 1_545 S
Zn145 O146 1.949 1_655 S
Zn145 O152 1.919 . S
Zn145 O157 1.924 . S
O146 Zn145 1.949 1_455 S
O146 Zn147 1.923 . S
O146 Zn148 1.950 1_445 S
O146 Zn149 1.945 . S
Zn147 O146 1.923 . S
Zn147 O150 1.933 . S
Zn147 O153 1.941 . S
Zn147 O154 1.965 1_545 S
Zn148 O146 1.950 1_665 S
Zn148 O155 1.938 1_655 S
Zn148 O156 1.906 1_655 S
Zn148 O166 1.953 . S
Zn149 O146 1.945 . S
Zn149 O151 1.932 . S
Zn149 O158 1.977 1_545 S
Zn149 O159 1.910 1_455 S
O150 Zn147 1.933 . S
O150 C161 1.226 . S
O151 Zn149 1.932 . S
O151 C161 1.307 . S
O152 Zn145 1.919 . S
O152 C163 1.253 . S
O153 Zn147 1.941 . S
O153 C163 1.283 1_455 S
O154 Zn147 1.965 1_565 S
O154 C162 1.303 . S
O155 Zn148 1.938 1_455 S
O155 C162 1.247 . S
O156 Zn148 1.906 1_455 S
O156 C164 1.304 . S
O157 Zn145 1.924 . S
O157 C165 1.311 . S
O158 Zn149 1.977 1_565 S
O158 C164 1.272 . S
O159 Zn149 1.910 1_655 S
O159 C165 1.231 . S
C160 O144 1.225 . S
C160 O166 1.298 . S
C161 O150 1.226 . S
C161 O151 1.307 . S
C162 O154 1.303 . S
C162 O155 1.247 . S
C163 O152 1.253 . S
C163 O153 1.283 1_655 S
C164 O156 1.304 . S
C164 O158 1.272 . S
C165 O157 1.311 . S
C165 O159 1.231 . S
O166 Zn148 1.953 . S
O166 C160 1.298 . S
O167 Zn168 1.954 . S
O167 C183 1.225 1_556 S
Zn168 O167 1.954 . S
Zn168 O169 1.947 1_556 S
Zn168 O175 1.926 . S
Zn168 O180 1.917 1_556 S
O169 Zn168 1.947 1_554 S
O169 Zn170 1.923 1_554 S
O169 Zn171 1.950 . S
O169 Zn172 1.945 . S
Zn170 O169 1.923 1_556 S
Zn170 O173 1.933 . S
Zn170 O176 1.941 . S
Zn170 O177 1.965 . S
Zn171 O169 1.950 . S
Zn171 O178 1.938 1_554 S
Zn171 O179 1.906 . S
Zn171 O189 1.953 . S
Zn172 O169 1.945 . S
Zn172 O174 1.932 . S
Zn172 O181 1.977 . S
Zn172 O182 1.910 . S
O173 Zn170 1.933 . S
O173 C184 1.226 1_556 S
O174 Zn172 1.932 . S
O174 C184 1.307 . S
O175 Zn168 1.926 . S
O175 C186 1.253 . S
O176 Zn170 1.941 . S
O176 C186 1.283 . S
O177 Zn170 1.965 . S
O177 C185 1.303 . S
O178 Zn171 1.938 1_556 S
O178 C185 1.247 . S
O179 Zn171 1.906 . S
O179 C187 1.304 . S
O180 Zn168 1.917 1_554 S
O180 C188 1.311 . S
O181 Zn172 1.977 . S
O181 C187 1.272 . S
O182 Zn172 1.910 . S
O182 C188 1.231 . S
C183 O167 1.225 1_554 S
C183 O189 1.298 . S
C184 O173 1.226 1_554 S
C184 O174 1.307 . S
C185 O177 1.303 . S
C185 O178 1.247 . S
C186 O175 1.253 . S
C186 O176 1.283 . S
C187 O179 1.304 . S
C187 O181 1.272 . S
C188 O180 1.311 . S
C188 O182 1.231 . S
O189 Zn171 1.953 . S
O189 C183 1.298 . S
C161 C133 2.242 . S
C25 C184 2.065 . S
C61 C160 2.030 . S
C97 C183 2.200 . S
C164 C1 2.354 . S
C186 C67 1.989 . S
C103 C165 2.424 . S
C109 C185 1.953 . S
C188 C37 2.282 . S
C163 C73 2.147 . S
C187 C139 2.492 . S
C31 C162 1.813 . S
