# Generated by pormake.
# Topology ftw, (4,12)-cn, num edge types: 1
# Building blocks:
#     Node 0, Type 0, BuildingBlock: GIZVER_clean_linker_0, # of connection points: 4
#     Node 1, Type 0, BuildingBlock: GIZVER_clean_linker_0, # of connection points: 4
#     Node 2, Type 0, BuildingBlock: GIZVER_clean_linker_0, # of connection points: 4
#     Node 3, Type 1, BuildingBlock: QEWDON_clean_sbu_0, # of connection points: 12
#     Edge 4, Type (0, 1), BuildingBlock: AJUNOK_clean_linker_0, # of connection points: 2
#     Edge 5, Type (0, 1), BuildingBlock: AJUNOK_clean_linker_0, # of connection points: 2
#     Edge 6, Type (0, 1), BuildingBlock: AJUNOK_clean_linker_0, # of connection points: 2
#     Edge 7, Type (0, 1), BuildingBlock: AJUNOK_clean_linker_0, # of connection points: 2
#     Edge 8, Type (0, 1), BuildingBlock: AJUNOK_clean_linker_0, # of connection points: 2
#     Edge 9, Type (0, 1), BuildingBlock: AJUNOK_clean_linker_0, # of connection points: 2
#     Edge 10, Type (0, 1), BuildingBlock: AJUNOK_clean_linker_0, # of connection points: 2
#     Edge 11, Type (0, 1), BuildingBlock: AJUNOK_clean_linker_0, # of connection points: 2
#     Edge 12, Type (0, 1), BuildingBlock: AJUNOK_clean_linker_0, # of connection points: 2
#     Edge 13, Type (0, 1), BuildingBlock: AJUNOK_clean_linker_0, # of connection points: 2
#     Edge 14, Type (0, 1), BuildingBlock: AJUNOK_clean_linker_0, # of connection points: 2
#     Edge 15, Type (0, 1), BuildingBlock: AJUNOK_clean_linker_0, # of connection points: 2
# Relax obj value: 0.120
# Max RMSD: 0.260
# Mean RMSD: 0.213
data_MOF--net-ftw--node1-QEWDON_clean_sbu_0--node2-GIZVER_clean_linker_0--edge1-AJUNOK_clean_linker_0
_symmetry_space_group_name_H-M    P1
_symmetry_Int_Tables_number       1
_symmetry_cell_setting            triclinic
loop_
_symmetry_equiv_pos_as_xyz
'x, y, z'
_cell_length_a     20.35391
_cell_length_b     19.447163
_cell_length_c     18.196632
_cell_angle_alpha  90.145817
_cell_angle_beta   90.333789
_cell_angle_gamma 90.987537
loop_
_atom_site_label
_atom_site_type_symbol
_atom_site_fract_x
_atom_site_fract_y
_atom_site_fract_z
_atom_type_partial_charge
H0 H 0.92941 0.44223 0.37465 0.0
H1 H 0.90668 0.41279 0.6073 0.0
H2 H 0.99315 0.2551 0.47697 0.0
H3 H 0.8398 0.49984 0.45032 0.0
H4 H 0.84635 0.50055 0.54804 0.0
H5 H 0.89728 0.58392 0.37936 0.0
H6 H 0.02155 0.73419 0.48734 0.0
H7 H 0.94578 0.5604 0.6082 0.0
C8 C 0.93867 0.41225 0.42367 0.0
C9 C 0.9673 0.34699 0.41752 0.0
C10 C 0.917 0.4366 0.49212 0.0
C11 C 0.92584 0.39599 0.55487 0.0
C12 C 0.95439 0.33119 0.54937 0.0
C13 C 0.97582 0.30737 0.48121 0.0
C14 C 0.87573 0.50024 0.49666 0.0
C15 C 0.9174 0.56495 0.494 0.0
C16 C 0.92228 0.60251 0.42848 0.0
C17 C 0.95831 0.66452 0.4263 0.0
C18 C 0.99106 0.68803 0.48996 0.0
C19 C 0.98675 0.65117 0.55612 0.0
C20 C 0.95005 0.58922 0.55749 0.0
H21 H 0.42478 0.04928 0.35942 0.0
H22 H 0.46599 0.06644 0.58956 0.0
H23 H 0.28347 0.97515 0.5166 0.0
H24 H 0.50899 0.12677 0.4015 0.0
H25 H 0.51592 0.14624 0.49685 0.0
H26 H 0.59617 0.06783 0.34538 0.0
H27 H 0.74696 0.97553 0.47543 0.0
H28 H 0.57727 0.05876 0.58084 0.0
C29 C 0.41173 0.0364 0.41537 0.0
C30 C 0.35024 0.00499 0.43044 0.0
C31 C 0.45418 0.05771 0.47261 0.0
C32 C 0.43471 0.04729 0.54553 0.0
C33 C 0.3727 0.01877 0.5623 0.0
C34 C 0.3319 -0.00434 0.50439 0.0
C35 C 0.51381 0.10295 0.45677 0.0
C36 C 0.57785 0.06491 0.46231 0.0
C37 C 0.61479 0.05254 0.39873 0.0
C38 C 0.67702 0.02313 0.40406 0.0
C39 C 0.70083 0.00244 0.47272 0.0
C40 C 0.66531 0.01491 0.53709 0.0
C41 C 0.60393 0.04676 0.53135 0.0
H42 H 0.56629 0.34014 0.16798 0.0
H43 H 0.61057 0.55593 0.18372 0.0
H44 H 0.68318 0.44169 1.00147 0.0
H45 H 0.52517 0.40697 0.27103 0.0
H46 H 0.54794 0.49637 0.28062 0.0
H47 H 0.43223 0.37169 0.19273 0.0
H48 H 0.31223 0.5254 0.09314 0.0
H49 H 0.48974 0.58579 0.20713 0.0
C50 C 0.58825 0.38569 0.14385 0.0
C51 C 0.62697 0.38139 0.08006 0.0
C52 C 0.57958 0.44929 0.17917 0.0
C53 C 0.61393 0.50761 0.15421 0.0
C54 C 0.65259 0.50388 0.09128 0.0
C55 C 0.65466 0.44256 0.05153 0.0
C56 C 0.53113 0.45627 0.24068 0.0
C57 C 0.46669 0.47661 0.207 0.0
C58 C 0.42244 0.42538 0.18204 0.0
C59 C 0.36648 0.44314 0.1417 0.0
C60 C 0.35522 0.51194 0.12523 0.0
C61 C 0.39971 0.56341 0.14827 0.0
C62 C 0.4549 0.54596 0.19017 0.0
Zn63 Zn 0.15599 0.10044 0.95047 0.0
Zn64 Zn 0.09394 0.12027 0.10905 0.0
O65 O 0.0943 0.05546 0.02279 0.0
H66 H 0.06025 0.0219 0.01112 0.0
C67 C 0.93352 0.1469 0.79814 0.0
O68 O 0.97729 0.1532 0.85116 0.0
Zn69 Zn 0.91153 0.84553 0.08617 0.0
Zn70 Zn 0.861 0.85164 0.91951 0.0
O71 O 0.90859 0.90703 0.99796 0.0
H72 H 0.93892 0.9448 0.98881 0.0
Zn73 Zn 0.85575 0.07096 0.90935 0.0
O74 O 0.92125 0.08602 0.99291 0.0
Zn75 Zn 0.86473 0.07878 0.08184 0.0
H76 H 0.96394 0.10842 0.99002 0.0
Zn77 Zn 0.1711 0.84483 0.93557 0.0
O78 O 0.1036 0.87671 0.00833 0.0
H79 H 0.06098 0.89455 0.99603 0.0
Zn80 Zn 0.14847 0.88013 0.10593 0.0
C81 C 0.12513 0.7467 0.82036 0.0
O82 O 0.14518 0.70091 0.86811 0.0
O83 O 0.20144 0.18816 0.98967 0.0
O84 O 0.14307 0.20974 0.08971 0.0
O85 O 0.81768 0.76228 0.95743 0.0
O86 O 0.86889 0.75323 0.06525 0.0
O87 O 0.76865 0.11429 0.93872 0.0
O88 O 0.77113 0.10438 0.05996 0.0
C89 C 0.1648 0.01734 0.19109 0.0
O90 O 0.24972 0.79823 0.98693 0.0
O91 O 0.2369 0.83544 0.10161 0.0
O92 O 0.82709 0.89937 0.82484 0.0
C93 C 0.18836 0.22617 0.04446 0.0
O94 O 0.19708 0.04982 0.86133 0.0
C95 C 0.8465 0.9472 0.16672 0.0
O96 O 0.88206 0.11047 0.80857 0.0
C97 C 0.82928 0.72938 0.01649 0.0
O98 O 0.13321 0.81019 0.83519 0.0
C99 C 0.95429 0.16504 0.16855 0.0
O100 O 0.14496 0.07871 0.19206 0.0
O101 O 0.14744 0.97901 0.13755 0.0
C102 C 0.74266 0.12362 1.00124 0.0
O103 O 0.85794 0.88357 0.16858 0.0
O104 O 0.87216 0.98255 0.11581 0.0
C105 C 0.03492 0.81606 0.17118 0.0
O106 O 0.89475 0.14772 0.15703 0.0
O107 O 0.99826 0.13327 0.13325 0.0
C108 C 0.26899 0.8019 0.0538 0.0
O109 O 0.09644 0.8248 0.17861 0.0
O110 O 0.00623 0.8421 0.11612 0.0
C111 C 0.76591 0.9065 0.81368 0.0
O112 O 0.72435 0.88287 0.86291 0.0
C113 C 0.25592 0.06865 0.84831 0.0
O114 O 0.2848 0.11304 0.89298 0.0
C115 C 0.92076 0.31344 0.29566 0.0
C116 C 0.97434 0.31325 0.34463 0.0
C117 C 0.91767 0.26845 0.23574 0.0
C118 C 0.96794 0.22125 0.22203 0.0
H119 H 0.87844 0.34484 0.30656 0.0
H120 H 0.87355 0.26824 0.20209 0.0
S121 S 0.12405 0.20852 0.32649 0.0
N122 N 0.08307 0.26874 0.36994 0.0
N123 N 0.07658 0.18332 0.25721 0.0
C124 C 0.02441 0.22469 0.26661 0.0
C125 C 0.02765 0.27075 0.32804 0.0
C126 C 0.69467 0.97072 0.28061 0.0
C127 C 0.71788 0.01293 0.33821 0.0
C128 C 0.73619 0.95222 0.22294 0.0
C129 C 0.80151 0.97666 0.22039 0.0
H130 H 0.64525 0.94916 0.28209 0.0
H131 H 0.71776 0.91687 0.18123 0.0
S132 S 0.88457 0.09172 0.35546 0.0
N133 N 0.80925 0.08129 0.38748 0.0
N134 N 0.88705 0.04648 0.27856 0.0
C135 C 0.82444 0.02122 0.27576 0.0
C136 C 0.78256 0.03942 0.33491 0.0
C137 C 0.98735 0.66892 0.29325 0.0
C138 C 0.96516 0.70296 0.3565 0.0
C139 C 0.0047 0.70585 0.23007 0.0
C140 C 0.99929 0.77765 0.22784 0.0
H141 H 0.99524 0.61397 0.29412 0.0
H142 H 0.02598 0.67858 0.18425 0.0
S143 S 0.93615 0.89 0.37497 0.0
N144 N 0.93247 0.81179 0.41018 0.0
N145 N 0.96583 0.8811 0.29121 0.0
C146 C 0.97318 0.81181 0.28862 0.0
C147 C 0.95582 0.77441 0.35311 0.0
C148 C 0.23489 0.0125 0.38164 0.0
C149 C 0.30062 -0.00674 0.37028 0.0
C150 C 0.18917 0.01301 0.32399 0.0
C151 C 0.20692 -0.0053 0.25226 0.0
H152 H 0.21922 0.03201 0.43434 0.0
H153 H 0.14052 0.0324 0.33471 0.0
S154 S 0.37091 0.9378 0.19217 0.0
N155 N 0.37929 0.9502 0.2816 0.0
N156 N 0.29379 0.95583 0.17241 0.0
C157 C 0.27114 0.97228 0.24015 0.0
C158 C 0.31786 0.97067 0.29926 0.0
C159 C 0.05908 0.63197 0.66617 0.0
C160 C 0.0214 0.67694 0.62335 0.0
C161 C 0.09282 0.65516 0.72922 0.0
C162 C 0.09052 0.72435 0.75194 0.0
H163 H 0.06312 0.57845 0.65042 0.0
H164 H 0.12116 0.61842 0.7602 0.0
S165 S 0.99539 0.86216 0.66131 0.0
N166 N 0.98108 0.79328 0.61009 0.0
N167 N 0.04542 0.83728 0.72746 0.0
C168 C 0.05273 0.7699 0.7097 0.0
C169 C 0.018 0.74612 0.64579 0.0
C170 C 0.35918 0.08684 0.67784 0.0
C171 C 0.34638 0.02549 0.63844 0.0
C172 C 0.33138 0.09867 0.74653 0.0
C173 C 0.28795 0.05066 0.77836 0.0
H174 H 0.38917 0.1277 0.65451 0.0
H175 H 0.34211 0.14735 0.77352 0.0
S176 S 0.24076 0.87982 0.7019 0.0
N177 N 0.29066 0.91355 0.63985 0.0
N178 N 0.23519 0.93802 0.76777 0.0
C179 C 0.27498 -0.01136 0.74075 0.0
C180 C 0.30482 0.9756 0.67114 0.0
C181 C 0.00521 0.26575 0.65266 0.0
C182 C 0.94952 0.2829 0.6113 0.0
C183 C 0.99998 0.22034 0.71229 0.0
C184 C 0.93907 0.19004 0.73147 0.0
H185 H 0.05272 0.28831 0.63947 0.0
H186 H 0.04384 0.20933 0.74383 0.0
S187 S 0.77942 0.21692 0.63632 0.0
N188 N 0.83267 0.26518 0.59067 0.0
N189 N 0.82214 0.17998 0.70224 0.0
C190 C 0.88336 0.20591 0.68879 0.0
C191 C 0.88879 0.25237 0.62878 0.0
C192 C 0.64985 0.95961 0.66039 0.0
C193 C 0.69165 -0.00729 0.60975 0.0
C194 C 0.67415 0.93327 0.72664 0.0
C195 C 0.74141 0.9383 0.74482 0.0
H196 H 0.59812 0.95209 0.64788 0.0
H197 H 0.63996 0.90723 0.76299 0.0
S198 S 0.87102 0.02498 0.63378 0.0
N199 N 0.80301 0.03394 0.58519 0.0
N200 N 0.8491 0.98193 0.70802 0.0
C201 C 0.78361 0.9728 0.69554 0.0
C202 C 0.75867 0.00055 0.62853 0.0
C203 C 0.25581 0.38674 0.13839 0.0
C204 C 0.32093 0.3897 0.11353 0.0
C205 C 0.21226 0.33508 0.11359 0.0
C206 C 0.23214 0.28555 0.06208 0.0
H207 H 0.23899 0.42361 0.17854 0.0
H208 H 0.16304 0.33328 0.13598 0.0
S209 S 0.39713 0.27589 0.97614 0.0
N210 N 0.40289 0.34231 0.0326 0.0
N211 N 0.32126 0.24563 0.98446 0.0
C212 C 0.29682 0.29009 0.03467 0.0
C213 C 0.34121 0.34205 0.06096 0.0
C214 C 0.38229 0.65112 0.0519 0.0
C215 C 0.38684 0.63485 0.12685 0.0
C216 C 0.35037 0.7104 0.0286 0.0
C217 C 0.32083 0.75471 0.07959 0.0
H218 H 0.39908 0.61507 0.01086 0.0
H219 H 0.34404 0.71812 0.97008 0.0
S220 S 0.33084 0.74005 0.28324 0.0
N221 N 0.36899 0.67166 0.2523 0.0
N222 N 0.30775 0.7829 0.20956 0.0
C223 C 0.33172 0.74251 0.15521 0.0
C224 C 0.36493 0.68237 0.17865 0.0
C225 C 0.71378 0.30972 0.024 0.0
C226 C 0.64885 0.31389 0.05013 0.0
C227 C 0.74019 0.24773 1.00237 0.0
C228 C 0.7044 0.18605 0.00866 0.0
H229 H 0.7468 0.35389 0.02372 0.0
H230 H 0.7912 0.24755 0.98534 0.0
S231 S 0.53195 0.16567 0.0685 0.0
N232 N 0.54707 0.24934 0.07399 0.0
N233 N 0.60074 0.13073 0.03989 0.0
C234 C 0.63943 0.1879 0.03318 0.0
C235 C 0.61082 0.25226 0.05251 0.0
C236 C 0.69508 0.59197 0.00311 0.0
C237 C 0.69816 0.56063 0.07233 0.0
C238 C 0.73954 0.6447 0.98423 0.0
C239 C 0.78909 0.66724 0.03369 0.0
H240 H 0.65747 0.57627 0.96385 0.0
H241 H 0.73399 0.66884 0.93104 0.0
S242 S 0.82177 0.59436 0.21894 0.0
N243 N 0.75689 0.55084 0.18818 0.0
N244 N 0.84113 0.64928 0.15321 0.0
C245 C 0.79413 0.63368 0.10208 0.0
C246 C 0.74841 0.58063 0.12133 0.0
loop_
_geom_bond_atom_site_label_1
_geom_bond_atom_site_label_2
_geom_bond_distance
_geom_bond_site_symmetry_2
_ccdc_geom_bond_type
H0 C8 0.930 . S
H1 C11 0.930 . S
H2 C13 0.930 . S
H3 C14 0.970 . S
H4 C14 0.970 . S
H5 C16 0.930 . S
H6 C18 0.930 . S
H7 C20 0.930 . S
C8 H0 0.930 . S
C8 C9 1.382 . S
C8 C10 1.426 . S
C9 C8 1.382 . S
C9 C13 1.389 1_655 S
C10 C8 1.426 . S
C10 C11 1.375 . S
C10 C14 1.532 . S
C11 H1 0.930 . S
C11 C10 1.375 . S
C11 C12 1.416 . S
C12 C11 1.416 . S
C12 C13 1.371 1_655 S
C13 H2 0.930 . S
C13 C9 1.389 1_455 S
C13 C12 1.371 1_455 S
C14 H3 0.970 . S
C14 H4 0.970 . S
C14 C10 1.532 . S
C14 C15 1.499 . S
C15 C14 1.499 . S
C15 C16 1.370 . S
C15 C20 1.415 . S
C16 H5 0.930 . S
C16 C15 1.370 . S
C16 C17 1.407 . S
C17 C16 1.407 . S
C17 C18 1.365 1_655 S
C18 H6 0.930 . S
C18 C17 1.365 1_455 S
C18 C19 1.393 1_455 S
C19 C18 1.393 1_655 S
C19 C20 1.387 . S
C20 H7 0.930 . S
C20 C15 1.415 . S
C20 C19 1.387 . S
H21 C29 0.930 . S
H22 C32 0.930 . S
H23 C34 0.930 . S
H24 C35 0.970 . S
H25 C35 0.970 . S
H26 C37 0.930 . S
H27 C39 0.930 . S
H28 C41 0.930 . S
C29 H21 0.930 . S
C29 C30 1.382 . S
C29 C31 1.426 . S
C30 C29 1.382 . S
C30 C34 1.389 1_545 S
C31 C29 1.426 . S
C31 C32 1.375 . S
C31 C35 1.532 . S
C32 H22 0.930 . S
C32 C31 1.375 . S
C32 C33 1.416 . S
C33 C32 1.416 . S
C33 C34 1.371 1_545 S
C34 H23 0.930 . S
C34 C30 1.389 1_565 S
C34 C33 1.371 1_565 S
C35 H24 0.970 . S
C35 H25 0.970 . S
C35 C31 1.532 . S
C35 C36 1.499 . S
C36 C35 1.499 . S
C36 C37 1.370 . S
C36 C41 1.415 . S
C37 H26 0.930 . S
C37 C36 1.370 . S
C37 C38 1.407 . S
C38 C37 1.407 . S
C38 C39 1.365 1_545 S
C39 H27 0.930 . S
C39 C38 1.365 1_565 S
C39 C40 1.393 1_565 S
C40 C39 1.393 1_545 S
C40 C41 1.387 . S
C41 H28 0.930 . S
C41 C36 1.415 . S
C41 C40 1.387 . S
H42 C50 0.930 . S
H43 C53 0.930 . S
H44 C55 0.930 1_556 S
H45 C56 0.970 . S
H46 C56 0.970 . S
H47 C58 0.930 . S
H48 C60 0.930 1_556 S
H49 C62 0.930 . S
C50 H42 0.930 . S
C50 C51 1.382 . S
C50 C52 1.426 . S
C51 C50 1.382 . S
C51 C55 1.389 . S
C52 C50 1.426 . S
C52 C53 1.375 . S
C52 C56 1.532 . S
C53 H43 0.930 . S
C53 C52 1.375 . S
C53 C54 1.416 . S
C54 C53 1.416 . S
C54 C55 1.371 . S
C55 H44 0.930 1_554 S
C55 C51 1.389 . S
C55 C54 1.371 . S
C56 H45 0.970 . S
C56 H46 0.970 . S
C56 C52 1.532 . S
C56 C57 1.499 . S
C57 C56 1.499 . S
C57 C58 1.370 . S
C57 C62 1.415 . S
C58 H47 0.930 . S
C58 C57 1.370 . S
C58 C59 1.407 . S
C59 C58 1.407 . S
C59 C60 1.365 . S
C60 H48 0.930 1_554 S
C60 C59 1.365 . S
C60 C61 1.393 . S
C61 C60 1.393 . S
C61 C62 1.387 . S
C62 H49 0.930 . S
C62 C57 1.415 . S
C62 C61 1.387 . S
Zn63 O65 1.933 1_556 S
Zn63 O83 1.985 . S
Zn63 O94 1.955 . S
Zn64 O65 1.911 . S
Zn64 O84 1.970 . S
Zn64 O100 1.945 . S
Zn64 O107 1.981 . S
O65 Zn63 1.933 1_554 S
O65 Zn64 1.911 . S
O65 H66 0.841 . S
H66 O65 0.841 . S
C67 O68 1.246 . S
C67 O96 1.276 1_455 S
O68 C67 1.246 . S
Zn69 O71 1.911 . S
Zn69 O86 1.970 . S
Zn69 O103 1.945 . S
Zn69 O110 1.981 . S
Zn70 O71 1.933 1_556 S
Zn70 O85 1.985 . S
Zn70 O92 1.955 . S
O71 Zn69 1.911 . S
O71 Zn70 1.933 1_554 S
O71 H72 0.841 . S
H72 O71 0.841 . S
Zn73 O74 1.933 1_556 S
Zn73 O87 1.985 . S
Zn73 O96 1.955 . S
O74 Zn73 1.933 1_554 S
O74 Zn75 1.911 . S
O74 H76 0.841 . S
Zn75 O74 1.911 . S
Zn75 O88 1.970 . S
Zn75 O104 1.981 . S
Zn75 O106 1.945 . S
H76 O74 0.841 . S
Zn77 O78 1.933 1_556 S
Zn77 O90 1.985 . S
Zn77 O98 1.955 . S
O78 Zn77 1.933 1_554 S
O78 H79 0.841 . S
O78 Zn80 1.911 . S
H79 O78 0.841 . S
Zn80 O78 1.911 . S
Zn80 O91 1.970 . S
Zn80 O101 1.981 . S
Zn80 O109 1.945 . S
C81 O82 1.246 . S
C81 O98 1.276 1_655 S
O82 C81 1.246 . S
O83 Zn63 1.985 . S
O83 C93 1.245 1_556 S
O84 Zn64 1.970 . S
O84 C93 1.263 . S
O85 Zn70 1.985 . S
O85 C97 1.245 1_556 S
O86 Zn69 1.970 . S
O86 C97 1.263 . S
O87 Zn73 1.985 . S
O87 C102 1.245 1_556 S
O88 Zn75 1.970 . S
O88 C102 1.263 . S
C89 O100 1.262 . S
C89 O101 1.245 1_545 S
O90 Zn77 1.985 . S
O90 C108 1.245 1_556 S
O91 Zn80 1.970 . S
O91 C108 1.263 . S
O92 Zn70 1.955 . S
O92 C111 1.276 1_565 S
C93 O83 1.245 1_554 S
C93 O84 1.263 . S
O94 Zn63 1.955 . S
O94 C113 1.276 1_545 S
C95 O103 1.264 . S
C95 O104 1.244 1_565 S
O96 C67 1.276 1_655 S
O96 Zn73 1.955 . S
C97 O85 1.245 1_554 S
C97 O86 1.263 . S
O98 Zn77 1.955 . S
O98 C81 1.276 1_455 S
C99 O106 1.265 . S
C99 O107 1.243 1_655 S
O100 Zn64 1.945 . S
O100 C89 1.262 . S
O101 Zn80 1.981 . S
O101 C89 1.245 1_565 S
C102 O87 1.245 1_554 S
C102 O88 1.263 . S
O103 Zn69 1.945 . S
O103 C95 1.264 . S
O104 Zn75 1.981 . S
O104 C95 1.244 1_545 S
C105 O109 1.261 1_655 S
C105 O110 1.245 . S
O106 Zn75 1.945 . S
O106 C99 1.265 . S
O107 Zn64 1.981 . S
O107 C99 1.243 1_455 S
C108 O90 1.245 1_554 S
C108 O91 1.263 . S
O109 Zn80 1.945 . S
O109 C105 1.261 1_455 S
O110 Zn69 1.981 . S
O110 C105 1.245 . S
C111 O92 1.276 1_545 S
C111 O112 1.246 . S
O112 C111 1.246 . S
C113 O94 1.276 1_565 S
C113 O114 1.246 . S
O114 C113 1.246 . S
C115 C116 1.379 . S
C115 C117 1.419 . S
C115 H119 0.930 . S
C116 C115 1.379 . S
C116 C125 1.417 1_655 S
C117 C115 1.419 . S
C117 C118 1.363 1_655 S
C117 H120 0.929 . S
C118 C117 1.363 1_455 S
C118 C124 1.428 . S
H119 C115 0.930 . S
H120 C117 0.929 . S
S121 N122 1.613 . S
S121 N123 1.610 . S
N122 S121 1.613 . S
N122 C125 1.350 . S
N123 S121 1.610 . S
N123 C124 1.351 . S
C124 C118 1.428 . S
C124 N123 1.351 . S
C124 C125 1.434 . S
C125 C116 1.417 1_455 S
C125 N122 1.350 . S
C125 C124 1.434 . S
C126 C127 1.365 1_565 S
C126 C128 1.419 . S
C126 H130 0.930 . S
C127 C126 1.365 1_545 S
C127 C136 1.434 . S
C128 C126 1.419 . S
C128 C129 1.363 1_565 S
C128 H131 0.929 . S
C129 C128 1.363 1_545 S
C129 C135 1.428 . S
H130 C126 0.930 . S
H131 C128 0.929 . S
S132 N133 1.613 . S
S132 N134 1.610 . S
N133 S132 1.613 . S
N133 C136 1.350 . S
N134 S132 1.610 . S
N134 C135 1.351 . S
C135 C129 1.428 . S
C135 N134 1.351 . S
C135 C136 1.434 . S
C136 C127 1.434 . S
C136 N133 1.350 . S
C136 C135 1.434 . S
C137 C138 1.369 1_655 S
C137 C139 1.419 . S
C137 H141 0.930 . S
C138 C137 1.369 1_455 S
C138 C147 1.429 . S
C139 C137 1.419 . S
C139 C140 1.363 . S
C139 H142 0.929 . S
C140 C139 1.363 . S
C140 C146 1.428 1_655 S
H141 C137 0.930 . S
H142 C139 0.929 . S
S143 N144 1.613 . S
S143 N145 1.610 . S
N144 S143 1.613 . S
N144 C147 1.350 . S
N145 S143 1.610 . S
N145 C146 1.351 . S
C146 C140 1.428 1_455 S
C146 N145 1.351 . S
C146 C147 1.434 . S
C147 C138 1.429 . S
C147 N144 1.350 . S
C147 C146 1.434 . S
C148 C149 1.369 . S
C148 C150 1.419 . S
C148 H152 0.930 . S
C149 C148 1.369 . S
C149 C158 1.429 1_545 S
C150 C148 1.419 . S
C150 C151 1.363 1_545 S
C150 H153 0.929 . S
C151 C150 1.363 1_565 S
C151 C157 1.428 . S
H152 C148 0.930 . S
H153 C150 0.929 . S
S154 N155 1.613 . S
S154 N156 1.610 . S
N155 S154 1.613 . S
N155 C158 1.350 . S
N156 S154 1.610 . S
N156 C157 1.351 . S
C157 C151 1.428 . S
C157 N156 1.351 . S
C157 C158 1.434 . S
C158 C149 1.429 1_565 S
C158 N155 1.350 . S
C158 C157 1.434 . S
C159 C160 1.369 . S
C159 C161 1.419 . S
C159 H163 0.930 . S
C160 C159 1.369 . S
C160 C169 1.429 . S
C161 C159 1.419 . S
C161 C162 1.363 . S
C161 H164 0.929 . S
C162 C161 1.363 . S
C162 C168 1.428 . S
H163 C159 0.930 . S
H164 C161 0.929 . S
S165 N166 1.613 . S
S165 N167 1.610 1_455 S
N166 S165 1.613 . S
N166 C169 1.350 1_455 S
N167 S165 1.610 1_655 S
N167 C168 1.351 . S
C168 C162 1.428 . S
C168 N167 1.351 . S
C168 C169 1.434 . S
C169 C160 1.429 . S
C169 N166 1.350 1_655 S
C169 C168 1.434 . S
C170 C171 1.369 1_545 S
C170 C172 1.419 . S
C170 H174 0.930 . S
C171 C170 1.369 1_565 S
C171 C180 1.429 . S
C172 C170 1.419 . S
C172 C173 1.363 1_545 S
C172 H175 0.929 . S
C173 C172 1.363 1_565 S
C173 C179 1.428 . S
H174 C170 0.930 . S
H175 C172 0.929 . S
S176 N177 1.613 . S
S176 N178 1.610 . S
N177 S176 1.613 . S
N177 C180 1.350 . S
N178 S176 1.610 . S
N178 C179 1.351 . S
C179 C173 1.428 . S
C179 N178 1.351 . S
C179 C180 1.434 . S
C180 C171 1.429 . S
C180 N177 1.350 . S
C180 C179 1.434 . S
C181 C182 1.369 . S
C181 C183 1.419 . S
C181 H185 0.930 . S
C182 C181 1.369 . S
C182 C191 1.429 1_455 S
C183 C181 1.419 . S
C183 C184 1.363 . S
C183 H186 0.929 . S
C184 C183 1.363 . S
C184 C190 1.428 1_455 S
H185 C181 0.930 . S
H186 C183 0.929 . S
S187 N188 1.613 . S
S187 N189 1.610 . S
N188 S187 1.613 . S
N188 C191 1.350 . S
N189 S187 1.610 . S
N189 C190 1.351 . S
C190 C184 1.428 1_655 S
C190 N189 1.351 . S
C190 C191 1.434 . S
C191 C182 1.429 1_655 S
C191 N188 1.350 . S
C191 C190 1.434 . S
C192 C193 1.369 . S
C192 C194 1.419 . S
C192 H196 0.930 . S
C193 C192 1.369 . S
C193 C202 1.429 . S
C194 C192 1.419 . S
C194 C195 1.363 . S
C194 H197 0.929 . S
C195 C194 1.363 . S
C195 C201 1.428 . S
H196 C192 0.930 . S
H197 C194 0.929 . S
S198 N199 1.613 . S
S198 N200 1.610 . S
N199 S198 1.613 . S
N199 C202 1.350 . S
N200 S198 1.610 . S
N200 C201 1.351 . S
C201 C195 1.428 . S
C201 N200 1.351 . S
C201 C202 1.434 . S
C202 C193 1.429 . S
C202 N199 1.350 . S
C202 C201 1.434 . S
C203 C204 1.369 1_556 S
C203 C205 1.419 . S
C203 H207 0.930 . S
C204 C203 1.369 1_554 S
C204 C213 1.429 . S
C205 C203 1.419 . S
C205 C206 1.363 1_556 S
C205 H208 0.929 . S
C206 C205 1.363 1_554 S
C206 C212 1.428 . S
H207 C203 0.930 . S
H208 C205 0.929 . S
S209 N210 1.613 . S
S209 N211 1.610 . S
N210 S209 1.613 . S
N210 C213 1.350 . S
N211 S209 1.610 . S
N211 C212 1.351 . S
C212 C206 1.428 . S
C212 N211 1.351 . S
C212 C213 1.434 . S
C213 C204 1.429 . S
C213 N210 1.350 . S
C213 C212 1.434 . S
C214 C215 1.369 1_556 S
C214 C216 1.419 . S
C214 H218 0.930 . S
C215 C214 1.369 1_554 S
C215 C224 1.429 . S
C216 C214 1.419 . S
C216 C217 1.363 1_556 S
C216 H219 0.929 . S
C217 C216 1.363 1_554 S
C217 C223 1.428 . S
H218 C214 0.930 . S
H219 C216 0.929 . S
S220 N221 1.613 . S
S220 N222 1.610 . S
N221 S220 1.613 . S
N221 C224 1.350 . S
N222 S220 1.610 . S
N222 C223 1.351 . S
C223 C217 1.428 . S
C223 N222 1.351 . S
C223 C224 1.434 . S
C224 C215 1.429 . S
C224 N221 1.350 . S
C224 C223 1.434 . S
C225 C226 1.369 . S
C225 C227 1.419 . S
C225 H229 0.930 . S
C226 C225 1.369 . S
C226 C235 1.429 . S
C227 C225 1.419 . S
C227 C228 1.363 . S
C227 H230 0.929 . S
C228 C227 1.363 . S
C228 C234 1.428 . S
H229 C225 0.930 . S
H230 C227 0.929 . S
S231 N232 1.613 . S
S231 N233 1.610 . S
N232 S231 1.613 . S
N232 C235 1.350 . S
N233 S231 1.610 . S
N233 C234 1.351 . S
C234 C228 1.428 . S
C234 N233 1.351 . S
C234 C235 1.434 . S
C235 C226 1.429 . S
C235 N232 1.350 . S
C235 C234 1.434 . S
C236 C237 1.369 1_556 S
C236 C238 1.419 . S
C236 H240 0.930 . S
C237 C236 1.369 1_554 S
C237 C246 1.429 . S
C238 C236 1.419 . S
C238 C239 1.363 1_556 S
C238 H241 0.929 . S
C239 C238 1.363 1_554 S
C239 C245 1.428 . S
H240 C236 0.930 . S
H241 C238 0.929 . S
S242 N243 1.613 . S
S242 N244 1.610 . S
N243 S242 1.613 . S
N243 C246 1.350 . S
N244 S242 1.610 . S
N244 C245 1.351 . S
C245 C239 1.428 . S
C245 N244 1.351 . S
C245 C246 1.434 . S
C246 C237 1.429 . S
C246 N243 1.350 . S
C246 C245 1.434 . S
C118 C99 1.385 1_455 S
C116 C9 1.443 . S
C129 C95 1.653 1_545 S
C127 C38 1.682 . S
C140 C105 1.396 . S
C138 C17 1.422 1_455 S
C151 C89 1.633 1_565 S
C149 C30 1.706 . S
C160 C19 1.505 . S
C162 C81 1.448 . S
C173 C113 1.729 . S
C171 C33 1.786 1_565 S
C182 C12 1.519 1_455 S
C184 C67 1.465 . S
C193 C40 1.778 . S
C195 C111 1.705 . S
C204 C59 1.377 . S
C206 C93 1.389 . S
C215 C61 1.459 . S
C217 C108 1.391 . S
C228 C102 1.404 . S
C226 C51 1.460 . S
C239 C97 1.390 . S
C237 C54 1.356 . S
