# Generated by pormake.
# Topology scu, (8,4)-cn, num edge types: 1
# Building blocks:
#     Node 0, Type 0, BuildingBlock: TAGTUT_clean_sbu_3, # of connection points: 8
#     Node 1, Type 1, BuildingBlock: IZENUY_clean_linker_0, # of connection points: 4
#     Node 2, Type 1, BuildingBlock: IZENUY_clean_linker_0, # of connection points: 4
#     Edge 3, Type (0, 1), BuildingBlock: CIFDUS_clean_linker_0, # of connection points: 2
#     Edge 4, Type (0, 1), BuildingBlock: CIFDUS_clean_linker_0, # of connection points: 2
#     Edge 5, Type (0, 1), BuildingBlock: CIFDUS_clean_linker_0, # of connection points: 2
#     Edge 6, Type (0, 1), BuildingBlock: CIFDUS_clean_linker_0, # of connection points: 2
#     Edge 7, Type (0, 1), BuildingBlock: CIFDUS_clean_linker_0, # of connection points: 2
#     Edge 8, Type (0, 1), BuildingBlock: CIFDUS_clean_linker_0, # of connection points: 2
#     Edge 9, Type (0, 1), BuildingBlock: CIFDUS_clean_linker_0, # of connection points: 2
#     Edge 10, Type (0, 1), BuildingBlock: CIFDUS_clean_linker_0, # of connection points: 2
# Relax obj value: 0.051
# Max RMSD: 0.186
# Mean RMSD: 0.141
data_MOF--net-scu--node1-TAGTUT_clean_sbu_3--node2-IZENUY_clean_linker_0--edge1-CIFDUS_clean_linker_0
_symmetry_space_group_name_H-M    P1
_symmetry_Int_Tables_number       1
_symmetry_cell_setting            triclinic
loop_
_symmetry_equiv_pos_as_xyz
'x, y, z'
_cell_length_a     27.333417
_cell_length_b     23.475557
_cell_length_c     17.453278
_cell_angle_alpha  92.228806
_cell_angle_beta   89.135497
_cell_angle_gamma 90.711393
loop_
_atom_site_label
_atom_site_type_symbol
_atom_site_fract_x
_atom_site_fract_y
_atom_site_fract_z
_atom_type_partial_charge
C0 C 1.00463 0.90813 0.0765 0.0
C1 C 0.8273 1.00184 0.04464 0.0
C2 C 0.88553 0.0463 0.82729 0.0
Mg3 Mg 0.10966 0.95098 0.00753 0.0
Mg4 Mg 0.12794 0.08807 -0.01307 0.0
O5 O 0.09011 0.02333 0.95896 0.0
Mg6 Mg 1.0186 0.02554 -0.01527 0.0
O7 O 0.94682 0.02215 0.00985 0.0
Mg8 Mg 0.92744 0.95056 0.95048 0.0
Mg9 Mg 0.90848 0.08582 -0.01078 0.0
C10 C 0.04168 0.14268 0.89401 0.0
O11 O 1.02426 0.10159 0.07477 0.0
O12 O 0.18429 0.96211 0.94026 0.0
O13 O 0.95471 0.14832 0.04926 0.0
O14 O 0.14555 0.99693 0.1095 0.0
O15 O 0.19362 0.05728 0.93111 0.0
O16 O 0.14412 0.09155 0.10824 0.0
O17 O 1.00504 0.95386 0.89402 0.0
O18 O 0.07351 0.9046 0.90712 0.0
C19 C 0.03211 0.91116 0.87572 0.0
C20 C 0.20877 1.00619 0.91869 0.0
O21 O 1.01366 0.09856 0.90096 0.0
O22 O 0.85176 0.95893 0.01682 0.0
O23 O 0.0828 0.14875 0.92874 0.0
O24 O 0.89535 0.9972 0.8511 0.0
O25 O 0.84279 0.05343 0.04071 0.0
O26 O 0.89186 0.09126 0.86934 0.0
O27 O 0.03203 0.95205 0.06582 0.0
O28 O 0.96264 0.90278 0.04531 0.0
C29 C 0.15482 0.04571 0.14077 0.0
C30 C 0.99639 0.14566 0.08222 0.0
H31 H 0.06893 0.43975 0.37043 0.0
H32 H 0.05284 0.44979 0.61633 0.0
H33 H 0.06122 0.28638 0.49799 0.0
H34 H 0.04593 0.60386 0.5698 0.0
H35 H 0.08168 0.6162 0.32963 0.0
H36 H 0.063 0.768 0.47317 0.0
N37 N 0.06061 0.51212 0.49685 0.0
N38 N 0.06612 0.54209 0.43979 0.0
C39 C 0.06576 0.41897 0.42466 0.0
C40 C 0.06629 0.359 0.42613 0.0
C41 C 0.06128 0.45169 0.49383 0.0
C42 C 0.05672 0.42432 0.56346 0.0
C43 C 0.05635 0.36478 0.56541 0.0
C44 C 0.0614 0.33253 0.49665 0.0
C45 C 0.05407 0.62933 0.52066 0.0
C46 C 0.05313 0.68885 0.52969 0.0
C47 C 0.06479 0.60263 0.44868 0.0
C48 C 0.07417 0.63647 0.38533 0.0
C49 C 0.07398 0.6964 0.3941 0.0
C50 C 0.06358 0.7219 0.46637 0.0
H51 H 0.57861 0.96299 0.37105 0.0
H52 H 0.60879 0.02113 0.60308 0.0
H53 H 0.72617 0.99954 0.43707 0.0
H54 H 0.46014 0.9703 0.59777 0.0
H55 H 0.43574 1.00595 0.36119 0.0
H56 H 0.31338 0.98146 0.51449 0.0
N57 N 0.53697 0.99239 0.50962 0.0
N58 N 0.50487 0.98985 0.45949 0.0
C59 C 0.6043 0.97682 0.41484 0.0
C60 C 0.65451 0.97754 0.39727 0.0
C61 C 0.58764 0.99299 0.4895 0.0
C62 C 0.62179 0.00993 0.54559 0.0
C63 C 0.6722 0.01241 0.52768 0.0
C64 C 0.68777 0.99648 0.45301 0.0
C65 C 0.43544 0.9776 0.55129 0.0
C66 C 0.38456 0.97421 0.56422 0.0
C67 C 0.45395 0.98863 0.47726 0.0
C68 C 0.4213 0.99737 0.41782 0.0
C69 C 0.37051 0.99594 0.43101 0.0
C70 C 0.35258 0.98398 0.50421 0.0
H71 H 0.07159 0.15414 0.18472 0.0
H72 H 0.9539 0.25006 0.0919 0.0
H73 H 0.9698 0.32834 0.18347 0.0
H74 H 1.01032 0.36521 0.29996 0.0
H75 H 0.12707 0.26974 0.39471 0.0
H76 H 0.11923 0.19702 0.29162 0.0
C77 C 0.04997 0.19249 0.18365 0.0
C78 C 1.01103 0.19541 0.13224 0.0
C79 C 0.05902 0.23771 0.23714 0.0
C80 C 0.98356 0.24583 0.13166 0.0
C81 C 0.99265 0.29095 0.18398 0.0
C82 C 0.03488 0.32921 0.29671 0.0
C83 C 0.06885 0.32249 0.35503 0.0
C84 C 0.02932 0.28674 0.23841 0.0
C85 C 0.10024 0.27542 0.35066 0.0
C86 C 0.0956 0.23364 0.29199 0.0
H87 H 0.80313 0.91409 0.13639 0.0
H88 H 0.74874 0.07112 0.05201 0.0
H89 H 0.68196 0.07073 0.1462 0.0
H90 H 0.64902 0.03593 0.26776 0.0
H91 H 0.70736 0.88366 0.35897 0.0
H92 H 0.76158 0.87103 0.24683 0.0
C93 C 0.77573 0.94714 0.13719 0.0
C94 C 0.78118 0.99292 0.08813 0.0
C95 C 0.73829 0.94776 0.19353 0.0
C96 C 0.74562 0.03578 0.09 0.0
C97 C 0.70747 0.03569 0.14396 0.0
C98 C 0.67223 0.99884 0.26119 0.0
C99 C 0.6742 0.96054 0.32066 0.0
C100 C 0.70479 0.9934 0.19831 0.0
C101 C 0.7051 0.91324 0.31304 0.0
C102 C 0.73643 0.9064 0.24941 0.0
H103 H 0.07745 0.90624 0.18314 0.0
H104 H 0.97073 0.79939 0.06487 0.0
H105 H 0.98952 0.72054 0.14465 0.0
H106 H 0.0271 0.6859 0.25943 0.0
H107 H 0.13175 0.79182 0.38236 0.0
H108 H 0.12378 0.86614 0.28895 0.0
C109 C 0.05893 0.86545 0.17427 0.0
C110 C 1.02187 0.85935 0.11953 0.0
C111 C 0.06938 0.81991 0.22144 0.0
C112 C 0.99854 0.80592 0.10802 0.0
C113 C 1.00937 0.76048 0.15338 0.0
C114 C 0.04935 0.72444 0.26429 0.0
C115 C 0.0795 0.73368 0.32786 0.0
C116 C 0.04344 0.76754 0.21193 0.0
C117 C 0.10783 0.78411 0.33402 0.0
C118 C 0.10308 0.82673 0.28094 0.0
H119 H 0.23813 0.98924 0.13936 0.0
H120 H 0.15143 0.10502 0.28041 0.0
H121 H 0.2122 0.10172 0.3831 0.0
H122 H 0.28896 0.06219 0.4329 0.0
H123 H 0.37434 0.94688 0.28771 0.0
H124 H 0.31512 0.9539 0.18553 0.0
C125 C 0.2325 0.01371 0.19279 0.0
C126 C 0.19044 0.04707 0.20318 0.0
C127 C 0.26737 0.01162 0.25024 0.0
C128 C 0.1838 0.07947 0.27154 0.0
C129 C 0.21837 0.07721 0.33002 0.0
C130 C 0.29449 0.03875 0.37876 0.0
C131 C 0.33592 1.00393 0.3678 0.0
C132 C 0.26013 0.04296 0.32011 0.0
C133 C 0.34308 0.97433 0.29719 0.0
C134 C 0.30909 0.97802 0.239 0.0
H135 H 0.06193 0.80282 0.85917 0.0
H136 H 0.97178 0.92661 0.7542 0.0
H137 H 0.96494 0.86387 0.63904 0.0
H138 H 0.99486 0.78027 0.56265 0.0
H139 H 0.08977 0.66082 0.66723 0.0
H140 H 0.08394 0.71511 0.78882 0.0
C141 C 0.04017 0.81577 0.81148 0.0
C142 C 1.0182 0.86962 0.81421 0.0
C143 C 0.03772 0.78047 0.74531 0.0
C144 C 0.98918 0.88538 0.75304 0.0
C145 C 0.98567 0.84976 0.68709 0.0
C146 C 1.01397 0.76601 0.6123 0.0
C147 C 0.04335 0.71711 0.60568 0.0
C148 C 1.01148 0.79829 0.68156 0.0
C149 C 0.06688 0.6982 0.67082 0.0
C150 C 0.06385 0.72943 0.74022 0.0
H151 H 0.2345 0.91658 0.82278 0.0
H152 H 0.28488 0.0812 0.90973 0.0
H153 H 0.35117 0.08068 0.81474 0.0
H154 H 0.38593 0.04118 0.69347 0.0
H155 H 0.33194 0.88031 0.60064 0.0
H156 H 0.27695 0.87081 0.71155 0.0
C157 C 0.2608 0.95154 0.8222 0.0
C158 C 0.25434 0.99917 0.87248 0.0
C159 C 0.29811 0.9518 0.76569 0.0
C160 C 0.28863 0.04435 0.87084 0.0
C161 C 0.32657 0.04416 0.81646 0.0
C162 C 0.36335 1.0032 0.69927 0.0
C163 C 0.36293 0.96136 0.63974 0.0
C164 C 0.33045 0.99926 0.76159 0.0
C165 C 0.33291 0.91275 0.6465 0.0
C166 C 0.3012 0.90761 0.70947 0.0
H167 H 0.08272 0.24766 0.87916 0.0
H168 H 0.97364 0.13335 0.78048 0.0
H169 H 0.96515 0.19561 0.67283 0.0
H170 H 0.99604 0.27624 0.5993 0.0
H171 H 0.10686 0.38853 0.69639 0.0
H172 H 0.1071 0.33351 0.81244 0.0
C173 C 0.05658 0.23666 0.83468 0.0
C174 C 0.02945 0.1854 0.83737 0.0
C175 C 0.0526 0.27199 0.77222 0.0
C176 C 0.99512 0.17241 0.77988 0.0
C177 C 0.9905 0.20779 0.71791 0.0
C178 C 1.01996 0.28877 0.64621 0.0
C179 C 0.0519 0.33577 0.63907 0.0
C180 C 1.02028 0.25659 0.71226 0.0
C181 C 0.08198 0.35247 0.70068 0.0
C182 C 0.0823 0.32088 0.76679 0.0
H183 H 0.80494 0.10807 0.79959 0.0
H184 H 0.90349 0.98411 0.69673 0.0
H185 H 0.8459 0.96347 0.59362 0.0
H186 H 0.76394 0.97101 0.5436 0.0
H187 H 0.66413 0.09535 0.64338 0.0
H188 H 0.72511 0.12374 0.73907 0.0
C189 C 0.81443 0.07815 0.75296 0.0
C190 C 0.85843 0.04785 0.75522 0.0
C191 C 0.78022 0.06492 0.69528 0.0
C192 C 0.86994 0.00814 0.69567 0.0
C193 C 0.83678 0.99583 0.63733 0.0
C194 C 0.75564 1.00541 0.58479 0.0
C195 C 0.7092 0.03082 0.58592 0.0
C196 C 0.79113 0.02241 0.63826 0.0
C197 C 0.69909 0.07412 0.64175 0.0
C198 C 0.73421 0.09093 0.69599 0.0
loop_
_geom_bond_atom_site_label_1
_geom_bond_atom_site_label_2
_geom_bond_distance
_geom_bond_site_symmetry_2
_ccdc_geom_bond_type
C0 O27 1.304 1_655 S
C0 O28 1.219 . S
C1 O22 1.331 . S
C1 O25 1.244 1_565 S
C2 O24 1.264 1_545 S
C2 O26 1.273 . S
Mg3 O5 1.936 1_565 S
Mg3 O12 2.081 . S
Mg3 O14 2.023 1_556 S
Mg3 O18 2.031 . S
Mg3 O27 2.291 1_556 S
Mg4 O5 1.963 . S
Mg4 O15 1.942 . S
Mg4 O16 1.955 1_556 S
Mg4 O23 1.986 . S
O5 Mg3 1.936 1_545 S
O5 Mg4 1.963 . S
O5 Mg6 1.912 1_556 S
Mg6 O5 1.912 1_554 S
Mg6 O7 1.918 1_455 S
Mg6 O11 2.020 . S
Mg6 O17 2.108 1_444 S
Mg6 O21 2.005 1_454 S
Mg6 O27 2.120 1_545 S
O7 Mg6 1.918 1_655 S
O7 Mg8 1.936 1_545 S
O7 Mg9 1.963 . S
Mg8 O7 1.936 1_565 S
Mg8 O17 2.291 1_554 S
Mg8 O22 2.081 . S
Mg8 O24 2.023 1_554 S
Mg8 O28 2.031 . S
Mg9 O7 1.963 . S
Mg9 O13 1.986 . S
Mg9 O25 1.942 . S
Mg9 O26 1.955 1_554 S
C10 O21 1.191 1_455 S
C10 O23 1.307 . S
O11 Mg6 2.020 . S
O11 C30 1.191 1_455 S
O12 Mg3 2.081 . S
O12 C20 1.331 . S
O13 Mg9 1.986 . S
O13 C30 1.307 . S
O14 Mg3 2.023 1_554 S
O14 C29 1.264 1_565 S
O15 Mg4 1.942 . S
O15 C20 1.244 1_545 S
O16 Mg4 1.955 1_554 S
O16 C29 1.273 . S
O17 Mg6 2.108 1_666 S
O17 Mg8 2.291 1_556 S
O17 C19 1.312 1_655 S
O18 Mg3 2.031 . S
O18 C19 1.208 . S
C19 O17 1.312 1_455 S
C19 O18 1.208 . S
C20 O12 1.331 . S
C20 O15 1.244 1_565 S
O21 Mg6 2.005 1_656 S
O21 C10 1.191 1_655 S
O22 C1 1.331 . S
O22 Mg8 2.081 . S
O23 Mg4 1.986 . S
O23 C10 1.307 . S
O24 C2 1.264 1_565 S
O24 Mg8 2.023 1_556 S
O25 C1 1.244 1_545 S
O25 Mg9 1.942 . S
O26 C2 1.273 . S
O26 Mg9 1.955 1_556 S
O27 C0 1.304 1_455 S
O27 Mg3 2.291 1_554 S
O27 Mg6 2.120 1_565 S
O28 C0 1.219 . S
O28 Mg8 2.031 . S
C29 O14 1.264 1_545 S
C29 O16 1.273 . S
C30 O11 1.191 1_655 S
C30 O13 1.307 . S
H31 C39 0.940 . S
H32 C42 0.940 . S
H33 C44 0.940 1_655 S
H34 C45 0.940 . S
H35 C48 0.940 . S
H36 C50 0.940 1_655 S
N37 N38 1.190 . S
N37 C41 1.477 . S
N38 N37 1.190 . S
N38 C47 1.477 . S
C39 H31 0.940 . S
C39 C40 1.390 . S
C39 C41 1.322 . S
C40 C39 1.390 . S
C40 C44 1.370 . S
C41 N37 1.477 . S
C41 C39 1.322 . S
C41 C42 1.447 . S
C42 H32 0.940 . S
C42 C41 1.447 . S
C42 C43 1.373 . S
C43 C42 1.373 . S
C43 C44 1.417 . S
C44 H33 0.940 1_455 S
C44 C40 1.370 . S
C44 C43 1.417 . S
C45 H34 0.940 . S
C45 C46 1.390 . S
C45 C47 1.322 . S
C46 C45 1.390 . S
C46 C50 1.370 . S
C47 N38 1.477 . S
C47 C45 1.322 . S
C47 C48 1.447 . S
C48 H35 0.940 . S
C48 C47 1.447 . S
C48 C49 1.373 . S
C49 C48 1.373 . S
C49 C50 1.417 . S
C50 H36 0.940 1_455 S
C50 C46 1.370 . S
C50 C49 1.417 . S
H51 C59 0.940 . S
H52 C62 0.940 . S
H53 C64 0.937 1_565 S
H54 C65 0.940 . S
H55 C68 0.940 . S
H56 C70 0.937 1_565 S
N57 N58 1.190 . S
N57 C61 1.477 . S
N58 N57 1.190 . S
N58 C67 1.477 . S
C59 H51 0.940 . S
C59 C60 1.390 . S
C59 C61 1.322 . S
C60 C59 1.390 . S
C60 C64 1.370 . S
C61 N57 1.477 . S
C61 C59 1.322 . S
C61 C62 1.447 . S
C62 H52 0.940 . S
C62 C61 1.447 . S
C62 C63 1.373 . S
C63 C62 1.373 . S
C63 C64 1.420 . S
C64 H53 0.937 1_545 S
C64 C60 1.370 . S
C64 C63 1.420 . S
C65 H54 0.940 . S
C65 C66 1.390 . S
C65 C67 1.322 . S
C66 C65 1.390 . S
C66 C70 1.370 . S
C67 N58 1.477 . S
C67 C65 1.322 . S
C67 C68 1.447 . S
C68 H55 0.940 . S
C68 C67 1.447 . S
C68 C69 1.373 . S
C69 C68 1.373 . S
C69 C70 1.420 . S
C70 H56 0.937 1_545 S
C70 C66 1.370 . S
C70 C69 1.420 . S
H71 C77 0.930 . S
H72 C80 0.930 . S
H73 C81 0.930 . S
H74 C82 0.930 . S
H75 C85 0.930 . S
H76 C86 0.930 . S
C77 H71 0.930 . S
C77 C78 1.355 1_455 S
C77 C79 1.415 . S
C78 C77 1.355 1_655 S
C78 C80 1.419 . S
C79 C77 1.415 . S
C79 C84 1.425 1_455 S
C79 C86 1.409 . S
C80 H72 0.930 . S
C80 C78 1.419 . S
C80 C81 1.362 . S
C81 H73 0.930 . S
C81 C80 1.362 . S
C81 C84 1.409 . S
C82 H74 0.930 . S
C82 C83 1.355 1_655 S
C82 C84 1.415 . S
C83 C82 1.355 1_455 S
C83 C85 1.419 . S
C84 C79 1.425 1_655 S
C84 C81 1.409 . S
C84 C82 1.415 . S
C85 H75 0.930 . S
C85 C83 1.419 . S
C85 C86 1.362 . S
C86 H76 0.930 . S
C86 C79 1.409 . S
C86 C85 1.362 . S
H87 C93 0.930 . S
H88 C96 0.930 . S
H89 C97 0.930 . S
H90 C98 0.930 . S
H91 C101 0.930 . S
H92 C102 0.930 . S
C93 H87 0.930 . S
C93 C94 1.346 1_565 S
C93 C95 1.415 . S
C94 C93 1.346 1_545 S
C94 C96 1.429 . S
C95 C93 1.415 . S
C95 C100 1.425 1_565 S
C95 C102 1.409 . S
C96 H88 0.930 . S
C96 C94 1.429 . S
C96 C97 1.362 . S
C97 H89 0.930 . S
C97 C96 1.362 . S
C97 C100 1.409 . S
C98 H90 0.930 . S
C98 C99 1.355 1_545 S
C98 C100 1.415 . S
C99 C98 1.355 1_565 S
C99 C101 1.419 . S
C100 C95 1.425 1_545 S
C100 C97 1.409 . S
C100 C98 1.415 . S
C101 H91 0.930 . S
C101 C99 1.419 . S
C101 C102 1.362 . S
C102 H92 0.930 . S
C102 C95 1.409 . S
C102 C101 1.362 . S
H103 C109 0.930 . S
H104 C112 0.930 . S
H105 C113 0.930 . S
H106 C114 0.930 . S
H107 C117 0.930 . S
H108 C118 0.930 . S
C109 H103 0.930 . S
C109 C110 1.355 . S
C109 C111 1.415 . S
C110 C109 1.355 . S
C110 C112 1.419 1_455 S
C111 C109 1.415 . S
C111 C116 1.425 1_455 S
C111 C118 1.409 . S
C112 H104 0.930 . S
C112 C110 1.419 1_655 S
C112 C113 1.362 . S
C113 H105 0.930 . S
C113 C112 1.362 . S
C113 C116 1.409 . S
C114 H106 0.930 . S
C114 C115 1.355 1_655 S
C114 C116 1.415 . S
C115 C114 1.355 1_455 S
C115 C117 1.419 . S
C116 C111 1.425 1_655 S
C116 C113 1.409 . S
C116 C114 1.415 . S
C117 H107 0.930 . S
C117 C115 1.419 . S
C117 C118 1.362 . S
C118 H108 0.930 . S
C118 C111 1.409 . S
C118 C117 1.362 . S
H119 C125 0.930 . S
H120 C128 0.930 . S
H121 C129 0.930 . S
H122 C130 0.930 . S
H123 C133 0.930 . S
H124 C134 0.930 . S
C125 H119 0.930 . S
C125 C126 1.355 1_565 S
C125 C127 1.414 1_565 S
C126 C125 1.355 1_545 S
C126 C128 1.419 . S
C127 C125 1.414 1_545 S
C127 C132 1.429 . S
C127 C134 1.406 1_545 S
C128 H120 0.930 . S
C128 C126 1.419 . S
C128 C129 1.362 . S
C129 H121 0.930 . S
C129 C128 1.362 . S
C129 C132 1.409 . S
C130 H122 0.930 . S
C130 C131 1.355 . S
C130 C132 1.415 . S
C131 C130 1.355 . S
C131 C133 1.419 1_545 S
C132 C127 1.429 . S
C132 C129 1.409 . S
C132 C130 1.415 . S
C133 H123 0.930 . S
C133 C131 1.419 1_565 S
C133 C134 1.362 . S
C134 H124 0.930 . S
C134 C127 1.406 1_565 S
C134 C133 1.362 . S
H135 C141 0.930 . S
H136 C144 0.930 . S
H137 C145 0.930 . S
H138 C146 0.930 . S
H139 C149 0.930 . S
H140 C150 0.930 . S
C141 H135 0.930 . S
C141 C142 1.355 1_655 S
C141 C143 1.415 . S
C142 C141 1.355 1_455 S
C142 C144 1.419 . S
C143 C141 1.415 . S
C143 C148 1.425 1_655 S
C143 C150 1.409 . S
C144 H136 0.930 . S
C144 C142 1.419 . S
C144 C145 1.362 . S
C145 H137 0.930 . S
C145 C144 1.362 . S
C145 C148 1.409 . S
C146 H138 0.930 . S
C146 C147 1.355 1_455 S
C146 C148 1.415 . S
C147 C146 1.355 1_655 S
C147 C149 1.419 . S
C148 C143 1.425 1_455 S
C148 C145 1.409 . S
C148 C146 1.415 . S
C149 H139 0.930 . S
C149 C147 1.419 . S
C149 C150 1.362 . S
C150 H140 0.930 . S
C150 C143 1.409 . S
C150 C149 1.362 . S
H151 C157 0.930 . S
H152 C160 0.930 . S
H153 C161 0.930 . S
H154 C162 0.930 . S
H155 C165 0.930 . S
H156 C166 0.930 . S
C157 H151 0.930 . S
C157 C158 1.355 . S
C157 C159 1.415 . S
C158 C157 1.355 . S
C158 C160 1.419 1_565 S
C159 C157 1.415 . S
C159 C164 1.425 1_565 S
C159 C166 1.409 . S
C160 H152 0.930 . S
C160 C158 1.419 1_545 S
C160 C161 1.362 . S
C161 H153 0.930 . S
C161 C160 1.362 . S
C161 C164 1.409 . S
C162 H154 0.930 . S
C162 C163 1.355 1_545 S
C162 C164 1.415 . S
C163 C162 1.355 1_565 S
C163 C165 1.419 . S
C164 C159 1.425 1_545 S
C164 C161 1.409 . S
C164 C162 1.415 . S
C165 H155 0.930 . S
C165 C163 1.419 . S
C165 C166 1.362 . S
C166 H156 0.930 . S
C166 C159 1.409 . S
C166 C165 1.362 . S
H167 C173 0.930 . S
H168 C176 0.930 . S
H169 C177 0.930 . S
H170 C178 0.930 . S
H171 C181 0.930 . S
H172 C182 0.930 . S
C173 H167 0.930 . S
C173 C174 1.355 . S
C173 C175 1.415 . S
C174 C173 1.355 . S
C174 C176 1.419 1_455 S
C175 C173 1.415 . S
C175 C180 1.425 1_455 S
C175 C182 1.409 . S
C176 H168 0.930 . S
C176 C174 1.419 1_655 S
C176 C177 1.362 . S
C177 H169 0.930 . S
C177 C176 1.362 . S
C177 C180 1.409 . S
C178 H170 0.930 . S
C178 C179 1.355 1_655 S
C178 C180 1.415 . S
C179 C178 1.355 1_455 S
C179 C181 1.419 . S
C180 C175 1.425 1_655 S
C180 C177 1.409 . S
C180 C178 1.415 . S
C181 H171 0.930 . S
C181 C179 1.419 . S
C181 C182 1.362 . S
C182 H172 0.930 . S
C182 C175 1.409 . S
C182 C181 1.362 . S
H183 C189 0.930 . S
H184 C192 0.930 . S
H185 C193 0.930 . S
H186 C194 0.930 . S
H187 C197 0.930 . S
H188 C198 0.930 . S
C189 H183 0.930 . S
C189 C190 1.355 . S
C189 C191 1.415 . S
C190 C189 1.355 . S
C190 C192 1.419 1_545 S
C191 C189 1.415 . S
C191 C196 1.425 1_545 S
C191 C198 1.409 . S
C192 H184 0.930 . S
C192 C190 1.419 1_565 S
C192 C193 1.362 . S
C193 H185 0.930 . S
C193 C192 1.362 . S
C193 C196 1.409 . S
C194 H186 0.930 . S
C194 C195 1.355 1_565 S
C194 C196 1.415 . S
C195 C194 1.355 1_545 S
C195 C197 1.419 . S
C196 C191 1.425 1_565 S
C196 C193 1.409 . S
C196 C194 1.415 . S
C197 H187 0.930 . S
C197 C195 1.419 . S
C197 C198 1.362 . S
C198 H188 0.930 . S
C198 C191 1.409 . S
C198 C197 1.362 . S
C78 C30 1.478 . S
C83 C40 1.481 . S
C94 C1 1.623 1_545 S
C99 C60 1.603 1_565 S
C110 C0 1.419 1_455 S
C115 C49 1.477 . S
C126 C29 1.677 . S
C131 C69 1.681 . S
C142 C19 1.458 . S
C147 C46 1.500 1_655 S
C158 C20 1.608 . S
C163 C66 1.571 1_565 S
C179 C43 1.504 . S
C174 C10 1.499 . S
C190 C2 1.645 . S
C195 C63 1.653 . S
