# Generated by pormake.
# Topology tsx, (6,3)-cn, num edge types: 1
# Building blocks:
#     Node 0, Type 0, BuildingBlock: MIDCAF_clean_sbu_0, # of connection points: 6
#     Node 1, Type 0, BuildingBlock: MIDCAF_clean_sbu_0, # of connection points: 6
#     Node 2, Type 1, BuildingBlock: INOVEN_clean_linker_0, # of connection points: 3
#     Node 3, Type 1, BuildingBlock: INOVEN_clean_linker_0, # of connection points: 3
#     Node 4, Type 1, BuildingBlock: INOVEN_clean_linker_0, # of connection points: 3
#     Node 5, Type 1, BuildingBlock: INOVEN_clean_linker_0, # of connection points: 3
#     Edge 6, Type (0, 1), BuildingBlock: AJUNOK_clean_linker_0, # of connection points: 2
#     Edge 7, Type (0, 1), BuildingBlock: AJUNOK_clean_linker_0, # of connection points: 2
#     Edge 8, Type (0, 1), BuildingBlock: AJUNOK_clean_linker_0, # of connection points: 2
#     Edge 9, Type (0, 1), BuildingBlock: AJUNOK_clean_linker_0, # of connection points: 2
#     Edge 10, Type (0, 1), BuildingBlock: AJUNOK_clean_linker_0, # of connection points: 2
#     Edge 11, Type (0, 1), BuildingBlock: AJUNOK_clean_linker_0, # of connection points: 2
#     Edge 12, Type (0, 1), BuildingBlock: AJUNOK_clean_linker_0, # of connection points: 2
#     Edge 13, Type (0, 1), BuildingBlock: AJUNOK_clean_linker_0, # of connection points: 2
#     Edge 14, Type (0, 1), BuildingBlock: AJUNOK_clean_linker_0, # of connection points: 2
#     Edge 15, Type (0, 1), BuildingBlock: AJUNOK_clean_linker_0, # of connection points: 2
#     Edge 16, Type (0, 1), BuildingBlock: AJUNOK_clean_linker_0, # of connection points: 2
#     Edge 17, Type (0, 1), BuildingBlock: AJUNOK_clean_linker_0, # of connection points: 2
# Relax obj value: 0.074
# Max RMSD: 0.146
# Mean RMSD: 0.101
data_MOF--net-tsx--node1-MIDCAF_clean_sbu_0--node2-INOVEN_clean_linker_0--edge1-AJUNOK_clean_linker_0
_symmetry_space_group_name_H-M    P1
_symmetry_Int_Tables_number       1
_symmetry_cell_setting            triclinic
loop_
_symmetry_equiv_pos_as_xyz
'x, y, z'
_cell_length_a     14.474495
_cell_length_b     15.570121
_cell_length_c     26.461428
_cell_angle_alpha  91.240207
_cell_angle_beta   106.60612
_cell_angle_gamma 90.055631
loop_
_atom_site_label
_atom_site_type_symbol
_atom_site_fract_x
_atom_site_fract_y
_atom_site_fract_z
_atom_type_partial_charge
Zn0 Zn 0.96991 0.86302 0.92297 0.0
Zn1 Zn 0.22553 0.8964 0.06184 0.0
Zn2 Zn 0.08161 0.9133 -0.00698 0.0
C3 C 0.21801 0.06377 0.01272 0.0
C4 C 0.22815 0.76555 -0.01004 0.0
O5 O 0.96783 0.84946 0.01784 0.0
O6 O 0.95759 0.75129 0.95575 0.0
C7 C 0.91982 0.03177 0.94666 0.0
O8 O 0.13034 0.04375 0.98778 0.0
O9 O 0.27174 0.01004 0.04253 0.0
O10 O 0.27255 0.78697 0.037 0.0
O11 O 0.15477 0.80884 0.96539 0.0
O12 O 0.87854 0.95943 0.93398 0.0
O13 O 1.01299 0.03381 0.95948 0.0
O14 O 0.07952 0.00146 0.92774 0.0
O15 O 0.05224 0.88815 0.87447 0.0
C16 C 0.07985 0.96562 0.88345 0.0
O17 O 0.02854 0.9105 0.0624 0.0
O18 O 0.16896 0.8986 0.12258 0.0
C19 C 0.9385 0.77493 -0.00231 0.0
C20 C 0.07867 0.90784 0.1109 0.0
Zn21 Zn 0.73948 0.58875 0.54872 0.0
Zn22 Zn 0.42221 0.57451 0.44483 0.0
Zn23 Zn 0.57804 0.58629 0.49402 0.0
C24 C 0.51216 0.54558 0.3719 0.0
C25 C 0.43465 0.73656 0.48422 0.0
O26 O 0.57993 0.52683 0.56885 0.0
O27 O 0.71698 0.58138 0.61922 0.0
C28 C 0.74137 0.46526 0.47411 0.0
O29 O 0.5766 0.52995 0.41565 0.0
O30 O 0.43566 0.58299 0.37328 0.0
O31 O 0.3748 0.67539 0.47642 0.0
O32 O 0.52237 0.72049 0.4848 0.0
O33 O 0.78718 0.48468 0.52111 0.0
O34 O 0.66131 0.50378 0.45232 0.0
O35 O 0.6261 0.72555 0.5053 0.0
O36 O 0.78179 0.69934 0.52793 0.0
C37 C 0.71397 0.75245 0.51458 0.0
O38 O 0.48991 0.50616 0.53408 0.0
O39 O 0.37977 0.46203 0.46222 0.0
C40 C 0.64004 0.53992 0.61469 0.0
C41 C 0.41828 0.45609 0.51109 0.0
H42 H 0.12679 0.06442 0.46231 0.0
H43 H 0.17519 0.91875 0.33283 0.0
H44 H 0.92966 0.08516 0.30686 0.0
N45 N 0.97724 0.15014 0.40741 0.0
N46 N 0.90035 0.18394 0.38181 0.0
C47 C 0.10543 0.04571 0.42096 0.0
C48 C 0.16169 0.98739 0.40161 0.0
C49 C 0.02306 0.08266 0.38697 0.0
C50 C 0.99349 0.05739 0.33322 0.0
C51 C 0.04791 -0.00259 0.31349 0.0
C52 C 0.132 0.96384 0.34797 0.0
H53 H 0.96924 0.1126 0.52631 0.0
H54 H 0.90331 0.01212 0.66266 0.0
H55 H 0.14429 0.18201 0.68299 0.0
N56 N 0.12393 0.203 0.57935 0.0
N57 N 0.1903 0.24991 0.60693 0.0
C58 C 0.98235 0.11054 0.5687 0.0
C59 C 0.92271 0.05953 0.59015 0.0
C60 C 0.06135 0.15647 0.60187 0.0
C61 C 0.08128 0.15045 0.6569 0.0
C62 C 0.02352 0.09942 0.67856 0.0
C63 C 0.94394 0.05538 0.64533 0.0
H64 H 0.60321 0.34071 0.95071 0.0
H65 H 0.71223 0.31859 0.81552 0.0
H66 H 0.48771 0.49773 0.81519 0.0
N67 N 0.47881 0.46761 0.91322 0.0
N68 N 0.41221 0.51551 0.88914 0.0
C69 C 0.60112 0.35929 0.91118 0.0
C70 C 0.66524 0.32167 0.88593 0.0
C71 C 0.53643 0.42306 0.88585 0.0
C72 C 0.53546 0.44745 0.83486 0.0
C73 C 0.59823 0.40979 0.8095 0.0
C74 C 0.66274 0.34697 0.83503 0.0
H75 H 0.50771 0.39504 0.0142 0.0
H76 H 0.40967 0.34201 0.14949 0.0
H77 H 0.62922 0.53286 0.16053 0.0
N78 N 0.6376 0.51269 0.06086 0.0
N79 N 0.69202 0.57169 0.08491 0.0
C80 C 0.51144 0.40635 0.05525 0.0
C81 C 0.44923 0.36183 0.07788 0.0
C82 C 0.57715 0.46729 0.08502 0.0
C83 C 0.58112 0.48352 0.138 0.0
C84 C 0.52159 0.43826 0.1617 0.0
C85 C 0.45549 0.37777 0.13129 0.0
C86 C 0.22544 0.22056 0.03231 0.0
C87 C 0.25989 0.14909 0.0102 0.0
C88 C 0.28495 0.2927 0.05065 0.0
C89 C 0.38049 0.29548 0.0473 0.0
H90 H 0.15601 0.21744 0.04013 0.0
H91 H 0.2582 0.34429 0.07062 0.0
S92 S 0.49816 0.12869 0.98537 0.0
N93 N 0.38986 0.08909 0.98002 0.0
N94 N 0.50195 0.22396 0.01455 0.0
C95 C 0.41183 0.22767 0.02053 0.0
C96 C 0.35133 0.15456 0.00197 0.0
C97 C 0.34433 0.64522 -0.00629 0.0
C98 C 0.2665 0.69414 0.96378 0.0
C99 C 0.39001 0.58396 0.96977 0.0
C100 C 0.3592 0.56861 0.91502 0.0
H101 H 0.37255 0.65603 0.03591 0.0
H102 H 0.45222 0.55138 -0.00606 0.0
S103 S 0.15735 0.67468 0.8188 0.0
N104 N 0.15878 0.71943 0.87619 0.0
N105 N 0.2456 0.60399 0.8317 0.0
C106 C 0.28005 0.6144 0.88489 0.0
C107 C 0.23322 0.67699 0.90908 0.0
C108 C 0.86304 0.7405 0.06918 0.0
C109 C 0.87764 0.71935 0.02013 0.0
C110 C 0.80269 0.69041 0.0899 0.0
C111 C 0.75372 0.61837 0.06215 0.0
H112 H 0.89777 0.79636 0.09167 0.0
H113 H 0.79302 0.70872 0.12778 0.0
S114 S 0.76688 0.53479 0.93194 0.0
N115 N 0.83812 0.62002 0.94432 0.0
N116 N 0.72416 0.52704 0.98318 0.0
C117 C 0.76764 0.59583 0.01311 0.0
C118 C 0.8298 0.64619 -0.00782 0.0
C119 C 0.76034 0.10311 0.93331 0.0
C120 C 0.86005 0.11062 0.93909 0.0
C121 C 0.69856 0.17346 0.91958 0.0
C122 C 0.73393 0.25396 0.91098 0.0
H123 H 0.72887 0.04156 0.93769 0.0
H124 H 0.62186 0.16364 0.91271 0.0
S125 S 0.98938 0.311 0.92597 0.0
N126 N 0.99199 0.20775 0.93937 0.0
N127 N 0.87519 0.3396 0.91267 0.0
C128 C 0.83382 0.26383 0.91915 0.0
C129 C 0.89711 0.19233 0.93363 0.0
C130 C 0.82616 0.86576 0.50282 0.0
C131 C 0.74226 0.84445 0.51696 0.0
C132 C 0.87893 0.94104 0.52209 0.0
C133 C 0.85022 -0.00208 0.55665 0.0
H134 H 0.85612 0.82003 0.48043 0.0
H135 H 0.94742 0.95018 0.51389 0.0
S136 S 0.62433 0.98173 0.59602 0.0
N137 N 0.62433 0.89342 0.56024 0.0
N138 N 0.72294 0.03566 0.59634 0.0
C139 C 0.76039 0.9825 0.56597 0.0
C140 C 0.70632 0.9057 0.54602 0.0
C141 C 0.72308 0.34142 0.40858 0.0
C142 C 0.78245 0.39804 0.44633 0.0
C143 C 0.76277 0.27211 0.38686 0.0
C144 C 0.86247 0.25631 0.40293 0.0
H145 H 0.64558 0.34947 0.39674 0.0
H146 H 0.71507 0.22911 0.35839 0.0
S147 S 0.04998 0.39255 0.49494 0.0
N148 N 0.94711 0.43851 0.49446 0.0
N149 N 0.02049 0.30813 0.45472 0.0
C150 C 0.92277 0.31445 0.43902 0.0
C151 C 0.88289 0.38517 0.46049 0.0
C152 C 0.35906 0.42033 0.58853 0.0
C153 C 0.37463 0.39579 0.5402 0.0
C154 C 0.30083 0.36995 0.61088 0.0
C155 C 0.25529 0.29469 0.58523 0.0
H156 H 0.38828 0.4805 0.60788 0.0
H157 H 0.28786 0.39178 0.64738 0.0
S158 S 0.28772 0.19562 0.46277 0.0
N159 N 0.35034 0.286 0.47099 0.0
N160 N 0.24072 0.19221 0.51269 0.0
C161 C 0.27545 0.26685 0.53867 0.0
C162 C 0.33508 0.31745 0.51623 0.0
C163 C 0.40464 0.87823 0.44165 0.0
C164 C 0.3941 0.82393 0.48132 0.0
C165 C 0.33326 0.93866 0.41948 0.0
C166 C 0.24954 0.94678 0.43646 0.0
H167 H 0.4618 0.86713 0.42336 0.0
H168 H 0.33947 0.97387 0.38572 0.0
S169 S 0.2016 0.83406 0.5484 0.0
N170 N 0.30446 0.79369 0.5438 0.0
N171 N 0.17024 0.90648 0.50201 0.0
C172 C 0.24559 0.90138 0.48106 0.0
C173 C 0.31819 0.84014 0.5036 0.0
C174 C 0.04116 0.86306 0.19205 0.0
C175 C 0.03585 0.92556 0.15402 0.0
C176 C 0.03347 0.88585 0.24216 0.0
C177 C 0.02376 0.97243 0.25655 0.0
H178 H 0.05812 0.79721 0.18424 0.0
H179 H 0.04314 0.83622 0.27127 0.0
S180 S 0.99631 0.15856 0.16834 0.0
N181 N 1.00935 0.07534 0.13126 0.0
N182 N 0.99956 0.11949 0.22637 0.0
C183 C 1.0101 0.03438 0.21718 0.0
C184 C 0.01557 0.01057 0.16568 0.0
C185 C 0.02563 0.08519 0.82146 0.0
C186 C 0.08798 0.01565 0.83846 0.0
C187 C 1.00863 0.11618 0.77015 0.0
C188 C 0.05503 0.07942 0.73508 0.0
H189 H 0.98351 0.1107 0.84613 0.0
H190 H 0.95533 0.16582 0.75692 0.0
S191 S 0.23202 0.90258 0.76266 0.0
N192 N 0.20105 0.9155 0.81777 0.0
N193 N 0.17116 0.97529 0.72196 0.0
C194 C 0.12262 0.01435 0.75301 0.0
C195 C 0.13873 0.98209 0.80469 0.0
C196 C 0.63458 0.56032 0.70684 0.0
C197 C 0.62124 0.50627 0.66215 0.0
C198 C 0.62425 0.52878 0.754 0.0
C199 C 0.6021 0.44182 0.75815 0.0
H200 H 0.65383 0.62732 0.70541 0.0
H201 H 0.63624 0.57211 0.7879 0.0
S202 S 0.56161 0.27391 0.65257 0.0
N203 N 0.5855 0.36197 0.62472 0.0
N204 N 0.56616 0.30231 0.71379 0.0
C205 C 0.58802 0.38717 0.71366 0.0
C206 C 0.5975 0.41958 0.66543 0.0
C207 C 0.43411 0.4993 0.27917 0.0
C208 C 0.51981 0.51433 0.32005 0.0
C209 C 0.43581 0.47249 0.2288 0.0
C210 C 0.52333 0.45908 0.21701 0.0
H211 H 0.36439 0.50894 0.28589 0.0
H212 H 0.36774 0.46456 0.19846 0.0
S213 S 0.76846 0.48681 0.31015 0.0
N214 N 0.69491 0.51425 0.34526 0.0
N215 N 0.69852 0.45892 0.25099 0.0
C216 C 0.60992 0.4717 0.25777 0.0
C217 C 0.60808 0.50029 0.30918 0.0
loop_
_geom_bond_atom_site_label_1
_geom_bond_atom_site_label_2
_geom_bond_distance
_geom_bond_site_symmetry_2
_ccdc_geom_bond_type
Zn0 O6 1.920 1_545 S
Zn0 O12 1.898 . S
Zn0 O15 1.905 1_545 S
Zn1 O9 1.905 . S
Zn1 O10 1.898 1_545 S
Zn1 O18 1.920 1_545 S
Zn2 O5 2.080 1_444 S
Zn2 O8 2.114 . S
Zn2 O11 2.120 1_545 S
Zn2 O13 2.120 1_455 S
Zn2 O14 2.114 1_554 S
Zn2 O17 2.080 . S
C3 O8 1.166 . S
C3 O9 1.182 . S
C4 O10 1.167 . S
C4 O11 1.299 . S
O5 Zn2 2.080 1_666 S
O5 C19 1.305 . S
O6 Zn0 1.920 1_565 S
O6 C19 1.234 . S
C7 O12 1.167 . S
C7 O13 1.299 1_556 S
O8 Zn2 2.114 . S
O8 C3 1.166 . S
O9 Zn1 1.905 . S
O9 C3 1.182 . S
O10 Zn1 1.898 1_565 S
O10 C4 1.167 . S
O11 Zn2 2.120 1_565 S
O11 C4 1.299 . S
O12 Zn0 1.898 . S
O12 C7 1.167 . S
O13 Zn2 2.120 1_655 S
O13 C7 1.299 1_554 S
O14 Zn2 2.114 1_556 S
O14 C16 1.166 1_445 S
O15 Zn0 1.905 1_565 S
O15 C16 1.182 . S
C16 O14 1.166 1_665 S
C16 O15 1.182 . S
O17 Zn2 2.080 . S
O17 C20 1.305 1_545 S
O18 Zn1 1.920 1_565 S
O18 C20 1.234 . S
C19 O5 1.305 . S
C19 O6 1.234 . S
C20 O17 1.305 1_565 S
C20 O18 1.234 . S
Zn21 O27 1.920 . S
Zn21 O33 1.898 . S
Zn21 O36 1.905 . S
Zn22 O30 1.905 . S
Zn22 O31 1.898 . S
Zn22 O39 1.920 . S
Zn23 O26 2.080 . S
Zn23 O29 2.114 . S
Zn23 O32 2.120 . S
Zn23 O34 2.120 . S
Zn23 O35 2.114 . S
Zn23 O38 2.080 . S
C24 O29 1.166 . S
C24 O30 1.182 . S
C25 O31 1.167 . S
C25 O32 1.299 . S
O26 Zn23 2.080 . S
O26 C40 1.305 . S
O27 Zn21 1.920 . S
O27 C40 1.234 . S
C28 O33 1.167 . S
C28 O34 1.299 . S
O29 Zn23 2.114 . S
O29 C24 1.166 . S
O30 Zn22 1.905 . S
O30 C24 1.182 . S
O31 Zn22 1.898 . S
O31 C25 1.167 . S
O32 Zn23 2.120 . S
O32 C25 1.299 . S
O33 Zn21 1.898 . S
O33 C28 1.167 . S
O34 Zn23 2.120 . S
O34 C28 1.299 . S
O35 Zn23 2.114 . S
O35 C37 1.166 . S
O36 Zn21 1.905 . S
O36 C37 1.182 . S
C37 O35 1.166 . S
C37 O36 1.182 . S
O38 Zn23 2.080 . S
O38 C41 1.305 . S
O39 Zn22 1.920 . S
O39 C41 1.234 . S
C40 O26 1.305 . S
C40 O27 1.234 . S
C41 O38 1.305 . S
C41 O39 1.234 . S
H42 C47 0.929 . S
H43 C52 0.931 . S
H44 C50 0.930 . S
N45 N46 1.234 1_455 S
N45 C49 1.453 . S
N46 N45 1.234 1_655 S
C47 H42 0.929 . S
C47 C48 1.373 . S
C47 C49 1.368 1_565 S
C48 C47 1.373 . S
C48 C52 1.397 . S
C49 N45 1.453 . S
C49 C47 1.368 1_545 S
C49 C50 1.373 . S
C50 H44 0.930 . S
C50 C49 1.373 . S
C50 C51 1.371 . S
C51 C50 1.371 . S
C51 C52 1.383 1_545 S
C52 H43 0.931 . S
C52 C48 1.397 . S
C52 C51 1.383 1_565 S
H53 C58 0.929 . S
H54 C63 0.931 . S
H55 C61 0.930 . S
N56 N57 1.234 . S
N56 C60 1.453 . S
N57 N56 1.234 . S
C58 H53 0.929 . S
C58 C59 1.373 . S
C58 C60 1.368 1_665 S
C59 C58 1.373 . S
C59 C63 1.397 . S
C60 N56 1.453 . S
C60 C58 1.368 1_445 S
C60 C61 1.373 . S
C61 H55 0.930 . S
C61 C60 1.373 . S
C61 C62 1.371 1_455 S
C62 C61 1.371 1_655 S
C62 C63 1.383 1_545 S
C63 H54 0.931 . S
C63 C59 1.397 . S
C63 C62 1.383 1_565 S
H64 C69 0.929 . S
H65 C74 0.931 . S
H66 C72 0.930 . S
N67 N68 1.234 . S
N67 C71 1.453 . S
N68 N67 1.234 . S
C69 H64 0.929 . S
C69 C70 1.373 . S
C69 C71 1.368 . S
C70 C69 1.373 . S
C70 C74 1.397 . S
C71 N67 1.453 . S
C71 C69 1.368 . S
C71 C72 1.373 . S
C72 H66 0.930 . S
C72 C71 1.373 . S
C72 C73 1.371 . S
C73 C72 1.371 . S
C73 C74 1.383 . S
C74 H65 0.931 . S
C74 C70 1.397 . S
C74 C73 1.383 . S
H75 C80 0.929 . S
H76 C85 0.931 . S
H77 C83 0.930 . S
N78 N79 1.234 . S
N78 C82 1.453 . S
N79 N78 1.234 . S
C80 H75 0.929 . S
C80 C81 1.373 . S
C80 C82 1.368 . S
C81 C80 1.373 . S
C81 C85 1.397 . S
C82 N78 1.453 . S
C82 C80 1.368 . S
C82 C83 1.373 . S
C83 H77 0.930 . S
C83 C82 1.373 . S
C83 C84 1.371 . S
C84 C83 1.371 . S
C84 C85 1.383 . S
C85 H76 0.931 . S
C85 C81 1.397 . S
C85 C84 1.383 . S
C86 C87 1.369 . S
C86 C88 1.419 . S
C86 H90 0.930 . S
C87 C86 1.369 . S
C87 C96 1.429 1_554 S
C88 C86 1.419 . S
C88 C89 1.363 . S
C88 H91 0.929 . S
C89 C88 1.363 . S
C89 C95 1.428 . S
H90 C86 0.930 . S
H91 C88 0.929 . S
S92 N93 1.613 . S
S92 N94 1.610 . S
N93 S92 1.613 . S
N93 C96 1.350 . S
N94 S92 1.610 . S
N94 C95 1.351 1_556 S
C95 C89 1.428 . S
C95 N94 1.351 1_554 S
C95 C96 1.434 1_554 S
C96 C87 1.429 1_556 S
C96 N93 1.350 . S
C96 C95 1.434 1_556 S
C97 C98 1.369 1_554 S
C97 C99 1.419 . S
C97 H101 0.930 . S
C98 C97 1.369 1_556 S
C98 C107 1.429 . S
C99 C97 1.419 . S
C99 C100 1.363 1_554 S
C99 H102 0.929 . S
C100 C99 1.363 1_556 S
C100 C106 1.428 . S
H101 C97 0.930 . S
H102 C99 0.929 . S
S103 N104 1.613 . S
S103 N105 1.610 . S
N104 S103 1.613 . S
N104 C107 1.350 . S
N105 S103 1.610 . S
N105 C106 1.351 . S
C106 C100 1.428 . S
C106 N105 1.351 . S
C106 C107 1.434 . S
C107 C98 1.429 . S
C107 N104 1.350 . S
C107 C106 1.434 . S
C108 C109 1.369 . S
C108 C110 1.419 . S
C108 H112 0.930 . S
C109 C108 1.369 . S
C109 C118 1.429 1_554 S
C110 C108 1.419 . S
C110 C111 1.363 . S
C110 H113 0.929 . S
C111 C110 1.363 . S
C111 C117 1.428 1_554 S
H112 C108 0.930 . S
H113 C110 0.929 . S
S114 N115 1.613 . S
S114 N116 1.610 . S
N115 S114 1.613 . S
N115 C118 1.350 . S
N116 S114 1.610 . S
N116 C117 1.351 . S
C117 C111 1.428 1_556 S
C117 N116 1.351 . S
C117 C118 1.434 . S
C118 C109 1.429 1_556 S
C118 N115 1.350 . S
C118 C117 1.434 . S
C119 C120 1.369 . S
C119 C121 1.419 . S
C119 H123 0.930 . S
C120 C119 1.369 . S
C120 C129 1.429 1_556 S
C121 C119 1.419 . S
C121 C122 1.363 . S
C121 H124 0.929 . S
C122 C121 1.363 . S
C122 C128 1.428 1_556 S
H123 C119 0.930 . S
H124 C121 0.929 . S
S125 N126 1.613 . S
S125 N127 1.610 . S
N126 S125 1.613 . S
N126 C129 1.350 . S
N127 S125 1.610 . S
N127 C128 1.351 . S
C128 C122 1.428 1_554 S
C128 N127 1.351 . S
C128 C129 1.434 . S
C129 C120 1.429 1_554 S
C129 N126 1.350 . S
C129 C128 1.434 . S
C130 C131 1.369 . S
C130 C132 1.419 . S
C130 H134 0.930 . S
C131 C130 1.369 . S
C131 C140 1.429 . S
C132 C130 1.419 . S
C132 C133 1.363 . S
C132 H135 0.929 . S
C133 C132 1.363 . S
C133 C139 1.428 . S
H134 C130 0.930 . S
H135 C132 0.929 . S
S136 N137 1.613 . S
S136 N138 1.610 . S
N137 S136 1.613 . S
N137 C140 1.350 . S
N138 S136 1.610 . S
N138 C139 1.351 . S
C139 C133 1.428 . S
C139 N138 1.351 . S
C139 C140 1.434 . S
C140 C131 1.429 . S
C140 N137 1.350 . S
C140 C139 1.434 . S
C141 C142 1.369 . S
C141 C143 1.419 . S
C141 H145 0.930 . S
C142 C141 1.369 . S
C142 C151 1.429 . S
C143 C141 1.419 . S
C143 C144 1.363 . S
C143 H146 0.929 . S
C144 C143 1.363 . S
C144 C150 1.428 . S
H145 C141 0.930 . S
H146 C143 0.929 . S
S147 N148 1.613 1_455 S
S147 N149 1.610 . S
N148 S147 1.613 1_655 S
N148 C151 1.350 . S
N149 S147 1.610 . S
N149 C150 1.351 1_455 S
C150 C144 1.428 . S
C150 N149 1.351 1_655 S
C150 C151 1.434 . S
C151 C142 1.429 . S
C151 N148 1.350 . S
C151 C150 1.434 . S
C152 C153 1.369 . S
C152 C154 1.419 . S
C152 H156 0.930 . S
C153 C152 1.369 . S
C153 C162 1.429 . S
C154 C152 1.419 . S
C154 C155 1.363 . S
C154 H157 0.929 . S
C155 C154 1.363 . S
C155 C161 1.428 . S
H156 C152 0.930 . S
H157 C154 0.929 . S
S158 N159 1.613 . S
S158 N160 1.610 . S
N159 S158 1.613 . S
N159 C162 1.350 . S
N160 S158 1.610 . S
N160 C161 1.351 . S
C161 C155 1.428 . S
C161 N160 1.351 . S
C161 C162 1.434 . S
C162 C153 1.429 . S
C162 N159 1.350 . S
C162 C161 1.434 . S
C163 C164 1.369 . S
C163 C165 1.419 . S
C163 H167 0.930 . S
C164 C163 1.369 . S
C164 C173 1.429 . S
C165 C163 1.419 . S
C165 C166 1.363 . S
C165 H168 0.929 . S
C166 C165 1.363 . S
C166 C172 1.428 . S
H167 C163 0.930 . S
H168 C165 0.929 . S
S169 N170 1.613 . S
S169 N171 1.610 . S
N170 S169 1.613 . S
N170 C173 1.350 . S
N171 S169 1.610 . S
N171 C172 1.351 . S
C172 C166 1.428 . S
C172 N171 1.351 . S
C172 C173 1.434 . S
C173 C164 1.429 . S
C173 N170 1.350 . S
C173 C172 1.434 . S
C174 C175 1.369 . S
C174 C176 1.419 . S
C174 H178 0.930 . S
C175 C174 1.369 . S
C175 C184 1.429 1_565 S
C176 C174 1.419 . S
C176 C177 1.363 1_565 S
C176 H179 0.929 . S
C177 C176 1.363 1_545 S
C177 C183 1.428 . S
H178 C174 0.930 . S
H179 C176 0.929 . S
S180 N181 1.613 . S
S180 N182 1.610 . S
N181 S180 1.613 . S
N181 C184 1.350 . S
N182 S180 1.610 . S
N182 C183 1.351 . S
C183 C177 1.428 . S
C183 N182 1.351 . S
C183 C184 1.434 . S
C184 C175 1.429 1_545 S
C184 N181 1.350 . S
C184 C183 1.434 . S
C185 C186 1.369 1_545 S
C185 C187 1.419 . S
C185 H189 0.930 . S
C186 C185 1.369 1_565 S
C186 C195 1.429 1_455 S
C187 C185 1.419 . S
C187 C188 1.363 1_455 S
C187 H190 0.929 . S
C188 C187 1.363 1_655 S
C188 C194 1.428 1_545 S
H189 C185 0.930 . S
H190 C187 0.929 . S
S191 N192 1.613 . S
S191 N193 1.610 . S
N192 S191 1.613 . S
N192 C195 1.350 . S
N193 S191 1.610 . S
N193 C194 1.351 . S
C194 C188 1.428 1_565 S
C194 N193 1.351 . S
C194 C195 1.434 . S
C195 C186 1.429 1_655 S
C195 N192 1.350 . S
C195 C194 1.434 . S
C196 C197 1.369 . S
C196 C198 1.419 . S
C196 H200 0.930 . S
C197 C196 1.369 . S
C197 C206 1.429 . S
C198 C196 1.419 . S
C198 C199 1.363 . S
C198 H201 0.929 . S
C199 C198 1.363 . S
C199 C205 1.428 . S
H200 C196 0.930 . S
H201 C198 0.929 . S
S202 N203 1.613 . S
S202 N204 1.610 . S
N203 S202 1.613 . S
N203 C206 1.350 . S
N204 S202 1.610 . S
N204 C205 1.351 . S
C205 C199 1.428 . S
C205 N204 1.351 . S
C205 C206 1.434 . S
C206 C197 1.429 . S
C206 N203 1.350 . S
C206 C205 1.434 . S
C207 C208 1.369 . S
C207 C209 1.419 . S
C207 H211 0.930 . S
C208 C207 1.369 . S
C208 C217 1.429 . S
C209 C207 1.419 . S
C209 C210 1.363 . S
C209 H212 0.929 . S
C210 C209 1.363 . S
C210 C216 1.428 . S
H211 C207 0.930 . S
H212 C209 0.929 . S
S213 N214 1.613 . S
S213 N215 1.610 . S
N214 S213 1.613 . S
N214 C217 1.350 . S
N215 S213 1.610 . S
N215 C216 1.351 . S
C216 C210 1.428 . S
C216 N215 1.351 . S
C216 C217 1.434 . S
C217 C208 1.429 . S
C217 N214 1.350 . S
C217 C216 1.434 . S
C89 C81 1.377 . S
C87 C3 1.261 . S
C98 C4 1.437 1_556 S
C100 N68 1.509 . S
C109 C19 1.447 1_554 S
C111 N79 1.527 . S
C120 C7 1.265 . S
C122 C70 1.382 . S
C131 C37 1.269 . S
C133 C59 1.379 . S
C142 C28 1.429 . S
C144 N46 1.511 . S
C155 N57 1.527 . S
C153 C41 1.450 . S
C166 C48 1.379 . S
C164 C25 1.264 . S
C175 C20 1.363 . S
C177 C51 1.512 . S
C186 C16 1.413 1_455 S
C188 C62 1.542 . S
C199 C73 1.507 . S
C197 C40 1.377 . S
C208 C24 1.413 . S
C210 C84 1.545 . S
