# Generated by pormake.
# Topology csq, (4,8)-cn, num edge types: 1
# Building blocks:
#     Node 0, Type 0, BuildingBlock: IZENUY_clean_linker_0, # of connection points: 4
#     Node 1, Type 0, BuildingBlock: IZENUY_clean_linker_0, # of connection points: 4
#     Node 2, Type 0, BuildingBlock: IZENUY_clean_linker_0, # of connection points: 4
#     Node 3, Type 0, BuildingBlock: IZENUY_clean_linker_0, # of connection points: 4
#     Node 4, Type 0, BuildingBlock: IZENUY_clean_linker_0, # of connection points: 4
#     Node 5, Type 0, BuildingBlock: IZENUY_clean_linker_0, # of connection points: 4
#     Node 6, Type 1, BuildingBlock: TAGTUT_clean_sbu_1, # of connection points: 8
#     Node 7, Type 1, BuildingBlock: TAGTUT_clean_sbu_1, # of connection points: 8
#     Node 8, Type 1, BuildingBlock: TAGTUT_clean_sbu_1, # of connection points: 8
#     Edge 9, Type (0, 1), None
#     Edge 10, Type (0, 1), None
#     Edge 11, Type (0, 1), None
#     Edge 12, Type (0, 1), None
#     Edge 13, Type (0, 1), None
#     Edge 14, Type (0, 1), None
#     Edge 15, Type (0, 1), None
#     Edge 16, Type (0, 1), None
#     Edge 17, Type (0, 1), None
#     Edge 18, Type (0, 1), None
#     Edge 19, Type (0, 1), None
#     Edge 20, Type (0, 1), None
#     Edge 21, Type (0, 1), None
#     Edge 22, Type (0, 1), None
#     Edge 23, Type (0, 1), None
#     Edge 24, Type (0, 1), None
#     Edge 25, Type (0, 1), None
#     Edge 26, Type (0, 1), None
#     Edge 27, Type (0, 1), None
#     Edge 28, Type (0, 1), None
#     Edge 29, Type (0, 1), None
#     Edge 30, Type (0, 1), None
#     Edge 31, Type (0, 1), None
#     Edge 32, Type (0, 1), None
# Relax obj value: 0.072
# Max RMSD: 0.144
# Mean RMSD: 0.136
data_MOF--net-csq--node1-TAGTUT_clean_sbu_1--node2-IZENUY_clean_linker_0--edge1-none
_symmetry_space_group_name_H-M    P1
_symmetry_Int_Tables_number       1
_symmetry_cell_setting            triclinic
loop_
_symmetry_equiv_pos_as_xyz
'x, y, z'
_cell_length_a     28.812475
_cell_length_b     29.234847
_cell_length_c     10.209997
_cell_angle_alpha  94.293042
_cell_angle_beta   98.427156
_cell_angle_gamma 118.11075
loop_
_atom_site_label
_atom_site_type_symbol
_atom_site_fract_x
_atom_site_fract_y
_atom_site_fract_z
_atom_type_partial_charge
H0 H 0.17325 0.40817 0.01914 0.0
H1 H 0.1857 0.46604 0.43217 0.0
H2 H 0.03429 0.3938 0.14631 0.0
H3 H 0.35026 0.47756 0.36307 0.0
H4 H 0.29258 0.44528 0.93306 0.0
H5 H 0.46114 0.52738 0.09278 0.0
N6 N 0.24234 0.45185 0.25509 0.0
N7 N 0.2609 0.44445 0.15705 0.0
C8 C 0.15449 0.41121 0.1015 0.0
C9 C 0.10115 0.39913 0.06818 0.0
C10 C 0.1854 0.43295 0.23381 0.0
C11 C 0.16098 0.44343 0.33541 0.0
C12 C 0.10572 0.4295 0.30543 0.0
C13 C 0.0759 0.40318 0.17296 0.0
C14 C 0.35853 0.48206 0.26336 0.0
C15 C 0.41177 0.50265 0.24317 0.0
C16 C 0.31572 0.46405 0.14995 0.0
C17 C 0.32597 0.4629 0.0188 0.0
C18 C 0.37838 0.48571 -0.003 0.0
C19 C 0.42048 0.5091 0.11023 0.0
H20 H 0.72215 0.15534 0.94663 0.0
H21 H 0.77006 0.15915 0.36874 0.0
H22 H 0.65628 0.01314 0.11788 0.0
H23 H 0.85209 0.30449 0.34001 0.0
H24 H 0.85475 0.30113 0.91998 0.0
H25 H 0.95815 0.44291 0.19875 0.0
N26 N 0.79281 0.21631 0.1825 0.0
N27 N 0.80606 0.24335 0.0922 0.0
C28 C 0.7218 0.13424 0.02957 0.0
C29 C 0.68424 0.08025 0.01436 0.0
C30 C 0.75514 0.16178 0.15757 0.0
C31 C 0.74852 0.13628 0.2698 0.0
C32 C 0.71247 0.08284 0.25788 0.0
C33 C 0.68443 0.05452 0.12784 0.0
C34 C 0.86657 0.32468 0.2577 0.0
C35 C 0.90791 0.37762 0.28522 0.0
C36 C 0.84544 0.29754 0.12397 0.0
C37 C 0.86789 0.32312 0.02087 0.0
C38 C 0.91047 0.37507 0.05027 0.0
C39 C 0.92661 0.40287 0.17949 0.0
H40 H 0.59602 0.71025 0.83553 0.0
H41 H 0.60932 0.7147 0.26334 0.0
H42 H 0.63964 0.60748 0.02723 0.0
H43 H 0.58303 0.83665 0.17759 0.0
H44 H 0.57236 0.82826 0.75106 0.0
H45 H 0.53833 0.93571 0.97036 0.0
N46 N 0.5941 0.76338 0.0602 0.0
N47 N 0.58674 0.78234 0.95816 0.0
C48 C 0.60566 0.69736 0.92744 0.0
C49 C 0.61648 0.65571 0.92027 0.0
C50 C 0.60527 0.72078 0.05211 0.0
C51 C 0.61313 0.6994 0.16793 0.0
C52 C 0.62337 0.65649 0.15742 0.0
C53 C 0.62874 0.63803 0.03482 0.0
C54 C 0.57356 0.84888 0.08445 0.0
C55 C 0.56242 0.89068 0.08639 0.0
C56 C 0.57517 0.82462 0.96266 0.0
C57 C 0.56762 0.84438 0.84407 0.0
C58 C 0.55472 0.88544 0.84662 0.0
C59 C 0.54879 0.90522 0.96679 0.0
H60 H 0.72905 0.54112 0.87038 0.0
H61 H 0.78668 0.57311 0.30038 0.0
H62 H 0.61813 0.49136 0.14058 0.0
H63 H 0.90606 0.61032 0.2141 0.0
H64 H 0.89342 0.55229 0.80106 0.0
H65 H 0.04489 0.62441 0.08668 0.0
N66 N 0.81837 0.574 0.07637 0.0
N67 N 0.8369 0.56663 -0.02175 0.0
C68 C 0.72077 0.53659 0.97008 0.0
C69 C 0.66753 0.51608 -0.00974 0.0
C70 C 0.76356 0.55447 0.08348 0.0
C71 C 0.7533 0.55558 0.21463 0.0
C72 C 0.70089 0.53285 0.2364 0.0
C73 C 0.6588 0.50959 0.12316 0.0
C74 C 0.92478 0.60722 0.1317 0.0
C75 C 0.97811 0.61922 0.16494 0.0
C76 C 0.89382 0.58546 -0.00056 0.0
C77 C 0.91818 0.5749 0.89778 0.0
C78 C 0.97342 0.58876 0.92767 0.0
C79 C 1.0033 0.61509 0.06009 0.0
H80 H 0.22721 0.7136 0.89318 0.0
H81 H 0.22446 0.71693 0.31314 0.0
H82 H 0.12099 0.57521 0.03425 0.0
H83 H 0.35686 0.86289 0.28657 0.0
H84 H 0.30896 0.85893 0.86437 0.0
H85 H 0.42248 1.00505 0.11512 0.0
N86 N 0.27313 0.77474 0.14097 0.0
N87 N 0.2863 0.80181 0.05067 0.0
C88 C 0.2127 0.6934 -0.02454 0.0
C89 C 0.17133 0.64047 0.94785 0.0
C90 C 0.23381 0.72053 0.10919 0.0
C91 C 0.21134 0.69494 0.21225 0.0
C92 C 0.16873 0.64301 0.18279 0.0
C93 C 0.15258 0.61522 0.05355 0.0
C94 C 0.35717 0.88396 0.20357 0.0
C95 C 0.39464 0.93798 0.21874 0.0
C96 C 0.32388 0.85636 0.07557 0.0
C97 C 0.33046 0.88183 0.9633 0.0
C98 C 0.36641 0.93529 -0.02483 0.0
C99 C 0.3944 0.96366 0.1052 0.0
H100 H 0.4957 0.18161 0.05549 0.0
H101 H 0.50634 0.18994 0.48203 0.0
H102 H 0.5404 0.08253 0.26266 0.0
H103 H 0.4833 0.30834 0.39786 0.0
H104 H 0.46989 0.30386 0.96999 0.0
H105 H 0.44011 0.41142 0.2064 0.0
N106 N 0.49216 0.23601 0.27503 0.0
N107 N 0.48496 0.25508 0.17305 0.0
C108 C 0.50514 0.16935 0.14861 0.0
C109 C 0.51625 0.12753 0.14663 0.0
C110 C 0.50356 0.19362 0.27044 0.0
C111 C 0.51106 0.17382 0.38899 0.0
C112 C 0.52394 0.13275 0.38638 0.0
C113 C 0.52989 0.11299 0.26622 0.0
C114 C 0.47375 0.32131 0.30599 0.0
C115 C 0.46313 0.36309 0.31325 0.0
C116 C 0.47401 0.29782 0.18125 0.0
C117 C 0.46621 0.31924 0.06546 0.0
C118 C 0.45615 0.36227 0.07606 0.0
C119 C 0.45093 0.38083 0.19874 0.0
C120 C 0.94433 0.39789 0.95403 0.0
C121 C 0.08032 0.40295 0.92854 0.0
C122 C 0.14096 0.6144 0.81041 0.0
Mg123 Mg 0.98154 0.38623 0.71443 0.0
O124 O 1.01347 0.45934 0.73968 0.0
Mg125 Mg 0.06218 0.49873 0.91065 0.0
Mg126 Mg 0.0395 0.50907 0.61647 0.0
O127 O 0.06557 0.55884 0.4934 0.0
Mg128 Mg 0.09769 0.63198 0.51869 0.0
Mg129 Mg 1.01691 0.5195 0.32239 0.0
C130 C 0.93825 0.40379 0.4226 0.0
C131 C 0.08225 0.45764 0.38019 0.0
O132 O 0.99333 0.43515 -0.00164 0.0
O133 O 0.92595 0.37632 0.83154 0.0
O134 O 0.10263 0.44863 0.8961 0.0
O135 O 0.03317 0.36854 0.86419 0.0
O136 O 0.9428 0.37376 0.50411 0.0
O137 O 0.96461 0.45485 0.45131 0.0
C138 C 0.99681 0.56055 0.85286 0.0
O139 O 0.99448 0.5529 0.7244 0.0
O140 O 1.02101 0.54351 0.93074 0.0
O141 O 0.08581 0.58302 0.23467 0.0
O142 O 0.15323 0.64176 0.40151 0.0
O143 O 0.97657 0.56968 0.33694 0.0
C144 C 0.13484 0.62022 0.27902 0.0
O145 O 0.04611 0.64974 0.36888 0.0
O146 O 0.13657 0.64452 0.72901 0.0
C147 C 0.99893 0.61537 0.30454 0.0
O148 O 0.11431 0.56334 0.78148 0.0
O149 O 0.08457 0.46528 0.50864 0.0
O150 O 0.05804 0.47466 0.3023 0.0
C151 C 0.50769 0.09457 0.02089 0.0
C152 C 0.3875 0.9561 0.85435 0.0
C153 C 0.55598 0.91393 0.73258 0.0
Mg154 Mg 0.46153 0.05616 0.73916 0.0
O155 O 0.51102 0.03148 0.75389 0.0
Mg156 Mg 0.50616 0.98375 0.88197 0.0
Mg157 Mg 0.53944 0.00919 0.61654 0.0
O158 O 0.56786 0.98687 0.4793 0.0
Mg159 Mg 0.61722 0.96201 0.49391 0.0
Mg160 Mg 0.57272 0.03454 0.35114 0.0
C161 C 0.52278 0.10428 0.50042 0.0
C162 C 0.44602 0.96434 0.32432 0.0
O163 O 0.5027 0.04833 0.02425 0.0
O164 O 0.50101 0.11115 0.9119 0.0
O165 O 0.41562 0.93819 0.80886 0.0
O166 O 0.39436 1.00105 0.8305 0.0
O167 O 0.48571 0.09648 0.56738 0.0
O168 O 0.55234 0.08168 0.51634 0.0
C169 C 0.63284 0.05397 0.90881 0.0
O170 O 0.62725 0.05664 0.78142 0.0
O171 O 0.59201 0.02867 0.95772 0.0
O172 O 0.57608 0.96992 0.20881 0.0
O173 O 0.57765 0.90705 0.32112 0.0
O174 O 0.66327 0.08002 0.42414 0.0
C175 C 0.57101 0.92365 0.21214 0.0
O176 O 0.68442 0.01707 0.40251 0.0
O177 O 0.59301 0.92158 0.66558 0.0
C178 C 0.69134 0.06205 0.37868 0.0
O179 O 0.52668 0.93679 0.71669 0.0
O180 O 0.45162 0.96169 0.45171 0.0
O181 O 0.48685 0.98966 0.27542 0.0
C182 C 0.62266 0.62589 0.266 0.0
C183 C 0.68819 0.53761 0.37305 0.0
C184 C 0.47294 0.39406 0.44051 0.0
Mg185 Mg 0.65479 0.6097 0.53598 0.0
O186 O 0.58513 0.55208 0.49749 0.0
Mg187 Mg 0.56583 0.5002 0.33911 0.0
Mg188 Mg 0.53968 0.50942 0.61677 0.0
O189 O 0.49421 0.46672 0.73588 0.0
Mg190 Mg 0.42462 0.40894 0.6974 0.0
Mg191 Mg 0.51345 0.51853 0.89427 0.0
C192 C 0.60652 0.62463 0.79306 0.0
C193 C 0.62089 0.51163 0.89062 0.0
O194 O 0.60506 0.57584 0.23427 0.0
O195 O 0.63884 0.64936 0.38715 0.0
O196 O 0.64497 0.5 0.3936 0.0
O197 O 0.70522 0.58405 0.43641 0.0
O198 O 0.64589 0.63812 0.73119 0.0
O199 O 0.56063 0.58222 0.75654 0.0
C200 C 0.45845 0.5072 0.34283 0.0
O201 O 0.46309 0.5091 0.47134 0.0
O202 O 0.4934 0.50415 0.28702 0.0
O203 O 0.47433 0.44288 -0.00092 0.0
O204 O 0.44067 0.36935 0.84629 0.0
O205 O 0.43425 0.51859 0.83973 0.0
C206 C 0.45681 0.39283 0.96742 0.0
O207 O 0.37412 0.4345 0.79707 0.0
O208 O 0.43351 0.3804 0.50226 0.0
C209 C 0.39108 0.48094 0.86035 0.0
O210 O 0.51864 0.43666 0.47711 0.0
O211 O 0.61625 0.50971 0.76212 0.0
O212 O 0.58595 0.51469 0.94642 0.0
loop_
_geom_bond_atom_site_label_1
_geom_bond_atom_site_label_2
_geom_bond_distance
_geom_bond_site_symmetry_2
_ccdc_geom_bond_type
H0 C8 0.940 . S
H1 C11 0.940 . S
H2 C13 0.940 . S
H3 C14 0.940 . S
H4 C17 0.940 1_556 S
H5 C19 0.940 . S
N6 N7 1.190 . S
N6 C10 1.477 . S
N7 N6 1.190 . S
N7 C16 1.477 . S
C8 H0 0.940 . S
C8 C9 1.390 . S
C8 C10 1.322 . S
C9 C8 1.390 . S
C9 C13 1.370 . S
C10 N6 1.477 . S
C10 C8 1.322 . S
C10 C11 1.447 . S
C11 H1 0.940 . S
C11 C10 1.447 . S
C11 C12 1.373 . S
C12 C11 1.373 . S
C12 C13 1.417 . S
C13 H2 0.940 . S
C13 C9 1.370 . S
C13 C12 1.417 . S
C14 H3 0.940 . S
C14 C15 1.390 . S
C14 C16 1.322 . S
C15 C14 1.390 . S
C15 C19 1.370 . S
C16 N7 1.477 . S
C16 C14 1.322 . S
C16 C17 1.447 . S
C17 H4 0.940 1_554 S
C17 C16 1.447 . S
C17 C18 1.373 . S
C18 C17 1.373 . S
C18 C19 1.417 . S
C19 H5 0.940 . S
C19 C15 1.370 . S
C19 C18 1.417 . S
H20 C28 0.940 1_556 S
H21 C31 0.940 . S
H22 C33 0.940 . S
H23 C34 0.940 . S
H24 C37 0.940 1_556 S
H25 C39 0.940 . S
N26 N27 1.190 . S
N26 C30 1.477 . S
N27 N26 1.190 . S
N27 C36 1.477 . S
C28 H20 0.940 1_554 S
C28 C29 1.390 . S
C28 C30 1.322 . S
C29 C28 1.390 . S
C29 C33 1.370 . S
C30 N26 1.477 . S
C30 C28 1.322 . S
C30 C31 1.447 . S
C31 H21 0.940 . S
C31 C30 1.447 . S
C31 C32 1.373 . S
C32 C31 1.373 . S
C32 C33 1.417 . S
C33 H22 0.940 . S
C33 C29 1.370 . S
C33 C32 1.417 . S
C34 H23 0.940 . S
C34 C35 1.390 . S
C34 C36 1.322 . S
C35 C34 1.390 . S
C35 C39 1.370 . S
C36 N27 1.477 . S
C36 C34 1.322 . S
C36 C37 1.447 . S
C37 H24 0.940 1_554 S
C37 C36 1.447 . S
C37 C38 1.373 . S
C38 C37 1.373 . S
C38 C39 1.417 . S
C39 H25 0.940 . S
C39 C35 1.370 . S
C39 C38 1.417 . S
H40 C48 0.940 . S
H41 C51 0.940 . S
H42 C53 0.940 . S
H43 C54 0.940 . S
H44 C57 0.940 . S
H45 C59 0.940 . S
N46 N47 1.190 1_554 S
N46 C50 1.477 . S
N47 N46 1.190 1_556 S
N47 C56 1.477 . S
C48 H40 0.940 . S
C48 C49 1.390 . S
C48 C50 1.322 1_556 S
C49 C48 1.390 . S
C49 C53 1.370 . S
C50 N46 1.477 . S
C50 C48 1.322 1_554 S
C50 C51 1.447 . S
C51 H41 0.940 . S
C51 C50 1.447 . S
C51 C52 1.373 . S
C52 C51 1.373 . S
C52 C53 1.417 1_554 S
C53 H42 0.940 . S
C53 C49 1.370 . S
C53 C52 1.417 1_556 S
C54 H43 0.940 . S
C54 C55 1.390 . S
C54 C56 1.322 1_554 S
C55 C54 1.390 . S
C55 C59 1.370 . S
C56 N47 1.477 . S
C56 C54 1.322 1_556 S
C56 C57 1.447 . S
C57 H44 0.940 . S
C57 C56 1.447 . S
C57 C58 1.373 . S
C58 C57 1.373 . S
C58 C59 1.417 1_556 S
C59 H45 0.940 . S
C59 C55 1.370 . S
C59 C58 1.417 1_554 S
H60 C68 0.940 . S
H61 C71 0.940 . S
H62 C73 0.940 . S
H63 C74 0.940 . S
H64 C77 0.940 . S
H65 C79 0.940 . S
N66 N67 1.190 . S
N66 C70 1.477 . S
N67 N66 1.190 . S
N67 C76 1.477 . S
C68 H60 0.940 . S
C68 C69 1.390 . S
C68 C70 1.322 1_556 S
C69 C68 1.390 . S
C69 C73 1.370 1_556 S
C70 N66 1.477 . S
C70 C68 1.322 1_554 S
C70 C71 1.447 . S
C71 H61 0.940 . S
C71 C70 1.447 . S
C71 C72 1.373 . S
C72 C71 1.373 . S
C72 C73 1.417 . S
C73 H62 0.940 . S
C73 C69 1.370 1_554 S
C73 C72 1.417 . S
C74 H63 0.940 . S
C74 C75 1.390 . S
C74 C76 1.322 . S
C75 C74 1.390 . S
C75 C79 1.370 . S
C76 N67 1.477 . S
C76 C74 1.322 . S
C76 C77 1.447 1_554 S
C77 H64 0.940 . S
C77 C76 1.447 1_556 S
C77 C78 1.373 . S
C78 C77 1.373 . S
C78 C79 1.417 1_556 S
C79 H65 0.940 . S
C79 C75 1.370 . S
C79 C78 1.417 1_554 S
H80 C88 0.940 . S
H81 C91 0.940 . S
H82 C93 0.940 . S
H83 C94 0.940 . S
H84 C97 0.940 . S
H85 C99 0.940 . S
N86 N87 1.190 . S
N86 C90 1.477 . S
N87 N86 1.190 . S
N87 C96 1.477 . S
C88 H80 0.940 . S
C88 C89 1.390 . S
C88 C90 1.322 1_556 S
C89 C88 1.390 . S
C89 C93 1.370 1_556 S
C90 N86 1.477 . S
C90 C88 1.322 1_554 S
C90 C91 1.447 . S
C91 H81 0.940 . S
C91 C90 1.447 . S
C91 C92 1.373 . S
C92 C91 1.373 . S
C92 C93 1.417 . S
C93 H82 0.940 . S
C93 C89 1.370 1_554 S
C93 C92 1.417 . S
C94 H83 0.940 . S
C94 C95 1.390 . S
C94 C96 1.322 . S
C95 C94 1.390 . S
C95 C99 1.370 . S
C96 N87 1.477 . S
C96 C94 1.322 . S
C96 C97 1.447 1_554 S
C97 H84 0.940 . S
C97 C96 1.447 1_556 S
C97 C98 1.373 . S
C98 C97 1.373 . S
C98 C99 1.417 1_556 S
C99 H85 0.940 . S
C99 C95 1.370 . S
C99 C98 1.417 1_554 S
H100 C108 0.940 . S
H101 C111 0.940 . S
H102 C113 0.940 . S
H103 C114 0.940 . S
H104 C117 0.940 . S
H105 C119 0.940 . S
N106 N107 1.190 . S
N106 C110 1.477 . S
N107 N106 1.190 . S
N107 C116 1.477 . S
C108 H100 0.940 . S
C108 C109 1.390 . S
C108 C110 1.322 . S
C109 C108 1.390 . S
C109 C113 1.370 . S
C110 N106 1.477 . S
C110 C108 1.322 . S
C110 C111 1.447 . S
C111 H101 0.940 . S
C111 C110 1.447 . S
C111 C112 1.373 . S
C112 C111 1.373 . S
C112 C113 1.417 . S
C113 H102 0.940 . S
C113 C109 1.370 . S
C113 C112 1.417 . S
C114 H103 0.940 . S
C114 C115 1.390 . S
C114 C116 1.322 . S
C115 C114 1.390 . S
C115 C119 1.370 . S
C116 N107 1.477 . S
C116 C114 1.322 . S
C116 C117 1.447 . S
C117 H104 0.940 . S
C117 C116 1.447 . S
C117 C118 1.373 . S
C118 C117 1.373 . S
C118 C119 1.417 . S
C119 H105 0.940 . S
C119 C115 1.370 . S
C119 C118 1.417 . S
C120 O132 1.241 1_556 S
C120 O133 1.280 . S
C121 O134 1.279 . S
C121 O135 1.245 . S
C122 O146 1.247 . S
C122 O148 1.289 . S
Mg123 O124 1.930 1_655 S
Mg123 O133 1.984 . S
Mg123 O135 1.988 1_655 S
Mg123 O136 2.061 . S
O124 Mg123 1.930 1_455 S
O124 Mg125 1.986 . S
O124 Mg126 1.916 . S
Mg125 O124 1.986 . S
Mg125 O132 2.042 1_456 S
Mg125 O134 2.041 . S
Mg125 O140 2.038 1_455 S
Mg125 O148 2.238 . S
Mg126 O124 1.916 . S
Mg126 O127 1.917 . S
Mg126 O137 2.106 1_455 S
Mg126 O139 2.079 1_455 S
Mg126 O148 2.106 . S
Mg126 O149 2.079 . S
O127 Mg126 1.917 . S
O127 Mg128 1.926 . S
O127 Mg129 1.986 . S
Mg128 O127 1.926 . S
Mg128 O142 1.984 . S
Mg128 O145 1.988 1_455 S
Mg128 O146 2.061 . S
Mg129 O127 1.986 . S
Mg129 O137 2.238 1_455 S
Mg129 O141 2.042 . S
Mg129 O143 2.041 1_455 S
Mg129 O150 2.038 . S
C130 O136 1.247 . S
C130 O137 1.289 . S
C131 O149 1.245 . S
C131 O150 1.274 . S
O132 C120 1.241 1_554 S
O132 Mg125 2.042 1_654 S
O133 C120 1.280 . S
O133 Mg123 1.984 . S
O134 C121 1.279 . S
O134 Mg125 2.041 . S
O135 C121 1.245 . S
O135 Mg123 1.988 1_455 S
O136 Mg123 2.061 . S
O136 C130 1.247 . S
O137 Mg126 2.106 1_655 S
O137 Mg129 2.238 1_655 S
O137 C130 1.289 . S
C138 O139 1.245 . S
C138 O140 1.274 . S
O139 Mg126 2.079 1_655 S
O139 C138 1.245 . S
O140 Mg125 2.038 1_655 S
O140 C138 1.274 . S
O141 Mg129 2.042 . S
O141 C144 1.241 . S
O142 Mg128 1.984 . S
O142 C144 1.280 . S
O143 Mg129 2.041 1_655 S
O143 C147 1.277 . S
C144 O141 1.241 . S
C144 O142 1.280 . S
O145 Mg128 1.988 1_655 S
O145 C147 1.245 . S
O146 C122 1.247 . S
O146 Mg128 2.061 . S
C147 O143 1.277 . S
C147 O145 1.245 . S
O148 C122 1.289 . S
O148 Mg125 2.238 . S
O148 Mg126 2.106 . S
O149 Mg126 2.079 . S
O149 C131 1.245 . S
O150 Mg129 2.038 . S
O150 C131 1.274 . S
C151 O163 1.241 . S
C151 O164 1.280 1_554 S
C152 O165 1.277 . S
C152 O166 1.245 . S
C153 O177 1.247 . S
C153 O179 1.289 . S
Mg154 O155 1.926 . S
Mg154 O164 1.984 . S
Mg154 O166 1.988 1_545 S
Mg154 O167 2.061 . S
O155 Mg154 1.926 . S
O155 Mg156 1.986 . S
O155 Mg157 1.917 . S
Mg156 O155 1.986 . S
Mg156 O163 2.042 1_556 S
Mg156 O165 2.041 1_545 S
Mg156 O171 2.038 . S
Mg156 O179 2.238 1_545 S
Mg157 O155 1.917 . S
Mg157 O158 1.917 1_545 S
Mg157 O168 2.106 . S
Mg157 O170 2.079 . S
Mg157 O179 2.106 1_545 S
Mg157 O180 2.079 1_545 S
O158 Mg157 1.917 1_565 S
O158 Mg159 1.926 . S
O158 Mg160 1.986 . S
Mg159 O158 1.926 . S
Mg159 O173 1.984 . S
Mg159 O176 1.988 1_565 S
Mg159 O177 2.061 . S
Mg160 O158 1.986 . S
Mg160 O168 2.238 1_565 S
Mg160 O172 2.042 . S
Mg160 O174 2.041 1_565 S
Mg160 O181 2.038 . S
C161 O167 1.247 . S
C161 O168 1.289 . S
C162 O180 1.245 . S
C162 O181 1.274 . S
O163 C151 1.241 . S
O163 Mg156 2.042 1_554 S
O164 C151 1.280 1_556 S
O164 Mg154 1.984 . S
O165 C152 1.277 . S
O165 Mg156 2.041 1_565 S
O166 C152 1.245 . S
O166 Mg154 1.988 1_565 S
O167 Mg154 2.061 . S
O167 C161 1.247 . S
O168 Mg157 2.106 . S
O168 Mg160 2.238 1_545 S
O168 C161 1.289 . S
C169 O170 1.245 . S
C169 O171 1.274 . S
O170 Mg157 2.079 . S
O170 C169 1.245 . S
O171 Mg156 2.038 . S
O171 C169 1.274 . S
O172 Mg160 2.042 . S
O172 C175 1.241 . S
O173 Mg159 1.984 . S
O173 C175 1.280 . S
O174 Mg160 2.041 1_545 S
O174 C178 1.277 . S
C175 O172 1.241 . S
C175 O173 1.280 . S
O176 Mg159 1.988 1_545 S
O176 C178 1.245 . S
O177 C153 1.247 . S
O177 Mg159 2.061 . S
C178 O174 1.277 . S
C178 O176 1.245 . S
O179 C153 1.289 . S
O179 Mg156 2.238 1_565 S
O179 Mg157 2.106 1_565 S
O180 Mg157 2.079 1_565 S
O180 C162 1.245 . S
O181 Mg160 2.038 . S
O181 C162 1.274 . S
C182 O194 1.241 . S
C182 O195 1.280 . S
C183 O196 1.277 . S
C183 O197 1.245 . S
C184 O208 1.247 . S
C184 O210 1.289 . S
Mg185 O186 1.926 . S
Mg185 O195 1.984 . S
Mg185 O197 1.988 . S
Mg185 O198 2.061 . S
O186 Mg185 1.926 . S
O186 Mg187 1.986 . S
O186 Mg188 1.917 . S
Mg187 O186 1.986 . S
Mg187 O194 2.042 . S
Mg187 O196 2.041 . S
Mg187 O202 2.038 . S
Mg187 O210 2.238 . S
Mg188 O186 1.917 . S
Mg188 O189 1.917 . S
Mg188 O199 2.106 . S
Mg188 O201 2.079 . S
Mg188 O210 2.106 . S
Mg188 O211 2.079 . S
O189 Mg188 1.917 . S
O189 Mg190 1.926 . S
O189 Mg191 1.986 . S
Mg190 O189 1.926 . S
Mg190 O204 1.984 . S
Mg190 O207 1.988 . S
Mg190 O208 2.061 . S
Mg191 O189 1.986 . S
Mg191 O199 2.238 . S
Mg191 O203 2.042 1_556 S
Mg191 O205 2.041 . S
Mg191 O212 2.038 . S
C192 O198 1.247 . S
C192 O199 1.289 . S
C193 O211 1.245 . S
C193 O212 1.274 . S
O194 C182 1.241 . S
O194 Mg187 2.042 . S
O195 C182 1.280 . S
O195 Mg185 1.984 . S
O196 C183 1.277 . S
O196 Mg187 2.041 . S
O197 C183 1.245 . S
O197 Mg185 1.988 . S
O198 Mg185 2.061 . S
O198 C192 1.247 . S
O199 Mg188 2.106 . S
O199 Mg191 2.238 . S
O199 C192 1.289 . S
C200 O201 1.245 . S
C200 O202 1.274 . S
O201 Mg188 2.079 . S
O201 C200 1.245 . S
O202 Mg187 2.038 . S
O202 C200 1.274 . S
O203 Mg191 2.042 1_554 S
O203 C206 1.241 . S
O204 Mg190 1.984 . S
O204 C206 1.280 1_556 S
O205 Mg191 2.041 . S
O205 C209 1.277 . S
C206 O203 1.241 . S
C206 O204 1.280 1_554 S
O207 Mg190 1.988 . S
O207 C209 1.245 . S
O208 C184 1.247 . S
O208 Mg190 2.061 . S
C209 O205 1.277 . S
C209 O207 1.245 . S
O210 C184 1.289 . S
O210 Mg187 2.238 . S
O210 Mg188 2.106 . S
O211 Mg188 2.079 . S
O211 C193 1.245 . S
O212 Mg191 2.038 . S
O212 C193 1.274 . S
C12 C131 2.256 . S
C32 C178 1.622 . S
C182 C52 1.899 . S
C147 C75 1.652 . S
C95 C162 2.301 . S
C184 C115 1.195 . S
C153 C58 1.796 . S
C69 C193 1.644 . S
C122 C89 1.748 . S
C109 C151 1.408 . S
C18 C209 2.095 1_554 S
C120 C38 1.472 1_556 S
C138 C78 2.108 . S
C152 C98 1.609 . S
C206 C118 1.812 . S
C121 C9 1.644 1_556 S
C169 C29 2.240 1_556 S
C49 C192 1.162 . S
C161 C112 1.710 . S
C200 C15 1.584 . S
C130 C35 1.698 . S
C175 C55 1.380 . S
C72 C183 2.064 . S
C92 C144 1.391 . S
