# Generated by pormake.
# Topology rtl, (3,6)-cn, num edge types: 1
# Building blocks:
#     Node 0, Type 0, BuildingBlock: INOVEN_clean_linker_0, # of connection points: 3
#     Node 1, Type 0, BuildingBlock: INOVEN_clean_linker_0, # of connection points: 3
#     Node 2, Type 0, BuildingBlock: INOVEN_clean_linker_0, # of connection points: 3
#     Node 3, Type 0, BuildingBlock: INOVEN_clean_linker_0, # of connection points: 3
#     Node 4, Type 1, BuildingBlock: CIFDUS_clean_sbu_1, # of connection points: 6
#     Node 5, Type 1, BuildingBlock: CIFDUS_clean_sbu_1, # of connection points: 6
#     Edge 6, Type (0, 1), BuildingBlock: EYOCIG_clean_linker_4, # of connection points: 2
#     Edge 7, Type (0, 1), BuildingBlock: EYOCIG_clean_linker_4, # of connection points: 2
#     Edge 8, Type (0, 1), BuildingBlock: EYOCIG_clean_linker_4, # of connection points: 2
#     Edge 9, Type (0, 1), BuildingBlock: EYOCIG_clean_linker_4, # of connection points: 2
#     Edge 10, Type (0, 1), BuildingBlock: EYOCIG_clean_linker_4, # of connection points: 2
#     Edge 11, Type (0, 1), BuildingBlock: EYOCIG_clean_linker_4, # of connection points: 2
#     Edge 12, Type (0, 1), BuildingBlock: EYOCIG_clean_linker_4, # of connection points: 2
#     Edge 13, Type (0, 1), BuildingBlock: EYOCIG_clean_linker_4, # of connection points: 2
#     Edge 14, Type (0, 1), BuildingBlock: EYOCIG_clean_linker_4, # of connection points: 2
#     Edge 15, Type (0, 1), BuildingBlock: EYOCIG_clean_linker_4, # of connection points: 2
#     Edge 16, Type (0, 1), BuildingBlock: EYOCIG_clean_linker_4, # of connection points: 2
#     Edge 17, Type (0, 1), BuildingBlock: EYOCIG_clean_linker_4, # of connection points: 2
# Relax obj value: 0.016
# Max RMSD: 0.109
# Mean RMSD: 0.080
data_MOF--net-rtl--node1-CIFDUS_clean_sbu_1--node2-INOVEN_clean_linker_0--edge1-EYOCIG_clean_linker_4
_symmetry_space_group_name_H-M    P1
_symmetry_Int_Tables_number       1
_symmetry_cell_setting            triclinic
loop_
_symmetry_equiv_pos_as_xyz
'x, y, z'
_cell_length_a     27.784878
_cell_length_b     27.887496
_cell_length_c     17.27553
_cell_angle_alpha  91.49093
_cell_angle_beta   99.216166
_cell_angle_gamma 89.930711
loop_
_atom_site_label
_atom_site_type_symbol
_atom_site_fract_x
_atom_site_fract_y
_atom_site_fract_z
_atom_type_partial_charge
H0 H 0.2302 0.83097 0.95622 0.0
H1 H 0.14084 0.92541 0.07317 0.0
H2 H 0.24386 0.83226 0.20827 0.0
N3 N 0.27728 0.79076 0.08186 0.0
N4 N 0.29792 0.77181 0.14293 0.0
C5 C 0.21954 0.8452 0.00998 0.0
C6 C 0.18307 0.88008 1.00651 0.0
C7 C 0.24177 0.82758 0.08219 0.0
C8 C 0.22742 0.84585 0.152 0.0
C9 C 0.19121 0.88137 0.14883 0.0
C10 C 0.16921 0.89844 0.07593 0.0
H11 H 0.72666 0.73093 0.73628 0.0
H12 H 0.62965 0.6388 0.57922 0.0
H13 H 0.71657 0.74367 0.48605 0.0
N14 N 0.76249 0.77825 0.62757 0.0
N15 N 0.77832 0.79823 0.57299 0.0
C16 C 0.71097 0.71955 0.67715 0.0
C17 C 0.67651 0.68226 0.66521 0.0
C18 C 0.72592 0.74192 0.6131 0.0
C19 C 0.70535 0.72699 0.5363 0.0
C20 C 0.6706 0.69004 0.52418 0.0
C21 C 0.65628 0.66766 0.58863 0.0
H22 H 0.8126 0.22846 0.8659 0.0
H23 H 0.90707 0.13686 0.01875 0.0
H24 H 0.81898 0.24234 0.11631 0.0
N25 N 0.77533 0.27595 0.97499 0.0
N26 N 0.75713 0.29579 0.02881 0.0
C27 C 0.82748 0.21735 0.92457 0.0
C28 C 0.86145 0.1801 0.93495 0.0
C29 C 0.81165 0.23992 0.98924 0.0
C30 C 0.831 0.22539 0.06558 0.0
C31 C 0.86561 0.18843 0.07617 0.0
C32 C 0.8807 0.16578 0.01074 0.0
H33 H 0.28933 0.34726 0.35913 0.0
H34 H 0.39339 0.42853 0.52226 0.0
H35 H 0.29489 0.3315 0.60784 0.0
N36 N 0.25062 0.29966 0.46303 0.0
N37 N 0.23466 0.27719 0.51492 0.0
C38 C 0.30477 0.35735 0.419 0.0
C39 C 0.34283 0.39083 0.4335 0.0
C40 C 0.28723 0.33559 0.48114 0.0
C41 C 0.30789 0.34816 0.55905 0.0
C42 C 0.34621 0.38158 0.57389 0.0
C43 C 0.36348 0.40301 0.51098 0.0
O44 O 0.98625 0.07114 0.4465 0.0
Mn45 Mn 0.01834 0.02689 0.53689 0.0
O46 O 0.94112 0.02393 0.35521 0.0
Mn47 Mn 0.96377 0.96712 0.39965 0.0
O48 O 0.05064 0.98283 0.62823 0.0
O49 O 0.06784 0.08062 0.57013 0.0
Mn50 Mn 0.07453 0.08659 0.67331 0.0
O51 O 0.97053 0.05579 0.60881 0.0
O52 O 0.09901 0.0302 0.71529 0.0
O53 O 0.0667 0.99777 0.46528 0.0
O54 O 0.02335 0.94723 0.37725 0.0
O55 O 0.11533 0.13179 0.64636 0.0
O56 O 0.0152 0.10442 0.6988 0.0
C57 C 0.93479 0.94007 0.49519 0.0
C58 C 0.95653 0.06488 0.38199 0.0
C59 C 0.08209 0.98938 0.69094 0.0
C60 C 0.0992 0.11575 0.57603 0.0
C61 C 0.97488 0.08588 0.66726 0.0
C62 C 0.06339 0.96641 0.40858 0.0
O63 O 0.96784 0.97382 0.50288 0.0
O64 O 0.9207 0.92335 0.42463 0.0
O65 O 0.54935 0.57443 0.14183 0.0
Mn66 Mn 0.51663 0.52848 0.05012 0.0
O67 O 0.59383 0.52858 0.23161 0.0
Mn68 Mn 0.57058 0.47135 0.18497 0.0
O69 O 0.48337 0.48252 0.95789 0.0
O70 O 0.46695 0.58169 0.0192 0.0
Mn71 Mn 0.4607 0.586 0.91616 0.0
O72 O 0.56449 0.55587 0.9784 0.0
O73 O 0.43617 0.52874 0.87172 0.0
O74 O 0.46843 0.50148 0.12149 0.0
O75 O 0.51126 0.45229 0.20758 0.0
O76 O 0.41955 0.63147 0.94486 0.0
O77 O 0.52005 0.60383 0.89163 0.0
C78 C 0.59969 0.4416 0.09034 0.0
C79 C 0.57887 0.56913 0.2063 0.0
C80 C 0.45203 0.48811 0.89528 0.0
C81 C 0.43515 0.61638 0.01458 0.0
C82 C 0.56033 0.58553 0.92178 0.0
C83 C 0.47152 0.47145 0.17737 0.0
O84 O 0.56693 0.47555 0.08191 0.0
O85 O 0.61327 0.42659 0.16075 0.0
C86 C 0.17119 0.20847 0.48301 0.0
C87 C 0.20021 0.24111 0.49474 0.0
C88 C 0.13906 0.16946 0.48604 0.0
C89 C 0.11552 0.13925 0.5121 0.0
C90 C 0.36062 0.70376 0.13086 0.0
C91 C 0.33178 0.73549 0.1382 0.0
C92 C 0.39281 0.66727 0.1119 0.0
C93 C 0.41677 0.63929 0.07937 0.0
C94 C 0.84677 0.8628 0.59371 0.0
C95 C 0.81475 0.83293 0.58799 0.0
C96 C 0.88364 0.89642 0.58463 0.0
C97 C 0.91175 0.92145 0.55699 0.0
C98 C 0.68916 0.35992 1.00176 0.0
C99 C 0.72104 0.33015 0.01179 0.0
C100 C 0.65192 0.39431 1.00488 0.0
C101 C 0.62315 0.42093 0.02928 0.0
C102 C 0.15842 0.91676 0.27461 0.0
C103 C 0.17487 0.89933 0.21957 0.0
C104 C 0.13329 0.93734 0.33256 0.0
C105 C 0.10535 0.95372 0.37323 0.0
C106 C 0.64834 0.63836 0.78491 0.0
C107 C 0.66178 0.65892 0.73142 0.0
C108 C 0.62724 0.61534 0.8435 0.0
C109 C 0.60164 0.5982 0.88597 0.0
C110 C 0.90289 0.15643 0.21588 0.0
C111 C 0.88479 0.17241 0.15374 0.0
C112 C 0.92412 0.13202 0.28349 0.0
C113 C 0.94137 0.10496 0.33375 0.0
C114 C 0.38956 0.40489 0.71803 0.0
C115 C 0.36879 0.39324 0.65342 0.0
C116 C 0.41469 0.42392 0.78998 0.0
C117 C 0.43506 0.44802 0.84451 0.0
C118 C 0.6323 0.65913 0.38145 0.0
C119 C 0.65046 0.67411 0.44559 0.0
C120 C 0.61114 0.63616 0.31038 0.0
C121 C 0.59376 0.60968 0.257 0.0
C122 C 0.88881 0.13653 0.81133 0.0
C123 C 0.87623 0.1565 0.86746 0.0
C124 C 0.90875 0.11446 0.74926 0.0
C125 C 0.93388 0.09786 0.7046 0.0
C126 C 0.37865 0.42799 0.31495 0.0
C127 C 0.36211 0.41089 0.3686 0.0
C128 C 0.40275 0.44667 0.2561 0.0
C129 C 0.42999 0.46113 0.21402 0.0
C130 C 0.13893 0.90885 0.86822 0.0
C131 C 0.15898 0.89581 0.93128 0.0
C132 C 0.11568 0.92746 0.79659 0.0
C133 C 0.097 0.95056 0.74186 0.0
loop_
_geom_bond_atom_site_label_1
_geom_bond_atom_site_label_2
_geom_bond_distance
_geom_bond_site_symmetry_2
_ccdc_geom_bond_type
H0 C5 0.929 . S
H1 C10 0.931 . S
H2 C8 0.930 . S
N3 N4 1.234 . S
N3 C7 1.453 . S
N4 N3 1.234 . S
C5 H0 0.929 . S
C5 C6 1.373 1_556 S
C5 C7 1.368 1_556 S
C6 C5 1.373 1_554 S
C6 C10 1.397 . S
C7 N3 1.453 . S
C7 C5 1.368 1_554 S
C7 C8 1.373 . S
C8 H2 0.930 . S
C8 C7 1.373 . S
C8 C9 1.371 . S
C9 C8 1.371 . S
C9 C10 1.383 . S
C10 H1 0.931 . S
C10 C6 1.397 . S
C10 C9 1.383 . S
H11 C16 0.929 . S
H12 C21 0.931 . S
H13 C19 0.930 . S
N14 N15 1.234 . S
N14 C18 1.453 . S
N15 N14 1.234 . S
C16 H11 0.929 . S
C16 C17 1.373 . S
C16 C18 1.368 . S
C17 C16 1.373 . S
C17 C21 1.397 . S
C18 N14 1.453 . S
C18 C16 1.368 . S
C18 C19 1.373 . S
C19 H13 0.930 . S
C19 C18 1.373 . S
C19 C20 1.371 . S
C20 C19 1.371 . S
C20 C21 1.383 . S
C21 H12 0.931 . S
C21 C17 1.397 . S
C21 C20 1.383 . S
H22 C27 0.929 . S
H23 C32 0.931 . S
H24 C30 0.930 . S
N25 N26 1.234 1_556 S
N25 C29 1.453 . S
N26 N25 1.234 1_554 S
C27 H22 0.929 . S
C27 C28 1.373 . S
C27 C29 1.368 . S
C28 C27 1.373 . S
C28 C32 1.397 1_556 S
C29 N25 1.453 . S
C29 C27 1.368 . S
C29 C30 1.373 1_556 S
C30 H24 0.930 . S
C30 C29 1.373 1_554 S
C30 C31 1.371 . S
C31 C30 1.371 . S
C31 C32 1.383 . S
C32 H23 0.931 . S
C32 C28 1.397 1_554 S
C32 C31 1.383 . S
H33 C38 0.929 . S
H34 C43 0.931 . S
H35 C41 0.930 . S
N36 N37 1.234 . S
N36 C40 1.453 . S
N37 N36 1.234 . S
C38 H33 0.929 . S
C38 C39 1.373 . S
C38 C40 1.368 . S
C39 C38 1.373 . S
C39 C43 1.397 . S
C40 N36 1.453 . S
C40 C38 1.368 . S
C40 C41 1.373 . S
C41 H35 0.930 . S
C41 C40 1.373 . S
C41 C42 1.371 . S
C42 C41 1.371 . S
C42 C43 1.383 . S
C43 H34 0.931 . S
C43 C39 1.397 . S
C43 C42 1.383 . S
O44 Mn45 2.163 1_655 S
O44 C58 1.244 . S
Mn45 O44 2.163 1_455 S
Mn45 O48 2.160 1_545 S
Mn45 O49 2.221 . S
Mn45 O51 2.163 1_455 S
Mn45 O53 2.160 1_545 S
Mn45 O63 2.221 1_445 S
O46 Mn47 2.087 1_545 S
O46 C58 1.256 . S
Mn47 O46 2.087 1_565 S
Mn47 O54 2.089 1_655 S
Mn47 O63 2.290 . S
Mn47 O64 2.251 . S
O48 Mn45 2.160 1_565 S
O48 C59 1.239 . S
O49 Mn45 2.221 . S
O49 Mn50 2.290 . S
O49 C60 1.278 . S
Mn50 O49 2.290 . S
Mn50 O52 2.089 . S
Mn50 O55 2.251 . S
Mn50 O56 2.087 . S
O51 Mn45 2.163 1_655 S
O51 C61 1.244 . S
O52 Mn50 2.089 . S
O52 C59 1.256 1_545 S
O53 Mn45 2.160 1_565 S
O53 C62 1.239 . S
O54 Mn47 2.089 1_455 S
O54 C62 1.256 . S
O55 Mn50 2.251 . S
O55 C60 1.241 . S
O56 Mn50 2.087 . S
O56 C61 1.256 1_455 S
C57 O63 1.278 . S
C57 O64 1.241 . S
C58 O44 1.244 . S
C58 O46 1.256 . S
C59 O48 1.239 . S
C59 O52 1.256 1_565 S
C60 O49 1.278 . S
C60 O55 1.241 . S
C61 O51 1.244 . S
C61 O56 1.256 1_655 S
C62 O53 1.239 . S
C62 O54 1.256 . S
O63 Mn45 2.221 1_665 S
O63 Mn47 2.290 . S
O63 C57 1.278 . S
O64 Mn47 2.251 . S
O64 C57 1.241 . S
O65 Mn66 2.163 . S
O65 C79 1.244 . S
Mn66 O65 2.163 . S
Mn66 O69 2.160 1_554 S
Mn66 O70 2.221 . S
Mn66 O72 2.163 1_554 S
Mn66 O74 2.160 . S
Mn66 O84 2.221 . S
O67 Mn68 2.087 . S
O67 C79 1.256 . S
Mn68 O67 2.087 . S
Mn68 O75 2.089 . S
Mn68 O84 2.290 . S
Mn68 O85 2.251 . S
O69 Mn66 2.160 1_556 S
O69 C80 1.239 . S
O70 Mn66 2.221 . S
O70 Mn71 2.290 1_554 S
O70 C81 1.278 . S
Mn71 O70 2.290 1_556 S
Mn71 O73 2.089 . S
Mn71 O76 2.251 . S
Mn71 O77 2.087 . S
O72 Mn66 2.163 1_556 S
O72 C82 1.244 . S
O73 Mn71 2.089 . S
O73 C80 1.256 . S
O74 Mn66 2.160 . S
O74 C83 1.239 . S
O75 Mn68 2.089 . S
O75 C83 1.256 . S
O76 Mn71 2.251 . S
O76 C81 1.241 1_556 S
O77 Mn71 2.087 . S
O77 C82 1.256 . S
C78 O84 1.278 . S
C78 O85 1.241 . S
C79 O65 1.244 . S
C79 O67 1.256 . S
C80 O69 1.239 . S
C80 O73 1.256 . S
C81 O70 1.278 . S
C81 O76 1.241 1_554 S
C82 O72 1.244 . S
C82 O77 1.256 . S
C83 O74 1.239 . S
C83 O75 1.256 . S
O84 Mn66 2.221 . S
O84 Mn68 2.290 . S
O84 C78 1.278 . S
O85 Mn68 2.251 . S
O85 C78 1.241 . S
C86 C87 1.170 . S
C86 C88 1.380 . S
C87 C86 1.170 . S
C88 C86 1.380 . S
C88 C89 1.170 . S
C89 C88 1.170 . S
C90 C91 1.170 . S
C90 C92 1.380 . S
C91 C90 1.170 . S
C92 C90 1.380 . S
C92 C93 1.170 . S
C93 C92 1.170 . S
C94 C95 1.170 . S
C94 C96 1.380 . S
C95 C94 1.170 . S
C96 C94 1.380 . S
C96 C97 1.170 . S
C97 C96 1.170 . S
C98 C99 1.170 . S
C98 C100 1.380 . S
C99 C98 1.170 . S
C100 C98 1.380 . S
C100 C101 1.170 . S
C101 C100 1.170 . S
C102 C103 1.170 . S
C102 C104 1.380 . S
C103 C102 1.170 . S
C104 C102 1.380 . S
C104 C105 1.170 . S
C105 C104 1.170 . S
C106 C107 1.170 . S
C106 C108 1.380 . S
C107 C106 1.170 . S
C108 C106 1.380 . S
C108 C109 1.170 . S
C109 C108 1.170 . S
C110 C111 1.170 . S
C110 C112 1.380 . S
C111 C110 1.170 . S
C112 C110 1.380 . S
C112 C113 1.170 . S
C113 C112 1.170 . S
C114 C115 1.170 . S
C114 C116 1.380 . S
C115 C114 1.170 . S
C116 C114 1.380 . S
C116 C117 1.170 . S
C117 C116 1.170 . S
C118 C119 1.170 . S
C118 C120 1.380 . S
C119 C118 1.170 . S
C120 C118 1.380 . S
C120 C121 1.170 . S
C121 C120 1.170 . S
C122 C123 1.170 . S
C122 C124 1.380 . S
C123 C122 1.170 . S
C124 C122 1.380 . S
C124 C125 1.170 . S
C125 C124 1.170 . S
C126 C127 1.170 . S
C126 C128 1.380 . S
C127 C126 1.170 . S
C128 C126 1.380 . S
C128 C129 1.170 . S
C129 C128 1.170 . S
C130 C131 1.170 . S
C130 C132 1.380 . S
C131 C130 1.170 . S
C132 C130 1.380 . S
C132 C133 1.170 . S
C133 C132 1.170 . S
C89 C60 1.222 . S
C87 N37 1.429 . S
C91 N4 1.480 . S
C93 C81 1.325 . S
C95 N15 1.581 . S
C97 C57 1.428 . S
C99 N26 1.566 . S
C101 C78 1.365 . S
C105 C62 1.498 . S
C103 C9 1.514 . S
C109 C82 1.544 . S
C107 C17 1.598 . S
C111 C31 1.585 . S
C113 C58 1.564 . S
C115 C42 1.501 . S
C117 C80 1.462 . S
C121 C79 1.476 . S
C119 C20 1.514 . S
C125 C61 1.437 . S
C123 C28 1.512 . S
C129 C83 1.435 . S
C127 C39 1.450 . S
C131 C6 1.458 1_556 S
C133 C59 1.375 . S
