# Generated by pormake.
# Topology anh, (6,3)-cn, num edge types: 1
# Building blocks:
#     Node 0, Type 0, BuildingBlock: BETGAK_clean_sbu_0, # of connection points: 6
#     Node 1, Type 0, BuildingBlock: BETGAK_clean_sbu_0, # of connection points: 6
#     Node 2, Type 0, BuildingBlock: BETGAK_clean_sbu_0, # of connection points: 6
#     Node 3, Type 1, BuildingBlock: BETDIP_clean_linker_0, # of connection points: 3
#     Node 4, Type 1, BuildingBlock: BETDIP_clean_linker_0, # of connection points: 3
#     Node 5, Type 1, BuildingBlock: BETDIP_clean_linker_0, # of connection points: 3
#     Node 6, Type 1, BuildingBlock: BETDIP_clean_linker_0, # of connection points: 3
#     Node 7, Type 1, BuildingBlock: BETDIP_clean_linker_0, # of connection points: 3
#     Node 8, Type 1, BuildingBlock: BETDIP_clean_linker_0, # of connection points: 3
#     Edge 9, Type (0, 1), None
#     Edge 10, Type (0, 1), None
#     Edge 11, Type (0, 1), None
#     Edge 12, Type (0, 1), None
#     Edge 13, Type (0, 1), None
#     Edge 14, Type (0, 1), None
#     Edge 15, Type (0, 1), None
#     Edge 16, Type (0, 1), None
#     Edge 17, Type (0, 1), None
#     Edge 18, Type (0, 1), None
#     Edge 19, Type (0, 1), None
#     Edge 20, Type (0, 1), None
#     Edge 21, Type (0, 1), None
#     Edge 22, Type (0, 1), None
#     Edge 23, Type (0, 1), None
#     Edge 24, Type (0, 1), None
#     Edge 25, Type (0, 1), None
#     Edge 26, Type (0, 1), None
# Relax obj value: 0.413
# Max RMSD: 0.291
# Mean RMSD: 0.166
data_MOF--net-anh--node1-BETGAK_clean_sbu_0--node2-BETDIP_clean_linker_0--edge1-none
_symmetry_space_group_name_H-M    P1
_symmetry_Int_Tables_number       1
_symmetry_cell_setting            triclinic
loop_
_symmetry_equiv_pos_as_xyz
'x, y, z'
_cell_length_a     13.753166
_cell_length_b     20.055189
_cell_length_c     22.302805
_cell_angle_alpha  94.059074
_cell_angle_beta   89.035131
_cell_angle_gamma 139.79905
loop_
_atom_site_label
_atom_site_type_symbol
_atom_site_fract_x
_atom_site_fract_y
_atom_site_fract_z
_atom_type_partial_charge
La0 La 0.52235 0.72344 0.17493 0.0
La1 La 1.25227 0.65659 0.16949 0.0
C2 C 0.78306 0.81265 0.18908 0.0
C3 C 0.83197 0.77869 0.21884 0.0
C4 C 0.72017 0.68309 0.24381 0.0
C5 C 0.70526 0.60759 0.22614 0.0
C6 C 0.80683 0.63227 0.18577 0.0
C7 C 0.95063 0.73804 0.1869 0.0
C8 C 0.95946 0.81184 0.19883 0.0
C9 C 0.38532 0.66901 0.27796 0.0
C10 C 0.5588 0.89813 0.173 0.0
C11 C 1.00872 0.58439 0.18992 0.0
C12 C 0.85759 0.4788 0.17108 0.0
C13 C 0.82841 0.43354 0.11271 0.0
C14 C 0.68239 0.33772 0.09301 0.0
C15 C 0.56322 0.28799 0.13071 0.0
C16 C 0.5954 0.32417 0.19184 0.0
C17 C 0.74272 0.4203 0.21189 0.0
C18 C 0.31249 0.63217 0.061 0.0
C19 C 1.22719 0.48538 0.16339 0.0
O20 O 0.69466 0.75372 0.14019 0.0
O21 O 0.73085 0.83344 0.22438 0.0
O22 O 0.43584 0.63948 0.25646 0.0
O23 O 0.40928 0.7242 0.24132 0.0
O24 O 0.61701 0.87013 0.15703 0.0
O25 O 0.41422 0.82598 0.18509 0.0
O26 O 1.0934 0.64622 0.14693 0.0
O27 O 1.08192 0.58739 0.22916 0.0
O28 O 1.18215 0.57029 0.08294 0.0
O29 O 0.40819 0.70948 0.09975 0.0
O30 O 1.16562 0.51018 0.18251 0.0
O31 O 0.36976 0.55892 0.14864 0.0
H32 H 0.62891 0.65972 0.26613 0.0
H33 H 0.60086 0.52851 0.23464 0.0
H34 H 1.04257 0.76144 0.16458 0.0
H35 H 1.05334 0.88818 0.18317 0.0
H36 H 0.91546 0.47504 0.08074 0.0
H37 H 0.65961 0.31036 0.04578 0.0
H38 H 0.50462 0.28649 0.22164 0.0
H39 H 0.76453 0.45216 0.25785 0.0
La40 La 0.91685 0.11891 0.46239 0.0
La41 La 0.70897 0.12037 0.45909 0.0
C42 C 1.05658 0.08639 0.4831 0.0
C43 C 1.02402 1.01139 0.51647 0.0
C44 C 1.10518 0.99495 0.5062 0.0
C45 C 1.08265 0.92902 0.54065 0.0
C46 C 0.97654 0.87758 0.58521 0.0
C47 C 0.89182 0.89163 0.59405 0.0
C48 C 0.91417 0.95721 0.55934 0.0
C49 C 0.86471 0.1369 0.35421 0.0
C50 C 0.56698 0.90532 0.45487 0.0
C51 C 0.58139 0.16022 0.4343 0.0
C52 C 0.62009 0.2485 0.45994 0.0
C53 C 0.53107 0.23156 0.50425 0.0
C54 C 0.58538 0.31429 0.54137 0.0
C55 C 0.73123 0.41561 0.53559 0.0
C56 C 0.81518 0.43423 0.48774 0.0
C57 C 0.75968 0.35115 0.44992 0.0
C58 C 0.75695 0.10464 0.56864 0.0
C59 C 1.06693 0.3383 0.47035 0.0
O60 O 0.97088 1.04835 0.4343 0.0
O61 O 1.0761 0.15299 0.51587 0.0
O62 O 0.99454 0.18484 0.37495 0.0
O63 O 0.76907 0.07767 0.39231 0.0
O64 O 0.6988 0.95816 0.48037 0.0
O65 O 0.55324 0.95667 0.43136 0.0
O66 O 0.53076 0.09385 0.47269 0.0
O67 O 0.68101 0.18282 0.40052 0.0
O68 O 0.6321 1.0646 0.54806 0.0
O69 O 0.85491 0.16025 0.53023 0.0
O70 O 0.92823 0.28953 0.46375 0.0
O71 O 1.09126 0.28664 0.47433 0.0
H72 H 1.18541 1.0329 0.47139 0.0
H73 H 1.14795 0.91826 0.53219 0.0
H74 H 0.80699 0.85084 0.62717 0.0
H75 H 0.84512 0.96503 0.56573 0.0
H76 H 0.42526 0.15378 0.51381 0.0
H77 H 0.51683 0.29823 0.57709 0.0
H78 H 0.92763 0.51183 0.48215 0.0
H79 H 0.8313 0.36713 0.41596 0.0
La80 La 0.96669 0.69943 0.86683 0.0
La81 La 0.73149 0.45829 0.86197 0.0
C82 C 1.14605 0.882 0.83947 0.0
C83 C 1.12081 0.94029 0.82745 0.0
C84 C 1.10304 0.98024 0.87466 0.0
C85 C 1.06744 1.02757 0.86244 0.0
C86 C 1.04874 1.03626 0.80284 0.0
C87 C 1.07143 0.9996 0.75565 0.0
C88 C 1.10714 0.95229 0.76784 0.0
C89 C 0.83987 0.61088 0.96638 0.0
C90 C 0.61593 0.55443 0.86984 0.0
C91 C 0.58804 0.28105 0.88367 0.0
C92 C 0.60826 0.22305 0.85498 0.0
C93 C 0.51592 0.15186 0.80445 0.0
C94 C 0.55386 0.11438 0.76909 0.0
C95 C 0.68744 0.14896 0.78253 0.0
C96 C 0.77388 0.21429 0.83563 0.0
C97 C 0.73429 0.25027 0.87158 0.0
C98 C 0.79754 0.52031 0.75181 0.0
C99 C 1.08988 0.60922 0.87576 0.0
O100 O 1.13387 0.85894 0.89487 0.0
O101 O 1.08095 0.80383 0.80018 0.0
O102 O 0.8937 0.697 0.9556 0.0
O103 O 0.87492 0.58639 0.92619 0.0
O104 O 0.75188 0.64437 0.85396 0.0
O105 O 0.58942 0.47627 0.88069 0.0
O106 O 0.53212 0.29648 0.84835 0.0
O107 O 0.7023 0.36503 0.91839 0.0
O108 O 0.70776 0.42612 0.76398 0.0
O109 O 0.84643 0.57348 0.80137 0.0
O110 O 0.94726 0.51322 0.86574 0.0
O111 O 1.12152 0.6919 0.87972 0.0
H112 H 1.11364 0.97325 0.92115 0.0
H113 H 1.05162 1.05572 0.89976 0.0
H114 H 1.06042 1.0066 0.70928 0.0
H115 H 1.12309 0.92427 0.73055 0.0
H116 H 0.41913 0.12997 0.79012 0.0
H117 H 0.48158 1.06174 0.72962 0.0
H118 H 0.87765 0.24316 0.84761 0.0
H119 H 0.80837 0.30476 0.9103 0.0
H120 H 0.74643 0.0841 0.11602 0.0
H121 H 1.02383 0.28731 0.27683 0.0
H122 H 0.62363 0.96128 0.28814 0.0
H123 H 1.20924 0.36779 0.17784 0.0
C124 C 1.14399 0.37764 0.16768 0.0
C125 C 0.76667 0.09562 0.16442 0.0
C126 C 0.6687 1.00849 0.19898 0.0
C127 C 0.89353 0.19784 0.19268 0.0
C128 C 0.92546 0.21047 0.25491 0.0
C129 C 0.82728 0.12515 0.28954 0.0
C130 C 0.69708 1.02642 0.26157 0.0
N131 N 0.98274 0.2875 0.15976 0.0
H132 H 0.89338 0.6136 0.52239 0.0
H133 H 0.93033 0.7012 0.70944 0.0
H134 H 0.72522 0.4037 0.6544 0.0
H135 H 0.86776 0.768 0.65539 0.0
C136 C 0.94645 0.80403 0.61977 0.0
C137 C 0.8776 0.59633 0.56898 0.0
C138 C 0.79911 0.49865 0.58309 0.0
C139 C 0.92532 0.66941 0.61448 0.0
C140 C 0.89989 0.64657 0.67501 0.0
C141 C 0.83101 0.55152 0.68989 0.0
C142 C 0.7809 0.47826 0.64355 0.0
N143 N 0.99065 0.7629 0.59728 0.0
H144 H 1.2647 0.59121 0.81927 0.0
H145 H 0.45507 0.61763 -0.01462 0.0
H146 H 1.17529 0.64636 -0.00954 0.0
H147 H 0.49228 0.58165 0.85492 0.0
C148 C 0.49192 0.54195 0.88397 0.0
C149 C 1.28144 0.60508 0.86782 0.0
C150 C 1.20742 0.62076 0.90099 0.0
C151 C 0.37526 0.60548 0.89794 0.0
C152 C 0.39022 0.62021 0.96143 0.0
C153 C 0.32046 0.63645 -0.00552 0.0
C154 C 1.23254 0.63766 0.964 0.0
N155 N 0.4593 0.59371 0.86426 0.0
H156 H 0.37687 0.72248 0.51597 0.0
H157 H 1.23122 0.5216 0.35691 0.0
H158 H 0.52326 0.84093 0.34237 0.0
H159 H 0.30678 0.48392 0.45714 0.0
C160 C 1.20124 0.45269 0.46819 0.0
C161 C 0.37574 0.71053 0.46775 0.0
C162 C 0.46118 0.79503 0.43174 0.0
C163 C 1.29041 0.61036 0.44058 0.0
C164 C 1.29447 0.59714 0.37815 0.0
C165 C 0.37536 0.67994 0.34276 0.0
C166 C 0.45592 0.77693 0.36971 0.0
N167 N 1.19746 0.52212 0.47472 0.0
H168 H 0.83538 0.1099 0.80463 0.0
H169 H 0.93031 0.1009 0.62121 0.0
H170 H 0.66328 0.13477 0.66038 0.0
H171 H 0.99038 0.11083 0.82937 0.0
C172 C 1.00166 0.08102 0.79109 0.0
C173 C 0.82632 0.11334 0.75724 0.0
C174 C 0.74507 0.12685 0.73825 0.0
C175 C 0.89248 0.10269 0.71496 0.0
C176 C 0.87743 0.10677 0.65356 0.0
C177 C 0.78982 0.11401 0.63361 0.0
C178 C 0.72519 0.12463 0.6761 0.0
N179 N 0.96752 0.08225 0.7314 0.0
H180 H 0.53862 0.42034 0.16199 0.0
H181 H 0.57562 0.4009 0.97248 0.0
H182 H 0.92148 0.69445 0.07511 0.0
H183 H 0.31346 0.15486 0.11191 0.0
C184 C 0.41877 0.23311 0.10193 0.0
C185 C 0.6023 0.45882 0.12277 0.0
C186 C 0.74411 0.56528 0.12788 0.0
C187 C 0.54344 0.39863 0.06716 0.0
C188 C 0.621 0.44708 0.01518 0.0
C189 C 0.75731 0.55444 0.01915 0.0
C190 C 0.81752 0.6118 0.0747 0.0
N191 N 0.41793 0.28819 0.06509 0.0
loop_
_geom_bond_atom_site_label_1
_geom_bond_atom_site_label_2
_geom_bond_distance
_geom_bond_site_symmetry_2
_ccdc_geom_bond_type
La0 C2 2.928 . S
La0 O20 2.521 . S
La0 O21 2.628 . S
La0 O22 2.554 . S
La0 O23 2.757 . S
La0 O24 2.470 . S
La0 O29 2.482 . S
La0 O31 2.503 1_455 S
La1 C11 2.928 1_455 S
La1 O23 2.482 . S
La1 O25 2.503 . S
La1 O26 2.521 1_455 S
La1 O27 2.628 1_455 S
La1 O28 2.554 . S
La1 O29 2.757 . S
La1 O30 2.470 1_455 S
C2 La0 2.928 . S
C2 C3 1.503 . S
C2 O20 1.261 . S
C2 O21 1.243 . S
C3 C2 1.503 . S
C3 C4 1.394 . S
C3 C8 1.373 . S
C4 C3 1.394 . S
C4 C5 1.380 . S
C4 H32 0.930 . S
C5 C4 1.380 . S
C5 C6 1.376 . S
C5 H33 0.930 . S
C6 C5 1.376 . S
C6 C7 1.370 . S
C7 C6 1.370 . S
C7 C8 1.396 . S
C7 H34 0.929 . S
C8 C3 1.373 . S
C8 C7 1.396 . S
C8 H35 0.929 . S
C9 O22 1.240 . S
C9 O23 1.289 . S
C10 O24 1.258 . S
C10 O25 1.256 . S
C11 La1 2.928 1_655 S
C11 C12 1.503 . S
C11 O26 1.261 . S
C11 O27 1.243 . S
C12 C11 1.503 . S
C12 C13 1.394 . S
C12 C17 1.373 . S
C13 C12 1.394 . S
C13 C14 1.380 . S
C13 H36 0.930 . S
C14 C13 1.380 . S
C14 C15 1.376 . S
C14 H37 0.930 . S
C15 C14 1.376 . S
C15 C16 1.370 . S
C16 C15 1.370 . S
C16 C17 1.396 . S
C16 H38 0.929 . S
C17 C12 1.373 . S
C17 C16 1.396 . S
C17 H39 0.929 . S
C18 O28 1.240 . S
C18 O29 1.289 . S
C19 O30 1.258 . S
C19 O31 1.256 . S
O20 La0 2.521 . S
O20 C2 1.261 . S
O21 La0 2.628 . S
O21 C2 1.243 . S
O22 La0 2.554 . S
O22 C9 1.240 . S
O23 La0 2.757 . S
O23 La1 2.482 . S
O23 C9 1.289 . S
O24 La0 2.470 . S
O24 C10 1.258 . S
O25 La1 2.503 . S
O25 C10 1.256 . S
O26 La1 2.521 1_655 S
O26 C11 1.261 . S
O27 La1 2.628 1_655 S
O27 C11 1.243 . S
O28 La1 2.554 . S
O28 C18 1.240 . S
O29 La0 2.482 . S
O29 La1 2.757 . S
O29 C18 1.289 . S
O30 La1 2.470 1_655 S
O30 C19 1.258 . S
O31 La0 2.503 1_655 S
O31 C19 1.256 . S
H32 C4 0.930 . S
H33 C5 0.930 . S
H34 C7 0.929 . S
H35 C8 0.929 . S
H36 C13 0.930 . S
H37 C14 0.930 . S
H38 C16 0.929 . S
H39 C17 0.929 . S
La40 C42 2.928 1_545 S
La40 O60 2.521 1_545 S
La40 O61 2.628 1_545 S
La40 O62 2.554 1_545 S
La40 O63 2.757 . S
La40 O64 2.470 1_545 S
La40 O69 2.482 . S
La40 O71 2.503 . S
La41 C51 2.928 . S
La41 O63 2.482 . S
La41 O65 2.503 1_545 S
La41 O66 2.521 . S
La41 O67 2.628 . S
La41 O68 2.554 . S
La41 O69 2.757 . S
La41 O70 2.470 . S
C42 La40 2.928 1_565 S
C42 C43 1.503 . S
C42 O60 1.261 . S
C42 O61 1.243 . S
C43 C42 1.503 . S
C43 C44 1.394 . S
C43 C48 1.373 . S
C44 C43 1.394 . S
C44 C45 1.380 . S
C44 H72 0.930 . S
C45 C44 1.380 . S
C45 C46 1.376 . S
C45 H73 0.930 . S
C46 C45 1.376 . S
C46 C47 1.370 . S
C47 C46 1.370 . S
C47 C48 1.396 . S
C47 H74 0.929 . S
C48 C43 1.373 . S
C48 C47 1.396 . S
C48 H75 0.929 . S
C49 O62 1.240 1_545 S
C49 O63 1.289 . S
C50 O64 1.258 . S
C50 O65 1.256 . S
C51 La41 2.928 . S
C51 C52 1.503 . S
C51 O66 1.261 . S
C51 O67 1.243 . S
C52 C51 1.503 . S
C52 C53 1.394 . S
C52 C57 1.373 . S
C53 C52 1.394 . S
C53 C54 1.380 . S
C53 H76 0.930 . S
C54 C53 1.380 . S
C54 C55 1.376 . S
C54 H77 0.930 . S
C55 C54 1.376 . S
C55 C56 1.370 . S
C56 C55 1.370 . S
C56 C57 1.396 . S
C56 H78 0.929 . S
C57 C52 1.373 . S
C57 C56 1.396 . S
C57 H79 0.929 . S
C58 O68 1.240 . S
C58 O69 1.289 . S
C59 O70 1.258 . S
C59 O71 1.256 . S
O60 La40 2.521 1_565 S
O60 C42 1.261 . S
O61 La40 2.628 1_565 S
O61 C42 1.243 . S
O62 La40 2.554 1_565 S
O62 C49 1.240 1_565 S
O63 La40 2.757 . S
O63 La41 2.482 . S
O63 C49 1.289 . S
O64 La40 2.470 1_565 S
O64 C50 1.258 . S
O65 La41 2.503 1_565 S
O65 C50 1.256 . S
O66 La41 2.521 . S
O66 C51 1.261 . S
O67 La41 2.628 . S
O67 C51 1.243 . S
O68 La41 2.554 . S
O68 C58 1.240 . S
O69 La40 2.482 . S
O69 La41 2.757 . S
O69 C58 1.289 . S
O70 La41 2.470 . S
O70 C59 1.258 . S
O71 La40 2.503 . S
O71 C59 1.256 . S
H72 C44 0.930 . S
H73 C45 0.930 . S
H74 C47 0.929 . S
H75 C48 0.929 . S
H76 C53 0.930 . S
H77 C54 0.930 . S
H78 C56 0.929 . S
H79 C57 0.929 . S
La80 C82 2.928 . S
La80 O100 2.521 . S
La80 O101 2.628 . S
La80 O102 2.554 1_556 S
La80 O103 2.757 . S
La80 O104 2.470 . S
La80 O109 2.482 . S
La80 O111 2.503 . S
La81 C91 2.928 . S
La81 O103 2.482 . S
La81 O105 2.503 . S
La81 O106 2.521 . S
La81 O107 2.628 . S
La81 O108 2.554 . S
La81 O109 2.757 . S
La81 O110 2.470 . S
C82 La80 2.928 . S
C82 C83 1.503 . S
C82 O100 1.261 . S
C82 O101 1.243 . S
C83 C82 1.503 . S
C83 C84 1.394 . S
C83 C88 1.373 . S
C84 C83 1.394 . S
C84 C85 1.380 . S
C84 H112 0.942 . S
C85 C84 1.380 . S
C85 C86 1.376 . S
C85 H113 0.930 1_556 S
C86 C85 1.376 . S
C86 C87 1.370 . S
C87 C86 1.370 . S
C87 C88 1.396 . S
C87 H114 0.929 . S
C88 C83 1.373 . S
C88 C87 1.396 . S
C88 H115 0.929 . S
C89 O102 1.240 1_556 S
C89 O103 1.289 . S
C90 O104 1.258 . S
C90 O105 1.256 . S
C91 La81 2.928 . S
C91 C92 1.503 . S
C91 O106 1.261 . S
C91 O107 1.243 . S
C92 C91 1.503 . S
C92 C93 1.394 . S
C92 C97 1.373 . S
C93 C92 1.394 . S
C93 C94 1.380 . S
C93 H116 0.930 . S
C94 C93 1.380 . S
C94 C95 1.376 . S
C94 H117 0.930 . S
C95 C94 1.376 . S
C95 C96 1.370 . S
C96 C95 1.370 . S
C96 C97 1.396 . S
C96 H118 0.929 . S
C97 C92 1.373 . S
C97 C96 1.396 . S
C97 H119 0.929 . S
C98 O108 1.240 . S
C98 O109 1.289 . S
C99 O110 1.258 . S
C99 O111 1.256 . S
O100 La80 2.521 . S
O100 C82 1.261 . S
O101 La80 2.628 . S
O101 C82 1.243 . S
O102 La80 2.554 1_554 S
O102 C89 1.240 1_554 S
O103 La80 2.757 . S
O103 La81 2.482 . S
O103 C89 1.289 . S
O104 La80 2.470 . S
O104 C90 1.258 . S
O105 La81 2.503 . S
O105 C90 1.256 . S
O106 La81 2.521 . S
O106 C91 1.261 . S
O107 La81 2.628 . S
O107 C91 1.243 . S
O108 La81 2.554 . S
O108 C98 1.240 . S
O109 La80 2.482 . S
O109 La81 2.757 . S
O109 C98 1.289 . S
O110 La81 2.470 . S
O110 C99 1.258 . S
O111 La80 2.503 . S
O111 C99 1.256 . S
H112 C84 0.942 . S
H113 C85 0.930 1_554 S
H114 C87 0.929 . S
H115 C88 0.929 . S
H116 C93 0.930 . S
H117 C94 0.930 . S
H118 C96 0.929 . S
H119 C97 0.929 . S
H120 C125 0.930 . S
H121 C128 0.930 . S
H122 C130 0.930 . S
H123 C124 1.016 . S
C124 H123 1.016 . S
C124 N131 1.286 . S
C125 H120 0.930 . S
C125 C126 1.397 . S
C125 C127 1.361 1_565 S
C126 C125 1.397 . S
C126 C130 1.390 . S
C127 C125 1.361 1_545 S
C127 C128 1.393 . S
C127 N131 1.413 . S
C128 H121 0.930 . S
C128 C127 1.393 . S
C128 C129 1.399 . S
C129 C128 1.399 . S
C129 C130 1.381 1_545 S
C130 H122 0.930 . S
C130 C126 1.390 . S
C130 C129 1.381 1_565 S
N131 C124 1.286 . S
N131 C127 1.413 . S
H132 C137 0.930 . S
H133 C140 0.930 . S
H134 C142 0.930 . S
H135 C136 1.016 . S
C136 H135 1.016 . S
C136 N143 1.286 . S
C137 H132 0.930 . S
C137 C138 1.397 . S
C137 C139 1.361 . S
C138 C137 1.397 . S
C138 C142 1.390 . S
C139 C137 1.361 . S
C139 C140 1.393 . S
C139 N143 1.413 . S
C140 H133 0.930 . S
C140 C139 1.393 . S
C140 C141 1.399 . S
C141 C140 1.399 . S
C141 C142 1.381 . S
C142 H134 0.930 . S
C142 C138 1.390 . S
C142 C141 1.381 . S
N143 C136 1.286 . S
N143 C139 1.413 . S
H144 C149 0.930 . S
H145 C152 0.930 . S
H146 C154 0.940 . S
H147 C148 1.016 . S
C148 H147 1.016 . S
C148 N155 1.286 . S
C149 H144 0.930 . S
C149 C150 1.397 . S
C149 C151 1.361 1_655 S
C150 C149 1.397 . S
C150 C154 1.390 . S
C151 C149 1.361 1_455 S
C151 C152 1.393 . S
C151 N155 1.413 . S
C152 H145 0.930 . S
C152 C151 1.393 . S
C152 C153 1.399 1_556 S
C153 C152 1.399 1_554 S
C153 C154 1.381 1_454 S
C154 H146 0.940 . S
C154 C150 1.390 . S
C154 C153 1.381 1_656 S
N155 C148 1.286 . S
N155 C151 1.413 . S
H156 C161 0.930 . S
H157 C164 0.930 . S
H158 C166 0.930 . S
H159 C160 1.016 . S
C160 H159 1.016 . S
C160 N167 1.286 . S
C161 H156 0.930 . S
C161 C162 1.397 . S
C161 C163 1.361 1_455 S
C162 C161 1.397 . S
C162 C166 1.390 . S
C163 C161 1.361 1_655 S
C163 C164 1.393 . S
C163 N167 1.413 . S
C164 H157 0.930 . S
C164 C163 1.393 . S
C164 C165 1.399 1_655 S
C165 C164 1.399 1_455 S
C165 C166 1.381 . S
C166 H158 0.930 . S
C166 C162 1.390 . S
C166 C165 1.381 . S
N167 C160 1.286 . S
N167 C163 1.413 . S
H168 C173 0.930 . S
H169 C176 0.930 . S
H170 C178 0.930 . S
H171 C172 1.016 . S
C172 H171 1.016 . S
C172 N179 1.286 . S
C173 H168 0.930 . S
C173 C174 1.397 . S
C173 C175 1.361 . S
C174 C173 1.397 . S
C174 C178 1.390 . S
C175 C173 1.361 . S
C175 C176 1.393 1_545 S
C175 N179 1.413 1_545 S
C176 H169 0.930 . S
C176 C175 1.393 1_565 S
C176 C177 1.399 1_565 S
C177 C176 1.399 1_545 S
C177 C178 1.381 . S
C178 H170 0.930 . S
C178 C174 1.390 . S
C178 C177 1.381 . S
N179 C172 1.286 . S
N179 C175 1.413 1_565 S
H180 C185 0.930 . S
H181 C188 0.930 1_556 S
H182 C190 0.930 1_556 S
H183 C184 1.016 . S
C184 H183 1.016 . S
C184 N191 1.286 . S
C185 H180 0.930 . S
C185 C186 1.397 . S
C185 C187 1.361 . S
C186 C185 1.397 . S
C186 C190 1.390 . S
C187 C185 1.361 . S
C187 C188 1.393 . S
C187 N191 1.413 . S
C188 H181 0.930 1_554 S
C188 C187 1.393 . S
C188 C189 1.399 1_554 S
C189 C188 1.399 1_556 S
C189 C190 1.381 1_556 S
C190 H182 0.930 1_554 S
C190 C186 1.390 . S
C190 C189 1.381 1_554 S
N191 C184 1.286 . S
N191 C187 1.413 . S
C6 C186 4.754 . S
C59 C160 2.373 . S
C86 C172 3.267 . S
C15 C184 2.783 . S
C162 C50 2.406 . S
C174 C95 2.060 . S
C46 C136 2.335 . S
C99 C150 5.128 . S
C10 C126 2.602 . S
C138 C55 2.320 . S
C148 C90 4.547 . S
C19 C124 2.475 . S
C153 C18 2.055 . S
C49 C129 1.100 . S
C98 C141 1.442 . S
C177 C58 1.371 . S
C189 C89 1.518 . S
C9 C165 1.177 . S
