# Generated by pormake.
# Topology rtl, (3,6)-cn, num edge types: 1
# Building blocks:
#     Node 0, Type 0, BuildingBlock: QEWDON_clean_linker_0, # of connection points: 3
#     Node 1, Type 0, BuildingBlock: QEWDON_clean_linker_0, # of connection points: 3
#     Node 2, Type 0, BuildingBlock: QEWDON_clean_linker_0, # of connection points: 3
#     Node 3, Type 0, BuildingBlock: QEWDON_clean_linker_0, # of connection points: 3
#     Node 4, Type 1, BuildingBlock: FUNLAD_clean_sbu_0, # of connection points: 6
#     Node 5, Type 1, BuildingBlock: FUNLAD_clean_sbu_0, # of connection points: 6
#     Edge 6, Type (0, 1), None
#     Edge 7, Type (0, 1), None
#     Edge 8, Type (0, 1), None
#     Edge 9, Type (0, 1), None
#     Edge 10, Type (0, 1), None
#     Edge 11, Type (0, 1), None
#     Edge 12, Type (0, 1), None
#     Edge 13, Type (0, 1), None
#     Edge 14, Type (0, 1), None
#     Edge 15, Type (0, 1), None
#     Edge 16, Type (0, 1), None
#     Edge 17, Type (0, 1), None
# Relax obj value: 0.012
# Max RMSD: 0.055
# Mean RMSD: 0.040
data_MOF--net-rtl--node1-FUNLAD_clean_sbu_0--node2-QEWDON_clean_linker_0--edge1-none
_symmetry_space_group_name_H-M    P1
_symmetry_Int_Tables_number       1
_symmetry_cell_setting            triclinic
loop_
_symmetry_equiv_pos_as_xyz
'x, y, z'
_cell_length_a     21.968028
_cell_length_b     21.558792
_cell_length_c     8.8140541
_cell_angle_alpha  94.974395
_cell_angle_beta   94.808698
_cell_angle_gamma 89.235866
loop_
_atom_site_label
_atom_site_type_symbol
_atom_site_fract_x
_atom_site_fract_y
_atom_site_fract_z
_atom_type_partial_charge
H0 H 0.19352 0.92599 0.22564 0.0
C1 C 0.16797 0.92757 0.11529 0.0
C2 C 0.10521 0.94202 0.10725 0.0
C3 C 0.1986 0.91988 0.9812 0.0
H4 H 0.02574 0.96223 0.95849 0.0
C5 C 0.07309 0.94693 0.96424 0.0
C6 C 0.10414 0.94233 0.8312 0.0
C7 C 0.16659 0.92835 0.84001 0.0
C8 C 0.26548 0.91149 0.9878 0.0
H9 H 0.19102 0.92723 0.73775 0.0
C10 C 0.29278 0.85471 0.02382 0.0
C11 C 0.35587 0.84437 0.01105 0.0
C12 C 0.30156 0.95909 0.94472 0.0
H13 H 0.2811 1.00303 0.91598 0.0
C14 C 0.36402 0.94997 0.93541 0.0
H15 H 0.26443 0.81845 0.05777 0.0
C16 C 0.39093 0.89299 0.9663 0.0
H17 H 0.43902 0.88677 0.95059 0.0
H18 H 0.39148 0.98668 0.90041 0.0
H19 H 0.69923 0.6528 0.36645 0.0
C20 C 0.6771 0.63942 0.46393 0.0
C21 C 0.62366 0.60351 0.44052 0.0
C22 C 0.70273 0.65607 0.61407 0.0
H23 H 0.5549 0.55658 0.54736 0.0
C24 C 0.59597 0.58457 0.5657 0.0
C25 C 0.62024 0.60185 0.71422 0.0
C26 C 0.673 0.63794 0.73876 0.0
C27 C 0.76248 0.68825 0.64333 0.0
H28 H 0.69124 0.6512 0.85503 0.0
C29 C 0.77681 0.73975 0.56435 0.0
C30 C 0.83412 0.76867 0.59599 0.0
C31 C 0.80607 0.6666 0.75319 0.0
H32 H 0.79688 0.62653 0.81368 0.0
C33 C 0.86237 0.6957 0.7853 0.0
H34 H 0.74397 0.75702 0.47909 0.0
C35 C 0.87638 0.74634 0.70742 0.0
H36 H 0.92061 0.76817 0.73387 0.0
H37 H 0.89542 0.67867 0.87023 0.0
H38 H 0.83616 0.1426 0.19463 0.0
C39 C 0.86208 0.14032 0.09488 0.0
C40 C 0.92382 0.12159 0.10689 0.0
C41 C 0.83276 0.15179 0.95178 0.0
H42 H 1.0027 0.09772 0.98333 0.0
C43 C 0.95627 0.11579 0.9758 0.0
C44 C 0.92658 0.12399 0.8319 0.0
C45 C 0.86505 0.14225 0.82054 0.0
C46 C 0.76606 0.16321 0.93335 0.0
H47 H 0.84138 0.14595 0.70858 0.0
C48 C 0.74006 0.22077 0.98346 0.0
C49 C 0.67679 0.23225 0.9522 0.0
C50 C 0.72856 0.11662 0.85555 0.0
H51 H 0.74781 0.07219 0.81584 0.0
C52 C 0.66622 0.12713 0.82635 0.0
H53 H 0.76927 0.2565 0.04382 0.0
C54 C 0.64057 0.18443 0.87264 0.0
H55 H 0.59241 0.19154 0.84194 0.0
H56 H 0.63776 0.09109 0.76481 0.0
H57 H 0.37882 0.38114 0.72034 0.0
C58 C 0.38367 0.40831 0.62416 0.0
C59 C 0.40845 0.46862 0.6492 0.0
C60 C 0.37074 0.38093 0.47437 0.0
H61 H 0.44219 0.5461 0.54188 0.0
C62 C 0.41895 0.50167 0.52325 0.0
C63 C 0.4094 0.47313 0.37423 0.0
C64 C 0.38389 0.41374 0.35055 0.0
C65 C 0.35624 0.31399 0.44479 0.0
H66 H 0.37876 0.39091 0.23552 0.0
C67 C 0.30126 0.28911 0.48436 0.0
C68 C 0.28783 0.22559 0.44519 0.0
C69 C 0.39772 0.27505 0.36826 0.0
H70 H 0.44032 0.29329 0.33744 0.0
C71 C 0.38452 0.21258 0.329 0.0
H72 H 0.26923 0.31894 0.54379 0.0
C73 C 0.32994 0.18808 0.36587 0.0
H74 H 0.32046 0.13954 0.33059 0.0
H75 H 0.41647 0.18314 0.26852 0.0
C76 C 0.07635 0.96683 0.24458 0.0
N77 N 0.12407 0.13004 0.50535 0.0
C78 C 0.17975 0.1037 0.53913 0.0
C79 C 0.23319 0.13653 0.53224 0.0
C80 C 0.23055 0.19672 0.48379 0.0
C81 C 0.17281 0.22458 0.45629 0.0
C82 C 0.11967 0.19011 0.46799 0.0
Zn83 Zn 0.05163 0.06822 0.48622 0.0
C84 C 0.9515 0.09545 0.24572 0.0
N85 N 0.91402 0.92488 0.43853 0.0
C86 C 0.93611 0.86666 0.40091 0.0
C87 C 0.85903 0.9326 0.4994 0.0
C88 C 0.82745 0.88077 0.53832 0.0
C89 C 0.85286 0.82106 0.51305 0.0
C90 C 0.90588 0.81415 0.43578 0.0
Zn91 Zn 0.97798 0.99568 0.45305 0.0
O92 O 0.0995 1.01419 0.32224 0.0
C93 C 0.07587 0.96892 0.69498 0.0
O94 O 0.02376 0.94881 0.27043 0.0
H95 H 0.84218 0.97891 0.53052 0.0
H96 H 0.18373 0.05552 0.56283 0.0
H97 H 0.98051 0.86018 0.3583 0.0
O98 O 0.09508 1.02074 0.66239 0.0
O99 O 0.02837 0.94538 0.6219 0.0
H100 H 0.07527 0.21023 0.43941 0.0
O101 O 0.93493 0.04618 0.63044 0.0
O102 O 1.00357 0.12104 0.65515 0.0
O103 O 0.92786 0.04712 0.28988 0.0
O104 O 1.00379 0.11415 0.30493 0.0
C105 C 0.95494 0.0978 0.69527 0.0
H106 H 0.27657 0.11342 0.55676 0.0
H107 H 0.16873 0.2709 0.41768 0.0
H108 H 0.78687 0.88774 0.59969 0.0
H109 H 0.92703 0.76878 0.416 0.0
C110 C 0.43846 0.49071 0.79973 0.0
N111 N 0.58952 0.40979 0.03439 0.0
C112 C 0.55815 0.35664 0.04593 0.0
C113 C 0.58685 0.29856 0.02824 0.0
C114 C 0.64828 0.2943 0.99362 0.0
C115 C 0.68017 0.35011 0.98776 0.0
C116 C 0.64995 0.40747 0.00963 0.0
Zn117 Zn 0.54239 0.49374 0.04178 0.0
C118 C 0.58918 0.58191 0.84163 0.0
N119 N 0.44293 0.66707 0.05331 0.0
C120 C 0.38221 0.66938 0.00828 0.0
C121 C 0.47518 0.72019 0.09427 0.0
C122 C 0.44682 0.77829 0.08873 0.0
C123 C 0.38486 0.78249 0.03542 0.0
C124 C 0.35232 0.72672 -0.00301 0.0
Zn125 Zn 0.48902 0.58338 0.04952 0.0
O126 O 0.48046 0.45731 0.85955 0.0
C127 C 0.44189 0.49627 0.25185 0.0
O128 O 0.43125 0.54662 0.85485 0.0
H129 H 0.5235 0.71782 0.12836 0.0
H130 H 0.51018 0.35893 0.06505 0.0
H131 H 0.35715 0.62674 0.97682 0.0
O132 O 0.48565 0.46365 0.20146 0.0
O133 O 0.43055 0.54979 0.20559 0.0
H134 H 0.67447 0.45008 0.00192 0.0
O135 O 0.54848 0.61695 0.23975 0.0
O136 O 0.60363 0.53117 0.22543 0.0
O137 O 0.54787 0.6164 0.8972 0.0
O138 O 0.5971 0.52685 0.88049 0.0
C139 C 0.59407 0.58534 0.2884 0.0
H140 H 0.56043 0.25732 0.03836 0.0
H141 H 0.72729 0.34972 0.96034 0.0
H142 H 0.47381 0.81948 0.12365 0.0
H143 H 0.3048 0.72698 0.9533 0.0
loop_
_geom_bond_atom_site_label_1
_geom_bond_atom_site_label_2
_geom_bond_distance
_geom_bond_site_symmetry_2
_ccdc_geom_bond_type
H0 C1 0.949 . S
C1 H0 0.949 . S
C1 C2 1.395 . S
C1 C3 1.391 1_554 S
C2 C1 1.395 . S
C2 C5 1.390 . S
C3 C1 1.391 1_556 S
C3 C7 1.387 . S
C3 C8 1.491 . S
H4 C5 0.950 . S
C5 C2 1.390 . S
C5 H4 0.950 . S
C5 C6 1.378 1_554 S
C6 C5 1.378 1_556 S
C6 C7 1.409 . S
C7 C3 1.387 . S
C7 C6 1.409 . S
C7 H9 0.951 . S
C8 C3 1.491 . S
C8 C10 1.382 1_556 S
C8 C12 1.404 . S
H9 C7 0.951 . S
C10 C8 1.382 1_554 S
C10 C11 1.390 . S
C10 H15 0.949 . S
C11 C10 1.390 . S
C11 C16 1.399 1_554 S
C12 C8 1.404 . S
C12 H13 0.950 . S
C12 C14 1.375 . S
H13 C12 0.950 . S
C14 C12 1.375 . S
C14 C16 1.382 . S
C14 H18 0.950 . S
H15 C10 0.949 . S
C16 C11 1.399 1_556 S
C16 C14 1.382 . S
C16 H17 0.952 . S
H17 C16 0.952 . S
H18 C14 0.950 . S
H19 C20 0.949 . S
C20 H19 0.949 . S
C20 C21 1.395 . S
C20 C22 1.391 . S
C21 C20 1.395 . S
C21 C24 1.390 . S
C22 C20 1.391 . S
C22 C26 1.387 . S
C22 C27 1.491 . S
H23 C24 0.950 . S
C24 C21 1.390 . S
C24 H23 0.950 . S
C24 C25 1.378 . S
C25 C24 1.378 . S
C25 C26 1.409 . S
C26 C22 1.387 . S
C26 C25 1.409 . S
C26 H28 0.951 . S
C27 C22 1.491 . S
C27 C29 1.382 . S
C27 C31 1.404 . S
H28 C26 0.951 . S
C29 C27 1.382 . S
C29 C30 1.390 . S
C29 H34 0.949 . S
C30 C29 1.390 . S
C30 C35 1.399 . S
C31 C27 1.404 . S
C31 H32 0.950 . S
C31 C33 1.375 . S
H32 C31 0.950 . S
C33 C31 1.375 . S
C33 C35 1.382 . S
C33 H37 0.950 . S
H34 C29 0.949 . S
C35 C30 1.399 . S
C35 C33 1.382 . S
C35 H36 0.952 . S
H36 C35 0.952 . S
H37 C33 0.950 . S
H38 C39 0.949 . S
C39 H38 0.949 . S
C39 C40 1.395 . S
C39 C41 1.391 1_554 S
C40 C39 1.395 . S
C40 C43 1.390 . S
C41 C39 1.391 1_556 S
C41 C45 1.387 . S
C41 C46 1.491 . S
H42 C43 0.950 . S
C43 C40 1.390 . S
C43 H42 0.950 . S
C43 C44 1.378 1_554 S
C44 C43 1.378 1_556 S
C44 C45 1.409 . S
C45 C41 1.387 . S
C45 C44 1.409 . S
C45 H47 0.951 . S
C46 C41 1.491 . S
C46 C48 1.382 1_556 S
C46 C50 1.404 . S
H47 C45 0.951 . S
C48 C46 1.382 1_554 S
C48 C49 1.390 . S
C48 H53 0.949 . S
C49 C48 1.390 . S
C49 C54 1.399 1_554 S
C50 C46 1.404 . S
C50 H51 0.950 . S
C50 C52 1.375 . S
H51 C50 0.950 . S
C52 C50 1.375 . S
C52 C54 1.382 . S
C52 H56 0.950 . S
H53 C48 0.949 . S
C54 C49 1.399 1_556 S
C54 C52 1.382 . S
C54 H55 0.952 . S
H55 C54 0.952 . S
H56 C52 0.950 . S
H57 C58 0.949 . S
C58 H57 0.949 . S
C58 C59 1.395 . S
C58 C60 1.391 . S
C59 C58 1.395 . S
C59 C62 1.390 . S
C60 C58 1.391 . S
C60 C64 1.387 . S
C60 C65 1.491 . S
H61 C62 0.950 . S
C62 C59 1.390 . S
C62 H61 0.950 . S
C62 C63 1.378 . S
C63 C62 1.378 . S
C63 C64 1.409 . S
C64 C60 1.387 . S
C64 C63 1.409 . S
C64 H66 0.951 . S
C65 C60 1.491 . S
C65 C67 1.382 . S
C65 C69 1.404 . S
H66 C64 0.951 . S
C67 C65 1.382 . S
C67 C68 1.390 . S
C67 H72 0.949 . S
C68 C67 1.390 . S
C68 C73 1.399 . S
C69 C65 1.404 . S
C69 H70 0.950 . S
C69 C71 1.375 . S
H70 C69 0.950 . S
C71 C69 1.375 . S
C71 C73 1.382 . S
C71 H75 0.950 . S
H72 C67 0.949 . S
C73 C68 1.399 . S
C73 C71 1.382 . S
C73 H74 0.952 . S
H74 C73 0.952 . S
H75 C71 0.950 . S
C76 O92 1.251 . S
C76 O94 1.254 . S
N77 C78 1.333 . S
N77 C82 1.307 . S
N77 Zn83 2.020 . S
C78 N77 1.333 . S
C78 C79 1.379 . S
C78 H96 0.952 . S
C79 C78 1.379 . S
C79 C80 1.390 . S
C79 H106 0.949 . S
C80 C79 1.390 . S
C80 C81 1.357 . S
C81 C80 1.357 . S
C81 C82 1.370 . S
C81 H107 0.950 . S
C82 N77 1.307 . S
C82 C81 1.370 . S
C82 H100 0.948 . S
Zn83 N77 2.020 . S
Zn83 O92 2.039 1_545 S
Zn83 O98 2.034 1_545 S
Zn83 O102 2.025 1_455 S
Zn83 O104 2.024 1_455 S
C84 O103 1.246 . S
C84 O104 1.249 . S
N85 C86 1.307 . S
N85 C87 1.333 . S
N85 Zn91 2.020 . S
C86 N85 1.307 . S
C86 C90 1.370 . S
C86 H97 0.948 . S
C87 N85 1.333 . S
C87 C88 1.379 . S
C87 H95 0.952 . S
C88 C87 1.379 . S
C88 C89 1.390 . S
C88 H108 0.949 . S
C89 C88 1.390 . S
C89 C90 1.357 . S
C90 C86 1.370 . S
C90 C89 1.357 . S
C90 H109 0.950 . S
Zn91 N85 2.020 . S
Zn91 O94 2.025 1_655 S
Zn91 O99 2.024 1_655 S
Zn91 O101 2.039 1_565 S
Zn91 O103 2.034 1_565 S
O92 C76 1.251 . S
O92 Zn83 2.039 1_565 S
C93 O98 1.246 . S
C93 O99 1.249 . S
O94 C76 1.254 . S
O94 Zn91 2.025 1_455 S
H95 C87 0.952 . S
H96 C78 0.952 . S
H97 C86 0.948 . S
O98 Zn83 2.034 1_565 S
O98 C93 1.246 . S
O99 Zn91 2.024 1_455 S
O99 C93 1.249 . S
H100 C82 0.948 . S
O101 Zn91 2.039 1_545 S
O101 C105 1.251 . S
O102 Zn83 2.025 1_655 S
O102 C105 1.254 . S
O103 C84 1.246 . S
O103 Zn91 2.034 1_545 S
O104 Zn83 2.024 1_655 S
O104 C84 1.249 . S
C105 O101 1.251 . S
C105 O102 1.254 . S
H106 C79 0.949 . S
H107 C81 0.950 . S
H108 C88 0.949 . S
H109 C90 0.950 . S
C110 O126 1.251 . S
C110 O128 1.254 . S
N111 C112 1.333 . S
N111 C116 1.307 . S
N111 Zn117 2.020 . S
C112 N111 1.333 . S
C112 C113 1.379 1_554 S
C112 H130 0.952 1_554 S
C113 C112 1.379 1_556 S
C113 C114 1.390 1_556 S
C113 H140 0.949 . S
C114 C113 1.390 1_554 S
C114 C115 1.357 . S
C115 C114 1.357 . S
C115 C116 1.370 . S
C115 H141 0.950 . S
C116 N111 1.307 . S
C116 C115 1.370 . S
C116 H134 0.948 . S
Zn117 N111 2.020 . S
Zn117 O126 2.039 1_554 S
Zn117 O132 2.034 . S
Zn117 O136 2.025 . S
Zn117 O138 2.024 1_554 S
C118 O137 1.246 . S
C118 O138 1.249 . S
N119 C120 1.307 . S
N119 C121 1.333 . S
N119 Zn125 2.020 . S
C120 N119 1.307 . S
C120 C124 1.370 . S
C120 H131 0.948 1_554 S
C121 N119 1.333 . S
C121 C122 1.379 . S
C121 H129 0.952 . S
C122 C121 1.379 . S
C122 C123 1.390 . S
C122 H142 0.949 . S
C123 C122 1.390 . S
C123 C124 1.357 . S
C124 C120 1.370 . S
C124 C123 1.357 . S
C124 H143 0.950 1_554 S
Zn125 N119 2.020 . S
Zn125 O128 2.025 1_554 S
Zn125 O133 2.024 . S
Zn125 O135 2.039 . S
Zn125 O137 2.034 1_554 S
O126 C110 1.251 . S
O126 Zn117 2.039 1_556 S
C127 O132 1.246 . S
C127 O133 1.249 . S
O128 C110 1.254 . S
O128 Zn125 2.025 1_556 S
H129 C121 0.952 . S
H130 C112 0.952 1_556 S
H131 C120 0.948 1_556 S
O132 Zn117 2.034 . S
O132 C127 1.246 . S
O133 Zn125 2.024 . S
O133 C127 1.249 . S
H134 C116 0.948 . S
O135 Zn125 2.039 . S
O135 C139 1.251 . S
O136 Zn117 2.025 . S
O136 C139 1.254 . S
O137 C118 1.246 . S
O137 Zn125 2.034 1_556 S
O138 Zn117 2.024 1_556 S
O138 C118 1.249 . S
C139 O135 1.251 . S
C139 O136 1.254 . S
H140 C113 0.949 . S
H141 C115 0.950 . S
H142 C122 0.949 . S
H143 C124 0.950 1_556 S
C80 C68 1.381 . S
C11 C123 1.377 . S
C30 C89 1.459 . S
C49 C114 1.408 . S
C76 C2 1.652 . S
C118 C25 1.676 . S
C40 C84 1.652 . S
C59 C110 1.623 . S
C139 C21 1.463 . S
C105 C44 1.513 . S
C127 C63 1.536 . S
C6 C93 1.539 . S
