# Generated by pormake.
# Topology anh, (6,3)-cn, num edge types: 1
# Building blocks:
#     Node 0, Type 0, BuildingBlock: VOLQOD_clean_sbu_1, # of connection points: 6
#     Node 1, Type 0, BuildingBlock: VOLQOD_clean_sbu_1, # of connection points: 6
#     Node 2, Type 0, BuildingBlock: VOLQOD_clean_sbu_1, # of connection points: 6
#     Node 3, Type 1, BuildingBlock: BETDIP_clean_linker_0, # of connection points: 3
#     Node 4, Type 1, BuildingBlock: BETDIP_clean_linker_0, # of connection points: 3
#     Node 5, Type 1, BuildingBlock: BETDIP_clean_linker_0, # of connection points: 3
#     Node 6, Type 1, BuildingBlock: BETDIP_clean_linker_0, # of connection points: 3
#     Node 7, Type 1, BuildingBlock: BETDIP_clean_linker_0, # of connection points: 3
#     Node 8, Type 1, BuildingBlock: BETDIP_clean_linker_0, # of connection points: 3
#     Edge 9, Type (0, 1), None
#     Edge 10, Type (0, 1), None
#     Edge 11, Type (0, 1), None
#     Edge 12, Type (0, 1), None
#     Edge 13, Type (0, 1), None
#     Edge 14, Type (0, 1), None
#     Edge 15, Type (0, 1), None
#     Edge 16, Type (0, 1), None
#     Edge 17, Type (0, 1), None
#     Edge 18, Type (0, 1), None
#     Edge 19, Type (0, 1), None
#     Edge 20, Type (0, 1), None
#     Edge 21, Type (0, 1), None
#     Edge 22, Type (0, 1), None
#     Edge 23, Type (0, 1), None
#     Edge 24, Type (0, 1), None
#     Edge 25, Type (0, 1), None
#     Edge 26, Type (0, 1), None
# Relax obj value: 0.181
# Max RMSD: 0.215
# Mean RMSD: 0.144
data_MOF--net-anh--node1-VOLQOD_clean_sbu_1--node2-BETDIP_clean_linker_0--edge1-none
_symmetry_space_group_name_H-M    P1
_symmetry_Int_Tables_number       1
_symmetry_cell_setting            triclinic
loop_
_symmetry_equiv_pos_as_xyz
'x, y, z'
_cell_length_a     13.594413
_cell_length_b     14.110186
_cell_length_c     25.233073
_cell_angle_alpha  94.560685
_cell_angle_beta   89.649713
_cell_angle_gamma 119.2208
loop_
_atom_site_label
_atom_site_type_symbol
_atom_site_fract_x
_atom_site_fract_y
_atom_site_fract_z
_atom_type_partial_charge
O0 O 0.02367 0.63049 0.30849 0.0
Zn1 Zn 0.02298 0.67685 0.23573 0.0
O2 O 0.03102 0.57529 0.18159 0.0
Zn3 Zn 0.8898 0.49121 0.14217 0.0
Zn4 Zn 0.07598 0.48109 0.2153 0.0
Zn5 Zn 0.13877 0.65905 0.13033 0.0
O6 O 0.90971 0.49746 0.06269 0.0
O7 O 0.07144 0.65126 0.05779 0.0
O8 O 0.88283 0.69124 0.22435 0.0
O9 O 0.79144 0.55586 0.16092 0.0
O10 O 0.81325 0.33567 0.16059 0.0
O11 O 0.94727 0.32565 0.20625 0.0
O12 O 0.21788 0.48933 0.18136 0.0
O13 O 0.16975 0.81853 0.23806 0.0
O14 O 0.23589 0.5935 0.11605 0.0
O15 O 0.24818 0.81017 0.16171 0.0
C16 C 0.06384 0.57425 0.32651 0.0
C17 C 0.98179 0.572 0.03585 0.0
C18 C 0.84794 0.28174 0.18537 0.0
C19 C 0.7974 0.63298 0.19294 0.0
C20 C 0.26474 0.53391 0.13932 0.0
C21 C 0.2519 0.85877 0.20699 0.0
O22 O 0.09698 0.51989 0.29574 0.0
O23 O 0.46256 0.04769 0.39478 0.0
Zn24 Zn 0.43673 0.03595 0.47271 0.0
O25 O 0.5589 0.02475 0.50642 0.0
Zn26 Zn 0.65174 0.15122 0.55402 0.0
Zn27 Zn 0.65047 0.00011 0.45374 0.0
Zn28 Zn 0.49321 0.90469 0.54978 0.0
O29 O 0.62833 0.12112 0.6317 0.0
O30 O 0.48352 0.95197 0.62522 0.0
O31 O 0.43075 0.17223 0.50425 0.0
O32 O 0.59634 0.25466 0.54918 0.0
O33 O 0.81359 0.23067 0.53184 0.0
O34 O 0.80611 0.1306 0.45755 0.0
O35 O 0.66701 0.86848 0.46971 0.0
O36 O 0.29097 0.89057 0.47213 0.0
O37 O 0.58513 0.83051 0.54792 0.0
O38 O 0.34141 0.79454 0.51993 0.0
C39 C 0.5188 0.02005 0.36283 0.0
C40 C 0.54922 0.04034 0.65262 0.0
C41 C 0.85925 0.21397 0.49049 0.0
C42 C 0.50906 0.25448 0.53173 0.0
C43 C 0.64356 0.8174 0.51162 0.0
C44 C 0.27034 0.80062 0.48993 0.0
O45 O 0.58778 -0.00938 0.37916 0.0
O46 O 0.42589 0.43502 0.70454 0.0
Zn47 Zn 0.38164 0.38506 0.7769 0.0
O48 O 0.49058 0.48943 0.83008 0.0
Zn49 Zn 0.42793 0.56911 0.8691 0.0
Zn50 Zn 0.63084 0.58587 0.79589 0.0
Zn51 Zn 0.51696 0.40837 0.8812 0.0
O52 O 0.43783 0.56143 0.94808 0.0
O53 O 0.45497 0.41362 0.95329 0.0
O54 O 0.22354 0.36398 0.78934 0.0
O55 O 0.2642 0.50297 0.84999 0.0
O56 O 0.50785 0.72522 0.85268 0.0
O57 O 0.65624 0.74075 0.80778 0.0
O58 O 0.7664 0.57769 0.82887 0.0
O59 O 0.39563 0.24787 0.77324 0.0
O60 O 0.68024 0.47716 0.89567 0.0
O61 O 0.47939 0.25864 0.85045 0.0
C62 C 0.52125 0.49334 0.68495 0.0
C63 C 0.43878 0.4892 0.97492 0.0
C64 C 0.59877 0.782 0.82922 0.0
C65 C 0.19393 0.42255 0.81914 0.0
C66 C 0.76911 0.5354 0.87153 0.0
C67 C 0.43849 0.21021 0.80476 0.0
O68 O 0.61094 0.54827 0.71447 0.0
H69 H 0.43713 -0.00504 0.15319 0.0
H70 H 0.67097 0.11709 0.28841 0.0
H71 H 0.31863 0.91247 0.31085 0.0
H72 H 0.79524 0.12574 0.21972 0.0
C73 C 0.7679 0.16858 0.19482 0.0
C74 C 0.45297 0.00187 0.19575 0.0
C75 C 0.36332 0.94549 0.22924 0.0
C76 C 0.56409 0.06417 0.21656 0.0
C77 C 0.58594 0.06909 0.2715 0.0
C78 C 0.49713 0.01575 0.3054 0.0
C79 C 0.38615 0.95653 0.28438 0.0
N80 N 0.65137 0.12506 0.18194 0.0
H81 H 0.54284 0.42146 0.47416 0.0
H82 H 0.59216 0.6453 0.61135 0.0
H83 H 0.47024 0.30641 0.62978 0.0
H84 H 0.74054 0.75758 0.55156 0.0
C85 C 0.68061 0.73789 0.51867 0.0
C86 C 0.53457 0.4362 0.51635 0.0
C87 C 0.49992 0.35109 0.54933 0.0
C88 C 0.56918 0.54275 0.53822 0.0
C89 C 0.56695 0.5637 0.5939 0.0
C90 C 0.52819 0.47764 0.62682 0.0
C91 C 0.49396 0.37189 0.6041 0.0
N92 N 0.60433 0.62671 0.50324 0.0
H93 H 0.90266 0.45927 0.82656 0.0
H94 H 0.07148 0.47585 0.97316 0.0
H95 H 0.85214 0.61352 0.97072 0.0
H96 H 0.01514 0.33924 0.79117 0.0
C97 C 0.07467 0.39269 0.82283 0.0
C98 C 0.92653 0.49171 0.86767 0.0
C99 C 0.87381 0.5457 0.89432 0.0
C100 C -0.00226 0.46622 0.89652 0.0
C101 C 0.0198 0.49914 0.95087 0.0
C102 C 0.97054 0.55518 0.97745 0.0
C103 C 0.89738 0.57801 0.94921 0.0
N104 N 0.03541 0.39427 0.87479 0.0
H105 H 0.15045 0.61052 0.53628 0.0
H106 H 0.98769 0.41047 0.39155 0.0
H107 H 0.18583 0.75748 0.38911 0.0
H108 H 0.00786 0.28285 0.44087 0.0
C109 C 0.97085 0.29902 0.47636 0.0
C110 C 0.13019 0.60341 0.49416 0.0
C111 C 0.17615 0.69701 0.46603 0.0
C112 C 0.06196 0.49982 0.46795 0.0
C113 C 0.04031 0.48969 0.4126 0.0
C114 C 0.08336 0.58283 0.38444 0.0
C115 C 0.14883 0.6862 0.41152 0.0
N116 N 0.01292 0.40805 0.49849 0.0
H117 H 0.47713 0.07149 0.86041 0.0
H118 H 0.58291 0.93555 0.72787 0.0
H119 H 0.47151 0.16488 0.70206 0.0
H120 H 0.70607 0.94213 0.79913 0.0
C121 C 0.63273 0.89603 0.82237 0.0
C122 C 0.48995 0.06456 0.81815 0.0
C123 C 0.46591 0.12507 0.78364 0.0
C124 C 0.53411 -0.00246 0.7986 0.0
C125 C 0.55203 -0.01076 0.74393 0.0
C126 C 0.53002 0.04985 0.7095 0.0
C127 C 0.48646 0.11692 0.72916 0.0
N128 N 0.5565 0.93619 0.83394 0.0
H129 H 0.47318 0.60423 0.18374 0.0
H130 H 0.62414 0.57747 0.03731 0.0
H131 H 0.26764 0.45685 0.03965 0.0
H132 H 0.69341 0.70825 0.22006 0.0
C133 C 0.70749 0.66071 0.18801 0.0
C134 C 0.46398 0.57187 0.14256 0.0
C135 C 0.35754 0.52198 0.11588 0.0
C136 C 0.5603 0.59262 0.11368 0.0
C137 C 0.54903 0.55834 0.05953 0.0
C138 C 0.44356 0.50652 0.03307 0.0
C139 C 0.34809 0.48928 0.0611 0.0
N140 N 0.67115 0.65906 0.13543 0.0
loop_
_geom_bond_atom_site_label_1
_geom_bond_atom_site_label_2
_geom_bond_distance
_geom_bond_site_symmetry_2
_ccdc_geom_bond_type
O0 Zn1 1.953 . S
O0 C16 1.225 . S
Zn1 O0 1.953 . S
Zn1 O2 1.949 . S
Zn1 O8 1.919 1_455 S
Zn1 O13 1.924 . S
O2 Zn1 1.949 . S
O2 Zn3 1.923 1_455 S
O2 Zn4 1.950 . S
O2 Zn5 1.945 . S
Zn3 O2 1.923 1_655 S
Zn3 O6 1.933 . S
Zn3 O9 1.941 . S
Zn3 O10 1.965 . S
Zn4 O2 1.950 . S
Zn4 O11 1.938 1_455 S
Zn4 O12 1.906 . S
Zn4 O22 1.953 . S
Zn5 O2 1.945 . S
Zn5 O7 1.932 . S
Zn5 O14 1.977 . S
Zn5 O15 1.910 . S
O6 Zn3 1.933 . S
O6 C17 1.226 1_655 S
O7 Zn5 1.932 . S
O7 C17 1.307 . S
O8 Zn1 1.919 1_655 S
O8 C19 1.253 . S
O9 Zn3 1.941 . S
O9 C19 1.283 . S
O10 Zn3 1.965 . S
O10 C18 1.303 . S
O11 Zn4 1.938 1_655 S
O11 C18 1.247 . S
O12 Zn4 1.906 . S
O12 C20 1.304 . S
O13 Zn1 1.924 . S
O13 C21 1.311 . S
O14 Zn5 1.977 . S
O14 C20 1.272 . S
O15 Zn5 1.910 . S
O15 C21 1.231 . S
C16 O0 1.225 . S
C16 O22 1.298 . S
C17 O6 1.226 1_455 S
C17 O7 1.307 . S
C18 O10 1.303 . S
C18 O11 1.247 . S
C19 O8 1.253 . S
C19 O9 1.283 . S
C20 O12 1.304 . S
C20 O14 1.272 . S
C21 O13 1.311 . S
C21 O15 1.231 . S
O22 Zn4 1.953 . S
O22 C16 1.298 . S
O23 Zn24 1.953 . S
O23 C39 1.225 . S
Zn24 O23 1.953 . S
Zn24 O25 1.949 . S
Zn24 O31 1.919 . S
Zn24 O36 1.924 1_545 S
O25 Zn24 1.949 . S
O25 Zn26 1.923 . S
O25 Zn27 1.950 . S
O25 Zn28 1.945 1_545 S
Zn26 O25 1.923 . S
Zn26 O29 1.933 . S
Zn26 O32 1.941 . S
Zn26 O33 1.965 . S
Zn27 O25 1.950 . S
Zn27 O34 1.938 . S
Zn27 O35 1.906 1_545 S
Zn27 O45 1.953 . S
Zn28 O25 1.945 1_565 S
Zn28 O30 1.932 . S
Zn28 O37 1.977 . S
Zn28 O38 1.910 . S
O29 Zn26 1.933 . S
O29 C40 1.226 . S
O30 Zn28 1.932 . S
O30 C40 1.307 1_565 S
O31 Zn24 1.919 . S
O31 C42 1.253 . S
O32 Zn26 1.941 . S
O32 C42 1.283 . S
O33 Zn26 1.965 . S
O33 C41 1.303 . S
O34 Zn27 1.938 . S
O34 C41 1.247 . S
O35 Zn27 1.906 1_565 S
O35 C43 1.304 . S
O36 Zn24 1.924 1_565 S
O36 C44 1.311 . S
O37 Zn28 1.977 . S
O37 C43 1.272 . S
O38 Zn28 1.910 . S
O38 C44 1.231 . S
C39 O23 1.225 . S
C39 O45 1.298 . S
C40 O29 1.226 . S
C40 O30 1.307 1_545 S
C41 O33 1.303 . S
C41 O34 1.247 . S
C42 O31 1.253 . S
C42 O32 1.283 . S
C43 O35 1.304 . S
C43 O37 1.272 . S
C44 O36 1.311 . S
C44 O38 1.231 . S
O45 Zn27 1.953 . S
O45 C39 1.298 . S
O46 Zn47 1.953 . S
O46 C62 1.225 . S
Zn47 O46 1.953 . S
Zn47 O48 1.949 . S
Zn47 O54 1.919 . S
Zn47 O59 1.924 . S
O48 Zn47 1.949 . S
O48 Zn49 1.923 . S
O48 Zn50 1.950 . S
O48 Zn51 1.945 . S
Zn49 O48 1.923 . S
Zn49 O52 1.933 . S
Zn49 O55 1.941 . S
Zn49 O56 1.965 . S
Zn50 O48 1.950 . S
Zn50 O57 1.938 . S
Zn50 O58 1.906 . S
Zn50 O68 1.953 . S
Zn51 O48 1.945 . S
Zn51 O53 1.932 . S
Zn51 O60 1.977 . S
Zn51 O61 1.910 . S
O52 Zn49 1.933 . S
O52 C63 1.226 . S
O53 Zn51 1.932 . S
O53 C63 1.307 . S
O54 Zn47 1.919 . S
O54 C65 1.253 . S
O55 Zn49 1.941 . S
O55 C65 1.283 . S
O56 Zn49 1.965 . S
O56 C64 1.303 . S
O57 Zn50 1.938 . S
O57 C64 1.247 . S
O58 Zn50 1.906 . S
O58 C66 1.304 . S
O59 Zn47 1.924 . S
O59 C67 1.311 . S
O60 Zn51 1.977 . S
O60 C66 1.272 . S
O61 Zn51 1.910 . S
O61 C67 1.231 . S
C62 O46 1.225 . S
C62 O68 1.298 . S
C63 O52 1.226 . S
C63 O53 1.307 . S
C64 O56 1.303 . S
C64 O57 1.247 . S
C65 O54 1.253 . S
C65 O55 1.283 . S
C66 O58 1.304 . S
C66 O60 1.272 . S
C67 O59 1.311 . S
C67 O61 1.231 . S
O68 Zn50 1.953 . S
O68 C62 1.298 . S
H69 C74 0.930 . S
H70 C77 0.930 . S
H71 C79 0.930 . S
H72 C73 1.016 . S
C73 H72 1.016 . S
C73 N80 1.286 . S
C74 H69 0.930 . S
C74 C75 1.397 . S
C74 C76 1.361 1_565 S
C75 C74 1.397 . S
C75 C79 1.390 . S
C76 C74 1.361 1_545 S
C76 C77 1.393 . S
C76 N80 1.413 . S
C77 H70 0.930 . S
C77 C76 1.393 . S
C77 C78 1.399 . S
C78 C77 1.399 . S
C78 C79 1.381 1_545 S
C79 H71 0.930 . S
C79 C75 1.390 . S
C79 C78 1.381 1_565 S
N80 C73 1.286 . S
N80 C76 1.413 . S
H81 C86 0.930 . S
H82 C89 0.930 . S
H83 C91 0.930 . S
H84 C85 1.016 . S
C85 H84 1.016 . S
C85 N92 1.286 . S
C86 H81 0.930 . S
C86 C87 1.397 . S
C86 C88 1.361 . S
C87 C86 1.397 . S
C87 C91 1.390 . S
C88 C86 1.361 . S
C88 C89 1.393 . S
C88 N92 1.413 . S
C89 H82 0.930 . S
C89 C88 1.393 . S
C89 C90 1.399 . S
C90 C89 1.399 . S
C90 C91 1.381 . S
C91 H83 0.930 . S
C91 C87 1.390 . S
C91 C90 1.381 . S
N92 C85 1.286 . S
N92 C88 1.413 . S
H93 C98 0.930 . S
H94 C101 0.930 . S
H95 C103 0.930 . S
H96 C97 1.016 . S
C97 H96 1.016 . S
C97 N104 1.286 . S
C98 H93 0.930 . S
C98 C99 1.397 . S
C98 C100 1.361 1_655 S
C99 C98 1.397 . S
C99 C103 1.390 . S
C100 C98 1.361 1_455 S
C100 C101 1.393 . S
C100 N104 1.413 . S
C101 H94 0.930 . S
C101 C100 1.393 . S
C101 C102 1.399 . S
C102 C101 1.399 . S
C102 C103 1.381 1_455 S
C103 H95 0.930 . S
C103 C99 1.390 . S
C103 C102 1.381 1_655 S
N104 C97 1.286 . S
N104 C100 1.413 . S
H105 C110 0.930 . S
H106 C113 0.930 . S
H107 C115 0.930 . S
H108 C109 1.016 . S
C109 H108 1.016 . S
C109 N116 1.286 . S
C110 H105 0.930 . S
C110 C111 1.397 . S
C110 C112 1.361 . S
C111 C110 1.397 . S
C111 C115 1.390 . S
C112 C110 1.361 . S
C112 C113 1.393 1_455 S
C112 N116 1.413 1_455 S
C113 H106 0.930 . S
C113 C112 1.393 1_655 S
C113 C114 1.399 1_655 S
C114 C113 1.399 1_455 S
C114 C115 1.381 . S
C115 H107 0.930 . S
C115 C111 1.390 . S
C115 C114 1.381 . S
N116 C109 1.286 . S
N116 C112 1.413 1_655 S
H117 C122 0.930 . S
H118 C125 0.930 1_565 S
H119 C127 0.930 . S
H120 C121 1.016 . S
C121 H120 1.016 . S
C121 N128 1.286 . S
C122 H117 0.930 . S
C122 C123 1.397 . S
C122 C124 1.361 . S
C123 C122 1.397 . S
C123 C127 1.390 . S
C124 C122 1.361 . S
C124 C125 1.393 . S
C124 N128 1.413 1_545 S
C125 H118 0.930 1_545 S
C125 C124 1.393 . S
C125 C126 1.399 . S
C126 C125 1.399 . S
C126 C127 1.381 . S
C127 H119 0.930 . S
C127 C123 1.390 . S
C127 C126 1.381 . S
N128 C121 1.286 . S
N128 C124 1.413 1_565 S
H129 C134 0.930 . S
H130 C137 0.930 . S
H131 C139 0.930 . S
H132 C133 1.016 . S
C133 H132 1.016 . S
C133 N140 1.286 . S
C134 H129 0.930 . S
C134 C135 1.397 . S
C134 C136 1.361 . S
C135 C134 1.397 . S
C135 C139 1.390 . S
C136 C134 1.361 . S
C136 C137 1.393 . S
C136 N140 1.413 . S
C137 H130 0.930 . S
C137 C136 1.393 . S
C137 C138 1.399 . S
C138 C137 1.399 . S
C138 C139 1.381 . S
C139 H131 0.930 . S
C139 C135 1.390 . S
C139 C138 1.381 . S
N140 C133 1.286 . S
N140 C136 1.413 . S
C20 C135 1.770 . S
C41 C109 1.544 . S
C64 C121 1.653 . S
C19 C133 1.388 . S
C111 C44 1.947 . S
C123 C67 1.791 . S
C43 C85 1.374 . S
C66 C99 1.768 . S
C21 C75 1.844 . S
C87 C42 1.796 . S
C97 C65 1.392 . S
C18 C73 1.609 . S
C102 C17 1.686 1_556 S
C39 C78 1.625 . S
C62 C90 1.596 . S
C126 C40 1.581 . S
C138 C63 1.683 1_554 S
C16 C114 1.554 . S
