# Generated by pormake.
# Topology tsx, (6,3)-cn, num edge types: 1
# Building blocks:
#     Node 0, Type 0, BuildingBlock: JUFBIX_clean_sbu_0, # of connection points: 6
#     Node 1, Type 0, BuildingBlock: JUFBIX_clean_sbu_0, # of connection points: 6
#     Node 2, Type 1, BuildingBlock: BETDIP_clean_linker_0, # of connection points: 3
#     Node 3, Type 1, BuildingBlock: BETDIP_clean_linker_0, # of connection points: 3
#     Node 4, Type 1, BuildingBlock: BETDIP_clean_linker_0, # of connection points: 3
#     Node 5, Type 1, BuildingBlock: BETDIP_clean_linker_0, # of connection points: 3
#     Edge 6, Type (0, 1), BuildingBlock: AJUNOK_clean_linker_0, # of connection points: 2
#     Edge 7, Type (0, 1), BuildingBlock: AJUNOK_clean_linker_0, # of connection points: 2
#     Edge 8, Type (0, 1), BuildingBlock: AJUNOK_clean_linker_0, # of connection points: 2
#     Edge 9, Type (0, 1), BuildingBlock: AJUNOK_clean_linker_0, # of connection points: 2
#     Edge 10, Type (0, 1), BuildingBlock: AJUNOK_clean_linker_0, # of connection points: 2
#     Edge 11, Type (0, 1), BuildingBlock: AJUNOK_clean_linker_0, # of connection points: 2
#     Edge 12, Type (0, 1), BuildingBlock: AJUNOK_clean_linker_0, # of connection points: 2
#     Edge 13, Type (0, 1), BuildingBlock: AJUNOK_clean_linker_0, # of connection points: 2
#     Edge 14, Type (0, 1), BuildingBlock: AJUNOK_clean_linker_0, # of connection points: 2
#     Edge 15, Type (0, 1), BuildingBlock: AJUNOK_clean_linker_0, # of connection points: 2
#     Edge 16, Type (0, 1), BuildingBlock: AJUNOK_clean_linker_0, # of connection points: 2
#     Edge 17, Type (0, 1), BuildingBlock: AJUNOK_clean_linker_0, # of connection points: 2
# Relax obj value: 0.106
# Max RMSD: 0.136
# Mean RMSD: 0.119
data_MOF--net-tsx--node1-JUFBIX_clean_sbu_0--node2-BETDIP_clean_linker_0--edge1-AJUNOK_clean_linker_0
_symmetry_space_group_name_H-M    P1
_symmetry_Int_Tables_number       1
_symmetry_cell_setting            triclinic
loop_
_symmetry_equiv_pos_as_xyz
'x, y, z'
_cell_length_a     15.237803
_cell_length_b     17.427913
_cell_length_c     25.054256
_cell_angle_alpha  91.258645
_cell_angle_beta   98.850012
_cell_angle_gamma 102.32981
loop_
_atom_site_label
_atom_site_type_symbol
_atom_site_fract_x
_atom_site_fract_y
_atom_site_fract_z
_atom_type_partial_charge
Co0 Co 0.06803 0.97457 0.96604 0.0
C1 C 0.98193 1.01795 0.86787 0.0
Co2 Co 0.98353 0.06219 -0.02715 0.0
C3 C 0.22293 0.89772 -0.03205 0.0
C4 C 0.09625 0.82948 0.92609 0.0
N5 N 0.1337 0.89872 0.95421 0.0
N6 N 0.24155 0.83013 0.94979 0.0
C7 C 0.16182 0.78727 0.92369 0.0
H8 H 0.27308 0.94551 -0.00949 0.0
H9 H 0.02576 0.81132 0.90721 0.0
C10 C 0.07032 1.0171 0.07032 0.0
N11 N 0.91364 0.13448 -0.0158 0.0
C12 C 0.89601 0.19535 0.955 0.0
C13 C 0.8633 0.13225 0.02424 0.0
N14 N 0.83578 0.23016 -0.02498 0.0
C15 C 0.81573 0.19096 0.01881 0.0
C16 C 0.88875 0.90831 -0.02286 0.0
O17 O 0.10098 0.97239 0.04083 0.0
O18 O 0.02052 0.06164 0.04877 0.0
O19 O 0.88129 0.97944 -0.02254 0.0
O20 O 0.96403 0.89309 -0.02996 0.0
O21 O 0.94859 0.06184 0.89661 0.0
H22 H 0.85998 0.08953 0.05496 0.0
H23 H 0.92448 0.21224 0.91887 0.0
O24 O 0.03404 0.97631 0.89073 0.0
O25 O 0.17191 0.05855 0.96444 0.0
O26 O 0.0857 0.14414 -0.03052 0.0
C27 C 0.16356 0.12978 -0.03264 0.0
H28 H 0.1524 0.73049 0.90258 0.0
H29 H 0.76978 0.20373 0.045 0.0
Co30 Co 0.59168 0.48983 0.47663 0.0
C31 C 0.50224 0.50147 0.37345 0.0
Co32 Co 0.47545 0.547 0.47424 0.0
C33 C 0.6928 0.37418 0.45298 0.0
C34 C 0.77327 0.46853 0.50726 0.0
N35 N 0.68923 0.44212 0.47854 0.0
N36 N 0.77592 0.35733 0.46455 0.0
C37 C 0.82658 0.4164 0.49887 0.0
H38 H 0.63503 0.33728 0.42721 0.0
H39 H 0.79433 0.52227 0.53275 0.0
C40 C 0.5657 0.53606 0.57706 0.0
N41 N 0.37935 0.59685 0.47451 0.0
C42 C 0.37576 0.66964 0.45842 0.0
C43 C 0.30239 0.57237 0.49551 0.0
N44 N 0.30067 0.69226 0.46912 0.0
C45 C 0.25349 0.63048 0.49174 0.0
C46 C 0.42764 0.38672 0.48229 0.0
O47 O 0.61794 0.50644 0.55214 0.0
O48 O 0.49716 0.55615 0.55049 0.0
O49 O 0.39717 0.4487 0.47588 0.0
O50 O 0.51253 0.3907 0.48461 0.0
O51 O 0.45456 0.53783 0.39779 0.0
H52 H 0.28348 0.51642 0.51323 0.0
H53 H 0.42846 0.70636 0.4402 0.0
O54 O 0.56468 0.47376 0.40071 0.0
O55 O 0.66985 0.58945 0.46957 0.0
O56 O 0.5548 0.64456 0.47317 0.0
C57 C 0.63821 0.65116 0.47057 0.0
H58 H 0.89748 0.42194 0.5161 0.0
H59 H 0.18769 0.62659 0.50395 0.0
H60 H 0.11883 1.01062 0.45791 0.0
H61 H 1.00907 0.08219 0.30453 0.0
H62 H 0.17898 0.91661 0.31022 0.0
H63 H 0.8834 0.07123 0.34655 0.0
C64 C 0.91613 0.10288 0.38471 0.0
C65 C 0.11097 1.00467 0.41464 0.0
C66 C 0.15581 0.95493 0.38896 0.0
C67 C 0.05368 0.0468 0.38429 0.0
C68 C 0.04923 0.04669 0.3281 0.0
C69 C 0.09633 1.0011 0.30183 0.0
C70 C 0.14689 0.95407 0.332 0.0
N71 N 1.00078 0.08896 0.41063 0.0
H72 H 0.95543 0.98477 0.48063 0.0
H73 H 0.06974 0.10286 0.63642 0.0
H74 H 0.83841 0.90904 0.62116 0.0
H75 H 0.20501 0.10104 0.59226 0.0
C76 C 0.17867 0.12781 0.55621 0.0
C77 C 0.95457 0.99134 0.52352 0.0
C78 C 0.88867 0.94034 0.54681 0.0
C79 C 0.02068 0.04932 0.5557 0.0
C80 C 0.01908 0.05793 0.61138 0.0
C81 C 0.95259 1.00783 0.63488 0.0
C82 C 0.88812 0.94915 0.60253 0.0
N83 N 0.08704 0.09936 0.53103 0.0
H84 H 0.64449 0.52328 0.96284 0.0
H85 H 0.57816 0.65286 0.82394 0.0
H86 H 0.71044 0.46053 0.80986 0.0
H87 H 0.60797 0.75535 0.89668 0.0
C88 C 0.55928 0.71941 0.91844 0.0
C89 C 0.64683 0.53492 0.92085 0.0
C90 C 0.68705 0.48835 0.8898 0.0
C91 C 0.61046 0.59641 0.89781 0.0
C92 C 0.60972 0.60788 0.84266 0.0
C93 C 0.6427 0.5574 0.81048 0.0
C94 C 0.68485 0.49989 0.8346 0.0
N95 N 0.56665 0.64098 0.92894 0.0
H96 H 0.48694 0.46301 -0.01286 0.0
H97 H 0.56561 0.59036 0.14252 0.0
H98 H 0.39099 0.3603 0.12805 0.0
H99 H 0.57386 0.69731 0.08552 0.0
C100 C 0.6141 0.67559 0.05883 0.0
C101 C 0.48415 0.46668 0.03005 0.0
C102 C 0.43336 0.40327 0.05381 0.0
C103 C 0.53165 0.53481 0.06181 0.0
C104 C 0.52716 0.53935 0.11724 0.0
C105 C 0.4767 0.47652 0.14104 0.0
C106 C 0.43063 0.40858 0.10943 0.0
N107 N 0.58785 0.59593 0.0381 0.0
C108 C 0.23617 0.27165 0.96231 0.0
C109 C 0.24432 0.1959 -0.02222 0.0
C110 C 0.30261 0.33874 -0.0167 0.0
C111 C 0.37827 0.33238 0.02139 0.0
H112 H 0.17554 0.27948 0.93612 0.0
H113 H 0.29118 0.3962 -0.02717 0.0
S114 S 0.43636 0.14777 0.07107 0.0
N115 N 0.33907 0.11838 0.02936 0.0
N116 N 0.46178 0.2447 0.07036 0.0
C117 C 0.39006 0.25691 0.03463 0.0
C118 C 0.32375 0.18853 0.01225 0.0
C119 C 0.333 0.72939 0.9602 0.0
C120 C 0.32783 0.80805 0.95207 0.0
C121 C 0.41013 0.70181 0.95219 0.0
C122 C 0.48453 0.75179 0.93494 0.0
H123 H 0.27528 0.68815 -0.0291 0.0
H124 H 0.40932 0.64008 0.95713 0.0
S125 S 0.50918 0.96475 0.91358 0.0
N126 N 0.40688 0.93708 0.93041 0.0
N127 N 0.55195 0.88519 0.91479 0.0
C128 C 0.48255 0.83162 0.92976 0.0
C129 C 0.40424 0.85989 0.93855 0.0
C130 C 0.74089 0.86694 0.01173 0.0
C131 C 0.81566 0.846 -0.00708 0.0
C132 C 0.67707 0.81156 0.03371 0.0
C133 C 0.68443 0.73279 0.03685 0.0
H134 H 0.73248 0.9271 0.01075 0.0
H135 H 0.62081 0.83038 0.04776 0.0
S136 S 0.86802 0.64721 -0.00486 0.0
N137 N 0.89323 0.74009 -0.02026 0.0
N138 N 0.77375 0.63686 0.02163 0.0
C139 C 0.75837 0.7107 0.01827 0.0
C140 C 0.8236 0.767 -0.00403 0.0
C141 C 0.85351 0.35955 0.93468 0.0
C142 C 0.7978 0.29405 0.95345 0.0
C143 C 0.81756 0.42312 0.9149 0.0
C144 C 0.72492 0.42311 0.91346 0.0
H145 H 0.92538 0.36191 0.93592 0.0
H146 H 0.86236 0.47264 0.90071 0.0
S147 S 0.54864 0.26164 0.95098 0.0
N148 N 0.64407 0.23026 0.96471 0.0
N149 N 0.57713 0.35022 0.92823 0.0
C150 C 0.66833 0.35752 0.93106 0.0
C151 C 0.70464 0.2928 0.95089 0.0
C152 C 0.66942 0.79173 0.50222 0.0
C153 C 0.69874 0.73016 0.47783 0.0
C154 C 0.73025 0.86245 0.5207 0.0
C155 C 0.82222 0.87477 0.51475 0.0
H156 H 0.60043 0.78359 0.51057 0.0
H157 H 0.70626 0.90619 0.54248 0.0
S158 S 0.92792 0.73937 0.44252 0.0
N159 N 0.82196 0.69056 0.44114 0.0
N160 N 0.93596 0.82507 0.47453 0.0
C161 C 0.85001 0.81723 0.48518 0.0
C162 C 0.78834 0.74434 0.46717 0.0
C163 C 0.86626 0.25575 0.47909 0.0
C164 C 0.8058 0.29073 0.44473 0.0
C165 C 0.90011 0.19352 0.46001 0.0
C166 C 0.8756 0.1648 0.40575 0.0
H167 H 0.88742 0.27665 0.52107 0.0
H168 H 0.94584 0.16809 0.48796 0.0
S169 S 0.71945 0.23579 0.29933 0.0
N170 N 0.72252 0.29171 0.35395 0.0
N171 N 0.78602 0.17453 0.31813 0.0
C172 C 0.8137 0.19798 0.37128 0.0
C173 C 0.77898 0.26116 0.39072 0.0
C174 C 0.39684 0.26153 0.52968 0.0
C175 C 0.36533 0.31372 0.49331 0.0
C176 C 0.33564 0.20043 0.54882 0.0
C177 C 0.24121 0.18883 0.53165 0.0
H178 H 0.46872 0.27038 0.54567 0.0
H179 H 0.36231 0.1631 0.57825 0.0
S180 S 0.12524 0.30562 0.4329 0.0
N181 N 0.23447 0.34673 0.4379 0.0
N182 N 0.11984 0.23244 0.4738 0.0
C183 C 0.20938 0.23838 0.49325 0.0
C184 C 0.27145 0.3007 0.47407 0.0
C185 C 0.30551 0.80644 0.41236 0.0
C186 C 0.27516 0.76561 0.45607 0.0
C187 C 0.27428 0.87295 0.3953 0.0
C188 C 0.2069 0.8995 0.41896 0.0
H189 H 0.35133 0.7855 0.38954 0.0
H190 H 0.30126 0.90157 0.36158 0.0
S191 S 0.13237 0.82975 0.54796 0.0
N192 N 0.19617 0.76966 0.53278 0.0
N193 N 0.13066 0.89062 0.49848 0.0
C194 C 0.18454 0.86461 0.46705 0.0
C195 C 0.21934 0.79813 0.48562 0.0
C196 C 0.10181 0.0806 0.16276 0.0
C197 C 0.08409 1.01194 0.12904 0.0
C198 C 0.10716 0.0764 0.21876 0.0
C199 C 0.09291 1.00333 0.24261 0.0
H200 H 0.11133 0.13782 0.14568 0.0
H201 H 0.12211 0.13076 0.24356 0.0
S202 S 0.0366 0.80639 0.17047 0.0
N203 N 0.04948 0.86907 0.12232 0.0
N204 N 0.05546 0.86073 0.22762 0.0
C205 C 0.07428 0.93416 0.20901 0.0
C206 C 0.07079 0.9386 0.15212 0.0
C207 C 0.96893 0.94732 0.77909 0.0
C208 C 0.96469 1.01593 0.80831 0.0
C209 C 0.96319 0.94514 0.72291 0.0
C210 C 0.95438 1.01183 0.69393 0.0
H211 H 0.97806 0.89502 0.79991 0.0
H212 H 0.96803 0.89141 0.70207 0.0
S213 S 0.93687 0.2051 0.75071 0.0
N214 N 0.94795 0.15148 0.80391 0.0
N215 N 0.93837 0.14749 0.69772 0.0
C216 C 0.94832 0.08044 0.72227 0.0
C217 C 0.95282 0.08237 0.77964 0.0
C218 C 0.67339 0.55042 0.66378 0.0
C219 C 0.58453 0.54616 0.63634 0.0
C220 C 0.69252 0.55651 0.72027 0.0
C221 C 0.62333 0.55819 0.75106 0.0
H222 H 0.72856 0.54871 0.64148 0.0
H223 H 0.76162 0.55908 0.74002 0.0
S224 S 0.37873 0.54498 0.69863 0.0
N225 N 0.42659 0.54292 0.64399 0.0
N226 N 0.46207 0.55238 0.75033 0.0
C227 C 0.53424 0.55427 0.72412 0.0
C228 C 0.51495 0.54877 0.66665 0.0
C229 C 0.51699 0.43237 0.28842 0.0
C230 C 0.488 0.49313 0.31392 0.0
C231 C 0.51023 0.4259 0.23214 0.0
C232 C 0.4757 0.48071 0.19966 0.0
H233 H 0.54595 0.38986 0.31211 0.0
H234 H 0.53467 0.37914 0.21402 0.0
S235 S 0.38777 0.64881 0.24586 0.0
N236 N 0.42039 0.6075 0.30203 0.0
N237 N 0.40928 0.59571 0.196 0.0
C238 C 0.44488 0.54077 0.2243 0.0
C239 C 0.45047 0.5468 0.28156 0.0
loop_
_geom_bond_atom_site_label_1
_geom_bond_atom_site_label_2
_geom_bond_distance
_geom_bond_site_symmetry_2
_ccdc_geom_bond_type
Co0 N5 2.062 . S
Co0 O17 2.021 . S
Co0 O20 2.062 1_455 S
Co0 O24 2.117 1_554 S
Co0 O25 2.020 1_565 S
C1 O21 1.259 1_455 S
C1 O24 1.259 1_545 S
Co2 N11 2.057 1_556 S
Co2 O18 2.118 1_556 S
Co2 O19 2.020 1_545 S
Co2 O21 2.021 . S
Co2 O26 2.062 1_656 S
C3 N5 1.327 . S
C3 N6 1.347 . S
C3 H8 0.931 . S
C4 N5 1.358 1_556 S
C4 C7 1.350 . S
C4 H9 0.930 . S
N5 Co0 2.062 . S
N5 C3 1.327 . S
N5 C4 1.358 1_554 S
N6 C3 1.347 . S
N6 C7 1.373 1_554 S
C7 C4 1.350 . S
C7 N6 1.373 1_556 S
C7 H28 0.931 . S
H8 C3 0.931 . S
H9 C4 0.930 . S
C10 O17 1.259 1_545 S
C10 O18 1.254 1_455 S
N11 Co2 2.057 1_554 S
N11 C12 1.316 1_554 S
N11 C13 1.375 . S
C12 N11 1.316 1_556 S
C12 N14 1.347 1_556 S
C12 H23 0.931 . S
C13 N11 1.375 . S
C13 C15 1.350 . S
C13 H22 0.930 . S
N14 C12 1.347 1_554 S
N14 C15 1.373 . S
C15 C13 1.350 . S
C15 N14 1.373 . S
C15 H29 0.931 . S
C16 O19 1.256 1_554 S
C16 O20 1.255 . S
O17 Co0 2.021 . S
O17 C10 1.259 1_565 S
O18 Co2 2.118 1_554 S
O18 C10 1.254 1_655 S
O19 Co2 2.020 1_565 S
O19 C16 1.256 1_556 S
O20 Co0 2.062 1_655 S
O20 C16 1.255 . S
O21 C1 1.259 1_655 S
O21 Co2 2.021 . S
H22 C13 0.930 . S
H23 C12 0.931 . S
O24 Co0 2.117 1_556 S
O24 C1 1.259 1_565 S
O25 Co0 2.020 1_545 S
O25 C27 1.256 . S
O26 Co2 2.062 1_454 S
O26 C27 1.255 . S
C27 O25 1.256 . S
C27 O26 1.255 . S
H28 C7 0.931 . S
H29 C15 0.931 . S
Co30 N35 2.057 . S
Co30 O47 2.021 . S
Co30 O50 2.062 . S
Co30 O54 2.117 . S
Co30 O55 2.020 . S
C31 O51 1.259 . S
C31 O54 1.258 . S
Co32 N41 2.057 . S
Co32 O48 2.117 . S
Co32 O49 2.020 . S
Co32 O51 2.021 . S
Co32 O56 2.062 . S
C33 N35 1.316 . S
C33 N36 1.347 . S
C33 H38 0.931 . S
C34 N35 1.375 . S
C34 C37 1.350 . S
C34 H39 0.930 . S
N35 Co30 2.057 . S
N35 C33 1.316 . S
N35 C34 1.375 . S
N36 C33 1.347 . S
N36 C37 1.373 . S
C37 C34 1.350 . S
C37 N36 1.373 . S
C37 H58 0.931 . S
H38 C33 0.931 . S
H39 C34 0.930 . S
C40 O47 1.259 . S
C40 O48 1.258 . S
N41 Co32 2.057 . S
N41 C42 1.316 . S
N41 C43 1.375 . S
C42 N41 1.316 . S
C42 N44 1.347 . S
C42 H53 0.931 . S
C43 N41 1.375 . S
C43 C45 1.350 . S
C43 H52 0.930 . S
N44 C42 1.347 . S
N44 C45 1.373 . S
C45 C43 1.350 . S
C45 N44 1.373 . S
C45 H59 0.931 . S
C46 O49 1.256 . S
C46 O50 1.255 . S
O47 Co30 2.021 . S
O47 C40 1.259 . S
O48 Co32 2.117 . S
O48 C40 1.258 . S
O49 Co32 2.020 . S
O49 C46 1.256 . S
O50 Co30 2.062 . S
O50 C46 1.255 . S
O51 C31 1.259 . S
O51 Co32 2.021 . S
H52 C43 0.930 . S
H53 C42 0.931 . S
O54 Co30 2.117 . S
O54 C31 1.258 . S
O55 Co30 2.020 . S
O55 C57 1.256 . S
O56 Co32 2.062 . S
O56 C57 1.255 . S
C57 O55 1.256 . S
C57 O56 1.255 . S
H58 C37 0.931 . S
H59 C45 0.931 . S
H60 C65 0.930 . S
H61 C68 0.930 1_655 S
H62 C70 0.930 . S
H63 C64 1.016 . S
C64 H63 1.016 . S
C64 N71 1.286 . S
C65 H60 0.930 . S
C65 C66 1.397 . S
C65 C67 1.361 1_565 S
C66 C65 1.397 . S
C66 C70 1.390 . S
C67 C65 1.361 1_545 S
C67 C68 1.393 . S
C67 N71 1.413 1_455 S
C68 H61 0.930 1_455 S
C68 C67 1.393 . S
C68 C69 1.399 1_545 S
C69 C68 1.399 1_565 S
C69 C70 1.381 . S
C70 H62 0.930 . S
C70 C66 1.390 . S
C70 C69 1.381 . S
N71 C64 1.286 . S
N71 C67 1.413 1_655 S
H72 C77 0.930 . S
H73 C80 0.930 . S
H74 C82 0.930 . S
H75 C76 1.016 . S
C76 H75 1.016 . S
C76 N83 1.286 . S
C77 H72 0.930 . S
C77 C78 1.397 . S
C77 C79 1.361 1_665 S
C78 C77 1.397 . S
C78 C82 1.390 . S
C79 C77 1.361 1_445 S
C79 C80 1.393 . S
C79 N83 1.413 . S
C80 H73 0.930 . S
C80 C79 1.393 . S
C80 C81 1.399 1_445 S
C81 C80 1.399 1_665 S
C81 C82 1.381 . S
C82 H74 0.930 . S
C82 C78 1.390 . S
C82 C81 1.381 . S
N83 C76 1.286 . S
N83 C79 1.413 . S
H84 C89 0.930 1_554 S
H85 C92 0.930 . S
H86 C94 0.930 . S
H87 C88 1.016 . S
C88 H87 1.016 . S
C88 N95 1.286 . S
C89 H84 0.930 1_556 S
C89 C90 1.397 . S
C89 C91 1.361 . S
C90 C89 1.397 . S
C90 C94 1.390 . S
C91 C89 1.361 . S
C91 C92 1.393 . S
C91 N95 1.413 . S
C92 H85 0.930 . S
C92 C91 1.393 . S
C92 C93 1.399 . S
C93 C92 1.399 . S
C93 C94 1.381 . S
C94 H86 0.930 . S
C94 C90 1.390 . S
C94 C93 1.381 . S
N95 C88 1.286 . S
N95 C91 1.413 . S
H96 C101 0.930 1_556 S
H97 C104 0.930 . S
H98 C106 0.930 . S
H99 C100 1.016 . S
C100 H99 1.016 . S
C100 N107 1.286 . S
C101 H96 0.930 1_554 S
C101 C102 1.397 . S
C101 C103 1.361 . S
C102 C101 1.397 . S
C102 C106 1.390 . S
C103 C101 1.361 . S
C103 C104 1.393 . S
C103 N107 1.413 . S
C104 H97 0.930 . S
C104 C103 1.393 . S
C104 C105 1.399 . S
C105 C104 1.399 . S
C105 C106 1.381 . S
C106 H98 0.930 . S
C106 C102 1.390 . S
C106 C105 1.381 . S
N107 C100 1.286 . S
N107 C103 1.413 . S
C108 C109 1.369 . S
C108 C110 1.419 . S
C108 H112 0.930 1_554 S
C109 C108 1.369 . S
C109 C118 1.429 . S
C110 C108 1.419 . S
C110 C111 1.363 . S
C110 H113 0.929 1_554 S
C111 C110 1.363 . S
C111 C117 1.428 . S
H112 C108 0.930 1_556 S
H113 C110 0.929 1_556 S
S114 N115 1.613 . S
S114 N116 1.610 . S
N115 S114 1.613 . S
N115 C118 1.350 . S
N116 S114 1.610 . S
N116 C117 1.351 . S
C117 C111 1.428 . S
C117 N116 1.351 . S
C117 C118 1.434 . S
C118 C109 1.429 . S
C118 N115 1.350 . S
C118 C117 1.434 . S
C119 C120 1.369 . S
C119 C121 1.419 . S
C119 H123 0.930 . S
C120 C119 1.369 . S
C120 C129 1.429 1_554 S
C121 C119 1.419 . S
C121 C122 1.363 . S
C121 H124 0.929 . S
C122 C121 1.363 . S
C122 C128 1.428 1_554 S
H123 C119 0.930 . S
H124 C121 0.929 . S
S125 N126 1.613 . S
S125 N127 1.610 . S
N126 S125 1.613 . S
N126 C129 1.350 . S
N127 S125 1.610 . S
N127 C128 1.351 . S
C128 C122 1.428 1_556 S
C128 N127 1.351 . S
C128 C129 1.434 . S
C129 C120 1.429 1_556 S
C129 N126 1.350 . S
C129 C128 1.434 . S
C130 C131 1.373 . S
C130 C132 1.419 . S
C130 H134 0.930 . S
C131 C130 1.373 . S
C131 C140 1.426 1_554 S
C132 C130 1.419 . S
C132 C133 1.363 . S
C132 H135 0.929 . S
C133 C132 1.363 . S
C133 C139 1.428 1_554 S
H134 C130 0.930 . S
H135 C132 0.929 . S
S136 N137 1.613 . S
S136 N138 1.610 . S
N137 S136 1.613 . S
N137 C140 1.350 . S
N138 S136 1.610 . S
N138 C139 1.351 . S
C139 C133 1.428 1_556 S
C139 N138 1.351 . S
C139 C140 1.434 . S
C140 C131 1.426 1_556 S
C140 N137 1.350 . S
C140 C139 1.434 . S
C141 C142 1.369 . S
C141 C143 1.419 . S
C141 H145 0.930 . S
C142 C141 1.369 . S
C142 C151 1.429 1_556 S
C143 C141 1.419 . S
C143 C144 1.363 . S
C143 H146 0.929 . S
C144 C143 1.363 . S
C144 C150 1.428 1_556 S
H145 C141 0.930 . S
H146 C143 0.929 . S
S147 N148 1.613 . S
S147 N149 1.610 . S
N148 S147 1.613 . S
N148 C151 1.350 . S
N149 S147 1.610 . S
N149 C150 1.351 . S
C150 C144 1.428 1_554 S
C150 N149 1.351 . S
C150 C151 1.434 . S
C151 C142 1.429 1_554 S
C151 N148 1.350 . S
C151 C150 1.434 . S
C152 C153 1.369 . S
C152 C154 1.419 . S
C152 H156 0.930 . S
C153 C152 1.369 . S
C153 C162 1.429 . S
C154 C152 1.419 . S
C154 C155 1.363 . S
C154 H157 0.929 . S
C155 C154 1.363 . S
C155 C161 1.428 . S
H156 C152 0.930 . S
H157 C154 0.929 . S
S158 N159 1.613 . S
S158 N160 1.610 . S
N159 S158 1.613 . S
N159 C162 1.350 . S
N160 S158 1.610 . S
N160 C161 1.351 . S
C161 C155 1.428 . S
C161 N160 1.351 . S
C161 C162 1.434 . S
C162 C153 1.429 . S
C162 N159 1.350 . S
C162 C161 1.434 . S
C163 C164 1.369 . S
C163 C165 1.419 . S
C163 H167 0.930 . S
C164 C163 1.369 . S
C164 C173 1.429 . S
C165 C163 1.419 . S
C165 C166 1.363 . S
C165 H168 0.929 . S
C166 C165 1.363 . S
C166 C172 1.428 . S
H167 C163 0.930 . S
H168 C165 0.929 . S
S169 N170 1.613 . S
S169 N171 1.610 . S
N170 S169 1.613 . S
N170 C173 1.350 . S
N171 S169 1.610 . S
N171 C172 1.351 . S
C172 C166 1.428 . S
C172 N171 1.351 . S
C172 C173 1.434 . S
C173 C164 1.429 . S
C173 N170 1.350 . S
C173 C172 1.434 . S
C174 C175 1.369 . S
C174 C176 1.419 . S
C174 H178 0.930 . S
C175 C174 1.369 . S
C175 C184 1.429 . S
C176 C174 1.419 . S
C176 C177 1.363 . S
C176 H179 0.929 . S
C177 C176 1.363 . S
C177 C183 1.428 . S
H178 C174 0.930 . S
H179 C176 0.929 . S
S180 N181 1.613 . S
S180 N182 1.610 . S
N181 S180 1.613 . S
N181 C184 1.350 . S
N182 S180 1.610 . S
N182 C183 1.351 . S
C183 C177 1.428 . S
C183 N182 1.351 . S
C183 C184 1.434 . S
C184 C175 1.429 . S
C184 N181 1.350 . S
C184 C183 1.434 . S
C185 C186 1.369 . S
C185 C187 1.419 . S
C185 H189 0.930 . S
C186 C185 1.369 . S
C186 C195 1.429 . S
C187 C185 1.419 . S
C187 C188 1.363 . S
C187 H190 0.929 . S
C188 C187 1.363 . S
C188 C194 1.428 . S
H189 C185 0.930 . S
H190 C187 0.929 . S
S191 N192 1.613 . S
S191 N193 1.610 . S
N192 S191 1.613 . S
N192 C195 1.350 . S
N193 S191 1.610 . S
N193 C194 1.351 . S
C194 C188 1.428 . S
C194 N193 1.351 . S
C194 C195 1.434 . S
C195 C186 1.429 . S
C195 N192 1.350 . S
C195 C194 1.434 . S
C196 C197 1.369 . S
C196 C198 1.419 . S
C196 H200 0.930 1_455 S
C197 C196 1.369 . S
C197 C206 1.429 1_545 S
C198 C196 1.419 . S
C198 C199 1.363 1_545 S
C198 H201 0.929 1_455 S
C199 C198 1.363 1_565 S
C199 C205 1.428 . S
H200 C196 0.930 1_655 S
H201 C198 0.929 1_655 S
S202 N203 1.613 . S
S202 N204 1.610 . S
N203 S202 1.613 . S
N203 C206 1.350 . S
N204 S202 1.610 . S
N204 C205 1.351 . S
C205 C199 1.428 . S
C205 N204 1.351 . S
C205 C206 1.434 . S
C206 C197 1.429 1_565 S
C206 N203 1.350 . S
C206 C205 1.434 . S
C207 C208 1.371 1_565 S
C207 C209 1.419 . S
C207 H211 0.930 . S
C208 C207 1.371 1_545 S
C208 C217 1.425 1_655 S
C209 C207 1.419 . S
C209 C210 1.363 . S
C209 H212 0.929 . S
C210 C209 1.363 . S
C210 C216 1.428 1_665 S
H211 C207 0.930 . S
H212 C209 0.929 . S
S213 N214 1.613 . S
S213 N215 1.610 . S
N214 S213 1.613 . S
N214 C217 1.350 . S
N215 S213 1.610 . S
N215 C216 1.351 . S
C216 C210 1.428 1_445 S
C216 N215 1.351 . S
C216 C217 1.434 . S
C217 C208 1.425 1_455 S
C217 N214 1.350 . S
C217 C216 1.434 . S
C218 C219 1.369 . S
C218 C220 1.419 . S
C218 H222 0.930 . S
C219 C218 1.369 . S
C219 C228 1.429 . S
C220 C218 1.419 . S
C220 C221 1.363 . S
C220 H223 0.929 . S
C221 C220 1.363 . S
C221 C227 1.428 . S
H222 C218 0.930 . S
H223 C220 0.929 . S
S224 N225 1.613 . S
S224 N226 1.610 . S
N225 S224 1.613 . S
N225 C228 1.350 . S
N226 S224 1.610 . S
N226 C227 1.351 . S
C227 C221 1.428 . S
C227 N226 1.351 . S
C227 C228 1.434 . S
C228 C219 1.429 . S
C228 N225 1.350 . S
C228 C227 1.434 . S
C229 C230 1.369 . S
C229 C231 1.419 . S
C229 H233 0.930 . S
C230 C229 1.369 . S
C230 C239 1.429 . S
C231 C229 1.419 . S
C231 C232 1.363 . S
C231 H234 0.929 . S
C232 C231 1.363 . S
C232 C238 1.428 . S
H233 C229 0.930 . S
H234 C231 0.929 . S
S235 N236 1.613 . S
S235 N237 1.610 . S
N236 S235 1.613 . S
N236 C239 1.350 . S
N237 S235 1.610 . S
N237 C238 1.351 . S
C238 C232 1.428 . S
C238 N237 1.351 . S
C238 C239 1.434 . S
C239 C230 1.429 . S
C239 N236 1.350 . S
C239 C238 1.434 . S
C111 C102 1.470 . S
C109 C27 1.504 . S
C120 N6 1.395 . S
C122 C88 1.416 1_554 S
C131 C16 1.477 . S
C133 C100 1.426 . S
C142 N14 1.449 1_556 S
C144 C90 1.450 . S
C153 C57 1.504 . S
C155 C78 1.471 . S
C164 N36 1.404 . S
C166 C64 1.421 . S
C177 C76 1.423 . S
C175 C46 1.477 . S
C188 C66 1.451 . S
C186 N44 1.449 . S
C197 C10 1.477 . S
C199 C69 1.478 . S
C208 C1 1.552 1_655 S
C210 C81 1.549 . S
C221 C93 1.479 . S
C219 C40 1.479 . S
C230 C31 1.550 . S
C232 C105 1.549 . S
