# Generated by pormake.
# Topology anh, (6,3)-cn, num edge types: 1
# Building blocks:
#     Node 0, Type 0, BuildingBlock: PAMTUU_clean_sbu_0, # of connection points: 6
#     Node 1, Type 0, BuildingBlock: PAMTUU_clean_sbu_0, # of connection points: 6
#     Node 2, Type 0, BuildingBlock: PAMTUU_clean_sbu_0, # of connection points: 6
#     Node 3, Type 1, BuildingBlock: BETDAH_clean_linker_0, # of connection points: 3
#     Node 4, Type 1, BuildingBlock: BETDAH_clean_linker_0, # of connection points: 3
#     Node 5, Type 1, BuildingBlock: BETDAH_clean_linker_0, # of connection points: 3
#     Node 6, Type 1, BuildingBlock: BETDAH_clean_linker_0, # of connection points: 3
#     Node 7, Type 1, BuildingBlock: BETDAH_clean_linker_0, # of connection points: 3
#     Node 8, Type 1, BuildingBlock: BETDAH_clean_linker_0, # of connection points: 3
#     Edge 9, Type (0, 1), None
#     Edge 10, Type (0, 1), None
#     Edge 11, Type (0, 1), None
#     Edge 12, Type (0, 1), None
#     Edge 13, Type (0, 1), None
#     Edge 14, Type (0, 1), None
#     Edge 15, Type (0, 1), None
#     Edge 16, Type (0, 1), None
#     Edge 17, Type (0, 1), None
#     Edge 18, Type (0, 1), None
#     Edge 19, Type (0, 1), None
#     Edge 20, Type (0, 1), None
#     Edge 21, Type (0, 1), None
#     Edge 22, Type (0, 1), None
#     Edge 23, Type (0, 1), None
#     Edge 24, Type (0, 1), None
#     Edge 25, Type (0, 1), None
#     Edge 26, Type (0, 1), None
# Relax obj value: 0.773
# Max RMSD: 0.237
# Mean RMSD: 0.151
data_MOF--net-anh--node1-PAMTUU_clean_sbu_0--node2-BETDAH_clean_linker_0--edge1-none
_symmetry_space_group_name_H-M    P1
_symmetry_Int_Tables_number       1
_symmetry_cell_setting            triclinic
loop_
_symmetry_equiv_pos_as_xyz
'x, y, z'
_cell_length_a     13.189416
_cell_length_b     13.119143
_cell_length_c     21.098503
_cell_angle_alpha  90.791209
_cell_angle_beta   94.747744
_cell_angle_gamma 120.01645
loop_
_atom_site_label
_atom_site_type_symbol
_atom_site_fract_x
_atom_site_fract_y
_atom_site_fract_z
_atom_type_partial_charge
Tb0 Tb 1.34239 0.92599 0.22549 0.0
Tb1 Tb 0.47477 0.79762 0.17102 0.0
C2 C 1.34389 0.87031 0.07923 0.0
C3 C 1.10361 0.94942 0.27699 0.0
C4 C 0.88552 0.76438 0.22664 0.0
C5 C 0.91371 0.8821 0.21842 0.0
C6 C 1.02503 0.97464 0.24174 0.0
C7 C 1.05952 0.83767 0.30167 0.0
C8 C 0.9513 0.74474 0.27587 0.0
C9 C 1.22918 1.01585 0.26707 0.0
O10 O 1.22 0.74307 0.24234 0.0
O11 O 1.28968 0.65873 0.17506 0.0
O12 O 0.4674 0.75587 0.26902 0.0
O13 O 0.45112 0.91216 0.30514 0.0
O14 O 0.59978 0.74341 0.17089 0.0
O15 O 0.46743 0.69744 0.09076 0.0
O16 O 0.6198 0.9727 0.21011 0.0
O17 O 0.51612 1.07118 0.21182 0.0
O18 O 1.27574 0.85901 0.12426 0.0
O19 O 0.45171 0.8981 0.09739 0.0
C20 C 1.20972 0.65056 0.21153 0.0
O21 O 1.29689 0.9903 0.30346 0.0
O22 O 1.25073 1.01761 0.20761 0.0
C23 C 0.47923 0.83 0.31483 0.0
C24 C 0.50335 0.54869 0.12387 0.0
C25 C 0.47384 0.32424 0.13265 0.0
C26 C 0.46064 0.36332 0.07271 0.0
C27 C 0.48156 0.47826 0.06835 0.0
C28 C 0.48634 0.49726 0.18295 0.0
C29 C 0.46875 0.3834 0.18702 0.0
C30 C 0.54439 0.67469 0.11941 0.0
C31 C 0.6155 1.07022 0.22053 0.0
H32 H 0.85884 0.90212 0.1861 0.0
H33 H 1.05502 1.06167 0.22458 0.0
H34 H 1.11588 0.81666 0.3322 0.0
H35 H 0.93069 0.65699 0.28771 0.0
H36 H 0.46114 0.31708 0.02986 0.0
H37 H 0.49054 0.51531 0.02218 0.0
H38 H 0.4966 0.54799 0.22639 0.0
H39 H 0.47498 0.35272 0.23385 0.0
Tb40 Tb 0.78197 0.35583 0.55259 0.0
Tb41 Tb 1.03967 0.49441 0.50287 0.0
C42 C 0.82659 0.37107 0.40835 0.0
C43 C 0.53424 1.11084 0.6054 0.0
C44 C 0.51806 0.91005 0.54879 0.0
C45 C 0.41968 0.92644 0.54262 0.0
C46 C 0.42936 1.02928 0.56942 0.0
C47 C 0.61255 1.07307 0.62831 0.0
C48 C 0.60667 0.9745 0.59865 0.0
C49 C 0.58493 0.23688 0.59402 0.0
O50 O 0.84021 1.22914 0.57095 0.0
O51 O 0.99622 0.30768 0.5102 0.0
O52 O 1.0789 0.4562 0.59659 0.0
O53 O 0.91709 0.44963 0.63211 0.0
O54 O 1.21797 0.6233 0.5041 0.0
O55 O 1.12545 0.49604 0.42341 0.0
O56 O 1.01587 0.63395 0.5486 0.0
O57 O 0.81336 0.53415 0.54176 0.0
O58 O 0.77225 0.29703 0.4518 0.0
O59 O 0.90854 0.47725 0.42862 0.0
C60 C 0.92431 1.22333 0.54532 0.0
O61 O 0.68052 0.3082 0.63036 0.0
O62 O 0.59714 0.26082 0.53424 0.0
C63 C 1.01801 0.45206 0.64283 0.0
C64 C 1.31628 0.53668 0.45644 0.0
C65 C 0.51371 0.50981 0.46104 0.0
C66 C 0.44594 0.4916 0.40274 0.0
C67 C 1.34927 0.50852 0.40023 0.0
C68 C 0.36977 0.53005 0.5155 0.0
C69 C 0.4673 0.51451 0.51767 0.0
C70 C 1.22745 0.5735 0.45247 0.0
C71 C 0.91555 0.63149 0.55568 0.0
H72 H 1.34371 0.87119 0.50909 0.0
H73 H 0.36437 1.0534 0.55349 0.0
H74 H 0.69135 1.1312 0.65931 0.0
H75 H 0.6813 0.96174 0.60817 0.0
H76 H 0.47978 0.48678 0.35834 0.0
H77 H 1.30629 0.50874 0.35421 0.0
H78 H 1.34257 0.54612 0.55982 0.0
H79 H 0.51783 0.52756 0.56332 0.0
Tb80 Tb 0.74042 0.59659 0.85108 0.0
Tb81 Tb 0.86332 0.87262 0.90378 0.0
C82 C 0.84438 0.79565 0.7538 0.0
C83 C 0.69565 0.30322 0.84744 0.0
C84 C 0.87424 0.25325 0.83683 0.0
C85 C 0.76142 1.1765 0.80537 0.0
C86 C 0.67345 1.2061 0.80791 0.0
C87 C 0.79334 0.3514 0.89389 0.0
C88 C 0.88265 0.325 0.88912 0.0
C89 C 0.64651 0.37769 0.82696 0.0
O90 O 0.93167 0.65564 0.86527 0.0
O91 O 1.00175 0.83189 0.92332 0.0
O92 O 0.7737 0.75635 0.97905 0.0
O93 O 0.80245 0.60752 0.94903 0.0
O94 O 0.92039 1.05302 0.89908 0.0
O95 O 0.94982 0.98384 0.9863 0.0
O96 O 0.68309 0.83189 0.8823 0.0
O97 O 0.59435 0.62949 0.86606 0.0
O98 O 0.76146 0.68821 0.7638 0.0
O99 O 0.90357 0.876 0.80215 0.0
C100 C 1.01628 0.74686 0.90159 0.0
O101 O 0.61781 0.4239 0.87229 0.0
O102 O 0.70847 0.45638 0.78778 0.0
C103 C 0.78427 0.66459 0.99289 0.0
C104 C 1.1006 1.16672 0.96152 0.0
C105 C 1.30536 0.35183 0.92363 0.0
C106 C 1.2808 0.23613 0.91189 0.0
C107 C 1.17659 1.14305 0.92968 0.0
C108 C 1.14045 0.28139 0.98674 0.0
C109 C 1.24476 0.37468 0.96834 0.0
C110 C 0.97514 1.07839 0.95662 0.0
C111 C 0.58901 0.72679 0.87484 0.0
H112 H 0.75101 1.11424 0.76761 0.0
H113 H 0.59711 1.16504 0.77286 0.0
H114 H 0.81031 0.42313 0.92688 0.0
H115 H 0.96663 0.38042 0.91696 0.0
H116 H 1.32825 1.21702 0.8785 0.0
H117 H 1.14861 1.05451 0.9113 0.0
H118 H 1.08389 0.30066 0.01274 0.0
H119 H 1.26378 0.46411 0.97861 0.0
H120 H 0.6507 1.16961 0.34034 0.0
H121 H 0.98331 0.48421 0.3208 0.0
H122 H 0.81723 1.21539 0.16757 0.0
C123 C 0.72339 1.22199 0.31273 0.0
C124 C 0.72157 1.18007 0.25012 0.0
C125 C 0.81843 0.3307 0.33987 0.0
C126 C 0.91066 0.39955 0.30187 0.0
C127 C 0.91139 0.3579 0.23996 0.0
C128 C 0.81765 0.24705 0.21537 0.0
N129 N 1.00344 0.42328 0.20036 0.0
C130 C 1.1021 0.53667 0.21268 0.0
H131 H 0.85847 0.6416 0.67474 0.0
H132 H 0.90591 0.99324 0.67882 0.0
H133 H 0.97314 0.84827 0.51264 0.0
C134 C 0.88158 0.72302 0.65202 0.0
C135 C 0.91601 0.73353 0.58972 0.0
C136 C 0.87983 0.81622 0.68625 0.0
C137 C 0.90801 0.92125 0.65442 0.0
C138 C 0.93957 0.93203 0.59067 0.0
C139 C 0.94647 0.83906 0.56045 0.0
N140 N 0.97507 1.03621 0.5558 0.0
C141 C 0.9414 1.12243 0.55719 0.0
H142 H 1.13632 0.83183 0.01828 0.0
H143 H 0.44075 0.804 0.98683 0.0
H144 H 1.14929 0.67508 0.84056 0.0
C145 C 1.18257 0.80538 0.98783 0.0
C146 C 1.12972 0.75342 0.92581 0.0
C147 C 1.294 0.82355 0.01128 0.0
C148 C 0.35469 0.79043 0.97041 0.0
C149 C 1.30229 0.73552 0.90898 0.0
C150 C 1.18915 0.716 0.88784 0.0
N151 N 0.35759 0.69628 0.86688 0.0
C152 C 0.47386 0.71831 0.87166 0.0
H153 H 0.44319 0.89978 0.42427 0.0
H154 H 0.63374 0.75242 0.3453 0.0
H155 H 0.65677 0.80524 0.54805 0.0
C156 C 0.50078 0.86361 0.43189 0.0
C157 C 0.54481 0.85755 0.49388 0.0
C158 C 0.53126 0.82557 0.37848 0.0
C159 C 0.61171 0.78519 0.38634 0.0
C160 C 0.65965 0.7809 0.44749 0.0
C161 C 0.62484 0.81579 0.50106 0.0
N162 N 0.71437 0.7118 0.45547 0.0
C163 C 0.63601 0.59325 0.46023 0.0
H164 H 0.86606 0.32777 0.72219 0.0
H165 H 1.23595 0.5099 0.70126 0.0
H166 H 1.10056 0.30794 0.86449 0.0
C167 C 0.95468 0.34976 0.73972 0.0
C168 C 0.97351 0.30745 0.797 0.0
C169 C 1.04761 0.42187 0.70521 0.0
C170 C 1.16331 0.45403 0.72812 0.0
C171 C 1.1854 0.41523 0.78638 0.0
C172 C 1.08871 0.34009 0.82005 0.0
N173 N 1.30432 0.45491 0.81075 0.0
C174 C 1.33007 0.42023 0.86884 0.0
H175 H 0.84867 0.79777 0.10085 0.0
H176 H 0.71992 0.44405 0.02816 0.0
H177 H 0.77358 0.51963 0.22959 0.0
C178 C 0.81656 0.70647 0.11044 0.0
C179 C 0.82012 0.67191 0.1733 0.0
C180 C 0.78106 0.62567 0.05822 0.0
C181 C 0.74997 0.50836 0.06826 0.0
C182 C 0.74805 0.47047 0.13003 0.0
C183 C 0.78079 0.55172 0.18226 0.0
N184 N 0.68722 0.3479 0.13915 0.0
C185 C 0.56675 0.29799 0.13854 0.0
loop_
_geom_bond_atom_site_label_1
_geom_bond_atom_site_label_2
_geom_bond_distance
_geom_bond_site_symmetry_2
_ccdc_geom_bond_type
Tb0 C9 2.764 . S
Tb0 O10 2.325 . S
Tb0 O13 2.303 1_655 S
Tb0 O17 2.322 1_655 S
Tb0 O18 2.349 1_655 S
Tb0 O21 2.415 . S
Tb0 O22 2.399 . S
Tb1 O11 2.322 1_455 S
Tb1 O12 2.349 . S
Tb1 O14 2.415 . S
Tb1 O15 2.399 . S
Tb1 O16 2.325 . S
Tb1 O19 2.303 . S
Tb1 C30 2.764 . S
C2 O18 1.261 . S
C2 O19 1.257 . S
C3 C6 1.358 . S
C3 C7 1.332 . S
C3 C9 1.504 . S
C4 C5 1.373 . S
C4 C8 1.308 . S
C5 C4 1.373 . S
C5 C6 1.429 . S
C5 H32 0.932 . S
C6 C3 1.358 . S
C6 C5 1.429 . S
C6 H33 0.930 . S
C7 C3 1.332 . S
C7 C8 1.394 . S
C7 H34 0.932 . S
C8 C4 1.308 . S
C8 C7 1.394 . S
C8 H35 0.929 . S
C9 Tb0 2.764 . S
C9 C3 1.504 . S
C9 O21 1.239 . S
C9 O22 1.263 . S
O10 Tb0 2.325 . S
O10 C20 1.236 . S
O11 Tb1 2.322 1_655 S
O11 C20 1.257 . S
O12 Tb1 2.349 . S
O12 C23 1.261 . S
O13 Tb0 2.303 1_455 S
O13 C23 1.257 . S
O14 Tb1 2.415 . S
O14 C30 1.239 . S
O15 Tb1 2.399 . S
O15 C30 1.263 . S
O16 Tb1 2.325 . S
O16 C31 1.236 . S
O17 Tb0 2.322 1_455 S
O17 C31 1.257 . S
O18 Tb0 2.349 1_455 S
O18 C2 1.261 . S
O19 Tb1 2.303 . S
O19 C2 1.257 . S
C20 O10 1.236 . S
C20 O11 1.257 . S
O21 Tb0 2.415 . S
O21 C9 1.239 . S
O22 Tb0 2.399 . S
O22 C9 1.263 . S
C23 O12 1.261 . S
C23 O13 1.257 . S
C24 C27 1.358 . S
C24 C28 1.332 . S
C24 C30 1.504 . S
C25 C26 1.373 . S
C25 C29 1.308 . S
C26 C25 1.373 . S
C26 C27 1.429 . S
C26 H36 0.932 . S
C27 C24 1.358 . S
C27 C26 1.429 . S
C27 H37 0.930 . S
C28 C24 1.332 . S
C28 C29 1.394 . S
C28 H38 0.932 . S
C29 C25 1.308 . S
C29 C28 1.394 . S
C29 H39 0.929 . S
C30 Tb1 2.764 . S
C30 O14 1.239 . S
C30 O15 1.263 . S
C30 C24 1.504 . S
C31 O16 1.236 . S
C31 O17 1.257 . S
H32 C5 0.932 . S
H33 C6 0.930 . S
H34 C7 0.932 . S
H35 C8 0.929 . S
H36 C26 0.932 . S
H37 C27 0.930 . S
H38 C28 0.932 . S
H39 C29 0.929 . S
Tb40 C49 2.764 1_545 S
Tb40 O50 2.325 1_545 S
Tb40 O53 2.303 . S
Tb40 O57 2.322 . S
Tb40 O58 2.349 . S
Tb40 O61 2.415 1_545 S
Tb40 O62 2.399 1_545 S
Tb41 O51 2.322 1_545 S
Tb41 O52 2.349 . S
Tb41 O54 2.415 . S
Tb41 O55 2.399 . S
Tb41 O56 2.325 . S
Tb41 O59 2.303 . S
Tb41 C70 2.764 . S
C42 O58 1.261 . S
C42 O59 1.257 . S
C43 C46 1.358 . S
C43 C47 1.332 . S
C43 C49 1.504 . S
C44 C45 1.373 . S
C44 C48 1.308 . S
C45 C44 1.373 . S
C45 C46 1.429 . S
C45 H72 0.932 . S
C46 C43 1.358 . S
C46 C45 1.429 . S
C46 H73 0.930 . S
C47 C43 1.332 . S
C47 C48 1.394 . S
C47 H74 0.932 . S
C48 C44 1.308 . S
C48 C47 1.394 . S
C48 H75 0.929 . S
C49 Tb40 2.764 1_565 S
C49 C43 1.504 . S
C49 O61 1.239 . S
C49 O62 1.263 . S
O50 Tb40 2.325 1_565 S
O50 C60 1.236 . S
O51 Tb41 2.322 1_565 S
O51 C60 1.257 . S
O52 Tb41 2.349 . S
O52 C63 1.261 . S
O53 Tb40 2.303 . S
O53 C63 1.257 . S
O54 Tb41 2.415 . S
O54 C70 1.239 . S
O55 Tb41 2.399 . S
O55 C70 1.263 . S
O56 Tb41 2.325 . S
O56 C71 1.236 . S
O57 Tb40 2.322 . S
O57 C71 1.257 . S
O58 Tb40 2.349 . S
O58 C42 1.261 . S
O59 Tb41 2.303 . S
O59 C42 1.257 . S
C60 O50 1.236 . S
C60 O51 1.257 . S
O61 Tb40 2.415 1_565 S
O61 C49 1.239 . S
O62 Tb40 2.399 1_565 S
O62 C49 1.263 . S
C63 O52 1.261 . S
C63 O53 1.257 . S
C64 C67 1.358 . S
C64 C68 1.332 . S
C64 C70 1.504 . S
C65 C66 1.373 . S
C65 C69 1.308 . S
C66 C65 1.373 . S
C66 C67 1.429 . S
C66 H76 0.932 1_655 S
C67 C64 1.358 . S
C67 C66 1.429 . S
C67 H77 0.930 . S
C68 C64 1.332 . S
C68 C69 1.394 . S
C68 H78 0.932 . S
C69 C65 1.308 . S
C69 C68 1.394 . S
C69 H79 0.929 . S
C70 Tb41 2.764 . S
C70 O54 1.239 . S
C70 O55 1.263 . S
C70 C64 1.504 . S
C71 O56 1.236 . S
C71 O57 1.257 . S
H72 C45 0.932 . S
H73 C46 0.930 . S
H74 C47 0.932 . S
H75 C48 0.929 . S
H76 C66 0.932 1_455 S
H77 C67 0.930 . S
H78 C68 0.932 . S
H79 C69 0.929 . S
Tb80 C89 2.764 . S
Tb80 O90 2.325 . S
Tb80 O93 2.303 . S
Tb80 O97 2.322 . S
Tb80 O98 2.349 . S
Tb80 O101 2.415 . S
Tb80 O102 2.399 . S
Tb81 O91 2.322 . S
Tb81 O92 2.349 1_556 S
Tb81 O94 2.415 . S
Tb81 O95 2.399 . S
Tb81 O96 2.325 . S
Tb81 O99 2.303 . S
Tb81 C110 2.764 . S
C82 O98 1.261 . S
C82 O99 1.257 . S
C83 C86 1.358 . S
C83 C87 1.332 . S
C83 C89 1.504 . S
C84 C85 1.373 . S
C84 C88 1.308 . S
C85 C84 1.373 . S
C85 C86 1.429 . S
C85 H112 0.932 . S
C86 C83 1.358 . S
C86 C85 1.429 . S
C86 H113 0.930 . S
C87 C83 1.332 . S
C87 C88 1.394 . S
C87 H114 0.932 . S
C88 C84 1.308 . S
C88 C87 1.394 . S
C88 H115 0.929 . S
C89 Tb80 2.764 . S
C89 C83 1.504 . S
C89 O101 1.239 . S
C89 O102 1.263 . S
O90 Tb80 2.325 . S
O90 C100 1.236 . S
O91 Tb81 2.322 . S
O91 C100 1.257 . S
O92 Tb81 2.349 1_554 S
O92 C103 1.261 . S
O93 Tb80 2.303 . S
O93 C103 1.257 1_556 S
O94 Tb81 2.415 . S
O94 C110 1.239 . S
O95 Tb81 2.399 . S
O95 C110 1.263 . S
O96 Tb81 2.325 . S
O96 C111 1.236 . S
O97 Tb80 2.322 . S
O97 C111 1.257 . S
O98 Tb80 2.349 . S
O98 C82 1.261 . S
O99 Tb81 2.303 . S
O99 C82 1.257 . S
C100 O90 1.236 . S
C100 O91 1.257 . S
O101 Tb80 2.415 . S
O101 C89 1.239 . S
O102 Tb80 2.399 . S
O102 C89 1.263 . S
C103 O92 1.261 . S
C103 O93 1.257 1_554 S
C104 C107 1.358 . S
C104 C108 1.332 . S
C104 C110 1.504 . S
C105 C106 1.373 1_545 S
C105 C109 1.308 1_545 S
C106 C105 1.373 1_565 S
C106 C107 1.429 . S
C106 H116 0.932 1_566 S
C107 C104 1.358 . S
C107 C106 1.429 . S
C107 H117 0.930 1_556 S
C108 C104 1.332 . S
C108 C109 1.394 . S
C108 H118 0.932 . S
C109 C105 1.308 1_565 S
C109 C108 1.394 . S
C109 H119 0.929 . S
C110 Tb81 2.764 . S
C110 O94 1.239 . S
C110 O95 1.263 . S
C110 C104 1.504 . S
C111 O96 1.236 . S
C111 O97 1.257 . S
H112 C85 0.932 . S
H113 C86 0.930 . S
H114 C87 0.932 . S
H115 C88 0.929 . S
H116 C106 0.932 1_544 S
H117 C107 0.930 1_554 S
H118 C108 0.932 . S
H119 C109 0.929 . S
H120 C123 0.929 . S
H121 C126 0.929 . S
H122 C128 0.930 1_565 S
C123 H120 0.929 . S
C123 C124 1.398 . S
C123 C125 1.396 1_565 S
C124 C123 1.398 . S
C124 C128 1.407 1_565 S
C125 C123 1.396 1_545 S
C125 C126 1.394 . S
C126 H121 0.929 . S
C126 C125 1.394 . S
C126 C127 1.382 . S
C127 C126 1.382 . S
C127 C128 1.392 . S
C127 N129 1.420 . S
C128 H122 0.930 1_545 S
C128 C124 1.407 1_545 S
C128 C127 1.392 . S
N129 C127 1.420 . S
N129 C130 1.244 . S
C130 N129 1.244 . S
H131 C134 0.929 . S
H132 C137 0.929 . S
H133 C139 0.930 . S
C134 H131 0.929 . S
C134 C135 1.398 . S
C134 C136 1.396 . S
C135 C134 1.398 . S
C135 C139 1.407 . S
C136 C134 1.396 . S
C136 C137 1.394 . S
C137 H132 0.929 . S
C137 C136 1.394 . S
C137 C138 1.382 . S
C138 C137 1.382 . S
C138 C139 1.392 . S
C138 N140 1.420 . S
C139 H133 0.930 . S
C139 C135 1.407 . S
C139 C138 1.392 . S
N140 C138 1.420 . S
N140 C141 1.244 . S
C141 N140 1.244 . S
H142 C145 0.929 1_554 S
H143 C148 0.929 . S
H144 C150 0.930 1_655 S
C145 H142 0.929 1_556 S
C145 C146 1.398 . S
C145 C147 1.396 1_656 S
C146 C145 1.398 . S
C146 C150 1.407 1_655 S
C147 C145 1.396 1_454 S
C147 C148 1.394 1_554 S
C148 H143 0.929 . S
C148 C147 1.394 1_556 S
C148 C149 1.382 . S
C149 C148 1.382 . S
C149 C150 1.392 . S
C149 N151 1.420 . S
C150 H144 0.930 1_455 S
C150 C146 1.407 1_455 S
C150 C149 1.392 . S
N151 C149 1.420 . S
N151 C152 1.244 . S
C152 N151 1.244 . S
H153 C156 0.929 . S
H154 C159 0.929 . S
H155 C161 0.930 . S
C156 H153 0.929 . S
C156 C157 1.398 . S
C156 C158 1.396 . S
C157 C156 1.398 . S
C157 C161 1.407 . S
C158 C156 1.396 . S
C158 C159 1.394 1_455 S
C159 H154 0.929 . S
C159 C158 1.394 1_655 S
C159 C160 1.382 . S
C160 C159 1.382 . S
C160 C161 1.390 1_655 S
C160 N162 1.422 . S
C161 H155 0.930 . S
C161 C157 1.407 . S
C161 C160 1.390 1_455 S
N162 C160 1.422 . S
N162 C163 1.244 . S
C163 N162 1.244 . S
H164 C167 0.929 . S
H165 C170 0.929 . S
H166 C172 0.930 . S
C167 H164 0.929 . S
C167 C168 1.398 . S
C167 C169 1.396 . S
C168 C167 1.398 . S
C168 C172 1.407 . S
C169 C167 1.396 . S
C169 C170 1.394 1_545 S
C170 H165 0.929 . S
C170 C169 1.394 1_565 S
C170 C171 1.382 . S
C171 C170 1.382 . S
C171 C172 1.386 1_565 S
C171 N173 1.425 . S
C172 H166 0.930 . S
C172 C168 1.407 . S
C172 C171 1.386 1_545 S
N173 C171 1.425 . S
N173 C174 1.244 . S
C174 N173 1.244 . S
H175 C178 0.929 . S
H176 C181 0.929 . S
H177 C183 0.930 . S
C178 H175 0.929 . S
C178 C179 1.398 1_556 S
C178 C180 1.396 . S
C179 C178 1.398 1_554 S
C179 C183 1.407 . S
C180 C178 1.396 . S
C180 C181 1.394 . S
C181 H176 0.929 . S
C181 C180 1.394 . S
C181 C182 1.382 1_556 S
C182 C181 1.382 1_554 S
C182 C183 1.392 . S
C182 N184 1.420 . S
C183 H177 0.930 . S
C183 C179 1.407 . S
C183 C182 1.392 . S
N184 C182 1.420 . S
N184 C185 1.244 . S
C185 N184 1.244 . S
C25 C185 3.594 . S
C65 C163 3.991 . S
C105 C174 4.174 1_545 S
C4 C179 3.783 . S
C157 C44 3.043 . S
C168 C84 2.965 . S
C60 C141 4.618 . S
C100 C146 4.697 . S
C31 C124 4.703 . S
C135 C71 4.730 . S
C152 C111 4.669 . S
C20 C130 4.664 . S
C147 C2 1.926 . S
C42 C125 1.994 . S
C82 C136 1.922 . S
C169 C63 1.257 . S
C180 C103 1.750 1_556 S
C23 C158 1.057 . S
