# Generated by pormake.
# Topology rtl, (3,6)-cn, num edge types: 1
# Building blocks:
#     Node 0, Type 0, BuildingBlock: BETDIP_clean_linker_0, # of connection points: 3
#     Node 1, Type 0, BuildingBlock: BETDIP_clean_linker_0, # of connection points: 3
#     Node 2, Type 0, BuildingBlock: BETDIP_clean_linker_0, # of connection points: 3
#     Node 3, Type 0, BuildingBlock: BETDIP_clean_linker_0, # of connection points: 3
#     Node 4, Type 1, BuildingBlock: VOLQOD_clean_sbu_1, # of connection points: 6
#     Node 5, Type 1, BuildingBlock: VOLQOD_clean_sbu_1, # of connection points: 6
#     Edge 6, Type (0, 1), None
#     Edge 7, Type (0, 1), None
#     Edge 8, Type (0, 1), None
#     Edge 9, Type (0, 1), None
#     Edge 10, Type (0, 1), None
#     Edge 11, Type (0, 1), None
#     Edge 12, Type (0, 1), None
#     Edge 13, Type (0, 1), None
#     Edge 14, Type (0, 1), None
#     Edge 15, Type (0, 1), None
#     Edge 16, Type (0, 1), None
#     Edge 17, Type (0, 1), None
# Relax obj value: 0.043
# Max RMSD: 0.143
# Mean RMSD: 0.083
data_MOF--net-rtl--node1-VOLQOD_clean_sbu_1--node2-BETDIP_clean_linker_0--edge1-none
_symmetry_space_group_name_H-M    P1
_symmetry_Int_Tables_number       1
_symmetry_cell_setting            triclinic
loop_
_symmetry_equiv_pos_as_xyz
'x, y, z'
_cell_length_a     17.700042
_cell_length_b     18.058026
_cell_length_c     10.208129
_cell_angle_alpha  94.416265
_cell_angle_beta   90.608203
_cell_angle_gamma 90.038926
loop_
_atom_site_label
_atom_site_type_symbol
_atom_site_fract_x
_atom_site_fract_y
_atom_site_fract_z
_atom_type_partial_charge
H0 H 0.23993 0.82358 0.73892 0.0
H1 H 0.2341 0.82216 0.16233 0.0
H2 H 0.09662 0.97441 0.96716 0.0
H3 H 0.33874 0.76336 0.13622 0.0
C4 C 0.3449 0.73873 0.03666 0.0
C5 C 0.21922 0.84592 0.83339 0.0
C6 C 0.16533 0.90264 0.83968 0.0
C7 C 0.2474 0.81841 0.94912 0.0
C8 C 0.21728 0.84519 0.07197 0.0
C9 C 0.16384 0.90253 0.07844 0.0
C10 C 0.13963 0.93153 0.96235 0.0
N11 N 0.30379 0.76229 0.93677 0.0
H12 H 0.73521 0.69951 0.71525 0.0
H13 H 0.74551 0.68175 0.29255 0.0
H14 H 0.60639 0.53172 0.49093 0.0
H15 H 0.892 0.71279 0.43742 0.0
C16 C 0.86203 0.76431 0.4639 0.0
C17 C 0.72105 0.66983 0.62189 0.0
C18 C 0.6712 0.60916 0.61734 0.0
C19 C 0.74937 0.69484 0.50459 0.0
C20 C 0.72753 0.65926 0.38262 0.0
C21 C 0.67533 0.60086 0.37741 0.0
C22 C 0.64876 0.57538 0.49495 0.0
N23 N 0.79105 0.762 0.50808 0.0
H24 H 0.7718 0.18469 0.78288 0.0
H25 H 0.7796 0.19654 0.20584 0.0
H26 H 0.9088 0.03127 -0.01809 0.0
H27 H 0.62187 0.21299 0.93897 0.0
C28 C 0.65284 0.26449 0.96252 0.0
C29 C 0.78916 0.16088 0.87271 0.0
C30 C 0.84085 0.10212 0.86782 0.0
C31 C 0.76672 0.19478 -0.00521 0.0
C32 C 0.79403 0.16795 0.11222 0.0
C33 C 0.8437 0.10731 0.10778 0.0
C34 C 0.86663 0.07502 -0.01454 0.0
N35 N 0.72569 0.2622 -0.00082 0.0
H36 H 0.27518 0.32274 0.23631 0.0
H37 H 0.28109 0.32335 0.66024 0.0
H38 H 0.41825 0.47517 0.46828 0.0
H39 H 0.17704 0.26402 0.63211 0.0
C40 C 0.17062 0.23889 0.53272 0.0
C41 C 0.29584 0.34561 0.33129 0.0
C42 C 0.34976 0.40253 0.33883 0.0
C43 C 0.26761 0.31856 0.44653 0.0
C44 C 0.29773 0.34604 0.57008 0.0
C45 C 0.35102 0.40358 0.57777 0.0
C46 C 0.37527 0.43214 0.46223 0.0
N47 N 0.21125 0.26217 0.43336 0.0
O48 O 0.86377 0.89279 0.47393 0.0
Zn49 Zn 0.89408 0.00198 0.47426 0.0
O50 O 0.00601 0.00638 0.47422 0.0
Zn51 Zn 0.03823 0.05906 0.63561 0.0
Zn52 Zn 0.05388 0.90678 0.45844 0.0
Zn53 Zn 0.04282 0.0624 0.33406 0.0
O54 O 0.09495 0.15175 0.61318 0.0
O55 O 0.10937 0.14915 0.39743 0.0
O56 O 0.84819 0.05335 0.64244 0.0
O57 O 0.95349 0.08303 0.75408 0.0
O58 O 0.10366 0.99611 0.73473 0.0
O59 O 0.11828 0.88821 0.61898 0.0
O60 O 0.11659 0.88855 0.29359 0.0
O61 O 0.8516 0.04888 0.31052 0.0
O62 O 0.10293 -0.00275 0.20891 0.0
O63 O 0.95579 0.09606 0.22797 0.0
C64 C 0.90027 0.83159 0.46149 0.0
C65 C 0.12239 0.17852 0.51283 0.0
C66 C 0.1308 0.93108 0.72189 0.0
C67 C 0.88208 0.07953 0.7468 0.0
C68 C 0.12863 0.93137 0.20264 0.0
C69 C 0.88461 0.08583 0.22558 0.0
O70 O 0.97174 0.8297 0.44874 0.0
O71 O 0.65143 0.39302 -0.02432 0.0
Zn72 Zn 0.62125 0.50234 -0.01946 0.0
O73 O 0.50932 0.50677 -0.0218 0.0
Zn74 Zn 0.47235 0.56367 0.83789 0.0
Zn75 Zn 0.46103 0.40722 0.96118 0.0
Zn76 Zn 0.47759 0.55862 0.13922 0.0
O77 O 0.40568 0.64985 0.90127 0.0
O78 O 0.42132 0.65159 0.11723 0.0
O79 O 0.66334 0.55074 0.8196 0.0
O80 O 0.5592 0.59832 0.7345 0.0
O81 O 0.41212 0.49858 0.71013 0.0
O82 O 0.39813 0.38984 0.79447 0.0
O83 O 0.39675 0.38784 0.11954 0.0
O84 O 0.66768 0.55216 0.15156 0.0
O85 O 0.4119 0.49569 0.23562 0.0
O86 O 0.56263 0.58159 0.2601 0.0
C87 C 0.61461 0.33187 0.96286 0.0
C88 C 0.39325 0.6787 0.01679 0.0
C89 C 0.38625 0.43266 0.70306 0.0
C90 C 0.6304 0.58823 0.73432 0.0
C91 C 0.38444 0.43071 0.22202 0.0
C92 C 0.63398 0.57776 0.25523 0.0
O93 O 0.54289 0.33013 0.95196 0.0
loop_
_geom_bond_atom_site_label_1
_geom_bond_atom_site_label_2
_geom_bond_distance
_geom_bond_site_symmetry_2
_ccdc_geom_bond_type
H0 C5 0.930 . S
H1 C8 0.930 . S
H2 C10 0.930 1_554 S
H3 C4 1.016 . S
C4 H3 1.016 . S
C4 N11 1.286 1_554 S
C5 H0 0.930 . S
C5 C6 1.397 . S
C5 C7 1.361 . S
C6 C5 1.397 . S
C6 C10 1.393 . S
C7 C5 1.361 . S
C7 C8 1.393 1_556 S
C7 N11 1.413 . S
C8 H1 0.930 . S
C8 C7 1.393 1_554 S
C8 C9 1.399 . S
C9 C8 1.399 . S
C9 C10 1.379 1_554 S
C10 H2 0.930 1_556 S
C10 C6 1.393 . S
C10 C9 1.379 1_556 S
N11 C4 1.286 1_556 S
N11 C7 1.413 . S
H12 C17 0.930 . S
H13 C20 0.930 . S
H14 C22 0.930 . S
H15 C16 1.016 . S
C16 H15 1.016 . S
C16 N23 1.286 . S
C17 H12 0.930 . S
C17 C18 1.397 . S
C17 C19 1.361 . S
C18 C17 1.397 . S
C18 C22 1.390 . S
C19 C17 1.361 . S
C19 C20 1.393 . S
C19 N23 1.413 . S
C20 H13 0.930 . S
C20 C19 1.393 . S
C20 C21 1.399 . S
C21 C20 1.399 . S
C21 C22 1.381 . S
C22 H14 0.930 . S
C22 C18 1.390 . S
C22 C21 1.381 . S
N23 C16 1.286 . S
N23 C19 1.413 . S
H24 C29 0.930 . S
H25 C32 0.930 . S
H26 C34 0.930 1_554 S
H27 C28 1.016 . S
C28 H27 1.016 . S
C28 N35 1.286 1_554 S
C29 H24 0.930 . S
C29 C30 1.397 . S
C29 C31 1.361 . S
C30 C29 1.397 . S
C30 C34 1.390 . S
C31 C29 1.361 . S
C31 C32 1.393 1_556 S
C31 N35 1.413 . S
C32 H25 0.930 . S
C32 C31 1.393 1_554 S
C32 C33 1.399 . S
C33 C32 1.399 . S
C33 C34 1.381 1_554 S
C34 H26 0.930 1_556 S
C34 C30 1.390 . S
C34 C33 1.381 1_556 S
N35 C28 1.286 1_556 S
N35 C31 1.413 . S
H36 C41 0.930 . S
H37 C44 0.930 . S
H38 C46 0.930 . S
H39 C40 1.016 . S
C40 H39 1.016 . S
C40 N47 1.286 . S
C41 H36 0.930 . S
C41 C42 1.397 . S
C41 C43 1.361 . S
C42 C41 1.397 . S
C42 C46 1.390 . S
C43 C41 1.361 . S
C43 C44 1.393 . S
C43 N47 1.413 . S
C44 H37 0.930 . S
C44 C43 1.393 . S
C44 C45 1.399 . S
C45 C44 1.399 . S
C45 C46 1.381 . S
C46 H38 0.930 . S
C46 C42 1.390 . S
C46 C45 1.381 . S
N47 C40 1.286 . S
N47 C43 1.413 . S
O48 Zn49 1.953 1_565 S
O48 C64 1.225 . S
Zn49 O48 1.953 1_545 S
Zn49 O50 1.949 1_655 S
Zn49 O56 1.919 . S
Zn49 O61 1.924 . S
O50 Zn49 1.949 1_455 S
O50 Zn51 1.923 . S
O50 Zn52 1.950 1_545 S
O50 Zn53 1.945 . S
Zn51 O50 1.923 . S
Zn51 O54 1.933 . S
Zn51 O57 1.942 1_455 S
Zn51 O58 1.965 1_545 S
Zn52 O50 1.950 1_565 S
Zn52 O59 1.938 . S
Zn52 O60 1.906 . S
Zn52 O70 1.953 1_455 S
Zn53 O50 1.945 . S
Zn53 O55 1.932 . S
Zn53 O62 1.977 1_545 S
Zn53 O63 1.910 1_455 S
O54 Zn51 1.933 . S
O54 C65 1.226 . S
O55 Zn53 1.932 . S
O55 C65 1.307 . S
O56 Zn49 1.919 . S
O56 C67 1.253 . S
O57 Zn51 1.942 1_655 S
O57 C67 1.282 . S
O58 Zn51 1.965 1_565 S
O58 C66 1.303 . S
O59 Zn52 1.938 . S
O59 C66 1.247 . S
O60 Zn52 1.906 . S
O60 C68 1.304 . S
O61 Zn49 1.924 . S
O61 C69 1.311 . S
O62 Zn53 1.977 1_565 S
O62 C68 1.272 . S
O63 Zn53 1.910 1_655 S
O63 C69 1.231 . S
C64 O48 1.225 . S
C64 O70 1.298 . S
C65 O54 1.226 . S
C65 O55 1.307 . S
C66 O58 1.303 . S
C66 O59 1.247 . S
C67 O56 1.253 . S
C67 O57 1.282 . S
C68 O60 1.304 . S
C68 O62 1.272 . S
C69 O61 1.311 . S
C69 O63 1.231 . S
O70 Zn52 1.953 1_655 S
O70 C64 1.298 . S
O71 Zn72 1.953 . S
O71 C87 1.225 1_556 S
Zn72 O71 1.953 . S
Zn72 O73 1.949 1_556 S
Zn72 O79 1.919 . S
Zn72 O84 1.924 1_556 S
O73 Zn72 1.949 1_554 S
O73 Zn74 1.923 1_554 S
O73 Zn75 1.950 . S
O73 Zn76 1.945 . S
Zn74 O73 1.923 1_556 S
Zn74 O77 1.933 . S
Zn74 O80 1.941 . S
Zn74 O81 1.965 . S
Zn75 O73 1.950 . S
Zn75 O82 1.938 1_554 S
Zn75 O83 1.906 . S
Zn75 O93 1.953 . S
Zn76 O73 1.945 . S
Zn76 O78 1.932 . S
Zn76 O85 1.977 . S
Zn76 O86 1.910 . S
O77 Zn74 1.933 . S
O77 C88 1.226 1_556 S
O78 Zn76 1.932 . S
O78 C88 1.307 . S
O79 Zn72 1.919 . S
O79 C90 1.253 . S
O80 Zn74 1.941 . S
O80 C90 1.283 . S
O81 Zn74 1.965 . S
O81 C89 1.303 . S
O82 Zn75 1.938 1_556 S
O82 C89 1.247 . S
O83 Zn75 1.906 . S
O83 C91 1.304 . S
O84 Zn72 1.924 1_554 S
O84 C92 1.311 . S
O85 Zn76 1.977 . S
O85 C91 1.272 . S
O86 Zn76 1.910 . S
O86 C92 1.231 . S
C87 O71 1.225 1_554 S
C87 O93 1.298 . S
C88 O77 1.226 1_554 S
C88 O78 1.307 . S
C89 O81 1.303 . S
C89 O82 1.247 . S
C90 O79 1.253 . S
C90 O80 1.283 . S
C91 O83 1.304 . S
C91 O85 1.272 . S
C92 O84 1.311 . S
C92 O86 1.231 . S
O93 Zn75 1.953 . S
O93 C87 1.298 . S
C65 C40 1.507 . S
C4 C88 1.505 . S
C16 C64 1.517 . S
C28 C87 1.537 . S
C68 C9 1.524 . S
C90 C18 1.522 . S
C33 C69 1.586 . S
C45 C89 1.593 . S
C92 C21 1.485 . S
C67 C30 1.435 . S
C91 C42 1.433 . S
C6 C66 1.481 . S
