# Generated by pormake.
# Topology anh, (6,3)-cn, num edge types: 1
# Building blocks:
#     Node 0, Type 0, BuildingBlock: PAMTOO_clean_sbu_0, # of connection points: 6
#     Node 1, Type 0, BuildingBlock: PAMTOO_clean_sbu_0, # of connection points: 6
#     Node 2, Type 0, BuildingBlock: PAMTOO_clean_sbu_0, # of connection points: 6
#     Node 3, Type 1, BuildingBlock: BETDIP_clean_linker_0, # of connection points: 3
#     Node 4, Type 1, BuildingBlock: BETDIP_clean_linker_0, # of connection points: 3
#     Node 5, Type 1, BuildingBlock: BETDIP_clean_linker_0, # of connection points: 3
#     Node 6, Type 1, BuildingBlock: BETDIP_clean_linker_0, # of connection points: 3
#     Node 7, Type 1, BuildingBlock: BETDIP_clean_linker_0, # of connection points: 3
#     Node 8, Type 1, BuildingBlock: BETDIP_clean_linker_0, # of connection points: 3
#     Edge 9, Type (0, 1), None
#     Edge 10, Type (0, 1), None
#     Edge 11, Type (0, 1), None
#     Edge 12, Type (0, 1), None
#     Edge 13, Type (0, 1), None
#     Edge 14, Type (0, 1), None
#     Edge 15, Type (0, 1), None
#     Edge 16, Type (0, 1), None
#     Edge 17, Type (0, 1), None
#     Edge 18, Type (0, 1), None
#     Edge 19, Type (0, 1), None
#     Edge 20, Type (0, 1), None
#     Edge 21, Type (0, 1), None
#     Edge 22, Type (0, 1), None
#     Edge 23, Type (0, 1), None
#     Edge 24, Type (0, 1), None
#     Edge 25, Type (0, 1), None
#     Edge 26, Type (0, 1), None
# Relax obj value: 0.423
# Max RMSD: 0.270
# Mean RMSD: 0.166
data_MOF--net-anh--node1-PAMTOO_clean_sbu_0--node2-BETDIP_clean_linker_0--edge1-none
_symmetry_space_group_name_H-M    P1
_symmetry_Int_Tables_number       1
_symmetry_cell_setting            triclinic
loop_
_symmetry_equiv_pos_as_xyz
'x, y, z'
_cell_length_a     14.046314
_cell_length_b     13.216979
_cell_length_c     22.661273
_cell_angle_alpha  95.032027
_cell_angle_beta   93.629296
_cell_angle_gamma 85.756146
loop_
_atom_site_label
_atom_site_type_symbol
_atom_site_fract_x
_atom_site_fract_y
_atom_site_fract_z
_atom_type_partial_charge
Dy0 Dy 0.19587 0.78245 0.11814 0.0
Dy1 Dy 0.18932 0.54427 0.08139 0.0
C2 C 1.17102 0.70518 -0.01666 0.0
O3 O 1.03292 0.75487 0.12223 0.0
O4 O 1.03093 0.59836 0.0703 0.0
O5 O 0.21087 0.93619 0.09748 0.0
O6 O 0.19035 0.9055 0.18805 0.0
O7 O 1.15598 0.57306 0.17651 0.0
O8 O 0.25695 0.69722 0.19309 0.0
O9 O 0.35166 0.56662 0.0808 0.0
O10 O 0.35283 0.74051 0.09238 0.0
O11 O 0.24192 0.39394 0.10356 0.0
O12 O 1.1337 0.41152 0.03201 0.0
C13 C 0.98315 0.67881 0.09596 0.0
O14 O 1.14535 0.77575 0.02412 0.0
O15 O 0.20534 0.61392 -0.00349 0.0
C16 C 0.31128 1.01399 0.17266 0.0
C17 C 0.49618 0.06347 0.21636 0.0
C18 C 0.47995 1.0258 0.15704 0.0
C19 C 0.38859 1.0016 0.13538 0.0
C20 C 0.3262 0.05716 0.23096 0.0
C21 C 0.4176 0.08248 0.25248 0.0
C22 C 0.21991 0.96924 0.15335 0.0
C23 C 0.20976 0.62792 0.21333 0.0
C24 C 0.40053 0.64995 0.08389 0.0
C25 C 1.11321 0.28773 0.09997 0.0
C26 C 0.99167 0.19131 0.1693 0.0
C27 C 1.09044 0.18881 0.18322 0.0
C28 C 1.15065 0.23602 0.14888 0.0
C29 C 1.01435 0.28767 0.08498 0.0
C30 C 0.95424 0.24002 0.11931 0.0
C31 C 1.17558 0.3503 0.06952 0.0
H32 H 0.53866 1.00939 0.12814 0.0
H33 H 0.38003 0.96799 0.09019 0.0
H34 H 0.26824 0.06699 0.26074 0.0
H35 H 0.42731 0.11353 0.29813 0.0
H36 H 1.12092 0.15187 0.22148 0.0
H37 H 0.22629 0.23483 0.16179 0.0
H38 H 0.98275 0.32689 0.04775 0.0
H39 H 0.87834 0.24291 0.10715 0.0
Dy40 Dy 0.61523 1.0405 0.49858 0.0
Dy41 Dy 0.84739 1.03982 0.51222 0.0
C42 C 0.72237 0.06133 0.62447 0.0
O43 O 0.6443 0.20111 0.48129 0.0
O44 O 0.7934 0.20337 0.5281 0.0
O45 O 0.48396 1.02445 0.53991 0.0
O46 O 0.48028 0.06597 0.44915 0.0
O47 O 0.79881 0.07627 0.41994 0.0
O48 O 0.67116 0.98035 0.41223 0.0
O49 O 0.82277 0.87376 0.50536 0.0
O50 O 0.66007 0.87608 0.51437 0.0
O51 O 0.98247 0.9771 0.48041 0.0
O52 O 0.97878 0.10213 0.54913 0.0
C53 C 0.71698 0.25172 0.50434 0.0
O54 O 0.65716 0.10465 0.58949 0.0
O55 O 0.79967 1.01335 0.60281 0.0
C56 C 0.37033 0.95231 0.4714 0.0
C57 C 0.2748 0.78749 0.41592 0.0
C58 C 0.34775 0.77137 0.46002 0.0
C59 C 0.3953 0.85312 0.48748 0.0
C60 C 0.29331 0.96949 0.43045 0.0
C61 C 0.24524 0.88771 0.40316 0.0
C62 C 0.43199 1.035 0.49074 0.0
C63 C 0.73263 1.02985 0.38715 0.0
C64 C 0.74499 0.82673 0.51082 0.0
C65 C 1.07881 0.11281 0.47033 0.0
C66 C 1.1452 0.25479 0.39953 0.0
C67 C 1.09652 0.1723 0.37309 0.0
C68 C 1.06295 0.10232 0.40809 0.0
C69 C 1.13289 0.19177 0.49636 0.0
C70 C 1.16554 0.26247 0.4613 0.0
C71 C 1.02861 0.051 0.50817 0.0
H72 H 0.37287 0.69509 0.4703 0.0
H73 H 0.45523 0.83773 0.51865 0.0
H74 H 0.27401 1.04538 0.41716 0.0
H75 H 0.18842 0.90232 0.36976 0.0
H76 H 1.08041 0.16462 0.32565 0.0
H77 H 1.02135 1.04249 0.38637 0.0
H78 H 1.14608 0.20152 0.54408 0.0
H79 H 0.2042 0.32473 0.48286 0.0
Dy80 Dy 0.75219 0.4559 0.81062 0.0
Dy81 Dy 0.53381 0.51187 0.78325 0.0
C82 C 0.66415 0.47342 0.68259 0.0
O83 O 0.76166 0.62494 0.81258 0.0
O84 O 0.60283 0.66464 0.78745 0.0
O85 O 0.89817 0.43416 0.84462 0.0
O86 O 0.84703 0.34354 0.76532 0.0
O87 O 0.54548 0.5251 0.88325 0.0
O88 O 0.70965 0.51397 0.90121 0.0
O89 O 0.54646 0.33825 0.77004 0.0
O90 O 0.67623 0.32074 0.83267 0.0
O91 O 0.38211 0.5385 0.79459 0.0
O92 O 0.44311 0.57229 0.71314 0.0
C93 C 0.69062 0.69256 0.80083 0.0
O94 O 0.72573 0.51403 0.72068 0.0
O95 O 0.59286 0.43305 0.70237 0.0
C96 C 0.99665 0.40969 0.76532 0.0
C97 C 1.11024 0.57169 0.77508 0.0
C98 C 1.02756 0.57501 0.73692 0.0
C99 C 0.97114 0.49221 0.73122 0.0
C100 C 1.09136 0.39456 0.78706 0.0
C101 C 1.15062 0.47498 0.78899 0.0
C102 C 0.9215 0.37338 0.79799 0.0
C103 C 0.62233 0.53411 0.91958 0.0
C104 C 0.60968 0.27807 0.79829 0.0
C105 C 0.33143 0.69256 0.75148 0.0
C106 C 0.25143 0.89292 0.76404 0.0
C107 C 0.31626 0.85633 0.80822 0.0
C108 C 0.35583 0.75642 0.80209 0.0
C109 C 0.27764 0.73369 0.70384 0.0
C110 C 0.23859 0.83435 0.7098 0.0
C111 C 0.36982 0.58625 0.74593 0.0
H112 H 0.99669 0.64556 0.72085 0.0
H113 H 0.9003 0.50187 0.71023 0.0
H114 H 1.11424 0.32889 0.81116 0.0
H115 H 0.21903 0.46722 0.81351 0.0
H116 H 0.32745 0.90091 0.85023 0.0
H117 H 0.40148 0.72768 0.83812 0.0
H118 H 0.26195 0.68657 0.66333 0.0
H119 H 0.18872 0.86139 0.67526 0.0
H120 H 0.64779 0.1343 0.16546 0.0
H121 H 0.85428 0.09754 0.31203 0.0
H122 H 0.56725 1.01225 0.32323 0.0
H123 H 0.96158 0.10143 0.24348 0.0
C124 C 0.92892 0.14434 0.2079 0.0
C125 C 0.66591 0.11009 0.20949 0.0
C126 C 0.5955 0.07355 0.24187 0.0
C127 C 0.76012 0.11607 0.2333 0.0
C128 C 0.78336 0.08868 0.29161 0.0
C129 C 0.71354 0.0514 0.32436 0.0
C130 C 0.62085 1.04235 0.29856 0.0
N131 N 0.82781 0.15298 0.19765 0.0
H132 H 0.71725 0.43913 0.44996 0.0
H133 H 0.68539 0.62776 0.61453 0.0
H134 H 0.67285 0.30555 0.61141 0.0
H135 H 0.82178 0.6989 0.55375 0.0
C136 C 0.75971 0.71827 0.52475 0.0
C137 C 0.70488 0.44724 0.49687 0.0
C138 C 0.6977 0.35933 0.52792 0.0
C139 C 0.69981 0.54587 0.52819 0.0
C140 C 0.68898 0.5537 0.58978 0.0
C141 C 0.67806 0.46697 0.61912 0.0
C142 C 0.68037 0.37185 0.58797 0.0
N143 N 0.70443 0.63716 0.49884 0.0
H144 H 1.08217 0.7764 0.75734 0.0
H145 H 1.14101 0.89156 0.93758 0.0
H146 H 1.16395 0.56984 0.8912 0.0
H147 H 1.15751 1.03584 0.75868 0.0
C148 C 1.17437 0.96869 0.78267 0.0
C149 C 1.10391 0.76192 0.80261 0.0
C150 C 1.12721 0.66178 0.81766 0.0
C151 C 1.11318 0.84515 0.84521 0.0
C152 C 1.13519 0.82738 0.90467 0.0
C153 C 1.15404 0.72718 0.92089 0.0
C154 C 1.15229 0.6462 0.87729 0.0
N155 N 1.1133 0.9457 0.82707 0.0
H156 H 0.22813 0.60427 0.44862 0.0
H157 H 1.17632 0.46327 0.2718 0.0
H158 H 0.25153 0.77339 0.29753 0.0
H159 H 1.16127 0.32318 0.31507 0.0
C160 C 1.16852 0.33584 0.36302 0.0
C161 C 0.22301 0.60899 0.40099 0.0
C162 C 0.24051 0.6999 0.37748 0.0
C163 C 0.20072 0.52285 0.36373 0.0
C164 C 0.19358 0.52851 0.30165 0.0
C165 C 0.21193 0.61936 0.27777 0.0
C166 C 0.23517 0.7041 0.31594 0.0
N167 N 0.18802 0.43277 0.39131 0.0
H168 H 0.59873 0.0845 0.84448 0.0
H169 H 0.72158 0.90558 0.6952 0.0
H170 H 0.67425 0.22923 0.69311 0.0
H171 H 0.7885 0.81193 0.78756 0.0
C172 C 0.71456 0.80054 0.7951 0.0
C173 C 0.62802 0.0798 0.80119 0.0
C174 C 0.63308 0.17057 0.77194 0.0
C175 C 0.66121 0.98256 0.77398 0.0
C176 C 0.70032 0.97862 0.71785 0.0
C177 C 0.70341 0.06719 0.68824 0.0
C178 C 0.67034 0.16132 0.71573 0.0
N179 N 0.64799 0.88891 0.80003 0.0
H180 H 0.58673 0.70887 0.14223 0.0
H181 H 0.76194 0.59553 -0.00235 0.0
H182 H 0.45815 0.56715 -0.02025 0.0
H183 H 0.82807 0.70405 0.11346 0.0
C184 C 0.87425 0.69467 0.0775 0.0
C185 C 0.59316 0.67202 0.09797 0.0
C186 C 0.50657 0.63942 0.06412 0.0
C187 C 0.68836 0.65563 0.07399 0.0
C188 C 0.69276 0.60776 0.01654 0.0
C189 C 0.6112 0.57633 -0.01751 0.0
C190 C 0.5202 0.59153 0.00668 0.0
N191 N 0.78178 0.68586 0.10637 0.0
loop_
_geom_bond_atom_site_label_1
_geom_bond_atom_site_label_2
_geom_bond_distance
_geom_bond_site_symmetry_2
_ccdc_geom_bond_type
Dy0 O3 2.307 1_455 S
Dy0 O5 2.395 . S
Dy0 O6 2.379 . S
Dy0 O8 2.339 . S
Dy0 O10 2.298 . S
Dy0 O14 2.275 . S
Dy0 C22 2.738 . S
Dy1 O4 2.298 . S
Dy1 O7 2.275 1_655 S
Dy1 O9 2.307 1_655 S
Dy1 O11 2.395 . S
Dy1 O12 2.379 . S
Dy1 O15 2.339 . S
Dy1 C31 2.738 . S
C2 O14 1.254 . S
C2 O15 1.257 1_455 S
O3 Dy0 2.307 1_655 S
O3 C13 1.266 . S
O4 Dy1 2.298 . S
O4 C13 1.236 . S
O5 Dy0 2.395 . S
O5 C22 1.255 . S
O6 Dy0 2.379 . S
O6 C22 1.249 . S
O7 Dy1 2.275 1_455 S
O7 C23 1.254 . S
O8 Dy0 2.339 . S
O8 C23 1.257 . S
O9 Dy1 2.307 1_455 S
O9 C24 1.266 . S
O10 Dy0 2.298 . S
O10 C24 1.236 . S
O11 Dy1 2.395 . S
O11 C31 1.255 . S
O12 Dy1 2.379 . S
O12 C31 1.249 . S
C13 O3 1.266 . S
C13 O4 1.236 . S
O14 Dy0 2.275 . S
O14 C2 1.254 . S
O15 Dy1 2.339 . S
O15 C2 1.257 1_655 S
C16 C19 1.344 . S
C16 C20 1.328 . S
C16 C22 1.516 . S
C17 C18 1.304 1_545 S
C17 C21 1.323 . S
C18 C17 1.304 1_565 S
C18 C19 1.371 . S
C18 H32 0.930 . S
C19 C16 1.344 . S
C19 C18 1.371 . S
C19 H33 0.931 . S
C20 C16 1.328 . S
C20 C21 1.433 1_565 S
C20 H34 0.931 . S
C21 C17 1.323 . S
C21 C20 1.433 1_545 S
C21 H35 0.933 . S
C22 Dy0 2.738 . S
C22 O5 1.255 . S
C22 O6 1.249 . S
C22 C16 1.516 . S
C23 O7 1.254 . S
C23 O8 1.257 . S
C24 O9 1.266 . S
C24 O10 1.236 . S
C25 C28 1.344 . S
C25 C29 1.328 . S
C25 C31 1.516 . S
C26 C27 1.304 . S
C26 C30 1.323 . S
C27 C26 1.304 . S
C27 C28 1.371 . S
C27 H36 0.930 . S
C28 C25 1.344 . S
C28 C27 1.371 . S
C28 H37 0.931 . S
C29 C25 1.328 . S
C29 C30 1.433 . S
C29 H38 0.931 . S
C30 C26 1.323 . S
C30 C29 1.433 . S
C30 H39 0.933 . S
C31 Dy1 2.738 . S
C31 O11 1.255 . S
C31 O12 1.249 . S
C31 C25 1.516 . S
H32 C18 0.930 . S
H33 C19 0.931 . S
H34 C20 0.931 . S
H35 C21 0.933 . S
H36 C27 0.930 . S
H37 C28 0.931 . S
H38 C29 0.931 . S
H39 C30 0.933 . S
Dy40 O43 2.307 . S
Dy40 O45 2.395 1_545 S
Dy40 O46 2.379 1_545 S
Dy40 O48 2.339 . S
Dy40 O50 2.298 1_545 S
Dy40 O54 2.275 . S
Dy40 C62 2.738 1_545 S
Dy41 O44 2.298 . S
Dy41 O47 2.275 . S
Dy41 O49 2.307 1_545 S
Dy41 O51 2.395 . S
Dy41 O52 2.379 . S
Dy41 O55 2.339 . S
Dy41 C71 2.738 . S
C42 O54 1.254 . S
C42 O55 1.257 . S
O43 Dy40 2.307 . S
O43 C53 1.266 . S
O44 Dy41 2.298 . S
O44 C53 1.236 . S
O45 Dy40 2.395 1_565 S
O45 C62 1.255 . S
O46 Dy40 2.379 1_565 S
O46 C62 1.249 . S
O47 Dy41 2.275 . S
O47 C63 1.254 . S
O48 Dy40 2.339 . S
O48 C63 1.257 . S
O49 Dy41 2.307 1_565 S
O49 C64 1.266 . S
O50 Dy40 2.298 1_565 S
O50 C64 1.236 . S
O51 Dy41 2.395 . S
O51 C71 1.255 . S
O52 Dy41 2.379 . S
O52 C71 1.249 . S
C53 O43 1.266 . S
C53 O44 1.236 . S
O54 Dy40 2.275 . S
O54 C42 1.254 . S
O55 Dy41 2.339 . S
O55 C42 1.257 . S
C56 C59 1.344 . S
C56 C60 1.328 . S
C56 C62 1.516 . S
C57 C58 1.304 . S
C57 C61 1.323 . S
C58 C57 1.304 . S
C58 C59 1.371 . S
C58 H72 0.930 . S
C59 C56 1.344 . S
C59 C58 1.371 . S
C59 H73 0.931 . S
C60 C56 1.328 . S
C60 C61 1.433 . S
C60 H74 0.931 . S
C61 C57 1.323 . S
C61 C60 1.433 . S
C61 H75 0.933 . S
C62 Dy40 2.738 1_565 S
C62 O45 1.255 . S
C62 O46 1.249 . S
C62 C56 1.516 . S
C63 O47 1.254 . S
C63 O48 1.257 . S
C64 O49 1.266 . S
C64 O50 1.236 . S
C65 C68 1.344 . S
C65 C69 1.328 . S
C65 C71 1.516 . S
C66 C67 1.304 . S
C66 C70 1.323 . S
C67 C66 1.304 . S
C67 C68 1.371 . S
C67 H76 0.930 . S
C68 C65 1.344 . S
C68 C67 1.371 . S
C68 H77 0.931 . S
C69 C65 1.328 . S
C69 C70 1.433 . S
C69 H78 0.931 . S
C70 C66 1.323 . S
C70 C69 1.433 . S
C70 H79 0.933 . S
C71 Dy41 2.738 . S
C71 O51 1.255 . S
C71 O52 1.249 . S
C71 C65 1.516 . S
H72 C58 0.930 . S
H73 C59 0.931 . S
H74 C60 0.931 . S
H75 C61 0.933 . S
H76 C67 0.930 . S
H77 C68 0.931 . S
H78 C69 0.931 . S
H79 C70 0.933 . S
Dy80 O83 2.307 . S
Dy80 O85 2.395 . S
Dy80 O86 2.379 . S
Dy80 O88 2.339 . S
Dy80 O90 2.298 . S
Dy80 O94 2.275 . S
Dy80 C102 2.738 . S
Dy81 O84 2.298 . S
Dy81 O87 2.275 . S
Dy81 O89 2.307 . S
Dy81 O91 2.395 . S
Dy81 O92 2.379 . S
Dy81 O95 2.339 . S
Dy81 C111 2.738 . S
C82 O94 1.254 . S
C82 O95 1.257 . S
O83 Dy80 2.307 . S
O83 C93 1.266 . S
O84 Dy81 2.298 . S
O84 C93 1.236 . S
O85 Dy80 2.395 . S
O85 C102 1.255 . S
O86 Dy80 2.379 . S
O86 C102 1.249 . S
O87 Dy81 2.275 . S
O87 C103 1.254 . S
O88 Dy80 2.339 . S
O88 C103 1.257 . S
O89 Dy81 2.307 . S
O89 C104 1.266 . S
O90 Dy80 2.298 . S
O90 C104 1.236 . S
O91 Dy81 2.395 . S
O91 C111 1.255 . S
O92 Dy81 2.379 . S
O92 C111 1.249 . S
C93 O83 1.266 . S
C93 O84 1.236 . S
O94 Dy80 2.275 . S
O94 C82 1.254 . S
O95 Dy81 2.339 . S
O95 C82 1.257 . S
C96 C99 1.344 . S
C96 C100 1.328 . S
C96 C102 1.516 . S
C97 C98 1.304 . S
C97 C101 1.323 . S
C98 C97 1.304 . S
C98 C99 1.371 . S
C98 H112 0.930 . S
C99 C96 1.344 . S
C99 C98 1.371 . S
C99 H113 0.931 . S
C100 C96 1.328 . S
C100 C101 1.433 . S
C100 H114 0.931 . S
C101 C97 1.323 . S
C101 C100 1.433 . S
C101 H115 0.933 . S
C102 Dy80 2.738 . S
C102 O85 1.255 . S
C102 O86 1.249 . S
C102 C96 1.516 . S
C103 O87 1.254 . S
C103 O88 1.257 . S
C104 O89 1.266 . S
C104 O90 1.236 . S
C105 C108 1.344 . S
C105 C109 1.328 . S
C105 C111 1.516 . S
C106 C107 1.304 . S
C106 C110 1.323 . S
C107 C106 1.304 . S
C107 C108 1.371 . S
C107 H116 0.930 . S
C108 C105 1.344 . S
C108 C107 1.371 . S
C108 H117 0.931 . S
C109 C105 1.328 . S
C109 C110 1.433 . S
C109 H118 0.931 . S
C110 C106 1.323 . S
C110 C109 1.433 . S
C110 H119 0.933 . S
C111 Dy81 2.738 . S
C111 O91 1.255 . S
C111 O92 1.249 . S
C111 C105 1.516 . S
H112 C98 0.930 . S
H113 C99 0.931 . S
H114 C100 0.931 . S
H115 C101 0.933 . S
H116 C107 0.930 . S
H117 C108 0.931 . S
H118 C109 0.931 . S
H119 C110 0.933 . S
H120 C125 0.930 1_565 S
H121 C128 0.930 . S
H122 C130 0.930 . S
H123 C124 1.016 . S
C124 H123 1.016 . S
C124 N131 1.286 . S
C125 H120 0.930 1_545 S
C125 C126 1.397 1_545 S
C125 C127 1.361 . S
C126 C125 1.397 1_565 S
C126 C130 1.390 . S
C127 C125 1.361 . S
C127 C128 1.393 . S
C127 N131 1.413 . S
C128 H121 0.930 . S
C128 C127 1.393 . S
C128 C129 1.399 . S
C129 C128 1.399 . S
C129 C130 1.381 1_545 S
C130 H122 0.930 . S
C130 C126 1.390 . S
C130 C129 1.381 1_565 S
N131 C124 1.286 . S
N131 C127 1.413 . S
H132 C137 0.930 . S
H133 C140 0.930 . S
H134 C142 0.930 . S
H135 C136 1.016 . S
C136 H135 1.016 . S
C136 N143 1.286 . S
C137 H132 0.930 . S
C137 C138 1.397 . S
C137 C139 1.361 . S
C138 C137 1.397 . S
C138 C142 1.390 . S
C139 C137 1.361 . S
C139 C140 1.393 . S
C139 N143 1.413 . S
C140 H133 0.930 . S
C140 C139 1.393 . S
C140 C141 1.399 . S
C141 C140 1.399 . S
C141 C142 1.381 . S
C142 H134 0.930 . S
C142 C138 1.390 . S
C142 C141 1.381 . S
N143 C136 1.286 . S
N143 C139 1.413 . S
H144 C149 0.930 . S
H145 C152 0.930 1_554 S
H146 C154 0.930 1_554 S
H147 C148 1.016 . S
C148 H147 1.016 . S
C148 N155 1.286 . S
C149 H144 0.930 . S
C149 C150 1.397 . S
C149 C151 1.361 1_655 S
C150 C149 1.397 . S
C150 C154 1.390 . S
C151 C149 1.361 1_455 S
C151 C152 1.393 . S
C151 N155 1.413 . S
C152 H145 0.930 1_556 S
C152 C151 1.393 . S
C152 C153 1.399 1_456 S
C153 C152 1.399 1_654 S
C153 C154 1.381 1_554 S
C154 H146 0.930 1_556 S
C154 C150 1.390 . S
C154 C153 1.381 1_556 S
N155 C148 1.286 . S
N155 C151 1.413 . S
H156 C161 0.930 . S
H157 C164 0.930 . S
H158 C166 0.930 . S
H159 C160 1.016 . S
C160 H159 1.016 . S
C160 N167 1.286 . S
C161 H156 0.930 . S
C161 C162 1.397 . S
C161 C163 1.361 . S
C162 C161 1.397 . S
C162 C166 1.390 . S
C163 C161 1.361 . S
C163 C164 1.393 1_455 S
C163 N167 1.413 1_455 S
C164 H157 0.930 . S
C164 C163 1.393 1_655 S
C164 C165 1.399 1_655 S
C165 C164 1.399 1_455 S
C165 C166 1.381 . S
C166 H158 0.930 . S
C166 C162 1.390 . S
C166 C165 1.381 . S
N167 C160 1.286 . S
N167 C163 1.413 1_655 S
H168 C173 0.930 . S
H169 C176 0.930 . S
H170 C178 0.930 . S
H171 C172 1.016 . S
C172 H171 1.016 . S
C172 N179 1.286 . S
C173 H168 0.930 . S
C173 C174 1.397 . S
C173 C175 1.361 1_545 S
C174 C173 1.397 . S
C174 C178 1.390 . S
C175 C173 1.361 1_565 S
C175 C176 1.393 . S
C175 N179 1.413 . S
C176 H169 0.930 . S
C176 C175 1.393 . S
C176 C177 1.399 1_565 S
C177 C176 1.399 1_545 S
C177 C178 1.381 . S
C178 H170 0.930 . S
C178 C174 1.390 . S
C178 C177 1.381 . S
N179 C172 1.286 . S
N179 C175 1.413 . S
H180 C185 0.930 . S
H181 C188 0.930 . S
H182 C190 0.930 . S
H183 C184 1.016 . S
C184 H183 1.016 . S
C184 N191 1.286 . S
C185 H180 0.930 . S
C185 C186 1.397 . S
C185 C187 1.361 . S
C186 C185 1.397 . S
C186 C190 1.390 . S
C187 C185 1.361 . S
C187 C188 1.393 . S
C187 N191 1.413 . S
C188 H181 0.930 . S
C188 C187 1.393 . S
C188 C189 1.399 . S
C189 C188 1.399 . S
C189 C190 1.381 . S
C190 H182 0.930 . S
C190 C186 1.390 . S
C190 C189 1.381 . S
N191 C184 1.286 . S
N191 C187 1.413 . S
C24 C186 5.068 . S
C66 C160 2.409 . S
C93 C172 2.413 . S
C13 C184 4.593 . S
C162 C57 2.233 . S
C174 C104 2.473 . S
C64 C136 2.395 . S
C97 C150 4.507 . S
C17 C126 2.650 1_545 S
C138 C53 2.303 . S
C148 C106 2.625 . S
C26 C124 3.230 . S
C153 C2 1.017 1_655 S
C63 C129 1.272 . S
C82 C141 1.174 . S
C177 C42 1.211 . S
C189 C103 2.313 1_554 S
C23 C165 1.431 . S
