# Generated by pormake.
# Topology pth, (4,4)-cn, num edge types: 1
# Building blocks:
#     Node 0, Type 0, BuildingBlock: NAHDIM_clean_sbu_0, # of connection points: 4
#     Node 1, Type 0, BuildingBlock: NAHDIM_clean_sbu_0, # of connection points: 4
#     Node 2, Type 0, BuildingBlock: NAHDIM_clean_sbu_0, # of connection points: 4
#     Node 3, Type 1, BuildingBlock: NAWXER_clean_linker_0, # of connection points: 4
#     Node 4, Type 1, BuildingBlock: NAWXER_clean_linker_0, # of connection points: 4
#     Node 5, Type 1, BuildingBlock: NAWXER_clean_linker_0, # of connection points: 4
#     Edge 6, Type (0, 1), None
#     Edge 7, Type (0, 1), None
#     Edge 8, Type (0, 1), None
#     Edge 9, Type (0, 1), None
#     Edge 10, Type (0, 1), None
#     Edge 11, Type (0, 1), None
#     Edge 12, Type (0, 1), None
#     Edge 13, Type (0, 1), None
#     Edge 14, Type (0, 1), None
#     Edge 15, Type (0, 1), None
#     Edge 16, Type (0, 1), None
#     Edge 17, Type (0, 1), None
# Relax obj value: 0.041
# Max RMSD: 0.166
# Mean RMSD: 0.084
data_MOF--net-pth--node1-NAHDIM_clean_sbu_0--node2-NAWXER_clean_linker_0--edge1-none
_symmetry_space_group_name_H-M    P1
_symmetry_Int_Tables_number       1
_symmetry_cell_setting            triclinic
loop_
_symmetry_equiv_pos_as_xyz
'x, y, z'
_cell_length_a     15.992465
_cell_length_b     16.064381
_cell_length_c     34.370227
_cell_angle_alpha  92.275233
_cell_angle_beta   89.587277
_cell_angle_gamma 121.09855
loop_
_atom_site_label
_atom_site_type_symbol
_atom_site_fract_x
_atom_site_fract_y
_atom_site_fract_z
_atom_type_partial_charge
C0 C -0.01497 0.86999 0.10429 0.0
O1 O 0.90294 0.865 0.09509 0.0
O2 O 0.01773 0.10992 0.09504 0.0
Zn3 Zn 0.04444 0.02696 0.05793 0.0
O4 O 0.93118 0.93575 0.02206 0.0
C5 C 0.15732 0.18776 0.01233 0.0
O6 O 0.08286 0.19771 0.02122 0.0
O7 O 0.06507 0.93884 0.09152 0.0
C8 C 0.89836 0.94974 0.991 0.0
O9 O 0.93717 0.038 0.97829 0.0
C10 C 0.94491 0.12132 0.09565 0.0
O11 O 0.8742 0.07399 0.06968 0.0
O12 O 0.16107 0.11702 0.02577 0.0
C13 C 0.98156 0.14393 0.33242 0.0
O14 O 0.90081 0.05905 0.33503 0.0
O15 O 0.02163 0.93986 0.35018 0.0
Zn16 Zn 0.03511 0.05031 0.3851 0.0
O17 O 0.91683 0.01583 0.41754 0.0
C18 C 0.14934 0.0135 0.43466 0.0
O19 O 0.07887 0.9252 0.4242 0.0
O20 O 0.05651 0.16087 0.35192 0.0
C21 C 0.93062 0.0853 0.44094 0.0
O22 O 0.01697 0.1655 0.44222 0.0
C23 C 0.94597 0.87097 0.33306 0.0
O24 O 0.8618 0.86607 0.33692 0.0
O25 O 0.1481 0.08602 0.42171 0.0
C26 C 0.17725 0.07908 0.66931 0.0
O27 O 0.182 0.16152 0.67867 0.0
O28 O 0.92859 0.03677 0.67736 0.0
Zn29 Zn 0.0122 0.01796 0.71491 0.0
O30 O 0.08978 0.13454 0.75114 0.0
C31 C 0.84473 0.89534 0.75779 0.0
O32 O 0.8224 0.95781 0.74533 0.0
O33 O 0.10764 0.00047 0.68232 0.0
C34 C 0.13571 0.12346 0.77851 0.0
O35 O 0.12573 0.03766 0.78215 0.0
C36 C 0.91746 0.10947 0.67709 0.0
O37 O 0.96381 0.18122 0.70316 0.0
O38 O 0.92536 0.90358 0.7478 0.0
C39 C 0.90397 0.19204 0.28225 0.0
C40 C -0.01731 0.21818 0.30791 0.0
C41 C 0.90224 0.26162 0.25978 0.0
C42 C 0.97924 0.35879 0.26244 0.0
C43 C 0.05982 0.31563 0.31057 0.0
C44 C 0.05758 0.38554 0.28826 0.0
C45 C 0.97662 0.43304 0.23928 0.0
C46 C 0.01973 0.24093 0.15217 0.0
C47 C 0.94478 0.19335 0.1238 0.0
C48 C 0.0243 0.31392 0.17712 0.0
C49 C 0.95352 0.34021 0.17445 0.0
C50 C 0.87322 0.21888 0.12155 0.0
C51 C 0.87801 0.29216 0.1465 0.0
C52 C 0.9618 0.42267 0.19842 0.0
C53 C 0.0605 0.816 0.15331 0.0
C54 C -0.0179 0.79485 0.12845 0.0
C55 C 0.05466 0.74452 0.17707 0.0
C56 C 0.97127 0.65061 0.1756 0.0
C57 C 0.89851 0.70097 0.12734 0.0
C58 C 0.89381 0.62901 0.1503 0.0
C59 C 0.96715 0.57345 0.19879 0.0
C60 C 0.88105 0.73744 0.2813 0.0
C61 C 0.9538 0.79698 0.30902 0.0
C62 C 0.88949 0.66849 0.25833 0.0
C63 C 0.97036 0.6573 0.26289 0.0
C64 C 0.03472 0.78556 0.31354 0.0
C65 C 0.04228 0.71546 0.29097 0.0
C66 C 0.97668 0.58145 0.23966 0.0
H67 H 0.8432 0.11768 0.27957 0.0
H68 H 0.84011 0.23967 0.24064 0.0
H69 H 0.12109 0.33812 0.33026 0.0
H70 H 0.11736 0.46042 0.29093 0.0
H71 H 0.07628 0.22329 0.15463 0.0
H72 H 0.08471 0.3516 0.19772 0.0
H73 H 0.81482 0.18393 0.09997 0.0
H74 H 0.82311 0.31199 0.14374 0.0
H75 H 0.12545 0.88796 0.15479 0.0
H76 H 0.11574 0.76196 0.19614 0.0
H77 H 0.83719 0.68272 0.10828 0.0
H78 H 0.82935 0.55669 0.14858 0.0
H79 H 0.81794 0.74449 0.27716 0.0
H80 H 0.83199 0.62278 0.23737 0.0
H81 H 0.09169 0.83 0.33488 0.0
H82 H 0.10463 0.70717 0.2952 0.0
N83 N -0.01732 0.51177 0.25847 0.0
N84 N 0.95852 0.49381 0.17971 0.0
C85 C 0.87058 0.15539 0.49223 0.0
C86 C 0.85085 0.07938 0.46508 0.0
C87 C 0.79573 0.15301 0.51417 0.0
C88 C 0.69954 0.0742 0.50971 0.0
C89 C 0.75438 0.00063 0.46044 0.0
C90 C 0.67922 -0.00153 0.4824 0.0
C91 C 0.61993 0.07275 0.53251 0.0
C92 C 0.80249 0.03396 0.62016 0.0
C93 C 0.84794 0.1093 0.64895 0.0
C94 C 0.7324 0.02973 0.59493 0.0
C95 C 0.70694 0.10122 0.59771 0.0
C96 C 0.8231 0.18142 0.65146 0.0
C97 C 0.75261 0.17694 0.62621 0.0
C98 C 0.62719 0.09272 0.57319 0.0
C99 C 0.23174 -0.00423 0.62128 0.0
C100 C 0.25189 0.07918 0.64381 0.0
C101 C 0.30273 -0.00231 0.59668 0.0
C102 C 0.39519 0.0825 0.59479 0.0
C103 C 0.34413 0.16426 0.64138 0.0
C104 C 0.41561 0.16542 0.61748 0.0
C105 C 0.47339 0.08248 0.57191 0.0
C106 C 0.28677 0.11327 0.48238 0.0
C107 C 0.22989 0.02672 0.45995 0.0
C108 C 0.36232 0.12409 0.50641 0.0
C109 C 0.38293 0.04919 0.50781 0.0
C110 C 0.25034 0.95168 0.46176 0.0
C111 C 0.32706 0.96339 0.4851 0.0
C112 C 0.46558 0.06183 0.53144 0.0
H113 H 0.94389 0.21749 0.49637 0.0
H114 H 0.81295 0.21357 0.5343 0.0
H115 H 0.73674 0.94135 0.43955 0.0
H116 H 0.6053 0.93739 0.47826 0.0
H117 H 0.81966 0.97701 0.61751 0.0
H118 H 0.69624 0.96904 0.57394 0.0
H119 H 0.85651 0.24013 0.67341 0.0
H120 H 0.73317 0.23226 0.62909 0.0
H121 H 0.16106 0.92944 0.62248 0.0
H122 H 0.28633 0.93241 0.57982 0.0
H123 H 0.36175 0.22952 0.65851 0.0
H124 H 0.48698 0.23109 0.6167 0.0
H125 H 0.27241 0.17211 0.48157 0.0
H126 H 0.40571 0.19148 0.52339 0.0
H127 H 0.20806 0.88438 0.44462 0.0
H128 H 0.34244 0.90518 0.48563 0.0
N129 N 0.53898 0.05745 0.51316 0.0
N130 N 0.55388 0.09734 0.59128 0.0
C131 C 0.25742 0.1942 0.83349 0.0
C132 C 0.20608 0.20729 0.80367 0.0
C133 C 0.32975 0.27407 0.85528 0.0
C134 C 0.35146 0.36851 0.84795 0.0
C135 C 0.22691 0.30176 0.79675 0.0
C136 C 0.29941 0.38167 0.81856 0.0
C137 C 0.4333 0.45419 0.8686 0.0
C138 C 0.20877 0.30784 0.9604 0.0
C139 C 0.23227 0.25615 0.98577 0.0
C140 C 0.27849 0.37358 0.93532 0.0
C141 C 0.37344 0.38987 0.93544 0.0
C142 C 0.32728 0.27191 0.9857 0.0
C143 C 0.39787 0.33951 0.96106 0.0
C144 C 0.44714 0.46124 0.90935 0.0
C145 C 0.77191 0.87783 0.9373 0.0
C146 C 0.8202 0.86513 0.96841 0.0
C147 C 0.69851 0.79714 0.91605 0.0
C148 C 0.67381 0.70234 0.92487 0.0
C149 C 0.79387 0.77018 0.97769 0.0
C150 C 0.72152 0.68981 0.95615 0.0
C151 C 0.59353 0.61547 0.90392 0.0
C152 C 0.81173 0.77676 0.80965 0.0
C153 C 0.77761 0.81919 0.78403 0.0
C154 C 0.74801 0.70863 0.83586 0.0
C155 C 0.6492 0.68126 0.83642 0.0
C156 C 0.67854 0.79094 0.78457 0.0
C157 C 0.61472 0.72169 0.81017 0.0
C158 C 0.58003 0.6077 0.86304 0.0
H159 H 0.24353 0.12245 0.83942 0.0
H160 H 0.37076 0.26211 0.87698 0.0
H161 H 0.18892 0.31432 0.77389 0.0
H162 H 0.31556 0.45401 0.8122 0.0
H163 H 0.13608 0.29703 0.95969 0.0
H164 H 0.25856 0.41256 0.91605 0.0
H165 H 0.34739 0.23339 0.00512 0.0
H166 H 0.47109 0.35167 0.96163 0.0
H167 H 0.78974 0.94996 0.92973 0.0
H168 H 0.65997 0.8091 0.89327 0.0
H169 H 0.82958 0.75771 1.00149 0.0
H170 H 0.70292 0.61755 0.96394 0.0
H171 H 0.88784 0.79752 0.80993 0.0
H172 H 0.77559 0.67694 0.85551 0.0
H173 H 0.6501 0.82207 0.76504 0.0
H174 H 0.53853 0.70075 0.80992 0.0
N175 N 0.50013 0.52778 0.84703 0.0
N176 N 0.52667 0.5414 0.92549 0.0
loop_
_geom_bond_atom_site_label_1
_geom_bond_atom_site_label_2
_geom_bond_distance
_geom_bond_site_symmetry_2
_ccdc_geom_bond_type
C0 O1 1.158 . S
C0 O7 1.185 . S
O1 C0 1.158 . S
O2 Zn3 1.899 . S
O2 C10 1.284 1_455 S
Zn3 O2 1.899 . S
Zn3 O4 2.032 1_445 S
Zn3 O7 2.086 1_545 S
Zn3 O12 1.977 . S
O4 Zn3 2.032 1_665 S
O4 C8 1.278 1_554 S
C5 O6 1.203 . S
C5 O12 1.268 . S
O6 C5 1.203 . S
O7 C0 1.185 . S
O7 Zn3 2.086 1_565 S
C8 O4 1.278 1_556 S
C8 O9 1.211 1_565 S
O9 C8 1.211 1_545 S
C10 O2 1.284 1_655 S
C10 O11 1.273 . S
O11 C10 1.273 . S
O12 Zn3 1.977 . S
O12 C5 1.268 . S
C13 O14 1.160 . S
C13 O20 1.185 . S
O14 C13 1.160 . S
O15 Zn16 1.899 1_565 S
O15 C23 1.284 1_455 S
Zn16 O15 1.899 1_545 S
Zn16 O17 2.032 1_455 S
Zn16 O20 2.086 . S
Zn16 O25 1.977 . S
O17 Zn16 2.032 1_655 S
O17 C21 1.278 . S
C18 O19 1.203 1_545 S
C18 O25 1.267 . S
O19 C18 1.203 1_565 S
O20 C13 1.185 . S
O20 Zn16 2.086 . S
C21 O17 1.278 . S
C21 O22 1.211 1_545 S
O22 C21 1.211 1_565 S
C23 O15 1.284 1_655 S
C23 O24 1.273 . S
O24 C23 1.273 . S
O25 Zn16 1.977 . S
O25 C18 1.267 . S
C26 O27 1.163 . S
C26 O33 1.184 1_545 S
O27 C26 1.163 . S
O28 Zn29 1.899 1_655 S
O28 C36 1.284 . S
Zn29 O28 1.899 1_455 S
Zn29 O30 2.032 . S
Zn29 O33 2.086 1_545 S
Zn29 O38 1.977 1_445 S
O30 Zn29 2.032 . S
O30 C34 1.278 . S
C31 O32 1.203 . S
C31 O38 1.267 . S
O32 C31 1.203 . S
O33 C26 1.184 1_565 S
O33 Zn29 2.086 1_565 S
C34 O30 1.278 . S
C34 O35 1.211 . S
O35 C34 1.211 . S
C36 O28 1.284 . S
C36 O37 1.273 . S
O37 C36 1.273 . S
O38 Zn29 1.977 1_665 S
O38 C31 1.267 . S
C39 C40 1.384 1_655 S
C39 C41 1.384 . S
C39 H67 0.931 . S
C40 C39 1.384 1_455 S
C40 C43 1.382 . S
C41 C39 1.384 . S
C41 C42 1.381 1_655 S
C41 H68 0.930 . S
C42 C41 1.381 1_455 S
C42 C44 1.381 . S
C42 C45 1.487 . S
C43 C40 1.382 . S
C43 C44 1.387 . S
C43 H69 0.930 . S
C44 C42 1.381 . S
C44 C43 1.387 . S
C44 H70 0.931 . S
C45 C42 1.487 . S
C45 C52 1.399 . S
C45 N83 1.343 . S
C46 C47 1.384 . S
C46 C48 1.384 . S
C46 H71 0.931 . S
C47 C46 1.384 . S
C47 C50 1.382 1_455 S
C48 C46 1.384 . S
C48 C49 1.381 . S
C48 H72 0.930 . S
C49 C48 1.381 . S
C49 C51 1.381 1_455 S
C49 C52 1.487 . S
C50 C47 1.382 1_655 S
C50 C51 1.387 . S
C50 H73 0.930 . S
C51 C49 1.381 1_655 S
C51 C50 1.387 . S
C51 H74 0.931 . S
C52 C45 1.399 . S
C52 C49 1.487 . S
C52 N84 1.343 . S
C53 C54 1.384 . S
C53 C55 1.384 . S
C53 H75 0.931 . S
C54 C53 1.384 . S
C54 C57 1.382 1_455 S
C55 C53 1.384 . S
C55 C56 1.381 . S
C55 H76 0.930 . S
C56 C55 1.381 . S
C56 C58 1.381 1_455 S
C56 C59 1.487 . S
C57 C54 1.382 1_655 S
C57 C58 1.387 . S
C57 H77 0.930 . S
C58 C56 1.381 1_655 S
C58 C57 1.387 . S
C58 H78 0.931 . S
C59 C56 1.487 . S
C59 C66 1.399 . S
C59 N84 1.343 . S
C60 C61 1.384 1_655 S
C60 C62 1.384 . S
C60 H79 0.931 . S
C61 C60 1.384 1_455 S
C61 C64 1.382 . S
C62 C60 1.384 . S
C62 C63 1.381 1_655 S
C62 H80 0.930 . S
C63 C62 1.381 1_455 S
C63 C65 1.381 . S
C63 C66 1.487 . S
C64 C61 1.382 . S
C64 C65 1.387 . S
C64 H81 0.930 . S
C65 C63 1.381 . S
C65 C64 1.387 . S
C65 H82 0.931 . S
C66 C59 1.399 . S
C66 C63 1.487 . S
C66 N83 1.343 . S
H67 C39 0.931 . S
H68 C41 0.930 . S
H69 C43 0.930 . S
H70 C44 0.931 . S
H71 C46 0.931 . S
H72 C48 0.930 . S
H73 C50 0.930 . S
H74 C51 0.931 . S
H75 C53 0.931 . S
H76 C55 0.930 . S
H77 C57 0.930 . S
H78 C58 0.931 . S
H79 C60 0.931 . S
H80 C62 0.930 . S
H81 C64 0.930 . S
H82 C65 0.931 . S
N83 C45 1.343 . S
N83 C66 1.343 . S
N84 C52 1.343 . S
N84 C59 1.343 . S
C85 C86 1.384 . S
C85 C87 1.384 . S
C85 H113 0.931 . S
C86 C85 1.384 . S
C86 C89 1.382 1_545 S
C87 C85 1.384 . S
C87 C88 1.381 . S
C87 H114 0.930 . S
C88 C87 1.381 . S
C88 C90 1.381 1_545 S
C88 C91 1.487 . S
C89 C86 1.382 1_565 S
C89 C90 1.387 . S
C89 H115 0.930 . S
C90 C88 1.381 1_565 S
C90 C89 1.387 . S
C90 H116 0.931 . S
C91 C88 1.487 . S
C91 C98 1.399 . S
C91 N129 1.343 . S
C92 C93 1.384 1_565 S
C92 C94 1.384 . S
C92 H117 0.931 . S
C93 C92 1.384 1_545 S
C93 C96 1.382 . S
C94 C92 1.384 . S
C94 C95 1.381 1_565 S
C94 H118 0.930 . S
C95 C94 1.381 1_545 S
C95 C97 1.381 . S
C95 C98 1.487 . S
C96 C93 1.382 . S
C96 C97 1.387 . S
C96 H119 0.930 . S
C97 C95 1.381 . S
C97 C96 1.387 . S
C97 H120 0.931 . S
C98 C91 1.399 . S
C98 C95 1.487 . S
C98 N130 1.343 . S
C99 C100 1.384 1_565 S
C99 C101 1.384 . S
C99 H121 0.931 . S
C100 C99 1.384 1_545 S
C100 C103 1.382 . S
C101 C99 1.384 . S
C101 C102 1.381 1_565 S
C101 H122 0.930 . S
C102 C101 1.381 1_545 S
C102 C104 1.381 . S
C102 C105 1.487 . S
C103 C100 1.382 . S
C103 C104 1.387 . S
C103 H123 0.930 . S
C104 C102 1.381 . S
C104 C103 1.387 . S
C104 H124 0.931 . S
C105 C102 1.487 . S
C105 C112 1.399 . S
C105 N130 1.343 . S
C106 C107 1.384 . S
C106 C108 1.384 . S
C106 H125 0.931 . S
C107 C106 1.384 . S
C107 C110 1.382 1_545 S
C108 C106 1.384 . S
C108 C109 1.381 . S
C108 H126 0.930 . S
C109 C108 1.381 . S
C109 C111 1.381 1_545 S
C109 C112 1.487 . S
C110 C107 1.382 1_565 S
C110 C111 1.387 . S
C110 H127 0.930 . S
C111 C109 1.381 1_565 S
C111 C110 1.387 . S
C111 H128 0.931 . S
C112 C105 1.399 . S
C112 C109 1.487 . S
C112 N129 1.343 . S
H113 C85 0.931 . S
H114 C87 0.930 . S
H115 C89 0.930 . S
H116 C90 0.931 . S
H117 C92 0.931 . S
H118 C94 0.930 . S
H119 C96 0.930 . S
H120 C97 0.931 . S
H121 C99 0.931 . S
H122 C101 0.930 . S
H123 C103 0.930 . S
H124 C104 0.931 . S
H125 C106 0.931 . S
H126 C108 0.930 . S
H127 C110 0.930 . S
H128 C111 0.931 . S
N129 C91 1.343 . S
N129 C112 1.343 . S
N130 C98 1.343 . S
N130 C105 1.343 . S
C131 C132 1.384 . S
C131 C133 1.384 . S
C131 H159 0.931 . S
C132 C131 1.384 . S
C132 C135 1.382 . S
C133 C131 1.384 . S
C133 C134 1.381 . S
C133 H160 0.930 . S
C134 C133 1.381 . S
C134 C136 1.381 . S
C134 C137 1.487 . S
C135 C132 1.382 . S
C135 C136 1.387 . S
C135 H161 0.930 . S
C136 C134 1.381 . S
C136 C135 1.387 . S
C136 H162 0.931 . S
C137 C134 1.487 . S
C137 C144 1.399 . S
C137 N175 1.343 . S
C138 C139 1.384 . S
C138 C140 1.384 . S
C138 H163 0.931 . S
C139 C138 1.384 . S
C139 C142 1.382 . S
C140 C138 1.384 . S
C140 C141 1.381 . S
C140 H164 0.930 . S
C141 C140 1.381 . S
C141 C143 1.381 . S
C141 C144 1.487 . S
C142 C139 1.382 . S
C142 C143 1.387 . S
C142 H165 0.930 . S
C143 C141 1.381 . S
C143 C142 1.387 . S
C143 H166 0.931 . S
C144 C137 1.399 . S
C144 C141 1.487 . S
C144 N176 1.343 . S
C145 C146 1.384 . S
C145 C147 1.384 . S
C145 H167 0.931 . S
C146 C145 1.384 . S
C146 C149 1.382 . S
C147 C145 1.384 . S
C147 C148 1.381 . S
C147 H168 0.930 . S
C148 C147 1.381 . S
C148 C150 1.381 . S
C148 C151 1.487 . S
C149 C146 1.382 . S
C149 C150 1.387 . S
C149 H169 0.930 1_556 S
C150 C148 1.381 . S
C150 C149 1.387 . S
C150 H170 0.931 . S
C151 C148 1.487 . S
C151 C158 1.399 . S
C151 N176 1.343 . S
C152 C153 1.384 . S
C152 C154 1.384 . S
C152 H171 0.931 . S
C153 C152 1.384 . S
C153 C156 1.382 . S
C154 C152 1.384 . S
C154 C155 1.381 . S
C154 H172 0.930 . S
C155 C154 1.381 . S
C155 C157 1.381 . S
C155 C158 1.487 . S
C156 C153 1.382 . S
C156 C157 1.387 . S
C156 H173 0.930 . S
C157 C155 1.381 . S
C157 C156 1.387 . S
C157 H174 0.931 . S
C158 C151 1.399 . S
C158 C155 1.487 . S
C158 N175 1.343 . S
H159 C131 0.931 . S
H160 C133 0.930 . S
H161 C135 0.930 . S
H162 C136 0.931 . S
H163 C138 0.931 . S
H164 C140 0.930 . S
H165 C142 0.930 . S
H166 C143 0.931 . S
H167 C145 0.931 . S
H168 C147 0.930 . S
H169 C149 0.930 1_554 S
H170 C150 0.931 . S
H171 C152 0.931 . S
H172 C154 0.930 . S
H173 C156 0.930 . S
H174 C157 0.931 . S
N175 C137 1.343 . S
N175 C158 1.343 . S
N176 C144 1.343 . S
N176 C151 1.343 . S
C47 C10 1.469 1_455 S
C21 C86 1.475 . S
C31 C153 1.460 . S
C0 C54 1.487 . S
C107 C18 1.389 . S
C34 C132 1.387 . S
C93 C36 1.543 . S
C8 C146 1.391 . S
C61 C23 1.496 1_455 S
C100 C26 1.330 . S
C139 C5 1.435 1_556 S
C13 C40 1.470 . S
