# Generated by pormake.
# Topology rtl, (3,6)-cn, num edge types: 1
# Building blocks:
#     Node 0, Type 0, BuildingBlock: BELTOD_clean_linker_0, # of connection points: 3
#     Node 1, Type 0, BuildingBlock: BELTOD_clean_linker_0, # of connection points: 3
#     Node 2, Type 0, BuildingBlock: BELTOD_clean_linker_0, # of connection points: 3
#     Node 3, Type 0, BuildingBlock: BELTOD_clean_linker_0, # of connection points: 3
#     Node 4, Type 1, BuildingBlock: LEVNOQ01_clean_sbu_1, # of connection points: 6
#     Node 5, Type 1, BuildingBlock: LEVNOQ01_clean_sbu_1, # of connection points: 6
#     Edge 6, Type (0, 1), None
#     Edge 7, Type (0, 1), None
#     Edge 8, Type (0, 1), None
#     Edge 9, Type (0, 1), None
#     Edge 10, Type (0, 1), None
#     Edge 11, Type (0, 1), None
#     Edge 12, Type (0, 1), None
#     Edge 13, Type (0, 1), None
#     Edge 14, Type (0, 1), None
#     Edge 15, Type (0, 1), None
#     Edge 16, Type (0, 1), None
#     Edge 17, Type (0, 1), None
# Relax obj value: 0.024
# Max RMSD: 0.059
# Mean RMSD: 0.042
data_MOF--net-rtl--node1-LEVNOQ01_clean_sbu_1--node2-BELTOD_clean_linker_0--edge1-none
_symmetry_space_group_name_H-M    P1
_symmetry_Int_Tables_number       1
_symmetry_cell_setting            triclinic
loop_
_symmetry_equiv_pos_as_xyz
'x, y, z'
_cell_length_a     18.080597
_cell_length_b     20.39782
_cell_length_c     14.028073
_cell_angle_alpha  89.061376
_cell_angle_beta   99.455141
_cell_angle_gamma 89.938281
loop_
_atom_site_label
_atom_site_type_symbol
_atom_site_fract_x
_atom_site_fract_y
_atom_site_fract_z
_atom_type_partial_charge
P0 P 0.35395 0.93239 0.11863 0.0
H1 H 0.35616 0.97962 0.31712 0.0
H2 H 0.2574 0.98633 0.41867 0.0
H3 H 0.09913 0.90542 0.18543 0.0
H4 H 0.19596 0.89892 0.08721 0.0
H5 H 0.50016 0.88495 0.09168 0.0
H6 H 0.53541 0.77664 0.04319 0.0
H7 H 0.33205 0.69609 0.11853 0.0
H8 H 0.2975 0.80391 0.1696 0.0
H9 H 0.29786 0.04804 0.00868 0.0
H10 H 0.3027 0.84005 0.9581 0.0
O11 O 0.41911 0.99008 0.14521 0.0
H12 H 0.20125 0.06178 0.86741 0.0
H13 H 0.20431 0.85375 0.81644 0.0
C14 C 0.28312 0.93983 0.19408 0.0
C15 C 0.2999 0.9637 0.28842 0.0
C16 C 0.24364 0.96724 0.34636 0.0
C17 C 0.17034 0.94629 0.31044 0.0
C18 C 0.15471 0.92208 0.21599 0.0
C19 C 0.21034 0.91873 0.15889 0.0
C20 C 0.39597 0.85258 0.13317 0.0
C21 C 0.4655 0.84338 0.10393 0.0
C22 C 0.48584 0.78141 0.07681 0.0
C23 C 0.4362 0.72873 0.07741 0.0
C24 C 0.37166 0.736 0.11935 0.0
C25 C 0.35167 0.79795 0.14763 0.0
C26 C 0.30723 0.94323 0.99517 0.0
C27 C 0.28017 0.00562 0.9654 0.0
C28 C 0.2242 0.01316 0.88504 0.0
C29 C 0.19378 0.95834 0.83285 0.0
C30 C 0.22628 0.89656 0.85604 0.0
C31 C 0.28267 0.88897 0.93727 0.0
P32 P 0.82446 0.58263 0.60318 0.0
H33 H 0.8414 0.53696 0.41016 0.0
H34 H 0.74929 0.51098 0.26611 0.0
H35 H 0.56997 0.57262 0.41271 0.0
H36 H 0.66138 0.60001 0.555 0.0
H37 H 0.97431 0.64308 0.64647 0.0
H38 H 0.0182 0.75306 0.60725 0.0
H39 H 0.78914 0.81349 0.51026 0.0
H40 H 0.74569 0.70489 0.54891 0.0
H41 H 0.75458 0.46866 0.67888 0.0
H42 H 0.78571 0.67339 0.7483 0.0
O43 O 0.89573 0.52968 0.61184 0.0
H44 H 0.66022 0.4606 0.78641 0.0
H45 H 0.69034 0.66577 0.85115 0.0
C46 C 0.75809 0.56793 0.49462 0.0
C47 C 0.78236 0.54539 0.41095 0.0
C48 C 0.72998 0.53129 0.3286 0.0
C49 C 0.65294 0.53972 0.32936 0.0
C50 C 0.62916 0.56557 0.4111 0.0
C51 C 0.68142 0.58042 0.49265 0.0
C52 C 0.85712 0.66535 0.59621 0.0
C53 C 0.93363 0.68055 0.61871 0.0
C54 C 0.95856 0.74342 0.598 0.0
C55 C 0.90675 0.79084 0.55531 0.0
C56 C 0.82986 0.77734 0.54322 0.0
C57 C 0.80518 0.71502 0.56367 0.0
C58 C 0.77654 0.5717 0.70465 0.0
C59 C 0.74322 0.51109 0.71969 0.0
C60 C 0.68951 0.50647 0.7808 0.0
C61 C 0.66847 0.56276 0.82586 0.0
C62 C 0.70611 0.62189 0.81669 0.0
C63 C 0.76041 0.6262 0.75729 0.0
P64 P 0.83395 0.21111 0.98474 0.0
H65 H 0.80405 0.23479 0.77805 0.0
H66 H 0.82635 0.16586 0.64589 0.0
H67 H 0.85609 -0.0018 0.83862 0.0
H68 H 0.83031 0.06652 0.97089 0.0
H69 H 0.81051 0.35013 0.01687 0.0
H70 H 0.69761 0.40894 0.04248 0.0
H71 H 0.56477 0.23714 0.96 0.0
H72 H 0.67681 0.17919 0.93095 0.0
H73 H 0.97177 0.16354 0.10176 0.0
H74 H 0.73622 0.1644 0.12209 0.0
O75 O 0.90679 0.25932 0.9742 0.0
H76 H -0.00131 0.10291 0.25533 0.0
H77 H 0.76298 0.10175 0.2745 0.0
C78 C 0.82059 0.15626 0.88505 0.0
C79 C 0.81151 0.18248 0.791 0.0
C80 C 0.82176 0.14238 0.71459 0.0
C81 C 0.84875 0.07808 0.73455 0.0
C82 C 0.83914 0.0487 0.82285 0.0
C83 C 0.82708 0.08825 0.89943 0.0
C84 C 0.75157 0.26022 0.97396 0.0
C85 C 0.75662 0.3262 2e-05 0.0
C86 C 0.69223 0.35992 0.01346 0.0
C87 C 0.62371 0.32667 0.0039 0.0
C88 C 0.61757 0.26319 0.9674 0.0
C89 C 0.68148 0.23011 0.95174 0.0
C90 C 0.85227 0.16959 0.10095 0.0
C91 C 0.92603 0.15198 0.14018 0.0
C92 C 0.94144 0.11793 0.22844 0.0
C93 C 0.88305 0.09953 0.27806 0.0
C94 C 0.80902 0.11678 0.23861 0.0
C95 C 0.79378 0.15211 0.15104 0.0
P96 P 0.29788 0.31781 0.49124 0.0
H97 H 0.36836 0.28754 0.69134 0.0
H98 H 0.39536 0.35734 0.83315 0.0
H99 H 0.25876 0.51117 0.67717 0.0
H100 H 0.23305 0.44165 0.53668 0.0
H101 H 0.26778 0.18385 0.42354 0.0
H102 H 0.16435 0.11157 0.44492 0.0
H103 H 0.03735 0.27873 0.51416 0.0
H104 H 0.14122 0.35034 0.4944 0.0
H105 H 0.40527 0.42029 0.47268 0.0
H106 H 0.20415 0.34418 0.30219 0.0
O107 O 0.37165 0.26743 0.50065 0.0
H108 H 0.43093 0.4835 0.33273 0.0
H109 H 0.23079 0.40598 0.16182 0.0
C110 C 0.30112 0.36061 0.60271 0.0
C111 C 0.34305 0.33581 0.68873 0.0
C112 C 0.3579 0.3756 0.77 0.0
C113 C 0.33079 0.44051 0.76557 0.0
C114 C 0.28151 0.46185 0.68264 0.0
C115 C 0.26693 0.4222 0.60188 0.0
C116 C 0.21372 0.27116 0.46556 0.0
C117 C 0.21679 0.20508 0.44076 0.0
C118 C 0.15699 0.16397 0.45104 0.0
C119 C 0.09608 0.18924 0.48932 0.0
C120 C 0.08583 0.25765 0.48958 0.0
C121 C 0.14574 0.29862 0.48029 0.0
C122 C 0.30398 0.37656 0.39691 0.0
C123 C 0.36521 0.4192 0.40616 0.0
C124 C 0.37902 0.45625 0.3266 0.0
C125 C 0.3327 0.44935 0.23651 0.0
C126 C 0.2667 0.41253 0.23081 0.0
C127 C 0.25241 0.37612 0.3107 0.0
O128 O 0.97263 0.10603 0.75118 0.0
Mg129 Mg 0.0814 0.10723 0.73208 0.0
O130 O 0.93547 0.02762 0.64435 0.0
Mg131 Mg 0.03016 -0.00253 0.5523 0.0
O132 O 0.09272 0.09244 0.58624 0.0
O133 O 0.04622 0.18243 0.63245 0.0
O134 O 0.11893 0.9716 0.45384 0.0
O135 O 0.96041 0.05688 0.4195 0.0
Mg136 Mg 0.95091 0.93223 0.39981 0.0
O137 O 0.96728 0.89494 0.53756 0.0
O138 O 0.0437 0.93324 0.32764 0.0
O139 O 0.86425 -0.00076 0.35379 0.0
O140 O 0.90883 0.84264 0.40564 0.0
C141 C 0.12269 0.96721 0.76503 0.0
C142 C 0.92276 0.0683 0.70862 0.0
C143 C 0.06729 0.15043 0.56417 0.0
C144 C 0.10855 0.95025 0.36762 0.0
C145 C 0.89912 0.05272 0.35997 0.0
C146 C 0.93037 0.84481 0.49781 0.0
O147 O 0.07857 0.00994 0.78679 0.0
O148 O 0.11544 0.94891 0.67796 0.0
O149 O 0.56368 0.46028 0.26942 0.0
Mg150 Mg 0.49857 0.39259 0.17044 0.0
O151 O 0.5869 0.54056 0.16791 0.0
Mg152 Mg 0.50007 0.5126 0.03651 0.0
O153 O 0.54339 0.40827 0.05119 0.0
O154 O 0.55159 0.31161 0.1278 0.0
O155 O 0.41395 0.47159 0.90813 0.0
O156 O 0.59076 0.52696 0.93774 0.0
Mg157 Mg 0.44474 0.61037 0.87553 0.0
O158 O 0.46013 0.62068 0.02215 0.0
O159 O 0.35802 0.54941 0.81248 0.0
O160 O 0.54855 0.60401 0.82877 0.0
O161 O 0.41534 0.69975 0.91431 0.0
C162 C 0.36762 0.45516 0.14981 0.0
C163 C 0.59747 0.51297 0.25153 0.0
C164 C 0.56807 0.34898 0.05943 0.0
C165 C 0.36544 0.48943 0.83581 0.0
C166 C 0.59913 0.56413 0.86637 0.0
C167 C 0.43606 0.68019 0.00265 0.0
O168 O 0.38289 0.40095 0.11657 0.0
O169 O 0.412 0.50251 0.14195 0.0
loop_
_geom_bond_atom_site_label_1
_geom_bond_atom_site_label_2
_geom_bond_distance
_geom_bond_site_symmetry_2
_ccdc_geom_bond_type
P0 O11 1.490 . S
P0 C14 1.812 . S
P0 C20 1.803 . S
P0 C26 1.819 1_554 S
H1 C15 0.941 . S
H2 C16 0.939 1_545 S
H3 C18 0.940 . S
H4 C19 0.940 . S
H5 C21 0.939 . S
H6 C22 0.942 . S
H7 C24 0.940 . S
H8 C25 0.939 . S
H9 C27 0.941 1_554 S
H10 C31 0.939 . S
O11 P0 1.490 . S
H12 C28 0.939 . S
H13 C30 0.940 . S
C14 P0 1.812 . S
C14 C15 1.389 . S
C14 C19 1.391 . S
C15 H1 0.941 . S
C15 C14 1.389 . S
C15 C16 1.397 . S
C16 H2 0.939 1_565 S
C16 C15 1.397 . S
C16 C17 1.378 . S
C17 C16 1.378 . S
C17 C18 1.378 . S
C18 H3 0.940 . S
C18 C17 1.378 . S
C18 C19 1.396 . S
C19 H4 0.940 . S
C19 C14 1.391 . S
C19 C18 1.396 . S
C20 P0 1.803 . S
C20 C21 1.378 . S
C20 C25 1.400 . S
C21 H5 0.939 . S
C21 C20 1.378 . S
C21 C22 1.361 . S
C22 H6 0.942 . S
C22 C21 1.361 . S
C22 C23 1.369 . S
C23 C22 1.369 . S
C23 C24 1.404 . S
C24 H7 0.940 . S
C24 C23 1.404 . S
C24 C25 1.389 . S
C25 H8 0.939 . S
C25 C20 1.400 . S
C25 C24 1.389 . S
C26 P0 1.819 1_556 S
C26 C27 1.391 1_565 S
C26 C31 1.391 . S
C27 H9 0.941 1_556 S
C27 C26 1.391 1_545 S
C27 C28 1.396 . S
C28 H12 0.939 . S
C28 C27 1.396 . S
C28 C29 1.397 1_545 S
C29 C28 1.397 1_565 S
C29 C30 1.385 . S
C30 H13 0.940 . S
C30 C29 1.385 . S
C30 C31 1.388 . S
C31 H10 0.939 . S
C31 C26 1.391 . S
C31 C30 1.388 . S
P32 O43 1.490 . S
P32 C46 1.812 . S
P32 C52 1.803 . S
P32 C58 1.819 . S
H33 C47 0.941 . S
H34 C48 0.939 . S
H35 C50 0.940 . S
H36 C51 0.940 . S
H37 C53 0.939 . S
H38 C54 0.942 1_455 S
H39 C56 0.940 . S
H40 C57 0.939 . S
H41 C59 0.941 . S
H42 C63 0.939 . S
O43 P32 1.490 . S
H44 C60 0.939 . S
H45 C62 0.940 . S
C46 P32 1.812 . S
C46 C47 1.389 . S
C46 C51 1.391 . S
C47 H33 0.941 . S
C47 C46 1.389 . S
C47 C48 1.397 . S
C48 H34 0.939 . S
C48 C47 1.397 . S
C48 C49 1.378 . S
C49 C48 1.378 . S
C49 C50 1.378 . S
C50 H35 0.940 . S
C50 C49 1.378 . S
C50 C51 1.396 . S
C51 H36 0.940 . S
C51 C46 1.391 . S
C51 C50 1.396 . S
C52 P32 1.803 . S
C52 C53 1.378 . S
C52 C57 1.400 . S
C53 H37 0.939 . S
C53 C52 1.378 . S
C53 C54 1.361 . S
C54 H38 0.942 1_655 S
C54 C53 1.361 . S
C54 C55 1.369 . S
C55 C54 1.369 . S
C55 C56 1.404 . S
C56 H39 0.940 . S
C56 C55 1.404 . S
C56 C57 1.389 . S
C57 H40 0.939 . S
C57 C52 1.400 . S
C57 C56 1.389 . S
C58 P32 1.819 . S
C58 C59 1.391 . S
C58 C63 1.391 . S
C59 H41 0.941 . S
C59 C58 1.391 . S
C59 C60 1.396 . S
C60 H44 0.939 . S
C60 C59 1.396 . S
C60 C61 1.397 . S
C61 C60 1.397 . S
C61 C62 1.385 . S
C62 H45 0.940 . S
C62 C61 1.385 . S
C62 C63 1.388 . S
C63 H42 0.939 . S
C63 C58 1.391 . S
C63 C62 1.388 . S
P64 O75 1.490 . S
P64 C78 1.812 1_554 S
P64 C84 1.803 1_554 S
P64 C90 1.819 . S
H65 C79 0.941 . S
H66 C80 0.939 . S
H67 C82 0.940 . S
H68 C83 0.940 . S
H69 C85 0.939 . S
H70 C86 0.942 . S
H71 C88 0.940 . S
H72 C89 0.939 . S
H73 C91 0.941 . S
H74 C95 0.939 . S
O75 P64 1.490 . S
H76 C92 0.939 . S
H77 C94 0.940 . S
C78 P64 1.812 1_556 S
C78 C79 1.389 . S
C78 C83 1.391 . S
C79 H65 0.941 . S
C79 C78 1.389 . S
C79 C80 1.397 . S
C80 H66 0.939 . S
C80 C79 1.397 . S
C80 C81 1.378 . S
C81 C80 1.378 . S
C81 C82 1.378 . S
C82 H67 0.940 . S
C82 C81 1.378 . S
C82 C83 1.396 . S
C83 H68 0.940 . S
C83 C78 1.391 . S
C83 C82 1.396 . S
C84 P64 1.803 1_556 S
C84 C85 1.378 1_556 S
C84 C89 1.400 . S
C85 H69 0.939 . S
C85 C84 1.378 1_554 S
C85 C86 1.361 . S
C86 H70 0.942 . S
C86 C85 1.361 . S
C86 C87 1.369 1_554 S
C87 C86 1.369 1_556 S
C87 C88 1.404 . S
C88 H71 0.940 . S
C88 C87 1.404 . S
C88 C89 1.389 . S
C89 H72 0.939 . S
C89 C84 1.400 . S
C89 C88 1.389 . S
C90 P64 1.819 . S
C90 C91 1.391 . S
C90 C95 1.391 . S
C91 H73 0.941 . S
C91 C90 1.391 . S
C91 C92 1.396 . S
C92 H76 0.939 . S
C92 C91 1.396 . S
C92 C93 1.397 . S
C93 C92 1.397 . S
C93 C94 1.385 . S
C94 H77 0.940 . S
C94 C93 1.385 . S
C94 C95 1.388 . S
C95 H74 0.939 . S
C95 C90 1.391 . S
C95 C94 1.388 . S
P96 O107 1.490 . S
P96 C110 1.812 . S
P96 C116 1.803 . S
P96 C122 1.819 . S
H97 C111 0.941 . S
H98 C112 0.939 . S
H99 C114 0.940 . S
H100 C115 0.940 . S
H101 C117 0.939 . S
H102 C118 0.942 . S
H103 C120 0.940 . S
H104 C121 0.939 . S
H105 C123 0.941 . S
H106 C127 0.939 . S
O107 P96 1.490 . S
H108 C124 0.939 . S
H109 C126 0.940 . S
C110 P96 1.812 . S
C110 C111 1.389 . S
C110 C115 1.391 . S
C111 H97 0.941 . S
C111 C110 1.389 . S
C111 C112 1.397 . S
C112 H98 0.939 . S
C112 C111 1.397 . S
C112 C113 1.378 . S
C113 C112 1.378 . S
C113 C114 1.378 . S
C114 H99 0.940 . S
C114 C113 1.378 . S
C114 C115 1.396 . S
C115 H100 0.940 . S
C115 C110 1.391 . S
C115 C114 1.396 . S
C116 P96 1.803 . S
C116 C117 1.378 . S
C116 C121 1.400 . S
C117 H101 0.939 . S
C117 C116 1.378 . S
C117 C118 1.361 . S
C118 H102 0.942 . S
C118 C117 1.361 . S
C118 C119 1.369 . S
C119 C118 1.369 . S
C119 C120 1.404 . S
C120 H103 0.940 . S
C120 C119 1.404 . S
C120 C121 1.389 . S
C121 H104 0.939 . S
C121 C116 1.400 . S
C121 C120 1.389 . S
C122 P96 1.819 . S
C122 C123 1.391 . S
C122 C127 1.391 . S
C123 H105 0.941 . S
C123 C122 1.391 . S
C123 C124 1.396 . S
C124 H108 0.939 . S
C124 C123 1.396 . S
C124 C125 1.397 . S
C125 C124 1.397 . S
C125 C126 1.385 . S
C126 H109 0.940 . S
C126 C125 1.385 . S
C126 C127 1.388 . S
C127 H106 0.939 . S
C127 C122 1.391 . S
C127 C126 1.388 . S
O128 Mg129 1.990 1_655 S
O128 C142 1.253 . S
Mg129 O128 1.990 1_455 S
Mg129 O132 2.180 . S
Mg129 O133 2.117 . S
Mg129 O147 2.030 . S
O130 Mg131 2.072 1_655 S
O130 C142 1.260 . S
Mg131 O130 2.072 1_455 S
Mg131 O132 2.099 . S
Mg131 O134 2.079 1_545 S
Mg131 O135 2.072 1_455 S
Mg131 O137 2.099 1_445 S
Mg131 O148 2.079 1_545 S
O132 Mg129 2.180 . S
O132 Mg131 2.099 . S
O132 C143 1.279 . S
O133 Mg129 2.117 . S
O133 C143 1.250 . S
O134 Mg131 2.079 1_565 S
O134 C144 1.264 . S
O135 Mg131 2.072 1_655 S
O135 C145 1.260 . S
Mg136 O137 2.180 . S
Mg136 O138 2.030 1_655 S
Mg136 O139 1.990 . S
Mg136 O140 2.117 . S
O137 Mg131 2.099 1_665 S
O137 Mg136 2.180 . S
O137 C146 1.279 . S
O138 Mg136 2.030 1_455 S
O138 C144 1.248 . S
O139 Mg136 1.990 . S
O139 C145 1.253 1_565 S
O140 Mg136 2.117 . S
O140 C146 1.250 . S
C141 O147 1.248 1_565 S
C141 O148 1.264 . S
C142 O128 1.253 . S
C142 O130 1.260 . S
C143 O132 1.279 . S
C143 O133 1.250 . S
C144 O134 1.264 . S
C144 O138 1.248 . S
C145 O135 1.260 . S
C145 O139 1.253 1_545 S
C146 O137 1.279 . S
C146 O140 1.250 . S
O147 Mg129 2.030 . S
O147 C141 1.248 1_545 S
O148 Mg131 2.079 1_565 S
O148 C141 1.264 . S
O149 Mg150 1.990 . S
O149 C163 1.253 . S
Mg150 O149 1.990 . S
Mg150 O153 2.180 . S
Mg150 O154 2.117 . S
Mg150 O168 2.030 . S
O151 Mg152 2.072 . S
O151 C163 1.260 . S
Mg152 O151 2.072 . S
Mg152 O153 2.099 . S
Mg152 O155 2.079 1_554 S
Mg152 O156 2.072 1_554 S
Mg152 O158 2.099 1_554 S
Mg152 O169 2.079 . S
O153 Mg150 2.180 . S
O153 Mg152 2.099 . S
O153 C164 1.279 . S
O154 Mg150 2.117 . S
O154 C164 1.250 . S
O155 Mg152 2.079 1_556 S
O155 C165 1.264 . S
O156 Mg152 2.072 1_556 S
O156 C166 1.260 . S
Mg157 O158 2.180 . S
Mg157 O159 2.030 . S
Mg157 O160 1.990 . S
Mg157 O161 2.117 . S
O158 Mg152 2.099 1_556 S
O158 Mg157 2.180 . S
O158 C167 1.279 1_556 S
O159 Mg157 2.030 . S
O159 C165 1.248 . S
O160 Mg157 1.990 . S
O160 C166 1.253 . S
O161 Mg157 2.117 . S
O161 C167 1.250 1_556 S
C162 O168 1.248 . S
C162 O169 1.264 . S
C163 O149 1.253 . S
C163 O151 1.260 . S
C164 O153 1.279 . S
C164 O154 1.250 . S
C165 O155 1.264 . S
C165 O159 1.248 . S
C166 O156 1.260 . S
C166 O160 1.253 . S
C167 O158 1.279 1_554 S
C167 O161 1.250 1_554 S
O168 Mg150 2.030 . S
O168 C162 1.248 . S
O169 Mg152 2.079 . S
O169 C162 1.264 . S
C143 C119 1.478 . S
C23 C167 1.802 . S
C55 C146 1.896 . S
C87 C164 1.581 1_556 S
C144 C17 2.131 . S
C166 C61 1.945 . S
C93 C145 1.409 . S
C113 C165 1.423 . S
C163 C49 1.624 . S
C142 C81 1.604 . S
C162 C125 1.727 . S
C29 C141 1.766 . S
