# Generated by pormake.
# Topology rtl, (3,6)-cn, num edge types: 1
# Building blocks:
#     Node 0, Type 0, BuildingBlock: BETDAH_clean_linker_0, # of connection points: 3
#     Node 1, Type 0, BuildingBlock: BETDAH_clean_linker_0, # of connection points: 3
#     Node 2, Type 0, BuildingBlock: BETDAH_clean_linker_0, # of connection points: 3
#     Node 3, Type 0, BuildingBlock: BETDAH_clean_linker_0, # of connection points: 3
#     Node 4, Type 1, BuildingBlock: CIFDUS_clean_sbu_1, # of connection points: 6
#     Node 5, Type 1, BuildingBlock: CIFDUS_clean_sbu_1, # of connection points: 6
#     Edge 6, Type (0, 1), BuildingBlock: EYOCIG_clean_linker_4, # of connection points: 2
#     Edge 7, Type (0, 1), BuildingBlock: EYOCIG_clean_linker_4, # of connection points: 2
#     Edge 8, Type (0, 1), BuildingBlock: EYOCIG_clean_linker_4, # of connection points: 2
#     Edge 9, Type (0, 1), BuildingBlock: EYOCIG_clean_linker_4, # of connection points: 2
#     Edge 10, Type (0, 1), BuildingBlock: EYOCIG_clean_linker_4, # of connection points: 2
#     Edge 11, Type (0, 1), BuildingBlock: EYOCIG_clean_linker_4, # of connection points: 2
#     Edge 12, Type (0, 1), BuildingBlock: EYOCIG_clean_linker_4, # of connection points: 2
#     Edge 13, Type (0, 1), BuildingBlock: EYOCIG_clean_linker_4, # of connection points: 2
#     Edge 14, Type (0, 1), BuildingBlock: EYOCIG_clean_linker_4, # of connection points: 2
#     Edge 15, Type (0, 1), BuildingBlock: EYOCIG_clean_linker_4, # of connection points: 2
#     Edge 16, Type (0, 1), BuildingBlock: EYOCIG_clean_linker_4, # of connection points: 2
#     Edge 17, Type (0, 1), BuildingBlock: EYOCIG_clean_linker_4, # of connection points: 2
# Relax obj value: 0.017
# Max RMSD: 0.110
# Mean RMSD: 0.083
data_MOF--net-rtl--node1-CIFDUS_clean_sbu_1--node2-BETDAH_clean_linker_0--edge1-EYOCIG_clean_linker_4
_symmetry_space_group_name_H-M    P1
_symmetry_Int_Tables_number       1
_symmetry_cell_setting            triclinic
loop_
_symmetry_equiv_pos_as_xyz
'x, y, z'
_cell_length_a     27.486201
_cell_length_b     27.595199
_cell_length_c     17.152418
_cell_angle_alpha  92.224001
_cell_angle_beta   101.01841
_cell_angle_gamma 89.972286
loop_
_atom_site_label
_atom_site_type_symbol
_atom_site_fract_x
_atom_site_fract_y
_atom_site_fract_z
_atom_type_partial_charge
H0 H 0.16249 0.93833 0.08245 0.0
H1 H 0.24341 0.82711 0.22149 0.0
H2 H 0.21872 0.81552 0.96653 0.0
C3 C 0.18419 0.90535 0.08598 0.0
C4 C 0.19021 0.88004 0.01602 0.0
C5 C 0.20367 0.88661 0.16041 0.0
C6 C 0.2304 0.84301 0.16452 0.0
C7 C 0.23605 0.81746 0.09435 0.0
C8 C 0.21596 0.83624 0.02054 0.0
N9 N 0.25202 0.76871 0.09614 0.0
C10 C 0.29977 0.75379 0.12767 0.0
H11 H 0.64927 0.64477 0.57633 0.0
H12 H 0.73069 0.7679 0.51899 0.0
H13 H 0.72734 0.73965 0.76303 0.0
C14 C 0.67304 0.67613 0.59517 0.0
C15 C 0.68751 0.68838 0.67627 0.0
C16 C 0.6883 0.70485 0.53823 0.0
C17 C 0.71917 0.74555 0.56285 0.0
C18 C 0.7334 0.75802 0.64459 0.0
C19 C 0.71698 0.72951 0.70031 0.0
N20 N 0.76179 0.80012 0.67402 0.0
C21 C 0.7946 0.82424 0.63623 0.0
H22 H 0.89896 0.13584 0.02358 0.0
H23 H 0.8401 0.26767 0.11124 0.0
H24 H 0.83391 0.24291 0.86061 0.0
C25 C 0.8794 0.16981 1.0125 0.0
C26 C 0.86563 0.18513 0.93447 0.0
C27 C 0.87021 0.19939 0.07656 0.0
C28 C 0.84591 0.24398 0.062 0.0
C29 C 0.83234 0.25941 0.98359 0.0
C30 C 0.84256 0.22995 0.92054 0.0
N31 N 0.81635 0.30742 0.96767 0.0
C32 C 0.77148 0.32592 0.98078 0.0
H33 H 0.41058 0.42324 0.53545 0.0
H34 H 0.29126 0.3417 0.59996 0.0
H35 H 0.2883 0.3729 0.35546 0.0
C36 C 0.37602 0.4031 0.51858 0.0
C37 C 0.35251 0.39925 0.43852 0.0
C38 C 0.35415 0.38233 0.57717 0.0
C39 C 0.30907 0.35658 0.55492 0.0
C40 C 0.28541 0.35319 0.47441 0.0
C41 C 0.30719 0.37484 0.41711 0.0
N42 N 0.23701 0.33368 0.44992 0.0
C43 C 0.22224 0.2881 0.46835 0.0
O44 O 0.99627 0.08101 0.45145 0.0
Mn45 Mn 0.02878 0.03481 0.54142 0.0
O46 O 0.95364 0.03367 0.35155 0.0
Mn47 Mn 0.977 0.97548 0.39316 0.0
O48 O 0.06107 0.98897 0.63211 0.0
O49 O 0.07766 0.08873 0.58516 0.0
Mn50 Mn 0.08236 0.09455 0.68899 0.0
O51 O 0.9781 0.06026 0.61134 0.0
O52 O 0.10628 0.03656 0.72936 0.0
O53 O 0.08015 1.00915 0.47255 0.0
O54 O 0.03916 0.95813 0.37683 0.0
O55 O 0.12441 0.14086 0.66556 0.0
O56 O 0.02038 0.11056 0.70739 0.0
C57 C 0.94648 0.94634 0.48586 0.0
C58 C 0.96726 0.07505 0.38336 0.0
C59 C 0.091 0.99525 0.69933 0.0
C60 C 0.10966 0.12397 0.59352 0.0
C61 C 0.98049 0.09012 0.67156 0.0
C62 C 0.07883 0.97848 0.41365 0.0
O63 O 0.97953 0.98087 0.497 0.0
O64 O 0.93344 0.92967 0.41334 0.0
O65 O 0.56291 0.58486 0.15109 0.0
Mn66 Mn 0.52824 0.53622 0.05999 0.0
O67 O 0.60894 0.54061 0.24512 0.0
Mn68 Mn 0.58466 0.48133 0.20121 0.0
O69 O 0.49322 0.48795 0.96803 0.0
O70 O 0.47874 0.58874 0.02427 0.0
Mn71 Mn 0.46844 0.59214 0.9201 0.0
O72 O 0.57541 0.56127 0.98629 0.0
O73 O 0.44314 0.5326 0.87889 0.0
O74 O 0.48009 0.51162 0.1324 0.0
O75 O 0.52424 0.46378 0.22285 0.0
O76 O 0.42884 0.63901 0.95429 0.0
O77 O 0.52886 0.60795 0.89574 0.0
C78 C 0.6113 0.44914 0.10421 0.0
C79 C 0.59375 0.58102 0.21706 0.0
C80 C 0.46031 0.49213 0.90424 0.0
C81 C 0.4476 0.62393 0.024 0.0
C82 C 0.57006 0.58957 0.92722 0.0
C83 C 0.48373 0.48272 0.19031 0.0
O84 O 0.57852 0.48353 0.09675 0.0
O85 O 0.62689 0.43507 0.1757 0.0
C86 C 0.17767 0.20654 0.48542 0.0
C87 C 0.20433 0.24925 0.47712 0.0
C88 C 0.15272 0.17372 0.50129 0.0
C89 C 0.1287 0.14555 0.53078 0.0
C90 C 0.38053 0.70295 0.14633 0.0
C91 C 0.3393 0.73391 0.14502 0.0
C92 C 0.40974 0.67397 0.12805 0.0
C93 C 0.4327 0.64637 0.09259 0.0
C94 C 0.86319 0.87836 0.595 0.0
C95 C 0.82566 0.84815 0.61372 0.0
C96 C 0.89402 0.90399 0.57529 0.0
C97 C 0.92204 0.92769 0.54543 0.0
C98 C 0.69202 0.37524 0.99527 0.0
C99 C 0.73353 0.34638 0.9873 0.0
C100 C 0.66018 0.40184 1.01146 0.0
C101 C 0.63281 0.42771 0.04135 0.0
C102 C 0.17664 0.92953 0.28638 0.0
C103 C 0.19005 0.90866 0.23097 0.0
C104 C 0.15203 0.95164 0.34383 0.0
C105 C 0.1229 0.96745 0.38286 0.0
C106 C 0.65727 0.63828 0.78717 0.0
C107 C 0.6705 0.66041 0.73542 0.0
C108 C 0.63652 0.61595 0.84627 0.0
C109 C 0.61114 0.60048 0.89004 0.0
C110 C 0.9075 0.16854 0.21989 0.0
C111 C 0.88941 0.18506 0.15673 0.0
C112 C 0.93058 0.14368 0.2877 0.0
C113 C 0.94976 0.11623 0.33748 0.0
C114 C 0.39799 0.40255 0.72642 0.0
C115 C 0.37606 0.39179 0.65997 0.0
C116 C 0.4234 0.4238 0.79938 0.0
C117 C 0.44355 0.45032 0.85364 0.0
C118 C 0.65266 0.67687 0.38903 0.0
C119 C 0.67069 0.69243 0.45502 0.0
C120 C 0.62975 0.6518 0.318 0.0
C121 C 0.6106 0.62343 0.26585 0.0
C122 C 0.89067 0.13572 0.81277 0.0
C123 C 0.87962 0.15761 0.86908 0.0
C124 C 0.91122 0.11408 0.75048 0.0
C125 C 0.93776 0.09929 0.70646 0.0
C126 C 0.39095 0.43912 0.32579 0.0
C127 C 0.37387 0.42114 0.37776 0.0
C128 C 0.41464 0.45849 0.26759 0.0
C129 C 0.44173 0.4728 0.22568 0.0
C130 C 0.14747 0.91065 0.87509 0.0
C131 C 0.16691 0.89677 0.93934 0.0
C132 C 0.12468 0.93058 0.80269 0.0
C133 C 0.10627 0.95504 0.74826 0.0
loop_
_geom_bond_atom_site_label_1
_geom_bond_atom_site_label_2
_geom_bond_distance
_geom_bond_site_symmetry_2
_ccdc_geom_bond_type
H0 C3 0.929 . S
H1 C6 0.929 . S
H2 C8 0.930 . S
C3 H0 0.929 . S
C3 C4 1.398 . S
C3 C5 1.396 . S
C4 C3 1.398 . S
C4 C8 1.407 1_554 S
C5 C3 1.396 . S
C5 C6 1.394 . S
C6 H1 0.929 . S
C6 C5 1.394 . S
C6 C7 1.382 . S
C7 C6 1.382 . S
C7 C8 1.392 1_554 S
C7 N9 1.420 . S
C8 H2 0.930 . S
C8 C4 1.407 1_556 S
C8 C7 1.392 1_556 S
N9 C7 1.420 . S
N9 C10 1.244 . S
C10 N9 1.244 . S
H11 C14 0.929 . S
H12 C17 0.929 . S
H13 C19 0.930 . S
C14 H11 0.929 . S
C14 C15 1.398 . S
C14 C16 1.396 . S
C15 C14 1.398 . S
C15 C19 1.407 . S
C16 C14 1.396 . S
C16 C17 1.394 . S
C17 H12 0.929 . S
C17 C16 1.394 . S
C17 C18 1.382 . S
C18 C17 1.382 . S
C18 C19 1.392 . S
C18 N20 1.420 . S
C19 H13 0.930 . S
C19 C15 1.407 . S
C19 C18 1.392 . S
N20 C18 1.420 . S
N20 C21 1.244 . S
C21 N20 1.244 . S
H22 C25 0.929 . S
H23 C28 0.929 . S
H24 C30 0.930 . S
C25 H22 0.929 . S
C25 C26 1.398 1_554 S
C25 C27 1.396 . S
C26 C25 1.398 1_556 S
C26 C30 1.407 . S
C27 C25 1.396 . S
C27 C28 1.394 . S
C28 H23 0.929 . S
C28 C27 1.394 . S
C28 C29 1.382 1_554 S
C29 C28 1.382 1_556 S
C29 C30 1.392 . S
C29 N31 1.420 . S
C30 H24 0.930 . S
C30 C26 1.407 . S
C30 C29 1.392 . S
N31 C29 1.420 . S
N31 C32 1.244 1_556 S
C32 N31 1.244 1_554 S
H33 C36 0.929 . S
H34 C39 0.929 . S
H35 C41 0.930 . S
C36 H33 0.929 . S
C36 C37 1.398 . S
C36 C38 1.396 . S
C37 C36 1.398 . S
C37 C41 1.407 . S
C38 C36 1.396 . S
C38 C39 1.394 . S
C39 H34 0.929 . S
C39 C38 1.394 . S
C39 C40 1.382 . S
C40 C39 1.382 . S
C40 C41 1.392 . S
C40 N42 1.420 . S
C41 H35 0.930 . S
C41 C37 1.407 . S
C41 C40 1.392 . S
N42 C40 1.420 . S
N42 C43 1.244 . S
C43 N42 1.244 . S
O44 Mn45 2.163 1_655 S
O44 C58 1.244 . S
Mn45 O44 2.163 1_455 S
Mn45 O48 2.160 1_545 S
Mn45 O49 2.221 . S
Mn45 O51 2.163 1_455 S
Mn45 O53 2.160 1_545 S
Mn45 O63 2.221 1_445 S
O46 Mn47 2.087 1_545 S
O46 C58 1.256 . S
Mn47 O46 2.087 1_565 S
Mn47 O54 2.089 1_655 S
Mn47 O63 2.290 . S
Mn47 O64 2.251 . S
O48 Mn45 2.160 1_565 S
O48 C59 1.239 . S
O49 Mn45 2.221 . S
O49 Mn50 2.290 . S
O49 C60 1.278 . S
Mn50 O49 2.290 . S
Mn50 O52 2.089 . S
Mn50 O55 2.251 . S
Mn50 O56 2.087 . S
O51 Mn45 2.163 1_655 S
O51 C61 1.244 . S
O52 Mn50 2.089 . S
O52 C59 1.256 1_545 S
O53 Mn45 2.160 1_565 S
O53 C62 1.239 . S
O54 Mn47 2.089 1_455 S
O54 C62 1.256 . S
O55 Mn50 2.251 . S
O55 C60 1.241 . S
O56 Mn50 2.087 . S
O56 C61 1.256 1_455 S
C57 O63 1.278 . S
C57 O64 1.241 . S
C58 O44 1.244 . S
C58 O46 1.256 . S
C59 O48 1.239 . S
C59 O52 1.256 1_565 S
C60 O49 1.278 . S
C60 O55 1.241 . S
C61 O51 1.244 . S
C61 O56 1.256 1_655 S
C62 O53 1.239 . S
C62 O54 1.256 . S
O63 Mn45 2.221 1_665 S
O63 Mn47 2.290 . S
O63 C57 1.278 . S
O64 Mn47 2.251 . S
O64 C57 1.241 . S
O65 Mn66 2.163 . S
O65 C79 1.244 . S
Mn66 O65 2.163 . S
Mn66 O69 2.160 1_554 S
Mn66 O70 2.221 . S
Mn66 O72 2.163 1_554 S
Mn66 O74 2.160 . S
Mn66 O84 2.221 . S
O67 Mn68 2.087 . S
O67 C79 1.256 . S
Mn68 O67 2.087 . S
Mn68 O75 2.089 . S
Mn68 O84 2.290 . S
Mn68 O85 2.251 . S
O69 Mn66 2.160 1_556 S
O69 C80 1.239 . S
O70 Mn66 2.221 . S
O70 Mn71 2.290 1_554 S
O70 C81 1.278 . S
Mn71 O70 2.290 1_556 S
Mn71 O73 2.089 . S
Mn71 O76 2.251 . S
Mn71 O77 2.087 . S
O72 Mn66 2.163 1_556 S
O72 C82 1.244 . S
O73 Mn71 2.089 . S
O73 C80 1.256 . S
O74 Mn66 2.160 . S
O74 C83 1.239 . S
O75 Mn68 2.089 . S
O75 C83 1.256 . S
O76 Mn71 2.251 . S
O76 C81 1.241 1_556 S
O77 Mn71 2.087 . S
O77 C82 1.256 . S
C78 O84 1.278 . S
C78 O85 1.241 . S
C79 O65 1.244 . S
C79 O67 1.256 . S
C80 O69 1.239 . S
C80 O73 1.256 . S
C81 O70 1.278 . S
C81 O76 1.241 1_554 S
C82 O72 1.244 . S
C82 O77 1.256 . S
C83 O74 1.239 . S
C83 O75 1.256 . S
O84 Mn66 2.221 . S
O84 Mn68 2.290 . S
O84 C78 1.278 . S
O85 Mn68 2.251 . S
O85 C78 1.241 . S
C86 C87 1.170 . S
C86 C88 1.380 . S
C87 C86 1.170 . S
C88 C86 1.380 . S
C88 C89 1.170 . S
C89 C88 1.170 . S
C90 C91 1.170 . S
C90 C92 1.380 . S
C91 C90 1.170 . S
C92 C90 1.380 . S
C92 C93 1.170 . S
C93 C92 1.170 . S
C94 C95 1.170 . S
C94 C96 1.380 . S
C95 C94 1.170 . S
C96 C94 1.380 . S
C96 C97 1.170 . S
C97 C96 1.170 . S
C98 C99 1.170 . S
C98 C100 1.380 . S
C99 C98 1.170 . S
C100 C98 1.380 . S
C100 C101 1.170 . S
C101 C100 1.170 . S
C102 C103 1.170 . S
C102 C104 1.380 . S
C103 C102 1.170 . S
C104 C102 1.380 . S
C104 C105 1.170 . S
C105 C104 1.170 . S
C106 C107 1.170 . S
C106 C108 1.380 . S
C107 C106 1.170 . S
C108 C106 1.380 . S
C108 C109 1.170 . S
C109 C108 1.170 . S
C110 C111 1.170 . S
C110 C112 1.380 . S
C111 C110 1.170 . S
C112 C110 1.380 . S
C112 C113 1.170 . S
C113 C112 1.170 . S
C114 C115 1.170 . S
C114 C116 1.380 . S
C115 C114 1.170 . S
C116 C114 1.380 . S
C116 C117 1.170 . S
C117 C116 1.170 . S
C118 C119 1.170 . S
C118 C120 1.380 . S
C119 C118 1.170 . S
C120 C118 1.380 . S
C120 C121 1.170 . S
C121 C120 1.170 . S
C122 C123 1.170 . S
C122 C124 1.380 . S
C123 C122 1.170 . S
C124 C122 1.380 . S
C124 C125 1.170 . S
C125 C124 1.170 . S
C126 C127 1.170 . S
C126 C128 1.380 . S
C127 C126 1.170 . S
C128 C126 1.380 . S
C128 C129 1.170 . S
C129 C128 1.170 . S
C130 C131 1.170 . S
C130 C132 1.380 . S
C131 C130 1.170 . S
C132 C130 1.380 . S
C132 C133 1.170 . S
C133 C132 1.170 . S
C89 C60 1.294 . S
C87 C43 1.453 . S
C91 C10 1.478 . S
C93 C81 1.274 . S
C95 C21 1.576 . S
C97 C57 1.405 . S
C99 C32 1.585 . S
C101 C78 1.404 . S
C105 C62 1.514 . S
C103 C5 1.505 . S
C109 C82 1.525 . S
C107 C15 1.594 . S
C111 C27 1.573 . S
C113 C58 1.527 . S
C115 C38 1.502 . S
C117 C80 1.453 . S
C121 C79 1.458 . S
C119 C16 1.510 . S
C125 C61 1.448 . S
C123 C26 1.515 . S
C129 C83 1.410 . S
C127 C37 1.457 . S
C131 C4 1.461 1_556 S
C133 C59 1.393 . S
