# Generated by pormake.
# Topology sit, (3,6)-cn, num edge types: 1
# Building blocks:
#     Node 0, Type 0, BuildingBlock: ESEHIV_clean_linker_0, # of connection points: 3
#     Node 1, Type 0, BuildingBlock: ESEHIV_clean_linker_0, # of connection points: 3
#     Node 2, Type 0, BuildingBlock: ESEHIV_clean_linker_0, # of connection points: 3
#     Node 3, Type 0, BuildingBlock: ESEHIV_clean_linker_0, # of connection points: 3
#     Node 4, Type 1, BuildingBlock: MIDCAF_clean_sbu_0, # of connection points: 6
#     Node 5, Type 1, BuildingBlock: MIDCAF_clean_sbu_0, # of connection points: 6
#     Edge 6, Type (0, 1), BuildingBlock: AJUNOK_clean_linker_0, # of connection points: 2
#     Edge 7, Type (0, 1), BuildingBlock: AJUNOK_clean_linker_0, # of connection points: 2
#     Edge 8, Type (0, 1), BuildingBlock: AJUNOK_clean_linker_0, # of connection points: 2
#     Edge 9, Type (0, 1), BuildingBlock: AJUNOK_clean_linker_0, # of connection points: 2
#     Edge 10, Type (0, 1), BuildingBlock: AJUNOK_clean_linker_0, # of connection points: 2
#     Edge 11, Type (0, 1), BuildingBlock: AJUNOK_clean_linker_0, # of connection points: 2
#     Edge 12, Type (0, 1), BuildingBlock: AJUNOK_clean_linker_0, # of connection points: 2
#     Edge 13, Type (0, 1), BuildingBlock: AJUNOK_clean_linker_0, # of connection points: 2
#     Edge 14, Type (0, 1), BuildingBlock: AJUNOK_clean_linker_0, # of connection points: 2
#     Edge 15, Type (0, 1), BuildingBlock: AJUNOK_clean_linker_0, # of connection points: 2
#     Edge 16, Type (0, 1), BuildingBlock: AJUNOK_clean_linker_0, # of connection points: 2
#     Edge 17, Type (0, 1), BuildingBlock: AJUNOK_clean_linker_0, # of connection points: 2
# Relax obj value: 0.110
# Max RMSD: 0.194
# Mean RMSD: 0.106
data_MOF--net-sit--node1-MIDCAF_clean_sbu_0--node2-ESEHIV_clean_linker_0--edge1-AJUNOK_clean_linker_0
_symmetry_space_group_name_H-M    P1
_symmetry_Int_Tables_number       1
_symmetry_cell_setting            triclinic
loop_
_symmetry_equiv_pos_as_xyz
'x, y, z'
_cell_length_a     16.744132
_cell_length_b     19.621993
_cell_length_c     24.798402
_cell_angle_alpha  90.891658
_cell_angle_beta   88.663538
_cell_angle_gamma 84.152263
loop_
_atom_site_label
_atom_site_type_symbol
_atom_site_fract_x
_atom_site_fract_y
_atom_site_fract_z
_atom_type_partial_charge
H0 H 0.04426 0.42622 0.9159 0.0
H1 H 0.16155 0.31258 0.04379 0.0
H2 H 0.90517 0.3187 0.0271 0.0
C3 C 0.04116 0.39368 0.95065 0.0
C4 C -0.03381 0.37799 0.97032 0.0
C5 C 0.11193 0.36922 -0.02342 0.0
C6 C 0.10713 0.32923 0.02281 0.0
C7 C 0.03245 0.31123 0.04208 0.0
C8 C -0.03724 0.33445 0.01443 0.0
H9 H -0.02081 0.69775 0.92827 0.0
H10 H 0.82879 0.83355 0.03294 0.0
H11 H 0.08573 0.82819 0.03991 0.0
C12 C -0.02648 0.73542 0.9606 0.0
C13 C 0.04226 0.76009 -0.01874 0.0
C14 C 0.89704 0.75744 -0.01813 0.0
C15 C 0.88826 0.81294 0.01901 0.0
C16 C 0.95631 0.84146 0.03841 0.0
C17 C 0.03291 0.81192 0.02121 0.0
H18 H 0.56012 0.90525 0.4109 0.0
H19 H 0.66775 0.82315 0.55606 0.0
H20 H 0.4241 0.79353 0.51923 0.0
C21 C 0.55712 0.87872 0.44862 0.0
C22 C 0.48404 0.85582 0.4642 0.0
C23 C 0.62404 0.86946 0.48199 0.0
C24 C 0.618 0.83008 0.52887 0.0
C25 C 0.54664 0.80115 0.54193 0.0
C26 C 0.48007 0.81423 0.50914 0.0
H27 H 0.54007 0.12668 0.47451 0.0
H28 H 0.37831 0.26385 0.57399 0.0
H29 H 0.63255 0.27574 0.57752 0.0
C30 C 0.52915 0.16691 0.50498 0.0
C31 C 0.59423 0.19845 0.52438 0.0
C32 C 0.45023 0.18979 0.52214 0.0
C33 C 0.43835 0.24326 0.56127 0.0
C34 C 0.50404 0.27355 0.582 0.0
C35 C 0.58176 0.25119 0.56302 0.0
Zn36 Zn 0.03369 0.19054 0.35837 0.0
Zn37 Zn 0.04613 0.9384 0.33388 0.0
Zn38 Zn 0.03469 0.0613 0.33961 0.0
C39 C -0.00904 0.98278 0.23506 0.0
C40 C 0.92325 0.96203 0.40233 0.0
O41 O 0.14611 0.0819 0.3826 0.0
O42 O 0.12997 0.19327 0.40137 0.0
C43 C 0.03134 0.17334 0.24658 0.0
O44 O 0.01582 1.03915 0.25224 0.0
O45 O -0.00809 0.93225 0.26576 0.0
O46 O -0.02118 0.91412 0.39516 0.0
O47 O 0.9315 1.02167 0.3829 0.0
O48 O 0.03661 0.21823 0.2829 0.0
O49 O 0.02827 0.10998 0.25888 0.0
O50 O 0.92974 0.09494 0.39281 0.0
O51 O 0.93102 0.20752 0.39778 0.0
C52 C 0.89901 0.15434 0.41014 0.0
O53 O 0.15144 1.01247 0.36843 0.0
O54 O 0.16122 0.90728 0.33404 0.0
C55 C 0.17028 0.13582 0.40483 0.0
C56 C 0.19193 0.95366 0.35948 0.0
Zn57 Zn 0.50338 0.68156 0.85108 0.0
Zn58 Zn 0.53001 0.35449 0.83575 0.0
Zn59 Zn 0.50259 0.56561 0.84035 0.0
C60 C 0.49041 0.47106 0.75893 0.0
C61 C 0.39829 0.47214 0.88853 0.0
O62 O 0.61452 0.58032 0.88034 0.0
O63 O 0.57018 0.68122 0.91506 0.0
C64 C 0.532 0.66202 0.7441 0.0
O65 O 0.48989 0.53581 0.7563 0.0
O66 O 0.49771 0.44686 0.80553 0.0
O67 O 0.45619 0.43669 0.86468 0.0
O68 O 0.39902 0.53705 0.88676 0.0
O69 O 0.55004 0.70336 0.78018 0.0
O70 O 0.5036 0.606 0.75749 0.0
O71 O 0.39053 0.6078 0.88563 0.0
O72 O 0.39151 0.71633 0.86422 0.0
C73 C 0.35583 0.66969 0.88549 0.0
O74 O 0.61446 0.50139 0.86975 0.0
O75 O 0.63543 0.38442 0.86286 0.0
C76 C 0.62312 0.6309 0.91246 0.0
C77 C 0.65787 0.44304 0.87579 0.0
C78 C 0.08439 0.21522 0.10266 0.0
C79 C 0.02664 0.27072 0.09222 0.0
C80 C 0.08321 0.18014 0.15165 0.0
C81 C 0.02292 0.19795 0.19105 0.0
H82 H 0.13216 0.19994 0.07342 0.0
H83 H 0.13202 0.14143 0.15987 0.0
S84 S 0.85884 0.33915 0.18503 0.0
N85 N 0.9091 0.34276 0.1273 0.0
N86 N 0.90437 0.27373 0.21711 0.0
C87 C -0.03627 0.25169 0.18065 0.0
C88 C -0.03407 0.2886 0.13173 0.0
C89 C 0.89537 0.89102 0.12538 0.0
C90 C 0.94925 0.89578 0.08162 0.0
C91 C 0.90257 0.92834 0.1732 0.0
C92 C -0.0353 0.97089 0.17961 0.0
H93 H 0.85199 0.85369 0.12487 0.0
H94 H 0.86418 0.91835 0.20738 0.0
S95 S 0.10848 1.01422 0.07312 0.0
N96 N 0.05494 0.95872 0.04366 0.0
N97 N 0.07255 1.02404 0.13568 0.0
C98 C 0.01274 0.98242 0.13441 0.0
C99 C 0.00412 0.94579 0.08493 0.0
C100 C 0.59804 0.70743 0.60401 0.0
C101 C 0.53922 0.76118 0.59175 0.0
C102 C 0.59291 0.67096 0.6521 0.0
C103 C 0.52846 0.68695 0.68883 0.0
H104 H 0.64891 0.69431 0.5767 0.0
H105 H 0.64099 0.63212 0.6616 0.0
S106 S 0.36018 0.82318 0.6767 0.0
N107 N 0.41551 0.82885 0.62131 0.0
N108 N 0.40527 0.75906 0.71051 0.0
C109 C 0.46863 0.73919 0.67656 0.0
C110 C 0.47407 0.77665 0.62825 0.0
C111 C 0.46198 0.31288 0.67511 0.0
C112 C 0.4926 0.32813 0.62411 0.0
C113 C 0.46058 0.36022 0.71802 0.0
C114 C 0.48846 0.425 0.7113 0.0
H115 H 0.44187 0.26299 0.68242 0.0
H116 H 0.43823 0.34547 0.75699 0.0
S117 S 0.56873 0.4915 0.58416 0.0
N118 N 0.54806 0.41324 0.56811 0.0
N119 N 0.54339 0.50322 0.64868 0.0
C120 C 0.51591 0.44206 0.65979 0.0
C121 C 0.51866 0.39326 0.61623 0.0
C122 C 0.23686 0.42778 -0.01188 0.0
C123 C 0.19043 0.38789 0.95604 0.0
C124 C 0.30545 0.45424 0.96647 0.0
C125 C 0.33067 0.43984 0.91267 0.0
H126 H 0.21768 0.44151 0.02923 0.0
H127 H 0.3379 0.48722 -0.00852 0.0
S128 S 0.234 0.3333 0.81376 0.0
N129 N 0.1769 0.33252 0.86894 0.0
N130 N 0.30708 0.38024 0.82896 0.0
C131 C 0.28728 0.39709 0.88127 0.0
C132 C 0.21673 0.37157 0.90279 0.0
C133 C 0.82284 0.69585 0.91242 0.0
C134 C 0.82846 0.71927 0.96619 0.0
C135 C 0.76103 0.65756 0.89685 0.0
C136 C 0.70088 0.64327 0.93392 0.0
H137 H 0.86484 0.70918 0.88143 0.0
H138 H 0.75638 0.6444 0.85449 0.0
S139 S 0.68958 0.68721 0.07977 0.0
N140 N 0.77203 0.71833 0.05761 0.0
N141 N 0.6511 0.65223 0.02658 0.0
C142 C 0.70642 0.66431 -0.01214 0.0
C143 C 0.77103 0.70121 0.00434 0.0
C144 C 0.87988 0.39471 0.88956 0.0
C145 C 0.89079 0.4061 0.94485 0.0
C146 C 0.80488 0.41156 0.86652 0.0
C147 C 0.73894 0.4417 0.8977 0.0
H148 H 0.92824 0.36907 0.86467 0.0
H149 H 0.79737 0.39812 0.82452 0.0
S150 S 0.73828 0.48745 0.04306 0.0
N151 N 0.83116 0.45388 0.02932 0.0
N152 N 0.69018 0.4854 -0.01429 0.0
C153 C 0.75025 0.45706 0.95217 0.0
C154 C 0.82629 0.43929 0.97583 0.0
C155 C 0.18315 0.77842 0.95423 0.0
C156 C 0.12365 0.7332 0.96017 0.0
C157 C 0.25829 0.75651 0.93115 0.0
C158 C 0.27674 0.68891 0.91171 0.0
H159 H 0.17131 0.8319 0.9661 0.0
H160 H 0.30196 0.79347 0.92781 0.0
S161 S 0.14101 0.55146 0.9132 0.0
N162 N 0.09016 0.61613 0.94592 0.0
N163 N 0.22772 0.57858 0.89552 0.0
C164 C 0.21797 0.64332 0.91634 0.0
C165 C 0.14237 0.66461 0.94217 0.0
C166 C 0.7747 0.86422 0.47848 0.0
C167 C 0.69983 0.89997 0.46732 0.0
C168 C 0.8466 0.8872 0.45993 0.0
C169 C 0.84697 0.94578 0.42798 0.0
H170 H 0.77833 0.81635 0.49981 0.0
H171 H 0.90237 0.85704 0.46899 0.0
S172 S 0.66842 0.05964 0.38803 0.0
N173 N 0.63206 1.00258 0.42729 0.0
N174 N 0.76622 1.03807 0.3845 0.0
C175 C 0.77304 0.98253 0.41675 0.0
C176 C 0.6999 0.9616 0.43841 0.0
C177 C 0.38507 0.15219 0.43782 0.0
C178 C 0.38099 0.16351 0.49433 0.0
C179 C 0.31781 0.13664 0.40923 0.0
C180 C 0.24392 0.13265 0.43593 0.0
H181 H 0.43921 0.15929 0.41478 0.0
H182 H 0.3223 0.13227 0.36562 0.0
S183 S 0.20194 0.1493 0.58304 0.0
N184 N 0.298 0.16068 0.57611 0.0
N185 N 0.17038 0.13648 0.52144 0.0
C186 C 0.23936 0.14056 0.49222 0.0
C187 C 0.3082 0.15464 0.52166 0.0
C188 C 0.40355 0.87546 0.38111 0.0
C189 C 0.41002 0.88237 0.43727 0.0
C190 C 0.33336 0.90115 0.35553 0.0
C191 C 0.2688 0.93595 0.38524 0.0
H192 H 0.45227 0.84882 0.35711 0.0
H193 H 0.32903 0.89301 0.31243 0.0
S194 S 0.25643 0.96718 0.53301 0.0
N195 N 0.34687 0.9271 0.5216 0.0
N196 N 0.21469 0.97471 0.47343 0.0
C197 C 0.27516 0.94426 0.44114 0.0
C198 C 0.34598 0.91756 0.46721 0.0
C199 C 0.68955 0.22488 0.45258 0.0
C200 C 0.67295 0.18511 0.49712 0.0
C201 C 0.76337 0.2142 0.42494 0.0
C202 C 0.82266 0.16311 0.44082 0.0
H203 H 0.64489 0.26433 0.43893 0.0
H204 H 0.77374 0.24557 0.39039 0.0
S205 S 0.80954 1.04834 0.5572 0.0
N206 N 0.72125 0.09453 0.55737 0.0
N207 N 0.86195 0.07516 0.5058 0.0
C208 C 0.80744 0.1239 0.48612 0.0
C209 C 0.7318 0.13468 0.5142 0.0
loop_
_geom_bond_atom_site_label_1
_geom_bond_atom_site_label_2
_geom_bond_distance
_geom_bond_site_symmetry_2
_ccdc_geom_bond_type
H0 C3 0.931 . S
H1 C6 0.928 . S
H2 C8 0.930 1_655 S
C3 H0 0.931 . S
C3 C4 1.420 . S
C3 C5 1.360 1_556 S
C4 C3 1.420 . S
C4 C8 1.415 1_556 S
C5 C3 1.360 1_554 S
C5 C6 1.372 . S
C6 H1 0.928 . S
C6 C5 1.372 . S
C6 C7 1.404 . S
C7 C6 1.404 . S
C7 C8 1.391 . S
C8 H2 0.930 1_455 S
C8 C4 1.415 1_554 S
C8 C7 1.391 . S
H9 C12 0.931 . S
H10 C15 0.928 . S
H11 C17 0.930 . S
C12 H9 0.931 . S
C12 C13 1.413 1_556 S
C12 C14 1.360 1_456 S
C13 C12 1.413 1_554 S
C13 C17 1.429 . S
C14 C12 1.360 1_654 S
C14 C15 1.372 . S
C15 H10 0.928 . S
C15 C14 1.372 . S
C15 C16 1.404 1_655 S
C16 C15 1.404 1_455 S
C16 C17 1.391 . S
C17 H11 0.930 . S
C17 C13 1.429 . S
C17 C16 1.391 . S
H18 C21 0.931 . S
H19 C24 0.928 . S
H20 C26 0.930 . S
C21 H18 0.931 . S
C21 C22 1.413 . S
C21 C23 1.360 . S
C22 C21 1.413 . S
C22 C26 1.429 . S
C23 C21 1.360 . S
C23 C24 1.372 . S
C24 H19 0.928 . S
C24 C23 1.372 . S
C24 C25 1.404 . S
C25 C24 1.404 . S
C25 C26 1.391 . S
C26 H20 0.930 . S
C26 C22 1.429 . S
C26 C25 1.391 . S
H27 C30 0.931 . S
H28 C33 0.928 . S
H29 C35 0.930 . S
C30 H27 0.931 . S
C30 C31 1.413 . S
C30 C32 1.360 . S
C31 C30 1.413 . S
C31 C35 1.429 . S
C32 C30 1.360 . S
C32 C33 1.372 . S
C33 H28 0.928 . S
C33 C32 1.372 . S
C33 C34 1.404 . S
C34 C33 1.404 . S
C34 C35 1.391 . S
C35 H29 0.930 . S
C35 C31 1.429 . S
C35 C34 1.391 . S
Zn36 O42 1.920 . S
Zn36 O48 1.898 . S
Zn36 O51 1.905 1_455 S
Zn37 O45 1.905 . S
Zn37 O46 1.898 1_455 S
Zn37 O54 1.920 . S
Zn38 O41 2.080 . S
Zn38 O44 2.114 1_545 S
Zn38 O47 2.120 1_545 S
Zn38 O49 2.120 . S
Zn38 O50 2.114 1_455 S
Zn38 O53 2.080 1_545 S
C39 O44 1.166 . S
C39 O45 1.182 . S
C40 O46 1.167 . S
C40 O47 1.299 1_655 S
O41 Zn38 2.080 . S
O41 C55 1.305 . S
O42 Zn36 1.920 . S
O42 C55 1.234 . S
C43 O48 1.167 . S
C43 O49 1.299 . S
O44 Zn38 2.114 1_565 S
O44 C39 1.166 . S
O45 Zn37 1.905 . S
O45 C39 1.182 . S
O46 Zn37 1.898 1_655 S
O46 C40 1.167 . S
O47 Zn38 2.120 1_565 S
O47 C40 1.299 1_455 S
O48 Zn36 1.898 . S
O48 C43 1.167 . S
O49 Zn38 2.120 . S
O49 C43 1.299 . S
O50 Zn38 2.114 1_655 S
O50 C52 1.166 . S
O51 Zn36 1.905 1_655 S
O51 C52 1.182 . S
C52 O50 1.166 . S
C52 O51 1.182 . S
O53 Zn38 2.080 1_565 S
O53 C56 1.305 . S
O54 Zn37 1.920 . S
O54 C56 1.234 . S
C55 O41 1.305 . S
C55 O42 1.234 . S
C56 O53 1.305 . S
C56 O54 1.234 . S
Zn57 O63 1.920 . S
Zn57 O69 1.898 . S
Zn57 O72 1.905 . S
Zn58 O66 1.905 . S
Zn58 O67 1.898 . S
Zn58 O75 1.920 . S
Zn59 O62 2.080 . S
Zn59 O65 2.114 . S
Zn59 O68 2.120 . S
Zn59 O70 2.120 . S
Zn59 O71 2.114 . S
Zn59 O74 2.080 . S
C60 O65 1.166 . S
C60 O66 1.182 . S
C61 O67 1.167 . S
C61 O68 1.299 . S
O62 Zn59 2.080 . S
O62 C76 1.305 . S
O63 Zn57 1.920 . S
O63 C76 1.234 . S
C64 O69 1.167 . S
C64 O70 1.299 . S
O65 Zn59 2.114 . S
O65 C60 1.166 . S
O66 Zn58 1.905 . S
O66 C60 1.182 . S
O67 Zn58 1.898 . S
O67 C61 1.167 . S
O68 Zn59 2.120 . S
O68 C61 1.299 . S
O69 Zn57 1.898 . S
O69 C64 1.167 . S
O70 Zn59 2.120 . S
O70 C64 1.299 . S
O71 Zn59 2.114 . S
O71 C73 1.166 . S
O72 Zn57 1.905 . S
O72 C73 1.182 . S
C73 O71 1.166 . S
C73 O72 1.182 . S
O74 Zn59 2.080 . S
O74 C77 1.305 . S
O75 Zn58 1.920 . S
O75 C77 1.234 . S
C76 O62 1.305 . S
C76 O63 1.234 . S
C77 O74 1.305 . S
C77 O75 1.234 . S
C78 C79 1.369 . S
C78 C80 1.419 . S
C78 H82 0.930 . S
C79 C78 1.369 . S
C79 C88 1.429 . S
C80 C78 1.419 . S
C80 C81 1.363 . S
C80 H83 0.929 . S
C81 C80 1.363 . S
C81 C87 1.428 . S
H82 C78 0.930 . S
H83 C80 0.929 . S
S84 N85 1.613 . S
S84 N86 1.610 . S
N85 S84 1.613 . S
N85 C88 1.350 1_655 S
N86 S84 1.610 . S
N86 C87 1.351 1_655 S
C87 C81 1.428 . S
C87 N86 1.351 1_455 S
C87 C88 1.434 . S
C88 C79 1.429 . S
C88 N85 1.350 1_455 S
C88 C87 1.434 . S
C89 C90 1.369 . S
C89 C91 1.419 . S
C89 H93 0.930 . S
C90 C89 1.369 . S
C90 C99 1.429 1_455 S
C91 C89 1.419 . S
C91 C92 1.363 . S
C91 H94 0.929 . S
C92 C91 1.363 . S
C92 C98 1.428 1_455 S
H93 C89 0.930 . S
H94 C91 0.929 . S
S95 N96 1.613 . S
S95 N97 1.610 . S
N96 S95 1.613 . S
N96 C99 1.350 . S
N97 S95 1.610 . S
N97 C98 1.351 . S
C98 C92 1.428 1_655 S
C98 N97 1.351 . S
C98 C99 1.434 . S
C99 C90 1.429 1_655 S
C99 N96 1.350 . S
C99 C98 1.434 . S
C100 C101 1.369 . S
C100 C102 1.419 . S
C100 H104 0.930 . S
C101 C100 1.369 . S
C101 C110 1.429 . S
C102 C100 1.419 . S
C102 C103 1.363 . S
C102 H105 0.929 . S
C103 C102 1.363 . S
C103 C109 1.428 . S
H104 C100 0.930 . S
H105 C102 0.929 . S
S106 N107 1.613 . S
S106 N108 1.610 . S
N107 S106 1.613 . S
N107 C110 1.350 . S
N108 S106 1.610 . S
N108 C109 1.351 . S
C109 C103 1.428 . S
C109 N108 1.351 . S
C109 C110 1.434 . S
C110 C101 1.429 . S
C110 N107 1.350 . S
C110 C109 1.434 . S
C111 C112 1.369 . S
C111 C113 1.419 . S
C111 H115 0.930 . S
C112 C111 1.369 . S
C112 C121 1.429 . S
C113 C111 1.419 . S
C113 C114 1.363 . S
C113 H116 0.929 . S
C114 C113 1.363 . S
C114 C120 1.428 . S
H115 C111 0.930 . S
H116 C113 0.929 . S
S117 N118 1.613 . S
S117 N119 1.610 . S
N118 S117 1.613 . S
N118 C121 1.350 . S
N119 S117 1.610 . S
N119 C120 1.351 . S
C120 C114 1.428 . S
C120 N119 1.351 . S
C120 C121 1.434 . S
C121 C112 1.429 . S
C121 N118 1.350 . S
C121 C120 1.434 . S
C122 C123 1.369 . S
C122 C124 1.419 . S
C122 H126 0.930 1_556 S
C123 C122 1.369 . S
C123 C132 1.429 . S
C124 C122 1.419 . S
C124 C125 1.363 . S
C124 H127 0.929 . S
C125 C124 1.363 . S
C125 C131 1.428 . S
H126 C122 0.930 1_554 S
H127 C124 0.929 . S
S128 N129 1.613 . S
S128 N130 1.610 . S
N129 S128 1.613 . S
N129 C132 1.350 . S
N130 S128 1.610 . S
N130 C131 1.351 . S
C131 C125 1.428 . S
C131 N130 1.351 . S
C131 C132 1.434 . S
C132 C123 1.429 . S
C132 N129 1.350 . S
C132 C131 1.434 . S
C133 C134 1.369 . S
C133 C135 1.419 . S
C133 H137 0.930 . S
C134 C133 1.369 . S
C134 C143 1.429 1_556 S
C135 C133 1.419 . S
C135 C136 1.363 . S
C135 H138 0.929 . S
C136 C135 1.363 . S
C136 C142 1.428 1_556 S
H137 C133 0.930 . S
H138 C135 0.929 . S
S139 N140 1.613 . S
S139 N141 1.610 . S
N140 S139 1.613 . S
N140 C143 1.350 . S
N141 S139 1.610 . S
N141 C142 1.351 . S
C142 C136 1.428 1_554 S
C142 N141 1.351 . S
C142 C143 1.434 . S
C143 C134 1.429 1_554 S
C143 N140 1.350 . S
C143 C142 1.434 . S
C144 C145 1.369 . S
C144 C146 1.419 . S
C144 H148 0.930 1_655 S
C145 C144 1.369 . S
C145 C154 1.429 . S
C146 C144 1.419 . S
C146 C147 1.363 . S
C146 H149 0.929 . S
C147 C146 1.363 . S
C147 C153 1.428 . S
H148 C144 0.930 1_455 S
H149 C146 0.929 . S
S150 N151 1.613 . S
S150 N152 1.610 1_554 S
N151 S150 1.613 . S
N151 C154 1.350 1_554 S
N152 S150 1.610 1_556 S
N152 C153 1.351 . S
C153 C147 1.428 . S
C153 N152 1.351 . S
C153 C154 1.434 . S
C154 C145 1.429 . S
C154 N151 1.350 1_556 S
C154 C153 1.434 . S
C155 C156 1.369 . S
C155 C157 1.419 . S
C155 H159 0.930 . S
C156 C155 1.369 . S
C156 C165 1.429 . S
C157 C155 1.419 . S
C157 C158 1.363 . S
C157 H160 0.929 . S
C158 C157 1.363 . S
C158 C164 1.428 . S
H159 C155 0.930 . S
H160 C157 0.929 . S
S161 N162 1.613 . S
S161 N163 1.610 . S
N162 S161 1.613 . S
N162 C165 1.350 . S
N163 S161 1.610 . S
N163 C164 1.351 . S
C164 C158 1.428 . S
C164 N163 1.351 . S
C164 C165 1.434 . S
C165 C156 1.429 . S
C165 N162 1.350 . S
C165 C164 1.434 . S
C166 C167 1.369 . S
C166 C168 1.419 . S
C166 H170 0.930 . S
C167 C166 1.369 . S
C167 C176 1.429 . S
C168 C166 1.419 . S
C168 C169 1.363 . S
C168 H171 0.929 . S
C169 C168 1.363 . S
C169 C175 1.428 . S
H170 C166 0.930 . S
H171 C168 0.929 . S
S172 N173 1.613 . S
S172 N174 1.610 . S
N173 S172 1.613 . S
N173 C176 1.350 . S
N174 S172 1.610 . S
N174 C175 1.351 . S
C175 C169 1.428 . S
C175 N174 1.351 . S
C175 C176 1.434 . S
C176 C167 1.429 . S
C176 N173 1.350 . S
C176 C175 1.434 . S
C177 C178 1.369 . S
C177 C179 1.419 . S
C177 H181 0.930 . S
C178 C177 1.369 . S
C178 C187 1.429 . S
C179 C177 1.419 . S
C179 C180 1.363 . S
C179 H182 0.929 . S
C180 C179 1.363 . S
C180 C186 1.428 . S
H181 C177 0.930 . S
H182 C179 0.929 . S
S183 N184 1.613 . S
S183 N185 1.610 . S
N184 S183 1.613 . S
N184 C187 1.350 . S
N185 S183 1.610 . S
N185 C186 1.351 . S
C186 C180 1.428 . S
C186 N185 1.351 . S
C186 C187 1.434 . S
C187 C178 1.429 . S
C187 N184 1.350 . S
C187 C186 1.434 . S
C188 C189 1.369 . S
C188 C190 1.419 . S
C188 H192 0.930 . S
C189 C188 1.369 . S
C189 C198 1.429 . S
C190 C188 1.419 . S
C190 C191 1.363 . S
C190 H193 0.929 . S
C191 C190 1.363 . S
C191 C197 1.428 . S
H192 C188 0.930 . S
H193 C190 0.929 . S
S194 N195 1.613 . S
S194 N196 1.610 . S
N195 S194 1.613 . S
N195 C198 1.350 . S
N196 S194 1.610 . S
N196 C197 1.351 . S
C197 C191 1.428 . S
C197 N196 1.351 . S
C197 C198 1.434 . S
C198 C189 1.429 . S
C198 N195 1.350 . S
C198 C197 1.434 . S
C199 C200 1.369 . S
C199 C201 1.419 . S
C199 H203 0.930 . S
C200 C199 1.369 . S
C200 C209 1.429 . S
C201 C199 1.419 . S
C201 C202 1.363 . S
C201 H204 0.929 . S
C202 C201 1.363 . S
C202 C208 1.428 . S
H203 C199 0.930 . S
H204 C201 0.929 . S
S205 N206 1.613 . S
S205 N207 1.610 . S
N206 S205 1.613 . S
N206 C209 1.350 . S
N207 S205 1.610 . S
N207 C208 1.351 . S
C208 C202 1.428 . S
C208 N207 1.351 . S
C208 C209 1.434 . S
C209 C200 1.429 . S
C209 N206 1.350 . S
C209 C208 1.434 . S
C81 C43 1.386 . S
C79 C7 1.498 . S
C92 C39 1.403 . S
C90 C16 1.501 . S
C103 C64 1.386 . S
C101 C25 1.498 . S
C112 C34 1.501 . S
C114 C60 1.403 . S
C123 C5 1.368 1_556 S
C125 C61 1.191 . S
C136 C76 1.223 . S
C134 C14 1.382 1_556 S
C145 C4 1.624 1_655 S
C147 C77 1.486 . S
C158 C73 1.515 . S
C156 C13 1.626 1_556 S
C169 C40 1.198 . S
C167 C23 1.365 . S
C178 C32 1.384 . S
C180 C55 1.219 . S
C191 C56 1.486 . S
C189 C22 1.616 . S
C202 C52 1.506 . S
C200 C31 1.628 . S
