# Generated by pormake.
# Topology pyr, (3,6)-cn, num edge types: 1
# Building blocks:
#     Node 0, Type 0, BuildingBlock: BETDIP_clean_linker_0, # of connection points: 3
#     Node 1, Type 0, BuildingBlock: BETDIP_clean_linker_0, # of connection points: 3
#     Node 2, Type 0, BuildingBlock: BETDIP_clean_linker_0, # of connection points: 3
#     Node 3, Type 0, BuildingBlock: BETDIP_clean_linker_0, # of connection points: 3
#     Node 4, Type 0, BuildingBlock: BETDIP_clean_linker_0, # of connection points: 3
#     Node 5, Type 0, BuildingBlock: BETDIP_clean_linker_0, # of connection points: 3
#     Node 6, Type 0, BuildingBlock: BETDIP_clean_linker_0, # of connection points: 3
#     Node 7, Type 0, BuildingBlock: BETDIP_clean_linker_0, # of connection points: 3
#     Node 8, Type 1, BuildingBlock: LEVNOQ01_clean_sbu_1, # of connection points: 6
#     Node 9, Type 1, BuildingBlock: LEVNOQ01_clean_sbu_1, # of connection points: 6
#     Node 10, Type 1, BuildingBlock: LEVNOQ01_clean_sbu_1, # of connection points: 6
#     Node 11, Type 1, BuildingBlock: LEVNOQ01_clean_sbu_1, # of connection points: 6
#     Edge 12, Type (0, 1), None
#     Edge 13, Type (0, 1), None
#     Edge 14, Type (0, 1), None
#     Edge 15, Type (0, 1), None
#     Edge 16, Type (0, 1), None
#     Edge 17, Type (0, 1), None
#     Edge 18, Type (0, 1), None
#     Edge 19, Type (0, 1), None
#     Edge 20, Type (0, 1), None
#     Edge 21, Type (0, 1), None
#     Edge 22, Type (0, 1), None
#     Edge 23, Type (0, 1), None
#     Edge 24, Type (0, 1), None
#     Edge 25, Type (0, 1), None
#     Edge 26, Type (0, 1), None
#     Edge 27, Type (0, 1), None
#     Edge 28, Type (0, 1), None
#     Edge 29, Type (0, 1), None
#     Edge 30, Type (0, 1), None
#     Edge 31, Type (0, 1), None
#     Edge 32, Type (0, 1), None
#     Edge 33, Type (0, 1), None
#     Edge 34, Type (0, 1), None
#     Edge 35, Type (0, 1), None
# Relax obj value: 0.089
# Max RMSD: 0.164
# Mean RMSD: 0.126
data_MOF--net-pry--node1-LEVNOQ01_clean_sbu_1--node2-BETDIP_clean_linker_0--edge1-none
_symmetry_space_group_name_H-M    P1
_symmetry_Int_Tables_number       1
_symmetry_cell_setting            triclinic
loop_
_symmetry_equiv_pos_as_xyz
'x, y, z'
_cell_length_a     16.564127
_cell_length_b     15.672358
_cell_length_c     15.595583
_cell_angle_alpha  96.277308
_cell_angle_beta   81.643553
_cell_angle_gamma 102.14616
loop_
_atom_site_label
_atom_site_type_symbol
_atom_site_fract_x
_atom_site_fract_y
_atom_site_fract_z
_atom_type_partial_charge
H0 H 0.00041 0.09583 0.25221 0.0
H1 H 0.18618 0.14068 0.03107 0.0
H2 H 0.22145 -0.0125 0.23122 0.0
H3 H 0.11698 0.23783 1.00594 0.0
C4 C 0.05782 0.23225 0.04722 0.0
C5 C 0.06029 0.08731 0.21756 0.0
C6 C 0.10792 0.03874 0.25243 0.0
C7 C 0.08723 0.12385 0.13795 0.0
C8 C 0.16414 0.11205 0.09221 0.0
C9 C 0.21428 0.06444 0.12564 0.0
C10 C 0.18467 0.02585 0.20533 0.0
N11 N 0.0369 0.17662 0.11059 0.0
H12 H 0.3907 -0.00957 0.75029 0.0
H13 H 0.32027 0.76913 0.56842 0.0
H14 H 0.48417 0.75509 0.75333 0.0
H15 H 0.2179 0.84367 0.54703 0.0
C16 C 0.22735 0.90559 0.58654 0.0
C17 C 0.39719 0.92541 0.72225 0.0
C18 C 0.44341 0.87815 0.75995 0.0
C19 C 0.35347 0.88736 0.65283 0.0
C20 C 0.35711 0.80086 0.61912 0.0
C21 C 0.40697 0.75431 0.65385 0.0
C22 C 0.45061 0.79373 0.72313 0.0
N23 N 0.30154 0.9372 0.62525 0.0
H24 H 0.72395 0.52581 0.86956 0.0
H25 H 0.52576 0.30232 0.86922 0.0
H26 H 0.72661 0.30876 1.01709 0.0
H27 H 0.5779 0.39996 0.69911 0.0
C28 C 0.54467 0.4382 0.74915 0.0
C29 C 0.69836 0.45997 0.8882 0.0
C30 C 0.7394 0.41983 0.94078 0.0
C31 C 0.62301 0.4161 0.86048 0.0
C32 C 0.58757 0.33231 0.88538 0.0
C33 C 0.62287 0.29432 0.94372 0.0
C34 C 0.69997 0.33723 0.97028 0.0
N35 N 0.57209 0.4622 0.82648 0.0
H36 H 0.75207 0.4712 0.52496 0.0
H37 H 0.97583 0.65647 0.46824 0.0
H38 H 0.76291 0.74195 0.60951 0.0
H39 H 0.86272 0.58634 0.33646 0.0
C40 C 0.88889 0.52942 0.34234 0.0
C41 C 0.78895 0.53542 0.54022 0.0
C42 C 0.74922 0.60325 0.58011 0.0
C43 C 0.87001 0.55572 0.49764 0.0
C44 C 0.91621 0.64065 0.50839 0.0
C45 C 0.87556 0.70847 0.5428 0.0
C46 C 0.79597 0.68873 0.58899 0.0
N47 N 0.8925 0.50374 0.42148 0.0
H48 H 0.76525 0.8657 0.07386 0.0
H49 H 0.97168 0.87549 0.87313 0.0
H50 H 0.77496 0.00998 0.85029 0.0
H51 H 0.03204 0.84185 0.98581 0.0
C52 C 0.98277 0.79256 1.01573 0.0
C53 C 0.7963 0.8893 1.01234 0.0
C54 C 0.75974 0.9405 0.96645 0.0
C55 C 0.87144 0.86488 0.98006 0.0
C56 C 0.91279 0.8934 0.89935 0.0
C57 C 0.87859 0.94582 0.85168 0.0
C58 C 0.80156 0.96927 0.88578 0.0
N59 N 0.90027 0.8074 0.02844 0.0
H60 H 0.62082 0.02508 0.2917 0.0
H61 H 0.68385 0.23678 0.48622 0.0
H62 H 0.48741 0.23649 0.33481 0.0
H63 H 0.76223 0.14646 0.52468 0.0
C64 C 0.7674 0.09439 0.47348 0.0
C65 C 0.60806 0.08477 0.32826 0.0
C66 C 0.54793 0.12554 0.30518 0.0
C67 C 0.6555 0.12221 0.39523 0.0
C68 C 0.64405 0.20366 0.43857 0.0
C69 C 0.58174 0.24379 0.41746 0.0
C70 C 0.53254 0.20293 0.35311 0.0
N71 N 0.71806 0.07784 0.40994 0.0
H72 H 0.25398 0.50172 0.23133 0.0
H73 H 0.46163 0.71579 0.20481 0.0
H74 H 0.25971 0.69932 0.0559 0.0
H75 H 0.52339 0.58743 0.19231 0.0
C76 C 0.49202 0.56832 0.25563 0.0
C77 C 0.28326 0.56261 0.20312 0.0
C78 C 0.24485 0.59652 0.14285 0.0
C79 C 0.3618 0.60444 0.22418 0.0
C80 C 0.40033 0.68334 0.18915 0.0
C81 C 0.36404 0.71753 0.12878 0.0
C82 C 0.28604 0.67452 0.10551 0.0
N83 N 0.40471 0.56369 0.27519 0.0
H84 H 0.98005 0.31787 0.62545 0.0
H85 H 0.18265 0.51438 0.53401 0.0
H86 H 0.19785 0.24513 0.48275 0.0
H87 H 0.10163 0.40648 0.73502 0.0
C88 C 0.07363 0.46233 0.72991 0.0
C89 C 0.03545 0.33486 0.57925 0.0
C90 C 0.08191 0.27054 0.54857 0.0
C91 C 0.07391 0.4233 0.57746 0.0
C92 C 0.15071 0.44645 0.52678 0.0
C93 C 0.19861 0.38211 0.5004 0.0
C94 C 0.15884 0.29391 0.49763 0.0
N95 N 0.05653 0.47955 0.65217 0.0
O96 O -0.00618 0.04665 0.79457 0.0
Mg97 Mg 0.09398 0.10146 0.70423 0.0
O98 O 0.92206 0.96014 0.69673 0.0
Mg99 Mg -0.01228 -0.00737 0.55015 0.0
O100 O 0.04877 0.1252 0.5975 0.0
O101 O 0.11743 0.23224 0.6786 0.0
O102 O 0.05521 0.02859 0.40475 0.0
O103 O 0.87465 0.05384 0.53055 0.0
Mg104 Mg 0.90781 0.8888 0.38932 0.0
O105 O 0.92422 0.85759 0.50714 0.0
O106 O 0.02193 0.91597 0.30955 0.0
O107 O 0.82993 0.98243 0.40958 0.0
O108 O 0.86015 0.76086 0.41142 0.0
C109 C 0.16878 0.95431 0.60155 0.0
C110 C 0.93201 -0.0121 0.77632 0.0
C111 C 0.0802 0.20677 0.61046 0.0
C112 C 0.06696 -0.01065 0.32816 0.0
C113 C 0.82602 0.04175 0.47176 0.0
C114 C 0.88809 0.77878 0.48574 0.0
O115 O 0.18078 0.02228 0.65425 0.0
O116 O 0.10246 0.93178 0.56478 0.0
O117 O 0.33445 0.12704 0.03394 0.0
Mg118 Mg 0.45367 0.13796 0.06995 0.0
O119 O 0.3469 0.01631 0.09956 0.0
Mg120 Mg 0.48905 0.00544 0.03202 0.0
O121 O 0.55665 0.14667 0.97855 0.0
O122 O 0.51267 0.26191 0.05455 0.0
O123 O 0.63199 -0.00606 0.96449 0.0
O124 O 0.44014 0.96402 0.89768 0.0
Mg125 Mg 0.52296 0.88373 1.00755 0.0
O126 O 0.41646 0.86509 0.08817 0.0
O127 O 0.635 0.90767 0.06163 0.0
O128 O 0.52509 0.87275 0.8705 0.0
O129 O 0.47943 0.75664 1.0255 0.0
C130 C 0.51099 0.09722 0.22338 0.0
C131 C 0.3006 0.06579 0.08122 0.0
C132 C 0.56492 0.2309 0.99701 0.0
C133 C 0.67419 0.95295 1.00153 0.0
C134 C 0.47361 0.90983 0.84455 0.0
C135 C 0.41925 0.7824 0.07575 0.0
O136 O 0.45839 0.13725 0.20437 0.0
O137 O 0.54082 0.04468 0.1653 0.0
O138 O 0.34486 0.61192 0.68581 0.0
Mg139 Mg 0.33397 0.47871 0.71081 0.0
O140 O 0.45378 0.62776 0.58202 0.0
Mg141 Mg 0.47815 0.48756 0.532 0.0
O142 O 0.44195 0.44292 0.66336 0.0
O143 O 0.41442 0.46789 0.80328 0.0
O144 O 0.50428 0.35112 0.48194 0.0
O145 O 0.61169 0.52342 0.57643 0.0
Mg146 Mg 0.61814 0.52823 0.41586 0.0
O147 O 0.50235 0.53 0.39005 0.0
O148 O 0.63513 0.39601 0.42644 0.0
O149 O 0.65256 0.63754 0.5051 0.0
O150 O 0.61636 0.55862 0.29266 0.0
C151 C 0.2765 0.40108 0.53867 0.0
C152 C 0.39878 0.65919 0.63519 0.0
C153 C 0.46747 0.45255 0.73772 0.0
C154 C 0.57509 0.33439 0.44947 0.0
C155 C 0.66248 0.59513 0.56527 0.0
C156 C 0.53713 0.55176 0.31341 0.0
O157 O 0.26835 0.39103 0.61977 0.0
O158 O 0.34254 0.44487 0.49918 0.0
O159 O 0.95103 0.29955 0.10733 0.0
Mg160 Mg 0.00067 0.42882 0.15182 0.0
O161 O 0.04641 0.37025 1.01646 0.0
Mg162 Mg -0.00737 0.50553 0.03663 0.0
O163 O 0.93032 0.51796 0.19165 0.0
O164 O 0.96226 0.42619 0.27809 0.0
O165 O 0.94498 0.64875 0.05049 0.0
O166 O 0.8652 0.42745 1.00348 0.0
Mg167 Mg -0.00959 0.57488 0.92853 0.0
O168 O 0.05158 0.48309 0.88121 0.0
O169 O 0.06366 0.6951 0.97597 0.0
O170 O 0.8559 0.53925 0.93675 0.0
O171 O 0.01589 0.57605 0.79926 0.0
C172 C 0.16281 0.54884 0.11949 0.0
C173 C 0.01313 0.29889 0.05063 0.0
C174 C 0.92647 0.48907 0.26827 0.0
C175 C -0.0015 0.71275 1.01922 0.0
C176 C 0.82255 0.46496 0.96381 0.0
C177 C 0.04805 0.50947 0.80546 0.0
O178 O 0.13092 0.4763 0.15083 0.0
O179 O 0.12128 0.5813 0.0732 0.0
loop_
_geom_bond_atom_site_label_1
_geom_bond_atom_site_label_2
_geom_bond_distance
_geom_bond_site_symmetry_2
_ccdc_geom_bond_type
H0 C5 0.930 . S
H1 C8 0.930 . S
H2 C10 0.930 . S
H3 C4 1.016 . S
C4 H3 1.016 . S
C4 N11 1.286 . S
C5 H0 0.930 . S
C5 C6 1.397 . S
C5 C7 1.361 . S
C6 C5 1.397 . S
C6 C10 1.390 . S
C7 C5 1.361 . S
C7 C8 1.393 . S
C7 N11 1.413 . S
C8 H1 0.930 . S
C8 C7 1.393 . S
C8 C9 1.399 . S
C9 C8 1.399 . S
C9 C10 1.381 . S
C10 H2 0.930 . S
C10 C6 1.390 . S
C10 C9 1.381 . S
N11 C4 1.286 . S
N11 C7 1.413 . S
H12 C17 0.930 . S
H13 C20 0.930 . S
H14 C22 0.930 . S
H15 C16 1.016 . S
C16 H15 1.016 . S
C16 N23 1.286 . S
C17 H12 0.930 . S
C17 C18 1.397 . S
C17 C19 1.361 . S
C18 C17 1.397 . S
C18 C22 1.390 . S
C19 C17 1.361 . S
C19 C20 1.393 . S
C19 N23 1.413 . S
C20 H13 0.930 . S
C20 C19 1.393 . S
C20 C21 1.399 . S
C21 C20 1.399 . S
C21 C22 1.381 . S
C22 H14 0.930 . S
C22 C18 1.390 . S
C22 C21 1.381 . S
N23 C16 1.286 . S
N23 C19 1.413 . S
H24 C29 0.930 . S
H25 C32 0.930 . S
H26 C34 0.930 1_554 S
H27 C28 1.016 . S
C28 H27 1.016 . S
C28 N35 1.286 . S
C29 H24 0.930 . S
C29 C30 1.397 . S
C29 C31 1.361 . S
C30 C29 1.397 . S
C30 C34 1.390 . S
C31 C29 1.361 . S
C31 C32 1.393 . S
C31 N35 1.413 . S
C32 H25 0.930 . S
C32 C31 1.393 . S
C32 C33 1.399 . S
C33 C32 1.399 . S
C33 C34 1.381 . S
C34 H26 0.930 1_556 S
C34 C30 1.390 . S
C34 C33 1.381 . S
N35 C28 1.286 . S
N35 C31 1.413 . S
H36 C41 0.930 . S
H37 C44 0.930 . S
H38 C46 0.930 . S
H39 C40 1.016 . S
C40 H39 1.016 . S
C40 N47 1.286 . S
C41 H36 0.930 . S
C41 C42 1.397 . S
C41 C43 1.361 . S
C42 C41 1.397 . S
C42 C46 1.390 . S
C43 C41 1.361 . S
C43 C44 1.393 . S
C43 N47 1.413 . S
C44 H37 0.930 . S
C44 C43 1.393 . S
C44 C45 1.399 . S
C45 C44 1.399 . S
C45 C46 1.381 . S
C46 H38 0.930 . S
C46 C42 1.390 . S
C46 C45 1.381 . S
N47 C40 1.286 . S
N47 C43 1.413 . S
H48 C53 0.930 1_554 S
H49 C56 0.930 . S
H50 C58 0.930 . S
H51 C52 1.016 . S
C52 H51 1.016 . S
C52 N59 1.286 . S
C53 H48 0.930 1_556 S
C53 C54 1.397 . S
C53 C55 1.361 . S
C54 C53 1.397 . S
C54 C58 1.390 1_565 S
C55 C53 1.361 . S
C55 C56 1.393 . S
C55 N59 1.413 . S
C56 H49 0.930 . S
C56 C55 1.393 . S
C56 C57 1.399 . S
C57 C56 1.399 . S
C57 C58 1.381 1_565 S
C58 H50 0.930 . S
C58 C54 1.390 1_545 S
C58 C57 1.381 1_545 S
N59 C52 1.286 . S
N59 C55 1.413 . S
H60 C65 0.930 . S
H61 C68 0.930 . S
H62 C70 0.930 . S
H63 C64 1.016 . S
C64 H63 1.016 . S
C64 N71 1.286 . S
C65 H60 0.930 . S
C65 C66 1.397 . S
C65 C67 1.361 . S
C66 C65 1.397 . S
C66 C70 1.390 . S
C67 C65 1.361 . S
C67 C68 1.393 . S
C67 N71 1.413 . S
C68 H61 0.930 . S
C68 C67 1.393 . S
C68 C69 1.399 . S
C69 C68 1.399 . S
C69 C70 1.381 . S
C70 H62 0.930 . S
C70 C66 1.390 . S
C70 C69 1.381 . S
N71 C64 1.286 . S
N71 C67 1.413 . S
H72 C77 0.930 . S
H73 C80 0.930 . S
H74 C82 0.930 1_556 S
H75 C76 1.016 . S
C76 H75 1.016 . S
C76 N83 1.286 . S
C77 H72 0.930 . S
C77 C78 1.397 . S
C77 C79 1.361 . S
C78 C77 1.397 . S
C78 C82 1.390 . S
C79 C77 1.361 . S
C79 C80 1.393 . S
C79 N83 1.413 . S
C80 H73 0.930 . S
C80 C79 1.393 . S
C80 C81 1.399 . S
C81 C80 1.399 . S
C81 C82 1.381 . S
C82 H74 0.930 1_554 S
C82 C78 1.390 . S
C82 C81 1.381 . S
N83 C76 1.286 . S
N83 C79 1.413 . S
H84 C89 0.930 . S
H85 C92 0.930 . S
H86 C94 0.930 . S
H87 C88 1.016 . S
C88 H87 1.016 . S
C88 N95 1.286 . S
C89 H84 0.930 . S
C89 C90 1.397 . S
C89 C91 1.361 . S
C90 C89 1.397 . S
C90 C94 1.390 . S
C91 C89 1.361 . S
C91 C92 1.393 . S
C91 N95 1.413 . S
C92 H85 0.930 . S
C92 C91 1.393 . S
C92 C93 1.399 . S
C93 C92 1.399 . S
C93 C94 1.381 . S
C94 H86 0.930 . S
C94 C90 1.390 . S
C94 C93 1.381 . S
N95 C88 1.286 . S
N95 C91 1.413 . S
O96 Mg97 1.990 . S
O96 C110 1.253 1_445 S
Mg97 O96 1.990 . S
Mg97 O100 2.180 . S
Mg97 O101 2.117 . S
Mg97 O115 2.030 1_545 S
O98 Mg99 2.072 1_665 S
O98 C110 1.260 . S
Mg99 O98 2.072 1_445 S
Mg99 O100 2.099 . S
Mg99 O102 2.079 . S
Mg99 O103 2.072 1_455 S
Mg99 O105 2.099 1_445 S
Mg99 O116 2.079 1_545 S
O100 Mg97 2.180 . S
O100 Mg99 2.099 . S
O100 C111 1.279 . S
O101 Mg97 2.117 . S
O101 C111 1.250 . S
O102 Mg99 2.079 . S
O102 C112 1.264 . S
O103 Mg99 2.072 1_655 S
O103 C113 1.260 . S
Mg104 O105 2.180 . S
Mg104 O106 2.030 1_565 S
Mg104 O107 1.990 . S
Mg104 O108 2.117 . S
O105 Mg99 2.099 1_665 S
O105 Mg104 2.180 . S
O105 C114 1.279 . S
O106 Mg104 2.030 1_545 S
O106 C112 1.248 1_655 S
O107 Mg104 1.990 . S
O107 C113 1.253 1_565 S
O108 Mg104 2.117 . S
O108 C114 1.250 . S
C109 O115 1.248 . S
C109 O116 1.264 . S
C110 O96 1.253 1_665 S
C110 O98 1.260 . S
C111 O100 1.279 . S
C111 O101 1.250 . S
C112 O102 1.264 . S
C112 O106 1.248 1_455 S
C113 O103 1.260 . S
C113 O107 1.253 1_545 S
C114 O105 1.279 . S
C114 O108 1.250 . S
O115 Mg97 2.030 1_565 S
O115 C109 1.248 . S
O116 Mg99 2.079 1_565 S
O116 C109 1.264 . S
O117 Mg118 1.990 . S
O117 C131 1.253 . S
Mg118 O117 1.990 . S
Mg118 O121 2.180 . S
Mg118 O122 2.117 1_554 S
Mg118 O136 2.030 . S
O119 Mg120 2.072 . S
O119 C131 1.260 . S
Mg120 O119 2.072 . S
Mg120 O121 2.099 . S
Mg120 O123 2.079 1_554 S
Mg120 O124 2.072 1_554 S
Mg120 O126 2.099 1_545 S
Mg120 O137 2.079 . S
O121 Mg118 2.180 . S
O121 Mg120 2.099 . S
O121 C132 1.279 1_554 S
O122 Mg118 2.117 1_556 S
O122 C132 1.250 . S
O123 Mg120 2.079 1_556 S
O123 C133 1.264 1_545 S
O124 Mg120 2.072 1_556 S
O124 C134 1.260 1_545 S
Mg125 O126 2.180 1_556 S
Mg125 O127 2.030 . S
Mg125 O128 1.990 . S
Mg125 O129 2.117 . S
O126 Mg120 2.099 1_565 S
O126 Mg125 2.180 1_554 S
O126 C135 1.279 . S
O127 Mg125 2.030 . S
O127 C133 1.248 . S
O128 Mg125 1.990 . S
O128 C134 1.253 . S
O129 Mg125 2.117 . S
O129 C135 1.250 1_556 S
C130 O136 1.248 . S
C130 O137 1.264 . S
C131 O117 1.253 . S
C131 O119 1.260 . S
C132 O121 1.279 1_556 S
C132 O122 1.250 . S
C133 O123 1.264 1_565 S
C133 O127 1.248 . S
C134 O124 1.260 1_565 S
C134 O128 1.253 . S
C135 O126 1.279 . S
C135 O129 1.250 1_554 S
O136 Mg118 2.030 . S
O136 C130 1.248 . S
O137 Mg120 2.079 . S
O137 C130 1.264 . S
O138 Mg139 1.990 . S
O138 C152 1.253 . S
Mg139 O138 1.990 . S
Mg139 O142 2.180 . S
Mg139 O143 2.117 . S
Mg139 O157 2.030 . S
O140 Mg141 2.072 . S
O140 C152 1.260 . S
Mg141 O140 2.072 . S
Mg141 O142 2.099 . S
Mg141 O144 2.079 . S
Mg141 O145 2.072 . S
Mg141 O147 2.099 . S
Mg141 O158 2.079 . S
O142 Mg139 2.180 . S
O142 Mg141 2.099 . S
O142 C153 1.279 . S
O143 Mg139 2.117 . S
O143 C153 1.250 . S
O144 Mg141 2.079 . S
O144 C154 1.264 . S
O145 Mg141 2.072 . S
O145 C155 1.260 . S
Mg146 O147 2.180 . S
Mg146 O148 2.030 . S
Mg146 O149 1.990 . S
Mg146 O150 2.117 . S
O147 Mg141 2.099 . S
O147 Mg146 2.180 . S
O147 C156 1.279 . S
O148 Mg146 2.030 . S
O148 C154 1.248 . S
O149 Mg146 1.990 . S
O149 C155 1.253 . S
O150 Mg146 2.117 . S
O150 C156 1.250 . S
C151 O157 1.248 . S
C151 O158 1.264 . S
C152 O138 1.253 . S
C152 O140 1.260 . S
C153 O142 1.279 . S
C153 O143 1.250 . S
C154 O144 1.264 . S
C154 O148 1.248 . S
C155 O145 1.260 . S
C155 O149 1.253 . S
C156 O147 1.279 . S
C156 O150 1.250 . S
O157 Mg139 2.030 . S
O157 C151 1.248 . S
O158 Mg141 2.079 . S
O158 C151 1.264 . S
O159 Mg160 1.990 . S
O159 C173 1.253 . S
Mg160 O159 1.990 . S
Mg160 O163 2.180 . S
Mg160 O164 2.117 1_455 S
Mg160 O178 2.030 . S
O161 Mg162 2.072 . S
O161 C173 1.260 . S
Mg162 O161 2.072 . S
Mg162 O163 2.099 . S
Mg162 O165 2.079 1_554 S
Mg162 O166 2.072 1_455 S
Mg162 O168 2.099 1_554 S
Mg162 O179 2.079 . S
O163 Mg160 2.180 . S
O163 Mg162 2.099 . S
O163 C174 1.279 1_455 S
O164 Mg160 2.117 1_655 S
O164 C174 1.250 . S
O165 Mg162 2.079 1_556 S
O165 C175 1.264 1_455 S
O166 Mg162 2.072 1_655 S
O166 C176 1.260 1_554 S
Mg167 O168 2.180 1_655 S
Mg167 O169 2.030 . S
Mg167 O170 1.990 . S
Mg167 O171 2.117 1_655 S
O168 Mg162 2.099 1_556 S
O168 Mg167 2.180 1_455 S
O168 C177 1.279 . S
O169 Mg167 2.030 . S
O169 C175 1.248 . S
O170 Mg167 1.990 . S
O170 C176 1.253 . S
O171 Mg167 2.117 1_455 S
O171 C177 1.250 . S
C172 O178 1.248 . S
C172 O179 1.264 . S
C173 O159 1.253 . S
C173 O161 1.260 . S
C174 O163 1.279 1_655 S
C174 O164 1.250 . S
C175 O165 1.264 1_655 S
C175 O169 1.248 . S
C176 O166 1.260 1_556 S
C176 O170 1.253 . S
C177 O168 1.279 . S
C177 O171 1.250 . S
O178 Mg160 2.030 . S
O178 C172 1.248 . S
O179 Mg162 2.079 . S
O179 C172 1.264 . S
C6 C112 1.838 . S
C18 C134 1.704 . S
C153 C28 1.296 . S
C40 C174 0.946 . S
C131 C9 2.109 . S
C109 C16 1.712 . S
C176 C30 1.492 . S
C155 C42 1.340 . S
C4 C173 1.699 . S
C132 C33 1.390 . S
C45 C114 1.503 . S
C21 C152 1.765 . S
C110 C57 1.910 . S
C66 C130 1.588 . S
C76 C156 1.290 . S
C88 C177 0.889 . S
C54 C133 1.985 . S
C113 C64 1.856 . S
C172 C78 1.208 . S
C151 C93 1.462 . S
C52 C175 1.345 . S
C135 C81 1.248 . S
C111 C90 1.596 . S
C69 C154 1.685 . S
