# Generated by pormake.
# Topology anh, (6,3)-cn, num edge types: 1
# Building blocks:
#     Node 0, Type 0, BuildingBlock: BETDEL_clean_sbu_0, # of connection points: 6
#     Node 1, Type 0, BuildingBlock: BETDEL_clean_sbu_0, # of connection points: 6
#     Node 2, Type 0, BuildingBlock: BETDEL_clean_sbu_0, # of connection points: 6
#     Node 3, Type 1, BuildingBlock: BETDAH_clean_linker_0, # of connection points: 3
#     Node 4, Type 1, BuildingBlock: BETDAH_clean_linker_0, # of connection points: 3
#     Node 5, Type 1, BuildingBlock: BETDAH_clean_linker_0, # of connection points: 3
#     Node 6, Type 1, BuildingBlock: BETDAH_clean_linker_0, # of connection points: 3
#     Node 7, Type 1, BuildingBlock: BETDAH_clean_linker_0, # of connection points: 3
#     Node 8, Type 1, BuildingBlock: BETDAH_clean_linker_0, # of connection points: 3
#     Edge 9, Type (0, 1), None
#     Edge 10, Type (0, 1), None
#     Edge 11, Type (0, 1), None
#     Edge 12, Type (0, 1), None
#     Edge 13, Type (0, 1), None
#     Edge 14, Type (0, 1), None
#     Edge 15, Type (0, 1), None
#     Edge 16, Type (0, 1), None
#     Edge 17, Type (0, 1), None
#     Edge 18, Type (0, 1), None
#     Edge 19, Type (0, 1), None
#     Edge 20, Type (0, 1), None
#     Edge 21, Type (0, 1), None
#     Edge 22, Type (0, 1), None
#     Edge 23, Type (0, 1), None
#     Edge 24, Type (0, 1), None
#     Edge 25, Type (0, 1), None
#     Edge 26, Type (0, 1), None
# Relax obj value: 0.173
# Max RMSD: 0.138
# Mean RMSD: 0.104
data_MOF--net-anh--node1-BETDEL_clean_sbu_0--node2-BETDAH_clean_linker_0--edge1-none
_symmetry_space_group_name_H-M    P1
_symmetry_Int_Tables_number       1
_symmetry_cell_setting            triclinic
loop_
_symmetry_equiv_pos_as_xyz
'x, y, z'
_cell_length_a     13.675943
_cell_length_b     13.670437
_cell_length_c     20.126056
_cell_angle_alpha  90.087301
_cell_angle_beta   93.317288
_cell_angle_gamma 120.25504
loop_
_atom_site_label
_atom_site_type_symbol
_atom_site_fract_x
_atom_site_fract_y
_atom_site_fract_z
_atom_type_partial_charge
Dy0 Dy 0.14725 0.5251 0.1626 0.0
C1 C 0.85862 0.6672 0.16348 0.0
C2 C 0.28618 0.44066 0.15603 0.0
Dy3 Dy 1.03349 0.6313 0.15182 0.0
O4 O 0.22535 0.42812 0.20531 0.0
O5 O 0.27433 0.50151 0.11068 0.0
O6 O 0.07817 0.46286 0.26253 0.0
O7 O 0.13103 0.63 0.23898 0.0
C8 C 0.0895 0.55791 0.2829 0.0
C9 C 0.0852 0.60359 0.028 0.0
O10 O 0.19629 0.79105 0.1839 0.0
O11 O 0.29775 0.70745 0.15815 0.0
O12 O 0.94646 0.72835 0.12962 0.0
O13 O 0.87913 0.60098 0.19991 0.0
O14 O 0.08931 0.694 0.05116 0.0
O15 O 1.0511 0.52938 0.07222 0.0
O16 O 0.98149 0.3625 0.13855 0.0
O17 O 0.88392 0.45142 0.15976 0.0
C18 C 0.29534 0.80071 0.17375 0.0
C19 C 0.88421 0.3566 0.14821 0.0
Dy20 Dy 0.43702 1.01211 0.48621 0.0
C21 C 0.87911 0.27321 0.51333 0.0
C22 C 0.21726 0.85596 0.45586 0.0
Dy23 Dy 0.66031 0.12365 0.48174 0.0
O24 O 0.2655 0.88569 0.51551 0.0
O25 O 0.28755 0.92183 0.41391 0.0
O26 O 0.44496 0.07904 0.58719 0.0
O27 O 0.56454 1.03053 0.56527 0.0
C28 C 0.5308 0.07008 0.60964 0.0
C29 C 0.56405 0.05521 0.35812 0.0
O30 O 0.656 0.95949 0.50156 0.0
O31 O 0.46531 0.86158 0.47545 0.0
O32 O 0.84232 0.20937 0.45964 0.0
O33 O 0.7971 0.25803 0.54861 0.0
O34 O 0.65597 0.05755 0.38004 0.0
O35 O 0.53178 0.09865 0.4012 0.0
O36 O 0.44365 0.18042 0.48879 0.0
O37 O 0.63708 0.27611 0.49311 0.0
C38 C 0.56132 0.86192 0.48929 0.0
C39 C 0.54116 0.27724 0.49385 0.0
Dy40 Dy 0.65307 0.63851 0.82486 0.0
C41 C 0.51185 0.21401 0.82701 0.0
C42 C 0.73381 0.86168 0.81025 0.0
Dy43 Dy 0.54866 0.42784 0.81951 0.0
O44 O 0.75292 0.81849 0.86267 0.0
O45 O 0.66894 0.78397 0.76592 0.0
O46 O 0.73366 0.64564 0.92369 0.0
O47 O 0.55958 0.52708 0.90719 0.0
C48 C 0.64339 0.56926 0.94948 0.0
C49 C 0.5552 0.49717 0.69293 0.0
O50 O 0.38767 0.42472 0.84201 0.0
O51 O 0.47284 0.61006 0.81622 0.0
O52 O 0.44412 0.24259 0.79666 0.0
O53 O 0.58866 0.30075 0.86214 0.0
O54 O 0.46825 0.41512 0.71825 0.0
O55 O 0.63866 0.53846 0.73602 0.0
O56 O 0.81756 0.63743 0.81649 0.0
O57 O 0.72535 0.45265 0.84037 0.0
C58 C 0.37973 0.51534 0.82975 0.0
C59 C 0.8218 0.54557 0.83121 0.0
H60 H 0.36534 0.88968 0.29817 0.0
H61 H 0.68837 0.17755 0.26013 0.0
H62 H 0.47195 0.95253 0.09754 0.0
C63 C 0.42531 0.94279 0.26282 0.0
C64 C 0.40336 0.90926 0.19478 0.0
C65 C 0.52845 0.03829 0.28637 0.0
C66 C 0.60861 0.10536 0.24125 0.0
C67 C 0.58931 0.07712 0.17285 0.0
C68 C 0.4867 0.97711 0.14998 0.0
N69 N 0.6729 0.1447 0.12689 0.0
C70 C 0.77621 0.24747 0.14156 0.0
H71 H 0.54845 0.33037 0.62118 0.0
H72 H 0.57453 0.6563 0.60358 0.0
H73 H 0.54667 0.46047 0.42701 0.0
C74 C 0.55307 0.39712 0.59 0.0
C75 C 0.54626 0.38245 0.52065 0.0
C76 C 0.56483 0.49558 0.62017 0.0
C77 C 0.56868 0.58195 0.58018 0.0
C78 C 0.5612 0.57006 0.51003 0.0
C79 C 0.55108 0.46997 0.48073 0.0
N80 N 0.56289 0.65521 0.46736 0.0
C81 C 0.5634 0.75545 0.48518 0.0
H82 H 0.91152 0.59684 0.95622 0.0
H83 H 0.19637 0.54684 0.93964 0.0
H84 H 0.97394 0.50276 0.76626 0.0
C85 C 0.96259 0.57725 0.92561 0.0
C86 C 0.93113 0.55252 0.85735 0.0
C87 C 0.05667 0.57416 0.95576 0.0
C88 C 0.1235 0.54819 0.9166 0.0
C89 C 0.09572 0.52423 0.84762 0.0
C90 C 0.99791 0.52461 0.81877 0.0
N91 N 0.15995 0.49553 0.80567 0.0
C92 C 0.26764 0.50538 0.81744 0.0
H93 H 0.14488 0.76311 0.33234 0.0
H94 H 1.04489 0.42434 0.39048 0.0
H95 H 0.1384 0.68527 0.5396 0.0
C96 C 0.12277 0.70101 0.37064 0.0
C97 C 0.14135 0.73673 0.43781 0.0
C98 C 0.08869 0.58849 0.35297 0.0
C99 C 0.06845 0.51083 0.40329 0.0
C100 C 0.08756 0.54754 0.47059 0.0
C101 C 0.12044 0.65855 0.48738 0.0
N102 N 0.08128 0.47587 0.52234 0.0
C103 C 0.98803 0.36928 0.52212 0.0
H104 H 0.44463 0.13275 0.70287 0.0
H105 H 0.69786 0.04113 0.67591 0.0
H106 H 0.67054 0.1597 0.86824 0.0
C107 C 0.51124 0.11868 0.72365 0.0
C108 C 0.54719 0.14535 0.79102 0.0
C109 C 0.56623 0.08403 0.68122 0.0
C110 C 0.65516 0.06963 0.70771 0.0
C111 C 0.69164 0.09646 0.77558 0.0
C112 C 0.6385 0.13497 0.81676 0.0
N113 N 0.78172 0.08457 0.80315 0.0
C114 C 0.76614 0.97718 0.80603 0.0
H115 H 0.81383 0.68815 0.03664 0.0
H116 H 0.46468 0.4229 0.02366 0.0
H117 H 0.65696 0.52192 0.21315 0.0
C118 C 0.73867 0.62835 0.06085 0.0
C119 C 0.74589 0.61751 0.12963 0.0
C120 C 0.63926 0.55753 0.02191 0.0
C121 C 0.54332 0.47727 0.05286 0.0
C122 C 0.55073 0.46527 0.12213 0.0
C123 C 0.65152 0.53467 0.16019 0.0
N124 N 0.45578 0.38587 0.15449 0.0
C125 C 0.3659 0.40407 0.15564 0.0
loop_
_geom_bond_atom_site_label_1
_geom_bond_atom_site_label_2
_geom_bond_distance
_geom_bond_site_symmetry_2
_ccdc_geom_bond_type
Dy0 O4 2.398 . S
Dy0 O5 2.491 . S
Dy0 O6 2.403 . S
Dy0 O7 2.664 . S
Dy0 O11 2.326 . S
Dy0 O15 2.310 . S
Dy0 O16 2.351 1_455 S
C1 O12 1.185 . S
C1 O13 1.355 . S
C2 O4 1.185 . S
C2 O5 1.355 . S
Dy3 O7 2.310 1_655 S
Dy3 O10 2.351 1_655 S
Dy3 O12 2.398 . S
Dy3 O13 2.491 . S
Dy3 O14 2.403 . S
Dy3 O15 2.664 1_655 S
Dy3 O17 2.326 . S
O4 Dy0 2.398 . S
O4 C2 1.185 . S
O5 Dy0 2.491 . S
O5 C2 1.355 . S
O6 Dy0 2.403 . S
O6 C8 1.254 . S
O7 Dy0 2.664 . S
O7 Dy3 2.310 1_455 S
O7 C8 1.268 . S
C8 O6 1.254 . S
C8 O7 1.268 . S
C9 O14 1.254 1_455 S
C9 O15 1.268 . S
O10 Dy3 2.351 1_455 S
O10 C18 1.249 . S
O11 Dy0 2.326 . S
O11 C18 1.267 . S
O12 C1 1.185 . S
O12 Dy3 2.398 . S
O13 C1 1.355 . S
O13 Dy3 2.491 . S
O14 Dy3 2.403 . S
O14 C9 1.254 1_655 S
O15 Dy0 2.310 . S
O15 Dy3 2.664 1_455 S
O15 C9 1.268 . S
O16 Dy0 2.351 1_655 S
O16 C19 1.249 . S
O17 Dy3 2.326 . S
O17 C19 1.267 . S
C18 O10 1.249 . S
C18 O11 1.267 . S
C19 O16 1.249 . S
C19 O17 1.267 . S
Dy20 O24 2.398 . S
Dy20 O25 2.491 . S
Dy20 O26 2.403 . S
Dy20 O27 2.664 1_565 S
Dy20 O31 2.326 . S
Dy20 O35 2.310 . S
Dy20 O36 2.351 1_565 S
C21 O32 1.185 . S
C21 O33 1.355 . S
C22 O24 1.185 . S
C22 O25 1.355 . S
Dy23 O27 2.310 . S
Dy23 O30 2.351 1_545 S
Dy23 O32 2.398 . S
Dy23 O33 2.491 . S
Dy23 O34 2.403 . S
Dy23 O35 2.664 1_545 S
Dy23 O37 2.326 . S
O24 Dy20 2.398 . S
O24 C22 1.185 . S
O25 Dy20 2.491 . S
O25 C22 1.355 . S
O26 Dy20 2.403 . S
O26 C28 1.254 1_565 S
O27 Dy20 2.664 1_545 S
O27 Dy23 2.310 . S
O27 C28 1.268 . S
C28 O26 1.254 1_545 S
C28 O27 1.268 . S
C29 O34 1.254 . S
C29 O35 1.268 1_545 S
O30 Dy23 2.351 1_565 S
O30 C38 1.249 . S
O31 Dy20 2.326 . S
O31 C38 1.267 . S
O32 C21 1.185 . S
O32 Dy23 2.398 . S
O33 C21 1.355 . S
O33 Dy23 2.491 . S
O34 Dy23 2.403 . S
O34 C29 1.254 . S
O35 Dy20 2.310 . S
O35 Dy23 2.664 1_565 S
O35 C29 1.268 1_565 S
O36 Dy20 2.351 1_545 S
O36 C39 1.249 . S
O37 Dy23 2.326 . S
O37 C39 1.267 . S
C38 O30 1.249 . S
C38 O31 1.267 . S
C39 O36 1.249 . S
C39 O37 1.267 . S
Dy40 O44 2.398 . S
Dy40 O45 2.491 . S
Dy40 O46 2.403 . S
Dy40 O47 2.664 . S
Dy40 O51 2.326 . S
Dy40 O55 2.310 . S
Dy40 O56 2.351 . S
C41 O52 1.185 . S
C41 O53 1.355 . S
C42 O44 1.185 . S
C42 O45 1.355 . S
Dy43 O47 2.310 . S
Dy43 O50 2.351 . S
Dy43 O52 2.398 . S
Dy43 O53 2.491 . S
Dy43 O54 2.403 . S
Dy43 O55 2.664 . S
Dy43 O57 2.326 . S
O44 Dy40 2.398 . S
O44 C42 1.185 . S
O45 Dy40 2.491 . S
O45 C42 1.355 . S
O46 Dy40 2.403 . S
O46 C48 1.254 . S
O47 Dy40 2.664 . S
O47 Dy43 2.310 . S
O47 C48 1.268 . S
C48 O46 1.254 . S
C48 O47 1.268 . S
C49 O54 1.254 . S
C49 O55 1.268 . S
O50 Dy43 2.351 . S
O50 C58 1.249 . S
O51 Dy40 2.326 . S
O51 C58 1.267 . S
O52 C41 1.185 . S
O52 Dy43 2.398 . S
O53 C41 1.355 . S
O53 Dy43 2.491 . S
O54 Dy43 2.403 . S
O54 C49 1.254 . S
O55 Dy40 2.310 . S
O55 Dy43 2.664 . S
O55 C49 1.268 . S
O56 Dy40 2.351 . S
O56 C59 1.249 . S
O57 Dy43 2.326 . S
O57 C59 1.267 . S
C58 O50 1.249 . S
C58 O51 1.267 . S
C59 O56 1.249 . S
C59 O57 1.267 . S
H60 C63 0.929 . S
H61 C66 0.929 . S
H62 C68 0.930 . S
C63 H60 0.929 . S
C63 C64 1.398 . S
C63 C65 1.396 . S
C64 C63 1.398 . S
C64 C68 1.407 . S
C65 C63 1.396 . S
C65 C66 1.394 1_565 S
C66 H61 0.929 . S
C66 C65 1.394 1_545 S
C66 C67 1.382 . S
C67 C66 1.382 . S
C67 C68 1.392 1_545 S
C67 N69 1.420 . S
C68 H62 0.930 . S
C68 C64 1.407 . S
C68 C67 1.392 1_565 S
N69 C67 1.420 . S
N69 C70 1.244 . S
C70 N69 1.244 . S
H71 C74 0.929 . S
H72 C77 0.929 . S
H73 C79 0.930 . S
C74 H71 0.929 . S
C74 C75 1.398 . S
C74 C76 1.396 . S
C75 C74 1.398 . S
C75 C79 1.407 . S
C76 C74 1.396 . S
C76 C77 1.394 . S
C77 H72 0.929 . S
C77 C76 1.394 . S
C77 C78 1.382 . S
C78 C77 1.382 . S
C78 C79 1.392 . S
C78 N80 1.420 . S
C79 H73 0.930 . S
C79 C75 1.407 . S
C79 C78 1.392 . S
N80 C78 1.420 . S
N80 C81 1.244 . S
C81 N80 1.244 . S
H82 C85 0.929 . S
H83 C88 0.929 . S
H84 C90 0.930 . S
C85 H82 0.929 . S
C85 C86 1.398 . S
C85 C87 1.396 1_655 S
C86 C85 1.398 . S
C86 C90 1.407 . S
C87 C85 1.396 1_455 S
C87 C88 1.394 . S
C88 H83 0.929 . S
C88 C87 1.394 . S
C88 C89 1.382 . S
C89 C88 1.382 . S
C89 C90 1.392 1_455 S
C89 N91 1.420 . S
C90 H84 0.930 . S
C90 C86 1.407 . S
C90 C89 1.392 1_655 S
N91 C89 1.420 . S
N91 C92 1.244 . S
C92 N91 1.244 . S
H93 C96 0.929 . S
H94 C99 0.929 . S
H95 C101 0.930 . S
C96 H93 0.929 . S
C96 C97 1.398 . S
C96 C98 1.396 . S
C97 C96 1.398 . S
C97 C101 1.407 . S
C98 C96 1.396 . S
C98 C99 1.394 1_455 S
C99 H94 0.929 . S
C99 C98 1.394 1_655 S
C99 C100 1.382 . S
C100 C99 1.382 . S
C100 C101 1.392 1_655 S
C100 N102 1.420 . S
C101 H95 0.930 . S
C101 C97 1.407 . S
C101 C100 1.392 1_455 S
N102 C100 1.420 . S
N102 C103 1.244 . S
C103 N102 1.244 . S
H104 C107 0.929 . S
H105 C110 0.929 1_565 S
H106 C112 0.930 . S
C107 H104 0.929 . S
C107 C108 1.398 . S
C107 C109 1.396 . S
C108 C107 1.398 . S
C108 C112 1.407 . S
C109 C107 1.396 . S
C109 C110 1.394 . S
C110 H105 0.929 1_545 S
C110 C109 1.394 . S
C110 C111 1.382 . S
C111 C110 1.382 . S
C111 C112 1.392 . S
C111 N113 1.420 1_545 S
C112 H106 0.930 . S
C112 C108 1.407 . S
C112 C111 1.392 . S
N113 C111 1.420 1_565 S
N113 C114 1.244 . S
C114 N113 1.244 . S
H115 C118 0.929 . S
H116 C121 0.929 . S
H117 C123 0.930 . S
C118 H115 0.929 . S
C118 C119 1.398 . S
C118 C120 1.396 . S
C119 C118 1.398 . S
C119 C123 1.407 . S
C120 C118 1.396 . S
C120 C121 1.394 . S
C121 H116 0.929 . S
C121 C120 1.394 . S
C121 C122 1.382 . S
C122 C121 1.382 . S
C122 C123 1.392 . S
C122 N124 1.420 . S
C123 H117 0.930 . S
C123 C119 1.407 . S
C123 C122 1.392 . S
N124 C122 1.420 . S
N124 C125 1.244 . S
C125 N124 1.244 . S
C2 C125 0.873 . S
C21 C103 0.773 . S
C42 C114 0.821 . S
C1 C119 0.957 . S
C97 C22 0.854 . S
C108 C41 0.844 . S
C38 C81 2.392 . S
C59 C86 2.350 . S
C18 C64 2.278 . S
C75 C39 2.345 . S
C92 C58 2.384 . S
C19 C70 2.457 . S
C87 C9 1.625 1_556 S
C29 C65 1.624 1_545 S
C49 C76 1.607 . S
C109 C28 1.545 . S
C120 C48 1.397 1_554 S
C8 C98 1.282 . S
