# Generated by pormake.
# Topology tsx, (6,3)-cn, num edge types: 1
# Building blocks:
#     Node 0, Type 0, BuildingBlock: FUNLAD_clean_sbu_0, # of connection points: 6
#     Node 1, Type 0, BuildingBlock: FUNLAD_clean_sbu_0, # of connection points: 6
#     Node 2, Type 1, BuildingBlock: CUQRIR_clean_linker_1, # of connection points: 3
#     Node 3, Type 1, BuildingBlock: CUQRIR_clean_linker_1, # of connection points: 3
#     Node 4, Type 1, BuildingBlock: CUQRIR_clean_linker_1, # of connection points: 3
#     Node 5, Type 1, BuildingBlock: CUQRIR_clean_linker_1, # of connection points: 3
#     Edge 6, Type (0, 1), None
#     Edge 7, Type (0, 1), None
#     Edge 8, Type (0, 1), None
#     Edge 9, Type (0, 1), None
#     Edge 10, Type (0, 1), None
#     Edge 11, Type (0, 1), None
#     Edge 12, Type (0, 1), None
#     Edge 13, Type (0, 1), None
#     Edge 14, Type (0, 1), None
#     Edge 15, Type (0, 1), None
#     Edge 16, Type (0, 1), None
#     Edge 17, Type (0, 1), None
# Relax obj value: 0.174
# Max RMSD: 0.194
# Mean RMSD: 0.169
data_MOF--net-tsx--node1-FUNLAD_clean_sbu_0--node2-CUQRIR_clean_linker_1--edge1-none
_symmetry_space_group_name_H-M    P1
_symmetry_Int_Tables_number       1
_symmetry_cell_setting            triclinic
loop_
_symmetry_equiv_pos_as_xyz
'x, y, z'
_cell_length_a     6.4585691
_cell_length_b     7.697319
_cell_length_c     21.926688
_cell_angle_alpha  72.42653
_cell_angle_beta   90.083895
_cell_angle_gamma 89.917288
loop_
_atom_site_label
_atom_site_type_symbol
_atom_site_fract_x
_atom_site_fract_y
_atom_site_fract_z
_atom_type_partial_charge
C0 C 0.82321 0.85196 0.02383 0.0
N1 N 0.14075 0.06551 0.08634 0.0
C2 C 0.94913 0.08979 0.10946 0.0
C3 C 0.91988 0.06193 0.17444 0.0
C4 C 0.08576 1.04059 0.21884 0.0
C5 C 0.27973 1.01968 0.19341 0.0
C6 C 0.30175 1.01638 0.12991 0.0
Zn7 Zn 0.17175 1.03017 -0.01132 0.0
C8 C 0.23009 0.78012 0.87945 0.0
N9 N 0.13795 0.14826 0.79522 0.0
C10 C 0.94706 0.12142 0.77217 0.0
C11 C 0.29828 0.19796 0.75175 0.0
C12 C 0.27651 0.19431 0.68822 0.0
C13 C 0.08301 0.1719 0.66265 0.0
C14 C 0.91735 0.14992 0.70708 0.0
Zn15 Zn 0.1726 0.17901 0.89345 0.0
O16 O 0.97441 0.83034 0.06018 0.0
C17 C 0.82449 0.35849 0.85784 0.0
O18 O 0.86849 0.95774 -0.03377 0.0
H19 H 0.45022 0.21467 0.76969 0.0
H20 H 0.8164 0.11794 0.07785 0.0
H21 H 0.81471 0.09225 0.80377 0.0
O22 O 0.86969 0.25225 0.91538 0.0
O23 O 0.97561 0.37991 0.82159 0.0
H24 H 0.45388 1.00028 0.11205 0.0
O25 O 0.1642 0.43587 -0.05424 0.0
O26 O 0.23767 0.26529 0.03396 0.0
O27 O 0.24212 0.94579 0.84769 0.0
O28 O 0.16538 0.77513 -0.06453 0.0
C29 C 0.22761 0.43095 0.00195 0.0
H30 H 0.76203 1.04604 0.18865 0.0
H31 H 0.41732 1.00719 0.2196 0.0
H32 H 0.41414 0.20727 0.66221 0.0
H33 H 0.75935 0.1664 0.69286 0.0
C34 C 0.32324 0.35198 0.52384 0.0
N35 N 0.64078 0.56552 0.58634 0.0
C36 C 0.44916 0.58983 0.60945 0.0
C37 C 0.4199 0.56196 0.67443 0.0
C38 C 0.58578 0.5406 0.71883 0.0
C39 C 0.77975 0.51968 0.69341 0.0
C40 C 0.80177 0.51637 0.62991 0.0
Zn41 Zn 0.67179 0.53019 0.48868 0.0
C42 C 0.73004 0.28014 0.37945 0.0
N43 N 0.63793 0.64826 0.29521 0.0
C44 C 0.44703 0.62144 0.27216 0.0
C45 C 0.79826 0.69794 0.25174 0.0
C46 C 0.77648 0.69429 0.18822 0.0
C47 C 0.58298 0.6719 0.16265 0.0
C48 C 0.41732 0.64993 0.20707 0.0
Zn49 Zn 0.6726 0.67902 0.39344 0.0
O50 O 0.47445 0.33034 0.56018 0.0
C51 C 0.32449 0.85851 0.35785 0.0
O52 O 0.36852 0.45777 0.46624 0.0
H53 H 0.9502 0.71465 0.26968 0.0
H54 H 0.31644 0.61799 0.57784 0.0
H55 H 0.31468 0.59228 0.30376 0.0
O56 O 0.3697 0.75228 0.41538 0.0
O57 O 0.4756 0.87991 0.32159 0.0
H58 H 0.95391 0.50027 0.61205 0.0
O59 O 0.66425 0.93588 0.44576 0.0
O60 O 0.73779 0.7653 0.53396 0.0
O61 O 0.74204 0.4458 0.34769 0.0
O62 O 0.66536 0.27515 0.43547 0.0
C63 C 0.72769 0.93096 0.50194 0.0
H64 H 0.26205 0.54607 0.68863 0.0
H65 H 0.91733 0.50718 0.7196 0.0
H66 H 0.91411 0.70725 0.1622 0.0
H67 H 0.25932 0.66641 0.19285 0.0
C68 C 1.01258 1.00251 0.38638 0.0
N69 N 0.13532 0.9625 0.34126 0.0
N70 N 0.85434 0.14111 0.3601 0.0
C71 C 0.0916 0.90404 0.45501 0.0
C72 C 0.8883 0.15906 0.29683 0.0
N73 N 0.05044 0.05643 0.2842 0.0
C74 C 0.7465 0.2734 0.24629 0.0
H75 H 0.0647 0.75752 0.46002 0.0
H76 H 0.08947 0.87592 0.50705 0.0
H77 H 0.25104 0.95481 0.45682 0.0
H78 H 0.82779 0.34574 0.20153 0.0
H79 H 0.6531 0.36533 0.2615 0.0
H80 H 0.61866 0.19068 0.23907 0.0
C81 C 1.01477 0.2045 0.49503 0.0
N82 N 0.13491 0.24717 0.54025 0.0
N83 N 0.85486 0.06836 0.52119 0.0
C84 C 0.09682 0.29911 0.42662 0.0
C85 C 0.88677 0.05256 0.58442 0.0
N86 N 0.04833 0.15542 0.59723 0.0
C87 C 0.74248 0.94123 0.63453 0.0
H88 H 0.09665 0.32513 0.37468 0.0
H89 H 0.25725 0.24854 0.42626 0.0
H90 H 0.06785 0.44611 0.42039 0.0
H91 H 0.82183 0.86856 0.67974 0.0
H92 H 0.64786 0.84986 0.61939 0.0
H93 H 0.61589 1.02676 0.64077 0.0
C94 C 0.51251 0.50241 0.88638 0.0
N95 N 0.6353 0.46246 0.84125 0.0
N96 N 0.35431 0.64106 0.8601 0.0
C97 C 0.59146 0.40387 -0.04499 0.0
C98 C 0.3883 0.65904 0.79683 0.0
N99 N 0.55044 0.55642 0.7842 0.0
C100 C 0.24653 0.77341 0.74628 0.0
H101 H 0.56459 0.25735 -0.04001 0.0
H102 H 0.58929 0.3757 0.00705 0.0
H103 H 0.75088 0.45465 -0.04316 0.0
H104 H 0.32783 0.84576 0.70153 0.0
H105 H 0.15313 0.86533 0.76151 0.0
H106 H 0.11867 0.69071 0.73905 0.0
C107 C 0.51481 0.7044 -0.00497 0.0
N108 N 0.63491 0.74712 0.04025 0.0
N109 N 0.35485 0.5683 0.02119 0.0
C110 C 0.59692 0.79894 0.92662 0.0
C111 C 0.38675 0.55254 0.08442 0.0
N112 N 0.5483 0.6554 0.09722 0.0
C113 C 0.24244 0.44122 0.13453 0.0
H114 H 0.59679 0.82491 0.87468 0.0
H115 H 0.75737 0.74837 0.92629 0.0
H116 H 0.56792 0.94594 0.92036 0.0
H117 H 0.32179 0.36856 0.17974 0.0
H118 H 0.14781 0.34985 0.11939 0.0
H119 H 0.11586 0.52677 0.14076 0.0
loop_
_geom_bond_atom_site_label_1
_geom_bond_atom_site_label_2
_geom_bond_distance
_geom_bond_site_symmetry_2
_ccdc_geom_bond_type
C0 O16 1.251 . S
C0 O18 1.254 1_554 S
N1 C2 1.333 1_445 S
N1 C6 1.307 . S
N1 Zn7 2.020 . S
C2 N1 1.333 1_665 S
C2 C3 1.379 . S
C2 H20 0.952 . S
C3 C2 1.379 . S
C3 C4 1.390 1_655 S
C3 H30 0.949 . S
C4 C3 1.390 1_455 S
C4 C5 1.357 1_565 S
C5 C4 1.357 1_545 S
C5 C6 1.370 . S
C5 H31 0.950 . S
C6 N1 1.307 . S
C6 C5 1.370 . S
C6 H24 0.948 . S
Zn7 N1 2.020 . S
Zn7 O16 2.039 1_445 S
Zn7 O22 2.034 1_455 S
Zn7 O26 2.025 . S
Zn7 O28 2.024 1_545 S
C8 O27 1.246 1_554 S
C8 O28 1.249 . S
N9 C10 1.307 1_455 S
N9 C11 1.333 . S
N9 Zn15 2.020 . S
C10 N9 1.307 1_655 S
C10 C14 1.370 . S
C10 H21 0.948 . S
C11 N9 1.333 . S
C11 C12 1.379 . S
C11 H19 0.952 . S
C12 C11 1.379 . S
C12 C13 1.390 . S
C12 H32 0.949 . S
C13 C12 1.390 . S
C13 C14 1.357 1_455 S
C14 C10 1.370 . S
C14 C13 1.357 1_655 S
C14 H33 0.950 . S
Zn15 N9 2.020 . S
Zn15 O18 2.025 1_445 S
Zn15 O23 2.024 1_455 S
Zn15 O25 2.039 . S
Zn15 O27 2.034 1_545 S
O16 C0 1.251 . S
O16 Zn7 2.039 1_665 S
C17 O22 1.246 1_556 S
C17 O23 1.249 . S
O18 C0 1.254 1_556 S
O18 Zn15 2.025 1_665 S
H19 C11 0.952 . S
H20 C2 0.952 . S
H21 C10 0.948 . S
O22 Zn7 2.034 1_655 S
O22 C17 1.246 1_554 S
O23 Zn15 2.024 1_655 S
O23 C17 1.249 . S
H24 C6 0.948 . S
O25 Zn15 2.039 . S
O25 C29 1.251 . S
O26 Zn7 2.025 . S
O26 C29 1.254 1_554 S
O27 C8 1.246 1_556 S
O27 Zn15 2.034 1_565 S
O28 Zn7 2.024 1_565 S
O28 C8 1.249 . S
C29 O25 1.251 . S
C29 O26 1.254 1_556 S
H30 C3 0.949 . S
H31 C5 0.950 . S
H32 C12 0.949 . S
H33 C14 0.950 . S
C34 O50 1.251 . S
C34 O52 1.254 . S
N35 C36 1.333 . S
N35 C40 1.307 . S
N35 Zn41 2.020 . S
C36 N35 1.333 . S
C36 C37 1.379 . S
C36 H54 0.952 . S
C37 C36 1.379 . S
C37 C38 1.390 . S
C37 H64 0.949 . S
C38 C37 1.390 . S
C38 C39 1.357 . S
C39 C38 1.357 . S
C39 C40 1.370 . S
C39 H65 0.950 . S
C40 N35 1.307 . S
C40 C39 1.370 . S
C40 H58 0.948 . S
Zn41 N35 2.020 . S
Zn41 O50 2.039 . S
Zn41 O56 2.034 . S
Zn41 O60 2.025 . S
Zn41 O62 2.024 . S
C42 O61 1.246 . S
C42 O62 1.249 . S
N43 C44 1.307 . S
N43 C45 1.333 . S
N43 Zn49 2.020 . S
C44 N43 1.307 . S
C44 C48 1.370 . S
C44 H55 0.948 . S
C45 N43 1.333 . S
C45 C46 1.379 . S
C45 H53 0.952 . S
C46 C45 1.379 . S
C46 C47 1.390 . S
C46 H66 0.949 . S
C47 C46 1.390 . S
C47 C48 1.357 . S
C48 C44 1.370 . S
C48 C47 1.357 . S
C48 H67 0.950 . S
Zn49 N43 2.020 . S
Zn49 O52 2.025 . S
Zn49 O57 2.024 . S
Zn49 O59 2.039 . S
Zn49 O61 2.034 . S
O50 C34 1.251 . S
O50 Zn41 2.039 . S
C51 O56 1.246 . S
C51 O57 1.249 . S
O52 C34 1.254 . S
O52 Zn49 2.025 . S
H53 C45 0.952 . S
H54 C36 0.952 . S
H55 C44 0.948 . S
O56 Zn41 2.034 . S
O56 C51 1.246 . S
O57 Zn49 2.024 . S
O57 C51 1.249 . S
H58 C40 0.948 . S
O59 Zn49 2.039 . S
O59 C63 1.251 . S
O60 Zn41 2.025 . S
O60 C63 1.254 . S
O61 C42 1.246 . S
O61 Zn49 2.034 . S
O62 Zn41 2.024 . S
O62 C42 1.249 . S
C63 O59 1.251 . S
C63 O60 1.254 . S
H64 C37 0.949 . S
H65 C39 0.950 . S
H66 C46 0.949 . S
H67 C48 0.950 . S
C68 N69 1.317 1_545 S
C68 N70 1.348 1_455 S
C68 C71 1.485 1_545 S
N69 C68 1.317 1_565 S
N69 N73 1.370 . S
N70 C68 1.348 1_655 S
N70 C72 1.346 . S
C71 C68 1.485 1_565 S
C71 H75 0.960 1_455 S
C71 H76 0.961 1_565 S
C71 H77 0.960 . S
C72 N70 1.346 . S
C72 N73 1.307 1_645 S
C72 C74 1.486 . S
N73 N69 1.370 . S
N73 C72 1.307 1_465 S
C74 C72 1.486 . S
C74 H78 0.960 . S
C74 H79 0.960 . S
C74 H80 0.959 . S
H75 C71 0.960 1_655 S
H76 C71 0.961 1_545 S
H77 C71 0.960 . S
H78 C74 0.960 . S
H79 C74 0.960 . S
H80 C74 0.959 . S
C81 N82 1.317 . S
C81 N83 1.348 1_445 S
C81 C84 1.485 . S
N82 C81 1.317 . S
N82 N86 1.370 . S
N83 C81 1.348 1_665 S
N83 C85 1.346 . S
C84 C81 1.485 . S
C84 H88 0.960 1_455 S
C84 H89 0.961 . S
C84 H90 0.960 . S
C85 N83 1.346 . S
C85 N86 1.307 1_665 S
C85 C87 1.486 . S
N86 N82 1.370 . S
N86 C85 1.307 1_445 S
C87 C85 1.486 . S
C87 H91 0.960 . S
C87 H92 0.960 . S
C87 H93 0.959 . S
H88 C84 0.960 1_655 S
H89 C84 0.961 . S
H90 C84 0.960 . S
H91 C87 0.960 . S
H92 C87 0.960 . S
H93 C87 0.959 . S
C94 N95 1.317 1_554 S
C94 N96 1.348 . S
C94 C97 1.485 . S
N95 C94 1.317 1_556 S
N95 N99 1.370 . S
N96 C94 1.348 . S
N96 C98 1.346 1_554 S
C97 C94 1.485 . S
C97 H101 0.960 . S
C97 H102 0.961 . S
C97 H103 0.960 . S
C98 N96 1.346 1_556 S
C98 N99 1.307 . S
C98 C100 1.486 . S
N99 N95 1.370 . S
N99 C98 1.307 . S
C100 C98 1.486 . S
C100 H104 0.960 . S
C100 H105 0.960 . S
C100 H106 0.959 . S
H101 C97 0.960 . S
H102 C97 0.961 . S
H103 C97 0.960 . S
H104 C100 0.960 . S
H105 C100 0.960 . S
H106 C100 0.959 . S
C107 N108 1.317 1_556 S
C107 N109 1.346 1_556 S
C107 C110 1.485 . S
N108 C107 1.317 1_554 S
N108 N112 1.370 . S
N109 C107 1.346 1_554 S
N109 C111 1.355 . S
C110 C107 1.485 . S
C110 H114 0.960 . S
C110 H115 0.961 . S
C110 H116 0.960 . S
C111 N109 1.355 . S
C111 N112 1.307 . S
C111 C113 1.486 . S
N112 N108 1.370 . S
N112 C111 1.307 . S
C113 C111 1.486 . S
C113 H117 0.960 . S
C113 H118 0.960 . S
C113 H119 0.959 . S
H114 C110 0.960 . S
H115 C110 0.961 . S
H116 C110 0.960 . S
H117 C113 0.960 . S
H118 C113 0.960 . S
H119 C113 0.959 . S
N109 C29 1.470 1_554 S
C8 N96 1.520 . S
C0 N108 1.564 . S
C17 N95 1.558 . S
C63 N83 1.471 . S
C42 N70 1.520 . S
N82 C34 1.564 . S
N69 C51 1.557 . S
C4 N73 1.556 . S
C13 N86 1.578 . S
N99 C38 1.556 . S
C47 N112 1.578 . S
