# Generated by pormake.
# Topology cml, (3,6)-cn, num edge types: 1
# Building blocks:
#     Node 0, Type 0, BuildingBlock: BETDIP_clean_linker_0, # of connection points: 3
#     Node 1, Type 0, BuildingBlock: BETDIP_clean_linker_0, # of connection points: 3
#     Node 2, Type 0, BuildingBlock: BETDIP_clean_linker_0, # of connection points: 3
#     Node 3, Type 0, BuildingBlock: BETDIP_clean_linker_0, # of connection points: 3
#     Node 4, Type 0, BuildingBlock: BETDIP_clean_linker_0, # of connection points: 3
#     Node 5, Type 0, BuildingBlock: BETDIP_clean_linker_0, # of connection points: 3
#     Node 6, Type 0, BuildingBlock: BETDIP_clean_linker_0, # of connection points: 3
#     Node 7, Type 0, BuildingBlock: BETDIP_clean_linker_0, # of connection points: 3
#     Node 8, Type 1, BuildingBlock: IZENUY_clean_sbu_0, # of connection points: 6
#     Node 9, Type 1, BuildingBlock: IZENUY_clean_sbu_0, # of connection points: 6
#     Node 10, Type 1, BuildingBlock: IZENUY_clean_sbu_0, # of connection points: 6
#     Node 11, Type 1, BuildingBlock: IZENUY_clean_sbu_0, # of connection points: 6
#     Edge 12, Type (0, 1), None
#     Edge 13, Type (0, 1), None
#     Edge 14, Type (0, 1), None
#     Edge 15, Type (0, 1), None
#     Edge 16, Type (0, 1), None
#     Edge 17, Type (0, 1), None
#     Edge 18, Type (0, 1), None
#     Edge 19, Type (0, 1), None
#     Edge 20, Type (0, 1), None
#     Edge 21, Type (0, 1), None
#     Edge 22, Type (0, 1), None
#     Edge 23, Type (0, 1), None
#     Edge 24, Type (0, 1), None
#     Edge 25, Type (0, 1), None
#     Edge 26, Type (0, 1), None
#     Edge 27, Type (0, 1), None
#     Edge 28, Type (0, 1), None
#     Edge 29, Type (0, 1), None
#     Edge 30, Type (0, 1), None
#     Edge 31, Type (0, 1), None
#     Edge 32, Type (0, 1), None
#     Edge 33, Type (0, 1), None
#     Edge 34, Type (0, 1), None
#     Edge 35, Type (0, 1), None
# Relax obj value: 0.004
# Max RMSD: 0.054
# Mean RMSD: 0.047
data_MOF--net-cml--node1-IZENUY_clean_sbu_0--node2-BETDIP_clean_linker_0--edge1-none
_symmetry_space_group_name_H-M    P1
_symmetry_Int_Tables_number       1
_symmetry_cell_setting            triclinic
loop_
_symmetry_equiv_pos_as_xyz
'x, y, z'
_cell_length_a     16.529454
_cell_length_b     17.55571
_cell_length_c     16.431479
_cell_angle_alpha  90.0
_cell_angle_beta   90.0
_cell_angle_gamma 90.534094
loop_
_atom_site_label
_atom_site_type_symbol
_atom_site_fract_x
_atom_site_fract_y
_atom_site_fract_z
_atom_type_partial_charge
H0 H 0.30482 0.33999 0.12339 0.0
H1 H 0.28618 0.47541 0.90445 0.0
H2 H 0.44408 0.54728 0.09327 0.0
H3 H 0.18982 0.40209 0.87348 0.0
C4 C 0.18103 0.35487 0.91498 0.0
C5 C 0.3203 0.39062 0.0888 0.0
C6 C 0.37901 0.44201 0.11883 0.0
C7 C 0.28267 0.40338 0.01295 0.0
C8 C 0.30746 0.46692 0.9658 0.0
C9 C 0.36434 0.51926 0.99581 0.0
C10 C 0.3973 0.50796 0.073 0.0
N11 N 0.22322 0.34964 0.98506 0.0
H12 H 0.74712 0.73172 0.62339 0.0
H13 H 0.76577 0.59631 0.40445 0.0
H14 H 0.60787 0.52443 0.59327 0.0
H15 H 0.86213 0.66962 0.37348 0.0
C16 C 0.87092 0.71684 0.41498 0.0
C17 C 0.73165 0.68109 0.5888 0.0
C18 C 0.67293 0.6297 0.61883 0.0
C19 C 0.76928 0.66834 0.51295 0.0
C20 C 0.74448 0.60479 0.4658 0.0
C21 C 0.68761 0.55246 0.49581 0.0
C22 C 0.65464 0.56376 0.573 0.0
N23 N 0.82873 0.72208 0.48506 0.0
H24 H 0.76647 0.35944 0.12051 0.0
H25 H 0.74254 0.47434 0.88954 0.0
H26 H 0.59864 0.54129 0.09541 0.0
H27 H 0.81269 0.37446 0.84128 0.0
C28 C 0.84845 0.35139 0.89075 0.0
C29 C 0.7407 0.40454 0.08396 0.0
C30 C 0.68126 0.45137 0.11737 0.0
C31 C 0.76495 0.41338 0.00248 0.0
C32 C 0.72639 0.46792 0.95295 0.0
C33 C 0.66612 0.51465 0.98618 0.0
C34 C 0.6468 0.50765 0.06923 0.0
N35 N 0.8274 0.36542 0.97338 0.0
H36 H 0.28547 0.71228 0.62051 0.0
H37 H 0.30941 0.59738 0.38954 0.0
H38 H 0.4533 0.53042 0.59541 0.0
H39 H 0.23926 0.69725 0.34128 0.0
C40 C 0.20349 0.72033 0.39075 0.0
C41 C 0.31124 0.66717 0.58396 0.0
C42 C 0.37069 0.62034 0.61737 0.0
C43 C 0.28699 0.65833 0.50248 0.0
C44 C 0.32556 0.60379 0.45295 0.0
C45 C 0.38583 0.55707 0.48618 0.0
C46 C 0.40514 0.56406 0.56923 0.0
N47 N 0.22455 0.70629 0.47338 0.0
H48 H 0.80482 0.83999 0.12339 0.0
H49 H 0.78618 0.97541 0.90445 0.0
H50 H 0.94408 0.04728 0.09327 0.0
H51 H 0.68982 0.90209 0.87348 0.0
C52 C 0.68103 0.85487 0.91498 0.0
C53 C 0.8203 0.89062 0.0888 0.0
C54 C 0.87901 0.94201 0.11883 0.0
C55 C 0.78267 0.90338 0.01295 0.0
C56 C 0.80746 0.96692 0.9658 0.0
C57 C 0.86434 1.01926 0.99581 0.0
C58 C 0.8973 1.00796 0.073 0.0
N59 N 0.72322 0.84964 0.98506 0.0
H60 H 0.24712 0.23172 0.62339 0.0
H61 H 0.26577 0.09631 0.40445 0.0
H62 H 0.10787 1.02443 0.59327 0.0
H63 H 0.36213 0.16962 0.37348 0.0
C64 C 0.37092 0.21684 0.41498 0.0
C65 C 0.23165 0.18109 0.5888 0.0
C66 C 0.17293 0.1297 0.61883 0.0
C67 C 0.26928 0.16834 0.51295 0.0
C68 C 0.24448 0.10479 0.4658 0.0
C69 C 0.18761 0.05246 0.49581 0.0
C70 C 0.15464 0.06376 0.573 0.0
N71 N 0.32873 0.22208 0.48506 0.0
H72 H 0.26647 0.85944 0.12051 0.0
H73 H 0.24254 0.97434 0.88954 0.0
H74 H 0.09864 0.04129 0.09541 0.0
H75 H 0.31269 0.87446 0.84128 0.0
C76 C 0.34845 0.85139 0.89075 0.0
C77 C 0.2407 0.90454 0.08396 0.0
C78 C 0.18126 0.95137 0.11737 0.0
C79 C 0.26495 0.91338 0.00248 0.0
C80 C 0.22639 0.96792 0.95295 0.0
C81 C 0.16612 1.01465 0.98618 0.0
C82 C 0.1468 1.00765 0.06923 0.0
N83 N 0.3274 0.86542 0.97338 0.0
H84 H 0.78547 0.21228 0.62051 0.0
H85 H 0.80941 0.09738 0.38954 0.0
H86 H 0.9533 1.03042 0.59541 0.0
H87 H 0.73926 0.19725 0.34128 0.0
C88 C 0.70349 0.22033 0.39075 0.0
C89 C 0.81124 0.16717 0.58396 0.0
C90 C 0.87069 0.12034 0.61737 0.0
C91 C 0.78699 0.15833 0.50248 0.0
C92 C 0.82556 0.10379 0.45295 0.0
C93 C 0.88583 0.05707 0.48618 0.0
C94 C 0.90514 0.06406 0.56923 0.0
N95 N 0.72455 0.20629 0.47338 0.0
Fe96 Fe 0.03082 0.82405 0.26529 0.0
Fe97 Fe 0.0405 0.8784 0.44413 0.0
O98 O 0.03618 0.89912 0.33821 0.0
Fe99 Fe 0.03742 0.99552 0.30504 0.0
O100 O 0.97636 0.97878 0.21506 0.0
O101 O 0.9362 0.85965 0.22099 0.0
O102 O 0.96973 0.76015 0.32919 0.0
C103 C 0.93002 0.77042 0.39401 0.0
C104 C 0.13904 0.93093 0.19306 0.0
O105 O 0.94604 0.82504 0.44117 0.0
C106 C 0.14472 1.00055 0.43969 0.0
O107 O 0.12479 0.78285 0.3016 0.0
O108 O 0.10045 0.79221 0.4329 0.0
O109 O 0.13023 0.98138 0.24728 0.0
O110 O 0.09139 0.87429 0.18891 0.0
C111 C 0.93577 1.00555 0.43603 0.0
O112 O 0.13518 0.93117 0.45799 0.0
O113 O 0.09901 1.03185 0.38859 0.0
C114 C 0.14169 0.76659 0.37438 0.0
O115 O 0.98166 0.96055 0.47382 0.0
O116 O 0.94428 1.01659 0.36041 0.0
C117 C 0.92904 0.92624 0.19237 0.0
Fe118 Fe 1.01144 0.19331 0.94413 0.0
Fe119 Fe 1.01453 0.0762 0.80504 0.0
O120 O 1.01576 0.1726 0.83821 0.0
Fe121 Fe 1.02113 0.24766 0.76529 0.0
O122 O 0.08222 0.31156 0.82919 0.0
O123 O 0.10591 0.24668 0.94117 0.0
O124 O 0.07028 0.11116 0.97382 0.0
C125 C 0.11618 0.06617 0.93603 0.0
C126 C 0.91025 0.30512 0.87438 0.0
O127 O 0.10766 0.05512 0.86041 0.0
C128 C 0.9129 0.14079 0.69306 0.0
O129 O 0.91676 0.14054 0.95799 0.0
O130 O 0.95293 0.03986 0.88859 0.0
O131 O 0.92716 0.28886 0.8016 0.0
O132 O 0.95149 0.2795 0.9329 0.0
C133 C 0.12291 0.14547 0.69237 0.0
O134 O 0.92172 0.09033 0.74728 0.0
O135 O 0.96055 0.19742 0.68891 0.0
C136 C 0.90723 0.07116 0.93969 0.0
O137 O 0.07558 0.09294 0.71506 0.0
O138 O 0.11574 0.21207 0.72099 0.0
C139 C 0.12193 0.3013 0.89401 0.0
Fe140 Fe 0.53082 0.32405 0.26529 0.0
Fe141 Fe 0.5405 0.3784 0.44413 0.0
O142 O 0.53618 0.39912 0.33821 0.0
Fe143 Fe 0.53742 0.49552 0.30504 0.0
O144 O 0.47636 0.47878 0.21506 0.0
O145 O 0.4362 0.35965 0.22099 0.0
O146 O 0.46973 0.26015 0.32919 0.0
C147 C 0.43002 0.27042 0.39401 0.0
C148 C 0.63904 0.43093 0.19306 0.0
O149 O 0.44604 0.32504 0.44117 0.0
C150 C 0.64472 0.50055 0.43969 0.0
O151 O 0.62479 0.28285 0.3016 0.0
O152 O 0.60045 0.29221 0.4329 0.0
O153 O 0.63023 0.48138 0.24728 0.0
O154 O 0.59139 0.37429 0.18891 0.0
C155 C 0.43577 0.50555 0.43603 0.0
O156 O 0.63518 0.43117 0.45799 0.0
O157 O 0.59901 0.53185 0.38859 0.0
C158 C 0.64169 0.26659 0.37438 0.0
O159 O 0.48166 0.46055 0.47382 0.0
O160 O 0.44428 0.51659 0.36041 0.0
C161 C 0.42904 0.42624 0.19237 0.0
Fe162 Fe 0.51144 0.69331 0.94413 0.0
Fe163 Fe 0.51453 0.5762 0.80504 0.0
O164 O 0.51576 0.6726 0.83821 0.0
Fe165 Fe 0.52113 0.74766 0.76529 0.0
O166 O 0.58222 0.81156 0.82919 0.0
O167 O 0.60591 0.74668 0.94117 0.0
O168 O 0.57028 0.61116 0.97382 0.0
C169 C 0.61618 0.56617 0.93603 0.0
C170 C 0.41025 0.80512 0.87438 0.0
O171 O 0.60766 0.55512 0.86041 0.0
C172 C 0.4129 0.64079 0.69306 0.0
O173 O 0.41676 0.64054 0.95799 0.0
O174 O 0.45293 0.53986 0.88859 0.0
O175 O 0.42716 0.78886 0.8016 0.0
O176 O 0.45149 0.7795 0.9329 0.0
C177 C 0.62291 0.64547 0.69237 0.0
O178 O 0.42172 0.59033 0.74728 0.0
O179 O 0.46055 0.69742 0.68891 0.0
C180 C 0.40723 0.57116 0.93969 0.0
O181 O 0.57558 0.59294 0.71506 0.0
O182 O 0.61574 0.71207 0.72099 0.0
C183 C 0.62193 0.8013 0.89401 0.0
loop_
_geom_bond_atom_site_label_1
_geom_bond_atom_site_label_2
_geom_bond_distance
_geom_bond_site_symmetry_2
_ccdc_geom_bond_type
H0 C5 0.930 . S
H1 C8 0.930 . S
H2 C10 0.930 . S
H3 C4 1.016 . S
C4 H3 1.016 . S
C4 N11 1.286 . S
C5 H0 0.930 . S
C5 C6 1.397 . S
C5 C7 1.361 . S
C6 C5 1.397 . S
C6 C10 1.390 . S
C7 C5 1.361 . S
C7 C8 1.393 1_554 S
C7 N11 1.413 1_554 S
C8 H1 0.930 . S
C8 C7 1.393 1_556 S
C8 C9 1.399 . S
C9 C8 1.399 . S
C9 C10 1.381 1_556 S
C10 H2 0.930 . S
C10 C6 1.390 . S
C10 C9 1.381 1_554 S
N11 C4 1.286 . S
N11 C7 1.413 1_556 S
H12 C17 0.930 . S
H13 C20 0.930 . S
H14 C22 0.930 . S
H15 C16 1.016 . S
C16 H15 1.016 . S
C16 N23 1.286 . S
C17 H12 0.930 . S
C17 C18 1.397 . S
C17 C19 1.361 . S
C18 C17 1.397 . S
C18 C22 1.390 . S
C19 C17 1.361 . S
C19 C20 1.393 . S
C19 N23 1.413 . S
C20 H13 0.930 . S
C20 C19 1.393 . S
C20 C21 1.399 . S
C21 C20 1.399 . S
C21 C22 1.381 . S
C22 H14 0.930 . S
C22 C18 1.390 . S
C22 C21 1.381 . S
N23 C16 1.286 . S
N23 C19 1.413 . S
H24 C29 0.930 . S
H25 C32 0.930 . S
H26 C34 0.930 . S
H27 C28 1.016 . S
C28 H27 1.016 . S
C28 N35 1.286 1_556 S
C29 H24 0.930 . S
C29 C30 1.397 . S
C29 C31 1.361 . S
C30 C29 1.397 . S
C30 C34 1.390 . S
C31 C29 1.361 . S
C31 C32 1.393 1_554 S
C31 N35 1.413 . S
C32 H25 0.930 . S
C32 C31 1.393 1_556 S
C32 C33 1.399 . S
C33 C32 1.399 . S
C33 C34 1.381 1_556 S
C34 H26 0.930 . S
C34 C30 1.390 . S
C34 C33 1.381 1_554 S
N35 C28 1.286 1_554 S
N35 C31 1.413 . S
H36 C41 0.930 . S
H37 C44 0.930 . S
H38 C46 0.930 . S
H39 C40 1.016 . S
C40 H39 1.016 . S
C40 N47 1.286 . S
C41 H36 0.930 . S
C41 C42 1.397 . S
C41 C43 1.361 . S
C42 C41 1.397 . S
C42 C46 1.390 . S
C43 C41 1.361 . S
C43 C44 1.393 . S
C43 N47 1.413 . S
C44 H37 0.930 . S
C44 C43 1.393 . S
C44 C45 1.399 . S
C45 C44 1.399 . S
C45 C46 1.381 . S
C46 H38 0.930 . S
C46 C42 1.390 . S
C46 C45 1.381 . S
N47 C40 1.286 . S
N47 C43 1.413 . S
H48 C53 0.930 . S
H49 C56 0.930 . S
H50 C58 0.930 . S
H51 C52 1.016 . S
C52 H51 1.016 . S
C52 N59 1.286 . S
C53 H48 0.930 . S
C53 C54 1.397 . S
C53 C55 1.361 . S
C54 C53 1.397 . S
C54 C58 1.390 . S
C55 C53 1.361 . S
C55 C56 1.393 1_554 S
C55 N59 1.413 1_554 S
C56 H49 0.930 . S
C56 C55 1.393 1_556 S
C56 C57 1.399 . S
C57 C56 1.399 . S
C57 C58 1.381 1_556 S
C58 H50 0.930 . S
C58 C54 1.390 . S
C58 C57 1.381 1_554 S
N59 C52 1.286 . S
N59 C55 1.413 1_556 S
H60 C65 0.930 . S
H61 C68 0.930 . S
H62 C70 0.930 . S
H63 C64 1.016 . S
C64 H63 1.016 . S
C64 N71 1.286 . S
C65 H60 0.930 . S
C65 C66 1.397 . S
C65 C67 1.361 . S
C66 C65 1.397 . S
C66 C70 1.390 . S
C67 C65 1.361 . S
C67 C68 1.393 . S
C67 N71 1.413 . S
C68 H61 0.930 . S
C68 C67 1.393 . S
C68 C69 1.399 . S
C69 C68 1.399 . S
C69 C70 1.381 . S
C70 H62 0.930 . S
C70 C66 1.390 . S
C70 C69 1.381 . S
N71 C64 1.286 . S
N71 C67 1.413 . S
H72 C77 0.930 . S
H73 C80 0.930 . S
H74 C82 0.930 . S
H75 C76 1.016 . S
C76 H75 1.016 . S
C76 N83 1.286 1_556 S
C77 H72 0.930 . S
C77 C78 1.397 . S
C77 C79 1.361 . S
C78 C77 1.397 . S
C78 C82 1.390 . S
C79 C77 1.361 . S
C79 C80 1.393 1_554 S
C79 N83 1.413 . S
C80 H73 0.930 . S
C80 C79 1.393 1_556 S
C80 C81 1.399 . S
C81 C80 1.399 . S
C81 C82 1.381 1_556 S
C82 H74 0.930 . S
C82 C78 1.390 . S
C82 C81 1.381 1_554 S
N83 C76 1.286 1_554 S
N83 C79 1.413 . S
H84 C89 0.930 . S
H85 C92 0.930 . S
H86 C94 0.930 . S
H87 C88 1.016 . S
C88 H87 1.016 . S
C88 N95 1.286 . S
C89 H84 0.930 . S
C89 C90 1.397 . S
C89 C91 1.361 . S
C90 C89 1.397 . S
C90 C94 1.390 . S
C91 C89 1.361 . S
C91 C92 1.393 . S
C91 N95 1.413 . S
C92 H85 0.930 . S
C92 C91 1.393 . S
C92 C93 1.399 . S
C93 C92 1.399 . S
C93 C94 1.381 . S
C94 H86 0.930 . S
C94 C90 1.390 . S
C94 C93 1.381 . S
N95 C88 1.286 . S
N95 C91 1.413 . S
Fe96 O98 1.918 . S
Fe96 O101 1.997 1_455 S
Fe96 O102 2.002 1_455 S
Fe96 O107 1.976 . S
Fe96 O110 1.996 . S
Fe97 O98 1.918 . S
Fe97 O105 1.997 1_455 S
Fe97 O108 1.996 . S
Fe97 O112 1.976 . S
Fe97 O115 2.002 1_455 S
O98 Fe96 1.918 . S
O98 Fe97 1.918 . S
O98 Fe99 1.918 . S
Fe99 O98 1.918 . S
Fe99 O100 2.002 1_455 S
Fe99 O109 1.976 . S
Fe99 O113 1.996 1_565 S
Fe99 O116 1.997 1_465 S
O100 Fe99 2.002 1_655 S
O100 C117 1.295 . S
O101 Fe96 1.997 1_655 S
O101 C117 1.235 . S
O102 Fe96 2.002 1_655 S
O102 C103 1.295 . S
C103 O102 1.295 . S
C103 O105 1.235 . S
C104 O109 1.287 . S
C104 O110 1.255 . S
O105 Fe97 1.997 1_655 S
O105 C103 1.235 . S
C106 O112 1.287 1_545 S
C106 O113 1.255 . S
O107 Fe96 1.976 . S
O107 C114 1.287 . S
O108 Fe97 1.996 . S
O108 C114 1.255 . S
O109 Fe99 1.976 . S
O109 C104 1.287 . S
O110 Fe96 1.996 . S
O110 C104 1.255 . S
C111 O115 1.295 1_545 S
C111 O116 1.235 . S
O112 Fe97 1.976 . S
O112 C106 1.287 1_565 S
O113 Fe99 1.996 1_545 S
O113 C106 1.255 . S
C114 O107 1.287 . S
C114 O108 1.255 . S
O115 Fe97 2.002 1_655 S
O115 C111 1.295 1_565 S
O116 Fe99 1.997 1_645 S
O116 C111 1.235 . S
C117 O100 1.295 . S
C117 O101 1.235 . S
Fe118 O120 1.918 1_455 S
Fe118 O123 2.001 . S
Fe118 O124 2.007 . S
Fe118 O129 1.971 1_455 S
Fe118 O132 1.991 1_455 S
Fe119 O120 1.918 1_455 S
Fe119 O127 2.001 1_545 S
Fe119 O130 1.991 1_445 S
Fe119 O134 1.971 1_455 S
Fe119 O137 2.007 . S
O120 Fe118 1.918 1_655 S
O120 Fe119 1.918 1_655 S
O120 Fe121 1.918 1_655 S
Fe121 O120 1.918 1_455 S
Fe121 O122 2.007 . S
Fe121 O131 1.972 1_455 S
Fe121 O135 1.992 1_455 S
Fe121 O138 2.001 . S
O122 Fe121 2.007 . S
O122 C139 1.295 . S
O123 Fe118 2.001 . S
O123 C139 1.235 . S
O124 Fe118 2.007 . S
O124 C125 1.295 1_545 S
C125 O124 1.295 1_565 S
C125 O127 1.235 . S
C126 O131 1.287 . S
C126 O132 1.255 . S
O127 Fe119 2.001 1_565 S
O127 C125 1.235 . S
C128 O134 1.287 . S
C128 O135 1.255 . S
O129 Fe118 1.971 1_655 S
O129 C136 1.287 1_545 S
O130 Fe119 1.991 1_665 S
O130 C136 1.255 . S
O131 Fe121 1.972 1_655 S
O131 C126 1.287 . S
O132 Fe118 1.991 1_655 S
O132 C126 1.255 . S
C133 O137 1.295 . S
C133 O138 1.235 . S
O134 Fe119 1.971 1_655 S
O134 C128 1.287 . S
O135 Fe121 1.992 1_655 S
O135 C128 1.255 . S
C136 O129 1.287 1_565 S
C136 O130 1.255 . S
O137 Fe119 2.007 . S
O137 C133 1.295 . S
O138 Fe121 2.001 . S
O138 C133 1.235 . S
C139 O122 1.295 . S
C139 O123 1.235 . S
Fe140 O142 1.918 . S
Fe140 O145 1.997 . S
Fe140 O146 2.002 . S
Fe140 O151 1.976 . S
Fe140 O154 1.996 . S
Fe141 O142 1.918 . S
Fe141 O149 1.997 . S
Fe141 O152 1.996 . S
Fe141 O156 1.976 . S
Fe141 O159 2.002 . S
O142 Fe140 1.918 . S
O142 Fe141 1.918 . S
O142 Fe143 1.918 . S
Fe143 O142 1.918 . S
Fe143 O144 2.002 . S
Fe143 O153 1.976 . S
Fe143 O157 1.996 . S
Fe143 O160 1.997 . S
O144 Fe143 2.002 . S
O144 C161 1.295 . S
O145 Fe140 1.997 . S
O145 C161 1.235 . S
O146 Fe140 2.002 . S
O146 C147 1.295 . S
C147 O146 1.295 . S
C147 O149 1.235 . S
C148 O153 1.287 . S
C148 O154 1.255 . S
O149 Fe141 1.997 . S
O149 C147 1.235 . S
C150 O156 1.287 . S
C150 O157 1.255 . S
O151 Fe140 1.976 . S
O151 C158 1.287 . S
O152 Fe141 1.996 . S
O152 C158 1.255 . S
O153 Fe143 1.976 . S
O153 C148 1.287 . S
O154 Fe140 1.996 . S
O154 C148 1.255 . S
C155 O159 1.295 . S
C155 O160 1.235 . S
O156 Fe141 1.976 . S
O156 C150 1.287 . S
O157 Fe143 1.996 . S
O157 C150 1.255 . S
C158 O151 1.287 . S
C158 O152 1.255 . S
O159 Fe141 2.002 . S
O159 C155 1.295 . S
O160 Fe143 1.997 . S
O160 C155 1.235 . S
C161 O144 1.295 . S
C161 O145 1.235 . S
Fe162 O164 1.918 . S
Fe162 O167 1.997 . S
Fe162 O168 2.002 . S
Fe162 O173 1.976 . S
Fe162 O176 1.996 . S
Fe163 O164 1.918 . S
Fe163 O171 1.997 . S
Fe163 O174 1.996 . S
Fe163 O178 1.976 . S
Fe163 O181 2.002 . S
O164 Fe162 1.918 . S
O164 Fe163 1.918 . S
O164 Fe165 1.918 . S
Fe165 O164 1.918 . S
Fe165 O166 2.002 . S
Fe165 O175 1.976 . S
Fe165 O179 1.996 . S
Fe165 O182 1.997 . S
O166 Fe165 2.002 . S
O166 C183 1.295 . S
O167 Fe162 1.997 . S
O167 C183 1.235 . S
O168 Fe162 2.002 . S
O168 C169 1.295 . S
C169 O168 1.295 . S
C169 O171 1.235 . S
C170 O175 1.287 . S
C170 O176 1.255 . S
O171 Fe163 1.997 . S
O171 C169 1.235 . S
C172 O178 1.287 . S
C172 O179 1.255 . S
O173 Fe162 1.976 . S
O173 C180 1.287 . S
O174 Fe163 1.996 . S
O174 C180 1.255 . S
O175 Fe165 1.976 . S
O175 C170 1.287 . S
O176 Fe162 1.996 . S
O176 C170 1.255 . S
C177 O181 1.295 . S
C177 O182 1.235 . S
O178 Fe163 1.976 . S
O178 C172 1.287 . S
O179 Fe165 1.996 . S
O179 C172 1.255 . S
C180 O173 1.287 . S
C180 O174 1.255 . S
O181 Fe163 2.002 . S
O181 C177 1.295 . S
O182 Fe165 1.997 . S
O182 C177 1.235 . S
C183 O166 1.295 . S
C183 O167 1.235 . S
C4 C139 1.565 . S
C103 C16 1.565 . S
C126 C28 1.587 . S
C114 C40 1.587 . S
C183 C52 1.565 . S
C147 C64 1.565 . S
C76 C170 1.587 . S
C158 C88 1.587 . S
C9 C180 1.579 . S
C150 C21 1.579 . S
C33 C169 1.608 . S
C45 C155 1.608 . S
C136 C57 1.579 . S
C69 C106 1.579 . S
C125 C81 1.608 . S
C111 C93 1.608 . S
C161 C6 1.510 . S
C177 C18 1.510 . S
C30 C148 1.551 . S
C172 C42 1.551 . S
C117 C54 1.510 . S
C66 C133 1.510 . S
C78 C104 1.551 . S
C90 C128 1.551 . S
