# Generated by pormake.
# Topology tsx, (6,3)-cn, num edge types: 1
# Building blocks:
#     Node 0, Type 0, BuildingBlock: LEVNOQ01_clean_sbu_1, # of connection points: 6
#     Node 1, Type 0, BuildingBlock: LEVNOQ01_clean_sbu_1, # of connection points: 6
#     Node 2, Type 1, BuildingBlock: PAMTOO_clean_linker_0, # of connection points: 3
#     Node 3, Type 1, BuildingBlock: PAMTOO_clean_linker_0, # of connection points: 3
#     Node 4, Type 1, BuildingBlock: PAMTOO_clean_linker_0, # of connection points: 3
#     Node 5, Type 1, BuildingBlock: PAMTOO_clean_linker_0, # of connection points: 3
#     Edge 6, Type (0, 1), BuildingBlock: AJUNOK_clean_linker_0, # of connection points: 2
#     Edge 7, Type (0, 1), BuildingBlock: AJUNOK_clean_linker_0, # of connection points: 2
#     Edge 8, Type (0, 1), BuildingBlock: AJUNOK_clean_linker_0, # of connection points: 2
#     Edge 9, Type (0, 1), BuildingBlock: AJUNOK_clean_linker_0, # of connection points: 2
#     Edge 10, Type (0, 1), BuildingBlock: AJUNOK_clean_linker_0, # of connection points: 2
#     Edge 11, Type (0, 1), BuildingBlock: AJUNOK_clean_linker_0, # of connection points: 2
#     Edge 12, Type (0, 1), BuildingBlock: AJUNOK_clean_linker_0, # of connection points: 2
#     Edge 13, Type (0, 1), BuildingBlock: AJUNOK_clean_linker_0, # of connection points: 2
#     Edge 14, Type (0, 1), BuildingBlock: AJUNOK_clean_linker_0, # of connection points: 2
#     Edge 15, Type (0, 1), BuildingBlock: AJUNOK_clean_linker_0, # of connection points: 2
#     Edge 16, Type (0, 1), BuildingBlock: AJUNOK_clean_linker_0, # of connection points: 2
#     Edge 17, Type (0, 1), BuildingBlock: AJUNOK_clean_linker_0, # of connection points: 2
# Relax obj value: 0.130
# Max RMSD: 0.141
# Mean RMSD: 0.136
data_MOF--net-tsx--node1-LEVNOQ01_clean_sbu_1--node2-PAMTOO_clean_linker_0--edge1-AJUNOK_clean_linker_0
_symmetry_space_group_name_H-M    P1
_symmetry_Int_Tables_number       1
_symmetry_cell_setting            triclinic
loop_
_symmetry_equiv_pos_as_xyz
'x, y, z'
_cell_length_a     12.499825
_cell_length_b     17.474977
_cell_length_c     26.509937
_cell_angle_alpha  87.656214
_cell_angle_beta   92.967452
_cell_angle_gamma 89.812636
loop_
_atom_site_label
_atom_site_type_symbol
_atom_site_fract_x
_atom_site_fract_y
_atom_site_fract_z
_atom_type_partial_charge
O0 O 0.25426 -0.01358 0.06141 0.0
Mg1 Mg 0.29445 0.03828 -0.00996 0.0
O2 O 0.09034 0.03524 0.0541 0.0
Mg3 Mg 0.08267 0.04865 -0.03183 0.0
O4 O 0.22047 0.14016 -0.02584 0.0
O5 O 0.39539 0.12745 -0.00198 0.0
O6 O 0.09264 0.06182 0.88094 0.0
O7 O 0.99098 0.16587 -0.02777 0.0
Mg8 Mg 0.87664 0.04612 0.9188 0.0
O9 O 0.93085 0.96361 -0.02827 0.0
O10 O 0.93191 0.04673 0.84585 0.0
O11 O 0.82413 0.14969 0.9449 0.0
O12 O 0.76927 0.96394 0.92966 0.0
C13 C 0.25601 0.9211 0.93298 0.0
C14 C 0.1664 0.0025 0.08063 0.0
C15 C 0.31388 0.17006 -0.01591 0.0
C16 C 1.03083 0.05758 0.84156 0.0
C17 C 0.89626 0.19195 -0.0365 0.0
C18 C 0.83623 0.93311 -0.03678 0.0
O19 O 0.31847 0.97615 0.92576 0.0
O20 O 0.17589 0.93092 -0.0399 0.0
O21 O 0.76868 0.45876 0.5573 0.0
Mg22 Mg 0.78966 0.49747 0.48035 0.0
O23 O 0.61088 0.51436 0.55236 0.0
Mg24 Mg 0.60472 0.51751 0.46587 0.0
O25 O 0.75043 0.60949 0.46628 0.0
O26 O 0.91762 0.56548 0.48542 0.0
O27 O 0.60494 0.52271 0.3782 0.0
O28 O 0.51411 0.63938 0.46351 0.0
Mg29 Mg 0.39786 0.52459 0.43639 0.0
O30 O 0.46208 0.42816 0.47085 0.0
O31 O 0.4361 0.55314 0.36109 0.0
O32 O 0.35277 0.60971 0.48381 0.0
O33 O 0.29297 0.43812 0.43844 0.0
C34 C 0.75267 0.37127 0.43575 0.0
C35 C 0.68807 0.48346 0.57904 0.0
C36 C 0.85186 0.62191 0.47694 0.0
C37 C 0.52935 0.54253 0.34621 0.0
C38 C 0.42129 0.66069 0.47574 0.0
C39 C 0.36744 0.39855 0.46289 0.0
O40 O 0.81513 0.42275 0.42106 0.0
O41 O 0.67936 0.39029 0.46443 0.0
H42 H 0.27622 0.89568 0.31269 0.0
H43 H 1.02325 0.06507 0.29833 0.0
H44 H 0.12017 0.96717 0.44332 0.0
H45 H 0.86729 0.0179 0.42247 0.0
C46 C 0.88868 0.06247 0.39388 0.0
O47 O 0.99862 0.07074 0.39472 0.0
H48 H 0.85764 0.04385 0.35624 0.0
C49 C 0.21711 0.93068 0.3295 0.0
C50 C 0.20737 0.92567 0.38212 0.0
C51 C 0.14937 0.97941 0.2985 0.0
C52 C 0.07528 0.02613 0.32113 0.0
C53 C 0.06526 0.02194 0.37329 0.0
C54 C 0.12945 0.97072 0.40334 0.0
H55 H 0.25558 0.16407 0.63353 0.0
H56 H 0.10322 0.94374 0.63187 0.0
H57 H 0.21111 0.04667 0.49443 0.0
H58 H 0.97263 0.97187 0.49367 0.0
C59 C 0.99507 0.92958 0.52478 0.0
O60 O 0.10489 0.93143 0.53483 0.0
H61 H 0.95199 0.94531 0.55861 0.0
C62 C 0.23198 0.11349 0.61344 0.0
C63 C 0.24262 0.11173 0.56095 0.0
C64 C 0.18116 0.05312 0.63904 0.0
C65 C 0.14485 -0.01025 0.61254 0.0
C66 C 0.15269 -0.01166 0.56039 0.0
C67 C 0.20402 0.04818 0.53482 0.0
H68 H 0.7883 0.41914 0.81699 0.0
H69 H 0.58724 0.61856 0.78928 0.0
H70 H 0.67908 0.54231 0.94142 0.0
H71 H 0.45139 0.58758 0.92393 0.0
C72 C 0.45751 0.63105 0.8928 0.0
O73 O 0.56447 0.64318 0.88458 0.0
H74 H 0.41629 0.60781 0.85851 0.0
C75 C 0.74632 0.46773 0.83092 0.0
C76 C 0.74311 0.47608 0.88327 0.0
C77 C 0.69089 0.51879 0.79653 0.0
C78 C 0.63124 0.57881 0.81514 0.0
C79 C 0.62647 0.58732 0.86728 0.0
C80 C 0.68313 0.5363 0.90123 0.0
H81 H 0.70199 0.68514 0.13856 0.0
H82 H 0.51776 0.48079 0.11421 0.0
H83 H 0.59614 0.62768 -0.01189 0.0
H84 H 0.35431 0.52901 -0.01884 0.0
C85 C 0.38895 0.49261 0.01281 0.0
O86 O 0.49956 0.49911 0.01617 0.0
H87 H 0.35294 0.51143 0.04787 0.0
C88 C 0.66377 0.64536 0.11305 0.0
C89 C 0.66206 0.66093 0.06064 0.0
C90 C 0.60904 0.58156 0.13256 0.0
C91 C 0.55874 0.53077 0.09938 0.0
C92 C 0.55303 0.54719 0.04733 0.0
C93 C 0.60336 0.61307 0.02811 0.0
C94 C 0.34265 0.28011 0.03844 0.0
C95 C 0.32291 0.25275 -0.01025 0.0
C96 C 0.36005 0.35804 0.04561 0.0
C97 C 0.35915 0.41084 0.00422 0.0
H98 H 0.34654 0.24069 0.07113 0.0
H99 H 0.37733 0.37688 0.08359 0.0
S100 S 0.31014 0.36718 0.86915 0.0
N101 N 0.3006 0.2834 0.8998 0.0
N102 N 0.33638 0.43033 0.91279 0.0
C103 C 0.33786 0.38411 0.9553 0.0
C104 C 0.31859 0.30479 0.94818 0.0
C105 C 0.34 0.83284 0.87519 0.0
C106 C 0.29374 0.84442 0.92153 0.0
C107 C 0.3922 0.76385 0.86642 0.0
C108 C 0.40284 0.70516 0.90425 0.0
H109 H 0.33689 0.87786 0.84578 0.0
H110 H 0.42575 0.75661 0.83003 0.0
S111 S 0.30278 0.71111 0.03379 0.0
N112 N 0.26299 0.79316 0.00588 0.0
N113 N 0.36768 0.66625 -0.00898 0.0
C114 C 0.35838 0.71715 0.9511 0.0
C115 C 0.30182 0.78607 -0.04071 0.0
C116 C 0.86221 0.8016 0.00551 0.0
C117 C 0.79778 0.86675 -0.00621 0.0
C118 C 0.8187 0.73496 0.02816 0.0
C119 C 0.71021 0.73219 0.04014 0.0
H120 H 0.94497 0.80101 -0.00476 0.0
H121 H 0.86931 0.68484 0.03528 0.0
S122 S 0.51233 0.89024 0.0232 0.0
N123 N 0.62256 0.92591 7e-05 0.0
N124 N 0.54271 0.80153 0.04272 0.0
C125 C 0.647 0.79792 0.03083 0.0
C126 C 0.69041 0.86505 0.00769 0.0
C127 C 0.94048 0.32382 0.93383 0.0
C128 C 0.87445 0.27487 -0.03822 0.0
C129 C 0.9004 0.39334 0.91197 0.0
C130 C 0.79389 0.41633 0.91811 0.0
H131 H 1.01906 0.30466 0.92408 0.0
H132 H 0.95019 0.42637 0.88696 0.0
S133 S 0.59836 0.31478 -0.00345 0.0
N134 N 0.70525 0.25903 0.00115 0.0
N135 N 0.62929 0.3896 -0.03977 0.0
C136 C 0.73211 0.37205 0.95097 0.0
C137 C 0.77281 0.3013 -0.0271 0.0
C138 C 0.848 0.76469 0.46031 0.0
C139 C 0.89071 0.69979 0.48732 0.0
C140 C 0.88304 0.8386 0.47198 0.0
C141 C 0.96076 0.84991 0.5114 0.0
H142 H 0.78768 0.75829 0.42997 0.0
H143 H 0.8484 0.88715 0.45028 0.0
S144 S 0.08766 0.69914 0.59731 0.0
N145 N 1.00965 0.65199 0.55735 0.0
N146 N 0.0721 0.79042 0.58001 0.0
C147 C 1.00092 0.78553 0.53972 0.0
C148 C 0.96713 0.7106 0.52733 0.0
C149 C 0.81677 0.27425 0.37778 0.0
C150 C 0.77266 0.29063 0.42391 0.0
C151 C 0.84844 0.19969 0.3676 0.0
C152 C 0.83918 0.139 0.40355 0.0
H153 H 0.82921 0.31979 0.34974 0.0
H154 H 0.88482 0.18991 0.33218 0.0
S155 S 0.7244 0.15094 0.52929 0.0
N156 N 0.71593 0.23935 0.50481 0.0
N157 N 0.77902 0.09948 0.48636 0.0
C158 C 0.79222 0.15403 0.44923 0.0
C159 C 0.75786 0.22981 0.4592 0.0
C160 C 0.4071 0.28572 0.52294 0.0
C161 C 0.34173 0.32112 0.48377 0.0
C162 C 0.37615 0.21687 0.54718 0.0
C163 C 0.27965 0.18069 0.53259 0.0
H164 H 0.48071 0.31262 0.53618 0.0
H165 H 0.42716 0.19233 0.578 0.0
S166 S 0.0829 0.24765 0.43076 0.0
N167 N 0.17863 0.31222 0.42999 0.0
N168 N 0.12014 0.1844 0.47616 0.0
C169 C 0.21553 0.21417 0.49251 0.0
C170 C 0.24674 0.28391 0.46793 0.0
C171 C 0.27266 0.75645 0.4723 0.0
C172 C 0.3806 0.73985 0.46373 0.0
C173 C 0.21926 0.81888 0.44764 0.0
C174 C 0.27168 0.86858 0.41421 0.0
H175 H 0.2261 0.71751 0.49514 0.0
H176 H 0.13425 0.82503 0.45207 0.0
S177 S 0.56027 0.86198 0.38791 0.0
N178 N 0.54254 0.78583 0.42549 0.0
N179 N 0.44232 0.90507 0.38049 0.0
C180 C 0.38232 0.85768 0.40937 0.0
C181 C 0.43689 0.79328 0.43413 0.0
C182 C 0.1471 0.05933 0.16326 0.0
C183 C 0.15921 -0.00626 0.1354 0.0
C184 C 0.14654 0.05405 0.21595 0.0
C185 C 0.15528 -0.01732 0.2426 0.0
H186 H 0.14063 0.11537 0.14423 0.0
H187 H 0.14001 0.10658 0.23592 0.0
S188 S 0.18258 0.79335 0.1853 0.0
N189 N 0.17987 0.85574 0.13673 0.0
N190 N 0.17137 0.84425 0.23596 0.0
C191 C 0.16589 0.9163 0.21463 0.0
C192 C 0.16948 0.92222 0.16093 0.0
C193 C 1.00139 0.06056 0.74808 0.0
C194 C 0.07357 0.06274 0.79053 0.0
C195 C 1.03775 0.05961 0.69933 0.0
C196 C 0.14762 0.06107 0.69095 0.0
H197 H 0.91573 0.05817 0.75235 0.0
H198 H 0.9793 0.05654 0.66781 0.0
S199 S 0.3703 0.07125 0.78796 0.0
N200 N 0.26102 0.06982 0.82048 0.0
N201 N 0.32878 0.06808 0.72789 0.0
C202 C 0.22105 0.06609 0.7324 0.0
C203 C 0.18414 0.06681 0.78247 0.0
C204 C 0.59436 0.49866 0.65929 0.0
C205 C 0.68975 0.48537 0.63497 0.0
C206 C 0.59533 0.50912 0.71149 0.0
C207 C 0.69181 0.50719 0.74134 0.0
H208 H 0.51828 0.50185 0.63777 0.0
H209 H 0.51986 0.51872 0.72861 0.0
S210 S 0.96423 0.47764 0.69603 0.0
N211 N 0.88385 0.47196 0.64495 0.0
N212 N 0.88543 0.49308 0.74267 0.0
C213 C 0.7877 0.49364 0.71762 0.0
C214 C 0.78674 0.48233 0.66458 0.0
C215 C 0.65451 0.551 0.27484 0.0
C216 C 0.54928 0.55345 0.29162 0.0
C217 C 0.67448 0.56136 0.22332 0.0
C218 C 0.58977 0.5735 0.18698 0.0
H219 H 0.72204 0.54112 0.30162 0.0
H220 H 0.75622 0.55871 0.21174 0.0
S221 S 0.30087 0.58828 0.21028 0.0
N222 N 0.3598 0.57153 0.26681 0.0
N223 N 0.3983 0.59055 0.1706 0.0
C224 C 0.48483 0.57709 0.20306 0.0
C225 C 0.4643 0.56712 0.25521 0.0
loop_
_geom_bond_atom_site_label_1
_geom_bond_atom_site_label_2
_geom_bond_distance
_geom_bond_site_symmetry_2
_ccdc_geom_bond_type
O0 Mg1 1.990 . S
O0 C14 1.253 . S
Mg1 O0 1.990 . S
Mg1 O4 2.180 . S
Mg1 O5 2.117 . S
Mg1 O19 2.030 1_545 S
O2 Mg3 2.072 1_554 S
O2 C14 1.260 . S
Mg3 O2 2.072 1_556 S
Mg3 O4 2.099 1_556 S
Mg3 O6 2.079 . S
Mg3 O7 2.072 1_456 S
Mg3 O9 2.099 1_445 S
Mg3 O20 2.079 1_545 S
O4 Mg1 2.180 . S
O4 Mg3 2.099 1_554 S
O4 C15 1.279 . S
O5 Mg1 2.117 . S
O5 C15 1.250 . S
O6 Mg3 2.079 . S
O6 C16 1.264 . S
O7 Mg3 2.072 1_654 S
O7 C17 1.260 1_554 S
Mg8 O9 2.180 1_545 S
Mg8 O10 2.030 . S
Mg8 O11 1.990 . S
Mg8 O12 2.117 1_545 S
O9 Mg3 2.099 1_665 S
O9 Mg8 2.180 1_565 S
O9 C18 1.279 1_556 S
O10 Mg8 2.030 . S
O10 C16 1.248 1_655 S
O11 Mg8 1.990 . S
O11 C17 1.253 . S
O12 Mg8 2.117 1_565 S
O12 C18 1.250 1_556 S
C13 O19 1.248 . S
C13 O20 1.264 1_554 S
C14 O0 1.253 . S
C14 O2 1.260 . S
C15 O4 1.279 . S
C15 O5 1.250 . S
C16 O6 1.264 . S
C16 O10 1.248 1_455 S
C17 O7 1.260 1_556 S
C17 O11 1.253 . S
C18 O9 1.279 1_554 S
C18 O12 1.250 1_554 S
O19 Mg1 2.030 1_565 S
O19 C13 1.248 . S
O20 Mg3 2.079 1_565 S
O20 C13 1.264 1_556 S
O21 Mg22 1.990 . S
O21 C35 1.253 . S
Mg22 O21 1.990 . S
Mg22 O25 2.180 . S
Mg22 O26 2.117 . S
Mg22 O40 2.030 . S
O23 Mg24 2.072 . S
O23 C35 1.260 . S
Mg24 O23 2.072 . S
Mg24 O25 2.099 . S
Mg24 O27 2.079 . S
Mg24 O28 2.072 . S
Mg24 O30 2.099 . S
Mg24 O41 2.079 . S
O25 Mg22 2.180 . S
O25 Mg24 2.099 . S
O25 C36 1.279 . S
O26 Mg22 2.117 . S
O26 C36 1.250 . S
O27 Mg24 2.079 . S
O27 C37 1.264 . S
O28 Mg24 2.072 . S
O28 C38 1.260 . S
Mg29 O30 2.180 . S
Mg29 O31 2.030 . S
Mg29 O32 1.990 . S
Mg29 O33 2.117 . S
O30 Mg24 2.099 . S
O30 Mg29 2.180 . S
O30 C39 1.279 . S
O31 Mg29 2.030 . S
O31 C37 1.248 . S
O32 Mg29 1.990 . S
O32 C38 1.253 . S
O33 Mg29 2.117 . S
O33 C39 1.250 . S
C34 O40 1.248 . S
C34 O41 1.264 . S
C35 O21 1.253 . S
C35 O23 1.260 . S
C36 O25 1.279 . S
C36 O26 1.250 . S
C37 O27 1.264 . S
C37 O31 1.248 . S
C38 O28 1.260 . S
C38 O32 1.253 . S
C39 O30 1.279 . S
C39 O33 1.250 . S
O40 Mg22 2.030 . S
O40 C34 1.248 . S
O41 Mg24 2.079 . S
O41 C34 1.264 . S
H42 C49 0.929 . S
H43 C52 0.930 1_655 S
H44 C54 0.929 . S
H45 C46 0.969 . S
C46 H45 0.969 . S
C46 O47 1.558 . S
C46 H48 0.973 . S
O47 C46 1.558 . S
O47 C53 1.410 1_655 S
H48 C46 0.973 . S
C49 H42 0.929 . S
C49 C50 1.400 . S
C49 C51 1.364 . S
C50 C49 1.400 . S
C50 C54 1.377 . S
C51 C49 1.364 . S
C51 C52 1.374 1_565 S
C52 H43 0.930 1_455 S
C52 C51 1.374 1_545 S
C52 C53 1.383 . S
C53 O47 1.410 1_455 S
C53 C52 1.383 . S
C53 C54 1.394 1_545 S
C54 H44 0.929 . S
C54 C50 1.377 . S
C54 C53 1.394 1_565 S
H55 C62 0.929 . S
H56 C65 0.930 . S
H57 C67 0.929 . S
H58 C59 0.969 1_545 S
C59 H58 0.969 1_565 S
C59 O60 1.550 1_565 S
C59 H61 0.973 . S
O60 C59 1.550 1_545 S
O60 C66 1.412 . S
H61 C59 0.973 . S
C62 H55 0.929 . S
C62 C63 1.400 . S
C62 C64 1.364 . S
C63 C62 1.400 . S
C63 C67 1.377 . S
C64 C62 1.364 . S
C64 C65 1.374 1_455 S
C65 H56 0.930 . S
C65 C64 1.374 1_655 S
C65 C66 1.383 . S
C66 O60 1.412 . S
C66 C65 1.383 . S
C66 C67 1.394 1_655 S
C67 H57 0.929 . S
C67 C63 1.377 . S
C67 C66 1.394 1_455 S
H68 C75 0.929 . S
H69 C78 0.930 . S
H70 C80 0.929 1_554 S
H71 C72 0.969 . S
C72 H71 0.969 . S
C72 O73 1.554 . S
C72 H74 0.973 . S
O73 C72 1.554 . S
O73 C79 1.420 . S
H74 C72 0.973 . S
C75 H68 0.929 . S
C75 C76 1.400 . S
C75 C77 1.364 . S
C76 C75 1.400 . S
C76 C80 1.377 . S
C77 C75 1.364 . S
C77 C78 1.374 . S
C78 H69 0.930 . S
C78 C77 1.374 . S
C78 C79 1.383 . S
C79 O73 1.420 . S
C79 C78 1.383 . S
C79 C80 1.394 . S
C80 H70 0.929 1_556 S
C80 C76 1.377 . S
C80 C79 1.394 . S
H81 C88 0.929 . S
H82 C91 0.930 . S
H83 C93 0.929 1_556 S
H84 C85 0.969 . S
C85 H84 0.969 . S
C85 O86 1.550 . S
C85 H87 0.973 . S
O86 C85 1.550 . S
O86 C92 1.412 . S
H87 C85 0.973 . S
C88 H81 0.929 . S
C88 C89 1.400 . S
C88 C90 1.364 . S
C89 C88 1.400 . S
C89 C93 1.377 . S
C90 C88 1.364 . S
C90 C91 1.374 . S
C91 H82 0.930 . S
C91 C90 1.374 . S
C91 C92 1.383 . S
C92 O86 1.412 . S
C92 C91 1.383 . S
C92 C93 1.394 . S
C93 H83 0.929 1_554 S
C93 C89 1.377 . S
C93 C92 1.394 . S
C94 C95 1.369 . S
C94 C96 1.419 . S
C94 H98 0.930 . S
C95 C94 1.369 . S
C95 C104 1.429 1_554 S
C96 C94 1.419 . S
C96 C97 1.363 . S
C96 H99 0.929 . S
C97 C96 1.363 . S
C97 C103 1.428 1_554 S
H98 C94 0.930 . S
H99 C96 0.929 . S
S100 N101 1.613 . S
S100 N102 1.610 . S
N101 S100 1.613 . S
N101 C104 1.350 . S
N102 S100 1.610 . S
N102 C103 1.351 . S
C103 C97 1.428 1_556 S
C103 N102 1.351 . S
C103 C104 1.434 . S
C104 C95 1.429 1_556 S
C104 N101 1.350 . S
C104 C103 1.434 . S
C105 C106 1.369 1_556 S
C105 C107 1.419 . S
C105 H109 0.930 . S
C106 C105 1.369 1_554 S
C106 C115 1.429 . S
C107 C105 1.419 . S
C107 C108 1.363 1_556 S
C107 H110 0.929 . S
C108 C107 1.363 1_554 S
C108 C114 1.428 . S
H109 C105 0.930 . S
H110 C107 0.929 . S
S111 N112 1.613 . S
S111 N113 1.610 . S
N112 S111 1.613 . S
N112 C115 1.350 . S
N113 S111 1.610 . S
N113 C114 1.351 . S
C114 C108 1.428 . S
C114 N113 1.351 . S
C114 C115 1.434 . S
C115 C106 1.429 . S
C115 N112 1.350 . S
C115 C114 1.434 . S
C116 C117 1.369 . S
C116 C118 1.419 . S
C116 H120 0.930 1_554 S
C117 C116 1.369 . S
C117 C126 1.429 . S
C118 C116 1.419 . S
C118 C119 1.363 . S
C118 H121 0.929 . S
C119 C118 1.363 . S
C119 C125 1.428 . S
H120 C116 0.930 1_556 S
H121 C118 0.929 . S
S122 N123 1.613 . S
S122 N124 1.610 . S
N123 S122 1.613 . S
N123 C126 1.350 . S
N124 S122 1.610 . S
N124 C125 1.351 . S
C125 C119 1.428 . S
C125 N124 1.351 . S
C125 C126 1.434 . S
C126 C117 1.429 . S
C126 N123 1.350 . S
C126 C125 1.434 . S
C127 C128 1.369 . S
C127 C129 1.419 . S
C127 H131 0.930 1_556 S
C128 C127 1.369 . S
C128 C137 1.429 . S
C129 C127 1.419 . S
C129 C130 1.363 . S
C129 H132 0.929 . S
C130 C129 1.363 . S
C130 C136 1.428 . S
H131 C127 0.930 1_554 S
H132 C129 0.929 . S
S133 N134 1.613 . S
S133 N135 1.610 . S
N134 S133 1.613 . S
N134 C137 1.350 . S
N135 S133 1.610 . S
N135 C136 1.351 . S
C136 C130 1.428 . S
C136 N135 1.351 . S
C136 C137 1.434 . S
C137 C128 1.429 . S
C137 N134 1.350 . S
C137 C136 1.434 . S
C138 C139 1.369 . S
C138 C140 1.419 . S
C138 H142 0.930 . S
C139 C138 1.369 . S
C139 C148 1.429 . S
C140 C138 1.419 . S
C140 C141 1.363 . S
C140 H143 0.929 . S
C141 C140 1.363 . S
C141 C147 1.428 . S
H142 C138 0.930 . S
H143 C140 0.929 . S
S144 N145 1.613 1_455 S
S144 N146 1.610 1_455 S
N145 S144 1.613 1_655 S
N145 C148 1.350 . S
N146 S144 1.610 1_655 S
N146 C147 1.351 . S
C147 C141 1.428 . S
C147 N146 1.351 . S
C147 C148 1.434 . S
C148 C139 1.429 . S
C148 N145 1.350 . S
C148 C147 1.434 . S
C149 C150 1.369 . S
C149 C151 1.419 . S
C149 H153 0.930 . S
C150 C149 1.369 . S
C150 C159 1.429 . S
C151 C149 1.419 . S
C151 C152 1.363 . S
C151 H154 0.929 . S
C152 C151 1.363 . S
C152 C158 1.428 . S
H153 C149 0.930 . S
H154 C151 0.929 . S
S155 N156 1.613 . S
S155 N157 1.610 . S
N156 S155 1.613 . S
N156 C159 1.350 . S
N157 S155 1.610 . S
N157 C158 1.351 . S
C158 C152 1.428 . S
C158 N157 1.351 . S
C158 C159 1.434 . S
C159 C150 1.429 . S
C159 N156 1.350 . S
C159 C158 1.434 . S
C160 C161 1.369 . S
C160 C162 1.419 . S
C160 H164 0.930 . S
C161 C160 1.369 . S
C161 C170 1.429 . S
C162 C160 1.419 . S
C162 C163 1.363 . S
C162 H165 0.929 . S
C163 C162 1.363 . S
C163 C169 1.428 . S
H164 C160 0.930 . S
H165 C162 0.929 . S
S166 N167 1.613 . S
S166 N168 1.610 . S
N167 S166 1.613 . S
N167 C170 1.350 . S
N168 S166 1.610 . S
N168 C169 1.351 . S
C169 C163 1.428 . S
C169 N168 1.351 . S
C169 C170 1.434 . S
C170 C161 1.429 . S
C170 N167 1.350 . S
C170 C169 1.434 . S
C171 C172 1.369 . S
C171 C173 1.419 . S
C171 H175 0.930 . S
C172 C171 1.369 . S
C172 C181 1.429 . S
C173 C171 1.419 . S
C173 C174 1.363 . S
C173 H176 0.929 . S
C174 C173 1.363 . S
C174 C180 1.428 . S
H175 C171 0.930 . S
H176 C173 0.929 . S
S177 N178 1.613 . S
S177 N179 1.610 . S
N178 S177 1.613 . S
N178 C181 1.350 . S
N179 S177 1.610 . S
N179 C180 1.351 . S
C180 C174 1.428 . S
C180 N179 1.351 . S
C180 C181 1.434 . S
C181 C172 1.429 . S
C181 N178 1.350 . S
C181 C180 1.434 . S
C182 C183 1.369 . S
C182 C184 1.419 . S
C182 H186 0.930 . S
C183 C182 1.369 . S
C183 C192 1.429 1_545 S
C184 C182 1.419 . S
C184 C185 1.363 1_545 S
C184 H187 0.929 . S
C185 C184 1.363 1_565 S
C185 C191 1.428 . S
H186 C182 0.930 . S
H187 C184 0.929 . S
S188 N189 1.613 . S
S188 N190 1.610 . S
N189 S188 1.613 . S
N189 C192 1.350 . S
N190 S188 1.610 . S
N190 C191 1.351 . S
C191 C185 1.428 . S
C191 N190 1.351 . S
C191 C192 1.434 . S
C192 C183 1.429 1_565 S
C192 N189 1.350 . S
C192 C191 1.434 . S
C193 C194 1.369 1_655 S
C193 C195 1.419 . S
C193 H197 0.930 . S
C194 C193 1.369 1_455 S
C194 C203 1.429 . S
C195 C193 1.419 . S
C195 C196 1.363 1_655 S
C195 H198 0.929 . S
C196 C195 1.363 1_455 S
C196 C202 1.428 . S
H197 C193 0.930 . S
H198 C195 0.929 . S
S199 N200 1.613 . S
S199 N201 1.610 . S
N200 S199 1.613 . S
N200 C203 1.350 . S
N201 S199 1.610 . S
N201 C202 1.351 . S
C202 C196 1.428 . S
C202 N201 1.351 . S
C202 C203 1.434 . S
C203 C194 1.429 . S
C203 N200 1.350 . S
C203 C202 1.434 . S
C204 C205 1.369 . S
C204 C206 1.419 . S
C204 H208 0.930 . S
C205 C204 1.369 . S
C205 C214 1.429 . S
C206 C204 1.419 . S
C206 C207 1.363 . S
C206 H209 0.929 . S
C207 C206 1.363 . S
C207 C213 1.428 . S
H208 C204 0.930 . S
H209 C206 0.929 . S
S210 N211 1.613 . S
S210 N212 1.610 . S
N211 S210 1.613 . S
N211 C214 1.350 . S
N212 S210 1.610 . S
N212 C213 1.351 . S
C213 C207 1.428 . S
C213 N212 1.351 . S
C213 C214 1.434 . S
C214 C205 1.429 . S
C214 N211 1.350 . S
C214 C213 1.434 . S
C215 C216 1.369 . S
C215 C217 1.419 . S
C215 H219 0.930 . S
C216 C215 1.369 . S
C216 C225 1.429 . S
C217 C215 1.419 . S
C217 C218 1.363 . S
C217 H220 0.929 . S
C218 C217 1.363 . S
C218 C224 1.428 . S
H219 C215 0.930 . S
H220 C217 0.929 . S
S221 N222 1.613 . S
S221 N223 1.610 . S
N222 S221 1.613 . S
N222 C225 1.350 . S
N223 S221 1.610 . S
N223 C224 1.351 . S
C224 C218 1.428 . S
C224 N223 1.351 . S
C224 C225 1.434 . S
C225 C216 1.429 . S
C225 N222 1.350 . S
C225 C224 1.434 . S
C97 C85 1.365 . S
C95 C15 1.337 . S
C106 C13 1.505 . S
C108 C72 1.392 1_554 S
C117 C18 1.301 . S
C119 C89 1.533 . S
C128 C17 1.416 . S
C130 C76 1.489 . S
C139 C36 1.333 . S
C141 C59 1.361 . S
C150 C34 1.509 . S
C152 C46 1.386 . S
C163 C63 1.534 . S
C161 C39 1.300 . S
C174 C50 1.491 . S
C172 C38 1.426 . S
C183 C14 1.548 . S
C185 C51 1.609 . S
C194 C16 1.430 . S
C196 C64 1.481 . S
C207 C77 1.609 . S
C205 C35 1.545 . S
C216 C37 1.422 . S
C218 C90 1.481 . S
