# Generated by pormake.
# Topology the, (3,8)-cn, num edge types: 1
# Building blocks:
#     Node 0, Type 0, BuildingBlock: BETDIP_clean_linker_0, # of connection points: 3
#     Node 1, Type 0, BuildingBlock: BETDIP_clean_linker_0, # of connection points: 3
#     Node 2, Type 0, BuildingBlock: BETDIP_clean_linker_0, # of connection points: 3
#     Node 3, Type 0, BuildingBlock: BETDIP_clean_linker_0, # of connection points: 3
#     Node 4, Type 0, BuildingBlock: BETDIP_clean_linker_0, # of connection points: 3
#     Node 5, Type 0, BuildingBlock: BETDIP_clean_linker_0, # of connection points: 3
#     Node 6, Type 0, BuildingBlock: BETDIP_clean_linker_0, # of connection points: 3
#     Node 7, Type 0, BuildingBlock: BETDIP_clean_linker_0, # of connection points: 3
#     Node 8, Type 1, BuildingBlock: GIZVER_clean_sbu_0, # of connection points: 8
#     Node 9, Type 1, BuildingBlock: GIZVER_clean_sbu_0, # of connection points: 8
#     Node 10, Type 1, BuildingBlock: GIZVER_clean_sbu_0, # of connection points: 8
#     Edge 11, Type (0, 1), None
#     Edge 12, Type (0, 1), None
#     Edge 13, Type (0, 1), None
#     Edge 14, Type (0, 1), None
#     Edge 15, Type (0, 1), None
#     Edge 16, Type (0, 1), None
#     Edge 17, Type (0, 1), None
#     Edge 18, Type (0, 1), None
#     Edge 19, Type (0, 1), None
#     Edge 20, Type (0, 1), None
#     Edge 21, Type (0, 1), None
#     Edge 22, Type (0, 1), None
#     Edge 23, Type (0, 1), None
#     Edge 24, Type (0, 1), None
#     Edge 25, Type (0, 1), None
#     Edge 26, Type (0, 1), None
#     Edge 27, Type (0, 1), None
#     Edge 28, Type (0, 1), None
#     Edge 29, Type (0, 1), None
#     Edge 30, Type (0, 1), None
#     Edge 31, Type (0, 1), None
#     Edge 32, Type (0, 1), None
#     Edge 33, Type (0, 1), None
#     Edge 34, Type (0, 1), None
# Relax obj value: 0.112
# Max RMSD: 0.206
# Mean RMSD: 0.119
data_MOF--net-the--node1-GIZVER_clean_sbu_0--node2-BETDIP_clean_linker_0--edge1-none
_symmetry_space_group_name_H-M    P1
_symmetry_Int_Tables_number       1
_symmetry_cell_setting            triclinic
loop_
_symmetry_equiv_pos_as_xyz
'x, y, z'
_cell_length_a     18.619028
_cell_length_b     18.693259
_cell_length_c     17.539104
_cell_angle_alpha  92.15823
_cell_angle_beta   97.885403
_cell_angle_gamma 123.85274
loop_
_atom_site_label
_atom_site_type_symbol
_atom_site_fract_x
_atom_site_fract_y
_atom_site_fract_z
_atom_type_partial_charge
H0 H 0.32994 0.37163 0.53724 0.0
H1 H 0.44561 0.33991 0.35451 0.0
H2 H 0.28608 0.43868 0.31048 0.0
H3 H 0.29932 0.18296 0.44593 0.0
C4 C 0.366 0.21536 0.47936 0.0
C5 C 0.3417 0.37895 0.47831 0.0
C6 C 0.30191 0.40892 0.42753 0.0
C7 C 0.39239 0.353 0.45156 0.0
C8 C 0.40624 0.36009 0.37479 0.0
C9 C 0.36779 0.39076 0.32379 0.0
C10 C 0.31504 0.41427 0.35001 0.0
N11 N 0.41788 0.30714 0.49719 0.0
H12 H 0.80807 0.46137 0.29693 0.0
H13 H 0.56718 0.2109 0.28125 0.0
H14 H 0.78416 0.29663 0.47035 0.0
H15 H 0.73513 0.47635 0.19624 0.0
C16 C 0.66552 0.42454 0.18709 0.0
C17 C 0.77074 0.3991 0.31757 0.0
C18 C 0.80892 0.38494 0.38544 0.0
C19 C 0.6835 0.33591 0.2801 0.0
C20 C 0.63522 0.25757 0.3096 0.0
C21 C 0.66924 0.24231 0.3787 0.0
C22 C 0.75779 0.30561 0.41548 0.0
N23 N 0.63563 0.35241 0.22143 0.0
H24 H 0.82118 0.739 0.21746 0.0
H25 H 0.8574 0.89523 0.42431 0.0
H26 H 0.62687 0.78672 0.24498 0.0
H27 H 0.98113 0.87623 0.46284 0.0
C28 C 0.95771 0.81784 0.42395 0.0
C29 C 0.80258 0.77631 0.24777 0.0
C30 C 0.72007 0.7595 0.22196 0.0
C31 C 0.85113 0.82193 0.32145 0.0
C32 C 0.82308 0.8639 0.36548 0.0
C33 C 0.74348 0.85521 0.33578 0.0
C34 C 0.69224 0.80163 0.26445 0.0
N35 N 0.90621 0.79665 0.3541 0.0
H36 H 0.17915 0.58657 0.29212 0.0
H37 H 0.43153 0.80825 0.27376 0.0
H38 H 0.3158 0.8092 0.4671 0.0
H39 H 0.41724 0.66955 0.33422 0.0
C40 C 0.38381 0.63307 0.27617 0.0
C41 C 0.22921 0.6557 0.30872 0.0
C42 C 0.23501 0.696 0.38048 0.0
C43 C 0.30197 0.69431 0.27237 0.0
C44 C 0.37293 0.78087 0.29911 0.0
C45 C 0.37839 0.8225 0.36962 0.0
C46 C 0.30734 0.78153 0.40839 0.0
N47 N 0.32049 0.63877 0.23628 0.0
H48 H 0.33797 0.62452 0.7735 0.0
H49 H 0.57883 0.87211 0.78072 0.0
H50 H 0.35566 0.78538 0.598 0.0
H51 H 0.41265 0.61605 0.87962 0.0
C52 C 0.48236 0.66218 0.88014 0.0
C53 C 0.3742 0.6863 0.75176 0.0
C54 C 0.33405 0.69952 0.68474 0.0
C55 C 0.46254 0.74878 0.78591 0.0
C56 C 0.50986 0.82609 0.7547 0.0
C57 C 0.47346 0.84052 0.68644 0.0
C58 C 0.38392 0.77751 0.65251 0.0
N59 N 0.51207 0.73103 0.84113 0.0
H60 H 0.34543 0.35835 0.85836 0.0
H61 H 0.29805 0.19619 0.65088 0.0
H62 H 0.52835 0.29513 0.82764 0.0
H63 H 0.17518 0.21382 0.61654 0.0
C64 C 0.20027 0.27423 0.65301 0.0
C65 C 0.36056 0.31819 0.8277 0.0
C66 C 0.44043 0.32887 0.85382 0.0
C67 C 0.31003 0.27295 0.75401 0.0
C68 C 0.3338 0.22714 0.70948 0.0
C69 C 0.41138 0.23166 0.73762 0.0
C70 C 0.46433 0.28376 0.80929 0.0
N71 N 0.25598 0.29961 0.72137 0.0
H72 H 0.70434 0.2452 0.78996 0.0
H73 H 0.9465 0.48729 0.78425 0.0
H74 H 0.83189 0.27991 0.59703 0.0
H75 H 0.90829 0.53155 0.89118 0.0
C76 C 0.83709 0.48746 0.87511 0.0
C77 C 0.76397 0.28142 0.76598 0.0
C78 C 0.76342 0.25113 0.69218 0.0
C79 C 0.82819 0.36726 0.79866 0.0
C80 C 0.90136 0.41829 0.76361 0.0
C81 C 0.90391 0.38612 0.69099 0.0
C82 C 0.83605 0.30098 0.65689 0.0
N83 N 0.79664 0.40507 0.8426 0.0
H84 H 0.71695 0.75424 0.73327 0.0
H85 H 0.82023 0.72072 0.54056 0.0
H86 H 0.87021 0.64794 0.76262 0.0
H87 H 0.84478 0.90589 0.63958 0.0
C88 C 0.78007 0.87057 0.60177 0.0
C89 C 0.7546 0.7338 0.70957 0.0
C90 C 0.79369 0.70112 0.75681 0.0
C91 C 0.76348 0.74027 0.63151 0.0
C92 C 0.81162 0.71354 0.60031 0.0
C93 C 0.85222 0.68199 0.64792 0.0
C94 C 0.84199 0.6751 0.72594 0.0
N95 N 0.73262 0.78356 0.58826 0.0
Co96 Co 0.17258 0.43392 0.59916 0.0
Co97 Co 0.1939 0.4984 0.48258 0.0
Co98 Co 0.0713 0.54071 0.5363 0.0
O99 O 0.09669 0.44934 0.52392 0.0
H100 H 1.04852 0.3958 0.49243 0.0
O101 O 1.04795 0.63285 0.54843 0.0
Co102 Co 0.97612 0.65187 0.47377 0.0
Co103 Co 0.95291 0.58893 0.58953 0.0
H104 H 0.09693 0.68629 0.57943 0.0
O105 O 0.18925 0.43396 0.40177 0.0
O106 O 0.25937 0.46234 0.52791 0.0
O107 O 0.25064 0.61874 0.47201 0.0
O108 O 0.11813 0.59217 0.44086 0.0
O109 O 0.95109 0.45114 0.46997 0.0
O110 O 0.91939 0.67748 0.40658 0.0
O111 O 1.03193 0.76938 0.50451 0.0
O112 O 0.90591 0.53404 0.43239 0.0
O113 O 1.02371 0.48892 0.63183 0.0
O114 O 0.8942 0.47085 0.6042 0.0
O115 O 0.88978 0.62679 0.5446 0.0
O116 O 0.96458 0.65722 0.66949 0.0
C117 C 0.18216 0.33426 0.62965 0.0
C118 C 0.24858 0.62313 0.64107 0.0
C119 C 0.20021 0.63832 0.43883 0.0
C120 C 0.24615 0.43413 0.45415 0.0
C121 C 0.9723 0.75505 0.44537 0.0
C122 C 0.89444 0.46053 0.43093 0.0
C123 C 0.94259 0.44898 0.63721 0.0
C124 C 0.90608 0.6563 0.61852 0.0
O125 O 0.23318 0.41264 0.66674 0.0
O126 O 0.12094 0.31664 0.57043 0.0
O127 O 0.19079 0.63097 0.60261 0.0
O128 O 0.23907 0.55071 0.63912 0.0
Co129 Co 0.63482 0.9201 0.4422 0.0
Co130 Co 0.68594 0.98025 0.58701 0.0
Co131 Co 0.56978 0.03863 0.5303 0.0
O132 O 0.66052 1.02168 0.5029 0.0
H133 H 0.71317 0.07473 0.49448 0.0
O134 O 0.48014 0.05741 0.55873 0.0
Co135 Co 0.51125 0.16088 0.62297 0.0
Co136 Co 0.45562 0.10261 0.47687 0.0
H137 H 0.42721 1.00482 0.56741 0.0
O138 O 0.79232 0.99927 0.60924 0.0
O139 O 0.66483 0.87926 0.53958 0.0
O140 O 0.61683 0.95043 0.66817 0.0
O141 O 0.50641 0.93045 0.58381 0.0
O142 O 0.65179 0.11013 0.62815 0.0
O143 O 0.53218 0.25098 0.68465 0.0
O144 O 0.40232 0.12176 0.64678 0.0
O145 O 0.63175 0.21585 0.61315 0.0
O146 O 0.63349 0.14697 0.47687 0.0
O147 O 0.52455 0.1339 0.3955 0.0
O148 O 0.4803 0.20398 0.52833 0.0
O149 O 0.35051 0.08786 0.4583 0.0
C150 C 0.70216 0.88477 0.38344 0.0
C151 C 0.46634 0.88851 0.41475 0.0
C152 C 0.53475 0.91377 0.64619 0.0
C153 C 0.7451 0.91742 0.58035 0.0
C154 C 0.4491 0.19942 0.68748 0.0
C155 C 0.67738 0.1886 0.64329 0.0
C156 C 0.60622 0.16761 0.4167 0.0
C157 C 0.39939 0.1686 0.4906 0.0
O158 O 0.61864 0.83119 0.3837 0.0
O159 O 0.74593 0.96252 0.42336 0.0
O160 O 0.4877 0.9656 0.43215 0.0
O161 O 0.5128 0.86295 0.44713 0.0
Co162 Co 0.49197 0.57026 0.1864 0.0
Co163 Co 0.44087 0.41172 0.14017 0.0
Co164 Co 0.57534 0.54707 0.03814 0.0
O165 O 0.47107 0.5076 0.08806 0.0
H166 H 0.42073 0.49683 0.05218 0.0
O167 O 0.68358 0.59143 0.99328 0.0
Co168 Co 0.68853 0.52646 0.9139 0.0
Co169 Co 0.70937 0.67369 0.92818 0.0
H170 H 0.73424 0.61533 0.03465 0.0
O171 O 0.3384 0.34605 0.18593 0.0
O172 O 0.46602 0.47002 0.23905 0.0
O173 O 0.52307 0.37944 0.14288 0.0
O174 O 0.63216 0.5087 0.11863 0.0
O175 O 0.50583 0.42611 0.97582 0.0
O176 O 0.70203 0.46679 0.84727 0.0
O177 O 0.80627 0.576 0.94135 0.0
O178 O 0.56987 0.46764 0.87485 0.0
O179 O 0.51736 0.58382 0.95689 0.0
O180 O 0.62263 0.69817 0.90985 0.0
O181 O 0.70378 0.60992 0.84079 0.0
O182 O 0.81463 0.74702 0.89218 0.0
C183 C 0.42209 0.59867 0.24149 0.0
C184 C 0.6537 0.676 0.17292 0.0
C185 C 0.60455 0.43657 0.14527 0.0
C186 C 0.38921 0.40455 0.24566 0.0
C187 C 0.78149 0.51173 0.88848 0.0
C188 C 0.5109 0.40921 0.90636 0.0
C189 C 0.54344 0.64853 0.91876 0.0
C190 C 0.77416 0.684 0.83477 0.0
O191 O 0.50138 0.62509 0.27381 0.0
O192 O 0.38246 0.54467 0.17689 0.0
O193 O 0.64302 0.6668 0.09936 0.0
O194 O 0.60917 0.61016 0.20618 0.0
loop_
_geom_bond_atom_site_label_1
_geom_bond_atom_site_label_2
_geom_bond_distance
_geom_bond_site_symmetry_2
_ccdc_geom_bond_type
H0 C5 0.930 . S
H1 C8 0.930 . S
H2 C10 0.930 . S
H3 C4 1.016 . S
C4 H3 1.016 . S
C4 N11 1.286 . S
C5 H0 0.930 . S
C5 C6 1.397 . S
C5 C7 1.361 . S
C6 C5 1.397 . S
C6 C10 1.390 . S
C7 C5 1.361 . S
C7 C8 1.393 . S
C7 N11 1.413 . S
C8 H1 0.930 . S
C8 C7 1.393 . S
C8 C9 1.399 . S
C9 C8 1.399 . S
C9 C10 1.381 . S
C10 H2 0.930 . S
C10 C6 1.390 . S
C10 C9 1.381 . S
N11 C4 1.286 . S
N11 C7 1.413 . S
H12 C17 0.930 . S
H13 C20 0.930 . S
H14 C22 0.930 . S
H15 C16 1.016 . S
C16 H15 1.016 . S
C16 N23 1.286 . S
C17 H12 0.930 . S
C17 C18 1.397 . S
C17 C19 1.361 . S
C18 C17 1.397 . S
C18 C22 1.390 . S
C19 C17 1.361 . S
C19 C20 1.393 . S
C19 N23 1.413 . S
C20 H13 0.930 . S
C20 C19 1.393 . S
C20 C21 1.399 . S
C21 C20 1.399 . S
C21 C22 1.381 . S
C22 H14 0.930 . S
C22 C18 1.390 . S
C22 C21 1.381 . S
N23 C16 1.286 . S
N23 C19 1.413 . S
H24 C29 0.930 . S
H25 C32 0.930 . S
H26 C34 0.930 . S
H27 C28 1.016 . S
C28 H27 1.016 . S
C28 N35 1.286 . S
C29 H24 0.930 . S
C29 C30 1.397 . S
C29 C31 1.361 . S
C30 C29 1.397 . S
C30 C34 1.390 . S
C31 C29 1.361 . S
C31 C32 1.393 . S
C31 N35 1.413 . S
C32 H25 0.930 . S
C32 C31 1.393 . S
C32 C33 1.399 . S
C33 C32 1.399 . S
C33 C34 1.381 . S
C34 H26 0.930 . S
C34 C30 1.390 . S
C34 C33 1.381 . S
N35 C28 1.286 . S
N35 C31 1.413 . S
H36 C41 0.930 . S
H37 C44 0.930 . S
H38 C46 0.930 . S
H39 C40 1.016 . S
C40 H39 1.016 . S
C40 N47 1.286 . S
C41 H36 0.930 . S
C41 C42 1.397 . S
C41 C43 1.361 . S
C42 C41 1.397 . S
C42 C46 1.390 . S
C43 C41 1.361 . S
C43 C44 1.393 . S
C43 N47 1.413 . S
C44 H37 0.930 . S
C44 C43 1.393 . S
C44 C45 1.399 . S
C45 C44 1.399 . S
C45 C46 1.381 . S
C46 H38 0.930 . S
C46 C42 1.390 . S
C46 C45 1.381 . S
N47 C40 1.286 . S
N47 C43 1.413 . S
H48 C53 0.930 . S
H49 C56 0.930 . S
H50 C58 0.930 . S
H51 C52 1.016 . S
C52 H51 1.016 . S
C52 N59 1.286 . S
C53 H48 0.930 . S
C53 C54 1.397 . S
C53 C55 1.361 . S
C54 C53 1.397 . S
C54 C58 1.390 . S
C55 C53 1.361 . S
C55 C56 1.393 . S
C55 N59 1.413 . S
C56 H49 0.930 . S
C56 C55 1.393 . S
C56 C57 1.399 . S
C57 C56 1.399 . S
C57 C58 1.381 . S
C58 H50 0.930 . S
C58 C54 1.390 . S
C58 C57 1.381 . S
N59 C52 1.286 . S
N59 C55 1.413 . S
H60 C65 0.930 . S
H61 C68 0.930 . S
H62 C70 0.930 . S
H63 C64 1.016 . S
C64 H63 1.016 . S
C64 N71 1.286 . S
C65 H60 0.930 . S
C65 C66 1.397 . S
C65 C67 1.361 . S
C66 C65 1.397 . S
C66 C70 1.390 . S
C67 C65 1.361 . S
C67 C68 1.393 . S
C67 N71 1.413 . S
C68 H61 0.930 . S
C68 C67 1.393 . S
C68 C69 1.399 . S
C69 C68 1.399 . S
C69 C70 1.381 . S
C70 H62 0.930 . S
C70 C66 1.390 . S
C70 C69 1.381 . S
N71 C64 1.286 . S
N71 C67 1.413 . S
H72 C77 0.930 . S
H73 C80 0.930 . S
H74 C82 0.930 . S
H75 C76 1.016 . S
C76 H75 1.016 . S
C76 N83 1.286 . S
C77 H72 0.930 . S
C77 C78 1.397 . S
C77 C79 1.361 . S
C78 C77 1.397 . S
C78 C82 1.390 . S
C79 C77 1.361 . S
C79 C80 1.393 . S
C79 N83 1.413 . S
C80 H73 0.930 . S
C80 C79 1.393 . S
C80 C81 1.399 . S
C81 C80 1.399 . S
C81 C82 1.381 . S
C82 H74 0.930 . S
C82 C78 1.390 . S
C82 C81 1.381 . S
N83 C76 1.286 . S
N83 C79 1.413 . S
H84 C89 0.930 . S
H85 C92 0.930 . S
H86 C94 0.930 . S
H87 C88 1.016 . S
C88 H87 1.016 . S
C88 N95 1.286 . S
C89 H84 0.930 . S
C89 C90 1.397 . S
C89 C91 1.361 . S
C90 C89 1.397 . S
C90 C94 1.390 . S
C91 C89 1.361 . S
C91 C92 1.393 . S
C91 N95 1.413 . S
C92 H85 0.930 . S
C92 C91 1.393 . S
C92 C93 1.399 . S
C93 C92 1.399 . S
C93 C94 1.381 . S
C94 H86 0.930 . S
C94 C90 1.390 . S
C94 C93 1.381 . S
N95 C88 1.286 . S
N95 C91 1.413 . S
Co96 O99 2.042 . S
Co96 O106 2.264 . S
Co96 O125 2.286 . S
Co96 O126 2.069 . S
Co96 O128 2.015 . S
Co97 O99 2.122 . S
Co97 O105 2.073 . S
Co97 O106 2.327 . S
Co97 O107 1.976 . S
Co98 O99 2.087 . S
Co98 O101 2.087 1_455 S
Co98 O108 2.111 . S
Co98 O109 2.143 1_455 S
Co98 O113 2.111 1_455 S
Co98 O127 2.143 . S
O99 Co96 2.042 . S
O99 Co97 2.122 . S
O99 Co98 2.087 . S
O99 H100 0.980 1_455 S
H100 O99 0.980 1_655 S
O101 Co98 2.087 1_655 S
O101 Co102 2.042 . S
O101 Co103 2.122 . S
O101 H104 0.980 1_655 S
Co102 O101 2.042 . S
Co102 O110 2.286 . S
Co102 O111 2.069 . S
Co102 O112 2.015 . S
Co102 O115 2.264 . S
Co103 O101 2.122 . S
Co103 O114 1.976 . S
Co103 O115 2.327 . S
Co103 O116 2.073 . S
H104 O101 0.980 1_455 S
O105 Co97 2.073 . S
O105 C120 1.245 . S
O106 Co96 2.264 . S
O106 Co97 2.327 . S
O106 C120 1.257 . S
O107 Co97 1.976 . S
O107 C119 1.251 . S
O108 Co98 2.111 . S
O108 C119 1.274 . S
O109 Co98 2.143 1_655 S
O109 C122 1.246 . S
O110 Co102 2.286 . S
O110 C121 1.259 . S
O111 Co102 2.069 . S
O111 C121 1.289 . S
O112 Co102 2.015 . S
O112 C122 1.257 . S
O113 Co98 2.111 1_655 S
O113 C123 1.274 . S
O114 Co103 1.976 . S
O114 C123 1.251 . S
O115 Co102 2.264 . S
O115 Co103 2.327 . S
O115 C124 1.257 . S
O116 Co103 2.073 . S
O116 C124 1.245 . S
C117 O125 1.259 . S
C117 O126 1.289 . S
C118 O127 1.246 . S
C118 O128 1.257 . S
C119 O107 1.251 . S
C119 O108 1.274 . S
C120 O105 1.245 . S
C120 O106 1.257 . S
C121 O110 1.259 . S
C121 O111 1.289 . S
C122 O109 1.246 . S
C122 O112 1.257 . S
C123 O113 1.274 . S
C123 O114 1.251 . S
C124 O115 1.257 . S
C124 O116 1.245 . S
O125 Co96 2.286 . S
O125 C117 1.259 . S
O126 Co96 2.069 . S
O126 C117 1.289 . S
O127 Co98 2.143 . S
O127 C118 1.246 . S
O128 Co96 2.015 . S
O128 C118 1.257 . S
Co129 O132 2.042 . S
Co129 O139 2.264 . S
Co129 O158 2.286 . S
Co129 O159 2.069 . S
Co129 O161 2.015 . S
Co130 O132 2.122 . S
Co130 O138 2.073 . S
Co130 O139 2.327 . S
Co130 O140 1.976 . S
Co131 O132 2.087 1_545 S
Co131 O134 2.087 . S
Co131 O141 2.111 1_545 S
Co131 O142 2.143 . S
Co131 O146 2.111 . S
Co131 O160 2.143 1_545 S
O132 Co129 2.042 . S
O132 Co130 2.122 . S
O132 Co131 2.087 1_565 S
O132 H133 0.980 1_565 S
H133 O132 0.980 1_545 S
O134 Co131 2.087 . S
O134 Co135 2.042 . S
O134 Co136 2.122 . S
O134 H137 0.980 . S
Co135 O134 2.042 . S
Co135 O143 2.286 . S
Co135 O144 2.069 . S
Co135 O145 2.015 . S
Co135 O148 2.264 . S
Co136 O134 2.122 . S
Co136 O147 1.976 . S
Co136 O148 2.327 . S
Co136 O149 2.073 . S
H137 O134 0.980 . S
O138 Co130 2.073 . S
O138 C153 1.245 . S
O139 Co129 2.264 . S
O139 Co130 2.327 . S
O139 C153 1.257 . S
O140 Co130 1.976 . S
O140 C152 1.251 . S
O141 Co131 2.111 1_565 S
O141 C152 1.274 . S
O142 Co131 2.143 . S
O142 C155 1.246 . S
O143 Co135 2.286 . S
O143 C154 1.259 . S
O144 Co135 2.069 . S
O144 C154 1.289 . S
O145 Co135 2.015 . S
O145 C155 1.257 . S
O146 Co131 2.111 . S
O146 C156 1.274 . S
O147 Co136 1.976 . S
O147 C156 1.251 . S
O148 Co135 2.264 . S
O148 Co136 2.327 . S
O148 C157 1.257 . S
O149 Co136 2.073 . S
O149 C157 1.245 . S
C150 O158 1.259 . S
C150 O159 1.289 . S
C151 O160 1.246 . S
C151 O161 1.257 . S
C152 O140 1.251 . S
C152 O141 1.274 . S
C153 O138 1.245 . S
C153 O139 1.257 . S
C154 O143 1.259 . S
C154 O144 1.289 . S
C155 O142 1.246 . S
C155 O145 1.257 . S
C156 O146 1.274 . S
C156 O147 1.251 . S
C157 O148 1.257 . S
C157 O149 1.245 . S
O158 Co129 2.286 . S
O158 C150 1.259 . S
O159 Co129 2.069 . S
O159 C150 1.289 . S
O160 Co131 2.143 1_565 S
O160 C151 1.246 . S
O161 Co129 2.015 . S
O161 C151 1.257 . S
Co162 O165 2.042 . S
Co162 O172 2.264 . S
Co162 O191 2.286 . S
Co162 O192 2.069 . S
Co162 O194 2.015 . S
Co163 O165 2.122 . S
Co163 O171 2.073 . S
Co163 O172 2.327 . S
Co163 O173 1.976 . S
Co164 O165 2.087 . S
Co164 O167 2.087 1_554 S
Co164 O174 2.111 . S
Co164 O175 2.143 1_554 S
Co164 O179 2.111 1_554 S
Co164 O193 2.143 . S
O165 Co162 2.042 . S
O165 Co163 2.122 . S
O165 Co164 2.087 . S
O165 H166 0.980 . S
H166 O165 0.980 . S
O167 Co164 2.087 1_556 S
O167 Co168 2.042 . S
O167 Co169 2.122 . S
O167 H170 0.980 . S
Co168 O167 2.042 . S
Co168 O176 2.286 . S
Co168 O177 2.069 . S
Co168 O178 2.015 . S
Co168 O181 2.264 . S
Co169 O167 2.122 . S
Co169 O180 1.976 . S
Co169 O181 2.327 . S
Co169 O182 2.073 . S
H170 O167 0.980 . S
O171 Co163 2.073 . S
O171 C186 1.245 . S
O172 Co162 2.264 . S
O172 Co163 2.327 . S
O172 C186 1.257 . S
O173 Co163 1.976 . S
O173 C185 1.251 . S
O174 Co164 2.111 . S
O174 C185 1.274 . S
O175 Co164 2.143 1_556 S
O175 C188 1.246 . S
O176 Co168 2.286 . S
O176 C187 1.259 . S
O177 Co168 2.069 . S
O177 C187 1.289 . S
O178 Co168 2.015 . S
O178 C188 1.257 . S
O179 Co164 2.111 1_556 S
O179 C189 1.274 . S
O180 Co169 1.976 . S
O180 C189 1.251 . S
O181 Co168 2.264 . S
O181 Co169 2.327 . S
O181 C190 1.257 . S
O182 Co169 2.073 . S
O182 C190 1.245 . S
C183 O191 1.259 . S
C183 O192 1.289 . S
C184 O193 1.246 . S
C184 O194 1.257 . S
C185 O173 1.251 . S
C185 O174 1.274 . S
C186 O171 1.245 . S
C186 O172 1.257 . S
C187 O176 1.259 . S
C187 O177 1.289 . S
C188 O175 1.246 . S
C188 O178 1.257 . S
C189 O179 1.274 . S
C189 O180 1.251 . S
C190 O181 1.257 . S
C190 O182 1.245 . S
O191 Co162 2.286 . S
O191 C183 1.259 . S
O192 Co162 2.069 . S
O192 C183 1.289 . S
O193 Co164 2.143 . S
O193 C184 1.246 . S
O194 Co162 2.015 . S
O194 C184 1.257 . S
C120 C6 1.596 . S
C156 C21 2.038 . S
C121 C28 1.251 . S
C151 C45 1.586 . S
C118 C54 1.713 . S
C69 C154 2.317 . S
C81 C123 0.687 . S
C153 C88 1.787 . S
C157 C4 1.378 . S
C122 C18 1.685 . S
C150 C33 2.114 . S
C119 C42 0.687 . S
C152 C57 2.144 . S
C64 C117 1.279 . S
C78 C155 1.528 . S
C124 C93 1.535 . S
C186 C9 1.854 . S
C52 C189 2.362 . S
C188 C66 2.313 . S
C76 C187 1.468 . S
C190 C90 1.713 . S
C30 C184 2.183 . S
C183 C40 1.545 . S
C16 C185 2.323 . S
