# Generated by pormake.
# Topology sit, (3,6)-cn, num edge types: 1
# Building blocks:
#     Node 0, Type 0, BuildingBlock: BETDAH_clean_linker_0, # of connection points: 3
#     Node 1, Type 0, BuildingBlock: BETDAH_clean_linker_0, # of connection points: 3
#     Node 2, Type 0, BuildingBlock: BETDAH_clean_linker_0, # of connection points: 3
#     Node 3, Type 0, BuildingBlock: BETDAH_clean_linker_0, # of connection points: 3
#     Node 4, Type 1, BuildingBlock: MIDCAF_clean_sbu_0, # of connection points: 6
#     Node 5, Type 1, BuildingBlock: MIDCAF_clean_sbu_0, # of connection points: 6
#     Edge 6, Type (0, 1), None
#     Edge 7, Type (0, 1), None
#     Edge 8, Type (0, 1), None
#     Edge 9, Type (0, 1), None
#     Edge 10, Type (0, 1), None
#     Edge 11, Type (0, 1), None
#     Edge 12, Type (0, 1), None
#     Edge 13, Type (0, 1), None
#     Edge 14, Type (0, 1), None
#     Edge 15, Type (0, 1), None
#     Edge 16, Type (0, 1), None
#     Edge 17, Type (0, 1), None
# Relax obj value: 0.072
# Max RMSD: 0.184
# Mean RMSD: 0.097
data_MOF--net-sit--node1-MIDCAF_clean_sbu_0--node2-BETDAH_clean_linker_0--edge1-none
_symmetry_space_group_name_H-M    P1
_symmetry_Int_Tables_number       1
_symmetry_cell_setting            triclinic
loop_
_symmetry_equiv_pos_as_xyz
'x, y, z'
_cell_length_a     9.4952699
_cell_length_b     13.499018
_cell_length_c     19.358886
_cell_angle_alpha  90.273987
_cell_angle_beta   86.835988
_cell_angle_gamma 80.729922
loop_
_atom_site_label
_atom_site_type_symbol
_atom_site_fract_x
_atom_site_fract_y
_atom_site_fract_z
_atom_type_partial_charge
H0 H 0.06081 0.49203 0.84893 0.0
H1 H 0.29274 0.30105 -0.00531 0.0
H2 H 0.84596 0.29934 -0.02231 0.0
C3 C 0.05945 0.4461 0.89436 0.0
C4 C 0.93403 0.4091 0.91487 0.0
C5 C 0.18864 0.4102 0.92471 0.0
C6 C 0.19191 0.33466 -0.02537 0.0
C7 C 0.06827 0.29548 -0.00589 0.0
C8 C 0.93958 0.33376 -0.03499 0.0
N9 N 0.07897 0.20597 0.03252 0.0
C10 C 0.05083 0.20727 0.10354 0.0
H11 H 0.00233 0.65327 0.849 0.0
H12 H 0.16994 0.83334 -0.00232 0.0
H13 H 0.71826 0.83858 -0.00624 0.0
C14 C -0.01295 0.69656 0.89664 0.0
C15 C 0.8477 0.73209 0.92319 0.0
C16 C 0.10426 0.73066 0.9245 0.0
C17 C 0.08087 0.80187 -0.02107 0.0
C18 C 0.94144 0.84097 0.00368 0.0
C19 C 0.826 0.80541 -0.02394 0.0
N20 N 0.91379 0.92508 0.04927 0.0
C21 C -0.0136 0.93133 0.10896 0.0
H22 H 0.56142 0.99165 0.34906 0.0
H23 H 0.79649 0.80026 0.49337 0.0
H24 H 0.34825 0.80083 0.4802 0.0
C25 C 0.56088 0.9462 0.39475 0.0
C26 C 0.43554 0.90991 0.41637 0.0
C27 C 0.69082 0.90993 0.42421 0.0
C28 C 0.69511 0.83431 0.47408 0.0
C29 C 0.57159 0.79576 0.49467 0.0
C30 C 0.44193 0.83481 0.46673 0.0
N31 N 0.58315 0.70619 0.53302 0.0
C32 C 0.55048 0.70714 0.60369 0.0
H33 H 0.50367 0.15244 0.34982 0.0
H34 H 0.67351 0.33559 0.49558 0.0
H35 H 0.22178 0.34199 0.49302 0.0
C36 C 0.48907 0.19641 0.39714 0.0
C37 C 0.34996 0.23287 0.4237 0.0
C38 C 0.60686 0.23083 0.42418 0.0
C39 C 0.58426 0.30342 0.4777 0.0
C40 C 0.44541 0.34363 0.50227 0.0
C41 C 0.3292 0.30758 0.47571 0.0
N42 N 0.42006 0.43123 0.54449 0.0
C43 C 0.47004 0.43359 0.61031 0.0
Zn44 Zn -0.01926 0.26904 0.31203 0.0
Zn45 Zn 0.08106 0.87723 0.30996 0.0
Zn46 Zn 0.02902 0.07161 0.31811 0.0
C47 C 0.03399 0.9347 0.17776 0.0
C48 C 0.82597 0.92999 0.39062 0.0
O49 O 0.20693 0.12391 0.37032 0.0
O50 O 0.1392 0.28888 0.36914 0.0
C51 C 0.02795 0.20661 0.17736 0.0
O52 O 0.02549 1.01981 0.20945 0.0
O53 O 0.05992 0.85371 0.21013 0.0
O54 O 0.91924 0.85518 0.37343 0.0
O55 O 0.84441 1.01918 0.37295 0.0
O56 O 0.00334 0.28881 0.21037 0.0
O57 O 0.03623 0.12249 0.20933 0.0
O58 O 0.81958 0.12582 0.37515 0.0
O59 O 0.79032 0.29043 0.36013 0.0
C60 C 0.74586 0.21424 0.38506 0.0
O61 O 0.23304 1.0166 0.37009 0.0
O62 O 0.2688 0.85275 0.34871 0.0
C63 C 0.22578 0.21347 0.38661 0.0
C64 C 0.30803 0.92842 0.37543 0.0
Zn65 Zn 0.47765 0.7692 0.81205 0.0
Zn66 Zn 0.57775 0.3772 0.80972 0.0
Zn67 Zn 0.52602 0.57161 0.81814 0.0
C68 C 0.52179 0.43566 0.67839 0.0
C69 C 0.32438 0.43048 0.89183 0.0
O70 O 0.70468 0.62331 0.86978 0.0
O71 O 0.63719 0.78833 0.86861 0.0
C72 C 0.52534 0.70647 0.67738 0.0
O73 O 0.51821 0.52046 0.7098 0.0
O74 O 0.54885 0.35437 0.71035 0.0
O75 O 0.4185 0.3558 0.87535 0.0
O76 O 0.34181 0.51946 0.87319 0.0
O77 O 0.49998 0.78869 0.71036 0.0
O78 O 0.53379 0.62234 0.70934 0.0
O79 O 0.31737 0.62623 0.87558 0.0
O80 O 0.28762 0.79088 0.86072 0.0
C81 C 0.24361 0.71459 0.88572 0.0
O82 O 0.73066 0.51593 0.86951 0.0
O83 O 0.76835 0.35266 0.84599 0.0
C84 C 0.72388 0.71285 0.88587 0.0
C85 C 0.80702 0.42799 0.87353 0.0
loop_
_geom_bond_atom_site_label_1
_geom_bond_atom_site_label_2
_geom_bond_distance
_geom_bond_site_symmetry_2
_ccdc_geom_bond_type
H0 C3 0.929 . S
H1 C6 0.929 . S
H2 C8 0.930 . S
C3 H0 0.929 . S
C3 C4 1.398 . S
C3 C5 1.396 . S
C4 C3 1.398 . S
C4 C8 1.407 1_456 S
C5 C3 1.396 . S
C5 C6 1.394 1_556 S
C6 H1 0.929 . S
C6 C5 1.394 1_554 S
C6 C7 1.382 . S
C7 C6 1.382 . S
C7 C8 1.392 1_455 S
C7 N9 1.420 . S
C8 H2 0.930 . S
C8 C4 1.407 1_654 S
C8 C7 1.392 1_655 S
N9 C7 1.420 . S
N9 C10 1.244 . S
C10 N9 1.244 . S
H11 C14 0.929 . S
H12 C17 0.929 . S
H13 C19 0.930 . S
C14 H11 0.929 . S
C14 C15 1.398 1_455 S
C14 C16 1.396 . S
C15 C14 1.398 1_655 S
C15 C19 1.407 1_556 S
C16 C14 1.396 . S
C16 C17 1.394 1_556 S
C17 H12 0.929 . S
C17 C16 1.394 1_554 S
C17 C18 1.382 1_455 S
C18 C17 1.382 1_655 S
C18 C19 1.392 . S
C18 N20 1.420 . S
C19 H13 0.930 . S
C19 C15 1.407 1_554 S
C19 C18 1.392 . S
N20 C18 1.420 . S
N20 C21 1.244 1_655 S
C21 N20 1.244 1_455 S
H22 C25 0.929 . S
H23 C28 0.929 . S
H24 C30 0.930 . S
C25 H22 0.929 . S
C25 C26 1.398 . S
C25 C27 1.396 . S
C26 C25 1.398 . S
C26 C30 1.407 . S
C27 C25 1.396 . S
C27 C28 1.394 . S
C28 H23 0.929 . S
C28 C27 1.394 . S
C28 C29 1.382 . S
C29 C28 1.382 . S
C29 C30 1.392 . S
C29 N31 1.420 . S
C30 H24 0.930 . S
C30 C26 1.407 . S
C30 C29 1.392 . S
N31 C29 1.420 . S
N31 C32 1.244 . S
C32 N31 1.244 . S
H33 C36 0.929 . S
H34 C39 0.929 . S
H35 C41 0.930 . S
C36 H33 0.929 . S
C36 C37 1.398 . S
C36 C38 1.396 . S
C37 C36 1.398 . S
C37 C41 1.407 . S
C38 C36 1.396 . S
C38 C39 1.394 . S
C39 H34 0.929 . S
C39 C38 1.394 . S
C39 C40 1.382 . S
C40 C39 1.382 . S
C40 C41 1.392 . S
C40 N42 1.420 . S
C41 H35 0.930 . S
C41 C37 1.407 . S
C41 C40 1.392 . S
N42 C40 1.420 . S
N42 C43 1.244 . S
C43 N42 1.244 . S
Zn44 O50 1.920 . S
Zn44 O56 1.898 . S
Zn44 O59 1.905 1_455 S
Zn45 O53 1.905 . S
Zn45 O54 1.898 1_455 S
Zn45 O62 1.920 . S
Zn46 O49 2.080 . S
Zn46 O52 2.114 1_445 S
Zn46 O55 2.120 1_445 S
Zn46 O57 2.120 . S
Zn46 O58 2.114 1_455 S
Zn46 O61 2.080 1_545 S
C47 O52 1.166 1_455 S
C47 O53 1.182 . S
C48 O54 1.167 . S
C48 O55 1.299 . S
O49 Zn46 2.080 . S
O49 C63 1.305 . S
O50 Zn44 1.920 . S
O50 C63 1.234 . S
C51 O56 1.167 . S
C51 O57 1.299 . S
O52 Zn46 2.114 1_665 S
O52 C47 1.166 1_655 S
O53 Zn45 1.905 . S
O53 C47 1.182 . S
O54 Zn45 1.898 1_655 S
O54 C48 1.167 . S
O55 Zn46 2.120 1_665 S
O55 C48 1.299 . S
O56 Zn44 1.898 . S
O56 C51 1.167 . S
O57 Zn46 2.120 . S
O57 C51 1.299 . S
O58 Zn46 2.114 1_655 S
O58 C60 1.166 . S
O59 Zn44 1.905 1_655 S
O59 C60 1.182 . S
C60 O58 1.166 . S
C60 O59 1.182 . S
O61 Zn46 2.080 1_565 S
O61 C64 1.305 . S
O62 Zn45 1.920 . S
O62 C64 1.234 . S
C63 O49 1.305 . S
C63 O50 1.234 . S
C64 O61 1.305 . S
C64 O62 1.234 . S
Zn65 O71 1.920 . S
Zn65 O77 1.898 . S
Zn65 O80 1.905 . S
Zn66 O74 1.905 . S
Zn66 O75 1.898 . S
Zn66 O83 1.920 . S
Zn67 O70 2.080 . S
Zn67 O73 2.114 . S
Zn67 O76 2.120 . S
Zn67 O78 2.120 . S
Zn67 O79 2.114 . S
Zn67 O82 2.080 . S
C68 O73 1.166 . S
C68 O74 1.182 . S
C69 O75 1.167 . S
C69 O76 1.299 . S
O70 Zn67 2.080 . S
O70 C84 1.305 . S
O71 Zn65 1.920 . S
O71 C84 1.234 . S
C72 O77 1.167 . S
C72 O78 1.299 . S
O73 Zn67 2.114 . S
O73 C68 1.166 . S
O74 Zn66 1.905 . S
O74 C68 1.182 . S
O75 Zn66 1.898 . S
O75 C69 1.167 . S
O76 Zn67 2.120 . S
O76 C69 1.299 . S
O77 Zn65 1.898 . S
O77 C72 1.167 . S
O78 Zn67 2.120 . S
O78 C72 1.299 . S
O79 Zn67 2.114 . S
O79 C81 1.166 . S
O80 Zn65 1.905 . S
O80 C81 1.182 . S
C81 O79 1.166 . S
C81 O80 1.182 . S
O82 Zn67 2.080 . S
O82 C85 1.305 . S
O83 Zn66 1.920 . S
O83 C85 1.234 . S
C84 O70 1.305 . S
C84 O71 1.234 . S
C85 O82 1.305 . S
C85 O83 1.234 . S
C51 C10 1.609 . S
C47 C21 1.477 . S
C72 C32 1.609 . S
C43 C68 1.478 . S
C5 C69 1.283 . S
C84 C15 1.307 . S
C4 C85 1.684 1_455 S
C81 C16 1.662 . S
C48 C27 1.283 . S
C37 C63 1.307 . S
C64 C26 1.683 . S
C60 C38 1.663 . S
