# Generated by pormake.
# Topology anh, (6,3)-cn, num edge types: 1
# Building blocks:
#     Node 0, Type 0, BuildingBlock: BETDEL_clean_sbu_0, # of connection points: 6
#     Node 1, Type 0, BuildingBlock: BETDEL_clean_sbu_0, # of connection points: 6
#     Node 2, Type 0, BuildingBlock: BETDEL_clean_sbu_0, # of connection points: 6
#     Node 3, Type 1, BuildingBlock: BETDIP_clean_linker_0, # of connection points: 3
#     Node 4, Type 1, BuildingBlock: BETDIP_clean_linker_0, # of connection points: 3
#     Node 5, Type 1, BuildingBlock: BETDIP_clean_linker_0, # of connection points: 3
#     Node 6, Type 1, BuildingBlock: BETDIP_clean_linker_0, # of connection points: 3
#     Node 7, Type 1, BuildingBlock: BETDIP_clean_linker_0, # of connection points: 3
#     Node 8, Type 1, BuildingBlock: BETDIP_clean_linker_0, # of connection points: 3
#     Edge 9, Type (0, 1), None
#     Edge 10, Type (0, 1), None
#     Edge 11, Type (0, 1), None
#     Edge 12, Type (0, 1), None
#     Edge 13, Type (0, 1), None
#     Edge 14, Type (0, 1), None
#     Edge 15, Type (0, 1), None
#     Edge 16, Type (0, 1), None
#     Edge 17, Type (0, 1), None
#     Edge 18, Type (0, 1), None
#     Edge 19, Type (0, 1), None
#     Edge 20, Type (0, 1), None
#     Edge 21, Type (0, 1), None
#     Edge 22, Type (0, 1), None
#     Edge 23, Type (0, 1), None
#     Edge 24, Type (0, 1), None
#     Edge 25, Type (0, 1), None
#     Edge 26, Type (0, 1), None
# Relax obj value: 0.188
# Max RMSD: 0.177
# Mean RMSD: 0.122
data_MOF--net-anh--node1-BETDEL_clean_sbu_0--node2-BETDIP_clean_linker_0--edge1-none
_symmetry_space_group_name_H-M    P1
_symmetry_Int_Tables_number       1
_symmetry_cell_setting            triclinic
loop_
_symmetry_equiv_pos_as_xyz
'x, y, z'
_cell_length_a     12.980387
_cell_length_b     13.08993
_cell_length_c     20.504712
_cell_angle_alpha  92.41737
_cell_angle_beta   93.374632
_cell_angle_gamma 120.38878
loop_
_atom_site_label
_atom_site_type_symbol
_atom_site_fract_x
_atom_site_fract_y
_atom_site_fract_z
_atom_type_partial_charge
Dy0 Dy 0.17472 0.51588 0.13346 0.0
C1 C 0.93076 0.76725 0.17379 0.0
C2 C 0.33531 0.45783 0.08985 0.0
Dy3 Dy 1.06205 0.66275 0.15111 0.0
O4 O 0.30023 0.44706 0.14849 0.0
O5 O 0.27006 0.48644 0.0534 0.0
O6 O 0.1215 0.4346 0.22822 0.0
O7 O 0.159 0.60999 0.21872 0.0
C8 C 0.11984 0.52534 0.25548 0.0
C9 C 0.11047 0.6399 0.02672 0.0
O10 O 0.24579 0.79675 0.19679 0.0
O11 O 0.33528 0.70679 0.14515 0.0
O12 O 0.88642 0.65463 0.15963 0.0
O13 O 1.04668 0.82255 0.17822 0.0
O14 O 0.11608 0.73393 0.05344 0.0
O15 O 1.07091 0.56109 0.0664 0.0
O16 O 0.98192 0.36492 0.11888 0.0
O17 O 0.91105 0.47971 0.16583 0.0
C18 C 0.34325 0.80034 0.17827 0.0
C19 C 0.89453 0.37542 0.14328 0.0
Dy20 Dy 0.46067 0.99395 0.47913 0.0
C21 C 0.95961 0.30281 0.52388 0.0
C22 C 0.23374 0.80822 0.44389 0.0
Dy23 Dy 0.72128 0.14604 0.49448 0.0
O24 O 0.28757 0.83915 0.50258 0.0
O25 O 0.30151 0.88701 0.40544 0.0
O26 O 0.44179 1.05532 0.57747 0.0
O27 O 0.59269 1.0378 0.56321 0.0
C28 C 0.54135 0.06828 0.60412 0.0
C29 C 0.63178 1.05473 0.37014 0.0
O30 O 0.71834 0.97888 0.51138 0.0
O31 O 0.52202 0.85862 0.4683 0.0
O32 O 0.89771 0.29628 0.47034 0.0
O33 O 0.89116 0.22528 0.56235 0.0
O34 O 0.73404 0.07431 0.39623 0.0
O35 O 0.58678 0.09483 0.4095 0.0
O36 O 0.46817 0.17033 0.47495 0.0
O37 O 0.66667 0.27936 0.51756 0.0
C38 C 0.62751 0.8734 0.4899 0.0
C39 C 0.56379 0.27243 0.49941 0.0
Dy40 Dy 0.68078 0.68743 0.81379 0.0
C41 C 0.48164 0.20161 0.81907 0.0
C42 C 0.78793 0.9202 0.7875 0.0
Dy43 Dy 0.5387 0.43266 0.81512 0.0
O44 O 0.703 0.8695 0.82578 0.0
O45 O 0.81387 0.84418 0.76296 0.0
O46 O 0.7476 0.70716 0.92015 0.0
O47 O 0.57309 0.57303 0.88845 0.0
C48 C 0.65104 0.61617 0.93684 0.0
C49 C 0.55339 0.49979 0.69315 0.0
O50 O 0.39121 0.47019 0.83169 0.0
O51 O 0.49315 0.64727 0.7836 0.0
O52 O 0.42152 0.23859 0.78471 0.0
O53 O 0.55407 0.28852 0.86185 0.0
O54 O 0.45988 0.41248 0.71396 0.0
O55 O 0.63982 0.54486 0.7379 0.0
O56 O 0.83768 0.66122 0.81766 0.0
O57 O 0.72585 0.46588 0.83972 0.0
C58 C 0.3933 0.56153 0.80459 0.0
C59 C 0.83031 0.56124 0.83288 0.0
H60 H 0.53309 0.94945 0.10945 0.0
H61 H 0.76996 0.17326 0.27609 0.0
H62 H 0.42097 0.88127 0.30495 0.0
H63 H 0.70935 0.29126 0.16919 0.0
C64 C 0.7741 0.27135 0.14986 0.0
C65 C 0.55142 0.97085 0.16202 0.0
C66 C 0.46272 0.90277 0.20402 0.0
C67 C 0.66109 0.07134 0.18801 0.0
C68 C 0.6844 0.09802 0.25614 0.0
C69 C 0.5988 1.03 0.29857 0.0
C70 C 0.4871 0.93438 0.27223 0.0
N71 N 0.74587 0.15081 0.14661 0.0
H72 H 0.54254 0.44475 0.43273 0.0
H73 H 0.56779 0.65567 0.60735 0.0
H74 H 0.56249 0.32801 0.62413 0.0
H75 H 0.73252 0.79134 0.5191 0.0
C76 C 0.64748 0.77213 0.49428 0.0
C77 C 0.54704 0.45714 0.48559 0.0
C78 C 0.55127 0.37294 0.52505 0.0
C79 C 0.55604 0.56142 0.51548 0.0
C80 C 0.56588 0.5786 0.58422 0.0
C81 C 0.56777 0.49467 0.62306 0.0
C82 C 0.561 0.39295 0.59343 0.0
N83 N 0.55757 0.65095 0.47757 0.0
H84 H 0.9718 0.48765 0.77324 0.0
H85 H 0.21929 0.56786 0.9435 0.0
H86 H 0.93153 0.63869 0.95406 0.0
H87 H 0.30396 0.66551 0.79319 0.0
C88 C 0.28853 0.5777 0.80193 0.0
C89 C 1.00197 0.5218 0.82404 0.0
C90 C 0.9403 0.56496 0.85999 0.0
C91 C 0.10483 0.5256 0.85413 0.0
C92 C 0.14197 0.5675 0.92019 0.0
C93 C 1.07984 0.6082 0.95608 0.0
C94 C 0.98063 0.60861 0.92566 0.0
N95 N 0.17388 0.49005 0.81876 0.0
H96 H 0.17214 0.61953 0.51475 0.0
H97 H 0.11301 0.3811 0.34901 0.0
H98 H 0.14281 0.71861 0.32027 0.0
H99 H 0.13412 0.35423 0.57516 0.0
C100 C 1.09076 0.36983 0.53308 0.0
C101 C 0.15019 0.59655 0.46237 0.0
C102 C 0.1586 0.6821 0.42037 0.0
C103 C 0.13514 0.48874 0.43655 0.0
C104 C 0.11905 0.46234 0.36863 0.0
C105 C 0.11778 0.54357 0.32641 0.0
C106 C 0.13441 0.65198 0.35273 0.0
N107 N 0.1564 0.4165 0.47827 0.0
H108 H 0.66049 0.16337 0.86342 0.0
H109 H 0.72548 0.0663 0.67405 0.0
H110 H 0.42111 0.108 0.69375 0.0
H111 H 0.943 0.08866 0.76328 0.0
C112 C 0.85285 1.04745 0.77853 0.0
C113 C 0.63067 0.13513 0.81193 0.0
C114 C 0.52913 0.13513 0.78399 0.0
C115 C 0.6998 0.10759 0.77287 0.0
C116 C 0.66873 0.08162 0.70481 0.0
C117 C 0.56878 0.08271 0.67606 0.0
C118 C 0.49679 0.10444 0.71628 0.0
N119 N 0.80791 0.11956 0.80144 0.0
H120 H 0.51797 0.58618 0.18083 0.0
H121 H 0.79057 0.7433 0.04893 0.0
H122 H 0.43455 0.46283 0.97664 0.0
H123 H 0.9046 0.91368 0.20696 0.0
C124 C 0.86026 0.82443 0.18291 0.0
C125 C 0.54678 0.58435 0.13243 0.0
C126 C 0.46334 0.50999 0.08042 0.0
C127 C 0.66385 0.66869 0.12171 0.0
C128 C 0.7013 0.67453 0.05812 0.0
C129 C 0.61946 0.59856 0.00537 0.0
C130 C 0.50061 0.51602 0.01723 0.0
N131 N 0.73337 0.75882 0.17312 0.0
loop_
_geom_bond_atom_site_label_1
_geom_bond_atom_site_label_2
_geom_bond_distance
_geom_bond_site_symmetry_2
_ccdc_geom_bond_type
Dy0 O4 2.398 . S
Dy0 O5 2.491 . S
Dy0 O6 2.403 . S
Dy0 O7 2.664 . S
Dy0 O11 2.326 . S
Dy0 O15 2.310 . S
Dy0 O16 2.351 1_455 S
C1 O12 1.185 . S
C1 O13 1.355 . S
C2 O4 1.185 . S
C2 O5 1.355 . S
Dy3 O7 2.310 1_655 S
Dy3 O10 2.351 1_655 S
Dy3 O12 2.398 . S
Dy3 O13 2.491 . S
Dy3 O14 2.403 . S
Dy3 O15 2.664 1_655 S
Dy3 O17 2.326 . S
O4 Dy0 2.398 . S
O4 C2 1.185 . S
O5 Dy0 2.491 . S
O5 C2 1.355 . S
O6 Dy0 2.403 . S
O6 C8 1.254 . S
O7 Dy0 2.664 . S
O7 Dy3 2.310 1_455 S
O7 C8 1.268 . S
C8 O6 1.254 . S
C8 O7 1.268 . S
C9 O14 1.254 1_455 S
C9 O15 1.268 . S
O10 Dy3 2.351 1_455 S
O10 C18 1.249 . S
O11 Dy0 2.326 . S
O11 C18 1.267 . S
O12 C1 1.185 . S
O12 Dy3 2.398 . S
O13 C1 1.355 . S
O13 Dy3 2.491 . S
O14 Dy3 2.403 . S
O14 C9 1.254 1_655 S
O15 Dy0 2.310 . S
O15 Dy3 2.664 1_455 S
O15 C9 1.268 . S
O16 Dy0 2.351 1_655 S
O16 C19 1.249 . S
O17 Dy3 2.326 . S
O17 C19 1.267 . S
C18 O10 1.249 . S
C18 O11 1.267 . S
C19 O16 1.249 . S
C19 O17 1.267 . S
Dy20 O24 2.398 . S
Dy20 O25 2.491 . S
Dy20 O26 2.403 . S
Dy20 O27 2.664 1_565 S
Dy20 O31 2.326 . S
Dy20 O35 2.310 . S
Dy20 O36 2.351 1_565 S
C21 O32 1.185 . S
C21 O33 1.355 . S
C22 O24 1.185 . S
C22 O25 1.355 . S
Dy23 O27 2.310 . S
Dy23 O30 2.351 1_545 S
Dy23 O32 2.398 . S
Dy23 O33 2.491 . S
Dy23 O34 2.403 . S
Dy23 O35 2.664 1_545 S
Dy23 O37 2.326 . S
O24 Dy20 2.398 . S
O24 C22 1.185 . S
O25 Dy20 2.491 . S
O25 C22 1.355 . S
O26 Dy20 2.403 . S
O26 C28 1.254 1_565 S
O27 Dy20 2.664 1_545 S
O27 Dy23 2.310 . S
O27 C28 1.268 . S
C28 O26 1.254 1_545 S
C28 O27 1.268 . S
C29 O34 1.254 . S
C29 O35 1.268 1_545 S
O30 Dy23 2.351 1_565 S
O30 C38 1.249 . S
O31 Dy20 2.326 . S
O31 C38 1.267 . S
O32 C21 1.185 . S
O32 Dy23 2.398 . S
O33 C21 1.355 . S
O33 Dy23 2.491 . S
O34 Dy23 2.403 . S
O34 C29 1.254 . S
O35 Dy20 2.310 . S
O35 Dy23 2.664 1_565 S
O35 C29 1.268 1_565 S
O36 Dy20 2.351 1_545 S
O36 C39 1.249 . S
O37 Dy23 2.326 . S
O37 C39 1.267 . S
C38 O30 1.249 . S
C38 O31 1.267 . S
C39 O36 1.249 . S
C39 O37 1.267 . S
Dy40 O44 2.398 . S
Dy40 O45 2.491 . S
Dy40 O46 2.403 . S
Dy40 O47 2.664 . S
Dy40 O51 2.326 . S
Dy40 O55 2.310 . S
Dy40 O56 2.351 . S
C41 O52 1.185 . S
C41 O53 1.355 . S
C42 O44 1.185 . S
C42 O45 1.355 . S
Dy43 O47 2.310 . S
Dy43 O50 2.351 . S
Dy43 O52 2.398 . S
Dy43 O53 2.491 . S
Dy43 O54 2.403 . S
Dy43 O55 2.664 . S
Dy43 O57 2.326 . S
O44 Dy40 2.398 . S
O44 C42 1.185 . S
O45 Dy40 2.491 . S
O45 C42 1.355 . S
O46 Dy40 2.403 . S
O46 C48 1.254 . S
O47 Dy40 2.664 . S
O47 Dy43 2.310 . S
O47 C48 1.268 . S
C48 O46 1.254 . S
C48 O47 1.268 . S
C49 O54 1.254 . S
C49 O55 1.268 . S
O50 Dy43 2.351 . S
O50 C58 1.249 . S
O51 Dy40 2.326 . S
O51 C58 1.267 . S
O52 C41 1.185 . S
O52 Dy43 2.398 . S
O53 C41 1.355 . S
O53 Dy43 2.491 . S
O54 Dy43 2.403 . S
O54 C49 1.254 . S
O55 Dy40 2.310 . S
O55 Dy43 2.664 . S
O55 C49 1.268 . S
O56 Dy40 2.351 . S
O56 C59 1.249 . S
O57 Dy43 2.326 . S
O57 C59 1.267 . S
C58 O50 1.249 . S
C58 O51 1.267 . S
C59 O56 1.249 . S
C59 O57 1.267 . S
H60 C65 0.930 . S
H61 C68 0.930 . S
H62 C70 0.930 . S
H63 C64 1.016 . S
C64 H63 1.016 . S
C64 N71 1.286 . S
C65 H60 0.930 . S
C65 C66 1.397 . S
C65 C67 1.361 1_565 S
C66 C65 1.397 . S
C66 C70 1.390 . S
C67 C65 1.361 1_545 S
C67 C68 1.393 . S
C67 N71 1.413 . S
C68 H61 0.930 . S
C68 C67 1.393 . S
C68 C69 1.399 1_545 S
C69 C68 1.399 1_565 S
C69 C70 1.381 . S
C70 H62 0.930 . S
C70 C66 1.390 . S
C70 C69 1.381 . S
N71 C64 1.286 . S
N71 C67 1.413 . S
H72 C77 0.930 . S
H73 C80 0.930 . S
H74 C82 0.930 . S
H75 C76 1.016 . S
C76 H75 1.016 . S
C76 N83 1.286 . S
C77 H72 0.930 . S
C77 C78 1.397 . S
C77 C79 1.361 . S
C78 C77 1.397 . S
C78 C82 1.390 . S
C79 C77 1.361 . S
C79 C80 1.393 . S
C79 N83 1.413 . S
C80 H73 0.930 . S
C80 C79 1.393 . S
C80 C81 1.399 . S
C81 C80 1.399 . S
C81 C82 1.381 . S
C82 H74 0.930 . S
C82 C78 1.390 . S
C82 C81 1.381 . S
N83 C76 1.286 . S
N83 C79 1.413 . S
H84 C89 0.930 . S
H85 C92 0.930 . S
H86 C94 0.930 . S
H87 C88 1.016 . S
C88 H87 1.016 . S
C88 N95 1.286 . S
C89 H84 0.930 . S
C89 C90 1.397 . S
C89 C91 1.361 1_655 S
C90 C89 1.397 . S
C90 C94 1.390 . S
C91 C89 1.361 1_455 S
C91 C92 1.393 . S
C91 N95 1.413 . S
C92 H85 0.930 . S
C92 C91 1.393 . S
C92 C93 1.399 1_455 S
C93 C92 1.399 1_655 S
C93 C94 1.381 . S
C94 H86 0.930 . S
C94 C90 1.390 . S
C94 C93 1.381 . S
N95 C88 1.286 . S
N95 C91 1.413 . S
H96 C101 0.930 . S
H97 C104 0.930 . S
H98 C106 0.930 . S
H99 C100 1.016 . S
C100 H99 1.016 . S
C100 N107 1.286 . S
C101 H96 0.930 . S
C101 C102 1.397 . S
C101 C103 1.361 1_455 S
C102 C101 1.397 . S
C102 C106 1.390 . S
C103 C101 1.361 1_655 S
C103 C104 1.393 . S
C103 N107 1.413 . S
C104 H97 0.930 . S
C104 C103 1.393 . S
C104 C105 1.399 1_655 S
C105 C104 1.399 1_455 S
C105 C106 1.381 . S
C106 H98 0.930 . S
C106 C102 1.390 . S
C106 C105 1.381 . S
N107 C100 1.286 . S
N107 C103 1.413 . S
H108 C113 0.930 . S
H109 C116 0.930 1_565 S
H110 C118 0.930 . S
H111 C112 1.016 . S
C112 H111 1.016 . S
C112 N119 1.286 . S
C113 H108 0.930 . S
C113 C114 1.397 . S
C113 C115 1.361 . S
C114 C113 1.397 . S
C114 C118 1.390 . S
C115 C113 1.361 . S
C115 C116 1.393 . S
C115 N119 1.413 1_545 S
C116 H109 0.930 1_545 S
C116 C115 1.393 . S
C116 C117 1.399 . S
C117 C116 1.399 . S
C117 C118 1.381 . S
C118 H110 0.930 . S
C118 C114 1.390 . S
C118 C117 1.381 . S
N119 C112 1.286 . S
N119 C115 1.413 1_565 S
H120 C125 0.930 . S
H121 C128 0.930 . S
H122 C130 0.930 . S
H123 C124 1.016 . S
C124 H123 1.016 . S
C124 N131 1.286 . S
C125 H120 0.930 . S
C125 C126 1.397 . S
C125 C127 1.361 . S
C126 C125 1.397 . S
C126 C130 1.390 . S
C127 C125 1.361 . S
C127 C128 1.393 . S
C127 N131 1.413 . S
C128 H121 0.930 . S
C128 C127 1.393 . S
C128 C129 1.399 . S
C129 C128 1.399 . S
C129 C130 1.381 . S
C130 H122 0.930 . S
C130 C126 1.390 . S
C130 C129 1.381 . S
N131 C124 1.286 . S
N131 C127 1.413 . S
C2 C126 1.105 . S
C21 C100 0.774 . S
C42 C112 0.843 . S
C1 C124 0.754 . S
C102 C22 0.866 . S
C114 C41 0.901 . S
C38 C76 2.372 . S
C59 C90 2.713 . S
C18 C66 2.275 . S
C78 C39 2.350 . S
C88 C58 2.194 . S
C19 C64 2.435 . S
C93 C9 1.733 1_656 S
C29 C69 1.630 1_545 S
C49 C81 1.608 . S
C117 C28 1.586 . S
C129 C48 1.569 1_554 S
C8 C105 1.339 . S
