# Generated by pormake.
# Topology rtl, (3,6)-cn, num edge types: 1
# Building blocks:
#     Node 0, Type 0, BuildingBlock: CUQRIR_clean_linker_1, # of connection points: 3
#     Node 1, Type 0, BuildingBlock: CUQRIR_clean_linker_1, # of connection points: 3
#     Node 2, Type 0, BuildingBlock: CUQRIR_clean_linker_1, # of connection points: 3
#     Node 3, Type 0, BuildingBlock: CUQRIR_clean_linker_1, # of connection points: 3
#     Node 4, Type 1, BuildingBlock: KUMBOL_clean_sbu_1, # of connection points: 6
#     Node 5, Type 1, BuildingBlock: KUMBOL_clean_sbu_1, # of connection points: 6
#     Edge 6, Type (0, 1), None
#     Edge 7, Type (0, 1), None
#     Edge 8, Type (0, 1), None
#     Edge 9, Type (0, 1), None
#     Edge 10, Type (0, 1), None
#     Edge 11, Type (0, 1), None
#     Edge 12, Type (0, 1), None
#     Edge 13, Type (0, 1), None
#     Edge 14, Type (0, 1), None
#     Edge 15, Type (0, 1), None
#     Edge 16, Type (0, 1), None
#     Edge 17, Type (0, 1), None
# Relax obj value: 0.072
# Max RMSD: 0.317
# Mean RMSD: 0.233
data_MOF--net-rtl--node1-KUMBOL_clean_sbu_1--node2-CUQRIR_clean_linker_1--edge1-none
_symmetry_space_group_name_H-M    P1
_symmetry_Int_Tables_number       1
_symmetry_cell_setting            triclinic
loop_
_symmetry_equiv_pos_as_xyz
'x, y, z'
_cell_length_a     14.281114
_cell_length_b     15.032714
_cell_length_c     12.122988
_cell_angle_alpha  61.88924
_cell_angle_beta   92.524352
_cell_angle_gamma 91.74451
loop_
_atom_site_label
_atom_site_type_symbol
_atom_site_fract_x
_atom_site_fract_y
_atom_site_fract_z
_atom_type_partial_charge
C0 C 0.26748 0.78928 0.90583 0.0
N1 N 0.18628 0.83159 0.91764 0.0
N2 N 0.30786 0.7252 0.01977 0.0
C3 C 0.33283 0.84894 0.80351 0.0
C4 C 0.25934 0.74633 0.09846 0.0
N5 N 0.18616 0.80917 0.03925 0.0
C6 C 0.27969 0.70103 0.23645 0.0
H7 H 0.37686 0.79787 0.78649 0.0
H8 H 0.38226 0.89087 0.83601 0.0
H9 H 0.29607 0.90591 0.71991 0.0
H10 H 0.2397 0.73587 0.28216 0.0
H11 H 0.35508 0.71042 0.25454 0.0
H12 H 0.26112 0.62004 0.27859 0.0
C13 C 0.6953 0.80215 0.81267 0.0
N14 N 0.64806 0.71624 0.82516 0.0
N15 N 0.75792 0.83615 0.71715 0.0
C16 C 0.64506 0.87958 0.83269 0.0
C17 C 0.73103 0.78375 0.65601 0.0
N18 N 0.67062 0.70817 0.72435 0.0
C19 C 0.73798 0.82616 0.51529 0.0
H20 H 0.60263 0.92628 0.7464 0.0
H21 H 0.69472 0.93208 0.84553 0.0
H22 H 0.59525 0.84566 0.909 0.0
H23 H 0.75924 0.76712 0.49132 0.0
H24 H 0.78503 0.89227 0.47075 0.0
H25 H 0.6682 0.85417 0.47045 0.0
C26 C 0.71361 0.19874 0.38397 0.0
N27 N 0.79683 0.1657 0.36239 0.0
N28 N 0.66467 0.25459 0.27367 0.0
C29 C 0.65551 0.1275 0.49201 0.0
C30 C 0.70555 0.22801 0.19532 0.0
N31 N 0.78852 0.18194 0.24329 0.0
C32 C 0.66784 0.25118 0.06614 0.0
H33 H 0.61249 0.07973 0.46143 0.0
H34 H 0.60464 0.16902 0.51633 0.0
H35 H 0.69778 0.07463 0.57405 0.0
H36 H 0.67741 0.33252 0.00364 0.0
H37 H 0.59344 0.23084 0.0668 0.0
H38 H 0.70345 0.2084 0.02702 0.0
C39 C 0.2524 0.25832 0.4154 0.0
N40 N 0.33656 0.30283 0.42153 0.0
N41 N 0.2258 0.18742 0.53121 0.0
C42 C 0.1796 0.3094 0.31344 0.0
C43 C 0.29383 0.19667 0.60766 0.0
N44 N 0.3552 0.27309 0.54244 0.0
C45 C 0.31419 0.11874 0.74122 0.0
H46 H 0.20159 0.38535 0.24269 0.0
H47 H 0.11508 0.31969 0.35393 0.0
H48 H 0.16007 0.25865 0.27368 0.0
H49 H 0.27038 0.04992 0.77042 0.0
H50 H 0.30483 0.15067 0.80557 0.0
H51 H 0.38887 0.09683 0.75152 0.0
C52 C 0.00295 0.30291 0.60576 0.0
C53 C 0.85495 0.38279 0.51948 0.0
C54 C 0.90866 0.29579 0.58162 0.0
C55 C 0.89801 0.47778 0.47132 0.0
C56 C 0.04576 0.3981 0.56707 0.0
C57 C 0.99419 0.48548 0.49391 0.0
N58 N 0.04557 0.21804 0.69194 0.0
C59 C 0.12264 0.22494 0.75875 0.0
C60 C 0.13334 0.40312 0.61959 0.0
C61 C 0.16922 0.31708 0.72144 0.0
Gd62 Gd 0.03805 0.96129 0.51251 0.0
Gd63 Gd 0.96178 0.06633 0.74754 0.0
N64 N 0.8662 0.20469 0.64363 0.0
C65 C 0.7581 0.37167 0.52002 0.0
C66 C 0.77189 0.19685 0.66143 0.0
C67 C 0.71592 0.27968 0.59534 0.0
H68 H 0.73934 0.12482 0.71991 0.0
H69 H 0.64056 0.27204 0.60138 0.0
H70 H 0.25308 0.06666 0.42879 0.0
H71 H 0.14932 0.15839 0.83902 0.0
H72 H 0.41604 0.00561 0.46203 0.0
H73 H 0.71499 0.43387 0.46511 0.0
H74 H 0.85535 0.54467 0.42814 0.0
H75 H 0.89816 0.7517 0.60524 0.0
H76 H 0.16815 0.47498 0.59167 0.0
H77 H 0.23142 0.32189 0.77258 0.0
H78 H 0.37922 0.65287 0.711 0.0
H79 H 0.02592 0.5586 0.46745 0.0
H80 H 0.07584 0.50139 0.73479 0.0
H81 H 0.91725 0.57132 0.69164 0.0
N82 N 0.04298 0.78674 0.60345 0.0
C83 C 0.13079 0.75132 0.6134 0.0
C84 C 0.96715 0.72377 0.62627 0.0
C85 C 0.06756 0.58204 0.69263 0.0
C86 C 0.97797 0.62067 0.67221 0.0
C87 C 0.14508 0.64742 0.66281 0.0
H88 H 0.24608 0.5312 0.7338 0.0
N89 N 0.19346 0.91927 0.52202 0.0
C90 C 0.20744 0.81853 0.5731 0.0
C91 C 0.37446 0.84934 0.54938 0.0
C92 C 0.29869 0.78149 0.59289 0.0
C93 C 0.26598 0.98687 0.47671 0.0
C94 C 0.35789 0.95268 0.49128 0.0
O95 O 0.86712 0.10456 0.56632 0.0
O96 O 0.94968 0.10148 0.40952 0.0
O97 O 0.10492 0.98 0.34129 0.0
O98 O 0.9611 0.93582 0.37177 0.0
O99 O 0.85703 0.94391 0.76172 0.0
O100 O 0.8964 0.9031 0.60808 0.0
O101 O 0.12552 0.90082 0.70573 0.0
O102 O 0.04482 0.921 0.85404 0.0
O103 O 0.85944 0.05662 0.88132 0.0
O104 O 0.00273 0.06013 0.92801 0.0
O105 O 0.09575 0.1148 0.47688 0.0
O106 O 0.11317 0.0892 0.6774 0.0
C107 C 0.87261 0.12246 0.44759 0.0
C108 C 0.83802 0.89752 0.69406 0.0
C109 C 0.04247 0.8752 0.25109 0.0
C110 C 0.1095 0.81536 0.11075 0.0
C111 C 0.98656 0.72107 0.25186 0.0
C112 C 0.98078 0.79208 0.29348 0.0
C113 C 0.05299 0.72969 0.16747 0.0
C114 C 0.10736 0.88702 0.15733 0.0
C115 C 0.03175 0.94968 0.30063 0.0
C116 C 0.31177 0.67854 0.66585 0.0
C117 C 0.23604 0.61133 0.68896 0.0
H118 H 0.44591 0.82259 0.56464 0.0
C119 C 0.11754 0.88564 0.82376 0.0
C120 C 0.14373 0.12963 0.56218 0.0
C121 C 0.89861 0.14107 0.99822 0.0
C122 C 0.85928 0.1942 0.15488 0.0
C123 C 0.88534 0.3183 0.93696 0.0
C124 C 0.89963 0.24215 0.90647 0.0
C125 C 0.87261 0.29473 0.06097 0.0
C126 C 0.87321 0.11675 0.12153 0.0
C127 C 0.9185 0.06344 0.96036 0.0
H128 H 0.93719 0.65985 0.28189 0.0
H129 H 0.92726 0.78099 0.35944 0.0
H130 H 0.06013 0.66893 0.14445 0.0
H131 H 0.15762 0.94829 0.12361 0.0
H132 H 0.88575 0.39614 0.86465 0.0
H133 H 0.91363 0.2629 0.81168 0.0
H134 H 0.85502 0.35599 0.07791 0.0
H135 H 0.85544 0.03964 0.18637 0.0
C136 C 0.76183 0.63331 0.12048 0.0
C137 C 0.76872 0.808 0.0774 0.0
C138 C 0.71889 0.71717 0.11577 0.0
C139 C 0.85516 0.81839 0.02222 0.0
C140 C 0.8508 0.64429 0.06999 0.0
C141 C 0.89071 0.73994 0.00616 0.0
N142 N 0.72101 0.5406 0.18392 0.0
C143 C 0.77755 0.45809 0.22739 0.0
C144 C 0.90264 0.55857 0.09996 0.0
C145 C 0.86864 0.46579 0.187 0.0
Gd146 Gd 0.44048 0.45313 0.02478 0.0
Gd147 Gd 0.56312 0.54889 0.23444 0.0
N148 N 0.62901 0.70891 0.15162 0.0
C149 C 0.72788 0.8859 0.091 0.0
C150 C 0.58603 0.78648 0.15714 0.0
C151 C 0.63571 0.87551 0.12971 0.0
H152 H 0.51496 0.77745 0.18823 0.0
H153 H 0.60297 0.93604 0.13793 0.0
H154 H 0.5104 0.2045 0.22514 0.0
H155 H 0.75814 0.38703 0.3008 0.0
H156 H 0.45667 0.04256 0.25035 0.0
H157 H 0.76504 0.95524 0.06916 0.0
H158 H 0.89743 0.88453 0.99431 0.0
H159 H 0.24629 0.60876 0.92875 0.0
H160 H 0.97331 0.56442 0.06978 0.0
H161 H 0.91323 0.40024 0.22535 0.0
H162 H 0.13648 0.09843 0.10868 0.0
H163 H 0.95643 0.75028 0.96024 0.0
H164 H 0.01013 0.42421 0.98587 0.0
H165 H 0.08001 0.58919 0.92934 0.0
N166 N 0.27669 0.45174 0.01388 0.0
C167 C 0.2394 0.3588 0.04451 0.0
C168 C 0.21992 0.53367 0.9703 0.0
C169 C 0.08466 0.42939 0.99445 0.0
C170 C 0.12352 0.52306 0.96553 0.0
C171 C 0.1429 0.34667 0.02895 0.0
H172 H 0.03598 0.23787 0.05012 0.0
N173 N 0.38753 0.28449 0.13017 0.0
C174 C 0.29712 0.27417 0.09778 0.0
C175 C 0.31936 0.09565 0.17177 0.0
C176 C 0.26066 0.17895 0.12066 0.0
C177 C 0.44197 0.20094 0.19131 0.0
C178 C 0.41057 0.10685 0.20788 0.0
O179 O 0.5743 0.66013 0.02035 0.0
O180 O 0.54972 0.57204 0.9112 0.0
O181 O 0.37112 0.45326 0.86784 0.0
O182 O 0.50319 0.37941 0.92404 0.0
O183 O 0.41568 0.60968 0.16506 0.0
O184 O 0.40056 0.61876 0.97167 0.0
O185 O 0.3675 0.39409 0.20924 0.0
O186 O 0.47212 0.40702 0.35101 0.0
O187 O 0.65219 0.58471 0.35692 0.0
O188 O 0.50402 0.58161 0.3745 0.0
O189 O 0.5811 0.38925 0.11789 0.0
O190 O 0.59515 0.37974 0.30915 0.0
C191 C 0.59041 0.64808 0.92118 0.0
C192 C 0.37835 0.65312 0.0506 0.0
C193 C 0.43124 0.41142 0.72407 0.0
C194 C 0.37414 0.35003 0.5801 0.0
C195 C 0.35689 0.52539 0.52885 0.0
C196 C 0.41295 0.50848 0.63125 0.0
C197 C 0.33619 0.44648 0.50371 0.0
C198 C 0.41807 0.33092 0.69586 0.0
C199 C 0.42875 0.39572 0.85242 0.0
C200 C 0.16644 0.16951 0.09388 0.0
C201 C 0.10797 0.25144 0.05474 0.0
H202 H 0.29412 0.02186 0.18821 0.0
C203 C 0.39255 0.37076 0.32488 0.0
C204 C 0.6056 0.33697 0.23699 0.0
C205 C 0.60378 0.56964 0.54589 0.0
C206 C 0.6495 0.6257 0.69845 0.0
C207 C 0.674 0.45247 0.74494 0.0
C208 C 0.62932 0.472 0.63175 0.0
C209 C 0.6864 0.52981 0.77747 0.0
C210 C 0.60773 0.64463 0.58268 0.0
C211 C 0.58486 0.59857 0.414 0.0
H212 H 0.33181 0.60027 0.46917 0.0
H213 H 0.43801 0.57057 0.64314 0.0
H214 H 0.29073 0.46084 0.42367 0.0
H215 H 0.43701 0.25532 0.7649 0.0
H216 H 0.70007 0.37771 0.80514 0.0
H217 H 0.61207 0.41148 0.61137 0.0
H218 H 0.72431 0.51541 0.86355 0.0
H219 H 0.58077 0.71845 0.51912 0.0
loop_
_geom_bond_atom_site_label_1
_geom_bond_atom_site_label_2
_geom_bond_distance
_geom_bond_site_symmetry_2
_ccdc_geom_bond_type
C0 N1 1.317 . S
C0 N2 1.348 1_556 S
C0 C3 1.485 . S
N1 C0 1.317 . S
N1 N5 1.370 1_556 S
N2 C0 1.348 1_554 S
N2 C4 1.346 . S
C3 C0 1.485 . S
C3 H7 0.960 . S
C3 H8 0.961 . S
C3 H9 0.960 . S
C4 N2 1.346 . S
C4 N5 1.307 . S
C4 C6 1.486 . S
N5 N1 1.370 1_554 S
N5 C4 1.307 . S
C6 C4 1.486 . S
C6 H10 0.960 . S
C6 H11 0.960 . S
C6 H12 0.959 . S
H7 C3 0.960 . S
H8 C3 0.961 . S
H9 C3 0.960 . S
H10 C6 0.960 . S
H11 C6 0.960 . S
H12 C6 0.959 . S
C13 N14 1.317 . S
C13 N15 1.348 . S
C13 C16 1.485 . S
N14 C13 1.317 . S
N14 N18 1.370 . S
N15 C13 1.348 . S
N15 C17 1.346 . S
C16 C13 1.485 . S
C16 H20 0.960 . S
C16 H21 0.961 . S
C16 H22 0.960 1_556 S
C17 N15 1.346 . S
C17 N18 1.307 . S
C17 C19 1.486 . S
N18 N14 1.370 . S
N18 C17 1.307 . S
C19 C17 1.486 . S
C19 H23 0.960 . S
C19 H24 0.960 . S
C19 H25 0.959 . S
H20 C16 0.960 . S
H21 C16 0.961 . S
H22 C16 0.960 1_554 S
H23 C19 0.960 . S
H24 C19 0.960 . S
H25 C19 0.959 . S
C26 N27 1.317 . S
C26 N28 1.348 . S
C26 C29 1.485 . S
N27 C26 1.317 . S
N27 N31 1.370 . S
N28 C26 1.348 . S
N28 C30 1.346 . S
C29 C26 1.485 . S
C29 H33 0.960 . S
C29 H34 0.961 . S
C29 H35 0.960 . S
C30 N28 1.346 . S
C30 N31 1.307 . S
C30 C32 1.486 1_554 S
N31 N27 1.370 . S
N31 C30 1.307 . S
C32 C30 1.486 1_556 S
C32 H36 0.960 . S
C32 H37 0.960 . S
C32 H38 0.959 . S
H33 C29 0.960 . S
H34 C29 0.961 . S
H35 C29 0.960 . S
H36 C32 0.960 . S
H37 C32 0.960 . S
H38 C32 0.959 . S
C39 N40 1.317 . S
C39 N41 1.348 . S
C39 C42 1.485 . S
N40 C39 1.317 . S
N40 N44 1.370 . S
N41 C39 1.348 . S
N41 C43 1.346 . S
C42 C39 1.485 . S
C42 H46 0.960 . S
C42 H47 0.961 . S
C42 H48 0.960 . S
C43 N41 1.346 . S
C43 N44 1.307 . S
C43 C45 1.486 . S
N44 N40 1.370 . S
N44 C43 1.307 . S
C45 C43 1.486 . S
C45 H49 0.960 . S
C45 H50 0.960 . S
C45 H51 0.959 . S
H46 C42 0.960 . S
H47 C42 0.961 . S
H48 C42 0.960 . S
H49 C45 0.960 . S
H50 C45 0.960 . S
H51 C45 0.959 . S
C52 C54 1.422 . S
C52 C56 1.415 . S
C52 N58 1.369 . S
C53 C54 1.421 . S
C53 C55 1.417 . S
C53 C65 1.422 . S
C54 C52 1.422 . S
C54 C53 1.421 . S
C54 N64 1.359 . S
C55 C53 1.417 . S
C55 C57 1.329 . S
C55 H74 0.930 . S
C56 C52 1.415 . S
C56 C57 1.437 . S
C56 C60 1.413 . S
C57 C55 1.329 . S
C57 C56 1.437 . S
C57 H79 0.929 . S
N58 C52 1.369 . S
N58 C59 1.338 1_655 S
N58 Gd63 2.622 . S
C59 N58 1.338 1_455 S
C59 C61 1.378 1_455 S
C59 H71 0.929 . S
C60 C56 1.413 . S
C60 C61 1.348 . S
C60 H76 0.931 . S
C61 C59 1.378 1_655 S
C61 C60 1.348 . S
C61 H77 0.930 1_655 S
Gd62 N82 2.622 . S
Gd62 N89 2.570 . S
Gd62 O96 2.353 1_465 S
Gd62 O97 2.468 . S
Gd62 O98 2.427 . S
Gd62 O100 2.388 1_455 S
Gd62 O101 2.386 . S
Gd62 O105 2.307 1_565 S
Gd62 C115 2.805 . S
Gd63 N58 2.622 . S
Gd63 N64 2.570 . S
Gd63 O95 2.386 . S
Gd63 O99 2.307 1_545 S
Gd63 O102 2.353 1_645 S
Gd63 O103 2.468 . S
Gd63 O104 2.427 . S
Gd63 O106 2.388 1_655 S
Gd63 C127 2.805 . S
N64 C54 1.359 . S
N64 Gd63 2.570 . S
N64 C66 1.343 . S
C65 C53 1.422 . S
C65 C67 1.321 . S
C65 H73 0.931 . S
C66 N64 1.343 . S
C66 C67 1.390 . S
C66 H68 0.931 . S
C67 C65 1.321 . S
C67 C66 1.390 . S
C67 H69 0.930 . S
H68 C66 0.931 . S
H69 C67 0.930 . S
H70 C93 0.931 . S
H71 C59 0.929 . S
H72 C94 0.930 . S
H73 C65 0.931 . S
H74 C55 0.930 . S
H75 C84 0.929 1_655 S
H76 C60 0.931 . S
H77 C61 0.930 1_455 S
H78 C116 0.930 . S
H79 C57 0.929 . S
H80 C85 0.931 . S
H81 C86 0.930 1_655 S
N82 Gd62 2.622 . S
N82 C83 1.369 . S
N82 C84 1.338 . S
C83 N82 1.369 . S
C83 C87 1.415 . S
C83 C90 1.422 . S
C84 H75 0.929 1_455 S
C84 N82 1.338 . S
C84 C86 1.378 . S
C85 H80 0.931 . S
C85 C86 1.348 . S
C85 C87 1.413 . S
C86 H81 0.930 1_455 S
C86 C84 1.378 . S
C86 C85 1.348 . S
C87 C83 1.415 . S
C87 C85 1.413 . S
C87 C117 1.437 . S
H88 C117 0.930 . S
N89 Gd62 2.570 . S
N89 C90 1.359 . S
N89 C93 1.343 . S
C90 C83 1.422 . S
C90 N89 1.359 . S
C90 C92 1.421 . S
C91 C92 1.422 . S
C91 C94 1.321 . S
C91 H118 0.931 . S
C92 C90 1.421 . S
C92 C91 1.422 . S
C92 C116 1.417 . S
C93 H70 0.931 . S
C93 N89 1.343 . S
C93 C94 1.390 . S
C94 H72 0.930 . S
C94 C91 1.321 . S
C94 C93 1.390 . S
O95 Gd63 2.386 . S
O95 C107 1.265 . S
O96 Gd62 2.353 1_645 S
O96 C107 1.242 . S
O97 Gd62 2.468 . S
O97 C115 1.263 . S
O98 Gd62 2.427 . S
O98 C115 1.252 . S
O99 Gd63 2.307 1_565 S
O99 C108 1.261 . S
O100 Gd62 2.388 1_655 S
O100 C108 1.252 . S
O101 Gd62 2.386 . S
O101 C119 1.265 . S
O102 Gd63 2.353 1_465 S
O102 C119 1.242 . S
O103 Gd63 2.468 . S
O103 C127 1.263 . S
O104 Gd63 2.427 . S
O104 C127 1.252 . S
O105 Gd62 2.307 1_545 S
O105 C120 1.261 . S
O106 Gd63 2.388 1_455 S
O106 C120 1.252 . S
C107 O95 1.265 . S
C107 O96 1.242 . S
C108 O99 1.261 . S
C108 O100 1.252 . S
C109 C112 1.394 . S
C109 C114 1.370 . S
C109 C115 1.500 . S
C110 C113 1.383 . S
C110 C114 1.395 . S
C111 C112 1.396 . S
C111 C113 1.365 . S
C111 H128 0.929 . S
C112 C109 1.394 . S
C112 C111 1.396 . S
C112 H129 0.930 . S
C113 C110 1.383 . S
C113 C111 1.365 . S
C113 H130 0.931 . S
C114 C109 1.370 . S
C114 C110 1.395 . S
C114 H131 0.930 . S
C115 Gd62 2.805 . S
C115 O97 1.263 . S
C115 O98 1.252 . S
C115 C109 1.500 . S
C116 H78 0.930 . S
C116 C92 1.417 . S
C116 C117 1.329 . S
C117 C87 1.437 . S
C117 H88 0.930 . S
C117 C116 1.329 . S
H118 C91 0.931 . S
C119 O101 1.265 . S
C119 O102 1.242 . S
C120 O105 1.261 . S
C120 O106 1.252 . S
C121 C124 1.394 . S
C121 C126 1.370 1_556 S
C121 C127 1.500 . S
C122 C125 1.383 . S
C122 C126 1.395 . S
C123 C124 1.396 1_554 S
C123 C125 1.365 . S
C123 H132 0.929 . S
C124 C121 1.394 . S
C124 C123 1.396 1_556 S
C124 H133 0.930 . S
C125 C122 1.383 . S
C125 C123 1.365 . S
C125 H134 0.931 . S
C126 C121 1.370 1_554 S
C126 C122 1.395 . S
C126 H135 0.930 . S
C127 Gd63 2.805 . S
C127 O103 1.263 . S
C127 O104 1.252 . S
C127 C121 1.500 . S
H128 C111 0.929 . S
H129 C112 0.930 . S
H130 C113 0.931 . S
H131 C114 0.930 . S
H132 C123 0.929 . S
H133 C124 0.930 . S
H134 C125 0.931 . S
H135 C126 0.930 . S
C136 C138 1.422 . S
C136 C140 1.415 . S
C136 N142 1.369 . S
C137 C138 1.421 . S
C137 C139 1.417 . S
C137 C149 1.422 . S
C138 C136 1.422 . S
C138 C137 1.421 . S
C138 N148 1.359 . S
C139 C137 1.417 . S
C139 C141 1.329 . S
C139 H158 0.930 . S
C140 C136 1.415 . S
C140 C141 1.437 . S
C140 C144 1.413 . S
C141 C139 1.329 . S
C141 C140 1.437 . S
C141 H163 0.929 1_655 S
N142 C136 1.369 . S
N142 C143 1.338 . S
N142 Gd147 2.622 . S
C143 N142 1.338 . S
C143 C145 1.378 . S
C143 H155 0.929 . S
C144 C140 1.413 . S
C144 C145 1.348 . S
C144 H160 0.931 1_655 S
C145 C143 1.378 . S
C145 C144 1.348 . S
C145 H161 0.930 . S
Gd146 N166 2.622 1_554 S
Gd146 N173 2.570 . S
Gd146 O180 2.353 1_554 S
Gd146 O181 2.468 1_554 S
Gd146 O182 2.427 1_554 S
Gd146 O184 2.388 1_554 S
Gd146 O185 2.386 . S
Gd146 O189 2.307 . S
Gd146 C199 2.805 1_554 S
Gd147 N142 2.622 . S
Gd147 N148 2.570 . S
Gd147 O179 2.386 . S
Gd147 O183 2.307 . S
Gd147 O186 2.353 . S
Gd147 O187 2.468 . S
Gd147 O188 2.427 . S
Gd147 O190 2.388 . S
Gd147 C211 2.805 . S
N148 C138 1.359 . S
N148 Gd147 2.570 . S
N148 C150 1.343 . S
C149 C137 1.422 . S
C149 C151 1.321 . S
C149 H157 0.931 1_554 S
C150 N148 1.343 . S
C150 C151 1.390 . S
C150 H152 0.931 . S
C151 C149 1.321 . S
C151 C150 1.390 . S
C151 H153 0.929 . S
H152 C150 0.931 . S
H153 C151 0.929 . S
H154 C177 0.931 . S
H155 C143 0.929 . S
H156 C178 0.930 . S
H157 C149 0.931 1_556 S
H158 C139 0.930 . S
H159 C168 0.929 . S
H160 C144 0.931 1_455 S
H161 C145 0.930 . S
H162 C200 0.930 . S
H163 C141 0.929 1_455 S
H164 C169 0.931 1_655 S
H165 C170 0.930 . S
N166 Gd146 2.622 1_556 S
N166 C167 1.369 1_556 S
N166 C168 1.338 . S
C167 N166 1.369 1_554 S
C167 C171 1.415 . S
C167 C174 1.422 . S
C168 H159 0.929 . S
C168 N166 1.338 . S
C168 C170 1.378 . S
C169 H164 0.931 1_455 S
C169 C170 1.348 1_554 S
C169 C171 1.413 . S
C170 H165 0.930 . S
C170 C168 1.378 . S
C170 C169 1.348 1_556 S
C171 C167 1.415 . S
C171 C169 1.413 . S
C171 C201 1.437 . S
H172 C201 0.929 1_655 S
N173 Gd146 2.570 . S
N173 C174 1.359 . S
N173 C177 1.343 . S
C174 C167 1.422 . S
C174 N173 1.359 . S
C174 C176 1.421 . S
C175 C176 1.422 . S
C175 C178 1.321 . S
C175 H202 0.931 . S
C176 C174 1.421 . S
C176 C175 1.422 . S
C176 C200 1.417 . S
C177 H154 0.931 . S
C177 N173 1.343 . S
C177 C178 1.390 . S
C178 H156 0.930 . S
C178 C175 1.321 . S
C178 C177 1.390 . S
O179 Gd147 2.386 . S
O179 C191 1.265 1_554 S
O180 Gd146 2.353 1_556 S
O180 C191 1.242 . S
O181 Gd146 2.468 1_556 S
O181 C199 1.263 . S
O182 Gd146 2.427 1_556 S
O182 C199 1.252 . S
O183 Gd147 2.307 . S
O183 C192 1.261 . S
O184 Gd146 2.388 1_556 S
O184 C192 1.252 1_556 S
O185 Gd146 2.386 . S
O185 C203 1.265 . S
O186 Gd147 2.353 . S
O186 C203 1.242 . S
O187 Gd147 2.468 . S
O187 C211 1.263 . S
O188 Gd147 2.427 . S
O188 C211 1.252 . S
O189 Gd146 2.307 . S
O189 C204 1.261 . S
O190 Gd147 2.388 . S
O190 C204 1.252 . S
C191 O179 1.265 1_556 S
C191 O180 1.242 . S
C192 O183 1.261 . S
C192 O184 1.252 1_554 S
C193 C196 1.394 . S
C193 C198 1.370 . S
C193 C199 1.500 . S
C194 C197 1.383 . S
C194 C198 1.395 . S
C195 C196 1.396 . S
C195 C197 1.365 . S
C195 H212 0.929 . S
C196 C193 1.394 . S
C196 C195 1.396 . S
C196 H213 0.930 . S
C197 C194 1.383 . S
C197 C195 1.365 . S
C197 H214 0.931 . S
C198 C193 1.370 . S
C198 C194 1.395 . S
C198 H215 0.930 . S
C199 Gd146 2.805 1_556 S
C199 O181 1.263 . S
C199 O182 1.252 . S
C199 C193 1.500 . S
C200 H162 0.930 . S
C200 C176 1.417 . S
C200 C201 1.329 . S
C201 C171 1.437 . S
C201 H172 0.929 1_455 S
C201 C200 1.329 . S
H202 C175 0.931 . S
C203 O185 1.265 . S
C203 O186 1.242 . S
C204 O189 1.261 . S
C204 O190 1.252 . S
C205 C208 1.394 . S
C205 C210 1.370 . S
C205 C211 1.500 . S
C206 C209 1.383 . S
C206 C210 1.395 . S
C207 C208 1.396 . S
C207 C209 1.365 . S
C207 H216 0.929 . S
C208 C205 1.394 . S
C208 C207 1.396 . S
C208 H217 0.930 . S
C209 C206 1.383 . S
C209 C207 1.365 . S
C209 H218 0.931 . S
C210 C205 1.370 . S
C210 C206 1.395 . S
C210 H219 0.930 . S
C211 Gd147 2.805 . S
C211 O187 1.263 . S
C211 O188 1.252 . S
C211 C205 1.500 . S
H212 C195 0.929 . S
H213 C196 0.930 . S
H214 C197 0.931 . S
H215 C198 0.930 . S
H216 C207 0.929 . S
H217 C208 0.930 . S
H218 C209 0.931 . S
H219 C210 0.930 . S
C120 N41 1.760 . S
N2 C192 1.672 . S
N15 C108 1.744 . S
N28 C204 1.654 . S
C110 N5 1.361 . S
C191 N14 1.799 . S
N27 C107 1.732 . S
N44 C194 1.573 . S
C206 N18 1.564 . S
C122 N31 1.358 . S
C203 N40 1.820 . S
N1 C119 1.803 . S
