# Generated by pormake.
# Topology anh, (6,3)-cn, num edge types: 1
# Building blocks:
#     Node 0, Type 0, BuildingBlock: BETFEN_clean_sbu_0, # of connection points: 6
#     Node 1, Type 0, BuildingBlock: BETFEN_clean_sbu_0, # of connection points: 6
#     Node 2, Type 0, BuildingBlock: BETFEN_clean_sbu_0, # of connection points: 6
#     Node 3, Type 1, BuildingBlock: PAMTOO_clean_linker_0, # of connection points: 3
#     Node 4, Type 1, BuildingBlock: PAMTOO_clean_linker_0, # of connection points: 3
#     Node 5, Type 1, BuildingBlock: PAMTOO_clean_linker_0, # of connection points: 3
#     Node 6, Type 1, BuildingBlock: PAMTOO_clean_linker_0, # of connection points: 3
#     Node 7, Type 1, BuildingBlock: PAMTOO_clean_linker_0, # of connection points: 3
#     Node 8, Type 1, BuildingBlock: PAMTOO_clean_linker_0, # of connection points: 3
#     Edge 9, Type (0, 1), None
#     Edge 10, Type (0, 1), None
#     Edge 11, Type (0, 1), None
#     Edge 12, Type (0, 1), None
#     Edge 13, Type (0, 1), None
#     Edge 14, Type (0, 1), None
#     Edge 15, Type (0, 1), None
#     Edge 16, Type (0, 1), None
#     Edge 17, Type (0, 1), None
#     Edge 18, Type (0, 1), None
#     Edge 19, Type (0, 1), None
#     Edge 20, Type (0, 1), None
#     Edge 21, Type (0, 1), None
#     Edge 22, Type (0, 1), None
#     Edge 23, Type (0, 1), None
#     Edge 24, Type (0, 1), None
#     Edge 25, Type (0, 1), None
#     Edge 26, Type (0, 1), None
# Relax obj value: 0.406
# Max RMSD: 0.297
# Mean RMSD: 0.154
data_MOF--net-anh--node1-BETFEN_clean_sbu_0--node2-PAMTOO_clean_linker_0--edge1-none
_symmetry_space_group_name_H-M    P1
_symmetry_Int_Tables_number       1
_symmetry_cell_setting            triclinic
loop_
_symmetry_equiv_pos_as_xyz
'x, y, z'
_cell_length_a     13.194879
_cell_length_b     13.906598
_cell_length_c     22.479679
_cell_angle_alpha  86.114705
_cell_angle_beta   91.920596
_cell_angle_gamma 86.137563
loop_
_atom_site_label
_atom_site_type_symbol
_atom_site_fract_x
_atom_site_fract_y
_atom_site_fract_z
_atom_type_partial_charge
Pr0 Pr 0.16369 0.55215 0.1316 0.0
Pr1 Pr 0.16668 0.76276 0.10883 0.0
C2 C 0.12718 0.37268 0.17341 0.0
C3 C 1.04083 0.33691 0.20526 0.0
C4 C 1.01831 0.24028 0.2035 0.0
C5 C 0.92836 0.20992 0.22721 0.0
C6 C 0.86079 0.27587 0.25336 0.0
C7 C 0.88619 0.37129 0.25782 0.0
C8 C 0.97496 0.40188 0.23316 0.0
C9 C 0.18965 0.61096 0.01172 0.0
C10 C 0.94249 0.67725 0.10322 0.0
C11 C 0.19666 0.94633 0.07147 0.0
C12 C 0.26062 1.02204 0.09131 0.0
C13 C 0.2511 1.05719 0.14825 0.0
C14 C 0.31764 1.12294 0.16826 0.0
C15 C 0.39478 1.15458 0.13186 0.0
C16 C 0.40314 1.12127 0.07454 0.0
C17 C 0.33597 1.05608 0.05423 0.0
C18 C 0.13251 0.71019 0.22819 0.0
C19 C 0.39233 0.63066 0.13178 0.0
O20 O 0.18295 0.42907 0.20277 0.0
O21 O 0.10694 0.40486 0.118 0.0
O22 O 0.12652 0.64882 0.04537 0.0
O23 O 0.2429 0.53815 0.03906 0.0
O24 O 0.99912 0.74046 0.07614 0.0
O25 O 0.98796 0.60463 0.13718 0.0
O26 O 0.24431 0.87168 0.04971 0.0
O27 O 0.12279 0.92273 0.10574 0.0
O28 O 0.19691 0.66685 0.19723 0.0
O29 O 0.09025 0.78676 0.199 0.0
O30 O 0.33956 0.55549 0.14492 0.0
O31 O 0.34573 0.71643 0.11557 0.0
H32 H 0.06795 1.18955 0.1817 0.0
H33 H 0.90969 1.13585 0.22332 0.0
H34 H 0.83445 0.4235 0.27699 0.0
H35 H 0.98971 0.47733 0.23346 0.0
H36 H 0.19416 1.03211 0.17807 0.0
H37 H 0.31097 1.14688 0.21294 0.0
H38 H 0.4631 1.14381 0.04607 0.0
H39 H 0.3448 1.03001 0.01022 0.0
Pr40 Pr 0.70958 0.26556 0.52057 0.0
Pr41 Pr 0.48263 0.25238 0.50401 0.0
C42 C 0.90804 0.27303 0.499 0.0
C43 C 0.96218 0.35503 0.47308 0.0
C44 C 0.9402 0.44839 0.49143 0.0
C45 C 0.98228 0.5279 0.46318 0.0
C46 C 1.04899 0.5168 0.41604 0.0
C47 C 0.07132 0.42287 0.39776 0.0
C48 C 1.02744 0.34308 0.42562 0.0
C49 C 0.60274 0.25804 0.62525 0.0
C50 C 0.57786 0.47955 0.52232 0.0
C51 C 0.2795 0.24457 0.50028 0.0
C52 C 0.21466 1.17165 0.47769 0.0
C53 C 0.23039 1.13554 0.42153 0.0
C54 C 0.17943 1.05661 0.40417 0.0
C55 C 0.11296 1.01156 0.44285 0.0
C56 C 0.09398 1.04996 0.49794 0.0
C57 C 0.14444 1.12952 0.51519 0.0
C58 C 0.58477 0.23413 0.39958 0.0
C59 C 0.61889 1.03547 0.5298 0.0
O60 O 0.84413 0.2366 0.46245 0.0
O61 O 0.87199 0.28215 0.55211 0.0
O62 O 0.58935 0.20889 0.58169 0.0
O63 O 0.6806 0.31008 0.61892 0.0
O64 O 0.49914 0.4227 0.52483 0.0
O65 O 0.66967 0.43849 0.51417 0.0
O66 O 0.33655 0.21516 0.54749 0.0
O67 O 0.3274 0.29588 0.46068 0.0
O68 O 0.60328 0.29611 0.43672 0.0
O69 O 0.51141 1.18211 0.41569 0.0
O70 O 0.69968 1.08945 0.52862 0.0
O71 O 0.52622 1.08081 0.52502 0.0
H72 H 0.88772 0.46077 0.52661 0.0
H73 H 0.95944 0.59865 0.47744 0.0
H74 H 0.12209 0.41077 0.36176 0.0
H75 H 1.04288 0.27229 0.4093 0.0
H76 H 0.28459 1.16602 0.39176 0.0
H77 H 0.1946 1.02839 0.36134 0.0
H78 H 1.04245 1.01676 0.52834 0.0
H79 H 0.13142 1.15601 0.55871 0.0
Pr80 Pr 0.75053 0.63275 0.8028 0.0
Pr81 Pr 0.75111 0.82903 0.83845 0.0
C82 C 0.71346 0.47507 0.75339 0.0
C83 C 0.60274 0.46884 0.74275 0.0
C84 C 0.53796 0.46459 0.79143 0.0
C85 C 0.43251 0.47459 0.7823 0.0
C86 C 0.38928 0.48738 0.72426 0.0
C87 C 0.45306 0.50116 0.67619 0.0
C88 C 0.5588 0.49111 0.68528 0.0
C89 C 0.72598 0.65107 0.92425 0.0
C90 C 0.9799 0.7121 0.83124 0.0
C91 C 0.75464 0.98484 0.90195 0.0
C92 C 0.67735 1.06469 0.90444 0.0
C93 C 0.70597 1.15851 0.8912 0.0
C94 C 0.63827 0.22486 0.85877 0.0
C95 C 0.54316 1.19619 0.83944 0.0
C96 C 0.50693 1.11146 0.86529 0.0
C97 C 0.57437 1.04528 0.89803 0.0
C98 C 0.69984 0.82466 0.71572 0.0
C99 C 0.52611 0.74476 0.81375 0.0
O100 O 0.75232 0.54464 0.72136 0.0
O101 O 0.74587 0.46925 0.8094 0.0
O102 O 0.79134 0.68753 0.89247 0.0
O103 O 0.66331 0.60538 0.89283 0.0
O104 O 0.92998 0.79675 0.83635 0.0
O105 O 0.9296 0.6353 0.81963 0.0
O106 O 0.72938 0.90094 0.92453 0.0
O107 O 0.79714 0.98024 0.85008 0.0
O108 O 0.76963 0.7709 0.74372 0.0
O109 O 0.6614 0.88843 0.74984 0.0
O110 O 0.58013 0.68609 0.78196 0.0
O111 O 0.5739 0.80203 0.8483 0.0
H112 H 0.56829 0.45314 0.83687 0.0
H113 H 0.38483 0.46418 0.82019 0.0
H114 H 0.42073 0.50992 0.63115 0.0
H115 H 0.60657 0.49969 0.6474 0.0
H116 H 0.7846 1.17525 0.89687 0.0
H117 H 0.66662 0.29125 0.84024 0.0
H118 H 0.43292 1.08903 0.85198 0.0
H119 H 0.54965 0.97389 0.90952 0.0
H120 H 0.76694 0.29171 0.35906 0.0
H121 H 0.48787 1.17325 0.30324 0.0
H122 H 0.72466 1.20418 0.18002 0.0
H123 H 0.51707 0.24959 0.12096 0.0
C124 C 0.47414 0.21416 0.15708 0.0
O125 O 0.54007 1.15403 0.19394 0.0
H126 H 0.43648 0.27183 0.18244 0.0
C127 C 0.72026 0.26185 0.32534 0.0
C128 C 0.75848 0.24869 0.26854 0.0
C129 C 0.62345 0.23245 0.33889 0.0
C130 C 0.56332 1.19535 0.29413 0.0
C131 C 0.59926 1.18737 0.23689 0.0
C132 C 0.69717 0.21205 0.22446 0.0
H133 H 0.66693 0.98293 0.64202 0.0
H134 H 0.67915 0.673 0.64434 0.0
H135 H 0.60065 0.84523 0.47961 0.0
H136 H 0.50672 0.61991 0.48748 0.0
C137 C 0.55577 0.59348 0.52709 0.0
O138 O 0.63687 0.65615 0.53097 0.0
H139 H 0.50605 0.60382 0.56516 0.0
C140 C 0.65888 0.9184 0.61818 0.0
C141 C 0.63247 0.92901 0.55684 0.0
C142 C 0.67594 0.82764 0.6499 0.0
C143 C 0.66559 0.74235 0.61979 0.0
C144 C 0.63659 0.74465 0.5585 0.0
C145 C 0.62022 0.84023 0.5269 0.0
H146 H 1.03201 0.61692 0.9341 0.0
H147 H 0.34728 0.67417 0.9484 0.0
H148 H 0.16454 0.78617 0.79319 0.0
H149 H 0.39486 0.8091 0.76367 0.0
C150 C 0.41094 0.75292 0.80088 0.0
O151 O 0.35112 0.778 0.84801 0.0
H152 H 0.38826 0.68413 0.7835 0.0
C153 C 0.09786 0.64643 0.91412 0.0
C154 C 0.08657 0.69705 0.85788 0.0
C155 C 0.19027 0.63969 0.94733 0.0
C156 C 0.27639 0.67757 0.92228 0.0
C157 C 0.26886 0.73006 0.8665 0.0
C158 C 0.17245 0.74197 0.83484 0.0
H159 H 0.09278 0.54975 0.29714 0.0
H160 H 0.16166 0.84647 0.30473 0.0
H161 H 0.09995 0.68295 0.46546 0.0
H162 H 1.01549 0.89375 0.46064 0.0
C163 C 0.06733 0.92042 0.42615 0.0
O164 O 0.14492 0.85051 0.41964 0.0
H165 H 1.02336 0.93641 0.38305 0.0
C166 C 0.10582 0.6104 0.32321 0.0
C167 C 0.09046 0.60411 0.38532 0.0
C168 C 0.13079 0.69784 0.29381 0.0
C169 C 0.14376 0.77829 0.32685 0.0
C170 C 0.13235 0.77225 0.38842 0.0
C171 C 0.10733 0.68558 0.41756 0.0
H172 H 0.64841 0.20642 0.73985 0.0
H173 H 0.40434 0.32109 0.62034 0.0
H174 H 0.34931 0.26607 0.80614 0.0
H175 H 0.23383 0.4753 0.7505 0.0
C176 C 0.28203 0.45766 0.71258 0.0
O177 O 0.28065 0.35859 0.70537 0.0
H178 H 0.24838 0.49755 0.67133 0.0
C179 C 0.56893 0.23094 0.73223 0.0
C180 C 0.50258 0.2315 0.77984 0.0
C181 C 0.53306 0.25935 0.67451 0.0
C182 C 0.43023 0.28986 0.66399 0.0
C183 C 0.36504 0.29672 0.71179 0.0
C184 C 0.39952 0.2608 0.76916 0.0
H185 H 0.89265 0.658 -0.00836 0.0
H186 H 0.5682 0.65759 0.00059 0.0
H187 H 0.75252 0.68615 0.16015 0.0
H188 H 0.52599 0.61363 0.1901 0.0
C189 C 0.5077 0.61634 0.14142 0.0
O190 O 0.5607 0.68857 0.11338 0.0
H191 H 0.53286 0.54465 0.12566 0.0
C192 C 0.82523 0.6607 0.01788 0.0
C193 C 0.83601 0.67022 0.07916 0.0
C194 C 0.73012 0.65414 -0.01045 0.0
C195 C 0.64225 0.65894 0.02277 0.0
C196 C 0.64887 0.67186 0.08419 0.0
C197 C 0.74668 0.67567 0.11291 0.0
loop_
_geom_bond_atom_site_label_1
_geom_bond_atom_site_label_2
_geom_bond_distance
_geom_bond_site_symmetry_2
_ccdc_geom_bond_type
Pr0 C2 2.880 1_455 S
Pr0 O20 2.562 1_455 S
Pr0 O21 2.490 1_455 S
Pr0 O22 2.695 . S
Pr0 O23 2.512 . S
Pr0 O25 2.437 1_455 S
Pr0 O28 2.436 . S
Pr0 O30 2.438 . S
Pr1 C11 2.880 . S
Pr1 O22 2.436 . S
Pr1 O24 2.438 1_455 S
Pr1 O26 2.562 . S
Pr1 O27 2.490 . S
Pr1 O28 2.695 . S
Pr1 O29 2.512 . S
Pr1 O31 2.437 . S
C2 Pr0 2.880 1_655 S
C2 C3 1.491 . S
C2 O20 1.254 . S
C2 O21 1.225 . S
C3 C2 1.491 . S
C3 C4 1.392 . S
C3 C8 1.356 . S
C4 C3 1.392 . S
C4 C5 1.368 . S
C4 H32 0.929 . S
C5 C4 1.368 . S
C5 C6 1.386 . S
C5 H33 0.929 . S
C6 C5 1.386 . S
C6 C7 1.373 . S
C7 C6 1.373 . S
C7 C8 1.409 . S
C7 H34 0.931 . S
C8 C3 1.356 . S
C8 C7 1.409 . S
C8 H35 0.930 . S
C9 O22 1.270 . S
C9 O23 1.248 . S
C10 O24 1.267 . S
C10 O25 1.278 . S
C11 Pr1 2.880 . S
C11 C12 1.491 . S
C11 O26 1.254 . S
C11 O27 1.225 . S
C12 C11 1.491 . S
C12 C13 1.392 . S
C12 C17 1.356 . S
C13 C12 1.392 . S
C13 C14 1.368 . S
C13 H36 0.929 . S
C14 C13 1.368 . S
C14 C15 1.386 . S
C14 H37 0.929 . S
C15 C14 1.386 . S
C15 C16 1.373 . S
C16 C15 1.373 . S
C16 C17 1.409 . S
C16 H38 0.931 . S
C17 C12 1.356 . S
C17 C16 1.409 . S
C17 H39 0.930 . S
C18 O28 1.270 . S
C18 O29 1.248 . S
C19 O30 1.267 . S
C19 O31 1.278 . S
O20 Pr0 2.562 1_655 S
O20 C2 1.254 . S
O21 Pr0 2.490 1_655 S
O21 C2 1.225 . S
O22 Pr0 2.695 . S
O22 Pr1 2.436 . S
O22 C9 1.270 . S
O23 Pr0 2.512 . S
O23 C9 1.248 . S
O24 Pr1 2.438 1_655 S
O24 C10 1.267 . S
O25 Pr0 2.437 1_655 S
O25 C10 1.278 . S
O26 Pr1 2.562 . S
O26 C11 1.254 . S
O27 Pr1 2.490 . S
O27 C11 1.225 . S
O28 Pr0 2.436 . S
O28 Pr1 2.695 . S
O28 C18 1.270 . S
O29 Pr1 2.512 . S
O29 C18 1.248 . S
O30 Pr0 2.438 . S
O30 C19 1.267 . S
O31 Pr1 2.437 . S
O31 C19 1.278 . S
H32 C4 0.929 . S
H33 C5 0.929 . S
H34 C7 0.931 . S
H35 C8 0.930 . S
H36 C13 0.929 . S
H37 C14 0.929 . S
H38 C16 0.931 . S
H39 C17 0.930 . S
Pr40 C42 2.880 . S
Pr40 O60 2.562 . S
Pr40 O61 2.490 . S
Pr40 O62 2.695 1_545 S
Pr40 O63 2.512 . S
Pr40 O65 2.437 . S
Pr40 O68 2.436 . S
Pr40 O70 2.438 1_545 S
Pr41 C51 2.880 . S
Pr41 O62 2.436 . S
Pr41 O64 2.438 1_565 S
Pr41 O66 2.562 . S
Pr41 O67 2.490 . S
Pr41 O68 2.695 1_565 S
Pr41 O69 2.512 . S
Pr41 O71 2.437 . S
C42 Pr40 2.880 . S
C42 C43 1.491 . S
C42 O60 1.254 . S
C42 O61 1.225 . S
C43 C42 1.491 . S
C43 C44 1.392 1_655 S
C43 C48 1.356 . S
C44 C43 1.392 1_455 S
C44 C45 1.368 . S
C44 H72 0.929 1_455 S
C45 C44 1.368 . S
C45 C46 1.386 . S
C45 H73 0.929 . S
C46 C45 1.386 . S
C46 C47 1.373 . S
C47 C46 1.373 . S
C47 C48 1.409 1_455 S
C47 H74 0.931 . S
C48 C43 1.356 . S
C48 C47 1.409 1_655 S
C48 H75 0.930 . S
C49 O62 1.270 1_545 S
C49 O63 1.248 . S
C50 O64 1.267 . S
C50 O65 1.278 . S
C51 Pr41 2.880 . S
C51 C52 1.491 . S
C51 O66 1.254 . S
C51 O67 1.225 . S
C52 C51 1.491 . S
C52 C53 1.392 . S
C52 C57 1.356 . S
C53 C52 1.392 . S
C53 C54 1.368 . S
C53 H76 0.929 . S
C54 C53 1.368 . S
C54 C55 1.386 . S
C54 H77 0.929 . S
C55 C54 1.386 . S
C55 C56 1.373 . S
C56 C55 1.373 . S
C56 C57 1.409 . S
C56 H78 0.931 . S
C57 C52 1.356 . S
C57 C56 1.409 . S
C57 H79 0.930 . S
C58 O68 1.270 . S
C58 O69 1.248 1_545 S
C59 O70 1.267 . S
C59 O71 1.278 . S
O60 Pr40 2.562 . S
O60 C42 1.254 . S
O61 Pr40 2.490 . S
O61 C42 1.225 . S
O62 Pr40 2.695 1_565 S
O62 Pr41 2.436 . S
O62 C49 1.270 1_565 S
O63 Pr40 2.512 . S
O63 C49 1.248 . S
O64 Pr41 2.438 1_545 S
O64 C50 1.267 . S
O65 Pr40 2.437 . S
O65 C50 1.278 . S
O66 Pr41 2.562 . S
O66 C51 1.254 . S
O67 Pr41 2.490 . S
O67 C51 1.225 . S
O68 Pr40 2.436 . S
O68 Pr41 2.695 1_545 S
O68 C58 1.270 . S
O69 Pr41 2.512 . S
O69 C58 1.248 1_565 S
O70 Pr40 2.438 1_565 S
O70 C59 1.267 . S
O71 Pr41 2.437 . S
O71 C59 1.278 . S
H72 C44 0.929 1_655 S
H73 C45 0.929 . S
H74 C47 0.931 . S
H75 C48 0.930 . S
H76 C53 0.929 . S
H77 C54 0.929 . S
H78 C56 0.931 . S
H79 C57 0.930 . S
Pr80 C82 2.880 . S
Pr80 O100 2.562 . S
Pr80 O101 2.490 . S
Pr80 O102 2.695 . S
Pr80 O103 2.512 1_556 S
Pr80 O105 2.437 . S
Pr80 O108 2.436 . S
Pr80 O110 2.438 . S
Pr81 C91 2.880 . S
Pr81 O102 2.436 . S
Pr81 O104 2.438 . S
Pr81 O106 2.562 . S
Pr81 O107 2.490 . S
Pr81 O108 2.695 . S
Pr81 O109 2.512 . S
Pr81 O111 2.437 . S
C82 Pr80 2.880 . S
C82 C83 1.491 . S
C82 O100 1.254 . S
C82 O101 1.225 . S
C83 C82 1.491 . S
C83 C84 1.392 . S
C83 C88 1.356 . S
C84 C83 1.392 . S
C84 C85 1.368 . S
C84 H112 0.929 . S
C85 C84 1.368 . S
C85 C86 1.386 . S
C85 H113 0.929 . S
C86 C85 1.386 . S
C86 C87 1.373 . S
C87 C86 1.373 . S
C87 C88 1.409 . S
C87 H114 0.931 . S
C88 C83 1.356 . S
C88 C87 1.409 . S
C88 H115 0.930 . S
C89 O102 1.270 . S
C89 O103 1.248 1_556 S
C90 O104 1.267 . S
C90 O105 1.278 . S
C91 Pr81 2.880 . S
C91 C92 1.491 . S
C91 O106 1.254 . S
C91 O107 1.225 . S
C92 C91 1.491 . S
C92 C93 1.392 . S
C92 C97 1.356 . S
C93 C92 1.392 . S
C93 C94 1.368 . S
C93 H116 0.929 . S
C94 C93 1.368 . S
C94 C95 1.386 . S
C94 H117 0.929 . S
C95 C94 1.386 . S
C95 C96 1.373 . S
C96 C95 1.373 . S
C96 C97 1.409 . S
C96 H118 0.931 . S
C97 C92 1.356 . S
C97 C96 1.409 . S
C97 H119 0.930 . S
C98 O108 1.270 . S
C98 O109 1.248 . S
C99 O110 1.267 . S
C99 O111 1.278 . S
O100 Pr80 2.562 . S
O100 C82 1.254 . S
O101 Pr80 2.490 . S
O101 C82 1.225 . S
O102 Pr80 2.695 . S
O102 Pr81 2.436 . S
O102 C89 1.270 . S
O103 Pr80 2.512 1_554 S
O103 C89 1.248 1_554 S
O104 Pr81 2.438 . S
O104 C90 1.267 . S
O105 Pr80 2.437 . S
O105 C90 1.278 . S
O106 Pr81 2.562 . S
O106 C91 1.254 . S
O107 Pr81 2.490 . S
O107 C91 1.225 . S
O108 Pr80 2.436 . S
O108 Pr81 2.695 . S
O108 C98 1.270 . S
O109 Pr81 2.512 . S
O109 C98 1.248 . S
O110 Pr80 2.438 . S
O110 C99 1.267 . S
O111 Pr81 2.437 . S
O111 C99 1.278 . S
H112 C84 0.929 . S
H113 C85 0.929 . S
H114 C87 0.931 . S
H115 C88 0.930 . S
H116 C93 0.929 . S
H117 C94 0.929 . S
H118 C96 0.931 . S
H119 C97 0.930 . S
H120 C127 0.929 . S
H121 C130 0.930 . S
H122 C132 0.929 . S
H123 C124 0.969 . S
C124 H123 0.969 . S
C124 O125 1.550 . S
C124 H126 0.973 . S
O125 C124 1.550 . S
O125 C131 1.412 1_565 S
H126 C124 0.973 . S
C127 H120 0.929 . S
C127 C128 1.400 . S
C127 C129 1.364 . S
C128 C127 1.400 . S
C128 C132 1.377 . S
C129 C127 1.364 . S
C129 C130 1.374 1_545 S
C130 H121 0.930 . S
C130 C129 1.374 1_565 S
C130 C131 1.383 1_565 S
C131 O125 1.412 1_545 S
C131 C130 1.383 1_545 S
C131 C132 1.394 . S
C132 H122 0.929 . S
C132 C128 1.377 . S
C132 C131 1.394 . S
H133 C140 0.929 . S
H134 C143 0.930 . S
H135 C145 0.929 . S
H136 C137 0.969 . S
C137 H136 0.969 . S
C137 O138 1.550 . S
C137 H139 0.973 . S
O138 C137 1.550 . S
O138 C144 1.412 . S
H139 C137 0.973 . S
C140 H133 0.929 . S
C140 C141 1.400 . S
C140 C142 1.364 . S
C141 C140 1.400 . S
C141 C145 1.377 . S
C142 C140 1.364 . S
C142 C143 1.374 . S
C143 H134 0.930 . S
C143 C142 1.374 . S
C143 C144 1.383 . S
C144 O138 1.412 . S
C144 C143 1.383 . S
C144 C145 1.394 . S
C145 H135 0.929 . S
C145 C141 1.377 . S
C145 C144 1.394 . S
H146 C153 0.929 . S
H147 C156 0.930 . S
H148 C158 0.929 . S
H149 C150 0.969 . S
C150 H149 0.969 . S
C150 O151 1.550 . S
C150 H152 0.973 . S
O151 C150 1.550 . S
O151 C157 1.412 . S
H152 C150 0.973 . S
C153 H146 0.929 . S
C153 C154 1.400 . S
C153 C155 1.364 1_655 S
C154 C153 1.400 . S
C154 C158 1.377 1_655 S
C155 C153 1.364 1_455 S
C155 C156 1.374 . S
C156 H147 0.930 . S
C156 C155 1.374 . S
C156 C157 1.383 . S
C157 O151 1.412 . S
C157 C156 1.383 . S
C157 C158 1.394 . S
C158 H148 0.929 . S
C158 C154 1.377 1_455 S
C158 C157 1.394 . S
H159 C166 0.929 . S
H160 C169 0.930 . S
H161 C171 0.929 . S
H162 C163 0.969 . S
C163 H162 0.969 . S
C163 O164 1.550 . S
C163 H165 0.973 . S
O164 C163 1.550 . S
O164 C170 1.412 . S
H165 C163 0.973 . S
C166 H159 0.929 . S
C166 C167 1.400 . S
C166 C168 1.364 1_655 S
C167 C166 1.400 . S
C167 C171 1.377 1_655 S
C168 C166 1.364 1_455 S
C168 C169 1.374 . S
C169 H160 0.930 . S
C169 C168 1.374 . S
C169 C170 1.383 . S
C170 O164 1.412 . S
C170 C169 1.383 . S
C170 C171 1.394 . S
C171 H161 0.929 . S
C171 C167 1.377 1_455 S
C171 C170 1.394 . S
H172 C179 0.929 . S
H173 C182 0.930 . S
H174 C184 0.929 . S
H175 C176 0.969 . S
C176 H175 0.969 . S
C176 O177 1.550 . S
C176 H178 0.973 . S
O177 C176 1.550 . S
O177 C183 1.412 . S
H178 C176 0.973 . S
C179 H172 0.929 . S
C179 C180 1.400 . S
C179 C181 1.364 1_565 S
C180 C179 1.400 . S
C180 C184 1.377 . S
C181 C179 1.364 1_545 S
C181 C182 1.374 . S
C182 H173 0.930 . S
C182 C181 1.374 . S
C182 C183 1.383 . S
C183 O177 1.412 . S
C183 C182 1.383 . S
C183 C184 1.394 1_545 S
C184 H174 0.929 . S
C184 C180 1.377 . S
C184 C183 1.394 1_565 S
H185 C192 0.929 . S
H186 C195 0.930 . S
H187 C197 0.929 . S
H188 C189 0.969 . S
C189 H188 0.969 . S
C189 O190 1.550 . S
C189 H191 0.973 . S
O190 C189 1.550 . S
O190 C196 1.412 . S
H191 C189 0.973 . S
C192 H185 0.929 . S
C192 C193 1.400 . S
C192 C194 1.364 . S
C193 C192 1.400 . S
C193 C197 1.377 . S
C194 C192 1.364 . S
C194 C195 1.374 . S
C195 H186 0.930 . S
C195 C194 1.374 . S
C195 C196 1.383 . S
C196 O190 1.412 . S
C196 C195 1.383 . S
C196 C197 1.394 . S
C197 H187 0.929 . S
C197 C193 1.377 . S
C197 C196 1.394 . S
C19 C189 2.204 . S
C46 C167 3.398 1_455 S
C95 C180 3.020 . S
C10 C193 2.400 . S
C163 C55 1.976 . S
C176 C86 4.880 . S
C59 C141 4.774 . S
C90 C154 2.628 . S
C15 C124 2.491 . S
C137 C50 4.558 . S
C150 C99 2.393 . S
C6 C128 1.931 . S
C155 C9 1.202 1_556 S
C58 C129 1.427 . S
C98 C142 1.987 . S
C181 C49 1.966 . S
C194 C89 1.032 1_554 S
C18 C168 1.378 . S
