# Generated by pormake.
# Topology nom, (4,4)-cn, num edge types: 1
# Building blocks:
#     Node 0, Type 0, BuildingBlock: GIZVER_clean_linker_0, # of connection points: 4
#     Node 1, Type 0, BuildingBlock: GIZVER_clean_linker_0, # of connection points: 4
#     Node 2, Type 0, BuildingBlock: GIZVER_clean_linker_0, # of connection points: 4
#     Node 3, Type 0, BuildingBlock: GIZVER_clean_linker_0, # of connection points: 4
#     Node 4, Type 0, BuildingBlock: GIZVER_clean_linker_0, # of connection points: 4
#     Node 5, Type 0, BuildingBlock: GIZVER_clean_linker_0, # of connection points: 4
#     Node 6, Type 1, BuildingBlock: GALJAG_clean_sbu_0, # of connection points: 4
#     Node 7, Type 1, BuildingBlock: GALJAG_clean_sbu_0, # of connection points: 4
#     Node 8, Type 1, BuildingBlock: GALJAG_clean_sbu_0, # of connection points: 4
#     Node 9, Type 1, BuildingBlock: GALJAG_clean_sbu_0, # of connection points: 4
#     Node 10, Type 1, BuildingBlock: GALJAG_clean_sbu_0, # of connection points: 4
#     Node 11, Type 1, BuildingBlock: GALJAG_clean_sbu_0, # of connection points: 4
#     Edge 12, Type (0, 1), None
#     Edge 13, Type (0, 1), None
#     Edge 14, Type (0, 1), None
#     Edge 15, Type (0, 1), None
#     Edge 16, Type (0, 1), None
#     Edge 17, Type (0, 1), None
#     Edge 18, Type (0, 1), None
#     Edge 19, Type (0, 1), None
#     Edge 20, Type (0, 1), None
#     Edge 21, Type (0, 1), None
#     Edge 22, Type (0, 1), None
#     Edge 23, Type (0, 1), None
#     Edge 24, Type (0, 1), None
#     Edge 25, Type (0, 1), None
#     Edge 26, Type (0, 1), None
#     Edge 27, Type (0, 1), None
#     Edge 28, Type (0, 1), None
#     Edge 29, Type (0, 1), None
#     Edge 30, Type (0, 1), None
#     Edge 31, Type (0, 1), None
#     Edge 32, Type (0, 1), None
#     Edge 33, Type (0, 1), None
#     Edge 34, Type (0, 1), None
#     Edge 35, Type (0, 1), None
# Relax obj value: 0.013
# Max RMSD: 0.090
# Mean RMSD: 0.073
data_MOF--net-nom--node1-GALJAG_clean_sbu_0--node2-GIZVER_clean_linker_0--edge1-none
_symmetry_space_group_name_H-M    P1
_symmetry_Int_Tables_number       1
_symmetry_cell_setting            triclinic
loop_
_symmetry_equiv_pos_as_xyz
'x, y, z'
_cell_length_a     21.335889
_cell_length_b     21.321986
_cell_length_c     22.303679
_cell_angle_alpha  90.012881
_cell_angle_beta   90.004572
_cell_angle_gamma 120.08674
loop_
_atom_site_label
_atom_site_type_symbol
_atom_site_fract_x
_atom_site_fract_y
_atom_site_fract_z
_atom_type_partial_charge
H0 H 0.89941 0.56997 0.38068 0.0
H1 H 0.99682 0.56997 0.21146 0.0
H2 H 0.78659 0.3934 0.25742 0.0
H3 H 1.01074 0.67346 0.35352 0.0
H4 H 0.03469 0.68474 0.27589 0.0
H5 H 0.04776 0.59521 0.41802 0.0
H6 H 0.25734 0.62817 0.37153 0.0
H7 H 0.1452 0.69281 0.24875 0.0
C8 C 0.89837 0.54279 0.3393 0.0
C9 C 0.83634 0.47733 0.32403 0.0
C10 C 0.95771 0.57519 0.29979 0.0
C11 C 0.95358 0.54252 0.24387 0.0
C12 C 0.89219 0.47621 0.22883 0.0
C13 C 0.8355 0.4427 0.27031 0.0
C14 C 0.02232 0.64781 0.31488 0.0
C15 C 0.08704 0.6401 0.32985 0.0
C16 C 0.09093 0.61102 0.38555 0.0
C17 C 0.15205 0.60573 0.40038 0.0
C18 C 0.20861 0.62882 0.35879 0.0
C19 C 0.2079 0.66279 0.30516 0.0
C20 C 0.14613 0.6666 0.2901 0.0
H21 H 0.34778 0.89523 0.54714 0.0
H22 H 0.44532 0.9927 0.37791 0.0
H23 H 0.41218 0.78287 0.42429 0.0
H24 H 0.35515 1.00618 0.51965 0.0
H25 H 0.3681 0.03014 0.44203 0.0
H26 H 0.47045 0.04369 0.58447 0.0
H27 H 0.64706 0.25387 0.53832 0.0
H28 H 0.47047 0.14114 0.41519 0.0
C29 C 0.37406 0.89429 0.50583 0.0
C30 C 0.3777 0.83241 0.4907 0.0
C31 C 0.4009 0.95357 0.46624 0.0
C32 C 0.4296 0.94953 0.41039 0.0
C33 C 0.43474 0.8883 0.39549 0.0
C34 C 0.41163 0.83168 0.43706 0.0
C35 C 0.3926 0.01796 0.48115 0.0
C36 C 0.46495 0.08296 0.49628 0.0
C37 C 0.49783 0.08696 0.55206 0.0
C38 C 0.5642 0.1483 0.56701 0.0
C39 C 0.5977 0.20499 0.52549 0.0
C40 C 0.56308 0.20416 0.47179 0.0
C41 C 0.49756 0.14218 0.45661 0.0
H42 H 0.3477 0.46663 0.58182 0.0
H43 H 0.44521 0.46676 0.75104 0.0
H44 H 0.41188 0.64329 0.70498 0.0
H45 H 0.35528 0.36313 0.60907 0.0
H46 H 0.36803 0.35194 0.6867 0.0
H47 H 0.47065 0.44133 0.54448 0.0
H48 H 0.64719 0.40828 0.59085 0.0
H49 H 0.47043 0.34378 0.71375 0.0
C50 C 0.37394 0.49385 0.62318 0.0
C51 C 0.3775 0.55931 0.63843 0.0
C52 C 0.40082 0.46147 0.66271 0.0
C53 C 0.42947 0.49419 0.71861 0.0
C54 C 0.43453 0.56051 0.73362 0.0
C55 C 0.41138 0.59398 0.69212 0.0
C56 C 0.39262 0.38882 0.64767 0.0
C57 C 0.46503 0.39648 0.63265 0.0
C58 C 0.498 0.42551 0.57693 0.0
C59 C 0.56438 0.43076 0.56206 0.0
C60 C 0.59783 0.40766 0.60362 0.0
C61 C 0.56313 0.37372 0.65728 0.0
C62 C 0.49759 0.36996 0.67238 0.0
H63 H 0.89894 0.34402 0.74869 0.0
H64 H 0.99649 0.44168 0.91792 0.0
H65 H 0.78684 0.40865 0.87155 0.0
H66 H 1.00973 0.35123 0.7762 0.0
H67 H 0.03372 0.36424 0.85383 0.0
H68 H 0.04737 0.46659 0.71134 0.0
H69 H 0.25766 0.64303 0.75741 0.0
H70 H 0.14481 0.46653 0.88061 0.0
C71 C 0.89806 0.37036 0.79 0.0
C72 C 0.83625 0.37405 0.80513 0.0
C73 C 0.95732 0.39721 0.82958 0.0
C74 C 0.95334 0.42597 0.88543 0.0
C75 C 0.89219 0.43117 0.90034 0.0
C76 C 0.83559 0.40806 0.85877 0.0
C77 C 0.02159 0.38876 0.81469 0.0
C78 C 0.08664 0.46108 0.79953 0.0
C79 C 0.09067 0.49395 0.74374 0.0
C80 C 0.15205 0.56027 0.72876 0.0
C81 C 0.20876 0.59372 0.77026 0.0
C82 C 0.20789 0.5591 0.82397 0.0
C83 C 0.14587 0.49363 0.83918 0.0
H84 H 0.6963 0.14145 0.04713 0.0
H85 H 0.59868 0.04386 0.8779 0.0
H86 H 0.63202 0.2538 0.92422 0.0
H87 H 0.68887 0.03046 0.01969 0.0
H88 H 0.67591 1.00645 0.94206 0.0
H89 H 0.57357 0.99296 0.08449 0.0
H90 H 0.39707 0.78266 0.03834 0.0
H91 H 0.57358 0.89543 0.91521 0.0
C92 C 0.67003 0.14237 0.00581 0.0
C93 C 0.66646 0.20427 -0.00934 0.0
C94 C 0.64312 0.08304 0.96624 0.0
C95 C 0.61444 0.08706 0.91038 0.0
C96 C 0.60936 0.14831 0.89545 0.0
C97 C 0.63252 0.20497 0.93701 0.0
C98 C 0.65141 0.01865 0.98117 0.0
C99 C 0.57907 0.95365 -0.0037 0.0
C100 C 0.5462 0.94965 0.05207 0.0
C101 C 0.47987 0.88828 0.06703 0.0
C102 C 0.44639 0.83156 0.02551 0.0
C103 C 0.48101 0.83239 0.97182 0.0
C104 C 0.54649 0.8944 0.95662 0.0
H105 H 0.69653 0.57007 0.08194 0.0
H106 H 0.59899 0.56984 0.25116 0.0
H107 H 0.6324 0.39336 0.20496 0.0
H108 H 0.68894 0.67356 0.10929 0.0
H109 H 0.67611 0.68468 0.18691 0.0
H110 H 0.5736 0.59528 0.04459 0.0
H111 H 0.39702 0.62833 0.09083 0.0
H112 H 0.57371 0.69286 0.21386 0.0
C113 C 0.6703 0.54283 0.12328 0.0
C114 C 0.66676 0.47737 0.13847 0.0
C115 C 0.64339 0.57518 0.16283 0.0
C116 C 0.61476 0.54243 0.21871 0.0
C117 C 0.60972 0.47611 0.23367 0.0
C118 C 0.63288 0.44267 0.19214 0.0
C119 C 0.65157 0.64783 0.14784 0.0
C120 C 0.57916 0.64015 0.13278 0.0
C121 C 0.54623 0.6111 0.07702 0.0
C122 C 0.47985 0.60585 0.0621 0.0
C123 C 0.44638 0.62895 0.10364 0.0
C124 C 0.48104 0.6629 0.15732 0.0
C125 C 0.54658 0.66667 0.17247 0.0
In126 In 0.63357 0.40704 0.39787 0.0
O127 O 0.75568 0.48902 0.39335 0.0
O128 O 0.71328 0.38976 0.34504 0.0
C129 C 0.59097 0.44229 0.49967 0.0
C130 C 0.59831 0.44962 0.29607 0.0
C131 C 0.59033 0.27265 0.43819 0.0
O132 O 0.65656 0.46297 0.48824 0.0
O133 O 0.54786 0.41073 0.45672 0.0
O134 O 0.55157 0.28489 0.4024 0.0
O135 O 0.65074 0.32723 0.45071 0.0
C136 C 0.76786 0.45018 0.35757 0.0
O137 O 0.57762 0.38399 0.30755 0.0
O138 O 0.62994 0.4928 0.33898 0.0
In139 In 0.24503 0.62946 0.56457 0.0
O140 O 0.2851 0.54756 0.56909 0.0
O141 O 0.34208 0.64682 0.61741 0.0
C142 C 0.16711 0.5942 0.46276 0.0
C143 C 0.16711 0.58679 0.66636 0.0
C144 C 0.33635 0.76389 0.52428 0.0
O145 O 0.21203 0.57358 0.47418 0.0
O146 O 0.15558 0.6257 0.50573 0.0
O147 O 0.2853 0.75159 0.56006 0.0
O148 O 0.34215 0.70935 0.51176 0.0
C149 C 0.33618 0.58642 0.60487 0.0
O150 O 0.21213 0.65243 0.6549 0.0
O151 O 0.15552 0.54363 0.62345 0.0
In152 In 0.63336 0.24135 0.73124 0.0
O153 O 0.75539 0.28155 0.7358 0.0
O154 O 0.71328 0.33854 0.78406 0.0
C155 C 0.59073 0.16339 0.62942 0.0
C156 C 0.59796 0.1634 0.83304 0.0
C157 C 0.5903 0.3325 0.69091 0.0
O158 O 0.65633 0.20845 0.6409 0.0
O159 O 0.54761 0.15174 0.67233 0.0
O160 O 0.55147 0.28136 0.72665 0.0
O161 O 0.65069 0.33847 0.67844 0.0
C162 C 0.76774 0.33268 0.77156 0.0
O163 O 0.57744 0.2084 0.82157 0.0
O164 O 0.62949 0.15182 0.79013 0.0
In165 In 0.41066 0.62949 0.89789 0.0
O166 O 0.28858 0.54745 0.89329 0.0
O167 O 0.33091 0.64673 0.84509 0.0
C168 C 0.45329 0.59429 -0.0003 0.0
C169 C 0.44595 0.58698 0.79606 0.0
C170 C 0.45382 0.76388 0.93822 0.0
O171 O 0.38769 0.57357 -0.01177 0.0
O172 O 0.4964 0.62588 0.95677 0.0
O173 O 0.4926 0.75165 0.90245 0.0
O174 O 0.39343 0.70927 0.95073 0.0
C175 C 0.27636 0.58628 0.85756 0.0
O176 O 0.46663 0.65259 0.80759 0.0
O177 O 0.41432 0.54377 0.83893 0.0
In178 In 0.79922 0.40725 0.06455 0.0
O179 O 0.83209 0.38415 0.15484 0.0
O180 O 0.88872 0.493 0.12354 0.0
C181 C 0.70787 0.27282 0.02422 0.0
C182 C 0.70808 0.45029 0.10489 0.0
C183 C 0.87713 0.44261 0.96275 0.0
O184 O 0.75894 0.28512 0.05998 0.0
O185 O 0.70209 0.32736 0.0117 0.0
O186 O 0.83221 0.46322 0.97423 0.0
O187 O 0.88865 0.41104 0.00566 0.0
C188 C 0.87711 0.44978 0.16639 0.0
O189 O 0.7592 0.48918 0.06917 0.0
O190 O 0.70215 0.38987 0.11735 0.0
In191 In 0.41075 0.79528 0.23124 0.0
O192 O 0.49267 0.7553 0.22668 0.0
O193 O 0.39344 0.69813 0.17844 0.0
C194 C 0.44614 0.87319 0.33308 0.0
C195 C 0.45335 0.87321 0.12943 0.0
C196 C 0.27636 0.70403 0.27153 0.0
O197 O 0.46662 0.82815 0.32161 0.0
O198 O 0.4147 0.88484 0.29016 0.0
O199 O 0.28875 0.75519 0.23582 0.0
O200 O 0.33078 0.69807 0.28397 0.0
C201 C 0.45385 0.70413 0.19093 0.0
O202 O 0.38776 0.82812 0.14089 0.0
O203 O 0.49648 0.88489 0.17235 0.0
loop_
_geom_bond_atom_site_label_1
_geom_bond_atom_site_label_2
_geom_bond_distance
_geom_bond_site_symmetry_2
_ccdc_geom_bond_type
H0 C8 0.930 . S
H1 C11 0.930 . S
H2 C13 0.930 . S
H3 C14 0.970 . S
H4 C14 0.970 . S
H5 C16 0.930 . S
H6 C18 0.930 . S
H7 C20 0.930 . S
C8 H0 0.930 . S
C8 C9 1.382 . S
C8 C10 1.426 . S
C9 C8 1.382 . S
C9 C13 1.389 . S
C10 C8 1.426 . S
C10 C11 1.375 . S
C10 C14 1.532 1_655 S
C11 H1 0.930 . S
C11 C10 1.375 . S
C11 C12 1.416 . S
C12 C11 1.416 . S
C12 C13 1.371 . S
C13 H2 0.930 . S
C13 C9 1.389 . S
C13 C12 1.371 . S
C14 H3 0.970 . S
C14 H4 0.970 . S
C14 C10 1.532 1_455 S
C14 C15 1.499 . S
C15 C14 1.499 . S
C15 C16 1.370 . S
C15 C20 1.415 . S
C16 H5 0.930 . S
C16 C15 1.370 . S
C16 C17 1.407 . S
C17 C16 1.407 . S
C17 C18 1.365 . S
C18 H6 0.930 . S
C18 C17 1.365 . S
C18 C19 1.393 . S
C19 C18 1.393 . S
C19 C20 1.387 . S
C20 H7 0.930 . S
C20 C15 1.415 . S
C20 C19 1.387 . S
H21 C29 0.930 . S
H22 C32 0.930 . S
H23 C34 0.930 . S
H24 C35 0.971 1_565 S
H25 C35 0.970 . S
H26 C37 0.930 . S
H27 C39 0.930 . S
H28 C41 0.930 . S
C29 H21 0.930 . S
C29 C30 1.382 . S
C29 C31 1.426 . S
C30 C29 1.382 . S
C30 C34 1.389 . S
C31 C29 1.426 . S
C31 C32 1.375 . S
C31 C35 1.532 1_565 S
C32 H22 0.930 . S
C32 C31 1.375 . S
C32 C33 1.416 . S
C33 C32 1.416 . S
C33 C34 1.371 . S
C34 H23 0.930 . S
C34 C30 1.389 . S
C34 C33 1.371 . S
C35 H24 0.971 1_545 S
C35 H25 0.970 . S
C35 C31 1.532 1_545 S
C35 C36 1.499 . S
C36 C35 1.499 . S
C36 C37 1.370 . S
C36 C41 1.415 . S
C37 H26 0.930 . S
C37 C36 1.370 . S
C37 C38 1.407 . S
C38 C37 1.407 . S
C38 C39 1.365 . S
C39 H27 0.930 . S
C39 C38 1.365 . S
C39 C40 1.393 . S
C40 C39 1.393 . S
C40 C41 1.387 . S
C41 H28 0.930 . S
C41 C36 1.415 . S
C41 C40 1.387 . S
H42 C50 0.930 . S
H43 C53 0.930 . S
H44 C55 0.930 . S
H45 C56 0.970 . S
H46 C56 0.970 . S
H47 C58 0.930 . S
H48 C60 0.930 . S
H49 C62 0.930 . S
C50 H42 0.930 . S
C50 C51 1.382 . S
C50 C52 1.426 . S
C51 C50 1.382 . S
C51 C55 1.389 . S
C52 C50 1.426 . S
C52 C53 1.375 . S
C52 C56 1.532 . S
C53 H43 0.930 . S
C53 C52 1.375 . S
C53 C54 1.416 . S
C54 C53 1.416 . S
C54 C55 1.371 . S
C55 H44 0.930 . S
C55 C51 1.389 . S
C55 C54 1.371 . S
C56 H45 0.970 . S
C56 H46 0.970 . S
C56 C52 1.532 . S
C56 C57 1.499 . S
C57 C56 1.499 . S
C57 C58 1.370 . S
C57 C62 1.415 . S
C58 H47 0.930 . S
C58 C57 1.370 . S
C58 C59 1.407 . S
C59 C58 1.407 . S
C59 C60 1.365 . S
C60 H48 0.930 . S
C60 C59 1.365 . S
C60 C61 1.393 . S
C61 C60 1.393 . S
C61 C62 1.387 . S
C62 H49 0.930 . S
C62 C57 1.415 . S
C62 C61 1.387 . S
H63 C71 0.930 . S
H64 C74 0.930 . S
H65 C76 0.930 . S
H66 C77 0.970 1_655 S
H67 C77 0.970 . S
H68 C79 0.930 . S
H69 C81 0.930 . S
H70 C83 0.930 . S
C71 H63 0.930 . S
C71 C72 1.382 . S
C71 C73 1.426 . S
C72 C71 1.382 . S
C72 C76 1.389 . S
C73 C71 1.426 . S
C73 C74 1.375 . S
C73 C77 1.532 1_655 S
C74 H64 0.930 . S
C74 C73 1.375 . S
C74 C75 1.416 . S
C75 C74 1.416 . S
C75 C76 1.371 . S
C76 H65 0.930 . S
C76 C72 1.389 . S
C76 C75 1.371 . S
C77 H66 0.970 1_455 S
C77 H67 0.970 . S
C77 C73 1.532 1_455 S
C77 C78 1.499 . S
C78 C77 1.499 . S
C78 C79 1.370 . S
C78 C83 1.415 . S
C79 H68 0.930 . S
C79 C78 1.370 . S
C79 C80 1.407 . S
C80 C79 1.407 . S
C80 C81 1.365 . S
C81 H69 0.930 . S
C81 C80 1.365 . S
C81 C82 1.393 . S
C82 C81 1.393 . S
C82 C83 1.387 . S
C83 H70 0.930 . S
C83 C78 1.415 . S
C83 C82 1.387 . S
H84 C92 0.930 . S
H85 C95 0.930 . S
H86 C97 0.930 . S
H87 C98 0.970 1_554 S
H88 C98 0.970 1_565 S
H89 C100 0.930 . S
H90 C102 0.930 . S
H91 C104 0.930 . S
C92 H84 0.930 . S
C92 C93 1.382 . S
C92 C94 1.426 1_554 S
C93 C92 1.382 . S
C93 C97 1.389 1_554 S
C94 C92 1.426 1_556 S
C94 C95 1.375 . S
C94 C98 1.532 . S
C95 H85 0.930 . S
C95 C94 1.375 . S
C95 C96 1.416 . S
C96 C95 1.416 . S
C96 C97 1.371 . S
C97 H86 0.930 . S
C97 C93 1.389 1_556 S
C97 C96 1.371 . S
C98 H87 0.970 1_556 S
C98 H88 0.970 1_545 S
C98 C94 1.532 . S
C98 C99 1.499 1_546 S
C99 C98 1.499 1_564 S
C99 C100 1.370 . S
C99 C104 1.415 1_554 S
C100 H89 0.930 . S
C100 C99 1.370 . S
C100 C101 1.407 . S
C101 C100 1.407 . S
C101 C102 1.365 . S
C102 H90 0.930 . S
C102 C101 1.365 . S
C102 C103 1.393 1_554 S
C103 C102 1.393 1_556 S
C103 C104 1.387 . S
C104 H91 0.930 . S
C104 C99 1.415 1_556 S
C104 C103 1.387 . S
H105 C113 0.930 . S
H106 C116 0.930 . S
H107 C118 0.930 . S
H108 C119 0.970 . S
H109 C119 0.970 . S
H110 C121 0.930 . S
H111 C123 0.930 . S
H112 C125 0.930 . S
C113 H105 0.930 . S
C113 C114 1.382 . S
C113 C115 1.426 . S
C114 C113 1.382 . S
C114 C118 1.389 . S
C115 C113 1.426 . S
C115 C116 1.375 . S
C115 C119 1.532 . S
C116 H106 0.930 . S
C116 C115 1.375 . S
C116 C117 1.416 . S
C117 C116 1.416 . S
C117 C118 1.371 . S
C118 H107 0.930 . S
C118 C114 1.389 . S
C118 C117 1.371 . S
C119 H108 0.970 . S
C119 H109 0.970 . S
C119 C115 1.532 . S
C119 C120 1.499 . S
C120 C119 1.499 . S
C120 C121 1.370 . S
C120 C125 1.415 . S
C121 H110 0.930 . S
C121 C120 1.370 . S
C121 C122 1.407 . S
C122 C121 1.407 . S
C122 C123 1.365 . S
C123 H111 0.930 . S
C123 C122 1.365 . S
C123 C124 1.393 . S
C124 C123 1.393 . S
C124 C125 1.387 . S
C125 H112 0.930 . S
C125 C120 1.415 . S
C125 C124 1.387 . S
In126 O127 2.294 . S
In126 O128 2.326 . S
In126 O132 2.266 . S
In126 O133 2.326 . S
In126 O134 2.266 . S
In126 O135 2.326 . S
In126 O137 2.294 . S
In126 O138 2.326 . S
O127 In126 2.294 . S
O127 C136 1.240 . S
O128 In126 2.326 . S
O128 C136 1.252 . S
C129 O132 1.252 . S
C129 O133 1.260 . S
C130 O137 1.240 . S
C130 O138 1.252 . S
C131 O134 1.252 . S
C131 O135 1.260 . S
O132 In126 2.266 . S
O132 C129 1.252 . S
O133 In126 2.326 . S
O133 C129 1.260 . S
O134 In126 2.266 . S
O134 C131 1.252 . S
O135 In126 2.326 . S
O135 C131 1.260 . S
C136 O127 1.240 . S
C136 O128 1.252 . S
O137 In126 2.294 . S
O137 C130 1.240 . S
O138 In126 2.326 . S
O138 C130 1.252 . S
In139 O140 2.294 . S
In139 O141 2.326 . S
In139 O145 2.266 . S
In139 O146 2.326 . S
In139 O147 2.266 . S
In139 O148 2.326 . S
In139 O150 2.294 . S
In139 O151 2.326 . S
O140 In139 2.294 . S
O140 C149 1.240 . S
O141 In139 2.326 . S
O141 C149 1.252 . S
C142 O145 1.252 . S
C142 O146 1.260 . S
C143 O150 1.240 . S
C143 O151 1.252 . S
C144 O147 1.252 . S
C144 O148 1.260 . S
O145 In139 2.266 . S
O145 C142 1.252 . S
O146 In139 2.326 . S
O146 C142 1.260 . S
O147 In139 2.266 . S
O147 C144 1.252 . S
O148 In139 2.326 . S
O148 C144 1.260 . S
C149 O140 1.240 . S
C149 O141 1.252 . S
O150 In139 2.294 . S
O150 C143 1.240 . S
O151 In139 2.326 . S
O151 C143 1.252 . S
In152 O153 2.294 . S
In152 O154 2.326 . S
In152 O158 2.266 . S
In152 O159 2.326 . S
In152 O160 2.266 . S
In152 O161 2.326 . S
In152 O163 2.294 . S
In152 O164 2.326 . S
O153 In152 2.294 . S
O153 C162 1.240 . S
O154 In152 2.326 . S
O154 C162 1.252 . S
C155 O158 1.252 . S
C155 O159 1.260 . S
C156 O163 1.240 . S
C156 O164 1.252 . S
C157 O160 1.252 . S
C157 O161 1.260 . S
O158 In152 2.266 . S
O158 C155 1.252 . S
O159 In152 2.326 . S
O159 C155 1.260 . S
O160 In152 2.266 . S
O160 C157 1.252 . S
O161 In152 2.326 . S
O161 C157 1.260 . S
C162 O153 1.240 . S
C162 O154 1.252 . S
O163 In152 2.294 . S
O163 C156 1.240 . S
O164 In152 2.326 . S
O164 C156 1.252 . S
In165 O166 2.294 . S
In165 O167 2.326 . S
In165 O171 2.266 1_556 S
In165 O172 2.326 . S
In165 O173 2.266 . S
In165 O174 2.326 . S
In165 O176 2.294 . S
In165 O177 2.326 . S
O166 In165 2.294 . S
O166 C175 1.240 . S
O167 In165 2.326 . S
O167 C175 1.252 . S
C168 O171 1.252 . S
C168 O172 1.260 1_554 S
C169 O176 1.240 . S
C169 O177 1.252 . S
C170 O173 1.252 . S
C170 O174 1.260 . S
O171 In165 2.266 1_554 S
O171 C168 1.252 . S
O172 In165 2.326 . S
O172 C168 1.260 1_556 S
O173 In165 2.266 . S
O173 C170 1.252 . S
O174 In165 2.326 . S
O174 C170 1.260 . S
C175 O166 1.240 . S
C175 O167 1.252 . S
O176 In165 2.294 . S
O176 C169 1.240 . S
O177 In165 2.326 . S
O177 C169 1.252 . S
In178 O179 2.294 . S
In178 O180 2.326 . S
In178 O184 2.266 . S
In178 O185 2.326 . S
In178 O186 2.266 1_554 S
In178 O187 2.326 . S
In178 O189 2.294 . S
In178 O190 2.326 . S
O179 In178 2.294 . S
O179 C188 1.240 . S
O180 In178 2.326 . S
O180 C188 1.252 . S
C181 O184 1.252 . S
C181 O185 1.260 . S
C182 O189 1.240 . S
C182 O190 1.252 . S
C183 O186 1.252 . S
C183 O187 1.260 1_556 S
O184 In178 2.266 . S
O184 C181 1.252 . S
O185 In178 2.326 . S
O185 C181 1.260 . S
O186 In178 2.266 1_556 S
O186 C183 1.252 . S
O187 In178 2.326 . S
O187 C183 1.260 1_554 S
C188 O179 1.240 . S
C188 O180 1.252 . S
O189 In178 2.294 . S
O189 C182 1.240 . S
O190 In178 2.326 . S
O190 C182 1.252 . S
In191 O192 2.294 . S
In191 O193 2.326 . S
In191 O197 2.266 . S
In191 O198 2.326 . S
In191 O199 2.266 . S
In191 O200 2.326 . S
In191 O202 2.294 . S
In191 O203 2.326 . S
O192 In191 2.294 . S
O192 C201 1.240 . S
O193 In191 2.326 . S
O193 C201 1.252 . S
C194 O197 1.252 . S
C194 O198 1.260 . S
C195 O202 1.240 . S
C195 O203 1.252 . S
C196 O199 1.252 . S
C196 O200 1.260 . S
O197 In191 2.266 . S
O197 C194 1.252 . S
O198 In191 2.326 . S
O198 C194 1.260 . S
O199 In191 2.266 . S
O199 C196 1.252 . S
O200 In191 2.326 . S
O200 C196 1.260 . S
C201 O192 1.240 . S
C201 O193 1.252 . S
O202 In191 2.294 . S
O202 C195 1.240 . S
O203 In191 2.326 . S
O203 C195 1.252 . S
C196 C19 1.562 . S
C40 C131 1.572 . S
C51 C149 1.555 . S
C72 C162 1.541 . S
C170 C103 1.564 . S
C114 C182 1.548 . S
C30 C144 1.571 . S
C61 C157 1.566 . S
C82 C175 1.551 . S
C181 C93 1.559 . S
C201 C124 1.551 . S
C136 C9 1.546 . S
C17 C142 1.598 . S
C38 C155 1.595 . S
C169 C54 1.595 . S
C75 C183 1.610 . S
C195 C101 1.580 . S
C130 C117 1.590 . S
C194 C33 1.608 . S
C59 C129 1.591 . S
C143 C80 1.587 . S
C96 C156 1.591 . S
C122 C168 1.594 . S
C12 C188 1.598 . S
