# Generated by pormake.
# Topology tsx, (6,3)-cn, num edge types: 1
# Building blocks:
#     Node 0, Type 0, BuildingBlock: JUFBIX_clean_sbu_0, # of connection points: 6
#     Node 1, Type 0, BuildingBlock: JUFBIX_clean_sbu_0, # of connection points: 6
#     Node 2, Type 1, BuildingBlock: BETDIP_clean_linker_0, # of connection points: 3
#     Node 3, Type 1, BuildingBlock: BETDIP_clean_linker_0, # of connection points: 3
#     Node 4, Type 1, BuildingBlock: BETDIP_clean_linker_0, # of connection points: 3
#     Node 5, Type 1, BuildingBlock: BETDIP_clean_linker_0, # of connection points: 3
#     Edge 6, Type (0, 1), None
#     Edge 7, Type (0, 1), None
#     Edge 8, Type (0, 1), None
#     Edge 9, Type (0, 1), None
#     Edge 10, Type (0, 1), None
#     Edge 11, Type (0, 1), None
#     Edge 12, Type (0, 1), None
#     Edge 13, Type (0, 1), None
#     Edge 14, Type (0, 1), None
#     Edge 15, Type (0, 1), None
#     Edge 16, Type (0, 1), None
#     Edge 17, Type (0, 1), None
# Relax obj value: 0.106
# Max RMSD: 0.149
# Mean RMSD: 0.125
data_MOF--net-tsx--node1-JUFBIX_clean_sbu_0--node2-BETDIP_clean_linker_0--edge1-none
_symmetry_space_group_name_H-M    P1
_symmetry_Int_Tables_number       1
_symmetry_cell_setting            triclinic
loop_
_symmetry_equiv_pos_as_xyz
'x, y, z'
_cell_length_a     10.25521
_cell_length_b     10.056218
_cell_length_c     16.206096
_cell_angle_alpha  90.355551
_cell_angle_beta   105.14612
_cell_angle_gamma 110.9598
loop_
_atom_site_label
_atom_site_type_symbol
_atom_site_fract_x
_atom_site_fract_y
_atom_site_fract_z
_atom_type_partial_charge
Co0 Co 0.12417 1.04504 -0.05325 0.0
C1 C 0.02255 0.1069 0.78059 0.0
Co2 Co 0.97049 0.15815 -0.06447 0.0
C3 C 0.23926 0.84635 0.8946 0.0
C4 C 0.3885 0.99033 0.00507 0.0
N5 N 0.25281 0.95233 -0.04794 0.0
N6 N 0.36177 0.81821 0.90907 0.0
C7 C 0.45646 0.91041 -0.02247 0.0
H8 H 0.14654 0.8005 0.8385 0.0
H9 H 0.43858 1.07818 0.05599 0.0
C10 C 0.06977 0.08699 0.09829 0.0
N11 N 0.83019 0.24377 0.92265 0.0
C12 C 0.77421 0.30211 0.85326 0.0
C13 C 0.74582 0.23828 -0.02518 0.0
N14 N 0.65717 0.33088 0.85929 0.0
C15 C 0.64125 0.29205 -0.06319 0.0
C16 C 0.84211 0.8612 0.92258 0.0
O17 O 0.1382 1.03182 0.0632 0.0
O18 O 0.99408 0.15255 0.0543 0.0
O19 O 0.81797 0.97656 0.91882 0.0
O20 O 0.96705 0.86397 0.92298 0.0
O21 O 0.94896 0.15736 0.81412 0.0
H22 H 0.75613 0.19384 0.03567 0.0
H23 H 0.8171 0.32073 0.79843 0.0
O24 O 0.10963 1.05705 0.82785 0.0
O25 O 0.2807 0.22909 -0.02199 0.0
O26 O 0.12798 0.34152 -0.03802 0.0
C27 C 0.25795 0.34443 -0.01327 0.0
H28 H 0.5705 0.92771 0.00153 0.0
H29 H 0.56049 0.30197 -0.03477 0.0
Co30 Co 0.62417 0.54505 0.44675 0.0
C31 C 0.52255 0.6069 0.28059 0.0
Co32 Co 0.47049 0.65816 0.43553 0.0
C33 C 0.73926 0.34635 0.3946 0.0
C34 C 0.8885 0.49034 0.50506 0.0
N35 N 0.75281 0.45233 0.45206 0.0
N36 N 0.86177 0.31821 0.40907 0.0
C37 C 0.95646 0.41042 0.47752 0.0
H38 H 0.64653 0.30049 0.3385 0.0
H39 H 0.93858 0.5782 0.55598 0.0
C40 C 0.56977 0.587 0.59829 0.0
N41 N 0.33019 0.74378 0.42266 0.0
C42 C 0.2742 0.80211 0.35326 0.0
C43 C 0.24584 0.73831 0.47483 0.0
N44 N 0.15717 0.83089 0.3593 0.0
C45 C 0.14127 0.79207 0.43682 0.0
C46 C 0.34211 0.36121 0.42258 0.0
O47 O 0.63821 0.53183 0.5632 0.0
O48 O 0.49409 0.65256 0.55431 0.0
O49 O 0.31797 0.47657 0.41882 0.0
O50 O 0.46705 0.36398 0.42298 0.0
O51 O 0.44896 0.65736 0.31412 0.0
H52 H 0.25616 0.69387 0.53568 0.0
H53 H 0.31708 0.82072 0.29843 0.0
O54 O 0.60963 0.55706 0.32785 0.0
O55 O 0.7807 0.7291 0.47801 0.0
O56 O 0.62798 0.84152 0.46198 0.0
C57 C 0.75795 0.84443 0.48673 0.0
H58 H 0.07051 0.42772 0.50151 0.0
H59 H 0.06052 0.80201 0.46525 0.0
H60 H 0.90361 0.85961 0.36191 0.0
H61 H 0.91662 0.17105 0.18405 0.0
H62 H 0.20326 0.94001 0.20967 0.0
H63 H 0.00451 0.30906 0.33423 0.0
C64 C 0.90233 0.24876 0.34787 0.0
C65 C 0.95366 0.91992 0.31637 0.0
C66 C 0.07465 0.90036 0.3002 0.0
C67 C 0.91016 1.03113 0.28243 0.0
C68 C 0.95766 0.09239 0.21404 0.0
C69 C 0.05361 1.05055 0.18325 0.0
C70 C 0.11965 0.96197 0.22963 0.0
N71 N 0.83998 0.097 0.32532 0.0
H72 H 0.9928 1.04449 0.45216 0.0
H73 H 0.20786 0.27264 0.69783 0.0
H74 H 0.79774 0.91963 0.65565 0.0
H75 H 0.22599 0.13203 0.4306 0.0
C76 C 0.24544 0.23994 0.45502 0.0
C77 C 0.99248 1.05806 0.5156 0.0
C78 C 0.87628 0.96963 0.54376 0.0
C79 C 0.11078 0.16881 0.56901 0.0
C80 C 0.1159 0.18903 0.65537 0.0
C81 C 0.00392 0.09931 0.68727 0.0
C82 C 0.88267 0.99126 0.63087 0.0
N83 N 0.22136 0.26447 0.53597 0.0
H84 H 0.4036 0.3596 0.8619 0.0
H85 H 0.41664 0.67107 0.68406 0.0
H86 H 0.70327 0.44001 0.70967 0.0
H87 H 0.50453 0.80906 0.83424 0.0
C88 C 0.40235 0.74876 0.84788 0.0
C89 C 0.45366 0.41992 0.81636 0.0
C90 C 0.57465 0.40036 0.8002 0.0
C91 C 0.41016 0.53114 0.78243 0.0
C92 C 0.45767 0.5924 0.71405 0.0
C93 C 0.55362 0.55056 0.68325 0.0
C94 C 0.61966 0.46197 0.72963 0.0
N95 N 0.33999 0.597 0.82533 0.0
H96 H 0.4928 0.54447 -0.04783 0.0
H97 H 0.70786 0.77264 0.19783 0.0
H98 H 0.29773 0.41964 0.15565 0.0
H99 H 0.72599 0.63202 -0.0694 0.0
C100 C 0.74544 0.73993 -0.04498 0.0
C101 C 0.49248 0.55805 0.0156 0.0
C102 C 0.37628 0.46963 0.04376 0.0
C103 C 0.61078 0.6688 0.06901 0.0
C104 C 0.61589 0.68903 0.15537 0.0
C105 C 0.50391 0.59932 0.18727 0.0
C106 C 0.38266 0.49126 0.13087 0.0
N107 N 0.72136 0.76446 0.03597 0.0
loop_
_geom_bond_atom_site_label_1
_geom_bond_atom_site_label_2
_geom_bond_distance
_geom_bond_site_symmetry_2
_ccdc_geom_bond_type
Co0 N5 2.057 1_554 S
Co0 O17 2.021 . S
Co0 O20 2.062 1_455 S
Co0 O24 2.117 1_554 S
Co0 O25 2.020 1_565 S
C1 O21 1.259 . S
C1 O24 1.258 1_645 S
Co2 N11 2.057 1_556 S
Co2 O18 2.117 1_656 S
Co2 O19 2.020 1_545 S
Co2 O21 2.021 . S
Co2 O26 2.062 1_656 S
C3 N5 1.316 1_554 S
C3 N6 1.347 . S
C3 H8 0.931 . S
C4 N5 1.375 . S
C4 C7 1.350 . S
C4 H9 0.930 . S
N5 Co0 2.057 1_556 S
N5 C3 1.316 1_556 S
N5 C4 1.375 . S
N6 C3 1.347 . S
N6 C7 1.373 1_554 S
C7 C4 1.350 . S
C7 N6 1.373 1_556 S
C7 H28 0.931 . S
H8 C3 0.931 . S
H9 C4 0.930 . S
C10 O17 1.259 1_545 S
C10 O18 1.258 . S
N11 Co2 2.057 1_554 S
N11 C12 1.316 1_554 S
N11 C13 1.375 . S
C12 N11 1.316 1_556 S
C12 N14 1.347 . S
C12 H23 0.931 . S
C13 N11 1.375 . S
C13 C15 1.350 . S
C13 H22 0.930 . S
N14 C12 1.347 . S
N14 C15 1.373 1_556 S
C15 C13 1.350 . S
C15 N14 1.373 1_554 S
C15 H29 0.931 . S
C16 O19 1.256 . S
C16 O20 1.255 1_556 S
O17 Co0 2.021 . S
O17 C10 1.259 1_565 S
O18 Co2 2.117 1_454 S
O18 C10 1.258 . S
O19 Co2 2.020 1_565 S
O19 C16 1.256 . S
O20 Co0 2.062 1_655 S
O20 C16 1.255 1_554 S
O21 C1 1.259 . S
O21 Co2 2.021 . S
H22 C13 0.930 . S
H23 C12 0.931 . S
O24 Co0 2.117 1_556 S
O24 C1 1.258 1_465 S
O25 Co0 2.020 1_545 S
O25 C27 1.256 . S
O26 Co2 2.062 1_454 S
O26 C27 1.255 . S
C27 O25 1.256 . S
C27 O26 1.255 . S
H28 C7 0.931 . S
H29 C15 0.931 . S
Co30 N35 2.057 . S
Co30 O47 2.021 . S
Co30 O50 2.062 . S
Co30 O54 2.117 . S
Co30 O55 2.020 . S
C31 O51 1.259 . S
C31 O54 1.258 . S
Co32 N41 2.057 . S
Co32 O48 2.117 . S
Co32 O49 2.020 . S
Co32 O51 2.021 . S
Co32 O56 2.062 . S
C33 N35 1.316 . S
C33 N36 1.347 . S
C33 H38 0.931 . S
C34 N35 1.375 . S
C34 C37 1.350 . S
C34 H39 0.930 . S
N35 Co30 2.057 . S
N35 C33 1.316 . S
N35 C34 1.375 . S
N36 C33 1.347 . S
N36 C37 1.373 . S
C37 C34 1.350 . S
C37 N36 1.373 . S
C37 H58 0.931 . S
H38 C33 0.931 . S
H39 C34 0.930 . S
C40 O47 1.259 . S
C40 O48 1.258 . S
N41 Co32 2.057 . S
N41 C42 1.316 . S
N41 C43 1.375 . S
C42 N41 1.316 . S
C42 N44 1.347 . S
C42 H53 0.931 . S
C43 N41 1.375 . S
C43 C45 1.350 . S
C43 H52 0.930 . S
N44 C42 1.347 . S
N44 C45 1.373 . S
C45 C43 1.350 . S
C45 N44 1.373 . S
C45 H59 0.931 . S
C46 O49 1.256 . S
C46 O50 1.255 . S
O47 Co30 2.021 . S
O47 C40 1.259 . S
O48 Co32 2.117 . S
O48 C40 1.258 . S
O49 Co32 2.020 . S
O49 C46 1.256 . S
O50 Co30 2.062 . S
O50 C46 1.255 . S
O51 C31 1.259 . S
O51 Co32 2.021 . S
H52 C43 0.930 . S
H53 C42 0.931 . S
O54 Co30 2.117 . S
O54 C31 1.258 . S
O55 Co30 2.020 . S
O55 C57 1.256 . S
O56 Co32 2.062 . S
O56 C57 1.255 . S
C57 O55 1.256 . S
C57 O56 1.255 . S
H58 C37 0.931 . S
H59 C45 0.931 . S
H60 C65 0.930 . S
H61 C68 0.930 1_655 S
H62 C70 0.930 . S
H63 C64 1.016 . S
C64 H63 1.016 . S
C64 N71 1.286 . S
C65 H60 0.930 . S
C65 C66 1.397 . S
C65 C67 1.361 1_565 S
C66 C65 1.397 . S
C66 C70 1.390 . S
C67 C65 1.361 1_545 S
C67 C68 1.393 . S
C67 N71 1.413 1_455 S
C68 H61 0.930 1_455 S
C68 C67 1.393 . S
C68 C69 1.399 1_545 S
C69 C68 1.399 1_565 S
C69 C70 1.381 . S
C70 H62 0.930 . S
C70 C66 1.390 . S
C70 C69 1.381 . S
N71 C64 1.286 . S
N71 C67 1.413 1_655 S
H72 C77 0.930 . S
H73 C80 0.930 . S
H74 C82 0.930 . S
H75 C76 1.016 . S
C76 H75 1.016 . S
C76 N83 1.286 . S
C77 H72 0.930 . S
C77 C78 1.397 . S
C77 C79 1.361 1_665 S
C78 C77 1.397 . S
C78 C82 1.390 . S
C79 C77 1.361 1_445 S
C79 C80 1.393 . S
C79 N83 1.413 . S
C80 H73 0.930 . S
C80 C79 1.393 . S
C80 C81 1.399 1_445 S
C81 C80 1.399 1_665 S
C81 C82 1.381 . S
C82 H74 0.930 . S
C82 C78 1.390 . S
C82 C81 1.381 . S
N83 C76 1.286 . S
N83 C79 1.413 . S
H84 C89 0.930 . S
H85 C92 0.930 . S
H86 C94 0.930 . S
H87 C88 1.016 1_556 S
C88 H87 1.016 1_554 S
C88 N95 1.286 . S
C89 H84 0.930 . S
C89 C90 1.397 1_554 S
C89 C91 1.361 1_554 S
C90 C89 1.397 1_556 S
C90 C94 1.390 . S
C91 C89 1.361 1_556 S
C91 C92 1.393 . S
C91 N95 1.413 1_556 S
C92 H85 0.930 . S
C92 C91 1.393 . S
C92 C93 1.399 . S
C93 C92 1.399 . S
C93 C94 1.381 . S
C94 H86 0.930 . S
C94 C90 1.390 . S
C94 C93 1.381 . S
N95 C88 1.286 . S
N95 C91 1.413 1_554 S
H96 C101 0.930 . S
H97 C104 0.930 . S
H98 C106 0.930 . S
H99 C100 1.016 . S
C100 H99 1.016 . S
C100 N107 1.286 1_554 S
C101 H96 0.930 . S
C101 C102 1.397 1_556 S
C101 C103 1.361 1_556 S
C102 C101 1.397 1_554 S
C102 C106 1.390 . S
C103 C101 1.361 1_554 S
C103 C104 1.393 . S
C103 N107 1.413 1_554 S
C104 H97 0.930 . S
C104 C103 1.393 . S
C104 C105 1.399 . S
C105 C104 1.399 . S
C105 C106 1.381 . S
C106 H98 0.930 . S
C106 C102 1.390 . S
C106 C105 1.381 . S
N107 C100 1.286 1_556 S
N107 C103 1.413 1_556 S
C102 C27 1.501 . S
N6 C88 1.323 . S
C16 C100 1.459 1_556 S
N14 C90 1.467 . S
C57 C78 1.501 . S
N36 C64 1.322 . S
C76 C46 1.459 . S
C66 N44 1.468 . S
C10 C69 1.488 1_545 S
C1 C81 1.656 1_545 S
C93 C40 1.488 . S
C31 C105 1.656 . S
