# Generated by pormake.
# Topology pth, (4,4)-cn, num edge types: 1
# Building blocks:
#     Node 0, Type 0, BuildingBlock: AZAVOO_clean_sbu_0, # of connection points: 4
#     Node 1, Type 0, BuildingBlock: AZAVOO_clean_sbu_0, # of connection points: 4
#     Node 2, Type 0, BuildingBlock: AZAVOO_clean_sbu_0, # of connection points: 4
#     Node 3, Type 1, BuildingBlock: MUDLON_clean_linker_0, # of connection points: 4
#     Node 4, Type 1, BuildingBlock: MUDLON_clean_linker_0, # of connection points: 4
#     Node 5, Type 1, BuildingBlock: MUDLON_clean_linker_0, # of connection points: 4
#     Edge 6, Type (0, 1), None
#     Edge 7, Type (0, 1), None
#     Edge 8, Type (0, 1), None
#     Edge 9, Type (0, 1), None
#     Edge 10, Type (0, 1), None
#     Edge 11, Type (0, 1), None
#     Edge 12, Type (0, 1), None
#     Edge 13, Type (0, 1), None
#     Edge 14, Type (0, 1), None
#     Edge 15, Type (0, 1), None
#     Edge 16, Type (0, 1), None
#     Edge 17, Type (0, 1), None
# Relax obj value: 0.083
# Max RMSD: 0.220
# Mean RMSD: 0.135
data_MOF--net-pth--node1-AZAVOO_clean_sbu_0--node2-MUDLON_clean_linker_0--edge1-none
_symmetry_space_group_name_H-M    P1
_symmetry_Int_Tables_number       1
_symmetry_cell_setting            triclinic
loop_
_symmetry_equiv_pos_as_xyz
'x, y, z'
_cell_length_a     19.925819
_cell_length_b     19.935117
_cell_length_c     38.867781
_cell_angle_alpha  91.721304
_cell_angle_beta   94.960913
_cell_angle_gamma 121.67343
loop_
_atom_site_label
_atom_site_type_symbol
_atom_site_fract_x
_atom_site_fract_y
_atom_site_fract_z
_atom_type_partial_charge
Mg0 Mg 0.14909 0.09786 0.04981 0.0
O1 O 0.04347 0.00862 0.01094 0.0
O2 O 0.00333 0.07211 0.97699 0.0
Mg3 Mg 0.08064 0.20385 0.99645 0.0
C4 C -0.00154 0.00847 0.98549 0.0
C5 C 0.14146 0.00363 0.11396 0.0
O6 O 0.18273 0.07598 0.1292 0.0
O7 O 0.07366 0.1205 0.08276 0.0
O8 O 0.03341 0.18559 0.04953 0.0
O9 O 0.22689 0.11155 0.00834 0.0
O10 O 0.17722 0.18624 0.01669 0.0
C11 C 0.03634 0.15598 0.07788 0.0
C12 C 0.21602 0.16699 0.99835 0.0
O13 O 0.12545 0.99378 0.0811 0.0
Mg14 Mg 0.88993 0.98571 0.37119 0.0
O15 O 0.01174 0.03573 0.40344 0.0
O16 O 0.05171 0.15757 0.4253 0.0
Mg17 Mg 0.95609 0.18467 0.40869 0.0
C18 C 0.06215 0.09987 0.42198 0.0
C19 C 0.86606 0.87369 0.31072 0.0
O20 O 0.81541 0.89582 0.30292 0.0
O21 O 0.94026 0.06584 0.32833 0.0
O22 O 0.97137 0.18446 0.35081 0.0
O23 O 0.83139 0.93774 0.41937 0.0
O24 O 0.86725 0.05565 0.40278 0.0
C25 C 0.96382 0.13816 0.32533 0.0
C26 C 0.83868 0.00566 0.42559 0.0
O27 O 0.90527 0.89535 0.3408 0.0
Mg28 Mg 0.98433 0.92759 0.7001 0.0
O29 O 0.05577 0.03624 0.73965 0.0
O30 O 0.96873 0.04229 0.77019 0.0
Mg31 Mg 0.84369 0.9367 0.75154 0.0
C32 C 0.0398 0.0692 0.76356 0.0
C33 C 0.08121 0.9398 0.63953 0.0
O34 O 0.01988 0.86726 0.63211 0.0
O35 O 0.93497 0.98875 0.6682 0.0
O36 O 0.84302 0.98501 0.69856 0.0
O37 O 0.00029 0.85634 0.73994 0.0
O38 O 0.89874 0.87279 0.73347 0.0
C39 C 0.87976 0.00188 0.67174 0.0
C40 C 0.93671 0.8469 0.75117 0.0
O41 O 0.08737 0.97805 0.66761 0.0
H42 H 0.82869 0.77004 0.19724 0.0
N43 N 0.95335 0.75514 0.19769 0.0
H44 H 0.78925 0.81838 0.24528 0.0
H45 H 0.02568 0.79573 0.26448 0.0
H46 H 0.987 0.84452 0.31301 0.0
H47 H 0.09616 0.89087 0.21918 0.0
H48 H 0.17629 0.99696 0.18309 0.0
H49 H 0.93129 0.75259 0.12916 0.0
H50 H 0.01226 0.85676 0.09265 0.0
H51 H 0.83335 0.61351 0.17221 0.0
H52 H 0.07246 0.73532 0.22375 0.0
H53 H 0.82854 0.48841 0.17079 0.0
H54 H 0.06788 0.6097 0.22365 0.0
H55 H 0.85708 0.09141 0.21067 0.0
H56 H 0.87725 0.04653 0.26614 0.0
H57 H 0.05047 0.28848 0.30543 0.0
H58 H 0.0335 0.33263 0.24927 0.0
H59 H 0.06412 0.24155 0.1928 0.0
H60 H 0.10695 0.19997 0.144 0.0
H61 H 0.89972 0.1567 0.07819 0.0
H62 H 0.85392 0.1937 0.12802 0.0
H63 H 0.81301 0.2668 0.20565 0.0
H64 H 0.82192 0.39391 0.20876 0.0
H65 H 0.06435 0.50961 0.18509 0.0
N66 N 0.92498 0.2386 0.193 0.0
H67 H 0.05544 0.38221 0.18331 0.0
C68 C 0.93007 0.77983 0.22722 0.0
C69 C 0.86293 0.78557 0.22255 0.0
C70 C 0.84052 0.81301 0.2501 0.0
C71 C 0.88501 0.83543 0.28306 0.0
C72 C 0.9512 0.82738 0.28802 0.0
C73 C 0.97363 0.79985 0.26029 0.0
C74 C 0.00673 0.81456 0.17684 0.0
C75 C 0.07773 0.8829 0.1916 0.0
C76 C 0.12371 0.94332 0.17089 0.0
C77 C 0.10046 0.93552 0.13502 0.0
C78 C 0.03209 0.86474 0.12014 0.0
C79 C 0.9855 0.80526 0.14093 0.0
C80 C 0.95274 0.68289 0.19827 0.0
C81 C 0.8845 0.61269 0.18354 0.0
C82 C 0.88187 0.54137 0.18296 0.0
C83 C 0.94763 0.53874 0.19735 0.0
C84 C 0.01643 0.60967 0.2121 0.0
C85 C 0.019 0.68131 0.21251 0.0
C86 C 0.94145 0.21522 0.22596 0.0
C87 C 0.90015 0.13457 0.2311 0.0
C88 C 0.91259 0.10909 0.26267 0.0
C89 C 0.96538 0.16421 0.29015 0.0
C90 C 0.00936 0.24485 0.28467 0.0
C91 C -0.0013 0.27014 0.25263 0.0
C92 C 0.95479 0.21943 0.16416 0.0
C93 C 0.02697 0.22191 0.16813 0.0
C94 C 0.05123 0.19769 0.14027 0.0
C95 C 0.00568 0.17376 0.10762 0.0
C96 C 0.93513 0.17389 0.10328 0.0
C97 C 0.90937 0.19547 0.13152 0.0
C98 C 0.9328 0.31484 0.19379 0.0
C99 C 0.86788 0.31969 0.20107 0.0
C100 C 0.87312 0.39234 0.20268 0.0
C101 C 0.94368 0.46203 0.19685 0.0
C102 C 0.00934 0.45727 0.18994 0.0
C103 C 0.00409 0.38437 0.18851 0.0
H104 H 0.92328 0.13648 0.57277 0.0
N105 N 0.7775 0.10492 0.55301 0.0
H106 H 0.96818 0.09254 0.62279 0.0
H107 H 0.68849 0.02277 0.6055 0.0
H108 H 0.73397 0.98143 0.65552 0.0
H109 H 0.74958 0.95738 0.53457 0.0
H110 H 0.77776 0.91597 0.48027 0.0
H111 H 0.83071 0.18782 0.49924 0.0
H112 H 0.85379 0.14595 0.44457 0.0
H113 H 0.76249 0.22922 0.55763 0.0
H114 H 0.62688 0.97502 0.54075 0.0
H115 H 0.64052 0.2307 0.54898 0.0
H116 H 0.50361 0.97476 0.53417 0.0
H117 H 0.25153 0.166 0.58776 0.0
H118 H 0.17343 0.09877 0.63472 0.0
H119 H 0.10869 0.87325 0.58415 0.0
H120 H 0.18978 0.94156 0.53809 0.0
H121 H 0.17074 0.97671 0.48361 0.0
H122 H 0.08346 0.9777 0.43604 0.0
H123 H 0.18656 0.228 0.4617 0.0
H124 H 0.27404 0.22612 0.50931 0.0
H125 H 0.40743 0.20402 0.56933 0.0
H126 H 0.53006 0.20392 0.57507 0.0
H127 H 0.42261 0.00274 0.49829 0.0
N128 N 0.27125 0.10083 0.53213 0.0
H129 H 0.29872 1.00066 0.49462 0.0
C130 C 0.80206 0.0818 0.58436 0.0
C131 C 0.88149 0.10251 0.59069 0.0
C132 C 0.90714 0.07749 0.61927 0.0
C133 C 0.8544 0.0332 0.64289 0.0
C134 C 0.77594 0.01557 0.63769 0.0
C135 C 0.7497 0.03897 0.60864 0.0
C136 C 0.79013 0.07665 0.52111 0.0
C137 C 0.77349 0.999 0.51511 0.0
C138 C 0.78941 0.97536 0.4841 0.0
C139 C 0.82006 0.02828 0.45838 0.0
C140 C 0.83292 0.10438 0.46409 0.0
C141 C 0.81907 0.12845 0.49523 0.0
C142 C 0.70355 0.10231 0.55044 0.0
C143 C 0.70593 0.17364 0.55273 0.0
C144 C 0.63597 0.17412 0.54788 0.0
C145 C 0.56162 0.10276 0.54109 0.0
C146 C 0.55951 0.03098 0.53881 0.0
C147 C 0.62983 0.03079 0.54301 0.0
C148 C 0.22479 0.05879 0.55914 0.0
C149 C 0.22069 0.10212 0.587 0.0
C150 C 0.17664 0.06362 0.61388 0.0
C151 C 0.13479 0.98064 0.61307 0.0
C152 C 0.13999 0.93721 0.58536 0.0
C153 C 0.18552 0.97606 0.55881 0.0
C154 C 0.22876 0.10155 0.50032 0.0
C155 C 0.17623 0.03224 0.47856 0.0
C156 C 0.12623 0.03297 0.45113 0.0
C157 C 0.12721 0.10278 0.44515 0.0
C158 C 0.18374 0.17304 0.46557 0.0
C159 C 0.23386 0.17222 0.49282 0.0
C160 C 0.34449 0.10337 0.53129 0.0
C161 C 0.41096 0.16056 0.5535 0.0
C162 C 0.48113 0.16047 0.55658 0.0
C163 C 0.48689 0.1035 0.53703 0.0
C164 C 0.42028 0.04684 0.51417 0.0
C165 C 0.34943 0.04622 0.5116 0.0
H166 H 0.83325 0.87014 0.88402 0.0
N167 N 0.84675 0.73946 0.88474 0.0
H168 H 0.89711 0.98344 0.92723 0.0
H169 H 0.92371 0.75309 0.94644 0.0
H170 H 0.98704 0.86594 0.99032 0.0
H171 H 0.97941 0.77069 0.85908 0.0
H172 H 0.01897 0.81551 0.80186 0.0
H173 H 0.76213 0.76656 0.83389 0.0
H174 H 0.79952 0.8084 0.77703 0.0
H175 H 0.71608 0.74128 0.9022 0.0
H176 H 0.7927 0.58975 0.86411 0.0
H177 H 0.57979 0.63071 0.89488 0.0
H178 H 0.65486 0.47907 0.85448 0.0
H179 H 0.25394 0.35698 0.92367 0.0
H180 H 0.22968 0.30293 0.97992 0.0
H181 H 0.25103 0.10989 0.94164 0.0
H182 H 0.27553 0.16512 0.88509 0.0
H183 H 0.29709 0.20603 0.82086 0.0
H184 H 0.19451 0.10872 0.77582 0.0
H185 H 0.03368 0.17869 0.8046 0.0
H186 H 0.13704 0.27641 0.84898 0.0
H187 H 0.33446 0.44506 0.85033 0.0
H188 H 0.47359 0.5515 0.85254 0.0
H189 H 0.54498 0.38727 0.88014 0.0
N190 N 0.27864 0.29882 0.86758 0.0
H191 H 0.40594 0.2808 0.87533 0.0
C192 C 0.87516 0.80336 0.91163 0.0
C193 C 0.86619 0.86828 0.90718 0.0
C194 C 0.90241 0.93312 0.93216 0.0
C195 C 0.94805 0.93448 0.96219 0.0
C196 C 0.95265 0.86732 0.9675 0.0
C197 C 0.91671 0.80271 0.94243 0.0
C198 C 0.86814 0.76535 0.85086 0.0
C199 C 0.94026 0.77914 0.84117 0.0
C200 C 0.96247 0.80428 0.8085 0.0
C201 C 0.91262 0.81601 0.785 0.0
C202 C 0.8399 0.80107 0.79464 0.0
C203 C 0.81813 0.77664 0.82722 0.0
C204 C 0.76564 0.67388 0.88415 0.0
C205 C 0.70408 0.68422 0.89248 0.0
C206 C 0.62528 0.6207 0.88763 0.0
C207 C 0.60559 0.54571 0.87359 0.0
C208 C 0.66739 0.5354 0.86572 0.0
C209 C 0.74634 0.59863 0.87119 0.0
C210 C 0.2657 0.26489 0.90032 0.0
C211 C 0.25351 0.30316 0.9275 0.0
C212 C 0.23979 0.27212 0.95954 0.0
C213 C 0.23815 0.2019 0.96511 0.0
C214 C 0.25239 0.16426 0.9381 0.0
C215 C 0.26584 0.19544 0.90579 0.0
C216 C 0.22437 0.24846 0.8381 0.0
C217 C 0.24041 0.20157 0.81684 0.0
C218 C 0.18171 0.14612 0.79109 0.0
C219 C 0.1058 0.13583 0.78673 0.0
C220 C 0.09132 0.18494 0.80733 0.0
C221 C 0.15021 0.24086 0.83261 0.0
C222 C 0.35987 0.35556 0.86303 0.0
C223 C 0.38041 0.43199 0.85593 0.0
C224 C 0.46004 0.49292 0.85784 0.0
C225 C 0.52103 0.47881 0.86751 0.0
C226 C 0.50005 0.40074 0.87259 0.0
C227 C 0.42023 0.33953 0.87002 0.0
loop_
_geom_bond_atom_site_label_1
_geom_bond_atom_site_label_2
_geom_bond_distance
_geom_bond_site_symmetry_2
_ccdc_geom_bond_type
Mg0 O1 2.028 1_445 S
Mg0 O7 1.986 . S
Mg0 O9 2.114 . S
Mg0 O10 2.273 . S
Mg0 O13 2.010 1_545 S
O1 Mg0 2.028 1_665 S
O1 C4 1.250 1_554 S
O2 Mg3 2.028 1_655 S
O2 C4 1.248 1_545 S
Mg3 O2 2.028 1_455 S
Mg3 O8 2.032 1_456 S
Mg3 O10 2.073 1_556 S
C4 O1 1.250 1_556 S
C4 O2 1.248 1_565 S
C5 O6 1.264 . S
C5 O13 1.249 . S
O6 C5 1.264 . S
O7 Mg0 1.986 . S
O7 C11 1.245 . S
O8 Mg3 2.032 1_654 S
O8 C11 1.260 1_655 S
O9 Mg0 2.114 . S
O9 C12 1.252 1_554 S
O10 Mg0 2.273 . S
O10 Mg3 2.073 1_554 S
O10 C12 1.265 1_554 S
C11 O7 1.245 . S
C11 O8 1.260 1_455 S
C12 O9 1.252 1_556 S
C12 O10 1.265 1_556 S
O13 Mg0 2.010 1_565 S
O13 C5 1.249 . S
Mg14 O15 2.028 1_665 S
Mg14 O21 1.986 1_665 S
Mg14 O23 2.114 . S
Mg14 O24 2.251 1_565 S
Mg14 O27 2.010 . S
O15 Mg14 2.028 1_445 S
O15 C18 1.250 . S
O16 Mg17 2.028 . S
O16 C18 1.248 . S
Mg17 O16 2.028 . S
Mg17 O22 2.032 . S
Mg17 O24 2.079 1_455 S
C18 O15 1.250 . S
C18 O16 1.248 . S
C19 O20 1.264 . S
C19 O27 1.249 . S
O20 C19 1.264 . S
O21 Mg14 1.986 1_445 S
O21 C25 1.246 . S
O22 Mg17 2.032 . S
O22 C25 1.259 . S
O23 Mg14 2.114 . S
O23 C26 1.252 . S
O24 Mg14 2.251 1_545 S
O24 Mg17 2.079 1_655 S
O24 C26 1.273 1_545 S
C25 O21 1.246 . S
C25 O22 1.259 . S
C26 O23 1.252 . S
C26 O24 1.273 1_565 S
O27 Mg14 2.010 . S
O27 C19 1.249 . S
Mg28 O29 2.028 1_665 S
Mg28 O35 1.986 1_565 S
Mg28 O37 2.114 . S
Mg28 O38 2.251 . S
Mg28 O41 2.010 1_655 S
O29 Mg28 2.028 1_445 S
O29 C32 1.250 . S
O30 Mg31 2.028 1_455 S
O30 C32 1.248 . S
Mg31 O30 2.028 1_655 S
Mg31 O36 2.032 . S
Mg31 O38 2.079 1_545 S
C32 O29 1.250 . S
C32 O30 1.248 . S
C33 O34 1.264 . S
C33 O41 1.249 . S
O34 C33 1.264 . S
O35 Mg28 1.986 1_545 S
O35 C39 1.246 . S
O36 Mg31 2.032 . S
O36 C39 1.259 . S
O37 Mg28 2.114 . S
O37 C40 1.252 . S
O38 Mg28 2.251 . S
O38 Mg31 2.079 1_565 S
O38 C40 1.273 . S
C39 O35 1.246 . S
C39 O36 1.259 . S
C40 O37 1.252 . S
C40 O38 1.273 . S
O41 Mg28 2.010 1_455 S
O41 C33 1.249 . S
H42 C69 0.929 . S
N43 C68 1.433 . S
N43 C74 1.434 . S
N43 C80 1.423 . S
H44 C70 0.930 . S
H45 C73 0.931 . S
H46 C72 0.929 . S
H47 C75 0.930 . S
H48 C76 0.932 . S
H49 C79 0.929 . S
H50 C78 0.931 . S
H51 C81 0.929 . S
H52 C85 0.932 . S
H53 C82 0.931 . S
H54 C84 0.929 . S
H55 C87 0.929 . S
H56 C88 0.930 . S
H57 C90 0.929 . S
H58 C91 0.931 . S
H59 C93 0.930 . S
H60 C94 0.932 . S
H61 C96 0.931 . S
H62 C97 0.929 . S
H63 C99 0.929 . S
H64 C100 0.931 . S
H65 C102 0.929 . S
N66 C86 1.433 . S
N66 C92 1.437 . S
N66 C98 1.423 . S
H67 C103 0.932 . S
C68 N43 1.433 . S
C68 C69 1.363 . S
C68 C73 1.370 1_655 S
C69 H42 0.929 . S
C69 C68 1.363 . S
C69 C70 1.385 . S
C70 H44 0.930 . S
C70 C69 1.385 . S
C70 C71 1.357 1_655 S
C71 C70 1.357 1_455 S
C71 C72 1.406 . S
C72 H46 0.929 . S
C72 C71 1.406 . S
C72 C73 1.391 . S
C73 H45 0.931 . S
C73 C68 1.370 1_455 S
C73 C72 1.391 . S
C74 N43 1.434 . S
C74 C75 1.357 1_655 S
C74 C79 1.373 . S
C75 H47 0.930 . S
C75 C74 1.357 1_455 S
C75 C76 1.405 . S
C76 H48 0.932 . S
C76 C75 1.405 . S
C76 C77 1.383 . S
C77 C76 1.383 . S
C77 C78 1.393 1_455 S
C78 H50 0.931 . S
C78 C77 1.393 1_655 S
C78 C79 1.382 . S
C79 H49 0.929 . S
C79 C74 1.373 . S
C79 C78 1.382 . S
C80 N43 1.423 . S
C80 C81 1.362 . S
C80 C85 1.388 1_655 S
C81 H51 0.929 . S
C81 C80 1.362 . S
C81 C82 1.376 . S
C82 H53 0.931 . S
C82 C81 1.376 . S
C82 C83 1.396 . S
C83 C82 1.396 . S
C83 C84 1.348 1_655 S
C83 C101 1.472 . S
C84 H54 0.929 . S
C84 C83 1.348 1_455 S
C84 C85 1.443 . S
C85 H52 0.932 . S
C85 C80 1.388 1_455 S
C85 C84 1.443 . S
C86 N66 1.433 . S
C86 C87 1.363 . S
C86 C91 1.370 1_655 S
C87 H55 0.929 . S
C87 C86 1.363 . S
C87 C88 1.385 . S
C88 H56 0.930 . S
C88 C87 1.385 . S
C88 C89 1.357 1_655 S
C89 C88 1.357 1_455 S
C89 C90 1.406 . S
C90 H57 0.929 . S
C90 C89 1.406 . S
C90 C91 1.391 . S
C91 H58 0.931 . S
C91 C86 1.370 1_455 S
C91 C90 1.391 . S
C92 N66 1.437 . S
C92 C93 1.352 1_655 S
C92 C97 1.374 . S
C93 H59 0.930 . S
C93 C92 1.352 1_455 S
C93 C94 1.405 . S
C94 H60 0.932 . S
C94 C93 1.405 . S
C94 C95 1.383 . S
C95 C94 1.383 . S
C95 C96 1.393 1_455 S
C96 H61 0.931 . S
C96 C95 1.393 1_655 S
C96 C97 1.382 . S
C97 H62 0.929 . S
C97 C92 1.374 . S
C97 C96 1.382 . S
C98 N66 1.423 . S
C98 C99 1.362 . S
C98 C103 1.388 1_655 S
C99 H63 0.929 . S
C99 C98 1.362 . S
C99 C100 1.376 . S
C100 H64 0.931 . S
C100 C99 1.376 . S
C100 C101 1.396 . S
C101 C83 1.472 . S
C101 C100 1.396 . S
C101 C102 1.348 1_655 S
C102 H65 0.929 . S
C102 C101 1.348 1_455 S
C102 C103 1.443 . S
C103 H67 0.932 . S
C103 C98 1.388 1_455 S
C103 C102 1.443 . S
H104 C131 0.929 . S
N105 C130 1.433 . S
N105 C136 1.435 . S
N105 C142 1.423 . S
H106 C132 0.930 . S
H107 C135 0.931 . S
H108 C134 0.929 1_565 S
H109 C137 0.930 1_565 S
H110 C138 0.932 1_565 S
H111 C141 0.929 . S
H112 C140 0.931 . S
H113 C143 0.929 . S
H114 C147 0.932 . S
H115 C144 0.931 . S
H116 C146 0.929 . S
H117 C149 0.929 . S
H118 C150 0.930 . S
H119 C152 0.929 1_565 S
H120 C153 0.931 . S
H121 C155 0.930 1_565 S
H122 C156 0.932 1_565 S
H123 C158 0.931 . S
H124 C159 0.929 . S
H125 C161 0.929 . S
H126 C162 0.931 . S
H127 C164 0.929 . S
N128 C148 1.433 . S
N128 C154 1.435 . S
N128 C160 1.423 . S
H129 C165 0.932 . S
C130 N105 1.433 . S
C130 C131 1.363 . S
C130 C135 1.370 . S
C131 H104 0.929 . S
C131 C130 1.363 . S
C131 C132 1.385 . S
C132 H106 0.930 . S
C132 C131 1.385 . S
C132 C133 1.357 . S
C133 C132 1.357 . S
C133 C134 1.406 . S
C134 H108 0.929 1_545 S
C134 C133 1.406 . S
C134 C135 1.391 . S
C135 H107 0.931 . S
C135 C130 1.370 . S
C135 C134 1.391 . S
C136 N105 1.435 . S
C136 C137 1.358 . S
C136 C141 1.371 . S
C137 H109 0.930 1_545 S
C137 C136 1.358 . S
C137 C138 1.405 . S
C138 H110 0.932 1_545 S
C138 C137 1.405 . S
C138 C139 1.383 . S
C139 C138 1.383 . S
C139 C140 1.393 . S
C140 H112 0.931 . S
C140 C139 1.393 . S
C140 C141 1.382 . S
C141 H111 0.929 . S
C141 C136 1.371 . S
C141 C140 1.382 . S
C142 N105 1.423 . S
C142 C143 1.362 . S
C142 C147 1.388 . S
C143 H113 0.929 . S
C143 C142 1.362 . S
C143 C144 1.376 . S
C144 H115 0.931 . S
C144 C143 1.376 . S
C144 C145 1.396 . S
C145 C144 1.396 . S
C145 C146 1.348 . S
C145 C163 1.472 . S
C146 H116 0.929 . S
C146 C145 1.348 . S
C146 C147 1.443 . S
C147 H114 0.932 . S
C147 C142 1.388 . S
C147 C146 1.443 . S
C148 N128 1.433 . S
C148 C149 1.363 . S
C148 C153 1.370 . S
C149 H117 0.929 . S
C149 C148 1.363 . S
C149 C150 1.385 . S
C150 H118 0.930 . S
C150 C149 1.385 . S
C150 C151 1.357 . S
C151 C150 1.357 . S
C151 C152 1.406 . S
C152 H119 0.929 1_545 S
C152 C151 1.406 . S
C152 C153 1.391 . S
C153 H120 0.931 . S
C153 C148 1.370 . S
C153 C152 1.391 . S
C154 N128 1.435 . S
C154 C155 1.358 . S
C154 C159 1.371 . S
C155 H121 0.930 1_545 S
C155 C154 1.358 . S
C155 C156 1.405 . S
C156 H122 0.932 1_545 S
C156 C155 1.405 . S
C156 C157 1.383 . S
C157 C156 1.383 . S
C157 C158 1.393 . S
C158 H123 0.931 . S
C158 C157 1.393 . S
C158 C159 1.382 . S
C159 H124 0.929 . S
C159 C154 1.371 . S
C159 C158 1.382 . S
C160 N128 1.423 . S
C160 C161 1.362 . S
C160 C165 1.388 . S
C161 H125 0.929 . S
C161 C160 1.362 . S
C161 C162 1.376 . S
C162 H126 0.931 . S
C162 C161 1.376 . S
C162 C163 1.396 . S
C163 C145 1.472 . S
C163 C162 1.396 . S
C163 C164 1.348 . S
C164 H127 0.929 . S
C164 C163 1.348 . S
C164 C165 1.443 . S
C165 H129 0.932 . S
C165 C160 1.388 . S
C165 C164 1.443 . S
H166 C193 0.929 . S
N167 C192 1.433 . S
N167 C198 1.435 . S
N167 C204 1.423 . S
H168 C194 0.930 . S
H169 C197 0.931 . S
H170 C196 0.929 . S
H171 C199 0.930 . S
H172 C200 0.932 . S
H173 C203 0.929 . S
H174 C202 0.931 . S
H175 C205 0.929 . S
H176 C209 0.932 . S
H177 C206 0.931 . S
H178 C208 0.929 . S
H179 C211 0.929 . S
H180 C212 0.930 . S
H181 C214 0.929 . S
H182 C215 0.931 . S
H183 C217 0.930 . S
H184 C218 0.932 . S
H185 C220 0.931 . S
H186 C221 0.929 . S
H187 C223 0.929 . S
H188 C224 0.931 . S
H189 C226 0.929 . S
N190 C210 1.433 . S
N190 C216 1.435 . S
N190 C222 1.423 . S
H191 C227 0.932 . S
C192 N167 1.433 . S
C192 C193 1.363 . S
C192 C197 1.370 . S
C193 H166 0.929 . S
C193 C192 1.363 . S
C193 C194 1.385 . S
C194 H168 0.930 . S
C194 C193 1.385 . S
C194 C195 1.357 . S
C195 C194 1.357 . S
C195 C196 1.406 . S
C196 H170 0.929 . S
C196 C195 1.406 . S
C196 C197 1.391 . S
C197 H169 0.931 . S
C197 C192 1.370 . S
C197 C196 1.391 . S
C198 N167 1.435 . S
C198 C199 1.358 . S
C198 C203 1.371 . S
C199 H171 0.930 . S
C199 C198 1.358 . S
C199 C200 1.405 . S
C200 H172 0.932 . S
C200 C199 1.405 . S
C200 C201 1.383 . S
C201 C200 1.383 . S
C201 C202 1.393 . S
C202 H174 0.931 . S
C202 C201 1.393 . S
C202 C203 1.382 . S
C203 H173 0.929 . S
C203 C198 1.371 . S
C203 C202 1.382 . S
C204 N167 1.423 . S
C204 C205 1.362 . S
C204 C209 1.388 . S
C205 H175 0.929 . S
C205 C204 1.362 . S
C205 C206 1.376 . S
C206 H177 0.931 . S
C206 C205 1.376 . S
C206 C207 1.396 . S
C207 C206 1.396 . S
C207 C208 1.348 . S
C207 C225 1.472 . S
C208 H178 0.929 . S
C208 C207 1.348 . S
C208 C209 1.443 . S
C209 H176 0.932 . S
C209 C204 1.388 . S
C209 C208 1.443 . S
C210 N190 1.433 . S
C210 C211 1.363 . S
C210 C215 1.370 . S
C211 H179 0.929 . S
C211 C210 1.363 . S
C211 C212 1.385 . S
C212 H180 0.930 . S
C212 C211 1.385 . S
C212 C213 1.357 . S
C213 C212 1.357 . S
C213 C214 1.406 . S
C214 H181 0.929 . S
C214 C213 1.406 . S
C214 C215 1.391 . S
C215 H182 0.931 . S
C215 C210 1.370 . S
C215 C214 1.391 . S
C216 N190 1.435 . S
C216 C217 1.358 . S
C216 C221 1.371 . S
C217 H183 0.930 . S
C217 C216 1.358 . S
C217 C218 1.405 . S
C218 H184 0.932 . S
C218 C217 1.405 . S
C218 C219 1.383 . S
C219 C218 1.383 . S
C219 C220 1.393 . S
C220 H185 0.931 . S
C220 C219 1.393 . S
C220 C221 1.382 . S
C221 H186 0.929 . S
C221 C216 1.371 . S
C221 C220 1.382 . S
C222 N190 1.423 . S
C222 C223 1.362 . S
C222 C227 1.388 . S
C223 H187 0.929 . S
C223 C222 1.362 . S
C223 C224 1.376 . S
C224 H188 0.931 . S
C224 C223 1.376 . S
C224 C225 1.396 . S
C225 C207 1.472 . S
C225 C224 1.396 . S
C225 C226 1.348 . S
C226 H189 0.929 . S
C226 C225 1.348 . S
C226 C227 1.443 . S
C227 H191 0.932 . S
C227 C222 1.388 . S
C227 C226 1.443 . S
C95 C11 1.967 . S
C26 C139 1.994 1_565 S
C40 C201 1.920 . S
C5 C77 1.741 . S
C157 C18 1.712 . S
C32 C219 1.693 . S
C133 C39 1.423 . S
C4 C195 1.649 . S
C71 C19 1.722 1_455 S
C151 C33 1.923 1_545 S
C213 C12 1.777 . S
C25 C89 1.718 . S
