# Generated by pormake.
# Topology pts, (4,4)-cn, num edge types: 1
# Building blocks:
#     Node 0, Type 0, BuildingBlock: GIZVER_clean_linker_0, # of connection points: 4
#     Node 1, Type 0, BuildingBlock: GIZVER_clean_linker_0, # of connection points: 4
#     Node 2, Type 1, BuildingBlock: QUQFOY_clean_sbu_1, # of connection points: 4
#     Node 3, Type 1, BuildingBlock: QUQFOY_clean_sbu_1, # of connection points: 4
#     Edge 4, Type (0, 1), BuildingBlock: KIFKEQ_clean_linker_1, # of connection points: 2
#     Edge 5, Type (0, 1), BuildingBlock: KIFKEQ_clean_linker_1, # of connection points: 2
#     Edge 6, Type (0, 1), BuildingBlock: KIFKEQ_clean_linker_1, # of connection points: 2
#     Edge 7, Type (0, 1), BuildingBlock: KIFKEQ_clean_linker_1, # of connection points: 2
#     Edge 8, Type (0, 1), BuildingBlock: KIFKEQ_clean_linker_1, # of connection points: 2
#     Edge 9, Type (0, 1), BuildingBlock: KIFKEQ_clean_linker_1, # of connection points: 2
#     Edge 10, Type (0, 1), BuildingBlock: KIFKEQ_clean_linker_1, # of connection points: 2
#     Edge 11, Type (0, 1), BuildingBlock: KIFKEQ_clean_linker_1, # of connection points: 2
# Relax obj value: 0.104
# Max RMSD: 0.276
# Mean RMSD: 0.184
data_MOF--net-pts--node1-QUQFOY_clean_sbu_1--node2-GIZVER_clean_linker_0--edge1-KIFKEQ_clean_linker_1
_symmetry_space_group_name_H-M    P1
_symmetry_Int_Tables_number       1
_symmetry_cell_setting            triclinic
loop_
_symmetry_equiv_pos_as_xyz
'x, y, z'
_cell_length_a     24.524281
_cell_length_b     26.480325
_cell_length_c     38.861511
_cell_angle_alpha  90.244151
_cell_angle_beta   89.040194
_cell_angle_gamma 88.877358
loop_
_atom_site_label
_atom_site_type_symbol
_atom_site_fract_x
_atom_site_fract_y
_atom_site_fract_z
_atom_type_partial_charge
H0 H 0.56183 0.12645 0.02325 0.0
H1 H 0.57206 0.14468 0.91323 0.0
H2 H 0.70774 0.0808 0.96748 0.0
H3 H 0.50146 0.18852 -0.00782 0.0
H4 H 0.50063 0.18864 0.94621 0.0
H5 H 0.45292 0.12493 0.02508 0.0
H6 H 0.33985 1.03285 -0.02897 0.0
H7 H 0.45708 0.11974 0.91439 0.0
C8 C 0.58436 0.12177 -0.00082 0.0
C9 C 0.63721 0.10037 -0.00092 0.0
C10 C 0.5606 0.13779 -0.0317 0.0
C11 C 0.58984 0.13177 0.93707 0.0
C12 C 0.64305 0.11148 0.93682 0.0
C13 C 0.6662 0.09564 0.96777 0.0
C14 C 0.50545 0.16377 -0.03098 0.0
C15 C 0.46087 0.12546 -0.03033 0.0
C16 C 0.43809 0.10966 0.00113 0.0
C17 C 0.39481 0.07577 0.00176 0.0
C18 C 0.37513 0.05691 -0.02935 0.0
C19 C 0.39682 0.07309 0.93902 0.0
C20 C 0.44037 0.10673 0.93872 0.0
H21 H 0.08422 0.60454 0.41292 0.0
H22 H 0.09052 0.58698 0.52304 0.0
H23 H 1.01496 0.71926 0.47986 0.0
H24 H 0.14671 0.54365 0.43769 0.0
H25 H 0.15564 0.5414 0.483 0.0
H26 H 0.07402 0.49408 0.41 0.0
H27 H 0.02948 0.36034 0.46524 0.0
H28 H 0.10752 0.48068 0.51828 0.0
C29 C 0.07275 0.61748 0.43859 0.0
C30 C 0.0471 0.66504 0.443 0.0
C31 C 0.08807 0.58866 0.46741 0.0
C32 C 0.07647 0.60758 0.50073 0.0
C33 C 0.04928 0.65434 0.50519 0.0
C34 C 0.03396 0.68221 0.47631 0.0
C35 C 0.12411 0.54214 0.46273 0.0
C36 C 0.09234 0.49387 0.46426 0.0
C37 C 0.07066 0.47347 0.43396 0.0
C38 C 0.04716 0.42546 0.43423 0.0
C39 C 0.04525 0.39834 0.46507 0.0
C40 C 0.06706 0.41774 0.49528 0.0
C41 C 0.08938 0.46611 0.49511 0.0
O42 O 0.93173 1.00011 0.18679 0.0
Cd43 Cd 1.00438 0.98257 0.21004 0.0
Cd44 Cd 1.0104 0.09044 0.2163 0.0
O45 O 0.93952 0.08304 0.1888 0.0
O46 O 1.00318 0.90931 0.22158 0.0
O47 O 1.00646 0.96992 0.26087 0.0
C48 C 1.0054 0.92227 0.25354 0.0
C49 C 1.00981 0.15832 0.25521 0.0
C50 C 0.91353 0.04412 0.17993 0.0
C51 C 0.1029 1.03266 0.17976 0.0
O52 O 0.08486 0.07386 0.19288 0.0
O53 O 0.07578 0.99243 0.18231 0.0
O54 O 1.01412 0.16517 0.22253 0.0
O55 O 1.00586 0.11249 0.26608 0.0
O56 O 0.95875 0.08866 0.74563 0.0
Cd57 Cd 0.03262 0.08713 0.71916 0.0
Cd58 Cd 0.01645 0.9813 0.73031 0.0
O59 O 0.94251 1.0072 0.74995 0.0
O60 O 0.04376 0.1604 0.71004 0.0
O61 O 0.03537 0.10405 0.66857 0.0
C62 C 0.04226 0.15044 0.67765 0.0
C63 C 0.01878 0.91573 0.69013 0.0
C64 C 0.928 0.05299 0.75504 0.0
C65 C 0.11555 1.02703 0.76061 0.0
O66 O 0.08463 0.98909 0.76007 0.0
O67 O 0.10303 0.06724 0.74459 0.0
O68 O 1.00808 0.90746 0.72219 0.0
O69 O 0.02736 0.9617 0.68069 0.0
H70 H 0.36686 0.9843 0.02837 0.0
H71 H 0.35288 0.14468 0.04717 0.0
H72 H 0.30521 0.96888 0.07708 0.0
H73 H 0.28922 0.13012 0.09439 0.0
H74 H 0.18796 0.09663 0.1862 0.0
H75 H 0.26866 0.10203 0.14914 0.0
H76 H 0.21238 0.97601 0.08898 0.0
H77 H 0.13378 0.96892 0.12742 0.0
C78 C 0.35095 1.01615 0.04326 0.0
C79 C 0.36458 0.06561 0.03417 0.0
C80 C 0.31522 1.00748 0.07094 0.0
C81 C 0.29142 0.04822 0.08962 0.0
C82 C 0.30718 0.0976 0.08122 0.0
C83 C 0.34364 0.10611 0.05401 0.0
C84 C 0.19344 0.06965 0.16533 0.0
C85 C 0.1544 1.03263 0.15949 0.0
C86 C 0.23953 0.0729 0.14389 0.0
C87 C 0.24699 0.03998 0.11558 0.0
C88 C 0.20879 1.00166 0.11069 0.0
C89 C 0.16333 0.99773 0.13261 0.0
H90 H 0.1211 0.32821 0.49748 0.0
H91 H 0.0221 0.43047 0.55987 0.0
H92 H 0.11799 0.26511 0.54286 0.0
H93 H 0.01766 0.36664 0.60547 0.0
H94 H 0.0585 0.25065 0.68991 0.0
H95 H 0.06914 0.31803 0.64788 0.0
H96 H 0.04878 0.21025 0.56552 0.0
H97 H 0.03929 0.14273 0.60749 0.0
C98 C 0.09912 0.33722 0.52122 0.0
C99 C 0.07159 0.3839 0.52528 0.0
C100 C 0.09687 0.30097 0.54705 0.0
C101 C 0.06669 0.3104 0.57752 0.0
C102 C 0.04137 0.35824 0.58232 0.0
C103 C 0.0439 0.39479 0.55636 0.0
C104 C 0.05639 0.2413 0.66281 0.0
C105 C 0.04825 0.19124 0.65201 0.0
C106 C 0.0622 0.28003 0.63875 0.0
C107 C 0.06011 0.26956 0.60335 0.0
C108 C 0.0516 0.2195 0.5926 0.0
C109 C 0.04581 0.18079 0.61665 0.0
H110 H 0.69894 1.01579 0.01153 0.0
H111 H 0.6378 0.15329 0.05975 0.0
H112 H 0.75749 1.00012 0.06036 0.0
H113 H 0.6947 0.13648 0.10952 0.0
H114 H 0.8679 0.13189 0.15614 0.0
H115 H 0.79139 0.14156 0.11775 0.0
H116 H 0.76717 0.98039 0.12018 0.0
H117 H 0.84502 0.97045 0.15797 0.0
C118 C 0.69726 0.04216 0.03293 0.0
C119 C 0.66446 0.08619 0.03155 0.0
C120 C 0.73039 1.03289 0.06114 0.0
C121 C 0.73129 0.06735 0.08873 0.0
C122 C 0.69565 0.10964 0.0884 0.0
C123 C 0.66257 0.11899 0.06008 0.0
C124 C 0.84595 0.0985 0.14885 0.0
C125 C 0.86311 0.0503 0.15978 0.0
C126 C 0.80165 0.10412 0.12702 0.0
C127 C 0.77321 0.06172 0.11572 0.0
C128 C 0.78872 1.01374 0.12798 0.0
C129 C 0.83325 1.00808 0.14974 0.0
H130 H 0.13163 0.68505 0.54521 0.0
H131 H 0.9562 0.68315 0.53967 0.0
H132 H 0.12457 0.74575 0.593 0.0
H133 H 0.94901 0.74282 0.58813 0.0
H134 H 0.97286 0.82304 0.69601 0.0
H135 H 0.98041 0.75217 0.65529 0.0
H136 H 0.08191 0.84124 0.58825 0.0
H137 H 0.07331 0.91259 0.62838 0.0
C138 C 0.09162 0.69616 0.55517 0.0
C139 C 0.04441 0.67922 0.53919 0.0
C140 C 0.0876 0.73118 0.58216 0.0
C141 C 0.03628 0.74903 0.59394 0.0
C142 C 0.98899 0.72937 0.57954 0.0
C143 C 0.99304 0.69517 0.55205 0.0
C144 C 0.99668 0.82749 0.67253 0.0
C145 C 0.02239 0.87336 0.66527 0.0
C146 C 1.00095 0.78699 0.64934 0.0
C147 C 0.03214 0.79127 0.61893 0.0
C148 C 0.05813 0.83694 0.61177 0.0
C149 C 0.05284 0.87781 0.63456 0.0
H150 H 0.36257 0.13848 0.89005 0.0
H151 H 0.36492 0.98035 0.9164 0.0
H152 H 0.30166 0.12183 0.84303 0.0
H153 H 0.30546 0.96276 0.86811 0.0
H154 H 0.13666 0.96853 0.81668 0.0
H155 H 0.21312 0.9749 0.85545 0.0
H156 H 0.28482 0.0875 0.78925 0.0
H157 H 0.20665 0.083 0.75168 0.0
C158 C 0.35145 0.09979 0.88498 0.0
C159 C 0.36834 0.06071 0.90686 0.0
C160 C 0.3165 0.09009 0.85789 0.0
C161 C 0.29811 0.04088 0.85173 0.0
C162 C 0.31775 1.00127 0.87249 0.0
C163 C 0.35215 1.01117 0.89996 0.0
C164 C 0.16913 0.99418 0.81026 0.0
C165 C 0.16533 1.02581 0.78147 0.0
C166 C 0.2133 0.99763 0.83236 0.0
C167 C 0.25514 1.03218 0.8258 0.0
C168 C 0.25277 0.06147 0.79571 0.0
C169 C 0.2081 0.05872 0.77402 0.0
H170 H 0.95478 0.37249 0.4231 0.0
H171 H 0.10503 0.41745 0.37368 0.0
H172 H 0.9405 0.31132 0.3771 0.0
H173 H 0.09056 0.35651 0.32749 0.0
H174 H 0.02985 0.25681 0.23982 0.0
H175 H 0.0314 0.32878 0.27925 0.0
H176 H 0.99134 0.23059 0.36405 0.0
H177 H 0.98962 0.1586 0.32466 0.0
C178 C 0.98405 0.37013 0.40193 0.0
C179 C 0.0313 0.39935 0.40215 0.0
C180 C 0.97607 0.3349 0.37577 0.0
C181 C 1.01497 0.32842 0.3491 0.0
C182 C 0.05984 0.36069 0.34771 0.0
C183 C 0.06798 0.39583 0.37405 0.0
C184 C 0.02112 0.25059 0.26686 0.0
C185 C 1.00973 0.20193 0.27916 0.0
C186 C 0.02215 0.29183 0.28941 0.0
C187 C 1.01123 0.28541 0.32467 0.0
C188 C 0.99911 0.23688 0.33689 0.0
C189 C 0.99857 0.19554 0.3144 0.0
H190 H 0.74082 0.15447 0.92612 0.0
H191 H 0.62119 0.06333 0.87628 0.0
H192 H 0.80221 0.14398 0.87655 0.0
H193 H 0.68306 0.05249 0.82619 0.0
H194 H 0.8514 0.98723 0.77917 0.0
H195 H 0.77463 1.00632 0.81817 0.0
H196 H 0.81207 0.16483 0.8141 0.0
H197 H 0.88893 0.14601 0.77532 0.0
C198 C 0.72752 0.13273 0.90422 0.0
C199 C 0.67661 0.10947 0.90492 0.0
C200 C 0.76242 0.127 0.87577 0.0
C201 C 0.74739 0.09744 0.84749 0.0
C202 C 0.69568 0.07531 0.84772 0.0
C203 C 0.66028 0.08169 0.87616 0.0
C204 C 0.84276 1.02626 0.78612 0.0
C205 C 0.87688 0.06499 0.77453 0.0
C206 C 0.79853 0.0372 0.80827 0.0
C207 C 0.78774 0.087 0.8194 0.0
C208 C 0.8199 0.12601 0.80626 0.0
C209 C 0.86387 0.11517 0.78399 0.0
H210 H 0.08298 0.76078 0.43928 0.0
H211 H 0.99802 0.64887 0.3809 0.0
H212 H 0.07109 0.8214 0.39321 0.0
H213 H 0.98433 0.7104 0.33463 0.0
H214 H 0.02079 0.82041 0.2455 0.0
H215 H 0.03001 0.75685 0.2903 0.0
H216 H 1.00284 0.8725 0.3679 0.0
H217 H 0.99574 0.93618 0.32311 0.0
C218 C 0.06117 0.74939 0.41659 0.0
C219 C 0.04076 0.70038 0.41379 0.0
C220 C 0.05405 0.78425 0.39022 0.0
C221 C 0.02591 0.77123 0.36036 0.0
C222 C 1.00642 0.72169 0.3572 0.0
C223 C 1.01407 0.68646 0.38363 0.0
C224 C 0.01663 0.83221 0.27215 0.0
C225 C 1.00796 0.88342 0.28078 0.0
C226 C 0.02158 0.79567 0.29785 0.0
C227 C 0.01759 0.80945 0.3328 0.0
C228 C 1.00737 0.86057 0.3413 0.0
C229 C 1.00295 0.89714 0.31562 0.0
loop_
_geom_bond_atom_site_label_1
_geom_bond_atom_site_label_2
_geom_bond_distance
_geom_bond_site_symmetry_2
_ccdc_geom_bond_type
H0 C8 0.930 . S
H1 C11 0.930 . S
H2 C13 0.930 1_565 S
H3 C14 0.970 . S
H4 C14 0.970 1_556 S
H5 C16 0.930 . S
H6 C18 0.930 1_565 S
H7 C20 0.930 . S
C8 H0 0.930 . S
C8 C9 1.382 . S
C8 C10 1.426 . S
C9 C8 1.382 . S
C9 C13 1.389 . S
C10 C8 1.426 . S
C10 C11 1.375 1_554 S
C10 C14 1.532 . S
C11 H1 0.930 . S
C11 C10 1.375 1_556 S
C11 C12 1.416 . S
C12 C11 1.416 . S
C12 C13 1.371 1_556 S
C13 H2 0.930 1_545 S
C13 C9 1.389 . S
C13 C12 1.371 1_554 S
C14 H3 0.970 . S
C14 H4 0.970 1_554 S
C14 C10 1.532 . S
C14 C15 1.500 . S
C15 C14 1.500 . S
C15 C16 1.393 . S
C15 C20 1.393 1_554 S
C16 H5 0.930 . S
C16 C15 1.393 . S
C16 C17 1.407 . S
C17 C16 1.407 . S
C17 C18 1.387 . S
C18 H6 0.930 1_545 S
C18 C17 1.387 . S
C18 C19 1.371 1_554 S
C19 C18 1.371 1_556 S
C19 C20 1.387 . S
C20 H7 0.930 . S
C20 C15 1.393 1_556 S
C20 C19 1.387 . S
H21 C29 0.930 . S
H22 C32 0.930 . S
H23 C34 0.930 1_655 S
H24 C35 0.970 . S
H25 C35 0.970 . S
H26 C37 0.930 . S
H27 C39 0.926 1_655 S
H28 C41 0.930 . S
C29 H21 0.930 . S
C29 C30 1.382 . S
C29 C31 1.426 . S
C30 C29 1.382 . S
C30 C34 1.389 . S
C31 C29 1.426 . S
C31 C32 1.375 . S
C31 C35 1.532 . S
C32 H22 0.930 . S
C32 C31 1.375 . S
C32 C33 1.416 . S
C33 C32 1.416 . S
C33 C34 1.371 . S
C34 H23 0.930 1_455 S
C34 C30 1.389 . S
C34 C33 1.371 . S
C35 H24 0.970 . S
C35 H25 0.970 . S
C35 C31 1.532 . S
C35 C36 1.499 . S
C36 C35 1.499 . S
C36 C37 1.370 . S
C36 C41 1.415 . S
C37 H26 0.930 . S
C37 C36 1.370 . S
C37 C38 1.407 . S
C38 C37 1.407 . S
C38 C39 1.366 . S
C39 H27 0.926 1_455 S
C39 C38 1.366 . S
C39 C40 1.396 . S
C40 C39 1.396 . S
C40 C41 1.387 . S
C41 H28 0.930 . S
C41 C36 1.415 . S
C41 C40 1.387 . S
O42 Cd43 2.223 1_655 S
O42 C50 1.315 . S
Cd43 O42 2.223 1_455 S
Cd43 O46 2.297 1_455 S
Cd43 O47 2.439 1_455 S
Cd43 O53 2.240 1_565 S
Cd44 O45 2.240 . S
Cd44 O52 2.223 1_655 S
Cd44 O54 2.297 1_655 S
Cd44 O55 2.439 1_655 S
O45 Cd44 2.240 . S
O45 C50 1.279 1_545 S
O46 Cd43 2.297 1_655 S
O46 C48 1.247 . S
O47 Cd43 2.439 1_655 S
O47 C48 1.208 . S
C48 O46 1.247 . S
C48 O47 1.208 . S
C49 O54 1.247 . S
C49 O55 1.208 . S
C50 O42 1.315 . S
C50 O45 1.279 1_565 S
C51 O52 1.315 . S
C51 O53 1.279 . S
O52 Cd44 2.223 1_455 S
O52 C51 1.315 . S
O53 Cd43 2.240 1_545 S
O53 C51 1.279 . S
O54 Cd44 2.297 1_455 S
O54 C49 1.247 . S
O55 Cd44 2.439 1_455 S
O55 C49 1.208 . S
O56 Cd57 2.223 1_655 S
O56 C64 1.315 . S
Cd57 O56 2.223 1_455 S
Cd57 O60 2.297 1_455 S
Cd57 O61 2.439 1_455 S
Cd57 O67 2.240 . S
Cd58 O59 2.240 1_565 S
Cd58 O66 2.223 1_655 S
Cd58 O68 2.297 1_655 S
Cd58 O69 2.439 1_655 S
O59 Cd58 2.240 1_545 S
O59 C64 1.279 . S
O60 Cd57 2.297 1_655 S
O60 C62 1.247 . S
O61 Cd57 2.439 1_655 S
O61 C62 1.208 . S
C62 O60 1.247 . S
C62 O61 1.208 . S
C63 O68 1.247 . S
C63 O69 1.208 . S
C64 O56 1.315 . S
C64 O59 1.279 . S
C65 O66 1.315 . S
C65 O67 1.279 1_565 S
O66 Cd58 2.223 1_455 S
O66 C65 1.315 . S
O67 Cd57 2.240 . S
O67 C65 1.279 1_545 S
O68 Cd58 2.297 1_455 S
O68 C63 1.247 . S
O69 Cd58 2.439 1_455 S
O69 C63 1.208 . S
H70 C78 0.950 . S
H71 C83 0.950 . S
H72 C80 0.950 . S
H73 C82 0.950 . S
H74 C84 0.950 . S
H75 C86 0.950 . S
H76 C88 0.950 1_565 S
H77 C89 0.950 1_565 S
C78 H70 0.950 . S
C78 C79 1.386 1_565 S
C78 C80 1.391 . S
C79 C78 1.386 1_545 S
C79 C83 1.393 . S
C80 H72 0.950 . S
C80 C78 1.391 . S
C80 C81 1.400 1_565 S
C81 C80 1.400 1_545 S
C81 C82 1.398 . S
C81 C87 1.491 . S
C82 H73 0.950 . S
C82 C81 1.398 . S
C82 C83 1.391 . S
C83 H71 0.950 . S
C83 C79 1.393 . S
C83 C82 1.391 . S
C84 H74 0.950 . S
C84 C85 1.386 . S
C84 C86 1.391 . S
C85 C84 1.386 . S
C85 C89 1.393 . S
C86 H75 0.950 . S
C86 C84 1.391 . S
C86 C87 1.400 . S
C87 C81 1.491 . S
C87 C86 1.400 . S
C87 C88 1.398 . S
C88 H76 0.950 1_545 S
C88 C87 1.398 . S
C88 C89 1.391 . S
C89 H77 0.950 1_545 S
C89 C85 1.393 . S
C89 C88 1.391 . S
H90 C98 0.950 . S
H91 C103 0.950 . S
H92 C100 0.950 . S
H93 C102 0.950 . S
H94 C104 0.950 1_455 S
H95 C106 0.948 1_455 S
H96 C108 0.950 . S
H97 C109 0.950 . S
C98 H90 0.950 . S
C98 C99 1.386 1_655 S
C98 C100 1.391 . S
C99 C98 1.386 1_455 S
C99 C103 1.393 . S
C100 H92 0.950 . S
C100 C98 1.391 . S
C100 C101 1.400 . S
C101 C100 1.400 . S
C101 C102 1.398 1_655 S
C101 C107 1.491 . S
C102 H93 0.950 . S
C102 C101 1.398 1_455 S
C102 C103 1.391 . S
C103 H91 0.950 . S
C103 C99 1.393 . S
C103 C102 1.391 . S
C104 H94 0.950 1_655 S
C104 C105 1.386 . S
C104 C106 1.392 . S
C105 C104 1.386 . S
C105 C109 1.393 . S
C106 H95 0.948 1_655 S
C106 C104 1.392 . S
C106 C107 1.401 . S
C107 C101 1.491 . S
C107 C106 1.401 . S
C107 C108 1.398 . S
C108 H96 0.950 . S
C108 C107 1.398 . S
C108 C109 1.391 . S
C109 H97 0.950 . S
C109 C105 1.393 . S
C109 C108 1.391 . S
H110 C118 0.950 . S
H111 C123 0.950 . S
H112 C120 0.950 . S
H113 C122 0.950 . S
H114 C124 0.950 . S
H115 C126 0.950 . S
H116 C128 0.950 . S
H117 C129 0.950 . S
C118 H110 0.950 . S
C118 C119 1.386 1_565 S
C118 C120 1.391 . S
C119 C118 1.386 1_545 S
C119 C123 1.393 . S
C120 H112 0.950 . S
C120 C118 1.391 . S
C120 C121 1.400 1_565 S
C121 C120 1.400 1_545 S
C121 C122 1.398 . S
C121 C127 1.491 . S
C122 H113 0.950 . S
C122 C121 1.398 . S
C122 C123 1.391 . S
C123 H111 0.950 . S
C123 C119 1.393 . S
C123 C122 1.391 . S
C124 H114 0.950 . S
C124 C125 1.386 1_545 S
C124 C126 1.391 . S
C125 C124 1.386 1_565 S
C125 C129 1.393 . S
C126 H115 0.950 . S
C126 C124 1.391 . S
C126 C127 1.400 . S
C127 C121 1.491 . S
C127 C126 1.400 . S
C127 C128 1.398 1_545 S
C128 H116 0.950 . S
C128 C127 1.398 1_565 S
C128 C129 1.391 . S
C129 H117 0.950 . S
C129 C125 1.393 . S
C129 C128 1.391 . S
H130 C138 0.950 . S
H131 C143 0.950 . S
H132 C140 0.950 . S
H133 C142 0.950 . S
H134 C144 0.950 . S
H135 C146 0.950 . S
H136 C148 0.950 . S
H137 C149 0.950 . S
C138 H130 0.950 . S
C138 C139 1.386 . S
C138 C140 1.391 . S
C139 C138 1.386 . S
C139 C143 1.393 1_455 S
C140 H132 0.950 . S
C140 C138 1.391 . S
C140 C141 1.400 . S
C141 C140 1.400 . S
C141 C142 1.398 1_455 S
C141 C147 1.491 . S
C142 H133 0.950 . S
C142 C141 1.398 1_655 S
C142 C143 1.391 . S
C143 H131 0.950 . S
C143 C139 1.393 1_655 S
C143 C142 1.391 . S
C144 H134 0.950 . S
C144 C145 1.386 1_655 S
C144 C146 1.391 . S
C145 C144 1.386 1_455 S
C145 C149 1.393 . S
C146 H135 0.950 . S
C146 C144 1.391 . S
C146 C147 1.400 1_655 S
C147 C141 1.491 . S
C147 C146 1.400 1_455 S
C147 C148 1.398 . S
C148 H136 0.950 . S
C148 C147 1.398 . S
C148 C149 1.391 . S
C149 H137 0.950 . S
C149 C145 1.393 . S
C149 C148 1.391 . S
H150 C158 0.950 . S
H151 C163 0.950 . S
H152 C160 0.950 . S
H153 C162 0.950 . S
H154 C164 0.950 . S
H155 C166 0.950 . S
H156 C168 0.950 . S
H157 C169 0.950 . S
C158 H150 0.950 . S
C158 C159 1.386 . S
C158 C160 1.391 . S
C159 C158 1.386 . S
C159 C163 1.393 1_545 S
C160 H152 0.950 . S
C160 C158 1.391 . S
C160 C161 1.400 . S
C161 C160 1.400 . S
C161 C162 1.398 1_545 S
C161 C167 1.491 . S
C162 H153 0.950 . S
C162 C161 1.398 1_565 S
C162 C163 1.391 . S
C163 H151 0.950 . S
C163 C159 1.393 1_565 S
C163 C162 1.391 . S
C164 H154 0.950 . S
C164 C165 1.386 . S
C164 C166 1.391 . S
C165 C164 1.386 . S
C165 C169 1.393 1_565 S
C166 H155 0.950 . S
C166 C164 1.391 . S
C166 C167 1.400 1_565 S
C167 C161 1.491 . S
C167 C166 1.400 1_545 S
C167 C168 1.398 . S
C168 H156 0.950 . S
C168 C167 1.398 . S
C168 C169 1.391 . S
C169 H157 0.950 . S
C169 C165 1.393 1_545 S
C169 C168 1.391 . S
H170 C178 0.950 . S
H171 C183 0.950 . S
H172 C180 0.950 . S
H173 C182 0.950 . S
H174 C184 0.950 . S
H175 C186 0.950 . S
H176 C188 0.950 1_655 S
H177 C189 0.950 1_655 S
C178 H170 0.950 . S
C178 C179 1.386 1_655 S
C178 C180 1.391 . S
C179 C178 1.386 1_455 S
C179 C183 1.393 . S
C180 H172 0.950 . S
C180 C178 1.391 . S
C180 C181 1.400 1_655 S
C181 C180 1.400 1_455 S
C181 C182 1.398 . S
C181 C187 1.491 . S
C182 H173 0.950 . S
C182 C181 1.398 . S
C182 C183 1.391 . S
C183 H171 0.950 . S
C183 C179 1.393 . S
C183 C182 1.391 . S
C184 H174 0.950 . S
C184 C185 1.386 . S
C184 C186 1.391 . S
C185 C184 1.386 . S
C185 C189 1.393 . S
C186 H175 0.950 . S
C186 C184 1.391 . S
C186 C187 1.400 . S
C187 C181 1.491 . S
C187 C186 1.400 . S
C187 C188 1.398 . S
C188 H176 0.950 1_455 S
C188 C187 1.398 . S
C188 C189 1.391 . S
C189 H177 0.950 1_455 S
C189 C185 1.393 . S
C189 C188 1.391 . S
H190 C198 0.949 . S
H191 C203 0.950 . S
H192 C200 0.950 1_565 S
H193 C202 0.950 . S
H194 C204 0.950 . S
H195 C206 0.950 . S
H196 C208 0.950 . S
H197 C209 0.950 . S
C198 H190 0.949 . S
C198 C199 1.386 1_565 S
C198 C200 1.391 1_565 S
C199 C198 1.386 1_545 S
C199 C203 1.393 . S
C200 H192 0.950 1_545 S
C200 C198 1.391 1_545 S
C200 C201 1.400 . S
C201 C200 1.400 . S
C201 C202 1.398 . S
C201 C207 1.491 . S
C202 H193 0.950 . S
C202 C201 1.398 . S
C202 C203 1.391 . S
C203 H191 0.950 . S
C203 C199 1.393 . S
C203 C202 1.391 . S
C204 H194 0.950 . S
C204 C205 1.386 . S
C204 C206 1.391 . S
C205 C204 1.386 . S
C205 C209 1.393 . S
C206 H195 0.950 . S
C206 C204 1.391 . S
C206 C207 1.400 . S
C207 C201 1.491 . S
C207 C206 1.400 . S
C207 C208 1.398 . S
C208 H196 0.950 . S
C208 C207 1.398 . S
C208 C209 1.391 . S
C209 H197 0.950 . S
C209 C205 1.393 . S
C209 C208 1.391 . S
H210 C218 0.950 . S
H211 C223 0.950 . S
H212 C220 0.950 . S
H213 C222 0.950 . S
H214 C224 0.950 1_455 S
H215 C226 0.950 . S
H216 C228 0.950 . S
H217 C229 0.950 . S
C218 H210 0.950 . S
C218 C219 1.386 1_655 S
C218 C220 1.391 . S
C219 C218 1.386 1_455 S
C219 C223 1.393 . S
C220 H212 0.950 . S
C220 C218 1.391 . S
C220 C221 1.400 . S
C221 C220 1.400 . S
C221 C222 1.398 1_655 S
C221 C227 1.491 . S
C222 H213 0.950 . S
C222 C221 1.398 1_455 S
C222 C223 1.391 . S
C223 H211 0.950 . S
C223 C219 1.393 . S
C223 C222 1.391 . S
C224 H214 0.950 1_655 S
C224 C225 1.386 . S
C224 C226 1.391 1_655 S
C225 C224 1.386 . S
C225 C229 1.393 . S
C226 H215 0.950 . S
C226 C224 1.391 1_455 S
C226 C227 1.400 1_455 S
C227 C221 1.491 . S
C227 C226 1.400 1_655 S
C227 C228 1.398 . S
C228 H216 0.950 . S
C228 C227 1.398 . S
C228 C229 1.391 . S
C229 H217 0.950 . S
C229 C225 1.393 . S
C229 C228 1.391 . S
C85 C51 1.678 . S
C79 C17 1.597 . S
C105 C62 1.572 . S
C99 C40 1.579 . S
C125 C50 1.673 . S
C119 C9 1.611 . S
C145 C63 1.566 . S
C139 C33 1.521 . S
C165 C65 1.668 . S
C159 C19 1.629 . S
C185 C49 1.588 . S
C179 C38 1.560 . S
C205 C64 1.673 . S
C199 C12 1.581 . S
C219 C30 1.578 . S
C225 C48 1.581 . S
