# Generated by pormake.
# Topology tsx, (6,3)-cn, num edge types: 1
# Building blocks:
#     Node 0, Type 0, BuildingBlock: FUNLAD_clean_sbu_0, # of connection points: 6
#     Node 1, Type 0, BuildingBlock: FUNLAD_clean_sbu_0, # of connection points: 6
#     Node 2, Type 1, BuildingBlock: INOVEN_clean_linker_0, # of connection points: 3
#     Node 3, Type 1, BuildingBlock: INOVEN_clean_linker_0, # of connection points: 3
#     Node 4, Type 1, BuildingBlock: INOVEN_clean_linker_0, # of connection points: 3
#     Node 5, Type 1, BuildingBlock: INOVEN_clean_linker_0, # of connection points: 3
#     Edge 6, Type (0, 1), BuildingBlock: AJUNOK_clean_linker_0, # of connection points: 2
#     Edge 7, Type (0, 1), BuildingBlock: AJUNOK_clean_linker_0, # of connection points: 2
#     Edge 8, Type (0, 1), BuildingBlock: AJUNOK_clean_linker_0, # of connection points: 2
#     Edge 9, Type (0, 1), BuildingBlock: AJUNOK_clean_linker_0, # of connection points: 2
#     Edge 10, Type (0, 1), BuildingBlock: AJUNOK_clean_linker_0, # of connection points: 2
#     Edge 11, Type (0, 1), BuildingBlock: AJUNOK_clean_linker_0, # of connection points: 2
#     Edge 12, Type (0, 1), BuildingBlock: AJUNOK_clean_linker_0, # of connection points: 2
#     Edge 13, Type (0, 1), BuildingBlock: AJUNOK_clean_linker_0, # of connection points: 2
#     Edge 14, Type (0, 1), BuildingBlock: AJUNOK_clean_linker_0, # of connection points: 2
#     Edge 15, Type (0, 1), BuildingBlock: AJUNOK_clean_linker_0, # of connection points: 2
#     Edge 16, Type (0, 1), BuildingBlock: AJUNOK_clean_linker_0, # of connection points: 2
#     Edge 17, Type (0, 1), BuildingBlock: AJUNOK_clean_linker_0, # of connection points: 2
# Relax obj value: 0.107
# Max RMSD: 0.114
# Mean RMSD: 0.110
data_MOF--net-tsx--node1-FUNLAD_clean_sbu_0--node2-INOVEN_clean_linker_0--edge1-AJUNOK_clean_linker_0
_symmetry_space_group_name_H-M    P1
_symmetry_Int_Tables_number       1
_symmetry_cell_setting            triclinic
loop_
_symmetry_equiv_pos_as_xyz
'x, y, z'
_cell_length_a     13.771826
_cell_length_b     15.415884
_cell_length_c     30.830011
_cell_angle_alpha  90.878791
_cell_angle_beta   100.9899
_cell_angle_gamma 90.042967
loop_
_atom_site_label
_atom_site_type_symbol
_atom_site_fract_x
_atom_site_fract_y
_atom_site_fract_z
_atom_type_partial_charge
C0 C 0.86699 0.88312 -0.00574 0.0
N1 N 0.08561 1.00552 0.08752 0.0
C2 C 0.01603 0.02492 0.11207 0.0
C3 C 0.04265 0.03406 0.15776 0.0
C4 C 0.14135 0.02221 0.17817 0.0
C5 C 0.21186 1.00141 0.1525 0.0
C6 C 0.18225 0.99401 0.10668 0.0
Zn7 Zn 0.04218 0.99988 0.02084 0.0
C8 C 0.14769 0.87131 0.97705 0.0
N9 N 0.94286 0.99978 0.8825 0.0
C10 C 0.84614 0.99685 0.86186 0.0
C11 C 0.01689 1.00715 0.85918 0.0
C12 C 0.9952 0.01262 0.81339 0.0
C13 C 0.89656 0.01032 0.79143 0.0
C14 C 0.82108 1.00183 0.81578 0.0
Zn15 Zn 0.98401 0.99899 0.94954 0.0
O16 O 0.9236 0.91856 0.02702 0.0
C17 C 0.88415 0.13203 -0.00868 0.0
O18 O 0.87961 0.898 0.95518 0.0
H19 H 0.09318 0.00941 0.87616 0.0
H20 H 0.93965 0.0334 0.09621 0.0
H21 H 0.78857 0.99128 0.88112 0.0
O22 O 0.95084 0.11165 0.02396 0.0
O23 O 0.87625 0.09019 0.95515 0.0
H24 H 0.23633 0.97922 0.08643 0.0
O25 O 0.0868 0.10397 0.94617 0.0
O26 O 0.15743 0.08127 0.0149 0.0
O27 O 0.09498 0.90766 0.94413 0.0
O28 O 0.13646 0.89149 0.01593 0.0
C29 C 0.15467 0.12163 0.97928 0.0
H30 H 0.98655 0.04869 0.17709 0.0
H31 H 0.28844 0.99075 0.16773 0.0
H32 H 0.05486 0.01843 0.7952 0.0
H33 H 0.7442 0.99916 0.7994 0.0
C34 C 0.41981 0.37851 0.51273 0.0
N35 N 0.62957 0.52799 0.59822 0.0
C36 C 0.55867 0.55056 0.62153 0.0
C37 C 0.58316 0.56386 0.66704 0.0
C38 C 0.68103 0.55227 0.68875 0.0
C39 C 0.75317 0.5293 0.66428 0.0
C40 C 0.72581 0.51848 0.6185 0.0
Zn41 Zn 0.58721 0.50846 0.53188 0.0
C42 C 0.69982 0.37064 0.49562 0.0
N43 N 0.48906 0.47229 0.39345 0.0
C44 C 0.393 0.47869 0.37235 0.0
C45 C 0.56376 0.46583 0.37036 0.0
C46 C 0.54362 0.4665 0.32441 0.0
C47 C 0.44596 0.47574 0.30195 0.0
C48 C 0.36965 0.48118 0.32616 0.0
Zn49 Zn 0.52976 0.48591 0.46051 0.0
O50 O 0.47729 0.42079 0.54282 0.0
C51 C 0.42112 0.62716 0.49362 0.0
O52 O 0.42784 0.38743 0.4725 0.0
H53 H 0.63974 0.46293 0.38758 0.0
H54 H 0.4825 0.55674 0.60497 0.0
H55 H 0.33477 0.48434 0.39131 0.0
O56 O 0.48403 0.61442 0.52883 0.0
O57 O 0.42118 0.57828 0.46026 0.0
H58 H 0.78109 0.50112 0.59929 0.0
O59 O 0.63002 0.58943 0.45061 0.0
O60 O 0.6932 0.59527 0.5215 0.0
O61 O 0.64059 0.39222 0.46083 0.0
O62 O 0.69308 0.40612 0.53245 0.0
C63 C 0.69152 0.62206 0.48282 0.0
H64 H 0.5256 0.57964 0.68539 0.0
H65 H 0.82908 0.51854 0.68048 0.0
H66 H 0.60413 0.4626 0.30657 0.0
H67 H 0.29335 0.48785 0.30957 0.0
H68 H 0.12976 0.97255 0.48447 0.0
H69 H 0.28445 0.91365 0.37988 0.0
H70 H 0.07004 0.12001 0.36526 0.0
N71 N 0.02035 0.10001 0.44404 0.0
N72 N 0.01585 0.18072 0.44429 0.0
C73 C 0.145 0.98718 0.45224 0.0
C74 C 0.2139 0.93723 0.4353 0.0
C75 C 0.09532 0.05492 0.42753 0.0
C76 C 0.11382 0.0716 0.38526 0.0
C77 C 0.18128 0.01996 0.36747 0.0
C78 C 0.233 0.95458 0.39335 0.0
H79 H 0.97019 0.97998 0.4913 0.0
H80 H 0.78776 0.91372 0.58342 0.0
H81 H 1.00676 0.11547 0.6165 0.0
N82 N 0.07344 0.106 0.53953 0.0
N83 N 0.11201 0.16953 0.56196 0.0
C84 C 0.9477 0.9928 0.52237 0.0
C85 C 0.8725 0.94199 0.53356 0.0
C86 C 0.99494 0.05739 0.55151 0.0
C87 C 0.96674 0.06947 0.59274 0.0
C88 C 0.89213 0.01755 0.60462 0.0
C89 C 0.84373 0.95554 0.57426 0.0
H90 H 0.5849 0.47205 0.98019 0.0
H91 H 0.78969 0.43735 0.89304 0.0
H92 H 0.56108 0.63057 0.86542 0.0
N93 N 0.48695 0.60384 0.93853 0.0
N94 N 0.47097 0.68201 0.93039 0.0
C95 C 0.61168 0.4913 0.95104 0.0
C96 C 0.69317 0.44866 0.94001 0.0
C97 C 0.56702 0.55975 0.92541 0.0
C98 C 0.60092 0.58219 0.88689 0.0
C99 C 0.68033 0.53712 0.87439 0.0
C100 C 0.72857 0.47287 0.90228 0.0
H101 H 0.42442 0.4851 -0.01205 0.0
H102 H 0.31928 0.38127 0.0984 0.0
H103 H 0.50235 0.61016 0.11587 0.0
N104 N 0.53455 0.61041 0.03196 0.0
N105 N 0.56205 0.68284 0.04829 0.0
C106 C 0.41897 0.48994 0.02239 0.0
C107 C 0.36529 0.42713 0.03993 0.0
C108 C 0.46866 0.55631 0.04946 0.0
C109 C 0.4611 0.56115 0.09434 0.0
C110 C 0.40712 0.49786 0.11217 0.0
C111 C 0.3592 0.43142 0.08466 0.0
C112 C 0.31475 0.19382 0.0073 0.0
C113 C 0.21996 0.19748 0.98057 0.0
C114 C 0.36556 0.26964 0.02344 0.0
C115 C 0.3232 0.35134 0.01326 0.0
H116 H 0.34621 0.13195 0.0188 0.0
H117 H 0.43518 0.2643 0.04653 0.0
S118 S 0.08405 0.39652 0.93959 0.0
N119 N 0.09106 0.2895 0.9404 0.0
N120 N 0.18749 0.43261 0.97098 0.0
C121 C 0.23329 0.35634 0.98315 0.0
C122 C 0.18141 0.27895 0.96653 0.0
C123 C 0.23579 0.73068 0.9712 0.0
C124 C 0.23424 0.82165 0.96975 0.0
C125 C 0.31398 0.6839 0.95868 0.0
C126 C 0.39239 0.72729 0.94442 0.0
H127 H 0.17512 0.69565 0.98072 0.0
H128 H 0.31165 0.61378 0.95909 0.0
S129 S 0.42497 0.96441 0.93808 0.0
N130 N 0.31907 0.95312 0.95517 0.0
N131 N 0.46576 0.86505 0.93195 0.0
C132 C 0.39227 0.81786 0.94409 0.0
C133 C 0.31325 0.86522 0.95672 0.0
C134 C 0.77444 0.74349 -0.00597 0.0
C135 C 0.78154 0.83315 0.00253 0.0
C136 C 0.70149 0.69391 0.00855 0.0
C137 C 0.63244 0.73295 0.03117 0.0
H138 H 0.82825 0.71103 0.97806 0.0
H139 H 0.7019 0.62441 0.00373 0.0
S140 S 0.61572 0.96626 0.05804 0.0
N141 N 0.71151 0.95954 0.03303 0.0
N142 N 0.57309 0.86622 0.05917 0.0
C143 C 0.63725 0.82265 0.03842 0.0
C144 C 0.7119 0.8729 0.02421 0.0
C145 C 0.88206 0.29157 -0.00222 0.0
C146 C 0.82906 0.21304 -0.00842 0.0
C147 C 0.83577 0.36985 0.98378 0.0
C148 C 0.73488 0.37164 0.96435 0.0
H149 H 0.96137 0.2915 0.0097 0.0
H150 H 0.88014 0.42836 0.98571 0.0
S151 S 0.5613 0.18511 0.94752 0.0
N152 N 0.66945 0.14244 0.96909 0.0
N153 N 0.58112 0.29037 0.94444 0.0
C154 C 0.67935 0.29474 0.96199 0.0
C155 C 0.72694 0.21494 0.97522 0.0
C156 C 0.84591 0.70742 0.49995 0.0
C157 C 0.74631 0.70216 0.47864 0.0
C158 C 0.88998 0.78766 0.51353 0.0
C159 C 0.83509 0.86466 0.5069 0.0
H160 H 0.88716 0.64876 0.5097 0.0
H161 H 0.96448 0.78874 0.53287 0.0
S162 S 0.57621 0.88668 0.44777 0.0
N163 N 0.59772 0.78126 0.44697 0.0
N164 N 0.68027 0.93231 0.47371 0.0
C165 C 0.73839 0.86111 0.48233 0.0
C166 C 0.69406 0.77951 0.4677 0.0
C167 C 0.76975 0.23144 0.4737 0.0
C168 C 0.78495 0.31641 0.49082 0.0
C169 C 0.84651 0.18536 0.45977 0.0
C170 C 0.93963 0.2244 0.46101 0.0
H171 H 0.69732 0.20153 0.46984 0.0
H172 H 0.83168 0.12039 0.44627 0.0
S173 S 0.01663 0.44455 0.50329 0.0
N174 N 0.9005 0.43638 0.50966 0.0
N175 N 0.04317 0.35109 0.48135 0.0
C176 C 0.95579 0.30852 0.47857 0.0
C177 C 0.87885 0.3543 0.49407 0.0
C178 C 0.30984 0.24655 0.50213 0.0
C179 C 0.34074 0.32425 0.5251 0.0
C180 C 0.2365 0.19426 0.5147 0.0
C181 C 0.18952 0.21923 0.54976 0.0
H182 H 0.3439 0.22516 0.47493 0.0
H183 H 0.21736 0.13393 0.49716 0.0
S184 S 0.24002 0.41783 0.61906 0.0
N185 N 0.31728 0.42387 0.58429 0.0
N186 N 0.17787 0.3263 0.60655 0.0
C187 C 0.21935 0.29657 0.57261 0.0
C188 C 0.29495 0.34909 0.56053 0.0
C189 C 0.27146 0.70162 0.4545 0.0
C190 C 0.35639 0.70393 0.48812 0.0
C191 C 0.22213 0.77767 0.43958 0.0
C192 C 0.2556 0.85854 0.4579 0.0
H193 H 0.24627 0.64108 0.43774 0.0
H194 H 0.16036 0.77371 0.41195 0.0
S195 S 0.46625 0.8998 0.55006 0.0
N196 N 0.46619 0.79349 0.54213 0.0
N197 N 0.37185 0.93707 0.51387 0.0
C198 C 0.33527 0.86173 0.49376 0.0
C199 C 0.386 0.784 0.50908 0.0
C200 C 0.16882 0.94566 0.24908 0.0
C201 C 0.16736 0.02391 0.22655 0.0
C202 C 0.17724 0.94533 0.29492 0.0
C203 C 0.1852 0.02338 0.31982 0.0
H204 H 0.15885 0.88453 0.23091 0.0
H205 H 0.17281 0.88346 0.31063 0.0
S206 S 0.19597 0.24511 0.27586 0.0
N207 N 0.18089 0.18085 0.23165 0.0
N208 N 0.19983 0.18066 0.31851 0.0
C209 C 0.18865 0.10203 0.29762 0.0
C210 C 0.17908 0.10219 0.25075 0.0
C211 C 0.87824 0.93646 0.71854 0.0
C212 C 0.87515 0.01347 0.74295 0.0
C213 C 0.87858 0.93853 0.67324 0.0
C214 C 0.87613 0.01783 0.65087 0.0
H215 H 0.88543 0.87454 0.73503 0.0
H216 H 0.88627 0.87769 0.65618 0.0
S217 S 0.85709 0.23695 0.69989 0.0
N218 N 0.86267 0.17045 0.74184 0.0
N219 N 0.86146 0.17477 0.65615 0.0
C220 C 0.86773 0.0951 0.67471 0.0
C221 C 0.86763 0.09281 0.72094 0.0
C222 C 0.71055 0.47319 0.75891 0.0
C223 C 0.70305 0.55277 0.73725 0.0
C224 C 0.70906 0.46951 0.804 0.0
C225 C 0.70097 0.54551 0.8291 0.0
H226 H 0.71109 0.41301 0.7403 0.0
H227 H 0.70792 0.40608 0.81853 0.0
S228 S 0.69621 0.77102 0.78833 0.0
N229 N 0.69755 0.70963 0.74402 0.0
N230 N 0.69878 0.70351 0.82967 0.0
C231 C 0.70105 0.62608 0.80823 0.0
C232 C 0.70112 0.62954 0.76203 0.0
C233 C 0.45246 0.41094 0.22833 0.0
C234 C 0.42597 0.48078 0.25334 0.0
C235 C 0.44437 0.41696 0.18259 0.0
C236 C 0.41085 0.4935 0.16035 0.0
H237 H 0.48105 0.35172 0.24441 0.0
H238 H 0.46688 0.36196 0.16459 0.0
S239 S 0.33072 0.69416 0.21093 0.0
N240 N 0.36312 0.62807 0.2529 0.0
N241 N 0.34879 0.6398 0.16653 0.0
C242 C 0.38303 0.56352 0.18491 0.0
C243 C 0.3901 0.55695 0.23154 0.0
loop_
_geom_bond_atom_site_label_1
_geom_bond_atom_site_label_2
_geom_bond_distance
_geom_bond_site_symmetry_2
_ccdc_geom_bond_type
C0 O16 1.263 . S
C0 O18 1.240 1_554 S
N1 C2 1.333 1_445 S
N1 C6 1.307 . S
N1 Zn7 2.020 . S
C2 N1 1.333 1_665 S
C2 C3 1.379 . S
C2 H20 0.952 . S
C3 C2 1.379 . S
C3 C4 1.390 1_665 S
C3 H30 0.949 . S
C4 C3 1.390 1_445 S
C4 C5 1.357 . S
C5 C4 1.357 . S
C5 C6 1.370 . S
C5 H31 0.950 . S
C6 N1 1.307 . S
C6 C5 1.370 . S
C6 H24 0.948 . S
Zn7 N1 2.020 . S
Zn7 O16 2.039 1_445 S
Zn7 O22 2.034 1_455 S
Zn7 O26 2.025 . S
Zn7 O28 2.024 1_545 S
C8 O27 1.246 1_554 S
C8 O28 1.249 . S
N9 C10 1.307 1_545 S
N9 C11 1.333 1_655 S
N9 Zn15 2.020 1_655 S
C10 N9 1.307 1_565 S
C10 C14 1.370 . S
C10 H21 0.948 . S
C11 N9 1.333 1_455 S
C11 C12 1.379 . S
C11 H19 0.952 . S
C12 C11 1.379 . S
C12 C13 1.390 1_455 S
C12 H32 0.949 . S
C13 C12 1.390 1_655 S
C13 C14 1.357 1_545 S
C14 C10 1.370 . S
C14 C13 1.357 1_565 S
C14 H33 0.950 . S
Zn15 N9 2.020 1_455 S
Zn15 O18 2.025 1_445 S
Zn15 O23 2.024 1_455 S
Zn15 O25 2.039 . S
Zn15 O27 2.034 1_545 S
O16 C0 1.263 . S
O16 Zn7 2.039 1_665 S
C17 O22 1.227 1_556 S
C17 O23 1.271 . S
O18 C0 1.240 1_556 S
O18 Zn15 2.025 1_665 S
H19 C11 0.952 . S
H20 C2 0.952 . S
H21 C10 0.948 . S
O22 Zn7 2.034 1_655 S
O22 C17 1.227 1_554 S
O23 Zn15 2.024 1_655 S
O23 C17 1.271 . S
H24 C6 0.948 . S
O25 Zn15 2.039 . S
O25 C29 1.251 1_556 S
O26 Zn7 2.025 . S
O26 C29 1.254 . S
O27 C8 1.246 1_556 S
O27 Zn15 2.034 1_565 S
O28 Zn7 2.024 1_565 S
O28 C8 1.249 . S
C29 O25 1.251 1_554 S
C29 O26 1.254 . S
H30 C3 0.949 . S
H31 C5 0.950 . S
H32 C12 0.949 . S
H33 C14 0.950 . S
C34 O50 1.251 . S
C34 O52 1.254 . S
N35 C36 1.333 . S
N35 C40 1.307 . S
N35 Zn41 2.020 . S
C36 N35 1.333 . S
C36 C37 1.379 . S
C36 H54 0.952 . S
C37 C36 1.379 . S
C37 C38 1.390 . S
C37 H64 0.949 . S
C38 C37 1.390 . S
C38 C39 1.357 . S
C39 C38 1.357 . S
C39 C40 1.370 . S
C39 H65 0.950 . S
C40 N35 1.307 . S
C40 C39 1.370 . S
C40 H58 0.948 . S
Zn41 N35 2.020 . S
Zn41 O50 2.039 . S
Zn41 O56 2.034 . S
Zn41 O60 2.025 . S
Zn41 O62 2.024 . S
C42 O61 1.246 . S
C42 O62 1.249 . S
N43 C44 1.307 . S
N43 C45 1.333 . S
N43 Zn49 2.020 . S
C44 N43 1.307 . S
C44 C48 1.370 . S
C44 H55 0.948 . S
C45 N43 1.333 . S
C45 C46 1.379 . S
C45 H53 0.952 . S
C46 C45 1.379 . S
C46 C47 1.390 . S
C46 H66 0.949 . S
C47 C46 1.390 . S
C47 C48 1.357 . S
C48 C44 1.370 . S
C48 C47 1.357 . S
C48 H67 0.950 . S
Zn49 N43 2.020 . S
Zn49 O52 2.025 . S
Zn49 O57 2.024 . S
Zn49 O59 2.039 . S
Zn49 O61 2.034 . S
O50 C34 1.251 . S
O50 Zn41 2.039 . S
C51 O56 1.246 . S
C51 O57 1.249 . S
O52 C34 1.254 . S
O52 Zn49 2.025 . S
H53 C45 0.952 . S
H54 C36 0.952 . S
H55 C44 0.948 . S
O56 Zn41 2.034 . S
O56 C51 1.246 . S
O57 Zn49 2.024 . S
O57 C51 1.249 . S
H58 C40 0.948 . S
O59 Zn49 2.039 . S
O59 C63 1.251 . S
O60 Zn41 2.025 . S
O60 C63 1.254 . S
O61 C42 1.246 . S
O61 Zn49 2.034 . S
O62 Zn41 2.024 . S
O62 C42 1.249 . S
C63 O59 1.251 . S
C63 O60 1.254 . S
H64 C37 0.949 . S
H65 C39 0.950 . S
H66 C46 0.949 . S
H67 C48 0.950 . S
H68 C73 0.929 . S
H69 C78 0.931 . S
H70 C76 0.930 1_655 S
N71 N72 1.234 . S
N71 C75 1.453 1_655 S
N72 N71 1.234 . S
C73 H68 0.929 . S
C73 C74 1.373 . S
C73 C75 1.368 1_565 S
C74 C73 1.373 . S
C74 C78 1.397 . S
C75 N71 1.453 1_455 S
C75 C73 1.368 1_545 S
C75 C76 1.373 . S
C76 H70 0.930 1_455 S
C76 C75 1.373 . S
C76 C77 1.371 1_545 S
C77 C76 1.371 1_565 S
C77 C78 1.383 . S
C78 H69 0.931 . S
C78 C74 1.397 . S
C78 C77 1.383 . S
H79 C84 0.929 . S
H80 C89 0.931 . S
H81 C87 0.930 . S
N82 N83 1.234 . S
N82 C86 1.453 . S
N83 N82 1.234 . S
C84 H79 0.929 . S
C84 C85 1.373 . S
C84 C86 1.368 1_665 S
C85 C84 1.373 . S
C85 C89 1.397 . S
C86 N82 1.453 . S
C86 C84 1.368 1_445 S
C86 C87 1.373 . S
C87 H81 0.930 . S
C87 C86 1.373 . S
C87 C88 1.371 1_455 S
C88 C87 1.371 1_655 S
C88 C89 1.383 1_545 S
C89 H80 0.931 . S
C89 C85 1.397 . S
C89 C88 1.383 1_565 S
H90 C95 0.929 . S
H91 C100 0.931 . S
H92 C98 0.930 . S
N93 N94 1.234 1_554 S
N93 C97 1.453 1_554 S
N94 N93 1.234 1_556 S
C95 H90 0.929 . S
C95 C96 1.373 1_554 S
C95 C97 1.368 1_554 S
C96 C95 1.373 1_556 S
C96 C100 1.397 . S
C97 N93 1.453 1_556 S
C97 C95 1.368 1_556 S
C97 C98 1.373 . S
C98 H92 0.930 . S
C98 C97 1.373 . S
C98 C99 1.371 . S
C99 C98 1.371 . S
C99 C100 1.383 . S
C100 H91 0.931 . S
C100 C96 1.397 . S
C100 C99 1.383 . S
H101 C106 0.929 1_556 S
H102 C111 0.931 . S
H103 C109 0.930 . S
N104 N105 1.230 1_556 S
N104 C108 1.444 1_556 S
N105 N104 1.230 1_554 S
C106 H101 0.929 1_554 S
C106 C107 1.373 . S
C106 C108 1.368 . S
C107 C106 1.373 . S
C107 C111 1.397 . S
C108 N104 1.444 1_554 S
C108 C106 1.368 . S
C108 C109 1.373 . S
C109 H103 0.930 . S
C109 C108 1.373 . S
C109 C110 1.371 . S
C110 C109 1.371 . S
C110 C111 1.383 . S
C111 H102 0.931 . S
C111 C107 1.397 . S
C111 C110 1.383 . S
C112 C113 1.369 . S
C112 C114 1.419 . S
C112 H116 0.930 . S
C113 C112 1.369 . S
C113 C122 1.429 . S
C114 C112 1.419 . S
C114 C115 1.363 . S
C114 H117 0.929 . S
C115 C114 1.363 . S
C115 C121 1.428 . S
H116 C112 0.930 . S
H117 C114 0.929 . S
S118 N119 1.613 . S
S118 N120 1.610 . S
N119 S118 1.613 . S
N119 C122 1.350 1_556 S
N120 S118 1.610 . S
N120 C121 1.351 1_556 S
C121 C115 1.428 . S
C121 N120 1.351 1_554 S
C121 C122 1.434 . S
C122 C113 1.429 . S
C122 N119 1.350 1_554 S
C122 C121 1.434 . S
C123 C124 1.369 . S
C123 C125 1.419 . S
C123 H127 0.930 . S
C124 C123 1.369 . S
C124 C133 1.429 1_554 S
C125 C123 1.419 . S
C125 C126 1.363 . S
C125 H128 0.929 . S
C126 C125 1.363 . S
C126 C132 1.428 1_554 S
H127 C123 0.930 . S
H128 C125 0.929 . S
S129 N130 1.613 . S
S129 N131 1.610 . S
N130 S129 1.613 . S
N130 C133 1.350 . S
N131 S129 1.610 . S
N131 C132 1.351 . S
C132 C126 1.428 1_556 S
C132 N131 1.351 . S
C132 C133 1.434 . S
C133 C124 1.429 1_556 S
C133 N130 1.350 . S
C133 C132 1.434 . S
C134 C135 1.365 1_556 S
C134 C136 1.419 . S
C134 H138 0.930 . S
C135 C134 1.365 1_554 S
C135 C144 1.436 . S
C136 C134 1.419 . S
C136 C137 1.363 1_556 S
C136 H139 0.929 . S
C137 C136 1.363 1_554 S
C137 C143 1.428 . S
H138 C134 0.930 . S
H139 C136 0.929 . S
S140 N141 1.613 . S
S140 N142 1.610 . S
N141 S140 1.613 . S
N141 C144 1.350 . S
N142 S140 1.610 . S
N142 C143 1.351 . S
C143 C137 1.428 . S
C143 N142 1.351 . S
C143 C144 1.434 . S
C144 C135 1.436 . S
C144 N141 1.350 . S
C144 C143 1.434 . S
C145 C146 1.369 1_554 S
C145 C147 1.419 . S
C145 H149 0.930 . S
C146 C145 1.369 1_556 S
C146 C155 1.429 . S
C147 C145 1.419 . S
C147 C148 1.363 1_554 S
C147 H150 0.929 . S
C148 C147 1.363 1_556 S
C148 C154 1.428 . S
H149 C145 0.930 . S
H150 C147 0.929 . S
S151 N152 1.613 . S
S151 N153 1.610 . S
N152 S151 1.613 . S
N152 C155 1.350 . S
N153 S151 1.610 . S
N153 C154 1.351 . S
C154 C148 1.428 . S
C154 N153 1.351 . S
C154 C155 1.434 . S
C155 C146 1.429 . S
C155 N152 1.350 . S
C155 C154 1.434 . S
C156 C157 1.369 . S
C156 C158 1.419 . S
C156 H160 0.930 . S
C157 C156 1.369 . S
C157 C166 1.429 . S
C158 C156 1.419 . S
C158 C159 1.363 . S
C158 H161 0.929 . S
C159 C158 1.363 . S
C159 C165 1.428 . S
H160 C156 0.930 . S
H161 C158 0.929 . S
S162 N163 1.613 . S
S162 N164 1.610 . S
N163 S162 1.613 . S
N163 C166 1.350 . S
N164 S162 1.610 . S
N164 C165 1.351 . S
C165 C159 1.428 . S
C165 N164 1.351 . S
C165 C166 1.434 . S
C166 C157 1.429 . S
C166 N163 1.350 . S
C166 C165 1.434 . S
C167 C168 1.369 . S
C167 C169 1.419 . S
C167 H171 0.930 . S
C168 C167 1.369 . S
C168 C177 1.429 . S
C169 C167 1.419 . S
C169 C170 1.363 . S
C169 H172 0.929 . S
C170 C169 1.363 . S
C170 C176 1.428 . S
H171 C167 0.930 . S
H172 C169 0.929 . S
S173 N174 1.613 . S
S173 N175 1.610 . S
N174 S173 1.613 . S
N174 C177 1.350 . S
N175 S173 1.610 . S
N175 C176 1.351 . S
C176 C170 1.428 . S
C176 N175 1.351 . S
C176 C177 1.434 . S
C177 C168 1.429 . S
C177 N174 1.350 . S
C177 C176 1.434 . S
C178 C179 1.369 . S
C178 C180 1.419 . S
C178 H182 0.930 . S
C179 C178 1.369 . S
C179 C188 1.429 . S
C180 C178 1.419 . S
C180 C181 1.363 . S
C180 H183 0.929 . S
C181 C180 1.363 . S
C181 C187 1.428 . S
H182 C178 0.930 . S
H183 C180 0.929 . S
S184 N185 1.613 . S
S184 N186 1.610 . S
N185 S184 1.613 . S
N185 C188 1.350 . S
N186 S184 1.610 . S
N186 C187 1.351 . S
C187 C181 1.428 . S
C187 N186 1.351 . S
C187 C188 1.434 . S
C188 C179 1.429 . S
C188 N185 1.350 . S
C188 C187 1.434 . S
C189 C190 1.369 . S
C189 C191 1.419 . S
C189 H193 0.930 . S
C190 C189 1.369 . S
C190 C199 1.429 . S
C191 C189 1.419 . S
C191 C192 1.363 . S
C191 H194 0.929 . S
C192 C191 1.363 . S
C192 C198 1.428 . S
H193 C189 0.930 . S
H194 C191 0.929 . S
S195 N196 1.613 . S
S195 N197 1.610 . S
N196 S195 1.613 . S
N196 C199 1.350 . S
N197 S195 1.610 . S
N197 C198 1.351 . S
C198 C192 1.428 . S
C198 N197 1.351 . S
C198 C199 1.434 . S
C199 C190 1.429 . S
C199 N196 1.350 . S
C199 C198 1.434 . S
C200 C201 1.369 1_565 S
C200 C202 1.419 . S
C200 H204 0.930 . S
C201 C200 1.369 1_545 S
C201 C210 1.428 . S
C202 C200 1.419 . S
C202 C203 1.363 1_565 S
C202 H205 0.929 . S
C203 C202 1.363 1_545 S
C203 C209 1.428 1_455 S
H204 C200 0.930 . S
H205 C202 0.929 . S
S206 N207 1.613 . S
S206 N208 1.610 . S
N207 S206 1.613 . S
N207 C210 1.350 1_655 S
N208 S206 1.610 . S
N208 C209 1.351 . S
C209 C203 1.428 1_655 S
C209 N208 1.351 . S
C209 C210 1.434 1_655 S
C210 C201 1.428 . S
C210 N207 1.350 1_455 S
C210 C209 1.434 1_455 S
C211 C212 1.369 1_565 S
C211 C213 1.419 . S
C211 H215 0.930 . S
C212 C211 1.369 1_545 S
C212 C221 1.429 1_655 S
C213 C211 1.419 . S
C213 C214 1.363 1_565 S
C213 H216 0.929 . S
C214 C213 1.363 1_545 S
C214 C220 1.428 1_655 S
H215 C211 0.930 . S
H216 C213 0.929 . S
S217 N218 1.613 . S
S217 N219 1.610 . S
N218 S217 1.613 . S
N218 C221 1.350 . S
N219 S217 1.610 . S
N219 C220 1.351 . S
C220 C214 1.428 1_455 S
C220 N219 1.351 . S
C220 C221 1.434 . S
C221 C212 1.429 1_455 S
C221 N218 1.350 . S
C221 C220 1.434 . S
C222 C223 1.369 . S
C222 C224 1.419 . S
C222 H226 0.930 . S
C223 C222 1.369 . S
C223 C232 1.429 . S
C224 C222 1.419 . S
C224 C225 1.363 . S
C224 H227 0.929 . S
C225 C224 1.363 . S
C225 C231 1.428 . S
H226 C222 0.930 . S
H227 C224 0.929 . S
S228 N229 1.613 . S
S228 N230 1.610 . S
N229 S228 1.613 . S
N229 C232 1.350 . S
N230 S228 1.610 . S
N230 C231 1.351 . S
C231 C225 1.428 . S
C231 N230 1.351 . S
C231 C232 1.434 . S
C232 C223 1.429 . S
C232 N229 1.350 . S
C232 C231 1.434 . S
C233 C234 1.369 . S
C233 C235 1.419 . S
C233 H237 0.930 . S
C234 C233 1.369 . S
C234 C243 1.429 . S
C235 C233 1.419 . S
C235 C236 1.363 . S
C235 H238 0.929 . S
C236 C235 1.363 . S
C236 C242 1.428 . S
H237 C233 0.930 . S
H238 C235 0.929 . S
S239 N240 1.613 . S
S239 N241 1.610 . S
N240 S239 1.613 . S
N240 C243 1.350 . S
N241 S239 1.610 . S
N241 C242 1.351 . S
C242 C236 1.428 . S
C242 N241 1.351 . S
C242 C243 1.434 . S
C243 C234 1.429 . S
C243 N240 1.350 . S
C243 C242 1.434 . S
C115 C107 1.474 . S
C113 C29 1.509 . S
C124 C8 1.457 . S
C126 N94 1.393 1_554 S
C135 C0 1.461 . S
C137 N105 1.400 . S
C146 C17 1.507 . S
C148 C96 1.473 . S
C157 C63 1.510 . S
C159 C85 1.475 . S
C168 C42 1.456 . S
C170 N72 1.398 . S
C181 N83 1.400 . S
C179 C34 1.461 . S
C192 C74 1.477 . S
C190 C51 1.510 . S
C201 C4 1.518 . S
C203 C77 1.514 1_545 S
C212 C13 1.512 . S
C214 C88 1.508 . S
C225 C99 1.514 . S
C223 C38 1.518 . S
C234 C47 1.512 . S
C236 C110 1.507 . S
