# Generated by pormake.
# Topology pyr, (3,6)-cn, num edge types: 1
# Building blocks:
#     Node 0, Type 0, BuildingBlock: BETDIP_clean_linker_0, # of connection points: 3
#     Node 1, Type 0, BuildingBlock: BETDIP_clean_linker_0, # of connection points: 3
#     Node 2, Type 0, BuildingBlock: BETDIP_clean_linker_0, # of connection points: 3
#     Node 3, Type 0, BuildingBlock: BETDIP_clean_linker_0, # of connection points: 3
#     Node 4, Type 0, BuildingBlock: BETDIP_clean_linker_0, # of connection points: 3
#     Node 5, Type 0, BuildingBlock: BETDIP_clean_linker_0, # of connection points: 3
#     Node 6, Type 0, BuildingBlock: BETDIP_clean_linker_0, # of connection points: 3
#     Node 7, Type 0, BuildingBlock: BETDIP_clean_linker_0, # of connection points: 3
#     Node 8, Type 1, BuildingBlock: FUNLAD_clean_sbu_0, # of connection points: 6
#     Node 9, Type 1, BuildingBlock: FUNLAD_clean_sbu_0, # of connection points: 6
#     Node 10, Type 1, BuildingBlock: FUNLAD_clean_sbu_0, # of connection points: 6
#     Node 11, Type 1, BuildingBlock: FUNLAD_clean_sbu_0, # of connection points: 6
#     Edge 12, Type (0, 1), None
#     Edge 13, Type (0, 1), None
#     Edge 14, Type (0, 1), None
#     Edge 15, Type (0, 1), None
#     Edge 16, Type (0, 1), None
#     Edge 17, Type (0, 1), None
#     Edge 18, Type (0, 1), None
#     Edge 19, Type (0, 1), None
#     Edge 20, Type (0, 1), None
#     Edge 21, Type (0, 1), None
#     Edge 22, Type (0, 1), None
#     Edge 23, Type (0, 1), None
#     Edge 24, Type (0, 1), None
#     Edge 25, Type (0, 1), None
#     Edge 26, Type (0, 1), None
#     Edge 27, Type (0, 1), None
#     Edge 28, Type (0, 1), None
#     Edge 29, Type (0, 1), None
#     Edge 30, Type (0, 1), None
#     Edge 31, Type (0, 1), None
#     Edge 32, Type (0, 1), None
#     Edge 33, Type (0, 1), None
#     Edge 34, Type (0, 1), None
#     Edge 35, Type (0, 1), None
# Relax obj value: 0.534
# Max RMSD: 0.219
# Mean RMSD: 0.145
data_MOF--net-pry--node1-FUNLAD_clean_sbu_0--node2-BETDIP_clean_linker_0--edge1-none
_symmetry_space_group_name_H-M    P1
_symmetry_Int_Tables_number       1
_symmetry_cell_setting            triclinic
loop_
_symmetry_equiv_pos_as_xyz
'x, y, z'
_cell_length_a     16.048133
_cell_length_b     16.476778
_cell_length_c     15.671585
_cell_angle_alpha  97.112815
_cell_angle_beta   80.509913
_cell_angle_gamma 85.15086
loop_
_atom_site_label
_atom_site_type_symbol
_atom_site_fract_x
_atom_site_fract_y
_atom_site_fract_z
_atom_type_partial_charge
H0 H -0.02431 0.25954 0.44758 0.0
H1 H 0.18546 0.2655 0.24033 0.0
H2 H 0.19445 0.07796 0.40795 0.0
H3 H 0.07308 0.29784 0.1693 0.0
C4 C 0.0467 0.34994 0.21884 0.0
C5 C 0.03735 0.23294 0.41129 0.0
C6 C 0.0792 0.16286 0.43726 0.0
C7 C 0.07403 0.26793 0.33762 0.0
C8 C 0.15536 0.23581 0.29339 0.0
C9 C 0.19968 0.16775 0.31678 0.0
C10 C 0.1605 0.13015 0.38826 0.0
N11 N 0.03114 0.33677 0.30876 0.0
H12 H 0.28834 1.0683 0.93577 0.0
H13 H 0.3058 0.85798 0.74052 0.0
H14 H 0.45996 0.85166 0.93974 0.0
H15 H 0.18656 0.90578 0.72061 0.0
C16 C 0.17353 0.9706 0.74589 0.0
C17 C 0.31627 1.00639 0.90857 0.0
C18 C 0.37923 0.9673 0.94763 0.0
C19 C 0.28633 0.96634 0.83662 0.0
C20 C 0.32421 0.88736 0.79892 0.0
C21 C 0.38585 0.84379 0.83443 0.0
C22 C 0.41213 0.88362 0.91121 0.0
N23 N 0.2178 1.00687 0.80391 0.0
H24 H 0.72405 0.65606 1.1408 0.0
H25 H 0.52497 0.52043 1.06959 0.0
H26 H 0.74433 0.39274 1.13551 0.0
H27 H 0.54875 0.73696 0.9744 0.0
C28 C 0.55962 0.6765 0.99353 0.0
C29 C 0.69726 0.5979 1.13113 0.0
C30 C 0.74145 0.5255 1.14375 0.0
C31 C 0.62405 0.59605 1.09654 0.0
C32 C 0.58836 0.52137 1.08391 0.0
C33 C 0.63107 0.44727 1.0968 0.0
C34 C 0.70963 0.44912 1.12559 0.0
N35 N 0.59202 0.67033 1.07127 0.0
H36 H 0.74154 0.48258 0.66453 0.0
H37 H 0.94655 0.62422 0.59221 0.0
H38 H 0.6904 0.73588 0.63847 0.0
H39 H 0.02016 0.41315 0.51061 0.0
C40 C -0.03513 0.45777 0.51764 0.0
C41 C 0.76498 0.54133 0.65549 0.0
C42 C 0.70868 0.61154 0.66063 0.0
C43 C 0.85055 0.54485 0.6253 0.0
C44 C 0.88004 0.62179 0.61293 0.0
C45 C 0.82389 0.69317 0.62059 0.0
C46 C 0.73733 0.68543 0.64073 0.0
N47 N 0.90458 0.47001 0.59685 0.0
H48 H 0.73735 0.95708 1.15938 0.0
H49 H 0.9476 0.93866 0.94687 0.0
H50 H 0.72218 0.1049 0.95284 0.0
H51 H 0.94208 0.79201 0.99622 0.0
C52 C 0.9266 0.80336 1.06693 0.0
C53 C 0.76544 0.97652 1.09842 0.0
C54 C 0.71879 1.03323 1.06015 0.0
C55 C 0.84667 0.94119 1.05921 0.0
C56 C 0.88435 0.96549 0.97817 0.0
C57 C 0.84056 1.02724 0.93966 0.0
C58 C 0.7575 1.06009 0.98206 0.0
N59 N 0.88645 0.88279 1.10546 0.0
H60 H 0.62342 0.125 0.4318 0.0
H61 H 0.61044 0.33845 0.62281 0.0
H62 H 0.45761 0.34348 0.42134 0.0
H63 H 0.72576 0.28275 0.65556 0.0
C64 C 0.73973 0.21845 0.62781 0.0
C65 C 0.59722 0.18772 0.45762 0.0
C66 C 0.53676 0.22776 0.4165 0.0
C67 C 0.62691 0.22749 0.52977 0.0
C68 C 0.59113 0.30832 0.56515 0.0
C69 C 0.52969 0.35191 0.52794 0.0
C70 C 0.50456 0.31158 0.45118 0.0
N71 N 0.69245 0.18398 0.56463 0.0
H72 H 0.27089 0.50592 0.17169 0.0
H73 H 0.45916 0.66918 0.20836 0.0
H74 H 0.20953 0.76857 0.188 0.0
H75 H 0.54977 0.50988 0.25214 0.0
C76 C 0.48527 0.53666 0.27383 0.0
C77 C 0.29029 0.56755 0.17659 0.0
C78 C 0.23346 0.63526 0.1696 0.0
C79 C 0.36971 0.5809 0.19716 0.0
C80 C 0.3949 0.6594 0.20029 0.0
C81 C 0.33677 0.72703 0.20272 0.0
C82 C 0.25492 0.71586 0.18762 0.0
N83 N 0.42131 0.51804 0.22327 0.0
H84 H -0.03657 0.55373 0.72165 0.0
H85 H 0.16521 0.70175 0.67143 0.0
H86 H 0.21907 0.45354 0.71377 0.0
H87 H 0.89886 0.75762 0.83497 0.0
C88 C 0.95645 0.71536 0.81573 0.0
C89 C 0.0301 0.5564 0.70439 0.0
C90 C 0.0868 0.48851 0.70971 0.0
C91 C 0.0575 0.63411 0.69397 0.0
C92 C 0.14364 0.64167 0.67702 0.0
C93 C 0.2003 0.5756 0.68549 0.0
C94 C 0.17267 0.50046 0.70221 0.0
N95 N 0.00084 0.70596 0.72796 0.0
C96 C 0.04008 0.12936 0.51909 0.0
N97 N 0.00465 0.2583 0.76764 0.0
C98 C 0.08805 0.2638 0.73743 0.0
C99 C 0.11521 0.33778 0.71819 0.0
C100 C 0.0572 0.40897 0.7326 0.0
C101 C -0.02818 0.40175 0.76833 0.0
C102 C 0.94737 0.32613 0.78767 0.0
Zn103 Zn -0.03305 0.1502 0.72447 0.0
C104 C 0.80694 0.17575 0.6497 0.0
N105 N 0.9093 0.9294 0.60161 0.0
C106 C -0.03696 0.86219 0.56249 0.0
C107 C 0.82775 0.92305 0.63771 0.0
C108 C 0.79933 0.84701 0.64326 0.0
C109 C 0.85338 0.77505 0.60714 0.0
C110 C 0.93581 0.78389 0.56357 0.0
Zn111 Zn 0.94637 1.03687 0.64716 0.0
O112 O 0.02999 0.17413 0.59315 0.0
C113 C 0.10407 1.0128 0.72135 0.0
O114 O 0.01153 1.05922 0.51693 0.0
H115 H 0.78691 0.97659 0.67192 0.0
H116 H 0.13246 0.20949 0.71612 0.0
H117 H 0.02848 0.86872 0.53639 0.0
O118 O 0.08066 0.08757 0.75158 0.0
O119 O 0.06085 0.97507 0.67132 0.0
H120 H 0.88103 0.32051 0.81033 0.0
O121 O 0.88524 1.012 0.78144 0.0
O122 O 0.9048 0.12826 0.85462 0.0
O123 O 0.82978 0.10069 0.61902 0.0
O124 O 0.85107 0.2118 0.69986 0.0
C125 C 0.87926 1.05697 0.85515 0.0
H126 H 0.18026 0.33598 0.68577 0.0
H127 H 0.92235 0.45217 0.77942 0.0
H128 H 0.73716 0.84645 0.68185 0.0
H129 H -0.01897 0.73183 0.5348 0.0
C130 C 0.62859 1.0599 1.10201 0.0
N131 N 0.46401 0.26208 1.09805 0.0
C132 C 0.51533 0.26768 1.02062 0.0
C133 C 0.57213 0.32844 1.01666 0.0
C134 C 0.58354 0.37396 1.09522 0.0
C135 C 0.53204 0.36167 0.1725 0.0
C136 C 0.46211 0.3187 0.16843 0.0
Zn137 Zn 0.4571 0.15273 1.14667 0.0
C138 C 0.40779 1.01645 1.02547 0.0
N139 N 0.45792 0.93634 0.25968 0.0
C140 C 0.48983 0.87971 0.1891 0.0
C141 C 0.39006 0.92314 0.31935 0.0
C142 C 0.34414 0.85652 0.30099 0.0
C143 C 0.36802 0.80674 0.21994 0.0
C144 C 0.44064 0.81995 0.16388 0.0
Zn145 Zn 0.45911 1.04616 0.21733 0.0
O146 O 0.5863 0.11979 1.08008 0.0
C147 C 0.50866 0.17936 0.33871 0.0
O148 O 0.59171 1.02094 1.15994 0.0
H149 H 0.36642 0.9684 0.37622 0.0
H150 H 0.51716 0.22179 0.96446 0.0
H151 H 0.54341 0.89011 1.142 0.0
O152 O 0.50281 0.21038 0.26927 0.0
O153 O 0.49462 0.10434 0.3384 0.0
H154 H 0.41812 0.31611 0.22797 0.0
O155 O 0.32792 1.07433 0.27774 0.0
O156 O 0.32593 0.18555 0.21502 0.0
O157 O 0.42266 0.9835 1.09156 0.0
O158 O 0.41278 0.09383 1.02953 0.0
C159 C 0.28807 0.14085 0.26724 0.0
H160 H 0.60989 0.33629 0.95486 0.0
H161 H 0.54458 0.3844 0.23589 0.0
H162 H 0.29061 0.84484 0.34807 0.0
H163 H 0.45876 0.78329 1.10117 0.0
C164 C 0.49258 0.43686 0.57629 0.0
N165 N 0.44339 0.50897 0.84919 0.0
C166 C 0.52441 0.48486 0.85686 0.0
C167 C 0.56644 0.5408 0.90321 0.0
C168 C 0.51818 0.61055 0.95348 0.0
C169 C 0.42937 0.61584 0.96705 0.0
C170 C 0.392 0.56007 0.91522 0.0
Zn171 Zn 0.45063 0.56651 0.73965 0.0
C172 C 0.6192 0.60598 0.67023 0.0
N173 N 0.45778 0.68499 0.51123 0.0
C174 C 0.38629 0.6793 0.47574 0.0
C175 C 0.5353 0.67514 0.45864 0.0
C176 C 0.54484 0.63047 0.37624 0.0
C177 C 0.47291 0.60157 0.34844 0.0
C178 C 0.392 0.63148 0.39542 0.0
Zn179 Zn 0.45495 0.62859 0.62125 0.0
O180 O 0.47924 0.44704 0.65965 0.0
C181 C 0.28753 0.58674 0.68721 0.0
O182 O 0.48569 0.50138 0.53865 0.0
H183 H 0.59155 0.69015 0.48394 0.0
H184 H 0.56166 0.43621 0.80978 0.0
H185 H 0.32422 0.69916 0.51463 0.0
O186 O 0.32378 0.55847 0.74457 0.0
O187 O 0.32822 0.62035 0.62835 0.0
H188 H 0.32471 0.57101 0.91458 0.0
O189 O 0.42797 0.74862 0.70103 0.0
O190 O 0.42397 0.694 0.82091 0.0
O191 O 0.57957 0.63624 0.61683 0.0
O192 O 0.58092 0.5725 0.73082 0.0
C193 C 0.41925 0.75877 0.78426 0.0
H194 H 0.63505 0.53234 0.89647 0.0
H195 H 0.39047 0.66639 1.01008 0.0
H196 H 0.60802 0.61274 0.33827 0.0
H197 H 0.33451 0.61375 0.37413 0.0
C198 C 0.94096 0.73924 1.11202 0.0
N199 N 0.94106 0.64229 0.35543 0.0
C200 C 0.01523 0.62729 0.38559 0.0
C201 C 0.02734 0.56083 0.43107 0.0
C202 C -0.04026 0.51466 0.4526 0.0
C203 C 0.8806 0.5385 0.43096 0.0
C204 C 0.87125 0.60733 0.38864 0.0
Zn205 Zn -0.0371 0.6162 0.22161 0.0
C206 C 0.82698 0.53355 1.15937 0.0
N207 N 0.02997 0.52513 0.95626 0.0
C208 C 0.08885 0.5734 0.92352 0.0
C209 C 0.95231 0.52973 0.93155 0.0
C210 C 0.92306 0.59802 0.89594 0.0
C211 C -0.02111 0.65574 0.87378 0.0
C212 C 0.06346 0.6421 0.88623 0.0
Zn213 Zn 0.01036 0.54703 1.0902 0.0
O214 O 0.92404 0.74272 0.19508 0.0
C215 C 0.14805 0.62148 1.15678 0.0
O216 O -0.02791 0.67062 1.06793 0.0
H217 H 0.91005 0.48339 0.94483 0.0
H218 H 0.06739 0.66338 0.37028 0.0
H219 H 0.15347 0.56451 0.93448 0.0
O220 O 0.0868 0.64822 0.21777 0.0
O221 O 0.13577 0.57497 1.09068 0.0
H222 H 0.80966 0.62667 0.37426 0.0
O223 O 0.04707 0.4282 1.11012 0.0
O224 O 0.00081 0.48779 0.24492 0.0
O225 O 0.88701 0.51097 1.09628 0.0
O226 O 0.83862 0.58535 0.2215 0.0
C227 C 0.03113 0.42314 0.19143 0.0
H228 H 0.08711 0.54842 0.45308 0.0
H229 H 0.82548 0.50726 0.45134 0.0
H230 H 0.85978 0.60244 0.88001 0.0
H231 H 0.10976 0.68296 0.86516 0.0
loop_
_geom_bond_atom_site_label_1
_geom_bond_atom_site_label_2
_geom_bond_distance
_geom_bond_site_symmetry_2
_ccdc_geom_bond_type
H0 C5 0.930 . S
H1 C8 0.930 . S
H2 C10 0.930 . S
H3 C4 1.016 . S
C4 H3 1.016 . S
C4 N11 1.286 . S
C5 H0 0.930 . S
C5 C6 1.397 . S
C5 C7 1.361 . S
C6 C5 1.397 . S
C6 C10 1.390 . S
C7 C5 1.361 . S
C7 C8 1.393 . S
C7 N11 1.413 . S
C8 H1 0.930 . S
C8 C7 1.393 . S
C8 C9 1.399 . S
C9 C8 1.399 . S
C9 C10 1.381 . S
C10 H2 0.930 . S
C10 C6 1.390 . S
C10 C9 1.381 . S
N11 C4 1.286 . S
N11 C7 1.413 . S
H12 C17 0.930 . S
H13 C20 0.930 . S
H14 C22 0.930 . S
H15 C16 1.016 . S
C16 H15 1.016 . S
C16 N23 1.286 . S
C17 H12 0.930 . S
C17 C18 1.397 . S
C17 C19 1.361 . S
C18 C17 1.397 . S
C18 C22 1.390 . S
C19 C17 1.361 . S
C19 C20 1.393 . S
C19 N23 1.413 . S
C20 H13 0.930 . S
C20 C19 1.393 . S
C20 C21 1.399 . S
C21 C20 1.399 . S
C21 C22 1.381 . S
C22 H14 0.930 . S
C22 C18 1.390 . S
C22 C21 1.381 . S
N23 C16 1.286 . S
N23 C19 1.413 . S
H24 C29 0.930 . S
H25 C32 0.930 . S
H26 C34 0.930 1_554 S
H27 C28 1.016 . S
C28 H27 1.016 . S
C28 N35 1.286 . S
C29 H24 0.930 . S
C29 C30 1.397 . S
C29 C31 1.361 . S
C30 C29 1.397 . S
C30 C34 1.390 . S
C31 C29 1.361 . S
C31 C32 1.393 . S
C31 N35 1.413 . S
C32 H25 0.930 . S
C32 C31 1.393 . S
C32 C33 1.399 . S
C33 C32 1.399 . S
C33 C34 1.381 . S
C34 H26 0.930 1_556 S
C34 C30 1.390 . S
C34 C33 1.381 . S
N35 C28 1.286 . S
N35 C31 1.413 . S
H36 C41 0.930 . S
H37 C44 0.930 . S
H38 C46 0.930 . S
H39 C40 1.016 . S
C40 H39 1.016 . S
C40 N47 1.286 . S
C41 H36 0.930 . S
C41 C42 1.397 . S
C41 C43 1.361 . S
C42 C41 1.397 . S
C42 C46 1.390 . S
C43 C41 1.361 . S
C43 C44 1.393 . S
C43 N47 1.413 . S
C44 H37 0.930 . S
C44 C43 1.393 . S
C44 C45 1.399 . S
C45 C44 1.399 . S
C45 C46 1.381 . S
C46 H38 0.930 . S
C46 C42 1.390 . S
C46 C45 1.381 . S
N47 C40 1.286 . S
N47 C43 1.413 . S
H48 C53 0.930 . S
H49 C56 0.930 . S
H50 C58 0.930 1_545 S
H51 C52 1.016 . S
C52 H51 1.016 . S
C52 N59 1.286 . S
C53 H48 0.930 . S
C53 C54 1.397 . S
C53 C55 1.361 . S
C54 C53 1.397 . S
C54 C58 1.390 . S
C55 C53 1.361 . S
C55 C56 1.393 . S
C55 N59 1.413 . S
C56 H49 0.930 . S
C56 C55 1.393 . S
C56 C57 1.399 . S
C57 C56 1.399 . S
C57 C58 1.381 . S
C58 H50 0.930 1_565 S
C58 C54 1.390 . S
C58 C57 1.381 . S
N59 C52 1.286 . S
N59 C55 1.413 . S
H60 C65 0.930 . S
H61 C68 0.930 . S
H62 C70 0.930 . S
H63 C64 1.016 . S
C64 H63 1.016 . S
C64 N71 1.286 . S
C65 H60 0.930 . S
C65 C66 1.397 . S
C65 C67 1.361 . S
C66 C65 1.397 . S
C66 C70 1.390 . S
C67 C65 1.361 . S
C67 C68 1.393 . S
C67 N71 1.413 . S
C68 H61 0.930 . S
C68 C67 1.393 . S
C68 C69 1.399 . S
C69 C68 1.399 . S
C69 C70 1.381 . S
C70 H62 0.930 . S
C70 C66 1.390 . S
C70 C69 1.381 . S
N71 C64 1.286 . S
N71 C67 1.413 . S
H72 C77 0.930 . S
H73 C80 0.930 . S
H74 C82 0.930 1_556 S
H75 C76 1.016 . S
C76 H75 1.016 . S
C76 N83 1.286 . S
C77 H72 0.930 . S
C77 C78 1.397 . S
C77 C79 1.361 . S
C78 C77 1.397 . S
C78 C82 1.390 . S
C79 C77 1.361 . S
C79 C80 1.393 . S
C79 N83 1.413 . S
C80 H73 0.930 . S
C80 C79 1.393 . S
C80 C81 1.399 . S
C81 C80 1.399 . S
C81 C82 1.381 . S
C82 H74 0.930 1_554 S
C82 C78 1.390 . S
C82 C81 1.381 . S
N83 C76 1.286 . S
N83 C79 1.413 . S
H84 C89 0.930 . S
H85 C92 0.930 . S
H86 C94 0.930 . S
H87 C88 1.016 . S
C88 H87 1.016 . S
C88 N95 1.286 . S
C89 H84 0.930 . S
C89 C90 1.397 . S
C89 C91 1.361 . S
C90 C89 1.397 . S
C90 C94 1.390 . S
C91 C89 1.361 . S
C91 C92 1.393 . S
C91 N95 1.413 . S
C92 H85 0.930 . S
C92 C91 1.393 . S
C92 C93 1.399 . S
C93 C92 1.399 . S
C93 C94 1.381 . S
C94 H86 0.930 . S
C94 C90 1.390 . S
C94 C93 1.381 . S
N95 C88 1.286 . S
N95 C91 1.413 . S
C96 O112 1.251 . S
C96 O114 1.254 1_545 S
N97 C98 1.333 . S
N97 C102 1.307 . S
N97 Zn103 2.020 . S
C98 N97 1.333 . S
C98 C99 1.379 . S
C98 H116 0.952 . S
C99 C98 1.379 . S
C99 C100 1.390 . S
C99 H126 0.949 . S
C100 C99 1.390 . S
C100 C101 1.357 . S
C101 C100 1.357 . S
C101 C102 1.370 . S
C101 H127 0.950 . S
C102 N97 1.307 . S
C102 C101 1.370 . S
C102 H120 0.948 . S
Zn103 N97 2.020 . S
Zn103 O112 2.039 . S
Zn103 O118 2.034 . S
Zn103 O122 2.025 1_455 S
Zn103 O124 2.024 1_455 S
C104 O123 1.246 1_545 S
C104 O124 1.249 . S
N105 C106 1.307 . S
N105 C107 1.333 . S
N105 Zn111 2.020 . S
C106 N105 1.307 . S
C106 C110 1.370 . S
C106 H117 0.948 1_655 S
C107 N105 1.333 . S
C107 C108 1.379 . S
C107 H115 0.952 . S
C108 C107 1.379 . S
C108 C109 1.390 . S
C108 H128 0.949 . S
C109 C108 1.390 . S
C109 C110 1.357 . S
C110 C106 1.370 . S
C110 C109 1.357 . S
C110 H129 0.950 . S
Zn111 N105 2.020 . S
Zn111 O114 2.025 1_655 S
Zn111 O119 2.024 1_655 S
Zn111 O121 2.039 . S
Zn111 O123 2.034 . S
O112 C96 1.251 . S
O112 Zn103 2.039 . S
C113 O118 1.246 1_565 S
C113 O119 1.249 . S
O114 C96 1.254 1_565 S
O114 Zn111 2.025 1_455 S
H115 C107 0.952 . S
H116 C98 0.952 . S
H117 C106 0.948 1_455 S
O118 Zn103 2.034 . S
O118 C113 1.246 1_545 S
O119 Zn111 2.024 1_455 S
O119 C113 1.249 . S
H120 C102 0.948 . S
O121 Zn111 2.039 . S
O121 C125 1.251 . S
O122 Zn103 2.025 1_655 S
O122 C125 1.254 1_545 S
O123 C104 1.246 1_565 S
O123 Zn111 2.034 . S
O124 Zn103 2.024 1_655 S
O124 C104 1.249 . S
C125 O121 1.251 . S
C125 O122 1.254 1_565 S
H126 C99 0.949 . S
H127 C101 0.950 . S
H128 C108 0.949 . S
H129 C110 0.950 . S
C130 O146 1.251 1_565 S
C130 O148 1.254 . S
N131 C132 1.333 . S
N131 C136 1.307 . S
N131 Zn137 2.020 . S
C132 N131 1.333 . S
C132 C133 1.379 . S
C132 H150 0.952 . S
C133 C132 1.379 . S
C133 C134 1.390 . S
C133 H160 0.949 . S
C134 C133 1.390 . S
C134 C135 1.357 . S
C135 C134 1.357 . S
C135 C136 1.370 . S
C135 H161 0.950 . S
C136 N131 1.307 . S
C136 C135 1.370 . S
C136 H154 0.948 . S
Zn137 N131 2.020 . S
Zn137 O146 2.039 . S
Zn137 O152 2.034 1_556 S
Zn137 O156 2.025 1_556 S
Zn137 O158 2.024 . S
C138 O157 1.246 . S
C138 O158 1.249 1_565 S
N139 C140 1.307 . S
N139 C141 1.333 . S
N139 Zn145 2.020 . S
C140 N139 1.307 . S
C140 C144 1.370 . S
C140 H151 0.948 . S
C141 N139 1.333 . S
C141 C142 1.379 . S
C141 H149 0.952 . S
C142 C141 1.379 . S
C142 C143 1.390 . S
C142 H162 0.949 . S
C143 C142 1.390 . S
C143 C144 1.357 . S
C144 C140 1.370 . S
C144 C143 1.357 . S
C144 H163 0.950 . S
Zn145 N139 2.020 . S
Zn145 O148 2.025 1_554 S
Zn145 O153 2.024 . S
Zn145 O155 2.039 1_565 S
Zn145 O157 2.034 1_554 S
O146 C130 1.251 1_545 S
O146 Zn137 2.039 . S
C147 O152 1.246 . S
C147 O153 1.249 1_545 S
O148 C130 1.254 . S
O148 Zn145 2.025 1_556 S
H149 C141 0.952 . S
H150 C132 0.952 . S
H151 C140 0.948 . S
O152 Zn137 2.034 1_554 S
O152 C147 1.246 . S
O153 Zn145 2.024 . S
O153 C147 1.249 1_565 S
H154 C136 0.948 . S
O155 Zn145 2.039 1_545 S
O155 C159 1.251 . S
O156 Zn137 2.025 1_554 S
O156 C159 1.254 . S
O157 C138 1.246 . S
O157 Zn145 2.034 1_556 S
O158 Zn137 2.024 . S
O158 C138 1.249 1_545 S
C159 O155 1.251 . S
C159 O156 1.254 . S
H160 C133 0.949 . S
H161 C135 0.950 . S
H162 C142 0.949 . S
H163 C144 0.950 . S
C164 O180 1.251 . S
C164 O182 1.254 . S
N165 C166 1.333 . S
N165 C170 1.307 . S
N165 Zn171 2.020 . S
C166 N165 1.333 . S
C166 C167 1.379 . S
C166 H184 0.952 . S
C167 C166 1.379 . S
C167 C168 1.390 . S
C167 H194 0.949 . S
C168 C167 1.390 . S
C168 C169 1.357 . S
C169 C168 1.357 . S
C169 C170 1.370 . S
C169 H195 0.950 . S
C170 N165 1.307 . S
C170 C169 1.370 . S
C170 H188 0.948 . S
Zn171 N165 2.020 . S
Zn171 O180 2.039 . S
Zn171 O186 2.034 . S
Zn171 O190 2.025 . S
Zn171 O192 2.024 . S
C172 O191 1.246 . S
C172 O192 1.249 . S
N173 C174 1.307 . S
N173 C175 1.333 . S
N173 Zn179 2.020 . S
C174 N173 1.307 . S
C174 C178 1.370 . S
C174 H185 0.948 . S
C175 N173 1.333 . S
C175 C176 1.379 . S
C175 H183 0.952 . S
C176 C175 1.379 . S
C176 C177 1.390 . S
C176 H196 0.949 . S
C177 C176 1.390 . S
C177 C178 1.357 . S
C178 C174 1.370 . S
C178 C177 1.357 . S
C178 H197 0.950 . S
Zn179 N173 2.020 . S
Zn179 O182 2.025 . S
Zn179 O187 2.024 . S
Zn179 O189 2.039 . S
Zn179 O191 2.034 . S
O180 C164 1.251 . S
O180 Zn171 2.039 . S
C181 O186 1.246 . S
C181 O187 1.249 . S
O182 C164 1.254 . S
O182 Zn179 2.025 . S
H183 C175 0.952 . S
H184 C166 0.952 . S
H185 C174 0.948 . S
O186 Zn171 2.034 . S
O186 C181 1.246 . S
O187 Zn179 2.024 . S
O187 C181 1.249 . S
H188 C170 0.948 . S
O189 Zn179 2.039 . S
O189 C193 1.251 . S
O190 Zn171 2.025 . S
O190 C193 1.254 . S
O191 C172 1.246 . S
O191 Zn179 2.034 . S
O192 Zn171 2.024 . S
O192 C172 1.249 . S
C193 O189 1.251 . S
C193 O190 1.254 . S
H194 C167 0.949 . S
H195 C169 0.950 . S
H196 C176 0.949 . S
H197 C178 0.950 . S
C198 O214 1.251 1_556 S
C198 O216 1.254 1_655 S
N199 C200 1.333 . S
N199 C204 1.307 . S
N199 Zn205 2.020 . S
C200 N199 1.333 . S
C200 C201 1.379 . S
C200 H218 0.952 . S
C201 C200 1.379 . S
C201 C202 1.390 . S
C201 H228 0.949 . S
C202 C201 1.390 . S
C202 C203 1.357 . S
C203 C202 1.357 . S
C203 C204 1.370 . S
C203 H229 0.950 . S
C204 N199 1.307 . S
C204 C203 1.370 . S
C204 H222 0.948 . S
Zn205 N199 2.020 . S
Zn205 O214 2.039 . S
Zn205 O220 2.034 1_655 S
Zn205 O224 2.025 1_655 S
Zn205 O226 2.024 . S
C206 O225 1.246 . S
C206 O226 1.249 1_556 S
N207 C208 1.307 . S
N207 C209 1.333 . S
N207 Zn213 2.020 . S
C208 N207 1.307 . S
C208 C212 1.370 . S
C208 H219 0.948 . S
C209 N207 1.333 . S
C209 C210 1.379 . S
C209 H217 0.952 . S
C210 C209 1.379 . S
C210 C211 1.390 . S
C210 H230 0.949 . S
C211 C210 1.390 . S
C211 C212 1.357 . S
C212 C208 1.370 . S
C212 C211 1.357 . S
C212 H231 0.950 . S
Zn213 N207 2.020 . S
Zn213 O216 2.025 . S
Zn213 O221 2.024 . S
Zn213 O223 2.039 . S
Zn213 O225 2.034 1_455 S
O214 C198 1.251 1_554 S
O214 Zn205 2.039 . S
C215 O220 1.246 . S
C215 O221 1.249 1_554 S
O216 C198 1.254 1_455 S
O216 Zn213 2.025 . S
H217 C209 0.952 . S
H218 C200 0.952 . S
H219 C208 0.948 . S
O220 Zn205 2.034 1_455 S
O220 C215 1.246 . S
O221 Zn213 2.024 . S
O221 C215 1.249 1_556 S
H222 C204 0.948 . S
O223 Zn213 2.039 . S
O223 C227 1.251 1_556 S
O224 Zn205 2.025 1_455 S
O224 C227 1.254 . S
O225 C206 1.246 . S
O225 Zn213 2.034 1_655 S
O226 Zn205 2.024 . S
O226 C206 1.249 1_554 S
C227 O223 1.251 1_554 S
C227 O224 1.254 . S
H228 C201 0.949 . S
H229 C203 0.950 . S
H230 C210 0.949 . S
H231 C212 0.950 . S
C6 C96 3.387 . S
C18 C138 3.638 . S
C168 C28 0.785 . S
C40 C202 0.883 . S
C159 C9 2.660 . S
C113 C16 2.134 . S
C206 C30 0.783 . S
C172 C42 0.647 . S
C4 C227 2.713 . S
C134 C33 1.624 . S
C45 C109 1.758 . S
C21 C193 3.342 . S
C125 C57 3.505 . S
C66 C147 3.624 . S
C76 C177 0.822 . S
C88 C211 1.041 . S
C54 C130 2.621 . S
C104 C64 2.140 . S
C215 C78 0.419 . S
C181 C93 0.708 . S
C52 C198 2.738 . S
C143 C81 1.501 . S
C100 C90 1.871 . S
C69 C164 3.377 . S
