# Generated by pormake.
# Topology zzz, (3,6)-cn, num edge types: 1
# Building blocks:
#     Node 0, Type 0, BuildingBlock: ESEHIV_clean_linker_0, # of connection points: 3
#     Node 1, Type 0, BuildingBlock: ESEHIV_clean_linker_0, # of connection points: 3
#     Node 2, Type 0, BuildingBlock: ESEHIV_clean_linker_0, # of connection points: 3
#     Node 3, Type 0, BuildingBlock: ESEHIV_clean_linker_0, # of connection points: 3
#     Node 4, Type 0, BuildingBlock: ESEHIV_clean_linker_0, # of connection points: 3
#     Node 5, Type 0, BuildingBlock: ESEHIV_clean_linker_0, # of connection points: 3
#     Node 6, Type 0, BuildingBlock: ESEHIV_clean_linker_0, # of connection points: 3
#     Node 7, Type 0, BuildingBlock: ESEHIV_clean_linker_0, # of connection points: 3
#     Node 8, Type 1, BuildingBlock: CUWYAW_clean_sbu_0, # of connection points: 6
#     Node 9, Type 1, BuildingBlock: CUWYAW_clean_sbu_0, # of connection points: 6
#     Node 10, Type 1, BuildingBlock: CUWYAW_clean_sbu_0, # of connection points: 6
#     Node 11, Type 1, BuildingBlock: CUWYAW_clean_sbu_0, # of connection points: 6
#     Edge 12, Type (0, 1), None
#     Edge 13, Type (0, 1), None
#     Edge 14, Type (0, 1), None
#     Edge 15, Type (0, 1), None
#     Edge 16, Type (0, 1), None
#     Edge 17, Type (0, 1), None
#     Edge 18, Type (0, 1), None
#     Edge 19, Type (0, 1), None
#     Edge 20, Type (0, 1), None
#     Edge 21, Type (0, 1), None
#     Edge 22, Type (0, 1), None
#     Edge 23, Type (0, 1), None
#     Edge 24, Type (0, 1), None
#     Edge 25, Type (0, 1), None
#     Edge 26, Type (0, 1), None
#     Edge 27, Type (0, 1), None
#     Edge 28, Type (0, 1), None
#     Edge 29, Type (0, 1), None
#     Edge 30, Type (0, 1), None
#     Edge 31, Type (0, 1), None
#     Edge 32, Type (0, 1), None
#     Edge 33, Type (0, 1), None
#     Edge 34, Type (0, 1), None
#     Edge 35, Type (0, 1), None
# Relax obj value: 1.058
# Max RMSD: 0.301
# Mean RMSD: 0.229
data_MOF--net-zzz--node1-CUWYAW_clean_sbu_0--node2-ESEHIV_clean_linker_0--edge1-none
_symmetry_space_group_name_H-M    P1
_symmetry_Int_Tables_number       1
_symmetry_cell_setting            triclinic
loop_
_symmetry_equiv_pos_as_xyz
'x, y, z'
_cell_length_a     20.121091
_cell_length_b     20.134882
_cell_length_c     8.5337524
_cell_angle_alpha  88.360752
_cell_angle_beta   89.723072
_cell_angle_gamma 91.172859
loop_
_atom_site_label
_atom_site_type_symbol
_atom_site_fract_x
_atom_site_fract_y
_atom_site_fract_z
_atom_type_partial_charge
H0 H 0.81128 0.55745 0.36483 0.0
H1 H 0.61513 0.50698 0.51087 0.0
H2 H 0.75813 0.56377 0.84681 0.0
C3 C 0.77327 0.5543 0.45567 0.0
C4 C 0.79349 0.55344 0.60926 0.0
C5 C 0.71153 0.52576 0.42292 0.0
C6 C 0.66317 0.52147 0.54094 0.0
C7 C 0.67828 0.53388 0.69699 0.0
C8 C 0.74449 0.55293 0.72898 0.0
H9 H 0.95102 0.83205 0.43365 0.0
H10 H 0.94341 0.62253 0.48953 0.0
H11 H 0.0566 0.73871 0.81251 0.0
C12 C 0.96309 0.78748 0.50069 0.0
C13 C 0.00844 0.79126 0.62243 0.0
C14 C 0.9431 0.72646 0.44505 0.0
C15 C 0.95634 0.66978 0.53706 0.0
C16 C -0.00641 0.67429 0.67852 0.0
C17 C 0.02239 0.73527 0.71537 0.0
H18 H 0.66441 0.93506 0.32592 0.0
H19 H 0.87253 0.93925 0.40366 0.0
H20 H 0.73848 0.93409 0.79717 0.0
C21 C 0.7054 0.93011 0.40744 0.0
C22 C 0.6926 0.93464 0.56729 0.0
C23 C 0.76961 0.94543 0.35239 0.0
C24 C 0.82291 0.93572 0.45266 0.0
C25 C 0.81292 0.93695 0.61554 0.0
C26 C 0.74709 0.93432 0.67284 0.0
H27 H 0.5654 0.6838 0.37478 0.0
H28 H 0.57877 0.73405 0.85698 0.0
H29 H 0.50326 0.87224 0.51883 0.0
C30 C 0.56231 0.72052 0.46529 0.0
C31 C 0.52723 0.77807 0.4333 0.0
C32 C 0.56717 0.69933 0.61995 0.0
C33 C 0.56651 0.74816 0.73759 0.0
C34 C 0.54385 0.81338 0.70319 0.0
C35 C 0.523 0.8261 0.54897 0.0
H36 H 0.17435 0.43458 0.08518 0.0
H37 H 0.36854 0.4934 0.9413 0.0
H38 H 0.22849 0.43376 0.60038 0.0
C39 C 0.21238 0.4387 -0.00543 0.0
C40 C 0.19256 0.43728 0.83995 0.0
C41 C 0.27221 0.4716 0.02702 0.0
C42 C 0.3213 0.47616 0.91092 0.0
C43 C 0.30749 0.46252 0.75495 0.0
C44 C 0.24193 0.44168 0.72053 0.0
H45 H 0.04355 0.16525 0.06265 0.0
H46 H 0.00356 0.36673 -0.01986 0.0
H47 H 0.01572 0.23885 0.59231 0.0
C48 C 0.03716 0.20691 -0.01913 0.0
C49 C 0.02686 0.19388 0.82414 0.0
C50 C 0.00881 0.26446 0.0349 0.0
C51 C 0.00737 0.31871 0.93174 0.0
C52 C 0.00342 0.30918 0.76942 0.0
C53 C 0.01631 0.24648 0.7155 0.0
H54 H 0.32912 0.0478 0.13874 0.0
H55 H 0.12501 0.01616 0.02508 0.0
H56 H 0.26579 0.06629 0.65996 0.0
C57 C 0.28945 0.05295 0.0537 0.0
C58 C 0.30612 0.05857 0.89531 0.0
C59 C 0.22498 0.03161 0.09739 0.0
C60 C 0.17388 0.03482 -0.01102 0.0
C61 C 0.18866 0.04394 0.82892 0.0
C62 C 0.25431 0.0599 0.78318 0.0
H63 H 0.42924 0.31238 0.08622 0.0
H64 H 0.4121 0.26096 0.60517 0.0
H65 H 0.49897 0.12722 0.93694 0.0
C66 C 0.43271 0.27584 -0.00458 0.0
C67 C 0.46931 0.21899 0.02573 0.0
C68 C 0.42454 0.29661 0.84129 0.0
C69 C 0.42647 0.2477 0.72368 0.0
C70 C 0.45292 0.18377 0.75664 0.0
C71 C 0.47546 0.17182 0.90933 0.0
C72 C 0.93478 0.05687 0.32621 0.0
Eu73 Eu 0.98746 0.00998 0.58641 0.0
C74 C 0.92968 0.12475 0.26167 0.0
C75 C 0.94913 0.17783 0.35453 0.0
C76 C 0.95946 0.24104 0.28788 0.0
C77 C 0.94829 0.24975 0.12857 0.0
C78 C 0.90253 0.20505 0.05859 0.0
C79 C 0.89867 0.13949 0.11887 0.0
C80 C 0.87175 0.9543 0.71291 0.0
C81 C 0.01224 0.12649 0.77916 0.0
C82 C 0.00406 0.90232 0.04518 0.0
Eu83 Eu 0.01489 0.97146 0.7838 0.0
C84 C 0.97553 0.83574 0.08817 0.0
C85 C 0.90762 0.82675 0.12605 0.0
C86 C 0.88616 0.77003 0.21322 0.0
C87 C 0.9339 0.72593 0.27297 0.0
C88 C -0.00499 0.72443 0.19249 0.0
C89 C 0.01767 0.78152 0.11002 0.0
C90 C 0.14066 0.01249 0.72217 0.0
C91 C 0.03749 0.85489 0.658 0.0
O92 O -0.00708 0.02816 0.32914 0.0
O93 O 0.90537 0.05185 0.46086 0.0
O94 O 0.8892 0.01669 0.72618 0.0
O95 O 0.92464 0.92669 0.67951 0.0
O96 O 0.02697 0.1095 0.64019 0.0
O97 O -0.00435 0.07667 0.87451 0.0
O98 O 0.96286 0.94898 0.0048 0.0
O99 O 0.05789 0.90417 -0.04013 0.0
O100 O 0.12377 0.95236 0.76351 0.0
O101 O 0.08938 0.04414 0.68304 0.0
O102 O 0.02803 0.90774 0.57413 0.0
O103 O 0.02977 0.906 0.55542 0.0
H104 H 0.95816 0.16897 0.47577 0.0
H105 H 0.98652 0.2786 0.35127 0.0
H106 H 0.88662 0.21416 0.9389 0.0
H107 H 0.87563 0.10071 0.05114 0.0
H108 H 0.87283 0.86625 0.10456 0.0
H109 H 0.83686 0.76994 0.26481 0.0
H110 H 0.03169 0.68843 0.22671 0.0
H111 H 0.06969 0.78545 0.07702 0.0
C112 C 0.38962 0.90388 0.43455 0.0
Eu113 Eu 0.47012 0.97183 0.61363 0.0
C114 C 0.32257 0.91344 0.37564 0.0
C115 C 0.28062 0.95685 0.45203 0.0
C116 C 0.23169 0.98982 0.36774 0.0
C117 C 0.22342 0.97558 0.21016 0.0
C118 C 0.25053 0.91689 0.15241 0.0
C119 C 0.30371 0.88831 0.23151 0.0
C120 C 0.53559 0.8615 0.83572 0.0
C121 C 0.37478 0.04261 0.8462 0.0
C122 C 0.61173 0.09245 0.0307 0.0
Eu123 Eu 0.53031 0.02667 0.84933 0.0
C124 C 0.67816 0.07895 0.09105 0.0
C125 C 0.71972 0.03695 0.00871 0.0
C126 C 0.76532 -0.00194 0.09009 0.0
C127 C 0.77175 0.0056 0.25094 0.0
C128 C 0.74627 0.06314 0.3189 0.0
C129 C 0.69575 0.09722 0.24199 0.0
C130 C 0.46379 0.13622 0.6244 0.0
C131 C 0.62552 0.95516 0.6179 0.0
O132 O 0.4363 0.94461 0.37798 0.0
O133 O 0.39278 0.89626 0.58616 0.0
O134 O 0.50123 0.91597 0.83062 0.0
O135 O 0.50123 0.91594 0.82832 0.0
O136 O 0.38402 0.02987 0.69855 0.0
O137 O 0.42427 0.03342 0.94664 0.0
O138 O 0.56297 0.0539 0.08577 0.0
O139 O 0.60919 0.10069 0.87904 0.0
O140 O 0.49935 0.08248 0.6314 0.0
O141 O 0.49927 0.08259 0.63395 0.0
O142 O 0.61673 0.96825 0.76549 0.0
O143 O 0.57609 0.96497 0.51767 0.0
H144 H 0.29118 0.97043 0.56998 0.0
H145 H 0.20902 0.03303 0.41634 0.0
H146 H 0.24247 0.9037 0.03154 0.0
H147 H 0.33386 0.85226 0.17359 0.0
H148 H 0.71115 0.02912 0.88645 0.0
H149 H 0.78781 0.95655 0.03387 0.0
H150 H 0.75321 0.07144 0.44277 0.0
H151 H 0.6662 0.13201 0.30557 0.0
C152 C 0.5762 0.40242 0.38844 0.0
Eu153 Eu 0.51695 0.47427 0.59898 0.0
C154 C 0.56451 0.33918 0.31051 0.0
C155 C 0.52278 0.29039 0.38073 0.0
C156 C 0.50112 0.23571 0.29686 0.0
C157 C 0.52193 0.22957 0.14153 0.0
C158 C 0.57588 0.26975 0.08588 0.0
C159 C 0.59511 0.32629 0.1674 0.0
C160 C 0.63136 0.51823 0.83181 0.0
C161 C 0.43832 0.36869 0.80562 0.0
C162 C 0.41067 0.5965 0.07017 0.0
Eu163 Eu 0.46854 0.52354 0.85918 0.0
C164 C 0.42517 0.65919 0.14979 0.0
C165 C 0.46714 0.70764 0.07848 0.0
C166 C 0.49184 0.76094 0.16341 0.0
C167 C 0.47324 0.76691 0.32043 0.0
C168 C 0.41952 0.72706 0.37905 0.0
C169 C 0.39753 0.67163 0.29654 0.0
C170 C 0.35498 0.47933 0.62241 0.0
C171 C 0.54888 0.6283 0.65455 0.0
O172 O 0.53879 0.45314 0.35044 0.0
O173 O 0.58456 0.39602 0.53917 0.0
O174 O 0.57404 0.48707 0.82097 0.0
O175 O 0.57428 0.48734 0.81891 0.0
O176 O 0.45026 0.38655 0.6599 0.0
O177 O 0.45156 0.41187 0.91812 0.0
O178 O 0.44587 0.54411 0.10756 0.0
O179 O 0.40276 0.60352 0.91935 0.0
O180 O 0.41184 0.51117 0.63607 0.0
O181 O 0.41149 0.51081 0.63842 0.0
O182 O 0.53625 0.61057 0.79998 0.0
O183 O 0.53407 0.586 0.5414 0.0
H184 H 0.50351 0.2978 0.49589 0.0
H185 H 0.45988 0.20556 0.34238 0.0
H186 H 0.5936 0.26533 -0.03347 0.0
H187 H 0.63026 0.36179 0.11427 0.0
H188 H 0.48413 0.70113 -0.03916 0.0
H189 H 0.53295 0.79058 0.11555 0.0
H190 H 0.40372 0.73095 0.50001 0.0
H191 H 0.36244 0.63651 0.3513 0.0
C192 C 0.07099 0.55792 0.30783 0.0
Eu193 Eu 0.01682 0.51308 0.57039 0.0
C194 C 0.14075 0.55819 0.25723 0.0
C195 C 0.18734 0.52462 0.3495 0.0
C196 C 0.24928 0.50948 0.28776 0.0
C197 C 0.2632 0.5275 0.13173 0.0
C198 C 0.22631 0.57955 0.06215 0.0
C199 C 0.16235 0.59132 0.11942 0.0
C200 C 0.01307 0.61333 0.76488 0.0
C201 C 0.12227 0.45171 0.80503 0.0
C202 C 0.89824 0.41709 0.10478 0.0
Eu203 Eu 0.96441 0.46513 0.85951 0.0
C204 C 0.83308 0.43125 0.17111 0.0
C205 C 0.79404 0.4781 0.09388 0.0
C206 C 0.73364 0.49728 0.15632 0.0
C207 C 0.71598 0.47381 0.30645 0.0
C208 C 0.74601 0.41519 0.36481 0.0
C209 C 0.80648 0.39551 0.30038 0.0
C210 C 0.98032 0.3639 0.666 0.0
C211 C 0.86215 0.53256 0.64058 0.0
O212 O 0.04032 0.49994 0.32232 0.0
O213 O 0.0616 0.59369 0.42905 0.0
O214 O 0.06827 0.58989 0.71542 0.0
O215 O 0.96917 0.56837 0.76098 0.0
O216 O 0.10454 0.45522 0.65729 0.0
O217 O 0.07699 0.46339 0.91536 0.0
O218 O 0.94561 0.46281 0.11373 0.0
O219 O 0.89301 0.3944 -0.03576 0.0
O220 O 0.92262 0.38511 0.7044 0.0
O221 O 0.0193 0.41223 0.67434 0.0
O222 O 0.88451 0.5347 0.78351 0.0
O223 O 0.90308 0.51152 0.5301 0.0
H224 H 0.17317 0.50523 0.46263 0.0
H225 H 0.27877 0.4724 0.34769 0.0
H226 H 0.23865 0.59784 0.94468 0.0
H227 H 0.1287 0.62175 0.0511 0.0
H228 H 0.814 0.50335 -0.0072 0.0
H229 H 0.71041 0.54111 0.10698 0.0
H230 H 0.73126 0.39394 0.47813 0.0
H231 H 0.83409 0.35594 0.35679 0.0
loop_
_geom_bond_atom_site_label_1
_geom_bond_atom_site_label_2
_geom_bond_distance
_geom_bond_site_symmetry_2
_ccdc_geom_bond_type
H0 C3 0.931 . S
H1 C6 0.928 . S
H2 C8 0.930 . S
C3 H0 0.931 . S
C3 C4 1.413 . S
C3 C5 1.360 . S
C4 C3 1.413 . S
C4 C8 1.429 . S
C5 C3 1.360 . S
C5 C6 1.372 . S
C6 H1 0.928 . S
C6 C5 1.372 . S
C6 C7 1.404 . S
C7 C6 1.404 . S
C7 C8 1.391 . S
C8 H2 0.930 . S
C8 C4 1.429 . S
C8 C7 1.391 . S
H9 C12 0.931 . S
H10 C15 0.928 . S
H11 C17 0.930 . S
C12 H9 0.931 . S
C12 C13 1.413 . S
C12 C14 1.360 . S
C13 C12 1.413 . S
C13 C17 1.429 1_655 S
C14 C12 1.360 . S
C14 C15 1.372 . S
C15 H10 0.928 . S
C15 C14 1.372 . S
C15 C16 1.404 . S
C16 C15 1.404 . S
C16 C17 1.390 1_655 S
C17 H11 0.930 . S
C17 C13 1.429 1_455 S
C17 C16 1.390 1_455 S
H18 C21 0.931 . S
H19 C24 0.928 . S
H20 C26 0.930 . S
C21 H18 0.931 . S
C21 C22 1.414 . S
C21 C23 1.360 . S
C22 C21 1.414 . S
C22 C26 1.429 1_565 S
C23 C21 1.360 . S
C23 C24 1.372 . S
C24 H19 0.928 . S
C24 C23 1.372 . S
C24 C25 1.405 . S
C25 C24 1.405 . S
C25 C26 1.390 1_565 S
C26 H20 0.930 . S
C26 C22 1.429 1_545 S
C26 C25 1.390 1_545 S
H27 C30 0.931 . S
H28 C33 0.928 . S
H29 C35 0.930 . S
C30 H27 0.931 . S
C30 C31 1.413 . S
C30 C32 1.360 . S
C31 C30 1.413 . S
C31 C35 1.429 . S
C32 C30 1.360 . S
C32 C33 1.372 . S
C33 H28 0.928 . S
C33 C32 1.372 . S
C33 C34 1.404 . S
C34 C33 1.404 . S
C34 C35 1.391 . S
C35 H29 0.930 . S
C35 C31 1.429 . S
C35 C34 1.391 . S
H36 C39 0.931 . S
H37 C42 0.928 . S
H38 C44 0.930 . S
C39 H36 0.931 . S
C39 C40 1.413 . S
C39 C41 1.360 1_556 S
C40 C39 1.413 . S
C40 C44 1.429 . S
C41 C39 1.360 1_554 S
C41 C42 1.372 . S
C42 H37 0.928 . S
C42 C41 1.372 . S
C42 C43 1.404 . S
C43 C42 1.404 . S
C43 C44 1.391 1_554 S
C44 H38 0.930 . S
C44 C40 1.429 . S
C44 C43 1.391 1_556 S
H45 C48 0.931 . S
H46 C51 0.928 . S
H47 C53 0.930 . S
C48 H45 0.931 . S
C48 C49 1.413 . S
C48 C50 1.360 1_556 S
C49 C48 1.413 . S
C49 C53 1.429 1_655 S
C50 C48 1.360 1_554 S
C50 C51 1.372 . S
C51 H46 0.928 . S
C51 C50 1.372 . S
C51 C52 1.404 . S
C52 C51 1.404 . S
C52 C53 1.391 1_654 S
C53 H47 0.930 . S
C53 C49 1.429 1_455 S
C53 C52 1.391 1_456 S
H54 C57 0.931 . S
H55 C60 0.928 . S
H56 C62 0.930 . S
C57 H54 0.931 . S
C57 C58 1.413 . S
C57 C59 1.360 1_556 S
C58 C57 1.413 . S
C58 C62 1.429 1_565 S
C59 C57 1.360 1_554 S
C59 C60 1.372 . S
C60 H55 0.928 . S
C60 C59 1.372 . S
C60 C61 1.404 . S
C61 C60 1.404 . S
C61 C62 1.391 1_564 S
C62 H56 0.930 . S
C62 C58 1.429 1_545 S
C62 C61 1.391 1_546 S
H63 C66 0.931 . S
H64 C69 0.928 . S
H65 C71 0.930 . S
C66 H63 0.931 . S
C66 C67 1.413 1_556 S
C66 C68 1.360 . S
C67 C66 1.413 1_554 S
C67 C71 1.429 . S
C68 C66 1.360 . S
C68 C69 1.372 . S
C69 H64 0.928 . S
C69 C68 1.372 . S
C69 C70 1.404 1_556 S
C70 C69 1.404 1_554 S
C70 C71 1.391 . S
C71 H65 0.930 . S
C71 C67 1.429 . S
C71 C70 1.391 . S
C72 Eu73 2.835 . S
C72 C74 1.500 . S
C72 O92 1.257 . S
C72 O93 1.260 . S
Eu73 C72 2.835 . S
Eu73 O92 2.473 . S
Eu73 O93 2.480 . S
Eu73 O94 2.430 . S
Eu73 O95 2.670 1_545 S
Eu73 O96 2.394 . S
Eu73 O101 2.355 1_655 S
Eu73 O103 2.374 1_545 S
C74 C72 1.500 . S
C74 C75 1.377 . S
C74 C79 1.377 . S
C75 C74 1.377 . S
C75 C76 1.395 . S
C75 H104 0.931 . S
C76 C75 1.395 . S
C76 C77 1.383 . S
C76 H105 0.931 . S
C77 C76 1.383 . S
C77 C78 1.394 . S
C78 C77 1.394 . S
C78 C79 1.378 . S
C78 H106 0.931 . S
C79 C74 1.377 . S
C79 C78 1.378 . S
C79 H107 0.931 . S
C80 O94 1.259 . S
C80 O95 1.270 1_545 S
C81 O96 1.251 1_455 S
C81 O97 1.251 . S
C82 Eu83 2.835 1_554 S
C82 C84 1.500 . S
C82 O98 1.257 . S
C82 O99 1.260 1_554 S
Eu83 C82 2.835 1_556 S
Eu83 O95 2.355 1_455 S
Eu83 O97 2.374 1_565 S
Eu83 O98 2.473 1_556 S
Eu83 O99 2.480 . S
Eu83 O100 2.430 . S
Eu83 O101 2.670 1_565 S
Eu83 O102 2.394 . S
C84 C82 1.500 . S
C84 C85 1.377 . S
C84 C89 1.377 . S
C85 C84 1.377 . S
C85 C86 1.395 . S
C85 H108 0.931 . S
C86 C85 1.395 . S
C86 C87 1.383 . S
C86 H109 0.931 . S
C87 C86 1.383 . S
C87 C88 1.394 . S
C88 C87 1.394 . S
C88 C89 1.378 . S
C88 H110 0.931 . S
C89 C84 1.377 . S
C89 C88 1.378 . S
C89 H111 0.931 . S
C90 O100 1.259 . S
C90 O101 1.270 1_565 S
C91 O102 1.251 1_655 S
C91 O103 1.251 . S
O92 C72 1.257 . S
O92 Eu73 2.473 . S
O93 C72 1.260 . S
O93 Eu73 2.480 . S
O94 Eu73 2.430 . S
O94 C80 1.259 . S
O95 Eu73 2.670 1_565 S
O95 C80 1.270 1_565 S
O95 Eu83 2.355 1_655 S
O96 Eu73 2.394 . S
O96 C81 1.251 1_655 S
O97 C81 1.251 . S
O97 Eu83 2.374 1_545 S
O98 C82 1.257 . S
O98 Eu83 2.473 1_554 S
O99 C82 1.260 1_556 S
O99 Eu83 2.480 . S
O100 Eu83 2.430 . S
O100 C90 1.259 . S
O101 Eu73 2.355 1_455 S
O101 Eu83 2.670 1_545 S
O101 C90 1.270 1_545 S
O102 Eu83 2.394 . S
O102 C91 1.251 1_455 S
O103 Eu73 2.374 1_565 S
O103 C91 1.251 . S
H104 C75 0.931 . S
H105 C76 0.931 . S
H106 C78 0.931 . S
H107 C79 0.931 . S
H108 C85 0.931 . S
H109 C86 0.931 . S
H110 C88 0.931 . S
H111 C89 0.931 . S
C112 Eu113 2.835 . S
C112 C114 1.500 . S
C112 O132 1.257 . S
C112 O133 1.260 . S
Eu113 C112 2.835 . S
Eu113 O132 2.473 . S
Eu113 O133 2.480 . S
Eu113 O134 2.430 . S
Eu113 O135 2.670 . S
Eu113 O136 2.394 . S
Eu113 O141 2.355 1_565 S
Eu113 O143 2.374 . S
C114 C112 1.500 . S
C114 C115 1.377 . S
C114 C119 1.377 . S
C115 C114 1.377 . S
C115 C116 1.395 . S
C115 H144 0.931 . S
C116 C115 1.395 . S
C116 C117 1.383 . S
C116 H145 0.931 . S
C117 C116 1.383 . S
C117 C118 1.394 . S
C118 C117 1.394 . S
C118 C119 1.378 . S
C118 H146 0.931 . S
C119 C114 1.377 . S
C119 C118 1.378 . S
C119 H147 0.931 . S
C120 O134 1.259 . S
C120 O135 1.270 . S
C121 O136 1.251 1_545 S
C121 O137 1.251 . S
C122 Eu123 2.835 1_554 S
C122 C124 1.500 . S
C122 O138 1.257 . S
C122 O139 1.260 1_554 S
Eu123 C122 2.835 1_556 S
Eu123 O135 2.355 1_545 S
Eu123 O137 2.374 . S
Eu123 O138 2.473 1_556 S
Eu123 O139 2.480 . S
Eu123 O140 2.430 . S
Eu123 O141 2.670 . S
Eu123 O142 2.394 . S
C124 C122 1.500 . S
C124 C125 1.377 . S
C124 C129 1.377 . S
C125 C124 1.377 . S
C125 C126 1.395 . S
C125 H148 0.931 . S
C126 C125 1.395 . S
C126 C127 1.383 . S
C126 H149 0.931 . S
C127 C126 1.383 . S
C127 C128 1.394 . S
C128 C127 1.394 . S
C128 C129 1.378 . S
C128 H150 0.931 . S
C129 C124 1.377 . S
C129 C128 1.378 . S
C129 H151 0.931 . S
C130 O140 1.259 . S
C130 O141 1.270 . S
C131 O142 1.251 1_565 S
C131 O143 1.251 . S
O132 C112 1.257 . S
O132 Eu113 2.473 . S
O133 C112 1.260 . S
O133 Eu113 2.480 . S
O134 Eu113 2.430 . S
O134 C120 1.259 . S
O135 Eu113 2.670 . S
O135 C120 1.270 . S
O135 Eu123 2.355 1_565 S
O136 Eu113 2.394 . S
O136 C121 1.251 1_565 S
O137 C121 1.251 . S
O137 Eu123 2.374 . S
O138 C122 1.257 . S
O138 Eu123 2.473 1_554 S
O139 C122 1.260 1_556 S
O139 Eu123 2.480 . S
O140 Eu123 2.430 . S
O140 C130 1.259 . S
O141 Eu113 2.355 1_545 S
O141 Eu123 2.670 . S
O141 C130 1.270 . S
O142 Eu123 2.394 . S
O142 C131 1.251 1_545 S
O143 Eu113 2.374 . S
O143 C131 1.251 . S
H144 C115 0.931 . S
H145 C116 0.931 . S
H146 C118 0.931 . S
H147 C119 0.931 . S
H148 C125 0.931 . S
H149 C126 0.931 . S
H150 C128 0.931 . S
H151 C129 0.931 . S
C152 Eu153 2.835 . S
C152 C154 1.500 . S
C152 O172 1.257 . S
C152 O173 1.260 . S
Eu153 C152 2.835 . S
Eu153 O172 2.473 . S
Eu153 O173 2.480 . S
Eu153 O174 2.430 . S
Eu153 O175 2.670 . S
Eu153 O176 2.394 . S
Eu153 O181 2.355 . S
Eu153 O183 2.374 . S
C154 C152 1.500 . S
C154 C155 1.377 . S
C154 C159 1.377 . S
C155 C154 1.377 . S
C155 C156 1.395 . S
C155 H184 0.931 . S
C156 C155 1.395 . S
C156 C157 1.383 . S
C156 H185 0.931 . S
C157 C156 1.383 . S
C157 C158 1.394 . S
C158 C157 1.394 . S
C158 C159 1.378 . S
C158 H186 0.931 . S
C159 C154 1.377 . S
C159 C158 1.378 . S
C159 H187 0.931 . S
C160 O174 1.259 . S
C160 O175 1.270 . S
C161 O176 1.251 . S
C161 O177 1.251 . S
C162 Eu163 2.835 1_554 S
C162 C164 1.500 . S
C162 O178 1.257 . S
C162 O179 1.260 1_554 S
Eu163 C162 2.835 1_556 S
Eu163 O175 2.355 . S
Eu163 O177 2.374 . S
Eu163 O178 2.473 1_556 S
Eu163 O179 2.480 . S
Eu163 O180 2.430 . S
Eu163 O181 2.670 . S
Eu163 O182 2.394 . S
C164 C162 1.500 . S
C164 C165 1.377 . S
C164 C169 1.377 . S
C165 C164 1.377 . S
C165 C166 1.395 . S
C165 H188 0.931 . S
C166 C165 1.395 . S
C166 C167 1.383 . S
C166 H189 0.931 . S
C167 C166 1.383 . S
C167 C168 1.394 . S
C168 C167 1.394 . S
C168 C169 1.378 . S
C168 H190 0.931 . S
C169 C164 1.377 . S
C169 C168 1.378 . S
C169 H191 0.931 . S
C170 O180 1.259 . S
C170 O181 1.270 . S
C171 O182 1.251 . S
C171 O183 1.251 . S
O172 C152 1.257 . S
O172 Eu153 2.473 . S
O173 C152 1.260 . S
O173 Eu153 2.480 . S
O174 Eu153 2.430 . S
O174 C160 1.259 . S
O175 Eu153 2.670 . S
O175 C160 1.270 . S
O175 Eu163 2.355 . S
O176 Eu153 2.394 . S
O176 C161 1.251 . S
O177 C161 1.251 . S
O177 Eu163 2.374 . S
O178 C162 1.257 . S
O178 Eu163 2.473 1_554 S
O179 C162 1.260 1_556 S
O179 Eu163 2.480 . S
O180 Eu163 2.430 . S
O180 C170 1.259 . S
O181 Eu153 2.355 . S
O181 Eu163 2.670 . S
O181 C170 1.270 . S
O182 Eu163 2.394 . S
O182 C171 1.251 . S
O183 Eu153 2.374 . S
O183 C171 1.251 . S
H184 C155 0.931 . S
H185 C156 0.931 . S
H186 C158 0.931 . S
H187 C159 0.931 . S
H188 C165 0.931 . S
H189 C166 0.931 . S
H190 C168 0.931 . S
H191 C169 0.931 . S
C192 Eu193 2.835 . S
C192 C194 1.500 . S
C192 O212 1.257 . S
C192 O213 1.260 . S
Eu193 C192 2.835 . S
Eu193 O212 2.473 . S
Eu193 O213 2.480 . S
Eu193 O214 2.430 . S
Eu193 O215 2.670 1_455 S
Eu193 O216 2.394 . S
Eu193 O221 2.355 . S
Eu193 O223 2.374 1_455 S
C194 C192 1.500 . S
C194 C195 1.377 . S
C194 C199 1.377 . S
C195 C194 1.377 . S
C195 C196 1.395 . S
C195 H224 0.931 . S
C196 C195 1.395 . S
C196 C197 1.383 . S
C196 H225 0.931 . S
C197 C196 1.383 . S
C197 C198 1.394 . S
C198 C197 1.394 . S
C198 C199 1.378 . S
C198 H226 0.931 . S
C199 C194 1.377 . S
C199 C198 1.378 . S
C199 H227 0.931 . S
C200 O214 1.260 . S
C200 O215 1.269 1_455 S
C201 O216 1.251 . S
C201 O217 1.251 . S
C202 Eu203 2.835 1_554 S
C202 C204 1.500 . S
C202 O218 1.257 . S
C202 O219 1.260 1_554 S
Eu203 C202 2.835 1_556 S
Eu203 O215 2.355 . S
Eu203 O217 2.374 1_655 S
Eu203 O218 2.473 1_556 S
Eu203 O219 2.480 . S
Eu203 O220 2.430 . S
Eu203 O221 2.670 1_655 S
Eu203 O222 2.394 . S
C204 C202 1.500 . S
C204 C205 1.377 . S
C204 C209 1.377 . S
C205 C204 1.377 . S
C205 C206 1.395 . S
C205 H228 0.931 . S
C206 C205 1.395 . S
C206 C207 1.383 . S
C206 H229 0.931 . S
C207 C206 1.383 . S
C207 C208 1.394 . S
C208 C207 1.394 . S
C208 C209 1.378 . S
C208 H230 0.931 . S
C209 C204 1.377 . S
C209 C208 1.378 . S
C209 H231 0.931 . S
C210 O220 1.260 1_455 S
C210 O221 1.269 . S
C211 O222 1.251 . S
C211 O223 1.251 . S
O212 C192 1.257 . S
O212 Eu193 2.473 . S
O213 C192 1.260 . S
O213 Eu193 2.480 . S
O214 Eu193 2.430 . S
O214 C200 1.260 . S
O215 Eu193 2.670 1_655 S
O215 C200 1.269 1_655 S
O215 Eu203 2.355 . S
O216 Eu193 2.394 . S
O216 C201 1.251 . S
O217 C201 1.251 . S
O217 Eu203 2.374 1_455 S
O218 C202 1.257 . S
O218 Eu203 2.473 1_554 S
O219 C202 1.260 1_556 S
O219 Eu203 2.480 . S
O220 Eu203 2.430 . S
O220 C210 1.260 1_655 S
O221 Eu193 2.355 . S
O221 Eu203 2.670 1_455 S
O221 C210 1.269 . S
O222 Eu203 2.394 . S
O222 C211 1.251 . S
O223 Eu193 2.374 1_655 S
O223 C211 1.251 . S
H224 C195 0.931 . S
H225 C196 0.931 . S
H226 C198 0.931 . S
H227 C199 0.931 . S
H228 C205 0.931 . S
H229 C206 0.931 . S
H230 C208 0.931 . S
H231 C209 0.931 . S
C61 C90 3.829 1_554 S
C130 C70 3.800 1_556 S
C170 C43 3.859 1_556 S
C210 C52 3.806 1_456 S
C80 C25 3.828 1_545 S
C34 C120 3.803 . S
C7 C160 3.855 . S
C16 C200 3.805 1_655 S
C77 C50 2.967 . S
C117 C59 2.738 . S
C157 C67 2.649 . S
C41 C197 2.797 . S
C14 C87 2.993 1_655 S
C127 C23 2.765 1_545 S
C167 C31 2.629 . S
C5 C207 2.836 . S
C49 C81 4.148 1_655 S
C58 C121 4.064 1_565 S
C161 C68 4.062 . S
C201 C40 4.145 . S
C13 C91 4.150 . S
C131 C22 4.063 . S
C171 C32 4.073 . S
C4 C211 4.143 . S
