# Generated by pormake.
# Topology rtl, (3,6)-cn, num edge types: 1
# Building blocks:
#     Node 0, Type 0, BuildingBlock: PAMTOO_clean_linker_0, # of connection points: 3
#     Node 1, Type 0, BuildingBlock: PAMTOO_clean_linker_0, # of connection points: 3
#     Node 2, Type 0, BuildingBlock: PAMTOO_clean_linker_0, # of connection points: 3
#     Node 3, Type 0, BuildingBlock: PAMTOO_clean_linker_0, # of connection points: 3
#     Node 4, Type 1, BuildingBlock: VOLQOD_clean_sbu_1, # of connection points: 6
#     Node 5, Type 1, BuildingBlock: VOLQOD_clean_sbu_1, # of connection points: 6
#     Edge 6, Type (0, 1), None
#     Edge 7, Type (0, 1), None
#     Edge 8, Type (0, 1), None
#     Edge 9, Type (0, 1), None
#     Edge 10, Type (0, 1), None
#     Edge 11, Type (0, 1), None
#     Edge 12, Type (0, 1), None
#     Edge 13, Type (0, 1), None
#     Edge 14, Type (0, 1), None
#     Edge 15, Type (0, 1), None
#     Edge 16, Type (0, 1), None
#     Edge 17, Type (0, 1), None
# Relax obj value: 0.043
# Max RMSD: 0.144
# Mean RMSD: 0.082
data_MOF--net-rtl--node1-VOLQOD_clean_sbu_1--node2-PAMTOO_clean_linker_0--edge1-none
_symmetry_space_group_name_H-M    P1
_symmetry_Int_Tables_number       1
_symmetry_cell_setting            triclinic
loop_
_symmetry_equiv_pos_as_xyz
'x, y, z'
_cell_length_a     18.605884
_cell_length_b     17.163656
_cell_length_c     10.26368
_cell_angle_alpha  91.064316
_cell_angle_beta   89.867411
_cell_angle_gamma 90.331268
loop_
_atom_site_label
_atom_site_type_symbol
_atom_site_fract_x
_atom_site_fract_y
_atom_site_fract_z
_atom_type_partial_charge
H0 H 0.02582 0.94698 -0.0144 0.0
H1 H 0.18297 0.8157 0.19354 0.0
H2 H 0.18503 0.81523 0.77367 0.0
H3 H 0.22108 0.66324 0.89938 0.0
C4 C 0.24973 0.68663 -0.01305 0.0
O5 O 0.25076 0.76668 -0.01648 0.0
H6 H 0.22123 0.66775 0.07659 0.0
C7 C 0.07002 0.90594 -0.01514 0.0
C8 C 0.09983 0.88165 0.86504 0.0
C9 C 0.09853 0.88153 0.10389 0.0
C10 C 0.1582 0.83215 0.10272 0.0
C11 C 0.18927 0.80826 -0.01646 0.0
C12 C 0.15938 0.83191 0.8648 0.0
H13 H 0.5372 0.61145 0.48933 0.0
H14 H 0.70818 0.72397 0.28075 0.0
H15 H 0.70976 0.72314 0.70082 0.0
H16 H 0.72949 0.87592 0.58232 0.0
C17 C 0.7603 0.85885 0.49331 0.0
O18 O 0.77219 0.77942 0.49146 0.0
H19 H 0.72714 0.87512 0.408 0.0
C20 C 0.58677 0.64507 0.48985 0.0
C21 C 0.61959 0.66401 0.60968 0.0
C22 C 0.6186 0.66473 0.37047 0.0
C23 C 0.68365 0.70655 0.3716 0.0
C24 C 0.71539 0.72959 0.49084 0.0
C25 C 0.68459 0.70604 0.60953 0.0
H26 H 0.93647 0.11271 -0.00788 0.0
H27 H 0.79705 0.26612 0.78612 0.0
H28 H 0.79402 0.26447 0.20607 0.0
H29 H 0.65358 0.26809 0.07646 0.0
C30 C 0.66759 0.3042 -0.00902 0.0
O31 O 0.73857 0.32679 -0.00294 0.0
H32 H 0.65778 0.26783 0.90179 0.0
C33 C 0.89612 0.15815 -0.00658 0.0
C34 C 0.86901 0.18528 0.11313 0.0
C35 C 0.87051 0.18612 0.87521 0.0
C36 C 0.81745 0.24361 0.87669 0.0
C37 C 0.79065 0.27245 -0.00377 0.0
C38 C 0.81565 0.24259 0.11447 0.0
H39 H 0.42991 0.46303 0.48348 0.0
H40 H 0.31179 0.28888 0.69082 0.0
H41 H 0.30584 0.29127 0.27163 0.0
H42 H 0.16804 0.28976 0.40772 0.0
C43 C 0.18159 0.25209 0.49127 0.0
O44 O 0.25199 0.22826 0.48181 0.0
H45 H 0.17345 0.28662 0.58303 0.0
C46 C 0.39459 0.41248 0.48273 0.0
C47 C 0.3711 0.38098 0.36389 0.0
C48 C 0.37413 0.37978 0.60066 0.0
C49 C 0.33013 0.3134 0.59997 0.0
C50 C 0.30466 0.28242 0.48118 0.0
C51 C 0.3266 0.31486 0.36278 0.0
O52 O 0.82077 0.98037 0.49191 0.0
Zn53 Zn 0.88525 0.07448 0.49143 0.0
O54 O -0.01438 0.03574 0.48969 0.0
Zn55 Zn 0.03495 0.07797 0.64085 0.0
Zn56 Zn -0.00711 0.91991 0.48671 0.0
Zn57 Zn 0.03358 0.07775 0.33937 0.0
O58 O 0.11005 0.1576 0.59868 0.0
O59 O 0.10905 0.15718 0.38248 0.0
O60 O 0.86149 0.13841 0.65534 0.0
O61 O 0.96609 0.13138 0.7573 0.0
O62 O 0.07536 0.99446 0.74918 0.0
O63 O 0.04591 0.88183 0.65189 0.0
O64 O 0.04463 0.88166 0.31756 0.0
O65 O 0.85971 0.13726 0.33054 0.0
O66 O 0.0731 0.99425 0.22577 0.0
O67 O 0.96438 0.13096 0.22776 0.0
C68 C 0.82817 0.90658 0.49083 0.0
C69 C 0.13221 0.18377 0.49077 0.0
C70 C 0.07508 0.92044 0.74587 0.0
C71 C 0.90107 0.15304 0.75394 0.0
C72 C 0.07295 0.92029 0.22488 0.0
C73 C 0.89923 0.15214 0.23252 0.0
O74 O 0.89008 0.87441 0.48848 0.0
O75 O 0.64182 0.44219 -0.01192 0.0
Zn76 Zn 0.59095 0.54794 -0.0126 0.0
O77 O 0.48604 0.52887 -0.01298 0.0
Zn78 Zn 0.4435 0.57549 0.83696 0.0
Zn79 Zn 0.46099 0.41651 -0.01556 0.0
Zn80 Zn 0.44202 0.57629 0.13847 0.0
O81 O 0.35436 0.63723 0.8795 0.0
O82 O 0.35342 0.63853 0.09594 0.0
O83 O 0.62174 0.60637 0.82136 0.0
O84 O 0.5161 0.6334 0.73181 0.0
O85 O 0.4107 0.49163 0.71728 0.0
O86 O 0.40952 0.38024 0.82295 0.0
O87 O 0.406 0.38131 0.14119 0.0
O88 O 0.62045 0.60793 0.15521 0.0
O89 O 0.40746 0.49284 0.25326 0.0
O90 O 0.51468 0.63366 0.24818 0.0
C91 C 0.61795 0.37216 -0.01136 0.0
C92 C 0.32483 0.65561 -0.01238 0.0
C93 C 0.39762 0.41905 0.72137 0.0
C94 C 0.58452 0.63689 0.73104 0.0
C95 C 0.39349 0.42041 0.24473 0.0
C96 C 0.58313 0.63779 0.24811 0.0
O97 O 0.55123 0.35651 -0.01278 0.0
loop_
_geom_bond_atom_site_label_1
_geom_bond_atom_site_label_2
_geom_bond_distance
_geom_bond_site_symmetry_2
_ccdc_geom_bond_type
H0 C7 0.929 . S
H1 C10 0.930 . S
H2 C12 0.929 . S
H3 C4 0.969 . S
C4 H3 0.969 . S
C4 O5 1.550 1_554 S
C4 H6 0.973 . S
O5 C4 1.550 1_556 S
O5 C11 1.412 . S
H6 C4 0.973 . S
C7 H0 0.929 . S
C7 C8 1.400 1_554 S
C7 C9 1.364 . S
C8 C7 1.400 1_556 S
C8 C12 1.377 . S
C9 C7 1.364 . S
C9 C10 1.374 . S
C10 H1 0.930 . S
C10 C9 1.374 . S
C10 C11 1.383 1_554 S
C11 O5 1.412 . S
C11 C10 1.383 1_556 S
C11 C12 1.394 . S
C12 H2 0.929 . S
C12 C8 1.377 . S
C12 C11 1.394 . S
H13 C20 0.929 . S
H14 C23 0.930 . S
H15 C25 0.929 . S
H16 C17 0.969 . S
C17 H16 0.969 . S
C17 O18 1.550 . S
C17 H19 0.973 . S
O18 C17 1.550 . S
O18 C24 1.412 . S
H19 C17 0.973 . S
C20 H13 0.929 . S
C20 C21 1.400 . S
C20 C22 1.364 . S
C21 C20 1.400 . S
C21 C25 1.377 . S
C22 C20 1.364 . S
C22 C23 1.374 . S
C23 H14 0.930 . S
C23 C22 1.374 . S
C23 C24 1.383 . S
C24 O18 1.412 . S
C24 C23 1.383 . S
C24 C25 1.394 . S
C25 H15 0.929 . S
C25 C21 1.377 . S
C25 C24 1.394 . S
H26 C33 0.929 1_556 S
H27 C36 0.930 . S
H28 C38 0.929 . S
H29 C30 0.969 . S
C30 H29 0.969 . S
C30 O31 1.550 1_556 S
C30 H32 0.973 . S
O31 C30 1.550 1_554 S
O31 C37 1.412 . S
H32 C30 0.973 . S
C33 H26 0.929 1_554 S
C33 C34 1.400 . S
C33 C35 1.364 1_554 S
C34 C33 1.400 . S
C34 C38 1.377 . S
C35 C33 1.364 1_556 S
C35 C36 1.374 . S
C36 H27 0.930 . S
C36 C35 1.374 . S
C36 C37 1.383 1_556 S
C37 O31 1.412 . S
C37 C36 1.383 1_554 S
C37 C38 1.394 . S
C38 H28 0.929 . S
C38 C34 1.377 . S
C38 C37 1.394 . S
H39 C46 0.929 . S
H40 C49 0.930 . S
H41 C51 0.929 . S
H42 C43 0.969 . S
C43 H42 0.969 . S
C43 O44 1.550 . S
C43 H45 0.973 . S
O44 C43 1.550 . S
O44 C50 1.412 . S
H45 C43 0.973 . S
C46 H39 0.929 . S
C46 C47 1.400 . S
C46 C48 1.364 . S
C47 C46 1.400 . S
C47 C51 1.377 . S
C48 C46 1.364 . S
C48 C49 1.374 . S
C49 H40 0.930 . S
C49 C48 1.374 . S
C49 C50 1.383 . S
C50 O44 1.412 . S
C50 C49 1.383 . S
C50 C51 1.394 . S
C51 H41 0.929 . S
C51 C47 1.377 . S
C51 C50 1.394 . S
O52 Zn53 1.953 1_565 S
O52 C68 1.225 . S
Zn53 O52 1.953 1_545 S
Zn53 O54 1.949 1_655 S
Zn53 O60 1.919 . S
Zn53 O65 1.924 . S
O54 Zn53 1.949 1_455 S
O54 Zn55 1.923 . S
O54 Zn56 1.950 1_545 S
O54 Zn57 1.945 . S
Zn55 O54 1.923 . S
Zn55 O58 1.933 . S
Zn55 O61 1.938 1_455 S
Zn55 O62 1.965 1_545 S
Zn56 O54 1.950 1_565 S
Zn56 O63 1.938 . S
Zn56 O64 1.906 . S
Zn56 O74 1.953 1_455 S
Zn57 O54 1.945 . S
Zn57 O59 1.932 . S
Zn57 O66 1.977 1_545 S
Zn57 O67 1.910 1_455 S
O58 Zn55 1.933 . S
O58 C69 1.226 . S
O59 Zn57 1.932 . S
O59 C69 1.307 . S
O60 Zn53 1.919 . S
O60 C71 1.253 . S
O61 Zn55 1.938 1_655 S
O61 C71 1.288 . S
O62 Zn55 1.965 1_565 S
O62 C70 1.303 . S
O63 Zn56 1.938 . S
O63 C70 1.247 . S
O64 Zn56 1.906 . S
O64 C72 1.304 . S
O65 Zn53 1.924 . S
O65 C73 1.311 . S
O66 Zn57 1.977 1_565 S
O66 C72 1.272 . S
O67 Zn57 1.910 1_655 S
O67 C73 1.231 . S
C68 O52 1.225 . S
C68 O74 1.298 . S
C69 O58 1.226 . S
C69 O59 1.307 . S
C70 O62 1.303 . S
C70 O63 1.247 . S
C71 O60 1.253 . S
C71 O61 1.288 . S
C72 O64 1.304 . S
C72 O66 1.272 . S
C73 O65 1.311 . S
C73 O67 1.231 . S
O74 Zn56 1.953 1_655 S
O74 C68 1.298 . S
O75 Zn76 1.953 . S
O75 C91 1.225 1_556 S
Zn76 O75 1.953 . S
Zn76 O77 1.949 1_556 S
Zn76 O83 1.919 . S
Zn76 O88 1.924 1_556 S
O77 Zn76 1.949 1_554 S
O77 Zn78 1.923 1_554 S
O77 Zn79 1.950 . S
O77 Zn80 1.945 . S
Zn78 O77 1.923 1_556 S
Zn78 O81 1.933 . S
Zn78 O84 1.941 . S
Zn78 O85 1.965 . S
Zn79 O77 1.950 . S
Zn79 O86 1.938 1_554 S
Zn79 O87 1.906 . S
Zn79 O97 1.953 . S
Zn80 O77 1.945 . S
Zn80 O82 1.932 . S
Zn80 O89 1.977 . S
Zn80 O90 1.910 . S
O81 Zn78 1.933 . S
O81 C92 1.226 1_556 S
O82 Zn80 1.932 . S
O82 C92 1.307 . S
O83 Zn76 1.919 . S
O83 C94 1.253 . S
O84 Zn78 1.941 . S
O84 C94 1.283 . S
O85 Zn78 1.965 . S
O85 C93 1.303 . S
O86 Zn79 1.938 1_556 S
O86 C93 1.247 . S
O87 Zn79 1.906 . S
O87 C95 1.304 . S
O88 Zn76 1.924 1_554 S
O88 C96 1.311 . S
O89 Zn80 1.977 . S
O89 C95 1.272 . S
O90 Zn80 1.910 . S
O90 C96 1.231 . S
C91 O75 1.225 1_554 S
C91 O97 1.298 . S
C92 O81 1.226 1_554 S
C92 O82 1.307 . S
C93 O85 1.303 . S
C93 O86 1.247 . S
C94 O83 1.253 . S
C94 O84 1.283 . S
C95 O87 1.304 . S
C95 O89 1.272 . S
C96 O88 1.311 . S
C96 O90 1.231 . S
O97 Zn79 1.953 . S
O97 C91 1.298 . S
C69 C43 1.448 . S
C4 C92 1.486 . S
C17 C68 1.500 . S
C30 C91 1.497 1_556 S
C72 C9 1.462 . S
C94 C21 1.480 . S
C34 C73 1.546 . S
C48 C93 1.562 . S
C96 C22 1.502 . S
C71 C35 1.499 . S
C95 C47 1.504 . S
C8 C70 1.526 . S
