# Generated by pormake.
# Topology anh, (6,3)-cn, num edge types: 1
# Building blocks:
#     Node 0, Type 0, BuildingBlock: BETDEL_clean_sbu_0, # of connection points: 6
#     Node 1, Type 0, BuildingBlock: BETDEL_clean_sbu_0, # of connection points: 6
#     Node 2, Type 0, BuildingBlock: BETDEL_clean_sbu_0, # of connection points: 6
#     Node 3, Type 1, BuildingBlock: QEWDON_clean_linker_0, # of connection points: 3
#     Node 4, Type 1, BuildingBlock: QEWDON_clean_linker_0, # of connection points: 3
#     Node 5, Type 1, BuildingBlock: QEWDON_clean_linker_0, # of connection points: 3
#     Node 6, Type 1, BuildingBlock: QEWDON_clean_linker_0, # of connection points: 3
#     Node 7, Type 1, BuildingBlock: QEWDON_clean_linker_0, # of connection points: 3
#     Node 8, Type 1, BuildingBlock: QEWDON_clean_linker_0, # of connection points: 3
#     Edge 9, Type (0, 1), None
#     Edge 10, Type (0, 1), None
#     Edge 11, Type (0, 1), None
#     Edge 12, Type (0, 1), None
#     Edge 13, Type (0, 1), None
#     Edge 14, Type (0, 1), None
#     Edge 15, Type (0, 1), None
#     Edge 16, Type (0, 1), None
#     Edge 17, Type (0, 1), None
#     Edge 18, Type (0, 1), None
#     Edge 19, Type (0, 1), None
#     Edge 20, Type (0, 1), None
#     Edge 21, Type (0, 1), None
#     Edge 22, Type (0, 1), None
#     Edge 23, Type (0, 1), None
#     Edge 24, Type (0, 1), None
#     Edge 25, Type (0, 1), None
#     Edge 26, Type (0, 1), None
# Relax obj value: 0.153
# Max RMSD: 0.137
# Mean RMSD: 0.111
data_MOF--net-anh--node1-BETDEL_clean_sbu_0--node2-QEWDON_clean_linker_0--edge1-none
_symmetry_space_group_name_H-M    P1
_symmetry_Int_Tables_number       1
_symmetry_cell_setting            triclinic
loop_
_symmetry_equiv_pos_as_xyz
'x, y, z'
_cell_length_a     14.820354
_cell_length_b     14.735676
_cell_length_c     20.45488
_cell_angle_alpha  94.229903
_cell_angle_beta   95.279398
_cell_angle_gamma 119.97153
loop_
_atom_site_label
_atom_site_type_symbol
_atom_site_fract_x
_atom_site_fract_y
_atom_site_fract_z
_atom_type_partial_charge
Dy0 Dy 0.12763 0.52675 0.16498 0.0
C1 C 0.89116 0.71943 0.15878 0.0
C2 C 0.24967 0.43918 0.15014 0.0
Dy3 Dy 1.0337 0.6549 0.15393 0.0
O4 O 0.19383 0.42625 0.19757 0.0
O5 O 0.23795 0.49893 0.11091 0.0
O6 O 0.06827 0.48575 0.26326 0.0
O7 O 0.11834 0.63589 0.23675 0.0
C8 C 0.0758 0.57642 0.2789 0.0
C9 C 0.08104 0.60913 0.03648 0.0
O10 O 0.19528 0.79342 0.19206 0.0
O11 O 0.27459 0.69557 0.17311 0.0
O12 O 0.9703 0.75759 0.12581 0.0
O13 O 0.90177 0.65796 0.19698 0.0
O14 O 0.09312 0.69949 0.059 0.0
O15 O 1.04136 0.54507 0.07798 0.0
O16 O 0.96149 0.38778 0.13465 0.0
O17 O 0.88761 0.49128 0.14954 0.0
C18 C 0.28165 0.78949 0.18658 0.0
C19 C 0.87731 0.39627 0.13932 0.0
Dy20 Dy 0.41556 1.02272 0.47674 0.0
C21 C 0.85258 0.25269 0.5424 0.0
C22 C 0.20576 0.88577 0.43897 0.0
Dy23 Dy 0.64473 0.10801 0.49895 0.0
O24 O 0.25286 0.92204 0.4994 0.0
O25 O 0.27301 0.93427 0.39913 0.0
O26 O 0.42036 0.09033 0.57836 0.0
O27 O 0.52285 1.03262 0.56116 0.0
C28 C 0.49641 0.07821 0.60385 0.0
C29 C 0.55853 0.04468 0.37174 0.0
O30 O 0.60557 0.94001 0.50471 0.0
O31 O 0.43357 0.87852 0.45809 0.0
O32 O 0.8097 0.21545 0.48107 0.0
O33 O 0.78324 0.19832 0.57967 0.0
O34 O 0.63919 1.03925 0.39657 0.0
O35 O 0.53536 0.09443 0.41362 0.0
O36 O 0.45787 0.19157 0.47176 0.0
O37 O 0.62785 0.25246 0.52132 0.0
C38 C 0.5113 0.86077 0.47692 0.0
C39 C 0.55111 0.27049 0.50109 0.0
Dy40 Dy 0.71353 0.68222 0.81653 0.0
C41 C 0.52188 0.26152 0.8221 0.0
C42 C 0.80381 0.88895 0.79556 0.0
Dy43 Dy 0.58436 0.47046 0.82077 0.0
O44 O 0.83911 0.8542 0.8415 0.0
O45 O 0.72147 0.80983 0.75934 0.0
O46 O 0.78285 0.71275 0.9217 0.0
O47 O 0.62098 0.60186 0.89544 0.0
C48 C 0.69709 0.64632 0.94214 0.0
C49 C 0.59551 0.51426 0.69493 0.0
O50 O 0.45458 0.50495 0.8378 0.0
O51 O 0.54872 0.6597 0.7951 0.0
O52 O 0.46869 0.29751 0.79103 0.0
O53 O 0.59811 0.34025 0.86226 0.0
O54 O 0.51102 0.45015 0.71712 0.0
O55 O 0.67362 0.5512 0.74041 0.0
O56 O 0.84034 0.6399 0.80821 0.0
O57 O 0.74593 0.49538 0.8583 0.0
C58 C 0.45867 0.58759 0.81319 0.0
C59 C 0.83602 0.56226 0.83901 0.0
H60 H 0.64593 0.15836 0.27709 0.0
C61 C 0.57596 0.084 0.25641 0.0
C62 C 0.51706 1.01722 0.30052 0.0
C63 C 0.54405 0.05777 0.18736 0.0
H64 H 0.37868 0.87094 0.31151 0.0
C65 C 0.42351 0.92143 0.27663 0.0
C66 C 0.38747 0.88964 0.20834 0.0
C67 C 0.4485 0.95828 0.16377 0.0
C68 C 0.60684 0.13852 0.1421 0.0
H69 H 0.42055 0.93396 0.1112 0.0
C70 C 0.71592 0.22079 0.16051 0.0
C71 C 0.76757 0.30168 0.11996 0.0
C72 C 0.55454 0.13933 0.08124 0.0
H73 H 0.47215 0.08199 0.06504 0.0
C74 C 0.60577 0.21706 0.04099 0.0
H75 H 0.76047 0.22393 0.20641 0.0
C76 C 0.7102 0.29772 0.06036 0.0
H77 H 0.74636 0.35813 0.02856 0.0
H78 H 0.56312 0.21615 -0.00521 0.0
H79 H 0.5696 0.62714 0.60747 0.0
C80 C 0.57424 0.56194 0.5834 0.0
C81 C 0.59922 0.50192 0.62344 0.0
C82 C 0.54496 0.53222 0.5142 0.0
H83 H 0.61029 0.36231 0.62667 0.0
C84 C 0.5963 0.41097 0.59465 0.0
C85 C 0.56443 0.37565 0.52637 0.0
C86 C 0.54027 0.43737 0.48619 0.0
C87 C 0.50698 0.59266 0.47367 0.0
H88 H 0.51785 0.41061 0.43349 0.0
C89 C 0.53774 0.70133 0.49328 0.0
C90 C 0.4907 0.75045 0.45742 0.0
C91 C 0.43149 0.5379 0.41655 0.0
H92 H 0.40199 0.45525 0.40021 0.0
C93 C 0.38824 0.58687 0.38033 0.0
H94 H 0.59562 0.74682 0.53666 0.0
C95 C 0.41653 0.69094 0.4006 0.0
H96 H 0.37939 0.72489 0.37121 0.0
H97 H 0.33021 0.54279 0.3367 0.0
H98 H 0.2012 0.59614 0.94905 0.0
C99 C 0.12612 0.58113 0.92464 0.0
C100 C 1.05154 0.57682 0.96412 0.0
C101 C 0.10765 0.57487 0.855 0.0
H102 H 0.90168 0.56673 0.96579 0.0
C103 C 0.95644 0.56559 0.9344 0.0
C104 C 0.93514 0.56286 0.86586 0.0
C105 C 1.01021 0.56535 0.82645 0.0
C106 C 0.19413 0.59016 0.81356 0.0
H107 H 0.99142 0.55915 0.77369 0.0
C108 C 0.27849 0.5708 0.83367 0.0
C109 C 0.36173 0.59575 0.79481 0.0
C110 C 0.19619 0.63228 0.75362 0.0
H111 H 0.13878 0.65328 0.73655 0.0
C112 C 0.27495 0.65299 0.71492 0.0
H113 H 0.28111 0.53912 0.87939 0.0
C114 C 0.35653 0.63576 0.73523 0.0
H115 H 0.41676 0.65456 0.70367 0.0
H116 H 0.27393 0.6851 0.66908 0.0
H117 H 0.98918 0.46926 0.38106 0.0
C118 C 1.02474 0.55367 0.39377 0.0
C119 C 0.06462 0.61736 0.34369 0.0
C120 C 1.03323 0.60018 0.45909 0.0
H121 H 0.13729 0.77589 0.31875 0.0
C122 C 0.10575 0.72637 0.35705 0.0
C123 C 0.12219 0.77449 0.42142 0.0
C124 C 0.08502 0.71158 0.4718 0.0
C125 C 0.99495 0.53597 0.51519 0.0
H126 H 0.10514 0.75133 0.52197 0.0
C127 C 0.96961 0.42941 0.51059 0.0
C128 C 0.9239 0.3677 0.56068 0.0
C129 C 0.97807 0.57969 0.5735 0.0
H130 H 0.98817 0.65778 0.57915 0.0
C131 C 0.94275 0.52165 0.62568 0.0
H132 H 0.97741 0.39067 0.4664 0.0
C133 C 0.91699 0.41658 0.61997 0.0
H134 H 0.88136 0.37109 0.65917 0.0
H135 H 0.9285 0.55663 0.66887 0.0
H136 H 0.6558 0.06278 0.66556 0.0
C137 C 0.62319 0.09524 0.69909 0.0
C138 C 0.53781 0.10501 0.675 0.0
C139 C 0.6691 0.12997 0.76579 0.0
H140 H 0.43149 0.15745 0.69901 0.0
C141 C 0.49588 0.14715 0.71844 0.0
C142 C 0.54284 0.18571 0.78501 0.0
C143 C 0.62909 0.17553 0.80865 0.0
C144 C 0.75797 0.11641 0.78976 0.0
H145 H 0.66729 0.20626 0.85956 0.0
C146 C 0.74806 1.01729 0.77502 0.0
C147 C 0.82753 0.99873 0.79984 0.0
C148 C 0.85095 0.19949 0.82747 0.0
H149 H 0.86065 0.27715 0.83876 0.0
C150 C 0.93236 0.18238 0.85053 0.0
H151 H 0.67486 0.95244 0.74762 0.0
C152 C 0.92032 0.08197 0.83759 0.0
H153 H 0.98207 0.06875 0.85827 0.0
H154 H 1.00388 0.24641 0.87975 0.0
H155 H 0.52939 0.50742 -0.00096 0.0
C156 C 0.59985 0.55914 0.03427 0.0
C157 C 0.68934 0.63875 0.01271 0.0
C158 C 0.60293 0.54376 0.10126 0.0
H159 H 0.84846 0.76697 0.04153 0.0
C160 C 0.77896 0.70632 0.05871 0.0
C161 C 0.78599 0.68624 0.12413 0.0
C162 C 0.6964 0.60665 0.14585 0.0
C163 C 0.5078 0.46452 0.12538 0.0
H164 H 0.70078 0.59027 0.19651 0.0
C165 C 0.41827 0.47369 0.11745 0.0
C166 C 0.33246 0.41248 0.14949 0.0
C167 C 0.50881 0.38809 0.16214 0.0
H168 H 0.57766 0.37988 0.16869 0.0
C169 C 0.42113 0.3232 0.19173 0.0
H170 H 0.4192 0.53489 0.09058 0.0
C171 C 0.33376 0.33659 0.18656 0.0
H172 H 0.26837 0.28918 0.2122 0.0
H173 H 0.42226 0.26481 0.22042 0.0
loop_
_geom_bond_atom_site_label_1
_geom_bond_atom_site_label_2
_geom_bond_distance
_geom_bond_site_symmetry_2
_ccdc_geom_bond_type
Dy0 O4 2.398 . S
Dy0 O5 2.491 . S
Dy0 O6 2.403 . S
Dy0 O7 2.664 . S
Dy0 O11 2.326 . S
Dy0 O15 2.310 . S
Dy0 O16 2.351 1_455 S
C1 O12 1.185 . S
C1 O13 1.355 . S
C2 O4 1.185 . S
C2 O5 1.355 . S
Dy3 O7 2.310 1_655 S
Dy3 O10 2.351 1_655 S
Dy3 O12 2.398 . S
Dy3 O13 2.491 . S
Dy3 O14 2.403 . S
Dy3 O15 2.664 1_655 S
Dy3 O17 2.326 . S
O4 Dy0 2.398 . S
O4 C2 1.185 . S
O5 Dy0 2.491 . S
O5 C2 1.355 . S
O6 Dy0 2.403 . S
O6 C8 1.254 . S
O7 Dy0 2.664 . S
O7 Dy3 2.310 1_455 S
O7 C8 1.268 . S
C8 O6 1.254 . S
C8 O7 1.268 . S
C9 O14 1.254 1_455 S
C9 O15 1.268 . S
O10 Dy3 2.351 1_455 S
O10 C18 1.249 . S
O11 Dy0 2.326 . S
O11 C18 1.267 . S
O12 C1 1.185 . S
O12 Dy3 2.398 . S
O13 C1 1.355 . S
O13 Dy3 2.491 . S
O14 Dy3 2.403 . S
O14 C9 1.254 1_655 S
O15 Dy0 2.310 . S
O15 Dy3 2.664 1_455 S
O15 C9 1.268 . S
O16 Dy0 2.351 1_655 S
O16 C19 1.249 . S
O17 Dy3 2.326 . S
O17 C19 1.267 . S
C18 O10 1.249 . S
C18 O11 1.267 . S
C19 O16 1.249 . S
C19 O17 1.267 . S
Dy20 O24 2.398 . S
Dy20 O25 2.491 . S
Dy20 O26 2.403 . S
Dy20 O27 2.664 1_565 S
Dy20 O31 2.326 . S
Dy20 O35 2.310 . S
Dy20 O36 2.351 1_565 S
C21 O32 1.185 . S
C21 O33 1.355 . S
C22 O24 1.185 . S
C22 O25 1.355 . S
Dy23 O27 2.310 . S
Dy23 O30 2.351 1_545 S
Dy23 O32 2.398 . S
Dy23 O33 2.491 . S
Dy23 O34 2.403 . S
Dy23 O35 2.664 1_545 S
Dy23 O37 2.326 . S
O24 Dy20 2.398 . S
O24 C22 1.185 . S
O25 Dy20 2.491 . S
O25 C22 1.355 . S
O26 Dy20 2.403 . S
O26 C28 1.254 1_565 S
O27 Dy20 2.664 1_545 S
O27 Dy23 2.310 . S
O27 C28 1.268 . S
C28 O26 1.254 1_545 S
C28 O27 1.268 . S
C29 O34 1.254 . S
C29 O35 1.268 1_545 S
O30 Dy23 2.351 1_565 S
O30 C38 1.249 . S
O31 Dy20 2.326 . S
O31 C38 1.267 . S
O32 C21 1.185 . S
O32 Dy23 2.398 . S
O33 C21 1.355 . S
O33 Dy23 2.491 . S
O34 Dy23 2.403 . S
O34 C29 1.254 . S
O35 Dy20 2.310 . S
O35 Dy23 2.664 1_565 S
O35 C29 1.268 1_565 S
O36 Dy20 2.351 1_545 S
O36 C39 1.249 . S
O37 Dy23 2.326 . S
O37 C39 1.267 . S
C38 O30 1.249 . S
C38 O31 1.267 . S
C39 O36 1.249 . S
C39 O37 1.267 . S
Dy40 O44 2.398 . S
Dy40 O45 2.491 . S
Dy40 O46 2.403 . S
Dy40 O47 2.664 . S
Dy40 O51 2.326 . S
Dy40 O55 2.310 . S
Dy40 O56 2.351 . S
C41 O52 1.185 . S
C41 O53 1.355 . S
C42 O44 1.185 . S
C42 O45 1.355 . S
Dy43 O47 2.310 . S
Dy43 O50 2.351 . S
Dy43 O52 2.398 . S
Dy43 O53 2.491 . S
Dy43 O54 2.403 . S
Dy43 O55 2.664 . S
Dy43 O57 2.326 . S
O44 Dy40 2.398 . S
O44 C42 1.185 . S
O45 Dy40 2.491 . S
O45 C42 1.355 . S
O46 Dy40 2.403 . S
O46 C48 1.254 . S
O47 Dy40 2.664 . S
O47 Dy43 2.310 . S
O47 C48 1.268 . S
C48 O46 1.254 . S
C48 O47 1.268 . S
C49 O54 1.254 . S
C49 O55 1.268 . S
O50 Dy43 2.351 . S
O50 C58 1.249 . S
O51 Dy40 2.326 . S
O51 C58 1.267 . S
O52 C41 1.185 . S
O52 Dy43 2.398 . S
O53 C41 1.355 . S
O53 Dy43 2.491 . S
O54 Dy43 2.403 . S
O54 C49 1.254 . S
O55 Dy40 2.310 . S
O55 Dy43 2.664 . S
O55 C49 1.268 . S
O56 Dy40 2.351 . S
O56 C59 1.249 . S
O57 Dy43 2.326 . S
O57 C59 1.267 . S
C58 O50 1.249 . S
C58 O51 1.267 . S
C59 O56 1.249 . S
C59 O57 1.267 . S
H60 C61 0.949 . S
C61 H60 0.949 . S
C61 C62 1.395 1_545 S
C61 C63 1.391 . S
C62 C61 1.395 1_565 S
C62 C65 1.390 . S
C63 C61 1.391 . S
C63 C67 1.387 1_545 S
C63 C68 1.491 . S
H64 C65 0.950 . S
C65 C62 1.390 . S
C65 H64 0.950 . S
C65 C66 1.378 . S
C66 C65 1.378 . S
C66 C67 1.409 . S
C67 C63 1.387 1_565 S
C67 C66 1.409 . S
C67 H69 0.951 . S
C68 C63 1.491 . S
C68 C70 1.382 . S
C68 C72 1.404 . S
H69 C67 0.951 . S
C70 C68 1.382 . S
C70 C71 1.390 . S
C70 H75 0.949 . S
C71 C70 1.390 . S
C71 C76 1.399 . S
C72 C68 1.404 . S
C72 H73 0.950 . S
C72 C74 1.375 . S
H73 C72 0.950 . S
C74 C72 1.375 . S
C74 C76 1.382 . S
C74 H78 0.950 . S
H75 C70 0.949 . S
C76 C71 1.399 . S
C76 C74 1.382 . S
C76 H77 0.952 . S
H77 C76 0.952 . S
H78 C74 0.950 . S
H79 C80 0.949 . S
C80 H79 0.949 . S
C80 C81 1.395 . S
C80 C82 1.391 . S
C81 C80 1.395 . S
C81 C84 1.390 . S
C82 C80 1.391 . S
C82 C86 1.387 . S
C82 C87 1.491 . S
H83 C84 0.950 . S
C84 C81 1.390 . S
C84 H83 0.950 . S
C84 C85 1.378 . S
C85 C84 1.378 . S
C85 C86 1.409 . S
C86 C82 1.387 . S
C86 C85 1.409 . S
C86 H88 0.951 . S
C87 C82 1.491 . S
C87 C89 1.382 . S
C87 C91 1.404 . S
H88 C86 0.951 . S
C89 C87 1.382 . S
C89 C90 1.390 . S
C89 H94 0.949 . S
C90 C89 1.390 . S
C90 C95 1.399 . S
C91 C87 1.404 . S
C91 H92 0.950 . S
C91 C93 1.375 . S
H92 C91 0.950 . S
C93 C91 1.375 . S
C93 C95 1.382 . S
C93 H97 0.950 . S
H94 C89 0.949 . S
C95 C90 1.399 . S
C95 C93 1.382 . S
C95 H96 0.952 . S
H96 C95 0.952 . S
H97 C93 0.950 . S
H98 C99 0.949 . S
C99 H98 0.949 . S
C99 C100 1.395 1_455 S
C99 C101 1.391 . S
C100 C99 1.395 1_655 S
C100 C103 1.390 . S
C101 C99 1.391 . S
C101 C105 1.387 1_455 S
C101 C106 1.491 . S
H102 C103 0.950 . S
C103 C100 1.390 . S
C103 H102 0.950 . S
C103 C104 1.378 . S
C104 C103 1.378 . S
C104 C105 1.409 . S
C105 C101 1.387 1_655 S
C105 C104 1.409 . S
C105 H107 0.951 . S
C106 C101 1.491 . S
C106 C108 1.382 . S
C106 C110 1.404 . S
H107 C105 0.951 . S
C108 C106 1.382 . S
C108 C109 1.390 . S
C108 H113 0.949 . S
C109 C108 1.390 . S
C109 C114 1.399 . S
C110 C106 1.404 . S
C110 H111 0.950 . S
C110 C112 1.375 . S
H111 C110 0.950 . S
C112 C110 1.375 . S
C112 C114 1.382 . S
C112 H116 0.950 . S
H113 C108 0.949 . S
C114 C109 1.399 . S
C114 C112 1.382 . S
C114 H115 0.952 . S
H115 C114 0.952 . S
H116 C112 0.950 . S
H117 C118 0.949 1_655 S
C118 H117 0.949 1_455 S
C118 C119 1.395 . S
C118 C120 1.391 . S
C119 C118 1.395 . S
C119 C122 1.390 . S
C120 C118 1.391 . S
C120 C124 1.387 . S
C120 C125 1.491 1_455 S
H121 C122 0.950 . S
C122 C119 1.390 . S
C122 H121 0.950 . S
C122 C123 1.378 . S
C123 C122 1.378 . S
C123 C124 1.409 . S
C124 C120 1.387 . S
C124 C123 1.409 . S
C124 H126 0.951 . S
C125 C120 1.491 1_655 S
C125 C127 1.382 . S
C125 C129 1.404 . S
H126 C124 0.951 . S
C127 C125 1.382 . S
C127 C128 1.390 . S
C127 H132 0.949 . S
C128 C127 1.390 . S
C128 C133 1.399 . S
C129 C125 1.404 . S
C129 H130 0.950 . S
C129 C131 1.375 . S
H130 C129 0.950 . S
C131 C129 1.375 . S
C131 C133 1.382 . S
C131 H135 0.950 . S
H132 C127 0.949 . S
C133 C128 1.399 . S
C133 C131 1.382 . S
C133 H134 0.952 . S
H134 C133 0.952 . S
H135 C131 0.950 . S
H136 C137 0.949 1_565 S
C137 H136 0.949 1_545 S
C137 C138 1.395 . S
C137 C139 1.391 . S
C138 C137 1.395 . S
C138 C141 1.390 . S
C139 C137 1.391 . S
C139 C143 1.387 . S
C139 C144 1.491 1_545 S
H140 C141 0.950 . S
C141 C138 1.390 . S
C141 H140 0.950 . S
C141 C142 1.378 . S
C142 C141 1.378 . S
C142 C143 1.409 . S
C143 C139 1.387 . S
C143 C142 1.409 . S
C143 H145 0.951 . S
C144 C139 1.491 1_565 S
C144 C146 1.382 . S
C144 C148 1.404 . S
H145 C143 0.951 . S
C146 C144 1.382 . S
C146 C147 1.390 . S
C146 H151 0.949 . S
C147 C146 1.390 . S
C147 C152 1.399 . S
C148 C144 1.404 . S
C148 H149 0.950 . S
C148 C150 1.375 . S
H149 C148 0.950 . S
C150 C148 1.375 . S
C150 C152 1.382 . S
C150 H154 0.950 . S
H151 C146 0.949 . S
C152 C147 1.399 . S
C152 C150 1.382 . S
C152 H153 0.952 . S
H153 C152 0.952 . S
H154 C150 0.950 . S
H155 C156 0.949 . S
C156 H155 0.949 . S
C156 C157 1.395 . S
C156 C158 1.391 . S
C157 C156 1.395 . S
C157 C160 1.390 . S
C158 C156 1.391 . S
C158 C162 1.387 . S
C158 C163 1.491 . S
H159 C160 0.950 . S
C160 C157 1.390 . S
C160 H159 0.950 . S
C160 C161 1.378 . S
C161 C160 1.378 . S
C161 C162 1.409 . S
C162 C158 1.387 . S
C162 C161 1.409 . S
C162 H164 0.951 . S
C163 C158 1.491 . S
C163 C165 1.382 . S
C163 C167 1.404 . S
H164 C162 0.951 . S
C165 C163 1.382 . S
C165 C166 1.390 . S
C165 H170 0.949 . S
C166 C165 1.390 . S
C166 C171 1.399 . S
C167 C163 1.404 . S
C167 H168 0.950 . S
C167 C169 1.375 . S
H168 C167 0.950 . S
C169 C167 1.375 . S
C169 C171 1.382 . S
C169 H173 0.950 . S
H170 C165 0.949 . S
C171 C166 1.399 . S
C171 C169 1.382 . S
C171 H172 0.952 . S
H172 C171 0.952 . S
H173 C169 0.950 . S
C2 C166 0.928 . S
C21 C128 0.893 . S
C42 C147 0.950 . S
C1 C161 0.905 . S
C123 C22 0.788 . S
C142 C41 0.764 . S
C38 C90 2.619 . S
C59 C104 2.347 . S
C18 C66 2.288 . S
C85 C39 2.342 . S
C109 C58 2.629 . S
C19 C71 2.616 . S
C100 C9 1.685 1_656 S
C29 C62 1.698 1_545 S
C49 C81 1.658 . S
C138 C28 1.701 . S
C157 C48 1.493 1_554 S
C8 C119 1.402 . S
