# Generated by pormake.
# Topology nom, (4,4)-cn, num edge types: 1
# Building blocks:
#     Node 0, Type 0, BuildingBlock: GIZVER_clean_linker_0, # of connection points: 4
#     Node 1, Type 0, BuildingBlock: GIZVER_clean_linker_0, # of connection points: 4
#     Node 2, Type 0, BuildingBlock: GIZVER_clean_linker_0, # of connection points: 4
#     Node 3, Type 0, BuildingBlock: GIZVER_clean_linker_0, # of connection points: 4
#     Node 4, Type 0, BuildingBlock: GIZVER_clean_linker_0, # of connection points: 4
#     Node 5, Type 0, BuildingBlock: GIZVER_clean_linker_0, # of connection points: 4
#     Node 6, Type 1, BuildingBlock: QUQFOY_clean_sbu_3, # of connection points: 4
#     Node 7, Type 1, BuildingBlock: QUQFOY_clean_sbu_3, # of connection points: 4
#     Node 8, Type 1, BuildingBlock: QUQFOY_clean_sbu_3, # of connection points: 4
#     Node 9, Type 1, BuildingBlock: QUQFOY_clean_sbu_3, # of connection points: 4
#     Node 10, Type 1, BuildingBlock: QUQFOY_clean_sbu_3, # of connection points: 4
#     Node 11, Type 1, BuildingBlock: QUQFOY_clean_sbu_3, # of connection points: 4
#     Edge 12, Type (0, 1), None
#     Edge 13, Type (0, 1), None
#     Edge 14, Type (0, 1), None
#     Edge 15, Type (0, 1), None
#     Edge 16, Type (0, 1), None
#     Edge 17, Type (0, 1), None
#     Edge 18, Type (0, 1), None
#     Edge 19, Type (0, 1), None
#     Edge 20, Type (0, 1), None
#     Edge 21, Type (0, 1), None
#     Edge 22, Type (0, 1), None
#     Edge 23, Type (0, 1), None
#     Edge 24, Type (0, 1), None
#     Edge 25, Type (0, 1), None
#     Edge 26, Type (0, 1), None
#     Edge 27, Type (0, 1), None
#     Edge 28, Type (0, 1), None
#     Edge 29, Type (0, 1), None
#     Edge 30, Type (0, 1), None
#     Edge 31, Type (0, 1), None
#     Edge 32, Type (0, 1), None
#     Edge 33, Type (0, 1), None
#     Edge 34, Type (0, 1), None
#     Edge 35, Type (0, 1), None
# Relax obj value: 0.003
# Max RMSD: 0.077
# Mean RMSD: 0.048
data_MOF--net-nom--node1-QUQFOY_clean_sbu_3--node2-GIZVER_clean_linker_0--edge1-none
_symmetry_space_group_name_H-M    P1
_symmetry_Int_Tables_number       1
_symmetry_cell_setting            triclinic
loop_
_symmetry_equiv_pos_as_xyz
'x, y, z'
_cell_length_a     22.950869
_cell_length_b     22.97602
_cell_length_c     22.033737
_cell_angle_alpha  89.998607
_cell_angle_beta   90.004456
_cell_angle_gamma 120.19947
loop_
_atom_site_label
_atom_site_type_symbol
_atom_site_fract_x
_atom_site_fract_y
_atom_site_fract_z
_atom_type_partial_charge
H0 H 0.86987 0.5638 0.38265 0.0
H1 H 0.95153 0.56655 0.20695 0.0
H2 H 0.75068 0.41037 0.25243 0.0
H3 H 0.9688 0.65993 0.35378 0.0
H4 H -0.01659 0.67295 0.27424 0.0
H5 H 0.01547 0.59263 0.40983 0.0
H6 H 0.2127 0.64469 0.34567 0.0
H7 H 0.08194 0.683 0.23402 0.0
C8 C 0.86561 0.53939 0.33942 0.0
C9 C 0.80434 0.48277 0.32299 0.0
C10 C 0.91873 0.56965 0.29795 0.0
C11 C 0.91187 0.54081 0.24027 0.0
C12 C 0.8519 0.48207 0.22393 0.0
C13 C 0.799 0.45216 0.26642 0.0
C14 C -0.02247 0.6382 0.31198 0.0
C15 C 0.04092 0.63528 0.31982 0.0
C16 C 0.05302 0.61102 0.37407 0.0
C17 C 0.11445 0.61295 0.38304 0.0
C18 C 0.16372 0.6394 0.33721 0.0
C19 C 0.15318 0.66667 0.28402 0.0
C20 C 0.09061 0.66196 0.27476 0.0
H21 H 0.30319 0.88594 0.54535 0.0
H22 H 0.37839 0.97952 0.37183 0.0
H23 H 0.37662 0.79709 0.41671 0.0
H24 H 0.30002 0.98654 0.51898 0.0
H25 H 0.30405 0.00593 0.43955 0.0
H26 H 0.40973 0.02893 0.57643 0.0
H27 H 0.57875 0.21203 0.51177 0.0
H28 H 0.40044 0.10783 0.40155 0.0
C29 C 0.32737 0.88787 0.50256 0.0
C30 C 0.33948 0.83555 0.48664 0.0
C31 C 0.34356 0.94115 0.46175 0.0
C32 C 0.37008 0.94084 0.4046 0.0
C33 C 0.38187 0.88893 0.38809 0.0
C34 C 0.37028 0.83881 0.43063 0.0
C35 C 0.3314 -0.00205 0.47738 0.0
C36 C 0.39861 0.06052 0.48716 0.0
C37 C 0.43355 0.06653 0.54108 0.0
C38 C 0.4985 0.1209 0.54982 0.0
C39 C 0.52924 0.16875 0.50365 0.0
C40 C 0.49378 0.16612 0.45078 0.0
C41 C 0.42841 0.11098 0.44224 0.0
H42 H 0.29805 0.41435 0.55564 0.0
H43 H 0.39091 0.42839 0.72798 0.0
H44 H 0.35188 0.58465 0.67183 0.0
H45 H 0.30207 0.31944 0.59301 0.0
H46 H 0.31667 0.3169 0.67262 0.0
H47 H 0.4075 0.39028 0.52527 0.0
H48 H 0.58036 0.37727 0.57834 0.0
H49 H 0.41388 0.3121 0.70144 0.0
C50 C 0.3223 0.44309 0.59622 0.0
C51 C 0.32384 0.50408 0.60736 0.0
C52 C 0.34691 0.41602 0.6394 0.0
C53 C 0.37513 0.45116 0.69338 0.0
C54 C 0.37776 0.51242 0.7052 0.0
C55 C 0.35431 0.5399 0.66098 0.0
C56 C 0.33798 0.34703 0.63052 0.0
C57 C 0.40496 0.35369 0.61613 0.0
C58 C 0.43443 0.37869 0.55916 0.0
C59 C 0.49792 0.38768 0.54567 0.0
C60 C 0.53224 0.37257 0.58981 0.0
C61 C 0.50153 0.34294 0.64516 0.0
C62 C 0.43816 0.33482 0.65876 0.0
H63 H 0.87652 0.31638 0.73404 0.0
H64 H 0.94291 0.40696 0.90975 0.0
H65 H 0.74564 0.35468 0.84553 0.0
H66 H -0.02471 0.32576 0.77488 0.0
H67 H -0.01035 0.34044 0.85441 0.0
H68 H 0.00682 0.43283 0.7071 0.0
H69 H 0.20789 0.58868 0.7524 0.0
H70 H 0.08888 0.43511 0.88256 0.0
C71 C 0.86785 0.33758 0.77467 0.0
C72 C 0.80522 0.33275 0.78392 0.0
C73 C 0.91768 0.36469 0.81958 0.0
C74 C 0.90541 0.38863 0.87394 0.0
C75 C 0.84392 0.38656 0.88292 0.0
C76 C 0.79465 0.36006 0.83708 0.0
C77 C -0.01934 0.36101 0.81197 0.0
C78 C 0.0399 0.4293 0.7979 0.0
C79 C 0.0466 0.4584 0.74036 0.0
C80 C 0.10659 0.5171 0.72401 0.0
C81 C 0.15959 0.54689 0.76642 0.0
C82 C 0.15432 0.51619 0.82293 0.0
C83 C 0.09309 0.45953 0.83935 0.0
H84 H 0.65522 0.11335 0.0454 0.0
H85 H 0.58003 0.0197 0.8719 0.0
H86 H 0.58174 0.20212 0.9167 0.0
H87 H 0.65839 0.01274 0.01909 0.0
H88 H 0.65442 -0.00664 0.93967 0.0
H89 H 0.54866 0.97026 0.07648 0.0
H90 H 0.37973 0.78713 0.01174 0.0
H91 H 0.55805 0.89146 0.9016 0.0
C92 C 0.63103 0.11139 0.0026 0.0
C93 C 0.61891 0.1637 -0.01334 0.0
C94 C 0.61484 0.0581 0.96182 0.0
C95 C 0.58833 0.05838 0.90465 0.0
C96 C 0.57653 0.11028 0.88811 0.0
C97 C 0.5881 0.1604 0.93064 0.0
C98 C 0.62703 0.00131 -0.02253 0.0
C99 C 0.55983 0.93873 -0.01278 0.0
C100 C 0.52486 0.93267 0.04112 0.0
C101 C 0.45993 0.87827 0.04983 0.0
C102 C 0.42922 0.83043 0.00365 0.0
C103 C 0.46471 0.83311 0.95079 0.0
C104 C 0.53006 0.88828 0.94228 0.0
H105 H 0.66036 0.585 0.05572 0.0
H106 H 0.56781 0.57102 0.2282 0.0
H107 H 0.60664 0.41468 0.17186 0.0
H108 H 0.65651 0.67997 0.09323 0.0
H109 H 0.64182 0.68246 0.17282 0.0
H110 H 0.55119 0.60916 0.02537 0.0
H111 H 0.37819 0.622 0.07828 0.0
H112 H 0.54454 0.68714 0.20156 0.0
C113 C 0.63617 0.55627 0.09632 0.0
C114 C 0.63462 0.49526 0.10742 0.0
C115 C 0.61165 0.58336 0.13956 0.0
C116 C 0.58352 0.54824 0.19356 0.0
C117 C 0.58088 0.48696 0.20533 0.0
C118 C 0.60422 0.45946 0.16106 0.0
C119 C 0.62058 0.65235 0.1307 0.0
C120 C 0.55359 0.64566 0.11624 0.0
C121 C 0.5242 0.6207 0.05923 0.0
C122 C 0.46071 0.61167 0.04569 0.0
C123 C 0.42631 0.62672 0.0898 0.0
C124 C 0.45694 0.65631 0.14519 0.0
C125 C 0.52031 0.66445 0.15885 0.0
C126 C 0.74293 0.46787 0.35706 0.0
O127 O 0.74388 0.5151 0.38778 0.0
Cd128 Cd 0.64365 0.51537 0.41167 0.0
O129 O 0.68748 0.41366 0.34692 0.0
Cd130 Cd 0.56755 0.36333 0.37936 0.0
C131 C 0.57358 0.46338 0.26862 0.0
O132 O 0.58645 0.42068 0.4747 0.0
O133 O 0.48671 0.38268 0.43766 0.0
O134 O 0.58143 0.27508 0.42133 0.0
C135 C 0.52532 0.40293 0.48366 0.0
O136 O 0.60013 0.50836 0.3096 0.0
C137 C 0.5216 0.2274 0.41244 0.0
O138 O 0.55564 0.40229 0.27998 0.0
O139 O 0.48411 0.24072 0.37964 0.0
C140 C 0.28027 0.52141 0.57111 0.0
O141 O 0.23279 0.4754 0.54019 0.0
Cd142 Cd 0.13762 0.48607 0.51661 0.0
O143 O 0.28247 0.57741 0.5796 0.0
Cd144 Cd 0.21703 0.63189 0.54583 0.0
C145 C 0.12119 0.5368 0.65943 0.0
O146 O 0.17521 0.57886 0.44789 0.0
O147 O 0.1152 0.61492 0.49159 0.0
O148 O 0.3188 0.72418 0.50429 0.0
C149 C 0.13212 0.59758 0.44295 0.0
O150 O 0.0984 0.49039 0.61954 0.0
C151 C 0.30704 0.77054 0.51978 0.0
O152 O 0.16692 0.5963 0.64576 0.0
O153 O 0.25681 0.75359 0.5546 0.0
C154 C 0.74756 0.28765 0.74497 0.0
O155 O 0.75154 0.24403 0.71266 0.0
Cd156 Cd 0.65005 0.14491 0.68459 0.0
O157 O 0.6912 0.28499 0.7518 0.0
Cd158 Cd 0.57519 0.21853 0.71176 0.0
C159 C 0.5716 0.12332 0.82343 0.0
O160 O 0.59208 0.17809 0.61629 0.0
O161 O 0.49417 0.11684 0.6576 0.0
O162 O 0.58918 0.32006 0.66863 0.0
C163 C 0.53028 0.13448 0.61 0.0
O164 O 0.60144 0.10555 0.78532 0.0
C165 C 0.53047 0.30914 0.68086 0.0
O166 O 0.5539 0.1657 0.8089 0.0
O167 O 0.49396 0.25883 0.71466 0.0
C168 C 0.21576 0.53116 0.85697 0.0
O169 O 0.2149 0.48394 0.88766 0.0
Cd170 Cd 0.31522 0.48388 0.91157 0.0
O171 O 0.27116 0.58544 0.84688 0.0
Cd172 Cd 0.39111 0.63594 0.87932 0.0
C173 C 0.38514 0.53598 0.7685 0.0
O174 O 0.37222 0.57857 0.97464 0.0
O175 O 0.47201 0.6167 0.93769 0.0
O176 O 0.37712 0.72413 0.92129 0.0
C177 C 0.43336 0.59641 -0.01635 0.0
O178 O 0.35869 0.49099 0.80947 0.0
C179 C 0.43694 0.77185 0.91242 0.0
O180 O 0.40302 0.59705 0.7799 0.0
O181 O 0.47446 0.75857 0.87963 0.0
C182 C 0.67813 0.47792 0.07111 0.0
O183 O 0.72558 0.52392 0.04017 0.0
Cd184 Cd 0.82072 0.51325 0.01656 0.0
O185 O 0.67594 0.42192 0.07958 0.0
Cd186 Cd 0.74132 0.3674 0.04575 0.0
C187 C 0.8372 0.46244 0.15935 0.0
O188 O 0.78305 0.42047 0.94782 0.0
O189 O 0.84313 0.38444 -0.00854 0.0
O190 O 0.63953 0.27505 0.00428 0.0
C191 C 0.82618 0.40179 0.94284 0.0
O192 O 0.85995 0.50887 0.11948 0.0
C193 C 0.65134 0.22872 0.01976 0.0
O194 O 0.79149 0.40294 0.14566 0.0
O195 O 0.70162 0.24573 0.05455 0.0
C196 C 0.21085 0.71163 0.245 0.0
O197 O 0.20691 0.75523 0.21263 0.0
Cd198 Cd 0.3084 0.8543 0.18454 0.0
O199 O 0.26718 0.71424 0.25187 0.0
Cd200 Cd 0.38317 0.78062 0.21176 0.0
C201 C 0.38681 0.87587 0.3234 0.0
O202 O 0.36633 0.82105 0.11626 0.0
O203 O 0.46421 0.88232 0.15762 0.0
O204 O 0.36923 0.6791 0.16861 0.0
C205 C 0.42812 0.86467 0.11 0.0
O206 O 0.357 0.89367 0.28527 0.0
C207 C 0.42794 0.69004 0.18088 0.0
O208 O 0.40448 0.83347 0.3089 0.0
O209 O 0.46441 0.74033 0.21473 0.0
loop_
_geom_bond_atom_site_label_1
_geom_bond_atom_site_label_2
_geom_bond_distance
_geom_bond_site_symmetry_2
_ccdc_geom_bond_type
H0 C8 0.930 . S
H1 C11 0.930 . S
H2 C13 0.930 . S
H3 C14 0.970 1_655 S
H4 C14 0.970 . S
H5 C16 0.930 . S
H6 C18 0.930 . S
H7 C20 0.930 . S
C8 H0 0.930 . S
C8 C9 1.382 . S
C8 C10 1.426 . S
C9 C8 1.382 . S
C9 C13 1.389 . S
C10 C8 1.426 . S
C10 C11 1.375 . S
C10 C14 1.532 1_655 S
C11 H1 0.930 . S
C11 C10 1.375 . S
C11 C12 1.416 . S
C12 C11 1.416 . S
C12 C13 1.371 . S
C13 H2 0.930 . S
C13 C9 1.389 . S
C13 C12 1.371 . S
C14 H3 0.970 1_455 S
C14 H4 0.970 . S
C14 C10 1.532 1_455 S
C14 C15 1.499 . S
C15 C14 1.499 . S
C15 C16 1.370 . S
C15 C20 1.415 . S
C16 H5 0.930 . S
C16 C15 1.370 . S
C16 C17 1.407 . S
C17 C16 1.407 . S
C17 C18 1.365 . S
C18 H6 0.930 . S
C18 C17 1.365 . S
C18 C19 1.393 . S
C19 C18 1.393 . S
C19 C20 1.387 . S
C20 H7 0.930 . S
C20 C15 1.415 . S
C20 C19 1.387 . S
H21 C29 0.930 . S
H22 C32 0.930 . S
H23 C34 0.930 . S
H24 C35 0.970 1_565 S
H25 C35 0.970 . S
H26 C37 0.930 . S
H27 C39 0.930 . S
H28 C41 0.930 . S
C29 H21 0.930 . S
C29 C30 1.382 . S
C29 C31 1.426 . S
C30 C29 1.382 . S
C30 C34 1.389 . S
C31 C29 1.426 . S
C31 C32 1.375 . S
C31 C35 1.532 1_565 S
C32 H22 0.930 . S
C32 C31 1.375 . S
C32 C33 1.416 . S
C33 C32 1.416 . S
C33 C34 1.371 . S
C34 H23 0.930 . S
C34 C30 1.389 . S
C34 C33 1.371 . S
C35 H24 0.970 1_545 S
C35 H25 0.970 . S
C35 C31 1.532 1_545 S
C35 C36 1.499 . S
C36 C35 1.499 . S
C36 C37 1.370 . S
C36 C41 1.415 . S
C37 H26 0.930 . S
C37 C36 1.370 . S
C37 C38 1.407 . S
C38 C37 1.407 . S
C38 C39 1.365 . S
C39 H27 0.930 . S
C39 C38 1.365 . S
C39 C40 1.393 . S
C40 C39 1.393 . S
C40 C41 1.387 . S
C41 H28 0.930 . S
C41 C36 1.415 . S
C41 C40 1.387 . S
H42 C50 0.930 . S
H43 C53 0.930 . S
H44 C55 0.930 . S
H45 C56 0.970 . S
H46 C56 0.970 . S
H47 C58 0.930 . S
H48 C60 0.930 . S
H49 C62 0.930 . S
C50 H42 0.930 . S
C50 C51 1.382 . S
C50 C52 1.426 . S
C51 C50 1.382 . S
C51 C55 1.389 . S
C52 C50 1.426 . S
C52 C53 1.375 . S
C52 C56 1.532 . S
C53 H43 0.930 . S
C53 C52 1.375 . S
C53 C54 1.416 . S
C54 C53 1.416 . S
C54 C55 1.371 . S
C55 H44 0.930 . S
C55 C51 1.389 . S
C55 C54 1.371 . S
C56 H45 0.970 . S
C56 H46 0.970 . S
C56 C52 1.532 . S
C56 C57 1.499 . S
C57 C56 1.499 . S
C57 C58 1.370 . S
C57 C62 1.415 . S
C58 H47 0.930 . S
C58 C57 1.370 . S
C58 C59 1.407 . S
C59 C58 1.407 . S
C59 C60 1.365 . S
C60 H48 0.930 . S
C60 C59 1.365 . S
C60 C61 1.393 . S
C61 C60 1.393 . S
C61 C62 1.387 . S
C62 H49 0.930 . S
C62 C57 1.415 . S
C62 C61 1.387 . S
H63 C71 0.930 . S
H64 C74 0.930 . S
H65 C76 0.930 . S
H66 C77 0.970 1_655 S
H67 C77 0.970 . S
H68 C79 0.930 . S
H69 C81 0.930 . S
H70 C83 0.930 . S
C71 H63 0.930 . S
C71 C72 1.382 . S
C71 C73 1.426 . S
C72 C71 1.382 . S
C72 C76 1.389 . S
C73 C71 1.426 . S
C73 C74 1.375 . S
C73 C77 1.532 1_655 S
C74 H64 0.930 . S
C74 C73 1.375 . S
C74 C75 1.416 . S
C75 C74 1.416 . S
C75 C76 1.371 . S
C76 H65 0.930 . S
C76 C72 1.389 . S
C76 C75 1.371 . S
C77 H66 0.970 1_455 S
C77 H67 0.970 . S
C77 C73 1.532 1_455 S
C77 C78 1.499 . S
C78 C77 1.499 . S
C78 C79 1.370 . S
C78 C83 1.415 . S
C79 H68 0.930 . S
C79 C78 1.370 . S
C79 C80 1.407 . S
C80 C79 1.407 . S
C80 C81 1.365 . S
C81 H69 0.930 . S
C81 C80 1.365 . S
C81 C82 1.393 . S
C82 C81 1.393 . S
C82 C83 1.387 . S
C83 H70 0.930 . S
C83 C78 1.415 . S
C83 C82 1.387 . S
H84 C92 0.930 . S
H85 C95 0.930 . S
H86 C97 0.930 . S
H87 C98 0.970 1_554 S
H88 C98 0.970 1_565 S
H89 C100 0.930 . S
H90 C102 0.930 . S
H91 C104 0.930 . S
C92 H84 0.930 . S
C92 C93 1.382 . S
C92 C94 1.426 1_554 S
C93 C92 1.382 . S
C93 C97 1.389 1_554 S
C94 C92 1.426 1_556 S
C94 C95 1.375 . S
C94 C98 1.532 . S
C95 H85 0.930 . S
C95 C94 1.375 . S
C95 C96 1.416 . S
C96 C95 1.416 . S
C96 C97 1.371 . S
C97 H86 0.930 . S
C97 C93 1.389 1_556 S
C97 C96 1.371 . S
C98 H87 0.970 1_556 S
C98 H88 0.970 1_545 S
C98 C94 1.532 . S
C98 C99 1.499 1_546 S
C99 C98 1.499 1_564 S
C99 C100 1.370 . S
C99 C104 1.415 1_554 S
C100 H89 0.930 . S
C100 C99 1.370 . S
C100 C101 1.407 . S
C101 C100 1.407 . S
C101 C102 1.365 . S
C102 H90 0.930 . S
C102 C101 1.365 . S
C102 C103 1.393 1_554 S
C103 C102 1.393 1_556 S
C103 C104 1.387 . S
C104 H91 0.930 . S
C104 C99 1.415 1_556 S
C104 C103 1.387 . S
H105 C113 0.930 . S
H106 C116 0.930 . S
H107 C118 0.930 . S
H108 C119 0.970 . S
H109 C119 0.970 . S
H110 C121 0.930 . S
H111 C123 0.930 . S
H112 C125 0.930 . S
C113 H105 0.930 . S
C113 C114 1.382 . S
C113 C115 1.426 . S
C114 C113 1.382 . S
C114 C118 1.389 . S
C115 C113 1.426 . S
C115 C116 1.375 . S
C115 C119 1.532 . S
C116 H106 0.930 . S
C116 C115 1.375 . S
C116 C117 1.416 . S
C117 C116 1.416 . S
C117 C118 1.371 . S
C118 H107 0.930 . S
C118 C114 1.389 . S
C118 C117 1.371 . S
C119 H108 0.970 . S
C119 H109 0.970 . S
C119 C115 1.532 . S
C119 C120 1.499 . S
C120 C119 1.499 . S
C120 C121 1.370 . S
C120 C125 1.415 . S
C121 H110 0.930 . S
C121 C120 1.370 . S
C121 C122 1.407 . S
C122 C121 1.407 . S
C122 C123 1.365 . S
C123 H111 0.930 . S
C123 C122 1.365 . S
C123 C124 1.393 . S
C124 C123 1.393 . S
C124 C125 1.387 . S
C125 H112 0.930 . S
C125 C120 1.415 . S
C125 C124 1.387 . S
C126 O127 1.306 . S
C126 O129 1.160 . S
O127 C126 1.306 . S
O127 Cd128 2.228 . S
Cd128 O127 2.228 . S
Cd128 O132 2.273 . S
Cd128 O136 2.277 . S
O129 C126 1.160 . S
O129 Cd130 2.203 . S
Cd130 O129 2.203 . S
Cd130 O132 2.411 . S
Cd130 O133 2.333 . S
Cd130 O134 2.352 . S
Cd130 O138 2.277 . S
Cd130 O139 2.356 . S
C131 O136 1.209 . S
C131 O138 1.226 . S
O132 Cd128 2.273 . S
O132 Cd130 2.411 . S
O132 C135 1.320 . S
O133 Cd130 2.333 . S
O133 C135 1.214 . S
O134 Cd130 2.352 . S
O134 C137 1.258 . S
C135 O132 1.320 . S
C135 O133 1.214 . S
O136 Cd128 2.277 . S
O136 C131 1.209 . S
C137 O134 1.258 . S
C137 O139 1.282 . S
O138 Cd130 2.277 . S
O138 C131 1.226 . S
O139 Cd130 2.356 . S
O139 C137 1.282 . S
C140 O141 1.306 . S
C140 O143 1.160 . S
O141 C140 1.306 . S
O141 Cd142 2.228 . S
Cd142 O141 2.228 . S
Cd142 O146 2.273 . S
Cd142 O150 2.277 . S
O143 C140 1.160 . S
O143 Cd144 2.203 . S
Cd144 O143 2.203 . S
Cd144 O146 2.411 . S
Cd144 O147 2.333 . S
Cd144 O148 2.352 . S
Cd144 O152 2.277 . S
Cd144 O153 2.356 . S
C145 O150 1.209 . S
C145 O152 1.226 . S
O146 Cd142 2.273 . S
O146 Cd144 2.411 . S
O146 C149 1.320 . S
O147 Cd144 2.333 . S
O147 C149 1.214 . S
O148 Cd144 2.352 . S
O148 C151 1.258 . S
C149 O146 1.320 . S
C149 O147 1.214 . S
O150 Cd142 2.277 . S
O150 C145 1.209 . S
C151 O148 1.258 . S
C151 O153 1.282 . S
O152 Cd144 2.277 . S
O152 C145 1.226 . S
O153 Cd144 2.356 . S
O153 C151 1.282 . S
C154 O155 1.306 . S
C154 O157 1.160 . S
O155 C154 1.306 . S
O155 Cd156 2.228 . S
Cd156 O155 2.228 . S
Cd156 O160 2.273 . S
Cd156 O164 2.277 . S
O157 C154 1.160 . S
O157 Cd158 2.203 . S
Cd158 O157 2.203 . S
Cd158 O160 2.411 . S
Cd158 O161 2.333 . S
Cd158 O162 2.352 . S
Cd158 O166 2.277 . S
Cd158 O167 2.356 . S
C159 O164 1.209 . S
C159 O166 1.226 . S
O160 Cd156 2.273 . S
O160 Cd158 2.411 . S
O160 C163 1.320 . S
O161 Cd158 2.333 . S
O161 C163 1.214 . S
O162 Cd158 2.352 . S
O162 C165 1.258 . S
C163 O160 1.320 . S
C163 O161 1.214 . S
O164 Cd156 2.277 . S
O164 C159 1.209 . S
C165 O162 1.258 . S
C165 O167 1.282 . S
O166 Cd158 2.277 . S
O166 C159 1.226 . S
O167 Cd158 2.356 . S
O167 C165 1.282 . S
C168 O169 1.306 . S
C168 O171 1.160 . S
O169 C168 1.306 . S
O169 Cd170 2.228 . S
Cd170 O169 2.228 . S
Cd170 O174 2.273 . S
Cd170 O178 2.277 . S
O171 C168 1.160 . S
O171 Cd172 2.203 . S
Cd172 O171 2.203 . S
Cd172 O174 2.411 . S
Cd172 O175 2.333 . S
Cd172 O176 2.352 . S
Cd172 O180 2.277 . S
Cd172 O181 2.356 . S
C173 O178 1.209 . S
C173 O180 1.226 . S
O174 Cd170 2.273 . S
O174 Cd172 2.411 . S
O174 C177 1.320 . S
O175 Cd172 2.333 . S
O175 C177 1.214 . S
O176 Cd172 2.352 . S
O176 C179 1.258 . S
C177 O174 1.320 . S
C177 O175 1.214 . S
O178 Cd170 2.277 . S
O178 C173 1.209 . S
C179 O176 1.258 . S
C179 O181 1.282 . S
O180 Cd172 2.277 . S
O180 C173 1.226 . S
O181 Cd172 2.356 . S
O181 C179 1.282 . S
C182 O183 1.306 . S
C182 O185 1.160 . S
O183 C182 1.306 . S
O183 Cd184 2.228 . S
Cd184 O183 2.228 . S
Cd184 O188 2.273 1_554 S
Cd184 O192 2.277 . S
O185 C182 1.160 . S
O185 Cd186 2.203 . S
Cd186 O185 2.203 . S
Cd186 O188 2.411 1_554 S
Cd186 O189 2.333 . S
Cd186 O190 2.352 . S
Cd186 O194 2.277 . S
Cd186 O195 2.356 . S
C187 O192 1.209 . S
C187 O194 1.226 . S
O188 Cd184 2.273 1_556 S
O188 Cd186 2.411 1_556 S
O188 C191 1.320 . S
O189 Cd186 2.333 . S
O189 C191 1.214 1_554 S
O190 Cd186 2.352 . S
O190 C193 1.258 . S
C191 O188 1.320 . S
C191 O189 1.214 1_556 S
O192 Cd184 2.277 . S
O192 C187 1.209 . S
C193 O190 1.258 . S
C193 O195 1.282 . S
O194 Cd186 2.277 . S
O194 C187 1.226 . S
O195 Cd186 2.356 . S
O195 C193 1.282 . S
C196 O197 1.306 . S
C196 O199 1.160 . S
O197 C196 1.306 . S
O197 Cd198 2.228 . S
Cd198 O197 2.228 . S
Cd198 O202 2.273 . S
Cd198 O206 2.277 . S
O199 C196 1.160 . S
O199 Cd200 2.203 . S
Cd200 O199 2.203 . S
Cd200 O202 2.411 . S
Cd200 O203 2.333 . S
Cd200 O204 2.352 . S
Cd200 O208 2.277 . S
Cd200 O209 2.356 . S
C201 O206 1.209 . S
C201 O208 1.226 . S
O202 Cd198 2.273 . S
O202 Cd200 2.411 . S
O202 C205 1.320 . S
O203 Cd200 2.333 . S
O203 C205 1.214 . S
O204 Cd200 2.352 . S
O204 C207 1.258 . S
C205 O202 1.320 . S
C205 O203 1.214 . S
O206 Cd198 2.277 . S
O206 C201 1.209 . S
C207 O204 1.258 . S
C207 O209 1.282 . S
O208 Cd200 2.277 . S
O208 C201 1.226 . S
O209 Cd200 2.356 . S
O209 C207 1.282 . S
C196 C19 1.515 . S
C40 C137 1.511 . S
C51 C140 1.460 . S
C72 C154 1.495 . S
C179 C103 1.510 . S
C114 C182 1.450 . S
C30 C151 1.454 . S
C61 C165 1.504 . S
C82 C168 1.463 . S
C193 C93 1.445 . S
C207 C124 1.503 . S
C126 C9 1.444 . S
C17 C149 1.452 . S
C38 C163 1.395 . S
C173 C54 1.454 . S
C75 C191 1.453 . S
C205 C101 1.396 . S
C131 C117 1.453 . S
C201 C33 1.418 . S
C59 C135 1.407 . S
C145 C80 1.479 . S
C96 C159 1.418 . S
C122 C177 1.406 1_554 S
C12 C187 1.480 . S
