# Generated by pormake.
# Topology anh, (6,3)-cn, num edge types: 1
# Building blocks:
#     Node 0, Type 0, BuildingBlock: PAMTOO_clean_sbu_0, # of connection points: 6
#     Node 1, Type 0, BuildingBlock: PAMTOO_clean_sbu_0, # of connection points: 6
#     Node 2, Type 0, BuildingBlock: PAMTOO_clean_sbu_0, # of connection points: 6
#     Node 3, Type 1, BuildingBlock: CUQRIR_clean_linker_1, # of connection points: 3
#     Node 4, Type 1, BuildingBlock: CUQRIR_clean_linker_1, # of connection points: 3
#     Node 5, Type 1, BuildingBlock: CUQRIR_clean_linker_1, # of connection points: 3
#     Node 6, Type 1, BuildingBlock: CUQRIR_clean_linker_1, # of connection points: 3
#     Node 7, Type 1, BuildingBlock: CUQRIR_clean_linker_1, # of connection points: 3
#     Node 8, Type 1, BuildingBlock: CUQRIR_clean_linker_1, # of connection points: 3
#     Edge 9, Type (0, 1), None
#     Edge 10, Type (0, 1), None
#     Edge 11, Type (0, 1), None
#     Edge 12, Type (0, 1), None
#     Edge 13, Type (0, 1), None
#     Edge 14, Type (0, 1), None
#     Edge 15, Type (0, 1), None
#     Edge 16, Type (0, 1), None
#     Edge 17, Type (0, 1), None
#     Edge 18, Type (0, 1), None
#     Edge 19, Type (0, 1), None
#     Edge 20, Type (0, 1), None
#     Edge 21, Type (0, 1), None
#     Edge 22, Type (0, 1), None
#     Edge 23, Type (0, 1), None
#     Edge 24, Type (0, 1), None
#     Edge 25, Type (0, 1), None
#     Edge 26, Type (0, 1), None
# Relax obj value: 0.555
# Max RMSD: 0.303
# Mean RMSD: 0.206
data_MOF--net-anh--node1-PAMTOO_clean_sbu_0--node2-CUQRIR_clean_linker_1--edge1-none
_symmetry_space_group_name_H-M    P1
_symmetry_Int_Tables_number       1
_symmetry_cell_setting            triclinic
loop_
_symmetry_equiv_pos_as_xyz
'x, y, z'
_cell_length_a     11.858114
_cell_length_b     10.822699
_cell_length_c     19.012148
_cell_angle_alpha  83.084753
_cell_angle_beta   92.486897
_cell_angle_gamma 81.470673
loop_
_atom_site_label
_atom_site_type_symbol
_atom_site_fract_x
_atom_site_fract_y
_atom_site_fract_z
_atom_type_partial_charge
Dy0 Dy 1.17974 0.68593 0.09102 0.0
Dy1 Dy 1.18527 0.50446 0.13625 0.0
C2 C 0.24504 0.48987 0.98692 0.0
O3 O 0.99272 0.61819 0.10198 0.0
O4 O 0.99329 0.61611 0.10248 0.0
O5 O 0.24004 0.8231 0.01644 0.0
O6 O 1.12996 0.88671 0.09577 0.0
O7 O 0.21934 0.52285 0.2488 0.0
O8 O 1.19459 0.72224 0.20433 0.0
O9 O 0.37286 0.56941 0.1068 0.0
O10 O 0.37275 0.57282 0.10916 0.0
O11 O 1.19656 0.35006 0.22036 0.0
O12 O 1.11516 0.34012 0.11573 0.0
C13 C 0.8846 0.68002 0.08322 0.0
O14 O 1.18728 0.60345 0.98686 0.0
O15 O 0.26656 0.4215 0.04792 0.0
C16 C 0.30647 0.9662 0.08689 0.0
C17 C 0.48277 1.02961 0.1749 0.0
C18 C 0.50954 0.95214 0.12185 0.0
C19 C 0.42215 0.91914 0.07882 0.0
C20 C 0.28234 1.05228 0.13509 0.0
C21 C 0.369 0.08361 0.17899 0.0
C22 C 0.21072 0.91297 0.05431 0.0
C23 C 0.21086 0.63764 0.26013 0.0
C24 C 0.46467 0.61083 0.13954 0.0
C25 C 1.02591 0.2636 0.2151 0.0
C26 C 0.81571 0.2021 0.25483 0.0
C27 C 0.82738 0.32826 0.23708 0.0
C28 C 0.93256 0.35913 0.21746 0.0
C29 C 1.01521 0.13836 0.23737 0.0
C30 C 0.91048 0.10754 0.25714 0.0
C31 C 1.12966 0.2933 0.18293 0.0
H32 H 0.59756 0.91596 0.11446 0.0
H33 H 0.44518 0.85392 0.041 0.0
H34 H 1.19451 0.08698 0.14146 0.0
H35 H 0.34748 0.14616 0.21827 0.0
H36 H 0.75378 0.40103 0.23508 0.0
H37 H 0.94009 0.45668 0.20236 0.0
H38 H 1.08569 1.06396 0.23663 0.0
H39 H 0.9012 1.00946 0.2701 0.0
Dy40 Dy 0.64843 0.12039 0.54668 0.0
Dy41 Dy 0.88271 0.11388 0.5086 0.0
C42 C 0.81337 0.11306 0.67262 0.0
O43 O 0.68359 0.31962 0.55131 0.0
O44 O 0.83302 0.33034 0.48449 0.0
O45 O 0.51047 0.08623 0.61271 0.0
O46 O 0.48083 0.22237 0.51652 0.0
O47 O 0.78888 0.1651 0.40187 0.0
O48 O 0.64563 1.06393 0.43684 0.0
O49 O 0.87119 0.89784 0.51939 0.0
O50 O 0.68537 0.91315 0.54651 0.0
O51 O 1.02093 0.081 0.44046 0.0
O52 O 1.05322 0.12513 0.54824 0.0
C53 C 0.74974 0.39036 0.51666 0.0
O54 O 0.7335 1.05285 0.6529 0.0
O55 O 0.87388 0.15912 0.62236 0.0
C56 C 0.37759 1.05521 0.52481 0.0
C57 C 0.28665 0.88399 0.44898 0.0
C58 C 0.33935 0.84475 0.51732 0.0
C59 C 0.37814 0.93141 0.55661 0.0
C60 C 0.33945 0.08843 0.45321 0.0
C61 C 0.28361 1.00818 0.41858 0.0
C62 C 0.43879 0.14014 0.55994 0.0
C63 C 0.70304 0.10929 0.38539 0.0
C64 C 0.78037 0.84261 0.53389 0.0
C65 C 1.11519 0.25354 0.45479 0.0
C66 C 1.17442 0.48652 0.40377 0.0
C67 C 1.09184 0.43727 0.36569 0.0
C68 C 1.06467 0.31936 0.39015 0.0
C69 C 1.19014 0.30838 0.49523 0.0
C70 C 0.22737 0.41761 0.46691 0.0
C71 C 1.08407 0.13248 0.48306 0.0
H72 H 0.35269 0.74726 0.5403 0.0
H73 H 0.4155 0.89904 0.60983 0.0
H74 H 0.34672 0.17939 0.4246 0.0
H75 H 0.2376 1.04446 0.36821 0.0
H76 H 1.04449 0.49236 0.31965 0.0
H77 H 0.99959 0.28302 0.36094 0.0
H78 H 0.22305 0.26417 0.54763 0.0
H79 H 0.29262 0.45292 0.49685 0.0
Dy80 Dy 0.8483 0.69829 0.80797 0.0
Dy81 Dy 0.61156 0.74349 0.80567 0.0
C82 C 0.70902 0.70946 0.66446 0.0
O83 O 0.84345 0.90767 0.79297 0.0
O84 O 0.66518 0.9325 0.82885 0.0
O85 O 0.97493 0.64866 0.73456 0.0
O86 O 1.01929 0.62086 0.84952 0.0
O87 O 0.62743 0.66564 0.9176 0.0
O88 O 0.81877 0.67176 0.92897 0.0
O89 O 0.62331 0.52204 0.82301 0.0
O90 O 0.80917 0.50565 0.80486 0.0
O91 O 0.44752 0.76131 0.75278 0.0
O92 O 0.498 0.92241 0.79407 0.0
C93 C 0.75285 0.984 0.80674 0.0
O94 O 0.78548 0.76673 0.69271 0.0
O95 O 0.64305 0.66273 0.70771 0.0
C96 C 1.07414 0.45003 0.78198 0.0
C97 C 0.23756 0.24739 0.80888 0.0
C98 C 0.2127 0.29682 0.73679 0.0
C99 C 1.1369 0.41185 0.72471 0.0
C100 C 1.0597 0.35588 0.83734 0.0
C101 C 1.13395 0.24097 0.84249 0.0
C102 C 1.03988 0.58436 0.78723 0.0
C103 C 0.72331 0.64555 0.95774 0.0
C104 C 0.72055 0.44981 0.81176 0.0
C105 C 0.30851 0.89088 0.80355 0.0
C106 C 0.28734 0.64693 0.85108 0.0
C107 C 0.33036 0.72174 0.89813 0.0
C108 C 0.33012 0.84951 0.87612 0.0
C109 C 0.22637 0.83755 0.76837 0.0
C110 C 0.23389 0.70767 0.78548 0.0
C111 C 0.41414 0.87566 0.7669 0.0
H112 H 0.27423 0.27543 0.69786 0.0
H113 H 1.1384 0.47514 0.67617 0.0
H114 H 1.00106 0.37397 0.87833 0.0
H115 H 1.12925 0.17026 0.88709 0.0
H116 H 0.37073 0.68166 0.94925 0.0
H117 H 0.37781 0.90156 0.90891 0.0
H118 H 1.19525 0.87828 0.71488 0.0
H119 H 0.21113 0.65556 0.74373 0.0
C120 C 0.64393 0.14393 0.20147 0.0
N121 N 0.70506 0.16655 0.25903 0.0
N122 N 0.57064 1.06364 0.22046 0.0
C123 C 0.66608 0.18743 0.12582 0.0
C124 C 0.59033 1.03678 0.2922 0.0
N125 N 0.66925 0.10347 0.31593 0.0
C126 C 0.56761 0.91691 0.33363 0.0
H127 H 0.5889 0.19197 0.08995 0.0
H128 H 0.73526 0.11925 0.10831 0.0
H129 H 0.69442 0.28101 0.12138 0.0
H130 H 0.53639 0.8538 0.29827 0.0
H131 H 0.50695 0.93853 0.37465 0.0
H132 H 0.64801 0.86585 0.36204 0.0
C133 C 0.80377 0.61498 0.50849 0.0
N134 N 0.78391 0.71255 0.55005 0.0
N135 N 0.74364 0.51691 0.52944 0.0
C136 C 0.86854 0.62095 0.44292 0.0
C137 C 0.68064 0.56598 0.58049 0.0
N138 N 0.7159 0.67215 0.59827 0.0
C139 C 0.5742 0.51898 0.60753 0.0
H140 H 0.81105 0.61354 0.39649 0.0
H141 H 0.93676 0.53841 0.44857 0.0
H142 H 0.90596 0.70916 0.43392 0.0
H143 H 0.51345 0.59627 0.6245 0.0
H144 H 0.59811 0.44387 0.65305 0.0
H145 H 0.52738 0.48146 0.56509 0.0
C146 C 0.33652 0.42743 0.82166 0.0
N147 N 0.30396 0.51156 0.86693 0.0
N148 N 0.31998 0.30848 0.84731 0.0
C149 C 0.39515 0.45702 0.75415 0.0
C150 C 0.30782 0.32182 0.91711 0.0
N151 N 0.28521 0.44486 0.92727 0.0
C152 C 0.30333 0.2123 0.97291 0.0
H153 H 0.45024 0.37133 0.74149 0.0
H154 H 0.33349 0.49266 0.70843 0.0
H155 H 0.44617 0.53246 0.75922 0.0
H156 H 0.32012 0.12197 0.95028 0.0
H157 H 0.21847 0.2216 -0.00407 0.0
H158 H 0.36951 0.21171 0.01607 0.0
C159 C 1.19933 0.69304 0.43704 0.0
N160 N 1.19138 0.61463 0.38746 0.0
N161 N 0.24167 0.79596 0.40965 0.0
C162 C 1.15168 0.67705 0.50977 0.0
C163 C 0.25156 0.78172 0.34026 0.0
N164 N 0.21971 0.67244 0.32638 0.0
C165 C 0.30324 0.86508 0.28612 0.0
H166 H 1.12023 0.77006 0.52663 0.0
H167 H 0.21822 0.62583 0.5499 0.0
H168 H 1.08105 0.62093 0.51012 0.0
H169 H 0.36212 0.80762 0.25454 0.0
H170 H 0.34967 0.93322 0.30721 0.0
H171 H 0.23303 0.9173 0.24988 0.0
C172 C 0.69618 0.21625 0.82018 0.0
N173 N 0.747 0.11407 0.78898 0.0
N174 N 0.73229 0.3271 0.79251 0.0
C175 C 0.62395 0.20567 0.8827 0.0
C176 C 0.80481 0.28499 0.74275 0.0
N177 N 0.80564 0.16093 0.73675 0.0
C178 C 0.86984 0.36499 0.69354 0.0
H179 H 0.56536 0.13616 0.87678 0.0
H180 H 0.57345 0.29828 0.88843 0.0
H181 H 0.68019 0.17268 0.93157 0.0
H182 H 0.95746 0.31433 0.69143 0.0
H183 H 0.87166 0.46316 0.70135 0.0
H184 H 0.83126 0.37214 0.64045 0.0
C185 C 0.68709 0.63775 0.13377 0.0
N186 N 0.77757 0.62544 0.08582 0.0
N187 N 0.57998 0.60206 0.11146 0.0
C188 C 0.70338 0.68753 0.20309 0.0
C189 C 0.6133 0.56606 0.04874 0.0
N190 N 0.71643 0.60066 0.02883 0.0
C191 C 0.55922 0.47076 0.01244 0.0
H192 H 0.77086 0.62276 0.2371 0.0
H193 H 0.62297 0.69691 0.23096 0.0
H194 H 0.73391 0.77986 0.19403 0.0
H195 H 0.49951 0.51653 0.96782 0.0
H196 H 0.51296 0.41305 0.04986 0.0
H197 H 0.62667 0.40718 -0.00995 0.0
loop_
_geom_bond_atom_site_label_1
_geom_bond_atom_site_label_2
_geom_bond_distance
_geom_bond_site_symmetry_2
_ccdc_geom_bond_type
Dy0 O3 2.307 1_455 S
Dy0 O5 2.395 . S
Dy0 O6 2.379 . S
Dy0 O8 2.339 . S
Dy0 O10 2.298 . S
Dy0 O14 2.275 . S
Dy0 C22 2.738 . S
Dy1 O4 2.298 . S
Dy1 O7 2.275 . S
Dy1 O9 2.307 1_655 S
Dy1 O11 2.395 . S
Dy1 O12 2.379 . S
Dy1 O15 2.339 1_554 S
Dy1 C31 2.738 . S
C2 O14 1.254 1_556 S
C2 O15 1.257 1_455 S
O3 Dy0 2.307 1_655 S
O3 C13 1.266 . S
O4 Dy1 2.298 . S
O4 C13 1.236 . S
O5 Dy0 2.395 . S
O5 C22 1.255 . S
O6 Dy0 2.379 . S
O6 C22 1.249 . S
O7 Dy1 2.275 . S
O7 C23 1.254 1_655 S
O8 Dy0 2.339 . S
O8 C23 1.257 . S
O9 Dy1 2.307 1_455 S
O9 C24 1.266 . S
O10 Dy0 2.298 . S
O10 C24 1.236 . S
O11 Dy1 2.395 . S
O11 C31 1.255 . S
O12 Dy1 2.379 . S
O12 C31 1.249 . S
C13 O3 1.266 . S
C13 O4 1.236 . S
O14 Dy0 2.275 . S
O14 C2 1.254 1_554 S
O15 Dy1 2.339 1_556 S
O15 C2 1.257 1_655 S
C16 C19 1.344 . S
C16 C20 1.328 . S
C16 C22 1.516 . S
C17 C18 1.304 1_545 S
C17 C21 1.323 . S
C18 C17 1.304 1_565 S
C18 C19 1.371 . S
C18 H32 0.930 . S
C19 C16 1.344 . S
C19 C18 1.371 . S
C19 H33 0.931 . S
C20 C16 1.328 . S
C20 C21 1.433 1_565 S
C20 H34 0.931 . S
C21 C17 1.323 . S
C21 C20 1.433 1_545 S
C21 H35 0.933 . S
C22 Dy0 2.738 . S
C22 O5 1.255 . S
C22 O6 1.249 . S
C22 C16 1.516 . S
C23 O7 1.254 1_455 S
C23 O8 1.257 . S
C24 O9 1.266 . S
C24 O10 1.236 . S
C25 C28 1.344 . S
C25 C29 1.328 . S
C25 C31 1.516 . S
C26 C27 1.304 1_565 S
C26 C30 1.323 . S
C27 C26 1.304 1_545 S
C27 C28 1.371 . S
C27 H36 0.930 . S
C28 C25 1.344 . S
C28 C27 1.371 . S
C28 H37 0.931 . S
C29 C25 1.328 . S
C29 C30 1.433 1_545 S
C29 H38 0.931 . S
C30 C26 1.323 . S
C30 C29 1.433 1_565 S
C30 H39 0.933 . S
C31 Dy1 2.738 . S
C31 O11 1.255 . S
C31 O12 1.249 . S
C31 C25 1.516 . S
H32 C18 0.930 . S
H33 C19 0.931 . S
H34 C20 0.931 . S
H35 C21 0.933 . S
H36 C27 0.930 . S
H37 C28 0.931 . S
H38 C29 0.931 . S
H39 C30 0.933 . S
Dy40 O43 2.303 1_565 S
Dy40 O45 2.397 . S
Dy40 O46 2.381 . S
Dy40 O48 2.339 1_565 S
Dy40 O50 2.301 . S
Dy40 O54 2.275 1_565 S
Dy40 C62 2.741 . S
Dy41 O44 2.298 . S
Dy41 O47 2.275 . S
Dy41 O49 2.307 1_545 S
Dy41 O51 2.395 . S
Dy41 O52 2.379 . S
Dy41 O55 2.339 . S
Dy41 C71 2.738 . S
C42 O54 1.254 . S
C42 O55 1.257 . S
O43 Dy40 2.303 1_545 S
O43 C53 1.266 . S
O44 Dy41 2.298 . S
O44 C53 1.236 . S
O45 Dy40 2.397 . S
O45 C62 1.255 . S
O46 Dy40 2.381 . S
O46 C62 1.249 . S
O47 Dy41 2.275 . S
O47 C63 1.254 . S
O48 Dy40 2.339 1_545 S
O48 C63 1.257 . S
O49 Dy41 2.307 1_565 S
O49 C64 1.266 . S
O50 Dy40 2.301 . S
O50 C64 1.236 . S
O51 Dy41 2.395 . S
O51 C71 1.255 . S
O52 Dy41 2.379 . S
O52 C71 1.249 . S
C53 O43 1.266 . S
C53 O44 1.236 . S
O54 Dy40 2.275 1_545 S
O54 C42 1.254 . S
O55 Dy41 2.339 . S
O55 C42 1.257 . S
C56 C59 1.344 . S
C56 C60 1.328 . S
C56 C62 1.516 . S
C57 C58 1.304 . S
C57 C61 1.323 . S
C58 C57 1.304 . S
C58 C59 1.371 . S
C58 H72 0.930 . S
C59 C56 1.344 . S
C59 C58 1.371 . S
C59 H73 0.931 . S
C60 C56 1.328 . S
C60 C61 1.433 . S
C60 H74 0.931 . S
C61 C57 1.323 . S
C61 C60 1.433 . S
C61 H75 0.933 . S
C62 Dy40 2.741 . S
C62 O45 1.255 . S
C62 O46 1.249 . S
C62 C56 1.516 . S
C63 O47 1.254 . S
C63 O48 1.257 . S
C64 O49 1.266 . S
C64 O50 1.236 . S
C65 C68 1.344 . S
C65 C69 1.328 . S
C65 C71 1.516 . S
C66 C67 1.304 1_455 S
C66 C70 1.323 1_455 S
C67 C66 1.304 1_655 S
C67 C68 1.371 . S
C67 H76 0.930 . S
C68 C65 1.344 . S
C68 C67 1.371 . S
C68 H77 0.931 . S
C69 C65 1.328 . S
C69 C70 1.433 . S
C69 H78 0.931 . S
C70 C66 1.323 1_655 S
C70 C69 1.433 . S
C70 H79 0.933 1_655 S
C71 Dy41 2.738 . S
C71 O51 1.255 . S
C71 O52 1.249 . S
C71 C65 1.516 . S
H72 C58 0.930 . S
H73 C59 0.931 . S
H74 C60 0.931 . S
H75 C61 0.933 . S
H76 C67 0.930 . S
H77 C68 0.931 . S
H78 C69 0.931 . S
H79 C70 0.933 1_455 S
Dy80 O83 2.307 . S
Dy80 O85 2.395 . S
Dy80 O86 2.379 . S
Dy80 O88 2.339 . S
Dy80 O90 2.298 . S
Dy80 O94 2.275 . S
Dy80 C102 2.738 . S
Dy81 O84 2.298 . S
Dy81 O87 2.275 . S
Dy81 O89 2.307 . S
Dy81 O91 2.395 . S
Dy81 O92 2.379 . S
Dy81 O95 2.339 . S
Dy81 C111 2.738 . S
C82 O94 1.254 . S
C82 O95 1.257 . S
O83 Dy80 2.307 . S
O83 C93 1.266 . S
O84 Dy81 2.298 . S
O84 C93 1.236 . S
O85 Dy80 2.395 . S
O85 C102 1.255 . S
O86 Dy80 2.379 . S
O86 C102 1.249 . S
O87 Dy81 2.275 . S
O87 C103 1.254 . S
O88 Dy80 2.339 . S
O88 C103 1.257 . S
O89 Dy81 2.307 . S
O89 C104 1.266 . S
O90 Dy80 2.298 . S
O90 C104 1.236 . S
O91 Dy81 2.395 . S
O91 C111 1.255 . S
O92 Dy81 2.379 . S
O92 C111 1.249 . S
C93 O83 1.266 . S
C93 O84 1.236 . S
O94 Dy80 2.275 . S
O94 C82 1.254 . S
O95 Dy81 2.339 . S
O95 C82 1.257 . S
C96 C99 1.344 . S
C96 C100 1.328 . S
C96 C102 1.516 . S
C97 C98 1.304 . S
C97 C101 1.323 . S
C98 C97 1.304 . S
C98 C99 1.371 . S
C98 H112 0.930 . S
C99 C96 1.344 . S
C99 C98 1.371 . S
C99 H113 0.931 . S
C100 C96 1.328 . S
C100 C101 1.433 . S
C100 H114 0.931 . S
C101 C97 1.323 . S
C101 C100 1.433 . S
C101 H115 0.933 . S
C102 Dy80 2.738 . S
C102 O85 1.255 . S
C102 O86 1.249 . S
C102 C96 1.516 . S
C103 O87 1.254 . S
C103 O88 1.257 . S
C104 O89 1.266 . S
C104 O90 1.236 . S
C105 C108 1.344 . S
C105 C109 1.328 . S
C105 C111 1.516 . S
C106 C107 1.304 1_655 S
C106 C110 1.323 1_655 S
C107 C106 1.304 1_455 S
C107 C108 1.371 . S
C107 H116 0.930 . S
C108 C105 1.344 . S
C108 C107 1.371 . S
C108 H117 0.931 . S
C109 C105 1.328 . S
C109 C110 1.433 . S
C109 H118 0.931 . S
C110 C106 1.323 1_455 S
C110 C109 1.433 . S
C110 H119 0.933 1_455 S
C111 Dy81 2.738 . S
C111 O91 1.255 . S
C111 O92 1.249 . S
C111 C105 1.516 . S
H112 C98 0.930 . S
H113 C99 0.931 . S
H114 C100 0.931 . S
H115 C101 0.933 . S
H116 C107 0.930 . S
H117 C108 0.931 . S
H118 C109 0.931 . S
H119 C110 0.933 1_655 S
C120 N121 1.317 . S
C120 N122 1.348 1_545 S
C120 C123 1.485 . S
N121 C120 1.317 . S
N121 N125 1.370 . S
N122 C120 1.348 1_565 S
N122 C124 1.346 . S
C123 C120 1.485 . S
C123 H127 0.960 . S
C123 H128 0.961 1_545 S
C123 H129 0.960 . S
C124 N122 1.346 . S
C124 N125 1.307 1_565 S
C124 C126 1.486 . S
N125 N121 1.370 . S
N125 C124 1.307 1_545 S
C126 C124 1.486 . S
C126 H130 0.960 . S
C126 H131 0.960 . S
C126 H132 0.959 . S
H127 C123 0.960 . S
H128 C123 0.961 1_565 S
H129 C123 0.960 . S
H130 C126 0.960 . S
H131 C126 0.960 . S
H132 C126 0.959 . S
C133 N134 1.317 . S
C133 N135 1.348 . S
C133 C136 1.485 . S
N134 C133 1.317 . S
N134 N138 1.370 . S
N135 C133 1.348 . S
N135 C137 1.346 . S
C136 C133 1.485 . S
C136 H140 0.960 . S
C136 H141 0.961 . S
C136 H142 0.960 . S
C137 N135 1.346 . S
C137 N138 1.307 . S
C137 C139 1.486 . S
N138 N134 1.370 . S
N138 C137 1.307 . S
C139 C137 1.486 . S
C139 H143 0.960 . S
C139 H144 0.960 . S
C139 H145 0.959 . S
H140 C136 0.960 . S
H141 C136 0.961 . S
H142 C136 0.960 . S
H143 C139 0.960 . S
H144 C139 0.960 . S
H145 C139 0.959 . S
C146 N147 1.317 1_655 S
C146 N148 1.348 . S
C146 C149 1.485 1_655 S
N147 C146 1.317 1_455 S
N147 N151 1.370 1_556 S
N148 C146 1.348 . S
N148 C150 1.346 1_556 S
C149 C146 1.485 1_455 S
C149 H153 0.960 . S
C149 H154 0.961 1_455 S
C149 H155 0.960 . S
C150 N148 1.346 1_554 S
C150 N151 1.307 1_655 S
C150 C152 1.486 . S
N151 N147 1.370 1_554 S
N151 C150 1.307 1_455 S
C152 C150 1.486 . S
C152 H156 0.960 . S
C152 H157 0.960 . S
C152 H158 0.959 . S
H153 C149 0.960 . S
H154 C149 0.961 1_655 S
H155 C149 0.960 . S
H156 C152 0.960 . S
H157 C152 0.960 . S
H158 C152 0.959 . S
C159 N160 1.317 1_455 S
C159 N161 1.348 . S
C159 C162 1.485 . S
N160 C159 1.317 1_655 S
N160 N164 1.370 1_655 S
N161 C159 1.348 . S
N161 C163 1.346 . S
C162 C159 1.485 . S
C162 H166 0.960 1_455 S
C162 H167 0.961 . S
C162 H168 0.960 1_455 S
C163 N161 1.346 . S
C163 N164 1.307 . S
C163 C165 1.486 . S
N164 N160 1.370 1_455 S
N164 C163 1.307 . S
C165 C163 1.486 . S
C165 H169 0.960 . S
C165 H170 0.960 . S
C165 H171 0.959 . S
H166 C162 0.960 1_655 S
H167 C162 0.961 . S
H168 C162 0.960 1_655 S
H169 C165 0.960 . S
H170 C165 0.960 . S
H171 C165 0.959 . S
C172 N173 1.317 1_545 S
C172 N174 1.348 . S
C172 C175 1.485 . S
N173 C172 1.317 1_565 S
N173 N177 1.370 1_565 S
N174 C172 1.348 . S
N174 C176 1.346 . S
C175 C172 1.485 . S
C175 H179 0.960 . S
C175 H180 0.961 . S
C175 H181 0.960 1_545 S
C176 N174 1.346 . S
C176 N177 1.307 . S
C176 C178 1.486 . S
N177 N173 1.370 1_545 S
N177 C176 1.307 . S
C178 C176 1.486 . S
C178 H182 0.960 . S
C178 H183 0.960 . S
C178 H184 0.959 . S
H179 C175 0.960 . S
H180 C175 0.961 . S
H181 C175 0.960 1_565 S
H182 C178 0.960 . S
H183 C178 0.960 . S
H184 C178 0.959 . S
C185 N186 1.317 . S
C185 N187 1.348 . S
C185 C188 1.485 . S
N186 C185 1.317 . S
N186 N190 1.370 . S
N187 C185 1.348 . S
N187 C189 1.346 . S
C188 C185 1.485 . S
C188 H192 0.960 . S
C188 H193 0.961 . S
C188 H194 0.960 . S
C189 N187 1.346 . S
C189 N190 1.307 . S
C189 C191 1.486 1_554 S
N190 N186 1.370 . S
N190 C189 1.307 . S
C191 C189 1.486 1_556 S
C191 H195 0.960 . S
C191 H196 0.960 . S
C191 H197 0.959 . S
H192 C188 0.960 . S
H193 C188 0.961 . S
H194 C188 0.960 . S
H195 C191 0.960 . S
H196 C191 0.960 . S
H197 C191 0.959 . S
C24 N187 4.584 . S
C66 N160 2.484 1_455 S
C93 N173 2.509 . S
C13 N186 5.180 . S
N161 C57 2.702 . S
N174 C104 2.626 . S
C64 N134 2.393 . S
C97 N148 3.984 . S
C17 N122 3.156 1_545 S
N135 C53 2.410 . S
N147 C106 3.964 1_455 S
C26 N121 3.245 1_565 S
N151 C2 1.354 1_554 S
C63 N125 1.294 . S
C82 N138 1.414 . S
N177 C42 1.616 . S
N190 C103 1.977 1_554 S
C23 N164 1.394 . S
