# Generated by pormake.
# Topology pyr, (3,6)-cn, num edge types: 1
# Building blocks:
#     Node 0, Type 0, BuildingBlock: ESEHIV_clean_linker_0, # of connection points: 3
#     Node 1, Type 0, BuildingBlock: ESEHIV_clean_linker_0, # of connection points: 3
#     Node 2, Type 0, BuildingBlock: ESEHIV_clean_linker_0, # of connection points: 3
#     Node 3, Type 0, BuildingBlock: ESEHIV_clean_linker_0, # of connection points: 3
#     Node 4, Type 0, BuildingBlock: ESEHIV_clean_linker_0, # of connection points: 3
#     Node 5, Type 0, BuildingBlock: ESEHIV_clean_linker_0, # of connection points: 3
#     Node 6, Type 0, BuildingBlock: ESEHIV_clean_linker_0, # of connection points: 3
#     Node 7, Type 0, BuildingBlock: ESEHIV_clean_linker_0, # of connection points: 3
#     Node 8, Type 1, BuildingBlock: BETDEL_clean_sbu_0, # of connection points: 6
#     Node 9, Type 1, BuildingBlock: BETDEL_clean_sbu_0, # of connection points: 6
#     Node 10, Type 1, BuildingBlock: BETDEL_clean_sbu_0, # of connection points: 6
#     Node 11, Type 1, BuildingBlock: BETDEL_clean_sbu_0, # of connection points: 6
#     Edge 12, Type (0, 1), None
#     Edge 13, Type (0, 1), None
#     Edge 14, Type (0, 1), None
#     Edge 15, Type (0, 1), None
#     Edge 16, Type (0, 1), None
#     Edge 17, Type (0, 1), None
#     Edge 18, Type (0, 1), None
#     Edge 19, Type (0, 1), None
#     Edge 20, Type (0, 1), None
#     Edge 21, Type (0, 1), None
#     Edge 22, Type (0, 1), None
#     Edge 23, Type (0, 1), None
#     Edge 24, Type (0, 1), None
#     Edge 25, Type (0, 1), None
#     Edge 26, Type (0, 1), None
#     Edge 27, Type (0, 1), None
#     Edge 28, Type (0, 1), None
#     Edge 29, Type (0, 1), None
#     Edge 30, Type (0, 1), None
#     Edge 31, Type (0, 1), None
#     Edge 32, Type (0, 1), None
#     Edge 33, Type (0, 1), None
#     Edge 34, Type (0, 1), None
#     Edge 35, Type (0, 1), None
# Relax obj value: 0.096
# Max RMSD: 0.117
# Mean RMSD: 0.054
data_MOF--net-pyr--node1-BETDEL_clean_sbu_0--node2-ESEHIV_clean_linker_0--edge1-none
_symmetry_space_group_name_H-M    P1
_symmetry_Int_Tables_number       1
_symmetry_cell_setting            triclinic
loop_
_symmetry_equiv_pos_as_xyz
'x, y, z'
_cell_length_a     13.862706
_cell_length_b     15.009104
_cell_length_c     14.353318
_cell_angle_alpha  91.288539
_cell_angle_beta   88.538955
_cell_angle_gamma 97.210365
loop_
_atom_site_label
_atom_site_type_symbol
_atom_site_fract_x
_atom_site_fract_y
_atom_site_fract_z
_atom_type_partial_charge
H0 H 0.12933 0.29743 0.27701 0.0
H1 H 0.36367 0.13798 0.26869 0.0
H2 H 0.28096 0.25706 0.01805 0.0
C3 C 0.18945 0.27283 0.23857 0.0
C4 C 0.20011 0.28654 0.14373 0.0
C5 C 0.2416 0.21169 0.27918 0.0
C6 C 0.32337 0.18542 0.23506 0.0
C7 C 0.33693 0.20028 0.14038 0.0
C8 C 0.27469 0.25046 0.09309 0.0
H9 H 0.16402 0.95 0.7356 0.0
H10 H 0.37667 0.77202 0.77777 0.0
H11 H 0.25709 0.78727 0.50696 0.0
C12 C 0.20342 0.89637 0.70897 0.0
C13 C 0.19873 0.87031 0.6152 0.0
C14 C 0.26787 0.86151 0.76637 0.0
C15 C 0.32399 0.79647 0.73315 0.0
C16 C 0.32226 0.7711 0.63991 0.0
C17 C 0.25748 0.80597 0.58034 0.0
H18 H 0.72633 0.2519 0.95869 0.0
H19 H 0.73101 0.48915 0.79201 0.0
H20 H 0.51052 0.26458 0.74894 0.0
C21 C 0.69606 0.2874 0.90394 0.0
C22 C 0.6117 0.24612 0.85834 0.0
C23 C 0.73949 0.37573 0.88203 0.0
C24 C 0.69787 0.42247 0.81056 0.0
C25 C 0.61665 0.38342 0.75957 0.0
C26 C 0.57414 0.29514 0.78541 0.0
H27 H 0.78599 0.75903 0.46684 0.0
H28 H 0.99331 0.74377 0.23887 0.0
H29 H 0.76932 0.52052 0.29649 0.0
C30 C 0.81511 0.72262 0.40881 0.0
C31 C 0.76923 0.63594 0.38971 0.0
C32 C 0.89569 0.7641 0.35683 0.0
C33 C 0.93069 0.71418 0.27902 0.0
C34 C 0.88604 0.62457 0.25506 0.0
C35 C 0.80451 0.58762 0.3119 0.0
H36 H 0.65819 0.89565 0.74643 0.0
H37 H 0.89287 0.73658 0.73778 0.0
H38 H 0.74212 0.7775 0.99711 0.0
C39 C 0.69875 0.8484 0.78005 0.0
C40 C 0.68559 0.83384 0.87482 0.0
C41 C 0.78041 0.82213 0.73574 0.0
C42 C 0.83284 0.76119 0.77635 0.0
C43 C 0.82256 0.74775 0.87126 0.0
C44 C 0.74811 0.7839 0.92204 0.0
H45 H 0.6462 0.2629 0.23714 0.0
H46 H 0.85841 0.08438 0.27921 0.0
H47 H 0.76551 0.24709 0.50793 0.0
C48 C 0.6988 0.23827 0.28172 0.0
C49 C 0.70048 0.26349 0.375 0.0
C50 C 0.75477 0.17312 0.24844 0.0
C51 C 0.81911 0.13808 0.30585 0.0
C52 C 0.8238 0.16406 0.39964 0.0
C53 C 0.76516 0.22847 0.43453 0.0
H54 H 0.29643 0.7825 0.05662 0.0
H55 H 0.29155 0.54519 0.22324 0.0
H56 H 0.51204 0.76973 0.26655 0.0
C57 C 0.32665 0.74697 0.11138 0.0
C58 C 0.41098 0.78823 0.15706 0.0
C59 C 0.28317 0.65864 0.13323 0.0
C60 C 0.32472 0.61188 0.20472 0.0
C61 C 0.40591 0.6509 0.25578 0.0
C62 C 0.44846 0.73918 0.23 0.0
H63 H 0.02896 0.29023 0.77641 0.0
H64 H 0.23605 0.27474 0.54826 0.0
H65 H 0.25355 0.51303 0.71899 0.0
C66 C 0.09163 0.31972 0.73627 0.0
C67 C 0.13654 0.40923 0.76033 0.0
C68 C 0.12643 0.26979 0.65834 0.0
C69 C 0.20708 0.31116 0.60636 0.0
C70 C 0.25322 0.39772 0.62558 0.0
C71 C 0.21814 0.44603 0.70349 0.0
Dy72 Dy 0.0728 0.03179 0.44138 0.0
C73 C 0.83462 0.88403 0.67373 0.0
C74 C 0.18707 0.14979 0.34098 0.0
Dy75 Dy 0.94899 1.00227 0.57366 0.0
O76 O 0.2102 0.07141 0.361 0.0
O77 O 0.09822 0.15733 0.36523 0.0
O78 O 0.14756 0.91214 0.46374 0.0
O79 O 0.10303 0.98845 0.58018 0.0
C80 C 0.14214 0.91965 0.55364 0.0
C81 C 0.88019 0.1146 0.46126 0.0
O82 O 0.01685 0.12006 0.66311 0.0
O83 O 0.10914 0.15591 0.53417 0.0
O84 O 0.81215 0.963 0.65504 0.0
O85 O 0.92298 0.87587 0.64827 0.0
O86 O 0.87465 0.12218 0.55116 0.0
O87 O 0.9188 0.04547 0.435 0.0
O88 O 1.00538 0.91373 0.35209 0.0
O89 O 0.91236 0.87833 0.48069 0.0
C90 C 0.08117 0.1781 0.61956 0.0
C91 C 0.94075 0.8559 0.3955 0.0
Dy92 Dy 0.57555 0.03252 0.0661 0.0
C93 C 0.30405 0.91356 0.84575 0.0
C94 C 0.71847 0.12121 0.16897 0.0
Dy95 Dy 0.44701 1.00179 0.94888 0.0
O96 O 0.68503 0.03742 0.17751 0.0
O97 O 0.6725 0.15605 0.10505 0.0
O98 O 0.56 0.89536 0.12902 0.0
O99 O 0.4323 0.94617 0.09147 0.0
C100 C 0.46666 0.87718 0.12294 0.0
C101 C 0.55594 0.15729 0.89266 0.0
O102 O 0.35559 0.08405 0.03059 0.0
O103 O 0.48365 0.13433 0.12074 0.0
O104 O 0.33834 0.99711 0.83679 0.0
O105 O 0.34923 0.87868 0.9102 0.0
O106 O 0.46255 0.13937 0.88687 0.0
O107 O 0.59013 0.08792 0.92346 0.0
O108 O 0.667 0.9502 0.98451 0.0
O109 O 0.53887 0.89983 0.89448 0.0
C110 C 0.39647 0.14167 0.09109 0.0
C111 C 0.62608 0.8925 0.92411 0.0
Dy112 Dy 0.50927 0.44233 0.463 0.0
C113 C 0.39265 0.71219 0.60632 0.0
C114 C 0.63006 0.32231 0.40871 0.0
Dy115 Dy 0.51328 0.59194 0.55234 0.0
O116 O 0.54146 0.32163 0.37806 0.0
O117 O 0.65155 0.38798 0.46721 0.0
O118 O 0.34873 0.3989 0.47722 0.0
O119 O 0.42026 0.4678 0.58944 0.0
C120 C 0.33755 0.43332 0.56088 0.0
C121 C 0.685 0.60023 0.45446 0.0
O122 O 0.57187 0.51988 0.67698 0.0
O123 O 0.55598 0.38555 0.59914 0.0
O124 O 0.48128 0.71294 0.63691 0.0
O125 O 0.37102 0.6463 0.54811 0.0
O126 O 0.67407 0.63451 0.53822 0.0
O127 O 0.60199 0.56653 0.42597 0.0
O128 O 0.45046 0.51439 0.33845 0.0
O129 O 0.46676 0.64878 0.41615 0.0
C130 C 0.58055 0.4321 0.67602 0.0
C131 C 0.44195 0.6022 0.33934 0.0
Dy132 Dy 0.01517 0.45768 0.0524 0.0
C133 C 0.89475 0.70073 0.91433 0.0
C134 C 0.12806 0.33363 0.10056 0.0
Dy135 Dy 1.00759 0.57667 0.96261 0.0
O136 O 0.0423 0.34154 0.13766 0.0
O137 O 0.15005 0.39135 0.03589 0.0
O138 O 0.89916 0.48129 0.16196 0.0
O139 O 0.99507 0.59211 0.11751 0.0
C140 C 0.92367 0.5676 0.17329 0.0
C141 C 0.09915 0.46628 0.84216 0.0
O142 O 0.14529 0.65395 0.02241 0.0
O143 O 0.15609 0.53211 0.10688 0.0
O144 O 0.98036 0.69258 0.877 0.0
O145 O 0.87292 0.64327 0.97926 0.0
O146 O 0.12409 0.55253 0.8536 0.0
O147 O 0.02724 0.44231 0.89752 0.0
O148 O 0.8774 0.38044 0.99274 0.0
O149 O 0.86662 0.50225 0.90822 0.0
C150 C 0.19327 0.61375 0.08398 0.0
C151 C 0.82939 0.42063 0.9312 0.0
loop_
_geom_bond_atom_site_label_1
_geom_bond_atom_site_label_2
_geom_bond_distance
_geom_bond_site_symmetry_2
_ccdc_geom_bond_type
H0 C3 0.931 . S
H1 C6 0.928 . S
H2 C8 0.930 . S
C3 H0 0.931 . S
C3 C4 1.413 . S
C3 C5 1.360 . S
C4 C3 1.413 . S
C4 C8 1.429 . S
C5 C3 1.360 . S
C5 C6 1.372 . S
C6 H1 0.928 . S
C6 C5 1.372 . S
C6 C7 1.404 . S
C7 C6 1.404 . S
C7 C8 1.391 . S
C8 H2 0.930 . S
C8 C4 1.429 . S
C8 C7 1.391 . S
H9 C12 0.931 . S
H10 C15 0.928 . S
H11 C17 0.930 . S
C12 H9 0.931 . S
C12 C13 1.413 . S
C12 C14 1.360 . S
C13 C12 1.413 . S
C13 C17 1.429 . S
C14 C12 1.360 . S
C14 C15 1.372 . S
C15 H10 0.928 . S
C15 C14 1.372 . S
C15 C16 1.404 . S
C16 C15 1.404 . S
C16 C17 1.391 . S
C17 H11 0.930 . S
C17 C13 1.429 . S
C17 C16 1.391 . S
H18 C21 0.931 . S
H19 C24 0.928 . S
H20 C26 0.930 . S
C21 H18 0.931 . S
C21 C22 1.413 . S
C21 C23 1.360 . S
C22 C21 1.413 . S
C22 C26 1.429 . S
C23 C21 1.360 . S
C23 C24 1.372 . S
C24 H19 0.928 . S
C24 C23 1.372 . S
C24 C25 1.404 . S
C25 C24 1.404 . S
C25 C26 1.391 . S
C26 H20 0.930 . S
C26 C22 1.429 . S
C26 C25 1.391 . S
H27 C30 0.931 . S
H28 C33 0.928 . S
H29 C35 0.930 . S
C30 H27 0.931 . S
C30 C31 1.413 . S
C30 C32 1.360 . S
C31 C30 1.413 . S
C31 C35 1.429 . S
C32 C30 1.360 . S
C32 C33 1.372 . S
C33 H28 0.928 . S
C33 C32 1.372 . S
C33 C34 1.404 . S
C34 C33 1.404 . S
C34 C35 1.391 . S
C35 H29 0.930 . S
C35 C31 1.429 . S
C35 C34 1.391 . S
H36 C39 0.931 . S
H37 C42 0.928 . S
H38 C44 0.930 . S
C39 H36 0.931 . S
C39 C40 1.413 . S
C39 C41 1.360 . S
C40 C39 1.413 . S
C40 C44 1.429 . S
C41 C39 1.360 . S
C41 C42 1.372 . S
C42 H37 0.928 . S
C42 C41 1.372 . S
C42 C43 1.404 . S
C43 C42 1.404 . S
C43 C44 1.391 . S
C44 H38 0.930 . S
C44 C40 1.429 . S
C44 C43 1.391 . S
H45 C48 0.931 . S
H46 C51 0.928 . S
H47 C53 0.930 . S
C48 H45 0.931 . S
C48 C49 1.413 . S
C48 C50 1.360 . S
C49 C48 1.413 . S
C49 C53 1.429 . S
C50 C48 1.360 . S
C50 C51 1.372 . S
C51 H46 0.928 . S
C51 C50 1.372 . S
C51 C52 1.404 . S
C52 C51 1.404 . S
C52 C53 1.391 . S
C53 H47 0.930 . S
C53 C49 1.429 . S
C53 C52 1.391 . S
H54 C57 0.931 . S
H55 C60 0.928 . S
H56 C62 0.930 . S
C57 H54 0.931 . S
C57 C58 1.413 . S
C57 C59 1.360 . S
C58 C57 1.413 . S
C58 C62 1.429 . S
C59 C57 1.360 . S
C59 C60 1.372 . S
C60 H55 0.928 . S
C60 C59 1.372 . S
C60 C61 1.404 . S
C61 C60 1.404 . S
C61 C62 1.391 . S
C62 H56 0.930 . S
C62 C58 1.429 . S
C62 C61 1.391 . S
H63 C66 0.931 . S
H64 C69 0.928 . S
H65 C71 0.930 . S
C66 H63 0.931 . S
C66 C67 1.413 . S
C66 C68 1.360 . S
C67 C66 1.413 . S
C67 C71 1.429 . S
C68 C66 1.360 . S
C68 C69 1.372 . S
C69 H64 0.928 . S
C69 C68 1.372 . S
C69 C70 1.404 . S
C70 C69 1.404 . S
C70 C71 1.391 . S
C71 H65 0.930 . S
C71 C67 1.429 . S
C71 C70 1.391 . S
Dy72 O76 2.398 . S
Dy72 O77 2.491 . S
Dy72 O78 2.403 1_545 S
Dy72 O79 2.664 1_545 S
Dy72 O83 2.326 . S
Dy72 O87 2.310 1_455 S
Dy72 O88 2.351 1_445 S
C73 O84 1.185 . S
C73 O85 1.355 . S
C74 O76 1.185 . S
C74 O77 1.355 . S
Dy75 O79 2.310 1_655 S
Dy75 O82 2.351 1_665 S
Dy75 O84 2.398 . S
Dy75 O85 2.491 . S
Dy75 O86 2.403 1_565 S
Dy75 O87 2.664 1_565 S
Dy75 O89 2.326 . S
O76 Dy72 2.398 . S
O76 C74 1.185 . S
O77 Dy72 2.491 . S
O77 C74 1.355 . S
O78 Dy72 2.403 1_565 S
O78 C80 1.254 . S
O79 Dy72 2.664 1_565 S
O79 Dy75 2.310 1_455 S
O79 C80 1.268 . S
C80 O78 1.254 . S
C80 O79 1.268 . S
C81 O86 1.254 . S
C81 O87 1.268 . S
O82 Dy75 2.351 1_445 S
O82 C90 1.249 . S
O83 Dy72 2.326 . S
O83 C90 1.267 . S
O84 C73 1.185 . S
O84 Dy75 2.398 . S
O85 C73 1.355 . S
O85 Dy75 2.491 . S
O86 Dy75 2.403 1_545 S
O86 C81 1.254 . S
O87 Dy72 2.310 1_655 S
O87 Dy75 2.664 1_545 S
O87 C81 1.268 . S
O88 Dy72 2.351 1_665 S
O88 C91 1.249 . S
O89 Dy75 2.326 . S
O89 C91 1.267 . S
C90 O82 1.249 . S
C90 O83 1.267 . S
C91 O88 1.249 . S
C91 O89 1.267 . S
Dy92 O96 2.399 . S
Dy92 O97 2.498 . S
Dy92 O98 2.397 1_545 S
Dy92 O99 2.661 1_545 S
Dy92 O103 2.330 . S
Dy92 O107 2.315 1_554 S
Dy92 O108 2.347 1_544 S
C93 O104 1.185 . S
C93 O105 1.355 . S
C94 O96 1.185 . S
C94 O97 1.355 . S
Dy95 O99 2.310 1_546 S
Dy95 O102 2.351 1_556 S
Dy95 O104 2.398 1_545 S
Dy95 O105 2.491 1_545 S
Dy95 O106 2.403 . S
Dy95 O107 2.664 . S
Dy95 O109 2.326 1_545 S
O96 Dy92 2.399 . S
O96 C94 1.185 . S
O97 Dy92 2.498 . S
O97 C94 1.355 . S
O98 Dy92 2.397 1_565 S
O98 C100 1.254 . S
O99 Dy92 2.661 1_565 S
O99 Dy95 2.310 1_564 S
O99 C100 1.268 . S
C100 O98 1.254 . S
C100 O99 1.268 . S
C101 O106 1.254 . S
C101 O107 1.268 . S
O102 Dy95 2.351 1_554 S
O102 C110 1.249 . S
O103 Dy92 2.330 . S
O103 C110 1.267 . S
O104 C93 1.185 . S
O104 Dy95 2.398 1_565 S
O105 C93 1.355 . S
O105 Dy95 2.491 1_565 S
O106 Dy95 2.403 . S
O106 C101 1.254 . S
O107 Dy92 2.315 1_556 S
O107 Dy95 2.664 . S
O107 C101 1.268 . S
O108 Dy92 2.347 1_566 S
O108 C111 1.249 . S
O109 Dy95 2.326 1_565 S
O109 C111 1.267 . S
C110 O102 1.249 . S
C110 O103 1.267 . S
C111 O108 1.249 . S
C111 O109 1.267 . S
Dy112 O116 2.398 . S
Dy112 O117 2.491 . S
Dy112 O118 2.403 . S
Dy112 O119 2.664 . S
Dy112 O123 2.326 . S
Dy112 O127 2.310 . S
Dy112 O128 2.351 . S
C113 O124 1.185 . S
C113 O125 1.355 . S
C114 O116 1.185 . S
C114 O117 1.355 . S
Dy115 O119 2.310 . S
Dy115 O122 2.351 . S
Dy115 O124 2.398 . S
Dy115 O125 2.491 . S
Dy115 O126 2.403 . S
Dy115 O127 2.664 . S
Dy115 O129 2.326 . S
O116 Dy112 2.398 . S
O116 C114 1.185 . S
O117 Dy112 2.491 . S
O117 C114 1.355 . S
O118 Dy112 2.403 . S
O118 C120 1.254 . S
O119 Dy112 2.664 . S
O119 Dy115 2.310 . S
O119 C120 1.268 . S
C120 O118 1.254 . S
C120 O119 1.268 . S
C121 O126 1.254 . S
C121 O127 1.268 . S
O122 Dy115 2.351 . S
O122 C130 1.249 . S
O123 Dy112 2.326 . S
O123 C130 1.267 . S
O124 C113 1.185 . S
O124 Dy115 2.398 . S
O125 C113 1.355 . S
O125 Dy115 2.491 . S
O126 Dy115 2.403 . S
O126 C121 1.254 . S
O127 Dy112 2.310 . S
O127 Dy115 2.664 . S
O127 C121 1.268 . S
O128 Dy112 2.351 . S
O128 C131 1.249 . S
O129 Dy115 2.326 . S
O129 C131 1.267 . S
C130 O122 1.249 . S
C130 O123 1.267 . S
C131 O128 1.249 . S
C131 O129 1.267 . S
Dy132 O136 2.398 . S
Dy132 O137 2.491 . S
Dy132 O138 2.403 1_455 S
Dy132 O139 2.664 1_455 S
Dy132 O143 2.326 . S
Dy132 O147 2.310 1_554 S
Dy132 O148 2.351 1_454 S
C133 O144 1.185 . S
C133 O145 1.355 . S
C134 O136 1.185 . S
C134 O137 1.355 . S
Dy135 O139 2.310 1_556 S
Dy135 O142 2.351 1_656 S
Dy135 O144 2.398 . S
Dy135 O145 2.491 . S
Dy135 O146 2.403 1_655 S
Dy135 O147 2.664 1_655 S
Dy135 O149 2.326 . S
O136 Dy132 2.398 . S
O136 C134 1.185 . S
O137 Dy132 2.491 . S
O137 C134 1.355 . S
O138 Dy132 2.403 1_655 S
O138 C140 1.254 . S
O139 Dy132 2.664 1_655 S
O139 Dy135 2.310 1_554 S
O139 C140 1.268 . S
C140 O138 1.254 . S
C140 O139 1.268 . S
C141 O146 1.254 . S
C141 O147 1.268 . S
O142 Dy135 2.351 1_454 S
O142 C150 1.249 . S
O143 Dy132 2.326 . S
O143 C150 1.267 . S
O144 C133 1.185 . S
O144 Dy135 2.398 . S
O145 C133 1.355 . S
O145 Dy135 2.491 . S
O146 Dy135 2.403 1_455 S
O146 C141 1.254 . S
O147 Dy132 2.310 1_556 S
O147 Dy135 2.664 1_455 S
O147 C141 1.268 . S
O148 Dy132 2.351 1_656 S
O148 C151 1.249 . S
O149 Dy135 2.326 . S
O149 C151 1.267 . S
C150 O142 1.249 . S
C150 O143 1.267 . S
C151 O148 1.249 . S
C151 O149 1.267 . S
C5 C74 1.295 . S
C14 C93 1.068 . S
C130 C25 2.108 . S
C34 C140 2.139 . S
C110 C7 1.929 . S
C80 C13 1.030 . S
C151 C23 1.703 . S
C121 C31 1.735 . S
C4 C134 1.615 . S
C101 C22 1.975 . S
C32 C91 2.026 . S
C16 C113 1.240 . S
C73 C41 1.290 . S
C50 C94 1.075 . S
C61 C131 2.103 . S
C67 C141 2.142 . S
C40 C111 1.949 . S
C81 C52 1.003 . S
C150 C59 1.711 . S
C120 C70 1.733 . S
C43 C133 1.606 . S
C100 C58 1.984 . S
C90 C68 2.008 . S
C49 C114 1.251 . S
