# Generated by pormake.
# Topology tsx, (6,3)-cn, num edge types: 1
# Building blocks:
#     Node 0, Type 0, BuildingBlock: LEVNOQ01_clean_sbu_1, # of connection points: 6
#     Node 1, Type 0, BuildingBlock: LEVNOQ01_clean_sbu_1, # of connection points: 6
#     Node 2, Type 1, BuildingBlock: KAKCAD_clean_linker_0, # of connection points: 3
#     Node 3, Type 1, BuildingBlock: KAKCAD_clean_linker_0, # of connection points: 3
#     Node 4, Type 1, BuildingBlock: KAKCAD_clean_linker_0, # of connection points: 3
#     Node 5, Type 1, BuildingBlock: KAKCAD_clean_linker_0, # of connection points: 3
#     Edge 6, Type (0, 1), BuildingBlock: EYOCIG_clean_linker_4, # of connection points: 2
#     Edge 7, Type (0, 1), BuildingBlock: EYOCIG_clean_linker_4, # of connection points: 2
#     Edge 8, Type (0, 1), BuildingBlock: EYOCIG_clean_linker_4, # of connection points: 2
#     Edge 9, Type (0, 1), BuildingBlock: EYOCIG_clean_linker_4, # of connection points: 2
#     Edge 10, Type (0, 1), BuildingBlock: EYOCIG_clean_linker_4, # of connection points: 2
#     Edge 11, Type (0, 1), BuildingBlock: EYOCIG_clean_linker_4, # of connection points: 2
#     Edge 12, Type (0, 1), BuildingBlock: EYOCIG_clean_linker_4, # of connection points: 2
#     Edge 13, Type (0, 1), BuildingBlock: EYOCIG_clean_linker_4, # of connection points: 2
#     Edge 14, Type (0, 1), BuildingBlock: EYOCIG_clean_linker_4, # of connection points: 2
#     Edge 15, Type (0, 1), BuildingBlock: EYOCIG_clean_linker_4, # of connection points: 2
#     Edge 16, Type (0, 1), BuildingBlock: EYOCIG_clean_linker_4, # of connection points: 2
#     Edge 17, Type (0, 1), BuildingBlock: EYOCIG_clean_linker_4, # of connection points: 2
# Relax obj value: 0.130
# Max RMSD: 0.158
# Mean RMSD: 0.120
data_MOF--net-tsx--node1-LEVNOQ01_clean_sbu_1--node2-KAKCAD_clean_linker_0--edge1-EYOCIG_clean_linker_4
_symmetry_space_group_name_H-M    P1
_symmetry_Int_Tables_number       1
_symmetry_cell_setting            triclinic
loop_
_symmetry_equiv_pos_as_xyz
'x, y, z'
_cell_length_a     18.466998
_cell_length_b     22.618905
_cell_length_c     37.818376
_cell_angle_alpha  97.55521
_cell_angle_beta   91.019895
_cell_angle_gamma 91.590434
loop_
_atom_site_label
_atom_site_type_symbol
_atom_site_fract_x
_atom_site_fract_y
_atom_site_fract_z
_atom_type_partial_charge
O0 O 0.13652 0.03561 0.08636 0.0
Mg1 Mg 0.20499 0.04219 0.04285 0.0
O2 O 0.03416 0.01089 0.05481 0.0
Mg3 Mg 0.05055 0.02322 -0.00504 0.0
O4 O 0.14822 0.08524 0.00827 0.0
O5 O 0.25225 0.12283 0.03221 0.0
O6 O 0.07066 0.03657 0.93506 0.0
O7 O 0.98021 0.1086 0.00432 0.0
Mg8 Mg 0.90711 0.00953 0.94709 0.0
O9 O 0.951 0.95856 0.9821 0.0
O10 O 0.97033 0.01387 0.90227 0.0
O11 O 0.87596 0.09159 0.97386 0.0
O12 O 0.84699 0.93417 0.95165 0.0
C13 C 0.18576 0.92356 -0.00423 0.0
C14 C 0.07026 0.01886 0.0843 0.0
C15 C 0.19703 0.12754 0.01162 0.0
C16 C 0.03652 0.02978 0.90505 0.0
C17 C 0.91761 0.12489 -0.00473 0.0
C18 C 0.89506 0.92263 0.9747 0.0
O19 O 0.22972 0.95842 0.01513 0.0
O20 O 0.12229 0.9389 0.98723 0.0
O21 O 0.63563 0.53449 0.5864 0.0
Mg22 Mg 0.70454 0.54067 0.543 0.0
O23 O 0.53322 0.51071 0.55471 0.0
Mg24 Mg 0.5501 0.52318 0.49493 0.0
O25 O 0.64853 0.58422 0.50841 0.0
O26 O 0.7528 0.62103 0.53243 0.0
O27 O 0.57054 0.53651 0.43505 0.0
O28 O 0.48106 0.6093 0.50439 0.0
Mg29 Mg 0.40624 0.51105 0.44711 0.0
O30 O 0.44972 0.45959 0.48193 0.0
O31 O 0.4698 0.51505 0.40236 0.0
O32 O 0.37651 0.59338 0.47408 0.0
O33 O 0.34532 0.43605 0.4517 0.0
C34 C 0.68391 0.42228 0.4957 0.0
C35 C 0.5692 0.51825 0.58425 0.0
C36 C 0.69776 0.62618 0.51181 0.0
C37 C 0.53624 0.53019 0.40508 0.0
C38 C 0.41871 0.62625 0.49544 0.0
C39 C 0.39345 0.42402 0.4746 0.0
O40 O 0.72814 0.45673 0.51517 0.0
O41 O 0.62071 0.43816 0.48711 0.0
C42 C 0.04178 0.92787 0.26698 0.0
C43 C 0.0469 0.98026 0.25098 0.0
C44 C 0.04943 0.93061 0.30408 0.0
C45 C 0.06194 0.98588 0.3254 0.0
C46 C 0.07046 0.03771 0.30882 0.0
C47 C 0.06285 0.03488 0.27191 0.0
C48 C 0.05854 -0.00908 0.3648 0.0
C49 C 0.09472 0.95158 0.38431 0.0
C50 C 0.08896 0.95639 0.42179 0.0
C51 C 0.04536 0.00092 0.43926 0.0
C52 C 0.01101 0.0414 0.41998 0.0
C53 C 0.01725 0.03566 0.38293 0.0
C54 C 0.96749 0.08996 0.43773 0.0
C55 C 0.91035 0.07751 0.45983 0.0
C56 C 0.9781 0.14825 0.42937 0.0
C57 C 0.9302 0.19261 0.44141 0.0
C58 C 0.87126 0.17929 0.462 0.0
C59 C 0.13119 0.91702 0.44267 0.0
C60 C 0.14533 0.858 0.42815 0.0
C61 C 0.16106 0.93908 0.4766 0.0
C62 C 0.20588 0.90389 0.49483 0.0
C63 C 0.2221 0.84637 0.47933 0.0
C64 C 0.1908 0.8232 0.44624 0.0
C65 C 0.86242 0.12216 0.47205 0.0
H66 H 0.03021 0.88521 0.25095 0.0
H67 H 0.04238 0.89006 0.31617 0.0
H68 H 0.0812 0.08077 0.32454 0.0
H69 H 0.06789 0.07562 0.25979 0.0
H70 H 0.12901 0.91862 0.37028 0.0
H71 H 0.98807 0.06556 0.36799 0.0
H72 H 0.03868 0.00476 0.46785 0.0
H73 H 0.90081 0.03263 0.46601 0.0
H74 H 0.02201 0.1589 0.41242 0.0
H75 H 0.93768 0.23673 0.43355 0.0
H76 H 0.12208 0.83876 0.4026 0.0
H77 H 0.15237 0.98434 0.48859 0.0
H78 H 0.81682 0.11153 0.48793 0.0
H79 H 0.20263 0.77852 0.43403 0.0
H80 H 0.22967 0.92231 0.52046 0.0
C81 C 0.03107 0.12493 0.72617 0.0
C82 C 0.04235 0.07116 0.73974 0.0
C83 C 0.01494 0.12459 0.68985 0.0
C84 C 0.00993 0.07041 0.66671 0.0
C85 C 0.01966 0.01664 0.68085 0.0
C86 C 0.03564 0.01708 0.7171 0.0
C87 C 0.99907 0.06998 0.62768 0.0
C88 C 0.03768 0.11111 0.61 0.0
C89 C 0.0327 0.10897 0.5727 0.0
C90 C 0.98743 0.06498 0.55304 0.0
C91 C 0.94884 0.02318 0.57037 0.0
C92 C 0.95465 0.0261 0.60761 0.0
C93 C 0.90496 0.97444 0.5497 0.0
C94 C 0.84824 0.98695 0.52686 0.0
C95 C 0.91806 0.91489 0.55389 0.0
C96 C 0.87439 0.86871 0.53599 0.0
C97 C 0.81714 0.88139 0.51364 0.0
C98 C 0.08037 0.14947 0.55479 0.0
C99 C 0.09526 0.20836 0.57092 0.0
C100 C 0.11779 0.12785 0.52385 0.0
C101 C 0.17251 0.16283 0.51096 0.0
C102 C 0.19029 0.21974 0.52884 0.0
C103 C 0.15004 0.24304 0.55814 0.0
C104 C 0.80467 0.94059 0.50872 0.0
H105 H 0.0351 0.16706 0.74353 0.0
H106 H 0.00678 0.16668 0.67982 0.0
H107 H 0.01705 0.97426 0.66375 0.0
H108 H 0.04365 0.97515 0.72736 0.0
H109 H 0.0751 0.14281 0.62525 0.0
H110 H 0.92454 -0.00605 0.62093 0.0
H111 H 0.98373 0.06213 0.52429 0.0
H112 H 0.83632 0.03263 0.52401 0.0
H113 H 0.96157 0.9042 0.57136 0.0
H114 H 0.8844 0.82313 0.54021 0.0
H115 H 0.06622 0.22697 0.59422 0.0
H116 H 0.10768 0.08288 0.51074 0.0
H117 H 0.76008 0.95109 0.49185 0.0
H118 H 0.16235 0.28746 0.57181 0.0
H119 H 0.20249 0.14466 0.48786 0.0
C120 C 0.54043 0.427 0.76681 0.0
C121 C 0.54555 0.47927 0.7507 0.0
C122 C 0.54845 0.42993 0.80391 0.0
C123 C 0.56135 0.48526 0.82511 0.0
C124 C 0.56987 0.53696 0.8084 0.0
C125 C 0.56187 0.53395 0.7715 0.0
C126 C 0.5583 0.49054 0.86453 0.0
C127 C 0.59426 0.4511 0.88406 0.0
C128 C 0.58865 0.45605 0.92155 0.0
C129 C 0.5455 0.50089 0.93903 0.0
C130 C 0.51142 0.5415 0.91973 0.0
C131 C 0.51744 0.53558 0.88267 0.0
C132 C 0.46832 0.59032 0.9375 0.0
C133 C 0.41128 0.57824 0.95974 0.0
C134 C 0.47926 0.64852 0.92904 0.0
C135 C 0.43177 0.69316 0.94115 0.0
C136 C 0.37294 0.68021 0.9619 0.0
C137 C 0.63043 0.41638 0.94243 0.0
C138 C 0.64406 0.35726 0.9279 0.0
C139 C 0.66027 0.4382 0.9764 0.0
C140 C 0.70456 0.40266 -0.00533 0.0
C141 C 0.72028 0.34504 0.97916 0.0
C142 C 0.68902 0.32212 0.94602 0.0
C143 C 0.36377 0.62316 0.97202 0.0
H144 H 0.52859 0.3843 0.75089 0.0
H145 H 0.54139 0.38948 0.8161 0.0
H146 H 0.58092 0.58006 0.82401 0.0
H147 H 0.56693 0.57459 0.75929 0.0
H148 H 0.62823 0.4179 0.87 0.0
H149 H 0.4884 0.56556 0.86774 0.0
H150 H 0.5389 0.50486 0.96762 0.0
H151 H 0.40149 0.53343 0.966 0.0
H152 H 0.5231 0.65889 0.91198 0.0
H153 H 0.43949 0.73721 0.93322 0.0
H154 H 0.6208 0.3382 0.90231 0.0
H155 H 0.652 0.48351 0.98842 0.0
H156 H 0.31824 0.61283 0.98803 0.0
H157 H 0.70049 0.27738 0.93379 0.0
H158 H 0.72835 0.42088 0.02033 0.0
C159 C 0.53106 0.62465 0.22615 0.0
C160 C 0.5423 0.57083 0.23967 0.0
C161 C 0.51491 0.62443 0.18984 0.0
C162 C 0.50982 0.5703 0.16666 0.0
C163 C 0.5195 0.51647 0.18074 0.0
C164 C 0.53552 0.5168 0.21698 0.0
C165 C 0.49896 0.56999 0.12764 0.0
C166 C 0.53774 0.61106 0.10999 0.0
C167 C 0.53282 0.60898 0.0727 0.0
C168 C 0.48738 0.56516 0.05301 0.0
C169 C 0.44857 0.52345 0.0703 0.0
C170 C 0.45437 0.52626 0.10754 0.0
C171 C 0.4044 0.47492 0.04959 0.0
C172 C 0.34791 0.48774 0.02671 0.0
C173 C 0.41698 0.41529 0.05379 0.0
C174 C 0.37303 0.36934 0.03585 0.0
C175 C 0.31601 0.38233 0.01345 0.0
C176 C 0.58074 0.64934 0.05482 0.0
C177 C 0.59582 0.7082 0.07095 0.0
C178 C 0.61826 0.62755 0.02394 0.0
C179 C 0.67327 0.66234 0.01113 0.0
C180 C 0.69124 0.7192 0.02901 0.0
C181 C 0.65089 0.74268 0.05824 0.0
C182 C 0.30406 0.44161 0.00853 0.0
H183 H 0.53515 0.66674 0.24355 0.0
H184 H 0.5068 0.66656 0.17986 0.0
H185 H 0.51682 0.47414 0.16359 0.0
H186 H 0.5435 0.47483 0.22719 0.0
H187 H 0.57526 0.64265 0.12527 0.0
H188 H 0.42412 0.49417 0.12084 0.0
H189 H 0.48374 0.56236 0.02426 0.0
H190 H 0.33639 0.53349 0.02385 0.0
H191 H 0.4603 0.40436 0.07129 0.0
H192 H 0.38265 0.3237 0.04007 0.0
H193 H 0.56673 0.72692 0.0942 0.0
H194 H 0.60801 0.5826 0.01084 0.0
H195 H 0.25966 0.45234 -0.00839 0.0
H196 H 0.66334 0.78707 0.07191 0.0
H197 H 0.70332 0.64404 0.98808 0.0
C198 C 0.20392 0.23007 0.98782 0.0
C199 C 0.19058 0.18088 -0.00467 0.0
C200 C 0.234 0.28831 0.98922 0.0
C201 C 0.26712 0.33464 -0.00173 0.0
C202 C 0.23717 0.81672 0.98004 0.0
C203 C 0.20812 0.86387 0.98553 0.0
C204 C 0.2792 0.76545 0.97548 0.0
C205 C 0.3197 0.72463 0.97029 0.0
C206 C 0.85155 0.82954 0.00309 0.0
C207 C 0.88108 0.87235 -0.00683 0.0
C208 C 0.80152 0.78557 0.01156 0.0
C209 C 0.75199 0.7534 0.01832 0.0
C210 C 0.86018 0.22895 0.01044 0.0
C211 C 0.89411 0.18397 0.00666 0.0
C212 C 0.81321 0.27556 0.00594 0.0
C213 C 0.77167 0.31023 -0.00414 0.0
C214 C 0.7055 0.7288 0.4881 0.0
C215 C 0.69189 0.67965 0.4956 0.0
C216 C 0.73558 0.78704 0.4895 0.0
C217 C 0.7685 0.83347 0.49853 0.0
C218 C 0.73465 0.31525 0.47989 0.0
C219 C 0.70574 0.36247 0.48535 0.0
C220 C 0.77683 0.26405 0.4754 0.0
C221 C 0.81762 0.22342 0.4703 0.0
C222 C 0.3498 0.3307 0.50276 0.0
C223 C 0.3793 0.37357 0.4929 0.0
C224 C 0.30001 0.28657 0.51124 0.0
C225 C 0.25075 0.25418 0.51806 0.0
C226 C 0.36261 0.73079 0.51063 0.0
C227 C 0.39611 0.68558 0.50689 0.0
C228 C 0.31569 0.77742 0.5061 0.0
C229 C 0.27385 0.81188 0.49603 0.0
C230 C 0.02622 -0.00625 0.1461 0.0
C231 C 0.03852 0.00364 0.11626 0.0
C232 C 0.02675 0.98378 0.18208 0.0
C233 C 0.03522 0.97903 0.21321 0.0
C234 C 0.07985 0.05595 0.84358 0.0
C235 C 0.06971 0.04575 0.87358 0.0
C236 C 0.074 0.06585 0.80762 0.0
C237 C 0.05956 0.07065 0.77695 0.0
C238 C 0.52454 0.49293 0.64589 0.0
C239 C 0.53708 0.50299 0.61611 0.0
C240 C 0.52499 0.48274 0.68183 0.0
C241 C 0.5336 0.4779 0.71294 0.0
C242 C 0.57986 0.55569 0.34352 0.0
C243 C 0.56968 0.5457 0.37356 0.0
C244 C 0.574 0.56544 0.30753 0.0
C245 C 0.55954 0.57022 0.27687 0.0
loop_
_geom_bond_atom_site_label_1
_geom_bond_atom_site_label_2
_geom_bond_distance
_geom_bond_site_symmetry_2
_ccdc_geom_bond_type
O0 Mg1 1.990 . S
O0 C14 1.253 . S
Mg1 O0 1.990 . S
Mg1 O4 2.180 . S
Mg1 O5 2.117 . S
Mg1 O19 2.030 1_545 S
O2 Mg3 2.044 1_554 S
O2 C14 1.260 . S
Mg3 O2 2.044 1_556 S
Mg3 O4 2.096 1_556 S
Mg3 O6 2.107 . S
Mg3 O7 2.073 1_456 S
Mg3 O9 2.103 1_445 S
Mg3 O20 2.079 1_545 S
O4 Mg1 2.180 . S
O4 Mg3 2.096 1_554 S
O4 C15 1.279 . S
O5 Mg1 2.117 . S
O5 C15 1.250 . S
O6 Mg3 2.107 . S
O6 C16 1.264 . S
O7 Mg3 2.073 1_654 S
O7 C17 1.260 1_554 S
Mg8 O9 2.180 1_545 S
Mg8 O10 2.030 . S
Mg8 O11 1.990 . S
Mg8 O12 2.117 1_545 S
O9 Mg3 2.103 1_665 S
O9 Mg8 2.180 1_565 S
O9 C18 1.273 1_556 S
O10 Mg8 2.030 . S
O10 C16 1.248 1_655 S
O11 Mg8 1.990 . S
O11 C17 1.253 . S
O12 Mg8 2.117 1_565 S
O12 C18 1.247 1_556 S
C13 O19 1.248 . S
C13 O20 1.264 1_554 S
C14 O0 1.253 . S
C14 O2 1.260 . S
C15 O4 1.279 . S
C15 O5 1.250 . S
C16 O6 1.264 . S
C16 O10 1.248 1_455 S
C17 O7 1.260 1_556 S
C17 O11 1.253 . S
C18 O9 1.273 1_554 S
C18 O12 1.247 1_554 S
O19 Mg1 2.030 1_565 S
O19 C13 1.248 . S
O20 Mg3 2.079 1_565 S
O20 C13 1.264 1_556 S
O21 Mg22 1.990 . S
O21 C35 1.253 . S
Mg22 O21 1.990 . S
Mg22 O25 2.180 . S
Mg22 O26 2.117 . S
Mg22 O40 2.030 . S
O23 Mg24 2.072 . S
O23 C35 1.260 . S
Mg24 O23 2.072 . S
Mg24 O25 2.099 . S
Mg24 O27 2.079 . S
Mg24 O28 2.072 . S
Mg24 O30 2.099 . S
Mg24 O41 2.079 . S
O25 Mg22 2.180 . S
O25 Mg24 2.099 . S
O25 C36 1.279 . S
O26 Mg22 2.117 . S
O26 C36 1.250 . S
O27 Mg24 2.079 . S
O27 C37 1.264 . S
O28 Mg24 2.072 . S
O28 C38 1.260 . S
Mg29 O30 2.180 . S
Mg29 O31 2.030 . S
Mg29 O32 1.990 . S
Mg29 O33 2.117 . S
O30 Mg24 2.099 . S
O30 Mg29 2.180 . S
O30 C39 1.279 . S
O31 Mg29 2.030 . S
O31 C37 1.248 . S
O32 Mg29 1.990 . S
O32 C38 1.253 . S
O33 Mg29 2.117 . S
O33 C39 1.250 . S
C34 O40 1.248 . S
C34 O41 1.264 . S
C35 O21 1.253 . S
C35 O23 1.260 . S
C36 O25 1.279 . S
C36 O26 1.250 . S
C37 O27 1.264 . S
C37 O31 1.248 . S
C38 O28 1.260 . S
C38 O32 1.253 . S
C39 O30 1.279 . S
C39 O33 1.250 . S
O40 Mg22 2.030 . S
O40 C34 1.248 . S
O41 Mg24 2.079 . S
O41 C34 1.264 . S
C42 C43 1.386 . S
C42 C44 1.397 . S
C42 H66 0.931 . S
C43 C42 1.386 . S
C43 C47 1.397 1_565 S
C44 C42 1.397 . S
C44 C45 1.384 . S
C44 H67 0.930 . S
C45 C44 1.384 . S
C45 C46 1.377 1_565 S
C45 C48 1.481 . S
C46 C45 1.377 1_545 S
C46 C47 1.389 . S
C46 H68 0.929 . S
C47 C43 1.397 1_545 S
C47 C46 1.389 . S
C47 H69 0.931 . S
C48 C45 1.481 . S
C48 C49 1.387 . S
C48 C53 1.390 1_565 S
C49 C48 1.387 . S
C49 C50 1.401 . S
C49 H70 0.930 . S
C50 C49 1.401 . S
C50 C51 1.376 1_565 S
C50 C59 1.511 . S
C51 C50 1.376 1_545 S
C51 C52 1.392 . S
C51 H72 0.931 . S
C52 C51 1.392 . S
C52 C53 1.361 . S
C52 C54 1.500 1_455 S
C53 C48 1.390 1_545 S
C53 C52 1.361 . S
C53 H71 0.931 1_455 S
C54 C52 1.500 1_655 S
C54 C55 1.371 . S
C54 C56 1.365 . S
C55 C54 1.371 . S
C55 C65 1.386 . S
C55 H73 0.931 . S
C56 C54 1.365 . S
C56 C57 1.409 . S
C56 H74 0.929 . S
C57 C56 1.409 . S
C57 C58 1.380 . S
C57 H75 0.930 . S
C58 C57 1.380 . S
C58 C65 1.357 . S
C59 C50 1.511 . S
C59 C60 1.341 . S
C59 C61 1.371 . S
C60 C59 1.341 . S
C60 C64 1.394 . S
C60 H76 0.930 . S
C61 C59 1.371 . S
C61 C62 1.392 . S
C61 H77 0.931 . S
C62 C61 1.392 . S
C62 C63 1.331 . S
C62 H80 0.932 . S
C63 C62 1.331 . S
C63 C64 1.336 . S
C64 C60 1.394 . S
C64 C63 1.336 . S
C64 H79 0.929 . S
C65 C55 1.386 . S
C65 C58 1.357 . S
C65 H78 0.928 . S
H66 C42 0.931 . S
H67 C44 0.930 . S
H68 C46 0.929 . S
H69 C47 0.931 . S
H70 C49 0.930 . S
H71 C53 0.931 1_655 S
H72 C51 0.931 . S
H73 C55 0.931 . S
H74 C56 0.929 . S
H75 C57 0.930 . S
H76 C60 0.930 . S
H77 C61 0.931 . S
H78 C65 0.928 . S
H79 C64 0.929 . S
H80 C62 0.932 . S
C81 C82 1.386 . S
C81 C83 1.397 . S
C81 H105 0.931 . S
C82 C81 1.386 . S
C82 C86 1.397 . S
C83 C81 1.397 . S
C83 C84 1.384 . S
C83 H106 0.930 . S
C84 C83 1.384 . S
C84 C85 1.377 . S
C84 C87 1.481 . S
C85 C84 1.377 . S
C85 C86 1.389 . S
C85 H107 0.929 1_545 S
C86 C82 1.397 . S
C86 C85 1.389 . S
C86 H108 0.931 1_545 S
C87 C84 1.481 . S
C87 C88 1.387 . S
C87 C92 1.390 1_455 S
C88 C87 1.387 . S
C88 C89 1.401 . S
C88 H109 0.930 . S
C89 C88 1.401 . S
C89 C90 1.376 1_455 S
C89 C98 1.511 . S
C90 C89 1.376 1_655 S
C90 C91 1.392 . S
C90 H111 0.931 . S
C91 C90 1.392 . S
C91 C92 1.361 . S
C91 C93 1.500 1_545 S
C92 C87 1.390 1_655 S
C92 C91 1.361 . S
C92 H110 0.931 . S
C93 C91 1.500 1_565 S
C93 C94 1.371 . S
C93 C95 1.365 . S
C94 C93 1.371 . S
C94 C104 1.386 . S
C94 H112 0.931 1_565 S
C95 C93 1.365 . S
C95 C96 1.409 . S
C95 H113 0.929 . S
C96 C95 1.409 . S
C96 C97 1.380 . S
C96 H114 0.930 . S
C97 C96 1.380 . S
C97 C104 1.357 . S
C98 C89 1.511 . S
C98 C99 1.341 . S
C98 C100 1.371 . S
C99 C98 1.341 . S
C99 C103 1.394 . S
C99 H115 0.930 . S
C100 C98 1.371 . S
C100 C101 1.392 . S
C100 H116 0.931 . S
C101 C100 1.392 . S
C101 C102 1.331 . S
C101 H119 0.932 . S
C102 C101 1.331 . S
C102 C103 1.336 . S
C103 C99 1.394 . S
C103 C102 1.336 . S
C103 H118 0.929 . S
C104 C94 1.386 . S
C104 C97 1.357 . S
C104 H117 0.928 . S
H105 C81 0.931 . S
H106 C83 0.930 . S
H107 C85 0.929 1_565 S
H108 C86 0.931 1_565 S
H109 C88 0.930 . S
H110 C92 0.931 . S
H111 C90 0.931 . S
H112 C94 0.931 1_545 S
H113 C95 0.929 . S
H114 C96 0.930 . S
H115 C99 0.930 . S
H116 C100 0.931 . S
H117 C104 0.928 . S
H118 C103 0.929 . S
H119 C101 0.932 . S
C120 C121 1.386 . S
C120 C122 1.397 . S
C120 H144 0.931 . S
C121 C120 1.386 . S
C121 C125 1.397 . S
C122 C120 1.397 . S
C122 C123 1.384 . S
C122 H145 0.930 . S
C123 C122 1.384 . S
C123 C124 1.377 . S
C123 C126 1.481 . S
C124 C123 1.377 . S
C124 C125 1.389 . S
C124 H146 0.929 . S
C125 C121 1.397 . S
C125 C124 1.389 . S
C125 H147 0.931 . S
C126 C123 1.481 . S
C126 C127 1.387 . S
C126 C131 1.390 . S
C127 C126 1.387 . S
C127 C128 1.401 . S
C127 H148 0.930 . S
C128 C127 1.401 . S
C128 C129 1.376 . S
C128 C137 1.511 . S
C129 C128 1.376 . S
C129 C130 1.392 . S
C129 H150 0.931 . S
C130 C129 1.392 . S
C130 C131 1.361 . S
C130 C132 1.500 . S
C131 C126 1.390 . S
C131 C130 1.361 . S
C131 H149 0.931 . S
C132 C130 1.500 . S
C132 C133 1.371 . S
C132 C134 1.365 . S
C133 C132 1.371 . S
C133 C143 1.386 1_556 S
C133 H151 0.931 . S
C134 C132 1.365 . S
C134 C135 1.409 . S
C134 H152 0.929 . S
C135 C134 1.409 . S
C135 C136 1.380 . S
C135 H153 0.930 . S
C136 C135 1.380 . S
C136 C143 1.357 1_556 S
C137 C128 1.511 . S
C137 C138 1.341 . S
C137 C139 1.371 . S
C138 C137 1.341 . S
C138 C142 1.394 . S
C138 H154 0.930 . S
C139 C137 1.371 . S
C139 C140 1.392 1_556 S
C139 H155 0.931 1_556 S
C140 C139 1.392 1_554 S
C140 C141 1.331 1_554 S
C140 H158 0.932 . S
C141 C140 1.331 1_556 S
C141 C142 1.336 . S
C142 C138 1.394 . S
C142 C141 1.336 . S
C142 H157 0.929 . S
C143 C133 1.386 1_554 S
C143 C136 1.357 1_554 S
C143 H156 0.928 . S
H144 C120 0.931 . S
H145 C122 0.930 . S
H146 C124 0.929 . S
H147 C125 0.931 . S
H148 C127 0.930 . S
H149 C131 0.931 . S
H150 C129 0.931 . S
H151 C133 0.931 . S
H152 C134 0.929 . S
H153 C135 0.930 . S
H154 C138 0.930 . S
H155 C139 0.931 1_554 S
H156 C143 0.928 . S
H157 C142 0.929 . S
H158 C140 0.932 . S
C159 C160 1.386 . S
C159 C161 1.397 . S
C159 H183 0.931 . S
C160 C159 1.386 . S
C160 C164 1.397 . S
C161 C159 1.397 . S
C161 C162 1.384 . S
C161 H184 0.930 . S
C162 C161 1.384 . S
C162 C163 1.377 . S
C162 C165 1.481 . S
C163 C162 1.377 . S
C163 C164 1.389 . S
C163 H185 0.929 . S
C164 C160 1.397 . S
C164 C163 1.389 . S
C164 H186 0.931 . S
C165 C162 1.481 . S
C165 C166 1.387 . S
C165 C170 1.390 . S
C166 C165 1.387 . S
C166 C167 1.401 . S
C166 H187 0.930 . S
C167 C166 1.401 . S
C167 C168 1.376 . S
C167 C176 1.511 . S
C168 C167 1.376 . S
C168 C169 1.392 . S
C168 H189 0.931 . S
C169 C168 1.392 . S
C169 C170 1.361 . S
C169 C171 1.500 . S
C170 C165 1.390 . S
C170 C169 1.361 . S
C170 H188 0.931 . S
C171 C169 1.500 . S
C171 C172 1.371 . S
C171 C173 1.365 . S
C172 C171 1.371 . S
C172 C182 1.386 . S
C172 H190 0.931 . S
C173 C171 1.365 . S
C173 C174 1.409 . S
C173 H191 0.929 . S
C174 C173 1.409 . S
C174 C175 1.380 . S
C174 H192 0.930 . S
C175 C174 1.380 . S
C175 C182 1.357 . S
C176 C167 1.511 . S
C176 C177 1.341 . S
C176 C178 1.371 . S
C177 C176 1.341 . S
C177 C181 1.394 . S
C177 H193 0.930 . S
C178 C176 1.371 . S
C178 C179 1.392 . S
C178 H194 0.931 . S
C179 C178 1.392 . S
C179 C180 1.331 . S
C179 H197 0.932 1_554 S
C180 C179 1.331 . S
C180 C181 1.336 . S
C181 C177 1.394 . S
C181 C180 1.336 . S
C181 H196 0.929 . S
C182 C172 1.386 . S
C182 C175 1.357 . S
C182 H195 0.928 1_554 S
H183 C159 0.931 . S
H184 C161 0.930 . S
H185 C163 0.929 . S
H186 C164 0.931 . S
H187 C166 0.930 . S
H188 C170 0.931 . S
H189 C168 0.931 . S
H190 C172 0.931 . S
H191 C173 0.929 . S
H192 C174 0.930 . S
H193 C177 0.930 . S
H194 C178 0.931 . S
H195 C182 0.928 1_556 S
H196 C181 0.929 . S
H197 C179 0.932 1_556 S
C198 C199 1.170 . S
C198 C200 1.380 . S
C199 C198 1.170 . S
C200 C198 1.380 . S
C200 C201 1.170 . S
C201 C200 1.170 . S
C202 C203 1.170 . S
C202 C204 1.380 . S
C203 C202 1.170 . S
C204 C202 1.380 . S
C204 C205 1.170 . S
C205 C204 1.170 . S
C206 C207 1.170 . S
C206 C208 1.380 . S
C207 C206 1.170 . S
C208 C206 1.380 . S
C208 C209 1.170 . S
C209 C208 1.170 . S
C210 C211 1.175 . S
C210 C212 1.380 . S
C211 C210 1.175 . S
C212 C210 1.380 . S
C212 C213 1.170 . S
C213 C212 1.170 . S
C214 C215 1.170 . S
C214 C216 1.380 . S
C215 C214 1.170 . S
C216 C214 1.380 . S
C216 C217 1.170 . S
C217 C216 1.170 . S
C218 C219 1.170 . S
C218 C220 1.380 . S
C219 C218 1.170 . S
C220 C218 1.380 . S
C220 C221 1.170 . S
C221 C220 1.170 . S
C222 C223 1.170 . S
C222 C224 1.380 . S
C223 C222 1.170 . S
C224 C222 1.380 . S
C224 C225 1.170 . S
C225 C224 1.170 . S
C226 C227 1.170 . S
C226 C228 1.380 . S
C227 C226 1.170 . S
C228 C226 1.380 . S
C228 C229 1.170 . S
C229 C228 1.170 . S
C230 C231 1.170 . S
C230 C232 1.380 . S
C231 C230 1.170 . S
C232 C230 1.380 . S
C232 C233 1.170 1_545 S
C233 C232 1.170 1_565 S
C234 C235 1.170 . S
C234 C236 1.380 . S
C235 C234 1.170 . S
C236 C234 1.380 . S
C236 C237 1.170 . S
C237 C236 1.170 . S
C238 C239 1.170 . S
C238 C240 1.380 . S
C239 C238 1.170 . S
C240 C238 1.380 . S
C240 C241 1.170 . S
C241 C240 1.170 . S
C242 C243 1.170 . S
C242 C244 1.380 . S
C243 C242 1.170 . S
C244 C242 1.380 . S
C244 C245 1.170 . S
C245 C244 1.170 . S
C201 C175 1.515 . S
C199 C15 1.440 . S
C203 C13 1.578 . S
C205 C136 1.566 1_554 S
C207 C18 1.328 . S
C209 C180 1.548 . S
C211 C17 1.379 . S
C213 C141 1.433 . S
C215 C36 1.443 . S
C217 C97 1.514 . S
C219 C34 1.594 . S
C221 C58 1.581 . S
C225 C102 1.552 . S
C223 C39 1.289 . S
C229 C63 1.439 . S
C227 C38 1.418 . S
C231 C14 1.494 . S
C233 C43 1.560 . S
C235 C16 1.412 . S
C237 C82 1.445 . S
C241 C121 1.562 . S
C239 C35 1.523 . S
C243 C37 1.408 . S
C245 C160 1.443 . S
