# Generated by pormake.
# Topology zzz, (3,6)-cn, num edge types: 1
# Building blocks:
#     Node 0, Type 0, BuildingBlock: INOVEN_clean_linker_0, # of connection points: 3
#     Node 1, Type 0, BuildingBlock: INOVEN_clean_linker_0, # of connection points: 3
#     Node 2, Type 0, BuildingBlock: INOVEN_clean_linker_0, # of connection points: 3
#     Node 3, Type 0, BuildingBlock: INOVEN_clean_linker_0, # of connection points: 3
#     Node 4, Type 0, BuildingBlock: INOVEN_clean_linker_0, # of connection points: 3
#     Node 5, Type 0, BuildingBlock: INOVEN_clean_linker_0, # of connection points: 3
#     Node 6, Type 0, BuildingBlock: INOVEN_clean_linker_0, # of connection points: 3
#     Node 7, Type 0, BuildingBlock: INOVEN_clean_linker_0, # of connection points: 3
#     Node 8, Type 1, BuildingBlock: JUFBIX_clean_sbu_0, # of connection points: 6
#     Node 9, Type 1, BuildingBlock: JUFBIX_clean_sbu_0, # of connection points: 6
#     Node 10, Type 1, BuildingBlock: JUFBIX_clean_sbu_0, # of connection points: 6
#     Node 11, Type 1, BuildingBlock: JUFBIX_clean_sbu_0, # of connection points: 6
#     Edge 12, Type (0, 1), None
#     Edge 13, Type (0, 1), None
#     Edge 14, Type (0, 1), None
#     Edge 15, Type (0, 1), None
#     Edge 16, Type (0, 1), None
#     Edge 17, Type (0, 1), None
#     Edge 18, Type (0, 1), None
#     Edge 19, Type (0, 1), None
#     Edge 20, Type (0, 1), None
#     Edge 21, Type (0, 1), None
#     Edge 22, Type (0, 1), None
#     Edge 23, Type (0, 1), None
#     Edge 24, Type (0, 1), None
#     Edge 25, Type (0, 1), None
#     Edge 26, Type (0, 1), None
#     Edge 27, Type (0, 1), None
#     Edge 28, Type (0, 1), None
#     Edge 29, Type (0, 1), None
#     Edge 30, Type (0, 1), None
#     Edge 31, Type (0, 1), None
#     Edge 32, Type (0, 1), None
#     Edge 33, Type (0, 1), None
#     Edge 34, Type (0, 1), None
#     Edge 35, Type (0, 1), None
# Relax obj value: 0.126
# Max RMSD: 0.195
# Mean RMSD: 0.089
data_MOF--net-zzz--node1-JUFBIX_clean_sbu_0--node2-INOVEN_clean_linker_0--edge1-none
_symmetry_space_group_name_H-M    P1
_symmetry_Int_Tables_number       1
_symmetry_cell_setting            triclinic
loop_
_symmetry_equiv_pos_as_xyz
'x, y, z'
_cell_length_a     22.896779
_cell_length_b     22.811268
_cell_length_c     8.497556
_cell_angle_alpha  70.665838
_cell_angle_beta   87.74872
_cell_angle_gamma 91.151053
loop_
_atom_site_label
_atom_site_type_symbol
_atom_site_fract_x
_atom_site_fract_y
_atom_site_fract_z
_atom_type_partial_charge
H0 H 0.87191 0.57442 0.60538 0.0
H1 H 0.04719 0.59511 0.37975 0.0
H2 H 0.90279 0.57086 0.10593 0.0
N3 N 0.82077 0.55956 0.32714 0.0
N4 N 0.80119 0.58043 0.18422 0.0
C5 C 0.90125 0.5813 0.4972 0.0
C6 C 0.96255 0.59226 0.50633 0.0
C7 C 0.87918 0.57753 0.34648 0.0
C8 C 0.91842 0.57898 0.21634 0.0
C9 C 0.97757 0.58181 0.23224 0.0
C10 C 1.00016 0.59294 0.37031 0.0
H11 H 0.14204 0.81469 0.40495 0.0
H12 H 0.98537 0.91508 0.41513 0.0
H13 H 1.00623 0.82913 0.05683 0.0
N14 N 0.11071 0.78078 0.13606 0.0
N15 N 0.0933 0.78001 0.99866 0.0
C16 C 0.09807 0.82631 0.36609 0.0
C17 C 0.06346 0.86302 0.4397 0.0
C18 C 0.0762 0.81062 0.22971 0.0
C19 C 1.02234 0.83503 0.16904 0.0
C20 C 1.00415 0.8862 0.20884 0.0
C21 C 1.00917 0.88185 0.37355 0.0
H22 H 0.83819 0.09647 0.26576 0.0
H23 H 0.68573 0.97739 0.33688 0.0
H24 H 0.78124 1.03799 0.86516 0.0
N25 N 0.8813 0.07206 0.99412 0.0
N26 N 0.90077 0.06011 0.86795 0.0
C27 C 0.8094 0.0677 0.22144 0.0
C28 C 0.75724 1.04079 0.31509 0.0
C29 C 0.82303 0.05786 0.0677 0.0
C30 C 0.77741 1.03451 0.99542 0.0
C31 C 0.72457 1.01237 0.09195 0.0
C32 C 0.72454 0.99982 0.26214 0.0
H33 H 0.58529 0.7577 0.44014 0.0
H34 H 0.60002 0.58619 0.33852 0.0
H35 H 0.55264 0.75077 0.94936 0.0
N36 N 0.56634 0.82914 0.12652 0.0
N37 N 0.56962 0.86175 0.97483 0.0
C38 C 0.58418 0.73189 0.35372 0.0
C39 C 0.59473 0.6675 0.41133 0.0
C40 C 0.57193 0.76315 0.18435 0.0
C41 C 0.56428 0.72816 0.07719 0.0
C42 C 0.57251 0.66397 0.1346 0.0
C43 C 0.59115 0.63515 0.29732 0.0
H44 H 0.27032 0.51559 0.1534 0.0
H45 H 0.09495 0.49551 0.37827 0.0
H46 H 0.23934 0.51934 0.65264 0.0
N47 N 0.32144 0.53024 0.43198 0.0
N48 N 0.34091 0.50919 0.57501 0.0
C49 C 0.24094 0.50884 0.26143 0.0
C50 C 0.17961 0.4981 0.25202 0.0
C51 C 0.26299 0.51253 0.41227 0.0
C52 C 0.22371 0.51126 0.54217 0.0
C53 C 0.16458 0.50862 0.52603 0.0
C54 C 0.14199 0.49755 0.38787 0.0
H55 H 1.00005 0.27501 0.35474 0.0
H56 H 0.15646 0.1741 0.34572 0.0
H57 H 0.13558 0.26012 0.70392 0.0
N58 N 1.03139 0.30903 0.62344 0.0
N59 N 0.04885 0.31007 0.76055 0.0
C60 C 0.04397 0.26323 0.39393 0.0
C61 C 0.0785 0.22637 0.32067 0.0
C62 C 0.06581 0.27892 0.53034 0.0
C63 C 0.11954 0.25429 0.59155 0.0
C64 C 0.13767 0.20308 0.55183 0.0
C65 C 0.13272 0.20741 0.38712 0.0
H66 H 0.3036 0.99275 0.49496 0.0
H67 H 0.4561 0.11178 0.42387 0.0
H68 H 0.36057 0.05123 0.89556 0.0
N69 N 0.26049 1.01719 0.76658 0.0
N70 N 0.24103 1.02916 0.89273 0.0
C71 C 0.3324 1.02151 0.53929 0.0
C72 C 0.38457 0.0484 0.44565 0.0
C73 C 0.31877 1.03136 0.69302 0.0
C74 C 0.3644 0.0547 0.7653 0.0
C75 C 0.41725 0.07682 0.66879 0.0
C76 C 0.41728 0.08936 0.4986 0.0
H77 H 0.55658 0.33144 0.3205 0.0
H78 H 0.54197 0.50298 0.42202 0.0
H79 H 0.58924 0.33838 0.81128 0.0
N80 N 0.5755 0.26001 0.63417 0.0
N81 N 0.57221 0.22741 0.78587 0.0
C82 C 0.55771 0.35726 0.40691 0.0
C83 C 0.54721 0.42166 0.34926 0.0
C84 C 0.56994 0.326 0.5763 0.0
C85 C 0.57762 0.36099 0.68344 0.0
C86 C 0.56943 0.42519 0.62598 0.0
C87 C 0.55081 0.45402 0.46325 0.0
Co88 Co 0.07214 0.06754 0.97634 0.0
C89 C 0.9626 0.06729 0.82836 0.0
Co90 Co 0.06966 1.02177 0.78432 0.0
C91 C 0.0826 0.16484 0.1291 0.0
C92 C 1.01373 0.09805 0.24121 0.0
N93 N 0.06013 0.1093 0.13085 0.0
N94 N 0.05274 0.18824 0.23497 0.0
C95 C 1.00932 0.14589 0.30511 0.0
H96 H 0.12178 0.18692 0.05632 0.0
H97 H 0.9839 0.05809 0.27117 0.0
C98 C 0.1792 1.02202 0.93229 0.0
N99 N 0.0817 0.98004 0.62976 0.0
C100 C 0.05929 0.92449 0.63143 0.0
C101 C 0.12809 0.99137 0.51935 0.0
N102 N 0.08917 0.90116 0.52545 0.0
C103 C 0.13256 0.94356 0.45534 0.0
C104 C 0.11456 0.14351 0.67302 0.0
O105 O 0.15409 0.04869 0.02675 0.0
O106 O 0.14788 1.00276 0.83862 0.0
O107 O 0.09931 0.09812 0.62567 0.0
O108 O 0.10093 0.14101 0.82075 0.0
O109 O 0.98771 1.04062 0.7339 0.0
H110 H 0.15788 1.03136 0.48943 0.0
H111 H 1.02014 0.90235 0.70424 0.0
O112 O 0.99392 0.08655 0.92205 0.0
O113 O 0.04248 0.99119 0.13501 0.0
O114 O 1.04087 0.9483 0.9399 0.0
C115 C 1.02724 0.94579 0.08765 0.0
H116 H 0.97945 0.14682 0.40625 0.0
H117 H 0.16243 0.94269 0.35416 0.0
Co118 Co 0.54759 1.03702 0.00219 0.0
C119 C 0.56472 0.9275 0.92644 0.0
Co120 Co 0.59422 0.05213 0.75856 0.0
C121 C 0.45327 0.0503 0.21551 0.0
C122 C 0.49625 0.9656 0.32834 0.0
N123 N 0.50179 1.01944 0.1995 0.0
N124 N 0.41747 1.01856 0.34831 0.0
C125 C 0.44504 0.96518 0.41977 0.0
H126 H 0.44504 0.09679 0.1337 0.0
H127 H 0.5268 0.92842 0.35259 0.0
C128 C 0.57709 0.16166 0.83429 0.0
N129 N 0.64001 0.06972 0.56125 0.0
C130 C 0.68854 1.03887 0.54523 0.0
C131 C 0.64553 0.12356 0.43241 0.0
N132 N 0.72433 0.07062 0.41243 0.0
C133 C 0.69675 0.124 0.34096 0.0
C134 C 0.47499 0.06685 0.74135 0.0
O135 O 0.5537 0.12556 0.97215 0.0
O136 O 0.59948 0.13813 0.73127 0.0
O137 O 0.52155 0.06698 0.65203 0.0
O138 O 0.47756 0.0508 0.89683 0.0
O139 O 0.5881 0.9636 0.78858 0.0
H140 H 0.61497 0.16073 0.40816 0.0
H141 H 0.69678 0.99239 0.62705 0.0
O142 O 0.54233 0.95102 0.02949 0.0
O143 O 0.62027 1.02218 0.10873 0.0
O144 O 0.66424 1.03834 0.86392 0.0
C145 C 0.66682 1.02232 0.01941 0.0
H146 H 0.4318 0.93069 0.53879 0.0
H147 H 0.70998 0.15849 0.22194 0.0
Co148 Co 0.61883 0.53915 0.88644 0.0
C149 C 0.54894 0.45927 0.16753 0.0
Co150 Co 0.52312 0.55 0.87413 0.0
C151 C 0.72563 0.57487 0.99747 0.0
C152 C 0.71825 0.47708 0.04333 0.0
N153 N 0.69668 0.53175 0.94909 0.0
N154 N 0.75864 0.54885 0.12844 0.0
C155 C 0.75638 0.48752 0.15385 0.0
H156 H 0.71889 0.62433 0.94743 0.0
H157 H 0.70226 0.43186 0.04539 0.0
C158 C 0.593 0.62988 0.59304 0.0
N159 N 0.44527 0.55745 0.81141 0.0
C160 C 0.41636 0.51445 0.7624 0.0
C161 C 0.42372 0.61218 0.71748 0.0
N162 N 0.38343 0.54062 0.63134 0.0
C163 C 0.38569 0.60191 0.60652 0.0
C164 C 0.56654 0.62629 0.02426 0.0
O165 O 0.63762 0.60348 0.66875 0.0
O166 O 0.54283 0.61297 0.66355 0.0
O167 O 0.51715 0.61232 0.97988 0.0
O168 O 0.61161 0.60047 0.99219 0.0
O169 O 0.50432 0.48567 0.09181 0.0
H170 H 0.4397 0.65734 0.7159 0.0
H171 H 0.42308 0.46497 0.81208 0.0
O172 O 0.59911 0.47618 0.09703 0.0
O173 O 0.62479 0.47684 0.78069 0.0
O174 O 0.53033 0.48868 0.7684 0.0
C175 C 0.57541 0.46287 0.73632 0.0
H176 H 0.78068 0.45308 0.24461 0.0
H177 H 0.36143 0.63644 0.51586 0.0
Co178 Co 0.09234 0.59267 0.83427 0.0
C179 C 0.15081 0.50637 0.09249 0.0
Co180 Co 0.04985 0.49774 0.92402 0.0
C181 C 0.09223 0.71753 0.82058 0.0
C182 C 0.17924 0.68493 0.83549 0.0
N183 N 0.1251 0.67349 0.79038 0.0
N184 N 0.12151 0.74979 0.90101 0.0
C185 C 0.17662 0.73053 0.90942 0.0
H186 H 0.04501 0.71703 0.81666 0.0
H187 H 0.21577 0.65497 0.84232 0.0
C188 C 0.99139 0.58402 0.6658 0.0
N189 N 1.0171 0.41693 0.96789 0.0
C190 C 0.04997 0.37286 0.93785 0.0
C191 C 0.96295 0.40545 0.92287 0.0
N192 N 1.02067 0.3405 0.85771 0.0
C193 C 0.96557 0.35975 0.84925 0.0
C194 C 1.0133 0.56426 0.11178 0.0
O195 O 1.03168 0.62249 0.67412 0.0
O196 O 0.99074 0.5292 0.76853 0.0
O197 O 1.00437 0.51163 0.09386 0.0
O198 O 0.04647 0.60493 0.00869 0.0
O199 O 0.11052 0.46791 0.08412 0.0
H200 H 0.92642 0.43541 0.91596 0.0
H201 H 0.0972 0.37336 0.94176 0.0
O202 O 0.15144 0.56121 0.98984 0.0
O203 O 0.13782 0.57879 0.66446 0.0
O204 O 0.09569 0.4855 0.74958 0.0
C205 C 0.12886 0.52617 0.64649 0.0
H206 H 0.21037 0.7435 0.97855 0.0
H207 H 0.9318 0.34669 0.78035 0.0
loop_
_geom_bond_atom_site_label_1
_geom_bond_atom_site_label_2
_geom_bond_distance
_geom_bond_site_symmetry_2
_ccdc_geom_bond_type
H0 C5 0.929 . S
H1 C10 0.931 1_455 S
H2 C8 0.930 . S
N3 N4 1.234 . S
N3 C7 1.453 . S
N4 N3 1.234 . S
C5 H0 0.929 . S
C5 C6 1.373 . S
C5 C7 1.368 . S
C6 C5 1.373 . S
C6 C10 1.397 . S
C7 N3 1.453 . S
C7 C5 1.368 . S
C7 C8 1.373 . S
C8 H2 0.930 . S
C8 C7 1.373 . S
C8 C9 1.371 . S
C9 C8 1.371 . S
C9 C10 1.383 . S
C10 H1 0.931 1_655 S
C10 C6 1.397 . S
C10 C9 1.383 . S
H11 C16 0.929 . S
H12 C21 0.931 . S
H13 C19 0.930 . S
N14 N15 1.234 1_554 S
N14 C18 1.453 . S
N15 N14 1.234 1_556 S
C16 H11 0.929 . S
C16 C17 1.373 . S
C16 C18 1.368 . S
C17 C16 1.373 . S
C17 C21 1.397 . S
C18 N14 1.453 . S
C18 C16 1.368 . S
C18 C19 1.373 1_554 S
C19 H13 0.930 . S
C19 C18 1.373 1_556 S
C19 C20 1.371 . S
C20 C19 1.371 . S
C20 C21 1.383 1_556 S
C21 H12 0.931 . S
C21 C17 1.397 . S
C21 C20 1.383 1_554 S
H22 C27 0.929 . S
H23 C32 0.931 . S
H24 C30 0.930 . S
N25 N26 1.234 1_544 S
N25 C29 1.453 . S
N26 N25 1.234 1_566 S
C27 H22 0.929 . S
C27 C28 1.373 . S
C27 C29 1.368 . S
C28 C27 1.373 . S
C28 C32 1.397 1_545 S
C29 N25 1.453 . S
C29 C27 1.368 . S
C29 C30 1.373 1_554 S
C30 H24 0.930 . S
C30 C29 1.373 1_556 S
C30 C31 1.371 . S
C31 C30 1.371 . S
C31 C32 1.383 1_546 S
C32 H23 0.931 . S
C32 C28 1.397 1_565 S
C32 C31 1.383 1_564 S
H33 C38 0.929 . S
H34 C43 0.931 . S
H35 C41 0.930 1_556 S
N36 N37 1.234 . S
N36 C40 1.453 . S
N37 N36 1.234 . S
C38 H33 0.929 . S
C38 C39 1.373 . S
C38 C40 1.368 . S
C39 C38 1.373 . S
C39 C43 1.397 . S
C40 N36 1.453 . S
C40 C38 1.368 . S
C40 C41 1.373 . S
C41 H35 0.930 1_554 S
C41 C40 1.373 . S
C41 C42 1.371 . S
C42 C41 1.371 . S
C42 C43 1.383 . S
C43 H34 0.931 . S
C43 C39 1.397 . S
C43 C42 1.383 . S
H44 C49 0.929 . S
H45 C54 0.931 . S
H46 C52 0.930 . S
N47 N48 1.234 . S
N47 C51 1.453 . S
N48 N47 1.234 . S
C49 H44 0.929 . S
C49 C50 1.373 . S
C49 C51 1.368 . S
C50 C49 1.373 . S
C50 C54 1.397 . S
C51 N47 1.453 . S
C51 C49 1.368 . S
C51 C52 1.373 . S
C52 H46 0.930 . S
C52 C51 1.373 . S
C52 C53 1.371 . S
C53 C52 1.371 . S
C53 C54 1.383 . S
C54 H45 0.931 . S
C54 C50 1.397 . S
C54 C53 1.383 . S
H55 C60 0.929 . S
H56 C65 0.931 . S
H57 C63 0.930 . S
N58 N59 1.234 . S
N58 C62 1.453 . S
N59 N58 1.234 . S
C60 H55 0.929 . S
C60 C61 1.373 . S
C60 C62 1.368 . S
C61 C60 1.373 . S
C61 C65 1.397 . S
C62 N58 1.453 . S
C62 C60 1.368 . S
C62 C63 1.373 . S
C63 H57 0.930 . S
C63 C62 1.373 . S
C63 C64 1.371 . S
C64 C63 1.371 . S
C64 C65 1.383 . S
C65 H56 0.931 . S
C65 C61 1.397 . S
C65 C64 1.383 . S
H66 C71 0.929 . S
H67 C76 0.931 . S
H68 C74 0.930 . S
N69 N70 1.234 1_545 S
N69 C73 1.453 . S
N70 N69 1.234 1_565 S
C71 H66 0.929 . S
C71 C72 1.373 . S
C71 C73 1.368 . S
C72 C71 1.373 . S
C72 C76 1.397 1_545 S
C73 N69 1.453 . S
C73 C71 1.368 . S
C73 C74 1.373 . S
C74 H68 0.930 . S
C74 C73 1.373 . S
C74 C75 1.371 . S
C75 C74 1.371 . S
C75 C76 1.383 1_545 S
C76 H67 0.931 . S
C76 C72 1.397 1_565 S
C76 C75 1.383 1_565 S
H77 C82 0.929 . S
H78 C87 0.931 . S
H79 C85 0.930 . S
N80 N81 1.234 . S
N80 C84 1.453 . S
N81 N80 1.234 . S
C82 H77 0.929 . S
C82 C83 1.373 . S
C82 C84 1.368 . S
C83 C82 1.373 . S
C83 C87 1.397 . S
C84 N80 1.453 . S
C84 C82 1.368 . S
C84 C85 1.373 . S
C85 H79 0.930 . S
C85 C84 1.373 . S
C85 C86 1.371 . S
C86 C85 1.371 . S
C86 C87 1.383 . S
C87 H78 0.931 . S
C87 C83 1.397 . S
C87 C86 1.383 . S
Co88 N93 2.057 . S
Co88 O105 2.021 1_545 S
Co88 O108 2.062 1_554 S
Co88 O112 2.117 1_454 S
Co88 O113 2.020 1_545 S
C89 O109 1.259 . S
C89 O112 1.258 . S
Co90 N99 2.057 . S
Co90 O106 2.117 . S
Co90 O107 2.020 1_565 S
Co90 O109 2.021 1_465 S
Co90 O114 2.061 1_455 S
C91 N93 1.316 . S
C91 N94 1.347 . S
C91 H96 0.931 . S
C92 N93 1.375 1_655 S
C92 C95 1.350 1_655 S
C92 H97 0.930 . S
N93 Co88 2.057 . S
N93 C91 1.316 . S
N93 C92 1.375 1_455 S
N94 C91 1.347 . S
N94 C95 1.373 . S
C95 C92 1.350 1_455 S
C95 N94 1.373 . S
C95 H116 0.931 1_455 S
H96 C91 0.931 . S
H97 C92 0.930 . S
C98 O105 1.259 1_556 S
C98 O106 1.258 . S
N99 Co90 2.057 . S
N99 C100 1.316 1_455 S
N99 C101 1.375 . S
C100 N99 1.316 1_655 S
C100 N102 1.347 . S
C100 H111 0.931 . S
C101 N99 1.375 . S
C101 C103 1.350 . S
C101 H110 0.930 . S
N102 C100 1.347 . S
N102 C103 1.373 1_655 S
C103 C101 1.350 . S
C103 N102 1.373 1_455 S
C103 H117 0.931 . S
C104 O107 1.256 . S
C104 O108 1.255 . S
O105 Co88 2.021 1_565 S
O105 C98 1.259 1_554 S
O106 Co90 2.117 . S
O106 C98 1.258 . S
O107 Co90 2.020 1_545 S
O107 C104 1.256 . S
O108 Co88 2.062 1_556 S
O108 C104 1.255 . S
O109 C89 1.259 . S
O109 Co90 2.021 1_645 S
H110 C101 0.930 . S
H111 C100 0.931 . S
O112 Co88 2.117 1_656 S
O112 C89 1.258 . S
O113 Co88 2.020 1_565 S
O113 C115 1.256 . S
O114 Co90 2.061 1_655 S
O114 C115 1.254 1_656 S
C115 O113 1.256 . S
C115 O114 1.254 1_454 S
H116 C95 0.931 1_655 S
H117 C103 0.931 . S
Co118 N123 2.057 1_545 S
Co118 O135 2.021 1_554 S
Co118 O138 2.062 1_554 S
Co118 O142 2.117 1_545 S
Co118 O143 2.020 . S
C119 O139 1.259 . S
C119 O142 1.258 1_556 S
Co120 N129 2.057 1_565 S
Co120 O136 2.117 1_565 S
Co120 O137 2.020 . S
Co120 O139 2.021 . S
Co120 O144 2.062 . S
C121 N123 1.316 1_545 S
C121 N124 1.347 1_545 S
C121 H126 0.931 . S
C122 N123 1.375 . S
C122 C125 1.350 . S
C122 H127 0.930 . S
N123 Co118 2.057 1_565 S
N123 C121 1.316 1_565 S
N123 C122 1.375 . S
N124 C121 1.347 1_565 S
N124 C125 1.373 . S
C125 C122 1.350 . S
C125 N124 1.373 . S
C125 H146 0.931 . S
H126 C121 0.931 . S
H127 C122 0.930 . S
C128 O135 1.259 . S
C128 O136 1.258 . S
N129 Co120 2.057 1_545 S
N129 C130 1.316 1_545 S
N129 C131 1.375 . S
C130 N129 1.316 1_565 S
C130 N132 1.347 1_565 S
C130 H141 0.931 . S
C131 N129 1.375 . S
C131 C133 1.350 . S
C131 H140 0.930 . S
N132 C130 1.347 1_545 S
N132 C133 1.373 . S
C133 C131 1.350 . S
C133 N132 1.373 . S
C133 H147 0.931 . S
C134 O137 1.256 . S
C134 O138 1.255 1_565 S
O135 Co118 2.021 1_556 S
O135 C128 1.259 . S
O136 Co120 2.117 1_545 S
O136 C128 1.258 . S
O137 Co120 2.020 . S
O137 C134 1.256 . S
O138 Co118 2.062 1_556 S
O138 C134 1.255 1_545 S
O139 C119 1.259 . S
O139 Co120 2.021 . S
H140 C131 0.930 . S
H141 C130 0.931 . S
O142 Co118 2.117 1_565 S
O142 C119 1.258 1_554 S
O143 Co118 2.020 . S
O143 C145 1.256 1_554 S
O144 Co120 2.062 . S
O144 C145 1.255 1_565 S
C145 O143 1.256 1_556 S
C145 O144 1.255 1_545 S
H146 C125 0.931 . S
H147 C133 0.931 . S
Co148 N153 2.057 . S
Co148 O165 2.021 . S
Co148 O168 2.062 . S
Co148 O172 2.117 1_556 S
Co148 O173 2.020 . S
C149 O169 1.259 . S
C149 O172 1.258 . S
Co150 N159 2.057 . S
Co150 O166 2.117 . S
Co150 O167 2.020 . S
Co150 O169 2.021 1_556 S
Co150 O174 2.062 . S
C151 N153 1.316 . S
C151 N154 1.347 1_556 S
C151 H156 0.931 . S
C152 N153 1.375 1_554 S
C152 C155 1.350 . S
C152 H157 0.930 . S
N153 Co148 2.057 . S
N153 C151 1.316 . S
N153 C152 1.375 1_556 S
N154 C151 1.347 1_554 S
N154 C155 1.373 . S
C155 C152 1.350 . S
C155 N154 1.373 . S
C155 H176 0.931 . S
H156 C151 0.931 . S
H157 C152 0.930 . S
C158 O165 1.259 . S
C158 O166 1.258 . S
N159 Co150 2.057 . S
N159 C160 1.316 . S
N159 C161 1.375 . S
C160 N159 1.316 . S
C160 N162 1.347 . S
C160 H171 0.931 . S
C161 N159 1.375 . S
C161 C163 1.350 . S
C161 H170 0.930 . S
N162 C160 1.347 . S
N162 C163 1.373 . S
C163 C161 1.350 . S
C163 N162 1.373 . S
C163 H177 0.931 . S
C164 O167 1.256 1_554 S
C164 O168 1.255 1_554 S
O165 Co148 2.021 . S
O165 C158 1.259 . S
O166 Co150 2.117 . S
O166 C158 1.258 . S
O167 Co150 2.020 . S
O167 C164 1.256 1_556 S
O168 Co148 2.062 . S
O168 C164 1.255 1_556 S
O169 C149 1.259 . S
O169 Co150 2.021 1_554 S
H170 C161 0.930 . S
H171 C160 0.931 . S
O172 Co148 2.117 1_554 S
O172 C149 1.258 . S
O173 Co148 2.020 . S
O173 C175 1.256 . S
O174 Co150 2.062 . S
O174 C175 1.255 . S
C175 O173 1.256 . S
C175 O174 1.255 . S
H176 C155 0.931 . S
H177 C163 0.931 . S
Co178 N183 2.057 . S
Co178 O195 2.021 1_455 S
Co178 O198 2.062 1_455 S
Co178 O202 2.117 1_556 S
Co178 O203 2.020 . S
C179 O199 1.259 . S
C179 O202 1.258 . S
Co180 N189 2.057 . S
Co180 O196 2.117 1_455 S
Co180 O197 2.020 1_456 S
Co180 O199 2.021 1_556 S
Co180 O204 2.062 . S
C181 N183 1.316 . S
C181 N184 1.347 . S
C181 H186 0.931 1_455 S
C182 N183 1.375 . S
C182 C185 1.350 . S
C182 H187 0.930 1_556 S
N183 Co178 2.057 . S
N183 C181 1.316 . S
N183 C182 1.375 . S
N184 C181 1.347 . S
N184 C185 1.373 . S
C185 C182 1.350 . S
C185 N184 1.373 . S
C185 H206 0.931 1_556 S
H186 C181 0.931 1_655 S
H187 C182 0.930 1_554 S
C188 O195 1.259 . S
C188 O196 1.258 . S
N189 Co180 2.057 . S
N189 C190 1.316 . S
N189 C191 1.375 1_455 S
C190 N189 1.316 . S
C190 N192 1.347 . S
C190 H201 0.931 1_556 S
C191 N189 1.375 1_655 S
C191 C193 1.350 . S
C191 H200 0.930 . S
N192 C190 1.347 . S
N192 C193 1.373 1_455 S
C193 C191 1.350 . S
C193 N192 1.373 1_655 S
C193 H207 0.931 . S
C194 O197 1.256 . S
C194 O198 1.255 1_554 S
O195 Co178 2.021 1_655 S
O195 C188 1.259 . S
O196 Co180 2.117 1_655 S
O196 C188 1.258 . S
O197 Co180 2.020 1_654 S
O197 C194 1.256 . S
O198 Co178 2.062 1_655 S
O198 C194 1.255 1_556 S
O199 C179 1.259 . S
O199 Co180 2.021 1_554 S
H200 C191 0.930 . S
H201 C190 0.931 1_554 S
O202 Co178 2.117 1_554 S
O202 C179 1.258 . S
O203 Co178 2.020 . S
O203 C205 1.256 . S
O204 Co180 2.062 . S
O204 C205 1.255 . S
C205 O203 1.256 . S
C205 O204 1.255 . S
H206 C185 0.931 1_554 S
H207 C193 0.931 . S
N70 C98 2.073 . S
C128 N81 2.036 . S
N162 N48 1.351 . S
N192 N59 1.930 . S
C89 N26 2.088 1_545 S
N37 C119 2.050 1_554 S
N4 N154 1.378 . S
N15 N184 1.980 1_655 S
C104 C64 1.297 . S
C134 C75 1.387 1_565 S
C175 C86 1.827 . S
C53 C205 1.228 . S
C20 C115 1.249 1_656 S
C145 C31 1.385 . S
C164 C42 1.811 . S
C9 C194 1.188 . S
C61 N94 1.593 . S
C72 N124 1.512 1_545 S
C149 C83 1.826 . S
C179 C50 1.748 . S
C17 N102 1.553 . S
N132 C28 1.504 . S
C158 C39 1.832 . S
C6 C188 1.743 . S
