# Generated by pormake.
# Topology tsx, (6,3)-cn, num edge types: 1
# Building blocks:
#     Node 0, Type 0, BuildingBlock: CIFDUS_clean_sbu_1, # of connection points: 6
#     Node 1, Type 0, BuildingBlock: CIFDUS_clean_sbu_1, # of connection points: 6
#     Node 2, Type 1, BuildingBlock: BELTOD_clean_linker_0, # of connection points: 3
#     Node 3, Type 1, BuildingBlock: BELTOD_clean_linker_0, # of connection points: 3
#     Node 4, Type 1, BuildingBlock: BELTOD_clean_linker_0, # of connection points: 3
#     Node 5, Type 1, BuildingBlock: BELTOD_clean_linker_0, # of connection points: 3
#     Edge 6, Type (0, 1), None
#     Edge 7, Type (0, 1), None
#     Edge 8, Type (0, 1), None
#     Edge 9, Type (0, 1), None
#     Edge 10, Type (0, 1), None
#     Edge 11, Type (0, 1), None
#     Edge 12, Type (0, 1), None
#     Edge 13, Type (0, 1), None
#     Edge 14, Type (0, 1), None
#     Edge 15, Type (0, 1), None
#     Edge 16, Type (0, 1), None
#     Edge 17, Type (0, 1), None
# Relax obj value: 0.116
# Max RMSD: 0.149
# Mean RMSD: 0.109
data_MOF--net-tsx--node1-CIFDUS_clean_sbu_1--node2-BELTOD_clean_linker_0--edge1-none
_symmetry_space_group_name_H-M    P1
_symmetry_Int_Tables_number       1
_symmetry_cell_setting            triclinic
loop_
_symmetry_equiv_pos_as_xyz
'x, y, z'
_cell_length_a     10.498019
_cell_length_b     12.454585
_cell_length_c     22.791842
_cell_angle_alpha  96.648775
_cell_angle_beta   93.63539
_cell_angle_gamma 93.197586
loop_
_atom_site_label
_atom_site_type_symbol
_atom_site_fract_x
_atom_site_fract_y
_atom_site_fract_z
_atom_type_partial_charge
O0 O 0.93087 0.19622 0.94751 0.0
Mn1 Mn 0.04703 0.06964 -0.03181 0.0
O2 O 0.77242 0.1099 0.88336 0.0
Mn3 Mn 0.82772 0.97149 0.87379 0.0
O4 O 0.14941 0.92916 -0.02319 0.0
O5 O 0.20437 0.1812 -0.00258 0.0
Mn6 Mn 0.24374 0.08337 0.04892 0.0
O7 O 0.97159 0.07952 0.05057 0.0
O8 O 0.34369 0.98494 0.01329 0.0
O9 O 0.11059 0.0604 0.88265 0.0
O10 O 0.96101 0.95272 0.82452 0.0
O11 O 0.30994 0.20555 0.08833 0.0
O12 O 0.13445 0.01716 0.09597 0.0
C13 C 0.82731 0.88368 0.9508 0.0
C14 C 0.82578 0.19507 0.91387 0.0
C15 C 0.26842 0.91232 -0.01529 0.0
C16 C 0.27542 0.24392 0.03977 0.0
C17 C 0.01826 0.03521 0.09351 0.0
C18 C 0.07031 1.00483 0.83314 0.0
O19 O 0.9027 0.96384 0.943 0.0
O20 O 0.74444 0.85773 0.9066 0.0
O21 O 0.43087 0.69622 0.44751 0.0
Mn22 Mn 0.54703 0.56964 0.46819 0.0
O23 O 0.27242 0.6099 0.38336 0.0
Mn24 Mn 0.32772 0.47148 0.37379 0.0
O25 O 0.64941 0.42915 0.47681 0.0
O26 O 0.70437 0.6812 0.49742 0.0
Mn27 Mn 0.74374 0.58337 0.54892 0.0
O28 O 0.47159 0.57952 0.55057 0.0
O29 O 0.8437 0.48494 0.51329 0.0
O30 O 0.6106 0.5604 0.38265 0.0
O31 O 0.46101 0.45272 0.32452 0.0
O32 O 0.80995 0.70555 0.58833 0.0
O33 O 0.63445 0.51716 0.59597 0.0
C34 C 0.32731 0.38368 0.4508 0.0
C35 C 0.32578 0.69507 0.41387 0.0
C36 C 0.76842 0.41231 0.48471 0.0
C37 C 0.77542 0.74392 0.53977 0.0
C38 C 0.51826 0.53521 0.59351 0.0
C39 C 0.57031 0.50483 0.33314 0.0
O40 O 0.4027 0.46384 0.443 0.0
O41 O 0.24444 0.35773 0.4066 0.0
P42 P 0.05209 0.08401 0.34531 0.0
H43 H 0.0918 0.17691 0.46688 0.0
H44 H 0.97923 0.3174 0.52402 0.0
H45 H 0.66762 0.27466 0.38907 0.0
H46 H 0.77811 0.13295 0.33375 0.0
H47 H 0.31342 0.06326 0.39605 0.0
H48 H 0.42535 0.90743 0.42474 0.0
H49 H 0.0731 0.70785 0.3854 0.0
H50 H 0.96113 0.8646 0.36171 0.0
H51 H 0.92802 0.21654 0.26528 0.0
H52 H 0.02109 0.88226 0.26075 0.0
O53 O 0.16804 0.17677 0.33709 0.0
H54 H 0.90734 0.1962 0.15757 0.0
H55 H 0.99903 0.86251 0.15377 0.0
C56 C 0.94631 0.14859 0.39531 0.0
C57 C 0.9979 0.19626 0.45077 0.0
C58 C 0.93435 0.27668 0.4828 0.0
C59 C 0.81795 0.30978 0.45956 0.0
C60 C 0.75849 0.25195 0.40755 0.0
C61 C 0.82238 0.17137 0.37561 0.0
C62 C 0.12942 0.97447 0.37515 0.0
C63 C 0.25982 0.98631 0.39506 0.0
C64 C 0.32408 0.89735 0.41147 0.0
C65 C 0.25904 0.795 0.40668 0.0
C66 C 0.12708 0.78532 0.38888 0.0
C67 C 0.06228 0.87482 0.37529 0.0
C68 C 0.97731 0.05136 0.27163 0.0
C69 C 0.9358 0.13688 0.24156 0.0
C70 C 0.9224 0.1251 0.1798 0.0
C71 C 0.95357 0.02835 0.14792 0.0
C72 C 0.97453 0.93793 0.1779 0.0
C73 C 0.98835 0.94972 0.23955 0.0
P74 P 0.25525 0.01207 0.58994 0.0
H75 H 0.19203 0.80427 0.51992 0.0
H76 H 0.99218 0.69907 0.49255 0.0
H77 H 0.78545 0.96629 0.56543 0.0
H78 H 0.98801 0.07743 0.5866 0.0
H79 H 0.45513 0.07092 0.5146 0.0
H80 H 0.48585 0.22307 0.45787 0.0
H81 H 0.1927 0.38758 0.54913 0.0
H82 H 0.15634 0.23181 0.60464 0.0
H83 H 0.19168 0.83857 0.65709 0.0
H84 H 0.26951 0.18467 0.69379 0.0
O85 O 0.37075 0.92786 0.57563 0.0
H86 H 0.11484 0.83353 0.75538 0.0
H87 H 0.19305 0.17944 0.79331 0.0
C88 C 0.10624 0.95056 0.55306 0.0
C89 C 0.10411 0.84437 0.52521 0.0
C90 C 0.98863 0.78385 0.5094 0.0
C91 C 0.87212 0.82514 0.52497 0.0
C92 C 0.87283 0.9337 0.55036 0.0
C93 C 0.98912 0.99671 0.56328 0.0
C94 C 0.30217 0.1389 0.5636 0.0
C95 C 0.39954 0.14064 0.52416 0.0
C96 C 0.41858 0.22838 0.49207 0.0
C97 C 0.34118 0.31614 0.49922 0.0
C98 C 0.25309 0.32004 0.5431 0.0
C99 C 0.23249 0.23117 0.57479 0.0
C100 C 0.23248 0.01235 0.66749 0.0
C101 C 0.19492 0.91332 0.68682 0.0
C102 C 0.15141 0.91026 0.74301 0.0
C103 C 0.14693 1.00615 0.78138 0.0
C104 C 0.196 0.1044 0.76431 0.0
C105 C 0.23812 0.10763 0.70725 0.0
P106 P 0.55209 0.58401 0.84531 0.0
H107 H 0.59179 0.67691 -0.03312 0.0
H108 H 0.47923 0.8174 0.02402 0.0
H109 H 0.16762 0.77467 0.88907 0.0
H110 H 0.27811 0.63295 0.83375 0.0
H111 H 0.81342 0.56327 0.89605 0.0
H112 H 0.92535 0.40743 0.92474 0.0
H113 H 0.5731 0.20785 0.8854 0.0
H114 H 0.46113 0.3646 0.86171 0.0
H115 H 0.42802 0.71654 0.76528 0.0
H116 H 0.52109 0.38226 0.76075 0.0
O117 O 0.66804 0.67677 0.83709 0.0
H118 H 0.40734 0.6962 0.65757 0.0
H119 H 0.49903 0.36251 0.65377 0.0
C120 C 0.44631 0.64859 0.89531 0.0
C121 C 0.4979 0.69626 0.95077 0.0
C122 C 0.43435 0.77668 -0.0172 0.0
C123 C 0.31795 0.80979 0.95956 0.0
C124 C 0.25849 0.75196 0.90755 0.0
C125 C 0.32238 0.67138 0.87561 0.0
C126 C 0.62942 0.47448 0.87515 0.0
C127 C 0.75982 0.48631 0.89506 0.0
C128 C 0.82408 0.39735 0.91147 0.0
C129 C 0.75903 0.295 0.90668 0.0
C130 C 0.62708 0.28532 0.88888 0.0
C131 C 0.56228 0.37482 0.87529 0.0
C132 C 0.47731 0.55136 0.77163 0.0
C133 C 0.43581 0.63689 0.74156 0.0
C134 C 0.4224 0.6251 0.6798 0.0
C135 C 0.45357 0.52835 0.64792 0.0
C136 C 0.47453 0.43793 0.6779 0.0
C137 C 0.48835 0.44972 0.73955 0.0
P138 P 0.75525 0.51207 0.08994 0.0
H139 H 0.69203 0.30427 0.01992 0.0
H140 H 0.49218 0.19907 -0.00745 0.0
H141 H 0.28545 0.46629 0.06542 0.0
H142 H 0.48801 0.57743 0.0866 0.0
H143 H 0.95513 0.57092 0.0146 0.0
H144 H 0.98585 0.72307 0.95787 0.0
H145 H 0.6927 0.88758 0.04913 0.0
H146 H 0.65634 0.73181 0.10464 0.0
H147 H 0.69168 0.33857 0.15709 0.0
H148 H 0.76951 0.68467 0.19379 0.0
O149 O 0.87075 0.42786 0.07563 0.0
H150 H 0.61484 0.33353 0.25538 0.0
H151 H 0.69305 0.67944 0.29331 0.0
C152 C 0.60624 0.45056 0.05306 0.0
C153 C 0.60411 0.34437 0.02521 0.0
C154 C 0.48863 0.28386 0.0094 0.0
C155 C 0.37212 0.32514 0.02497 0.0
C156 C 0.37283 0.4337 0.05036 0.0
C157 C 0.48912 0.49671 0.06328 0.0
C158 C 0.80216 0.6389 0.0636 0.0
C159 C 0.89954 0.64064 0.02416 0.0
C160 C 0.91858 0.72838 -0.00793 0.0
C161 C 0.84118 0.81614 -0.00078 0.0
C162 C 0.75309 0.82004 0.0431 0.0
C163 C 0.73249 0.73117 0.07479 0.0
C164 C 0.73248 0.51235 0.16749 0.0
C165 C 0.69492 0.41332 0.18682 0.0
C166 C 0.65141 0.41026 0.24301 0.0
C167 C 0.64693 0.50615 0.28138 0.0
C168 C 0.696 0.6044 0.26431 0.0
C169 C 0.73812 0.60763 0.20725 0.0
loop_
_geom_bond_atom_site_label_1
_geom_bond_atom_site_label_2
_geom_bond_distance
_geom_bond_site_symmetry_2
_ccdc_geom_bond_type
O0 Mn1 2.163 1_655 S
O0 C14 1.244 1_554 S
Mn1 O0 2.163 1_455 S
Mn1 O4 2.160 1_544 S
Mn1 O5 2.222 . S
Mn1 O7 2.167 . S
Mn1 O9 2.155 1_554 S
Mn1 O19 2.221 1_444 S
O2 Mn3 2.087 1_545 S
O2 C14 1.256 . S
Mn3 O2 2.087 1_565 S
Mn3 O10 2.089 1_565 S
Mn3 O19 2.290 . S
Mn3 O20 2.251 . S
O4 Mn1 2.160 1_566 S
O4 C15 1.239 1_556 S
O5 Mn1 2.222 . S
O5 Mn6 2.290 . S
O5 C16 1.278 . S
Mn6 O5 2.290 . S
Mn6 O8 2.089 1_545 S
Mn6 O11 2.251 . S
Mn6 O12 2.087 . S
O7 Mn1 2.167 . S
O7 C17 1.244 . S
O8 Mn6 2.089 1_565 S
O8 C15 1.256 . S
O9 Mn1 2.155 1_556 S
O9 C18 1.239 . S
O10 Mn3 2.089 1_545 S
O10 C18 1.256 1_655 S
O11 Mn6 2.251 . S
O11 C16 1.241 . S
O12 Mn6 2.087 . S
O12 C17 1.256 . S
C13 O19 1.278 1_554 S
C13 O20 1.241 1_554 S
C14 O0 1.244 1_556 S
C14 O2 1.256 . S
C15 O4 1.239 1_554 S
C15 O8 1.256 . S
C16 O5 1.278 . S
C16 O11 1.241 . S
C17 O7 1.244 . S
C17 O12 1.256 . S
C18 O9 1.239 . S
C18 O10 1.256 1_455 S
O19 Mn1 2.221 1_666 S
O19 Mn3 2.290 . S
O19 C13 1.278 1_556 S
O20 Mn3 2.251 . S
O20 C13 1.241 1_556 S
O21 Mn22 2.163 . S
O21 C35 1.244 . S
Mn22 O21 2.163 . S
Mn22 O25 2.160 . S
Mn22 O26 2.221 . S
Mn22 O28 2.163 . S
Mn22 O30 2.160 . S
Mn22 O40 2.221 . S
O23 Mn24 2.087 . S
O23 C35 1.256 . S
Mn24 O23 2.087 . S
Mn24 O31 2.089 . S
Mn24 O40 2.290 . S
Mn24 O41 2.251 . S
O25 Mn22 2.160 . S
O25 C36 1.239 . S
O26 Mn22 2.221 . S
O26 Mn27 2.290 . S
O26 C37 1.278 . S
Mn27 O26 2.290 . S
Mn27 O29 2.089 . S
Mn27 O32 2.251 . S
Mn27 O33 2.087 . S
O28 Mn22 2.163 . S
O28 C38 1.244 . S
O29 Mn27 2.089 . S
O29 C36 1.256 . S
O30 Mn22 2.160 . S
O30 C39 1.239 . S
O31 Mn24 2.089 . S
O31 C39 1.256 . S
O32 Mn27 2.251 . S
O32 C37 1.241 . S
O33 Mn27 2.087 . S
O33 C38 1.256 . S
C34 O40 1.278 . S
C34 O41 1.241 . S
C35 O21 1.244 . S
C35 O23 1.256 . S
C36 O25 1.239 . S
C36 O29 1.256 . S
C37 O26 1.278 . S
C37 O32 1.241 . S
C38 O28 1.244 . S
C38 O33 1.256 . S
C39 O30 1.239 . S
C39 O31 1.256 . S
O40 Mn22 2.221 . S
O40 Mn24 2.290 . S
O40 C34 1.278 . S
O41 Mn24 2.251 . S
O41 C34 1.241 . S
P42 O53 1.490 . S
P42 C56 1.812 . S
P42 C62 1.803 1_545 S
P42 C68 1.819 . S
H43 C57 0.941 . S
H44 C58 0.939 . S
H45 C60 0.940 . S
H46 C61 0.940 . S
H47 C63 0.939 . S
H48 C64 0.942 . S
H49 C66 0.940 . S
H50 C67 0.939 . S
H51 C69 0.941 . S
H52 C73 0.939 . S
O53 P42 1.490 . S
H54 C70 0.939 . S
H55 C72 0.940 . S
C56 P42 1.812 . S
C56 C57 1.389 . S
C56 C61 1.391 1_455 S
C57 H43 0.941 . S
C57 C56 1.389 . S
C57 C58 1.397 1_455 S
C58 H44 0.939 . S
C58 C57 1.397 1_655 S
C58 C59 1.378 . S
C59 C58 1.378 . S
C59 C60 1.378 . S
C60 H45 0.940 . S
C60 C59 1.378 . S
C60 C61 1.396 . S
C61 H46 0.940 . S
C61 C56 1.391 1_655 S
C61 C60 1.396 . S
C62 P42 1.803 1_565 S
C62 C63 1.378 . S
C62 C67 1.400 . S
C63 H47 0.939 . S
C63 C62 1.378 . S
C63 C64 1.361 . S
C64 H48 0.942 . S
C64 C63 1.361 . S
C64 C65 1.369 . S
C65 C64 1.369 . S
C65 C66 1.404 . S
C66 H49 0.940 . S
C66 C65 1.404 . S
C66 C67 1.389 . S
C67 H50 0.939 . S
C67 C62 1.400 . S
C67 C66 1.389 . S
C68 P42 1.819 . S
C68 C69 1.391 . S
C68 C73 1.391 1_545 S
C69 H51 0.941 . S
C69 C68 1.391 . S
C69 C70 1.396 . S
C70 H54 0.939 . S
C70 C69 1.396 . S
C70 C71 1.397 . S
C71 C70 1.397 . S
C71 C72 1.385 1_545 S
C72 H55 0.940 . S
C72 C71 1.385 1_565 S
C72 C73 1.388 . S
C73 H52 0.939 . S
C73 C68 1.391 1_565 S
C73 C72 1.388 . S
P74 O85 1.490 . S
P74 C88 1.812 1_455 S
P74 C94 1.803 1_565 S
P74 C100 1.819 1_565 S
H75 C89 0.941 . S
H76 C90 0.939 . S
H77 C92 0.940 . S
H78 C93 0.940 1_545 S
H79 C95 0.939 . S
H80 C96 0.942 . S
H81 C98 0.940 . S
H82 C99 0.939 . S
H83 C101 0.941 . S
H84 C105 0.939 . S
O85 P74 1.490 . S
H86 C102 0.939 . S
H87 C104 0.940 . S
C88 P74 1.812 1_655 S
C88 C89 1.389 1_655 S
C88 C93 1.391 . S
C89 H75 0.941 . S
C89 C88 1.389 1_455 S
C89 C90 1.397 1_455 S
C90 H76 0.939 . S
C90 C89 1.397 1_655 S
C90 C91 1.378 . S
C91 C90 1.378 . S
C91 C92 1.378 . S
C92 H77 0.940 . S
C92 C91 1.378 . S
C92 C93 1.396 . S
C93 H78 0.940 1_565 S
C93 C88 1.391 . S
C93 C92 1.396 . S
C94 P74 1.803 1_545 S
C94 C95 1.378 . S
C94 C99 1.400 . S
C95 H79 0.939 . S
C95 C94 1.378 . S
C95 C96 1.361 . S
C96 H80 0.942 . S
C96 C95 1.361 . S
C96 C97 1.369 . S
C97 C96 1.369 . S
C97 C98 1.404 . S
C98 H81 0.940 . S
C98 C97 1.404 . S
C98 C99 1.389 . S
C99 H82 0.939 . S
C99 C94 1.400 . S
C99 C98 1.389 . S
C100 P74 1.819 1_545 S
C100 C101 1.391 1_545 S
C100 C105 1.391 . S
C101 H83 0.941 . S
C101 C100 1.391 1_565 S
C101 C102 1.396 . S
C102 H86 0.939 . S
C102 C101 1.396 . S
C102 C103 1.397 1_565 S
C103 C102 1.397 1_545 S
C103 C104 1.385 . S
C104 H87 0.940 . S
C104 C103 1.385 . S
C104 C105 1.388 . S
C105 H84 0.939 . S
C105 C100 1.391 . S
C105 C104 1.388 . S
P106 O117 1.490 . S
P106 C120 1.812 . S
P106 C126 1.803 . S
P106 C132 1.819 . S
H107 C121 0.941 . S
H108 C122 0.939 . S
H109 C124 0.940 . S
H110 C125 0.940 . S
H111 C127 0.939 . S
H112 C128 0.942 . S
H113 C130 0.940 . S
H114 C131 0.939 . S
H115 C133 0.941 . S
H116 C137 0.939 . S
O117 P106 1.490 . S
H118 C134 0.939 . S
H119 C136 0.940 . S
C120 P106 1.812 . S
C120 C121 1.389 1_556 S
C120 C125 1.391 . S
C121 H107 0.941 . S
C121 C120 1.389 1_554 S
C121 C122 1.397 . S
C122 H108 0.939 . S
C122 C121 1.397 . S
C122 C123 1.378 . S
C123 C122 1.378 . S
C123 C124 1.378 1_554 S
C124 H109 0.940 . S
C124 C123 1.378 1_556 S
C124 C125 1.396 . S
C125 H110 0.940 . S
C125 C120 1.391 . S
C125 C124 1.396 . S
C126 P106 1.803 . S
C126 C127 1.378 . S
C126 C131 1.400 . S
C127 H111 0.939 . S
C127 C126 1.378 . S
C127 C128 1.361 . S
C128 H112 0.942 . S
C128 C127 1.361 . S
C128 C129 1.369 1_556 S
C129 C128 1.369 1_554 S
C129 C130 1.404 . S
C130 H113 0.940 . S
C130 C129 1.404 . S
C130 C131 1.389 1_554 S
C131 H114 0.939 . S
C131 C126 1.400 . S
C131 C130 1.389 1_556 S
C132 P106 1.819 . S
C132 C133 1.391 . S
C132 C137 1.391 . S
C133 H115 0.941 . S
C133 C132 1.391 . S
C133 C134 1.396 . S
C134 H118 0.939 . S
C134 C133 1.396 . S
C134 C135 1.397 . S
C135 C134 1.397 . S
C135 C136 1.385 . S
C136 H119 0.940 . S
C136 C135 1.385 . S
C136 C137 1.388 . S
C137 H116 0.939 . S
C137 C132 1.391 . S
C137 C136 1.388 . S
P138 O149 1.490 . S
P138 C152 1.812 . S
P138 C158 1.803 . S
P138 C164 1.819 . S
H139 C153 0.941 . S
H140 C154 0.939 . S
H141 C156 0.940 . S
H142 C157 0.940 . S
H143 C159 0.939 . S
H144 C160 0.942 . S
H145 C162 0.940 1_556 S
H146 C163 0.939 . S
H147 C165 0.941 . S
H148 C169 0.939 . S
O149 P138 1.490 . S
H150 C166 0.939 . S
H151 C168 0.940 . S
C152 P138 1.812 . S
C152 C153 1.389 1_554 S
C152 C157 1.391 . S
C153 H139 0.941 . S
C153 C152 1.389 1_556 S
C153 C154 1.397 . S
C154 H140 0.939 . S
C154 C153 1.397 . S
C154 C155 1.378 . S
C155 C154 1.378 . S
C155 C156 1.378 1_556 S
C156 H141 0.940 . S
C156 C155 1.378 1_554 S
C156 C157 1.396 . S
C157 H142 0.940 . S
C157 C152 1.391 . S
C157 C156 1.396 . S
C158 P138 1.803 . S
C158 C159 1.378 . S
C158 C163 1.400 . S
C159 H143 0.939 . S
C159 C158 1.378 . S
C159 C160 1.361 . S
C160 H144 0.942 . S
C160 C159 1.361 . S
C160 C161 1.369 . S
C161 C160 1.369 . S
C161 C162 1.404 . S
C162 H145 0.940 1_554 S
C162 C161 1.404 . S
C162 C163 1.389 . S
C163 H146 0.939 . S
C163 C158 1.400 . S
C163 C162 1.389 . S
C164 P138 1.819 . S
C164 C165 1.391 . S
C164 C169 1.391 . S
C165 H147 0.941 . S
C165 C164 1.391 . S
C165 C166 1.396 . S
C166 H150 0.939 . S
C166 C165 1.396 . S
C166 C167 1.397 . S
C167 C166 1.397 . S
C167 C168 1.385 . S
C168 H151 0.940 . S
C168 C167 1.385 . S
C168 C169 1.388 . S
C169 H148 0.939 . S
C169 C164 1.391 . S
C169 C168 1.388 . S
C155 C16 1.803 1_556 S
C15 C123 1.649 . S
C13 C161 1.221 . S
C14 C129 1.493 1_556 S
C37 C91 1.803 . S
C36 C59 1.649 . S
C97 C34 1.221 . S
C65 C35 1.493 . S
C17 C71 1.450 . S
C18 C103 1.315 . S
C135 C38 1.451 . S
C39 C167 1.315 . S
