# Generated by pormake.
# Topology pts, (4,4)-cn, num edge types: 1
# Building blocks:
#     Node 0, Type 0, BuildingBlock: NAWXER_clean_linker_0, # of connection points: 4
#     Node 1, Type 0, BuildingBlock: NAWXER_clean_linker_0, # of connection points: 4
#     Node 2, Type 1, BuildingBlock: QUQFOY_clean_sbu_1, # of connection points: 4
#     Node 3, Type 1, BuildingBlock: QUQFOY_clean_sbu_1, # of connection points: 4
#     Edge 4, Type (0, 1), BuildingBlock: XIVTED_clean_linker_0, # of connection points: 2
#     Edge 5, Type (0, 1), BuildingBlock: XIVTED_clean_linker_0, # of connection points: 2
#     Edge 6, Type (0, 1), BuildingBlock: XIVTED_clean_linker_0, # of connection points: 2
#     Edge 7, Type (0, 1), BuildingBlock: XIVTED_clean_linker_0, # of connection points: 2
#     Edge 8, Type (0, 1), BuildingBlock: XIVTED_clean_linker_0, # of connection points: 2
#     Edge 9, Type (0, 1), BuildingBlock: XIVTED_clean_linker_0, # of connection points: 2
#     Edge 10, Type (0, 1), BuildingBlock: XIVTED_clean_linker_0, # of connection points: 2
#     Edge 11, Type (0, 1), BuildingBlock: XIVTED_clean_linker_0, # of connection points: 2
# Relax obj value: 0.095
# Max RMSD: 0.252
# Mean RMSD: 0.145
data_MOF--net-pts--node1-QUQFOY_clean_sbu_1--node2-NAWXER_clean_linker_0--edge1-XIVTED_clean_linker_0
_symmetry_space_group_name_H-M    P1
_symmetry_Int_Tables_number       1
_symmetry_cell_setting            triclinic
loop_
_symmetry_equiv_pos_as_xyz
'x, y, z'
_cell_length_a     28.709568
_cell_length_b     31.05989
_cell_length_c     44.946632
_cell_angle_alpha  89.883585
_cell_angle_beta   90.00647
_cell_angle_gamma 90.237386
loop_
_atom_site_label
_atom_site_type_symbol
_atom_site_fract_x
_atom_site_fract_y
_atom_site_fract_z
_atom_type_partial_charge
C0 C 0.62747 0.03508 0.94795 0.0
C1 C 0.63621 0.00181 0.92748 0.0
C2 C 0.59108 0.03142 0.96849 0.0
C3 C 0.56266 0.99456 0.96882 0.0
C4 C 0.60842 0.96439 0.92863 0.0
C5 C 0.57171 0.96107 0.94884 0.0
C6 C 0.52065 0.99252 0.98764 0.0
C7 C 0.63799 0.97717 0.05339 0.0
C8 C 0.63925 0.00755 0.07654 0.0
C9 C 0.6005 0.97593 0.0336 0.0
C10 C 0.56377 0.00538 0.03637 0.0
C11 C 0.60304 0.03769 0.07878 0.0
C12 C 0.56558 0.03644 0.05897 0.0
C13 C 0.52083 0.00061 0.01847 0.0
C14 C 0.32574 0.95932 0.05742 0.0
C15 C 0.31987 0.99277 0.07815 0.0
C16 C 0.36357 0.95971 0.0378 0.0
C17 C 0.39584 0.9938 0.03836 0.0
C18 C 0.35241 0.0267 0.07864 0.0
C19 C 0.39 0.02711 0.05903 0.0
C20 C 0.43793 0.99369 0.01945 0.0
C21 C 0.31825 0.00103 0.95405 0.0
C22 C 0.31999 0.97152 0.93049 0.0
C23 C 0.35592 0.00506 0.97358 0.0
C24 C 0.39523 0.97855 0.97042 0.0
C25 C 0.35902 0.94501 0.92731 0.0
C26 C 0.39615 0.9483 0.94721 0.0
C27 C 0.43779 0.98511 0.98856 0.0
H28 H 0.64763 0.0646 0.94748 0.0
H29 H 0.58402 0.05807 0.98331 0.0
H30 H 0.61473 0.93766 0.91376 0.0
H31 H 0.55006 0.93241 0.94872 0.0
H32 H 0.66557 0.95375 0.05092 0.0
H33 H 0.5994 0.95076 0.01698 0.0
H34 H 0.60263 0.06115 0.09656 0.0
H35 H 0.53736 0.05913 0.06179 0.0
H36 H 0.30117 0.93282 0.05638 0.0
H37 H 0.36801 0.93304 0.02259 0.0
H38 H 0.34952 0.05251 0.09468 0.0
H39 H 0.41485 0.05342 0.06016 0.0
H40 H 0.28866 0.02226 0.95652 0.0
H41 H 0.3549 0.03001 0.99034 0.0
H42 H 0.361 0.92214 0.90919 0.0
H43 H 0.42618 0.92781 0.94401 0.0
N44 N 0.47927 0.98487 0.97401 0.0
N45 N 0.47944 0.00112 0.03307 0.0
C46 C 0.00628 0.64573 0.55442 0.0
C47 C 0.97037 0.64993 0.5755 0.0
C48 C 0.00888 0.60911 0.53644 0.0
C49 C 0.97531 0.57625 0.53896 0.0
C50 C 0.93677 0.61699 0.57783 0.0
C51 C 0.93942 0.58045 0.55988 0.0
C52 C 0.97852 0.53644 0.52106 0.0
C53 C 0.95126 0.64388 0.45598 0.0
C54 C -0.01426 0.64904 0.43403 0.0
C55 C 0.95098 0.60748 0.47435 0.0
C56 C -0.01432 0.57595 0.4715 0.0
C57 C 0.0203 0.61736 0.43118 0.0
C58 C 0.02014 0.58115 0.44965 0.0
C59 C -0.015 0.53633 0.48991 0.0
C60 C 0.95649 0.35014 0.45797 0.0
C61 C -0.00918 0.34574 0.43588 0.0
C62 C 0.95526 0.38686 0.47588 0.0
C63 C -0.01119 0.41957 0.47239 0.0
C64 C 0.02425 0.3786 0.43242 0.0
C65 C 0.0231 0.4152 0.4504 0.0
C66 C -0.01301 0.45943 0.49038 0.0
C67 C 0.01609 0.35192 0.55487 0.0
C68 C -0.01709 0.34702 0.57763 0.0
C69 C 0.01557 0.3883 0.5365 0.0
C70 C -0.01879 0.42001 0.5401 0.0
C71 C 0.94882 0.37892 0.58133 0.0
C72 C 0.94806 0.41506 0.56281 0.0
C73 C -0.01897 0.45956 0.52159 0.0
H74 H 0.03315 0.67013 0.55242 0.0
H75 H 0.03763 0.6061 0.52099 0.0
H76 H 0.90834 0.61942 0.59356 0.0
H77 H 0.91326 0.55543 0.56229 0.0
H78 H 0.9237 0.66732 0.45835 0.0
H79 H 0.92308 0.6036 0.49035 0.0
H80 H 0.04755 0.62058 0.41465 0.0
H81 H 0.04707 0.55714 0.44689 0.0
H82 H 0.92974 0.32579 0.46082 0.0
H83 H 0.92756 0.39003 0.49208 0.0
H84 H 0.0514 0.37601 0.4158 0.0
H85 H 0.04915 0.44012 0.44717 0.0
H86 H 0.04327 0.32825 0.55185 0.0
H87 H 0.04258 0.39199 0.51987 0.0
H88 H 0.92262 0.37589 0.59856 0.0
H89 H 0.92146 0.43921 0.5662 0.0
N90 N 0.97663 0.49807 0.53563 0.0
N91 N -0.01085 0.49782 0.47584 0.0
O92 O 0.91519 0.96492 0.23343 0.0
Cd93 Cd 0.97648 0.95343 0.25595 0.0
Cd94 Cd 0.97959 0.04328 0.25689 0.0
O95 O 0.9178 0.03592 0.23415 0.0
O96 O 0.97494 0.89044 0.26382 0.0
O97 O 0.97712 0.93879 0.29978 0.0
C98 C 0.97613 0.89884 0.29185 0.0
C99 C -0.01749 0.09829 0.29235 0.0
C100 C 0.89777 0.00112 0.22649 0.0
C101 C 0.05719 -0.00323 0.2253 0.0
O102 O 0.03993 0.0325 0.23332 0.0
O103 O 0.03748 0.96154 0.23241 0.0
O104 O -0.01753 0.10632 0.26425 0.0
O105 O -0.01927 0.05848 0.30063 0.0
O106 O 0.929 0.03983 0.78023 0.0
Cd107 Cd -0.01121 0.04175 0.75464 0.0
Cd108 Cd 0.97229 0.95433 0.75283 0.0
O109 O 0.91001 0.97214 0.77156 0.0
O110 O -0.00241 0.10423 0.74673 0.0
O111 O -0.01432 0.05672 0.71096 0.0
C112 C -0.00766 0.09626 0.71882 0.0
C113 C 0.96962 0.90033 0.71666 0.0
C114 C 0.90082 0.00844 0.78303 0.0
C115 C 0.05806 0.98555 0.78499 0.0
O116 O 0.0301 0.95454 0.78017 0.0
O117 O 0.04991 0.02281 0.77459 0.0
O118 O 0.96278 0.89213 0.74441 0.0
O119 O 0.9779 0.93979 0.70914 0.0
H120 H 0.28409 0.92352 0.10881 0.0
H121 H 0.10395 0.06586 0.20179 0.0
H122 H 0.26671 0.06051 0.09701 0.0
H123 H 0.10468 0.92682 0.20392 0.0
H124 H 0.16822 0.06454 0.16638 0.0
H125 H 0.22161 0.92398 0.14578 0.0
C126 C 0.2669 0.95363 0.11378 0.0
C127 C 0.28077 0.99206 0.09978 0.0
C128 C 0.15442 0.03431 0.17464 0.0
C129 C 0.20984 0.99291 0.14247 0.0
C130 C 0.11782 0.03502 0.195 0.0
C131 C 0.09869 0.99637 0.20579 0.0
C132 C 0.17223 0.99468 0.16501 0.0
C133 C 0.1182 0.95741 0.19614 0.0
C134 C 0.23147 0.95391 0.13506 0.0
C135 C 0.25773 0.03022 0.10753 0.0
N136 N 0.15383 0.95756 0.17623 0.0
N137 N 0.22352 0.02968 0.12837 0.0
H138 H 0.97431 0.34741 0.63809 0.0
H139 H -0.0117 0.09169 0.65767 0.0
H140 H -0.00385 0.2617 0.56402 0.0
H141 H -0.00292 0.18224 0.73022 0.0
H142 H -0.01319 0.15235 0.62256 0.0
H143 H 0.97737 0.28596 0.67187 0.0
C144 C 0.97948 0.31556 0.62892 0.0
C145 C -0.01521 0.30963 0.59819 0.0
C146 C -0.01076 0.1588 0.64617 0.0
C147 C -0.0113 0.23897 0.63682 0.0
C148 C -0.00997 0.12424 0.66621 0.0
C149 C -0.00723 0.1319 0.69693 0.0
C150 C -0.00923 0.2012 0.65703 0.0
C151 C -0.00504 0.17473 0.70676 0.0
C152 C -0.01844 0.28049 0.64824 0.0
C153 C -0.00781 0.26768 0.5876 0.0
N154 N -0.0063 0.20766 0.68691 0.0
N155 N -0.00628 0.23387 0.60688 0.0
H156 H 0.67777 0.9367 0.10302 0.0
H157 H 0.85285 0.07254 0.20516 0.0
H158 H 0.68556 0.07553 0.10226 0.0
H159 H 0.84764 0.93356 0.20361 0.0
H160 H 0.78861 0.07445 0.16961 0.0
H161 H 0.73815 0.9351 0.14118 0.0
C162 C 0.69248 0.96687 0.11068 0.0
C163 C 0.67676 0.00632 0.09925 0.0
C164 C 0.80136 0.04354 0.17717 0.0
C165 C 0.74544 0.00474 0.14341 0.0
C166 C 0.83797 0.0424 0.19757 0.0
C167 C 0.8559 0.00281 0.20731 0.0
C168 C 0.78252 0.00482 0.16637 0.0
C169 C 0.83511 0.96484 0.19668 0.0
C170 C 0.7267 0.96594 0.13268 0.0
C171 C 0.69637 0.0444 0.11057 0.0
N172 N 0.79971 0.9668 0.17668 0.0
N173 N 0.72975 0.04266 0.13197 0.0
H174 H 0.94978 0.65032 0.63488 0.0
H175 H -0.0132 0.90429 0.65639 0.0
H176 H -0.01188 0.73523 0.5627 0.0
H177 H 0.94968 0.81581 0.72678 0.0
H178 H -0.01398 0.844 0.62112 0.0
H179 H 0.9478 0.71179 0.66828 0.0
C180 C 0.95739 0.68199 0.62596 0.0
C181 C 0.9689 0.68757 0.59586 0.0
C182 C 0.97799 0.83791 0.64429 0.0
C183 C 0.96742 0.75842 0.63428 0.0
C184 C 0.97838 0.87228 0.6644 0.0
C185 C 0.9684 0.86507 0.69459 0.0
C186 C 0.96748 0.79616 0.65451 0.0
C187 C 0.95773 0.82296 0.70376 0.0
C188 C 0.95657 0.71714 0.64513 0.0
C189 C 0.97947 0.72937 0.58579 0.0
N190 N 0.95762 0.79021 0.68385 0.0
N191 N 0.97845 0.76323 0.60496 0.0
H192 H 0.32782 0.98842 0.87145 0.0
H193 H 0.06732 0.92694 0.82988 0.0
H194 H 0.22797 0.95244 0.93875 0.0
H195 H 0.14051 0.02986 0.78498 0.0
H196 H 0.13234 0.92087 0.86505 0.0
H197 H 0.26499 0.98903 0.83432 0.0
C198 C 0.29264 0.98034 0.87825 0.0
C199 C 0.28267 0.97046 0.90801 0.0
C200 C 0.13412 0.94453 0.84735 0.0
C201 C 0.21142 0.97045 0.86595 0.0
C202 C 0.09734 0.94784 0.82719 0.0
C203 C 0.09862 0.97905 0.80459 0.0
C204 C 0.17278 0.97192 0.84437 0.0
C205 C 0.13813 0.00556 0.80222 0.0
C206 C 0.25698 0.98085 0.8572 0.0
C207 C 0.23672 0.96038 0.91595 0.0
N208 N 0.17385 0.00125 0.82182 0.0
N209 N 0.20265 0.96034 0.89494 0.0
H210 H 0.97564 0.26052 0.44986 0.0
H211 H -0.00715 0.18373 0.28037 0.0
H212 H 0.00518 0.34493 0.37578 0.0
H213 H 0.97698 0.0946 0.35352 0.0
H214 H -0.00428 0.24298 0.31555 0.0
H215 H 0.97407 0.19926 0.41553 0.0
C216 C -0.01827 0.26617 0.42639 0.0
C217 C -0.00932 0.30793 0.41569 0.0
C218 C -0.00832 0.21052 0.32402 0.0
C219 C -0.01093 0.23808 0.37638 0.0
C220 C -0.01004 0.17657 0.30389 0.0
C221 C -0.01539 0.13406 0.314 0.0
C222 C -0.01216 0.20217 0.35463 0.0
C223 C -0.01884 0.12687 0.34478 0.0
C224 C -0.01895 0.23118 0.40686 0.0
C225 C -0.0012 0.3133 0.38512 0.0
N226 N -0.01729 0.16065 0.36405 0.0
N227 N -0.00234 0.27887 0.3666 0.0
H228 H 0.63468 0.97323 0.86969 0.0
H229 H 0.88364 0.06875 0.82594 0.0
H230 H 0.72197 0.04147 0.93233 0.0
H231 H 0.82259 0.95806 0.78275 0.0
H232 H 0.81706 0.07078 0.86003 0.0
H233 H 0.69672 0.97843 0.83282 0.0
C234 C 0.66691 0.98908 0.87585 0.0
C235 C 0.67319 0.00636 0.90446 0.0
C236 C 0.81821 0.04629 0.84293 0.0
C237 C 0.74382 0.01351 0.86183 0.0
C238 C 0.85595 0.04526 0.82336 0.0
C239 C 0.85873 0.01301 0.8016 0.0
C240 C 0.78275 0.01529 0.84036 0.0
C241 C 0.822 0.98325 0.79935 0.0
C242 C 0.70215 0.9923 0.85464 0.0
C243 C 0.71529 0.02787 0.91059 0.0
N244 N 0.7855 0.98511 0.81851 0.0
N245 N 0.74903 0.03079 0.88946 0.0
H246 H -0.00027 0.64883 0.37394 0.0
H247 H 0.97281 0.90371 0.35301 0.0
H248 H 0.96899 0.73413 0.44694 0.0
H249 H -0.01847 0.81288 0.28067 0.0
H250 H 0.97514 0.84337 0.38837 0.0
H251 H -0.0023 0.71003 0.33998 0.0
C252 C -0.00713 0.68054 0.38286 0.0
C253 C -0.0153 0.68638 0.41335 0.0
C254 C 0.97645 0.83677 0.36474 0.0
C255 C -0.01818 0.7568 0.37444 0.0
C256 C 0.97518 0.87116 0.34457 0.0
C257 C 0.97696 0.86334 0.31384 0.0
C258 C 0.97985 0.7944 0.35404 0.0
C259 C -0.02 0.82052 0.30414 0.0
C260 C -0.00862 0.71549 0.36341 0.0
C261 C 0.97514 0.72816 0.42356 0.0
N262 N -0.01854 0.78778 0.32413 0.0
N263 N 0.97409 0.76185 0.40415 0.0
loop_
_geom_bond_atom_site_label_1
_geom_bond_atom_site_label_2
_geom_bond_distance
_geom_bond_site_symmetry_2
_ccdc_geom_bond_type
C0 C1 1.384 1_545 S
C0 C2 1.384 . S
C0 H28 0.931 . S
C1 C0 1.384 1_565 S
C1 C4 1.382 . S
C2 C0 1.384 . S
C2 C3 1.381 1_545 S
C2 H29 0.930 . S
C3 C2 1.381 1_565 S
C3 C5 1.381 . S
C3 C6 1.487 . S
C4 C1 1.382 . S
C4 C5 1.387 . S
C4 H30 0.930 . S
C5 C3 1.381 . S
C5 C4 1.387 . S
C5 H31 0.931 . S
C6 C3 1.487 . S
C6 C13 1.399 1_566 S
C6 N44 1.343 . S
C7 C8 1.384 1_565 S
C7 C9 1.384 . S
C7 H32 0.931 . S
C8 C7 1.384 1_545 S
C8 C11 1.382 . S
C9 C7 1.384 . S
C9 C10 1.381 1_565 S
C9 H33 0.930 . S
C10 C9 1.381 1_545 S
C10 C12 1.381 . S
C10 C13 1.487 . S
C11 C8 1.382 . S
C11 C12 1.387 . S
C11 H34 0.930 . S
C12 C10 1.381 . S
C12 C11 1.387 . S
C12 H35 0.931 . S
C13 C6 1.399 1_544 S
C13 C10 1.487 . S
C13 N45 1.343 . S
C14 C15 1.384 1_565 S
C14 C16 1.384 . S
C14 H36 0.931 . S
C15 C14 1.384 1_545 S
C15 C18 1.382 . S
C16 C14 1.384 . S
C16 C17 1.381 1_565 S
C16 H37 0.930 . S
C17 C16 1.381 1_545 S
C17 C19 1.381 . S
C17 C20 1.487 . S
C18 C15 1.382 . S
C18 C19 1.387 . S
C18 H38 0.930 . S
C19 C17 1.381 . S
C19 C18 1.387 . S
C19 H39 0.931 . S
C20 C17 1.487 . S
C20 C27 1.399 1_544 S
C20 N45 1.343 . S
C21 C22 1.384 1_545 S
C21 C23 1.384 . S
C21 H40 0.931 . S
C22 C21 1.384 1_565 S
C22 C25 1.382 . S
C23 C21 1.384 . S
C23 C24 1.381 1_545 S
C23 H41 0.930 . S
C24 C23 1.381 1_565 S
C24 C26 1.381 . S
C24 C27 1.487 . S
C25 C22 1.382 . S
C25 C26 1.387 . S
C25 H42 0.930 . S
C26 C24 1.381 . S
C26 C25 1.387 . S
C26 H43 0.931 . S
C27 C20 1.399 1_566 S
C27 C24 1.487 . S
C27 N44 1.343 . S
H28 C0 0.931 . S
H29 C2 0.930 . S
H30 C4 0.930 . S
H31 C5 0.931 . S
H32 C7 0.931 . S
H33 C9 0.930 . S
H34 C11 0.930 . S
H35 C12 0.931 . S
H36 C14 0.931 . S
H37 C16 0.930 . S
H38 C18 0.930 . S
H39 C19 0.931 . S
H40 C21 0.931 . S
H41 C23 0.930 . S
H42 C25 0.930 . S
H43 C26 0.931 . S
N44 C6 1.343 . S
N44 C27 1.343 . S
N45 C13 1.343 . S
N45 C20 1.343 . S
C46 C47 1.384 1_455 S
C46 C48 1.384 . S
C46 H74 0.931 . S
C47 C46 1.384 1_655 S
C47 C50 1.382 . S
C48 C46 1.384 . S
C48 C49 1.381 1_455 S
C48 H75 0.930 . S
C49 C48 1.381 1_655 S
C49 C51 1.381 . S
C49 C52 1.487 . S
C50 C47 1.382 . S
C50 C51 1.387 . S
C50 H76 0.930 . S
C51 C49 1.381 . S
C51 C50 1.387 . S
C51 H77 0.931 . S
C52 C49 1.487 . S
C52 C59 1.399 1_655 S
C52 N90 1.343 . S
C53 C54 1.384 1_655 S
C53 C55 1.384 . S
C53 H78 0.931 . S
C54 C53 1.384 1_455 S
C54 C57 1.382 . S
C55 C53 1.384 . S
C55 C56 1.381 1_655 S
C55 H79 0.930 . S
C56 C55 1.381 1_455 S
C56 C58 1.381 . S
C56 C59 1.487 . S
C57 C54 1.382 . S
C57 C58 1.387 . S
C57 H80 0.930 . S
C58 C56 1.381 . S
C58 C57 1.387 . S
C58 H81 0.931 . S
C59 C52 1.399 1_455 S
C59 C56 1.487 . S
C59 N91 1.343 . S
C60 C61 1.384 1_655 S
C60 C62 1.384 . S
C60 H82 0.931 . S
C61 C60 1.384 1_455 S
C61 C64 1.382 . S
C62 C60 1.384 . S
C62 C63 1.381 1_655 S
C62 H83 0.930 . S
C63 C62 1.381 1_455 S
C63 C65 1.381 . S
C63 C66 1.487 . S
C64 C61 1.382 . S
C64 C65 1.387 . S
C64 H84 0.930 . S
C65 C63 1.381 . S
C65 C64 1.387 . S
C65 H85 0.931 . S
C66 C63 1.487 . S
C66 C73 1.399 1_455 S
C66 N91 1.343 . S
C67 C68 1.384 1_455 S
C67 C69 1.384 . S
C67 H86 0.931 . S
C68 C67 1.384 1_655 S
C68 C71 1.382 . S
C69 C67 1.384 . S
C69 C70 1.381 1_455 S
C69 H87 0.930 . S
C70 C69 1.381 1_655 S
C70 C72 1.381 . S
C70 C73 1.487 . S
C71 C68 1.382 . S
C71 C72 1.387 . S
C71 H88 0.930 . S
C72 C70 1.381 . S
C72 C71 1.387 . S
C72 H89 0.931 . S
C73 C66 1.399 1_655 S
C73 C70 1.487 . S
C73 N90 1.343 . S
H74 C46 0.931 . S
H75 C48 0.930 . S
H76 C50 0.930 . S
H77 C51 0.931 . S
H78 C53 0.931 . S
H79 C55 0.930 . S
H80 C57 0.930 . S
H81 C58 0.931 . S
H82 C60 0.931 . S
H83 C62 0.930 . S
H84 C64 0.930 . S
H85 C65 0.931 . S
H86 C67 0.931 . S
H87 C69 0.930 . S
H88 C71 0.930 . S
H89 C72 0.931 . S
N90 C52 1.343 . S
N90 C73 1.343 . S
N91 C59 1.343 . S
N91 C66 1.343 . S
O92 Cd93 2.223 1_655 S
O92 C100 1.315 . S
Cd93 O92 2.223 1_455 S
Cd93 O96 2.297 1_455 S
Cd93 O97 2.439 1_455 S
Cd93 O103 2.240 1_565 S
Cd94 O95 2.240 1_545 S
Cd94 O102 2.223 1_655 S
Cd94 O104 2.297 1_655 S
Cd94 O105 2.439 1_655 S
O95 Cd94 2.240 1_565 S
O95 C100 1.279 . S
O96 Cd93 2.297 1_655 S
O96 C98 1.247 . S
O97 Cd93 2.439 1_655 S
O97 C98 1.208 . S
C98 O96 1.247 . S
C98 O97 1.208 . S
C99 O104 1.247 . S
C99 O105 1.208 . S
C100 O92 1.315 . S
C100 O95 1.279 . S
C101 O102 1.315 . S
C101 O103 1.279 . S
O102 Cd94 2.223 1_455 S
O102 C101 1.315 . S
O103 Cd93 2.240 1_545 S
O103 C101 1.279 . S
O104 Cd94 2.297 1_455 S
O104 C99 1.247 . S
O105 Cd94 2.439 1_455 S
O105 C99 1.208 . S
O106 Cd107 2.223 1_655 S
O106 C114 1.315 . S
Cd107 O106 2.223 1_455 S
Cd107 O110 2.297 1_455 S
Cd107 O111 2.439 1_455 S
Cd107 O117 2.240 1_545 S
Cd108 O109 2.240 1_565 S
Cd108 O116 2.223 1_655 S
Cd108 O118 2.297 1_655 S
Cd108 O119 2.439 1_655 S
O109 Cd108 2.240 1_545 S
O109 C114 1.279 . S
O110 Cd107 2.297 1_655 S
O110 C112 1.247 . S
O111 Cd107 2.439 1_655 S
O111 C112 1.208 . S
C112 O110 1.247 . S
C112 O111 1.208 . S
C113 O118 1.247 . S
C113 O119 1.208 . S
C114 O106 1.315 . S
C114 O109 1.279 . S
C115 O116 1.315 . S
C115 O117 1.279 . S
O116 Cd108 2.223 1_455 S
O116 C115 1.315 . S
O117 Cd107 2.240 1_565 S
O117 C115 1.279 . S
O118 Cd108 2.297 1_455 S
O118 C113 1.247 . S
O119 Cd108 2.439 1_455 S
O119 C113 1.208 . S
H120 C126 0.930 . S
H121 C130 0.930 . S
H122 C135 0.929 . S
H123 C133 0.929 . S
H124 C128 0.929 . S
H125 C134 0.929 . S
C126 H120 0.930 . S
C126 C127 1.367 1_565 S
C126 C134 1.378 . S
C127 C126 1.367 1_545 S
C127 C135 1.433 . S
C128 H124 0.929 . S
C128 C130 1.378 . S
C128 C132 1.350 . S
C129 C132 1.463 . S
C129 C134 1.350 1_545 S
C129 N137 1.427 . S
C130 H121 0.930 . S
C130 C128 1.378 . S
C130 C131 1.367 . S
C131 C130 1.367 . S
C131 C133 1.433 1_545 S
C132 C128 1.350 . S
C132 C129 1.463 . S
C132 N136 1.427 1_545 S
C133 H123 0.929 . S
C133 C131 1.433 1_565 S
C133 N136 1.384 . S
C134 H125 0.929 . S
C134 C126 1.378 . S
C134 C129 1.350 1_565 S
C135 H122 0.929 . S
C135 C127 1.433 . S
C135 N137 1.384 . S
N136 C132 1.427 1_565 S
N136 C133 1.384 . S
N137 C129 1.427 . S
N137 C135 1.384 . S
H138 C144 0.930 . S
H139 C148 0.930 . S
H140 C153 0.929 . S
H141 C151 0.929 1_455 S
H142 C146 0.929 . S
H143 C152 0.929 . S
C144 H138 0.930 . S
C144 C145 1.367 1_455 S
C144 C152 1.378 . S
C145 C144 1.367 1_655 S
C145 C153 1.433 . S
C146 H142 0.929 . S
C146 C148 1.378 . S
C146 C150 1.350 . S
C147 C150 1.463 . S
C147 C152 1.350 1_655 S
C147 N155 1.427 . S
C148 H139 0.930 . S
C148 C146 1.378 . S
C148 C149 1.367 . S
C149 C148 1.367 . S
C149 C151 1.433 . S
C150 C146 1.350 . S
C150 C147 1.463 . S
C150 N154 1.427 1_655 S
C151 H141 0.929 1_655 S
C151 C149 1.433 . S
C151 N154 1.384 1_655 S
C152 H143 0.929 . S
C152 C144 1.378 . S
C152 C147 1.350 1_455 S
C153 H140 0.929 . S
C153 C145 1.433 . S
C153 N155 1.384 . S
N154 C150 1.427 1_455 S
N154 C151 1.384 1_455 S
N155 C147 1.427 . S
N155 C153 1.384 . S
H156 C162 0.930 . S
H157 C166 0.930 . S
H158 C171 0.929 . S
H159 C169 0.929 . S
H160 C164 0.929 . S
H161 C170 0.929 . S
C162 H156 0.930 . S
C162 C163 1.367 . S
C162 C170 1.378 . S
C163 C162 1.367 . S
C163 C171 1.433 1_565 S
C164 H160 0.929 . S
C164 C166 1.378 . S
C164 C168 1.350 1_545 S
C165 C168 1.463 . S
C165 C170 1.350 . S
C165 N173 1.427 1_565 S
C166 H157 0.930 . S
C166 C164 1.378 . S
C166 C167 1.367 1_545 S
C167 C166 1.367 1_565 S
C167 C169 1.433 . S
C168 C164 1.350 1_565 S
C168 C165 1.463 . S
C168 N172 1.427 . S
C169 H159 0.929 . S
C169 C167 1.433 . S
C169 N172 1.384 . S
C170 H161 0.929 . S
C170 C162 1.378 . S
C170 C165 1.350 . S
C171 H158 0.929 . S
C171 C163 1.433 1_545 S
C171 N173 1.384 . S
N172 C168 1.427 . S
N172 C169 1.384 . S
N173 C165 1.427 1_545 S
N173 C171 1.384 . S
H174 C180 0.930 . S
H175 C184 0.933 . S
H176 C189 0.929 . S
H177 C187 0.929 . S
H178 C182 0.929 1_655 S
H179 C188 0.929 . S
C180 H174 0.930 . S
C180 C181 1.367 . S
C180 C188 1.378 . S
C181 C180 1.367 . S
C181 C189 1.433 1_455 S
C182 H178 0.929 1_455 S
C182 C184 1.378 . S
C182 C186 1.350 . S
C183 C186 1.463 . S
C183 C188 1.350 . S
C183 N191 1.427 1_455 S
C184 H175 0.933 . S
C184 C182 1.378 . S
C184 C185 1.367 . S
C185 C184 1.367 . S
C185 C187 1.433 . S
C186 C182 1.350 . S
C186 C183 1.463 . S
C186 N190 1.427 . S
C187 H177 0.929 . S
C187 C185 1.433 . S
C187 N190 1.384 . S
C188 H179 0.929 . S
C188 C180 1.378 . S
C188 C183 1.350 . S
C189 H176 0.929 . S
C189 C181 1.433 1_655 S
C189 N191 1.384 . S
N190 C186 1.427 . S
N190 C187 1.384 . S
N191 C183 1.427 1_655 S
N191 C189 1.384 . S
H192 C198 0.930 . S
H193 C202 0.930 . S
H194 C207 0.929 . S
H195 C205 0.929 . S
H196 C200 0.929 . S
H197 C206 0.929 . S
C198 H192 0.930 . S
C198 C199 1.367 . S
C198 C206 1.378 . S
C199 C198 1.367 . S
C199 C207 1.433 1_565 S
C200 H196 0.929 . S
C200 C202 1.378 . S
C200 C204 1.350 . S
C201 C204 1.463 . S
C201 C206 1.350 . S
C201 N209 1.427 . S
C202 H193 0.930 . S
C202 C200 1.378 . S
C202 C203 1.367 . S
C203 C202 1.367 . S
C203 C205 1.433 . S
C204 C200 1.350 . S
C204 C201 1.463 . S
C204 N208 1.427 . S
C205 H195 0.929 . S
C205 C203 1.433 . S
C205 N208 1.384 . S
C206 H197 0.929 . S
C206 C198 1.378 . S
C206 C201 1.350 . S
C207 H194 0.929 . S
C207 C199 1.433 1_545 S
C207 N209 1.384 1_545 S
N208 C204 1.427 . S
N208 C205 1.384 . S
N209 C201 1.427 . S
N209 C207 1.384 1_565 S
H210 C216 0.931 . S
H211 C220 0.930 . S
H212 C225 0.929 . S
H213 C223 0.929 . S
H214 C218 0.929 . S
H215 C224 0.929 . S
C216 H210 0.931 . S
C216 C217 1.367 . S
C216 C224 1.378 . S
C217 C216 1.367 . S
C217 C225 1.433 . S
C218 H214 0.929 . S
C218 C220 1.378 . S
C218 C222 1.350 . S
C219 C222 1.463 . S
C219 C224 1.350 . S
C219 N227 1.427 . S
C220 H211 0.930 . S
C220 C218 1.378 . S
C220 C221 1.367 . S
C221 C220 1.367 . S
C221 C223 1.433 . S
C222 C218 1.350 . S
C222 C219 1.463 . S
C222 N226 1.427 . S
C223 H213 0.929 . S
C223 C221 1.433 . S
C223 N226 1.384 . S
C224 H215 0.929 . S
C224 C216 1.378 . S
C224 C219 1.350 . S
C225 H212 0.929 . S
C225 C217 1.433 . S
C225 N227 1.384 . S
N226 C222 1.427 . S
N226 C223 1.384 . S
N227 C219 1.427 . S
N227 C225 1.384 . S
H228 C234 0.930 . S
H229 C238 0.930 . S
H230 C243 0.929 . S
H231 C241 0.929 . S
H232 C236 0.929 . S
H233 C242 0.929 . S
C234 H228 0.930 . S
C234 C235 1.367 . S
C234 C242 1.378 . S
C235 C234 1.367 . S
C235 C243 1.433 . S
C236 H232 0.929 . S
C236 C238 1.378 . S
C236 C240 1.350 . S
C237 C240 1.463 . S
C237 C242 1.350 . S
C237 N245 1.427 . S
C238 H229 0.930 . S
C238 C236 1.378 . S
C238 C239 1.367 . S
C239 C238 1.367 . S
C239 C241 1.433 . S
C240 C236 1.350 . S
C240 C237 1.463 . S
C240 N244 1.427 . S
C241 H231 0.929 . S
C241 C239 1.433 . S
C241 N244 1.384 . S
C242 H233 0.929 . S
C242 C234 1.378 . S
C242 C237 1.350 . S
C243 H230 0.929 . S
C243 C235 1.433 . S
C243 N245 1.384 . S
N244 C240 1.427 . S
N244 C241 1.384 . S
N245 C237 1.427 . S
N245 C243 1.384 . S
H246 C252 0.930 . S
H247 C256 0.930 . S
H248 C261 0.929 1_455 S
H249 C259 0.929 . S
H250 C254 0.929 . S
H251 C260 0.929 . S
C252 H246 0.930 . S
C252 C253 1.367 . S
C252 C260 1.378 . S
C253 C252 1.367 . S
C253 C261 1.433 . S
C254 H250 0.929 . S
C254 C256 1.378 . S
C254 C258 1.350 . S
C255 C258 1.463 . S
C255 C260 1.350 . S
C255 N263 1.427 . S
C256 H247 0.930 . S
C256 C254 1.378 . S
C256 C257 1.367 . S
C257 C256 1.367 . S
C257 C259 1.433 . S
C258 C254 1.350 . S
C258 C255 1.463 . S
C258 N262 1.427 . S
C259 H249 0.929 . S
C259 C257 1.433 . S
C259 N262 1.384 . S
C260 H251 0.929 . S
C260 C252 1.378 . S
C260 C255 1.350 . S
C261 H248 0.929 1_655 S
C261 C253 1.433 . S
C261 N263 1.384 . S
N262 C258 1.427 . S
N262 C259 1.384 . S
N263 C255 1.427 . S
N263 C261 1.384 . S
C131 C101 1.605 . S
C127 C15 1.602 . S
C149 C112 1.538 . S
C145 C68 1.597 . S
C167 C100 1.605 . S
C163 C8 1.603 1_565 S
C185 C113 1.532 . S
C181 C47 1.601 1_455 S
C203 C115 1.606 . S
C199 C22 1.606 . S
C221 C99 1.527 . S
C217 C61 1.595 . S
C239 C114 1.606 . S
C235 C1 1.610 1_545 S
C253 C54 1.601 1_655 S
C257 C98 1.535 . S
