# Generated by pormake.
# Topology anh, (6,3)-cn, num edge types: 1
# Building blocks:
#     Node 0, Type 0, BuildingBlock: GEDQOX_clean_sbu_0, # of connection points: 6
#     Node 1, Type 0, BuildingBlock: GEDQOX_clean_sbu_0, # of connection points: 6
#     Node 2, Type 0, BuildingBlock: GEDQOX_clean_sbu_0, # of connection points: 6
#     Node 3, Type 1, BuildingBlock: QEWDON_clean_linker_0, # of connection points: 3
#     Node 4, Type 1, BuildingBlock: QEWDON_clean_linker_0, # of connection points: 3
#     Node 5, Type 1, BuildingBlock: QEWDON_clean_linker_0, # of connection points: 3
#     Node 6, Type 1, BuildingBlock: QEWDON_clean_linker_0, # of connection points: 3
#     Node 7, Type 1, BuildingBlock: QEWDON_clean_linker_0, # of connection points: 3
#     Node 8, Type 1, BuildingBlock: QEWDON_clean_linker_0, # of connection points: 3
#     Edge 9, Type (0, 1), None
#     Edge 10, Type (0, 1), None
#     Edge 11, Type (0, 1), None
#     Edge 12, Type (0, 1), None
#     Edge 13, Type (0, 1), None
#     Edge 14, Type (0, 1), None
#     Edge 15, Type (0, 1), None
#     Edge 16, Type (0, 1), None
#     Edge 17, Type (0, 1), None
#     Edge 18, Type (0, 1), None
#     Edge 19, Type (0, 1), None
#     Edge 20, Type (0, 1), None
#     Edge 21, Type (0, 1), None
#     Edge 22, Type (0, 1), None
#     Edge 23, Type (0, 1), None
#     Edge 24, Type (0, 1), None
#     Edge 25, Type (0, 1), None
#     Edge 26, Type (0, 1), None
# Relax obj value: 0.334
# Max RMSD: 0.260
# Mean RMSD: 0.140
data_MOF--net-anh--node1-GEDQOX_clean_sbu_0--node2-QEWDON_clean_linker_0--edge1-none
_symmetry_space_group_name_H-M    P1
_symmetry_Int_Tables_number       1
_symmetry_cell_setting            triclinic
loop_
_symmetry_equiv_pos_as_xyz
'x, y, z'
_cell_length_a     15.051179
_cell_length_b     14.534671
_cell_length_c     21.96233
_cell_angle_alpha  97.795691
_cell_angle_beta   94.353901
_cell_angle_gamma 84.072524
loop_
_atom_site_label
_atom_site_type_symbol
_atom_site_fract_x
_atom_site_fract_y
_atom_site_fract_z
_atom_type_partial_charge
Nd0 Nd 0.22143 0.68229 0.11436 0.0
Nd1 Nd 0.22738 0.49275 0.14802 0.0
C2 C 0.25189 0.84323 0.0819 0.0
C3 C 0.31212 0.91146 0.1136 0.0
C4 C 0.39557 0.91695 0.09053 0.0
C5 C 0.45893 0.96961 0.12487 0.0
C6 C 0.43998 1.01915 0.18282 0.0
C7 C 0.35539 1.01606 0.20505 0.0
C8 C 0.29217 0.9628 0.17088 0.0
C9 C 0.19231 0.67948 0.23577 0.0
C10 C 0.4246 0.56813 0.14453 0.0
C11 C 1.18751 0.34613 0.19477 0.0
C12 C 1.10127 0.30464 0.18614 0.0
C13 C 1.05042 0.30445 0.23709 0.0
C14 C 0.95929 0.29136 0.22861 0.0
C15 C 0.91792 0.27727 0.16894 0.0
C16 C 0.97083 0.26931 0.11813 0.0
C17 C 1.06138 0.28335 0.12657 0.0
C18 C 0.24596 0.49988 0.02622 0.0
C19 C 1.02812 0.59225 0.09726 0.0
O20 O 0.29145 0.76375 0.05755 0.0
O21 O 1.18128 0.83244 0.11044 0.0
O22 O 1.14919 0.73641 0.20138 0.0
O23 O 0.25272 0.62829 0.20709 0.0
O24 O 0.37895 0.63633 0.11711 0.0
O25 O 0.3794 0.50889 0.16819 0.0
O26 O 1.18397 0.42972 0.22592 0.0
O27 O 0.23428 0.33917 0.14618 0.0
O28 O 0.2899 0.43569 0.0553 0.0
O29 O 0.1916 0.54999 0.05946 0.0
O30 O 1.07038 0.5333 0.13364 0.0
O31 O 1.07661 0.64931 0.0739 0.0
H32 H 0.41315 0.8777 0.04685 0.0
H33 H 0.52375 0.96955 0.10656 0.0
H34 H 0.33796 1.05472 0.2489 0.0
H35 H 0.22858 0.96011 0.19026 0.0
H36 H 1.07984 0.32098 0.28332 0.0
H37 H 0.92011 0.29826 0.26859 0.0
H38 H 0.94137 0.25628 0.07158 0.0
H39 H 1.09845 0.28321 0.08617 0.0
Nd40 Nd 0.56923 0.12808 0.50566 0.0
Nd41 Nd 0.751 0.122 0.48405 0.0
C42 C 0.41069 0.09569 0.5343 0.0
C43 C 0.35443 1.02581 0.50105 0.0
C44 C 0.33829 0.94882 0.52927 0.0
C45 C 0.29829 0.87433 0.49517 0.0
C46 C 0.27256 0.87598 0.43233 0.0
C47 C 0.28751 0.95367 0.4043 0.0
C48 C 0.32832 1.02775 0.43823 0.0
C49 C 0.59151 0.1423 0.38421 0.0
C50 C 0.68089 0.92164 0.4674 0.0
C51 C 0.9101 0.15495 0.45506 0.0
C52 C 0.94781 0.24511 0.46142 0.0
C53 C 0.97137 0.27821 0.40846 0.0
C54 C 0.98222 0.37244 0.40946 0.0
C55 C 0.97157 0.43473 0.46382 0.0
C56 C 0.95481 0.39995 0.51805 0.0
C57 C 0.94234 0.30606 0.51679 0.0
C58 C 0.7224 0.11393 0.60648 0.0
C59 C 0.64136 0.32691 0.51445 0.0
O60 O 0.48446 0.06131 0.56179 0.0
O61 O 0.42299 0.16559 0.50518 0.0
O62 O 0.52978 0.19018 0.41594 0.0
O63 O 0.637 0.08539 0.41551 0.0
O64 O 0.61367 0.96682 0.49799 0.0
O65 O 0.74096 0.96886 0.44851 0.0
O66 O 0.84183 0.14779 0.4149 0.0
O67 O 0.8973 0.12256 0.50601 0.0
O68 O 0.77809 1.05607 0.57468 0.0
O69 O 0.6814 0.17034 0.57301 0.0
O70 O 0.7031 0.27917 0.48038 0.0
O71 O 0.58847 0.28108 0.54206 0.0
H72 H 0.35937 0.94489 0.57722 0.0
H73 H 0.28837 0.81486 0.51789 0.0
H74 H 0.26698 0.9577 0.3563 0.0
H75 H 0.34112 0.08544 0.4147 0.0
H76 H 0.97488 0.23249 0.36526 0.0
H77 H 0.99379 0.39742 0.36681 0.0
H78 H 0.94821 0.44577 0.561 0.0
H79 H 0.92341 0.28269 0.55836 0.0
Nd80 Nd 0.69086 0.56792 0.81823 0.0
Nd81 Nd 0.85003 0.51695 0.77524 0.0
C82 C 0.53245 0.6545 0.84282 0.0
C83 C 0.48341 0.74615 0.83552 0.0
C84 C 0.43914 0.76278 0.77881 0.0
C85 C 0.36572 0.82982 0.77769 0.0
C86 C 0.33183 0.87126 0.83387 0.0
C87 C 0.3928 0.87838 0.88578 0.0
C88 C 0.46659 0.81149 0.88773 0.0
C89 C 0.79831 0.52352 0.91865 0.0
C90 C 0.81977 0.73294 0.81152 0.0
C91 C 0.99504 0.43043 0.72323 0.0
C92 C 1.07249 0.36697 0.73852 0.0
C93 C 1.07419 0.32392 0.79201 0.0
C94 C 1.15502 0.31199 0.82675 0.0
C95 C 0.228 0.35511 0.81086 0.0
C96 C 0.23349 0.36176 0.74797 0.0
C97 C 1.15324 0.37363 0.71219 0.0
C98 C 0.72478 0.56473 0.68241 0.0
C99 C 0.74295 0.34743 0.79274 0.0
O100 O 0.54632 0.59596 0.79317 0.0
O101 O 0.60003 0.65309 0.88344 0.0
O102 O 0.72187 0.49149 0.90147 0.0
O103 O 0.82415 0.56751 0.87754 0.0
O104 O 0.73664 0.71128 0.80118 0.0
O105 O 0.88372 0.66451 0.81394 0.0
O106 O 0.99224 0.51362 0.75467 0.0
O107 O 0.9178 0.39653 0.71784 0.0
O108 O 0.79946 0.60135 0.69503 0.0
O109 O 0.71574 0.51189 0.72155 0.0
O110 O 0.82181 0.37813 0.8071 0.0
O111 O 0.67459 0.41049 0.78516 0.0
H112 H 0.45382 0.7173 0.73678 0.0
H113 H 0.32387 0.83004 0.7353 0.0
H114 H 0.37139 0.91614 0.92898 0.0
H115 H 0.5024 0.80341 0.93166 0.0
H116 H 1.01263 0.31369 0.81171 0.0
H117 H 1.15213 0.29471 0.87297 0.0
H118 H 0.29279 0.38544 0.7324 0.0
H119 H 1.15342 0.40292 0.66938 0.0
H120 H 0.68583 0.22554 0.31114 0.0
C121 C 0.63746 0.18259 0.28534 0.0
C122 C 0.58518 0.13196 0.31659 0.0
C123 C 0.62431 0.18113 0.22117 0.0
H124 H 0.48028 1.03981 0.30794 0.0
C125 C 0.52051 0.07858 0.28344 0.0
C126 C 0.50787 0.07522 0.21902 0.0
C127 C 0.55992 0.12707 0.18866 0.0
C128 C 0.67604 0.23637 0.18699 0.0
H129 H 0.5498 0.12608 0.1392 0.0
C130 C 0.76966 0.23387 0.19646 0.0
C131 C 0.81913 0.27887 0.15941 0.0
C132 C 0.63202 0.28688 0.14138 0.0
H133 H 0.55982 0.29127 0.1338 0.0
C134 C 0.68068 0.33139 0.10458 0.0
H135 H 0.80414 0.194 0.23091 0.0
C136 C 0.77356 0.32729 0.11327 0.0
H137 H 0.80957 0.36371 0.08459 0.0
H138 H 0.64626 0.36952 0.06931 0.0
H139 H 0.71367 0.67854 0.59421 0.0
C140 C 0.69067 0.61108 0.57701 0.0
C141 C 0.68733 0.54649 0.61849 0.0
C142 C 0.67053 0.58694 0.51346 0.0
H143 H 0.6599 0.40753 0.629 0.0
C144 C 0.66112 0.45759 0.59699 0.0
C145 C 0.6475 0.42837 0.53409 0.0
C146 C 0.65142 0.4934 0.4922 0.0
C147 C 0.68053 0.65632 0.46981 0.0
H148 H 0.6397 0.47064 0.44352 0.0
C149 C 0.6648 0.75464 0.48732 0.0
C150 C 0.68683 0.81847 0.44875 0.0
C151 C 0.71423 0.62456 0.41181 0.0
H152 H 0.72993 0.55099 0.39698 0.0
C153 C 0.73339 0.68734 0.3731 0.0
H154 H 0.63875 0.78161 0.53151 0.0
C155 C 0.7209 0.78306 0.39155 0.0
H156 H 0.73836 0.82975 0.36079 0.0
H157 H 0.76051 0.66154 0.32908 0.0
H158 H 0.20352 0.65634 0.97602 0.0
C159 C 0.21782 0.59608 0.94222 0.0
C160 C 0.24773 0.50917 0.9611 0.0
C161 C 0.20367 0.60594 0.88002 0.0
H162 H 0.28233 0.36313 0.9323 0.0
C163 C 0.26505 0.43121 0.91739 0.0
C164 C 0.24727 0.43894 0.8545 0.0
C165 C 0.21959 0.52793 0.83635 0.0
C166 C 1.18151 0.69948 0.86068 0.0
H167 H 0.20549 0.53664 0.78827 0.0
C168 C 0.24498 0.76338 0.87523 0.0
C169 C 0.2434 0.84122 0.84327 0.0
C170 C 1.10748 0.72028 0.82051 0.0
H171 H 1.05781 0.67121 0.80837 0.0
C172 C 1.09913 0.80376 0.79434 0.0
H173 H 0.30354 0.74334 0.90409 0.0
C174 C 1.168 0.86306 0.80431 0.0
H175 H 1.16576 0.92144 0.7782 0.0
H176 H 1.0422 0.8193 0.763 0.0
H177 H 1.08027 0.61373 0.30579 0.0
C178 C 1.12215 0.66364 0.33178 0.0
C179 C 0.18956 0.69799 0.30291 0.0
C180 C 1.10531 0.69788 0.39315 0.0
H181 H 0.29098 0.79436 0.31294 0.0
C182 C 0.24081 0.76585 0.33592 0.0
C183 C 0.22444 0.79983 0.39753 0.0
C184 C 1.15669 0.76527 0.42549 0.0
C185 C 1.0345 0.66429 0.42479 0.0
H186 H 1.14241 0.79226 0.47259 0.0
C187 C 1.03367 0.56872 0.42698 0.0
C188 C 0.97327 0.53607 0.4628 0.0
C189 C 0.97332 0.72787 0.45798 0.0
H190 H 0.97293 0.80221 0.45687 0.0
C191 C 0.91335 0.69599 0.49382 0.0
H192 H 1.08264 0.52016 0.40271 0.0
C193 C 0.91347 0.60068 0.49654 0.0
H194 H 0.86582 0.57753 0.52423 0.0
H195 H 0.86688 0.74524 0.51971 0.0
H196 H 0.77346 0.98955 0.68637 0.0
C197 C 0.76109 0.05982 0.70976 0.0
C198 C 0.73034 0.13217 0.67478 0.0
C199 C 0.78063 0.07805 0.77381 0.0
H200 H 0.69475 0.27983 0.67723 0.0
C201 C 0.71604 0.22407 0.70447 0.0
C202 C 0.7385 0.24639 0.76764 0.0
C203 C 0.77098 0.17281 0.80207 0.0
C204 C 0.82097 0.99942 0.80886 0.0
H205 H 0.78945 0.18984 0.8506 0.0
C206 C 0.79567 0.90622 0.79513 0.0
C207 C 0.84128 0.83243 0.82518 0.0
C208 C 0.89082 1.01634 0.85407 0.0
H209 H 0.91413 0.08501 0.86508 0.0
C210 C 0.93442 0.94439 0.88428 0.0
H211 H 0.74214 0.89076 0.76061 0.0
C212 C 0.91038 0.85355 0.86987 0.0
H213 H 0.946 0.7994 0.89414 0.0
H214 H 0.98839 0.95892 0.91861 0.0
H215 H 0.68592 0.53535 0.00941 0.0
C216 C 0.75241 0.55021 0.02772 0.0
C217 C 0.82123 0.54677 -0.01358 0.0
C218 C 0.76759 0.56997 0.09197 0.0
H219 H 0.96081 0.56248 0.97827 0.0
C220 C 0.90852 0.5653 0.00999 0.0
C221 C 0.9301 0.58227 0.07415 0.0
C222 C 0.8588 0.58446 0.1145 0.0
C223 C 0.69032 0.56559 0.13448 0.0
H224 H 0.87514 0.59895 0.16341 0.0
C225 C 0.59441 0.57825 0.11705 0.0
C226 C 0.52719 0.56298 0.15783 0.0
C227 C 0.71393 0.54002 0.19356 0.0
H228 H 0.78314 0.52599 0.20935 0.0
C229 C 0.64958 0.52641 0.23296 0.0
H230 H 0.57216 0.59764 0.07216 0.0
C231 C 0.55863 0.537 0.21548 0.0
H232 H 0.51204 0.52467 0.24811 0.0
H233 H 0.67077 0.50542 0.27766 0.0
loop_
_geom_bond_atom_site_label_1
_geom_bond_atom_site_label_2
_geom_bond_distance
_geom_bond_site_symmetry_2
_ccdc_geom_bond_type
Nd0 C2 2.836 . S
Nd0 O20 2.500 . S
Nd0 O21 2.492 . S
Nd0 O22 2.487 . S
Nd0 O23 2.682 . S
Nd0 O24 2.410 . S
Nd0 O29 2.414 . S
Nd0 O31 2.424 1_455 S
Nd1 C11 2.836 . S
Nd1 O23 2.414 1_655 S
Nd1 O25 2.424 1_655 S
Nd1 O26 2.500 . S
Nd1 O27 2.492 . S
Nd1 O28 2.487 . S
Nd1 O29 2.682 1_655 S
Nd1 O30 2.410 . S
C2 Nd0 2.836 . S
C2 C3 1.498 . S
C2 O20 1.258 . S
C2 O21 1.239 . S
C3 C2 1.498 . S
C3 C4 1.366 . S
C3 C8 1.407 . S
C4 C3 1.366 . S
C4 C5 1.392 . S
C4 H32 0.930 . S
C5 C4 1.392 . S
C5 C6 1.398 . S
C5 H33 0.929 . S
C6 C5 1.398 . S
C6 C7 1.352 . S
C7 C6 1.352 . S
C7 C8 1.384 . S
C7 H34 0.930 1_565 S
C8 C3 1.407 . S
C8 C7 1.384 . S
C8 H35 0.929 . S
C9 O22 1.241 . S
C9 O23 1.273 . S
C10 O24 1.251 . S
C10 O25 1.268 . S
C11 Nd1 2.836 . S
C11 C12 1.498 . S
C11 O26 1.258 . S
C11 O27 1.239 . S
C12 C11 1.498 . S
C12 C13 1.366 . S
C12 C17 1.407 . S
C13 C12 1.366 . S
C13 C14 1.392 . S
C13 H36 0.930 . S
C14 C13 1.392 . S
C14 C15 1.398 . S
C14 H37 0.929 . S
C15 C14 1.398 . S
C15 C16 1.352 . S
C16 C15 1.352 . S
C16 C17 1.384 . S
C16 H38 0.930 . S
C17 C12 1.407 . S
C17 C16 1.384 . S
C17 H39 0.929 . S
C18 O28 1.241 1_455 S
C18 O29 1.273 . S
C19 O30 1.251 . S
C19 O31 1.268 . S
O20 Nd0 2.500 . S
O20 C2 1.258 . S
O21 Nd0 2.492 . S
O21 C2 1.239 . S
O22 Nd0 2.487 . S
O22 C9 1.241 . S
O23 Nd0 2.682 . S
O23 Nd1 2.414 1_455 S
O23 C9 1.273 . S
O24 Nd0 2.410 . S
O24 C10 1.251 . S
O25 Nd1 2.424 1_455 S
O25 C10 1.268 . S
O26 Nd1 2.500 . S
O26 C11 1.258 . S
O27 Nd1 2.492 . S
O27 C11 1.239 . S
O28 Nd1 2.487 . S
O28 C18 1.241 1_655 S
O29 Nd0 2.414 . S
O29 Nd1 2.682 1_455 S
O29 C18 1.273 . S
O30 Nd1 2.410 . S
O30 C19 1.251 . S
O31 Nd0 2.424 1_655 S
O31 C19 1.268 . S
H32 C4 0.930 . S
H33 C5 0.929 . S
H34 C7 0.930 1_545 S
H35 C8 0.929 . S
H36 C13 0.930 . S
H37 C14 0.929 . S
H38 C16 0.930 . S
H39 C17 0.929 . S
Nd40 C42 2.836 1_545 S
Nd40 O60 2.500 1_545 S
Nd40 O61 2.492 1_545 S
Nd40 O62 2.487 . S
Nd40 O63 2.682 . S
Nd40 O64 2.410 1_545 S
Nd40 O69 2.414 . S
Nd40 O71 2.424 . S
Nd41 C51 2.836 . S
Nd41 O63 2.414 . S
Nd41 O65 2.424 1_545 S
Nd41 O66 2.500 . S
Nd41 O67 2.492 . S
Nd41 O68 2.487 . S
Nd41 O69 2.682 . S
Nd41 O70 2.410 . S
C42 Nd40 2.836 1_565 S
C42 C43 1.498 . S
C42 O60 1.258 . S
C42 O61 1.239 . S
C43 C42 1.498 . S
C43 C44 1.366 . S
C43 C48 1.407 . S
C44 C43 1.366 . S
C44 C45 1.392 . S
C44 H72 0.930 . S
C45 C44 1.392 . S
C45 C46 1.398 . S
C45 H73 0.929 . S
C46 C45 1.398 . S
C46 C47 1.352 . S
C47 C46 1.352 . S
C47 C48 1.384 . S
C47 H74 0.930 . S
C48 C43 1.407 . S
C48 C47 1.384 . S
C48 H75 0.929 . S
C49 O62 1.241 . S
C49 O63 1.273 . S
C50 O64 1.251 . S
C50 O65 1.268 . S
C51 Nd41 2.836 . S
C51 C52 1.498 . S
C51 O66 1.258 . S
C51 O67 1.239 . S
C52 C51 1.498 . S
C52 C53 1.366 . S
C52 C57 1.407 . S
C53 C52 1.366 . S
C53 C54 1.392 . S
C53 H76 0.930 . S
C54 C53 1.392 . S
C54 C55 1.398 . S
C54 H77 0.929 . S
C55 C54 1.398 . S
C55 C56 1.352 . S
C56 C55 1.352 . S
C56 C57 1.384 . S
C56 H78 0.930 . S
C57 C52 1.407 . S
C57 C56 1.384 . S
C57 H79 0.929 . S
C58 O68 1.241 . S
C58 O69 1.273 . S
C59 O70 1.251 . S
C59 O71 1.268 . S
O60 Nd40 2.500 1_565 S
O60 C42 1.258 . S
O61 Nd40 2.492 1_565 S
O61 C42 1.239 . S
O62 Nd40 2.487 . S
O62 C49 1.241 . S
O63 Nd40 2.682 . S
O63 Nd41 2.414 . S
O63 C49 1.273 . S
O64 Nd40 2.410 1_565 S
O64 C50 1.251 . S
O65 Nd41 2.424 1_565 S
O65 C50 1.268 . S
O66 Nd41 2.500 . S
O66 C51 1.258 . S
O67 Nd41 2.492 . S
O67 C51 1.239 . S
O68 Nd41 2.487 . S
O68 C58 1.241 . S
O69 Nd40 2.414 . S
O69 Nd41 2.682 . S
O69 C58 1.273 . S
O70 Nd41 2.410 . S
O70 C59 1.251 . S
O71 Nd40 2.424 . S
O71 C59 1.268 . S
H72 C44 0.930 . S
H73 C45 0.929 . S
H74 C47 0.930 . S
H75 C48 0.929 . S
H76 C53 0.930 . S
H77 C54 0.929 . S
H78 C56 0.930 . S
H79 C57 0.929 . S
Nd80 C82 2.836 . S
Nd80 O100 2.500 . S
Nd80 O101 2.492 . S
Nd80 O102 2.487 . S
Nd80 O103 2.682 . S
Nd80 O104 2.410 . S
Nd80 O109 2.414 . S
Nd80 O111 2.424 . S
Nd81 C91 2.836 . S
Nd81 O103 2.414 . S
Nd81 O105 2.424 . S
Nd81 O106 2.500 . S
Nd81 O107 2.492 . S
Nd81 O108 2.487 . S
Nd81 O109 2.682 . S
Nd81 O110 2.410 . S
C82 Nd80 2.836 . S
C82 C83 1.498 . S
C82 O100 1.258 . S
C82 O101 1.239 . S
C83 C82 1.498 . S
C83 C84 1.366 . S
C83 C88 1.407 . S
C84 C83 1.366 . S
C84 C85 1.392 . S
C84 H112 0.930 . S
C85 C84 1.392 . S
C85 C86 1.398 . S
C85 H113 0.929 . S
C86 C85 1.398 . S
C86 C87 1.352 . S
C87 C86 1.352 . S
C87 C88 1.384 . S
C87 H114 0.930 . S
C88 C83 1.407 . S
C88 C87 1.384 . S
C88 H115 0.929 . S
C89 O102 1.241 . S
C89 O103 1.273 . S
C90 O104 1.251 . S
C90 O105 1.268 . S
C91 Nd81 2.836 . S
C91 C92 1.498 . S
C91 O106 1.258 . S
C91 O107 1.239 . S
C92 C91 1.498 . S
C92 C93 1.366 . S
C92 C97 1.407 . S
C93 C92 1.366 . S
C93 C94 1.392 . S
C93 H116 0.930 . S
C94 C93 1.392 . S
C94 C95 1.398 . S
C94 H117 0.929 . S
C95 C94 1.398 . S
C95 C96 1.352 . S
C96 C95 1.352 . S
C96 C97 1.384 . S
C96 H118 0.930 . S
C97 C92 1.407 . S
C97 C96 1.384 . S
C97 H119 0.929 . S
C98 O108 1.241 . S
C98 O109 1.273 . S
C99 O110 1.251 . S
C99 O111 1.268 . S
O100 Nd80 2.500 . S
O100 C82 1.258 . S
O101 Nd80 2.492 . S
O101 C82 1.239 . S
O102 Nd80 2.487 . S
O102 C89 1.241 . S
O103 Nd80 2.682 . S
O103 Nd81 2.414 . S
O103 C89 1.273 . S
O104 Nd80 2.410 . S
O104 C90 1.251 . S
O105 Nd81 2.424 . S
O105 C90 1.268 . S
O106 Nd81 2.500 . S
O106 C91 1.258 . S
O107 Nd81 2.492 . S
O107 C91 1.239 . S
O108 Nd81 2.487 . S
O108 C98 1.241 . S
O109 Nd80 2.414 . S
O109 Nd81 2.682 . S
O109 C98 1.273 . S
O110 Nd81 2.410 . S
O110 C99 1.251 . S
O111 Nd80 2.424 . S
O111 C99 1.268 . S
H112 C84 0.930 . S
H113 C85 0.929 . S
H114 C87 0.930 . S
H115 C88 0.929 . S
H116 C93 0.930 . S
H117 C94 0.929 . S
H118 C96 0.930 . S
H119 C97 0.929 . S
H120 C121 0.949 . S
C121 H120 0.949 . S
C121 C122 1.395 . S
C121 C123 1.391 . S
C122 C121 1.395 . S
C122 C125 1.390 1_545 S
C123 C121 1.391 . S
C123 C127 1.387 . S
C123 C128 1.491 . S
H124 C125 0.950 . S
C125 C122 1.390 1_565 S
C125 H124 0.950 . S
C125 C126 1.378 . S
C126 C125 1.378 . S
C126 C127 1.409 1_565 S
C127 C123 1.387 . S
C127 C126 1.409 1_545 S
C127 H129 0.950 . S
C128 C123 1.491 . S
C128 C130 1.382 . S
C128 C132 1.404 . S
H129 C127 0.950 . S
C130 C128 1.382 . S
C130 C131 1.390 . S
C130 H135 0.949 . S
C131 C130 1.390 . S
C131 C136 1.399 . S
C132 C128 1.404 . S
C132 H133 0.950 . S
C132 C134 1.375 . S
H133 C132 0.950 . S
C134 C132 1.375 . S
C134 C136 1.382 . S
C134 H138 0.950 . S
H135 C130 0.949 . S
C136 C131 1.399 . S
C136 C134 1.382 . S
C136 H137 0.952 . S
H137 C136 0.952 . S
H138 C134 0.950 . S
H139 C140 0.949 . S
C140 H139 0.949 . S
C140 C141 1.395 . S
C140 C142 1.391 . S
C141 C140 1.395 . S
C141 C144 1.390 . S
C142 C140 1.391 . S
C142 C146 1.387 . S
C142 C147 1.491 . S
H143 C144 0.950 . S
C144 C141 1.390 . S
C144 H143 0.950 . S
C144 C145 1.378 . S
C145 C144 1.378 . S
C145 C146 1.409 . S
C146 C142 1.387 . S
C146 C145 1.409 . S
C146 H148 0.951 . S
C147 C142 1.491 . S
C147 C149 1.382 . S
C147 C151 1.404 . S
H148 C146 0.951 . S
C149 C147 1.382 . S
C149 C150 1.390 . S
C149 H154 0.949 . S
C150 C149 1.390 . S
C150 C155 1.399 . S
C151 C147 1.404 . S
C151 H152 0.950 . S
C151 C153 1.375 . S
H152 C151 0.950 . S
C153 C151 1.375 . S
C153 C155 1.382 . S
C153 H157 0.950 . S
H154 C149 0.949 . S
C155 C150 1.399 . S
C155 C153 1.382 . S
C155 H156 0.952 . S
H156 C155 0.952 . S
H157 C153 0.950 . S
H158 C159 0.949 . S
C159 H158 0.949 . S
C159 C160 1.395 1_556 S
C159 C161 1.391 . S
C160 C159 1.395 1_554 S
C160 C163 1.390 1_454 S
C161 C159 1.391 . S
C161 C165 1.387 1_455 S
C161 C166 1.491 . S
H162 C163 0.950 1_554 S
C163 C160 1.390 1_656 S
C163 H162 0.950 1_556 S
C163 C164 1.378 . S
C164 C163 1.378 . S
C164 C165 1.409 . S
C165 C161 1.387 1_655 S
C165 C164 1.409 . S
C165 H167 0.951 . S
C166 C161 1.491 . S
C166 C168 1.382 . S
C166 C170 1.404 . S
H167 C165 0.951 . S
C168 C166 1.382 . S
C168 C169 1.390 . S
C168 H173 0.949 . S
C169 C168 1.390 . S
C169 C174 1.399 . S
C170 C166 1.404 . S
C170 H171 0.950 . S
C170 C172 1.375 . S
H171 C170 0.950 . S
C172 C170 1.375 . S
C172 C174 1.382 . S
C172 H176 0.950 . S
H173 C168 0.949 . S
C174 C169 1.399 . S
C174 C172 1.382 . S
C174 H175 0.952 . S
H175 C174 0.952 . S
H176 C172 0.950 . S
H177 C178 0.949 . S
C178 H177 0.949 . S
C178 C179 1.395 1_655 S
C178 C180 1.391 1_655 S
C179 C178 1.395 1_455 S
C179 C182 1.390 . S
C180 C178 1.391 1_455 S
C180 C184 1.387 . S
C180 C185 1.491 1_455 S
H181 C182 0.950 . S
C182 C179 1.390 . S
C182 H181 0.950 . S
C182 C183 1.378 . S
C183 C182 1.378 . S
C183 C184 1.409 . S
C184 C180 1.387 . S
C184 C183 1.409 . S
C184 H186 0.951 . S
C185 C180 1.491 1_655 S
C185 C187 1.382 . S
C185 C189 1.404 . S
H186 C184 0.951 . S
C187 C185 1.382 . S
C187 C188 1.390 . S
C187 H192 0.949 . S
C188 C187 1.390 . S
C188 C193 1.399 . S
C189 C185 1.404 . S
C189 H190 0.950 . S
C189 C191 1.375 . S
H190 C189 0.950 . S
C191 C189 1.375 . S
C191 C193 1.382 . S
C191 H195 0.950 . S
H192 C187 0.949 . S
C193 C188 1.399 . S
C193 C191 1.382 . S
C193 H194 0.952 . S
H194 C193 0.952 . S
H195 C191 0.950 . S
H196 C197 0.949 1_565 S
C197 H196 0.949 1_545 S
C197 C198 1.395 . S
C197 C199 1.391 . S
C198 C197 1.395 . S
C198 C201 1.390 . S
C199 C197 1.391 . S
C199 C203 1.387 . S
C199 C204 1.491 1_545 S
H200 C201 0.950 . S
C201 C198 1.390 . S
C201 H200 0.950 . S
C201 C202 1.378 . S
C202 C201 1.378 . S
C202 C203 1.409 . S
C203 C199 1.387 . S
C203 C202 1.409 . S
C203 H205 0.951 . S
C204 C199 1.491 1_565 S
C204 C206 1.382 . S
C204 C208 1.404 . S
H205 C203 0.951 . S
C206 C204 1.382 . S
C206 C207 1.390 . S
C206 H211 0.949 . S
C207 C206 1.390 . S
C207 C212 1.399 . S
C208 C204 1.404 . S
C208 H209 0.950 1_565 S
C208 C210 1.375 . S
H209 C208 0.950 1_545 S
C210 C208 1.375 . S
C210 C212 1.382 . S
C210 H214 0.950 . S
H211 C206 0.949 . S
C212 C207 1.399 . S
C212 C210 1.382 . S
C212 H213 0.952 . S
H213 C212 0.952 . S
H214 C210 0.950 . S
H215 C216 0.949 . S
C216 H215 0.949 . S
C216 C217 1.395 . S
C216 C218 1.391 . S
C217 C216 1.395 . S
C217 C220 1.390 . S
C218 C216 1.391 . S
C218 C222 1.387 . S
C218 C223 1.491 . S
H219 C220 0.950 . S
C220 C217 1.390 . S
C220 H219 0.950 . S
C220 C221 1.378 . S
C221 C220 1.378 . S
C221 C222 1.409 . S
C222 C218 1.387 . S
C222 C221 1.409 . S
C222 H224 0.951 . S
C223 C218 1.491 . S
C223 C225 1.382 . S
C223 C227 1.404 . S
H224 C222 0.951 . S
C225 C223 1.382 . S
C225 C226 1.390 . S
C225 H230 0.949 . S
C226 C225 1.390 . S
C226 C231 1.399 . S
C227 C223 1.404 . S
C227 H228 0.950 . S
C227 C229 1.375 . S
H228 C227 0.950 . S
C229 C227 1.375 . S
C229 C231 1.382 . S
C229 H233 0.950 . S
H230 C225 0.949 . S
C231 C226 1.399 . S
C231 C229 1.382 . S
C231 H232 0.952 . S
H232 C231 0.952 . S
H233 C229 0.950 . S
C10 C226 4.887 . S
C55 C188 1.398 . S
C90 C207 2.683 . S
C19 C221 4.787 . S
C183 C46 1.550 . S
C202 C99 2.653 . S
C50 C150 2.581 . S
C95 C164 3.646 . S
C6 C126 1.947 . S
C145 C59 2.423 . S
C169 C86 2.192 . S
C15 C131 2.011 . S
C160 C18 0.477 . S
C49 C122 1.554 . S
C98 C141 1.474 . S
C198 C58 1.269 . S
C217 C89 2.136 1_554 S
C9 C179 1.649 . S
