# Generated by pormake.
# Topology tsx, (6,3)-cn, num edge types: 1
# Building blocks:
#     Node 0, Type 0, BuildingBlock: CIFDUS_clean_sbu_1, # of connection points: 6
#     Node 1, Type 0, BuildingBlock: CIFDUS_clean_sbu_1, # of connection points: 6
#     Node 2, Type 1, BuildingBlock: MIDCAF_clean_linker_0, # of connection points: 3
#     Node 3, Type 1, BuildingBlock: MIDCAF_clean_linker_0, # of connection points: 3
#     Node 4, Type 1, BuildingBlock: MIDCAF_clean_linker_0, # of connection points: 3
#     Node 5, Type 1, BuildingBlock: MIDCAF_clean_linker_0, # of connection points: 3
#     Edge 6, Type (0, 1), BuildingBlock: EYOCIG_clean_linker_4, # of connection points: 2
#     Edge 7, Type (0, 1), BuildingBlock: EYOCIG_clean_linker_4, # of connection points: 2
#     Edge 8, Type (0, 1), BuildingBlock: EYOCIG_clean_linker_4, # of connection points: 2
#     Edge 9, Type (0, 1), BuildingBlock: EYOCIG_clean_linker_4, # of connection points: 2
#     Edge 10, Type (0, 1), BuildingBlock: EYOCIG_clean_linker_4, # of connection points: 2
#     Edge 11, Type (0, 1), BuildingBlock: EYOCIG_clean_linker_4, # of connection points: 2
#     Edge 12, Type (0, 1), BuildingBlock: EYOCIG_clean_linker_4, # of connection points: 2
#     Edge 13, Type (0, 1), BuildingBlock: EYOCIG_clean_linker_4, # of connection points: 2
#     Edge 14, Type (0, 1), BuildingBlock: EYOCIG_clean_linker_4, # of connection points: 2
#     Edge 15, Type (0, 1), BuildingBlock: EYOCIG_clean_linker_4, # of connection points: 2
#     Edge 16, Type (0, 1), BuildingBlock: EYOCIG_clean_linker_4, # of connection points: 2
#     Edge 17, Type (0, 1), BuildingBlock: EYOCIG_clean_linker_4, # of connection points: 2
# Relax obj value: 0.129
# Max RMSD: 0.156
# Mean RMSD: 0.119
data_MOF--net-tsx--node1-CIFDUS_clean_sbu_1--node2-MIDCAF_clean_linker_0--edge1-EYOCIG_clean_linker_4
_symmetry_space_group_name_H-M    P1
_symmetry_Int_Tables_number       1
_symmetry_cell_setting            triclinic
loop_
_symmetry_equiv_pos_as_xyz
'x, y, z'
_cell_length_a     18.127736
_cell_length_b     22.160511
_cell_length_c     37.378897
_cell_angle_alpha  96.562329
_cell_angle_beta   91.52697
_cell_angle_gamma 91.467581
loop_
_atom_site_label
_atom_site_type_symbol
_atom_site_fract_x
_atom_site_fract_y
_atom_site_fract_z
_atom_type_partial_charge
O0 O 0.99501 0.12899 0.00716 0.0
Mn1 Mn 0.05056 0.04645 0.00167 0.0
O2 O 0.88835 0.11338 0.97462 0.0
Mn3 Mn 0.91056 0.03758 0.95215 0.0
O4 O 0.10599 0.964 0.99628 0.0
O5 O 0.14382 0.09327 0.01835 0.0
Mn6 Mn 0.19344 0.05499 0.04957 0.0
O7 O 0.0253 0.03431 0.05492 0.0
O8 O 0.21647 0.9808 0.02532 0.0
O9 O 0.07733 0.05747 0.94845 0.0
O10 O 0.97359 0.03768 0.91411 0.0
O11 O 0.24789 0.12506 0.04481 0.0
O12 O 0.13175 0.04998 0.08785 0.0
C13 C 0.90361 0.95955 0.98057 0.0
C14 C 0.93231 0.14668 0.99599 0.0
C15 C 0.17022 0.94685 0.00566 0.0
C16 C 0.19511 0.13515 0.02254 0.0
C17 C 0.06258 0.03821 0.08493 0.0
C18 C 0.04253 0.04969 0.91778 0.0
O19 O 0.95686 0.99984 0.98481 0.0
O20 O 0.85257 0.96991 0.95744 0.0
O21 O 0.49488 0.62918 0.50721 0.0
Mn22 Mn 0.55049 0.54666 0.50173 0.0
O23 O 0.38826 0.61353 0.47465 0.0
Mn24 Mn 0.41051 0.53774 0.45219 0.0
O25 O 0.60597 0.46423 0.49635 0.0
O26 O 0.64372 0.59351 0.51841 0.0
Mn27 Mn 0.69335 0.55527 0.54965 0.0
O28 O 0.52522 0.53451 0.55498 0.0
O29 O 0.71643 0.48108 0.52541 0.0
O30 O 0.57727 0.55768 0.44851 0.0
O31 O 0.47356 0.53784 0.41416 0.0
O32 O 0.74775 0.62537 0.54488 0.0
O33 O 0.63164 0.55025 0.58792 0.0
C34 C 0.40357 0.45972 0.48061 0.0
C35 C 0.43218 0.64684 0.49603 0.0
C36 C 0.6702 0.44712 0.50574 0.0
C37 C 0.69497 0.63541 0.52259 0.0
C38 C 0.56248 0.53844 0.58499 0.0
C39 C 0.54249 0.54988 0.41784 0.0
O40 O 0.45681 0.50001 0.48487 0.0
O41 O 0.35254 0.47006 0.45747 0.0
C42 C 0.81436 0.14372 0.4415 0.0
C43 C 0.83792 0.18464 0.47104 0.0
C44 C 0.90479 0.17558 0.48926 0.0
C45 C 0.95011 0.12792 0.47635 0.0
H46 H 0.10505 0.98101 0.4971 0.0
H47 H 0.1937 0.92026 0.52704 0.0
H48 H 0.27657 0.85055 0.42386 0.0
H49 H 0.18921 0.91089 0.39367 0.0
H50 H 0.11256 0.94121 0.32006 0.0
H51 H 0.10566 0.94014 0.2542 0.0
H52 H 0.91976 0.05771 0.26346 0.0
H53 H 0.92548 0.05913 0.32855 0.0
H54 H 0.84112 0.06729 0.40462 0.0
H55 H 0.76271 0.14992 0.42728 0.0
H56 H 0.92359 0.20698 0.51225 0.0
H57 H 1.00338 0.1236 0.48947 0.0
N58 N 0.03513 0.02065 0.4432 0.0
N59 N 0.07798 0.97701 0.38738 0.0
N60 N 0.97709 0.04051 0.38924 0.0
C61 C 0.0832 0.98411 0.42411 0.0
C62 C 0.02499 0.00536 0.36977 0.0
C63 C 0.98142 0.04853 0.42569 0.0
C64 C 0.1396 0.9508 0.44289 0.0
C65 C 0.14262 0.95333 0.48075 0.0
C66 C 0.19328 0.91872 0.49796 0.0
C67 C 0.24142 0.88121 0.47754 0.0
C68 C 0.2398 0.87951 0.44001 0.0
C69 C 0.18954 0.91402 0.42281 0.0
C70 C 0.01983 1.00049 0.3298 0.0
C71 C 0.06981 0.96639 0.30808 0.0
C72 C 0.06589 0.96562 0.27048 0.0
C73 C 0.01209 0.99882 0.25424 0.0
C74 C 0.96145 0.03164 0.2756 0.0
C75 C 0.96511 0.03242 0.31294 0.0
C76 C 0.92893 0.08964 0.44492 0.0
C77 C 0.85937 0.09662 0.42858 0.0
C78 C 0.85747 0.89291 0.56006 0.0
C79 C 0.84657 0.88784 0.52269 0.0
C80 C 0.88534 0.92736 0.50262 0.0
C81 C 0.93577 0.97103 0.52005 0.0
H82 H 0.14041 0.09442 0.50888 0.0
H83 H 0.22722 0.16721 0.48566 0.0
H84 H 0.2293 0.2788 0.58806 0.0
H85 H 0.14366 0.20767 0.61117 0.0
H86 H 0.15964 0.12818 0.67737 0.0
H87 H 0.1773 0.12851 0.74238 0.0
H88 H 0.01044 0.98626 0.74164 0.0
H89 H 0.99204 0.98521 0.67645 0.0
H90 H 0.91444 0.93791 0.60632 0.0
H91 H 0.82806 0.86272 0.57598 0.0
H92 H 0.87761 0.92384 0.47361 0.0
H93 H 0.96554 0.00081 0.50417 0.0
N94 N 0.04268 0.05954 0.55964 0.0
N95 N 0.10098 0.09772 0.61481 0.0
N96 N 0.01359 0.01862 0.61312 0.0
C97 C 0.0917 0.09933 0.5788 0.0
C98 C 0.0626 0.05755 0.6322 0.0
C99 C 1.0029 0.01911 0.57699 0.0
C100 C 0.1358 0.14497 0.56197 0.0
C101 C 0.15876 0.13486 0.52617 0.0
C102 C 0.20867 0.17603 0.51303 0.0
C103 C 0.23525 0.2276 0.5355 0.0
C104 C 0.2101 0.23881 0.57053 0.0
C105 C 0.16097 0.19801 0.58363 0.0
C106 C 0.0742 0.05673 0.67156 0.0
C107 C 0.12673 0.09668 0.69086 0.0
C108 C 0.13718 0.0969 0.72805 0.0
C109 C 0.09537 0.05729 0.74654 0.0
C110 C 0.04342 0.01699 0.72759 0.0
C111 C 0.03291 0.01659 0.69036 0.0
C112 C 0.94803 0.9753 0.55763 0.0
C113 C 0.90739 0.93607 0.57735 0.0
C114 C 0.31422 0.64325 0.94162 0.0
C115 C 0.33785 0.68433 0.97107 0.0
C116 C 0.40482 0.67544 0.98924 0.0
C117 C 0.45018 0.6278 0.97636 0.0
H118 H 0.60511 0.48074 -0.00289 0.0
H119 H 0.6938 0.41998 0.02702 0.0
H120 H 0.77693 0.35064 0.92383 0.0
H121 H 0.68953 0.41099 0.89367 0.0
H122 H 0.6127 0.44128 0.82007 0.0
H123 H 0.60575 0.4403 0.75421 0.0
H124 H 0.41974 0.55774 0.76356 0.0
H125 H 0.42549 0.55906 0.82864 0.0
H126 H 0.34099 0.5667 0.90482 0.0
H127 H 0.26249 0.64931 0.92743 0.0
H128 H 0.42367 0.70697 0.01216 0.0
H129 H 0.50354 0.62361 0.98943 0.0
N130 N 0.53523 0.52047 0.94325 0.0
N131 N 0.57812 0.47696 0.88741 0.0
N132 N 0.47713 0.54036 0.88931 0.0
C133 C 0.58335 0.48401 0.92414 0.0
C134 C 0.52508 0.50528 0.86981 0.0
C135 C 0.48147 0.54832 0.92576 0.0
C136 C 0.63979 0.45071 0.9429 0.0
C137 C 0.64276 0.45315 0.98076 0.0
C138 C 0.69344 0.41853 -0.00205 0.0
C139 C 0.74166 0.38112 0.97752 0.0
C140 C 0.7401 0.37953 0.93999 0.0
C141 C 0.68982 0.41404 0.9228 0.0
C142 C 0.51991 0.50048 0.82985 0.0
C143 C 0.56991 0.46645 0.80811 0.0
C144 C 0.56597 0.46573 0.77051 0.0
C145 C 0.51212 0.49892 0.75429 0.0
C146 C 0.46146 0.53167 0.77567 0.0
C147 C 0.46514 0.5324 0.81301 0.0
C148 C 0.42894 0.58936 0.94501 0.0
C149 C 0.35928 0.59616 0.92872 0.0
C150 C 0.35798 0.39246 0.06008 0.0
C151 C 0.34687 0.38754 0.02273 0.0
C152 C 0.38546 0.42719 0.00267 0.0
C153 C 0.4359 0.47086 0.0201 0.0
H154 H 0.64057 0.59419 0.00889 0.0
H155 H 0.72734 0.667 0.98565 0.0
H156 H 0.72945 0.77861 0.08804 0.0
H157 H 0.64386 0.70746 0.11117 0.0
H158 H 0.65981 0.62805 0.17739 0.0
H159 H 0.67741 0.62848 0.24242 0.0
H160 H 0.51058 0.48622 0.24171 0.0
H161 H 0.49224 0.48507 0.17651 0.0
H162 H 0.41511 0.43733 0.10632 0.0
H163 H 0.3287 0.36216 0.07599 0.0
H164 H 0.37757 0.4238 0.97367 0.0
H165 H 0.46553 0.50074 0.00422 0.0
N166 N 0.54293 0.55928 0.05966 0.0
N167 N 0.60117 0.59753 0.11483 0.0
N168 N 0.51384 0.51838 0.11315 0.0
C169 C 0.59191 0.59911 0.07882 0.0
C170 C 0.56282 0.55737 0.13223 0.0
C171 C 0.50318 0.51884 0.07702 0.0
C172 C 0.63598 0.64475 0.06198 0.0
C173 C 0.65892 0.63464 0.02618 0.0
C174 C 0.7088 0.67582 0.01302 0.0
C175 C 0.73539 0.7274 0.03548 0.0
C176 C 0.71025 0.73861 0.07052 0.0
C177 C 0.66116 0.6978 0.08364 0.0
C178 C 0.57439 0.55659 0.1716 0.0
C179 C 0.6269 0.59657 0.1909 0.0
C180 C 0.63731 0.59685 0.22808 0.0
C181 C 0.59549 0.55726 0.24658 0.0
C182 C 0.54357 0.51693 0.22765 0.0
C183 C 0.53309 0.51647 0.1904 0.0
C184 C 0.44835 0.47498 0.05766 0.0
C185 C 0.40791 0.43561 0.07737 0.0
C186 C 0.21723 0.23976 -0.00114 0.0
C187 C 0.19603 0.19053 0.00594 0.0
C188 C 0.2571 0.29555 -0.00099 0.0
C189 C 0.2985 0.33915 0.00591 0.0
C190 C 0.21907 0.83656 0.99005 0.0
C191 C 0.19126 0.88547 0.99551 0.0
C192 C 0.25896 0.78247 0.98535 0.0
C193 C 0.29651 0.73843 0.97979 0.0
C194 C 0.87381 0.86 0.00885 0.0
C195 C 0.8976 0.90656 -0.00088 0.0
C196 C 0.83124 0.80902 0.01659 0.0
C197 C 0.78785 0.76995 0.02328 0.0
C198 C 0.8788 0.25556 0.00801 0.0
C199 C 0.91066 0.20819 0.00546 0.0
C200 C 0.83304 0.30497 0.0035 0.0
C201 C 0.78997 0.34118 0.99421 0.0
C202 C 0.71704 0.73999 0.49887 0.0
C203 C 0.69586 0.69077 0.50598 0.0
C204 C 0.75688 0.79579 0.499 0.0
C205 C 0.79827 0.8394 0.50589 0.0
C206 C 0.71915 0.33686 0.49012 0.0
C207 C 0.69131 0.38575 0.49559 0.0
C208 C 0.75906 0.28277 0.48541 0.0
C209 C 0.79662 0.23874 0.47982 0.0
C210 C 0.37376 0.36018 0.5089 0.0
C211 C 0.39756 0.40673 0.49917 0.0
C212 C 0.33116 0.3092 0.51663 0.0
C213 C 0.28775 0.27014 0.52331 0.0
C214 C 0.3786 0.7557 0.50805 0.0
C215 C 0.41049 0.70834 0.50551 0.0
C216 C 0.33282 0.8051 0.50355 0.0
C217 C 0.28975 0.84131 0.49426 0.0
C218 C 0.01244 0.01595 0.1474 0.0
C219 C 0.02738 0.02511 0.1172 0.0
C220 C 1.00821 0.0068 0.18409 0.0
C221 C 0.01091 0.00257 0.21599 0.0
C222 C 0.0997 0.05767 0.85475 0.0
C223 C 0.08129 0.05539 0.88533 0.0
C224 C 0.10669 0.05892 0.81732 0.0
C225 C 0.10327 0.05961 0.78511 0.0
C226 C 0.51237 0.51615 0.64747 0.0
C227 C 0.52729 0.52532 0.61727 0.0
C228 C 0.50817 0.50698 0.68415 0.0
C229 C 0.5109 0.50271 0.71604 0.0
C230 C 0.5997 0.5578 0.35481 0.0
C231 C 0.58127 0.55556 0.38539 0.0
C232 C 0.60674 0.55901 0.31738 0.0
C233 C 0.60335 0.55964 0.28517 0.0
loop_
_geom_bond_atom_site_label_1
_geom_bond_atom_site_label_2
_geom_bond_distance
_geom_bond_site_symmetry_2
_ccdc_geom_bond_type
O0 Mn1 2.163 1_654 S
O0 C14 1.244 1_554 S
Mn1 O0 2.163 1_456 S
Mn1 O4 2.160 1_545 S
Mn1 O5 2.219 1_556 S
Mn1 O7 2.139 1_556 S
Mn1 O9 2.184 . S
Mn1 O19 2.225 1_445 S
O2 Mn3 2.087 . S
O2 C14 1.256 . S
Mn3 O2 2.087 . S
Mn3 O10 2.089 . S
Mn3 O19 2.290 1_545 S
Mn3 O20 2.251 1_545 S
O4 Mn1 2.160 1_565 S
O4 C15 1.239 1_556 S
O5 Mn1 2.219 1_554 S
O5 Mn6 2.290 . S
O5 C16 1.278 . S
Mn6 O5 2.290 . S
Mn6 O8 2.089 1_545 S
Mn6 O11 2.251 . S
Mn6 O12 2.087 . S
O7 Mn1 2.139 1_554 S
O7 C17 1.244 . S
O8 Mn6 2.089 1_565 S
O8 C15 1.256 . S
O9 Mn1 2.184 . S
O9 C18 1.239 . S
O10 Mn3 2.089 . S
O10 C18 1.256 1_655 S
O11 Mn6 2.251 . S
O11 C16 1.241 . S
O12 Mn6 2.087 . S
O12 C17 1.256 . S
C13 O19 1.278 1_554 S
C13 O20 1.241 1_554 S
C14 O0 1.244 1_556 S
C14 O2 1.256 . S
C15 O4 1.239 1_554 S
C15 O8 1.256 . S
C16 O5 1.278 . S
C16 O11 1.241 . S
C17 O7 1.244 . S
C17 O12 1.256 . S
C18 O9 1.239 . S
C18 O10 1.256 1_455 S
O19 Mn1 2.225 1_665 S
O19 Mn3 2.290 1_565 S
O19 C13 1.278 1_556 S
O20 Mn3 2.251 1_565 S
O20 C13 1.241 1_556 S
O21 Mn22 2.163 . S
O21 C35 1.244 . S
Mn22 O21 2.163 . S
Mn22 O25 2.160 . S
Mn22 O26 2.221 . S
Mn22 O28 2.163 . S
Mn22 O30 2.160 . S
Mn22 O40 2.221 . S
O23 Mn24 2.087 . S
O23 C35 1.256 . S
Mn24 O23 2.087 . S
Mn24 O31 2.089 . S
Mn24 O40 2.290 . S
Mn24 O41 2.251 . S
O25 Mn22 2.160 . S
O25 C36 1.239 . S
O26 Mn22 2.221 . S
O26 Mn27 2.290 . S
O26 C37 1.278 . S
Mn27 O26 2.290 . S
Mn27 O29 2.089 . S
Mn27 O32 2.251 . S
Mn27 O33 2.087 . S
O28 Mn22 2.163 . S
O28 C38 1.244 . S
O29 Mn27 2.089 . S
O29 C36 1.256 . S
O30 Mn22 2.160 . S
O30 C39 1.239 . S
O31 Mn24 2.089 . S
O31 C39 1.256 . S
O32 Mn27 2.251 . S
O32 C37 1.241 . S
O33 Mn27 2.087 . S
O33 C38 1.256 . S
C34 O40 1.278 . S
C34 O41 1.241 . S
C35 O21 1.244 . S
C35 O23 1.256 . S
C36 O25 1.239 . S
C36 O29 1.256 . S
C37 O26 1.278 . S
C37 O32 1.241 . S
C38 O28 1.244 . S
C38 O33 1.256 . S
C39 O30 1.239 . S
C39 O31 1.256 . S
O40 Mn22 2.221 . S
O40 Mn24 2.290 . S
O40 C34 1.278 . S
O41 Mn24 2.251 . S
O41 C34 1.241 . S
C42 C43 1.384 . S
C42 H55 0.947 . S
C42 C77 1.382 . S
C43 C42 1.384 . S
C43 C44 1.378 . S
C44 C43 1.378 . S
C44 C45 1.378 . S
C44 H56 0.952 . S
C45 C44 1.378 . S
C45 H57 0.950 1_655 S
C45 C76 1.383 . S
H46 C65 0.947 . S
H47 C66 0.946 . S
H48 C68 0.953 . S
H49 C69 0.945 . S
H50 C71 0.952 . S
H51 C72 0.949 . S
H52 C74 0.954 . S
H53 C75 0.948 . S
H54 C77 0.951 . S
H55 C42 0.947 . S
H56 C44 0.952 . S
H57 C45 0.950 1_455 S
N58 C61 1.382 1_545 S
N58 C63 1.363 . S
N59 C61 1.371 . S
N59 C62 1.372 1_565 S
N60 C62 1.361 . S
N60 C63 1.377 . S
C61 N58 1.382 1_565 S
C61 N59 1.371 . S
C61 C64 1.480 . S
C62 N59 1.372 1_545 S
C62 N60 1.361 . S
C62 C70 1.457 . S
C63 N58 1.363 . S
C63 N60 1.377 . S
C63 C76 1.479 1_455 S
C64 C61 1.480 . S
C64 C65 1.383 . S
C64 C69 1.385 . S
C65 H46 0.947 . S
C65 C64 1.383 . S
C65 C66 1.388 . S
C66 H47 0.946 . S
C66 C65 1.388 . S
C66 C67 1.384 . S
C67 C66 1.384 . S
C67 C68 1.377 . S
C68 H48 0.953 . S
C68 C67 1.377 . S
C68 C69 1.369 . S
C69 H49 0.945 . S
C69 C64 1.385 . S
C69 C68 1.369 . S
C70 C62 1.457 . S
C70 C71 1.372 1_545 S
C70 C75 1.364 . S
C71 H50 0.952 . S
C71 C70 1.372 1_565 S
C71 C72 1.389 . S
C72 H51 0.949 . S
C72 C71 1.389 . S
C72 C73 1.387 . S
C73 C72 1.387 . S
C73 C74 1.372 1_565 S
C74 H52 0.954 . S
C74 C73 1.372 1_545 S
C74 C75 1.379 . S
C75 H53 0.948 . S
C75 C70 1.364 . S
C75 C74 1.379 . S
C76 C45 1.383 . S
C76 C63 1.479 1_655 S
C76 C77 1.398 . S
C77 C42 1.382 . S
C77 H54 0.951 . S
C77 C76 1.398 . S
C78 C79 1.384 . S
C78 H91 0.947 . S
C78 C113 1.382 . S
C79 C78 1.384 . S
C79 C80 1.378 . S
C80 C79 1.378 . S
C80 C81 1.378 . S
C80 H92 0.952 . S
C81 C80 1.378 . S
C81 H93 0.950 1_565 S
C81 C112 1.383 . S
H82 C101 0.947 . S
H83 C102 0.946 . S
H84 C104 0.953 . S
H85 C105 0.945 . S
H86 C107 0.952 . S
H87 C108 0.949 . S
H88 C110 0.950 . S
H89 C111 0.952 . S
H90 C113 0.951 . S
H91 C78 0.947 . S
H92 C80 0.952 . S
H93 C81 0.950 1_545 S
N94 C97 1.382 . S
N94 C99 1.363 1_455 S
N95 C97 1.371 . S
N95 C98 1.372 . S
N96 C98 1.361 1_655 S
N96 C99 1.377 . S
C97 N94 1.382 . S
C97 N95 1.371 . S
C97 C100 1.480 . S
C98 N95 1.372 . S
C98 N96 1.361 1_455 S
C98 C106 1.457 . S
C99 N94 1.363 1_655 S
C99 N96 1.377 . S
C99 C112 1.479 1_545 S
C100 C97 1.480 . S
C100 C101 1.383 . S
C100 C105 1.385 . S
C101 H82 0.947 . S
C101 C100 1.383 . S
C101 C102 1.388 . S
C102 H83 0.946 . S
C102 C101 1.388 . S
C102 C103 1.384 . S
C103 C102 1.384 . S
C103 C104 1.377 . S
C104 H84 0.953 . S
C104 C103 1.377 . S
C104 C105 1.369 . S
C105 H85 0.945 . S
C105 C100 1.385 . S
C105 C104 1.369 . S
C106 C98 1.457 . S
C106 C107 1.372 . S
C106 C111 1.364 1_455 S
C107 H86 0.952 . S
C107 C106 1.372 . S
C107 C108 1.389 . S
C108 H87 0.949 . S
C108 C107 1.389 . S
C108 C109 1.387 . S
C109 C108 1.387 . S
C109 C110 1.372 1_455 S
C110 H88 0.950 . S
C110 C109 1.372 1_655 S
C110 C111 1.379 . S
C111 H89 0.952 . S
C111 C106 1.364 1_655 S
C111 C110 1.379 . S
C112 C81 1.383 . S
C112 C99 1.479 1_565 S
C112 C113 1.398 . S
C113 C78 1.382 . S
C113 H90 0.951 . S
C113 C112 1.398 . S
C114 C115 1.384 . S
C114 H127 0.947 . S
C114 C149 1.382 . S
C115 C114 1.384 . S
C115 C116 1.378 1_556 S
C116 C115 1.378 1_554 S
C116 C117 1.378 1_554 S
C116 H128 0.952 . S
C117 C116 1.378 1_556 S
C117 H129 0.950 1_556 S
C117 C148 1.383 . S
H118 C137 0.947 . S
H119 C138 0.944 1_554 S
H120 C140 0.953 . S
H121 C141 0.945 . S
H122 C143 0.952 . S
H123 C144 0.949 . S
H124 C146 0.950 . S
H125 C147 0.948 . S
H126 C149 0.951 . S
H127 C114 0.947 . S
H128 C116 0.952 . S
H129 C117 0.950 1_554 S
N130 C133 1.382 . S
N130 C135 1.363 . S
N131 C133 1.371 . S
N131 C134 1.372 . S
N132 C134 1.361 . S
N132 C135 1.377 . S
C133 N130 1.382 . S
C133 N131 1.371 . S
C133 C136 1.480 . S
C134 N131 1.372 . S
C134 N132 1.361 . S
C134 C142 1.457 . S
C135 N130 1.363 . S
C135 N132 1.377 . S
C135 C148 1.479 . S
C136 C133 1.480 . S
C136 C137 1.383 . S
C136 C141 1.385 . S
C137 H118 0.947 . S
C137 C136 1.383 . S
C137 C138 1.389 . S
C138 H119 0.944 1_556 S
C138 C137 1.389 . S
C138 C139 1.385 . S
C139 C138 1.385 . S
C139 C140 1.377 . S
C140 H120 0.953 . S
C140 C139 1.377 . S
C140 C141 1.369 . S
C141 H121 0.945 . S
C141 C136 1.385 . S
C141 C140 1.369 . S
C142 C134 1.457 . S
C142 C143 1.372 . S
C142 C147 1.364 . S
C143 H122 0.952 . S
C143 C142 1.372 . S
C143 C144 1.389 . S
C144 H123 0.949 . S
C144 C143 1.389 . S
C144 C145 1.387 . S
C145 C144 1.387 . S
C145 C146 1.372 . S
C146 H124 0.950 . S
C146 C145 1.372 . S
C146 C147 1.379 . S
C147 H125 0.948 . S
C147 C142 1.364 . S
C147 C146 1.379 . S
C148 C117 1.383 . S
C148 C135 1.479 . S
C148 C149 1.398 . S
C149 C114 1.382 . S
C149 H126 0.951 . S
C149 C148 1.398 . S
C150 C151 1.384 . S
C150 H163 0.947 . S
C150 C185 1.382 . S
C151 C150 1.384 . S
C151 C152 1.362 1_554 S
C152 C151 1.362 1_556 S
C152 C153 1.365 1_556 S
C152 H164 0.984 . S
C153 C152 1.365 1_554 S
C153 H165 0.950 . S
C153 C184 1.383 . S
H154 C173 0.947 . S
H155 C174 0.946 1_556 S
H156 C176 0.953 . S
H157 C177 0.945 . S
H158 C179 0.952 . S
H159 C180 0.949 . S
H160 C182 0.950 . S
H161 C183 0.948 . S
H162 C185 0.951 . S
H163 C150 0.947 . S
H164 C152 0.984 . S
H165 C153 0.950 . S
N166 C169 1.382 . S
N166 C171 1.363 . S
N167 C169 1.371 . S
N167 C170 1.372 . S
N168 C170 1.361 . S
N168 C171 1.377 . S
C169 N166 1.382 . S
C169 N167 1.371 . S
C169 C172 1.480 . S
C170 N167 1.372 . S
C170 N168 1.361 . S
C170 C178 1.457 . S
C171 N166 1.363 . S
C171 N168 1.377 . S
C171 C184 1.479 . S
C172 C169 1.480 . S
C172 C173 1.383 . S
C172 C177 1.385 . S
C173 H154 0.947 . S
C173 C172 1.383 . S
C173 C174 1.388 . S
C174 H155 0.946 1_554 S
C174 C173 1.388 . S
C174 C175 1.384 . S
C175 C174 1.384 . S
C175 C176 1.377 . S
C176 H156 0.953 . S
C176 C175 1.377 . S
C176 C177 1.369 . S
C177 H157 0.945 . S
C177 C172 1.385 . S
C177 C176 1.369 . S
C178 C170 1.457 . S
C178 C179 1.372 . S
C178 C183 1.364 . S
C179 H158 0.952 . S
C179 C178 1.372 . S
C179 C180 1.389 . S
C180 H159 0.949 . S
C180 C179 1.389 . S
C180 C181 1.387 . S
C181 C180 1.387 . S
C181 C182 1.372 . S
C182 H160 0.950 . S
C182 C181 1.372 . S
C182 C183 1.379 . S
C183 H161 0.948 . S
C183 C178 1.364 . S
C183 C182 1.379 . S
C184 C153 1.383 . S
C184 C171 1.479 . S
C184 C185 1.398 . S
C185 C150 1.382 . S
C185 H162 0.951 . S
C185 C184 1.398 . S
C186 C187 1.170 . S
C186 C188 1.380 . S
C187 C186 1.170 . S
C188 C186 1.380 . S
C188 C189 1.170 . S
C189 C188 1.170 . S
C190 C191 1.170 1_556 S
C190 C192 1.382 . S
C191 C190 1.170 1_554 S
C192 C190 1.382 . S
C192 C193 1.167 1_556 S
C193 C192 1.167 1_554 S
C194 C195 1.170 . S
C194 C196 1.380 . S
C195 C194 1.170 . S
C196 C194 1.380 . S
C196 C197 1.170 . S
C197 C196 1.170 . S
C198 C199 1.170 . S
C198 C200 1.380 . S
C199 C198 1.170 . S
C200 C198 1.380 . S
C200 C201 1.170 . S
C201 C200 1.170 . S
C202 C203 1.170 . S
C202 C204 1.380 . S
C203 C202 1.170 . S
C204 C202 1.380 . S
C204 C205 1.170 . S
C205 C204 1.170 . S
C206 C207 1.170 . S
C206 C208 1.380 . S
C207 C206 1.170 . S
C208 C206 1.380 . S
C208 C209 1.170 . S
C209 C208 1.170 . S
C210 C211 1.170 . S
C210 C212 1.380 . S
C211 C210 1.170 . S
C212 C210 1.380 . S
C212 C213 1.170 . S
C213 C212 1.170 . S
C214 C215 1.170 . S
C214 C216 1.380 . S
C215 C214 1.170 . S
C216 C214 1.380 . S
C216 C217 1.170 . S
C217 C216 1.170 . S
C218 C219 1.170 . S
C218 C220 1.380 . S
C219 C218 1.170 . S
C220 C218 1.380 . S
C220 C221 1.168 1_545 S
C221 C220 1.168 1_565 S
C222 C223 1.170 . S
C222 C224 1.380 . S
C223 C222 1.170 . S
C224 C222 1.380 . S
C224 C225 1.170 . S
C225 C224 1.170 . S
C226 C227 1.170 . S
C226 C228 1.380 . S
C227 C226 1.170 . S
C228 C226 1.380 . S
C228 C229 1.170 . S
C229 C228 1.170 . S
C230 C231 1.170 . S
C230 C232 1.380 . S
C231 C230 1.170 . S
C232 C230 1.380 . S
C232 C233 1.170 . S
C233 C232 1.170 . S
C189 C151 1.507 . S
C187 C16 1.424 . S
C191 C15 1.597 . S
C193 C115 1.553 1_554 S
C195 C13 1.333 . S
C197 C175 1.464 . S
C199 C14 1.396 . S
C201 C139 1.387 . S
C203 C37 1.440 . S
C205 C79 1.530 . S
C207 C36 1.579 . S
C209 C43 1.565 . S
C213 C103 1.491 . S
C211 C34 1.270 . S
C217 C67 1.426 . S
C215 C35 1.398 . S
C219 C17 1.523 . S
C221 C73 1.540 . S
C223 C18 1.387 . S
C225 C109 1.444 . S
C229 C145 1.540 . S
C227 C38 1.506 . S
C231 C39 1.398 . S
C233 C181 1.418 . S
