# Generated by pormake.
# Topology tsx, (6,3)-cn, num edge types: 1
# Building blocks:
#     Node 0, Type 0, BuildingBlock: FUNLAD_clean_sbu_0, # of connection points: 6
#     Node 1, Type 0, BuildingBlock: FUNLAD_clean_sbu_0, # of connection points: 6
#     Node 2, Type 1, BuildingBlock: ESEHIV_clean_linker_0, # of connection points: 3
#     Node 3, Type 1, BuildingBlock: ESEHIV_clean_linker_0, # of connection points: 3
#     Node 4, Type 1, BuildingBlock: ESEHIV_clean_linker_0, # of connection points: 3
#     Node 5, Type 1, BuildingBlock: ESEHIV_clean_linker_0, # of connection points: 3
#     Edge 6, Type (0, 1), None
#     Edge 7, Type (0, 1), None
#     Edge 8, Type (0, 1), None
#     Edge 9, Type (0, 1), None
#     Edge 10, Type (0, 1), None
#     Edge 11, Type (0, 1), None
#     Edge 12, Type (0, 1), None
#     Edge 13, Type (0, 1), None
#     Edge 14, Type (0, 1), None
#     Edge 15, Type (0, 1), None
#     Edge 16, Type (0, 1), None
#     Edge 17, Type (0, 1), None
# Relax obj value: 0.152
# Max RMSD: 0.148
# Mean RMSD: 0.080
data_MOF--net-tsx--node1-FUNLAD_clean_sbu_0--node2-ESEHIV_clean_linker_0--edge1-none
_symmetry_space_group_name_H-M    P1
_symmetry_Int_Tables_number       1
_symmetry_cell_setting            triclinic
loop_
_symmetry_equiv_pos_as_xyz
'x, y, z'
_cell_length_a     8.9027328
_cell_length_b     8.1012063
_cell_length_c     19.411854
_cell_angle_alpha  90.088092
_cell_angle_beta   83.808071
_cell_angle_gamma 90.088455
loop_
_atom_site_label
_atom_site_type_symbol
_atom_site_fract_x
_atom_site_fract_y
_atom_site_fract_z
_atom_type_partial_charge
C0 C 0.69421 0.78687 1.02094 0.0
N1 N 0.86145 0.0128 0.1861 0.0
C2 C 0.72211 0.97515 0.21856 0.0
C3 C 0.70541 0.92233 0.28763 0.0
C4 C 0.83318 0.90815 0.32376 0.0
C5 C -0.02483 0.94728 0.28883 0.0
C6 C -0.01324 -0.00061 0.22002 0.0
Zn7 Zn -0.1104 0.03519 0.07986 0.0
C8 C 0.10648 0.78918 0.02446 0.0
N9 N -0.06299 0.01212 0.85943 0.0
C10 C 0.81155 -0.00113 0.82559 0.0
C11 C 0.07618 0.97447 0.82685 0.0
C12 C 0.09254 0.92175 0.75772 0.0
C13 C -0.03534 0.90797 0.72163 0.0
C14 C 0.82282 0.94711 0.75669 0.0
Zn15 Zn -0.09106 0.03504 0.96559 0.0
O16 O 0.74448 0.84049 0.07523 0.0
C17 C 0.66929 0.2702 0.02525 0.0
O18 O 0.73124 0.85776 0.96392 0.0
H19 H 0.17453 -0.0185 0.85494 0.0
H20 H 0.62388 -0.01781 0.19041 0.0
H21 H 0.70163 0.02446 0.85254 0.0
O22 O 0.70131 0.20527 0.08152 0.0
O23 O 0.74935 0.23009 0.96886 0.0
H24 H 0.09682 0.02498 0.1932 0.0
O25 O 0.09577 0.20687 0.96383 0.0
O26 O 0.04761 0.23211 0.07649 0.0
O27 O 0.05574 0.84212 0.97025 0.0
O28 O 0.0688 0.85977 0.08157 0.0
C29 C 0.12758 0.27233 1.0201 0.0
H30 H 0.59347 0.89619 0.31296 0.0
H31 H 0.0765 0.94478 0.31506 0.0
H32 H 0.20434 0.89542 0.73233 0.0
H33 H 0.72138 0.9449 0.73054 0.0
C34 C 0.1942 0.28687 0.52094 0.0
N35 N 0.36145 0.5128 0.6861 0.0
C36 C 0.22211 0.47515 0.71856 0.0
C37 C 0.20541 0.42233 0.78764 0.0
C38 C 0.33318 0.40815 0.82376 0.0
C39 C 0.47517 0.44728 0.78883 0.0
C40 C 0.48676 0.49939 0.72002 0.0
Zn41 Zn 0.3896 0.53519 0.57986 0.0
C42 C 0.60648 0.28918 0.52446 0.0
N43 N 0.43701 0.51212 0.35943 0.0
C44 C 0.31155 0.49887 0.32559 0.0
C45 C 0.57618 0.47447 0.32686 0.0
C46 C 0.59254 0.42176 0.25772 0.0
C47 C 0.46466 0.40797 0.22163 0.0
C48 C 0.32282 0.44711 0.25669 0.0
Zn49 Zn 0.40893 0.53503 0.46559 0.0
O50 O 0.24448 0.34049 0.57523 0.0
C51 C 0.16928 0.77019 0.52525 0.0
O52 O 0.23124 0.35776 0.46392 0.0
H53 H 0.67453 0.4815 0.35494 0.0
H54 H 0.12388 0.48218 0.69041 0.0
H55 H 0.20163 0.52445 0.35254 0.0
O56 O 0.2013 0.70527 0.58152 0.0
O57 O 0.24935 0.73009 0.46886 0.0
H58 H 0.59682 0.52498 0.6932 0.0
O59 O 0.59577 0.70687 0.46383 0.0
O60 O 0.54761 0.7321 0.57649 0.0
O61 O 0.55574 0.34211 0.47025 0.0
O62 O 0.5688 0.35977 0.58157 0.0
C63 C 0.62758 0.77233 0.5201 0.0
H64 H 0.09347 0.39619 0.81296 0.0
H65 H 0.5765 0.44478 0.81506 0.0
H66 H 0.70434 0.39542 0.23233 0.0
H67 H 0.22138 0.4449 0.23053 0.0
H68 H 0.61653 0.09338 0.40555 0.0
H69 H 0.03384 0.71785 0.40393 0.0
H70 H -0.1076 0.04279 0.57224 0.0
C71 C 0.69644 0.04492 0.43847 0.0
C72 C 0.70116 0.14245 0.51782 0.0
C73 C 0.81812 0.89687 0.40027 0.0
C74 C -0.03372 0.80405 0.43633 0.0
C75 C 0.02109 0.86091 0.5185 0.0
C76 C 0.83522 0.09585 0.5754 0.0
H77 H 0.76202 0.7199 0.6415 0.0
H78 H 0.18338 0.09127 0.63975 0.0
H79 H -0.09316 0.04216 0.47322 0.0
C80 C 0.8304 0.80536 0.6091 0.0
C81 C 0.77627 0.86231 0.52693 0.0
C82 C -0.02041 0.89673 0.64511 0.0
C83 C 0.10294 0.04331 0.60687 0.0
C84 C 0.09921 0.14033 0.52749 0.0
C85 C -0.03538 0.09477 0.46999 0.0
H86 H 0.11653 0.59338 0.90555 0.0
H87 H 0.53384 0.21785 0.90393 0.0
H88 H 0.39241 0.54279 0.07224 0.0
C89 C 0.19644 0.54492 0.93847 0.0
C90 C 0.20116 0.64245 1.01782 0.0
C91 C 0.31813 0.39687 0.90027 0.0
C92 C 0.46629 0.30405 0.93633 0.0
C93 C 0.52109 0.36091 1.0185 0.0
C94 C 0.33522 0.59586 0.0754 0.0
H95 H 0.26202 0.2199 0.1415 0.0
H96 H 0.68338 0.59127 0.13975 0.0
H97 H 0.40685 0.54216 0.97322 0.0
C98 C 0.3304 0.30536 0.1091 0.0
C99 C 0.27627 0.36231 0.02693 0.0
C100 C 0.4796 0.39673 0.14511 0.0
C101 C 0.60294 0.54331 0.10687 0.0
C102 C 0.59921 0.64033 0.02749 0.0
C103 C 0.46462 0.59477 0.96999 0.0
loop_
_geom_bond_atom_site_label_1
_geom_bond_atom_site_label_2
_geom_bond_distance
_geom_bond_site_symmetry_2
_ccdc_geom_bond_type
C0 O16 1.251 . S
C0 O18 1.254 1_554 S
N1 C2 1.333 1_445 S
N1 C6 1.307 . S
N1 Zn7 2.020 . S
C2 N1 1.333 1_665 S
C2 C3 1.379 . S
C2 H20 0.952 . S
C3 C2 1.379 . S
C3 C4 1.390 1_665 S
C3 H30 0.949 . S
C4 C3 1.390 1_445 S
C4 C5 1.357 . S
C5 C4 1.357 . S
C5 C6 1.370 . S
C5 H31 0.950 . S
C6 N1 1.307 . S
C6 C5 1.370 . S
C6 H24 0.948 . S
Zn7 N1 2.020 . S
Zn7 O16 2.039 1_445 S
Zn7 O22 2.034 1_455 S
Zn7 O26 2.025 . S
Zn7 O28 2.024 1_545 S
C8 O27 1.246 1_554 S
C8 O28 1.249 . S
N9 C10 1.307 1_455 S
N9 C11 1.333 1_565 S
N9 Zn15 2.020 1_465 S
C10 N9 1.307 1_655 S
C10 C14 1.370 . S
C10 H21 0.948 . S
C11 N9 1.333 1_545 S
C11 C12 1.379 . S
C11 H19 0.952 . S
C12 C11 1.379 . S
C12 C13 1.390 . S
C12 H32 0.949 . S
C13 C12 1.390 . S
C13 C14 1.357 1_445 S
C14 C10 1.370 . S
C14 C13 1.357 1_665 S
C14 H33 0.950 . S
Zn15 N9 2.020 1_645 S
Zn15 O18 2.025 1_545 S
Zn15 O23 2.024 . S
Zn15 O25 2.039 1_655 S
Zn15 O27 2.034 1_645 S
O16 C0 1.251 . S
O16 Zn7 2.039 1_665 S
C17 O22 1.255 . S
C17 O23 1.239 1_554 S
O18 C0 1.254 1_556 S
O18 Zn15 2.025 1_565 S
H19 C11 0.952 . S
H20 C2 0.952 . S
H21 C10 0.948 . S
O22 Zn7 2.034 1_655 S
O22 C17 1.255 . S
O23 Zn15 2.024 . S
O23 C17 1.239 1_556 S
H24 C6 0.948 . S
O25 Zn15 2.039 1_455 S
O25 C29 1.251 1_556 S
O26 Zn7 2.025 . S
O26 C29 1.254 . S
O27 C8 1.246 1_556 S
O27 Zn15 2.034 1_465 S
O28 Zn7 2.024 1_565 S
O28 C8 1.249 . S
C29 O25 1.251 1_554 S
C29 O26 1.254 . S
H30 C3 0.949 . S
H31 C5 0.950 . S
H32 C12 0.949 . S
H33 C14 0.950 . S
C34 O50 1.251 . S
C34 O52 1.254 . S
N35 C36 1.333 . S
N35 C40 1.307 . S
N35 Zn41 2.020 . S
C36 N35 1.333 . S
C36 C37 1.379 . S
C36 H54 0.952 . S
C37 C36 1.379 . S
C37 C38 1.390 . S
C37 H64 0.949 . S
C38 C37 1.390 . S
C38 C39 1.357 . S
C39 C38 1.357 . S
C39 C40 1.370 . S
C39 H65 0.950 . S
C40 N35 1.307 . S
C40 C39 1.370 . S
C40 H58 0.948 . S
Zn41 N35 2.020 . S
Zn41 O50 2.039 . S
Zn41 O56 2.034 . S
Zn41 O60 2.025 . S
Zn41 O62 2.024 . S
C42 O61 1.246 . S
C42 O62 1.249 . S
N43 C44 1.307 . S
N43 C45 1.333 . S
N43 Zn49 2.020 . S
C44 N43 1.307 . S
C44 C48 1.370 . S
C44 H55 0.948 . S
C45 N43 1.333 . S
C45 C46 1.379 . S
C45 H53 0.952 . S
C46 C45 1.379 . S
C46 C47 1.390 . S
C46 H66 0.949 . S
C47 C46 1.390 . S
C47 C48 1.357 . S
C48 C44 1.370 . S
C48 C47 1.357 . S
C48 H67 0.950 . S
Zn49 N43 2.020 . S
Zn49 O52 2.025 . S
Zn49 O57 2.024 . S
Zn49 O59 2.039 . S
Zn49 O61 2.034 . S
O50 C34 1.251 . S
O50 Zn41 2.039 . S
C51 O56 1.246 . S
C51 O57 1.249 . S
O52 C34 1.254 . S
O52 Zn49 2.025 . S
H53 C45 0.952 . S
H54 C36 0.952 . S
H55 C44 0.948 . S
O56 Zn41 2.034 . S
O56 C51 1.246 . S
O57 Zn49 2.024 . S
O57 C51 1.249 . S
H58 C40 0.948 . S
O59 Zn49 2.039 . S
O59 C63 1.251 . S
O60 Zn41 2.025 . S
O60 C63 1.254 . S
O61 C42 1.246 . S
O61 Zn49 2.034 . S
O62 Zn41 2.024 . S
O62 C42 1.249 . S
C63 O59 1.251 . S
C63 O60 1.254 . S
H64 C37 0.949 . S
H65 C39 0.950 . S
H66 C46 0.949 . S
H67 C48 0.950 . S
H68 C71 0.931 . S
H69 C74 0.928 . S
H70 C76 0.930 . S
C71 H68 0.931 . S
C71 C72 1.413 . S
C71 C73 1.356 1_545 S
C72 C71 1.413 . S
C72 C76 1.429 1_645 S
C73 C71 1.356 1_565 S
C73 C74 1.376 1_655 S
C74 H69 0.928 . S
C74 C73 1.376 1_455 S
C74 C75 1.404 . S
C75 C74 1.404 . S
C75 C76 1.391 . S
C76 H70 0.930 . S
C76 C72 1.429 1_465 S
C76 C75 1.391 . S
H77 C80 0.931 . S
H78 C83 0.928 . S
H79 C85 0.930 . S
C80 H77 0.931 . S
C80 C81 1.413 . S
C80 C82 1.360 1_665 S
C81 C80 1.413 . S
C81 C85 1.429 1_665 S
C82 C80 1.360 1_445 S
C82 C83 1.372 . S
C83 H78 0.928 . S
C83 C82 1.372 . S
C83 C84 1.404 . S
C84 C83 1.404 . S
C84 C85 1.391 . S
C85 H79 0.930 . S
C85 C81 1.429 1_445 S
C85 C84 1.391 . S
H86 C89 0.931 . S
H87 C92 0.928 . S
H88 C94 0.930 . S
C89 H86 0.931 . S
C89 C90 1.413 . S
C89 C91 1.360 . S
C90 C89 1.413 . S
C90 C94 1.429 1_556 S
C91 C89 1.360 . S
C91 C92 1.372 . S
C92 H87 0.928 . S
C92 C91 1.372 . S
C92 C93 1.404 . S
C93 C92 1.404 . S
C93 C94 1.391 1_556 S
C94 H88 0.930 . S
C94 C90 1.429 1_554 S
C94 C93 1.391 1_554 S
H95 C98 0.931 . S
H96 C101 0.928 . S
H97 C103 0.930 . S
C98 H95 0.931 . S
C98 C99 1.413 . S
C98 C100 1.360 . S
C99 C98 1.413 . S
C99 C103 1.429 1_554 S
C100 C98 1.360 . S
C100 C101 1.372 . S
C101 H96 0.928 . S
C101 C100 1.372 . S
C101 C102 1.404 . S
C102 C101 1.404 . S
C102 C103 1.391 1_554 S
C103 H97 0.930 . S
C103 C99 1.429 1_556 S
C103 C102 1.391 1_556 S
C99 C29 1.455 . S
C8 C90 1.467 1_554 S
C0 C102 1.444 . S
C17 C93 1.434 1_554 S
C63 C81 1.455 . S
C42 C72 1.466 . S
C84 C34 1.444 . S
C75 C51 1.437 . S
C4 C73 1.497 1_445 S
C13 C82 1.492 . S
C91 C38 1.498 . S
C47 C100 1.492 . S
