# Generated by pormake.
# Topology csq, (4,8)-cn, num edge types: 1
# Building blocks:
#     Node 0, Type 0, BuildingBlock: GIZVER_clean_linker_0, # of connection points: 4
#     Node 1, Type 0, BuildingBlock: GIZVER_clean_linker_0, # of connection points: 4
#     Node 2, Type 0, BuildingBlock: GIZVER_clean_linker_0, # of connection points: 4
#     Node 3, Type 0, BuildingBlock: GIZVER_clean_linker_0, # of connection points: 4
#     Node 4, Type 0, BuildingBlock: GIZVER_clean_linker_0, # of connection points: 4
#     Node 5, Type 0, BuildingBlock: GIZVER_clean_linker_0, # of connection points: 4
#     Node 6, Type 1, BuildingBlock: TAGTUT_clean_sbu_3, # of connection points: 8
#     Node 7, Type 1, BuildingBlock: TAGTUT_clean_sbu_3, # of connection points: 8
#     Node 8, Type 1, BuildingBlock: TAGTUT_clean_sbu_3, # of connection points: 8
#     Edge 9, Type (0, 1), None
#     Edge 10, Type (0, 1), None
#     Edge 11, Type (0, 1), None
#     Edge 12, Type (0, 1), None
#     Edge 13, Type (0, 1), None
#     Edge 14, Type (0, 1), None
#     Edge 15, Type (0, 1), None
#     Edge 16, Type (0, 1), None
#     Edge 17, Type (0, 1), None
#     Edge 18, Type (0, 1), None
#     Edge 19, Type (0, 1), None
#     Edge 20, Type (0, 1), None
#     Edge 21, Type (0, 1), None
#     Edge 22, Type (0, 1), None
#     Edge 23, Type (0, 1), None
#     Edge 24, Type (0, 1), None
#     Edge 25, Type (0, 1), None
#     Edge 26, Type (0, 1), None
#     Edge 27, Type (0, 1), None
#     Edge 28, Type (0, 1), None
#     Edge 29, Type (0, 1), None
#     Edge 30, Type (0, 1), None
#     Edge 31, Type (0, 1), None
#     Edge 32, Type (0, 1), None
# Relax obj value: 0.051
# Max RMSD: 0.103
# Mean RMSD: 0.080
data_MOF--net-csq--node1-TAGTUT_clean_sbu_3--node2-GIZVER_clean_linker_0--edge1-none
_symmetry_space_group_name_H-M    P1
_symmetry_Int_Tables_number       1
_symmetry_cell_setting            triclinic
loop_
_symmetry_equiv_pos_as_xyz
'x, y, z'
_cell_length_a     26.645884
_cell_length_b     26.476566
_cell_length_c     9.7728368
_cell_angle_alpha  93.121977
_cell_angle_beta   95.510045
_cell_angle_gamma 119.27513
loop_
_atom_site_label
_atom_site_type_symbol
_atom_site_fract_x
_atom_site_fract_y
_atom_site_fract_z
_atom_type_partial_charge
H0 H 0.17849 0.44803 0.00724 0.0
H1 H 0.21968 0.52207 0.43379 0.0
H2 H 0.04566 0.38969 0.27089 0.0
H3 H 0.2694 0.5406 0.09636 0.0
H4 H 0.29146 0.56286 0.27826 0.0
H5 H 0.32423 0.50361 -0.00675 0.0
H6 H 0.39197 0.41213 0.22235 0.0
H7 H 0.30587 0.48823 0.42498 0.0
C8 C 0.16583 0.44661 0.10977 0.0
C9 C 0.10678 0.41441 0.12534 0.0
C10 C 0.20743 0.48432 0.22195 0.0
C11 C 0.18899 0.4902 0.34987 0.0
C12 C 0.13055 0.45571 0.3679 0.0
C13 C 0.09122 0.41457 0.25867 0.0
C14 C 0.26954 0.52414 0.19868 0.0
C15 C 0.30428 0.49295 0.20403 0.0
C16 C 0.32951 0.48631 0.08817 0.0
C17 C 0.36424 0.45989 0.09888 0.0
C18 C 0.36833 0.43529 0.21727 0.0
C19 C 0.35083 0.4482 0.33642 0.0
C20 C 0.31793 0.47637 0.33068 0.0
H21 H 0.85284 0.2599 0.91491 0.0
H22 H 0.90211 0.28781 0.35665 0.0
H23 H 0.90492 0.42528 0.13552 0.0
H24 H 0.8695 0.1899 0.0462 0.0
H25 H 0.86736 0.19197 0.22907 0.0
H26 H 0.77787 0.16155 0.87755 0.0
H27 H 0.61718 0.08989 0.04556 0.0
H28 H 0.77651 0.1475 0.31283 0.0
C29 C 0.86369 0.28707 0.01215 0.0
C30 C 0.87875 0.3453 0.00984 0.0
C31 C 0.86745 0.26476 0.13752 0.0
C32 C 0.8916 0.30289 0.2631 0.0
C33 C 0.90682 0.36184 0.26309 0.0
C34 C 0.89285 0.37982 0.13733 0.0
C35 C 0.85043 0.20132 0.13085 0.0
C36 C 0.78507 0.16467 0.10135 0.0
C37 C 0.75448 0.15138 -0.03402 0.0
C38 C 0.69317 0.12289 0.94547 0.0
C39 C 0.6639 0.11004 0.05947 0.0
C40 C 0.69281 0.1113 0.1863 0.0
C41 C 0.75361 0.1426 0.21081 0.0
H42 H 0.62463 0.88871 0.81917 0.0
H43 H 0.66191 0.86808 0.247 0.0
H44 H 0.53976 0.92364 0.13379 0.0
H45 H 0.68298 0.84121 0.88366 0.0
H46 H 0.70805 0.84439 0.06358 0.0
H47 H 0.61738 0.74497 0.77221 0.0
H48 H 0.48516 0.62289 -0.01301 0.0
H49 H 0.63505 0.77036 0.21464 0.0
C50 C 0.61738 0.89064 0.92603 0.0
C51 C 0.58294 0.91399 -0.03367 0.0
C52 C 0.64289 0.87022 0.02726 0.0
C53 C 0.63856 0.879 0.16811 0.0
C54 C 0.60051 0.89721 0.20649 0.0
C55 C 0.57013 0.91047 0.1036 0.0
C56 C 0.66921 0.83345 -0.01199 0.0
C57 C 0.62399 0.77031 -0.00915 0.0
C58 C 0.59806 0.7328 0.86626 0.0
C59 C 0.55153 0.67683 0.86887 0.0
C60 C 0.52373 0.66524 -0.01123 0.0
C61 C 0.55874 0.69147 0.1167 0.0
C62 C 0.60777 0.7471 0.11778 0.0
H63 H 0.77259 0.61789 0.78689 0.0
H64 H 0.80425 0.66023 0.23185 0.0
H65 H 0.63004 0.56953 0.01385 0.0
H66 H 0.8671 0.69903 0.90332 0.0
H67 H 0.8848 0.70678 0.08724 0.0
H68 H 0.88952 0.63537 0.75943 0.0
H69 H 0.94572 0.52814 -0.03778 0.0
H70 H 0.893 0.62973 0.19821 0.0
C71 C 0.75641 0.61539 0.8855 0.0
C72 C 0.69656 0.58812 0.88821 0.0
C73 C 0.79576 0.64219 0.00765 0.0
C74 C 0.77441 0.64073 0.13639 0.0
C75 C 0.71387 0.61288 0.13922 0.0
C76 C 0.6762 0.58785 0.01373 0.0
C77 C 0.85983 0.6743 -0.00519 0.0
C78 C 0.88266 0.6323 -0.02104 0.0
C79 C 0.8954 0.61655 0.85113 0.0
C80 C 0.91874 0.57861 0.84499 0.0
C81 C 0.92714 0.55611 -0.03559 0.0
C82 C 0.92411 0.57911 0.09155 0.0
C83 C 0.89753 0.61334 0.09866 0.0
H84 H 0.30629 0.83952 0.91295 0.0
H85 H 0.35148 0.81018 0.32485 0.0
H86 H 0.37891 0.97865 0.2462 0.0
H87 H 0.29978 0.74583 -0.0388 0.0
H88 H 0.31289 0.73193 0.13546 0.0
H89 H 0.20075 0.68628 0.86836 0.0
H90 H 0.06642 0.6582 0.11495 0.0
H91 H 0.24322 0.74124 0.30623 0.0
C92 C 0.32026 0.85502 0.0223 0.0
C93 C 0.344 0.91443 0.06711 0.0
C94 C 0.32109 0.81675 0.1162 0.0
C95 C 0.34782 0.83868 0.25392 0.0
C96 C 0.36803 0.89697 0.30094 0.0
C97 C 0.36118 0.93298 0.20995 0.0
C98 C 0.29324 0.75261 0.06998 0.0
C99 C 0.22946 0.72441 0.08222 0.0
C100 C 0.18741 0.69357 -0.0346 0.0
C101 C 0.12825 0.66658 -0.02127 0.0
C102 C 0.11208 0.67785 0.10522 0.0
C103 C 0.15263 0.70116 0.22597 0.0
C104 C 0.21156 0.72472 0.2135 0.0
H105 H 0.55151 0.31689 0.04199 0.0
H106 H 0.51381 0.33203 0.45482 0.0
H107 H 0.41529 0.3521 0.11332 0.0
H108 H 0.61172 0.31191 0.26771 0.0
H109 H 0.58226 0.30299 0.42823 0.0
H110 H 0.55626 0.23467 0.06745 0.0
H111 H 0.4389 0.06416 0.15366 0.0
H112 H 0.53686 0.20027 0.49038 0.0
C113 C 0.52276 0.31916 0.10991 0.0
C114 C 0.47932 0.33205 0.0567 0.0
C115 C 0.52985 0.31148 0.25312 0.0
C116 C 0.50146 0.32791 0.34402 0.0
C117 C 0.46734 0.35098 0.29325 0.0
C118 C 0.44556 0.33814 0.15087 0.0
C119 C 0.57072 0.29103 0.31418 0.0
C120 C 0.54187 0.22589 0.28084 0.0
C121 C 0.53368 0.20534 0.14128 0.0
C122 C 0.49596 0.14753 0.09502 0.0
C123 C 0.46802 0.10918 0.19145 0.0
C124 C 0.48783 0.12475 0.33562 0.0
C125 C 0.52264 0.18525 0.38104 0.0
C126 C 0.10711 0.46418 0.49333 0.0
C127 C 0.06335 0.40901 0.01112 0.0
C128 C 0.8993 0.3741 0.8835 0.0
Mg129 Mg 0.05985 0.541 0.33922 0.0
Mg130 Mg 0.01955 0.62541 0.49291 0.0
O131 O 0.01507 0.55225 0.47271 0.0
Mg132 Mg 0.02654 0.51296 0.62157 0.0
O133 O 0.04084 0.4727 0.76762 0.0
Mg134 Mg 1.00392 0.39048 0.68239 0.0
Mg135 Mg 1.0049 0.47969 0.91599 0.0
C136 C 0.94911 0.57371 0.73084 0.0
O137 O 0.09204 0.60058 0.76407 0.0
O138 O 0.99943 0.56413 0.1972 0.0
O139 O 0.04973 0.57243 -0.04524 0.0
O140 O 0.13364 0.6361 0.38978 0.0
O141 O 0.95576 0.59937 0.32807 0.0
O142 O 0.09158 0.68985 0.39675 0.0
O143 O 0.95681 0.41726 0.49621 0.0
O144 O 0.99056 0.45048 0.30048 0.0
C145 C 0.95542 0.40963 0.36308 0.0
C146 C 0.95992 0.57821 0.21284 0.0
O147 O 0.95663 0.52886 0.71664 0.0
O148 O 0.05976 0.38769 0.88563 0.0
O149 O 0.97739 0.61965 0.67175 0.0
O150 O 0.92737 0.35589 0.81627 0.0
O151 O 0.03927 0.43894 0.0411 0.0
O152 O 0.91289 0.42709 0.88525 0.0
O153 O 0.09852 0.50772 0.51087 0.0
O154 O 0.07926 0.41874 0.55358 0.0
C155 C 0.13127 0.68094 0.35793 0.0
C156 C 0.08604 0.61187 0.88977 0.0
C157 C 0.48953 0.07677 0.41076 0.0
C158 C 0.6593 0.07295 0.28363 0.0
C159 C 0.59497 0.90719 0.35344 0.0
Mg160 Mg 0.41743 0.02022 0.6907 0.0
Mg161 Mg 0.50748 0.02485 0.92952 0.0
O162 O 0.46585 0.98625 0.75982 0.0
Mg163 Mg 0.52403 0.00662 0.63723 0.0
O164 O 0.57817 0.0237 0.50592 0.0
Mg165 Mg 0.52339 0.97494 0.34198 0.0
Mg166 Mg 0.6468 0.01876 0.54084 0.0
C167 C 0.56542 0.95023 0.88403 0.0
O168 O 0.60538 0.0793 0.78665 0.0
O169 O 0.35964 0.95999 0.85222 0.0
O170 O 0.67933 0.06424 0.74292 0.0
O171 O 0.45056 0.09261 0.87762 0.0
O172 O 0.43327 0.98279 0.02307 0.0
O173 O 0.54034 0.11556 0.9478 0.0
O174 O 0.45069 0.93386 0.47573 0.0
O175 O 0.37676 0.94746 0.51275 0.0
C176 C 0.39811 0.92255 0.44248 0.0
C177 C 0.37921 0.95688 -0.02355 0.0
O178 O 0.55083 0.9425 0.75114 0.0
O179 O 0.60574 0.03389 0.24262 0.0
O180 O 0.56079 0.98795 -0.04034 0.0
O181 O 0.54822 0.90524 0.37844 0.0
O182 O 0.68556 0.07764 0.40325 0.0
O183 O 0.64162 0.9414 0.43437 0.0
O184 O 0.49393 0.07412 0.54421 0.0
O185 O 0.49914 0.04367 0.33058 0.0
C186 C 0.4982 0.12431 -0.04301 0.0
C187 C 0.65873 0.09054 0.8123 0.0
C188 C 0.55391 0.62649 0.80446 0.0
C189 C 0.39928 0.45934 -0.00709 0.0
C190 C 0.48163 0.36116 0.92764 0.0
Mg191 Mg 0.62498 0.63993 0.51908 0.0
Mg192 Mg 0.55699 0.5357 0.27211 0.0
O193 O 0.57438 0.55609 0.45636 0.0
Mg194 Mg 0.52464 0.51684 0.59707 0.0
O195 O 0.47801 0.47979 0.74577 0.0
Mg196 Mg 0.53675 0.50311 0.90727 0.0
Mg197 Mg 0.41145 0.40599 0.73299 0.0
C198 C 0.48476 0.41027 0.35535 0.0
O199 O 0.4387 0.49728 0.47768 0.0
O200 O 0.68745 0.64366 0.34733 0.0
O201 O 0.37228 0.40796 0.52816 0.0
O202 O 0.58305 0.67322 0.34744 0.0
O203 O 0.64102 0.55056 0.25446 0.0
O204 O 0.54186 0.5997 0.1776 0.0
O205 O 0.60417 0.52987 0.74648 0.0
O206 O 0.67164 0.61292 0.6797 0.0
C207 C 0.65653 0.5728 0.75936 0.0
C208 C 0.68444 0.60186 0.2651 0.0
O209 O 0.50245 0.42656 0.48599 0.0
O210 O 0.45481 0.48046 0.02629 0.0
O211 O 0.49425 0.44678 0.26708 0.0
O212 O 0.5261 0.41175 0.93214 0.0
O213 O 0.37197 0.43137 0.87561 0.0
O214 O 0.43345 0.34836 0.85351 0.0
O215 O 0.55011 0.61388 0.67392 0.0
O216 O 0.54907 0.58983 0.88822 0.0
C217 C 0.5574 0.65216 0.22325 0.0
C218 C 0.38701 0.45288 0.46225 0.0
loop_
_geom_bond_atom_site_label_1
_geom_bond_atom_site_label_2
_geom_bond_distance
_geom_bond_site_symmetry_2
_ccdc_geom_bond_type
H0 C8 0.930 . S
H1 C11 0.930 . S
H2 C13 0.930 . S
H3 C14 0.970 . S
H4 C14 0.970 . S
H5 C16 0.930 . S
H6 C18 0.930 . S
H7 C20 0.930 . S
C8 H0 0.930 . S
C8 C9 1.382 . S
C8 C10 1.426 . S
C9 C8 1.382 . S
C9 C13 1.389 . S
C10 C8 1.426 . S
C10 C11 1.375 . S
C10 C14 1.532 . S
C11 H1 0.930 . S
C11 C10 1.375 . S
C11 C12 1.416 . S
C12 C11 1.416 . S
C12 C13 1.371 . S
C13 H2 0.930 . S
C13 C9 1.389 . S
C13 C12 1.371 . S
C14 H3 0.970 . S
C14 H4 0.970 . S
C14 C10 1.532 . S
C14 C15 1.499 . S
C15 C14 1.499 . S
C15 C16 1.370 . S
C15 C20 1.415 . S
C16 H5 0.930 . S
C16 C15 1.370 . S
C16 C17 1.407 . S
C17 C16 1.407 . S
C17 C18 1.365 . S
C18 H6 0.930 . S
C18 C17 1.365 . S
C18 C19 1.393 . S
C19 C18 1.393 . S
C19 C20 1.387 . S
C20 H7 0.930 . S
C20 C15 1.415 . S
C20 C19 1.387 . S
H21 C29 0.930 1_556 S
H22 C32 0.930 . S
H23 C34 0.930 . S
H24 C35 0.970 . S
H25 C35 0.970 . S
H26 C37 0.930 . S
H27 C39 0.930 . S
H28 C41 0.930 . S
C29 H21 0.930 1_554 S
C29 C30 1.382 . S
C29 C31 1.426 . S
C30 C29 1.382 . S
C30 C34 1.389 . S
C31 C29 1.426 . S
C31 C32 1.375 . S
C31 C35 1.532 . S
C32 H22 0.930 . S
C32 C31 1.375 . S
C32 C33 1.416 . S
C33 C32 1.416 . S
C33 C34 1.371 . S
C34 H23 0.930 . S
C34 C30 1.389 . S
C34 C33 1.371 . S
C35 H24 0.970 . S
C35 H25 0.970 . S
C35 C31 1.532 . S
C35 C36 1.499 . S
C36 C35 1.499 . S
C36 C37 1.370 1_554 S
C36 C41 1.415 . S
C37 H26 0.930 . S
C37 C36 1.370 1_556 S
C37 C38 1.407 . S
C38 C37 1.407 . S
C38 C39 1.365 1_556 S
C39 H27 0.930 . S
C39 C38 1.365 1_554 S
C39 C40 1.393 . S
C40 C39 1.393 . S
C40 C41 1.387 . S
C41 H28 0.930 . S
C41 C36 1.415 . S
C41 C40 1.387 . S
H42 C50 0.930 . S
H43 C53 0.930 . S
H44 C55 0.930 . S
H45 C56 0.970 . S
H46 C56 0.970 . S
H47 C58 0.930 . S
H48 C60 0.930 . S
H49 C62 0.930 . S
C50 H42 0.930 . S
C50 C51 1.382 . S
C50 C52 1.426 1_556 S
C51 C50 1.382 . S
C51 C55 1.389 1_556 S
C52 C50 1.426 1_554 S
C52 C53 1.375 . S
C52 C56 1.532 . S
C53 H43 0.930 . S
C53 C52 1.375 . S
C53 C54 1.416 . S
C54 C53 1.416 . S
C54 C55 1.371 . S
C55 H44 0.930 . S
C55 C51 1.389 1_554 S
C55 C54 1.371 . S
C56 H45 0.970 . S
C56 H46 0.970 . S
C56 C52 1.532 . S
C56 C57 1.499 . S
C57 C56 1.499 . S
C57 C58 1.370 1_554 S
C57 C62 1.415 . S
C58 H47 0.930 . S
C58 C57 1.370 1_556 S
C58 C59 1.407 . S
C59 C58 1.407 . S
C59 C60 1.365 1_556 S
C60 H48 0.930 . S
C60 C59 1.365 1_554 S
C60 C61 1.393 . S
C61 C60 1.393 . S
C61 C62 1.387 . S
C62 H49 0.930 . S
C62 C57 1.415 . S
C62 C61 1.387 . S
H63 C71 0.930 . S
H64 C74 0.930 . S
H65 C76 0.930 1_556 S
H66 C77 0.970 1_556 S
H67 C77 0.970 . S
H68 C79 0.930 . S
H69 C81 0.930 . S
H70 C83 0.930 . S
C71 H63 0.930 . S
C71 C72 1.382 . S
C71 C73 1.426 1_556 S
C72 C71 1.382 . S
C72 C76 1.389 1_556 S
C73 C71 1.426 1_554 S
C73 C74 1.375 . S
C73 C77 1.532 . S
C74 H64 0.930 . S
C74 C73 1.375 . S
C74 C75 1.416 . S
C75 C74 1.416 . S
C75 C76 1.371 . S
C76 H65 0.930 1_554 S
C76 C72 1.389 1_554 S
C76 C75 1.371 . S
C77 H66 0.970 1_554 S
C77 H67 0.970 . S
C77 C73 1.532 . S
C77 C78 1.499 . S
C78 C77 1.499 . S
C78 C79 1.370 1_554 S
C78 C83 1.415 . S
C79 H68 0.930 . S
C79 C78 1.370 1_556 S
C79 C80 1.407 . S
C80 C79 1.407 . S
C80 C81 1.365 1_556 S
C81 H69 0.930 . S
C81 C80 1.365 1_554 S
C81 C82 1.393 . S
C82 C81 1.393 . S
C82 C83 1.387 . S
C83 H70 0.930 . S
C83 C78 1.415 . S
C83 C82 1.387 . S
H84 C92 0.930 1_556 S
H85 C95 0.930 . S
H86 C97 0.930 . S
H87 C98 0.970 . S
H88 C98 0.970 . S
H89 C100 0.930 1_556 S
H90 C102 0.930 . S
H91 C104 0.930 . S
C92 H84 0.930 1_554 S
C92 C93 1.382 . S
C92 C94 1.426 . S
C93 C92 1.382 . S
C93 C97 1.389 . S
C94 C92 1.426 . S
C94 C95 1.375 . S
C94 C98 1.532 . S
C95 H85 0.930 . S
C95 C94 1.375 . S
C95 C96 1.416 . S
C96 C95 1.416 . S
C96 C97 1.371 . S
C97 H86 0.930 . S
C97 C93 1.389 . S
C97 C96 1.371 . S
C98 H87 0.970 . S
C98 H88 0.970 . S
C98 C94 1.532 . S
C98 C99 1.499 . S
C99 C98 1.499 . S
C99 C100 1.370 . S
C99 C104 1.415 . S
C100 H89 0.930 1_554 S
C100 C99 1.370 . S
C100 C101 1.407 . S
C101 C100 1.407 . S
C101 C102 1.365 . S
C102 H90 0.930 . S
C102 C101 1.365 . S
C102 C103 1.393 . S
C103 C102 1.393 . S
C103 C104 1.387 . S
C104 H91 0.930 . S
C104 C99 1.415 . S
C104 C103 1.387 . S
H105 C113 0.930 . S
H106 C116 0.930 . S
H107 C118 0.930 . S
H108 C119 0.970 . S
H109 C119 0.970 . S
H110 C121 0.930 . S
H111 C123 0.930 . S
H112 C125 0.930 . S
C113 H105 0.930 . S
C113 C114 1.382 . S
C113 C115 1.426 . S
C114 C113 1.382 . S
C114 C118 1.389 . S
C115 C113 1.426 . S
C115 C116 1.375 . S
C115 C119 1.532 . S
C116 H106 0.930 . S
C116 C115 1.375 . S
C116 C117 1.416 . S
C117 C116 1.416 . S
C117 C118 1.371 . S
C118 H107 0.930 . S
C118 C114 1.389 . S
C118 C117 1.371 . S
C119 H108 0.970 . S
C119 H109 0.970 . S
C119 C115 1.532 . S
C119 C120 1.499 . S
C120 C119 1.499 . S
C120 C121 1.370 . S
C120 C125 1.415 . S
C121 H110 0.930 . S
C121 C120 1.370 . S
C121 C122 1.407 . S
C122 C121 1.407 . S
C122 C123 1.365 . S
C123 H111 0.930 . S
C123 C122 1.365 . S
C123 C124 1.393 . S
C124 C123 1.393 . S
C124 C125 1.387 . S
C125 H112 0.930 . S
C125 C120 1.415 . S
C125 C124 1.387 . S
C126 O153 1.312 . S
C126 O154 1.208 . S
C127 O148 1.331 1_554 S
C127 O151 1.244 . S
C128 O150 1.264 . S
C128 O152 1.273 1_556 S
Mg129 O131 1.936 1_455 S
Mg129 O138 2.081 1_455 S
Mg129 O140 2.023 . S
Mg129 O144 2.031 1_455 S
Mg129 O153 2.291 . S
Mg130 O131 1.963 . S
Mg130 O141 1.942 . S
Mg130 O142 1.955 1_655 S
Mg130 O149 1.986 . S
O131 Mg129 1.936 1_655 S
O131 Mg130 1.963 . S
O131 Mg132 1.915 1_655 S
Mg132 O131 1.915 1_455 S
Mg132 O133 1.915 . S
Mg132 O137 2.013 . S
Mg132 O143 2.114 1_455 S
Mg132 O147 2.013 1_455 S
Mg132 O153 2.114 . S
O133 Mg132 1.915 . S
O133 Mg134 1.936 . S
O133 Mg135 1.963 1_556 S
Mg134 O133 1.936 . S
Mg134 O143 2.291 1_455 S
Mg134 O148 2.081 . S
Mg134 O150 2.023 1_455 S
Mg134 O154 2.031 . S
Mg135 O133 1.963 1_554 S
Mg135 O139 1.986 . S
Mg135 O151 1.942 . S
Mg135 O152 1.955 1_455 S
C136 O147 1.191 . S
C136 O149 1.307 . S
O137 Mg132 2.013 . S
O137 C156 1.191 . S
O138 Mg129 2.081 1_655 S
O138 C146 1.331 . S
O139 Mg135 1.986 . S
O139 C156 1.307 1_554 S
O140 Mg129 2.023 . S
O140 C155 1.264 . S
O141 Mg130 1.942 . S
O141 C146 1.244 . S
O142 Mg130 1.955 1_455 S
O142 C155 1.273 . S
O143 Mg132 2.114 1_655 S
O143 Mg134 2.291 1_655 S
O143 C145 1.312 . S
O144 Mg129 2.031 1_655 S
O144 C145 1.208 . S
C145 O143 1.312 . S
C145 O144 1.208 . S
C146 O138 1.331 . S
C146 O141 1.244 . S
O147 Mg132 2.013 1_655 S
O147 C136 1.191 . S
O148 C127 1.331 1_556 S
O148 Mg134 2.081 . S
O149 Mg130 1.986 . S
O149 C136 1.307 . S
O150 C128 1.264 . S
O150 Mg134 2.023 1_655 S
O151 C127 1.244 . S
O151 Mg135 1.942 . S
O152 C128 1.273 1_554 S
O152 Mg135 1.955 1_655 S
O153 C126 1.312 . S
O153 Mg129 2.291 . S
O153 Mg132 2.114 . S
O154 C126 1.208 . S
O154 Mg134 2.031 . S
C155 O140 1.264 . S
C155 O142 1.273 . S
C156 O137 1.191 . S
C156 O139 1.307 1_556 S
C157 O184 1.312 . S
C157 O185 1.208 . S
C158 O179 1.331 . S
C158 O182 1.244 . S
C159 O181 1.264 . S
C159 O183 1.273 . S
Mg160 O162 1.936 1_545 S
Mg160 O169 2.081 1_545 S
Mg160 O171 2.023 . S
Mg160 O175 2.031 1_545 S
Mg160 O184 2.291 . S
Mg161 O162 1.960 1_554 S
Mg161 O172 1.944 . S
Mg161 O173 1.941 1_565 S
Mg161 O180 1.999 1_554 S
O162 Mg160 1.936 1_565 S
O162 Mg161 1.960 1_556 S
O162 Mg163 1.915 1_565 S
Mg163 O162 1.915 1_545 S
Mg163 O164 1.915 . S
Mg163 O168 2.013 . S
Mg163 O174 2.114 1_545 S
Mg163 O178 2.013 1_545 S
Mg163 O184 2.114 . S
O164 Mg163 1.915 . S
O164 Mg165 1.936 . S
O164 Mg166 1.963 . S
Mg165 O164 1.936 . S
Mg165 O174 2.291 1_545 S
Mg165 O179 2.081 . S
Mg165 O181 2.023 1_545 S
Mg165 O185 2.031 . S
Mg166 O164 1.963 . S
Mg166 O170 1.986 . S
Mg166 O182 1.942 . S
Mg166 O183 1.955 1_545 S
C167 O178 1.191 . S
C167 O180 1.307 . S
O168 Mg163 2.013 . S
O168 C187 1.191 . S
O169 Mg160 2.081 1_565 S
O169 C177 1.331 . S
O170 Mg166 1.986 . S
O170 C187 1.307 . S
O171 Mg160 2.023 . S
O171 C186 1.264 1_556 S
O172 Mg161 1.944 . S
O172 C177 1.244 1_554 S
O173 Mg161 1.941 1_545 S
O173 C186 1.273 . S
O174 Mg163 2.114 1_565 S
O174 Mg165 2.291 1_565 S
O174 C176 1.312 . S
O175 Mg160 2.031 1_565 S
O175 C176 1.208 . S
C176 O174 1.312 . S
C176 O175 1.208 . S
C177 O169 1.331 . S
C177 O172 1.244 1_556 S
O178 Mg163 2.013 1_565 S
O178 C167 1.191 . S
O179 C158 1.331 . S
O179 Mg165 2.081 . S
O180 Mg161 1.999 1_556 S
O180 C167 1.307 . S
O181 C159 1.264 . S
O181 Mg165 2.023 1_565 S
O182 C158 1.244 . S
O182 Mg166 1.942 . S
O183 C159 1.273 . S
O183 Mg166 1.955 1_565 S
O184 C157 1.312 . S
O184 Mg160 2.291 . S
O184 Mg163 2.114 . S
O185 C157 1.208 . S
O185 Mg165 2.031 . S
C186 O171 1.264 1_554 S
C186 O173 1.273 . S
C187 O168 1.191 . S
C187 O170 1.307 . S
C188 O215 1.312 . S
C188 O216 1.208 . S
C189 O210 1.331 . S
C189 O213 1.244 1_554 S
C190 O212 1.264 1_556 S
C190 O214 1.273 . S
Mg191 O193 1.936 . S
Mg191 O200 2.081 . S
Mg191 O202 2.023 . S
Mg191 O206 2.031 . S
Mg191 O215 2.291 . S
Mg192 O193 1.963 . S
Mg192 O203 1.942 . S
Mg192 O204 1.955 . S
Mg192 O211 1.986 . S
O193 Mg191 1.936 . S
O193 Mg192 1.963 . S
O193 Mg194 1.915 . S
Mg194 O193 1.915 . S
Mg194 O195 1.915 . S
Mg194 O199 2.013 . S
Mg194 O205 2.114 . S
Mg194 O209 2.013 . S
Mg194 O215 2.114 . S
O195 Mg194 1.915 . S
O195 Mg196 1.936 1_556 S
O195 Mg197 1.963 . S
Mg196 O195 1.936 1_554 S
Mg196 O205 2.291 1_554 S
Mg196 O210 2.081 . S
Mg196 O212 2.023 . S
Mg196 O216 2.031 1_554 S
Mg197 O195 1.963 . S
Mg197 O201 1.986 . S
Mg197 O213 1.942 . S
Mg197 O214 1.955 . S
C198 O209 1.191 . S
C198 O211 1.307 . S
O199 Mg194 2.013 . S
O199 C218 1.191 . S
O200 Mg191 2.081 . S
O200 C208 1.331 . S
O201 Mg197 1.986 . S
O201 C218 1.307 . S
O202 Mg191 2.023 . S
O202 C217 1.264 . S
O203 Mg192 1.942 . S
O203 C208 1.244 . S
O204 Mg192 1.955 . S
O204 C217 1.273 . S
O205 Mg194 2.114 . S
O205 Mg196 2.291 1_556 S
O205 C207 1.312 . S
O206 Mg191 2.031 . S
O206 C207 1.208 . S
C207 O205 1.312 . S
C207 O206 1.208 . S
C208 O200 1.331 . S
C208 O203 1.244 . S
O209 Mg194 2.013 . S
O209 C198 1.191 . S
O210 C189 1.331 . S
O210 Mg196 2.081 . S
O211 Mg192 1.986 . S
O211 C198 1.307 . S
O212 C190 1.264 1_554 S
O212 Mg196 2.023 . S
O213 C189 1.244 1_556 S
O213 Mg197 1.942 . S
O214 C190 1.273 . S
O214 Mg197 1.955 . S
O215 C188 1.312 . S
O215 Mg191 2.291 . S
O215 Mg194 2.114 . S
O216 C188 1.208 . S
O216 Mg196 2.031 1_556 S
C217 O202 1.264 . S
C217 O204 1.273 . S
C218 O199 1.191 . S
C218 O201 1.307 . S
C12 C126 1.866 . S
C40 C158 1.331 . S
C217 C61 1.956 . S
C146 C82 1.216 . S
C96 C176 1.820 . S
C198 C117 1.130 . S
C167 C51 2.139 . S
C72 C207 1.436 . S
C156 C101 1.883 1_556 S
C122 C186 1.221 . S
C17 C189 1.665 . S
C128 C30 1.495 1_556 S
C136 C80 1.968 . S
C177 C93 1.222 1_556 S
C190 C114 1.928 1_556 S
C127 C9 1.283 . S
C187 C38 1.959 . S
C59 C188 1.269 . S
C157 C124 1.784 . S
C218 C19 1.140 . S
C145 C33 1.962 . S
C159 C54 1.360 . S
C75 C208 1.775 . S
C103 C155 1.350 . S
