# Generated by pormake.
# Topology nom, (4,4)-cn, num edge types: 1
# Building blocks:
#     Node 0, Type 0, BuildingBlock: KUFVIS_clean_linker_0, # of connection points: 4
#     Node 1, Type 0, BuildingBlock: KUFVIS_clean_linker_0, # of connection points: 4
#     Node 2, Type 0, BuildingBlock: KUFVIS_clean_linker_0, # of connection points: 4
#     Node 3, Type 0, BuildingBlock: KUFVIS_clean_linker_0, # of connection points: 4
#     Node 4, Type 0, BuildingBlock: KUFVIS_clean_linker_0, # of connection points: 4
#     Node 5, Type 0, BuildingBlock: KUFVIS_clean_linker_0, # of connection points: 4
#     Node 6, Type 1, BuildingBlock: QUQFOY_clean_sbu_1, # of connection points: 4
#     Node 7, Type 1, BuildingBlock: QUQFOY_clean_sbu_1, # of connection points: 4
#     Node 8, Type 1, BuildingBlock: QUQFOY_clean_sbu_1, # of connection points: 4
#     Node 9, Type 1, BuildingBlock: QUQFOY_clean_sbu_1, # of connection points: 4
#     Node 10, Type 1, BuildingBlock: QUQFOY_clean_sbu_1, # of connection points: 4
#     Node 11, Type 1, BuildingBlock: QUQFOY_clean_sbu_1, # of connection points: 4
#     Edge 12, Type (0, 1), None
#     Edge 13, Type (0, 1), None
#     Edge 14, Type (0, 1), None
#     Edge 15, Type (0, 1), None
#     Edge 16, Type (0, 1), None
#     Edge 17, Type (0, 1), None
#     Edge 18, Type (0, 1), None
#     Edge 19, Type (0, 1), None
#     Edge 20, Type (0, 1), None
#     Edge 21, Type (0, 1), None
#     Edge 22, Type (0, 1), None
#     Edge 23, Type (0, 1), None
#     Edge 24, Type (0, 1), None
#     Edge 25, Type (0, 1), None
#     Edge 26, Type (0, 1), None
#     Edge 27, Type (0, 1), None
#     Edge 28, Type (0, 1), None
#     Edge 29, Type (0, 1), None
#     Edge 30, Type (0, 1), None
#     Edge 31, Type (0, 1), None
#     Edge 32, Type (0, 1), None
#     Edge 33, Type (0, 1), None
#     Edge 34, Type (0, 1), None
#     Edge 35, Type (0, 1), None
# Relax obj value: 0.004
# Max RMSD: 0.074
# Mean RMSD: 0.071
data_MOF--net-nom--node1-QUQFOY_clean_sbu_1--node2-KUFVIS_clean_linker_0--edge1-none
_symmetry_space_group_name_H-M    P1
_symmetry_Int_Tables_number       1
_symmetry_cell_setting            triclinic
loop_
_symmetry_equiv_pos_as_xyz
'x, y, z'
_cell_length_a     21.319676
_cell_length_b     21.320815
_cell_length_c     22.417742
_cell_angle_alpha  89.998907
_cell_angle_beta   90.001012
_cell_angle_gamma 119.99902
loop_
_atom_site_label
_atom_site_type_symbol
_atom_site_fract_x
_atom_site_fract_y
_atom_site_fract_z
_atom_type_partial_charge
H0 H 0.3227 0.7038 0.3196 0.0
H1 H 0.16568 0.67668 0.18702 0.0
H2 H 0.09683 0.57712 0.36078 0.0
H3 H 0.99978 0.59373 0.33408 0.0
H4 H 0.84275 0.46381 0.20151 0.0
H5 H 1.06863 0.56301 0.16032 0.0
C6 C 0.26668 0.67925 0.30529 0.0
C7 C 0.2114 0.63963 0.34628 0.0
C8 C 0.25057 0.69374 0.2482 0.0
C9 C 0.17787 0.66453 0.231 0.0
C10 C 0.12126 0.61986 0.27054 0.0
C11 C 0.13897 0.60965 0.32896 0.0
C12 C 1.0442 0.58133 0.25056 0.0
C13 C 0.98758 0.56938 0.2901 0.0
C14 C 0.91488 0.52589 0.2729 0.0
C15 C 0.89878 0.49529 0.21581 0.0
C16 C 0.95405 0.51094 0.17482 0.0
C17 C 1.02649 0.5534 0.19214 0.0
H18 H 0.67661 0.29767 0.48627 0.0
H19 H 0.54668 0.14066 0.35369 0.0
H20 H 0.5774 0.07181 0.52745 0.0
H21 H 0.46373 0.97476 0.50074 0.0
H22 H 0.43663 0.81775 0.36817 0.0
H23 H 0.5633 1.04361 0.32698 0.0
C24 C 0.64513 0.24165 0.47196 0.0
C25 C 0.62948 0.18637 0.51295 0.0
C26 C 0.61453 0.22555 0.41486 0.0
C27 C 0.57103 0.15285 0.39766 0.0
C28 C 0.55909 0.09624 0.43721 0.0
C29 C 0.58702 0.11395 0.49563 0.0
C30 C 0.52056 1.01919 0.41722 0.0
C31 C 0.47589 0.96257 0.45677 0.0
C32 C 0.44668 0.88987 0.43957 0.0
C33 C 0.46118 0.87377 0.38247 0.0
C34 C 0.5008 0.92905 0.34148 0.0
C35 C 0.53077 1.00147 0.35881 0.0
H36 H 0.6766 0.41161 0.53484 0.0
H37 H 0.54669 0.43872 0.66742 0.0
H38 H 0.57741 0.53829 0.49367 0.0
H39 H 0.46374 0.52167 0.52037 0.0
H40 H 0.43665 0.65159 0.65294 0.0
H41 H 0.56332 0.55238 0.69413 0.0
C42 C 0.64513 0.43616 0.54915 0.0
C43 C 0.62948 0.47578 0.50816 0.0
C44 C 0.61454 0.42167 0.60625 0.0
C45 C 0.57104 0.45087 0.62345 0.0
C46 C 0.55909 0.49554 0.5839 0.0
C47 C 0.58702 0.50576 0.52549 0.0
C48 C 0.52057 0.53407 0.60389 0.0
C49 C 0.4759 0.54602 0.56435 0.0
C50 C 0.44669 0.58951 0.58154 0.0
C51 C 0.46119 0.62011 0.63864 0.0
C52 C 0.50082 0.60446 0.67963 0.0
C53 C 0.53079 0.562 0.66231 0.0
H54 H 0.3227 0.65161 0.70151 0.0
H55 H 0.16568 0.52169 0.83408 0.0
H56 H 0.09683 0.5524 0.66032 0.0
H57 H 0.99978 0.43873 0.68703 0.0
H58 H 0.84275 0.4116 0.8196 0.0
H59 H 1.06863 0.53829 0.86078 0.0
C60 C 0.26667 0.62013 0.71582 0.0
C61 C 0.2114 0.60448 0.67482 0.0
C62 C 0.25057 0.58954 0.77291 0.0
C63 C 0.17788 0.54604 0.79011 0.0
C64 C 0.12126 0.53409 0.75056 0.0
C65 C 0.13897 0.56202 0.69214 0.0
C66 C 1.0442 0.49555 0.77055 0.0
C67 C 0.98758 0.45088 0.731 0.0
C68 C 0.91488 0.42166 0.7482 0.0
C69 C 0.89878 0.43615 0.8053 0.0
C70 C 0.95405 0.47578 0.84629 0.0
C71 C 1.02648 0.50576 0.82896 0.0
H72 H 0.48885 0.81774 -0.01374 0.0
H73 H 0.61878 0.97476 0.85369 0.0
H74 H 0.58805 1.0436 0.02745 0.0
H75 H 0.70172 0.14065 0.00074 0.0
H76 H 0.72882 0.29766 0.86817 0.0
H77 H 0.60216 0.0718 0.82699 0.0
C78 C 0.52033 0.87377 -0.02804 0.0
C79 C 0.53598 0.92904 0.01295 0.0
C80 C 0.55093 0.88987 0.91486 0.0
C81 C 0.59443 0.96256 0.89767 0.0
C82 C 0.60637 1.01918 -0.06279 0.0
C83 C 0.57844 1.00146 -0.00437 0.0
C84 C 0.6449 0.09623 0.91722 0.0
C85 C 0.68957 0.15285 -0.04323 0.0
C86 C 0.71877 0.22554 -0.06043 0.0
C87 C 0.70428 0.24164 0.88247 0.0
C88 C 0.66465 0.18637 0.84149 0.0
C89 C 0.63468 0.11394 0.85881 0.0
H90 H 0.48886 0.70381 0.03484 0.0
H91 H 0.61878 0.67671 0.16742 0.0
H92 H 0.58806 0.57715 -0.00633 0.0
H93 H 0.70173 0.59376 0.02037 0.0
H94 H 0.72881 0.46383 0.15294 0.0
H95 H 0.60216 0.56305 0.19413 0.0
C96 C 0.52034 0.67927 0.04915 0.0
C97 C 0.53599 0.63964 0.00816 0.0
C98 C 0.55093 0.69376 0.10625 0.0
C99 C 0.59443 0.66456 0.12345 0.0
C100 C 0.60638 0.61989 0.0839 0.0
C101 C 0.57845 0.60967 0.02549 0.0
C102 C 0.6449 0.58136 0.10389 0.0
C103 C 0.68957 0.56941 0.06434 0.0
C104 C 0.71877 0.52591 0.08154 0.0
C105 C 0.70427 0.49531 0.13864 0.0
C106 C 0.66465 0.51097 0.17963 0.0
C107 C 0.63468 0.55343 0.16231 0.0
O108 O 0.60334 0.44372 0.40693 0.0
Cd109 Cd 0.6274 0.39028 0.34199 0.0
Cd110 Cd 0.75016 0.51302 0.3458 0.0
O111 O 0.71784 0.50119 0.43378 0.0
O112 O 0.56556 0.28318 0.35363 0.0
O113 O 0.68246 0.34655 0.37674 0.0
C114 C 0.62196 0.2858 0.37761 0.0
C115 C 0.85463 0.51847 0.31016 0.0
C116 C 0.65171 0.47838 0.44597 0.0
C117 C 0.66205 0.48873 0.24182 0.0
O118 O 0.69671 0.5371 0.28086 0.0
O119 O 0.63924 0.4226 0.254 0.0
O120 O 0.85726 0.57485 0.33415 0.0
O121 O 0.79388 0.45796 0.31103 0.0
O122 O 0.21733 0.57834 0.57359 0.0
Cd123 Cd 0.29485 0.6024 0.50866 0.0
Cd124 Cd 0.29484 0.72515 0.51246 0.0
O125 O 0.27435 0.69283 0.60044 0.0
O126 O 0.3401 0.54056 0.52031 0.0
O127 O 0.39364 0.65745 0.54341 0.0
C128 C 0.39387 0.59694 0.54429 0.0
C129 C 0.39386 0.82962 0.47683 0.0
C130 C 0.23104 0.62671 0.61263 0.0
C131 C 0.23104 0.63704 0.40847 0.0
O132 O 0.21733 0.6717 0.44751 0.0
O133 O 0.27436 0.61423 0.42067 0.0
O134 O 0.34009 0.83225 0.50081 0.0
O135 O 0.39363 0.76889 0.4777 0.0
O136 O 0.69672 0.1923 0.74025 0.0
Cd137 Cd 0.75016 0.26981 0.67531 0.0
Cd138 Cd 0.62741 0.26981 0.67912 0.0
O139 O 0.63924 0.24932 0.76711 0.0
O140 O 0.85727 0.31508 0.68696 0.0
O141 O 0.79389 0.3686 0.71007 0.0
C142 C 0.85463 0.36884 0.71094 0.0
C143 C 0.62196 0.36884 0.6435 0.0
C144 C 0.66206 0.20601 0.77929 0.0
C145 C 0.65171 0.20601 0.57514 0.0
O146 O 0.60334 0.1923 0.61418 0.0
O147 O 0.71784 0.24932 0.58733 0.0
O148 O 0.56557 0.31508 0.66748 0.0
O149 O 0.68246 0.3686 0.64437 0.0
O150 O 0.56213 0.6717 0.90693 0.0
Cd151 Cd 0.53806 0.72515 0.84199 0.0
Cd152 Cd 0.41531 0.60241 0.84579 0.0
O153 O 0.44763 0.61424 0.93378 0.0
O154 O 0.5999 0.83225 0.85363 0.0
O155 O 0.483 0.76887 0.87674 0.0
C156 C 0.5435 0.82961 0.87761 0.0
C157 C 0.31083 0.59696 0.81016 0.0
C158 C 0.51376 0.63705 -0.05403 0.0
C159 C 0.50342 0.62669 0.74182 0.0
O160 O 0.46875 0.57833 0.78086 0.0
O161 O 0.52623 0.69282 0.754 0.0
O162 O 0.3082 0.54057 0.83415 0.0
O163 O 0.37158 0.65746 0.81103 0.0
O164 O 0.94813 0.44372 -0.05248 0.0
Cd165 Cd 0.87061 0.39027 0.01246 0.0
Cd166 Cd 0.87061 0.51301 0.00865 0.0
O167 O 0.8911 0.50118 0.92067 0.0
O168 O 0.82536 0.28317 0.00081 0.0
O169 O 0.77182 0.34653 -0.0223 0.0
C170 C 0.77159 0.28579 -0.02317 0.0
C171 C 0.77159 0.51848 0.04428 0.0
C172 C 0.93441 0.47838 0.90848 0.0
C173 C 0.93442 0.48871 0.11263 0.0
O174 O 0.94813 0.53708 0.07359 0.0
O175 O 0.8911 0.42258 0.10044 0.0
O176 O 0.82536 0.57486 0.0203 0.0
O177 O 0.77182 0.45797 0.04341 0.0
O178 O 0.56212 0.92312 0.11418 0.0
Cd179 Cd 0.53806 0.84561 0.17912 0.0
Cd180 Cd 0.4153 0.84559 0.17531 0.0
O181 O 0.44762 0.86608 0.08733 0.0
O182 O 0.5999 0.80035 0.16748 0.0
O183 O 0.483 0.74682 0.14437 0.0
C184 C 0.54351 0.74659 0.1435 0.0
C185 C 0.31083 0.74657 0.21094 0.0
C186 C 0.51375 0.9094 0.07514 0.0
C187 C 0.5034 0.90941 0.27929 0.0
O188 O 0.46873 0.92311 0.24025 0.0
O189 O 0.52622 0.8661 0.26711 0.0
O190 O 0.30819 0.80032 0.18695 0.0
O191 O 0.37157 0.74681 0.21007 0.0
loop_
_geom_bond_atom_site_label_1
_geom_bond_atom_site_label_2
_geom_bond_distance
_geom_bond_site_symmetry_2
_ccdc_geom_bond_type
H0 C6 0.930 . S
H1 C9 0.931 . S
H2 C11 0.931 . S
H3 C13 0.930 . S
H4 C15 0.930 . S
H5 C17 0.931 . S
C6 H0 0.930 . S
C6 C7 1.380 . S
C6 C8 1.394 . S
C7 C6 1.380 . S
C7 C11 1.382 . S
C8 C6 1.394 . S
C8 C9 1.400 . S
C9 H1 0.931 . S
C9 C8 1.400 . S
C9 C10 1.375 . S
C10 C9 1.375 . S
C10 C11 1.415 . S
C10 C12 1.501 1_455 S
C11 H2 0.931 . S
C11 C7 1.382 . S
C11 C10 1.415 . S
C12 C10 1.501 1_655 S
C12 C13 1.384 . S
C12 C17 1.408 . S
C13 H3 0.930 . S
C13 C12 1.384 . S
C13 C14 1.389 . S
C14 C13 1.389 . S
C14 C15 1.405 . S
C15 H4 0.930 . S
C15 C14 1.405 . S
C15 C16 1.364 . S
C16 C15 1.364 . S
C16 C17 1.400 . S
C17 H5 0.931 . S
C17 C12 1.408 . S
C17 C16 1.400 . S
H18 C24 0.930 . S
H19 C27 0.931 . S
H20 C29 0.931 . S
H21 C31 0.930 . S
H22 C33 0.930 . S
H23 C35 0.931 . S
C24 H18 0.930 . S
C24 C25 1.380 . S
C24 C26 1.394 . S
C25 C24 1.380 . S
C25 C29 1.382 . S
C26 C24 1.394 . S
C26 C27 1.400 . S
C27 H19 0.931 . S
C27 C26 1.400 . S
C27 C28 1.375 . S
C28 C27 1.375 . S
C28 C29 1.415 . S
C28 C30 1.501 1_545 S
C29 H20 0.931 . S
C29 C25 1.382 . S
C29 C28 1.415 . S
C30 C28 1.501 1_565 S
C30 C31 1.384 . S
C30 C35 1.408 . S
C31 H21 0.930 . S
C31 C30 1.384 . S
C31 C32 1.389 . S
C32 C31 1.389 . S
C32 C33 1.405 . S
C33 H22 0.930 . S
C33 C32 1.405 . S
C33 C34 1.364 . S
C34 C33 1.364 . S
C34 C35 1.400 . S
C35 H23 0.931 . S
C35 C30 1.408 . S
C35 C34 1.400 . S
H36 C42 0.930 . S
H37 C45 0.931 . S
H38 C47 0.931 . S
H39 C49 0.930 . S
H40 C51 0.930 . S
H41 C53 0.931 . S
C42 H36 0.930 . S
C42 C43 1.380 . S
C42 C44 1.394 . S
C43 C42 1.380 . S
C43 C47 1.382 . S
C44 C42 1.394 . S
C44 C45 1.400 . S
C45 H37 0.931 . S
C45 C44 1.400 . S
C45 C46 1.375 . S
C46 C45 1.375 . S
C46 C47 1.415 . S
C46 C48 1.501 . S
C47 H38 0.931 . S
C47 C43 1.382 . S
C47 C46 1.415 . S
C48 C46 1.501 . S
C48 C49 1.384 . S
C48 C53 1.408 . S
C49 H39 0.930 . S
C49 C48 1.384 . S
C49 C50 1.389 . S
C50 C49 1.389 . S
C50 C51 1.405 . S
C51 H40 0.930 . S
C51 C50 1.405 . S
C51 C52 1.364 . S
C52 C51 1.364 . S
C52 C53 1.400 . S
C53 H41 0.931 . S
C53 C48 1.408 . S
C53 C52 1.400 . S
H54 C60 0.930 . S
H55 C63 0.931 . S
H56 C65 0.931 . S
H57 C67 0.930 . S
H58 C69 0.930 . S
H59 C71 0.931 . S
C60 H54 0.930 . S
C60 C61 1.380 . S
C60 C62 1.394 . S
C61 C60 1.380 . S
C61 C65 1.382 . S
C62 C60 1.394 . S
C62 C63 1.400 . S
C63 H55 0.931 . S
C63 C62 1.400 . S
C63 C64 1.375 . S
C64 C63 1.375 . S
C64 C65 1.415 . S
C64 C66 1.501 1_455 S
C65 H56 0.931 . S
C65 C61 1.382 . S
C65 C64 1.415 . S
C66 C64 1.501 1_655 S
C66 C67 1.384 . S
C66 C71 1.408 . S
C67 H57 0.930 . S
C67 C66 1.384 . S
C67 C68 1.389 . S
C68 C67 1.389 . S
C68 C69 1.405 . S
C69 H58 0.930 . S
C69 C68 1.405 . S
C69 C70 1.364 . S
C70 C69 1.364 . S
C70 C71 1.400 . S
C71 H59 0.931 . S
C71 C66 1.408 . S
C71 C70 1.400 . S
H72 C78 0.930 . S
H73 C81 0.931 . S
H74 C83 0.931 . S
H75 C85 0.930 . S
H76 C87 0.930 . S
H77 C89 0.931 . S
C78 H72 0.930 . S
C78 C79 1.380 . S
C78 C80 1.394 1_554 S
C79 C78 1.380 . S
C79 C83 1.382 . S
C80 C78 1.394 1_556 S
C80 C81 1.400 . S
C81 H73 0.931 . S
C81 C80 1.400 . S
C81 C82 1.375 1_556 S
C82 C81 1.375 1_554 S
C82 C83 1.415 . S
C82 C84 1.501 1_564 S
C83 H74 0.931 . S
C83 C79 1.382 . S
C83 C82 1.415 . S
C84 C82 1.501 1_546 S
C84 C85 1.384 1_556 S
C84 C89 1.408 . S
C85 H75 0.930 . S
C85 C84 1.384 1_554 S
C85 C86 1.389 . S
C86 C85 1.389 . S
C86 C87 1.405 1_554 S
C87 H76 0.930 . S
C87 C86 1.405 1_556 S
C87 C88 1.364 . S
C88 C87 1.364 . S
C88 C89 1.400 . S
C89 H77 0.931 . S
C89 C84 1.408 . S
C89 C88 1.400 . S
H90 C96 0.930 . S
H91 C99 0.931 . S
H92 C101 0.931 . S
H93 C103 0.930 . S
H94 C105 0.930 . S
H95 C107 0.931 . S
C96 H90 0.930 . S
C96 C97 1.380 . S
C96 C98 1.394 . S
C97 C96 1.380 . S
C97 C101 1.382 . S
C98 C96 1.394 . S
C98 C99 1.400 . S
C99 H91 0.931 . S
C99 C98 1.400 . S
C99 C100 1.375 . S
C100 C99 1.375 . S
C100 C101 1.415 . S
C100 C102 1.501 . S
C101 H92 0.931 . S
C101 C97 1.382 . S
C101 C100 1.415 . S
C102 C100 1.501 . S
C102 C103 1.384 . S
C102 C107 1.408 . S
C103 H93 0.930 . S
C103 C102 1.384 . S
C103 C104 1.389 . S
C104 C103 1.389 . S
C104 C105 1.405 . S
C105 H94 0.930 . S
C105 C104 1.405 . S
C105 C106 1.364 . S
C106 C105 1.364 . S
C106 C107 1.400 . S
C107 H95 0.931 . S
C107 C102 1.408 . S
C107 C106 1.400 . S
O108 Cd109 2.223 . S
O108 C116 1.315 . S
Cd109 O108 2.223 . S
Cd109 O112 2.297 . S
Cd109 O113 2.439 . S
Cd109 O119 2.240 . S
Cd110 O111 2.240 . S
Cd110 O118 2.223 . S
Cd110 O120 2.297 . S
Cd110 O121 2.439 . S
O111 Cd110 2.240 . S
O111 C116 1.279 . S
O112 Cd109 2.297 . S
O112 C114 1.247 . S
O113 Cd109 2.439 . S
O113 C114 1.208 . S
C114 O112 1.247 . S
C114 O113 1.208 . S
C115 O120 1.247 . S
C115 O121 1.208 . S
C116 O108 1.315 . S
C116 O111 1.279 . S
C117 O118 1.315 . S
C117 O119 1.279 . S
O118 Cd110 2.223 . S
O118 C117 1.315 . S
O119 Cd109 2.240 . S
O119 C117 1.279 . S
O120 Cd110 2.297 . S
O120 C115 1.247 . S
O121 Cd110 2.439 . S
O121 C115 1.208 . S
O122 Cd123 2.223 . S
O122 C130 1.315 . S
Cd123 O122 2.223 . S
Cd123 O126 2.297 . S
Cd123 O127 2.439 . S
Cd123 O133 2.240 . S
Cd124 O125 2.240 . S
Cd124 O132 2.223 . S
Cd124 O134 2.297 . S
Cd124 O135 2.439 . S
O125 Cd124 2.240 . S
O125 C130 1.279 . S
O126 Cd123 2.297 . S
O126 C128 1.247 . S
O127 Cd123 2.439 . S
O127 C128 1.208 . S
C128 O126 1.247 . S
C128 O127 1.208 . S
C129 O134 1.247 . S
C129 O135 1.208 . S
C130 O122 1.315 . S
C130 O125 1.279 . S
C131 O132 1.315 . S
C131 O133 1.279 . S
O132 Cd124 2.223 . S
O132 C131 1.315 . S
O133 Cd123 2.240 . S
O133 C131 1.279 . S
O134 Cd124 2.297 . S
O134 C129 1.247 . S
O135 Cd124 2.439 . S
O135 C129 1.208 . S
O136 Cd137 2.223 . S
O136 C144 1.315 . S
Cd137 O136 2.223 . S
Cd137 O140 2.297 . S
Cd137 O141 2.439 . S
Cd137 O147 2.240 . S
Cd138 O139 2.240 . S
Cd138 O146 2.223 . S
Cd138 O148 2.297 . S
Cd138 O149 2.439 . S
O139 Cd138 2.240 . S
O139 C144 1.279 . S
O140 Cd137 2.297 . S
O140 C142 1.247 . S
O141 Cd137 2.439 . S
O141 C142 1.208 . S
C142 O140 1.247 . S
C142 O141 1.208 . S
C143 O148 1.247 . S
C143 O149 1.208 . S
C144 O136 1.315 . S
C144 O139 1.279 . S
C145 O146 1.315 . S
C145 O147 1.279 . S
O146 Cd138 2.223 . S
O146 C145 1.315 . S
O147 Cd137 2.240 . S
O147 C145 1.279 . S
O148 Cd138 2.297 . S
O148 C143 1.247 . S
O149 Cd138 2.439 . S
O149 C143 1.208 . S
O150 Cd151 2.223 . S
O150 C158 1.315 . S
Cd151 O150 2.223 . S
Cd151 O154 2.297 . S
Cd151 O155 2.439 . S
Cd151 O161 2.240 . S
Cd152 O153 2.240 . S
Cd152 O160 2.223 . S
Cd152 O162 2.297 . S
Cd152 O163 2.439 . S
O153 Cd152 2.240 . S
O153 C158 1.279 . S
O154 Cd151 2.297 . S
O154 C156 1.247 . S
O155 Cd151 2.439 . S
O155 C156 1.208 . S
C156 O154 1.247 . S
C156 O155 1.208 . S
C157 O162 1.247 . S
C157 O163 1.208 . S
C158 O150 1.315 . S
C158 O153 1.279 . S
C159 O160 1.315 . S
C159 O161 1.279 . S
O160 Cd152 2.223 . S
O160 C159 1.315 . S
O161 Cd151 2.240 . S
O161 C159 1.279 . S
O162 Cd152 2.297 . S
O162 C157 1.247 . S
O163 Cd152 2.439 . S
O163 C157 1.208 . S
O164 Cd165 2.223 . S
O164 C172 1.315 1_554 S
Cd165 O164 2.223 . S
Cd165 O168 2.297 . S
Cd165 O169 2.439 . S
Cd165 O175 2.240 . S
Cd166 O167 2.240 1_554 S
Cd166 O174 2.223 . S
Cd166 O176 2.297 . S
Cd166 O177 2.439 . S
O167 Cd166 2.240 1_556 S
O167 C172 1.279 . S
O168 Cd165 2.297 . S
O168 C170 1.247 . S
O169 Cd165 2.439 . S
O169 C170 1.208 . S
C170 O168 1.247 . S
C170 O169 1.208 . S
C171 O176 1.247 . S
C171 O177 1.208 . S
C172 O164 1.315 1_556 S
C172 O167 1.279 . S
C173 O174 1.315 . S
C173 O175 1.279 . S
O174 Cd166 2.223 . S
O174 C173 1.315 . S
O175 Cd165 2.240 . S
O175 C173 1.279 . S
O176 Cd166 2.297 . S
O176 C171 1.247 . S
O177 Cd166 2.439 . S
O177 C171 1.208 . S
O178 Cd179 2.223 . S
O178 C186 1.315 . S
Cd179 O178 2.223 . S
Cd179 O182 2.297 . S
Cd179 O183 2.439 . S
Cd179 O189 2.240 . S
Cd180 O181 2.240 . S
Cd180 O188 2.223 . S
Cd180 O190 2.297 . S
Cd180 O191 2.439 . S
O181 Cd180 2.240 . S
O181 C186 1.279 . S
O182 Cd179 2.297 . S
O182 C184 1.247 . S
O183 Cd179 2.439 . S
O183 C184 1.208 . S
C184 O182 1.247 . S
C184 O183 1.208 . S
C185 O190 1.247 . S
C185 O191 1.208 . S
C186 O178 1.315 . S
C186 O181 1.279 . S
C187 O188 1.315 . S
C187 O189 1.279 . S
O188 Cd180 2.223 . S
O188 C187 1.315 . S
O189 Cd179 2.240 . S
O189 C187 1.279 . S
O190 Cd180 2.297 . S
O190 C185 1.247 . S
O191 Cd180 2.439 . S
O191 C185 1.208 . S
C185 C8 1.384 . S
C26 C114 1.387 . S
C50 C128 1.388 . S
C68 C142 1.381 . S
C156 C80 1.386 . S
C104 C171 1.379 . S
C32 C129 1.388 . S
C44 C143 1.387 . S
C62 C157 1.384 . S
C170 C86 1.379 . S
C184 C98 1.386 . S
C115 C14 1.381 . S
C7 C131 1.515 . S
C25 C145 1.508 . S
C159 C52 1.520 . S
C70 C172 1.524 . S
C186 C79 1.508 . S
C117 C106 1.520 . S
C187 C34 1.521 . S
C43 C116 1.508 . S
C130 C61 1.516 . S
C88 C144 1.520 . S
C97 C158 1.509 1_554 S
C16 C173 1.523 . S
