# Generated by pormake.
# Topology sit, (3,6)-cn, num edge types: 1
# Building blocks:
#     Node 0, Type 0, BuildingBlock: PAMTOO_clean_linker_0, # of connection points: 3
#     Node 1, Type 0, BuildingBlock: PAMTOO_clean_linker_0, # of connection points: 3
#     Node 2, Type 0, BuildingBlock: PAMTOO_clean_linker_0, # of connection points: 3
#     Node 3, Type 0, BuildingBlock: PAMTOO_clean_linker_0, # of connection points: 3
#     Node 4, Type 1, BuildingBlock: MIDCAF_clean_sbu_0, # of connection points: 6
#     Node 5, Type 1, BuildingBlock: MIDCAF_clean_sbu_0, # of connection points: 6
#     Edge 6, Type (0, 1), BuildingBlock: AJUNOK_clean_linker_0, # of connection points: 2
#     Edge 7, Type (0, 1), BuildingBlock: AJUNOK_clean_linker_0, # of connection points: 2
#     Edge 8, Type (0, 1), BuildingBlock: AJUNOK_clean_linker_0, # of connection points: 2
#     Edge 9, Type (0, 1), BuildingBlock: AJUNOK_clean_linker_0, # of connection points: 2
#     Edge 10, Type (0, 1), BuildingBlock: AJUNOK_clean_linker_0, # of connection points: 2
#     Edge 11, Type (0, 1), BuildingBlock: AJUNOK_clean_linker_0, # of connection points: 2
#     Edge 12, Type (0, 1), BuildingBlock: AJUNOK_clean_linker_0, # of connection points: 2
#     Edge 13, Type (0, 1), BuildingBlock: AJUNOK_clean_linker_0, # of connection points: 2
#     Edge 14, Type (0, 1), BuildingBlock: AJUNOK_clean_linker_0, # of connection points: 2
#     Edge 15, Type (0, 1), BuildingBlock: AJUNOK_clean_linker_0, # of connection points: 2
#     Edge 16, Type (0, 1), BuildingBlock: AJUNOK_clean_linker_0, # of connection points: 2
#     Edge 17, Type (0, 1), BuildingBlock: AJUNOK_clean_linker_0, # of connection points: 2
# Relax obj value: 0.077
# Max RMSD: 0.180
# Mean RMSD: 0.113
data_MOF--net-sit--node1-MIDCAF_clean_sbu_0--node2-PAMTOO_clean_linker_0--edge1-AJUNOK_clean_linker_0
_symmetry_space_group_name_H-M    P1
_symmetry_Int_Tables_number       1
_symmetry_cell_setting            triclinic
loop_
_symmetry_equiv_pos_as_xyz
'x, y, z'
_cell_length_a     16.426347
_cell_length_b     22.208056
_cell_length_c     28.522468
_cell_angle_alpha  90.962106
_cell_angle_beta   89.786738
_cell_angle_gamma 84.518246
loop_
_atom_site_label
_atom_site_type_symbol
_atom_site_fract_x
_atom_site_fract_y
_atom_site_fract_z
_atom_type_partial_charge
H0 H 0.00634 0.44719 0.93147 0.0
H1 H 0.14657 0.37424 0.04903 0.0
H2 H 0.8947 0.34335 0.03391 0.0
H3 H 0.11475 0.24292 0.05661 0.0
C4 C 0.05016 0.25069 0.06887 0.0
O5 O 0.03104 0.31167 0.07856 0.0
H6 H 0.01026 0.23522 0.0405 0.0
C7 C 0.01134 0.42477 0.96481 0.0
C8 C 0.94196 0.40076 -0.01791 0.0
C9 C 0.08584 0.41804 -0.01094 0.0
C10 C 0.09039 0.38178 0.02942 0.0
C11 C 0.02281 0.35272 0.04407 0.0
C12 C 0.94753 0.36443 0.02168 0.0
H13 H 0.01172 0.6423 0.97531 0.0
H14 H 0.83687 0.78873 0.02123 0.0
H15 H 0.09257 0.81115 0.02249 0.0
H16 H 0.90527 0.83493 0.1084 0.0
C17 C 0.91341 0.87648 0.08818 0.0
O18 O 0.94656 0.86215 0.04424 0.0
H19 H 0.85114 0.89969 0.08321 0.0
C20 C -0.00215 0.68684 -0.00895 0.0
C21 C 0.0613 0.72351 -0.00113 0.0
C22 C 0.91616 0.70962 -0.00137 0.0
C23 C 0.89937 0.76894 0.017 0.0
C24 C -0.03679 0.80441 0.02811 0.0
C25 C 0.04395 0.78185 0.0182 0.0
H26 H 0.5439 0.95484 0.43283 0.0
H27 H 0.69925 0.83728 0.51883 0.0
H28 H 0.44248 0.86003 0.54732 0.0
H29 H 0.5728 0.85066 0.62626 0.0
C30 C 0.60261 0.80681 0.61229 0.0
O31 O 0.57964 0.79735 0.56663 0.0
H32 H 0.66989 0.80931 0.61339 0.0
C33 C 0.55031 0.92526 0.46268 0.0
C34 C 0.48109 0.91047 0.4876 0.0
C35 C 0.62881 0.90116 0.47512 0.0
C36 C 0.63891 0.8585 0.51066 0.0
C37 C 0.57087 0.84243 0.53532 0.0
C38 C 0.49304 0.87073 0.52564 0.0
H39 H 0.49457 0.14473 0.46314 0.0
H40 H 0.38098 0.31024 0.52505 0.0
H41 H 0.64157 0.28359 0.51073 0.0
H42 H 0.63062 0.37836 0.56359 0.0
C43 C 0.57146 0.36776 0.57885 0.0
O44 O 0.51931 0.35755 0.54208 0.0
H45 H 0.58436 0.32616 0.59994 0.0
C46 C 0.4999 0.18752 0.48123 0.0
C47 C 0.57731 0.2077 0.48815 0.0
C48 C 0.42894 0.22482 0.49324 0.0
C49 C 0.43552 0.28076 0.51632 0.0
C50 C 0.51264 0.30132 0.52375 0.0
C51 C 0.58276 0.26554 0.50804 0.0
Zn52 Zn -0.00396 0.17937 0.3449 0.0
Zn53 Zn 0.05595 0.95185 0.33167 0.0
Zn54 Zn 0.0351 1.06333 0.34144 0.0
C55 C 0.0626 0.98395 0.24291 0.0
C56 C 0.90838 0.96926 0.37327 0.0
O57 O 0.13546 0.10107 0.38147 0.0
O58 O 0.09569 0.19897 0.3776 0.0
C59 C 0.00952 0.15046 0.25118 0.0
O60 O 0.03844 1.03403 0.26478 0.0
O61 O 0.08737 0.93823 0.26623 0.0
O62 O -0.05188 0.92726 0.35026 0.0
O63 O 0.93353 1.02243 0.37535 0.0
O64 O -0.01347 0.19507 0.27748 0.0
O65 O 0.03143 0.09827 0.26869 0.0
O66 O 0.91803 0.08495 0.38066 0.0
O67 O 0.89576 0.18489 0.38239 0.0
C68 C 0.87479 0.13396 0.3935 0.0
O69 O 0.14933 1.03611 0.38071 0.0
O70 O 0.14216 0.93747 0.37749 0.0
C71 C 0.14653 0.1567 0.39114 0.0
C72 C 0.1761 0.98218 0.39297 0.0
Zn73 Zn 0.50462 0.67977 0.85751 0.0
Zn74 Zn 0.50467 0.45631 0.83637 0.0
Zn75 Zn 0.50387 0.56639 0.84603 0.0
C76 C 0.48492 0.49425 0.74739 0.0
C77 C 0.37445 0.4864 0.89323 0.0
O78 O 0.61368 0.58352 0.88824 0.0
O79 O 0.59701 0.6826 0.90033 0.0
C80 C 0.52054 0.66009 0.76226 0.0
O81 O 0.50411 0.54286 0.76854 0.0
O82 O 0.4719 0.44878 0.77105 0.0
O83 O 0.42176 0.44046 0.88194 0.0
O84 O 0.3911 0.53943 0.88057 0.0
O85 O 0.51969 0.70213 0.79249 0.0
O86 O 0.51379 0.60518 0.77468 0.0
O87 O 0.39177 0.60341 0.8863 0.0
O88 O 0.39868 0.70246 0.88564 0.0
C89 C 0.36233 0.65777 0.89767 0.0
O90 O 0.61308 0.52112 0.8803 0.0
O91 O 0.61741 0.42715 0.85312 0.0
C92 C 0.63664 0.63219 0.90718 0.0
C93 C 0.64895 0.46697 0.87708 0.0
C94 C 0.10335 0.18381 0.13536 0.0
C95 C 0.0369 0.2151 0.11226 0.0
C96 C 0.09265 0.15692 0.17889 0.0
C97 C 0.0155 0.16134 0.20071 0.0
H98 H 0.16443 0.18231 0.12068 0.0
H99 H 0.14588 0.13649 0.19706 0.0
S100 S 0.82105 0.23185 0.15228 0.0
N101 N 0.89042 0.24328 0.11213 0.0
N102 N 0.87087 0.19436 0.19458 0.0
C103 C -0.05192 0.18923 0.17673 0.0
C104 C -0.04134 0.21574 0.13228 0.0
C105 C 0.93015 0.97044 0.13753 0.0
C106 C -0.03449 0.9158 0.11702 0.0
C107 C -0.03157 0.99876 0.1748 0.0
C108 C 0.04309 0.97304 0.19294 0.0
H109 H 0.8694 0.98873 0.12739 0.0
H110 H 0.935 1.03695 0.19262 0.0
S111 S 0.16846 0.83779 0.14536 0.0
N112 N 0.08458 0.84233 0.11343 0.0
N113 N 0.15779 0.89641 0.18198 0.0
C114 C 0.08359 0.92298 0.16875 0.0
C115 C 0.04424 0.89384 0.13137 0.0
C116 C 0.63781 0.7161 0.66338 0.0
C117 C 0.57795 0.75651 0.64252 0.0
C118 C 0.61675 0.67705 0.69865 0.0
C119 C 0.53524 0.67669 0.71365 0.0
H120 H 0.70186 0.7177 0.65481 0.0
H121 H 0.66537 0.65125 0.71729 0.0
S122 S 0.35488 0.76707 0.66519 0.0
N123 N 0.43312 0.78847 0.63523 0.0
N124 N 0.39379 0.71517 0.70179 0.0
C125 C 0.47428 0.71271 0.69002 0.0
C126 C 0.49559 0.75255 0.65425 0.0
C127 C 0.46058 0.41328 0.63339 0.0
C128 C 0.53677 0.41778 0.61193 0.0
C129 C 0.4382 0.4462 0.6746 0.0
C130 C 0.49147 0.4844 0.69606 0.0
H131 H 0.42126 0.38014 0.62067 0.0
H132 H 0.38242 0.43695 0.69237 0.0
S133 S 0.69222 0.51916 0.64977 0.0
N134 N 0.66074 0.46968 0.61168 0.0
N135 N 0.61885 0.53055 0.68957 0.0
C136 C 0.56364 0.49431 0.67222 0.0
C137 C 0.58653 0.46086 0.63017 0.0
C138 C 0.23722 0.41051 0.9748 0.0
C139 C 0.16006 0.44306 0.96937 0.0
C140 C 0.30638 0.42743 0.95191 0.0
C141 C 0.30158 0.47648 0.92126 0.0
H142 H 0.24462 0.36963 -0.00497 0.0
H143 H 0.36388 0.40014 0.95695 0.0
S144 S 0.11646 0.57831 0.89463 0.0
N145 N 0.08592 0.53187 0.9342 0.0
N146 N 0.21421 0.55678 0.88531 0.0
C147 C 0.22586 0.51006 0.91545 0.0
C148 C 0.1557 0.49506 0.94092 0.0
C149 C 0.85521 0.64898 0.93502 0.0
C150 C 0.84893 0.67542 -0.01956 0.0
C151 C 0.78723 0.62757 0.91295 0.0
C152 C 0.71092 0.63218 0.93549 0.0
H153 H 0.91119 0.64901 0.91484 0.0
H154 H 0.79273 0.61239 0.87667 0.0
S155 S 0.66525 0.68599 0.05717 0.0
N156 N 0.76301 0.69527 0.04966 0.0
N157 N 0.63456 0.65714 0.00724 0.0
C158 C 0.70537 0.65327 -0.01789 0.0
C159 C 0.77459 0.67442 0.00484 0.0
C160 C 0.80497 0.4572 0.97443 0.0
C161 C 0.86467 0.41306 0.95693 0.0
C162 C 0.73564 0.47536 0.94792 0.0
C163 C 0.72431 0.44983 0.90324 0.0
H164 H 0.81285 0.47862 0.00831 0.0
H165 H 0.69014 0.50886 0.96279 0.0
S166 S 0.86468 0.33303 0.8421 0.0
N167 N 0.90949 0.34469 0.89275 0.0
N168 N 0.77881 0.3783 0.84277 0.0
C169 C 0.78364 0.40526 0.88568 0.0
C170 C 0.85415 0.38709 0.91256 0.0
C171 C 0.15918 0.73645 0.93507 0.0
C172 C 0.14082 0.70652 0.97612 0.0
C173 C 0.23026 0.71886 0.90951 0.0
C174 C 0.28554 0.6707 0.9241 0.0
H175 H 0.11736 0.77309 0.92214 0.0
H176 H 0.24197 0.74311 0.8779 0.0
S177 S 0.26774 0.58049 0.03115 0.0
N178 N 0.1834 0.62752 0.03113 0.0
N179 N 0.32027 0.5961 -0.01597 0.0
C180 C 0.26902 0.64124 0.9658 0.0
C181 C 0.19555 0.65865 -0.00845 0.0
C182 C 0.70935 0.9062 0.40156 0.0
C183 C 0.69994 0.91968 0.44966 0.0
C184 C 0.77668 0.92345 0.37672 0.0
C185 C 0.83514 0.95601 0.39905 0.0
H186 H 0.66505 0.88137 0.38332 0.0
H187 H 0.7832 0.91121 0.33987 0.0
S188 S 0.83744 1.00216 0.5244 0.0
N189 N 0.75371 0.96703 0.51876 0.0
N190 N 0.88009 1.0005 0.47177 0.0
C191 C 0.82562 0.9706 0.44693 0.0
C192 C 0.75793 0.95207 0.47237 0.0
C193 C 0.3132 0.15937 0.4835 0.0
C194 C 0.35127 0.21111 0.47139 0.0
C195 C 0.2462 0.14181 0.45773 0.0
C196 C 0.21802 0.17382 0.41789 0.0
H197 H 0.33579 0.13218 0.51272 0.0
H198 H 0.21654 0.10293 0.46887 0.0
S199 S 0.2986 0.3118 0.37156 0.0
N200 N 0.35567 0.29439 0.41779 0.0
N201 N 0.23286 0.26015 0.36821 0.0
C202 C 0.25546 0.22591 0.40593 0.0
C203 C 0.3217 0.24459 0.43277 0.0
C204 C 0.38472 0.98925 0.44821 0.0
C205 C 0.39761 0.93285 0.47072 0.0
C206 C 0.31225 1.00612 0.42395 0.0
C207 C 0.24756 0.96938 0.42388 0.0
H208 H 0.43226 1.01979 0.44746 0.0
H209 H 0.30848 1.04678 0.40338 0.0
S210 S 0.24439 0.82055 0.48115 0.0
N211 N 0.33671 0.84076 0.49136 0.0
N212 N 0.19716 0.87683 0.4519 0.0
C213 C 0.25673 0.91527 0.44925 0.0
C214 C 0.33208 0.89624 0.47154 0.0
C215 C 0.65173 0.15115 0.42174 0.0
C216 C 0.65169 0.17292 0.46847 0.0
C217 C 0.72509 0.13139 0.39859 0.0
C218 C 0.80025 0.13281 0.42148 0.0
H219 H 0.59568 0.15401 0.40168 0.0
H220 H 0.7235 0.11986 0.36155 0.0
S221 S 0.83271 0.17522 0.54552 0.0
N222 N 0.73257 0.18546 0.53863 0.0
N223 N 0.87064 0.15084 0.49417 0.0
C224 C 0.8007 0.14938 0.46904 0.0
C225 C 0.72622 0.1687 0.49285 0.0
loop_
_geom_bond_atom_site_label_1
_geom_bond_atom_site_label_2
_geom_bond_distance
_geom_bond_site_symmetry_2
_ccdc_geom_bond_type
H0 C7 0.929 . S
H1 C10 0.930 . S
H2 C12 0.929 1_655 S
H3 C4 0.969 . S
C4 H3 0.969 . S
C4 O5 1.550 . S
C4 H6 0.973 . S
O5 C4 1.550 . S
O5 C11 1.412 . S
H6 C4 0.973 . S
C7 H0 0.929 . S
C7 C8 1.400 . S
C7 C9 1.364 . S
C8 C7 1.400 . S
C8 C12 1.377 1_556 S
C9 C7 1.364 . S
C9 C10 1.374 1_556 S
C10 H1 0.930 . S
C10 C9 1.374 1_554 S
C10 C11 1.383 . S
C11 O5 1.412 . S
C11 C10 1.383 . S
C11 C12 1.394 . S
C12 H2 0.929 1_455 S
C12 C8 1.377 1_554 S
C12 C11 1.394 . S
H13 C20 0.929 . S
H14 C23 0.930 . S
H15 C25 0.929 . S
H16 C17 0.969 . S
C17 H16 0.969 . S
C17 O18 1.550 1_655 S
C17 H19 0.973 . S
O18 C17 1.550 1_455 S
O18 C24 1.412 . S
H19 C17 0.973 . S
C20 H13 0.929 . S
C20 C21 1.400 . S
C20 C22 1.364 1_455 S
C21 C20 1.400 . S
C21 C25 1.377 1_556 S
C22 C20 1.364 1_655 S
C22 C23 1.374 1_556 S
C23 H14 0.930 . S
C23 C22 1.374 1_554 S
C23 C24 1.383 1_655 S
C24 O18 1.412 . S
C24 C23 1.383 1_455 S
C24 C25 1.394 . S
C25 H15 0.929 . S
C25 C21 1.377 1_554 S
C25 C24 1.394 . S
H26 C33 0.929 . S
H27 C36 0.930 . S
H28 C38 0.929 . S
H29 C30 0.969 . S
C30 H29 0.969 . S
C30 O31 1.550 . S
C30 H32 0.973 . S
O31 C30 1.550 . S
O31 C37 1.412 . S
H32 C30 0.973 . S
C33 H26 0.929 . S
C33 C34 1.400 . S
C33 C35 1.364 . S
C34 C33 1.400 . S
C34 C38 1.377 . S
C35 C33 1.364 . S
C35 C36 1.374 . S
C36 H27 0.930 . S
C36 C35 1.374 . S
C36 C37 1.383 . S
C37 O31 1.412 . S
C37 C36 1.383 . S
C37 C38 1.394 . S
C38 H28 0.929 . S
C38 C34 1.377 . S
C38 C37 1.394 . S
H39 C46 0.929 . S
H40 C49 0.930 . S
H41 C51 0.929 . S
H42 C43 0.969 . S
C43 H42 0.969 . S
C43 O44 1.550 . S
C43 H45 0.973 . S
O44 C43 1.550 . S
O44 C50 1.412 . S
H45 C43 0.973 . S
C46 H39 0.929 . S
C46 C47 1.400 . S
C46 C48 1.364 . S
C47 C46 1.400 . S
C47 C51 1.377 . S
C48 C46 1.364 . S
C48 C49 1.374 . S
C49 H40 0.930 . S
C49 C48 1.374 . S
C49 C50 1.383 . S
C50 O44 1.412 . S
C50 C49 1.383 . S
C50 C51 1.394 . S
C51 H41 0.929 . S
C51 C47 1.377 . S
C51 C50 1.394 . S
Zn52 O58 1.920 . S
Zn52 O64 1.898 . S
Zn52 O67 1.905 1_455 S
Zn53 O61 1.905 . S
Zn53 O62 1.898 1_455 S
Zn53 O70 1.920 . S
Zn54 O57 2.080 . S
Zn54 O60 2.114 1_545 S
Zn54 O63 2.120 1_545 S
Zn54 O65 2.120 . S
Zn54 O66 2.114 1_455 S
Zn54 O69 2.080 1_545 S
C55 O60 1.166 . S
C55 O61 1.182 . S
C56 O62 1.167 . S
C56 O63 1.299 1_655 S
O57 Zn54 2.080 . S
O57 C71 1.305 . S
O58 Zn52 1.920 . S
O58 C71 1.234 . S
C59 O64 1.167 . S
C59 O65 1.299 . S
O60 Zn54 2.114 1_565 S
O60 C55 1.166 . S
O61 Zn53 1.905 . S
O61 C55 1.182 . S
O62 Zn53 1.898 1_655 S
O62 C56 1.167 . S
O63 Zn54 2.120 1_565 S
O63 C56 1.299 1_455 S
O64 Zn52 1.898 . S
O64 C59 1.167 . S
O65 Zn54 2.120 . S
O65 C59 1.299 . S
O66 Zn54 2.114 1_655 S
O66 C68 1.166 . S
O67 Zn52 1.905 1_655 S
O67 C68 1.182 . S
C68 O66 1.166 . S
C68 O67 1.182 . S
O69 Zn54 2.080 1_565 S
O69 C72 1.305 . S
O70 Zn53 1.920 . S
O70 C72 1.234 . S
C71 O57 1.305 . S
C71 O58 1.234 . S
C72 O69 1.305 . S
C72 O70 1.234 . S
Zn73 O79 1.920 . S
Zn73 O85 1.898 . S
Zn73 O88 1.905 . S
Zn74 O82 1.905 . S
Zn74 O83 1.898 . S
Zn74 O91 1.920 . S
Zn75 O78 2.080 . S
Zn75 O81 2.114 . S
Zn75 O84 2.120 . S
Zn75 O86 2.120 . S
Zn75 O87 2.114 . S
Zn75 O90 2.080 . S
C76 O81 1.166 . S
C76 O82 1.182 . S
C77 O83 1.167 . S
C77 O84 1.299 . S
O78 Zn75 2.080 . S
O78 C92 1.305 . S
O79 Zn73 1.920 . S
O79 C92 1.234 . S
C80 O85 1.167 . S
C80 O86 1.299 . S
O81 Zn75 2.114 . S
O81 C76 1.166 . S
O82 Zn74 1.905 . S
O82 C76 1.182 . S
O83 Zn74 1.898 . S
O83 C77 1.167 . S
O84 Zn75 2.120 . S
O84 C77 1.299 . S
O85 Zn73 1.898 . S
O85 C80 1.167 . S
O86 Zn75 2.120 . S
O86 C80 1.299 . S
O87 Zn75 2.114 . S
O87 C89 1.166 . S
O88 Zn73 1.905 . S
O88 C89 1.182 . S
C89 O87 1.166 . S
C89 O88 1.182 . S
O90 Zn75 2.080 . S
O90 C93 1.305 . S
O91 Zn74 1.920 . S
O91 C93 1.234 . S
C92 O78 1.305 . S
C92 O79 1.234 . S
C93 O90 1.305 . S
C93 O91 1.234 . S
C94 C95 1.369 . S
C94 C96 1.419 . S
C94 H98 0.930 . S
C95 C94 1.369 . S
C95 C104 1.429 . S
C96 C94 1.419 . S
C96 C97 1.363 . S
C96 H99 0.929 . S
C97 C96 1.363 . S
C97 C103 1.428 . S
H98 C94 0.930 . S
H99 C96 0.929 . S
S100 N101 1.613 . S
S100 N102 1.610 . S
N101 S100 1.613 . S
N101 C104 1.350 . S
N102 S100 1.610 . S
N102 C103 1.351 . S
C103 C97 1.428 . S
C103 N102 1.351 . S
C103 C104 1.434 . S
C104 C95 1.429 . S
C104 N101 1.350 . S
C104 C103 1.434 . S
C105 C106 1.369 . S
C105 C107 1.419 . S
C105 H109 0.930 . S
C106 C105 1.369 . S
C106 C115 1.429 1_655 S
C107 C105 1.419 . S
C107 C108 1.363 1_655 S
C107 H110 0.929 . S
C108 C107 1.363 1_455 S
C108 C114 1.428 . S
H109 C105 0.930 . S
H110 C107 0.929 . S
S111 N112 1.613 . S
S111 N113 1.610 . S
N112 S111 1.613 . S
N112 C115 1.350 . S
N113 S111 1.610 . S
N113 C114 1.351 . S
C114 C108 1.428 . S
C114 N113 1.351 . S
C114 C115 1.434 . S
C115 C106 1.429 1_455 S
C115 N112 1.350 . S
C115 C114 1.434 . S
C116 C117 1.369 . S
C116 C118 1.419 . S
C116 H120 0.930 . S
C117 C116 1.369 . S
C117 C126 1.429 . S
C118 C116 1.419 . S
C118 C119 1.363 . S
C118 H121 0.929 . S
C119 C118 1.363 . S
C119 C125 1.428 . S
H120 C116 0.930 . S
H121 C118 0.929 . S
S122 N123 1.613 . S
S122 N124 1.610 . S
N123 S122 1.613 . S
N123 C126 1.350 . S
N124 S122 1.610 . S
N124 C125 1.351 . S
C125 C119 1.428 . S
C125 N124 1.351 . S
C125 C126 1.434 . S
C126 C117 1.429 . S
C126 N123 1.350 . S
C126 C125 1.434 . S
C127 C128 1.369 . S
C127 C129 1.419 . S
C127 H131 0.930 . S
C128 C127 1.369 . S
C128 C137 1.429 . S
C129 C127 1.419 . S
C129 C130 1.363 . S
C129 H132 0.929 . S
C130 C129 1.363 . S
C130 C136 1.428 . S
H131 C127 0.930 . S
H132 C129 0.929 . S
S133 N134 1.613 . S
S133 N135 1.610 . S
N134 S133 1.613 . S
N134 C137 1.350 . S
N135 S133 1.610 . S
N135 C136 1.351 . S
C136 C130 1.428 . S
C136 N135 1.351 . S
C136 C137 1.434 . S
C137 C128 1.429 . S
C137 N134 1.350 . S
C137 C136 1.434 . S
C138 C139 1.369 . S
C138 C140 1.419 . S
C138 H142 0.930 1_556 S
C139 C138 1.369 . S
C139 C148 1.429 . S
C140 C138 1.419 . S
C140 C141 1.363 . S
C140 H143 0.929 . S
C141 C140 1.363 . S
C141 C147 1.428 . S
H142 C138 0.930 1_554 S
H143 C140 0.929 . S
S144 N145 1.613 . S
S144 N146 1.610 . S
N145 S144 1.613 . S
N145 C148 1.350 . S
N146 S144 1.610 . S
N146 C147 1.351 . S
C147 C141 1.428 . S
C147 N146 1.351 . S
C147 C148 1.434 . S
C148 C139 1.429 . S
C148 N145 1.350 . S
C148 C147 1.434 . S
C149 C150 1.369 . S
C149 C151 1.419 . S
C149 H153 0.930 . S
C150 C149 1.369 . S
C150 C159 1.429 1_556 S
C151 C149 1.419 . S
C151 C152 1.363 . S
C151 H154 0.929 . S
C152 C151 1.363 . S
C152 C158 1.428 1_556 S
H153 C149 0.930 . S
H154 C151 0.929 . S
S155 N156 1.613 . S
S155 N157 1.610 . S
N156 S155 1.613 . S
N156 C159 1.350 . S
N157 S155 1.610 . S
N157 C158 1.351 . S
C158 C152 1.428 1_554 S
C158 N157 1.351 . S
C158 C159 1.434 . S
C159 C150 1.429 1_554 S
C159 N156 1.350 . S
C159 C158 1.434 . S
C160 C161 1.369 . S
C160 C162 1.419 . S
C160 H164 0.930 1_556 S
C161 C160 1.369 . S
C161 C170 1.429 . S
C162 C160 1.419 . S
C162 C163 1.363 . S
C162 H165 0.929 . S
C163 C162 1.363 . S
C163 C169 1.428 . S
H164 C160 0.930 1_554 S
H165 C162 0.929 . S
S166 N167 1.613 . S
S166 N168 1.610 . S
N167 S166 1.613 . S
N167 C170 1.350 . S
N168 S166 1.610 . S
N168 C169 1.351 . S
C169 C163 1.428 . S
C169 N168 1.351 . S
C169 C170 1.434 . S
C170 C161 1.429 . S
C170 N167 1.350 . S
C170 C169 1.434 . S
C171 C172 1.369 . S
C171 C173 1.419 . S
C171 H175 0.930 . S
C172 C171 1.369 . S
C172 C181 1.429 . S
C173 C171 1.419 . S
C173 C174 1.363 . S
C173 H176 0.929 . S
C174 C173 1.363 . S
C174 C180 1.428 . S
H175 C171 0.930 . S
H176 C173 0.929 . S
S177 N178 1.613 . S
S177 N179 1.610 1_554 S
N178 S177 1.613 . S
N178 C181 1.350 1_554 S
N179 S177 1.610 1_556 S
N179 C180 1.351 . S
C180 C174 1.428 . S
C180 N179 1.351 . S
C180 C181 1.434 . S
C181 C172 1.429 . S
C181 N178 1.350 1_556 S
C181 C180 1.434 . S
C182 C183 1.369 . S
C182 C184 1.419 . S
C182 H186 0.930 . S
C183 C182 1.369 . S
C183 C192 1.429 . S
C184 C182 1.419 . S
C184 C185 1.363 . S
C184 H187 0.929 . S
C185 C184 1.363 . S
C185 C191 1.428 . S
H186 C182 0.930 . S
H187 C184 0.929 . S
S188 N189 1.613 1_455 S
S188 N190 1.610 . S
N189 S188 1.613 1_655 S
N189 C192 1.350 . S
N190 S188 1.610 . S
N190 C191 1.351 1_455 S
C191 C185 1.428 . S
C191 N190 1.351 1_655 S
C191 C192 1.434 . S
C192 C183 1.429 . S
C192 N189 1.350 . S
C192 C191 1.434 . S
C193 C194 1.369 . S
C193 C195 1.419 . S
C193 H197 0.930 . S
C194 C193 1.369 . S
C194 C203 1.429 . S
C195 C193 1.419 . S
C195 C196 1.363 . S
C195 H198 0.929 . S
C196 C195 1.363 . S
C196 C202 1.428 . S
H197 C193 0.930 . S
H198 C195 0.929 . S
S199 N200 1.613 . S
S199 N201 1.610 . S
N200 S199 1.613 . S
N200 C203 1.350 . S
N201 S199 1.610 . S
N201 C202 1.351 . S
C202 C196 1.428 . S
C202 N201 1.351 . S
C202 C203 1.434 . S
C203 C194 1.429 . S
C203 N200 1.350 . S
C203 C202 1.434 . S
C204 C205 1.369 . S
C204 C206 1.419 . S
C204 H208 0.930 . S
C205 C204 1.369 . S
C205 C214 1.429 . S
C206 C204 1.419 . S
C206 C207 1.363 . S
C206 H209 0.929 . S
C207 C206 1.363 . S
C207 C213 1.428 . S
H208 C204 0.930 . S
H209 C206 0.929 . S
S210 N211 1.613 . S
S210 N212 1.610 . S
N211 S210 1.613 . S
N211 C214 1.350 . S
N212 S210 1.610 . S
N212 C213 1.351 . S
C213 C207 1.428 . S
C213 N212 1.351 . S
C213 C214 1.434 . S
C214 C205 1.429 . S
C214 N211 1.350 . S
C214 C213 1.434 . S
C215 C216 1.369 . S
C215 C217 1.419 . S
C215 H219 0.930 . S
C216 C215 1.369 . S
C216 C225 1.429 . S
C217 C215 1.419 . S
C217 C218 1.363 . S
C217 H220 0.929 . S
C218 C217 1.363 . S
C218 C224 1.428 . S
H219 C215 0.930 . S
H220 C217 0.929 . S
S221 N222 1.613 . S
S221 N223 1.610 . S
N222 S221 1.613 . S
N222 C225 1.350 . S
N223 S221 1.610 . S
N223 C224 1.351 . S
C224 C218 1.428 . S
C224 N223 1.351 . S
C224 C225 1.434 . S
C225 C216 1.429 . S
C225 N222 1.350 . S
C225 C224 1.434 . S
C97 C59 1.429 . S
C95 C4 1.483 . S
C108 C55 1.432 . S
C106 C17 1.482 . S
C119 C80 1.421 . S
C117 C30 1.475 . S
C128 C43 1.483 . S
C130 C76 1.432 . S
C139 C9 1.338 . S
C141 C77 1.188 . S
C152 C92 1.213 . S
C150 C22 1.353 . S
C161 C8 1.681 1_655 S
C163 C93 1.527 . S
C174 C89 1.549 . S
C172 C21 1.691 . S
C185 C56 1.188 . S
C183 C35 1.342 . S
C194 C48 1.359 . S
C196 C71 1.202 . S
C207 C72 1.524 . S
C205 C34 1.682 . S
C218 C68 1.551 . S
C216 C47 1.690 . S
