# Generated by pormake.
# Topology rtl, (3,6)-cn, num edge types: 1
# Building blocks:
#     Node 0, Type 0, BuildingBlock: ESEHIV_clean_linker_0, # of connection points: 3
#     Node 1, Type 0, BuildingBlock: ESEHIV_clean_linker_0, # of connection points: 3
#     Node 2, Type 0, BuildingBlock: ESEHIV_clean_linker_0, # of connection points: 3
#     Node 3, Type 0, BuildingBlock: ESEHIV_clean_linker_0, # of connection points: 3
#     Node 4, Type 1, BuildingBlock: CIFDUS_clean_sbu_1, # of connection points: 6
#     Node 5, Type 1, BuildingBlock: CIFDUS_clean_sbu_1, # of connection points: 6
#     Edge 6, Type (0, 1), BuildingBlock: AJUNOK_clean_linker_0, # of connection points: 2
#     Edge 7, Type (0, 1), BuildingBlock: AJUNOK_clean_linker_0, # of connection points: 2
#     Edge 8, Type (0, 1), BuildingBlock: AJUNOK_clean_linker_0, # of connection points: 2
#     Edge 9, Type (0, 1), BuildingBlock: AJUNOK_clean_linker_0, # of connection points: 2
#     Edge 10, Type (0, 1), BuildingBlock: AJUNOK_clean_linker_0, # of connection points: 2
#     Edge 11, Type (0, 1), BuildingBlock: AJUNOK_clean_linker_0, # of connection points: 2
#     Edge 12, Type (0, 1), BuildingBlock: AJUNOK_clean_linker_0, # of connection points: 2
#     Edge 13, Type (0, 1), BuildingBlock: AJUNOK_clean_linker_0, # of connection points: 2
#     Edge 14, Type (0, 1), BuildingBlock: AJUNOK_clean_linker_0, # of connection points: 2
#     Edge 15, Type (0, 1), BuildingBlock: AJUNOK_clean_linker_0, # of connection points: 2
#     Edge 16, Type (0, 1), BuildingBlock: AJUNOK_clean_linker_0, # of connection points: 2
#     Edge 17, Type (0, 1), BuildingBlock: AJUNOK_clean_linker_0, # of connection points: 2
# Relax obj value: 0.028
# Max RMSD: 0.062
# Mean RMSD: 0.046
data_MOF--net-rtl--node1-CIFDUS_clean_sbu_1--node2-ESEHIV_clean_linker_0--edge1-AJUNOK_clean_linker_0
_symmetry_space_group_name_H-M    P1
_symmetry_Int_Tables_number       1
_symmetry_cell_setting            triclinic
loop_
_symmetry_equiv_pos_as_xyz
'x, y, z'
_cell_length_a     20.880017
_cell_length_b     23.390722
_cell_length_c     16.294608
_cell_angle_alpha  89.453973
_cell_angle_beta   98.742796
_cell_angle_gamma 90.391883
loop_
_atom_site_label
_atom_site_type_symbol
_atom_site_fract_x
_atom_site_fract_y
_atom_site_fract_z
_atom_type_partial_charge
H0 H 0.16733 0.94586 0.11389 0.0
H1 H 0.31752 0.8459 0.25727 0.0
H2 H 0.29159 0.83921 0.99218 0.0
C3 C 0.20789 0.91688 0.1168 0.0
C4 C 0.22653 0.89657 0.04233 0.0
C5 C 0.23999 0.89894 0.19505 0.0
C6 C 0.2912 0.85993 0.19815 0.0
C7 C 0.30722 0.83647 0.1256 0.0
C8 C 0.27637 0.85592 0.04784 0.0
H9 H 0.69719 0.56785 0.57205 0.0
H10 H 0.77989 0.70941 0.45719 0.0
H11 H 0.75909 0.71779 0.7158 0.0
C12 C 0.71888 0.61011 0.57724 0.0
C13 C 0.72486 0.63935 0.65309 0.0
C14 C 0.73451 0.63687 0.50569 0.0
C15 C 0.76555 0.68992 0.51233 0.0
C16 C 0.77541 0.71926 0.58809 0.0
C17 C 0.75495 0.69386 0.65863 0.0
H18 H 0.85489 0.08844 0.02177 0.0
H19 H 0.76932 0.22655 0.13959 0.0
H20 H 0.72536 0.20507 0.87564 0.0
C21 C 0.82193 0.12424 0.01832 0.0
C22 C 0.79123 0.14319 0.94014 0.0
C23 C 0.81412 0.15352 0.09138 0.0
C24 C 0.77401 0.20197 0.08483 0.0
C25 C 0.74128 0.22009 1.00708 0.0
C26 C 0.74899 0.18984 0.93567 0.0
H27 H 0.34432 0.45783 0.51521 0.0
H28 H 0.23444 0.33288 0.62914 0.0
H29 H 0.2034 0.351 0.36439 0.0
C30 C 0.30635 0.42576 0.50841 0.0
C31 C 0.27582 0.40874 0.4288 0.0
C32 C 0.28965 0.3999 0.58061 0.0
C33 C 0.24545 0.35435 0.57361 0.0
C34 C 0.21598 0.33589 0.49527 0.0
C35 C 0.22856 0.36489 0.42396 0.0
O36 O 0.96485 0.06765 0.46273 0.0
Mn37 Mn 0.01702 0.02724 0.56547 0.0
O38 O 0.96708 0.9997 0.36947 0.0
Mn39 Mn 0.98663 0.94313 0.44962 0.0
O40 O 0.07112 0.98897 0.67489 0.0
O41 O 0.07062 0.10061 0.5868 0.0
Mn42 Mn 0.07425 0.11294 0.69448 0.0
O43 O 0.94509 0.05293 0.63374 0.0
O44 O 0.13515 0.06019 0.73274 0.0
O45 O 0.09166 1.00376 0.49421 0.0
O46 O 0.06799 0.91492 0.46522 0.0
O47 O 0.08023 0.18297 0.64827 0.0
O48 O 0.99779 0.10506 0.73651 0.0
C49 C 0.92345 0.90791 0.51521 0.0
C50 C 0.95433 0.05036 0.38792 0.0
C51 C 0.11795 0.00789 0.73001 0.0
C52 C 0.0706 0.15599 0.57854 0.0
C53 C 0.94685 0.08104 0.70091 0.0
C54 C 0.10828 0.95484 0.46935 0.0
O55 O 0.95738 0.95316 0.54613 0.0
O56 O 0.92864 0.88878 0.44204 0.0
O57 O 0.56981 0.55214 0.14867 0.0
Mn58 Mn 0.5055 0.52174 0.0474 0.0
O59 O 0.58522 0.47555 0.23312 0.0
Mn60 Mn 0.53764 0.42554 0.16143 0.0
O61 O 0.44295 0.48725 0.94605 0.0
O62 O 0.46322 0.60256 0.03714 0.0
Mn63 Mn 0.45328 0.61149 0.92787 0.0
O64 O 0.57363 0.54225 0.96695 0.0
O65 O 0.39618 0.56034 0.87205 0.0
O66 O 0.4349 0.50402 0.12652 0.0
O67 O 0.45296 0.41531 0.17103 0.0
O68 O 0.42006 0.67607 0.95722 0.0
O69 O 0.53197 0.61797 0.89314 0.0
C70 C 0.57728 0.39107 0.06742 0.0
C71 C 0.5958 0.52765 0.21651 0.0
C72 C 0.4029 0.50725 0.88519 0.0
C73 C 0.43645 0.65369 0.03052 0.0
C74 C 0.57683 0.58202 0.91244 0.0
C75 C 0.41759 0.45885 0.16303 0.0
O76 O 0.54978 0.4418 0.05857 0.0
O77 O 0.57738 0.36301 0.13648 0.0
C78 C 0.20463 0.23035 0.50901 0.0
C79 C 0.17552 0.28358 0.48831 0.0
C80 C 0.16684 0.18176 0.51947 0.0
C81 C 0.09898 0.18571 0.51306 0.0
H82 H 0.25693 0.2272 0.52297 0.0
H83 H 0.1914 0.14343 0.54515 0.0
S84 S 0.99976 0.31272 0.44433 0.0
N85 N 0.07529 0.33525 0.44758 0.0
N86 N 0.00429 0.24435 0.47096 0.0
C87 C 0.06949 0.23687 0.48209 0.0
C88 C 0.10785 0.28612 0.47005 0.0
C89 C 0.41438 0.79263 0.11501 0.0
C90 C 0.35062 0.78665 0.13095 0.0
C91 C 0.45076 0.7443 0.10176 0.0
C92 C 0.42319 0.689 0.09974 0.0
H93 H 0.43442 0.83478 0.10677 0.0
H94 H 0.49694 0.751 0.08031 0.0
S95 S 0.2625 0.65116 0.1546 0.0
N96 N 0.26568 0.72164 0.15991 0.0
N97 N 0.33256 0.63101 0.12912 0.0
C98 C 0.36265 0.68247 0.12607 0.0
C99 C 0.32621 0.7315 0.14177 0.0
C100 C 0.86146 0.79158 0.64055 0.0
C101 C 0.80292 0.7781 0.58908 0.0
C102 C 0.89763 0.8406 0.62495 0.0
C103 C 0.87591 0.87736 0.55781 0.0
H104 H 0.88231 0.76146 0.68791 0.0
H105 H 0.94578 0.84615 0.65961 0.0
S106 S 0.72142 0.8652 0.41274 0.0
N107 N 0.7211 0.80953 0.47566 0.0
N108 N 0.78908 0.90041 0.44586 0.0
C109 C 0.81424 0.86738 0.51201 0.0
C110 C 0.77777 0.81794 0.52761 0.0
C111 C 0.63491 0.26894 0.96621 0.0
C112 C 0.70097 0.27224 0.99957 0.0
C113 C 0.59362 0.31543 0.97161 0.0
C114 C 0.61719 0.36643 1.01053 0.0
H115 H 0.61408 0.22881 0.9421 0.0
H116 H 0.54185 0.30874 0.95525 0.0
S117 S 0.78878 0.4004 0.09002 0.0
N118 N 0.79008 0.33338 0.05924 0.0
N119 N 0.71237 0.42075 0.06886 0.0
C120 C 0.68449 0.37255 0.03329 0.0
C121 C 0.72638 0.3251 0.02916 0.0
C122 C 0.19723 0.97323 0.28545 0.0
C123 C 0.21651 0.91651 0.27339 0.0
C124 C 0.16901 0.98827 0.35566 0.0
C125 C 0.15968 0.94718 0.4166 0.0
H126 H 0.2017 0.00573 0.23882 0.0
H127 H 0.14993 0.03102 0.35879 0.0
S128 S 0.20336 0.79366 0.41626 0.0
N129 N 0.22358 0.81957 0.32931 0.0
N130 N 0.17614 0.8487 0.46295 0.0
C131 C 0.18305 0.89157 0.40788 0.0
C132 C 0.20959 0.87591 0.33578 0.0
C133 C 0.71965 0.62053 0.80573 0.0
C134 C 0.69157 0.61593 0.72149 0.0
C135 C 0.68543 0.60345 0.87033 0.0
C136 C 0.62288 0.57973 0.85248 0.0
H137 H 0.76734 0.63943 0.82188 0.0
H138 H 0.70628 0.61206 0.93404 0.0
S139 S 0.52653 0.55868 0.64452 0.0
N140 N 0.59506 0.58779 0.62584 0.0
N141 N 0.53503 0.55071 0.74617 0.0
C142 C 0.59604 0.57178 0.76905 0.0
C143 C 0.62906 0.5913 0.70383 0.0
C144 C 0.91641 0.11716 0.17594 0.0
C145 C 0.85176 0.13521 0.17273 0.0
C146 C 0.95085 0.09293 0.24804 0.0
C147 C 0.92292 0.08746 0.32067 0.0
H148 H 0.94024 0.12016 0.12148 0.0
H149 H 0.99907 0.07658 0.24621 0.0
S150 S 0.75792 0.1316 0.34925 0.0
N151 N 0.7624 0.14776 0.25133 0.0
N152 N 0.82915 0.10471 0.38817 0.0
C153 C 0.86029 0.10863 0.32089 0.0
C154 C 0.82426 0.13208 0.24665 0.0
C155 C 0.28052 0.45711 0.70628 0.0
C156 C 0.31747 0.42097 0.66381 0.0
C157 C 0.30708 0.48149 0.78223 0.0
C158 C 0.37102 0.46955 0.81912 0.0
H159 H 0.23161 0.46838 0.67892 0.0
H160 H 0.27834 0.51183 0.81063 0.0
S161 S 0.48649 0.37515 0.73439 0.0
N162 N 0.42009 0.37264 0.66482 0.0
N163 N 0.46982 0.41757 0.80878 0.0
C164 C 0.40737 0.43119 0.77918 0.0
C165 C 0.38066 0.4072 0.70099 0.0
C166 C 0.71765 0.55494 0.40794 0.0
C167 C 0.70885 0.61301 0.42329 0.0
C168 C 0.68354 0.52877 0.33779 0.0
C169 C 0.63898 0.55957 0.28047 0.0
H170 H 0.74915 0.52903 0.45226 0.0
H171 H 0.69038 0.48335 0.3302 0.0
S172 S 0.60109 0.71359 0.28994 0.0
N173 N 0.65469 0.70145 0.37368 0.0
N174 N 0.59083 0.65195 0.24101 0.0
C175 C 0.63246 0.6184 0.29237 0.0
C176 C 0.66727 0.64518 0.36413 0.0
C177 C 0.83557 0.16418 0.81015 0.0
C178 C 0.81424 0.123 0.86354 0.0
C179 C 0.87196 0.14864 0.74891 0.0
C180 C 0.88836 0.09138 0.73833 0.0
H181 H 0.82909 0.20936 0.8202 0.0
H182 H 0.89244 0.1823 0.71457 0.0
S183 S 0.83495 0.96605 0.85123 0.0
N184 N 0.80444 0.02149 0.89392 0.0
N185 N 0.87402 0.99248 0.7783 0.0
C186 C 0.86237 0.04912 0.78548 0.0
C187 C 0.8252 0.06492 0.84852 0.0
C188 C 0.30086 0.39133 0.2854 0.0
C189 C 0.29878 0.43002 0.35084 0.0
C190 C 0.33147 0.4052 0.21748 0.0
C191 C 0.36376 0.45765 0.21246 0.0
H192 H 0.28323 0.34791 0.28875 0.0
H193 H 0.3355 0.37211 0.17242 0.0
S194 S 0.36451 0.57847 0.35819 0.0
N195 N 0.3226 0.52777 0.39777 0.0
N196 N 0.38607 0.55139 0.27324 0.0
C197 C 0.35803 0.49883 0.27313 0.0
C198 C 0.32469 0.4854 0.34181 0.0
C199 C 0.18352 0.97972 0.95526 0.0
C200 C 0.1962 0.92088 0.96026 0.0
C201 C 0.15707 0.00577 0.88091 0.0
C202 C 0.14274 0.97488 0.80636 0.0
H203 H 0.19527 0.00669 1.00919 0.0
H204 H 0.14814 0.05131 0.88236 0.0
S205 S 0.1645 0.81929 0.7838 0.0
N206 N 0.18979 0.83131 0.88335 0.0
N207 N 0.14162 0.88188 0.74176 0.0
C208 C 0.15399 0.91585 0.80949 0.0
C209 C 0.18081 0.88863 0.8865 0.0
loop_
_geom_bond_atom_site_label_1
_geom_bond_atom_site_label_2
_geom_bond_distance
_geom_bond_site_symmetry_2
_ccdc_geom_bond_type
H0 C3 0.931 . S
H1 C6 0.928 . S
H2 C8 0.930 1_556 S
C3 H0 0.931 . S
C3 C4 1.413 . S
C3 C5 1.360 . S
C4 C3 1.413 . S
C4 C8 1.429 . S
C5 C3 1.360 . S
C5 C6 1.372 . S
C6 H1 0.928 . S
C6 C5 1.372 . S
C6 C7 1.404 . S
C7 C6 1.404 . S
C7 C8 1.391 . S
C8 H2 0.930 1_554 S
C8 C4 1.429 . S
C8 C7 1.391 . S
H9 C12 0.931 . S
H10 C15 0.928 . S
H11 C17 0.930 . S
C12 H9 0.931 . S
C12 C13 1.413 . S
C12 C14 1.360 . S
C13 C12 1.413 . S
C13 C17 1.429 . S
C14 C12 1.360 . S
C14 C15 1.372 . S
C15 H10 0.928 . S
C15 C14 1.372 . S
C15 C16 1.404 . S
C16 C15 1.404 . S
C16 C17 1.391 . S
C17 H11 0.930 . S
C17 C13 1.429 . S
C17 C16 1.391 . S
H18 C21 0.931 . S
H19 C24 0.928 . S
H20 C26 0.930 . S
C21 H18 0.931 . S
C21 C22 1.413 1_554 S
C21 C23 1.360 . S
C22 C21 1.413 1_556 S
C22 C26 1.429 . S
C23 C21 1.360 . S
C23 C24 1.372 . S
C24 H19 0.928 . S
C24 C23 1.372 . S
C24 C25 1.404 . S
C25 C24 1.404 . S
C25 C26 1.391 1_554 S
C26 H20 0.930 . S
C26 C22 1.429 . S
C26 C25 1.391 1_556 S
H27 C30 0.931 . S
H28 C33 0.928 . S
H29 C35 0.930 . S
C30 H27 0.931 . S
C30 C31 1.413 . S
C30 C32 1.360 . S
C31 C30 1.413 . S
C31 C35 1.429 . S
C32 C30 1.360 . S
C32 C33 1.372 . S
C33 H28 0.928 . S
C33 C32 1.372 . S
C33 C34 1.404 . S
C34 C33 1.404 . S
C34 C35 1.391 . S
C35 H29 0.930 . S
C35 C31 1.429 . S
C35 C34 1.391 . S
O36 Mn37 2.163 1_655 S
O36 C50 1.244 . S
Mn37 O36 2.163 1_455 S
Mn37 O40 2.160 1_545 S
Mn37 O41 2.221 . S
Mn37 O43 2.163 1_455 S
Mn37 O45 2.160 1_545 S
Mn37 O55 2.221 1_445 S
O38 Mn39 2.087 . S
O38 C50 1.256 1_565 S
Mn39 O38 2.087 . S
Mn39 O46 2.089 1_655 S
Mn39 O55 2.290 . S
Mn39 O56 2.251 . S
O40 Mn37 2.160 1_565 S
O40 C51 1.239 . S
O41 Mn37 2.221 . S
O41 Mn42 2.290 . S
O41 C52 1.278 . S
Mn42 O41 2.290 . S
Mn42 O44 2.089 . S
Mn42 O47 2.251 . S
Mn42 O48 2.087 1_455 S
O43 Mn37 2.163 1_655 S
O43 C53 1.244 . S
O44 Mn42 2.089 . S
O44 C51 1.256 1_545 S
O45 Mn37 2.160 1_565 S
O45 C54 1.239 . S
O46 Mn39 2.089 1_455 S
O46 C54 1.256 . S
O47 Mn42 2.251 . S
O47 C52 1.241 . S
O48 Mn42 2.087 1_655 S
O48 C53 1.256 . S
C49 O55 1.278 . S
C49 O56 1.241 . S
C50 O36 1.244 . S
C50 O38 1.256 1_545 S
C51 O40 1.239 . S
C51 O44 1.256 1_565 S
C52 O41 1.278 . S
C52 O47 1.241 . S
C53 O43 1.244 . S
C53 O48 1.256 . S
C54 O45 1.239 . S
C54 O46 1.256 . S
O55 Mn37 2.221 1_665 S
O55 Mn39 2.290 . S
O55 C49 1.278 . S
O56 Mn39 2.251 . S
O56 C49 1.241 . S
O57 Mn58 2.163 . S
O57 C71 1.244 . S
Mn58 O57 2.163 . S
Mn58 O61 2.160 1_554 S
Mn58 O62 2.221 . S
Mn58 O64 2.163 1_554 S
Mn58 O66 2.160 . S
Mn58 O76 2.221 . S
O59 Mn60 2.087 . S
O59 C71 1.256 . S
Mn60 O59 2.087 . S
Mn60 O67 2.089 . S
Mn60 O76 2.290 . S
Mn60 O77 2.251 . S
O61 Mn58 2.160 1_556 S
O61 C72 1.239 . S
O62 Mn58 2.221 . S
O62 Mn63 2.290 1_554 S
O62 C73 1.278 . S
Mn63 O62 2.290 1_556 S
Mn63 O65 2.089 . S
Mn63 O68 2.251 . S
Mn63 O69 2.087 . S
O64 Mn58 2.163 1_556 S
O64 C74 1.244 . S
O65 Mn63 2.089 . S
O65 C72 1.256 . S
O66 Mn58 2.160 . S
O66 C75 1.239 . S
O67 Mn60 2.089 . S
O67 C75 1.256 . S
O68 Mn63 2.251 . S
O68 C73 1.241 1_556 S
O69 Mn63 2.087 . S
O69 C74 1.256 . S
C70 O76 1.278 . S
C70 O77 1.241 . S
C71 O57 1.244 . S
C71 O59 1.256 . S
C72 O61 1.239 . S
C72 O65 1.256 . S
C73 O62 1.278 . S
C73 O68 1.241 1_554 S
C74 O64 1.244 . S
C74 O69 1.256 . S
C75 O66 1.239 . S
C75 O67 1.256 . S
O76 Mn58 2.221 . S
O76 Mn60 2.290 . S
O76 C70 1.278 . S
O77 Mn60 2.251 . S
O77 C70 1.241 . S
C78 C79 1.369 . S
C78 C80 1.419 . S
C78 H82 0.930 . S
C79 C78 1.369 . S
C79 C88 1.429 . S
C80 C78 1.419 . S
C80 C81 1.363 . S
C80 H83 0.929 . S
C81 C80 1.363 . S
C81 C87 1.428 . S
H82 C78 0.930 . S
H83 C80 0.929 . S
S84 N85 1.613 . S
S84 N86 1.610 . S
N85 S84 1.613 . S
N85 C88 1.350 . S
N86 S84 1.610 . S
N86 C87 1.351 . S
C87 C81 1.428 . S
C87 N86 1.351 . S
C87 C88 1.434 . S
C88 C79 1.429 . S
C88 N85 1.350 . S
C88 C87 1.434 . S
C89 C90 1.369 . S
C89 C91 1.419 . S
C89 H93 0.930 . S
C90 C89 1.369 . S
C90 C99 1.429 . S
C91 C89 1.419 . S
C91 C92 1.363 . S
C91 H94 0.929 . S
C92 C91 1.363 . S
C92 C98 1.428 . S
H93 C89 0.930 . S
H94 C91 0.929 . S
S95 N96 1.613 . S
S95 N97 1.610 . S
N96 S95 1.613 . S
N96 C99 1.350 . S
N97 S95 1.610 . S
N97 C98 1.351 . S
C98 C92 1.428 . S
C98 N97 1.351 . S
C98 C99 1.434 . S
C99 C90 1.429 . S
C99 N96 1.350 . S
C99 C98 1.434 . S
C100 C101 1.369 . S
C100 C102 1.419 . S
C100 H104 0.930 . S
C101 C100 1.369 . S
C101 C110 1.429 . S
C102 C100 1.419 . S
C102 C103 1.363 . S
C102 H105 0.929 . S
C103 C102 1.363 . S
C103 C109 1.428 . S
H104 C100 0.930 . S
H105 C102 0.929 . S
S106 N107 1.613 . S
S106 N108 1.610 . S
N107 S106 1.613 . S
N107 C110 1.350 . S
N108 S106 1.610 . S
N108 C109 1.351 . S
C109 C103 1.428 . S
C109 N108 1.351 . S
C109 C110 1.434 . S
C110 C101 1.429 . S
C110 N107 1.350 . S
C110 C109 1.434 . S
C111 C112 1.369 1_556 S
C111 C113 1.419 . S
C111 H115 0.930 . S
C112 C111 1.369 1_554 S
C112 C121 1.429 . S
C113 C111 1.419 . S
C113 C114 1.363 1_556 S
C113 H116 0.929 . S
C114 C113 1.363 1_554 S
C114 C120 1.428 . S
H115 C111 0.930 . S
H116 C113 0.929 . S
S117 N118 1.613 . S
S117 N119 1.610 . S
N118 S117 1.613 . S
N118 C121 1.350 . S
N119 S117 1.610 . S
N119 C120 1.351 . S
C120 C114 1.428 . S
C120 N119 1.351 . S
C120 C121 1.434 . S
C121 C112 1.429 . S
C121 N118 1.350 . S
C121 C120 1.434 . S
C122 C123 1.369 . S
C122 C124 1.419 . S
C122 H126 0.930 1_565 S
C123 C122 1.369 . S
C123 C132 1.429 . S
C124 C122 1.419 . S
C124 C125 1.363 . S
C124 H127 0.929 1_565 S
C125 C124 1.363 . S
C125 C131 1.428 . S
H126 C122 0.930 1_545 S
H127 C124 0.929 1_545 S
S128 N129 1.613 . S
S128 N130 1.610 . S
N129 S128 1.613 . S
N129 C132 1.350 . S
N130 S128 1.610 . S
N130 C131 1.351 . S
C131 C125 1.428 . S
C131 N130 1.351 . S
C131 C132 1.434 . S
C132 C123 1.429 . S
C132 N129 1.350 . S
C132 C131 1.434 . S
C133 C134 1.369 . S
C133 C135 1.419 . S
C133 H137 0.930 . S
C134 C133 1.369 . S
C134 C143 1.429 . S
C135 C133 1.419 . S
C135 C136 1.363 . S
C135 H138 0.929 . S
C136 C135 1.363 . S
C136 C142 1.428 . S
H137 C133 0.930 . S
H138 C135 0.929 . S
S139 N140 1.613 . S
S139 N141 1.610 . S
N140 S139 1.613 . S
N140 C143 1.350 . S
N141 S139 1.610 . S
N141 C142 1.351 . S
C142 C136 1.428 . S
C142 N141 1.351 . S
C142 C143 1.434 . S
C143 C134 1.429 . S
C143 N140 1.350 . S
C143 C142 1.434 . S
C144 C145 1.369 . S
C144 C146 1.419 . S
C144 H148 0.930 . S
C145 C144 1.369 . S
C145 C154 1.429 . S
C146 C144 1.419 . S
C146 C147 1.363 . S
C146 H149 0.929 . S
C147 C146 1.363 . S
C147 C153 1.428 . S
H148 C144 0.930 . S
H149 C146 0.929 . S
S150 N151 1.613 . S
S150 N152 1.610 . S
N151 S150 1.613 . S
N151 C154 1.350 . S
N152 S150 1.610 . S
N152 C153 1.351 . S
C153 C147 1.428 . S
C153 N152 1.351 . S
C153 C154 1.434 . S
C154 C145 1.429 . S
C154 N151 1.350 . S
C154 C153 1.434 . S
C155 C156 1.369 . S
C155 C157 1.419 . S
C155 H159 0.930 . S
C156 C155 1.369 . S
C156 C165 1.429 . S
C157 C155 1.419 . S
C157 C158 1.363 . S
C157 H160 0.929 . S
C158 C157 1.363 . S
C158 C164 1.428 . S
H159 C155 0.930 . S
H160 C157 0.929 . S
S161 N162 1.613 . S
S161 N163 1.610 . S
N162 S161 1.613 . S
N162 C165 1.350 . S
N163 S161 1.610 . S
N163 C164 1.351 . S
C164 C158 1.428 . S
C164 N163 1.351 . S
C164 C165 1.434 . S
C165 C156 1.429 . S
C165 N162 1.350 . S
C165 C164 1.434 . S
C166 C167 1.369 . S
C166 C168 1.419 . S
C166 H170 0.930 . S
C167 C166 1.369 . S
C167 C176 1.429 . S
C168 C166 1.419 . S
C168 C169 1.363 . S
C168 H171 0.929 . S
C169 C168 1.363 . S
C169 C175 1.428 . S
H170 C166 0.930 . S
H171 C168 0.929 . S
S172 N173 1.613 . S
S172 N174 1.610 . S
N173 S172 1.613 . S
N173 C176 1.350 . S
N174 S172 1.610 . S
N174 C175 1.351 . S
C175 C169 1.428 . S
C175 N174 1.351 . S
C175 C176 1.434 . S
C176 C167 1.429 . S
C176 N173 1.350 . S
C176 C175 1.434 . S
C177 C178 1.369 . S
C177 C179 1.419 . S
C177 H181 0.930 . S
C178 C177 1.369 . S
C178 C187 1.429 . S
C179 C177 1.419 . S
C179 C180 1.363 . S
C179 H182 0.929 . S
C180 C179 1.363 . S
C180 C186 1.428 . S
H181 C177 0.930 . S
H182 C179 0.929 . S
S183 N184 1.613 1_565 S
S183 N185 1.610 . S
N184 S183 1.613 1_545 S
N184 C187 1.350 . S
N185 S183 1.610 . S
N185 C186 1.351 1_565 S
C186 C180 1.428 . S
C186 N185 1.351 1_545 S
C186 C187 1.434 . S
C187 C178 1.429 . S
C187 N184 1.350 . S
C187 C186 1.434 . S
C188 C189 1.369 . S
C188 C190 1.419 . S
C188 H192 0.930 . S
C189 C188 1.369 . S
C189 C198 1.429 . S
C190 C188 1.419 . S
C190 C191 1.363 . S
C190 H193 0.929 . S
C191 C190 1.363 . S
C191 C197 1.428 . S
H192 C188 0.930 . S
H193 C190 0.929 . S
S194 N195 1.613 . S
S194 N196 1.610 . S
N195 S194 1.613 . S
N195 C198 1.350 . S
N196 S194 1.610 . S
N196 C197 1.351 . S
C197 C191 1.428 . S
C197 N196 1.351 . S
C197 C198 1.434 . S
C198 C189 1.429 . S
C198 N195 1.350 . S
C198 C197 1.434 . S
C199 C200 1.369 . S
C199 C201 1.419 . S
C199 H203 0.930 1_565 S
C200 C199 1.369 . S
C200 C209 1.429 . S
C201 C199 1.419 . S
C201 C202 1.363 . S
C201 H204 0.929 1_565 S
C202 C201 1.363 . S
C202 C208 1.428 . S
H203 C199 0.930 1_545 S
H204 C201 0.929 1_545 S
S205 N206 1.613 . S
S205 N207 1.610 . S
N206 S205 1.613 . S
N206 C209 1.350 . S
N207 S205 1.610 . S
N207 C208 1.351 . S
C208 C202 1.428 . S
C208 N207 1.351 . S
C208 C209 1.434 . S
C209 C200 1.429 . S
C209 N206 1.350 . S
C209 C208 1.434 . S
C81 C52 1.283 . S
C79 C34 1.459 . S
C90 C7 1.462 . S
C92 C73 1.285 . S
C101 C16 1.575 . S
C103 C49 1.364 . S
C112 C25 1.574 . S
C114 C70 1.366 . S
C125 C54 1.495 . S
C123 C5 1.511 . S
C136 C74 1.495 . S
C134 C13 1.543 . S
C145 C23 1.537 . S
C147 C50 1.480 . S
C156 C32 1.505 . S
C158 C72 1.452 . S
C169 C71 1.480 . S
C167 C14 1.535 . S
C180 C53 1.500 . S
C178 C22 1.544 . S
C191 C75 1.494 . S
C189 C31 1.506 . S
C200 C4 1.512 1_556 S
C202 C51 1.450 . S
