# Generated by pormake.
# Topology hwx, (6,3)-cn, num edge types: 1
# Building blocks:
#     Node 0, Type 0, BuildingBlock: IZENUY_clean_sbu_0, # of connection points: 6
#     Node 1, Type 0, BuildingBlock: IZENUY_clean_sbu_0, # of connection points: 6
#     Node 2, Type 0, BuildingBlock: IZENUY_clean_sbu_0, # of connection points: 6
#     Node 3, Type 0, BuildingBlock: IZENUY_clean_sbu_0, # of connection points: 6
#     Node 4, Type 1, BuildingBlock: BETDIP_clean_linker_0, # of connection points: 3
#     Node 5, Type 1, BuildingBlock: BETDIP_clean_linker_0, # of connection points: 3
#     Node 6, Type 1, BuildingBlock: BETDIP_clean_linker_0, # of connection points: 3
#     Node 7, Type 1, BuildingBlock: BETDIP_clean_linker_0, # of connection points: 3
#     Node 8, Type 1, BuildingBlock: BETDIP_clean_linker_0, # of connection points: 3
#     Node 9, Type 1, BuildingBlock: BETDIP_clean_linker_0, # of connection points: 3
#     Node 10, Type 1, BuildingBlock: BETDIP_clean_linker_0, # of connection points: 3
#     Node 11, Type 1, BuildingBlock: BETDIP_clean_linker_0, # of connection points: 3
#     Edge 12, Type (0, 1), None
#     Edge 13, Type (0, 1), None
#     Edge 14, Type (0, 1), None
#     Edge 15, Type (0, 1), None
#     Edge 16, Type (0, 1), None
#     Edge 17, Type (0, 1), None
#     Edge 18, Type (0, 1), None
#     Edge 19, Type (0, 1), None
#     Edge 20, Type (0, 1), None
#     Edge 21, Type (0, 1), None
#     Edge 22, Type (0, 1), None
#     Edge 23, Type (0, 1), None
#     Edge 24, Type (0, 1), None
#     Edge 25, Type (0, 1), None
#     Edge 26, Type (0, 1), None
#     Edge 27, Type (0, 1), None
#     Edge 28, Type (0, 1), None
#     Edge 29, Type (0, 1), None
#     Edge 30, Type (0, 1), None
#     Edge 31, Type (0, 1), None
#     Edge 32, Type (0, 1), None
#     Edge 33, Type (0, 1), None
#     Edge 34, Type (0, 1), None
#     Edge 35, Type (0, 1), None
# Relax obj value: 0.003
# Max RMSD: 0.042
# Mean RMSD: 0.041
data_MOF--net-hwx--node1-IZENUY_clean_sbu_0--node2-BETDIP_clean_linker_0--edge1-none
_symmetry_space_group_name_H-M    P1
_symmetry_Int_Tables_number       1
_symmetry_cell_setting            triclinic
loop_
_symmetry_equiv_pos_as_xyz
'x, y, z'
_cell_length_a     23.241189
_cell_length_b     23.236948
_cell_length_c     9.0618253
_cell_angle_alpha  93.733489
_cell_angle_beta   93.748132
_cell_angle_gamma 90.798078
loop_
_atom_site_label
_atom_site_type_symbol
_atom_site_fract_x
_atom_site_fract_y
_atom_site_fract_z
_atom_type_partial_charge
Fe0 Fe 0.28263 0.30049 0.23357 0.0
Fe1 Fe 0.29177 0.29184 0.89931 0.0
O2 O 0.25799 0.27008 0.05636 0.0
Fe3 Fe 0.2003 0.21793 0.03724 0.0
O4 O 0.16245 0.24979 0.19377 0.0
O5 O 0.21156 0.32949 0.26591 0.0
O6 O 0.30407 0.37035 0.17326 0.0
C7 C 0.28728 0.39552 0.06014 0.0
C8 C 0.26066 0.18483 0.2883 0.0
O9 O 0.27334 0.36726 0.93908 0.0
C10 C 0.27612 0.17637 0.82061 0.0
O11 O 0.35472 0.27202 0.21332 0.0
O12 O 0.36379 0.30228 0.99147 0.0
O13 O 0.2398 0.16898 0.15899 0.0
O14 O 0.26624 0.2375 0.32779 0.0
C15 C 0.17386 0.2823 0.79754 0.0
O16 O 0.31169 0.21807 0.84777 0.0
O17 O 0.22777 0.17711 0.87729 0.0
C18 C 0.38523 0.28086 0.10643 0.0
O19 O 0.22701 0.28495 0.77845 0.0
O20 O 0.15609 0.26223 0.91365 0.0
C21 C 0.16641 0.29815 0.26735 0.0
Fe22 Fe 0.23308 0.78411 0.67676 0.0
Fe23 Fe 0.32263 0.71238 0.51393 0.0
O24 O 0.26877 0.76631 0.51393 0.0
Fe25 Fe 0.251 0.80204 0.35111 0.0
O26 O 0.23619 0.87203 0.44633 0.0
O27 O 0.25631 0.85864 0.68193 0.0
O28 O 0.29663 0.77302 0.80004 0.0
C29 C 0.35021 0.7722 0.78172 0.0
C30 C 0.14358 0.78617 0.4499 0.0
O31 O 0.36817 0.75454 0.65753 0.0
C32 C 0.2628 0.68487 0.24613 0.0
O33 O 0.20769 0.71038 0.68495 0.0
O34 O 0.29137 0.67099 0.65593 0.0
O35 O 0.17645 0.7789 0.34596 0.0
O36 O 0.16312 0.79903 0.58156 0.0
C37 C 0.36562 0.7933 0.32279 0.0
O38 O 0.28044 0.66689 0.37034 0.0
O39 O 0.262 0.73847 0.22782 0.0
C40 C 0.2417 0.66948 0.70508 0.0
O41 O 0.36405 0.74361 0.37193 0.0
O42 O 0.32475 0.82734 0.3429 0.0
C43 C 0.24909 0.89154 0.57799 0.0
Fe44 Fe 0.73466 0.75313 0.79412 0.0
Fe45 Fe 0.74331 0.74393 0.12839 0.0
O46 O 0.76504 0.77776 0.97136 0.0
Fe47 Fe 0.81716 0.83548 0.99049 0.0
O48 O 0.78529 0.87333 0.83393 0.0
O49 O 0.70561 0.8242 0.76179 0.0
O50 O 0.66482 0.73162 0.85438 0.0
C51 C 0.63963 0.74833 0.96752 0.0
C52 C 0.85029 0.77515 0.73947 0.0
O53 O 0.66788 0.76229 0.08859 0.0
C54 C 0.85876 0.75967 0.20715 0.0
O55 O 0.76318 0.68105 0.81436 0.0
O56 O 0.73295 0.67191 0.03621 0.0
O57 O 0.86613 0.796 0.86879 0.0
O58 O 0.79762 0.76958 0.69995 0.0
C59 C 0.7528 0.86188 0.23014 0.0
O60 O 0.8171 0.72407 0.17997 0.0
O61 O 0.85799 0.80802 0.15048 0.0
C62 C 0.75438 0.6505 0.92125 0.0
O63 O 0.75015 0.80871 0.24924 0.0
O64 O 0.77285 0.87966 0.11404 0.0
C65 C 0.73694 0.86935 0.76032 0.0
Fe66 Fe 0.70239 0.33337 0.51391 0.0
Fe67 Fe 0.77261 0.24256 0.67655 0.0
O68 O 0.7564 0.27934 0.51391 0.0
Fe69 Fe 0.79314 0.26313 0.35124 0.0
O70 O 0.81631 0.33815 0.34224 0.0
O71 O 0.73193 0.37521 0.36921 0.0
O72 O 0.74535 0.37822 0.65496 0.0
C73 C 0.76349 0.36 0.77851 0.0
C74 C 0.67573 0.27228 0.24932 0.0
O75 O 0.76354 0.30657 0.79868 0.0
C76 C 0.77618 0.15369 0.44733 0.0
O77 O 0.66056 0.30382 0.65863 0.0
O78 O 0.6976 0.21942 0.6856 0.0
O79 O 0.72915 0.27226 0.22914 0.0
O80 O 0.65752 0.29042 0.37286 0.0
C81 C 0.88203 0.25945 0.5804 0.0
O82 O 0.785 0.17236 0.58106 0.0
O83 O 0.77287 0.18724 0.34363 0.0
C84 C 0.65749 0.25436 0.70809 0.0
O85 O 0.84851 0.26279 0.68412 0.0
O86 O 0.86334 0.25067 0.44668 0.0
C87 C 0.78137 0.37827 0.31972 0.0
H88 H 0.24591 0.55357 0.73232 0.0
H89 H 0.26762 0.56538 0.21094 0.0
H90 H 0.23192 0.7164 0.97365 0.0
H91 H 0.30795 0.48042 0.17311 0.0
C92 C 0.28803 0.45875 0.07255 0.0
C93 C 0.24512 0.57862 0.83738 0.0
C94 C 0.23672 0.63794 0.8392 0.0
C95 C 0.25497 0.55151 0.97004 0.0
C96 C 0.25874 0.58513 0.10737 0.0
C97 C 0.25144 0.64528 0.11005 0.0
C98 C 0.23748 0.67022 0.97507 0.0
N99 N 0.26222 0.49074 0.95911 0.0
H100 H 0.9699 0.79089 0.74172 0.0
H101 H 0.97466 0.77811 0.26448 0.0
H102 H 0.81876 0.73969 0.46011 0.0
H103 H 0.06662 0.76628 0.30245 0.0
C104 C 0.08126 0.78111 0.41465 0.0
C105 C 0.94898 0.78012 0.63285 0.0
C106 C 0.88973 0.76704 0.61746 0.0
C107 C 0.98131 0.78005 0.50649 0.0
C108 C 0.95261 0.77169 0.3636 0.0
C109 C 0.89394 0.75646 0.34814 0.0
C110 C 0.86434 0.75078 0.47506 0.0
N111 N 0.04193 0.79008 0.52726 0.0
H112 H 0.77379 0.49594 0.28007 0.0
H113 H 0.75745 0.47718 0.80221 0.0
H114 H 0.79324 0.33028 0.05395 0.0
H115 H 0.78362 0.56981 0.81065 0.0
C116 C 0.76663 0.58851 0.9113 0.0
C117 C 0.77644 0.46946 0.1779 0.0
C118 C 0.78567 0.40978 0.18304 0.0
C119 C 0.77003 0.49497 0.04024 0.0
C120 C 0.76752 0.45937 0.90788 0.0
C121 C 0.77479 0.39982 0.91206 0.0
C122 C 0.78735 0.37634 0.04948 0.0
N123 N 0.7623 0.55569 0.03824 0.0
H124 H 0.04884 0.28493 0.28114 0.0
H125 H 0.05533 0.26789 0.75337 0.0
H126 H 0.20666 0.31915 0.54251 0.0
H127 H 0.96 0.27445 0.73125 0.0
C128 C 0.94462 0.26618 0.61615 0.0
C129 C 0.07222 0.29 0.38881 0.0
C130 C 0.13129 0.30423 0.39818 0.0
C131 C 0.04325 0.28068 0.51726 0.0
C132 C 0.07534 0.28036 0.65569 0.0
C133 C 0.13485 0.29311 0.66547 0.0
C134 C 0.1608 0.30931 0.53756 0.0
N135 N 0.98281 0.26845 0.50005 0.0
H136 H 0.75027 0.98691 0.74648 0.0
H137 H 0.76735 0.9804 0.27429 0.0
H138 H 0.71586 0.8291 0.48513 0.0
H139 H 0.76109 0.07576 0.29643 0.0
C140 C 0.76934 0.09111 0.41154 0.0
C141 C 0.74517 0.96354 0.63882 0.0
C142 C 0.73086 0.90447 0.62946 0.0
C143 C 0.75456 0.99249 0.51038 0.0
C144 C 0.75483 0.9604 0.37196 0.0
C145 C 0.74199 0.9009 0.36218 0.0
C146 C 0.72575 0.87496 0.49008 0.0
N147 N 0.76693 0.05291 0.52762 0.0
H148 H 0.5398 0.2618 0.74765 0.0
H149 H 0.55854 0.27817 0.22553 0.0
H150 H 0.70547 0.24263 0.9739 0.0
H151 H 0.46598 0.25173 0.21702 0.0
C152 C 0.44724 0.26871 0.11637 0.0
C153 C 0.56628 0.25922 0.84985 0.0
C154 C 0.62598 0.25009 0.84476 0.0
C155 C 0.54077 0.26558 0.98749 0.0
C156 C 0.57637 0.26815 0.11988 0.0
C157 C 0.63593 0.26097 0.11574 0.0
C158 C 0.65941 0.24846 0.97834 0.0
N159 N 0.48004 0.27317 0.98946 0.0
H160 H 0.24477 0.06523 0.28613 0.0
H161 H 0.25753 0.06049 0.76336 0.0
H162 H 0.29624 0.21633 0.56761 0.0
H163 H 0.26909 0.96846 0.72548 0.0
C164 C 0.25426 0.95386 0.61326 0.0
C165 C 0.25559 0.08614 0.39498 0.0
C166 C 0.26877 0.14537 0.41034 0.0
C167 C 0.25559 0.05382 0.52137 0.0
C168 C 0.264 0.08251 0.66424 0.0
C169 C 0.27934 0.14117 0.67966 0.0
C170 C 0.28508 0.17076 0.55272 0.0
N171 N 0.24542 0.99321 0.50062 0.0
H172 H 0.48153 0.78912 0.29556 0.0
H173 H 0.46969 0.7675 0.8169 0.0
H174 H 0.31869 0.80297 0.05421 0.0
H175 H 0.55479 0.72755 0.85445 0.0
C176 C 0.57641 0.74743 0.95511 0.0
C177 C 0.45648 0.78988 0.19049 0.0
C178 C 0.39715 0.79821 0.18867 0.0
C179 C 0.48358 0.7801 0.05783 0.0
C180 C 0.44995 0.77632 0.92049 0.0
C181 C 0.3898 0.78353 0.91782 0.0
C182 C 0.36487 0.79744 0.0528 0.0
N183 N 0.54437 0.773 0.06872 0.0
loop_
_geom_bond_atom_site_label_1
_geom_bond_atom_site_label_2
_geom_bond_distance
_geom_bond_site_symmetry_2
_ccdc_geom_bond_type
Fe0 O2 1.918 . S
Fe0 O5 1.997 . S
Fe0 O6 2.002 . S
Fe0 O11 1.976 . S
Fe0 O14 1.996 . S
Fe1 O2 1.918 1_556 S
Fe1 O9 1.997 . S
Fe1 O12 1.996 . S
Fe1 O16 1.976 . S
Fe1 O19 2.002 . S
O2 Fe0 1.918 . S
O2 Fe1 1.918 1_554 S
O2 Fe3 1.918 1_554 S
Fe3 O2 1.918 1_556 S
Fe3 O4 2.002 1_556 S
Fe3 O13 1.976 1_556 S
Fe3 O17 1.996 . S
Fe3 O20 1.997 . S
O4 Fe3 2.002 1_554 S
O4 C21 1.295 . S
O5 Fe0 1.997 . S
O5 C21 1.235 . S
O6 Fe0 2.002 . S
O6 C7 1.295 . S
C7 O6 1.295 . S
C7 O9 1.235 1_554 S
C8 O13 1.287 . S
C8 O14 1.255 . S
O9 Fe1 1.997 . S
O9 C7 1.235 1_556 S
C10 O16 1.287 . S
C10 O17 1.255 . S
O11 Fe0 1.976 . S
O11 C18 1.287 . S
O12 Fe1 1.996 . S
O12 C18 1.255 1_556 S
O13 Fe3 1.976 1_554 S
O13 C8 1.287 . S
O14 Fe0 1.996 . S
O14 C8 1.255 . S
C15 O19 1.295 . S
C15 O20 1.235 . S
O16 Fe1 1.976 . S
O16 C10 1.287 . S
O17 Fe3 1.996 . S
O17 C10 1.255 . S
C18 O11 1.287 . S
C18 O12 1.255 1_554 S
O19 Fe1 2.002 . S
O19 C15 1.295 . S
O20 Fe3 1.997 . S
O20 C15 1.235 . S
C21 O4 1.295 . S
C21 O5 1.235 . S
Fe22 O24 1.918 . S
Fe22 O27 1.997 . S
Fe22 O28 2.002 . S
Fe22 O33 1.976 . S
Fe22 O36 1.996 . S
Fe23 O24 1.918 . S
Fe23 O31 1.997 . S
Fe23 O34 1.996 . S
Fe23 O38 1.976 . S
Fe23 O41 2.002 . S
O24 Fe22 1.918 . S
O24 Fe23 1.918 . S
O24 Fe25 1.918 . S
Fe25 O24 1.918 . S
Fe25 O26 2.002 . S
Fe25 O35 1.976 . S
Fe25 O39 1.996 . S
Fe25 O42 1.997 . S
O26 Fe25 2.002 . S
O26 C43 1.295 . S
O27 Fe22 1.997 . S
O27 C43 1.235 . S
O28 Fe22 2.002 . S
O28 C29 1.295 . S
C29 O28 1.295 . S
C29 O31 1.235 . S
C30 O35 1.287 . S
C30 O36 1.255 . S
O31 Fe23 1.997 . S
O31 C29 1.235 . S
C32 O38 1.287 . S
C32 O39 1.255 . S
O33 Fe22 1.976 . S
O33 C40 1.287 . S
O34 Fe23 1.996 . S
O34 C40 1.255 . S
O35 Fe25 1.976 . S
O35 C30 1.287 . S
O36 Fe22 1.996 . S
O36 C30 1.255 . S
C37 O41 1.295 . S
C37 O42 1.235 . S
O38 Fe23 1.976 . S
O38 C32 1.287 . S
O39 Fe25 1.996 . S
O39 C32 1.255 . S
C40 O33 1.287 . S
C40 O34 1.255 . S
O41 Fe23 2.002 . S
O41 C37 1.295 . S
O42 Fe25 1.997 . S
O42 C37 1.235 . S
C43 O26 1.295 . S
C43 O27 1.235 . S
Fe44 O46 1.918 1_556 S
Fe44 O49 1.997 . S
Fe44 O50 2.002 . S
Fe44 O55 1.976 . S
Fe44 O58 1.996 . S
Fe45 O46 1.918 . S
Fe45 O53 1.997 . S
Fe45 O56 1.996 . S
Fe45 O60 1.976 . S
Fe45 O63 2.002 . S
O46 Fe44 1.918 1_554 S
O46 Fe45 1.918 . S
O46 Fe47 1.918 . S
Fe47 O46 1.918 . S
Fe47 O48 2.002 1_554 S
Fe47 O57 1.976 1_554 S
Fe47 O61 1.996 . S
Fe47 O64 1.997 . S
O48 Fe47 2.002 1_556 S
O48 C65 1.295 . S
O49 Fe44 1.997 . S
O49 C65 1.235 . S
O50 Fe44 2.002 . S
O50 C51 1.295 1_556 S
C51 O50 1.295 1_554 S
C51 O53 1.235 . S
C52 O57 1.287 . S
C52 O58 1.255 . S
O53 Fe45 1.997 . S
O53 C51 1.235 . S
C54 O60 1.287 . S
C54 O61 1.255 . S
O55 Fe44 1.976 . S
O55 C62 1.287 1_556 S
O56 Fe45 1.996 . S
O56 C62 1.255 . S
O57 Fe47 1.976 1_556 S
O57 C52 1.287 . S
O58 Fe44 1.996 . S
O58 C52 1.255 . S
C59 O63 1.295 . S
C59 O64 1.235 . S
O60 Fe45 1.976 . S
O60 C54 1.287 . S
O61 Fe47 1.996 . S
O61 C54 1.255 . S
C62 O55 1.287 1_554 S
C62 O56 1.255 . S
O63 Fe45 2.002 . S
O63 C59 1.295 . S
O64 Fe47 1.997 . S
O64 C59 1.235 . S
C65 O48 1.295 . S
C65 O49 1.235 . S
Fe66 O68 1.918 . S
Fe66 O71 1.997 . S
Fe66 O72 2.002 . S
Fe66 O77 1.976 . S
Fe66 O80 1.996 . S
Fe67 O68 1.918 . S
Fe67 O75 1.997 . S
Fe67 O78 1.996 . S
Fe67 O82 1.976 . S
Fe67 O85 2.002 . S
O68 Fe66 1.918 . S
O68 Fe67 1.918 . S
O68 Fe69 1.918 . S
Fe69 O68 1.918 . S
Fe69 O70 2.002 . S
Fe69 O79 1.976 . S
Fe69 O83 1.996 . S
Fe69 O86 1.997 . S
O70 Fe69 2.002 . S
O70 C87 1.295 . S
O71 Fe66 1.997 . S
O71 C87 1.235 . S
O72 Fe66 2.002 . S
O72 C73 1.295 . S
C73 O72 1.295 . S
C73 O75 1.235 . S
C74 O79 1.287 . S
C74 O80 1.255 . S
O75 Fe67 1.997 . S
O75 C73 1.235 . S
C76 O82 1.287 . S
C76 O83 1.255 . S
O77 Fe66 1.976 . S
O77 C84 1.287 . S
O78 Fe67 1.996 . S
O78 C84 1.255 . S
O79 Fe69 1.976 . S
O79 C74 1.287 . S
O80 Fe66 1.996 . S
O80 C74 1.255 . S
C81 O85 1.295 . S
C81 O86 1.235 . S
O82 Fe67 1.976 . S
O82 C76 1.287 . S
O83 Fe69 1.996 . S
O83 C76 1.255 . S
C84 O77 1.287 . S
C84 O78 1.255 . S
O85 Fe67 2.002 . S
O85 C81 1.295 . S
O86 Fe69 1.997 . S
O86 C81 1.235 . S
C87 O70 1.295 . S
C87 O71 1.235 . S
H88 C93 0.930 . S
H89 C96 0.930 . S
H90 C98 0.930 . S
H91 C92 1.016 . S
C92 H91 1.016 . S
C92 N99 1.286 1_554 S
C93 H88 0.930 . S
C93 C94 1.397 . S
C93 C95 1.361 . S
C94 C93 1.397 . S
C94 C98 1.390 1_556 S
C95 C93 1.361 . S
C95 C96 1.393 1_556 S
C95 N99 1.413 . S
C96 H89 0.930 . S
C96 C95 1.393 1_554 S
C96 C97 1.399 . S
C97 C96 1.399 . S
C97 C98 1.381 . S
C98 H90 0.930 . S
C98 C94 1.390 1_554 S
C98 C97 1.381 . S
N99 C92 1.286 1_556 S
N99 C95 1.413 . S
H100 C105 0.930 . S
H101 C108 0.931 1_455 S
H102 C110 0.930 . S
H103 C104 1.016 . S
C104 H103 1.016 . S
C104 N111 1.286 . S
C105 H100 0.930 . S
C105 C106 1.397 . S
C105 C107 1.361 1_655 S
C106 C105 1.397 . S
C106 C110 1.390 . S
C107 C105 1.361 1_455 S
C107 C108 1.393 1_455 S
C107 N111 1.413 . S
C108 H101 0.931 1_655 S
C108 C107 1.393 1_655 S
C108 C109 1.399 . S
C109 C108 1.399 . S
C109 C110 1.381 . S
C110 H102 0.930 . S
C110 C106 1.390 . S
C110 C109 1.381 . S
N111 C104 1.286 . S
N111 C107 1.413 . S
H112 C117 0.930 . S
H113 C120 0.930 . S
H114 C122 0.930 . S
H115 C116 1.016 . S
C116 H115 1.016 . S
C116 N123 1.286 1_556 S
C117 H112 0.930 . S
C117 C118 1.397 . S
C117 C119 1.361 . S
C118 C117 1.397 . S
C118 C122 1.390 . S
C119 C117 1.361 . S
C119 C120 1.393 1_554 S
C119 N123 1.413 . S
C120 H113 0.930 . S
C120 C119 1.393 1_556 S
C120 C121 1.399 . S
C121 C120 1.399 . S
C121 C122 1.381 1_556 S
C122 H114 0.930 . S
C122 C118 1.390 . S
C122 C121 1.381 1_554 S
N123 C116 1.286 1_554 S
N123 C119 1.413 . S
H124 C129 0.930 . S
H125 C132 0.927 1_655 S
H126 C134 0.930 . S
H127 C128 1.016 . S
C128 H127 1.016 . S
C128 N135 1.286 . S
C129 H124 0.930 . S
C129 C130 1.397 . S
C129 C131 1.361 1_455 S
C130 C129 1.397 . S
C130 C134 1.390 . S
C131 C129 1.361 1_655 S
C131 C132 1.393 1_655 S
C131 N135 1.413 . S
C132 H125 0.927 1_455 S
C132 C131 1.393 1_455 S
C132 C133 1.399 . S
C133 C132 1.399 . S
C133 C134 1.381 . S
C134 H126 0.930 . S
C134 C130 1.390 . S
C134 C133 1.381 . S
N135 C128 1.286 . S
N135 C131 1.413 . S
H136 C141 0.930 . S
H137 C144 0.930 1_545 S
H138 C146 0.930 . S
H139 C140 1.016 . S
C140 H139 1.016 . S
C140 N147 1.286 . S
C141 H136 0.930 . S
C141 C142 1.397 . S
C141 C143 1.361 1_565 S
C142 C141 1.397 . S
C142 C146 1.390 . S
C143 C141 1.361 1_545 S
C143 C144 1.393 1_545 S
C143 N147 1.413 . S
C144 H137 0.930 1_565 S
C144 C143 1.393 1_565 S
C144 C145 1.399 . S
C145 C144 1.399 . S
C145 C146 1.381 . S
C146 H138 0.930 . S
C146 C142 1.390 . S
C146 C145 1.381 . S
N147 C140 1.286 . S
N147 C143 1.413 . S
H148 C153 0.930 . S
H149 C156 0.930 . S
H150 C158 0.930 . S
H151 C152 1.016 . S
C152 H151 1.016 . S
C152 N159 1.286 1_554 S
C153 H148 0.930 . S
C153 C154 1.397 . S
C153 C155 1.361 . S
C154 C153 1.397 . S
C154 C158 1.390 1_556 S
C155 C153 1.361 . S
C155 C156 1.393 1_556 S
C155 N159 1.413 . S
C156 H149 0.930 . S
C156 C155 1.393 1_554 S
C156 C157 1.399 . S
C157 C156 1.399 . S
C157 C158 1.381 . S
C158 H150 0.930 . S
C158 C154 1.390 1_554 S
C158 C157 1.381 . S
N159 C152 1.286 1_556 S
N159 C155 1.413 . S
H160 C165 0.930 . S
H161 C168 0.930 1_565 S
H162 C170 0.930 . S
H163 C164 1.016 . S
C164 H163 1.016 . S
C164 N171 1.286 . S
C165 H160 0.930 . S
C165 C166 1.397 . S
C165 C167 1.361 1_545 S
C166 C165 1.397 . S
C166 C170 1.390 . S
C167 C165 1.361 1_565 S
C167 C168 1.393 1_565 S
C167 N171 1.413 . S
C168 H161 0.930 1_545 S
C168 C167 1.393 1_545 S
C168 C169 1.399 . S
C169 C168 1.399 . S
C169 C170 1.381 . S
C170 H162 0.930 . S
C170 C166 1.390 . S
C170 C169 1.381 . S
N171 C164 1.286 . S
N171 C167 1.413 . S
H172 C177 0.930 . S
H173 C180 0.930 . S
H174 C182 0.930 1_556 S
H175 C176 1.016 . S
C176 H175 1.016 . S
C176 N183 1.286 1_556 S
C177 H172 0.930 . S
C177 C178 1.397 . S
C177 C179 1.361 . S
C178 C177 1.397 . S
C178 C182 1.390 . S
C179 C177 1.361 . S
C179 C180 1.393 1_554 S
C179 N183 1.413 . S
C180 H173 0.930 . S
C180 C179 1.393 1_556 S
C180 C181 1.399 . S
C181 C180 1.399 . S
C181 C182 1.381 1_556 S
C182 H174 0.930 1_554 S
C182 C178 1.390 . S
C182 C181 1.381 1_554 S
N183 C176 1.286 1_554 S
N183 C179 1.413 . S
C21 C130 1.468 . S
C40 C94 1.544 . S
C109 C54 1.435 . S
C73 C121 1.514 . S
C157 C74 1.422 . S
C169 C10 1.516 . S
C178 C37 1.493 . S
C142 C65 1.541 . S
C52 C106 1.426 . S
C87 C118 1.519 . S
C15 C133 1.493 . S
C97 C32 1.481 . S
C29 C181 1.470 . S
C145 C59 1.559 . S
C154 C84 1.429 . S
C8 C166 1.451 . S
C92 C7 1.558 . S
C104 C30 1.481 . S
C62 C116 1.609 1_554 S
C81 C128 1.497 . S
C140 C76 1.565 . S
C18 C152 1.486 . S
C43 C164 1.591 . S
C51 C176 1.500 1_554 S
