# Generated by pormake.
# Topology zzz, (3,6)-cn, num edge types: 1
# Building blocks:
#     Node 0, Type 0, BuildingBlock: CUQRIR_clean_linker_1, # of connection points: 3
#     Node 1, Type 0, BuildingBlock: CUQRIR_clean_linker_1, # of connection points: 3
#     Node 2, Type 0, BuildingBlock: CUQRIR_clean_linker_1, # of connection points: 3
#     Node 3, Type 0, BuildingBlock: CUQRIR_clean_linker_1, # of connection points: 3
#     Node 4, Type 0, BuildingBlock: CUQRIR_clean_linker_1, # of connection points: 3
#     Node 5, Type 0, BuildingBlock: CUQRIR_clean_linker_1, # of connection points: 3
#     Node 6, Type 0, BuildingBlock: CUQRIR_clean_linker_1, # of connection points: 3
#     Node 7, Type 0, BuildingBlock: CUQRIR_clean_linker_1, # of connection points: 3
#     Node 8, Type 1, BuildingBlock: LEVNOQ01_clean_sbu_1, # of connection points: 6
#     Node 9, Type 1, BuildingBlock: LEVNOQ01_clean_sbu_1, # of connection points: 6
#     Node 10, Type 1, BuildingBlock: LEVNOQ01_clean_sbu_1, # of connection points: 6
#     Node 11, Type 1, BuildingBlock: LEVNOQ01_clean_sbu_1, # of connection points: 6
#     Edge 12, Type (0, 1), None
#     Edge 13, Type (0, 1), None
#     Edge 14, Type (0, 1), None
#     Edge 15, Type (0, 1), None
#     Edge 16, Type (0, 1), None
#     Edge 17, Type (0, 1), None
#     Edge 18, Type (0, 1), None
#     Edge 19, Type (0, 1), None
#     Edge 20, Type (0, 1), None
#     Edge 21, Type (0, 1), None
#     Edge 22, Type (0, 1), None
#     Edge 23, Type (0, 1), None
#     Edge 24, Type (0, 1), None
#     Edge 25, Type (0, 1), None
#     Edge 26, Type (0, 1), None
#     Edge 27, Type (0, 1), None
#     Edge 28, Type (0, 1), None
#     Edge 29, Type (0, 1), None
#     Edge 30, Type (0, 1), None
#     Edge 31, Type (0, 1), None
#     Edge 32, Type (0, 1), None
#     Edge 33, Type (0, 1), None
#     Edge 34, Type (0, 1), None
#     Edge 35, Type (0, 1), None
# Relax obj value: 0.139
# Max RMSD: 0.179
# Mean RMSD: 0.116
data_MOF--net-zzz--node1-LEVNOQ01_clean_sbu_1--node2-CUQRIR_clean_linker_1--edge1-none
_symmetry_space_group_name_H-M    P1
_symmetry_Int_Tables_number       1
_symmetry_cell_setting            triclinic
loop_
_symmetry_equiv_pos_as_xyz
'x, y, z'
_cell_length_a     18.482487
_cell_length_b     18.482881
_cell_length_c     6.5073896
_cell_angle_alpha  89.997008
_cell_angle_beta   90.003721
_cell_angle_gamma 90.007985
loop_
_atom_site_label
_atom_site_type_symbol
_atom_site_fract_x
_atom_site_fract_y
_atom_site_fract_z
_atom_type_partial_charge
C0 C 0.73622 0.52755 0.11145 0.0
N1 N 0.80609 0.54135 0.16917 0.0
N2 N 0.72162 0.54518 0.91128 0.0
C3 C 0.67845 0.50469 0.25409 0.0
C4 C 0.7855 0.57622 0.86241 0.0
N5 N 0.83838 0.56386 0.00222 0.0
C6 C 0.79398 0.6272 0.68468 0.0
H7 H 0.69382 0.45223 0.32184 0.0
H8 H 0.62595 0.50137 0.17213 0.0
H9 H 0.67356 0.54601 0.37577 0.0
H10 H 0.77581 0.68122 0.73596 0.0
H11 H 0.75885 0.61137 0.55478 0.0
H12 H 0.85113 0.63249 0.63588 0.0
C13 C 1.00621 0.74146 0.11146 0.0
N14 N 0.99241 0.81133 0.16914 0.0
N15 N 0.98859 0.72686 0.91127 0.0
C16 C 0.02918 0.68374 0.25409 0.0
C17 C 0.95759 0.79074 0.86232 0.0
N18 N 0.96992 0.84362 0.00214 0.0
C19 C 0.90659 0.79919 0.68464 0.0
H20 H 0.08173 0.6991 0.32134 0.0
H21 H 0.03238 0.63121 0.17225 0.0
H22 H 0.988 0.6789 0.37616 0.0
H23 H 0.85257 0.78103 0.73603 0.0
H24 H 0.92238 0.76405 0.55477 0.0
H25 H 0.90129 0.85634 0.63577 0.0
C26 C 0.79234 0.01148 0.11144 0.0
N27 N 0.72248 0.99765 0.16913 0.0
N28 N 0.80695 0.99386 0.91126 0.0
C29 C 0.85008 0.03444 0.25407 0.0
C30 C 0.74307 0.96284 0.8623 0.0
N31 N 0.69019 0.97514 0.00216 0.0
C32 C 0.73463 0.91181 0.6847 0.0
H33 H 0.83472 0.08698 0.32134 0.0
H34 H 0.90261 0.03764 0.17223 0.0
H35 H 0.85491 0.99324 0.37613 0.0
H36 H 0.75281 0.85782 0.73617 0.0
H37 H 0.76977 0.92761 0.55481 0.0
H38 H 0.67749 0.90648 0.63582 0.0
C39 C 0.52235 0.7976 0.11141 0.0
N40 N 0.53619 0.72775 0.16915 0.0
N41 N 0.53997 0.81221 0.91124 0.0
C42 C 0.49945 0.85535 0.25403 0.0
C43 C 0.57103 0.74835 0.86236 0.0
N44 N 0.55872 0.69547 0.00221 0.0
C45 C 0.62204 0.73992 0.68471 0.0
H46 H 0.44699 0.83995 0.32171 0.0
H47 H 0.49613 0.90785 0.17209 0.0
H48 H 0.54076 0.86026 0.37577 0.0
H49 H 0.67606 0.75805 0.73617 0.0
H50 H 0.60626 0.7751 0.55487 0.0
H51 H 0.62732 0.68279 0.63576 0.0
C52 C 0.29234 0.51146 0.10969 0.0
N53 N 0.22248 0.49763 0.05199 0.0
N54 N 0.30695 0.49385 0.30988 0.0
C55 C 0.35007 0.53444 -0.03293 0.0
C56 C 0.24307 0.46282 0.35883 0.0
N57 N 0.1902 0.47512 0.21896 0.0
C58 C 0.23463 0.41181 0.53647 0.0
H59 H 0.35491 0.49325 0.84501 0.0
H60 H 0.4026 0.53766 0.04893 0.0
H61 H 0.3347 0.58698 0.89979 0.0
H62 H 0.26978 0.42762 0.66636 0.0
H63 H 0.25282 0.35781 0.48507 0.0
H64 H 0.17749 0.40647 0.58534 0.0
C65 C 0.02234 0.29759 0.10963 0.0
N66 N 0.0362 0.22775 0.0519 0.0
N67 N 0.03995 0.31221 0.3098 0.0
C68 C 0.99941 0.35533 -0.033 0.0
C69 C 0.07103 0.24835 0.3587 0.0
N70 N 0.05873 0.19547 0.21886 0.0
C71 C 0.12204 0.23993 0.53638 0.0
H72 H 0.04069 0.36024 0.84522 0.0
H73 H 0.99609 0.40784 0.04892 0.0
H74 H 0.94693 0.33993 0.8994 0.0
H75 H 0.10626 0.27512 0.66619 0.0
H76 H 0.17606 0.25805 0.48492 0.0
H77 H 0.12732 0.1828 0.58537 0.0
C78 C 0.23622 0.02753 0.1095 0.0
N79 N 0.30609 0.04134 0.05178 0.0
N80 N 0.22162 0.04517 0.30966 0.0
C81 C 0.17845 1.00469 -0.03316 0.0
C82 C 0.2855 0.0762 0.35854 0.0
N83 N 0.33838 0.06384 0.21874 0.0
C84 C 0.29398 0.12719 0.53622 0.0
H85 H 0.17357 0.04602 0.84516 0.0
H86 H 0.12595 1.00138 0.04878 0.0
H87 H 0.19381 0.95223 0.89911 0.0
H88 H 0.25885 0.11138 0.66612 0.0
H89 H 0.27581 0.18121 0.48487 0.0
H90 H 0.35113 0.1325 0.58504 0.0
C91 C 0.5062 0.24147 0.10958 0.0
N92 N 0.49241 0.31134 0.05188 0.0
N93 N 0.48858 0.22686 0.30976 0.0
C94 C 0.52914 0.18373 -0.03305 0.0
C95 C 0.45758 0.29074 0.35869 0.0
N96 N 0.46993 0.34362 0.21886 0.0
C97 C 0.40658 0.29921 0.53634 0.0
H98 H 0.48794 0.17889 0.84492 0.0
H99 H 0.53235 0.1312 0.04882 0.0
H100 H 0.58168 0.19909 0.89963 0.0
H101 H 0.42238 0.26407 0.66624 0.0
H102 H 0.35257 0.28103 0.48496 0.0
H103 H 0.40128 0.35635 0.58517 0.0
O104 O 0.08004 0.8852 0.91504 0.0
Mg105 Mg 0.13622 0.89131 0.62535 0.0
O106 O 0.98192 0.94432 0.82806 0.0
Mg107 Mg 0.01437 0.01954 0.61055 0.0
O108 O 0.12976 0.99571 0.51772 0.0
O109 O 0.23119 0.93648 0.48451 0.0
O110 O 0.04684 0.09478 0.39306 0.0
O111 O 0.03592 0.12281 0.85101 0.0
Mg112 Mg 0.89251 0.14763 0.59559 0.0
O113 O 0.89898 0.04331 0.70387 0.0
O114 O 0.94866 0.15373 0.30585 0.0
O115 O 0.95468 0.21065 0.79672 0.0
O116 O 0.79748 0.10251 0.73617 0.0
C117 C 0.01793 0.85114 0.3336 0.0
C118 C 0.01219 0.89711 -0.06879 0.0
C119 C 0.19433 0.99362 0.44187 0.0
C120 C 0.01652 0.14192 0.28977 0.0
C121 C 0.01072 0.18793 0.88741 0.0
C122 C 0.83432 0.04538 0.7791 0.0
O123 O 0.07398 0.82838 0.42419 0.0
O124 O 0.99277 0.91628 0.37005 0.0
O125 O 0.32314 0.95976 0.7968 0.0
Mg126 Mg 0.38606 0.89754 0.59562 0.0
O127 O 0.41102 0.04101 0.85085 0.0
Mg128 Mg 0.51429 0.01945 0.61042 0.0
O129 O 0.49047 0.90404 0.70319 0.0
O130 O 0.43127 0.80258 0.73646 0.0
O131 O 0.61755 0.99792 0.37003 0.0
O132 O 0.5895 0.98702 0.82799 0.0
Mg133 Mg 0.64239 0.14134 0.62539 0.0
O134 O 0.53805 0.13485 0.51715 0.0
O135 O 0.70541 0.07918 0.42427 0.0
O136 O 0.64848 0.08521 0.91515 0.0
O137 O 0.59724 0.23636 0.48482 0.0
C138 C 0.39186 0.02158 0.28972 0.0
C139 C 0.34589 0.01582 0.88733 0.0
C140 C 0.4884 0.83947 0.77904 0.0
C141 C 0.68267 0.02313 0.33361 0.0
C142 C 0.63665 0.01735 -0.06873 0.0
C143 C 0.54011 0.1995 0.44192 0.0
O144 O 0.37994 0.95373 0.30593 0.0
O145 O 0.43909 0.05186 0.39285 0.0
O146 O 0.57398 0.32838 0.79686 0.0
Mg147 Mg 0.63623 0.3913 0.59567 0.0
O148 O 0.49277 0.41628 0.85095 0.0
Mg149 Mg 0.51436 0.51955 0.61048 0.0
O150 O 0.62977 0.49571 0.70323 0.0
O151 O 0.73121 0.4365 0.73648 0.0
O152 O 0.53591 0.62281 0.37006 0.0
O153 O 0.54682 0.59478 0.82802 0.0
Mg154 Mg 0.39249 0.64765 0.62546 0.0
O155 O 0.39897 0.54332 0.51726 0.0
O156 O 0.45467 0.71066 0.4243 0.0
O157 O 0.44864 0.65374 0.9152 0.0
O158 O 0.29746 0.6025 0.4849 0.0
C159 C 0.5122 0.39711 0.2898 0.0
C160 C 0.51794 0.35114 0.88742 0.0
C161 C 0.69433 0.49363 0.77908 0.0
C162 C 0.51071 0.68793 0.33364 0.0
C163 C 0.51651 0.64193 -0.0687 0.0
C164 C 0.33431 0.54538 0.44202 0.0
O165 O 0.58005 0.38519 0.30598 0.0
O166 O 0.48193 0.44433 0.39294 0.0
O167 O 0.87992 0.45374 0.91504 0.0
Mg168 Mg 0.88606 0.39755 0.62537 0.0
O169 O 0.93908 0.55187 0.82814 0.0
Mg170 Mg 0.01429 0.51945 0.61062 0.0
O171 O 0.99047 0.40404 0.51782 0.0
O172 O 0.93126 0.30258 0.48456 0.0
O173 O 0.0895 0.48701 0.3931 0.0
O174 O 0.11754 0.49791 0.85106 0.0
Mg175 Mg 0.14238 0.64133 0.59569 0.0
O176 O 0.03805 0.63484 0.70392 0.0
O177 O 0.14849 0.58519 0.30594 0.0
O178 O 0.2054 0.57917 0.79683 0.0
O179 O 0.09725 0.73635 0.73624 0.0
C180 C 0.84589 0.51583 0.33364 0.0
C181 C 0.89185 0.52159 -0.06876 0.0
C182 C 0.98839 0.33947 0.44197 0.0
C183 C 0.13666 0.51733 0.28983 0.0
C184 C 0.18267 0.52312 0.8875 0.0
C185 C 0.04012 0.6995 0.77914 0.0
O186 O 0.82314 0.45976 0.42416 0.0
O187 O 0.91102 0.54101 0.37014 0.0
loop_
_geom_bond_atom_site_label_1
_geom_bond_atom_site_label_2
_geom_bond_distance
_geom_bond_site_symmetry_2
_ccdc_geom_bond_type
C0 N1 1.317 . S
C0 N2 1.348 . S
C0 C3 1.485 . S
N1 C0 1.317 . S
N1 N5 1.370 1_554 S
N2 C0 1.348 . S
N2 C4 1.346 1_554 S
C3 C0 1.485 . S
C3 H7 0.960 . S
C3 H8 0.961 . S
C3 H9 0.960 . S
C4 N2 1.346 1_556 S
C4 N5 1.307 . S
C4 C6 1.486 . S
N5 N1 1.370 1_556 S
N5 C4 1.307 . S
C6 C4 1.486 . S
C6 H10 0.960 . S
C6 H11 0.960 . S
C6 H12 0.959 . S
H7 C3 0.960 . S
H8 C3 0.961 . S
H9 C3 0.960 . S
H10 C6 0.960 . S
H11 C6 0.960 . S
H12 C6 0.959 . S
C13 N14 1.317 . S
C13 N15 1.348 . S
C13 C16 1.485 . S
N14 C13 1.317 . S
N14 N18 1.370 1_554 S
N15 C13 1.348 . S
N15 C17 1.346 1_554 S
C16 C13 1.485 . S
C16 H20 0.960 1_655 S
C16 H21 0.961 . S
C16 H22 0.960 . S
C17 N15 1.346 1_556 S
C17 N18 1.307 . S
C17 C19 1.486 . S
N18 N14 1.370 1_556 S
N18 C17 1.307 . S
C19 C17 1.486 . S
C19 H23 0.960 . S
C19 H24 0.960 1_655 S
C19 H25 0.959 . S
H20 C16 0.960 1_455 S
H21 C16 0.961 . S
H22 C16 0.960 . S
H23 C19 0.960 . S
H24 C19 0.960 1_455 S
H25 C19 0.959 . S
C26 N27 1.317 . S
C26 N28 1.348 . S
C26 C29 1.485 . S
N27 C26 1.317 . S
N27 N31 1.370 1_554 S
N28 C26 1.348 . S
N28 C30 1.346 1_554 S
C29 C26 1.485 . S
C29 H33 0.960 1_565 S
C29 H34 0.961 . S
C29 H35 0.960 . S
C30 N28 1.346 1_556 S
C30 N31 1.307 . S
C30 C32 1.486 . S
N31 N27 1.370 1_556 S
N31 C30 1.307 . S
C32 C30 1.486 . S
C32 H36 0.960 . S
C32 H37 0.960 1_565 S
C32 H38 0.959 . S
H33 C29 0.960 1_545 S
H34 C29 0.961 . S
H35 C29 0.960 . S
H36 C32 0.960 . S
H37 C32 0.960 1_545 S
H38 C32 0.959 . S
C39 N40 1.317 . S
C39 N41 1.348 . S
C39 C42 1.485 . S
N40 C39 1.317 . S
N40 N44 1.370 1_554 S
N41 C39 1.348 . S
N41 C43 1.346 1_554 S
C42 C39 1.485 . S
C42 H46 0.960 . S
C42 H47 0.961 . S
C42 H48 0.960 . S
C43 N41 1.346 1_556 S
C43 N44 1.307 . S
C43 C45 1.486 . S
N44 N40 1.370 1_556 S
N44 C43 1.307 . S
C45 C43 1.486 . S
C45 H49 0.960 . S
C45 H50 0.960 . S
C45 H51 0.959 . S
H46 C42 0.960 . S
H47 C42 0.961 . S
H48 C42 0.960 . S
H49 C45 0.960 . S
H50 C45 0.960 . S
H51 C45 0.959 . S
C52 N53 1.317 . S
C52 N54 1.348 . S
C52 C55 1.485 1_554 S
N53 C52 1.317 . S
N53 N57 1.370 . S
N54 C52 1.348 . S
N54 C56 1.346 . S
C55 C52 1.485 1_556 S
C55 H59 0.960 . S
C55 H60 0.961 . S
C55 H61 0.960 . S
C56 N54 1.346 . S
C56 N57 1.307 . S
C56 C58 1.486 . S
N57 N53 1.370 . S
N57 C56 1.307 . S
C58 C56 1.486 . S
C58 H62 0.960 . S
C58 H63 0.960 . S
C58 H64 0.959 . S
H59 C55 0.960 . S
H60 C55 0.961 . S
H61 C55 0.960 . S
H62 C58 0.960 . S
H63 C58 0.960 . S
H64 C58 0.959 . S
C65 N66 1.317 . S
C65 N67 1.348 . S
C65 C68 1.485 1_554 S
N66 C65 1.317 . S
N66 N70 1.370 . S
N67 C65 1.348 . S
N67 C69 1.346 . S
C68 C65 1.485 1_556 S
C68 H72 0.960 . S
C68 H73 0.961 . S
C68 H74 0.960 . S
C69 N67 1.346 . S
C69 N70 1.307 . S
C69 C71 1.486 . S
N70 N66 1.370 . S
N70 C69 1.307 . S
C71 C69 1.486 . S
C71 H75 0.960 1_455 S
C71 H76 0.960 . S
C71 H77 0.959 . S
H72 C68 0.960 . S
H73 C68 0.961 . S
H74 C68 0.960 . S
H75 C71 0.960 1_655 S
H76 C71 0.960 . S
H77 C71 0.959 . S
C78 N79 1.317 . S
C78 N80 1.348 . S
C78 C81 1.485 1_554 S
N79 C78 1.317 . S
N79 N83 1.370 . S
N80 C78 1.348 . S
N80 C82 1.346 . S
C81 C78 1.485 1_556 S
C81 H85 0.960 . S
C81 H86 0.961 . S
C81 H87 0.960 . S
C82 N80 1.346 . S
C82 N83 1.307 . S
C82 C84 1.486 . S
N83 N79 1.370 . S
N83 C82 1.307 . S
C84 C82 1.486 . S
C84 H88 0.960 . S
C84 H89 0.960 . S
C84 H90 0.959 . S
H85 C81 0.960 . S
H86 C81 0.961 . S
H87 C81 0.960 . S
H88 C84 0.960 . S
H89 C84 0.960 . S
H90 C84 0.959 . S
C91 N92 1.317 . S
C91 N93 1.348 . S
C91 C94 1.485 1_554 S
N92 C91 1.317 . S
N92 N96 1.370 . S
N93 C91 1.348 . S
N93 C95 1.346 . S
C94 C91 1.485 1_556 S
C94 H98 0.960 . S
C94 H99 0.961 . S
C94 H100 0.960 . S
C95 N93 1.346 . S
C95 N96 1.307 . S
C95 C97 1.486 . S
N96 N92 1.370 . S
N96 C95 1.307 . S
C97 C95 1.486 . S
C97 H101 0.960 . S
C97 H102 0.960 . S
C97 H103 0.959 . S
H98 C94 0.960 . S
H99 C94 0.961 . S
H100 C94 0.960 . S
H101 C97 0.960 . S
H102 C97 0.960 . S
H103 C97 0.959 . S
O104 Mg105 1.990 . S
O104 C118 1.253 . S
Mg105 O104 1.990 . S
Mg105 O108 2.180 . S
Mg105 O109 2.117 . S
Mg105 O123 2.030 . S
O106 Mg107 2.072 1_665 S
O106 C118 1.260 1_655 S
Mg107 O106 2.072 1_445 S
Mg107 O108 2.099 1_545 S
Mg107 O110 2.079 . S
Mg107 O111 2.072 . S
Mg107 O113 2.099 1_455 S
Mg107 O124 2.079 1_445 S
O108 Mg105 2.180 . S
O108 Mg107 2.099 1_565 S
O108 C119 1.279 . S
O109 Mg105 2.117 . S
O109 C119 1.250 . S
O110 Mg107 2.079 . S
O110 C120 1.264 1_455 S
O111 Mg107 2.072 . S
O111 C121 1.260 1_556 S
Mg112 O113 2.180 . S
Mg112 O114 2.030 . S
Mg112 O115 1.990 1_556 S
Mg112 O116 2.117 1_556 S
O113 Mg107 2.099 1_655 S
O113 Mg112 2.180 . S
O113 C122 1.279 . S
O114 Mg112 2.030 . S
O114 C120 1.248 . S
O115 Mg112 1.990 1_554 S
O115 C121 1.253 1_655 S
O116 Mg112 2.117 1_554 S
O116 C122 1.250 1_554 S
C117 O123 1.248 1_655 S
C117 O124 1.264 . S
C118 O104 1.253 . S
C118 O106 1.260 1_455 S
C119 O108 1.279 . S
C119 O109 1.250 . S
C120 O110 1.264 1_655 S
C120 O114 1.248 . S
C121 O111 1.260 1_554 S
C121 O115 1.253 1_455 S
C122 O113 1.279 . S
C122 O116 1.250 1_556 S
O123 Mg105 2.030 . S
O123 C117 1.248 1_455 S
O124 Mg107 2.079 1_665 S
O124 C117 1.264 . S
O125 Mg126 1.990 1_554 S
O125 C139 1.253 1_565 S
Mg126 O125 1.990 1_556 S
Mg126 O129 2.180 . S
Mg126 O130 2.117 1_556 S
Mg126 O144 2.030 . S
O127 Mg128 2.072 . S
O127 C139 1.260 1_556 S
Mg128 O127 2.072 . S
Mg128 O129 2.099 1_545 S
Mg128 O131 2.079 1_545 S
Mg128 O132 2.072 1_545 S
Mg128 O134 2.099 . S
Mg128 O145 2.079 . S
O129 Mg126 2.180 . S
O129 Mg128 2.099 1_565 S
O129 C140 1.279 . S
O130 Mg126 2.117 1_554 S
O130 C140 1.250 1_554 S
O131 Mg128 2.079 1_565 S
O131 C141 1.264 . S
O132 Mg128 2.072 1_565 S
O132 C142 1.260 1_565 S
Mg133 O134 2.180 . S
Mg133 O135 2.030 . S
Mg133 O136 1.990 . S
Mg133 O137 2.117 . S
O134 Mg128 2.099 . S
O134 Mg133 2.180 . S
O134 C143 1.279 . S
O135 Mg133 2.030 . S
O135 C141 1.248 1_545 S
O136 Mg133 1.990 . S
O136 C142 1.253 . S
O137 Mg133 2.117 . S
O137 C143 1.250 . S
C138 O144 1.248 . S
C138 O145 1.264 1_565 S
C139 O125 1.253 1_545 S
C139 O127 1.260 1_554 S
C140 O129 1.279 . S
C140 O130 1.250 1_556 S
C141 O131 1.264 . S
C141 O135 1.248 1_565 S
C142 O132 1.260 1_545 S
C142 O136 1.253 . S
C143 O134 1.279 . S
C143 O137 1.250 . S
O144 Mg126 2.030 . S
O144 C138 1.248 . S
O145 Mg128 2.079 . S
O145 C138 1.264 1_545 S
O146 Mg147 1.990 1_554 S
O146 C160 1.253 . S
Mg147 O146 1.990 1_556 S
Mg147 O150 2.180 . S
Mg147 O151 2.117 1_556 S
Mg147 O165 2.030 . S
O148 Mg149 2.072 . S
O148 C160 1.260 1_556 S
Mg149 O148 2.072 . S
Mg149 O150 2.099 . S
Mg149 O152 2.079 . S
Mg149 O153 2.072 . S
Mg149 O155 2.099 . S
Mg149 O166 2.079 . S
O150 Mg147 2.180 . S
O150 Mg149 2.099 . S
O150 C161 1.279 . S
O151 Mg147 2.117 1_554 S
O151 C161 1.250 1_554 S
O152 Mg149 2.079 . S
O152 C162 1.264 . S
O153 Mg149 2.072 . S
O153 C163 1.260 . S
Mg154 O155 2.180 . S
Mg154 O156 2.030 . S
Mg154 O157 1.990 . S
Mg154 O158 2.117 . S
O155 Mg149 2.099 . S
O155 Mg154 2.180 . S
O155 C164 1.279 . S
O156 Mg154 2.030 . S
O156 C162 1.248 . S
O157 Mg154 1.990 . S
O157 C163 1.253 . S
O158 Mg154 2.117 . S
O158 C164 1.250 . S
C159 O165 1.248 . S
C159 O166 1.264 . S
C160 O146 1.253 . S
C160 O148 1.260 1_554 S
C161 O150 1.279 . S
C161 O151 1.250 1_556 S
C162 O152 1.264 . S
C162 O156 1.248 . S
C163 O153 1.260 . S
C163 O157 1.253 . S
C164 O155 1.279 . S
C164 O158 1.250 . S
O165 Mg147 2.030 . S
O165 C159 1.248 . S
O166 Mg149 2.079 . S
O166 C159 1.264 . S
O167 Mg168 1.990 . S
O167 C181 1.253 . S
Mg168 O167 1.990 . S
Mg168 O171 2.180 . S
Mg168 O172 2.117 . S
Mg168 O186 2.030 . S
O169 Mg170 2.072 1_655 S
O169 C181 1.260 . S
Mg170 O169 2.072 1_455 S
Mg170 O171 2.099 1_455 S
Mg170 O173 2.079 . S
Mg170 O174 2.072 . S
Mg170 O176 2.099 . S
Mg170 O187 2.079 1_455 S
O171 Mg168 2.180 . S
O171 Mg170 2.099 1_655 S
O171 C182 1.279 . S
O172 Mg168 2.117 . S
O172 C182 1.250 . S
O173 Mg170 2.079 . S
O173 C183 1.264 . S
O174 Mg170 2.072 . S
O174 C184 1.260 1_556 S
Mg175 O176 2.180 . S
Mg175 O177 2.030 . S
Mg175 O178 1.990 1_556 S
Mg175 O179 2.117 1_556 S
O176 Mg170 2.099 . S
O176 Mg175 2.180 . S
O176 C185 1.279 . S
O177 Mg175 2.030 . S
O177 C183 1.248 . S
O178 Mg175 1.990 1_554 S
O178 C184 1.253 . S
O179 Mg175 2.117 1_554 S
O179 C185 1.250 1_554 S
C180 O186 1.248 . S
C180 O187 1.264 . S
C181 O167 1.253 . S
C181 O169 1.260 . S
C182 O171 1.279 . S
C182 O172 1.250 . S
C183 O173 1.264 . S
C183 O177 1.248 . S
C184 O174 1.260 1_554 S
C184 O178 1.253 . S
C185 O176 1.279 . S
C185 O179 1.250 1_556 S
O186 Mg168 2.030 . S
O186 C180 1.248 . S
O187 Mg170 2.079 1_655 S
O187 C180 1.264 . S
N80 C119 1.910 1_545 S
C143 N93 1.910 . S
C164 N54 1.909 . S
C182 N67 1.911 1_655 S
C122 N28 1.536 1_546 S
N41 C140 1.538 1_554 S
N2 C161 1.536 1_554 S
N15 C185 1.538 1_654 S
C120 N70 1.177 1_655 S
C138 N83 1.177 1_565 S
C159 N96 1.177 . S
N57 C183 1.177 . S
N18 C118 1.335 1_655 S
C142 N31 1.334 1_545 S
C163 N44 1.335 . S
N5 C181 1.334 . S
N66 C121 1.626 . S
N79 C139 1.626 . S
C160 N92 1.626 . S
C184 N53 1.626 . S
N14 C117 1.422 . S
C141 N27 1.421 . S
C162 N40 1.422 . S
N1 C180 1.421 . S
