# Generated by pormake.
# Topology pts, (4,4)-cn, num edge types: 1
# Building blocks:
#     Node 0, Type 0, BuildingBlock: KUFVIS_clean_linker_0, # of connection points: 4
#     Node 1, Type 0, BuildingBlock: KUFVIS_clean_linker_0, # of connection points: 4
#     Node 2, Type 1, BuildingBlock: QUQFOY_clean_sbu_1, # of connection points: 4
#     Node 3, Type 1, BuildingBlock: QUQFOY_clean_sbu_1, # of connection points: 4
#     Edge 4, Type (0, 1), BuildingBlock: AJUNOK_clean_linker_0, # of connection points: 2
#     Edge 5, Type (0, 1), BuildingBlock: AJUNOK_clean_linker_0, # of connection points: 2
#     Edge 6, Type (0, 1), BuildingBlock: AJUNOK_clean_linker_0, # of connection points: 2
#     Edge 7, Type (0, 1), BuildingBlock: AJUNOK_clean_linker_0, # of connection points: 2
#     Edge 8, Type (0, 1), BuildingBlock: AJUNOK_clean_linker_0, # of connection points: 2
#     Edge 9, Type (0, 1), BuildingBlock: AJUNOK_clean_linker_0, # of connection points: 2
#     Edge 10, Type (0, 1), BuildingBlock: AJUNOK_clean_linker_0, # of connection points: 2
#     Edge 11, Type (0, 1), BuildingBlock: AJUNOK_clean_linker_0, # of connection points: 2
# Relax obj value: 0.102
# Max RMSD: 0.272
# Mean RMSD: 0.185
data_MOF--net-pts--node1-QUQFOY_clean_sbu_1--node2-KUFVIS_clean_linker_0--edge1-AJUNOK_clean_linker_0
_symmetry_space_group_name_H-M    P1
_symmetry_Int_Tables_number       1
_symmetry_cell_setting            triclinic
loop_
_symmetry_equiv_pos_as_xyz
'x, y, z'
_cell_length_a     17.815052
_cell_length_b     17.507168
_cell_length_c     29.891302
_cell_angle_alpha  89.980211
_cell_angle_beta   90.021758
_cell_angle_gamma 88.289622
loop_
_atom_site_label
_atom_site_type_symbol
_atom_site_fract_x
_atom_site_fract_y
_atom_site_fract_z
_atom_type_partial_charge
H0 H 0.2492 1.08221 -0.04298 0.0
H1 H 0.45254 0.11825 0.886 0.0
H2 H 0.4574 1.06582 0.02804 0.0
H3 H 0.56342 0.12061 0.02842 0.0
H4 H 0.76971 0.12157 -0.04453 0.0
H5 H 0.56709 1.0774 0.88536 0.0
C6 C 0.31004 1.08391 -0.04295 0.0
C7 C 0.3497 1.07471 -0.00288 0.0
C8 C 0.34787 1.09756 0.91713 0.0
C9 C 0.42601 0.10325 0.91715 0.0
C10 C 0.46808 1.09209 -0.04306 0.0
C11 C 0.42838 1.07668 -0.00316 0.0
C12 C 0.55221 1.0984 -0.04311 0.0
C13 C 0.59213 0.11285 -0.00315 0.0
C14 C 0.67048 0.11906 -0.00335 0.0
C15 C 0.70928 0.1155 -0.04397 0.0
C16 C 0.6712 0.10221 0.91613 0.0
C17 C 0.59376 1.09124 0.91667 0.0
H18 H 0.01239 0.86964 0.45934 0.0
H19 H 0.98774 0.65735 0.52741 0.0
H20 H 0.03739 0.66124 0.38573 0.0
H21 H 0.98823 0.5505 0.38455 0.0
H22 H 0.01415 0.33702 0.45275 0.0
H23 H 0.0385 0.54422 0.52622 0.0
C24 C 0.01337 0.80781 0.45861 0.0
C25 C 0.02277 0.76968 0.41771 0.0
C26 C 1.00491 0.76718 0.49859 0.0
C27 C 1.00111 0.68711 0.49692 0.0
C28 C 0.01315 0.64647 0.45652 0.0
C29 C 0.02526 0.68936 0.41719 0.0
C30 C 0.01356 0.56018 0.45548 0.0
C31 C 1.00175 0.52012 0.4151 0.0
C32 C 1.006 0.43984 0.4135 0.0
C33 C 0.01487 0.39881 0.45348 0.0
C34 C 0.02445 0.43646 0.49433 0.0
C35 C 0.02632 0.51669 0.49481 0.0
O36 O 0.90053 1.05324 0.1597 0.0
Cd37 Cd 1.00205 1.0255 0.18998 0.0
Cd38 Cd 0.01861 0.1768 0.18847 0.0
O39 O 0.92437 0.17457 0.14848 0.0
O40 O 0.99482 0.92153 0.21703 0.0
O41 O 0.01801 1.02555 0.25621 0.0
C42 C 1.00953 0.95259 0.25506 0.0
C43 C 0.0142 0.25571 0.25126 0.0
C44 C 0.88255 0.11781 0.14266 0.0
C45 C 0.13752 1.0812 0.14258 0.0
O46 O 0.11978 0.14669 0.15844 0.0
O47 O 0.09556 1.02492 0.14945 0.0
O48 O 0.02711 0.2831 0.21203 0.0
O49 O 1.00459 0.18315 0.25483 0.0
O50 O 0.90372 0.16403 0.75289 0.0
Cd51 Cd 1.00507 0.18015 0.72137 0.0
Cd52 Cd 0.01451 1.02733 0.72456 0.0
O53 O 0.91853 1.03977 0.76266 0.0
O54 O 1.00085 0.28514 0.69498 0.0
O55 O 0.01929 0.17984 0.65495 0.0
C56 C 0.01325 0.25347 0.65662 0.0
C57 C 1.01087 0.94941 0.66148 0.0
C58 C 0.88121 0.10176 0.76935 0.0
C59 C 0.13584 0.11149 0.77136 0.0
O60 O 0.11465 1.04719 0.75702 0.0
O61 O 0.09849 0.17219 0.76166 0.0
O62 O 0.02025 0.92051 0.70087 0.0
O63 O 1.00425 1.02283 0.65794 0.0
C64 C 0.25357 1.01153 0.04388 0.0
C65 C 0.30709 1.06832 0.03935 0.0
C66 C 0.20224 1.01321 0.07937 0.0
C67 C 0.20161 1.07268 0.11114 0.0
H68 H 0.24935 0.96734 0.01871 0.0
H69 H 0.15995 0.97004 0.08025 0.0
S70 S 0.33577 0.23069 0.11635 0.0
N71 N 0.36098 0.18179 0.07128 0.0
N72 N 0.26399 0.18579 0.1379 0.0
C73 C 0.25788 0.12729 0.10837 0.0
C74 C 0.31078 0.12488 0.07249 0.0
C75 C 0.98462 0.41582 0.57376 0.0
C76 C 0.02827 0.39183 0.53679 0.0
C77 C 0.98113 0.37131 0.61266 0.0
C78 C 0.02012 0.30051 0.61582 0.0
H79 H 0.95102 0.46836 0.57218 0.0
H80 H 0.94585 0.39154 0.63997 0.0
S81 S 0.1497 0.21591 0.53101 0.0
N82 N 0.1178 0.29625 0.50798 0.0
N83 N 0.10837 0.2111 0.58032 0.0
C84 C 0.06568 0.27675 0.57977 0.0
C85 C 0.07048 0.32276 0.54049 0.0
C86 C 0.76536 0.18422 0.04354 0.0
C87 C 0.71356 0.12582 0.03878 0.0
C88 C 0.81643 0.18396 0.07918 0.0
C89 C 0.81849 0.12449 0.11098 0.0
H90 H 0.76833 0.22882 0.01851 0.0
H91 H 0.85736 0.22847 0.0802 0.0
S92 S 0.68889 0.96245 0.11573 0.0
N93 N 0.66277 1.01064 0.07055 0.0
N94 N 0.75909 1.00949 0.13752 0.0
C95 C 0.76384 1.0682 0.108 0.0
C96 C 0.71127 1.06906 0.07191 0.0
C97 C 0.96135 0.87924 0.54549 0.0
C98 C 1.00213 0.80926 0.542 0.0
C99 C 0.96448 0.92405 0.58425 0.0
C100 C 1.00719 0.89997 0.62147 0.0
H101 H 0.92724 0.90015 0.51783 0.0
H102 H 0.93292 0.9779 0.5851 0.0
S103 S 0.12462 0.72203 0.62997 0.0
N104 N 0.08792 0.71902 0.5793 0.0
N105 N 0.09073 0.80164 0.65285 0.0
C106 C 0.04662 0.82935 0.61909 0.0
C107 C 0.04471 0.78434 0.57926 0.0
C108 C 0.29685 1.0451 0.8464 0.0
C109 C 0.3041 0.10713 0.8756 0.0
C110 C 0.24505 1.04848 0.81108 0.0
C111 C 0.19898 0.11421 0.80373 0.0
H112 H 0.32885 0.99241 0.85223 0.0
H113 H 0.23911 0.99812 0.79049 0.0
S114 S 0.20271 0.29431 0.86953 0.0
N115 N 0.26576 0.23722 0.89396 0.0
N116 N 0.16895 0.24501 0.82736 0.0
C117 C 0.20933 0.17826 0.83148 0.0
C118 C 0.26163 0.17427 0.86758 0.0
C119 C 0.96262 0.33039 0.36663 0.0
C120 C 1.00353 0.39779 0.37016 0.0
C121 C 0.9663 0.28503 0.32803 0.0
C122 C 1.00986 0.30593 0.29105 0.0
H123 H 0.92808 0.3119 0.39416 0.0
H124 H 0.9346 0.23319 0.32717 0.0
S125 S 0.12774 0.4765 0.28282 0.0
N126 N 0.09004 0.48235 0.33318 0.0
N127 N 0.09422 0.39873 0.25997 0.0
C128 C 0.04941 0.37411 0.29348 0.0
C129 C 0.04678 0.41969 0.33312 0.0
C130 C 0.74311 1.03329 0.85626 0.0
C131 C 0.71347 0.10201 0.87381 0.0
C132 C 0.79393 1.03352 0.82044 0.0
C133 C 0.81697 0.10257 0.80112 0.0
H134 H 0.72953 0.97937 0.87162 0.0
H135 H 0.81777 0.9792 0.8092 0.0
S136 S 0.7484 0.29753 0.83343 0.0
N137 N 0.70538 0.24 0.86816 0.0
N138 N 0.80028 0.24144 0.80063 0.0
C139 C 0.78375 0.17151 0.81705 0.0
C140 C 0.73231 0.17095 0.85357 0.0
C141 C 0.98153 0.79266 0.33853 0.0
C142 C 0.02574 0.81412 0.37525 0.0
C143 C 0.9775 0.8372 0.29956 0.0
C144 C 0.01658 0.90555 0.29606 0.0
H145 H 0.94798 0.74215 0.34034 0.0
H146 H 0.94186 0.81896 0.27246 0.0
S147 S 0.14721 0.98268 0.38027 0.0
N148 N 0.11553 0.90443 0.40357 0.0
N149 N 0.10534 0.98972 0.33108 0.0
C150 C 0.0626 0.92671 0.33191 0.0
C151 C 0.06785 0.88063 0.37128 0.0
loop_
_geom_bond_atom_site_label_1
_geom_bond_atom_site_label_2
_geom_bond_distance
_geom_bond_site_symmetry_2
_ccdc_geom_bond_type
H0 C6 0.930 1_565 S
H1 C9 0.931 . S
H2 C11 0.932 . S
H3 C13 0.930 . S
H4 C15 0.930 . S
H5 C17 0.931 . S
C6 H0 0.930 1_545 S
C6 C7 1.380 1_545 S
C6 C8 1.394 1_554 S
C7 C6 1.380 1_565 S
C7 C11 1.383 . S
C8 C6 1.394 1_556 S
C8 C9 1.400 . S
C9 H1 0.931 . S
C9 C8 1.400 . S
C9 C10 1.375 1_556 S
C10 C9 1.375 1_554 S
C10 C11 1.414 1_545 S
C10 C12 1.501 . S
C11 H2 0.932 . S
C11 C7 1.383 . S
C11 C10 1.414 1_565 S
C12 C10 1.501 . S
C12 C13 1.384 . S
C12 C17 1.407 1_544 S
C13 H3 0.930 . S
C13 C12 1.384 . S
C13 C14 1.389 . S
C14 C13 1.389 . S
C14 C15 1.405 . S
C15 H4 0.930 . S
C15 C14 1.405 . S
C15 C16 1.363 1_544 S
C16 C15 1.363 1_566 S
C16 C17 1.400 . S
C17 H5 0.931 . S
C17 C12 1.407 1_566 S
C17 C16 1.400 . S
H18 C24 0.930 . S
H19 C27 0.931 . S
H20 C29 0.931 . S
H21 C31 0.930 . S
H22 C33 0.930 . S
H23 C35 0.931 . S
C24 H18 0.930 . S
C24 C25 1.380 . S
C24 C26 1.394 1_455 S
C25 C24 1.380 . S
C25 C29 1.382 . S
C26 C24 1.394 1_655 S
C26 C27 1.400 . S
C27 H19 0.931 . S
C27 C26 1.400 . S
C27 C28 1.375 . S
C28 C27 1.375 . S
C28 C29 1.415 1_655 S
C28 C30 1.501 . S
C29 H20 0.931 . S
C29 C25 1.382 . S
C29 C28 1.415 1_455 S
C30 C28 1.501 . S
C30 C31 1.384 . S
C30 C35 1.408 1_655 S
C31 H21 0.930 . S
C31 C30 1.384 . S
C31 C32 1.389 . S
C32 C31 1.389 . S
C32 C33 1.405 . S
C33 H22 0.930 . S
C33 C32 1.405 . S
C33 C34 1.364 1_655 S
C34 C33 1.364 1_455 S
C34 C35 1.400 . S
C35 H23 0.931 . S
C35 C30 1.408 1_455 S
C35 C34 1.400 . S
O36 Cd37 2.223 1_655 S
O36 C44 1.315 . S
Cd37 O36 2.223 1_455 S
Cd37 O40 2.297 1_455 S
Cd37 O41 2.439 1_455 S
Cd37 O47 2.240 1_565 S
Cd38 O39 2.240 1_545 S
Cd38 O46 2.223 1_655 S
Cd38 O48 2.297 1_655 S
Cd38 O49 2.439 1_655 S
O39 Cd38 2.240 1_565 S
O39 C44 1.279 . S
O40 Cd37 2.297 1_655 S
O40 C42 1.247 . S
O41 Cd37 2.439 1_655 S
O41 C42 1.208 . S
C42 O40 1.247 . S
C42 O41 1.208 . S
C43 O48 1.247 . S
C43 O49 1.208 . S
C44 O36 1.315 . S
C44 O39 1.279 . S
C45 O46 1.315 . S
C45 O47 1.279 . S
O46 Cd38 2.223 1_455 S
O46 C45 1.315 . S
O47 Cd37 2.240 1_545 S
O47 C45 1.279 . S
O48 Cd38 2.297 1_455 S
O48 C43 1.247 . S
O49 Cd38 2.439 1_455 S
O49 C43 1.208 . S
O50 Cd51 2.223 1_655 S
O50 C58 1.315 . S
Cd51 O50 2.223 1_455 S
Cd51 O54 2.297 1_455 S
Cd51 O55 2.439 1_455 S
Cd51 O61 2.240 1_545 S
Cd52 O53 2.240 1_565 S
Cd52 O60 2.223 1_655 S
Cd52 O62 2.297 1_655 S
Cd52 O63 2.439 1_655 S
O53 Cd52 2.240 1_545 S
O53 C58 1.279 . S
O54 Cd51 2.297 1_655 S
O54 C56 1.247 . S
O55 Cd51 2.439 1_655 S
O55 C56 1.208 . S
C56 O54 1.247 . S
C56 O55 1.208 . S
C57 O62 1.247 . S
C57 O63 1.208 . S
C58 O50 1.315 . S
C58 O53 1.279 . S
C59 O60 1.315 . S
C59 O61 1.279 . S
O60 Cd52 2.223 1_455 S
O60 C59 1.315 . S
O61 Cd51 2.240 1_565 S
O61 C59 1.279 . S
O62 Cd52 2.297 1_455 S
O62 C57 1.247 . S
O63 Cd52 2.439 1_455 S
O63 C57 1.208 . S
C64 C65 1.369 1_565 S
C64 C66 1.419 . S
C64 H68 0.930 . S
C65 C64 1.369 1_545 S
C65 C74 1.429 . S
C66 C64 1.419 . S
C66 C67 1.363 1_565 S
C66 H69 0.929 . S
C67 C66 1.363 1_545 S
C67 C73 1.428 . S
H68 C64 0.930 . S
H69 C66 0.929 . S
S70 N71 1.613 . S
S70 N72 1.610 . S
N71 S70 1.613 . S
N71 C74 1.350 . S
N72 S70 1.610 . S
N72 C73 1.351 . S
C73 C67 1.428 . S
C73 N72 1.351 . S
C73 C74 1.434 . S
C74 C65 1.429 . S
C74 N71 1.350 . S
C74 C73 1.434 . S
C75 C76 1.371 . S
C75 C77 1.419 . S
C75 H79 0.930 . S
C76 C75 1.371 . S
C76 C85 1.430 . S
C77 C75 1.419 . S
C77 C78 1.363 . S
C77 H80 0.929 . S
C78 C77 1.363 . S
C78 C84 1.428 . S
H79 C75 0.930 . S
H80 C77 0.929 . S
S81 N82 1.613 . S
S81 N83 1.610 . S
N82 S81 1.613 . S
N82 C85 1.350 . S
N83 S81 1.610 . S
N83 C84 1.351 . S
C84 C78 1.428 . S
C84 N83 1.351 . S
C84 C85 1.434 . S
C85 C76 1.430 . S
C85 N82 1.350 . S
C85 C84 1.434 . S
C86 C87 1.369 . S
C86 C88 1.419 1_545 S
C86 H90 0.930 . S
C87 C86 1.369 . S
C87 C96 1.429 1_545 S
C88 C86 1.419 1_565 S
C88 C89 1.363 . S
C88 H91 0.929 . S
C89 C88 1.363 . S
C89 C95 1.428 . S
H90 C86 0.930 . S
H91 C88 0.929 . S
S92 N93 1.613 . S
S92 N94 1.610 . S
N93 S92 1.613 . S
N93 C96 1.350 . S
N94 S92 1.610 . S
N94 C95 1.351 . S
C95 C89 1.428 . S
C95 N94 1.351 . S
C95 C96 1.434 . S
C96 C87 1.429 1_565 S
C96 N93 1.350 . S
C96 C95 1.434 . S
C97 C98 1.369 1_655 S
C97 C99 1.419 1_655 S
C97 H101 0.930 . S
C98 C97 1.369 1_455 S
C98 C107 1.429 . S
C99 C97 1.419 1_455 S
C99 C100 1.363 . S
C99 H102 0.929 1_455 S
C100 C99 1.363 . S
C100 C106 1.428 . S
H101 C97 0.930 . S
H102 C99 0.929 1_655 S
S103 N104 1.613 . S
S103 N105 1.610 . S
N104 S103 1.613 . S
N104 C107 1.350 . S
N105 S103 1.610 . S
N105 C106 1.351 . S
C106 C100 1.428 . S
C106 N105 1.351 . S
C106 C107 1.434 . S
C107 C98 1.429 . S
C107 N104 1.350 . S
C107 C106 1.434 . S
C108 C109 1.369 1_565 S
C108 C110 1.419 . S
C108 H112 0.930 . S
C109 C108 1.369 1_545 S
C109 C118 1.428 1_545 S
C110 C108 1.419 . S
C110 C111 1.363 . S
C110 H113 0.929 . S
C111 C110 1.363 . S
C111 C117 1.428 . S
H112 C108 0.930 . S
H113 C110 0.929 . S
S114 N115 1.613 1_565 S
S114 N116 1.610 . S
N115 S114 1.613 1_545 S
N115 C118 1.349 1_545 S
N116 S114 1.610 . S
N116 C117 1.351 . S
C117 C111 1.428 . S
C117 N116 1.351 . S
C117 C118 1.436 . S
C118 C109 1.428 1_565 S
C118 N115 1.349 1_565 S
C118 C117 1.436 . S
C119 C120 1.369 1_655 S
C119 C121 1.419 . S
C119 H123 0.930 . S
C120 C119 1.369 1_455 S
C120 C129 1.429 . S
C121 C119 1.419 . S
C121 C122 1.363 1_655 S
C121 H124 0.929 . S
C122 C121 1.363 1_455 S
C122 C128 1.428 . S
H123 C119 0.930 . S
H124 C121 0.929 . S
S125 N126 1.613 . S
S125 N127 1.610 . S
N126 S125 1.613 . S
N126 C129 1.350 . S
N127 S125 1.610 . S
N127 C128 1.351 . S
C128 C122 1.428 . S
C128 N127 1.351 . S
C128 C129 1.434 . S
C129 C120 1.429 . S
C129 N126 1.350 . S
C129 C128 1.434 . S
C130 C131 1.369 1_565 S
C130 C132 1.419 1_565 S
C130 H134 0.930 . S
C131 C130 1.369 1_545 S
C131 C140 1.429 . S
C132 C130 1.419 1_545 S
C132 C133 1.363 . S
C132 H135 0.929 . S
C133 C132 1.363 . S
C133 C139 1.428 . S
H134 C130 0.930 . S
H135 C132 0.929 . S
S136 N137 1.613 . S
S136 N138 1.610 . S
N137 S136 1.613 . S
N137 C140 1.350 . S
N138 S136 1.610 . S
N138 C139 1.351 . S
C139 C133 1.428 . S
C139 N138 1.351 . S
C139 C140 1.434 . S
C140 C131 1.429 . S
C140 N137 1.350 . S
C140 C139 1.434 . S
C141 C142 1.365 1_655 S
C141 C143 1.419 . S
C141 H145 0.930 . S
C142 C141 1.365 1_455 S
C142 C151 1.432 . S
C143 C141 1.419 . S
C143 C144 1.363 . S
C143 H146 0.929 . S
C144 C143 1.363 . S
C144 C150 1.428 1_655 S
H145 C141 0.930 . S
H146 C143 0.929 . S
S147 N148 1.613 . S
S147 N149 1.610 . S
N148 S147 1.613 . S
N148 C151 1.350 . S
N149 S147 1.610 . S
N149 C150 1.351 . S
C150 C144 1.428 1_455 S
C150 N149 1.351 . S
C150 C151 1.434 . S
C151 C142 1.432 . S
C151 N148 1.350 . S
C151 C150 1.434 . S
C67 C45 1.679 . S
C65 C7 1.623 1_545 S
C78 C56 1.557 . S
C76 C34 1.580 1_655 S
C89 C44 1.679 . S
C87 C14 1.640 . S
C100 C57 1.549 . S
C98 C26 1.604 1_455 S
C111 C59 1.675 . S
C109 C8 1.625 . S
C122 C43 1.560 . S
C120 C32 1.610 1_455 S
C133 C58 1.677 . S
C131 C16 1.611 1_545 S
C142 C25 1.594 . S
C144 C42 1.555 . S
