# Generated by pormake.
# Topology rtl, (3,6)-cn, num edge types: 1
# Building blocks:
#     Node 0, Type 0, BuildingBlock: QEWDON_clean_linker_0, # of connection points: 3
#     Node 1, Type 0, BuildingBlock: QEWDON_clean_linker_0, # of connection points: 3
#     Node 2, Type 0, BuildingBlock: QEWDON_clean_linker_0, # of connection points: 3
#     Node 3, Type 0, BuildingBlock: QEWDON_clean_linker_0, # of connection points: 3
#     Node 4, Type 1, BuildingBlock: CIFDUS_clean_sbu_1, # of connection points: 6
#     Node 5, Type 1, BuildingBlock: CIFDUS_clean_sbu_1, # of connection points: 6
#     Edge 6, Type (0, 1), BuildingBlock: OJICUG_clean_linker_0, # of connection points: 2
#     Edge 7, Type (0, 1), BuildingBlock: OJICUG_clean_linker_0, # of connection points: 2
#     Edge 8, Type (0, 1), BuildingBlock: OJICUG_clean_linker_0, # of connection points: 2
#     Edge 9, Type (0, 1), BuildingBlock: OJICUG_clean_linker_0, # of connection points: 2
#     Edge 10, Type (0, 1), BuildingBlock: OJICUG_clean_linker_0, # of connection points: 2
#     Edge 11, Type (0, 1), BuildingBlock: OJICUG_clean_linker_0, # of connection points: 2
#     Edge 12, Type (0, 1), BuildingBlock: OJICUG_clean_linker_0, # of connection points: 2
#     Edge 13, Type (0, 1), BuildingBlock: OJICUG_clean_linker_0, # of connection points: 2
#     Edge 14, Type (0, 1), BuildingBlock: OJICUG_clean_linker_0, # of connection points: 2
#     Edge 15, Type (0, 1), BuildingBlock: OJICUG_clean_linker_0, # of connection points: 2
#     Edge 16, Type (0, 1), BuildingBlock: OJICUG_clean_linker_0, # of connection points: 2
#     Edge 17, Type (0, 1), BuildingBlock: OJICUG_clean_linker_0, # of connection points: 2
# Relax obj value: 0.037
# Max RMSD: 0.164
# Mean RMSD: 0.130
data_MOF--net-rtl--node1-CIFDUS_clean_sbu_1--node2-QEWDON_clean_linker_0--edge1-OJICUG_clean_linker_0
_symmetry_space_group_name_H-M    P1
_symmetry_Int_Tables_number       1
_symmetry_cell_setting            triclinic
loop_
_symmetry_equiv_pos_as_xyz
'x, y, z'
_cell_length_a     27.906236
_cell_length_b     27.725618
_cell_length_c     15.792072
_cell_angle_alpha  91.690229
_cell_angle_beta   101.5745
_cell_angle_gamma 89.897451
loop_
_atom_site_label
_atom_site_type_symbol
_atom_site_fract_x
_atom_site_fract_y
_atom_site_fract_z
_atom_type_partial_charge
H0 H 0.2408 0.86896 0.22579 0.0
C1 C 0.2185 0.8724 0.1616 0.0
C2 C 0.17229 0.89352 0.15228 0.0
C3 C 0.23811 0.86014 0.08853 0.0
H4 H 0.10802 0.91467 0.06362 0.0
C5 C 0.14435 0.8997 0.06923 0.0
C6 C 0.16358 0.8893 0.9947 0.0
C7 C 0.21072 0.86878 1.00534 0.0
C8 C 0.29123 0.85112 0.10141 0.0
H9 H 0.22791 0.86317 0.95015 0.0
C10 C 0.31096 0.80476 0.09249 0.0
C11 C 0.36235 0.79779 0.11307 0.0
C12 C 0.32265 0.89038 0.12834 0.0
H13 H 0.30803 0.92623 0.13501 0.0
C14 C 0.37293 0.88379 0.14893 0.0
H15 H 0.28648 0.77476 0.06983 0.0
C16 C 0.39261 0.83799 0.14271 0.0
H17 H 0.43185 0.83427 0.16196 0.0
H18 H 0.3968 0.91427 0.17098 0.0
H19 H 0.72112 0.72307 0.49751 0.0
C20 C 0.70124 0.71719 0.54866 0.0
C21 C 0.65629 0.69203 0.52999 0.0
C22 C 0.72295 0.72971 0.63549 0.0
H23 H 0.5981 0.66235 0.58384 0.0
C24 C 0.63244 0.68219 0.59784 0.0
C25 C 0.65573 0.68969 0.68393 0.0
C26 C 0.69974 0.71551 0.70258 0.0
C27 C 0.77356 0.74963 0.65917 0.0
H28 H 0.71763 0.72162 0.76958 0.0
C29 C 0.78787 0.79187 0.6228 0.0
C30 C 0.83599 0.81081 0.65002 0.0
C31 C 0.80787 0.72617 0.72179 0.0
H32 H 0.79832 0.69318 0.74975 0.0
C33 C 0.8549 0.74463 0.74908 0.0
H34 H 0.76137 0.81011 0.57481 0.0
C35 C 0.86893 0.78646 0.71376 0.0
H36 H 0.90637 0.79862 0.7346 0.0
H37 H 0.88089 0.72603 0.79727 0.0
H38 H 0.81929 0.22775 0.09688 0.0
C39 C 0.83871 0.21494 0.04768 0.0
C40 C 0.8816 0.18756 0.07142 0.0
C41 C 0.81921 0.2228 0.9598 0.0
H42 H 0.93649 0.14546 0.02515 0.0
C43 C 0.90449 0.16797 1.00683 0.0
C44 C 0.88456 0.17412 0.91896 0.0
C45 C 0.84293 0.2029 0.89631 0.0
C46 C 0.77032 0.24496 0.93184 0.0
H47 H 0.82703 0.20742 0.82855 0.0
C48 C 0.75808 0.29024 0.96459 0.0
C49 C 0.71119 0.31049 0.93461 0.0
C50 C 0.73539 0.21993 0.86977 0.0
H51 H 0.74349 0.18472 0.84458 0.0
C52 C 0.68951 0.23954 0.83995 0.0
H53 H 0.78521 0.30963 0.012 0.0
C54 C 0.67735 0.28418 0.87204 0.0
H55 H 0.64054 0.29711 0.8495 0.0
H56 H 0.66289 0.21964 0.7925 0.0
H57 H 0.34247 0.32252 0.60849 0.0
C58 C 0.34949 0.3445 0.55661 0.0
C59 C 0.38179 0.38426 0.57533 0.0
C60 C 0.32909 0.3311 0.47041 0.0
H61 H 0.41974 0.43948 0.51987 0.0
C62 C 0.39355 0.41008 0.50623 0.0
C63 C 0.37282 0.39716 0.41968 0.0
C64 C 0.339 0.35903 0.40348 0.0
C65 C 0.30586 0.28325 0.44675 0.0
H66 H 0.32249 0.3486 0.33737 0.0
C67 C 0.26181 0.26953 0.47024 0.0
C68 C 0.23997 0.22408 0.44207 0.0
C69 C 0.32804 0.2515 0.39548 0.0
H70 H 0.36199 0.26125 0.37682 0.0
C71 C 0.30692 0.20704 0.36759 0.0
H72 H 0.24452 0.2945 0.50869 0.0
C73 C 0.26351 0.19328 0.39075 0.0
H74 H 0.2494 0.15758 0.37033 0.0
H75 H 0.32461 0.18284 0.32848 0.0
O76 O 0.98711 0.07817 0.42624 0.0
Mn77 Mn 0.01842 0.03165 0.52564 0.0
O78 O 0.94405 0.03047 0.3226 0.0
Mn79 Mn 0.96655 0.97551 0.37799 0.0
O80 O 0.0468 0.98379 0.62639 0.0
O81 O 0.07078 0.08765 0.5589 0.0
Mn82 Mn 0.08187 0.0711 0.6696 0.0
O83 O 0.97343 0.06381 0.60213 0.0
O84 O 0.11718 0.01559 0.68518 0.0
O85 O 0.06702 1.00084 0.4514 0.0
O86 O 0.02311 0.9494 0.35637 0.0
O87 O 0.1181 0.12327 0.67772 0.0
O88 O 0.02887 0.07777 0.72296 0.0
C89 C 0.92965 0.945 0.46249 0.0
C90 C 0.95738 0.07195 0.35345 0.0
C91 C 0.08929 0.97968 0.67443 0.0
C92 C 0.1031 0.12118 0.59445 0.0
C93 C 0.98492 0.07703 0.68205 0.0
C94 C 0.06373 0.96742 0.39242 0.0
O95 O 0.96369 0.97833 0.49029 0.0
O96 O 0.92053 0.93273 0.38097 0.0
O97 O 0.5574 0.58065 0.15679 0.0
Mn98 Mn 0.52324 0.53497 0.05302 0.0
O99 O 0.57575 0.52467 0.25548 0.0
Mn100 Mn 0.5659 0.47278 0.17968 0.0
O101 O 0.49217 0.48592 0.9503 0.0
O102 O 0.46948 0.58758 0.02505 0.0
Mn103 Mn 0.45521 0.57915 0.91065 0.0
O104 O 0.5652 0.56786 0.97468 0.0
O105 O 0.42651 0.52099 0.87599 0.0
O106 O 0.47626 0.50622 0.13093 0.0
O107 O 0.51022 0.438 0.17478 0.0
O108 O 0.41373 0.62557 0.92729 0.0
O109 O 0.50891 0.59672 0.866 0.0
C110 C 0.61444 0.45166 0.10825 0.0
C111 C 0.57448 0.56848 0.23481 0.0
C112 C 0.45235 0.48403 0.89313 0.0
C113 C 0.43544 0.62084 1.00719 0.0
C114 C 0.55313 0.59041 0.9037 0.0
C115 C 0.47358 0.46491 0.16397 0.0
O116 O 0.5802 0.48341 0.07683 0.0
O117 O 0.61806 0.43696 0.18651 0.0
C118 C 0.16373 0.17153 0.42168 0.0
C119 C 0.19553 0.20619 0.47142 0.0
H120 H 0.10909 0.11667 0.42108 0.0
C121 C 0.18803 0.21885 0.5544 0.0
H122 H 0.16668 0.16225 0.35588 0.0
C123 C 0.1537 0.19417 0.58984 0.0
C124 C 0.12663 0.15526 0.54449 0.0
H125 H 0.21108 0.24523 0.59518 0.0
H126 H 0.1512 0.20336 0.65598 0.0
C127 C 0.12995 0.14583 0.45823 0.0
C128 C 0.43113 0.74745 0.07701 0.0
C129 C 0.38541 0.74977 0.10205 0.0
H130 H 0.48502 0.70317 0.03466 0.0
C131 C 0.36226 0.70608 0.11404 0.0
H132 H 0.44973 0.77981 0.06413 0.0
C133 C 0.38273 0.66164 0.0955 0.0
C134 C 0.42725 0.65999 0.06683 0.0
H135 H 0.32746 0.70613 0.1344 0.0
H136 H 0.36192 0.62883 0.09696 0.0
C137 C 0.45203 0.70323 0.06112 0.0
C138 C 0.89154 0.88395 0.6521 0.0
C139 C 0.85398 0.85282 0.60743 0.0
H140 H 0.94565 0.93799 0.64226 0.0
C141 C 0.83767 0.85863 0.51857 0.0
H142 H 0.90412 0.88168 0.7213 0.0
C143 C 0.86036 0.89158 0.47461 0.0
C144 C 0.90092 0.91933 0.51722 0.0
H145 H 0.80937 0.83562 0.48119 0.0
H146 H 0.84743 0.89314 0.40532 0.0
C147 C 0.9151 0.91672 0.60728 0.0
C148 C 0.65815 0.38551 0.92541 0.0
C149 C 0.69505 0.35625 0.97309 0.0
H150 H 0.6029 0.4393 0.93037 0.0
C151 C 0.71155 0.3676 0.06125 0.0
H152 H 0.6458 0.3794 0.85648 0.0
C153 C 0.68844 0.40328 0.10218 0.0
C154 C 0.6473 0.42783 0.057 0.0
H155 H 0.7397 0.34655 0.1008 0.0
H156 H 0.70043 0.40869 0.17145 0.0
C157 C 0.63402 0.42063 0.96718 0.0
C158 C 0.14373 0.8848 0.29193 0.0
C159 C 0.1548 0.91443 0.228 0.0
H160 H 0.1063 0.87938 0.3975 0.0
C161 C 0.14479 0.9641 0.23206 0.0
H162 H 0.15111 0.84645 0.28997 0.0
C163 C 0.12075 0.98321 0.29514 0.0
C164 C 0.10565 0.95277 0.35423 0.0
H165 H 0.15327 0.98766 0.18346 0.0
H166 H 0.10985 0.02076 0.29241 0.0
C167 C 0.11874 0.90375 0.35395 0.0
C168 C 0.62817 0.61294 0.73797 0.0
C169 C 0.63777 0.66276 0.7513 0.0
H170 H 0.5944 0.55045 0.77801 0.0
C171 C 0.62691 0.68619 0.82507 0.0
H172 H 0.637 0.59379 0.68232 0.0
C173 C 0.60306 0.661 0.88048 0.0
C174 C 0.5906 0.61206 0.86339 0.0
H175 H 0.63407 0.72444 0.83681 0.0
H176 H 0.59153 0.68045 0.93341 0.0
C177 C 0.60452 0.5879 0.79321 0.0
C178 C 0.94739 0.17537 0.2026 0.0
C179 C 0.89803 0.17068 0.16054 0.0
H180 H 1.00531 0.1482 0.3005 0.0
C181 C 0.86716 0.14012 0.19453 0.0
H182 H 0.97191 0.19839 0.17662 0.0
C183 C 0.88627 0.11121 0.2639 0.0
C184 C 0.9364 0.11283 0.30137 0.0
H185 H 0.8293 0.13511 0.16234 0.0
H186 H 0.86255 0.08483 0.28408 0.0
C187 C 0.96645 0.14686 0.27335 0.0
C188 C 0.45348 0.41209 0.69058 0.0
C189 C 0.40379 0.39877 0.66657 0.0
H190 H 0.50899 0.44791 0.78532 0.0
C191 C 0.37413 0.4038 0.72843 0.0
H192 H 0.47751 0.40788 0.64487 0.0
C193 C 0.39231 0.42638 0.80889 0.0
C194 C 0.44072 0.4435 0.82983 0.0
H195 H 0.33578 0.39388 0.71217 0.0
H196 H 0.36733 0.43419 0.8519 0.0
C197 C 0.47186 0.43404 0.77172 0.0
C198 C 0.63378 0.61347 0.45756 0.0
C199 C 0.64 0.66302 0.44866 0.0
H200 H 0.60627 0.54702 0.40133 0.0
C201 C 0.62593 0.68266 0.36607 0.0
H202 H 0.6449 0.5969 0.51976 0.0
C203 C 0.60407 0.65279 0.29445 0.0
C204 C 0.5959 0.60338 0.30568 0.0
H205 H 0.63059 0.72085 0.35755 0.0
H206 H 0.59338 0.66822 0.23128 0.0
C207 C 0.61133 0.58464 0.38851 0.0
C208 C 0.90975 0.16896 0.77426 0.0
C209 C 0.90464 0.14701 0.8512 0.0
H210 H 0.93827 0.16271 0.65778 0.0
C211 C 0.9192 0.09867 0.86357 0.0
H212 H 0.89909 0.20616 0.76292 0.0
C213 C 0.94143 0.07402 0.80346 0.0
C214 C 0.94854 0.09675 0.72884 0.0
H215 H 0.91459 0.08021 0.92093 0.0
H216 H 0.95526 0.03794 0.81731 0.0
C217 C 0.93155 0.14397 0.71354 0.0
C218 C 0.40377 0.46736 0.34492 0.0
C219 C 0.39085 0.41828 0.34565 0.0
H220 H 0.43879 0.52164 0.28342 0.0
C221 C 0.39832 0.38774 0.27659 0.0
H222 H 0.39834 0.49197 0.39666 0.0
C223 C 0.4203 0.40489 0.21154 0.0
C224 C 0.43576 0.453 0.21338 0.0
H225 H 0.39012 0.34954 0.27525 0.0
H226 H 0.42853 0.37952 0.16293 0.0
C227 C 0.42594 0.48463 0.2791 0.0
C228 C 0.14366 0.88445 0.82983 0.0
C229 C 0.13735 0.90654 0.90863 0.0
H230 H 0.13251 0.89015 0.69131 0.0
C231 C 0.10833 0.94839 0.90492 0.0
H232 H 0.16523 0.852 0.82944 0.0
C233 C 0.08759 0.96811 0.82621 0.0
C234 C 0.09659 0.94795 0.7486 0.0
H235 H 0.10383 0.96825 0.96275 0.0
H236 H 0.06798 1.00189 0.82665 0.0
C237 C 0.12407 0.90551 0.75044 0.0
loop_
_geom_bond_atom_site_label_1
_geom_bond_atom_site_label_2
_geom_bond_distance
_geom_bond_site_symmetry_2
_ccdc_geom_bond_type
H0 C1 0.949 . S
C1 H0 0.949 . S
C1 C2 1.395 . S
C1 C3 1.391 . S
C2 C1 1.395 . S
C2 C5 1.390 . S
C3 C1 1.391 . S
C3 C7 1.387 1_554 S
C3 C8 1.491 . S
H4 C5 0.950 . S
C5 C2 1.390 . S
C5 H4 0.950 . S
C5 C6 1.378 1_554 S
C6 C5 1.378 1_556 S
C6 C7 1.409 . S
C7 C3 1.387 1_556 S
C7 C6 1.409 . S
C7 H9 0.951 . S
C8 C3 1.491 . S
C8 C10 1.382 . S
C8 C12 1.404 1_554 S
H9 C7 0.951 . S
C10 C8 1.382 . S
C10 C11 1.390 . S
C10 H15 0.949 . S
C11 C10 1.390 . S
C11 C16 1.399 . S
C12 C8 1.404 1_556 S
C12 H13 0.950 . S
C12 C14 1.375 . S
H13 C12 0.950 . S
C14 C12 1.375 . S
C14 C16 1.382 1_556 S
C14 H18 0.950 . S
H15 C10 0.949 . S
C16 C11 1.399 . S
C16 C14 1.382 1_554 S
C16 H17 0.952 . S
H17 C16 0.952 . S
H18 C14 0.950 . S
H19 C20 0.949 . S
C20 H19 0.949 . S
C20 C21 1.395 . S
C20 C22 1.391 . S
C21 C20 1.395 . S
C21 C24 1.390 . S
C22 C20 1.391 . S
C22 C26 1.387 . S
C22 C27 1.491 . S
H23 C24 0.950 . S
C24 C21 1.390 . S
C24 H23 0.950 . S
C24 C25 1.378 . S
C25 C24 1.378 . S
C25 C26 1.409 . S
C26 C22 1.387 . S
C26 C25 1.409 . S
C26 H28 0.951 . S
C27 C22 1.491 . S
C27 C29 1.382 . S
C27 C31 1.404 . S
H28 C26 0.951 . S
C29 C27 1.382 . S
C29 C30 1.390 . S
C29 H34 0.949 . S
C30 C29 1.390 . S
C30 C35 1.399 . S
C31 C27 1.404 . S
C31 H32 0.950 . S
C31 C33 1.375 . S
H32 C31 0.950 . S
C33 C31 1.375 . S
C33 C35 1.382 . S
C33 H37 0.950 . S
H34 C29 0.949 . S
C35 C30 1.399 . S
C35 C33 1.382 . S
C35 H36 0.952 . S
H36 C35 0.952 . S
H37 C33 0.950 . S
H38 C39 0.949 . S
C39 H38 0.949 . S
C39 C40 1.395 . S
C39 C41 1.391 1_554 S
C40 C39 1.395 . S
C40 C43 1.387 1_554 S
C41 C39 1.391 1_556 S
C41 C45 1.387 . S
C41 C46 1.491 . S
H42 C43 0.949 1_554 S
C43 C40 1.387 1_556 S
C43 H42 0.949 1_556 S
C43 C44 1.381 . S
C44 C43 1.381 . S
C44 C45 1.409 . S
C45 C41 1.387 . S
C45 C44 1.409 . S
C45 H47 0.951 . S
C46 C41 1.491 . S
C46 C48 1.382 . S
C46 C50 1.404 . S
H47 C45 0.951 . S
C48 C46 1.382 . S
C48 C49 1.390 . S
C48 H53 0.949 1_556 S
C49 C48 1.390 . S
C49 C54 1.399 . S
C50 C46 1.404 . S
C50 H51 0.950 . S
C50 C52 1.375 . S
H51 C50 0.950 . S
C52 C50 1.375 . S
C52 C54 1.382 . S
C52 H56 0.950 . S
H53 C48 0.949 1_554 S
C54 C49 1.399 . S
C54 C52 1.382 . S
C54 H55 0.952 . S
H55 C54 0.952 . S
H56 C52 0.950 . S
H57 C58 0.949 . S
C58 H57 0.949 . S
C58 C59 1.395 . S
C58 C60 1.391 . S
C59 C58 1.395 . S
C59 C62 1.390 . S
C60 C58 1.391 . S
C60 C64 1.387 . S
C60 C65 1.491 . S
H61 C62 0.950 . S
C62 C59 1.390 . S
C62 H61 0.950 . S
C62 C63 1.378 . S
C63 C62 1.378 . S
C63 C64 1.409 . S
C64 C60 1.387 . S
C64 C63 1.409 . S
C64 H66 0.951 . S
C65 C60 1.491 . S
C65 C67 1.382 . S
C65 C69 1.404 . S
H66 C64 0.951 . S
C67 C65 1.382 . S
C67 C68 1.390 . S
C67 H72 0.949 . S
C68 C67 1.390 . S
C68 C73 1.399 . S
C69 C65 1.404 . S
C69 H70 0.950 . S
C69 C71 1.375 . S
H70 C69 0.950 . S
C71 C69 1.375 . S
C71 C73 1.382 . S
C71 H75 0.950 . S
H72 C67 0.949 . S
C73 C68 1.399 . S
C73 C71 1.382 . S
C73 H74 0.952 . S
H74 C73 0.952 . S
H75 C71 0.950 . S
O76 Mn77 2.163 1_655 S
O76 C90 1.244 . S
Mn77 O76 2.163 1_455 S
Mn77 O80 2.160 1_545 S
Mn77 O81 2.221 . S
Mn77 O83 2.163 1_455 S
Mn77 O85 2.160 1_545 S
Mn77 O95 2.221 1_445 S
O78 Mn79 2.087 1_545 S
O78 C90 1.256 . S
Mn79 O78 2.087 1_565 S
Mn79 O86 2.089 1_655 S
Mn79 O95 2.290 . S
Mn79 O96 2.251 . S
O80 Mn77 2.160 1_565 S
O80 C91 1.239 . S
O81 Mn77 2.221 . S
O81 Mn82 2.290 . S
O81 C92 1.278 . S
Mn82 O81 2.290 . S
Mn82 O84 2.089 . S
Mn82 O87 2.251 . S
Mn82 O88 2.087 . S
O83 Mn77 2.163 1_655 S
O83 C93 1.244 . S
O84 Mn82 2.089 . S
O84 C91 1.256 1_545 S
O85 Mn77 2.160 1_565 S
O85 C94 1.239 . S
O86 Mn79 2.089 1_455 S
O86 C94 1.256 . S
O87 Mn82 2.251 . S
O87 C92 1.241 . S
O88 Mn82 2.087 . S
O88 C93 1.256 1_455 S
C89 O95 1.278 . S
C89 O96 1.241 . S
C90 O76 1.244 . S
C90 O78 1.256 . S
C91 O80 1.239 . S
C91 O84 1.256 1_565 S
C92 O81 1.278 . S
C92 O87 1.241 . S
C93 O83 1.244 . S
C93 O88 1.256 1_655 S
C94 O85 1.239 . S
C94 O86 1.256 . S
O95 Mn77 2.221 1_665 S
O95 Mn79 2.290 . S
O95 C89 1.278 . S
O96 Mn79 2.251 . S
O96 C89 1.241 . S
O97 Mn98 2.163 . S
O97 C111 1.244 . S
Mn98 O97 2.163 . S
Mn98 O101 2.160 1_554 S
Mn98 O102 2.221 . S
Mn98 O104 2.163 1_554 S
Mn98 O106 2.160 . S
Mn98 O116 2.221 . S
O99 Mn100 2.087 . S
O99 C111 1.256 . S
Mn100 O99 2.087 . S
Mn100 O107 2.089 . S
Mn100 O116 2.290 . S
Mn100 O117 2.251 . S
O101 Mn98 2.160 1_556 S
O101 C112 1.239 . S
O102 Mn98 2.221 . S
O102 Mn103 2.290 1_554 S
O102 C113 1.278 . S
Mn103 O102 2.290 1_556 S
Mn103 O105 2.089 . S
Mn103 O108 2.251 . S
Mn103 O109 2.087 . S
O104 Mn98 2.163 1_556 S
O104 C114 1.244 . S
O105 Mn103 2.089 . S
O105 C112 1.256 . S
O106 Mn98 2.160 . S
O106 C115 1.239 . S
O107 Mn100 2.089 . S
O107 C115 1.256 . S
O108 Mn103 2.251 . S
O108 C113 1.241 1_556 S
O109 Mn103 2.087 . S
O109 C114 1.256 . S
C110 O116 1.278 . S
C110 O117 1.241 . S
C111 O97 1.244 . S
C111 O99 1.256 . S
C112 O101 1.239 . S
C112 O105 1.256 . S
C113 O102 1.278 . S
C113 O108 1.241 1_554 S
C114 O104 1.244 . S
C114 O109 1.256 . S
C115 O106 1.239 . S
C115 O107 1.256 . S
O116 Mn98 2.221 . S
O116 Mn100 2.290 . S
O116 C110 1.278 . S
O117 Mn100 2.251 . S
O117 C110 1.241 . S
C118 C119 1.387 . S
C118 H122 0.950 . S
C118 C127 1.390 . S
C119 C118 1.387 . S
C119 C121 1.387 . S
H120 C127 0.950 . S
C121 C119 1.387 . S
C121 C123 1.390 . S
C121 H125 0.950 . S
H122 C118 0.950 . S
C123 C121 1.390 . S
C123 C124 1.387 . S
C123 H126 0.950 . S
C124 C123 1.387 . S
C124 C127 1.387 . S
H125 C121 0.950 . S
H126 C123 0.950 . S
C127 C118 1.390 . S
C127 H120 0.950 . S
C127 C124 1.387 . S
C128 C129 1.387 . S
C128 H132 0.950 . S
C128 C137 1.390 . S
C129 C128 1.387 . S
C129 C131 1.387 . S
H130 C137 0.950 1_556 S
C131 C129 1.387 . S
C131 C133 1.390 . S
C131 H135 0.950 . S
H132 C128 0.950 . S
C133 C131 1.390 . S
C133 C134 1.387 . S
C133 H136 0.950 . S
C134 C133 1.387 . S
C134 C137 1.387 . S
H135 C131 0.950 . S
H136 C133 0.950 . S
C137 C128 1.390 . S
C137 H130 0.950 1_554 S
C137 C134 1.387 . S
C138 C139 1.387 . S
C138 H142 0.950 . S
C138 C147 1.390 . S
C139 C138 1.387 . S
C139 C141 1.387 . S
H140 C147 0.950 . S
C141 C139 1.387 . S
C141 C143 1.390 . S
C141 H145 0.950 . S
H142 C138 0.950 . S
C143 C141 1.390 . S
C143 C144 1.387 . S
C143 H146 0.950 . S
C144 C143 1.387 . S
C144 C147 1.387 . S
H145 C141 0.950 . S
H146 C143 0.950 . S
C147 C138 1.390 . S
C147 H140 0.950 . S
C147 C144 1.387 . S
C148 C149 1.387 1_556 S
C148 H152 0.950 . S
C148 C157 1.390 . S
C149 C148 1.387 1_554 S
C149 C151 1.387 . S
H150 C157 0.950 . S
C151 C149 1.387 . S
C151 C153 1.390 . S
C151 H155 0.950 . S
H152 C148 0.950 . S
C153 C151 1.390 . S
C153 C154 1.387 . S
C153 H156 0.950 . S
C154 C153 1.387 . S
C154 C157 1.387 1_554 S
H155 C151 0.950 . S
H156 C153 0.950 . S
C157 C148 1.390 . S
C157 H150 0.950 . S
C157 C154 1.387 1_556 S
C158 C159 1.387 . S
C158 H162 0.950 . S
C158 C167 1.390 . S
C159 C158 1.387 . S
C159 C161 1.387 . S
H160 C167 0.950 . S
C161 C159 1.387 . S
C161 C163 1.390 . S
C161 H165 0.950 . S
H162 C158 0.950 . S
C163 C161 1.390 . S
C163 C164 1.387 . S
C163 H166 0.950 . S
C164 C163 1.387 . S
C164 C167 1.387 . S
H165 C161 0.950 . S
H166 C163 0.950 . S
C167 C158 1.390 . S
C167 H160 0.950 . S
C167 C164 1.387 . S
C168 C169 1.387 . S
C168 H172 0.950 . S
C168 C177 1.390 . S
C169 C168 1.387 . S
C169 C171 1.387 . S
H170 C177 0.950 . S
C171 C169 1.387 . S
C171 C173 1.390 . S
C171 H175 0.950 . S
H172 C168 0.950 . S
C173 C171 1.390 . S
C173 C174 1.387 . S
C173 H176 0.950 . S
C174 C173 1.387 . S
C174 C177 1.387 . S
H175 C171 0.950 . S
H176 C173 0.950 . S
C177 C168 1.390 . S
C177 H170 0.950 . S
C177 C174 1.387 . S
C178 C179 1.387 . S
C178 H182 0.950 . S
C178 C187 1.390 . S
C179 C178 1.387 . S
C179 C181 1.387 . S
H180 C187 0.950 . S
C181 C179 1.387 . S
C181 C183 1.390 . S
C181 H185 0.950 . S
H182 C178 0.950 . S
C183 C181 1.390 . S
C183 C184 1.387 . S
C183 H186 0.950 . S
C184 C183 1.387 . S
C184 C187 1.387 . S
H185 C181 0.950 . S
H186 C183 0.950 . S
C187 C178 1.390 . S
C187 H180 0.950 . S
C187 C184 1.387 . S
C188 C189 1.387 . S
C188 H192 0.950 . S
C188 C197 1.390 . S
C189 C188 1.387 . S
C189 C191 1.387 . S
H190 C197 0.950 . S
C191 C189 1.387 . S
C191 C193 1.390 . S
C191 H195 0.950 . S
H192 C188 0.950 . S
C193 C191 1.390 . S
C193 C194 1.387 . S
C193 H196 0.950 . S
C194 C193 1.387 . S
C194 C197 1.387 . S
H195 C191 0.950 . S
H196 C193 0.950 . S
C197 C188 1.390 . S
C197 H190 0.950 . S
C197 C194 1.387 . S
C198 C199 1.387 . S
C198 H202 0.950 . S
C198 C207 1.390 . S
C199 C198 1.387 . S
C199 C201 1.387 . S
H200 C207 0.950 . S
C201 C199 1.387 . S
C201 C203 1.390 . S
C201 H205 0.950 . S
H202 C198 0.950 . S
C203 C201 1.390 . S
C203 C204 1.387 . S
C203 H206 0.950 . S
C204 C203 1.387 . S
C204 C207 1.387 . S
H205 C201 0.950 . S
H206 C203 0.950 . S
C207 C198 1.390 . S
C207 H200 0.950 . S
C207 C204 1.387 . S
C208 C209 1.387 . S
C208 H212 0.950 . S
C208 C217 1.390 . S
C209 C208 1.387 . S
C209 C211 1.387 . S
H210 C217 0.950 . S
C211 C209 1.387 . S
C211 C213 1.390 . S
C211 H215 0.950 . S
H212 C208 0.950 . S
C213 C211 1.390 . S
C213 C214 1.387 . S
C213 H216 0.950 . S
C214 C213 1.387 . S
C214 C217 1.387 . S
H215 C211 0.950 . S
H216 C213 0.950 . S
C217 C208 1.390 . S
C217 H210 0.950 . S
C217 C214 1.387 . S
C218 C219 1.387 . S
C218 H222 0.950 . S
C218 C227 1.390 . S
C219 C218 1.387 . S
C219 C221 1.387 . S
H220 C227 0.950 . S
C221 C219 1.387 . S
C221 C223 1.390 . S
C221 H225 0.950 . S
H222 C218 0.950 . S
C223 C221 1.390 . S
C223 C224 1.387 . S
C223 H226 0.950 . S
C224 C223 1.387 . S
C224 C227 1.387 . S
H225 C221 0.950 . S
H226 C223 0.950 . S
C227 C218 1.390 . S
C227 H220 0.950 . S
C227 C224 1.387 . S
C228 C229 1.387 . S
C228 H232 0.950 . S
C228 C237 1.390 . S
C229 C228 1.387 . S
C229 C231 1.387 . S
H230 C237 0.950 . S
C231 C229 1.387 . S
C231 C233 1.390 . S
C231 H235 0.950 . S
H232 C228 0.950 . S
C233 C231 1.390 . S
C233 C234 1.387 . S
C233 H236 0.950 1_565 S
C234 C233 1.387 . S
C234 C237 1.387 . S
H235 C231 0.950 . S
H236 C233 0.950 1_545 S
C237 C228 1.390 . S
C237 H230 0.950 . S
C237 C234 1.387 . S
C124 C92 1.281 . S
C119 C68 1.385 . S
C129 C11 1.354 . S
C134 C113 1.368 . S
C139 C30 1.526 . S
C144 C89 1.430 . S
C149 C49 1.503 1_554 S
C154 C110 1.388 . S
C164 C94 1.561 . S
C159 C2 1.532 . S
C174 C114 1.574 . S
C169 C25 1.640 . S
C179 C40 1.615 . S
C184 C90 1.598 . S
C189 C59 1.541 . S
C194 C112 1.497 . S
C204 C111 1.500 . S
C199 C21 1.523 . S
C214 C93 1.483 . S
C209 C44 1.546 . S
C224 C115 1.448 . S
C219 C63 1.478 . S
C229 C6 1.497 . S
C234 C91 1.432 . S
