# Generated by pormake.
# Topology zzz, (3,6)-cn, num edge types: 1
# Building blocks:
#     Node 0, Type 0, BuildingBlock: INOVEN_clean_linker_0, # of connection points: 3
#     Node 1, Type 0, BuildingBlock: INOVEN_clean_linker_0, # of connection points: 3
#     Node 2, Type 0, BuildingBlock: INOVEN_clean_linker_0, # of connection points: 3
#     Node 3, Type 0, BuildingBlock: INOVEN_clean_linker_0, # of connection points: 3
#     Node 4, Type 0, BuildingBlock: INOVEN_clean_linker_0, # of connection points: 3
#     Node 5, Type 0, BuildingBlock: INOVEN_clean_linker_0, # of connection points: 3
#     Node 6, Type 0, BuildingBlock: INOVEN_clean_linker_0, # of connection points: 3
#     Node 7, Type 0, BuildingBlock: INOVEN_clean_linker_0, # of connection points: 3
#     Node 8, Type 1, BuildingBlock: VOLQOD_clean_sbu_1, # of connection points: 6
#     Node 9, Type 1, BuildingBlock: VOLQOD_clean_sbu_1, # of connection points: 6
#     Node 10, Type 1, BuildingBlock: VOLQOD_clean_sbu_1, # of connection points: 6
#     Node 11, Type 1, BuildingBlock: VOLQOD_clean_sbu_1, # of connection points: 6
#     Edge 12, Type (0, 1), None
#     Edge 13, Type (0, 1), None
#     Edge 14, Type (0, 1), None
#     Edge 15, Type (0, 1), None
#     Edge 16, Type (0, 1), None
#     Edge 17, Type (0, 1), None
#     Edge 18, Type (0, 1), None
#     Edge 19, Type (0, 1), None
#     Edge 20, Type (0, 1), None
#     Edge 21, Type (0, 1), None
#     Edge 22, Type (0, 1), None
#     Edge 23, Type (0, 1), None
#     Edge 24, Type (0, 1), None
#     Edge 25, Type (0, 1), None
#     Edge 26, Type (0, 1), None
#     Edge 27, Type (0, 1), None
#     Edge 28, Type (0, 1), None
#     Edge 29, Type (0, 1), None
#     Edge 30, Type (0, 1), None
#     Edge 31, Type (0, 1), None
#     Edge 32, Type (0, 1), None
#     Edge 33, Type (0, 1), None
#     Edge 34, Type (0, 1), None
#     Edge 35, Type (0, 1), None
# Relax obj value: 0.164
# Max RMSD: 0.223
# Mean RMSD: 0.111
data_MOF--net-zzz--node1-VOLQOD_clean_sbu_1--node2-INOVEN_clean_linker_0--edge1-none
_symmetry_space_group_name_H-M    P1
_symmetry_Int_Tables_number       1
_symmetry_cell_setting            triclinic
loop_
_symmetry_equiv_pos_as_xyz
'x, y, z'
_cell_length_a     22.580474
_cell_length_b     22.731478
_cell_length_c     9.1417672
_cell_angle_alpha  89.477553
_cell_angle_beta   90.685932
_cell_angle_gamma 91.746219
loop_
_atom_site_label
_atom_site_type_symbol
_atom_site_fract_x
_atom_site_fract_y
_atom_site_fract_z
_atom_type_partial_charge
H0 H 0.81754 0.57686 0.27418 0.0
H1 H 0.98832 0.50149 0.21195 0.0
H2 H 0.85367 0.48335 0.87967 0.0
N3 N 0.77216 0.54133 0.00812 0.0
N4 N 0.76668 0.55688 0.87702 0.0
C5 C 0.84762 0.55267 0.20759 0.0
C6 C 0.906 0.5425 0.25728 0.0
C7 C 0.8295 0.53203 0.06807 0.0
C8 C 0.86825 0.49888 -0.01369 0.0
C9 C 0.9258 0.48831 0.03637 0.0
C10 C 0.94363 0.5094 0.17262 0.0
H11 H 0.99668 0.78681 0.27179 0.0
H12 H 0.07458 0.95953 0.18851 0.0
H13 H 0.10522 0.82133 0.89348 0.0
N14 N 0.03708 0.73915 0.01832 0.0
N15 N 0.03982 0.7318 0.88257 0.0
C16 C 1.02647 0.81566 0.21042 0.0
C17 C 0.03615 0.87508 0.25381 0.0
C18 C 0.05176 0.79576 0.07877 0.0
C19 C 0.08831 0.83487 -0.00189 0.0
C20 C 0.09228 0.89456 0.03196 0.0
C21 C 0.07161 0.91283 0.16581 0.0
H22 H 0.75467 0.98323 0.25673 0.0
H23 H 0.61173 0.09821 0.13967 0.0
H24 H 0.73722 0.0557 0.82045 0.0
N25 N 0.81184 1.00286 -0.0085 0.0
N26 N 0.82031 0.98512 0.86416 0.0
C27 C 0.73123 1.00986 0.17765 0.0
C28 C 0.67684 0.03573 0.21466 0.0
C29 C 0.75393 1.01864 0.03388 0.0
C30 C 0.72118 0.05077 -0.06869 0.0
C31 C 0.6689 0.07736 -0.03056 0.0
C32 C 0.65073 0.07409 0.11259 0.0
H33 H 0.58011 0.77571 0.29745 0.0
H34 H 0.51741 0.6081 0.12286 0.0
H35 H 0.52332 0.75796 0.84576 0.0
N36 N 0.55896 0.83589 0.03358 0.0
N37 N 0.58426 0.85098 0.91715 0.0
C38 C 0.56239 0.74908 0.20868 0.0
C39 C 0.54945 0.68775 0.23041 0.0
C40 C 0.55195 0.77478 0.06771 0.0
C41 C 0.52921 0.73943 -0.04538 0.0
C42 C 0.51628 0.68018 -0.02343 0.0
C43 C 0.52459 0.65543 0.11328 0.0
H44 H 0.29673 0.487 -0.00451 0.0
H45 H 0.13812 0.57058 0.13914 0.0
H46 H 0.28476 0.56007 0.42952 0.0
N47 N 0.35509 0.50029 0.26257 0.0
N48 N 0.36411 0.49224 0.39669 0.0
C49 C 0.27264 0.51027 0.07748 0.0
C50 C 0.21502 0.53096 0.046 0.0
C51 C 0.29821 0.52044 0.21825 0.0
C52 C 0.26656 0.55237 0.32077 0.0
C53 C 0.20886 0.56863 0.29365 0.0
C54 C 0.18423 0.55973 0.15611 0.0
H55 H 0.07071 0.27663 -0.00286 0.0
H56 H 0.97106 0.11484 0.07795 0.0
H57 H 0.98457 0.24404 0.41181 0.0
N58 N 0.04471 0.32503 0.2662 0.0
N59 N 0.05998 0.32962 0.39811 0.0
C60 C 0.04323 0.24897 0.06743 0.0
C61 C 1.02281 0.1923 0.01998 0.0
C62 C 1.02771 0.26856 0.20974 0.0
C63 C 0.99305 0.23141 0.30003 0.0
C64 C 0.97436 0.17593 0.25367 0.0
C65 C 0.98544 0.15891 0.11115 0.0
H66 H 0.28115 0.05689 0.00808 0.0
H67 H 0.4382 0.95684 0.07861 0.0
H68 H 0.30958 0.96289 0.41478 0.0
N69 N 0.23081 0.02608 0.27078 0.0
N70 N 0.22373 0.03124 0.40596 0.0
C71 C 0.30712 0.02753 0.07511 0.0
C72 C 0.36251 1.00832 0.02529 0.0
C73 C 0.28644 1.0088 0.2151 0.0
C74 C 0.32219 0.97284 0.30296 0.0
C75 C 0.37803 0.95717 0.25677 0.0
C76 C 0.39431 0.96912 0.11267 0.0
H77 H 0.48424 0.30143 0.03667 0.0
H78 H 0.59889 0.45408 0.1019 0.0
H79 H 0.57613 0.32806 0.44875 0.0
N80 N 0.50539 0.25257 0.30621 0.0
N81 N 0.50342 0.24211 0.44129 0.0
C82 C 0.51344 0.32764 0.10669 0.0
C83 C 0.5394 0.38116 0.05417 0.0
C84 C 0.52653 0.30832 0.25151 0.0
C85 C 0.56607 0.34237 0.33808 0.0
C86 C 0.59204 0.39485 0.28431 0.0
C87 C 0.57899 0.41308 0.14286 0.0
O88 O 0.16338 0.05393 0.60227 0.0
Zn89 Zn 0.09357 0.05196 0.74983 0.0
O90 O 1.02093 0.02888 0.64036 0.0
Zn91 Zn 0.96163 0.0875 0.66679 0.0
Zn92 Zn 0.03497 1.02156 0.43832 0.0
Zn93 Zn 0.99015 0.94825 0.67174 0.0
O94 O 0.89275 0.04625 0.7665 0.0
O95 O 0.90496 0.94925 0.75287 0.0
O96 O 0.08062 0.12968 0.87145 0.0
O97 O 0.98896 0.15001 0.8052 0.0
O98 O 0.9432 0.13309 0.4808 0.0
O99 O 1.0086 0.08959 0.34286 0.0
O100 O 0.98781 0.95634 0.34408 0.0
O101 O 0.10845 0.98542 0.89938 0.0
O102 O 1.00975 0.8897 0.50483 0.0
O103 O 0.03852 0.91993 0.82922 0.0
C104 C 0.16705 0.03756 0.46859 0.0
C105 C 0.87607 0.99337 0.79634 0.0
C106 C 0.97124 0.1288 0.36164 0.0
C107 C 0.03542 0.16256 0.87955 0.0
C108 C 1.00296 0.90429 0.37149 0.0
C109 C 0.0826 0.93472 0.90906 0.0
O110 O 0.12152 1.01987 0.39631 0.0
O111 O 0.4949 0.17487 0.63587 0.0
Zn112 Zn 0.50072 0.09722 0.75817 0.0
O113 O 0.5213 0.03124 0.63285 0.0
Zn114 Zn 0.46897 0.9645 0.67083 0.0
Zn115 Zn 0.51604 0.05714 0.44105 0.0
Zn116 Zn 0.60595 1.00899 0.65027 0.0
O117 O 0.51638 0.90602 0.7901 0.0
O118 O 0.61073 0.93855 0.79458 0.0
O119 O 0.42662 0.07344 0.88757 0.0
O120 O 0.40354 0.98439 0.80415 0.0
O121 O 0.42651 0.93625 0.48492 0.0
O122 O 0.45673 1.01115 0.34375 0.0
O123 O 0.58944 0.0451 0.34459 0.0
O124 O 0.57296 0.10314 0.89139 0.0
O125 O 0.65789 0.99824 0.46427 0.0
O126 O 0.63943 0.08392 0.7263 0.0
C127 C 0.49568 0.18388 0.49723 0.0
C128 C 0.56958 0.9028 0.83871 0.0
C129 C 0.42574 0.96459 0.36381 0.0
C130 C 0.39284 0.02687 0.88805 0.0
C131 C 0.64072 1.02445 0.34878 0.0
C132 C 0.62708 0.097 0.85599 0.0
O133 O 0.50099 0.14156 0.40974 0.0
O134 O 0.42429 0.50424 0.59819 0.0
Zn135 Zn 0.49176 0.51705 0.74414 0.0
O136 O 0.56396 0.52707 0.63951 0.0
Zn137 Zn 0.61604 0.46489 0.69144 0.0
Zn138 Zn 0.54343 0.52467 0.44224 0.0
Zn139 Zn 0.60804 0.60369 0.63764 0.0
O140 O 0.68784 0.49953 0.79352 0.0
O141 O 0.69006 0.59501 0.7347 0.0
O142 O 0.49536 0.44834 0.89197 0.0
O143 O 0.57868 0.40694 0.83077 0.0
O144 O 0.63103 0.4192 0.51307 0.0
O145 O 0.61448 0.49073 0.35552 0.0
O146 O 0.52768 0.6053 0.37537 0.0
O147 O 0.486 0.59299 0.85521 0.0
O148 O 0.60605 0.65644 0.44724 0.0
O149 O 0.5633 0.64785 0.77506 0.0
C150 C 0.42046 0.48865 0.46442 0.0
C151 C 0.71167 0.55091 0.80233 0.0
C152 C 0.62294 0.43661 0.38214 0.0
C153 C 0.53206 0.40696 0.90719 0.0
C154 C 0.56007 0.65158 0.36553 0.0
C155 C 0.51759 0.64071 0.85329 0.0
O156 O 0.46658 0.48318 0.38785 0.0
O157 O 0.97745 0.59216 0.39977 0.0
Zn158 Zn 0.04947 0.60081 0.53764 0.0
O159 O 0.05407 0.52919 0.6471 0.0
Zn160 Zn 0.0617 0.55266 0.84029 0.0
Zn161 Zn 0.98758 0.47849 0.61097 0.0
Zn162 Zn 0.12508 0.48167 0.64151 0.0
O163 O 0.14753 0.56666 0.87686 0.0
O164 O 0.1747 0.47702 0.83652 0.0
O165 O 0.04636 0.67211 0.67803 0.0
O166 O 1.02823 0.62986 0.89305 0.0
O167 O 1.02376 0.4888 -0.04153 0.0
O168 O 0.9525 0.46017 0.80298 0.0
O169 O 1.01158 0.40893 0.4909 0.0
O170 O 0.12327 0.6019 0.41273 0.0
O171 O 0.10785 0.4024 0.53916 0.0
O172 O 0.17365 0.52612 0.50381 0.0
C173 C 0.93066 0.55887 0.40082 0.0
C174 C 0.1824 0.52544 0.90448 0.0
C175 C 0.97087 0.47001 -0.06707 0.0
C176 C 1.03467 0.67586 0.81449 0.0
C177 C 0.06076 0.38409 0.47275 0.0
C178 C 0.16887 0.5698 0.41717 0.0
O179 O 0.92422 0.51878 0.49721 0.0
loop_
_geom_bond_atom_site_label_1
_geom_bond_atom_site_label_2
_geom_bond_distance
_geom_bond_site_symmetry_2
_ccdc_geom_bond_type
H0 C5 0.929 . S
H1 C10 0.931 . S
H2 C8 0.930 . S
N3 N4 1.234 1_554 S
N3 C7 1.453 . S
N4 N3 1.234 1_556 S
C5 H0 0.929 . S
C5 C6 1.373 . S
C5 C7 1.368 . S
C6 C5 1.373 . S
C6 C10 1.397 . S
C7 N3 1.453 . S
C7 C5 1.368 . S
C7 C8 1.373 1_554 S
C8 H2 0.930 . S
C8 C7 1.373 1_556 S
C8 C9 1.371 . S
C9 C8 1.371 . S
C9 C10 1.383 1_556 S
C10 H1 0.931 . S
C10 C6 1.397 . S
C10 C9 1.383 1_554 S
H11 C16 0.929 . S
H12 C21 0.931 . S
H13 C19 0.930 1_556 S
N14 N15 1.234 1_454 S
N14 C18 1.453 . S
N15 N14 1.234 1_656 S
C16 H11 0.929 . S
C16 C17 1.373 . S
C16 C18 1.368 . S
C17 C16 1.373 . S
C17 C21 1.397 1_455 S
C18 N14 1.453 . S
C18 C16 1.368 . S
C18 C19 1.373 . S
C19 H13 0.930 1_554 S
C19 C18 1.373 . S
C19 C20 1.371 . S
C20 C19 1.371 . S
C20 C21 1.383 1_455 S
C21 H12 0.931 . S
C21 C17 1.397 1_655 S
C21 C20 1.383 1_655 S
H22 C27 0.929 . S
H23 C32 0.931 . S
H24 C30 0.930 . S
N25 N26 1.234 1_544 S
N25 C29 1.453 . S
N26 N25 1.234 1_566 S
C27 H22 0.929 . S
C27 C28 1.373 . S
C27 C29 1.368 . S
C28 C27 1.373 . S
C28 C32 1.397 1_545 S
C29 N25 1.453 . S
C29 C27 1.368 . S
C29 C30 1.373 1_554 S
C30 H24 0.930 . S
C30 C29 1.373 1_556 S
C30 C31 1.371 . S
C31 C30 1.371 . S
C31 C32 1.383 1_546 S
C32 H23 0.931 . S
C32 C28 1.397 1_565 S
C32 C31 1.383 1_564 S
H33 C38 0.929 . S
H34 C43 0.931 . S
H35 C41 0.930 . S
N36 N37 1.234 1_554 S
N36 C40 1.453 . S
N37 N36 1.234 1_556 S
C38 H33 0.929 . S
C38 C39 1.373 . S
C38 C40 1.368 . S
C39 C38 1.373 . S
C39 C43 1.397 . S
C40 N36 1.453 . S
C40 C38 1.368 . S
C40 C41 1.373 1_554 S
C41 H35 0.930 . S
C41 C40 1.373 1_556 S
C41 C42 1.371 . S
C42 C41 1.371 . S
C42 C43 1.383 1_556 S
C43 H34 0.931 . S
C43 C39 1.397 . S
C43 C42 1.383 1_554 S
H44 C49 0.929 . S
H45 C54 0.931 . S
H46 C52 0.930 . S
N47 N48 1.234 . S
N47 C51 1.453 . S
N48 N47 1.234 . S
C49 H44 0.929 . S
C49 C50 1.373 . S
C49 C51 1.368 . S
C50 C49 1.373 . S
C50 C54 1.397 . S
C51 N47 1.453 . S
C51 C49 1.368 . S
C51 C52 1.373 . S
C52 H46 0.930 . S
C52 C51 1.373 . S
C52 C53 1.371 . S
C53 C52 1.371 . S
C53 C54 1.383 . S
C54 H45 0.931 . S
C54 C50 1.397 . S
C54 C53 1.383 . S
H55 C60 0.929 . S
H56 C65 0.931 . S
H57 C63 0.930 . S
N58 N59 1.234 . S
N58 C62 1.453 . S
N59 N58 1.234 . S
C60 H55 0.929 . S
C60 C61 1.373 . S
C60 C62 1.368 . S
C61 C60 1.373 . S
C61 C65 1.397 . S
C62 N58 1.453 . S
C62 C60 1.368 . S
C62 C63 1.373 . S
C63 H57 0.930 . S
C63 C62 1.373 . S
C63 C64 1.371 . S
C64 C63 1.371 . S
C64 C65 1.383 . S
C65 H56 0.931 . S
C65 C61 1.397 . S
C65 C64 1.383 . S
H66 C71 0.929 . S
H67 C76 0.931 . S
H68 C74 0.930 . S
N69 N70 1.234 . S
N69 C73 1.453 . S
N70 N69 1.234 . S
C71 H66 0.929 . S
C71 C72 1.373 . S
C71 C73 1.368 . S
C72 C71 1.373 . S
C72 C76 1.397 . S
C73 N69 1.453 . S
C73 C71 1.368 . S
C73 C74 1.373 . S
C74 H68 0.930 . S
C74 C73 1.373 . S
C74 C75 1.371 . S
C75 C74 1.371 . S
C75 C76 1.383 . S
C76 H67 0.931 . S
C76 C72 1.397 . S
C76 C75 1.383 . S
H77 C82 0.929 . S
H78 C87 0.931 . S
H79 C85 0.930 . S
N80 N81 1.234 . S
N80 C84 1.453 . S
N81 N80 1.234 . S
C82 H77 0.929 . S
C82 C83 1.373 . S
C82 C84 1.368 . S
C83 C82 1.373 . S
C83 C87 1.397 . S
C84 N80 1.453 . S
C84 C82 1.368 . S
C84 C85 1.373 . S
C85 H79 0.930 . S
C85 C84 1.373 . S
C85 C86 1.371 . S
C86 C85 1.371 . S
C86 C87 1.383 . S
C87 H78 0.931 . S
C87 C83 1.397 . S
C87 C86 1.383 . S
O88 Zn89 1.954 . S
O88 C104 1.225 1_545 S
Zn89 O88 1.954 . S
Zn89 O90 1.949 1_545 S
Zn89 O96 1.926 1_556 S
Zn89 O101 1.916 1_546 S
O90 Zn89 1.949 1_565 S
O90 Zn91 1.923 1_465 S
O90 Zn92 1.950 . S
O90 Zn93 1.945 1_455 S
Zn91 O90 1.923 1_645 S
Zn91 O94 1.933 . S
Zn91 O97 1.937 1_655 S
Zn91 O98 1.965 . S
Zn92 O90 1.950 . S
Zn92 O99 1.938 1_565 S
Zn92 O100 1.906 . S
Zn92 O110 1.953 . S
Zn93 O90 1.945 1_655 S
Zn93 O95 1.932 . S
Zn93 O102 1.977 . S
Zn93 O103 1.910 1_655 S
O94 Zn91 1.933 . S
O94 C105 1.226 . S
O95 Zn93 1.932 . S
O95 C105 1.307 1_565 S
O96 Zn89 1.926 1_554 S
O96 C107 1.253 . S
O97 Zn91 1.937 1_455 S
O97 C107 1.290 1_556 S
O98 Zn91 1.965 . S
O98 C106 1.303 1_655 S
O99 Zn92 1.938 1_545 S
O99 C106 1.247 . S
O100 Zn92 1.906 . S
O100 C108 1.304 1_455 S
O101 Zn89 1.916 1_564 S
O101 C109 1.311 . S
O102 Zn93 1.977 . S
O102 C108 1.272 . S
O103 Zn93 1.910 1_455 S
O103 C109 1.231 1_556 S
C104 O88 1.225 1_565 S
C104 O110 1.298 . S
C105 O94 1.226 . S
C105 O95 1.307 1_545 S
C106 O98 1.303 1_455 S
C106 O99 1.247 . S
C107 O96 1.253 . S
C107 O97 1.290 1_554 S
C108 O100 1.304 1_655 S
C108 O102 1.272 . S
C109 O101 1.311 . S
C109 O103 1.231 1_554 S
O110 Zn92 1.953 . S
O110 C104 1.298 . S
O111 Zn112 1.953 . S
O111 C127 1.225 . S
Zn112 O111 1.953 . S
Zn112 O113 1.949 . S
Zn112 O119 1.919 1_556 S
Zn112 O124 1.924 . S
O113 Zn112 1.949 . S
O113 Zn114 1.923 1_545 S
O113 Zn115 1.950 . S
O113 Zn116 1.945 1_545 S
Zn114 O113 1.923 1_565 S
Zn114 O117 1.933 . S
Zn114 O120 1.941 . S
Zn114 O121 1.965 . S
Zn115 O113 1.950 . S
Zn115 O122 1.938 . S
Zn115 O123 1.906 . S
Zn115 O133 1.953 . S
Zn116 O113 1.945 1_565 S
Zn116 O118 1.932 . S
Zn116 O125 1.977 . S
Zn116 O126 1.903 1_565 S
O117 Zn114 1.933 . S
O117 C128 1.226 . S
O118 Zn116 1.932 . S
O118 C128 1.307 . S
O119 Zn112 1.919 1_554 S
O119 C130 1.253 . S
O120 Zn114 1.941 . S
O120 C130 1.283 1_566 S
O121 Zn114 1.965 . S
O121 C129 1.303 1_565 S
O122 Zn115 1.938 . S
O122 C129 1.247 . S
O123 Zn115 1.906 . S
O123 C131 1.304 1_545 S
O124 Zn112 1.924 . S
O124 C132 1.311 . S
O125 Zn116 1.977 . S
O125 C131 1.272 . S
O126 Zn116 1.903 1_545 S
O126 C132 1.245 . S
C127 O111 1.225 . S
C127 O133 1.298 . S
C128 O117 1.226 . S
C128 O118 1.307 . S
C129 O121 1.303 1_545 S
C129 O122 1.247 . S
C130 O119 1.253 . S
C130 O120 1.283 1_544 S
C131 O123 1.304 1_565 S
C131 O125 1.272 . S
C132 O124 1.311 . S
C132 O126 1.245 . S
O133 Zn115 1.953 . S
O133 C127 1.298 . S
O134 Zn135 1.953 . S
O134 C150 1.225 . S
Zn135 O134 1.953 . S
Zn135 O136 1.949 . S
Zn135 O142 1.919 1_556 S
Zn135 O147 1.924 . S
O136 Zn135 1.949 . S
O136 Zn137 1.923 . S
O136 Zn138 1.950 . S
O136 Zn139 1.945 . S
Zn137 O136 1.923 . S
Zn137 O140 1.933 . S
Zn137 O143 1.941 . S
Zn137 O144 1.965 . S
Zn138 O136 1.950 . S
Zn138 O145 1.938 . S
Zn138 O146 1.906 . S
Zn138 O156 1.953 . S
Zn139 O136 1.945 . S
Zn139 O141 1.932 . S
Zn139 O148 1.977 . S
Zn139 O149 1.910 . S
O140 Zn137 1.933 . S
O140 C151 1.226 . S
O141 Zn139 1.932 . S
O141 C151 1.307 . S
O142 Zn135 1.919 1_554 S
O142 C153 1.253 . S
O143 Zn137 1.941 . S
O143 C153 1.283 1_556 S
O144 Zn137 1.965 . S
O144 C152 1.303 . S
O145 Zn138 1.938 . S
O145 C152 1.247 . S
O146 Zn138 1.906 . S
O146 C154 1.304 . S
O147 Zn135 1.924 . S
O147 C155 1.311 . S
O148 Zn139 1.977 . S
O148 C154 1.272 . S
O149 Zn139 1.910 . S
O149 C155 1.231 . S
C150 O134 1.225 . S
C150 O156 1.298 . S
C151 O140 1.226 . S
C151 O141 1.307 . S
C152 O144 1.303 . S
C152 O145 1.247 . S
C153 O142 1.253 . S
C153 O143 1.283 1_554 S
C154 O146 1.304 . S
C154 O148 1.272 . S
C155 O147 1.311 . S
C155 O149 1.231 . S
O156 Zn138 1.953 . S
O156 C150 1.298 . S
O157 Zn158 1.953 1_655 S
O157 C173 1.225 . S
Zn158 O157 1.953 1_455 S
Zn158 O159 1.949 . S
Zn158 O165 1.919 . S
Zn158 O170 1.924 . S
O159 Zn158 1.949 . S
O159 Zn160 1.923 1_455 S
O159 Zn161 1.950 1_455 S
O159 Zn162 1.945 . S
Zn160 O159 1.923 1_655 S
Zn160 O163 1.933 1_656 S
Zn160 O166 1.941 . S
Zn160 O167 1.965 . S
Zn161 O159 1.950 1_655 S
Zn161 O168 1.938 . S
Zn161 O169 1.906 . S
Zn161 O179 1.953 . S
Zn162 O159 1.945 . S
Zn162 O164 1.932 . S
Zn162 O171 1.977 . S
Zn162 O172 1.910 . S
O163 Zn160 1.933 1_454 S
O163 C174 1.226 . S
O164 Zn162 1.932 . S
O164 C174 1.307 1_556 S
O165 Zn158 1.919 . S
O165 C176 1.253 . S
O166 Zn160 1.941 . S
O166 C176 1.282 1_655 S
O167 Zn160 1.965 . S
O167 C175 1.303 . S
O168 Zn161 1.938 . S
O168 C175 1.247 . S
O169 Zn161 1.906 . S
O169 C177 1.304 1_655 S
O170 Zn158 1.924 . S
O170 C178 1.311 . S
O171 Zn162 1.977 . S
O171 C177 1.272 . S
O172 Zn162 1.910 . S
O172 C178 1.231 . S
C173 O157 1.225 . S
C173 O179 1.298 . S
C174 O163 1.226 . S
C174 O164 1.307 1_554 S
C175 O167 1.303 . S
C175 O168 1.247 . S
C176 O165 1.253 . S
C176 O166 1.282 1_455 S
C177 O169 1.304 1_455 S
C177 O171 1.272 . S
C178 O170 1.311 . S
C178 O172 1.231 . S
O179 Zn161 1.953 . S
O179 C173 1.298 . S
N70 C104 1.813 1_545 S
C127 N81 1.859 . S
C150 N48 1.783 . S
C177 N59 1.615 . S
C105 N26 1.595 1_545 S
N37 C128 1.589 . S
N4 C151 1.596 . S
N15 C176 1.649 1_655 S
C106 C64 0.852 . S
C129 C75 0.649 . S
C152 C86 0.689 . S
C53 C178 1.066 . S
C20 C109 1.207 . S
C132 C31 1.261 . S
C155 C42 1.287 . S
C9 C175 0.847 . S
C61 C107 1.584 . S
C72 C130 1.533 . S
C153 C83 1.569 . S
C174 C50 1.553 . S
C17 C108 1.871 1_455 S
C131 C28 1.769 1_565 S
C154 C39 1.701 . S
C6 C173 1.820 . S
