# Generated by pormake.
# Topology zzz, (3,6)-cn, num edge types: 1
# Building blocks:
#     Node 0, Type 0, BuildingBlock: BETDIP_clean_linker_0, # of connection points: 3
#     Node 1, Type 0, BuildingBlock: BETDIP_clean_linker_0, # of connection points: 3
#     Node 2, Type 0, BuildingBlock: BETDIP_clean_linker_0, # of connection points: 3
#     Node 3, Type 0, BuildingBlock: BETDIP_clean_linker_0, # of connection points: 3
#     Node 4, Type 0, BuildingBlock: BETDIP_clean_linker_0, # of connection points: 3
#     Node 5, Type 0, BuildingBlock: BETDIP_clean_linker_0, # of connection points: 3
#     Node 6, Type 0, BuildingBlock: BETDIP_clean_linker_0, # of connection points: 3
#     Node 7, Type 0, BuildingBlock: BETDIP_clean_linker_0, # of connection points: 3
#     Node 8, Type 1, BuildingBlock: CIFDUS_clean_sbu_1, # of connection points: 6
#     Node 9, Type 1, BuildingBlock: CIFDUS_clean_sbu_1, # of connection points: 6
#     Node 10, Type 1, BuildingBlock: CIFDUS_clean_sbu_1, # of connection points: 6
#     Node 11, Type 1, BuildingBlock: CIFDUS_clean_sbu_1, # of connection points: 6
#     Edge 12, Type (0, 1), None
#     Edge 13, Type (0, 1), None
#     Edge 14, Type (0, 1), None
#     Edge 15, Type (0, 1), None
#     Edge 16, Type (0, 1), None
#     Edge 17, Type (0, 1), None
#     Edge 18, Type (0, 1), None
#     Edge 19, Type (0, 1), None
#     Edge 20, Type (0, 1), None
#     Edge 21, Type (0, 1), None
#     Edge 22, Type (0, 1), None
#     Edge 23, Type (0, 1), None
#     Edge 24, Type (0, 1), None
#     Edge 25, Type (0, 1), None
#     Edge 26, Type (0, 1), None
#     Edge 27, Type (0, 1), None
#     Edge 28, Type (0, 1), None
#     Edge 29, Type (0, 1), None
#     Edge 30, Type (0, 1), None
#     Edge 31, Type (0, 1), None
#     Edge 32, Type (0, 1), None
#     Edge 33, Type (0, 1), None
#     Edge 34, Type (0, 1), None
#     Edge 35, Type (0, 1), None
# Relax obj value: 0.119
# Max RMSD: 0.173
# Mean RMSD: 0.108
data_MOF--net-zzz--node1-CIFDUS_clean_sbu_1--node2-BETDIP_clean_linker_0--edge1-none
_symmetry_space_group_name_H-M    P1
_symmetry_Int_Tables_number       1
_symmetry_cell_setting            triclinic
loop_
_symmetry_equiv_pos_as_xyz
'x, y, z'
_cell_length_a     20.887288
_cell_length_b     20.80936
_cell_length_c     7.9904033
_cell_angle_alpha  90.1581
_cell_angle_beta   90.076504
_cell_angle_gamma 88.981519
loop_
_atom_site_label
_atom_site_type_symbol
_atom_site_fract_x
_atom_site_fract_y
_atom_site_fract_z
_atom_type_partial_charge
H0 H 0.7968 0.60723 0.38976 0.0
H1 H 0.82617 0.55022 0.87495 0.0
H2 H 0.97011 0.50896 0.23587 0.0
H3 H 0.66474 0.6449 -0.05673 0.0
C4 C 0.69964 0.60627 -0.04265 0.0
C5 C 0.8253 0.58441 0.29248 0.0
C6 C 0.88811 0.56166 0.32899 0.0
C7 C 0.80024 0.57864 0.12747 0.0
C8 C 0.83875 0.548 0.00614 0.0
C9 C 0.89736 0.51922 0.05213 0.0
C10 C 0.92273 0.52896 0.20771 0.0
N11 N 0.74282 0.61356 0.08386 0.0
H12 H 0.9818 0.79304 0.38161 0.0
H13 H 1.04365 0.82014 0.87209 0.0
H14 H 0.07149 0.96811 0.22844 0.0
H15 H 0.9608 0.65349 -0.05554 0.0
C16 C 0.99576 0.69104 -0.04468 0.0
C17 C 1.00392 0.82161 0.28524 0.0
C18 C 1.02204 0.88571 0.32149 0.0
C19 C 1.0138 0.79502 0.12245 0.0
C20 C 1.04356 0.83347 0.00276 0.0
C21 C 0.06827 0.89311 0.04874 0.0
C22 C 0.05432 0.92009 0.2013 0.0
N23 N 0.98447 0.73527 0.07913 0.0
H24 H 0.8067 1.00941 0.3798 0.0
H25 H 0.77741 0.06478 0.86398 0.0
H26 H 0.63175 0.10341 0.22152 0.0
H27 H 0.93873 0.96922 -0.06444 0.0
C28 C 0.90384 1.00797 -0.05228 0.0
C29 C 0.77795 1.03129 0.28172 0.0
C30 C 0.71473 0.05317 0.31701 0.0
C31 C 0.80307 1.03664 0.11677 0.0
C32 C 0.76451 0.06684 -0.00511 0.0
C33 C 0.70533 0.09469 0.03991 0.0
C34 C 0.67962 0.08436 0.19447 0.0
N35 N 0.86049 1.00152 0.07386 0.0
H36 H 0.62041 0.82055 0.38592 0.0
H37 H 0.55893 0.79171 0.87594 0.0
H38 H 0.53229 0.64436 0.23184 0.0
H39 H 0.64075 0.95994 -0.05062 0.0
C40 C 0.60629 0.92182 -0.04247 0.0
C41 C 0.59854 0.79161 0.28934 0.0
C42 C 0.58118 0.7272 0.32542 0.0
C43 C 0.58831 0.81798 0.12633 0.0
C44 C 0.55887 0.77895 0.00671 0.0
C45 C 0.53456 0.71925 0.05269 0.0
C46 C 0.54896 0.69252 0.20506 0.0
N47 N 0.6168 0.87822 0.08319 0.0
H48 H 0.30748 0.53283 -0.04686 0.0
H49 H 0.27712 0.58912 0.463 0.0
H50 H 0.11841 0.52909 0.16902 0.0
H51 H 0.39709 0.50701 0.44219 0.0
C52 C 0.40206 0.5535 0.3825 0.0
C53 C 0.27655 0.53417 0.06186 0.0
C54 C 0.20914 0.52561 0.04237 0.0
C55 C 0.30239 0.55096 0.22056 0.0
C56 C 0.25952 0.56832 0.34752 0.0
C57 C 0.19383 0.56377 0.32161 0.0
C58 C 0.17005 0.53326 0.18148 0.0
N59 N 0.36788 0.56783 0.24248 0.0
H60 H 0.09483 0.29956 -0.04735 0.0
H61 H 1.03985 0.27789 0.46986 0.0
H62 H 0.06093 0.11261 0.16059 0.0
H63 H 0.12428 0.43179 0.41963 0.0
C64 C 0.08309 0.40208 0.39722 0.0
C65 C 0.08511 0.26941 0.05963 0.0
C66 C 0.08199 0.20145 0.03853 0.0
C67 C 0.073 0.29829 0.21865 0.0
C68 C 0.05032 0.25903 0.34684 0.0
C69 C 1.04186 0.19355 0.31695 0.0
C70 C 0.06597 0.16433 0.17479 0.0
N71 N 0.08266 0.36582 0.24301 0.0
H72 H 0.29469 0.07614 -0.05416 0.0
H73 H 0.32834 1.01726 0.4522 0.0
H74 H 0.4854 0.07704 0.15415 0.0
H75 H 0.20906 0.10226 0.43748 0.0
C76 C 0.20312 0.05563 0.37855 0.0
C77 C 0.32643 0.07376 0.05304 0.0
C78 C 0.39376 0.08218 0.03129 0.0
C79 C 0.30165 0.05637 0.21219 0.0
C80 C 0.34531 1.03802 0.33643 0.0
C81 C 0.41084 1.0421 0.30798 0.0
C82 C 0.43383 0.07295 0.16811 0.0
N83 N 0.2361 1.04041 0.23713 0.0
H84 H 0.49957 0.31588 -0.03378 0.0
H85 H 0.55382 0.34005 0.48484 0.0
H86 H 0.5614 0.49856 0.15512 0.0
H87 H 0.47569 0.17338 0.39966 0.0
C88 C 0.50999 0.21151 0.39138 0.0
C89 C 0.51555 0.3454 0.06946 0.0
C90 C 0.52658 0.41207 0.04309 0.0
C91 C 0.52517 0.31728 0.23076 0.0
C92 C 0.55119 0.35601 0.35656 0.0
C93 C 0.56882 0.41894 0.32003 0.0
C94 C 0.55005 0.44815 0.17369 0.0
N95 N 0.4994 0.2551 0.266 0.0
O96 O 0.08292 0.11351 0.84544 0.0
Mn97 Mn 0.05139 1.04186 0.67755 0.0
O98 O 1.00721 0.19285 0.83547 0.0
Mn99 Mn 0.94399 0.15025 0.7206 0.0
O100 O 1.01724 0.97378 0.50678 0.0
O101 O 0.14302 1.01602 0.61095 0.0
Mn102 Mn 0.14632 0.92964 0.63544 0.0
O103 O 0.05294 0.97405 0.86156 0.0
O104 O 0.07369 0.88598 0.56949 0.0
O105 O 0.05219 0.1097 0.49798 0.0
O106 O 0.95825 0.16505 0.49709 0.0
O107 O 0.1981 0.94832 0.457 0.0
O108 O 0.14839 0.92197 0.86171 0.0
C109 C 0.91305 0.06187 0.8439 0.0
C110 C 0.0617 0.17107 0.88203 0.0
C111 C 1.02887 0.91306 0.48943 0.0
C112 C 0.17639 1.0065 0.47481 0.0
C113 C 0.09392 0.93503 0.92581 0.0
C114 C 1.01437 0.15286 0.4408 0.0
O115 O 0.96088 0.06713 0.74259 0.0
O116 O 0.8792 0.11426 0.85183 0.0
O117 O 0.62418 0.07508 0.85876 0.0
Mn118 Mn 0.55753 0.06748 0.67652 0.0
O119 O 0.66563 0.17464 0.85965 0.0
Mn120 Mn 0.65249 0.18301 0.63431 0.0
O121 O 0.49193 0.06074 0.49199 0.0
O122 O 0.54419 0.9745 0.74383 0.0
Mn123 Mn 0.46403 0.95064 0.71323 0.0
O124 O 0.48147 0.092 0.84088 0.0
O125 O 0.45085 0.96146 0.48727 0.0
O126 O 0.63223 1.0418 0.5128 0.0
O127 O 0.70433 0.12081 0.53415 0.0
O128 O 0.50493 0.88946 0.85008 0.0
O129 O 0.41206 1.00987 0.82289 0.0
C130 C 0.5632 0.20642 0.50078 0.0
C131 C 0.66143 0.11766 0.91618 0.0
C132 C 0.45606 1.01826 0.42947 0.0
C133 C 0.55323 0.92721 0.84734 0.0
C134 C 0.42691 0.06559 0.87438 0.0
C135 C 0.68775 0.06576 0.48169 0.0
O136 O 0.57145 0.16049 0.60888 0.0
O137 O 0.61236 0.24296 0.4923 0.0
O138 O 0.55101 0.63834 0.86543 0.0
Mn139 Mn 0.55401 0.57032 0.68139 0.0
O140 O 0.45496 0.68922 0.86435 0.0
Mn141 Mn 0.45748 0.68115 0.63806 0.0
O142 O 0.5553 0.50193 0.50217 0.0
O143 O 0.64451 0.54622 0.74902 0.0
Mn144 Mn 0.66222 0.46308 0.72745 0.0
O145 O 0.523 0.4985 0.8485 0.0
O146 O 0.65082 0.4492 0.50285 0.0
O147 O 0.58738 0.63904 0.51083 0.0
O148 O 0.52934 0.72601 0.57294 0.0
O149 O 0.72505 0.49957 0.86485 0.0
O150 O 0.59805 0.41886 0.83396 0.0
C151 C 0.4285 0.60335 0.47748 0.0
C152 C 0.50945 0.67685 0.92935 0.0
C153 C 0.59462 0.45989 0.44548 0.0
C154 C 0.69119 0.55186 0.85411 0.0
C155 C 0.54386 0.44064 0.88253 0.0
C156 C 0.57471 0.69964 0.49334 0.0
O157 O 0.4622 0.59475 0.61344 0.0
O158 O 0.40591 0.66118 0.4595 0.0
O159 O 0.12038 0.51831 0.85314 0.0
Mn160 Mn 0.04518 0.54362 0.68685 0.0
O161 O 0.19053 0.59997 0.83956 0.0
Mn162 Mn 0.14062 0.65918 0.72456 0.0
O163 O 0.97238 0.57095 0.52015 0.0
O164 O 1.02942 0.45037 0.62365 0.0
Mn165 Mn 0.94619 0.43334 0.6435 0.0
O166 O 0.97803 0.53795 0.86919 0.0
O167 O 0.89512 0.49901 0.55632 0.0
O168 O 0.11162 0.54764 0.50405 0.0
O169 O 0.15539 0.64581 0.49993 0.0
O170 O 0.98031 0.3775 0.48241 0.0
O171 O 0.93522 0.43894 0.86978 0.0
C172 C 0.05021 0.68445 0.85095 0.0
C173 C 0.17513 0.54414 0.88826 0.0
C174 C 0.91497 0.55106 0.49478 0.0
C175 C 1.03205 0.40991 0.49959 0.0
C176 C 0.94107 0.49556 0.92867 0.0
C177 C 0.14922 0.58879 0.44326 0.0
O178 O 0.06008 0.6364 0.75047 0.0
O179 O 0.09878 0.72182 0.85632 0.0
loop_
_geom_bond_atom_site_label_1
_geom_bond_atom_site_label_2
_geom_bond_distance
_geom_bond_site_symmetry_2
_ccdc_geom_bond_type
H0 C5 0.930 . S
H1 C8 0.930 . S
H2 C10 0.930 . S
H3 C4 1.016 . S
C4 H3 1.016 . S
C4 N11 1.286 1_556 S
C5 H0 0.930 . S
C5 C6 1.397 . S
C5 C7 1.361 . S
C6 C5 1.397 . S
C6 C10 1.390 . S
C7 C5 1.361 . S
C7 C8 1.393 1_554 S
C7 N11 1.413 . S
C8 H1 0.930 . S
C8 C7 1.393 1_556 S
C8 C9 1.399 . S
C9 C8 1.399 . S
C9 C10 1.381 1_556 S
C10 H2 0.930 . S
C10 C6 1.390 . S
C10 C9 1.381 1_554 S
N11 C4 1.286 1_554 S
N11 C7 1.413 . S
H12 C17 0.930 . S
H13 C20 0.930 . S
H14 C22 0.930 . S
H15 C16 1.016 . S
C16 H15 1.016 . S
C16 N23 1.286 1_556 S
C17 H12 0.930 . S
C17 C18 1.397 . S
C17 C19 1.361 . S
C18 C17 1.397 . S
C18 C22 1.390 . S
C19 C17 1.361 . S
C19 C20 1.393 1_554 S
C19 N23 1.413 . S
C20 H13 0.930 . S
C20 C19 1.393 1_556 S
C20 C21 1.399 . S
C21 C20 1.399 . S
C21 C22 1.381 1_556 S
C22 H14 0.930 . S
C22 C18 1.390 . S
C22 C21 1.381 1_554 S
N23 C16 1.286 1_554 S
N23 C19 1.413 . S
H24 C29 0.930 . S
H25 C32 0.930 . S
H26 C34 0.930 . S
H27 C28 1.016 . S
C28 H27 1.016 . S
C28 N35 1.286 1_556 S
C29 H24 0.930 . S
C29 C30 1.397 . S
C29 C31 1.361 . S
C30 C29 1.397 . S
C30 C34 1.390 . S
C31 C29 1.361 . S
C31 C32 1.393 1_554 S
C31 N35 1.413 . S
C32 H25 0.930 . S
C32 C31 1.393 1_556 S
C32 C33 1.399 . S
C33 C32 1.399 . S
C33 C34 1.381 1_556 S
C34 H26 0.930 . S
C34 C30 1.390 . S
C34 C33 1.381 1_554 S
N35 C28 1.286 1_554 S
N35 C31 1.413 . S
H36 C41 0.930 . S
H37 C44 0.930 . S
H38 C46 0.930 . S
H39 C40 1.016 . S
C40 H39 1.016 . S
C40 N47 1.286 1_556 S
C41 H36 0.930 . S
C41 C42 1.397 . S
C41 C43 1.361 . S
C42 C41 1.397 . S
C42 C46 1.390 . S
C43 C41 1.361 . S
C43 C44 1.393 1_554 S
C43 N47 1.413 . S
C44 H37 0.930 . S
C44 C43 1.393 1_556 S
C44 C45 1.399 . S
C45 C44 1.399 . S
C45 C46 1.381 1_556 S
C46 H38 0.930 . S
C46 C42 1.390 . S
C46 C45 1.381 1_554 S
N47 C40 1.286 1_554 S
N47 C43 1.413 . S
H48 C53 0.930 . S
H49 C56 0.930 . S
H50 C58 0.930 . S
H51 C52 1.016 . S
C52 H51 1.016 . S
C52 N59 1.286 . S
C53 H48 0.930 . S
C53 C54 1.397 . S
C53 C55 1.361 . S
C54 C53 1.397 . S
C54 C58 1.390 . S
C55 C53 1.361 . S
C55 C56 1.393 . S
C55 N59 1.413 . S
C56 H49 0.930 . S
C56 C55 1.393 . S
C56 C57 1.399 . S
C57 C56 1.399 . S
C57 C58 1.381 . S
C58 H50 0.930 . S
C58 C54 1.390 . S
C58 C57 1.381 . S
N59 C52 1.286 . S
N59 C55 1.413 . S
H60 C65 0.930 . S
H61 C68 0.930 . S
H62 C70 0.930 . S
H63 C64 1.016 . S
C64 H63 1.016 . S
C64 N71 1.286 . S
C65 H60 0.930 . S
C65 C66 1.397 . S
C65 C67 1.361 . S
C66 C65 1.397 . S
C66 C70 1.390 . S
C67 C65 1.361 . S
C67 C68 1.393 . S
C67 N71 1.413 . S
C68 H61 0.930 . S
C68 C67 1.393 . S
C68 C69 1.399 . S
C69 C68 1.399 . S
C69 C70 1.381 . S
C70 H62 0.930 . S
C70 C66 1.390 . S
C70 C69 1.381 . S
N71 C64 1.286 . S
N71 C67 1.413 . S
H72 C77 0.930 . S
H73 C80 0.930 . S
H74 C82 0.930 . S
H75 C76 1.016 . S
C76 H75 1.016 . S
C76 N83 1.286 . S
C77 H72 0.930 . S
C77 C78 1.397 . S
C77 C79 1.361 . S
C78 C77 1.397 . S
C78 C82 1.390 . S
C79 C77 1.361 . S
C79 C80 1.393 . S
C79 N83 1.413 . S
C80 H73 0.930 . S
C80 C79 1.393 . S
C80 C81 1.399 . S
C81 C80 1.399 . S
C81 C82 1.381 . S
C82 H74 0.930 . S
C82 C78 1.390 . S
C82 C81 1.381 . S
N83 C76 1.286 . S
N83 C79 1.413 . S
H84 C89 0.930 . S
H85 C92 0.930 . S
H86 C94 0.930 . S
H87 C88 1.016 . S
C88 H87 1.016 . S
C88 N95 1.286 . S
C89 H84 0.930 . S
C89 C90 1.397 . S
C89 C91 1.361 . S
C90 C89 1.397 . S
C90 C94 1.390 . S
C91 C89 1.361 . S
C91 C92 1.393 . S
C91 N95 1.413 . S
C92 H85 0.930 . S
C92 C91 1.393 . S
C92 C93 1.399 . S
C93 C92 1.399 . S
C93 C94 1.381 . S
C94 H86 0.930 . S
C94 C90 1.390 . S
C94 C93 1.381 . S
N95 C88 1.286 . S
N95 C91 1.413 . S
O96 Mn97 2.163 . S
O96 C110 1.244 1_556 S
Mn97 O96 2.163 . S
Mn97 O100 2.160 1_445 S
Mn97 O101 2.221 1_545 S
Mn97 O103 2.163 1_445 S
Mn97 O105 2.160 . S
Mn97 O115 2.221 1_455 S
O98 Mn99 2.087 1_554 S
O98 C110 1.256 1_655 S
Mn99 O98 2.087 1_556 S
Mn99 O106 2.089 . S
Mn99 O115 2.290 . S
Mn99 O116 2.251 1_556 S
O100 Mn97 2.160 1_665 S
O100 C111 1.239 . S
O101 Mn97 2.221 1_565 S
O101 Mn102 2.290 . S
O101 C112 1.278 . S
Mn102 O101 2.290 . S
Mn102 O104 2.089 . S
Mn102 O107 2.251 . S
Mn102 O108 2.087 . S
O103 Mn97 2.163 1_665 S
O103 C113 1.244 1_655 S
O104 Mn102 2.089 . S
O104 C111 1.256 1_455 S
O105 Mn97 2.160 . S
O105 C114 1.239 1_455 S
O106 Mn99 2.089 . S
O106 C114 1.256 . S
O107 Mn102 2.251 . S
O107 C112 1.241 . S
O108 Mn102 2.087 . S
O108 C113 1.256 . S
C109 O115 1.278 . S
C109 O116 1.241 1_556 S
C110 O96 1.244 1_554 S
C110 O98 1.256 1_455 S
C111 O100 1.239 . S
C111 O104 1.256 1_655 S
C112 O101 1.278 . S
C112 O107 1.241 . S
C113 O103 1.244 1_455 S
C113 O108 1.256 . S
C114 O105 1.239 1_655 S
C114 O106 1.256 . S
O115 Mn97 2.221 1_655 S
O115 Mn99 2.290 . S
O115 C109 1.278 . S
O116 Mn99 2.251 1_554 S
O116 C109 1.241 1_554 S
O117 Mn118 2.163 1_565 S
O117 C131 1.244 1_565 S
Mn118 O117 2.163 1_545 S
Mn118 O121 2.160 . S
Mn118 O122 2.221 1_545 S
Mn118 O124 2.163 . S
Mn118 O126 2.160 1_545 S
Mn118 O136 2.221 . S
O119 Mn120 2.087 . S
O119 C131 1.256 . S
Mn120 O119 2.087 . S
Mn120 O127 2.089 . S
Mn120 O136 2.290 . S
Mn120 O137 2.251 . S
O121 Mn118 2.160 . S
O121 C132 1.239 1_545 S
O122 Mn118 2.221 1_565 S
O122 Mn123 2.290 . S
O122 C133 1.278 . S
Mn123 O122 2.290 . S
Mn123 O125 2.089 . S
Mn123 O128 2.251 1_556 S
Mn123 O129 2.087 1_556 S
O124 Mn118 2.163 . S
O124 C134 1.244 1_556 S
O125 Mn123 2.089 . S
O125 C132 1.256 . S
O126 Mn118 2.160 1_565 S
O126 C135 1.239 . S
O127 Mn120 2.089 . S
O127 C135 1.256 1_545 S
O128 Mn123 2.251 1_554 S
O128 C133 1.241 1_554 S
O129 Mn123 2.087 1_554 S
O129 C134 1.256 1_565 S
C130 O136 1.278 . S
C130 O137 1.241 . S
C131 O117 1.244 1_545 S
C131 O119 1.256 . S
C132 O121 1.239 1_565 S
C132 O125 1.256 . S
C133 O122 1.278 . S
C133 O128 1.241 1_556 S
C134 O124 1.244 1_554 S
C134 O129 1.256 1_545 S
C135 O126 1.239 . S
C135 O127 1.256 1_565 S
O136 Mn118 2.221 . S
O136 Mn120 2.290 . S
O136 C130 1.278 . S
O137 Mn120 2.251 . S
O137 C130 1.241 . S
O138 Mn139 2.163 . S
O138 C152 1.244 . S
Mn139 O138 2.163 . S
Mn139 O142 2.160 . S
Mn139 O143 2.221 . S
Mn139 O145 2.163 . S
Mn139 O147 2.160 . S
Mn139 O157 2.221 . S
O140 Mn141 2.087 . S
O140 C152 1.256 . S
Mn141 O140 2.087 . S
Mn141 O148 2.089 . S
Mn141 O157 2.290 . S
Mn141 O158 2.251 . S
O142 Mn139 2.160 . S
O142 C153 1.239 . S
O143 Mn139 2.221 . S
O143 Mn144 2.290 . S
O143 C154 1.278 . S
Mn144 O143 2.290 . S
Mn144 O146 2.089 . S
Mn144 O149 2.251 1_556 S
Mn144 O150 2.087 1_556 S
O145 Mn139 2.163 . S
O145 C155 1.244 1_556 S
O146 Mn144 2.089 . S
O146 C153 1.256 . S
O147 Mn139 2.160 . S
O147 C156 1.239 . S
O148 Mn141 2.089 . S
O148 C156 1.256 . S
O149 Mn144 2.251 1_554 S
O149 C154 1.241 1_554 S
O150 Mn144 2.087 1_554 S
O150 C155 1.256 . S
C151 O157 1.278 . S
C151 O158 1.241 . S
C152 O138 1.244 . S
C152 O140 1.256 . S
C153 O142 1.239 . S
C153 O146 1.256 . S
C154 O143 1.278 . S
C154 O149 1.241 1_556 S
C155 O145 1.244 1_554 S
C155 O150 1.256 . S
C156 O147 1.239 . S
C156 O148 1.256 . S
O157 Mn139 2.221 . S
O157 Mn141 2.290 . S
O157 C151 1.278 . S
O158 Mn141 2.251 . S
O158 C151 1.241 . S
O159 Mn160 2.163 . S
O159 C173 1.244 1_556 S
Mn160 O159 2.163 . S
Mn160 O163 2.160 1_455 S
Mn160 O164 2.221 1_455 S
Mn160 O166 2.163 1_455 S
Mn160 O168 2.160 . S
Mn160 O178 2.221 . S
O161 Mn162 2.087 1_554 S
O161 C173 1.256 . S
Mn162 O161 2.087 1_556 S
Mn162 O169 2.089 . S
Mn162 O178 2.290 . S
Mn162 O179 2.251 1_556 S
O163 Mn160 2.160 1_655 S
O163 C174 1.239 . S
O164 Mn160 2.221 1_655 S
O164 Mn165 2.290 . S
O164 C175 1.278 . S
Mn165 O164 2.290 . S
Mn165 O167 2.089 . S
Mn165 O170 2.251 . S
Mn165 O171 2.087 . S
O166 Mn160 2.163 1_655 S
O166 C176 1.244 . S
O167 Mn165 2.089 . S
O167 C174 1.256 . S
O168 Mn160 2.160 . S
O168 C177 1.239 . S
O169 Mn162 2.089 . S
O169 C177 1.256 . S
O170 Mn165 2.251 . S
O170 C175 1.241 . S
O171 Mn165 2.087 . S
O171 C176 1.256 . S
C172 O178 1.278 . S
C172 O179 1.241 1_556 S
C173 O159 1.244 1_554 S
C173 O161 1.256 . S
C174 O163 1.239 . S
C174 O167 1.256 . S
C175 O164 1.278 . S
C175 O170 1.241 . S
C176 O166 1.244 . S
C176 O171 1.256 . S
C177 O168 1.239 . S
C177 O169 1.256 . S
O178 Mn160 2.221 . S
O178 Mn162 2.290 . S
O178 C172 1.278 . S
O179 Mn162 2.251 1_554 S
O179 C172 1.241 1_554 S
C76 C112 1.937 1_545 S
C130 C88 1.938 . S
C151 C52 1.937 . S
C175 C64 1.938 1_655 S
C109 C28 1.597 1_545 S
C40 C133 1.598 . S
C4 C154 1.597 . S
C16 C172 1.598 1_655 S
C114 C69 1.279 1_655 S
C132 C81 1.278 1_565 S
C153 C93 1.279 . S
C57 C177 1.278 . S
C21 C113 1.279 1_655 S
C131 C33 1.278 1_545 S
C152 C45 1.279 . S
C9 C176 1.278 . S
C66 C110 1.606 . S
C78 C134 1.606 . S
C155 C90 1.606 . S
C173 C54 1.606 . S
C18 C111 1.372 . S
C135 C30 1.371 . S
C156 C42 1.372 . S
C6 C174 1.371 . S
