# Generated by pormake.
# Topology hwx, (6,3)-cn, num edge types: 1
# Building blocks:
#     Node 0, Type 0, BuildingBlock: OJICUG_clean_sbu_0, # of connection points: 6
#     Node 1, Type 0, BuildingBlock: OJICUG_clean_sbu_0, # of connection points: 6
#     Node 2, Type 0, BuildingBlock: OJICUG_clean_sbu_0, # of connection points: 6
#     Node 3, Type 0, BuildingBlock: OJICUG_clean_sbu_0, # of connection points: 6
#     Node 4, Type 1, BuildingBlock: CUQRIR_clean_linker_1, # of connection points: 3
#     Node 5, Type 1, BuildingBlock: CUQRIR_clean_linker_1, # of connection points: 3
#     Node 6, Type 1, BuildingBlock: CUQRIR_clean_linker_1, # of connection points: 3
#     Node 7, Type 1, BuildingBlock: CUQRIR_clean_linker_1, # of connection points: 3
#     Node 8, Type 1, BuildingBlock: CUQRIR_clean_linker_1, # of connection points: 3
#     Node 9, Type 1, BuildingBlock: CUQRIR_clean_linker_1, # of connection points: 3
#     Node 10, Type 1, BuildingBlock: CUQRIR_clean_linker_1, # of connection points: 3
#     Node 11, Type 1, BuildingBlock: CUQRIR_clean_linker_1, # of connection points: 3
#     Edge 12, Type (0, 1), None
#     Edge 13, Type (0, 1), None
#     Edge 14, Type (0, 1), None
#     Edge 15, Type (0, 1), None
#     Edge 16, Type (0, 1), None
#     Edge 17, Type (0, 1), None
#     Edge 18, Type (0, 1), None
#     Edge 19, Type (0, 1), None
#     Edge 20, Type (0, 1), None
#     Edge 21, Type (0, 1), None
#     Edge 22, Type (0, 1), None
#     Edge 23, Type (0, 1), None
#     Edge 24, Type (0, 1), None
#     Edge 25, Type (0, 1), None
#     Edge 26, Type (0, 1), None
#     Edge 27, Type (0, 1), None
#     Edge 28, Type (0, 1), None
#     Edge 29, Type (0, 1), None
#     Edge 30, Type (0, 1), None
#     Edge 31, Type (0, 1), None
#     Edge 32, Type (0, 1), None
#     Edge 33, Type (0, 1), None
#     Edge 34, Type (0, 1), None
#     Edge 35, Type (0, 1), None
# Relax obj value: 0.003
# Max RMSD: 0.039
# Mean RMSD: 0.036
data_MOF--net-hwx--node1-OJICUG_clean_sbu_0--node2-CUQRIR_clean_linker_1--edge1-none
_symmetry_space_group_name_H-M    P1
_symmetry_Int_Tables_number       1
_symmetry_cell_setting            triclinic
loop_
_symmetry_equiv_pos_as_xyz
'x, y, z'
_cell_length_a     20.613212
_cell_length_b     20.613211
_cell_length_c     7.9532319
_cell_angle_alpha  90.004557
_cell_angle_beta   90.00456
_cell_angle_gamma 90.00026
loop_
_atom_site_label
_atom_site_type_symbol
_atom_site_fract_x
_atom_site_fract_y
_atom_site_fract_z
_atom_type_partial_charge
Sc0 Sc 0.25358 0.2535 0.19745 0.0
Sc1 Sc 0.15089 0.14957 -0.02693 0.0
Sc2 Sc 0.25482 0.25225 0.74871 0.0
O3 O 0.21986 0.21853 -0.02692 0.0
C4 C 0.24539 0.38194 -0.02655 0.0
C5 C 0.10611 0.23342 0.29528 0.0
C6 C 0.10299 0.24126 0.66953 0.0
C7 C 0.2426 0.10166 0.27662 0.0
C8 C 0.38326 0.24407 0.97269 0.0
C9 C 0.23474 0.10478 0.65087 0.0
O10 O 0.24687 0.35233 0.11349 0.0
O11 O 0.09846 0.19138 0.18016 0.0
O12 O 0.16007 0.26032 0.63532 0.0
O13 O 0.26166 0.15875 0.31083 0.0
O14 O 0.35365 0.24555 0.83266 0.0
O15 O 0.1927 0.09714 0.76599 0.0
O16 O 0.35293 0.24684 0.11201 0.0
O17 O 0.20704 0.08937 0.14809 0.0
O18 O 0.26533 0.15779 0.63333 0.0
O19 O 0.15912 0.26401 0.31283 0.0
O20 O 0.24816 0.3516 0.83413 0.0
O21 O 0.0907 0.20572 0.79806 0.0
Sc22 Sc 0.24953 0.7535 0.24873 0.0
Sc23 Sc 0.35222 0.64957 0.4731 0.0
Sc24 Sc 0.24828 0.75225 0.69747 0.0
O25 O 0.28325 0.71853 0.4731 0.0
C26 C 0.25771 0.88194 0.4727 0.0
C27 C 0.397 0.73342 0.15091 0.0
C28 C 0.40012 0.74127 0.77667 0.0
C29 C 0.26051 0.60166 0.16952 0.0
C30 C 0.11985 0.74407 0.47349 0.0
C31 C 0.26837 0.60478 0.79529 0.0
O32 O 0.25624 0.85233 0.33267 0.0
O33 O 0.40465 0.69138 0.26604 0.0
O34 O 0.34304 0.76034 0.81086 0.0
O35 O 0.24144 0.65875 0.13533 0.0
O36 O 0.14945 0.74554 0.61352 0.0
O37 O 0.3104 0.59713 0.68015 0.0
O38 O 0.15018 0.74684 0.33417 0.0
O39 O 0.29607 0.58938 0.29805 0.0
O40 O 0.23779 0.6578 0.81285 0.0
O41 O 0.34399 0.76399 0.13335 0.0
O42 O 0.25494 0.85161 0.61202 0.0
O43 O 0.4124 0.70571 0.64815 0.0
Sc44 Sc 0.74828 0.74821 0.74875 0.0
Sc45 Sc 0.85222 0.85089 -0.02688 0.0
Sc46 Sc 0.74954 0.74696 0.19748 0.0
O47 O 0.78325 0.78193 -0.02688 0.0
C48 C 0.61985 0.75639 -0.02726 0.0
C49 C 0.76836 0.89568 0.65091 0.0
C50 C 0.76052 0.89879 0.27667 0.0
C51 C 0.90012 0.75919 0.66957 0.0
C52 C 0.75771 0.61852 -0.0265 0.0
C53 C 0.897 0.76704 0.29532 0.0
O54 O 0.64945 0.75491 0.83271 0.0
O55 O 0.81041 0.90332 0.76604 0.0
O56 O 0.74146 0.84171 0.31088 0.0
O57 O 0.84304 0.74013 0.63536 0.0
O58 O 0.75623 0.64813 0.11353 0.0
O59 O 0.90465 0.80908 0.18021 0.0
O60 O 0.75495 0.64885 0.83418 0.0
O61 O 0.91241 0.79474 0.79811 0.0
O62 O 0.84399 0.73645 0.31286 0.0
O63 O 0.73778 0.84267 0.63337 0.0
O64 O 0.65018 0.75362 0.11206 0.0
O65 O 0.79606 0.91108 0.14814 0.0
Sc66 Sc 0.75483 0.24821 0.69746 0.0
Sc67 Sc 0.65089 0.35089 0.4731 0.0
Sc68 Sc 0.75357 0.24695 0.24873 0.0
O69 O 0.71985 0.28193 0.4731 0.0
C70 C 0.88326 0.25639 0.47346 0.0
C71 C 0.73474 0.39567 0.79532 0.0
C72 C 0.74259 0.3988 0.16958 0.0
C73 C 0.60298 0.25919 0.77662 0.0
C74 C 0.74539 0.11852 0.47273 0.0
C75 C 0.60611 0.26704 0.15088 0.0
O76 O 0.85366 0.25491 0.6135 0.0
O77 O 0.6927 0.40332 0.68021 0.0
O78 O 0.76164 0.34171 0.13535 0.0
O79 O 0.66007 0.24015 0.81085 0.0
O80 O 0.74688 0.14812 0.3327 0.0
O81 O 0.59847 0.30909 0.26598 0.0
O82 O 0.74815 0.14886 0.61205 0.0
O83 O 0.59069 0.29473 0.64808 0.0
O84 O 0.65911 0.23644 0.13335 0.0
O85 O 0.76534 0.34267 0.81284 0.0
O86 O 0.85292 0.25363 0.33414 0.0
O87 O 0.70705 0.41109 0.29812 0.0
C88 C 0.25309 0.48957 0.84265 0.0
N89 N 0.25311 0.55254 0.8944 0.0
N90 N 0.24401 0.44853 -0.02658 0.0
C91 C 0.25818 0.46776 0.66326 0.0
C92 C 0.23766 0.48898 0.1069 0.0
N93 N 0.24486 0.55208 0.06143 0.0
C94 C 0.21109 0.46794 0.27304 0.0
H95 H 0.21712 0.43496 0.63319 0.0
H96 H 0.30437 0.44106 0.64439 0.0
H97 H 0.25576 0.50852 0.57471 0.0
H98 H 0.24971 0.44107 0.3399 0.0
H99 H 0.16974 0.43421 0.254 0.0
H100 H 0.19326 0.50995 0.3467 0.0
C101 C 0.0128 0.73635 0.60695 0.0
N102 N 0.9497 0.74354 0.56146 0.0
N103 N 0.05325 0.74269 0.47346 0.0
C104 C 0.03385 0.70978 0.77309 0.0
C105 C 0.0122 0.75177 0.34269 0.0
N106 N 0.94924 0.75179 0.39443 0.0
C107 C 0.03401 0.75684 0.1633 0.0
H108 H 0.06071 0.7484 0.83997 0.0
H109 H 0.06758 0.66844 0.75407 0.0
H110 H 0.99183 0.69194 0.84673 0.0
H111 H 0.0668 0.71577 0.13325 0.0
H112 H 0.06071 0.80303 0.14441 0.0
H113 H 0.99324 0.75443 0.07476 0.0
C114 C 0.76543 0.51148 0.10696 0.0
N115 N 0.75824 0.44837 0.06148 0.0
N116 N 0.75909 0.55193 -0.02653 0.0
C117 C 0.79199 0.53252 0.27312 0.0
C118 C 0.75002 0.51088 0.8427 0.0
N119 N 0.75 0.44791 0.89444 0.0
C120 C 0.74494 0.53268 0.66331 0.0
H121 H 0.75337 0.55938 0.33998 0.0
H122 H 0.83334 0.56625 0.25412 0.0
H123 H 0.80983 0.49051 0.34677 0.0
H124 H 0.78601 0.56547 0.63327 0.0
H125 H 0.69875 0.55939 0.64441 0.0
H126 H 0.74734 0.49192 0.57476 0.0
C127 C 0.9909 0.24869 0.34266 0.0
N128 N 0.05387 0.24868 0.3944 0.0
N129 N 0.94985 0.25778 0.47343 0.0
C130 C 0.96909 0.2436 0.16327 0.0
C131 C 0.99031 0.26411 0.60692 0.0
N132 N 0.05341 0.25692 0.56144 0.0
C133 C 0.96926 0.29068 0.77307 0.0
H134 H 0.93629 0.28467 0.13321 0.0
H135 H 0.94237 0.19741 0.14439 0.0
H136 H 0.00984 0.246 0.07472 0.0
H137 H 0.9424 0.25206 0.83991 0.0
H138 H 0.93554 0.33203 0.75405 0.0
H139 H 0.01128 0.30851 0.84674 0.0
C140 C 0.75309 0.01088 0.60353 0.0
N141 N 0.75311 0.94791 0.55179 0.0
N142 N 0.74401 0.05193 0.47277 0.0
C143 C 0.75818 0.0327 0.78292 0.0
C144 C 0.73767 0.01147 0.33928 0.0
N145 N 0.74486 0.94837 0.38475 0.0
C146 C 0.7111 0.03252 0.17313 0.0
H147 H 0.71712 0.06549 0.81299 0.0
H148 H 0.80437 0.05941 0.8018 0.0
H149 H 0.75578 0.99194 0.87148 0.0
H150 H 0.74972 0.05939 0.10628 0.0
H151 H 0.66975 0.06624 0.19214 0.0
H152 H 0.69327 0.99051 0.09945 0.0
C153 C 0.4903 0.23636 0.83923 0.0
N154 N 0.55341 0.24354 0.88472 0.0
N155 N 0.44985 0.24269 -0.02728 0.0
C156 C 0.46926 0.20979 0.67308 0.0
C157 C 0.4909 0.25177 0.10349 0.0
N158 N 0.55387 0.25179 0.05176 0.0
C159 C 0.4691 0.25685 0.28289 0.0
H160 H 0.4424 0.24841 0.60622 0.0
H161 H 0.43553 0.16845 0.69208 0.0
H162 H 0.51127 0.19195 0.59943 0.0
H163 H 0.43631 0.21578 0.31293 0.0
H164 H 0.44239 0.30303 0.30179 0.0
H165 H 0.50987 0.25444 0.37143 0.0
C166 C 0.26543 0.98898 0.33925 0.0
N167 N 0.25824 0.05208 0.38473 0.0
N168 N 0.2591 0.94853 0.47273 0.0
C169 C 0.292 0.96794 0.1731 0.0
C170 C 0.25002 0.98958 0.6035 0.0
N171 N 0.25 0.05254 0.55176 0.0
C172 C 0.24494 0.96778 0.78289 0.0
H173 H 0.25338 0.94107 0.10623 0.0
H174 H 0.33335 0.93421 0.19213 0.0
H175 H 0.30984 0.00995 0.09946 0.0
H176 H 0.28601 0.93498 0.81294 0.0
H177 H 0.19875 0.94107 0.80179 0.0
H178 H 0.24736 0.00854 0.87144 0.0
C179 C 0.51221 0.7487 0.10354 0.0
N180 N 0.44924 0.74867 0.0518 0.0
N181 N 0.55326 0.75778 -0.02722 0.0
C182 C 0.53402 0.7436 0.28293 0.0
C183 C 0.5128 0.76412 0.83929 0.0
N184 N 0.4497 0.75693 0.88476 0.0
C185 C 0.53385 0.79069 0.67316 0.0
H186 H 0.56682 0.78467 0.313 0.0
H187 H 0.56073 0.69741 0.30181 0.0
H188 H 0.49326 0.74602 0.37148 0.0
H189 H 0.56071 0.75207 0.60629 0.0
H190 H 0.56757 0.83204 0.69219 0.0
H191 H 0.49183 0.80852 0.59949 0.0
loop_
_geom_bond_atom_site_label_1
_geom_bond_atom_site_label_2
_geom_bond_distance
_geom_bond_site_symmetry_2
_ccdc_geom_bond_type
Sc0 O3 2.026 . S
Sc0 O10 2.105 . S
Sc0 O13 2.105 . S
Sc0 O16 2.105 . S
Sc0 O19 2.105 . S
Sc1 O3 2.025 1_556 S
Sc1 O11 2.105 1_556 S
Sc1 O15 2.105 . S
Sc1 O17 2.105 1_556 S
Sc1 O21 2.105 . S
Sc2 O3 2.025 1_556 S
Sc2 O12 2.105 . S
Sc2 O14 2.105 . S
Sc2 O18 2.105 . S
Sc2 O20 2.105 . S
O3 Sc0 2.026 . S
O3 Sc1 2.025 1_554 S
O3 Sc2 2.025 1_554 S
C4 O10 1.270 . S
C4 O20 1.266 1_554 S
C5 O11 1.268 . S
C5 O19 1.268 . S
C6 O12 1.268 . S
C6 O21 1.268 . S
C7 O13 1.268 . S
C7 O17 1.268 . S
C8 O14 1.266 1_554 S
C8 O16 1.270 . S
C9 O15 1.268 . S
C9 O18 1.268 . S
O10 Sc0 2.105 . S
O10 C4 1.270 . S
O11 Sc1 2.105 1_554 S
O11 C5 1.268 . S
O12 Sc2 2.105 . S
O12 C6 1.268 . S
O13 Sc0 2.105 . S
O13 C7 1.268 . S
O14 Sc2 2.105 . S
O14 C8 1.266 1_556 S
O15 Sc1 2.105 . S
O15 C9 1.268 . S
O16 Sc0 2.105 . S
O16 C8 1.270 . S
O17 Sc1 2.105 1_554 S
O17 C7 1.268 . S
O18 Sc2 2.105 . S
O18 C9 1.268 . S
O19 Sc0 2.105 . S
O19 C5 1.268 . S
O20 Sc2 2.105 . S
O20 C4 1.266 1_556 S
O21 Sc1 2.105 . S
O21 C6 1.268 . S
Sc22 O25 2.025 . S
Sc22 O32 2.105 . S
Sc22 O35 2.105 . S
Sc22 O38 2.105 . S
Sc22 O41 2.105 . S
Sc23 O25 2.025 . S
Sc23 O33 2.105 . S
Sc23 O37 2.105 . S
Sc23 O39 2.105 . S
Sc23 O43 2.105 . S
Sc24 O25 2.025 . S
Sc24 O34 2.105 . S
Sc24 O36 2.105 . S
Sc24 O40 2.105 . S
Sc24 O42 2.105 . S
O25 Sc22 2.025 . S
O25 Sc23 2.025 . S
O25 Sc24 2.025 . S
C26 O32 1.268 . S
C26 O42 1.268 . S
C27 O33 1.268 . S
C27 O41 1.268 . S
C28 O34 1.268 . S
C28 O43 1.268 . S
C29 O35 1.268 . S
C29 O39 1.268 . S
C30 O36 1.268 . S
C30 O38 1.268 . S
C31 O37 1.268 . S
C31 O40 1.268 . S
O32 Sc22 2.105 . S
O32 C26 1.268 . S
O33 Sc23 2.105 . S
O33 C27 1.268 . S
O34 Sc24 2.105 . S
O34 C28 1.268 . S
O35 Sc22 2.105 . S
O35 C29 1.268 . S
O36 Sc24 2.105 . S
O36 C30 1.268 . S
O37 Sc23 2.105 . S
O37 C31 1.268 . S
O38 Sc22 2.105 . S
O38 C30 1.268 . S
O39 Sc23 2.105 . S
O39 C29 1.268 . S
O40 Sc24 2.105 . S
O40 C31 1.268 . S
O41 Sc22 2.105 . S
O41 C27 1.268 . S
O42 Sc24 2.105 . S
O42 C26 1.268 . S
O43 Sc23 2.105 . S
O43 C28 1.268 . S
Sc44 O47 2.022 1_556 S
Sc44 O54 2.105 . S
Sc44 O57 2.105 . S
Sc44 O60 2.105 . S
Sc44 O63 2.105 . S
Sc45 O47 2.025 . S
Sc45 O55 2.101 1_554 S
Sc45 O59 2.109 . S
Sc45 O61 2.101 1_554 S
Sc45 O65 2.109 . S
Sc46 O47 2.029 . S
Sc46 O56 2.105 . S
Sc46 O58 2.105 . S
Sc46 O62 2.105 . S
Sc46 O64 2.105 . S
O47 Sc44 2.022 1_554 S
O47 Sc45 2.025 . S
O47 Sc46 2.029 . S
C48 O54 1.266 1_554 S
C48 O64 1.270 . S
C49 O55 1.268 . S
C49 O63 1.268 . S
C50 O56 1.268 . S
C50 O65 1.268 . S
C51 O57 1.268 . S
C51 O61 1.268 . S
C52 O58 1.270 . S
C52 O60 1.266 1_554 S
C53 O59 1.268 . S
C53 O62 1.268 . S
O54 Sc44 2.105 . S
O54 C48 1.266 1_556 S
O55 Sc45 2.101 1_556 S
O55 C49 1.268 . S
O56 Sc46 2.105 . S
O56 C50 1.268 . S
O57 Sc44 2.105 . S
O57 C51 1.268 . S
O58 Sc46 2.105 . S
O58 C52 1.270 . S
O59 Sc45 2.109 . S
O59 C53 1.268 . S
O60 Sc44 2.105 . S
O60 C52 1.266 1_556 S
O61 Sc45 2.101 1_556 S
O61 C51 1.268 . S
O62 Sc46 2.105 . S
O62 C53 1.268 . S
O63 Sc44 2.105 . S
O63 C49 1.268 . S
O64 Sc46 2.105 . S
O64 C48 1.270 . S
O65 Sc45 2.109 . S
O65 C50 1.268 . S
Sc66 O69 2.025 . S
Sc66 O76 2.105 . S
Sc66 O79 2.105 . S
Sc66 O82 2.105 . S
Sc66 O85 2.105 . S
Sc67 O69 2.025 . S
Sc67 O77 2.105 . S
Sc67 O81 2.105 . S
Sc67 O83 2.105 . S
Sc67 O87 2.105 . S
Sc68 O69 2.025 . S
Sc68 O78 2.105 . S
Sc68 O80 2.105 . S
Sc68 O84 2.105 . S
Sc68 O86 2.105 . S
O69 Sc66 2.025 . S
O69 Sc67 2.025 . S
O69 Sc68 2.025 . S
C70 O76 1.268 . S
C70 O86 1.268 . S
C71 O77 1.268 . S
C71 O85 1.268 . S
C72 O78 1.268 . S
C72 O87 1.268 . S
C73 O79 1.268 . S
C73 O83 1.268 . S
C74 O80 1.268 . S
C74 O82 1.268 . S
C75 O81 1.268 . S
C75 O84 1.268 . S
O76 Sc66 2.105 . S
O76 C70 1.268 . S
O77 Sc67 2.105 . S
O77 C71 1.268 . S
O78 Sc68 2.105 . S
O78 C72 1.268 . S
O79 Sc66 2.105 . S
O79 C73 1.268 . S
O80 Sc68 2.105 . S
O80 C74 1.268 . S
O81 Sc67 2.105 . S
O81 C75 1.268 . S
O82 Sc66 2.105 . S
O82 C74 1.268 . S
O83 Sc67 2.105 . S
O83 C73 1.268 . S
O84 Sc68 2.105 . S
O84 C75 1.268 . S
O85 Sc66 2.105 . S
O85 C71 1.268 . S
O86 Sc68 2.105 . S
O86 C70 1.268 . S
O87 Sc67 2.105 . S
O87 C72 1.268 . S
C88 N89 1.317 . S
C88 N90 1.348 . S
C88 C91 1.485 . S
N89 C88 1.317 . S
N89 N93 1.370 1_556 S
N90 C88 1.348 . S
N90 C92 1.346 1_556 S
C91 C88 1.485 . S
C91 H95 0.960 . S
C91 H96 0.961 . S
C91 H97 0.960 . S
C92 N90 1.346 1_554 S
C92 N93 1.307 . S
C92 C94 1.486 . S
N93 N89 1.370 1_554 S
N93 C92 1.307 . S
C94 C92 1.486 . S
C94 H98 0.960 . S
C94 H99 0.960 . S
C94 H100 0.959 . S
H95 C91 0.960 . S
H96 C91 0.961 . S
H97 C91 0.960 . S
H98 C94 0.960 . S
H99 C94 0.960 . S
H100 C94 0.959 . S
C101 N102 1.317 1_455 S
C101 N103 1.348 . S
C101 C104 1.485 . S
N102 C101 1.317 1_655 S
N102 N106 1.370 . S
N103 C101 1.348 . S
N103 C105 1.346 . S
C104 C101 1.485 . S
C104 H108 0.960 . S
C104 H109 0.961 . S
C104 H110 0.960 1_455 S
C105 N103 1.346 . S
C105 N106 1.307 1_455 S
C105 C107 1.486 . S
N106 N102 1.370 . S
N106 C105 1.307 1_655 S
C107 C105 1.486 . S
C107 H111 0.960 . S
C107 H112 0.960 . S
C107 H113 0.959 . S
H108 C104 0.960 . S
H109 C104 0.961 . S
H110 C104 0.960 1_655 S
H111 C107 0.960 . S
H112 C107 0.960 . S
H113 C107 0.959 . S
C114 N115 1.317 . S
C114 N116 1.348 . S
C114 C117 1.485 . S
N115 C114 1.317 . S
N115 N119 1.370 1_554 S
N116 C114 1.348 . S
N116 C118 1.346 1_554 S
C117 C114 1.485 . S
C117 H121 0.960 . S
C117 H122 0.961 . S
C117 H123 0.960 . S
C118 N116 1.346 1_556 S
C118 N119 1.307 . S
C118 C120 1.486 . S
N119 N115 1.370 1_556 S
N119 C118 1.307 . S
C120 C118 1.486 . S
C120 H124 0.960 . S
C120 H125 0.960 . S
C120 H126 0.959 . S
H121 C117 0.960 . S
H122 C117 0.961 . S
H123 C117 0.960 . S
H124 C120 0.960 . S
H125 C120 0.960 . S
H126 C120 0.959 . S
C127 N128 1.317 1_655 S
C127 N129 1.348 . S
C127 C130 1.485 . S
N128 C127 1.317 1_455 S
N128 N132 1.370 . S
N129 C127 1.348 . S
N129 C131 1.346 . S
C130 C127 1.485 . S
C130 H134 0.960 . S
C130 H135 0.961 . S
C130 H136 0.960 . S
C131 N129 1.346 . S
C131 N132 1.307 1_655 S
C131 C133 1.486 . S
N132 N128 1.370 . S
N132 C131 1.307 1_455 S
C133 C131 1.486 . S
C133 H137 0.960 . S
C133 H138 0.960 . S
C133 H139 0.959 1_655 S
H134 C130 0.960 . S
H135 C130 0.961 . S
H136 C130 0.960 . S
H137 C133 0.960 . S
H138 C133 0.960 . S
H139 C133 0.959 1_455 S
C140 N141 1.317 1_545 S
C140 N142 1.348 . S
C140 C143 1.485 . S
N141 C140 1.317 1_565 S
N141 N145 1.370 . S
N142 C140 1.348 . S
N142 C144 1.346 . S
C143 C140 1.485 . S
C143 H147 0.960 . S
C143 H148 0.961 . S
C143 H149 0.960 . S
C144 N142 1.346 . S
C144 N145 1.307 1_545 S
C144 C146 1.486 . S
N145 N141 1.370 . S
N145 C144 1.307 1_565 S
C146 C144 1.486 . S
C146 H150 0.960 . S
C146 H151 0.960 . S
C146 H152 0.959 1_545 S
H147 C143 0.960 . S
H148 C143 0.961 . S
H149 C143 0.960 . S
H150 C146 0.960 . S
H151 C146 0.960 . S
H152 C146 0.959 1_565 S
C153 N154 1.317 . S
C153 N155 1.348 . S
C153 C156 1.485 . S
N154 C153 1.317 . S
N154 N158 1.370 1_556 S
N155 C153 1.348 . S
N155 C157 1.346 1_556 S
C156 C153 1.485 . S
C156 H160 0.960 . S
C156 H161 0.961 . S
C156 H162 0.960 . S
C157 N155 1.346 1_554 S
C157 N158 1.307 . S
C157 C159 1.486 . S
N158 N154 1.370 1_554 S
N158 C157 1.307 . S
C159 C157 1.486 . S
C159 H163 0.960 . S
C159 H164 0.960 . S
C159 H165 0.959 . S
H160 C156 0.960 . S
H161 C156 0.961 . S
H162 C156 0.960 . S
H163 C159 0.960 . S
H164 C159 0.960 . S
H165 C159 0.959 . S
C166 N167 1.317 1_565 S
C166 N168 1.348 . S
C166 C169 1.485 . S
N167 C166 1.317 1_545 S
N167 N171 1.370 . S
N168 C166 1.348 . S
N168 C170 1.346 . S
C169 C166 1.485 . S
C169 H173 0.960 . S
C169 H174 0.961 . S
C169 H175 0.960 1_565 S
C170 N168 1.346 . S
C170 N171 1.307 1_565 S
C170 C172 1.486 . S
N171 N167 1.370 . S
N171 C170 1.307 1_545 S
C172 C170 1.486 . S
C172 H176 0.960 . S
C172 H177 0.960 . S
C172 H178 0.959 . S
H173 C169 0.960 . S
H174 C169 0.961 . S
H175 C169 0.960 1_545 S
H176 C172 0.960 . S
H177 C172 0.960 . S
H178 C172 0.959 . S
C179 N180 1.317 . S
C179 N181 1.348 . S
C179 C182 1.485 . S
N180 C179 1.317 . S
N180 N184 1.370 1_554 S
N181 C179 1.348 . S
N181 C183 1.346 1_554 S
C182 C179 1.485 . S
C182 H186 0.960 . S
C182 H187 0.961 . S
C182 H188 0.960 . S
C183 N181 1.346 1_556 S
C183 N184 1.307 . S
C183 C185 1.486 . S
N184 N180 1.370 1_556 S
N184 C183 1.307 . S
C185 C183 1.486 . S
C185 H189 0.960 . S
C185 H190 0.960 . S
C185 H191 0.959 . S
H186 C182 0.960 . S
H187 C182 0.961 . S
H188 C182 0.960 . S
H189 C185 0.960 . S
H190 C185 0.960 . S
H191 C185 0.959 . S
C5 N128 1.465 . S
C31 N89 1.466 . S
N106 C53 1.493 . S
C71 N119 1.492 . S
N158 C75 1.492 . S
N171 C9 1.493 . S
N180 C27 1.467 . S
N141 C49 1.465 . S
C51 N102 1.505 . S
C72 N115 1.507 . S
C6 N132 1.486 . S
N93 C29 1.485 . S
C28 N184 1.485 . S
N145 C50 1.486 . S
N154 C73 1.507 . S
C7 N167 1.506 . S
N90 C4 1.508 1_556 S
N103 C30 1.535 . S
C52 N116 1.535 . S
C70 N129 1.508 . S
N142 C74 1.508 . S
C8 N155 1.535 1_554 S
C26 N168 1.535 . S
C48 N181 1.508 . S
