# Generated by pormake.
# Topology pyr, (3,6)-cn, num edge types: 1
# Building blocks:
#     Node 0, Type 0, BuildingBlock: CUQRIR_clean_linker_1, # of connection points: 3
#     Node 1, Type 0, BuildingBlock: CUQRIR_clean_linker_1, # of connection points: 3
#     Node 2, Type 0, BuildingBlock: CUQRIR_clean_linker_1, # of connection points: 3
#     Node 3, Type 0, BuildingBlock: CUQRIR_clean_linker_1, # of connection points: 3
#     Node 4, Type 0, BuildingBlock: CUQRIR_clean_linker_1, # of connection points: 3
#     Node 5, Type 0, BuildingBlock: CUQRIR_clean_linker_1, # of connection points: 3
#     Node 6, Type 0, BuildingBlock: CUQRIR_clean_linker_1, # of connection points: 3
#     Node 7, Type 0, BuildingBlock: CUQRIR_clean_linker_1, # of connection points: 3
#     Node 8, Type 1, BuildingBlock: VOLQOD_clean_sbu_1, # of connection points: 6
#     Node 9, Type 1, BuildingBlock: VOLQOD_clean_sbu_1, # of connection points: 6
#     Node 10, Type 1, BuildingBlock: VOLQOD_clean_sbu_1, # of connection points: 6
#     Node 11, Type 1, BuildingBlock: VOLQOD_clean_sbu_1, # of connection points: 6
#     Edge 12, Type (0, 1), None
#     Edge 13, Type (0, 1), None
#     Edge 14, Type (0, 1), None
#     Edge 15, Type (0, 1), None
#     Edge 16, Type (0, 1), None
#     Edge 17, Type (0, 1), None
#     Edge 18, Type (0, 1), None
#     Edge 19, Type (0, 1), None
#     Edge 20, Type (0, 1), None
#     Edge 21, Type (0, 1), None
#     Edge 22, Type (0, 1), None
#     Edge 23, Type (0, 1), None
#     Edge 24, Type (0, 1), None
#     Edge 25, Type (0, 1), None
#     Edge 26, Type (0, 1), None
#     Edge 27, Type (0, 1), None
#     Edge 28, Type (0, 1), None
#     Edge 29, Type (0, 1), None
#     Edge 30, Type (0, 1), None
#     Edge 31, Type (0, 1), None
#     Edge 32, Type (0, 1), None
#     Edge 33, Type (0, 1), None
#     Edge 34, Type (0, 1), None
#     Edge 35, Type (0, 1), None
# Relax obj value: 0.135
# Max RMSD: 0.207
# Mean RMSD: 0.163
data_MOF--net-pry--node1-VOLQOD_clean_sbu_1--node2-CUQRIR_clean_linker_1--edge1-none
_symmetry_space_group_name_H-M    P1
_symmetry_Int_Tables_number       1
_symmetry_cell_setting            triclinic
loop_
_symmetry_equiv_pos_as_xyz
'x, y, z'
_cell_length_a     14.433781
_cell_length_b     14.764037
_cell_length_c     13.705309
_cell_angle_alpha  87.381885
_cell_angle_beta   94.029765
_cell_angle_gamma 95.215094
loop_
_atom_site_label
_atom_site_type_symbol
_atom_site_fract_x
_atom_site_fract_y
_atom_site_fract_z
_atom_type_partial_charge
C0 C 0.13619 0.20523 0.22096 0.0
N1 N 0.19615 0.1395 0.23588 0.0
N2 N 0.12635 0.23205 0.12553 0.0
C3 C 0.0891 0.24482 0.30287 0.0
C4 C 0.18465 0.18087 0.08223 0.0
N5 N 0.22966 0.12621 0.1498 0.0
C6 C 0.18892 0.17657 0.97295 0.0
H7 H 0.01228 0.23148 0.29112 0.0
H8 H 0.10692 0.31953 0.30367 0.0
H9 H 0.11126 0.21583 0.37583 0.0
H10 H 0.24487 0.22646 0.94744 0.0
H11 H 0.12229 0.19296 0.93513 0.0
H12 H 0.20151 0.10743 0.95156 0.0
C13 C 0.41162 0.85904 0.60038 0.0
N14 N 0.39131 0.91389 0.67111 0.0
N15 N 0.48347 0.81049 0.63026 0.0
C16 C 0.35929 0.85134 0.50079 0.0
C17 C 0.51072 0.84089 0.72021 0.0
N18 N 0.45104 0.8996 0.74896 0.0
C19 C 0.60098 0.81917 0.77601 0.0
H20 H 0.29909 0.79928 0.50567 0.0
H21 H 0.40528 0.83059 0.4457 0.0
H22 H 0.33229 0.91694 0.47529 0.0
H23 H 0.65498 0.80742 0.72551 0.0
H24 H 0.58809 0.7572 0.8237 0.0
H25 H 0.63045 0.87642 0.82144 0.0
C26 C 0.52148 0.36856 0.93309 0.0
N27 N 0.59669 0.3401 0.98822 0.0
N28 N 0.53942 0.45294 0.89567 0.0
C29 C 0.42551 0.31837 0.91878 0.0
C30 C 0.61623 0.48253 0.94988 0.0
N31 N 0.65837 0.41366 0.99887 0.0
C32 C 0.64833 0.58155 0.95781 0.0
H33 H 0.42604 0.26471 0.86469 0.0
H34 H 0.37341 0.36584 0.89086 0.0
H35 H 0.40331 0.28681 0.98941 0.0
H36 H 0.58775 0.62307 0.94711 0.0
H37 H 0.69739 0.60346 0.90073 0.0
H38 H 0.68399 0.5928 0.03118 0.0
C39 C 0.91367 0.55422 0.42623 0.0
N40 N 0.9635 0.61856 0.3723 0.0
N41 N 0.8599 0.5911 0.48749 0.0
C42 C 0.92691 0.45416 0.4306 0.0
C43 C 0.88335 0.68093 0.47534 0.0
N44 N 0.94784 0.69905 0.40764 0.0
C45 C 0.83858 0.75267 0.52712 0.0
H46 H 0.87018 0.41718 0.38534 0.0
H47 H 0.92411 0.42812 0.50755 0.0
H48 H 0.99554 0.44121 0.4048 0.0
H49 H 0.84875 0.74018 0.6075 0.0
H50 H 0.76237 0.74714 0.5077 0.0
H51 H 0.86674 0.82306 0.50791 0.0
C52 C 0.84165 0.8369 0.95437 0.0
N53 N 0.90674 0.82352 0.89131 0.0
N54 N 0.83653 0.92621 0.96746 0.0
C55 C 0.79393 0.76301 1.01896 0.0
C56 C 0.90403 0.96824 0.91401 0.0
N57 N 0.94531 0.90586 0.86434 0.0
C58 C 0.92738 0.07004 0.90878 0.0
H59 H 0.82646 0.69781 1.0236 0.0
H60 H 0.72074 0.75037 0.98984 0.0
H61 H 0.79302 0.78665 0.09463 0.0
H62 H 0.91861 0.10038 0.97962 0.0
H63 H 0.88046 0.10122 0.85168 0.0
H64 H 1.00068 0.08717 0.89123 0.0
C65 C 0.73912 0.19415 0.50111 0.0
N66 N 0.75912 0.12089 0.45209 0.0
N67 N 0.64719 0.19309 0.51547 0.0
C68 C 0.81008 0.2668 0.53967 0.0
C69 C 0.61192 0.11427 0.47683 0.0
N70 N 0.67705 0.07547 0.4282 0.0
C71 C 0.50986 0.08114 0.47938 0.0
H72 H 0.82015 0.2557 0.61999 0.0
H73 H 0.78375 0.33478 0.52677 0.0
H74 H 0.8776 0.2654 0.50597 0.0
H75 H 0.46984 0.111 0.41558 0.0
H76 H 0.48132 0.10283 0.54685 0.0
H77 H 0.5004 0.00586 0.47806 0.0
C78 C 0.39552 0.56501 0.13229 0.0
N79 N 0.45764 0.61582 0.19152 0.0
N80 N 0.32862 0.6164 0.09133 0.0
C81 C 0.38999 0.46249 0.1302 0.0
C82 C 0.35628 0.70103 0.11781 0.0
N83 N 0.43154 0.70075 0.18115 0.0
C84 C 0.31623 0.78561 0.07016 0.0
H85 H 0.36488 0.43958 0.05645 0.0
H86 H 0.34041 0.43244 0.18367 0.0
H87 H 0.45923 0.43689 0.14853 0.0
H88 H 0.27093 0.8136 0.12142 0.0
H89 H 0.27498 0.77023 1.00055 0.0
H90 H 0.37176 0.83944 0.05237 0.0
C91 C 0.06763 0.35505 0.68208 0.0
N92 N 0.13497 0.32941 0.6266 0.0
N93 N 0.06574 0.44629 0.67989 0.0
C94 C 0.0153 0.29167 0.75482 0.0
C95 C 0.13547 0.47614 0.62196 0.0
N96 N 0.17999 0.40576 0.59035 0.0
C97 C 0.16418 0.57649 0.60567 0.0
H98 H 0.95539 0.25341 0.71604 0.0
H99 H 0.98734 0.32638 0.81471 0.0
H100 H 0.06185 0.24202 0.78904 0.0
H101 H 0.23325 0.59422 0.64421 0.0
H102 H 0.11285 0.61896 0.63342 0.0
H103 H 0.1687 0.5933 0.52629 0.0
O104 O 0.07317 0.18396 0.6276 0.0
Zn105 Zn 0.01073 0.06453 0.6126 0.0
O106 O 0.08031 -0.00226 0.5359 0.0
Zn107 Zn 0.00885 0.98051 0.4095 0.0
Zn108 Zn 0.2018 0.07572 0.52469 0.0
Zn109 Zn 0.09745 0.8816 0.60684 0.0
O110 O 0.9888 0.84669 0.37743 0.0
O111 O 0.05484 0.77778 0.50763 0.0
O112 O 0.8888 0.09388 0.54869 0.0
O113 O 0.8756 0.03605 0.40221 0.0
O114 O 0.09427 0.04387 0.31329 0.0
O115 O 0.23636 0.07648 0.38327 0.0
O116 O 0.30156 0.02394 0.61928 0.0
O117 O 0.9901 0.00582 0.74236 0.0
O118 O 0.23546 0.88756 0.65927 0.0
O119 O 0.02003 0.86305 0.73139 0.0
C120 C 0.13945 0.24031 0.60349 0.0
C121 C 0.01048 0.77323 0.42239 0.0
C122 C 0.17989 0.07443 0.30725 0.0
C123 C 0.84261 0.0817 0.46734 0.0
C124 C 0.30624 0.94712 0.66541 0.0
C125 C 0.98981 0.92541 0.77936 0.0
O126 O 0.20096 0.21375 0.55234 0.0
O127 O 0.53572 0.19394 0.98676 0.0
Zn128 Zn 0.46568 0.0724 0.9954 0.0
O129 O 0.54451 0.01382 0.09213 0.0
Zn130 Zn 0.56323 0.90099 0.04234 0.0
Zn131 Zn 0.66963 0.087 0.11907 0.0
Zn132 Zn 0.47815 0.98193 0.20784 0.0
O133 O 0.55259 0.7929 0.1374 0.0
O134 O 0.44757 0.8464 0.22146 0.0
O135 O 0.44009 0.01244 0.85886 0.0
O136 O 0.49144 0.88124 0.9114 0.0
O137 O 0.68974 0.90949 1.01061 0.0
O138 O 0.77135 0.03891 0.0438 0.0
O139 O 0.70413 0.07527 0.26629 0.0
O140 O 0.34392 0.09332 0.05261 0.0
O141 O 0.56878 0.01464 0.31734 0.0
O142 O 0.35514 0.04713 0.20852 0.0
C143 C 0.6026 0.25043 1.01676 0.0
C144 C 0.48686 0.77865 0.19416 0.0
C145 C 0.76492 0.96 1.00905 0.0
C146 C 0.45464 0.93059 0.84268 0.0
C147 C 0.65256 0.04746 0.33575 0.0
C148 C 0.30964 0.08474 0.1363 0.0
O149 O 0.66629 0.22393 0.07757 0.0
O150 O 0.58919 0.52856 0.75847 0.0
Zn151 Zn 0.60639 0.56849 0.6213 0.0
O152 O 0.52226 0.49386 0.53383 0.0
Zn153 Zn 0.59121 0.46218 0.42679 0.0
Zn154 Zn 0.46773 0.38515 0.60196 0.0
Zn155 Zn 0.42215 0.56308 0.48994 0.0
O156 O 0.53731 0.51742 0.29478 0.0
O157 O 0.43396 0.60102 0.35153 0.0
O158 O 0.73975 0.57812 0.58711 0.0
O159 O 0.72219 0.51579 0.44242 0.0
O160 O 0.61432 0.32945 0.44411 0.0
O161 O 0.54276 0.27854 0.57782 0.0
O162 O 0.32584 0.35726 0.58004 0.0
O163 O 0.57445 0.69441 0.62193 0.0
O164 O 0.29846 0.49476 0.52203 0.0
O165 O 0.43198 0.68189 0.55225 0.0
C166 C 0.53248 0.4686 0.79685 0.0
C167 C 0.48117 0.58025 0.28236 0.0
C168 C 0.59922 0.26865 0.5121 0.0
C169 C 0.77345 0.55603 0.50921 0.0
C170 C 0.26841 0.41663 0.55694 0.0
C171 C 0.49873 0.72842 0.59704 0.0
O172 O 0.48293 0.41143 0.74381 0.0
O173 O 0.95564 0.52141 0.24464 0.0
Zn174 Zn 0.94213 0.44575 0.12026 0.0
O175 O 0.99609 0.52474 1.019 0.0
Zn176 Zn 0.91579 0.53746 0.90352 0.0
Zn177 Zn 0.04312 0.64197 0.07143 0.0
Zn178 Zn 0.09813 0.46848 0.96929 0.0
O179 O 0.96174 0.48704 0.78245 0.0
O180 O 0.11123 0.49741 0.82759 0.0
O181 O 0.80086 0.40062 0.08454 0.0
O182 O 0.79431 0.46856 0.93701 0.0
O183 O 0.90479 0.67289 0.87415 0.0
O184 O 0.01074 0.74345 0.97564 0.0
O185 O 0.17768 0.64309 0.07599 0.0
O186 O 0.02398 0.34005 0.13955 0.0
O187 O 0.21819 0.51185 0.03014 0.0
O188 O 0.09491 0.33591 1.00212 0.0
C189 C 0.98008 0.60143 0.27631 0.0
C190 C 0.04618 0.48811 0.76087 0.0
C191 C 0.95069 0.74626 0.90302 0.0
C192 C 0.75437 0.41901 1.0041 0.0
C193 C 0.23955 0.58987 0.06259 0.0
C194 C 0.07771 0.3021 0.08653 0.0
O195 O 0.01025 0.66424 0.21617 0.0
loop_
_geom_bond_atom_site_label_1
_geom_bond_atom_site_label_2
_geom_bond_distance
_geom_bond_site_symmetry_2
_ccdc_geom_bond_type
C0 N1 1.317 . S
C0 N2 1.348 . S
C0 C3 1.485 . S
N1 C0 1.317 . S
N1 N5 1.370 . S
N2 C0 1.348 . S
N2 C4 1.346 . S
C3 C0 1.485 . S
C3 H7 0.960 1_455 S
C3 H8 0.961 . S
C3 H9 0.960 . S
C4 N2 1.346 . S
C4 N5 1.307 . S
C4 C6 1.486 . S
N5 N1 1.370 . S
N5 C4 1.307 . S
C6 C4 1.486 . S
C6 H10 0.960 . S
C6 H11 0.960 1_554 S
C6 H12 0.959 1_554 S
H7 C3 0.960 1_655 S
H8 C3 0.961 . S
H9 C3 0.960 . S
H10 C6 0.960 . S
H11 C6 0.960 1_556 S
H12 C6 0.959 1_556 S
C13 N14 1.317 . S
C13 N15 1.348 . S
C13 C16 1.485 . S
N14 C13 1.317 . S
N14 N18 1.370 . S
N15 C13 1.348 . S
N15 C17 1.346 . S
C16 C13 1.485 . S
C16 H20 0.960 . S
C16 H21 0.961 . S
C16 H22 0.960 . S
C17 N15 1.346 . S
C17 N18 1.307 . S
C17 C19 1.486 . S
N18 N14 1.370 . S
N18 C17 1.307 . S
C19 C17 1.486 . S
C19 H23 0.960 . S
C19 H24 0.960 . S
C19 H25 0.959 . S
H20 C16 0.960 . S
H21 C16 0.961 . S
H22 C16 0.960 . S
H23 C19 0.960 . S
H24 C19 0.960 . S
H25 C19 0.959 . S
C26 N27 1.317 . S
C26 N28 1.348 . S
C26 C29 1.485 . S
N27 C26 1.317 . S
N27 N31 1.370 . S
N28 C26 1.348 . S
N28 C30 1.346 . S
C29 C26 1.485 . S
C29 H33 0.960 . S
C29 H34 0.961 . S
C29 H35 0.960 . S
C30 N28 1.346 . S
C30 N31 1.307 . S
C30 C32 1.486 . S
N31 N27 1.370 . S
N31 C30 1.307 . S
C32 C30 1.486 . S
C32 H36 0.960 . S
C32 H37 0.960 . S
C32 H38 0.959 . S
H33 C29 0.960 . S
H34 C29 0.961 . S
H35 C29 0.960 . S
H36 C32 0.960 . S
H37 C32 0.960 . S
H38 C32 0.959 . S
C39 N40 1.317 . S
C39 N41 1.348 . S
C39 C42 1.485 . S
N40 C39 1.317 . S
N40 N44 1.370 . S
N41 C39 1.348 . S
N41 C43 1.346 . S
C42 C39 1.485 . S
C42 H46 0.960 . S
C42 H47 0.961 . S
C42 H48 0.960 . S
C43 N41 1.346 . S
C43 N44 1.307 . S
C43 C45 1.486 . S
N44 N40 1.370 . S
N44 C43 1.307 . S
C45 C43 1.486 . S
C45 H49 0.960 . S
C45 H50 0.960 . S
C45 H51 0.959 . S
H46 C42 0.960 . S
H47 C42 0.961 . S
H48 C42 0.960 . S
H49 C45 0.960 . S
H50 C45 0.960 . S
H51 C45 0.959 . S
C52 N53 1.317 1_554 S
C52 N54 1.348 1_554 S
C52 C55 1.485 . S
N53 C52 1.317 1_556 S
N53 N57 1.370 . S
N54 C52 1.348 1_556 S
N54 C56 1.346 1_565 S
C55 C52 1.485 . S
C55 H59 0.960 . S
C55 H60 0.961 . S
C55 H61 0.960 . S
C56 N54 1.346 1_545 S
C56 N57 1.307 1_545 S
C56 C58 1.486 . S
N57 N53 1.370 . S
N57 C56 1.307 1_565 S
C58 C56 1.486 . S
C58 H62 0.960 . S
C58 H63 0.960 . S
C58 H64 0.959 . S
H59 C55 0.960 . S
H60 C55 0.961 . S
H61 C55 0.960 . S
H62 C58 0.960 . S
H63 C58 0.960 . S
H64 C58 0.959 . S
C65 N66 1.317 . S
C65 N67 1.348 . S
C65 C68 1.485 . S
N66 C65 1.317 . S
N66 N70 1.370 . S
N67 C65 1.348 . S
N67 C69 1.346 . S
C68 C65 1.485 . S
C68 H72 0.960 . S
C68 H73 0.961 . S
C68 H74 0.960 . S
C69 N67 1.346 . S
C69 N70 1.307 . S
C69 C71 1.486 . S
N70 N66 1.370 . S
N70 C69 1.307 . S
C71 C69 1.486 . S
C71 H75 0.960 . S
C71 H76 0.960 . S
C71 H77 0.959 . S
H72 C68 0.960 . S
H73 C68 0.961 . S
H74 C68 0.960 . S
H75 C71 0.960 . S
H76 C71 0.960 . S
H77 C71 0.959 . S
C78 N79 1.317 . S
C78 N80 1.348 . S
C78 C81 1.485 . S
N79 C78 1.317 . S
N79 N83 1.370 . S
N80 C78 1.348 . S
N80 C82 1.346 . S
C81 C78 1.485 . S
C81 H85 0.960 . S
C81 H86 0.961 . S
C81 H87 0.960 . S
C82 N80 1.346 . S
C82 N83 1.307 . S
C82 C84 1.486 1_554 S
N83 N79 1.370 . S
N83 C82 1.307 . S
C84 C82 1.486 1_556 S
C84 H88 0.960 . S
C84 H89 0.960 . S
C84 H90 0.959 . S
H85 C81 0.960 . S
H86 C81 0.961 . S
H87 C81 0.960 . S
H88 C84 0.960 . S
H89 C84 0.960 . S
H90 C84 0.959 . S
C91 N92 1.317 . S
C91 N93 1.348 . S
C91 C94 1.485 1_455 S
N92 C91 1.317 . S
N92 N96 1.370 . S
N93 C91 1.348 . S
N93 C95 1.346 . S
C94 C91 1.485 1_655 S
C94 H98 0.960 . S
C94 H99 0.961 . S
C94 H100 0.960 . S
C95 N93 1.346 . S
C95 N96 1.307 . S
C95 C97 1.486 . S
N96 N92 1.370 . S
N96 C95 1.307 . S
C97 C95 1.486 . S
C97 H101 0.960 . S
C97 H102 0.960 . S
C97 H103 0.959 . S
H98 C94 0.960 . S
H99 C94 0.961 . S
H100 C94 0.960 . S
H101 C97 0.960 . S
H102 C97 0.960 . S
H103 C97 0.959 . S
O104 Zn105 1.953 1_455 S
O104 C120 1.225 . S
Zn105 O104 1.953 1_655 S
Zn105 O106 1.949 1_655 S
Zn105 O112 1.919 . S
Zn105 O117 1.924 . S
O106 Zn105 1.949 1_455 S
O106 Zn107 1.923 1_545 S
O106 Zn108 1.950 . S
O106 Zn109 1.945 1_545 S
Zn107 O106 1.923 1_565 S
Zn107 O110 1.933 1_455 S
Zn107 O113 1.941 1_465 S
Zn107 O114 1.965 1_565 S
Zn108 O106 1.950 . S
Zn108 O115 1.938 . S
Zn108 O116 1.906 1_545 S
Zn108 O126 1.953 . S
Zn109 O106 1.945 1_565 S
Zn109 O111 1.932 . S
Zn109 O118 1.977 . S
Zn109 O119 1.910 . S
O110 Zn107 1.933 1_655 S
O110 C121 1.226 . S
O111 Zn109 1.932 . S
O111 C121 1.307 1_455 S
O112 Zn105 1.919 . S
O112 C123 1.253 . S
O113 Zn107 1.941 1_645 S
O113 C123 1.283 . S
O114 Zn107 1.965 1_545 S
O114 C122 1.303 . S
O115 Zn108 1.938 . S
O115 C122 1.247 . S
O116 Zn108 1.906 1_565 S
O116 C124 1.304 . S
O117 Zn105 1.924 . S
O117 C125 1.311 1_545 S
O118 Zn109 1.977 . S
O118 C124 1.272 . S
O119 Zn109 1.910 . S
O119 C125 1.231 1_455 S
C120 O104 1.225 . S
C120 O126 1.298 . S
C121 O110 1.226 . S
C121 O111 1.307 1_655 S
C122 O114 1.303 . S
C122 O115 1.247 . S
C123 O112 1.253 . S
C123 O113 1.283 . S
C124 O116 1.304 . S
C124 O118 1.272 . S
C125 O117 1.311 1_565 S
C125 O119 1.231 1_655 S
O126 Zn108 1.953 . S
O126 C120 1.298 . S
O127 Zn128 1.953 . S
O127 C143 1.225 . S
Zn128 O127 1.953 . S
Zn128 O129 1.949 1_556 S
Zn128 O135 1.919 . S
Zn128 O140 1.924 1_556 S
O129 Zn128 1.949 1_554 S
O129 Zn130 1.923 1_545 S
O129 Zn131 1.950 . S
O129 Zn132 1.945 1_545 S
Zn130 O129 1.923 1_565 S
Zn130 O133 1.933 . S
Zn130 O136 1.941 1_554 S
Zn130 O137 1.965 . S
Zn131 O129 1.950 . S
Zn131 O138 1.938 . S
Zn131 O139 1.906 . S
Zn131 O149 1.953 . S
Zn132 O129 1.945 1_565 S
Zn132 O134 1.932 . S
Zn132 O141 1.977 1_565 S
Zn132 O142 1.910 1_565 S
O133 Zn130 1.933 . S
O133 C144 1.226 . S
O134 Zn132 1.932 . S
O134 C144 1.307 . S
O135 Zn128 1.919 . S
O135 C146 1.253 1_545 S
O136 Zn130 1.941 1_556 S
O136 C146 1.283 . S
O137 Zn130 1.965 . S
O137 C145 1.303 . S
O138 Zn131 1.938 . S
O138 C145 1.247 1_545 S
O139 Zn131 1.906 . S
O139 C147 1.304 . S
O140 Zn128 1.924 1_554 S
O140 C148 1.311 . S
O141 Zn132 1.977 1_545 S
O141 C147 1.272 . S
O142 Zn132 1.910 1_545 S
O142 C148 1.231 . S
C143 O127 1.225 . S
C143 O149 1.298 1_556 S
C144 O133 1.226 . S
C144 O134 1.307 . S
C145 O137 1.303 . S
C145 O138 1.247 1_565 S
C146 O135 1.253 1_565 S
C146 O136 1.283 . S
C147 O139 1.304 . S
C147 O141 1.272 . S
C148 O140 1.311 . S
C148 O142 1.231 . S
O149 Zn131 1.953 . S
O149 C143 1.298 1_554 S
O150 Zn151 1.953 . S
O150 C166 1.225 . S
Zn151 O150 1.953 . S
Zn151 O152 1.949 . S
Zn151 O158 1.919 . S
Zn151 O163 1.924 . S
O152 Zn151 1.949 . S
O152 Zn153 1.923 . S
O152 Zn154 1.950 . S
O152 Zn155 1.945 . S
Zn153 O152 1.923 . S
Zn153 O156 1.933 . S
Zn153 O159 1.941 . S
Zn153 O160 1.965 . S
Zn154 O152 1.950 . S
Zn154 O161 1.938 . S
Zn154 O162 1.906 . S
Zn154 O172 1.953 . S
Zn155 O152 1.945 . S
Zn155 O157 1.932 . S
Zn155 O164 1.977 . S
Zn155 O165 1.910 . S
O156 Zn153 1.933 . S
O156 C167 1.226 . S
O157 Zn155 1.932 . S
O157 C167 1.307 . S
O158 Zn151 1.919 . S
O158 C169 1.253 . S
O159 Zn153 1.941 . S
O159 C169 1.283 . S
O160 Zn153 1.965 . S
O160 C168 1.303 . S
O161 Zn154 1.938 . S
O161 C168 1.247 . S
O162 Zn154 1.906 . S
O162 C170 1.304 . S
O163 Zn151 1.924 . S
O163 C171 1.311 . S
O164 Zn155 1.977 . S
O164 C170 1.272 . S
O165 Zn155 1.910 . S
O165 C171 1.231 . S
C166 O150 1.225 . S
C166 O172 1.298 . S
C167 O156 1.226 . S
C167 O157 1.307 . S
C168 O160 1.303 . S
C168 O161 1.247 . S
C169 O158 1.253 . S
C169 O159 1.283 . S
C170 O162 1.304 . S
C170 O164 1.272 . S
C171 O163 1.311 . S
C171 O165 1.231 . S
O172 Zn154 1.953 . S
O172 C166 1.298 . S
O173 Zn174 1.953 . S
O173 C189 1.225 . S
Zn174 O173 1.953 . S
Zn174 O175 1.949 1_655 S
Zn174 O181 1.919 . S
Zn174 O186 1.924 . S
O175 Zn174 1.949 1_455 S
O175 Zn176 1.923 1_454 S
O175 Zn177 1.950 . S
O175 Zn178 1.945 1_554 S
Zn176 O175 1.923 1_656 S
Zn176 O179 1.933 1_655 S
Zn176 O182 1.941 . S
Zn176 O183 1.965 . S
Zn177 O175 1.950 . S
Zn177 O184 1.938 . S
Zn177 O185 1.906 . S
Zn177 O195 1.953 . S
Zn178 O175 1.945 1_556 S
Zn178 O180 1.932 . S
Zn178 O187 1.977 1_556 S
Zn178 O188 1.910 1_556 S
O179 Zn176 1.933 1_455 S
O179 C190 1.226 . S
O180 Zn178 1.932 . S
O180 C190 1.307 . S
O181 Zn174 1.919 . S
O181 C192 1.253 1_554 S
O182 Zn176 1.941 . S
O182 C192 1.283 . S
O183 Zn176 1.965 . S
O183 C191 1.303 . S
O184 Zn177 1.938 . S
O184 C191 1.247 1_454 S
O185 Zn177 1.906 . S
O185 C193 1.304 . S
O186 Zn174 1.924 . S
O186 C194 1.311 1_655 S
O187 Zn178 1.977 1_554 S
O187 C193 1.272 . S
O188 Zn178 1.910 1_554 S
O188 C194 1.231 . S
C189 O173 1.225 . S
C189 O195 1.298 1_655 S
C190 O179 1.226 . S
C190 O180 1.307 . S
C191 O183 1.303 . S
C191 O184 1.247 1_656 S
C192 O181 1.253 1_556 S
C192 O182 1.283 . S
C193 O185 1.304 . S
C193 O187 1.272 . S
C194 O186 1.311 1_455 S
C194 O188 1.231 . S
O195 Zn177 1.953 . S
O195 C189 1.298 1_455 S
N1 C122 1.512 . S
N18 C146 1.850 . S
C166 N28 1.114 . S
N40 C189 1.615 . S
C148 N5 1.964 . S
C124 N14 1.749 . S
C192 N31 1.600 . S
C169 N41 1.273 . S
N2 C194 1.565 . S
C143 N27 1.667 . S
N44 C121 1.698 . S
N15 C171 1.289 . S
C125 N57 1.830 . S
N70 C147 1.358 . S
N79 C167 1.633 . S
N93 C190 1.526 . S
N54 C145 1.418 1_556 S
C123 N66 2.034 . S
C193 N80 1.108 . S
C170 N96 1.585 . S
N53 C191 1.770 . S
C144 N83 1.633 . S
C120 N92 1.725 . S
N67 C168 1.665 . S
