# Generated by pormake.
# Topology anh, (6,3)-cn, num edge types: 1
# Building blocks:
#     Node 0, Type 0, BuildingBlock: BETDAH_clean_sbu_0, # of connection points: 6
#     Node 1, Type 0, BuildingBlock: BETDAH_clean_sbu_0, # of connection points: 6
#     Node 2, Type 0, BuildingBlock: BETDAH_clean_sbu_0, # of connection points: 6
#     Node 3, Type 1, BuildingBlock: PAMTOO_clean_linker_0, # of connection points: 3
#     Node 4, Type 1, BuildingBlock: PAMTOO_clean_linker_0, # of connection points: 3
#     Node 5, Type 1, BuildingBlock: PAMTOO_clean_linker_0, # of connection points: 3
#     Node 6, Type 1, BuildingBlock: PAMTOO_clean_linker_0, # of connection points: 3
#     Node 7, Type 1, BuildingBlock: PAMTOO_clean_linker_0, # of connection points: 3
#     Node 8, Type 1, BuildingBlock: PAMTOO_clean_linker_0, # of connection points: 3
#     Edge 9, Type (0, 1), None
#     Edge 10, Type (0, 1), None
#     Edge 11, Type (0, 1), None
#     Edge 12, Type (0, 1), None
#     Edge 13, Type (0, 1), None
#     Edge 14, Type (0, 1), None
#     Edge 15, Type (0, 1), None
#     Edge 16, Type (0, 1), None
#     Edge 17, Type (0, 1), None
#     Edge 18, Type (0, 1), None
#     Edge 19, Type (0, 1), None
#     Edge 20, Type (0, 1), None
#     Edge 21, Type (0, 1), None
#     Edge 22, Type (0, 1), None
#     Edge 23, Type (0, 1), None
#     Edge 24, Type (0, 1), None
#     Edge 25, Type (0, 1), None
#     Edge 26, Type (0, 1), None
# Relax obj value: 0.412
# Max RMSD: 0.298
# Mean RMSD: 0.161
data_MOF--net-anh--node1-BETDAH_clean_sbu_0--node2-PAMTOO_clean_linker_0--edge1-none
_symmetry_space_group_name_H-M    P1
_symmetry_Int_Tables_number       1
_symmetry_cell_setting            triclinic
loop_
_symmetry_equiv_pos_as_xyz
'x, y, z'
_cell_length_a     14.1902
_cell_length_b     19.781787
_cell_length_c     22.092686
_cell_angle_alpha  85.974579
_cell_angle_beta   93.667741
_cell_angle_gamma 138.41255
loop_
_atom_site_label
_atom_site_type_symbol
_atom_site_fract_x
_atom_site_fract_y
_atom_site_fract_z
_atom_type_partial_charge
Ho0 Ho 0.45936 0.6369 0.14642 0.0
Ho1 Ho 0.28173 0.64406 0.18942 0.0
C2 C 0.59461 0.86075 0.15591 0.0
C3 C 0.57717 0.60695 0.09495 0.0
C4 C 0.4802 0.49883 0.082 0.0
C5 C 0.41934 0.46385 0.02385 0.0
C6 C 0.31112 0.3597 0.01268 0.0
C7 C 0.26482 0.2889 0.0595 0.0
C8 C 0.31368 0.32245 0.11901 0.0
C9 C 0.42195 0.42642 0.13003 0.0
C10 C 0.45314 0.63234 0.26897 0.0
C11 C 1.14649 0.41985 0.17989 0.0
C12 C 1.1111 0.61926 0.25371 0.0
C13 C 0.9566 0.54379 0.24955 0.0
C14 C 0.90035 0.57928 0.24276 0.0
C15 C 0.77817 0.52593 0.20728 0.0
C16 C 0.71378 0.43781 0.17857 0.0
C17 C 0.75217 0.39152 0.1966 0.0
C18 C 0.87392 0.44462 0.23225 0.0
C19 C 0.26377 0.62955 0.06484 0.0
O20 O 0.60035 0.80683 0.12734 0.0
O21 O 0.48701 0.81303 0.19175 0.0
O22 O 0.54857 0.6493 0.06454 0.0
O23 O 0.60415 0.62878 0.15241 0.0
O24 O 0.44061 0.57239 0.23887 0.0
O25 O 0.46626 0.69125 0.23283 0.0
O26 O 1.14543 0.47612 0.20825 0.0
O27 O 0.25182 0.46622 0.14308 0.0
O28 O 1.17725 0.68172 0.20641 0.0
O29 O 1.15913 0.58468 0.27088 0.0
O30 O 0.25358 0.67871 0.09361 0.0
O31 O 0.26929 0.58278 0.10386 0.0
H32 H 0.45853 0.51798 -0.01295 0.0
H33 H 0.27541 0.33545 0.96637 0.0
H34 H 0.27918 0.26917 0.15591 0.0
H35 H 0.46061 0.44969 0.17626 0.0
H36 H 0.96151 0.65484 0.25685 0.0
H37 H 0.74706 0.56122 0.19501 0.0
H38 H 0.70205 0.32245 0.1759 0.0
H39 H 0.91295 0.41407 0.23865 0.0
Ho40 Ho 1.05472 0.17984 0.47337 0.0
Ho41 Ho 0.85465 0.18577 0.45782 0.0
C42 C 0.71283 0.96493 0.46338 0.0
C43 C 1.19018 0.14537 0.51558 0.0
C44 C 1.14682 0.06114 0.55202 0.0
C45 C 1.01079 0.98379 0.57703 0.0
C46 C 0.96335 0.89756 0.60545 0.0
C47 C 1.05049 0.88683 0.60795 0.0
C48 C 1.18956 0.96684 0.58597 0.0
C49 C 1.23756 1.05376 0.55832 0.0
C50 C 1.006 0.19811 0.35672 0.0
C51 C 1.19916 0.40452 0.45251 0.0
C52 C 0.71681 0.22227 0.42718 0.0
C53 C 0.73512 0.30364 0.44119 0.0
C54 C 0.83112 0.39786 0.40881 0.0
C55 C 0.85496 0.47657 0.42556 0.0
C56 C 0.78257 0.46212 0.4746 0.0
C57 C 0.68396 0.36742 0.50586 0.0
C58 C 0.66006 0.28879 0.48916 0.0
C59 C 0.89155 0.15584 0.5748 0.0
O60 O 0.83638 1.01137 0.48868 0.0
O61 O 0.70094 1.02042 0.43701 0.0
O62 O 1.13519 0.12271 0.46074 0.0
O63 O 1.18702 0.1999 0.5432 0.0
O64 O 1.12946 0.24494 0.37827 0.0
O65 O 0.91311 0.14006 0.39673 0.0
O66 O 1.06653 0.35569 0.44554 0.0
O67 O 1.22445 0.35287 0.46635 0.0
O68 O 0.68209 0.16151 0.47268 0.0
O69 O 0.81223 0.24804 0.39289 0.0
O70 O 0.77372 0.11634 0.55131 0.0
O71 O 0.98915 0.21846 0.53672 0.0
H72 H 0.93869 0.98761 0.57227 0.0
H73 H 0.85524 0.83623 0.62138 0.0
H74 H 0.25819 0.9596 0.58736 0.0
H75 H 0.34272 0.11284 0.53935 0.0
H76 H 0.89016 0.41167 0.37142 0.0
H77 H 0.93171 0.54928 0.40092 0.0
H78 H 0.62741 0.35497 0.54395 0.0
H79 H 0.58531 0.21708 0.51482 0.0
Ho80 Ho 0.86932 0.68236 0.8694 0.0
Ho81 Ho 0.66472 0.45931 0.84689 0.0
C82 C 0.53194 0.54923 0.86516 0.0
C83 C 1.05232 0.87625 0.84688 0.0
C84 C 1.02887 0.9331 0.81741 0.0
C85 C 1.11887 1.00893 0.77173 0.0
C86 C 1.09155 1.05888 0.74253 0.0
C87 C 0.97307 1.03361 0.75827 0.0
C88 C 0.88156 0.95538 0.80274 0.0
C89 C 0.9093 0.90656 0.83193 0.0
C90 C 0.74789 0.55684 0.96836 0.0
C91 C 1.00077 0.58878 0.87711 0.0
C92 C 0.48113 0.26423 0.84137 0.0
C93 C 0.49548 0.20339 0.81999 0.0
C94 C 0.45048 0.12306 0.85706 0.0
C95 C 0.48701 0.07698 0.84334 0.0
C96 C 0.56912 0.11067 0.7923 0.0
C97 C 0.60737 0.18719 0.75344 0.0
C98 C 0.57176 0.23369 0.76734 0.0
C99 C 0.8027 0.58122 0.74788 0.0
O100 O 0.6662 0.64318 0.86131 0.0
O101 O 0.51146 0.47016 0.8647 0.0
O102 O 0.99632 0.83326 0.90038 0.0
O103 O 1.03311 0.81604 0.81185 0.0
O104 O 0.78423 0.63994 0.96531 0.0
O105 O 0.79088 0.55248 0.92306 0.0
O106 O 0.86556 0.49754 0.86699 0.0
O107 O 1.02536 0.66956 0.88039 0.0
O108 O 0.48822 0.31903 0.80044 0.0
O109 O 0.55685 0.31484 0.88992 0.0
O110 O 0.77282 0.50214 0.76057 0.0
O111 O 0.7525 0.59053 0.78761 0.0
H112 H 1.20994 1.02925 0.75844 0.0
H113 H 1.16402 0.11796 0.70831 0.0
H114 H 0.78638 0.93051 0.81491 0.0
H115 H 0.83552 0.84692 0.86567 0.0
H116 H 0.3922 0.0989 0.898 0.0
H117 H 0.4547 1.01715 0.87356 0.0
H118 H 0.66912 0.21337 0.71342 0.0
H119 H 0.60885 0.29597 0.73814 0.0
H120 H 1.09193 0.35598 0.29442 0.0
H121 H 0.85012 1.04541 0.27689 0.0
H122 H 0.98662 0.23611 0.11633 0.0
H123 H 0.69189 0.98086 0.08781 0.0
C124 C 0.69061 0.97333 0.13811 0.0
O125 O 0.83109 1.04359 0.15946 0.0
H126 H 0.64043 0.99296 0.15372 0.0
C127 C 1.04242 0.29437 0.26536 0.0
C128 C 1.0514 0.3108 0.20222 0.0
C129 C 0.97738 0.20165 0.29209 0.0
C130 C 0.90157 0.11756 0.25598 0.0
C131 C 0.89921 0.12721 0.19258 0.0
C132 C 0.98007 0.22595 0.16526 0.0
H133 H 0.91276 0.7659 0.71078 0.0
H134 H 0.81374 0.51559 0.64871 0.0
H135 H 1.03923 0.78003 0.53383 0.0
H136 H 0.85566 0.60426 0.45761 0.0
C137 C 0.81481 0.5483 0.49556 0.0
O138 O 0.91746 0.59687 0.541 0.0
H139 H 0.71594 0.51778 0.51264 0.0
C140 C 0.91873 0.73219 0.67707 0.0
C141 C 0.98817 0.78609 0.62208 0.0
C142 C 0.86053 0.63594 0.68835 0.0
C143 C 0.86184 0.59109 0.64206 0.0
C144 C 0.92386 0.64251 0.58638 0.0
C145 C 0.9907 0.74078 0.57722 0.0
H146 H 1.0949 0.62069 -0.00869 0.0
H147 H 0.3757 0.6 -0.00974 0.0
H148 H 1.18063 0.57675 0.82199 0.0
H149 H 0.33316 0.48588 0.82365 0.0
C150 C 0.39125 0.52378 0.86694 0.0
O151 O 0.39342 0.59767 0.87428 0.0
H152 H 0.31845 0.46082 0.90096 0.0
C153 C 1.14647 0.61085 0.96566 0.0
C154 C 1.11623 0.59499 0.90263 0.0
C155 C 1.23668 0.61093 -0.00252 0.0
C156 C 0.30532 0.59748 0.9656 0.0
C157 C 0.29359 0.58737 0.90211 0.0
C158 C 1.1941 0.58433 0.87069 0.0
H159 H 0.29516 0.46207 0.33991 0.0
H160 H 0.5886 0.78456 0.34695 0.0
H161 H 0.38272 0.59521 0.51012 0.0
H162 H 0.54122 0.83562 0.51931 0.0
C163 C 0.57693 0.84984 0.4722 0.0
O164 O 0.59359 0.78994 0.46421 0.0
H165 H 0.49206 0.82669 0.44129 0.0
C166 C 0.34614 0.52728 0.36553 0.0
C167 C 0.31765 0.51345 0.42769 0.0
C168 C 0.43683 0.62333 0.33556 0.0
C169 C 0.51342 0.70979 0.36936 0.0
C170 C 0.50006 0.70171 0.43253 0.0
C171 C 0.39751 0.6025 0.46169 0.0
H172 H 1.00172 0.10071 0.63836 0.0
H173 H 0.80599 0.18914 0.65942 0.0
H174 H 0.87028 0.08584 0.81467 0.0
H175 H 0.58743 1.01225 0.81623 0.0
C176 C 0.61899 0.06757 0.77976 0.0
O177 O 0.76531 0.14608 0.775 0.0
H178 H 0.56829 1.02703 0.73625 0.0
C179 C 0.95953 0.11456 0.66732 0.0
C180 C 0.9427 0.08754 0.73018 0.0
C181 C 0.90979 0.15117 0.64126 0.0
C182 C 0.84877 0.1643 0.67877 0.0
C183 C 0.83399 0.13988 0.74068 0.0
C184 C 0.88299 0.10381 0.76636 0.0
H185 H 0.8189 0.57241 0.08595 0.0
H186 H 0.48849 0.36174 0.95641 0.0
H187 H 0.46191 0.25336 0.13655 0.0
H188 H 1.14471 0.13286 0.08079 0.0
C189 C 1.21091 0.19116 0.04354 0.0
O190 O 0.32261 0.20692 0.03344 0.0
H191 H 1.14249 0.16014 0.00202 0.0
C192 C 0.71801 0.49536 0.07481 0.0
C193 C 0.64608 0.41523 0.11861 0.0
C194 C 0.66502 0.4757 0.01565 0.0
C195 C 0.53718 0.37581 0.00045 0.0
C196 C 0.46153 0.29594 0.04422 0.0
C197 C 0.51996 0.31495 0.10263 0.0
loop_
_geom_bond_atom_site_label_1
_geom_bond_atom_site_label_2
_geom_bond_distance
_geom_bond_site_symmetry_2
_ccdc_geom_bond_type
Ho0 C3 2.811 . S
Ho0 O20 2.322 . S
Ho0 O22 2.378 . S
Ho0 O23 2.524 . S
Ho0 O24 2.381 . S
Ho0 O25 2.669 1_455 S
Ho0 O27 2.346 1_455 S
Ho0 O31 2.305 . S
Ho1 C12 2.811 . S
Ho1 O21 2.346 1_655 S
Ho1 O25 2.305 . S
Ho1 O26 2.322 . S
Ho1 O28 2.378 . S
Ho1 O29 2.524 . S
Ho1 O30 2.381 . S
Ho1 O31 2.669 1_655 S
C2 O20 1.259 . S
C2 O21 1.268 . S
C3 Ho0 2.811 . S
C3 C4 1.488 . S
C3 O22 1.215 . S
C3 O23 1.289 . S
C4 C3 1.488 . S
C4 C5 1.348 . S
C4 C9 1.413 . S
C5 C4 1.348 . S
C5 C6 1.442 . S
C5 H32 0.930 . S
C6 C5 1.442 . S
C6 C7 1.381 . S
C6 H33 0.931 . S
C7 C6 1.381 . S
C7 C8 1.321 . S
C8 C7 1.321 . S
C8 C9 1.403 . S
C8 H34 0.934 . S
C9 C4 1.413 . S
C9 C8 1.403 . S
C9 H35 0.930 . S
C10 O24 1.275 . S
C10 O25 1.256 1_455 S
C11 O26 1.259 . S
C11 O27 1.268 . S
C12 Ho1 2.811 . S
C12 C13 1.488 . S
C12 O28 1.215 . S
C12 O29 1.289 . S
C13 C12 1.488 . S
C13 C14 1.348 . S
C13 C18 1.413 . S
C14 C13 1.348 . S
C14 C15 1.442 . S
C14 H36 0.930 . S
C15 C14 1.442 . S
C15 C16 1.381 . S
C15 H37 0.931 . S
C16 C15 1.381 . S
C16 C17 1.321 . S
C17 C16 1.321 . S
C17 C18 1.403 . S
C17 H38 0.934 . S
C18 C13 1.413 . S
C18 C17 1.403 . S
C18 H39 0.930 . S
C19 O30 1.275 1_455 S
C19 O31 1.256 . S
O20 Ho0 2.322 . S
O20 C2 1.259 . S
O21 Ho1 2.346 1_455 S
O21 C2 1.268 . S
O22 Ho0 2.378 . S
O22 C3 1.215 . S
O23 Ho0 2.524 . S
O23 C3 1.289 . S
O24 Ho0 2.381 . S
O24 C10 1.275 . S
O25 Ho0 2.669 1_655 S
O25 Ho1 2.305 . S
O25 C10 1.256 1_655 S
O26 Ho1 2.322 . S
O26 C11 1.259 . S
O27 Ho0 2.346 1_655 S
O27 C11 1.268 . S
O28 Ho1 2.378 . S
O28 C12 1.215 . S
O29 Ho1 2.524 . S
O29 C12 1.289 . S
O30 Ho1 2.381 . S
O30 C19 1.275 1_655 S
O31 Ho0 2.305 . S
O31 Ho1 2.669 1_455 S
O31 C19 1.256 . S
H32 C5 0.930 . S
H33 C6 0.931 . S
H34 C8 0.934 . S
H35 C9 0.930 . S
H36 C14 0.930 . S
H37 C15 0.931 . S
H38 C17 0.934 . S
H39 C18 0.930 . S
Ho40 C43 2.811 1_545 S
Ho40 O60 2.322 1_545 S
Ho40 O62 2.378 1_545 S
Ho40 O63 2.524 1_545 S
Ho40 O64 2.381 . S
Ho40 O65 2.669 . S
Ho40 O67 2.346 . S
Ho40 O71 2.305 . S
Ho41 C52 2.811 . S
Ho41 O61 2.346 1_545 S
Ho41 O65 2.305 . S
Ho41 O66 2.322 . S
Ho41 O68 2.378 . S
Ho41 O69 2.524 . S
Ho41 O70 2.381 . S
Ho41 O71 2.669 . S
C42 O60 1.259 . S
C42 O61 1.268 . S
C43 Ho40 2.811 1_565 S
C43 C44 1.488 . S
C43 O62 1.215 . S
C43 O63 1.289 . S
C44 C43 1.488 . S
C44 C45 1.348 . S
C44 C49 1.413 . S
C45 C44 1.348 . S
C45 C46 1.442 . S
C45 H72 0.930 . S
C46 C45 1.442 . S
C46 C47 1.381 . S
C46 H73 0.931 . S
C47 C46 1.381 . S
C47 C48 1.321 . S
C48 C47 1.321 . S
C48 C49 1.403 . S
C48 H74 0.934 . S
C49 C44 1.413 . S
C49 C48 1.403 . S
C49 H75 0.930 . S
C50 O64 1.275 . S
C50 O65 1.256 . S
C51 O66 1.259 . S
C51 O67 1.268 . S
C52 Ho41 2.811 . S
C52 C53 1.488 . S
C52 O68 1.215 . S
C52 O69 1.289 . S
C53 C52 1.488 . S
C53 C54 1.348 . S
C53 C58 1.413 . S
C54 C53 1.348 . S
C54 C55 1.442 . S
C54 H76 0.930 . S
C55 C54 1.442 . S
C55 C56 1.381 . S
C55 H77 0.931 . S
C56 C55 1.381 . S
C56 C57 1.321 . S
C57 C56 1.321 . S
C57 C58 1.403 . S
C57 H78 0.934 . S
C58 C53 1.413 . S
C58 C57 1.403 . S
C58 H79 0.930 . S
C59 O70 1.275 . S
C59 O71 1.256 . S
O60 Ho40 2.322 1_565 S
O60 C42 1.259 . S
O61 Ho41 2.346 1_565 S
O61 C42 1.268 . S
O62 Ho40 2.378 1_565 S
O62 C43 1.215 . S
O63 Ho40 2.524 1_565 S
O63 C43 1.289 . S
O64 Ho40 2.381 . S
O64 C50 1.275 . S
O65 Ho40 2.669 . S
O65 Ho41 2.305 . S
O65 C50 1.256 . S
O66 Ho41 2.322 . S
O66 C51 1.259 . S
O67 Ho40 2.346 . S
O67 C51 1.268 . S
O68 Ho41 2.378 . S
O68 C52 1.215 . S
O69 Ho41 2.524 . S
O69 C52 1.289 . S
O70 Ho41 2.381 . S
O70 C59 1.275 . S
O71 Ho40 2.305 . S
O71 Ho41 2.669 . S
O71 C59 1.256 . S
H72 C45 0.930 . S
H73 C46 0.931 . S
H74 C48 0.934 . S
H75 C49 0.930 . S
H76 C54 0.930 . S
H77 C55 0.931 . S
H78 C57 0.934 . S
H79 C58 0.930 . S
Ho80 C83 2.811 . S
Ho80 O100 2.322 . S
Ho80 O102 2.378 . S
Ho80 O103 2.524 . S
Ho80 O104 2.381 1_556 S
Ho80 O105 2.669 . S
Ho80 O107 2.346 . S
Ho80 O111 2.305 . S
Ho81 C92 2.811 . S
Ho81 O101 2.346 . S
Ho81 O105 2.305 . S
Ho81 O106 2.322 . S
Ho81 O108 2.378 . S
Ho81 O109 2.524 . S
Ho81 O110 2.381 . S
Ho81 O111 2.669 . S
C82 O100 1.259 . S
C82 O101 1.268 . S
C83 Ho80 2.811 . S
C83 C84 1.488 . S
C83 O102 1.215 . S
C83 O103 1.289 . S
C84 C83 1.488 . S
C84 C85 1.348 . S
C84 C89 1.413 . S
C85 C84 1.348 . S
C85 C86 1.442 . S
C85 H112 0.930 . S
C86 C85 1.442 . S
C86 C87 1.381 1_565 S
C86 H113 0.931 . S
C87 C86 1.381 1_545 S
C87 C88 1.321 . S
C88 C87 1.321 . S
C88 C89 1.403 1_545 S
C88 H114 0.934 . S
C89 C84 1.413 . S
C89 C88 1.403 1_565 S
C89 H115 0.930 . S
C90 O104 1.275 1_556 S
C90 O105 1.256 . S
C91 O106 1.259 . S
C91 O107 1.268 . S
C92 Ho81 2.811 . S
C92 C93 1.488 . S
C92 O108 1.215 . S
C92 O109 1.289 . S
C93 C92 1.488 . S
C93 C94 1.348 . S
C93 C98 1.413 . S
C94 C93 1.348 . S
C94 C95 1.442 . S
C94 H116 0.930 . S
C95 C94 1.442 . S
C95 C96 1.381 . S
C95 H117 0.931 . S
C96 C95 1.381 . S
C96 C97 1.321 . S
C97 C96 1.321 . S
C97 C98 1.403 . S
C97 H118 0.934 . S
C98 C93 1.413 . S
C98 C97 1.403 . S
C98 H119 0.930 . S
C99 O110 1.275 . S
C99 O111 1.256 . S
O100 Ho80 2.322 . S
O100 C82 1.259 . S
O101 Ho81 2.346 . S
O101 C82 1.268 . S
O102 Ho80 2.378 . S
O102 C83 1.215 . S
O103 Ho80 2.524 . S
O103 C83 1.289 . S
O104 Ho80 2.381 1_554 S
O104 C90 1.275 1_554 S
O105 Ho80 2.669 . S
O105 Ho81 2.305 . S
O105 C90 1.256 . S
O106 Ho81 2.322 . S
O106 C91 1.259 . S
O107 Ho80 2.346 . S
O107 C91 1.268 . S
O108 Ho81 2.378 . S
O108 C92 1.215 . S
O109 Ho81 2.524 . S
O109 C92 1.289 . S
O110 Ho81 2.381 . S
O110 C99 1.275 . S
O111 Ho80 2.305 . S
O111 Ho81 2.669 . S
O111 C99 1.256 . S
H112 C85 0.930 . S
H113 C86 0.931 . S
H114 C88 0.934 . S
H115 C89 0.930 . S
H116 C94 0.930 . S
H117 C95 0.931 . S
H118 C97 0.934 . S
H119 C98 0.930 . S
H120 C127 0.929 . S
H121 C130 0.930 . S
H122 C132 0.929 . S
H123 C124 0.969 . S
C124 H123 0.969 . S
C124 O125 1.550 . S
C124 H126 0.973 . S
O125 C124 1.550 . S
O125 C131 1.412 . S
H126 C124 0.973 . S
C127 H120 0.929 . S
C127 C128 1.400 . S
C127 C129 1.364 . S
C128 C127 1.400 . S
C128 C132 1.377 . S
C129 C127 1.364 . S
C129 C130 1.374 1_545 S
C130 H121 0.930 . S
C130 C129 1.374 1_565 S
C130 C131 1.383 . S
C131 O125 1.412 . S
C131 C130 1.383 . S
C131 C132 1.394 1_565 S
C132 H122 0.929 . S
C132 C128 1.377 . S
C132 C131 1.394 1_545 S
H133 C140 0.929 . S
H134 C143 0.930 . S
H135 C145 0.929 . S
H136 C137 0.969 . S
C137 H136 0.969 . S
C137 O138 1.550 . S
C137 H139 0.973 . S
O138 C137 1.550 . S
O138 C144 1.412 . S
H139 C137 0.973 . S
C140 H133 0.929 . S
C140 C141 1.400 . S
C140 C142 1.364 . S
C141 C140 1.400 . S
C141 C145 1.377 . S
C142 C140 1.364 . S
C142 C143 1.374 . S
C143 H134 0.930 . S
C143 C142 1.374 . S
C143 C144 1.383 . S
C144 O138 1.412 . S
C144 C143 1.383 . S
C144 C145 1.394 . S
C145 H135 0.929 . S
C145 C141 1.377 . S
C145 C144 1.394 . S
H146 C153 0.929 1_655 S
H147 C156 0.930 . S
H148 C158 0.929 . S
H149 C150 0.969 . S
C150 H149 0.969 . S
C150 O151 1.550 . S
C150 H152 0.973 . S
O151 C150 1.550 . S
O151 C157 1.412 . S
H152 C150 0.973 . S
C153 H146 0.929 1_455 S
C153 C154 1.400 . S
C153 C155 1.364 . S
C154 C153 1.400 . S
C154 C158 1.377 . S
C155 C153 1.364 . S
C155 C156 1.374 . S
C156 H147 0.930 . S
C156 C155 1.374 . S
C156 C157 1.383 . S
C157 O151 1.412 . S
C157 C156 1.383 . S
C157 C158 1.394 . S
C158 H148 0.929 . S
C158 C154 1.377 . S
C158 C157 1.394 . S
H159 C166 0.929 . S
H160 C169 0.930 . S
H161 C171 0.929 . S
H162 C163 0.969 . S
C163 H162 0.969 . S
C163 O164 1.550 . S
C163 H165 0.973 . S
O164 C163 1.550 . S
O164 C170 1.412 . S
H165 C163 0.973 . S
C166 H159 0.929 . S
C166 C167 1.400 . S
C166 C168 1.364 . S
C167 C166 1.400 . S
C167 C171 1.377 1_655 S
C168 C166 1.364 . S
C168 C169 1.374 1_655 S
C169 H160 0.930 . S
C169 C168 1.374 1_455 S
C169 C170 1.383 . S
C170 O164 1.412 . S
C170 C169 1.383 . S
C170 C171 1.394 . S
C171 H161 0.929 . S
C171 C167 1.377 1_455 S
C171 C170 1.394 . S
H172 C179 0.929 . S
H173 C182 0.930 . S
H174 C184 0.929 . S
H175 C176 0.969 . S
C176 H175 0.969 . S
C176 O177 1.550 . S
C176 H178 0.973 . S
O177 C176 1.550 . S
O177 C183 1.412 . S
H178 C176 0.973 . S
C179 H172 0.929 . S
C179 C180 1.400 . S
C179 C181 1.364 . S
C180 C179 1.400 . S
C180 C184 1.377 . S
C181 C179 1.364 . S
C181 C182 1.374 1_565 S
C182 H173 0.930 . S
C182 C181 1.374 1_545 S
C182 C183 1.383 . S
C183 O177 1.412 . S
C183 C182 1.383 . S
C183 C184 1.394 1_545 S
C184 H174 0.929 . S
C184 C180 1.377 . S
C184 C183 1.394 1_565 S
H185 C192 0.929 1_556 S
H186 C195 0.930 1_556 S
H187 C197 0.929 . S
H188 C189 0.969 . S
C189 H188 0.969 . S
C189 O190 1.550 . S
C189 H191 0.973 . S
O190 C189 1.550 . S
O190 C196 1.412 . S
H191 C189 0.973 . S
C192 H185 0.929 1_554 S
C192 C193 1.400 . S
C192 C194 1.364 1_554 S
C193 C192 1.400 . S
C193 C197 1.377 . S
C194 C192 1.364 1_556 S
C194 C195 1.374 1_556 S
C195 H186 0.930 1_554 S
C195 C194 1.374 1_554 S
C195 C196 1.383 . S
C196 O190 1.412 . S
C196 C195 1.383 . S
C196 C197 1.394 . S
C197 H187 0.929 . S
C197 C193 1.377 . S
C197 C196 1.394 . S
C7 C189 4.433 . S
C51 C167 2.345 . S
C87 C180 3.198 1_545 S
C16 C193 3.397 . S
C163 C42 2.372 . S
C176 C96 2.037 . S
C47 C141 1.801 . S
C91 C154 4.786 1_655 S
C2 C124 2.602 . S
C137 C56 2.528 . S
C150 C82 4.557 . S
C11 C128 2.494 . S
C155 C19 2.050 1_556 S
C50 C129 1.336 . S
C99 C142 1.500 . S
C181 C59 1.393 1_565 S
C194 C90 1.822 . S
C10 C168 1.055 1_455 S
