# Generated by pormake.
# Topology pts, (4,4)-cn, num edge types: 1
# Building blocks:
#     Node 0, Type 0, BuildingBlock: KUFVIS_clean_linker_0, # of connection points: 4
#     Node 1, Type 0, BuildingBlock: KUFVIS_clean_linker_0, # of connection points: 4
#     Node 2, Type 1, BuildingBlock: QUQFOY_clean_sbu_1, # of connection points: 4
#     Node 3, Type 1, BuildingBlock: QUQFOY_clean_sbu_1, # of connection points: 4
#     Edge 4, Type (0, 1), BuildingBlock: EYOCIG_clean_linker_4, # of connection points: 2
#     Edge 5, Type (0, 1), BuildingBlock: EYOCIG_clean_linker_4, # of connection points: 2
#     Edge 6, Type (0, 1), BuildingBlock: EYOCIG_clean_linker_4, # of connection points: 2
#     Edge 7, Type (0, 1), BuildingBlock: EYOCIG_clean_linker_4, # of connection points: 2
#     Edge 8, Type (0, 1), BuildingBlock: EYOCIG_clean_linker_4, # of connection points: 2
#     Edge 9, Type (0, 1), BuildingBlock: EYOCIG_clean_linker_4, # of connection points: 2
#     Edge 10, Type (0, 1), BuildingBlock: EYOCIG_clean_linker_4, # of connection points: 2
#     Edge 11, Type (0, 1), BuildingBlock: EYOCIG_clean_linker_4, # of connection points: 2
# Relax obj value: 0.102
# Max RMSD: 0.272
# Mean RMSD: 0.185
data_MOF--net-pts--node1-QUQFOY_clean_sbu_1--node2-KUFVIS_clean_linker_0--edge1-EYOCIG_clean_linker_4
_symmetry_space_group_name_H-M    P1
_symmetry_Int_Tables_number       1
_symmetry_cell_setting            triclinic
loop_
_symmetry_equiv_pos_as_xyz
'x, y, z'
_cell_length_a     19.525694
_cell_length_b     21.81305
_cell_length_c     29.205273
_cell_angle_alpha  89.981757
_cell_angle_beta   89.974556
_cell_angle_gamma 89.94613
loop_
_atom_site_label
_atom_site_type_symbol
_atom_site_fract_x
_atom_site_fract_y
_atom_site_fract_z
_atom_type_partial_charge
H0 H 0.26303 0.02812 -0.0067 0.0
H1 H 0.45087 0.01798 0.91918 0.0
H2 H 0.45074 0.04305 0.06697 0.0
H3 H 0.55454 0.01837 0.06689 0.0
H4 H 0.74224 0.03118 -0.00712 0.0
H5 H 0.55431 0.0438 0.91913 0.0
C6 C 0.31863 0.02882 -0.00676 0.0
C7 C 0.35423 0.03402 0.03443 0.0
C8 C 0.35422 0.02455 0.95195 0.0
C9 C 0.42598 0.02405 0.95184 0.0
C10 C 0.46379 0.03055 -0.00693 0.0
C11 C 0.42594 0.0363 0.03438 0.0
C12 C 0.54145 0.03111 -0.00697 0.0
C13 C 0.57934 0.02497 0.03426 0.0
C14 C 0.65107 0.02642 0.03419 0.0
C15 C 0.68663 0.03127 -0.00708 0.0
C16 C 0.65097 0.03602 0.9517 0.0
C17 C 0.57922 0.03743 0.95174 0.0
H18 H 0.00335 0.74267 0.49267 0.0
H19 H 0.01454 0.57505 0.56715 0.0
H20 H 0.98894 0.57479 0.41891 0.0
H21 H 0.01482 0.48147 0.41905 0.0
H22 H 1.00198 0.31383 0.49331 0.0
H23 H 0.98857 0.48171 0.56725 0.0
C24 C 0.00291 0.69286 0.49278 0.0
C25 C 0.99797 0.66113 0.45171 0.0
C26 C 0.00718 0.66133 0.53399 0.0
C27 C 0.00827 0.59707 0.53436 0.0
C28 C 1.00183 0.56304 0.49304 0.0
C29 C 0.99576 0.59691 0.45161 0.0
C30 C 1.00162 0.49347 0.49313 0.0
C31 C 0.0081 0.45946 0.4518 0.0
C32 C 0.00657 0.39523 0.4521 0.0
C33 C 1.00182 0.36365 0.49326 0.0
C34 C 0.99702 0.39533 0.53437 0.0
C35 C 0.99521 0.45958 0.53454 0.0
O36 O 0.91792 0.97455 0.20626 0.0
Cd37 Cd 0.00632 0.9628 0.24399 0.0
Cd38 Cd 0.99829 0.09394 0.24425 0.0
O39 O 0.90632 0.07515 0.21246 0.0
O40 O 0.00969 0.87222 0.25254 0.0
O41 O 1.00073 0.93753 0.31034 0.0
C42 C 0.00409 0.88174 0.29579 0.0
C43 C 1.00111 0.17457 0.29633 0.0
C44 C 0.8849 0.02356 0.19844 0.0
C45 C 0.11947 0.03365 0.19817 0.0
O46 O 0.08643 0.08258 0.20622 0.0
O47 O 0.09815 0.98194 0.21204 0.0
O48 O 0.99509 0.18443 0.25315 0.0
O49 O 0.00447 0.11868 0.31067 0.0
O50 O 0.91883 0.08254 0.77966 0.0
Cd51 Cd 0.0072 0.09331 0.74176 0.0
Cd52 Cd 0.99827 0.96244 0.74223 0.0
O53 O 0.90618 0.98203 0.7738 0.0
O54 O 0.0109 0.18381 0.73295 0.0
O55 O 1.00136 0.11831 0.67534 0.0
C56 C 0.00488 0.17413 0.68975 0.0
C57 C 1.00105 0.88197 0.68995 0.0
C58 C 0.88528 0.03393 0.78764 0.0
C59 C 0.11974 0.02229 0.7881 0.0
O60 O 0.0863 0.97353 0.78042 0.0
O61 O 0.09893 0.07397 0.77374 0.0
O62 O 0.99468 0.87198 0.7331 0.0
O63 O 0.00476 0.93791 0.67575 0.0
C64 C 0.27835 0.0378 0.10939 0.0
C65 C 0.31619 0.03637 0.07675 0.0
C66 C 0.22719 0.03762 0.14358 0.0
C67 C 0.17798 0.03601 0.16849 0.0
C68 C 0.99546 0.32092 0.60514 0.0
C69 C 0.99557 0.35986 0.57589 0.0
C70 C 0.99799 0.26976 0.63463 0.0
C71 C 1.00098 0.22512 0.65886 0.0
C72 C 0.72668 0.02112 0.1092 0.0
C73 C 0.68912 0.0233 0.07646 0.0
C74 C 0.7775 0.02048 0.14359 0.0
C75 C 0.82657 0.02156 0.16862 0.0
C76 C 0.00966 0.73581 0.60472 0.0
C77 C 0.00905 0.69695 0.57542 0.0
C78 C 0.00764 0.78678 0.6344 0.0
C79 C 0.00479 0.83122 0.65883 0.0
C80 C 0.27827 0.01916 0.87712 0.0
C81 C 0.3161 0.02141 0.90972 0.0
C82 C 0.22718 0.01863 0.84291 0.0
C83 C 0.17809 0.01994 0.81791 0.0
C84 C 0.00948 0.32088 0.38133 0.0
C85 C 0.00872 0.3597 0.41065 0.0
C86 C 0.00759 0.2699 0.35169 0.0
C87 C 0.00478 0.2254 0.32734 0.0
C88 C 0.72666 0.03963 0.87663 0.0
C89 C 0.68896 0.03824 0.90935 0.0
C90 C 0.77765 0.03898 0.84231 0.0
C91 C 0.82681 0.03682 0.81736 0.0
C92 C 0.99611 0.73519 0.3807 0.0
C93 C 0.99637 0.69649 0.41013 0.0
C94 C 0.99819 0.78612 0.35097 0.0
C95 C 1.00075 0.83068 0.32664 0.0
loop_
_geom_bond_atom_site_label_1
_geom_bond_atom_site_label_2
_geom_bond_distance
_geom_bond_site_symmetry_2
_ccdc_geom_bond_type
H0 C6 0.930 . S
H1 C9 0.931 . S
H2 C11 0.931 . S
H3 C13 0.930 . S
H4 C15 0.930 . S
H5 C17 0.931 . S
C6 H0 0.930 . S
C6 C7 1.380 . S
C6 C8 1.394 1_554 S
C7 C6 1.380 . S
C7 C11 1.382 . S
C8 C6 1.394 1_556 S
C8 C9 1.400 . S
C9 H1 0.931 . S
C9 C8 1.400 . S
C9 C10 1.375 1_556 S
C10 C9 1.375 1_554 S
C10 C11 1.415 . S
C10 C12 1.501 . S
C11 H2 0.931 . S
C11 C7 1.382 . S
C11 C10 1.415 . S
C12 C10 1.501 . S
C12 C13 1.384 . S
C12 C17 1.408 1_554 S
C13 H3 0.930 . S
C13 C12 1.384 . S
C13 C14 1.389 . S
C14 C13 1.389 . S
C14 C15 1.405 . S
C15 H4 0.930 . S
C15 C14 1.405 . S
C15 C16 1.364 1_554 S
C16 C15 1.364 1_556 S
C16 C17 1.400 . S
C17 H5 0.931 . S
C17 C12 1.408 1_556 S
C17 C16 1.400 . S
H18 C24 0.930 . S
H19 C27 0.931 . S
H20 C29 0.931 . S
H21 C31 0.930 . S
H22 C33 0.930 . S
H23 C35 0.931 . S
C24 H18 0.930 . S
C24 C25 1.380 . S
C24 C26 1.394 1_455 S
C25 C24 1.380 . S
C25 C29 1.382 . S
C26 C24 1.394 1_655 S
C26 C27 1.400 . S
C27 H19 0.931 . S
C27 C26 1.400 . S
C27 C28 1.375 . S
C28 C27 1.375 . S
C28 C29 1.415 1_655 S
C28 C30 1.501 . S
C29 H20 0.931 . S
C29 C25 1.382 . S
C29 C28 1.415 1_455 S
C30 C28 1.501 . S
C30 C31 1.384 . S
C30 C35 1.408 1_655 S
C31 H21 0.930 . S
C31 C30 1.384 . S
C31 C32 1.389 . S
C32 C31 1.389 . S
C32 C33 1.405 . S
C33 H22 0.930 . S
C33 C32 1.405 . S
C33 C34 1.364 1_655 S
C34 C33 1.364 1_455 S
C34 C35 1.400 . S
C35 H23 0.931 . S
C35 C30 1.408 1_455 S
C35 C34 1.400 . S
O36 Cd37 2.223 1_655 S
O36 C44 1.315 . S
Cd37 O36 2.223 1_455 S
Cd37 O40 2.297 1_455 S
Cd37 O41 2.439 1_455 S
Cd37 O47 2.240 1_565 S
Cd38 O39 2.240 . S
Cd38 O46 2.223 1_655 S
Cd38 O48 2.297 1_655 S
Cd38 O49 2.439 1_655 S
O39 Cd38 2.240 . S
O39 C44 1.279 1_545 S
O40 Cd37 2.297 1_655 S
O40 C42 1.247 . S
O41 Cd37 2.439 1_655 S
O41 C42 1.208 . S
C42 O40 1.247 . S
C42 O41 1.208 . S
C43 O48 1.247 . S
C43 O49 1.208 . S
C44 O36 1.315 . S
C44 O39 1.279 1_565 S
C45 O46 1.315 . S
C45 O47 1.279 . S
O46 Cd38 2.223 1_455 S
O46 C45 1.315 . S
O47 Cd37 2.240 1_545 S
O47 C45 1.279 . S
O48 Cd38 2.297 1_455 S
O48 C43 1.247 . S
O49 Cd38 2.439 1_455 S
O49 C43 1.208 . S
O50 Cd51 2.223 1_655 S
O50 C58 1.315 . S
Cd51 O50 2.223 1_455 S
Cd51 O54 2.297 1_455 S
Cd51 O55 2.439 1_455 S
Cd51 O61 2.240 . S
Cd52 O53 2.240 1_565 S
Cd52 O60 2.223 1_655 S
Cd52 O62 2.297 1_655 S
Cd52 O63 2.439 1_655 S
O53 Cd52 2.240 1_545 S
O53 C58 1.279 . S
O54 Cd51 2.297 1_655 S
O54 C56 1.247 . S
O55 Cd51 2.439 1_655 S
O55 C56 1.208 . S
C56 O54 1.247 . S
C56 O55 1.208 . S
C57 O62 1.247 . S
C57 O63 1.208 . S
C58 O50 1.315 . S
C58 O53 1.279 . S
C59 O60 1.315 . S
C59 O61 1.279 1_565 S
O60 Cd52 2.223 1_455 S
O60 C59 1.315 . S
O61 Cd51 2.240 . S
O61 C59 1.279 1_545 S
O62 Cd52 2.297 1_455 S
O62 C57 1.247 . S
O63 Cd52 2.439 1_455 S
O63 C57 1.208 . S
C64 C65 1.170 . S
C64 C66 1.380 . S
C65 C64 1.170 . S
C66 C64 1.380 . S
C66 C67 1.170 . S
C67 C66 1.170 . S
C68 C69 1.170 1_655 S
C68 C70 1.380 . S
C69 C68 1.170 1_455 S
C70 C68 1.380 . S
C70 C71 1.170 . S
C71 C70 1.170 . S
C72 C73 1.170 . S
C72 C74 1.380 . S
C73 C72 1.170 . S
C74 C72 1.380 . S
C74 C75 1.170 1_545 S
C75 C74 1.170 1_565 S
C76 C77 1.170 . S
C76 C78 1.380 . S
C77 C76 1.170 . S
C78 C76 1.380 . S
C78 C79 1.170 . S
C79 C78 1.170 . S
C80 C81 1.170 . S
C80 C82 1.383 . S
C81 C80 1.170 . S
C82 C80 1.383 . S
C82 C83 1.167 1_545 S
C83 C82 1.167 1_565 S
C84 C85 1.170 . S
C84 C86 1.380 . S
C85 C84 1.170 . S
C86 C84 1.380 . S
C86 C87 1.170 . S
C87 C86 1.170 . S
C88 C89 1.170 . S
C88 C90 1.380 . S
C89 C88 1.170 . S
C90 C88 1.380 . S
C90 C91 1.170 . S
C91 C90 1.170 . S
C92 C93 1.170 1_655 S
C92 C94 1.380 . S
C93 C92 1.170 1_455 S
C94 C92 1.380 . S
C94 C95 1.170 . S
C95 C94 1.170 . S
C67 C45 1.679 . S
C65 C7 1.614 . S
C71 C56 1.543 . S
C69 C34 1.596 . S
C75 C44 1.673 . S
C73 C14 1.648 . S
C79 C57 1.575 . S
C77 C26 1.578 1_455 S
C83 C59 1.673 . S
C81 C8 1.623 . S
C87 C43 1.563 . S
C85 C32 1.602 1_455 S
C91 C58 1.666 . S
C89 C16 1.619 . S
C93 C25 1.610 . S
C95 C42 1.534 . S
