# Generated by pormake.
# Topology rtl, (3,6)-cn, num edge types: 1
# Building blocks:
#     Node 0, Type 0, BuildingBlock: KAKCAD_clean_linker_0, # of connection points: 3
#     Node 1, Type 0, BuildingBlock: KAKCAD_clean_linker_0, # of connection points: 3
#     Node 2, Type 0, BuildingBlock: KAKCAD_clean_linker_0, # of connection points: 3
#     Node 3, Type 0, BuildingBlock: KAKCAD_clean_linker_0, # of connection points: 3
#     Node 4, Type 1, BuildingBlock: FUNLAD_clean_sbu_0, # of connection points: 6
#     Node 5, Type 1, BuildingBlock: FUNLAD_clean_sbu_0, # of connection points: 6
#     Edge 6, Type (0, 1), None
#     Edge 7, Type (0, 1), None
#     Edge 8, Type (0, 1), None
#     Edge 9, Type (0, 1), None
#     Edge 10, Type (0, 1), None
#     Edge 11, Type (0, 1), None
#     Edge 12, Type (0, 1), None
#     Edge 13, Type (0, 1), None
#     Edge 14, Type (0, 1), None
#     Edge 15, Type (0, 1), None
#     Edge 16, Type (0, 1), None
#     Edge 17, Type (0, 1), None
# Relax obj value: 0.021
# Max RMSD: 0.130
# Mean RMSD: 0.103
data_MOF--net-rtl--node1-FUNLAD_clean_sbu_0--node2-KAKCAD_clean_linker_0--edge1-none
_symmetry_space_group_name_H-M    P1
_symmetry_Int_Tables_number       1
_symmetry_cell_setting            triclinic
loop_
_symmetry_equiv_pos_as_xyz
'x, y, z'
_cell_length_a     29.707655
_cell_length_b     23.036607
_cell_length_c     15.484103
_cell_angle_alpha  89.767767
_cell_angle_beta   90.774208
_cell_angle_gamma 90.095694
loop_
_atom_site_label
_atom_site_type_symbol
_atom_site_fract_x
_atom_site_fract_y
_atom_site_fract_z
_atom_type_partial_charge
C0 C 0.01832 0.8637 0.76119 0.0
C1 C 0.04822 0.89498 0.70891 0.0
C2 C 0.03437 0.83311 0.83341 0.0
C3 C 0.08061 0.83245 0.85353 0.0
C4 C 0.11063 0.86163 0.79909 0.0
C5 C 0.09457 0.89288 0.72779 0.0
C6 C 0.09739 0.80626 0.93514 0.0
C7 C 0.13583 0.77096 0.93598 0.0
C8 C 0.15561 0.75285 0.01447 0.0
C9 C 0.13645 0.77054 0.09258 0.0
C10 C 0.09783 0.80559 0.0925 0.0
C11 C 0.07805 0.82238 0.01355 0.0
C12 C 0.08107 0.83062 0.17382 0.0
C13 C 0.0348 0.83116 0.1914 0.0
C14 C 0.11104 0.85922 0.23021 0.0
C15 C 0.09487 0.89015 0.30057 0.0
C16 C 0.04846 0.89246 0.31654 0.0
C17 C 0.19801 0.71898 0.01445 0.0
C18 C 0.20341 0.67238 0.95725 0.0
C19 C 0.23405 0.73454 0.06938 0.0
C20 C 0.27486 0.70469 0.06627 0.0
C21 C 0.28045 0.65849 0.00843 0.0
C22 C 0.24417 0.6423 0.95448 0.0
C23 C 0.01865 0.86141 0.26265 0.0
H24 H 0.98241 0.86456 0.74815 0.0
H25 H 0.01062 0.81087 0.87451 0.0
H26 H 0.14639 0.86236 0.81376 0.0
H27 H 0.11843 0.91631 0.68837 0.0
H28 H 0.15132 0.75946 0.87542 0.0
H29 H 0.04949 0.85165 0.01317 0.0
H30 H 0.15183 0.75761 0.15355 0.0
H31 H 0.01107 0.80928 0.14885 0.0
H32 H 0.14682 0.85998 0.2176 0.0
H33 H 0.11868 0.91338 0.34131 0.0
H34 H 0.17611 0.65925 0.91452 0.0
H35 H 0.23107 0.77068 0.11347 0.0
H36 H 0.98271 0.8624 0.27344 0.0
H37 H 0.24758 0.60712 0.90884 0.0
H38 H 0.30205 0.71774 0.10932 0.0
C39 C 0.51775 0.64902 0.74969 0.0
C40 C 0.54764 0.61795 0.8036 0.0
C41 C 0.5338 0.67956 0.67819 0.0
C42 C 0.58005 0.68035 0.66043 0.0
C43 C 0.61009 0.65171 0.71683 0.0
C44 C 0.59402 0.62052 0.78743 0.0
C45 C 0.59673 0.70547 0.57881 0.0
C46 C 0.63545 0.74049 0.57845 0.0
C47 C 0.65519 0.75708 0.50017 0.0
C48 C 0.63566 0.73843 0.42195 0.0
C49 C 0.59696 0.70348 0.42151 0.0
C50 C 0.57719 0.6881 0.50008 0.0
C51 C 0.58029 0.67705 0.34027 0.0
C52 C 0.53409 0.67623 0.31987 0.0
C53 C 0.61041 0.64809 0.28629 0.0
C54 C 0.5945 0.61692 0.21512 0.0
C55 C 0.54818 0.61468 0.19596 0.0
C56 C 0.69804 0.79012 0.50029 0.0
C57 C 0.70437 0.8379 0.55525 0.0
C58 C 0.73341 0.77297 0.44675 0.0
C59 C 0.77435 0.80271 0.4485 0.0
C60 C 0.78079 0.85036 0.50364 0.0
C61 C 0.7453 0.86789 0.55667 0.0
C62 C 0.51818 0.6457 0.24781 0.0
H63 H 0.48182 0.64781 0.76065 0.0
H64 H 0.51003 0.7014 0.63556 0.0
H65 H 0.64585 0.65108 0.70404 0.0
H66 H 0.61789 0.59727 0.82818 0.0
H67 H 0.65122 0.75281 0.63923 0.0
H68 H 0.54852 0.65889 0.50014 0.0
H69 H 0.65095 0.75035 0.3612 0.0
H70 H 0.51025 0.69835 0.36055 0.0
H71 H 0.64616 0.64752 0.30116 0.0
H72 H 0.61843 0.59368 0.17604 0.0
H73 H 0.6776 0.85219 0.59692 0.0
H74 H 0.72973 0.73584 0.40451 0.0
H75 H 0.48229 0.64472 0.23455 0.0
H76 H 0.74943 0.9042 0.60031 0.0
H77 H 0.80092 0.78857 0.40627 0.0
C78 C 0.90447 0.11647 0.29036 0.0
C79 C 0.95084 0.11445 0.30915 0.0
C80 C 0.88836 0.14748 0.21886 0.0
C81 C 0.91833 0.1765 0.16415 0.0
C82 C 0.96459 0.17591 0.18416 0.0
C83 C 0.98069 0.14554 0.25655 0.0
C84 C 0.90142 0.20276 0.08265 0.0
C85 C 0.8627 0.23751 0.08203 0.0
C86 C 0.84299 0.25607 0.0037 0.0
C87 C 0.86259 0.23952 0.92547 0.0
C88 C 0.90137 0.20473 0.92528 0.0
C89 C 0.92106 0.18748 0.00412 0.0
C90 C 0.91811 0.17984 0.84386 0.0
C91 C 0.88818 0.15088 0.7878 0.0
C92 C 0.96436 0.17949 0.8261 0.0
C93 C 0.98054 0.14906 0.75502 0.0
C94 C 0.95078 0.11763 0.70152 0.0
C95 C 0.80021 0.28914 0.00359 0.0
C96 C 0.76498 0.27213 0.05789 0.0
C97 C 0.79388 0.33702 0.94826 0.0
C98 C 0.75311 0.36728 0.94733 0.0
C99 C 0.71778 0.34992 0.00119 0.0
C100 C 0.72421 0.30213 0.05661 0.0
C101 C 0.90438 0.11978 0.71763 0.0
H102 H 0.88064 0.09317 0.32999 0.0
H103 H 0.85258 0.14671 0.20434 0.0
H104 H 0.98831 0.19809 0.14293 0.0
H105 H 0.01661 0.14475 0.26952 0.0
H106 H 0.84755 0.2494 0.14275 0.0
H107 H 0.94977 0.15847 0.00425 0.0
H108 H 0.84672 0.25178 0.86464 0.0
H109 H 0.85242 0.14991 0.8006 0.0
H110 H 0.98806 0.20158 0.86845 0.0
H111 H 0.01648 0.1482 0.74411 0.0
H112 H 0.76865 0.23497 0.10046 0.0
H113 H 0.82053 0.35123 0.90601 0.0
H114 H 0.8806 0.09626 0.67719 0.0
H115 H 0.69778 0.28808 0.09947 0.0
H116 H 0.74899 0.40368 0.90345 0.0
C117 C 0.40458 0.38956 0.20764 0.0
C118 C 0.45097 0.39231 0.19161 0.0
C119 C 0.38855 0.35852 0.27842 0.0
C120 C 0.41864 0.33024 0.33514 0.0
C121 C 0.4649 0.33125 0.31756 0.0
C122 C 0.48092 0.36162 0.24589 0.0
C123 C 0.40193 0.30497 0.41663 0.0
C124 C 0.36334 0.26976 0.41669 0.0
C125 C 0.34394 0.25217 0.49483 0.0
C126 C 0.36354 0.27032 0.57325 0.0
C127 C 0.40202 0.30571 0.57395 0.0
C128 C 0.42156 0.32187 0.4955 0.0
C129 C 0.41856 0.33206 0.65531 0.0
C130 C 0.3884 0.36123 0.70896 0.0
C131 C 0.46474 0.33288 0.67587 0.0
C132 C 0.4806 0.36364 0.74776 0.0
C133 C 0.45058 0.39491 0.79924 0.0
C134 C 0.30136 0.21857 0.49478 0.0
C135 C 0.26561 0.23439 0.43925 0.0
C136 C 0.29552 0.17195 0.55237 0.0
C137 C 0.2546 0.14205 0.55483 0.0
C138 C 0.21864 0.15846 0.50016 0.0
C139 C 0.22466 0.20472 0.44203 0.0
C140 C 0.40428 0.39264 0.77994 0.0
H141 H 0.38068 0.41251 0.16661 0.0
H142 H 0.35277 0.35893 0.29104 0.0
H143 H 0.48871 0.30963 0.36038 0.0
H144 H 0.51686 0.36297 0.23504 0.0
H145 H 0.34808 0.25676 0.35577 0.0
H146 H 0.45011 0.35128 0.49572 0.0
H147 H 0.34785 0.25887 0.63381 0.0
H148 H 0.35268 0.36183 0.6939 0.0
H149 H 0.4886 0.31065 0.63538 0.0
H150 H 0.51648 0.36461 0.76113 0.0
H151 H 0.26894 0.27058 0.39489 0.0
H152 H 0.3226 0.15866 0.59559 0.0
H153 H 0.38033 0.41607 0.81875 0.0
H154 H 0.1977 0.21792 0.39846 0.0
H155 H 0.25083 0.10681 0.60071 0.0
C156 C 0.03129 0.93007 0.38561 0.0
N157 N 0.09257 0.0706 0.50946 0.0
C158 C 0.1313 0.03917 0.51228 0.0
C159 C 0.173 0.06707 0.50996 0.0
C160 C 0.1748 0.12785 0.50419 0.0
C161 C 0.13429 0.1592 0.50189 0.0
C162 C 0.09335 0.12956 0.50479 0.0
Zn163 Zn 0.03225 0.02844 0.50966 0.0
C164 C 0.96789 0.07754 0.38044 0.0
N165 N 0.90665 0.93908 0.50831 0.0
C166 C 0.90602 0.88006 0.50748 0.0
C167 C 0.86784 0.97036 0.50847 0.0
C168 C 0.8262 0.9422 0.5076 0.0
C169 C 0.82456 0.88131 0.50605 0.0
C170 C 0.86515 0.85016 0.50616 0.0
Zn171 Zn 0.96693 0.98134 0.50872 0.0
O172 O 0.05596 0.97045 0.41575 0.0
C173 C 0.0312 0.9321 0.63784 0.0
O174 O 0.99137 0.92415 0.41282 0.0
H175 H 0.86913 0.01727 0.50885 0.0
H176 H 0.12989 0.9923 0.51559 0.0
H177 H 0.93729 0.85609 0.50776 0.0
O178 O 0.05587 0.97235 0.60804 0.0
O179 O 0.99148 0.92553 0.60795 0.0
H180 H 0.06214 0.15366 0.50291 0.0
O181 O 0.94341 0.03914 0.60313 0.0
O182 O 0.00779 0.08602 0.60497 0.0
O183 O 0.94313 0.03761 0.41085 0.0
O184 O 0.00773 0.08389 0.40982 0.0
C185 C 0.96797 0.07984 0.63268 0.0
H186 H 0.20346 0.04129 0.51105 0.0
H187 H 0.13425 0.20617 0.49861 0.0
H188 H 0.79566 0.96781 0.50667 0.0
H189 H 0.86533 0.80314 0.50609 0.0
C190 C 0.46746 0.43216 0.86987 0.0
N191 N 0.59234 0.43935 -0.00178 0.0
C192 C 0.59269 0.38032 -0.00038 0.0
C193 C 0.6334 0.35022 0.0004 0.0
C194 C 0.67417 0.38116 -0.00063 0.0
C195 C 0.67282 0.44207 -0.00273 0.0
C196 C 0.63132 0.47044 -0.00302 0.0
Zn197 Zn 0.53208 0.48166 -0.0019 0.0
C198 C 0.53062 0.58007 0.87297 0.0
N199 N 0.40624 0.57043 -0.0027 0.0
C200 C 0.36738 0.53906 -0.00473 0.0
C201 C 0.40564 0.62938 0.00173 0.0
C202 C 0.36481 0.65906 0.00525 0.0
C203 C 0.32418 0.62779 0.00382 0.0
C204 C 0.32578 0.56701 -0.00178 0.0
Zn205 Zn 0.46656 0.52828 -0.00322 0.0
O206 O 0.50722 0.4259 0.89975 0.0
C207 C 0.46795 0.43001 0.12201 0.0
O208 O 0.4427 0.47221 0.89921 0.0
H209 H 0.43692 0.65345 0.00299 0.0
H210 H 0.56131 0.35647 0.00012 0.0
H211 H 0.36863 0.4922 -0.00783 0.0
O212 O 0.50785 0.42441 0.09476 0.0
O213 O 0.44312 0.47015 0.09142 0.0
H214 H 0.63026 0.51736 -0.00387 0.0
O215 O 0.4914 0.58365 0.09575 0.0
O216 O 0.55614 0.53793 0.09511 0.0
O217 O 0.49082 0.58595 0.90073 0.0
O218 O 0.55533 0.53958 0.90293 0.0
C219 C 0.53127 0.57763 0.1251 0.0
H220 H 0.63296 0.30321 0.00091 0.0
H221 H 0.7035 0.46753 -0.0027 0.0
H222 H 0.36503 0.70602 0.00835 0.0
H223 H 0.29523 0.54127 -0.00224 0.0
loop_
_geom_bond_atom_site_label_1
_geom_bond_atom_site_label_2
_geom_bond_distance
_geom_bond_site_symmetry_2
_ccdc_geom_bond_type
C0 C1 1.386 . S
C0 C2 1.397 . S
C0 H24 0.931 . S
C1 C0 1.386 . S
C1 C5 1.397 . S
C2 C0 1.397 . S
C2 C3 1.384 . S
C2 H25 0.930 . S
C3 C2 1.384 . S
C3 C4 1.377 . S
C3 C6 1.481 . S
C4 C3 1.377 . S
C4 C5 1.389 . S
C4 H26 0.929 . S
C5 C1 1.397 . S
C5 C4 1.389 . S
C5 H27 0.931 . S
C6 C3 1.481 . S
C6 C7 1.387 . S
C6 C11 1.390 1_556 S
C7 C6 1.387 . S
C7 C8 1.401 1_556 S
C7 H28 0.930 . S
C8 C7 1.401 1_554 S
C8 C9 1.376 . S
C8 C17 1.511 . S
C9 C8 1.376 . S
C9 C10 1.392 . S
C9 H30 0.931 . S
C10 C9 1.392 . S
C10 C11 1.361 . S
C10 C12 1.500 . S
C11 C6 1.390 1_554 S
C11 C10 1.361 . S
C11 H29 0.931 . S
C12 C10 1.500 . S
C12 C13 1.371 . S
C12 C14 1.365 . S
C13 C12 1.371 . S
C13 C23 1.386 . S
C13 H31 0.931 . S
C14 C12 1.365 . S
C14 C15 1.409 . S
C14 H32 0.929 . S
C15 C14 1.409 . S
C15 C16 1.380 . S
C15 H33 0.930 . S
C16 C15 1.380 . S
C16 C23 1.357 . S
C17 C8 1.511 . S
C17 C18 1.341 1_554 S
C17 C19 1.371 . S
C18 C17 1.341 1_556 S
C18 C22 1.394 . S
C18 H34 0.930 . S
C19 C17 1.371 . S
C19 C20 1.392 . S
C19 H35 0.931 . S
C20 C19 1.392 . S
C20 C21 1.331 . S
C20 H38 0.932 . S
C21 C20 1.331 . S
C21 C22 1.336 1_554 S
C22 C18 1.394 . S
C22 C21 1.336 1_556 S
C22 H37 0.929 . S
C23 C13 1.386 . S
C23 C16 1.357 . S
C23 H36 0.928 . S
H24 C0 0.931 . S
H25 C2 0.930 . S
H26 C4 0.929 . S
H27 C5 0.931 . S
H28 C7 0.930 . S
H29 C11 0.931 . S
H30 C9 0.931 . S
H31 C13 0.931 . S
H32 C14 0.929 . S
H33 C15 0.930 . S
H34 C18 0.930 . S
H35 C19 0.931 . S
H36 C23 0.928 . S
H37 C22 0.929 . S
H38 C20 0.932 . S
C39 C40 1.386 . S
C39 C41 1.397 . S
C39 H63 0.931 . S
C40 C39 1.386 . S
C40 C44 1.397 . S
C41 C39 1.397 . S
C41 C42 1.384 . S
C41 H64 0.930 . S
C42 C41 1.384 . S
C42 C43 1.377 . S
C42 C45 1.481 . S
C43 C42 1.377 . S
C43 C44 1.389 . S
C43 H65 0.929 . S
C44 C40 1.397 . S
C44 C43 1.389 . S
C44 H66 0.931 . S
C45 C42 1.481 . S
C45 C46 1.387 . S
C45 C50 1.390 . S
C46 C45 1.387 . S
C46 C47 1.401 . S
C46 H67 0.930 . S
C47 C46 1.401 . S
C47 C48 1.376 . S
C47 C56 1.511 . S
C48 C47 1.376 . S
C48 C49 1.392 . S
C48 H69 0.931 . S
C49 C48 1.392 . S
C49 C50 1.361 . S
C49 C51 1.500 . S
C50 C45 1.390 . S
C50 C49 1.361 . S
C50 H68 0.931 . S
C51 C49 1.500 . S
C51 C52 1.371 . S
C51 C53 1.365 . S
C52 C51 1.371 . S
C52 C62 1.386 . S
C52 H70 0.931 . S
C53 C51 1.365 . S
C53 C54 1.409 . S
C53 H71 0.929 . S
C54 C53 1.409 . S
C54 C55 1.380 . S
C54 H72 0.930 . S
C55 C54 1.380 . S
C55 C62 1.357 . S
C56 C47 1.511 . S
C56 C57 1.341 . S
C56 C58 1.371 . S
C57 C56 1.341 . S
C57 C61 1.394 . S
C57 H73 0.930 . S
C58 C56 1.371 . S
C58 C59 1.392 . S
C58 H74 0.931 . S
C59 C58 1.392 . S
C59 C60 1.331 . S
C59 H77 0.932 . S
C60 C59 1.331 . S
C60 C61 1.336 . S
C61 C57 1.394 . S
C61 C60 1.336 . S
C61 H76 0.929 . S
C62 C52 1.386 . S
C62 C55 1.357 . S
C62 H75 0.928 . S
H63 C39 0.931 . S
H64 C41 0.930 . S
H65 C43 0.929 . S
H66 C44 0.931 . S
H67 C46 0.930 . S
H68 C50 0.931 . S
H69 C48 0.931 . S
H70 C52 0.931 . S
H71 C53 0.929 . S
H72 C54 0.930 . S
H73 C57 0.930 . S
H74 C58 0.931 . S
H75 C62 0.928 . S
H76 C61 0.929 . S
H77 C59 0.932 . S
C78 C79 1.386 . S
C78 C80 1.397 . S
C78 H102 0.931 . S
C79 C78 1.386 . S
C79 C83 1.397 1_655 S
C80 C78 1.397 . S
C80 C81 1.384 . S
C80 H103 0.930 . S
C81 C80 1.384 . S
C81 C82 1.377 . S
C81 C84 1.481 . S
C82 C81 1.377 . S
C82 C83 1.389 1_655 S
C82 H104 0.929 1_655 S
C83 C79 1.397 1_455 S
C83 C82 1.389 1_455 S
C83 H105 0.931 . S
C84 C81 1.481 . S
C84 C85 1.387 . S
C84 C89 1.390 . S
C85 C84 1.387 . S
C85 C86 1.401 . S
C85 H106 0.930 . S
C86 C85 1.401 . S
C86 C87 1.376 1_554 S
C86 C95 1.511 . S
C87 C86 1.376 1_556 S
C87 C88 1.392 . S
C87 H108 0.931 . S
C88 C87 1.392 . S
C88 C89 1.361 1_556 S
C88 C90 1.500 . S
C89 C84 1.390 . S
C89 C88 1.361 1_554 S
C89 H107 0.931 . S
C90 C88 1.500 . S
C90 C91 1.371 . S
C90 C92 1.365 . S
C91 C90 1.371 . S
C91 C101 1.386 . S
C91 H109 0.931 . S
C92 C90 1.365 . S
C92 C93 1.409 1_655 S
C92 H110 0.929 1_655 S
C93 C92 1.409 1_455 S
C93 C94 1.380 1_455 S
C93 H111 0.930 . S
C94 C93 1.380 1_655 S
C94 C101 1.357 . S
C95 C86 1.511 . S
C95 C96 1.341 . S
C95 C97 1.371 1_554 S
C96 C95 1.341 . S
C96 C100 1.394 . S
C96 H112 0.930 . S
C97 C95 1.371 1_556 S
C97 C98 1.392 . S
C97 H113 0.931 . S
C98 C97 1.392 . S
C98 C99 1.331 1_556 S
C98 H116 0.932 . S
C99 C98 1.331 1_554 S
C99 C100 1.336 . S
C100 C96 1.394 . S
C100 C99 1.336 . S
C100 H115 0.929 . S
C101 C91 1.386 . S
C101 C94 1.357 . S
C101 H114 0.928 . S
H102 C78 0.931 . S
H103 C80 0.930 . S
H104 C82 0.929 1_455 S
H105 C83 0.931 . S
H106 C85 0.930 . S
H107 C89 0.931 . S
H108 C87 0.931 . S
H109 C91 0.931 . S
H110 C92 0.929 1_455 S
H111 C93 0.930 . S
H112 C96 0.930 . S
H113 C97 0.931 . S
H114 C101 0.928 . S
H115 C100 0.929 . S
H116 C98 0.932 . S
C117 C118 1.386 . S
C117 C119 1.397 . S
C117 H141 0.931 . S
C118 C117 1.386 . S
C118 C122 1.397 . S
C119 C117 1.397 . S
C119 C120 1.384 . S
C119 H142 0.930 . S
C120 C119 1.384 . S
C120 C121 1.377 . S
C120 C123 1.481 . S
C121 C120 1.377 . S
C121 C122 1.389 . S
C121 H143 0.929 . S
C122 C118 1.397 . S
C122 C121 1.389 . S
C122 H144 0.931 . S
C123 C120 1.481 . S
C123 C124 1.387 . S
C123 C128 1.390 . S
C124 C123 1.387 . S
C124 C125 1.401 . S
C124 H145 0.930 . S
C125 C124 1.401 . S
C125 C126 1.376 . S
C125 C134 1.511 . S
C126 C125 1.376 . S
C126 C127 1.392 . S
C126 H147 0.931 . S
C127 C126 1.392 . S
C127 C128 1.361 . S
C127 C129 1.500 . S
C128 C123 1.390 . S
C128 C127 1.361 . S
C128 H146 0.931 . S
C129 C127 1.500 . S
C129 C130 1.371 . S
C129 C131 1.365 . S
C130 C129 1.371 . S
C130 C140 1.386 . S
C130 H148 0.931 . S
C131 C129 1.365 . S
C131 C132 1.409 . S
C131 H149 0.929 . S
C132 C131 1.409 . S
C132 C133 1.380 . S
C132 H150 0.930 . S
C133 C132 1.380 . S
C133 C140 1.357 . S
C134 C125 1.511 . S
C134 C135 1.341 . S
C134 C136 1.371 . S
C135 C134 1.341 . S
C135 C139 1.394 . S
C135 H151 0.930 . S
C136 C134 1.371 . S
C136 C137 1.392 . S
C136 H152 0.931 . S
C137 C136 1.392 . S
C137 C138 1.331 . S
C137 H155 0.932 . S
C138 C137 1.331 . S
C138 C139 1.336 . S
C139 C135 1.394 . S
C139 C138 1.336 . S
C139 H154 0.929 . S
C140 C130 1.386 . S
C140 C133 1.357 . S
C140 H153 0.928 . S
H141 C117 0.931 . S
H142 C119 0.930 . S
H143 C121 0.929 . S
H144 C122 0.931 . S
H145 C124 0.930 . S
H146 C128 0.931 . S
H147 C126 0.931 . S
H148 C130 0.931 . S
H149 C131 0.929 . S
H150 C132 0.930 . S
H151 C135 0.930 . S
H152 C136 0.931 . S
H153 C140 0.928 . S
H154 C139 0.929 . S
H155 C137 0.932 . S
C156 O172 1.251 . S
C156 O174 1.254 1_455 S
N157 C158 1.333 . S
N157 C162 1.307 . S
N157 Zn163 2.020 . S
C158 N157 1.333 . S
C158 C159 1.379 . S
C158 H176 0.952 . S
C159 C158 1.379 . S
C159 C160 1.390 . S
C159 H186 0.949 . S
C160 C159 1.390 . S
C160 C161 1.357 . S
C161 C160 1.357 . S
C161 C162 1.370 . S
C161 H187 0.950 . S
C162 N157 1.307 . S
C162 C161 1.370 . S
C162 H180 0.948 . S
Zn163 N157 2.020 . S
Zn163 O172 2.039 1_545 S
Zn163 O178 2.034 1_545 S
Zn163 O182 2.025 . S
Zn163 O184 2.024 . S
C164 O183 1.246 . S
C164 O184 1.249 1_655 S
N165 C166 1.307 . S
N165 C167 1.333 . S
N165 Zn171 2.020 . S
C166 N165 1.307 . S
C166 C170 1.370 . S
C166 H177 0.948 . S
C167 N165 1.333 . S
C167 C168 1.379 . S
C167 H175 0.952 . S
C168 C167 1.379 . S
C168 C169 1.390 . S
C168 H188 0.949 . S
C169 C168 1.390 . S
C169 C170 1.357 . S
C170 C166 1.370 . S
C170 C169 1.357 . S
C170 H189 0.950 . S
Zn171 N165 2.020 . S
Zn171 O174 2.025 . S
Zn171 O179 2.024 . S
Zn171 O181 2.039 1_565 S
Zn171 O183 2.034 1_565 S
O172 C156 1.251 . S
O172 Zn163 2.039 1_565 S
C173 O178 1.246 . S
C173 O179 1.249 1_455 S
O174 C156 1.254 1_655 S
O174 Zn171 2.025 . S
H175 C167 0.952 . S
H176 C158 0.952 . S
H177 C166 0.948 . S
O178 Zn163 2.034 1_565 S
O178 C173 1.246 . S
O179 Zn171 2.024 . S
O179 C173 1.249 1_655 S
H180 C162 0.948 . S
O181 Zn171 2.039 1_545 S
O181 C185 1.251 . S
O182 Zn163 2.025 . S
O182 C185 1.254 1_455 S
O183 C164 1.246 . S
O183 Zn171 2.034 1_545 S
O184 Zn163 2.024 . S
O184 C164 1.249 1_455 S
C185 O181 1.251 . S
C185 O182 1.254 1_655 S
H186 C159 0.949 . S
H187 C161 0.950 . S
H188 C168 0.949 . S
H189 C170 0.950 . S
C190 O206 1.251 . S
C190 O208 1.254 . S
N191 C192 1.333 1_554 S
N191 C196 1.307 . S
N191 Zn197 2.020 . S
C192 N191 1.333 1_556 S
C192 C193 1.379 . S
C192 H210 0.952 . S
C193 C192 1.379 . S
C193 C194 1.390 1_556 S
C193 H220 0.949 . S
C194 C193 1.390 1_554 S
C194 C195 1.357 . S
C195 C194 1.357 . S
C195 C196 1.370 . S
C195 H221 0.950 . S
C196 N191 1.307 . S
C196 C195 1.370 . S
C196 H214 0.948 . S
Zn197 N191 2.020 . S
Zn197 O206 2.039 1_554 S
Zn197 O212 2.034 . S
Zn197 O216 2.025 . S
Zn197 O218 2.024 1_554 S
C198 O217 1.246 . S
C198 O218 1.249 . S
N199 C200 1.307 1_554 S
N199 C201 1.333 . S
N199 Zn205 2.020 . S
C200 N199 1.307 1_556 S
C200 C204 1.370 . S
C200 H211 0.948 . S
C201 N199 1.333 . S
C201 C202 1.379 . S
C201 H209 0.952 . S
C202 C201 1.379 . S
C202 C203 1.390 . S
C202 H222 0.949 . S
C203 C202 1.390 . S
C203 C204 1.357 1_554 S
C204 C200 1.370 . S
C204 C203 1.357 1_556 S
C204 H223 0.950 . S
Zn205 N199 2.020 . S
Zn205 O208 2.025 1_554 S
Zn205 O213 2.024 . S
Zn205 O215 2.039 . S
Zn205 O217 2.034 1_554 S
O206 C190 1.251 . S
O206 Zn197 2.039 1_556 S
C207 O212 1.246 . S
C207 O213 1.249 . S
O208 C190 1.254 . S
O208 Zn205 2.025 1_556 S
H209 C201 0.952 . S
H210 C192 0.952 . S
H211 C200 0.948 . S
O212 Zn197 2.034 . S
O212 C207 1.246 . S
O213 Zn205 2.024 . S
O213 C207 1.249 . S
H214 C196 0.948 . S
O215 Zn205 2.039 . S
O215 C219 1.251 . S
O216 Zn197 2.025 . S
O216 C219 1.254 . S
O217 C198 1.246 . S
O217 Zn205 2.034 1_556 S
O218 Zn197 2.024 1_556 S
O218 C198 1.249 . S
C219 O215 1.251 . S
C219 O216 1.254 . S
H220 C193 0.949 . S
H221 C195 0.950 . S
H222 C202 0.949 . S
H223 C204 0.950 . S
C160 C138 2.005 . S
C21 C203 1.833 . S
C60 C169 2.049 . S
C99 C194 1.794 . S
C156 C16 2.111 . S
C198 C40 2.388 . S
C79 C164 2.045 . S
C133 C190 2.362 . S
C219 C55 2.348 . S
C185 C94 2.124 . S
C207 C118 2.364 . S
C1 C173 2.067 . S
