# Generated by pormake.
# Topology tsx, (6,3)-cn, num edge types: 1
# Building blocks:
#     Node 0, Type 0, BuildingBlock: VOLQOD_clean_sbu_1, # of connection points: 6
#     Node 1, Type 0, BuildingBlock: VOLQOD_clean_sbu_1, # of connection points: 6
#     Node 2, Type 1, BuildingBlock: BETDIP_clean_linker_0, # of connection points: 3
#     Node 3, Type 1, BuildingBlock: BETDIP_clean_linker_0, # of connection points: 3
#     Node 4, Type 1, BuildingBlock: BETDIP_clean_linker_0, # of connection points: 3
#     Node 5, Type 1, BuildingBlock: BETDIP_clean_linker_0, # of connection points: 3
#     Edge 6, Type (0, 1), BuildingBlock: OJICUG_clean_linker_0, # of connection points: 2
#     Edge 7, Type (0, 1), BuildingBlock: OJICUG_clean_linker_0, # of connection points: 2
#     Edge 8, Type (0, 1), BuildingBlock: OJICUG_clean_linker_0, # of connection points: 2
#     Edge 9, Type (0, 1), BuildingBlock: OJICUG_clean_linker_0, # of connection points: 2
#     Edge 10, Type (0, 1), BuildingBlock: OJICUG_clean_linker_0, # of connection points: 2
#     Edge 11, Type (0, 1), BuildingBlock: OJICUG_clean_linker_0, # of connection points: 2
#     Edge 12, Type (0, 1), BuildingBlock: OJICUG_clean_linker_0, # of connection points: 2
#     Edge 13, Type (0, 1), BuildingBlock: OJICUG_clean_linker_0, # of connection points: 2
#     Edge 14, Type (0, 1), BuildingBlock: OJICUG_clean_linker_0, # of connection points: 2
#     Edge 15, Type (0, 1), BuildingBlock: OJICUG_clean_linker_0, # of connection points: 2
#     Edge 16, Type (0, 1), BuildingBlock: OJICUG_clean_linker_0, # of connection points: 2
#     Edge 17, Type (0, 1), BuildingBlock: OJICUG_clean_linker_0, # of connection points: 2
# Relax obj value: 0.059
# Max RMSD: 0.114
# Mean RMSD: 0.103
data_MOF--net-tsx--node1-VOLQOD_clean_sbu_1--node2-BETDIP_clean_linker_0--edge1-OJICUG_clean_linker_0
_symmetry_space_group_name_H-M    P1
_symmetry_Int_Tables_number       1
_symmetry_cell_setting            triclinic
loop_
_symmetry_equiv_pos_as_xyz
'x, y, z'
_cell_length_a     15.836175
_cell_length_b     16.153438
_cell_length_c     27.861386
_cell_angle_alpha  90.287554
_cell_angle_beta   96.970592
_cell_angle_gamma 90.047284
loop_
_atom_site_label
_atom_site_type_symbol
_atom_site_fract_x
_atom_site_fract_y
_atom_site_fract_z
_atom_type_partial_charge
O0 O 0.07938 0.97164 0.10798 0.0
Zn1 Zn 0.10222 0.97896 0.03838 0.0
O2 O -0.00224 0.0041 -0.00327 0.0
Zn3 Zn 0.96221 0.90642 0.95817 0.0
Zn4 Zn 0.91014 0.03582 0.03664 0.0
Zn5 Zn 0.01745 0.09575 0.95445 0.0
O6 O 0.94922 0.93361 0.88712 0.0
O7 O 0.00648 0.05922 0.88499 0.0
O8 O 0.15633 0.87308 0.01795 0.0
O9 O 0.05383 0.81992 0.96544 0.0
O10 O 0.85391 0.85694 0.97784 0.0
O11 O 0.81876 0.94878 0.03161 0.0
O12 O 0.85504 0.14498 0.01623 0.0
O13 O 0.18647 0.07165 0.03536 0.0
O14 O 0.93073 0.18455 0.95842 0.0
O15 O 0.13072 0.14953 0.97417 0.0
C16 C 0.02245 0.00602 0.12994 0.0
C17 C 0.97433 0.9946 0.86363 0.0
C18 C 0.80435 0.88169 0.00777 0.0
C19 C 0.12792 0.81566 0.98883 0.0
C20 C 0.87101 0.1969 0.98427 0.0
C21 C 0.1901 0.13417 0.00797 0.0
O22 O 0.95777 0.04106 0.10701 0.0
O23 O 0.57999 0.47175 0.60805 0.0
Zn24 Zn 0.60296 0.47893 0.53846 0.0
O25 O 0.49856 0.50403 0.49674 0.0
Zn26 Zn 0.46307 0.40629 0.45821 0.0
Zn27 Zn 0.41086 0.53579 0.53657 0.0
Zn28 Zn 0.51831 0.59563 0.45443 0.0
O29 O 0.45002 0.43342 0.38716 0.0
O30 O 0.50726 0.55903 0.38498 0.0
O31 O 0.65711 0.37301 0.51812 0.0
O32 O 0.55473 0.31984 0.46554 0.0
O33 O 0.35481 0.35677 0.4779 0.0
O34 O 0.31951 0.44872 0.53157 0.0
O35 O 0.35577 0.64491 0.5161 0.0
O36 O 0.68723 0.57159 0.53541 0.0
O37 O 0.43161 0.68448 0.45835 0.0
O38 O 0.63162 0.64936 0.47414 0.0
C39 C 0.523 0.50617 0.62994 0.0
C40 C 0.47509 0.4944 0.36365 0.0
C41 C 0.30519 0.38156 0.50779 0.0
C42 C 0.62877 0.31558 0.48899 0.0
C43 C 0.37181 0.69683 0.48415 0.0
C44 C 0.69095 0.63404 0.50797 0.0
O45 O 0.45836 0.54116 0.60696 0.0
H46 H 0.08022 0.98522 0.48004 0.0
H47 H 0.93987 0.06375 0.3466 0.0
H48 H 0.17245 0.92642 0.34543 0.0
H49 H 0.82942 0.02753 0.39719 0.0
C50 C 0.85478 0.06848 0.42655 0.0
C51 C 0.07359 0.98849 0.441 0.0
C52 C 0.13353 0.94939 0.41554 0.0
C53 C 0.00364 0.02928 0.4163 0.0
C54 C -0.0054 0.0328 0.36551 0.0
C55 C 0.0556 0.99637 0.33928 0.0
C56 C 0.12524 0.95551 0.36493 0.0
N57 N 0.94311 0.06674 0.44313 0.0
H58 H 0.95308 0.95019 0.51549 0.0
H59 H 0.03404 0.0816 0.64751 0.0
H60 H 0.88513 0.85944 0.65015 0.0
H61 H 0.0045 0.19337 0.59231 0.0
C62 C 0.04256 0.16927 0.56543 0.0
C63 C 0.95498 0.95607 0.55429 0.0
C64 C 0.91652 0.89544 0.58026 0.0
C65 C -0.00492 0.02462 0.57818 0.0
C66 C -0.00099 0.03106 0.62878 0.0
C67 C 0.96054 0.97106 0.65538 0.0
C68 C 0.91852 0.90416 0.63052 0.0
N69 N 0.03372 0.08497 0.55102 0.0
H70 H 0.57917 0.48517 0.98001 0.0
H71 H 0.43942 0.56384 0.84642 0.0
H72 H 0.6721 0.42658 0.84558 0.0
H73 H 0.32865 0.52794 0.89675 0.0
C74 C 0.35394 0.56873 0.92621 0.0
C75 C 0.57272 0.4885 0.94098 0.0
C76 C 0.63282 0.44946 0.91561 0.0
C77 C 0.50287 0.52931 0.91619 0.0
C78 C 0.49407 0.53288 0.8654 0.0
C79 C 0.55522 0.49648 0.83927 0.0
C80 C 0.62477 0.45562 0.865 0.0
N81 N 0.44222 0.56676 0.94294 0.0
H82 H 0.45191 0.45046 0.01539 0.0
H83 H 0.53363 0.58164 0.14738 0.0
H84 H 0.38485 0.35943 0.1502 0.0
H85 H 0.50362 0.69351 0.09224 0.0
C86 C 0.5416 0.66946 0.06532 0.0
C87 C 0.45405 0.45625 0.05422 0.0
C88 C 0.41578 0.39556 0.08023 0.0
C89 C 0.49427 0.52477 0.07807 0.0
C90 C 0.49851 0.53112 0.12869 0.0
C91 C 0.46023 0.47106 0.15534 0.0
C92 C 0.41809 0.40419 0.13052 0.0
N93 N 0.53273 0.58518 0.05086 0.0
C94 C 0.32317 0.18147 0.05816 0.0
C95 C 0.25886 0.19576 0.01974 0.0
H96 H 0.42448 0.23345 0.10679 0.0
C97 C 0.25514 0.27335 -0.00323 0.0
H98 H 0.32868 0.12218 0.07626 0.0
C99 C 0.30999 0.3373 0.0145 0.0
C100 C 0.36942 0.32468 0.05546 0.0
H101 H 0.20672 0.28632 0.96687 0.0
H102 H 0.30218 0.39789 -0.00194 0.0
C103 C 0.37787 0.24527 0.0758 0.0
C104 C 0.27097 0.74606 -0.00308 0.0
C105 C 0.18441 0.74654 0.97803 0.0
H106 H 0.39299 0.68968 -0.00474 0.0
C107 C 0.15374 0.68397 0.94511 0.0
H108 H 0.29678 0.79326 0.02232 0.0
C109 C 0.20892 0.62484 0.92972 0.0
C110 C 0.29582 0.62672 0.9469 0.0
H111 H 0.08747 0.68207 0.92994 0.0
H112 H 0.18394 0.5789 0.90325 0.0
C113 C 0.32621 0.68671 0.98143 0.0
C114 C 0.72149 0.74823 -0.00073 0.0
C115 C 0.7317 0.82927 0.0179 0.0
H116 H 0.6533 0.63354 -0.00046 0.0
C117 C 0.67483 0.85824 0.04924 0.0
H118 H 0.76406 0.72395 0.97503 0.0
C119 C 0.61162 0.80653 0.06316 0.0
C120 C 0.60375 0.72476 0.04618 0.0
H121 H 0.68031 0.9204 0.06407 0.0
H122 H 0.57016 0.82995 0.0883 0.0
C123 C 0.6581 0.69634 0.01336 0.0
C124 C 0.73582 0.27463 -0.00893 0.0
C125 C 0.81559 0.26992 0.97393 0.0
H126 H 0.61509 0.33558 0.98589 0.0
C127 C 0.83903 0.33228 0.94307 0.0
H128 H 0.71603 0.2278 0.01507 0.0
C129 C 0.78164 0.3944 0.9268 0.0
C130 C 0.69942 0.39527 0.94081 0.0
H131 H 0.90063 0.33137 0.92989 0.0
H132 H 0.80039 0.43978 0.90161 0.0
C133 C 0.67815 0.33671 0.97457 0.0
C134 C 0.82398 0.68133 0.55819 0.0
C135 C 0.75974 0.6956 0.51973 0.0
H136 H 0.92519 0.73336 0.60687 0.0
C137 C 0.75611 0.77314 0.49671 0.0
H138 H 0.82943 0.62208 0.57632 0.0
C139 C 0.81095 0.8371 0.51444 0.0
C140 C 0.87028 0.82453 0.55545 0.0
H141 H 0.70775 0.78609 0.46677 0.0
H142 H 0.80319 0.89767 0.49797 0.0
C143 C 0.87866 0.74514 0.57583 0.0
C144 C 0.77186 0.24608 0.49709 0.0
C145 C 0.68527 0.24644 0.47826 0.0
H146 H 0.89391 0.18975 0.49541 0.0
C147 C 0.65457 0.18371 0.44546 0.0
H148 H 0.7977 0.29341 0.52239 0.0
C149 C 0.70975 0.12452 0.43011 0.0
C150 C 0.79667 0.12653 0.44722 0.0
H151 H 0.58827 0.1817 0.43035 0.0
H152 H 0.68474 0.07845 0.40373 0.0
C153 C 0.8271 0.18668 0.48164 0.0
C154 C 0.22247 0.24801 0.4994 0.0
C155 C 0.23258 0.32911 0.51795 0.0
H156 H 0.1544 0.13327 0.49976 0.0
C157 C 0.17564 0.35811 0.54924 0.0
H158 H 0.2651 0.2237 0.47519 0.0
C159 C 0.11246 0.30639 0.56318 0.0
C160 C 0.1047 0.22456 0.54628 0.0
H161 H 0.18104 0.42031 0.56401 0.0
H162 H 0.07095 0.32984 0.58829 0.0
C163 C 0.15912 0.1961 0.51351 0.0
C164 C 0.33971 0.83207 0.44279 0.0
C165 C 0.31639 0.76984 0.47377 0.0
H166 H 0.30097 0.93947 0.40126 0.0
C167 C 0.23671 0.77466 0.49101 0.0
H168 H 0.40124 0.83107 0.42953 0.0
C169 C 0.17903 0.83673 0.47452 0.0
C170 C 0.20018 0.89518 0.44067 0.0
H171 H 0.217 0.72794 0.5151 0.0
H172 H 0.11603 0.83569 0.48595 0.0
C173 C 0.28231 0.89418 0.42654 0.0
C174 C 0.00061 0.06971 0.20947 0.0
C175 C 0.03077 0.00395 0.18319 0.0
H176 H 0.98791 0.12084 0.2791 0.0
C177 C 0.0681 0.93553 0.20815 0.0
H178 H 0.97194 0.12346 0.19097 0.0
C179 C 0.07443 0.9324 0.25851 0.0
C180 C 0.04607 0.99891 0.28531 0.0
H181 H 0.09071 0.88345 0.18865 0.0
H182 H 0.10077 0.87707 0.27622 0.0
C183 C 0.00918 0.06775 0.26 0.0
C184 C 0.9712 0.91146 0.78774 0.0
C185 C 0.96907 0.98897 0.81049 0.0
H186 H 0.97423 0.84509 0.72162 0.0
C187 C 0.96437 0.06085 0.78215 0.0
H188 H 0.97606 0.85505 0.80877 0.0
C189 C 0.96098 0.05523 0.73188 0.0
C190 C 0.964 0.97762 0.70895 0.0
H191 H 0.96221 0.12145 0.7988 0.0
H192 H 0.955 0.11176 0.71104 0.0
C193 C 0.96971 0.90587 0.73766 0.0
C194 C 0.50085 0.56987 0.70942 0.0
C195 C 0.53116 0.50412 0.68319 0.0
H196 H 0.4878 0.62098 0.77902 0.0
C197 C 0.56838 0.4357 0.7082 0.0
H198 H 0.47225 0.62362 0.69089 0.0
C199 C 0.57447 0.43255 0.75855 0.0
C200 C 0.54596 0.49905 0.7853 0.0
H201 H 0.59109 0.38363 0.68874 0.0
H202 H 0.60072 0.37722 0.77628 0.0
C203 C 0.50918 0.5679 0.75995 0.0
C204 C 0.46477 0.56072 0.28218 0.0
C205 C 0.46964 0.48881 0.3105 0.0
H206 H 0.45498 0.6117 0.21108 0.0
C207 C 0.47166 0.41132 0.28772 0.0
H208 H 0.46267 0.6213 0.29886 0.0
C209 C 0.4699 0.40578 0.23762 0.0
C210 C 0.464 0.47756 0.20893 0.0
H211 H 0.47664 0.35489 0.30873 0.0
H212 H 0.47433 0.34502 0.22154 0.0
C213 C 0.4611 0.55515 0.23189 0.0
loop_
_geom_bond_atom_site_label_1
_geom_bond_atom_site_label_2
_geom_bond_distance
_geom_bond_site_symmetry_2
_ccdc_geom_bond_type
O0 Zn1 1.953 . S
O0 C16 1.225 1_565 S
Zn1 O0 1.953 . S
Zn1 O2 1.949 1_565 S
Zn1 O8 1.919 . S
Zn1 O13 1.924 1_565 S
O2 Zn1 1.949 1_545 S
O2 Zn3 1.923 1_444 S
O2 Zn4 1.950 1_455 S
O2 Zn5 1.945 1_554 S
Zn3 O2 1.923 1_666 S
Zn3 O6 1.933 . S
Zn3 O9 1.941 1_655 S
Zn3 O10 1.965 . S
Zn4 O2 1.950 1_655 S
Zn4 O11 1.938 1_545 S
Zn4 O12 1.906 . S
Zn4 O22 1.953 . S
Zn5 O2 1.945 1_556 S
Zn5 O7 1.932 . S
Zn5 O14 1.977 1_455 S
Zn5 O15 1.910 . S
O6 Zn3 1.933 . S
O6 C17 1.226 1_565 S
O7 Zn5 1.932 . S
O7 C17 1.307 1_455 S
O8 Zn1 1.919 . S
O8 C19 1.254 . S
O9 Zn3 1.941 1_455 S
O9 C19 1.283 1_556 S
O10 Zn3 1.965 . S
O10 C18 1.303 1_556 S
O11 Zn4 1.938 1_565 S
O11 C18 1.247 . S
O12 Zn4 1.906 . S
O12 C20 1.304 1_554 S
O13 Zn1 1.924 1_545 S
O13 C21 1.311 . S
O14 Zn5 1.977 1_655 S
O14 C20 1.272 . S
O15 Zn5 1.910 . S
O15 C21 1.231 1_556 S
C16 O0 1.225 1_545 S
C16 O22 1.298 1_455 S
C17 O6 1.226 1_545 S
C17 O7 1.307 1_655 S
C18 O10 1.303 1_554 S
C18 O11 1.247 . S
C19 O8 1.254 . S
C19 O9 1.283 1_554 S
C20 O12 1.304 1_556 S
C20 O14 1.272 . S
C21 O13 1.311 . S
C21 O15 1.231 1_554 S
O22 Zn4 1.953 . S
O22 C16 1.298 1_655 S
O23 Zn24 1.953 . S
O23 C39 1.225 . S
Zn24 O23 1.953 . S
Zn24 O25 1.949 . S
Zn24 O31 1.919 . S
Zn24 O36 1.924 . S
O25 Zn24 1.949 . S
O25 Zn26 1.923 . S
O25 Zn27 1.950 . S
O25 Zn28 1.945 . S
Zn26 O25 1.923 . S
Zn26 O29 1.933 . S
Zn26 O32 1.941 . S
Zn26 O33 1.965 . S
Zn27 O25 1.950 . S
Zn27 O34 1.938 . S
Zn27 O35 1.906 . S
Zn27 O45 1.953 . S
Zn28 O25 1.945 . S
Zn28 O30 1.932 . S
Zn28 O37 1.977 . S
Zn28 O38 1.910 . S
O29 Zn26 1.933 . S
O29 C40 1.226 . S
O30 Zn28 1.932 . S
O30 C40 1.307 . S
O31 Zn24 1.919 . S
O31 C42 1.253 . S
O32 Zn26 1.941 . S
O32 C42 1.283 . S
O33 Zn26 1.965 . S
O33 C41 1.303 . S
O34 Zn27 1.938 . S
O34 C41 1.247 . S
O35 Zn27 1.906 . S
O35 C43 1.304 . S
O36 Zn24 1.924 . S
O36 C44 1.311 . S
O37 Zn28 1.977 . S
O37 C43 1.272 . S
O38 Zn28 1.910 . S
O38 C44 1.231 . S
C39 O23 1.225 . S
C39 O45 1.298 . S
C40 O29 1.226 . S
C40 O30 1.307 . S
C41 O33 1.303 . S
C41 O34 1.247 . S
C42 O31 1.253 . S
C42 O32 1.283 . S
C43 O35 1.304 . S
C43 O37 1.272 . S
C44 O36 1.311 . S
C44 O38 1.231 . S
O45 Zn27 1.953 . S
O45 C39 1.298 . S
H46 C51 0.930 . S
H47 C54 0.930 . S
H48 C56 0.930 . S
H49 C50 1.016 . S
C50 H49 1.016 . S
C50 N57 1.286 . S
C51 H46 0.930 . S
C51 C52 1.397 . S
C51 C53 1.361 1_465 S
C52 C51 1.397 . S
C52 C56 1.390 . S
C53 C51 1.361 1_645 S
C53 C54 1.393 . S
C53 N57 1.413 . S
C54 H47 0.930 . S
C54 C53 1.393 . S
C54 C55 1.399 1_645 S
C55 C54 1.399 1_465 S
C55 C56 1.381 . S
C56 H48 0.930 . S
C56 C52 1.390 . S
C56 C55 1.381 . S
N57 C50 1.286 . S
N57 C53 1.413 . S
H58 C63 0.930 . S
H59 C66 0.930 . S
H60 C68 0.930 . S
H61 C62 1.016 . S
C62 H61 1.016 . S
C62 N69 1.286 . S
C63 H58 0.930 . S
C63 C64 1.397 . S
C63 C65 1.361 1_665 S
C64 C63 1.397 . S
C64 C68 1.390 . S
C65 C63 1.361 1_445 S
C65 C66 1.393 . S
C65 N69 1.413 . S
C66 H59 0.930 . S
C66 C65 1.393 . S
C66 C67 1.399 1_445 S
C67 C66 1.399 1_665 S
C67 C68 1.381 . S
C68 H60 0.930 . S
C68 C64 1.390 . S
C68 C67 1.381 . S
N69 C62 1.286 . S
N69 C65 1.413 . S
H70 C75 0.930 . S
H71 C78 0.930 . S
H72 C80 0.930 . S
H73 C74 1.016 . S
C74 H73 1.016 . S
C74 N81 1.286 . S
C75 H70 0.930 . S
C75 C76 1.397 . S
C75 C77 1.361 . S
C76 C75 1.397 . S
C76 C80 1.390 . S
C77 C75 1.361 . S
C77 C78 1.393 . S
C77 N81 1.413 . S
C78 H71 0.930 . S
C78 C77 1.393 . S
C78 C79 1.399 . S
C79 C78 1.399 . S
C79 C80 1.381 . S
C80 H72 0.930 . S
C80 C76 1.390 . S
C80 C79 1.381 . S
N81 C74 1.286 . S
N81 C77 1.413 . S
H82 C87 0.930 . S
H83 C90 0.930 . S
H84 C92 0.930 . S
H85 C86 1.016 . S
C86 H85 1.016 . S
C86 N93 1.286 . S
C87 H82 0.930 . S
C87 C88 1.397 . S
C87 C89 1.361 . S
C88 C87 1.397 . S
C88 C92 1.390 . S
C89 C87 1.361 . S
C89 C90 1.393 . S
C89 N93 1.413 . S
C90 H83 0.930 . S
C90 C89 1.393 . S
C90 C91 1.399 . S
C91 C90 1.399 . S
C91 C92 1.381 . S
C92 H84 0.930 . S
C92 C88 1.390 . S
C92 C91 1.381 . S
N93 C86 1.286 . S
N93 C89 1.413 . S
C94 C95 1.387 . S
C94 H98 0.950 . S
C94 C103 1.390 . S
C95 C94 1.387 . S
C95 C97 1.387 . S
H96 C103 0.950 . S
C97 C95 1.387 . S
C97 C99 1.390 . S
C97 H101 0.950 1_554 S
H98 C94 0.950 . S
C99 C97 1.390 . S
C99 C100 1.387 . S
C99 H102 0.950 . S
C100 C99 1.387 . S
C100 C103 1.387 . S
H101 C97 0.950 1_556 S
H102 C99 0.950 . S
C103 C94 1.390 . S
C103 H96 0.950 . S
C103 C100 1.387 . S
C104 C105 1.387 1_554 S
C104 H108 0.950 . S
C104 C113 1.390 . S
C105 C104 1.387 1_556 S
C105 C107 1.387 . S
H106 C113 0.950 . S
C107 C105 1.387 . S
C107 C109 1.390 . S
C107 H111 0.950 . S
H108 C104 0.950 . S
C109 C107 1.390 . S
C109 C110 1.387 . S
C109 H112 0.950 . S
C110 C109 1.387 . S
C110 C113 1.387 1_556 S
H111 C107 0.950 . S
H112 C109 0.950 . S
C113 C104 1.390 . S
C113 H106 0.950 . S
C113 C110 1.387 1_554 S
C114 C115 1.387 1_556 S
C114 H118 0.950 . S
C114 C123 1.390 1_556 S
C115 C114 1.387 1_554 S
C115 C117 1.387 . S
H116 C123 0.950 1_556 S
C117 C115 1.387 . S
C117 C119 1.390 . S
C117 H121 0.950 . S
H118 C114 0.950 . S
C119 C117 1.390 . S
C119 C120 1.387 . S
C119 H122 0.950 . S
C120 C119 1.387 . S
C120 C123 1.387 . S
H121 C117 0.950 . S
H122 C119 0.950 . S
C123 C114 1.390 1_554 S
C123 H116 0.950 1_554 S
C123 C120 1.387 . S
C124 C125 1.387 . S
C124 H128 0.950 . S
C124 C133 1.390 . S
C125 C124 1.387 . S
C125 C127 1.387 1_556 S
H126 C133 0.950 . S
C127 C125 1.387 1_554 S
C127 C129 1.390 1_554 S
C127 H131 0.950 . S
H128 C124 0.950 . S
C129 C127 1.390 1_556 S
C129 C130 1.387 . S
C129 H132 0.950 1_556 S
C130 C129 1.387 . S
C130 C133 1.387 . S
H131 C127 0.950 . S
H132 C129 0.950 1_554 S
C133 C124 1.390 . S
C133 H126 0.950 . S
C133 C130 1.387 . S
C134 C135 1.387 . S
C134 H138 0.950 . S
C134 C143 1.390 . S
C135 C134 1.387 . S
C135 C137 1.387 . S
H136 C143 0.950 . S
C137 C135 1.387 . S
C137 C139 1.390 . S
C137 H141 0.950 . S
H138 C134 0.950 . S
C139 C137 1.390 . S
C139 C140 1.387 . S
C139 H142 0.950 . S
C140 C139 1.387 . S
C140 C143 1.387 . S
H141 C137 0.950 . S
H142 C139 0.950 . S
C143 C134 1.390 . S
C143 H136 0.950 . S
C143 C140 1.387 . S
C144 C145 1.387 . S
C144 H148 0.950 . S
C144 C153 1.390 . S
C145 C144 1.387 . S
C145 C147 1.387 . S
H146 C153 0.950 . S
C147 C145 1.387 . S
C147 C149 1.390 . S
C147 H151 0.950 . S
H148 C144 0.950 . S
C149 C147 1.390 . S
C149 C150 1.387 . S
C149 H152 0.950 . S
C150 C149 1.387 . S
C150 C153 1.387 . S
H151 C147 0.950 . S
H152 C149 0.950 . S
C153 C144 1.390 . S
C153 H146 0.950 . S
C153 C150 1.387 . S
C154 C155 1.387 . S
C154 H158 0.950 . S
C154 C163 1.390 . S
C155 C154 1.387 . S
C155 C157 1.387 . S
H156 C163 0.950 . S
C157 C155 1.387 . S
C157 C159 1.390 . S
C157 H161 0.950 . S
H158 C154 0.950 . S
C159 C157 1.390 . S
C159 C160 1.387 . S
C159 H162 0.950 . S
C160 C159 1.387 . S
C160 C163 1.387 . S
H161 C157 0.950 . S
H162 C159 0.950 . S
C163 C154 1.390 . S
C163 H156 0.950 . S
C163 C160 1.387 . S
C164 C165 1.387 . S
C164 H168 0.950 . S
C164 C173 1.390 . S
C165 C164 1.387 . S
C165 C167 1.387 . S
H166 C173 0.950 . S
C167 C165 1.387 . S
C167 C169 1.390 . S
C167 H171 0.950 . S
H168 C164 0.950 . S
C169 C167 1.390 . S
C169 C170 1.387 . S
C169 H172 0.950 . S
C170 C169 1.387 . S
C170 C173 1.387 . S
H171 C167 0.950 . S
H172 C169 0.950 . S
C173 C164 1.390 . S
C173 H166 0.950 . S
C173 C170 1.387 . S
C174 C175 1.399 . S
C174 H178 0.950 . S
C174 C183 1.390 . S
C175 C174 1.399 . S
C175 C177 1.375 1_545 S
H176 C183 0.950 . S
C177 C175 1.375 1_565 S
C177 C179 1.390 . S
C177 H181 0.950 . S
H178 C174 0.950 . S
C179 C177 1.390 . S
C179 C180 1.387 . S
C179 H182 0.950 1_455 S
C180 C179 1.387 . S
C180 C183 1.387 1_565 S
H181 C177 0.950 . S
H182 C179 0.950 1_655 S
C183 C174 1.390 . S
C183 H176 0.950 . S
C183 C180 1.387 1_545 S
C184 C185 1.387 1_565 S
C184 H188 0.950 . S
C184 C193 1.390 . S
C185 C184 1.387 1_545 S
C185 C187 1.387 1_655 S
H186 C193 0.950 . S
C187 C185 1.387 1_455 S
C187 C189 1.390 . S
C187 H191 0.950 . S
H188 C184 0.950 . S
C189 C187 1.390 . S
C189 C190 1.387 1_445 S
C189 H192 0.950 . S
C190 C189 1.387 1_665 S
C190 C193 1.387 . S
H191 C187 0.950 . S
H192 C189 0.950 . S
C193 C184 1.390 . S
C193 H186 0.950 . S
C193 C190 1.387 . S
C194 C195 1.387 . S
C194 H198 0.950 . S
C194 C203 1.390 . S
C195 C194 1.387 . S
C195 C197 1.387 . S
H196 C203 0.950 . S
C197 C195 1.387 . S
C197 C199 1.390 . S
C197 H201 0.950 . S
H198 C194 0.950 . S
C199 C197 1.390 . S
C199 C200 1.387 . S
C199 H202 0.950 . S
C200 C199 1.387 . S
C200 C203 1.387 . S
H201 C197 0.950 . S
H202 C199 0.950 . S
C203 C194 1.390 . S
C203 H196 0.950 . S
C203 C200 1.387 . S
C204 C205 1.387 . S
C204 H208 0.950 . S
C204 C213 1.390 . S
C205 C204 1.387 . S
C205 C207 1.387 . S
H206 C213 0.950 . S
C207 C205 1.387 . S
C207 C209 1.390 . S
C207 H211 0.950 . S
H208 C204 0.950 . S
C209 C207 1.390 . S
C209 C210 1.387 . S
C209 H212 0.950 . S
C210 C209 1.387 . S
C210 C213 1.387 . S
H211 C207 0.950 . S
H212 C209 0.950 . S
C213 C204 1.390 . S
C213 H206 0.950 . S
C213 C210 1.387 . S
C100 C88 1.514 . S
C95 C21 1.515 . S
C105 C19 1.443 1_556 S
C110 C74 1.417 . S
C115 C18 1.412 . S
C120 C86 1.401 . S
C125 C20 1.500 . S
C130 C76 1.506 . S
C135 C44 1.515 . S
C140 C64 1.514 . S
C145 C42 1.443 . S
C150 C50 1.417 . S
C160 C62 1.401 . S
C155 C41 1.412 . S
C170 C52 1.506 . S
C165 C43 1.501 . S
C175 C16 1.532 . S
C180 C55 1.530 . S
C185 C17 1.500 . S
C190 C67 1.497 . S
C200 C79 1.530 . S
C195 C39 1.532 . S
C205 C40 1.500 . S
C210 C91 1.498 . S
