# Generated by pormake.
# Topology pth, (4,4)-cn, num edge types: 1
# Building blocks:
#     Node 0, Type 0, BuildingBlock: GALJAG_clean_sbu_0, # of connection points: 4
#     Node 1, Type 0, BuildingBlock: GALJAG_clean_sbu_0, # of connection points: 4
#     Node 2, Type 0, BuildingBlock: GALJAG_clean_sbu_0, # of connection points: 4
#     Node 3, Type 1, BuildingBlock: NAWXER_clean_linker_0, # of connection points: 4
#     Node 4, Type 1, BuildingBlock: NAWXER_clean_linker_0, # of connection points: 4
#     Node 5, Type 1, BuildingBlock: NAWXER_clean_linker_0, # of connection points: 4
#     Edge 6, Type (0, 1), BuildingBlock: EYOCIG_clean_linker_4, # of connection points: 2
#     Edge 7, Type (0, 1), BuildingBlock: EYOCIG_clean_linker_4, # of connection points: 2
#     Edge 8, Type (0, 1), BuildingBlock: EYOCIG_clean_linker_4, # of connection points: 2
#     Edge 9, Type (0, 1), BuildingBlock: EYOCIG_clean_linker_4, # of connection points: 2
#     Edge 10, Type (0, 1), BuildingBlock: EYOCIG_clean_linker_4, # of connection points: 2
#     Edge 11, Type (0, 1), BuildingBlock: EYOCIG_clean_linker_4, # of connection points: 2
#     Edge 12, Type (0, 1), BuildingBlock: EYOCIG_clean_linker_4, # of connection points: 2
#     Edge 13, Type (0, 1), BuildingBlock: EYOCIG_clean_linker_4, # of connection points: 2
#     Edge 14, Type (0, 1), BuildingBlock: EYOCIG_clean_linker_4, # of connection points: 2
#     Edge 15, Type (0, 1), BuildingBlock: EYOCIG_clean_linker_4, # of connection points: 2
#     Edge 16, Type (0, 1), BuildingBlock: EYOCIG_clean_linker_4, # of connection points: 2
#     Edge 17, Type (0, 1), BuildingBlock: EYOCIG_clean_linker_4, # of connection points: 2
# Relax obj value: 0.002
# Max RMSD: 0.036
# Mean RMSD: 0.021
data_MOF--net-pth--node1-GALJAG_clean_sbu_0--node2-NAWXER_clean_linker_0--edge1-EYOCIG_clean_linker_4
_symmetry_space_group_name_H-M    P1
_symmetry_Int_Tables_number       1
_symmetry_cell_setting            triclinic
loop_
_symmetry_equiv_pos_as_xyz
'x, y, z'
_cell_length_a     24.341849
_cell_length_b     24.339491
_cell_length_c     52.990166
_cell_angle_alpha  90.145454
_cell_angle_beta   90.154006
_cell_angle_gamma 119.96706
loop_
_atom_site_label
_atom_site_type_symbol
_atom_site_fract_x
_atom_site_fract_y
_atom_site_fract_z
_atom_type_partial_charge
In0 In 0.00603 0.00437 0.04491 0.0
O1 O 0.96034 0.0581 0.06191 0.0
O2 O 0.05179 0.0799 0.07555 0.0
C3 C 0.92005 0.91662 0.01349 0.0
C4 C 0.09316 0.09034 0.01379 0.0
C5 C 0.00686 0.9178 0.07588 0.0
O6 O 0.90655 0.94967 0.02786 0.0
O7 O 0.97704 0.92951 0.01406 0.0
O8 O 0.05265 0.95152 0.06146 0.0
O9 O 0.96187 0.92949 0.0757 0.0
C10 C 0.00699 0.09179 0.07621 0.0
O11 O 0.10525 0.05661 0.0283 0.0
O12 O 0.03674 0.0794 0.01417 0.0
In13 In 0.00234 0.00456 0.37824 0.0
O14 O 0.04748 0.10355 0.36124 0.0
O15 O 0.95597 0.03368 0.3477 0.0
C16 C 0.08977 0.00562 0.4095 0.0
C17 C 0.91664 0.00606 0.40954 0.0
C18 C 0.00307 0.91701 0.34754 0.0
O19 O 0.10212 0.0511 0.3948 0.0
O20 O 0.03303 0.96087 0.40932 0.0
O21 O 0.95686 0.90444 0.36187 0.0
O22 O 0.04718 0.97403 0.34763 0.0
C23 C 0.00051 0.09049 0.34714 0.0
O24 O 0.90346 0.95923 0.39533 0.0
O25 O 0.97334 0.05077 0.40886 0.0
In26 In 0.00234 0.00072 0.71159 0.0
O27 O 0.94934 0.90159 0.72842 0.0
O28 O 0.9274 0.97093 0.74225 0.0
C29 C 0.08919 0.9997 0.68078 0.0
C30 C 0.91572 0.00103 0.68022 0.0
C31 C 0.08937 0.08732 0.74301 0.0
O32 O 0.05534 0.95392 0.6952 0.0
O33 O 0.07748 0.04467 0.68089 0.0
O34 O 0.05633 0.1003 0.72841 0.0
O35 O 0.07701 0.03048 0.74259 0.0
C36 C 0.91594 0.91437 0.74284 0.0
O37 O 0.94962 0.04732 0.69462 0.0
O38 O 0.92691 0.95574 0.68083 0.0
C39 C 0.96089 0.29736 0.25355 0.0
C40 C 0.00396 0.31528 0.27367 0.0
C41 C 0.9626 0.34314 0.23722 0.0
C42 C 0.00812 0.40743 0.24062 0.0
C43 C 0.04917 0.37931 0.27731 0.0
C44 C 0.05105 0.42515 0.26094 0.0
C45 C 0.00752 0.45713 0.22482 0.0
C46 C 0.04718 0.33984 0.16978 0.0
C47 C 0.00372 0.31393 0.14982 0.0
C48 C 0.04581 0.38461 0.18591 0.0
C49 C 0.00027 0.40332 0.18245 0.0
C50 C 0.9588 0.33306 0.146 0.0
C51 C 0.95727 0.37772 0.16217 0.0
C52 C 0.00061 0.45361 0.19827 0.0
C53 C 0.04717 0.71127 0.16934 0.0
C54 C 0.00389 0.69305 0.14927 0.0
C55 C 0.04548 0.66562 0.18579 0.0
C56 C 0.99986 0.6013 0.1825 0.0
C57 C 0.95888 0.62899 0.1457 0.0
C58 C 0.95703 0.58337 0.16215 0.0
C59 C 0.00033 0.55159 0.19832 0.0
C60 C 0.96292 0.67 0.25418 0.0
C61 C 0.00697 0.69509 0.27403 0.0
C62 C 0.96335 0.62522 0.2377 0.0
C63 C 0.00841 0.60568 0.24078 0.0
C64 C 0.05124 0.67504 0.2774 0.0
C65 C 0.05182 0.63048 0.26094 0.0
C66 C 0.00719 0.55508 0.22488 0.0
H67 H 0.92543 0.24801 0.25065 0.0
H68 H 0.92744 0.32839 0.22233 0.0
H69 H 0.08268 0.39389 0.29284 0.0
H70 H 0.08588 0.47456 0.2642 0.0
H71 H 0.08253 0.32585 0.17277 0.0
H72 H 0.0811 0.40539 0.20075 0.0
H73 H 0.92512 0.31367 0.13053 0.0
H74 H 0.92248 0.39232 0.15884 0.0
H75 H 0.0825 0.76068 0.1722 0.0
H76 H 0.08061 0.6805 0.2007 0.0
H77 H 0.92523 0.61424 0.13021 0.0
H78 H 0.92217 0.53394 0.15895 0.0
H79 H 0.92804 0.68475 0.25151 0.0
H80 H 0.92783 0.60509 0.22292 0.0
H81 H 0.08535 0.69381 0.29274 0.0
H82 H 0.08627 0.6153 0.26398 0.0
N83 N 0.0107 0.5078 0.23694 0.0
N84 N 0.9971 0.50087 0.1862 0.0
C85 C 0.70959 0.04591 0.50312 0.0
C86 C 0.69189 0.00259 0.4831 0.0
C87 C 0.66362 0.04438 0.5193 0.0
C88 C 0.59937 0.99881 0.51583 0.0
C89 C 0.62786 0.9576 0.4793 0.0
C90 C 0.58184 0.95592 0.49551 0.0
C91 C 0.54953 0.99915 0.53163 0.0
C92 C 0.66747 0.96036 0.58679 0.0
C93 C 0.69339 0.00417 0.60665 0.0
C94 C 0.62244 0.96125 0.57065 0.0
C95 C 0.60345 0.0066 0.57403 0.0
C96 C 0.67375 0.0487 0.61044 0.0
C97 C 0.62884 0.04973 0.59428 0.0
C98 C 0.55304 0.00596 0.55819 0.0
C99 C 0.29565 0.95993 0.58733 0.0
C100 C 0.31425 0.00333 0.60738 0.0
C101 C 0.34102 0.96134 0.5708 0.0
C102 C 0.40544 0.00675 0.57401 0.0
C103 C 0.37838 0.04823 0.61082 0.0
C104 C 0.4237 0.04978 0.59429 0.0
C105 C 0.45499 0.00602 0.55817 0.0
C106 C 0.33784 0.04574 0.5028 0.0
C107 C 0.31235 0.00219 0.48282 0.0
C108 C 0.38238 0.04443 0.51913 0.0
C109 C 0.40122 0.99892 0.5158 0.0
C110 C 0.33173 0.95747 0.47916 0.0
C111 C 0.37604 0.95598 0.4955 0.0
C112 C 0.4515 0.9993 0.53162 0.0
H113 H 0.75892 0.08131 0.50611 0.0
H114 H 0.67823 0.0796 0.53416 0.0
H115 H 0.61344 0.92401 0.4638 0.0
H116 H 0.53245 0.92113 0.49216 0.0
H117 H 0.68177 0.92522 0.58386 0.0
H118 H 0.60177 0.92583 0.55585 0.0
H119 H 0.69306 0.08256 0.62585 0.0
H120 H 0.61394 0.08431 0.59757 0.0
H121 H 0.24616 0.92473 0.58456 0.0
H122 H 0.32588 0.92614 0.5559 0.0
H123 H 0.39343 0.08201 0.62627 0.0
H124 H 0.47319 0.08457 0.5974 0.0
H125 H 0.32356 0.08091 0.50569 0.0
H126 H 0.40286 0.07967 0.534 0.0
H127 H 0.31259 0.92369 0.46371 0.0
H128 H 0.39071 0.9212 0.49228 0.0
N129 N 0.49879 0.99589 0.51952 0.0
N130 N 0.50574 0.00932 0.57027 0.0
C131 C 0.34029 0.29351 0.83607 0.0
C132 C 0.31426 0.31158 0.81637 0.0
C133 C 0.38544 0.33929 0.85227 0.0
C134 C 0.40444 0.40365 0.8491 0.0
C135 C 0.33397 0.37575 0.81277 0.0
C136 C 0.379 0.42154 0.82899 0.0
C137 C 0.45499 0.45336 0.86495 0.0
C138 C 0.29955 0.33599 0.92043 0.0
C139 C 0.3181 0.31054 0.94017 0.0
C140 C 0.34491 0.38069 0.90418 0.0
C141 C 0.40937 0.39984 0.90733 0.0
C142 C 0.38236 0.33028 0.94371 0.0
C143 C 0.42773 0.37486 0.92745 0.0
C144 C 0.45872 0.45016 0.8915 0.0
C145 C 0.67161 0.70824 0.92041 0.0
C146 C 0.69768 0.69 0.94006 0.0
C147 C 0.6263 0.6625 0.90421 0.0
C148 C 0.6072 0.59808 0.90736 0.0
C149 C 0.67769 0.6258 0.94365 0.0
C150 C 0.63259 0.58012 0.92746 0.0
C151 C 0.55668 0.54831 0.89152 0.0
C152 C 0.71263 0.66531 0.83626 0.0
C153 C 0.69432 0.6912 0.81659 0.0
C154 C 0.66702 0.62042 0.85239 0.0
C155 C 0.60262 0.6015 0.84916 0.0
C156 C 0.63011 0.67136 0.81289 0.0
C157 C 0.58452 0.62662 0.82902 0.0
C158 C 0.55307 0.55139 0.86497 0.0
H159 H 0.32592 0.24405 0.83885 0.0
H160 H 0.40619 0.32444 0.86695 0.0
H161 H 0.31458 0.39044 0.79749 0.0
H162 H 0.39392 0.47102 0.82584 0.0
H163 H 0.25003 0.32161 0.91768 0.0
H164 H 0.32969 0.40105 0.88949 0.0
H165 H 0.39745 0.31135 0.95901 0.0
H166 H 0.47729 0.38987 0.93058 0.0
H167 H 0.68618 0.75775 0.91763 0.0
H168 H 0.60561 0.67739 0.88952 0.0
H169 H 0.69709 0.61099 0.95889 0.0
H170 H 0.61764 0.53062 0.93058 0.0
H171 H 0.76213 0.67976 0.83913 0.0
H172 H 0.682 0.59989 0.8671 0.0
H173 H 0.61525 0.69064 0.79764 0.0
H174 H 0.53503 0.61178 0.82582 0.0
N175 N 0.50222 0.50394 0.85288 0.0
N176 N 0.50952 0.49767 0.90359 0.0
C177 C 0.01002 0.18225 0.10482 0.0
C178 C 0.00944 0.14116 0.09188 0.0
C179 C 0.00808 0.22893 0.12002 0.0
C180 C 0.0054 0.26761 0.13341 0.0
C181 C 0.82941 0.00938 0.43796 0.0
C182 C 0.8699 0.00875 0.42512 0.0
C183 C 0.7809 0.00737 0.45316 0.0
C184 C 0.73971 0.0045 0.46661 0.0
C185 C 0.82705 0.827 0.77164 0.0
C186 C 0.86747 0.86736 0.75859 0.0
C187 C 0.78061 0.77925 0.78705 0.0
C188 C 0.74141 0.73911 0.80055 0.0
C189 C 0.00507 0.82669 0.10342 0.0
C190 C 0.00535 0.86815 0.09093 0.0
C191 C 0.00541 0.77947 0.1187 0.0
C192 C 0.00475 0.74012 0.13264 0.0
C193 C 0.17836 0.00402 0.43782 0.0
C194 C 0.13754 0.00425 0.42497 0.0
C195 C 0.22603 0.00379 0.45295 0.0
C196 C 0.26534 0.0026 0.46644 0.0
C197 C 0.17993 0.17504 0.77155 0.0
C198 C 0.13875 0.13448 0.75863 0.0
C199 C 0.22729 0.22327 0.78672 0.0
C200 C 0.26688 0.26405 0.80008 0.0
C201 C 0.8263 0.99974 0.65149 0.0
C202 C 0.86693 0.99959 0.66449 0.0
C203 C 0.77958 0.00157 0.63628 0.0
C204 C 0.74035 0.00342 0.62296 0.0
C205 C 0.83347 0.82496 0.98495 0.0
C206 C 0.8734 0.86668 -0.00211 0.0
C207 C 0.78599 0.77715 0.96967 0.0
C208 C 0.74576 0.73717 0.95625 0.0
C209 C 0.00796 0.82865 0.32022 0.0
C210 C 0.00609 0.86925 0.33264 0.0
C211 C 0.00804 0.78135 0.30478 0.0
C212 C 0.00751 0.74203 0.29076 0.0
C213 C 0.18052 0.00165 0.65333 0.0
C214 C 0.13894 0.00121 0.66579 0.0
C215 C 0.22799 0.00168 0.63809 0.0
C216 C 0.26748 0.00262 0.62414 0.0
C217 C 0.18193 0.17888 0.98531 0.0
C218 C 0.14084 0.13866 -0.00181 0.0
C219 C 0.2304 0.22514 0.97009 0.0
C220 C 0.27102 0.264 0.95664 0.0
C221 C 0.99634 0.17824 0.31934 0.0
C222 C 0.99738 0.13754 0.3319 0.0
C223 C 0.99827 0.22674 0.30415 0.0
C224 C 0.00154 0.26771 0.29045 0.0
loop_
_geom_bond_atom_site_label_1
_geom_bond_atom_site_label_2
_geom_bond_distance
_geom_bond_site_symmetry_2
_ccdc_geom_bond_type
In0 O1 2.294 1_455 S
In0 O2 2.326 . S
In0 O6 2.266 1_445 S
In0 O7 2.326 1_445 S
In0 O8 2.266 1_545 S
In0 O9 2.326 1_445 S
In0 O11 2.294 . S
In0 O12 2.326 . S
O1 In0 2.294 1_655 S
O1 C10 1.240 1_655 S
O2 In0 2.326 . S
O2 C10 1.252 . S
C3 O6 1.252 . S
C3 O7 1.260 . S
C4 O11 1.240 . S
C4 O12 1.252 . S
C5 O8 1.252 1_655 S
C5 O9 1.260 . S
O6 In0 2.266 1_665 S
O6 C3 1.252 . S
O7 In0 2.326 1_665 S
O7 C3 1.260 . S
O8 In0 2.266 1_565 S
O8 C5 1.252 1_455 S
O9 In0 2.326 1_665 S
O9 C5 1.260 . S
C10 O1 1.240 1_455 S
C10 O2 1.252 . S
O11 In0 2.294 . S
O11 C4 1.240 . S
O12 In0 2.326 . S
O12 C4 1.252 . S
In13 O14 2.294 . S
In13 O15 2.326 1_455 S
In13 O19 2.266 . S
In13 O20 2.326 1_545 S
In13 O21 2.266 1_445 S
In13 O22 2.326 1_545 S
In13 O24 2.294 1_445 S
In13 O25 2.326 1_455 S
O14 In13 2.294 . S
O14 C23 1.240 1_455 S
O15 In13 2.326 1_655 S
O15 C23 1.252 . S
C16 O19 1.252 1_565 S
C16 O20 1.260 . S
C17 O24 1.240 1_545 S
C17 O25 1.252 . S
C18 O21 1.252 1_455 S
C18 O22 1.260 . S
O19 In13 2.266 . S
O19 C16 1.252 1_545 S
O20 In13 2.326 1_565 S
O20 C16 1.260 . S
O21 In13 2.266 1_665 S
O21 C18 1.252 1_655 S
O22 In13 2.326 1_565 S
O22 C18 1.260 . S
C23 O14 1.240 1_655 S
C23 O15 1.252 . S
O24 In13 2.294 1_665 S
O24 C17 1.240 1_565 S
O25 In13 2.326 1_655 S
O25 C17 1.252 . S
In26 O27 2.278 1_445 S
In26 O28 2.329 1_445 S
In26 O32 2.251 1_545 S
In26 O33 2.328 . S
In26 O34 2.282 . S
In26 O35 2.323 . S
In26 O37 2.310 1_455 S
In26 O38 2.324 1_445 S
O27 In26 2.278 1_665 S
O27 C36 1.240 . S
O28 In26 2.329 1_665 S
O28 C36 1.252 . S
C29 O32 1.252 1_545 S
C29 O33 1.260 . S
C30 O37 1.240 1_565 S
C30 O38 1.252 . S
C31 O34 1.252 . S
C31 O35 1.260 . S
O32 In26 2.251 1_565 S
O32 C29 1.252 1_565 S
O33 In26 2.328 . S
O33 C29 1.260 . S
O34 In26 2.282 . S
O34 C31 1.252 . S
O35 In26 2.323 . S
O35 C31 1.260 . S
C36 O27 1.240 . S
C36 O28 1.252 . S
O37 In26 2.310 1_655 S
O37 C30 1.240 1_545 S
O38 In26 2.324 1_665 S
O38 C30 1.252 . S
C39 C40 1.384 1_655 S
C39 C41 1.384 . S
C39 H67 0.931 . S
C40 C39 1.384 1_455 S
C40 C43 1.382 . S
C41 C39 1.384 . S
C41 C42 1.381 1_655 S
C41 H68 0.930 . S
C42 C41 1.381 1_455 S
C42 C44 1.381 . S
C42 C45 1.487 . S
C43 C40 1.382 . S
C43 C44 1.387 . S
C43 H69 0.930 . S
C44 C42 1.381 . S
C44 C43 1.387 . S
C44 H70 0.931 . S
C45 C42 1.487 . S
C45 C52 1.399 . S
C45 N83 1.343 . S
C46 C47 1.384 . S
C46 C48 1.384 . S
C46 H71 0.931 . S
C47 C46 1.384 . S
C47 C50 1.382 1_455 S
C48 C46 1.384 . S
C48 C49 1.391 . S
C48 H72 0.930 . S
C49 C48 1.391 . S
C49 C51 1.376 1_455 S
C49 C52 1.483 . S
C50 C47 1.382 1_655 S
C50 C51 1.387 . S
C50 H73 0.930 . S
C51 C49 1.376 1_655 S
C51 C50 1.387 . S
C51 H74 0.931 . S
C52 C45 1.399 . S
C52 C49 1.483 . S
C52 N84 1.343 1_455 S
C53 C54 1.384 . S
C53 C55 1.384 . S
C53 H75 0.931 . S
C54 C53 1.384 . S
C54 C57 1.382 1_455 S
C55 C53 1.384 . S
C55 C56 1.383 . S
C55 H76 0.930 . S
C56 C55 1.383 . S
C56 C58 1.375 1_455 S
C56 C59 1.491 . S
C57 C54 1.382 1_655 S
C57 C58 1.387 . S
C57 H77 0.930 . S
C58 C56 1.375 1_655 S
C58 C57 1.387 . S
C58 H78 0.931 . S
C59 C56 1.491 . S
C59 C66 1.399 . S
C59 N84 1.343 1_455 S
C60 C61 1.384 1_655 S
C60 C62 1.384 . S
C60 H79 0.931 . S
C61 C60 1.384 1_455 S
C61 C64 1.382 . S
C62 C60 1.384 . S
C62 C63 1.381 1_655 S
C62 H80 0.930 . S
C63 C62 1.381 1_455 S
C63 C65 1.381 . S
C63 C66 1.487 . S
C64 C61 1.382 . S
C64 C65 1.387 . S
C64 H81 0.930 . S
C65 C63 1.381 . S
C65 C64 1.387 . S
C65 H82 0.931 . S
C66 C59 1.399 . S
C66 C63 1.487 . S
C66 N83 1.343 . S
H67 C39 0.931 . S
H68 C41 0.930 . S
H69 C43 0.930 . S
H70 C44 0.931 . S
H71 C46 0.931 . S
H72 C48 0.930 . S
H73 C50 0.930 . S
H74 C51 0.931 . S
H75 C53 0.931 . S
H76 C55 0.930 . S
H77 C57 0.930 . S
H78 C58 0.931 . S
H79 C60 0.931 . S
H80 C62 0.930 . S
H81 C64 0.930 . S
H82 C65 0.931 . S
N83 C45 1.343 . S
N83 C66 1.343 . S
N84 C52 1.343 1_655 S
N84 C59 1.343 1_655 S
C85 C86 1.384 . S
C85 C87 1.384 . S
C85 H113 0.931 . S
C86 C85 1.384 . S
C86 C89 1.382 1_545 S
C87 C85 1.384 . S
C87 C88 1.378 1_545 S
C87 H114 0.930 . S
C88 C87 1.378 1_565 S
C88 C90 1.391 . S
C88 C91 1.480 . S
C89 C86 1.382 1_565 S
C89 C90 1.387 . S
C89 H115 0.930 . S
C90 C88 1.391 . S
C90 C89 1.387 . S
C90 H116 0.931 . S
C91 C88 1.480 . S
C91 C98 1.399 1_565 S
C91 N129 1.344 . S
C92 C93 1.384 1_565 S
C92 C94 1.384 . S
C92 H117 0.931 . S
C93 C92 1.384 1_545 S
C93 C96 1.382 . S
C94 C92 1.384 . S
C94 C95 1.381 1_565 S
C94 H118 0.930 . S
C95 C94 1.381 1_545 S
C95 C97 1.381 . S
C95 C98 1.487 . S
C96 C93 1.382 . S
C96 C97 1.387 . S
C96 H119 0.930 . S
C97 C95 1.381 . S
C97 C96 1.387 . S
C97 H120 0.931 . S
C98 C91 1.399 1_545 S
C98 C95 1.487 . S
C98 N130 1.343 . S
C99 C100 1.384 1_565 S
C99 C101 1.384 . S
C99 H121 0.931 . S
C100 C99 1.384 1_545 S
C100 C103 1.382 . S
C101 C99 1.384 . S
C101 C102 1.381 1_565 S
C101 H122 0.930 . S
C102 C101 1.381 1_545 S
C102 C104 1.381 . S
C102 C105 1.487 . S
C103 C100 1.382 . S
C103 C104 1.387 . S
C103 H123 0.930 . S
C104 C102 1.381 . S
C104 C103 1.387 . S
C104 H124 0.931 . S
C105 C102 1.487 . S
C105 C112 1.399 1_545 S
C105 N130 1.343 . S
C106 C107 1.384 . S
C106 C108 1.384 . S
C106 H125 0.931 . S
C107 C106 1.384 . S
C107 C110 1.382 1_545 S
C108 C106 1.384 . S
C108 C109 1.366 1_545 S
C108 H126 0.930 . S
C109 C108 1.366 1_565 S
C109 C111 1.390 . S
C109 C112 1.494 . S
C110 C107 1.382 1_565 S
C110 C111 1.387 . S
C110 H127 0.930 . S
C111 C109 1.390 . S
C111 C110 1.387 . S
C111 H128 0.931 . S
C112 C105 1.399 1_565 S
C112 C109 1.494 . S
C112 N129 1.342 . S
H113 C85 0.931 . S
H114 C87 0.930 . S
H115 C89 0.930 . S
H116 C90 0.931 . S
H117 C92 0.931 . S
H118 C94 0.930 . S
H119 C96 0.930 . S
H120 C97 0.931 . S
H121 C99 0.931 . S
H122 C101 0.930 . S
H123 C103 0.930 . S
H124 C104 0.931 . S
H125 C106 0.931 . S
H126 C108 0.930 . S
H127 C110 0.930 . S
H128 C111 0.931 . S
N129 C91 1.344 . S
N129 C112 1.342 . S
N130 C98 1.343 . S
N130 C105 1.343 . S
C131 C132 1.384 . S
C131 C133 1.384 . S
C131 H159 0.931 . S
C132 C131 1.384 . S
C132 C135 1.382 . S
C133 C131 1.384 . S
C133 C134 1.381 . S
C133 H160 0.930 . S
C134 C133 1.381 . S
C134 C136 1.381 . S
C134 C137 1.487 . S
C135 C132 1.382 . S
C135 C136 1.387 . S
C135 H161 0.930 . S
C136 C134 1.381 . S
C136 C135 1.387 . S
C136 H162 0.931 . S
C137 C134 1.487 . S
C137 C144 1.399 . S
C137 N175 1.343 . S
C138 C139 1.384 . S
C138 C140 1.384 . S
C138 H163 0.931 . S
C139 C138 1.384 . S
C139 C142 1.382 . S
C140 C138 1.384 . S
C140 C141 1.381 . S
C140 H164 0.930 . S
C141 C140 1.381 . S
C141 C143 1.381 . S
C141 C144 1.487 . S
C142 C139 1.382 . S
C142 C143 1.387 . S
C142 H165 0.930 . S
C143 C141 1.381 . S
C143 C142 1.387 . S
C143 H166 0.931 . S
C144 C137 1.399 . S
C144 C141 1.487 . S
C144 N176 1.343 . S
C145 C146 1.384 . S
C145 C147 1.384 . S
C145 H167 0.931 . S
C146 C145 1.384 . S
C146 C149 1.382 . S
C147 C145 1.384 . S
C147 C148 1.381 . S
C147 H168 0.930 . S
C148 C147 1.381 . S
C148 C150 1.381 . S
C148 C151 1.487 . S
C149 C146 1.382 . S
C149 C150 1.387 . S
C149 H169 0.930 . S
C150 C148 1.381 . S
C150 C149 1.387 . S
C150 H170 0.931 . S
C151 C148 1.487 . S
C151 C158 1.399 . S
C151 N176 1.343 . S
C152 C153 1.384 . S
C152 C154 1.384 . S
C152 H171 0.931 . S
C153 C152 1.384 . S
C153 C156 1.382 . S
C154 C152 1.384 . S
C154 C155 1.381 . S
C154 H172 0.930 . S
C155 C154 1.381 . S
C155 C157 1.381 . S
C155 C158 1.487 . S
C156 C153 1.382 . S
C156 C157 1.387 . S
C156 H173 0.930 . S
C157 C155 1.381 . S
C157 C156 1.387 . S
C157 H174 0.931 . S
C158 C151 1.399 . S
C158 C155 1.487 . S
C158 N175 1.343 . S
H159 C131 0.931 . S
H160 C133 0.930 . S
H161 C135 0.930 . S
H162 C136 0.931 . S
H163 C138 0.931 . S
H164 C140 0.930 . S
H165 C142 0.930 . S
H166 C143 0.931 . S
H167 C145 0.931 . S
H168 C147 0.930 . S
H169 C149 0.930 . S
H170 C150 0.931 . S
H171 C152 0.931 . S
H172 C154 0.930 . S
H173 C156 0.930 . S
H174 C157 0.931 . S
N175 C137 1.343 . S
N175 C158 1.343 . S
N176 C144 1.343 . S
N176 C151 1.343 . S
C177 C178 1.170 . S
C177 C179 1.380 . S
C178 C177 1.170 . S
C179 C177 1.380 . S
C179 C180 1.170 . S
C180 C179 1.170 . S
C181 C182 1.170 . S
C181 C183 1.380 . S
C182 C181 1.170 . S
C183 C181 1.380 . S
C183 C184 1.170 . S
C184 C183 1.170 . S
C185 C186 1.170 . S
C185 C187 1.380 . S
C186 C185 1.170 . S
C187 C185 1.380 . S
C187 C188 1.170 . S
C188 C187 1.170 . S
C189 C190 1.170 . S
C189 C191 1.380 . S
C190 C189 1.170 . S
C191 C189 1.380 . S
C191 C192 1.170 . S
C192 C191 1.170 . S
C193 C194 1.170 . S
C193 C195 1.380 . S
C194 C193 1.170 . S
C195 C193 1.380 . S
C195 C196 1.170 . S
C196 C195 1.170 . S
C197 C198 1.170 . S
C197 C199 1.380 . S
C198 C197 1.170 . S
C199 C197 1.380 . S
C199 C200 1.170 . S
C200 C199 1.170 . S
C201 C202 1.170 1_545 S
C201 C203 1.380 . S
C202 C201 1.170 1_565 S
C203 C201 1.380 . S
C203 C204 1.170 . S
C204 C203 1.170 . S
C205 C206 1.166 1_556 S
C205 C207 1.380 . S
C206 C205 1.166 1_554 S
C207 C205 1.380 . S
C207 C208 1.170 . S
C208 C207 1.170 . S
C209 C210 1.170 . S
C209 C211 1.380 . S
C210 C209 1.170 . S
C211 C209 1.380 . S
C211 C212 1.170 . S
C212 C211 1.170 . S
C213 C214 1.178 . S
C213 C215 1.369 1_545 S
C214 C213 1.178 . S
C215 C213 1.369 1_565 S
C215 C216 1.180 1_565 S
C216 C215 1.180 1_545 S
C217 C218 1.172 1_556 S
C217 C219 1.380 . S
C218 C217 1.172 1_554 S
C219 C217 1.380 . S
C219 C220 1.170 . S
C220 C219 1.170 . S
C221 C222 1.170 . S
C221 C223 1.380 . S
C222 C221 1.170 . S
C223 C221 1.380 . S
C223 C224 1.163 . S
C224 C223 1.163 . S
C180 C47 1.512 . S
C178 C10 1.517 . S
C182 C17 1.517 . S
C184 C86 1.512 . S
C186 C36 1.519 . S
C188 C153 1.513 . S
C190 C5 1.517 1_455 S
C192 C54 1.519 . S
C196 C107 1.517 . S
C194 C16 1.517 1_545 S
C198 C31 1.517 . S
C200 C132 1.512 . S
C204 C93 1.512 . S
C202 C30 1.517 . S
C206 C3 1.521 . S
C208 C146 1.511 . S
C212 C61 1.515 . S
C210 C18 1.517 . S
C216 C100 1.514 . S
C214 C29 1.517 . S
C220 C139 1.515 . S
C218 C4 1.515 . S
C222 C23 1.515 . S
C224 C40 1.521 1_655 S
