# Generated by pormake.
# Topology anh, (6,3)-cn, num edge types: 1
# Building blocks:
#     Node 0, Type 0, BuildingBlock: CUKXOW_clean_sbu_0, # of connection points: 6
#     Node 1, Type 0, BuildingBlock: CUKXOW_clean_sbu_0, # of connection points: 6
#     Node 2, Type 0, BuildingBlock: CUKXOW_clean_sbu_0, # of connection points: 6
#     Node 3, Type 1, BuildingBlock: BETDIP_clean_linker_0, # of connection points: 3
#     Node 4, Type 1, BuildingBlock: BETDIP_clean_linker_0, # of connection points: 3
#     Node 5, Type 1, BuildingBlock: BETDIP_clean_linker_0, # of connection points: 3
#     Node 6, Type 1, BuildingBlock: BETDIP_clean_linker_0, # of connection points: 3
#     Node 7, Type 1, BuildingBlock: BETDIP_clean_linker_0, # of connection points: 3
#     Node 8, Type 1, BuildingBlock: BETDIP_clean_linker_0, # of connection points: 3
#     Edge 9, Type (0, 1), None
#     Edge 10, Type (0, 1), None
#     Edge 11, Type (0, 1), None
#     Edge 12, Type (0, 1), None
#     Edge 13, Type (0, 1), None
#     Edge 14, Type (0, 1), None
#     Edge 15, Type (0, 1), None
#     Edge 16, Type (0, 1), None
#     Edge 17, Type (0, 1), None
#     Edge 18, Type (0, 1), None
#     Edge 19, Type (0, 1), None
#     Edge 20, Type (0, 1), None
#     Edge 21, Type (0, 1), None
#     Edge 22, Type (0, 1), None
#     Edge 23, Type (0, 1), None
#     Edge 24, Type (0, 1), None
#     Edge 25, Type (0, 1), None
#     Edge 26, Type (0, 1), None
# Relax obj value: 0.115
# Max RMSD: 0.181
# Mean RMSD: 0.113
data_MOF--net-anh--node1-CUKXOW_clean_sbu_0--node2-BETDIP_clean_linker_0--edge1-none
_symmetry_space_group_name_H-M    P1
_symmetry_Int_Tables_number       1
_symmetry_cell_setting            triclinic
loop_
_symmetry_equiv_pos_as_xyz
'x, y, z'
_cell_length_a     12.069985
_cell_length_b     12.131783
_cell_length_c     21.176254
_cell_angle_alpha  100.50552
_cell_angle_beta   89.927313
_cell_angle_gamma 105.44824
loop_
_atom_site_label
_atom_site_type_symbol
_atom_site_fract_x
_atom_site_fract_y
_atom_site_fract_z
_atom_type_partial_charge
Tb0 Tb 0.1961 0.68956 0.15073 0.0
C1 C 0.15867 0.59544 0.28193 0.0
Tb2 Tb 0.0989 0.42506 0.14635 0.0
O3 O 1.02725 0.71329 0.12428 0.0
O4 O 1.03832 0.57505 0.16676 0.0
O5 O 0.20356 0.684 0.25258 0.0
C6 C 0.96587 0.21564 0.15287 0.0
O7 O 0.10972 0.48786 0.25038 0.0
C8 C 0.31896 0.49326 0.12045 0.0
C9 C 0.11206 0.52249 0.01863 0.0
O10 O 1.07059 0.25772 0.1774 0.0
O11 O 0.93619 0.29108 0.12514 0.0
O12 O 0.25069 0.39137 0.09719 0.0
O13 O 0.2637 0.54797 0.15921 0.0
O14 O 1.05814 0.43887 0.04898 0.0
O15 O 0.18215 0.62255 0.04794 0.0
C16 C 0.36275 0.88813 0.16354 0.0
O17 O 0.26794 0.8726 0.19436 0.0
O18 O 0.35988 0.79287 0.1233 0.0
C19 C 0.96847 0.61667 0.14082 0.0
Tb20 Tb 0.50479 0.03221 0.48647 0.0
C21 C 0.61449 0.06656 0.35659 0.0
Tb22 Tb 0.76686 0.12541 0.48604 0.0
O23 O 0.47611 0.19705 0.47093 0.0
O24 O 0.62724 0.19585 0.51457 0.0
O25 O 0.53301 0.99944 0.38515 0.0
C26 C 0.97632 0.26405 0.47838 0.0
O27 O 0.71067 0.13412 0.38845 0.0
C28 C 0.68812 0.89808 0.47682 0.0
C29 C 0.65227 0.09715 0.61894 0.0
O30 O 0.9418 0.15493 0.45147 0.0
O31 O 0.89382 0.29467 0.50971 0.0
O32 O 0.78995 0.9567 0.50184 0.0
O33 O 0.64297 0.966 0.45472 0.0
O34 O 0.74685 0.14305 0.58999 0.0
O35 O 0.55096 0.0456 0.58786 0.0
C36 C 0.30316 0.87198 0.4836 0.0
O37 O 0.32285 0.96275 0.45643 0.0
O38 O 0.39584 0.87755 0.51624 0.0
C39 C 0.58046 0.25992 0.48909 0.0
Tb40 Tb 0.46052 0.49155 0.79568 0.0
C41 C 0.56079 0.57088 0.93431 0.0
Tb42 Tb 0.71791 0.62398 0.81695 0.0
O43 O 0.50283 0.35317 0.83488 0.0
O44 O 0.62014 0.44956 0.7825 0.0
O45 O 0.46663 0.55592 0.89813 0.0
C46 C 0.93805 0.63795 0.84175 0.0
O47 O 0.66296 0.57861 0.90949 0.0
C48 C 0.5966 0.77214 0.81632 0.0
C49 C 0.60424 0.56378 0.67845 0.0
O50 O 0.86821 0.67108 0.88285 0.0
O51 O 0.88507 0.60744 0.78539 0.0
O52 O 0.70845 0.80394 0.8238 0.0
O53 O 0.56226 0.66384 0.81123 0.0
O54 O 0.70231 0.59167 0.71322 0.0
O55 O 0.50074 0.53691 0.70213 0.0
C56 C 0.24608 0.3706 0.75803 0.0
O57 O 0.27533 0.46597 0.80128 0.0
O58 O 0.33757 0.34665 0.73444 0.0
C59 C 0.60388 0.36624 0.81197 0.0
H60 H 0.55569 0.96937 0.10008 0.0
H61 H 0.77775 0.12379 0.27035 0.0
H62 H 0.41542 0.98061 0.28673 0.0
H63 H 0.91273 0.05822 0.19543 0.0
C64 C 0.88722 0.10612 0.162 0.0
C65 C 0.56675 0.99669 0.15188 0.0
C66 C 0.472 0.97125 0.19027 0.0
C67 C 0.67703 0.05289 0.18028 0.0
C68 C 0.69272 0.08255 0.24781 0.0
C69 C 0.59879 0.05526 0.28641 0.0
C70 C 0.48827 1.00393 0.25714 0.0
N71 N 0.77058 0.07961 0.14 0.0
H72 H 0.64697 0.45116 0.42644 0.0
H73 H 0.65761 0.71299 0.59631 0.0
H74 H 0.56552 0.35225 0.60999 0.0
H75 H 0.53657 0.75093 0.48223 0.0
C76 C 0.62915 0.77482 0.47815 0.0
C77 C 0.63641 0.47453 0.4775 0.0
C78 C 0.60377 0.38643 0.5151 0.0
C79 C 0.65376 0.59344 0.50677 0.0
C80 C 0.64126 0.62245 0.57298 0.0
C81 C 0.61006 0.53554 0.60937 0.0
C82 C 0.59041 0.41874 0.58069 0.0
N83 N 0.68702 0.68522 0.4713 0.0
H84 H 0.99443 0.4566 0.76901 0.0
H85 H 0.10491 0.33128 0.92758 0.0
H86 H 1.04784 0.67212 0.95785 0.0
H87 H 0.11982 0.2087 0.71233 0.0
C88 C 0.13213 0.28579 0.74961 0.0
C89 C 1.02269 0.473 0.81926 0.0
C90 C 1.01688 0.57523 0.86059 0.0
C91 C 1.05271 0.38488 0.84351 0.0
C92 C 1.08223 0.40033 0.90894 0.0
C93 C 1.08629 0.5066 0.94962 0.0
C94 C 1.05439 0.59426 0.92523 0.0
N95 N 1.05663 0.28196 0.80101 0.0
H96 H 0.20609 0.68641 0.54004 0.0
H97 H 1.09052 0.44167 0.36313 0.0
H98 H 0.23982 0.80402 0.35992 0.0
H99 H 0.13933 0.31586 0.4307 0.0
C100 C 1.08455 0.34508 0.46706 0.0
C101 C 0.1914 0.66857 0.48823 0.0
C102 C 0.22598 0.75894 0.4536 0.0
C103 C 0.14199 0.55409 0.45599 0.0
C104 C 0.12847 0.52992 0.38834 0.0
C105 C 0.16397 0.61971 0.35317 0.0
C106 C 0.20952 0.73427 0.38652 0.0
N107 N 0.10354 0.46541 0.49267 0.0
H108 H 0.59417 0.18834 0.87146 0.0
H109 H 0.60813 0.94154 0.70002 0.0
H110 H 0.68039 0.30561 0.6934 0.0
H111 H 0.44891 0.81646 0.77513 0.0
C112 C 0.52815 0.84914 0.80492 0.0
C113 C 0.61416 0.17067 0.82127 0.0
C114 C 0.63864 0.26044 0.78627 0.0
C115 C 0.60294 0.05612 0.79094 0.0
C116 C 0.62036 0.0308 0.72455 0.0
C117 C 0.65288 0.12179 0.68972 0.0
C118 C 0.66443 0.23684 0.72127 0.0
N119 N 0.5732 0.96932 0.82917 0.0
H120 H 0.53333 0.55776 0.18645 0.0
H121 H 0.73596 0.60843 0.02179 0.0
H122 H 0.36641 0.52274 0.00122 0.0
H123 H 0.82493 0.47338 0.08968 0.0
C124 C 0.84506 0.55708 0.12223 0.0
C125 C 0.53851 0.56261 0.13593 0.0
C126 C 0.43588 0.53896 0.09702 0.0
C127 C 0.6476 0.58462 0.10812 0.0
C128 C 0.65247 0.58886 0.04253 0.0
C129 C 0.55206 0.56946 0.00391 0.0
C130 C 0.44444 0.54298 0.03134 0.0
N131 N 0.75273 0.60515 0.14547 0.0
loop_
_geom_bond_atom_site_label_1
_geom_bond_atom_site_label_2
_geom_bond_distance
_geom_bond_site_symmetry_2
_ccdc_geom_bond_type
Tb0 O3 2.453 1_455 S
Tb0 O4 2.596 1_455 S
Tb0 O5 2.374 . S
Tb0 O13 2.343 . S
Tb0 O15 2.353 . S
Tb0 O17 2.427 . S
Tb0 O18 2.513 . S
C1 O5 1.251 . S
C1 O7 1.263 . S
Tb2 O4 2.343 1_455 S
Tb2 O7 2.353 . S
Tb2 O10 2.427 1_455 S
Tb2 O11 2.513 1_455 S
Tb2 O12 2.453 . S
Tb2 O13 2.596 . S
Tb2 O14 2.374 . S
O3 Tb0 2.453 1_655 S
O3 C19 1.245 . S
O4 Tb0 2.596 1_655 S
O4 Tb2 2.343 1_655 S
O4 C19 1.259 . S
O5 Tb0 2.374 . S
O5 C1 1.251 . S
C6 O10 1.275 . S
C6 O11 1.246 . S
O7 C1 1.263 . S
O7 Tb2 2.353 . S
C8 O12 1.245 . S
C8 O13 1.259 . S
C9 O14 1.250 . S
C9 O15 1.263 . S
O10 Tb2 2.427 1_655 S
O10 C6 1.275 . S
O11 Tb2 2.513 1_655 S
O11 C6 1.246 . S
O12 Tb2 2.453 . S
O12 C8 1.245 . S
O13 Tb0 2.343 . S
O13 Tb2 2.596 . S
O13 C8 1.259 . S
O14 Tb2 2.374 . S
O14 C9 1.250 . S
O15 Tb0 2.353 . S
O15 C9 1.263 . S
C16 O17 1.275 . S
C16 O18 1.246 . S
O17 Tb0 2.427 . S
O17 C16 1.275 . S
O18 Tb0 2.513 . S
O18 C16 1.246 . S
C19 O3 1.245 . S
C19 O4 1.259 . S
Tb20 O23 2.453 . S
Tb20 O24 2.596 . S
Tb20 O25 2.374 . S
Tb20 O33 2.343 1_545 S
Tb20 O35 2.353 . S
Tb20 O37 2.427 1_545 S
Tb20 O38 2.513 1_545 S
C21 O25 1.251 . S
C21 O27 1.263 . S
Tb22 O24 2.343 . S
Tb22 O27 2.353 . S
Tb22 O30 2.427 . S
Tb22 O31 2.513 . S
Tb22 O32 2.453 1_545 S
Tb22 O33 2.596 1_545 S
Tb22 O34 2.374 . S
O23 Tb20 2.453 . S
O23 C39 1.245 . S
O24 Tb20 2.596 . S
O24 Tb22 2.343 . S
O24 C39 1.259 . S
O25 Tb20 2.374 . S
O25 C21 1.251 . S
C26 O30 1.275 . S
C26 O31 1.246 . S
O27 C21 1.263 . S
O27 Tb22 2.353 . S
C28 O32 1.245 . S
C28 O33 1.259 . S
C29 O34 1.250 . S
C29 O35 1.263 . S
O30 Tb22 2.427 . S
O30 C26 1.275 . S
O31 Tb22 2.513 . S
O31 C26 1.246 . S
O32 Tb22 2.453 1_565 S
O32 C28 1.245 . S
O33 Tb20 2.343 1_565 S
O33 Tb22 2.596 1_565 S
O33 C28 1.259 . S
O34 Tb22 2.374 . S
O34 C29 1.250 . S
O35 Tb20 2.353 . S
O35 C29 1.263 . S
C36 O37 1.275 . S
C36 O38 1.246 . S
O37 Tb20 2.427 1_565 S
O37 C36 1.275 . S
O38 Tb20 2.513 1_565 S
O38 C36 1.246 . S
C39 O23 1.245 . S
C39 O24 1.259 . S
Tb40 O43 2.453 . S
Tb40 O44 2.596 . S
Tb40 O45 2.374 . S
Tb40 O53 2.343 . S
Tb40 O55 2.353 . S
Tb40 O57 2.427 . S
Tb40 O58 2.513 . S
C41 O45 1.251 . S
C41 O47 1.263 . S
Tb42 O44 2.343 . S
Tb42 O47 2.353 . S
Tb42 O50 2.427 . S
Tb42 O51 2.513 . S
Tb42 O52 2.453 . S
Tb42 O53 2.596 . S
Tb42 O54 2.374 . S
O43 Tb40 2.453 . S
O43 C59 1.245 . S
O44 Tb40 2.596 . S
O44 Tb42 2.343 . S
O44 C59 1.259 . S
O45 Tb40 2.374 . S
O45 C41 1.251 . S
C46 O50 1.275 . S
C46 O51 1.246 . S
O47 C41 1.263 . S
O47 Tb42 2.353 . S
C48 O52 1.245 . S
C48 O53 1.259 . S
C49 O54 1.250 . S
C49 O55 1.263 . S
O50 Tb42 2.427 . S
O50 C46 1.275 . S
O51 Tb42 2.513 . S
O51 C46 1.246 . S
O52 Tb42 2.453 . S
O52 C48 1.245 . S
O53 Tb40 2.343 . S
O53 Tb42 2.596 . S
O53 C48 1.259 . S
O54 Tb42 2.374 . S
O54 C49 1.250 . S
O55 Tb40 2.353 . S
O55 C49 1.263 . S
C56 O57 1.275 . S
C56 O58 1.246 . S
O57 Tb40 2.427 . S
O57 C56 1.275 . S
O58 Tb40 2.513 . S
O58 C56 1.246 . S
C59 O43 1.245 . S
C59 O44 1.259 . S
H60 C65 0.930 . S
H61 C68 0.930 . S
H62 C70 0.930 . S
H63 C64 1.016 . S
C64 H63 1.016 . S
C64 N71 1.286 . S
C65 H60 0.930 . S
C65 C66 1.397 . S
C65 C67 1.361 1_565 S
C66 C65 1.397 . S
C66 C70 1.390 . S
C67 C65 1.361 1_545 S
C67 C68 1.393 . S
C67 N71 1.413 . S
C68 H61 0.930 . S
C68 C67 1.393 . S
C68 C69 1.399 . S
C69 C68 1.399 . S
C69 C70 1.381 1_545 S
C70 H62 0.930 . S
C70 C66 1.390 . S
C70 C69 1.381 1_565 S
N71 C64 1.286 . S
N71 C67 1.413 . S
H72 C77 0.930 . S
H73 C80 0.930 . S
H74 C82 0.930 . S
H75 C76 1.016 . S
C76 H75 1.016 . S
C76 N83 1.286 . S
C77 H72 0.930 . S
C77 C78 1.397 . S
C77 C79 1.361 . S
C78 C77 1.397 . S
C78 C82 1.390 . S
C79 C77 1.361 . S
C79 C80 1.393 . S
C79 N83 1.413 . S
C80 H73 0.930 . S
C80 C79 1.393 . S
C80 C81 1.399 . S
C81 C80 1.399 . S
C81 C82 1.381 . S
C82 H74 0.930 . S
C82 C78 1.390 . S
C82 C81 1.381 . S
N83 C76 1.286 . S
N83 C79 1.413 . S
H84 C89 0.930 . S
H85 C92 0.930 . S
H86 C94 0.930 . S
H87 C88 1.016 . S
C88 H87 1.016 . S
C88 N95 1.286 . S
C89 H84 0.930 . S
C89 C90 1.397 . S
C89 C91 1.361 1_655 S
C90 C89 1.397 . S
C90 C94 1.390 . S
C91 C89 1.361 1_455 S
C91 C92 1.393 . S
C91 N95 1.413 . S
C92 H85 0.930 . S
C92 C91 1.393 . S
C92 C93 1.399 . S
C93 C92 1.399 . S
C93 C94 1.381 1_455 S
C94 H86 0.930 . S
C94 C90 1.390 . S
C94 C93 1.381 1_655 S
N95 C88 1.286 . S
N95 C91 1.413 . S
H96 C101 0.930 . S
H97 C104 0.930 . S
H98 C106 0.930 . S
H99 C100 1.016 . S
C100 H99 1.016 . S
C100 N107 1.286 . S
C101 H96 0.930 . S
C101 C102 1.397 . S
C101 C103 1.361 1_455 S
C102 C101 1.397 . S
C102 C106 1.390 . S
C103 C101 1.361 1_655 S
C103 C104 1.393 . S
C103 N107 1.413 . S
C104 H97 0.930 . S
C104 C103 1.393 . S
C104 C105 1.399 1_655 S
C105 C104 1.399 1_455 S
C105 C106 1.381 . S
C106 H98 0.930 . S
C106 C102 1.390 . S
C106 C105 1.381 . S
N107 C100 1.286 . S
N107 C103 1.413 . S
H108 C113 0.930 . S
H109 C116 0.930 . S
H110 C118 0.930 . S
H111 C112 1.016 . S
C112 H111 1.016 . S
C112 N119 1.286 . S
C113 H108 0.930 . S
C113 C114 1.397 . S
C113 C115 1.361 . S
C114 C113 1.397 . S
C114 C118 1.390 . S
C115 C113 1.361 . S
C115 C116 1.393 1_545 S
C115 N119 1.413 1_545 S
C116 H109 0.930 . S
C116 C115 1.393 1_565 S
C116 C117 1.399 1_565 S
C117 C116 1.399 1_545 S
C117 C118 1.381 . S
C118 H110 0.930 . S
C118 C114 1.390 . S
C118 C117 1.381 . S
N119 C112 1.286 . S
N119 C115 1.413 1_565 S
H120 C125 0.930 . S
H121 C128 0.930 . S
H122 C130 0.930 . S
H123 C124 1.016 . S
C124 H123 1.016 . S
C124 N131 1.286 . S
C125 H120 0.930 . S
C125 C126 1.397 . S
C125 C127 1.361 . S
C126 C125 1.397 . S
C126 C130 1.390 . S
C127 C125 1.361 . S
C127 C128 1.393 . S
C127 N131 1.413 . S
C128 H121 0.930 . S
C128 C127 1.393 . S
C128 C129 1.399 . S
C129 C128 1.399 . S
C129 C130 1.381 . S
C130 H122 0.930 . S
C130 C126 1.390 . S
C130 C129 1.381 . S
N131 C124 1.286 . S
N131 C127 1.413 . S
C8 C126 2.626 . S
C26 C100 1.367 . S
C48 C112 1.613 . S
C19 C124 2.221 . S
C102 C36 1.199 . S
C114 C59 1.560 . S
C28 C76 1.633 . S
C46 C90 1.263 . S
C16 C66 1.217 . S
C78 C39 1.614 . S
C88 C56 0.485 . S
C6 C64 1.594 . S
C93 C9 1.603 1_556 S
C21 C69 1.534 . S
C49 C81 1.455 . S
C117 C29 1.470 . S
C129 C41 1.891 1_554 S
C1 C105 1.488 . S
