# Generated by pormake.
# Topology rtl, (3,6)-cn, num edge types: 1
# Building blocks:
#     Node 0, Type 0, BuildingBlock: PAMTOO_clean_linker_0, # of connection points: 3
#     Node 1, Type 0, BuildingBlock: PAMTOO_clean_linker_0, # of connection points: 3
#     Node 2, Type 0, BuildingBlock: PAMTOO_clean_linker_0, # of connection points: 3
#     Node 3, Type 0, BuildingBlock: PAMTOO_clean_linker_0, # of connection points: 3
#     Node 4, Type 1, BuildingBlock: CIFDUS_clean_sbu_1, # of connection points: 6
#     Node 5, Type 1, BuildingBlock: CIFDUS_clean_sbu_1, # of connection points: 6
#     Edge 6, Type (0, 1), BuildingBlock: OJICUG_clean_linker_0, # of connection points: 2
#     Edge 7, Type (0, 1), BuildingBlock: OJICUG_clean_linker_0, # of connection points: 2
#     Edge 8, Type (0, 1), BuildingBlock: OJICUG_clean_linker_0, # of connection points: 2
#     Edge 9, Type (0, 1), BuildingBlock: OJICUG_clean_linker_0, # of connection points: 2
#     Edge 10, Type (0, 1), BuildingBlock: OJICUG_clean_linker_0, # of connection points: 2
#     Edge 11, Type (0, 1), BuildingBlock: OJICUG_clean_linker_0, # of connection points: 2
#     Edge 12, Type (0, 1), BuildingBlock: OJICUG_clean_linker_0, # of connection points: 2
#     Edge 13, Type (0, 1), BuildingBlock: OJICUG_clean_linker_0, # of connection points: 2
#     Edge 14, Type (0, 1), BuildingBlock: OJICUG_clean_linker_0, # of connection points: 2
#     Edge 15, Type (0, 1), BuildingBlock: OJICUG_clean_linker_0, # of connection points: 2
#     Edge 16, Type (0, 1), BuildingBlock: OJICUG_clean_linker_0, # of connection points: 2
#     Edge 17, Type (0, 1), BuildingBlock: OJICUG_clean_linker_0, # of connection points: 2
# Relax obj value: 0.021
# Max RMSD: 0.108
# Mean RMSD: 0.086
data_MOF--net-rtl--node1-CIFDUS_clean_sbu_1--node2-PAMTOO_clean_linker_0--edge1-OJICUG_clean_linker_0
_symmetry_space_group_name_H-M    P1
_symmetry_Int_Tables_number       1
_symmetry_cell_setting            triclinic
loop_
_symmetry_equiv_pos_as_xyz
'x, y, z'
_cell_length_a     25.995404
_cell_length_b     25.87158
_cell_length_c     15.741407
_cell_angle_alpha  90.857026
_cell_angle_beta   100.39222
_cell_angle_gamma 90.019674
loop_
_atom_site_label
_atom_site_type_symbol
_atom_site_fract_x
_atom_site_fract_y
_atom_site_fract_z
_atom_type_partial_charge
H0 H 0.13892 0.9339 0.07043 0.0
H1 H 0.24835 0.85332 0.26214 0.0
H2 H 0.25038 0.82954 0.99236 0.0
H3 H 0.25638 0.73912 0.14078 0.0
C4 C 0.29427 0.75645 0.17292 0.0
O5 O 0.29691 0.808 0.15135 0.0
H6 H 0.29685 0.75393 0.24399 0.0
C7 C 0.16988 0.90597 0.08798 0.0
C8 C 0.19023 0.88125 0.02141 0.0
C9 C 0.18959 0.89619 0.17567 0.0
C10 C 0.23233 0.86234 0.19573 0.0
C11 C 0.25425 0.83847 0.13006 0.0
C12 C 0.23316 0.84785 0.04285 0.0
H13 H 0.6133 0.6432 0.57671 0.0
H14 H 0.73213 0.73553 0.49331 0.0
H15 H 0.73056 0.7193 0.76478 0.0
H16 H 0.78292 0.82223 0.73855 0.0
C17 C 0.77693 0.8155 0.66756 0.0
O18 O 0.77876 0.76268 0.65139 0.0
H19 H 0.73813 0.83159 0.6384 0.0
C20 C 0.64743 0.66812 0.59162 0.0
C21 C 0.66954 0.67844 0.67832 0.0
C22 C 0.66957 0.68824 0.52416 0.0
C23 C 0.71416 0.7202 0.54456 0.0
C24 C 0.73571 0.73211 0.63148 0.0
C25 C 0.7138 0.71037 0.69805 0.0
H26 H 0.89103 0.11654 0.02215 0.0
H27 H 0.80872 0.23585 0.86537 0.0
H28 H 0.81473 0.23869 0.14012 0.0
H29 H 0.70691 0.25443 0.98089 0.0
C30 C 0.72719 0.28821 0.9587 0.0
O31 O 0.78024 0.28662 0.99275 0.0
H32 H 0.72197 0.28635 0.88704 0.0
C33 C 0.86692 0.15095 0.0159 0.0
C34 C 0.85463 0.17441 0.09085 0.0
C35 C 0.85063 0.17238 0.93403 0.0
C36 C 0.82148 0.21833 0.92768 0.0
C37 C 0.80795 0.24196 1.00127 0.0
C38 C 0.82481 0.22016 0.0832 0.0
H39 H 0.39817 0.42392 0.52225 0.0
H40 H 0.30531 0.30775 0.61862 0.0
H41 H 0.29289 0.3267 0.34581 0.0
H42 H 0.19641 0.28571 0.37522 0.0
C43 C 0.20798 0.2769 0.44494 0.0
O44 O 0.26188 0.27246 0.4649 0.0
H45 H 0.19468 0.30904 0.48348 0.0
C46 C 0.36908 0.3934 0.51078 0.0
C47 C 0.34701 0.3791 0.42507 0.0
C48 C 0.35461 0.36805 0.58178 0.0
C49 C 0.3167 0.32836 0.5655 0.0
C50 C 0.29476 0.31356 0.4804 0.0
C51 C 0.30993 0.3389 0.41097 0.0
O52 O 0.9727 0.06896 0.45832 0.0
Mn53 Mn 0.01563 0.02482 0.55853 0.0
O54 O 0.95829 0.00786 0.35614 0.0
Mn55 Mn 0.97753 0.95408 0.4313 0.0
O56 O 0.05839 0.97907 0.65821 0.0
O57 O 0.06801 0.08574 0.58612 0.0
Mn58 Mn 0.07515 0.09177 0.7002 0.0
O59 O 0.96578 0.05354 0.64049 0.0
O60 O 0.10695 0.03384 0.75128 0.0
O61 O 0.06781 1.00088 0.47553 0.0
O62 O 0.04098 0.92349 0.43606 0.0
O63 O 0.11707 0.1419 0.67453 0.0
O64 O 0.01286 0.11164 0.7289 0.0
C65 C 0.9284 0.92431 0.50293 0.0
C66 C 0.95424 0.05443 0.38038 0.0
C67 C 0.09367 0.98832 0.72551 0.0
C68 C 0.10149 0.12436 0.59657 0.0
C69 C 0.96989 0.08945 0.6987 0.0
C70 C 0.07611 0.95696 0.44239 0.0
O71 O 0.96028 0.96284 0.53547 0.0
O72 O 0.92805 0.90797 0.42458 0.0
O73 O 0.54755 0.57897 0.15444 0.0
Mn74 Mn 0.5116 0.52798 0.05354 0.0
O75 O 0.588 0.52682 0.25693 0.0
Mn76 Mn 0.56621 0.46795 0.19483 0.0
O77 O 0.47802 0.47525 0.95166 0.0
O78 O 0.45475 0.58508 0.02573 0.0
Mn79 Mn 0.43817 0.57434 0.91266 0.0
O80 O 0.55693 0.56304 0.97136 0.0
O81 O 0.4055 0.51241 0.88579 0.0
O82 O 0.46103 0.49631 0.13156 0.0
O83 O 0.50622 0.43729 0.21351 0.0
O84 O 0.39648 0.62676 0.92787 0.0
O85 O 0.49491 0.58958 0.86262 0.0
C86 C 0.60849 0.43776 0.10969 0.0
C87 C 0.57686 0.57164 0.22847 0.0
C88 C 0.43381 0.47295 0.89922 0.0
C89 C 0.41877 0.62114 1.0078 0.0
C90 C 0.54266 0.58557 0.89835 0.0
C91 C 0.46349 0.45888 0.18457 0.0
O92 O 0.57163 0.47244 0.08317 0.0
O93 O 0.61684 0.42386 0.18982 0.0
C94 C 0.20809 0.18792 0.51266 0.0
C95 C 0.18074 0.22771 0.4642 0.0
H96 H 0.20294 0.12071 0.58794 0.0
C97 C 0.12588 0.22393 0.44164 0.0
H98 H 0.25023 0.18923 0.53166 0.0
C99 C 0.09864 0.18398 0.47392 0.0
C100 C 0.12602 0.14712 0.52877 0.0
H101 H 0.10386 0.25407 0.40432 0.0
H102 H 0.05631 0.18517 0.46353 0.0
C103 C 0.18097 0.14791 0.54381 0.0
C104 C 0.36376 0.7428 0.08038 0.0
C105 C 0.33796 0.72525 0.14554 0.0
H106 H 0.41285 0.72349 0.98977 0.0
C107 C 0.34867 0.67496 0.17737 0.0
H108 H 0.3563 0.7809 0.05343 0.0
C109 C 0.38144 0.64161 0.14021 0.0
C110 C 0.40373 0.65831 0.07065 0.0
H111 H 0.32897 0.66039 0.22719 0.0
H112 H 0.38529 0.60172 0.16032 0.0
C113 C 0.39665 0.7099 0.04426 0.0
C114 C 0.84636 0.88618 0.67166 0.0
C115 C 0.81851 0.84331 0.62956 0.0
H116 H 0.90373 0.94591 0.66573 0.0
C117 C 0.82722 0.8285 0.54768 0.0
H118 H 0.83947 0.8991 0.73438 0.0
C119 C 0.86348 0.85461 0.50933 0.0
C120 C 0.89184 0.89742 0.5505 0.0
H121 H 0.80577 0.79659 0.51266 0.0
H122 H 0.86866 0.84097 0.44606 0.0
C123 C 0.88302 0.91299 0.63256 0.0
C124 C 0.72264 0.36245 0.0637 0.0
C125 C 0.70177 0.33688 0.98606 0.0
H126 H 0.71022 0.4174 0.15988 0.0
C127 C 0.65275 0.35292 0.94013 0.0
H128 H 0.75979 0.35094 0.10146 0.0
C129 C 0.62349 0.39111 0.9746 0.0
C130 C 0.64307 0.41357 0.05554 0.0
H131 H 0.63566 0.33354 0.88021 0.0
H132 H 0.58414 0.39959 0.94186 0.0
C133 C 0.69406 0.40081 0.09707 0.0
C134 C 0.19029 0.92848 0.33004 0.0
C135 C 0.16333 0.91911 0.24473 0.0
H136 H 0.18389 0.94846 0.46145 0.0
C137 C 0.10936 0.92942 0.22616 0.0
H138 H 0.23199 0.92211 0.34701 0.0
C139 C 0.08303 0.94677 0.29025 0.0
C140 C 0.10907 0.95272 0.3759 0.0
H141 H 0.08618 0.92159 0.16303 0.0
H142 H 0.04106 0.95225 0.2738 0.0
C143 C 0.16318 0.94463 0.39549 0.0
C144 C 0.59238 0.6776 0.74887 0.0
C145 C 0.64252 0.65906 0.74643 0.0
H146 H 0.52276 0.66976 0.8002 0.0
C147 C 0.66298 0.61882 0.80176 0.0
H148 H 0.57597 0.70865 0.70707 0.0
C149 C 0.632 0.59559 0.85559 0.0
C150 C 0.58039 0.61245 0.85376 0.0
H151 H 0.70173 0.60387 0.80029 0.0
H152 H 0.64732 0.56317 0.89497 0.0
C153 C 0.5619 0.65487 0.80198 0.0
C154 C 0.86018 0.09651 0.18217 0.0
C155 C 0.87286 0.14871 0.17499 0.0
H156 H 0.87531 0.02683 0.25237 0.0
C157 C 0.90889 0.17226 0.24217 0.0
H158 H 0.83251 0.07738 0.13172 0.0
C159 C 0.93411 0.14288 0.31254 0.0
C160 C 0.92379 0.08958 0.31586 0.0
H161 H 0.9197 0.21243 0.23776 0.0
H162 H 0.96347 0.16107 0.36139 0.0
C163 C 0.88518 0.06749 0.25125 0.0
C164 C 0.34681 0.39104 0.73521 0.0
C165 C 0.37843 0.38402 0.67232 0.0
H166 H 0.34054 0.42362 0.85895 0.0
C167 C 0.43209 0.39635 0.69496 0.0
H168 H 0.30541 0.38219 0.72028 0.0
C169 C 0.45255 0.41906 0.77571 0.0
C170 C 0.41967 0.43041 0.83516 0.0
H171 H 0.45783 0.39067 0.64867 0.0
H172 H 0.49285 0.43215 0.78816 0.0
C173 C 0.36709 0.4143 0.81524 0.0
C174 C 0.67885 0.6408 0.38853 0.0
C175 C 0.64798 0.67115 0.43403 0.0
H176 H 0.67979 0.58577 0.28587 0.0
C177 C 0.59425 0.67639 0.39986 0.0
H178 H 0.72003 0.63529 0.41407 0.0
C179 C 0.57119 0.64863 0.32514 0.0
C180 C 0.60145 0.61466 0.28441 0.0
H181 H 0.56954 0.69933 0.43421 0.0
H182 H 0.52918 0.65014 0.30412 0.0
C183 C 0.65575 0.61254 0.31502 0.0
C184 C 0.88764 0.18129 0.79872 0.0
C185 C 0.86862 0.14917 0.85729 0.0
H186 H 0.93382 0.18643 0.69969 0.0
C187 C 0.87324 0.09511 0.84788 0.0
H188 H 0.88511 0.22295 0.80398 0.0
C189 C 0.90121 0.07413 0.78733 0.0
C190 C 0.92473 0.10698 0.73548 0.0
H191 H 0.85803 0.06922 0.89088 0.0
H192 H 0.90843 0.03289 0.7867 0.0
C193 C 0.91549 0.16037 0.73865 0.0
C194 C 0.37703 0.45623 0.34976 0.0
C195 C 0.36602 0.40293 0.35062 0.0
H196 H 0.41504 0.51678 0.29199 0.0
C197 C 0.37774 0.37137 0.28311 0.0
H198 H 0.36782 0.48174 0.40008 0.0
C199 C 0.40422 0.39156 0.22124 0.0
C200 C 0.41887 0.44383 0.22458 0.0
H201 H 0.37019 0.33018 0.28178 0.0
H202 H 0.41701 0.36539 0.17487 0.0
C203 C 0.40308 0.47656 0.28695 0.0
C204 C 0.11323 0.88974 0.90066 0.0
C205 C 0.16755 0.89428 0.93061 0.0
H206 H 0.04686 0.91478 0.80851 0.0
C207 C 0.19785 0.92097 0.88031 0.0
H208 H 0.08896 0.8696 0.93873 0.0
C209 C 0.17368 0.9472 0.80659 0.0
C210 C 0.11892 0.94638 0.7808 0.0
H211 H 0.23956 0.92563 0.90235 0.0
H212 H 0.19744 0.9716 0.77361 0.0
C213 C 0.08913 0.91524 0.82588 0.0
loop_
_geom_bond_atom_site_label_1
_geom_bond_atom_site_label_2
_geom_bond_distance
_geom_bond_site_symmetry_2
_ccdc_geom_bond_type
H0 C7 0.929 . S
H1 C10 0.930 . S
H2 C12 0.929 . S
H3 C4 0.969 . S
C4 H3 0.969 . S
C4 O5 1.550 . S
C4 H6 0.973 . S
O5 C4 1.550 . S
O5 C11 1.412 . S
H6 C4 0.973 . S
C7 H0 0.929 . S
C7 C8 1.400 . S
C7 C9 1.364 . S
C8 C7 1.400 . S
C8 C12 1.377 1_554 S
C9 C7 1.364 . S
C9 C10 1.374 . S
C10 H1 0.930 . S
C10 C9 1.374 . S
C10 C11 1.383 . S
C11 O5 1.412 . S
C11 C10 1.383 . S
C11 C12 1.394 1_554 S
C12 H2 0.929 . S
C12 C8 1.377 1_556 S
C12 C11 1.394 1_556 S
H13 C20 0.929 . S
H14 C23 0.930 . S
H15 C25 0.929 . S
H16 C17 0.969 . S
C17 H16 0.969 . S
C17 O18 1.550 . S
C17 H19 0.973 . S
O18 C17 1.550 . S
O18 C24 1.412 . S
H19 C17 0.973 . S
C20 H13 0.929 . S
C20 C21 1.400 . S
C20 C22 1.364 . S
C21 C20 1.400 . S
C21 C25 1.377 . S
C22 C20 1.364 . S
C22 C23 1.374 . S
C23 H14 0.930 . S
C23 C22 1.374 . S
C23 C24 1.383 . S
C24 O18 1.412 . S
C24 C23 1.383 . S
C24 C25 1.394 . S
C25 H15 0.929 . S
C25 C21 1.377 . S
C25 C24 1.394 . S
H26 C33 0.929 . S
H27 C36 0.930 . S
H28 C38 0.929 . S
H29 C30 0.969 . S
C30 H29 0.969 . S
C30 O31 1.550 1_556 S
C30 H32 0.973 . S
O31 C30 1.550 1_554 S
O31 C37 1.412 . S
H32 C30 0.973 . S
C33 H26 0.929 . S
C33 C34 1.400 . S
C33 C35 1.364 1_554 S
C34 C33 1.400 . S
C34 C38 1.377 . S
C35 C33 1.364 1_556 S
C35 C36 1.374 . S
C36 H27 0.930 . S
C36 C35 1.374 . S
C36 C37 1.383 1_556 S
C37 O31 1.412 . S
C37 C36 1.383 1_554 S
C37 C38 1.394 . S
C38 H28 0.929 . S
C38 C34 1.377 . S
C38 C37 1.394 . S
H39 C46 0.929 . S
H40 C49 0.930 . S
H41 C51 0.929 . S
H42 C43 0.969 . S
C43 H42 0.969 . S
C43 O44 1.550 . S
C43 H45 0.973 . S
O44 C43 1.550 . S
O44 C50 1.412 . S
H45 C43 0.973 . S
C46 H39 0.929 . S
C46 C47 1.400 . S
C46 C48 1.364 . S
C47 C46 1.400 . S
C47 C51 1.377 . S
C48 C46 1.364 . S
C48 C49 1.374 . S
C49 H40 0.930 . S
C49 C48 1.374 . S
C49 C50 1.383 . S
C50 O44 1.412 . S
C50 C49 1.383 . S
C50 C51 1.394 . S
C51 H41 0.929 . S
C51 C47 1.377 . S
C51 C50 1.394 . S
O52 Mn53 2.163 1_655 S
O52 C66 1.244 . S
Mn53 O52 2.163 1_455 S
Mn53 O56 2.160 1_545 S
Mn53 O57 2.221 . S
Mn53 O59 2.163 1_455 S
Mn53 O61 2.160 1_545 S
Mn53 O71 2.221 1_445 S
O54 Mn55 2.087 1_545 S
O54 C66 1.256 . S
Mn55 O54 2.087 1_565 S
Mn55 O62 2.089 1_655 S
Mn55 O71 2.290 . S
Mn55 O72 2.251 . S
O56 Mn53 2.160 1_565 S
O56 C67 1.239 . S
O57 Mn53 2.221 . S
O57 Mn58 2.290 . S
O57 C68 1.278 . S
Mn58 O57 2.290 . S
Mn58 O60 2.089 . S
Mn58 O63 2.251 . S
Mn58 O64 2.087 . S
O59 Mn53 2.163 1_655 S
O59 C69 1.244 . S
O60 Mn58 2.089 . S
O60 C67 1.256 1_545 S
O61 Mn53 2.160 1_565 S
O61 C70 1.239 . S
O62 Mn55 2.089 1_455 S
O62 C70 1.256 . S
O63 Mn58 2.251 . S
O63 C68 1.241 . S
O64 Mn58 2.087 . S
O64 C69 1.256 1_455 S
C65 O71 1.278 . S
C65 O72 1.241 . S
C66 O52 1.244 . S
C66 O54 1.256 . S
C67 O56 1.239 . S
C67 O60 1.256 1_565 S
C68 O57 1.278 . S
C68 O63 1.241 . S
C69 O59 1.244 . S
C69 O64 1.256 1_655 S
C70 O61 1.239 . S
C70 O62 1.256 . S
O71 Mn53 2.221 1_665 S
O71 Mn55 2.290 . S
O71 C65 1.278 . S
O72 Mn55 2.251 . S
O72 C65 1.241 . S
O73 Mn74 2.163 . S
O73 C87 1.244 . S
Mn74 O73 2.163 . S
Mn74 O77 2.160 1_554 S
Mn74 O78 2.221 . S
Mn74 O80 2.163 1_554 S
Mn74 O82 2.160 . S
Mn74 O92 2.221 . S
O75 Mn76 2.087 . S
O75 C87 1.256 . S
Mn76 O75 2.087 . S
Mn76 O83 2.089 . S
Mn76 O92 2.290 . S
Mn76 O93 2.251 . S
O77 Mn74 2.160 1_556 S
O77 C88 1.239 . S
O78 Mn74 2.221 . S
O78 Mn79 2.290 1_554 S
O78 C89 1.278 . S
Mn79 O78 2.290 1_556 S
Mn79 O81 2.089 . S
Mn79 O84 2.251 . S
Mn79 O85 2.087 . S
O80 Mn74 2.163 1_556 S
O80 C90 1.244 . S
O81 Mn79 2.089 . S
O81 C88 1.256 . S
O82 Mn74 2.160 . S
O82 C91 1.239 . S
O83 Mn76 2.089 . S
O83 C91 1.256 . S
O84 Mn79 2.251 . S
O84 C89 1.241 1_556 S
O85 Mn79 2.087 . S
O85 C90 1.256 . S
C86 O92 1.278 . S
C86 O93 1.241 . S
C87 O73 1.244 . S
C87 O75 1.256 . S
C88 O77 1.239 . S
C88 O81 1.256 . S
C89 O78 1.278 . S
C89 O84 1.241 1_554 S
C90 O80 1.244 . S
C90 O85 1.256 . S
C91 O82 1.239 . S
C91 O83 1.256 . S
O92 Mn74 2.221 . S
O92 Mn76 2.290 . S
O92 C86 1.278 . S
O93 Mn76 2.251 . S
O93 C86 1.241 . S
C94 C95 1.387 . S
C94 H98 0.950 . S
C94 C103 1.390 . S
C95 C94 1.387 . S
C95 C97 1.387 . S
H96 C103 0.950 . S
C97 C95 1.387 . S
C97 C99 1.390 . S
C97 H101 0.950 . S
H98 C94 0.950 . S
C99 C97 1.390 . S
C99 C100 1.387 . S
C99 H102 0.950 . S
C100 C99 1.387 . S
C100 C103 1.387 . S
H101 C97 0.950 . S
H102 C99 0.950 . S
C103 C94 1.390 . S
C103 H96 0.950 . S
C103 C100 1.387 . S
C104 C105 1.387 . S
C104 H108 0.950 1_554 S
C104 C113 1.390 . S
C105 C104 1.387 . S
C105 C107 1.387 . S
H106 C113 0.950 1_556 S
C107 C105 1.387 . S
C107 C109 1.390 . S
C107 H111 0.950 . S
H108 C104 0.950 1_556 S
C109 C107 1.390 . S
C109 C110 1.387 . S
C109 H112 0.950 . S
C110 C109 1.387 . S
C110 C113 1.387 . S
H111 C107 0.950 . S
H112 C109 0.950 . S
C113 C104 1.390 . S
C113 H106 0.950 1_554 S
C113 C110 1.387 . S
C114 C115 1.387 . S
C114 H118 0.950 . S
C114 C123 1.390 . S
C115 C114 1.387 . S
C115 C117 1.387 . S
H116 C123 0.950 . S
C117 C115 1.387 . S
C117 C119 1.390 . S
C117 H121 0.950 . S
H118 C114 0.950 . S
C119 C117 1.390 . S
C119 C120 1.387 . S
C119 H122 0.950 . S
C120 C119 1.387 . S
C120 C123 1.387 . S
H121 C117 0.950 . S
H122 C119 0.950 . S
C123 C114 1.390 . S
C123 H116 0.950 . S
C123 C120 1.387 . S
C124 C125 1.387 1_554 S
C124 H128 0.950 . S
C124 C133 1.390 . S
C125 C124 1.387 1_556 S
C125 C127 1.387 . S
H126 C133 0.950 . S
C127 C125 1.387 . S
C127 C129 1.390 . S
C127 H131 0.950 . S
H128 C124 0.950 . S
C129 C127 1.390 . S
C129 C130 1.387 1_556 S
C129 H132 0.950 . S
C130 C129 1.387 1_554 S
C130 C133 1.387 . S
H131 C127 0.950 . S
H132 C129 0.950 . S
C133 C124 1.390 . S
C133 H126 0.950 . S
C133 C130 1.387 . S
C134 C135 1.387 . S
C134 H138 0.950 . S
C134 C143 1.390 . S
C135 C134 1.387 . S
C135 C137 1.387 . S
H136 C143 0.950 . S
C137 C135 1.387 . S
C137 C139 1.390 . S
C137 H141 0.950 . S
H138 C134 0.950 . S
C139 C137 1.390 . S
C139 C140 1.387 . S
C139 H142 0.950 . S
C140 C139 1.387 . S
C140 C143 1.387 . S
H141 C137 0.950 . S
H142 C139 0.950 . S
C143 C134 1.390 . S
C143 H136 0.950 . S
C143 C140 1.387 . S
C144 C145 1.387 . S
C144 H148 0.950 . S
C144 C153 1.390 . S
C145 C144 1.387 . S
C145 C147 1.387 . S
H146 C153 0.950 . S
C147 C145 1.387 . S
C147 C149 1.390 . S
C147 H151 0.950 . S
H148 C144 0.950 . S
C149 C147 1.390 . S
C149 C150 1.387 . S
C149 H152 0.950 . S
C150 C149 1.387 . S
C150 C153 1.387 . S
H151 C147 0.950 . S
H152 C149 0.950 . S
C153 C144 1.390 . S
C153 H146 0.950 . S
C153 C150 1.387 . S
C154 C155 1.387 . S
C154 H158 0.950 . S
C154 C163 1.390 . S
C155 C154 1.387 . S
C155 C157 1.387 . S
H156 C163 0.950 . S
C157 C155 1.387 . S
C157 C159 1.390 . S
C157 H161 0.950 . S
H158 C154 0.950 . S
C159 C157 1.390 . S
C159 C160 1.387 . S
C159 H162 0.950 . S
C160 C159 1.387 . S
C160 C163 1.387 . S
H161 C157 0.950 . S
H162 C159 0.950 . S
C163 C154 1.390 . S
C163 H156 0.950 . S
C163 C160 1.387 . S
C164 C165 1.387 . S
C164 H168 0.950 . S
C164 C173 1.390 . S
C165 C164 1.387 . S
C165 C167 1.387 . S
H166 C173 0.950 . S
C167 C165 1.387 . S
C167 C169 1.390 . S
C167 H171 0.950 . S
H168 C164 0.950 . S
C169 C167 1.390 . S
C169 C170 1.387 . S
C169 H172 0.950 . S
C170 C169 1.387 . S
C170 C173 1.387 . S
H171 C167 0.950 . S
H172 C169 0.950 . S
C173 C164 1.390 . S
C173 H166 0.950 . S
C173 C170 1.387 . S
C174 C175 1.387 . S
C174 H178 0.950 . S
C174 C183 1.390 . S
C175 C174 1.387 . S
C175 C177 1.387 . S
H176 C183 0.950 . S
C177 C175 1.387 . S
C177 C179 1.390 . S
C177 H181 0.950 . S
H178 C174 0.950 . S
C179 C177 1.390 . S
C179 C180 1.387 . S
C179 H182 0.950 . S
C180 C179 1.387 . S
C180 C183 1.387 . S
H181 C177 0.950 . S
H182 C179 0.950 . S
C183 C174 1.390 . S
C183 H176 0.950 . S
C183 C180 1.387 . S
C184 C185 1.387 . S
C184 H188 0.950 . S
C184 C193 1.390 . S
C185 C184 1.387 . S
C185 C187 1.387 . S
H186 C193 0.950 . S
C187 C185 1.387 . S
C187 C189 1.390 . S
C187 H191 0.950 . S
H188 C184 0.950 . S
C189 C187 1.390 . S
C189 C190 1.387 . S
C189 H192 0.950 . S
C190 C189 1.387 . S
C190 C193 1.387 . S
H191 C187 0.950 . S
H192 C189 0.950 . S
C193 C184 1.390 . S
C193 H186 0.950 . S
C193 C190 1.387 . S
C194 C195 1.387 . S
C194 H198 0.950 . S
C194 C203 1.390 . S
C195 C194 1.387 . S
C195 C197 1.387 . S
H196 C203 0.950 . S
C197 C195 1.387 . S
C197 C199 1.390 . S
C197 H201 0.950 . S
H198 C194 0.950 . S
C199 C197 1.390 . S
C199 C200 1.387 . S
C199 H202 0.950 . S
C200 C199 1.387 . S
C200 C203 1.387 . S
H201 C197 0.950 . S
H202 C199 0.950 . S
C203 C194 1.390 . S
C203 H196 0.950 . S
C203 C200 1.387 . S
C204 C205 1.387 . S
C204 H208 0.950 . S
C204 C213 1.390 . S
C205 C204 1.387 . S
C205 C207 1.387 . S
H206 C213 0.950 . S
C207 C205 1.387 . S
C207 C209 1.390 . S
C207 H211 0.950 . S
H208 C204 0.950 . S
C209 C207 1.390 . S
C209 C210 1.387 . S
C209 H212 0.950 1_565 S
C210 C209 1.387 . S
C210 C213 1.387 . S
H211 C207 0.950 . S
H212 C209 0.950 1_545 S
C213 C204 1.390 . S
C213 H206 0.950 . S
C213 C210 1.387 . S
C100 C68 1.282 . S
C95 C43 1.396 . S
C105 C4 1.453 . S
C110 C89 1.304 . S
C115 C17 1.504 . S
C120 C65 1.374 . S
C125 C30 1.573 . S
C130 C86 1.394 . S
C140 C70 1.464 . S
C135 C9 1.464 . S
C150 C90 1.499 . S
C145 C21 1.568 . S
C155 C34 1.560 . S
C160 C66 1.513 . S
C165 C48 1.491 . S
C170 C88 1.433 . S
C180 C87 1.495 . S
C175 C22 1.539 . S
C190 C69 1.505 . S
C185 C35 1.543 . S
C200 C91 1.445 . S
C195 C47 1.480 . S
C205 C8 1.500 1_556 S
C210 C67 1.437 . S
