# Generated by pormake.
# Topology anh, (6,3)-cn, num edge types: 1
# Building blocks:
#     Node 0, Type 0, BuildingBlock: PAMTOO_clean_sbu_0, # of connection points: 6
#     Node 1, Type 0, BuildingBlock: PAMTOO_clean_sbu_0, # of connection points: 6
#     Node 2, Type 0, BuildingBlock: PAMTOO_clean_sbu_0, # of connection points: 6
#     Node 3, Type 1, BuildingBlock: ESEHIV_clean_linker_0, # of connection points: 3
#     Node 4, Type 1, BuildingBlock: ESEHIV_clean_linker_0, # of connection points: 3
#     Node 5, Type 1, BuildingBlock: ESEHIV_clean_linker_0, # of connection points: 3
#     Node 6, Type 1, BuildingBlock: ESEHIV_clean_linker_0, # of connection points: 3
#     Node 7, Type 1, BuildingBlock: ESEHIV_clean_linker_0, # of connection points: 3
#     Node 8, Type 1, BuildingBlock: ESEHIV_clean_linker_0, # of connection points: 3
#     Edge 9, Type (0, 1), None
#     Edge 10, Type (0, 1), None
#     Edge 11, Type (0, 1), None
#     Edge 12, Type (0, 1), None
#     Edge 13, Type (0, 1), None
#     Edge 14, Type (0, 1), None
#     Edge 15, Type (0, 1), None
#     Edge 16, Type (0, 1), None
#     Edge 17, Type (0, 1), None
#     Edge 18, Type (0, 1), None
#     Edge 19, Type (0, 1), None
#     Edge 20, Type (0, 1), None
#     Edge 21, Type (0, 1), None
#     Edge 22, Type (0, 1), None
#     Edge 23, Type (0, 1), None
#     Edge 24, Type (0, 1), None
#     Edge 25, Type (0, 1), None
#     Edge 26, Type (0, 1), None
# Relax obj value: 0.528
# Max RMSD: 0.334
# Mean RMSD: 0.225
data_MOF--net-anh--node1-PAMTOO_clean_sbu_0--node2-ESEHIV_clean_linker_0--edge1-none
_symmetry_space_group_name_H-M    P1
_symmetry_Int_Tables_number       1
_symmetry_cell_setting            triclinic
loop_
_symmetry_equiv_pos_as_xyz
'x, y, z'
_cell_length_a     11.655149
_cell_length_b     10.6824
_cell_length_c     23.114035
_cell_angle_alpha  89.876609
_cell_angle_beta   93.188913
_cell_angle_gamma 77.144812
loop_
_atom_site_label
_atom_site_type_symbol
_atom_site_fract_x
_atom_site_fract_y
_atom_site_fract_z
_atom_type_partial_charge
Dy0 Dy 0.21579 0.69142 0.09223 0.0
Dy1 Dy 0.21635 0.49142 0.09104 0.0
C2 C 1.20049 0.60047 -0.03175 0.0
O3 O 1.03084 0.63416 0.07479 0.0
O4 O 1.03303 0.63092 0.07758 0.0
O5 O 0.27482 0.85092 0.0576 0.0
O6 O 1.16779 0.87582 0.13333 0.0
O7 O 1.17538 0.51605 0.18413 0.0
O8 O 0.28008 0.66109 0.18444 0.0
O9 O 0.39609 0.55288 0.07373 0.0
O10 O 0.39509 0.55546 0.07646 0.0
O11 O 0.27911 0.29763 0.12427 0.0
O12 O 1.13809 0.34196 0.0557 0.0
C13 C 0.94407 0.60928 0.10641 0.0
O14 O 1.17352 0.70507 -0.00215 0.0
O15 O 0.23505 0.49186 -0.00378 0.0
C16 C 0.33874 0.96606 0.13556 0.0
C17 C 0.52861 1.04157 0.19822 0.0
C18 C 0.53919 0.99812 0.14073 0.0
C19 C 0.44518 0.96414 0.10961 0.0
C20 C 0.32833 1.00517 0.19337 0.0
C21 C 0.42044 1.04602 0.22375 0.0
C22 C 0.24282 0.92024 0.10301 0.0
C23 C 0.2302 0.58849 0.21412 0.0
C24 C 0.49046 0.57391 0.10578 0.0
C25 C 1.10708 0.21329 0.13222 0.0
C26 C 0.92852 0.14829 0.19702 0.0
C27 C 1.0116 0.21147 0.22292 0.0
C28 C 1.10004 0.24229 0.1912 0.0
C29 C 1.02488 0.15051 0.10581 0.0
C30 C 0.93874 0.11529 0.13807 0.0
C31 C 1.19014 0.26136 0.09675 0.0
H32 H 0.62101 0.98666 0.11939 0.0
H33 H 0.45776 0.93254 0.06544 0.0
H34 H 0.24865 1.00461 0.21517 0.0
H35 H 0.4057 1.08032 0.26725 0.0
H36 H 1.00765 0.24037 0.26742 0.0
H37 H 1.16263 0.28957 0.21294 0.0
H38 H 1.02778 0.12796 0.06015 0.0
H39 H 0.8804 1.06244 0.11625 0.0
Dy40 Dy 0.60918 0.12412 0.50157 0.0
Dy41 Dy 0.87654 0.10599 0.51171 0.0
C42 C 0.73765 0.1125 0.6256 0.0
O43 O 0.63149 0.31981 0.52797 0.0
O44 O 0.79752 0.31078 0.48168 0.0
O45 O 0.45452 1.08262 0.53606 0.0
O46 O 0.43991 0.19916 0.45757 0.0
O47 O 0.84641 1.06257 0.41792 0.0
O48 O 0.64903 0.14842 0.41025 0.0
O49 O 0.85247 0.90789 0.5363 0.0
O50 O 0.68707 0.91854 0.479 0.0
O51 O 1.05662 1.03319 0.48939 0.0
O52 O 1.01654 0.1768 0.5562 0.0
C53 C 0.70743 0.37996 0.50703 0.0
O54 O 0.65839 1.06947 0.59434 0.0
O55 O 0.81969 0.15542 0.60114 0.0
C56 C 0.34187 1.02945 0.45648 0.0
C57 C 0.2602 0.83989 0.39381 0.0
C58 C 0.30636 0.81606 0.4513 0.0
C59 C 0.34419 0.91054 0.48263 0.0
C60 C 0.29951 1.0527 0.39843 0.0
C61 C 0.25658 0.95935 0.36759 0.0
C62 C 0.39221 0.12428 0.48851 0.0
C63 C 0.74772 0.1 0.38642 0.0
C64 C 0.77673 0.84859 0.50954 0.0
C65 C 1.11182 0.2299 0.47823 0.0
C66 C 1.14047 0.43243 0.40737 0.0
C67 C 1.07233 0.34803 0.38691 0.0
C68 C 1.05918 0.24693 0.4217 0.0
C69 C 1.17189 0.3202 0.50062 0.0
C70 C 1.18979 0.41826 0.46482 0.0
C71 C 1.08648 0.13049 0.51575 0.0
H72 H 0.31536 0.72332 0.47225 0.0
H73 H 0.37802 0.88858 0.52698 0.0
H74 H 0.2986 0.14334 0.37708 0.0
H75 H 0.22093 0.98072 0.32353 0.0
H76 H 1.02836 0.36115 0.34429 0.0
H77 H 1.00704 0.18263 0.40425 0.0
H78 H 0.20809 0.31228 0.54504 0.0
H79 H 0.24356 0.48164 0.48208 0.0
Dy80 Dy 0.81421 0.56351 0.80101 0.0
Dy81 Dy 0.55528 0.67133 0.79147 0.0
C82 C 0.69218 0.63378 0.68424 0.0
O83 O 0.82383 0.77247 0.79866 0.0
O84 O 0.62731 0.84826 0.80905 0.0
O85 O 0.89438 0.42053 0.74071 0.0
O86 O 0.99825 0.48019 0.81556 0.0
O87 O 0.58937 0.63741 0.88908 0.0
O88 O 0.79264 0.60406 0.89418 0.0
O89 O 0.56473 0.46088 0.77446 0.0
O90 O 0.72745 0.40849 0.83199 0.0
O91 O 0.36991 0.71705 0.79627 0.0
O92 O 0.45116 0.8099 0.72958 0.0
C93 C 0.73277 0.86997 0.80424 0.0
O94 O 0.7656 0.675 0.7187 0.0
O95 O 0.61708 0.58175 0.70863 0.0
C96 C 1.101 0.31683 0.75192 0.0
C97 C 0.30071 0.39004 0.78125 0.0
C98 C 0.26774 0.39258 0.72162 0.0
C99 C 1.15884 0.36149 0.70687 0.0
C100 C 1.17243 0.25129 0.79819 0.0
C101 C 0.28287 0.2797 0.80974 0.0
C102 C 0.99612 0.40712 0.7698 0.0
C103 C 0.69202 0.62133 0.91971 0.0
C104 C 0.645 0.37044 0.80118 0.0
C105 C 0.25064 0.90201 0.74808 0.0
C106 C 1.05735 0.85022 0.79102 0.0
C107 C 1.10761 0.94261 0.82023 0.0
C108 C 0.21562 0.95727 0.80101 0.0
C109 C 1.16083 0.88303 0.70799 0.0
C110 C 1.05805 0.85927 0.73032 0.0
C111 C 0.35367 0.79504 0.75093 0.0
H112 H 0.30095 0.4536 0.69231 0.0
H113 H 1.11052 0.40098 0.66713 0.0
H114 H 1.1337 0.20791 0.83235 0.0
H115 H 0.32887 0.24785 0.85095 0.0
H116 H 1.08949 0.9657 0.86486 0.0
H117 H 0.27915 0.98457 0.83166 0.0
H118 H 1.1812 0.85247 0.66433 0.0
H119 H 1.00361 0.8104 0.70318 0.0
H120 H 0.57495 1.04556 0.31699 0.0
H121 H 0.9211 0.11522 0.31557 0.0
H122 H 0.71012 0.13027 0.15581 0.0
C123 C 0.64356 1.06927 0.29231 0.0
C124 C 0.63222 1.07517 0.23135 0.0
C125 C 0.7452 1.09059 0.32258 0.0
C126 C 0.84061 0.10804 0.29163 0.0
C127 C 0.83029 0.12037 0.23066 0.0
C128 C 0.72331 0.10973 0.20174 0.0
H129 H 0.75455 0.8098 0.61875 0.0
H130 H 0.66043 0.44761 0.6133 0.0
H131 H 0.76294 0.60664 0.45729 0.0
C132 C 0.74448 0.7267 0.59419 0.0
C133 C 0.76079 0.72437 0.53475 0.0
C134 C 0.70705 0.62847 0.62182 0.0
C135 C 0.68856 0.52301 0.59061 0.0
C136 C 0.71382 0.50854 0.53209 0.0
C137 C 0.74795 0.61233 0.50311 0.0
H138 H 0.32748 0.43645 0.89681 0.0
H139 H 1.05352 0.7774 0.90277 0.0
H140 H 1.16306 0.623 0.73853 0.0
C141 C 0.26369 0.51205 0.87384 0.0
C142 C 0.25049 0.51144 0.81319 0.0
C143 C 1.19031 0.60515 0.90545 0.0
C144 C 1.10802 0.70459 0.8774 0.0
C145 C 1.10336 0.71843 0.81723 0.0
C146 C 1.17043 0.61727 0.78525 0.0
H147 H 1.17397 0.42226 0.29078 0.0
H148 H 0.2801 0.7809 0.27917 0.0
H149 H 1.14616 0.67226 0.43652 0.0
C150 C 1.18302 0.51183 0.31011 0.0
C151 C 1.16219 0.53385 0.36889 0.0
C152 C 0.21969 0.60404 0.2768 0.0
C153 C 0.24331 0.71402 0.30357 0.0
C154 C 0.2207 0.73662 0.36196 0.0
C155 C 1.17117 0.65105 0.39252 0.0
H156 H 0.67566 0.32058 0.69094 0.0
H157 H 0.78549 0.91263 0.69899 0.0
H158 H 0.67664 0.12106 0.85359 0.0
C159 C 0.69214 0.23279 0.71627 0.0
C160 C 0.67442 0.23821 0.77583 0.0
C161 C 0.73146 0.11613 0.68888 0.0
C162 C 0.75632 1.00196 0.72108 0.0
C163 C 0.73582 0.99991 0.78019 0.0
C164 C 0.69448 0.1199 0.8081 0.0
H165 H 0.51899 0.59669 -0.00984 0.0
H166 H 0.87897 0.63201 -0.00827 0.0
H167 H 0.72383 0.58313 0.15337 0.0
C168 C 0.59993 0.59993 0.01492 0.0
C169 C 0.6046 0.58737 0.07599 0.0
C170 C 0.69777 0.61572 -0.0153 0.0
C171 C 0.80481 0.62049 0.01581 0.0
C172 C 0.81959 0.60904 0.07671 0.0
C173 C 0.71668 0.59248 0.1066 0.0
loop_
_geom_bond_atom_site_label_1
_geom_bond_atom_site_label_2
_geom_bond_distance
_geom_bond_site_symmetry_2
_ccdc_geom_bond_type
Dy0 O3 2.307 1_455 S
Dy0 O5 2.395 . S
Dy0 O6 2.379 . S
Dy0 O8 2.339 . S
Dy0 O10 2.298 . S
Dy0 O14 2.275 . S
Dy0 C22 2.738 . S
Dy1 O4 2.298 . S
Dy1 O7 2.275 . S
Dy1 O9 2.307 1_655 S
Dy1 O11 2.395 . S
Dy1 O12 2.379 . S
Dy1 O15 2.339 . S
Dy1 C31 2.738 . S
C2 O14 1.254 1_655 S
C2 O15 1.257 . S
O3 Dy0 2.307 1_655 S
O3 C13 1.266 . S
O4 Dy1 2.298 . S
O4 C13 1.236 . S
O5 Dy0 2.395 . S
O5 C22 1.255 . S
O6 Dy0 2.379 . S
O6 C22 1.249 . S
O7 Dy1 2.275 . S
O7 C23 1.254 1_655 S
O8 Dy0 2.339 . S
O8 C23 1.257 . S
O9 Dy1 2.307 1_455 S
O9 C24 1.266 . S
O10 Dy0 2.298 . S
O10 C24 1.236 . S
O11 Dy1 2.395 . S
O11 C31 1.255 . S
O12 Dy1 2.379 . S
O12 C31 1.249 . S
C13 O3 1.266 . S
C13 O4 1.236 . S
O14 Dy0 2.275 . S
O14 C2 1.254 1_455 S
O15 Dy1 2.339 . S
O15 C2 1.257 . S
C16 C19 1.344 . S
C16 C20 1.328 . S
C16 C22 1.516 . S
C17 C18 1.304 1_545 S
C17 C21 1.323 . S
C18 C17 1.304 1_565 S
C18 C19 1.371 . S
C18 H32 0.930 . S
C19 C16 1.344 . S
C19 C18 1.371 . S
C19 H33 0.931 . S
C20 C16 1.328 . S
C20 C21 1.433 1_565 S
C20 H34 0.931 . S
C21 C17 1.323 . S
C21 C20 1.433 1_545 S
C21 H35 0.933 . S
C22 Dy0 2.738 . S
C22 O5 1.255 . S
C22 O6 1.249 . S
C22 C16 1.516 . S
C23 O7 1.254 1_455 S
C23 O8 1.257 . S
C24 O9 1.266 . S
C24 O10 1.236 . S
C25 C28 1.344 . S
C25 C29 1.328 . S
C25 C31 1.516 . S
C26 C27 1.304 1_565 S
C26 C30 1.323 . S
C27 C26 1.304 1_545 S
C27 C28 1.371 . S
C27 H36 0.930 . S
C28 C25 1.344 . S
C28 C27 1.371 . S
C28 H37 0.931 . S
C29 C25 1.328 . S
C29 C30 1.433 1_545 S
C29 H38 0.931 . S
C30 C26 1.323 . S
C30 C29 1.433 1_565 S
C30 H39 0.933 . S
C31 Dy1 2.738 . S
C31 O11 1.255 . S
C31 O12 1.249 . S
C31 C25 1.516 . S
H32 C18 0.930 . S
H33 C19 0.931 . S
H34 C20 0.931 . S
H35 C21 0.933 . S
H36 C27 0.930 . S
H37 C28 0.931 . S
H38 C29 0.931 . S
H39 C30 0.933 . S
Dy40 O43 2.307 1_565 S
Dy40 O45 2.395 . S
Dy40 O46 2.379 . S
Dy40 O48 2.339 . S
Dy40 O50 2.298 . S
Dy40 O54 2.275 1_565 S
Dy40 C62 2.738 . S
Dy41 O44 2.298 . S
Dy41 O47 2.275 . S
Dy41 O49 2.307 1_545 S
Dy41 O51 2.395 . S
Dy41 O52 2.379 . S
Dy41 O55 2.339 . S
Dy41 C71 2.738 . S
C42 O54 1.254 . S
C42 O55 1.257 . S
O43 Dy40 2.307 1_545 S
O43 C53 1.266 . S
O44 Dy41 2.298 . S
O44 C53 1.236 . S
O45 Dy40 2.395 . S
O45 C62 1.255 . S
O46 Dy40 2.379 . S
O46 C62 1.249 . S
O47 Dy41 2.275 . S
O47 C63 1.254 . S
O48 Dy40 2.339 . S
O48 C63 1.257 1_565 S
O49 Dy41 2.307 1_565 S
O49 C64 1.266 . S
O50 Dy40 2.298 . S
O50 C64 1.236 . S
O51 Dy41 2.395 . S
O51 C71 1.255 . S
O52 Dy41 2.379 . S
O52 C71 1.249 . S
C53 O43 1.266 . S
C53 O44 1.236 . S
O54 Dy40 2.275 1_545 S
O54 C42 1.254 . S
O55 Dy41 2.339 . S
O55 C42 1.257 . S
C56 C59 1.344 . S
C56 C60 1.328 . S
C56 C62 1.516 . S
C57 C58 1.304 . S
C57 C61 1.323 . S
C58 C57 1.304 . S
C58 C59 1.371 . S
C58 H72 0.930 . S
C59 C56 1.344 . S
C59 C58 1.371 . S
C59 H73 0.931 . S
C60 C56 1.328 . S
C60 C61 1.433 . S
C60 H74 0.931 . S
C61 C57 1.323 . S
C61 C60 1.433 . S
C61 H75 0.933 . S
C62 Dy40 2.738 . S
C62 O45 1.255 . S
C62 O46 1.249 . S
C62 C56 1.516 . S
C63 O47 1.254 . S
C63 O48 1.257 1_545 S
C64 O49 1.266 . S
C64 O50 1.236 . S
C65 C68 1.344 . S
C65 C69 1.328 . S
C65 C71 1.516 . S
C66 C67 1.304 . S
C66 C70 1.323 . S
C67 C66 1.304 . S
C67 C68 1.371 . S
C67 H76 0.930 . S
C68 C65 1.344 . S
C68 C67 1.371 . S
C68 H77 0.931 . S
C69 C65 1.328 . S
C69 C70 1.433 . S
C69 H78 0.931 . S
C70 C66 1.323 . S
C70 C69 1.433 . S
C70 H79 0.933 1_655 S
C71 Dy41 2.738 . S
C71 O51 1.255 . S
C71 O52 1.249 . S
C71 C65 1.516 . S
H72 C58 0.930 . S
H73 C59 0.931 . S
H74 C60 0.931 . S
H75 C61 0.933 . S
H76 C67 0.930 . S
H77 C68 0.931 . S
H78 C69 0.931 . S
H79 C70 0.933 1_455 S
Dy80 O83 2.307 . S
Dy80 O85 2.395 . S
Dy80 O86 2.379 . S
Dy80 O88 2.339 . S
Dy80 O90 2.298 . S
Dy80 O94 2.275 . S
Dy80 C102 2.738 . S
Dy81 O84 2.298 . S
Dy81 O87 2.275 . S
Dy81 O89 2.307 . S
Dy81 O91 2.395 . S
Dy81 O92 2.379 . S
Dy81 O95 2.339 . S
Dy81 C111 2.738 . S
C82 O94 1.254 . S
C82 O95 1.257 . S
O83 Dy80 2.307 . S
O83 C93 1.266 . S
O84 Dy81 2.298 . S
O84 C93 1.236 . S
O85 Dy80 2.395 . S
O85 C102 1.255 . S
O86 Dy80 2.379 . S
O86 C102 1.249 . S
O87 Dy81 2.275 . S
O87 C103 1.254 . S
O88 Dy80 2.339 . S
O88 C103 1.257 . S
O89 Dy81 2.307 . S
O89 C104 1.266 . S
O90 Dy80 2.298 . S
O90 C104 1.236 . S
O91 Dy81 2.395 . S
O91 C111 1.255 . S
O92 Dy81 2.379 . S
O92 C111 1.249 . S
C93 O83 1.266 . S
C93 O84 1.236 . S
O94 Dy80 2.275 . S
O94 C82 1.254 . S
O95 Dy81 2.339 . S
O95 C82 1.257 . S
C96 C99 1.344 . S
C96 C100 1.328 . S
C96 C102 1.516 . S
C97 C98 1.304 . S
C97 C101 1.323 . S
C98 C97 1.304 . S
C98 C99 1.371 . S
C98 H112 0.930 . S
C99 C96 1.344 . S
C99 C98 1.371 . S
C99 H113 0.931 . S
C100 C96 1.328 . S
C100 C101 1.433 . S
C100 H114 0.931 . S
C101 C97 1.323 . S
C101 C100 1.433 . S
C101 H115 0.933 . S
C102 Dy80 2.738 . S
C102 O85 1.255 . S
C102 O86 1.249 . S
C102 C96 1.516 . S
C103 O87 1.254 . S
C103 O88 1.257 . S
C104 O89 1.266 . S
C104 O90 1.236 . S
C105 C108 1.344 . S
C105 C109 1.328 . S
C105 C111 1.516 . S
C106 C107 1.304 1_655 S
C106 C110 1.323 1_655 S
C107 C106 1.304 1_455 S
C107 C108 1.371 . S
C107 H116 0.930 . S
C108 C105 1.344 . S
C108 C107 1.371 . S
C108 H117 0.931 . S
C109 C105 1.328 . S
C109 C110 1.433 . S
C109 H118 0.931 . S
C110 C106 1.323 1_455 S
C110 C109 1.433 . S
C110 H119 0.933 1_455 S
C111 Dy81 2.738 . S
C111 O91 1.255 . S
C111 O92 1.249 . S
C111 C105 1.516 . S
H112 C98 0.930 . S
H113 C99 0.931 . S
H114 C100 0.931 . S
H115 C101 0.933 . S
H116 C107 0.930 . S
H117 C108 0.931 . S
H118 C109 0.931 . S
H119 C110 0.933 1_655 S
H120 C123 0.931 . S
H121 C126 0.928 . S
H122 C128 0.930 . S
C123 H120 0.931 . S
C123 C124 1.413 . S
C123 C125 1.360 1_565 S
C124 C123 1.413 . S
C124 C128 1.429 1_565 S
C125 C123 1.360 1_545 S
C125 C126 1.372 . S
C126 H121 0.928 . S
C126 C125 1.372 . S
C126 C127 1.404 . S
C127 C126 1.404 . S
C127 C128 1.391 . S
C128 H122 0.930 . S
C128 C124 1.429 1_545 S
C128 C127 1.391 . S
H129 C132 0.931 . S
H130 C135 0.928 . S
H131 C137 0.930 . S
C132 H129 0.931 . S
C132 C133 1.413 . S
C132 C134 1.360 . S
C133 C132 1.413 . S
C133 C137 1.429 . S
C134 C132 1.360 . S
C134 C135 1.372 . S
C135 H130 0.928 . S
C135 C134 1.372 . S
C135 C136 1.404 . S
C136 C135 1.404 . S
C136 C137 1.391 . S
C137 H131 0.930 . S
C137 C133 1.429 . S
C137 C136 1.391 . S
H138 C141 0.931 . S
H139 C144 0.928 . S
H140 C146 0.930 1_655 S
C141 H138 0.931 . S
C141 C142 1.413 1_554 S
C141 C143 1.360 1_655 S
C142 C141 1.413 1_556 S
C142 C146 1.429 1_655 S
C143 C141 1.360 1_455 S
C143 C144 1.372 . S
C144 H139 0.928 . S
C144 C143 1.372 . S
C144 C145 1.404 1_554 S
C145 C144 1.404 1_556 S
C145 C146 1.391 . S
C146 H140 0.930 1_455 S
C146 C142 1.429 1_455 S
C146 C145 1.391 . S
H147 C150 0.931 . S
H148 C153 0.928 . S
H149 C155 0.930 . S
C150 H147 0.931 . S
C150 C151 1.413 . S
C150 C152 1.360 1_655 S
C151 C150 1.413 . S
C151 C155 1.429 1_655 S
C152 C150 1.360 1_455 S
C152 C153 1.372 . S
C153 H148 0.928 . S
C153 C152 1.372 . S
C153 C154 1.404 . S
C154 C153 1.404 . S
C154 C155 1.391 . S
C155 H149 0.930 . S
C155 C151 1.429 1_455 S
C155 C154 1.391 . S
H156 C159 0.931 . S
H157 C162 0.928 . S
H158 C164 0.930 . S
C159 H156 0.931 . S
C159 C160 1.413 . S
C159 C161 1.360 . S
C160 C159 1.413 . S
C160 C164 1.429 . S
C161 C159 1.360 . S
C161 C162 1.372 1_545 S
C162 H157 0.928 . S
C162 C161 1.372 1_565 S
C162 C163 1.404 . S
C163 C162 1.404 . S
C163 C164 1.391 1_565 S
C164 H158 0.930 . S
C164 C160 1.429 . S
C164 C163 1.391 1_545 S
H165 C168 0.931 . S
H166 C171 0.928 . S
H167 C173 0.930 . S
C168 H165 0.931 . S
C168 C169 1.413 . S
C168 C170 1.360 . S
C169 C168 1.413 . S
C169 C173 1.429 . S
C170 C168 1.360 . S
C170 C171 1.372 . S
C171 H166 0.928 . S
C171 C170 1.372 . S
C171 C172 1.404 . S
C172 C171 1.404 . S
C172 C173 1.391 . S
C173 H167 0.930 . S
C173 C169 1.429 . S
C173 C172 1.391 . S
C24 C169 4.657 . S
C66 C151 3.332 . S
C93 C163 2.419 . S
C13 C172 4.793 . S
C154 C57 3.176 . S
C160 C104 2.526 . S
C64 C133 2.320 . S
C97 C142 4.850 . S
C17 C124 3.059 1_545 S
C136 C53 2.327 . S
C145 C106 3.808 1_455 S
C26 C127 4.493 1_565 S
C143 C2 1.600 1_455 S
C63 C125 1.232 . S
C82 C134 1.100 . S
C161 C42 1.209 . S
C170 C103 1.993 1_554 S
C23 C152 1.216 . S
