# Generated by pormake.
# Topology anh, (6,3)-cn, num edge types: 1
# Building blocks:
#     Node 0, Type 0, BuildingBlock: CUWYAW_clean_sbu_0, # of connection points: 6
#     Node 1, Type 0, BuildingBlock: CUWYAW_clean_sbu_0, # of connection points: 6
#     Node 2, Type 0, BuildingBlock: CUWYAW_clean_sbu_0, # of connection points: 6
#     Node 3, Type 1, BuildingBlock: QEWDON_clean_linker_0, # of connection points: 3
#     Node 4, Type 1, BuildingBlock: QEWDON_clean_linker_0, # of connection points: 3
#     Node 5, Type 1, BuildingBlock: QEWDON_clean_linker_0, # of connection points: 3
#     Node 6, Type 1, BuildingBlock: QEWDON_clean_linker_0, # of connection points: 3
#     Node 7, Type 1, BuildingBlock: QEWDON_clean_linker_0, # of connection points: 3
#     Node 8, Type 1, BuildingBlock: QEWDON_clean_linker_0, # of connection points: 3
#     Edge 9, Type (0, 1), None
#     Edge 10, Type (0, 1), None
#     Edge 11, Type (0, 1), None
#     Edge 12, Type (0, 1), None
#     Edge 13, Type (0, 1), None
#     Edge 14, Type (0, 1), None
#     Edge 15, Type (0, 1), None
#     Edge 16, Type (0, 1), None
#     Edge 17, Type (0, 1), None
#     Edge 18, Type (0, 1), None
#     Edge 19, Type (0, 1), None
#     Edge 20, Type (0, 1), None
#     Edge 21, Type (0, 1), None
#     Edge 22, Type (0, 1), None
#     Edge 23, Type (0, 1), None
#     Edge 24, Type (0, 1), None
#     Edge 25, Type (0, 1), None
#     Edge 26, Type (0, 1), None
# Relax obj value: 0.665
# Max RMSD: 0.210
# Mean RMSD: 0.153
data_MOF--net-anh--node1-CUWYAW_clean_sbu_0--node2-QEWDON_clean_linker_0--edge1-none
_symmetry_space_group_name_H-M    P1
_symmetry_Int_Tables_number       1
_symmetry_cell_setting            triclinic
loop_
_symmetry_equiv_pos_as_xyz
'x, y, z'
_cell_length_a     15.044505
_cell_length_b     15.375997
_cell_length_c     22.50948
_cell_angle_alpha  94.452106
_cell_angle_beta   93.705691
_cell_angle_gamma 120.22521
loop_
_atom_site_label
_atom_site_type_symbol
_atom_site_fract_x
_atom_site_fract_y
_atom_site_fract_z
_atom_type_partial_charge
C0 C 1.2529 0.46558 0.10278 0.0
Eu1 Eu 0.34582 0.66211 0.11394 0.0
C2 C 1.15118 0.4013 0.06674 0.0
C3 C 1.07048 0.32548 0.09304 0.0
C4 C 0.97051 0.30995 0.08244 0.0
C5 C 0.95315 0.37494 0.04861 0.0
C6 C 1.02782 0.43147 0.01136 0.0
C7 C 1.12578 0.44307 0.01983 0.0
C8 C 0.37153 0.77719 0.22246 0.0
C9 C 1.18756 0.74054 0.07642 0.0
C10 C 0.48523 1.05331 0.10644 0.0
Eu11 Eu 0.43789 0.86578 0.09935 0.0
C12 C 0.44577 1.10939 0.14012 0.0
C13 C 0.42059 1.0905 0.19876 0.0
C14 C 0.42481 1.16806 0.23801 0.0
C15 C 0.47351 0.26614 0.22037 0.0
C16 C 0.44731 0.26642 0.15895 0.0
C17 C 0.44651 0.1925 0.11808 0.0
C18 C 0.40974 0.75006 -0.00477 0.0
C19 C 0.59997 0.78403 0.10386 0.0
O20 O 0.33048 0.5202 0.07335 0.0
O21 O 1.24995 0.51956 0.14948 0.0
O22 O 0.28963 0.69234 0.20013 0.0
O23 O 0.43842 0.8004 0.1855 0.0
O24 O 1.2042 0.66407 0.06602 0.0
O25 O 1.26768 0.82668 0.10321 0.0
O26 O 0.42142 0.985 0.0627 0.0
O27 O 0.53694 1.02251 0.13888 0.0
O28 O 0.48941 0.84014 0.01054 0.0
O29 O 0.34519 0.72932 0.0324 0.0
O30 O 0.59129 0.86605 0.10524 0.0
O31 O 0.51533 0.69531 0.108 0.0
H32 H 1.08705 0.28927 0.128 0.0
H33 H 0.91157 0.25743 0.10749 0.0
H34 H 1.01796 0.47978 -0.0175 0.0
H35 H 1.18532 0.50014 -0.00244 0.0
H36 H 0.40884 1.02184 0.21568 0.0
H37 H 0.41756 1.15759 0.28483 0.0
H38 H 0.45628 0.3344 0.14255 0.0
H39 H 0.45557 0.20459 0.07153 0.0
C40 C 0.68406 0.42647 0.46521 0.0
Eu41 Eu 0.7334 0.28973 0.45454 0.0
C42 C 0.7619 0.53149 0.48993 0.0
C43 C 0.80908 0.552 0.54896 0.0
C44 C 0.88708 0.64957 0.57178 0.0
C45 C 0.90196 0.73071 0.54013 0.0
C46 C 0.88057 0.70735 0.47733 0.0
C47 C 0.80526 0.6083 0.45241 0.0
C48 C 0.80495 0.24491 0.55608 0.0
C49 C 0.98923 0.45073 0.44205 0.0
C50 C 0.9166 1.09006 0.38343 0.0
Eu51 Eu 0.85171 0.21278 0.41582 0.0
C52 C 0.85236 0.98584 0.35197 0.0
C53 C 0.87836 0.91204 0.36129 0.0
C54 C 0.8007 0.80934 0.35201 0.0
C55 C 0.69635 0.78189 0.34039 0.0
C56 C 0.67455 0.85264 0.31881 0.0
C57 C 0.75305 0.95451 0.32337 0.0
C58 C 0.77938 0.28212 0.32862 0.0
C59 C 0.59286 1.05089 0.4044 0.0
O60 O 0.70272 0.39733 0.41415 0.0
O61 O 0.65668 0.35771 0.50215 0.0
O62 O 0.71016 0.22169 0.54082 0.0
O63 O 0.85884 0.28302 0.51251 0.0
O64 O 0.89556 0.43507 0.45052 0.0
O65 O 0.99907 0.3703 0.43328 0.0
O66 O 0.89611 1.10274 0.43809 0.0
O67 O 0.92548 1.16192 0.35271 0.0
O68 O 0.87459 0.30396 0.33663 0.0
O69 O 0.72889 0.22463 0.36551 0.0
O70 O 0.68731 1.06361 0.40539 0.0
O71 O 0.58707 1.13283 0.42003 0.0
H72 H 0.78325 0.49387 0.57832 0.0
H73 H 0.91544 0.66173 0.61861 0.0
H74 H 0.90637 0.76816 0.44987 0.0
H75 H 0.77852 0.59261 0.40485 0.0
H76 H 0.95541 0.93368 0.38099 0.0
H77 H 0.8193 0.75333 0.36396 0.0
H78 H 0.59521 0.83131 0.30611 0.0
H79 H 0.73303 1.00976 0.31118 0.0
C80 C 1.15103 0.85477 0.72062 0.0
Eu81 Eu 0.97482 0.75213 0.76359 0.0
C82 C 1.23112 0.82681 0.71894 0.0
C83 C 0.32741 0.88924 0.75335 0.0
C84 C 0.37904 0.84543 0.78023 0.0
C85 C 0.33102 0.73867 0.77565 0.0
C86 C 1.24804 0.68059 0.72986 0.0
C87 C 1.19969 0.72497 0.7009 0.0
C88 C 0.97856 0.72979 0.88524 0.0
C89 C 0.87292 0.49964 0.741 0.0
C90 C 0.6485 0.52312 0.87727 0.0
Eu91 Eu 0.77308 0.63596 0.80492 0.0
C92 C 0.57488 0.41514 0.87894 0.0
C93 C 0.53948 0.3824 0.9337 0.0
C94 C 0.43919 0.29972 0.93346 0.0
C95 C 0.37378 0.2598 0.87869 0.0
C96 C 0.42117 0.26849 0.82593 0.0
C97 C 0.52127 0.35063 0.8254 0.0
C98 C 0.74992 0.66984 0.69294 0.0
C99 C 0.85008 0.87786 0.78737 0.0
O100 O 1.06414 0.7928 0.68716 0.0
O101 O 1.13546 0.87802 0.77451 0.0
O102 O 1.03503 0.71481 0.84934 0.0
O103 O 0.92187 0.75283 0.85481 0.0
O104 O 0.95063 0.59047 0.73167 0.0
O105 O 0.796 0.49907 0.76848 0.0
O106 O 0.62245 0.56653 0.83719 0.0
O107 O 0.74658 0.55118 0.88172 0.0
O108 O 0.67936 0.65123 0.72866 0.0
O109 O 0.8182 0.65093 0.71439 0.0
O110 O 0.79011 0.79757 0.8158 0.0
O111 O 0.92603 0.87629 0.76077 0.0
H112 H 0.35576 0.96917 0.7658 0.0
H113 H 0.44929 0.89463 0.81028 0.0
H114 H 1.21025 0.599 0.72122 0.0
H115 H 1.12831 0.67545 0.67163 0.0
H116 H 0.58169 0.42886 0.97583 0.0
H117 H 0.40584 0.28784 0.97545 0.0
H118 H 0.37402 0.23134 0.78316 0.0
H119 H 0.54985 0.37179 0.78273 0.0
H120 H 0.87863 0.41158 0.24907 0.0
C121 C 0.79906 0.39337 0.24881 0.0
C122 C 0.73827 0.32952 0.28895 0.0
C123 C 0.75479 0.42535 0.20474 0.0
H124 H 0.58699 0.2488 0.31653 0.0
C125 C 0.63382 0.30204 0.28711 0.0
C126 C 0.58756 0.33326 0.24354 0.0
C127 C 0.65372 0.40601 0.20833 0.0
C128 C 0.79862 0.44957 0.14627 0.0
H129 H 0.62101 0.43304 0.17572 0.0
C130 C 0.85198 0.40285 0.12439 0.0
C131 C 0.87793 0.40675 0.06527 0.0
C132 C 0.77357 0.50401 0.1077 0.0
H133 H 0.73521 0.54383 0.12271 0.0
C134 C 0.79446 0.5047 0.04814 0.0
H135 H 0.87348 0.36284 0.15384 0.0
C136 C 0.84509 0.45571 0.02672 0.0
H137 H 0.8603 0.45858 -0.01961 0.0
H138 H 0.7715 0.54379 0.01839 0.0
H139 H 0.59923 0.63723 0.60228 0.0
C140 C 0.67619 0.69742 0.59654 0.0
C141 C 0.76051 0.72576 0.64089 0.0
C142 C 0.69565 0.74194 0.54229 0.0
H143 H 0.92545 0.81459 0.66072 0.0
C144 C 0.8606 0.79726 0.62942 0.0
C145 C 0.87707 0.80645 0.56961 0.0
C146 C 0.80014 0.81368 0.53597 0.0
C147 C 0.62109 0.69441 0.48595 0.0
H148 H 0.82015 0.84508 0.49417 0.0
C149 C 0.63583 0.75378 0.43905 0.0
C150 C 0.62538 0.71206 0.37946 0.0
C151 C 0.5646 0.58807 0.47121 0.0
H152 H 0.55028 0.53864 0.5056 0.0
C153 C 0.53802 0.54464 0.41084 0.0
H154 H 0.67672 0.83579 0.44964 0.0
C155 C 0.57384 0.60656 0.36511 0.0
H156 H 0.56587 0.57275 0.31959 0.0
H157 H 0.49902 0.46302 0.39997 0.0
H158 H 0.34112 0.55208 0.96594 0.0
C159 C 0.34151 0.58968 0.92734 0.0
C160 C 0.38222 0.69433 0.93468 0.0
C161 C 0.30091 0.53295 0.87054 0.0
H162 H 0.41178 0.82353 0.89251 0.0
C163 C 0.38614 0.74367 0.88456 0.0
C164 C 0.34795 0.68897 0.82636 0.0
C165 C 0.30793 0.58313 0.82015 0.0
C166 C 1.25731 0.42186 0.86367 0.0
H167 H 0.28142 0.5384 0.77644 0.0
C168 C 0.31855 0.3852 0.88646 0.0
C169 C 0.28959 0.28277 0.87288 0.0
C170 C 1.16067 0.35347 0.83071 0.0
H171 H 1.11145 0.38009 0.8126 0.0
C172 C 1.12822 0.25015 0.81991 0.0
H173 H 0.39485 0.43979 0.90937 0.0
C174 C 1.19322 0.21491 0.83973 0.0
H175 H 1.17072 1.13652 0.82688 0.0
H176 H 1.05492 0.19825 0.79351 0.0
H177 H 1.24973 0.68596 0.30778 0.0
C178 C 0.31761 0.75669 0.32743 0.0
C179 C 0.39091 0.81714 0.28924 0.0
C180 C 0.3286 0.78605 0.38991 0.0
H181 H 0.53342 0.95958 0.28621 0.0
C182 C 0.47823 0.91248 0.31508 0.0
C183 C 0.49556 0.94738 0.37779 0.0
C184 C 0.42023 0.88223 0.41407 0.0
C185 C 1.24185 0.72051 0.42895 0.0
H186 H 0.43516 0.90718 0.46173 0.0
C187 C 1.16314 0.61249 0.41479 0.0
C188 C 1.08244 0.56054 0.45324 0.0
C189 C 1.23435 0.77082 0.48181 0.0
H190 H 0.28554 0.85138 0.49454 0.0
C191 C 1.15863 0.72057 0.51919 0.0
H192 H 1.16313 0.56984 0.37427 0.0
C193 C 1.08458 0.61811 0.50528 0.0
H194 H 1.02727 0.58333 0.53589 0.0
H195 H 1.15622 0.76248 0.5594 0.0
H196 H 0.82569 1.1326 0.63946 0.0
C197 C 0.84206 0.20566 0.66065 0.0
C198 C 0.84474 0.27779 0.62325 0.0
C199 C 0.85215 0.22294 0.72451 0.0
H200 H 0.86259 0.4263 0.62261 0.0
C201 C 0.8605 0.3725 0.6512 0.0
C202 C 0.86687 0.39667 0.7145 0.0
C203 C 0.86354 0.32 0.74998 0.0
C204 C 0.83671 1.13549 0.76399 0.0
H205 H 0.871 0.33742 0.79812 0.0
C206 C 0.85714 1.05094 0.75124 0.0
C207 C 0.83551 0.97338 0.79246 0.0
C208 C 0.79316 1.13508 0.81749 0.0
H209 H 0.77082 0.19012 0.82972 0.0
C210 C 0.77276 1.06256 0.85625 0.0
H211 H 0.88912 1.04569 0.71035 0.0
C212 C 0.79316 0.98453 0.84426 0.0
H213 H 0.77521 0.93175 0.87703 0.0
H214 H 0.73909 1.06644 0.89675 0.0
H215 H 0.86077 0.75707 0.9657 0.0
C216 C 0.92181 0.74947 -0.01169 0.0
C217 C 0.98941 0.73351 0.95326 0.0
C218 C 0.93484 0.76004 0.05215 0.0
H219 H 1.12333 0.71513 0.95691 0.0
C220 C 1.07105 0.72594 -0.01673 0.0
C221 C 1.09009 0.73746 0.04671 0.0
C222 C 1.02056 0.75345 0.0801 0.0
C223 C 0.86867 0.78976 0.09029 0.0
H224 H 1.03392 0.76052 0.12848 0.0
C225 C 0.76072 0.7623 0.075 0.0
C226 C 0.70976 0.79937 0.11417 0.0
C227 C 0.92004 0.85419 0.14449 0.0
H228 H 1.00107 0.88199 0.15803 0.0
C229 C 0.87106 0.88858 0.18195 0.0
H230 H 0.71789 0.71441 0.03341 0.0
C231 C 0.76878 0.86233 0.16702 0.0
H232 H 0.73539 0.89304 0.19727 0.0
H233 H 0.91404 0.93836 0.223 0.0
loop_
_geom_bond_atom_site_label_1
_geom_bond_atom_site_label_2
_geom_bond_distance
_geom_bond_site_symmetry_2
_ccdc_geom_bond_type
C0 Eu1 2.835 . S
C0 C2 1.500 . S
C0 O20 1.257 . S
C0 O21 1.260 . S
Eu1 C0 2.835 . S
Eu1 O20 2.473 . S
Eu1 O21 2.480 . S
Eu1 O22 2.430 . S
Eu1 O23 2.670 1_655 S
Eu1 O24 2.394 . S
Eu1 O29 2.355 . S
Eu1 O31 2.374 1_655 S
C2 C0 1.500 . S
C2 C3 1.377 . S
C2 C7 1.377 . S
C3 C2 1.377 . S
C3 C4 1.395 . S
C3 H32 0.931 . S
C4 C3 1.395 . S
C4 C5 1.383 . S
C4 H33 0.931 . S
C5 C4 1.383 . S
C5 C6 1.394 . S
C6 C5 1.394 . S
C6 C7 1.378 . S
C6 H34 0.931 1_554 S
C7 C2 1.377 . S
C7 C6 1.378 . S
C7 H35 0.931 . S
C8 O22 1.259 1_455 S
C8 O23 1.270 . S
C9 O24 1.251 . S
C9 O25 1.251 . S
C10 Eu11 2.835 . S
C10 C12 1.500 . S
C10 O26 1.257 . S
C10 O27 1.260 . S
Eu11 C10 2.835 . S
Eu11 O23 2.355 . S
Eu11 O25 2.374 1_455 S
Eu11 O26 2.473 . S
Eu11 O27 2.480 . S
Eu11 O28 2.430 1_554 S
Eu11 O29 2.670 1_455 S
Eu11 O30 2.394 . S
C12 C10 1.500 . S
C12 C13 1.377 . S
C12 C17 1.377 . S
C13 C12 1.377 . S
C13 C14 1.395 . S
C13 H36 0.931 . S
C14 C13 1.395 . S
C14 C15 1.383 . S
C14 H37 0.931 . S
C15 C14 1.383 . S
C15 C16 1.394 . S
C16 C15 1.394 . S
C16 C17 1.378 . S
C16 H38 0.931 . S
C17 C12 1.377 . S
C17 C16 1.378 . S
C17 H39 0.931 . S
C18 O28 1.259 . S
C18 O29 1.270 1_456 S
C19 O30 1.251 . S
C19 O31 1.251 . S
O20 C0 1.257 . S
O20 Eu1 2.473 . S
O21 C0 1.260 . S
O21 Eu1 2.480 . S
O22 Eu1 2.430 . S
O22 C8 1.259 1_655 S
O23 Eu1 2.670 1_455 S
O23 C8 1.270 . S
O23 Eu11 2.355 . S
O24 Eu1 2.394 . S
O24 C9 1.251 . S
O25 C9 1.251 . S
O25 Eu11 2.374 1_655 S
O26 C10 1.257 . S
O26 Eu11 2.473 . S
O27 C10 1.260 . S
O27 Eu11 2.480 . S
O28 Eu11 2.430 1_556 S
O28 C18 1.259 . S
O29 Eu1 2.355 . S
O29 Eu11 2.670 1_655 S
O29 C18 1.270 1_654 S
O30 Eu11 2.394 . S
O30 C19 1.251 . S
O31 Eu1 2.374 1_455 S
O31 C19 1.251 . S
H32 C3 0.931 . S
H33 C4 0.931 . S
H34 C6 0.931 1_556 S
H35 C7 0.931 . S
H36 C13 0.931 . S
H37 C14 0.931 . S
H38 C16 0.931 . S
H39 C17 0.931 . S
C40 Eu41 2.835 . S
C40 C42 1.500 . S
C40 O60 1.257 . S
C40 O61 1.260 . S
Eu41 C40 2.835 . S
Eu41 O60 2.473 . S
Eu41 O61 2.480 . S
Eu41 O62 2.430 . S
Eu41 O63 2.670 . S
Eu41 O64 2.394 . S
Eu41 O69 2.355 . S
Eu41 O71 2.374 1_545 S
C42 C40 1.500 . S
C42 C43 1.377 . S
C42 C47 1.377 . S
C43 C42 1.377 . S
C43 C44 1.395 . S
C43 H72 0.931 . S
C44 C43 1.395 . S
C44 C45 1.383 . S
C44 H73 0.931 . S
C45 C44 1.383 . S
C45 C46 1.394 . S
C46 C45 1.394 . S
C46 C47 1.378 . S
C46 H74 0.931 . S
C47 C42 1.377 . S
C47 C46 1.378 . S
C47 H75 0.931 . S
C48 O62 1.259 . S
C48 O63 1.270 . S
C49 O64 1.251 . S
C49 O65 1.251 . S
C50 Eu51 2.835 . S
C50 C52 1.500 . S
C50 O66 1.257 . S
C50 O67 1.260 . S
Eu51 C50 2.835 . S
Eu51 O63 2.355 1_565 S
Eu51 O65 2.374 1_565 S
Eu51 O66 2.473 . S
Eu51 O67 2.480 . S
Eu51 O68 2.430 . S
Eu51 O69 2.670 1_565 S
Eu51 O70 2.394 . S
C52 C50 1.500 . S
C52 C53 1.377 . S
C52 C57 1.377 . S
C53 C52 1.377 . S
C53 C54 1.395 . S
C53 H76 0.931 . S
C54 C53 1.395 . S
C54 C55 1.383 . S
C54 H77 0.931 . S
C55 C54 1.383 . S
C55 C56 1.394 . S
C56 C55 1.394 . S
C56 C57 1.378 . S
C56 H78 0.931 . S
C57 C52 1.377 . S
C57 C56 1.378 . S
C57 H79 0.931 . S
C58 O68 1.259 1_545 S
C58 O69 1.270 . S
C59 O70 1.251 . S
C59 O71 1.251 . S
O60 C40 1.257 . S
O60 Eu41 2.473 . S
O61 C40 1.260 . S
O61 Eu41 2.480 . S
O62 Eu41 2.430 . S
O62 C48 1.259 . S
O63 Eu41 2.670 . S
O63 C48 1.270 . S
O63 Eu51 2.355 1_545 S
O64 Eu41 2.394 . S
O64 C49 1.251 . S
O65 C49 1.251 . S
O65 Eu51 2.374 1_545 S
O66 C50 1.257 . S
O66 Eu51 2.473 . S
O67 C50 1.260 . S
O67 Eu51 2.480 . S
O68 Eu51 2.430 . S
O68 C58 1.259 1_565 S
O69 Eu41 2.355 . S
O69 Eu51 2.670 1_545 S
O69 C58 1.270 . S
O70 Eu51 2.394 . S
O70 C59 1.251 . S
O71 Eu41 2.374 1_565 S
O71 C59 1.251 . S
H72 C43 0.931 . S
H73 C44 0.931 . S
H74 C46 0.931 . S
H75 C47 0.931 . S
H76 C53 0.931 . S
H77 C54 0.931 . S
H78 C56 0.931 . S
H79 C57 0.931 . S
C80 Eu81 2.835 . S
C80 C82 1.500 . S
C80 O100 1.257 . S
C80 O101 1.260 . S
Eu81 C80 2.835 . S
Eu81 O100 2.473 . S
Eu81 O101 2.480 . S
Eu81 O102 2.430 . S
Eu81 O103 2.670 . S
Eu81 O104 2.394 . S
Eu81 O109 2.355 . S
Eu81 O111 2.374 . S
C82 C80 1.500 . S
C82 C83 1.377 . S
C82 C87 1.377 . S
C83 C82 1.377 . S
C83 C84 1.395 . S
C83 H112 0.931 . S
C84 C83 1.395 . S
C84 C85 1.383 . S
C84 H113 0.931 . S
C85 C84 1.383 . S
C85 C86 1.394 . S
C86 C85 1.394 . S
C86 C87 1.378 . S
C86 H114 0.931 . S
C87 C82 1.377 . S
C87 C86 1.378 . S
C87 H115 0.931 . S
C88 O102 1.259 . S
C88 O103 1.270 . S
C89 O104 1.251 . S
C89 O105 1.251 . S
C90 Eu91 2.835 . S
C90 C92 1.500 . S
C90 O106 1.257 . S
C90 O107 1.260 . S
Eu91 C90 2.835 . S
Eu91 O103 2.355 . S
Eu91 O105 2.374 . S
Eu91 O106 2.473 . S
Eu91 O107 2.480 . S
Eu91 O108 2.430 . S
Eu91 O109 2.670 . S
Eu91 O110 2.394 . S
C92 C90 1.500 . S
C92 C93 1.377 . S
C92 C97 1.377 . S
C93 C92 1.377 . S
C93 C94 1.395 . S
C93 H116 0.931 . S
C94 C93 1.395 . S
C94 C95 1.383 . S
C94 H117 0.931 . S
C95 C94 1.383 . S
C95 C96 1.394 . S
C96 C95 1.394 . S
C96 C97 1.378 . S
C96 H118 0.931 . S
C97 C92 1.377 . S
C97 C96 1.378 . S
C97 H119 0.931 . S
C98 O108 1.259 . S
C98 O109 1.270 . S
C99 O110 1.251 . S
C99 O111 1.251 . S
O100 C80 1.257 . S
O100 Eu81 2.473 . S
O101 C80 1.260 . S
O101 Eu81 2.480 . S
O102 Eu81 2.430 . S
O102 C88 1.259 . S
O103 Eu81 2.670 . S
O103 C88 1.270 . S
O103 Eu91 2.355 . S
O104 Eu81 2.394 . S
O104 C89 1.251 . S
O105 C89 1.251 . S
O105 Eu91 2.374 . S
O106 C90 1.257 . S
O106 Eu91 2.473 . S
O107 C90 1.260 . S
O107 Eu91 2.480 . S
O108 Eu91 2.430 . S
O108 C98 1.259 . S
O109 Eu81 2.355 . S
O109 Eu91 2.670 . S
O109 C98 1.270 . S
O110 Eu91 2.394 . S
O110 C99 1.251 . S
O111 Eu81 2.374 . S
O111 C99 1.251 . S
H112 C83 0.931 . S
H113 C84 0.931 . S
H114 C86 0.931 . S
H115 C87 0.931 . S
H116 C93 0.931 . S
H117 C94 0.931 . S
H118 C96 0.931 . S
H119 C97 0.931 . S
H120 C121 0.949 . S
C121 H120 0.949 . S
C121 C122 1.395 . S
C121 C123 1.391 . S
C122 C121 1.395 . S
C122 C125 1.390 1_545 S
C123 C121 1.391 . S
C123 C127 1.387 . S
C123 C128 1.491 . S
H124 C125 0.950 . S
C125 C122 1.390 1_565 S
C125 H124 0.950 . S
C125 C126 1.378 . S
C126 C125 1.378 . S
C126 C127 1.409 1_565 S
C127 C123 1.387 . S
C127 C126 1.409 1_545 S
C127 H129 0.951 . S
C128 C123 1.491 . S
C128 C130 1.382 . S
C128 C132 1.404 . S
H129 C127 0.951 . S
C130 C128 1.382 . S
C130 C131 1.390 . S
C130 H135 0.949 . S
C131 C130 1.390 . S
C131 C136 1.399 . S
C132 C128 1.404 . S
C132 H133 0.950 . S
C132 C134 1.375 . S
H133 C132 0.950 . S
C134 C132 1.375 . S
C134 C136 1.382 . S
C134 H138 0.950 . S
H135 C130 0.949 . S
C136 C131 1.399 . S
C136 C134 1.382 . S
C136 H137 0.952 . S
H137 C136 0.952 . S
H138 C134 0.950 . S
H139 C140 0.949 . S
C140 H139 0.949 . S
C140 C141 1.395 . S
C140 C142 1.391 . S
C141 C140 1.395 . S
C141 C144 1.390 . S
C142 C140 1.391 . S
C142 C146 1.387 . S
C142 C147 1.491 . S
H143 C144 0.950 . S
C144 C141 1.390 . S
C144 H143 0.950 . S
C144 C145 1.378 . S
C145 C144 1.378 . S
C145 C146 1.409 . S
C146 C142 1.387 . S
C146 C145 1.409 . S
C146 H148 0.951 . S
C147 C142 1.491 . S
C147 C149 1.382 . S
C147 C151 1.404 . S
H148 C146 0.951 . S
C149 C147 1.382 . S
C149 C150 1.390 . S
C149 H154 0.949 . S
C150 C149 1.390 . S
C150 C155 1.399 . S
C151 C147 1.404 . S
C151 H152 0.950 . S
C151 C153 1.375 . S
H152 C151 0.950 . S
C153 C151 1.375 . S
C153 C155 1.382 . S
C153 H157 0.950 . S
H154 C149 0.949 . S
C155 C150 1.399 . S
C155 C153 1.382 . S
C155 H156 0.952 . S
H156 C155 0.952 . S
H157 C153 0.950 . S
H158 C159 0.949 . S
C159 H158 0.949 . S
C159 C160 1.395 1_456 S
C159 C161 1.391 . S
C160 C159 1.395 1_654 S
C160 C163 1.390 1_554 S
C161 C159 1.391 . S
C161 C165 1.387 1_455 S
C161 C166 1.491 . S
H162 C163 0.950 1_554 S
C163 C160 1.390 1_556 S
C163 H162 0.950 1_556 S
C163 C164 1.378 . S
C164 C163 1.378 . S
C164 C165 1.409 . S
C165 C161 1.387 1_655 S
C165 C164 1.409 . S
C165 H167 0.951 . S
C166 C161 1.491 . S
C166 C168 1.382 . S
C166 C170 1.404 . S
H167 C165 0.951 . S
C168 C166 1.382 . S
C168 C169 1.390 . S
C168 H173 0.949 . S
C169 C168 1.390 . S
C169 C174 1.399 . S
C170 C166 1.404 . S
C170 H171 0.950 . S
C170 C172 1.375 . S
H171 C170 0.950 . S
C172 C170 1.375 . S
C172 C174 1.382 . S
C172 H176 0.950 . S
H173 C168 0.949 . S
C174 C169 1.399 . S
C174 C172 1.382 . S
C174 H175 0.952 . S
H175 C174 0.952 . S
H176 C172 0.950 . S
H177 C178 0.949 1_655 S
C178 H177 0.949 1_455 S
C178 C179 1.395 . S
C178 C180 1.391 . S
C179 C178 1.395 . S
C179 C182 1.390 . S
C180 C178 1.391 . S
C180 C184 1.387 . S
C180 C185 1.491 1_455 S
H181 C182 0.950 . S
C182 C179 1.390 . S
C182 H181 0.950 . S
C182 C183 1.378 . S
C183 C182 1.378 . S
C183 C184 1.409 . S
C184 C180 1.387 . S
C184 C183 1.409 . S
C184 H186 0.951 . S
C185 C180 1.491 1_655 S
C185 C187 1.382 . S
C185 C189 1.404 . S
H186 C184 0.951 . S
C187 C185 1.382 . S
C187 C188 1.390 . S
C187 H192 0.949 . S
C188 C187 1.390 . S
C188 C193 1.399 . S
C189 C185 1.404 . S
C189 H190 0.950 . S
C189 C191 1.375 . S
H190 C189 0.950 . S
C191 C189 1.375 . S
C191 C193 1.382 . S
C191 H195 0.950 . S
H192 C187 0.949 . S
C193 C188 1.399 . S
C193 C191 1.382 . S
C193 H194 0.952 . S
H194 C193 0.952 . S
H195 C191 0.950 . S
H196 C197 0.944 1_565 S
C197 H196 0.944 1_545 S
C197 C198 1.399 . S
C197 C199 1.391 . S
C198 C197 1.399 . S
C198 C201 1.390 . S
C199 C197 1.391 . S
C199 C203 1.387 . S
C199 C204 1.491 1_545 S
H200 C201 0.950 . S
C201 C198 1.390 . S
C201 H200 0.950 . S
C201 C202 1.378 . S
C202 C201 1.378 . S
C202 C203 1.409 . S
C203 C199 1.387 . S
C203 C202 1.409 . S
C203 H205 0.951 . S
C204 C199 1.491 1_565 S
C204 C206 1.382 . S
C204 C208 1.404 . S
H205 C203 0.951 . S
C206 C204 1.382 . S
C206 C207 1.390 . S
C206 H211 0.949 . S
C207 C206 1.390 . S
C207 C212 1.399 . S
C208 C204 1.404 . S
C208 H209 0.950 . S
C208 C210 1.375 . S
H209 C208 0.950 . S
C210 C208 1.375 . S
C210 C212 1.382 . S
C210 H214 0.950 . S
H211 C206 0.949 . S
C212 C207 1.399 . S
C212 C210 1.382 . S
C212 H213 0.952 . S
H213 C212 0.952 . S
H214 C210 0.950 . S
H215 C216 0.949 . S
C216 H215 0.949 . S
C216 C217 1.395 1_554 S
C216 C218 1.391 . S
C217 C216 1.395 1_556 S
C217 C220 1.390 1_556 S
C218 C216 1.391 . S
C218 C222 1.387 . S
C218 C223 1.491 . S
H219 C220 0.950 1_556 S
C220 C217 1.390 1_554 S
C220 H219 0.950 1_554 S
C220 C221 1.378 . S
C221 C220 1.378 . S
C221 C222 1.409 . S
C222 C218 1.387 . S
C222 C221 1.409 . S
C222 H224 0.951 . S
C223 C218 1.491 . S
C223 C225 1.382 . S
C223 C227 1.404 . S
H224 C222 0.951 . S
C225 C223 1.382 . S
C225 C226 1.390 . S
C225 H230 0.949 . S
C226 C225 1.390 . S
C226 C231 1.399 . S
C227 C223 1.404 . S
C227 H228 0.950 . S
C227 C229 1.375 . S
H228 C227 0.950 . S
C229 C227 1.375 . S
C229 C231 1.382 . S
C229 H233 0.950 . S
H230 C225 0.949 . S
C231 C226 1.399 . S
C231 C229 1.382 . S
C231 H232 0.952 . S
H232 C231 0.952 . S
H233 C229 0.950 . S
C19 C226 4.755 . S
C49 C188 4.817 . S
C99 C207 4.768 . S
C9 C221 4.720 . S
C183 C59 4.675 . S
C202 C89 4.733 . S
C55 C150 2.598 . S
C85 C164 3.062 . S
C15 C126 2.685 . S
C145 C45 3.181 . S
C169 C95 2.502 . S
C5 C131 2.753 . S
C160 C18 1.461 1_654 S
C58 C122 0.600 . S
C98 C141 1.233 . S
C198 C48 1.985 . S
C217 C88 2.035 . S
C8 C179 2.092 . S
