# Generated by pormake.
# Topology pyr, (3,6)-cn, num edge types: 1
# Building blocks:
#     Node 0, Type 0, BuildingBlock: ESEHIV_clean_linker_0, # of connection points: 3
#     Node 1, Type 0, BuildingBlock: ESEHIV_clean_linker_0, # of connection points: 3
#     Node 2, Type 0, BuildingBlock: ESEHIV_clean_linker_0, # of connection points: 3
#     Node 3, Type 0, BuildingBlock: ESEHIV_clean_linker_0, # of connection points: 3
#     Node 4, Type 0, BuildingBlock: ESEHIV_clean_linker_0, # of connection points: 3
#     Node 5, Type 0, BuildingBlock: ESEHIV_clean_linker_0, # of connection points: 3
#     Node 6, Type 0, BuildingBlock: ESEHIV_clean_linker_0, # of connection points: 3
#     Node 7, Type 0, BuildingBlock: ESEHIV_clean_linker_0, # of connection points: 3
#     Node 8, Type 1, BuildingBlock: PAMTOO_clean_sbu_0, # of connection points: 6
#     Node 9, Type 1, BuildingBlock: PAMTOO_clean_sbu_0, # of connection points: 6
#     Node 10, Type 1, BuildingBlock: PAMTOO_clean_sbu_0, # of connection points: 6
#     Node 11, Type 1, BuildingBlock: PAMTOO_clean_sbu_0, # of connection points: 6
#     Edge 12, Type (0, 1), None
#     Edge 13, Type (0, 1), None
#     Edge 14, Type (0, 1), None
#     Edge 15, Type (0, 1), None
#     Edge 16, Type (0, 1), None
#     Edge 17, Type (0, 1), None
#     Edge 18, Type (0, 1), None
#     Edge 19, Type (0, 1), None
#     Edge 20, Type (0, 1), None
#     Edge 21, Type (0, 1), None
#     Edge 22, Type (0, 1), None
#     Edge 23, Type (0, 1), None
#     Edge 24, Type (0, 1), None
#     Edge 25, Type (0, 1), None
#     Edge 26, Type (0, 1), None
#     Edge 27, Type (0, 1), None
#     Edge 28, Type (0, 1), None
#     Edge 29, Type (0, 1), None
#     Edge 30, Type (0, 1), None
#     Edge 31, Type (0, 1), None
#     Edge 32, Type (0, 1), None
#     Edge 33, Type (0, 1), None
#     Edge 34, Type (0, 1), None
#     Edge 35, Type (0, 1), None
# Relax obj value: 0.499
# Max RMSD: 0.233
# Mean RMSD: 0.116
data_MOF--net-pyr--node1-PAMTOO_clean_sbu_0--node2-ESEHIV_clean_linker_0--edge1-none
_symmetry_space_group_name_H-M    P1
_symmetry_Int_Tables_number       1
_symmetry_cell_setting            triclinic
loop_
_symmetry_equiv_pos_as_xyz
'x, y, z'
_cell_length_a     15.427968
_cell_length_b     15.21624
_cell_length_c     13.984074
_cell_angle_alpha  89.992943
_cell_angle_beta   90.001958
_cell_angle_gamma 100.63944
loop_
_atom_site_label
_atom_site_type_symbol
_atom_site_fract_x
_atom_site_fract_y
_atom_site_fract_z
_atom_type_partial_charge
H0 H 0.33325 0.27069 0.60417 0.0
H1 H 0.56187 0.16801 0.5248 0.0
H2 H 0.47062 0.35713 0.34314 0.0
C3 C 0.38944 0.27503 0.55715 0.0
C4 C 0.39513 0.32725 0.4737 0.0
C5 C 0.45187 0.22109 0.57735 0.0
C6 C 0.51827 0.21466 0.51245 0.0
C7 C 0.5209 0.25858 0.42593 0.0
C8 C 0.46346 0.31942 0.40896 0.0
H9 H 0.95805 1.0552 1.02481 0.0
H10 H 0.18671 0.95256 1.1042 0.0
H11 H 0.04933 0.86613 0.84317 0.0
C12 C 1.00168 1.00857 1.01247 0.0
C13 C 0.99904 0.96466 0.92596 0.0
C14 C 0.06808 1.00215 1.07737 0.0
C15 C 0.13052 0.94821 1.05717 0.0
C16 C 0.12482 0.896 0.97373 0.0
C17 C 0.05649 0.90384 0.90899 0.0
H18 H 0.74414 0.35366 1.1535 0.0
H19 H 0.74922 0.59426 0.98743 0.0
H20 H 0.54326 0.36349 0.94143 0.0
C21 C 0.71656 0.38968 1.09781 0.0
C22 C 0.63912 0.34703 1.05037 0.0
C23 C 0.7573 0.47877 1.07809 0.0
C24 C 0.71849 0.52622 1.00451 0.0
C25 C 0.64132 0.48592 0.95147 0.0
C26 C 0.60285 0.3958 0.97744 0.0
H27 H 0.77582 0.86957 0.65349 0.0
H28 H 0.97672 0.85976 0.44145 0.0
H29 H 0.77073 0.629 0.48743 0.0
C30 C 0.8034 0.83356 0.59779 0.0
C31 C 0.76265 0.74448 0.57807 0.0
C32 C 0.88085 0.87622 0.55037 0.0
C33 C 0.91712 0.82745 0.47744 0.0
C34 C 0.87864 0.73734 0.45147 0.0
C35 C 0.80146 0.69704 0.50451 0.0
H36 H 0.45807 1.05523 0.90116 0.0
H37 H 0.68669 0.95255 0.82178 0.0
H38 H 0.54932 0.86612 1.08282 0.0
C39 C 0.50168 1.00858 0.9135 0.0
C40 C 0.49904 0.96466 1.00002 0.0
C41 C 0.56808 1.00215 0.84859 0.0
C42 C 0.6305 0.94821 0.8688 0.0
C43 C 0.62481 0.896 0.95225 0.0
C44 C 0.55648 0.90383 1.01699 0.0
H45 H 0.83323 0.27068 0.32177 0.0
H46 H 0.06189 0.16804 0.40116 0.0
H47 H 0.97061 0.35712 0.58279 0.0
C48 C 0.88942 0.27503 0.36879 0.0
C49 C 0.89512 0.32724 0.45223 0.0
C50 C 0.95186 0.22109 0.34859 0.0
C51 C 0.01827 0.21467 0.4135 0.0
C52 C 0.0209 0.25859 0.50001 0.0
C53 C 0.96345 0.31941 0.51697 0.0
H54 H 0.2758 0.86958 0.27245 0.0
H55 H 0.27073 0.62898 0.43852 0.0
H56 H 0.47668 0.85976 0.48452 0.0
C57 C 0.30338 0.83357 0.32815 0.0
C58 C 0.38082 0.87622 0.37558 0.0
C59 C 0.26264 0.74448 0.34787 0.0
C60 C 0.30145 0.69703 0.42145 0.0
C61 C 0.37862 0.73733 0.47449 0.0
C62 C 0.41709 0.82744 0.44852 0.0
H63 H 0.04323 0.36348 0.98451 0.0
H64 H 0.24412 0.35367 0.77247 0.0
H65 H 0.24921 0.59425 0.93853 0.0
C66 C 0.10282 0.3958 0.94852 0.0
C67 C 0.1413 0.48591 0.97449 0.0
C68 C 0.13909 0.34704 0.87558 0.0
C69 C 0.21654 0.38969 0.82816 0.0
C70 C 0.25729 0.47877 0.84788 0.0
C71 C 0.21848 0.52621 0.92145 0.0
Dy72 Dy 0.09708 1.07193 0.70305 0.0
Dy73 Dy 0.92286 0.15132 0.72292 0.0
C74 C 0.09196 0.25624 0.83822 0.0
O75 O 0.98187 0.98143 0.76341 0.0
O76 O 0.91662 1.06727 0.85424 0.0
O77 O 0.17644 1.01687 0.80374 0.0
O78 O 0.20189 1.00977 0.65136 0.0
O79 O 0.88224 1.02066 0.63379 0.0
O80 O 0.01467 0.9803 0.59632 0.0
O81 O 0.03806 0.24182 0.66256 0.0
O82 O 0.10332 0.15598 0.57174 0.0
O83 O 0.84351 0.20638 0.62223 0.0
O84 O 0.81804 0.21347 0.77462 0.0
C85 C 0.95175 0.99585 0.84624 0.0
O86 O 0.1377 0.20258 0.79218 0.0
O87 O 1.00527 0.24295 0.82965 0.0
C88 C 0.32159 1.0291 0.75401 0.0
C89 C 0.43386 0.15574 0.65397 0.0
C90 C 0.39951 0.18018 0.74062 0.0
C91 C 0.34348 0.11577 0.79208 0.0
C92 C 0.37704 1.00042 0.68671 0.0
C93 C 0.42926 1.06485 0.6317 0.0
C94 C 0.22881 0.99592 0.73804 0.0
C95 C 0.92798 0.967 0.58774 0.0
C96 C 0.06819 0.22739 0.57973 0.0
C97 C 0.69835 0.19415 0.67196 0.0
C98 C 0.58607 1.0675 0.77198 0.0
C99 C 0.62042 1.04307 0.68533 0.0
C100 C 0.67646 1.10749 0.63388 0.0
C101 C 0.6429 0.22283 0.73925 0.0
C102 C 0.59067 0.1584 0.79425 0.0
C103 C 0.79113 0.22733 0.68793 0.0
H104 H 0.4057 0.24987 0.76076 0.0
H105 H 0.30492 0.13763 0.84915 0.0
H106 H 0.36323 0.93243 0.65989 0.0
H107 H 0.45626 1.04378 0.56587 0.0
H108 H 0.61424 0.97339 0.66519 0.0
H109 H 0.71502 1.08563 0.57681 0.0
H110 H 0.65671 0.29082 0.76607 0.0
H111 H 0.56367 0.17947 0.86009 0.0
Dy112 Dy 0.42286 0.15133 1.20301 0.0
Dy113 Dy 0.59708 1.07192 0.22293 0.0
C114 C 0.42796 0.96701 0.33821 0.0
O115 O 0.53806 0.24183 0.26339 0.0
O116 O 0.6033 0.15596 0.35423 0.0
O117 O 0.34352 0.20642 0.30367 0.0
O118 O 0.31804 0.21347 1.15128 0.0
O119 O 0.63772 0.20258 1.1338 0.0
O120 O 0.5053 0.24295 1.09628 0.0
O121 O 0.48188 0.98142 1.16256 0.0
O122 O 0.41664 1.06729 1.07172 0.0
O123 O 0.67643 1.01683 1.12228 0.0
O124 O 0.7019 1.00977 0.27467 0.0
C125 C 0.56818 0.22738 0.34622 0.0
O126 O 0.38222 1.02067 0.29215 0.0
O127 O 0.51464 0.9803 0.32966 0.0
C128 C 0.19835 0.19416 0.25395 0.0
C129 C 0.08607 1.0675 1.15397 0.0
C130 C 0.12044 1.04308 0.24062 0.0
C131 C 0.17647 1.1075 0.29206 0.0
C132 C 0.14288 0.22283 1.18665 0.0
C133 C 0.09065 0.15839 1.13167 0.0
C134 C 0.29113 0.22735 0.23795 0.0
C135 C 0.59198 0.25624 1.08774 0.0
C136 C 0.45176 0.99587 1.07973 0.0
C137 C 0.82159 1.02909 1.17201 0.0
C138 C 0.93386 0.15574 0.272 0.0
C139 C 0.8995 0.18017 1.18534 0.0
C140 C 0.84347 0.11575 1.1339 0.0
C141 C 0.87705 1.00041 0.23931 0.0
C142 C 0.92928 1.06485 0.29429 0.0
C143 C 0.72881 0.9959 1.18799 0.0
H144 H 0.11426 0.9734 0.26079 0.0
H145 H 0.21504 1.08566 0.34913 0.0
H146 H 0.15669 0.29082 1.1598 0.0
H147 H 0.06364 0.17945 1.06583 0.0
H148 H 0.90568 0.24986 1.16518 0.0
H149 H 0.8049 0.1376 1.07682 0.0
H150 H 0.86325 0.93242 0.26615 0.0
H151 H 0.95629 1.04379 0.36013 0.0
Dy152 Dy 0.50915 0.53504 0.65587 0.0
Dy153 Dy 0.51079 0.6882 0.77008 0.0
C154 C 0.60001 0.53449 0.86874 0.0
O155 O 0.37545 0.47879 0.72305 0.0
O156 O 0.38357 0.59934 0.81824 0.0
O157 O 0.54445 0.40562 0.64077 0.0
O158 O 0.53258 0.48753 0.51483 0.0
O159 O 0.46656 0.73624 0.62473 0.0
O160 O 0.41376 0.60085 0.563 0.0
O161 O 0.64449 0.74446 0.70291 0.0
O162 O 0.63637 0.62391 0.60772 0.0
O163 O 0.47549 0.81762 0.78518 0.0
O164 O 0.48736 0.73572 0.91113 0.0
C165 C 0.34153 0.52036 0.79287 0.0
O166 O 0.55339 0.487 0.80122 0.0
O167 O 0.60619 0.6224 0.86296 0.0
C168 C 0.66006 0.4221 0.52598 0.0
C169 C 0.82379 0.37909 0.47581 0.0
C170 C 0.80647 0.40127 0.57101 0.0
C171 C 0.72456 0.42063 0.59611 0.0
C172 C 0.68357 0.41877 0.42971 0.0
C173 C 0.76445 0.39712 0.40476 0.0
C174 C 0.56816 0.42417 0.55235 0.0
C175 C 0.41993 0.68875 0.55721 0.0
C176 C 0.67841 0.70289 0.63308 0.0
C177 C 0.35988 0.80114 0.89997 0.0
C178 C 0.19615 0.84415 0.95015 0.0
C179 C 0.21347 0.82198 0.85494 0.0
C180 C 0.29538 0.80262 0.82984 0.0
C181 C 0.33637 0.80447 0.99624 0.0
C182 C 0.25549 0.82612 1.0212 0.0
C183 C 0.45178 0.79907 0.87361 0.0
H184 H 0.85196 0.3969 0.62854 0.0
H185 H 0.71042 0.42997 0.6709 0.0
H186 H 0.6373 0.42706 0.37367 0.0
H187 H 0.7773 0.38992 0.32969 0.0
H188 H 0.16797 0.82635 0.79742 0.0
H189 H 0.30952 0.79328 0.75505 0.0
H190 H 0.38264 0.79618 1.05228 0.0
H191 H 0.24264 0.83332 1.09626 0.0
Dy192 Dy 0.01079 0.68819 1.15587 0.0
Dy193 Dy 1.00915 0.53505 0.27009 0.0
C194 C 0.91995 0.68876 0.36875 0.0
O195 O 0.1445 0.74445 0.22301 0.0
O196 O 0.13636 0.62391 0.31825 0.0
O197 O 0.9755 0.81761 1.14078 0.0
O198 O 0.98735 0.73573 1.01483 0.0
O199 O 0.05337 0.487 1.12474 0.0
O200 O 0.10618 0.6224 1.06299 0.0
O201 O 0.87544 0.4788 1.20295 0.0
O202 O 0.88358 0.59933 1.10771 0.0
O203 O 0.04444 0.40563 0.28519 0.0
O204 O 0.03259 0.48752 0.41113 0.0
C205 C 0.17841 0.70288 0.29286 0.0
O206 O 0.96658 0.73625 0.30122 0.0
O207 O 0.91376 0.60085 0.36297 0.0
C208 C 0.85987 0.80114 1.026 0.0
C209 C 0.69612 0.84413 0.97584 0.0
C210 C 0.71347 0.82198 1.07105 0.0
C211 C 0.79539 0.80262 1.09614 0.0
C212 C 0.83634 0.80446 0.92974 0.0
C213 C 0.75545 0.82609 0.90478 0.0
C214 C 0.95177 0.79907 1.05235 0.0
C215 C 0.1 0.53449 1.05721 0.0
C216 C 0.84153 0.52036 1.1331 0.0
C217 C 0.16007 0.42211 0.39996 0.0
C218 C 0.32382 0.37911 0.45012 0.0
C219 C 0.30647 0.40127 0.35491 0.0
C220 C 0.22455 0.42062 0.32981 0.0
C221 C 0.1836 0.41879 0.49622 0.0
C222 C 0.2645 0.39715 0.52117 0.0
C223 C 0.06817 0.42417 0.37361 0.0
H224 H 0.66798 0.82636 1.12858 0.0
H225 H 0.80954 0.79329 1.17094 0.0
H226 H 0.8826 0.79617 0.87369 0.0
H227 H 0.74258 0.83328 0.82972 0.0
H228 H 0.35195 0.39689 0.29738 0.0
H229 H 0.2104 0.42995 0.25502 0.0
H230 H 0.13734 0.42707 0.55227 0.0
H231 H 0.27737 0.38997 0.59624 0.0
loop_
_geom_bond_atom_site_label_1
_geom_bond_atom_site_label_2
_geom_bond_distance
_geom_bond_site_symmetry_2
_ccdc_geom_bond_type
H0 C3 0.931 . S
H1 C6 0.928 . S
H2 C8 0.930 . S
C3 H0 0.931 . S
C3 C4 1.413 . S
C3 C5 1.360 . S
C4 C3 1.413 . S
C4 C8 1.429 . S
C5 C3 1.360 . S
C5 C6 1.372 . S
C6 H1 0.928 . S
C6 C5 1.372 . S
C6 C7 1.404 . S
C7 C6 1.404 . S
C7 C8 1.391 . S
C8 H2 0.930 . S
C8 C4 1.429 . S
C8 C7 1.391 . S
H9 C12 0.931 . S
H10 C15 0.928 . S
H11 C17 0.930 . S
C12 H9 0.931 . S
C12 C13 1.413 . S
C12 C14 1.360 1_655 S
C13 C12 1.413 . S
C13 C17 1.429 . S
C14 C12 1.360 1_455 S
C14 C15 1.372 . S
C15 H10 0.928 . S
C15 C14 1.372 . S
C15 C16 1.404 . S
C16 C15 1.404 . S
C16 C17 1.391 1_455 S
C17 H11 0.930 . S
C17 C13 1.429 . S
C17 C16 1.391 1_655 S
H18 C21 0.931 . S
H19 C24 0.928 . S
H20 C26 0.930 . S
C21 H18 0.931 . S
C21 C22 1.413 . S
C21 C23 1.360 . S
C22 C21 1.413 . S
C22 C26 1.429 . S
C23 C21 1.360 . S
C23 C24 1.372 . S
C24 H19 0.928 . S
C24 C23 1.372 . S
C24 C25 1.404 . S
C25 C24 1.404 . S
C25 C26 1.391 . S
C26 H20 0.930 . S
C26 C22 1.429 . S
C26 C25 1.391 . S
H27 C30 0.931 . S
H28 C33 0.928 . S
H29 C35 0.930 . S
C30 H27 0.931 . S
C30 C31 1.413 . S
C30 C32 1.360 . S
C31 C30 1.413 . S
C31 C35 1.429 . S
C32 C30 1.360 . S
C32 C33 1.372 . S
C33 H28 0.928 . S
C33 C32 1.372 . S
C33 C34 1.404 . S
C34 C33 1.404 . S
C34 C35 1.391 . S
C35 H29 0.930 . S
C35 C31 1.429 . S
C35 C34 1.391 . S
H36 C39 0.931 . S
H37 C42 0.928 . S
H38 C44 0.930 . S
C39 H36 0.931 . S
C39 C40 1.413 . S
C39 C41 1.360 . S
C40 C39 1.413 . S
C40 C44 1.429 . S
C41 C39 1.360 . S
C41 C42 1.372 . S
C42 H37 0.928 . S
C42 C41 1.372 . S
C42 C43 1.404 . S
C43 C42 1.404 . S
C43 C44 1.391 . S
C44 H38 0.930 . S
C44 C40 1.429 . S
C44 C43 1.391 . S
H45 C48 0.931 . S
H46 C51 0.928 . S
H47 C53 0.930 . S
C48 H45 0.931 . S
C48 C49 1.413 . S
C48 C50 1.360 . S
C49 C48 1.413 . S
C49 C53 1.429 1_655 S
C50 C48 1.360 . S
C50 C51 1.372 1_655 S
C51 H46 0.928 . S
C51 C50 1.372 1_455 S
C51 C52 1.404 . S
C52 C51 1.404 . S
C52 C53 1.391 . S
C53 H47 0.930 . S
C53 C49 1.429 1_455 S
C53 C52 1.391 . S
H54 C57 0.931 . S
H55 C60 0.928 . S
H56 C62 0.930 . S
C57 H54 0.931 . S
C57 C58 1.413 . S
C57 C59 1.360 . S
C58 C57 1.413 . S
C58 C62 1.429 . S
C59 C57 1.360 . S
C59 C60 1.372 . S
C60 H55 0.928 . S
C60 C59 1.372 . S
C60 C61 1.404 . S
C61 C60 1.404 . S
C61 C62 1.391 . S
C62 H56 0.930 . S
C62 C58 1.429 . S
C62 C61 1.391 . S
H63 C66 0.931 . S
H64 C69 0.928 . S
H65 C71 0.930 . S
C66 H63 0.931 . S
C66 C67 1.413 . S
C66 C68 1.360 . S
C67 C66 1.413 . S
C67 C71 1.429 . S
C68 C66 1.360 . S
C68 C69 1.372 . S
C69 H64 0.928 . S
C69 C68 1.372 . S
C69 C70 1.404 . S
C70 C69 1.404 . S
C70 C71 1.391 . S
C71 H65 0.930 . S
C71 C67 1.429 . S
C71 C70 1.391 . S
Dy72 O75 2.307 1_545 S
Dy72 O77 2.395 . S
Dy72 O78 2.379 . S
Dy72 O80 2.339 1_545 S
Dy72 O82 2.298 . S
Dy72 O86 2.275 . S
Dy72 C94 2.738 . S
Dy73 O76 2.303 . S
Dy73 O79 2.280 . S
Dy73 O81 2.303 1_565 S
Dy73 O83 2.400 . S
Dy73 O84 2.379 . S
Dy73 O87 2.334 1_565 S
Dy73 C103 2.741 . S
C74 O86 1.254 . S
C74 O87 1.257 1_455 S
O75 Dy72 2.307 1_565 S
O75 C85 1.266 . S
O76 Dy73 2.303 . S
O76 C85 1.236 1_655 S
O77 Dy72 2.395 . S
O77 C94 1.255 . S
O78 Dy72 2.379 . S
O78 C94 1.249 . S
O79 Dy73 2.280 . S
O79 C95 1.254 . S
O80 Dy72 2.339 1_565 S
O80 C95 1.257 1_455 S
O81 Dy73 2.303 1_545 S
O81 C96 1.266 . S
O82 Dy72 2.298 . S
O82 C96 1.236 1_455 S
O83 Dy73 2.400 . S
O83 C103 1.255 . S
O84 Dy73 2.379 . S
O84 C103 1.249 . S
C85 O75 1.266 . S
C85 O76 1.236 1_455 S
O86 Dy72 2.275 . S
O86 C74 1.254 . S
O87 Dy73 2.334 1_545 S
O87 C74 1.257 1_655 S
C88 C91 1.344 . S
C88 C92 1.328 . S
C88 C94 1.516 . S
C89 C90 1.304 . S
C89 C93 1.323 . S
C90 C89 1.304 . S
C90 C91 1.371 . S
C90 H104 0.930 . S
C91 C88 1.344 . S
C91 C90 1.371 . S
C91 H105 0.931 . S
C92 C88 1.328 . S
C92 C93 1.433 . S
C92 H106 0.931 . S
C93 C89 1.323 . S
C93 C92 1.433 . S
C93 H107 0.933 . S
C94 Dy72 2.738 . S
C94 O77 1.255 . S
C94 O78 1.249 . S
C94 C88 1.516 . S
C95 O79 1.254 . S
C95 O80 1.257 1_655 S
C96 O81 1.266 . S
C96 O82 1.236 1_655 S
C97 C100 1.344 . S
C97 C101 1.328 . S
C97 C103 1.516 . S
C98 C99 1.304 . S
C98 C102 1.323 . S
C99 C98 1.304 . S
C99 C100 1.371 . S
C99 H108 0.930 . S
C100 C97 1.344 . S
C100 C99 1.371 . S
C100 H109 0.931 . S
C101 C97 1.328 . S
C101 C102 1.433 . S
C101 H110 0.931 . S
C102 C98 1.323 . S
C102 C101 1.433 . S
C102 H111 0.933 . S
C103 Dy73 2.741 . S
C103 O83 1.255 . S
C103 O84 1.249 . S
C103 C97 1.516 . S
H104 C90 0.930 . S
H105 C91 0.931 . S
H106 C92 0.931 . S
H107 C93 0.933 . S
H108 C99 0.930 . S
H109 C100 0.931 . S
H110 C101 0.931 . S
H111 C102 0.933 . S
Dy112 O115 2.307 1_556 S
Dy112 O117 2.395 1_545 S
Dy112 O118 2.379 1_545 S
Dy112 O120 2.339 . S
Dy112 O122 2.298 1_545 S
Dy112 O126 2.275 1_546 S
Dy112 C134 2.738 1_545 S
Dy113 O116 2.298 . S
Dy113 O119 2.275 1_554 S
Dy113 O121 2.307 1_544 S
Dy113 O123 2.395 . S
Dy113 O124 2.379 . S
Dy113 O127 2.339 1_545 S
Dy113 C143 2.738 . S
C114 O126 1.254 . S
C114 O127 1.257 . S
O115 Dy112 2.307 1_554 S
O115 C125 1.266 . S
O116 Dy113 2.298 . S
O116 C125 1.236 . S
O117 Dy112 2.395 1_565 S
O117 C134 1.255 . S
O118 Dy112 2.379 1_565 S
O118 C134 1.249 . S
O119 Dy113 2.275 1_556 S
O119 C135 1.254 . S
O120 Dy112 2.339 . S
O120 C135 1.257 . S
O121 Dy113 2.307 1_566 S
O121 C136 1.266 . S
O122 Dy112 2.298 1_565 S
O122 C136 1.236 . S
O123 Dy113 2.395 . S
O123 C143 1.255 . S
O124 Dy113 2.379 . S
O124 C143 1.249 . S
C125 O115 1.266 . S
C125 O116 1.236 . S
O126 Dy112 2.275 1_564 S
O126 C114 1.254 . S
O127 Dy113 2.339 1_565 S
O127 C114 1.257 . S
C128 C131 1.344 . S
C128 C132 1.328 . S
C128 C134 1.516 . S
C129 C130 1.304 . S
C129 C133 1.323 . S
C130 C129 1.304 . S
C130 C131 1.371 . S
C130 H144 0.930 . S
C131 C128 1.344 . S
C131 C130 1.371 . S
C131 H145 0.931 . S
C132 C128 1.328 . S
C132 C133 1.433 . S
C132 H146 0.931 . S
C133 C129 1.323 . S
C133 C132 1.433 . S
C133 H147 0.933 . S
C134 Dy112 2.738 1_565 S
C134 O117 1.255 . S
C134 O118 1.249 . S
C134 C128 1.516 . S
C135 O119 1.254 . S
C135 O120 1.257 . S
C136 O121 1.266 . S
C136 O122 1.236 . S
C137 C140 1.344 . S
C137 C141 1.328 . S
C137 C143 1.516 . S
C138 C139 1.304 . S
C138 C142 1.323 . S
C139 C138 1.304 . S
C139 C140 1.371 . S
C139 H148 0.930 . S
C140 C137 1.344 . S
C140 C139 1.371 . S
C140 H149 0.931 . S
C141 C137 1.328 . S
C141 C142 1.433 . S
C141 H150 0.931 . S
C142 C138 1.323 . S
C142 C141 1.433 . S
C142 H151 0.933 . S
C143 Dy113 2.738 . S
C143 O123 1.255 . S
C143 O124 1.249 . S
C143 C137 1.516 . S
H144 C130 0.930 . S
H145 C131 0.931 . S
H146 C132 0.931 . S
H147 C133 0.933 . S
H148 C139 0.930 . S
H149 C140 0.931 . S
H150 C141 0.931 . S
H151 C142 0.933 . S
Dy152 O155 2.307 . S
Dy152 O157 2.395 . S
Dy152 O158 2.379 . S
Dy152 O160 2.339 . S
Dy152 O162 2.298 . S
Dy152 O166 2.275 . S
Dy152 C174 2.738 . S
Dy153 O156 2.298 . S
Dy153 O159 2.275 . S
Dy153 O161 2.307 . S
Dy153 O163 2.395 . S
Dy153 O164 2.379 . S
Dy153 O167 2.339 . S
Dy153 C183 2.738 . S
C154 O166 1.254 . S
C154 O167 1.257 . S
O155 Dy152 2.307 . S
O155 C165 1.266 . S
O156 Dy153 2.298 . S
O156 C165 1.236 . S
O157 Dy152 2.395 . S
O157 C174 1.255 . S
O158 Dy152 2.379 . S
O158 C174 1.249 . S
O159 Dy153 2.275 . S
O159 C175 1.254 . S
O160 Dy152 2.339 . S
O160 C175 1.257 . S
O161 Dy153 2.307 . S
O161 C176 1.266 . S
O162 Dy152 2.298 . S
O162 C176 1.236 . S
O163 Dy153 2.395 . S
O163 C183 1.255 . S
O164 Dy153 2.379 . S
O164 C183 1.249 . S
C165 O155 1.266 . S
C165 O156 1.236 . S
O166 Dy152 2.275 . S
O166 C154 1.254 . S
O167 Dy153 2.339 . S
O167 C154 1.257 . S
C168 C171 1.344 . S
C168 C172 1.328 . S
C168 C174 1.516 . S
C169 C170 1.304 . S
C169 C173 1.323 . S
C170 C169 1.304 . S
C170 C171 1.371 . S
C170 H184 0.930 . S
C171 C168 1.344 . S
C171 C170 1.371 . S
C171 H185 0.931 . S
C172 C168 1.328 . S
C172 C173 1.433 . S
C172 H186 0.931 . S
C173 C169 1.323 . S
C173 C172 1.433 . S
C173 H187 0.933 . S
C174 Dy152 2.738 . S
C174 O157 1.255 . S
C174 O158 1.249 . S
C174 C168 1.516 . S
C175 O159 1.254 . S
C175 O160 1.257 . S
C176 O161 1.266 . S
C176 O162 1.236 . S
C177 C180 1.344 . S
C177 C181 1.328 . S
C177 C183 1.516 . S
C178 C179 1.304 . S
C178 C182 1.323 . S
C179 C178 1.304 . S
C179 C180 1.371 . S
C179 H188 0.930 . S
C180 C177 1.344 . S
C180 C179 1.371 . S
C180 H189 0.931 . S
C181 C177 1.328 . S
C181 C182 1.433 . S
C181 H190 0.931 . S
C182 C178 1.323 . S
C182 C181 1.433 . S
C182 H191 0.933 . S
C183 Dy153 2.738 . S
C183 O163 1.255 . S
C183 O164 1.249 . S
C183 C177 1.516 . S
H184 C170 0.930 . S
H185 C171 0.931 . S
H186 C172 0.931 . S
H187 C173 0.933 . S
H188 C179 0.930 . S
H189 C180 0.931 . S
H190 C181 0.931 . S
H191 C182 0.933 . S
Dy192 O195 2.307 1_656 S
Dy192 O197 2.395 . S
Dy192 O198 2.379 . S
Dy192 O200 2.339 1_655 S
Dy192 O202 2.298 . S
Dy192 O206 2.275 1_556 S
Dy192 C214 2.738 . S
Dy193 O196 2.298 . S
Dy193 O199 2.275 1_554 S
Dy193 O201 2.307 1_455 S
Dy193 O203 2.395 . S
Dy193 O204 2.379 . S
Dy193 O207 2.339 1_455 S
Dy193 C223 2.738 . S
C194 O206 1.254 . S
C194 O207 1.257 . S
O195 Dy192 2.307 1_454 S
O195 C205 1.266 . S
O196 Dy193 2.298 . S
O196 C205 1.236 . S
O197 Dy192 2.395 . S
O197 C214 1.255 . S
O198 Dy192 2.379 . S
O198 C214 1.249 . S
O199 Dy193 2.275 1_556 S
O199 C215 1.254 . S
O200 Dy192 2.339 1_455 S
O200 C215 1.257 . S
O201 Dy193 2.307 1_655 S
O201 C216 1.266 1_554 S
O202 Dy192 2.298 . S
O202 C216 1.236 . S
O203 Dy193 2.395 . S
O203 C223 1.255 . S
O204 Dy193 2.379 . S
O204 C223 1.249 . S
C205 O195 1.266 . S
C205 O196 1.236 . S
O206 Dy192 2.275 1_554 S
O206 C194 1.254 . S
O207 Dy193 2.339 1_655 S
O207 C194 1.257 . S
C208 C211 1.344 . S
C208 C212 1.328 . S
C208 C214 1.516 . S
C209 C210 1.304 . S
C209 C213 1.323 . S
C210 C209 1.304 . S
C210 C211 1.371 . S
C210 H224 0.930 . S
C211 C208 1.344 . S
C211 C210 1.371 . S
C211 H225 0.931 . S
C212 C208 1.328 . S
C212 C213 1.433 . S
C212 H226 0.931 . S
C213 C209 1.323 . S
C213 C212 1.433 . S
C213 H227 0.933 . S
C214 Dy192 2.738 . S
C214 O197 1.255 . S
C214 O198 1.249 . S
C214 C208 1.516 . S
C215 O199 1.254 . S
C215 O200 1.257 . S
C216 O201 1.266 1_556 S
C216 O202 1.236 . S
C217 C220 1.344 . S
C217 C221 1.328 . S
C217 C223 1.516 . S
C218 C219 1.304 . S
C218 C222 1.323 . S
C219 C218 1.304 . S
C219 C220 1.371 . S
C219 H228 0.930 . S
C220 C217 1.344 . S
C220 C219 1.371 . S
C220 H229 0.931 . S
C221 C217 1.328 . S
C221 C222 1.433 . S
C221 H230 0.931 . S
C222 C218 1.323 . S
C222 C221 1.433 . S
C222 H231 0.933 . S
C223 Dy193 2.738 . S
C223 O203 1.255 . S
C223 O204 1.249 . S
C223 C217 1.516 . S
H224 C210 0.930 . S
H225 C211 0.931 . S
H226 C212 0.931 . S
H227 C213 0.933 . S
H228 C219 0.930 . S
H229 C220 0.931 . S
H230 C221 0.931 . S
H231 C222 0.933 . S
C5 C89 0.819 . S
C14 C129 0.815 . S
C154 C25 3.881 . S
C34 C194 3.888 . S
C125 C7 2.126 . S
C85 C13 2.041 1_455 S
C216 C23 2.605 . S
C176 C31 2.579 . S
C4 C218 2.071 . S
C135 C22 3.348 . S
C32 C95 3.380 . S
C16 C178 1.976 . S
C98 C41 0.793 . S
C50 C138 0.827 . S
C61 C175 3.875 . S
C67 C215 3.894 . S
C40 C136 2.130 . S
C96 C52 2.010 1_655 S
C205 C59 2.589 . S
C165 C70 2.572 . S
C43 C209 2.041 . S
C114 C58 3.364 . S
C74 C68 3.355 . S
C49 C169 2.007 . S
