# Generated by pormake.
# Topology ftw, (4,12)-cn, num edge types: 1
# Building blocks:
#     Node 0, Type 0, BuildingBlock: KUFVIS_clean_linker_0, # of connection points: 4
#     Node 1, Type 0, BuildingBlock: KUFVIS_clean_linker_0, # of connection points: 4
#     Node 2, Type 0, BuildingBlock: KUFVIS_clean_linker_0, # of connection points: 4
#     Node 3, Type 1, BuildingBlock: QEWDON_clean_sbu_0, # of connection points: 12
#     Edge 4, Type (0, 1), None
#     Edge 5, Type (0, 1), None
#     Edge 6, Type (0, 1), None
#     Edge 7, Type (0, 1), None
#     Edge 8, Type (0, 1), None
#     Edge 9, Type (0, 1), None
#     Edge 10, Type (0, 1), None
#     Edge 11, Type (0, 1), None
#     Edge 12, Type (0, 1), None
#     Edge 13, Type (0, 1), None
#     Edge 14, Type (0, 1), None
#     Edge 15, Type (0, 1), None
# Relax obj value: 0.111
# Max RMSD: 0.243
# Mean RMSD: 0.194
data_MOF--net-ftw--node1-QEWDON_clean_sbu_0--node2-KUFVIS_clean_linker_0--edge1-none
_symmetry_space_group_name_H-M    P1
_symmetry_Int_Tables_number       1
_symmetry_cell_setting            triclinic
loop_
_symmetry_equiv_pos_as_xyz
'x, y, z'
_cell_length_a     12.645726
_cell_length_b     14.793456
_cell_length_c     12.590297
_cell_angle_alpha  90.343682
_cell_angle_beta   90.254634
_cell_angle_gamma 91.785505
loop_
_atom_site_label
_atom_site_type_symbol
_atom_site_fract_x
_atom_site_fract_y
_atom_site_fract_z
_atom_type_partial_charge
H0 H 0.92886 0.15501 0.52782 0.0
H1 H -0.0027 0.40891 0.68129 0.0
H2 H 0.94902 0.39657 0.34118 0.0
H3 H 0.00592 0.53713 0.3392 0.0
H4 H -0.00887 0.78815 0.50971 0.0
H5 H 0.94671 0.54167 0.67893 0.0
C6 C 0.94285 0.22754 0.52329 0.0
C7 C 0.94502 0.27003 0.42323 0.0
C8 C 0.95835 0.27857 0.61728 0.0
C9 C -0.02143 0.37242 0.60901 0.0
C10 C -0.02903 0.41896 0.5113 0.0
C11 C 0.95525 0.36537 0.41822 0.0
C12 C -0.02427 0.52234 0.50895 0.0
C13 C -0.00733 0.57173 0.41355 0.0
C14 C -0.00552 0.66741 0.41313 0.0
C15 C -0.01545 0.71485 0.50902 0.0
C16 C -0.02891 0.66839 0.60461 0.0
C17 C 0.96314 0.5736 0.60377 0.0
H18 H 0.47188 -0.02821 0.92061 0.0
H19 H 0.63655 0.93138 0.63025 0.0
H20 H 0.30737 0.00859 0.6283 0.0
H21 H 0.3008 0.96285 0.46797 0.0
H22 H 0.47252 0.96737 0.17558 0.0
H23 H 0.64407 -0.02551 0.4697 0.0
C24 C 0.47183 -0.02871 0.83454 0.0
C25 C 0.37823 -0.0112 0.78019 0.0
C26 C 0.56541 0.95314 0.78118 0.0
C27 C 0.56479 0.95069 0.66915 0.0
C28 C 0.47206 0.96989 0.60951 0.0
C29 C 0.3791 -0.01011 0.66808 0.0
C30 C 0.47236 0.96892 0.48792 0.0
C31 C 0.37645 0.96502 0.42856 0.0
C32 C 0.37492 0.96569 0.31663 0.0
C33 C 0.47253 0.96765 0.26169 0.0
C34 C 0.57015 0.96996 0.31753 0.0
C35 C 0.56846 -0.02814 0.42953 0.0
H36 H 0.53022 0.77958 1.01523 0.0
H37 H 0.65588 0.5158 1.00471 0.0
H38 H 0.31997 0.55539 0.95501 0.0
H39 H 0.29138 0.42302 1.00812 0.0
H40 H 0.41751 0.15953 1.01951 0.0
H41 H 0.62581 0.38266 0.95191 0.0
C42 C 0.51829 0.70743 1.00233 0.0
C43 C 0.41676 0.67162 0.98818 0.0
C44 C 0.6042 0.65039 1.00162 0.0
C45 C 0.58762 0.55691 0.9947 0.0
C46 C 0.4841 0.51926 0.97933 0.0
C47 C 0.40008 0.57916 0.97097 0.0
C48 C 0.46253 0.41911 0.97999 0.0
C49 C 0.35946 0.38176 0.99778 0.0
C50 C 0.34306 0.28847 1.00644 0.0
C51 C 0.42914 0.23148 1.00599 0.0
C52 C 0.53036 0.26695 0.98863 0.0
C53 C 0.54632 0.35909 0.97008 0.0
Zn54 Zn 0.1049 0.09374 0.91975 0.0
Zn55 Zn 0.12662 0.12451 0.18261 0.0
O56 O 0.07533 0.03669 0.06777 0.0
H57 H 0.0667 -0.02758 0.07822 0.0
C58 C 0.94494 0.23805 0.72559 0.0
O59 O -0.02233 0.28408 0.80974 0.0
Zn60 Zn 0.81897 0.81407 0.18089 0.0
Zn61 Zn 0.83861 0.84817 0.9202 0.0
O62 O 0.86783 0.90332 0.06928 0.0
H63 H 0.88013 0.96682 0.08327 0.0
Zn64 Zn 0.81751 0.13515 0.892 0.0
O65 O 0.89247 0.13142 0.0391 0.0
Zn66 Zn 0.77976 0.13074 0.15593 0.0
H67 H 0.95738 0.16669 0.04899 0.0
Zn68 Zn 0.12411 0.79189 0.89533 0.0
O69 O 0.05218 0.80071 0.04195 0.0
H70 H -0.01514 0.76946 0.05231 0.0
Zn71 Zn 0.16698 0.80321 0.15699 0.0
C72 C -0.02471 0.7185 0.7066 0.0
O73 O 0.89168 0.75922 0.74188 0.0
O74 O 0.19713 0.2091 0.93803 0.0
O75 O 0.21502 0.22131 0.11339 0.0
O76 O 0.74786 0.73193 0.93495 0.0
O77 O 0.73233 0.71694 0.10978 0.0
O78 O 0.67417 0.19275 0.91585 0.0
O79 O 0.65364 0.19185 0.09274 0.0
C80 C 0.274 -0.01184 0.26122 0.0
O81 O 0.27264 0.74588 0.91795 0.0
O82 O 0.29329 0.74353 0.09456 0.0
O83 O 0.74939 0.91639 0.80593 0.0
C84 C 0.23825 0.24672 1.01995 0.0
O85 O 0.19423 0.02666 0.80373 0.0
C86 C 0.67122 0.94759 0.26254 0.0
O87 O 0.88485 0.16839 0.73971 0.0
C88 C 0.70869 0.69243 1.01567 0.0
O89 O 0.06289 0.72572 0.75672 0.0
C90 C 0.93096 0.21535 0.32402 0.0
O91 O 0.24451 0.06929 0.26873 0.0
O92 O 0.21321 0.93122 0.21111 0.0
C93 C 0.62182 0.21049 0.99915 0.0
O94 O 0.70229 0.867 0.27078 0.0
O95 O 0.73092 0.00441 0.21221 0.0
C96 C 0.016 0.71911 0.3147 0.0
O97 O 0.83782 0.20289 0.28536 0.0
O98 O 0.01216 0.18401 0.27741 0.0
C99 C 0.32582 0.72801 1.00062 0.0
O100 O 0.11146 0.72975 0.2834 0.0
O101 O 0.94047 0.7552 0.26395 0.0
C102 C 0.65963 0.93078 0.84638 0.0
O103 O 0.6485 0.91738 0.9489 0.0
C104 C 0.28384 0.01143 0.84473 0.0
O105 O 0.29467 0.0238 0.94775 0.0
loop_
_geom_bond_atom_site_label_1
_geom_bond_atom_site_label_2
_geom_bond_distance
_geom_bond_site_symmetry_2
_ccdc_geom_bond_type
H0 C6 0.930 1_655 S
H1 C9 0.931 . S
H2 C11 0.931 . S
H3 C13 0.930 . S
H4 C15 0.930 . S
H5 C17 0.930 1_655 S
C6 H0 0.930 1_455 S
C6 C7 1.380 1_455 S
C6 C8 1.394 . S
C7 C6 1.380 1_655 S
C7 C11 1.382 . S
C8 C6 1.394 . S
C8 C9 1.400 . S
C9 H1 0.931 . S
C9 C8 1.400 . S
C9 C10 1.375 . S
C10 C9 1.375 . S
C10 C11 1.415 1_455 S
C10 C12 1.501 . S
C11 H2 0.931 . S
C11 C7 1.382 . S
C11 C10 1.415 1_655 S
C12 C10 1.501 . S
C12 C13 1.384 . S
C12 C17 1.408 . S
C13 H3 0.930 . S
C13 C12 1.384 . S
C13 C14 1.389 . S
C14 C13 1.389 . S
C14 C15 1.405 . S
C15 H4 0.930 . S
C15 C14 1.405 . S
C15 C16 1.364 1_455 S
C16 C15 1.364 1_655 S
C16 C17 1.400 1_655 S
C17 H5 0.930 1_455 S
C17 C12 1.408 . S
C17 C16 1.400 1_455 S
H18 C24 0.930 . S
H19 C27 0.931 . S
H20 C29 0.931 . S
H21 C31 0.930 . S
H22 C33 0.930 . S
H23 C35 0.931 . S
C24 H18 0.930 . S
C24 C25 1.380 . S
C24 C26 1.394 1_545 S
C25 C24 1.380 . S
C25 C29 1.382 . S
C26 C24 1.394 1_565 S
C26 C27 1.400 . S
C27 H19 0.931 . S
C27 C26 1.400 . S
C27 C28 1.375 . S
C28 C27 1.375 . S
C28 C29 1.415 1_565 S
C28 C30 1.501 . S
C29 H20 0.931 . S
C29 C25 1.382 . S
C29 C28 1.415 1_545 S
C30 C28 1.501 . S
C30 C31 1.384 . S
C30 C35 1.408 1_565 S
C31 H21 0.930 . S
C31 C30 1.384 . S
C31 C32 1.389 . S
C32 C31 1.389 . S
C32 C33 1.405 . S
C33 H22 0.930 . S
C33 C32 1.405 . S
C33 C34 1.364 1_565 S
C34 C33 1.364 1_545 S
C34 C35 1.400 . S
C35 H23 0.931 . S
C35 C30 1.408 1_545 S
C35 C34 1.400 . S
H36 C42 0.930 1_556 S
H37 C45 0.931 . S
H38 C47 0.930 1_556 S
H39 C49 0.930 . S
H40 C51 0.930 . S
H41 C53 0.931 1_556 S
C42 H36 0.930 1_554 S
C42 C43 1.380 1_554 S
C42 C44 1.394 . S
C43 C42 1.380 1_556 S
C43 C47 1.382 1_556 S
C44 C42 1.394 . S
C44 C45 1.400 . S
C45 H37 0.931 . S
C45 C44 1.400 . S
C45 C46 1.375 . S
C46 C45 1.375 . S
C46 C47 1.416 . S
C46 C48 1.501 . S
C47 H38 0.930 1_554 S
C47 C43 1.382 1_554 S
C47 C46 1.416 . S
C48 C46 1.501 . S
C48 C49 1.384 . S
C48 C53 1.408 . S
C49 H39 0.930 . S
C49 C48 1.384 . S
C49 C50 1.389 . S
C50 C49 1.389 . S
C50 C51 1.405 . S
C51 H40 0.930 . S
C51 C50 1.405 . S
C51 C52 1.365 . S
C52 C51 1.365 . S
C52 C53 1.400 . S
C53 H41 0.931 1_554 S
C53 C48 1.408 . S
C53 C52 1.400 . S
Zn54 O56 1.933 1_556 S
Zn54 O74 1.985 . S
Zn54 O85 1.955 . S
Zn55 O56 1.911 . S
Zn55 O75 1.970 . S
Zn55 O91 1.945 . S
Zn55 O98 1.981 . S
O56 Zn54 1.933 1_554 S
O56 Zn55 1.911 . S
O56 H57 0.841 1_554 S
H57 O56 0.841 1_556 S
C58 O59 1.246 . S
C58 O87 1.276 1_455 S
O59 C58 1.246 . S
Zn60 O62 1.911 . S
Zn60 O77 1.970 . S
Zn60 O94 1.945 . S
Zn60 O101 1.981 . S
Zn61 O62 1.933 1_556 S
Zn61 O76 1.985 . S
Zn61 O83 1.955 . S
O62 Zn60 1.911 . S
O62 Zn61 1.933 1_554 S
O62 H63 0.841 1_554 S
H63 O62 0.841 1_556 S
Zn64 O65 1.933 1_556 S
Zn64 O78 1.985 . S
Zn64 O87 1.955 . S
O65 Zn64 1.933 1_554 S
O65 Zn66 1.911 . S
O65 H67 0.841 1_554 S
Zn66 O65 1.911 . S
Zn66 O79 1.970 . S
Zn66 O95 1.981 . S
Zn66 O97 1.945 . S
H67 O65 0.841 1_556 S
Zn68 O69 1.933 1_556 S
Zn68 O81 1.985 . S
Zn68 O89 1.955 . S
O69 Zn68 1.933 1_554 S
O69 H70 0.841 1_554 S
O69 Zn71 1.911 . S
H70 O69 0.841 1_556 S
Zn71 O69 1.911 . S
Zn71 O82 1.970 . S
Zn71 O92 1.981 . S
Zn71 O100 1.945 . S
C72 O73 1.246 . S
C72 O89 1.276 1_655 S
O73 C72 1.246 . S
O74 Zn54 1.985 . S
O74 C84 1.245 1_556 S
O75 Zn55 1.970 . S
O75 C84 1.263 . S
O76 Zn61 1.985 . S
O76 C88 1.245 1_556 S
O77 Zn60 1.970 . S
O77 C88 1.263 . S
O78 Zn64 1.985 . S
O78 C93 1.245 1_556 S
O79 Zn66 1.970 . S
O79 C93 1.263 . S
C80 O91 1.268 . S
C80 O92 1.242 1_545 S
O81 Zn68 1.985 . S
O81 C99 1.245 1_556 S
O82 Zn71 1.970 . S
O82 C99 1.263 . S
O83 Zn61 1.955 . S
O83 C102 1.276 1_565 S
C84 O74 1.245 1_554 S
C84 O75 1.263 . S
O85 Zn54 1.955 . S
O85 C104 1.276 1_545 S
C86 O94 1.259 1_545 S
C86 O95 1.246 . S
O87 C58 1.276 1_655 S
O87 Zn64 1.955 . S
C88 O76 1.245 1_554 S
C88 O77 1.263 . S
O89 Zn68 1.955 . S
O89 C72 1.276 1_455 S
C90 O97 1.262 1_455 S
C90 O98 1.245 . S
O91 Zn55 1.945 . S
O91 C80 1.268 . S
O92 Zn71 1.981 . S
O92 C80 1.242 1_565 S
C93 O78 1.245 1_554 S
C93 O79 1.263 . S
O94 Zn60 1.945 . S
O94 C86 1.259 1_565 S
O95 Zn66 1.981 . S
O95 C86 1.246 . S
C96 O100 1.262 . S
C96 O101 1.245 1_455 S
O97 Zn66 1.945 . S
O97 C90 1.262 1_655 S
O98 Zn55 1.981 . S
O98 C90 1.245 . S
C99 O81 1.245 1_554 S
C99 O82 1.263 . S
O100 Zn71 1.945 . S
O100 C96 1.262 . S
O101 Zn60 1.981 . S
O101 C96 1.245 1_655 S
C102 O83 1.276 1_545 S
C102 O103 1.246 . S
O103 C102 1.246 . S
C104 O85 1.276 1_565 S
C104 O105 1.246 . S
O105 C104 1.246 . S
C90 C7 2.265 1_455 S
C86 C34 1.563 . S
C96 C14 2.275 . S
C80 C32 1.574 1_545 S
C16 C72 2.334 . S
C104 C25 1.770 1_565 S
C8 C58 2.334 . S
C26 C102 1.777 1_565 S
C50 C84 1.156 . S
C43 C99 0.840 1_556 S
C93 C52 0.834 . S
C88 C44 1.152 . S
