# Generated by pormake.
# Topology tsx, (6,3)-cn, num edge types: 1
# Building blocks:
#     Node 0, Type 0, BuildingBlock: CIFDUS_clean_sbu_1, # of connection points: 6
#     Node 1, Type 0, BuildingBlock: CIFDUS_clean_sbu_1, # of connection points: 6
#     Node 2, Type 1, BuildingBlock: PAMTOO_clean_linker_0, # of connection points: 3
#     Node 3, Type 1, BuildingBlock: PAMTOO_clean_linker_0, # of connection points: 3
#     Node 4, Type 1, BuildingBlock: PAMTOO_clean_linker_0, # of connection points: 3
#     Node 5, Type 1, BuildingBlock: PAMTOO_clean_linker_0, # of connection points: 3
#     Edge 6, Type (0, 1), BuildingBlock: OJICUG_clean_linker_0, # of connection points: 2
#     Edge 7, Type (0, 1), BuildingBlock: OJICUG_clean_linker_0, # of connection points: 2
#     Edge 8, Type (0, 1), BuildingBlock: OJICUG_clean_linker_0, # of connection points: 2
#     Edge 9, Type (0, 1), BuildingBlock: OJICUG_clean_linker_0, # of connection points: 2
#     Edge 10, Type (0, 1), BuildingBlock: OJICUG_clean_linker_0, # of connection points: 2
#     Edge 11, Type (0, 1), BuildingBlock: OJICUG_clean_linker_0, # of connection points: 2
#     Edge 12, Type (0, 1), BuildingBlock: OJICUG_clean_linker_0, # of connection points: 2
#     Edge 13, Type (0, 1), BuildingBlock: OJICUG_clean_linker_0, # of connection points: 2
#     Edge 14, Type (0, 1), BuildingBlock: OJICUG_clean_linker_0, # of connection points: 2
#     Edge 15, Type (0, 1), BuildingBlock: OJICUG_clean_linker_0, # of connection points: 2
#     Edge 16, Type (0, 1), BuildingBlock: OJICUG_clean_linker_0, # of connection points: 2
#     Edge 17, Type (0, 1), BuildingBlock: OJICUG_clean_linker_0, # of connection points: 2
# Relax obj value: 0.127
# Max RMSD: 0.140
# Mean RMSD: 0.134
data_MOF--net-tsx--node1-CIFDUS_clean_sbu_1--node2-PAMTOO_clean_linker_0--edge1-OJICUG_clean_linker_0
_symmetry_space_group_name_H-M    P1
_symmetry_Int_Tables_number       1
_symmetry_cell_setting            triclinic
loop_
_symmetry_equiv_pos_as_xyz
'x, y, z'
_cell_length_a     12.49982
_cell_length_b     16.611933
_cell_length_c     25.922768
_cell_angle_alpha  87.07386
_cell_angle_beta   93.854948
_cell_angle_gamma 91.157775
loop_
_atom_site_label
_atom_site_type_symbol
_atom_site_fract_x
_atom_site_fract_y
_atom_site_fract_z
_atom_type_partial_charge
O0 O 1.03483 0.16633 -0.01432 0.0
Mn1 Mn 0.10717 0.05282 -0.02233 0.0
O2 O 0.86121 0.14105 -0.01776 0.0
Mn3 Mn 0.88645 0.06223 0.93864 0.0
O4 O 0.18272 0.94199 0.96652 0.0
O5 O 0.24833 0.11494 -0.01515 0.0
Mn6 Mn 0.34547 0.04977 0.01547 0.0
O7 O 0.11658 0.03121 0.05749 0.0
O8 O 0.35947 0.96712 -0.02766 0.0
O9 O 0.10548 0.07576 0.89822 0.0
O10 O 0.93291 0.0936 0.8744 0.0
O11 O 0.41555 0.14669 0.00446 0.0
O12 O 0.29441 0.02246 0.07996 0.0
C13 C 0.87055 0.9461 0.96581 0.0
C14 C 0.93858 0.18893 -0.00904 0.0
C15 C 0.27978 0.92236 0.95945 0.0
C16 C 0.32205 0.17103 -0.01356 0.0
C17 C 0.19624 0.0197 0.09096 0.0
C18 C 1.03048 0.09322 0.86376 0.0
O19 O 0.9641 0.98442 -0.02817 0.0
O20 O 0.79166 0.98238 0.93974 0.0
O21 O 0.53133 0.66378 0.48486 0.0
Mn22 Mn 0.60338 0.55099 0.47504 0.0
O23 O 0.35667 0.64002 0.47822 0.0
Mn24 Mn 0.38025 0.55844 0.43644 0.0
O25 O 0.67671 0.44033 0.46229 0.0
O26 O 0.74442 0.61399 0.4804 0.0
Mn27 Mn 0.84314 0.5469 0.50688 0.0
O28 O 0.61887 0.52688 0.55481 0.0
O29 O 0.85248 0.46623 0.46171 0.0
O30 O 0.59775 0.57552 0.39553 0.0
O31 O 0.42428 0.58661 0.37133 0.0
O32 O 0.91388 0.64351 0.49671 0.0
O33 O 0.79798 0.5168 0.57213 0.0
C34 C 0.3677 0.44298 0.46618 0.0
C35 C 0.43468 0.68682 0.48852 0.0
C36 C 0.77178 0.42085 0.45187 0.0
C37 C 0.81925 0.66943 0.48189 0.0
C38 C 0.70178 0.51413 0.58633 0.0
C39 C 0.52198 0.5896 0.36084 0.0
O40 O 0.46029 0.48286 0.4705 0.0
O41 O 0.28692 0.47763 0.44061 0.0
H42 H 0.29024 0.9235 0.3284 0.0
H43 H 1.04114 0.09992 0.30866 0.0
H44 H 0.12661 0.99433 0.45895 0.0
H45 H 0.8589 0.05611 0.41624 0.0
C46 C 0.89927 0.10564 0.39443 0.0
O47 O 1.00899 0.10375 0.40621 0.0
H48 H 0.88006 0.09708 0.35255 0.0
C49 C 0.23114 0.95981 0.34463 0.0
C50 C 0.22023 0.95498 0.39849 0.0
C51 C 0.16502 0.01029 0.31144 0.0
C52 C 0.09106 0.05898 0.33303 0.0
C53 C 0.07636 0.05291 0.38594 0.0
C54 C 0.13901 0.99953 0.41823 0.0
H55 H 0.21984 0.21236 0.64376 0.0
H56 H 1.00325 0.00837 0.64175 0.0
H57 H 0.12177 0.10297 0.50037 0.0
H58 H 0.87239 0.04561 0.50175 0.0
C59 C 0.88974 0.99532 0.53051 0.0
O60 O 0.99927 0.99148 0.5426 0.0
H61 H 0.84815 0.00789 0.56581 0.0
C62 C 0.17802 0.16582 0.6222 0.0
C63 C 0.18407 0.16393 0.56814 0.0
C64 C 0.11171 0.11079 0.6485 0.0
C65 C 1.05341 0.05168 0.62143 0.0
C66 C 0.05626 0.04938 0.568 0.0
C67 C 0.12088 0.10546 0.54157 0.0
H68 H 0.77908 0.4052 0.82714 0.0
H69 H 0.54984 0.59524 0.80132 0.0
H70 H 0.63399 0.50164 0.95545 0.0
H71 H 0.37163 0.56239 0.91035 0.0
C72 C 0.41049 0.61408 0.88986 0.0
O73 O 0.52083 0.61036 0.89878 0.0
H74 H 0.38775 0.6105 0.84783 0.0
C75 C 0.72586 0.44773 0.8421 0.0
C76 C 0.71922 0.45075 0.89593 0.0
C77 C 0.66242 0.49764 0.8074 0.0
C78 C 0.59406 0.55262 0.82718 0.0
C79 C 0.58212 0.55349 0.88035 0.0
C80 C 0.64291 0.50118 0.91446 0.0
H81 H 0.7137 0.71515 0.14204 0.0
H82 H 0.49652 0.51141 0.13743 0.0
H83 H 0.61693 0.60899 -0.00271 0.0
H84 H 0.3691 0.54907 -0.00458 0.0
C85 C 0.38558 0.50026 0.02531 0.0
O86 O 0.49477 0.49663 0.03821 0.0
H87 H 0.34282 0.51467 0.05992 0.0
C88 C 0.67177 0.66922 0.11997 0.0
C89 C 0.67859 0.66841 0.06588 0.0
C90 C 0.60473 0.61378 0.14557 0.0
C91 C 0.5469 0.5553 0.11772 0.0
C92 C 0.5507 0.55418 0.0643 0.0
C93 C 0.6156 0.61071 0.03856 0.0
C94 C 0.24553 0.294 0.01835 0.0
C95 C 0.3036 0.25834 -0.01873 0.0
H96 H 0.22697 0.39868 0.062 0.0
C97 C 0.37472 0.30656 0.95287 0.0
H98 H 0.19261 0.25759 0.04182 0.0
C99 C 0.39465 0.387 0.96445 0.0
C100 C 0.34584 0.42015 0.00551 0.0
H101 H 0.42219 0.28001 0.92486 0.0
H102 H 0.45435 0.42134 0.94401 0.0
C103 C 0.26684 0.37431 0.03056 0.0
C104 C 0.39874 0.83847 0.91178 0.0
C105 C 0.30431 0.84431 0.9379 0.0
H106 H 0.50457 0.76249 0.87578 0.0
C107 C 0.24135 0.7744 0.94636 0.0
H108 H 0.44851 0.89131 0.90407 0.0
C109 C 0.27522 0.69959 0.93091 0.0
C110 C 0.37207 0.69382 0.90662 0.0
H111 H 0.16832 0.77706 0.96642 0.0
H112 H 0.22669 0.64612 0.93859 0.0
C113 C 0.43139 0.76454 0.8958 0.0
C114 C 0.76405 0.82027 0.96143 0.0
C115 C 0.84696 0.86395 -0.01275 0.0
H116 H 0.64272 0.73047 0.96581 0.0
C117 C 0.88527 0.83628 0.03694 0.0
H118 H 0.73285 0.83978 0.92288 0.0
C119 C 0.83486 0.76976 0.06175 0.0
C120 C 0.74418 0.73098 0.03757 0.0
H121 H 0.94879 0.86898 0.05784 0.0
H122 H 0.86465 0.75096 0.10055 0.0
C123 C 0.7123 0.75615 -0.01368 0.0
C124 C 0.9565 0.32453 0.94774 0.0
C125 C 0.90921 0.27483 -0.01439 0.0
H126 H 0.93269 0.41944 0.88924 0.0
C127 C 0.8088 0.2963 0.00188 0.0
H128 H 1.0335 0.30964 0.93421 0.0
C129 C 0.7495 0.35758 -0.02488 0.0
C130 C 0.79033 0.39943 0.93203 0.0
H131 H 0.77028 0.25894 0.03098 0.0
H132 H 0.6681 0.36666 -0.01476 0.0
C133 C 0.8973 0.3861 0.92101 0.0
C134 C 0.87196 0.80702 0.45223 0.0
C135 C 0.80218 0.75699 0.48023 0.0
H136 H 0.95219 0.92176 0.44565 0.0
C137 C 0.74776 0.78982 0.51969 0.0
H138 H 0.91668 0.78268 0.42236 0.0
C139 C 0.77131 0.86881 0.53428 0.0
C140 C 0.84888 0.91628 0.50926 0.0
H141 H 0.69591 0.75194 0.54286 0.0
H142 H 0.73403 0.89083 0.56723 0.0
C143 C 0.89405 0.88614 0.46621 0.0
C144 C 0.73334 0.27178 0.44627 0.0
C145 C 0.79311 0.34106 0.43208 0.0
H146 H 0.72114 0.14233 0.44624 0.0
C147 C 0.88261 0.33276 0.40281 0.0
H148 H 0.66428 0.2764 0.46898 0.0
C149 C 0.91429 0.25693 0.38963 0.0
C150 C 0.85883 0.18719 0.40638 0.0
H151 H 0.92978 0.38506 0.39091 0.0
H152 H 0.98438 0.25257 0.36756 0.0
C153 C 0.76632 0.19524 0.43367 0.0
C154 C 0.26654 0.31479 0.46238 0.0
C155 C 0.3476 0.3605 0.488 0.0
H156 H 0.14798 0.223 0.46722 0.0
C157 C 0.38656 0.33425 0.53786 0.0
H158 H 0.23502 0.33318 0.42367 0.0
C159 C 0.3382 0.26716 0.56305 0.0
C160 C 0.2487 0.22647 0.53916 0.0
H161 H 0.44873 0.3685 0.55859 0.0
H162 H 0.36845 0.24954 0.60198 0.0
C163 C 0.21662 0.25013 0.48766 0.0
C164 C 0.306 0.79372 0.50103 0.0
C165 C 0.40675 0.77298 0.485 0.0
H166 H 0.1659 0.86409 0.48487 0.0
C167 C 0.4556 0.82451 0.44857 0.0
H168 H 0.26627 0.75492 0.52899 0.0
C169 C 0.3977 0.88781 0.42292 0.0
C170 C 0.29023 0.9007 0.43339 0.0
H171 H 0.53301 0.81016 0.43528 0.0
H172 H 0.43478 0.92311 0.39248 0.0
C173 C 0.24775 0.85615 0.47511 0.0
C174 C 0.19348 0.94196 0.17533 0.0
C175 C 0.17654 0.01412 0.14587 0.0
H176 H 0.20001 0.88343 0.25088 0.0
C177 C 0.15655 0.0848 0.17043 0.0
H178 H 0.21101 0.88719 0.15678 0.0
C179 C 0.15484 0.08382 0.22414 0.0
C180 C 0.17091 0.01158 0.25428 0.0
H181 H 0.1466 0.14151 0.14818 0.0
H182 H 0.14317 0.14022 0.24198 0.0
C183 C 0.18921 0.94039 0.22913 0.0
C184 C 0.97171 0.12289 0.7712 0.0
C185 C 0.05558 0.10818 0.80922 0.0
H186 H 0.92493 0.13547 0.69042 0.0
C187 C 0.16107 0.10278 0.79393 0.0
H188 H 0.8897 0.12835 0.78148 0.0
C189 C 0.18105 0.10775 0.74137 0.0
C190 C 0.09571 0.11746 0.70375 0.0
H191 H 0.22745 0.09201 0.82234 0.0
H192 H 0.262 0.10031 0.73007 0.0
C193 C 0.99159 0.12706 0.71904 0.0
C194 C 0.58739 0.50625 0.66274 0.0
C195 C 0.68838 0.50128 0.6425 0.0
H196 H 0.49974 0.50776 0.73088 0.0
C197 C 0.77936 0.48977 0.67699 0.0
H198 H 0.51567 0.51467 0.63734 0.0
C199 C 0.77047 0.48693 0.7303 0.0
C200 C 0.67029 0.49488 0.75065 0.0
H201 H 0.85863 0.4854 0.66297 0.0
H202 H 0.84291 0.4814 0.7555 0.0
C203 C 0.57846 0.50299 0.71632 0.0
C204 C 0.65286 0.60303 0.29117 0.0
C205 C 0.54696 0.60567 0.30634 0.0
H206 H 0.75465 0.60447 0.22745 0.0
C207 C 0.46293 0.61948 0.26829 0.0
H208 H 0.7194 0.59303 0.3196 0.0
C209 C 0.48325 0.62565 0.21618 0.0
C210 C 0.58796 0.61883 0.20093 0.0
H211 H 0.38058 0.62292 0.27849 0.0
H212 H 0.41653 0.63346 0.18753 0.0
C213 C 0.67326 0.60987 0.23866 0.0
loop_
_geom_bond_atom_site_label_1
_geom_bond_atom_site_label_2
_geom_bond_distance
_geom_bond_site_symmetry_2
_ccdc_geom_bond_type
O0 Mn1 2.162 1_654 S
O0 C14 1.240 1_554 S
Mn1 O0 2.162 1_456 S
Mn1 O4 2.160 1_545 S
Mn1 O5 2.221 1_556 S
Mn1 O7 2.163 1_556 S
Mn1 O9 2.160 . S
Mn1 O19 2.221 1_445 S
O2 Mn3 2.087 . S
O2 C14 1.256 . S
Mn3 O2 2.087 . S
Mn3 O10 2.089 . S
Mn3 O19 2.290 1_545 S
Mn3 O20 2.251 1_545 S
O4 Mn1 2.160 1_565 S
O4 C15 1.239 1_556 S
O5 Mn1 2.221 1_554 S
O5 Mn6 2.290 . S
O5 C16 1.278 . S
Mn6 O5 2.290 . S
Mn6 O8 2.089 1_545 S
Mn6 O11 2.251 . S
Mn6 O12 2.087 . S
O7 Mn1 2.163 1_554 S
O7 C17 1.244 . S
O8 Mn6 2.089 1_565 S
O8 C15 1.256 . S
O9 Mn1 2.160 . S
O9 C18 1.239 . S
O10 Mn3 2.089 . S
O10 C18 1.256 1_655 S
O11 Mn6 2.251 . S
O11 C16 1.241 . S
O12 Mn6 2.087 . S
O12 C17 1.256 . S
C13 O19 1.278 1_554 S
C13 O20 1.241 1_554 S
C14 O0 1.240 1_556 S
C14 O2 1.256 . S
C15 O4 1.239 1_554 S
C15 O8 1.256 . S
C16 O5 1.278 . S
C16 O11 1.241 . S
C17 O7 1.244 . S
C17 O12 1.256 . S
C18 O9 1.239 . S
C18 O10 1.256 1_455 S
O19 Mn1 2.221 1_665 S
O19 Mn3 2.290 1_565 S
O19 C13 1.278 1_556 S
O20 Mn3 2.251 1_565 S
O20 C13 1.241 1_556 S
O21 Mn22 2.163 . S
O21 C35 1.244 . S
Mn22 O21 2.163 . S
Mn22 O25 2.160 . S
Mn22 O26 2.221 . S
Mn22 O28 2.163 . S
Mn22 O30 2.160 . S
Mn22 O40 2.221 . S
O23 Mn24 2.087 . S
O23 C35 1.256 . S
Mn24 O23 2.087 . S
Mn24 O31 2.089 . S
Mn24 O40 2.290 . S
Mn24 O41 2.251 . S
O25 Mn22 2.160 . S
O25 C36 1.239 . S
O26 Mn22 2.221 . S
O26 Mn27 2.290 . S
O26 C37 1.278 . S
Mn27 O26 2.290 . S
Mn27 O29 2.089 . S
Mn27 O32 2.251 . S
Mn27 O33 2.087 . S
O28 Mn22 2.163 . S
O28 C38 1.244 . S
O29 Mn27 2.089 . S
O29 C36 1.256 . S
O30 Mn22 2.160 . S
O30 C39 1.239 . S
O31 Mn24 2.089 . S
O31 C39 1.256 . S
O32 Mn27 2.251 . S
O32 C37 1.241 . S
O33 Mn27 2.087 . S
O33 C38 1.256 . S
C34 O40 1.278 . S
C34 O41 1.241 . S
C35 O21 1.244 . S
C35 O23 1.256 . S
C36 O25 1.239 . S
C36 O29 1.256 . S
C37 O26 1.278 . S
C37 O32 1.241 . S
C38 O28 1.244 . S
C38 O33 1.256 . S
C39 O30 1.239 . S
C39 O31 1.256 . S
O40 Mn22 2.221 . S
O40 Mn24 2.290 . S
O40 C34 1.278 . S
O41 Mn24 2.251 . S
O41 C34 1.241 . S
H42 C49 0.929 . S
H43 C52 0.930 1_655 S
H44 C54 0.929 . S
H45 C46 0.969 . S
C46 H45 0.969 . S
C46 O47 1.550 . S
C46 H48 0.973 . S
O47 C46 1.550 . S
O47 C53 1.412 1_655 S
H48 C46 0.973 . S
C49 H42 0.929 . S
C49 C50 1.400 . S
C49 C51 1.364 . S
C50 C49 1.400 . S
C50 C54 1.377 . S
C51 C49 1.364 . S
C51 C52 1.374 1_565 S
C52 H43 0.930 1_455 S
C52 C51 1.374 1_545 S
C52 C53 1.383 . S
C53 O47 1.412 1_455 S
C53 C52 1.383 . S
C53 C54 1.394 1_545 S
C54 H44 0.929 . S
C54 C50 1.377 . S
C54 C53 1.394 1_565 S
H55 C62 0.929 . S
H56 C65 0.930 . S
H57 C67 0.929 . S
H58 C59 0.969 1_545 S
C59 H58 0.969 1_565 S
C59 O60 1.550 1_565 S
C59 H61 0.973 . S
O60 C59 1.550 1_545 S
O60 C66 1.412 . S
H61 C59 0.973 . S
C62 H55 0.929 . S
C62 C63 1.400 . S
C62 C64 1.364 . S
C63 C62 1.400 . S
C63 C67 1.377 . S
C64 C62 1.364 . S
C64 C65 1.374 1_455 S
C65 H56 0.930 . S
C65 C64 1.374 1_655 S
C65 C66 1.383 . S
C66 O60 1.412 . S
C66 C65 1.383 . S
C66 C67 1.394 1_655 S
C67 H57 0.929 . S
C67 C63 1.377 . S
C67 C66 1.394 1_455 S
H68 C75 0.929 . S
H69 C78 0.930 . S
H70 C80 0.929 1_554 S
H71 C72 0.969 . S
C72 H71 0.969 . S
C72 O73 1.550 . S
C72 H74 0.973 . S
O73 C72 1.550 . S
O73 C79 1.412 . S
H74 C72 0.973 . S
C75 H68 0.929 . S
C75 C76 1.400 . S
C75 C77 1.364 . S
C76 C75 1.400 . S
C76 C80 1.377 . S
C77 C75 1.364 . S
C77 C78 1.374 . S
C78 H69 0.930 . S
C78 C77 1.374 . S
C78 C79 1.383 . S
C79 O73 1.412 . S
C79 C78 1.383 . S
C79 C80 1.394 . S
C80 H70 0.929 1_556 S
C80 C76 1.377 . S
C80 C79 1.394 . S
H81 C88 0.929 . S
H82 C91 0.930 . S
H83 C93 0.929 1_556 S
H84 C85 0.969 . S
C85 H84 0.969 . S
C85 O86 1.550 . S
C85 H87 0.973 . S
O86 C85 1.550 . S
O86 C92 1.412 . S
H87 C85 0.973 . S
C88 H81 0.929 . S
C88 C89 1.400 . S
C88 C90 1.364 . S
C89 C88 1.400 . S
C89 C93 1.377 . S
C90 C88 1.364 . S
C90 C91 1.374 . S
C91 H82 0.930 . S
C91 C90 1.374 . S
C91 C92 1.383 . S
C92 O86 1.412 . S
C92 C91 1.383 . S
C92 C93 1.394 . S
C93 H83 0.929 1_554 S
C93 C89 1.377 . S
C93 C92 1.394 . S
C94 C95 1.387 . S
C94 H98 0.950 . S
C94 C103 1.390 . S
C95 C94 1.387 . S
C95 C97 1.387 1_554 S
H96 C103 0.950 . S
C97 C95 1.387 1_556 S
C97 C99 1.390 . S
C97 H101 0.950 . S
H98 C94 0.950 . S
C99 C97 1.390 . S
C99 C100 1.387 1_556 S
C99 H102 0.950 . S
C100 C99 1.387 1_554 S
C100 C103 1.387 . S
H101 C97 0.950 . S
H102 C99 0.950 . S
C103 C94 1.390 . S
C103 H96 0.950 . S
C103 C100 1.387 . S
C104 C105 1.387 . S
C104 H108 0.950 . S
C104 C113 1.390 . S
C105 C104 1.387 . S
C105 C107 1.387 1_554 S
H106 C113 0.950 . S
C107 C105 1.387 1_556 S
C107 C109 1.390 . S
C107 H111 0.950 . S
H108 C104 0.950 . S
C109 C107 1.390 . S
C109 C110 1.387 1_556 S
C109 H112 0.950 . S
C110 C109 1.387 1_554 S
C110 C113 1.387 . S
H111 C107 0.950 . S
H112 C109 0.950 . S
C113 C104 1.390 . S
C113 H106 0.950 . S
C113 C110 1.387 . S
C114 C115 1.387 1_556 S
C114 H118 0.950 . S
C114 C123 1.390 . S
C115 C114 1.387 1_554 S
C115 C117 1.387 . S
H116 C123 0.950 . S
C117 C115 1.387 . S
C117 C119 1.390 . S
C117 H121 0.950 . S
H118 C114 0.950 . S
C119 C117 1.390 . S
C119 C120 1.387 . S
C119 H122 0.950 . S
C120 C119 1.387 . S
C120 C123 1.387 1_554 S
H121 C117 0.950 . S
H122 C119 0.950 . S
C123 C114 1.390 . S
C123 H116 0.950 . S
C123 C120 1.387 1_556 S
C124 C125 1.387 . S
C124 H128 0.950 . S
C124 C133 1.390 . S
C125 C124 1.387 . S
C125 C127 1.387 1_556 S
H126 C133 0.950 . S
C127 C125 1.387 1_554 S
C127 C129 1.390 . S
C127 H131 0.950 . S
H128 C124 0.950 . S
C129 C127 1.390 . S
C129 C130 1.387 1_554 S
C129 H132 0.950 . S
C130 C129 1.387 1_556 S
C130 C133 1.387 . S
H131 C127 0.950 . S
H132 C129 0.950 . S
C133 C124 1.390 . S
C133 H126 0.950 . S
C133 C130 1.387 . S
C134 C135 1.387 . S
C134 H138 0.950 . S
C134 C143 1.390 . S
C135 C134 1.387 . S
C135 C137 1.387 . S
H136 C143 0.950 . S
C137 C135 1.387 . S
C137 C139 1.390 . S
C137 H141 0.950 . S
H138 C134 0.950 . S
C139 C137 1.390 . S
C139 C140 1.387 . S
C139 H142 0.950 . S
C140 C139 1.387 . S
C140 C143 1.387 . S
H141 C137 0.950 . S
H142 C139 0.950 . S
C143 C134 1.390 . S
C143 H136 0.950 . S
C143 C140 1.387 . S
C144 C145 1.387 . S
C144 H148 0.950 . S
C144 C153 1.390 . S
C145 C144 1.387 . S
C145 C147 1.387 . S
H146 C153 0.950 . S
C147 C145 1.387 . S
C147 C149 1.390 . S
C147 H151 0.950 . S
H148 C144 0.950 . S
C149 C147 1.390 . S
C149 C150 1.387 . S
C149 H152 0.950 . S
C150 C149 1.387 . S
C150 C153 1.387 . S
H151 C147 0.950 . S
H152 C149 0.950 . S
C153 C144 1.390 . S
C153 H146 0.950 . S
C153 C150 1.387 . S
C154 C155 1.387 . S
C154 H158 0.950 . S
C154 C163 1.390 . S
C155 C154 1.387 . S
C155 C157 1.387 . S
H156 C163 0.950 . S
C157 C155 1.387 . S
C157 C159 1.390 . S
C157 H161 0.950 . S
H158 C154 0.950 . S
C159 C157 1.390 . S
C159 C160 1.387 . S
C159 H162 0.950 . S
C160 C159 1.387 . S
C160 C163 1.387 . S
H161 C157 0.950 . S
H162 C159 0.950 . S
C163 C154 1.390 . S
C163 H156 0.950 . S
C163 C160 1.387 . S
C164 C165 1.387 . S
C164 H168 0.950 . S
C164 C173 1.390 . S
C165 C164 1.387 . S
C165 C167 1.387 . S
H166 C173 0.950 . S
C167 C165 1.387 . S
C167 C169 1.390 . S
C167 H171 0.950 . S
H168 C164 0.950 . S
C169 C167 1.390 . S
C169 C170 1.387 . S
C169 H172 0.950 . S
C170 C169 1.387 . S
C170 C173 1.387 . S
H171 C167 0.950 . S
H172 C169 0.950 . S
C173 C164 1.390 . S
C173 H166 0.950 . S
C173 C170 1.387 . S
C174 C175 1.387 1_565 S
C174 H178 0.950 . S
C174 C183 1.390 . S
C175 C174 1.387 1_545 S
C175 C177 1.387 . S
H176 C183 0.950 . S
C177 C175 1.387 . S
C177 C179 1.390 . S
C177 H181 0.950 . S
H178 C174 0.950 . S
C179 C177 1.390 . S
C179 C180 1.387 1_545 S
C179 H182 0.950 . S
C180 C179 1.387 1_565 S
C180 C183 1.387 . S
H181 C177 0.950 . S
H182 C179 0.950 . S
C183 C174 1.390 . S
C183 H176 0.950 . S
C183 C180 1.387 . S
C184 C185 1.387 1_655 S
C184 H188 0.950 . S
C184 C193 1.390 . S
C185 C184 1.387 1_455 S
C185 C187 1.387 . S
H186 C193 0.950 . S
C187 C185 1.387 . S
C187 C189 1.390 . S
C187 H191 0.950 . S
H188 C184 0.950 . S
C189 C187 1.390 . S
C189 C190 1.387 . S
C189 H192 0.950 . S
C190 C189 1.387 . S
C190 C193 1.387 1_455 S
H191 C187 0.950 . S
H192 C189 0.950 . S
C193 C184 1.390 . S
C193 H186 0.950 . S
C193 C190 1.387 1_655 S
C194 C195 1.387 . S
C194 H198 0.950 . S
C194 C203 1.390 . S
C195 C194 1.387 . S
C195 C197 1.387 . S
H196 C203 0.950 . S
C197 C195 1.387 . S
C197 C199 1.390 . S
C197 H201 0.950 . S
H198 C194 0.950 . S
C199 C197 1.390 . S
C199 C200 1.387 . S
C199 H202 0.950 . S
C200 C199 1.387 . S
C200 C203 1.387 . S
H201 C197 0.950 . S
H202 C199 0.950 . S
C203 C194 1.390 . S
C203 H196 0.950 . S
C203 C200 1.387 . S
C204 C205 1.387 . S
C204 H208 0.950 . S
C204 C213 1.390 . S
C205 C204 1.387 . S
C205 C207 1.387 . S
H206 C213 0.950 . S
C207 C205 1.387 . S
C207 C209 1.390 . S
C207 H211 0.950 . S
H208 C204 0.950 . S
C209 C207 1.390 . S
C209 C210 1.387 . S
C209 H212 0.950 . S
C210 C209 1.387 . S
C210 C213 1.387 . S
H211 C207 0.950 . S
H212 C209 0.950 . S
C213 C204 1.390 . S
C213 H206 0.950 . S
C213 C210 1.387 . S
C100 C85 1.362 . S
C95 C16 1.339 . S
C105 C15 1.513 . S
C110 C72 1.393 1_554 S
C115 C13 1.301 . S
C120 C89 1.532 . S
C125 C14 1.425 . S
C130 C76 1.485 . S
C135 C37 1.336 . S
C140 C59 1.361 . S
C145 C36 1.514 . S
C150 C46 1.395 . S
C160 C63 1.531 . S
C155 C34 1.300 . S
C170 C50 1.484 . S
C165 C35 1.422 . S
C175 C17 1.551 . S
C180 C51 1.606 . S
C185 C18 1.429 . S
C190 C64 1.483 . S
C200 C77 1.606 . S
C195 C38 1.548 . S
C205 C39 1.430 . S
C210 C90 1.484 . S
