# Generated by pormake.
# Topology zzz, (3,6)-cn, num edge types: 1
# Building blocks:
#     Node 0, Type 0, BuildingBlock: INOVEN_clean_linker_0, # of connection points: 3
#     Node 1, Type 0, BuildingBlock: INOVEN_clean_linker_0, # of connection points: 3
#     Node 2, Type 0, BuildingBlock: INOVEN_clean_linker_0, # of connection points: 3
#     Node 3, Type 0, BuildingBlock: INOVEN_clean_linker_0, # of connection points: 3
#     Node 4, Type 0, BuildingBlock: INOVEN_clean_linker_0, # of connection points: 3
#     Node 5, Type 0, BuildingBlock: INOVEN_clean_linker_0, # of connection points: 3
#     Node 6, Type 0, BuildingBlock: INOVEN_clean_linker_0, # of connection points: 3
#     Node 7, Type 0, BuildingBlock: INOVEN_clean_linker_0, # of connection points: 3
#     Node 8, Type 1, BuildingBlock: MIFKUJ_clean_sbu_0, # of connection points: 6
#     Node 9, Type 1, BuildingBlock: MIFKUJ_clean_sbu_0, # of connection points: 6
#     Node 10, Type 1, BuildingBlock: MIFKUJ_clean_sbu_0, # of connection points: 6
#     Node 11, Type 1, BuildingBlock: MIFKUJ_clean_sbu_0, # of connection points: 6
#     Edge 12, Type (0, 1), None
#     Edge 13, Type (0, 1), None
#     Edge 14, Type (0, 1), None
#     Edge 15, Type (0, 1), None
#     Edge 16, Type (0, 1), None
#     Edge 17, Type (0, 1), None
#     Edge 18, Type (0, 1), None
#     Edge 19, Type (0, 1), None
#     Edge 20, Type (0, 1), None
#     Edge 21, Type (0, 1), None
#     Edge 22, Type (0, 1), None
#     Edge 23, Type (0, 1), None
#     Edge 24, Type (0, 1), None
#     Edge 25, Type (0, 1), None
#     Edge 26, Type (0, 1), None
#     Edge 27, Type (0, 1), None
#     Edge 28, Type (0, 1), None
#     Edge 29, Type (0, 1), None
#     Edge 30, Type (0, 1), None
#     Edge 31, Type (0, 1), None
#     Edge 32, Type (0, 1), None
#     Edge 33, Type (0, 1), None
#     Edge 34, Type (0, 1), None
#     Edge 35, Type (0, 1), None
# Relax obj value: 0.140
# Max RMSD: 0.137
# Mean RMSD: 0.083
data_MOF--net-zzz--node1-MIFKUJ_clean_sbu_0--node2-INOVEN_clean_linker_0--edge1-none
_symmetry_space_group_name_H-M    P1
_symmetry_Int_Tables_number       1
_symmetry_cell_setting            triclinic
loop_
_symmetry_equiv_pos_as_xyz
'x, y, z'
_cell_length_a     22.480779
_cell_length_b     21.281955
_cell_length_c     7.9836514
_cell_angle_alpha  90.013748
_cell_angle_beta   89.884341
_cell_angle_gamma 93.096945
loop_
_atom_site_label
_atom_site_type_symbol
_atom_site_fract_x
_atom_site_fract_y
_atom_site_fract_z
_atom_type_partial_charge
H0 H 0.7085 0.55566 0.29077 0.0
H1 H 0.88987 0.60654 0.14168 0.0
H2 H 0.75204 0.60504 0.77987 0.0
N3 N 0.66322 0.56467 -0.02979 0.0
N4 N 0.65688 0.54282 0.82474 0.0
C5 C 0.74046 0.57331 0.19818 0.0
C6 C 0.80189 0.58441 0.24193 0.0
C7 C 0.72203 0.58104 0.02924 0.0
C8 C 0.76444 0.60125 0.91065 0.0
C9 C 0.824 0.60712 0.95215 0.0
C10 C 0.84239 0.60328 0.11665 0.0
H11 H 0.00803 0.70858 0.29075 0.0
H12 H 0.92669 0.88243 0.16893 0.0
H13 H 0.93841 0.74173 0.79779 0.0
N14 N 0.99884 0.66134 -0.03247 0.0
N15 N 0.01172 0.66076 0.8141 0.0
C16 C 0.98324 0.73686 0.20568 0.0
C17 C 0.9644 0.79726 0.25746 0.0
C18 C 0.97334 0.71591 0.03742 0.0
C19 C 0.94327 0.75434 0.9288 0.0
C20 C 0.93038 0.81438 -0.02435 0.0
C21 C 0.93646 0.83421 0.13997 0.0
H22 H 0.78913 1.01682 0.29164 0.0
H23 H 0.60822 0.96599 0.13975 0.0
H24 H 0.74715 0.96941 0.77909 0.0
N25 N 0.83531 1.00841 -0.02908 0.0
N26 N 0.84204 0.03254 0.82805 0.0
C27 C 0.75741 0.99953 0.1983 0.0
C28 C 0.69585 0.98815 0.24122 0.0
C29 C 0.77629 0.9925 0.02929 0.0
C30 C 0.73429 0.97276 0.90979 0.0
C31 C 0.67467 0.96632 0.95061 0.0
C32 C 0.65576 0.96955 0.1151 0.0
H33 H 0.49104 0.86092 0.29953 0.0
H34 H 0.57169 0.68682 0.17453 0.0
H35 H 0.55947 0.82788 0.80438 0.0
N36 N 0.50054 0.90865 -0.02383 0.0
N37 N 0.48479 0.90833 0.82503 0.0
C38 C 0.51542 0.8325 0.2135 0.0
C39 C 0.53426 0.772 0.26441 0.0
C40 C 0.52494 0.8534 0.04502 0.0
C41 C 0.55464 0.81496 0.93529 0.0
C42 C 0.56769 0.75492 -0.01846 0.0
C43 C 0.56192 0.73505 0.14599 0.0
H44 H 0.32356 0.54464 0.89465 0.0
H45 H 0.15104 0.45452 0.00997 0.0
H46 H 0.28073 0.47768 0.3924 0.0
N47 N 0.3654 0.53742 0.21771 0.0
N48 N 0.36742 0.55443 0.36835 0.0
C49 C 0.29357 0.51922 -0.01981 0.0
C50 C 0.23549 0.49739 0.92634 0.0
C51 C 0.31051 0.51158 0.15031 0.0
C52 C 0.27003 0.48126 0.26042 0.0
C53 C 0.21273 0.46401 0.20913 0.0
C54 C 0.19692 0.46752 0.04258 0.0
H55 H 0.00116 0.32548 0.88561 0.0
H56 H 0.05938 0.14194 0.02227 0.0
H57 H 0.06222 0.28768 0.38507 0.0
N58 N 0.01435 0.37414 0.20697 0.0
N59 N 0.99485 0.37581 0.35445 0.0
C60 C 0.02136 0.29453 -0.02596 0.0
C61 C 0.03328 0.23136 0.92684 0.0
C62 C 0.03219 0.31535 0.14175 0.0
C63 C 0.05622 0.27394 0.25494 0.0
C64 C 0.06232 0.21189 0.21208 0.0
C65 C 0.05526 0.19159 0.04831 0.0
H66 H 0.17638 1.02512 0.89118 0.0
H67 H 0.35013 0.1109 0.01156 0.0
H68 H 0.21822 0.09133 0.39015 0.0
N69 N 0.13334 0.03321 0.2141 0.0
N70 N 0.13068 1.01629 0.36479 0.0
C71 C 0.20651 0.04972 -0.02236 0.0
C72 C 0.26528 0.07019 0.92531 0.0
C73 C 0.18893 0.0578 0.14747 0.0
C74 C 0.22948 0.08721 0.25855 0.0
C75 C 0.28726 0.10297 0.2088 0.0
C76 C 0.3039 0.09888 0.04286 0.0
H77 H 0.49867 0.24738 0.88015 0.0
H78 H 0.44261 0.43174 0.01908 0.0
H79 H 0.44006 0.28609 0.38207 0.0
N80 N 0.48502 0.19882 0.20228 0.0
N81 N 0.50787 0.19713 0.34561 0.0
C82 C 0.47928 0.2787 -0.03056 0.0
C83 C 0.46795 0.34206 0.92282 0.0
C84 C 0.46879 0.25814 0.1376 0.0
C85 C 0.44577 0.29986 0.2518 0.0
C86 C 0.43972 0.36187 0.20889 0.0
C87 C 0.44659 0.38207 0.04499 0.0
Zn88 Zn 0.98678 0.09099 0.54016 0.0
Zn89 Zn 0.99408 0.94232 0.64801 0.0
C90 C 0.01471 0.20142 0.76443 0.0
O91 O 0.98222 0.23212 0.65892 0.0
C92 C 0.98068 0.8283 0.42051 0.0
O93 O 0.01432 0.80001 0.52808 0.0
O94 O 0.99313 0.15274 0.36874 0.0
O95 O 0.02896 1.02462 0.40173 0.0
O96 O 0.07714 0.9775 0.59625 0.0
C97 C 0.04793 0.16696 0.34077 0.0
O98 O 0.08977 0.14611 0.43711 0.0
O99 O 0.02398 0.14297 0.73665 0.0
C100 C 0.93998 0.86116 0.84887 0.0
O101 O 0.89614 0.87621 0.75082 0.0
O102 O 0.99343 0.8812 0.82066 0.0
O103 O 0.93514 0.99632 0.77436 0.0
O104 O 0.90254 0.06907 0.60839 0.0
O105 O 0.96676 0.88541 0.4485 0.0
C106 C 0.07651 1.0016 0.45122 0.0
C107 C 0.89712 0.03624 0.74075 0.0
Zn108 Zn 0.40211 0.04177 0.54726 0.0
Zn109 Zn 0.57086 0.04552 0.61583 0.0
C110 C 0.29233 0.05415 0.76126 0.0
O111 O 0.26269 1.01781 0.6538 0.0
C112 C 0.66943 1.00675 0.40392 0.0
O113 O 0.70138 0.04284 0.50685 0.0
O114 O 0.35095 0.04165 0.3566 0.0
O115 O 0.46718 0.10598 0.47074 0.0
O116 O 0.56199 0.13099 0.51259 0.0
C117 C 0.3329 0.09648 0.33186 0.0
O118 O 0.34776 0.14309 0.43384 0.0
O119 O 0.34774 0.0692 0.73549 0.0
C120 C 0.6337 0.98243 0.82286 0.0
O121 O 0.60732 0.93836 0.73041 0.0
O122 O 0.62779 0.04039 0.79187 0.0
O123 O 0.49674 1.01488 0.75456 0.0
O124 O 0.43045 0.95707 0.61806 0.0
O125 O 0.61296 0.99775 0.42989 0.0
C126 C 0.51348 0.14082 0.43796 0.0
C127 C 0.46798 0.96247 0.73639 0.0
Zn128 Zn 0.51362 0.4835 0.5365 0.0
Zn129 Zn 0.50361 0.62707 0.65479 0.0
C130 C 0.48632 0.37191 0.75999 0.0
O131 O 0.51807 0.34091 0.65288 0.0
C132 C 0.51811 0.74087 0.42761 0.0
O133 O 0.48402 0.76889 0.53497 0.0
O134 O 0.50819 0.42224 0.36385 0.0
O135 O 0.46947 0.54905 0.40219 0.0
O136 O 0.42034 0.59296 0.60092 0.0
C137 C 0.45355 0.4069 0.33743 0.0
O138 O 0.41156 0.42608 0.43646 0.0
O139 O 0.47757 0.43053 0.73332 0.0
C140 C 0.55795 0.70813 0.85489 0.0
O141 O 0.60199 0.69174 0.75885 0.0
O142 O 0.50441 0.68863 0.82634 0.0
O143 O 0.55982 0.57103 0.7857 0.0
O144 O 0.59766 0.50814 0.60105 0.0
O145 O 0.53224 0.6838 0.45553 0.0
C146 C 0.42134 0.57015 0.45437 0.0
C147 C 0.6015 0.53714 0.73979 0.0
Zn148 Zn 0.10036 0.52813 0.55091 0.0
Zn149 Zn 0.92592 0.52607 0.61482 0.0
C150 C 0.20878 0.51374 0.76259 0.0
O151 O 0.23787 0.55186 0.65796 0.0
C152 C 0.82787 0.56539 0.40442 0.0
O153 O 0.79555 0.52978 0.50794 0.0
O154 O 0.14959 0.52617 0.35621 0.0
O155 O 0.02963 0.46888 0.48427 0.0
O156 O 0.93494 0.44062 0.50929 0.0
C157 C 0.16632 0.4709 0.33037 0.0
O158 O 0.15048 0.42453 0.4322 0.0
O159 O 0.15369 0.49791 0.73579 0.0
C160 C 0.86515 0.59048 0.82489 0.0
O161 O 0.88948 0.63382 0.72606 0.0
O162 O 0.87157 0.53239 0.7973 0.0
O163 O 0.00418 0.55451 0.73366 0.0
O164 O 0.07614 0.61387 0.62814 0.0
O165 O 0.88433 0.57375 0.42975 0.0
C166 C 0.98543 0.43218 0.44324 0.0
C167 C 0.03255 0.60762 0.72892 0.0
loop_
_geom_bond_atom_site_label_1
_geom_bond_atom_site_label_2
_geom_bond_distance
_geom_bond_site_symmetry_2
_ccdc_geom_bond_type
H0 C5 0.929 . S
H1 C10 0.931 . S
H2 C8 0.930 . S
N3 N4 1.234 1_554 S
N3 C7 1.453 . S
N4 N3 1.234 1_556 S
C5 H0 0.929 . S
C5 C6 1.373 . S
C5 C7 1.368 . S
C6 C5 1.373 . S
C6 C10 1.397 . S
C7 N3 1.453 . S
C7 C5 1.368 . S
C7 C8 1.373 1_554 S
C8 H2 0.930 . S
C8 C7 1.373 1_556 S
C8 C9 1.371 . S
C9 C8 1.371 . S
C9 C10 1.383 1_556 S
C10 H1 0.931 . S
C10 C6 1.397 . S
C10 C9 1.383 1_554 S
H11 C16 0.929 . S
H12 C21 0.931 . S
H13 C19 0.930 . S
N14 N15 1.234 1_454 S
N14 C18 1.453 . S
N15 N14 1.234 1_656 S
C16 H11 0.929 . S
C16 C17 1.373 . S
C16 C18 1.368 . S
C17 C16 1.373 . S
C17 C21 1.397 1_455 S
C18 N14 1.453 . S
C18 C16 1.368 . S
C18 C19 1.373 1_554 S
C19 H13 0.930 . S
C19 C18 1.373 1_556 S
C19 C20 1.371 . S
C20 C19 1.371 . S
C20 C21 1.383 1_456 S
C21 H12 0.931 . S
C21 C17 1.397 1_655 S
C21 C20 1.383 1_654 S
H22 C27 0.929 . S
H23 C32 0.931 . S
H24 C30 0.930 . S
N25 N26 1.234 1_554 S
N25 C29 1.453 . S
N26 N25 1.234 1_556 S
C27 H22 0.929 . S
C27 C28 1.373 . S
C27 C29 1.368 . S
C28 C27 1.373 . S
C28 C32 1.397 . S
C29 N25 1.453 . S
C29 C27 1.368 . S
C29 C30 1.373 1_554 S
C30 H24 0.930 . S
C30 C29 1.373 1_556 S
C30 C31 1.371 . S
C31 C30 1.371 . S
C31 C32 1.383 1_556 S
C32 H23 0.931 . S
C32 C28 1.397 . S
C32 C31 1.383 1_554 S
H33 C38 0.929 . S
H34 C43 0.931 . S
H35 C41 0.930 . S
N36 N37 1.234 1_554 S
N36 C40 1.453 . S
N37 N36 1.234 1_556 S
C38 H33 0.929 . S
C38 C39 1.373 . S
C38 C40 1.368 . S
C39 C38 1.373 . S
C39 C43 1.397 . S
C40 N36 1.453 . S
C40 C38 1.368 . S
C40 C41 1.373 1_554 S
C41 H35 0.930 . S
C41 C40 1.373 1_556 S
C41 C42 1.371 . S
C42 C41 1.371 . S
C42 C43 1.383 1_556 S
C43 H34 0.931 . S
C43 C39 1.397 . S
C43 C42 1.383 1_554 S
H44 C49 0.929 . S
H45 C54 0.931 . S
H46 C52 0.930 . S
N47 N48 1.234 . S
N47 C51 1.453 . S
N48 N47 1.234 . S
C49 H44 0.929 . S
C49 C50 1.373 . S
C49 C51 1.368 1_556 S
C50 C49 1.373 . S
C50 C54 1.397 1_556 S
C51 N47 1.453 . S
C51 C49 1.368 1_554 S
C51 C52 1.373 . S
C52 H46 0.930 . S
C52 C51 1.373 . S
C52 C53 1.371 . S
C53 C52 1.371 . S
C53 C54 1.383 . S
C54 H45 0.931 . S
C54 C50 1.397 1_554 S
C54 C53 1.383 . S
H55 C60 0.929 . S
H56 C65 0.931 . S
H57 C63 0.930 . S
N58 N59 1.234 1_455 S
N58 C62 1.453 . S
N59 N58 1.234 1_655 S
C60 H55 0.929 . S
C60 C61 1.373 . S
C60 C62 1.368 1_556 S
C61 C60 1.373 . S
C61 C65 1.397 1_456 S
C62 N58 1.453 . S
C62 C60 1.368 1_554 S
C62 C63 1.373 . S
C63 H57 0.930 . S
C63 C62 1.373 . S
C63 C64 1.371 . S
C64 C63 1.371 . S
C64 C65 1.383 1_455 S
C65 H56 0.931 . S
C65 C61 1.397 1_654 S
C65 C64 1.383 1_655 S
H66 C71 0.929 . S
H67 C76 0.931 . S
H68 C74 0.930 . S
N69 N70 1.234 . S
N69 C73 1.453 . S
N70 N69 1.234 . S
C71 H66 0.929 . S
C71 C72 1.373 . S
C71 C73 1.368 1_556 S
C72 C71 1.373 . S
C72 C76 1.397 1_556 S
C73 N69 1.453 . S
C73 C71 1.368 1_554 S
C73 C74 1.373 . S
C74 H68 0.930 . S
C74 C73 1.373 . S
C74 C75 1.371 . S
C75 C74 1.371 . S
C75 C76 1.383 . S
C76 H67 0.931 . S
C76 C72 1.397 1_554 S
C76 C75 1.383 . S
H77 C82 0.929 . S
H78 C87 0.931 . S
H79 C85 0.930 . S
N80 N81 1.234 . S
N80 C84 1.453 . S
N81 N80 1.234 . S
C82 H77 0.929 . S
C82 C83 1.373 . S
C82 C84 1.368 1_556 S
C83 C82 1.373 . S
C83 C87 1.397 1_556 S
C84 N80 1.453 . S
C84 C82 1.368 1_554 S
C84 C85 1.373 . S
C85 H79 0.930 . S
C85 C84 1.373 . S
C85 C86 1.371 . S
C86 C85 1.371 . S
C86 C87 1.383 . S
C87 H78 0.931 . S
C87 C83 1.397 1_554 S
C87 C86 1.383 . S
Zn88 O94 1.969 . S
Zn88 O95 1.965 1_655 S
Zn88 O99 2.024 1_655 S
Zn88 O104 1.969 . S
Zn89 O96 1.969 . S
Zn89 O102 1.969 . S
Zn89 O103 1.965 1_455 S
Zn89 O105 2.024 1_455 S
C90 O91 1.229 1_455 S
C90 O99 1.058 . S
O91 C90 1.229 1_655 S
C92 O93 1.229 1_655 S
C92 O105 1.058 . S
O93 C92 1.229 1_455 S
O94 Zn88 1.969 . S
O94 C97 1.267 . S
O95 Zn88 1.965 1_455 S
O95 C106 1.260 . S
O96 Zn89 1.969 . S
O96 C106 1.258 1_565 S
C97 O94 1.267 . S
C97 O98 1.228 1_655 S
O98 C97 1.228 1_455 S
O99 Zn88 2.024 1_455 S
O99 C90 1.058 . S
C100 O101 1.228 1_455 S
C100 O102 1.267 . S
O101 C100 1.228 1_655 S
O102 Zn89 1.969 . S
O102 C100 1.267 . S
O103 Zn89 1.965 1_655 S
O103 C107 1.261 1_565 S
O104 Zn88 1.969 . S
O104 C107 1.256 . S
O105 Zn89 2.024 1_655 S
O105 C92 1.058 . S
C106 O95 1.260 . S
C106 O96 1.258 1_545 S
C107 O103 1.261 1_545 S
C107 O104 1.256 . S
Zn108 O114 1.969 1_545 S
Zn108 O115 1.965 . S
Zn108 O119 2.024 . S
Zn108 O124 1.969 1_545 S
Zn109 O116 1.969 1_565 S
Zn109 O122 1.969 1_565 S
Zn109 O123 1.965 . S
Zn109 O125 2.024 . S
C110 O111 1.244 . S
C110 O119 1.058 . S
O111 C110 1.244 . S
C112 O113 1.229 1_565 S
C112 O125 1.058 . S
O113 C112 1.229 1_545 S
O114 Zn108 1.969 1_565 S
O114 C117 1.267 1_565 S
O115 Zn108 1.965 . S
O115 C126 1.260 . S
O116 Zn109 1.969 1_545 S
O116 C126 1.258 . S
C117 O114 1.267 1_545 S
C117 O118 1.228 . S
O118 C117 1.228 . S
O119 Zn108 2.024 . S
O119 C110 1.058 . S
C120 O121 1.228 . S
C120 O122 1.267 1_565 S
O121 C120 1.228 . S
O122 Zn109 1.969 1_545 S
O122 C120 1.267 1_545 S
O123 Zn109 1.965 . S
O123 C127 1.260 . S
O124 Zn108 1.969 1_565 S
O124 C127 1.258 . S
O125 Zn109 2.024 . S
O125 C112 1.058 . S
C126 O115 1.260 . S
C126 O116 1.258 . S
C127 O123 1.260 . S
C127 O124 1.258 . S
Zn128 O134 1.969 . S
Zn128 O135 1.965 . S
Zn128 O139 2.024 . S
Zn128 O144 1.969 . S
Zn129 O136 1.969 . S
Zn129 O142 1.969 . S
Zn129 O143 1.965 . S
Zn129 O145 2.024 . S
C130 O131 1.229 . S
C130 O139 1.058 . S
O131 C130 1.229 . S
C132 O133 1.229 . S
C132 O145 1.058 . S
O133 C132 1.229 . S
O134 Zn128 1.969 . S
O134 C137 1.267 . S
O135 Zn128 1.965 . S
O135 C146 1.260 . S
O136 Zn129 1.969 . S
O136 C146 1.258 . S
C137 O134 1.267 . S
C137 O138 1.228 . S
O138 C137 1.228 . S
O139 Zn128 2.024 . S
O139 C130 1.058 . S
C140 O141 1.228 . S
C140 O142 1.267 . S
O141 C140 1.228 . S
O142 Zn129 1.969 . S
O142 C140 1.267 . S
O143 Zn129 1.965 . S
O143 C147 1.260 . S
O144 Zn128 1.969 . S
O144 C147 1.258 . S
O145 Zn129 2.024 . S
O145 C132 1.058 . S
C146 O135 1.260 . S
C146 O136 1.258 . S
C147 O143 1.260 . S
C147 O144 1.258 . S
Zn148 O154 1.969 . S
Zn148 O155 1.965 . S
Zn148 O159 2.024 . S
Zn148 O164 1.969 . S
Zn149 O156 1.969 . S
Zn149 O162 1.969 . S
Zn149 O163 1.965 . S
Zn149 O165 2.024 . S
C150 O151 1.229 . S
C150 O159 1.058 . S
O151 C150 1.229 . S
C152 O153 1.229 . S
C152 O165 1.058 . S
O153 C152 1.229 . S
O154 Zn148 1.969 . S
O154 C157 1.267 . S
O155 Zn148 1.965 . S
O155 C166 1.260 1_455 S
O156 Zn149 1.969 . S
O156 C166 1.258 . S
C157 O154 1.267 . S
C157 O158 1.228 . S
O158 C157 1.228 . S
O159 Zn148 2.024 . S
O159 C150 1.058 . S
C160 O161 1.228 . S
C160 O162 1.267 . S
O161 C160 1.228 . S
O162 Zn149 1.969 . S
O162 C160 1.267 . S
O163 Zn149 1.965 . S
O163 C167 1.260 1_655 S
O164 Zn148 1.969 . S
O164 C167 1.258 . S
O165 Zn149 2.024 . S
O165 C152 1.058 . S
C166 O155 1.260 1_655 S
C166 O156 1.258 . S
C167 O163 1.260 1_455 S
C167 O164 1.258 . S
N70 C106 1.795 . S
C126 N81 1.617 . S
C146 N48 1.794 . S
C166 N59 1.619 . S
C107 N26 1.830 1_545 S
N37 C127 1.626 . S
N4 C147 1.826 . S
N15 C167 1.629 1_655 S
C97 C64 0.887 1_655 S
C117 C75 1.054 . S
C137 C86 0.884 . S
C53 C157 1.055 . S
C20 C100 0.860 . S
C120 C31 1.008 . S
C140 C42 0.855 . S
C9 C160 1.011 . S
C61 C90 1.431 . S
C72 C110 1.473 . S
C130 C83 1.430 . S
C150 C50 1.473 . S
C17 C92 1.450 1_455 S
C112 C28 1.460 . S
C132 C39 1.451 . S
C6 C152 1.464 . S
