# Generated by pormake.
# Topology csq, (4,8)-cn, num edge types: 1
# Building blocks:
#     Node 0, Type 0, BuildingBlock: KUFVIS_clean_linker_0, # of connection points: 4
#     Node 1, Type 0, BuildingBlock: KUFVIS_clean_linker_0, # of connection points: 4
#     Node 2, Type 0, BuildingBlock: KUFVIS_clean_linker_0, # of connection points: 4
#     Node 3, Type 0, BuildingBlock: KUFVIS_clean_linker_0, # of connection points: 4
#     Node 4, Type 0, BuildingBlock: KUFVIS_clean_linker_0, # of connection points: 4
#     Node 5, Type 0, BuildingBlock: KUFVIS_clean_linker_0, # of connection points: 4
#     Node 6, Type 1, BuildingBlock: TAGTUT_clean_sbu_1, # of connection points: 8
#     Node 7, Type 1, BuildingBlock: TAGTUT_clean_sbu_1, # of connection points: 8
#     Node 8, Type 1, BuildingBlock: TAGTUT_clean_sbu_1, # of connection points: 8
#     Edge 9, Type (0, 1), None
#     Edge 10, Type (0, 1), None
#     Edge 11, Type (0, 1), None
#     Edge 12, Type (0, 1), None
#     Edge 13, Type (0, 1), None
#     Edge 14, Type (0, 1), None
#     Edge 15, Type (0, 1), None
#     Edge 16, Type (0, 1), None
#     Edge 17, Type (0, 1), None
#     Edge 18, Type (0, 1), None
#     Edge 19, Type (0, 1), None
#     Edge 20, Type (0, 1), None
#     Edge 21, Type (0, 1), None
#     Edge 22, Type (0, 1), None
#     Edge 23, Type (0, 1), None
#     Edge 24, Type (0, 1), None
#     Edge 25, Type (0, 1), None
#     Edge 26, Type (0, 1), None
#     Edge 27, Type (0, 1), None
#     Edge 28, Type (0, 1), None
#     Edge 29, Type (0, 1), None
#     Edge 30, Type (0, 1), None
#     Edge 31, Type (0, 1), None
#     Edge 32, Type (0, 1), None
# Relax obj value: 0.056
# Max RMSD: 0.122
# Mean RMSD: 0.099
data_MOF--net-csq--node1-TAGTUT_clean_sbu_1--node2-KUFVIS_clean_linker_0--edge1-none
_symmetry_space_group_name_H-M    P1
_symmetry_Int_Tables_number       1
_symmetry_cell_setting            triclinic
loop_
_symmetry_equiv_pos_as_xyz
'x, y, z'
_cell_length_a     25.161877
_cell_length_b     26.313416
_cell_length_c     10.184884
_cell_angle_alpha  92.89361
_cell_angle_beta   95.546793
_cell_angle_gamma 119.67984
loop_
_atom_site_label
_atom_site_type_symbol
_atom_site_fract_x
_atom_site_fract_y
_atom_site_fract_z
_atom_type_partial_charge
H0 H 0.40978 0.41644 0.13008 0.0
H1 H 0.30951 0.45779 0.39429 0.0
H2 H 0.26709 0.44472 -0.03353 0.0
H3 H 0.17694 0.3744 -0.00525 0.0
H4 H 0.03484 0.38399 0.15827 0.0
H5 H 0.21751 0.47107 0.38539 0.0
C6 C 0.37377 0.42611 0.14525 0.0
C7 C 0.34037 0.42939 0.03245 0.0
C8 C 0.37056 0.4464 0.27455 0.0
C9 C 0.31698 0.44893 0.29488 0.0
C10 C 0.27331 0.43947 0.18253 0.0
C11 C 0.29203 0.43975 0.05287 0.0
C12 C 0.20687 0.42368 0.19218 0.0
C13 C 0.16389 0.39025 0.07887 0.0
C14 C 0.10518 0.38215 0.06129 0.0
C15 C 0.08209 0.39328 0.17255 0.0
C16 C 0.12105 0.42589 0.29328 0.0
C17 C 0.185 0.442 0.30101 0.0
H18 H 0.68297 0.03271 0.10766 0.0
H19 H 0.80567 0.19416 0.3451 0.0
H20 H 0.73548 0.19481 0.93913 0.0
H21 H 0.83603 0.27443 -0.0435 0.0
H22 H 0.94405 0.43664 0.20916 0.0
H23 H 0.82247 0.28201 0.37534 0.0
C24 C 0.71041 0.08004 0.1152 0.0
C25 C 0.70531 0.10903 0.0041 0.0
C26 C 0.74191 0.11112 0.24087 0.0
C27 C 0.77906 0.17184 0.24955 0.0
C28 C 0.77959 0.20335 0.14143 0.0
C29 C 0.74089 0.17138 0.01896 0.0
C30 C 0.82007 0.26948 0.16051 0.0
C31 C 0.8464 0.29903 0.05307 0.0
C32 C 0.8917 0.35895 0.07259 0.0
C33 C 0.90867 0.39091 0.19691 0.0
C34 C 0.88741 0.36263 0.30701 0.0
C35 C 0.84062 0.3026 0.28843 0.0
H36 H 0.55598 0.93947 -0.01525 0.0
H37 H 0.60737 0.83414 0.2026 0.0
H38 H 0.58385 0.81418 0.77238 0.0
H39 H 0.5955 0.74172 0.7842 0.0
H40 H 0.58324 0.60334 -0.00767 0.0
H41 H 0.59744 0.75123 0.21358 0.0
C42 C 0.56708 0.90528 -0.01565 0.0
C43 C 0.57134 0.88083 0.86579 0.0
C44 C 0.58336 0.89068 0.10415 0.0
C45 C 0.59459 0.84385 0.10723 0.0
C46 C 0.59087 0.8115 -0.01042 0.0
C47 C 0.58256 0.83323 0.86725 0.0
C48 C 0.59465 0.7559 -0.00321 0.0
C49 C 0.59382 0.7251 0.87911 0.0
C50 C 0.58823 0.66996 0.88052 0.0
C51 C 0.58665 0.64548 -0.00365 0.0
C52 C 0.59293 0.67523 0.1167 0.0
C53 C 0.59569 0.73037 0.11828 0.0
H54 H 0.04919 0.63694 0.07726 0.0
H55 H 0.90708 0.6465 0.24089 0.0
H56 H 0.86647 0.5497 0.85043 0.0
H57 H 0.77443 0.56291 0.84156 0.0
H58 H 0.67389 0.6037 0.10605 0.0
H59 H 0.81704 0.576 0.26939 0.0
C60 C 1.00194 0.62764 0.06305 0.0
C61 C 0.96296 0.59498 0.94236 0.0
C62 C 0.97887 0.6388 0.17432 0.0
C63 C 0.92015 0.63067 0.15676 0.0
C64 C 0.87713 0.59715 0.04355 0.0
C65 C 0.89899 0.57883 0.93472 0.0
C66 C 0.81067 0.58122 0.05331 0.0
C67 C 0.76693 0.57167 0.94101 0.0
C68 C 0.71323 0.57397 -0.03855 0.0
C69 C 0.70997 0.59414 0.09081 0.0
C70 C 0.74348 0.59097 0.20353 0.0
C71 C 0.79197 0.58086 0.18303 0.0
H72 H 0.40155 0.98795 0.1279 0.0
H73 H 0.34897 0.82587 0.29663 0.0
H74 H 0.27885 0.82649 0.89056 0.0
H75 H 0.26202 0.73864 0.86042 0.0
H76 H 0.1399 0.58418 0.02634 0.0
H77 H 0.2483 0.7463 0.27916 0.0
C78 C 0.37412 0.94062 0.12042 0.0
C79 C 0.34263 0.90953 -0.00523 0.0
C80 C 0.3792 0.91166 0.23156 0.0
C81 C 0.3436 0.84929 0.21675 0.0
C82 C 0.3049 0.81731 0.09427 0.0
C83 C 0.30546 0.84882 -0.01389 0.0
C84 C 0.26432 0.7512 0.07521 0.0
C85 C 0.24377 0.71807 0.94729 0.0
C86 C 0.19681 0.65811 0.9286 0.0
C87 C 0.17541 0.62986 0.03867 0.0
C88 C 0.19243 0.66181 0.16302 0.0
C89 C 0.23788 0.72168 0.1826 0.0
H90 H 0.50068 0.41712 0.24364 0.0
H91 H 0.48904 0.27895 0.45175 0.0
H92 H 0.4865 0.26928 0.0222 0.0
H93 H 0.47715 0.1866 0.03303 0.0
H94 H 0.52854 0.08128 0.25084 0.0
H95 H 0.50007 0.20614 0.46324 0.0
C96 C 0.49743 0.37504 0.23961 0.0
C97 C 0.4911 0.34529 0.11922 0.0
C98 C 0.49602 0.35061 0.35545 0.0
C99 C 0.49055 0.29552 0.35681 0.0
C100 C 0.48957 0.26466 0.23904 0.0
C101 C 0.48837 0.29016 0.11757 0.0
C102 C 0.49337 0.20907 0.24611 0.0
C103 C 0.4898 0.17683 0.12842 0.0
C104 C 0.50107 0.13001 0.13148 0.0
C105 C 0.51733 0.11539 0.25126 0.0
C106 C 0.5129 0.13972 0.3698 0.0
C107 C 0.50155 0.18724 0.36838 0.0
C108 C 0.93044 0.38556 -0.02885 0.0
C109 C 0.08228 0.3887 0.92626 0.0
C110 C 0.16118 0.62878 0.79625 0.0
Mg111 Mg 0.97144 0.37216 0.72583 0.0
O112 O 1.01226 0.45393 0.74492 0.0
Mg113 Mg 0.06623 0.49755 0.91052 0.0
Mg114 Mg 0.04196 0.51042 0.61776 0.0
O115 O 0.0717 0.56695 0.49074 0.0
Mg116 Mg 0.1127 0.64876 0.50984 0.0
Mg117 Mg 1.01779 0.52337 0.32511 0.0
C118 C 0.92303 0.39208 0.43927 0.0
C119 C 0.0956 0.45794 0.3735 0.0
O120 O 0.98723 0.42593 0.00814 0.0
O121 O 0.90873 0.36304 0.85145 0.0
O122 O 0.10991 0.44061 0.89121 0.0
O123 O 1.02825 0.35057 0.86784 0.0
O124 O 0.92655 0.35807 0.52222 0.0
O125 O 0.95581 0.44928 0.46169 0.0
C126 C 0.98838 0.56293 0.86214 0.0
O127 O 0.98737 0.55634 0.73389 0.0
O128 O 1.01768 0.54537 0.9363 0.0
O129 O 0.09683 0.59495 0.22744 0.0
O130 O 0.17535 0.65778 0.38413 0.0
O131 O 0.97418 0.58036 0.34439 0.0
C132 C 0.15364 0.63527 0.26443 0.0
O133 O 0.0559 0.67036 0.36767 0.0
O134 O 0.15784 0.66291 0.71339 0.0
C135 C 1.00184 0.63226 0.30931 0.0
O136 O 0.128 0.57161 0.7737 0.0
O137 O 0.09658 0.46451 0.50173 0.0
O138 O 0.06631 0.4755 0.29935 0.0
C139 C 0.49199 0.09328 0.0104 0.0
C140 C 0.36548 0.93513 0.87024 0.0
C141 C 0.57186 0.91111 0.74657 0.0
Mg142 Mg 0.44171 0.04918 0.73555 0.0
O143 O 0.50305 0.02855 0.75101 0.0
Mg144 Mg 0.50356 0.97879 0.88743 0.0
Mg145 Mg 0.54226 0.01039 0.61781 0.0
O146 O 0.58148 0.99221 0.48473 0.0
Mg147 Mg 0.64274 0.97144 0.50017 0.0
Mg148 Mg 0.58099 0.04193 0.34827 0.0
C149 C 0.51248 0.10945 0.48896 0.0
C150 C 0.43716 0.94706 0.33237 0.0
O151 O 0.48956 0.04354 0.02003 0.0
O152 O 0.48357 0.11056 0.89997 0.0
O153 O 0.40112 0.92006 0.82189 0.0
O154 O 0.3676 0.98286 0.84092 0.0
O155 O 0.46809 0.09699 0.55845 0.0
O156 O 0.54897 0.08789 0.50626 0.0
C157 C 0.64736 0.07366 0.90331 0.0
O158 O 0.64122 0.07485 0.77521 0.0
O159 O 0.60112 0.03993 -0.04327 0.0
O160 O 0.59494 0.97718 0.21562 0.0
O161 O 0.60085 0.91012 0.33565 0.0
O162 O 0.68344 0.10062 0.41376 0.0
C163 C 0.59248 0.92743 0.22522 0.0
O164 O 0.71686 0.03775 0.3947 0.0
O165 O 0.61623 0.92342 0.67707 0.0
C166 C 0.71903 0.0855 0.36539 0.0
O167 O 0.5357 0.93302 0.72933 0.0
O168 O 0.44329 0.94589 0.46047 0.0
O169 O 0.4834 0.98081 0.27897 0.0
C170 C 0.59809 0.64656 0.23514 0.0
C171 C 0.71821 0.58836 0.33369 0.0
C172 C 0.49961 0.38395 0.47481 0.0
Mg173 Mg 0.64934 0.64139 0.49698 0.0
O174 O 0.58041 0.56527 0.48265 0.0
Mg175 Mg 0.57145 0.51201 0.33426 0.0
Mg176 Mg 0.54193 0.51028 0.61799 0.0
O177 O 0.50342 0.45522 0.75315 0.0
Mg178 Mg 0.4346 0.37901 0.73883 0.0
Mg179 Mg 0.51235 0.50841 0.90158 0.0
C180 C 0.58444 0.6365 0.76119 0.0
C181 C 0.65308 0.54689 0.86914 0.0
O182 O 0.58838 0.59325 0.21785 0.0
O183 O 0.61595 0.67587 0.34932 0.0
O184 O 0.6745 0.53794 0.35283 0.0
O185 O 0.71985 0.63476 0.3859 0.0
O186 O 0.62761 0.66234 0.68822 0.0
O187 O 0.54262 0.58139 0.74337 0.0
C188 C 0.43076 0.47356 0.36673 0.0
O189 O 0.43897 0.47671 0.49439 0.0
O190 O 0.47629 0.48927 0.30427 0.0
O191 O 0.49547 0.4272 0.01808 0.0
O192 O 0.46807 0.34463 0.88659 0.0
O193 O 0.40931 0.48242 0.88306 0.0
C194 C 0.48585 0.37392 0.00079 0.0
O195 O 0.3641 0.3856 0.85019 0.0
O196 O 0.45642 0.35794 0.54767 0.0
C197 C 0.36568 0.43198 0.90234 0.0
O198 O 0.54112 0.43915 0.49272 0.0
O199 O 0.64491 0.54382 0.74151 0.0
O200 O 0.60751 0.53115 0.93151 0.0
loop_
_geom_bond_atom_site_label_1
_geom_bond_atom_site_label_2
_geom_bond_distance
_geom_bond_site_symmetry_2
_ccdc_geom_bond_type
H0 C6 0.930 . S
H1 C9 0.931 . S
H2 C11 0.931 . S
H3 C13 0.930 . S
H4 C15 0.930 . S
H5 C17 0.931 . S
C6 H0 0.930 . S
C6 C7 1.380 . S
C6 C8 1.394 . S
C7 C6 1.380 . S
C7 C11 1.382 . S
C8 C6 1.394 . S
C8 C9 1.400 . S
C9 H1 0.931 . S
C9 C8 1.400 . S
C9 C10 1.375 . S
C10 C9 1.375 . S
C10 C11 1.415 . S
C10 C12 1.501 . S
C11 H2 0.931 . S
C11 C7 1.382 . S
C11 C10 1.415 . S
C12 C10 1.501 . S
C12 C13 1.384 . S
C12 C17 1.408 . S
C13 H3 0.930 . S
C13 C12 1.384 . S
C13 C14 1.389 . S
C14 C13 1.389 . S
C14 C15 1.405 . S
C15 H4 0.930 . S
C15 C14 1.405 . S
C15 C16 1.364 . S
C16 C15 1.364 . S
C16 C17 1.400 . S
C17 H5 0.931 . S
C17 C12 1.408 . S
C17 C16 1.400 . S
H18 C24 0.930 . S
H19 C27 0.931 . S
H20 C29 0.931 1_556 S
H21 C31 0.930 1_556 S
H22 C33 0.930 . S
H23 C35 0.931 . S
C24 H18 0.930 . S
C24 C25 1.380 . S
C24 C26 1.394 . S
C25 C24 1.380 . S
C25 C29 1.382 . S
C26 C24 1.394 . S
C26 C27 1.400 . S
C27 H19 0.931 . S
C27 C26 1.400 . S
C27 C28 1.375 . S
C28 C27 1.375 . S
C28 C29 1.415 . S
C28 C30 1.501 . S
C29 H20 0.931 1_554 S
C29 C25 1.382 . S
C29 C28 1.415 . S
C30 C28 1.501 . S
C30 C31 1.384 . S
C30 C35 1.408 . S
C31 H21 0.930 1_554 S
C31 C30 1.384 . S
C31 C32 1.389 . S
C32 C31 1.389 . S
C32 C33 1.405 . S
C33 H22 0.930 . S
C33 C32 1.405 . S
C33 C34 1.364 . S
C34 C33 1.364 . S
C34 C35 1.400 . S
C35 H23 0.931 . S
C35 C30 1.408 . S
C35 C34 1.400 . S
H36 C42 0.930 . S
H37 C45 0.931 . S
H38 C47 0.931 . S
H39 C49 0.930 . S
H40 C51 0.930 . S
H41 C53 0.931 . S
C42 H36 0.930 . S
C42 C43 1.380 1_554 S
C42 C44 1.394 . S
C43 C42 1.380 1_556 S
C43 C47 1.382 . S
C44 C42 1.394 . S
C44 C45 1.400 . S
C45 H37 0.931 . S
C45 C44 1.400 . S
C45 C46 1.375 . S
C46 C45 1.375 . S
C46 C47 1.415 1_554 S
C46 C48 1.501 . S
C47 H38 0.931 . S
C47 C43 1.382 . S
C47 C46 1.415 1_556 S
C48 C46 1.501 . S
C48 C49 1.384 1_554 S
C48 C53 1.408 . S
C49 H39 0.930 . S
C49 C48 1.384 1_556 S
C49 C50 1.389 . S
C50 C49 1.389 . S
C50 C51 1.405 1_556 S
C51 H40 0.930 . S
C51 C50 1.405 1_554 S
C51 C52 1.364 . S
C52 C51 1.364 . S
C52 C53 1.400 . S
C53 H41 0.931 . S
C53 C48 1.408 . S
C53 C52 1.400 . S
H54 C60 0.930 . S
H55 C63 0.931 . S
H56 C65 0.931 . S
H57 C67 0.930 . S
H58 C69 0.930 . S
H59 C71 0.931 . S
C60 H54 0.930 . S
C60 C61 1.380 1_554 S
C60 C62 1.394 . S
C61 C60 1.380 1_556 S
C61 C65 1.382 . S
C62 C60 1.394 . S
C62 C63 1.400 . S
C63 H55 0.931 . S
C63 C62 1.400 . S
C63 C64 1.375 . S
C64 C63 1.375 . S
C64 C65 1.415 1_554 S
C64 C66 1.501 . S
C65 H56 0.931 . S
C65 C61 1.382 . S
C65 C64 1.415 1_556 S
C66 C64 1.501 . S
C66 C67 1.384 1_554 S
C66 C71 1.408 . S
C67 H57 0.930 . S
C67 C66 1.384 1_556 S
C67 C68 1.389 . S
C68 C67 1.389 . S
C68 C69 1.405 1_556 S
C69 H58 0.930 . S
C69 C68 1.405 1_554 S
C69 C70 1.364 . S
C70 C69 1.364 . S
C70 C71 1.400 . S
C71 H59 0.931 . S
C71 C66 1.408 . S
C71 C70 1.400 . S
H72 C78 0.930 . S
H73 C81 0.931 . S
H74 C83 0.931 1_556 S
H75 C85 0.930 . S
H76 C87 0.930 . S
H77 C89 0.931 . S
C78 H72 0.930 . S
C78 C79 1.380 . S
C78 C80 1.394 . S
C79 C78 1.380 . S
C79 C83 1.382 . S
C80 C78 1.394 . S
C80 C81 1.400 . S
C81 H73 0.931 . S
C81 C80 1.400 . S
C81 C82 1.375 . S
C82 C81 1.375 . S
C82 C83 1.415 . S
C82 C84 1.501 . S
C83 H74 0.931 1_554 S
C83 C79 1.382 . S
C83 C82 1.415 . S
C84 C82 1.501 . S
C84 C85 1.384 1_554 S
C84 C89 1.408 . S
C85 H75 0.930 . S
C85 C84 1.384 1_556 S
C85 C86 1.389 . S
C86 C85 1.389 . S
C86 C87 1.405 1_556 S
C87 H76 0.930 . S
C87 C86 1.405 1_554 S
C87 C88 1.364 . S
C88 C87 1.364 . S
C88 C89 1.400 . S
C89 H77 0.931 . S
C89 C84 1.408 . S
C89 C88 1.400 . S
H90 C96 0.930 . S
H91 C99 0.931 . S
H92 C101 0.931 . S
H93 C103 0.930 . S
H94 C105 0.930 . S
H95 C107 0.931 . S
C96 H90 0.930 . S
C96 C97 1.380 . S
C96 C98 1.394 . S
C97 C96 1.380 . S
C97 C101 1.382 . S
C98 C96 1.394 . S
C98 C99 1.400 . S
C99 H91 0.931 . S
C99 C98 1.400 . S
C99 C100 1.375 . S
C100 C99 1.375 . S
C100 C101 1.415 . S
C100 C102 1.501 . S
C101 H92 0.931 . S
C101 C97 1.382 . S
C101 C100 1.415 . S
C102 C100 1.501 . S
C102 C103 1.384 . S
C102 C107 1.408 . S
C103 H93 0.930 . S
C103 C102 1.384 . S
C103 C104 1.389 . S
C104 C103 1.389 . S
C104 C105 1.405 . S
C105 H94 0.930 . S
C105 C104 1.405 . S
C105 C106 1.364 . S
C106 C105 1.364 . S
C106 C107 1.400 . S
C107 H95 0.931 . S
C107 C102 1.408 . S
C107 C106 1.400 . S
C108 O120 1.241 . S
C108 O121 1.280 1_554 S
C109 O122 1.277 1_556 S
C109 O123 1.245 . S
C110 O134 1.247 . S
C110 O136 1.289 . S
Mg111 O112 1.926 . S
Mg111 O121 1.984 . S
Mg111 O123 1.988 1_655 S
Mg111 O124 2.061 . S
O112 Mg111 1.926 . S
O112 Mg113 1.986 1_656 S
O112 Mg114 1.917 1_655 S
Mg113 O112 1.986 1_454 S
Mg113 O120 2.042 1_455 S
Mg113 O122 2.041 . S
Mg113 O128 2.038 1_454 S
Mg113 O136 2.238 1_554 S
Mg114 O112 1.917 1_455 S
Mg114 O115 1.917 . S
Mg114 O125 2.106 1_455 S
Mg114 O127 2.079 1_455 S
Mg114 O136 2.106 . S
Mg114 O137 2.079 . S
O115 Mg114 1.917 . S
O115 Mg116 1.926 . S
O115 Mg117 1.986 . S
Mg116 O115 1.926 . S
Mg116 O130 1.984 . S
Mg116 O133 1.988 1_455 S
Mg116 O134 2.061 . S
Mg117 O115 1.986 . S
Mg117 O125 2.238 1_455 S
Mg117 O129 2.042 . S
Mg117 O131 2.041 1_455 S
Mg117 O138 2.038 . S
C118 O124 1.247 . S
C118 O125 1.289 . S
C119 O137 1.245 . S
C119 O138 1.274 . S
O120 C108 1.241 . S
O120 Mg113 2.042 1_655 S
O121 C108 1.280 1_556 S
O121 Mg111 1.984 . S
O122 C109 1.277 1_554 S
O122 Mg113 2.041 . S
O123 C109 1.245 . S
O123 Mg111 1.988 1_455 S
O124 Mg111 2.061 . S
O124 C118 1.247 . S
O125 Mg114 2.106 1_655 S
O125 Mg117 2.238 1_655 S
O125 C118 1.289 . S
C126 O127 1.245 . S
C126 O128 1.274 . S
O127 Mg114 2.079 1_655 S
O127 C126 1.245 . S
O128 Mg113 2.038 1_656 S
O128 C126 1.274 . S
O129 Mg117 2.042 . S
O129 C132 1.241 . S
O130 Mg116 1.984 . S
O130 C132 1.280 . S
O131 Mg117 2.041 1_655 S
O131 C135 1.277 . S
C132 O129 1.241 . S
C132 O130 1.280 . S
O133 Mg116 1.988 1_655 S
O133 C135 1.245 . S
O134 C110 1.247 . S
O134 Mg116 2.061 . S
C135 O131 1.277 . S
C135 O133 1.245 . S
O136 C110 1.289 . S
O136 Mg113 2.238 1_556 S
O136 Mg114 2.106 . S
O137 Mg114 2.079 . S
O137 C119 1.245 . S
O138 Mg117 2.038 . S
O138 C119 1.274 . S
C139 O151 1.241 . S
C139 O152 1.280 1_554 S
C140 O153 1.276 1_556 S
C140 O154 1.245 . S
C141 O165 1.247 . S
C141 O167 1.289 . S
Mg142 O143 1.926 . S
Mg142 O152 1.984 . S
Mg142 O154 1.988 1_545 S
Mg142 O155 2.061 . S
O143 Mg142 1.926 . S
O143 Mg144 1.986 1_556 S
O143 Mg145 1.917 . S
Mg144 O143 1.986 1_554 S
Mg144 O151 2.042 . S
Mg144 O153 2.041 1_545 S
Mg144 O159 2.038 . S
Mg144 O167 2.238 1_544 S
Mg145 O143 1.917 . S
Mg145 O146 1.917 1_545 S
Mg145 O156 2.106 . S
Mg145 O158 2.079 . S
Mg145 O167 2.106 1_545 S
Mg145 O168 2.079 1_545 S
O146 Mg145 1.917 1_565 S
O146 Mg147 1.926 . S
O146 Mg148 1.986 1_565 S
Mg147 O146 1.926 . S
Mg147 O161 1.984 . S
Mg147 O164 1.988 1_565 S
Mg147 O165 2.061 . S
Mg148 O146 1.986 1_545 S
Mg148 O156 2.238 . S
Mg148 O160 2.042 1_545 S
Mg148 O162 2.041 . S
Mg148 O169 2.038 1_545 S
C149 O155 1.247 . S
C149 O156 1.289 . S
C150 O168 1.245 . S
C150 O169 1.274 . S
O151 C139 1.241 . S
O151 Mg144 2.042 . S
O152 C139 1.280 1_556 S
O152 Mg142 1.984 . S
O153 C140 1.276 1_554 S
O153 Mg144 2.041 1_565 S
O154 C140 1.245 . S
O154 Mg142 1.988 1_565 S
O155 Mg142 2.061 . S
O155 C149 1.247 . S
O156 Mg145 2.106 . S
O156 Mg148 2.238 . S
O156 C149 1.289 . S
C157 O158 1.245 . S
C157 O159 1.274 1_556 S
O158 Mg145 2.079 . S
O158 C157 1.245 . S
O159 Mg144 2.038 . S
O159 C157 1.274 1_554 S
O160 Mg148 2.042 1_565 S
O160 C163 1.241 . S
O161 Mg147 1.984 . S
O161 C163 1.280 . S
O162 Mg148 2.041 . S
O162 C166 1.277 . S
C163 O160 1.241 . S
C163 O161 1.280 . S
O164 Mg147 1.988 1_545 S
O164 C166 1.245 . S
O165 C141 1.247 . S
O165 Mg147 2.061 . S
C166 O162 1.277 . S
C166 O164 1.245 . S
O167 C141 1.289 . S
O167 Mg144 2.238 1_566 S
O167 Mg145 2.106 1_565 S
O168 Mg145 2.079 1_565 S
O168 C150 1.245 . S
O169 Mg148 2.038 1_565 S
O169 C150 1.274 . S
C170 O182 1.241 . S
C170 O183 1.280 . S
C171 O184 1.277 . S
C171 O185 1.245 . S
C172 O196 1.247 . S
C172 O198 1.289 . S
Mg173 O174 1.926 . S
Mg173 O183 1.984 . S
Mg173 O185 1.988 . S
Mg173 O186 2.061 . S
O174 Mg173 1.926 . S
O174 Mg175 1.986 . S
O174 Mg176 1.917 . S
Mg175 O174 1.986 . S
Mg175 O182 2.042 . S
Mg175 O184 2.041 . S
Mg175 O190 2.038 . S
Mg175 O198 2.238 . S
Mg176 O174 1.917 . S
Mg176 O177 1.917 . S
Mg176 O187 2.106 . S
Mg176 O189 2.079 . S
Mg176 O198 2.106 . S
Mg176 O199 2.079 . S
O177 Mg176 1.917 . S
O177 Mg178 1.926 . S
O177 Mg179 1.986 1_556 S
Mg178 O177 1.926 . S
Mg178 O192 1.984 . S
Mg178 O195 1.988 . S
Mg178 O196 2.061 . S
Mg179 O177 1.986 1_554 S
Mg179 O187 2.238 1_554 S
Mg179 O191 2.042 . S
Mg179 O193 2.041 . S
Mg179 O200 2.038 1_554 S
C180 O186 1.247 . S
C180 O187 1.289 . S
C181 O199 1.245 . S
C181 O200 1.274 . S
O182 C170 1.241 . S
O182 Mg175 2.042 . S
O183 C170 1.280 . S
O183 Mg173 1.984 . S
O184 C171 1.277 . S
O184 Mg175 2.041 . S
O185 C171 1.245 . S
O185 Mg173 1.988 . S
O186 Mg173 2.061 . S
O186 C180 1.247 . S
O187 Mg176 2.106 . S
O187 Mg179 2.238 1_556 S
O187 C180 1.289 . S
C188 O189 1.245 . S
C188 O190 1.274 . S
O189 Mg176 2.079 . S
O189 C188 1.245 . S
O190 Mg175 2.038 . S
O190 C188 1.274 . S
O191 Mg179 2.042 . S
O191 C194 1.241 . S
O192 Mg178 1.984 . S
O192 C194 1.280 1_556 S
O193 Mg179 2.041 . S
O193 C197 1.277 1_554 S
C194 O191 1.241 . S
C194 O192 1.280 1_554 S
O195 Mg178 1.988 . S
O195 C197 1.245 . S
O196 C172 1.247 . S
O196 Mg178 2.061 . S
C197 O193 1.277 1_556 S
C197 O195 1.245 . S
O198 C172 1.289 . S
O198 Mg175 2.238 . S
O198 Mg176 2.106 . S
O199 Mg176 2.079 . S
O199 C181 1.245 . S
O200 Mg179 2.038 1_556 S
O200 C181 1.274 . S
C16 C119 2.151 . S
C26 C166 1.445 . S
C170 C52 1.718 . S
C135 C62 1.406 . S
C80 C150 2.210 . S
C172 C98 1.127 . S
C141 C43 1.761 . S
C68 C181 1.580 . S
C110 C86 1.727 . S
C104 C139 1.210 . S
C7 C197 1.941 1_554 S
C108 C32 1.360 . S
C126 C61 2.074 . S
C140 C79 1.451 1_556 S
C194 C97 1.687 . S
C109 C14 1.434 1_556 S
C157 C25 2.059 1_556 S
C50 C180 1.067 . S
C149 C106 1.709 . S
C188 C8 1.384 . S
C118 C34 1.605 . S
C163 C44 1.157 . S
C70 C171 1.936 . S
C88 C132 1.277 . S
