# Generated by pormake.
# Topology anh, (6,3)-cn, num edge types: 1
# Building blocks:
#     Node 0, Type 0, BuildingBlock: PAMTUU_clean_sbu_0, # of connection points: 6
#     Node 1, Type 0, BuildingBlock: PAMTUU_clean_sbu_0, # of connection points: 6
#     Node 2, Type 0, BuildingBlock: PAMTUU_clean_sbu_0, # of connection points: 6
#     Node 3, Type 1, BuildingBlock: BETDIP_clean_linker_0, # of connection points: 3
#     Node 4, Type 1, BuildingBlock: BETDIP_clean_linker_0, # of connection points: 3
#     Node 5, Type 1, BuildingBlock: BETDIP_clean_linker_0, # of connection points: 3
#     Node 6, Type 1, BuildingBlock: BETDIP_clean_linker_0, # of connection points: 3
#     Node 7, Type 1, BuildingBlock: BETDIP_clean_linker_0, # of connection points: 3
#     Node 8, Type 1, BuildingBlock: BETDIP_clean_linker_0, # of connection points: 3
#     Edge 9, Type (0, 1), None
#     Edge 10, Type (0, 1), None
#     Edge 11, Type (0, 1), None
#     Edge 12, Type (0, 1), None
#     Edge 13, Type (0, 1), None
#     Edge 14, Type (0, 1), None
#     Edge 15, Type (0, 1), None
#     Edge 16, Type (0, 1), None
#     Edge 17, Type (0, 1), None
#     Edge 18, Type (0, 1), None
#     Edge 19, Type (0, 1), None
#     Edge 20, Type (0, 1), None
#     Edge 21, Type (0, 1), None
#     Edge 22, Type (0, 1), None
#     Edge 23, Type (0, 1), None
#     Edge 24, Type (0, 1), None
#     Edge 25, Type (0, 1), None
#     Edge 26, Type (0, 1), None
# Relax obj value: 0.783
# Max RMSD: 0.230
# Mean RMSD: 0.167
data_MOF--net-anh--node1-PAMTUU_clean_sbu_0--node2-BETDIP_clean_linker_0--edge1-none
_symmetry_space_group_name_H-M    P1
_symmetry_Int_Tables_number       1
_symmetry_cell_setting            triclinic
loop_
_symmetry_equiv_pos_as_xyz
'x, y, z'
_cell_length_a     13.66202
_cell_length_b     13.645709
_cell_length_c     22.75973
_cell_angle_alpha  93.369695
_cell_angle_beta   95.347943
_cell_angle_gamma 122.50284
loop_
_atom_site_label
_atom_site_type_symbol
_atom_site_fract_x
_atom_site_fract_y
_atom_site_fract_z
_atom_type_partial_charge
Tb0 Tb 1.25662 0.82451 0.18309 0.0
Tb1 Tb 0.42978 0.76568 0.14915 0.0
C2 C 1.27354 0.77211 0.04583 0.0
C3 C 0.97587 0.71897 0.22023 0.0
C4 C 0.74261 0.53035 0.20229 0.0
C5 C 0.82392 0.5228 0.17294 0.0
C6 C 0.93588 0.62219 0.17718 0.0
C7 C 0.90279 0.7092 0.26228 0.0
C8 C 0.7843 0.61473 0.25276 0.0
C9 C 1.09035 0.82838 0.21794 0.0
O10 O 1.14825 0.63355 0.15676 0.0
O11 O 1.28793 0.5952 0.17652 0.0
O12 O 0.48812 0.83168 0.24137 0.0
O13 O 1.30413 0.75851 0.25873 0.0
O14 O 0.53747 0.78001 0.08601 0.0
O15 O 0.55028 0.71826 0.17136 0.0
O16 O 0.52287 0.9581 0.14922 0.0
O17 O 0.42836 0.9938 0.21442 0.0
O18 O 1.26265 0.84117 0.08493 0.0
O19 O 1.31162 0.70913 0.06621 0.0
C20 C 1.17551 0.55964 0.1722 0.0
O21 O 1.17707 0.84266 0.25443 0.0
O22 O 1.11944 0.85127 0.16496 0.0
C23 C 0.41179 0.79051 0.27744 0.0
C24 C 0.72048 0.88895 0.1482 0.0
C25 C 0.93958 0.95075 0.14138 0.0
C26 C 0.90867 0.94461 0.19911 0.0
C27 C 0.79049 0.90427 0.20214 0.0
C28 C 0.77828 0.96194 0.10514 0.0
C29 C 0.89851 1.0082 0.10778 0.0
C30 C 0.60581 0.77796 0.12937 0.0
C31 C 0.52554 1.03083 0.19073 0.0
H32 H 0.79378 0.45629 0.13506 0.0
H33 H 0.98167 0.62934 0.14021 0.0
H34 H 0.93236 0.78039 0.29739 0.0
H35 H 0.72311 0.61966 0.27782 0.0
H36 H 0.95922 0.93605 0.23546 0.0
H37 H 0.75168 0.86244 0.24015 0.0
H38 H 0.73051 0.96724 0.06604 0.0
H39 H 0.94272 1.05317 0.07194 0.0
Tb40 Tb 0.6986 0.25385 0.50435 0.0
Tb41 Tb 0.97614 0.39543 0.50126 0.0
C42 C 0.8001 0.29119 0.3787 0.0
C43 C 0.42618 1.02131 0.53803 0.0
C44 C 0.39942 0.81416 0.49381 0.0
C45 C 1.30309 0.82654 0.48461 0.0
C46 C 1.3188 0.93358 0.50469 0.0
C47 C 0.49845 0.98809 0.56575 0.0
C48 C 0.48715 0.88514 0.54237 0.0
C49 C 0.48629 1.13844 0.51874 0.0
O50 O 0.72916 1.10997 0.50089 0.0
O51 O 0.92988 1.21001 0.50549 0.0
O52 O 0.94249 0.41336 0.59047 0.0
O53 O 0.78105 0.23275 0.5849 0.0
O54 O 1.13364 0.43143 0.54832 0.0
O55 O 1.13278 0.51556 0.4706 0.0
O56 O 0.9452 0.54236 0.50988 0.0
O57 O 0.75582 0.43912 0.52997 0.0
O58 O 0.71176 0.26568 0.40829 0.0
O59 O 0.9067 0.33472 0.40667 0.0
C60 C 0.8266 1.11015 0.50466 0.0
O61 O 0.56924 0.22364 0.55771 0.0
O62 O 0.52146 1.14096 0.46708 0.0
C63 C 0.87767 0.32026 0.61534 0.0
C64 C 1.28234 0.47717 0.49006 0.0
C65 C 0.48059 0.49941 0.45151 0.0
C66 C 0.47458 0.50731 0.51251 0.0
C67 C 0.37595 0.49761 0.53174 0.0
C68 C 1.28121 0.45057 0.42938 0.0
C69 C 0.38011 0.46109 0.41021 0.0
C70 C 1.1955 0.49818 0.51037 0.0
C71 C 0.85305 0.54077 0.52604 0.0
H72 H 1.22704 0.76594 0.45206 0.0
H73 H 1.25763 0.9544 0.48535 0.0
H74 H 0.57767 1.05137 0.59571 0.0
H75 H 0.55892 0.87456 0.55505 0.0
H76 H 0.55151 0.53684 0.54487 0.0
H77 H 0.37731 0.51639 0.57885 0.0
H78 H 1.20878 0.43187 0.39647 0.0
H79 H 0.38351 0.45393 0.36287 0.0
Tb80 Tb 0.73856 0.63295 0.81921 0.0
Tb81 Tb 0.92403 0.90457 0.8409 0.0
C82 C 0.8426 0.76687 0.7082 0.0
C83 C 0.6005 0.32721 0.82754 0.0
C84 C 0.80967 0.37448 0.79681 0.0
C85 C 0.70242 0.28969 0.76011 0.0
C86 C 0.59595 0.25686 0.77897 0.0
C87 C 0.69686 0.37188 0.87285 0.0
C88 C 0.80505 0.40434 0.85608 0.0
C89 C 0.58317 0.41821 0.80846 0.0
O90 O 0.91414 0.65171 0.85015 0.0
O91 O 1.04345 0.84181 0.83752 0.0
O92 O 0.86402 0.83802 0.92391 0.0
O93 O 0.82002 0.6532 0.90706 0.0
O94 O 0.9992 1.08275 0.83233 0.0
O95 O 1.08396 1.02826 0.89478 0.0
O96 O 0.75824 0.89593 0.85568 0.0
O97 O 0.62179 0.70039 0.83058 0.0
O98 O 0.78805 0.66769 0.73084 0.0
O99 O 0.89041 0.86868 0.74212 0.0
C100 C 1.02579 0.74182 0.85133 0.0
O101 O 0.5941 0.49315 0.85101 0.0
O102 O 0.64316 0.47131 0.76612 0.0
C103 C 0.8507 0.74413 0.94362 0.0
C104 C 1.06644 1.18171 0.92901 0.0
C105 C 0.88325 1.20818 0.91359 0.0
C106 C 0.99715 0.30819 0.91646 0.0
C107 C 1.09047 0.29255 0.91993 0.0
C108 C 0.96951 1.11216 0.958 0.0
C109 C 0.8723 1.12055 0.94668 0.0
C110 C 1.07723 1.1153 0.87977 0.0
C111 C 0.64636 0.80597 0.84886 0.0
H112 H 0.69943 0.2523 0.71632 0.0
H113 H 0.51642 1.20529 0.74707 0.0
H114 H 0.69599 0.40866 0.91611 0.0
H115 H 0.8843 0.45739 0.88795 0.0
H116 H 1.01165 0.39082 0.90638 0.0
H117 H 1.17153 0.35702 0.90505 0.0
H118 H 0.95631 1.03368 0.97366 0.0
H119 H 0.78692 1.04736 0.95275 0.0
H120 H 0.72588 1.18583 0.13824 0.0
H121 H 0.95787 0.39786 0.29951 0.0
H122 H 0.59632 1.12696 0.307 0.0
H123 H 0.99869 0.40922 0.16517 0.0
C124 C 1.08075 0.4422 0.19098 0.0
C125 C 0.74012 1.20824 0.18603 0.0
C126 C 0.64428 1.14241 0.21868 0.0
C127 C 0.85476 0.30266 0.21441 0.0
C128 C 0.87217 0.32766 0.27722 0.0
C129 C 0.77884 0.2661 0.31122 0.0
C130 C 0.66622 1.17614 0.28103 0.0
N131 N 0.9496 0.3779 0.17749 0.0
H132 H 0.88539 0.74333 0.47342 0.0
H133 H 0.86078 0.92073 0.62989 0.0
H134 H 0.83948 0.59517 0.63887 0.0
H135 H 0.87702 0.9833 0.50185 0.0
C136 C 0.81297 0.99434 0.51853 0.0
C137 C 0.87626 0.74755 0.52007 0.0
C138 C 0.86276 0.65415 0.55254 0.0
C139 C 0.87197 0.84374 0.54726 0.0
C140 C 0.86125 0.848 0.60847 0.0
C141 C 0.85208 0.76056 0.64238 0.0
C142 C 0.84966 0.66383 0.61331 0.0
N143 N 0.88297 0.94086 0.51342 0.0
H144 H 1.2146 0.73899 0.80368 0.0
H145 H 0.42141 0.78421 0.97081 0.0
H146 H 1.09002 0.75416 0.97036 0.0
H147 H 0.58714 0.90143 0.90427 0.0
C148 C 0.55109 0.82511 0.87137 0.0
C149 C 1.22632 0.74755 0.85181 0.0
C150 C 1.13497 0.74351 0.88225 0.0
C151 C 0.33342 0.76399 0.88318 0.0
C152 C 0.34464 0.77522 0.94618 0.0
C153 C 1.25782 0.77132 -0.02166 0.0
C154 C 1.15528 0.75636 0.9458 0.0
N155 N 0.42265 0.7595 0.85215 0.0
H156 H 0.54636 0.73178 0.49317 0.0
H157 H 0.56331 0.72408 0.30609 0.0
H158 H 0.33521 0.80951 0.37656 0.0
H159 H 0.66163 0.54694 0.44457 0.0
C160 C 0.59652 0.5672 0.43206 0.0
C161 C 0.51523 0.73954 0.44937 0.0
C162 C 0.43164 0.77024 0.44209 0.0
C163 C 0.55922 0.71828 0.39986 0.0
C164 C 0.52738 0.73791 0.34388 0.0
C165 C 0.44469 0.76872 0.33598 0.0
C166 C 0.39517 0.78123 0.38425 0.0
N167 N 0.62979 0.67046 0.40498 0.0
H168 H 1.06408 0.39484 0.79682 0.0
H169 H 0.83825 1.13774 0.68055 0.0
H170 H 0.91675 0.48842 0.69757 0.0
H171 H 0.70517 1.11282 0.8653 0.0
C172 C 0.79623 1.16798 0.85873 0.0
C173 C 0.9702 0.35079 0.79689 0.0
C174 C 0.92426 0.41388 0.77706 0.0
C175 C 0.90638 0.23526 0.76988 0.0
C176 C 0.88351 0.22334 0.70665 0.0
C177 C 0.90334 0.32337 0.6794 0.0
C178 C 0.92757 0.42307 0.71639 0.0
N179 N 0.82216 1.14672 0.80108 0.0
H180 H 0.7826 0.72603 0.16608 0.0
H181 H 0.69711 0.55228 -0.00818 0.0
H182 H 0.98997 0.91177 0.03333 0.0
H183 H 0.60467 0.46107 0.11801 0.0
C184 C 0.63288 0.49802 0.16431 0.0
C185 C 0.80727 0.72823 0.12297 0.0
C186 C 0.89941 0.83415 0.10653 0.0
C187 C 0.73608 0.62576 0.08304 0.0
C188 C 0.75585 0.62874 0.02414 0.0
C189 C 0.84678 0.73267 0.00649 0.0
C190 C 0.92236 0.83179 0.04811 0.0
N191 N 0.64083 0.5183 0.10226 0.0
loop_
_geom_bond_atom_site_label_1
_geom_bond_atom_site_label_2
_geom_bond_distance
_geom_bond_site_symmetry_2
_ccdc_geom_bond_type
Tb0 C9 2.764 1_455 S
Tb0 O10 2.325 1_455 S
Tb0 O13 2.303 . S
Tb0 O17 2.322 . S
Tb0 O18 2.349 . S
Tb0 O21 2.415 1_455 S
Tb0 O22 2.399 1_455 S
Tb1 O11 2.322 1_455 S
Tb1 O12 2.349 . S
Tb1 O14 2.415 . S
Tb1 O15 2.399 . S
Tb1 O16 2.325 . S
Tb1 O19 2.303 . S
Tb1 C30 2.764 . S
C2 O18 1.261 . S
C2 O19 1.257 . S
C3 C6 1.358 . S
C3 C7 1.332 . S
C3 C9 1.504 . S
C4 C5 1.373 . S
C4 C8 1.308 . S
C5 C4 1.373 . S
C5 C6 1.429 . S
C5 H32 0.932 . S
C6 C3 1.358 . S
C6 C5 1.429 . S
C6 H33 0.930 . S
C7 C3 1.332 . S
C7 C8 1.394 . S
C7 H34 0.932 . S
C8 C4 1.308 . S
C8 C7 1.394 . S
C8 H35 0.929 . S
C9 Tb0 2.764 1_655 S
C9 C3 1.504 . S
C9 O21 1.239 . S
C9 O22 1.263 . S
O10 Tb0 2.325 1_655 S
O10 C20 1.236 . S
O11 Tb1 2.322 1_655 S
O11 C20 1.257 . S
O12 Tb1 2.349 . S
O12 C23 1.261 . S
O13 Tb0 2.303 . S
O13 C23 1.257 . S
O14 Tb1 2.415 . S
O14 C30 1.239 . S
O15 Tb1 2.399 . S
O15 C30 1.263 . S
O16 Tb1 2.325 . S
O16 C31 1.236 . S
O17 Tb0 2.322 . S
O17 C31 1.257 . S
O18 Tb0 2.349 . S
O18 C2 1.261 . S
O19 Tb1 2.303 . S
O19 C2 1.257 . S
C20 O10 1.236 . S
C20 O11 1.257 . S
O21 Tb0 2.415 1_655 S
O21 C9 1.239 . S
O22 Tb0 2.399 1_655 S
O22 C9 1.263 . S
C23 O12 1.261 . S
C23 O13 1.257 . S
C24 C27 1.358 . S
C24 C28 1.332 . S
C24 C30 1.504 . S
C25 C26 1.373 . S
C25 C29 1.308 . S
C26 C25 1.373 . S
C26 C27 1.429 . S
C26 H36 0.932 . S
C27 C24 1.358 . S
C27 C26 1.429 . S
C27 H37 0.930 . S
C28 C24 1.332 . S
C28 C29 1.394 . S
C28 H38 0.932 . S
C29 C25 1.308 . S
C29 C28 1.394 . S
C29 H39 0.929 . S
C30 Tb1 2.764 . S
C30 O14 1.239 . S
C30 O15 1.263 . S
C30 C24 1.504 . S
C31 O16 1.236 . S
C31 O17 1.257 . S
H32 C5 0.932 . S
H33 C6 0.930 . S
H34 C7 0.932 . S
H35 C8 0.929 . S
H36 C26 0.932 . S
H37 C27 0.930 . S
H38 C28 0.932 . S
H39 C29 0.929 . S
Tb40 C49 2.764 1_545 S
Tb40 O50 2.325 1_545 S
Tb40 O53 2.303 . S
Tb40 O57 2.322 . S
Tb40 O58 2.349 . S
Tb40 O61 2.415 1_545 S
Tb40 O62 2.399 1_545 S
Tb41 O51 2.322 1_545 S
Tb41 O52 2.349 . S
Tb41 O54 2.415 . S
Tb41 O55 2.399 . S
Tb41 O56 2.325 . S
Tb41 O59 2.303 . S
Tb41 C70 2.764 . S
C42 O58 1.261 . S
C42 O59 1.257 . S
C43 C46 1.358 . S
C43 C47 1.332 . S
C43 C49 1.504 . S
C44 C45 1.373 . S
C44 C48 1.308 . S
C45 C44 1.373 . S
C45 C46 1.429 . S
C45 H72 0.932 . S
C46 C43 1.358 . S
C46 C45 1.429 . S
C46 H73 0.930 . S
C47 C43 1.332 . S
C47 C48 1.394 . S
C47 H74 0.932 . S
C48 C44 1.308 . S
C48 C47 1.394 . S
C48 H75 0.929 . S
C49 Tb40 2.764 1_565 S
C49 C43 1.504 . S
C49 O61 1.239 . S
C49 O62 1.263 . S
O50 Tb40 2.325 1_565 S
O50 C60 1.236 . S
O51 Tb41 2.322 1_565 S
O51 C60 1.257 . S
O52 Tb41 2.349 . S
O52 C63 1.261 . S
O53 Tb40 2.303 . S
O53 C63 1.257 . S
O54 Tb41 2.415 . S
O54 C70 1.239 . S
O55 Tb41 2.399 . S
O55 C70 1.263 . S
O56 Tb41 2.325 . S
O56 C71 1.236 . S
O57 Tb40 2.322 . S
O57 C71 1.257 . S
O58 Tb40 2.349 . S
O58 C42 1.261 . S
O59 Tb41 2.303 . S
O59 C42 1.257 . S
C60 O50 1.236 . S
C60 O51 1.257 . S
O61 Tb40 2.415 1_565 S
O61 C49 1.239 . S
O62 Tb40 2.399 1_565 S
O62 C49 1.263 . S
C63 O52 1.261 . S
C63 O53 1.257 . S
C64 C67 1.358 . S
C64 C68 1.332 . S
C64 C70 1.504 . S
C65 C66 1.373 . S
C65 C69 1.308 . S
C66 C65 1.373 . S
C66 C67 1.429 . S
C66 H76 0.937 . S
C67 C64 1.358 . S
C67 C66 1.429 . S
C67 H77 0.930 . S
C68 C64 1.332 . S
C68 C69 1.394 . S
C68 H78 0.932 . S
C69 C65 1.308 . S
C69 C68 1.394 . S
C69 H79 0.929 . S
C70 Tb41 2.764 . S
C70 O54 1.239 . S
C70 O55 1.263 . S
C70 C64 1.504 . S
C71 O56 1.236 . S
C71 O57 1.257 . S
H72 C45 0.932 . S
H73 C46 0.930 . S
H74 C47 0.932 . S
H75 C48 0.929 . S
H76 C66 0.937 . S
H77 C67 0.930 . S
H78 C68 0.932 . S
H79 C69 0.929 . S
Tb80 C89 2.764 . S
Tb80 O90 2.325 . S
Tb80 O93 2.303 . S
Tb80 O97 2.322 . S
Tb80 O98 2.349 . S
Tb80 O101 2.415 . S
Tb80 O102 2.399 . S
Tb81 O91 2.322 . S
Tb81 O92 2.349 1_556 S
Tb81 O94 2.415 . S
Tb81 O95 2.399 . S
Tb81 O96 2.325 . S
Tb81 O99 2.303 . S
Tb81 C110 2.764 . S
C82 O98 1.261 . S
C82 O99 1.257 . S
C83 C86 1.358 . S
C83 C87 1.332 . S
C83 C89 1.504 . S
C84 C85 1.373 . S
C84 C88 1.308 . S
C85 C84 1.373 . S
C85 C86 1.429 . S
C85 H112 0.932 . S
C86 C83 1.358 . S
C86 C85 1.429 . S
C86 H113 0.930 . S
C87 C83 1.332 . S
C87 C88 1.394 . S
C87 H114 0.932 . S
C88 C84 1.308 . S
C88 C87 1.394 . S
C88 H115 0.929 . S
C89 Tb80 2.764 . S
C89 C83 1.504 . S
C89 O101 1.239 . S
C89 O102 1.263 . S
O90 Tb80 2.325 . S
O90 C100 1.236 . S
O91 Tb81 2.322 . S
O91 C100 1.257 . S
O92 Tb81 2.349 1_554 S
O92 C103 1.261 . S
O93 Tb80 2.303 . S
O93 C103 1.257 1_556 S
O94 Tb81 2.415 . S
O94 C110 1.239 . S
O95 Tb81 2.399 . S
O95 C110 1.263 . S
O96 Tb81 2.325 . S
O96 C111 1.236 . S
O97 Tb80 2.322 . S
O97 C111 1.257 . S
O98 Tb80 2.349 . S
O98 C82 1.261 . S
O99 Tb81 2.303 . S
O99 C82 1.257 . S
C100 O90 1.236 . S
C100 O91 1.257 . S
O101 Tb80 2.415 . S
O101 C89 1.239 . S
O102 Tb80 2.399 . S
O102 C89 1.263 . S
C103 O92 1.261 . S
C103 O93 1.257 1_554 S
C104 C107 1.358 . S
C104 C108 1.332 . S
C104 C110 1.504 . S
C105 C106 1.372 1_545 S
C105 C109 1.306 1_545 S
C106 C105 1.372 1_565 S
C106 C107 1.429 . S
C106 H116 0.932 1_566 S
C107 C104 1.358 . S
C107 C106 1.429 . S
C107 H117 0.930 1_556 S
C108 C104 1.332 . S
C108 C109 1.394 . S
C108 H118 0.932 . S
C109 C105 1.306 1_565 S
C109 C108 1.394 . S
C109 H119 0.929 . S
C110 Tb81 2.764 . S
C110 O94 1.239 . S
C110 O95 1.263 . S
C110 C104 1.504 . S
C111 O96 1.236 . S
C111 O97 1.257 . S
H112 C85 0.932 . S
H113 C86 0.930 . S
H114 C87 0.932 . S
H115 C88 0.929 . S
H116 C106 0.932 1_544 S
H117 C107 0.930 1_554 S
H118 C108 0.932 . S
H119 C109 0.929 . S
H120 C125 0.930 . S
H121 C128 0.930 . S
H122 C130 0.930 . S
H123 C124 1.016 . S
C124 H123 1.016 . S
C124 N131 1.286 . S
C125 H120 0.930 . S
C125 C126 1.397 . S
C125 C127 1.361 1_565 S
C126 C125 1.397 . S
C126 C130 1.390 . S
C127 C125 1.361 1_545 S
C127 C128 1.393 . S
C127 N131 1.413 . S
C128 H121 0.930 . S
C128 C127 1.393 . S
C128 C129 1.399 . S
C129 C128 1.399 . S
C129 C130 1.381 1_545 S
C130 H122 0.930 . S
C130 C126 1.390 . S
C130 C129 1.381 1_565 S
N131 C124 1.286 . S
N131 C127 1.413 . S
H132 C137 0.930 . S
H133 C140 0.930 . S
H134 C142 0.930 . S
H135 C136 1.016 . S
C136 H135 1.016 . S
C136 N143 1.286 . S
C137 H132 0.930 . S
C137 C138 1.397 . S
C137 C139 1.361 . S
C138 C137 1.397 . S
C138 C142 1.390 . S
C139 C137 1.361 . S
C139 C140 1.393 . S
C139 N143 1.413 . S
C140 H133 0.930 . S
C140 C139 1.393 . S
C140 C141 1.399 . S
C141 C140 1.399 . S
C141 C142 1.381 . S
C142 H134 0.930 . S
C142 C138 1.390 . S
C142 C141 1.381 . S
N143 C136 1.286 . S
N143 C139 1.413 . S
H144 C149 0.930 . S
H145 C152 0.930 . S
H146 C154 0.930 1_554 S
H147 C148 1.016 . S
C148 H147 1.016 . S
C148 N155 1.286 . S
C149 H144 0.930 . S
C149 C150 1.397 . S
C149 C151 1.361 1_655 S
C150 C149 1.397 . S
C150 C154 1.390 . S
C151 C149 1.361 1_455 S
C151 C152 1.393 . S
C151 N155 1.413 . S
C152 H145 0.930 . S
C152 C151 1.393 . S
C152 C153 1.399 1_556 S
C153 C152 1.399 1_554 S
C153 C154 1.381 1_454 S
C154 H146 0.930 1_556 S
C154 C150 1.390 . S
C154 C153 1.381 1_656 S
N155 C148 1.286 . S
N155 C151 1.413 . S
H156 C161 0.930 . S
H157 C164 0.930 . S
H158 C166 0.930 . S
H159 C160 1.016 . S
C160 H159 1.016 . S
C160 N167 1.286 . S
C161 H156 0.930 . S
C161 C162 1.397 . S
C161 C163 1.361 1_455 S
C162 C161 1.397 . S
C162 C166 1.390 . S
C163 C161 1.361 1_655 S
C163 C164 1.393 . S
C163 N167 1.413 . S
C164 H157 0.930 . S
C164 C163 1.393 . S
C164 C165 1.399 1_655 S
C165 C164 1.399 1_455 S
C165 C166 1.381 . S
C166 H158 0.930 . S
C166 C162 1.390 . S
C166 C165 1.381 . S
N167 C160 1.286 . S
N167 C163 1.413 . S
H168 C173 0.930 . S
H169 C176 0.930 . S
H170 C178 0.930 . S
H171 C172 1.016 . S
C172 H171 1.016 . S
C172 N179 1.286 . S
C173 H168 0.930 . S
C173 C174 1.397 . S
C173 C175 1.361 1_545 S
C174 C173 1.397 . S
C174 C178 1.390 . S
C175 C173 1.361 1_565 S
C175 C176 1.393 . S
C175 N179 1.413 . S
C176 H169 0.930 . S
C176 C175 1.393 . S
C176 C177 1.399 1_565 S
C177 C176 1.399 1_545 S
C177 C178 1.381 . S
C178 H170 0.930 . S
C178 C174 1.390 . S
C178 C177 1.381 . S
N179 C172 1.286 . S
N179 C175 1.413 . S
H180 C185 0.930 . S
H181 C188 0.930 . S
H182 C190 0.930 . S
H183 C184 1.016 . S
C184 H183 1.016 . S
C184 N191 1.286 . S
C185 H180 0.930 . S
C185 C186 1.397 . S
C185 C187 1.361 . S
C186 C185 1.397 . S
C186 C190 1.390 1_554 S
C187 C185 1.361 . S
C187 C188 1.393 1_554 S
C187 N191 1.413 . S
C188 H181 0.930 . S
C188 C187 1.393 1_556 S
C188 C189 1.399 . S
C189 C188 1.399 . S
C189 C190 1.381 . S
C190 H182 0.930 . S
C190 C186 1.390 1_556 S
C190 C189 1.381 . S
N191 C184 1.286 . S
N191 C187 1.413 . S
C25 C186 3.525 . S
C65 C160 3.966 . S
C105 C172 4.199 1_545 S
C4 C184 3.716 . S
C162 C44 3.060 . S
C174 C84 2.877 . S
C60 C136 4.605 . S
C100 C150 5.052 . S
C31 C126 4.711 . S
C138 C71 4.735 . S
C148 C111 4.378 . S
C20 C124 4.647 . S
C153 C2 2.108 . S
C42 C129 2.012 . S
C82 C141 1.935 . S
C177 C63 1.186 . S
C189 C103 1.697 1_556 S
C23 C165 1.127 . S
