# Generated by pormake.
# Topology rtl, (3,6)-cn, num edge types: 1
# Building blocks:
#     Node 0, Type 0, BuildingBlock: QEWDON_clean_linker_0, # of connection points: 3
#     Node 1, Type 0, BuildingBlock: QEWDON_clean_linker_0, # of connection points: 3
#     Node 2, Type 0, BuildingBlock: QEWDON_clean_linker_0, # of connection points: 3
#     Node 3, Type 0, BuildingBlock: QEWDON_clean_linker_0, # of connection points: 3
#     Node 4, Type 1, BuildingBlock: LEVNOQ01_clean_sbu_1, # of connection points: 6
#     Node 5, Type 1, BuildingBlock: LEVNOQ01_clean_sbu_1, # of connection points: 6
#     Edge 6, Type (0, 1), BuildingBlock: AJUNOK_clean_linker_0, # of connection points: 2
#     Edge 7, Type (0, 1), BuildingBlock: AJUNOK_clean_linker_0, # of connection points: 2
#     Edge 8, Type (0, 1), BuildingBlock: AJUNOK_clean_linker_0, # of connection points: 2
#     Edge 9, Type (0, 1), BuildingBlock: AJUNOK_clean_linker_0, # of connection points: 2
#     Edge 10, Type (0, 1), BuildingBlock: AJUNOK_clean_linker_0, # of connection points: 2
#     Edge 11, Type (0, 1), BuildingBlock: AJUNOK_clean_linker_0, # of connection points: 2
#     Edge 12, Type (0, 1), BuildingBlock: AJUNOK_clean_linker_0, # of connection points: 2
#     Edge 13, Type (0, 1), BuildingBlock: AJUNOK_clean_linker_0, # of connection points: 2
#     Edge 14, Type (0, 1), BuildingBlock: AJUNOK_clean_linker_0, # of connection points: 2
#     Edge 15, Type (0, 1), BuildingBlock: AJUNOK_clean_linker_0, # of connection points: 2
#     Edge 16, Type (0, 1), BuildingBlock: AJUNOK_clean_linker_0, # of connection points: 2
#     Edge 17, Type (0, 1), BuildingBlock: AJUNOK_clean_linker_0, # of connection points: 2
# Relax obj value: 0.038
# Max RMSD: 0.167
# Mean RMSD: 0.132
data_MOF--net-rtl--node1-LEVNOQ01_clean_sbu_1--node2-QEWDON_clean_linker_0--edge1-AJUNOK_clean_linker_0
_symmetry_space_group_name_H-M    P1
_symmetry_Int_Tables_number       1
_symmetry_cell_setting            triclinic
loop_
_symmetry_equiv_pos_as_xyz
'x, y, z'
_cell_length_a     28.468567
_cell_length_b     27.996683
_cell_length_c     16.045749
_cell_angle_alpha  92.05126
_cell_angle_beta   102.10044
_cell_angle_gamma 90.491658
loop_
_atom_site_label
_atom_site_type_symbol
_atom_site_fract_x
_atom_site_fract_y
_atom_site_fract_z
_atom_type_partial_charge
H0 H 0.21258 0.86885 0.24825 0.0
C1 C 0.20121 0.87614 0.18118 0.0
C2 C 0.15725 0.89844 0.15274 0.0
C3 C 0.23101 0.86378 0.12443 0.0
H4 H 0.10873 0.9255 0.04421 0.0
C5 C 0.1419 0.90657 0.06565 0.0
C6 C 0.17046 0.89387 1.00701 0.0
C7 C 0.2153 0.87251 0.03694 0.0
C8 C 0.27961 0.84483 0.15922 0.0
H9 H 0.2385 0.86433 0.99292 0.0
C10 C 0.29712 0.80435 0.12166 0.0
C11 C 0.34205 0.78522 0.15902 0.0
C12 C 0.30821 0.86666 0.23328 0.0
H13 H 0.29607 0.89826 0.26303 0.0
C14 C 0.35284 0.84819 0.26967 0.0
H15 H 0.27536 0.78702 0.06492 0.0
C16 C 0.36969 0.80767 0.23305 0.0
H17 H 0.40479 0.7944 0.26171 0.0
H18 H 0.37453 0.86546 0.32642 0.0
H19 H 0.73501 0.72556 0.50289 0.0
C20 C 0.71212 0.71378 0.5445 0.0
C21 C 0.66671 0.6927 0.50881 0.0
C22 C 0.72881 0.71761 0.63391 0.0
H23 H 0.60551 0.6558 0.53737 0.0
C24 C 0.63867 0.67526 0.56384 0.0
C25 C 0.65408 0.67992 0.65269 0.0
C26 C 0.69888 0.70141 0.687 0.0
C27 C 0.77829 0.73558 0.67366 0.0
H28 H 0.71064 0.70523 0.75571 0.0
C29 C 0.79824 0.77685 0.64569 0.0
C30 C 0.84407 0.79468 0.68808 0.0
C31 C 0.80556 0.71154 0.74267 0.0
H32 H 0.79189 0.67916 0.76474 0.0
C33 C 0.85083 0.72874 0.78405 0.0
H34 H 0.77807 0.79506 0.59151 0.0
C35 C 0.86989 0.77009 0.75745 0.0
H36 H 0.90491 0.78299 0.79147 0.0
H37 H 0.8712 0.70997 0.83729 0.0
H38 H 0.78586 0.20762 0.08843 0.0
C39 C 0.80776 0.19846 0.04269 0.0
C40 C 0.85443 0.18062 0.07131 0.0
C41 C 0.78847 0.20261 0.9548 0.0
H42 H 0.91693 0.15287 0.03004 0.0
C43 C 0.88175 0.16829 0.01036 0.0
C44 C 0.86319 0.17327 0.92307 0.0
C45 C 0.81661 0.18989 0.89563 0.0
C46 C 0.73859 0.219 0.92342 0.0
H47 H 0.8026 0.19372 0.82799 0.0
C48 C 0.72169 0.26038 0.95896 0.0
C49 C 0.67488 0.27669 0.92683 0.0
C50 C 0.70808 0.19396 0.85525 0.0
H51 H 0.71999 0.16177 0.82699 0.0
C52 C 0.66179 0.21007 0.82305 0.0
H53 H 0.74537 0.28052 0.01013 0.0
C54 C 0.64525 0.25126 0.85832 0.0
H55 H 0.60904 0.26285 0.8329 0.0
H56 H 0.63861 0.19048 0.77065 0.0
H57 H 0.34768 0.30075 0.57224 0.0
C58 C 0.3605 0.32345 0.52817 0.0
C59 C 0.39046 0.36341 0.5599 0.0
C60 C 0.34873 0.31209 0.43964 0.0
H61 H 0.43261 0.42139 0.52674 0.0
C62 C 0.40881 0.39132 0.50251 0.0
C63 C 0.39676 0.38108 0.41446 0.0
C64 C 0.36541 0.34256 0.38381 0.0
C65 C 0.32173 0.26745 0.40315 0.0
H66 H 0.35426 0.33583 0.31556 0.0
C67 C 0.28071 0.25103 0.43083 0.0
C68 C 0.25412 0.21051 0.39006 0.0
C69 C 0.33679 0.24155 0.33675 0.0
H70 H 0.36886 0.25214 0.31536 0.0
C71 C 0.31081 0.20177 0.29664 0.0
H72 H 0.2696 0.26973 0.48352 0.0
C73 C 0.2696 0.18659 0.32236 0.0
H74 H 0.24983 0.15586 0.28921 0.0
H75 H 0.32264 0.18266 0.24511 0.0
O76 O 0.03267 0.13045 0.72076 0.0
Mg77 Mg 0.08356 0.09895 0.66252 0.0
O78 O 0.97769 0.08505 0.6376 0.0
Mg79 Mg 0.01628 0.04144 0.54208 0.0
O80 O 0.07695 0.10026 0.53314 0.0
O81 O 0.12536 0.14936 0.62982 0.0
O82 O 0.05262 0.99749 0.44623 0.0
O83 O 0.97024 0.08833 0.42967 0.0
Mg84 Mg 0.94482 0.99389 0.42672 0.0
O85 O 0.95833 0.97973 0.55336 0.0
O86 O 0.99164 0.96706 0.35149 0.0
O87 O 0.90152 0.05067 0.38533 0.0
O88 O 0.90218 0.94186 0.45123 0.0
C89 C 0.10226 1.00222 0.71017 0.0
C90 C 0.98954 0.11661 0.69812 0.0
C91 C 0.10992 0.13412 0.55205 0.0
C92 C 0.03646 0.9731 0.37729 0.0
C93 C 0.92721 0.08735 0.38505 0.0
C94 C 0.92347 0.9481 0.53005 0.0
O95 O 0.12261 0.04283 0.72301 0.0
O96 O 0.06357 0.99643 0.65306 0.0
O97 O 0.62593 0.57502 0.15523 0.0
Mg98 Mg 0.57972 0.51549 0.14099 0.0
O99 O 0.55195 0.59523 0.14685 0.0
Mg100 Mg 0.51482 0.53833 0.03032 0.0
O101 O 0.57268 0.47482 0.03115 0.0
O102 O 0.62246 0.4588 0.15474 0.0
O103 O 0.47937 0.48202 0.91603 0.0
O104 O 0.55422 0.57987 0.94038 0.0
Mg105 Mg 0.44558 0.5643 0.91193 0.0
O106 O 0.4543 0.59859 0.02893 0.0
O107 O 0.40416 0.50126 0.88385 0.0
O108 O 0.4926 0.58433 0.83271 0.0
O109 O 0.40025 0.61841 0.91209 0.0
C110 C 0.49098 0.49233 0.19653 0.0
C111 C 0.59675 0.60434 0.17552 0.0
C112 C 0.60508 0.44788 0.07572 0.0
C113 C 0.43622 0.47154 0.87781 0.0
C114 C 0.53672 0.59187 0.86431 0.0
C115 C 0.41918 0.62532 0.99186 0.0
O116 O 0.53396 0.50431 0.22933 0.0
O117 O 0.47524 0.49666 0.11713 0.0
C118 C 0.20647 0.14149 0.42741 0.0
C119 C 0.21152 0.19124 0.41935 0.0
C120 C 0.1692 0.12234 0.46143 0.0
C121 C 0.1357 0.15209 0.48898 0.0
H122 H 0.23304 0.11723 0.41173 0.0
H123 H 0.16901 0.08449 0.47293 0.0
S124 S 0.12839 0.28351 0.47192 0.0
N125 N 0.1758 0.26907 0.43264 0.0
N126 N 0.10707 0.23289 0.50018 0.0
C127 C 0.1385 0.20137 0.47707 0.0
C128 C 0.17609 0.22099 0.4415 0.0
C129 C 0.36208 0.74319 0.03165 0.0
C130 C 0.36131 0.74323 0.1188 0.0
C131 C 0.3815 0.70507 0.99216 0.0
C132 C 0.40113 0.66543 0.0382 0.0
H133 H 0.34815 0.77322 0.99379 0.0
H134 H 0.38139 0.70691 0.92479 0.0
S135 S 0.40403 0.64611 0.26641 0.0
N136 N 0.37932 0.69904 0.24932 0.0
N137 N 0.41646 0.6274 0.17474 0.0
C138 C 0.4004 0.66474 0.12534 0.0
C139 C 0.38029 0.7036 0.16568 0.0
C140 C 0.91445 0.83753 0.6509 0.0
C141 C 0.86606 0.83797 0.65924 0.0
C142 C 0.93499 0.87616 0.61704 0.0
C143 C 0.90795 0.91661 0.59076 0.0
H144 H 0.93597 0.8061 0.66654 0.0
H145 H 0.97111 0.87294 0.60594 0.0
S146 S 0.78231 0.93871 0.60867 0.0
N147 N 0.79364 0.88504 0.64686 0.0
N148 N 0.83199 0.95681 0.5807 0.0
C149 C 0.86062 0.91876 0.60295 0.0
C150 C 0.83972 0.87967 0.6378 0.0
C151 C 0.63349 0.35594 0.91335 0.0
C152 C 0.65663 0.3199 0.96527 0.0
C153 C 0.6163 0.39711 0.94902 0.0
C154 C 0.62186 0.40373 0.03788 0.0
H155 H 0.62923 0.35259 0.8447 0.0
H156 H 0.59925 0.42417 0.90681 0.0
S157 S 0.67506 0.31718 0.20069 0.0
N158 N 0.68058 0.29168 0.10904 0.0
N159 N 0.64908 0.36876 0.17646 0.0
C160 C 0.64387 0.36723 0.09018 0.0
C161 C 0.6611 0.32545 0.05382 0.0
C162 C 0.07862 0.90551 0.19766 0.0
C163 C 0.12815 0.91562 0.21419 0.0
C164 C 0.04977 0.92347 0.25183 0.0
C165 C 0.06918 0.95251 0.32483 0.0
H166 H 0.06192 0.88368 0.14204 0.0
H167 H 0.01172 0.91482 0.23545 0.0
S168 S 0.19732 0.98956 0.39612 0.0
N169 N 0.1957 0.95662 0.30814 0.0
N170 N 0.14165 0.98992 0.41098 0.0
C171 C 0.11896 0.96227 0.34285 0.0
C172 C 0.14837 0.94395 0.28736 0.0
C173 C 0.64491 0.63109 0.77724 0.0
C174 C 0.62421 0.65999 0.70944 0.0
C175 C 0.6167 0.60974 0.82826 0.0
C176 C 0.56671 0.61616 0.81276 0.0
H177 H 0.68304 0.62397 0.78971 0.0
H178 H 0.63398 0.58715 0.87877 0.0
S179 S 0.49597 0.69293 0.64924 0.0
N180 N 0.55149 0.69725 0.63462 0.0
N181 N 0.49833 0.65656 0.72866 0.0
C182 C 0.54587 0.64612 0.74669 0.0
C183 C 0.57462 0.66813 0.69551 0.0
C184 C 0.84162 0.14422 0.20525 0.0
C185 C 0.87241 0.16848 0.16249 0.0
C186 C 0.85941 0.12228 0.28234 0.0
C187 C 0.90888 0.12315 0.32002 0.0
H188 H 0.80396 0.1389 0.17607 0.0
H189 H 0.8344 0.10155 0.30945 0.0
S190 S 0.00313 0.19112 0.24409 0.0
N191 N 0.95359 0.19966 0.17183 0.0
N192 N 0.98723 0.15686 0.31558 0.0
C193 C 0.93939 0.15139 0.28279 0.0
C194 C 0.92114 0.17422 0.20419 0.0
C195 C 0.45034 0.38938 0.69234 0.0
C196 C 0.40232 0.3784 0.6521 0.0
C197 C 0.46165 0.41566 0.7704 0.0
C198 C 0.42526 0.43247 0.81074 0.0
H199 H 0.47922 0.38019 0.66047 0.0
H200 H 0.49882 0.42599 0.79555 0.0
S201 S 0.29459 0.40604 0.73932 0.0
N202 N 0.31882 0.38081 0.66412 0.0
N203 N 0.33976 0.42999 0.81071 0.0
C204 C 0.37752 0.4177 0.77524 0.0
C205 C 0.36612 0.3907 0.696 0.0
C206 C 0.68156 0.66008 0.36925 0.0
C207 C 0.65036 0.68247 0.41501 0.0
C208 C 0.66426 0.63896 0.28788 0.0
C209 C 0.61485 0.63869 0.24895 0.0
H210 H 0.71904 0.65562 0.39885 0.0
H211 H 0.68963 0.6197 0.25811 0.0
S212 S 0.52047 0.70325 0.33339 0.0
N213 N 0.56946 0.71153 0.40868 0.0
N214 N 0.53661 0.67048 0.25672 0.0
C215 C 0.58415 0.66534 0.29023 0.0
C216 C 0.60196 0.68741 0.37297 0.0
C217 C 0.88012 0.12405 0.79932 0.0
C218 C 0.89316 0.16164 0.86059 0.0
C219 C 0.91043 0.11072 0.74394 0.0
C220 C 0.95451 0.13488 0.74786 0.0
H221 H 0.84709 0.10389 0.79616 0.0
H222 H 0.90004 0.08032 0.70003 0.0
S223 S 1.00097 0.24024 0.89035 0.0
N224 N 0.95015 0.22538 0.91748 0.0
N225 N 0.00678 0.20166 0.81308 0.0
C226 C 0.96631 0.17434 0.80617 0.0
C227 C 0.93575 0.18734 0.86271 0.0
C228 C 0.42243 0.45985 0.36535 0.0
C229 C 0.41837 0.40961 0.35483 0.0
C230 C 0.44503 0.48701 0.31259 0.0
C231 C 0.46336 0.46487 0.24661 0.0
H232 H 0.40838 0.47833 0.41511 0.0
H233 H 0.44849 0.5254 0.32376 0.0
S234 S 0.46459 0.33515 0.19404 0.0
N235 N 0.43731 0.33915 0.27519 0.0
N236 N 0.47743 0.39065 0.17406 0.0
C237 C 0.45918 0.41511 0.23448 0.0
C238 C 0.43717 0.38734 0.28896 0.0
C239 C 0.18676 0.94053 0.88601 0.0
C240 C 0.15579 0.91012 0.91798 0.0
C241 C 0.16983 0.96717 0.81373 0.0
C242 C 0.12135 0.96426 0.77009 0.0
H243 H 0.22334 0.94676 0.92088 0.0
H244 H 0.19434 0.99251 0.79506 0.0
S245 S 0.02791 0.88322 0.81932 0.0
N246 N 0.0761 0.87349 0.89389 0.0
N247 N 0.04427 0.92361 0.7579 0.0
C248 C 0.09122 0.93047 0.79643 0.0
C249 C 0.10842 0.9035 0.87053 0.0
loop_
_geom_bond_atom_site_label_1
_geom_bond_atom_site_label_2
_geom_bond_distance
_geom_bond_site_symmetry_2
_ccdc_geom_bond_type
H0 C1 0.949 . S
C1 H0 0.949 . S
C1 C2 1.395 . S
C1 C3 1.391 . S
C2 C1 1.395 . S
C2 C5 1.390 . S
C3 C1 1.391 . S
C3 C7 1.387 1_554 S
C3 C8 1.491 . S
H4 C5 0.950 . S
C5 C2 1.390 . S
C5 H4 0.950 . S
C5 C6 1.378 1_554 S
C6 C5 1.378 1_556 S
C6 C7 1.409 . S
C7 C3 1.387 1_556 S
C7 C6 1.409 . S
C7 H9 0.951 . S
C8 C3 1.491 . S
C8 C10 1.382 . S
C8 C12 1.404 1_554 S
H9 C7 0.951 . S
C10 C8 1.382 . S
C10 C11 1.390 . S
C10 H15 0.949 . S
C11 C10 1.390 . S
C11 C16 1.399 . S
C12 C8 1.404 1_556 S
C12 H13 0.950 . S
C12 C14 1.375 . S
H13 C12 0.950 . S
C14 C12 1.375 . S
C14 C16 1.382 1_556 S
C14 H18 0.950 . S
H15 C10 0.949 . S
C16 C11 1.399 . S
C16 C14 1.382 1_554 S
C16 H17 0.952 . S
H17 C16 0.952 . S
H18 C14 0.950 . S
H19 C20 0.949 . S
C20 H19 0.949 . S
C20 C21 1.395 . S
C20 C22 1.391 . S
C21 C20 1.395 . S
C21 C24 1.390 . S
C22 C20 1.391 . S
C22 C26 1.387 . S
C22 C27 1.491 . S
H23 C24 0.950 . S
C24 C21 1.390 . S
C24 H23 0.950 . S
C24 C25 1.378 . S
C25 C24 1.378 . S
C25 C26 1.409 . S
C26 C22 1.387 . S
C26 C25 1.409 . S
C26 H28 0.951 . S
C27 C22 1.491 . S
C27 C29 1.382 . S
C27 C31 1.404 . S
H28 C26 0.951 . S
C29 C27 1.382 . S
C29 C30 1.390 . S
C29 H34 0.949 . S
C30 C29 1.390 . S
C30 C35 1.399 . S
C31 C27 1.404 . S
C31 H32 0.950 . S
C31 C33 1.375 . S
H32 C31 0.950 . S
C33 C31 1.375 . S
C33 C35 1.382 . S
C33 H37 0.950 . S
H34 C29 0.949 . S
C35 C30 1.399 . S
C35 C33 1.382 . S
C35 H36 0.952 . S
H36 C35 0.952 . S
H37 C33 0.950 . S
H38 C39 0.949 . S
C39 H38 0.949 . S
C39 C40 1.395 . S
C39 C41 1.391 1_554 S
C40 C39 1.395 . S
C40 C43 1.388 1_554 S
C41 C39 1.391 1_556 S
C41 C45 1.387 . S
C41 C46 1.491 . S
H42 C43 0.949 1_554 S
C43 C40 1.388 1_556 S
C43 H42 0.949 1_556 S
C43 C44 1.381 . S
C44 C43 1.381 . S
C44 C45 1.409 . S
C45 C41 1.387 . S
C45 C44 1.409 . S
C45 H47 0.951 . S
C46 C41 1.491 . S
C46 C48 1.390 . S
C46 C50 1.404 . S
H47 C45 0.951 . S
C48 C46 1.390 . S
C48 C49 1.391 . S
C48 H53 0.940 1_556 S
C49 C48 1.391 . S
C49 C54 1.399 . S
C50 C46 1.404 . S
C50 H51 0.950 . S
C50 C52 1.375 . S
H51 C50 0.950 . S
C52 C50 1.375 . S
C52 C54 1.382 . S
C52 H56 0.950 . S
H53 C48 0.940 1_554 S
C54 C49 1.399 . S
C54 C52 1.382 . S
C54 H55 0.952 . S
H55 C54 0.952 . S
H56 C52 0.950 . S
H57 C58 0.949 . S
C58 H57 0.949 . S
C58 C59 1.395 . S
C58 C60 1.391 . S
C59 C58 1.395 . S
C59 C62 1.390 . S
C60 C58 1.391 . S
C60 C64 1.387 . S
C60 C65 1.491 . S
H61 C62 0.950 . S
C62 C59 1.390 . S
C62 H61 0.950 . S
C62 C63 1.378 . S
C63 C62 1.378 . S
C63 C64 1.409 . S
C64 C60 1.387 . S
C64 C63 1.409 . S
C64 H66 0.951 . S
C65 C60 1.491 . S
C65 C67 1.382 . S
C65 C69 1.404 . S
H66 C64 0.951 . S
C67 C65 1.382 . S
C67 C68 1.390 . S
C67 H72 0.949 . S
C68 C67 1.390 . S
C68 C73 1.399 . S
C69 C65 1.404 . S
C69 H70 0.950 . S
C69 C71 1.375 . S
H70 C69 0.950 . S
C71 C69 1.375 . S
C71 C73 1.382 . S
C71 H75 0.950 . S
H72 C67 0.949 . S
C73 C68 1.399 . S
C73 C71 1.382 . S
C73 H74 0.952 . S
H74 C73 0.952 . S
H75 C71 0.950 . S
O76 Mg77 1.990 . S
O76 C90 1.253 1_455 S
Mg77 O76 1.990 . S
Mg77 O80 2.180 . S
Mg77 O81 2.117 . S
Mg77 O95 2.030 . S
O78 Mg79 2.072 1_655 S
O78 C90 1.260 . S
Mg79 O78 2.072 1_455 S
Mg79 O80 2.099 . S
Mg79 O82 2.079 1_545 S
Mg79 O83 2.072 1_455 S
Mg79 O85 2.099 1_445 S
Mg79 O96 2.079 1_545 S
O80 Mg77 2.180 . S
O80 Mg79 2.099 . S
O80 C91 1.279 . S
O81 Mg77 2.117 . S
O81 C91 1.250 . S
O82 Mg79 2.079 1_565 S
O82 C92 1.264 . S
O83 Mg79 2.072 1_655 S
O83 C93 1.260 . S
Mg84 O85 2.180 . S
Mg84 O86 2.030 1_655 S
Mg84 O87 1.990 1_565 S
Mg84 O88 2.117 . S
O85 Mg79 2.099 1_665 S
O85 Mg84 2.180 . S
O85 C94 1.279 . S
O86 Mg84 2.030 1_455 S
O86 C92 1.248 . S
O87 Mg84 1.990 1_545 S
O87 C93 1.253 . S
O88 Mg84 2.117 . S
O88 C94 1.250 . S
C89 O95 1.248 1_565 S
C89 O96 1.264 . S
C90 O76 1.253 1_655 S
C90 O78 1.260 . S
C91 O80 1.279 . S
C91 O81 1.250 . S
C92 O82 1.264 . S
C92 O86 1.248 . S
C93 O83 1.260 . S
C93 O87 1.253 . S
C94 O85 1.279 . S
C94 O88 1.250 . S
O95 Mg77 2.030 . S
O95 C89 1.248 1_545 S
O96 Mg79 2.079 1_565 S
O96 C89 1.264 . S
O97 Mg98 1.990 . S
O97 C111 1.253 . S
Mg98 O97 1.990 . S
Mg98 O101 2.180 . S
Mg98 O102 2.117 . S
Mg98 O116 2.030 . S
O99 Mg100 2.072 . S
O99 C111 1.260 . S
Mg100 O99 2.072 . S
Mg100 O101 2.099 . S
Mg100 O103 2.079 1_554 S
Mg100 O104 2.072 1_554 S
Mg100 O106 2.099 . S
Mg100 O117 2.079 . S
O101 Mg98 2.180 . S
O101 Mg100 2.099 . S
O101 C112 1.279 . S
O102 Mg98 2.117 . S
O102 C112 1.250 . S
O103 Mg100 2.079 1_556 S
O103 C113 1.264 . S
O104 Mg100 2.072 1_556 S
O104 C114 1.260 . S
Mg105 O106 2.180 1_556 S
Mg105 O107 2.030 . S
Mg105 O108 1.990 . S
Mg105 O109 2.117 . S
O106 Mg100 2.099 . S
O106 Mg105 2.180 1_554 S
O106 C115 1.279 . S
O107 Mg105 2.030 . S
O107 C113 1.248 . S
O108 Mg105 1.990 . S
O108 C114 1.253 . S
O109 Mg105 2.117 . S
O109 C115 1.250 1_556 S
C110 O116 1.248 . S
C110 O117 1.264 . S
C111 O97 1.253 . S
C111 O99 1.260 . S
C112 O101 1.279 . S
C112 O102 1.250 . S
C113 O103 1.264 . S
C113 O107 1.248 . S
C114 O104 1.260 . S
C114 O108 1.253 . S
C115 O106 1.279 . S
C115 O109 1.250 1_554 S
O116 Mg98 2.030 . S
O116 C110 1.248 . S
O117 Mg100 2.079 . S
O117 C110 1.264 . S
C118 C119 1.369 . S
C118 C120 1.419 . S
C118 H122 0.930 . S
C119 C118 1.369 . S
C119 C128 1.429 . S
C120 C118 1.419 . S
C120 C121 1.363 . S
C120 H123 0.929 . S
C121 C120 1.363 . S
C121 C127 1.428 . S
H122 C118 0.930 . S
H123 C120 0.929 . S
S124 N125 1.613 . S
S124 N126 1.610 . S
N125 S124 1.613 . S
N125 C128 1.350 . S
N126 S124 1.610 . S
N126 C127 1.351 . S
C127 C121 1.428 . S
C127 N126 1.351 . S
C127 C128 1.434 . S
C128 C119 1.429 . S
C128 N125 1.350 . S
C128 C127 1.434 . S
C129 C130 1.369 . S
C129 C131 1.419 . S
C129 H133 0.930 . S
C130 C129 1.369 . S
C130 C139 1.429 . S
C131 C129 1.419 . S
C131 C132 1.363 . S
C131 H134 0.929 . S
C132 C131 1.363 . S
C132 C138 1.428 . S
H133 C129 0.930 . S
H134 C131 0.929 . S
S135 N136 1.613 . S
S135 N137 1.610 . S
N136 S135 1.613 . S
N136 C139 1.350 . S
N137 S135 1.610 . S
N137 C138 1.351 . S
C138 C132 1.428 . S
C138 N137 1.351 . S
C138 C139 1.434 . S
C139 C130 1.429 . S
C139 N136 1.350 . S
C139 C138 1.434 . S
C140 C141 1.369 . S
C140 C142 1.419 . S
C140 H144 0.930 . S
C141 C140 1.369 . S
C141 C150 1.429 . S
C142 C140 1.419 . S
C142 C143 1.363 . S
C142 H145 0.929 . S
C143 C142 1.363 . S
C143 C149 1.428 . S
H144 C140 0.930 . S
H145 C142 0.929 . S
S146 N147 1.613 . S
S146 N148 1.610 . S
N147 S146 1.613 . S
N147 C150 1.350 . S
N148 S146 1.610 . S
N148 C149 1.351 . S
C149 C143 1.428 . S
C149 N148 1.351 . S
C149 C150 1.434 . S
C150 C141 1.429 . S
C150 N147 1.350 . S
C150 C149 1.434 . S
C151 C152 1.369 1_556 S
C151 C153 1.419 . S
C151 H155 0.930 . S
C152 C151 1.369 1_554 S
C152 C161 1.429 . S
C153 C151 1.419 . S
C153 C154 1.363 1_556 S
C153 H156 0.929 . S
C154 C153 1.363 1_554 S
C154 C160 1.428 . S
H155 C151 0.930 . S
H156 C153 0.929 . S
S157 N158 1.613 . S
S157 N159 1.610 . S
N158 S157 1.613 . S
N158 C161 1.350 . S
N159 S157 1.610 . S
N159 C160 1.351 . S
C160 C154 1.428 . S
C160 N159 1.351 . S
C160 C161 1.434 . S
C161 C152 1.429 . S
C161 N158 1.350 . S
C161 C160 1.434 . S
C162 C163 1.369 . S
C162 C164 1.419 . S
C162 H166 0.930 . S
C163 C162 1.369 . S
C163 C172 1.429 . S
C164 C162 1.419 . S
C164 C165 1.363 . S
C164 H167 0.929 . S
C165 C164 1.363 . S
C165 C171 1.428 . S
H166 C162 0.930 . S
H167 C164 0.929 . S
S168 N169 1.613 1_545 S
S168 N170 1.610 . S
N169 S168 1.613 1_565 S
N169 C172 1.350 . S
N170 S168 1.610 . S
N170 C171 1.351 1_545 S
C171 C165 1.428 . S
C171 N170 1.351 1_565 S
C171 C172 1.434 . S
C172 C163 1.429 . S
C172 N169 1.350 . S
C172 C171 1.434 . S
C173 C174 1.369 . S
C173 C175 1.419 . S
C173 H177 0.930 . S
C174 C173 1.369 . S
C174 C183 1.429 . S
C175 C173 1.419 . S
C175 C176 1.363 . S
C175 H178 0.929 . S
C176 C175 1.363 . S
C176 C182 1.428 . S
H177 C173 0.930 . S
H178 C175 0.929 . S
S179 N180 1.613 . S
S179 N181 1.610 . S
N180 S179 1.613 . S
N180 C183 1.350 . S
N181 S179 1.610 . S
N181 C182 1.351 . S
C182 C176 1.428 . S
C182 N181 1.351 . S
C182 C183 1.434 . S
C183 C174 1.429 . S
C183 N180 1.350 . S
C183 C182 1.434 . S
C184 C185 1.369 . S
C184 C186 1.419 . S
C184 H188 0.930 . S
C185 C184 1.369 . S
C185 C194 1.429 . S
C186 C184 1.419 . S
C186 C187 1.363 . S
C186 H189 0.929 . S
C187 C186 1.363 . S
C187 C193 1.428 . S
H188 C184 0.930 . S
H189 C186 0.929 . S
S190 N191 1.613 . S
S190 N192 1.610 . S
N191 S190 1.613 . S
N191 C194 1.350 . S
N192 S190 1.610 . S
N192 C193 1.351 . S
C193 C187 1.428 . S
C193 N192 1.351 . S
C193 C194 1.434 . S
C194 C185 1.429 . S
C194 N191 1.350 . S
C194 C193 1.434 . S
C195 C196 1.369 . S
C195 C197 1.419 . S
C195 H199 0.930 . S
C196 C195 1.369 . S
C196 C205 1.429 . S
C197 C195 1.419 . S
C197 C198 1.363 . S
C197 H200 0.929 . S
C198 C197 1.363 . S
C198 C204 1.428 . S
H199 C195 0.930 . S
H200 C197 0.929 . S
S201 N202 1.613 . S
S201 N203 1.610 . S
N202 S201 1.613 . S
N202 C205 1.350 . S
N203 S201 1.610 . S
N203 C204 1.351 . S
C204 C198 1.428 . S
C204 N203 1.351 . S
C204 C205 1.434 . S
C205 C196 1.429 . S
C205 N202 1.350 . S
C205 C204 1.434 . S
C206 C207 1.369 . S
C206 C208 1.419 . S
C206 H210 0.930 . S
C207 C206 1.369 . S
C207 C216 1.429 . S
C208 C206 1.419 . S
C208 C209 1.363 . S
C208 H211 0.929 . S
C209 C208 1.363 . S
C209 C215 1.428 . S
H210 C206 0.930 . S
H211 C208 0.929 . S
S212 N213 1.613 . S
S212 N214 1.610 . S
N213 S212 1.613 . S
N213 C216 1.350 . S
N214 S212 1.610 . S
N214 C215 1.351 . S
C215 C209 1.428 . S
C215 N214 1.351 . S
C215 C216 1.434 . S
C216 C207 1.429 . S
C216 N213 1.350 . S
C216 C215 1.434 . S
C217 C218 1.369 . S
C217 C219 1.419 . S
C217 H221 0.930 . S
C218 C217 1.369 . S
C218 C227 1.429 . S
C219 C217 1.419 . S
C219 C220 1.363 . S
C219 H222 0.929 . S
C220 C219 1.363 . S
C220 C226 1.428 . S
H221 C217 0.930 . S
H222 C219 0.929 . S
S223 N224 1.613 1_455 S
S223 N225 1.610 . S
N224 S223 1.613 1_655 S
N224 C227 1.350 . S
N225 S223 1.610 . S
N225 C226 1.351 1_455 S
C226 C220 1.428 . S
C226 N225 1.351 1_655 S
C226 C227 1.434 . S
C227 C218 1.429 . S
C227 N224 1.350 . S
C227 C226 1.434 . S
C228 C229 1.369 . S
C228 C230 1.419 . S
C228 H232 0.930 . S
C229 C228 1.369 . S
C229 C238 1.429 . S
C230 C228 1.419 . S
C230 C231 1.363 . S
C230 H233 0.929 . S
C231 C230 1.363 . S
C231 C237 1.428 . S
H232 C228 0.930 . S
H233 C230 0.929 . S
S234 N235 1.613 . S
S234 N236 1.610 . S
N235 S234 1.613 . S
N235 C238 1.350 . S
N236 S234 1.610 . S
N236 C237 1.351 . S
C237 C231 1.428 . S
C237 N236 1.351 . S
C237 C238 1.434 . S
C238 C229 1.429 . S
C238 N235 1.350 . S
C238 C237 1.434 . S
C239 C240 1.369 . S
C239 C241 1.419 . S
C239 H243 0.930 . S
C240 C239 1.369 . S
C240 C249 1.429 . S
C241 C239 1.419 . S
C241 C242 1.363 . S
C241 H244 0.929 . S
C242 C241 1.363 . S
C242 C248 1.428 . S
H243 C239 0.930 . S
H244 C241 0.929 . S
S245 N246 1.613 . S
S245 N247 1.610 . S
N246 S245 1.613 . S
N246 C249 1.350 . S
N247 S245 1.610 . S
N247 C248 1.351 . S
C248 C242 1.428 . S
C248 N247 1.351 . S
C248 C249 1.434 . S
C249 C240 1.429 . S
C249 N246 1.350 . S
C249 C248 1.434 . S
C121 C91 1.282 . S
C119 C68 1.399 . S
C130 C11 1.355 . S
C132 C115 1.367 . S
C141 C30 1.523 . S
C143 C94 1.421 . S
C152 C49 1.500 1_554 S
C154 C112 1.377 . S
C165 C92 1.559 . S
C163 C2 1.533 . S
C176 C114 1.570 . S
C174 C25 1.646 . S
C185 C40 1.623 . S
C187 C93 1.597 . S
C196 C59 1.535 . S
C198 C113 1.493 . S
C209 C111 1.497 . S
C207 C21 1.533 . S
C220 C90 1.479 . S
C218 C44 1.553 . S
C231 C110 1.447 . S
C229 C63 1.478 . S
C240 C6 1.492 . S
C242 C89 1.433 . S
