# Generated by pormake.
# Topology anh, (6,3)-cn, num edge types: 1
# Building blocks:
#     Node 0, Type 0, BuildingBlock: VOLQOD_clean_sbu_1, # of connection points: 6
#     Node 1, Type 0, BuildingBlock: VOLQOD_clean_sbu_1, # of connection points: 6
#     Node 2, Type 0, BuildingBlock: VOLQOD_clean_sbu_1, # of connection points: 6
#     Node 3, Type 1, BuildingBlock: CUQRIR_clean_linker_1, # of connection points: 3
#     Node 4, Type 1, BuildingBlock: CUQRIR_clean_linker_1, # of connection points: 3
#     Node 5, Type 1, BuildingBlock: CUQRIR_clean_linker_1, # of connection points: 3
#     Node 6, Type 1, BuildingBlock: CUQRIR_clean_linker_1, # of connection points: 3
#     Node 7, Type 1, BuildingBlock: CUQRIR_clean_linker_1, # of connection points: 3
#     Node 8, Type 1, BuildingBlock: CUQRIR_clean_linker_1, # of connection points: 3
#     Edge 9, Type (0, 1), BuildingBlock: EYOCIG_clean_linker_4, # of connection points: 2
#     Edge 10, Type (0, 1), BuildingBlock: EYOCIG_clean_linker_4, # of connection points: 2
#     Edge 11, Type (0, 1), BuildingBlock: EYOCIG_clean_linker_4, # of connection points: 2
#     Edge 12, Type (0, 1), BuildingBlock: EYOCIG_clean_linker_4, # of connection points: 2
#     Edge 13, Type (0, 1), BuildingBlock: EYOCIG_clean_linker_4, # of connection points: 2
#     Edge 14, Type (0, 1), BuildingBlock: EYOCIG_clean_linker_4, # of connection points: 2
#     Edge 15, Type (0, 1), BuildingBlock: EYOCIG_clean_linker_4, # of connection points: 2
#     Edge 16, Type (0, 1), BuildingBlock: EYOCIG_clean_linker_4, # of connection points: 2
#     Edge 17, Type (0, 1), BuildingBlock: EYOCIG_clean_linker_4, # of connection points: 2
#     Edge 18, Type (0, 1), BuildingBlock: EYOCIG_clean_linker_4, # of connection points: 2
#     Edge 19, Type (0, 1), BuildingBlock: EYOCIG_clean_linker_4, # of connection points: 2
#     Edge 20, Type (0, 1), BuildingBlock: EYOCIG_clean_linker_4, # of connection points: 2
#     Edge 21, Type (0, 1), BuildingBlock: EYOCIG_clean_linker_4, # of connection points: 2
#     Edge 22, Type (0, 1), BuildingBlock: EYOCIG_clean_linker_4, # of connection points: 2
#     Edge 23, Type (0, 1), BuildingBlock: EYOCIG_clean_linker_4, # of connection points: 2
#     Edge 24, Type (0, 1), BuildingBlock: EYOCIG_clean_linker_4, # of connection points: 2
#     Edge 25, Type (0, 1), BuildingBlock: EYOCIG_clean_linker_4, # of connection points: 2
#     Edge 26, Type (0, 1), BuildingBlock: EYOCIG_clean_linker_4, # of connection points: 2
# Relax obj value: 0.189
# Max RMSD: 0.220
# Mean RMSD: 0.168
data_MOF--net-anh--node1-VOLQOD_clean_sbu_1--node2-CUQRIR_clean_linker_1--edge1-EYOCIG_clean_linker_4
_symmetry_space_group_name_H-M    P1
_symmetry_Int_Tables_number       1
_symmetry_cell_setting            triclinic
loop_
_symmetry_equiv_pos_as_xyz
'x, y, z'
_cell_length_a     21.714127
_cell_length_b     21.710735
_cell_length_c     41.666987
_cell_angle_alpha  84.752653
_cell_angle_beta   89.994027
_cell_angle_gamma 120.16953
loop_
_atom_site_label
_atom_site_type_symbol
_atom_site_fract_x
_atom_site_fract_y
_atom_site_fract_z
_atom_type_partial_charge
O0 O 0.96371 0.52424 0.24 0.0
Zn1 Zn -0.02205 0.5561 0.19151 0.0
O2 O -0.00357 0.49191 0.16823 0.0
Zn3 Zn 0.92169 0.44264 0.13882 0.0
Zn4 Zn 0.00102 0.42132 0.19934 0.0
Zn5 Zn 0.08559 0.54616 0.1426 0.0
O6 O 0.96213 0.45009 0.09344 0.0
O7 O 0.07138 0.54455 0.09469 0.0
O8 O 0.89306 0.56253 0.17307 0.0
O9 O 0.86124 0.48841 0.13472 0.0
O10 O 0.85373 0.34088 0.15809 0.0
O11 O 0.90785 0.3274 0.20133 0.0
O12 O 0.0861 0.40942 0.18896 0.0
O13 O 0.06731 0.65467 0.18848 0.0
O14 O 0.1455 0.50147 0.15129 0.0
O15 O 0.14261 0.6461 0.1554 0.0
C16 C -0.01421 0.48783 0.25692 0.0
C17 C 0.02137 0.49822 0.07931 0.0
C18 C 0.85477 0.30407 0.18349 0.0
C19 C 0.85398 0.5328 0.14987 0.0
C20 C 0.13982 0.44831 0.16935 0.0
C21 C 0.12838 0.68112 0.17399 0.0
O22 O 0.00864 0.45151 0.24418 0.0
O23 O 0.54267 0.06327 0.42716 0.0
Zn24 Zn 0.51101 0.0507 0.47412 0.0
O25 O 0.57609 0.03567 0.50177 0.0
Zn26 Zn 0.62692 0.11524 0.52727 0.0
Zn27 Zn 0.64474 0.02645 0.47505 0.0
Zn28 Zn 0.52157 0.95096 0.53196 0.0
O29 O 0.6199 0.0835 0.57507 0.0
O30 O 0.52302 0.97493 0.57789 0.0
O31 O 0.50334 0.13607 0.48562 0.0
O32 O 0.58241 0.17635 0.5236 0.0
O33 O 0.72739 0.18032 0.50892 0.0
O34 O 0.74038 0.11955 0.47181 0.0
O35 O 0.65261 0.93943 0.49317 0.0
O36 O 0.41355 0.96087 0.47779 0.0
O37 O 0.56543 0.88973 0.53187 0.0
O38 O 0.42145 0.89066 0.51797 0.0
C39 C 0.57868 0.04092 0.41308 0.0
C40 C 0.57016 0.02794 0.59138 0.0
C41 C 0.76395 0.17562 0.48642 0.0
C42 C 0.53583 0.17987 0.50638 0.0
C43 C 0.61565 0.89042 0.51595 0.0
C44 C 0.38682 0.90186 0.49584 0.0
O45 O 0.61445 0.01733 0.42869 0.0
O46 O 0.47832 0.54981 0.76198 0.0
Zn47 Zn 0.45993 0.51824 0.81059 0.0
O48 O 0.54287 0.58249 0.83396 0.0
Zn49 Zn 0.51741 0.63127 0.86358 0.0
Zn50 Zn 0.61839 0.65381 0.803 0.0
Zn51 Zn 0.57777 0.52828 0.85948 0.0
O52 O 0.55057 0.6239 0.90888 0.0
O53 O 0.56569 0.52998 0.90744 0.0
O54 O 0.36854 0.51221 0.82898 0.0
O55 O 0.411 0.58523 0.86776 0.0
O56 O 0.55098 0.73293 0.84453 0.0
O57 O 0.61883 0.74752 0.80117 0.0
O58 O 0.71558 0.66584 0.81334 0.0
O59 O 0.44987 0.41937 0.81389 0.0
O60 O 0.68248 0.5729 0.85052 0.0
O61 O 0.53406 0.42818 0.84683 0.0
C62 C 0.53716 0.5868 0.7452 0.0
C63 C 0.56192 0.57604 0.92291 0.0
C64 C 0.58878 0.77022 0.81916 0.0
C65 C 0.35922 0.54139 0.8524 0.0
C66 C 0.73021 0.62644 0.83263 0.0
C67 C 0.48439 0.39296 0.82839 0.0
O68 O 0.59616 0.62378 0.75811 0.0
C69 C 0.48373 -0.00281 0.20927 0.0
N70 N 0.53342 0.0303 0.2309 0.0
N71 N 0.42055 0.94871 0.22468 0.0
C72 C 0.49625 0.01139 0.17321 0.0
C73 C 0.43334 0.95332 0.25637 0.0
N74 N 0.50206 0.00302 0.26016 0.0
C75 C 0.37945 0.90721 0.28345 0.0
H76 H 0.46738 0.03858 0.16356 0.0
H77 H 0.47394 0.95986 0.1625 0.0
H78 H 0.55373 0.04549 0.16583 0.0
H79 H 0.38078 0.85683 0.28848 0.0
H80 H 0.32487 0.89309 0.27656 0.0
H81 H 0.39181 0.93453 0.30579 0.0
C82 C 0.5627 0.52725 0.54095 0.0
N83 N 0.57023 0.5726 0.56284 0.0
N84 N 0.54317 0.46178 0.55594 0.0
C85 C 0.57309 0.54579 0.50496 0.0
C86 C 0.53891 0.46852 0.58767 0.0
N87 N 0.55504 0.53599 0.59189 0.0
C88 C 0.52188 0.40995 0.61437 0.0
H89 H 0.52046 0.51745 0.49414 0.0
H90 H 0.60698 0.52652 0.49496 0.0
H91 H 0.59762 0.60421 0.49802 0.0
H92 H 0.57141 0.40886 0.61972 0.0
H93 H 0.48238 0.35707 0.60675 0.0
H94 H 0.50118 0.41908 0.6367 0.0
C95 C 0.04314 0.57476 0.86973 0.0
N96 N 0.07158 0.5529 0.894 0.0
N97 N -0.00785 0.58607 0.88158 0.0
C98 C 0.06513 0.58585 0.83451 0.0
C99 C -0.00996 0.57011 0.91379 0.0
N100 N 0.03831 0.54993 0.92141 0.0
C101 C 0.93947 0.57251 0.93767 0.0
H102 H 0.09993 0.6441 0.82725 0.0
H103 H 0.01745 0.56629 0.81984 0.0
H104 H 0.09468 0.55815 0.82939 0.0
H105 H 0.89057 0.51887 0.94133 0.0
H106 H 0.92387 0.61212 0.92856 0.0
H107 H 0.96357 0.58596 0.96134 0.0
C108 C 0.06368 0.55024 0.46133 0.0
N109 N 0.02648 0.50449 0.43939 0.0
N110 N 0.10968 0.61591 0.44632 0.0
C111 C 0.05542 0.5317 0.4973 0.0
C112 C 0.09919 0.60885 0.41459 0.0
N113 N 0.04833 0.5411 0.41036 0.0
C114 C 0.14123 0.66723 0.38784 0.0
H115 H 0.03213 0.56077 0.50816 0.0
H116 H 0.10864 0.55022 0.50724 0.0
H117 H 0.02053 0.47337 0.50423 0.0
H118 H 0.19152 0.66774 0.38239 0.0
H119 H 0.15541 0.7203 0.39541 0.0
H120 H 0.11117 0.65821 0.36557 0.0
C121 C 0.52119 0.07514 0.7949 0.0
N122 N 0.53679 0.04119 0.77338 0.0
N123 N 0.50588 0.1229 0.77936 0.0
C124 C 0.521 0.0624 0.83096 0.0
C125 C 0.51264 0.11694 0.74771 0.0
N126 N 0.5314 0.06718 0.74408 0.0
C127 C 0.50388 0.16193 0.7205 0.0
H128 H 0.46513 0.03505 0.84106 0.0
H129 H 0.55058 0.11447 0.84122 0.0
H130 H 0.54494 0.02895 0.83832 0.0
H131 H 0.55547 0.21259 0.71511 0.0
H132 H 0.46325 0.17568 0.72746 0.0
H133 H 0.48846 0.13395 0.69835 0.0
C134 C 0.50423 0.49935 0.13235 0.0
N135 N 0.55496 0.5213 0.10821 0.0
N136 N 0.44197 0.48777 0.12028 0.0
C137 C 0.51465 0.48843 0.16763 0.0
C138 C 0.45627 0.50365 0.08809 0.0
N139 N 0.52497 0.52406 0.08068 0.0
C140 C 0.40349 0.50091 0.06403 0.0
H141 H 0.49027 0.43016 0.17505 0.0
H142 H 0.48693 0.50863 0.1821 0.0
H143 H 0.57197 0.51566 0.17286 0.0
H144 H 0.40779 0.55424 0.06047 0.0
H145 H 0.34811 0.4607 0.07294 0.0
H146 H 0.41481 0.48804 0.04036 0.0
C147 C 0.25245 0.43554 0.16107 0.0
C148 C 0.19777 0.43462 0.1674 0.0
C149 C 0.31968 0.44861 0.14969 0.0
C150 C 0.37713 0.46652 0.13716 0.0
C151 C 0.87877 0.2976 0.46441 0.0
C152 C 0.82712 0.24021 0.47334 0.0
C153 C 0.93244 0.3687 0.4537 0.0
C154 C 0.97549 0.43113 0.446 0.0
C155 C 0.58406 0.88688 0.79897 0.0
C156 C 0.5871 0.83388 0.80764 0.0
C157 C 0.57125 0.94311 0.7884 0.0
C158 C 0.55555 -0.01177 0.78056 0.0
C159 C 0.74692 0.54989 0.1306 0.0
C160 C 0.7969 0.54572 0.141 0.0
C161 C 0.68354 0.54556 0.11897 0.0
C162 C 0.62535 0.53552 0.11192 0.0
C163 C 0.26479 0.79184 0.48139 0.0
C164 C 0.32043 0.84247 0.48775 0.0
C165 C 0.20613 0.72994 0.47104 0.0
C166 C 0.16115 0.67657 0.46023 0.0
C167 C 0.47261 0.27188 0.81337 0.0
C168 C 0.47598 0.32676 0.81952 0.0
C169 C 0.47948 0.21502 0.80328 0.0
C170 C 0.49176 0.17198 0.79282 0.0
C171 C 0.62381 0.7758 0.53415 0.0
C172 C 0.62641 0.83073 0.5235 0.0
C173 C 0.60895 0.70684 0.54703 0.0
C174 C 0.59092 0.64533 0.55591 0.0
C175 C 0.85556 0.63873 0.84064 0.0
C176 C 0.80193 0.64001 0.83443 0.0
C177 C 0.90953 0.62536 0.85195 0.0
C178 C 0.94891 0.60741 0.86454 0.0
C179 C 0.23816 0.8015 0.18962 0.0
C180 C 0.18653 0.7469 0.18316 0.0
C181 C 0.30189 0.8578 0.20018 0.0
C182 C 0.35721 0.90025 0.21097 0.0
C183 C 0.51872 0.28724 0.51836 0.0
C184 C 0.52169 0.23649 0.51075 0.0
C185 C 0.52372 0.34845 0.53019 0.0
C186 C 0.53284 0.40113 0.5418 0.0
C187 C 0.23511 0.52458 0.87177 0.0
C188 C 0.28919 0.52862 0.86129 0.0
C189 C 0.17609 0.52892 0.88346 0.0
C190 C 0.12784 0.5388 0.89047 0.0
C191 C 0.73423 0.18661 0.20443 0.0
C192 C 0.78971 0.24007 0.19526 0.0
C193 C 0.66576 0.12969 0.21563 0.0
C194 C 0.60514 0.08397 0.22378 0.0
C195 C 0.04251 0.50663 0.01597 0.0
C196 C 0.03187 0.50192 0.04484 0.0
C197 C 0.05112 0.51714 0.98179 0.0
C198 C 0.0504 0.53087 0.95305 0.0
C199 C 0.5698 0.03815 0.3498 0.0
C200 C 0.57516 0.03862 0.37866 0.0
C201 C 0.55514 0.03233 0.31674 0.0
C202 C 0.5343 0.02159 0.28981 0.0
C203 C 0.54284 0.58238 0.68193 0.0
C204 C 0.5384 0.58326 0.71082 0.0
C205 C 0.54949 0.57543 0.64877 0.0
C206 C 0.5533 0.56138 0.62167 0.0
C207 C 0.56007 0.02848 0.65466 0.0
C208 C 0.56402 0.02749 0.62581 0.0
C209 C 0.55258 0.03545 0.68767 0.0
C210 C 0.5437 0.04737 0.71453 0.0
C211 C 0.57426 0.56748 0.98626 0.0
C212 C 0.56852 0.57213 0.95738 0.0
C213 C 0.57177 0.55697 0.02045 0.0
C214 C 0.55671 0.54319 0.04915 0.0
C215 C -0.00608 0.4925 0.32019 0.0
C216 C -0.01036 0.49126 0.2913 0.0
C217 C 0.00613 0.50023 0.35339 0.0
C218 C 0.02277 0.51502 0.38052 0.0
loop_
_geom_bond_atom_site_label_1
_geom_bond_atom_site_label_2
_geom_bond_distance
_geom_bond_site_symmetry_2
_ccdc_geom_bond_type
O0 Zn1 1.953 1_655 S
O0 C16 1.225 1_655 S
Zn1 O0 1.953 1_455 S
Zn1 O2 1.949 . S
Zn1 O8 1.919 1_455 S
Zn1 O13 1.924 . S
O2 Zn1 1.949 . S
O2 Zn3 1.923 1_455 S
O2 Zn4 1.950 . S
O2 Zn5 1.945 . S
Zn3 O2 1.923 1_655 S
Zn3 O6 1.933 . S
Zn3 O9 1.941 . S
Zn3 O10 1.965 . S
Zn4 O2 1.950 . S
Zn4 O11 1.938 1_455 S
Zn4 O12 1.906 . S
Zn4 O22 1.953 . S
Zn5 O2 1.945 . S
Zn5 O7 1.932 . S
Zn5 O14 1.977 . S
Zn5 O15 1.910 . S
O6 Zn3 1.933 . S
O6 C17 1.226 1_655 S
O7 Zn5 1.932 . S
O7 C17 1.307 . S
O8 Zn1 1.919 1_655 S
O8 C19 1.253 . S
O9 Zn3 1.941 . S
O9 C19 1.283 . S
O10 Zn3 1.965 . S
O10 C18 1.303 . S
O11 Zn4 1.938 1_655 S
O11 C18 1.247 . S
O12 Zn4 1.906 . S
O12 C20 1.304 . S
O13 Zn1 1.924 . S
O13 C21 1.311 . S
O14 Zn5 1.977 . S
O14 C20 1.272 . S
O15 Zn5 1.910 . S
O15 C21 1.231 . S
C16 O0 1.225 1_455 S
C16 O22 1.298 . S
C17 O6 1.226 1_455 S
C17 O7 1.307 . S
C18 O10 1.303 . S
C18 O11 1.247 . S
C19 O8 1.253 . S
C19 O9 1.283 . S
C20 O12 1.304 . S
C20 O14 1.272 . S
C21 O13 1.311 . S
C21 O15 1.231 . S
O22 Zn4 1.953 . S
O22 C16 1.298 . S
O23 Zn24 1.953 . S
O23 C39 1.225 . S
Zn24 O23 1.953 . S
Zn24 O25 1.949 . S
Zn24 O31 1.919 . S
Zn24 O36 1.924 1_545 S
O25 Zn24 1.949 . S
O25 Zn26 1.923 . S
O25 Zn27 1.950 . S
O25 Zn28 1.945 1_545 S
Zn26 O25 1.923 . S
Zn26 O29 1.933 . S
Zn26 O32 1.941 . S
Zn26 O33 1.965 . S
Zn27 O25 1.950 . S
Zn27 O34 1.938 . S
Zn27 O35 1.906 1_545 S
Zn27 O45 1.953 . S
Zn28 O25 1.945 1_565 S
Zn28 O30 1.932 . S
Zn28 O37 1.977 . S
Zn28 O38 1.910 . S
O29 Zn26 1.933 . S
O29 C40 1.226 . S
O30 Zn28 1.932 . S
O30 C40 1.307 1_565 S
O31 Zn24 1.919 . S
O31 C42 1.253 . S
O32 Zn26 1.941 . S
O32 C42 1.283 . S
O33 Zn26 1.965 . S
O33 C41 1.303 . S
O34 Zn27 1.938 . S
O34 C41 1.247 . S
O35 Zn27 1.906 1_565 S
O35 C43 1.304 . S
O36 Zn24 1.924 1_565 S
O36 C44 1.311 . S
O37 Zn28 1.977 . S
O37 C43 1.272 . S
O38 Zn28 1.910 . S
O38 C44 1.231 . S
C39 O23 1.225 . S
C39 O45 1.298 . S
C40 O29 1.226 . S
C40 O30 1.307 1_545 S
C41 O33 1.303 . S
C41 O34 1.247 . S
C42 O31 1.253 . S
C42 O32 1.283 . S
C43 O35 1.304 . S
C43 O37 1.272 . S
C44 O36 1.311 . S
C44 O38 1.231 . S
O45 Zn27 1.953 . S
O45 C39 1.298 . S
O46 Zn47 1.953 . S
O46 C62 1.225 . S
Zn47 O46 1.953 . S
Zn47 O48 1.949 . S
Zn47 O54 1.919 . S
Zn47 O59 1.924 . S
O48 Zn47 1.949 . S
O48 Zn49 1.923 . S
O48 Zn50 1.950 . S
O48 Zn51 1.945 . S
Zn49 O48 1.923 . S
Zn49 O52 1.933 . S
Zn49 O55 1.941 . S
Zn49 O56 1.965 . S
Zn50 O48 1.950 . S
Zn50 O57 1.938 . S
Zn50 O58 1.906 . S
Zn50 O68 1.953 . S
Zn51 O48 1.945 . S
Zn51 O53 1.932 . S
Zn51 O60 1.977 . S
Zn51 O61 1.910 . S
O52 Zn49 1.933 . S
O52 C63 1.226 . S
O53 Zn51 1.932 . S
O53 C63 1.307 . S
O54 Zn47 1.919 . S
O54 C65 1.253 . S
O55 Zn49 1.941 . S
O55 C65 1.283 . S
O56 Zn49 1.965 . S
O56 C64 1.303 . S
O57 Zn50 1.938 . S
O57 C64 1.247 . S
O58 Zn50 1.906 . S
O58 C66 1.304 . S
O59 Zn47 1.924 . S
O59 C67 1.311 . S
O60 Zn51 1.977 . S
O60 C66 1.272 . S
O61 Zn51 1.910 . S
O61 C67 1.231 . S
C62 O46 1.225 . S
C62 O68 1.298 . S
C63 O52 1.226 . S
C63 O53 1.307 . S
C64 O56 1.303 . S
C64 O57 1.247 . S
C65 O54 1.253 . S
C65 O55 1.283 . S
C66 O58 1.304 . S
C66 O60 1.272 . S
C67 O59 1.311 . S
C67 O61 1.231 . S
O68 Zn50 1.953 . S
O68 C62 1.298 . S
C69 N70 1.317 . S
C69 N71 1.348 1_545 S
C69 C72 1.485 . S
N70 C69 1.317 . S
N70 N74 1.370 . S
N71 C69 1.348 1_565 S
N71 C73 1.346 . S
C72 C69 1.485 . S
C72 H76 0.960 . S
C72 H77 0.961 1_545 S
C72 H78 0.960 . S
C73 N71 1.346 . S
C73 N74 1.307 1_565 S
C73 C75 1.486 . S
N74 N70 1.370 . S
N74 C73 1.307 1_545 S
C75 C73 1.486 . S
C75 H79 0.960 . S
C75 H80 0.960 . S
C75 H81 0.959 . S
H76 C72 0.960 . S
H77 C72 0.961 1_565 S
H78 C72 0.960 . S
H79 C75 0.960 . S
H80 C75 0.960 . S
H81 C75 0.959 . S
C82 N83 1.317 . S
C82 N84 1.348 . S
C82 C85 1.485 . S
N83 C82 1.317 . S
N83 N87 1.370 . S
N84 C82 1.348 . S
N84 C86 1.346 . S
C85 C82 1.485 . S
C85 H89 0.960 . S
C85 H90 0.961 . S
C85 H91 0.960 . S
C86 N84 1.346 . S
C86 N87 1.307 . S
C86 C88 1.486 . S
N87 N83 1.370 . S
N87 C86 1.307 . S
C88 C86 1.486 . S
C88 H92 0.960 . S
C88 H93 0.960 . S
C88 H94 0.959 . S
H89 C85 0.960 . S
H90 C85 0.961 . S
H91 C85 0.960 . S
H92 C88 0.960 . S
H93 C88 0.960 . S
H94 C88 0.959 . S
C95 N96 1.317 . S
C95 N97 1.348 1_455 S
C95 C98 1.485 . S
N96 C95 1.317 . S
N96 N100 1.370 . S
N97 C95 1.348 1_655 S
N97 C99 1.345 1_655 S
C98 C95 1.485 . S
C98 H102 0.960 . S
C98 H103 0.961 . S
C98 H104 0.960 . S
C99 N97 1.345 1_455 S
C99 N100 1.315 . S
C99 C101 1.480 1_455 S
N100 N96 1.370 . S
N100 C99 1.315 . S
C101 C99 1.480 1_655 S
C101 H105 0.960 . S
C101 H106 0.960 . S
C101 H107 0.959 . S
H102 C98 0.960 . S
H103 C98 0.961 . S
H104 C98 0.960 . S
H105 C101 0.960 . S
H106 C101 0.960 . S
H107 C101 0.959 . S
C108 N109 1.317 . S
C108 N110 1.348 . S
C108 C111 1.485 . S
N109 C108 1.317 . S
N109 N113 1.370 . S
N110 C108 1.348 . S
N110 C112 1.346 . S
C111 C108 1.485 . S
C111 H115 0.960 . S
C111 H116 0.961 . S
C111 H117 0.960 . S
C112 N110 1.346 . S
C112 N113 1.307 . S
C112 C114 1.486 . S
N113 N109 1.370 . S
N113 C112 1.307 . S
C114 C112 1.486 . S
C114 H118 0.960 . S
C114 H119 0.960 . S
C114 H120 0.959 . S
H115 C111 0.960 . S
H116 C111 0.961 . S
H117 C111 0.960 . S
H118 C114 0.960 . S
H119 C114 0.960 . S
H120 C114 0.959 . S
C121 N122 1.317 . S
C121 N123 1.348 . S
C121 C124 1.485 . S
N122 C121 1.317 . S
N122 N126 1.370 . S
N123 C121 1.348 . S
N123 C125 1.346 . S
C124 C121 1.485 . S
C124 H128 0.960 . S
C124 H129 0.961 . S
C124 H130 0.960 . S
C125 N123 1.346 . S
C125 N126 1.307 . S
C125 C127 1.486 . S
N126 N122 1.370 . S
N126 C125 1.307 . S
C127 C125 1.486 . S
C127 H131 0.960 . S
C127 H132 0.960 . S
C127 H133 0.959 . S
H128 C124 0.960 . S
H129 C124 0.961 . S
H130 C124 0.960 . S
H131 C127 0.960 . S
H132 C127 0.960 . S
H133 C127 0.959 . S
C134 N135 1.317 . S
C134 N136 1.348 . S
C134 C137 1.485 . S
N135 C134 1.317 . S
N135 N139 1.370 . S
N136 C134 1.348 . S
N136 C138 1.346 . S
C137 C134 1.485 . S
C137 H141 0.960 . S
C137 H142 0.961 . S
C137 H143 0.960 . S
C138 N136 1.346 . S
C138 N139 1.307 . S
C138 C140 1.486 . S
N139 N135 1.370 . S
N139 C138 1.307 . S
C140 C138 1.486 . S
C140 H144 0.960 . S
C140 H145 0.960 . S
C140 H146 0.959 . S
H141 C137 0.960 . S
H142 C137 0.961 . S
H143 C137 0.960 . S
H144 C140 0.960 . S
H145 C140 0.960 . S
H146 C140 0.959 . S
C147 C148 1.170 . S
C147 C149 1.380 . S
C148 C147 1.170 . S
C149 C147 1.380 . S
C149 C150 1.170 . S
C150 C149 1.170 . S
C151 C152 1.170 . S
C151 C153 1.380 . S
C152 C151 1.170 . S
C153 C151 1.380 . S
C153 C154 1.170 . S
C154 C153 1.170 . S
C155 C156 1.170 . S
C155 C157 1.380 . S
C156 C155 1.170 . S
C157 C155 1.380 . S
C157 C158 1.170 . S
C158 C157 1.170 . S
C159 C160 1.170 . S
C159 C161 1.380 . S
C160 C159 1.170 . S
C161 C159 1.380 . S
C161 C162 1.170 . S
C162 C161 1.170 . S
C163 C164 1.170 . S
C163 C165 1.380 . S
C164 C163 1.170 . S
C165 C163 1.380 . S
C165 C166 1.170 . S
C166 C165 1.170 . S
C167 C168 1.170 . S
C167 C169 1.380 . S
C168 C167 1.170 . S
C169 C167 1.380 . S
C169 C170 1.170 . S
C170 C169 1.170 . S
C171 C172 1.170 . S
C171 C173 1.380 . S
C172 C171 1.170 . S
C173 C171 1.380 . S
C173 C174 1.170 . S
C174 C173 1.170 . S
C175 C176 1.170 . S
C175 C177 1.380 . S
C176 C175 1.170 . S
C177 C175 1.380 . S
C177 C178 1.170 . S
C178 C177 1.170 . S
C179 C180 1.170 . S
C179 C181 1.380 . S
C180 C179 1.170 . S
C181 C179 1.380 . S
C181 C182 1.170 . S
C182 C181 1.170 . S
C183 C184 1.170 . S
C183 C185 1.380 . S
C184 C183 1.170 . S
C185 C183 1.380 . S
C185 C186 1.170 . S
C186 C185 1.170 . S
C187 C188 1.170 . S
C187 C189 1.380 . S
C188 C187 1.170 . S
C189 C187 1.380 . S
C189 C190 1.170 . S
C190 C189 1.170 . S
C191 C192 1.170 . S
C191 C193 1.380 . S
C192 C191 1.170 . S
C193 C191 1.380 . S
C193 C194 1.170 . S
C194 C193 1.170 . S
C195 C196 1.170 . S
C195 C197 1.380 1_554 S
C196 C195 1.170 . S
C197 C195 1.380 1_556 S
C197 C198 1.170 . S
C198 C197 1.170 . S
C199 C200 1.170 . S
C199 C201 1.380 . S
C200 C199 1.170 . S
C201 C199 1.380 . S
C201 C202 1.170 . S
C202 C201 1.170 . S
C203 C204 1.170 . S
C203 C205 1.380 . S
C204 C203 1.170 . S
C205 C203 1.380 . S
C205 C206 1.170 . S
C206 C205 1.170 . S
C207 C208 1.170 . S
C207 C209 1.380 . S
C208 C207 1.170 . S
C209 C207 1.380 . S
C209 C210 1.170 . S
C210 C209 1.170 . S
C211 C212 1.170 . S
C211 C213 1.380 1_556 S
C212 C211 1.170 . S
C213 C211 1.380 1_554 S
C213 C214 1.170 . S
C214 C213 1.170 . S
C215 C216 1.170 . S
C215 C217 1.380 . S
C216 C215 1.170 . S
C217 C215 1.380 . S
C217 C218 1.170 . S
C218 C217 1.170 . S
C148 C20 1.142 . S
C150 N136 1.192 . S
C152 C41 1.426 . S
C154 N109 1.394 1_655 S
C156 C64 1.409 . S
C158 N122 1.417 1_565 S
C160 C19 1.583 . S
C162 N135 1.588 . S
C166 N110 1.396 . S
C164 C44 1.402 . S
C170 N123 1.390 . S
C168 C67 1.394 . S
C172 C43 1.338 . S
C174 N83 1.362 . S
C176 C66 1.109 . S
C178 N97 1.196 . S
C180 C21 1.398 . S
C182 N71 1.397 . S
C186 N84 1.397 . S
C184 C42 1.344 . S
C190 N96 1.611 . S
C188 C65 1.550 . S
C192 C18 1.391 . S
C194 N70 1.389 . S
C198 N100 1.478 . S
C196 C17 1.540 . S
C200 C39 1.542 . S
C202 N74 1.550 . S
C204 C62 1.548 . S
C206 N87 1.550 . S
C210 N126 1.533 . S
C208 C40 1.538 . S
C214 N139 1.512 . S
C212 C63 1.535 . S
C216 C16 1.523 . S
C218 N113 1.521 . S
