# Generated by pormake.
# Topology anh, (6,3)-cn, num edge types: 1
# Building blocks:
#     Node 0, Type 0, BuildingBlock: BETDAH_clean_sbu_0, # of connection points: 6
#     Node 1, Type 0, BuildingBlock: BETDAH_clean_sbu_0, # of connection points: 6
#     Node 2, Type 0, BuildingBlock: BETDAH_clean_sbu_0, # of connection points: 6
#     Node 3, Type 1, BuildingBlock: BETDAH_clean_linker_0, # of connection points: 3
#     Node 4, Type 1, BuildingBlock: BETDAH_clean_linker_0, # of connection points: 3
#     Node 5, Type 1, BuildingBlock: BETDAH_clean_linker_0, # of connection points: 3
#     Node 6, Type 1, BuildingBlock: BETDAH_clean_linker_0, # of connection points: 3
#     Node 7, Type 1, BuildingBlock: BETDAH_clean_linker_0, # of connection points: 3
#     Node 8, Type 1, BuildingBlock: BETDAH_clean_linker_0, # of connection points: 3
#     Edge 9, Type (0, 1), None
#     Edge 10, Type (0, 1), None
#     Edge 11, Type (0, 1), None
#     Edge 12, Type (0, 1), None
#     Edge 13, Type (0, 1), None
#     Edge 14, Type (0, 1), None
#     Edge 15, Type (0, 1), None
#     Edge 16, Type (0, 1), None
#     Edge 17, Type (0, 1), None
#     Edge 18, Type (0, 1), None
#     Edge 19, Type (0, 1), None
#     Edge 20, Type (0, 1), None
#     Edge 21, Type (0, 1), None
#     Edge 22, Type (0, 1), None
#     Edge 23, Type (0, 1), None
#     Edge 24, Type (0, 1), None
#     Edge 25, Type (0, 1), None
#     Edge 26, Type (0, 1), None
# Relax obj value: 0.398
# Max RMSD: 0.308
# Mean RMSD: 0.153
data_MOF--net-anh--node1-BETDAH_clean_sbu_0--node2-BETDAH_clean_linker_0--edge1-none
_symmetry_space_group_name_H-M    P1
_symmetry_Int_Tables_number       1
_symmetry_cell_setting            triclinic
loop_
_symmetry_equiv_pos_as_xyz
'x, y, z'
_cell_length_a     13.606236
_cell_length_b     20.177455
_cell_length_c     21.204335
_cell_angle_alpha  93.115647
_cell_angle_beta   88.948344
_cell_angle_gamma 139.38644
loop_
_atom_site_label
_atom_site_type_symbol
_atom_site_fract_x
_atom_site_fract_y
_atom_site_fract_z
_atom_type_partial_charge
Ho0 Ho 0.55225 0.71528 0.15504 0.0
Ho1 Ho 0.28511 0.65531 0.1855 0.0
C2 C 0.59603 0.89457 0.17504 0.0
C3 C 0.81047 0.79229 0.13684 0.0
C4 C 0.86975 0.76843 0.17481 0.0
C5 C 0.86855 0.70422 0.14467 0.0
C6 C 0.77899 0.60961 0.1691 0.0
C7 C 0.69287 0.5824 0.22192 0.0
C8 C 0.74115 0.66008 0.26268 0.0
C9 C 0.83702 0.75649 0.23963 0.0
C10 C 0.47302 0.67939 0.27918 0.0
C11 C 1.24808 0.47984 0.1603 0.0
C12 C 1.0506 0.5872 0.23442 0.0
C13 C 0.89369 0.48724 0.21895 0.0
C14 C 0.86112 0.42277 0.16964 0.0
C15 C 0.71803 0.3469 0.13997 0.0
C16 C 0.60603 0.33385 0.16079 0.0
C17 C 0.62963 0.37913 0.22105 0.0
C18 C 0.77489 0.45919 0.24837 0.0
C19 C 0.2875 0.61659 0.06036 0.0
O20 O 0.64021 0.86367 0.14231 0.0
O21 O 0.4625 0.82719 0.20145 0.0
O22 O 0.68927 0.71497 0.10154 0.0
O23 O 0.79601 0.842 0.16796 0.0
O24 O 0.51283 0.64629 0.24844 0.0
O25 O 0.47895 0.72867 0.24287 0.0
O26 O 1.20945 0.51104 0.19769 0.0
O27 O 0.37311 0.54618 0.12825 0.0
O28 O 1.12098 0.65044 0.18862 0.0
O29 O 1.13122 0.58335 0.26211 0.0
O30 O 1.17165 0.56196 0.09477 0.0
O31 O 0.40188 0.69667 0.09274 0.0
H32 H 0.90415 0.71522 0.09641 0.0
H33 H 0.75385 0.55232 0.13989 0.0
H34 H 0.68376 0.64235 0.3062 0.0
H35 H 0.85063 0.81019 0.26691 0.0
H36 H 0.94835 0.43606 0.1506 0.0
H37 H 0.70145 0.30827 0.09642 0.0
H38 H 0.54284 0.36466 0.24286 0.0
H39 H 0.79582 0.5038 0.28915 0.0
Ho40 Ho 0.9963 0.13753 0.46856 0.0
Ho41 Ho 0.7618 0.11807 0.47134 0.0
C42 C 0.65246 0.91513 0.4598 0.0
C43 C 1.1552 0.1129 0.48246 0.0
C44 C 1.1274 1.03296 0.50732 0.0
C45 C 1.08805 1.00638 0.57045 0.0
C46 C 1.06895 0.93375 0.59363 0.0
C47 C 1.08947 0.88727 0.5544 0.0
C48 C 1.12517 0.91147 0.49115 0.0
C49 C 1.14326 0.98357 0.46762 0.0
C50 C 0.92296 0.14856 0.3537 0.0
C51 C 1.11973 0.34567 0.47842 0.0
C52 C 0.60302 0.14294 0.45933 0.0
C53 C 0.63535 0.22818 0.48409 0.0
C54 C 0.77762 0.32989 0.47702 0.0
C55 C 0.81746 0.40987 0.50997 0.0
C56 C 0.71462 0.39077 0.54967 0.0
C57 C 0.56812 0.28883 0.55285 0.0
C58 C 0.53064 0.20865 0.52168 0.0
C59 C 0.82225 0.10201 0.58684 0.0
O60 O 0.78424 0.97204 0.48817 0.0
O61 O 0.62415 0.9589 0.43646 0.0
O62 O 1.08205 0.08787 0.4299 0.0
O63 O 1.15915 0.16602 0.52317 0.0
O64 O 1.05972 0.2067 0.37371 0.0
O65 O 0.83296 0.08652 0.39482 0.0
O66 O 0.97688 0.28977 0.46969 0.0
O67 O 1.1596 0.30422 0.48542 0.0
O68 O 0.57834 0.08784 0.50218 0.0
O69 O 0.6909 0.16364 0.41548 0.0
O70 O 0.68907 1.04611 0.56332 0.0
O71 O 0.9203 0.16601 0.54735 0.0
H72 H 1.07357 1.04224 0.60215 0.0
H73 H 1.04017 0.91468 0.64239 0.0
H74 H 1.14177 0.87615 0.46033 0.0
H75 H 1.17349 1.00273 0.41886 0.0
H76 H 0.86162 0.34799 0.44848 0.0
H77 H 0.93217 0.48598 0.50646 0.0
H78 H 0.48319 0.2699 0.58114 0.0
H79 H 0.42212 0.13107 0.52924 0.0
Ho80 Ho 0.82527 0.62128 0.89405 0.0
Ho81 Ho 0.60815 0.39915 0.86182 0.0
C82 C 0.47862 0.48413 0.86981 0.0
C83 C 1.03132 0.81738 0.88839 0.0
C84 C 1.03469 0.88875 0.86826 0.0
C85 C 1.05521 0.91188 0.80437 0.0
C86 C 1.06275 0.98079 0.785 0.0
C87 C 1.04883 1.02748 0.82867 0.0
C88 C 1.02824 1.0052 0.89242 0.0
C89 C 1.0216 0.93653 0.91216 0.0
C90 C 0.65102 0.49644 0.9895 0.0
C91 C 0.962 0.54103 0.89366 0.0
C92 C 0.47073 0.21544 0.85328 0.0
C93 C 0.53279 0.17987 0.84065 0.0
C94 C 0.67339 0.2333 0.86719 0.0
C95 C 0.74919 0.2159 0.84275 0.0
C96 C 0.68483 0.14357 0.79188 0.0
C97 C 0.53774 0.08376 0.76973 0.0
C98 C 0.46401 0.10293 0.7931 0.0
C99 C 0.70289 0.50849 0.75996 0.0
O100 O 0.62008 0.57347 0.8599 0.0
O101 O 0.44545 0.40408 0.88081 0.0
O102 O 0.96409 0.77104 0.94064 0.0
O103 O 1.00195 0.75669 0.84359 0.0
O104 O 0.68746 0.57623 0.98089 0.0
O105 O 0.71526 0.49159 0.94989 0.0
O106 O 0.83278 0.45623 0.86404 0.0
O107 O 0.98009 0.61314 0.91556 0.0
O108 O 0.47989 0.25868 0.80618 0.0
O109 O 0.50791 0.26539 0.90746 0.0
O110 O 0.56455 0.4201 0.76823 0.0
O111 O 0.7832 0.53508 0.8077 0.0
H112 H 1.06799 0.87801 0.7692 0.0
H113 H 1.08179 0.99899 0.73596 0.0
H114 H 1.01879 1.04155 0.92702 0.0
H115 H 1.00703 0.92132 0.96172 0.0
H116 H 0.72911 0.29277 0.90429 0.0
H117 H 0.86192 0.2636 0.86121 0.0
H118 H 0.48198 1.02514 0.73197 0.0
H119 H 0.35717 0.06175 0.77117 0.0
H120 H 0.66896 0.97072 0.29445 0.0
H121 H 1.07694 0.28582 0.26231 0.0
H122 H 0.79518 0.06607 0.10455 0.0
C123 C 0.74418 1.0306 0.26212 0.0
C124 C 0.71438 1.00506 0.19683 0.0
C125 C 0.87847 0.13017 0.28594 0.0
C126 C 0.9749 0.20869 0.24399 0.0
C127 C 0.94148 0.18708 0.1784 0.0
C128 C 0.81508 0.08421 0.1551 0.0
N129 N 1.03605 0.26574 0.13471 0.0
C130 C 1.14306 0.37064 0.15013 0.0
H131 H 0.61374 0.37709 0.66645 0.0
H132 H 0.93932 0.69712 0.71469 0.0
H133 H 0.93705 0.59721 0.53066 0.0
C134 C 0.70274 0.45458 0.65184 0.0
C135 C 0.76514 0.47507 0.59201 0.0
C136 C 0.76267 0.53383 0.69585 0.0
C137 C 0.88789 0.63527 0.68026 0.0
C138 C 0.94906 0.6571 0.62041 0.0
C139 C 0.88664 0.57766 0.57636 0.0
N140 N 1.08396 0.75893 0.6068 0.0
C141 C 1.0818 0.81906 0.58025 0.0
H142 H 1.13627 0.63063 -0.0007 0.0
H143 H 0.36785 0.56317 0.97201 0.0
H144 H 1.05086 0.46555 0.8285 0.0
C145 C 1.16313 0.60185 0.96821 0.0
C146 C 1.08295 0.55149 0.90998 0.0
C147 C 1.26322 0.60481 -0.00885 0.0
C148 C 0.29545 0.56407 0.95307 0.0
C149 C 1.22205 0.51487 0.89353 0.0
C150 C 1.11269 0.50681 0.87302 0.0
N151 N 1.24588 0.46607 0.85584 0.0
C152 C 0.35832 0.47367 0.86283 0.0
H153 H 0.60821 0.8493 0.3415 0.0
H154 H 0.3483 0.54168 0.37081 0.0
H155 H 0.50219 0.74966 0.5296 0.0
C156 C 0.55166 0.78909 0.37303 0.0
C157 C 0.56071 0.81 0.43769 0.0
C158 C 0.47833 0.69391 0.34846 0.0
C159 C 0.40795 0.61616 0.38975 0.0
C160 C 0.41367 0.63558 0.45559 0.0
C161 C 0.49409 0.73365 0.47912 0.0
N162 N 0.34136 0.55966 0.49978 0.0
C163 C 1.23397 0.45526 0.48498 0.0
H164 H 0.68187 0.11329 0.66597 0.0
H165 H 1.02724 0.14065 0.66184 0.0
H166 H 0.89822 0.16675 0.83971 0.0
C167 C 0.76013 0.12212 0.69119 0.0
C168 C 0.77552 0.13792 0.75739 0.0
C169 C 0.84888 0.12215 0.65626 0.0
C170 C 0.95675 0.13929 0.68818 0.0
C171 C 0.97251 0.15383 0.75459 0.0
C172 C 0.88298 0.15384 0.78877 0.0
N173 N 1.08673 0.17686 0.7869 0.0
C174 C 1.06247 0.10128 0.80788 0.0
H175 H 0.65245 0.37662 0.03521 0.0
H176 H 0.47421 0.47958 0.06992 0.0
H177 H 0.3305 0.24726 0.17914 0.0
C178 C 0.56763 0.36435 0.0574 0.0
C179 C 0.50242 0.31171 0.1135 0.0
C180 C 0.55266 0.42246 0.03903 0.0
C181 C 0.46648 0.42284 0.07629 0.0
C182 C 0.39149 0.36203 0.12887 0.0
C183 C 0.38495 0.29071 0.13735 0.0
N184 N 0.39222 0.40365 0.18492 0.0
C185 C 0.53318 0.4882 0.21413 0.0
loop_
_geom_bond_atom_site_label_1
_geom_bond_atom_site_label_2
_geom_bond_distance
_geom_bond_site_symmetry_2
_ccdc_geom_bond_type
Ho0 C3 2.811 . S
Ho0 O20 2.322 . S
Ho0 O22 2.378 . S
Ho0 O23 2.524 . S
Ho0 O24 2.381 . S
Ho0 O25 2.669 . S
Ho0 O27 2.346 1_455 S
Ho0 O31 2.305 . S
Ho1 C12 2.811 . S
Ho1 O21 2.346 1_655 S
Ho1 O25 2.305 1_655 S
Ho1 O26 2.322 . S
Ho1 O28 2.378 . S
Ho1 O29 2.524 . S
Ho1 O30 2.381 . S
Ho1 O31 2.669 1_655 S
C2 O20 1.259 . S
C2 O21 1.268 . S
C3 Ho0 2.811 . S
C3 C4 1.488 . S
C3 O22 1.215 . S
C3 O23 1.289 . S
C4 C3 1.488 . S
C4 C5 1.348 . S
C4 C9 1.413 . S
C5 C4 1.348 . S
C5 C6 1.442 . S
C5 H32 0.930 . S
C6 C5 1.442 . S
C6 C7 1.381 . S
C6 H33 0.931 . S
C7 C6 1.381 . S
C7 C8 1.321 . S
C8 C7 1.321 . S
C8 C9 1.403 . S
C8 H34 0.934 . S
C9 C4 1.413 . S
C9 C8 1.403 . S
C9 H35 0.930 . S
C10 O24 1.275 . S
C10 O25 1.256 . S
C11 O26 1.259 . S
C11 O27 1.268 . S
C12 Ho1 2.811 . S
C12 C13 1.488 . S
C12 O28 1.215 . S
C12 O29 1.289 . S
C13 C12 1.488 . S
C13 C14 1.348 . S
C13 C18 1.413 . S
C14 C13 1.348 . S
C14 C15 1.442 . S
C14 H36 0.930 . S
C15 C14 1.442 . S
C15 C16 1.381 . S
C15 H37 0.931 . S
C16 C15 1.381 . S
C16 C17 1.321 . S
C17 C16 1.321 . S
C17 C18 1.403 . S
C17 H38 0.934 . S
C18 C13 1.413 . S
C18 C17 1.403 . S
C18 H39 0.930 . S
C19 O30 1.275 1_455 S
C19 O31 1.256 . S
O20 Ho0 2.322 . S
O20 C2 1.259 . S
O21 Ho1 2.346 1_455 S
O21 C2 1.268 . S
O22 Ho0 2.378 . S
O22 C3 1.215 . S
O23 Ho0 2.524 . S
O23 C3 1.289 . S
O24 Ho0 2.381 . S
O24 C10 1.275 . S
O25 Ho0 2.669 . S
O25 Ho1 2.305 1_455 S
O25 C10 1.256 . S
O26 Ho1 2.322 . S
O26 C11 1.259 . S
O27 Ho0 2.346 1_655 S
O27 C11 1.268 . S
O28 Ho1 2.378 . S
O28 C12 1.215 . S
O29 Ho1 2.524 . S
O29 C12 1.289 . S
O30 Ho1 2.381 . S
O30 C19 1.275 1_655 S
O31 Ho0 2.305 . S
O31 Ho1 2.669 1_455 S
O31 C19 1.256 . S
H32 C5 0.930 . S
H33 C6 0.931 . S
H34 C8 0.934 . S
H35 C9 0.930 . S
H36 C14 0.930 . S
H37 C15 0.931 . S
H38 C17 0.934 . S
H39 C18 0.930 . S
Ho40 C43 2.827 . S
Ho40 O60 2.324 . S
Ho40 O62 2.394 . S
Ho40 O63 2.537 . S
Ho40 O64 2.377 . S
Ho40 O65 2.656 1_565 S
Ho40 O67 2.332 1_565 S
Ho40 O71 2.297 1_565 S
Ho41 C52 2.811 . S
Ho41 O61 2.346 1_545 S
Ho41 O65 2.305 . S
Ho41 O66 2.322 . S
Ho41 O68 2.378 . S
Ho41 O69 2.524 . S
Ho41 O70 2.381 . S
Ho41 O71 2.669 . S
C42 O60 1.259 . S
C42 O61 1.268 . S
C43 Ho40 2.827 . S
C43 C44 1.488 . S
C43 O62 1.215 . S
C43 O63 1.289 . S
C44 C43 1.488 . S
C44 C45 1.348 . S
C44 C49 1.413 . S
C45 C44 1.348 . S
C45 C46 1.442 . S
C45 H72 0.930 . S
C46 C45 1.442 . S
C46 C47 1.381 . S
C46 H73 0.931 . S
C47 C46 1.381 . S
C47 C48 1.321 . S
C48 C47 1.321 . S
C48 C49 1.403 . S
C48 H74 0.934 . S
C49 C44 1.413 . S
C49 C48 1.403 . S
C49 H75 0.930 . S
C50 O64 1.275 1_545 S
C50 O65 1.256 . S
C51 O66 1.259 . S
C51 O67 1.268 . S
C52 Ho41 2.811 . S
C52 C53 1.488 . S
C52 O68 1.215 . S
C52 O69 1.289 . S
C53 C52 1.488 . S
C53 C54 1.348 . S
C53 C58 1.413 . S
C54 C53 1.348 . S
C54 C55 1.442 . S
C54 H76 0.930 . S
C55 C54 1.442 . S
C55 C56 1.381 . S
C55 H77 0.931 . S
C56 C55 1.381 . S
C56 C57 1.321 . S
C57 C56 1.321 . S
C57 C58 1.403 . S
C57 H78 0.934 . S
C58 C53 1.413 . S
C58 C57 1.403 . S
C58 H79 0.930 . S
C59 O70 1.275 . S
C59 O71 1.256 . S
O60 Ho40 2.324 . S
O60 C42 1.259 . S
O61 Ho41 2.346 1_565 S
O61 C42 1.268 . S
O62 Ho40 2.394 . S
O62 C43 1.215 . S
O63 Ho40 2.537 . S
O63 C43 1.289 . S
O64 Ho40 2.377 . S
O64 C50 1.275 1_565 S
O65 Ho40 2.656 1_545 S
O65 Ho41 2.305 . S
O65 C50 1.256 . S
O66 Ho41 2.322 . S
O66 C51 1.259 . S
O67 Ho40 2.332 1_545 S
O67 C51 1.268 . S
O68 Ho41 2.378 . S
O68 C52 1.215 . S
O69 Ho41 2.524 . S
O69 C52 1.289 . S
O70 Ho41 2.381 . S
O70 C59 1.275 . S
O71 Ho40 2.297 1_545 S
O71 Ho41 2.669 . S
O71 C59 1.256 . S
H72 C45 0.930 . S
H73 C46 0.931 . S
H74 C48 0.934 . S
H75 C49 0.930 . S
H76 C54 0.930 . S
H77 C55 0.931 . S
H78 C57 0.934 . S
H79 C58 0.930 . S
Ho80 C83 2.811 . S
Ho80 O100 2.322 . S
Ho80 O102 2.378 . S
Ho80 O103 2.524 . S
Ho80 O104 2.381 1_556 S
Ho80 O105 2.669 . S
Ho80 O107 2.346 . S
Ho80 O111 2.305 . S
Ho81 C92 2.811 . S
Ho81 O101 2.346 . S
Ho81 O105 2.305 . S
Ho81 O106 2.322 . S
Ho81 O108 2.378 . S
Ho81 O109 2.524 . S
Ho81 O110 2.381 . S
Ho81 O111 2.669 . S
C82 O100 1.259 . S
C82 O101 1.268 . S
C83 Ho80 2.811 . S
C83 C84 1.488 . S
C83 O102 1.215 . S
C83 O103 1.289 . S
C84 C83 1.488 . S
C84 C85 1.348 . S
C84 C89 1.413 . S
C85 C84 1.348 . S
C85 C86 1.442 . S
C85 H112 0.930 . S
C86 C85 1.442 . S
C86 C87 1.381 . S
C86 H113 0.931 . S
C87 C86 1.381 . S
C87 C88 1.321 . S
C88 C87 1.321 . S
C88 C89 1.403 . S
C88 H114 0.934 1_566 S
C89 C84 1.413 . S
C89 C88 1.403 . S
C89 H115 0.930 1_556 S
C90 O104 1.277 . S
C90 O105 1.240 1_554 S
C91 O106 1.259 . S
C91 O107 1.268 . S
C92 Ho81 2.811 . S
C92 C93 1.488 . S
C92 O108 1.215 . S
C92 O109 1.289 . S
C93 C92 1.488 . S
C93 C94 1.348 . S
C93 C98 1.413 . S
C94 C93 1.348 . S
C94 C95 1.442 . S
C94 H116 0.930 . S
C95 C94 1.442 . S
C95 C96 1.381 . S
C95 H117 0.931 . S
C96 C95 1.381 . S
C96 C97 1.321 . S
C97 C96 1.321 . S
C97 C98 1.403 . S
C97 H118 0.934 . S
C98 C93 1.413 . S
C98 C97 1.403 . S
C98 H119 0.930 . S
C99 O110 1.275 . S
C99 O111 1.256 . S
O100 Ho80 2.322 . S
O100 C82 1.259 . S
O101 Ho81 2.346 . S
O101 C82 1.268 . S
O102 Ho80 2.378 . S
O102 C83 1.215 . S
O103 Ho80 2.524 . S
O103 C83 1.289 . S
O104 Ho80 2.381 1_554 S
O104 C90 1.277 . S
O105 Ho80 2.669 . S
O105 Ho81 2.305 . S
O105 C90 1.240 1_556 S
O106 Ho81 2.322 . S
O106 C91 1.259 . S
O107 Ho80 2.346 . S
O107 C91 1.268 . S
O108 Ho81 2.378 . S
O108 C92 1.215 . S
O109 Ho81 2.524 . S
O109 C92 1.289 . S
O110 Ho81 2.381 . S
O110 C99 1.275 . S
O111 Ho80 2.305 . S
O111 Ho81 2.669 . S
O111 C99 1.256 . S
H112 C85 0.930 . S
H113 C86 0.931 . S
H114 C88 0.934 1_544 S
H115 C89 0.930 1_554 S
H116 C94 0.930 . S
H117 C95 0.931 . S
H118 C97 0.934 . S
H119 C98 0.930 . S
H120 C123 0.929 . S
H121 C126 0.929 . S
H122 C128 0.930 . S
C123 H120 0.929 . S
C123 C124 1.398 . S
C123 C125 1.396 1_565 S
C124 C123 1.398 . S
C124 C128 1.407 . S
C125 C123 1.396 1_545 S
C125 C126 1.394 . S
C126 H121 0.929 . S
C126 C125 1.394 . S
C126 C127 1.382 . S
C127 C126 1.382 . S
C127 C128 1.392 1_545 S
C127 N129 1.420 . S
C128 H122 0.930 . S
C128 C124 1.407 . S
C128 C127 1.392 1_565 S
N129 C127 1.420 . S
N129 C130 1.244 . S
C130 N129 1.244 . S
H131 C134 0.929 . S
H132 C137 0.929 . S
H133 C139 0.930 . S
C134 H131 0.929 . S
C134 C135 1.398 . S
C134 C136 1.396 . S
C135 C134 1.398 . S
C135 C139 1.407 . S
C136 C134 1.396 . S
C136 C137 1.394 . S
C137 H132 0.929 . S
C137 C136 1.394 . S
C137 C138 1.382 . S
C138 C137 1.382 . S
C138 C139 1.392 . S
C138 N140 1.420 . S
C139 H133 0.930 . S
C139 C135 1.407 . S
C139 C138 1.392 . S
N140 C138 1.420 . S
N140 C141 1.244 . S
C141 N140 1.244 . S
H142 C145 0.929 1_655 S
H143 C148 0.929 . S
H144 C150 0.930 . S
C145 H142 0.929 1_455 S
C145 C146 1.398 1_455 S
C145 C147 1.396 1_556 S
C146 C145 1.398 1_655 S
C146 C150 1.407 1_655 S
C147 C145 1.396 1_554 S
C147 C148 1.394 1_554 S
C148 H143 0.929 . S
C148 C147 1.394 1_556 S
C148 C149 1.382 . S
C149 C148 1.382 . S
C149 C150 1.392 . S
C149 N151 1.420 . S
C150 H144 0.930 . S
C150 C146 1.407 1_455 S
C150 C149 1.392 . S
N151 C149 1.420 . S
N151 C152 1.244 . S
C152 N151 1.244 . S
H153 C156 0.929 . S
H154 C159 0.929 . S
H155 C161 0.930 . S
C156 H153 0.929 . S
C156 C157 1.398 . S
C156 C158 1.396 . S
C157 C156 1.398 . S
C157 C161 1.407 . S
C158 C156 1.396 . S
C158 C159 1.394 1_455 S
C159 H154 0.929 . S
C159 C158 1.394 1_655 S
C159 C160 1.382 1_655 S
C160 C159 1.382 1_455 S
C160 C161 1.392 . S
C160 N162 1.420 1_455 S
C161 H155 0.930 . S
C161 C157 1.407 . S
C161 C160 1.392 . S
N162 C160 1.420 1_655 S
N162 C163 1.244 . S
C163 N162 1.244 . S
H164 C167 0.929 . S
H165 C170 0.933 . S
H166 C172 0.930 . S
C167 H164 0.929 . S
C167 C168 1.398 . S
C167 C169 1.396 . S
C168 C167 1.398 . S
C168 C172 1.407 . S
C169 C167 1.396 . S
C169 C170 1.390 1_545 S
C170 H165 0.933 . S
C170 C169 1.390 1_565 S
C170 C171 1.382 1_565 S
C171 C170 1.382 1_545 S
C171 C172 1.392 . S
C171 N173 1.420 1_545 S
C172 H166 0.930 . S
C172 C168 1.407 . S
C172 C171 1.392 . S
N173 C171 1.420 1_565 S
N173 C174 1.244 . S
C174 N173 1.244 . S
H175 C178 0.929 1_556 S
H176 C181 0.929 1_556 S
H177 C183 0.930 . S
C178 H175 0.929 1_554 S
C178 C179 1.398 . S
C178 C180 1.396 1_554 S
C179 C178 1.398 . S
C179 C183 1.407 . S
C180 C178 1.396 1_556 S
C180 C181 1.394 1_556 S
C181 H176 0.929 1_554 S
C181 C180 1.394 1_554 S
C181 C182 1.382 . S
C182 C181 1.382 . S
C182 C183 1.392 . S
C182 N184 1.420 . S
C183 H177 0.930 . S
C183 C179 1.407 . S
C183 C182 1.392 . S
N184 C182 1.420 . S
N184 C185 1.244 . S
C185 N184 1.244 . S
C7 C185 4.717 . S
C51 C163 2.391 . S
C87 C174 3.420 . S
C16 C179 3.058 . S
C157 C42 2.409 . S
C168 C96 1.782 . S
C47 C141 2.350 . S
C91 C146 4.755 . S
C2 C124 2.641 . S
C135 C56 2.301 . S
C152 C82 4.734 . S
C11 C130 2.516 . S
C147 C19 1.941 . S
C50 C125 1.106 . S
C99 C136 1.412 . S
C169 C59 1.306 . S
C180 C90 1.755 1_556 S
C10 C158 1.026 . S
