# Generated by pormake.
# Topology ftw, (4,12)-cn, num edge types: 1
# Building blocks:
#     Node 0, Type 0, BuildingBlock: KUFVIS_clean_linker_0, # of connection points: 4
#     Node 1, Type 0, BuildingBlock: KUFVIS_clean_linker_0, # of connection points: 4
#     Node 2, Type 0, BuildingBlock: KUFVIS_clean_linker_0, # of connection points: 4
#     Node 3, Type 1, BuildingBlock: EZIPEK_clean_sbu_0, # of connection points: 12
#     Edge 4, Type (0, 1), BuildingBlock: AJUNOK_clean_linker_0, # of connection points: 2
#     Edge 5, Type (0, 1), BuildingBlock: AJUNOK_clean_linker_0, # of connection points: 2
#     Edge 6, Type (0, 1), BuildingBlock: AJUNOK_clean_linker_0, # of connection points: 2
#     Edge 7, Type (0, 1), BuildingBlock: AJUNOK_clean_linker_0, # of connection points: 2
#     Edge 8, Type (0, 1), BuildingBlock: AJUNOK_clean_linker_0, # of connection points: 2
#     Edge 9, Type (0, 1), BuildingBlock: AJUNOK_clean_linker_0, # of connection points: 2
#     Edge 10, Type (0, 1), BuildingBlock: AJUNOK_clean_linker_0, # of connection points: 2
#     Edge 11, Type (0, 1), BuildingBlock: AJUNOK_clean_linker_0, # of connection points: 2
#     Edge 12, Type (0, 1), BuildingBlock: AJUNOK_clean_linker_0, # of connection points: 2
#     Edge 13, Type (0, 1), BuildingBlock: AJUNOK_clean_linker_0, # of connection points: 2
#     Edge 14, Type (0, 1), BuildingBlock: AJUNOK_clean_linker_0, # of connection points: 2
#     Edge 15, Type (0, 1), BuildingBlock: AJUNOK_clean_linker_0, # of connection points: 2
# Relax obj value: 0.081
# Max RMSD: 0.235
# Mean RMSD: 0.179
data_MOF--net-ftw--node1-EZIPEK_clean_sbu_0--node2-KUFVIS_clean_linker_0--edge1-AJUNOK_clean_linker_0
_symmetry_space_group_name_H-M    P1
_symmetry_Int_Tables_number       1
_symmetry_cell_setting            triclinic
loop_
_symmetry_equiv_pos_as_xyz
'x, y, z'
_cell_length_a     18.341267
_cell_length_b     19.002697
_cell_length_c     18.502982
_cell_angle_alpha  90.069514
_cell_angle_beta   89.861727
_cell_angle_gamma 89.939025
loop_
_atom_site_label
_atom_site_type_symbol
_atom_site_fract_x
_atom_site_fract_y
_atom_site_fract_z
_atom_type_partial_charge
H0 H -0.01131 0.30041 0.52718 0.0
H1 H 0.01075 0.49221 0.64505 0.0
H2 H 0.96531 0.49533 0.41503 0.0
H3 H 0.00787 0.59875 0.41449 0.0
H4 H -0.01004 0.79221 0.53097 0.0
H5 H 0.98058 0.59903 0.64733 0.0
C6 C -0.01119 0.35744 0.52782 0.0
C7 C 0.98032 0.39454 0.46275 0.0
C8 C -0.0024 0.39303 0.59377 0.0
C9 C -0.00039 0.46692 0.59406 0.0
C10 C -0.0106 0.50643 0.52986 0.0
C11 C 0.97782 0.46846 0.46482 0.0
C12 C -0.00914 0.58631 0.53042 0.0
C13 C -0.00169 0.62508 0.4653 0.0
C14 C -0.00435 0.69908 0.46453 0.0
C15 C -0.00818 0.73519 0.53059 0.0
C16 C -0.00971 0.69885 0.59648 0.0
C17 C -0.01384 0.62504 0.59587 0.0
H18 H 0.49457 1.02833 0.77936 0.0
H19 H 0.60176 0.06262 0.57751 0.0
H20 H 0.37391 1.005 0.58293 0.0
H21 H 0.3684 0.06891 0.48525 0.0
H22 H 0.473 0.05225 0.2791 0.0
H23 H 0.5978 1.01882 0.47088 0.0
C24 C 0.49228 1.02896 0.72083 0.0
C25 C 0.42604 1.01751 0.68522 0.0
C26 C 0.55597 1.04233 0.68133 0.0
C27 C 0.55247 0.04888 0.60628 0.0
C28 C 0.48685 1.03616 0.56922 0.0
C29 C 0.42445 1.01838 0.60963 0.0
C30 C 0.48325 1.04102 0.48893 0.0
C31 C 0.41708 0.05728 0.45431 0.0
C32 C 0.41287 0.06027 0.37902 0.0
C33 C 0.47601 0.05018 0.33758 0.0
C34 C 0.54316 1.03733 0.37098 0.0
C35 C 0.54597 1.03066 0.44619 0.0
H36 H 0.48252 0.79019 0.02718 0.0
H37 H 0.59653 0.59961 0.97754 0.0
H38 H 0.36919 0.59504 0.0404 0.0
H39 H 0.36768 0.49254 0.99306 0.0
H40 H 0.48696 0.3003 1.0115 0.0
H41 H 0.60283 0.4947 1.0183 0.0
C42 C 0.4831 0.73343 0.02163 0.0
C43 C 0.41766 0.69625 0.02954 0.0
C44 C 0.54884 0.69841 1.00637 0.0
C45 C 0.54748 0.62499 0.99657 0.0
C46 C 0.4837 0.58525 1.01021 0.0
C47 C 0.41906 0.62244 0.02743 0.0
C48 C 0.48487 0.50577 1.00774 0.0
C49 C 0.41949 0.46666 1.00095 0.0
C50 C 0.41987 0.39282 1.00273 0.0
C51 C 0.48645 0.35727 1.00831 0.0
C52 C 0.55253 0.39403 1.00969 0.0
C53 C 0.55132 0.46785 1.01264 0.0
C54 C 0.00029 0.21487 0.8499 0.0
C55 C 0.97495 0.21763 0.20474 0.0
C56 C -0.00739 0.87449 0.85362 0.0
C57 C -0.01205 0.87772 0.20801 0.0
C58 C 0.16147 0.87545 0.04292 0.0
C59 C 0.16494 0.2133 1.01848 0.0
C60 C 0.80625 0.87844 1.01755 0.0
C61 C 0.81032 0.21724 1.01598 0.0
C62 C 0.80278 1.04534 0.19426 0.0
C63 C 0.15453 0.06454 0.20709 0.0
C64 C 0.81789 1.04526 0.84916 0.0
C65 C 0.16915 1.02417 0.86443 0.0
Eu66 Eu -0.01274 0.1826 0.0274 0.0
O67 O 0.04715 0.11001 0.09465 0.0
O68 O 0.92591 0.11018 0.96123 0.0
Eu69 Eu 0.12066 1.04488 0.034 0.0
Eu70 Eu 0.85154 0.04746 0.02338 0.0
O71 O 0.05308 0.10896 0.96633 0.0
O72 O 0.92076 0.11107 0.08973 0.0
Eu73 Eu -0.00777 1.04517 0.89209 0.0
Eu74 Eu 0.98039 0.04732 0.16539 0.0
O75 O 0.05049 0.9816 0.96852 0.0
O76 O 0.0461 0.98228 0.09597 0.0
O77 O 0.9184 0.9829 0.0918 0.0
O78 O 0.9253 0.98276 0.96287 0.0
Eu79 Eu -0.01582 0.90983 0.03033 0.0
O80 O -0.00845 0.23904 0.91758 0.0
O81 O -0.01589 0.24054 0.13666 0.0
O82 O -0.01172 0.8513 0.9219 0.0
O83 O -0.01698 0.85347 0.14004 0.0
O84 O 0.18149 0.94263 0.04916 0.0
O85 O 0.18379 0.14553 1.01829 0.0
O86 O 0.78757 0.94628 1.01766 0.0
O87 O 0.7902 0.1499 1.01488 0.0
O88 O 0.87012 1.04051 0.22086 0.0
O89 O 0.08564 0.05762 0.22938 0.0
O90 O 0.88717 0.04793 0.82735 0.0
O91 O 0.10261 1.0343 0.8373 0.0
O92 O 0.87433 0.8537 0.02342 0.0
O93 O 0.09337 0.85237 0.03272 0.0
O94 O 0.87858 0.24106 0.02255 0.0
O95 O 0.09723 0.23851 0.02597 0.0
O96 O 0.97 0.15044 0.22497 0.0
O97 O -0.01081 0.94538 0.22742 0.0
O98 O 0.00321 0.14725 0.83056 0.0
O99 O -0.00641 0.9416 0.83268 0.0
O100 O 0.18676 1.02601 0.93397 0.0
O101 O 0.17779 0.06118 0.13917 0.0
O102 O 0.79438 1.04366 0.91701 0.0
O103 O 0.78499 0.05099 0.12496 0.0
C104 C 0.92915 0.29557 0.38831 0.0
C105 C 0.97411 0.35534 0.39276 0.0
C106 C 0.9276 0.25356 0.32599 0.0
C107 C 0.97055 0.26953 0.26491 0.0
H108 H 0.89565 0.2803 0.43395 0.0
H109 H 0.8933 0.20715 0.32627 0.0
S110 S 0.09667 0.42091 0.24749 0.0
N111 N 0.06207 0.42904 0.32961 0.0
N112 N 0.058 0.35044 0.21204 0.0
C113 C 0.01365 0.3306 0.26726 0.0
C114 C 0.01571 0.37333 0.3312 0.0
C115 C 0.62186 0.09133 0.27675 0.0
C116 C 0.61113 1.03744 0.32769 0.0
C117 C 0.68546 0.09451 0.23549 0.0
C118 C 0.74119 1.04472 0.24456 0.0
H119 H 0.58084 0.13164 0.2688 0.0
H120 H 0.69097 0.13611 0.1958 0.0
S121 S 0.73997 0.89196 0.36843 0.0
N122 N 0.66106 0.9316 0.38314 0.0
N123 N 0.78232 0.93952 0.30659 0.0
C124 C 0.73225 0.99119 0.2958 0.0
C125 C 0.66671 0.98707 0.33718 0.0
C126 C 0.03996 0.80122 0.39008 0.0
C127 C -0.00226 0.73956 0.39514 0.0
C128 C 0.03776 0.84399 0.32846 0.0
C129 C -0.00588 0.82668 0.26851 0.0
H130 H 0.07441 0.81727 0.4346 0.0
H131 H 0.07019 0.89164 0.32814 0.0
S132 S 0.87438 0.67052 0.25306 0.0
N133 N 0.91114 0.66322 0.33401 0.0
N134 N 0.90907 0.74271 0.21718 0.0
C135 C 0.95373 0.76396 0.27138 0.0
C136 C 0.9551 0.72069 0.33482 0.0
C137 C 0.28221 1.02809 0.36106 0.0
C138 C 0.34189 0.07145 0.34335 0.0
C139 C 0.21798 1.03 0.32022 0.0
C140 C 0.21211 0.0752 0.26066 0.0
H141 H 0.28677 0.9896 0.40397 0.0
H142 H 0.17503 0.99264 0.33214 0.0
S143 S 0.34713 0.20817 0.20069 0.0
N144 N 0.38679 0.16769 0.26911 0.0
N145 N 0.26644 0.17071 0.19181 0.0
C146 C 0.26897 0.12266 0.24618 0.0
C147 C 0.33396 0.12088 0.28767 0.0
C148 C 0.94607 0.72659 0.72307 0.0
C149 C -0.00456 0.73873 0.66583 0.0
C150 C 0.94763 0.76797 0.78635 0.0
C151 C -0.00153 0.82279 0.7941 0.0
H152 H 0.90431 0.68667 0.71781 0.0
H153 H 0.90676 0.75925 0.82774 0.0
S154 S 0.14635 0.86891 0.66564 0.0
N155 N 0.10199 0.80418 0.62558 0.0
N156 N 0.10379 0.88223 0.74317 0.0
C157 C 0.05036 0.83281 0.73913 0.0
C158 C 0.04914 0.79076 0.67535 0.0
C159 C 0.29579 0.04934 0.70628 0.0
C160 C 0.35739 1.00977 0.72662 0.0
C161 C 0.23283 0.05007 0.74894 0.0
C162 C 0.22996 1.01264 0.81402 0.0
H163 H 0.29724 0.0825 0.65869 0.0
H164 H 0.18762 0.08285 0.73279 0.0
S165 S 0.37043 0.88998 0.88429 0.0
N166 N 0.40702 0.92345 0.81027 0.0
N167 N 0.28928 0.927 0.89198 0.0
C168 C 0.28905 0.96914 0.83262 0.0
C169 C 0.35276 0.96736 0.78862 0.0
C170 C 0.95863 0.36693 0.72204 0.0
C171 C 0.00458 0.35248 0.66254 0.0
C172 C 0.95973 0.3245 0.78455 0.0
C173 C 0.0067 0.26611 0.78952 0.0
H174 H 0.91961 0.40966 0.71914 0.0
H175 H 0.92135 0.33555 0.82769 0.0
S176 S 0.14574 0.21306 0.65379 0.0
N177 N 0.10408 0.28091 0.61659 0.0
N178 N 0.10578 0.20117 0.73291 0.0
C179 C 0.05548 0.2537 0.73202 0.0
C180 C 0.05453 0.29682 0.66887 0.0
C181 C 0.64535 0.98584 0.76262 0.0
C182 C 0.62707 1.04303 0.71822 0.0
C183 C 0.7108 0.9849 0.8006 0.0
C184 C 0.76019 1.04093 0.79534 0.0
H185 H 0.60823 0.94191 0.76888 0.0
H186 H 0.72188 0.94109 0.83635 0.0
S187 S 0.73947 0.20197 0.68518 0.0
N188 N 0.66452 0.15627 0.66927 0.0
N189 N 0.78848 0.15412 0.74166 0.0
C190 C 0.74441 0.09717 0.74912 0.0
C191 C 0.6774 0.09833 0.71024 0.0
C192 C 0.2927 0.36792 0.04696 0.0
C193 C 0.35083 0.35189 0.99974 0.0
C194 C 0.2307 0.32459 0.05088 0.0
C195 C 0.22531 0.26364 1.00811 0.0
H196 H 0.29645 0.4126 0.08318 0.0
H197 H 0.1884 0.33711 0.0898 0.0
S198 S 0.35708 0.20428 0.86821 0.0
N199 N 0.39463 0.27542 0.90339 0.0
N200 N 0.27934 0.19346 0.91193 0.0
C201 C 0.28124 0.24912 0.95819 0.0
C202 C 0.3437 0.29336 0.95368 0.0
C203 C 0.34379 0.79253 0.08699 0.0
C204 C 0.34784 0.73542 0.03865 0.0
C205 C 0.28197 0.83579 0.08995 0.0
C206 C 0.22135 0.82328 0.0453 0.0
H207 H 0.38949 0.80489 0.12171 0.0
H208 H 0.28224 0.88032 0.12662 0.0
S209 S 0.20408 0.68098 0.90923 0.0
N210 N 0.28555 0.66879 0.94497 0.0
N211 N 0.16871 0.74945 0.95179 0.0
C212 C 0.22343 0.76503 0.99851 0.0
C213 C 0.2868 0.72126 0.99493 0.0
C214 C 0.67956 0.3678 0.05498 0.0
C215 C 0.62244 0.3542 1.00607 0.0
C216 C 0.74276 0.32566 0.05578 0.0
C217 C 0.75034 0.26848 1.00801 0.0
H218 H 0.67417 0.40944 0.09468 0.0
H219 H 0.78416 0.33574 0.09613 0.0
S220 S 0.622 0.21738 0.86258 0.0
N221 N 0.58228 0.28481 0.90297 0.0
N222 N 0.69942 0.20486 0.90603 0.0
C223 C 0.69552 0.25679 0.95656 0.0
C224 C 0.63199 0.29984 0.95516 0.0
C225 C 0.61867 0.80716 0.972 0.0
C226 C 0.61852 0.73925 1.00234 0.0
C227 C 0.68 0.85064 0.97623 0.0
C228 C 0.74496 0.82787 1.00928 0.0
H229 H 0.57043 0.82776 0.94582 0.0
H230 H 0.67583 0.90317 0.95393 0.0
S231 S 0.77649 0.65217 0.09053 0.0
N232 N 0.69078 0.65001 0.06385 0.0
N233 N 0.80744 0.73067 0.06782 0.0
C234 C 0.74743 0.75864 0.03596 0.0
C235 C 0.68406 0.71466 0.03327 0.0
loop_
_geom_bond_atom_site_label_1
_geom_bond_atom_site_label_2
_geom_bond_distance
_geom_bond_site_symmetry_2
_ccdc_geom_bond_type
H0 C6 0.930 1_655 S
H1 C9 0.931 . S
H2 C11 0.932 . S
H3 C13 0.930 . S
H4 C15 0.930 . S
H5 C17 0.931 . S
C6 H0 0.930 1_455 S
C6 C7 1.380 1_455 S
C6 C8 1.394 . S
C7 C6 1.380 1_655 S
C7 C11 1.383 . S
C8 C6 1.394 . S
C8 C9 1.400 . S
C9 H1 0.931 . S
C9 C8 1.400 . S
C9 C10 1.375 . S
C10 C9 1.375 . S
C10 C11 1.413 1_455 S
C10 C12 1.501 . S
C11 H2 0.932 . S
C11 C7 1.383 . S
C11 C10 1.413 1_655 S
C12 C10 1.501 . S
C12 C13 1.384 . S
C12 C17 1.407 1_455 S
C13 H3 0.930 . S
C13 C12 1.384 . S
C13 C14 1.389 . S
C14 C13 1.389 . S
C14 C15 1.405 . S
C15 H4 0.930 . S
C15 C14 1.405 . S
C15 C16 1.364 1_455 S
C16 C15 1.364 1_655 S
C16 C17 1.400 . S
C17 H5 0.931 . S
C17 C12 1.407 1_655 S
C17 C16 1.400 . S
H18 C24 0.930 . S
H19 C27 0.931 . S
H20 C29 0.931 . S
H21 C31 0.930 . S
H22 C33 0.930 . S
H23 C35 0.931 . S
C24 H18 0.930 . S
C24 C25 1.380 . S
C24 C26 1.394 1_545 S
C25 C24 1.380 . S
C25 C29 1.382 . S
C26 C24 1.394 1_565 S
C26 C27 1.400 . S
C27 H19 0.931 . S
C27 C26 1.400 . S
C27 C28 1.375 . S
C28 C27 1.375 . S
C28 C29 1.415 1_565 S
C28 C30 1.501 . S
C29 H20 0.931 . S
C29 C25 1.382 . S
C29 C28 1.415 1_545 S
C30 C28 1.501 . S
C30 C31 1.384 . S
C30 C35 1.408 1_565 S
C31 H21 0.930 . S
C31 C30 1.384 . S
C31 C32 1.389 . S
C32 C31 1.389 . S
C32 C33 1.405 . S
C33 H22 0.930 . S
C33 C32 1.405 . S
C33 C34 1.364 1_565 S
C34 C33 1.364 1_545 S
C34 C35 1.400 . S
C35 H23 0.931 . S
C35 C30 1.408 1_545 S
C35 C34 1.400 . S
H36 C42 0.928 1_556 S
H37 C45 0.931 . S
H38 C47 0.930 1_556 S
H39 C49 0.930 . S
H40 C51 0.930 . S
H41 C53 0.931 1_556 S
C42 H36 0.928 1_554 S
C42 C43 1.380 1_554 S
C42 C44 1.394 . S
C43 C42 1.380 1_556 S
C43 C47 1.382 1_556 S
C44 C42 1.394 . S
C44 C45 1.400 . S
C45 H37 0.931 . S
C45 C44 1.400 . S
C45 C46 1.375 . S
C46 C45 1.375 . S
C46 C47 1.416 . S
C46 C48 1.501 . S
C47 H38 0.930 1_554 S
C47 C43 1.382 1_554 S
C47 C46 1.416 . S
C48 C46 1.501 . S
C48 C49 1.384 . S
C48 C53 1.408 . S
C49 H39 0.930 . S
C49 C48 1.384 . S
C49 C50 1.389 . S
C50 C49 1.389 . S
C50 C51 1.405 . S
C51 H40 0.930 . S
C51 C50 1.405 . S
C51 C52 1.365 . S
C52 C51 1.365 . S
C52 C53 1.400 . S
C53 H41 0.931 1_554 S
C53 C48 1.408 . S
C53 C52 1.400 . S
C54 O80 1.283 . S
C54 O98 1.283 . S
C55 O81 1.283 . S
C55 O96 1.283 . S
C56 O82 1.283 . S
C56 O99 1.283 . S
C57 O83 1.283 . S
C57 O97 1.283 . S
C58 O84 1.283 . S
C58 O93 1.283 . S
C59 O85 1.283 . S
C59 O95 1.283 . S
C60 O86 1.283 . S
C60 O92 1.283 . S
C61 O87 1.283 . S
C61 O94 1.283 . S
C62 O88 1.283 . S
C62 O103 1.283 . S
C63 O89 1.283 . S
C63 O101 1.283 . S
C64 O90 1.283 . S
C64 O102 1.283 . S
C65 O91 1.283 . S
C65 O100 1.283 . S
Eu66 O67 2.370 . S
Eu66 O68 2.370 1_454 S
Eu66 O71 2.370 1_554 S
Eu66 O72 2.370 1_455 S
Eu66 O80 2.363 1_554 S
Eu66 O81 2.363 . S
Eu66 O94 2.363 1_455 S
Eu66 O95 2.363 . S
O67 Eu66 2.370 . S
O67 Eu69 2.369 . S
O67 Eu74 2.371 . S
O68 Eu66 2.370 1_656 S
O68 Eu70 2.371 1_556 S
O68 Eu73 2.370 1_655 S
Eu69 O67 2.369 . S
Eu69 O71 2.369 1_554 S
Eu69 O75 2.371 1_544 S
Eu69 O76 2.371 1_545 S
Eu69 O84 2.364 1_545 S
Eu69 O85 2.362 . S
Eu69 O100 2.363 1_544 S
Eu69 O101 2.363 . S
Eu70 O68 2.371 1_554 S
Eu70 O72 2.371 . S
Eu70 O77 2.369 1_545 S
Eu70 O78 2.369 1_544 S
Eu70 O86 2.362 1_545 S
Eu70 O87 2.364 . S
Eu70 O102 2.363 1_554 S
Eu70 O103 2.363 . S
O71 Eu66 2.370 1_556 S
O71 Eu69 2.369 1_556 S
O71 Eu73 2.370 . S
O72 Eu66 2.370 1_655 S
O72 Eu70 2.371 . S
O72 Eu74 2.371 1_655 S
Eu73 O68 2.370 1_455 S
Eu73 O71 2.370 . S
Eu73 O75 2.371 1_545 S
Eu73 O78 2.371 1_445 S
Eu73 O90 2.363 1_455 S
Eu73 O91 2.363 1_545 S
Eu73 O98 2.362 . S
Eu73 O99 2.364 1_545 S
Eu74 O67 2.371 . S
Eu74 O72 2.371 1_455 S
Eu74 O76 2.370 1_545 S
Eu74 O77 2.370 1_445 S
Eu74 O88 2.363 1_455 S
Eu74 O89 2.363 . S
Eu74 O96 2.364 . S
Eu74 O97 2.362 1_545 S
O75 Eu69 2.371 1_566 S
O75 Eu73 2.371 1_565 S
O75 Eu79 2.370 1_556 S
O76 Eu69 2.371 1_565 S
O76 Eu74 2.370 1_565 S
O76 Eu79 2.370 . S
O77 Eu70 2.369 1_565 S
O77 Eu74 2.370 1_665 S
O77 Eu79 2.370 1_655 S
O78 Eu70 2.369 1_566 S
O78 Eu73 2.371 1_665 S
O78 Eu79 2.370 1_656 S
Eu79 O75 2.370 1_554 S
Eu79 O76 2.370 . S
Eu79 O77 2.370 1_455 S
Eu79 O78 2.370 1_454 S
Eu79 O82 2.363 1_554 S
Eu79 O83 2.363 . S
Eu79 O92 2.363 1_455 S
Eu79 O93 2.363 . S
O80 C54 1.283 . S
O80 Eu66 2.363 1_556 S
O81 C55 1.283 . S
O81 Eu66 2.363 . S
O82 C56 1.283 . S
O82 Eu79 2.363 1_556 S
O83 C57 1.283 . S
O83 Eu79 2.363 . S
O84 C58 1.283 . S
O84 Eu69 2.364 1_565 S
O85 C59 1.283 . S
O85 Eu69 2.362 . S
O86 C60 1.283 . S
O86 Eu70 2.362 1_565 S
O87 C61 1.283 . S
O87 Eu70 2.364 . S
O88 C62 1.283 . S
O88 Eu74 2.363 1_655 S
O89 C63 1.283 . S
O89 Eu74 2.363 . S
O90 C64 1.283 . S
O90 Eu73 2.363 1_655 S
O91 C65 1.283 . S
O91 Eu73 2.363 1_565 S
O92 C60 1.283 . S
O92 Eu79 2.363 1_655 S
O93 C58 1.283 . S
O93 Eu79 2.363 . S
O94 C61 1.283 . S
O94 Eu66 2.363 1_655 S
O95 C59 1.283 . S
O95 Eu66 2.363 . S
O96 C55 1.283 . S
O96 Eu74 2.364 . S
O97 C57 1.283 . S
O97 Eu74 2.362 1_565 S
O98 C54 1.283 . S
O98 Eu73 2.362 . S
O99 C56 1.283 . S
O99 Eu73 2.364 1_565 S
O100 C65 1.283 . S
O100 Eu69 2.363 1_566 S
O101 C63 1.283 . S
O101 Eu69 2.363 . S
O102 C64 1.283 . S
O102 Eu70 2.363 1_556 S
O103 C62 1.283 . S
O103 Eu70 2.363 . S
C104 C105 1.369 . S
C104 C106 1.419 . S
C104 H108 0.930 . S
C105 C104 1.369 . S
C105 C114 1.429 1_655 S
C106 C104 1.419 . S
C106 C107 1.356 1_655 S
C106 H109 0.929 . S
C107 C106 1.356 1_455 S
C107 C113 1.435 . S
H108 C104 0.930 . S
H109 C106 0.929 . S
S110 N111 1.613 . S
S110 N112 1.610 . S
N111 S110 1.613 . S
N111 C114 1.350 . S
N112 S110 1.610 . S
N112 C113 1.351 . S
C113 C107 1.435 . S
C113 N112 1.351 . S
C113 C114 1.434 . S
C114 C105 1.429 1_455 S
C114 N111 1.350 . S
C114 C113 1.434 . S
C115 C116 1.369 . S
C115 C117 1.419 . S
C115 H119 0.930 . S
C116 C115 1.369 . S
C116 C125 1.429 1_545 S
C117 C115 1.419 . S
C117 C118 1.363 . S
C117 H120 0.929 . S
C118 C117 1.363 . S
C118 C124 1.428 1_545 S
H119 C115 0.930 . S
H120 C117 0.929 . S
S121 N122 1.613 . S
S121 N123 1.610 . S
N122 S121 1.613 . S
N122 C125 1.350 . S
N123 S121 1.610 . S
N123 C124 1.351 . S
C124 C118 1.428 1_565 S
C124 N123 1.351 . S
C124 C125 1.434 . S
C125 C116 1.429 1_565 S
C125 N122 1.350 . S
C125 C124 1.434 . S
C126 C127 1.369 . S
C126 C128 1.419 . S
C126 H130 0.930 . S
C127 C126 1.369 . S
C127 C136 1.429 1_455 S
C128 C126 1.419 . S
C128 C129 1.363 . S
C128 H131 0.929 . S
C129 C128 1.363 . S
C129 C135 1.428 1_455 S
H130 C126 0.930 . S
H131 C128 0.929 . S
S132 N133 1.613 . S
S132 N134 1.610 . S
N133 S132 1.613 . S
N133 C136 1.350 . S
N134 S132 1.610 . S
N134 C135 1.351 . S
C135 C129 1.428 1_655 S
C135 N134 1.351 . S
C135 C136 1.434 . S
C136 C127 1.429 1_655 S
C136 N133 1.350 . S
C136 C135 1.434 . S
C137 C138 1.369 . S
C137 C139 1.419 . S
C137 H141 0.930 . S
C138 C137 1.369 . S
C138 C147 1.429 . S
C139 C137 1.419 . S
C139 C140 1.364 . S
C139 H142 0.929 . S
C140 C139 1.364 . S
C140 C146 1.428 . S
H141 C137 0.930 . S
H142 C139 0.929 . S
S143 N144 1.613 1_545 S
S143 N145 1.610 . S
N144 S143 1.613 1_565 S
N144 C147 1.350 . S
N145 S143 1.610 . S
N145 C146 1.350 1_545 S
C146 C140 1.428 . S
C146 N145 1.350 1_565 S
C146 C147 1.435 . S
C147 C138 1.429 . S
C147 N144 1.350 . S
C147 C146 1.435 . S
C148 C149 1.369 . S
C148 C150 1.419 . S
C148 H152 0.930 . S
C149 C148 1.369 . S
C149 C158 1.429 1_655 S
C150 C148 1.419 . S
C150 C151 1.363 1_655 S
C150 H153 0.929 . S
C151 C150 1.363 1_455 S
C151 C157 1.428 . S
H152 C148 0.930 . S
H153 C150 0.929 . S
S154 N155 1.613 . S
S154 N156 1.610 . S
N155 S154 1.613 . S
N155 C158 1.350 . S
N156 S154 1.610 . S
N156 C157 1.351 . S
C157 C151 1.428 . S
C157 N156 1.351 . S
C157 C158 1.434 . S
C158 C149 1.429 1_455 S
C158 N155 1.350 . S
C158 C157 1.434 . S
C159 C160 1.369 . S
C159 C161 1.419 . S
C159 H163 0.930 . S
C160 C159 1.369 . S
C160 C169 1.429 1_545 S
C161 C159 1.419 . S
C161 C162 1.369 . S
C161 H164 0.929 . S
C162 C161 1.369 . S
C162 C168 1.423 1_545 S
H163 C159 0.930 . S
H164 C161 0.929 . S
S165 N166 1.613 . S
S165 N167 1.610 . S
N166 S165 1.613 . S
N166 C169 1.350 . S
N167 S165 1.610 . S
N167 C168 1.351 . S
C168 C162 1.423 1_565 S
C168 N167 1.351 . S
C168 C169 1.434 . S
C169 C160 1.429 1_565 S
C169 N166 1.350 . S
C169 C168 1.434 . S
C170 C171 1.369 1_655 S
C170 C172 1.419 . S
C170 H174 0.930 . S
C171 C170 1.369 1_455 S
C171 C180 1.429 . S
C172 C170 1.419 . S
C172 C173 1.363 1_655 S
C172 H175 0.929 . S
C173 C172 1.363 1_455 S
C173 C179 1.428 . S
H174 C170 0.930 . S
H175 C172 0.929 . S
S176 N177 1.613 . S
S176 N178 1.610 . S
N177 S176 1.613 . S
N177 C180 1.350 . S
N178 S176 1.610 . S
N178 C179 1.351 . S
C179 C173 1.428 . S
C179 N178 1.351 . S
C179 C180 1.434 . S
C180 C171 1.429 . S
C180 N177 1.350 . S
C180 C179 1.434 . S
C181 C182 1.369 . S
C181 C183 1.419 . S
C181 H185 0.930 . S
C182 C181 1.369 . S
C182 C191 1.429 1_565 S
C183 C181 1.419 . S
C183 C184 1.372 . S
C183 H186 0.929 . S
C184 C183 1.372 . S
C184 C190 1.421 1_565 S
H185 C181 0.930 . S
H186 C183 0.929 . S
S187 N188 1.613 . S
S187 N189 1.610 . S
N188 S187 1.613 . S
N188 C191 1.350 . S
N189 S187 1.610 . S
N189 C190 1.351 . S
C190 C184 1.421 1_545 S
C190 N189 1.351 . S
C190 C191 1.434 . S
C191 C182 1.429 1_545 S
C191 N188 1.350 . S
C191 C190 1.434 . S
C192 C193 1.369 . S
C192 C194 1.419 . S
C192 H196 0.930 . S
C193 C192 1.369 . S
C193 C202 1.429 1_554 S
C194 C192 1.419 . S
C194 C195 1.363 . S
C194 H197 0.929 . S
C195 C194 1.363 . S
C195 C201 1.428 1_554 S
H196 C192 0.930 . S
H197 C194 0.929 . S
S198 N199 1.613 . S
S198 N200 1.610 . S
N199 S198 1.613 . S
N199 C202 1.350 . S
N200 S198 1.610 . S
N200 C201 1.351 . S
C201 C195 1.428 1_556 S
C201 N200 1.351 . S
C201 C202 1.434 . S
C202 C193 1.429 1_556 S
C202 N199 1.350 . S
C202 C201 1.434 . S
C203 C204 1.369 1_554 S
C203 C205 1.419 . S
C203 H207 0.930 . S
C204 C203 1.369 1_556 S
C204 C213 1.429 . S
C205 C203 1.419 . S
C205 C206 1.363 . S
C205 H208 0.929 . S
C206 C205 1.363 . S
C206 C212 1.428 1_554 S
H207 C203 0.930 . S
H208 C205 0.929 . S
S209 N210 1.613 . S
S209 N211 1.610 . S
N210 S209 1.613 . S
N210 C213 1.350 . S
N211 S209 1.610 . S
N211 C212 1.351 . S
C212 C206 1.428 1_556 S
C212 N211 1.351 . S
C212 C213 1.434 . S
C213 C204 1.429 . S
C213 N210 1.350 . S
C213 C212 1.434 . S
C214 C215 1.369 1_554 S
C214 C216 1.419 . S
C214 H218 0.930 . S
C215 C214 1.369 1_556 S
C215 C224 1.429 . S
C216 C214 1.419 . S
C216 C217 1.363 . S
C216 H219 0.929 . S
C217 C216 1.363 . S
C217 C223 1.428 1_554 S
H218 C214 0.930 . S
H219 C216 0.929 . S
S220 N221 1.613 . S
S220 N222 1.610 . S
N221 S220 1.613 . S
N221 C224 1.350 . S
N222 S220 1.610 . S
N222 C223 1.351 . S
C223 C217 1.428 1_556 S
C223 N222 1.351 . S
C223 C224 1.434 . S
C224 C215 1.429 . S
C224 N221 1.350 . S
C224 C223 1.434 . S
C225 C226 1.369 1_556 S
C225 C227 1.419 . S
C225 H229 0.930 . S
C226 C225 1.369 1_554 S
C226 C235 1.429 . S
C227 C225 1.419 . S
C227 C228 1.363 1_556 S
C227 H230 0.929 . S
C228 C227 1.363 1_554 S
C228 C234 1.428 . S
H229 C225 0.930 . S
H230 C227 0.929 . S
S231 N232 1.613 . S
S231 N233 1.610 . S
N232 S231 1.613 . S
N232 C235 1.350 . S
N233 S231 1.610 . S
N233 C234 1.351 . S
C234 C228 1.428 . S
C234 N233 1.351 . S
C234 C235 1.434 . S
C235 C226 1.429 . S
C235 N232 1.350 . S
C235 C234 1.434 . S
C107 C55 1.836 . S
C105 C7 1.825 . S
C118 C62 1.301 . S
C116 C34 1.293 . S
C129 C57 1.835 . S
C127 C14 1.831 . S
C140 C63 1.300 1_565 S
C138 C32 1.297 . S
C149 C16 1.820 . S
C151 C56 1.835 . S
C162 C65 1.301 1_545 S
C160 C25 1.292 . S
C171 C8 1.823 . S
C173 C54 1.827 . S
C182 C26 1.295 . S
C184 C64 1.297 1_565 S
C193 C50 1.531 . S
C195 C59 1.548 . S
C204 C43 1.530 . S
C206 C58 1.550 . S
C217 C61 1.547 . S
C215 C52 1.521 1_556 S
C228 C60 1.542 . S
C226 C44 1.530 . S
