# Generated by pormake.
# Topology pth, (4,4)-cn, num edge types: 1
# Building blocks:
#     Node 0, Type 0, BuildingBlock: GALJAG_clean_sbu_0, # of connection points: 4
#     Node 1, Type 0, BuildingBlock: GALJAG_clean_sbu_0, # of connection points: 4
#     Node 2, Type 0, BuildingBlock: GALJAG_clean_sbu_0, # of connection points: 4
#     Node 3, Type 1, BuildingBlock: AZAVOO_clean_linker_0, # of connection points: 4
#     Node 4, Type 1, BuildingBlock: AZAVOO_clean_linker_0, # of connection points: 4
#     Node 5, Type 1, BuildingBlock: AZAVOO_clean_linker_0, # of connection points: 4
#     Edge 6, Type (0, 1), None
#     Edge 7, Type (0, 1), None
#     Edge 8, Type (0, 1), None
#     Edge 9, Type (0, 1), None
#     Edge 10, Type (0, 1), None
#     Edge 11, Type (0, 1), None
#     Edge 12, Type (0, 1), None
#     Edge 13, Type (0, 1), None
#     Edge 14, Type (0, 1), None
#     Edge 15, Type (0, 1), None
#     Edge 16, Type (0, 1), None
#     Edge 17, Type (0, 1), None
# Relax obj value: 0.179
# Max RMSD: 0.235
# Mean RMSD: 0.163
data_MOF--net-pth--node1-GALJAG_clean_sbu_0--node2-AZAVOO_clean_linker_0--edge1-none
_symmetry_space_group_name_H-M    P1
_symmetry_Int_Tables_number       1
_symmetry_cell_setting            triclinic
loop_
_symmetry_equiv_pos_as_xyz
'x, y, z'
_cell_length_a     14.199422
_cell_length_b     14.50098
_cell_length_c     37.147124
_cell_angle_alpha  94.273459
_cell_angle_beta   88.278373
_cell_angle_gamma 119.93253
loop_
_atom_site_label
_atom_site_type_symbol
_atom_site_fract_x
_atom_site_fract_y
_atom_site_fract_z
_atom_type_partial_charge
In0 In 0.18823 0.08507 0.06201 0.0
O1 O 0.05928 0.09609 0.09672 0.0
O2 O 0.21755 0.15923 0.11934 0.0
C3 C 0.07415 0.02822 0.00017 0.0
C4 C 0.35816 0.26098 0.0382 0.0
C5 C 0.1781 0.91 0.08542 0.0
O6 O 0.05299 0.0728 0.02723 0.0
O7 O 0.15231 0.01189 0.00456 0.0
O8 O 0.26483 0.99927 0.08757 0.0
O9 O 0.09996 0.90925 0.06998 0.0
C10 C 0.12174 0.14212 0.12368 0.0
O11 O 0.35542 0.17225 0.03592 0.0
O12 O 0.27869 0.26094 0.05419 0.0
In13 In 0.05846 0.04582 0.38622 0.0
O14 O 0.13456 0.19727 0.35546 0.0
O15 O 0.96543 0.09019 0.348 0.0
C16 C 0.22655 0.07257 0.42455 0.0
C17 C 0.95703 0.06166 0.44676 0.0
C18 C 0.03291 0.86978 0.34747 0.0
O19 O 0.23651 0.14247 0.40386 0.0
O20 O 0.13363 0.99076 0.425 0.0
O21 O 0.95328 0.87276 0.36256 0.0
O22 O 0.12142 0.95711 0.34953 0.0
C23 C 0.04695 0.17819 0.34087 0.0
O24 O 0.91824 0.97692 0.42633 0.0
O25 O 0.04201 0.13901 0.43534 0.0
In26 In 0.12356 0.14603 0.73449 0.0
O27 O 0.03182 0.98012 0.75659 0.0
O28 O 0.00533 0.10109 0.78192 0.0
C29 C 0.281 0.13143 0.69646 0.0
C30 C 0.98112 0.1422 0.68644 0.0
C31 C 0.27435 0.31734 0.77424 0.0
O32 O 0.21641 0.05881 0.71617 0.0
O33 O 0.26049 0.20596 0.69388 0.0
O34 O 0.20225 0.32157 0.75645 0.0
O35 O 0.26455 0.22598 0.77416 0.0
C36 C 0.98086 0.00442 0.78026 0.0
O37 O 0.03266 0.21955 0.70932 0.0
O38 O 0.00479 0.0692 0.68679 0.0
H39 H 0.99174 0.25569 0.98677 0.0
H40 H 0.15148 0.1843 0.25866 0.0
H41 H 0.88394 0.23332 0.17974 0.0
H42 H 0.92045 0.11236 0.14041 0.0
H43 H 0.25412 0.27912 0.17767 0.0
H44 H 0.21782 0.4023 0.21566 0.0
H45 H 0.89209 0.3708 0.13128 0.0
H46 H 0.90093 0.30564 0.0693 0.0
H47 H 0.25011 0.45597 0.07957 0.0
H48 H 0.24001 0.52024 0.14153 0.0
H49 H 0.95088 0.57983 0.12748 0.0
H50 H 0.0006 0.71176 0.08302 0.0
H51 H 0.31677 0.90356 0.13332 0.0
H52 H 0.26912 0.76679 0.17628 0.0
H53 H 0.89398 0.6651 0.20632 0.0
H54 H 0.89382 0.83408 0.21524 0.0
H55 H 0.22634 0.99005 0.25354 0.0
H56 H 0.22574 0.82087 0.24399 0.0
H57 H 0.85481 0.54944 0.27802 0.0
H58 H 0.85375 0.69131 0.31807 0.0
H59 H 0.19722 0.82645 0.33777 0.0
H60 H 0.19741 0.68452 0.29828 0.0
H61 H 0.86992 0.26759 0.25854 0.0
H62 H 0.87873 0.14276 0.29733 0.0
H63 H 0.20069 0.38595 0.33256 0.0
H64 H 0.19309 0.50897 0.29256 0.0
O65 O 0.98975 0.27928 0.01171 0.0
O66 O 0.16939 0.36152 0.01764 0.0
O67 O 0.97928 0.0331 0.23416 0.0
O68 O 0.14961 0.1167 0.25462 0.0
C69 C 0.04302 0.42624 0.2075 0.0
C70 C 0.05886 0.48951 0.1783 0.0
C71 C 0.07211 0.59172 0.18477 0.0
C72 C 0.05788 0.62696 0.21972 0.0
C73 C 0.03906 0.56292 0.24916 0.0
C74 C 0.03547 0.46334 0.24324 0.0
C75 C 0.04893 0.32771 0.19979 0.0
C76 C 0.96336 0.24014 0.18078 0.0
C77 C 0.98461 0.17163 0.15811 0.0
C78 C 0.09092 0.18878 0.15518 0.0
C79 C 0.17184 0.26541 0.17893 0.0
C80 C 0.151 0.33514 0.20103 0.0
C81 C 0.06542 0.45014 0.14075 0.0
C82 C 0.97039 0.38938 0.12002 0.0
C83 C 0.9757 0.35221 0.08466 0.0
C84 C 0.07636 0.37572 0.06935 0.0
C85 C 0.1714 0.43643 0.0904 0.0
C86 C 0.16595 0.47342 0.1258 0.0
C87 C 0.10593 0.66472 0.15528 0.0
C88 C 0.03196 0.64861 0.1282 0.0
C89 C 0.06029 0.72445 0.103 0.0
C90 C 0.16139 0.81905 0.1053 0.0
C91 C 0.23813 0.83158 0.13098 0.0
C92 C 0.21066 0.75428 0.1557 0.0
C93 C 0.05929 0.73051 0.22501 0.0
C94 C 0.96665 0.73593 0.21663 0.0
C95 C 0.96679 0.83249 0.22178 0.0
C96 C 0.05991 0.92556 0.23534 0.0
C97 C 0.15314 0.91993 0.24322 0.0
C98 C 0.15297 0.82337 0.23789 0.0
C99 C 0.02617 0.60601 0.28527 0.0
C100 C 0.92831 0.60577 0.29277 0.0
C101 C 0.92826 0.68825 0.31501 0.0
C102 C 0.02621 0.77185 0.32979 0.0
C103 C 0.121 0.76432 0.3259 0.0
C104 C 0.12069 0.68137 0.30413 0.0
C105 C 0.02976 0.39866 0.27333 0.0
C106 C 0.9411 0.29497 0.27544 0.0
C107 C 0.94658 0.22341 0.29739 0.0
C108 C 0.04012 0.25454 0.31813 0.0
C109 C 0.1274 0.35952 0.31691 0.0
C110 C 0.12237 0.43076 0.29463 0.0
C111 C 0.08177 0.33833 0.03143 0.0
C112 C 0.06008 0.02811 0.24126 0.0
H113 H 0.70651 0.00785 0.32502 0.0
H114 H 0.03688 0.22844 0.59436 0.0
H115 H 0.68287 0.92441 0.53069 0.0
H116 H 0.79109 0.90229 0.48208 0.0
H117 H 0.01133 0.24267 0.48944 0.0
H118 H 0.90134 0.26406 0.53759 0.0
H119 H 0.55878 0.94235 0.47454 0.0
H120 H 0.60105 0.93706 0.41027 0.0
H121 H 0.80372 0.28058 0.41804 0.0
H122 H 0.76147 0.28441 0.48236 0.0
H123 H 0.36205 0.94177 0.50556 0.0
H124 H 0.2313 0.91892 0.45978 0.0
H125 H 0.41453 0.25669 0.44413 0.0
H126 H 0.54568 0.27873 0.49058 0.0
H127 H 0.30712 0.96048 0.5794 0.0
H128 H 0.13657 0.96178 0.58934 0.0
H129 H 0.3075 0.30307 0.58042 0.0
H130 H 0.47756 0.30043 0.57052 0.0
H131 H 0.44832 0.96205 0.63565 0.0
H132 H 0.31115 0.96158 0.6775 0.0
H133 H 0.46578 0.30391 0.67575 0.0
H134 H 0.60361 0.30401 0.63492 0.0
H135 H 0.70041 0.95915 0.60249 0.0
H136 H 0.83693 0.96981 0.64387 0.0
H137 H 0.93289 0.29833 0.67458 0.0
H138 H 0.79674 0.28735 0.63265 0.0
O139 O 0.69373 0.01156 0.35068 0.0
O140 O 0.77598 0.18882 0.35465 0.0
O141 O 0.01887 0.04969 0.59249 0.0
O142 O 0.10382 0.22636 0.59169 0.0
C143 C 0.69262 0.11248 0.54914 0.0
C144 C 0.62894 0.11723 0.52162 0.0
C145 C 0.53591 0.12347 0.53043 0.0
C146 C 0.50676 0.12828 0.5666 0.0
C147 C 0.57245 0.12828 0.5946 0.0
C148 C 0.66617 0.12002 0.58595 0.0
C149 C 0.78381 0.09597 0.53742 0.0
C150 C 0.75803 0.99346 0.52328 0.0
C151 C 0.81834 0.98121 0.49487 0.0
C152 C 0.90641 0.07128 0.481 0.0
C153 C 0.94188 0.17208 0.49903 0.0
C154 C 0.88071 0.18435 0.52716 0.0
C155 C 0.65796 0.11364 0.48299 0.0
C156 C 0.61295 0.01615 0.4623 0.0
C157 C 0.63719 0.01342 0.42566 0.0
C158 C 0.70552 0.10844 0.40905 0.0
C159 C 0.7506 0.20602 0.43001 0.0
C160 C 0.72687 0.20849 0.4667 0.0
C161 C 0.46156 0.11187 0.50146 0.0
C162 C 0.374 0.01059 0.4921 0.0
C163 C 0.3 0.99784 0.46594 0.0
C164 C 0.31299 0.0863 0.44865 0.0
C165 C 0.40334 0.18741 0.45706 0.0
C166 C 0.47743 0.2002 0.48356 0.0
C167 C 0.40462 0.13051 0.57469 0.0
C168 C 0.30761 0.03552 0.57998 0.0
C169 C 0.21035 0.03649 0.58551 0.0
C170 C 0.20837 0.13259 0.58562 0.0
C171 C 0.30615 0.22777 0.58055 0.0
C172 C 0.40336 0.22659 0.57494 0.0
C173 C 0.53586 0.13308 0.63208 0.0
C174 C 0.45677 0.03754 0.64619 0.0
C175 C 0.37689 0.0371 0.6694 0.0
C176 C 0.37548 0.13217 0.67845 0.0
C177 C 0.46324 0.22905 0.66826 0.0
C178 C 0.54392 0.22962 0.64571 0.0
C179 C 0.73847 0.12243 0.61451 0.0
C180 C 0.75036 0.03322 0.61832 0.0
C181 C 0.82881 0.03965 0.64183 0.0
C182 C 0.89677 0.13541 0.66209 0.0
C183 C 0.88226 0.22369 0.65914 0.0
C184 C 0.80396 0.2173 0.63545 0.0
C185 C 0.72775 0.10579 0.36987 0.0
C186 C 0.10454 0.13334 0.59026 0.0
H187 H 0.81632 0.91379 0.13583 0.0
H188 H 0.07074 0.98636 0.86274 0.0
H189 H 0.75469 0.93881 0.9428 0.0
H190 H 0.90671 0.05865 0.98287 0.0
H191 H 0.07779 0.89316 0.94592 0.0
H192 H 0.92344 0.77102 0.9072 0.0
H193 H 0.62348 0.80376 0.99118 0.0
H194 H 0.68833 0.86661 0.05332 0.0
H195 H 0.875 0.70477 0.04362 0.0
H196 H 0.81079 0.64386 0.98133 0.0
H197 H 0.4664 0.58907 -0.00436 0.0
H198 H 0.37906 0.45787 0.04056 0.0
H199 H 0.50774 0.26782 0.9888 0.0
H200 H 0.60137 0.4037 0.94517 0.0
H201 H 0.33142 0.50439 0.91673 0.0
H202 H 0.16109 0.33487 0.90759 0.0
H203 H 0.34238 0.18183 0.86802 0.0
H204 H 0.51206 0.3516 0.87774 0.0
H205 H 0.42236 0.63235 0.84671 0.0
H206 H 0.28028 0.49726 0.80566 0.0
H207 H 0.47749 0.35041 0.78317 0.0
H208 H 0.6197 0.48662 0.82326 0.0
H209 H 0.71112 0.90584 0.86715 0.0
H210 H 0.84401 0.03347 0.82681 0.0
H211 H 0.92682 0.79648 0.78578 0.0
H212 H 0.79541 0.67005 0.82692 0.0
O213 O 0.79446 0.8909 0.11084 0.0
O214 O 0.87937 0.7969 0.10599 0.0
O215 O 0.04777 0.13608 0.88826 0.0
O216 O 0.1369 0.0541 0.86692 0.0
C217 C 0.72274 0.74614 0.91526 0.0
C218 C 0.67172 0.68117 0.94427 0.0
C219 C 0.58259 0.57848 0.93764 0.0
C220 C 0.5366 0.5443 0.90284 0.0
C221 C 0.58517 0.61038 0.87372 0.0
C222 C 0.68111 0.71057 0.87968 0.0
C223 C 0.82744 0.84504 0.92288 0.0
C224 C 0.82742 0.93216 0.94196 0.0
C225 C 0.91396 0.99997 0.96508 0.0
C226 C 0.00209 0.98263 0.96833 0.0
C227 C 0.00974 0.9069 0.94444 0.0
C228 C 0.92224 0.83782 0.92191 0.0
C229 C 0.71299 0.71984 0.98181 0.0
C230 C 0.67899 0.7826 0.00253 0.0
C231 C 0.71612 0.81832 0.038 0.0
C232 C 0.78698 0.79077 0.05354 0.0
C233 C 0.82078 0.72768 0.03257 0.0
C234 C 0.78415 0.69261 -0.00301 0.0
C235 C 0.53866 0.50482 0.96696 0.0
C236 C 0.47822 0.52069 0.99462 0.0
C237 C 0.42804 0.4454 0.02015 0.0
C238 C 0.43468 0.35164 0.0177 0.0
C239 C 0.50109 0.33925 0.99131 0.0
C240 C 0.55337 0.41594 0.96619 0.0
C241 C 0.43378 0.44044 0.89746 0.0
C242 C 0.33403 0.43408 0.9061 0.0
C243 C 0.23695 0.33721 0.90083 0.0
C244 C 0.23802 0.24481 0.88686 0.0
C245 C 0.33851 0.25141 0.87867 0.0
C246 C 0.43554 0.34829 0.88412 0.0
C247 C 0.53185 0.5698 0.83787 0.0
C248 C 0.43775 0.57506 0.83116 0.0
C249 C 0.35569 0.4966 0.80832 0.0
C250 C 0.36677 0.41171 0.79243 0.0
C251 C 0.46613 0.41388 0.79587 0.0
C252 C 0.54875 0.4933 0.81803 0.0
C253 C 0.7421 0.77786 0.84964 0.0
C254 C 0.75615 0.88066 0.84886 0.0
C255 C 0.83305 0.95388 0.8261 0.0
C256 C 0.89683 0.92543 0.80342 0.0
C257 C 0.87923 0.8209 0.80306 0.0
C258 C 0.80293 0.74796 0.82613 0.0
C259 C 0.8236 0.82641 0.09162 0.0
C260 C 0.13499 0.14196 0.8808 0.0
loop_
_geom_bond_atom_site_label_1
_geom_bond_atom_site_label_2
_geom_bond_distance
_geom_bond_site_symmetry_2
_ccdc_geom_bond_type
In0 O1 2.294 . S
In0 O2 2.326 . S
In0 O6 2.266 1_445 S
In0 O7 2.326 1_545 S
In0 O8 2.266 1_545 S
In0 O9 2.326 1_545 S
In0 O11 2.294 . S
In0 O12 2.326 . S
O1 In0 2.294 . S
O1 C10 1.240 . S
O2 In0 2.326 . S
O2 C10 1.252 . S
C3 O6 1.252 . S
C3 O7 1.260 1_655 S
C4 O11 1.240 . S
C4 O12 1.252 . S
C5 O8 1.252 . S
C5 O9 1.260 . S
O6 In0 2.266 1_665 S
O6 C3 1.252 . S
O7 In0 2.326 1_565 S
O7 C3 1.260 1_455 S
O8 In0 2.266 1_565 S
O8 C5 1.252 . S
O9 In0 2.326 1_565 S
O9 C5 1.260 . S
C10 O1 1.240 . S
C10 O2 1.252 . S
O11 In0 2.294 . S
O11 C4 1.240 . S
O12 In0 2.326 . S
O12 C4 1.252 . S
In13 O14 2.294 . S
In13 O15 2.326 1_455 S
In13 O19 2.266 . S
In13 O20 2.326 1_545 S
In13 O21 2.266 1_445 S
In13 O22 2.326 1_545 S
In13 O24 2.294 1_445 S
In13 O25 2.326 . S
O14 In13 2.294 . S
O14 C23 1.240 . S
O15 In13 2.326 1_655 S
O15 C23 1.252 1_655 S
C16 O19 1.252 . S
C16 O20 1.260 1_545 S
C17 O24 1.240 1_545 S
C17 O25 1.252 1_655 S
C18 O21 1.252 1_455 S
C18 O22 1.260 . S
O19 In13 2.266 . S
O19 C16 1.252 . S
O20 In13 2.326 1_565 S
O20 C16 1.260 1_565 S
O21 In13 2.266 1_665 S
O21 C18 1.252 1_655 S
O22 In13 2.326 1_565 S
O22 C18 1.260 . S
C23 O14 1.240 . S
C23 O15 1.252 1_455 S
O24 In13 2.294 1_665 S
O24 C17 1.240 1_565 S
O25 In13 2.326 . S
O25 C17 1.252 1_455 S
In26 O27 2.294 1_545 S
In26 O28 2.326 . S
In26 O32 2.266 . S
In26 O33 2.326 . S
In26 O34 2.266 . S
In26 O35 2.326 . S
In26 O37 2.294 . S
In26 O38 2.326 . S
O27 In26 2.294 1_565 S
O27 C36 1.240 . S
O28 In26 2.326 . S
O28 C36 1.252 1_545 S
C29 O32 1.252 . S
C29 O33 1.260 . S
C30 O37 1.240 . S
C30 O38 1.252 . S
C31 O34 1.252 . S
C31 O35 1.260 . S
O32 In26 2.266 . S
O32 C29 1.252 . S
O33 In26 2.326 . S
O33 C29 1.260 . S
O34 In26 2.266 . S
O34 C31 1.252 . S
O35 In26 2.326 . S
O35 C31 1.260 . S
C36 O27 1.240 . S
C36 O28 1.252 1_565 S
O37 In26 2.294 . S
O37 C30 1.240 . S
O38 In26 2.326 . S
O38 C30 1.252 . S
H39 O65 0.856 1_556 S
H40 O68 0.854 . S
H41 C76 0.930 . S
H42 C77 0.930 . S
H43 C79 0.930 . S
H44 C80 0.930 . S
H45 C82 0.931 1_655 S
H46 C83 0.930 1_655 S
H47 C85 0.930 . S
H48 C86 0.929 . S
H49 C88 0.930 1_655 S
H50 C89 0.931 1_655 S
H51 C91 0.930 . S
H52 C92 0.929 . S
H53 C94 0.931 1_655 S
H54 C95 0.930 1_655 S
H55 C97 0.930 1_545 S
H56 C98 0.932 . S
H57 C100 0.930 . S
H58 C101 0.929 . S
H59 C103 0.931 . S
H60 C104 0.930 . S
H61 C106 0.929 . S
H62 C107 0.931 . S
H63 C109 0.930 . S
H64 C110 0.929 . S
O65 H39 0.856 1_554 S
O65 C111 1.300 . S
O66 C111 1.209 . S
O67 C112 1.199 . S
O68 H40 0.854 . S
O68 C112 1.297 . S
C69 C70 1.404 . S
C69 C74 1.397 . S
C69 C75 1.492 . S
C70 C69 1.404 . S
C70 C71 1.396 . S
C70 C81 1.492 . S
C71 C70 1.396 . S
C71 C72 1.397 . S
C71 C87 1.509 . S
C72 C71 1.397 . S
C72 C73 1.412 . S
C72 C93 1.485 . S
C73 C72 1.412 . S
C73 C74 1.388 . S
C73 C99 1.490 . S
C74 C69 1.397 . S
C74 C73 1.388 . S
C74 C105 1.519 . S
C75 C69 1.492 . S
C75 C76 1.363 1_455 S
C75 C80 1.390 . S
C76 H41 0.930 . S
C76 C75 1.363 1_655 S
C76 C77 1.372 . S
C77 H42 0.930 . S
C77 C76 1.372 . S
C77 C78 1.383 1_655 S
C78 C77 1.383 1_455 S
C78 C79 1.395 . S
C79 H43 0.930 . S
C79 C78 1.395 . S
C79 C80 1.362 . S
C80 H44 0.930 . S
C80 C75 1.390 . S
C80 C79 1.362 . S
C81 C70 1.492 . S
C81 C82 1.377 . S
C81 C86 1.397 . S
C82 H45 0.931 1_455 S
C82 C81 1.377 . S
C82 C83 1.376 . S
C83 H46 0.930 1_455 S
C83 C82 1.376 . S
C83 C84 1.376 . S
C84 C83 1.376 . S
C84 C85 1.378 . S
C84 C111 1.486 . S
C85 H47 0.930 . S
C85 C84 1.378 . S
C85 C86 1.376 . S
C86 H48 0.929 . S
C86 C81 1.397 . S
C86 C85 1.376 . S
C87 C71 1.509 . S
C87 C88 1.391 . S
C87 C92 1.386 . S
C88 H49 0.930 1_455 S
C88 C87 1.391 . S
C88 C89 1.375 . S
C89 H50 0.931 1_455 S
C89 C88 1.375 . S
C89 C90 1.375 . S
C90 C89 1.375 . S
C90 C91 1.361 . S
C91 H51 0.930 . S
C91 C90 1.361 . S
C91 C92 1.399 . S
C92 H52 0.929 . S
C92 C87 1.386 . S
C92 C91 1.399 . S
C93 C72 1.485 . S
C93 C94 1.394 . S
C93 C98 1.360 . S
C94 H53 0.931 1_455 S
C94 C93 1.394 . S
C94 C95 1.372 . S
C95 H54 0.930 1_455 S
C95 C94 1.372 . S
C95 C96 1.397 . S
C96 C95 1.397 . S
C96 C97 1.390 . S
C96 C112 1.476 1_565 S
C97 H55 0.930 1_565 S
C97 C96 1.390 . S
C97 C98 1.366 . S
C98 H56 0.932 . S
C98 C93 1.360 . S
C98 C97 1.366 . S
C99 C73 1.490 . S
C99 C100 1.380 1_455 S
C99 C104 1.386 . S
C100 H57 0.930 . S
C100 C99 1.380 1_655 S
C100 C101 1.381 . S
C101 H58 0.929 . S
C101 C100 1.381 . S
C101 C102 1.371 1_655 S
C102 C101 1.371 1_455 S
C102 C103 1.380 . S
C103 H59 0.931 . S
C103 C102 1.380 . S
C103 C104 1.387 . S
C104 H60 0.930 . S
C104 C99 1.386 . S
C104 C103 1.387 . S
C105 C74 1.519 . S
C105 C106 1.377 1_455 S
C105 C110 1.361 . S
C106 H61 0.929 . S
C106 C105 1.377 1_655 S
C106 C107 1.386 . S
C107 H62 0.931 . S
C107 C106 1.386 . S
C107 C108 1.363 1_655 S
C108 C107 1.363 1_455 S
C108 C109 1.385 . S
C109 H63 0.930 . S
C109 C108 1.385 . S
C109 C110 1.396 . S
C110 H64 0.929 . S
C110 C105 1.361 . S
C110 C109 1.396 . S
C111 O65 1.300 . S
C111 O66 1.209 . S
C111 C84 1.486 . S
C112 O67 1.199 . S
C112 O68 1.297 . S
C112 C96 1.476 1_545 S
H113 O139 0.856 . S
H114 O142 0.854 . S
H115 C150 0.930 . S
H116 C151 0.930 . S
H117 C153 0.930 1_455 S
H118 C154 0.930 . S
H119 C156 0.931 1_565 S
H120 C157 0.930 1_565 S
H121 C159 0.930 . S
H122 C160 0.929 . S
H123 C162 0.930 1_565 S
H124 C163 0.931 1_565 S
H125 C165 0.930 . S
H126 C166 0.929 . S
H127 C168 0.931 1_565 S
H128 C169 0.930 1_565 S
H129 C171 0.930 . S
H130 C172 0.932 . S
H131 C174 0.930 1_565 S
H132 C175 0.929 1_565 S
H133 C177 0.931 . S
H134 C178 0.930 . S
H135 C180 0.929 1_565 S
H136 C181 0.931 1_565 S
H137 C183 0.930 . S
H138 C184 0.929 . S
O139 H113 0.856 . S
O139 C185 1.300 . S
O140 C185 1.209 . S
O141 C186 1.199 . S
O142 H114 0.854 . S
O142 C186 1.297 . S
C143 C144 1.404 . S
C143 C148 1.397 . S
C143 C149 1.492 . S
C144 C143 1.404 . S
C144 C145 1.396 . S
C144 C155 1.492 . S
C145 C144 1.396 . S
C145 C146 1.397 . S
C145 C161 1.509 . S
C146 C145 1.397 . S
C146 C147 1.412 . S
C146 C167 1.485 . S
C147 C146 1.412 . S
C147 C148 1.388 . S
C147 C173 1.490 . S
C148 C143 1.397 . S
C148 C147 1.388 . S
C148 C179 1.519 . S
C149 C143 1.492 . S
C149 C150 1.363 1_545 S
C149 C154 1.390 . S
C150 H115 0.930 . S
C150 C149 1.363 1_565 S
C150 C151 1.372 . S
C151 H116 0.930 . S
C151 C150 1.372 . S
C151 C152 1.383 1_565 S
C152 C151 1.383 1_545 S
C152 C153 1.395 . S
C153 H117 0.930 1_655 S
C153 C152 1.395 . S
C153 C154 1.362 . S
C154 H118 0.930 . S
C154 C149 1.390 . S
C154 C153 1.362 . S
C155 C144 1.492 . S
C155 C156 1.377 . S
C155 C160 1.397 . S
C156 H119 0.931 1_545 S
C156 C155 1.377 . S
C156 C157 1.376 . S
C157 H120 0.930 1_545 S
C157 C156 1.376 . S
C157 C158 1.376 . S
C158 C157 1.376 . S
C158 C159 1.378 . S
C158 C185 1.486 . S
C159 H121 0.930 . S
C159 C158 1.378 . S
C159 C160 1.376 . S
C160 H122 0.929 . S
C160 C155 1.397 . S
C160 C159 1.376 . S
C161 C145 1.509 . S
C161 C162 1.391 . S
C161 C166 1.386 . S
C162 H123 0.930 1_545 S
C162 C161 1.391 . S
C162 C163 1.375 . S
C163 H124 0.931 1_545 S
C163 C162 1.375 . S
C163 C164 1.375 . S
C164 C163 1.375 . S
C164 C165 1.361 . S
C165 H125 0.930 . S
C165 C164 1.361 . S
C165 C166 1.399 . S
C166 H126 0.929 . S
C166 C161 1.386 . S
C166 C165 1.399 . S
C167 C146 1.485 . S
C167 C168 1.394 . S
C167 C172 1.360 . S
C168 H127 0.931 1_545 S
C168 C167 1.394 . S
C168 C169 1.372 . S
C169 H128 0.930 1_545 S
C169 C168 1.372 . S
C169 C170 1.397 . S
C170 C169 1.397 . S
C170 C171 1.390 . S
C170 C186 1.476 . S
C171 H129 0.930 . S
C171 C170 1.390 . S
C171 C172 1.366 . S
C172 H130 0.932 . S
C172 C167 1.360 . S
C172 C171 1.366 . S
C173 C147 1.490 . S
C173 C174 1.380 . S
C173 C178 1.386 . S
C174 H131 0.930 1_545 S
C174 C173 1.380 . S
C174 C175 1.381 . S
C175 H132 0.929 1_545 S
C175 C174 1.381 . S
C175 C176 1.371 . S
C176 C175 1.371 . S
C176 C177 1.380 . S
C177 H133 0.931 . S
C177 C176 1.380 . S
C177 C178 1.387 . S
C178 H134 0.930 . S
C178 C173 1.386 . S
C178 C177 1.387 . S
C179 C148 1.519 . S
C179 C180 1.377 . S
C179 C184 1.361 . S
C180 H135 0.929 1_545 S
C180 C179 1.377 . S
C180 C181 1.386 . S
C181 H136 0.931 1_545 S
C181 C180 1.386 . S
C181 C182 1.363 . S
C182 C181 1.363 . S
C182 C183 1.385 . S
C183 H137 0.930 . S
C183 C182 1.385 . S
C183 C184 1.396 . S
C184 H138 0.929 . S
C184 C179 1.361 . S
C184 C183 1.396 . S
C185 O139 1.300 . S
C185 O140 1.209 . S
C185 C158 1.486 . S
C186 O141 1.199 . S
C186 O142 1.297 . S
C186 C170 1.476 . S
H187 O213 0.856 . S
H188 O216 0.854 . S
H189 C224 0.930 . S
H190 C225 0.930 1_545 S
H191 C227 0.930 1_455 S
H192 C228 0.930 . S
H193 C230 0.931 . S
H194 C231 0.930 . S
H195 C233 0.930 . S
H196 C234 0.929 1_556 S
H197 C236 0.930 . S
H198 C237 0.931 . S
H199 C239 0.930 . S
H200 C240 0.929 . S
H201 C242 0.931 . S
H202 C243 0.930 . S
H203 C245 0.930 . S
H204 C246 0.932 . S
H205 C248 0.930 . S
H206 C249 0.929 . S
H207 C251 0.931 . S
H208 C252 0.930 . S
H209 C254 0.929 . S
H210 C255 0.931 . S
H211 C257 0.930 . S
H212 C258 0.929 . S
O213 H187 0.856 . S
O213 C259 1.300 . S
O214 C259 1.209 . S
O215 C260 1.199 . S
O216 H188 0.854 . S
O216 C260 1.297 1_565 S
C217 C218 1.404 . S
C217 C222 1.397 . S
C217 C223 1.492 . S
C218 C217 1.404 . S
C218 C219 1.396 . S
C218 C229 1.492 . S
C219 C218 1.396 . S
C219 C220 1.397 . S
C219 C235 1.509 . S
C220 C219 1.397 . S
C220 C221 1.412 . S
C220 C241 1.485 . S
C221 C220 1.412 . S
C221 C222 1.388 . S
C221 C247 1.490 . S
C222 C217 1.397 . S
C222 C221 1.388 . S
C222 C253 1.519 . S
C223 C217 1.492 . S
C223 C224 1.363 . S
C223 C228 1.390 . S
C224 H189 0.930 . S
C224 C223 1.363 . S
C224 C225 1.372 . S
C225 H190 0.930 1_565 S
C225 C224 1.372 . S
C225 C226 1.383 . S
C226 C225 1.383 . S
C226 C227 1.395 . S
C227 H191 0.930 1_655 S
C227 C226 1.395 . S
C227 C228 1.362 . S
C228 H192 0.930 . S
C228 C223 1.390 . S
C228 C227 1.362 . S
C229 C218 1.492 . S
C229 C230 1.377 1_556 S
C229 C234 1.397 1_556 S
C230 H193 0.931 . S
C230 C229 1.377 1_554 S
C230 C231 1.376 . S
C231 H194 0.930 . S
C231 C230 1.376 . S
C231 C232 1.376 . S
C232 C231 1.376 . S
C232 C233 1.378 . S
C232 C259 1.486 . S
C233 H195 0.930 . S
C233 C232 1.378 . S
C233 C234 1.376 . S
C234 H196 0.929 1_554 S
C234 C229 1.397 1_554 S
C234 C233 1.376 . S
C235 C219 1.509 . S
C235 C236 1.391 . S
C235 C240 1.386 . S
C236 H197 0.930 . S
C236 C235 1.391 . S
C236 C237 1.375 1_556 S
C237 H198 0.931 . S
C237 C236 1.375 1_554 S
C237 C238 1.375 . S
C238 C237 1.375 . S
C238 C239 1.361 . S
C239 H199 0.930 . S
C239 C238 1.361 . S
C239 C240 1.399 1_554 S
C240 H200 0.929 . S
C240 C235 1.386 . S
C240 C239 1.399 1_556 S
C241 C220 1.485 . S
C241 C242 1.394 . S
C241 C246 1.360 . S
C242 H201 0.931 . S
C242 C241 1.394 . S
C242 C243 1.372 . S
C243 H202 0.930 . S
C243 C242 1.372 . S
C243 C244 1.397 . S
C244 C243 1.397 . S
C244 C245 1.390 . S
C244 C260 1.476 . S
C245 H203 0.930 . S
C245 C244 1.390 . S
C245 C246 1.366 . S
C246 H204 0.932 . S
C246 C241 1.360 . S
C246 C245 1.366 . S
C247 C221 1.490 . S
C247 C248 1.380 . S
C247 C252 1.386 . S
C248 H205 0.930 . S
C248 C247 1.380 . S
C248 C249 1.381 . S
C249 H206 0.929 . S
C249 C248 1.381 . S
C249 C250 1.371 . S
C250 C249 1.371 . S
C250 C251 1.380 . S
C251 H207 0.931 . S
C251 C250 1.380 . S
C251 C252 1.387 . S
C252 H208 0.930 . S
C252 C247 1.386 . S
C252 C251 1.387 . S
C253 C222 1.519 . S
C253 C254 1.377 . S
C253 C258 1.361 . S
C254 H209 0.929 . S
C254 C253 1.377 . S
C254 C255 1.386 . S
C255 H210 0.931 . S
C255 C254 1.386 . S
C255 C256 1.363 . S
C256 C255 1.363 . S
C256 C257 1.385 . S
C257 H211 0.930 . S
C257 C256 1.385 . S
C257 C258 1.396 . S
C258 H212 0.929 . S
C258 C253 1.361 . S
C258 C257 1.396 . S
C259 O213 1.300 . S
C259 O214 1.209 . S
C259 C232 1.486 . S
C260 O215 1.199 . S
C260 O216 1.297 1_545 S
C260 C244 1.476 . S
C78 C10 2.224 . S
C17 C152 2.256 . S
C36 C256 2.568 1_455 S
C5 C90 0.889 . S
C164 C16 1.160 . S
C31 C250 2.692 . S
C182 C30 2.525 1_655 S
C3 C226 2.213 1_554 S
C102 C18 2.740 . S
C176 C29 2.566 . S
C238 C4 0.858 . S
C23 C108 2.630 . S
