# Generated by pormake.
# Topology dag, (6,3)-cn, num edge types: 1
# Building blocks:
#     Node 0, Type 0, BuildingBlock: MIDCAF_clean_sbu_0, # of connection points: 6
#     Node 1, Type 0, BuildingBlock: MIDCAF_clean_sbu_0, # of connection points: 6
#     Node 2, Type 0, BuildingBlock: MIDCAF_clean_sbu_0, # of connection points: 6
#     Node 3, Type 0, BuildingBlock: MIDCAF_clean_sbu_0, # of connection points: 6
#     Node 4, Type 1, BuildingBlock: INOVEN_clean_linker_0, # of connection points: 3
#     Node 5, Type 1, BuildingBlock: INOVEN_clean_linker_0, # of connection points: 3
#     Node 6, Type 1, BuildingBlock: INOVEN_clean_linker_0, # of connection points: 3
#     Node 7, Type 1, BuildingBlock: INOVEN_clean_linker_0, # of connection points: 3
#     Node 8, Type 1, BuildingBlock: INOVEN_clean_linker_0, # of connection points: 3
#     Node 9, Type 1, BuildingBlock: INOVEN_clean_linker_0, # of connection points: 3
#     Node 10, Type 1, BuildingBlock: INOVEN_clean_linker_0, # of connection points: 3
#     Node 11, Type 1, BuildingBlock: INOVEN_clean_linker_0, # of connection points: 3
#     Edge 12, Type (0, 1), None
#     Edge 13, Type (0, 1), None
#     Edge 14, Type (0, 1), None
#     Edge 15, Type (0, 1), None
#     Edge 16, Type (0, 1), None
#     Edge 17, Type (0, 1), None
#     Edge 18, Type (0, 1), None
#     Edge 19, Type (0, 1), None
#     Edge 20, Type (0, 1), None
#     Edge 21, Type (0, 1), None
#     Edge 22, Type (0, 1), None
#     Edge 23, Type (0, 1), None
#     Edge 24, Type (0, 1), None
#     Edge 25, Type (0, 1), None
#     Edge 26, Type (0, 1), None
#     Edge 27, Type (0, 1), None
#     Edge 28, Type (0, 1), None
#     Edge 29, Type (0, 1), None
#     Edge 30, Type (0, 1), None
#     Edge 31, Type (0, 1), None
#     Edge 32, Type (0, 1), None
#     Edge 33, Type (0, 1), None
#     Edge 34, Type (0, 1), None
#     Edge 35, Type (0, 1), None
# Relax obj value: 0.125
# Max RMSD: 0.149
# Mean RMSD: 0.130
data_MOF--net-dag--node1-MIDCAF_clean_sbu_0--node2-INOVEN_clean_linker_0--edge1-none
_symmetry_space_group_name_H-M    P1
_symmetry_Int_Tables_number       1
_symmetry_cell_setting            triclinic
loop_
_symmetry_equiv_pos_as_xyz
'x, y, z'
_cell_length_a     20.672839
_cell_length_b     20.856124
_cell_length_c     10.44257
_cell_angle_alpha  98.497505
_cell_angle_beta   90.006014
_cell_angle_gamma 89.998189
loop_
_atom_site_label
_atom_site_type_symbol
_atom_site_fract_x
_atom_site_fract_y
_atom_site_fract_z
_atom_type_partial_charge
Zn0 Zn -0.01038 0.78929 0.44829 0.0
Zn1 Zn 0.08721 0.81361 0.90024 0.0
Zn2 Zn 0.02993 0.80502 0.21572 0.0
C3 C 0.08564 0.93431 1.10911 0.0
C4 C -0.0387 0.792 0.92493 0.0
O5 O 0.09372 0.73378 0.29157 0.0
O6 O 0.05287 0.72326 0.4831 0.0
C7 C 0.03543 0.91957 0.44578 0.0
O8 O 0.06161 0.90331 0.1962 0.0
O9 O 0.09884 0.90628 0.99553 0.0
O10 O -0.00317 0.7928 0.82671 0.0
O11 O -0.01215 0.7969 1.03535 0.0
O12 O 0.00837 0.88353 0.5174 0.0
O13 O 0.0488 0.89736 0.32764 0.0
O14 O -0.0767 0.79196 0.21644 0.0
O15 O 0.89737 0.76555 0.40661 0.0
C16 C 0.88015 0.77769 0.29657 0.0
O17 O 0.10206 0.7305 1.15631 0.0
O18 O 0.1375 0.74061 0.95734 0.0
C19 C 0.09583 0.70922 0.39761 0.0
C20 C 0.13798 0.71218 1.05669 0.0
Zn21 Zn 0.48968 0.60313 0.46055 0.0
Zn22 Zn 0.58711 0.5789 1.00777 0.0
Zn23 Zn 0.5301 0.5874 0.69293 0.0
C24 C 0.58576 0.45811 0.79946 0.0
C25 C 0.46104 0.60056 0.98337 0.0
O26 O 0.59378 0.65874 0.61725 0.0
O27 O 0.55289 0.66917 0.42568 0.0
C28 C 0.53545 0.47285 0.46282 0.0
O29 O 0.5618 0.4891 0.71228 0.0
O30 O 0.59889 0.48617 0.91305 0.0
O31 O 0.49669 0.59978 1.08136 0.0
O32 O 0.48748 0.59556 0.87283 0.0
O33 O 0.50834 0.50889 0.39127 0.0
O34 O 0.54893 0.49506 0.58092 0.0
O35 O 0.42341 0.6005 0.69269 0.0
O36 O 0.39748 0.62689 0.50249 0.0
C37 C 0.38026 0.61477 0.61254 0.0
O38 O 0.60233 0.66191 0.75238 0.0
O39 O 0.63772 0.65184 0.95138 0.0
C40 C 0.59583 0.68328 0.5112 0.0
C41 C 0.63826 0.68023 0.85201 0.0
Zn42 Zn 0.83476 0.09642 0.9361 0.0
Zn43 Zn 0.74947 0.07329 0.40963 0.0
Zn44 Zn 0.79258 0.08287 1.17598 0.0
C45 C 0.8843 0.08999 0.41921 0.0
C46 C 0.72859 -0.04529 0.27191 0.0
O47 O 0.72928 0.15294 1.09615 0.0
O48 O 0.76612 0.15804 0.89868 0.0
C49 C -0.05892 0.11554 1.09465 0.0
O50 O 0.87526 0.10094 0.30266 0.0
O51 O 0.83776 0.07297 0.48492 0.0
O52 O 0.70524 -0.01302 0.37333 0.0
O53 O 0.76154 -0.01637 0.19293 0.0
O54 O -0.07484 0.12664 0.98317 0.0
O55 O 0.89745 0.10036 1.17291 0.0
O56 O 0.78042 -0.01248 1.06478 0.0
O57 O 0.82521 -0.00032 0.87773 0.0
C58 C 0.79936 -0.03645 0.95064 0.0
O59 O 0.72082 0.15961 0.23101 0.0
O60 O 0.7007 0.15479 0.43751 0.0
C61 C 0.72529 0.17484 0.98736 0.0
C62 C 0.69363 0.18251 0.33889 0.0
Zn63 Zn 0.33475 0.29604 0.97271 0.0
Zn64 Zn 0.24945 0.31918 0.4991 0.0
Zn65 Zn 0.29257 0.30961 0.73284 0.0
C66 C 0.38428 0.30247 0.48959 0.0
C67 C 0.22863 0.43779 0.63686 0.0
O68 O 0.22927 0.23953 0.81265 0.0
O69 O 0.26614 0.23438 1.01009 0.0
C70 C 0.44107 0.27698 0.8142 0.0
O71 O 0.37524 0.29155 0.60616 0.0
O72 O 0.33774 0.31946 0.42383 0.0
O73 O 0.20529 0.40552 0.53541 0.0
O74 O 0.26154 0.40885 0.71588 0.0
O75 O 0.42517 0.26589 0.92568 0.0
O76 O 0.39744 0.29214 0.73591 0.0
O77 O 0.28038 0.40496 0.84408 0.0
O78 O 0.32514 0.39277 1.03117 0.0
C79 C 0.29928 0.42891 0.95827 0.0
O80 O 0.2208 0.23287 0.67778 0.0
O81 O 0.20066 0.23769 0.47127 0.0
C82 C 0.2253 0.2176 0.92142 0.0
C83 C 0.1936 0.20997 0.5699 0.0
H84 H -0.00895 0.16789 0.43309 0.0
H85 H -0.07628 -0.02234 0.47466 0.0
H86 H 0.12795 0.01665 0.47244 0.0
N87 N 0.11402 0.14516 0.46796 0.0
N88 N 0.14932 0.15837 0.56487 0.0
C89 C 0.00086 0.11876 0.45 0.0
C90 C -0.05001 0.07564 0.45787 0.0
C91 C 0.06465 0.09866 0.46476 0.0
C92 C 0.07831 0.03342 0.47362 0.0
C93 C 0.02699 -0.01027 0.47747 0.0
C94 C -0.03674 0.01215 0.4774 0.0
H95 H 0.2126 0.53091 0.97852 0.0
H96 H 0.41488 0.48281 0.98686 0.0
H97 H 0.35718 0.68036 0.98723 0.0
N98 N 0.23207 0.65989 0.99037 0.0
N99 N 0.18349 0.66232 1.06143 0.0
C100 C 0.26287 0.54565 0.98554 0.0
C101 C 0.31187 0.49898 0.985 0.0
C102 C 0.27958 0.61149 0.99022 0.0
C103 C 0.34455 0.63001 0.9888 0.0
C104 C 0.39297 0.58381 0.99116 0.0
C105 C 0.37665 0.51878 0.99087 0.0
H106 H 0.63763 0.86949 0.32943 0.0
H107 H 0.83606 0.88471 0.21495 0.0
H108 H 0.77102 0.71525 0.36739 0.0
N109 N 0.64532 0.75234 0.38997 0.0
N110 N 0.64878 0.72217 0.48432 0.0
C111 C 0.68539 0.84834 0.31309 0.0
C112 C 0.73507 0.88395 0.26634 0.0
C113 C 0.69787 0.7874 0.34794 0.0
C114 C 0.76094 0.76128 0.33512 0.0
C115 C 0.81097 0.79507 0.28152 0.0
C116 C 0.79679 0.85576 0.2448 0.0
H117 H 0.68137 0.37113 0.8304 0.0
H118 H 0.47956 0.38817 0.74465 0.0
H119 H 0.55222 0.21201 0.85915 0.0
N120 N 0.67695 0.24966 0.87581 0.0
N121 N 0.67316 0.21545 0.96395 0.0
C122 C 0.63377 0.34951 0.81561 0.0
C123 C 0.58176 0.3867 0.78141 0.0
C124 C 0.62358 0.28608 0.8411 0.0
C125 C 0.56074 0.25973 0.83322 0.0
C126 C 0.5088 0.29558 0.79401 0.0
C127 C 0.52027 0.35827 0.76454 0.0
H128 H 0.49102 0.22456 0.47576 0.0
H129 H 0.42371 0.4148 0.43411 0.0
H130 H 0.62793 0.37575 0.43615 0.0
N131 N 0.61399 0.24725 0.44075 0.0
N132 N 0.64934 0.23411 0.34392 0.0
C133 C 0.50084 0.27369 0.45882 0.0
C134 C 0.44997 0.31681 0.45094 0.0
C135 C 0.56463 0.29377 0.44398 0.0
C136 C 0.57829 0.359 0.43504 0.0
C137 C 0.52698 0.40269 0.43119 0.0
C138 C 0.46325 0.38029 0.43136 0.0
H139 H 0.18132 0.02125 1.07819 0.0
H140 H -0.02048 0.00433 1.16415 0.0
H141 H 0.05224 0.18047 1.04968 0.0
N142 N 0.17695 0.14275 1.03291 0.0
N143 N 0.17316 0.177 0.94481 0.0
C144 C 0.13373 0.0429 1.09304 0.0
C145 C 0.0817 0.00574 1.12725 0.0
C146 C 0.12358 0.10635 1.06762 0.0
C147 C 0.06074 0.13274 1.07558 0.0
C148 C 0.0088 0.09692 1.1148 0.0
C149 C 0.02024 0.03421 1.14423 0.0
H150 H 0.13772 0.52302 0.57921 0.0
H151 H 0.3361 0.50777 0.69404 0.0
H152 H 0.27115 0.67727 0.54157 0.0
N153 N 0.14542 0.6402 0.51883 0.0
N154 N 0.14882 0.67037 0.42446 0.0
C155 C 0.18548 0.54417 0.59562 0.0
C156 C 0.23513 0.50855 0.64245 0.0
C157 C 0.19797 0.60512 0.56084 0.0
C158 C 0.26105 0.63123 0.57379 0.0
C159 C 0.31106 0.59743 0.6275 0.0
C160 C 0.29685 0.53673 0.66414 0.0
H161 H 0.7128 0.86147 0.93026 0.0
H162 H -0.08496 0.90979 0.92236 0.0
H163 H 0.85753 0.71215 0.92165 0.0
N164 N 0.73238 0.73251 0.91839 0.0
N165 N 0.68378 0.7301 0.84733 0.0
C166 C 0.76309 0.84678 0.92338 0.0
C167 C 0.81205 0.8935 0.92408 0.0
C168 C 0.77985 0.78095 0.91872 0.0
C169 C 0.84485 0.76249 0.92016 0.0
C170 C 0.89322 0.80874 0.91764 0.0
C171 C 0.87685 0.87377 0.91828 0.0
loop_
_geom_bond_atom_site_label_1
_geom_bond_atom_site_label_2
_geom_bond_distance
_geom_bond_site_symmetry_2
_ccdc_geom_bond_type
Zn0 O6 1.920 . S
Zn0 O12 1.898 . S
Zn0 O15 1.905 1_455 S
Zn1 O9 1.905 . S
Zn1 O10 1.898 . S
Zn1 O18 1.920 . S
Zn2 O5 2.080 . S
Zn2 O8 2.114 1_554 S
Zn2 O11 2.120 1_554 S
Zn2 O13 2.120 . S
Zn2 O14 2.114 . S
Zn2 O17 2.080 1_554 S
C3 O8 1.166 . S
C3 O9 1.182 . S
C4 O10 1.167 . S
C4 O11 1.299 . S
O5 Zn2 2.080 . S
O5 C19 1.305 . S
O6 Zn0 1.920 . S
O6 C19 1.234 . S
C7 O12 1.167 . S
C7 O13 1.299 . S
O8 Zn2 2.114 1_556 S
O8 C3 1.166 . S
O9 Zn1 1.905 . S
O9 C3 1.182 . S
O10 Zn1 1.898 . S
O10 C4 1.167 . S
O11 Zn2 2.120 1_556 S
O11 C4 1.299 . S
O12 Zn0 1.898 . S
O12 C7 1.167 . S
O13 Zn2 2.120 . S
O13 C7 1.299 . S
O14 Zn2 2.114 . S
O14 C16 1.166 1_455 S
O15 Zn0 1.905 1_655 S
O15 C16 1.182 . S
C16 O14 1.166 1_655 S
C16 O15 1.182 . S
O17 Zn2 2.080 1_556 S
O17 C20 1.305 . S
O18 Zn1 1.920 . S
O18 C20 1.234 . S
C19 O5 1.305 . S
C19 O6 1.234 . S
C20 O17 1.305 . S
C20 O18 1.234 . S
Zn21 O27 1.920 . S
Zn21 O33 1.898 . S
Zn21 O36 1.905 . S
Zn22 O30 1.905 . S
Zn22 O31 1.898 . S
Zn22 O39 1.920 . S
Zn23 O26 2.080 . S
Zn23 O29 2.114 . S
Zn23 O32 2.120 . S
Zn23 O34 2.120 . S
Zn23 O35 2.114 . S
Zn23 O38 2.080 . S
C24 O29 1.166 . S
C24 O30 1.182 . S
C25 O31 1.167 . S
C25 O32 1.299 . S
O26 Zn23 2.080 . S
O26 C40 1.305 . S
O27 Zn21 1.920 . S
O27 C40 1.234 . S
C28 O33 1.167 . S
C28 O34 1.299 . S
O29 Zn23 2.114 . S
O29 C24 1.166 . S
O30 Zn22 1.905 . S
O30 C24 1.182 . S
O31 Zn22 1.898 . S
O31 C25 1.167 . S
O32 Zn23 2.120 . S
O32 C25 1.299 . S
O33 Zn21 1.898 . S
O33 C28 1.167 . S
O34 Zn23 2.120 . S
O34 C28 1.299 . S
O35 Zn23 2.114 . S
O35 C37 1.166 . S
O36 Zn21 1.905 . S
O36 C37 1.182 . S
C37 O35 1.166 . S
C37 O36 1.182 . S
O38 Zn23 2.080 . S
O38 C41 1.305 . S
O39 Zn22 1.920 . S
O39 C41 1.234 . S
C40 O26 1.305 . S
C40 O27 1.234 . S
C41 O38 1.305 . S
C41 O39 1.234 . S
Zn42 O48 1.920 . S
Zn42 O54 1.898 1_655 S
Zn42 O57 1.905 . S
Zn43 O51 1.905 . S
Zn43 O52 1.898 . S
Zn43 O60 1.920 . S
Zn44 O47 2.075 1_554 S
Zn44 O50 2.119 . S
Zn44 O53 2.124 . S
Zn44 O55 2.116 1_554 S
Zn44 O56 2.110 1_554 S
Zn44 O59 2.085 . S
C45 O50 1.166 . S
C45 O51 1.182 . S
C46 O52 1.167 . S
C46 O53 1.299 . S
O47 Zn44 2.075 1_556 S
O47 C61 1.305 . S
O48 Zn42 1.920 . S
O48 C61 1.234 . S
C49 O54 1.167 . S
C49 O55 1.299 1_455 S
O50 Zn44 2.119 . S
O50 C45 1.166 . S
O51 Zn43 1.905 . S
O51 C45 1.182 . S
O52 Zn43 1.898 . S
O52 C46 1.167 . S
O53 Zn44 2.124 . S
O53 C46 1.299 . S
O54 Zn42 1.898 1_455 S
O54 C49 1.167 . S
O55 Zn44 2.116 1_556 S
O55 C49 1.299 1_655 S
O56 Zn44 2.110 1_556 S
O56 C58 1.166 . S
O57 Zn42 1.905 . S
O57 C58 1.182 . S
C58 O56 1.166 . S
C58 O57 1.182 . S
O59 Zn44 2.085 . S
O59 C62 1.305 . S
O60 Zn43 1.920 . S
O60 C62 1.234 . S
C61 O47 1.305 . S
C61 O48 1.234 . S
C62 O59 1.305 . S
C62 O60 1.234 . S
Zn63 O69 1.920 . S
Zn63 O75 1.898 . S
Zn63 O78 1.905 . S
Zn64 O72 1.905 . S
Zn64 O73 1.898 . S
Zn64 O81 1.920 . S
Zn65 O68 2.080 . S
Zn65 O71 2.114 . S
Zn65 O74 2.120 . S
Zn65 O76 2.120 . S
Zn65 O77 2.114 . S
Zn65 O80 2.080 . S
C66 O71 1.166 . S
C66 O72 1.182 . S
C67 O73 1.167 . S
C67 O74 1.299 . S
O68 Zn65 2.080 . S
O68 C82 1.305 . S
O69 Zn63 1.920 . S
O69 C82 1.234 . S
C70 O75 1.167 . S
C70 O76 1.299 . S
O71 Zn65 2.114 . S
O71 C66 1.166 . S
O72 Zn64 1.905 . S
O72 C66 1.182 . S
O73 Zn64 1.898 . S
O73 C67 1.167 . S
O74 Zn65 2.120 . S
O74 C67 1.299 . S
O75 Zn63 1.898 . S
O75 C70 1.167 . S
O76 Zn65 2.120 . S
O76 C70 1.299 . S
O77 Zn65 2.114 . S
O77 C79 1.166 . S
O78 Zn63 1.905 . S
O78 C79 1.182 . S
C79 O77 1.166 . S
C79 O78 1.182 . S
O80 Zn65 2.080 . S
O80 C83 1.305 . S
O81 Zn64 1.920 . S
O81 C83 1.234 . S
C82 O68 1.305 . S
C82 O69 1.234 . S
C83 O80 1.305 . S
C83 O81 1.234 . S
H84 C89 0.929 . S
H85 C94 0.931 . S
H86 C92 0.930 . S
N87 N88 1.234 . S
N87 C91 1.453 . S
N88 N87 1.234 . S
C89 H84 0.929 . S
C89 C90 1.373 . S
C89 C91 1.368 . S
C90 C89 1.373 . S
C90 C94 1.397 . S
C91 N87 1.453 . S
C91 C89 1.368 . S
C91 C92 1.373 . S
C92 H86 0.930 . S
C92 C91 1.373 . S
C92 C93 1.371 . S
C93 C92 1.371 . S
C93 C94 1.383 . S
C94 H85 0.931 . S
C94 C90 1.397 . S
C94 C93 1.383 . S
H95 C100 0.929 . S
H96 C105 0.931 . S
H97 C103 0.930 . S
N98 N99 1.234 . S
N98 C102 1.453 . S
N99 N98 1.234 . S
C100 H95 0.929 . S
C100 C101 1.373 . S
C100 C102 1.368 . S
C101 C100 1.373 . S
C101 C105 1.397 . S
C102 N98 1.453 . S
C102 C100 1.368 . S
C102 C103 1.373 . S
C103 H97 0.930 . S
C103 C102 1.373 . S
C103 C104 1.371 . S
C104 C103 1.371 . S
C104 C105 1.383 . S
C105 H96 0.931 . S
C105 C101 1.397 . S
C105 C104 1.383 . S
H106 C111 0.929 . S
H107 C116 0.931 . S
H108 C114 0.930 . S
N109 N110 1.234 . S
N109 C113 1.453 . S
N110 N109 1.234 . S
C111 H106 0.929 . S
C111 C112 1.373 . S
C111 C113 1.368 . S
C112 C111 1.373 . S
C112 C116 1.397 . S
C113 N109 1.453 . S
C113 C111 1.368 . S
C113 C114 1.373 . S
C114 H108 0.930 . S
C114 C113 1.373 . S
C114 C115 1.371 . S
C115 C114 1.371 . S
C115 C116 1.383 . S
C116 H107 0.931 . S
C116 C112 1.397 . S
C116 C115 1.383 . S
H117 C122 0.929 . S
H118 C127 0.931 . S
H119 C125 0.930 . S
N120 N121 1.234 . S
N120 C124 1.453 . S
N121 N120 1.234 . S
C122 H117 0.929 . S
C122 C123 1.373 . S
C122 C124 1.368 . S
C123 C122 1.373 . S
C123 C127 1.397 . S
C124 N120 1.453 . S
C124 C122 1.368 . S
C124 C125 1.373 . S
C125 H119 0.930 . S
C125 C124 1.373 . S
C125 C126 1.371 . S
C126 C125 1.371 . S
C126 C127 1.383 . S
C127 H118 0.931 . S
C127 C123 1.397 . S
C127 C126 1.383 . S
H128 C133 0.929 . S
H129 C138 0.931 . S
H130 C136 0.930 . S
N131 N132 1.234 . S
N131 C135 1.453 . S
N132 N131 1.234 . S
C133 H128 0.929 . S
C133 C134 1.373 . S
C133 C135 1.368 . S
C134 C133 1.373 . S
C134 C138 1.397 . S
C135 N131 1.453 . S
C135 C133 1.368 . S
C135 C136 1.373 . S
C136 H130 0.930 . S
C136 C135 1.373 . S
C136 C137 1.371 . S
C137 C136 1.371 . S
C137 C138 1.383 . S
C138 H129 0.931 . S
C138 C134 1.397 . S
C138 C137 1.383 . S
H139 C144 0.929 . S
H140 C149 0.931 . S
H141 C147 0.930 . S
N142 N143 1.234 . S
N142 C146 1.453 . S
N143 N142 1.234 . S
C144 H139 0.929 . S
C144 C145 1.373 . S
C144 C146 1.368 . S
C145 C144 1.373 . S
C145 C149 1.397 . S
C146 N142 1.453 . S
C146 C144 1.368 . S
C146 C147 1.373 . S
C147 H141 0.930 . S
C147 C146 1.373 . S
C147 C148 1.371 . S
C148 C147 1.371 . S
C148 C149 1.383 . S
C149 H140 0.931 . S
C149 C145 1.397 . S
C149 C148 1.383 . S
H150 C155 0.929 . S
H151 C160 0.931 . S
H152 C158 0.930 . S
N153 N154 1.234 . S
N153 C157 1.453 . S
N154 N153 1.234 . S
C155 H150 0.929 . S
C155 C156 1.373 . S
C155 C157 1.368 . S
C156 C155 1.373 . S
C156 C160 1.397 . S
C157 N153 1.453 . S
C157 C155 1.368 . S
C157 C158 1.373 . S
C158 H152 0.930 . S
C158 C157 1.373 . S
C158 C159 1.371 . S
C159 C158 1.371 . S
C159 C160 1.383 . S
C160 H151 0.931 . S
C160 C156 1.397 . S
C160 C159 1.383 . S
H161 C166 0.929 . S
H162 C171 0.931 1_455 S
H163 C169 0.930 . S
N164 N165 1.234 . S
N164 C168 1.453 . S
N165 N164 1.234 . S
C166 H161 0.929 . S
C166 C167 1.373 . S
C166 C168 1.368 . S
C167 C166 1.373 . S
C167 C171 1.397 . S
C168 N164 1.453 . S
C168 C166 1.368 . S
C168 C169 1.373 . S
C169 H163 0.930 . S
C169 C168 1.373 . S
C169 C170 1.371 . S
C170 C169 1.371 . S
C170 C171 1.383 . S
C171 H162 0.931 1_655 S
C171 C167 1.397 . S
C171 C170 1.383 . S
C7 C93 0.890 1_565 S
C25 C104 0.753 . S
C46 C112 0.926 1_545 S
C126 C70 1.111 . S
C137 C28 0.890 . S
C49 C148 1.110 . S
C67 C156 0.926 . S
C4 C170 0.753 1_455 S
C58 C167 1.500 1_545 S
C134 C66 1.397 . S
C145 C3 1.812 1_545 S
C37 C159 1.799 . S
C101 C79 1.500 . S
C16 C115 1.799 . S
C123 C24 1.812 . S
C90 C45 1.397 1_455 S
N154 C19 1.251 . S
N165 C41 1.448 . S
C62 N132 1.470 . S
N143 C82 1.131 . S
N110 C40 1.251 . S
C61 N121 1.131 . S
N88 C83 1.470 . S
N99 C20 1.448 . S
