# Generated by pormake.
# Topology nom, (4,4)-cn, num edge types: 1
# Building blocks:
#     Node 0, Type 0, BuildingBlock: GIZVER_clean_linker_0, # of connection points: 4
#     Node 1, Type 0, BuildingBlock: GIZVER_clean_linker_0, # of connection points: 4
#     Node 2, Type 0, BuildingBlock: GIZVER_clean_linker_0, # of connection points: 4
#     Node 3, Type 0, BuildingBlock: GIZVER_clean_linker_0, # of connection points: 4
#     Node 4, Type 0, BuildingBlock: GIZVER_clean_linker_0, # of connection points: 4
#     Node 5, Type 0, BuildingBlock: GIZVER_clean_linker_0, # of connection points: 4
#     Node 6, Type 1, BuildingBlock: AZAVOO_clean_sbu_0, # of connection points: 4
#     Node 7, Type 1, BuildingBlock: AZAVOO_clean_sbu_0, # of connection points: 4
#     Node 8, Type 1, BuildingBlock: AZAVOO_clean_sbu_0, # of connection points: 4
#     Node 9, Type 1, BuildingBlock: AZAVOO_clean_sbu_0, # of connection points: 4
#     Node 10, Type 1, BuildingBlock: AZAVOO_clean_sbu_0, # of connection points: 4
#     Node 11, Type 1, BuildingBlock: AZAVOO_clean_sbu_0, # of connection points: 4
#     Edge 12, Type (0, 1), None
#     Edge 13, Type (0, 1), None
#     Edge 14, Type (0, 1), None
#     Edge 15, Type (0, 1), None
#     Edge 16, Type (0, 1), None
#     Edge 17, Type (0, 1), None
#     Edge 18, Type (0, 1), None
#     Edge 19, Type (0, 1), None
#     Edge 20, Type (0, 1), None
#     Edge 21, Type (0, 1), None
#     Edge 22, Type (0, 1), None
#     Edge 23, Type (0, 1), None
#     Edge 24, Type (0, 1), None
#     Edge 25, Type (0, 1), None
#     Edge 26, Type (0, 1), None
#     Edge 27, Type (0, 1), None
#     Edge 28, Type (0, 1), None
#     Edge 29, Type (0, 1), None
#     Edge 30, Type (0, 1), None
#     Edge 31, Type (0, 1), None
#     Edge 32, Type (0, 1), None
#     Edge 33, Type (0, 1), None
#     Edge 34, Type (0, 1), None
#     Edge 35, Type (0, 1), None
# Relax obj value: 0.033
# Max RMSD: 0.171
# Mean RMSD: 0.112
data_MOF--net-nom--node1-AZAVOO_clean_sbu_0--node2-GIZVER_clean_linker_0--edge1-none
_symmetry_space_group_name_H-M    P1
_symmetry_Int_Tables_number       1
_symmetry_cell_setting            triclinic
loop_
_symmetry_equiv_pos_as_xyz
'x, y, z'
_cell_length_a     22.552729
_cell_length_b     22.914853
_cell_length_c     20.302756
_cell_angle_alpha  92.705287
_cell_angle_beta   91.422645
_cell_angle_gamma 119.85022
loop_
_atom_site_label
_atom_site_type_symbol
_atom_site_fract_x
_atom_site_fract_y
_atom_site_fract_z
_atom_type_partial_charge
H0 H 0.86723 0.52299 0.39319 0.0
H1 H 0.9579 0.51265 0.21191 0.0
H2 H 0.7483 0.36891 0.24052 0.0
H3 H -0.02223 0.61107 0.37429 0.0
H4 H -0.00496 0.62257 0.28944 0.0
H5 H 0.02175 0.54627 0.43882 0.0
H6 H 0.22121 0.58933 0.38435 0.0
H7 H 0.09063 0.61867 0.24787 0.0
C8 C 0.86482 0.49591 0.34703 0.0
C9 C 0.80216 0.4402 0.32346 0.0
C10 C 0.92228 0.52087 0.30803 0.0
C11 C 0.91584 0.49036 0.24437 0.0
C12 C 0.85305 0.43531 0.22043 0.0
C13 C 0.79775 0.40875 0.26117 0.0
C14 C -0.01445 0.5872 0.32881 0.0
C15 C 0.04778 0.57986 0.34056 0.0
C16 C 0.05931 0.55972 0.40165 0.0
C17 C 0.12171 0.56271 0.41686 0.0
C18 C 0.17207 0.58442 0.37057 0.0
C19 C 0.16172 0.60494 0.30938 0.0
C20 C 0.09865 0.60112 0.29409 0.0
H21 H 0.35305 0.88224 0.54802 0.0
H22 H 0.42187 0.96219 0.35914 0.0
H23 H 0.36866 0.75873 0.39058 0.0
H24 H 0.35412 0.9833 0.52084 0.0
H25 H 0.36025 0.00328 0.43681 0.0
H26 H 0.4618 0.02656 0.59418 0.0
H27 H 0.61755 0.22474 0.55152 0.0
H28 H 0.46184 0.09766 0.40139 0.0
C29 C 0.36777 0.87658 0.49876 0.0
C30 C 0.35996 0.81419 0.47536 0.0
C31 C 0.39061 0.93056 0.45715 0.0
C32 C 0.40722 0.92209 0.39237 0.0
C33 C 0.39902 0.85994 0.36877 0.0
C34 C 0.37625 0.80692 0.41037 0.0
C35 C 0.38646 -0.00742 0.47772 0.0
C36 C 0.45592 0.05389 0.49475 0.0
C37 C 0.48631 0.0644 0.55876 0.0
C38 C 0.54458 0.12605 0.57887 0.0
C39 C 0.57385 0.17653 0.53435 0.0
C40 C 0.54492 0.16709 0.46993 0.0
C41 C 0.48623 0.10498 0.45011 0.0
H42 H 0.34431 0.45976 0.54516 0.0
H43 H 0.46736 0.49668 0.72349 0.0
H44 H 0.41638 0.64394 0.66462 0.0
H45 H 0.3628 0.37389 0.57997 0.0
H46 H 0.38396 0.3796 0.66609 0.0
H47 H 0.46755 0.43636 0.50401 0.0
H48 H 0.61847 0.38048 0.54945 0.0
H49 H 0.47878 0.36866 0.69586 0.0
C50 C 0.37807 0.49486 0.58488 0.0
C51 C 0.37736 0.55506 0.59876 0.0
C52 C 0.41384 0.47519 0.62787 0.0
C53 C 0.448 0.51585 0.68579 0.0
C54 C 0.44955 0.57722 0.69867 0.0
C55 C 0.41986 0.59929 0.65149 0.0
C56 C 0.40299 0.40482 0.61949 0.0
C57 C 0.46789 0.40529 0.60288 0.0
C58 C 0.49307 0.42126 0.53966 0.0
C59 C 0.54757 0.41246 0.5209 0.0
C60 C 0.57782 0.38914 0.56557 0.0
C61 C 0.55363 0.3733 0.6289 0.0
C62 C 0.49918 0.38247 0.6477 0.0
H63 H 0.87649 0.32538 0.7325 0.0
H64 H 0.9665 0.45093 0.91172 0.0
H65 H 0.76598 0.40229 0.84028 0.0
H66 H -0.00868 0.35867 0.76351 0.0
H67 H 0.00042 0.36371 0.85187 0.0
H68 H 0.02304 0.48045 0.71586 0.0
H69 H 0.2216 0.63103 0.79451 0.0
H70 H 0.11409 0.44327 0.88531 0.0
C71 C 0.8755 0.35915 0.77115 0.0
C72 C 0.81504 0.36095 0.77991 0.0
C73 C 0.9322 0.39545 0.81624 0.0
C74 C 0.92653 0.43042 0.87247 0.0
C75 C 0.86691 0.43388 0.88045 0.0
C76 C 0.81398 0.4039 0.83095 0.0
C77 C -0.00469 0.38971 0.80901 0.0
C78 C 0.05752 0.45851 0.80694 0.0
C79 C 0.06262 0.49961 0.75542 0.0
C80 C 0.12168 0.56243 0.75161 0.0
C81 C 0.17412 0.58487 0.80118 0.0
C82 C 0.1741 0.54035 0.84641 0.0
C83 C 0.11434 0.47827 0.85104 0.0
H84 H 0.63213 0.11675 0.07125 0.0
H85 H 0.50992 0.03211 0.88967 0.0
H86 H 0.57984 0.23726 0.95438 0.0
H87 H 0.58447 -0.00031 0.0448 0.0
H88 H 0.59141 -0.00794 0.95776 0.0
H89 H 0.46513 0.96354 0.08719 0.0
H90 H 0.30614 0.78454 0.98193 0.0
H91 H 0.49988 0.8999 0.89693 0.0
C92 C 0.60188 0.12047 0.03104 0.0
C93 C 0.60892 0.18326 0.01937 0.0
C94 C 0.56219 0.06437 0.98658 0.0
C95 C 0.53236 0.0724 0.92847 0.0
C96 C 0.53746 0.13442 0.91761 0.0
C97 C 0.57089 0.18786 0.96609 0.0
C98 C 0.56054 -0.00098 -0.00403 0.0
C99 C 0.48803 0.94152 0.98994 0.0
C100 C 0.44478 0.93144 0.04188 0.0
C101 C 0.37922 0.87447 0.03958 0.0
C102 C 0.35473 0.83124 0.98185 0.0
C103 C 0.39907 0.83867 0.93158 0.0
C104 C 0.4651 0.89474 0.93509 0.0
H105 H 0.60987 0.52765 0.06154 0.0
H106 H 0.50877 0.48553 0.24409 0.0
H107 H 0.5264 0.33096 0.13404 0.0
H108 H 0.61862 0.61813 0.13392 0.0
H109 H 0.58342 0.60102 0.21348 0.0
H110 H 0.50846 0.5509 0.03569 0.0
H111 H 0.38503 0.64333 0.06111 0.0
H112 H 0.51601 0.65273 0.22306 0.0
C113 C 0.57868 0.49155 0.09625 0.0
C114 C 0.56749 0.4257 0.08976 0.0
C115 C 0.55358 0.51222 0.14978 0.0
C116 C 0.52019 0.4672 0.19866 0.0
C117 C 0.51099 0.40188 0.19362 0.0
C118 C 0.52934 0.37979 0.13608 0.0
C119 C 0.57179 0.58502 0.15991 0.0
C120 C 0.51479 0.59561 0.13416 0.0
C121 C 0.4893 0.57612 0.0678 0.0
C122 C 0.44254 0.59341 0.0416 0.0
C123 C 0.41956 0.6281 0.08222 0.0
C124 C 0.44506 0.64877 0.14785 0.0
C125 C 0.49331 0.63325 0.17359 0.0
Mg126 Mg 0.57366 0.32204 0.32477 0.0
O127 O 0.55329 0.36102 0.42111 0.0
O128 O 0.59953 0.47303 0.42771 0.0
Mg129 Mg 0.6426 0.507 0.32669 0.0
C130 C 0.56617 0.41596 0.45208 0.0
C131 C 0.5718 0.22533 0.42772 0.0
O132 O 0.62175 0.28436 0.45144 0.0
O133 O 0.68853 0.36941 0.35166 0.0
O134 O 0.72627 0.47901 0.33952 0.0
O135 O 0.4806 0.31191 0.26675 0.0
O136 O 0.58064 0.40412 0.28047 0.0
C137 C 0.7372 0.43018 0.34806 0.0
C138 C 0.52002 0.37412 0.25401 0.0
O139 O 0.54237 0.22172 0.37212 0.0
Mg140 Mg 0.24539 0.65124 0.61438 0.0
O141 O 0.1801 0.61296 0.51845 0.0
O142 O 0.1258 0.50056 0.50537 0.0
Mg143 Mg 0.14408 0.46515 0.60392 0.0
C144 C 0.14125 0.55784 0.48483 0.0
C145 C 0.32885 0.75397 0.51468 0.0
O146 O 0.31808 0.69596 0.48794 0.0
O147 O 0.31981 0.61616 0.58094 0.0
O148 O 0.25816 0.50458 0.58899 0.0
O149 O 0.16176 0.64999 0.67574 0.0
O150 O 0.1773 0.5639 0.65689 0.0
C151 C 0.31496 0.5581 0.58098 0.0
C152 C 0.14484 0.58862 0.68699 0.0
O153 O 0.30675 0.75519 0.5715 0.0
Mg154 Mg 0.58741 0.2511 0.7756 0.0
O155 O 0.55575 0.18597 0.67932 0.0
O156 O 0.60512 0.12243 0.67469 0.0
Mg157 Mg 0.65496 0.13497 0.77864 0.0
C158 C 0.56802 0.14372 0.64883 0.0
C159 C 0.58047 0.34014 0.67138 0.0
O160 O 0.62517 0.32456 0.64859 0.0
O161 O 0.69826 0.31344 0.74836 0.0
O162 O 0.73955 0.24468 0.76778 0.0
O163 O 0.49862 0.17718 0.83156 0.0
O164 O 0.59631 0.17878 0.82414 0.0
C165 C 0.74837 0.30282 0.75627 0.0
C166 C 0.53814 0.15429 0.84999 0.0
O167 O 0.55542 0.31938 0.72659 0.0
Mg168 Mg 0.39898 0.65466 0.84149 0.0
O169 O 0.434 0.63391 0.93956 0.0
O170 O 0.38664 0.52235 0.94492 0.0
Mg171 Mg 0.33679 0.47342 0.84206 0.0
C172 C 0.42218 0.58245 0.9707 0.0
C173 C 0.38275 0.78015 0.88615 0.0
O174 O 0.31977 0.74096 0.86182 0.0
O175 O 0.29118 0.60925 0.87661 0.0
O176 O 0.25053 0.49915 0.85299 0.0
O177 O 0.48796 0.66567 0.78391 0.0
O178 O 0.39417 0.56999 0.79551 0.0
C179 C 0.24131 0.54896 0.86727 0.0
C180 C 0.45086 0.60178 0.76719 0.0
O181 O 0.42578 0.75963 0.88321 0.0
Mg182 Mg 0.74267 0.40408 0.01683 0.0
O183 O 0.80288 0.43272 0.11679 0.0
O184 O 0.8549 0.37168 0.12589 0.0
Mg185 Mg 0.84365 0.31828 0.0239 0.0
C186 C 0.83902 0.41425 0.14966 0.0
C187 C 0.609 0.40923 0.04618 0.0
O188 O 0.58087 0.34998 0.01347 0.0
O189 O 0.6691 0.29966 0.04935 0.0
O190 O 0.72818 0.2463 0.0317 0.0
O191 O 0.82649 0.48425 0.96003 0.0
O192 O 0.81463 0.38527 0.97571 0.0
C193 C 0.67218 0.2456 0.04245 0.0
C194 C 0.84544 0.44033 0.94673 0.0
O195 O 0.67396 0.44434 0.05402 0.0
Mg196 Mg 0.31333 0.73974 0.16833 0.0
O197 O 0.34866 0.80029 0.26727 0.0
O198 O 0.46123 0.87301 0.27268 0.0
Mg199 Mg 0.49725 0.86849 0.16863 0.0
C200 C 0.40331 0.84539 0.29847 0.0
C201 C 0.2203 0.63909 0.26682 0.0
O202 O 0.28157 0.65279 0.28841 0.0
O203 O 0.3704 0.68298 0.18886 0.0
O204 O 0.47871 0.76087 0.17201 0.0
O205 O 0.29206 0.81323 0.11561 0.0
O206 O 0.39167 0.81844 0.12561 0.0
C207 C 0.4328 0.70009 0.18002 0.0
C208 C 0.35559 0.84153 0.10102 0.0
O209 O 0.21453 0.66422 0.21419 0.0
loop_
_geom_bond_atom_site_label_1
_geom_bond_atom_site_label_2
_geom_bond_distance
_geom_bond_site_symmetry_2
_ccdc_geom_bond_type
H0 C8 0.930 . S
H1 C11 0.930 . S
H2 C13 0.930 . S
H3 C14 0.970 1_655 S
H4 C14 0.970 . S
H5 C16 0.930 . S
H6 C18 0.930 . S
H7 C20 0.930 . S
C8 H0 0.930 . S
C8 C9 1.382 . S
C8 C10 1.426 . S
C9 C8 1.382 . S
C9 C13 1.389 . S
C10 C8 1.426 . S
C10 C11 1.375 . S
C10 C14 1.532 1_655 S
C11 H1 0.930 . S
C11 C10 1.375 . S
C11 C12 1.416 . S
C12 C11 1.416 . S
C12 C13 1.371 . S
C13 H2 0.930 . S
C13 C9 1.389 . S
C13 C12 1.371 . S
C14 H3 0.970 1_455 S
C14 H4 0.970 . S
C14 C10 1.532 1_455 S
C14 C15 1.499 . S
C15 C14 1.499 . S
C15 C16 1.370 . S
C15 C20 1.415 . S
C16 H5 0.930 . S
C16 C15 1.370 . S
C16 C17 1.407 . S
C17 C16 1.407 . S
C17 C18 1.365 . S
C18 H6 0.930 . S
C18 C17 1.365 . S
C18 C19 1.393 . S
C19 C18 1.393 . S
C19 C20 1.387 . S
C20 H7 0.930 . S
C20 C15 1.415 . S
C20 C19 1.387 . S
H21 C29 0.930 . S
H22 C32 0.930 . S
H23 C34 0.930 . S
H24 C35 0.970 . S
H25 C35 0.970 . S
H26 C37 0.930 . S
H27 C39 0.930 . S
H28 C41 0.930 . S
C29 H21 0.930 . S
C29 C30 1.382 . S
C29 C31 1.426 . S
C30 C29 1.382 . S
C30 C34 1.389 . S
C31 C29 1.426 . S
C31 C32 1.375 . S
C31 C35 1.532 1_565 S
C32 H22 0.930 . S
C32 C31 1.375 . S
C32 C33 1.416 . S
C33 C32 1.416 . S
C33 C34 1.371 . S
C34 H23 0.930 . S
C34 C30 1.389 . S
C34 C33 1.371 . S
C35 H24 0.970 . S
C35 H25 0.970 . S
C35 C31 1.532 1_545 S
C35 C36 1.499 . S
C36 C35 1.499 . S
C36 C37 1.370 . S
C36 C41 1.415 . S
C37 H26 0.930 . S
C37 C36 1.370 . S
C37 C38 1.407 . S
C38 C37 1.407 . S
C38 C39 1.365 . S
C39 H27 0.930 . S
C39 C38 1.365 . S
C39 C40 1.393 . S
C40 C39 1.393 . S
C40 C41 1.387 . S
C41 H28 0.930 . S
C41 C36 1.415 . S
C41 C40 1.387 . S
H42 C50 0.930 . S
H43 C53 0.930 . S
H44 C55 0.930 . S
H45 C56 0.970 . S
H46 C56 0.970 . S
H47 C58 0.930 . S
H48 C60 0.930 . S
H49 C62 0.930 . S
C50 H42 0.930 . S
C50 C51 1.382 . S
C50 C52 1.426 . S
C51 C50 1.382 . S
C51 C55 1.389 . S
C52 C50 1.426 . S
C52 C53 1.375 . S
C52 C56 1.532 . S
C53 H43 0.930 . S
C53 C52 1.375 . S
C53 C54 1.416 . S
C54 C53 1.416 . S
C54 C55 1.371 . S
C55 H44 0.930 . S
C55 C51 1.389 . S
C55 C54 1.371 . S
C56 H45 0.970 . S
C56 H46 0.970 . S
C56 C52 1.532 . S
C56 C57 1.499 . S
C57 C56 1.499 . S
C57 C58 1.370 . S
C57 C62 1.415 . S
C58 H47 0.930 . S
C58 C57 1.370 . S
C58 C59 1.407 . S
C59 C58 1.407 . S
C59 C60 1.365 . S
C60 H48 0.930 . S
C60 C59 1.365 . S
C60 C61 1.393 . S
C61 C60 1.393 . S
C61 C62 1.387 . S
C62 H49 0.930 . S
C62 C57 1.415 . S
C62 C61 1.387 . S
H63 C71 0.930 . S
H64 C74 0.930 . S
H65 C76 0.930 . S
H66 C77 0.970 1_655 S
H67 C77 0.970 . S
H68 C79 0.930 . S
H69 C81 0.930 . S
H70 C83 0.930 . S
C71 H63 0.930 . S
C71 C72 1.382 . S
C71 C73 1.426 . S
C72 C71 1.382 . S
C72 C76 1.389 . S
C73 C71 1.426 . S
C73 C74 1.375 . S
C73 C77 1.532 1_655 S
C74 H64 0.930 . S
C74 C73 1.375 . S
C74 C75 1.416 . S
C75 C74 1.416 . S
C75 C76 1.371 . S
C76 H65 0.930 . S
C76 C72 1.389 . S
C76 C75 1.371 . S
C77 H66 0.970 1_455 S
C77 H67 0.970 . S
C77 C73 1.532 1_455 S
C77 C78 1.499 . S
C78 C77 1.499 . S
C78 C79 1.370 . S
C78 C83 1.415 . S
C79 H68 0.930 . S
C79 C78 1.370 . S
C79 C80 1.407 . S
C80 C79 1.407 . S
C80 C81 1.365 . S
C81 H69 0.930 . S
C81 C80 1.365 . S
C81 C82 1.393 . S
C82 C81 1.393 . S
C82 C83 1.387 . S
C83 H70 0.930 . S
C83 C78 1.415 . S
C83 C82 1.387 . S
H84 C92 0.930 . S
H85 C95 0.930 . S
H86 C97 0.930 . S
H87 C98 0.970 1_554 S
H88 C98 0.970 . S
H89 C100 0.930 . S
H90 C102 0.930 . S
H91 C104 0.930 . S
C92 H84 0.930 . S
C92 C93 1.382 . S
C92 C94 1.426 1_554 S
C93 C92 1.382 . S
C93 C97 1.389 1_554 S
C94 C92 1.426 1_556 S
C94 C95 1.375 . S
C94 C98 1.532 . S
C95 H85 0.930 . S
C95 C94 1.375 . S
C95 C96 1.416 . S
C96 C95 1.416 . S
C96 C97 1.371 . S
C97 H86 0.930 . S
C97 C93 1.389 1_556 S
C97 C96 1.371 . S
C98 H87 0.970 1_556 S
C98 H88 0.970 . S
C98 C94 1.532 . S
C98 C99 1.499 1_546 S
C99 C98 1.499 1_564 S
C99 C100 1.370 . S
C99 C104 1.415 1_554 S
C100 H89 0.930 . S
C100 C99 1.370 . S
C100 C101 1.407 . S
C101 C100 1.407 . S
C101 C102 1.365 . S
C102 H90 0.930 . S
C102 C101 1.365 . S
C102 C103 1.393 1_554 S
C103 C102 1.393 1_556 S
C103 C104 1.387 . S
C104 H91 0.930 . S
C104 C99 1.415 1_556 S
C104 C103 1.387 . S
H105 C113 0.930 . S
H106 C116 0.930 . S
H107 C118 0.930 . S
H108 C119 0.970 . S
H109 C119 0.970 . S
H110 C121 0.930 . S
H111 C123 0.930 . S
H112 C125 0.930 . S
C113 H105 0.930 . S
C113 C114 1.382 . S
C113 C115 1.426 . S
C114 C113 1.382 . S
C114 C118 1.389 . S
C115 C113 1.426 . S
C115 C116 1.375 . S
C115 C119 1.532 . S
C116 H106 0.930 . S
C116 C115 1.375 . S
C116 C117 1.416 . S
C117 C116 1.416 . S
C117 C118 1.371 . S
C118 H107 0.930 . S
C118 C114 1.389 . S
C118 C117 1.371 . S
C119 H108 0.970 . S
C119 H109 0.970 . S
C119 C115 1.532 . S
C119 C120 1.499 . S
C120 C119 1.499 . S
C120 C121 1.370 . S
C120 C125 1.415 . S
C121 H110 0.930 . S
C121 C120 1.370 . S
C121 C122 1.407 . S
C122 C121 1.407 . S
C122 C123 1.365 . S
C123 H111 0.930 . S
C123 C122 1.365 . S
C123 C124 1.393 . S
C124 C123 1.393 . S
C124 C125 1.387 . S
C125 H112 0.930 . S
C125 C120 1.415 . S
C125 C124 1.387 . S
Mg126 O127 2.028 . S
Mg126 O133 1.986 . S
Mg126 O135 2.114 . S
Mg126 O136 2.251 . S
Mg126 O139 2.010 . S
O127 Mg126 2.028 . S
O127 C130 1.250 . S
O128 Mg129 2.028 . S
O128 C130 1.248 . S
Mg129 O128 2.028 . S
Mg129 O134 2.032 . S
Mg129 O136 2.079 . S
C130 O127 1.250 . S
C130 O128 1.248 . S
C131 O132 1.264 . S
C131 O139 1.249 . S
O132 C131 1.264 . S
O133 Mg126 1.986 . S
O133 C137 1.246 . S
O134 Mg129 2.032 . S
O134 C137 1.259 . S
O135 Mg126 2.114 . S
O135 C138 1.252 . S
O136 Mg126 2.251 . S
O136 Mg129 2.079 . S
O136 C138 1.273 . S
C137 O133 1.246 . S
C137 O134 1.259 . S
C138 O135 1.252 . S
C138 O136 1.273 . S
O139 Mg126 2.010 . S
O139 C131 1.249 . S
Mg140 O141 2.028 . S
Mg140 O147 1.986 . S
Mg140 O149 2.114 . S
Mg140 O150 2.251 . S
Mg140 O153 2.010 . S
O141 Mg140 2.028 . S
O141 C144 1.250 . S
O142 Mg143 2.028 . S
O142 C144 1.248 . S
Mg143 O142 2.028 . S
Mg143 O148 2.032 . S
Mg143 O150 2.079 . S
C144 O141 1.250 . S
C144 O142 1.248 . S
C145 O146 1.264 . S
C145 O153 1.249 . S
O146 C145 1.264 . S
O147 Mg140 1.986 . S
O147 C151 1.246 . S
O148 Mg143 2.032 . S
O148 C151 1.259 . S
O149 Mg140 2.114 . S
O149 C152 1.252 . S
O150 Mg140 2.251 . S
O150 Mg143 2.079 . S
O150 C152 1.273 . S
C151 O147 1.246 . S
C151 O148 1.259 . S
C152 O149 1.252 . S
C152 O150 1.273 . S
O153 Mg140 2.010 . S
O153 C145 1.249 . S
Mg154 O155 2.028 . S
Mg154 O161 1.986 . S
Mg154 O163 2.114 . S
Mg154 O164 2.251 . S
Mg154 O167 2.010 . S
O155 Mg154 2.028 . S
O155 C158 1.250 . S
O156 Mg157 2.028 . S
O156 C158 1.248 . S
Mg157 O156 2.028 . S
Mg157 O162 2.032 . S
Mg157 O164 2.079 . S
C158 O155 1.250 . S
C158 O156 1.248 . S
C159 O160 1.264 . S
C159 O167 1.249 . S
O160 C159 1.264 . S
O161 Mg154 1.986 . S
O161 C165 1.246 . S
O162 Mg157 2.032 . S
O162 C165 1.259 . S
O163 Mg154 2.114 . S
O163 C166 1.252 . S
O164 Mg154 2.251 . S
O164 Mg157 2.079 . S
O164 C166 1.273 . S
C165 O161 1.246 . S
C165 O162 1.259 . S
C166 O163 1.252 . S
C166 O164 1.273 . S
O167 Mg154 2.010 . S
O167 C159 1.249 . S
Mg168 O169 2.028 . S
Mg168 O175 1.986 . S
Mg168 O177 2.114 . S
Mg168 O178 2.251 . S
Mg168 O181 2.010 . S
O169 Mg168 2.028 . S
O169 C172 1.250 . S
O170 Mg171 2.028 . S
O170 C172 1.248 . S
Mg171 O170 2.028 . S
Mg171 O176 2.032 . S
Mg171 O178 2.079 . S
C172 O169 1.250 . S
C172 O170 1.248 . S
C173 O174 1.264 . S
C173 O181 1.249 . S
O174 C173 1.264 . S
O175 Mg168 1.986 . S
O175 C179 1.246 . S
O176 Mg171 2.032 . S
O176 C179 1.259 . S
O177 Mg168 2.114 . S
O177 C180 1.252 . S
O178 Mg168 2.251 . S
O178 Mg171 2.079 . S
O178 C180 1.273 . S
C179 O175 1.246 . S
C179 O176 1.259 . S
C180 O177 1.252 . S
C180 O178 1.273 . S
O181 Mg168 2.010 . S
O181 C173 1.249 . S
Mg182 O183 2.028 . S
Mg182 O189 1.986 . S
Mg182 O191 2.114 1_554 S
Mg182 O192 2.251 1_554 S
Mg182 O195 2.010 . S
O183 Mg182 2.028 . S
O183 C186 1.250 . S
O184 Mg185 2.028 . S
O184 C186 1.248 . S
Mg185 O184 2.028 . S
Mg185 O190 2.032 . S
Mg185 O192 2.079 1_554 S
C186 O183 1.250 . S
C186 O184 1.248 . S
C187 O188 1.264 . S
C187 O195 1.249 . S
O188 C187 1.264 . S
O189 Mg182 1.986 . S
O189 C193 1.246 . S
O190 Mg185 2.032 . S
O190 C193 1.259 . S
O191 Mg182 2.114 1_556 S
O191 C194 1.252 . S
O192 Mg182 2.251 1_556 S
O192 Mg185 2.079 1_556 S
O192 C194 1.273 . S
C193 O189 1.246 . S
C193 O190 1.259 . S
C194 O191 1.252 . S
C194 O192 1.273 . S
O195 Mg182 2.010 . S
O195 C187 1.249 . S
Mg196 O197 2.028 . S
Mg196 O203 1.986 . S
Mg196 O205 2.114 . S
Mg196 O206 2.251 . S
Mg196 O209 2.010 . S
O197 Mg196 2.028 . S
O197 C200 1.250 . S
O198 Mg199 2.028 . S
O198 C200 1.248 . S
Mg199 O198 2.028 . S
Mg199 O204 2.032 . S
Mg199 O206 2.079 . S
C200 O197 1.250 . S
C200 O198 1.248 . S
C201 O202 1.264 . S
C201 O209 1.249 . S
O202 C201 1.264 . S
O203 Mg196 1.986 . S
O203 C207 1.246 . S
O204 Mg199 2.032 . S
O204 C207 1.259 . S
O205 Mg196 2.114 . S
O205 C208 1.252 . S
O206 Mg196 2.251 . S
O206 Mg199 2.079 . S
O206 C208 1.273 . S
C207 O203 1.246 . S
C207 O204 1.259 . S
C208 O205 1.252 . S
C208 O206 1.273 . S
O209 Mg196 2.010 . S
O209 C201 1.249 . S
C201 C19 1.713 . S
C40 C131 1.719 . S
C51 C151 1.661 . S
C72 C165 1.626 . S
C173 C103 1.580 . S
C114 C187 1.550 . S
C30 C145 1.651 . S
C61 C159 1.660 . S
C82 C179 1.597 . S
C193 C93 1.604 . S
C207 C124 1.727 . S
C137 C9 1.695 . S
C17 C144 1.623 . S
C38 C158 1.574 . S
C180 C54 1.487 . S
C75 C194 1.519 . S
C208 C101 1.420 . S
C138 C117 1.454 . S
C200 C33 1.587 . S
C59 C130 1.595 . S
C152 C80 1.502 . S
C96 C166 1.462 . S
C122 C172 1.632 1_554 S
C12 C186 1.670 . S
