# Generated by pormake.
# Topology pyr, (3,6)-cn, num edge types: 1
# Building blocks:
#     Node 0, Type 0, BuildingBlock: INOVEN_clean_linker_0, # of connection points: 3
#     Node 1, Type 0, BuildingBlock: INOVEN_clean_linker_0, # of connection points: 3
#     Node 2, Type 0, BuildingBlock: INOVEN_clean_linker_0, # of connection points: 3
#     Node 3, Type 0, BuildingBlock: INOVEN_clean_linker_0, # of connection points: 3
#     Node 4, Type 0, BuildingBlock: INOVEN_clean_linker_0, # of connection points: 3
#     Node 5, Type 0, BuildingBlock: INOVEN_clean_linker_0, # of connection points: 3
#     Node 6, Type 0, BuildingBlock: INOVEN_clean_linker_0, # of connection points: 3
#     Node 7, Type 0, BuildingBlock: INOVEN_clean_linker_0, # of connection points: 3
#     Node 8, Type 1, BuildingBlock: CIFDUS_clean_sbu_1, # of connection points: 6
#     Node 9, Type 1, BuildingBlock: CIFDUS_clean_sbu_1, # of connection points: 6
#     Node 10, Type 1, BuildingBlock: CIFDUS_clean_sbu_1, # of connection points: 6
#     Node 11, Type 1, BuildingBlock: CIFDUS_clean_sbu_1, # of connection points: 6
#     Edge 12, Type (0, 1), None
#     Edge 13, Type (0, 1), None
#     Edge 14, Type (0, 1), None
#     Edge 15, Type (0, 1), None
#     Edge 16, Type (0, 1), None
#     Edge 17, Type (0, 1), None
#     Edge 18, Type (0, 1), None
#     Edge 19, Type (0, 1), None
#     Edge 20, Type (0, 1), None
#     Edge 21, Type (0, 1), None
#     Edge 22, Type (0, 1), None
#     Edge 23, Type (0, 1), None
#     Edge 24, Type (0, 1), None
#     Edge 25, Type (0, 1), None
#     Edge 26, Type (0, 1), None
#     Edge 27, Type (0, 1), None
#     Edge 28, Type (0, 1), None
#     Edge 29, Type (0, 1), None
#     Edge 30, Type (0, 1), None
#     Edge 31, Type (0, 1), None
#     Edge 32, Type (0, 1), None
#     Edge 33, Type (0, 1), None
#     Edge 34, Type (0, 1), None
#     Edge 35, Type (0, 1), None
# Relax obj value: 0.091
# Max RMSD: 0.164
# Mean RMSD: 0.126
data_MOF--net-pry--node1-CIFDUS_clean_sbu_1--node2-INOVEN_clean_linker_0--edge1-none
_symmetry_space_group_name_H-M    P1
_symmetry_Int_Tables_number       1
_symmetry_cell_setting            triclinic
loop_
_symmetry_equiv_pos_as_xyz
'x, y, z'
_cell_length_a     15.917654
_cell_length_b     15.631274
_cell_length_c     15.587911
_cell_angle_alpha  93.301536
_cell_angle_beta   93.17203
_cell_angle_gamma 101.6558
loop_
_atom_site_label
_atom_site_type_symbol
_atom_site_fract_x
_atom_site_fract_y
_atom_site_fract_z
_atom_type_partial_charge
H0 H 0.05253 0.18093 0.26653 0.0
H1 H 0.25815 0.03928 0.27845 0.0
H2 H 0.24711 0.22742 0.08551 0.0
N3 N 0.09604 0.2713 0.14 0.0
N4 N 0.10893 0.31787 0.0772 0.0
C5 C 0.11133 0.16675 0.24243 0.0
C6 C 0.1503 0.10585 0.28277 0.0
C7 C 0.14299 0.20838 0.17031 0.0
C8 C 0.21956 0.19065 0.13761 0.0
C9 C 0.26365 0.12924 0.17559 0.0
C10 C 0.2264 0.08569 0.24775 0.0
H11 H 0.36607 0.83331 0.59364 0.0
H12 H 0.56197 0.84101 0.79566 0.0
H13 H 0.41592 0.04309 0.79314 0.0
N14 N 0.32178 0.98463 0.6593 0.0
N15 N 0.25553 0.94695 0.61555 0.0
C16 C 0.40732 0.86799 0.64752 0.0
C17 C 0.47064 0.82928 0.68731 0.0
C18 C 0.39217 0.94816 0.68422 0.0
C19 C 0.43523 0.98687 0.76208 0.0
C20 C 0.49188 0.94639 0.80637 0.0
C21 C 0.51603 0.87309 0.76336 0.0
H22 H 0.53355 0.24258 0.89819 0.0
H23 H 0.75409 0.35772 0.06748 0.0
H24 H 0.7344 0.4338 0.80848 0.0
N25 N 0.56405 0.37452 0.80382 0.0
N26 N 0.58185 0.4433 0.76611 0.0
C27 C 0.59965 0.27874 0.90603 0.0
C28 C 0.64354 0.28633 0.9872 0.0
C29 C 0.62837 0.33837 0.84541 0.0
C30 C 0.71158 0.38971 0.8573 0.0
C31 C 0.7568 0.39933 0.93808 0.0
C32 C 0.72329 0.34612 1.00287 0.0
H33 H 0.8104 0.53751 0.46913 0.0
H34 H 0.77124 0.79377 0.54797 0.0
H35 H 0.98399 0.7636 0.40035 0.0
N36 N 0.93096 0.59457 0.36382 0.0
N37 N 0.93636 0.61755 0.28802 0.0
C38 C 0.83504 0.60759 0.47917 0.0
C39 C 0.78539 0.66084 0.52153 0.0
C40 C 0.902 0.64528 0.43014 0.0
C41 C 0.9325 0.73499 0.43938 0.0
C42 C 0.88686 0.78883 0.48403 0.0
C43 C 0.81371 0.75205 0.52598 0.0
H44 H 0.85746 0.02631 0.86093 0.0
H45 H 0.00273 0.83538 0.77739 0.0
H46 H 0.88389 0.81473 1.01901 0.0
N47 N 0.80386 0.93916 1.00582 0.0
N48 N 0.76827 0.00334 1.00954 0.0
C49 C 0.88257 0.96791 0.87064 0.0
C50 C 0.93233 0.93692 0.80671 0.0
C51 C 0.8654 0.9232 0.94708 0.0
C52 C 0.9001 0.84966 0.96205 0.0
C53 C 0.94746 0.81537 0.9018 0.0
C54 C 0.96368 0.85985 0.82398 0.0
H55 H 0.5495 0.17464 0.42532 0.0
H56 H 0.74185 0.06383 0.30878 0.0
H57 H 0.8056 0.22364 0.54752 0.0
N58 N 0.66087 0.29303 0.51908 0.0
N59 N 0.5862 0.30655 0.52415 0.0
C60 C 0.61322 0.15979 0.43067 0.0
C61 C 0.63971 0.11813 0.35882 0.0
C62 C 0.67445 0.2082 0.49232 0.0
C63 C 0.75784 0.18831 0.49903 0.0
C64 C 0.78103 0.12806 0.43747 0.0
C65 C 0.72227 0.0984 0.36399 0.0
H66 H 0.45478 0.84698 0.2737 0.0
H67 H 0.28703 0.76746 0.04536 0.0
H68 H 0.25278 0.62281 0.27168 0.0
N69 N 0.41442 0.69571 0.3315 0.0
N70 N 0.39354 0.62397 0.36351 0.0
C71 C 0.39415 0.8095 0.24385 0.0
C72 C 0.37405 0.81818 0.15685 0.0
C73 C 0.35674 0.73386 0.28144 0.0
C74 C 0.28223 0.68053 0.2406 0.0
C75 C 0.25353 0.69375 0.15566 0.0
C76 C 0.30077 0.76299 0.11366 0.0
H77 H 0.00221 0.30304 0.5941 0.0
H78 H 0.2719 0.31378 0.57976 0.0
H79 H 0.17787 0.54858 0.62121 0.0
N80 N 0.03368 0.45799 0.66906 0.0
N81 N 0.06234 0.47233 0.74608 0.0
C82 C 0.06553 0.34026 0.58267 0.0
C83 C 0.13363 0.29682 0.57901 0.0
C84 C 0.0837 0.42948 0.60675 0.0
C85 C 0.16539 0.47957 0.5998 0.0
C86 C 0.23397 0.43852 0.58685 0.0
C87 C 0.21799 0.34647 0.57507 0.0
O88 O 0.90826 0.09138 0.51396 0.0
Mn89 Mn 0.02 0.03585 0.53711 0.0
O90 O 0.88786 0.06812 0.37136 0.0
Mn91 Mn 0.93755 0.97058 0.36114 0.0
O92 O 0.12693 0.97888 0.55841 0.0
O93 O 0.0814 0.14333 0.60937 0.0
Mn94 Mn 0.11455 0.11519 0.71113 0.0
O95 O 0.96555 0.97489 0.65417 0.0
O96 O 0.18778 0.0418 0.68686 0.0
O97 O 0.08358 0.08972 0.42307 0.0
O98 O 0.04296 0.98813 0.31395 0.0
O99 O 0.15679 0.23315 0.71063 0.0
O100 O 0.02049 0.06687 0.76893 0.0
C101 C 0.89318 0.87388 0.45018 0.0
C102 C 0.86636 0.09892 0.44205 0.0
C103 C 0.18623 0.99051 0.6197 0.0
C104 C 0.12388 0.22173 0.63188 0.0
C105 C 0.97062 0.99688 0.73768 0.0
C106 C 0.09733 0.05406 0.34783 0.0
O107 O 0.96453 0.93011 0.4616 0.0
O108 O 0.85596 0.87238 0.37406 0.0
O109 O 0.48605 0.02472 0.95026 0.0
Mn110 Mn 0.52008 0.05476 0.0864 0.0
O111 O 0.54936 0.90697 0.93325 0.0
Mn112 Mn 0.56284 0.8795 0.0452 0.0
O113 O 0.56895 0.06653 0.21734 0.0
O114 O 0.55632 0.18605 0.07932 0.0
Mn115 Mn 0.52301 0.23755 0.17178 0.0
O116 O 0.39029 0.06873 0.12418 0.0
O117 O 0.58304 0.20687 0.26532 0.0
O118 O 0.64585 0.0513 0.0491 0.0
O119 O 0.66987 0.92878 0.09605 0.0
O120 O 0.57805 0.32739 0.11245 0.0
O121 O 0.40448 0.21031 0.17241 0.0
C122 C 0.44951 0.84454 0.10842 0.0
C123 C 0.51221 0.96438 0.90191 0.0
C124 C 0.59515 0.12996 0.27508 0.0
C125 C 0.591 0.26456 0.06022 0.0
C126 C 0.35788 0.13417 0.15586 0.0
C127 C 0.69794 0.00027 0.06315 0.0
O128 O 0.48451 0.92466 0.09597 0.0
O129 O 0.49048 0.78532 0.08216 0.0
O130 O 0.64272 0.61814 0.57561 0.0
Mn131 Mn 0.50953 0.56071 0.57925 0.0
O132 O 0.66724 0.59921 0.43416 0.0
Mn133 Mn 0.56893 0.52199 0.39798 0.0
O134 O 0.38141 0.49718 0.57053 0.0
O135 O 0.52037 0.55325 0.70564 0.0
Mn136 Mn 0.42903 0.57696 0.75454 0.0
O137 O 0.4799 0.6902 0.60493 0.0
O138 O 0.32687 0.52098 0.6961 0.0
O139 O 0.54282 0.43651 0.56691 0.0
O140 O 0.57149 0.41057 0.42982 0.0
O141 O 0.47251 0.50296 0.82427 0.0
O142 O 0.45346 0.69543 0.74716 0.0
C143 C 0.45892 0.57684 0.37742 0.0
C144 C 0.69231 0.62589 0.51176 0.0
C145 C 0.31923 0.48799 0.61921 0.0
C146 C 0.52028 0.49564 0.76086 0.0
C147 C 0.46744 0.73259 0.67688 0.0
C148 C 0.56775 0.38918 0.50725 0.0
O149 O 0.49099 0.56386 0.45202 0.0
O150 O 0.49718 0.55061 0.31272 0.0
O151 O 0.9001 0.4646 0.9935 0.0
Mn152 Mn 0.01363 0.55991 1.01277 0.0
O153 O 0.83497 0.53879 0.91111 0.0
Mn154 Mn 0.94005 0.57302 0.86489 0.0
O155 O 0.13155 0.64519 0.04923 0.0
O156 O 0.97466 0.58151 0.14417 0.0
Mn157 Mn 0.04303 0.50453 0.1551 0.0
O158 O 0.07854 0.44955 1.02505 0.0
O159 O 0.15766 0.55827 0.15047 0.0
O160 O 0.9648 0.68216 0.98191 0.0
O161 O 0.96728 0.68422 0.84073 0.0
O162 O 0.01892 0.51521 0.2615 0.0
O163 O 0.00377 0.38837 0.12125 0.0
C164 C 0.00873 0.49858 0.80633 0.0
C165 C 0.83131 0.47364 0.95471 0.0
C166 C 0.17971 0.62835 0.1126 0.0
C167 C 0.97615 0.56887 0.22862 0.0
C168 C 0.05516 0.3807 0.06566 0.0
C169 C 0.967 0.7257 0.91119 0.0
O170 O 0.04111 0.53745 0.88287 0.0
O171 O 0.93217 0.50128 0.77575 0.0
loop_
_geom_bond_atom_site_label_1
_geom_bond_atom_site_label_2
_geom_bond_distance
_geom_bond_site_symmetry_2
_ccdc_geom_bond_type
H0 C5 0.929 . S
H1 C10 0.931 . S
H2 C8 0.930 . S
N3 N4 1.234 . S
N3 C7 1.453 . S
N4 N3 1.234 . S
C5 H0 0.929 . S
C5 C6 1.373 . S
C5 C7 1.368 . S
C6 C5 1.373 . S
C6 C10 1.397 . S
C7 N3 1.453 . S
C7 C5 1.368 . S
C7 C8 1.373 . S
C8 H2 0.930 . S
C8 C7 1.373 . S
C8 C9 1.371 . S
C9 C8 1.371 . S
C9 C10 1.383 . S
C10 H1 0.931 . S
C10 C6 1.397 . S
C10 C9 1.383 . S
H11 C16 0.929 . S
H12 C21 0.931 . S
H13 C19 0.930 1_545 S
N14 N15 1.234 . S
N14 C18 1.453 . S
N15 N14 1.234 . S
C16 H11 0.929 . S
C16 C17 1.373 . S
C16 C18 1.368 . S
C17 C16 1.373 . S
C17 C21 1.397 . S
C18 N14 1.453 . S
C18 C16 1.368 . S
C18 C19 1.373 . S
C19 H13 0.930 1_565 S
C19 C18 1.373 . S
C19 C20 1.371 . S
C20 C19 1.371 . S
C20 C21 1.383 . S
C21 H12 0.931 . S
C21 C17 1.397 . S
C21 C20 1.383 . S
H22 C27 0.929 . S
H23 C32 0.931 . S
H24 C30 0.930 . S
N25 N26 1.234 . S
N25 C29 1.453 . S
N26 N25 1.234 . S
C27 H22 0.929 . S
C27 C28 1.373 . S
C27 C29 1.368 . S
C28 C27 1.373 . S
C28 C32 1.397 1_556 S
C29 N25 1.453 . S
C29 C27 1.368 . S
C29 C30 1.373 . S
C30 H24 0.930 . S
C30 C29 1.373 . S
C30 C31 1.371 . S
C31 C30 1.371 . S
C31 C32 1.383 1_556 S
C32 H23 0.931 . S
C32 C28 1.397 1_554 S
C32 C31 1.383 1_554 S
H33 C38 0.929 . S
H34 C43 0.931 . S
H35 C41 0.930 . S
N36 N37 1.234 . S
N36 C40 1.453 . S
N37 N36 1.234 . S
C38 H33 0.929 . S
C38 C39 1.373 . S
C38 C40 1.368 . S
C39 C38 1.373 . S
C39 C43 1.397 . S
C40 N36 1.453 . S
C40 C38 1.368 . S
C40 C41 1.373 . S
C41 H35 0.930 . S
C41 C40 1.373 . S
C41 C42 1.371 . S
C42 C41 1.371 . S
C42 C43 1.383 . S
C43 H34 0.931 . S
C43 C39 1.397 . S
C43 C42 1.383 . S
H44 C49 0.929 1_545 S
H45 C54 0.931 1_455 S
H46 C52 0.930 . S
N47 N48 1.234 1_545 S
N47 C51 1.453 1_545 S
N48 N47 1.234 1_565 S
C49 H44 0.929 1_565 S
C49 C50 1.373 . S
C49 C51 1.368 . S
C50 C49 1.373 . S
C50 C54 1.397 . S
C51 N47 1.453 1_565 S
C51 C49 1.368 . S
C51 C52 1.373 . S
C52 H46 0.930 . S
C52 C51 1.373 . S
C52 C53 1.371 . S
C53 C52 1.371 . S
C53 C54 1.383 . S
C54 H45 0.931 1_655 S
C54 C50 1.397 . S
C54 C53 1.383 . S
H55 C60 0.929 . S
H56 C65 0.931 . S
H57 C63 0.930 . S
N58 N59 1.234 . S
N58 C62 1.453 . S
N59 N58 1.234 . S
C60 H55 0.929 . S
C60 C61 1.373 . S
C60 C62 1.368 . S
C61 C60 1.373 . S
C61 C65 1.397 . S
C62 N58 1.453 . S
C62 C60 1.368 . S
C62 C63 1.373 . S
C63 H57 0.930 . S
C63 C62 1.373 . S
C63 C64 1.371 . S
C64 C63 1.371 . S
C64 C65 1.383 . S
C65 H56 0.931 . S
C65 C61 1.397 . S
C65 C64 1.383 . S
H66 C71 0.929 . S
H67 C76 0.931 . S
H68 C74 0.930 . S
N69 N70 1.234 . S
N69 C73 1.453 . S
N70 N69 1.234 . S
C71 H66 0.929 . S
C71 C72 1.373 . S
C71 C73 1.368 . S
C72 C71 1.373 . S
C72 C76 1.397 . S
C73 N69 1.453 . S
C73 C71 1.368 . S
C73 C74 1.373 . S
C74 H68 0.930 . S
C74 C73 1.373 . S
C74 C75 1.371 . S
C75 C74 1.371 . S
C75 C76 1.383 . S
C76 H67 0.931 . S
C76 C72 1.397 . S
C76 C75 1.383 . S
H77 C82 0.935 . S
H78 C87 0.931 . S
H79 C85 0.930 . S
N80 N81 1.234 . S
N80 C84 1.453 . S
N81 N80 1.234 . S
C82 H77 0.935 . S
C82 C83 1.373 . S
C82 C84 1.368 . S
C83 C82 1.373 . S
C83 C87 1.397 . S
C84 N80 1.453 . S
C84 C82 1.368 . S
C84 C85 1.373 . S
C85 H79 0.930 . S
C85 C84 1.373 . S
C85 C86 1.371 . S
C86 C85 1.371 . S
C86 C87 1.383 . S
C87 H78 0.931 . S
C87 C83 1.397 . S
C87 C86 1.383 . S
O88 Mn89 2.163 1_655 S
O88 C102 1.244 . S
Mn89 O88 2.163 1_455 S
Mn89 O92 2.160 1_545 S
Mn89 O93 2.221 . S
Mn89 O95 2.163 1_445 S
Mn89 O97 2.160 . S
Mn89 O107 2.221 1_445 S
O90 Mn91 2.087 1_545 S
O90 C102 1.256 . S
Mn91 O90 2.087 1_565 S
Mn91 O98 2.089 1_565 S
Mn91 O107 2.290 . S
Mn91 O108 2.251 . S
O92 Mn89 2.160 1_565 S
O92 C103 1.239 . S
O93 Mn89 2.221 . S
O93 Mn94 2.290 . S
O93 C104 1.278 . S
Mn94 O93 2.290 . S
Mn94 O96 2.089 . S
Mn94 O99 2.251 . S
Mn94 O100 2.087 . S
O95 Mn89 2.163 1_665 S
O95 C105 1.244 . S
O96 Mn94 2.089 . S
O96 C103 1.256 1_545 S
O97 Mn89 2.160 . S
O97 C106 1.239 . S
O98 Mn91 2.089 1_545 S
O98 C106 1.256 1_655 S
O99 Mn94 2.251 . S
O99 C104 1.241 . S
O100 Mn94 2.087 . S
O100 C105 1.256 1_445 S
C101 O107 1.278 . S
C101 O108 1.241 . S
C102 O88 1.244 . S
C102 O90 1.256 . S
C103 O92 1.239 . S
C103 O96 1.256 1_565 S
C104 O93 1.278 . S
C104 O99 1.241 . S
C105 O95 1.244 . S
C105 O100 1.256 1_665 S
C106 O97 1.239 . S
C106 O98 1.256 1_455 S
O107 Mn89 2.221 1_665 S
O107 Mn91 2.290 . S
O107 C101 1.278 . S
O108 Mn91 2.251 . S
O108 C101 1.241 . S
O109 Mn110 2.163 1_556 S
O109 C123 1.244 1_545 S
Mn110 O109 2.163 1_554 S
Mn110 O113 2.160 . S
Mn110 O114 2.221 . S
Mn110 O116 2.163 . S
Mn110 O118 2.160 . S
Mn110 O128 2.221 1_545 S
O111 Mn112 2.087 . S
O111 C123 1.256 . S
Mn112 O111 2.087 . S
Mn112 O119 2.089 . S
Mn112 O128 2.290 1_556 S
Mn112 O129 2.251 1_556 S
O113 Mn110 2.160 . S
O113 C124 1.239 . S
O114 Mn110 2.221 . S
O114 Mn115 2.290 . S
O114 C125 1.278 1_554 S
Mn115 O114 2.290 . S
Mn115 O117 2.089 . S
Mn115 O120 2.237 1_554 S
Mn115 O121 2.087 . S
O116 Mn110 2.163 . S
O116 C126 1.244 . S
O117 Mn115 2.089 . S
O117 C124 1.256 . S
O118 Mn110 2.160 . S
O118 C127 1.239 1_544 S
O119 Mn112 2.089 . S
O119 C127 1.256 . S
O120 Mn115 2.237 1_556 S
O120 C125 1.244 . S
O121 Mn115 2.087 . S
O121 C126 1.256 . S
C122 O128 1.278 . S
C122 O129 1.241 . S
C123 O109 1.244 1_565 S
C123 O111 1.256 . S
C124 O113 1.239 . S
C124 O117 1.256 . S
C125 O114 1.278 1_556 S
C125 O120 1.244 . S
C126 O116 1.244 . S
C126 O121 1.256 . S
C127 O118 1.239 1_566 S
C127 O119 1.256 . S
O128 Mn110 2.221 1_565 S
O128 Mn112 2.290 1_554 S
O128 C122 1.278 . S
O129 Mn112 2.251 1_554 S
O129 C122 1.241 . S
O130 Mn131 2.163 . S
O130 C144 1.244 . S
Mn131 O130 2.163 . S
Mn131 O134 2.160 . S
Mn131 O135 2.221 . S
Mn131 O137 2.163 . S
Mn131 O139 2.160 . S
Mn131 O149 2.221 . S
O132 Mn133 2.087 . S
O132 C144 1.256 . S
Mn133 O132 2.087 . S
Mn133 O140 2.089 . S
Mn133 O149 2.290 . S
Mn133 O150 2.251 . S
O134 Mn131 2.160 . S
O134 C145 1.239 . S
O135 Mn131 2.221 . S
O135 Mn136 2.290 . S
O135 C146 1.278 . S
Mn136 O135 2.290 . S
Mn136 O138 2.089 . S
Mn136 O141 2.251 . S
Mn136 O142 2.087 . S
O137 Mn131 2.163 . S
O137 C147 1.244 . S
O138 Mn136 2.089 . S
O138 C145 1.256 . S
O139 Mn131 2.160 . S
O139 C148 1.239 . S
O140 Mn133 2.089 . S
O140 C148 1.256 . S
O141 Mn136 2.251 . S
O141 C146 1.241 . S
O142 Mn136 2.087 . S
O142 C147 1.256 . S
C143 O149 1.278 . S
C143 O150 1.241 . S
C144 O130 1.244 . S
C144 O132 1.256 . S
C145 O134 1.239 . S
C145 O138 1.256 . S
C146 O135 1.278 . S
C146 O141 1.241 . S
C147 O137 1.244 . S
C147 O142 1.256 . S
C148 O139 1.239 . S
C148 O140 1.256 . S
O149 Mn131 2.221 . S
O149 Mn133 2.290 . S
O149 C143 1.278 . S
O150 Mn133 2.251 . S
O150 C143 1.241 . S
O151 Mn152 2.163 1_656 S
O151 C165 1.252 . S
Mn152 O151 2.163 1_454 S
Mn152 O155 2.160 . S
Mn152 O156 2.221 . S
Mn152 O158 2.163 . S
Mn152 O160 2.160 1_554 S
Mn152 O170 2.221 1_554 S
O153 Mn154 2.087 . S
O153 C165 1.256 . S
Mn154 O153 2.087 . S
Mn154 O161 2.089 . S
Mn154 O170 2.290 1_655 S
Mn154 O171 2.251 1_655 S
O155 Mn152 2.160 . S
O155 C166 1.239 . S
O156 Mn152 2.221 . S
O156 Mn157 2.290 . S
O156 C167 1.278 1_455 S
Mn157 O156 2.290 . S
Mn157 O159 2.089 . S
Mn157 O162 2.251 1_455 S
Mn157 O163 2.087 . S
O158 Mn152 2.163 . S
O158 C168 1.244 . S
O159 Mn157 2.089 . S
O159 C166 1.256 . S
O160 Mn152 2.160 1_556 S
O160 C169 1.239 1_455 S
O161 Mn154 2.089 . S
O161 C169 1.256 . S
O162 Mn157 2.251 1_655 S
O162 C167 1.241 . S
O163 Mn157 2.087 . S
O163 C168 1.256 . S
C164 O170 1.278 . S
C164 O171 1.241 . S
C165 O151 1.252 . S
C165 O153 1.256 . S
C166 O155 1.239 . S
C166 O159 1.256 . S
C167 O156 1.278 1_655 S
C167 O162 1.241 . S
C168 O158 1.244 . S
C168 O163 1.256 . S
C169 O160 1.239 1_655 S
C169 O161 1.256 . S
O170 Mn152 2.221 1_556 S
O170 Mn154 2.290 1_455 S
O170 C164 1.278 . S
O171 Mn154 2.251 1_455 S
O171 C164 1.241 . S
C6 C106 1.880 . S
C20 C123 1.821 . S
C146 N26 0.819 . S
N37 C167 1.223 . S
C126 C9 2.220 . S
C103 N15 1.282 . S
C165 C31 1.496 . S
C144 C39 1.347 . S
N4 C168 1.829 . S
C125 C28 1.498 . S
C42 C101 1.556 . S
C17 C147 1.703 . S
C105 C50 1.874 . S
C61 C124 1.674 . S
N70 C143 1.197 . S
N81 C164 1.007 . S
N48 C127 1.467 . S
C102 C64 2.137 . S
C166 C75 1.028 . S
C145 C86 1.683 . S
C53 C169 1.812 . S
C122 C72 0.849 . S
C104 C83 1.664 . S
N59 C148 1.817 . S
