# Generated by pormake.
# Topology rtl, (3,6)-cn, num edge types: 1
# Building blocks:
#     Node 0, Type 0, BuildingBlock: INOVEN_clean_linker_0, # of connection points: 3
#     Node 1, Type 0, BuildingBlock: INOVEN_clean_linker_0, # of connection points: 3
#     Node 2, Type 0, BuildingBlock: INOVEN_clean_linker_0, # of connection points: 3
#     Node 3, Type 0, BuildingBlock: INOVEN_clean_linker_0, # of connection points: 3
#     Node 4, Type 1, BuildingBlock: LEVNOQ01_clean_sbu_1, # of connection points: 6
#     Node 5, Type 1, BuildingBlock: LEVNOQ01_clean_sbu_1, # of connection points: 6
#     Edge 6, Type (0, 1), BuildingBlock: OJICUG_clean_linker_0, # of connection points: 2
#     Edge 7, Type (0, 1), BuildingBlock: OJICUG_clean_linker_0, # of connection points: 2
#     Edge 8, Type (0, 1), BuildingBlock: OJICUG_clean_linker_0, # of connection points: 2
#     Edge 9, Type (0, 1), BuildingBlock: OJICUG_clean_linker_0, # of connection points: 2
#     Edge 10, Type (0, 1), BuildingBlock: OJICUG_clean_linker_0, # of connection points: 2
#     Edge 11, Type (0, 1), BuildingBlock: OJICUG_clean_linker_0, # of connection points: 2
#     Edge 12, Type (0, 1), BuildingBlock: OJICUG_clean_linker_0, # of connection points: 2
#     Edge 13, Type (0, 1), BuildingBlock: OJICUG_clean_linker_0, # of connection points: 2
#     Edge 14, Type (0, 1), BuildingBlock: OJICUG_clean_linker_0, # of connection points: 2
#     Edge 15, Type (0, 1), BuildingBlock: OJICUG_clean_linker_0, # of connection points: 2
#     Edge 16, Type (0, 1), BuildingBlock: OJICUG_clean_linker_0, # of connection points: 2
#     Edge 17, Type (0, 1), BuildingBlock: OJICUG_clean_linker_0, # of connection points: 2
# Relax obj value: 0.016
# Max RMSD: 0.109
# Mean RMSD: 0.080
data_MOF--net-rtl--node1-LEVNOQ01_clean_sbu_1--node2-INOVEN_clean_linker_0--edge1-OJICUG_clean_linker_0
_symmetry_space_group_name_H-M    P1
_symmetry_Int_Tables_number       1
_symmetry_cell_setting            triclinic
loop_
_symmetry_equiv_pos_as_xyz
'x, y, z'
_cell_length_a     26.888743
_cell_length_b     25.722726
_cell_length_c     16.042058
_cell_angle_alpha  91.781731
_cell_angle_beta   101.73346
_cell_angle_gamma 90.467664
loop_
_atom_site_label
_atom_site_type_symbol
_atom_site_fract_x
_atom_site_fract_y
_atom_site_fract_z
_atom_type_partial_charge
H0 H 0.18821 0.847 0.95303 0.0
H1 H 0.11298 0.93899 0.11663 0.0
H2 H 0.21709 0.81992 0.22137 0.0
N3 N 0.23866 0.78901 0.06706 0.0
N4 N 0.26513 0.7614 0.12108 0.0
C5 C 0.18111 0.85682 0.01574 0.0
C6 C 0.14759 0.89672 0.02606 0.0
C7 C 0.20624 0.82914 0.08511 0.0
C8 C 0.19824 0.84163 0.16745 0.0
C9 C 0.1653 0.8824 0.17933 0.0
C10 C 0.14023 0.90944 0.10827 0.0
H11 H 0.72441 0.72098 0.74821 0.0
H12 H 0.62332 0.59798 0.62489 0.0
H13 H 0.67745 0.71394 0.47644 0.0
N14 N 0.73494 0.7651 0.59941 0.0
N15 N 0.76911 0.78555 0.65552 0.0
C16 C 0.70346 0.70136 0.6909 0.0
C17 C 0.67289 0.65721 0.69657 0.0
C18 C 0.70543 0.72093 0.61069 0.0
C19 C 0.67681 0.6968 0.53704 0.0
C20 C 0.64769 0.65177 0.54059 0.0
C21 C 0.6464 0.63211 0.62092 0.0
H22 H 0.76588 0.22126 0.83884 0.0
H23 H 0.8659 0.10401 0.96078 0.0
H24 H 0.7889 0.20467 0.11004 0.0
N25 N 0.73986 0.25984 0.97734 0.0
N26 N 0.73518 0.28068 0.04644 0.0
C27 C 0.78385 0.20162 0.89573 0.0
C28 C 0.8167 0.16012 0.88999 0.0
C29 C 0.77411 0.21833 0.97463 0.0
C30 C 0.79717 0.19276 0.049 0.0
C31 C 0.82949 0.15059 0.04428 0.0
C32 C 0.83926 0.13497 0.9645 0.0
H33 H 0.25595 0.32948 0.31756 0.0
H34 H 0.36522 0.44139 0.4524 0.0
H35 H 0.28893 0.33738 0.59138 0.0
N36 N 0.23489 0.28565 0.45251 0.0
N37 N 0.2372 0.25788 0.51544 0.0
C38 C 0.27658 0.34731 0.37676 0.0
C39 C 0.3109 0.38856 0.37552 0.0
C40 C 0.26946 0.3279 0.45408 0.0
C41 C 0.29576 0.3512 0.53156 0.0
C42 C 0.32934 0.39346 0.53169 0.0
C43 C 0.33716 0.41104 0.45314 0.0
O44 O 0.94599 0.13999 0.6055 0.0
Mg45 Mg 0.01285 0.09657 0.62774 0.0
O46 O 0.92997 0.0575 0.61037 0.0
Mg47 Mg -0.00999 0.01975 0.53501 0.0
O48 O 0.05323 0.0882 0.53295 0.0
O49 O 0.07003 0.14757 0.64185 0.0
O50 O 0.04793 0.97838 0.45963 0.0
O51 O 0.94314 0.05557 0.41038 0.0
Mg52 Mg 0.95444 0.93761 0.43023 0.0
O53 O 0.92982 0.9517 0.54118 0.0
O54 O 0.02207 0.89755 0.4363 0.0
O55 O 0.92787 0.98555 0.32659 0.0
O56 O 0.89863 0.88852 0.44369 0.0
C57 C 0.04375 0.00598 0.73172 0.0
C58 C 0.91704 0.10447 0.62073 0.0
C59 C 0.08018 0.12729 0.57308 0.0
C60 C 0.05595 0.93165 0.43669 0.0
C61 C 0.92496 0.03427 0.33747 0.0
C62 C 0.89948 0.91192 0.51618 0.0
O63 O 0.03155 0.05291 0.74021 0.0
O64 O 0.03611 0.98461 0.65757 0.0
O65 O 0.51731 0.50307 0.23921 0.0
Mg66 Mg 0.50496 0.45355 0.12617 0.0
O67 O 0.53965 0.56211 0.15874 0.0
Mg68 Mg 0.4925 0.52205 0.03741 0.0
O69 O 0.55354 0.4513 0.04348 0.0
O70 O 0.55911 0.40118 0.15738 0.0
O71 O 0.44544 0.48166 0.91323 0.0
O72 O 0.55613 0.55307 0.96313 0.0
Mg73 Mg 0.47369 0.59553 0.94578 0.0
O74 O 0.43298 0.59242 0.03934 0.0
O75 O 0.45174 0.54792 0.83341 0.0
O76 O 0.54337 0.63593 0.97248 0.0
O77 O 0.41981 0.64961 0.93438 0.0
C78 C 0.40977 0.44738 0.11161 0.0
C79 C 0.53806 0.54656 0.23245 0.0
C80 C 0.57593 0.41482 0.09169 0.0
C81 C 0.43769 0.50142 0.83994 0.0
C82 C 0.57145 0.59965 0.95683 0.0
C83 C 0.40862 0.63187 1.00249 0.0
O84 O 0.43622 0.411 0.09083 0.0
O85 O 0.4267 0.49367 0.10965 0.0
C86 C 0.15735 0.20914 0.45459 0.0
C87 C 0.2015 0.21738 0.51842 0.0
H88 H 0.08358 0.17194 0.42122 0.0
C89 C 0.20828 0.18823 0.59178 0.0
H90 H 0.15123 0.23123 0.39712 0.0
C91 C 0.17008 0.1545 0.60508 0.0
C92 C 0.12441 0.14899 0.54475 0.0
H93 H 0.24203 0.19406 0.64127 0.0
H94 H 0.17484 0.13526 0.6653 0.0
C95 C 0.11892 0.17491 0.46779 0.0
C96 C 0.29301 0.71177 0.00582 0.0
C97 C 0.29667 0.72298 0.09334 0.0
H98 H 0.3252 0.67382 0.90977 0.0
C99 C 0.33412 0.69818 0.15227 0.0
H100 H 0.26407 0.7292 0.95836 0.0
C101 C 0.36937 0.66539 0.12381 0.0
C102 C 0.36752 0.65759 0.03604 0.0
H103 H 0.33736 0.70595 0.2199 0.0
H104 H 0.39951 0.6486 0.16999 0.0
C105 C 0.32807 0.67981 0.97777 0.0
C106 C 0.84776 0.83768 0.67914 0.0
C107 C 0.79788 0.82803 0.63403 0.0
H108 H 0.92024 0.87347 0.67711 0.0
C109 C 0.77972 0.85581 0.56 0.0
H110 H 0.86241 0.8168 0.73633 0.0
C111 C 0.81235 0.88771 0.52657 0.0
C112 C 0.86355 0.89323 0.56685 0.0
H113 H 0.74116 0.85005 0.52453 0.0
H114 H 0.79842 0.90517 0.46575 0.0
C115 C 0.88064 0.87014 0.64557 0.0
C116 C 0.6965 0.33907 0.13377 0.0
C117 C 0.6995 0.32019 0.05252 0.0
H118 H 0.65529 0.38457 0.20935 0.0
C119 C 0.66489 0.33793 0.98114 0.0
H120 H 0.72298 0.32597 0.18911 0.0
C121 C 0.62607 0.37211 0.99239 0.0
C122 C 0.62134 0.38806 0.0749 0.0
H123 H 0.66659 0.32396 0.91744 0.0
H124 H 0.59825 0.38347 0.93745 0.0
C125 C 0.65781 0.37245 0.14504 0.0
C126 C 0.1479 0.9464 0.29053 0.0
C127 C 0.1519 0.89436 0.2631 0.0
H128 H 0.11507 0.9993 0.36918 0.0
C129 C 0.13371 0.85464 0.30741 0.0
H130 H 0.16221 0.97777 0.25799 0.0
C131 C 0.10665 0.86695 0.37099 0.0
C132 C 0.09749 0.91917 0.39152 0.0
H133 H 0.13624 0.81424 0.28772 0.0
H134 H 0.08947 0.83551 0.39921 0.0
C135 C 0.12108 0.95873 0.35447 0.0
C136 C 0.65079 0.67841 0.83788 0.0
C137 C 0.66234 0.64078 0.77967 0.0
H138 H 0.61397 0.69452 0.94172 0.0
C139 C 0.65435 0.58788 0.79428 0.0
H140 H 0.65645 0.71944 0.82897 0.0
C141 C 0.62927 0.5735 0.85868 0.0
C142 C 0.61199 0.61181 0.9098 0.0
H143 H 0.66407 0.55777 0.75189 0.0
H144 H 0.61965 0.53286 0.86337 0.0
C145 C 0.62602 0.66405 0.90239 0.0
C146 C 0.87347 0.14777 0.19947 0.0
C147 C 0.85254 0.12174 0.1215 0.0
H148 H 0.91321 0.1408 0.32917 0.0
C149 C 0.85465 0.06723 0.11659 0.0
H150 H 0.87268 0.1898 0.20519 0.0
C151 C 0.87795 0.03944 0.18678 0.0
C152 C 0.89975 0.06521 0.26443 0.0
H153 H 0.83808 0.04582 0.0582 0.0
H154 H 0.87883 0.99746 0.17976 0.0
C155 C 0.89693 0.11976 0.2703 0.0
C156 C 0.37482 0.39249 0.68675 0.0
C157 C 0.35606 0.42019 0.61269 0.0
H158 H 0.41553 0.39621 0.81705 0.0
C159 C 0.36375 0.47439 0.61559 0.0
H160 H 0.36994 0.35067 0.68681 0.0
C161 C 0.39055 0.50004 0.68903 0.0
C162 C 0.40986 0.47253 0.7627 0.0
H163 H 0.34876 0.4974 0.56097 0.0
H164 H 0.3956 0.54183 0.6881 0.0
C165 C 0.40127 0.41847 0.76121 0.0
C166 C 0.63668 0.62706 0.38433 0.0
C167 C 0.61828 0.62605 0.46056 0.0
H168 H 0.62497 0.60397 0.25223 0.0
C169 C 0.5717 0.60017 0.45927 0.0
H170 H 0.67281 0.64535 0.3825 0.0
C171 C 0.54528 0.57478 0.38486 0.0
C172 C 0.56392 0.57611 0.30939 0.0
H173 H 0.5553 0.59953 0.51549 0.0
H174 H 0.51007 0.55432 0.38617 0.0
C175 C 0.60941 0.6031 0.30942 0.0
C176 C 0.84462 0.18347 0.7561 0.0
C177 C 0.83089 0.14508 0.8079 0.0
H178 H 0.88177 0.2005 0.65414 0.0
C179 C 0.83669 0.09243 0.78591 0.0
H180 H 0.84058 0.22435 0.77124 0.0
C181 C 0.86035 0.07867 0.71863 0.0
C182 C 0.87889 0.11738 0.67253 0.0
H183 H 0.82541 0.06195 0.82365 0.0
H184 H 0.86747 0.03794 0.70716 0.0
C185 C 0.86836 0.16975 0.68901 0.0
C186 C 0.33261 0.36834 0.23357 0.0
C187 C 0.32337 0.40553 0.29435 0.0
H188 H 0.36616 0.35286 0.1257 0.0
C189 C 0.33281 0.45838 0.28224 0.0
H190 H 0.3257 0.32735 0.24082 0.0
C191 C 0.35624 0.47308 0.21619 0.0
C192 C 0.37075 0.4351 0.16134 0.0
H193 H 0.32493 0.48807 0.32697 0.0
H194 H 0.36668 0.5136 0.21267 0.0
C195 C 0.35597 0.38301 0.16758 0.0
C196 C 0.10139 0.89738 0.87285 0.0
C197 C 0.11979 0.92443 0.95087 0.0
H198 H 0.06295 0.90178 0.7425 0.0
C199 C 0.11171 0.97823 0.95632 0.0
H200 H 0.10603 0.85575 0.86673 0.0
C201 C 0.08627 0.00437 0.88552 0.0
C202 C 0.06868 0.97747 0.80727 0.0
H203 H 0.1259 1.00045 0.01491 0.0
H204 H 0.08125 0.04595 0.89184 0.0
C205 C 0.07635 0.92366 0.80173 0.0
loop_
_geom_bond_atom_site_label_1
_geom_bond_atom_site_label_2
_geom_bond_distance
_geom_bond_site_symmetry_2
_ccdc_geom_bond_type
H0 C5 0.929 . S
H1 C10 0.931 . S
H2 C8 0.930 . S
N3 N4 1.234 . S
N3 C7 1.453 . S
N4 N3 1.234 . S
C5 H0 0.929 . S
C5 C6 1.373 . S
C5 C7 1.368 1_556 S
C6 C5 1.373 . S
C6 C10 1.397 1_556 S
C7 N3 1.453 . S
C7 C5 1.368 1_554 S
C7 C8 1.373 . S
C8 H2 0.930 . S
C8 C7 1.373 . S
C8 C9 1.371 . S
C9 C8 1.371 . S
C9 C10 1.383 . S
C10 H1 0.931 . S
C10 C6 1.397 1_554 S
C10 C9 1.383 . S
H11 C16 0.929 . S
H12 C21 0.931 . S
H13 C19 0.930 . S
N14 N15 1.234 . S
N14 C18 1.453 . S
N15 N14 1.234 . S
C16 H11 0.929 . S
C16 C17 1.373 . S
C16 C18 1.368 . S
C17 C16 1.373 . S
C17 C21 1.397 . S
C18 N14 1.453 . S
C18 C16 1.368 . S
C18 C19 1.373 . S
C19 H13 0.930 . S
C19 C18 1.373 . S
C19 C20 1.371 . S
C20 C19 1.371 . S
C20 C21 1.383 . S
C21 H12 0.931 . S
C21 C17 1.397 . S
C21 C20 1.383 . S
H22 C27 0.929 . S
H23 C32 0.931 . S
H24 C30 0.930 . S
N25 N26 1.234 1_556 S
N25 C29 1.453 . S
N26 N25 1.234 1_554 S
C27 H22 0.929 . S
C27 C28 1.373 . S
C27 C29 1.368 . S
C28 C27 1.373 . S
C28 C32 1.388 1_556 S
C29 N25 1.453 . S
C29 C27 1.368 . S
C29 C30 1.373 1_556 S
C30 H24 0.930 . S
C30 C29 1.373 1_554 S
C30 C31 1.371 . S
C31 C30 1.371 . S
C31 C32 1.391 . S
C32 H23 0.931 . S
C32 C28 1.388 1_554 S
C32 C31 1.391 . S
H33 C38 0.929 . S
H34 C43 0.931 . S
H35 C41 0.930 . S
N36 N37 1.234 . S
N36 C40 1.453 . S
N37 N36 1.234 . S
C38 H33 0.929 . S
C38 C39 1.373 . S
C38 C40 1.368 . S
C39 C38 1.373 . S
C39 C43 1.397 . S
C40 N36 1.453 . S
C40 C38 1.368 . S
C40 C41 1.373 . S
C41 H35 0.930 . S
C41 C40 1.373 . S
C41 C42 1.371 . S
C42 C41 1.371 . S
C42 C43 1.383 . S
C43 H34 0.931 . S
C43 C39 1.397 . S
C43 C42 1.383 . S
O44 Mg45 1.990 . S
O44 C58 1.253 1_455 S
Mg45 O44 1.990 . S
Mg45 O48 2.180 . S
Mg45 O49 2.117 . S
Mg45 O63 2.030 . S
O46 Mg47 2.072 1_655 S
O46 C58 1.260 . S
Mg47 O46 2.072 1_455 S
Mg47 O48 2.099 . S
Mg47 O50 2.079 1_545 S
Mg47 O51 2.072 1_455 S
Mg47 O53 2.099 1_445 S
Mg47 O64 2.079 1_545 S
O48 Mg45 2.180 . S
O48 Mg47 2.099 . S
O48 C59 1.279 . S
O49 Mg45 2.117 . S
O49 C59 1.250 . S
O50 Mg47 2.079 1_565 S
O50 C60 1.264 . S
O51 Mg47 2.072 1_655 S
O51 C61 1.260 . S
Mg52 O53 2.180 . S
Mg52 O54 2.030 1_655 S
Mg52 O55 1.990 1_565 S
Mg52 O56 2.117 . S
O53 Mg47 2.099 1_665 S
O53 Mg52 2.180 . S
O53 C62 1.279 . S
O54 Mg52 2.030 1_455 S
O54 C60 1.248 . S
O55 Mg52 1.990 1_545 S
O55 C61 1.253 . S
O56 Mg52 2.117 . S
O56 C62 1.250 . S
C57 O63 1.248 1_565 S
C57 O64 1.264 . S
C58 O44 1.253 1_655 S
C58 O46 1.260 . S
C59 O48 1.279 . S
C59 O49 1.250 . S
C60 O50 1.264 . S
C60 O54 1.248 . S
C61 O51 1.260 . S
C61 O55 1.253 . S
C62 O53 1.279 . S
C62 O56 1.250 . S
O63 Mg45 2.030 . S
O63 C57 1.248 1_545 S
O64 Mg47 2.079 1_565 S
O64 C57 1.264 . S
O65 Mg66 1.990 . S
O65 C79 1.253 . S
Mg66 O65 1.990 . S
Mg66 O69 2.180 . S
Mg66 O70 2.117 . S
Mg66 O84 2.030 . S
O67 Mg68 2.072 . S
O67 C79 1.260 . S
Mg68 O67 2.072 . S
Mg68 O69 2.099 . S
Mg68 O71 2.079 1_554 S
Mg68 O72 2.072 1_554 S
Mg68 O74 2.099 . S
Mg68 O85 2.079 . S
O69 Mg66 2.180 . S
O69 Mg68 2.099 . S
O69 C80 1.279 . S
O70 Mg66 2.117 . S
O70 C80 1.250 . S
O71 Mg68 2.079 1_556 S
O71 C81 1.264 . S
O72 Mg68 2.072 1_556 S
O72 C82 1.260 . S
Mg73 O74 2.180 1_556 S
Mg73 O75 2.030 . S
Mg73 O76 1.990 . S
Mg73 O77 2.117 . S
O74 Mg68 2.099 . S
O74 Mg73 2.180 1_554 S
O74 C83 1.279 . S
O75 Mg73 2.030 . S
O75 C81 1.248 . S
O76 Mg73 1.990 . S
O76 C82 1.253 . S
O77 Mg73 2.117 . S
O77 C83 1.250 1_556 S
C78 O84 1.248 . S
C78 O85 1.264 . S
C79 O65 1.253 . S
C79 O67 1.260 . S
C80 O69 1.279 . S
C80 O70 1.250 . S
C81 O71 1.264 . S
C81 O75 1.248 . S
C82 O72 1.260 . S
C82 O76 1.253 . S
C83 O74 1.279 . S
C83 O77 1.250 1_554 S
O84 Mg66 2.030 . S
O84 C78 1.248 . S
O85 Mg68 2.079 . S
O85 C78 1.264 . S
C86 C87 1.387 . S
C86 H90 0.950 . S
C86 C95 1.390 . S
C87 C86 1.387 . S
C87 C89 1.387 . S
H88 C95 0.950 . S
C89 C87 1.387 . S
C89 C91 1.390 . S
C89 H93 0.950 . S
H90 C86 0.950 . S
C91 C89 1.390 . S
C91 C92 1.387 . S
C91 H94 0.950 . S
C92 C91 1.387 . S
C92 C95 1.387 . S
H93 C89 0.950 . S
H94 C91 0.950 . S
C95 C86 1.390 . S
C95 H88 0.950 . S
C95 C92 1.387 . S
C96 C97 1.387 . S
C96 H100 0.950 1_554 S
C96 C105 1.390 . S
C97 C96 1.387 . S
C97 C99 1.387 . S
H98 C105 0.950 1_556 S
C99 C97 1.387 . S
C99 C101 1.390 . S
C99 H103 0.950 . S
H100 C96 0.950 1_556 S
C101 C99 1.390 . S
C101 C102 1.387 . S
C101 H104 0.950 . S
C102 C101 1.387 . S
C102 C105 1.387 . S
H103 C99 0.950 . S
H104 C101 0.950 . S
C105 C96 1.390 . S
C105 H98 0.950 1_554 S
C105 C102 1.387 . S
C106 C107 1.387 . S
C106 H110 0.950 . S
C106 C115 1.390 . S
C107 C106 1.387 . S
C107 C109 1.387 . S
H108 C115 0.950 . S
C109 C107 1.387 . S
C109 C111 1.390 . S
C109 H113 0.950 . S
H110 C106 0.950 . S
C111 C109 1.390 . S
C111 C112 1.387 . S
C111 H114 0.950 . S
C112 C111 1.387 . S
C112 C115 1.387 . S
H113 C109 0.950 . S
H114 C111 0.950 . S
C115 C106 1.390 . S
C115 H108 0.950 . S
C115 C112 1.387 . S
C116 C117 1.387 . S
C116 H120 0.950 . S
C116 C125 1.390 . S
C117 C116 1.387 . S
C117 C119 1.387 1_554 S
H118 C125 0.950 . S
C119 C117 1.387 1_556 S
C119 C121 1.390 . S
C119 H123 0.950 . S
H120 C116 0.950 . S
C121 C119 1.390 . S
C121 C122 1.387 1_556 S
C121 H124 0.950 . S
C122 C121 1.387 1_554 S
C122 C125 1.387 . S
H123 C119 0.950 . S
H124 C121 0.950 . S
C125 C116 1.390 . S
C125 H118 0.950 . S
C125 C122 1.387 . S
C126 C127 1.387 . S
C126 H130 0.950 . S
C126 C135 1.390 . S
C127 C126 1.387 . S
C127 C129 1.387 . S
H128 C135 0.950 . S
C129 C127 1.387 . S
C129 C131 1.390 . S
C129 H133 0.950 . S
H130 C126 0.950 . S
C131 C129 1.390 . S
C131 C132 1.387 . S
C131 H134 0.950 . S
C132 C131 1.387 . S
C132 C135 1.387 . S
H133 C129 0.950 . S
H134 C131 0.950 . S
C135 C126 1.390 . S
C135 H128 0.950 . S
C135 C132 1.387 . S
C136 C137 1.387 . S
C136 H140 0.950 . S
C136 C145 1.390 . S
C137 C136 1.387 . S
C137 C139 1.387 . S
H138 C145 0.950 . S
C139 C137 1.387 . S
C139 C141 1.390 . S
C139 H143 0.950 . S
H140 C136 0.950 . S
C141 C139 1.390 . S
C141 C142 1.387 . S
C141 H144 0.950 . S
C142 C141 1.387 . S
C142 C145 1.387 . S
H143 C139 0.950 . S
H144 C141 0.950 . S
C145 C136 1.390 . S
C145 H138 0.950 . S
C145 C142 1.387 . S
C146 C147 1.387 . S
C146 H150 0.950 . S
C146 C155 1.390 . S
C147 C146 1.387 . S
C147 C149 1.387 . S
H148 C155 0.950 . S
C149 C147 1.387 . S
C149 C151 1.390 . S
C149 H153 0.950 . S
H150 C146 0.950 . S
C151 C149 1.390 . S
C151 C152 1.387 . S
C151 H154 0.950 . S
C152 C151 1.387 . S
C152 C155 1.387 . S
H153 C149 0.950 . S
H154 C151 0.950 . S
C155 C146 1.390 . S
C155 H148 0.950 . S
C155 C152 1.387 . S
C156 C157 1.387 . S
C156 H160 0.950 . S
C156 C165 1.390 . S
C157 C156 1.387 . S
C157 C159 1.387 . S
H158 C165 0.950 . S
C159 C157 1.387 . S
C159 C161 1.390 . S
C159 H163 0.950 . S
H160 C156 0.950 . S
C161 C159 1.390 . S
C161 C162 1.387 . S
C161 H164 0.950 . S
C162 C161 1.387 . S
C162 C165 1.387 . S
H163 C159 0.950 . S
H164 C161 0.950 . S
C165 C156 1.390 . S
C165 H158 0.950 . S
C165 C162 1.387 . S
C166 C167 1.387 . S
C166 H170 0.950 . S
C166 C175 1.390 . S
C167 C166 1.387 . S
C167 C169 1.387 . S
H168 C175 0.950 . S
C169 C167 1.387 . S
C169 C171 1.390 . S
C169 H173 0.950 . S
H170 C166 0.950 . S
C171 C169 1.390 . S
C171 C172 1.387 . S
C171 H174 0.950 . S
C172 C171 1.387 . S
C172 C175 1.387 . S
H173 C169 0.950 . S
H174 C171 0.950 . S
C175 C166 1.390 . S
C175 H168 0.950 . S
C175 C172 1.387 . S
C176 C177 1.387 . S
C176 H180 0.950 . S
C176 C185 1.390 . S
C177 C176 1.387 . S
C177 C179 1.387 . S
H178 C185 0.950 . S
C179 C177 1.387 . S
C179 C181 1.390 . S
C179 H183 0.950 . S
H180 C176 0.950 . S
C181 C179 1.390 . S
C181 C182 1.387 . S
C181 H184 0.950 . S
C182 C181 1.387 . S
C182 C185 1.387 . S
H183 C179 0.950 . S
H184 C181 0.950 . S
C185 C176 1.390 . S
C185 H178 0.950 . S
C185 C182 1.387 . S
C186 C187 1.387 . S
C186 H190 0.950 . S
C186 C195 1.390 . S
C187 C186 1.387 . S
C187 C189 1.387 . S
H188 C195 0.950 . S
C189 C187 1.387 . S
C189 C191 1.390 . S
C189 H193 0.950 . S
H190 C186 0.950 . S
C191 C189 1.390 . S
C191 C192 1.387 . S
C191 H194 0.950 . S
C192 C191 1.387 . S
C192 C195 1.387 . S
H193 C189 0.950 . S
H194 C191 0.950 . S
C195 C186 1.390 . S
C195 H188 0.950 . S
C195 C192 1.387 . S
C196 C197 1.387 . S
C196 H200 0.950 . S
C196 C205 1.390 . S
C197 C196 1.387 . S
C197 C199 1.387 . S
H198 C205 0.950 . S
C199 C197 1.387 . S
C199 C201 1.390 . S
C199 H203 0.950 . S
H200 C196 0.950 . S
C201 C199 1.390 . S
C201 C202 1.387 . S
C201 H204 0.950 1_565 S
C202 C201 1.387 . S
C202 C205 1.387 . S
H203 C199 0.950 . S
H204 C201 0.950 1_545 S
C205 C196 1.390 . S
C205 H198 0.950 . S
C205 C202 1.387 . S
C92 C59 1.266 . S
C87 N37 1.455 . S
C97 N4 1.495 . S
C102 C83 1.315 . S
C107 N15 1.561 . S
C112 C62 1.389 . S
C117 N26 1.563 . S
C122 C80 1.360 . S
C132 C60 1.501 . S
C127 C9 1.497 . S
C142 C82 1.521 . S
C137 C17 1.596 . S
C147 C31 1.584 . S
C152 C61 1.544 . S
C157 C42 1.504 . S
C162 C81 1.451 . S
C172 C79 1.469 . S
C167 C20 1.515 . S
C182 C58 1.453 . S
C177 C28 1.523 . S
C192 C78 1.418 . S
C187 C39 1.448 . S
C197 C6 1.449 . S
C202 C57 1.388 . S
