# Generated by pormake.
# Topology tsx, (6,3)-cn, num edge types: 1
# Building blocks:
#     Node 0, Type 0, BuildingBlock: JUFBIX_clean_sbu_0, # of connection points: 6
#     Node 1, Type 0, BuildingBlock: JUFBIX_clean_sbu_0, # of connection points: 6
#     Node 2, Type 1, BuildingBlock: INOVEN_clean_linker_0, # of connection points: 3
#     Node 3, Type 1, BuildingBlock: INOVEN_clean_linker_0, # of connection points: 3
#     Node 4, Type 1, BuildingBlock: INOVEN_clean_linker_0, # of connection points: 3
#     Node 5, Type 1, BuildingBlock: INOVEN_clean_linker_0, # of connection points: 3
#     Edge 6, Type (0, 1), None
#     Edge 7, Type (0, 1), None
#     Edge 8, Type (0, 1), None
#     Edge 9, Type (0, 1), None
#     Edge 10, Type (0, 1), None
#     Edge 11, Type (0, 1), None
#     Edge 12, Type (0, 1), None
#     Edge 13, Type (0, 1), None
#     Edge 14, Type (0, 1), None
#     Edge 15, Type (0, 1), None
#     Edge 16, Type (0, 1), None
#     Edge 17, Type (0, 1), None
# Relax obj value: 0.096
# Max RMSD: 0.141
# Mean RMSD: 0.118
data_MOF--net-tsx--node1-JUFBIX_clean_sbu_0--node2-INOVEN_clean_linker_0--edge1-none
_symmetry_space_group_name_H-M    P1
_symmetry_Int_Tables_number       1
_symmetry_cell_setting            triclinic
loop_
_symmetry_equiv_pos_as_xyz
'x, y, z'
_cell_length_a     10.095426
_cell_length_b     10.360186
_cell_length_c     16.359825
_cell_angle_alpha  88.480696
_cell_angle_beta   104.28309
_cell_angle_gamma 112.93262
loop_
_atom_site_label
_atom_site_type_symbol
_atom_site_fract_x
_atom_site_fract_y
_atom_site_fract_z
_atom_type_partial_charge
Co0 Co 0.08535 1.00888 -0.0683 0.0
C1 C 0.99329 0.07954 0.76397 0.0
Co2 Co 0.952 0.13842 -0.0816 0.0
C3 C 0.18949 0.82338 0.85955 0.0
C4 C 0.28292 0.86266 -0.00635 0.0
N5 N 0.18755 0.89092 -0.07069 0.0
N6 N 0.28308 0.75742 0.87795 0.0
C7 C 0.34179 0.78056 -0.03773 0.0
H8 H 0.12701 0.82459 0.79575 0.0
H9 H 0.31189 0.90291 0.05878 0.0
C10 C 0.03065 1.05002 0.07843 0.0
N11 N 0.85387 0.25909 0.9103 0.0
C12 C 0.75954 0.28196 0.84202 0.0
C13 C 0.89685 0.36977 -0.03383 0.0
N14 N 0.74404 0.40368 0.85316 0.0
C15 C 0.83125 0.4586 -0.06873 0.0
C16 C 0.78335 0.86351 -0.08135 0.0
O17 O 0.0999 0.99685 0.04452 0.0
O18 O 0.96249 0.12103 0.03587 0.0
O19 O 0.77152 0.97876 0.89822 0.0
O20 O 0.90195 0.84764 0.91689 0.0
O21 O 0.93806 0.14955 0.79682 0.0
H22 H 0.97882 0.38956 0.02628 0.0
H23 H 0.7064 0.21288 0.78455 0.0
O24 O 0.0653 1.01921 0.81258 0.0
O25 O 0.27164 0.17544 -0.03825 0.0
O26 O 0.13587 0.29937 -0.04922 0.0
C27 C 0.26017 0.28967 -0.02043 0.0
H28 H 0.4246 0.7453 -0.00182 0.0
H29 H 0.85036 0.55861 -0.03931 0.0
Co30 Co 0.58594 0.50978 0.4317 0.0
C31 C 0.49331 0.58 0.26388 0.0
Co32 Co 0.45276 0.63947 0.4184 0.0
C33 C 0.68992 0.32398 0.35954 0.0
C34 C 0.7832 0.36327 0.49365 0.0
N35 N 0.68794 0.39158 0.42927 0.0
N36 N 0.78347 0.25796 0.378 0.0
C37 C 0.84207 0.28111 0.46233 0.0
H38 H 0.62755 0.32525 0.29572 0.0
H39 H 0.81214 0.40352 0.55877 0.0
C40 C 0.53199 0.55149 0.57853 0.0
N41 N 0.35492 0.76025 0.4104 0.0
C42 C 0.26037 0.78295 0.3422 0.0
C43 C 0.39827 0.87112 0.46618 0.0
N44 N 0.24511 0.90479 0.35326 0.0
C45 C 0.33269 0.95995 0.43128 0.0
C46 C 0.284 0.36495 0.41903 0.0
O47 O 0.60098 0.49809 0.54457 0.0
O48 O 0.46373 0.6224 0.53596 0.0
O49 O 0.27226 0.48015 0.39847 0.0
O50 O 0.40241 0.34876 0.41718 0.0
O51 O 0.43834 0.65025 0.29675 0.0
H52 H 0.48048 0.89104 0.5262 0.0
H53 H 0.20689 0.71363 0.28482 0.0
O54 O 0.56538 0.51973 0.3125 0.0
O55 O 0.77229 0.6762 0.46149 0.0
O56 O 0.63661 0.80024 0.45046 0.0
C57 C 0.76086 0.79048 0.47925 0.0
H58 H 0.92475 0.24576 0.4983 0.0
H59 H 0.35212 1.06011 0.46064 0.0
H60 H 0.12293 1.05273 0.40104 0.0
H61 H 0.1737 0.90976 0.18159 0.0
H62 H 0.88304 0.13325 0.17217 0.0
N63 N 0.91754 0.14133 0.34581 0.0
N64 N 0.82667 0.19656 0.31967 0.0
C65 C 0.08089 1.02921 0.3372 0.0
C66 C 0.14483 0.95965 0.29972 0.0
C67 C 0.97798 0.0812 0.29472 0.0
C68 C 0.95365 0.08332 0.20714 0.0
C69 C 0.03116 1.02792 0.16656 0.0
C70 C 0.11794 0.95678 0.21232 0.0
H71 H 0.04638 0.91839 0.48167 0.0
H72 H 0.76556 0.8869 0.63911 0.0
H73 H 0.18275 0.24799 0.67571 0.0
N74 N 0.22419 0.20665 0.5239 0.0
N75 N 0.18496 0.27478 0.4649 0.0
C76 C 0.01951 0.9752 0.52438 0.0
C77 C 0.88244 0.90586 0.54147 0.0
C78 C 0.11653 0.11083 0.56323 0.0
C79 C 0.09944 0.1523 0.6396 0.0
C80 C 0.97923 1.06606 0.67133 0.0
C81 C 0.8638 0.94923 0.61819 0.0
H82 H 0.6195 0.54939 0.90098 0.0
H83 H 0.6751 0.4112 0.68164 0.0
H84 H 0.38405 0.63433 0.67219 0.0
N85 N 0.41625 0.63996 0.84564 0.0
N86 N 0.3263 0.69617 0.81956 0.0
C87 C 0.57881 0.52705 0.83705 0.0
C88 C 0.64393 0.4587 0.7996 0.0
C89 C 0.47691 0.58012 0.79454 0.0
C90 C 0.45411 0.58383 0.70709 0.0
C91 C 0.53219 0.52902 0.66661 0.0
C92 C 0.61861 0.45748 0.7123 0.0
H93 H 0.54671 0.41605 -0.01716 0.0
H94 H 0.26487 0.38745 0.13914 0.0
H95 H 0.6825 0.74787 0.17521 0.0
N96 N 0.72372 0.70505 0.02352 0.0
N97 N 0.68438 0.77313 -0.03549 0.0
C98 C 0.51939 0.47364 0.02491 0.0
C99 C 0.38191 0.40516 0.04171 0.0
C100 C 0.61627 0.60967 0.06319 0.0
C101 C 0.59914 0.65198 0.13934 0.0
C102 C 0.47891 0.5662 0.17121 0.0
C103 C 0.36324 0.44931 0.11821 0.0
loop_
_geom_bond_atom_site_label_1
_geom_bond_atom_site_label_2
_geom_bond_distance
_geom_bond_site_symmetry_2
_ccdc_geom_bond_type
Co0 N5 2.057 1_554 S
Co0 O17 2.021 . S
Co0 O20 2.062 1_455 S
Co0 O24 2.117 1_554 S
Co0 O25 2.020 1_565 S
C1 O21 1.259 . S
C1 O24 1.258 1_645 S
Co2 N11 2.057 1_556 S
Co2 O18 2.117 1_556 S
Co2 O19 2.020 1_545 S
Co2 O21 2.021 . S
Co2 O26 2.062 1_656 S
C3 N5 1.316 1_554 S
C3 N6 1.347 . S
C3 H8 0.931 . S
C4 N5 1.375 . S
C4 C7 1.350 . S
C4 H9 0.930 . S
N5 Co0 2.057 1_556 S
N5 C3 1.316 1_556 S
N5 C4 1.375 . S
N6 C3 1.347 . S
N6 C7 1.373 1_554 S
C7 C4 1.350 . S
C7 N6 1.373 1_556 S
C7 H28 0.931 . S
H8 C3 0.931 . S
H9 C4 0.930 . S
C10 O17 1.259 1_545 S
C10 O18 1.258 1_455 S
N11 Co2 2.057 1_554 S
N11 C12 1.316 1_554 S
N11 C13 1.375 . S
C12 N11 1.316 1_556 S
C12 N14 1.350 . S
C12 H23 0.931 . S
C13 N11 1.375 . S
C13 C15 1.350 . S
C13 H22 0.930 . S
N14 C12 1.350 . S
N14 C15 1.366 1_556 S
C15 C13 1.350 . S
C15 N14 1.366 1_554 S
C15 H29 0.931 . S
C16 O19 1.256 . S
C16 O20 1.255 1_556 S
O17 Co0 2.021 . S
O17 C10 1.259 1_565 S
O18 Co2 2.117 1_554 S
O18 C10 1.258 1_655 S
O19 Co2 2.020 1_565 S
O19 C16 1.256 . S
O20 Co0 2.062 1_655 S
O20 C16 1.255 1_554 S
O21 C1 1.259 . S
O21 Co2 2.021 . S
H22 C13 0.930 . S
H23 C12 0.931 . S
O24 Co0 2.117 1_556 S
O24 C1 1.258 1_465 S
O25 Co0 2.020 1_545 S
O25 C27 1.256 . S
O26 Co2 2.062 1_454 S
O26 C27 1.255 . S
C27 O25 1.256 . S
C27 O26 1.255 . S
H28 C7 0.931 . S
H29 C15 0.931 . S
Co30 N35 2.057 . S
Co30 O47 2.021 . S
Co30 O50 2.062 . S
Co30 O54 2.117 . S
Co30 O55 2.020 . S
C31 O51 1.259 . S
C31 O54 1.258 . S
Co32 N41 2.057 . S
Co32 O48 2.117 . S
Co32 O49 2.020 . S
Co32 O51 2.021 . S
Co32 O56 2.062 . S
C33 N35 1.316 . S
C33 N36 1.347 . S
C33 H38 0.931 . S
C34 N35 1.375 . S
C34 C37 1.350 . S
C34 H39 0.930 . S
N35 Co30 2.057 . S
N35 C33 1.316 . S
N35 C34 1.375 . S
N36 C33 1.347 . S
N36 C37 1.373 . S
C37 C34 1.350 . S
C37 N36 1.373 . S
C37 H58 0.931 . S
H38 C33 0.931 . S
H39 C34 0.930 . S
C40 O47 1.259 . S
C40 O48 1.258 . S
N41 Co32 2.057 . S
N41 C42 1.316 . S
N41 C43 1.375 . S
C42 N41 1.316 . S
C42 N44 1.347 . S
C42 H53 0.931 . S
C43 N41 1.375 . S
C43 C45 1.350 . S
C43 H52 0.930 . S
N44 C42 1.347 . S
N44 C45 1.373 . S
C45 C43 1.350 . S
C45 N44 1.373 . S
C45 H59 0.931 . S
C46 O49 1.256 . S
C46 O50 1.255 . S
O47 Co30 2.021 . S
O47 C40 1.259 . S
O48 Co32 2.117 . S
O48 C40 1.258 . S
O49 Co32 2.020 . S
O49 C46 1.256 . S
O50 Co30 2.062 . S
O50 C46 1.255 . S
O51 C31 1.259 . S
O51 Co32 2.021 . S
H52 C43 0.930 . S
H53 C42 0.931 . S
O54 Co30 2.117 . S
O54 C31 1.258 . S
O55 Co30 2.020 . S
O55 C57 1.256 . S
O56 Co32 2.062 . S
O56 C57 1.255 . S
C57 O55 1.256 . S
C57 O56 1.255 . S
H58 C37 0.931 . S
H59 C45 0.931 . S
H60 C65 0.929 . S
H61 C70 0.931 . S
H62 C68 0.931 . S
N63 N64 1.234 . S
N63 C67 1.453 1_655 S
N64 N63 1.234 . S
C65 H60 0.929 . S
C65 C66 1.373 . S
C65 C67 1.368 1_565 S
C66 C65 1.373 . S
C66 C70 1.397 . S
C67 N63 1.453 1_455 S
C67 C65 1.368 1_545 S
C67 C68 1.373 1_455 S
C68 H62 0.931 . S
C68 C67 1.373 1_655 S
C68 C69 1.370 1_645 S
C69 C68 1.370 1_465 S
C69 C70 1.383 . S
C70 H61 0.931 . S
C70 C66 1.397 . S
C70 C69 1.383 . S
H71 C76 0.929 . S
H72 C81 0.931 . S
H73 C79 0.930 . S
N74 N75 1.234 . S
N74 C78 1.453 . S
N75 N74 1.234 . S
C76 H71 0.929 . S
C76 C77 1.373 . S
C76 C78 1.368 1_665 S
C77 C76 1.373 . S
C77 C81 1.397 . S
C78 N74 1.453 . S
C78 C76 1.368 1_445 S
C78 C79 1.373 . S
C79 H73 0.930 . S
C79 C78 1.373 . S
C79 C80 1.371 1_445 S
C80 C79 1.371 1_665 S
C80 C81 1.383 . S
C81 H72 0.931 . S
C81 C77 1.397 . S
C81 C80 1.383 . S
H82 C87 0.929 . S
H83 C92 0.931 . S
H84 C90 0.930 . S
N85 N86 1.234 1_554 S
N85 C89 1.453 1_554 S
N86 N85 1.234 1_556 S
C87 H82 0.929 . S
C87 C88 1.373 1_554 S
C87 C89 1.368 1_554 S
C88 C87 1.373 1_556 S
C88 C92 1.397 . S
C89 N85 1.453 1_556 S
C89 C87 1.368 1_556 S
C89 C90 1.373 . S
C90 H84 0.930 . S
C90 C89 1.373 . S
C90 C91 1.371 . S
C91 C90 1.371 . S
C91 C92 1.383 . S
C92 H83 0.931 . S
C92 C88 1.397 . S
C92 C91 1.383 . S
H93 C98 0.929 . S
H94 C103 0.931 . S
H95 C101 0.930 . S
N96 N97 1.234 1_556 S
N96 C100 1.453 1_556 S
N97 N96 1.234 1_554 S
C98 H93 0.929 . S
C98 C99 1.373 1_556 S
C98 C100 1.368 1_556 S
C99 C98 1.373 1_554 S
C99 C103 1.397 . S
C100 N96 1.453 1_554 S
C100 C98 1.368 1_554 S
C100 C101 1.373 . S
C101 H95 0.930 . S
C101 C100 1.373 . S
C101 C102 1.371 . S
C102 C101 1.371 . S
C102 C103 1.383 . S
C103 H94 0.931 . S
C103 C99 1.397 . S
C103 C102 1.383 . S
C99 C27 1.500 . S
N6 N86 1.321 1_554 S
C16 N97 1.452 1_556 S
N14 C88 1.471 . S
C57 C77 1.500 . S
N36 N64 1.321 . S
N75 C46 1.452 . S
C66 N44 1.468 . S
C10 C69 1.468 1_545 S
C1 C80 1.637 1_545 S
C91 C40 1.468 . S
C31 C102 1.637 . S
