# Generated by pormake.
# Topology anh, (6,3)-cn, num edge types: 1
# Building blocks:
#     Node 0, Type 0, BuildingBlock: INOVEN_clean_sbu_0, # of connection points: 6
#     Node 1, Type 0, BuildingBlock: INOVEN_clean_sbu_0, # of connection points: 6
#     Node 2, Type 0, BuildingBlock: INOVEN_clean_sbu_0, # of connection points: 6
#     Node 3, Type 1, BuildingBlock: PAMTOO_clean_linker_0, # of connection points: 3
#     Node 4, Type 1, BuildingBlock: PAMTOO_clean_linker_0, # of connection points: 3
#     Node 5, Type 1, BuildingBlock: PAMTOO_clean_linker_0, # of connection points: 3
#     Node 6, Type 1, BuildingBlock: PAMTOO_clean_linker_0, # of connection points: 3
#     Node 7, Type 1, BuildingBlock: PAMTOO_clean_linker_0, # of connection points: 3
#     Node 8, Type 1, BuildingBlock: PAMTOO_clean_linker_0, # of connection points: 3
#     Edge 9, Type (0, 1), None
#     Edge 10, Type (0, 1), None
#     Edge 11, Type (0, 1), None
#     Edge 12, Type (0, 1), None
#     Edge 13, Type (0, 1), None
#     Edge 14, Type (0, 1), None
#     Edge 15, Type (0, 1), None
#     Edge 16, Type (0, 1), None
#     Edge 17, Type (0, 1), None
#     Edge 18, Type (0, 1), None
#     Edge 19, Type (0, 1), None
#     Edge 20, Type (0, 1), None
#     Edge 21, Type (0, 1), None
#     Edge 22, Type (0, 1), None
#     Edge 23, Type (0, 1), None
#     Edge 24, Type (0, 1), None
#     Edge 25, Type (0, 1), None
#     Edge 26, Type (0, 1), None
# Relax obj value: 0.401
# Max RMSD: 0.298
# Mean RMSD: 0.163
data_MOF--net-anh--node1-INOVEN_clean_sbu_0--node2-PAMTOO_clean_linker_0--edge1-none
_symmetry_space_group_name_H-M    P1
_symmetry_Int_Tables_number       1
_symmetry_cell_setting            triclinic
loop_
_symmetry_equiv_pos_as_xyz
'x, y, z'
_cell_length_a     14.672403
_cell_length_b     19.932072
_cell_length_c     21.948069
_cell_angle_alpha  86.07547
_cell_angle_beta   93.857103
_cell_angle_gamma 137.83594
loop_
_atom_site_label
_atom_site_type_symbol
_atom_site_fract_x
_atom_site_fract_y
_atom_site_fract_z
_atom_type_partial_charge
Gd0 Gd 0.41882 0.63076 0.14836 0.0
Gd1 Gd 0.24794 0.63955 0.19036 0.0
C2 C 0.55774 0.85606 0.15787 0.0
C3 C 0.53608 0.60151 0.09841 0.0
C4 C 0.45692 0.49602 0.09337 0.0
C5 C 0.4125 0.43476 0.1461 0.0
C6 C 0.39807 0.45067 0.03668 0.0
C7 C 0.26847 0.28779 0.08382 0.0
C8 C 0.3021 0.34729 0.03194 0.0
C9 C 0.31868 0.33155 0.14136 0.0
C10 C 0.39508 0.61149 0.27154 0.0
C11 C 1.1129 0.4175 0.17975 0.0
C12 C 1.12004 0.6526 0.25359 0.0
C13 C 0.97382 0.58416 0.25705 0.0
C14 C 0.88565 0.48152 0.2501 0.0
C15 C 0.92462 0.623 0.24589 0.0
C16 C 0.72661 0.47019 0.1955 0.0
C17 C 0.79979 0.56542 0.21547 0.0
C18 C 0.76172 0.4244 0.21922 0.0
C19 C 1.19763 0.59219 0.06895 0.0
O20 O 0.57776 0.80416 0.14222 0.0
O21 O 0.43734 0.80745 0.17767 0.0
O22 O 0.57383 0.63699 0.15357 0.0
O23 O 0.48532 0.62538 0.06568 0.0
O24 O 0.38005 0.55206 0.23919 0.0
O25 O 0.41592 0.67488 0.23728 0.0
O26 O 1.11811 0.47453 0.21177 0.0
O27 O 1.2116 0.46334 0.14096 0.0
O28 O 1.16962 0.69675 0.19986 0.0
O29 O 1.16415 0.61809 0.27648 0.0
O30 O 1.10541 0.55692 0.10703 0.0
O31 O 0.31239 0.65564 0.09598 0.0
H32 H 0.45105 0.46633 0.19107 0.0
H33 H 0.42853 0.49625 -0.00394 0.0
H34 H 0.26584 0.31548 -0.01302 0.0
H35 H 0.29462 0.28721 0.182 0.0
H36 H 0.92013 0.44903 0.25987 0.0
H37 H 0.99042 0.7016 0.25212 0.0
H38 H 0.77125 0.60067 0.19947 0.0
H39 H 0.70536 0.35015 0.20577 0.0
Gd40 Gd 1.01071 0.16673 0.47421 0.0
Gd41 Gd 0.82789 0.17842 0.46194 0.0
C42 C 0.68078 0.9569 0.46187 0.0
C43 C 1.13225 0.12368 0.51466 0.0
C44 C 1.08217 1.0383 0.55196 0.0
C45 C 1.15586 1.01835 0.55716 0.0
C46 C 0.95441 0.97156 0.57873 0.0
C47 C 0.96728 0.86033 0.60946 0.0
C48 C 0.89783 0.8836 0.60799 0.0
C49 C 1.09824 0.92928 0.58557 0.0
C50 C 0.96993 0.19287 0.35716 0.0
C51 C 1.16029 0.39267 0.45802 0.0
C52 C 0.70543 0.2243 0.43459 0.0
C53 C 0.73581 0.30837 0.45383 0.0
C54 C 0.7834 0.34271 0.51373 0.0
C55 C 0.73033 0.36087 0.411 0.0
C56 C 0.82372 0.48279 0.48727 0.0
C57 C 0.77399 0.44773 0.42765 0.0
C58 C 0.82611 0.42891 0.53039 0.0
C59 C 0.85832 0.14309 0.57946 0.0
O60 O 0.79875 1.00001 0.48696 0.0
O61 O 0.67325 1.01531 0.43766 0.0
O62 O 1.07784 0.10228 0.45969 0.0
O63 O 1.13971 0.18366 0.54236 0.0
O64 O 1.08707 0.23692 0.37992 0.0
O65 O 0.87866 0.13333 0.39591 0.0
O66 O 1.03356 0.34652 0.45239 0.0
O67 O 1.18049 0.33813 0.4689 0.0
O68 O 0.66482 0.15843 0.47736 0.0
O69 O 0.7957 0.2489 0.39958 0.0
O70 O 0.74629 0.10527 0.55458 0.0
O71 O 0.95377 0.20562 0.54242 0.0
H72 H 0.25437 0.06888 0.53662 0.0
H73 H 0.89514 0.9848 0.57456 0.0
H74 H 0.79578 0.83037 0.62508 0.0
H75 H 1.15214 0.91129 0.58565 0.0
H76 H 0.79064 0.30432 0.54736 0.0
H77 H 0.6955 0.33606 0.36444 0.0
H78 H 0.77103 0.48835 0.39383 0.0
H79 H 0.86347 0.45471 0.57665 0.0
Gd80 Gd 0.81767 0.66256 0.87761 0.0
Gd81 Gd 0.62645 0.44889 0.85261 0.0
C82 C 0.49129 0.53618 0.87202 0.0
C83 C 0.99224 0.85354 0.85634 0.0
C84 C 0.97181 0.91152 0.82626 0.0
C85 C 0.85686 0.88669 0.83893 0.0
C86 C 1.06192 0.98816 0.78229 0.0
C87 C 0.92427 1.01588 0.76643 0.0
C88 C 1.03843 1.03967 0.75265 0.0
C89 C 0.83337 0.93754 0.80952 0.0
C90 C 0.70595 0.54125 0.97753 0.0
C91 C 0.94932 0.56905 0.88166 0.0
C92 C 0.45398 0.25816 0.84241 0.0
C93 C 0.47514 0.20129 0.82232 0.0
C94 C 0.56194 0.23797 0.77394 0.0
C95 C 0.42228 0.11662 0.85626 0.0
C96 C 0.54933 0.11004 0.79625 0.0
C97 C 0.45893 0.07127 0.8433 0.0
C98 C 0.59781 0.19231 0.76078 0.0
C99 C 0.75282 0.56954 0.75308 0.0
O100 O 0.62146 0.62763 0.87106 0.0
O101 O 0.474 0.45874 0.86994 0.0
O102 O 0.93669 0.81065 0.90959 0.0
O103 O 0.97632 0.79495 0.8211 0.0
O104 O 0.74111 0.62347 0.97439 0.0
O105 O 0.74616 0.53507 0.93209 0.0
O106 O 0.81867 0.48113 0.87063 0.0
O107 O 0.97108 0.64838 0.88694 0.0
O108 O 0.46559 0.3144 0.80094 0.0
O109 O 0.51569 0.30365 0.89386 0.0
O110 O 0.73287 0.49524 0.76555 0.0
O111 O 0.70363 0.57673 0.79394 0.0
H112 H 0.7837 0.82705 0.87151 0.0
H113 H 1.15046 1.00814 0.77078 0.0
H114 H 1.11063 0.09894 0.71968 0.0
H115 H 0.74197 0.91412 0.82033 0.0
H116 H 0.60533 0.30367 0.74727 0.0
H117 H 0.35597 0.08747 0.89398 0.0
H118 H 0.41856 1.00698 0.87077 0.0
H119 H 0.66592 0.22262 0.72368 0.0
H120 H 1.06245 0.35254 0.29448 0.0
H121 H 0.81449 1.04344 0.27666 0.0
H122 H 0.94855 0.23101 0.11481 0.0
H123 H 0.65343 0.97424 0.0889 0.0
C124 C 0.65554 0.96874 0.13954 0.0
O125 O 0.79224 1.03821 0.1594 0.0
H126 H 0.61122 0.99153 0.15536 0.0
C127 C 1.01237 0.29149 0.26494 0.0
C128 C 1.01975 0.30803 0.2013 0.0
C129 C 0.94537 0.19885 0.29176 0.0
C130 C 0.86715 0.11514 0.2555 0.0
C131 C 0.86279 0.12344 0.19178 0.0
C132 C 0.94455 0.22197 0.16407 0.0
H133 H 0.86749 0.75418 0.7181 0.0
H134 H 0.71985 0.48874 0.64825 0.0
H135 H 0.89067 0.73429 0.52704 0.0
H136 H 0.96659 0.61918 0.53599 0.0
C137 C 0.87531 0.57746 0.50524 0.0
O138 O 0.77379 0.55413 0.53431 0.0
H139 H 0.90496 0.62589 0.46439 0.0
C140 C 0.8497 0.71252 0.68088 0.0
C141 C 0.89237 0.75681 0.62208 0.0
C142 C 0.78906 0.61593 0.69122 0.0
C143 C 0.76645 0.5633 0.64156 0.0
C144 C 0.79994 0.60535 0.58245 0.0
C145 C 0.86256 0.70163 0.57295 0.0
H146 H 1.02997 0.58225 -0.00277 0.0
H147 H 0.32178 0.58149 -0.00804 0.0
H148 H 1.13402 0.56264 0.82316 0.0
H149 H 0.2866 0.4607 0.83726 0.0
C150 C 0.35263 0.51082 0.87603 0.0
O151 O 0.34143 0.5791 0.8764 0.0
H152 H 0.29501 0.45785 0.91542 0.0
C153 C 1.08496 0.57863 0.96982 0.0
C154 C 1.06224 0.57221 0.90558 0.0
C155 C 1.17694 0.58197 0.00047 0.0
C156 C 0.25247 0.57789 0.96728 0.0
C157 C 0.24267 0.56903 0.9035 0.0
C158 C 1.14413 0.56643 0.87242 0.0
H159 H 0.2495 0.44621 0.34486 0.0
H160 H 0.53555 0.76395 0.34852 0.0
H161 H 0.34583 0.58574 0.51503 0.0
H162 H 0.50948 0.83269 0.51667 0.0
C163 C 0.54584 0.84365 0.47043 0.0
O164 O 0.55188 0.77712 0.46579 0.0
H165 H 0.4684 0.8242 0.43748 0.0
C166 C 0.30019 0.51145 0.37008 0.0
C167 C 0.2756 0.50031 0.43279 0.0
C168 C 0.38619 0.6047 0.33896 0.0
C169 C 0.46407 0.6916 0.37208 0.0
C170 C 0.45634 0.68756 0.43568 0.0
C171 C 0.35694 0.59056 0.46619 0.0
H172 H 0.96356 0.08856 0.64669 0.0
H173 H 0.77438 0.17783 0.66296 0.0
H174 H 0.82301 0.06851 0.8209 0.0
H175 H 0.55895 1.00742 0.8194 0.0
C176 C 0.59275 0.06359 0.78327 0.0
O177 O 0.73269 0.13687 0.77926 0.0
H178 H 0.54358 1.02478 0.73909 0.0
C179 C 0.91899 0.10038 0.67452 0.0
C180 C 0.89756 0.07118 0.73744 0.0
C181 C 0.87264 0.13758 0.64685 0.0
C182 C 0.81291 0.15131 0.68338 0.0
C183 C 0.79552 0.12646 0.74565 0.0
C184 C 0.83844 0.08755 0.77251 0.0
H185 H 0.79817 0.582 0.09334 0.0
H186 H 0.47062 0.3435 0.97801 0.0
H187 H 0.48293 0.27953 0.16668 0.0
H188 H 1.16793 0.14134 0.11661 0.0
C189 C 0.22263 0.19128 0.07562 0.0
O190 O 0.33214 0.20874 0.06601 0.0
H191 H 1.1505 0.15129 0.03594 0.0
C192 C 0.704 0.50329 0.08773 0.0
C193 C 0.64848 0.43469 0.13735 0.0
C194 C 0.64379 0.47021 0.02971 0.0
C195 C 0.52513 0.36816 0.02129 0.0
C196 C 0.46421 0.2999 0.07097 0.0
C197 C 0.52958 0.33253 0.1284 0.0
loop_
_geom_bond_atom_site_label_1
_geom_bond_atom_site_label_2
_geom_bond_distance
_geom_bond_site_symmetry_2
_ccdc_geom_bond_type
Gd0 C3 2.818 . S
Gd0 O20 2.377 . S
Gd0 O22 2.448 . S
Gd0 O23 2.506 . S
Gd0 O24 2.435 . S
Gd0 O25 2.717 1_455 S
Gd0 O27 2.395 1_455 S
Gd0 O31 2.327 . S
Gd1 C12 2.818 . S
Gd1 O21 2.395 1_655 S
Gd1 O25 2.327 . S
Gd1 O26 2.377 . S
Gd1 O28 2.448 . S
Gd1 O29 2.506 . S
Gd1 O30 2.435 . S
Gd1 O31 2.717 1_655 S
C2 O20 1.240 . S
C2 O21 1.240 . S
C3 Gd0 2.818 . S
C3 C4 1.510 . S
C3 O22 1.249 . S
C3 O23 1.252 . S
C4 C3 1.510 . S
C4 C5 1.404 . S
C4 C6 1.352 . S
C5 C4 1.404 . S
C5 C9 1.389 . S
C5 H32 0.930 . S
C6 C4 1.352 . S
C6 C8 1.374 . S
C6 H33 0.931 . S
C7 C8 1.359 . S
C7 C9 1.364 . S
C8 C6 1.374 . S
C8 C7 1.359 . S
C8 H34 0.931 . S
C9 C5 1.389 . S
C9 C7 1.364 . S
C9 H35 0.931 . S
C10 O24 1.271 . S
C10 O25 1.250 1_455 S
C11 O26 1.240 . S
C11 O27 1.240 . S
C12 Gd1 2.818 . S
C12 C13 1.510 . S
C12 O28 1.249 . S
C12 O29 1.252 . S
C13 C12 1.510 . S
C13 C14 1.404 . S
C13 C15 1.352 . S
C14 C13 1.404 . S
C14 C18 1.389 . S
C14 H36 0.930 . S
C15 C13 1.352 . S
C15 C17 1.374 . S
C15 H37 0.931 . S
C16 C17 1.359 . S
C16 C18 1.364 . S
C17 C15 1.374 . S
C17 C16 1.359 . S
C17 H38 0.931 . S
C18 C14 1.389 . S
C18 C16 1.364 . S
C18 H39 0.931 . S
C19 O30 1.256 1_455 S
C19 O31 1.257 . S
O20 Gd0 2.377 . S
O20 C2 1.240 . S
O21 Gd1 2.395 1_455 S
O21 C2 1.240 . S
O22 Gd0 2.448 . S
O22 C3 1.249 . S
O23 Gd0 2.506 . S
O23 C3 1.252 . S
O24 Gd0 2.435 . S
O24 C10 1.271 . S
O25 Gd0 2.717 1_655 S
O25 Gd1 2.327 . S
O25 C10 1.250 1_655 S
O26 Gd1 2.377 . S
O26 C11 1.240 . S
O27 Gd0 2.395 1_655 S
O27 C11 1.240 . S
O28 Gd1 2.448 . S
O28 C12 1.249 . S
O29 Gd1 2.506 . S
O29 C12 1.252 . S
O30 Gd1 2.435 . S
O30 C19 1.256 1_655 S
O31 Gd0 2.327 . S
O31 Gd1 2.717 1_455 S
O31 C19 1.257 . S
H32 C5 0.930 . S
H33 C6 0.931 . S
H34 C8 0.931 . S
H35 C9 0.931 . S
H36 C14 0.930 . S
H37 C15 0.931 . S
H38 C17 0.931 . S
H39 C18 0.931 . S
Gd40 C43 2.818 1_545 S
Gd40 O60 2.377 1_545 S
Gd40 O62 2.448 1_545 S
Gd40 O63 2.506 1_545 S
Gd40 O64 2.435 . S
Gd40 O65 2.717 . S
Gd40 O67 2.395 . S
Gd40 O71 2.327 . S
Gd41 C52 2.818 . S
Gd41 O61 2.395 1_545 S
Gd41 O65 2.327 . S
Gd41 O66 2.377 . S
Gd41 O68 2.448 . S
Gd41 O69 2.506 . S
Gd41 O70 2.435 . S
Gd41 O71 2.717 . S
C42 O60 1.240 . S
C42 O61 1.240 . S
C43 Gd40 2.818 1_565 S
C43 C44 1.510 . S
C43 O62 1.249 . S
C43 O63 1.252 . S
C44 C43 1.510 . S
C44 C45 1.404 . S
C44 C46 1.352 . S
C45 C44 1.404 . S
C45 C49 1.389 . S
C45 H72 0.930 . S
C46 C44 1.352 . S
C46 C48 1.374 . S
C46 H73 0.931 . S
C47 C48 1.359 . S
C47 C49 1.364 . S
C48 C46 1.374 . S
C48 C47 1.359 . S
C48 H74 0.931 . S
C49 C45 1.389 . S
C49 C47 1.364 . S
C49 H75 0.931 . S
C50 O64 1.256 . S
C50 O65 1.257 . S
C51 O66 1.240 . S
C51 O67 1.240 . S
C52 Gd41 2.818 . S
C52 C53 1.510 . S
C52 O68 1.249 . S
C52 O69 1.252 . S
C53 C52 1.510 . S
C53 C54 1.404 . S
C53 C55 1.352 . S
C54 C53 1.404 . S
C54 C58 1.389 . S
C54 H76 0.930 . S
C55 C53 1.352 . S
C55 C57 1.374 . S
C55 H77 0.931 . S
C56 C57 1.359 . S
C56 C58 1.364 . S
C57 C55 1.374 . S
C57 C56 1.359 . S
C57 H78 0.931 . S
C58 C54 1.389 . S
C58 C56 1.364 . S
C58 H79 0.931 . S
C59 O70 1.256 . S
C59 O71 1.257 . S
O60 Gd40 2.377 1_565 S
O60 C42 1.240 . S
O61 Gd41 2.395 1_565 S
O61 C42 1.240 . S
O62 Gd40 2.448 1_565 S
O62 C43 1.249 . S
O63 Gd40 2.506 1_565 S
O63 C43 1.252 . S
O64 Gd40 2.435 . S
O64 C50 1.256 . S
O65 Gd40 2.717 . S
O65 Gd41 2.327 . S
O65 C50 1.257 . S
O66 Gd41 2.377 . S
O66 C51 1.240 . S
O67 Gd40 2.395 . S
O67 C51 1.240 . S
O68 Gd41 2.448 . S
O68 C52 1.249 . S
O69 Gd41 2.506 . S
O69 C52 1.252 . S
O70 Gd41 2.435 . S
O70 C59 1.256 . S
O71 Gd40 2.327 . S
O71 Gd41 2.717 . S
O71 C59 1.257 . S
H72 C45 0.930 . S
H73 C46 0.931 . S
H74 C48 0.931 . S
H75 C49 0.931 . S
H76 C54 0.930 . S
H77 C55 0.931 . S
H78 C57 0.931 . S
H79 C58 0.931 . S
Gd80 C83 2.818 . S
Gd80 O100 2.377 . S
Gd80 O102 2.448 . S
Gd80 O103 2.506 . S
Gd80 O104 2.435 1_556 S
Gd80 O105 2.717 . S
Gd80 O107 2.395 . S
Gd80 O111 2.327 . S
Gd81 C92 2.818 . S
Gd81 O101 2.395 . S
Gd81 O105 2.327 . S
Gd81 O106 2.377 . S
Gd81 O108 2.448 . S
Gd81 O109 2.506 . S
Gd81 O110 2.435 . S
Gd81 O111 2.717 . S
C82 O100 1.240 . S
C82 O101 1.240 . S
C83 Gd80 2.818 . S
C83 C84 1.510 . S
C83 O102 1.249 . S
C83 O103 1.252 . S
C84 C83 1.510 . S
C84 C85 1.404 . S
C84 C86 1.352 . S
C85 C84 1.404 . S
C85 C89 1.389 1_565 S
C85 H112 0.930 . S
C86 C84 1.352 . S
C86 C88 1.374 . S
C86 H113 0.931 . S
C87 C88 1.359 1_545 S
C87 C89 1.364 . S
C88 C86 1.374 . S
C88 C87 1.359 1_565 S
C88 H114 0.931 . S
C89 C85 1.389 1_545 S
C89 C87 1.364 . S
C89 H115 0.931 . S
C90 O104 1.256 . S
C90 O105 1.254 1_554 S
C91 O106 1.240 . S
C91 O107 1.240 . S
C92 Gd81 2.818 . S
C92 C93 1.510 . S
C92 O108 1.249 . S
C92 O109 1.252 . S
C93 C92 1.510 . S
C93 C94 1.404 . S
C93 C95 1.352 . S
C94 C93 1.404 . S
C94 C98 1.389 . S
C94 H116 0.930 . S
C95 C93 1.352 . S
C95 C97 1.374 . S
C95 H117 0.931 . S
C96 C97 1.359 . S
C96 C98 1.364 . S
C97 C95 1.374 . S
C97 C96 1.359 . S
C97 H118 0.931 . S
C98 C94 1.389 . S
C98 C96 1.364 . S
C98 H119 0.931 . S
C99 O110 1.256 . S
C99 O111 1.257 . S
O100 Gd80 2.377 . S
O100 C82 1.240 . S
O101 Gd81 2.395 . S
O101 C82 1.240 . S
O102 Gd80 2.448 . S
O102 C83 1.249 . S
O103 Gd80 2.506 . S
O103 C83 1.252 . S
O104 Gd80 2.435 1_554 S
O104 C90 1.256 . S
O105 Gd80 2.717 . S
O105 Gd81 2.327 . S
O105 C90 1.254 1_556 S
O106 Gd81 2.377 . S
O106 C91 1.240 . S
O107 Gd80 2.395 . S
O107 C91 1.240 . S
O108 Gd81 2.448 . S
O108 C92 1.249 . S
O109 Gd81 2.506 . S
O109 C92 1.252 . S
O110 Gd81 2.435 . S
O110 C99 1.256 . S
O111 Gd80 2.327 . S
O111 Gd81 2.717 . S
O111 C99 1.257 . S
H112 C85 0.930 . S
H113 C86 0.931 . S
H114 C88 0.931 . S
H115 C89 0.931 . S
H116 C94 0.930 . S
H117 C95 0.931 . S
H118 C97 0.931 . S
H119 C98 0.931 . S
H120 C127 0.929 . S
H121 C130 0.930 . S
H122 C132 0.929 . S
H123 C124 0.969 . S
C124 H123 0.969 . S
C124 O125 1.550 . S
C124 H126 0.973 . S
O125 C124 1.550 . S
O125 C131 1.412 . S
H126 C124 0.973 . S
C127 H120 0.929 . S
C127 C128 1.400 . S
C127 C129 1.364 . S
C128 C127 1.400 . S
C128 C132 1.377 . S
C129 C127 1.364 . S
C129 C130 1.374 1_545 S
C130 H121 0.930 . S
C130 C129 1.374 1_565 S
C130 C131 1.383 . S
C131 O125 1.412 . S
C131 C130 1.383 . S
C131 C132 1.394 1_565 S
C132 H122 0.929 . S
C132 C128 1.377 . S
C132 C131 1.394 1_545 S
H133 C140 0.929 . S
H134 C143 0.930 . S
H135 C145 0.929 . S
H136 C137 0.969 . S
C137 H136 0.969 . S
C137 O138 1.550 . S
C137 H139 0.973 . S
O138 C137 1.550 . S
O138 C144 1.412 . S
H139 C137 0.973 . S
C140 H133 0.929 . S
C140 C141 1.400 . S
C140 C142 1.364 . S
C141 C140 1.400 . S
C141 C145 1.377 . S
C142 C140 1.364 . S
C142 C143 1.374 . S
C143 H134 0.930 . S
C143 C142 1.374 . S
C143 C144 1.383 . S
C144 O138 1.412 . S
C144 C143 1.383 . S
C144 C145 1.394 . S
C145 H135 0.929 . S
C145 C141 1.377 . S
C145 C144 1.394 . S
H146 C153 0.929 1_655 S
H147 C156 0.930 . S
H148 C158 0.929 . S
H149 C150 0.969 . S
C150 H149 0.969 . S
C150 O151 1.550 . S
C150 H152 0.973 . S
O151 C150 1.550 . S
O151 C157 1.412 . S
H152 C150 0.973 . S
C153 H146 0.929 1_455 S
C153 C154 1.400 . S
C153 C155 1.364 . S
C154 C153 1.400 . S
C154 C158 1.377 . S
C155 C153 1.364 . S
C155 C156 1.375 . S
C156 H147 0.930 . S
C156 C155 1.375 . S
C156 C157 1.383 . S
C157 O151 1.412 . S
C157 C156 1.383 . S
C157 C158 1.394 . S
C158 H148 0.929 . S
C158 C154 1.377 . S
C158 C157 1.394 . S
H159 C166 0.929 . S
H160 C169 0.930 . S
H161 C171 0.929 . S
H162 C163 0.969 . S
C163 H162 0.969 . S
C163 O164 1.550 . S
C163 H165 0.973 . S
O164 C163 1.550 . S
O164 C170 1.412 . S
H165 C163 0.973 . S
C166 H159 0.929 . S
C166 C167 1.400 . S
C166 C168 1.364 . S
C167 C166 1.400 . S
C167 C171 1.377 . S
C168 C166 1.364 . S
C168 C169 1.374 1_655 S
C169 H160 0.930 . S
C169 C168 1.374 1_455 S
C169 C170 1.383 . S
C170 O164 1.412 . S
C170 C169 1.383 . S
C170 C171 1.394 1_455 S
C171 H161 0.929 . S
C171 C167 1.377 . S
C171 C170 1.394 1_655 S
H172 C179 0.929 . S
H173 C182 0.930 . S
H174 C184 0.929 . S
H175 C176 0.969 . S
C176 H175 0.969 . S
C176 O177 1.550 . S
C176 H178 0.973 . S
O177 C176 1.550 . S
O177 C183 1.412 . S
H178 C176 0.973 . S
C179 H172 0.929 . S
C179 C180 1.400 . S
C179 C181 1.364 . S
C180 C179 1.400 . S
C180 C184 1.377 . S
C181 C179 1.364 . S
C181 C182 1.374 1_565 S
C182 H173 0.930 . S
C182 C181 1.374 1_545 S
C182 C183 1.383 . S
C183 O177 1.412 . S
C183 C182 1.383 . S
C183 C184 1.394 1_545 S
C184 H174 0.929 . S
C184 C180 1.377 . S
C184 C183 1.394 1_565 S
H185 C192 0.929 1_556 S
H186 C195 0.930 1_556 S
H187 C197 0.929 . S
H188 C189 0.969 . S
C189 H188 0.969 . S
C189 O190 1.550 . S
C189 H191 0.973 . S
O190 C189 1.550 . S
O190 C196 1.412 . S
H191 C189 0.973 . S
C192 H185 0.929 1_554 S
C192 C193 1.400 . S
C192 C194 1.364 1_554 S
C193 C192 1.400 . S
C193 C197 1.377 . S
C194 C192 1.364 1_556 S
C194 C195 1.374 1_556 S
C195 H186 0.930 1_554 S
C195 C194 1.374 1_554 S
C195 C196 1.383 . S
C196 O190 1.412 . S
C196 C195 1.383 . S
C196 C197 1.394 . S
C197 H187 0.929 . S
C197 C193 1.377 . S
C197 C196 1.394 . S
C7 C189 4.426 . S
C51 C167 2.337 . S
C87 C180 3.209 1_545 S
C16 C193 3.456 . S
C163 C42 2.389 . S
C176 C96 2.066 . S
C47 C141 1.701 . S
C91 C154 4.767 1_655 S
C2 C124 2.627 . S
C137 C56 2.618 . S
C150 C82 4.534 . S
C11 C128 2.473 . S
C155 C19 2.043 1_556 S
C50 C129 1.341 . S
C99 C142 1.517 . S
C181 C59 1.407 1_565 S
C194 C90 1.935 1_556 S
C10 C168 1.061 1_455 S
