# Generated by pormake.
# Topology ssa, (4,4)-cn, num edge types: 1
# Building blocks:
#     Node 0, Type 0, BuildingBlock: KUFVIS_clean_linker_0, # of connection points: 4
#     Node 1, Type 0, BuildingBlock: KUFVIS_clean_linker_0, # of connection points: 4
#     Node 2, Type 0, BuildingBlock: KUFVIS_clean_linker_0, # of connection points: 4
#     Node 3, Type 0, BuildingBlock: KUFVIS_clean_linker_0, # of connection points: 4
#     Node 4, Type 0, BuildingBlock: KUFVIS_clean_linker_0, # of connection points: 4
#     Node 5, Type 0, BuildingBlock: KUFVIS_clean_linker_0, # of connection points: 4
#     Node 6, Type 1, BuildingBlock: MUDLON_clean_sbu_0, # of connection points: 4
#     Node 7, Type 1, BuildingBlock: MUDLON_clean_sbu_0, # of connection points: 4
#     Node 8, Type 1, BuildingBlock: MUDLON_clean_sbu_0, # of connection points: 4
#     Node 9, Type 1, BuildingBlock: MUDLON_clean_sbu_0, # of connection points: 4
#     Node 10, Type 1, BuildingBlock: MUDLON_clean_sbu_0, # of connection points: 4
#     Node 11, Type 1, BuildingBlock: MUDLON_clean_sbu_0, # of connection points: 4
#     Edge 12, Type (0, 1), None
#     Edge 13, Type (0, 1), None
#     Edge 14, Type (0, 1), None
#     Edge 15, Type (0, 1), None
#     Edge 16, Type (0, 1), None
#     Edge 17, Type (0, 1), None
#     Edge 18, Type (0, 1), None
#     Edge 19, Type (0, 1), None
#     Edge 20, Type (0, 1), None
#     Edge 21, Type (0, 1), None
#     Edge 22, Type (0, 1), None
#     Edge 23, Type (0, 1), None
#     Edge 24, Type (0, 1), None
#     Edge 25, Type (0, 1), None
#     Edge 26, Type (0, 1), None
#     Edge 27, Type (0, 1), None
#     Edge 28, Type (0, 1), None
#     Edge 29, Type (0, 1), None
#     Edge 30, Type (0, 1), None
#     Edge 31, Type (0, 1), None
#     Edge 32, Type (0, 1), None
#     Edge 33, Type (0, 1), None
#     Edge 34, Type (0, 1), None
#     Edge 35, Type (0, 1), None
# Relax obj value: 0.001
# Max RMSD: 0.051
# Mean RMSD: 0.028
data_MOF--net-ssa--node1-MUDLON_clean_sbu_0--node2-KUFVIS_clean_linker_0--edge1-none
_symmetry_space_group_name_H-M    P1
_symmetry_Int_Tables_number       1
_symmetry_cell_setting            triclinic
loop_
_symmetry_equiv_pos_as_xyz
'x, y, z'
_cell_length_a     20.512722
_cell_length_b     20.317824
_cell_length_c     19.373216
_cell_angle_alpha  87.521271
_cell_angle_beta   92.325973
_cell_angle_gamma 118.30725
loop_
_atom_site_label
_atom_site_type_symbol
_atom_site_fract_x
_atom_site_fract_y
_atom_site_fract_z
_atom_type_partial_charge
H0 H 0.90348 0.4926 0.81887 0.0
H1 H 1.00407 0.62347 0.99914 0.0
H2 H 0.05886 0.45253 0.94269 0.0
H3 H 0.02867 0.42227 0.05528 0.0
H4 H 0.18214 0.54095 0.2188 0.0
H5 H 0.12662 0.66074 0.05717 0.0
C6 C 0.9438 0.50887 0.86125 0.0
C7 C 0.97967 0.466 0.87733 0.0
C8 C 0.95565 0.56911 0.90252 0.0
C9 C 1.0006 0.58244 0.96325 0.0
C10 C 0.0374 0.5394 0.97908 0.0
C11 C 0.03036 0.48539 0.93234 0.0
C12 C 0.07565 0.54178 0.04717 0.0
C13 C 0.06688 0.47451 0.07879 0.0
C14 C 0.10578 0.47267 0.13965 0.0
C15 C 0.15294 0.54102 0.17123 0.0
C16 C 0.15871 0.60918 0.14296 0.0
C17 C 0.12077 0.60877 0.08036 0.0
H18 H 0.61245 0.16136 0.73294 0.0
H19 H 0.4762 0.05205 0.55725 0.0
H20 H 0.67578 0.03542 0.60536 0.0
H21 H 0.6748 0.01638 0.49626 0.0
H22 H 0.52054 0.85822 0.35502 0.0
H23 H 0.4416 0.94845 0.50587 0.0
C24 C 0.6016 0.12687 0.6884 0.0
C25 C 0.65298 0.1032 0.67139 0.0
C26 C 0.53652 0.10672 0.64856 0.0
C27 C 0.52443 0.06372 0.58955 0.0
C28 C 0.57423 0.03695 0.57231 0.0
C29 C 0.63771 0.05658 0.61507 0.0
C30 C 0.56004 0.98806 0.51089 0.0
C31 C 0.61815 0.98236 0.47898 0.0
C32 C 0.60441 0.93397 0.42358 0.0
C33 C 0.53168 0.89354 0.3981 0.0
C34 C 0.47406 0.90252 0.42524 0.0
C35 C 0.48799 0.94684 0.48303 0.0
H36 H 0.45841 0.60686 0.22424 0.0
H37 H 0.4163 0.42075 0.10306 0.0
H38 H 0.61048 0.6363 0.0673 0.0
H39 H 0.65065 0.57563 1.00998 0.0
H40 H 0.58755 0.39955 0.8685 0.0
H41 H 0.42433 0.39573 1.00044 0.0
C42 C 0.475 0.58351 0.18346 0.0
C43 C 0.54184 0.62766 0.15087 0.0
C44 C 0.42874 0.51043 0.16387 0.0
C45 C 0.45115 0.47923 0.11305 0.0
C46 C 0.51615 0.52318 0.07533 0.0
C47 C 0.56105 0.59899 0.09474 0.0
C48 C 0.53551 0.48929 1.01663 0.0
C49 C 0.60763 0.52396 0.98966 0.0
C50 C 0.62546 0.49253 0.93512 0.0
C51 C 0.57293 0.42359 0.91022 0.0
C52 C 0.50054 0.38813 0.93422 0.0
C53 C 0.48161 0.42196 0.98597 0.0
H54 H 0.83827 0.40145 0.69365 0.0
H55 H 0.96191 0.58936 0.55884 0.0
H56 H 0.02198 0.41254 0.5868 0.0
H57 H 0.04268 0.43596 0.47382 0.0
H58 H 0.20595 0.63053 0.36892 0.0
H59 H 0.08276 0.65679 0.52889 0.0
C60 C 0.88192 0.42925 0.65658 0.0
C61 C 0.92713 0.39755 0.64186 0.0
C62 C 0.89657 0.49975 0.62982 0.0
C63 C 0.95291 0.5362 0.58158 0.0
C64 C 0.99742 0.50432 0.56317 0.0
C65 C 0.98543 0.43582 0.59594 0.0
C66 C 0.05556 0.54128 0.50958 0.0
C67 C 0.07251 0.49629 0.46818 0.0
C68 C 0.12779 0.52833 0.41902 0.0
C69 C 0.1637 0.6055 0.40778 0.0
C70 C 0.14629 0.65159 0.44553 0.0
C71 C 0.09359 0.6201 0.49793 0.0
H72 H 0.38966 0.84755 0.22306 0.0
H73 H 0.40935 0.02353 0.08161 0.0
H74 H 0.57049 0.94391 0.08517 0.0
H75 H 0.64466 0.04687 0.03789 0.0
H76 H 0.65065 0.19923 0.87749 0.0
H77 H 0.44632 0.06421 0.97813 0.0
C78 C 0.4183 0.887 0.18191 0.0
C79 C 0.48604 0.89509 0.15986 0.0
C80 C 0.38958 0.93252 0.15331 0.0
C81 C 0.42953 0.98565 0.10067 0.0
C82 C 0.4956 0.9913 0.07428 0.0
C83 C 0.52159 0.94358 0.10409 0.0
C84 C 0.53893 0.04821 1.01831 0.0
C85 C 0.61498 0.06992 1.00704 0.0
C86 C 0.6549 0.12363 0.95568 0.0
C87 C 0.62022 0.15835 0.91761 0.0
C88 C 0.54571 0.13741 0.92581 0.0
C89 C 0.50469 0.08142 0.97484 0.0
H90 H 0.59307 0.45954 0.73145 0.0
H91 H 0.59859 0.59242 0.55035 0.0
H92 H 0.39217 0.40742 0.61821 0.0
H93 H 0.38273 0.38637 0.50473 0.0
H94 H 0.33277 0.5136 0.35048 0.0
H95 H 0.50899 0.62612 0.49947 0.0
C96 C 0.56436 0.47329 0.68968 0.0
C97 C 0.48862 0.42621 0.678 0.0
C98 C 0.60399 0.53599 0.64605 0.0
C99 C 0.56707 0.54822 0.58746 0.0
C100 C 0.49003 0.50102 0.57588 0.0
C101 C 0.45134 0.44315 0.62444 0.0
C102 C 0.44906 0.50609 0.51161 0.0
C103 C 0.39245 0.44005 0.48273 0.0
C104 C 0.34851 0.44166 0.42568 0.0
C105 C 0.3643 0.51126 0.39522 0.0
C106 C 0.42347 0.57789 0.42006 0.0
C107 C 0.46467 0.57493 0.47912 0.0
Mg108 Mg 0.22851 0.44435 0.27983 0.0
C109 C 0.09116 0.3973 0.16847 0.0
O110 O 0.03358 0.33774 0.14421 0.0
C111 C 0.28839 0.3695 0.39882 0.0
O112 O 0.27948 0.30639 0.42834 0.0
C113 C 0.14888 0.48232 0.37856 0.0
O114 O 0.10841 0.40921 0.37831 0.0
O115 O 0.20629 0.5138 0.34221 0.0
O116 O 0.13124 0.38578 0.21436 0.0
O117 O 0.32638 0.50384 0.22145 0.0
C118 C 0.35634 0.46836 0.19624 0.0
O119 O 0.32338 0.39499 0.20115 0.0
O120 O 0.24429 0.36502 0.34855 0.0
Mg121 Mg 0.84225 0.22999 0.81561 0.0
C122 C 0.72392 0.12973 0.71098 0.0
O123 O 0.77689 0.11708 0.68972 0.0
C124 C 0.95509 0.3932 0.84613 0.0
O125 O 1.00392 0.37531 0.82341 0.0
C126 C 0.72984 0.13992 0.93415 0.0
O127 O 0.74457 0.08441 0.92686 0.0
O128 O 0.76814 0.20213 0.90221 0.0
O129 O 0.73651 0.17132 0.76216 0.0
O130 O 0.86323 0.29963 0.72285 0.0
C131 C 0.91711 0.32948 0.68173 0.0
O132 O 0.9701 0.3105 0.68629 0.0
O133 O 0.88813 0.34313 0.85287 0.0
Mg134 Mg 0.56584 0.78057 0.30519 0.0
C135 C 0.5247 0.85971 0.19906 0.0
O136 O 0.59693 0.88847 0.19486 0.0
C137 C 0.44741 0.64874 0.37946 0.0
O138 O 0.40976 0.65081 0.32365 0.0
C139 C 0.66753 0.93118 0.39017 0.0
O140 O 0.73534 0.98299 0.40465 0.0
O141 O 0.65961 0.88127 0.34749 0.0
O142 O 0.4914 0.8078 0.24341 0.0
O143 O 0.59412 0.71176 0.24058 0.0
C144 C 0.586 0.70479 0.17511 0.0
O145 O 0.58469 0.7588 0.13652 0.0
O146 O 0.51205 0.7024 0.38951 0.0
Mg147 Mg 0.78756 0.56908 0.77447 0.0
C148 C 0.68567 0.57864 0.65672 0.0
O149 O 0.72593 0.56335 0.61596 0.0
C150 C 0.90858 0.60597 0.88869 0.0
O151 O 0.8572 0.59202 0.93363 0.0
C152 C 0.69486 0.53497 0.89732 0.0
O153 O 0.72801 0.60843 0.8964 0.0
O154 O 0.71358 0.50181 0.85415 0.0
O155 O 0.7112 0.60192 0.71735 0.0
O156 O 0.80901 0.50347 0.70411 0.0
C157 C 0.85944 0.53829 0.66013 0.0
O158 O 0.88852 0.61138 0.65373 0.0
O159 O 0.89821 0.6222 0.82596 0.0
Mg160 Mg 0.27631 0.78772 0.29214 0.0
C161 C 0.1986 0.68048 0.18025 0.0
O162 O 0.18277 0.73507 0.16519 0.0
C163 C 0.40054 0.87115 0.39034 0.0
O164 O 0.358 0.90235 0.39791 0.0
C165 C 0.187 0.7321 0.42828 0.0
O166 O 0.24873 0.77056 0.46363 0.0
O167 O 0.18428 0.74925 0.36445 0.0
O168 O 0.2427 0.68806 0.23094 0.0
O169 O 0.28079 0.88166 0.22666 0.0
C170 C 0.3204 0.92856 0.17982 0.0
O171 O 0.29842 0.97592 0.15426 0.0
O172 O 0.38002 0.81845 0.34828 0.0
Mg173 Mg 0.42454 0.20447 0.77877 0.0
C174 C 0.48098 0.12927 0.67024 0.0
O175 O 0.41541 0.1023 0.63962 0.0
C176 C 0.44573 0.31812 0.90104 0.0
O177 O 0.37561 0.2842 0.91758 0.0
C178 C 0.51298 0.17382 0.87946 0.0
O179 O 0.55746 0.2356 0.84559 0.0
O180 O 0.4441 0.14326 0.86467 0.0
O181 O 0.49516 0.17062 0.72233 0.0
O182 O 0.47407 0.30815 0.71779 0.0
C183 C 0.44934 0.35494 0.71667 0.0
O184 O 0.38612 0.3371 0.74569 0.0
O185 O 0.46806 0.29348 0.85309 0.0
loop_
_geom_bond_atom_site_label_1
_geom_bond_atom_site_label_2
_geom_bond_distance
_geom_bond_site_symmetry_2
_ccdc_geom_bond_type
H0 C6 0.930 . S
H1 C9 0.931 . S
H2 C11 0.931 . S
H3 C13 0.930 . S
H4 C15 0.930 . S
H5 C17 0.931 . S
C6 H0 0.930 . S
C6 C7 1.380 . S
C6 C8 1.394 . S
C7 C6 1.380 . S
C7 C11 1.382 . S
C8 C6 1.394 . S
C8 C9 1.400 . S
C9 H1 0.931 . S
C9 C8 1.400 . S
C9 C10 1.375 . S
C10 C9 1.375 . S
C10 C11 1.415 . S
C10 C12 1.501 1_656 S
C11 H2 0.931 . S
C11 C7 1.382 . S
C11 C10 1.415 . S
C12 C10 1.501 1_454 S
C12 C13 1.384 . S
C12 C17 1.408 . S
C13 H3 0.930 . S
C13 C12 1.384 . S
C13 C14 1.389 . S
C14 C13 1.389 . S
C14 C15 1.405 . S
C15 H4 0.930 . S
C15 C14 1.405 . S
C15 C16 1.364 . S
C16 C15 1.364 . S
C16 C17 1.400 . S
C17 H5 0.931 . S
C17 C12 1.408 . S
C17 C16 1.400 . S
H18 C24 0.930 . S
H19 C27 0.931 . S
H20 C29 0.931 . S
H21 C31 0.930 . S
H22 C33 0.930 . S
H23 C35 0.931 . S
C24 H18 0.930 . S
C24 C25 1.380 . S
C24 C26 1.394 . S
C25 C24 1.380 . S
C25 C29 1.382 . S
C26 C24 1.394 . S
C26 C27 1.400 . S
C27 H19 0.931 . S
C27 C26 1.400 . S
C27 C28 1.375 . S
C28 C27 1.375 . S
C28 C29 1.415 . S
C28 C30 1.501 1_545 S
C29 H20 0.931 . S
C29 C25 1.382 . S
C29 C28 1.415 . S
C30 C28 1.501 1_565 S
C30 C31 1.384 . S
C30 C35 1.408 . S
C31 H21 0.930 . S
C31 C30 1.384 . S
C31 C32 1.389 . S
C32 C31 1.389 . S
C32 C33 1.405 . S
C33 H22 0.930 . S
C33 C32 1.405 . S
C33 C34 1.364 . S
C34 C33 1.364 . S
C34 C35 1.400 . S
C35 H23 0.931 . S
C35 C30 1.408 . S
C35 C34 1.400 . S
H36 C42 0.930 . S
H37 C45 0.931 . S
H38 C47 0.931 . S
H39 C49 0.930 . S
H40 C51 0.930 . S
H41 C53 0.931 . S
C42 H36 0.930 . S
C42 C43 1.380 . S
C42 C44 1.394 . S
C43 C42 1.380 . S
C43 C47 1.382 . S
C44 C42 1.394 . S
C44 C45 1.400 . S
C45 H37 0.931 . S
C45 C44 1.400 . S
C45 C46 1.375 . S
C46 C45 1.375 . S
C46 C47 1.415 . S
C46 C48 1.501 1_554 S
C47 H38 0.931 . S
C47 C43 1.382 . S
C47 C46 1.415 . S
C48 C46 1.501 1_556 S
C48 C49 1.384 . S
C48 C53 1.408 . S
C49 H39 0.930 . S
C49 C48 1.384 . S
C49 C50 1.389 . S
C50 C49 1.389 . S
C50 C51 1.405 . S
C51 H40 0.930 . S
C51 C50 1.405 . S
C51 C52 1.364 . S
C52 C51 1.364 . S
C52 C53 1.400 . S
C53 H41 0.931 . S
C53 C48 1.408 . S
C53 C52 1.400 . S
H54 C60 0.930 . S
H55 C63 0.931 . S
H56 C65 0.931 . S
H57 C67 0.930 . S
H58 C69 0.930 . S
H59 C71 0.931 . S
C60 H54 0.930 . S
C60 C61 1.380 . S
C60 C62 1.394 . S
C61 C60 1.380 . S
C61 C65 1.382 . S
C62 C60 1.394 . S
C62 C63 1.400 . S
C63 H55 0.931 . S
C63 C62 1.400 . S
C63 C64 1.375 . S
C64 C63 1.375 . S
C64 C65 1.415 . S
C64 C66 1.501 1_655 S
C65 H56 0.931 . S
C65 C61 1.382 . S
C65 C64 1.415 . S
C66 C64 1.501 1_455 S
C66 C67 1.384 . S
C66 C71 1.408 . S
C67 H57 0.930 . S
C67 C66 1.384 . S
C67 C68 1.389 . S
C68 C67 1.389 . S
C68 C69 1.405 . S
C69 H58 0.930 . S
C69 C68 1.405 . S
C69 C70 1.364 . S
C70 C69 1.364 . S
C70 C71 1.400 . S
C71 H59 0.931 . S
C71 C66 1.408 . S
C71 C70 1.400 . S
H72 C78 0.930 . S
H73 C81 0.931 . S
H74 C83 0.931 . S
H75 C85 0.930 . S
H76 C87 0.930 . S
H77 C89 0.931 . S
C78 H72 0.930 . S
C78 C79 1.380 . S
C78 C80 1.394 . S
C79 C78 1.380 . S
C79 C83 1.382 . S
C80 C78 1.394 . S
C80 C81 1.400 . S
C81 H73 0.931 . S
C81 C80 1.400 . S
C81 C82 1.375 . S
C82 C81 1.375 . S
C82 C83 1.415 . S
C82 C84 1.501 1_564 S
C83 H74 0.931 . S
C83 C79 1.382 . S
C83 C82 1.415 . S
C84 C82 1.501 1_546 S
C84 C85 1.384 . S
C84 C89 1.408 . S
C85 H75 0.930 . S
C85 C84 1.384 . S
C85 C86 1.389 . S
C86 C85 1.389 . S
C86 C87 1.405 . S
C87 H76 0.930 . S
C87 C86 1.405 . S
C87 C88 1.364 . S
C88 C87 1.364 . S
C88 C89 1.400 . S
C89 H77 0.931 . S
C89 C84 1.408 . S
C89 C88 1.400 . S
H90 C96 0.930 . S
H91 C99 0.931 . S
H92 C101 0.931 . S
H93 C103 0.930 . S
H94 C105 0.930 . S
H95 C107 0.931 . S
C96 H90 0.930 . S
C96 C97 1.380 . S
C96 C98 1.394 . S
C97 C96 1.380 . S
C97 C101 1.382 . S
C98 C96 1.394 . S
C98 C99 1.400 . S
C99 H91 0.931 . S
C99 C98 1.400 . S
C99 C100 1.375 . S
C100 C99 1.375 . S
C100 C101 1.415 . S
C100 C102 1.501 . S
C101 H92 0.931 . S
C101 C97 1.382 . S
C101 C100 1.415 . S
C102 C100 1.501 . S
C102 C103 1.384 . S
C102 C107 1.408 . S
C103 H93 0.930 . S
C103 C102 1.384 . S
C103 C104 1.389 . S
C104 C103 1.389 . S
C104 C105 1.405 . S
C105 H94 0.930 . S
C105 C104 1.405 . S
C105 C106 1.364 . S
C106 C105 1.364 . S
C106 C107 1.400 . S
C107 H95 0.931 . S
C107 C102 1.408 . S
C107 C106 1.400 . S
Mg108 O115 2.141 . S
Mg108 O116 2.048 . S
Mg108 O117 2.048 . S
Mg108 O120 2.141 . S
C109 O110 1.313 . S
C109 O116 1.195 . S
O110 C109 1.313 . S
C111 O112 1.245 . S
C111 O120 1.289 . S
O112 C111 1.245 . S
C113 O114 1.245 . S
C113 O115 1.289 . S
O114 C113 1.245 . S
O115 Mg108 2.141 . S
O115 C113 1.289 . S
O116 Mg108 2.048 . S
O116 C109 1.195 . S
O117 Mg108 2.048 . S
O117 C118 1.195 . S
C118 O117 1.195 . S
C118 O119 1.313 . S
O119 C118 1.313 . S
O120 Mg108 2.141 . S
O120 C111 1.289 . S
Mg121 O128 2.141 . S
Mg121 O129 2.048 . S
Mg121 O130 2.048 . S
Mg121 O133 2.141 . S
C122 O123 1.313 . S
C122 O129 1.195 . S
O123 C122 1.313 . S
C124 O125 1.245 . S
C124 O133 1.289 . S
O125 C124 1.245 . S
C126 O127 1.245 . S
C126 O128 1.289 . S
O127 C126 1.245 . S
O128 Mg121 2.141 . S
O128 C126 1.289 . S
O129 Mg121 2.048 . S
O129 C122 1.195 . S
O130 Mg121 2.048 . S
O130 C131 1.195 . S
C131 O130 1.195 . S
C131 O132 1.313 . S
O132 C131 1.313 . S
O133 Mg121 2.141 . S
O133 C124 1.289 . S
Mg134 O141 2.141 . S
Mg134 O142 2.048 . S
Mg134 O143 2.048 . S
Mg134 O146 2.141 . S
C135 O136 1.313 . S
C135 O142 1.195 . S
O136 C135 1.313 . S
C137 O138 1.245 . S
C137 O146 1.289 . S
O138 C137 1.245 . S
C139 O140 1.245 . S
C139 O141 1.289 . S
O140 C139 1.245 . S
O141 Mg134 2.141 . S
O141 C139 1.289 . S
O142 Mg134 2.048 . S
O142 C135 1.195 . S
O143 Mg134 2.048 . S
O143 C144 1.195 . S
C144 O143 1.195 . S
C144 O145 1.313 . S
O145 C144 1.313 . S
O146 Mg134 2.141 . S
O146 C137 1.289 . S
Mg147 O154 2.141 . S
Mg147 O155 2.048 . S
Mg147 O156 2.048 . S
Mg147 O159 2.141 . S
C148 O149 1.313 . S
C148 O155 1.195 . S
O149 C148 1.313 . S
C150 O151 1.245 . S
C150 O159 1.289 . S
O151 C150 1.245 . S
C152 O153 1.245 . S
C152 O154 1.289 . S
O153 C152 1.245 . S
O154 Mg147 2.141 . S
O154 C152 1.289 . S
O155 Mg147 2.048 . S
O155 C148 1.195 . S
O156 Mg147 2.048 . S
O156 C157 1.195 . S
C157 O156 1.195 . S
C157 O158 1.313 . S
O158 C157 1.313 . S
O159 Mg147 2.141 . S
O159 C150 1.289 . S
Mg160 O167 2.141 . S
Mg160 O168 2.048 . S
Mg160 O169 2.048 . S
Mg160 O172 2.141 . S
C161 O162 1.313 . S
C161 O168 1.195 . S
O162 C161 1.313 . S
C163 O164 1.245 . S
C163 O172 1.289 . S
O164 C163 1.245 . S
C165 O166 1.245 . S
C165 O167 1.289 . S
O166 C165 1.245 . S
O167 Mg160 2.141 . S
O167 C165 1.289 . S
O168 Mg160 2.048 . S
O168 C161 1.195 . S
O169 Mg160 2.048 . S
O169 C170 1.195 . S
C170 O169 1.195 . S
C170 O171 1.313 . S
O171 C170 1.313 . S
O172 Mg160 2.141 . S
O172 C163 1.289 . S
Mg173 O180 2.141 . S
Mg173 O181 2.048 . S
Mg173 O182 2.048 . S
Mg173 O185 2.141 . S
C174 O175 1.313 . S
C174 O181 1.195 . S
O175 C174 1.313 . S
C176 O177 1.245 . S
C176 O185 1.289 . S
O177 C176 1.245 . S
C178 O179 1.245 . S
C178 O180 1.289 . S
O179 C178 1.245 . S
O180 Mg173 2.141 . S
O180 C178 1.289 . S
O181 Mg173 2.048 . S
O181 C174 1.195 . S
O182 Mg173 2.048 . S
O182 C183 1.195 . S
C183 O182 1.195 . S
C183 O184 1.313 . S
O184 C183 1.313 . S
O185 Mg173 2.141 . S
O185 C176 1.289 . S
C14 C109 1.737 . S
C25 C122 1.748 . S
C144 C43 1.581 . S
C157 C62 1.585 . S
C170 C80 1.572 . S
C183 C97 1.574 . S
C32 C139 1.539 . S
C50 C152 1.542 . S
C165 C70 1.518 . S
C178 C88 1.529 . S
C104 C111 1.740 . S
C124 C7 1.738 . S
C150 C8 1.539 . S
C34 C163 1.523 . S
C176 C52 1.522 . S
C68 C113 1.775 . S
C86 C126 1.773 . S
C106 C137 1.534 . S
C26 C174 1.611 . S
C118 C44 1.794 . S
C61 C131 1.778 . S
C79 C135 1.607 . S
C98 C148 1.609 . S
C16 C161 1.587 . S
