# Generated by pormake.
# Topology rtl, (3,6)-cn, num edge types: 1
# Building blocks:
#     Node 0, Type 0, BuildingBlock: MIDCAF_clean_linker_0, # of connection points: 3
#     Node 1, Type 0, BuildingBlock: MIDCAF_clean_linker_0, # of connection points: 3
#     Node 2, Type 0, BuildingBlock: MIDCAF_clean_linker_0, # of connection points: 3
#     Node 3, Type 0, BuildingBlock: MIDCAF_clean_linker_0, # of connection points: 3
#     Node 4, Type 1, BuildingBlock: LEVNOQ01_clean_sbu_1, # of connection points: 6
#     Node 5, Type 1, BuildingBlock: LEVNOQ01_clean_sbu_1, # of connection points: 6
#     Edge 6, Type (0, 1), None
#     Edge 7, Type (0, 1), None
#     Edge 8, Type (0, 1), None
#     Edge 9, Type (0, 1), None
#     Edge 10, Type (0, 1), None
#     Edge 11, Type (0, 1), None
#     Edge 12, Type (0, 1), None
#     Edge 13, Type (0, 1), None
#     Edge 14, Type (0, 1), None
#     Edge 15, Type (0, 1), None
#     Edge 16, Type (0, 1), None
#     Edge 17, Type (0, 1), None
# Relax obj value: 0.027
# Max RMSD: 0.060
# Mean RMSD: 0.046
data_MOF--net-rtl--node1-LEVNOQ01_clean_sbu_1--node2-MIDCAF_clean_linker_0--edge1-none
_symmetry_space_group_name_H-M    P1
_symmetry_Int_Tables_number       1
_symmetry_cell_setting            triclinic
loop_
_symmetry_equiv_pos_as_xyz
'x, y, z'
_cell_length_a     20.648355
_cell_length_b     22.538683
_cell_length_c     16.231113
_cell_angle_alpha  89.7995
_cell_angle_beta   98.44338
_cell_angle_gamma 89.958167
loop_
_atom_site_label
_atom_site_type_symbol
_atom_site_fract_x
_atom_site_fract_y
_atom_site_fract_z
_atom_type_partial_charge
C0 C 0.17048 0.02616 0.33168 0.0
C1 C 0.18079 0.98782 0.4007 0.0
C2 C 0.22577 0.94084 0.40051 0.0
C3 C 0.25355 0.92818 0.32901 0.0
H4 H 0.3241 0.76966 0.181 0.0
H5 H 0.39114 0.68489 0.14715 0.0
H6 H 0.46132 0.79143 0.95637 0.0
H7 H 0.39453 0.8735 0.98879 0.0
H8 H 0.2387 0.91308 0.86725 0.0
H9 H 0.17031 0.94678 0.74089 0.0
H10 H 0.06586 0.06315 0.88684 0.0
H11 H 0.13412 0.02956 0.01338 0.0
H12 H 0.18549 0.04166 0.20604 0.0
H13 H 0.13659 0.06302 0.32996 0.0
H14 H 0.23536 0.91084 0.4532 0.0
H15 H 0.28414 0.88913 0.32892 0.0
N16 N 0.29568 0.89584 0.17073 0.0
N17 N 0.27449 0.90067 0.02463 0.0
N18 N 0.22068 0.96547 0.10381 0.0
C19 C 0.30699 0.87585 0.09512 0.0
C20 C 0.23086 0.94512 0.02826 0.0
C21 C 0.25305 0.94161 0.17527 0.0
C22 C 0.35404 0.82776 0.08694 0.0
C23 C 0.35502 0.77466 0.13299 0.0
C24 C 0.39298 0.72622 0.11333 0.0
C25 C 0.43095 0.73092 0.04829 0.0
C26 C 0.43228 0.78552 0.00619 0.0
C27 C 0.39403 0.83293 0.02478 0.0
C28 C 0.19193 0.96843 0.95081 0.0
C29 C 0.20141 0.94608 0.87259 0.0
C30 C 0.16207 0.96532 0.79997 0.0
C31 C 0.11237 0.00737 0.80381 0.0
C32 C 0.10359 0.03052 0.88172 0.0
C33 C 0.14292 0.01131 0.95437 0.0
C34 C 0.23683 0.96231 0.25645 0.0
C35 C 0.19805 0.0134 0.26015 0.0
C36 C 0.60366 0.51379 0.38019 0.0
C37 C 0.61228 0.53695 0.30202 0.0
C38 C 0.66174 0.57912 0.29768 0.0
C39 C 0.70096 0.59849 0.37008 0.0
H40 H 0.89014 0.67424 0.48118 0.0
H41 H 0.95726 0.75644 0.45019 0.0
H42 H 0.89363 0.85816 0.64933 0.0
H43 H 0.82609 0.77322 0.68161 0.0
H44 H 0.78332 0.65577 0.8258 0.0
H45 H 0.73435 0.63435 0.95017 0.0
H46 H 0.63543 0.48245 0.82845 0.0
H47 H 0.68456 0.5035 0.70443 0.0
H48 H 0.63418 0.51488 0.51182 0.0
H49 H 0.56611 0.48107 0.38568 0.0
H50 H 0.66984 0.59768 0.2384 0.0
H51 H 0.73804 0.6316 0.36436 0.0
N52 N 0.77368 0.64424 0.52166 0.0
N53 N 0.79469 0.64916 0.66771 0.0
N54 N 0.72017 0.57933 0.60149 0.0
C55 C 0.80599 0.66918 0.59192 0.0
C56 C 0.75231 0.60331 0.67271 0.0
C57 C 0.73033 0.59964 0.52574 0.0
C58 C 0.85274 0.7175 0.58335 0.0
C59 C 0.891 0.71377 0.51919 0.0
C60 C 0.92955 0.76125 0.5015 0.0
C61 C 0.93034 0.81454 0.5466 0.0
C62 C 0.89384 0.81786 0.61323 0.0
C63 C 0.8556 0.76929 0.63196 0.0
C64 C 0.73598 0.58271 0.75406 0.0
C65 C 0.75266 0.61684 0.82626 0.0
C66 C 0.72477 0.60434 0.89781 0.0
C67 C 0.67969 0.55754 0.89842 0.0
C68 C 0.6694 0.51918 0.82983 0.0
C69 C 0.6971 0.53176 0.75824 0.0
C70 C 0.69161 0.57616 0.44855 0.0
C71 C 0.64287 0.53313 0.45261 0.0
C72 C 0.83125 0.01927 0.75146 0.0
C73 C 0.82084 0.05749 0.68232 0.0
C74 C 0.77582 0.10445 0.68241 0.0
C75 C 0.7481 0.11723 0.75391 0.0
H76 H 0.67616 0.27526 0.9001 0.0
H77 H 0.60845 0.35985 0.93293 0.0
H78 H 0.54091 0.25468 0.12698 0.0
H79 H 0.60834 0.17282 0.09554 0.0
H80 H 0.76314 0.13263 0.21577 0.0
H81 H 0.8314 0.09875 0.34214 0.0
H82 H 0.93616 0.98275 0.19606 0.0
H83 H 0.86803 0.01651 0.06953 0.0
H84 H 0.81637 1.00398 0.8772 0.0
H85 H 0.86518 0.98243 0.75326 0.0
H86 H 0.76616 0.13436 0.62963 0.0
H87 H 0.71749 0.15626 0.75392 0.0
N88 N 0.70607 0.14977 0.9122 0.0
N89 N 0.72742 0.14517 0.05831 0.0
N90 N 0.78123 0.08032 0.9792 0.0
C91 C 0.69481 0.16987 0.98778 0.0
C92 C 0.7711 0.10075 0.05472 0.0
C93 C 0.74876 0.10405 0.90772 0.0
C94 C 0.6476 0.21787 0.99585 0.0
C95 C 0.64571 0.27051 0.94866 0.0
C96 C 0.60735 0.31886 0.96772 0.0
C97 C 0.56984 0.31449 0.03326 0.0
C98 C 0.56951 0.26032 0.07665 0.0
C99 C 0.60817 0.21303 0.05867 0.0
C100 C 0.81005 0.07746 0.13216 0.0
C101 C 0.80048 0.09968 0.21041 0.0
C102 C 0.83973 0.08034 0.28303 0.0
C103 C 0.88946 0.03831 0.27916 0.0
C104 C 0.89839 0.01534 0.2012 0.0
C105 C 0.85914 0.03465 0.12856 0.0
C106 C 0.76492 0.08323 0.82658 0.0
C107 C 0.80373 0.03214 0.823 0.0
C108 C 0.39607 0.53191 0.70012 0.0
C109 C 0.3876 0.50858 0.77826 0.0
C110 C 0.33822 0.46633 0.78256 0.0
C111 C 0.29895 0.44702 0.71016 0.0
H112 H 0.10839 0.37218 0.59723 0.0
H113 H 0.04168 0.28986 0.62906 0.0
H114 H 0.1086 0.18632 0.43387 0.0
H115 H 0.17564 0.27135 0.40069 0.0
H116 H 0.21683 0.38954 0.2545 0.0
H117 H 0.26582 0.41093 0.13013 0.0
H118 H 0.3645 0.56301 0.25166 0.0
H119 H 0.31537 0.54199 0.37569 0.0
H120 H 0.36541 0.53098 0.56851 0.0
H121 H 0.43354 0.5647 0.69465 0.0
H122 H 0.33022 0.44766 0.84182 0.0
H123 H 0.26196 0.41383 0.71585 0.0
N124 N 0.22619 0.40136 0.55858 0.0
N125 N 0.20535 0.39627 0.41254 0.0
N126 N 0.27973 0.46624 0.47874 0.0
C127 C 0.194 0.37634 0.48834 0.0
C128 C 0.24769 0.44216 0.40752 0.0
C129 C 0.26951 0.44598 0.5545 0.0
C130 C 0.14732 0.32799 0.49694 0.0
C131 C 0.10828 0.33222 0.56022 0.0
C132 C 0.07002 0.28467 0.57843 0.0
C133 C 0.07034 0.23084 0.53477 0.0
C134 C 0.10753 0.22704 0.46888 0.0
C135 C 0.14549 0.27565 0.44962 0.0
C136 C 0.26406 0.4627 0.32616 0.0
C137 C 0.24745 0.4285 0.25401 0.0
C138 C 0.27535 0.44098 0.18244 0.0
C139 C 0.32036 0.48783 0.18178 0.0
C140 C 0.33059 0.52624 0.25033 0.0
C141 C 0.30288 0.51368 0.32192 0.0
C142 C 0.30819 0.46948 0.63171 0.0
C143 C 0.35682 0.51262 0.62769 0.0
O144 O 0.87508 0.10485 0.58283 0.0
Mg145 Mg 0.97831 0.10232 0.61492 0.0
O146 O 0.91351 0.01957 0.62584 0.0
Mg147 Mg 0.00076 0.02261 0.54146 0.0
O148 O 0.03525 0.127 0.52973 0.0
O149 O 0.0021 0.18789 0.62429 0.0
O150 O 0.0881 0.0257 0.45715 0.0
O151 O 0.92452 0.03975 0.42631 0.0
Mg152 Mg 0.02325 0.94311 0.46805 0.0
O153 O 0.96616 0.9182 0.55298 0.0
O154 O 0.12648 0.94038 0.50012 0.0
O155 O 0.97683 0.98084 0.35207 0.0
O156 O -0.00083 0.85763 0.45794 0.0
C157 C 0.06966 0.02675 0.72718 0.0
C158 C 0.86735 0.05748 0.62111 0.0
C159 C 0.03389 0.17965 0.56285 0.0
C160 C 0.13424 0.98776 0.46186 0.0
C161 C 0.93205 0.01878 0.3558 0.0
C162 C 0.96725 0.86571 0.51931 0.0
O163 O 0.02499 0.06481 0.73089 0.0
O164 O 0.07699 1.00556 0.65671 0.0
O165 O 0.52491 0.4796 0.22977 0.0
Mg166 Mg 0.47785 0.4425 0.11413 0.0
O167 O 0.57663 0.53897 0.155 0.0
Mg168 Mg 0.50006 0.52265 0.04016 0.0
O169 O 0.53434 0.41829 0.0283 0.0
O170 O 0.50189 0.3569 0.12329 0.0
O171 O 0.42348 0.50635 0.92525 0.0
O172 O 0.58702 0.51996 0.95539 0.0
Mg173 Mg 0.52218 0.60296 0.96606 0.0
O174 O 0.46597 0.62701 0.05226 0.0
O175 O 0.47497 0.56593 0.85048 0.0
O176 O 0.62543 0.60524 0.99727 0.0
O177 O 0.49806 0.68855 0.9572 0.0
C178 C 0.36692 0.48761 0.12064 0.0
C179 C 0.56952 0.51762 0.22564 0.0
C180 C 0.5333 0.36547 0.0615 0.0
C181 C 0.43044 0.52784 0.85462 0.0
C182 C 0.63312 0.55781 0.95954 0.0
C183 C 0.46695 0.67988 0.01924 0.0
O184 O 0.37459 0.44021 0.08282 0.0
O185 O 0.41307 0.52543 0.12488 0.0
loop_
_geom_bond_atom_site_label_1
_geom_bond_atom_site_label_2
_geom_bond_distance
_geom_bond_site_symmetry_2
_ccdc_geom_bond_type
C0 C1 1.384 . S
C0 H13 0.947 1_565 S
C0 C35 1.382 . S
C1 C0 1.384 . S
C1 C2 1.378 . S
C2 C1 1.378 . S
C2 C3 1.378 . S
C2 H14 0.952 . S
C3 C2 1.378 . S
C3 H15 0.950 . S
C3 C34 1.383 . S
H4 C23 0.947 . S
H5 C24 0.946 . S
H6 C26 0.953 1_556 S
H7 C27 0.945 1_556 S
H8 C29 0.952 . S
H9 C30 0.949 . S
H10 C32 0.950 . S
H11 C33 0.948 1_545 S
H12 C35 0.951 . S
H13 C0 0.947 1_545 S
H14 C2 0.952 . S
H15 C3 0.950 . S
N16 C19 1.382 . S
N16 C21 1.363 . S
N17 C19 1.371 . S
N17 C20 1.372 . S
N18 C20 1.361 . S
N18 C21 1.377 . S
C19 N16 1.382 . S
C19 N17 1.371 . S
C19 C22 1.480 . S
C20 N17 1.372 . S
C20 N18 1.361 . S
C20 C28 1.457 1_554 S
C21 N16 1.363 . S
C21 N18 1.377 . S
C21 C34 1.479 . S
C22 C19 1.480 . S
C22 C23 1.383 . S
C22 C27 1.385 . S
C23 H4 0.947 . S
C23 C22 1.383 . S
C23 C24 1.388 . S
C24 H5 0.946 . S
C24 C23 1.388 . S
C24 C25 1.384 . S
C25 C24 1.384 . S
C25 C26 1.377 . S
C26 H6 0.953 1_554 S
C26 C25 1.377 . S
C26 C27 1.369 . S
C27 H7 0.945 1_554 S
C27 C22 1.385 . S
C27 C26 1.369 . S
C28 C20 1.457 1_556 S
C28 C29 1.372 . S
C28 C33 1.364 . S
C29 H8 0.952 . S
C29 C28 1.372 . S
C29 C30 1.389 . S
C30 H9 0.949 . S
C30 C29 1.389 . S
C30 C31 1.387 . S
C31 C30 1.387 . S
C31 C32 1.372 1_565 S
C32 H10 0.950 . S
C32 C31 1.372 1_545 S
C32 C33 1.379 1_545 S
C33 H11 0.948 1_565 S
C33 C28 1.364 . S
C33 C32 1.379 1_565 S
C34 C3 1.383 . S
C34 C21 1.479 . S
C34 C35 1.398 . S
C35 C0 1.382 . S
C35 H12 0.951 . S
C35 C34 1.398 . S
C36 C37 1.384 . S
C36 H49 0.947 . S
C36 C71 1.382 . S
C37 C36 1.384 . S
C37 C38 1.378 . S
C38 C37 1.378 . S
C38 C39 1.378 . S
C38 H50 0.952 . S
C39 C38 1.378 . S
C39 H51 0.950 . S
C39 C70 1.383 . S
H40 C59 0.947 . S
H41 C60 0.946 . S
H42 C62 0.953 . S
H43 C63 0.945 . S
H44 C65 0.952 . S
H45 C66 0.949 . S
H46 C68 0.950 . S
H47 C69 0.948 . S
H48 C71 0.951 . S
H49 C36 0.947 . S
H50 C38 0.952 . S
H51 C39 0.950 . S
N52 C55 1.382 . S
N52 C57 1.363 . S
N53 C55 1.371 . S
N53 C56 1.372 . S
N54 C56 1.361 . S
N54 C57 1.377 . S
C55 N52 1.382 . S
C55 N53 1.371 . S
C55 C58 1.480 . S
C56 N53 1.372 . S
C56 N54 1.361 . S
C56 C64 1.457 . S
C57 N52 1.363 . S
C57 N54 1.377 . S
C57 C70 1.479 . S
C58 C55 1.480 . S
C58 C59 1.383 . S
C58 C63 1.385 . S
C59 H40 0.947 . S
C59 C58 1.383 . S
C59 C60 1.388 . S
C60 H41 0.946 . S
C60 C59 1.388 . S
C60 C61 1.384 . S
C61 C60 1.384 . S
C61 C62 1.377 . S
C62 H42 0.953 . S
C62 C61 1.377 . S
C62 C63 1.369 . S
C63 H43 0.945 . S
C63 C58 1.385 . S
C63 C62 1.369 . S
C64 C56 1.457 . S
C64 C65 1.372 . S
C64 C69 1.364 . S
C65 H44 0.952 . S
C65 C64 1.372 . S
C65 C66 1.389 . S
C66 H45 0.949 . S
C66 C65 1.389 . S
C66 C67 1.387 . S
C67 C66 1.387 . S
C67 C68 1.372 . S
C68 H46 0.950 . S
C68 C67 1.372 . S
C68 C69 1.379 . S
C69 H47 0.948 . S
C69 C64 1.364 . S
C69 C68 1.379 . S
C70 C39 1.383 . S
C70 C57 1.479 . S
C70 C71 1.398 . S
C71 C36 1.382 . S
C71 H48 0.951 . S
C71 C70 1.398 . S
C72 C73 1.384 . S
C72 H85 0.947 . S
C72 C107 1.382 . S
C73 C72 1.384 . S
C73 C74 1.378 . S
C74 C73 1.378 . S
C74 C75 1.378 . S
C74 H86 0.952 . S
C75 C74 1.378 . S
C75 H87 0.950 . S
C75 C106 1.383 . S
H76 C95 0.947 . S
H77 C96 0.946 . S
H78 C98 0.953 . S
H79 C99 0.945 . S
H80 C101 0.952 . S
H81 C102 0.949 . S
H82 C104 0.950 . S
H83 C105 0.948 . S
H84 C107 0.951 . S
H85 C72 0.947 . S
H86 C74 0.952 . S
H87 C75 0.950 . S
N88 C91 1.382 1_556 S
N88 C93 1.363 . S
N89 C91 1.371 . S
N89 C92 1.372 . S
N90 C92 1.361 . S
N90 C93 1.377 1_554 S
C91 N88 1.382 1_554 S
C91 N89 1.371 . S
C91 C94 1.479 . S
C92 N89 1.372 . S
C92 N90 1.361 . S
C92 C100 1.457 . S
C93 N88 1.363 . S
C93 N90 1.377 1_556 S
C93 C106 1.479 . S
C94 C91 1.479 . S
C94 C95 1.378 1_554 S
C94 C99 1.390 . S
C95 H76 0.947 . S
C95 C94 1.378 1_556 S
C95 C96 1.388 . S
C96 H77 0.946 . S
C96 C95 1.388 . S
C96 C97 1.384 . S
C97 C96 1.384 . S
C97 C98 1.377 1_556 S
C98 H78 0.953 . S
C98 C97 1.377 1_554 S
C98 C99 1.369 . S
C99 H79 0.945 . S
C99 C94 1.390 . S
C99 C98 1.369 . S
C100 C92 1.457 . S
C100 C101 1.372 . S
C100 C105 1.364 . S
C101 H80 0.952 . S
C101 C100 1.372 . S
C101 C102 1.389 . S
C102 H81 0.949 . S
C102 C101 1.389 . S
C102 C103 1.387 . S
C103 C102 1.387 . S
C103 C104 1.372 . S
C104 H82 0.950 . S
C104 C103 1.372 . S
C104 C105 1.379 . S
C105 H83 0.948 . S
C105 C100 1.364 . S
C105 C104 1.379 . S
C106 C75 1.383 . S
C106 C93 1.479 . S
C106 C107 1.398 . S
C107 C72 1.382 . S
C107 H84 0.951 . S
C107 C106 1.398 . S
C108 C109 1.384 . S
C108 H121 0.947 . S
C108 C143 1.382 . S
C109 C108 1.384 . S
C109 C110 1.378 . S
C110 C109 1.378 . S
C110 C111 1.378 . S
C110 H122 0.952 . S
C111 C110 1.378 . S
C111 H123 0.950 . S
C111 C142 1.383 . S
H112 C131 0.947 . S
H113 C132 0.946 . S
H114 C134 0.953 . S
H115 C135 0.945 . S
H116 C137 0.952 . S
H117 C138 0.949 . S
H118 C140 0.950 . S
H119 C141 0.948 . S
H120 C143 0.951 . S
H121 C108 0.947 . S
H122 C110 0.952 . S
H123 C111 0.950 . S
N124 C127 1.382 . S
N124 C129 1.363 . S
N125 C127 1.371 . S
N125 C128 1.372 . S
N126 C128 1.361 . S
N126 C129 1.377 . S
C127 N124 1.382 . S
C127 N125 1.371 . S
C127 C130 1.480 . S
C128 N125 1.372 . S
C128 N126 1.361 . S
C128 C136 1.457 . S
C129 N124 1.363 . S
C129 N126 1.377 . S
C129 C142 1.479 . S
C130 C127 1.480 . S
C130 C131 1.383 . S
C130 C135 1.385 . S
C131 H112 0.947 . S
C131 C130 1.383 . S
C131 C132 1.388 . S
C132 H113 0.946 . S
C132 C131 1.388 . S
C132 C133 1.384 . S
C133 C132 1.384 . S
C133 C134 1.377 . S
C134 H114 0.953 . S
C134 C133 1.377 . S
C134 C135 1.369 . S
C135 H115 0.945 . S
C135 C130 1.385 . S
C135 C134 1.369 . S
C136 C128 1.457 . S
C136 C137 1.372 . S
C136 C141 1.364 . S
C137 H116 0.952 . S
C137 C136 1.372 . S
C137 C138 1.389 . S
C138 H117 0.949 . S
C138 C137 1.389 . S
C138 C139 1.387 . S
C139 C138 1.387 . S
C139 C140 1.372 . S
C140 H118 0.950 . S
C140 C139 1.372 . S
C140 C141 1.379 . S
C141 H119 0.948 . S
C141 C136 1.364 . S
C141 C140 1.379 . S
C142 C111 1.383 . S
C142 C129 1.479 . S
C142 C143 1.398 . S
C143 C108 1.382 . S
C143 H120 0.951 . S
C143 C142 1.398 . S
O144 Mg145 1.990 1_655 S
O144 C158 1.253 . S
Mg145 O144 1.990 1_455 S
Mg145 O148 2.180 . S
Mg145 O149 2.117 . S
Mg145 O163 2.030 . S
O146 Mg147 2.072 1_655 S
O146 C158 1.260 . S
Mg147 O146 2.072 1_455 S
Mg147 O148 2.099 . S
Mg147 O150 2.079 1_545 S
Mg147 O151 2.072 1_455 S
Mg147 O153 2.099 1_445 S
Mg147 O164 2.079 1_545 S
O148 Mg145 2.180 . S
O148 Mg147 2.099 . S
O148 C159 1.279 . S
O149 Mg145 2.117 . S
O149 C159 1.250 . S
O150 Mg147 2.079 1_565 S
O150 C160 1.264 . S
O151 Mg147 2.072 1_655 S
O151 C161 1.260 . S
Mg152 O153 2.180 . S
Mg152 O154 2.030 1_655 S
Mg152 O155 1.990 . S
Mg152 O156 2.117 . S
O153 Mg147 2.099 1_665 S
O153 Mg152 2.180 . S
O153 C162 1.279 . S
O154 Mg152 2.030 1_455 S
O154 C160 1.248 . S
O155 Mg152 1.990 . S
O155 C161 1.253 1_565 S
O156 Mg152 2.117 . S
O156 C162 1.250 . S
C157 O163 1.248 1_565 S
C157 O164 1.264 . S
C158 O144 1.253 . S
C158 O146 1.260 . S
C159 O148 1.279 . S
C159 O149 1.250 . S
C160 O150 1.264 . S
C160 O154 1.248 . S
C161 O151 1.260 . S
C161 O155 1.253 1_545 S
C162 O153 1.279 . S
C162 O156 1.250 . S
O163 Mg145 2.030 . S
O163 C157 1.248 1_545 S
O164 Mg147 2.079 1_565 S
O164 C157 1.264 . S
O165 Mg166 1.990 . S
O165 C179 1.253 . S
Mg166 O165 1.990 . S
Mg166 O169 2.180 . S
Mg166 O170 2.117 . S
Mg166 O184 2.030 . S
O167 Mg168 2.072 . S
O167 C179 1.260 . S
Mg168 O167 2.072 . S
Mg168 O169 2.099 . S
Mg168 O171 2.079 1_554 S
Mg168 O172 2.072 1_554 S
Mg168 O174 2.099 . S
Mg168 O185 2.079 . S
O169 Mg166 2.180 . S
O169 Mg168 2.099 . S
O169 C180 1.279 . S
O170 Mg166 2.117 . S
O170 C180 1.250 . S
O171 Mg168 2.079 1_556 S
O171 C181 1.264 . S
O172 Mg168 2.072 1_556 S
O172 C182 1.260 . S
Mg173 O174 2.180 1_556 S
Mg173 O175 2.030 . S
Mg173 O176 1.990 . S
Mg173 O177 2.117 . S
O174 Mg168 2.099 . S
O174 Mg173 2.180 1_554 S
O174 C183 1.279 . S
O175 Mg173 2.030 . S
O175 C181 1.248 . S
O176 Mg173 1.990 . S
O176 C182 1.253 . S
O177 Mg173 2.117 . S
O177 C183 1.250 1_556 S
C178 O184 1.248 . S
C178 O185 1.264 . S
C179 O165 1.253 . S
C179 O167 1.260 . S
C180 O169 1.279 . S
C180 O170 1.250 . S
C181 O171 1.264 . S
C181 O175 1.248 . S
C182 O172 1.260 . S
C182 O176 1.253 . S
C183 O174 1.279 . S
C183 O177 1.250 1_554 S
O184 Mg166 2.030 . S
O184 C178 1.248 . S
O185 Mg168 2.079 . S
O185 C178 1.264 . S
C159 C133 1.890 . S
C25 C183 1.958 . S
C61 C162 2.081 . S
C97 C180 1.868 1_556 S
C160 C1 2.336 . S
C182 C67 2.052 . S
C103 C161 1.610 . S
C109 C181 1.772 . S
C179 C37 1.718 . S
C158 C73 1.954 . S
C178 C139 2.165 . S
C31 C157 1.891 . S
