# Generated by pormake.
# Topology anh, (6,3)-cn, num edge types: 1
# Building blocks:
#     Node 0, Type 0, BuildingBlock: BETDIP_clean_sbu_0, # of connection points: 6
#     Node 1, Type 0, BuildingBlock: BETDIP_clean_sbu_0, # of connection points: 6
#     Node 2, Type 0, BuildingBlock: BETDIP_clean_sbu_0, # of connection points: 6
#     Node 3, Type 1, BuildingBlock: QEWDON_clean_linker_0, # of connection points: 3
#     Node 4, Type 1, BuildingBlock: QEWDON_clean_linker_0, # of connection points: 3
#     Node 5, Type 1, BuildingBlock: QEWDON_clean_linker_0, # of connection points: 3
#     Node 6, Type 1, BuildingBlock: QEWDON_clean_linker_0, # of connection points: 3
#     Node 7, Type 1, BuildingBlock: QEWDON_clean_linker_0, # of connection points: 3
#     Node 8, Type 1, BuildingBlock: QEWDON_clean_linker_0, # of connection points: 3
#     Edge 9, Type (0, 1), None
#     Edge 10, Type (0, 1), None
#     Edge 11, Type (0, 1), None
#     Edge 12, Type (0, 1), None
#     Edge 13, Type (0, 1), None
#     Edge 14, Type (0, 1), None
#     Edge 15, Type (0, 1), None
#     Edge 16, Type (0, 1), None
#     Edge 17, Type (0, 1), None
#     Edge 18, Type (0, 1), None
#     Edge 19, Type (0, 1), None
#     Edge 20, Type (0, 1), None
#     Edge 21, Type (0, 1), None
#     Edge 22, Type (0, 1), None
#     Edge 23, Type (0, 1), None
#     Edge 24, Type (0, 1), None
#     Edge 25, Type (0, 1), None
#     Edge 26, Type (0, 1), None
# Relax obj value: 0.657
# Max RMSD: 0.207
# Mean RMSD: 0.152
data_MOF--net-anh--node1-BETDIP_clean_sbu_0--node2-QEWDON_clean_linker_0--edge1-none
_symmetry_space_group_name_H-M    P1
_symmetry_Int_Tables_number       1
_symmetry_cell_setting            triclinic
loop_
_symmetry_equiv_pos_as_xyz
'x, y, z'
_cell_length_a     14.65728
_cell_length_b     14.717739
_cell_length_c     22.023253
_cell_angle_alpha  93.268951
_cell_angle_beta   93.957027
_cell_angle_gamma 120.65855
loop_
_atom_site_label
_atom_site_type_symbol
_atom_site_fract_x
_atom_site_fract_y
_atom_site_fract_z
_atom_type_partial_charge
Tb0 Tb 0.42176 0.88107 0.10967 0.0
Tb1 Tb 0.33079 0.69266 0.15515 0.0
C2 C 0.54832 1.05358 0.06996 0.0
C3 C 0.65552 1.09279 0.05096 0.0
C4 C 0.71755 1.05305 0.07593 0.0
C5 C 0.81725 1.12553 0.1082 0.0
C6 C 0.84647 0.23274 0.11431 0.0
C7 C 0.81479 0.26463 0.06139 0.0
C8 C 0.71045 1.19567 0.03348 0.0
C9 C 0.35101 0.71987 0.02344 0.0
C10 C 0.56938 0.78259 0.14379 0.0
C11 C 1.18122 0.52455 0.1815 0.0
C12 C 1.07919 0.52147 0.18805 0.0
C13 C 1.01127 0.50747 0.13557 0.0
C14 C 0.92868 0.52838 0.13887 0.0
C15 C 0.90918 0.56171 0.19516 0.0
C16 C 0.98089 0.58119 0.24724 0.0
C17 C 1.0631 0.55954 0.24391 0.0
C18 C 0.42077 0.84552 0.24741 0.0
C19 C 1.18249 0.78379 0.10171 0.0
O20 O 0.53962 1.04281 0.12833 0.0
O21 O 0.4708 0.97282 0.03576 0.0
O22 O 0.40144 0.73254 0.07397 0.0
O23 O 0.32998 0.79455 0.02243 0.0
O24 O 0.56132 0.86855 0.14415 0.0
O25 O 0.47907 0.68941 0.14221 0.0
O26 O 1.21106 0.53364 0.12638 0.0
O27 O 1.26084 0.58909 0.22244 0.0
O28 O 0.36471 0.84508 0.19954 0.0
O29 O 0.43118 0.76387 0.24036 0.0
O30 O 1.19301 0.70092 0.10933 0.0
O31 O 1.27035 0.87799 0.11016 0.0
H32 H 0.68417 0.96949 0.07847 0.0
H33 H 0.854 1.09607 0.13947 0.0
H34 H 0.84936 0.34752 0.05551 0.0
H35 H 0.66848 0.2278 0.00895 0.0
H36 H 1.02409 0.48343 0.09113 0.0
H37 H 0.87677 0.51273 0.09734 0.0
H38 H 0.9712 0.60942 0.29139 0.0
H39 H 1.11586 0.57523 0.28498 0.0
Tb40 Tb 0.89506 1.20347 0.4537 0.0
Tb41 Tb 0.81511 0.3433 0.45532 0.0
C42 C 0.89033 1.03621 0.46336 0.0
C43 C 0.78952 0.93476 0.44211 0.0
C44 C 0.70423 0.89573 0.47812 0.0
C45 C 0.60873 0.80159 0.45864 0.0
C46 C 0.59821 0.73935 0.4046 0.0
C47 C 0.67767 0.78455 0.3648 0.0
C48 C 0.77233 0.88184 0.38333 0.0
C49 C 0.85789 0.24929 0.34504 0.0
C50 C 0.63543 1.10465 0.43177 0.0
C51 C 0.81777 0.50658 0.4269 0.0
C52 C 0.90697 0.61705 0.4376 0.0
C53 C 0.90883 0.69624 0.40367 0.0
C54 C 0.96852 0.80235 0.43087 0.0
C55 C 1.00186 0.81657 0.49424 0.0
C56 C 1.04984 0.7571 0.50816 0.0
C57 C 0.98878 0.64911 0.48621 0.0
C58 C 0.84074 0.29188 0.56854 0.0
C59 C 1.06841 0.44212 0.45877 0.0
O60 O 0.88732 1.09155 0.51127 0.0
O61 O 0.93887 1.09573 0.4205 0.0
O62 O 0.80367 0.23051 0.3888 0.0
O63 O 0.93952 0.24004 0.36007 0.0
O64 O 0.71683 1.0938 0.45184 0.0
O65 O 0.65609 1.20162 0.42289 0.0
O66 O 0.83575 0.44705 0.39005 0.0
O67 O 0.77572 0.45995 0.47529 0.0
O68 O 0.90377 0.3122 0.52725 0.0
O69 O 0.76713 0.31005 0.54742 0.0
O70 O 0.98442 0.44807 0.44125 0.0
O71 O 1.05332 0.35074 0.47613 0.0
H72 H 0.71195 0.93598 0.5226 0.0
H73 H 0.54969 0.77049 0.49067 0.0
H74 H 0.67243 0.73863 0.32307 0.0
H75 H 0.83476 0.91191 0.35347 0.0
H76 H 0.85593 0.67597 0.36184 0.0
H77 H 0.95792 0.86167 0.41014 0.0
H78 H 1.10489 0.77999 0.54932 0.0
H79 H 0.99722 0.59231 0.51131 0.0
Tb80 Tb 0.79334 0.62149 0.787 0.0
Tb81 Tb 1.00161 0.75216 0.79905 0.0
C82 C 0.59691 0.54125 0.76381 0.0
C83 C 0.55956 0.58375 0.71511 0.0
C84 C 0.63631 0.67347 0.68954 0.0
C85 C 0.60957 0.74181 0.66314 0.0
C86 C 0.50951 0.72708 0.67094 0.0
C87 C 0.42698 0.62125 0.67432 0.0
C88 C 0.45218 0.55063 0.70042 0.0
C89 C 0.86875 0.66161 0.67928 0.0
C90 C 0.88481 0.87537 0.7914 0.0
C91 C 1.18354 0.79006 0.79326 0.0
C92 C 1.1984 0.70206 0.80924 0.0
C93 C 1.23037 0.65096 0.76748 0.0
C94 C 1.23944 0.56515 0.78457 0.0
C95 C 1.23217 0.54252 0.84603 0.0
C96 C 1.16369 0.56525 0.87652 0.0
C97 C 1.154 0.65033 0.86072 0.0
C98 C 0.93707 0.73388 0.91113 0.0
C99 C 0.90133 0.49696 0.77426 0.0
O100 O 0.6512 0.60824 0.81253 0.0
O101 O 0.64601 0.49463 0.74449 0.0
O102 O 0.89261 0.7275 0.72464 0.0
O103 O 0.80525 0.56986 0.69506 0.0
O104 O 0.81016 0.78089 0.8059 0.0
O105 O 0.97628 0.88498 0.77846 0.0
O106 O 1.11948 0.76788 0.74343 0.0
O107 O 1.16266 0.83686 0.83787 0.0
O108 O 0.90394 0.65604 0.86883 0.0
O109 O 1.00365 0.82004 0.8893 0.0
O110 O 0.97422 0.59308 0.7631 0.0
O111 O 0.82001 0.4897 0.80021 0.0
H112 H 0.71888 0.70021 0.69814 0.0
H113 H 0.67398 0.81908 0.65449 0.0
H114 H 0.34524 0.6019 0.67147 0.0
H115 H 0.38993 0.47789 0.71534 0.0
H116 H 1.24999 0.67837 0.72299 0.0
H117 H 1.27217 0.53139 0.75483 0.0
H118 H 1.13717 0.53446 0.91951 0.0
H119 H 1.11198 0.67554 0.88888 0.0
H120 H 0.70287 0.29114 0.32197 0.0
C121 C 0.73618 0.28303 0.28118 0.0
C122 C 0.81952 0.26156 0.28441 0.0
C123 C 0.70292 0.30672 0.22694 0.0
H124 H 0.9229 0.23072 0.23273 0.0
C125 C 0.86209 0.25195 0.23072 0.0
C126 C 0.82213 0.2654 0.174 0.0
C127 C 0.74384 0.29454 0.17364 0.0
C128 C 0.6644 0.38254 0.22911 0.0
H129 H 0.71728 0.31387 0.13204 0.0
C130 C 0.74891 0.48534 0.249 0.0
C131 C 0.80081 0.54562 0.20196 0.0
C132 C 0.59225 0.37329 0.18012 0.0
H133 H 0.5204 0.29755 0.16526 0.0
C134 C 0.62605 0.45533 0.14198 0.0
H135 H 0.79656 0.49444 0.29086 0.0
C136 C 0.73354 0.53794 0.15025 0.0
H137 H 0.7659 0.58371 0.11258 0.0
H138 H 0.57532 0.44607 0.10112 0.0
H139 H 0.69024 0.54835 0.60084 0.0
C140 C 0.75091 0.61983 0.58385 0.0
C141 C 0.8507 0.68574 0.6185 0.0
C142 C 0.72757 0.6489 0.52871 0.0
H143 H 1.00973 0.82008 0.62118 0.0
C144 C 0.9307 0.77591 0.59587 0.0
C145 C 0.91516 0.79376 0.5352 0.0
C146 C 0.80848 0.74196 0.50791 0.0
C147 C 0.62003 0.58546 0.49251 0.0
H148 H 0.7926 0.76354 0.46474 0.0
C149 C 0.6115 0.59181 0.42921 0.0
C150 C 0.54049 0.62259 0.40754 0.0
C151 C 0.52563 0.54617 0.52097 0.0
H152 H 0.52489 0.53398 0.56894 0.0
C153 C 0.43348 0.53338 0.48808 0.0
H154 H 0.68109 0.61397 0.40554 0.0
C155 C 0.44168 0.57512 0.43149 0.0
H156 H 0.37884 0.58631 0.41218 0.0
H157 H 0.36085 0.50457 0.5096 0.0
H158 H 0.48132 0.85335 0.94865 0.0
C159 C 0.45096 0.77054 0.93384 0.0
C160 C 0.38468 0.69047 0.96934 0.0
C161 C 0.47073 0.74212 0.87682 0.0
H162 H 1.27636 0.52368 0.97165 0.0
C163 C 0.33632 0.58318 0.94674 0.0
C164 C 0.33215 0.56169 0.88345 0.0
C165 C 0.42663 0.63226 0.85937 0.0
C166 C 0.50315 0.81654 0.82845 0.0
H167 H 0.43758 0.60676 0.81514 0.0
C168 C 0.54599 0.79469 0.77936 0.0
C169 C 0.51425 0.80362 0.71943 0.0
C170 C 0.46015 0.88222 0.82041 0.0
H171 H 0.42748 0.90353 0.85745 0.0
C172 C 0.4469 0.91002 0.76182 0.0
H173 H 0.5853 0.75049 0.78701 0.0
C174 C 0.46768 0.86514 0.71062 0.0
H175 H 0.44409 0.87499 0.66496 0.0
H176 H 0.41018 0.95712 0.75544 0.0
H177 H 1.29582 0.72879 0.32936 0.0
C178 C 0.35726 0.80597 0.35105 0.0
C179 C 0.42145 0.88337 0.31249 0.0
C180 C 0.37753 0.8234 0.41594 0.0
H181 H 0.56048 1.03928 0.3109 0.0
C182 C 0.50689 0.98295 0.33984 0.0
C183 C 0.53142 1.00563 0.40423 0.0
C184 C 0.46706 0.92557 0.44101 0.0
C185 C 1.31239 0.73382 0.45693 0.0
H186 H 0.49185 0.94524 0.48939 0.0
C187 C 1.22269 0.62852 0.43503 0.0
C188 C 1.17243 0.54691 0.47552 0.0
C189 C 0.34051 0.75374 0.52105 0.0
H190 H 0.40185 0.82973 0.54346 0.0
C191 C 1.28904 0.6762 0.56009 0.0
H192 H 1.19148 0.60879 0.38733 0.0
C193 C 1.20914 0.57361 0.53781 0.0
H194 H 1.17052 0.51668 0.57032 0.0
H195 H 1.30997 0.69743 0.6088 0.0
H196 H 0.85124 1.14597 0.64125 0.0
C197 C 0.86834 0.21798 0.6681 0.0
C198 C 0.87093 0.3024 0.6374 0.0
C199 C 0.87833 0.22283 0.73349 0.0
H200 H 0.88427 0.45538 0.65069 0.0
C201 C 0.8848 0.39244 0.67365 0.0
C202 C 0.89415 0.40089 0.73848 0.0
C203 C 0.89328 0.31694 0.76724 0.0
C204 C 0.85373 1.12601 0.76848 0.0
H205 H 0.9016 0.32403 0.81682 0.0
C206 C 0.89074 1.05188 0.75894 0.0
C207 C 0.86324 0.96693 0.79789 0.0
C208 C 0.78751 1.10871 0.81534 0.0
H209 H 0.75251 1.15719 0.82308 0.0
C210 C 0.76395 1.02963 0.85348 0.0
H211 H 0.93852 1.05948 0.72208 0.0
C212 C 0.80146 0.96087 0.84529 0.0
H213 H 0.77929 0.90005 0.87626 0.0
H214 H 0.71431 1.0205 0.88963 0.0
H215 H 0.81453 0.74751 -0.00393 0.0
C216 C 0.88342 0.74799 0.01771 0.0
C217 C 0.9501 0.73138 0.98003 0.0
C218 C 0.9098 0.77371 0.08234 0.0
H219 H 1.10181 0.73846 0.98075 0.0
C220 C 1.04647 0.74324 0.00872 0.0
C221 C 1.07637 0.76806 0.07283 0.0
C222 C 1.00563 0.77974 0.10859 0.0
C223 C 0.84525 0.80374 0.12314 0.0
H224 H 1.02686 0.79433 0.15765 0.0
C225 C 0.73203 0.76581 0.11231 0.0
C226 C 0.68056 0.79901 0.15461 0.0
C227 C 0.90227 0.87724 0.17531 0.0
H228 H 0.98797 0.91504 0.18462 0.0
C229 C 0.85222 0.90759 0.21627 0.0
H230 H 0.68538 0.71331 0.07146 0.0
C231 C 0.74346 0.86879 0.20641 0.0
H232 H 0.70874 0.89737 0.23872 0.0
H233 H 0.89935 0.96462 0.25548 0.0
loop_
_geom_bond_atom_site_label_1
_geom_bond_atom_site_label_2
_geom_bond_distance
_geom_bond_site_symmetry_2
_ccdc_geom_bond_type
Tb0 C2 2.809 . S
Tb0 O20 2.484 . S
Tb0 O21 2.440 . S
Tb0 O22 2.658 1_455 S
Tb0 O23 2.409 1_554 S
Tb0 O24 2.378 . S
Tb0 O28 2.325 . S
Tb0 O31 2.341 1_455 S
Tb1 C11 2.809 . S
Tb1 O22 2.325 . S
Tb1 O25 2.341 1_655 S
Tb1 O26 2.484 . S
Tb1 O27 2.440 . S
Tb1 O28 2.658 1_655 S
Tb1 O29 2.409 . S
Tb1 O30 2.378 . S
C2 Tb0 2.809 . S
C2 C3 1.514 . S
C2 O20 1.248 . S
C2 O21 1.266 . S
C3 C2 1.514 . S
C3 C4 1.359 . S
C3 C8 1.348 . S
C4 C3 1.359 . S
C4 C5 1.380 . S
C4 H32 0.929 . S
C5 C4 1.380 . S
C5 C6 1.347 . S
C5 H33 0.931 . S
C6 C5 1.347 . S
C6 C7 1.369 . S
C7 C6 1.369 . S
C7 C8 1.408 . S
C7 H34 0.930 . S
C8 C3 1.348 . S
C8 C7 1.408 . S
C8 H35 0.930 . S
C9 O22 1.281 1_456 S
C9 O23 1.254 . S
C10 O24 1.236 . S
C10 O25 1.266 . S
C11 Tb1 2.809 . S
C11 C12 1.514 . S
C11 O26 1.248 . S
C11 O27 1.266 . S
C12 C11 1.514 . S
C12 C13 1.359 . S
C12 C17 1.348 . S
C13 C12 1.359 . S
C13 C14 1.380 . S
C13 H36 0.929 . S
C14 C13 1.380 . S
C14 C15 1.347 . S
C14 H37 0.931 1_554 S
C15 C14 1.347 . S
C15 C16 1.369 . S
C16 C15 1.369 . S
C16 C17 1.408 . S
C16 H38 0.930 . S
C17 C12 1.348 . S
C17 C16 1.408 . S
C17 H39 0.930 . S
C18 O28 1.281 . S
C18 O29 1.254 1_455 S
C19 O30 1.236 . S
C19 O31 1.266 . S
O20 Tb0 2.484 . S
O20 C2 1.248 . S
O21 Tb0 2.440 . S
O21 C2 1.266 . S
O22 Tb0 2.658 1_655 S
O22 Tb1 2.325 . S
O22 C9 1.281 1_654 S
O23 Tb0 2.409 1_556 S
O23 C9 1.254 . S
O24 Tb0 2.378 . S
O24 C10 1.236 . S
O25 Tb1 2.341 1_455 S
O25 C10 1.266 . S
O26 Tb1 2.484 . S
O26 C11 1.248 . S
O27 Tb1 2.440 . S
O27 C11 1.266 . S
O28 Tb0 2.325 . S
O28 Tb1 2.658 1_455 S
O28 C18 1.281 . S
O29 Tb1 2.409 . S
O29 C18 1.254 1_655 S
O30 Tb1 2.378 . S
O30 C19 1.236 . S
O31 Tb0 2.341 1_655 S
O31 C19 1.266 . S
H32 C4 0.929 . S
H33 C5 0.931 . S
H34 C7 0.930 . S
H35 C8 0.930 . S
H36 C13 0.929 . S
H37 C14 0.931 1_556 S
H38 C16 0.930 . S
H39 C17 0.930 . S
Tb40 C42 2.809 . S
Tb40 O60 2.484 . S
Tb40 O61 2.440 . S
Tb40 O62 2.658 1_565 S
Tb40 O63 2.409 . S
Tb40 O64 2.378 . S
Tb40 O68 2.325 1_565 S
Tb40 O71 2.341 1_565 S
Tb41 C51 2.809 . S
Tb41 O62 2.325 . S
Tb41 O65 2.341 1_545 S
Tb41 O66 2.484 . S
Tb41 O67 2.440 . S
Tb41 O68 2.658 . S
Tb41 O69 2.409 . S
Tb41 O70 2.378 . S
C42 Tb40 2.809 . S
C42 C43 1.514 . S
C42 O60 1.248 . S
C42 O61 1.266 . S
C43 C42 1.514 . S
C43 C44 1.359 . S
C43 C48 1.348 . S
C44 C43 1.359 . S
C44 C45 1.380 . S
C44 H72 0.929 . S
C45 C44 1.380 . S
C45 C46 1.347 . S
C45 H73 0.931 . S
C46 C45 1.347 . S
C46 C47 1.369 . S
C47 C46 1.369 . S
C47 C48 1.408 . S
C47 H74 0.930 . S
C48 C43 1.348 . S
C48 C47 1.408 . S
C48 H75 0.930 . S
C49 O62 1.281 . S
C49 O63 1.254 1_545 S
C50 O64 1.236 . S
C50 O65 1.266 . S
C51 Tb41 2.809 . S
C51 C52 1.514 . S
C51 O66 1.248 . S
C51 O67 1.266 . S
C52 C51 1.514 . S
C52 C53 1.359 . S
C52 C57 1.348 . S
C53 C52 1.359 . S
C53 C54 1.380 . S
C53 H76 0.929 . S
C54 C53 1.380 . S
C54 C55 1.347 . S
C54 H77 0.931 . S
C55 C54 1.347 . S
C55 C56 1.369 . S
C56 C55 1.369 . S
C56 C57 1.408 . S
C56 H78 0.930 . S
C57 C52 1.348 . S
C57 C56 1.408 . S
C57 H79 0.930 . S
C58 O68 1.281 . S
C58 O69 1.254 . S
C59 O70 1.236 . S
C59 O71 1.266 . S
O60 Tb40 2.484 . S
O60 C42 1.248 . S
O61 Tb40 2.440 . S
O61 C42 1.266 . S
O62 Tb40 2.658 1_545 S
O62 Tb41 2.325 . S
O62 C49 1.281 . S
O63 Tb40 2.409 . S
O63 C49 1.254 1_565 S
O64 Tb40 2.378 . S
O64 C50 1.236 . S
O65 Tb41 2.341 1_565 S
O65 C50 1.266 . S
O66 Tb41 2.484 . S
O66 C51 1.248 . S
O67 Tb41 2.440 . S
O67 C51 1.266 . S
O68 Tb40 2.325 1_545 S
O68 Tb41 2.658 . S
O68 C58 1.281 . S
O69 Tb41 2.409 . S
O69 C58 1.254 . S
O70 Tb41 2.378 . S
O70 C59 1.236 . S
O71 Tb40 2.341 1_545 S
O71 C59 1.266 . S
H72 C44 0.929 . S
H73 C45 0.931 . S
H74 C47 0.930 . S
H75 C48 0.930 . S
H76 C53 0.929 . S
H77 C54 0.931 . S
H78 C56 0.930 . S
H79 C57 0.930 . S
Tb80 C82 2.809 . S
Tb80 O100 2.484 . S
Tb80 O101 2.440 . S
Tb80 O102 2.658 . S
Tb80 O103 2.409 . S
Tb80 O104 2.378 . S
Tb80 O108 2.325 . S
Tb80 O111 2.341 . S
Tb81 C91 2.809 . S
Tb81 O102 2.325 . S
Tb81 O105 2.341 . S
Tb81 O106 2.484 . S
Tb81 O107 2.440 . S
Tb81 O108 2.658 . S
Tb81 O109 2.409 . S
Tb81 O110 2.378 . S
C82 Tb80 2.809 . S
C82 C83 1.514 . S
C82 O100 1.248 . S
C82 O101 1.266 . S
C83 C82 1.514 . S
C83 C84 1.359 . S
C83 C88 1.348 . S
C84 C83 1.359 . S
C84 C85 1.380 . S
C84 H112 0.929 . S
C85 C84 1.380 . S
C85 C86 1.347 . S
C85 H113 0.931 . S
C86 C85 1.347 . S
C86 C87 1.369 . S
C87 C86 1.369 . S
C87 C88 1.408 . S
C87 H114 0.930 . S
C88 C83 1.348 . S
C88 C87 1.408 . S
C88 H115 0.930 . S
C89 O102 1.281 . S
C89 O103 1.254 . S
C90 O104 1.236 . S
C90 O105 1.266 . S
C91 Tb81 2.809 . S
C91 C92 1.514 . S
C91 O106 1.248 . S
C91 O107 1.266 . S
C92 C91 1.514 . S
C92 C93 1.359 . S
C92 C97 1.348 . S
C93 C92 1.359 . S
C93 C94 1.380 . S
C93 H116 0.929 . S
C94 C93 1.380 . S
C94 C95 1.347 . S
C94 H117 0.931 . S
C95 C94 1.347 . S
C95 C96 1.369 . S
C96 C95 1.369 . S
C96 C97 1.408 . S
C96 H118 0.930 . S
C97 C92 1.348 . S
C97 C96 1.408 . S
C97 H119 0.930 . S
C98 O108 1.281 . S
C98 O109 1.254 . S
C99 O110 1.236 . S
C99 O111 1.266 . S
O100 Tb80 2.484 . S
O100 C82 1.248 . S
O101 Tb80 2.440 . S
O101 C82 1.266 . S
O102 Tb80 2.658 . S
O102 Tb81 2.325 . S
O102 C89 1.281 . S
O103 Tb80 2.409 . S
O103 C89 1.254 . S
O104 Tb80 2.378 . S
O104 C90 1.236 . S
O105 Tb81 2.341 . S
O105 C90 1.266 . S
O106 Tb81 2.484 . S
O106 C91 1.248 . S
O107 Tb81 2.440 . S
O107 C91 1.266 . S
O108 Tb80 2.325 . S
O108 Tb81 2.658 . S
O108 C98 1.281 . S
O109 Tb81 2.409 . S
O109 C98 1.254 . S
O110 Tb81 2.378 . S
O110 C99 1.236 . S
O111 Tb80 2.341 . S
O111 C99 1.266 . S
H112 C84 0.929 . S
H113 C85 0.931 . S
H114 C87 0.930 . S
H115 C88 0.930 . S
H116 C93 0.929 . S
H117 C94 0.931 . S
H118 C96 0.930 . S
H119 C97 0.930 . S
H120 C121 0.949 . S
C121 H120 0.949 . S
C121 C122 1.395 . S
C121 C123 1.391 . S
C122 C121 1.395 . S
C122 C125 1.390 1_545 S
C123 C121 1.391 . S
C123 C127 1.396 . S
C123 C128 1.491 . S
H124 C125 0.950 . S
C125 C122 1.390 1_565 S
C125 H124 0.950 . S
C125 C126 1.378 . S
C126 C125 1.378 . S
C126 C127 1.400 1_565 S
C127 C123 1.396 . S
C127 C126 1.400 1_545 S
C127 H129 0.953 1_545 S
C128 C123 1.491 . S
C128 C130 1.382 . S
C128 C132 1.404 . S
H129 C127 0.953 1_565 S
C130 C128 1.382 . S
C130 C131 1.390 . S
C130 H135 0.949 . S
C131 C130 1.390 . S
C131 C136 1.399 . S
C132 C128 1.404 . S
C132 H133 0.950 . S
C132 C134 1.375 . S
H133 C132 0.950 . S
C134 C132 1.375 . S
C134 C136 1.382 . S
C134 H138 0.950 . S
H135 C130 0.949 . S
C136 C131 1.399 . S
C136 C134 1.382 . S
C136 H137 0.952 . S
H137 C136 0.952 . S
H138 C134 0.950 . S
H139 C140 0.949 . S
C140 H139 0.949 . S
C140 C141 1.395 . S
C140 C142 1.391 . S
C141 C140 1.395 . S
C141 C144 1.390 . S
C142 C140 1.391 . S
C142 C146 1.387 . S
C142 C147 1.491 . S
H143 C144 0.950 . S
C144 C141 1.390 . S
C144 H143 0.950 . S
C144 C145 1.378 . S
C145 C144 1.378 . S
C145 C146 1.409 . S
C146 C142 1.387 . S
C146 C145 1.409 . S
C146 H148 0.951 . S
C147 C142 1.491 . S
C147 C149 1.382 . S
C147 C151 1.404 . S
H148 C146 0.951 . S
C149 C147 1.382 . S
C149 C150 1.390 . S
C149 H154 0.949 . S
C150 C149 1.390 . S
C150 C155 1.399 . S
C151 C147 1.404 . S
C151 H152 0.950 . S
C151 C153 1.375 . S
H152 C151 0.950 . S
C153 C151 1.375 . S
C153 C155 1.382 . S
C153 H157 0.950 . S
H154 C149 0.949 . S
C155 C150 1.399 . S
C155 C153 1.382 . S
C155 H156 0.952 . S
H156 C155 0.952 . S
H157 C153 0.950 . S
H158 C159 0.949 . S
C159 H158 0.949 . S
C159 C160 1.395 1_456 S
C159 C161 1.391 . S
C160 C159 1.395 1_654 S
C160 C163 1.390 1_554 S
C161 C159 1.391 . S
C161 C165 1.387 1_455 S
C161 C166 1.491 . S
H162 C163 0.950 1_554 S
C163 C160 1.390 1_556 S
C163 H162 0.950 1_556 S
C163 C164 1.378 . S
C164 C163 1.378 . S
C164 C165 1.409 . S
C165 C161 1.387 1_655 S
C165 C164 1.409 . S
C165 H167 0.951 . S
C166 C161 1.491 . S
C166 C168 1.382 . S
C166 C170 1.404 . S
H167 C165 0.951 . S
C168 C166 1.382 . S
C168 C169 1.390 . S
C168 H173 0.949 . S
C169 C168 1.390 . S
C169 C174 1.399 . S
C170 C166 1.404 . S
C170 H171 0.950 . S
C170 C172 1.375 . S
H171 C170 0.950 . S
C172 C170 1.375 . S
C172 C174 1.382 . S
C172 H176 0.950 . S
H173 C168 0.949 . S
C174 C169 1.399 . S
C174 C172 1.382 . S
C174 H175 0.952 . S
H175 C174 0.952 . S
H176 C172 0.950 . S
H177 C178 0.949 1_655 S
C178 H177 0.949 1_455 S
C178 C179 1.395 . S
C178 C180 1.391 . S
C179 C178 1.395 . S
C179 C182 1.390 . S
C180 C178 1.391 . S
C180 C184 1.387 . S
C180 C185 1.491 1_455 S
H181 C182 0.950 . S
C182 C179 1.390 . S
C182 H181 0.950 . S
C182 C183 1.378 . S
C183 C182 1.378 . S
C183 C184 1.409 . S
C184 C180 1.387 . S
C184 C183 1.409 . S
C184 H186 0.951 . S
C185 C180 1.491 1_655 S
C185 C187 1.382 . S
C185 C189 1.404 . S
H186 C184 0.951 . S
C187 C185 1.382 . S
C187 C188 1.390 . S
C187 H192 0.949 . S
C188 C187 1.390 . S
C188 C193 1.399 . S
C189 C185 1.404 . S
C189 H190 0.950 . S
C189 C191 1.375 . S
H190 C189 0.950 . S
C191 C189 1.375 . S
C191 C193 1.382 . S
C191 H195 0.950 . S
H192 C187 0.949 . S
C193 C188 1.399 . S
C193 C191 1.382 . S
C193 H194 0.952 . S
H194 C193 0.952 . S
H195 C191 0.950 . S
H196 C197 0.940 1_565 S
C197 H196 0.940 1_545 S
C197 C198 1.403 . S
C197 C199 1.392 . S
C198 C197 1.403 . S
C198 C201 1.390 . S
C199 C197 1.392 . S
C199 C203 1.387 . S
C199 C204 1.491 1_545 S
H200 C201 0.950 . S
C201 C198 1.390 . S
C201 H200 0.950 . S
C201 C202 1.378 . S
C202 C201 1.378 . S
C202 C203 1.409 . S
C203 C199 1.387 . S
C203 C202 1.409 . S
C203 H205 0.951 . S
C204 C199 1.491 1_565 S
C204 C206 1.382 . S
C204 C208 1.404 . S
H205 C203 0.951 . S
C206 C204 1.382 . S
C206 C207 1.390 . S
C206 H211 0.949 . S
C207 C206 1.390 . S
C207 C212 1.399 . S
C208 C204 1.404 . S
C208 H209 0.950 . S
C208 C210 1.375 . S
H209 C208 0.950 . S
C210 C208 1.375 . S
C210 C212 1.382 . S
C210 H214 0.950 . S
H211 C206 0.949 . S
C212 C207 1.399 . S
C212 C210 1.382 . S
C212 H213 0.952 . S
H213 C212 0.952 . S
H214 C210 0.950 . S
H215 C216 0.949 . S
C216 H215 0.949 . S
C216 C217 1.395 1_554 S
C216 C218 1.391 . S
C217 C216 1.395 1_556 S
C217 C220 1.390 1_556 S
C218 C216 1.391 . S
C218 C222 1.387 . S
C218 C223 1.491 . S
H219 C220 0.955 . S
C220 C217 1.390 1_554 S
C220 H219 0.955 . S
C220 C221 1.378 . S
C221 C220 1.378 . S
C221 C222 1.409 . S
C222 C218 1.387 . S
C222 C221 1.409 . S
C222 H224 0.951 . S
C223 C218 1.491 . S
C223 C225 1.382 . S
C223 C227 1.404 . S
H224 C222 0.951 . S
C225 C223 1.382 . S
C225 C226 1.390 . S
C225 H230 0.949 . S
C226 C225 1.390 . S
C226 C231 1.399 . S
C227 C223 1.404 . S
C227 H228 0.950 . S
C227 C229 1.375 . S
H228 C227 0.950 . S
C229 C227 1.375 . S
C229 C231 1.382 . S
C229 H233 0.950 . S
H230 C225 0.949 . S
C231 C226 1.399 . S
C231 C229 1.382 . S
C231 H232 0.952 . S
H232 C231 0.952 . S
H233 C229 0.950 . S
C10 C226 4.766 . S
C59 C188 4.814 . S
C90 C207 4.777 . S
C19 C221 4.723 . S
C183 C50 4.683 . S
C202 C99 4.740 . S
C46 C150 2.531 . S
C95 C164 2.914 . S
C6 C126 2.607 . S
C145 C55 2.999 . S
C169 C86 2.421 . S
C15 C131 2.613 . S
C160 C9 1.342 1_654 S
C49 C122 0.495 . S
C89 C141 1.102 . S
C198 C58 2.013 . S
C217 C98 2.041 . S
C18 C179 2.084 . S
