# Generated by pormake.
# Topology tsx, (6,3)-cn, num edge types: 1
# Building blocks:
#     Node 0, Type 0, BuildingBlock: LEVNOQ01_clean_sbu_1, # of connection points: 6
#     Node 1, Type 0, BuildingBlock: LEVNOQ01_clean_sbu_1, # of connection points: 6
#     Node 2, Type 1, BuildingBlock: ESEHIV_clean_linker_0, # of connection points: 3
#     Node 3, Type 1, BuildingBlock: ESEHIV_clean_linker_0, # of connection points: 3
#     Node 4, Type 1, BuildingBlock: ESEHIV_clean_linker_0, # of connection points: 3
#     Node 5, Type 1, BuildingBlock: ESEHIV_clean_linker_0, # of connection points: 3
#     Edge 6, Type (0, 1), BuildingBlock: AJUNOK_clean_linker_0, # of connection points: 2
#     Edge 7, Type (0, 1), BuildingBlock: AJUNOK_clean_linker_0, # of connection points: 2
#     Edge 8, Type (0, 1), BuildingBlock: AJUNOK_clean_linker_0, # of connection points: 2
#     Edge 9, Type (0, 1), BuildingBlock: AJUNOK_clean_linker_0, # of connection points: 2
#     Edge 10, Type (0, 1), BuildingBlock: AJUNOK_clean_linker_0, # of connection points: 2
#     Edge 11, Type (0, 1), BuildingBlock: AJUNOK_clean_linker_0, # of connection points: 2
#     Edge 12, Type (0, 1), BuildingBlock: AJUNOK_clean_linker_0, # of connection points: 2
#     Edge 13, Type (0, 1), BuildingBlock: AJUNOK_clean_linker_0, # of connection points: 2
#     Edge 14, Type (0, 1), BuildingBlock: AJUNOK_clean_linker_0, # of connection points: 2
#     Edge 15, Type (0, 1), BuildingBlock: AJUNOK_clean_linker_0, # of connection points: 2
#     Edge 16, Type (0, 1), BuildingBlock: AJUNOK_clean_linker_0, # of connection points: 2
#     Edge 17, Type (0, 1), BuildingBlock: AJUNOK_clean_linker_0, # of connection points: 2
# Relax obj value: 0.131
# Max RMSD: 0.158
# Mean RMSD: 0.119
data_MOF--net-tsx--node1-LEVNOQ01_clean_sbu_1--node2-ESEHIV_clean_linker_0--edge1-AJUNOK_clean_linker_0
_symmetry_space_group_name_H-M    P1
_symmetry_Int_Tables_number       1
_symmetry_cell_setting            triclinic
loop_
_symmetry_equiv_pos_as_xyz
'x, y, z'
_cell_length_a     12.026842
_cell_length_b     14.990216
_cell_length_c     27.188981
_cell_angle_alpha  95.295849
_cell_angle_beta   96.292388
_cell_angle_gamma 90.690328
loop_
_atom_site_label
_atom_site_type_symbol
_atom_site_fract_x
_atom_site_fract_y
_atom_site_fract_z
_atom_type_partial_charge
O0 O 0.18681 0.00975 0.07437 0.0
Mg1 Mg 0.22614 0.05128 0.00608 0.0
O2 O 0.0109 0.03743 0.05252 0.0
Mg3 Mg 0.03255 0.03958 -0.03125 0.0
O4 O 0.16069 0.16815 -0.01655 0.0
O5 O 0.33319 0.15412 0.0232 0.0
O6 O 0.06391 0.04838 0.88534 0.0
O7 O 0.89635 0.14764 -0.03965 0.0
Mg8 Mg 0.86406 0.9513 0.88883 0.0
O9 O 0.89797 0.92599 -0.03993 0.0
O10 O 0.99762 0.92131 0.84645 0.0
O11 O 0.79521 0.08159 0.89283 0.0
O12 O 0.76928 0.84723 0.90754 0.0
C13 C 0.24529 0.89776 0.95545 0.0
C14 C 0.08807 0.01865 0.08563 0.0
C15 C 0.25789 0.20275 0.00232 0.0
C16 C 0.05979 -0.00989 0.84794 0.0
C17 C 0.81474 0.14757 0.92584 0.0
C18 C 0.82138 0.86326 0.95156 0.0
O19 O 0.31041 0.96469 -0.04052 0.0
O20 O 0.14565 0.90933 -0.03393 0.0
O21 O 0.64104 0.47312 0.5874 0.0
Mg22 Mg 0.71077 0.51418 0.52519 0.0
O23 O 0.48081 0.50736 0.54824 0.0
Mg24 Mg 0.52982 0.51199 0.46771 0.0
O25 O 0.66889 0.63037 0.49108 0.0
O26 O 0.81033 0.61808 0.55146 0.0
O27 O 0.57616 0.52597 0.38661 0.0
O28 O 0.40038 0.62549 0.45668 0.0
Mg29 Mg 0.36647 0.43314 0.37999 0.0
O30 O 0.39 0.40424 0.45075 0.0
O31 O 0.50816 0.40372 0.34279 0.0
O32 O 0.30556 0.56579 0.38583 0.0
O33 O 0.26331 0.33089 0.39542 0.0
C34 C 0.74656 0.36644 0.46776 0.0
C35 C 0.53751 0.48489 0.58718 0.0
C36 C 0.7572 0.66418 0.51923 0.0
C37 C 0.57248 0.47186 0.34736 0.0
C38 C 0.32402 0.62977 0.42017 0.0
C39 C 0.31112 0.3438 0.44039 0.0
O40 O 0.8133 0.42633 0.48918 0.0
O41 O 0.6418 0.38059 0.46413 0.0
H42 H 0.89873 0.10489 0.29316 0.0
H43 H 0.10034 0.87142 0.29669 0.0
H44 H 0.98931 -0.00919 0.43178 0.0
C45 C 0.93948 0.05382 0.314 0.0
C46 C 0.93784 0.05758 0.36585 0.0
C47 C 0.99997 -0.01185 0.28927 0.0
C48 C 0.05281 0.92213 0.31584 0.0
C49 C 0.04867 0.92266 0.3671 0.0
C50 C 0.9909 -0.00978 0.39217 0.0
H51 H 0.96298 0.9449 0.63746 0.0
H52 H 0.19432 0.16829 0.64419 0.0
H53 H 0.0067 0.06921 0.50529 0.0
C54 C 1.00144 -0.00287 0.61947 0.0
C55 C 0.97453 0.00121 0.56845 0.0
C56 C 0.08165 0.05603 0.64696 0.0
C57 C 0.13261 0.12234 0.62314 0.0
C58 C 0.10514 0.12776 0.57181 0.0
C59 C 0.02533 0.06725 0.54491 0.0
H60 H 0.34853 0.60618 0.80142 0.0
H61 H 0.57238 0.38417 0.79658 0.0
H62 H 0.50619 0.51536 0.93687 0.0
C63 C 0.40374 0.56018 0.82003 0.0
C64 C 0.42142 0.56845 0.87216 0.0
C65 C 0.4606 0.49581 0.79208 0.0
C66 C 0.52844 0.43515 0.81728 0.0
C67 C 0.54275 0.44055 0.86934 0.0
C68 C 0.49226 0.50917 0.89676 0.0
H69 H 0.44402 0.47057 0.1383 0.0
H70 H 0.70287 0.675 0.15135 0.0
H71 H 0.50183 0.60783 0.01153 0.0
C72 C 0.48748 0.52266 0.12222 0.0
C73 C 0.46052 0.53502 0.07191 0.0
C74 C 0.57533 0.57211 0.15106 0.0
C75 C 0.6337 0.63751 0.12968 0.0
C76 C 0.60599 0.65115 0.07942 0.0
C77 C 0.51954 0.59995 0.05077 0.0
C78 C 0.392 0.322 -0.00874 0.0
C79 C 0.28545 0.29869 0.00327 0.0
C80 C 0.4432 0.40444 0.0092 0.0
C81 C 0.38993 0.46615 0.04027 0.0
H82 H 0.44084 0.27242 -0.02775 0.0
H83 H 0.52958 0.41577 0.00307 0.0
S84 S 0.10468 0.44217 0.0775 0.0
N85 N 0.12295 0.34754 0.04331 0.0
N86 N 0.22036 0.50313 0.07799 0.0
C87 C 0.27936 0.44726 0.04893 0.0
C88 C 0.22646 0.36331 0.02997 0.0
C89 C 0.40176 0.79336 0.94413 0.0
C90 C 0.28585 0.80825 0.93944 0.0
C91 C 0.44467 0.71271 0.92505 0.0
C92 C 0.37313 0.64466 0.90002 0.0
H93 H 0.46016 0.84539 -0.03843 0.0
H94 H 0.53462 0.70525 0.92781 0.0
S95 S 0.06361 0.6468 0.88039 0.0
N96 N 0.10004 0.74548 0.91044 0.0
N97 N 0.1816 0.594 0.8738 0.0
C98 C 0.25713 0.65678 0.89671 0.0
C99 C 0.21314 0.73857 0.91671 0.0
C100 C 0.69068 0.84929 0.01472 0.0
C101 C 0.7834 0.81672 -0.00807 0.0
C102 C 0.6366 0.79711 0.04556 0.0
C103 C 0.67441 0.71128 0.05455 0.0
H104 H 0.65629 0.91345 0.00654 0.0
H105 H 0.562 0.8222 0.06062 0.0
S106 S 0.9147 0.59685 0.00431 0.0
N107 N 0.91184 0.69489 -0.019 0.0
N108 N 0.81081 0.59674 0.03938 0.0
C109 C 0.76934 0.67944 0.0334 0.0
C110 C 0.82388 0.73234 0.00188 0.0
C111 C 0.78127 0.31341 0.93145 0.0
C112 C 0.73963 0.22453 0.9222 0.0
C113 C 0.71454 0.38534 0.91731 0.0
C114 C 0.60499 0.36973 0.8938 0.0
H115 H 0.86758 0.32689 0.9466 0.0
H116 H 0.75068 0.45255 0.9221 0.0
S117 S 0.45109 0.15203 0.86972 0.0
N118 N 0.57684 0.12711 0.89479 0.0
N119 N 0.45379 0.26168 0.86737 0.0
C120 C 0.56027 0.28234 0.88795 0.0
C121 C 0.62701 0.2098 0.90253 0.0
C122 C 0.74236 0.8315 0.52251 0.0
C123 C 0.8047 0.75372 0.51441 0.0
C124 C 0.79691 0.91559 0.53545 0.0
C125 C 0.91446 0.92353 0.53967 0.0
H126 H 0.65274 0.8262 0.52355 0.0
H127 H 0.74792 0.97307 0.54587 0.0
S128 S 0.11304 0.74104 0.51949 0.0
N129 N 0.98855 0.69137 0.50826 0.0
N130 N 0.08973 0.84849 0.53215 0.0
C131 C 0.97598 0.84759 0.52748 0.0
C132 C 0.92125 0.76277 0.51483 0.0
C133 C 0.76378 0.19988 0.45112 0.0
C134 C 0.79131 0.28732 0.44117 0.0
C135 C 0.8128 0.12529 0.42732 0.0
C136 C 0.88895 0.13625 0.39232 0.0
H137 H 0.70586 0.1893 0.47797 0.0
H138 H 0.7901 0.05876 0.4359 0.0
S139 S 0.98527 0.35257 0.35315 0.0
N140 N 0.8967 0.38105 0.39385 0.0
N141 N 0.99009 0.24221 0.34986 0.0
C142 C 0.91632 0.22385 0.38228 0.0
C143 C 0.86693 0.29905 0.40646 0.0
C144 C 0.14823 0.2961 0.48023 0.0
C145 C 0.2647 0.29813 0.47943 0.0
C146 C 0.09792 0.24447 0.51222 0.0
C147 C 0.16247 0.19269 0.54466 0.0
H148 H 0.09543 0.33385 0.45531 0.0
H149 H 0.00747 0.24302 0.51057 0.0
S150 S 0.47193 0.17726 0.55777 0.0
N151 N 0.44425 0.2475 0.51484 0.0
N152 N 0.34984 0.1484 0.57494 0.0
C153 C 0.27983 0.19701 0.54574 0.0
C154 C 0.33107 0.25039 0.51314 0.0
C155 C 0.1412 0.69214 0.39134 0.0
C156 C 0.24944 0.70731 0.41667 0.0
C157 C 0.0722 0.76299 0.37965 0.0
C158 C 0.10823 0.85196 0.39292 0.0
H159 H 0.11072 0.62471 0.37862 0.0
H160 H 0.99254 0.74823 0.35743 0.0
S161 S 0.37667 0.92893 0.46541 0.0
N162 N 0.38456 0.81844 0.45931 0.0
N163 N 0.25341 0.9526 0.43696 0.0
C164 C 0.21232 0.8687 0.4215 0.0
C165 C 0.28342 0.79604 0.4335 0.0
C166 C 0.95527 -0.00018 0.14944 0.0
C167 C 0.06551 0.01067 0.13757 0.0
C168 C 0.93365 -0.0074 0.1987 0.0
C169 C 0.02163 -0.00452 0.23739 0.0
H170 H 0.88537 -0.00365 0.12054 0.0
H171 H 0.848 0.9839 0.20655 0.0
S172 S 0.32341 0.03057 0.22725 0.0
N173 N 0.26276 0.02912 0.16973 0.0
N174 N 0.22123 0.01516 0.26161 0.0
C175 C 0.13151 0.00776 0.22626 0.0
C176 C 0.1537 0.01535 0.1765 0.0
C177 C 0.08725 0.09934 0.78617 0.0
C178 C 0.10043 0.01225 0.80116 0.0
C179 C 0.0917 0.11566 0.73636 0.0
C180 C 0.11044 0.0455 0.70044 0.0
H181 H 0.06336 0.15338 0.81191 0.0
H182 H 0.07122 0.18159 0.72522 0.0
S183 S 0.17808 0.81121 0.72356 0.0
N184 N 0.15242 0.85919 0.77821 0.0
N185 N 0.16336 0.89024 0.68497 0.0
C186 C 0.13702 0.96089 0.71631 0.0
C187 C 0.13134 0.94413 0.76667 0.0
C188 C 0.4735 0.40961 0.65699 0.0
C189 C 0.49009 0.48861 0.63467 0.0
C190 C 0.45539 0.41276 0.70718 0.0
C191 C 0.45681 0.49501 0.73707 0.0
H192 H 0.47955 0.34503 0.63615 0.0
H193 H 0.44538 0.35004 0.72323 0.0
S194 S 0.49417 0.72091 0.69427 0.0
N195 N 0.50068 0.65087 0.64417 0.0
N196 N 0.47301 0.65773 0.73913 0.0
C197 C 0.46849 0.57472 0.71411 0.0
C198 C 0.4841 0.5712 0.66275 0.0
C199 C 0.60064 0.59141 0.29149 0.0
C200 C 0.61087 0.50106 0.30144 0.0
C201 C 0.59858 0.61596 0.24276 0.0
C202 C 0.60723 0.55093 0.20278 0.0
H203 H 0.58376 0.64216 0.32059 0.0
H204 H 0.58126 0.68474 0.23586 0.0
S205 S 0.66269 0.30971 0.21101 0.0
N206 N 0.64957 0.34965 0.26872 0.0
N207 N 0.64663 0.3959 0.17737 0.0
C208 C 0.63031 0.46248 0.21314 0.0
C209 C 0.63213 0.43753 0.2625 0.0
loop_
_geom_bond_atom_site_label_1
_geom_bond_atom_site_label_2
_geom_bond_distance
_geom_bond_site_symmetry_2
_ccdc_geom_bond_type
O0 Mg1 1.990 . S
O0 C14 1.253 . S
Mg1 O0 1.990 . S
Mg1 O4 2.180 . S
Mg1 O5 2.117 . S
Mg1 O19 2.030 1_545 S
O2 Mg3 2.063 1_554 S
O2 C14 1.260 . S
Mg3 O2 2.063 1_556 S
Mg3 O4 2.098 1_556 S
Mg3 O6 2.088 . S
Mg3 O7 2.072 1_456 S
Mg3 O9 2.100 1_445 S
Mg3 O20 2.079 1_545 S
O4 Mg1 2.180 . S
O4 Mg3 2.098 1_554 S
O4 C15 1.279 . S
O5 Mg1 2.117 . S
O5 C15 1.250 . S
O6 Mg3 2.088 . S
O6 C16 1.264 . S
O7 Mg3 2.072 1_654 S
O7 C17 1.260 1_554 S
Mg8 O9 2.180 . S
Mg8 O10 2.030 1_565 S
Mg8 O11 1.990 1_565 S
Mg8 O12 2.117 . S
O9 Mg3 2.100 1_665 S
O9 Mg8 2.180 . S
O9 C18 1.279 1_556 S
O10 Mg8 2.030 1_545 S
O10 C16 1.248 1_655 S
O11 Mg8 1.990 1_545 S
O11 C17 1.253 . S
O12 Mg8 2.117 . S
O12 C18 1.250 1_556 S
C13 O19 1.248 . S
C13 O20 1.264 1_554 S
C14 O0 1.253 . S
C14 O2 1.260 . S
C15 O4 1.279 . S
C15 O5 1.250 . S
C16 O6 1.264 . S
C16 O10 1.248 1_455 S
C17 O7 1.260 1_556 S
C17 O11 1.253 . S
C18 O9 1.279 1_554 S
C18 O12 1.250 1_554 S
O19 Mg1 2.030 1_565 S
O19 C13 1.248 . S
O20 Mg3 2.079 1_565 S
O20 C13 1.264 1_556 S
O21 Mg22 1.990 . S
O21 C35 1.253 . S
Mg22 O21 1.990 . S
Mg22 O25 2.180 . S
Mg22 O26 2.117 . S
Mg22 O40 2.030 . S
O23 Mg24 2.072 . S
O23 C35 1.260 . S
Mg24 O23 2.072 . S
Mg24 O25 2.099 . S
Mg24 O27 2.079 . S
Mg24 O28 2.072 . S
Mg24 O30 2.099 . S
Mg24 O41 2.079 . S
O25 Mg22 2.180 . S
O25 Mg24 2.099 . S
O25 C36 1.279 . S
O26 Mg22 2.117 . S
O26 C36 1.250 . S
O27 Mg24 2.079 . S
O27 C37 1.264 . S
O28 Mg24 2.072 . S
O28 C38 1.260 . S
Mg29 O30 2.180 . S
Mg29 O31 2.030 . S
Mg29 O32 1.990 . S
Mg29 O33 2.117 . S
O30 Mg24 2.099 . S
O30 Mg29 2.180 . S
O30 C39 1.279 . S
O31 Mg29 2.030 . S
O31 C37 1.248 . S
O32 Mg29 1.990 . S
O32 C38 1.253 . S
O33 Mg29 2.117 . S
O33 C39 1.250 . S
C34 O40 1.248 . S
C34 O41 1.264 . S
C35 O21 1.253 . S
C35 O23 1.260 . S
C36 O25 1.279 . S
C36 O26 1.250 . S
C37 O27 1.264 . S
C37 O31 1.248 . S
C38 O28 1.260 . S
C38 O32 1.253 . S
C39 O30 1.279 . S
C39 O33 1.250 . S
O40 Mg22 2.030 . S
O40 C34 1.248 . S
O41 Mg24 2.079 . S
O41 C34 1.264 . S
H42 C45 0.931 . S
H43 C48 0.928 . S
H44 C50 0.930 . S
C45 H42 0.931 . S
C45 C46 1.413 . S
C45 C47 1.360 1_645 S
C46 C45 1.413 . S
C46 C50 1.429 1_655 S
C47 C45 1.360 1_465 S
C47 C48 1.372 . S
C48 H43 0.928 . S
C48 C47 1.372 . S
C48 C49 1.404 . S
C49 C48 1.404 . S
C49 C50 1.391 1_565 S
C50 H44 0.930 . S
C50 C46 1.429 1_455 S
C50 C49 1.391 1_545 S
H51 C54 0.931 1_565 S
H52 C57 0.928 . S
H53 C59 0.930 . S
C54 H51 0.931 1_545 S
C54 C55 1.413 . S
C54 C56 1.360 1_655 S
C55 C54 1.413 . S
C55 C59 1.429 . S
C56 C54 1.360 1_455 S
C56 C57 1.372 . S
C57 H52 0.928 . S
C57 C56 1.372 . S
C57 C58 1.404 . S
C58 C57 1.404 . S
C58 C59 1.391 1_455 S
C59 H53 0.930 . S
C59 C55 1.429 . S
C59 C58 1.391 1_655 S
H60 C63 0.931 . S
H61 C66 0.928 . S
H62 C68 0.930 1_554 S
C63 H60 0.931 . S
C63 C64 1.413 . S
C63 C65 1.360 . S
C64 C63 1.413 . S
C64 C68 1.429 . S
C65 C63 1.360 . S
C65 C66 1.372 . S
C66 H61 0.928 . S
C66 C65 1.372 . S
C66 C67 1.404 . S
C67 C66 1.404 . S
C67 C68 1.391 . S
C68 H62 0.930 1_556 S
C68 C64 1.429 . S
C68 C67 1.391 . S
H69 C72 0.931 . S
H70 C75 0.928 . S
H71 C77 0.930 . S
C72 H69 0.931 . S
C72 C73 1.413 . S
C72 C74 1.360 . S
C73 C72 1.413 . S
C73 C77 1.429 . S
C74 C72 1.360 . S
C74 C75 1.372 . S
C75 H70 0.928 . S
C75 C74 1.372 . S
C75 C76 1.404 . S
C76 C75 1.404 . S
C76 C77 1.391 . S
C77 H71 0.930 . S
C77 C73 1.429 . S
C77 C76 1.391 . S
C78 C79 1.369 . S
C78 C80 1.419 . S
C78 H82 0.930 . S
C79 C78 1.369 . S
C79 C88 1.429 . S
C80 C78 1.419 . S
C80 C81 1.363 . S
C80 H83 0.929 . S
C81 C80 1.363 . S
C81 C87 1.428 . S
H82 C78 0.930 . S
H83 C80 0.929 . S
S84 N85 1.613 . S
S84 N86 1.610 1_556 S
N85 S84 1.613 . S
N85 C88 1.350 1_556 S
N86 S84 1.610 1_554 S
N86 C87 1.351 . S
C87 C81 1.428 . S
C87 N86 1.351 . S
C87 C88 1.434 . S
C88 C79 1.429 . S
C88 N85 1.350 1_554 S
C88 C87 1.434 . S
C89 C90 1.366 1_556 S
C89 C91 1.419 . S
C89 H93 0.930 . S
C90 C89 1.366 1_554 S
C90 C99 1.430 1_554 S
C91 C89 1.419 . S
C91 C92 1.363 . S
C91 H94 0.929 . S
C92 C91 1.363 . S
C92 C98 1.428 . S
H93 C89 0.930 . S
H94 C91 0.929 . S
S95 N96 1.613 . S
S95 N97 1.610 1_554 S
N96 S95 1.613 . S
N96 C99 1.350 1_554 S
N97 S95 1.610 1_556 S
N97 C98 1.351 . S
C98 C92 1.428 . S
C98 N97 1.351 . S
C98 C99 1.434 . S
C99 C90 1.430 1_556 S
C99 N96 1.350 1_556 S
C99 C98 1.434 . S
C100 C101 1.369 . S
C100 C102 1.419 . S
C100 H104 0.930 . S
C101 C100 1.369 . S
C101 C110 1.429 . S
C102 C100 1.419 . S
C102 C103 1.363 . S
C102 H105 0.929 . S
C103 C102 1.363 . S
C103 C109 1.428 . S
H104 C100 0.930 . S
H105 C102 0.929 . S
S106 N107 1.613 . S
S106 N108 1.610 . S
N107 S106 1.613 . S
N107 C110 1.350 . S
N108 S106 1.610 . S
N108 C109 1.351 . S
C109 C103 1.428 . S
C109 N108 1.351 . S
C109 C110 1.434 . S
C110 C101 1.429 . S
C110 N107 1.350 . S
C110 C109 1.434 . S
C111 C112 1.369 . S
C111 C113 1.419 . S
C111 H115 0.930 . S
C112 C111 1.369 . S
C112 C121 1.429 . S
C113 C111 1.419 . S
C113 C114 1.363 . S
C113 H116 0.929 . S
C114 C113 1.363 . S
C114 C120 1.428 . S
H115 C111 0.930 . S
H116 C113 0.929 . S
S117 N118 1.613 . S
S117 N119 1.610 1_554 S
N118 S117 1.613 . S
N118 C121 1.349 1_554 S
N119 S117 1.610 1_556 S
N119 C120 1.351 . S
C120 C114 1.428 . S
C120 N119 1.351 . S
C120 C121 1.435 . S
C121 C112 1.429 . S
C121 N118 1.349 1_556 S
C121 C120 1.435 . S
C122 C123 1.369 . S
C122 C124 1.419 . S
C122 H126 0.930 . S
C123 C122 1.369 . S
C123 C132 1.429 . S
C124 C122 1.419 . S
C124 C125 1.363 . S
C124 H127 0.929 . S
C125 C124 1.363 . S
C125 C131 1.428 . S
H126 C122 0.930 . S
H127 C124 0.929 . S
S128 N129 1.613 . S
S128 N130 1.610 . S
N129 S128 1.613 . S
N129 C132 1.350 . S
N130 S128 1.610 . S
N130 C131 1.351 . S
C131 C125 1.428 . S
C131 N130 1.351 . S
C131 C132 1.434 . S
C132 C123 1.429 . S
C132 N129 1.350 . S
C132 C131 1.434 . S
C133 C134 1.369 . S
C133 C135 1.419 . S
C133 H137 0.930 . S
C134 C133 1.369 . S
C134 C143 1.429 . S
C135 C133 1.419 . S
C135 C136 1.363 . S
C135 H138 0.929 . S
C136 C135 1.363 . S
C136 C142 1.428 . S
H137 C133 0.930 . S
H138 C135 0.929 . S
S139 N140 1.613 . S
S139 N141 1.610 . S
N140 S139 1.613 . S
N140 C143 1.350 . S
N141 S139 1.610 . S
N141 C142 1.351 . S
C142 C136 1.428 . S
C142 N141 1.351 . S
C142 C143 1.434 . S
C143 C134 1.429 . S
C143 N140 1.350 . S
C143 C142 1.434 . S
C144 C145 1.369 . S
C144 C146 1.419 . S
C144 H148 0.930 . S
C145 C144 1.369 . S
C145 C154 1.429 . S
C146 C144 1.419 . S
C146 C147 1.363 . S
C146 H149 0.929 . S
C147 C146 1.363 . S
C147 C153 1.428 . S
H148 C144 0.930 . S
H149 C146 0.929 . S
S150 N151 1.613 . S
S150 N152 1.610 . S
N151 S150 1.613 . S
N151 C154 1.350 . S
N152 S150 1.610 . S
N152 C153 1.351 . S
C153 C147 1.428 . S
C153 N152 1.351 . S
C153 C154 1.434 . S
C154 C145 1.429 . S
C154 N151 1.350 . S
C154 C153 1.434 . S
C155 C156 1.369 . S
C155 C157 1.419 . S
C155 H159 0.930 . S
C156 C155 1.369 . S
C156 C165 1.429 . S
C157 C155 1.419 . S
C157 C158 1.363 . S
C157 H160 0.929 . S
C158 C157 1.363 . S
C158 C164 1.428 . S
H159 C155 0.930 . S
H160 C157 0.929 . S
S161 N162 1.613 . S
S161 N163 1.610 . S
N162 S161 1.613 . S
N162 C165 1.350 . S
N163 S161 1.610 . S
N163 C164 1.351 . S
C164 C158 1.428 . S
C164 N163 1.351 . S
C164 C165 1.434 . S
C165 C156 1.429 . S
C165 N162 1.350 . S
C165 C164 1.434 . S
C166 C167 1.369 1_665 S
C166 C168 1.419 . S
C166 H170 0.930 . S
C167 C166 1.369 1_445 S
C167 C176 1.429 . S
C168 C166 1.419 . S
C168 C169 1.363 1_655 S
C168 H171 0.929 . S
C169 C168 1.363 1_455 S
C169 C175 1.428 1_565 S
H170 C166 0.930 . S
H171 C168 0.929 . S
S172 N173 1.613 . S
S172 N174 1.610 . S
N173 S172 1.613 . S
N173 C176 1.350 . S
N174 S172 1.610 . S
N174 C175 1.351 . S
C175 C169 1.428 1_545 S
C175 N174 1.351 . S
C175 C176 1.434 . S
C176 C167 1.429 . S
C176 N173 1.350 . S
C176 C175 1.434 . S
C177 C178 1.369 . S
C177 C179 1.419 . S
C177 H181 0.930 . S
C178 C177 1.369 . S
C178 C187 1.429 1_445 S
C179 C177 1.419 . S
C179 C180 1.363 . S
C179 H182 0.929 . S
C180 C179 1.363 . S
C180 C186 1.428 1_445 S
H181 C177 0.930 . S
H182 C179 0.929 . S
S183 N184 1.613 . S
S183 N185 1.610 . S
N184 S183 1.613 . S
N184 C187 1.350 . S
N185 S183 1.610 . S
N185 C186 1.351 . S
C186 C180 1.428 1_665 S
C186 N185 1.351 . S
C186 C187 1.434 . S
C187 C178 1.429 1_665 S
C187 N184 1.350 . S
C187 C186 1.434 . S
C188 C189 1.369 . S
C188 C190 1.419 . S
C188 H192 0.930 . S
C189 C188 1.369 . S
C189 C198 1.429 . S
C190 C188 1.419 . S
C190 C191 1.363 . S
C190 H193 0.929 . S
C191 C190 1.363 . S
C191 C197 1.428 . S
H192 C188 0.930 . S
H193 C190 0.929 . S
S194 N195 1.613 . S
S194 N196 1.610 . S
N195 S194 1.613 . S
N195 C198 1.350 . S
N196 S194 1.610 . S
N196 C197 1.351 . S
C197 C191 1.428 . S
C197 N196 1.351 . S
C197 C198 1.434 . S
C198 C189 1.429 . S
C198 N195 1.350 . S
C198 C197 1.434 . S
C199 C200 1.369 . S
C199 C201 1.419 . S
C199 H203 0.930 . S
C200 C199 1.369 . S
C200 C209 1.429 . S
C201 C199 1.419 . S
C201 C202 1.363 . S
C201 H204 0.929 . S
C202 C201 1.363 . S
C202 C208 1.428 . S
H203 C199 0.930 . S
H204 C201 0.929 . S
S205 N206 1.613 . S
S205 N207 1.610 . S
N206 S205 1.613 . S
N206 C209 1.350 . S
N207 S205 1.610 . S
N207 C208 1.351 . S
C208 C202 1.428 . S
C208 N207 1.351 . S
C208 C209 1.434 . S
C209 C200 1.429 . S
C209 N206 1.350 . S
C209 C208 1.434 . S
C81 C73 1.432 . S
C79 C15 1.254 . S
C90 C13 1.480 . S
C92 C64 1.478 . S
C101 C18 1.289 . S
C103 C76 1.452 . S
C112 C17 1.343 . S
C114 C67 1.421 . S
C123 C36 1.236 . S
C125 C55 1.428 1_565 S
C134 C34 1.477 . S
C136 C46 1.475 . S
C147 C58 1.451 . S
C145 C39 1.293 . S
C158 C49 1.422 . S
C156 C38 1.347 . S
C167 C14 1.493 . S
C169 C47 1.549 . S
C178 C16 1.385 . S
C180 C56 1.439 . S
C191 C65 1.549 . S
C189 C35 1.492 . S
C200 C37 1.386 . S
C202 C74 1.439 . S
