# Generated by pormake.
# Topology zzz, (3,6)-cn, num edge types: 1
# Building blocks:
#     Node 0, Type 0, BuildingBlock: ESEHIV_clean_linker_0, # of connection points: 3
#     Node 1, Type 0, BuildingBlock: ESEHIV_clean_linker_0, # of connection points: 3
#     Node 2, Type 0, BuildingBlock: ESEHIV_clean_linker_0, # of connection points: 3
#     Node 3, Type 0, BuildingBlock: ESEHIV_clean_linker_0, # of connection points: 3
#     Node 4, Type 0, BuildingBlock: ESEHIV_clean_linker_0, # of connection points: 3
#     Node 5, Type 0, BuildingBlock: ESEHIV_clean_linker_0, # of connection points: 3
#     Node 6, Type 0, BuildingBlock: ESEHIV_clean_linker_0, # of connection points: 3
#     Node 7, Type 0, BuildingBlock: ESEHIV_clean_linker_0, # of connection points: 3
#     Node 8, Type 1, BuildingBlock: BETDEL_clean_sbu_0, # of connection points: 6
#     Node 9, Type 1, BuildingBlock: BETDEL_clean_sbu_0, # of connection points: 6
#     Node 10, Type 1, BuildingBlock: BETDEL_clean_sbu_0, # of connection points: 6
#     Node 11, Type 1, BuildingBlock: BETDEL_clean_sbu_0, # of connection points: 6
#     Edge 12, Type (0, 1), None
#     Edge 13, Type (0, 1), None
#     Edge 14, Type (0, 1), None
#     Edge 15, Type (0, 1), None
#     Edge 16, Type (0, 1), None
#     Edge 17, Type (0, 1), None
#     Edge 18, Type (0, 1), None
#     Edge 19, Type (0, 1), None
#     Edge 20, Type (0, 1), None
#     Edge 21, Type (0, 1), None
#     Edge 22, Type (0, 1), None
#     Edge 23, Type (0, 1), None
#     Edge 24, Type (0, 1), None
#     Edge 25, Type (0, 1), None
#     Edge 26, Type (0, 1), None
#     Edge 27, Type (0, 1), None
#     Edge 28, Type (0, 1), None
#     Edge 29, Type (0, 1), None
#     Edge 30, Type (0, 1), None
#     Edge 31, Type (0, 1), None
#     Edge 32, Type (0, 1), None
#     Edge 33, Type (0, 1), None
#     Edge 34, Type (0, 1), None
#     Edge 35, Type (0, 1), None
# Relax obj value: 0.470
# Max RMSD: 0.272
# Mean RMSD: 0.226
data_MOF--net-zzz--node1-BETDEL_clean_sbu_0--node2-ESEHIV_clean_linker_0--edge1-none
_symmetry_space_group_name_H-M    P1
_symmetry_Int_Tables_number       1
_symmetry_cell_setting            triclinic
loop_
_symmetry_equiv_pos_as_xyz
'x, y, z'
_cell_length_a     16.708464
_cell_length_b     16.968347
_cell_length_c     6.7333196
_cell_angle_alpha  89.823956
_cell_angle_beta   87.384915
_cell_angle_gamma 84.450913
loop_
_atom_site_label
_atom_site_type_symbol
_atom_site_fract_x
_atom_site_fract_y
_atom_site_fract_z
_atom_type_partial_charge
H0 H 0.89485 0.44654 0.26371 0.0
H1 H 0.74863 0.46543 0.76789 0.0
H2 H 0.71581 0.64516 0.22497 0.0
C3 C 0.84435 0.47662 0.19246 0.0
C4 C 0.81441 0.55131 0.26074 0.0
C5 C 0.82976 0.45341 0.0025 0.0
C6 C 0.76257 0.48827 0.91142 0.0
C7 C 0.71471 0.55333 -0.00645 0.0
C8 C 0.74521 0.59026 0.1653 0.0
H9 H 0.13508 0.85658 0.31411 0.0
H10 H 0.10391 0.73953 0.77271 0.0
H11 H 0.90771 0.76951 0.21043 0.0
C12 C 0.0971 0.82597 0.22309 0.0
C13 C 1.01474 0.82911 0.27082 0.0
C14 C 0.12409 0.80896 0.02878 0.0
C15 C 0.08122 0.75788 0.92007 0.0
C16 C 1.00761 0.73338 -0.00345 0.0
C17 C 0.96955 0.77654 0.16463 0.0
H18 H 0.70493 0.84579 0.09321 0.0
H19 H 0.79633 0.95703 0.70744 0.0
H20 H 0.82622 1.00938 0.32649 0.0
C21 C 0.692 0.90954 0.10372 0.0
C22 C 0.7249 0.94277 0.26465 0.0
C23 C 0.70294 0.95181 0.92852 0.0
C24 C 0.7824 0.94862 0.86471 0.0
C25 C 0.83407 0.97146 0.00739 0.0
C26 C 0.80042 0.9765 0.21391 0.0
H27 H 0.48187 0.61047 0.07702 0.0
H28 H 0.57778 0.82094 0.23185 0.0
H29 H 0.37908 0.82504 0.84242 0.0
C30 C 0.47213 0.67367 0.09167 0.0
C31 C 0.4106 0.71572 -0.01038 0.0
C32 C 0.52444 0.7107 0.20562 0.0
C33 C 0.53326 0.79068 0.15998 0.0
C34 C 0.48721 0.82696 0.00472 0.0
C35 C 0.41849 0.79432 0.94762 0.0
H36 H 0.1417 0.61739 0.00021 0.0
H37 H 0.28797 0.59863 0.49593 0.0
H38 H 0.3207 0.41875 0.0392 0.0
C39 C 0.19221 0.58733 0.07148 0.0
C40 C 0.22214 0.51262 0.00327 0.0
C41 C 0.20681 0.61057 0.2614 0.0
C42 C 0.27402 0.57575 0.35246 0.0
C43 C 0.32183 0.51063 0.27047 0.0
C44 C 0.29131 0.47367 0.09878 0.0
H45 H 0.90149 0.20743 0.94965 0.0
H46 H 0.93267 0.32438 0.49116 0.0
H47 H 0.12889 0.29441 0.05349 0.0
C48 C 0.9395 0.23796 0.04075 0.0
C49 C 0.02187 0.23482 -0.00698 0.0
C50 C 0.9125 0.25497 0.23506 0.0
C51 C 0.95537 0.30603 0.34381 0.0
C52 C 0.02898 0.33053 0.26735 0.0
C53 C 0.06705 0.28738 0.09927 0.0
H54 H 0.33182 0.21811 0.17019 0.0
H55 H 0.24046 0.10692 0.55612 0.0
H56 H 0.21056 0.05441 0.93716 0.0
C57 C 0.34477 0.15436 0.15974 0.0
C58 C 0.31187 0.12109 -0.00115 0.0
C59 C 0.33385 0.1121 0.33499 0.0
C60 C 0.25439 0.11529 0.39883 0.0
C61 C 0.20274 0.09238 0.2562 0.0
C62 C 0.23637 0.08733 0.04967 0.0
H63 H 0.55457 0.45357 0.187 0.0
H64 H 0.45897 0.24295 0.03172 0.0
H65 H 0.65762 0.23901 0.42127 0.0
C66 C 0.56434 0.39036 0.17239 0.0
C67 C 0.62593 0.34835 0.27432 0.0
C68 C 0.51209 0.35329 0.05834 0.0
C69 C 0.50342 0.27326 0.10372 0.0
C70 C 0.54952 0.23699 0.2589 0.0
C71 C 0.61817 0.26971 0.31612 0.0
Dy72 Dy 0.07685 0.98733 0.70813 0.0
C73 C 0.87474 0.19051 0.34025 0.0
C74 C 0.16178 0.87345 0.92357 0.0
Dy75 Dy 0.95974 0.07663 0.55561 0.0
O76 O 0.15932 0.87536 0.73205 0.0
O77 O 0.13582 0.94434 -0.01565 0.0
O78 O 0.15075 0.98187 0.41682 0.0
O79 O 0.08883 0.08618 0.48979 0.0
C80 C 0.13384 0.05256 0.35106 0.0
C81 C 0.90303 1.01123 0.91262 0.0
O82 O 0.97003 0.96825 0.3465 0.0
O83 O 1.01015 0.88895 0.59389 0.0
O84 O 0.87721 0.18857 0.53177 0.0
O85 O 0.90067 0.11961 0.27948 0.0
O86 O 0.88623 0.08202 0.84747 0.0
O87 O 0.94778 0.9777 0.77327 0.0
O88 O 0.06661 0.09569 0.91729 0.0
O89 O 0.02647 0.17499 0.66991 0.0
C90 C 0.98401 0.89474 0.41368 0.0
C91 C 0.0526 0.1692 0.85012 0.0
Dy92 Dy 0.50359 0.02694 0.55768 0.0
C93 C 0.66121 0.03339 0.92955 0.0
C94 C 0.37558 0.03053 0.33396 0.0
Dy95 Dy 0.5332 0.03695 0.70583 0.0
O96 O 0.44879 0.0281 0.26542 0.0
O97 O 0.37839 0.99524 0.50262 0.0
O98 O 0.63123 0.04816 0.41654 0.0
O99 O 0.60531 0.94091 0.50442 0.0
C100 C 0.66133 0.97564 0.41831 0.0
C101 C 0.37545 0.08822 0.84522 0.0
O102 O 0.54126 0.16238 0.57016 0.0
O103 O 0.50787 0.10763 0.30099 0.0
O104 O 0.588 0.03581 -0.00192 0.0
O105 O 0.65839 0.06866 0.76088 0.0
O106 O 0.40557 1.01571 0.84701 0.0
O107 O 0.43145 0.12296 0.75905 0.0
O108 O 0.49553 0.90151 0.6934 0.0
O109 O 0.52893 0.95627 0.96253 0.0
C110 C 0.5256 0.17117 0.38031 0.0
C111 C 0.5112 0.89273 0.88324 0.0
Dy112 Dy 0.47474 0.56859 0.67552 0.0
C113 C 0.67305 0.39264 0.40311 0.0
C114 C 0.3634 0.67146 0.86091 0.0
Dy115 Dy 0.56168 0.49545 0.58863 0.0
O116 O 0.37174 0.5965 0.89577 0.0
O117 O 0.38986 0.67861 0.68063 0.0
O118 O 0.42849 0.57623 0.37249 0.0
O119 O 0.43761 0.47006 0.48797 0.0
C120 C 0.40722 0.50762 0.34159 0.0
C121 C 0.62931 0.55623 0.92254 0.0
O122 O 0.57739 0.58576 0.34062 0.0
O123 O 0.5263 0.67639 0.55044 0.0
O124 O 0.66466 0.4676 0.3683 0.0
O125 O 0.64658 0.38544 0.58336 0.0
O126 O 0.60815 0.4876 0.89138 0.0
O127 O 0.59874 0.5939 0.77651 0.0
O128 O 0.45913 0.47824 0.92348 0.0
O129 O 0.51013 0.38762 0.71354 0.0
C130 C 0.55882 0.66212 0.37362 0.0
C131 C 0.47767 0.40188 0.89042 0.0
Dy132 Dy 1.00154 0.51839 0.65192 0.0
C133 C 0.13646 0.63182 0.39154 0.0
C134 C 0.90011 0.4321 0.8724 0.0
Dy135 Dy 0.03503 0.54551 0.61202 0.0
O136 O 0.8941 0.45153 0.68714 0.0
O137 O 0.96854 0.45237 0.92803 0.0
O138 O 0.03865 0.47187 0.32162 0.0
O139 O 0.05523 0.40769 0.55478 0.0
C140 C 0.06022 0.39979 0.37028 0.0
C141 C 0.97636 0.66412 0.89363 0.0
O142 O 0.9437 0.58576 0.36375 0.0
O143 O 0.8684 0.55062 0.58918 0.0
O144 O 0.14248 0.61237 0.57678 0.0
O145 O 0.06802 0.61155 0.33591 0.0
O146 O 0.99792 0.59204 0.94231 0.0
O147 O 0.98135 0.65623 0.70914 0.0
O148 O 0.09286 0.47815 0.90022 0.0
O149 O 0.16817 0.5133 0.67481 0.0
C150 C 0.86774 0.58134 0.41379 0.0
C151 C 0.16882 0.48258 0.85019 0.0
loop_
_geom_bond_atom_site_label_1
_geom_bond_atom_site_label_2
_geom_bond_distance
_geom_bond_site_symmetry_2
_ccdc_geom_bond_type
H0 C3 0.931 . S
H1 C6 0.928 1_556 S
H2 C8 0.930 . S
C3 H0 0.931 . S
C3 C4 1.413 . S
C3 C5 1.360 . S
C4 C3 1.413 . S
C4 C8 1.429 . S
C5 C3 1.360 . S
C5 C6 1.372 . S
C6 H1 0.928 1_554 S
C6 C5 1.372 . S
C6 C7 1.404 . S
C7 C6 1.404 . S
C7 C8 1.391 . S
C8 H2 0.930 . S
C8 C4 1.429 . S
C8 C7 1.391 . S
H9 C12 0.931 . S
H10 C15 0.928 1_556 S
H11 C17 0.931 . S
C12 H9 0.931 . S
C12 C13 1.414 . S
C12 C14 1.360 . S
C13 C12 1.414 . S
C13 C17 1.428 1_655 S
C14 C12 1.360 . S
C14 C15 1.372 . S
C15 H10 0.928 1_554 S
C15 C14 1.372 . S
C15 C16 1.406 . S
C16 C15 1.406 . S
C16 C17 1.390 1_655 S
C17 H11 0.931 . S
C17 C13 1.428 1_455 S
C17 C16 1.390 1_455 S
H18 C21 0.931 . S
H19 C24 0.928 1_556 S
H20 C26 0.930 . S
C21 H18 0.931 . S
C21 C22 1.413 . S
C21 C23 1.360 . S
C22 C21 1.413 . S
C22 C26 1.429 . S
C23 C21 1.360 . S
C23 C24 1.372 . S
C24 H19 0.928 1_554 S
C24 C23 1.372 . S
C24 C25 1.404 . S
C25 C24 1.404 . S
C25 C26 1.391 . S
C26 H20 0.930 . S
C26 C22 1.429 . S
C26 C25 1.391 . S
H27 C30 0.931 . S
H28 C33 0.928 . S
H29 C35 0.930 1_556 S
C30 H27 0.931 . S
C30 C31 1.413 . S
C30 C32 1.360 . S
C31 C30 1.413 . S
C31 C35 1.429 . S
C32 C30 1.360 . S
C32 C33 1.372 . S
C33 H28 0.928 . S
C33 C32 1.372 . S
C33 C34 1.404 . S
C34 C33 1.404 . S
C34 C35 1.391 . S
C35 H29 0.930 1_554 S
C35 C31 1.429 . S
C35 C34 1.391 . S
H36 C39 0.931 1_556 S
H37 C42 0.928 . S
H38 C44 0.930 . S
C39 H36 0.931 1_554 S
C39 C40 1.413 1_554 S
C39 C41 1.360 . S
C40 C39 1.413 1_556 S
C40 C44 1.429 . S
C41 C39 1.360 . S
C41 C42 1.372 . S
C42 H37 0.928 . S
C42 C41 1.372 . S
C42 C43 1.404 . S
C43 C42 1.404 . S
C43 C44 1.391 1_554 S
C44 H38 0.930 . S
C44 C40 1.429 . S
C44 C43 1.391 1_556 S
H45 C48 0.929 1_556 S
H46 C51 0.928 . S
H47 C53 0.930 . S
C48 H45 0.929 1_554 S
C48 C49 1.414 1_554 S
C48 C50 1.360 . S
C49 C48 1.414 1_556 S
C49 C53 1.431 1_655 S
C50 C48 1.360 . S
C50 C51 1.372 . S
C51 H46 0.928 . S
C51 C50 1.372 . S
C51 C52 1.403 . S
C52 C51 1.403 . S
C52 C53 1.391 1_654 S
C53 H47 0.930 . S
C53 C49 1.431 1_455 S
C53 C52 1.391 1_456 S
H54 C57 0.931 1_556 S
H55 C60 0.928 . S
H56 C62 0.930 . S
C57 H54 0.931 1_554 S
C57 C58 1.413 1_554 S
C57 C59 1.360 . S
C58 C57 1.413 1_556 S
C58 C62 1.429 . S
C59 C57 1.360 . S
C59 C60 1.372 . S
C60 H55 0.928 . S
C60 C59 1.372 . S
C60 C61 1.404 . S
C61 C60 1.404 . S
C61 C62 1.391 1_554 S
C62 H56 0.930 . S
C62 C58 1.429 . S
C62 C61 1.391 1_556 S
H63 C66 0.931 . S
H64 C69 0.928 . S
H65 C71 0.930 . S
C66 H63 0.931 . S
C66 C67 1.413 1_556 S
C66 C68 1.360 . S
C67 C66 1.413 1_554 S
C67 C71 1.429 . S
C68 C66 1.360 . S
C68 C69 1.372 . S
C69 H64 0.928 . S
C69 C68 1.372 . S
C69 C70 1.404 1_556 S
C70 C69 1.404 1_554 S
C70 C71 1.391 . S
C71 H65 0.930 . S
C71 C67 1.429 . S
C71 C70 1.391 . S
Dy72 O76 2.398 . S
Dy72 O77 2.491 1_456 S
Dy72 O78 2.403 . S
Dy72 O79 2.664 1_565 S
Dy72 O83 2.326 . S
Dy72 O87 2.310 1_455 S
Dy72 O88 2.351 1_565 S
C73 O84 1.185 . S
C73 O85 1.355 1_655 S
C74 O76 1.185 1_554 S
C74 O77 1.355 1_455 S
Dy75 O79 2.310 1_655 S
Dy75 O82 2.351 1_545 S
Dy75 O84 2.398 . S
Dy75 O85 2.491 1_655 S
Dy75 O86 2.403 . S
Dy75 O87 2.664 1_545 S
Dy75 O89 2.326 . S
O76 Dy72 2.398 . S
O76 C74 1.185 1_556 S
O77 Dy72 2.491 1_654 S
O77 C74 1.355 1_655 S
O78 Dy72 2.403 . S
O78 C80 1.254 1_565 S
O79 Dy72 2.664 1_545 S
O79 Dy75 2.310 1_455 S
O79 C80 1.268 . S
C80 O78 1.254 1_545 S
C80 O79 1.268 . S
C81 O86 1.254 1_565 S
C81 O87 1.268 . S
O82 Dy75 2.351 1_565 S
O82 C90 1.249 . S
O83 Dy72 2.326 . S
O83 C90 1.267 1_455 S
O84 C73 1.185 . S
O84 Dy75 2.398 . S
O85 C73 1.355 1_455 S
O85 Dy75 2.491 1_455 S
O86 Dy75 2.403 . S
O86 C81 1.254 1_545 S
O87 Dy72 2.310 1_655 S
O87 Dy75 2.664 1_565 S
O87 C81 1.268 . S
O88 Dy72 2.351 1_545 S
O88 C91 1.249 . S
O89 Dy75 2.326 . S
O89 C91 1.267 1_655 S
C90 O82 1.249 . S
C90 O83 1.267 1_655 S
C91 O88 1.249 . S
C91 O89 1.267 1_455 S
Dy92 O96 2.398 . S
Dy92 O97 2.491 . S
Dy92 O98 2.403 . S
Dy92 O99 2.664 . S
Dy92 O103 2.326 1_565 S
Dy92 O107 2.310 1_565 S
Dy92 O108 2.351 . S
C93 O104 1.185 . S
C93 O105 1.355 1_554 S
C94 O96 1.185 . S
C94 O97 1.355 . S
Dy95 O99 2.310 1_545 S
Dy95 O102 2.351 . S
Dy95 O104 2.398 1_556 S
Dy95 O105 2.491 . S
Dy95 O106 2.403 1_556 S
Dy95 O107 2.664 . S
Dy95 O109 2.326 1_545 S
O96 Dy92 2.398 . S
O96 C94 1.185 . S
O97 Dy92 2.491 . S
O97 C94 1.355 . S
O98 Dy92 2.403 . S
O98 C100 1.254 . S
O99 Dy92 2.664 . S
O99 Dy95 2.310 1_565 S
O99 C100 1.268 . S
C100 O98 1.254 . S
C100 O99 1.268 . S
C101 O106 1.254 1_556 S
C101 O107 1.268 . S
O102 Dy95 2.351 . S
O102 C110 1.249 . S
O103 Dy92 2.326 1_545 S
O103 C110 1.267 . S
O104 C93 1.185 . S
O104 Dy95 2.398 1_554 S
O105 C93 1.355 1_556 S
O105 Dy95 2.491 . S
O106 Dy95 2.403 1_554 S
O106 C101 1.254 1_554 S
O107 Dy92 2.310 1_545 S
O107 Dy95 2.664 . S
O107 C101 1.268 . S
O108 Dy92 2.351 . S
O108 C111 1.249 . S
O109 Dy95 2.326 1_565 S
O109 C111 1.267 . S
C110 O102 1.249 . S
C110 O103 1.267 . S
C111 O108 1.249 . S
C111 O109 1.267 . S
Dy112 O116 2.398 1_556 S
Dy112 O117 2.491 1_556 S
Dy112 O118 2.403 . S
Dy112 O119 2.664 . S
Dy112 O123 2.326 . S
Dy112 O127 2.310 . S
Dy112 O128 2.351 . S
C113 O124 1.185 . S
C113 O125 1.355 . S
C114 O116 1.185 . S
C114 O117 1.355 . S
Dy115 O119 2.310 . S
Dy115 O122 2.351 . S
Dy115 O124 2.398 . S
Dy115 O125 2.491 . S
Dy115 O126 2.403 . S
Dy115 O127 2.664 . S
Dy115 O129 2.326 . S
O116 Dy112 2.398 1_554 S
O116 C114 1.185 . S
O117 Dy112 2.491 1_554 S
O117 C114 1.355 . S
O118 Dy112 2.403 . S
O118 C120 1.254 . S
O119 Dy112 2.664 . S
O119 Dy115 2.310 . S
O119 C120 1.268 . S
C120 O118 1.254 . S
C120 O119 1.268 . S
C121 O126 1.254 . S
C121 O127 1.268 . S
O122 Dy115 2.351 . S
O122 C130 1.249 . S
O123 Dy112 2.326 . S
O123 C130 1.267 . S
O124 C113 1.185 . S
O124 Dy115 2.398 . S
O125 C113 1.355 . S
O125 Dy115 2.491 . S
O126 Dy115 2.403 . S
O126 C121 1.254 . S
O127 Dy112 2.310 . S
O127 Dy115 2.664 . S
O127 C121 1.268 . S
O128 Dy112 2.351 . S
O128 C131 1.249 . S
O129 Dy115 2.326 . S
O129 C131 1.267 . S
C130 O122 1.249 . S
C130 O123 1.267 . S
C131 O128 1.249 . S
C131 O129 1.267 . S
Dy132 O136 2.398 . S
Dy132 O137 2.491 1_556 S
Dy132 O138 2.403 . S
Dy132 O139 2.664 1_655 S
Dy132 O143 2.326 . S
Dy132 O147 2.310 . S
Dy132 O148 2.351 1_655 S
C133 O144 1.185 . S
C133 O145 1.355 . S
C134 O136 1.185 1_554 S
C134 O137 1.355 . S
Dy135 O139 2.310 . S
Dy135 O142 2.351 1_455 S
Dy135 O144 2.398 . S
Dy135 O145 2.491 . S
Dy135 O146 2.403 . S
Dy135 O147 2.664 1_455 S
Dy135 O149 2.326 . S
O136 Dy132 2.398 . S
O136 C134 1.185 1_556 S
O137 Dy132 2.491 1_554 S
O137 C134 1.355 . S
O138 Dy132 2.403 . S
O138 C140 1.254 . S
O139 Dy132 2.664 1_455 S
O139 Dy135 2.310 . S
O139 C140 1.268 1_455 S
C140 O138 1.254 . S
C140 O139 1.268 1_655 S
C141 O146 1.254 . S
C141 O147 1.268 1_455 S
O142 Dy135 2.351 1_655 S
O142 C150 1.249 . S
O143 Dy132 2.326 . S
O143 C150 1.267 . S
O144 C133 1.185 . S
O144 Dy135 2.398 . S
O145 C133 1.355 . S
O145 Dy135 2.491 . S
O146 Dy135 2.403 . S
O146 C141 1.254 . S
O147 Dy132 2.310 . S
O147 Dy135 2.664 1_655 S
O147 C141 1.268 1_655 S
O148 Dy132 2.351 1_455 S
O148 C151 1.249 . S
O149 Dy135 2.326 . S
O149 C151 1.267 . S
C150 O142 1.249 . S
C150 O143 1.267 . S
C151 O148 1.249 . S
C151 O149 1.267 . S
C61 C80 2.413 . S
C110 C70 2.366 . S
C120 C43 2.517 . S
C140 C52 2.325 . S
C81 C25 2.416 1_556 S
C34 C111 2.360 1_554 S
C7 C121 2.515 1_554 S
C16 C141 2.326 1_654 S
C73 C50 1.330 . S
C94 C59 1.532 1_565 S
C113 C67 1.629 . S
C41 C133 1.286 . S
C14 C74 1.365 1_655 S
C93 C23 1.561 1_545 S
C114 C31 1.611 . S
C5 C134 1.320 . S
C49 C91 2.243 1_655 S
C58 C101 2.375 . S
C131 C68 2.420 . S
C151 C40 2.418 . S
C13 C90 2.243 . S
C100 C22 2.372 . S
C130 C32 2.423 . S
C4 C150 2.416 . S
