# Generated by pormake.
# Topology pts, (4,4)-cn, num edge types: 1
# Building blocks:
#     Node 0, Type 0, BuildingBlock: KUFVIS_clean_linker_0, # of connection points: 4
#     Node 1, Type 0, BuildingBlock: KUFVIS_clean_linker_0, # of connection points: 4
#     Node 2, Type 1, BuildingBlock: UXUYUI_clean_sbu_0, # of connection points: 4
#     Node 3, Type 1, BuildingBlock: UXUYUI_clean_sbu_0, # of connection points: 4
#     Edge 4, Type (0, 1), None
#     Edge 5, Type (0, 1), None
#     Edge 6, Type (0, 1), None
#     Edge 7, Type (0, 1), None
#     Edge 8, Type (0, 1), None
#     Edge 9, Type (0, 1), None
#     Edge 10, Type (0, 1), None
#     Edge 11, Type (0, 1), None
# Relax obj value: 0.008
# Max RMSD: 0.067
# Mean RMSD: 0.060
data_MOF--net-pts--node1-UXUYUI_clean_sbu_0--node2-KUFVIS_clean_linker_0--edge1-none
_symmetry_space_group_name_H-M    P1
_symmetry_Int_Tables_number       1
_symmetry_cell_setting            triclinic
loop_
_symmetry_equiv_pos_as_xyz
'x, y, z'
_cell_length_a     16.729663
_cell_length_b     16.785716
_cell_length_c     25.54612
_cell_angle_alpha  89.933394
_cell_angle_beta   89.983188
_cell_angle_gamma 90.189958
loop_
_atom_site_label
_atom_site_type_symbol
_atom_site_fract_x
_atom_site_fract_y
_atom_site_fract_z
_atom_type_partial_charge
H0 H 0.28337 0.05846 -0.03187 0.0
H1 H 0.50374 0.09051 0.88584 0.0
H2 H 0.50348 1.02929 0.05105 0.0
H3 H 0.62002 0.09211 0.05092 0.0
H4 H 0.8404 0.06178 -0.03155 0.0
H5 H 0.62031 1.02902 0.88611 0.0
C6 C 0.34826 0.05877 -0.03176 0.0
C7 C 0.38909 1.0432 0.01476 0.0
C8 C 0.38932 0.07489 0.92184 0.0
C9 C 0.47329 0.07567 0.92193 0.0
C10 C 0.51681 0.05992 -0.03155 0.0
C11 C 0.47311 1.04359 0.01488 0.0
C12 C 0.60697 0.0605 -0.03149 0.0
C13 C 0.65052 0.07735 0.01489 0.0
C14 C 0.73454 0.07769 0.01487 0.0
C15 C 0.77551 0.06151 -0.03151 0.0
C16 C 0.73461 1.04495 0.92215 0.0
C17 C 0.65064 1.04421 0.92215 0.0
H18 H 0.05543 0.83794 0.46848 0.0
H19 H 0.08883 0.61888 0.55075 0.0
H20 H 1.03113 0.61849 0.38494 0.0
H21 H 0.08972 0.50213 0.38501 0.0
H22 H 0.06606 0.28263 0.4689 0.0
H23 H 1.03223 0.50161 0.55088 0.0
C24 C 0.05644 0.77325 0.46827 0.0
C25 C 1.0432 0.73221 0.42159 0.0
C26 C 0.07161 0.73216 0.51463 0.0
C27 C 0.07414 0.6487 0.51449 0.0
C28 C 0.05975 0.60516 0.46789 0.0
C29 C 1.04415 0.64859 0.42137 0.0
C30 C 0.06111 0.5154 0.46796 0.0
C31 C 0.07675 0.472 0.42148 0.0
C32 C 0.07791 0.38839 0.42184 0.0
C33 C 0.06482 0.34731 0.46859 0.0
C34 C 1.04964 0.38837 0.5149 0.0
C35 C 1.04688 0.47182 0.51464 0.0
Li36 Li 0.07775 0.13329 0.25349 0.0
Li37 Li 1.04539 0.98783 0.25336 0.0
Li38 Li 0.13316 1.04889 0.18386 0.0
Li39 Li 0.99022 0.07324 0.18389 0.0
C40 C 0.20067 1.03253 0.30273 0.0
N41 N 0.29982 1.01474 0.38854 0.0
C42 C 0.16858 1.01382 0.35182 0.0
C43 C 0.28337 1.0413 0.29727 0.0
C44 C 0.21961 1.00523 0.39471 0.0
C45 C 0.33245 1.03239 0.34114 0.0
C46 C 0.92346 0.08989 0.30304 0.0
C47 C 0.79232 0.09589 0.34217 0.0
N48 N 0.82632 0.11103 0.3895 0.0
C49 C 0.95701 0.10598 0.35207 0.0
C50 C 0.84039 0.08533 0.29798 0.0
C51 C 0.90696 0.11637 0.39528 0.0
C52 C 1.03089 0.27832 0.29791 0.0
N53 N 0.09131 0.22427 0.29747 0.0
C54 C 0.15381 0.28824 0.37025 0.0
C55 C 0.15389 0.23016 0.33123 0.0
C56 C 0.08959 0.34145 0.37369 0.0
C57 C 1.029 0.33817 0.33589 0.0
H58 H 0.98172 0.2719 0.27073 0.0
H59 H 0.20179 0.18746 0.32982 0.0
C60 C 0.09138 0.8422 0.29765 0.0
N61 N 1.03124 0.89655 0.29706 0.0
C62 C 0.09272 0.78224 0.33566 0.0
C63 C 0.96796 0.83273 0.36973 0.0
C64 C 0.96842 0.8909 0.33067 0.0
C65 C 1.0319 0.77919 0.37334 0.0
H66 H 0.14078 0.84848 0.27061 0.0
H67 H 0.92078 0.93393 0.32913 0.0
C68 C 0.12714 0.19402 0.14374 0.0
N69 N 0.23211 0.27192 0.07749 0.0
C70 C 0.12902 0.17512 0.09043 0.0
C71 C 0.17813 0.25303 0.16325 0.0
C72 C 0.18276 0.21494 0.05762 0.0
C73 C 0.23079 0.29172 0.12911 0.0
C74 C 0.99634 0.92904 0.14298 0.0
C75 C 0.99524 0.94889 0.08979 0.0
C76 C 0.94462 0.87016 0.16192 0.0
C77 C 0.94151 0.91014 0.05651 0.0
C78 C 0.89199 0.83254 0.12731 0.0
N79 N 0.89143 0.85326 0.07581 0.0
C80 C 0.2193 0.97874 0.10136 0.0
C81 C 0.2904 0.08171 0.14464 0.0
C82 C 0.27688 0.97612 0.06192 0.0
N83 N 0.22523 1.03332 0.14039 0.0
C84 C 0.34971 0.081 0.10597 0.0
C85 C 0.34127 1.03002 0.06285 0.0
H86 H 0.16758 0.94025 0.09919 0.0
H87 H 0.29365 0.12471 0.17604 0.0
C88 C 0.90442 0.1429 0.10097 0.0
N89 N 0.89815 0.08905 0.14049 0.0
C90 C 0.8469 0.14514 0.06152 0.0
C91 C 0.77341 1.04148 0.10653 0.0
C92 C 0.83265 1.04118 0.14524 0.0
C93 C 0.78224 0.09157 0.0629 0.0
H94 H 0.95641 0.18098 0.09843 0.0
H95 H 0.82913 0.99882 0.17707 0.0
O96 O 0.15191 1.04127 0.26004 0.0
O97 O 0.97122 0.07963 0.26002 0.0
O98 O 0.0763 0.15445 0.17678 0.0
O99 O 1.04705 0.9677 0.17651 0.0
H100 H 0.10512 1.00527 0.35687 0.0
H101 H 0.30945 0.05509 0.2596 0.0
H102 H 0.19546 0.99076 0.43286 0.0
H103 H 0.3965 1.03941 0.33747 0.0
H104 H 0.72796 0.09217 0.33881 0.0
H105 H 1.02086 0.11128 0.35678 0.0
H106 H 0.81326 0.07357 0.26035 0.0
H107 H 0.93224 0.12896 0.43338 0.0
H108 H 0.20111 0.28888 0.39922 0.0
H109 H 0.97793 0.37754 0.33809 0.0
H110 H 0.14359 0.74262 0.33801 0.0
H111 H 0.92051 0.83229 0.39861 0.0
H112 H 0.09037 0.12926 0.07472 0.0
H113 H 0.17749 0.26832 0.20439 0.0
H114 H 0.18549 0.20028 0.01643 0.0
H115 H 0.27087 0.33725 0.1437 0.0
H116 H 1.03449 0.99467 0.07453 0.0
H117 H 0.94464 0.85418 0.20297 0.0
H118 H 0.93937 0.92554 0.01539 0.0
H119 H 0.85133 0.78713 0.14146 0.0
H120 H 0.26856 0.93581 0.02926 0.0
H121 H 0.39801 0.12406 0.10764 0.0
H122 H 0.8555 0.1848 0.02848 0.0
H123 H 0.72487 0.99873 0.10859 0.0
Li124 Li 0.9902 1.04889 0.75273 0.0
Li125 Li 0.13366 0.07042 0.75253 0.0
Li126 Li 1.04732 0.13277 0.68317 0.0
Li127 Li 0.076 0.98703 0.68306 0.0
C128 C 0.99987 0.19311 0.79328 0.0
N129 N 0.89711 0.27173 0.86017 0.0
C130 C 0.998 0.17359 0.84651 0.0
C131 C 0.95 0.25309 0.77415 0.0
C132 C 0.94538 0.21379 0.87965 0.0
C133 C 0.89845 0.29213 0.80862 0.0
C134 C 0.12423 0.92576 0.79282 0.0
C135 C 0.22553 0.82634 0.80749 0.0
N136 N 0.22738 0.84626 0.85908 0.0
C137 C 0.12664 0.9448 0.8461 0.0
C138 C 0.17377 0.86584 0.77334 0.0
C139 C 0.17944 0.90415 0.87891 0.0
C140 C 0.90339 0.97963 0.83552 0.0
N141 N 0.89815 1.03433 0.79646 0.0
C142 C 0.77452 0.08295 0.83102 0.0
C143 C 0.83375 0.08334 0.7923 0.0
C144 C 0.78228 1.03169 0.87411 0.0
C145 C 0.84593 0.97739 0.87504 0.0
H146 H 0.95451 0.94066 0.83761 0.0
H147 H 0.8311 0.12652 0.76093 0.0
C148 C 0.22083 0.13994 0.83486 0.0
N149 N 0.22592 0.08489 0.79608 0.0
C150 C 0.27828 0.14235 0.87435 0.0
C151 C 0.34942 1.03624 0.83087 0.0
C152 C 0.29021 1.0357 0.79215 0.0
C153 C 0.34177 0.08786 0.8737 0.0
H154 H 0.16984 0.17908 0.83676 0.0
H155 H 0.29278 0.99229 0.76098 0.0
C156 C 0.92268 1.03809 0.63321 0.0
N157 N 0.82515 1.03005 0.54596 0.0
C158 C 0.95504 1.02031 0.58412 0.0
C159 C 0.84044 1.05069 0.63795 0.0
C160 C 0.90484 1.01671 0.5405 0.0
C161 C 0.79221 1.04675 0.59336 0.0
C162 C 0.20063 0.08165 0.63291 0.0
C163 C 0.16844 0.10023 0.58388 0.0
C164 C 0.28272 0.06808 0.63756 0.0
C165 C 0.21863 0.10359 0.54023 0.0
C166 C 0.33095 0.07184 0.59295 0.0
N167 N 0.29817 0.08929 0.5456 0.0
C168 C 0.10047 0.27371 0.63619 0.0
C169 C 0.97069 0.23512 0.60857 0.0
C170 C 0.10327 0.33346 0.59812 0.0
N171 N 1.03601 0.22432 0.63944 0.0
C172 C 0.97139 0.2934 0.56955 0.0
C173 C 1.03918 0.34174 0.5633 0.0
H174 H 0.15168 0.26348 0.66112 0.0
H175 H 0.91964 0.19622 0.6123 0.0
C176 C 1.02225 0.84641 0.63623 0.0
N177 N 0.08678 0.89573 0.63915 0.0
C178 C 1.01892 0.78686 0.59812 0.0
C179 C 0.15045 0.82701 0.56882 0.0
C180 C 0.15169 0.88506 0.60789 0.0
C181 C 0.08256 0.77874 0.56292 0.0
H182 H 0.97137 0.85652 0.66148 0.0
H183 H 0.20282 0.92389 0.61135 0.0
O184 O 1.04961 0.1532 0.75991 0.0
O185 O 0.07426 0.96607 0.75978 0.0
O186 O 0.97066 1.04221 0.67659 0.0
O187 O 0.15264 0.07767 0.67631 0.0
H188 H 1.03579 0.12698 0.86192 0.0
H189 H 0.95066 0.26887 0.73307 0.0
H190 H 0.94266 0.19868 0.9208 0.0
H191 H 0.85925 0.33843 0.79433 0.0
H192 H 0.26447 0.78007 0.79292 0.0
H193 H 0.08912 0.99137 0.86178 0.0
H194 H 0.1727 0.85043 0.73222 0.0
H195 H 0.18258 0.91888 0.92009 0.0
H196 H 0.72682 0.12636 0.82941 0.0
H197 H 0.85375 0.93697 0.90773 0.0
H198 H 0.27056 0.18307 0.90684 0.0
H199 H 0.397 0.99268 0.82947 0.0
H200 H 1.01802 1.00855 0.57964 0.0
H201 H 0.81412 0.0638 0.67561 0.0
H202 H 0.92922 1.00303 0.50233 0.0
H203 H 0.72857 0.0569 0.59646 0.0
H204 H 0.1056 0.11274 0.57947 0.0
H205 H 0.30891 0.05433 0.67517 0.0
H206 H 0.19438 0.11783 0.5021 0.0
H207 H 0.39448 0.06093 0.59597 0.0
H208 H 0.15702 0.36896 0.59355 0.0
H209 H 0.92141 0.29789 0.54276 0.0
H210 H 0.96511 0.75139 0.59385 0.0
H211 H 0.20011 0.8226 0.54175 0.0
loop_
_geom_bond_atom_site_label_1
_geom_bond_atom_site_label_2
_geom_bond_distance
_geom_bond_site_symmetry_2
_ccdc_geom_bond_type
H0 C6 0.930 . S
H1 C9 0.931 . S
H2 C11 0.931 . S
H3 C13 0.930 . S
H4 C15 0.930 . S
H5 C17 0.929 1_565 S
C6 H0 0.930 . S
C6 C7 1.380 . S
C6 C8 1.394 1_554 S
C7 C6 1.380 . S
C7 C11 1.382 . S
C8 C6 1.394 1_556 S
C8 C9 1.400 . S
C9 H1 0.931 . S
C9 C8 1.400 . S
C9 C10 1.375 1_556 S
C10 C9 1.375 1_554 S
C10 C11 1.415 . S
C10 C12 1.501 . S
C11 H2 0.931 . S
C11 C7 1.382 . S
C11 C10 1.415 . S
C12 C10 1.501 . S
C12 C13 1.384 . S
C12 C17 1.408 1_554 S
C13 H3 0.930 . S
C13 C12 1.384 . S
C13 C14 1.389 . S
C14 C13 1.389 . S
C14 C15 1.405 . S
C15 H4 0.930 . S
C15 C14 1.405 . S
C15 C16 1.364 1_554 S
C16 C15 1.364 1_556 S
C16 C17 1.400 . S
C17 H5 0.929 1_545 S
C17 C12 1.408 1_556 S
C17 C16 1.400 . S
H18 C24 0.930 . S
H19 C27 0.931 . S
H20 C29 0.931 . S
H21 C31 0.930 . S
H22 C33 0.930 . S
H23 C35 0.931 . S
C24 H18 0.930 . S
C24 C25 1.380 . S
C24 C26 1.393 1_455 S
C25 C24 1.380 . S
C25 C29 1.382 . S
C26 C24 1.393 1_655 S
C26 C27 1.401 . S
C27 H19 0.931 . S
C27 C26 1.401 . S
C27 C28 1.375 1_655 S
C28 C27 1.375 1_455 S
C28 C29 1.415 . S
C28 C30 1.501 . S
C29 H20 0.931 . S
C29 C25 1.382 . S
C29 C28 1.415 . S
C30 C28 1.501 . S
C30 C31 1.384 1_455 S
C30 C35 1.408 . S
C31 H21 0.930 . S
C31 C30 1.384 1_655 S
C31 C32 1.389 . S
C32 C31 1.389 . S
C32 C33 1.405 1_655 S
C33 H22 0.930 . S
C33 C32 1.405 1_455 S
C33 C34 1.364 . S
C34 C33 1.364 . S
C34 C35 1.400 . S
C35 H23 0.931 . S
C35 C30 1.408 . S
C35 C34 1.400 . S
Li36 N53 1.990 . S
Li36 O96 1.956 . S
Li36 O97 1.970 1_455 S
Li36 O98 1.961 . S
Li37 N61 1.990 1_455 S
Li37 O96 1.970 1_565 S
Li37 O97 1.956 1_465 S
Li37 O99 1.961 . S
Li38 N83 1.990 . S
Li38 O96 1.961 . S
Li38 O98 1.956 . S
Li38 O99 1.970 1_545 S
Li39 N89 1.990 1_545 S
Li39 O97 1.961 . S
Li39 O98 1.970 1_655 S
Li39 O99 1.956 1_645 S
C40 C42 1.348 1_545 S
C40 C43 1.356 . S
C40 O96 1.325 . S
N41 C44 1.314 1_545 S
N41 C45 1.279 . S
C42 C40 1.348 1_565 S
C42 C44 1.353 . S
C42 H100 0.929 . S
C43 C40 1.356 . S
C43 C45 1.358 . S
C43 H101 0.930 . S
C44 N41 1.314 1_565 S
C44 C42 1.353 . S
C44 H102 0.930 . S
C45 N41 1.279 . S
C45 C43 1.358 . S
C45 H103 0.930 . S
C46 C49 1.348 . S
C46 C50 1.356 1_545 S
C46 O97 1.325 . S
C47 N48 1.283 . S
C47 C50 1.358 . S
C47 H104 0.930 . S
N48 C47 1.283 . S
N48 C51 1.310 1_565 S
C49 C46 1.348 . S
C49 C51 1.353 . S
C49 H105 0.929 . S
C50 C46 1.356 1_565 S
C50 C47 1.358 . S
C50 H106 0.930 . S
C51 N48 1.310 1_545 S
C51 C49 1.353 . S
C51 H107 0.930 . S
C52 N53 1.314 1_655 S
C52 C57 1.353 . S
C52 H58 0.930 . S
N53 Li36 1.990 . S
N53 C52 1.314 1_455 S
N53 C55 1.279 . S
C54 C55 1.358 . S
C54 C56 1.356 . S
C54 H108 0.930 . S
C55 N53 1.279 . S
C55 C54 1.358 . S
C55 H59 0.930 . S
C56 C54 1.356 . S
C56 C57 1.348 1_455 S
C57 C52 1.353 . S
C57 C56 1.348 1_655 S
C57 H109 0.929 . S
H58 C52 0.930 . S
H59 C55 0.930 . S
C60 N61 1.313 1_455 S
C60 C62 1.353 . S
C60 H66 0.930 . S
N61 Li37 1.990 1_655 S
N61 C60 1.313 1_655 S
N61 C64 1.281 . S
C62 C60 1.353 . S
C62 C65 1.348 . S
C62 H110 0.929 . S
C63 C64 1.358 . S
C63 C65 1.356 1_655 S
C63 H111 0.930 . S
C64 N61 1.281 . S
C64 C63 1.358 . S
C64 H67 0.930 . S
C65 C62 1.348 . S
C65 C63 1.356 1_455 S
H66 C60 0.930 . S
H67 C64 0.930 . S
C68 C70 1.348 1_455 S
C68 C71 1.356 . S
C68 O98 1.325 . S
N69 C72 1.314 1_455 S
N69 C73 1.279 . S
C70 C68 1.348 1_655 S
C70 C72 1.353 . S
C70 H112 0.929 . S
C71 C68 1.356 . S
C71 C73 1.358 . S
C71 H113 0.930 . S
C72 N69 1.314 1_655 S
C72 C70 1.353 . S
C72 H114 0.930 . S
C73 N69 1.279 . S
C73 C71 1.358 . S
C73 H115 0.930 . S
C74 C75 1.348 . S
C74 C76 1.356 1_455 S
C74 O99 1.325 . S
C75 C74 1.348 . S
C75 C77 1.353 . S
C75 H116 0.929 . S
C76 C74 1.356 1_655 S
C76 C78 1.358 . S
C76 H117 0.930 . S
C77 C75 1.353 . S
C77 N79 1.315 1_455 S
C77 H118 0.930 . S
C78 C76 1.358 . S
C78 N79 1.279 . S
C78 H119 0.930 . S
N79 C77 1.315 1_655 S
N79 C78 1.279 . S
C80 C82 1.353 . S
C80 N83 1.314 1_565 S
C80 H86 0.930 . S
C81 N83 1.279 . S
C81 C84 1.358 . S
C81 H87 0.930 . S
C82 C80 1.353 . S
C82 C85 1.348 1_565 S
C82 H120 0.929 . S
N83 Li38 1.990 . S
N83 C80 1.314 1_545 S
N83 C81 1.279 . S
C84 C81 1.358 . S
C84 C85 1.356 . S
C84 H121 0.930 . S
C85 C82 1.348 1_545 S
C85 C84 1.356 . S
H86 C80 0.930 . S
H87 C81 0.930 . S
C88 N89 1.312 1_545 S
C88 C90 1.353 . S
C88 H94 0.930 . S
N89 Li39 1.990 1_565 S
N89 C88 1.312 1_565 S
N89 C92 1.281 . S
C90 C88 1.353 . S
C90 C93 1.348 . S
C90 H122 0.929 . S
C91 C92 1.358 . S
C91 C93 1.356 1_565 S
C91 H123 0.930 . S
C92 N89 1.281 . S
C92 C91 1.358 . S
C92 H95 0.930 . S
C93 C90 1.348 . S
C93 C91 1.356 1_545 S
H94 C88 0.930 . S
H95 C92 0.930 . S
O96 Li36 1.956 . S
O96 Li37 1.970 1_545 S
O96 Li38 1.961 . S
O96 C40 1.325 . S
O97 Li36 1.970 1_655 S
O97 Li37 1.956 1_645 S
O97 Li39 1.961 . S
O97 C46 1.325 . S
O98 Li36 1.961 . S
O98 Li38 1.956 . S
O98 Li39 1.970 1_455 S
O98 C68 1.325 . S
O99 Li37 1.961 . S
O99 Li38 1.970 1_565 S
O99 Li39 1.956 1_465 S
O99 C74 1.325 . S
H100 C42 0.929 . S
H101 C43 0.930 . S
H102 C44 0.930 . S
H103 C45 0.930 . S
H104 C47 0.930 . S
H105 C49 0.929 . S
H106 C50 0.930 . S
H107 C51 0.930 . S
H108 C54 0.930 . S
H109 C57 0.929 . S
H110 C62 0.929 . S
H111 C63 0.930 . S
H112 C70 0.929 . S
H113 C71 0.930 . S
H114 C72 0.930 . S
H115 C73 0.930 . S
H116 C75 0.929 . S
H117 C76 0.930 . S
H118 C77 0.930 . S
H119 C78 0.930 . S
H120 C82 0.929 . S
H121 C84 0.930 . S
H122 C90 0.929 . S
H123 C91 0.930 . S
Li124 N141 1.990 . S
Li124 O184 1.956 1_655 S
Li124 O185 1.970 1_645 S
Li124 O186 1.961 . S
Li125 N149 1.990 1_545 S
Li125 O184 1.970 . S
Li125 O185 1.956 1_545 S
Li125 O187 1.961 . S
Li126 N171 1.990 1_455 S
Li126 O184 1.961 . S
Li126 O186 1.956 1_455 S
Li126 O187 1.970 . S
Li127 N177 1.990 . S
Li127 O185 1.961 . S
Li127 O186 1.970 1_465 S
Li127 O187 1.956 1_565 S
C128 C130 1.348 . S
C128 C131 1.356 1_455 S
C128 O184 1.325 . S
N129 C132 1.309 1_655 S
N129 C133 1.284 . S
C130 C128 1.348 . S
C130 C132 1.353 . S
C130 H188 0.929 . S
C131 C128 1.356 1_655 S
C131 C133 1.358 . S
C131 H189 0.930 . S
C132 N129 1.309 1_455 S
C132 C130 1.353 . S
C132 H190 0.930 . S
C133 N129 1.284 . S
C133 C131 1.358 . S
C133 H191 0.930 . S
C134 C137 1.348 1_455 S
C134 C138 1.356 . S
C134 O185 1.325 . S
C135 N136 1.279 . S
C135 C138 1.358 . S
C135 H192 0.930 . S
N136 C135 1.279 . S
N136 C139 1.314 1_455 S
C137 C134 1.348 1_655 S
C137 C139 1.353 . S
C137 H193 0.929 . S
C138 C134 1.356 . S
C138 C135 1.358 . S
C138 H194 0.930 . S
C139 N136 1.314 1_655 S
C139 C137 1.353 . S
C139 H195 0.930 . S
C140 N141 1.314 1_565 S
C140 C145 1.353 . S
C140 H146 0.930 . S
N141 Li124 1.990 . S
N141 C140 1.314 1_545 S
N141 C143 1.279 . S
C142 C143 1.358 . S
C142 C144 1.356 . S
C142 H196 0.930 . S
C143 N141 1.279 . S
C143 C142 1.358 . S
C143 H147 0.930 . S
C144 C142 1.356 . S
C144 C145 1.348 1_545 S
C145 C140 1.353 . S
C145 C144 1.348 1_565 S
C145 H197 0.929 . S
H146 C140 0.930 . S
H147 C143 0.930 . S
C148 N149 1.314 1_545 S
C148 C150 1.353 . S
C148 H154 0.930 . S
N149 Li125 1.990 1_565 S
N149 C148 1.314 1_565 S
N149 C152 1.280 . S
C150 C148 1.353 . S
C150 C153 1.348 . S
C150 H198 0.929 . S
C151 C152 1.358 . S
C151 C153 1.356 1_565 S
C151 H199 0.930 . S
C152 N149 1.280 . S
C152 C151 1.358 . S
C152 H155 0.930 . S
C153 C150 1.348 . S
C153 C151 1.356 1_545 S
H154 C148 0.930 . S
H155 C152 0.930 . S
C156 C158 1.348 1_545 S
C156 C159 1.356 . S
C156 O186 1.325 . S
N157 C160 1.314 1_545 S
N157 C161 1.279 . S
C158 C156 1.348 1_565 S
C158 C160 1.353 . S
C158 H200 0.929 . S
C159 C156 1.356 . S
C159 C161 1.358 . S
C159 H201 0.930 . S
C160 N157 1.314 1_565 S
C160 C158 1.353 . S
C160 H202 0.930 . S
C161 N157 1.279 . S
C161 C159 1.358 . S
C161 H203 0.930 . S
C162 C163 1.348 . S
C162 C164 1.356 1_545 S
C162 O187 1.325 . S
C163 C162 1.348 . S
C163 C165 1.353 . S
C163 H204 0.929 . S
C164 C162 1.356 1_565 S
C164 C166 1.358 . S
C164 H205 0.930 . S
C165 C163 1.353 . S
C165 N167 1.313 . S
C165 H206 0.930 . S
C166 C164 1.358 . S
C166 N167 1.280 1_565 S
C166 H207 0.930 . S
N167 C165 1.313 . S
N167 C166 1.280 1_545 S
C168 C170 1.353 . S
C168 N171 1.311 1_455 S
C168 H174 0.930 . S
C169 N171 1.283 . S
C169 C172 1.358 . S
C169 H175 0.930 . S
C170 C168 1.353 . S
C170 C173 1.348 . S
C170 H208 0.929 . S
N171 Li126 1.990 1_655 S
N171 C168 1.311 1_655 S
N171 C169 1.283 . S
C172 C169 1.358 . S
C172 C173 1.356 1_655 S
C172 H209 0.930 . S
C173 C170 1.348 . S
C173 C172 1.356 1_455 S
H174 C168 0.930 . S
H175 C169 0.930 . S
C176 N177 1.314 1_655 S
C176 C178 1.353 . S
C176 H182 0.930 . S
N177 Li127 1.990 . S
N177 C176 1.314 1_455 S
N177 C180 1.279 . S
C178 C176 1.353 . S
C178 C181 1.348 1_655 S
C178 H210 0.929 . S
C179 C180 1.358 . S
C179 C181 1.356 . S
C179 H211 0.930 . S
C180 N177 1.279 . S
C180 C179 1.358 . S
C180 H183 0.930 . S
C181 C178 1.348 1_455 S
C181 C179 1.356 . S
H182 C176 0.930 . S
H183 C180 0.930 . S
O184 Li124 1.956 1_455 S
O184 Li125 1.970 . S
O184 Li126 1.961 . S
O184 C128 1.325 . S
O185 Li124 1.970 1_465 S
O185 Li125 1.956 1_565 S
O185 Li127 1.961 . S
O185 C134 1.325 . S
O186 Li124 1.961 . S
O186 Li126 1.956 1_655 S
O186 Li127 1.970 1_645 S
O186 C156 1.325 . S
O187 Li125 1.961 . S
O187 Li126 1.970 . S
O187 Li127 1.956 1_545 S
O187 C162 1.325 . S
H188 C130 0.929 . S
H189 C131 0.930 . S
H190 C132 0.930 . S
H191 C133 0.930 . S
H192 C135 0.930 . S
H193 C137 0.929 . S
H194 C138 0.930 . S
H195 C139 0.930 . S
H196 C142 0.930 . S
H197 C145 0.929 . S
H198 C150 0.929 . S
H199 C151 0.930 . S
H200 C158 0.929 . S
H201 C159 0.930 . S
H202 C160 0.930 . S
H203 C161 0.930 . S
H204 C163 0.929 . S
H205 C164 0.930 . S
H206 C165 0.930 . S
H207 C166 0.930 . S
H208 C170 0.929 . S
H209 C172 0.930 . S
H210 C178 0.929 . S
H211 C179 0.930 . S
C85 C7 1.485 . S
C173 C34 1.476 . S
C93 C14 1.502 . S
C181 C26 1.488 1_455 S
C153 C8 1.489 . S
C56 C32 1.502 1_455 S
C144 C16 1.476 . S
C25 C65 1.485 . S
