# Generated by pormake.
# Topology llj, (12,3)-cn, num edge types: 1
# Building blocks:
#     Node 0, Type 0, BuildingBlock: QEWDON_clean_sbu_0, # of connection points: 12
#     Node 1, Type 0, BuildingBlock: QEWDON_clean_sbu_0, # of connection points: 12
#     Node 2, Type 1, BuildingBlock: QEWDON_clean_linker_0, # of connection points: 3
#     Node 3, Type 1, BuildingBlock: QEWDON_clean_linker_0, # of connection points: 3
#     Node 4, Type 1, BuildingBlock: QEWDON_clean_linker_0, # of connection points: 3
#     Node 5, Type 1, BuildingBlock: QEWDON_clean_linker_0, # of connection points: 3
#     Node 6, Type 1, BuildingBlock: QEWDON_clean_linker_0, # of connection points: 3
#     Node 7, Type 1, BuildingBlock: QEWDON_clean_linker_0, # of connection points: 3
#     Node 8, Type 1, BuildingBlock: QEWDON_clean_linker_0, # of connection points: 3
#     Node 9, Type 1, BuildingBlock: QEWDON_clean_linker_0, # of connection points: 3
#     Edge 10, Type (0, 1), None
#     Edge 11, Type (0, 1), None
#     Edge 12, Type (0, 1), None
#     Edge 13, Type (0, 1), None
#     Edge 14, Type (0, 1), None
#     Edge 15, Type (0, 1), None
#     Edge 16, Type (0, 1), None
#     Edge 17, Type (0, 1), None
#     Edge 18, Type (0, 1), None
#     Edge 19, Type (0, 1), None
#     Edge 20, Type (0, 1), None
#     Edge 21, Type (0, 1), None
#     Edge 22, Type (0, 1), None
#     Edge 23, Type (0, 1), None
#     Edge 24, Type (0, 1), None
#     Edge 25, Type (0, 1), None
#     Edge 26, Type (0, 1), None
#     Edge 27, Type (0, 1), None
#     Edge 28, Type (0, 1), None
#     Edge 29, Type (0, 1), None
#     Edge 30, Type (0, 1), None
#     Edge 31, Type (0, 1), None
#     Edge 32, Type (0, 1), None
#     Edge 33, Type (0, 1), None
# Relax obj value: 0.028
# Max RMSD: 0.139
# Mean RMSD: 0.122
data_MOF--net-llj--node1-QEWDON_clean_sbu_0--node2-QEWDON_clean_linker_0--edge1-none
_symmetry_space_group_name_H-M    P1
_symmetry_Int_Tables_number       1
_symmetry_cell_setting            triclinic
loop_
_symmetry_equiv_pos_as_xyz
'x, y, z'
_cell_length_a     23.040703
_cell_length_b     22.548624
_cell_length_c     11.397407
_cell_angle_alpha  90.572073
_cell_angle_beta   91.187709
_cell_angle_gamma 91.722642
loop_
_atom_site_label
_atom_site_type_symbol
_atom_site_fract_x
_atom_site_fract_y
_atom_site_fract_z
_atom_type_partial_charge
Zn0 Zn 0.90507 0.12856 0.89661 0.0
Zn1 Zn 0.90384 0.12237 0.17889 0.0
O2 O 0.94958 0.10091 0.03937 0.0
H3 H 0.9778 0.07034 0.03718 0.0
C4 C 0.79248 0.02918 0.74699 0.0
O5 O 0.77479 0.06013 0.83701 0.0
Zn6 Zn 0.06746 0.88127 0.17012 0.0
Zn7 Zn 0.05445 0.9096 0.90671 0.0
O8 O 0.00695 0.90063 0.0482 0.0
H9 H 0.96939 0.88099 0.03723 0.0
Zn10 Zn 0.81011 0.93961 0.93331 0.0
O11 O 0.87443 0.9696 0.04546 0.0
Zn12 Zn 0.8695 0.91873 0.18779 0.0
H13 H 0.9102 0.98759 1.01847 0.0
Zn14 Zn 0.09548 0.07751 0.8889 0.0
O15 O 0.08084 0.03261 0.03728 0.0
H16 H 0.05038 0.00259 0.04246 0.0
Zn17 Zn 0.10918 0.08713 0.1675 0.0
C18 C 0.12204 0.9836 0.73445 0.0
O19 O 0.14984 0.97083 0.83242 0.0
O20 O 0.85792 0.20082 0.94216 0.0
O21 O 0.85105 0.19051 0.13626 0.0
O22 O 0.11081 0.84198 0.9115 0.0
O23 O 0.11497 0.8144 0.09888 0.0
O24 O 0.78148 0.8526 0.96999 0.0
O25 O 0.82478 0.84261 0.14579 0.0
C26 C 0.01232 0.14532 0.3083 0.0
O27 O 0.17281 0.12234 0.91588 0.0
O28 O 0.17889 0.13708 0.10976 0.0
O29 O 0.00331 0.90429 0.75659 0.0
C30 C 0.83962 0.21802 0.04123 0.0
O31 O 0.95098 0.13193 0.74091 0.0
C32 C 0.97311 0.87212 0.32175 0.0
O33 O 0.80864 0.97623 0.76339 0.0
C34 C 0.12715 0.80637 0.99082 0.0
O35 O 0.09096 0.02912 0.73312 0.0
C36 C 0.84445 0.01949 0.32351 0.0
O37 O 0.95778 0.15221 0.30763 0.0
O38 O 0.03546 0.12734 0.21432 0.0
C39 C 0.79333 0.82175 0.06052 0.0
O40 O 0.02611 0.85833 0.31719 0.0
O41 O 0.95009 0.89734 0.2346 0.0
C42 C 0.12843 0.98285 0.30143 0.0
O43 O 0.83599 0.96355 0.32177 0.0
O44 O 0.86895 0.04362 0.23584 0.0
C45 C 0.19949 0.14302 1.00697 0.0
O46 O 0.13617 0.03881 0.30439 0.0
O47 O 0.10941 0.95857 0.20659 0.0
C48 C 0.96312 0.86432 0.74963 0.0
O49 O 0.95362 0.83012 0.84022 0.0
C50 C 0.00367 0.15056 0.7449 0.0
O51 O 0.02676 0.16789 0.84637 0.0
Zn52 Zn 0.40507 0.62856 0.39661 0.0
Zn53 Zn 0.40384 0.62236 0.67889 0.0
O54 O 0.44958 0.60091 0.53937 0.0
H55 H 0.4778 0.57034 0.53718 0.0
C56 C 0.29248 0.52918 0.247 0.0
O57 O 0.27479 0.56013 0.33702 0.0
Zn58 Zn 0.56746 0.38127 0.67013 0.0
Zn59 Zn 0.55445 0.40961 0.40671 0.0
O60 O 0.50695 0.40062 0.5482 0.0
H61 H 0.46939 0.38099 0.53723 0.0
Zn62 Zn 0.31011 0.43961 0.43331 0.0
O63 O 0.37443 0.4696 0.54546 0.0
Zn64 Zn 0.36951 0.41873 0.68779 0.0
H65 H 0.4102 0.48759 0.51847 0.0
Zn66 Zn 0.59548 0.57751 0.3889 0.0
O67 O 0.58084 0.53261 0.53728 0.0
H68 H 0.55038 0.50259 0.54246 0.0
Zn69 Zn 0.60918 0.58713 0.6675 0.0
C70 C 0.62204 0.4836 0.23445 0.0
O71 O 0.64984 0.47083 0.33242 0.0
O72 O 0.35792 0.70082 0.44216 0.0
O73 O 0.35105 0.69051 0.63625 0.0
O74 O 0.61081 0.34198 0.4115 0.0
O75 O 0.61497 0.3144 0.59888 0.0
O76 O 0.28148 0.3526 0.46999 0.0
O77 O 0.32478 0.34261 0.64579 0.0
C78 C 0.51232 0.64532 0.8083 0.0
O79 O 0.6728 0.62234 0.41588 0.0
O80 O 0.67889 0.63708 0.60976 0.0
O81 O 0.50331 0.40429 0.2566 0.0
C82 C 0.33962 0.71801 0.54123 0.0
O83 O 0.45098 0.63193 0.24091 0.0
C84 C 0.47311 0.37212 0.82175 0.0
O85 O 0.30864 0.47623 0.26339 0.0
C86 C 0.62715 0.30637 0.49082 0.0
O87 O 0.59096 0.52912 0.23312 0.0
C88 C 0.34445 0.51949 0.82351 0.0
O89 O 0.45778 0.65221 0.80763 0.0
O90 O 0.53546 0.62734 0.71432 0.0
C91 C 0.29334 0.32175 0.56052 0.0
O92 O 0.52611 0.35833 0.81719 0.0
O93 O 0.45009 0.39734 0.7346 0.0
C94 C 0.62843 0.48285 0.80143 0.0
O95 O 0.33599 0.46355 0.82178 0.0
O96 O 0.36895 0.54362 0.73584 0.0
C97 C 0.69949 0.64302 0.50697 0.0
O98 O 0.63617 0.53881 0.80439 0.0
O99 O 0.60941 0.45857 0.70659 0.0
C100 C 0.46312 0.36432 0.24963 0.0
O101 O 0.45362 0.33012 0.34023 0.0
C102 C 0.50367 0.65056 0.2449 0.0
O103 O 0.52676 0.66789 0.34637 0.0
H104 H 0.37833 0.27958 0.20084 0.0
C105 C 0.39314 0.30292 0.1238 0.0
C106 C 0.43504 0.34961 0.13511 0.0
C107 C 0.37508 0.28201 1.01205 0.0
H108 H 0.49145 0.40981 0.04033 0.0
C109 C 0.4571 0.37589 0.03374 0.0
C110 C 0.43916 0.35502 0.9229 0.0
C111 C 0.3972 0.30934 0.91186 0.0
C112 C 0.34668 0.22298 0.99807 0.0
H113 H 0.38637 0.29081 0.82572 0.0
C114 C 0.28736 0.21266 1.02037 0.0
C115 C 0.26174 0.15653 0.9946 0.0
C116 C 0.38005 0.17674 0.9548 0.0
H117 H 0.42579 0.1841 0.93763 0.0
C118 C 0.35476 0.12103 0.93171 0.0
H119 H 0.26122 0.24827 0.05255 0.0
C120 C 0.29586 0.11107 0.95036 0.0
H121 H 0.27673 0.06757 0.92999 0.0
H122 H 0.38065 0.08574 0.89766 0.0
H123 H 0.69379 0.3925 0.21065 0.0
C124 C 0.67546 0.40642 0.12727 0.0
C125 C 0.63478 0.45141 0.12449 0.0
C126 C 0.69975 0.3856 0.02366 0.0
H127 H 0.58559 0.50867 1.01175 0.0
C128 C 0.61497 0.47199 1.01529 0.0
C129 C 0.63717 0.44951 0.91028 0.0
C130 C 0.67913 0.40571 0.91481 0.0
C131 C 0.75825 0.36156 0.03342 0.0
H132 H 0.70079 0.39288 0.83527 0.0
C133 C 0.76816 0.30032 0.0295 0.0
C134 C 0.82462 0.28043 0.05094 0.0
C135 C 0.80471 0.40207 0.05674 0.0
H136 H 0.7975 0.44934 0.06066 0.0
C137 C 0.86045 0.3821 0.07762 0.0
H138 H 0.73258 0.26881 1.01135 0.0
C139 C 0.87037 0.32159 0.07525 0.0
H140 H 0.91418 0.30677 0.09076 0.0
H141 H 0.89597 0.41356 0.09597 0.0
H142 H 0.62907 0.66724 0.8517 0.0
C143 C 0.60388 0.66264 0.93054 0.0
C144 C 0.54387 0.6501 0.92245 0.0
C145 C 0.63108 0.67051 0.0413 0.0
H146 H 0.46543 0.63524 1.02077 0.0
C147 C 0.51177 0.64504 0.02617 0.0
C148 C 0.53842 0.6536 0.13685 0.0
C149 C 0.59832 0.66619 0.14346 0.0
C150 C 0.69363 0.68483 0.05336 0.0
H151 H 0.61976 0.67321 0.22819 0.0
C152 C 0.71485 0.74293 0.03368 0.0
C153 C 0.77212 0.75951 0.06741 0.0
C154 C 0.73055 0.64273 0.1017 0.0
H155 H 0.71443 0.59807 0.11897 0.0
C156 C 0.78797 0.65856 0.13155 0.0
H157 H 0.68581 0.77594 0.99981 0.0
C158 C 0.80849 0.71679 0.1162 0.0
H159 H 0.8528 0.72852 0.14286 0.0
H160 H 0.81622 0.62604 0.16945 0.0
H161 H 0.22876 0.62105 0.16759 0.0
C162 C 0.25746 0.60409 0.10183 0.0
C163 C 0.29272 0.55568 0.128 0.0
C164 C 0.25438 0.62631 0.98715 0.0
H165 H 0.34918 0.49072 0.05408 0.0
C166 C 0.32461 0.53014 0.03731 0.0
C167 C 0.32333 0.55394 0.92353 0.0
C168 C 0.29064 0.6037 0.90107 0.0
C169 C 0.20406 0.66057 0.94733 0.0
H170 H 0.28718 0.61985 0.81187 0.0
C171 C 0.19033 0.71589 0.99697 0.0
C172 C 0.14392 0.74749 0.94848 0.0
C173 C 0.16922 0.63627 0.85478 0.0
H174 H 0.17801 0.59313 0.81746 0.0
C175 C 0.12291 0.66698 0.8089 0.0
H176 H 0.21649 0.73485 0.06884 0.0
C177 C 0.1106 0.72233 0.85446 0.0
H178 H 0.07409 0.7453 0.81682 0.0
H179 H 0.09657 0.64794 0.73748 0.0
H180 H 0.87833 0.77958 0.70084 0.0
C181 C 0.89314 0.80292 0.6238 0.0
C182 C 0.93504 0.84961 0.63511 0.0
C183 C 0.87507 0.78201 0.51205 0.0
H184 H -0.00855 0.90981 0.54033 0.0
C185 C 0.95709 0.8759 0.53373 0.0
C186 C 0.93916 0.85502 0.4229 0.0
C187 C 0.8972 0.80935 0.41185 0.0
C188 C 0.84668 0.72298 0.49806 0.0
H189 H 0.88637 0.79081 0.32571 0.0
C190 C 0.78736 0.71266 0.52037 0.0
C191 C 0.76174 0.65653 0.4946 0.0
C192 C 0.88005 0.67674 0.45479 0.0
H193 H 0.92579 0.6841 0.43762 0.0
C194 C 0.85476 0.62103 0.43171 0.0
H195 H 0.76122 0.74827 0.55255 0.0
C196 C 0.79586 0.61107 0.45036 0.0
H197 H 0.77673 0.56757 0.42999 0.0
H198 H 0.88065 0.58574 0.39765 0.0
H199 H 0.19379 0.8925 0.71065 0.0
C200 C 0.17546 0.90642 0.62727 0.0
C201 C 0.13478 0.95141 0.62449 0.0
C202 C 0.19975 0.8856 0.52366 0.0
H203 H 0.08559 0.00867 0.51175 0.0
C204 C 0.11497 0.97199 0.51529 0.0
C205 C 0.13717 0.94951 0.41028 0.0
C206 C 0.17913 0.9057 0.41481 0.0
C207 C 0.25825 0.86156 0.53341 0.0
H208 H 0.20079 0.89288 0.33526 0.0
C209 C 0.26816 0.80032 0.5295 0.0
C210 C 0.32462 0.78043 0.55094 0.0
C211 C 0.30471 0.90207 0.55673 0.0
H212 H 0.29751 0.94934 0.56064 0.0
C213 C 0.36045 0.8821 0.57761 0.0
H214 H 0.23258 0.76881 0.51135 0.0
C215 C 0.37037 0.82159 0.57524 0.0
H216 H 0.41418 0.80677 0.59074 0.0
H217 H 0.39597 0.91356 0.59595 0.0
H218 H 0.12907 0.16723 0.35171 0.0
C219 C 0.10388 0.16264 0.43054 0.0
C220 C 0.04387 0.1501 0.42245 0.0
C221 C 0.13108 0.17051 0.5413 0.0
H222 H 0.96543 0.13524 0.52077 0.0
C223 C 0.01177 0.14504 0.52617 0.0
C224 C 0.03842 0.1536 0.63685 0.0
C225 C 0.09832 0.16619 0.64346 0.0
C226 C 0.19363 0.18483 0.55336 0.0
H227 H 0.11977 0.17321 0.72819 0.0
C228 C 0.21486 0.24293 0.53369 0.0
C229 C 0.27212 0.25951 0.56741 0.0
C230 C 0.23055 0.14273 0.6017 0.0
H231 H 0.21443 0.09807 0.61898 0.0
C232 C 0.28797 0.15856 0.63155 0.0
H233 H 0.18582 0.27594 0.49981 0.0
C234 C 0.30849 0.21678 0.61621 0.0
H235 H 0.3528 0.22851 0.64287 0.0
H236 H 0.31622 0.12604 0.66945 0.0
H237 H 0.72876 0.12106 0.66758 0.0
C238 C 0.75746 0.10409 0.60183 0.0
C239 C 0.79272 0.05568 0.628 0.0
C240 C 0.75438 0.12632 0.48714 0.0
H241 H 0.84917 0.99072 0.55408 0.0
C242 C 0.82461 0.03014 0.5373 0.0
C243 C 0.82333 0.05394 0.42353 0.0
C244 C 0.79064 0.10371 0.40107 0.0
C245 C 0.70406 0.16057 0.44733 0.0
H246 H 0.78719 0.11985 0.31187 0.0
C247 C 0.69033 0.21589 0.49696 0.0
C248 C 0.64392 0.24749 0.44847 0.0
C249 C 0.66923 0.13627 0.35477 0.0
H250 H 0.67801 0.09314 0.31745 0.0
C251 C 0.62291 0.16699 0.30889 0.0
H252 H 0.71649 0.23485 0.56884 0.0
C253 C 0.61061 0.22233 0.35445 0.0
H254 H 0.5741 0.24531 0.31681 0.0
H255 H 0.59658 0.14794 0.23747 0.0
loop_
_geom_bond_atom_site_label_1
_geom_bond_atom_site_label_2
_geom_bond_distance
_geom_bond_site_symmetry_2
_ccdc_geom_bond_type
Zn0 O2 1.933 1_556 S
Zn0 O20 1.985 . S
Zn0 O31 1.955 . S
Zn1 O2 1.911 . S
Zn1 O21 1.970 . S
Zn1 O37 1.945 . S
Zn1 O44 1.981 . S
O2 Zn0 1.933 1_554 S
O2 Zn1 1.911 . S
O2 H3 0.841 1_655 S
H3 O2 0.841 1_455 S
C4 O5 1.246 . S
C4 O33 1.276 1_545 S
O5 C4 1.246 . S
Zn6 O8 1.911 . S
Zn6 O23 1.970 . S
Zn6 O40 1.945 . S
Zn6 O47 1.981 . S
Zn7 O8 1.933 1_556 S
Zn7 O22 1.985 . S
Zn7 O29 1.955 . S
O8 Zn6 1.911 . S
O8 Zn7 1.933 1_554 S
O8 H9 0.841 1_455 S
H9 O8 0.841 1_655 S
Zn10 O11 1.933 1_556 S
Zn10 O24 1.985 . S
Zn10 O33 1.955 . S
O11 Zn10 1.933 1_554 S
O11 Zn12 1.911 . S
O11 H13 0.841 1_565 S
Zn12 O11 1.911 . S
Zn12 O25 1.970 . S
Zn12 O41 1.981 . S
Zn12 O43 1.945 . S
H13 O11 0.841 1_545 S
Zn14 O15 1.933 1_556 S
Zn14 O27 1.985 . S
Zn14 O35 1.955 . S
O15 Zn14 1.933 1_554 S
O15 H16 0.841 1_545 S
O15 Zn17 1.911 . S
H16 O15 0.841 1_565 S
Zn17 O15 1.911 . S
Zn17 O28 1.970 . S
Zn17 O38 1.981 . S
Zn17 O46 1.945 . S
C18 O19 1.246 . S
C18 O35 1.276 1_565 S
O19 C18 1.246 . S
O20 Zn0 1.985 . S
O20 C30 1.245 1_556 S
O21 Zn1 1.970 . S
O21 C30 1.263 . S
O22 Zn7 1.985 . S
O22 C34 1.245 1_556 S
O23 Zn6 1.970 . S
O23 C34 1.263 . S
O24 Zn10 1.985 . S
O24 C39 1.237 1_556 S
O25 Zn12 1.970 . S
O25 C39 1.271 . S
C26 O37 1.262 1_455 S
C26 O38 1.245 . S
O27 Zn14 1.985 . S
O27 C45 1.245 1_556 S
O28 Zn17 1.970 . S
O28 C45 1.263 . S
O29 Zn7 1.955 . S
O29 C48 1.276 1_455 S
C30 O20 1.245 1_554 S
C30 O21 1.263 . S
O31 Zn0 1.955 . S
O31 C50 1.276 1_655 S
C32 O40 1.262 1_655 S
C32 O41 1.245 . S
O33 C4 1.276 1_565 S
O33 Zn10 1.955 . S
C34 O22 1.245 1_554 S
C34 O23 1.263 . S
O35 Zn14 1.955 . S
O35 C18 1.276 1_545 S
C36 O43 1.262 1_545 S
C36 O44 1.245 . S
O37 Zn1 1.945 . S
O37 C26 1.262 1_655 S
O38 Zn17 1.981 . S
O38 C26 1.245 . S
C39 O24 1.237 1_554 S
C39 O25 1.271 . S
O40 Zn6 1.945 . S
O40 C32 1.262 1_455 S
O41 Zn12 1.981 . S
O41 C32 1.245 . S
C42 O46 1.262 1_565 S
C42 O47 1.245 . S
O43 Zn12 1.945 . S
O43 C36 1.262 1_565 S
O44 Zn1 1.981 . S
O44 C36 1.245 . S
C45 O27 1.245 1_554 S
C45 O28 1.263 . S
O46 Zn17 1.945 . S
O46 C42 1.262 1_545 S
O47 Zn6 1.981 . S
O47 C42 1.245 . S
C48 O29 1.276 1_655 S
C48 O49 1.246 . S
O49 C48 1.246 . S
C50 O31 1.276 1_455 S
C50 O51 1.246 . S
O51 C50 1.246 . S
Zn52 O54 1.933 . S
Zn52 O72 1.985 . S
Zn52 O83 1.955 . S
Zn53 O54 1.911 . S
Zn53 O73 1.970 . S
Zn53 O89 1.945 . S
Zn53 O96 1.981 . S
O54 Zn52 1.933 . S
O54 Zn53 1.911 . S
O54 H55 0.841 . S
H55 O54 0.841 . S
C56 O57 1.246 . S
C56 O85 1.276 . S
O57 C56 1.246 . S
Zn58 O60 1.911 . S
Zn58 O75 1.970 . S
Zn58 O92 1.945 . S
Zn58 O99 1.981 . S
Zn59 O60 1.933 . S
Zn59 O74 1.985 . S
Zn59 O81 1.955 . S
O60 Zn58 1.911 . S
O60 Zn59 1.933 . S
O60 H61 0.841 . S
H61 O60 0.841 . S
Zn62 O63 1.933 . S
Zn62 O76 1.985 . S
Zn62 O85 1.955 . S
O63 Zn62 1.933 . S
O63 Zn64 1.911 . S
O63 H65 0.841 . S
Zn64 O63 1.911 . S
Zn64 O77 1.970 . S
Zn64 O93 1.981 . S
Zn64 O95 1.945 . S
H65 O63 0.841 . S
Zn66 O67 1.933 . S
Zn66 O79 1.985 . S
Zn66 O87 1.955 . S
O67 Zn66 1.933 . S
O67 H68 0.841 . S
O67 Zn69 1.911 . S
H68 O67 0.841 . S
Zn69 O67 1.911 . S
Zn69 O80 1.970 . S
Zn69 O90 1.981 . S
Zn69 O98 1.945 . S
C70 O71 1.246 . S
C70 O87 1.276 . S
O71 C70 1.246 . S
O72 Zn52 1.985 . S
O72 C82 1.245 . S
O73 Zn53 1.970 . S
O73 C82 1.263 . S
O74 Zn59 1.985 . S
O74 C86 1.245 . S
O75 Zn58 1.970 . S
O75 C86 1.263 . S
O76 Zn62 1.985 . S
O76 C91 1.245 . S
O77 Zn64 1.970 . S
O77 C91 1.263 . S
C78 O89 1.262 . S
C78 O90 1.245 . S
O79 Zn66 1.985 . S
O79 C97 1.245 . S
O80 Zn69 1.970 . S
O80 C97 1.263 . S
O81 Zn59 1.955 . S
O81 C100 1.276 . S
C82 O72 1.245 . S
C82 O73 1.263 . S
O83 Zn52 1.955 . S
O83 C102 1.276 . S
C84 O92 1.262 . S
C84 O93 1.245 . S
O85 C56 1.276 . S
O85 Zn62 1.955 . S
C86 O74 1.245 . S
C86 O75 1.263 . S
O87 Zn66 1.955 . S
O87 C70 1.276 . S
C88 O95 1.262 . S
C88 O96 1.245 . S
O89 Zn53 1.945 . S
O89 C78 1.262 . S
O90 Zn69 1.981 . S
O90 C78 1.245 . S
C91 O76 1.245 . S
C91 O77 1.263 . S
O92 Zn58 1.945 . S
O92 C84 1.262 . S
O93 Zn64 1.981 . S
O93 C84 1.245 . S
C94 O98 1.262 . S
C94 O99 1.245 . S
O95 Zn64 1.945 . S
O95 C88 1.262 . S
O96 Zn53 1.981 . S
O96 C88 1.245 . S
C97 O79 1.245 . S
C97 O80 1.263 . S
O98 Zn69 1.945 . S
O98 C94 1.262 . S
O99 Zn58 1.981 . S
O99 C94 1.245 . S
C100 O81 1.276 . S
C100 O101 1.246 . S
O101 C100 1.246 . S
C102 O83 1.276 . S
C102 O103 1.246 . S
O103 C102 1.246 . S
H104 C105 0.949 . S
C105 H104 0.949 . S
C105 C106 1.395 . S
C105 C107 1.391 1_554 S
C106 C105 1.395 . S
C106 C109 1.390 . S
C107 C105 1.391 1_556 S
C107 C111 1.387 . S
C107 C112 1.491 . S
H108 C109 0.950 . S
C109 C106 1.390 . S
C109 H108 0.950 . S
C109 C110 1.378 1_554 S
C110 C109 1.378 1_556 S
C110 C111 1.409 . S
C111 C107 1.387 . S
C111 C110 1.409 . S
C111 H113 0.951 . S
C112 C107 1.491 . S
C112 C114 1.382 1_556 S
C112 C116 1.404 . S
H113 C111 0.951 . S
C114 C112 1.382 1_554 S
C114 C115 1.390 . S
C114 H119 0.949 . S
C115 C114 1.390 . S
C115 C120 1.399 1_554 S
C116 C112 1.404 . S
C116 H117 0.950 . S
C116 C118 1.375 . S
H117 C116 0.950 . S
C118 C116 1.375 . S
C118 C120 1.382 . S
C118 H122 0.950 . S
H119 C114 0.949 . S
C120 C115 1.399 1_556 S
C120 C118 1.382 . S
C120 H121 0.952 . S
H121 C120 0.952 . S
H122 C118 0.950 . S
H123 C124 0.949 . S
C124 H123 0.949 . S
C124 C125 1.395 . S
C124 C126 1.391 1_554 S
C125 C124 1.395 . S
C125 C128 1.390 . S
C126 C124 1.391 1_556 S
C126 C130 1.387 . S
C126 C131 1.491 . S
H127 C128 0.950 . S
C128 C125 1.390 . S
C128 H127 0.950 . S
C128 C129 1.378 1_554 S
C129 C128 1.378 1_556 S
C129 C130 1.409 . S
C130 C126 1.387 . S
C130 C129 1.409 . S
C130 H132 0.951 . S
C131 C126 1.491 . S
C131 C133 1.382 1_556 S
C131 C135 1.404 . S
H132 C130 0.951 . S
C133 C131 1.382 1_554 S
C133 C134 1.390 . S
C133 H138 0.949 . S
C134 C133 1.390 . S
C134 C139 1.399 1_554 S
C135 C131 1.404 . S
C135 H136 0.950 . S
C135 C137 1.375 . S
H136 C135 0.950 . S
C137 C135 1.375 . S
C137 C139 1.382 . S
C137 H141 0.950 . S
H138 C133 0.949 . S
C139 C134 1.399 1_556 S
C139 C137 1.382 . S
C139 H140 0.952 . S
H140 C139 0.952 . S
H141 C137 0.950 . S
H142 C143 0.949 . S
C143 H142 0.949 . S
C143 C144 1.395 . S
C143 C145 1.391 1_556 S
C144 C143 1.395 . S
C144 C147 1.390 1_556 S
C145 C143 1.391 1_554 S
C145 C149 1.387 . S
C145 C150 1.491 . S
H146 C147 0.950 1_556 S
C147 C144 1.390 1_554 S
C147 H146 0.950 1_554 S
C147 C148 1.378 . S
C148 C147 1.378 . S
C148 C149 1.409 . S
C149 C145 1.387 . S
C149 C148 1.409 . S
C149 H151 0.951 . S
C150 C145 1.491 . S
C150 C152 1.382 . S
C150 C154 1.404 . S
H151 C149 0.951 . S
C152 C150 1.382 . S
C152 C153 1.390 . S
C152 H157 0.949 1_554 S
C153 C152 1.390 . S
C153 C158 1.399 . S
C154 C150 1.404 . S
C154 H155 0.950 . S
C154 C156 1.375 . S
H155 C154 0.950 . S
C156 C154 1.375 . S
C156 C158 1.382 . S
C156 H160 0.950 . S
H157 C152 0.949 1_556 S
C158 C153 1.399 . S
C158 C156 1.382 . S
C158 H159 0.952 . S
H159 C158 0.952 . S
H160 C156 0.950 . S
H161 C162 0.949 . S
C162 H161 0.949 . S
C162 C163 1.395 . S
C162 C164 1.391 1_554 S
C163 C162 1.395 . S
C163 C166 1.390 . S
C164 C162 1.391 1_556 S
C164 C168 1.387 . S
C164 C169 1.491 . S
H165 C166 0.950 . S
C166 C163 1.390 . S
C166 H165 0.950 . S
C166 C167 1.378 1_554 S
C167 C166 1.378 1_556 S
C167 C168 1.409 . S
C168 C164 1.387 . S
C168 C167 1.409 . S
C168 H170 0.951 . S
C169 C164 1.491 . S
C169 C171 1.382 1_556 S
C169 C173 1.404 . S
H170 C168 0.951 . S
C171 C169 1.382 1_554 S
C171 C172 1.390 . S
C171 H176 0.949 . S
C172 C171 1.390 . S
C172 C177 1.399 1_554 S
C173 C169 1.404 . S
C173 H174 0.950 . S
C173 C175 1.375 . S
H174 C173 0.950 . S
C175 C173 1.375 . S
C175 C177 1.382 . S
C175 H179 0.950 . S
H176 C171 0.949 . S
C177 C172 1.399 1_556 S
C177 C175 1.382 . S
C177 H178 0.952 . S
H178 C177 0.952 . S
H179 C175 0.950 . S
H180 C181 0.949 . S
C181 H180 0.949 . S
C181 C182 1.395 . S
C181 C183 1.391 . S
C182 C181 1.395 . S
C182 C185 1.390 . S
C183 C181 1.391 . S
C183 C187 1.387 . S
C183 C188 1.491 . S
H184 C185 0.950 . S
C185 C182 1.390 . S
C185 H184 0.950 . S
C185 C186 1.378 . S
C186 C185 1.378 . S
C186 C187 1.409 . S
C187 C183 1.387 . S
C187 C186 1.409 . S
C187 H189 0.951 . S
C188 C183 1.491 . S
C188 C190 1.382 . S
C188 C192 1.404 . S
H189 C187 0.951 . S
C190 C188 1.382 . S
C190 C191 1.390 . S
C190 H195 0.949 . S
C191 C190 1.390 . S
C191 C196 1.399 . S
C192 C188 1.404 . S
C192 H193 0.950 . S
C192 C194 1.375 . S
H193 C192 0.950 . S
C194 C192 1.375 . S
C194 C196 1.382 . S
C194 H198 0.950 . S
H195 C190 0.949 . S
C196 C191 1.399 . S
C196 C194 1.382 . S
C196 H197 0.952 . S
H197 C196 0.952 . S
H198 C194 0.950 . S
H199 C200 0.949 . S
C200 H199 0.949 . S
C200 C201 1.395 . S
C200 C202 1.391 . S
C201 C200 1.395 . S
C201 C204 1.390 . S
C202 C200 1.391 . S
C202 C206 1.387 . S
C202 C207 1.491 . S
H203 C204 0.950 . S
C204 C201 1.390 . S
C204 H203 0.950 . S
C204 C205 1.378 . S
C205 C204 1.378 . S
C205 C206 1.409 . S
C206 C202 1.387 . S
C206 C205 1.409 . S
C206 H208 0.951 . S
C207 C202 1.491 . S
C207 C209 1.382 . S
C207 C211 1.404 . S
H208 C206 0.951 . S
C209 C207 1.382 . S
C209 C210 1.390 . S
C209 H214 0.949 . S
C210 C209 1.390 . S
C210 C215 1.399 . S
C211 C207 1.404 . S
C211 H212 0.950 . S
C211 C213 1.375 . S
H212 C211 0.950 . S
C213 C211 1.375 . S
C213 C215 1.382 . S
C213 H217 0.950 . S
H214 C209 0.949 . S
C215 C210 1.399 . S
C215 C213 1.382 . S
C215 H216 0.952 . S
H216 C215 0.952 . S
H217 C213 0.950 . S
H218 C219 0.949 . S
C219 H218 0.949 . S
C219 C220 1.395 . S
C219 C221 1.391 . S
C220 C219 1.395 . S
C220 C223 1.390 . S
C221 C219 1.391 . S
C221 C225 1.387 . S
C221 C226 1.491 . S
H222 C223 0.950 1_655 S
C223 C220 1.390 . S
C223 H222 0.950 1_455 S
C223 C224 1.378 . S
C224 C223 1.378 . S
C224 C225 1.409 . S
C225 C221 1.387 . S
C225 C224 1.409 . S
C225 H227 0.951 . S
C226 C221 1.491 . S
C226 C228 1.382 . S
C226 C230 1.404 . S
H227 C225 0.951 . S
C228 C226 1.382 . S
C228 C229 1.390 . S
C228 H233 0.949 . S
C229 C228 1.390 . S
C229 C234 1.399 . S
C230 C226 1.404 . S
C230 H231 0.950 . S
C230 C232 1.375 . S
H231 C230 0.950 . S
C232 C230 1.375 . S
C232 C234 1.382 . S
C232 H236 0.950 . S
H233 C228 0.949 . S
C234 C229 1.399 . S
C234 C232 1.382 . S
C234 H235 0.952 . S
H235 C234 0.952 . S
H236 C232 0.950 . S
H237 C238 0.949 . S
C238 H237 0.949 . S
C238 C239 1.395 . S
C238 C240 1.391 . S
C239 C238 1.395 . S
C239 C242 1.390 . S
C240 C238 1.391 . S
C240 C244 1.387 . S
C240 C245 1.491 . S
H241 C242 0.950 . S
C242 C239 1.390 . S
C242 H241 0.950 . S
C242 C243 1.378 . S
C243 C242 1.378 . S
C243 C244 1.409 . S
C244 C240 1.387 . S
C244 C243 1.409 . S
C244 H246 0.951 . S
C245 C240 1.491 . S
C245 C247 1.382 . S
C245 C249 1.404 . S
H246 C244 0.951 . S
C247 C245 1.382 . S
C247 C248 1.390 . S
C247 H252 0.949 . S
C248 C247 1.390 . S
C248 C253 1.399 . S
C249 C245 1.404 . S
C249 H250 0.950 . S
C249 C251 1.375 . S
H250 C249 0.950 . S
C251 C249 1.375 . S
C251 C253 1.382 . S
C251 H255 0.950 . S
H252 C247 0.949 . S
C253 C248 1.399 . S
C253 C251 1.382 . S
C253 H254 0.952 . S
H254 C253 0.952 . S
H255 C251 0.950 . S
C45 C115 1.571 . S
C30 C134 1.550 . S
C39 C153 1.307 . S
C172 C34 1.544 . S
C97 C191 1.571 . S
C210 C82 1.551 . S
C229 C91 1.305 . S
C248 C86 1.544 . S
C220 C26 1.596 . S
C243 C36 1.556 . S
C186 C32 1.652 . S
C205 C42 1.556 . S
C18 C201 1.806 . S
C224 C50 1.693 . S
C4 C239 1.792 . S
C48 C182 1.663 . S
C144 C78 1.596 . S
C88 C167 1.556 . S
C110 C84 1.652 . S
C129 C94 1.555 . S
C125 C70 1.806 . S
C148 C102 1.693 . S
C56 C163 1.792 . S
C100 C106 1.663 . S
