# Generated by pormake.
# Topology rtl, (3,6)-cn, num edge types: 1
# Building blocks:
#     Node 0, Type 0, BuildingBlock: INOVEN_clean_linker_0, # of connection points: 3
#     Node 1, Type 0, BuildingBlock: INOVEN_clean_linker_0, # of connection points: 3
#     Node 2, Type 0, BuildingBlock: INOVEN_clean_linker_0, # of connection points: 3
#     Node 3, Type 0, BuildingBlock: INOVEN_clean_linker_0, # of connection points: 3
#     Node 4, Type 1, BuildingBlock: VOLQOD_clean_sbu_1, # of connection points: 6
#     Node 5, Type 1, BuildingBlock: VOLQOD_clean_sbu_1, # of connection points: 6
#     Edge 6, Type (0, 1), BuildingBlock: AJUNOK_clean_linker_0, # of connection points: 2
#     Edge 7, Type (0, 1), BuildingBlock: AJUNOK_clean_linker_0, # of connection points: 2
#     Edge 8, Type (0, 1), BuildingBlock: AJUNOK_clean_linker_0, # of connection points: 2
#     Edge 9, Type (0, 1), BuildingBlock: AJUNOK_clean_linker_0, # of connection points: 2
#     Edge 10, Type (0, 1), BuildingBlock: AJUNOK_clean_linker_0, # of connection points: 2
#     Edge 11, Type (0, 1), BuildingBlock: AJUNOK_clean_linker_0, # of connection points: 2
#     Edge 12, Type (0, 1), BuildingBlock: AJUNOK_clean_linker_0, # of connection points: 2
#     Edge 13, Type (0, 1), BuildingBlock: AJUNOK_clean_linker_0, # of connection points: 2
#     Edge 14, Type (0, 1), BuildingBlock: AJUNOK_clean_linker_0, # of connection points: 2
#     Edge 15, Type (0, 1), BuildingBlock: AJUNOK_clean_linker_0, # of connection points: 2
#     Edge 16, Type (0, 1), BuildingBlock: AJUNOK_clean_linker_0, # of connection points: 2
#     Edge 17, Type (0, 1), BuildingBlock: AJUNOK_clean_linker_0, # of connection points: 2
# Relax obj value: 0.043
# Max RMSD: 0.144
# Mean RMSD: 0.090
data_MOF--net-rtl--node1-VOLQOD_clean_sbu_1--node2-INOVEN_clean_linker_0--edge1-AJUNOK_clean_linker_0
_symmetry_space_group_name_H-M    P1
_symmetry_Int_Tables_number       1
_symmetry_cell_setting            triclinic
loop_
_symmetry_equiv_pos_as_xyz
'x, y, z'
_cell_length_a     28.539689
_cell_length_b     27.462558
_cell_length_c     16.74494
_cell_angle_alpha  92.033191
_cell_angle_beta   91.854875
_cell_angle_gamma 89.927444
loop_
_atom_site_label
_atom_site_type_symbol
_atom_site_fract_x
_atom_site_fract_y
_atom_site_fract_z
_atom_type_partial_charge
H0 H 0.18171 0.77952 0.8476 0.0
H1 H 0.09989 0.88205 -0.0169 0.0
H2 H 0.18926 0.78071 0.10525 0.0
N3 N 0.224 0.73891 0.9691 0.0
N4 N 0.24647 0.72392 0.02834 0.0
C5 C 0.16978 0.79359 0.90476 0.0
C6 C 0.1385 0.83274 0.90757 0.0
C7 C 0.1884 0.77468 0.97554 0.0
C8 C 0.17431 0.79431 0.05008 0.0
C9 C 0.14225 0.83317 0.05287 0.0
C10 C 0.12429 0.85172 -0.01861 0.0
H11 H 0.69569 0.73863 0.65908 0.0
H12 H 0.60275 0.64155 0.52305 0.0
H13 H 0.69633 0.73349 0.4015 0.0
N14 N 0.73619 0.77611 0.53509 0.0
N15 N 0.76076 0.78369 0.47655 0.0
C16 C 0.68234 0.72358 0.60213 0.0
C17 C 0.64706 0.68785 0.59968 0.0
C18 C 0.70067 0.73989 0.53099 0.0
C19 C 0.68303 0.72069 0.45688 0.0
C20 C 0.64694 0.68613 0.45407 0.0
C21 C 0.62962 0.66953 0.52543 0.0
H22 H 0.82502 0.24054 0.85644 0.0
H23 H 0.91513 0.1422 -0.01676 0.0
H24 H 0.81998 0.23454 0.11278 0.0
N25 N 0.78264 0.27758 -0.01813 0.0
N26 N 0.75552 0.28457 0.03801 0.0
C27 C 0.83747 0.22536 0.91213 0.0
C28 C 0.87265 0.1898 0.9117 0.0
C29 C 0.81805 0.24138 -0.01582 0.0
C30 C 0.8342 0.22165 0.05668 0.0
C31 C 0.86982 0.18627 0.0567 0.0
C32 C 0.88851 0.17044 -0.01609 0.0
H33 H 0.32812 0.28324 0.35537 0.0
H34 H 0.41453 0.38306 0.49749 0.0
H35 H 0.32553 0.2829 0.61267 0.0
N36 N 0.28782 0.24214 0.47423 0.0
N37 N 0.26921 0.22448 0.53295 0.0
C38 C 0.34126 0.29685 0.41339 0.0
C39 C 0.37371 0.33507 0.41859 0.0
C40 C 0.32373 0.27772 0.48284 0.0
C41 C 0.33961 0.29657 0.55849 0.0
C42 C 0.37224 0.33487 0.56375 0.0
C43 C 0.38931 0.35346 0.49364 0.0
O44 O 0.89911 0.97248 0.48271 0.0
Zn45 Zn 0.94146 0.03163 0.48215 0.0
O46 O 0.0077 0.01177 0.48286 0.0
Zn47 Zn 0.0381 0.03684 0.5805 0.0
Zn48 Zn 0.01267 0.94049 0.4786 0.0
Zn49 Zn 0.03998 0.03862 0.39322 0.0
O50 O 0.09295 0.07848 0.56065 0.0
O51 O 0.09445 0.08254 0.4292 0.0
O52 O 0.92675 0.07506 0.57868 0.0
O53 O 0.99498 0.07734 0.64552 0.0
O54 O 0.06205 0.98344 0.64674 0.0
O55 O 0.04675 0.9152 0.57632 0.0
O56 O 0.04755 0.91644 0.38268 0.0
O57 O 0.92578 0.06978 0.38374 0.0
O58 O 0.06633 0.98443 0.32372 0.0
O59 O 0.99438 0.07712 0.32625 0.0
C60 C 0.9072 0.92684 0.47716 0.0
C61 C 0.11142 0.09408 0.49862 0.0
C62 C 0.06432 0.9374 0.63822 0.0
C63 C 0.95232 0.09009 0.63826 0.0
C64 C 0.06703 0.9381 0.32664 0.0
C65 C 0.95053 0.0859 0.32843 0.0
O66 O 0.9487 0.91014 0.47271 0.0
O67 O 0.6172 0.47175 0.01616 0.0
Zn68 Zn 0.57509 0.53127 0.01429 0.0
O69 O 0.5086 0.51211 0.00896 0.0
Zn70 Zn 0.47729 0.53847 0.91492 0.0
Zn71 Zn 0.50306 0.44103 0.00489 0.0
Zn72 Zn 0.47756 0.53772 0.10299 0.0
O73 O 0.42254 0.58149 0.94359 0.0
O74 O 0.42303 0.58039 0.07564 0.0
O75 O 0.59078 0.57115 0.91961 0.0
O76 O 0.52246 0.57792 0.85378 0.0
O77 O 0.45178 0.48426 0.84237 0.0
O78 O 0.47023 0.41617 0.90335 0.0
O79 O 0.46709 0.4167 0.0962 0.0
O80 O 0.59026 0.5728 0.11445 0.0
O81 O 0.45264 0.48428 0.16717 0.0
O82 O 0.52173 0.57719 0.17302 0.0
C83 C 0.60826 0.42633 0.01778 0.0
C84 C 0.40507 0.5945 0.00999 0.0
C85 C 0.45119 0.43795 0.84484 0.0
C86 C 0.5661 0.58746 0.86169 0.0
C87 C 0.45 0.43825 0.15701 0.0
C88 C 0.56487 0.58835 0.17118 0.0
O89 O 0.56644 0.41024 0.01407 0.0
C90 C 0.21177 0.17741 0.44778 0.0
C91 C 0.23174 0.19061 0.52351 0.0
C92 C 0.17318 0.14585 0.44025 0.0
C93 C 0.15313 0.1264 0.50799 0.0
H94 H 0.22558 0.19194 0.39406 0.0
H95 H 0.15875 0.1371 0.38086 0.0
S96 S 0.1944 0.14936 0.71916 0.0
N97 N 0.23005 0.18176 0.66633 0.0
N98 N 0.15772 0.12225 0.65357 0.0
C99 C 0.17355 0.13901 0.58392 0.0
C100 C 0.21276 0.17114 0.59117 0.0
C101 C 0.30882 0.67681 0.08965 0.0
C102 C 0.28382 0.68995 0.02045 0.0
C103 C 0.34769 0.64576 0.08565 0.0
C104 C 0.36318 0.62665 0.01181 0.0
H105 H 0.29849 0.69133 0.14745 0.0
H106 H 0.36599 0.63722 0.14108 0.0
S107 S 0.30814 0.64833 0.81207 0.0
N108 N 0.2761 0.68038 0.87519 0.0
N109 N 0.34909 0.62206 0.8675 0.0
C110 C 0.33787 0.63895 0.94176 0.0
C111 C 0.29817 0.67057 0.94596 0.0
C112 C 0.83406 0.81407 0.42896 0.0
C113 C 0.79567 0.82048 0.47829 0.0
C114 C 0.86999 0.84875 0.42895 0.0
C115 C 0.86789 0.89191 0.47649 0.0
H116 H 0.83666 0.78139 0.3912 0.0
H117 H 0.89949 0.84186 0.391 0.0
S118 S 0.77296 0.92755 0.61296 0.0
N119 N 0.75656 0.87379 0.57446 0.0
N120 N 0.82345 0.93991 0.57261 0.0
C121 C 0.82886 0.89952 0.52453 0.0
C122 C 0.79282 0.86355 0.526 0.0
C123 C 0.7237 0.36124 -0.01435 0.0
C124 C 0.72028 0.32099 0.03508 0.0
C125 C 0.6878 0.39615 -0.01807 0.0
C126 C 0.64703 0.39115 0.02583 0.0
H127 H 0.75422 0.3658 0.94987 0.0
H128 H 0.6914 0.42647 0.94291 0.0
S129 S 0.62271 0.29339 0.16609 0.0
N130 N 0.67472 0.27944 0.13113 0.0
N131 N 0.60626 0.34387 0.12224 0.0
C132 C 0.64368 0.3514 0.07601 0.0
C133 C 0.68067 0.31669 0.08118 0.0
C134 C 0.13325 0.9082 0.13849 0.0
C135 C 0.12879 0.85735 0.12908 0.0
C136 C 0.11436 0.9336 0.20368 0.0
C137 C 0.0901 0.90921 0.26226 0.0
H138 H 0.15038 0.92873 0.09365 0.0
H139 H 0.11795 0.97289 0.20688 0.0
S140 S 0.07163 0.77531 0.26717 0.0
N141 N 0.10068 0.78291 0.18482 0.0
N142 N 0.06516 0.83033 0.30844 0.0
C143 C 0.08725 0.85788 0.25531 0.0
C144 C 0.10667 0.83203 0.18855 0.0
C145 C 0.57919 0.66505 0.68067 0.0
C146 C 0.628 0.66832 0.67341 0.0
C147 C 0.55973 0.6401 0.74299 0.0
C148 C 0.58827 0.61727 0.8008 0.0
H149 H 0.55576 0.68083 0.63639 0.0
H150 H 0.52188 0.63788 0.74459 0.0
S151 S 0.71859 0.61756 0.81056 0.0
N152 N 0.70466 0.64853 0.73046 0.0
N153 N 0.66834 0.60189 0.84859 0.0
C154 C 0.63732 0.6221 0.79613 0.0
C155 C 0.6571 0.6476 0.7323 0.0
C156 C 0.93739 0.16282 0.14526 0.0
C157 C 0.8886 0.16536 0.13167 0.0
C158 C 0.9568 0.1381 0.20998 0.0
C159 C 0.92825 0.11481 0.26407 0.0
H160 H 0.96088 0.17932 0.10442 0.0
H161 H 0.99465 0.13666 0.21665 0.0
S162 S 0.79794 0.11257 0.25643 0.0
N163 N 0.8119 0.14396 0.17834 0.0
N164 N 0.84814 0.09774 0.30102 0.0
C165 C 0.87918 0.1186 0.25276 0.0
C166 C 0.85943 0.14386 0.18643 0.0
C167 C 0.38315 0.40933 0.65085 0.0
C168 C 0.38722 0.35851 0.64109 0.0
C169 C 0.40303 0.43427 0.7177 0.0
C170 C 0.42792 0.40943 0.77775 0.0
H171 H 0.36543 0.4302 0.60515 0.0
H172 H 0.3995 0.47356 0.72126 0.0
S173 S 0.44604 0.27542 0.78201 0.0
N174 N 0.41589 0.2836 0.69769 0.0
N175 N 0.4533 0.3302 0.82455 0.0
C176 C 0.43059 0.35813 0.77022 0.0
C177 C 0.41015 0.33273 0.70168 0.0
C178 C 0.65484 0.64281 0.3211 0.0
C179 C 0.62654 0.66694 0.37707 0.0
C180 C 0.63484 0.61886 0.25282 0.0
C181 C 0.58591 0.61833 0.23846 0.0
H182 H 0.69241 0.64071 0.33187 0.0
H183 H 0.65777 0.59914 0.21275 0.0
S184 S 0.49766 0.68276 0.36207 0.0
N185 N 0.54818 0.69345 0.41019 0.0
N186 N 0.51033 0.64888 0.28227 0.0
C187 C 0.55765 0.64487 0.29211 0.0
C188 C 0.57804 0.66905 0.36133 0.0
C189 C 0.86377 0.14853 0.77664 0.0
C190 C 0.89268 0.17134 0.83628 0.0
C191 C 0.88317 0.12387 0.71071 0.0
C192 C 0.9321 0.12128 0.7025 0.0
H193 H 0.82612 0.14776 0.78295 0.0
H194 H 0.85974 0.10506 0.66783 0.0
S195 S 0.02206 0.18186 0.83735 0.0
N196 N 0.97175 0.19455 0.8793 0.0
N197 N 0.00854 0.14874 0.75569 0.0
C198 C 0.96106 0.14672 0.75961 0.0
C199 C 0.94126 0.17161 0.82646 0.0
C200 C 0.38401 0.40954 0.34167 0.0
C201 C 0.38931 0.35892 0.34661 0.0
C202 C 0.40268 0.43446 0.27891 0.0
C203 C 0.42752 0.40972 0.21859 0.0
H204 H 0.36596 0.43021 0.38768 0.0
H205 H 0.39819 0.47363 0.27869 0.0
S206 S 0.4495 0.27633 0.2035 0.0
N207 N 0.41958 0.28431 0.28573 0.0
N208 N 0.45497 0.33098 0.1667 0.0
C209 C 0.43172 0.35862 0.22149 0.0
C210 C 0.4125 0.33324 0.28575 0.0
C211 C 0.09605 0.83397 0.77467 0.0
C212 C 0.124 0.85772 0.83454 0.0
C213 C 0.07787 0.8596 0.70958 0.0
C214 C 0.08719 0.90964 0.70274 0.0
H215 H 0.08688 0.79596 0.77974 0.0
H216 H 0.05515 0.84047 0.66594 0.0
S217 S 0.1642 0.98599 0.83958 0.0
N218 N 0.16399 0.93203 0.8799 0.0
N219 N 0.1304 0.98036 0.75793 0.0
C220 C 0.11725 0.93287 0.76059 0.0
C221 C 0.13553 0.90683 0.82646 0.0
loop_
_geom_bond_atom_site_label_1
_geom_bond_atom_site_label_2
_geom_bond_distance
_geom_bond_site_symmetry_2
_ccdc_geom_bond_type
H0 C5 0.929 . S
H1 C10 0.931 . S
H2 C8 0.930 . S
N3 N4 1.234 1_556 S
N3 C7 1.454 . S
N4 N3 1.234 1_554 S
C5 H0 0.929 . S
C5 C6 1.373 . S
C5 C7 1.372 . S
C6 C5 1.373 . S
C6 C10 1.397 1_556 S
C7 N3 1.454 . S
C7 C5 1.372 . S
C7 C8 1.368 1_556 S
C8 H2 0.930 . S
C8 C7 1.368 1_554 S
C8 C9 1.371 . S
C9 C8 1.371 . S
C9 C10 1.383 . S
C10 H1 0.931 . S
C10 C6 1.397 1_554 S
C10 C9 1.383 . S
H11 C16 0.929 . S
H12 C21 0.931 . S
H13 C19 0.930 . S
N14 N15 1.234 . S
N14 C18 1.453 . S
N15 N14 1.234 . S
C16 H11 0.929 . S
C16 C17 1.373 . S
C16 C18 1.368 . S
C17 C16 1.373 . S
C17 C21 1.397 . S
C18 N14 1.453 . S
C18 C16 1.368 . S
C18 C19 1.373 . S
C19 H13 0.930 . S
C19 C18 1.373 . S
C19 C20 1.371 . S
C20 C19 1.371 . S
C20 C21 1.383 . S
C21 H12 0.931 . S
C21 C17 1.397 . S
C21 C20 1.383 . S
H22 C27 0.929 . S
H23 C32 0.931 . S
H24 C30 0.930 . S
N25 N26 1.234 1_556 S
N25 C29 1.453 1_556 S
N26 N25 1.234 1_554 S
C27 H22 0.929 . S
C27 C28 1.373 . S
C27 C29 1.368 1_556 S
C28 C27 1.373 . S
C28 C32 1.397 1_556 S
C29 N25 1.453 1_554 S
C29 C27 1.368 1_554 S
C29 C30 1.373 . S
C30 H24 0.930 . S
C30 C29 1.373 . S
C30 C31 1.371 . S
C31 C30 1.371 . S
C31 C32 1.383 . S
C32 H23 0.931 . S
C32 C28 1.397 1_554 S
C32 C31 1.383 . S
H33 C38 0.929 . S
H34 C43 0.931 . S
H35 C41 0.930 . S
N36 N37 1.234 . S
N36 C40 1.453 . S
N37 N36 1.234 . S
C38 H33 0.929 . S
C38 C39 1.373 . S
C38 C40 1.368 . S
C39 C38 1.373 . S
C39 C43 1.397 . S
C40 N36 1.453 . S
C40 C38 1.368 . S
C40 C41 1.373 . S
C41 H35 0.930 . S
C41 C40 1.373 . S
C41 C42 1.371 . S
C42 C41 1.371 . S
C42 C43 1.383 . S
C43 H34 0.931 . S
C43 C39 1.397 . S
C43 C42 1.383 . S
O44 Zn45 1.953 1_565 S
O44 C60 1.225 . S
Zn45 O44 1.953 1_545 S
Zn45 O46 1.949 1_655 S
Zn45 O52 1.919 . S
Zn45 O57 1.924 . S
O46 Zn45 1.949 1_455 S
O46 Zn47 1.923 . S
O46 Zn48 1.950 1_545 S
O46 Zn49 1.945 . S
Zn47 O46 1.923 . S
Zn47 O50 1.933 . S
Zn47 O53 1.941 . S
Zn47 O54 1.965 1_545 S
Zn48 O46 1.950 1_565 S
Zn48 O55 1.938 . S
Zn48 O56 1.906 . S
Zn48 O66 1.953 1_455 S
Zn49 O46 1.945 . S
Zn49 O51 1.932 . S
Zn49 O58 1.977 1_545 S
Zn49 O59 1.910 1_455 S
O50 Zn47 1.933 . S
O50 C61 1.226 . S
O51 Zn49 1.932 . S
O51 C61 1.307 . S
O52 Zn45 1.919 . S
O52 C63 1.253 . S
O53 Zn47 1.941 . S
O53 C63 1.283 1_455 S
O54 Zn47 1.965 1_565 S
O54 C62 1.303 . S
O55 Zn48 1.938 . S
O55 C62 1.247 . S
O56 Zn48 1.906 . S
O56 C64 1.304 . S
O57 Zn45 1.924 . S
O57 C65 1.311 . S
O58 Zn49 1.977 1_565 S
O58 C64 1.272 . S
O59 Zn49 1.910 1_655 S
O59 C65 1.231 . S
C60 O44 1.225 . S
C60 O66 1.298 . S
C61 O50 1.226 . S
C61 O51 1.307 . S
C62 O54 1.303 . S
C62 O55 1.247 . S
C63 O52 1.253 . S
C63 O53 1.283 1_655 S
C64 O56 1.304 . S
C64 O58 1.272 . S
C65 O57 1.311 . S
C65 O59 1.231 . S
O66 Zn48 1.953 1_655 S
O66 C60 1.298 . S
O67 Zn68 1.953 . S
O67 C83 1.225 . S
Zn68 O67 1.953 . S
Zn68 O69 1.949 . S
Zn68 O75 1.919 1_554 S
Zn68 O80 1.924 . S
O69 Zn68 1.949 . S
O69 Zn70 1.923 1_554 S
O69 Zn71 1.950 . S
O69 Zn72 1.945 . S
Zn70 O69 1.923 1_556 S
Zn70 O73 1.933 . S
Zn70 O76 1.941 . S
Zn70 O77 1.965 . S
Zn71 O69 1.950 . S
Zn71 O78 1.938 1_554 S
Zn71 O79 1.906 . S
Zn71 O89 1.953 . S
Zn72 O69 1.945 . S
Zn72 O74 1.932 . S
Zn72 O81 1.977 . S
Zn72 O82 1.910 . S
O73 Zn70 1.933 . S
O73 C84 1.226 1_556 S
O74 Zn72 1.932 . S
O74 C84 1.307 . S
O75 Zn68 1.919 1_556 S
O75 C86 1.253 . S
O76 Zn70 1.941 . S
O76 C86 1.283 . S
O77 Zn70 1.965 . S
O77 C85 1.303 . S
O78 Zn71 1.938 1_556 S
O78 C85 1.247 . S
O79 Zn71 1.906 . S
O79 C87 1.304 . S
O80 Zn68 1.924 . S
O80 C88 1.311 . S
O81 Zn72 1.977 . S
O81 C87 1.272 . S
O82 Zn72 1.910 . S
O82 C88 1.231 . S
C83 O67 1.225 . S
C83 O89 1.298 . S
C84 O73 1.226 1_554 S
C84 O74 1.307 . S
C85 O77 1.303 . S
C85 O78 1.247 . S
C86 O75 1.253 . S
C86 O76 1.283 . S
C87 O79 1.304 . S
C87 O81 1.272 . S
C88 O80 1.311 . S
C88 O82 1.231 . S
O89 Zn71 1.953 . S
O89 C83 1.298 . S
C90 C91 1.369 . S
C90 C92 1.419 . S
C90 H94 0.930 . S
C91 C90 1.369 . S
C91 C100 1.429 . S
C92 C90 1.419 . S
C92 C93 1.363 . S
C92 H95 0.929 . S
C93 C92 1.363 . S
C93 C99 1.428 . S
H94 C90 0.930 . S
H95 C92 0.929 . S
S96 N97 1.613 . S
S96 N98 1.610 . S
N97 S96 1.613 . S
N97 C100 1.350 . S
N98 S96 1.610 . S
N98 C99 1.351 . S
C99 C93 1.428 . S
C99 N98 1.351 . S
C99 C100 1.434 . S
C100 C91 1.429 . S
C100 N97 1.350 . S
C100 C99 1.434 . S
C101 C102 1.369 . S
C101 C103 1.419 . S
C101 H105 0.930 . S
C102 C101 1.369 . S
C102 C111 1.429 1_554 S
C103 C101 1.419 . S
C103 C104 1.363 . S
C103 H106 0.929 . S
C104 C103 1.363 . S
C104 C110 1.428 1_554 S
H105 C101 0.930 . S
H106 C103 0.929 . S
S107 N108 1.613 . S
S107 N109 1.610 . S
N108 S107 1.613 . S
N108 C111 1.350 . S
N109 S107 1.610 . S
N109 C110 1.351 . S
C110 C104 1.428 1_556 S
C110 N109 1.351 . S
C110 C111 1.434 . S
C111 C102 1.429 1_556 S
C111 N108 1.350 . S
C111 C110 1.434 . S
C112 C113 1.369 . S
C112 C114 1.419 . S
C112 H116 0.930 . S
C113 C112 1.369 . S
C113 C122 1.429 . S
C114 C112 1.419 . S
C114 C115 1.363 . S
C114 H117 0.929 . S
C115 C114 1.363 . S
C115 C121 1.428 . S
H116 C112 0.930 . S
H117 C114 0.929 . S
S118 N119 1.613 . S
S118 N120 1.610 . S
N119 S118 1.613 . S
N119 C122 1.350 . S
N120 S118 1.610 . S
N120 C121 1.351 . S
C121 C115 1.428 . S
C121 N120 1.351 . S
C121 C122 1.434 . S
C122 C113 1.429 . S
C122 N119 1.350 . S
C122 C121 1.434 . S
C123 C124 1.369 . S
C123 C125 1.419 . S
C123 H127 0.930 . S
C124 C123 1.369 . S
C124 C133 1.429 . S
C125 C123 1.419 . S
C125 C126 1.363 . S
C125 H128 0.933 . S
C126 C125 1.363 . S
C126 C132 1.428 . S
H127 C123 0.930 . S
H128 C125 0.933 . S
S129 N130 1.613 . S
S129 N131 1.610 . S
N130 S129 1.613 . S
N130 C133 1.350 . S
N131 S129 1.610 . S
N131 C132 1.351 . S
C132 C126 1.428 . S
C132 N131 1.351 . S
C132 C133 1.434 . S
C133 C124 1.429 . S
C133 N130 1.350 . S
C133 C132 1.434 . S
C134 C135 1.369 . S
C134 C136 1.419 . S
C134 H138 0.930 . S
C135 C134 1.369 . S
C135 C144 1.429 . S
C136 C134 1.419 . S
C136 C137 1.363 . S
C136 H139 0.929 . S
C137 C136 1.363 . S
C137 C143 1.428 . S
H138 C134 0.930 . S
H139 C136 0.929 . S
S140 N141 1.613 . S
S140 N142 1.610 . S
N141 S140 1.613 . S
N141 C144 1.350 . S
N142 S140 1.610 . S
N142 C143 1.351 . S
C143 C137 1.428 . S
C143 N142 1.351 . S
C143 C144 1.434 . S
C144 C135 1.429 . S
C144 N141 1.350 . S
C144 C143 1.434 . S
C145 C146 1.369 . S
C145 C147 1.419 . S
C145 H149 0.930 . S
C146 C145 1.369 . S
C146 C155 1.429 . S
C147 C145 1.419 . S
C147 C148 1.363 . S
C147 H150 0.929 . S
C148 C147 1.363 . S
C148 C154 1.428 . S
H149 C145 0.930 . S
H150 C147 0.929 . S
S151 N152 1.613 . S
S151 N153 1.610 . S
N152 S151 1.613 . S
N152 C155 1.350 . S
N153 S151 1.610 . S
N153 C154 1.351 . S
C154 C148 1.428 . S
C154 N153 1.351 . S
C154 C155 1.434 . S
C155 C146 1.429 . S
C155 N152 1.350 . S
C155 C154 1.434 . S
C156 C157 1.369 . S
C156 C158 1.419 . S
C156 H160 0.930 . S
C157 C156 1.369 . S
C157 C166 1.429 . S
C158 C156 1.419 . S
C158 C159 1.363 . S
C158 H161 0.929 . S
C159 C158 1.363 . S
C159 C165 1.428 . S
H160 C156 0.930 . S
H161 C158 0.929 . S
S162 N163 1.613 . S
S162 N164 1.610 . S
N163 S162 1.613 . S
N163 C166 1.350 . S
N164 S162 1.610 . S
N164 C165 1.351 . S
C165 C159 1.428 . S
C165 N164 1.351 . S
C165 C166 1.434 . S
C166 C157 1.429 . S
C166 N163 1.350 . S
C166 C165 1.434 . S
C167 C168 1.369 . S
C167 C169 1.419 . S
C167 H171 0.930 . S
C168 C167 1.369 . S
C168 C177 1.429 . S
C169 C167 1.419 . S
C169 C170 1.363 . S
C169 H172 0.929 . S
C170 C169 1.363 . S
C170 C176 1.428 . S
H171 C167 0.930 . S
H172 C169 0.929 . S
S173 N174 1.613 . S
S173 N175 1.610 . S
N174 S173 1.613 . S
N174 C177 1.350 . S
N175 S173 1.610 . S
N175 C176 1.351 . S
C176 C170 1.428 . S
C176 N175 1.351 . S
C176 C177 1.434 . S
C177 C168 1.429 . S
C177 N174 1.350 . S
C177 C176 1.434 . S
C178 C179 1.369 . S
C178 C180 1.419 . S
C178 H182 0.930 . S
C179 C178 1.369 . S
C179 C188 1.429 . S
C180 C178 1.419 . S
C180 C181 1.363 . S
C180 H183 0.929 . S
C181 C180 1.363 . S
C181 C187 1.428 . S
H182 C178 0.930 . S
H183 C180 0.929 . S
S184 N185 1.613 . S
S184 N186 1.610 . S
N185 S184 1.613 . S
N185 C188 1.350 . S
N186 S184 1.610 . S
N186 C187 1.351 . S
C187 C181 1.428 . S
C187 N186 1.351 . S
C187 C188 1.434 . S
C188 C179 1.429 . S
C188 N185 1.350 . S
C188 C187 1.434 . S
C189 C190 1.369 . S
C189 C191 1.419 . S
C189 H193 0.930 . S
C190 C189 1.369 . S
C190 C199 1.429 . S
C191 C189 1.419 . S
C191 C192 1.363 . S
C191 H194 0.929 . S
C192 C191 1.363 . S
C192 C198 1.428 . S
H193 C189 0.930 . S
H194 C191 0.929 . S
S195 N196 1.613 . S
S195 N197 1.610 . S
N196 S195 1.613 . S
N196 C199 1.350 . S
N197 S195 1.610 . S
N197 C198 1.351 . S
C198 C192 1.428 . S
C198 N197 1.351 . S
C198 C199 1.434 . S
C199 C190 1.429 . S
C199 N196 1.350 . S
C199 C198 1.434 . S
C200 C201 1.369 . S
C200 C202 1.419 . S
C200 H204 0.930 . S
C201 C200 1.369 . S
C201 C210 1.429 . S
C202 C200 1.419 . S
C202 C203 1.363 . S
C202 H205 0.929 . S
C203 C202 1.363 . S
C203 C209 1.428 . S
H204 C200 0.930 . S
H205 C202 0.929 . S
S206 N207 1.613 . S
S206 N208 1.610 . S
N207 S206 1.613 . S
N207 C210 1.350 . S
N208 S206 1.610 . S
N208 C209 1.351 . S
C209 C203 1.428 . S
C209 N208 1.351 . S
C209 C210 1.434 . S
C210 C201 1.429 . S
C210 N207 1.350 . S
C210 C209 1.434 . S
C211 C212 1.369 . S
C211 C213 1.419 . S
C211 H215 0.930 . S
C212 C211 1.369 . S
C212 C221 1.429 . S
C213 C211 1.419 . S
C213 C214 1.363 . S
C213 H216 0.929 . S
C214 C213 1.363 . S
C214 C220 1.428 . S
H215 C211 0.930 . S
H216 C213 0.929 . S
S217 N218 1.613 . S
S217 N219 1.610 . S
N218 S217 1.613 . S
N218 C221 1.350 . S
N219 S217 1.610 . S
N219 C220 1.351 . S
C220 C214 1.428 . S
C220 N219 1.351 . S
C220 C221 1.434 . S
C221 C212 1.429 . S
C221 N218 1.350 . S
C221 C220 1.434 . S
C93 C61 1.492 . S
C91 N37 1.493 . S
C102 N4 1.494 . S
C104 C84 1.495 . S
C113 N15 1.510 . S
C115 C60 1.515 . S
C124 N26 1.510 . S
C126 C83 1.516 . S
C137 C64 1.495 . S
C135 C9 1.529 . S
C148 C86 1.492 . S
C146 C17 1.556 . S
C157 C31 1.560 . S
C159 C65 1.504 . S
C168 C42 1.534 . S
C170 C85 1.496 . S
C181 C88 1.423 . S
C179 C20 1.478 . S
C192 C63 1.424 . S
C190 C28 1.487 . S
C203 C87 1.420 . S
C201 C39 1.470 . S
C212 C6 1.471 . S
C214 C62 1.414 . S
