# Generated by pormake.
# Topology hwx, (6,3)-cn, num edge types: 1
# Building blocks:
#     Node 0, Type 0, BuildingBlock: OJICUG_clean_sbu_0, # of connection points: 6
#     Node 1, Type 0, BuildingBlock: OJICUG_clean_sbu_0, # of connection points: 6
#     Node 2, Type 0, BuildingBlock: OJICUG_clean_sbu_0, # of connection points: 6
#     Node 3, Type 0, BuildingBlock: OJICUG_clean_sbu_0, # of connection points: 6
#     Node 4, Type 1, BuildingBlock: ESEHIV_clean_linker_0, # of connection points: 3
#     Node 5, Type 1, BuildingBlock: ESEHIV_clean_linker_0, # of connection points: 3
#     Node 6, Type 1, BuildingBlock: ESEHIV_clean_linker_0, # of connection points: 3
#     Node 7, Type 1, BuildingBlock: ESEHIV_clean_linker_0, # of connection points: 3
#     Node 8, Type 1, BuildingBlock: ESEHIV_clean_linker_0, # of connection points: 3
#     Node 9, Type 1, BuildingBlock: ESEHIV_clean_linker_0, # of connection points: 3
#     Node 10, Type 1, BuildingBlock: ESEHIV_clean_linker_0, # of connection points: 3
#     Node 11, Type 1, BuildingBlock: ESEHIV_clean_linker_0, # of connection points: 3
#     Edge 12, Type (0, 1), None
#     Edge 13, Type (0, 1), None
#     Edge 14, Type (0, 1), None
#     Edge 15, Type (0, 1), None
#     Edge 16, Type (0, 1), None
#     Edge 17, Type (0, 1), None
#     Edge 18, Type (0, 1), None
#     Edge 19, Type (0, 1), None
#     Edge 20, Type (0, 1), None
#     Edge 21, Type (0, 1), None
#     Edge 22, Type (0, 1), None
#     Edge 23, Type (0, 1), None
#     Edge 24, Type (0, 1), None
#     Edge 25, Type (0, 1), None
#     Edge 26, Type (0, 1), None
#     Edge 27, Type (0, 1), None
#     Edge 28, Type (0, 1), None
#     Edge 29, Type (0, 1), None
#     Edge 30, Type (0, 1), None
#     Edge 31, Type (0, 1), None
#     Edge 32, Type (0, 1), None
#     Edge 33, Type (0, 1), None
#     Edge 34, Type (0, 1), None
#     Edge 35, Type (0, 1), None
# Relax obj value: 0.076
# Max RMSD: 0.101
# Mean RMSD: 0.093
data_MOF--net-hwx--node1-OJICUG_clean_sbu_0--node2-ESEHIV_clean_linker_0--edge1-none
_symmetry_space_group_name_H-M    P1
_symmetry_Int_Tables_number       1
_symmetry_cell_setting            triclinic
loop_
_symmetry_equiv_pos_as_xyz
'x, y, z'
_cell_length_a     20.252853
_cell_length_b     20.252743
_cell_length_c     9.8219993
_cell_angle_alpha  89.992451
_cell_angle_beta   90.00671
_cell_angle_gamma 89.998446
loop_
_atom_site_label
_atom_site_type_symbol
_atom_site_fract_x
_atom_site_fract_y
_atom_site_fract_z
_atom_type_partial_charge
Sc0 Sc 0.26916 0.27146 0.13479 0.0
Sc1 Sc 0.16201 0.16201 -0.04072 0.0
Sc2 Sc 0.27146 0.26916 0.78377 0.0
O3 O 0.23375 0.23375 -0.04072 0.0
C4 C 0.26035 0.40159 0.95481 0.0
C5 C 0.11755 0.25436 0.20804 0.0
C6 C 0.11902 0.24895 0.70424 0.0
C7 C 0.24895 0.11902 0.21433 0.0
C8 C 0.40159 0.26034 -0.03625 0.0
C9 C 0.25436 0.11755 0.71053 0.0
O10 O 0.26742 0.37225 0.06782 0.0
O11 O 0.10613 0.2087 0.12189 0.0
O12 O 0.17669 0.27259 0.69174 0.0
O13 O 0.27259 0.17669 0.22682 0.0
O14 O 0.37225 0.26741 0.85073 0.0
O15 O 0.20869 0.10613 0.79668 0.0
O16 O 0.37081 0.25862 0.07636 0.0
O17 O 0.21139 0.10267 0.1155 0.0
O18 O 0.28597 0.17175 0.70585 0.0
O19 O 0.17175 0.28597 0.21272 0.0
O20 O 0.25863 0.37081 0.84219 0.0
O21 O 0.10267 0.21139 0.80307 0.0
Sc22 Sc 0.21582 0.77156 0.2841 0.0
Sc23 Sc 0.32281 0.66202 0.45972 0.0
Sc24 Sc 0.21324 0.76904 0.63511 0.0
O25 O 0.25108 0.73375 0.45965 0.0
C26 C 0.22447 0.90156 0.46438 0.0
C27 C 0.36738 0.75446 0.21106 0.0
C28 C 0.36569 0.74881 0.71484 0.0
C29 C 0.23605 0.61911 0.20457 0.0
C30 C 0.08325 0.76033 0.4546 0.0
C31 C 0.23036 0.61749 0.70836 0.0
O32 O 0.21727 0.87228 0.35136 0.0
O33 O 0.37862 0.70857 0.29683 0.0
O34 O 0.30792 0.77219 0.72754 0.0
O35 O 0.21269 0.67688 0.19181 0.0
O36 O 0.1125 0.76754 0.56767 0.0
O37 O 0.27623 0.60624 0.6226 0.0
O38 O 0.11412 0.75847 0.34209 0.0
O39 O 0.27332 0.60261 0.30378 0.0
O40 O 0.19848 0.67155 0.71264 0.0
O41 O 0.31332 0.78634 0.20673 0.0
O42 O 0.22632 0.87073 0.57695 0.0
O43 O 0.3822 0.71154 0.61566 0.0
Sc44 Sc 0.71316 0.71593 0.78377 0.0
Sc45 Sc 0.82281 0.82281 -0.04074 0.0
Sc46 Sc 0.71592 0.71316 0.13476 0.0
O47 O 0.75108 0.75109 -0.04074 0.0
C48 C 0.58328 0.7245 -0.03547 0.0
C49 C 0.73027 0.86744 0.7107 0.0
C50 C 0.73617 0.86562 0.21448 0.0
C51 C 0.86561 0.73617 0.70404 0.0
C52 C 0.72449 0.58329 0.954 0.0
C53 C 0.86744 0.73027 0.20782 0.0
O54 O 0.61248 0.71719 0.85145 0.0
O55 O 0.77633 0.87853 0.79614 0.0
O56 O 0.71303 0.80777 0.22741 0.0
O57 O 0.80776 0.71303 0.69111 0.0
O58 O 0.71718 0.61249 0.06708 0.0
O59 O 0.87852 0.77633 0.12237 0.0
O60 O 0.72645 0.6142 0.84153 0.0
O61 O 0.88225 0.77318 0.80354 0.0
O62 O 0.8135 0.69817 0.21181 0.0
O63 O 0.69817 0.81351 0.70671 0.0
O64 O 0.61419 0.72646 0.077 0.0
O65 O 0.77319 0.88225 0.11497 0.0
Sc66 Sc 0.77155 0.21582 0.63444 0.0
Sc67 Sc 0.66201 0.32282 0.45882 0.0
Sc68 Sc 0.76905 0.21325 0.28343 0.0
O69 O 0.73375 0.25108 0.45889 0.0
C70 C 0.90156 0.22448 0.45418 0.0
C71 C 0.75445 0.36739 0.70749 0.0
C72 C 0.74882 0.3657 0.2037 0.0
C73 C 0.61911 0.23604 0.71396 0.0
C74 C 0.76033 0.08326 0.46392 0.0
C75 C 0.6175 0.23036 0.21017 0.0
O76 O 0.87228 0.21729 0.5672 0.0
O77 O 0.70857 0.37863 0.62169 0.0
O78 O 0.77221 0.30794 0.19102 0.0
O79 O 0.67687 0.21266 0.72671 0.0
O80 O 0.76754 0.11251 0.35084 0.0
O81 O 0.60623 0.27623 0.29595 0.0
O82 O 0.75848 0.11412 0.57643 0.0
O83 O 0.60261 0.27332 0.61477 0.0
O84 O 0.67157 0.1985 0.20586 0.0
O85 O 0.78631 0.31332 0.71184 0.0
O86 O 0.87074 0.22632 0.34161 0.0
O87 O 0.71153 0.3822 0.30286 0.0
H88 H 0.20812 0.6605 0.95553 0.0
H89 H 0.24879 0.48337 0.73508 0.0
H90 H 0.25508 0.48404 0.17626 0.0
C91 C 0.21802 0.60793 0.95663 0.0
C92 C 0.23056 0.57648 0.08143 0.0
C93 C 0.22653 0.57572 0.83184 0.0
C94 C 0.24214 0.50844 0.83159 0.0
C95 C 0.24959 0.47393 0.95566 0.0
C96 C 0.24591 0.50895 0.08048 0.0
H97 H 0.82431 0.70817 0.4549 0.0
H98 H 0.00155 0.74869 0.23472 0.0
H99 H 0.00069 0.75514 0.67589 0.0
C100 C 0.87688 0.71805 0.45611 0.0
C101 C 0.90828 0.73064 0.58094 0.0
C102 C 0.90916 0.72649 0.33137 0.0
C103 C 0.97644 0.74208 0.3312 0.0
C104 C 0.0109 0.74957 0.45532 0.0
C105 C 0.97582 0.74595 0.58008 0.0
H106 H 0.77668 0.32434 0.95465 0.0
H107 H 0.72978 0.50077 0.17538 0.0
H108 H 0.73603 0.50154 0.73419 0.0
C109 C 0.7668 0.37692 0.95575 0.0
C110 C 0.75828 0.40916 0.83095 0.0
C111 C 0.75428 0.40835 0.08054 0.0
C112 C 0.73894 0.47588 0.07958 0.0
C113 C 0.73525 0.51093 0.95477 0.0
C114 C 0.74269 0.47644 0.83069 0.0
H115 H 0.16046 0.27676 0.45529 0.0
H116 H 0.98397 0.22985 0.67574 0.0
H117 H 0.9834 0.23594 0.23454 0.0
C118 C 0.10789 0.26686 0.45627 0.0
C119 C 0.07572 0.25825 0.33142 0.0
C120 C 0.07641 0.25438 0.58103 0.0
C121 C 0.00889 0.23899 0.57998 0.0
C122 C 0.97391 0.23525 0.4551 0.0
C123 C 0.00845 0.24265 0.33107 0.0
H124 H 0.70817 0.82431 0.46362 0.0
H125 H 0.7487 0.00155 0.68379 0.0
H126 H 0.75514 0.0007 0.24263 0.0
C127 C 0.71805 0.87689 0.46241 0.0
C128 C 0.73064 0.90829 0.33757 0.0
C129 C 0.72649 0.90916 0.58715 0.0
C130 C 0.74208 0.97644 0.58732 0.0
C131 C 0.74958 0.0109 0.4632 0.0
C132 C 0.74595 0.97583 0.33844 0.0
H133 H 0.6605 0.20812 -0.037 0.0
H134 H 0.48338 0.24879 0.18347 0.0
H135 H 0.48404 0.25507 0.74228 0.0
C136 C 0.60793 0.21801 -0.0381 0.0
C137 C 0.57648 0.23055 0.83711 0.0
C138 C 0.57572 0.22653 0.0867 0.0
C139 C 0.50844 0.24213 0.08696 0.0
C140 C 0.47393 0.24958 -0.03711 0.0
C141 C 0.50895 0.2459 0.83806 0.0
H142 H 0.27675 0.16046 0.46327 0.0
H143 H 0.22984 0.98397 0.24283 0.0
H144 H 0.23593 0.9834 0.68403 0.0
C145 C 0.26685 0.10789 0.46229 0.0
C146 C 0.25824 0.07572 0.58715 0.0
C147 C 0.25437 0.07641 0.33754 0.0
C148 C 0.23898 0.00889 0.33859 0.0
C149 C 0.23524 0.97391 0.46347 0.0
C150 C 0.24264 0.00844 0.5875 0.0
H151 H 0.32434 0.77669 -0.0361 0.0
H152 H 0.50075 0.72978 0.74316 0.0
H153 H 0.50153 0.73605 0.18434 0.0
C154 C 0.37691 0.76681 -0.03721 0.0
C155 C 0.40915 0.75829 0.08759 0.0
C156 C 0.40834 0.75429 0.838 0.0
C157 C 0.47587 0.73894 0.83895 0.0
C158 C 0.51092 0.73526 -0.03624 0.0
C159 C 0.47644 0.74271 0.08785 0.0
loop_
_geom_bond_atom_site_label_1
_geom_bond_atom_site_label_2
_geom_bond_distance
_geom_bond_site_symmetry_2
_ccdc_geom_bond_type
Sc0 O3 2.027 . S
Sc0 O10 2.105 . S
Sc0 O13 2.105 . S
Sc0 O16 2.105 . S
Sc0 O19 2.105 . S
Sc1 O3 2.025 . S
Sc1 O11 2.106 . S
Sc1 O15 2.104 1_554 S
Sc1 O17 2.106 . S
Sc1 O21 2.104 1_554 S
Sc2 O3 2.024 1_556 S
Sc2 O12 2.105 . S
Sc2 O14 2.105 . S
Sc2 O18 2.105 . S
Sc2 O20 2.105 . S
O3 Sc0 2.027 . S
O3 Sc1 2.025 . S
O3 Sc2 2.024 1_554 S
C4 O10 1.268 . S
C4 O20 1.268 1_554 S
C5 O11 1.268 . S
C5 O19 1.268 . S
C6 O12 1.268 . S
C6 O21 1.268 . S
C7 O13 1.268 . S
C7 O17 1.268 . S
C8 O14 1.265 1_554 S
C8 O16 1.271 . S
C9 O15 1.268 . S
C9 O18 1.268 . S
O10 Sc0 2.105 . S
O10 C4 1.268 . S
O11 Sc1 2.106 . S
O11 C5 1.268 . S
O12 Sc2 2.105 . S
O12 C6 1.268 . S
O13 Sc0 2.105 . S
O13 C7 1.268 . S
O14 Sc2 2.105 . S
O14 C8 1.265 1_556 S
O15 Sc1 2.104 1_556 S
O15 C9 1.268 . S
O16 Sc0 2.105 . S
O16 C8 1.271 . S
O17 Sc1 2.106 . S
O17 C7 1.268 . S
O18 Sc2 2.105 . S
O18 C9 1.268 . S
O19 Sc0 2.105 . S
O19 C5 1.268 . S
O20 Sc2 2.105 . S
O20 C4 1.268 1_556 S
O21 Sc1 2.104 1_556 S
O21 C6 1.268 . S
Sc22 O25 2.025 . S
Sc22 O32 2.105 . S
Sc22 O35 2.105 . S
Sc22 O38 2.105 . S
Sc22 O41 2.105 . S
Sc23 O25 2.025 . S
Sc23 O33 2.105 . S
Sc23 O37 2.105 . S
Sc23 O39 2.105 . S
Sc23 O43 2.105 . S
Sc24 O25 2.025 . S
Sc24 O34 2.105 . S
Sc24 O36 2.105 . S
Sc24 O40 2.105 . S
Sc24 O42 2.105 . S
O25 Sc22 2.025 . S
O25 Sc23 2.025 . S
O25 Sc24 2.025 . S
C26 O32 1.268 . S
C26 O42 1.268 . S
C27 O33 1.268 . S
C27 O41 1.268 . S
C28 O34 1.268 . S
C28 O43 1.268 . S
C29 O35 1.268 . S
C29 O39 1.268 . S
C30 O36 1.268 . S
C30 O38 1.268 . S
C31 O37 1.268 . S
C31 O40 1.268 . S
O32 Sc22 2.105 . S
O32 C26 1.268 . S
O33 Sc23 2.105 . S
O33 C27 1.268 . S
O34 Sc24 2.105 . S
O34 C28 1.268 . S
O35 Sc22 2.105 . S
O35 C29 1.268 . S
O36 Sc24 2.105 . S
O36 C30 1.268 . S
O37 Sc23 2.105 . S
O37 C31 1.268 . S
O38 Sc22 2.105 . S
O38 C30 1.268 . S
O39 Sc23 2.105 . S
O39 C29 1.268 . S
O40 Sc24 2.105 . S
O40 C31 1.268 . S
O41 Sc22 2.105 . S
O41 C27 1.268 . S
O42 Sc24 2.105 . S
O42 C26 1.268 . S
O43 Sc23 2.105 . S
O43 C28 1.268 . S
Sc44 O47 2.024 1_556 S
Sc44 O54 2.105 . S
Sc44 O57 2.105 . S
Sc44 O60 2.105 . S
Sc44 O63 2.105 . S
Sc45 O47 2.025 . S
Sc45 O55 2.104 1_554 S
Sc45 O59 2.106 . S
Sc45 O61 2.104 1_554 S
Sc45 O65 2.106 . S
Sc46 O47 2.027 . S
Sc46 O56 2.105 . S
Sc46 O58 2.105 . S
Sc46 O62 2.105 . S
Sc46 O64 2.105 . S
O47 Sc44 2.024 1_554 S
O47 Sc45 2.025 . S
O47 Sc46 2.027 . S
C48 O54 1.268 1_554 S
C48 O64 1.268 . S
C49 O55 1.268 . S
C49 O63 1.268 . S
C50 O56 1.268 . S
C50 O65 1.268 . S
C51 O57 1.268 . S
C51 O61 1.268 . S
C52 O58 1.271 . S
C52 O60 1.265 1_554 S
C53 O59 1.268 . S
C53 O62 1.268 . S
O54 Sc44 2.105 . S
O54 C48 1.268 1_556 S
O55 Sc45 2.104 1_556 S
O55 C49 1.268 . S
O56 Sc46 2.105 . S
O56 C50 1.268 . S
O57 Sc44 2.105 . S
O57 C51 1.268 . S
O58 Sc46 2.105 . S
O58 C52 1.271 . S
O59 Sc45 2.106 . S
O59 C53 1.268 . S
O60 Sc44 2.105 . S
O60 C52 1.265 1_556 S
O61 Sc45 2.104 1_556 S
O61 C51 1.268 . S
O62 Sc46 2.105 . S
O62 C53 1.268 . S
O63 Sc44 2.105 . S
O63 C49 1.268 . S
O64 Sc46 2.105 . S
O64 C48 1.268 . S
O65 Sc45 2.106 . S
O65 C50 1.268 . S
Sc66 O69 2.025 . S
Sc66 O76 2.105 . S
Sc66 O79 2.105 . S
Sc66 O82 2.105 . S
Sc66 O85 2.105 . S
Sc67 O69 2.025 . S
Sc67 O77 2.105 . S
Sc67 O81 2.105 . S
Sc67 O83 2.105 . S
Sc67 O87 2.105 . S
Sc68 O69 2.025 . S
Sc68 O78 2.105 . S
Sc68 O80 2.105 . S
Sc68 O84 2.105 . S
Sc68 O86 2.105 . S
O69 Sc66 2.025 . S
O69 Sc67 2.025 . S
O69 Sc68 2.025 . S
C70 O76 1.268 . S
C70 O86 1.268 . S
C71 O77 1.268 . S
C71 O85 1.268 . S
C72 O78 1.268 . S
C72 O87 1.268 . S
C73 O79 1.268 . S
C73 O83 1.268 . S
C74 O80 1.268 . S
C74 O82 1.268 . S
C75 O81 1.268 . S
C75 O84 1.268 . S
O76 Sc66 2.105 . S
O76 C70 1.268 . S
O77 Sc67 2.105 . S
O77 C71 1.268 . S
O78 Sc68 2.105 . S
O78 C72 1.268 . S
O79 Sc66 2.105 . S
O79 C73 1.268 . S
O80 Sc68 2.105 . S
O80 C74 1.268 . S
O81 Sc67 2.105 . S
O81 C75 1.268 . S
O82 Sc66 2.105 . S
O82 C74 1.268 . S
O83 Sc67 2.105 . S
O83 C73 1.268 . S
O84 Sc68 2.105 . S
O84 C75 1.268 . S
O85 Sc66 2.105 . S
O85 C71 1.268 . S
O86 Sc68 2.105 . S
O86 C70 1.268 . S
O87 Sc67 2.105 . S
O87 C72 1.268 . S
H88 C91 0.931 . S
H89 C94 0.928 . S
H90 C96 0.930 . S
C91 H88 0.931 . S
C91 C92 1.413 1_556 S
C91 C93 1.360 . S
C92 C91 1.413 1_554 S
C92 C96 1.429 . S
C93 C91 1.360 . S
C93 C94 1.372 . S
C94 H89 0.928 . S
C94 C93 1.372 . S
C94 C95 1.404 . S
C95 C94 1.404 . S
C95 C96 1.391 1_556 S
C96 H90 0.930 . S
C96 C92 1.429 . S
C96 C95 1.391 1_554 S
H97 C100 0.931 . S
H98 C103 0.928 . S
H99 C105 0.930 . S
C100 H97 0.931 . S
C100 C101 1.413 . S
C100 C102 1.360 . S
C101 C100 1.413 . S
C101 C105 1.429 1_655 S
C102 C100 1.360 . S
C102 C103 1.372 1_655 S
C103 H98 0.928 . S
C103 C102 1.372 1_455 S
C103 C104 1.404 . S
C104 C103 1.404 . S
C104 C105 1.391 . S
C105 H99 0.930 . S
C105 C101 1.429 1_455 S
C105 C104 1.391 . S
H106 C109 0.931 . S
H107 C112 0.928 . S
H108 C114 0.930 . S
C109 H106 0.931 . S
C109 C110 1.413 1_554 S
C109 C111 1.360 . S
C110 C109 1.413 1_556 S
C110 C114 1.429 . S
C111 C109 1.360 . S
C111 C112 1.372 . S
C112 H107 0.928 . S
C112 C111 1.372 . S
C112 C113 1.404 . S
C113 C112 1.404 . S
C113 C114 1.391 1_554 S
C114 H108 0.930 . S
C114 C110 1.429 . S
C114 C113 1.391 1_556 S
H115 C118 0.931 . S
H116 C121 0.928 . S
H117 C123 0.930 . S
C118 H115 0.931 . S
C118 C119 1.413 . S
C118 C120 1.360 . S
C119 C118 1.413 . S
C119 C123 1.429 1_455 S
C120 C118 1.360 . S
C120 C121 1.372 1_455 S
C121 H116 0.928 . S
C121 C120 1.372 1_655 S
C121 C122 1.404 . S
C122 C121 1.404 . S
C122 C123 1.391 . S
C123 H117 0.930 . S
C123 C119 1.429 1_655 S
C123 C122 1.391 . S
H124 C127 0.931 . S
H125 C130 0.928 . S
H126 C132 0.930 . S
C127 H124 0.931 . S
C127 C128 1.413 . S
C127 C129 1.360 . S
C128 C127 1.413 . S
C128 C132 1.429 1_565 S
C129 C127 1.360 . S
C129 C130 1.372 1_565 S
C130 H125 0.928 . S
C130 C129 1.372 1_545 S
C130 C131 1.404 . S
C131 C130 1.404 . S
C131 C132 1.391 . S
C132 H126 0.930 . S
C132 C128 1.429 1_545 S
C132 C131 1.391 . S
H133 C136 0.931 . S
H134 C139 0.928 . S
H135 C141 0.930 . S
C136 H133 0.931 . S
C136 C137 1.413 1_554 S
C136 C138 1.360 . S
C137 C136 1.413 1_556 S
C137 C141 1.429 . S
C138 C136 1.360 . S
C138 C139 1.372 . S
C139 H134 0.928 . S
C139 C138 1.372 . S
C139 C140 1.404 . S
C140 C139 1.404 . S
C140 C141 1.391 1_554 S
C141 H135 0.930 . S
C141 C137 1.429 . S
C141 C140 1.391 1_556 S
H142 C145 0.931 . S
H143 C148 0.928 . S
H144 C150 0.930 . S
C145 H142 0.931 . S
C145 C146 1.413 . S
C145 C147 1.360 . S
C146 C145 1.413 . S
C146 C150 1.429 1_545 S
C147 C145 1.360 . S
C147 C148 1.372 1_545 S
C148 H143 0.928 . S
C148 C147 1.372 1_565 S
C148 C149 1.404 . S
C149 C148 1.404 . S
C149 C150 1.391 . S
C150 H144 0.930 . S
C150 C146 1.429 1_565 S
C150 C149 1.391 . S
H151 C154 0.931 . S
H152 C157 0.928 . S
H153 C159 0.930 . S
C154 H151 0.931 . S
C154 C155 1.413 1_556 S
C154 C156 1.360 . S
C155 C154 1.413 1_554 S
C155 C159 1.429 . S
C156 C154 1.360 . S
C156 C157 1.372 . S
C157 H152 0.928 . S
C157 C156 1.372 . S
C157 C158 1.404 . S
C158 C157 1.404 . S
C158 C159 1.391 1_556 S
C159 H153 0.930 . S
C159 C155 1.429 . S
C159 C158 1.391 1_554 S
C5 C119 1.479 . S
C31 C93 1.491 . S
C102 C53 1.490 . S
C71 C110 1.478 . S
C138 C75 1.492 . S
C146 C9 1.479 . S
C155 C27 1.478 . S
C129 C49 1.490 . S
C51 C101 1.487 . S
C72 C111 1.476 . S
C6 C120 1.475 . S
C92 C29 1.486 . S
C28 C156 1.476 . S
C128 C50 1.487 . S
C137 C73 1.486 . S
C7 C147 1.475 . S
C95 C4 1.543 1_556 S
C104 C30 1.543 . S
C52 C113 1.530 . S
C70 C122 1.530 . S
C131 C74 1.543 . S
C8 C140 1.543 . S
C26 C149 1.530 . S
C48 C158 1.530 1_554 S
