# Generated by pormake.
# Topology tsx, (6,3)-cn, num edge types: 1
# Building blocks:
#     Node 0, Type 0, BuildingBlock: VOLQOD_clean_sbu_1, # of connection points: 6
#     Node 1, Type 0, BuildingBlock: VOLQOD_clean_sbu_1, # of connection points: 6
#     Node 2, Type 1, BuildingBlock: INOVEN_clean_linker_0, # of connection points: 3
#     Node 3, Type 1, BuildingBlock: INOVEN_clean_linker_0, # of connection points: 3
#     Node 4, Type 1, BuildingBlock: INOVEN_clean_linker_0, # of connection points: 3
#     Node 5, Type 1, BuildingBlock: INOVEN_clean_linker_0, # of connection points: 3
#     Edge 6, Type (0, 1), BuildingBlock: AJUNOK_clean_linker_0, # of connection points: 2
#     Edge 7, Type (0, 1), BuildingBlock: AJUNOK_clean_linker_0, # of connection points: 2
#     Edge 8, Type (0, 1), BuildingBlock: AJUNOK_clean_linker_0, # of connection points: 2
#     Edge 9, Type (0, 1), BuildingBlock: AJUNOK_clean_linker_0, # of connection points: 2
#     Edge 10, Type (0, 1), BuildingBlock: AJUNOK_clean_linker_0, # of connection points: 2
#     Edge 11, Type (0, 1), BuildingBlock: AJUNOK_clean_linker_0, # of connection points: 2
#     Edge 12, Type (0, 1), BuildingBlock: AJUNOK_clean_linker_0, # of connection points: 2
#     Edge 13, Type (0, 1), BuildingBlock: AJUNOK_clean_linker_0, # of connection points: 2
#     Edge 14, Type (0, 1), BuildingBlock: AJUNOK_clean_linker_0, # of connection points: 2
#     Edge 15, Type (0, 1), BuildingBlock: AJUNOK_clean_linker_0, # of connection points: 2
#     Edge 16, Type (0, 1), BuildingBlock: AJUNOK_clean_linker_0, # of connection points: 2
#     Edge 17, Type (0, 1), BuildingBlock: AJUNOK_clean_linker_0, # of connection points: 2
# Relax obj value: 0.050
# Max RMSD: 0.104
# Mean RMSD: 0.094
data_MOF--net-tsx--node1-VOLQOD_clean_sbu_1--node2-INOVEN_clean_linker_0--edge1-AJUNOK_clean_linker_0
_symmetry_space_group_name_H-M    P1
_symmetry_Int_Tables_number       1
_symmetry_cell_setting            triclinic
loop_
_symmetry_equiv_pos_as_xyz
'x, y, z'
_cell_length_a     15.710122
_cell_length_b     16.328005
_cell_length_c     27.973123
_cell_angle_alpha  90.098001
_cell_angle_beta   97.881951
_cell_angle_gamma 90.003571
loop_
_atom_site_label
_atom_site_type_symbol
_atom_site_fract_x
_atom_site_fract_y
_atom_site_fract_z
_atom_type_partial_charge
O0 O 0.0958 0.96579 0.11056 0.0
Zn1 Zn 0.11883 0.97692 0.04185 0.0
O2 O 0.01361 0.99028 -0.00209 0.0
Zn3 Zn 0.98871 0.88867 0.96088 0.0
Zn4 Zn 0.92336 0.01694 0.03615 0.0
Zn5 Zn 0.02594 0.08189 0.95542 0.0
O6 O 0.96999 0.91515 0.88907 0.0
O7 O 0.01459 0.04443 0.88706 0.0
O8 O 0.18534 0.88054 0.02322 0.0
O9 O 0.09317 0.81271 0.97017 0.0
O10 O 0.8829 0.83169 0.98133 0.0
O11 O 0.84082 0.92448 0.0314 0.0
O12 O 0.85741 0.11882 0.01407 0.0
O13 O 0.19371 0.07572 0.03931 0.0
O14 O 0.93246 0.16396 0.95802 0.0
O15 O 0.13599 0.14333 0.9742 0.0
C16 C 0.03562 0.99684 0.13089 0.0
C17 C 0.98724 0.97877 0.86566 0.0
C18 C 0.83098 0.85572 0.00989 0.0
C19 C 0.16744 0.82018 -0.00518 0.0
C20 C 0.87059 0.17163 0.98256 0.0
C21 C 0.1947 0.13511 0.00999 0.0
O22 O 0.969 0.02781 0.10661 0.0
O23 O 0.59094 0.47678 0.60534 0.0
Zn24 Zn 0.60806 0.4877 0.53545 0.0
O25 O 0.49933 0.51313 0.49608 0.0
Zn26 Zn 0.4602 0.41768 0.45739 0.0
Zn27 Zn 0.41484 0.54139 0.53786 0.0
Zn28 Zn 0.51468 0.60613 0.45482 0.0
O29 O 0.43629 0.44876 0.38711 0.0
O30 O 0.49585 0.57234 0.38512 0.0
O31 O 0.66239 0.3852 0.5121 0.0
O32 O 0.55615 0.3358 0.45965 0.0
O33 O 0.35668 0.36306 0.48082 0.0
O34 O 0.32667 0.45183 0.53616 0.0
O35 O 0.35436 0.64804 0.51916 0.0
O36 O 0.69102 0.58102 0.53221 0.0
O37 O 0.42731 0.69279 0.46199 0.0
O38 O 0.63023 0.65989 0.47268 0.0
C39 C 0.53657 0.51215 0.62832 0.0
C40 C 0.4594 0.51005 0.36375 0.0
C41 C 0.31109 0.38505 0.51303 0.0
C42 C 0.63268 0.33106 0.48139 0.0
C43 C 0.36803 0.70195 0.48828 0.0
C44 C 0.69262 0.64387 0.50541 0.0
O45 O 0.47025 0.54789 0.6067 0.0
H46 H 0.0771 0.00306 0.48013 0.0
H47 H 0.17549 0.92727 0.35154 0.0
H48 H 0.94571 0.07252 0.341 0.0
N49 N 0.94401 0.08811 0.43676 0.0
N50 N 0.87346 0.10855 0.41388 0.0
C51 C 0.07204 0.00236 0.44126 0.0
C52 C 0.13206 0.95798 0.41893 0.0
C53 C 0.00483 0.04417 0.41349 0.0
C54 C 0.99844 0.04167 0.36276 0.0
C55 C 0.05955 -0.00063 0.33994 0.0
C56 C 0.1272 0.95935 0.36853 0.0
H57 H 0.96075 0.96134 0.51695 0.0
H58 H 0.89107 0.8609 0.64812 0.0
H59 H 0.04428 0.07894 0.65331 0.0
N60 N 0.05088 0.08847 0.55789 0.0
N61 N 0.07627 0.15337 0.5788 0.0
C62 C 0.96321 0.96395 0.55574 0.0
C63 C 0.92338 0.90215 0.5797 0.0
C64 C 0.00657 0.02851 0.582 0.0
C65 C 0.00857 0.03107 0.6325 0.0
C66 C 0.96689 0.97096 0.65658 0.0
C67 C 0.92463 0.90683 0.62986 0.0
H68 H 0.55431 0.43723 0.97274 0.0
H69 H 0.66905 0.40334 0.84339 0.0
H70 H 0.44192 0.55155 0.84104 0.0
N71 N 0.42998 0.53894 0.93379 0.0
N72 N 0.4324 0.61485 0.93832 0.0
C73 C 0.55407 0.44834 0.93465 0.0
C74 C 0.61908 0.41468 0.91102 0.0
C75 C 0.49182 0.49956 0.90953 0.0
C76 C 0.49254 0.51443 0.86029 0.0
C77 C 0.55622 0.47976 0.83592 0.0
C78 C 0.61953 0.43047 0.86178 0.0
H79 H 0.4479 0.4587 0.01787 0.0
H80 H 0.3612 0.38019 0.14916 0.0
H81 H 0.52407 0.59147 0.14979 0.0
N82 N 0.54216 0.58424 0.05527 0.0
N83 N 0.57599 0.6469 0.07503 0.0
C84 C 0.44592 0.46742 0.05591 0.0
C85 C 0.40132 0.4113 0.08097 0.0
C86 C 0.49024 0.53283 0.08031 0.0
C87 C 0.48728 0.54304 0.13015 0.0
C88 C 0.44047 0.4885 0.15527 0.0
C89 C 0.3975 0.42292 0.13023 0.0
C90 C 0.24223 0.28 0.0014 0.0
C91 C 0.25862 0.20138 0.02143 0.0
C92 C 0.2922 0.34761 0.01878 0.0
C93 C 0.3599 0.33859 0.05666 0.0
H94 H 0.18746 0.29051 0.9741 0.0
H95 H 0.27475 0.40786 0.00446 0.0
S96 S 0.44013 0.14469 0.11491 0.0
N97 N 0.35574 0.11733 0.07636 0.0
N98 N 0.44886 0.24482 0.10903 0.0
C99 C 0.38143 0.2598 0.07421 0.0
C100 C 0.33099 0.191 0.05654 0.0
C101 C 0.2187 0.68291 0.96927 0.0
C102 C 0.23744 0.76309 0.98632 0.0
C103 C 0.28358 0.63158 0.95608 0.0
C104 C 0.36876 0.65978 0.95851 0.0
H105 H 0.15328 0.66029 0.96517 0.0
H106 H 0.26626 0.57126 0.9418 0.0
S107 S 0.45278 0.86193 0.0017 0.0
N108 N 0.34938 0.8658 0.00684 0.0
N109 N 0.46914 0.77006 0.97999 0.0
C110 C 0.3886 0.73827 0.97645 0.0
C111 C 0.32359 0.78981 0.99097 0.0
C112 C 0.7214 0.8214 0.06312 0.0
C113 C 0.76084 0.80189 0.0222 0.0
C114 C 0.65936 0.77055 0.07863 0.0
C115 C 0.63317 0.69854 0.05394 0.0
H116 H 0.74006 0.87548 0.0845 0.0
H117 H 0.63256 0.7868 0.11105 0.0
S118 S 0.70957 0.62184 0.94224 0.0
N119 N 0.76484 0.70693 0.95535 0.0
N120 N 0.64708 0.61115 0.98475 0.0
C121 C 0.66913 0.67882 0.01189 0.0
C122 C 0.73329 0.73067 -0.00395 0.0
C123 C 0.72327 0.23178 0.97842 0.0
C124 C 0.80993 0.24035 0.97151 0.0
C125 C 0.6621 0.29105 0.96117 0.0
C126 C 0.68585 0.36076 0.9367 0.0
H127 H 0.70165 0.17697 -0.00508 0.0
H128 H 0.59523 0.28008 0.96471 0.0
S129 S 0.90668 0.41954 0.91771 0.0
N130 N 0.91799 0.32933 0.9444 0.0
N131 N 0.80308 0.4407 0.91241 0.0
C132 C 0.77315 0.37302 0.93294 0.0
C133 C 0.83522 0.31278 0.95023 0.0
C134 C 0.75192 0.78555 0.49885 0.0
C135 C 0.76271 0.70493 0.5168 0.0
C136 C 0.80823 0.84863 0.51675 0.0
C137 C 0.87707 0.83324 0.5532 0.0
H138 H 0.69672 0.80136 0.47292 0.0
H139 H 0.79447 0.91064 0.50427 0.0
S140 S 0.94417 0.631 0.60544 0.0
N141 N 0.85595 0.61166 0.56783 0.0
N142 N 0.96055 0.73051 0.60171 0.0
C143 C 0.89295 0.75206 0.56842 0.0
C144 C 0.83615 0.68781 0.55012 0.0
C145 C 0.77122 0.25138 0.49467 0.0
C146 C 0.69068 0.2662 0.4669 0.0
C147 C 0.83083 0.19704 0.47865 0.0
C148 C 0.81185 0.15636 0.43405 0.0
H149 H 0.78923 0.28334 0.52851 0.0
H150 H 0.89277 0.18905 0.50043 0.0
S151 S 0.61129 0.17042 0.34838 0.0
N152 N 0.59542 0.23214 0.39311 0.0
N153 N 0.70827 0.13164 0.36344 0.0
C154 C 0.73152 0.16858 0.40684 0.0
C155 C 0.67059 0.22295 0.42309 0.0
C156 C 0.22258 0.25557 0.50128 0.0
C157 C 0.24308 0.32932 0.52678 0.0
C158 C 0.16505 0.19846 0.51679 0.0
C159 C 0.12628 0.21321 0.55847 0.0
H160 H 0.25276 0.24073 0.4698 0.0
H161 H 0.15334 0.14165 0.49705 0.0
S162 S 0.15324 0.3963 0.63692 0.0
N163 N 0.21525 0.41408 0.59497 0.0
N164 N 0.10881 0.30605 0.62363 0.0
C165 C 0.14378 0.28695 0.5832 0.0
C166 C 0.20158 0.34527 0.56755 0.0
C167 C 0.3383 0.8419 0.45449 0.0
C168 C 0.31117 0.77441 0.47984 0.0
C169 C 0.28158 0.90509 0.4383 0.0
C170 C 0.19554 0.90325 0.44679 0.0
H171 H 0.40297 0.84436 0.4452 0.0
H172 H 0.30396 0.95363 0.41676 0.0
S173 S 0.09405 0.74504 0.51529 0.0
N174 N 0.19412 0.71346 0.51628 0.0
N175 N 0.08718 0.83216 0.48516 0.0
C176 C 0.169 0.83945 0.47501 0.0
C177 C 0.22692 0.77498 0.4917 0.0
C178 C 0.02431 0.06735 0.2087 0.0
C179 C 0.0424 0.9961 0.18381 0.0
C180 C 0.03032 0.06793 0.25913 0.0
C181 C 0.05257 0.99668 0.28635 0.0
H182 H 0.00693 0.12342 0.18909 0.0
H183 H 0.01841 0.12495 0.27691 0.0
S184 S 0.0963 0.79184 0.23678 0.0
N185 N 0.07949 0.8519 0.18899 0.0
N186 N 0.08549 0.85092 0.28353 0.0
C187 C 0.06811 0.92424 0.26138 0.0
C188 C 0.06429 0.92447 0.21017 0.0
C189 C 0.99105 0.90389 0.7879 0.0
C190 C 0.97699 0.97686 0.81235 0.0
C191 C 0.98743 0.90248 0.73754 0.0
C192 C 0.96867 0.97379 0.70979 0.0
H193 H 0.00735 0.84799 0.80789 0.0
H194 H 0.00107 0.84541 0.72031 0.0
S195 S 0.91638 0.17813 0.75615 0.0
N196 N 0.93763 0.12087 0.80491 0.0
N197 N 0.92851 0.11758 0.71025 0.0
C198 C 0.95147 0.04644 0.73373 0.0
C199 C 0.9561 0.0481 0.78498 0.0
C200 C 0.56772 0.432 0.70403 0.0
C201 C 0.54708 0.50723 0.68124 0.0
C202 C 0.57067 0.42395 0.75401 0.0
C203 C 0.55501 0.49135 0.78315 0.0
H204 H 0.57861 0.37827 0.6829 0.0
H205 H 0.58342 0.36388 0.76973 0.0
S206 S 0.50857 0.7041 0.74072 0.0
N207 N 0.51551 0.65136 0.69096 0.0
N208 N 0.52582 0.63769 0.78546 0.0
C209 C 0.53767 0.56782 0.76074 0.0
C210 C 0.53266 0.57542 0.70966 0.0
C211 C 0.45856 0.43073 0.28765 0.0
C212 C 0.4492 0.50619 0.31057 0.0
C213 C 0.45529 0.4258 0.23751 0.0
C214 C 0.44121 0.49594 0.20826 0.0
H215 H 0.47118 0.37533 0.30871 0.0
H216 H 0.4657 0.36667 0.22165 0.0
S217 S 0.40343 0.70674 0.25046 0.0
N218 N 0.4205 0.65187 0.3004 0.0
N219 N 0.41127 0.64218 0.20575 0.0
C220 C 0.42904 0.57144 0.23066 0.0
C221 C 0.43367 0.57664 0.28189 0.0
loop_
_geom_bond_atom_site_label_1
_geom_bond_atom_site_label_2
_geom_bond_distance
_geom_bond_site_symmetry_2
_ccdc_geom_bond_type
O0 Zn1 1.953 . S
O0 C16 1.225 1_565 S
Zn1 O0 1.953 . S
Zn1 O2 1.949 1_565 S
Zn1 O8 1.919 . S
Zn1 O13 1.924 1_565 S
O2 Zn1 1.949 1_545 S
O2 Zn3 1.923 1_444 S
O2 Zn4 1.950 1_455 S
O2 Zn5 1.945 1_554 S
Zn3 O2 1.923 1_666 S
Zn3 O6 1.933 . S
Zn3 O9 1.941 1_655 S
Zn3 O10 1.965 . S
Zn4 O2 1.950 1_655 S
Zn4 O11 1.938 1_545 S
Zn4 O12 1.906 . S
Zn4 O22 1.953 . S
Zn5 O2 1.945 1_556 S
Zn5 O7 1.932 . S
Zn5 O14 1.977 1_455 S
Zn5 O15 1.910 . S
O6 Zn3 1.933 . S
O6 C17 1.226 1_565 S
O7 Zn5 1.932 . S
O7 C17 1.307 1_455 S
O8 Zn1 1.919 . S
O8 C19 1.253 1_554 S
O9 Zn3 1.941 1_455 S
O9 C19 1.283 . S
O10 Zn3 1.965 . S
O10 C18 1.303 1_556 S
O11 Zn4 1.938 1_565 S
O11 C18 1.247 . S
O12 Zn4 1.906 . S
O12 C20 1.304 1_554 S
O13 Zn1 1.924 1_545 S
O13 C21 1.311 . S
O14 Zn5 1.977 1_655 S
O14 C20 1.272 . S
O15 Zn5 1.910 . S
O15 C21 1.231 1_556 S
C16 O0 1.225 1_545 S
C16 O22 1.298 1_455 S
C17 O6 1.226 1_545 S
C17 O7 1.307 1_655 S
C18 O10 1.303 1_554 S
C18 O11 1.247 . S
C19 O8 1.253 1_556 S
C19 O9 1.283 . S
C20 O12 1.304 1_556 S
C20 O14 1.272 . S
C21 O13 1.311 . S
C21 O15 1.231 1_554 S
O22 Zn4 1.953 . S
O22 C16 1.298 1_655 S
O23 Zn24 1.953 . S
O23 C39 1.225 . S
Zn24 O23 1.953 . S
Zn24 O25 1.949 . S
Zn24 O31 1.919 . S
Zn24 O36 1.924 . S
O25 Zn24 1.949 . S
O25 Zn26 1.923 . S
O25 Zn27 1.950 . S
O25 Zn28 1.945 . S
Zn26 O25 1.923 . S
Zn26 O29 1.933 . S
Zn26 O32 1.941 . S
Zn26 O33 1.965 . S
Zn27 O25 1.950 . S
Zn27 O34 1.938 . S
Zn27 O35 1.906 . S
Zn27 O45 1.953 . S
Zn28 O25 1.945 . S
Zn28 O30 1.932 . S
Zn28 O37 1.977 . S
Zn28 O38 1.910 . S
O29 Zn26 1.933 . S
O29 C40 1.226 . S
O30 Zn28 1.932 . S
O30 C40 1.307 . S
O31 Zn24 1.919 . S
O31 C42 1.253 . S
O32 Zn26 1.941 . S
O32 C42 1.283 . S
O33 Zn26 1.965 . S
O33 C41 1.303 . S
O34 Zn27 1.938 . S
O34 C41 1.247 . S
O35 Zn27 1.906 . S
O35 C43 1.304 . S
O36 Zn24 1.924 . S
O36 C44 1.311 . S
O37 Zn28 1.977 . S
O37 C43 1.272 . S
O38 Zn28 1.910 . S
O38 C44 1.231 . S
C39 O23 1.225 . S
C39 O45 1.298 . S
C40 O29 1.226 . S
C40 O30 1.307 . S
C41 O33 1.303 . S
C41 O34 1.247 . S
C42 O31 1.253 . S
C42 O32 1.283 . S
C43 O35 1.304 . S
C43 O37 1.272 . S
C44 O36 1.311 . S
C44 O38 1.231 . S
O45 Zn27 1.953 . S
O45 C39 1.298 . S
H46 C51 0.929 . S
H47 C56 0.931 . S
H48 C54 0.930 . S
N49 N50 1.234 . S
N49 C53 1.453 . S
N50 N49 1.234 . S
C51 H46 0.929 . S
C51 C52 1.373 . S
C51 C53 1.368 1_465 S
C52 C51 1.373 . S
C52 C56 1.397 . S
C53 N49 1.453 . S
C53 C51 1.368 1_645 S
C53 C54 1.373 . S
C54 H48 0.930 . S
C54 C53 1.373 . S
C54 C55 1.371 1_645 S
C55 C54 1.371 1_465 S
C55 C56 1.383 . S
C56 H47 0.931 . S
C56 C52 1.397 . S
C56 C55 1.383 . S
H57 C62 0.929 . S
H58 C67 0.931 . S
H59 C65 0.930 . S
N60 N61 1.234 . S
N60 C64 1.453 . S
N61 N60 1.234 . S
C62 H57 0.929 . S
C62 C63 1.373 . S
C62 C64 1.368 1_665 S
C63 C62 1.373 . S
C63 C67 1.397 . S
C64 N60 1.453 . S
C64 C62 1.368 1_445 S
C64 C65 1.373 . S
C65 H59 0.930 . S
C65 C64 1.373 . S
C65 C66 1.371 1_445 S
C66 C65 1.371 1_665 S
C66 C67 1.383 . S
C67 H58 0.931 . S
C67 C63 1.397 . S
C67 C66 1.383 . S
H68 C73 0.929 . S
H69 C78 0.931 . S
H70 C76 0.930 . S
N71 N72 1.234 . S
N71 C75 1.453 . S
N72 N71 1.234 . S
C73 H68 0.929 . S
C73 C74 1.373 . S
C73 C75 1.368 . S
C74 C73 1.373 . S
C74 C78 1.397 . S
C75 N71 1.453 . S
C75 C73 1.368 . S
C75 C76 1.373 . S
C76 H70 0.930 . S
C76 C75 1.373 . S
C76 C77 1.371 . S
C77 C76 1.371 . S
C77 C78 1.383 . S
C78 H69 0.931 . S
C78 C74 1.397 . S
C78 C77 1.383 . S
H79 C84 0.929 . S
H80 C89 0.931 . S
H81 C87 0.930 . S
N82 N83 1.234 . S
N82 C86 1.453 . S
N83 N82 1.234 . S
C84 H79 0.929 . S
C84 C85 1.373 . S
C84 C86 1.368 . S
C85 C84 1.373 . S
C85 C89 1.397 . S
C86 N82 1.453 . S
C86 C84 1.368 . S
C86 C87 1.373 . S
C87 H81 0.930 . S
C87 C86 1.373 . S
C87 C88 1.371 . S
C88 C87 1.371 . S
C88 C89 1.383 . S
C89 H80 0.931 . S
C89 C85 1.397 . S
C89 C88 1.383 . S
C90 C91 1.369 . S
C90 C92 1.419 . S
C90 H94 0.930 . S
C91 C90 1.369 . S
C91 C100 1.429 . S
C92 C90 1.419 . S
C92 C93 1.363 . S
C92 H95 0.929 . S
C93 C92 1.363 . S
C93 C99 1.428 . S
H94 C90 0.930 . S
H95 C92 0.929 . S
S96 N97 1.613 . S
S96 N98 1.610 . S
N97 S96 1.613 . S
N97 C100 1.350 . S
N98 S96 1.610 . S
N98 C99 1.351 . S
C99 C93 1.428 . S
C99 N98 1.351 . S
C99 C100 1.434 . S
C100 C91 1.429 . S
C100 N97 1.350 . S
C100 C99 1.434 . S
C101 C102 1.369 . S
C101 C103 1.419 . S
C101 H105 0.930 . S
C102 C101 1.369 . S
C102 C111 1.429 . S
C103 C101 1.419 . S
C103 C104 1.363 . S
C103 H106 0.929 . S
C104 C103 1.363 . S
C104 C110 1.428 . S
H105 C101 0.930 . S
H106 C103 0.929 . S
S107 N108 1.613 . S
S107 N109 1.610 . S
N108 S107 1.613 . S
N108 C111 1.350 . S
N109 S107 1.610 . S
N109 C110 1.351 . S
C110 C104 1.428 . S
C110 N109 1.351 . S
C110 C111 1.434 . S
C111 C102 1.429 . S
C111 N108 1.350 . S
C111 C110 1.434 . S
C112 C113 1.369 . S
C112 C114 1.419 . S
C112 H116 0.930 . S
C113 C112 1.369 . S
C113 C122 1.429 . S
C114 C112 1.419 . S
C114 C115 1.363 . S
C114 H117 0.929 . S
C115 C114 1.363 . S
C115 C121 1.428 . S
H116 C112 0.930 . S
H117 C114 0.929 . S
S118 N119 1.613 . S
S118 N120 1.610 . S
N119 S118 1.613 . S
N119 C122 1.350 1_556 S
N120 S118 1.610 . S
N120 C121 1.351 1_556 S
C121 C115 1.428 . S
C121 N120 1.351 1_554 S
C121 C122 1.434 . S
C122 C113 1.429 . S
C122 N119 1.350 1_554 S
C122 C121 1.434 . S
C123 C124 1.369 . S
C123 C125 1.419 . S
C123 H127 0.930 . S
C124 C123 1.369 . S
C124 C133 1.429 . S
C125 C123 1.419 . S
C125 C126 1.363 . S
C125 H128 0.929 . S
C126 C125 1.363 . S
C126 C132 1.428 . S
H127 C123 0.930 . S
H128 C125 0.929 . S
S129 N130 1.613 . S
S129 N131 1.610 . S
N130 S129 1.613 . S
N130 C133 1.350 . S
N131 S129 1.610 . S
N131 C132 1.351 . S
C132 C126 1.428 . S
C132 N131 1.351 . S
C132 C133 1.434 . S
C133 C124 1.429 . S
C133 N130 1.350 . S
C133 C132 1.434 . S
C134 C135 1.369 . S
C134 C136 1.419 . S
C134 H138 0.930 . S
C135 C134 1.369 . S
C135 C144 1.429 . S
C136 C134 1.419 . S
C136 C137 1.363 . S
C136 H139 0.929 . S
C137 C136 1.363 . S
C137 C143 1.428 . S
H138 C134 0.930 . S
H139 C136 0.929 . S
S140 N141 1.613 . S
S140 N142 1.610 . S
N141 S140 1.613 . S
N141 C144 1.350 . S
N142 S140 1.610 . S
N142 C143 1.351 . S
C143 C137 1.428 . S
C143 N142 1.351 . S
C143 C144 1.434 . S
C144 C135 1.429 . S
C144 N141 1.350 . S
C144 C143 1.434 . S
C145 C146 1.369 . S
C145 C147 1.419 . S
C145 H149 0.930 . S
C146 C145 1.369 . S
C146 C155 1.429 . S
C147 C145 1.419 . S
C147 C148 1.363 . S
C147 H150 0.929 . S
C148 C147 1.363 . S
C148 C154 1.428 . S
H149 C145 0.930 . S
H150 C147 0.929 . S
S151 N152 1.613 . S
S151 N153 1.610 . S
N152 S151 1.613 . S
N152 C155 1.350 . S
N153 S151 1.610 . S
N153 C154 1.351 . S
C154 C148 1.428 . S
C154 N153 1.351 . S
C154 C155 1.434 . S
C155 C146 1.429 . S
C155 N152 1.350 . S
C155 C154 1.434 . S
C156 C157 1.369 . S
C156 C158 1.419 . S
C156 H160 0.930 . S
C157 C156 1.369 . S
C157 C166 1.429 . S
C158 C156 1.419 . S
C158 C159 1.363 . S
C158 H161 0.929 . S
C159 C158 1.363 . S
C159 C165 1.428 . S
H160 C156 0.930 . S
H161 C158 0.929 . S
S162 N163 1.613 . S
S162 N164 1.610 . S
N163 S162 1.613 . S
N163 C166 1.350 . S
N164 S162 1.610 . S
N164 C165 1.351 . S
C165 C159 1.428 . S
C165 N164 1.351 . S
C165 C166 1.434 . S
C166 C157 1.429 . S
C166 N163 1.350 . S
C166 C165 1.434 . S
C167 C168 1.369 . S
C167 C169 1.419 . S
C167 H171 0.930 . S
C168 C167 1.369 . S
C168 C177 1.429 . S
C169 C167 1.419 . S
C169 C170 1.363 . S
C169 H172 0.929 . S
C170 C169 1.363 . S
C170 C176 1.428 . S
H171 C167 0.930 . S
H172 C169 0.929 . S
S173 N174 1.613 . S
S173 N175 1.610 . S
N174 S173 1.613 . S
N174 C177 1.350 . S
N175 S173 1.610 . S
N175 C176 1.351 . S
C176 C170 1.428 . S
C176 N175 1.351 . S
C176 C177 1.434 . S
C177 C168 1.429 . S
C177 N174 1.350 . S
C177 C176 1.434 . S
C178 C179 1.369 1_655 S
C178 C180 1.419 . S
C178 H182 0.930 . S
C179 C178 1.369 1_455 S
C179 C188 1.429 1_545 S
C180 C178 1.419 . S
C180 C181 1.363 1_645 S
C180 H183 0.929 . S
C181 C180 1.363 1_465 S
C181 C187 1.428 . S
H182 C178 0.930 . S
H183 C180 0.929 . S
S184 N185 1.613 . S
S184 N186 1.610 . S
N185 S184 1.613 . S
N185 C188 1.350 . S
N186 S184 1.610 . S
N186 C187 1.351 . S
C187 C181 1.428 . S
C187 N186 1.351 . S
C187 C188 1.434 . S
C188 C179 1.429 1_565 S
C188 N185 1.350 . S
C188 C187 1.434 . S
C189 C190 1.369 1_465 S
C189 C191 1.419 . S
C189 H193 0.930 . S
C190 C189 1.369 1_645 S
C190 C199 1.429 . S
C191 C189 1.419 . S
C191 C192 1.366 1_455 S
C191 H194 0.929 . S
C192 C191 1.366 1_655 S
C192 C198 1.425 1_565 S
H193 C189 0.930 . S
H194 C191 0.929 . S
S195 N196 1.613 . S
S195 N197 1.610 . S
N196 S195 1.613 . S
N196 C199 1.350 . S
N197 S195 1.610 . S
N197 C198 1.351 . S
C198 C192 1.425 1_545 S
C198 N197 1.351 . S
C198 C199 1.434 . S
C199 C190 1.429 . S
C199 N196 1.350 . S
C199 C198 1.434 . S
C200 C201 1.369 . S
C200 C202 1.419 . S
C200 H204 0.930 . S
C201 C200 1.369 . S
C201 C210 1.429 . S
C202 C200 1.419 . S
C202 C203 1.363 . S
C202 H205 0.929 . S
C203 C202 1.363 . S
C203 C209 1.428 . S
H204 C200 0.930 . S
H205 C202 0.929 . S
S206 N207 1.613 . S
S206 N208 1.610 . S
N207 S206 1.613 . S
N207 C210 1.350 . S
N208 S206 1.610 . S
N208 C209 1.351 . S
C209 C203 1.428 . S
C209 N208 1.351 . S
C209 C210 1.434 . S
C210 C201 1.429 . S
C210 N207 1.350 . S
C210 C209 1.434 . S
C211 C212 1.369 . S
C211 C213 1.419 . S
C211 H215 0.930 . S
C212 C211 1.369 . S
C212 C221 1.429 . S
C213 C211 1.419 . S
C213 C214 1.363 . S
C213 H216 0.929 . S
C214 C213 1.363 . S
C214 C220 1.428 . S
H215 C211 0.930 . S
H216 C213 0.929 . S
S217 N218 1.613 . S
S217 N219 1.610 . S
N218 S217 1.613 . S
N218 C221 1.350 . S
N219 S217 1.610 . S
N219 C220 1.351 . S
C220 C214 1.428 . S
C220 N219 1.351 . S
C220 C221 1.434 . S
C221 C212 1.429 . S
C221 N218 1.350 . S
C221 C220 1.434 . S
C93 C85 1.509 . S
C91 C21 1.510 . S
C102 C19 1.446 . S
C104 N72 1.419 . S
C113 C18 1.414 . S
C115 N83 1.408 . S
C124 C20 1.494 . S
C126 C74 1.505 . S
C135 C44 1.508 . S
C137 C63 1.511 . S
C146 C42 1.446 . S
C148 N50 1.418 . S
C159 N61 1.402 . S
C157 C41 1.416 . S
C170 C52 1.502 . S
C168 C43 1.498 . S
C179 C16 1.527 . S
C181 C55 1.522 . S
C190 C17 1.495 . S
C192 C66 1.491 . S
C203 C77 1.523 . S
C201 C39 1.527 . S
C212 C40 1.496 . S
C214 C88 1.491 . S
