# Generated by pormake.
# Topology anh, (6,3)-cn, num edge types: 1
# Building blocks:
#     Node 0, Type 0, BuildingBlock: BETFAJ_clean_sbu_0, # of connection points: 6
#     Node 1, Type 0, BuildingBlock: BETFAJ_clean_sbu_0, # of connection points: 6
#     Node 2, Type 0, BuildingBlock: BETFAJ_clean_sbu_0, # of connection points: 6
#     Node 3, Type 1, BuildingBlock: BETDAH_clean_linker_0, # of connection points: 3
#     Node 4, Type 1, BuildingBlock: BETDAH_clean_linker_0, # of connection points: 3
#     Node 5, Type 1, BuildingBlock: BETDAH_clean_linker_0, # of connection points: 3
#     Node 6, Type 1, BuildingBlock: BETDAH_clean_linker_0, # of connection points: 3
#     Node 7, Type 1, BuildingBlock: BETDAH_clean_linker_0, # of connection points: 3
#     Node 8, Type 1, BuildingBlock: BETDAH_clean_linker_0, # of connection points: 3
#     Edge 9, Type (0, 1), None
#     Edge 10, Type (0, 1), None
#     Edge 11, Type (0, 1), None
#     Edge 12, Type (0, 1), None
#     Edge 13, Type (0, 1), None
#     Edge 14, Type (0, 1), None
#     Edge 15, Type (0, 1), None
#     Edge 16, Type (0, 1), None
#     Edge 17, Type (0, 1), None
#     Edge 18, Type (0, 1), None
#     Edge 19, Type (0, 1), None
#     Edge 20, Type (0, 1), None
#     Edge 21, Type (0, 1), None
#     Edge 22, Type (0, 1), None
#     Edge 23, Type (0, 1), None
#     Edge 24, Type (0, 1), None
#     Edge 25, Type (0, 1), None
#     Edge 26, Type (0, 1), None
# Relax obj value: 0.398
# Max RMSD: 0.304
# Mean RMSD: 0.153
data_MOF--net-anh--node1-BETFAJ_clean_sbu_0--node2-BETDAH_clean_linker_0--edge1-none
_symmetry_space_group_name_H-M    P1
_symmetry_Int_Tables_number       1
_symmetry_cell_setting            triclinic
loop_
_symmetry_equiv_pos_as_xyz
'x, y, z'
_cell_length_a     14.632661
_cell_length_b     20.374011
_cell_length_c     21.955924
_cell_angle_alpha  93.040117
_cell_angle_beta   91.004246
_cell_angle_gamma 138.08619
loop_
_atom_site_label
_atom_site_type_symbol
_atom_site_fract_x
_atom_site_fract_y
_atom_site_fract_z
_atom_type_partial_charge
Sm0 Sm 0.43737 0.67251 0.15341 0.0
Sm1 Sm 0.21796 0.639 0.17518 0.0
C2 C 0.67363 0.73815 0.14382 0.0
C3 C 0.72673 0.7149 0.18352 0.0
C4 C 0.75256 0.66865 0.15308 0.0
C5 C 0.66614 0.56986 0.16117 0.0
C6 C 0.5587 0.52196 0.19936 0.0
C7 C 0.57086 0.57902 0.24485 0.0
C8 C 0.66428 0.67966 0.23899 0.0
C9 C 0.37313 0.64716 0.27483 0.0
C10 C 0.51532 0.87006 0.17047 0.0
C11 C 1.00896 0.58865 0.21802 0.0
C12 C 0.86625 0.49267 0.20131 0.0
C13 C 0.83822 0.42547 0.15757 0.0
C14 C 0.71023 0.35178 0.12475 0.0
C15 C 0.60857 0.34315 0.13754 0.0
C16 C 0.62656 0.39162 0.19301 0.0
C17 C 0.75756 0.47039 0.22297 0.0
C18 C 0.20736 0.59219 0.05096 0.0
C19 C 1.1462 0.44439 0.15926 0.0
O20 O 0.66418 0.79077 0.17162 0.0
O21 O 0.56196 0.66229 0.10852 0.0
O22 O 0.38909 0.70171 0.24068 0.0
O23 O 0.38818 0.59998 0.2449 0.0
O24 O 0.5457 0.83032 0.14212 0.0
O25 O 0.39362 0.81128 0.19236 0.0
O26 O 1.08013 0.58346 0.24904 0.0
O27 O 1.07338 0.64573 0.17318 0.0
O28 O 0.31614 0.66804 0.08318 0.0
O29 O 1.10448 0.54338 0.08343 0.0
O30 O 1.12409 0.4868 0.19209 0.0
O31 O 0.25744 0.50055 0.12861 0.0
H32 H 0.81124 0.69822 0.11332 0.0
H33 H 0.66683 0.52834 0.12912 0.0
H34 H 0.49496 0.54444 0.27787 0.0
H35 H 0.65716 0.72019 0.26805 0.0
H36 H 0.91799 0.43548 0.14445 0.0
H37 H 0.69761 0.31193 0.08438 0.0
H38 H 0.54605 0.38039 0.20763 0.0
H39 H 0.77531 0.51779 0.2593 0.0
Sm40 Sm 0.89491 0.10856 0.46483 0.0
Sm41 Sm 0.6882 0.0942 0.4666 0.0
C42 C 1.04668 0.08408 0.48306 0.0
C43 C 1.02222 1.0053 0.50506 0.0
C44 C 0.97964 0.97438 0.56394 0.0
C45 C 0.95871 0.90019 0.58381 0.0
C46 C 0.97939 0.85612 0.54499 0.0
C47 C 1.0181 0.88469 0.48591 0.0
C48 C 1.03977 0.95906 0.46609 0.0
C49 C 0.8232 0.11555 0.34925 0.0
C50 C 0.57478 0.88766 0.45171 0.0
C51 C 0.53061 0.1156 0.46165 0.0
C52 C 0.5618 0.19998 0.4857 0.0
C53 C 0.69341 0.29632 0.48212 0.0
C54 C 0.73332 0.3764 0.51362 0.0
C55 C 0.6414 0.36317 0.54833 0.0
C56 C 0.50715 0.26649 0.55009 0.0
C57 C 0.46814 0.18549 0.51943 0.0
C58 C 0.75105 0.08025 0.58154 0.0
C59 C 1.01692 0.31838 0.46775 0.0
O60 O 1.04508 0.13305 0.52303 0.0
O61 O 0.98483 0.06337 0.42983 0.0
O62 O 0.74033 0.05559 0.38716 0.0
O63 O 0.94876 0.17451 0.37172 0.0
O64 O 0.69875 0.94127 0.47687 0.0
O65 O 0.5493 0.93281 0.43128 0.0
O66 O 0.5989 0.13027 0.41608 0.0
O67 O 0.52468 0.06956 0.50336 0.0
O68 O 0.8383 0.14385 0.54572 0.0
O69 O 0.62856 1.02035 0.55516 0.0
O70 O 0.88566 0.26419 0.45995 0.0
O71 O 1.05271 0.27655 0.47697 0.0
H72 H 0.96352 1.00778 0.5948 0.0
H73 H 0.92837 0.8783 0.62959 0.0
H74 H 1.03396 0.85075 0.45544 0.0
H75 H 1.07125 0.981 0.42044 0.0
H76 H 0.76811 0.31015 0.45665 0.0
H77 H 0.83873 0.4484 0.51226 0.0
H78 H 0.43274 0.25304 0.57575 0.0
H79 H 0.36633 0.11154 0.52337 0.0
Sm80 Sm 0.79573 0.62295 0.87695 0.0
Sm81 Sm 0.59211 0.41415 0.84344 0.0
C82 C 0.98578 0.81595 0.87124 0.0
C83 C 0.9777 0.88115 0.85364 0.0
C84 C 1.01099 0.91501 0.79494 0.0
C85 C 0.99567 0.97111 0.77583 0.0
C86 C 0.94743 0.99481 0.81506 0.0
C87 C 0.9146 0.96187 0.87366 0.0
C88 C 0.92935 0.90537 0.89283 0.0
C89 C 0.6522 0.50567 0.97182 0.0
C90 C 0.47267 0.5082 0.86119 0.0
C91 C 0.44508 0.22647 0.824 0.0
C92 C 0.49254 0.18401 0.81276 0.0
C93 C 0.61435 0.22711 0.84367 0.0
C94 C 0.68135 0.20721 0.82127 0.0
C95 C 0.62659 0.14223 0.76806 0.0
C96 C 0.49909 0.09379 0.73998 0.0
C97 C 0.43348 0.11509 0.76182 0.0
C98 C 0.66719 0.51608 0.74327 0.0
C99 C 0.92417 0.53562 0.87509 0.0
O100 O 0.95169 0.75419 0.82674 0.0
O101 O 0.93905 0.77596 0.92305 0.0
O102 O 0.70685 0.49936 0.9327 0.0
O103 O 0.67349 0.57874 0.96325 0.0
O104 O 0.60404 0.59165 0.85395 0.0
O105 O 0.44203 0.4276 0.86588 0.0
O106 O 0.47296 0.26925 0.87881 0.0
O107 O 0.47002 0.27838 0.7808 0.0
O108 O 0.74778 0.53988 0.78666 0.0
O109 O 0.54128 0.44009 0.75511 0.0
O110 O 0.79675 0.45311 0.84959 0.0
O111 O 0.94644 0.61077 0.89444 0.0
H112 H 1.04816 0.89754 0.76351 0.0
H113 H 1.02297 0.99687 0.73069 0.0
H114 H 0.87871 0.98059 0.9049 0.0
H115 H 0.90227 0.8804 0.93814 0.0
H116 H 0.66241 0.28077 0.88307 0.0
H117 H 0.77957 0.24688 0.84403 0.0
H118 H 0.45145 0.04138 0.69989 0.0
H119 H 0.34039 0.0818 0.73686 0.0
H120 H 0.59425 0.9445 0.28677 0.0
H121 H 0.9657 0.24923 0.26382 0.0
H122 H 0.70412 1.03799 0.10579 0.0
C123 C 0.66148 1.00283 0.257 0.0
C124 C 0.63131 0.97842 0.19338 0.0
C125 C 0.78387 0.09875 0.28263 0.0
C126 C 0.8724 0.17516 0.24403 0.0
C127 C 0.8426 0.1553 0.17992 0.0
C128 C 0.72402 0.05545 0.155 0.0
N129 N 0.9323 0.23154 0.13923 0.0
C130 C 1.04066 0.33541 0.15363 0.0
H131 H 0.56827 0.37046 0.66041 0.0
H132 H 0.86056 0.68546 0.68856 0.0
H133 H 0.83045 0.55403 0.51929 0.0
C134 C 0.64374 0.44172 0.64238 0.0
C135 C 0.68972 0.45008 0.58446 0.0
C136 C 0.70346 0.52618 0.67977 0.0
C137 C 0.80957 0.61969 0.65904 0.0
C138 C 0.85417 0.6285 0.601 0.0
C139 C 0.79337 0.54446 0.56389 0.0
N140 N 0.97132 0.72204 0.58219 0.0
C141 C 0.96938 0.78581 0.56634 0.0
H142 H 1.04616 0.58716 -0.01326 0.0
H143 H 0.31461 0.56403 0.96792 0.0
H144 H 1.05784 0.48985 0.81044 0.0
C145 C 1.08746 0.5716 0.95673 0.0
C146 C 1.03595 0.54009 0.89464 0.0
C147 C 1.18522 0.57944 -0.01711 0.0
C148 C 0.24225 0.55918 0.94649 0.0
C149 C 1.19996 0.52626 0.88383 0.0
C150 C 1.09375 0.51577 0.85836 0.0
N151 N 0.25579 0.4998 0.84689 0.0
C152 C 0.36045 0.50343 0.85385 0.0
H153 H 0.53305 0.81933 0.33834 0.0
H154 H 0.23222 0.50916 0.35996 0.0
H155 H 0.40669 0.7213 0.51679 0.0
C156 C 0.47074 0.75968 0.3676 0.0
C157 C 0.48097 0.78217 0.43 0.0
C158 C 0.38313 0.66257 0.34204 0.0
C159 C 0.3022 0.58456 0.37999 0.0
C160 C 0.30891 0.60498 0.44361 0.0
C161 C 0.4006 0.70467 0.46821 0.0
N162 N 0.22457 0.52898 0.4843 0.0
C163 C 1.12321 0.42609 0.47014 0.0
H164 H 0.63993 0.11611 0.6471 0.0
H165 H 0.90885 0.09365 0.66577 0.0
H166 H 0.79513 0.14267 0.8262 0.0
C167 C 0.69915 0.11494 0.67629 0.0
C168 C 0.70464 0.12854 0.74022 0.0
C169 C 0.77113 0.10161 0.64891 0.0
C170 C 0.85203 0.10314 0.68625 0.0
C171 C 0.86045 0.11841 0.75047 0.0
C172 C 0.78748 0.13131 0.77679 0.0
N173 N 0.95339 0.13248 0.78928 0.0
C174 C 0.94282 0.05984 0.79755 0.0
H175 H 0.68652 0.41146 0.02596 0.0
H176 H 0.43634 0.44974 0.0257 0.0
H177 H 0.34778 0.2444 0.13745 0.0
C178 C 0.5923 0.38482 0.03781 0.0
C179 C 0.52241 0.32442 0.08605 0.0
C180 C 0.55995 0.42893 0.0143 0.0
C181 C 0.45128 0.407 0.03722 0.0
C182 C 0.37407 0.33942 0.08183 0.0
C183 C 0.39944 0.28883 0.09928 0.0
N184 N 0.32495 0.35656 0.12713 0.0
C185 C 0.42439 0.43038 0.1731 0.0
loop_
_geom_bond_atom_site_label_1
_geom_bond_atom_site_label_2
_geom_bond_distance
_geom_bond_site_symmetry_2
_ccdc_geom_bond_type
Sm0 C2 2.846 . S
Sm0 O20 2.543 . S
Sm0 O21 2.450 . S
Sm0 O22 2.681 . S
Sm0 O23 2.464 . S
Sm0 O24 2.396 . S
Sm0 O28 2.386 . S
Sm0 O31 2.408 1_455 S
Sm1 C11 2.846 . S
Sm1 O22 2.386 1_655 S
Sm1 O25 2.408 1_655 S
Sm1 O26 2.543 . S
Sm1 O27 2.450 . S
Sm1 O28 2.681 1_655 S
Sm1 O29 2.464 . S
Sm1 O30 2.396 . S
C2 Sm0 2.846 . S
C2 C3 1.506 . S
C2 O20 1.261 . S
C2 O21 1.242 . S
C3 C2 1.506 . S
C3 C4 1.358 . S
C3 C8 1.382 . S
C4 C3 1.358 . S
C4 C5 1.385 . S
C4 H32 0.930 . S
C5 C4 1.385 . S
C5 C6 1.395 . S
C5 H33 0.929 . S
C6 C5 1.395 . S
C6 C7 1.335 . S
C7 C6 1.335 . S
C7 C8 1.398 . S
C7 H34 0.930 . S
C8 C3 1.382 . S
C8 C7 1.398 . S
C8 H35 0.929 . S
C9 O22 1.271 . S
C9 O23 1.251 . S
C10 O24 1.252 . S
C10 O25 1.272 . S
C11 Sm1 2.846 . S
C11 C12 1.506 . S
C11 O26 1.261 . S
C11 O27 1.242 . S
C12 C11 1.506 . S
C12 C13 1.358 . S
C12 C17 1.382 . S
C13 C12 1.358 . S
C13 C14 1.385 . S
C13 H36 0.930 . S
C14 C13 1.385 . S
C14 C15 1.395 . S
C14 H37 0.929 . S
C15 C14 1.395 . S
C15 C16 1.335 . S
C16 C15 1.335 . S
C16 C17 1.398 . S
C16 H38 0.930 . S
C17 C12 1.382 . S
C17 C16 1.398 . S
C17 H39 0.929 . S
C18 O28 1.271 . S
C18 O29 1.251 1_455 S
C19 O30 1.252 . S
C19 O31 1.272 . S
O20 Sm0 2.543 . S
O20 C2 1.261 . S
O21 Sm0 2.450 . S
O21 C2 1.242 . S
O22 Sm0 2.681 . S
O22 Sm1 2.386 1_455 S
O22 C9 1.271 . S
O23 Sm0 2.464 . S
O23 C9 1.251 . S
O24 Sm0 2.396 . S
O24 C10 1.252 . S
O25 Sm1 2.408 1_455 S
O25 C10 1.272 . S
O26 Sm1 2.543 . S
O26 C11 1.261 . S
O27 Sm1 2.450 . S
O27 C11 1.242 . S
O28 Sm0 2.386 . S
O28 Sm1 2.681 1_455 S
O28 C18 1.271 . S
O29 Sm1 2.464 . S
O29 C18 1.251 1_655 S
O30 Sm1 2.396 . S
O30 C19 1.252 . S
O31 Sm0 2.408 1_655 S
O31 C19 1.272 . S
H32 C4 0.930 . S
H33 C5 0.929 . S
H34 C7 0.930 . S
H35 C8 0.929 . S
H36 C13 0.930 . S
H37 C14 0.929 . S
H38 C16 0.930 . S
H39 C17 0.929 . S
Sm40 C42 2.850 . S
Sm40 O60 2.546 . S
Sm40 O61 2.454 . S
Sm40 O62 2.678 1_565 S
Sm40 O63 2.463 . S
Sm40 O64 2.396 . S
Sm40 O68 2.384 1_565 S
Sm40 O71 2.405 1_565 S
Sm41 C51 2.846 . S
Sm41 O62 2.386 . S
Sm41 O65 2.408 1_545 S
Sm41 O66 2.543 . S
Sm41 O67 2.450 . S
Sm41 O68 2.681 . S
Sm41 O69 2.464 . S
Sm41 O70 2.396 . S
C42 Sm40 2.850 . S
C42 C43 1.506 . S
C42 O60 1.261 . S
C42 O61 1.242 . S
C43 C42 1.506 . S
C43 C44 1.358 . S
C43 C48 1.382 . S
C44 C43 1.358 . S
C44 C45 1.385 . S
C44 H72 0.930 . S
C45 C44 1.385 . S
C45 C46 1.395 . S
C45 H73 0.929 . S
C46 C45 1.395 . S
C46 C47 1.335 . S
C47 C46 1.335 . S
C47 C48 1.398 . S
C47 H74 0.930 . S
C48 C43 1.382 . S
C48 C47 1.398 . S
C48 H75 0.929 . S
C49 O62 1.271 . S
C49 O63 1.251 1_545 S
C50 O64 1.252 . S
C50 O65 1.272 . S
C51 Sm41 2.846 . S
C51 C52 1.506 . S
C51 O66 1.261 . S
C51 O67 1.242 . S
C52 C51 1.506 . S
C52 C53 1.358 . S
C52 C57 1.382 . S
C53 C52 1.358 . S
C53 C54 1.385 . S
C53 H76 0.930 . S
C54 C53 1.385 . S
C54 C55 1.395 . S
C54 H77 0.929 . S
C55 C54 1.395 . S
C55 C56 1.335 . S
C56 C55 1.335 . S
C56 C57 1.398 . S
C56 H78 0.930 . S
C57 C52 1.382 . S
C57 C56 1.398 . S
C57 H79 0.929 . S
C58 O68 1.271 . S
C58 O69 1.251 . S
C59 O70 1.252 . S
C59 O71 1.272 . S
O60 Sm40 2.546 . S
O60 C42 1.261 . S
O61 Sm40 2.454 . S
O61 C42 1.242 . S
O62 Sm40 2.678 1_545 S
O62 Sm41 2.386 . S
O62 C49 1.271 . S
O63 Sm40 2.463 . S
O63 C49 1.251 1_565 S
O64 Sm40 2.396 . S
O64 C50 1.252 . S
O65 Sm41 2.408 1_565 S
O65 C50 1.272 . S
O66 Sm41 2.543 . S
O66 C51 1.261 . S
O67 Sm41 2.450 . S
O67 C51 1.242 . S
O68 Sm40 2.384 1_545 S
O68 Sm41 2.681 . S
O68 C58 1.271 . S
O69 Sm41 2.464 . S
O69 C58 1.251 . S
O70 Sm41 2.396 . S
O70 C59 1.252 . S
O71 Sm40 2.405 1_545 S
O71 C59 1.272 . S
H72 C44 0.930 . S
H73 C45 0.929 . S
H74 C47 0.930 . S
H75 C48 0.929 . S
H76 C53 0.930 . S
H77 C54 0.929 . S
H78 C56 0.930 . S
H79 C57 0.929 . S
Sm80 C82 2.846 . S
Sm80 O100 2.543 . S
Sm80 O101 2.450 . S
Sm80 O102 2.681 . S
Sm80 O103 2.464 1_556 S
Sm80 O104 2.396 . S
Sm80 O108 2.386 . S
Sm80 O111 2.408 . S
Sm81 C91 2.846 . S
Sm81 O102 2.386 . S
Sm81 O105 2.408 . S
Sm81 O106 2.543 . S
Sm81 O107 2.450 . S
Sm81 O108 2.681 . S
Sm81 O109 2.464 . S
Sm81 O110 2.396 . S
C82 Sm80 2.846 . S
C82 C83 1.506 . S
C82 O100 1.261 . S
C82 O101 1.242 . S
C83 C82 1.506 . S
C83 C84 1.358 . S
C83 C88 1.382 . S
C84 C83 1.358 . S
C84 C85 1.385 . S
C84 H112 0.930 . S
C85 C84 1.385 . S
C85 C86 1.395 . S
C85 H113 0.929 . S
C86 C85 1.395 . S
C86 C87 1.335 . S
C87 C86 1.335 . S
C87 C88 1.398 . S
C87 H114 0.931 1_566 S
C88 C83 1.382 . S
C88 C87 1.398 . S
C88 H115 0.929 1_556 S
C89 O102 1.271 1_554 S
C89 O103 1.251 . S
C90 O104 1.252 . S
C90 O105 1.272 . S
C91 Sm81 2.846 . S
C91 C92 1.506 . S
C91 O106 1.261 . S
C91 O107 1.242 . S
C92 C91 1.506 . S
C92 C93 1.358 . S
C92 C97 1.382 . S
C93 C92 1.358 . S
C93 C94 1.385 . S
C93 H116 0.930 . S
C94 C93 1.385 . S
C94 C95 1.395 . S
C94 H117 0.929 . S
C95 C94 1.395 . S
C95 C96 1.335 . S
C96 C95 1.335 . S
C96 C97 1.398 . S
C96 H118 0.930 . S
C97 C92 1.382 . S
C97 C96 1.398 . S
C97 H119 0.929 . S
C98 O108 1.271 . S
C98 O109 1.251 . S
C99 O110 1.252 . S
C99 O111 1.272 . S
O100 Sm80 2.543 . S
O100 C82 1.261 . S
O101 Sm80 2.450 . S
O101 C82 1.242 . S
O102 Sm80 2.681 . S
O102 Sm81 2.386 . S
O102 C89 1.271 1_556 S
O103 Sm80 2.464 1_554 S
O103 C89 1.251 . S
O104 Sm80 2.396 . S
O104 C90 1.252 . S
O105 Sm81 2.408 . S
O105 C90 1.272 . S
O106 Sm81 2.543 . S
O106 C91 1.261 . S
O107 Sm81 2.450 . S
O107 C91 1.242 . S
O108 Sm80 2.386 . S
O108 Sm81 2.681 . S
O108 C98 1.271 . S
O109 Sm81 2.464 . S
O109 C98 1.251 . S
O110 Sm81 2.396 . S
O110 C99 1.252 . S
O111 Sm80 2.408 . S
O111 C99 1.272 . S
H112 C84 0.930 . S
H113 C85 0.929 . S
H114 C87 0.931 1_544 S
H115 C88 0.929 1_554 S
H116 C93 0.930 . S
H117 C94 0.929 . S
H118 C96 0.930 . S
H119 C97 0.929 . S
H120 C123 0.929 . S
H121 C126 0.929 . S
H122 C128 0.930 . S
C123 H120 0.929 . S
C123 C124 1.398 . S
C123 C125 1.394 1_565 S
C124 C123 1.398 . S
C124 C128 1.407 . S
C125 C123 1.394 1_545 S
C125 C126 1.395 . S
C126 H121 0.929 . S
C126 C125 1.395 . S
C126 C127 1.382 . S
C127 C126 1.382 . S
C127 C128 1.392 1_545 S
C127 N129 1.420 . S
C128 H122 0.930 . S
C128 C124 1.407 . S
C128 C127 1.392 1_565 S
N129 C127 1.420 . S
N129 C130 1.244 . S
C130 N129 1.244 . S
H131 C134 0.929 . S
H132 C137 0.929 . S
H133 C139 0.930 . S
C134 H131 0.929 . S
C134 C135 1.398 . S
C134 C136 1.396 . S
C135 C134 1.398 . S
C135 C139 1.407 . S
C136 C134 1.396 . S
C136 C137 1.394 . S
C137 H132 0.929 . S
C137 C136 1.394 . S
C137 C138 1.382 . S
C138 C137 1.382 . S
C138 C139 1.392 . S
C138 N140 1.420 . S
C139 H133 0.930 . S
C139 C135 1.407 . S
C139 C138 1.392 . S
N140 C138 1.420 . S
N140 C141 1.244 . S
C141 N140 1.244 . S
H142 C145 0.930 1_655 S
H143 C148 0.929 . S
H144 C150 0.930 . S
C145 H142 0.930 1_455 S
C145 C146 1.398 1_455 S
C145 C147 1.395 1_556 S
C146 C145 1.398 1_655 S
C146 C150 1.407 1_655 S
C147 C145 1.395 1_554 S
C147 C148 1.394 1_554 S
C148 H143 0.929 . S
C148 C147 1.394 1_556 S
C148 C149 1.382 . S
C149 C148 1.382 . S
C149 C150 1.392 . S
C149 N151 1.420 . S
C150 H144 0.930 . S
C150 C146 1.407 1_455 S
C150 C149 1.392 . S
N151 C149 1.420 . S
N151 C152 1.244 . S
C152 N151 1.244 . S
H153 C156 0.929 . S
H154 C159 0.929 . S
H155 C161 0.930 . S
C156 H153 0.929 . S
C156 C157 1.398 . S
C156 C158 1.396 . S
C157 C156 1.398 . S
C157 C161 1.407 . S
C158 C156 1.396 . S
C158 C159 1.394 1_455 S
C159 H154 0.929 . S
C159 C158 1.394 1_655 S
C159 C160 1.382 1_655 S
C160 C159 1.382 1_455 S
C160 C161 1.392 . S
C160 N162 1.420 1_455 S
C161 H155 0.930 . S
C161 C157 1.407 . S
C161 C160 1.392 . S
N162 C160 1.420 1_655 S
N162 C163 1.244 . S
C163 N162 1.244 . S
H164 C167 0.929 . S
H165 C170 0.917 1_565 S
H166 C172 0.930 . S
C167 H164 0.929 . S
C167 C168 1.398 . S
C167 C169 1.396 . S
C168 C167 1.398 . S
C168 C172 1.407 . S
C169 C167 1.396 . S
C169 C170 1.406 . S
C170 H165 0.917 1_545 S
C170 C169 1.406 . S
C170 C171 1.382 . S
C171 C170 1.382 . S
C171 C172 1.392 . S
C171 N173 1.420 1_545 S
C172 H166 0.930 . S
C172 C168 1.407 . S
C172 C171 1.392 . S
N173 C171 1.420 1_565 S
N173 C174 1.244 . S
C174 N173 1.244 . S
H175 C178 0.929 1_556 S
H176 C181 0.929 1_556 S
H177 C183 0.930 . S
C178 H175 0.929 1_554 S
C178 C179 1.398 . S
C178 C180 1.396 1_554 S
C179 C178 1.398 . S
C179 C183 1.407 . S
C180 C178 1.396 1_556 S
C180 C181 1.394 1_556 S
C181 H176 0.929 1_554 S
C181 C180 1.394 1_554 S
C181 C182 1.382 . S
C182 C181 1.382 . S
C182 C183 1.392 . S
C182 N184 1.420 . S
C183 H177 0.930 . S
C183 C179 1.407 . S
C183 C182 1.392 . S
N184 C182 1.420 . S
N184 C185 1.244 . S
C185 N184 1.244 . S
C6 C185 4.672 . S
C59 C163 2.392 . S
C86 C174 3.385 . S
C15 C179 3.037 . S
C157 C50 2.401 . S
C168 C95 1.832 . S
C46 C141 2.346 . S
C99 C146 4.748 . S
C10 C124 2.631 . S
C135 C55 2.295 . S
C152 C90 4.729 . S
C19 C130 2.519 . S
C147 C18 1.936 . S
C49 C125 1.098 . S
C98 C136 1.402 . S
C169 C58 1.308 . S
C180 C89 1.721 1_556 S
C9 C158 1.023 . S
