# Generated by pormake.
# Topology dag, (6,3)-cn, num edge types: 1
# Building blocks:
#     Node 0, Type 0, BuildingBlock: IZENUY_clean_sbu_0, # of connection points: 6
#     Node 1, Type 0, BuildingBlock: IZENUY_clean_sbu_0, # of connection points: 6
#     Node 2, Type 0, BuildingBlock: IZENUY_clean_sbu_0, # of connection points: 6
#     Node 3, Type 0, BuildingBlock: IZENUY_clean_sbu_0, # of connection points: 6
#     Node 4, Type 1, BuildingBlock: BETDAH_clean_linker_0, # of connection points: 3
#     Node 5, Type 1, BuildingBlock: BETDAH_clean_linker_0, # of connection points: 3
#     Node 6, Type 1, BuildingBlock: BETDAH_clean_linker_0, # of connection points: 3
#     Node 7, Type 1, BuildingBlock: BETDAH_clean_linker_0, # of connection points: 3
#     Node 8, Type 1, BuildingBlock: BETDAH_clean_linker_0, # of connection points: 3
#     Node 9, Type 1, BuildingBlock: BETDAH_clean_linker_0, # of connection points: 3
#     Node 10, Type 1, BuildingBlock: BETDAH_clean_linker_0, # of connection points: 3
#     Node 11, Type 1, BuildingBlock: BETDAH_clean_linker_0, # of connection points: 3
#     Edge 12, Type (0, 1), None
#     Edge 13, Type (0, 1), None
#     Edge 14, Type (0, 1), None
#     Edge 15, Type (0, 1), None
#     Edge 16, Type (0, 1), None
#     Edge 17, Type (0, 1), None
#     Edge 18, Type (0, 1), None
#     Edge 19, Type (0, 1), None
#     Edge 20, Type (0, 1), None
#     Edge 21, Type (0, 1), None
#     Edge 22, Type (0, 1), None
#     Edge 23, Type (0, 1), None
#     Edge 24, Type (0, 1), None
#     Edge 25, Type (0, 1), None
#     Edge 26, Type (0, 1), None
#     Edge 27, Type (0, 1), None
#     Edge 28, Type (0, 1), None
#     Edge 29, Type (0, 1), None
#     Edge 30, Type (0, 1), None
#     Edge 31, Type (0, 1), None
#     Edge 32, Type (0, 1), None
#     Edge 33, Type (0, 1), None
#     Edge 34, Type (0, 1), None
#     Edge 35, Type (0, 1), None
# Relax obj value: 0.088
# Max RMSD: 0.122
# Mean RMSD: 0.109
data_MOF--net-dag--node1-IZENUY_clean_sbu_0--node2-BETDAH_clean_linker_0--edge1-none
_symmetry_space_group_name_H-M    P1
_symmetry_Int_Tables_number       1
_symmetry_cell_setting            triclinic
loop_
_symmetry_equiv_pos_as_xyz
'x, y, z'
_cell_length_a     16.883436
_cell_length_b     17.999002
_cell_length_c     16.20533
_cell_angle_alpha  95.647315
_cell_angle_beta   90.045894
_cell_angle_gamma 90.089938
loop_
_atom_site_label
_atom_site_type_symbol
_atom_site_fract_x
_atom_site_fract_y
_atom_site_fract_z
_atom_type_partial_charge
Fe0 Fe 0.23597 0.90509 0.11188 0.0
Fe1 Fe 0.07682 0.95325 0.05079 0.0
O2 O 0.14183 0.88118 0.06714 0.0
Fe3 Fe 0.11204 0.78777 0.03517 0.0
O4 O 0.13109 0.75927 0.13789 0.0
O5 O 0.2436 0.82019 0.1656 0.0
O6 O 0.19061 0.9561 0.20789 0.0
C7 C 0.14146 1.00914 0.20081 0.0
C8 C 0.26754 0.79725 0.9798 0.0
O9 O 0.11589 1.01858 0.13048 0.0
C10 C 0.0495 0.86152 0.90834 0.0
O11 O 0.24623 0.99277 0.06288 0.0
O12 O 0.14547 0.98685 0.9766 0.0
O13 O 0.21058 0.75788 1.00066 0.0
O14 O 0.28409 0.85985 0.0189 0.0
C15 C 0.97589 0.855 0.11581 0.0
O16 O 0.02325 0.90522 0.96621 0.0
O17 O 0.09225 0.80779 0.9263 0.0
C18 C 0.21393 1.01129 0.99734 0.0
O19 O 1.00815 0.91922 0.12552 0.0
O20 O 1.00713 0.80377 0.06649 0.0
C21 C 0.19528 0.76863 0.17797 0.0
Fe22 Fe 0.73533 0.6312 0.44796 0.0
Fe23 Fe 0.61162 0.74868 0.52385 0.0
O24 O 0.64117 0.65524 0.49221 0.0
Fe25 Fe 0.57578 0.58323 0.50828 0.0
O26 O 0.64385 0.54972 0.58313 0.0
O27 O 0.74502 0.54366 0.49755 0.0
O28 O 0.78335 0.67656 0.54086 0.0
C29 C 0.76696 0.73911 0.57987 0.0
C30 C 0.64048 0.52741 0.35873 0.0
O31 O 0.71014 0.77853 0.55899 0.0
C32 C 0.4755 0.68126 0.44249 0.0
O33 O 0.74349 0.71593 0.39392 0.0
O34 O 0.63128 0.77714 0.42118 0.0
O35 O 0.61501 0.51783 0.42902 0.0
O36 O 0.69015 0.58013 0.35187 0.0
C37 C 0.54815 0.67507 0.65039 0.0
O38 O 0.50673 0.73263 0.49187 0.0
O39 O 0.50779 0.61716 0.43289 0.0
C40 C 0.69547 0.76755 0.38126 0.0
O41 O 0.5913 0.72874 0.6327 0.0
O42 O 0.52195 0.63142 0.59234 0.0
C43 C 0.71252 0.52558 0.56323 0.0
Fe44 Fe 0.9211 0.24751 0.02324 0.0
Fe45 Fe 0.95764 0.08258 0.00745 0.0
O46 O 0.89185 0.15403 0.99112 0.0
Fe47 Fe 0.79801 0.12954 0.94594 0.0
O48 O 0.79112 0.21369 0.89083 0.0
O49 O 0.903 0.27551 0.9201 0.0
O50 O 0.02639 0.23217 0.99307 0.0
C51 C 0.0583 0.18155 0.9435 0.0
C52 C 0.76346 0.23916 0.07461 0.0
O53 O 0.026 0.11736 0.93266 0.0
C54 C 0.82076 0.0245 0.06218 0.0
O55 O 0.9398 0.22724 0.13243 0.0
O56 O 1.01038 0.13114 0.09212 0.0
O57 O 0.74866 0.17557 0.03724 0.0
O58 O 0.82242 0.27743 0.05684 0.0
C59 C 0.89293 0.02582 0.85769 0.0
O60 O 0.88961 0.04847 0.08175 0.0
O61 O 0.78797 0.04233 0.99645 0.0
C62 C 0.98263 0.17346 0.15031 0.0
O63 O 0.91916 1.01681 0.92788 0.0
O64 O 0.84335 0.07822 0.85067 0.0
C65 C 0.84021 0.26449 0.87787 0.0
Fe66 Fe 0.45793 0.4521 0.55073 0.0
Fe67 Fe 0.29777 0.40504 0.61071 0.0
O68 O 0.39193 0.3806 0.56669 0.0
Fe69 Fe 0.42108 0.28703 0.53504 0.0
O70 O 0.5263 0.30264 0.56592 0.0
O71 O 0.52561 0.41756 0.62616 0.0
O72 O 0.41913 0.51796 0.62988 0.0
C73 C 0.39213 0.50921 0.69983 0.0
C74 C 0.48386 0.36064 0.40843 0.0
O75 O 0.34235 0.45668 0.70648 0.0
C76 C 0.26528 0.29604 0.48024 0.0
O77 O 0.39048 0.48606 0.47572 0.0
O78 O 0.28837 0.49212 0.56015 0.0
O79 O 0.44054 0.30696 0.42593 0.0
O80 O 0.51111 0.40333 0.46672 0.0
C81 C 0.33902 0.27029 0.67941 0.0
O82 O 0.24962 0.35908 0.51835 0.0
O83 O 0.32231 0.25688 0.50099 0.0
C84 C 0.32152 0.50987 0.49465 0.0
O85 O 0.29016 0.32101 0.66593 0.0
O86 O 0.40228 0.25948 0.63812 0.0
C87 C 0.55802 0.35354 0.61548 0.0
H88 H 0.99374 0.04913 0.22525 0.0
H89 H 0.22819 0.11351 0.3072 0.0
H90 H 0.06026 0.27874 0.25359 0.0
C91 C 0.03466 0.09186 0.25115 0.0
C92 C 0.01922 0.16567 0.23271 0.0
C93 C 0.11402 0.06968 0.26494 0.0
C94 C 0.16653 0.12654 0.29712 0.0
C95 C 0.14201 0.20248 0.3026 0.0
C96 C 0.07051 0.22136 0.26573 0.0
N97 N 0.19592 0.26141 0.32301 0.0
C98 C 0.23124 0.27648 0.40001 0.0
H99 H 0.53858 0.55201 0.72732 0.0
H100 H 0.46656 0.78012 0.75079 0.0
H101 H 0.30196 0.61181 0.80422 0.0
C102 C 0.49654 0.59417 0.75182 0.0
C103 C 0.41746 0.57053 0.76399 0.0
C104 C 0.51059 0.6679 0.73242 0.0
C105 C 0.4576 0.72276 0.7638 0.0
C106 C 0.38632 0.70263 0.80043 0.0
C107 C 0.36343 0.62622 0.79497 0.0
N108 N 0.3307 0.76013 0.8199 0.0
C109 C 0.29976 0.7785 0.8985 0.0
H110 H 0.88108 0.89786 0.00544 0.0
H111 H 0.87427 0.81805 0.24651 0.0
H112 H 0.71895 0.9927 0.18799 0.0
C113 C 0.85189 0.89496 0.06458 0.0
C114 C 0.80089 0.95273 0.09192 0.0
C115 C 0.8887 0.85596 0.12405 0.0
C116 C 0.84874 0.85 0.19991 0.0
C117 C 0.77876 0.8924 0.21714 0.0
C118 C 0.7608 0.94936 0.16682 0.0
N119 N 0.73238 0.88838 0.28963 0.0
C120 C 0.72104 0.82555 0.33189 0.0
H121 H 0.65091 0.39968 0.50488 0.0
H122 H 0.6627 0.31369 0.74249 0.0
H123 H 0.81618 0.49111 0.68637 0.0
C124 C 0.68081 0.39573 0.56338 0.0
C125 C 0.73203 0.4532 0.59144 0.0
C126 C 0.64538 0.35491 0.62208 0.0
C127 C 0.68702 0.34715 0.69659 0.0
C128 C 0.75711 0.3897 0.7137 0.0
C129 C 0.77384 0.44812 0.66497 0.0
N130 N 0.80468 0.38436 0.7851 0.0
C131 C 0.81747 0.32021 0.82451 0.0
H132 H 0.49318 0.48503 0.33406 0.0
H133 H 0.72809 0.42529 0.25107 0.0
H134 H 0.56387 0.2565 0.30519 0.0
C135 C 0.53474 0.44303 0.30817 0.0
C136 C 0.52058 0.36888 0.32633 0.0
C137 C 0.61366 0.46662 0.29461 0.0
C138 C 0.66689 0.411 0.26198 0.0
C139 C 0.64365 0.33472 0.25609 0.0
C140 C 0.57301 0.31418 0.2935 0.0
N141 N 0.6979 0.27732 0.23168 0.0
C142 C 0.72362 0.26233 0.15064 0.0
H143 H 0.15005 0.13622 0.05515 0.0
H144 H 0.16462 0.22208 0.81753 0.0
H145 H 0.32053 0.04826 0.87839 0.0
C146 C 0.18079 0.14064 0.99728 0.0
C147 C 0.23334 0.08415 0.97046 0.0
C148 C 0.14573 0.18065 0.93771 0.0
C149 C 0.18853 0.189 0.86397 0.0
C150 C 0.25991 0.14801 0.84897 0.0
C151 C 0.27679 0.09023 0.89839 0.0
N152 N 0.31005 0.15448 0.77978 0.0
C153 C 0.3165 0.21531 0.7337 0.0
H154 H 0.38091 0.63686 0.55226 0.0
H155 H 0.37332 0.71883 0.31231 0.0
H156 H 0.22016 0.54123 0.36824 0.0
C157 C 0.3519 0.6398 0.49302 0.0
C158 C 0.3017 0.58151 0.46482 0.0
C159 C 0.38831 0.67987 0.43421 0.0
C160 C 0.34825 0.686 0.35839 0.0
C161 C 0.27878 0.64273 0.3405 0.0
C162 C 0.26159 0.58494 0.38994 0.0
N163 N 0.23197 0.64712 0.26835 0.0
C164 C 0.22065 0.71023 0.22668 0.0
H165 H 0.03959 0.98411 0.83061 0.0
H166 H 0.96769 0.75573 0.80907 0.0
H167 H 0.80319 0.92292 0.75314 0.0
C168 C 0.99765 0.94162 0.80625 0.0
C169 C 0.91857 0.96482 0.7936 0.0
C170 C 1.01173 0.86814 0.82632 0.0
C171 C 0.95869 0.81292 0.79553 0.0
C172 C 0.88744 0.83253 0.75861 0.0
C173 C 0.86462 0.9088 0.76289 0.0
N174 N 0.83206 0.77472 0.73909 0.0
C175 C 0.79965 0.75779 0.66091 0.0
loop_
_geom_bond_atom_site_label_1
_geom_bond_atom_site_label_2
_geom_bond_distance
_geom_bond_site_symmetry_2
_ccdc_geom_bond_type
Fe0 O2 1.918 . S
Fe0 O5 1.997 . S
Fe0 O6 2.002 . S
Fe0 O11 1.976 . S
Fe0 O14 1.995 1_554 S
Fe1 O2 1.918 . S
Fe1 O9 1.997 . S
Fe1 O12 1.996 1_564 S
Fe1 O16 1.976 1_554 S
Fe1 O19 2.002 1_455 S
O2 Fe0 1.918 . S
O2 Fe1 1.918 . S
O2 Fe3 1.918 . S
Fe3 O2 1.918 . S
Fe3 O4 2.002 . S
Fe3 O13 1.976 1_554 S
Fe3 O17 1.996 1_554 S
Fe3 O20 1.997 1_455 S
O4 Fe3 2.002 . S
O4 C21 1.295 . S
O5 Fe0 1.997 . S
O5 C21 1.235 . S
O6 Fe0 2.002 . S
O6 C7 1.295 . S
C7 O6 1.295 . S
C7 O9 1.235 . S
C8 O13 1.287 . S
C8 O14 1.255 . S
O9 Fe1 1.997 . S
O9 C7 1.235 . S
C10 O16 1.287 . S
C10 O17 1.255 . S
O11 Fe0 1.976 . S
O11 C18 1.287 1_564 S
O12 Fe1 1.996 1_546 S
O12 C18 1.255 . S
O13 Fe3 1.976 1_556 S
O13 C8 1.287 . S
O14 Fe0 1.995 1_556 S
O14 C8 1.255 . S
C15 O19 1.295 . S
C15 O20 1.235 . S
O16 Fe1 1.976 1_556 S
O16 C10 1.287 . S
O17 Fe3 1.996 1_556 S
O17 C10 1.255 . S
C18 O11 1.287 1_546 S
C18 O12 1.255 . S
O19 Fe1 2.002 1_655 S
O19 C15 1.295 . S
O20 Fe3 1.997 1_655 S
O20 C15 1.235 . S
C21 O4 1.295 . S
C21 O5 1.235 . S
Fe22 O24 1.918 . S
Fe22 O27 1.997 . S
Fe22 O28 2.002 . S
Fe22 O33 1.976 . S
Fe22 O36 1.996 . S
Fe23 O24 1.918 . S
Fe23 O31 1.997 . S
Fe23 O34 1.996 . S
Fe23 O38 1.976 . S
Fe23 O41 2.002 . S
O24 Fe22 1.918 . S
O24 Fe23 1.918 . S
O24 Fe25 1.918 . S
Fe25 O24 1.918 . S
Fe25 O26 2.002 . S
Fe25 O35 1.976 . S
Fe25 O39 1.996 . S
Fe25 O42 1.997 . S
O26 Fe25 2.002 . S
O26 C43 1.295 . S
O27 Fe22 1.997 . S
O27 C43 1.235 . S
O28 Fe22 2.002 . S
O28 C29 1.295 . S
C29 O28 1.295 . S
C29 O31 1.235 . S
C30 O35 1.287 . S
C30 O36 1.255 . S
O31 Fe23 1.997 . S
O31 C29 1.235 . S
C32 O38 1.287 . S
C32 O39 1.255 . S
O33 Fe22 1.976 . S
O33 C40 1.287 . S
O34 Fe23 1.996 . S
O34 C40 1.255 . S
O35 Fe25 1.976 . S
O35 C30 1.287 . S
O36 Fe22 1.996 . S
O36 C30 1.255 . S
C37 O41 1.295 . S
C37 O42 1.235 . S
O38 Fe23 1.976 . S
O38 C32 1.287 . S
O39 Fe25 1.996 . S
O39 C32 1.255 . S
C40 O33 1.287 . S
C40 O34 1.255 . S
O41 Fe23 2.002 . S
O41 C37 1.295 . S
O42 Fe25 1.997 . S
O42 C37 1.235 . S
C43 O26 1.295 . S
C43 O27 1.235 . S
Fe44 O46 1.918 . S
Fe44 O49 1.997 1_554 S
Fe44 O50 2.002 1_654 S
Fe44 O55 1.976 . S
Fe44 O58 1.996 . S
Fe45 O46 1.918 . S
Fe45 O53 1.997 1_654 S
Fe45 O56 1.990 1_655 S
Fe45 O60 1.973 1_545 S
Fe45 O63 2.000 1_544 S
O46 Fe44 1.918 . S
O46 Fe45 1.918 . S
O46 Fe47 1.918 1_554 S
Fe47 O46 1.918 1_556 S
Fe47 O48 2.002 . S
Fe47 O57 1.976 1_556 S
Fe47 O61 1.996 1_556 S
Fe47 O64 1.997 . S
O48 Fe47 2.002 . S
O48 C65 1.295 . S
O49 Fe44 1.997 1_556 S
O49 C65 1.235 . S
O50 Fe44 2.002 1_456 S
O50 C51 1.295 . S
C51 O50 1.295 . S
C51 O53 1.235 . S
C52 O57 1.287 . S
C52 O58 1.255 . S
O53 Fe45 1.997 1_456 S
O53 C51 1.235 . S
C54 O60 1.287 . S
C54 O61 1.255 1_565 S
O55 Fe44 1.976 . S
O55 C62 1.287 . S
O56 Fe45 1.990 1_455 S
O56 C62 1.254 1_455 S
O57 Fe47 1.976 1_554 S
O57 C52 1.287 . S
O58 Fe44 1.996 . S
O58 C52 1.255 . S
C59 O63 1.295 1_545 S
C59 O64 1.238 . S
O60 Fe45 1.973 1_565 S
O60 C54 1.287 . S
O61 Fe47 1.996 1_554 S
O61 C54 1.255 1_545 S
C62 O55 1.287 . S
C62 O56 1.254 1_655 S
O63 Fe45 2.000 1_566 S
O63 C59 1.295 1_565 S
O64 Fe47 1.997 . S
O64 C59 1.238 . S
C65 O48 1.295 . S
C65 O49 1.235 . S
Fe66 O68 1.918 . S
Fe66 O71 1.997 . S
Fe66 O72 2.002 . S
Fe66 O77 1.976 . S
Fe66 O80 1.996 . S
Fe67 O68 1.918 . S
Fe67 O75 1.997 . S
Fe67 O78 1.996 . S
Fe67 O82 1.976 . S
Fe67 O85 2.002 . S
O68 Fe66 1.918 . S
O68 Fe67 1.918 . S
O68 Fe69 1.918 . S
Fe69 O68 1.918 . S
Fe69 O70 2.002 . S
Fe69 O79 1.976 . S
Fe69 O83 1.996 . S
Fe69 O86 1.997 . S
O70 Fe69 2.002 . S
O70 C87 1.295 . S
O71 Fe66 1.997 . S
O71 C87 1.235 . S
O72 Fe66 2.002 . S
O72 C73 1.295 . S
C73 O72 1.295 . S
C73 O75 1.235 . S
C74 O79 1.287 . S
C74 O80 1.255 . S
O75 Fe67 1.997 . S
O75 C73 1.235 . S
C76 O82 1.287 . S
C76 O83 1.255 . S
O77 Fe66 1.976 . S
O77 C84 1.287 . S
O78 Fe67 1.996 . S
O78 C84 1.255 . S
O79 Fe69 1.976 . S
O79 C74 1.287 . S
O80 Fe66 1.996 . S
O80 C74 1.255 . S
C81 O85 1.295 . S
C81 O86 1.235 . S
O82 Fe67 1.976 . S
O82 C76 1.287 . S
O83 Fe69 1.996 . S
O83 C76 1.255 . S
C84 O77 1.287 . S
C84 O78 1.255 . S
O85 Fe67 2.002 . S
O85 C81 1.295 . S
O86 Fe69 1.997 . S
O86 C81 1.235 . S
C87 O70 1.295 . S
C87 O71 1.235 . S
H88 C91 0.929 . S
H89 C94 0.929 . S
H90 C96 0.930 . S
C91 H88 0.929 . S
C91 C92 1.398 . S
C91 C93 1.396 . S
C92 C91 1.398 . S
C92 C96 1.407 . S
C93 C91 1.396 . S
C93 C94 1.394 . S
C94 H89 0.929 . S
C94 C93 1.394 . S
C94 C95 1.382 . S
C95 C94 1.382 . S
C95 C96 1.392 . S
C95 N97 1.420 . S
C96 H90 0.930 . S
C96 C92 1.407 . S
C96 C95 1.392 . S
N97 C95 1.420 . S
N97 C98 1.244 . S
C98 N97 1.244 . S
H99 C102 0.929 . S
H100 C105 0.929 . S
H101 C107 0.930 . S
C102 H99 0.929 . S
C102 C103 1.398 . S
C102 C104 1.396 . S
C103 C102 1.398 . S
C103 C107 1.407 . S
C104 C102 1.396 . S
C104 C105 1.394 . S
C105 H100 0.929 . S
C105 C104 1.394 . S
C105 C106 1.382 . S
C106 C105 1.382 . S
C106 C107 1.392 . S
C106 N108 1.420 . S
C107 H101 0.930 . S
C107 C103 1.407 . S
C107 C106 1.392 . S
N108 C106 1.420 . S
N108 C109 1.244 . S
C109 N108 1.244 . S
H110 C113 0.929 . S
H111 C116 0.929 . S
H112 C118 0.930 . S
C113 H110 0.929 . S
C113 C114 1.398 . S
C113 C115 1.396 . S
C114 C113 1.398 . S
C114 C118 1.407 . S
C115 C113 1.396 . S
C115 C116 1.394 . S
C116 H111 0.929 . S
C116 C115 1.394 . S
C116 C117 1.382 . S
C117 C116 1.382 . S
C117 C118 1.392 . S
C117 N119 1.420 . S
C118 H112 0.930 . S
C118 C114 1.407 . S
C118 C117 1.392 . S
N119 C117 1.420 . S
N119 C120 1.244 . S
C120 N119 1.244 . S
H121 C124 0.929 . S
H122 C127 0.929 . S
H123 C129 0.930 . S
C124 H121 0.929 . S
C124 C125 1.398 . S
C124 C126 1.396 . S
C125 C124 1.398 . S
C125 C129 1.407 . S
C126 C124 1.396 . S
C126 C127 1.394 . S
C127 H122 0.929 . S
C127 C126 1.394 . S
C127 C128 1.382 . S
C128 C127 1.382 . S
C128 C129 1.392 . S
C128 N130 1.420 . S
C129 H123 0.930 . S
C129 C125 1.407 . S
C129 C128 1.392 . S
N130 C128 1.420 . S
N130 C131 1.244 . S
C131 N130 1.244 . S
H132 C135 0.929 . S
H133 C138 0.929 . S
H134 C140 0.930 . S
C135 H132 0.929 . S
C135 C136 1.398 . S
C135 C137 1.396 . S
C136 C135 1.398 . S
C136 C140 1.407 . S
C137 C135 1.396 . S
C137 C138 1.394 . S
C138 H133 0.929 . S
C138 C137 1.394 . S
C138 C139 1.382 . S
C139 C138 1.382 . S
C139 C140 1.392 . S
C139 N141 1.420 . S
C140 H134 0.930 . S
C140 C136 1.407 . S
C140 C139 1.392 . S
N141 C139 1.420 . S
N141 C142 1.244 . S
C142 N141 1.244 . S
H143 C146 0.929 . S
H144 C149 0.929 . S
H145 C151 0.930 . S
C146 H143 0.929 . S
C146 C147 1.398 . S
C146 C148 1.396 . S
C147 C146 1.398 . S
C147 C151 1.407 . S
C148 C146 1.396 . S
C148 C149 1.394 . S
C149 H144 0.929 . S
C149 C148 1.394 . S
C149 C150 1.382 . S
C150 C149 1.382 . S
C150 C151 1.392 . S
C150 N152 1.420 . S
C151 H145 0.930 . S
C151 C147 1.407 . S
C151 C150 1.392 . S
N152 C150 1.420 . S
N152 C153 1.244 . S
C153 N152 1.244 . S
H154 C157 0.929 . S
H155 C160 0.929 . S
H156 C162 0.930 . S
C157 H154 0.929 . S
C157 C158 1.398 . S
C157 C159 1.396 . S
C158 C157 1.398 . S
C158 C162 1.407 . S
C159 C157 1.396 . S
C159 C160 1.394 . S
C160 H155 0.929 . S
C160 C159 1.394 . S
C160 C161 1.382 . S
C161 C160 1.382 . S
C161 C162 1.392 . S
C161 N163 1.420 . S
C162 H156 0.930 . S
C162 C158 1.407 . S
C162 C161 1.392 . S
N163 C161 1.420 . S
N163 C164 1.244 . S
C164 N163 1.244 . S
H165 C168 0.929 1_455 S
H166 C171 0.929 . S
H167 C173 0.930 . S
C168 H165 0.929 1_655 S
C168 C169 1.398 . S
C168 C170 1.396 . S
C169 C168 1.398 . S
C169 C173 1.407 . S
C170 C168 1.396 . S
C170 C171 1.394 . S
C171 H166 0.929 . S
C171 C170 1.394 . S
C171 C172 1.382 . S
C172 C171 1.382 . S
C172 C173 1.392 . S
C172 N174 1.420 . S
C173 H167 0.930 . S
C173 C169 1.407 . S
C173 C172 1.392 . S
N174 C172 1.420 . S
N174 C175 1.244 . S
C175 N174 1.244 . S
C7 C93 1.535 1_565 S
C37 C104 1.522 . S
C54 C114 1.337 . S
C126 C87 1.428 . S
C137 C30 1.493 . S
C51 C148 1.438 . S
C84 C158 1.386 . S
C10 C170 1.465 1_455 S
C59 C169 1.357 1_545 S
C136 C74 1.241 . S
C147 C18 1.375 . S
C32 C159 1.417 . S
C103 C73 1.388 . S
C15 C115 1.414 . S
C125 C43 1.387 . S
C92 C62 1.277 1_455 S
C164 C21 1.650 . S
C175 C29 1.548 . S
C52 C142 1.426 . S
C153 C81 1.562 . S
C120 C40 1.604 . S
C65 C131 1.541 . S
C98 C76 1.444 . S
C109 C8 1.577 . S
