# Generated by pormake.
# Topology tsx, (6,3)-cn, num edge types: 1
# Building blocks:
#     Node 0, Type 0, BuildingBlock: CIFDUS_clean_sbu_1, # of connection points: 6
#     Node 1, Type 0, BuildingBlock: CIFDUS_clean_sbu_1, # of connection points: 6
#     Node 2, Type 1, BuildingBlock: BETDIP_clean_linker_0, # of connection points: 3
#     Node 3, Type 1, BuildingBlock: BETDIP_clean_linker_0, # of connection points: 3
#     Node 4, Type 1, BuildingBlock: BETDIP_clean_linker_0, # of connection points: 3
#     Node 5, Type 1, BuildingBlock: BETDIP_clean_linker_0, # of connection points: 3
#     Edge 6, Type (0, 1), BuildingBlock: EYOCIG_clean_linker_4, # of connection points: 2
#     Edge 7, Type (0, 1), BuildingBlock: EYOCIG_clean_linker_4, # of connection points: 2
#     Edge 8, Type (0, 1), BuildingBlock: EYOCIG_clean_linker_4, # of connection points: 2
#     Edge 9, Type (0, 1), BuildingBlock: EYOCIG_clean_linker_4, # of connection points: 2
#     Edge 10, Type (0, 1), BuildingBlock: EYOCIG_clean_linker_4, # of connection points: 2
#     Edge 11, Type (0, 1), BuildingBlock: EYOCIG_clean_linker_4, # of connection points: 2
#     Edge 12, Type (0, 1), BuildingBlock: EYOCIG_clean_linker_4, # of connection points: 2
#     Edge 13, Type (0, 1), BuildingBlock: EYOCIG_clean_linker_4, # of connection points: 2
#     Edge 14, Type (0, 1), BuildingBlock: EYOCIG_clean_linker_4, # of connection points: 2
#     Edge 15, Type (0, 1), BuildingBlock: EYOCIG_clean_linker_4, # of connection points: 2
#     Edge 16, Type (0, 1), BuildingBlock: EYOCIG_clean_linker_4, # of connection points: 2
#     Edge 17, Type (0, 1), BuildingBlock: EYOCIG_clean_linker_4, # of connection points: 2
# Relax obj value: 0.097
# Max RMSD: 0.145
# Mean RMSD: 0.109
data_MOF--net-tsx--node1-CIFDUS_clean_sbu_1--node2-BETDIP_clean_linker_0--edge1-EYOCIG_clean_linker_4
_symmetry_space_group_name_H-M    P1
_symmetry_Int_Tables_number       1
_symmetry_cell_setting            triclinic
loop_
_symmetry_equiv_pos_as_xyz
'x, y, z'
_cell_length_a     14.434319
_cell_length_b     17.834413
_cell_length_c     27.957822
_cell_angle_alpha  95.944125
_cell_angle_beta   104.85333
_cell_angle_gamma 92.137497
loop_
_atom_site_label
_atom_site_type_symbol
_atom_site_fract_x
_atom_site_fract_y
_atom_site_fract_z
_atom_type_partial_charge
O0 O 0.99503 0.12668 -0.00998 0.0
Mn1 Mn 0.06483 0.02614 -0.01467 0.0
O2 O 0.85113 0.10633 0.9328 0.0
Mn3 Mn 0.86661 0.00944 0.90606 0.0
O4 O 0.13329 0.92525 0.97803 0.0
O5 O 0.19143 0.08533 0.01563 0.0
Mn6 Mn 0.26857 0.03418 0.05827 0.0
O7 O 0.05349 0.00694 0.05618 0.0
O8 O 0.2886 0.94789 0.02078 0.0
O9 O 0.07873 0.04359 0.9145 0.0
O10 O 0.93701 0.00508 0.85942 0.0
O11 O 0.33501 0.12521 0.05935 0.0
O12 O 0.20467 0.01859 0.10643 0.0
C13 C 0.86733 0.91876 0.95097 0.0
C14 C 0.91288 0.14805 0.96697 0.0
C15 C 0.22056 0.90633 -0.00935 0.0
C16 C 0.25802 0.13937 0.027 0.0
C17 C 0.1142 0.00629 0.09874 0.0
C18 C 0.02549 0.02712 0.86984 0.0
O19 O 0.9377 0.96802 0.95605 0.0
O20 O 0.7935 0.92675 0.91476 0.0
O21 O 0.4958 0.62801 0.49017 0.0
Mn22 Mn 0.56565 0.52748 0.48546 0.0
O23 O 0.35165 0.60746 0.43317 0.0
Mn24 Mn 0.36707 0.51051 0.4065 0.0
O25 O 0.63413 0.42661 0.47812 0.0
O26 O 0.69228 0.58679 0.51547 0.0
Mn27 Mn 0.76977 0.53573 0.55802 0.0
O28 O 0.55494 0.50849 0.55643 0.0
O29 O 0.78963 0.44942 0.5205 0.0
O30 O 0.57897 0.54471 0.41448 0.0
O31 O 0.43703 0.50599 0.35967 0.0
O32 O 0.83601 0.62679 0.55893 0.0
O33 O 0.70639 0.52016 0.60639 0.0
C34 C 0.3682 0.41997 0.45155 0.0
C35 C 0.41352 0.64927 0.46722 0.0
C36 C 0.72145 0.40776 0.49055 0.0
C37 C 0.75879 0.64088 0.52671 0.0
C38 C 0.61596 0.50788 0.59891 0.0
C39 C 0.52547 0.52805 0.3699 0.0
O40 O 0.4385 0.46925 0.45647 0.0
O41 O 0.29417 0.42787 0.41543 0.0
H42 H 0.13215 0.99459 0.47121 0.0
H43 H 0.99626 0.0573 0.32597 0.0
H44 H 0.20238 0.88883 0.34065 0.0
H45 H 0.97484 0.16457 0.36844 0.0
C46 C 0.95874 0.14583 0.40128 0.0
C47 C 0.12268 0.98885 0.4313 0.0
C48 C 0.17408 0.93633 0.40941 0.0
C49 C 0.0591 0.03391 0.40174 0.0
C50 C 0.04668 0.02494 0.34987 0.0
C51 C 0.09863 0.9734 0.32806 0.0
C52 C 0.1622 0.92892 0.35772 0.0
N53 N 1.00642 0.08581 0.42465 0.0
H54 H 0.98004 0.00879 0.49508 0.0
H55 H 0.14499 0.11192 0.64004 0.0
H56 H 0.93222 0.93254 0.62818 0.0
H57 H 0.16661 0.20921 0.60037 0.0
C58 C 0.17459 0.18287 0.56505 0.0
C59 C 0.99642 0.01386 0.53526 0.0
C60 C 0.948 0.96458 0.5582 0.0
C61 C 0.06712 0.06848 0.56427 0.0
C62 C 0.08886 0.07253 0.61656 0.0
C63 C 0.03957 0.02439 0.63929 0.0
C64 C 0.96933 0.97054 0.61025 0.0
N65 N 0.1182 0.1161 0.5404 0.0
H66 H 0.63172 0.49329 0.97119 0.0
H67 H 0.49748 0.55756 0.82617 0.0
H68 H 0.70377 0.38921 0.8407 0.0
H69 H 0.4756 0.66439 0.869 0.0
C70 C 0.45898 0.64518 0.90158 0.0
C71 C 0.62278 0.48805 0.93133 0.0
C72 C 0.67457 0.43587 0.90942 0.0
C73 C 0.55948 0.53337 0.90184 0.0
C74 C 0.54771 0.52501 0.85002 0.0
C75 C 0.60002 0.47379 0.8282 0.0
C76 C 0.66334 0.42907 0.85778 0.0
N77 N 0.50636 0.58488 0.92476 0.0
H78 H 0.47935 0.50712 -0.00516 0.0
H79 H 0.64389 0.61124 0.13962 0.0
H80 H 0.43165 0.43163 0.12817 0.0
H81 H 0.66497 0.70836 0.09965 0.0
C82 C 0.6732 0.68182 0.06444 0.0
C83 C 0.49568 0.51244 0.03502 0.0
C84 C 0.44738 0.46326 0.05809 0.0
C85 C 0.5662 0.56729 0.06393 0.0
C86 C 0.58789 0.57166 0.11623 0.0
C87 C 0.53874 0.52361 0.13908 0.0
C88 C 0.46867 0.46954 0.11014 0.0
N89 N 0.61716 0.61482 0.03995 0.0
C90 C 0.27362 0.27662 0.00535 0.0
C91 C 0.25041 0.21227 0.00929 0.0
C92 C 0.32454 0.34816 0.01349 0.0
C93 C 0.38063 0.4025 0.0295 0.0
C94 C 0.2828 0.78217 0.95431 0.0
C95 C 0.2459 0.83665 0.96847 0.0
C96 C 0.33919 0.72703 0.93817 0.0
C97 C 0.39306 0.6866 0.92303 0.0
C98 C 0.83673 0.81367 0.00473 0.0
C99 C 0.86313 0.86338 -0.01582 0.0
C100 C 0.78666 0.7604 0.02459 0.0
C101 C 0.73591 0.72085 0.04125 0.0
C102 C 0.8498 0.28324 0.97376 0.0
C103 C 0.88933 0.2248 0.97604 0.0
C104 C 0.792 0.34343 0.95911 0.0
C105 C 0.73751 0.38747 0.9392 0.0
C106 C 0.77397 0.7782 0.50516 0.0
C107 C 0.75087 0.71381 0.50905 0.0
C108 C 0.82492 0.84975 0.51338 0.0
C109 C 0.88111 0.90399 0.52948 0.0
C110 C 0.78339 0.28348 0.45419 0.0
C111 C 0.74664 0.33802 0.46838 0.0
C112 C 0.83955 0.2282 0.43799 0.0
C113 C 0.89318 0.18758 0.4228 0.0
C114 C 0.33803 0.31491 0.5054 0.0
C115 C 0.36431 0.36462 0.48481 0.0
C116 C 0.28801 0.2616 0.52526 0.0
C117 C 0.23728 0.222 0.5419 0.0
C118 C 0.35021 0.78439 0.47394 0.0
C119 C 0.3899 0.72602 0.47626 0.0
C120 C 0.29214 0.84441 0.45924 0.0
C121 C 0.2374 0.88825 0.43929 0.0
C122 C 0.07141 0.97817 0.18096 0.0
C123 C 0.08099 0.99003 0.14083 0.0
C124 C 0.07657 0.96973 0.23111 0.0
C125 C 0.08885 0.96942 0.27534 0.0
C126 C 0.07892 0.036 0.78805 0.0
C127 C 0.06495 0.03466 0.82853 0.0
C128 C 0.07535 0.0339 0.73719 0.0
C129 C 0.06057 0.03084 0.69267 0.0
C130 C 0.57372 0.47967 0.68126 0.0
C131 C 0.58317 0.49159 0.64112 0.0
C132 C 0.57875 0.47098 0.73136 0.0
C133 C 0.59069 0.47028 0.77554 0.0
C134 C 0.57835 0.53635 0.2879 0.0
C135 C 0.56463 0.53529 0.32845 0.0
C136 C 0.57457 0.53383 0.23699 0.0
C137 C 0.55971 0.53041 0.19246 0.0
loop_
_geom_bond_atom_site_label_1
_geom_bond_atom_site_label_2
_geom_bond_distance
_geom_bond_site_symmetry_2
_ccdc_geom_bond_type
O0 Mn1 2.164 1_655 S
O0 C14 1.247 . S
Mn1 O0 2.164 1_455 S
Mn1 O4 2.160 1_545 S
Mn1 O5 2.221 1_556 S
Mn1 O7 2.163 1_556 S
Mn1 O9 2.160 . S
Mn1 O19 2.221 1_445 S
O2 Mn3 2.087 1_545 S
O2 C14 1.256 . S
Mn3 O2 2.087 1_565 S
Mn3 O10 2.089 1_565 S
Mn3 O19 2.290 . S
Mn3 O20 2.251 . S
O4 Mn1 2.160 1_565 S
O4 C15 1.239 1_556 S
O5 Mn1 2.221 1_554 S
O5 Mn6 2.290 . S
O5 C16 1.278 . S
Mn6 O5 2.290 . S
Mn6 O8 2.089 1_545 S
Mn6 O11 2.251 . S
Mn6 O12 2.087 . S
O7 Mn1 2.163 1_554 S
O7 C17 1.244 . S
O8 Mn6 2.089 1_565 S
O8 C15 1.256 . S
O9 Mn1 2.160 . S
O9 C18 1.239 . S
O10 Mn3 2.089 1_545 S
O10 C18 1.256 1_655 S
O11 Mn6 2.251 . S
O11 C16 1.241 . S
O12 Mn6 2.087 . S
O12 C17 1.256 . S
C13 O19 1.278 . S
C13 O20 1.241 . S
C14 O0 1.247 . S
C14 O2 1.256 . S
C15 O4 1.239 1_554 S
C15 O8 1.256 . S
C16 O5 1.278 . S
C16 O11 1.241 . S
C17 O7 1.244 . S
C17 O12 1.256 . S
C18 O9 1.239 . S
C18 O10 1.256 1_455 S
O19 Mn1 2.221 1_665 S
O19 Mn3 2.290 . S
O19 C13 1.278 . S
O20 Mn3 2.251 . S
O20 C13 1.241 . S
O21 Mn22 2.163 . S
O21 C35 1.244 . S
Mn22 O21 2.163 . S
Mn22 O25 2.160 . S
Mn22 O26 2.221 . S
Mn22 O28 2.163 . S
Mn22 O30 2.160 . S
Mn22 O40 2.221 . S
O23 Mn24 2.087 . S
O23 C35 1.256 . S
Mn24 O23 2.087 . S
Mn24 O31 2.089 . S
Mn24 O40 2.290 . S
Mn24 O41 2.251 . S
O25 Mn22 2.160 . S
O25 C36 1.239 . S
O26 Mn22 2.221 . S
O26 Mn27 2.290 . S
O26 C37 1.278 . S
Mn27 O26 2.290 . S
Mn27 O29 2.089 . S
Mn27 O32 2.251 . S
Mn27 O33 2.087 . S
O28 Mn22 2.163 . S
O28 C38 1.244 . S
O29 Mn27 2.089 . S
O29 C36 1.256 . S
O30 Mn22 2.160 . S
O30 C39 1.239 . S
O31 Mn24 2.089 . S
O31 C39 1.256 . S
O32 Mn27 2.251 . S
O32 C37 1.241 . S
O33 Mn27 2.087 . S
O33 C38 1.256 . S
C34 O40 1.278 . S
C34 O41 1.241 . S
C35 O21 1.244 . S
C35 O23 1.256 . S
C36 O25 1.239 . S
C36 O29 1.256 . S
C37 O26 1.278 . S
C37 O32 1.241 . S
C38 O28 1.244 . S
C38 O33 1.256 . S
C39 O30 1.239 . S
C39 O31 1.256 . S
O40 Mn22 2.221 . S
O40 Mn24 2.290 . S
O40 C34 1.278 . S
O41 Mn24 2.251 . S
O41 C34 1.241 . S
H42 C47 0.930 . S
H43 C50 0.930 . S
H44 C52 0.930 . S
H45 C46 1.016 . S
C46 H45 1.016 . S
C46 N53 1.286 . S
C47 H42 0.930 . S
C47 C48 1.397 . S
C47 C49 1.361 1_565 S
C48 C47 1.397 . S
C48 C52 1.390 . S
C49 C47 1.361 1_545 S
C49 C50 1.393 . S
C49 N53 1.413 1_455 S
C50 H43 0.930 . S
C50 C49 1.393 . S
C50 C51 1.399 1_545 S
C51 C50 1.399 1_565 S
C51 C52 1.381 . S
C52 H44 0.930 . S
C52 C48 1.390 . S
C52 C51 1.381 . S
N53 C46 1.286 . S
N53 C49 1.413 1_655 S
H54 C59 0.929 1_565 S
H55 C62 0.930 . S
H56 C64 0.930 . S
H57 C58 1.016 . S
C58 H57 1.016 . S
C58 N65 1.286 . S
C59 H54 0.929 1_545 S
C59 C60 1.397 1_545 S
C59 C61 1.361 1_655 S
C60 C59 1.397 1_565 S
C60 C64 1.390 . S
C61 C59 1.361 1_455 S
C61 C62 1.393 . S
C61 N65 1.413 . S
C62 H55 0.930 . S
C62 C61 1.393 . S
C62 C63 1.399 1_455 S
C63 C62 1.399 1_655 S
C63 C64 1.381 1_545 S
C64 H56 0.930 . S
C64 C60 1.390 . S
C64 C63 1.381 1_565 S
N65 C58 1.286 . S
N65 C61 1.413 . S
H66 C71 0.930 1_554 S
H67 C74 0.930 . S
H68 C76 0.930 . S
H69 C70 1.016 . S
C70 H69 1.016 . S
C70 N77 1.286 . S
C71 H66 0.930 1_556 S
C71 C72 1.397 . S
C71 C73 1.361 . S
C72 C71 1.397 . S
C72 C76 1.390 . S
C73 C71 1.361 . S
C73 C74 1.393 . S
C73 N77 1.413 . S
C74 H67 0.930 . S
C74 C73 1.393 . S
C74 C75 1.399 . S
C75 C74 1.399 . S
C75 C76 1.381 . S
C76 H68 0.930 . S
C76 C72 1.390 . S
C76 C75 1.381 . S
N77 C70 1.286 . S
N77 C73 1.413 . S
H78 C83 0.930 1_556 S
H79 C86 0.930 . S
H80 C88 0.930 . S
H81 C82 1.016 . S
C82 H81 1.016 . S
C82 N89 1.286 . S
C83 H78 0.930 1_554 S
C83 C84 1.397 . S
C83 C85 1.361 . S
C84 C83 1.397 . S
C84 C88 1.390 . S
C85 C83 1.361 . S
C85 C86 1.393 . S
C85 N89 1.413 . S
C86 H79 0.930 . S
C86 C85 1.393 . S
C86 C87 1.399 . S
C87 C86 1.399 . S
C87 C88 1.381 . S
C88 H80 0.930 . S
C88 C84 1.390 . S
C88 C87 1.381 . S
N89 C82 1.286 . S
N89 C85 1.413 . S
C90 C91 1.170 . S
C90 C92 1.380 . S
C91 C90 1.170 . S
C92 C90 1.380 . S
C92 C93 1.170 . S
C93 C92 1.170 . S
C94 C95 1.172 . S
C94 C96 1.379 1_554 S
C95 C94 1.172 . S
C96 C94 1.379 1_556 S
C96 C97 1.170 . S
C97 C96 1.170 . S
C98 C99 1.170 . S
C98 C100 1.380 . S
C99 C98 1.170 . S
C100 C98 1.380 . S
C100 C101 1.170 . S
C101 C100 1.170 . S
C102 C103 1.170 . S
C102 C104 1.380 . S
C103 C102 1.170 . S
C104 C102 1.380 . S
C104 C105 1.170 . S
C105 C104 1.170 . S
C106 C107 1.170 . S
C106 C108 1.380 . S
C107 C106 1.170 . S
C108 C106 1.380 . S
C108 C109 1.170 . S
C109 C108 1.170 . S
C110 C111 1.170 . S
C110 C112 1.380 . S
C111 C110 1.170 . S
C112 C110 1.380 . S
C112 C113 1.170 . S
C113 C112 1.170 . S
C114 C115 1.170 . S
C114 C116 1.380 . S
C115 C114 1.170 . S
C116 C114 1.380 . S
C116 C117 1.170 . S
C117 C116 1.170 . S
C118 C119 1.170 . S
C118 C120 1.380 . S
C119 C118 1.170 . S
C120 C118 1.380 . S
C120 C121 1.170 . S
C121 C120 1.170 . S
C122 C123 1.170 . S
C122 C124 1.380 . S
C123 C122 1.170 . S
C124 C122 1.380 . S
C124 C125 1.170 . S
C125 C124 1.170 . S
C126 C127 1.170 . S
C126 C128 1.380 . S
C127 C126 1.170 . S
C128 C126 1.380 . S
C128 C129 1.170 1_455 S
C129 C128 1.170 1_655 S
C130 C131 1.170 . S
C130 C132 1.380 . S
C131 C130 1.170 . S
C132 C130 1.380 . S
C132 C133 1.170 . S
C133 C132 1.170 . S
C134 C135 1.170 . S
C134 C136 1.380 . S
C135 C134 1.170 . S
C136 C134 1.380 . S
C136 C137 1.170 . S
C137 C136 1.170 . S
C93 C84 1.455 . S
C91 C16 1.347 . S
C95 C15 1.463 . S
C97 C70 1.413 . S
C99 C13 1.264 1_554 S
C101 C82 1.457 . S
C103 C14 1.421 . S
C105 C72 1.459 . S
C107 C37 1.353 . S
C109 C60 1.474 . S
C111 C36 1.448 . S
C113 C46 1.412 . S
C117 C58 1.457 . S
C115 C34 1.258 . S
C121 C48 1.453 . S
C119 C35 1.420 . S
C123 C17 1.592 1_565 S
C125 C51 1.613 . S
C127 C18 1.412 . S
C129 C63 1.439 . S
C133 C75 1.614 . S
C131 C38 1.564 . S
C135 C39 1.381 . S
C137 C87 1.425 . S
