# Generated by pormake.
# Topology anh, (6,3)-cn, num edge types: 1
# Building blocks:
#     Node 0, Type 0, BuildingBlock: HISSIN_clean_sbu_0, # of connection points: 6
#     Node 1, Type 0, BuildingBlock: HISSIN_clean_sbu_0, # of connection points: 6
#     Node 2, Type 0, BuildingBlock: HISSIN_clean_sbu_0, # of connection points: 6
#     Node 3, Type 1, BuildingBlock: BETDAH_clean_linker_0, # of connection points: 3
#     Node 4, Type 1, BuildingBlock: BETDAH_clean_linker_0, # of connection points: 3
#     Node 5, Type 1, BuildingBlock: BETDAH_clean_linker_0, # of connection points: 3
#     Node 6, Type 1, BuildingBlock: BETDAH_clean_linker_0, # of connection points: 3
#     Node 7, Type 1, BuildingBlock: BETDAH_clean_linker_0, # of connection points: 3
#     Node 8, Type 1, BuildingBlock: BETDAH_clean_linker_0, # of connection points: 3
#     Edge 9, Type (0, 1), None
#     Edge 10, Type (0, 1), None
#     Edge 11, Type (0, 1), None
#     Edge 12, Type (0, 1), None
#     Edge 13, Type (0, 1), None
#     Edge 14, Type (0, 1), None
#     Edge 15, Type (0, 1), None
#     Edge 16, Type (0, 1), None
#     Edge 17, Type (0, 1), None
#     Edge 18, Type (0, 1), None
#     Edge 19, Type (0, 1), None
#     Edge 20, Type (0, 1), None
#     Edge 21, Type (0, 1), None
#     Edge 22, Type (0, 1), None
#     Edge 23, Type (0, 1), None
#     Edge 24, Type (0, 1), None
#     Edge 25, Type (0, 1), None
#     Edge 26, Type (0, 1), None
# Relax obj value: 0.729
# Max RMSD: 0.230
# Mean RMSD: 0.150
data_MOF--net-anh--node1-HISSIN_clean_sbu_0--node2-BETDAH_clean_linker_0--edge1-none
_symmetry_space_group_name_H-M    P1
_symmetry_Int_Tables_number       1
_symmetry_cell_setting            triclinic
loop_
_symmetry_equiv_pos_as_xyz
'x, y, z'
_cell_length_a     14.122806
_cell_length_b     14.080221
_cell_length_c     21.938094
_cell_angle_alpha  94.709914
_cell_angle_beta   92.065817
_cell_angle_gamma 120.08307
loop_
_atom_site_label
_atom_site_type_symbol
_atom_site_fract_x
_atom_site_fract_y
_atom_site_fract_z
_atom_type_partial_charge
Eu0 Eu 1.14702 0.58675 0.12573 0.0
Eu1 Eu 0.28606 0.84547 0.11847 0.0
C2 C 1.25239 0.74992 0.25498 0.0
C3 C 1.07349 0.28567 0.13037 0.0
C4 C 1.04136 0.19481 0.08609 0.0
C5 C 1.118 0.19325 0.20484 0.0
C6 C 1.04046 1.10067 0.10244 0.0
C7 C 1.11939 0.2877 0.18856 0.0
C8 C 1.06873 1.09632 0.16354 0.0
C9 C 1.05011 0.37215 0.11596 0.0
O10 O 0.42952 0.80934 0.11699 0.0
O11 O 0.32779 0.62113 0.1141 0.0
C12 C 0.42495 0.71267 0.11164 0.0
O13 O 1.1151 0.6155 0.03155 0.0
O14 O 0.3914 1.02006 0.15226 0.0
O15 O 0.32764 0.97309 0.05692 0.0
O16 O 0.28913 0.75211 0.03108 0.0
C17 C 1.20038 0.66897 0.00192 0.0
O18 O 1.0036 0.62628 0.11577 0.0
O19 O 1.10607 0.80765 0.09859 0.0
O20 O 0.29238 0.83606 0.2231 0.0
O21 O 1.10559 0.43097 0.07365 0.0
O22 O 1.03882 0.43093 0.16143 0.0
O23 O 1.19365 0.6484 0.22726 0.0
C24 C 0.51638 1.09925 0.08003 0.0
C25 C 0.54866 1.02551 0.05529 0.0
C26 C 0.69562 0.21 0.13503 0.0
C27 C 0.64465 1.03296 0.08032 0.0
C28 C 0.59628 0.19921 0.11294 0.0
C29 C 0.71001 1.1176 0.12751 0.0
C30 C 0.40292 1.05012 0.09695 0.0
C31 C 1.00799 0.71874 0.10136 0.0
H32 H 1.0079 0.19291 0.04046 0.0
H33 H 1.13952 0.19109 0.25245 0.0
H34 H 1.00105 1.02623 0.0701 0.0
H35 H 1.14756 0.35831 0.22292 0.0
H36 H 0.49043 0.95023 0.02666 0.0
H37 H 0.75017 0.28123 0.16745 0.0
H38 H 0.65587 0.96282 0.07034 0.0
H39 H 0.57519 0.25981 0.1305 0.0
Eu40 Eu 0.78312 1.1375 0.49502 0.0
Eu41 Eu 0.66507 0.2539 0.44127 0.0
C42 C 0.71964 0.26339 0.58653 0.0
C43 C 1.01262 1.09686 0.54996 0.0
C44 C 1.05594 1.1066 0.49267 0.0
C45 C 1.17312 1.10165 0.59636 0.0
C46 C 1.15245 1.10359 0.48671 0.0
C47 C 1.07566 1.10295 0.60245 0.0
C48 C 1.20344 1.08758 0.53759 0.0
C49 C 0.9004 1.07497 0.55476 0.0
O50 O 0.84255 0.39059 0.42889 0.0
O51 O 0.92788 0.3175 0.48228 0.0
C52 C 0.93455 0.39957 0.45244 0.0
O53 O 0.82182 1.12705 0.39934 0.0
O54 O 0.56649 0.33256 0.45612 0.0
O55 O 0.60169 0.30035 0.36424 0.0
O56 O 0.69122 1.16152 0.3598 0.0
C57 C 0.76268 1.12813 0.35293 0.0
O58 O 0.60825 0.98449 0.45837 0.0
O59 O 0.51638 1.07783 0.44577 0.0
O60 O 0.73311 0.32685 0.54285 0.0
O61 O 0.89285 1.16057 0.57434 0.0
O62 O 0.82847 1.01348 0.50847 0.0
O63 O 0.68884 1.16136 0.5681 0.0
C64 C 0.6204 0.47368 0.39238 0.0
C65 C 0.72199 0.52536 0.36709 0.0
C66 C 0.66937 0.64784 0.45026 0.0
C67 C 0.80224 0.63162 0.39118 0.0
C68 C 0.5898 0.5393 0.42808 0.0
C69 C 0.78063 0.68688 0.44033 0.0
C70 C 0.56883 0.35534 0.39937 0.0
C71 C 0.51368 0.98221 0.44531 0.0
H72 H 1.01038 1.10643 0.45181 0.0
H73 H 1.21215 1.09043 0.63641 0.0
H74 H 1.1751 1.09378 0.44091 0.0
H75 H 1.04515 1.09931 0.64734 0.0
H76 H 0.74624 0.47872 0.33633 0.0
H77 H 0.64613 0.69349 0.48232 0.0
H78 H 0.88409 0.6604 0.37747 0.0
H79 H 0.50964 0.50279 0.44566 0.0
Eu80 Eu 0.71989 0.72487 0.76695 0.0
Eu81 Eu 0.9771 0.84795 0.80084 0.0
C82 C 0.82035 0.76225 0.91339 0.0
C83 C 0.42184 0.49671 0.73445 0.0
C84 C 0.41967 0.4497 0.78861 0.0
C85 C 1.2319 0.35577 0.70584 0.0
C86 C 0.32091 0.36301 0.80375 0.0
C87 C 0.33053 0.44388 0.6908 0.0
C88 C 1.2244 0.32509 0.76544 0.0
C89 C 0.51287 0.60662 0.72677 0.0
O90 O 0.93495 0.66154 0.78612 0.0
O91 O 0.75249 0.57959 0.75329 0.0
C92 C 0.84028 0.5707 0.7643 0.0
O93 O 0.80748 0.7974 0.68265 0.0
O94 O 1.1341 0.90124 0.85216 0.0
O95 O 1.13137 0.96727 0.76685 0.0
O96 O 0.94527 0.76722 0.7057 0.0
C97 C 0.88857 0.78465 0.66534 0.0
O98 O 0.75207 0.90318 0.77248 0.0
O99 O 0.93947 0.99215 0.7895 0.0
O100 O 0.91993 0.82237 0.89617 0.0
O101 O 0.54966 0.67984 0.77537 0.0
O102 O 0.59144 0.60856 0.69677 0.0
O103 O 0.73312 0.71511 0.87236 0.0
C104 C 1.26 0.91085 0.78371 0.0
C105 C 1.20877 0.81369 0.74238 0.0
C106 C 0.39127 0.86078 0.81881 0.0
C107 C 1.23816 0.73366 0.74714 0.0
C108 C 0.35962 0.94017 0.81642 0.0
C109 C 0.31477 0.75032 0.79542 0.0
C110 C 1.19112 0.95337 0.80789 0.0
C111 C 0.84782 0.99624 0.77882 0.0
H112 H 0.49075 0.48738 0.82198 0.0
H113 H 1.15816 0.32755 0.67558 0.0
H114 H 0.31678 0.33949 0.84986 0.0
H115 H 0.33206 0.47766 0.64797 0.0
H116 H 1.13433 0.79066 0.71455 0.0
H117 H 0.45843 0.87854 0.85199 0.0
H118 H 1.18323 0.65196 0.72349 0.0
H119 H 0.40327 1.01651 0.84703 0.0
H120 H 0.70554 1.17215 0.24732 0.0
H121 H 0.85027 0.99763 0.32238 0.0
H122 H 0.81518 0.99634 0.12706 0.0
C123 C 0.74428 1.12298 0.24008 0.0
C124 C 0.75859 1.09128 0.18031 0.0
C125 C 0.7762 1.0897 0.29122 0.0
C126 C 0.82218 1.02167 0.28302 0.0
C127 C 0.83677 0.98823 0.22403 0.0
C128 C 0.80373 1.02231 0.17267 0.0
N129 N 0.90194 0.93798 0.2172 0.0
C130 C 0.99767 0.9971 0.18922 0.0
H131 H 0.75701 0.72454 0.56258 0.0
H132 H 1.09204 0.855 0.62875 0.0
H133 H 1.00826 0.80394 0.43573 0.0
C134 C 0.84123 0.75724 0.55226 0.0
C135 C 0.86929 0.75452 0.49113 0.0
C136 C 0.92019 0.79164 0.60184 0.0
C137 C 1.02925 0.8252 0.59079 0.0
C138 C 1.06035 0.82783 0.53089 0.0
C139 C 0.98112 0.79589 0.48145 0.0
N140 N 1.17346 0.88385 0.52101 0.0
C141 C 1.22301 0.99766 0.52756 0.0
H142 H 0.31531 0.78767 0.91813 0.0
H143 H 1.0882 0.45489 0.94864 0.0
H144 H 1.21248 0.52459 0.77173 0.0
C145 C 1.27136 0.70068 0.90087 0.0
C146 C 1.27377 0.66584 0.83945 0.0
C147 C 1.20279 0.62649 0.93935 0.0
C148 C 1.1396 0.51346 0.91833 0.0
C149 C 1.14719 0.47485 0.85908 0.0
C150 C 1.21261 0.55207 0.81919 0.0
N151 N 1.09222 0.35884 0.84093 0.0
C152 C 1.13468 0.31949 0.7962 0.0
H153 H 0.42834 0.92231 0.32632 0.0
H154 H 1.13013 0.61173 0.33845 0.0
H155 H 0.34859 0.79585 0.50158 0.0
C156 C 0.37404 0.85982 0.35397 0.0
C157 C 0.40521 0.87368 0.41791 0.0
C158 C 1.27661 0.7657 0.32441 0.0
C159 C 1.20452 0.6831 0.36051 0.0
C160 C 1.22697 0.69149 0.42469 0.0
C161 C 0.32922 0.78755 0.45255 0.0
N162 N 1.15159 0.60697 0.46235 0.0
C163 C 1.04529 0.5062 0.4499 0.0
H164 H 0.76493 0.46099 0.65011 0.0
H165 H 0.77308 1.16272 0.67151 0.0
H166 H 0.89246 0.42218 0.82274 0.0
C167 C 0.78541 0.41332 0.67859 0.0
C168 C 0.83143 0.45846 0.74009 0.0
C169 C 0.76442 0.30782 0.65299 0.0
C170 C 0.78932 0.24354 0.6903 0.0
C171 C 0.83654 0.28216 0.75132 0.0
C172 C 0.85789 0.39121 0.77565 0.0
N173 N 0.86192 0.21462 0.78921 0.0
C174 C 0.85168 1.10683 0.77752 0.0
H175 H 0.96908 0.7492 0.98648 0.0
H176 H 0.6547 0.73235 -0.00834 0.0
H177 H 0.81057 0.69272 0.15425 0.0
C178 C 0.90061 0.73851 0.01191 0.0
C179 C 0.90357 0.71909 0.07401 0.0
C180 C 0.8118 0.74163 0.98085 0.0
C181 C 0.72164 0.7283 0.01449 0.0
C182 C 0.7193 0.71212 0.07792 0.0
C183 C 0.81085 0.70582 0.1063 0.0
N184 N 0.62941 0.70094 0.11501 0.0
C185 C 0.53079 0.70784 0.10554 0.0
loop_
_geom_bond_atom_site_label_1
_geom_bond_atom_site_label_2
_geom_bond_distance
_geom_bond_site_symmetry_2
_ccdc_geom_bond_type
Eu0 C9 2.828 . S
Eu0 O11 2.392 1_655 S
Eu0 O13 2.418 1_554 S
Eu0 O18 2.373 . S
Eu0 O21 2.488 . S
Eu0 O22 2.471 . S
Eu0 O23 2.349 . S
Eu1 O10 2.373 . S
Eu1 O14 2.488 . S
Eu1 O15 2.471 . S
Eu1 O16 2.349 . S
Eu1 O19 2.392 1_455 S
Eu1 O20 2.418 . S
Eu1 C30 2.828 . S
C2 O20 1.244 . S
C2 O23 1.265 1_455 S
C3 C4 1.379 . S
C3 C7 1.373 . S
C3 C9 1.505 . S
C4 C3 1.379 . S
C4 C6 1.369 . S
C4 H32 0.930 . S
C5 C7 1.383 . S
C5 C8 1.382 . S
C5 H33 0.930 1_554 S
C6 C4 1.369 . S
C6 C8 1.392 . S
C6 H34 0.930 . S
C7 C3 1.373 . S
C7 C5 1.383 . S
C7 H35 0.931 1_554 S
C8 C5 1.382 . S
C8 C6 1.392 . S
C9 Eu0 2.828 . S
C9 C3 1.505 . S
C9 O21 1.249 . S
C9 O22 1.244 . S
O10 Eu1 2.373 . S
O10 C12 1.258 . S
O11 Eu0 2.392 1_455 S
O11 C12 1.242 . S
C12 O10 1.258 . S
C12 O11 1.242 . S
O13 Eu0 2.418 1_556 S
O13 C17 1.244 . S
O14 Eu1 2.488 . S
O14 C30 1.249 . S
O15 Eu1 2.471 . S
O15 C30 1.244 . S
O16 Eu1 2.349 . S
O16 C17 1.265 1_454 S
C17 O13 1.244 . S
C17 O16 1.265 1_656 S
O18 Eu0 2.373 . S
O18 C31 1.258 . S
O19 Eu1 2.392 1_655 S
O19 C31 1.242 . S
O20 Eu1 2.418 . S
O20 C2 1.244 . S
O21 Eu0 2.488 . S
O21 C9 1.249 . S
O22 Eu0 2.471 . S
O22 C9 1.244 . S
O23 Eu0 2.349 . S
O23 C2 1.265 1_655 S
C24 C25 1.379 . S
C24 C28 1.373 . S
C24 C30 1.505 . S
C25 C24 1.379 . S
C25 C27 1.369 . S
C25 H36 0.930 . S
C26 C28 1.383 . S
C26 C29 1.382 . S
C26 H37 0.930 1_565 S
C27 C25 1.369 . S
C27 C29 1.392 . S
C27 H38 0.930 . S
C28 C24 1.373 . S
C28 C26 1.383 . S
C28 H39 0.931 . S
C29 C26 1.382 . S
C29 C27 1.392 . S
C30 Eu1 2.828 . S
C30 O14 1.249 . S
C30 O15 1.244 . S
C30 C24 1.505 . S
C31 O18 1.258 . S
C31 O19 1.242 . S
H32 C4 0.930 . S
H33 C5 0.930 1_556 S
H34 C6 0.930 . S
H35 C7 0.931 1_556 S
H36 C25 0.930 . S
H37 C26 0.930 1_545 S
H38 C27 0.930 . S
H39 C28 0.931 . S
Eu40 C49 2.828 . S
Eu40 O51 2.392 1_565 S
Eu40 O53 2.418 . S
Eu40 O58 2.373 . S
Eu40 O61 2.488 . S
Eu40 O62 2.471 . S
Eu40 O63 2.349 . S
Eu41 O50 2.373 . S
Eu41 O54 2.488 . S
Eu41 O55 2.471 . S
Eu41 O56 2.349 . S
Eu41 O59 2.392 1_545 S
Eu41 O60 2.418 . S
Eu41 C70 2.828 . S
C42 O60 1.244 . S
C42 O63 1.265 1_545 S
C43 C44 1.379 . S
C43 C47 1.373 . S
C43 C49 1.505 . S
C44 C43 1.379 . S
C44 C46 1.369 . S
C44 H72 0.930 . S
C45 C47 1.383 . S
C45 C48 1.382 . S
C45 H73 0.930 . S
C46 C44 1.369 . S
C46 C48 1.392 . S
C46 H74 0.930 . S
C47 C43 1.373 . S
C47 C45 1.383 . S
C47 H75 0.931 . S
C48 C45 1.382 . S
C48 C46 1.392 . S
C49 Eu40 2.828 . S
C49 C43 1.505 . S
C49 O61 1.249 . S
C49 O62 1.244 . S
O50 Eu41 2.373 . S
O50 C52 1.258 . S
O51 Eu40 2.392 1_545 S
O51 C52 1.242 . S
C52 O50 1.258 . S
C52 O51 1.242 . S
O53 Eu40 2.418 . S
O53 C57 1.244 . S
O54 Eu41 2.488 . S
O54 C70 1.249 . S
O55 Eu41 2.471 . S
O55 C70 1.244 . S
O56 Eu41 2.349 . S
O56 C57 1.265 1_545 S
C57 O53 1.244 . S
C57 O56 1.265 1_565 S
O58 Eu40 2.373 . S
O58 C71 1.258 . S
O59 Eu41 2.392 1_565 S
O59 C71 1.242 . S
O60 Eu41 2.418 . S
O60 C42 1.244 . S
O61 Eu40 2.488 . S
O61 C49 1.249 . S
O62 Eu40 2.471 . S
O62 C49 1.244 . S
O63 Eu40 2.349 . S
O63 C42 1.265 1_565 S
C64 C65 1.379 . S
C64 C68 1.373 . S
C64 C70 1.505 . S
C65 C64 1.379 . S
C65 C67 1.369 . S
C65 H76 0.930 . S
C66 C68 1.383 . S
C66 C69 1.382 . S
C66 H77 0.930 . S
C67 C65 1.369 . S
C67 C69 1.392 . S
C67 H78 0.930 . S
C68 C64 1.373 . S
C68 C66 1.383 . S
C68 H79 0.931 . S
C69 C66 1.382 . S
C69 C67 1.392 . S
C70 Eu41 2.828 . S
C70 O54 1.249 . S
C70 O55 1.244 . S
C70 C64 1.505 . S
C71 O58 1.258 . S
C71 O59 1.242 . S
H72 C44 0.930 . S
H73 C45 0.930 . S
H74 C46 0.930 . S
H75 C47 0.931 . S
H76 C65 0.930 . S
H77 C66 0.930 . S
H78 C67 0.930 . S
H79 C68 0.931 . S
Eu80 C89 2.828 . S
Eu80 O91 2.392 . S
Eu80 O93 2.418 . S
Eu80 O98 2.373 . S
Eu80 O101 2.488 . S
Eu80 O102 2.471 . S
Eu80 O103 2.349 . S
Eu81 O90 2.373 . S
Eu81 O94 2.488 . S
Eu81 O95 2.471 . S
Eu81 O96 2.349 . S
Eu81 O99 2.392 . S
Eu81 O100 2.418 . S
Eu81 C110 2.828 . S
C82 O100 1.244 . S
C82 O103 1.265 . S
C83 C84 1.379 . S
C83 C87 1.373 . S
C83 C89 1.505 . S
C84 C83 1.379 . S
C84 C86 1.369 . S
C84 H112 0.930 . S
C85 C87 1.383 . S
C85 C88 1.382 . S
C85 H113 0.930 . S
C86 C84 1.369 . S
C86 C88 1.392 . S
C86 H114 0.930 . S
C87 C83 1.373 . S
C87 C85 1.383 . S
C87 H115 0.931 . S
C88 C85 1.382 . S
C88 C86 1.392 . S
C89 Eu80 2.828 . S
C89 C83 1.505 . S
C89 O101 1.249 . S
C89 O102 1.244 . S
O90 Eu81 2.373 . S
O90 C92 1.258 . S
O91 Eu80 2.392 . S
O91 C92 1.242 . S
C92 O90 1.258 . S
C92 O91 1.242 . S
O93 Eu80 2.418 . S
O93 C97 1.244 . S
O94 Eu81 2.488 . S
O94 C110 1.249 . S
O95 Eu81 2.471 . S
O95 C110 1.244 . S
O96 Eu81 2.349 . S
O96 C97 1.265 . S
C97 O93 1.244 . S
C97 O96 1.265 . S
O98 Eu80 2.373 . S
O98 C111 1.258 . S
O99 Eu81 2.392 . S
O99 C111 1.242 . S
O100 Eu81 2.418 . S
O100 C82 1.244 . S
O101 Eu80 2.488 . S
O101 C89 1.249 . S
O102 Eu80 2.471 . S
O102 C89 1.244 . S
O103 Eu80 2.349 . S
O103 C82 1.265 . S
C104 C105 1.379 . S
C104 C108 1.373 . S
C104 C110 1.505 . S
C105 C104 1.379 . S
C105 C107 1.369 . S
C105 H116 0.930 . S
C106 C108 1.383 . S
C106 C109 1.382 . S
C106 H117 0.930 1_655 S
C107 C105 1.369 . S
C107 C109 1.392 . S
C107 H118 0.930 . S
C108 C104 1.373 . S
C108 C106 1.383 . S
C108 H119 0.931 . S
C109 C106 1.382 . S
C109 C107 1.392 . S
C110 Eu81 2.828 . S
C110 O94 1.249 . S
C110 O95 1.244 . S
C110 C104 1.505 . S
C111 O98 1.258 . S
C111 O99 1.242 . S
H112 C84 0.930 . S
H113 C85 0.930 . S
H114 C86 0.930 . S
H115 C87 0.931 . S
H116 C105 0.930 . S
H117 C106 0.930 1_455 S
H118 C107 0.930 . S
H119 C108 0.931 . S
H120 C123 0.929 . S
H121 C126 0.929 . S
H122 C128 0.930 . S
C123 H120 0.929 . S
C123 C124 1.398 . S
C123 C125 1.396 1_565 S
C124 C123 1.398 . S
C124 C128 1.407 . S
C125 C123 1.396 1_545 S
C125 C126 1.394 . S
C126 H121 0.929 . S
C126 C125 1.394 . S
C126 C127 1.382 . S
C127 C126 1.382 . S
C127 C128 1.392 1_545 S
C127 N129 1.420 . S
C128 H122 0.930 . S
C128 C124 1.407 . S
C128 C127 1.392 1_565 S
N129 C127 1.420 . S
N129 C130 1.244 . S
C130 N129 1.244 . S
H131 C134 0.929 . S
H132 C137 0.929 . S
H133 C139 0.930 . S
C134 H131 0.929 . S
C134 C135 1.398 . S
C134 C136 1.396 . S
C135 C134 1.398 . S
C135 C139 1.407 . S
C136 C134 1.396 . S
C136 C137 1.394 . S
C137 H132 0.929 . S
C137 C136 1.394 . S
C137 C138 1.382 . S
C138 C137 1.382 . S
C138 C139 1.392 . S
C138 N140 1.420 . S
C139 H133 0.930 . S
C139 C135 1.407 . S
C139 C138 1.392 . S
N140 C138 1.420 . S
N140 C141 1.244 . S
C141 N140 1.244 . S
H142 C145 0.929 1_554 S
H143 C148 0.929 1_554 S
H144 C150 0.930 1_655 S
C145 H142 0.929 1_556 S
C145 C146 1.398 . S
C145 C147 1.396 1_656 S
C146 C145 1.398 . S
C146 C150 1.407 1_655 S
C147 C145 1.396 1_454 S
C147 C148 1.394 1_554 S
C148 H143 0.929 1_556 S
C148 C147 1.394 1_556 S
C148 C149 1.382 . S
C149 C148 1.382 . S
C149 C150 1.392 . S
C149 N151 1.420 . S
C150 H144 0.930 1_455 S
C150 C146 1.407 1_455 S
C150 C149 1.392 . S
N151 C149 1.420 . S
N151 C152 1.244 . S
C152 N151 1.244 . S
H153 C156 0.929 . S
H154 C159 0.929 . S
H155 C161 0.930 . S
C156 H153 0.929 . S
C156 C157 1.398 . S
C156 C158 1.396 . S
C157 C156 1.398 . S
C157 C161 1.407 . S
C158 C156 1.396 . S
C158 C159 1.394 1_455 S
C159 H154 0.929 . S
C159 C158 1.394 1_655 S
C159 C160 1.382 1_655 S
C160 C159 1.382 1_455 S
C160 C161 1.392 . S
C160 N162 1.420 1_455 S
C161 H155 0.930 . S
C161 C157 1.407 . S
C161 C160 1.392 . S
N162 C160 1.420 1_655 S
N162 C163 1.244 . S
C163 N162 1.244 . S
H164 C167 0.929 . S
H165 C170 0.929 . S
H166 C172 0.930 . S
C167 H164 0.929 . S
C167 C168 1.398 . S
C167 C169 1.396 . S
C168 C167 1.398 . S
C168 C172 1.407 . S
C169 C167 1.396 . S
C169 C170 1.394 1_545 S
C170 H165 0.929 . S
C170 C169 1.394 1_565 S
C170 C171 1.382 1_565 S
C171 C170 1.382 1_545 S
C171 C172 1.392 . S
C171 N173 1.420 1_545 S
C172 H166 0.930 . S
C172 C168 1.407 . S
C172 C171 1.392 . S
N173 C171 1.420 1_565 S
N173 C174 1.244 . S
C174 N173 1.244 . S
H175 C178 0.929 . S
H176 C181 0.935 . S
H177 C183 0.930 . S
C178 H175 0.929 . S
C178 C179 1.398 . S
C178 C180 1.396 1_554 S
C179 C178 1.398 . S
C179 C183 1.407 . S
C180 C178 1.396 1_556 S
C180 C181 1.394 1_556 S
C181 H176 0.935 . S
C181 C180 1.394 1_554 S
C181 C182 1.382 . S
C182 C181 1.382 . S
C182 C183 1.392 . S
C182 N184 1.420 . S
C183 H177 0.930 . S
C183 C179 1.407 . S
C183 C182 1.392 . S
N184 C182 1.420 . S
N184 C185 1.244 . S
C185 N184 1.244 . S
C12 C185 4.590 . S
C52 C163 4.625 . S
C111 C174 4.651 . S
C31 C179 4.704 . S
C157 C71 4.686 . S
C168 C92 4.636 . S
C48 C141 3.512 . S
C109 C146 3.170 . S
C29 C124 2.957 . S
C135 C69 3.305 . S
C152 C88 3.481 . S
C8 C130 3.601 . S
C147 C17 1.078 1_454 S
C57 C125 0.899 1_565 S
C97 C136 1.270 . S
C169 C42 1.951 . S
C180 C82 1.961 . S
C2 C158 2.008 . S
