# Generated by pormake.
# Topology rtl, (3,6)-cn, num edge types: 1
# Building blocks:
#     Node 0, Type 0, BuildingBlock: BETDAH_clean_linker_0, # of connection points: 3
#     Node 1, Type 0, BuildingBlock: BETDAH_clean_linker_0, # of connection points: 3
#     Node 2, Type 0, BuildingBlock: BETDAH_clean_linker_0, # of connection points: 3
#     Node 3, Type 0, BuildingBlock: BETDAH_clean_linker_0, # of connection points: 3
#     Node 4, Type 1, BuildingBlock: VOLQOD_clean_sbu_1, # of connection points: 6
#     Node 5, Type 1, BuildingBlock: VOLQOD_clean_sbu_1, # of connection points: 6
#     Edge 6, Type (0, 1), BuildingBlock: AJUNOK_clean_linker_0, # of connection points: 2
#     Edge 7, Type (0, 1), BuildingBlock: AJUNOK_clean_linker_0, # of connection points: 2
#     Edge 8, Type (0, 1), BuildingBlock: AJUNOK_clean_linker_0, # of connection points: 2
#     Edge 9, Type (0, 1), BuildingBlock: AJUNOK_clean_linker_0, # of connection points: 2
#     Edge 10, Type (0, 1), BuildingBlock: AJUNOK_clean_linker_0, # of connection points: 2
#     Edge 11, Type (0, 1), BuildingBlock: AJUNOK_clean_linker_0, # of connection points: 2
#     Edge 12, Type (0, 1), BuildingBlock: AJUNOK_clean_linker_0, # of connection points: 2
#     Edge 13, Type (0, 1), BuildingBlock: AJUNOK_clean_linker_0, # of connection points: 2
#     Edge 14, Type (0, 1), BuildingBlock: AJUNOK_clean_linker_0, # of connection points: 2
#     Edge 15, Type (0, 1), BuildingBlock: AJUNOK_clean_linker_0, # of connection points: 2
#     Edge 16, Type (0, 1), BuildingBlock: AJUNOK_clean_linker_0, # of connection points: 2
#     Edge 17, Type (0, 1), BuildingBlock: AJUNOK_clean_linker_0, # of connection points: 2
# Relax obj value: 0.042
# Max RMSD: 0.143
# Mean RMSD: 0.090
data_MOF--net-rtl--node1-VOLQOD_clean_sbu_1--node2-BETDAH_clean_linker_0--edge1-AJUNOK_clean_linker_0
_symmetry_space_group_name_H-M    P1
_symmetry_Int_Tables_number       1
_symmetry_cell_setting            triclinic
loop_
_symmetry_equiv_pos_as_xyz
'x, y, z'
_cell_length_a     27.990094
_cell_length_b     27.999768
_cell_length_c     16.606167
_cell_angle_alpha  90.875885
_cell_angle_beta   92.227026
_cell_angle_gamma 89.864275
loop_
_atom_site_label
_atom_site_type_symbol
_atom_site_fract_x
_atom_site_fract_y
_atom_site_fract_z
_atom_type_partial_charge
H0 H 0.12439 0.87542 0.95436 0.0
H1 H 0.18424 0.75612 0.08439 0.0
H2 H 0.17288 0.75138 0.82549 0.0
C3 C 0.14139 0.84057 0.95456 0.0
C4 C 0.14837 0.81676 0.88115 0.0
C5 C 0.15359 0.81898 0.0282 0.0
C6 C 0.17462 0.77331 0.02802 0.0
C7 C 0.18132 0.74895 0.9547 0.0
C8 C 0.16764 0.77048 0.88172 0.0
N9 N 0.19866 0.70148 0.95308 0.0
C10 C 0.24102 0.68778 -0.00748 0.0
H11 H 0.62843 0.63104 0.59208 0.0
H12 H 0.69707 0.74252 0.46282 0.0
H13 H 0.69915 0.74548 0.72237 0.0
C14 C 0.6496 0.66345 0.59178 0.0
C15 C 0.66362 0.68528 0.66501 0.0
C16 C 0.66118 0.68379 0.51836 0.0
C17 C 0.68873 0.72593 0.51906 0.0
C18 C 0.70263 0.7481 0.59317 0.0
C19 C 0.6896 0.72773 0.66553 0.0
N20 N 0.72658 0.79262 0.59807 0.0
C21 C 0.75602 0.81058 0.54046 0.0
H22 H 0.92515 0.13241 0.96247 0.0
H23 H 0.8417 0.24326 0.07187 0.0
H24 H 0.84953 0.23373 0.81345 0.0
C25 C 0.90178 0.16323 0.95643 0.0
C26 C 0.88862 0.1797 0.87971 0.0
C27 C 0.88535 0.18604 0.02574 0.0
C28 C 0.85414 0.22534 0.01833 0.0
C29 C 0.84125 0.24254 0.94102 0.0
C30 C 0.85884 0.21975 0.87255 0.0
N31 N 0.81271 0.28387 0.92877 0.0
C32 C 0.78223 0.30413 -0.01623 0.0
H33 H 0.4331 0.37014 0.53288 0.0
H34 H 0.32501 0.3161 0.68376 0.0
H35 H 0.31047 0.29742 0.42642 0.0
C36 C 0.40043 0.35006 0.53978 0.0
C37 C 0.37447 0.33374 0.47109 0.0
C38 C 0.38265 0.34438 0.61663 0.0
C39 C 0.33979 0.3196 0.62474 0.0
C40 C 0.31444 0.3012 0.5569 0.0
C41 C 0.33158 0.30858 0.47945 0.0
N42 N 0.26912 0.28073 0.5685 0.0
C43 C 0.251 0.24118 0.52643 0.0
O44 O 0.90737 0.96945 0.44389 0.0
Zn45 Zn 0.95366 0.02459 0.44713 0.0
O46 O 0.02009 1.00182 0.44944 0.0
Zn47 Zn 0.05361 0.02374 0.54808 0.0
Zn48 Zn 0.02056 0.93186 0.44629 0.0
Zn49 Zn 0.05302 0.02708 0.35752 0.0
O50 O 0.10801 0.0672 0.52517 0.0
O51 O 0.10739 0.07129 0.39197 0.0
O52 O 0.94067 0.06321 0.54718 0.0
O53 O 0.00954 0.0611 0.61759 0.0
O54 O 0.07957 0.96909 0.61307 0.0
O55 O 0.05469 0.90471 0.54463 0.0
O56 O 0.05496 0.90758 0.3501 0.0
O57 O 0.93897 0.06678 0.3518 0.0
O58 O 0.07936 0.97302 0.29007 0.0
O59 O 0.00779 0.06718 0.28964 0.0
C60 C 0.91224 0.9242 0.44277 0.0
C61 C 0.12489 0.0835 0.46109 0.0
C62 C 0.07676 0.9239 0.60522 0.0
C63 C 0.96612 0.07439 0.6098 0.0
C64 C 0.07711 0.92762 0.29427 0.0
C65 C 0.96453 0.08079 0.29497 0.0
O66 O 0.9536 0.90508 0.44295 0.0
O67 O 0.63419 0.46839 0.08022 0.0
Zn68 Zn 0.5915 0.52674 0.08112 0.0
O69 O 0.52365 0.5085 0.07236 0.0
Zn70 Zn 0.4951 0.53707 0.97673 0.0
Zn71 Zn 0.51824 0.43856 0.06295 0.0
Zn72 Zn 0.48897 0.53266 0.16492 0.0
O73 O 0.43921 0.57814 0.00016 0.0
O74 O 0.43301 0.57613 0.1325 0.0
O75 O 0.61036 0.56849 -0.01144 0.0
O76 O 0.54098 0.57778 0.92165 0.0
O77 O 0.47233 0.48746 0.89774 0.0
O78 O 0.4854 0.41808 0.9569 0.0
O79 O 0.48056 0.41224 0.15347 0.0
O80 O 0.60494 0.56468 0.18348 0.0
O81 O 0.46075 0.47729 0.22331 0.0
O82 O 0.53453 0.5698 0.24037 0.0
C83 C 0.62613 0.42367 0.07353 0.0
C84 C 0.41825 0.59066 0.06356 0.0
C85 C 0.46996 0.44217 0.89677 0.0
C86 C 0.58525 0.5868 0.93131 0.0
C87 C 0.45978 0.43212 0.21212 0.0
C88 C 0.57907 0.57961 0.24012 0.0
O89 O 0.58354 0.40777 0.06659 0.0
C90 C 0.22292 0.16111 0.55573 0.0
C91 C 0.22624 0.19823 0.50063 0.0
C92 C 0.19182 0.12272 0.54023 0.0
C93 C 0.16304 0.12009 0.46883 0.0
H94 H 0.2428 0.16285 0.61305 0.0
H95 H 0.18907 0.09578 0.58595 0.0
S96 S 0.16155 0.20764 0.30294 0.0
N97 N 0.2007 0.22964 0.37067 0.0
N98 N 0.14233 0.15711 0.34021 0.0
C99 C 0.16817 0.15597 0.41113 0.0
C100 C 0.19971 0.19531 0.4275 0.0
C101 C 0.32483 0.67161 0.96645 0.0
C102 C 0.28706 0.66942 0.01908 0.0
C103 C 0.36794 0.64782 -0.01634 0.0
C104 C 0.37485 0.62094 0.0543 0.0
H105 H 0.32042 0.69033 0.90997 0.0
H106 H 0.39558 0.64938 0.93986 0.0
S107 S 0.28694 0.60712 0.21402 0.0
N108 N 0.25914 0.64087 0.14609 0.0
N109 N 0.34052 0.59609 0.1795 0.0
C110 C 0.33786 0.62055 0.10945 0.0
C111 C 0.29373 0.64472 0.09141 0.0
C112 C 0.83732 0.81618 0.49105 0.0
C113 C 0.79152 0.83584 0.49729 0.0
C114 C 0.87567 0.84432 0.46782 0.0
C115 C 0.86955 0.89329 0.45109 0.0
H116 H 0.84415 0.7796 0.50861 0.0
H117 H 0.91084 0.8281 0.4676 0.0
S118 S 0.75422 0.9595 0.45042 0.0
N119 N 0.74049 0.90511 0.47873 0.0
N120 N 0.81212 0.95844 0.43465 0.0
C121 C 0.8228 0.91226 0.45202 0.0
C122 C 0.78387 0.8834 0.47547 0.0
C123 C 0.7525 0.37906 0.04206 0.0
C124 C 0.74551 0.3305 0.02381 0.0
C125 C 0.71408 0.40838 0.06302 0.0
C126 C 0.66719 0.39016 0.06555 0.0
H127 H 0.78736 0.39508 0.03594 0.0
H128 H 0.72096 0.44607 0.07325 0.0
S129 S 0.63218 0.26325 0.03038 0.0
N130 N 0.69014 0.26413 0.01527 0.0
N131 N 0.61756 0.31861 0.05501 0.0
C132 C 0.66067 0.34062 0.05218 0.0
C133 C 0.69996 0.31095 0.03099 0.0
C134 C 0.15066 0.89235 0.11534 0.0
C135 C 0.14021 0.84357 0.1038 0.0
C136 C 0.13109 0.91885 0.1782 0.0
C137 C 0.10025 0.89761 0.23225 0.0
H138 H 0.17299 0.91058 0.07371 0.0
H139 H 0.13947 0.95654 0.18323 0.0
S140 S 0.06351 0.77005 0.23007 0.0
N141 N 0.09849 0.77451 0.15279 0.0
N142 N 0.06215 0.82384 0.27201 0.0
C143 C 0.09122 0.84821 0.22344 0.0
C144 C 0.11113 0.82129 0.15909 0.0
C145 C 0.6741 0.63274 0.78448 0.0
C146 C 0.64642 0.6658 0.74021 0.0
C147 C 0.65505 0.60898 0.84979 0.0
C148 C 0.6076 0.6173 0.87161 0.0
H149 H 0.70993 0.62396 0.76662 0.0
H150 H 0.67671 0.58229 0.8806 0.0
S151 S 0.52282 0.70454 0.77853 0.0
N152 N 0.5713 0.70856 0.72548 0.0
N153 N 0.53512 0.66416 0.84781 0.0
C154 C 0.5806 0.65214 0.82976 0.0
C155 C 0.60012 0.67632 0.76397 0.0
C156 C 0.87418 0.14133 0.15272 0.0
C157 C 0.9036 0.1685 0.10449 0.0
C158 C 0.8939 0.11441 0.21663 0.0
C159 C 0.94367 0.11343 0.23344 0.0
H160 H 0.83621 0.13873 0.1381 0.0
H161 H 0.87024 0.09243 0.25043 0.0
S162 S 0.0347 0.18414 0.13063 0.0
N163 N 0.98374 0.19689 0.08219 0.0
N164 N 0.02098 0.14659 0.20183 0.0
C165 C 0.97289 0.14296 0.18841 0.0
C166 C 0.95278 0.17043 0.12405 0.0
C167 C 0.41806 0.3444 0.75766 0.0
C168 C 0.40578 0.36929 0.68698 0.0
C169 C 0.43932 0.36804 0.825 0.0
C170 C 0.44852 0.41751 0.82426 0.0
H171 H 0.4114 0.30639 0.7607 0.0
H172 H 0.44816 0.34739 0.87818 0.0
S173 S 0.42102 0.49891 0.65344 0.0
N174 N 0.40277 0.44592 0.62042 0.0
N175 N 0.44301 0.49045 0.74574 0.0
C176 C 0.43607 0.4427 0.7535 0.0
C177 C 0.41462 0.41858 0.68523 0.0
C178 C 0.59206 0.65077 0.43635 0.0
C179 C 0.64111 0.66174 0.44259 0.0
C180 C 0.57245 0.62498 0.3703 0.0
C181 C 0.60103 0.60891 0.30741 0.0
H182 H 0.56868 0.66156 0.48388 0.0
H183 H 0.53459 0.61701 0.3695 0.0
S184 S 0.73156 0.63054 0.29348 0.0
N185 N 0.71771 0.65628 0.37963 0.0
N186 N 0.68117 0.60801 0.25446 0.0
C187 C 0.65008 0.62105 0.31172 0.0
C188 C 0.66999 0.64749 0.37936 0.0
C189 C 0.95652 0.14566 0.80461 0.0
C190 C 0.90736 0.15535 0.80773 0.0
C191 C 0.97505 0.1201 0.73991 0.0
C192 C 0.94515 0.10307 0.6756 0.0
H193 H 0.9809 0.15778 0.85293 0.0
H194 H 0.0132 0.11343 0.74087 0.0
S195 S 0.81336 0.119 0.65585 0.0
N196 N 0.82888 0.14614 0.74184 0.0
N197 N 0.8635 0.09823 0.61937 0.0
C198 C 0.89583 0.11319 0.67751 0.0
C199 C 0.877 0.13932 0.74368 0.0
C200 C 0.37249 0.39714 0.3694 0.0
C201 C 0.38879 0.35178 0.39276 0.0
C202 C 0.39473 0.42215 0.3089 0.0
C203 C 0.43385 0.40248 0.26915 0.0
H204 H 0.34424 0.41464 0.40163 0.0
H205 H 0.38206 0.45778 0.29487 0.0
S206 S 0.48807 0.28329 0.30573 0.0
N207 N 0.44483 0.28723 0.37048 0.0
N208 N 0.48611 0.33349 0.25462 0.0
C209 C 0.44874 0.35589 0.289 0.0
C210 C 0.4264 0.33075 0.35157 0.0
C211 C 0.14832 0.88812 0.79322 0.0
C212 C 0.13403 0.84073 0.80495 0.0
C213 C 0.13075 0.91405 0.72711 0.0
C214 C 0.09817 0.89363 0.66979 0.0
H215 H 0.17254 0.90571 0.83663 0.0
H216 H 0.14219 0.95077 0.7219 0.0
S217 S 0.05078 0.76983 0.67179 0.0
N218 N 0.08644 0.77377 0.75318 0.0
N219 N 0.05368 0.8222 0.62787 0.0
C220 C 0.08499 0.84553 0.67915 0.0
C221 C 0.10286 0.81914 0.74692 0.0
loop_
_geom_bond_atom_site_label_1
_geom_bond_atom_site_label_2
_geom_bond_distance
_geom_bond_site_symmetry_2
_ccdc_geom_bond_type
H0 C3 0.929 . S
H1 C6 0.929 . S
H2 C8 0.930 . S
C3 H0 0.929 . S
C3 C4 1.398 1_554 S
C3 C5 1.396 . S
C4 C3 1.398 1_556 S
C4 C8 1.407 . S
C5 C3 1.396 . S
C5 C6 1.394 . S
C6 H1 0.929 . S
C6 C5 1.394 . S
C6 C7 1.382 . S
C7 C6 1.382 . S
C7 C8 1.392 1_554 S
C7 N9 1.420 1_554 S
C8 H2 0.930 . S
C8 C4 1.407 . S
C8 C7 1.392 1_556 S
N9 C7 1.420 1_556 S
N9 C10 1.244 1_556 S
C10 N9 1.244 1_554 S
H11 C14 0.929 . S
H12 C17 0.929 . S
H13 C19 0.930 . S
C14 H11 0.929 . S
C14 C15 1.398 . S
C14 C16 1.396 . S
C15 C14 1.398 . S
C15 C19 1.407 . S
C16 C14 1.396 . S
C16 C17 1.394 . S
C17 H12 0.929 . S
C17 C16 1.394 . S
C17 C18 1.382 . S
C18 C17 1.382 . S
C18 C19 1.392 . S
C18 N20 1.420 . S
C19 H13 0.930 . S
C19 C15 1.407 . S
C19 C18 1.392 . S
N20 C18 1.420 . S
N20 C21 1.244 . S
C21 N20 1.244 . S
H22 C25 0.929 . S
H23 C28 0.929 . S
H24 C30 0.930 . S
C25 H22 0.929 . S
C25 C26 1.398 1_554 S
C25 C27 1.396 . S
C26 C25 1.398 1_556 S
C26 C30 1.407 . S
C27 C25 1.396 . S
C27 C28 1.394 . S
C28 H23 0.929 . S
C28 C27 1.394 . S
C28 C29 1.382 . S
C29 C28 1.382 . S
C29 C30 1.392 1_554 S
C29 N31 1.420 1_554 S
C30 H24 0.930 . S
C30 C26 1.407 . S
C30 C29 1.392 1_556 S
N31 C29 1.420 1_556 S
N31 C32 1.244 1_556 S
C32 N31 1.244 1_554 S
H33 C36 0.929 . S
H34 C39 0.929 . S
H35 C41 0.930 . S
C36 H33 0.929 . S
C36 C37 1.398 . S
C36 C38 1.396 . S
C37 C36 1.398 . S
C37 C41 1.407 . S
C38 C36 1.396 . S
C38 C39 1.394 . S
C39 H34 0.929 . S
C39 C38 1.394 . S
C39 C40 1.382 . S
C40 C39 1.382 . S
C40 C41 1.392 . S
C40 N42 1.420 . S
C41 H35 0.930 . S
C41 C37 1.407 . S
C41 C40 1.392 . S
N42 C40 1.420 . S
N42 C43 1.244 . S
C43 N42 1.244 . S
O44 Zn45 1.953 1_565 S
O44 C60 1.225 . S
Zn45 O44 1.953 1_545 S
Zn45 O46 1.949 1_655 S
Zn45 O52 1.919 . S
Zn45 O57 1.924 . S
O46 Zn45 1.949 1_455 S
O46 Zn47 1.923 . S
O46 Zn48 1.950 1_545 S
O46 Zn49 1.945 . S
Zn47 O46 1.923 . S
Zn47 O50 1.933 . S
Zn47 O53 1.941 . S
Zn47 O54 1.965 1_545 S
Zn48 O46 1.950 1_565 S
Zn48 O55 1.938 . S
Zn48 O56 1.906 . S
Zn48 O66 1.953 1_455 S
Zn49 O46 1.945 . S
Zn49 O51 1.932 . S
Zn49 O58 1.977 1_545 S
Zn49 O59 1.910 1_455 S
O50 Zn47 1.933 . S
O50 C61 1.226 . S
O51 Zn49 1.932 . S
O51 C61 1.307 . S
O52 Zn45 1.919 . S
O52 C63 1.253 . S
O53 Zn47 1.941 . S
O53 C63 1.283 1_455 S
O54 Zn47 1.965 1_565 S
O54 C62 1.303 . S
O55 Zn48 1.938 . S
O55 C62 1.247 . S
O56 Zn48 1.906 . S
O56 C64 1.304 . S
O57 Zn45 1.924 . S
O57 C65 1.311 . S
O58 Zn49 1.977 1_565 S
O58 C64 1.272 . S
O59 Zn49 1.910 1_655 S
O59 C65 1.231 . S
C60 O44 1.225 . S
C60 O66 1.298 . S
C61 O50 1.226 . S
C61 O51 1.307 . S
C62 O54 1.303 . S
C62 O55 1.247 . S
C63 O52 1.253 . S
C63 O53 1.283 1_655 S
C64 O56 1.304 . S
C64 O58 1.272 . S
C65 O57 1.311 . S
C65 O59 1.231 . S
O66 Zn48 1.953 1_655 S
O66 C60 1.298 . S
O67 Zn68 1.953 . S
O67 C83 1.225 . S
Zn68 O67 1.953 . S
Zn68 O69 1.949 . S
Zn68 O75 1.919 1_554 S
Zn68 O80 1.924 . S
O69 Zn68 1.949 . S
O69 Zn70 1.923 1_554 S
O69 Zn71 1.950 . S
O69 Zn72 1.945 . S
Zn70 O69 1.923 1_556 S
Zn70 O73 1.933 . S
Zn70 O76 1.941 . S
Zn70 O77 1.965 . S
Zn71 O69 1.950 . S
Zn71 O78 1.938 1_554 S
Zn71 O79 1.906 . S
Zn71 O89 1.953 . S
Zn72 O69 1.945 . S
Zn72 O74 1.932 . S
Zn72 O81 1.977 . S
Zn72 O82 1.910 . S
O73 Zn70 1.933 . S
O73 C84 1.226 1_556 S
O74 Zn72 1.932 . S
O74 C84 1.307 . S
O75 Zn68 1.919 1_556 S
O75 C86 1.253 . S
O76 Zn70 1.941 . S
O76 C86 1.283 . S
O77 Zn70 1.965 . S
O77 C85 1.303 . S
O78 Zn71 1.938 1_556 S
O78 C85 1.247 . S
O79 Zn71 1.906 . S
O79 C87 1.304 . S
O80 Zn68 1.924 . S
O80 C88 1.311 . S
O81 Zn72 1.977 . S
O81 C87 1.272 . S
O82 Zn72 1.910 . S
O82 C88 1.231 . S
C83 O67 1.225 . S
C83 O89 1.298 . S
C84 O73 1.226 1_554 S
C84 O74 1.307 . S
C85 O77 1.303 . S
C85 O78 1.247 . S
C86 O75 1.253 . S
C86 O76 1.283 . S
C87 O79 1.304 . S
C87 O81 1.272 . S
C88 O80 1.311 . S
C88 O82 1.231 . S
O89 Zn71 1.953 . S
O89 C83 1.298 . S
C90 C91 1.369 . S
C90 C92 1.419 . S
C90 H94 0.930 . S
C91 C90 1.369 . S
C91 C100 1.429 . S
C92 C90 1.419 . S
C92 C93 1.363 . S
C92 H95 0.929 . S
C93 C92 1.363 . S
C93 C99 1.428 . S
H94 C90 0.930 . S
H95 C92 0.929 . S
S96 N97 1.613 . S
S96 N98 1.610 . S
N97 S96 1.613 . S
N97 C100 1.350 . S
N98 S96 1.610 . S
N98 C99 1.351 . S
C99 C93 1.428 . S
C99 N98 1.351 . S
C99 C100 1.434 . S
C100 C91 1.429 . S
C100 N97 1.350 . S
C100 C99 1.434 . S
C101 C102 1.369 1_556 S
C101 C103 1.419 . S
C101 H105 0.930 . S
C102 C101 1.369 1_554 S
C102 C111 1.429 . S
C103 C101 1.419 . S
C103 C104 1.363 1_556 S
C103 H106 0.929 . S
C104 C103 1.363 1_554 S
C104 C110 1.428 . S
H105 C101 0.930 . S
H106 C103 0.929 . S
S107 N108 1.613 . S
S107 N109 1.610 . S
N108 S107 1.613 . S
N108 C111 1.350 . S
N109 S107 1.610 . S
N109 C110 1.351 . S
C110 C104 1.428 . S
C110 N109 1.351 . S
C110 C111 1.434 . S
C111 C102 1.429 . S
C111 N108 1.350 . S
C111 C110 1.434 . S
C112 C113 1.369 . S
C112 C114 1.419 . S
C112 H116 0.930 . S
C113 C112 1.369 . S
C113 C122 1.429 . S
C114 C112 1.419 . S
C114 C115 1.363 . S
C114 H117 0.929 . S
C115 C114 1.363 . S
C115 C121 1.428 . S
H116 C112 0.930 . S
H117 C114 0.929 . S
S118 N119 1.613 . S
S118 N120 1.610 . S
N119 S118 1.613 . S
N119 C122 1.350 . S
N120 S118 1.610 . S
N120 C121 1.351 . S
C121 C115 1.428 . S
C121 N120 1.351 . S
C121 C122 1.434 . S
C122 C113 1.429 . S
C122 N119 1.350 . S
C122 C121 1.434 . S
C123 C124 1.369 . S
C123 C125 1.419 . S
C123 H127 0.930 . S
C124 C123 1.369 . S
C124 C133 1.429 1_554 S
C125 C123 1.419 . S
C125 C126 1.363 . S
C125 H128 0.929 . S
C126 C125 1.363 . S
C126 C132 1.428 1_554 S
H127 C123 0.930 . S
H128 C125 0.929 . S
S129 N130 1.613 . S
S129 N131 1.610 . S
N130 S129 1.613 . S
N130 C133 1.350 . S
N131 S129 1.610 . S
N131 C132 1.351 . S
C132 C126 1.428 1_556 S
C132 N131 1.351 . S
C132 C133 1.434 . S
C133 C124 1.429 1_556 S
C133 N130 1.350 . S
C133 C132 1.434 . S
C134 C135 1.369 . S
C134 C136 1.419 . S
C134 H138 0.930 . S
C135 C134 1.369 . S
C135 C144 1.429 . S
C136 C134 1.419 . S
C136 C137 1.363 . S
C136 H139 0.929 . S
C137 C136 1.363 . S
C137 C143 1.428 . S
H138 C134 0.930 . S
H139 C136 0.929 . S
S140 N141 1.613 . S
S140 N142 1.610 . S
N141 S140 1.613 . S
N141 C144 1.350 . S
N142 S140 1.610 . S
N142 C143 1.351 . S
C143 C137 1.428 . S
C143 N142 1.351 . S
C143 C144 1.434 . S
C144 C135 1.429 . S
C144 N141 1.350 . S
C144 C143 1.434 . S
C145 C146 1.369 . S
C145 C147 1.419 . S
C145 H149 0.930 . S
C146 C145 1.369 . S
C146 C155 1.429 . S
C147 C145 1.419 . S
C147 C148 1.363 . S
C147 H150 0.929 . S
C148 C147 1.363 . S
C148 C154 1.428 . S
H149 C145 0.930 . S
H150 C147 0.929 . S
S151 N152 1.613 . S
S151 N153 1.610 . S
N152 S151 1.613 . S
N152 C155 1.350 . S
N153 S151 1.610 . S
N153 C154 1.351 . S
C154 C148 1.428 . S
C154 N153 1.351 . S
C154 C155 1.434 . S
C155 C146 1.429 . S
C155 N152 1.350 . S
C155 C154 1.434 . S
C156 C157 1.369 . S
C156 C158 1.419 . S
C156 H160 0.930 . S
C157 C156 1.369 . S
C157 C166 1.429 . S
C158 C156 1.419 . S
C158 C159 1.363 . S
C158 H161 0.929 . S
C159 C158 1.363 . S
C159 C165 1.428 . S
H160 C156 0.930 . S
H161 C158 0.929 . S
S162 N163 1.613 1_455 S
S162 N164 1.610 1_455 S
N163 S162 1.613 1_655 S
N163 C166 1.350 . S
N164 S162 1.610 1_655 S
N164 C165 1.351 . S
C165 C159 1.428 . S
C165 N164 1.351 . S
C165 C166 1.434 . S
C166 C157 1.429 . S
C166 N163 1.350 . S
C166 C165 1.434 . S
C167 C168 1.369 . S
C167 C169 1.419 . S
C167 H171 0.930 . S
C168 C167 1.369 . S
C168 C177 1.429 . S
C169 C167 1.419 . S
C169 C170 1.363 . S
C169 H172 0.929 . S
C170 C169 1.363 . S
C170 C176 1.428 . S
H171 C167 0.930 . S
H172 C169 0.929 . S
S173 N174 1.613 . S
S173 N175 1.610 . S
N174 S173 1.613 . S
N174 C177 1.350 . S
N175 S173 1.610 . S
N175 C176 1.351 . S
C176 C170 1.428 . S
C176 N175 1.351 . S
C176 C177 1.434 . S
C177 C168 1.429 . S
C177 N174 1.350 . S
C177 C176 1.434 . S
C178 C179 1.369 . S
C178 C180 1.419 . S
C178 H182 0.930 . S
C179 C178 1.369 . S
C179 C188 1.429 . S
C180 C178 1.419 . S
C180 C181 1.363 . S
C180 H183 0.929 . S
C181 C180 1.363 . S
C181 C187 1.428 . S
H182 C178 0.930 . S
H183 C180 0.929 . S
S184 N185 1.613 . S
S184 N186 1.610 . S
N185 S184 1.613 . S
N185 C188 1.350 . S
N186 S184 1.610 . S
N186 C187 1.351 . S
C187 C181 1.428 . S
C187 N186 1.351 . S
C187 C188 1.434 . S
C188 C179 1.429 . S
C188 N185 1.350 . S
C188 C187 1.434 . S
C189 C190 1.369 . S
C189 C191 1.419 . S
C189 H193 0.930 . S
C190 C189 1.369 . S
C190 C199 1.429 . S
C191 C189 1.419 . S
C191 C192 1.363 . S
C191 H194 0.929 . S
C192 C191 1.363 . S
C192 C198 1.428 . S
H193 C189 0.930 . S
H194 C191 0.929 . S
S195 N196 1.613 . S
S195 N197 1.610 . S
N196 S195 1.613 . S
N196 C199 1.350 . S
N197 S195 1.610 . S
N197 C198 1.351 . S
C198 C192 1.428 . S
C198 N197 1.351 . S
C198 C199 1.434 . S
C199 C190 1.429 . S
C199 N196 1.350 . S
C199 C198 1.434 . S
C200 C201 1.369 . S
C200 C202 1.419 . S
C200 H204 0.930 . S
C201 C200 1.369 . S
C201 C210 1.429 . S
C202 C200 1.419 . S
C202 C203 1.363 . S
C202 H205 0.929 . S
C203 C202 1.363 . S
C203 C209 1.428 . S
H204 C200 0.930 . S
H205 C202 0.929 . S
S206 N207 1.613 . S
S206 N208 1.610 . S
N207 S206 1.613 . S
N207 C210 1.350 . S
N208 S206 1.610 . S
N208 C209 1.351 . S
C209 C203 1.428 . S
C209 N208 1.351 . S
C209 C210 1.434 . S
C210 C201 1.429 . S
C210 N207 1.350 . S
C210 C209 1.434 . S
C211 C212 1.369 . S
C211 C213 1.419 . S
C211 H215 0.930 . S
C212 C211 1.369 . S
C212 C221 1.429 . S
C213 C211 1.419 . S
C213 C214 1.363 . S
C213 H216 0.929 . S
C214 C213 1.363 . S
C214 C220 1.428 . S
H215 C211 0.930 . S
H216 C213 0.929 . S
S217 N218 1.613 . S
S217 N219 1.610 . S
N218 S217 1.613 . S
N218 C221 1.350 . S
N219 S217 1.610 . S
N219 C220 1.351 . S
C220 C214 1.428 . S
C220 N219 1.351 . S
C220 C221 1.434 . S
C221 C212 1.429 . S
C221 N218 1.350 . S
C221 C220 1.434 . S
C93 C61 1.491 . S
C91 C43 1.491 . S
C102 C10 1.492 . S
C104 C84 1.492 . S
C113 C21 1.512 . S
C115 C60 1.514 . S
C124 C32 1.513 . S
C126 C83 1.514 . S
C137 C64 1.490 . S
C135 C5 1.523 . S
C148 C86 1.497 . S
C146 C15 1.552 . S
C157 C27 1.545 . S
C159 C65 1.495 . S
C168 C38 1.535 . S
C170 C85 1.494 . S
C181 C88 1.431 . S
C179 C16 1.471 . S
C192 C63 1.427 . S
C190 C26 1.492 . S
C203 C87 1.419 . S
C201 C37 1.473 . S
C212 C4 1.478 . S
C214 C62 1.421 . S
