# Generated by pormake.
# Topology dag, (6,3)-cn, num edge types: 1
# Building blocks:
#     Node 0, Type 0, BuildingBlock: IZENUY_clean_sbu_0, # of connection points: 6
#     Node 1, Type 0, BuildingBlock: IZENUY_clean_sbu_0, # of connection points: 6
#     Node 2, Type 0, BuildingBlock: IZENUY_clean_sbu_0, # of connection points: 6
#     Node 3, Type 0, BuildingBlock: IZENUY_clean_sbu_0, # of connection points: 6
#     Node 4, Type 1, BuildingBlock: CUQRIR_clean_linker_1, # of connection points: 3
#     Node 5, Type 1, BuildingBlock: CUQRIR_clean_linker_1, # of connection points: 3
#     Node 6, Type 1, BuildingBlock: CUQRIR_clean_linker_1, # of connection points: 3
#     Node 7, Type 1, BuildingBlock: CUQRIR_clean_linker_1, # of connection points: 3
#     Node 8, Type 1, BuildingBlock: CUQRIR_clean_linker_1, # of connection points: 3
#     Node 9, Type 1, BuildingBlock: CUQRIR_clean_linker_1, # of connection points: 3
#     Node 10, Type 1, BuildingBlock: CUQRIR_clean_linker_1, # of connection points: 3
#     Node 11, Type 1, BuildingBlock: CUQRIR_clean_linker_1, # of connection points: 3
#     Edge 12, Type (0, 1), None
#     Edge 13, Type (0, 1), None
#     Edge 14, Type (0, 1), None
#     Edge 15, Type (0, 1), None
#     Edge 16, Type (0, 1), None
#     Edge 17, Type (0, 1), None
#     Edge 18, Type (0, 1), None
#     Edge 19, Type (0, 1), None
#     Edge 20, Type (0, 1), None
#     Edge 21, Type (0, 1), None
#     Edge 22, Type (0, 1), None
#     Edge 23, Type (0, 1), None
#     Edge 24, Type (0, 1), None
#     Edge 25, Type (0, 1), None
#     Edge 26, Type (0, 1), None
#     Edge 27, Type (0, 1), None
#     Edge 28, Type (0, 1), None
#     Edge 29, Type (0, 1), None
#     Edge 30, Type (0, 1), None
#     Edge 31, Type (0, 1), None
#     Edge 32, Type (0, 1), None
#     Edge 33, Type (0, 1), None
#     Edge 34, Type (0, 1), None
#     Edge 35, Type (0, 1), None
# Relax obj value: 0.075
# Max RMSD: 0.099
# Mean RMSD: 0.088
data_MOF--net-dag--node1-IZENUY_clean_sbu_0--node2-CUQRIR_clean_linker_1--edge1-none
_symmetry_space_group_name_H-M    P1
_symmetry_Int_Tables_number       1
_symmetry_cell_setting            triclinic
loop_
_symmetry_equiv_pos_as_xyz
'x, y, z'
_cell_length_a     15.365022
_cell_length_b     15.335695
_cell_length_c     12.901828
_cell_angle_alpha  90.000894
_cell_angle_beta   91.84274
_cell_angle_gamma 90.001514
loop_
_atom_site_label
_atom_site_type_symbol
_atom_site_fract_x
_atom_site_fract_y
_atom_site_fract_z
_atom_type_partial_charge
Fe0 Fe 0.24684 0.90788 0.04133 0.0
Fe1 Fe 0.05841 0.94284 0.08311 0.0
O2 O 0.13587 0.8691 0.04831 0.0
Fe3 Fe 0.10084 0.75661 1.03547 0.0
O4 O 0.17241 0.72999 0.14681 0.0
O5 O 0.27688 0.83404 0.14934 0.0
O6 O 0.2444 0.00535 0.12902 0.0
C7 C 0.18355 0.03327 0.18253 0.0
C8 C 0.25219 0.75743 0.91371 0.0
O9 O 0.1199 0.98658 0.18914 0.0
C10 C 0.97197 0.83904 0.92099 0.0
O11 O 0.22173 0.9826 0.93298 0.0
O12 O 0.09296 0.01987 0.98453 0.0
O13 O 0.18353 0.72509 0.9464 0.0
O14 O 0.27953 0.82904 0.94708 0.0
C15 C 0.9783 0.8161 0.18049 0.0
O16 O 0.98049 0.89967 0.98586 0.0
O17 O 0.02776 0.778 0.92265 0.0
C18 C 0.1558 0.03271 0.9265 0.0
O19 O 0.02441 0.88027 0.18981 0.0
O20 O 1.00208 0.75836 0.11818 0.0
C21 C 0.24321 0.76342 0.1846 0.0
Fe22 Fe 0.74683 0.58796 0.54132 0.0
Fe23 Fe 0.60084 0.73923 0.53547 0.0
O24 O 0.63587 0.62674 0.5483 0.0
Fe25 Fe 0.55841 0.55299 0.58311 0.0
O26 O 0.61991 0.50928 0.68916 0.0
O27 O 0.74438 0.49047 0.62898 0.0
O28 O 0.77687 0.66178 0.64935 0.0
C29 C 0.74321 0.7324 0.6846 0.0
C30 C 0.6558 0.46313 0.42649 0.0
O31 O 0.67243 0.76585 0.64679 0.0
C32 C 0.47196 0.65679 0.421 0.0
O33 O 0.77954 0.66682 0.4471 0.0
O34 O 0.68352 0.77074 0.44638 0.0
O35 O 0.59298 0.47595 0.48454 0.0
O36 O 0.72172 0.51326 0.43295 0.0
C37 C 0.47828 0.67973 0.68046 0.0
O38 O 0.52775 0.71784 0.42267 0.0
O39 O 0.4805 0.59614 0.48584 0.0
C40 C 0.75219 0.73841 0.41371 0.0
O41 O 0.50208 0.73749 0.61819 0.0
O42 O 0.5244 0.61557 0.6898 0.0
C43 C 0.68355 0.46259 0.68256 0.0
Fe44 Fe 0.90409 0.23923 0.07087 0.0
Fe45 Fe 0.94652 0.05299 1.02323 0.0
O46 O 0.86906 0.12674 0.05803 0.0
Fe47 Fe 0.7581 0.08796 0.06501 0.0
O48 O 0.72806 0.16179 0.957 0.0
O49 O 0.83252 0.26585 0.95954 0.0
O50 O 1.00286 0.23749 0.98815 0.0
C51 C 0.02664 0.17974 0.92587 0.0
C52 C 0.75275 0.23841 0.19263 0.0
O53 O 0.98052 0.11557 0.91653 0.0
C54 C 0.84914 0.96313 0.17985 0.0
O55 O 0.97718 0.21784 0.18368 0.0
O56 O 0.02444 0.09616 0.12048 0.0
O57 O 0.7254 0.1668 0.15925 0.0
O58 O 0.82141 0.27074 0.15995 0.0
C59 C 0.82139 0.96258 0.92379 0.0
O60 O 0.91197 0.97596 0.1218 0.0
O61 O 0.78321 0.01325 0.17337 0.0
C62 C 0.03298 0.1568 0.18534 0.0
O63 O 0.88503 0.00926 0.91719 0.0
O64 O 0.76055 0.99047 0.97733 0.0
C65 C 0.76172 0.23241 0.92174 0.0
Fe66 Fe 0.44652 0.44284 0.52323 0.0
Fe67 Fe 0.2581 0.40787 0.56502 0.0
O68 O 0.36906 0.3691 0.55804 0.0
Fe69 Fe 0.40409 0.2566 0.57087 0.0
O70 O 0.47718 0.278 0.68368 0.0
O71 O 0.52444 0.39969 0.62049 0.0
O72 O 0.41195 0.51988 0.6218 0.0
C73 C 0.34913 0.53271 0.67986 0.0
C74 C 0.52664 0.3161 0.42587 0.0
O75 O 0.28321 0.48258 0.67339 0.0
C76 C 0.26172 0.26343 0.42174 0.0
O77 O 0.38502 0.48656 0.41718 0.0
O78 O 0.26055 0.50537 0.47735 0.0
O79 O 0.50285 0.25835 0.48815 0.0
O80 O 0.48053 0.38027 0.41654 0.0
C81 C 0.25275 0.25743 0.69263 0.0
O82 O 0.22806 0.33405 0.45699 0.0
O83 O 0.33251 0.22999 0.45955 0.0
C84 C 0.32138 0.53324 0.42378 0.0
O85 O 0.22539 0.32902 0.65925 0.0
O86 O 0.32141 0.2251 0.65995 0.0
C87 C 0.53297 0.33905 0.68534 0.0
C88 C 0.13182 0.22422 0.31564 0.0
N89 N 0.10978 0.16152 0.24495 0.0
N90 N 0.21814 0.21903 0.34357 0.0
C91 C 0.06648 0.28046 0.37024 0.0
C92 C 0.24821 0.15115 0.28629 0.0
N93 N 0.18221 0.11376 0.22986 0.0
C94 C 0.34153 0.11973 0.28876 0.0
H95 H 0.06987 0.34817 0.34028 0.0
H96 H 0.08067 0.28154 0.45501 0.0
H97 H 0.999 0.25587 0.36055 0.0
H98 H 0.35297 0.07715 0.35741 0.0
H99 H 0.38694 0.17589 0.29445 0.0
H100 H 0.35796 0.08283 0.21851 0.0
C101 C 0.28893 0.62897 0.81066 0.0
N102 N 0.349 0.60763 0.74002 0.0
N103 N 0.29834 0.71366 0.84097 0.0
C104 C 0.23162 0.56311 0.86303 0.0
C105 C 0.36689 0.74338 0.78627 0.0
N106 N 0.39899 0.67894 0.72662 0.0
C107 C 0.40711 0.83289 0.79861 0.0
H108 H 0.16469 0.56654 0.82825 0.0
H109 H 0.22883 0.57582 0.94741 0.0
H110 H 0.25703 0.49591 0.85567 0.0
H111 H 0.43762 0.83883 0.87745 0.0
H112 H 0.35585 0.8834 0.7901 0.0
H113 H 0.45723 0.8468 0.74135 0.0
C114 C 0.78893 0.86687 0.31065 0.0
N115 N 0.849 0.88821 0.24002 0.0
N116 N 0.79834 0.78218 0.34097 0.0
C117 C 0.73161 0.93273 0.36301 0.0
C118 C 0.86689 0.75246 0.28628 0.0
N119 N 0.899 0.8169 0.22662 0.0
C120 C 0.90711 0.66295 0.29862 0.0
H121 H 0.75703 -8e-05 0.35566 0.0
H122 H 0.72881 0.92002 0.44739 0.0
H123 H 0.66469 0.92929 0.32822 0.0
H124 H 0.85585 0.61244 0.29012 0.0
H125 H 0.93763 0.65702 0.37745 0.0
H126 H 0.95722 0.64903 0.24134 0.0
C127 C 0.7482 0.34471 0.78632 0.0
N128 N 0.6822 0.3821 0.72988 0.0
N129 N 0.71813 0.27682 0.84358 0.0
C130 C 0.84152 0.37616 0.78883 0.0
C131 C 0.63182 0.27162 0.81565 0.0
N132 N 0.60977 0.33433 0.74496 0.0
C133 C 0.56648 0.21536 0.87023 0.0
H134 H 0.88693 0.32 0.79445 0.0
H135 H 0.85294 0.41868 0.85753 0.0
H136 H 0.85794 0.41313 0.71862 0.0
H137 H 0.58066 0.21429 0.955 0.0
H138 H 0.56991 0.14765 0.84027 0.0
H139 H 0.499 0.23991 0.86052 0.0
C140 C 0.63805 0.25246 0.32007 0.0
N141 N 0.60594 0.31691 0.37973 0.0
N142 N 0.70659 0.28218 0.26537 0.0
C143 C 0.59782 0.16295 0.30774 0.0
C144 C 0.716 0.36687 0.29568 0.0
N145 N 0.65594 0.38821 0.36632 0.0
C146 C 0.77333 0.43271 0.24331 0.0
H147 H 0.64908 0.11244 0.31624 0.0
H148 H 0.5673 0.15701 0.2289 0.0
H149 H 0.54771 0.14903 0.36501 0.0
H150 H 0.74793 0.49992 0.25068 0.0
H151 H 0.7761 0.42001 0.15892 0.0
H152 H 0.84026 0.42926 0.27807 0.0
C153 C 0.13804 0.24337 0.82006 0.0
N154 N 0.10594 0.17893 0.87973 0.0
N155 N 0.20659 0.21366 0.76537 0.0
C156 C 0.09782 0.33288 0.80773 0.0
C157 C 0.21601 0.12897 0.79569 0.0
N158 N 0.15594 0.10762 0.86633 0.0
C159 C 0.27334 0.06312 0.74333 0.0
H160 H 0.0673 0.33881 0.72889 0.0
H161 H 0.14908 0.3834 0.81622 0.0
H162 H 0.0477 0.3468 0.865 0.0
H163 H 0.27611 0.07582 0.65894 0.0
H164 H 0.24794 0.99592 0.7507 0.0
H165 H 0.34026 0.06659 0.7781 0.0
C166 C 0.25673 0.65112 0.32003 0.0
N167 N 0.32273 0.61374 0.37647 0.0
N168 N 0.2868 0.71901 0.26276 0.0
C169 C 0.16341 0.61968 0.31752 0.0
C170 C 0.37311 0.72421 0.29069 0.0
N171 N 0.39516 0.6615 0.36138 0.0
C172 C 0.43845 0.78047 0.23611 0.0
H173 H 0.15198 0.57716 0.24881 0.0
H174 H 0.118 0.67583 0.3119 0.0
H175 H 0.14699 0.5827 0.38772 0.0
H176 H 0.43502 0.84819 0.26606 0.0
H177 H 0.42428 0.78153 0.15133 0.0
H178 H 0.50594 0.75592 0.24583 0.0
C179 C 0.75673 0.84469 0.82005 0.0
N180 N 0.82273 0.88208 0.87648 0.0
N181 N 0.7868 0.7768 0.76277 0.0
C182 C 0.66341 0.87611 0.81757 0.0
C183 C 0.87311 0.77161 0.79069 0.0
N184 N 0.89516 0.83432 0.86139 0.0
C185 C 0.93845 0.71536 0.7361 0.0
H186 H 0.618 0.81995 0.81189 0.0
H187 H 0.65197 0.91869 0.74892 0.0
H188 H 0.64698 0.91302 0.88783 0.0
H189 H 0.92427 0.7143 0.65133 0.0
H190 H 0.93503 0.64764 0.76605 0.0
H191 H 0.00593 0.73991 0.74581 0.0
loop_
_geom_bond_atom_site_label_1
_geom_bond_atom_site_label_2
_geom_bond_distance
_geom_bond_site_symmetry_2
_ccdc_geom_bond_type
Fe0 O2 1.918 1_554 S
Fe0 O5 1.997 . S
Fe0 O6 2.002 . S
Fe0 O11 1.976 1_564 S
Fe0 O14 1.996 1_554 S
Fe1 O2 1.918 1_554 S
Fe1 O9 1.997 1_565 S
Fe1 O12 1.996 1_564 S
Fe1 O16 1.976 1_454 S
Fe1 O19 2.002 1_455 S
O2 Fe0 1.918 1_556 S
O2 Fe1 1.918 1_556 S
O2 Fe3 1.918 . S
Fe3 O2 1.918 . S
Fe3 O4 2.002 1_556 S
Fe3 O13 1.976 . S
Fe3 O17 1.996 . S
Fe3 O20 1.997 1_556 S
O4 Fe3 2.002 1_554 S
O4 C21 1.295 . S
O5 Fe0 1.997 . S
O5 C21 1.235 . S
O6 Fe0 2.002 . S
O6 C7 1.295 1_565 S
C7 O6 1.295 1_545 S
C7 O9 1.235 . S
C8 O13 1.287 . S
C8 O14 1.255 . S
O9 Fe1 1.997 1_545 S
O9 C7 1.235 . S
C10 O16 1.287 . S
C10 O17 1.255 1_655 S
O11 Fe0 1.976 1_546 S
O11 C18 1.287 . S
O12 Fe1 1.996 1_546 S
O12 C18 1.255 . S
O13 Fe3 1.976 . S
O13 C8 1.287 . S
O14 Fe0 1.996 1_556 S
O14 C8 1.255 . S
C15 O19 1.295 . S
C15 O20 1.235 1_655 S
O16 Fe1 1.976 1_656 S
O16 C10 1.287 . S
O17 Fe3 1.996 . S
O17 C10 1.255 1_455 S
C18 O11 1.287 . S
C18 O12 1.255 . S
O19 Fe1 2.002 1_655 S
O19 C15 1.295 . S
O20 Fe3 1.997 1_554 S
O20 C15 1.235 1_455 S
C21 O4 1.295 . S
C21 O5 1.235 . S
Fe22 O24 1.918 . S
Fe22 O27 1.997 . S
Fe22 O28 2.002 . S
Fe22 O33 1.976 . S
Fe22 O36 1.996 . S
Fe23 O24 1.918 . S
Fe23 O31 1.997 . S
Fe23 O34 1.996 . S
Fe23 O38 1.976 . S
Fe23 O41 2.002 . S
O24 Fe22 1.918 . S
O24 Fe23 1.918 . S
O24 Fe25 1.918 . S
Fe25 O24 1.918 . S
Fe25 O26 2.002 . S
Fe25 O35 1.976 . S
Fe25 O39 1.996 . S
Fe25 O42 1.997 . S
O26 Fe25 2.002 . S
O26 C43 1.295 . S
O27 Fe22 1.997 . S
O27 C43 1.235 . S
O28 Fe22 2.002 . S
O28 C29 1.295 . S
C29 O28 1.295 . S
C29 O31 1.235 . S
C30 O35 1.287 . S
C30 O36 1.255 . S
O31 Fe23 1.997 . S
O31 C29 1.235 . S
C32 O38 1.287 . S
C32 O39 1.255 . S
O33 Fe22 1.976 . S
O33 C40 1.287 . S
O34 Fe23 1.996 . S
O34 C40 1.255 . S
O35 Fe25 1.976 . S
O35 C30 1.287 . S
O36 Fe22 1.996 . S
O36 C30 1.255 . S
C37 O41 1.295 . S
C37 O42 1.235 . S
O38 Fe23 1.976 . S
O38 C32 1.287 . S
O39 Fe25 1.996 . S
O39 C32 1.255 . S
C40 O33 1.287 . S
C40 O34 1.255 . S
O41 Fe23 2.002 . S
O41 C37 1.295 . S
O42 Fe25 1.997 . S
O42 C37 1.235 . S
C43 O26 1.295 . S
C43 O27 1.235 . S
Fe44 O46 1.918 . S
Fe44 O49 1.997 1_554 S
Fe44 O50 2.002 1_554 S
Fe44 O55 1.976 . S
Fe44 O58 1.996 . S
Fe45 O46 1.918 . S
Fe45 O53 1.997 1_654 S
Fe45 O56 1.996 1_655 S
Fe45 O60 1.976 1_545 S
Fe45 O63 2.002 1_544 S
O46 Fe44 1.918 . S
O46 Fe45 1.918 . S
O46 Fe47 1.918 . S
Fe47 O46 1.918 . S
Fe47 O48 2.002 1_554 S
Fe47 O57 1.976 . S
Fe47 O61 1.996 1_545 S
Fe47 O64 1.997 1_554 S
O48 Fe47 2.002 1_556 S
O48 C65 1.295 . S
O49 Fe44 1.997 1_556 S
O49 C65 1.235 . S
O50 Fe44 2.002 1_556 S
O50 C51 1.295 1_655 S
C51 O50 1.295 1_455 S
C51 O53 1.235 . S
C52 O57 1.287 . S
C52 O58 1.255 . S
O53 Fe45 1.997 1_456 S
O53 C51 1.235 . S
C54 O60 1.287 . S
C54 O61 1.255 . S
O55 Fe44 1.976 . S
O55 C62 1.287 1_655 S
O56 Fe45 1.996 1_455 S
O56 C62 1.255 . S
O57 Fe47 1.976 . S
O57 C52 1.287 . S
O58 Fe44 1.996 . S
O58 C52 1.255 . S
C59 O63 1.295 . S
C59 O64 1.235 1_565 S
O60 Fe45 1.976 1_565 S
O60 C54 1.287 . S
O61 Fe47 1.996 1_565 S
O61 C54 1.255 . S
C62 O55 1.287 1_455 S
C62 O56 1.255 . S
O63 Fe45 2.002 1_566 S
O63 C59 1.295 . S
O64 Fe47 1.997 1_556 S
O64 C59 1.235 1_545 S
C65 O48 1.295 . S
C65 O49 1.235 . S
Fe66 O68 1.918 . S
Fe66 O71 1.997 . S
Fe66 O72 2.002 . S
Fe66 O77 1.976 . S
Fe66 O80 1.996 . S
Fe67 O68 1.918 . S
Fe67 O75 1.997 . S
Fe67 O78 1.996 . S
Fe67 O82 1.976 . S
Fe67 O85 2.002 . S
O68 Fe66 1.918 . S
O68 Fe67 1.918 . S
O68 Fe69 1.918 . S
Fe69 O68 1.918 . S
Fe69 O70 2.002 . S
Fe69 O79 1.976 . S
Fe69 O83 1.996 . S
Fe69 O86 1.997 . S
O70 Fe69 2.002 . S
O70 C87 1.295 . S
O71 Fe66 1.997 . S
O71 C87 1.235 . S
O72 Fe66 2.002 . S
O72 C73 1.295 . S
C73 O72 1.295 . S
C73 O75 1.235 . S
C74 O79 1.287 . S
C74 O80 1.255 . S
O75 Fe67 1.997 . S
O75 C73 1.235 . S
C76 O82 1.287 . S
C76 O83 1.255 . S
O77 Fe66 1.976 . S
O77 C84 1.287 . S
O78 Fe67 1.996 . S
O78 C84 1.255 . S
O79 Fe69 1.976 . S
O79 C74 1.287 . S
O80 Fe66 1.996 . S
O80 C74 1.255 . S
C81 O85 1.295 . S
C81 O86 1.235 . S
O82 Fe67 1.976 . S
O82 C76 1.287 . S
O83 Fe69 1.996 . S
O83 C76 1.255 . S
C84 O77 1.287 . S
C84 O78 1.255 . S
O85 Fe67 2.002 . S
O85 C81 1.295 . S
O86 Fe69 1.997 . S
O86 C81 1.235 . S
C87 O70 1.295 . S
C87 O71 1.235 . S
C88 N89 1.317 . S
C88 N90 1.348 . S
C88 C91 1.485 . S
N89 C88 1.317 . S
N89 N93 1.370 . S
N90 C88 1.348 . S
N90 C92 1.346 . S
C91 C88 1.485 . S
C91 H95 0.960 . S
C91 H96 0.961 . S
C91 H97 0.960 . S
C92 N90 1.346 . S
C92 N93 1.307 . S
C92 C94 1.486 . S
N93 N89 1.370 . S
N93 C92 1.307 . S
C94 C92 1.486 . S
C94 H98 0.960 . S
C94 H99 0.960 . S
C94 H100 0.959 . S
H95 C91 0.960 . S
H96 C91 0.961 . S
H97 C91 0.960 . S
H98 C94 0.960 . S
H99 C94 0.960 . S
H100 C94 0.959 . S
C101 N102 1.317 . S
C101 N103 1.348 . S
C101 C104 1.485 . S
N102 C101 1.317 . S
N102 N106 1.370 . S
N103 C101 1.348 . S
N103 C105 1.346 . S
C104 C101 1.485 . S
C104 H108 0.960 . S
C104 H109 0.961 . S
C104 H110 0.960 . S
C105 N103 1.346 . S
C105 N106 1.307 . S
C105 C107 1.486 . S
N106 N102 1.370 . S
N106 C105 1.307 . S
C107 C105 1.486 . S
C107 H111 0.960 . S
C107 H112 0.960 . S
C107 H113 0.959 . S
H108 C104 0.960 . S
H109 C104 0.961 . S
H110 C104 0.960 . S
H111 C107 0.960 . S
H112 C107 0.960 . S
H113 C107 0.959 . S
C114 N115 1.317 . S
C114 N116 1.348 . S
C114 C117 1.485 . S
N115 C114 1.317 . S
N115 N119 1.370 . S
N116 C114 1.348 . S
N116 C118 1.346 . S
C117 C114 1.485 . S
C117 H121 0.960 . S
C117 H122 0.961 . S
C117 H123 0.960 . S
C118 N116 1.346 . S
C118 N119 1.307 . S
C118 C120 1.486 . S
N119 N115 1.370 . S
N119 C118 1.307 . S
C120 C118 1.486 . S
C120 H124 0.960 . S
C120 H125 0.960 . S
C120 H126 0.959 . S
H121 C117 0.960 . S
H122 C117 0.961 . S
H123 C117 0.960 . S
H124 C120 0.960 . S
H125 C120 0.960 . S
H126 C120 0.959 . S
C127 N128 1.317 . S
C127 N129 1.348 . S
C127 C130 1.485 . S
N128 C127 1.317 . S
N128 N132 1.370 . S
N129 C127 1.348 . S
N129 C131 1.346 . S
C130 C127 1.485 . S
C130 H134 0.960 . S
C130 H135 0.961 . S
C130 H136 0.960 . S
C131 N129 1.346 . S
C131 N132 1.307 . S
C131 C133 1.486 . S
N132 N128 1.370 . S
N132 C131 1.307 . S
C133 C131 1.486 . S
C133 H137 0.960 . S
C133 H138 0.960 . S
C133 H139 0.959 . S
H134 C130 0.960 . S
H135 C130 0.961 . S
H136 C130 0.960 . S
H137 C133 0.960 . S
H138 C133 0.960 . S
H139 C133 0.959 . S
C140 N141 1.317 . S
C140 N142 1.348 . S
C140 C143 1.485 . S
N141 C140 1.317 . S
N141 N145 1.370 . S
N142 C140 1.348 . S
N142 C144 1.346 . S
C143 C140 1.485 . S
C143 H147 0.960 . S
C143 H148 0.961 . S
C143 H149 0.960 . S
C144 N142 1.346 . S
C144 N145 1.307 . S
C144 C146 1.486 . S
N145 N141 1.370 . S
N145 C144 1.307 . S
C146 C144 1.486 . S
C146 H150 0.960 . S
C146 H151 0.960 . S
C146 H152 0.959 . S
H147 C143 0.960 . S
H148 C143 0.961 . S
H149 C143 0.960 . S
H150 C146 0.960 . S
H151 C146 0.960 . S
H152 C146 0.959 . S
C153 N154 1.317 . S
C153 N155 1.348 . S
C153 C156 1.485 . S
N154 C153 1.317 . S
N154 N158 1.370 . S
N155 C153 1.348 . S
N155 C157 1.346 . S
C156 C153 1.485 . S
C156 H160 0.960 . S
C156 H161 0.961 . S
C156 H162 0.960 . S
C157 N155 1.346 . S
C157 N158 1.307 . S
C157 C159 1.486 . S
N158 N154 1.370 . S
N158 C157 1.307 . S
C159 C157 1.486 . S
C159 H163 0.960 . S
C159 H164 0.960 . S
C159 H165 0.959 . S
H160 C156 0.960 . S
H161 C156 0.961 . S
H162 C156 0.960 . S
H163 C159 0.960 . S
H164 C159 0.960 . S
H165 C159 0.959 . S
C166 N167 1.317 . S
C166 N168 1.348 . S
C166 C169 1.485 . S
N167 C166 1.317 . S
N167 N171 1.370 . S
N168 C166 1.348 . S
N168 C170 1.346 . S
C169 C166 1.485 . S
C169 H173 0.960 . S
C169 H174 0.961 . S
C169 H175 0.960 . S
C170 N168 1.346 . S
C170 N171 1.307 . S
C170 C172 1.486 . S
N171 N167 1.370 . S
N171 C170 1.307 . S
C172 C170 1.486 . S
C172 H176 0.960 . S
C172 H177 0.960 . S
C172 H178 0.959 . S
H173 C169 0.960 . S
H174 C169 0.961 . S
H175 C169 0.960 . S
H176 C172 0.960 . S
H177 C172 0.960 . S
H178 C172 0.959 . S
C179 N180 1.317 . S
C179 N181 1.348 . S
C179 C182 1.485 . S
N180 C179 1.317 . S
N180 N184 1.370 . S
N181 C179 1.348 . S
N181 C183 1.346 . S
C182 C179 1.485 . S
C182 H186 0.960 . S
C182 H187 0.961 . S
C182 H188 0.960 1_565 S
C183 N181 1.346 . S
C183 N184 1.307 . S
C183 C185 1.486 . S
N184 N180 1.370 . S
N184 C183 1.307 . S
C185 C183 1.486 . S
C185 H189 0.960 . S
C185 H190 0.960 . S
C185 H191 0.959 . S
H186 C182 0.960 . S
H187 C182 0.961 . S
H188 C182 0.960 1_545 S
H189 C185 0.960 . S
H190 C185 0.960 . S
H191 C185 0.959 . S
C7 N93 1.390 . S
C37 N106 1.378 . S
C54 N115 1.391 . S
N132 C87 1.459 . S
N145 C30 1.391 . S
C51 N154 1.413 . S
C84 N167 1.334 . S
C10 N184 1.432 . S
C59 N180 1.404 . S
N141 C74 1.345 . S
N158 C18 1.412 . S
C32 N171 1.403 . S
N102 C73 1.405 . S
C15 N119 1.392 . S
N128 C43 1.413 . S
N89 C62 1.436 . S
N168 C21 1.388 . S
N181 C29 1.423 . S
C52 N142 1.469 . S
N155 C81 1.524 . S
N116 C40 1.503 . S
C65 N129 1.418 . S
N90 C76 1.407 . S
N103 C8 1.455 . S
