# Generated by pormake.
# Topology zzz, (3,6)-cn, num edge types: 1
# Building blocks:
#     Node 0, Type 0, BuildingBlock: QEWDON_clean_linker_0, # of connection points: 3
#     Node 1, Type 0, BuildingBlock: QEWDON_clean_linker_0, # of connection points: 3
#     Node 2, Type 0, BuildingBlock: QEWDON_clean_linker_0, # of connection points: 3
#     Node 3, Type 0, BuildingBlock: QEWDON_clean_linker_0, # of connection points: 3
#     Node 4, Type 0, BuildingBlock: QEWDON_clean_linker_0, # of connection points: 3
#     Node 5, Type 0, BuildingBlock: QEWDON_clean_linker_0, # of connection points: 3
#     Node 6, Type 0, BuildingBlock: QEWDON_clean_linker_0, # of connection points: 3
#     Node 7, Type 0, BuildingBlock: QEWDON_clean_linker_0, # of connection points: 3
#     Node 8, Type 1, BuildingBlock: CIFDUS_clean_sbu_1, # of connection points: 6
#     Node 9, Type 1, BuildingBlock: CIFDUS_clean_sbu_1, # of connection points: 6
#     Node 10, Type 1, BuildingBlock: CIFDUS_clean_sbu_1, # of connection points: 6
#     Node 11, Type 1, BuildingBlock: CIFDUS_clean_sbu_1, # of connection points: 6
#     Edge 12, Type (0, 1), None
#     Edge 13, Type (0, 1), None
#     Edge 14, Type (0, 1), None
#     Edge 15, Type (0, 1), None
#     Edge 16, Type (0, 1), None
#     Edge 17, Type (0, 1), None
#     Edge 18, Type (0, 1), None
#     Edge 19, Type (0, 1), None
#     Edge 20, Type (0, 1), None
#     Edge 21, Type (0, 1), None
#     Edge 22, Type (0, 1), None
#     Edge 23, Type (0, 1), None
#     Edge 24, Type (0, 1), None
#     Edge 25, Type (0, 1), None
#     Edge 26, Type (0, 1), None
#     Edge 27, Type (0, 1), None
#     Edge 28, Type (0, 1), None
#     Edge 29, Type (0, 1), None
#     Edge 30, Type (0, 1), None
#     Edge 31, Type (0, 1), None
#     Edge 32, Type (0, 1), None
#     Edge 33, Type (0, 1), None
#     Edge 34, Type (0, 1), None
#     Edge 35, Type (0, 1), None
# Relax obj value: 0.067
# Max RMSD: 0.163
# Mean RMSD: 0.064
data_MOF--net-zzz--node1-CIFDUS_clean_sbu_1--node2-QEWDON_clean_linker_0--edge1-none
_symmetry_space_group_name_H-M    P1
_symmetry_Int_Tables_number       1
_symmetry_cell_setting            triclinic
loop_
_symmetry_equiv_pos_as_xyz
'x, y, z'
_cell_length_a     23.507961
_cell_length_b     23.50821
_cell_length_c     8.6021778
_cell_angle_alpha  89.969846
_cell_angle_beta   89.994033
_cell_angle_gamma 89.998092
loop_
_atom_site_label
_atom_site_type_symbol
_atom_site_fract_x
_atom_site_fract_y
_atom_site_fract_z
_atom_type_partial_charge
H0 H 0.86308 0.56374 0.87167 0.0
C1 C 0.87748 0.56683 -0.00863 0.0
C2 C 0.9332 0.55207 0.02566 0.0
C3 C 0.83982 0.58407 0.10788 0.0
H4 H 0.99771 0.54534 0.19871 0.0
C5 C 0.95422 0.55831 0.1749 0.0
C6 C 0.9177 0.57387 0.29654 0.0
C7 C 0.85973 0.58667 0.26356 0.0
C8 C 0.78038 0.59608 0.05678 0.0
H9 H 0.83046 0.59618 0.35724 0.0
C10 C 0.7535 0.55667 -0.04278 0.0
C11 C 0.70808 0.57254 0.85912 0.0
C12 C 0.75744 0.6509 0.06913 0.0
H13 H 0.77785 0.68255 0.14163 0.0
C14 C 0.71105 0.66675 -0.02399 0.0
H15 H 0.77121 0.5142 -0.05154 0.0
C16 C 0.68765 0.62849 0.86821 0.0
H17 H 0.65531 0.64338 0.78886 0.0
H18 H 0.69514 0.70991 -0.0185 0.0
H19 H 1.0424 0.86305 0.87184 0.0
C20 C 1.03933 0.87745 -0.00847 0.0
C21 C 0.05408 0.93317 0.02572 0.0
C22 C 1.02212 0.83978 0.10814 0.0
H23 H 0.06083 0.99768 0.19866 0.0
C24 C 0.04785 0.95419 0.17495 0.0
C25 C 1.03234 0.91767 0.29668 0.0
C26 C 1.01955 0.85969 0.26381 0.0
C27 C 1.01013 0.78033 0.05714 0.0
H28 H 1.01007 0.83042 0.35755 0.0
C29 C 0.04951 0.75347 -0.04262 0.0
C30 C 1.03362 0.70803 0.85946 0.0
C31 C 0.95534 0.75733 0.06988 0.0
H32 H 0.92371 0.77772 0.14254 0.0
C33 C 0.93948 0.71092 -0.02306 0.0
H34 H 0.09196 0.77123 -0.05167 0.0
C35 C 0.97771 0.68754 0.86894 0.0
H36 H 0.9628 0.65518 0.78976 0.0
H37 H 0.89635 0.69497 -0.01726 0.0
H38 H 0.74319 1.04208 0.87151 0.0
C39 C 0.72877 1.03902 -0.00878 0.0
C40 C 0.67305 0.05381 0.02542 0.0
C41 C 0.76642 1.02185 0.10784 0.0
H42 H 0.60853 0.06064 0.19844 0.0
C43 C 0.65202 0.04763 0.1747 0.0
C44 C 0.68853 1.03214 0.29642 0.0
C45 C 0.7465 1.01933 0.26354 0.0
C46 C 0.82588 1.00989 0.05686 0.0
H47 H 0.77577 1.00987 0.35728 0.0
C48 C 0.85275 0.04934 -0.04274 0.0
C49 C 0.8982 1.03352 0.85924 0.0
C50 C 0.84887 0.95509 0.06933 0.0
H51 H 0.82847 0.92341 0.14186 0.0
C52 C 0.89529 0.93929 -0.0237 0.0
H53 H 0.835 0.09179 -0.05161 0.0
C54 C 0.91868 0.97759 0.86845 0.0
H55 H 0.95105 0.96274 0.78917 0.0
H56 H 0.91124 0.89615 -0.01811 0.0
H57 H 0.56404 0.74316 0.87134 0.0
C58 C 0.56711 0.72873 -0.00895 0.0
C59 C 0.55231 0.67302 0.02536 0.0
C60 C 0.58433 0.76637 0.10758 0.0
H61 H 0.54551 0.6085 0.19847 0.0
C62 C 0.55852 0.65199 0.17464 0.0
C63 C 0.57405 0.68849 0.29627 0.0
C64 C 0.58688 0.74646 0.26328 0.0
C65 C 0.59631 0.82582 0.0565 0.0
H66 H 0.59637 0.77572 0.35695 0.0
C67 C 0.55683 0.85272 -0.04291 0.0
C68 C 0.57264 0.89814 0.8589 0.0
C69 C 0.65114 0.84875 0.06861 0.0
H70 H 0.68284 0.82831 0.14098 0.0
C71 C 0.66694 0.89515 -0.0246 0.0
H72 H 0.51436 0.83501 -0.05151 0.0
C73 C 0.6286 0.91857 0.86774 0.0
H74 H 0.64344 0.95091 0.78831 0.0
H75 H 0.7101 0.91104 -0.01929 0.0
H76 H 0.24478 0.54421 0.40891 0.0
C77 C 0.23032 0.54132 0.28925 0.0
C78 C 0.17471 0.55661 0.25519 0.0
C79 C 0.26776 0.52369 0.17254 0.0
H80 H 0.11017 0.56389 0.08236 0.0
C81 C 0.15357 0.55056 0.10602 0.0
C82 C 0.18986 0.53465 -0.01573 0.0
C83 C 0.24771 0.52128 0.01696 0.0
C84 C 0.32714 0.51104 0.22314 0.0
H85 H 0.27683 0.51148 -0.07686 0.0
C86 C 0.35436 0.5498 0.32385 0.0
C87 C 0.40005 0.53332 0.42024 0.0
C88 C 0.35001 0.45629 0.20778 0.0
H89 H 0.32941 0.42512 0.13411 0.0
C90 C 0.39668 0.43984 0.29911 0.0
H91 H 0.3368 0.59228 0.33457 0.0
C92 C 0.42044 0.47744 0.40813 0.0
H93 H 0.45302 0.46207 0.48597 0.0
H94 H 0.41259 0.39674 0.29117 0.0
H95 H 0.06208 0.24477 0.40867 0.0
C96 C 0.06495 0.23032 0.289 0.0
C97 C 0.04967 0.17471 0.25503 0.0
C98 C 0.08254 0.26777 0.17222 0.0
H99 H 1.04237 0.11017 0.0823 0.0
C100 C 0.05569 0.15357 0.10587 0.0
C101 C 0.07157 0.18987 -0.01596 0.0
C102 C 0.08492 0.24773 0.01664 0.0
C103 C 0.09518 0.32716 0.22276 0.0
H104 H 0.09469 0.27685 -0.07724 0.0
C105 C 0.05645 0.35434 0.32368 0.0
C106 C 0.07295 0.40002 0.42 0.0
C107 C 0.14991 0.35006 0.20709 0.0
H108 H 0.18105 0.3295 0.13324 0.0
C109 C 0.16636 0.39674 0.29833 0.0
H110 H 1.01399 0.33676 0.33463 0.0
C111 C 0.12881 0.42045 0.40756 0.0
H112 H 0.1442 0.45303 0.48531 0.0
H113 H 0.20945 0.41267 0.29014 0.0
H114 H 0.36144 0.06229 0.4088 0.0
C115 C 0.37591 0.06514 0.28912 0.0
C116 C 0.43151 0.04981 0.25512 0.0
C117 C 0.33847 0.08271 0.17232 0.0
H118 H 0.49605 1.04241 0.0823 0.0
C119 C 0.45266 0.05578 0.1059 0.0
C120 C 0.41637 0.07165 -0.01592 0.0
C121 C 0.35851 0.08503 0.01671 0.0
C122 C 0.27908 0.09532 0.22285 0.0
H123 H 0.3294 0.09478 -0.07716 0.0
C124 C 0.25188 0.05654 0.32367 0.0
C125 C 0.20619 0.073 0.42007 0.0
C126 C 0.25618 0.15006 0.20736 0.0
H127 H 0.27676 0.18124 0.13361 0.0
C128 C 0.2095 0.16648 0.29868 0.0
H129 H 0.26946 1.01408 0.3345 0.0
C130 C 0.18577 0.12887 0.40782 0.0
H131 H 0.15318 0.14422 0.48565 0.0
H132 H 0.19357 0.20957 0.29063 0.0
H133 H 0.54402 0.36143 0.40904 0.0
C134 C 0.54116 0.37591 0.28936 0.0
C135 C 0.55649 0.43151 0.25527 0.0
C136 C 0.52354 0.33849 0.17264 0.0
H137 H 0.56387 0.49605 0.08237 0.0
C138 C 0.5505 0.45266 0.10606 0.0
C139 C 0.53459 0.41638 -0.01569 0.0
C140 C 0.52119 0.35854 0.01704 0.0
C141 C 0.51091 0.2791 0.22324 0.0
H142 H 0.5114 0.32943 -0.07678 0.0
C143 C 0.54972 0.25186 0.32384 0.0
C144 C 0.53328 0.20617 0.42032 0.0
C145 C 0.45614 0.25625 0.20803 0.0
H146 H 0.42494 0.27687 0.13444 0.0
C147 C 0.43974 0.20957 0.29944 0.0
H148 H 0.5922 0.26941 0.33446 0.0
C149 C 0.47739 0.1858 0.40837 0.0
H150 H 0.46205 0.1532 0.48628 0.0
H151 H 0.39663 0.19368 0.29162 0.0
O152 O 0.07758 0.11939 0.78936 0.0
Mn153 Mn 0.05192 0.05384 0.64012 0.0
O154 O 1.01076 0.18813 0.77221 0.0
Mn155 Mn 0.96111 0.14948 0.64002 0.0
O156 O 1.02625 0.98829 0.49094 0.0
O157 O 0.13315 1.03109 0.59575 0.0
Mn158 Mn 0.14244 0.95819 0.64124 0.0
O159 O 0.04625 1.0009 0.83017 0.0
O160 O 0.0928 0.91934 0.5094 0.0
O161 O 0.05747 0.10684 0.45024 0.0
O162 O 0.97705 0.1575 0.4316 0.0
O163 O 0.21046 0.98367 0.55838 0.0
O164 O 0.12676 0.95056 0.84978 0.0
C165 C 0.9205 0.07622 0.74602 0.0
C166 C 0.05698 0.16829 0.82845 0.0
C167 C 0.04676 0.93929 0.45238 0.0
C168 C 0.18351 1.0309 0.53442 0.0
C169 C 0.07914 0.96707 0.90312 0.0
C170 C 1.02463 0.14092 0.37795 0.0
O171 O 0.97073 0.07652 0.68411 0.0
O172 O 0.89328 0.12338 0.72328 0.0
O173 O 0.6053 0.04609 0.83 0.0
Mn174 Mn 0.55238 0.05186 0.64002 0.0
O175 O 0.65576 0.12653 0.84948 0.0
Mn176 Mn 0.64813 0.14229 0.64097 0.0
O177 O 0.4994 0.0575 0.4502 0.0
O178 O 0.52961 0.9707 0.68393 0.0
Mn179 Mn 0.45664 0.96114 0.64008 0.0
O180 O 0.48685 0.07757 0.78931 0.0
O181 O 0.44863 0.97715 0.4317 0.0
O182 O 0.61791 1.02615 0.49078 0.0
O183 O 0.6869 0.09264 0.509 0.0
O184 O 0.48273 0.89328 0.72331 0.0
O185 O 0.41806 1.0108 0.77239 0.0
C186 C 0.57541 0.18344 0.53442 0.0
C187 C 0.63919 0.07893 0.90285 0.0
C188 C 0.46526 1.02471 0.37801 0.0
C189 C 0.52991 0.92047 0.74587 0.0
C190 C 0.43794 0.05701 0.82851 0.0
C191 C 0.66692 0.04661 0.45211 0.0
O192 O 0.57521 0.13307 0.59572 0.0
O193 O 0.62267 0.21035 0.55821 0.0
O194 O 0.56008 0.60529 0.82996 0.0
Mn195 Mn 0.55436 0.55237 0.64006 0.0
O196 O 0.47961 0.6557 0.84951 0.0
Mn197 Mn 0.46391 0.64808 0.641 0.0
O198 O 0.54876 0.49938 0.45032 0.0
O199 O 0.63553 0.52962 0.68405 0.0
Mn200 Mn 0.64509 0.45666 0.64014 0.0
O201 O 0.52864 0.48685 0.78946 0.0
O202 O 0.62914 0.44865 0.43176 0.0
O203 O 0.58008 0.61789 0.49072 0.0
O204 O 0.51358 0.68688 0.50901 0.0
O205 O 0.71294 0.4827 0.72332 0.0
O206 O 0.59541 0.41806 0.77248 0.0
C207 C 0.42277 0.57541 0.53442 0.0
C208 C 0.52722 0.63915 0.90285 0.0
C209 C 0.58157 0.46526 0.3781 0.0
C210 C 0.68576 0.52987 0.74597 0.0
C211 C 0.54921 0.43794 0.82868 0.0
C212 C 0.55961 0.66689 0.45203 0.0
O213 O 0.47314 0.57518 0.5957 0.0
O214 O 0.39586 0.62266 0.55828 0.0
O215 O 0.11939 0.52862 0.78951 0.0
Mn216 Mn 0.05385 0.5543 0.64016 0.0
O217 O 0.18814 0.59543 0.7723 0.0
Mn218 Mn 0.14947 0.6451 0.64007 0.0
O219 O 0.9883 0.57998 0.49088 0.0
O220 O 1.03112 0.47306 0.59572 0.0
Mn221 Mn 0.95823 0.46377 0.64128 0.0
O222 O 1.00091 0.55994 0.83014 0.0
O223 O 0.91936 0.51343 0.50942 0.0
O224 O 0.10685 0.54878 0.45036 0.0
O225 O 0.15747 0.62922 0.43165 0.0
O226 O 0.98367 0.39576 0.55847 0.0
O227 O 0.95062 0.4794 0.84983 0.0
C228 C 0.07626 0.68573 0.74612 0.0
C229 C 0.16829 0.54922 0.82861 0.0
C230 C 0.93931 0.55947 0.45232 0.0
C231 C 1.0309 0.4227 0.53443 0.0
C232 C 0.96712 0.52702 0.90313 0.0
C233 C 0.14092 0.58164 0.37803 0.0
O234 O 0.07652 0.6355 0.68423 0.0
O235 O 0.12342 0.71293 0.72327 0.0
loop_
_geom_bond_atom_site_label_1
_geom_bond_atom_site_label_2
_geom_bond_distance
_geom_bond_site_symmetry_2
_ccdc_geom_bond_type
H0 C1 0.949 . S
C1 H0 0.949 . S
C1 C2 1.395 . S
C1 C3 1.391 1_556 S
C2 C1 1.395 . S
C2 C5 1.390 1_556 S
C3 C1 1.391 1_554 S
C3 C7 1.387 . S
C3 C8 1.491 . S
H4 C5 0.950 . S
C5 C2 1.390 1_554 S
C5 H4 0.950 . S
C5 C6 1.378 . S
C6 C5 1.378 . S
C6 C7 1.409 . S
C7 C3 1.387 . S
C7 C6 1.409 . S
C7 H9 0.951 . S
C8 C3 1.491 . S
C8 C10 1.382 1_554 S
C8 C12 1.404 . S
H9 C7 0.951 . S
C10 C8 1.382 1_556 S
C10 C11 1.390 . S
C10 H15 0.949 . S
C11 C10 1.390 . S
C11 C16 1.399 1_556 S
C12 C8 1.404 . S
C12 H13 0.950 . S
C12 C14 1.375 . S
H13 C12 0.950 . S
C14 C12 1.375 . S
C14 C16 1.382 . S
C14 H18 0.950 . S
H15 C10 0.949 . S
C16 C11 1.399 1_554 S
C16 C14 1.382 . S
C16 H17 0.952 . S
H17 C16 0.952 . S
H18 C14 0.950 . S
H19 C20 0.949 . S
C20 H19 0.949 . S
C20 C21 1.395 . S
C20 C22 1.391 1_556 S
C21 C20 1.395 . S
C21 C24 1.390 1_556 S
C22 C20 1.391 1_554 S
C22 C26 1.387 . S
C22 C27 1.491 . S
H23 C24 0.950 . S
C24 C21 1.390 1_554 S
C24 H23 0.950 . S
C24 C25 1.378 . S
C25 C24 1.378 . S
C25 C26 1.409 . S
C26 C22 1.387 . S
C26 C25 1.409 . S
C26 H28 0.951 . S
C27 C22 1.491 . S
C27 C29 1.382 1_554 S
C27 C31 1.404 . S
H28 C26 0.951 . S
C29 C27 1.382 1_556 S
C29 C30 1.390 . S
C29 H34 0.949 . S
C30 C29 1.390 . S
C30 C35 1.399 1_556 S
C31 C27 1.404 . S
C31 H32 0.950 . S
C31 C33 1.375 . S
H32 C31 0.950 . S
C33 C31 1.375 . S
C33 C35 1.382 . S
C33 H37 0.950 . S
H34 C29 0.949 . S
C35 C30 1.399 1_554 S
C35 C33 1.382 . S
C35 H36 0.952 . S
H36 C35 0.952 . S
H37 C33 0.950 . S
H38 C39 0.949 . S
C39 H38 0.949 . S
C39 C40 1.395 . S
C39 C41 1.391 1_556 S
C40 C39 1.395 . S
C40 C43 1.390 1_556 S
C41 C39 1.391 1_554 S
C41 C45 1.387 . S
C41 C46 1.491 . S
H42 C43 0.950 . S
C43 C40 1.390 1_554 S
C43 H42 0.950 . S
C43 C44 1.378 . S
C44 C43 1.378 . S
C44 C45 1.409 . S
C45 C41 1.387 . S
C45 C44 1.409 . S
C45 H47 0.951 . S
C46 C41 1.491 . S
C46 C48 1.382 1_554 S
C46 C50 1.404 . S
H47 C45 0.951 . S
C48 C46 1.382 1_556 S
C48 C49 1.390 . S
C48 H53 0.949 . S
C49 C48 1.390 . S
C49 C54 1.399 1_556 S
C50 C46 1.404 . S
C50 H51 0.950 . S
C50 C52 1.375 . S
H51 C50 0.950 . S
C52 C50 1.375 . S
C52 C54 1.382 . S
C52 H56 0.950 . S
H53 C48 0.949 . S
C54 C49 1.399 1_554 S
C54 C52 1.382 . S
C54 H55 0.952 . S
H55 C54 0.952 . S
H56 C52 0.950 . S
H57 C58 0.949 . S
C58 H57 0.949 . S
C58 C59 1.395 . S
C58 C60 1.391 1_556 S
C59 C58 1.395 . S
C59 C62 1.390 1_556 S
C60 C58 1.391 1_554 S
C60 C64 1.387 . S
C60 C65 1.491 . S
H61 C62 0.950 . S
C62 C59 1.390 1_554 S
C62 H61 0.950 . S
C62 C63 1.378 . S
C63 C62 1.378 . S
C63 C64 1.409 . S
C64 C60 1.387 . S
C64 C63 1.409 . S
C64 H66 0.951 . S
C65 C60 1.491 . S
C65 C67 1.382 1_554 S
C65 C69 1.404 . S
H66 C64 0.951 . S
C67 C65 1.382 1_556 S
C67 C68 1.390 . S
C67 H72 0.949 . S
C68 C67 1.390 . S
C68 C73 1.399 1_556 S
C69 C65 1.404 . S
C69 H70 0.950 . S
C69 C71 1.375 . S
H70 C69 0.950 . S
C71 C69 1.375 . S
C71 C73 1.382 . S
C71 H75 0.950 . S
H72 C67 0.949 . S
C73 C68 1.399 1_554 S
C73 C71 1.382 . S
C73 H74 0.952 . S
H74 C73 0.952 . S
H75 C71 0.950 . S
H76 C77 0.949 . S
C77 H76 0.949 . S
C77 C78 1.395 . S
C77 C79 1.391 . S
C78 C77 1.395 . S
C78 C81 1.390 . S
C79 C77 1.391 . S
C79 C83 1.387 . S
C79 C84 1.491 . S
H80 C81 0.950 . S
C81 C78 1.390 . S
C81 H80 0.950 . S
C81 C82 1.378 . S
C82 C81 1.378 . S
C82 C83 1.409 . S
C83 C79 1.387 . S
C83 C82 1.409 . S
C83 H85 0.951 . S
C84 C79 1.491 . S
C84 C86 1.382 . S
C84 C88 1.404 . S
H85 C83 0.951 . S
C86 C84 1.382 . S
C86 C87 1.390 . S
C86 H91 0.949 . S
C87 C86 1.390 . S
C87 C92 1.399 . S
C88 C84 1.404 . S
C88 H89 0.950 . S
C88 C90 1.375 . S
H89 C88 0.950 . S
C90 C88 1.375 . S
C90 C92 1.382 . S
C90 H94 0.950 . S
H91 C86 0.949 . S
C92 C87 1.399 . S
C92 C90 1.382 . S
C92 H93 0.952 . S
H93 C92 0.952 . S
H94 C90 0.950 . S
H95 C96 0.949 . S
C96 H95 0.949 . S
C96 C97 1.395 . S
C96 C98 1.391 . S
C97 C96 1.395 . S
C97 C100 1.390 . S
C98 C96 1.391 . S
C98 C102 1.387 . S
C98 C103 1.491 . S
H99 C100 0.950 . S
C100 C97 1.390 . S
C100 H99 0.950 . S
C100 C101 1.378 . S
C101 C100 1.378 . S
C101 C102 1.409 . S
C102 C98 1.387 . S
C102 C101 1.409 . S
C102 H104 0.951 . S
C103 C98 1.491 . S
C103 C105 1.382 . S
C103 C107 1.404 1_455 S
H104 C102 0.951 . S
C105 C103 1.382 . S
C105 C106 1.390 . S
C105 H110 0.949 . S
C106 C105 1.390 . S
C106 C111 1.399 1_455 S
C107 C103 1.404 1_655 S
C107 H108 0.950 . S
C107 C109 1.375 . S
H108 C107 0.950 . S
C109 C107 1.375 . S
C109 C111 1.382 . S
C109 H113 0.950 . S
H110 C105 0.949 . S
C111 C106 1.399 1_655 S
C111 C109 1.382 . S
C111 H112 0.952 . S
H112 C111 0.952 . S
H113 C109 0.950 . S
H114 C115 0.949 . S
C115 H114 0.949 . S
C115 C116 1.395 . S
C115 C117 1.391 . S
C116 C115 1.395 . S
C116 C119 1.390 . S
C117 C115 1.391 . S
C117 C121 1.387 . S
C117 C122 1.491 . S
H118 C119 0.950 . S
C119 C116 1.390 . S
C119 H118 0.950 . S
C119 C120 1.378 . S
C120 C119 1.378 . S
C120 C121 1.409 . S
C121 C117 1.387 . S
C121 C120 1.409 . S
C121 H123 0.951 . S
C122 C117 1.491 . S
C122 C124 1.382 . S
C122 C126 1.404 1_545 S
H123 C121 0.951 . S
C124 C122 1.382 . S
C124 C125 1.390 . S
C124 H129 0.949 . S
C125 C124 1.390 . S
C125 C130 1.399 1_545 S
C126 C122 1.404 1_565 S
C126 H127 0.950 . S
C126 C128 1.375 . S
H127 C126 0.950 . S
C128 C126 1.375 . S
C128 C130 1.382 . S
C128 H132 0.950 . S
H129 C124 0.949 . S
C130 C125 1.399 1_565 S
C130 C128 1.382 . S
C130 H131 0.952 . S
H131 C130 0.952 . S
H132 C128 0.950 . S
H133 C134 0.949 . S
C134 H133 0.949 . S
C134 C135 1.395 . S
C134 C136 1.391 . S
C135 C134 1.395 . S
C135 C138 1.390 . S
C136 C134 1.391 . S
C136 C140 1.387 . S
C136 C141 1.491 . S
H137 C138 0.950 . S
C138 C135 1.390 . S
C138 H137 0.950 . S
C138 C139 1.378 . S
C139 C138 1.378 . S
C139 C140 1.409 . S
C140 C136 1.387 . S
C140 C139 1.409 . S
C140 H142 0.951 . S
C141 C136 1.491 . S
C141 C143 1.382 . S
C141 C145 1.404 . S
H142 C140 0.951 . S
C143 C141 1.382 . S
C143 C144 1.390 . S
C143 H148 0.949 . S
C144 C143 1.390 . S
C144 C149 1.399 . S
C145 C141 1.404 . S
C145 H146 0.950 . S
C145 C147 1.375 . S
H146 C145 0.950 . S
C147 C145 1.375 . S
C147 C149 1.382 . S
C147 H151 0.950 . S
H148 C143 0.949 . S
C149 C144 1.399 . S
C149 C147 1.382 . S
C149 H150 0.952 . S
H150 C149 0.952 . S
H151 C147 0.950 . S
O152 Mn153 2.163 . S
O152 C166 1.244 1_556 S
Mn153 O152 2.163 . S
Mn153 O156 2.160 1_445 S
Mn153 O157 2.221 1_545 S
Mn153 O159 2.163 1_445 S
Mn153 O161 2.160 . S
Mn153 O171 2.221 1_455 S
O154 Mn155 2.087 1_554 S
O154 C166 1.256 1_655 S
Mn155 O154 2.087 1_556 S
Mn155 O162 2.089 . S
Mn155 O171 2.290 . S
Mn155 O172 2.251 . S
O156 Mn153 2.160 1_665 S
O156 C167 1.239 . S
O157 Mn153 2.221 1_565 S
O157 Mn158 2.290 . S
O157 C168 1.278 . S
Mn158 O157 2.290 . S
Mn158 O160 2.089 . S
Mn158 O163 2.251 . S
Mn158 O164 2.087 . S
O159 Mn153 2.163 1_665 S
O159 C169 1.244 1_655 S
O160 Mn158 2.089 . S
O160 C167 1.256 1_455 S
O161 Mn153 2.160 . S
O161 C170 1.235 1_455 S
O162 Mn155 2.089 . S
O162 C170 1.264 . S
O163 Mn158 2.251 . S
O163 C168 1.241 . S
O164 Mn158 2.087 . S
O164 C169 1.256 . S
C165 O171 1.278 . S
C165 O172 1.241 . S
C166 O152 1.244 1_554 S
C166 O154 1.256 1_455 S
C167 O156 1.239 . S
C167 O160 1.256 1_655 S
C168 O157 1.278 . S
C168 O163 1.241 . S
C169 O159 1.244 1_455 S
C169 O164 1.256 . S
C170 O161 1.235 1_655 S
C170 O162 1.264 . S
O171 Mn153 2.221 1_655 S
O171 Mn155 2.290 . S
O171 C165 1.278 . S
O172 Mn155 2.251 . S
O172 C165 1.241 . S
O173 Mn174 2.163 1_565 S
O173 C187 1.244 1_565 S
Mn174 O173 2.163 1_545 S
Mn174 O177 2.160 . S
Mn174 O178 2.221 1_545 S
Mn174 O180 2.163 . S
Mn174 O182 2.160 1_545 S
Mn174 O192 2.221 . S
O175 Mn176 2.087 . S
O175 C187 1.256 . S
Mn176 O175 2.087 . S
Mn176 O183 2.089 . S
Mn176 O192 2.290 . S
Mn176 O193 2.251 . S
O177 Mn174 2.160 . S
O177 C188 1.234 1_545 S
O178 Mn174 2.221 1_565 S
O178 Mn179 2.290 . S
O178 C189 1.278 . S
Mn179 O178 2.290 . S
Mn179 O181 2.089 . S
Mn179 O184 2.251 . S
Mn179 O185 2.087 1_556 S
O180 Mn174 2.163 . S
O180 C190 1.244 1_556 S
O181 Mn179 2.089 . S
O181 C188 1.267 . S
O182 Mn174 2.160 1_565 S
O182 C191 1.239 . S
O183 Mn176 2.089 . S
O183 C191 1.256 1_545 S
O184 Mn179 2.251 . S
O184 C189 1.241 . S
O185 Mn179 2.087 1_554 S
O185 C190 1.256 1_565 S
C186 O192 1.278 . S
C186 O193 1.241 . S
C187 O173 1.244 1_545 S
C187 O175 1.256 . S
C188 O177 1.234 1_565 S
C188 O181 1.267 . S
C189 O178 1.278 . S
C189 O184 1.241 . S
C190 O180 1.244 1_554 S
C190 O185 1.256 1_545 S
C191 O182 1.239 . S
C191 O183 1.256 1_565 S
O192 Mn174 2.221 . S
O192 Mn176 2.290 . S
O192 C186 1.278 . S
O193 Mn176 2.251 . S
O193 C186 1.241 . S
O194 Mn195 2.163 . S
O194 C208 1.244 . S
Mn195 O194 2.163 . S
Mn195 O198 2.160 . S
Mn195 O199 2.221 . S
Mn195 O201 2.163 . S
Mn195 O203 2.160 . S
Mn195 O213 2.221 . S
O196 Mn197 2.087 . S
O196 C208 1.256 . S
Mn197 O196 2.087 . S
Mn197 O204 2.089 . S
Mn197 O213 2.290 . S
Mn197 O214 2.251 . S
O198 Mn195 2.160 . S
O198 C209 1.239 . S
O199 Mn195 2.221 . S
O199 Mn200 2.290 . S
O199 C210 1.278 . S
Mn200 O199 2.290 . S
Mn200 O202 2.089 . S
Mn200 O205 2.251 . S
Mn200 O206 2.087 1_556 S
O201 Mn195 2.163 . S
O201 C211 1.244 1_556 S
O202 Mn200 2.089 . S
O202 C209 1.256 . S
O203 Mn195 2.160 . S
O203 C212 1.239 . S
O204 Mn197 2.089 . S
O204 C212 1.256 . S
O205 Mn200 2.251 . S
O205 C210 1.241 . S
O206 Mn200 2.087 1_554 S
O206 C211 1.256 . S
C207 O213 1.278 . S
C207 O214 1.241 . S
C208 O194 1.244 . S
C208 O196 1.256 . S
C209 O198 1.239 . S
C209 O202 1.256 . S
C210 O199 1.278 . S
C210 O205 1.241 . S
C211 O201 1.244 1_554 S
C211 O206 1.256 . S
C212 O203 1.239 . S
C212 O204 1.256 . S
O213 Mn195 2.221 . S
O213 Mn197 2.290 . S
O213 C207 1.278 . S
O214 Mn197 2.251 . S
O214 C207 1.241 . S
O215 Mn216 2.163 . S
O215 C229 1.244 1_556 S
Mn216 O215 2.163 . S
Mn216 O219 2.160 1_455 S
Mn216 O220 2.221 1_455 S
Mn216 O222 2.163 1_455 S
Mn216 O224 2.160 . S
Mn216 O234 2.221 . S
O217 Mn218 2.087 1_554 S
O217 C229 1.256 . S
Mn218 O217 2.087 1_556 S
Mn218 O225 2.089 . S
Mn218 O234 2.290 . S
Mn218 O235 2.251 . S
O219 Mn216 2.160 1_655 S
O219 C230 1.239 . S
O220 Mn216 2.221 1_655 S
O220 Mn221 2.290 . S
O220 C231 1.278 . S
Mn221 O220 2.290 . S
Mn221 O223 2.089 . S
Mn221 O226 2.251 . S
Mn221 O227 2.087 . S
O222 Mn216 2.163 1_655 S
O222 C232 1.244 . S
O223 Mn221 2.089 . S
O223 C230 1.256 . S
O224 Mn216 2.160 . S
O224 C233 1.239 . S
O225 Mn218 2.089 . S
O225 C233 1.256 . S
O226 Mn221 2.251 . S
O226 C231 1.241 . S
O227 Mn221 2.087 . S
O227 C232 1.256 . S
C228 O234 1.278 . S
C228 O235 1.241 . S
C229 O215 1.244 1_554 S
C229 O217 1.256 . S
C230 O219 1.239 . S
C230 O223 1.256 . S
C231 O220 1.278 . S
C231 O226 1.241 . S
C232 O222 1.244 . S
C232 O227 1.256 . S
C233 O224 1.239 . S
C233 O225 1.256 . S
O234 Mn216 2.221 . S
O234 Mn218 2.290 . S
O234 C228 1.278 . S
O235 Mn218 2.251 . S
O235 C228 1.241 . S
C125 C168 1.848 1_545 S
C186 C144 1.848 . S
C207 C87 1.848 . S
C231 C106 1.848 1_655 S
C165 C49 1.837 1_545 S
C68 C189 1.836 . S
C11 C210 1.837 . S
C30 C228 1.836 1_655 S
C170 C97 1.215 1_655 S
C188 C116 1.211 1_565 S
C209 C135 1.229 . S
C78 C233 1.230 . S
C21 C169 1.304 1_655 S
C187 C40 1.304 1_545 S
C208 C59 1.304 . S
C2 C232 1.304 . S
C101 C166 1.556 . S
C120 C190 1.557 . S
C211 C139 1.557 . S
C229 C82 1.557 . S
C25 C167 1.364 . S
C191 C44 1.364 . S
C212 C63 1.364 . S
C6 C230 1.364 . S
