# Generated by pormake.
# Topology anh, (6,3)-cn, num edge types: 1
# Building blocks:
#     Node 0, Type 0, BuildingBlock: CUWYAW_clean_sbu_0, # of connection points: 6
#     Node 1, Type 0, BuildingBlock: CUWYAW_clean_sbu_0, # of connection points: 6
#     Node 2, Type 0, BuildingBlock: CUWYAW_clean_sbu_0, # of connection points: 6
#     Node 3, Type 1, BuildingBlock: BETDIP_clean_linker_0, # of connection points: 3
#     Node 4, Type 1, BuildingBlock: BETDIP_clean_linker_0, # of connection points: 3
#     Node 5, Type 1, BuildingBlock: BETDIP_clean_linker_0, # of connection points: 3
#     Node 6, Type 1, BuildingBlock: BETDIP_clean_linker_0, # of connection points: 3
#     Node 7, Type 1, BuildingBlock: BETDIP_clean_linker_0, # of connection points: 3
#     Node 8, Type 1, BuildingBlock: BETDIP_clean_linker_0, # of connection points: 3
#     Edge 9, Type (0, 1), None
#     Edge 10, Type (0, 1), None
#     Edge 11, Type (0, 1), None
#     Edge 12, Type (0, 1), None
#     Edge 13, Type (0, 1), None
#     Edge 14, Type (0, 1), None
#     Edge 15, Type (0, 1), None
#     Edge 16, Type (0, 1), None
#     Edge 17, Type (0, 1), None
#     Edge 18, Type (0, 1), None
#     Edge 19, Type (0, 1), None
#     Edge 20, Type (0, 1), None
#     Edge 21, Type (0, 1), None
#     Edge 22, Type (0, 1), None
#     Edge 23, Type (0, 1), None
#     Edge 24, Type (0, 1), None
#     Edge 25, Type (0, 1), None
#     Edge 26, Type (0, 1), None
# Relax obj value: 0.774
# Max RMSD: 0.225
# Mean RMSD: 0.172
data_MOF--net-anh--node1-CUWYAW_clean_sbu_0--node2-BETDIP_clean_linker_0--edge1-none
_symmetry_space_group_name_H-M    P1
_symmetry_Int_Tables_number       1
_symmetry_cell_setting            triclinic
loop_
_symmetry_equiv_pos_as_xyz
'x, y, z'
_cell_length_a     13.816382
_cell_length_b     13.868744
_cell_length_c     22.576176
_cell_angle_alpha  94.896897
_cell_angle_beta   87.866129
_cell_angle_gamma 118.7376
loop_
_atom_site_label
_atom_site_type_symbol
_atom_site_fract_x
_atom_site_fract_y
_atom_site_fract_z
_atom_type_partial_charge
C0 C 1.19611 0.39343 0.14453 0.0
Eu1 Eu 0.33476 0.59173 0.12079 0.0
C2 C 1.0866 0.3763 0.16591 0.0
C3 C 1.08554 0.43521 0.21952 0.0
C4 C 1.03063 0.49737 0.22232 0.0
C5 C 0.96369 0.48917 0.17513 0.0
C6 C 0.94451 0.4106 0.1274 0.0
C7 C 1.00505 0.3532 0.12299 0.0
C8 C 0.39446 0.74443 0.21927 0.0
C9 C 1.15151 0.67772 0.08649 0.0
C10 C 0.51137 1.00197 0.06654 0.0
Eu11 Eu 0.40938 0.7932 0.08155 0.0
C12 C 0.49275 1.0921 0.09067 0.0
C13 C 0.4193 1.07512 0.13821 0.0
C14 C 0.43639 1.16348 0.17873 0.0
C15 C 0.52921 0.26663 0.17219 0.0
C16 C 0.58299 0.28712 0.11667 0.0
C17 C 0.56662 0.1989 0.07649 0.0
C18 C 0.32491 0.6352 -0.00867 0.0
C19 C 0.58815 0.69285 0.07103 0.0
O20 O 1.21763 0.42202 0.09014 0.0
O21 O 1.28 0.4567 0.17953 0.0
O22 O 0.4241 0.66899 0.20908 0.0
O23 O 0.34066 0.7418 0.17364 0.0
O24 O 1.17329 0.5945 0.09076 0.0
O25 O 1.23653 0.7774 0.09153 0.0
O26 O 0.43591 0.92932 0.02999 0.0
O27 O 0.54161 0.95752 0.10605 0.0
O28 O 0.31305 0.72231 -0.0031 0.0
O29 O 0.38852 0.63848 0.03079 0.0
O30 O 0.57168 0.77911 0.06643 0.0
O31 O 0.50348 0.60233 0.09033 0.0
H32 H 1.14193 0.44858 0.25518 0.0
H33 H 1.04461 0.55613 0.26006 0.0
H34 H 0.88994 0.40037 0.09135 0.0
H35 H 1.00081 0.30513 0.08178 0.0
H36 H 0.35965 0.99236 0.14865 0.0
H37 H 0.3912 1.14658 0.22019 0.0
H38 H 0.65266 0.36669 0.10896 0.0
H39 H 0.62175 0.21296 0.03892 0.0
C40 C 0.58072 0.39974 0.44564 0.0
Eu41 Eu 0.68001 0.27943 0.44827 0.0
C42 C 0.62624 0.51373 0.42868 0.0
C43 C 0.59523 0.58764 0.45822 0.0
C44 C 0.67299 0.70033 0.46414 0.0
C45 C 0.78428 0.73123 0.44985 0.0
C46 C 0.80092 0.66764 0.40324 0.0
C47 C 0.72298 0.55676 0.39506 0.0
C48 C 0.74643 0.23306 0.55152 0.0
C49 C 0.95791 0.45154 0.42014 0.0
C50 C 0.92808 1.07504 0.42239 0.0
Eu51 Eu 0.82577 0.18967 0.42034 0.0
C52 C 1.02989 1.08196 0.44466 0.0
C53 C 1.10068 1.06476 0.4041 0.0
C54 C 1.18074 1.04136 0.42436 0.0
C55 C 1.18804 1.03246 0.48512 0.0
C56 C 1.12831 1.06476 0.52611 0.0
C57 C 1.04908 1.08919 0.50597 0.0
C58 C 0.75796 0.24692 0.32489 0.0
C59 C 0.54997 1.0107 0.40664 0.0
O60 O 0.57416 0.32729 0.40299 0.0
O61 O 0.62441 0.39001 0.49358 0.0
O62 O 0.64663 0.21231 0.53943 0.0
O63 O 0.80754 0.27586 0.50687 0.0
O64 O 0.85249 0.43286 0.42192 0.0
O65 O 0.97377 0.36631 0.42697 0.0
O66 O 0.938 1.13551 0.37884 0.0
O67 O 0.85355 1.06965 0.46167 0.0
O68 O 0.85874 0.26578 0.33128 0.0
O69 O 0.70092 0.19668 0.36734 0.0
O70 O 0.65407 1.02806 0.40124 0.0
O71 O 0.53669 1.09762 0.42594 0.0
H72 H 0.51858 0.5578 0.48273 0.0
H73 H 0.65415 0.75378 0.49455 0.0
H74 H 0.88239 0.69239 0.38498 0.0
H75 H 0.74649 0.50212 0.37109 0.0
H76 H 1.08792 1.06003 0.35664 0.0
H77 H 1.22688 1.017 0.39232 0.0
H78 H 1.13441 1.05939 0.57332 0.0
H79 H 0.99705 1.10437 0.53829 0.0
C80 C 1.15031 0.85001 0.77173 0.0
Eu81 Eu 0.93607 0.76679 0.77833 0.0
C82 C 1.21605 0.79511 0.7536 0.0
C83 C 0.31992 0.83357 0.77897 0.0
C84 C 0.35634 0.75819 0.78884 0.0
C85 C 1.28121 0.64364 0.7819 0.0
C86 C 1.19306 0.61046 0.74182 0.0
C87 C 1.16296 0.68769 0.72621 0.0
C88 C 0.81741 0.72576 0.88279 0.0
C89 C 0.82556 0.48865 0.74058 0.0
C90 C 0.49208 0.53158 0.75395 0.0
Eu91 Eu 0.70596 0.63412 0.75381 0.0
C92 C 0.40513 0.42102 0.76671 0.0
C93 C 0.31569 0.36316 0.72722 0.0
C94 C 1.21947 0.27282 0.74558 0.0
C95 C 1.21218 0.24326 0.80405 0.0
C96 C 0.30793 0.28813 0.83916 0.0
C97 C 0.40423 0.37742 0.82071 0.0
C98 C 0.83653 0.68532 0.65638 0.0
C99 C 0.8085 0.90774 0.75228 0.0
O100 O 1.09048 0.85557 0.73038 0.0
O101 O 1.09455 0.81763 0.82075 0.0
O102 O 0.89925 0.81988 0.86999 0.0
O103 O 0.80004 0.65509 0.83848 0.0
O104 O 0.914 0.58944 0.74379 0.0
O105 O 0.72868 0.48212 0.75237 0.0
O106 O 0.55012 0.53662 0.70634 0.0
O107 O 0.55164 0.59696 0.79901 0.0
O108 O 0.74856 0.5912 0.66043 0.0
O109 O 0.84308 0.74877 0.7004 0.0
O110 O 0.72016 0.80794 0.75048 0.0
O111 O 0.90705 0.91607 0.76206 0.0
H112 H 0.36708 0.91852 0.79672 0.0
H113 H 0.43542 0.78985 0.81052 0.0
H114 H 1.1388 0.52484 0.72817 0.0
H115 H 1.09033 0.6602 0.6992 0.0
H116 H 0.3161 0.39422 0.68472 0.0
H117 H 1.14624 0.23869 0.71788 0.0
H118 H 0.30366 0.26519 0.88427 0.0
H119 H 0.47373 0.4184 0.8511 0.0
H120 H 0.65624 0.48722 0.19242 0.0
H121 H 0.881 0.45914 0.30512 0.0
H122 H 0.57 1.17715 0.26402 0.0
H123 H 0.92386 0.62576 0.21056 0.0
C124 C 0.91619 0.5644 0.17488 0.0
C125 C 0.67122 0.43997 0.22328 0.0
C126 C 0.59883 0.32677 0.22484 0.0
C127 C 0.77443 0.48637 0.25054 0.0
C128 C 0.80126 0.42235 0.28391 0.0
C129 C 0.72672 0.31238 0.29029 0.0
C130 C 0.62377 0.26512 0.26239 0.0
N131 N 0.86353 0.58225 0.22718 0.0
H132 H 1.01326 0.83367 0.44793 0.0
H133 H 1.05323 0.77105 0.62584 0.0
H134 H 0.73368 0.69288 0.56543 0.0
H135 H 0.31707 0.98296 0.49123 0.0
C136 C 1.23336 0.96324 0.50354 0.0
C137 C 0.97891 0.80922 0.49132 0.0
C138 C 0.86402 0.76587 0.50031 0.0
C139 C 1.04846 0.8159 0.53778 0.0
C140 C 1.00121 0.77123 0.59132 0.0
C141 C 0.88767 0.72748 0.60021 0.0
C142 C 0.82117 0.72851 0.55621 0.0
N143 N 1.1654 0.86406 0.53151 0.0
H144 H 1.14548 0.41519 0.78827 0.0
H145 H 1.19103 0.41135 0.97412 0.0
H146 H 0.3886 0.70608 0.88883 0.0
H147 H 1.03668 1.12622 0.8234 0.0
C148 C 1.10612 0.20679 0.83501 0.0
C149 C 1.19188 0.45773 0.82827 0.0
C150 C 1.27278 0.57032 0.82965 0.0
C151 C 1.16711 0.3984 0.87951 0.0
C152 C 1.21672 0.45396 0.93378 0.0
C153 C 0.29633 0.56539 0.93576 0.0
C154 C 0.32851 0.61974 0.88378 0.0
N155 N 1.09231 0.2828 0.87654 0.0
H156 H 0.35124 0.8357 0.45539 0.0
H157 H 1.22194 0.62883 0.29329 0.0
H158 H 0.53113 0.92934 0.29058 0.0
H159 H 1.12715 0.59267 0.42175 0.0
C160 C 1.05292 0.56288 0.39795 0.0
C161 C 0.35644 0.82189 0.4078 0.0
C162 C 0.45241 0.90147 0.37695 0.0
C163 C 1.26853 0.72234 0.37797 0.0
C164 C 1.28172 0.70459 0.31589 0.0
C165 C 0.37564 0.77795 0.28351 0.0
C166 C 0.45894 0.8746 0.31489 0.0
N167 N 1.17479 0.63264 0.41235 0.0
H168 H 0.86913 0.32585 0.78496 0.0
H169 H 0.79129 1.10845 0.62405 0.0
H170 H 0.78234 0.41497 0.62403 0.0
H171 H 0.85319 1.08031 0.75027 0.0
C172 C 0.79177 1.0026 0.732 0.0
C173 C 0.84709 0.30857 0.73826 0.0
C174 C 0.82829 0.38613 0.70873 0.0
C175 C 0.83317 0.20626 0.70846 0.0
C176 C 0.80245 1.18471 0.64733 0.0
C177 C 0.78686 0.26077 0.61581 0.0
C178 C 0.79885 0.35934 0.64741 0.0
N179 N 0.85353 1.12553 0.74055 0.0
H180 H 0.77574 0.69068 0.1209 0.0
H181 H 0.95296 0.70276 0.95734 0.0
H182 H 0.64132 0.70273 0.95324 0.0
H183 H 1.0075 0.58617 0.02453 0.0
C184 C 1.04138 0.65528 0.05795 0.0
C185 C 0.78008 0.69097 0.07293 0.0
C186 C 0.69129 0.69139 0.04117 0.0
C187 C 0.8759 0.69343 0.04309 0.0
C188 C 0.8801 0.69616 -0.01956 0.0
C189 C 0.79635 0.69942 0.94744 0.0
C190 C 0.7036 0.69719 -0.02166 0.0
N191 N 0.97154 0.70533 0.076 0.0
loop_
_geom_bond_atom_site_label_1
_geom_bond_atom_site_label_2
_geom_bond_distance
_geom_bond_site_symmetry_2
_ccdc_geom_bond_type
C0 Eu1 2.835 . S
C0 C2 1.500 . S
C0 O20 1.257 . S
C0 O21 1.260 . S
Eu1 C0 2.835 . S
Eu1 O20 2.473 . S
Eu1 O21 2.480 . S
Eu1 O22 2.430 . S
Eu1 O23 2.670 1_655 S
Eu1 O24 2.394 . S
Eu1 O29 2.355 . S
Eu1 O31 2.374 1_655 S
C2 C0 1.500 . S
C2 C3 1.377 . S
C2 C7 1.377 . S
C3 C2 1.377 . S
C3 C4 1.395 . S
C3 H32 0.931 . S
C4 C3 1.395 . S
C4 C5 1.383 . S
C4 H33 0.931 . S
C5 C4 1.383 . S
C5 C6 1.394 . S
C6 C5 1.394 . S
C6 C7 1.378 . S
C6 H34 0.927 1_554 S
C7 C2 1.377 . S
C7 C6 1.378 . S
C7 H35 0.931 . S
C8 O22 1.259 1_455 S
C8 O23 1.270 . S
C9 O24 1.251 . S
C9 O25 1.251 . S
C10 Eu11 2.835 . S
C10 C12 1.500 . S
C10 O26 1.257 . S
C10 O27 1.260 . S
Eu11 C10 2.835 . S
Eu11 O23 2.355 . S
Eu11 O25 2.374 1_455 S
Eu11 O26 2.473 . S
Eu11 O27 2.480 . S
Eu11 O28 2.430 1_554 S
Eu11 O29 2.670 1_455 S
Eu11 O30 2.394 . S
C12 C10 1.500 . S
C12 C13 1.377 . S
C12 C17 1.377 . S
C13 C12 1.377 . S
C13 C14 1.395 . S
C13 H36 0.931 . S
C14 C13 1.395 . S
C14 C15 1.383 1_565 S
C14 H37 0.931 1_565 S
C15 C14 1.383 1_545 S
C15 C16 1.394 1_545 S
C16 C15 1.394 1_565 S
C16 C17 1.378 . S
C16 H38 0.931 . S
C17 C12 1.377 . S
C17 C16 1.378 . S
C17 H39 0.931 . S
C18 O28 1.259 . S
C18 O29 1.269 1_456 S
C19 O30 1.251 . S
C19 O31 1.251 . S
O20 C0 1.257 . S
O20 Eu1 2.473 . S
O21 C0 1.260 . S
O21 Eu1 2.480 . S
O22 Eu1 2.430 . S
O22 C8 1.259 1_655 S
O23 Eu1 2.670 1_455 S
O23 C8 1.270 . S
O23 Eu11 2.355 . S
O24 Eu1 2.394 . S
O24 C9 1.251 . S
O25 C9 1.251 . S
O25 Eu11 2.374 1_655 S
O26 C10 1.257 . S
O26 Eu11 2.473 . S
O27 C10 1.260 . S
O27 Eu11 2.480 . S
O28 Eu11 2.430 1_556 S
O28 C18 1.259 . S
O29 Eu1 2.355 . S
O29 Eu11 2.670 1_655 S
O29 C18 1.269 1_654 S
O30 Eu11 2.394 . S
O30 C19 1.251 . S
O31 Eu1 2.374 1_455 S
O31 C19 1.251 . S
H32 C3 0.931 . S
H33 C4 0.931 . S
H34 C6 0.927 1_556 S
H35 C7 0.931 . S
H36 C13 0.931 . S
H37 C14 0.931 1_545 S
H38 C16 0.931 . S
H39 C17 0.931 . S
C40 Eu41 2.835 . S
C40 C42 1.500 . S
C40 O60 1.257 . S
C40 O61 1.260 . S
Eu41 C40 2.835 . S
Eu41 O60 2.473 . S
Eu41 O61 2.480 . S
Eu41 O62 2.430 . S
Eu41 O63 2.670 . S
Eu41 O64 2.394 . S
Eu41 O69 2.355 . S
Eu41 O71 2.374 1_545 S
C42 C40 1.500 . S
C42 C43 1.377 . S
C42 C47 1.377 . S
C43 C42 1.377 . S
C43 C44 1.395 . S
C43 H72 0.931 . S
C44 C43 1.395 . S
C44 C45 1.383 . S
C44 H73 0.931 . S
C45 C44 1.383 . S
C45 C46 1.394 . S
C46 C45 1.394 . S
C46 C47 1.378 . S
C46 H74 0.931 . S
C47 C42 1.377 . S
C47 C46 1.378 . S
C47 H75 0.931 . S
C48 O62 1.259 . S
C48 O63 1.270 . S
C49 O64 1.251 . S
C49 O65 1.251 . S
C50 Eu51 2.835 . S
C50 C52 1.500 . S
C50 O66 1.257 . S
C50 O67 1.260 . S
Eu51 C50 2.835 . S
Eu51 O63 2.355 1_565 S
Eu51 O65 2.374 1_565 S
Eu51 O66 2.473 . S
Eu51 O67 2.480 . S
Eu51 O68 2.430 . S
Eu51 O69 2.670 1_565 S
Eu51 O70 2.394 . S
C52 C50 1.500 . S
C52 C53 1.377 . S
C52 C57 1.377 . S
C53 C52 1.377 . S
C53 C54 1.395 . S
C53 H76 0.931 . S
C54 C53 1.395 . S
C54 C55 1.383 . S
C54 H77 0.931 . S
C55 C54 1.383 . S
C55 C56 1.394 . S
C56 C55 1.394 . S
C56 C57 1.378 . S
C56 H78 0.931 . S
C57 C52 1.377 . S
C57 C56 1.378 . S
C57 H79 0.931 . S
C58 O68 1.259 1_545 S
C58 O69 1.270 . S
C59 O70 1.251 . S
C59 O71 1.251 . S
O60 C40 1.257 . S
O60 Eu41 2.473 . S
O61 C40 1.260 . S
O61 Eu41 2.480 . S
O62 Eu41 2.430 . S
O62 C48 1.259 . S
O63 Eu41 2.670 . S
O63 C48 1.270 . S
O63 Eu51 2.355 1_545 S
O64 Eu41 2.394 . S
O64 C49 1.251 . S
O65 C49 1.251 . S
O65 Eu51 2.374 1_545 S
O66 C50 1.257 . S
O66 Eu51 2.473 . S
O67 C50 1.260 . S
O67 Eu51 2.480 . S
O68 Eu51 2.430 . S
O68 C58 1.259 1_565 S
O69 Eu41 2.355 . S
O69 Eu51 2.670 1_545 S
O69 C58 1.270 . S
O70 Eu51 2.394 . S
O70 C59 1.251 . S
O71 Eu41 2.374 1_565 S
O71 C59 1.251 . S
H72 C43 0.931 . S
H73 C44 0.931 . S
H74 C46 0.931 . S
H75 C47 0.931 . S
H76 C53 0.931 . S
H77 C54 0.931 . S
H78 C56 0.931 . S
H79 C57 0.931 . S
C80 Eu81 2.835 . S
C80 C82 1.500 . S
C80 O100 1.257 . S
C80 O101 1.260 . S
Eu81 C80 2.835 . S
Eu81 O100 2.473 . S
Eu81 O101 2.480 . S
Eu81 O102 2.430 . S
Eu81 O103 2.670 . S
Eu81 O104 2.394 . S
Eu81 O109 2.355 . S
Eu81 O111 2.374 . S
C82 C80 1.500 . S
C82 C83 1.377 . S
C82 C87 1.377 . S
C83 C82 1.377 . S
C83 C84 1.395 . S
C83 H112 0.931 . S
C84 C83 1.395 . S
C84 C85 1.383 . S
C84 H113 0.931 . S
C85 C84 1.383 . S
C85 C86 1.394 . S
C86 C85 1.394 . S
C86 C87 1.378 . S
C86 H114 0.931 . S
C87 C82 1.377 . S
C87 C86 1.378 . S
C87 H115 0.931 . S
C88 O102 1.259 . S
C88 O103 1.270 . S
C89 O104 1.251 . S
C89 O105 1.251 . S
C90 Eu91 2.835 . S
C90 C92 1.500 . S
C90 O106 1.257 . S
C90 O107 1.260 . S
Eu91 C90 2.835 . S
Eu91 O103 2.355 . S
Eu91 O105 2.374 . S
Eu91 O106 2.473 . S
Eu91 O107 2.480 . S
Eu91 O108 2.430 . S
Eu91 O109 2.670 . S
Eu91 O110 2.394 . S
C92 C90 1.500 . S
C92 C93 1.377 . S
C92 C97 1.377 . S
C93 C92 1.377 . S
C93 C94 1.395 . S
C93 H116 0.931 . S
C94 C93 1.395 . S
C94 C95 1.383 . S
C94 H117 0.931 . S
C95 C94 1.383 . S
C95 C96 1.394 . S
C96 C95 1.394 . S
C96 C97 1.378 . S
C96 H118 0.931 . S
C97 C92 1.377 . S
C97 C96 1.378 . S
C97 H119 0.931 . S
C98 O108 1.259 . S
C98 O109 1.270 . S
C99 O110 1.251 . S
C99 O111 1.251 . S
O100 C80 1.257 . S
O100 Eu81 2.473 . S
O101 C80 1.260 . S
O101 Eu81 2.480 . S
O102 Eu81 2.430 . S
O102 C88 1.259 . S
O103 Eu81 2.670 . S
O103 C88 1.270 . S
O103 Eu91 2.355 . S
O104 Eu81 2.394 . S
O104 C89 1.251 . S
O105 C89 1.251 . S
O105 Eu91 2.374 . S
O106 C90 1.257 . S
O106 Eu91 2.473 . S
O107 C90 1.260 . S
O107 Eu91 2.480 . S
O108 Eu91 2.430 . S
O108 C98 1.259 . S
O109 Eu81 2.355 . S
O109 Eu91 2.670 . S
O109 C98 1.270 . S
O110 Eu91 2.394 . S
O110 C99 1.251 . S
O111 Eu81 2.374 . S
O111 C99 1.251 . S
H112 C83 0.931 . S
H113 C84 0.931 . S
H114 C86 0.931 . S
H115 C87 0.931 . S
H116 C93 0.931 . S
H117 C94 0.931 . S
H118 C96 0.931 . S
H119 C97 0.931 . S
H120 C125 0.930 . S
H121 C128 0.930 . S
H122 C130 0.930 . S
H123 C124 1.016 . S
C124 H123 1.016 . S
C124 N131 1.286 . S
C125 H120 0.930 . S
C125 C126 1.397 1_545 S
C125 C127 1.361 . S
C126 C125 1.397 1_565 S
C126 C130 1.390 . S
C127 C125 1.361 . S
C127 C128 1.393 . S
C127 N131 1.413 . S
C128 H121 0.930 . S
C128 C127 1.393 . S
C128 C129 1.399 . S
C129 C128 1.399 . S
C129 C130 1.381 1_545 S
C130 H122 0.930 . S
C130 C126 1.390 . S
C130 C129 1.381 1_565 S
N131 C124 1.286 . S
N131 C127 1.413 . S
H132 C137 0.930 . S
H133 C140 0.930 . S
H134 C142 0.930 . S
H135 C136 1.016 . S
C136 H135 1.016 . S
C136 N143 1.286 . S
C137 H132 0.930 . S
C137 C138 1.397 . S
C137 C139 1.361 . S
C138 C137 1.397 . S
C138 C142 1.390 . S
C139 C137 1.361 . S
C139 C140 1.393 . S
C139 N143 1.413 . S
C140 H133 0.930 . S
C140 C139 1.393 . S
C140 C141 1.399 . S
C141 C140 1.399 . S
C141 C142 1.381 . S
C142 H134 0.930 . S
C142 C138 1.390 . S
C142 C141 1.381 . S
N143 C136 1.286 . S
N143 C139 1.413 . S
H144 C149 0.930 . S
H145 C152 0.930 1_554 S
H146 C154 0.930 1_554 S
H147 C148 1.016 . S
C148 H147 1.016 . S
C148 N155 1.286 . S
C149 H144 0.930 . S
C149 C150 1.397 . S
C149 C151 1.361 1_655 S
C150 C149 1.397 . S
C150 C154 1.390 . S
C151 C149 1.361 1_455 S
C151 C152 1.393 . S
C151 N155 1.413 . S
C152 H145 0.930 1_556 S
C152 C151 1.393 . S
C152 C153 1.399 1_456 S
C153 C152 1.399 1_654 S
C153 C154 1.381 1_554 S
C154 H146 0.930 1_556 S
C154 C150 1.390 . S
C154 C153 1.381 1_556 S
N155 C148 1.286 . S
N155 C151 1.413 . S
H156 C161 0.930 . S
H157 C164 0.930 1_655 S
H158 C166 0.930 . S
H159 C160 1.016 . S
C160 H159 1.016 . S
C160 N167 1.286 . S
C161 H156 0.930 . S
C161 C162 1.397 . S
C161 C163 1.361 . S
C162 C161 1.397 . S
C162 C166 1.390 . S
C163 C161 1.361 . S
C163 C164 1.393 . S
C163 N167 1.413 1_455 S
C164 H157 0.930 1_455 S
C164 C163 1.393 . S
C164 C165 1.399 . S
C165 C164 1.399 . S
C165 C166 1.381 . S
C166 H158 0.930 . S
C166 C162 1.390 . S
C166 C165 1.381 . S
N167 C160 1.286 . S
N167 C163 1.413 1_655 S
H168 C173 0.930 . S
H169 C176 0.930 . S
H170 C178 0.930 . S
H171 C172 1.016 . S
C172 H171 1.016 . S
C172 N179 1.286 . S
C173 H168 0.930 . S
C173 C174 1.397 . S
C173 C175 1.361 1_545 S
C174 C173 1.397 . S
C174 C178 1.390 . S
C175 C173 1.361 1_565 S
C175 C176 1.393 . S
C175 N179 1.413 . S
C176 H169 0.930 . S
C176 C175 1.393 . S
C176 C177 1.399 1_565 S
C177 C176 1.399 1_545 S
C177 C178 1.381 . S
C178 H170 0.930 . S
C178 C174 1.390 . S
C178 C177 1.381 . S
N179 C172 1.286 . S
N179 C175 1.413 . S
H180 C185 0.930 . S
H181 C188 0.930 . S
H182 C190 0.930 1_556 S
H183 C184 1.016 . S
C184 H183 1.016 . S
C184 N191 1.286 . S
C185 H180 0.930 . S
C185 C186 1.397 . S
C185 C187 1.361 . S
C186 C185 1.397 . S
C186 C190 1.390 . S
C187 C185 1.361 . S
C187 C188 1.393 . S
C187 N191 1.413 . S
C188 H181 0.930 . S
C188 C187 1.393 . S
C188 C189 1.399 1_554 S
C189 C188 1.399 1_556 S
C189 C190 1.381 1_556 S
C190 H182 0.930 1_554 S
C190 C186 1.390 . S
C190 C189 1.381 1_554 S
N191 C184 1.286 . S
N191 C187 1.413 . S
C19 C186 4.984 . S
C49 C160 4.729 . S
C99 C172 4.622 . S
C9 C184 4.423 . S
C162 C59 4.625 . S
C174 C89 4.687 . S
C55 C136 3.521 . S
C85 C150 3.568 . S
C15 C126 3.062 1_545 S
C138 C45 3.395 . S
C148 C95 3.147 . S
C5 C124 3.575 . S
C153 C18 1.344 1_654 S
C58 C129 0.913 . S
C98 C141 1.470 . S
C177 C48 1.943 . S
C189 C88 2.243 . S
C8 C165 1.991 . S
