# Generated by pormake.
# Topology ssa, (4,4)-cn, num edge types: 1
# Building blocks:
#     Node 0, Type 0, BuildingBlock: NAWXER_clean_sbu_0, # of connection points: 4
#     Node 1, Type 0, BuildingBlock: NAWXER_clean_sbu_0, # of connection points: 4
#     Node 2, Type 0, BuildingBlock: NAWXER_clean_sbu_0, # of connection points: 4
#     Node 3, Type 0, BuildingBlock: NAWXER_clean_sbu_0, # of connection points: 4
#     Node 4, Type 0, BuildingBlock: NAWXER_clean_sbu_0, # of connection points: 4
#     Node 5, Type 0, BuildingBlock: NAWXER_clean_sbu_0, # of connection points: 4
#     Node 6, Type 1, BuildingBlock: KUFVIS_clean_linker_0, # of connection points: 4
#     Node 7, Type 1, BuildingBlock: KUFVIS_clean_linker_0, # of connection points: 4
#     Node 8, Type 1, BuildingBlock: KUFVIS_clean_linker_0, # of connection points: 4
#     Node 9, Type 1, BuildingBlock: KUFVIS_clean_linker_0, # of connection points: 4
#     Node 10, Type 1, BuildingBlock: KUFVIS_clean_linker_0, # of connection points: 4
#     Node 11, Type 1, BuildingBlock: KUFVIS_clean_linker_0, # of connection points: 4
#     Edge 12, Type (0, 1), None
#     Edge 13, Type (0, 1), None
#     Edge 14, Type (0, 1), None
#     Edge 15, Type (0, 1), None
#     Edge 16, Type (0, 1), None
#     Edge 17, Type (0, 1), None
#     Edge 18, Type (0, 1), None
#     Edge 19, Type (0, 1), None
#     Edge 20, Type (0, 1), None
#     Edge 21, Type (0, 1), None
#     Edge 22, Type (0, 1), None
#     Edge 23, Type (0, 1), None
#     Edge 24, Type (0, 1), None
#     Edge 25, Type (0, 1), None
#     Edge 26, Type (0, 1), None
#     Edge 27, Type (0, 1), None
#     Edge 28, Type (0, 1), None
#     Edge 29, Type (0, 1), None
#     Edge 30, Type (0, 1), None
#     Edge 31, Type (0, 1), None
#     Edge 32, Type (0, 1), None
#     Edge 33, Type (0, 1), None
#     Edge 34, Type (0, 1), None
#     Edge 35, Type (0, 1), None
# Relax obj value: 0.007
# Max RMSD: 0.057
# Mean RMSD: 0.038
data_MOF--net-ssa--node1-NAWXER_clean_sbu_0--node2-KUFVIS_clean_linker_0--edge1-none
_symmetry_space_group_name_H-M    P1
_symmetry_Int_Tables_number       1
_symmetry_cell_setting            triclinic
loop_
_symmetry_equiv_pos_as_xyz
'x, y, z'
_cell_length_a     20.775391
_cell_length_b     20.776914
_cell_length_c     15.811578
_cell_angle_alpha  90.000741
_cell_angle_beta   90.000013
_cell_angle_gamma 120.01028
loop_
_atom_site_label
_atom_site_type_symbol
_atom_site_fract_x
_atom_site_fract_y
_atom_site_fract_z
_atom_type_partial_charge
C0 C 0.13604 0.69706 0.04197 0.0
C1 C 1.04545 0.48527 0.83302 0.0
O2 O 1.06935 0.64184 0.04544 0.0
Zn3 Zn 1.0646 0.58184 -0.05619 0.0
O4 O 0.17815 0.70107 -0.01856 0.0
Zn5 Zn 0.1849 0.64201 0.88179 0.0
O6 O 0.18014 0.69725 0.78017 0.0
O7 O 1.07133 0.64764 0.84416 0.0
O8 O 1.10963 0.54228 0.834 0.0
O9 O 0.99746 0.48039 0.88757 0.0
O10 O 0.1399 0.55742 -0.00839 0.0
O11 O 0.25206 0.60775 -0.06196 0.0
C12 C 1.11344 0.68575 0.78363 0.0
C13 C 0.20408 0.56462 -0.00741 0.0
C14 C 0.52276 0.09494 0.54191 0.0
C15 C 0.64389 1.0043 0.33296 0.0
O16 O 0.51126 1.02825 0.54536 0.0
Zn17 Zn 0.56651 1.0235 0.44374 0.0
O18 O 0.56088 0.13706 0.48138 0.0
Zn19 Zn 0.62667 0.14377 0.38173 0.0
O20 O 0.56669 0.13904 0.2801 0.0
O21 O 0.50744 1.03024 0.34409 0.0
O22 O 0.6511 1.06848 0.33393 0.0
O23 O 0.60076 0.95633 0.38751 0.0
O24 O 0.66625 0.09878 0.49154 0.0
O25 O 0.72813 0.21092 0.43795 0.0
C26 C 0.51146 1.07236 0.28356 0.0
C27 C 0.72326 0.16295 0.49251 0.0
C28 C 0.52265 0.47016 0.78357 0.0
C29 C 0.64379 0.68198 -0.00748 0.0
O30 O 0.51116 0.52536 0.7801 0.0
Zn31 Zn 0.56638 0.58538 0.88174 0.0
O32 O 0.56074 0.46617 0.84413 0.0
Zn33 Zn 0.62652 0.52526 -0.05621 0.0
O34 O 0.56649 0.47003 0.04542 0.0
O35 O 0.50729 0.51959 -0.01861 0.0
O36 O 0.65096 0.62499 -0.00844 0.0
O37 O 0.60067 0.68683 -0.06204 0.0
O38 O 0.66612 0.60985 0.83398 0.0
O39 O 0.72798 0.55958 0.88758 0.0
C40 C 0.51129 0.4815 0.04195 0.0
C41 C 0.72313 0.60269 0.83302 0.0
C42 C 0.20408 0.6821 0.33299 0.0
C43 C 1.11352 0.47033 0.54196 0.0
O44 O 0.25206 0.68699 0.38755 0.0
Zn45 Zn 0.18491 0.58554 0.44379 0.0
O46 O 0.1399 0.62511 0.33398 0.0
Zn47 Zn 1.06462 0.52538 0.3818 0.0
O48 O 0.99746 0.55964 0.43803 0.0
O49 O 1.10962 0.60997 0.49161 0.0
O50 O 1.07139 0.46633 0.48145 0.0
O51 O 0.1802 0.52557 0.54541 0.0
O52 O 0.17815 0.51973 0.34414 0.0
O53 O 1.06934 0.47011 0.28018 0.0
C54 C 1.04543 0.60275 0.4926 0.0
C55 C 0.13602 0.48158 0.28364 0.0
C56 C 0.72686 1.07229 0.0419 0.0
C57 C 0.60572 0.16296 0.83297 0.0
O58 O 0.73836 0.13898 0.04537 0.0
Zn59 Zn 0.68313 0.14377 -0.05625 0.0
O60 O 0.68874 1.03019 -0.01864 0.0
Zn61 Zn 0.62295 1.02349 0.88171 0.0
O62 O 0.68296 1.02826 0.78008 0.0
O63 O 0.74219 0.13705 0.8441 0.0
O64 O 0.59853 0.09878 0.83394 0.0
O65 O 0.64885 0.21093 0.88753 0.0
O66 O 0.58338 1.06849 -0.00847 0.0
O67 O 0.52149 0.95634 -0.06206 0.0
C68 C 0.73819 0.09495 0.78356 0.0
C69 C 0.52637 1.00432 -0.0075 0.0
C70 C 0.7381 0.68565 0.54195 0.0
C71 C 0.52628 0.56446 0.333 0.0
O72 O 0.68289 0.69712 0.5454 0.0
Zn73 Zn 0.62289 0.64187 0.44378 0.0
O74 O 0.74211 0.64756 0.4814 0.0
Zn75 Zn 0.68302 0.58177 0.38174 0.0
O76 O 0.73827 0.64178 0.28011 0.0
O77 O 0.68868 0.70097 0.34412 0.0
O78 O 0.58328 0.55729 0.33396 0.0
O79 O 0.52143 0.60757 0.38757 0.0
O80 O 0.59844 0.54214 0.49156 0.0
O81 O 0.64875 0.48033 0.43795 0.0
C82 C 0.72678 0.69697 0.28357 0.0
C83 C 0.60563 0.48516 0.49251 0.0
H84 H 0.555 0.50238 0.20088 0.0
H85 H 0.38813 0.55003 0.29515 0.0
H86 H 0.36998 0.458 0.04544 0.0
H87 H 0.32775 0.55009 0.03043 0.0
H88 H 1.11327 0.50262 0.12474 0.0
H89 H 0.25376 0.45799 0.2801 0.0
C90 C 0.50151 0.4992 0.195 0.0
C91 C 0.46582 0.47623 0.11717 0.0
C92 C 0.47557 0.5282 0.25947 0.0
C93 C 0.4081 0.52723 0.24697 0.0
C94 C 0.36804 0.49933 0.17038 0.0
C95 C 0.39783 0.47475 0.10614 0.0
C96 C 0.29708 0.49937 0.15518 0.0
C97 C 0.28496 0.52732 0.07862 0.0
C98 C 0.2185 0.52837 0.06614 0.0
C99 C 0.16355 0.49939 0.1306 0.0
C100 C 0.17622 0.47634 0.20841 0.0
C101 C 0.24269 0.47479 0.21942 0.0
H102 H 0.69449 1.07212 0.62461 0.0
H103 H 0.87951 0.21273 0.78008 0.0
H104 H 0.86143 0.28667 0.53039 0.0
H105 H 0.99579 0.32902 0.54546 0.0
H106 H 0.13629 0.51409 0.7009 0.0
H107 H 0.92177 0.34706 0.79513 0.0
C108 C 0.74799 0.12243 0.63051 0.0
C109 C 0.77395 0.17738 0.56605 0.0
C110 C 0.78367 0.13514 0.70835 0.0
C111 C 0.85167 0.20164 0.71938 0.0
C112 C 0.88149 0.25603 0.65515 0.0
C113 C 0.84144 0.24388 0.57857 0.0
C114 C 0.95245 0.32703 0.67038 0.0
C115 C 1.00685 0.35687 0.60616 0.0
C116 C 1.07333 0.42489 0.61719 0.0
C117 C 1.08601 0.46058 0.69503 0.0
C118 C 1.03104 0.43459 0.75948 0.0
C119 C 0.96457 0.36708 0.74696 0.0
H120 H 0.70583 0.65323 0.12466 0.0
H121 H 0.65829 0.82016 0.03037 0.0
H122 H 0.75035 0.83829 0.28006 0.0
H123 H 0.65832 0.88059 0.2951 0.0
H124 H 0.70596 0.09511 0.20083 0.0
H125 H 0.75037 0.95451 0.0454 0.0
C126 C 0.70905 0.70673 0.13052 0.0
C127 C 0.73206 0.74243 0.20835 0.0
C128 C 0.68006 0.73268 0.06606 0.0
C129 C 0.68108 0.80017 0.07856 0.0
C130 C 0.70901 0.84024 0.15513 0.0
C131 C 0.73358 0.81044 0.21937 0.0
C132 C 0.70903 0.91122 0.17033 0.0
C133 C 0.68112 0.92337 0.24692 0.0
C134 C 0.68013 0.98986 0.25941 0.0
C135 C 0.70914 1.04481 0.19495 0.0
C136 C 0.73213 1.0321 0.11712 0.0
C137 C 0.73361 0.9656 0.1061 0.0
H138 H 0.13626 0.66484 0.62471 0.0
H139 H 0.99567 0.70929 0.78012 0.0
H140 H 0.92172 0.6172 0.53043 0.0
H141 H 0.87941 0.70922 0.54546 0.0
H142 H 0.69436 0.66473 0.70089 0.0
H143 H 0.86132 0.6172 0.79516 0.0
C144 C 1.08596 0.66803 0.63058 0.0
C145 C 1.03101 0.63903 0.56612 0.0
C146 C 1.07326 0.69103 0.70841 0.0
C147 C 1.00676 0.69252 0.71943 0.0
C148 C 0.95237 0.66793 0.65519 0.0
C149 C 0.96451 0.64001 0.57862 0.0
C150 C 0.88138 0.6679 0.6704 0.0
C151 C 0.85156 0.69245 0.60616 0.0
C152 C 0.78355 0.69093 0.61718 0.0
C153 C 0.74786 0.66794 0.69502 0.0
C154 C 0.77383 0.63896 0.75948 0.0
C155 C 0.84132 0.63998 0.74698 0.0
H156 H 1.11323 0.65335 0.20091 0.0
H157 H 0.25381 0.83839 0.04546 0.0
H158 H 0.32779 0.82028 0.29512 0.0
H159 H 0.37013 0.95464 0.28008 0.0
H160 H 0.55518 0.09516 0.12461 0.0
H161 H 0.38816 0.88064 0.03039 0.0
C162 C 0.16353 0.70685 0.19502 0.0
C163 C 0.2185 0.73281 0.25947 0.0
C164 C 0.17623 0.74254 0.11719 0.0
C165 C 0.24273 0.81054 0.10616 0.0
C166 C 0.29713 0.84035 0.17038 0.0
C167 C 0.285 0.80029 0.24696 0.0
C168 C 0.36813 0.91131 0.15515 0.0
C169 C 0.39797 0.96571 0.21938 0.0
C170 C 0.46599 1.03219 0.20833 0.0
C171 C 0.50166 1.04488 0.13049 0.0
C172 C 0.47568 0.98991 0.06604 0.0
C173 C 0.40817 0.92343 0.07856 0.0
H174 H 0.54355 0.51388 0.62464 0.0
H175 H 0.49915 0.32887 0.78007 0.0
H176 H 0.5912 0.34702 0.53037 0.0
H177 H 0.49919 0.21267 0.54541 0.0
H178 H 0.54368 1.07214 0.70084 0.0
H179 H 0.59123 0.28664 0.79511 0.0
C180 C 0.54037 0.4604 0.63052 0.0
C181 C 0.56937 0.43446 0.56605 0.0
C182 C 0.51738 0.4247 0.70835 0.0
C183 C 0.5159 0.35672 0.71938 0.0
C184 C 0.5405 0.32693 0.65514 0.0
C185 C 0.5684 0.367 0.57856 0.0
C186 C 0.54052 0.25598 0.67035 0.0
C187 C 0.51596 0.20159 0.60611 0.0
C188 C 0.51748 0.13511 0.61714 0.0
C189 C 0.54047 0.12242 0.69498 0.0
C190 C 0.56946 0.17738 0.75943 0.0
C191 C 0.56845 0.24385 0.74693 0.0
loop_
_geom_bond_atom_site_label_1
_geom_bond_atom_site_label_2
_geom_bond_distance
_geom_bond_site_symmetry_2
_ccdc_geom_bond_type
C0 O2 1.247 . S
C0 O4 1.258 1_554 S
C1 O8 1.247 . S
C1 O9 1.258 1_556 S
O2 C0 1.247 . S
O2 Zn3 2.028 1_455 S
Zn3 O2 2.028 1_655 S
Zn3 O7 2.035 . S
Zn3 O9 2.035 . S
Zn3 O10 2.028 1_655 S
O4 C0 1.258 1_556 S
O4 Zn5 2.035 . S
Zn5 O4 2.035 . S
Zn5 O6 2.028 1_455 S
Zn5 O8 2.028 1_455 S
Zn5 O11 2.035 . S
O6 Zn5 2.028 1_655 S
O6 C12 1.247 . S
O7 Zn3 2.035 . S
O7 C12 1.258 1_554 S
O8 C1 1.247 . S
O8 Zn5 2.028 1_655 S
O9 C1 1.258 1_554 S
O9 Zn3 2.035 . S
O10 Zn3 2.028 1_455 S
O10 C13 1.247 . S
O11 Zn5 2.035 . S
O11 C13 1.258 1_556 S
C12 O6 1.247 . S
C12 O7 1.258 1_556 S
C13 O10 1.247 . S
C13 O11 1.258 1_554 S
C14 O16 1.247 . S
C14 O18 1.258 . S
C15 O22 1.247 . S
C15 O23 1.258 . S
O16 C14 1.247 . S
O16 Zn17 2.028 1_545 S
Zn17 O16 2.028 1_565 S
Zn17 O21 2.035 . S
Zn17 O23 2.035 . S
Zn17 O24 2.028 1_565 S
O18 C14 1.258 . S
O18 Zn19 2.035 . S
Zn19 O18 2.035 . S
Zn19 O20 2.028 1_545 S
Zn19 O22 2.028 1_545 S
Zn19 O25 2.035 . S
O20 Zn19 2.028 1_565 S
O20 C26 1.247 . S
O21 Zn17 2.035 . S
O21 C26 1.258 . S
O22 C15 1.247 . S
O22 Zn19 2.028 1_565 S
O23 C15 1.258 . S
O23 Zn17 2.035 . S
O24 Zn17 2.028 1_545 S
O24 C27 1.247 . S
O25 Zn19 2.035 . S
O25 C27 1.258 . S
C26 O20 1.247 . S
C26 O21 1.258 . S
C27 O24 1.247 . S
C27 O25 1.258 . S
C28 O30 1.247 . S
C28 O32 1.258 1_556 S
C29 O36 1.247 . S
C29 O37 1.258 1_554 S
O30 C28 1.247 . S
O30 Zn31 2.028 . S
Zn31 O30 2.028 . S
Zn31 O35 2.035 . S
Zn31 O37 2.035 . S
Zn31 O38 2.028 . S
O32 C28 1.258 1_554 S
O32 Zn33 2.035 . S
Zn33 O32 2.035 . S
Zn33 O34 2.028 . S
Zn33 O36 2.028 . S
Zn33 O39 2.035 . S
O34 Zn33 2.028 . S
O34 C40 1.247 . S
O35 Zn31 2.035 . S
O35 C40 1.258 1_556 S
O36 C29 1.247 . S
O36 Zn33 2.028 . S
O37 C29 1.258 1_556 S
O37 Zn31 2.035 . S
O38 Zn31 2.028 . S
O38 C41 1.247 . S
O39 Zn33 2.035 . S
O39 C41 1.258 1_554 S
C40 O34 1.247 . S
C40 O35 1.258 1_554 S
C41 O38 1.247 . S
C41 O39 1.258 1_556 S
C42 O44 1.247 . S
C42 O46 1.258 . S
C43 O50 1.247 . S
C43 O51 1.258 . S
O44 C42 1.247 . S
O44 Zn45 2.028 . S
Zn45 O44 2.028 . S
Zn45 O49 2.035 1_455 S
Zn45 O51 2.035 1_455 S
Zn45 O52 2.028 . S
O46 C42 1.258 . S
O46 Zn47 2.035 1_455 S
Zn47 O46 2.035 1_655 S
Zn47 O48 2.028 . S
Zn47 O50 2.028 . S
Zn47 O53 2.035 1_655 S
O48 Zn47 2.028 . S
O48 C54 1.247 . S
O49 Zn45 2.035 1_655 S
O49 C54 1.258 . S
O50 C43 1.247 . S
O50 Zn47 2.028 . S
O51 C43 1.258 . S
O51 Zn45 2.035 1_655 S
O52 Zn45 2.028 . S
O52 C55 1.247 . S
O53 Zn47 2.035 1_455 S
O53 C55 1.258 . S
C54 O48 1.247 . S
C54 O49 1.258 . S
C55 O52 1.247 . S
C55 O53 1.258 . S
C56 O58 1.247 . S
C56 O60 1.258 . S
C57 O64 1.247 . S
C57 O65 1.258 1_556 S
O58 C56 1.247 . S
O58 Zn59 2.028 1_565 S
Zn59 O58 2.028 1_545 S
Zn59 O63 2.035 . S
Zn59 O65 2.035 . S
Zn59 O66 2.028 1_545 S
O60 C56 1.258 . S
O60 Zn61 2.035 1_554 S
Zn61 O60 2.035 1_556 S
Zn61 O62 2.028 1_565 S
Zn61 O64 2.028 1_565 S
Zn61 O67 2.035 1_556 S
O62 Zn61 2.028 1_545 S
O62 C68 1.247 . S
O63 Zn59 2.035 . S
O63 C68 1.258 1_554 S
O64 C57 1.247 . S
O64 Zn61 2.028 1_545 S
O65 C57 1.258 1_554 S
O65 Zn59 2.035 . S
O66 Zn59 2.028 1_565 S
O66 C69 1.247 . S
O67 Zn61 2.035 1_554 S
O67 C69 1.258 . S
C68 O62 1.247 . S
C68 O63 1.258 1_556 S
C69 O66 1.247 . S
C69 O67 1.258 . S
C70 O72 1.247 . S
C70 O74 1.258 . S
C71 O78 1.247 . S
C71 O79 1.258 . S
O72 C70 1.247 . S
O72 Zn73 2.028 . S
Zn73 O72 2.028 . S
Zn73 O77 2.035 . S
Zn73 O79 2.035 . S
Zn73 O80 2.028 . S
O74 C70 1.258 . S
O74 Zn75 2.035 . S
Zn75 O74 2.035 . S
Zn75 O76 2.028 . S
Zn75 O78 2.028 . S
Zn75 O81 2.035 . S
O76 Zn75 2.028 . S
O76 C82 1.247 . S
O77 Zn73 2.035 . S
O77 C82 1.258 . S
O78 C71 1.247 . S
O78 Zn75 2.028 . S
O79 C71 1.258 . S
O79 Zn73 2.035 . S
O80 Zn73 2.028 . S
O80 C83 1.247 . S
O81 Zn75 2.035 . S
O81 C83 1.258 . S
C82 O76 1.247 . S
C82 O77 1.258 . S
C83 O80 1.247 . S
C83 O81 1.258 . S
H84 C90 0.930 . S
H85 C93 0.931 . S
H86 C95 0.931 . S
H87 C97 0.930 . S
H88 C99 0.930 . S
H89 C101 0.931 . S
C90 H84 0.930 . S
C90 C91 1.380 . S
C90 C92 1.394 . S
C91 C90 1.380 . S
C91 C95 1.382 . S
C92 C90 1.394 . S
C92 C93 1.400 . S
C93 H85 0.931 . S
C93 C92 1.400 . S
C93 C94 1.375 . S
C94 C93 1.375 . S
C94 C95 1.415 . S
C94 C96 1.501 . S
C95 H86 0.931 . S
C95 C91 1.382 . S
C95 C94 1.415 . S
C96 C94 1.501 . S
C96 C97 1.384 . S
C96 C101 1.408 . S
C97 H87 0.930 . S
C97 C96 1.384 . S
C97 C98 1.389 . S
C98 C97 1.389 . S
C98 C99 1.405 . S
C99 H88 0.930 . S
C99 C98 1.405 . S
C99 C100 1.364 . S
C100 C99 1.364 . S
C100 C101 1.400 . S
C101 H89 0.931 . S
C101 C96 1.408 . S
C101 C100 1.400 . S
H102 C108 0.930 . S
H103 C111 0.931 . S
H104 C113 0.931 . S
H105 C115 0.930 . S
H106 C117 0.930 . S
H107 C119 0.931 . S
C108 H102 0.930 . S
C108 C109 1.380 . S
C108 C110 1.394 . S
C109 C108 1.380 . S
C109 C113 1.382 . S
C110 C108 1.394 . S
C110 C111 1.400 . S
C111 H103 0.931 . S
C111 C110 1.400 . S
C111 C112 1.375 . S
C112 C111 1.375 . S
C112 C113 1.415 . S
C112 C114 1.501 . S
C113 H104 0.931 . S
C113 C109 1.382 . S
C113 C112 1.415 . S
C114 C112 1.501 . S
C114 C115 1.384 . S
C114 C119 1.408 . S
C115 H105 0.930 . S
C115 C114 1.384 . S
C115 C116 1.389 . S
C116 C115 1.389 . S
C116 C117 1.405 . S
C117 H106 0.930 . S
C117 C116 1.405 . S
C117 C118 1.364 . S
C118 C117 1.364 . S
C118 C119 1.400 . S
C119 H107 0.931 . S
C119 C114 1.408 . S
C119 C118 1.400 . S
H120 C126 0.930 . S
H121 C129 0.931 . S
H122 C131 0.931 . S
H123 C133 0.930 . S
H124 C135 0.930 . S
H125 C137 0.931 . S
C126 H120 0.930 . S
C126 C127 1.380 . S
C126 C128 1.394 . S
C127 C126 1.380 . S
C127 C131 1.382 . S
C128 C126 1.394 . S
C128 C129 1.400 . S
C129 H121 0.931 . S
C129 C128 1.400 . S
C129 C130 1.375 . S
C130 C129 1.375 . S
C130 C131 1.415 . S
C130 C132 1.501 . S
C131 H122 0.931 . S
C131 C127 1.382 . S
C131 C130 1.415 . S
C132 C130 1.501 . S
C132 C133 1.384 . S
C132 C137 1.408 . S
C133 H123 0.930 . S
C133 C132 1.384 . S
C133 C134 1.389 . S
C134 C133 1.389 . S
C134 C135 1.405 . S
C135 H124 0.930 . S
C135 C134 1.405 . S
C135 C136 1.364 . S
C136 C135 1.364 . S
C136 C137 1.400 . S
C137 H125 0.931 . S
C137 C132 1.408 . S
C137 C136 1.400 . S
H138 C144 0.930 . S
H139 C147 0.931 . S
H140 C149 0.931 . S
H141 C151 0.930 . S
H142 C153 0.930 . S
H143 C155 0.931 . S
C144 H138 0.930 . S
C144 C145 1.380 . S
C144 C146 1.394 . S
C145 C144 1.380 . S
C145 C149 1.382 . S
C146 C144 1.394 . S
C146 C147 1.400 . S
C147 H139 0.931 . S
C147 C146 1.400 . S
C147 C148 1.375 . S
C148 C147 1.375 . S
C148 C149 1.415 . S
C148 C150 1.501 . S
C149 H140 0.931 . S
C149 C145 1.382 . S
C149 C148 1.415 . S
C150 C148 1.501 . S
C150 C151 1.384 . S
C150 C155 1.408 . S
C151 H141 0.930 . S
C151 C150 1.384 . S
C151 C152 1.389 . S
C152 C151 1.389 . S
C152 C153 1.405 . S
C153 H142 0.930 . S
C153 C152 1.405 . S
C153 C154 1.364 . S
C154 C153 1.364 . S
C154 C155 1.400 . S
C155 H143 0.931 . S
C155 C150 1.408 . S
C155 C154 1.400 . S
H156 C162 0.930 . S
H157 C165 0.931 . S
H158 C167 0.931 . S
H159 C169 0.930 . S
H160 C171 0.930 . S
H161 C173 0.931 . S
C162 H156 0.930 . S
C162 C163 1.380 . S
C162 C164 1.394 . S
C163 C162 1.380 . S
C163 C167 1.382 . S
C164 C162 1.394 . S
C164 C165 1.400 . S
C165 H157 0.931 . S
C165 C164 1.400 . S
C165 C166 1.375 . S
C166 C165 1.375 . S
C166 C167 1.415 . S
C166 C168 1.501 . S
C167 H158 0.931 . S
C167 C163 1.382 . S
C167 C166 1.415 . S
C168 C166 1.501 . S
C168 C169 1.384 . S
C168 C173 1.408 . S
C169 H159 0.930 . S
C169 C168 1.384 . S
C169 C170 1.389 . S
C170 C169 1.389 . S
C170 C171 1.405 . S
C171 H160 0.930 . S
C171 C170 1.405 . S
C171 C172 1.364 . S
C172 C171 1.364 . S
C172 C173 1.400 . S
C173 H161 0.931 . S
C173 C168 1.408 . S
C173 C172 1.400 . S
H174 C180 0.930 . S
H175 C183 0.931 . S
H176 C185 0.931 . S
H177 C187 0.930 . S
H178 C189 0.930 . S
H179 C191 0.931 . S
C180 H174 0.930 . S
C180 C181 1.380 . S
C180 C182 1.394 . S
C181 C180 1.380 . S
C181 C185 1.382 . S
C182 C180 1.394 . S
C182 C183 1.400 . S
C183 H175 0.931 . S
C183 C182 1.400 . S
C183 C184 1.375 . S
C184 C183 1.375 . S
C184 C185 1.415 . S
C184 C186 1.501 . S
C185 H176 0.931 . S
C185 C181 1.382 . S
C185 C184 1.415 . S
C186 C184 1.501 . S
C186 C187 1.384 . S
C186 C191 1.408 . S
C187 H177 0.930 . S
C187 C186 1.384 . S
C187 C188 1.389 . S
C188 C187 1.389 . S
C188 C189 1.405 . S
C189 H178 0.930 . S
C189 C188 1.405 . S
C189 C190 1.364 . S
C190 C189 1.364 . S
C190 C191 1.400 . S
C191 H179 0.931 . S
C191 C186 1.408 . S
C191 C190 1.400 . S
C13 C98 1.587 . S
C27 C109 1.623 . S
C128 C29 1.604 . S
C145 C54 1.631 . S
C172 C69 1.635 . S
C181 C83 1.631 . S
C15 C134 1.591 . S
C41 C154 1.647 . S
C163 C42 1.617 . S
C190 C57 1.654 . S
C71 C92 1.600 . S
C118 C1 1.643 . S
C146 C12 1.787 . S
C26 C170 1.820 . S
C182 C28 1.782 . S
C55 C100 1.741 . S
C68 C110 1.795 . S
C82 C127 1.759 . S
C14 C188 1.805 . S
C91 C40 1.764 . S
C43 C116 1.819 . S
C56 C136 1.731 . S
C70 C152 1.809 . S
C0 C164 1.801 . S
