# Generated by pormake.
# Topology anh, (6,3)-cn, num edge types: 1
# Building blocks:
#     Node 0, Type 0, BuildingBlock: BETFAJ_clean_sbu_0, # of connection points: 6
#     Node 1, Type 0, BuildingBlock: BETFAJ_clean_sbu_0, # of connection points: 6
#     Node 2, Type 0, BuildingBlock: BETFAJ_clean_sbu_0, # of connection points: 6
#     Node 3, Type 1, BuildingBlock: ESEHIV_clean_linker_0, # of connection points: 3
#     Node 4, Type 1, BuildingBlock: ESEHIV_clean_linker_0, # of connection points: 3
#     Node 5, Type 1, BuildingBlock: ESEHIV_clean_linker_0, # of connection points: 3
#     Node 6, Type 1, BuildingBlock: ESEHIV_clean_linker_0, # of connection points: 3
#     Node 7, Type 1, BuildingBlock: ESEHIV_clean_linker_0, # of connection points: 3
#     Node 8, Type 1, BuildingBlock: ESEHIV_clean_linker_0, # of connection points: 3
#     Edge 9, Type (0, 1), None
#     Edge 10, Type (0, 1), None
#     Edge 11, Type (0, 1), None
#     Edge 12, Type (0, 1), None
#     Edge 13, Type (0, 1), None
#     Edge 14, Type (0, 1), None
#     Edge 15, Type (0, 1), None
#     Edge 16, Type (0, 1), None
#     Edge 17, Type (0, 1), None
#     Edge 18, Type (0, 1), None
#     Edge 19, Type (0, 1), None
#     Edge 20, Type (0, 1), None
#     Edge 21, Type (0, 1), None
#     Edge 22, Type (0, 1), None
#     Edge 23, Type (0, 1), None
#     Edge 24, Type (0, 1), None
#     Edge 25, Type (0, 1), None
#     Edge 26, Type (0, 1), None
# Relax obj value: 0.508
# Max RMSD: 0.355
# Mean RMSD: 0.227
data_MOF--net-anh--node1-BETFAJ_clean_sbu_0--node2-ESEHIV_clean_linker_0--edge1-none
_symmetry_space_group_name_H-M    P1
_symmetry_Int_Tables_number       1
_symmetry_cell_setting            triclinic
loop_
_symmetry_equiv_pos_as_xyz
'x, y, z'
_cell_length_a     12.265277
_cell_length_b     17.577982
_cell_length_c     22.347041
_cell_angle_alpha  90.656675
_cell_angle_beta   90.227043
_cell_angle_gamma 141.16908
loop_
_atom_site_label
_atom_site_type_symbol
_atom_site_fract_x
_atom_site_fract_y
_atom_site_fract_z
_atom_type_partial_charge
Sm0 Sm 0.49539 0.65565 0.15903 0.0
Sm1 Sm 1.22151 0.60047 0.19062 0.0
C2 C 0.80262 0.78783 0.11973 0.0
C3 C 0.97387 0.89752 0.14834 0.0
C4 C 1.12198 0.97086 0.11257 0.0
C5 C 1.24951 0.98727 0.13111 0.0
C6 C 1.19249 0.90317 0.17358 0.0
C7 C 1.12339 0.90445 0.22329 0.0
C8 C 0.99618 0.89026 0.20938 0.0
C9 C 0.46193 0.64709 0.28115 0.0
C10 C 0.59088 0.8893 0.18241 0.0
C11 C 0.96464 0.50308 0.26084 0.0
C12 C 0.77459 0.40493 0.25925 0.0
C13 C 0.71123 0.43598 0.2879 0.0
C14 C 0.64455 0.45769 0.25179 0.0
C15 C 0.64676 0.44724 0.18946 0.0
C16 C 0.62799 0.36155 0.16855 0.0
C17 C 0.69534 0.34035 0.20455 0.0
C18 C 1.24398 0.60134 0.06581 0.0
C19 C 1.12839 0.36551 0.17223 0.0
O20 O 0.71588 0.79802 0.09789 0.0
O21 O 0.70421 0.68613 0.14783 0.0
O22 O 0.45765 0.699 0.24509 0.0
O23 O 0.49043 0.59893 0.25358 0.0
O24 O 0.62616 0.84727 0.15062 0.0
O25 O 0.44113 0.80895 0.21042 0.0
O26 O 1.03288 0.47224 0.26227 0.0
O27 O 1.04351 0.59114 0.22371 0.0
O28 O 1.26238 0.55709 0.1019 0.0
O29 O 1.19581 0.63645 0.09473 0.0
O30 O 1.08099 0.40754 0.19141 0.0
O31 O 0.2887 0.4437 0.15168 0.0
H32 H 1.12233 0.99213 0.06723 0.0
H33 H 0.35066 1.02683 0.10023 0.0
H34 H 1.12187 0.87693 0.26671 0.0
H35 H 0.89624 0.84835 0.24154 0.0
H36 H 0.75597 0.47504 0.33286 0.0
H37 H 0.64004 0.51246 0.27025 0.0
H38 H 0.60929 0.33915 0.12122 0.0
H39 H 0.72711 0.30361 0.18362 0.0
Sm40 Sm 0.98232 0.14741 0.48052 0.0
Sm41 Sm 0.72352 0.11869 0.46117 0.0
C42 C 1.15274 0.11743 0.51574 0.0
C43 C 1.09075 1.01221 0.54208 0.0
C44 C 1.0044 0.96669 0.59661 0.0
C45 C 0.92354 0.85794 0.61765 0.0
C46 C 0.93083 0.79265 0.58556 0.0
C47 C 1.02355 0.8407 0.53186 0.0
C48 C 1.10069 0.94862 0.51 0.0
C49 C 0.94029 0.15739 0.3606 0.0
C50 C 0.58034 0.86937 0.46029 0.0
C51 C 0.53739 0.13925 0.43589 0.0
C52 C 0.53071 0.20401 0.47419 0.0
C53 C 0.53392 0.27886 0.44987 0.0
C54 C 0.56279 0.35816 0.48727 0.0
C55 C 0.59146 0.36476 0.54943 0.0
C56 C 0.58118 0.28557 0.5732 0.0
C57 C 0.55016 0.20611 0.53624 0.0
C58 C 0.7623 0.10934 0.58183 0.0
C59 C 1.14289 0.40223 0.46257 0.0
O60 O 1.14206 0.17345 0.54872 0.0
O61 O 1.10505 0.10259 0.46018 0.0
O62 O 0.81775 0.08096 0.39646 0.0
O63 O 1.09043 0.23215 0.38744 0.0
O64 O 0.72297 0.93731 0.49335 0.0
O65 O 0.56336 0.92527 0.43167 0.0
O66 O 0.68908 0.20895 0.41258 0.0
O67 O 0.46945 1.04095 0.45826 0.0
O68 O 0.88656 0.18459 0.54619 0.0
O69 O 0.615 1.03982 0.55468 0.0
O70 O 0.97971 0.3281 0.44622 0.0
O71 O 1.18247 0.35546 0.48297 0.0
H72 H 0.99288 1.01243 0.62207 0.0
H73 H 0.84985 0.82333 0.65823 0.0
H74 H 1.03479 0.79454 0.50619 0.0
H75 H 1.1639 0.98052 0.46719 0.0
H76 H 0.52013 0.27897 0.40198 0.0
H77 H 0.56575 0.41546 0.46719 0.0
H78 H 0.6073 0.28903 0.6201 0.0
H79 H 0.55091 0.15079 0.55622 0.0
Sm80 Sm 0.77963 0.62508 0.87727 0.0
Sm81 Sm 0.6597 0.50577 0.87803 0.0
C82 C 0.92084 0.82316 0.82629 0.0
C83 C 0.92277 0.90677 0.81725 0.0
C84 C 1.02925 0.99278 0.77253 0.0
C85 C 1.00538 1.05327 0.7507 0.0
C86 C 0.86802 1.02419 0.77104 0.0
C87 C 0.76586 0.94137 0.81799 0.0
C88 C 0.79404 0.88391 0.8412 0.0
C89 C 0.84108 0.65466 -0.00341 0.0
C90 C 0.43393 0.55684 0.87583 0.0
C91 C 0.48748 0.28269 0.88703 0.0
C92 C 0.52508 0.23252 0.85218 0.0
C93 C 0.6325 0.23471 0.87745 0.0
C94 C 0.69503 0.20856 0.84255 0.0
C95 C 0.64524 0.17292 0.78161 0.0
C96 C 0.53336 0.16767 0.75685 0.0
C97 C 0.47835 0.20024 0.7912 0.0
C98 C 0.6779 0.51713 0.75521 0.0
C99 C 0.9898 0.55839 0.8695 0.0
O100 O 0.78023 0.71281 0.80733 0.0
O101 O 0.98583 0.82855 0.87499 0.0
O102 O 0.69145 0.56911 0.97238 0.0
O103 O 0.96396 0.73147 0.9584 0.0
O104 O 0.50866 0.53925 0.90499 0.0
O105 O 0.50596 0.53803 0.9068 0.0
O106 O 0.60895 0.36956 0.92494 0.0
O107 O 0.42429 0.30621 0.85792 0.0
O108 O 0.79883 0.5674 0.79147 0.0
O109 O 0.54744 0.47517 0.78357 0.0
O110 O 0.94253 0.59941 0.89392 0.0
O111 O 0.9489 0.60281 0.89597 0.0
H112 H 1.12305 1.00685 0.75141 0.0
H113 H 1.08966 0.11882 0.71591 0.0
H114 H 0.65757 0.91536 0.83456 0.0
H115 H 0.70802 0.81589 0.8749 0.0
H116 H 0.67588 0.26277 0.9238 0.0
H117 H 0.78663 0.22007 0.86378 0.0
H118 H 0.48841 0.13957 0.71076 0.0
H119 H 0.40319 0.20346 0.76937 0.0
H120 H 0.66226 0.95929 0.29557 0.0
H121 H 1.16545 0.33259 0.2799 0.0
H122 H 0.84717 0.11963 0.1216 0.0
C123 C 0.76286 1.036 0.26764 0.0
C124 C 0.74067 1.02017 0.20521 0.0
C125 C 0.91693 0.14659 0.29465 0.0
C126 C 1.04798 0.2469 0.25882 0.0
C127 C 1.02226 0.2432 0.19706 0.0
C128 C 0.86893 0.12668 0.16941 0.0
H129 H 0.88447 0.72672 0.70091 0.0
H130 H 0.52562 0.34993 0.66871 0.0
H131 H 0.77631 0.59282 0.52027 0.0
C132 C 0.81448 0.65237 0.66924 0.0
C133 C 0.83413 0.67275 0.6075 0.0
C134 C 0.70147 0.53612 0.69077 0.0
C135 C 0.61421 0.4397 0.65096 0.0
C136 C 0.64883 0.46026 0.58929 0.0
C137 C 0.75434 0.57658 0.56771 0.0
H138 H 1.07337 0.59709 -0.01236 0.0
H139 H 0.39895 0.57495 -0.0032 0.0
H140 H 1.20127 0.54519 0.82482 0.0
C141 C 1.13972 0.58767 0.96425 0.0
C142 C 1.11879 0.57034 0.9015 0.0
C143 C 1.23622 0.58713 -0.00143 0.0
C144 C 0.32314 0.57268 0.96956 0.0
C145 C 0.31912 0.5598 0.90629 0.0
C146 C 1.21185 0.55715 0.87299 0.0
H147 H 1.26448 0.45546 0.35423 0.0
H148 H 0.60841 0.83224 0.35149 0.0
H149 H 0.33465 0.6333 0.51302 0.0
C150 C 0.3267 0.53616 0.3775 0.0
C151 C 0.28442 0.52842 0.43737 0.0
C152 C 0.43879 0.64423 0.34622 0.0
C153 C 0.51759 0.74868 0.37566 0.0
C154 C 0.48509 0.74864 0.43565 0.0
C155 C 0.36585 0.63667 0.4671 0.0
H156 H 0.68073 0.17966 0.65789 0.0
H157 H 0.87169 1.05556 0.65134 0.0
H158 H 0.74997 0.08983 0.82094 0.0
C159 C 0.71946 0.14998 0.6816 0.0
C160 C 0.71033 0.14201 0.74481 0.0
C161 C 0.77924 0.11975 0.648 0.0
C162 C 0.83312 0.08329 0.67771 0.0
C163 C 0.82378 0.07292 0.74038 0.0
C164 C 0.76123 0.10153 0.7731 0.0
H165 H 1.1439 0.8317 0.05486 0.0
H166 H 0.61745 0.47271 0.07405 0.0
H167 H 0.94955 0.68042 0.22974 0.0
C168 C 1.04152 0.75815 0.08412 0.0
C169 C 1.06564 0.7757 0.14679 0.0
C170 C 0.87541 0.65602 0.05924 0.0
C171 C 0.74248 0.5556 0.09423 0.0
C172 C 0.77121 0.56081 0.15528 0.0
C173 C 0.93109 0.67239 0.18167 0.0
loop_
_geom_bond_atom_site_label_1
_geom_bond_atom_site_label_2
_geom_bond_distance
_geom_bond_site_symmetry_2
_ccdc_geom_bond_type
Sm0 C2 2.846 . S
Sm0 O20 2.543 . S
Sm0 O21 2.450 . S
Sm0 O22 2.681 . S
Sm0 O23 2.464 . S
Sm0 O24 2.396 . S
Sm0 O28 2.386 . S
Sm0 O31 2.408 1_455 S
Sm1 C11 2.846 . S
Sm1 O22 2.386 1_655 S
Sm1 O25 2.408 1_655 S
Sm1 O26 2.543 . S
Sm1 O27 2.450 . S
Sm1 O28 2.681 1_655 S
Sm1 O29 2.464 . S
Sm1 O30 2.396 . S
C2 Sm0 2.846 . S
C2 C3 1.506 . S
C2 O20 1.261 . S
C2 O21 1.242 . S
C3 C2 1.506 . S
C3 C4 1.358 . S
C3 C8 1.382 . S
C4 C3 1.358 . S
C4 C5 1.385 . S
C4 H32 0.930 . S
C5 C4 1.385 . S
C5 C6 1.395 . S
C5 H33 0.929 . S
C6 C5 1.395 . S
C6 C7 1.335 . S
C7 C6 1.335 . S
C7 C8 1.398 . S
C7 H34 0.930 . S
C8 C3 1.382 . S
C8 C7 1.398 . S
C8 H35 0.929 . S
C9 O22 1.271 . S
C9 O23 1.251 . S
C10 O24 1.252 . S
C10 O25 1.272 . S
C11 Sm1 2.846 . S
C11 C12 1.506 . S
C11 O26 1.261 . S
C11 O27 1.242 . S
C12 C11 1.506 . S
C12 C13 1.358 . S
C12 C17 1.382 . S
C13 C12 1.358 . S
C13 C14 1.385 . S
C13 H36 0.930 . S
C14 C13 1.385 . S
C14 C15 1.395 . S
C14 H37 0.929 . S
C15 C14 1.395 . S
C15 C16 1.335 . S
C16 C15 1.335 . S
C16 C17 1.398 . S
C16 H38 0.930 . S
C17 C12 1.382 . S
C17 C16 1.398 . S
C17 H39 0.929 . S
C18 O28 1.271 . S
C18 O29 1.251 1_455 S
C19 O30 1.252 . S
C19 O31 1.272 . S
O20 Sm0 2.543 . S
O20 C2 1.261 . S
O21 Sm0 2.450 . S
O21 C2 1.242 . S
O22 Sm0 2.681 . S
O22 Sm1 2.386 1_455 S
O22 C9 1.271 . S
O23 Sm0 2.464 . S
O23 C9 1.251 . S
O24 Sm0 2.396 . S
O24 C10 1.252 . S
O25 Sm1 2.408 1_455 S
O25 C10 1.272 . S
O26 Sm1 2.543 . S
O26 C11 1.261 . S
O27 Sm1 2.450 . S
O27 C11 1.242 . S
O28 Sm0 2.386 . S
O28 Sm1 2.681 1_455 S
O28 C18 1.271 . S
O29 Sm1 2.464 . S
O29 C18 1.251 1_655 S
O30 Sm1 2.396 . S
O30 C19 1.252 . S
O31 Sm0 2.408 1_655 S
O31 C19 1.272 . S
H32 C4 0.930 . S
H33 C5 0.929 . S
H34 C7 0.930 . S
H35 C8 0.929 . S
H36 C13 0.930 . S
H37 C14 0.929 . S
H38 C16 0.930 . S
H39 C17 0.929 . S
Sm40 C42 2.846 1_545 S
Sm40 O60 2.543 1_545 S
Sm40 O61 2.450 1_545 S
Sm40 O62 2.681 . S
Sm40 O63 2.464 . S
Sm40 O64 2.396 1_545 S
Sm40 O68 2.386 . S
Sm40 O71 2.408 . S
Sm41 C51 2.846 . S
Sm41 O62 2.386 . S
Sm41 O65 2.408 1_545 S
Sm41 O66 2.543 . S
Sm41 O67 2.450 . S
Sm41 O68 2.681 . S
Sm41 O69 2.464 . S
Sm41 O70 2.396 . S
C42 Sm40 2.846 1_565 S
C42 C43 1.506 . S
C42 O60 1.261 . S
C42 O61 1.242 . S
C43 C42 1.506 . S
C43 C44 1.358 . S
C43 C48 1.382 . S
C44 C43 1.358 . S
C44 C45 1.385 . S
C44 H72 0.930 . S
C45 C44 1.385 . S
C45 C46 1.395 . S
C45 H73 0.929 . S
C46 C45 1.395 . S
C46 C47 1.335 . S
C47 C46 1.335 . S
C47 C48 1.398 . S
C47 H74 0.930 . S
C48 C43 1.382 . S
C48 C47 1.398 . S
C48 H75 0.929 . S
C49 O62 1.271 . S
C49 O63 1.251 . S
C50 O64 1.252 . S
C50 O65 1.272 . S
C51 Sm41 2.846 . S
C51 C52 1.506 . S
C51 O66 1.261 . S
C51 O67 1.242 . S
C52 C51 1.506 . S
C52 C53 1.358 . S
C52 C57 1.382 . S
C53 C52 1.358 . S
C53 C54 1.385 . S
C53 H76 0.930 . S
C54 C53 1.385 . S
C54 C55 1.395 . S
C54 H77 0.929 . S
C55 C54 1.395 . S
C55 C56 1.335 . S
C56 C55 1.335 . S
C56 C57 1.398 . S
C56 H78 0.930 . S
C57 C52 1.382 . S
C57 C56 1.398 . S
C57 H79 0.929 . S
C58 O68 1.271 . S
C58 O69 1.251 . S
C59 O70 1.252 . S
C59 O71 1.272 . S
O60 Sm40 2.543 1_565 S
O60 C42 1.261 . S
O61 Sm40 2.450 1_565 S
O61 C42 1.242 . S
O62 Sm40 2.681 . S
O62 Sm41 2.386 . S
O62 C49 1.271 . S
O63 Sm40 2.464 . S
O63 C49 1.251 . S
O64 Sm40 2.396 1_565 S
O64 C50 1.252 . S
O65 Sm41 2.408 1_565 S
O65 C50 1.272 . S
O66 Sm41 2.543 . S
O66 C51 1.261 . S
O67 Sm41 2.450 . S
O67 C51 1.242 . S
O68 Sm40 2.386 . S
O68 Sm41 2.681 . S
O68 C58 1.271 . S
O69 Sm41 2.464 . S
O69 C58 1.251 . S
O70 Sm41 2.396 . S
O70 C59 1.252 . S
O71 Sm40 2.408 . S
O71 C59 1.272 . S
H72 C44 0.930 . S
H73 C45 0.929 . S
H74 C47 0.930 . S
H75 C48 0.929 . S
H76 C53 0.930 . S
H77 C54 0.929 . S
H78 C56 0.930 . S
H79 C57 0.929 . S
Sm80 C82 2.846 . S
Sm80 O100 2.543 . S
Sm80 O101 2.450 . S
Sm80 O102 2.681 . S
Sm80 O103 2.464 1_556 S
Sm80 O104 2.396 . S
Sm80 O108 2.386 . S
Sm80 O111 2.408 . S
Sm81 C91 2.846 . S
Sm81 O102 2.386 . S
Sm81 O105 2.408 . S
Sm81 O106 2.543 . S
Sm81 O107 2.450 . S
Sm81 O108 2.681 . S
Sm81 O109 2.464 . S
Sm81 O110 2.396 . S
C82 Sm80 2.846 . S
C82 C83 1.506 . S
C82 O100 1.261 . S
C82 O101 1.242 . S
C83 C82 1.506 . S
C83 C84 1.358 . S
C83 C88 1.382 . S
C84 C83 1.358 . S
C84 C85 1.385 1_565 S
C84 H112 0.930 . S
C85 C84 1.385 1_545 S
C85 C86 1.395 . S
C85 H113 0.929 . S
C86 C85 1.395 . S
C86 C87 1.335 . S
C87 C86 1.335 . S
C87 C88 1.398 1_545 S
C87 H114 0.930 1_556 S
C88 C83 1.382 . S
C88 C87 1.398 1_565 S
C88 H115 0.929 1_556 S
C89 O102 1.271 1_554 S
C89 O103 1.251 . S
C90 O104 1.252 . S
C90 O105 1.272 . S
C91 Sm81 2.846 . S
C91 C92 1.506 . S
C91 O106 1.261 . S
C91 O107 1.242 . S
C92 C91 1.506 . S
C92 C93 1.358 . S
C92 C97 1.382 . S
C93 C92 1.358 . S
C93 C94 1.385 . S
C93 H116 0.930 . S
C94 C93 1.385 . S
C94 C95 1.395 . S
C94 H117 0.929 . S
C95 C94 1.395 . S
C95 C96 1.335 . S
C96 C95 1.335 . S
C96 C97 1.398 . S
C96 H118 0.930 . S
C97 C92 1.382 . S
C97 C96 1.398 . S
C97 H119 0.929 . S
C98 O108 1.271 . S
C98 O109 1.251 . S
C99 O110 1.252 . S
C99 O111 1.272 . S
O100 Sm80 2.543 . S
O100 C82 1.261 . S
O101 Sm80 2.450 . S
O101 C82 1.242 . S
O102 Sm80 2.681 . S
O102 Sm81 2.386 . S
O102 C89 1.271 1_556 S
O103 Sm80 2.464 1_554 S
O103 C89 1.251 . S
O104 Sm80 2.396 . S
O104 C90 1.252 . S
O105 Sm81 2.408 . S
O105 C90 1.272 . S
O106 Sm81 2.543 . S
O106 C91 1.261 . S
O107 Sm81 2.450 . S
O107 C91 1.242 . S
O108 Sm80 2.386 . S
O108 Sm81 2.681 . S
O108 C98 1.271 . S
O109 Sm81 2.464 . S
O109 C98 1.251 . S
O110 Sm81 2.396 . S
O110 C99 1.252 . S
O111 Sm80 2.408 . S
O111 C99 1.272 . S
H112 C84 0.930 . S
H113 C85 0.929 . S
H114 C87 0.930 1_554 S
H115 C88 0.929 1_554 S
H116 C93 0.930 . S
H117 C94 0.929 . S
H118 C96 0.930 . S
H119 C97 0.929 . S
H120 C123 0.931 . S
H121 C126 0.928 . S
H122 C128 0.930 . S
C123 H120 0.931 . S
C123 C124 1.413 . S
C123 C125 1.360 1_565 S
C124 C123 1.413 . S
C124 C128 1.429 1_565 S
C125 C123 1.360 1_545 S
C125 C126 1.372 . S
C126 H121 0.928 . S
C126 C125 1.372 . S
C126 C127 1.404 . S
C127 C126 1.404 . S
C127 C128 1.391 . S
C128 H122 0.930 . S
C128 C124 1.429 1_545 S
C128 C127 1.391 . S
H129 C132 0.931 . S
H130 C135 0.928 . S
H131 C137 0.930 . S
C132 H129 0.931 . S
C132 C133 1.413 . S
C132 C134 1.360 . S
C133 C132 1.413 . S
C133 C137 1.429 . S
C134 C132 1.360 . S
C134 C135 1.372 . S
C135 H130 0.928 . S
C135 C134 1.372 . S
C135 C136 1.404 . S
C136 C135 1.404 . S
C136 C137 1.391 . S
C137 H131 0.930 . S
C137 C133 1.429 . S
C137 C136 1.391 . S
H138 C141 0.931 1_654 S
H139 C144 0.928 1_554 S
H140 C146 0.930 . S
C141 H138 0.931 1_456 S
C141 C142 1.413 . S
C141 C143 1.360 1_556 S
C142 C141 1.413 . S
C142 C146 1.429 . S
C143 C141 1.360 1_554 S
C143 C144 1.372 1_554 S
C144 H139 0.928 1_556 S
C144 C143 1.372 1_556 S
C144 C145 1.404 . S
C145 C144 1.404 . S
C145 C146 1.391 . S
C146 H140 0.930 . S
C146 C142 1.429 . S
C146 C145 1.391 . S
H147 C150 0.931 . S
H148 C153 0.928 . S
H149 C155 0.930 . S
C150 H147 0.931 . S
C150 C151 1.413 . S
C150 C152 1.360 1_655 S
C151 C150 1.413 . S
C151 C155 1.429 1_655 S
C152 C150 1.360 1_455 S
C152 C153 1.372 . S
C153 H148 0.928 . S
C153 C152 1.372 . S
C153 C154 1.404 . S
C154 C153 1.404 . S
C154 C155 1.391 . S
C155 H149 0.930 . S
C155 C151 1.429 1_455 S
C155 C154 1.391 . S
H156 C159 0.931 . S
H157 C162 0.928 . S
H158 C164 0.930 . S
C159 H156 0.931 . S
C159 C160 1.413 . S
C159 C161 1.360 1_545 S
C160 C159 1.413 . S
C160 C164 1.429 . S
C161 C159 1.360 1_565 S
C161 C162 1.372 . S
C162 H157 0.928 . S
C162 C161 1.372 . S
C162 C163 1.404 . S
C163 C162 1.404 . S
C163 C164 1.391 1_565 S
C164 H158 0.930 . S
C164 C160 1.429 . S
C164 C163 1.391 1_545 S
H165 C168 0.931 1_556 S
H166 C171 0.928 1_556 S
H167 C173 0.930 . S
C168 H165 0.931 1_554 S
C168 C169 1.413 . S
C168 C170 1.360 1_554 S
C169 C168 1.413 . S
C169 C173 1.429 . S
C170 C168 1.360 1_556 S
C170 C171 1.372 1_556 S
C171 H166 0.928 1_554 S
C171 C170 1.372 1_554 S
C171 C172 1.404 . S
C172 C171 1.404 . S
C172 C173 1.391 . S
C173 H167 0.930 . S
C173 C169 1.429 . S
C173 C172 1.391 . S
C6 C169 5.201 . S
C59 C151 2.360 . S
C86 C163 4.632 1_545 S
C15 C172 3.748 . S
C154 C50 2.373 . S
C160 C95 2.387 . S
C46 C133 3.012 . S
C99 C142 4.651 1_655 S
C10 C124 2.647 . S
C136 C55 3.437 . S
C145 C90 4.700 . S
C19 C127 2.479 . S
C143 C18 1.985 . S
C49 C125 0.918 . S
C98 C134 1.271 . S
C161 C58 1.253 1_565 S
C170 C89 1.926 1_556 S
C9 C152 0.873 . S
