# Generated by pormake.
# Topology sit, (3,6)-cn, num edge types: 1
# Building blocks:
#     Node 0, Type 0, BuildingBlock: CUQRIR_clean_linker_1, # of connection points: 3
#     Node 1, Type 0, BuildingBlock: CUQRIR_clean_linker_1, # of connection points: 3
#     Node 2, Type 0, BuildingBlock: CUQRIR_clean_linker_1, # of connection points: 3
#     Node 3, Type 0, BuildingBlock: CUQRIR_clean_linker_1, # of connection points: 3
#     Node 4, Type 1, BuildingBlock: MIDCAF_clean_sbu_0, # of connection points: 6
#     Node 5, Type 1, BuildingBlock: MIDCAF_clean_sbu_0, # of connection points: 6
#     Edge 6, Type (0, 1), BuildingBlock: EYOCIG_clean_linker_4, # of connection points: 2
#     Edge 7, Type (0, 1), BuildingBlock: EYOCIG_clean_linker_4, # of connection points: 2
#     Edge 8, Type (0, 1), BuildingBlock: EYOCIG_clean_linker_4, # of connection points: 2
#     Edge 9, Type (0, 1), BuildingBlock: EYOCIG_clean_linker_4, # of connection points: 2
#     Edge 10, Type (0, 1), BuildingBlock: EYOCIG_clean_linker_4, # of connection points: 2
#     Edge 11, Type (0, 1), BuildingBlock: EYOCIG_clean_linker_4, # of connection points: 2
#     Edge 12, Type (0, 1), BuildingBlock: EYOCIG_clean_linker_4, # of connection points: 2
#     Edge 13, Type (0, 1), BuildingBlock: EYOCIG_clean_linker_4, # of connection points: 2
#     Edge 14, Type (0, 1), BuildingBlock: EYOCIG_clean_linker_4, # of connection points: 2
#     Edge 15, Type (0, 1), BuildingBlock: EYOCIG_clean_linker_4, # of connection points: 2
#     Edge 16, Type (0, 1), BuildingBlock: EYOCIG_clean_linker_4, # of connection points: 2
#     Edge 17, Type (0, 1), BuildingBlock: EYOCIG_clean_linker_4, # of connection points: 2
# Relax obj value: 0.072
# Max RMSD: 0.181
# Mean RMSD: 0.118
data_MOF--net-sit--node1-MIDCAF_clean_sbu_0--node2-CUQRIR_clean_linker_1--edge1-EYOCIG_clean_linker_4
_symmetry_space_group_name_H-M    P1
_symmetry_Int_Tables_number       1
_symmetry_cell_setting            triclinic
loop_
_symmetry_equiv_pos_as_xyz
'x, y, z'
_cell_length_a     15.497095
_cell_length_b     21.358896
_cell_length_c     29.265526
_cell_angle_alpha  89.959968
_cell_angle_beta   89.527564
_cell_angle_gamma 79.344702
loop_
_atom_site_label
_atom_site_type_symbol
_atom_site_fract_x
_atom_site_fract_y
_atom_site_fract_z
_atom_type_partial_charge
C0 C 0.01732 0.32028 0.00087 0.0
N1 N 0.04022 0.36504 -0.02692 0.0
N2 N 0.08675 0.29261 0.02596 0.0
C3 C 0.92613 0.30633 0.00569 0.0
C4 C 0.15302 0.32167 0.0122 0.0
N5 N 0.12436 0.36601 -0.01999 0.0
C6 C 0.24373 0.30853 0.03194 0.0
H7 H 0.88997 0.33839 0.03208 0.0
H8 H 0.92833 0.25632 0.01672 0.0
H9 H 0.89005 0.31496 -0.02698 0.0
H10 H 0.26957 0.25648 0.03123 0.0
H11 H 0.24024 0.32378 0.06826 0.0
H12 H 0.28929 0.33383 0.01304 0.0
C13 C 0.89871 0.84168 0.01523 0.0
N14 N 0.92843 0.79774 -0.01727 0.0
N15 N -0.03538 0.8705 0.02932 0.0
C16 C 0.80646 0.85582 0.03377 0.0
C17 C 0.035 0.84277 0.00437 0.0
N18 N 0.01297 0.79841 -0.02383 0.0
C19 C 0.12588 0.857 0.00948 0.0
H20 H 0.77017 0.89888 0.01647 0.0
H21 H 0.80663 0.86609 0.07093 0.0
H22 H 0.77174 0.81566 0.02753 0.0
H23 H 0.15748 0.83047 0.0394 0.0
H24 H 0.12249 0.90861 0.01593 0.0
H25 H 0.16685 0.84245 -0.02134 0.0
C26 C 0.51743 0.82019 0.50093 0.0
N27 N 0.54054 0.86484 0.4731 0.0
N28 N 0.5869 0.79217 0.52585 0.0
C29 C 0.42604 0.80668 0.50594 0.0
C30 C 0.6534 0.8209 0.51197 0.0
N31 N 0.62485 0.86538 0.47987 0.0
C32 C 0.74428 0.80727 0.5315 0.0
H33 H 0.39032 0.83885 0.5324 0.0
H34 H 0.42788 0.75672 0.51697 0.0
H35 H 0.38975 0.8155 0.47334 0.0
H36 H 0.76975 0.75517 0.53054 0.0
H37 H 0.74121 0.82221 0.56788 0.0
H38 H 0.78991 0.83251 0.51261 0.0
C39 C 0.39964 0.34127 0.51539 0.0
N40 N 0.42898 0.29714 0.48296 0.0
N41 N 0.46592 0.3697 0.52948 0.0
C42 C 0.30735 0.35601 0.53384 0.0
C43 C 0.53616 0.34154 0.50461 0.0
N44 N 0.51367 0.29731 0.47645 0.0
C45 C 0.6273 0.35527 0.5097 0.0
H46 H 0.27157 0.39918 0.51646 0.0
H47 H 0.30751 0.36637 0.57099 0.0
H48 H 0.27212 0.31611 0.52763 0.0
H49 H 0.65874 0.32853 0.53956 0.0
H50 H 0.62445 0.40681 0.51621 0.0
H51 H 0.66811 0.3406 0.47885 0.0
Zn52 Zn -0.00263 0.21257 0.3142 0.0
Zn53 Zn 0.05983 0.95427 0.31412 0.0
Zn54 Zn 0.0287 0.0832 0.31541 0.0
C55 C 0.02455 0.99701 0.22472 0.0
C56 C 0.9085 0.99682 0.3672 0.0
O57 O 0.13634 0.1145 0.3528 0.0
O58 O 0.09542 0.21959 0.35622 0.0
C59 C 0.03167 0.1696 0.22444 0.0
O60 O 0.0244 1.05134 0.24378 0.0
O61 O 0.03774 0.9463 0.24778 0.0
O62 O -0.03806 0.94672 0.35687 0.0
O63 O 0.92078 1.05176 0.35339 0.0
O64 O 0.01876 0.22037 0.24751 0.0
O65 O 0.03243 0.11528 0.2437 0.0
O66 O 0.90206 0.11843 0.35007 0.0
O67 O 0.87597 0.22311 0.33959 0.0
C68 C 0.85232 0.17347 0.35461 0.0
O69 O 0.15541 1.04778 0.34914 0.0
O70 O 0.18121 0.94315 0.33834 0.0
C71 C 0.14852 0.16946 0.36647 0.0
C72 C 0.20499 0.99266 0.35325 0.0
Zn73 Zn 0.49789 0.7129 0.81398 0.0
Zn74 Zn 0.55858 0.4546 0.81442 0.0
Zn75 Zn 0.52828 0.58352 0.81544 0.0
C76 C 0.52429 0.49695 0.72488 0.0
C77 C 0.40721 0.49786 0.86734 0.0
O78 O 0.63617 0.61457 0.85281 0.0
O79 O 0.59606 0.71973 0.85595 0.0
C80 C 0.53189 0.66944 0.7243 0.0
O81 O 0.52422 0.55132 0.74386 0.0
O82 O 0.53697 0.44634 0.74806 0.0
O83 O 0.46035 0.44759 0.85707 0.0
O84 O 0.41992 0.55267 0.85347 0.0
O85 O 0.51937 0.72031 0.74727 0.0
O86 O 0.53226 0.61525 0.74368 0.0
O87 O 0.4017 0.61935 0.84999 0.0
O88 O 0.37644 0.724 0.83937 0.0
C89 C 0.35234 0.67456 0.85444 0.0
O90 O 0.65481 0.54785 0.84923 0.0
O91 O 0.67988 0.44316 0.83876 0.0
C92 C 0.64879 0.66949 0.86633 0.0
C93 C 0.70403 0.49262 0.8535 0.0
C94 C 0.07841 0.21867 0.0962 0.0
C95 C 0.08459 0.25276 0.06397 0.0
C96 C 0.06415 0.18888 0.13791 0.0
C97 C 0.05011 0.17373 0.17654 0.0
C98 C -0.0279 0.94646 0.09828 0.0
C99 C -0.03452 0.91151 0.06673 0.0
C100 C -0.01183 0.97717 0.13916 0.0
C101 C 0.00401 0.99284 0.17727 0.0
C102 C 0.57855 0.71809 0.59601 0.0
C103 C 0.58473 0.75223 0.56381 0.0
C104 C 0.56432 0.68834 0.63773 0.0
C105 C 0.55026 0.67332 0.67639 0.0
C106 C 0.47361 0.44589 0.59831 0.0
C107 C 0.46704 0.41084 0.5668 0.0
C108 C 0.4892 0.47675 0.6392 0.0
C109 C 0.50449 0.49259 0.67734 0.0
C110 C 0.21665 0.44095 0.93966 0.0
C111 C 0.17305 0.40675 -0.04206 0.0
C112 C 0.27472 0.47362 0.91617 0.0
C113 C 0.33139 0.49167 0.89413 0.0
C114 C 0.8366 0.72522 0.94016 0.0
C115 C 0.87991 0.75835 -0.0405 0.0
C116 C 0.77933 0.69344 0.91578 0.0
C117 C 0.72343 0.67572 0.89343 0.0
C118 C 0.92843 0.43845 0.92133 0.0
C119 C -0.0164 0.40628 0.9444 0.0
C120 C 0.85436 0.46846 0.89673 0.0
C121 C 0.78541 0.48517 0.87762 0.0
C122 C 0.12633 0.72658 0.92343 0.0
C123 C 0.07031 0.75796 0.94689 0.0
C124 C 0.20129 0.69774 0.89841 0.0
C125 C 0.27064 0.68184 0.87894 0.0
C126 C 0.71771 0.93984 0.43941 0.0
C127 C 0.67381 0.90588 0.45773 0.0
C128 C 0.77603 0.9723 0.41595 0.0
C129 C 0.83275 0.99033 0.39394 0.0
C130 C 0.3364 0.22519 0.44036 0.0
C131 C 0.38001 0.25807 0.45972 0.0
C132 C 0.27897 0.19358 0.41593 0.0
C133 C 0.2231 0.17588 0.39355 0.0
C134 C 0.42903 0.93851 0.42137 0.0
C135 C 0.48407 0.9062 0.44443 0.0
C136 C 0.3551 0.96862 0.39669 0.0
C137 C 0.28621 0.98532 0.37751 0.0
C138 C 0.62651 0.22502 0.42372 0.0
C139 C 0.57067 0.25661 0.44717 0.0
C140 C 0.70138 0.19611 0.39867 0.0
C141 C 0.77071 0.18036 0.37916 0.0
loop_
_geom_bond_atom_site_label_1
_geom_bond_atom_site_label_2
_geom_bond_distance
_geom_bond_site_symmetry_2
_ccdc_geom_bond_type
C0 N1 1.317 . S
C0 N2 1.348 . S
C0 C3 1.485 1_455 S
N1 C0 1.317 . S
N1 N5 1.370 . S
N2 C0 1.348 . S
N2 C4 1.346 . S
C3 C0 1.485 1_655 S
C3 H7 0.960 . S
C3 H8 0.961 . S
C3 H9 0.960 . S
C4 N2 1.346 . S
C4 N5 1.307 . S
C4 C6 1.486 . S
N5 N1 1.370 . S
N5 C4 1.307 . S
C6 C4 1.486 . S
C6 H10 0.960 . S
C6 H11 0.960 . S
C6 H12 0.959 . S
H7 C3 0.960 . S
H8 C3 0.961 . S
H9 C3 0.960 . S
H10 C6 0.960 . S
H11 C6 0.960 . S
H12 C6 0.959 . S
C13 N14 1.317 . S
C13 N15 1.348 . S
C13 C16 1.485 . S
N14 C13 1.317 . S
N14 N18 1.370 1_655 S
N15 C13 1.348 . S
N15 C17 1.346 1_655 S
C16 C13 1.485 . S
C16 H20 0.960 . S
C16 H21 0.961 . S
C16 H22 0.960 . S
C17 N15 1.346 1_455 S
C17 N18 1.307 . S
C17 C19 1.486 . S
N18 N14 1.370 1_455 S
N18 C17 1.307 . S
C19 C17 1.486 . S
C19 H23 0.960 . S
C19 H24 0.960 . S
C19 H25 0.959 . S
H20 C16 0.960 . S
H21 C16 0.961 . S
H22 C16 0.960 . S
H23 C19 0.960 . S
H24 C19 0.960 . S
H25 C19 0.959 . S
C26 N27 1.317 . S
C26 N28 1.348 . S
C26 C29 1.485 . S
N27 C26 1.317 . S
N27 N31 1.370 . S
N28 C26 1.348 . S
N28 C30 1.346 . S
C29 C26 1.485 . S
C29 H33 0.960 . S
C29 H34 0.961 . S
C29 H35 0.960 . S
C30 N28 1.346 . S
C30 N31 1.307 . S
C30 C32 1.486 . S
N31 N27 1.370 . S
N31 C30 1.307 . S
C32 C30 1.486 . S
C32 H36 0.960 . S
C32 H37 0.960 . S
C32 H38 0.959 . S
H33 C29 0.960 . S
H34 C29 0.961 . S
H35 C29 0.960 . S
H36 C32 0.960 . S
H37 C32 0.960 . S
H38 C32 0.959 . S
C39 N40 1.317 . S
C39 N41 1.348 . S
C39 C42 1.485 . S
N40 C39 1.317 . S
N40 N44 1.370 . S
N41 C39 1.348 . S
N41 C43 1.346 . S
C42 C39 1.485 . S
C42 H46 0.960 . S
C42 H47 0.961 . S
C42 H48 0.960 . S
C43 N41 1.346 . S
C43 N44 1.307 . S
C43 C45 1.486 . S
N44 N40 1.370 . S
N44 C43 1.307 . S
C45 C43 1.486 . S
C45 H49 0.960 . S
C45 H50 0.960 . S
C45 H51 0.959 . S
H46 C42 0.960 . S
H47 C42 0.961 . S
H48 C42 0.960 . S
H49 C45 0.960 . S
H50 C45 0.960 . S
H51 C45 0.959 . S
Zn52 O58 1.920 . S
Zn52 O64 1.898 . S
Zn52 O67 1.905 1_455 S
Zn53 O61 1.905 . S
Zn53 O62 1.898 1_455 S
Zn53 O70 1.920 . S
Zn54 O57 2.080 . S
Zn54 O60 2.114 1_545 S
Zn54 O63 2.120 1_545 S
Zn54 O65 2.120 . S
Zn54 O66 2.114 1_455 S
Zn54 O69 2.080 1_545 S
C55 O60 1.166 . S
C55 O61 1.182 . S
C56 O62 1.167 . S
C56 O63 1.299 1_655 S
O57 Zn54 2.080 . S
O57 C71 1.305 . S
O58 Zn52 1.920 . S
O58 C71 1.234 . S
C59 O64 1.167 . S
C59 O65 1.299 . S
O60 Zn54 2.114 1_565 S
O60 C55 1.166 . S
O61 Zn53 1.905 . S
O61 C55 1.182 . S
O62 Zn53 1.898 1_655 S
O62 C56 1.167 . S
O63 Zn54 2.120 1_565 S
O63 C56 1.299 1_455 S
O64 Zn52 1.898 . S
O64 C59 1.167 . S
O65 Zn54 2.120 . S
O65 C59 1.299 . S
O66 Zn54 2.114 1_655 S
O66 C68 1.166 . S
O67 Zn52 1.905 1_655 S
O67 C68 1.182 . S
C68 O66 1.166 . S
C68 O67 1.182 . S
O69 Zn54 2.080 1_565 S
O69 C72 1.305 . S
O70 Zn53 1.920 . S
O70 C72 1.234 . S
C71 O57 1.305 . S
C71 O58 1.234 . S
C72 O69 1.305 . S
C72 O70 1.234 . S
Zn73 O79 1.920 . S
Zn73 O85 1.898 . S
Zn73 O88 1.905 . S
Zn74 O82 1.905 . S
Zn74 O83 1.898 . S
Zn74 O91 1.920 . S
Zn75 O78 2.080 . S
Zn75 O81 2.114 . S
Zn75 O84 2.120 . S
Zn75 O86 2.120 . S
Zn75 O87 2.114 . S
Zn75 O90 2.080 . S
C76 O81 1.166 . S
C76 O82 1.182 . S
C77 O83 1.167 . S
C77 O84 1.299 . S
O78 Zn75 2.080 . S
O78 C92 1.305 . S
O79 Zn73 1.920 . S
O79 C92 1.234 . S
C80 O85 1.167 . S
C80 O86 1.299 . S
O81 Zn75 2.114 . S
O81 C76 1.166 . S
O82 Zn74 1.905 . S
O82 C76 1.182 . S
O83 Zn74 1.898 . S
O83 C77 1.167 . S
O84 Zn75 2.120 . S
O84 C77 1.299 . S
O85 Zn73 1.898 . S
O85 C80 1.167 . S
O86 Zn75 2.120 . S
O86 C80 1.299 . S
O87 Zn75 2.114 . S
O87 C89 1.166 . S
O88 Zn73 1.905 . S
O88 C89 1.182 . S
C89 O87 1.166 . S
C89 O88 1.182 . S
O90 Zn75 2.080 . S
O90 C93 1.305 . S
O91 Zn74 1.920 . S
O91 C93 1.234 . S
C92 O78 1.305 . S
C92 O79 1.234 . S
C93 O90 1.305 . S
C93 O91 1.234 . S
C94 C95 1.170 . S
C94 C96 1.380 . S
C95 C94 1.170 . S
C96 C94 1.380 . S
C96 C97 1.170 . S
C97 C96 1.170 . S
C98 C99 1.170 1_455 S
C98 C100 1.380 . S
C99 C98 1.170 1_655 S
C100 C98 1.380 . S
C100 C101 1.170 . S
C101 C100 1.170 . S
C102 C103 1.170 . S
C102 C104 1.380 . S
C103 C102 1.170 . S
C104 C102 1.380 . S
C104 C105 1.170 . S
C105 C104 1.170 . S
C106 C107 1.170 . S
C106 C108 1.380 . S
C107 C106 1.170 . S
C108 C106 1.380 . S
C108 C109 1.170 . S
C109 C108 1.170 . S
C110 C111 1.170 . S
C110 C112 1.380 . S
C111 C110 1.170 . S
C112 C110 1.380 . S
C112 C113 1.170 . S
C113 C112 1.170 . S
C114 C115 1.170 . S
C114 C116 1.380 . S
C115 C114 1.170 . S
C116 C114 1.380 . S
C116 C117 1.170 . S
C117 C116 1.170 . S
C118 C119 1.170 1_655 S
C118 C120 1.380 . S
C119 C118 1.170 1_455 S
C120 C118 1.380 . S
C120 C121 1.170 . S
C121 C120 1.170 . S
C122 C123 1.170 . S
C122 C124 1.380 . S
C123 C122 1.170 . S
C124 C122 1.380 . S
C124 C125 1.170 . S
C125 C124 1.170 . S
C126 C127 1.170 . S
C126 C128 1.380 . S
C127 C126 1.170 . S
C128 C126 1.380 . S
C128 C129 1.170 . S
C129 C128 1.170 . S
C130 C131 1.170 . S
C130 C132 1.380 . S
C131 C130 1.170 . S
C132 C130 1.380 . S
C132 C133 1.170 . S
C133 C132 1.170 . S
C134 C135 1.170 . S
C134 C136 1.380 . S
C135 C134 1.170 . S
C136 C134 1.380 . S
C136 C137 1.170 . S
C137 C136 1.170 . S
C138 C139 1.170 . S
C138 C140 1.380 . S
C139 C138 1.170 . S
C140 C138 1.380 . S
C140 C141 1.170 . S
C141 C140 1.170 . S
C97 C59 1.370 . S
C95 N2 1.509 . S
C101 C55 1.398 . S
C99 N15 1.506 . S
C105 C80 1.366 . S
C103 N28 1.508 . S
C107 N41 1.508 . S
C109 C76 1.383 . S
C111 N5 1.344 1_556 S
C113 C77 1.210 . S
C117 C92 1.164 . S
C115 N14 1.367 1_556 S
C119 N1 1.703 1_556 S
C121 C93 1.554 . S
C125 C89 1.553 . S
C123 N18 1.710 1_556 S
C129 C56 1.169 . S
C127 N31 1.352 . S
C131 N40 1.367 . S
C133 C71 1.167 . S
C137 C72 1.519 . S
C135 N27 1.698 . S
C141 C68 1.589 . S
C139 N44 1.713 . S
