# Generated by pormake.
# Topology rtl, (3,6)-cn, num edge types: 1
# Building blocks:
#     Node 0, Type 0, BuildingBlock: PAMTOO_clean_linker_0, # of connection points: 3
#     Node 1, Type 0, BuildingBlock: PAMTOO_clean_linker_0, # of connection points: 3
#     Node 2, Type 0, BuildingBlock: PAMTOO_clean_linker_0, # of connection points: 3
#     Node 3, Type 0, BuildingBlock: PAMTOO_clean_linker_0, # of connection points: 3
#     Node 4, Type 1, BuildingBlock: FUNLAD_clean_sbu_0, # of connection points: 6
#     Node 5, Type 1, BuildingBlock: FUNLAD_clean_sbu_0, # of connection points: 6
#     Edge 6, Type (0, 1), BuildingBlock: OJICUG_clean_linker_0, # of connection points: 2
#     Edge 7, Type (0, 1), BuildingBlock: OJICUG_clean_linker_0, # of connection points: 2
#     Edge 8, Type (0, 1), BuildingBlock: OJICUG_clean_linker_0, # of connection points: 2
#     Edge 9, Type (0, 1), BuildingBlock: OJICUG_clean_linker_0, # of connection points: 2
#     Edge 10, Type (0, 1), BuildingBlock: OJICUG_clean_linker_0, # of connection points: 2
#     Edge 11, Type (0, 1), BuildingBlock: OJICUG_clean_linker_0, # of connection points: 2
#     Edge 12, Type (0, 1), BuildingBlock: OJICUG_clean_linker_0, # of connection points: 2
#     Edge 13, Type (0, 1), BuildingBlock: OJICUG_clean_linker_0, # of connection points: 2
#     Edge 14, Type (0, 1), BuildingBlock: OJICUG_clean_linker_0, # of connection points: 2
#     Edge 15, Type (0, 1), BuildingBlock: OJICUG_clean_linker_0, # of connection points: 2
#     Edge 16, Type (0, 1), BuildingBlock: OJICUG_clean_linker_0, # of connection points: 2
#     Edge 17, Type (0, 1), BuildingBlock: OJICUG_clean_linker_0, # of connection points: 2
# Relax obj value: 0.003
# Max RMSD: 0.035
# Mean RMSD: 0.027
data_MOF--net-rtl--node1-FUNLAD_clean_sbu_0--node2-PAMTOO_clean_linker_0--edge1-OJICUG_clean_linker_0
_symmetry_space_group_name_H-M    P1
_symmetry_Int_Tables_number       1
_symmetry_cell_setting            triclinic
loop_
_symmetry_equiv_pos_as_xyz
'x, y, z'
_cell_length_a     29.75474
_cell_length_b     30.576427
_cell_length_c     15.353283
_cell_angle_alpha  92.836457
_cell_angle_beta   90.988789
_cell_angle_gamma 90.046597
loop_
_atom_site_label
_atom_site_type_symbol
_atom_site_fract_x
_atom_site_fract_y
_atom_site_fract_z
_atom_type_partial_charge
H0 H 0.12356 0.93071 -0.00061 0.0
H1 H 0.20368 0.83782 0.13518 0.0
H2 H 0.20766 0.8395 0.85543 0.0
H3 H 0.21459 0.75267 0.91783 0.0
C4 C 0.22954 0.75962 -0.01602 0.0
O5 O 0.24093 0.80332 -0.00591 0.0
H6 H 0.20404 0.75168 0.03307 0.0
C7 C 0.14795 0.90432 -0.0017 0.0
C8 C 0.16382 0.88725 0.91831 0.0
C9 C 0.16167 0.88641 0.07662 0.0
C10 C 0.19251 0.8517 0.07494 0.0
C11 C 0.20963 0.83531 -0.00475 0.0
C12 C 0.19485 0.85272 0.9169 0.0
H13 H 0.62408 0.57571 0.50542 0.0
H14 H 0.70624 0.66745 0.37579 0.0
H15 H 0.70559 0.66907 0.65607 0.0
H16 H 0.70757 0.7561 0.57508 0.0
C17 C 0.7292 0.74745 0.51834 0.0
O18 O 0.74099 0.70389 0.51991 0.0
H19 H 0.70979 0.75334 0.45747 0.0
C20 C 0.64843 0.60221 0.50847 0.0
C21 C 0.66309 0.62015 0.58974 0.0
C22 C 0.66325 0.61944 0.43115 0.0
C23 C 0.6942 0.65412 0.43522 0.0
C24 C 0.70989 0.67161 0.51632 0.0
C25 C 0.6938 0.65509 0.59357 0.0
H26 H 0.92136 0.07864 0.01198 0.0
H27 H 0.84482 0.17445 0.87695 0.0
H28 H 0.84304 0.17449 0.15695 0.0
H29 H 0.75504 0.18803 0.08243 0.0
C30 C 0.76395 0.20131 0.01882 0.0
O31 O 0.80939 0.21041 0.01839 0.0
H32 H 0.75554 0.17601 0.96632 0.0
C33 C 0.89834 0.10616 0.01337 0.0
C34 C 0.88386 0.12429 0.09359 0.0
C35 C 0.88508 0.12445 0.93516 0.0
C36 C 0.85591 0.16047 0.93714 0.0
C37 C 0.84006 0.17787 0.01704 0.0
C38 C 0.85492 0.1605 0.09533 0.0
H39 H 0.42027 0.42864 0.48395 0.0
H40 H 0.34263 0.33261 0.61162 0.0
H41 H 0.34433 0.33152 0.33155 0.0
H42 H 0.25553 0.31446 0.39319 0.0
C43 C 0.2638 0.30412 0.46002 0.0
O44 O 0.30926 0.29572 0.46676 0.0
H45 H 0.25453 0.33138 0.50715 0.0
C46 C 0.39738 0.40094 0.48034 0.0
C47 C 0.38402 0.38237 0.39876 0.0
C48 C 0.38326 0.38282 0.55729 0.0
C49 C 0.35431 0.34653 0.55251 0.0
C50 C 0.3396 0.32866 0.4711 0.0
C51 C 0.35534 0.34587 0.39428 0.0
C52 C 0.06965 0.96147 0.37471 0.0
N53 N 0.09072 0.08294 0.5105 0.0
C54 C 0.13546 0.07462 0.50305 0.0
C55 C 0.16616 0.10912 0.49962 0.0
C56 C 0.15064 0.15253 0.50463 0.0
C57 C 0.10438 0.16008 0.51359 0.0
C58 C 0.0749 0.12471 0.51611 0.0
Zn59 Zn 0.04537 0.03257 0.50889 0.0
C60 C 0.97102 0.04555 0.38309 0.0
N61 N 0.95079 0.92678 0.50142 0.0
C62 C 0.96135 0.88341 0.49913 0.0
C63 C 0.90728 0.94029 0.50573 0.0
C64 C 0.87249 0.91004 0.50982 0.0
C65 C 0.88222 0.86516 0.50901 0.0
C66 C 0.92731 0.85181 0.50239 0.0
Zn67 Zn 0.99845 0.97545 0.50283 0.0
O68 O 0.08086 0.99904 0.40736 0.0
C69 C 0.07315 0.96281 0.62864 0.0
O70 O 0.03507 0.94246 0.4026 0.0
H71 H 0.89939 0.97481 0.50693 0.0
H72 H 0.14733 0.04117 0.4988 0.0
H73 H 0.99615 0.87336 0.49582 0.0
O74 O 0.08405 1.00033 0.6034 0.0
O75 O 0.03793 0.94396 0.59704 0.0
H76 H 0.03921 0.13066 0.52121 0.0
O77 O 0.96294 0.00926 0.60454 0.0
O78 O 1.00908 0.06526 0.60915 0.0
O79 O 0.9601 0.00789 0.40723 0.0
O80 O 1.00603 0.06411 0.41559 0.0
C81 C 0.97438 0.0467 0.63703 0.0
H82 H 0.20162 0.10192 0.4933 0.0
H83 H 0.09091 0.19301 0.51635 0.0
H84 H 0.83817 0.92173 0.51322 0.0
H85 H 0.93619 0.81746 0.50175 0.0
C86 C 0.47208 0.46096 0.86146 0.0
N87 N 0.59004 0.42373 -0.01099 0.0
C88 C 0.57392 0.38204 0.98146 0.0
C89 C 0.6033 0.34653 0.98162 0.0
C90 C 0.64978 0.35387 -0.00979 0.0
C91 C 0.66558 0.39722 -0.00231 0.0
C92 C 0.63496 0.43186 -0.00342 0.0
Zn93 Zn 0.54497 0.47426 -0.00816 0.0
C94 C 0.57153 0.54461 0.87304 0.0
N95 N 0.45099 0.58034 -0.0007 0.0
C96 C 0.40731 0.56716 0.00061 0.0
C97 C 0.46186 0.6236 -0.00103 0.0
C98 C 0.42796 0.65545 -5e-05 0.0
C99 C 0.38264 0.64251 0.00222 0.0
C100 C 0.37263 0.5977 0.00243 0.0
Zn101 Zn 0.49833 0.53145 -0.00374 0.0
O102 O 0.50712 0.44251 0.89019 0.0
C103 C 0.47226 0.46078 0.11523 0.0
O104 O 0.46088 0.49834 0.89379 0.0
H105 H 0.49678 0.6334 -0.00225 0.0
H106 H 0.5381 0.37622 0.97624 0.0
H107 H 0.39916 0.53268 -0.00032 0.0
O108 O 0.50675 0.44204 0.08354 0.0
O109 O 0.46146 0.49853 0.09098 0.0
H110 H 0.64705 0.46526 0.00236 0.0
O111 O 0.53673 0.56375 0.09737 0.0
O112 O 0.58195 0.50687 0.09479 0.0
O113 O 0.53649 0.56336 0.90302 0.0
O114 O 0.58262 0.50717 0.89896 0.0
C115 C 0.57132 0.54454 0.12679 0.0
H116 H 0.58965 0.31363 0.97701 0.0
H117 H 0.70121 0.40426 0.00382 0.0
H118 H 0.43707 0.68974 -0.0001 0.0
H119 H 0.33817 0.58623 0.00246 0.0
C120 C 0.24264 0.22539 0.42331 0.0
C121 C 0.23717 0.26361 0.47654 0.0
H122 H 0.21957 0.16013 0.39059 0.0
C123 C 0.20466 0.26437 0.54178 0.0
H124 H 0.26731 0.22426 0.37217 0.0
C125 C 0.17736 0.2279 0.55231 0.0
C126 C 0.18205 0.1899 0.49787 0.0
H127 H 0.19976 0.29349 0.58362 0.0
H128 H 0.15226 0.22957 0.60264 0.0
C129 C 0.21547 0.18876 0.43412 0.0
C130 C 0.30806 0.7372 0.94024 0.0
C131 C 0.27083 0.73167 -0.00627 0.0
H132 H 0.37294 0.71354 0.90149 0.0
C133 C 0.27165 0.69816 0.05299 0.0
H134 H 0.30796 0.76263 0.89354 0.0
C135 C 0.30858 0.67014 0.05748 0.0
C136 C 0.34551 0.67498 0.00275 0.0
H137 H 0.24336 0.69313 0.09484 0.0
H138 H 0.30803 0.64429 0.10322 0.0
C139 C 0.34521 0.70929 0.94507 0.0
C140 C 0.7737 0.81292 0.57778 0.0
C141 C 0.77073 0.77577 0.52054 0.0
H142 H 0.81169 0.86973 0.62009 0.0
C143 C 0.80553 0.76717 0.46134 0.0
H144 H 0.74718 0.8205 0.62354 0.0
C145 C 0.8426 0.79535 0.45933 0.0
C146 C 0.8451 0.83303 0.5155 0.0
H147 H 0.80363 0.73904 0.41568 0.0
H148 H 0.8685 0.78849 0.41187 0.0
C149 C 0.8105 0.84118 0.57541 0.0
C150 C 0.70274 0.24273 0.94263 0.0
C151 C 0.73704 0.24226 0.00651 0.0
H152 H 0.64874 0.27868 0.8865 0.0
C153 C 0.74372 0.27935 0.06287 0.0
H154 H 0.69672 0.21442 0.89872 0.0
C155 C 0.71624 0.31617 0.056 0.0
C156 C 0.68123 0.3163 -0.0067 0.0
H157 H 0.76963 0.27945 0.11334 0.0
H158 H 0.72142 0.34393 0.10168 0.0
C159 C 0.67514 0.27937 0.93604 0.0
C160 C 0.11516 0.87766 0.20859 0.0
C161 C 0.14248 0.90399 0.15905 0.0
H162 H 0.06992 0.87542 0.31558 0.0
C163 C 0.14755 0.94855 0.18338 0.0
H164 H 0.1105 0.84327 0.19016 0.0
C165 C 0.12491 0.96682 0.25518 0.0
C166 C 0.09601 0.94103 0.3029 0.0
H167 H 0.16834 0.96941 0.1456 0.0
H168 H 0.12893 1.0015 0.27147 0.0
C169 C 0.09175 0.89612 0.27964 0.0
C170 C 0.61717 0.62873 0.72408 0.0
C171 C 0.64464 0.6026 0.66946 0.0
H172 H 0.57181 0.63064 0.83122 0.0
C173 C 0.65009 0.55813 0.68537 0.0
H174 H 0.61219 0.66303 0.71212 0.0
C175 C 0.62755 0.5397 0.75364 0.0
C176 C 0.59834 0.56525 0.80605 0.0
H177 H 0.67096 0.53741 0.64348 0.0
H178 H 0.63171 0.50507 0.76321 0.0
C179 C 0.59387 0.61011 0.79149 0.0
C180 C 0.92688 0.1313 0.23437 0.0
C181 C 0.90069 0.10567 0.17464 0.0
H182 H 0.97025 0.13211 0.34724 0.0
C183 C 0.89496 0.0609 0.18756 0.0
H184 H 0.93199 0.16583 0.22499 0.0
C185 C 0.9163 0.04168 0.25772 0.0
C186 C 0.9445 0.06678 0.31499 0.0
H187 H 0.87493 0.04059 0.14189 0.0
H188 H 0.91222 0.00684 0.26489 0.0
C189 C 0.94896 0.11193 0.30366 0.0
C190 C 0.39519 0.44601 0.66394 0.0
C191 C 0.40074 0.40131 0.64165 0.0
H192 H 0.41297 0.49987 0.75214 0.0
C193 C 0.42737 0.3756 0.69528 0.0
H194 H 0.37487 0.46638 0.62303 0.0
C195 C 0.44995 0.39483 0.76803 0.0
C196 C 0.44556 0.4399 0.78894 0.0
H197 H 0.43237 0.34112 0.67859 0.0
H198 H 0.47148 0.3746 0.80693 0.0
C199 C 0.41703 0.46508 0.73755 0.0
C200 C 0.61811 0.62828 0.29467 0.0
C201 C 0.64451 0.60173 0.34714 0.0
H202 H 0.57352 0.63077 0.18382 0.0
C203 C 0.6488 0.55701 0.32401 0.0
H204 H 0.61405 0.6628 0.31212 0.0
C205 C 0.6262 0.5388 0.2505 0.0
C206 C 0.59809 0.56484 0.19993 0.0
H207 H 0.66886 0.536 0.36406 0.0
H208 H 0.62948 0.50399 0.23519 0.0
C209 C 0.59472 0.60989 0.22196 0.0
C210 C 0.93035 0.13182 0.80144 0.0
C211 C 0.90324 0.10607 0.85251 0.0
H212 H 0.97483 0.13295 0.69326 0.0
C213 C 0.89751 0.06143 0.82939 0.0
H214 H 0.93548 0.16625 0.81885 0.0
C215 C 0.91947 0.04248 0.75741 0.0
C216 C 0.94831 0.06769 0.70845 0.0
H217 H 0.8768 0.04104 0.86831 0.0
H218 H 0.9151 0.00776 0.74207 0.0
C219 C 0.95306 0.11268 0.73029 0.0
C220 C 0.4281 0.37526 0.26204 0.0
C221 C 0.40163 0.40093 0.31933 0.0
H222 H 0.47183 0.37433 0.15256 0.0
C223 C 0.39604 0.44565 0.30563 0.0
H224 H 0.4331 0.34077 0.27207 0.0
C225 C 0.41766 0.46477 0.23706 0.0
C226 C 0.446 0.43964 0.18216 0.0
H227 H 0.37578 0.46599 0.34936 0.0
H228 H 0.41354 0.49956 0.2292 0.0
C229 C 0.45045 0.39455 0.19434 0.0
C230 C 0.11924 0.87866 0.77947 0.0
C231 C 0.14599 0.90495 0.83711 0.0
H232 H 0.07455 0.87658 0.66831 0.0
C233 C 0.15107 0.94959 0.82249 0.0
H234 H 0.11455 0.84423 0.79037 0.0
C235 C 0.12877 0.968 0.75247 0.0
C236 C 0.10016 0.94225 0.69706 0.0
H237 H 0.17137 0.97042 0.86673 0.0
H238 H 0.13252 1.00276 0.74394 0.0
C239 C 0.09616 0.89724 0.71033 0.0
loop_
_geom_bond_atom_site_label_1
_geom_bond_atom_site_label_2
_geom_bond_distance
_geom_bond_site_symmetry_2
_ccdc_geom_bond_type
H0 C7 0.929 . S
H1 C10 0.930 . S
H2 C12 0.929 . S
H3 C4 0.969 . S
C4 H3 0.969 . S
C4 O5 1.550 1_554 S
C4 H6 0.973 . S
O5 C4 1.550 1_556 S
O5 C11 1.412 1_556 S
H6 C4 0.973 . S
C7 H0 0.929 . S
C7 C8 1.400 1_554 S
C7 C9 1.364 . S
C8 C7 1.400 1_556 S
C8 C12 1.377 . S
C9 C7 1.364 . S
C9 C10 1.374 . S
C10 H1 0.930 . S
C10 C9 1.374 . S
C10 C11 1.383 . S
C11 O5 1.412 1_554 S
C11 C10 1.383 . S
C11 C12 1.394 1_554 S
C12 H2 0.929 . S
C12 C8 1.377 . S
C12 C11 1.394 1_556 S
H13 C20 0.929 . S
H14 C23 0.930 . S
H15 C25 0.929 . S
H16 C17 0.969 . S
C17 H16 0.969 . S
C17 O18 1.550 . S
C17 H19 0.973 . S
O18 C17 1.550 . S
O18 C24 1.412 . S
H19 C17 0.973 . S
C20 H13 0.929 . S
C20 C21 1.400 . S
C20 C22 1.364 . S
C21 C20 1.400 . S
C21 C25 1.377 . S
C22 C20 1.364 . S
C22 C23 1.374 . S
C23 H14 0.930 . S
C23 C22 1.374 . S
C23 C24 1.383 . S
C24 O18 1.412 . S
C24 C23 1.383 . S
C24 C25 1.394 . S
C25 H15 0.929 . S
C25 C21 1.377 . S
C25 C24 1.394 . S
H26 C33 0.930 . S
H27 C36 0.930 . S
H28 C38 0.929 . S
H29 C30 0.969 . S
C30 H29 0.969 . S
C30 O31 1.550 1_556 S
C30 H32 0.973 . S
O31 C30 1.550 1_554 S
O31 C37 1.412 . S
H32 C30 0.973 . S
C33 H26 0.930 . S
C33 C34 1.400 . S
C33 C35 1.364 1_554 S
C34 C33 1.400 . S
C34 C38 1.377 . S
C35 C33 1.364 1_556 S
C35 C36 1.374 . S
C36 H27 0.930 . S
C36 C35 1.374 . S
C36 C37 1.383 1_556 S
C37 O31 1.412 . S
C37 C36 1.383 1_554 S
C37 C38 1.394 . S
C38 H28 0.929 . S
C38 C34 1.377 . S
C38 C37 1.394 . S
H39 C46 0.929 . S
H40 C49 0.930 . S
H41 C51 0.929 . S
H42 C43 0.969 . S
C43 H42 0.969 . S
C43 O44 1.550 . S
C43 H45 0.973 . S
O44 C43 1.550 . S
O44 C50 1.412 . S
H45 C43 0.973 . S
C46 H39 0.929 . S
C46 C47 1.400 . S
C46 C48 1.364 . S
C47 C46 1.400 . S
C47 C51 1.377 . S
C48 C46 1.364 . S
C48 C49 1.374 . S
C49 H40 0.930 . S
C49 C48 1.374 . S
C49 C50 1.383 . S
C50 O44 1.412 . S
C50 C49 1.383 . S
C50 C51 1.394 . S
C51 H41 0.929 . S
C51 C47 1.377 . S
C51 C50 1.394 . S
C52 O68 1.251 . S
C52 O70 1.254 . S
N53 C54 1.333 . S
N53 C58 1.307 . S
N53 Zn59 2.020 . S
C54 N53 1.333 . S
C54 C55 1.379 . S
C54 H72 0.952 . S
C55 C54 1.379 . S
C55 C56 1.390 . S
C55 H82 0.949 . S
C56 C55 1.390 . S
C56 C57 1.357 . S
C57 C56 1.357 . S
C57 C58 1.370 . S
C57 H83 0.950 . S
C58 N53 1.307 . S
C58 C57 1.370 . S
C58 H76 0.948 . S
Zn59 N53 2.020 . S
Zn59 O68 2.039 1_545 S
Zn59 O74 2.034 1_545 S
Zn59 O78 2.025 1_455 S
Zn59 O80 2.024 1_455 S
C60 O79 1.246 . S
C60 O80 1.249 . S
N61 C62 1.307 . S
N61 C63 1.333 . S
N61 Zn67 2.020 . S
C62 N61 1.307 . S
C62 C66 1.370 . S
C62 H73 0.948 . S
C63 N61 1.333 . S
C63 C64 1.379 . S
C63 H71 0.952 . S
C64 C63 1.379 . S
C64 C65 1.390 . S
C64 H84 0.949 . S
C65 C64 1.390 . S
C65 C66 1.357 . S
C66 C62 1.370 . S
C66 C65 1.357 . S
C66 H85 0.950 . S
Zn67 N61 2.020 . S
Zn67 O70 2.025 1_655 S
Zn67 O75 2.024 1_655 S
Zn67 O77 2.039 1_565 S
Zn67 O79 2.034 1_565 S
O68 C52 1.251 . S
O68 Zn59 2.039 1_565 S
C69 O74 1.246 . S
C69 O75 1.249 . S
O70 C52 1.254 . S
O70 Zn67 2.025 1_455 S
H71 C63 0.952 . S
H72 C54 0.952 . S
H73 C62 0.948 . S
O74 Zn59 2.034 1_565 S
O74 C69 1.246 . S
O75 Zn67 2.024 1_455 S
O75 C69 1.249 . S
H76 C58 0.948 . S
O77 Zn67 2.039 1_545 S
O77 C81 1.251 . S
O78 Zn59 2.025 1_655 S
O78 C81 1.254 . S
O79 C60 1.246 . S
O79 Zn67 2.034 1_545 S
O80 Zn59 2.024 1_655 S
O80 C60 1.249 . S
C81 O77 1.251 . S
C81 O78 1.254 . S
H82 C55 0.949 . S
H83 C57 0.950 . S
H84 C64 0.949 . S
H85 C66 0.950 . S
C86 O102 1.251 . S
C86 O104 1.254 . S
N87 C88 1.333 1_554 S
N87 C92 1.307 . S
N87 Zn93 2.020 . S
C88 N87 1.333 1_556 S
C88 C89 1.379 . S
C88 H106 0.952 . S
C89 C88 1.379 . S
C89 C90 1.390 1_556 S
C89 H116 0.949 . S
C90 C89 1.390 1_554 S
C90 C91 1.357 . S
C91 C90 1.357 . S
C91 C92 1.370 . S
C91 H117 0.950 . S
C92 N87 1.307 . S
C92 C91 1.370 . S
C92 H110 0.948 . S
Zn93 N87 2.020 . S
Zn93 O102 2.039 1_554 S
Zn93 O108 2.034 . S
Zn93 O112 2.025 . S
Zn93 O114 2.024 1_554 S
C94 O113 1.246 . S
C94 O114 1.249 . S
N95 C96 1.307 1_554 S
N95 C97 1.333 . S
N95 Zn101 2.020 . S
C96 N95 1.307 1_556 S
C96 C100 1.370 . S
C96 H107 0.948 . S
C97 N95 1.333 . S
C97 C98 1.379 . S
C97 H105 0.952 . S
C98 C97 1.379 . S
C98 C99 1.390 . S
C98 H118 0.949 . S
C99 C98 1.390 . S
C99 C100 1.357 1_554 S
C100 C96 1.370 . S
C100 C99 1.357 1_556 S
C100 H119 0.950 . S
Zn101 N95 2.020 . S
Zn101 O104 2.025 1_554 S
Zn101 O109 2.024 . S
Zn101 O111 2.039 . S
Zn101 O113 2.034 1_554 S
O102 C86 1.251 . S
O102 Zn93 2.039 1_556 S
C103 O108 1.246 . S
C103 O109 1.249 . S
O104 C86 1.254 . S
O104 Zn101 2.025 1_556 S
H105 C97 0.952 . S
H106 C88 0.952 . S
H107 C96 0.948 . S
O108 Zn93 2.034 . S
O108 C103 1.246 . S
O109 Zn101 2.024 . S
O109 C103 1.249 . S
H110 C92 0.948 . S
O111 Zn101 2.039 . S
O111 C115 1.251 . S
O112 Zn93 2.025 . S
O112 C115 1.254 . S
O113 C94 1.246 . S
O113 Zn101 2.034 1_556 S
O114 Zn93 2.024 1_556 S
O114 C94 1.249 . S
C115 O111 1.251 . S
C115 O112 1.254 . S
H116 C89 0.949 . S
H117 C91 0.950 . S
H118 C98 0.949 . S
H119 C100 0.950 . S
C120 C121 1.387 . S
C120 H124 0.950 . S
C120 C129 1.390 . S
C121 C120 1.387 . S
C121 C123 1.387 . S
H122 C129 0.950 . S
C123 C121 1.387 . S
C123 C125 1.390 . S
C123 H127 0.950 . S
H124 C120 0.950 . S
C125 C123 1.390 . S
C125 C126 1.387 . S
C125 H128 0.950 . S
C126 C125 1.387 . S
C126 C129 1.387 . S
H127 C123 0.950 . S
H128 C125 0.950 . S
C129 C120 1.390 . S
C129 H122 0.950 . S
C129 C126 1.387 . S
C130 C131 1.387 1_556 S
C130 H134 0.950 . S
C130 C139 1.390 . S
C131 C130 1.387 1_554 S
C131 C133 1.387 . S
H132 C139 0.950 . S
C133 C131 1.387 . S
C133 C135 1.390 . S
C133 H137 0.950 . S
H134 C130 0.950 . S
C135 C133 1.390 . S
C135 C136 1.387 . S
C135 H138 0.950 . S
C136 C135 1.387 . S
C136 C139 1.387 1_554 S
H137 C133 0.950 . S
H138 C135 0.950 . S
C139 C130 1.390 . S
C139 H132 0.950 . S
C139 C136 1.387 1_556 S
C140 C141 1.387 . S
C140 H144 0.950 . S
C140 C149 1.390 . S
C141 C140 1.387 . S
C141 C143 1.387 . S
H142 C149 0.950 . S
C143 C141 1.387 . S
C143 C145 1.390 . S
C143 H147 0.950 . S
H144 C140 0.950 . S
C145 C143 1.390 . S
C145 C146 1.387 . S
C145 H148 0.950 . S
C146 C145 1.387 . S
C146 C149 1.387 . S
H147 C143 0.950 . S
H148 C145 0.950 . S
C149 C140 1.390 . S
C149 H142 0.950 . S
C149 C146 1.387 . S
C150 C151 1.387 . S
C150 H154 0.950 . S
C150 C159 1.390 . S
C151 C150 1.387 . S
C151 C153 1.387 1_556 S
H152 C159 0.950 . S
C153 C151 1.387 1_554 S
C153 C155 1.390 . S
C153 H157 0.950 . S
H154 C150 0.950 . S
C155 C153 1.390 . S
C155 C156 1.391 . S
C155 H158 0.950 . S
C156 C155 1.391 . S
C156 C159 1.384 1_554 S
H157 C153 0.950 . S
H158 C155 0.950 . S
C159 C150 1.390 . S
C159 H152 0.950 . S
C159 C156 1.384 1_556 S
C160 C161 1.387 . S
C160 H164 0.950 . S
C160 C169 1.390 . S
C161 C160 1.387 . S
C161 C163 1.387 . S
H162 C169 0.950 . S
C163 C161 1.387 . S
C163 C165 1.390 . S
C163 H167 0.950 . S
H164 C160 0.950 . S
C165 C163 1.390 . S
C165 C166 1.387 . S
C165 H168 0.950 . S
C166 C165 1.387 . S
C166 C169 1.387 . S
H167 C163 0.950 . S
H168 C165 0.950 . S
C169 C160 1.390 . S
C169 H162 0.950 . S
C169 C166 1.387 . S
C170 C171 1.387 . S
C170 H174 0.950 . S
C170 C179 1.390 . S
C171 C170 1.387 . S
C171 C173 1.387 . S
H172 C179 0.950 . S
C173 C171 1.387 . S
C173 C175 1.390 . S
C173 H177 0.950 . S
H174 C170 0.950 . S
C175 C173 1.390 . S
C175 C176 1.387 . S
C175 H178 0.950 . S
C176 C175 1.387 . S
C176 C179 1.387 . S
H177 C173 0.950 . S
H178 C175 0.950 . S
C179 C170 1.390 . S
C179 H172 0.950 . S
C179 C176 1.387 . S
C180 C181 1.387 . S
C180 H184 0.950 . S
C180 C189 1.390 . S
C181 C180 1.387 . S
C181 C183 1.387 . S
H182 C189 0.950 . S
C183 C181 1.387 . S
C183 C185 1.390 . S
C183 H187 0.950 . S
H184 C180 0.950 . S
C185 C183 1.390 . S
C185 C186 1.387 . S
C185 H188 0.950 . S
C186 C185 1.387 . S
C186 C189 1.387 . S
H187 C183 0.950 . S
H188 C185 0.950 . S
C189 C180 1.390 . S
C189 H182 0.950 . S
C189 C186 1.387 . S
C190 C191 1.387 . S
C190 H194 0.950 . S
C190 C199 1.390 . S
C191 C190 1.387 . S
C191 C193 1.387 . S
H192 C199 0.950 . S
C193 C191 1.387 . S
C193 C195 1.390 . S
C193 H197 0.950 . S
H194 C190 0.950 . S
C195 C193 1.390 . S
C195 C196 1.387 . S
C195 H198 0.950 . S
C196 C195 1.387 . S
C196 C199 1.387 . S
H197 C193 0.950 . S
H198 C195 0.950 . S
C199 C190 1.390 . S
C199 H192 0.950 . S
C199 C196 1.387 . S
C200 C201 1.387 . S
C200 H204 0.950 . S
C200 C209 1.390 . S
C201 C200 1.387 . S
C201 C203 1.387 . S
H202 C209 0.950 . S
C203 C201 1.387 . S
C203 C205 1.390 . S
C203 H207 0.950 . S
H204 C200 0.950 . S
C205 C203 1.390 . S
C205 C206 1.387 . S
C205 H208 0.950 . S
C206 C205 1.387 . S
C206 C209 1.387 . S
H207 C203 0.950 . S
H208 C205 0.950 . S
C209 C200 1.390 . S
C209 H202 0.950 . S
C209 C206 1.387 . S
C210 C211 1.387 . S
C210 H214 0.950 . S
C210 C219 1.390 . S
C211 C210 1.387 . S
C211 C213 1.387 . S
H212 C219 0.950 . S
C213 C211 1.387 . S
C213 C215 1.390 . S
C213 H217 0.950 . S
H214 C210 0.950 . S
C215 C213 1.390 . S
C215 C216 1.387 . S
C215 H218 0.950 . S
C216 C215 1.387 . S
C216 C219 1.387 . S
H217 C213 0.950 . S
H218 C215 0.950 . S
C219 C210 1.390 . S
C219 H212 0.950 . S
C219 C216 1.387 . S
C220 C221 1.387 . S
C220 H224 0.950 . S
C220 C229 1.390 . S
C221 C220 1.387 . S
C221 C223 1.387 . S
H222 C229 0.950 . S
C223 C221 1.387 . S
C223 C225 1.390 . S
C223 H227 0.950 . S
H224 C220 0.950 . S
C225 C223 1.390 . S
C225 C226 1.387 . S
C225 H228 0.950 . S
C226 C225 1.387 . S
C226 C229 1.387 . S
H227 C223 0.950 . S
H228 C225 0.950 . S
C229 C220 1.390 . S
C229 H222 0.950 . S
C229 C226 1.387 . S
C230 C231 1.387 . S
C230 H234 0.950 . S
C230 C239 1.390 . S
C231 C230 1.387 . S
C231 C233 1.387 . S
H232 C239 0.950 . S
C233 C231 1.387 . S
C233 C235 1.390 . S
C233 H237 0.950 . S
H234 C230 0.950 . S
C235 C233 1.390 . S
C235 C236 1.387 . S
C235 H238 0.950 . S
C236 C235 1.387 . S
C236 C239 1.387 . S
H237 C233 0.950 . S
H238 C235 0.950 . S
C239 C230 1.390 . S
C239 H232 0.950 . S
C239 C236 1.387 . S
C126 C56 1.505 . S
C121 C43 1.451 . S
C131 C4 1.458 . S
C136 C99 1.507 . S
C141 C17 1.459 . S
C146 C65 1.505 . S
C151 C30 1.466 . S
C156 C90 1.507 . S
C166 C52 1.509 . S
C161 C9 1.487 . S
C176 C94 1.508 . S
C171 C21 1.507 . S
C181 C34 1.508 . S
C186 C60 1.508 . S
C191 C48 1.489 . S
C196 C86 1.508 . S
C206 C115 1.508 . S
C201 C22 1.489 . S
C216 C81 1.510 . S
C211 C35 1.489 . S
C226 C103 1.508 . S
C221 C47 1.505 . S
C231 C8 1.507 . S
C236 C69 1.508 . S
