# Generated by pormake.
# Topology tsx, (6,3)-cn, num edge types: 1
# Building blocks:
#     Node 0, Type 0, BuildingBlock: LEVNOQ01_clean_sbu_1, # of connection points: 6
#     Node 1, Type 0, BuildingBlock: LEVNOQ01_clean_sbu_1, # of connection points: 6
#     Node 2, Type 1, BuildingBlock: BETDIP_clean_linker_0, # of connection points: 3
#     Node 3, Type 1, BuildingBlock: BETDIP_clean_linker_0, # of connection points: 3
#     Node 4, Type 1, BuildingBlock: BETDIP_clean_linker_0, # of connection points: 3
#     Node 5, Type 1, BuildingBlock: BETDIP_clean_linker_0, # of connection points: 3
#     Edge 6, Type (0, 1), None
#     Edge 7, Type (0, 1), None
#     Edge 8, Type (0, 1), None
#     Edge 9, Type (0, 1), None
#     Edge 10, Type (0, 1), None
#     Edge 11, Type (0, 1), None
#     Edge 12, Type (0, 1), None
#     Edge 13, Type (0, 1), None
#     Edge 14, Type (0, 1), None
#     Edge 15, Type (0, 1), None
#     Edge 16, Type (0, 1), None
#     Edge 17, Type (0, 1), None
# Relax obj value: 0.108
# Max RMSD: 0.138
# Mean RMSD: 0.107
data_MOF--net-tsx--node1-LEVNOQ01_clean_sbu_1--node2-BETDIP_clean_linker_0--edge1-none
_symmetry_space_group_name_H-M    P1
_symmetry_Int_Tables_number       1
_symmetry_cell_setting            triclinic
loop_
_symmetry_equiv_pos_as_xyz
'x, y, z'
_cell_length_a     8.7276092
_cell_length_b     10.083723
_cell_length_c     16.898278
_cell_angle_alpha  92.604299
_cell_angle_beta   100.43425
_cell_angle_gamma 88.525449
loop_
_atom_site_label
_atom_site_type_symbol
_atom_site_fract_x
_atom_site_fract_y
_atom_site_fract_z
_atom_type_partial_charge
O0 O 0.32327 0.98172 0.10092 0.0
Mg1 Mg 0.38034 0.04363 -0.01491 0.0
O2 O 0.07308 0.04179 0.07276 0.0
Mg3 Mg 0.02512 0.04603 -0.06248 0.0
O4 O 0.22514 0.19321 -0.03899 0.0
O5 O 0.47686 0.22785 -0.0198 0.0
O6 O -0.00447 0.06122 0.79683 0.0
O7 O 0.86747 0.23711 -0.067 0.0
Mg8 Mg 0.7969 0.94852 0.85624 0.0
O9 O 0.83531 0.90416 -0.02658 0.0
O10 O 0.92109 0.85693 0.77344 0.0
O11 O 0.71551 0.14378 0.82756 0.0
O12 O 0.63306 0.8292 0.88468 0.0
C13 C 0.26663 0.84449 0.86558 0.0
C14 C 0.19217 0.00686 0.12308 0.0
C15 C 0.33761 0.27641 -0.02568 0.0
C16 C -0.03251 0.96173 0.74777 0.0
C17 C 0.76259 0.24683 0.86966 0.0
C18 C 0.708 0.83706 -0.0426 0.0
O19 O 0.36086 0.93779 0.87352 0.0
O20 O 0.16751 0.84434 0.91309 0.0
O21 O 0.82315 0.48158 0.60086 0.0
Mg22 Mg 0.8807 0.54339 0.48509 0.0
O23 O 0.57298 0.54181 0.57276 0.0
Mg24 Mg 0.52498 0.54608 0.43754 0.0
O25 O 0.72553 0.69264 0.46083 0.0
O26 O -0.02314 0.7281 0.48023 0.0
O27 O 0.4954 0.56123 0.29684 0.0
O28 O 0.3674 0.73719 0.43301 0.0
Mg29 Mg 0.2967 0.44853 0.35619 0.0
O30 O 0.33511 0.40423 0.47337 0.0
O31 O 0.42094 0.35695 0.27342 0.0
O32 O 0.21544 0.64383 0.32756 0.0
O33 O 0.13287 0.32924 0.38465 0.0
C34 C 0.76644 0.34445 0.36554 0.0
C35 C 0.69208 0.50677 0.62304 0.0
C36 C 0.8375 0.77634 0.47426 0.0
C37 C 0.46736 0.46175 0.24777 0.0
C38 C 0.26254 0.74689 0.36967 0.0
C39 C 0.20784 0.33708 0.45736 0.0
O40 O 0.86067 0.43775 0.37343 0.0
O41 O 0.66732 0.34433 0.41307 0.0
H42 H 0.0814 0.94248 0.42108 0.0
H43 H -0.00354 0.15239 0.20122 0.0
H44 H 0.33036 0.82832 0.23128 0.0
H45 H 0.77539 0.23746 0.24934 0.0
C46 C 0.80018 0.22833 0.31416 0.0
C47 C 0.10763 0.9584 0.36223 0.0
C48 C 0.21584 0.87482 0.33264 0.0
C49 C 0.02565 0.05676 0.31456 0.0
C50 C 0.05836 0.07559 0.23766 0.0
C51 C 0.17184 -0.0047 0.20775 0.0
C52 C 0.25053 0.89584 0.25586 0.0
N53 N 0.91673 0.13702 0.34895 0.0
H54 H 0.79271 0.03372 0.43582 0.0
H55 H 0.05199 0.17096 0.66594 0.0
H56 H 0.8515 0.78171 0.63166 0.0
H57 H 0.22541 0.25093 0.5779 0.0
C58 C 0.1476 0.27041 0.52169 0.0
C59 C 0.84257 0.02001 0.49749 0.0
C60 C 0.82621 0.89553 0.5263 0.0
C61 C 0.93783 0.11537 0.54498 0.0
C62 C -0.01406 0.09546 0.62762 0.0
C63 C 0.94377 0.97862 0.66042 0.0
C64 C 0.86857 0.878 0.60876 0.0
N65 N -0.00794 0.22289 0.50642 0.0
H66 H 0.58153 0.44251 -0.0789 0.0
H67 H 0.49648 0.65236 0.70121 0.0
H68 H 0.83028 0.32821 0.73124 0.0
H69 H 0.27547 0.73748 0.74937 0.0
C70 C 0.30035 0.72838 0.8142 0.0
C71 C 0.60771 0.45839 0.86224 0.0
C72 C 0.71588 0.37477 0.83263 0.0
C73 C 0.52574 0.55676 0.81457 0.0
C74 C 0.55838 0.57554 0.73765 0.0
C75 C 0.6718 0.49522 0.70772 0.0
C76 C 0.75049 0.39576 0.75583 0.0
N77 N 0.41689 0.63707 0.84897 0.0
H78 H 0.29281 0.53371 -0.06421 0.0
H79 H 0.55201 0.67096 0.16595 0.0
H80 H 0.35127 0.28183 0.13164 0.0
H81 H 0.72549 0.75091 0.07794 0.0
C82 C 0.64771 0.7704 0.02171 0.0
C83 C 0.34268 0.52005 -0.00254 0.0
C84 C 0.32655 0.3956 0.0263 0.0
C85 C 0.43786 0.61542 0.04497 0.0
C86 C 0.48593 0.59549 0.12762 0.0
C87 C 0.44368 0.47868 0.16042 0.0
C88 C 0.3685 0.37809 0.10875 0.0
N89 N 0.49215 0.72292 0.00642 0.0
loop_
_geom_bond_atom_site_label_1
_geom_bond_atom_site_label_2
_geom_bond_distance
_geom_bond_site_symmetry_2
_ccdc_geom_bond_type
O0 Mg1 1.990 . S
O0 C14 1.253 . S
Mg1 O0 1.990 . S
Mg1 O4 2.180 . S
Mg1 O5 2.117 . S
Mg1 O19 2.030 1_545 S
O2 Mg3 2.072 1_554 S
O2 C14 1.260 . S
Mg3 O2 2.072 1_556 S
Mg3 O4 2.099 1_556 S
Mg3 O6 2.079 . S
Mg3 O7 2.072 1_456 S
Mg3 O9 2.099 1_445 S
Mg3 O20 2.079 1_545 S
O4 Mg1 2.180 . S
O4 Mg3 2.099 1_554 S
O4 C15 1.279 . S
O5 Mg1 2.117 . S
O5 C15 1.250 . S
O6 Mg3 2.079 . S
O6 C16 1.264 1_455 S
O7 Mg3 2.072 1_654 S
O7 C17 1.260 1_554 S
Mg8 O9 2.180 . S
Mg8 O10 2.030 1_565 S
Mg8 O11 1.990 1_565 S
Mg8 O12 2.117 . S
O9 Mg3 2.099 1_665 S
O9 Mg8 2.180 . S
O9 C18 1.279 . S
O10 Mg8 2.030 1_545 S
O10 C16 1.248 . S
O11 Mg8 1.990 1_545 S
O11 C17 1.253 . S
O12 Mg8 2.117 . S
O12 C18 1.250 . S
C13 O19 1.248 . S
C13 O20 1.264 1_554 S
C14 O0 1.253 . S
C14 O2 1.260 . S
C15 O4 1.279 . S
C15 O5 1.250 . S
C16 O6 1.264 1_655 S
C16 O10 1.248 . S
C17 O7 1.260 1_556 S
C17 O11 1.253 . S
C18 O9 1.279 . S
C18 O12 1.250 . S
O19 Mg1 2.030 1_565 S
O19 C13 1.248 . S
O20 Mg3 2.079 1_565 S
O20 C13 1.264 1_556 S
O21 Mg22 1.990 . S
O21 C35 1.253 . S
Mg22 O21 1.990 . S
Mg22 O25 2.180 . S
Mg22 O26 2.117 . S
Mg22 O40 2.030 . S
O23 Mg24 2.072 . S
O23 C35 1.260 . S
Mg24 O23 2.072 . S
Mg24 O25 2.099 . S
Mg24 O27 2.079 . S
Mg24 O28 2.072 . S
Mg24 O30 2.099 . S
Mg24 O41 2.079 . S
O25 Mg22 2.180 . S
O25 Mg24 2.099 . S
O25 C36 1.279 . S
O26 Mg22 2.117 . S
O26 C36 1.250 . S
O27 Mg24 2.079 . S
O27 C37 1.264 . S
O28 Mg24 2.072 . S
O28 C38 1.260 . S
Mg29 O30 2.180 . S
Mg29 O31 2.030 . S
Mg29 O32 1.990 . S
Mg29 O33 2.117 . S
O30 Mg24 2.099 . S
O30 Mg29 2.180 . S
O30 C39 1.279 . S
O31 Mg29 2.030 . S
O31 C37 1.248 . S
O32 Mg29 1.990 . S
O32 C38 1.253 . S
O33 Mg29 2.117 . S
O33 C39 1.250 . S
C34 O40 1.248 . S
C34 O41 1.264 . S
C35 O21 1.253 . S
C35 O23 1.260 . S
C36 O25 1.279 . S
C36 O26 1.250 . S
C37 O27 1.264 . S
C37 O31 1.248 . S
C38 O28 1.260 . S
C38 O32 1.253 . S
C39 O30 1.279 . S
C39 O33 1.250 . S
O40 Mg22 2.030 . S
O40 C34 1.248 . S
O41 Mg24 2.079 . S
O41 C34 1.264 . S
H42 C47 0.930 . S
H43 C50 0.930 1_655 S
H44 C52 0.930 . S
H45 C46 1.016 . S
C46 H45 1.016 . S
C46 N53 1.286 . S
C47 H42 0.930 . S
C47 C48 1.397 . S
C47 C49 1.361 1_565 S
C48 C47 1.397 . S
C48 C52 1.390 . S
C49 C47 1.361 1_545 S
C49 C50 1.393 . S
C49 N53 1.413 1_455 S
C50 H43 0.930 1_455 S
C50 C49 1.393 . S
C50 C51 1.399 1_545 S
C51 C50 1.399 1_565 S
C51 C52 1.381 . S
C52 H44 0.930 . S
C52 C48 1.390 . S
C52 C51 1.381 . S
N53 C46 1.286 . S
N53 C49 1.413 1_655 S
H54 C59 0.930 . S
H55 C62 0.930 . S
H56 C64 0.930 . S
H57 C58 1.016 . S
C58 H57 1.016 . S
C58 N65 1.286 . S
C59 H54 0.930 . S
C59 C60 1.397 . S
C59 C61 1.361 1_665 S
C60 C59 1.397 . S
C60 C64 1.390 . S
C61 C59 1.361 1_445 S
C61 C62 1.393 . S
C61 N65 1.413 . S
C62 H55 0.930 . S
C62 C61 1.393 . S
C62 C63 1.399 1_455 S
C63 C62 1.399 1_655 S
C63 C64 1.381 1_545 S
C64 H56 0.930 . S
C64 C60 1.390 . S
C64 C63 1.381 1_565 S
N65 C58 1.286 . S
N65 C61 1.413 . S
H66 C71 0.930 . S
H67 C74 0.930 . S
H68 C76 0.930 . S
H69 C70 1.016 1_556 S
C70 H69 1.016 1_554 S
C70 N77 1.286 . S
C71 H66 0.930 . S
C71 C72 1.397 1_554 S
C71 C73 1.361 1_554 S
C72 C71 1.397 1_556 S
C72 C76 1.390 . S
C73 C71 1.361 1_556 S
C73 C74 1.393 . S
C73 N77 1.413 1_556 S
C74 H67 0.930 . S
C74 C73 1.393 . S
C74 C75 1.399 . S
C75 C74 1.399 . S
C75 C76 1.381 . S
C76 H68 0.930 . S
C76 C72 1.390 . S
C76 C75 1.381 . S
N77 C70 1.286 . S
N77 C73 1.413 1_554 S
H78 C83 0.930 . S
H79 C86 0.930 . S
H80 C88 0.930 . S
H81 C82 1.016 . S
C82 H81 1.016 . S
C82 N89 1.286 1_554 S
C83 H78 0.930 . S
C83 C84 1.397 1_556 S
C83 C85 1.361 1_556 S
C84 C83 1.397 1_554 S
C84 C88 1.390 . S
C85 C83 1.361 1_554 S
C85 C86 1.393 . S
C85 N89 1.413 1_554 S
C86 H79 0.930 . S
C86 C85 1.393 . S
C86 C87 1.399 . S
C87 C86 1.399 . S
C87 C88 1.381 . S
C88 H80 0.930 . S
C88 C84 1.390 . S
C88 C87 1.381 . S
N89 C82 1.286 1_556 S
N89 C85 1.413 1_556 S
C84 C15 1.537 . S
C13 C70 1.467 . S
C18 C82 1.151 1_556 S
C17 C72 1.424 . S
C36 C60 1.537 . S
C34 C46 1.467 . S
C58 C39 1.151 . S
C48 C38 1.424 . S
C14 C51 1.732 1_545 S
C16 C63 1.332 . S
C75 C35 1.732 . S
C37 C87 1.332 . S
