# Generated by pormake.
# Topology anh, (6,3)-cn, num edge types: 1
# Building blocks:
#     Node 0, Type 0, BuildingBlock: INOVEN_clean_sbu_0, # of connection points: 6
#     Node 1, Type 0, BuildingBlock: INOVEN_clean_sbu_0, # of connection points: 6
#     Node 2, Type 0, BuildingBlock: INOVEN_clean_sbu_0, # of connection points: 6
#     Node 3, Type 1, BuildingBlock: INOVEN_clean_linker_0, # of connection points: 3
#     Node 4, Type 1, BuildingBlock: INOVEN_clean_linker_0, # of connection points: 3
#     Node 5, Type 1, BuildingBlock: INOVEN_clean_linker_0, # of connection points: 3
#     Node 6, Type 1, BuildingBlock: INOVEN_clean_linker_0, # of connection points: 3
#     Node 7, Type 1, BuildingBlock: INOVEN_clean_linker_0, # of connection points: 3
#     Node 8, Type 1, BuildingBlock: INOVEN_clean_linker_0, # of connection points: 3
#     Edge 9, Type (0, 1), None
#     Edge 10, Type (0, 1), None
#     Edge 11, Type (0, 1), None
#     Edge 12, Type (0, 1), None
#     Edge 13, Type (0, 1), None
#     Edge 14, Type (0, 1), None
#     Edge 15, Type (0, 1), None
#     Edge 16, Type (0, 1), None
#     Edge 17, Type (0, 1), None
#     Edge 18, Type (0, 1), None
#     Edge 19, Type (0, 1), None
#     Edge 20, Type (0, 1), None
#     Edge 21, Type (0, 1), None
#     Edge 22, Type (0, 1), None
#     Edge 23, Type (0, 1), None
#     Edge 24, Type (0, 1), None
#     Edge 25, Type (0, 1), None
#     Edge 26, Type (0, 1), None
# Relax obj value: 0.386
# Max RMSD: 0.309
# Mean RMSD: 0.152
data_MOF--net-anh--node1-INOVEN_clean_sbu_0--node2-INOVEN_clean_linker_0--edge1-none
_symmetry_space_group_name_H-M    P1
_symmetry_Int_Tables_number       1
_symmetry_cell_setting            triclinic
loop_
_symmetry_equiv_pos_as_xyz
'x, y, z'
_cell_length_a     13.684608
_cell_length_b     19.74543
_cell_length_c     22.347798
_cell_angle_alpha  94.02084
_cell_angle_beta   90.106108
_cell_angle_gamma 138.32465
loop_
_atom_site_label
_atom_site_type_symbol
_atom_site_fract_x
_atom_site_fract_y
_atom_site_fract_z
_atom_type_partial_charge
Gd0 Gd 0.50166 0.68622 0.1522 0.0
Gd1 Gd 0.29598 0.67955 0.16521 0.0
C2 C 0.6137 0.90117 0.1592 0.0
C3 C 0.67097 0.68231 0.1196 0.0
C4 C 0.58623 0.57744 0.09628 0.0
C5 C 0.49956 0.49878 0.13478 0.0
C6 C 0.55184 0.54999 0.03399 0.0
C7 C 0.35492 0.36974 0.04902 0.0
C8 C 0.43305 0.44747 0.01094 0.0
C9 C 0.38804 0.39603 0.11127 0.0
C10 C 0.43539 0.67508 0.26717 0.0
C11 C 1.1764 0.46446 0.15572 0.0
C12 C 1.14433 0.6878 0.2234 0.0
C13 C 0.99223 0.60515 0.237 0.0
C14 C 0.91295 0.62371 0.23203 0.0
C15 C 0.92014 0.50487 0.22414 0.0
C16 C 0.73318 0.46599 0.16658 0.0
C17 C 0.78944 0.4345 0.18734 0.0
C18 C 0.78241 0.55368 0.19578 0.0
C19 C 0.2768 0.61512 0.04882 0.0
O20 O 0.65101 0.85684 0.16812 0.0
O21 O 0.47434 0.84449 0.14859 0.0
O22 O 0.66691 0.69678 0.17718 0.0
O23 O 0.6479 0.72217 0.08662 0.0
O24 O 0.43095 0.61271 0.24006 0.0
O25 O 0.46668 0.73444 0.23137 0.0
O26 O 1.1612 0.51753 0.18189 0.0
O27 O 0.29813 0.51451 0.1294 0.0
O28 O 1.16292 0.70089 0.16584 0.0
O29 O 1.22991 0.68834 0.24977 0.0
O30 O 1.16429 0.57633 0.07819 0.0
O31 O 0.39482 0.69056 0.08142 0.0
H32 H 0.51583 0.51619 0.18326 0.0
H33 H 0.612 0.60827 0.0032 0.0
H34 H 0.40928 0.42758 -0.03717 0.0
H35 H 0.33077 0.33702 0.14139 0.0
H36 H 0.96635 0.70019 0.24337 0.0
H37 H 0.97682 0.48733 0.23219 0.0
H38 H 0.75045 0.36565 0.16651 0.0
H39 H 0.74305 0.58075 0.1804 0.0
Gd40 Gd 0.93498 0.13095 0.45744 0.0
Gd41 Gd 0.7168 0.11573 0.45354 0.0
C42 C 0.59523 0.90413 0.44754 0.0
C43 C 1.08887 0.10425 0.47207 0.0
C44 C 1.03842 1.01123 0.48547 0.0
C45 C 1.05215 0.96292 0.44358 0.0
C46 C 0.96337 0.96447 0.53699 0.0
C47 C 0.93488 0.83022 0.50862 0.0
C48 C 0.91267 0.87488 0.54872 0.0
C49 C 0.99917 0.87194 0.45497 0.0
C50 C 0.86864 0.13638 0.34531 0.0
C51 C 1.06496 0.34465 0.46052 0.0
C52 C 0.56664 0.14394 0.42919 0.0
C53 C 0.60234 0.23356 0.44767 0.0
C54 C 0.50687 0.22014 0.48401 0.0
C55 C 0.74308 0.33346 0.44094 0.0
C56 C 0.70221 0.40174 0.51723 0.0
C57 C 0.79283 0.41748 0.47569 0.0
C58 C 0.55673 0.30371 0.5188 0.0
C59 C 0.7799 0.11041 0.56682 0.0
O60 O 0.72958 0.96203 0.4715 0.0
O61 O 0.56744 0.94925 0.42618 0.0
O62 O 1.04112 0.0976 0.41896 0.0
O63 O 1.08183 0.14917 0.51473 0.0
O64 O 1.00127 0.20129 0.37017 0.0
O65 O 0.77625 0.07316 0.38133 0.0
O66 O 0.92496 0.28779 0.44829 0.0
O67 O 1.09957 0.30039 0.47286 0.0
O68 O 0.54045 0.0934 0.47351 0.0
O69 O 0.65113 0.15724 0.39124 0.0
O70 O 0.64868 0.05516 0.54374 0.0
O71 O 0.87427 0.17138 0.53052 0.0
H72 H 1.10433 0.99582 0.40235 0.0
H73 H 0.94437 0.99693 0.56855 0.0
H74 H 0.85826 0.8414 0.5895 0.0
H75 H 1.01335 0.83622 0.42323 0.0
H76 H 0.39811 0.144 0.48951 0.0
H77 H 0.81842 0.34633 0.41226 0.0
H78 H 0.90487 0.49314 0.47332 0.0
H79 H 0.48453 0.29092 0.54978 0.0
Gd80 Gd 0.92527 0.67856 0.86493 0.0
Gd81 Gd 0.70874 0.45156 0.84162 0.0
C82 C 0.58337 0.5486 0.85855 0.0
C83 C 1.11437 0.87187 0.86058 0.0
C84 C 1.08536 0.92707 0.84364 0.0
C85 C 1.05798 0.9656 0.88719 0.0
C86 C 1.06945 0.932 0.78251 0.0
C87 C 0.99853 1.01135 0.80833 0.0
C88 C 1.02618 0.97319 0.76508 0.0
C89 C 1.01443 1.00724 0.86951 0.0
C90 C 0.81595 0.57333 0.96232 0.0
C91 C 1.05882 0.58832 0.85826 0.0
C92 C 0.56542 0.2695 0.85905 0.0
C93 C 0.60055 0.21791 0.83814 0.0
C94 C 0.5088 0.1362 0.79255 0.0
C95 C 0.73866 0.26133 0.8561 0.0
C96 C 0.70325 0.15585 0.77521 0.0
C97 C 0.78983 0.23064 0.82463 0.0
C98 C 0.55978 0.10503 0.76139 0.0
C99 C 0.76772 0.51467 0.73197 0.0
O100 O 0.71861 0.63818 0.84899 0.0
O101 O 0.55958 0.46968 0.86363 0.0
O102 O 1.06536 0.8305 0.91119 0.0
O103 O 1.09016 0.81141 0.81725 0.0
O104 O 0.83223 0.64626 0.95696 0.0
O105 O 0.85744 0.56257 0.91697 0.0
O106 O 0.92188 0.49774 0.83938 0.0
O107 O 1.0845 0.66802 0.87326 0.0
O108 O 0.52055 0.28689 0.81738 0.0
O109 O 0.66437 0.34886 0.89829 0.0
O110 O 0.68169 0.42143 0.74279 0.0
O111 O 0.82526 0.57452 0.78045 0.0
H112 H 1.06716 0.96161 0.93467 0.0
H113 H 1.08732 0.90194 0.74762 0.0
H114 H 1.01237 0.9737 0.71745 0.0
H115 H 0.99197 1.03542 0.90338 0.0
H116 H 0.40216 0.10138 0.77828 0.0
H117 H 0.81227 0.32409 0.8916 0.0
H118 H 0.9006 0.27025 0.83623 0.0
H119 H 0.49039 1.04512 0.72418 0.0
H120 H 0.77832 0.0826 0.10436 0.0
H121 H 0.66929 0.95847 0.27423 0.0
H122 H 1.00277 0.28223 0.27156 0.0
N123 N 0.98141 0.28315 0.15241 0.0
N124 N 1.09795 0.36963 0.17758 0.0
C125 C 0.795 0.09378 0.15301 0.0
C126 C 0.71502 1.00832 0.18612 0.0
C127 C 0.90038 0.19432 0.18368 0.0
C128 C 0.92192 0.20638 0.24705 0.0
C129 C 0.83744 0.12167 0.2797 0.0
C130 C 0.73285 1.02361 0.24906 0.0
H131 H 0.81511 0.58229 0.50026 0.0
H132 H 0.71376 0.39952 0.636 0.0
H133 H 0.8734 0.68493 0.68757 0.0
N134 N 0.89043 0.72928 0.57677 0.0
N135 N 0.90043 0.74665 0.52337 0.0
C136 C 0.81317 0.57249 0.54753 0.0
C137 C 0.76157 0.48393 0.56347 0.0
C138 C 0.853 0.64477 0.5924 0.0
C139 C 0.84606 0.63002 0.65342 0.0
C140 C 0.79577 0.54151 0.66965 0.0
C141 C 0.75485 0.4693 0.62428 0.0
H142 H 1.2425 0.5736 0.80541 0.0
H143 H 1.11757 0.60644 -0.02708 0.0
H144 H 0.41929 0.59566 -0.02329 0.0
N145 N 0.43872 0.57994 0.85725 0.0
N146 N 0.47446 0.54241 0.87943 0.0
C147 C 1.24958 0.5809 0.85411 0.0
C148 C 1.16644 0.59079 0.88525 0.0
C149 C 0.34288 0.5812 0.88672 0.0
C150 C 0.34913 0.59242 0.95057 0.0
C151 C 0.26848 0.60166 -0.01861 0.0
C152 C 1.17893 0.5998 0.94841 0.0
H153 H 0.40155 0.7207 0.50411 0.0
H154 H 0.57616 0.84665 0.33604 0.0
H155 H 0.26851 0.52565 0.34213 0.0
N156 N 1.21937 0.5215 0.45895 0.0
N157 N 1.17585 0.44143 0.4377 0.0
C158 C 0.40783 0.71066 0.45654 0.0
C159 C 0.50066 0.79651 0.42293 0.0
C160 C 0.32182 0.61122 0.42755 0.0
C161 C 0.33382 0.60058 0.36547 0.0
C162 C 0.42441 0.68517 0.33239 0.0
C163 C 0.50509 0.78145 0.36141 0.0
H164 H 0.84238 0.11301 0.80414 0.0
H165 H 0.70024 0.15623 0.65508 0.0
H166 H 0.92497 0.08421 0.62372 0.0
N167 N 0.94737 0.06263 0.73661 0.0
N168 N 0.95088 1.05106 0.79048 0.0
C169 C 0.83706 0.11724 0.75632 0.0
C170 C 0.76728 0.13825 0.73419 0.0
C171 C 0.89303 0.09674 0.71639 0.0
C172 C 0.88377 0.10151 0.65446 0.0
C173 C 0.8128 0.12187 0.63199 0.0
C174 C 0.75541 0.14054 0.6722 0.0
H175 H 0.47538 0.28337 0.11313 0.0
H176 H 0.87973 0.59197 0.08027 0.0
H177 H 0.53458 0.38058 0.93935 0.0
N178 N 0.33626 0.24639 0.01161 0.0
N179 N 0.27339 0.26908 0.02421 0.0
C180 C 0.54668 0.3401 0.08185 0.0
C181 C 0.68246 0.43913 0.10314 0.0
C182 C 0.49134 0.3202 0.0229 0.0
C183 C 0.58188 0.39605 -0.01624 0.0
C184 C 0.7225 0.49423 0.00385 0.0
C185 C 0.77208 0.51573 0.0639 0.0
loop_
_geom_bond_atom_site_label_1
_geom_bond_atom_site_label_2
_geom_bond_distance
_geom_bond_site_symmetry_2
_ccdc_geom_bond_type
Gd0 C3 2.818 . S
Gd0 O20 2.377 . S
Gd0 O22 2.448 . S
Gd0 O23 2.506 . S
Gd0 O24 2.435 . S
Gd0 O25 2.717 . S
Gd0 O27 2.395 1_455 S
Gd0 O31 2.327 . S
Gd1 C12 2.818 . S
Gd1 O21 2.395 1_655 S
Gd1 O25 2.327 1_655 S
Gd1 O26 2.377 . S
Gd1 O28 2.448 . S
Gd1 O29 2.506 . S
Gd1 O30 2.435 . S
Gd1 O31 2.717 1_655 S
C2 O20 1.240 . S
C2 O21 1.240 . S
C3 Gd0 2.818 . S
C3 C4 1.510 . S
C3 O22 1.249 . S
C3 O23 1.252 . S
C4 C3 1.510 . S
C4 C5 1.404 . S
C4 C6 1.352 . S
C5 C4 1.404 . S
C5 C9 1.389 . S
C5 H32 0.930 . S
C6 C4 1.352 . S
C6 C8 1.374 . S
C6 H33 0.931 . S
C7 C8 1.359 . S
C7 C9 1.364 . S
C8 C6 1.374 . S
C8 C7 1.359 . S
C8 H34 0.931 . S
C9 C5 1.389 . S
C9 C7 1.364 . S
C9 H35 0.931 . S
C10 O24 1.256 . S
C10 O25 1.257 . S
C11 O26 1.240 . S
C11 O27 1.240 . S
C12 Gd1 2.818 . S
C12 C13 1.510 . S
C12 O28 1.249 . S
C12 O29 1.252 . S
C13 C12 1.510 . S
C13 C14 1.404 . S
C13 C15 1.352 . S
C14 C13 1.404 . S
C14 C18 1.389 . S
C14 H36 0.930 . S
C15 C13 1.352 . S
C15 C17 1.374 . S
C15 H37 0.931 . S
C16 C17 1.359 . S
C16 C18 1.364 . S
C17 C15 1.374 . S
C17 C16 1.359 . S
C17 H38 0.931 . S
C18 C14 1.389 . S
C18 C16 1.364 . S
C18 H39 0.931 . S
C19 O30 1.256 1_455 S
C19 O31 1.257 . S
O20 Gd0 2.377 . S
O20 C2 1.240 . S
O21 Gd1 2.395 1_455 S
O21 C2 1.240 . S
O22 Gd0 2.448 . S
O22 C3 1.249 . S
O23 Gd0 2.506 . S
O23 C3 1.252 . S
O24 Gd0 2.435 . S
O24 C10 1.256 . S
O25 Gd0 2.717 . S
O25 Gd1 2.327 1_455 S
O25 C10 1.257 . S
O26 Gd1 2.377 . S
O26 C11 1.240 . S
O27 Gd0 2.395 1_655 S
O27 C11 1.240 . S
O28 Gd1 2.448 . S
O28 C12 1.249 . S
O29 Gd1 2.506 . S
O29 C12 1.252 . S
O30 Gd1 2.435 . S
O30 C19 1.256 1_655 S
O31 Gd0 2.327 . S
O31 Gd1 2.717 1_455 S
O31 C19 1.257 . S
H32 C5 0.930 . S
H33 C6 0.931 . S
H34 C8 0.931 . S
H35 C9 0.931 . S
H36 C14 0.930 . S
H37 C15 0.931 . S
H38 C17 0.931 . S
H39 C18 0.931 . S
Gd40 C43 2.818 1_545 S
Gd40 O60 2.377 1_545 S
Gd40 O62 2.448 1_545 S
Gd40 O63 2.506 1_545 S
Gd40 O64 2.435 1_545 S
Gd40 O65 2.717 . S
Gd40 O67 2.395 . S
Gd40 O71 2.327 . S
Gd41 C52 2.818 . S
Gd41 O61 2.395 1_545 S
Gd41 O65 2.327 . S
Gd41 O66 2.377 . S
Gd41 O68 2.448 . S
Gd41 O69 2.506 . S
Gd41 O70 2.435 . S
Gd41 O71 2.717 . S
C42 O60 1.240 . S
C42 O61 1.240 . S
C43 Gd40 2.818 1_565 S
C43 C44 1.510 . S
C43 O62 1.249 . S
C43 O63 1.252 . S
C44 C43 1.510 . S
C44 C45 1.404 . S
C44 C46 1.352 . S
C45 C44 1.404 . S
C45 C49 1.389 . S
C45 H72 0.930 . S
C46 C44 1.352 . S
C46 C48 1.374 . S
C46 H73 0.931 . S
C47 C48 1.359 . S
C47 C49 1.364 . S
C48 C46 1.374 . S
C48 C47 1.359 . S
C48 H74 0.931 . S
C49 C45 1.389 . S
C49 C47 1.364 . S
C49 H75 0.931 . S
C50 O64 1.256 1_545 S
C50 O65 1.257 . S
C51 O66 1.240 . S
C51 O67 1.240 . S
C52 Gd41 2.818 . S
C52 C53 1.510 . S
C52 O68 1.249 . S
C52 O69 1.252 . S
C53 C52 1.510 . S
C53 C54 1.404 . S
C53 C55 1.352 . S
C54 C53 1.404 . S
C54 C58 1.389 . S
C54 H76 0.930 . S
C55 C53 1.352 . S
C55 C57 1.374 . S
C55 H77 0.931 . S
C56 C57 1.359 . S
C56 C58 1.364 . S
C57 C55 1.374 . S
C57 C56 1.359 . S
C57 H78 0.931 . S
C58 C54 1.389 . S
C58 C56 1.364 . S
C58 H79 0.931 . S
C59 O70 1.256 . S
C59 O71 1.257 . S
O60 Gd40 2.377 1_565 S
O60 C42 1.240 . S
O61 Gd41 2.395 1_565 S
O61 C42 1.240 . S
O62 Gd40 2.448 1_565 S
O62 C43 1.249 . S
O63 Gd40 2.506 1_565 S
O63 C43 1.252 . S
O64 Gd40 2.435 1_565 S
O64 C50 1.256 1_565 S
O65 Gd40 2.717 . S
O65 Gd41 2.327 . S
O65 C50 1.257 . S
O66 Gd41 2.377 . S
O66 C51 1.240 . S
O67 Gd40 2.395 . S
O67 C51 1.240 . S
O68 Gd41 2.448 . S
O68 C52 1.249 . S
O69 Gd41 2.506 . S
O69 C52 1.252 . S
O70 Gd41 2.435 . S
O70 C59 1.256 . S
O71 Gd40 2.327 . S
O71 Gd41 2.717 . S
O71 C59 1.257 . S
H72 C45 0.930 . S
H73 C46 0.931 . S
H74 C48 0.931 . S
H75 C49 0.931 . S
H76 C54 0.930 . S
H77 C55 0.931 . S
H78 C57 0.931 . S
H79 C58 0.931 . S
Gd80 C83 2.818 . S
Gd80 O100 2.377 . S
Gd80 O102 2.448 . S
Gd80 O103 2.506 . S
Gd80 O104 2.435 1_556 S
Gd80 O105 2.717 . S
Gd80 O107 2.395 . S
Gd80 O111 2.327 . S
Gd81 C92 2.818 . S
Gd81 O101 2.395 . S
Gd81 O105 2.327 . S
Gd81 O106 2.377 . S
Gd81 O108 2.448 . S
Gd81 O109 2.506 . S
Gd81 O110 2.435 . S
Gd81 O111 2.717 . S
C82 O100 1.240 . S
C82 O101 1.240 . S
C83 Gd80 2.818 . S
C83 C84 1.510 . S
C83 O102 1.249 . S
C83 O103 1.252 . S
C84 C83 1.510 . S
C84 C85 1.404 . S
C84 C86 1.352 . S
C85 C84 1.404 . S
C85 C89 1.389 . S
C85 H112 0.930 1_556 S
C86 C84 1.352 . S
C86 C88 1.374 . S
C86 H113 0.931 . S
C87 C88 1.359 . S
C87 C89 1.364 . S
C88 C86 1.374 . S
C88 C87 1.359 . S
C88 H114 0.931 . S
C89 C85 1.389 . S
C89 C87 1.364 . S
C89 H115 0.931 1_566 S
C90 O104 1.256 . S
C90 O105 1.257 1_554 S
C91 O106 1.240 . S
C91 O107 1.240 . S
C92 Gd81 2.818 . S
C92 C93 1.510 . S
C92 O108 1.249 . S
C92 O109 1.252 . S
C93 C92 1.510 . S
C93 C94 1.404 . S
C93 C95 1.352 . S
C94 C93 1.404 . S
C94 C98 1.389 . S
C94 H116 0.930 . S
C95 C93 1.352 . S
C95 C97 1.374 . S
C95 H117 0.931 . S
C96 C97 1.359 . S
C96 C98 1.364 . S
C97 C95 1.374 . S
C97 C96 1.359 . S
C97 H118 0.931 . S
C98 C94 1.389 . S
C98 C96 1.364 . S
C98 H119 0.931 . S
C99 O110 1.256 . S
C99 O111 1.257 . S
O100 Gd80 2.377 . S
O100 C82 1.240 . S
O101 Gd81 2.395 . S
O101 C82 1.240 . S
O102 Gd80 2.448 . S
O102 C83 1.249 . S
O103 Gd80 2.506 . S
O103 C83 1.252 . S
O104 Gd80 2.435 1_554 S
O104 C90 1.256 . S
O105 Gd80 2.717 . S
O105 Gd81 2.327 . S
O105 C90 1.257 1_556 S
O106 Gd81 2.377 . S
O106 C91 1.240 . S
O107 Gd80 2.395 . S
O107 C91 1.240 . S
O108 Gd81 2.448 . S
O108 C92 1.249 . S
O109 Gd81 2.506 . S
O109 C92 1.252 . S
O110 Gd81 2.435 . S
O110 C99 1.256 . S
O111 Gd80 2.327 . S
O111 Gd81 2.717 . S
O111 C99 1.257 . S
H112 C85 0.930 1_554 S
H113 C86 0.931 . S
H114 C88 0.931 . S
H115 C89 0.931 1_544 S
H116 C94 0.930 . S
H117 C95 0.931 . S
H118 C97 0.931 . S
H119 C98 0.931 . S
H120 C125 0.929 . S
H121 C130 0.931 . S
H122 C128 0.930 . S
N123 N124 1.234 . S
N123 C127 1.453 . S
N124 N123 1.234 . S
C125 H120 0.929 . S
C125 C126 1.373 . S
C125 C127 1.368 1_565 S
C126 C125 1.373 . S
C126 C130 1.397 . S
C127 N123 1.453 . S
C127 C125 1.368 1_545 S
C127 C128 1.373 . S
C128 H122 0.930 . S
C128 C127 1.373 . S
C128 C129 1.371 . S
C129 C128 1.371 . S
C129 C130 1.383 1_545 S
C130 H121 0.931 . S
C130 C126 1.397 . S
C130 C129 1.383 1_565 S
H131 C136 0.929 . S
H132 C141 0.931 . S
H133 C139 0.930 . S
N134 N135 1.234 . S
N134 C138 1.453 . S
N135 N134 1.234 . S
C136 H131 0.929 . S
C136 C137 1.373 . S
C136 C138 1.368 . S
C137 C136 1.373 . S
C137 C141 1.397 . S
C138 N134 1.453 . S
C138 C136 1.368 . S
C138 C139 1.373 . S
C139 H133 0.930 . S
C139 C138 1.373 . S
C139 C140 1.371 . S
C140 C139 1.371 . S
C140 C141 1.383 . S
C141 H132 0.931 . S
C141 C137 1.397 . S
C141 C140 1.383 . S
H142 C147 0.929 . S
H143 C152 0.923 1_654 S
H144 C150 0.930 . S
N145 N146 1.234 . S
N145 C149 1.453 . S
N146 N145 1.234 . S
C147 H142 0.929 . S
C147 C148 1.373 1_455 S
C147 C149 1.368 . S
C148 C147 1.373 1_655 S
C148 C152 1.397 1_655 S
C149 N145 1.453 . S
C149 C147 1.368 . S
C149 C150 1.373 . S
C150 H144 0.930 . S
C150 C149 1.373 . S
C150 C151 1.371 1_556 S
C151 C150 1.371 1_554 S
C151 C152 1.383 1_554 S
C152 H143 0.923 1_456 S
C152 C148 1.397 1_455 S
C152 C151 1.383 1_556 S
H153 C158 0.929 . S
H154 C163 0.931 . S
H155 C161 0.930 . S
N156 N157 1.234 . S
N156 C160 1.453 . S
N157 N156 1.234 . S
C158 H153 0.929 . S
C158 C159 1.373 . S
C158 C160 1.368 1_455 S
C159 C158 1.373 . S
C159 C163 1.397 . S
C160 N156 1.453 . S
C160 C158 1.368 1_655 S
C160 C161 1.373 . S
C161 H155 0.930 . S
C161 C160 1.373 . S
C161 C162 1.371 1_655 S
C162 C161 1.371 1_455 S
C162 C163 1.383 . S
C163 H154 0.931 . S
C163 C159 1.397 . S
C163 C162 1.383 . S
H164 C169 0.929 . S
H165 C174 0.931 . S
H166 C172 0.930 1_565 S
N167 N168 1.234 . S
N167 C171 1.453 1_565 S
N168 N167 1.234 . S
C169 H164 0.929 . S
C169 C170 1.373 . S
C169 C171 1.368 . S
C170 C169 1.373 . S
C170 C174 1.397 . S
C171 N167 1.453 1_545 S
C171 C169 1.368 . S
C171 C172 1.373 . S
C172 H166 0.930 1_545 S
C172 C171 1.373 . S
C172 C173 1.371 . S
C173 C172 1.371 . S
C173 C174 1.383 . S
C174 H165 0.931 . S
C174 C170 1.397 . S
C174 C173 1.383 . S
H175 C180 0.929 . S
H176 C185 0.931 1_556 S
H177 C183 0.930 1_556 S
N178 N179 1.234 . S
N178 C182 1.453 . S
N179 N178 1.234 . S
C180 H175 0.929 . S
C180 C181 1.373 . S
C180 C182 1.368 . S
C181 C180 1.373 . S
C181 C185 1.397 . S
C182 N178 1.453 . S
C182 C180 1.368 . S
C182 C183 1.373 . S
C183 H177 0.930 1_554 S
C183 C182 1.373 . S
C183 C184 1.371 1_554 S
C184 C183 1.371 1_556 S
C184 C185 1.383 1_556 S
C185 H176 0.931 1_554 S
C185 C181 1.397 . S
C185 C184 1.383 1_554 S
C7 N179 4.711 . S
C51 N157 2.356 . S
C87 N168 3.463 . S
C16 C181 3.156 . S
C159 C42 2.422 . S
C170 C96 1.827 . S
C47 N135 2.287 . S
C91 C148 4.746 . S
C2 C126 2.670 . S
C137 C56 2.405 . S
N146 C82 4.693 . S
C11 N124 2.471 . S
C151 C19 1.919 . S
C50 C129 1.086 . S
C99 C140 1.393 . S
C173 C59 1.287 . S
C184 C90 1.856 1_556 S
C10 C162 1.013 . S
