# Generated by pormake.
# Topology pts, (4,4)-cn, num edge types: 1
# Building blocks:
#     Node 0, Type 0, BuildingBlock: GIZVER_clean_linker_0, # of connection points: 4
#     Node 1, Type 0, BuildingBlock: GIZVER_clean_linker_0, # of connection points: 4
#     Node 2, Type 1, BuildingBlock: AZAVOO_clean_sbu_0, # of connection points: 4
#     Node 3, Type 1, BuildingBlock: AZAVOO_clean_sbu_0, # of connection points: 4
#     Edge 4, Type (0, 1), BuildingBlock: FUNLAD_clean_linker_0, # of connection points: 2
#     Edge 5, Type (0, 1), BuildingBlock: FUNLAD_clean_linker_0, # of connection points: 2
#     Edge 6, Type (0, 1), BuildingBlock: FUNLAD_clean_linker_0, # of connection points: 2
#     Edge 7, Type (0, 1), BuildingBlock: FUNLAD_clean_linker_0, # of connection points: 2
#     Edge 8, Type (0, 1), BuildingBlock: FUNLAD_clean_linker_0, # of connection points: 2
#     Edge 9, Type (0, 1), BuildingBlock: FUNLAD_clean_linker_0, # of connection points: 2
#     Edge 10, Type (0, 1), BuildingBlock: FUNLAD_clean_linker_0, # of connection points: 2
#     Edge 11, Type (0, 1), BuildingBlock: FUNLAD_clean_linker_0, # of connection points: 2
# Relax obj value: 0.014
# Max RMSD: 0.077
# Mean RMSD: 0.071
data_MOF--net-pts--node1-AZAVOO_clean_sbu_0--node2-GIZVER_clean_linker_0--edge1-FUNLAD_clean_linker_0
_symmetry_space_group_name_H-M    P1
_symmetry_Int_Tables_number       1
_symmetry_cell_setting            triclinic
loop_
_symmetry_equiv_pos_as_xyz
'x, y, z'
_cell_length_a     27.114364
_cell_length_b     29.804079
_cell_length_c     43.343584
_cell_angle_alpha  90.318923
_cell_angle_beta   95.988126
_cell_angle_gamma 90.155176
loop_
_atom_site_label
_atom_site_type_symbol
_atom_site_fract_x
_atom_site_fract_y
_atom_site_fract_z
_atom_type_partial_charge
H0 H 0.63117 0.11858 0.00412 0.0
H1 H 0.61532 0.11397 0.90422 0.0
H2 H 0.73869 0.04878 -0.04431 0.0
H3 H 0.57307 0.16863 -0.02541 0.0
H4 H 0.56981 0.17029 0.93321 0.0
H5 H 0.52537 0.11193 0.00076 0.0
H6 H 0.40459 0.0471 0.94549 0.0
H7 H 0.51443 0.11967 0.90103 0.0
C8 C 0.64404 0.1071 -0.01742 0.0
C9 C 0.68769 0.08164 -0.01669 0.0
C10 C 0.61738 0.11842 -0.04589 0.0
C11 C 0.6351 0.10451 0.92625 0.0
C12 C 0.67855 0.0789 0.92674 0.0
C13 C 0.70413 0.06712 -0.04469 0.0
C14 C 0.5716 0.14722 -0.04661 0.0
C15 C 0.52542 0.1185 -0.04886 0.0
C16 C 0.50659 0.10311 -0.02178 0.0
C17 C 0.46319 0.07697 -0.02372 0.0
C18 C 0.43912 0.06583 0.94702 0.0
C19 C 0.45701 0.08132 0.9198 0.0
C20 C 0.50044 0.10745 0.92197 0.0
H21 H 0.15318 0.56276 0.40549 0.0
H22 H 0.13803 0.56807 0.50331 0.0
H23 H 0.07102 0.66965 0.44266 0.0
H24 H 0.20689 0.51757 0.44162 0.0
H25 H 0.20404 0.52249 0.48254 0.0
H26 H 0.13979 0.47465 0.40884 0.0
H27 H 0.07406 0.36695 0.45602 0.0
H28 H 0.1528 0.47233 0.50859 0.0
C29 C 0.13827 0.57874 0.42502 0.0
C30 C 0.10959 0.61769 0.4204 0.0
C31 C 0.14849 0.56068 0.45488 0.0
C32 C 0.12975 0.58182 0.48025 0.0
C33 C 0.10114 0.62092 0.47599 0.0
C34 C 0.091 0.6383 0.44595 0.0
C35 C 0.18093 0.51991 0.45982 0.0
C36 C 0.14953 0.47806 0.45883 0.0
C37 C 0.13141 0.4589 0.43017 0.0
C38 C 0.10339 0.41915 0.42897 0.0
C39 C 0.09331 0.39892 0.45683 0.0
C40 C 0.11119 0.41757 0.4857 0.0
C41 C 0.13877 0.45758 0.48648 0.0
Mg42 Mg 0.11907 1.01054 0.23099 0.0
O43 O 1.04382 1.00941 0.2007 0.0
O44 O 0.98499 0.9985 0.23254 0.0
Mg45 Mg 1.02118 0.9958 0.28238 0.0
C46 C 0.99837 1.00414 0.20544 0.0
C47 C 0.17256 1.0084 0.17094 0.0
O48 O 0.1588 0.96627 0.17261 0.0
O49 O 0.10327 0.08161 0.24667 0.0
O50 O 1.04527 0.06972 0.27881 0.0
O51 O 0.12473 0.93574 0.22842 0.0
O52 O 0.08941 0.97213 0.26465 0.0
C53 C 0.0737 0.09606 0.26553 0.0
C54 C 0.10047 0.93441 0.25256 0.0
O55 O 0.1596 0.03626 0.19087 0.0
Mg56 Mg 1.02402 1.00342 0.67532 0.0
O57 O 0.10092 1.00443 0.70373 0.0
O58 O 0.15735 0.9907 0.67068 0.0
Mg59 Mg 0.11777 0.98508 0.62167 0.0
C60 C 0.14582 0.99853 0.69801 0.0
C61 C 0.94201 1.01447 0.71592 0.0
O62 O 0.9257 0.98607 0.69385 0.0
O63 O 1.03853 0.07373 0.65777 0.0
O64 O 0.09487 0.05923 0.62488 0.0
O65 O 1.01922 0.92874 0.67989 0.0
O66 O 0.0508 0.96342 0.64155 0.0
C67 C 0.06749 0.08667 0.63812 0.0
C68 C 1.04097 0.92636 0.65473 0.0
O69 O 0.98563 0.03026 0.7159 0.0
C70 C 0.43006 0.09643 0.02649 0.0
C71 C 0.44004 0.06393 0.0044 0.0
C72 C 0.40109 0.08561 0.05032 0.0
C73 C 0.38181 0.04195 0.0525 0.0
C74 C 0.39452 1.00892 0.03154 0.0
C75 C 0.42294 0.01985 0.00757 0.0
C76 C 0.34752 0.02959 0.07569 0.0
C77 C 0.31596 0.05883 0.08702 0.0
C78 C 0.27832 0.04536 0.10788 0.0
C79 C 0.26037 0.07765 0.12758 0.0
C80 C 0.22522 0.06606 0.14765 0.0
C81 C 0.20689 0.02192 0.14819 0.0
H82 H 0.26988 0.97608 0.09202 0.0
C83 C 0.22358 0.99 0.12771 0.0
C84 C 0.25874 1.00155 0.10773 0.0
H85 H 0.20987 0.95581 0.12726 0.0
H86 H 0.44278 0.13069 0.02453 0.0
H87 H 0.39347 0.11159 0.06668 0.0
H88 H 0.38075 0.9749 0.03294 0.0
H89 H 0.43047 0.99411 -0.00904 0.0
H90 H 0.34646 0.99448 0.08211 0.0
H91 H 0.31715 0.09399 0.08071 0.0
H92 H 0.27419 0.11181 0.12783 0.0
H93 H 0.21298 0.09153 0.16304 0.0
C94 C 0.06083 0.3696 0.5182 0.0
C95 C 0.10537 0.39224 0.51454 0.0
C96 C 0.05824 0.33899 0.54229 0.0
C97 C 0.10023 0.33055 0.56342 0.0
C98 C 0.14366 0.35549 0.56092 0.0
C99 C 0.14623 0.38605 0.53681 0.0
C100 C 0.10272 0.29201 0.58521 0.0
C101 C 0.06299 0.26861 0.59251 0.0
C102 C 0.06747 0.22379 0.60739 0.0
C103 C 1.02932 0.20796 0.62408 0.0
C104 C 1.03009 0.16391 0.63523 0.0
C105 C 0.0686 0.13459 0.62931 0.0
H106 H 0.13602 0.20505 0.58874 0.0
C107 C 0.10723 0.15079 0.61316 0.0
C108 C 0.1067 0.19475 0.60233 0.0
H109 H 0.13749 0.12915 0.6082 0.0
H110 H 1.02853 0.37407 0.50157 0.0
H111 H 1.02415 0.3203 0.54293 0.0
H112 H 0.17664 0.34963 0.57674 0.0
H113 H 0.18126 0.40262 0.53453 0.0
H114 H 0.13953 0.2808 0.59416 0.0
H115 H 1.02585 0.28142 0.58641 0.0
H116 H 0.99837 0.22944 0.62797 0.0
H117 H 0.99965 0.1524 0.64749 0.0
C118 C 0.73913 0.03058 0.0193 0.0
C119 C 0.71905 0.07333 0.01281 0.0
C120 C 0.77417 0.02406 0.04488 0.0
C121 C 0.79004 0.06033 0.0644 0.0
C122 C 0.76902 0.10278 0.05831 0.0
C123 C 0.73351 0.10917 0.03293 0.0
C124 C 0.83094 0.05571 0.08976 0.0
C125 C 0.84076 0.01726 0.10531 0.0
C126 C 0.88217 1.01341 0.13032 0.0
C127 C 0.87571 0.98737 0.15643 0.0
C128 C 0.91366 0.98412 0.18072 0.0
C129 C 0.95938 1.00583 0.17895 0.0
H130 H 0.93459 0.05398 0.10798 0.0
C131 C 0.96656 0.0305 0.15225 0.0
C132 C 0.92815 0.03457 0.12824 0.0
H133 H 1.0014 0.04755 0.15023 0.0
H134 H 0.7287 1.00244 0.00405 0.0
H135 H 0.79028 0.99108 0.04844 0.0
H136 H 0.78081 0.1313 0.07288 0.0
H137 H 0.71916 0.1426 0.02821 0.0
H138 H 0.85275 0.08551 0.0965 0.0
H139 H 0.81613 0.98859 0.101 0.0
H140 H 0.84082 0.97035 0.15837 0.0
H141 H 0.90719 0.96454 0.2009 0.0
C142 C 0.11899 0.65482 0.52919 0.0
C143 C 0.08541 0.64649 0.50279 0.0
C144 C 0.10754 0.68588 0.55169 0.0
C145 C 0.0622 0.70911 0.54813 0.0
C146 C 1.0275 0.69855 0.52282 0.0
C147 C 1.03879 0.66738 0.5005 0.0
C148 C 0.05263 0.74862 0.56755 0.0
C149 C 0.07474 0.75626 0.59636 0.0
C150 C 0.06858 0.79984 0.61206 0.0
C151 C 0.06035 0.80149 0.64347 0.0
C152 C 0.05197 0.84271 0.65773 0.0
C153 C 0.05314 0.88288 0.64093 0.0
H154 H 0.07866 0.83987 0.57154 0.0
C155 C 0.06368 0.88116 0.60991 0.0
C156 C 0.07108 0.84011 0.5956 0.0
H157 H 0.06492 0.91147 0.59634 0.0
H158 H 0.15543 0.63963 0.53147 0.0
H159 H 0.13558 0.69369 0.57059 0.0
H160 H 0.99227 0.71588 0.51956 0.0
H161 H 1.01181 0.66111 0.48069 0.0
H162 H 1.02685 0.77351 0.55711 0.0
H163 H 0.09694 0.73047 0.6087 0.0
H164 H 0.05889 0.77084 0.65667 0.0
H165 H 1.0442 0.84311 0.68174 0.0
C166 C 0.4082 0.03013 0.88201 0.0
C167 C 0.4273 0.07311 0.8896 0.0
C168 C 0.37404 0.02355 0.85592 0.0
C169 C 0.3581 0.05999 0.83695 0.0
C170 C 0.37838 0.10268 0.84405 0.0
C171 C 0.41301 0.10914 0.86996 0.0
C172 C 0.31746 0.05528 0.81135 0.0
C173 C 0.30775 0.01686 0.79535 0.0
C174 C 0.26561 1.01236 0.77081 0.0
C175 C 0.27104 0.98559 0.74469 0.0
C176 C 0.23204 0.98099 0.72111 0.0
C177 C 0.18629 1.0021 0.72361 0.0
H178 H 0.21399 0.05305 0.79382 0.0
C179 C 0.18031 0.02777 0.75025 0.0
C180 C 0.2197 0.03312 0.77354 0.0
H181 H 0.1455 0.04442 0.75283 0.0
H182 H 0.41853 1.00182 0.89686 0.0
H183 H 0.3585 0.99035 0.85161 0.0
H184 H 0.36652 0.13134 0.82993 0.0
H185 H 0.42664 0.14273 0.87552 0.0
H186 H 0.29537 0.08487 0.80507 0.0
H187 H 0.33261 0.98846 0.79924 0.0
H188 H 0.30585 0.96883 0.74225 0.0
H189 H 0.23767 0.96071 0.70097 0.0
C190 C 0.12249 0.39005 0.37711 0.0
C191 C 0.08834 0.39597 0.39905 0.0
C192 C 0.11132 0.36161 0.35154 0.0
C193 C 0.06577 0.33837 0.34754 0.0
C194 C 1.03022 0.34731 0.36809 0.0
C195 C 1.04142 0.37561 0.39364 0.0
C196 C 0.05523 0.30188 0.3242 0.0
C197 C 0.09103 0.27735 0.31284 0.0
C198 C 0.08155 0.23344 0.29683 0.0
C199 C 0.11682 0.21652 0.2783 0.0
C200 C 0.11308 0.17256 0.26677 0.0
C201 C 0.07433 0.14433 0.274 0.0
H202 H 1.01426 0.21684 0.31774 0.0
C203 C 1.03799 0.16183 0.29155 0.0
C204 C 1.04154 0.20578 0.30287 0.0
H205 H 1.00757 0.14108 0.29751 0.0
H206 H 0.15889 0.40544 0.38056 0.0
H207 H 0.13906 0.35706 0.3356 0.0
H208 H 0.99456 0.33044 0.36536 0.0
H209 H 1.014 0.38024 0.40985 0.0
H210 H 1.01675 0.29171 0.31905 0.0
H211 H 0.12957 0.28747 0.31745 0.0
H212 H 0.14825 0.23692 0.27352 0.0
H213 H 0.14177 0.16016 0.25334 0.0
C214 C 0.70944 0.10059 0.87646 0.0
C215 C 0.70001 0.06709 0.89775 0.0
C216 C 0.73572 0.0905 0.8512 0.0
C217 C 0.75262 0.04657 0.84671 0.0
C218 C 0.74092 1.01273 0.86714 0.0
C219 C 0.71537 0.02296 0.89263 0.0
C220 C 0.78244 0.03488 0.82101 0.0
C221 C 0.81511 0.06347 0.8102 0.0
C222 C 0.84713 0.0507 0.78577 0.0
C223 C 0.89346 0.07171 0.78514 0.0
C224 C 0.92464 0.05995 0.76261 0.0
C225 C 0.90969 0.02732 0.74 0.0
H226 H 0.79589 1.00263 0.76194 0.0
C227 C 0.8629 1.00697 0.74031 0.0
C228 C 0.83195 0.01853 0.76286 0.0
H229 H 0.84998 0.982 0.72306 0.0
H230 H 0.69812 0.13491 0.88 0.0
H231 H 0.74293 0.1171 0.83535 0.0
H232 H 0.75299 0.97854 0.86396 0.0
H233 H 0.70831 0.99653 0.90868 0.0
H234 H 0.78022 1.00047 0.81259 0.0
H235 H 0.82099 0.09634 0.82094 0.0
H236 H 0.90585 0.0969 0.80237 0.0
H237 H 0.96032 0.07646 0.76289 0.0
C238 C 0.05642 0.65819 0.37881 0.0
C239 C 0.10263 0.63986 0.3897 0.0
C240 C 0.05186 0.68615 0.35292 0.0
C241 C 0.09367 0.69676 0.33764 0.0
C242 C 0.13883 0.67539 0.34696 0.0
C243 C 0.14336 0.64729 0.37282 0.0
C244 C 0.09268 0.73248 0.31378 0.0
C245 C 0.06243 0.7683 0.31403 0.0
C246 C 0.06861 0.8096 0.29577 0.0
C247 C 0.05253 0.85045 0.30742 0.0
C248 C 0.06172 0.89084 0.29292 0.0
C249 C 0.08662 0.89128 0.26609 0.0
H250 H 0.10327 0.77881 0.25792 0.0
C251 C 0.10062 0.85024 0.25348 0.0
C252 C 0.09168 0.80973 0.26814 0.0
H253 H 0.1195 0.84944 0.23266 0.0
H254 H 1.02415 0.65215 0.391 0.0
H255 H 1.0159 0.70038 0.34558 0.0
H256 H 0.17148 0.68251 0.33537 0.0
H257 H 0.17946 0.63366 0.38068 0.0
H258 H 0.12215 0.73231 0.29863 0.0
H259 H 1.03605 0.77011 0.33119 0.0
H260 H 1.03439 0.85136 0.32854 0.0
H261 H 0.05052 0.92173 0.30334 0.0
loop_
_geom_bond_atom_site_label_1
_geom_bond_atom_site_label_2
_geom_bond_distance
_geom_bond_site_symmetry_2
_ccdc_geom_bond_type
H0 C8 0.930 . S
H1 C11 0.930 . S
H2 C13 0.937 . S
H3 C14 0.970 . S
H4 C14 0.970 1_556 S
H5 C16 0.930 . S
H6 C18 0.931 . S
H7 C20 0.930 . S
C8 H0 0.930 . S
C8 C9 1.382 . S
C8 C10 1.426 . S
C9 C8 1.382 . S
C9 C13 1.385 1_545 S
C10 C8 1.426 . S
C10 C11 1.375 1_554 S
C10 C14 1.532 . S
C11 H1 0.930 . S
C11 C10 1.375 1_556 S
C11 C12 1.416 . S
C12 C11 1.416 . S
C12 C13 1.368 1_546 S
C13 H2 0.937 . S
C13 C9 1.385 1_565 S
C13 C12 1.368 1_564 S
C14 H3 0.970 . S
C14 H4 0.970 1_554 S
C14 C10 1.532 . S
C14 C15 1.498 . S
C15 C14 1.498 . S
C15 C16 1.391 . S
C15 C20 1.397 1_554 S
C16 H5 0.930 . S
C16 C15 1.391 . S
C16 C17 1.407 . S
C17 C16 1.407 . S
C17 C18 1.360 1_544 S
C18 H6 0.931 . S
C18 C17 1.360 1_566 S
C18 C19 1.398 1_565 S
C19 C18 1.398 1_545 S
C19 C20 1.387 . S
C20 H7 0.930 . S
C20 C15 1.397 1_556 S
C20 C19 1.387 . S
H21 C29 0.930 . S
H22 C32 0.930 . S
H23 C34 0.930 . S
H24 C35 0.970 . S
H25 C35 0.970 . S
H26 C37 0.930 . S
H27 C39 0.930 . S
H28 C41 0.930 . S
C29 H21 0.930 . S
C29 C30 1.382 . S
C29 C31 1.426 . S
C30 C29 1.382 . S
C30 C34 1.389 . S
C31 C29 1.426 . S
C31 C32 1.375 . S
C31 C35 1.532 . S
C32 H22 0.930 . S
C32 C31 1.375 . S
C32 C33 1.416 . S
C33 C32 1.416 . S
C33 C34 1.371 . S
C34 H23 0.930 . S
C34 C30 1.389 . S
C34 C33 1.371 . S
C35 H24 0.970 . S
C35 H25 0.970 . S
C35 C31 1.532 . S
C35 C36 1.499 . S
C36 C35 1.499 . S
C36 C37 1.370 . S
C36 C41 1.415 . S
C37 H26 0.930 . S
C37 C36 1.370 . S
C37 C38 1.407 . S
C38 C37 1.407 . S
C38 C39 1.365 . S
C39 H27 0.930 . S
C39 C38 1.365 . S
C39 C40 1.393 . S
C40 C39 1.393 . S
C40 C41 1.387 . S
C41 H28 0.930 . S
C41 C36 1.415 . S
C41 C40 1.387 . S
Mg42 O43 2.028 . S
Mg42 O49 1.986 . S
Mg42 O51 2.114 1_545 S
Mg42 O52 2.251 1_545 S
Mg42 O55 2.010 . S
O43 Mg42 2.028 . S
O43 C46 1.250 1_455 S
O44 Mg45 2.028 . S
O44 C46 1.248 . S
Mg45 O44 2.028 . S
Mg45 O50 2.042 . S
Mg45 O52 2.079 1_645 S
C46 O43 1.250 1_655 S
C46 O44 1.248 . S
C47 O48 1.264 . S
C47 O55 1.249 . S
O48 C47 1.264 . S
O49 Mg42 1.986 . S
O49 C53 1.246 . S
O50 Mg45 2.042 . S
O50 C53 1.241 1_655 S
O51 Mg42 2.114 1_565 S
O51 C54 1.252 . S
O52 Mg42 2.251 1_565 S
O52 Mg45 2.079 1_465 S
O52 C54 1.273 . S
C53 O49 1.246 . S
C53 O50 1.241 1_455 S
C54 O51 1.252 . S
C54 O52 1.273 . S
O55 Mg42 2.010 . S
O55 C47 1.249 . S
Mg56 O57 2.028 1_655 S
Mg56 O63 1.986 . S
Mg56 O65 2.114 1_545 S
Mg56 O66 2.251 1_645 S
Mg56 O69 2.010 . S
O57 Mg56 2.028 1_455 S
O57 C60 1.250 . S
O58 Mg59 2.028 . S
O58 C60 1.248 . S
Mg59 O58 2.028 . S
Mg59 O64 2.032 . S
Mg59 O66 2.079 1_545 S
C60 O57 1.250 . S
C60 O58 1.248 . S
C61 O62 1.264 . S
C61 O69 1.249 . S
O62 C61 1.264 . S
O63 Mg56 1.986 . S
O63 C67 1.246 1_655 S
O64 Mg59 2.032 . S
O64 C67 1.259 . S
O65 Mg56 2.114 1_565 S
O65 C68 1.252 1_655 S
O66 Mg56 2.251 1_465 S
O66 Mg59 2.079 1_565 S
O66 C68 1.273 . S
C67 O63 1.246 1_455 S
C67 O64 1.259 . S
C68 O65 1.252 1_455 S
C68 O66 1.273 . S
O69 Mg56 2.010 . S
O69 C61 1.249 . S
C70 C71 1.386 . S
C70 C72 1.383 . S
C70 H86 0.951 . S
C71 C70 1.386 . S
C71 C75 1.383 1_545 S
C72 C70 1.383 . S
C72 C73 1.402 . S
C72 H87 0.951 . S
C73 C72 1.402 . S
C73 C74 1.375 1_545 S
C73 C76 1.481 . S
C74 C73 1.375 1_565 S
C74 C75 1.367 . S
C74 H88 0.951 . S
C75 C71 1.383 1_565 S
C75 C74 1.367 . S
C75 H89 0.950 . S
C76 C73 1.481 . S
C76 C77 1.297 . S
C76 H90 0.950 1_545 S
C77 C76 1.297 . S
C77 C78 1.479 . S
C77 H91 0.950 . S
C78 C77 1.479 . S
C78 C79 1.375 . S
C78 C84 1.404 . S
C79 C78 1.375 . S
C79 C80 1.369 . S
C79 H92 0.950 . S
C80 C79 1.369 . S
C80 C81 1.392 . S
C80 H93 0.951 . S
C81 C80 1.392 . S
C81 C83 1.384 . S
H82 C84 0.949 1_565 S
C83 C81 1.384 . S
C83 C84 1.385 . S
C83 H85 0.950 1_545 S
C84 C78 1.404 . S
C84 H82 0.949 1_545 S
C84 C83 1.385 . S
H85 C83 0.950 1_565 S
H86 C70 0.951 . S
H87 C72 0.951 . S
H88 C74 0.951 . S
H89 C75 0.950 . S
H90 C76 0.950 1_565 S
H91 C77 0.950 . S
H92 C79 0.950 . S
H93 C80 0.951 . S
C94 C95 1.386 . S
C94 C96 1.383 . S
C94 H110 0.951 . S
C95 C94 1.386 . S
C95 C99 1.383 . S
C96 C94 1.383 . S
C96 C97 1.402 . S
C96 H111 0.951 . S
C97 C96 1.402 . S
C97 C98 1.375 1_455 S
C97 C100 1.481 1_455 S
C98 C97 1.375 1_655 S
C98 C99 1.365 1_655 S
C98 H112 0.953 . S
C99 C95 1.383 . S
C99 C98 1.365 1_455 S
C99 H113 0.952 . S
C100 C97 1.481 1_655 S
C100 C101 1.298 1_655 S
C100 H114 0.950 . S
C101 C100 1.298 1_455 S
C101 C102 1.478 1_455 S
C101 H115 0.952 . S
C102 C101 1.478 1_655 S
C102 C103 1.375 1_655 S
C102 C108 1.404 . S
C103 C102 1.375 1_455 S
C103 C104 1.369 . S
C103 H116 0.950 . S
C104 C103 1.369 . S
C104 C105 1.392 . S
C104 H117 0.951 . S
C105 C104 1.392 . S
C105 C107 1.384 1_455 S
H106 C108 0.949 . S
C107 C105 1.384 1_655 S
C107 C108 1.385 . S
C107 H109 0.950 . S
C108 C102 1.404 . S
C108 H106 0.949 . S
C108 C107 1.385 . S
H109 C107 0.950 . S
H110 C94 0.951 . S
H111 C96 0.951 . S
H112 C98 0.953 . S
H113 C99 0.952 . S
H114 C100 0.950 . S
H115 C101 0.952 . S
H116 C103 0.950 . S
H117 C104 0.951 . S
C118 C119 1.386 1_565 S
C118 C120 1.383 . S
C118 H134 0.951 . S
C119 C118 1.386 1_545 S
C119 C123 1.383 . S
C120 C118 1.383 . S
C120 C121 1.402 1_565 S
C120 H135 0.951 . S
C121 C120 1.402 1_545 S
C121 C122 1.375 . S
C121 C124 1.481 . S
C122 C121 1.375 . S
C122 C123 1.367 . S
C122 H136 0.951 . S
C123 C119 1.383 . S
C123 C122 1.367 . S
C123 H137 0.950 . S
C124 C121 1.481 . S
C124 C125 1.297 1_545 S
C124 H138 0.950 . S
C125 C124 1.297 1_565 S
C125 C126 1.479 1_565 S
C125 H139 0.950 . S
C126 C125 1.479 1_545 S
C126 C127 1.375 1_545 S
C126 C132 1.404 . S
C127 C126 1.375 1_565 S
C127 C128 1.369 . S
C127 H140 0.950 . S
C128 C127 1.369 . S
C128 C129 1.392 1_565 S
C128 H141 0.951 . S
C129 C128 1.392 1_545 S
C129 C131 1.384 . S
H130 C132 0.949 . S
C131 C129 1.384 . S
C131 C132 1.385 . S
C131 H133 0.950 . S
C132 C126 1.404 . S
C132 H130 0.949 . S
C132 C131 1.385 . S
H133 C131 0.950 . S
H134 C118 0.951 . S
H135 C120 0.951 . S
H136 C122 0.951 . S
H137 C123 0.950 . S
H138 C124 0.950 . S
H139 C125 0.950 . S
H140 C127 0.950 . S
H141 C128 0.951 . S
C142 C143 1.386 . S
C142 C144 1.383 . S
C142 H158 0.951 . S
C143 C142 1.386 . S
C143 C147 1.383 1_455 S
C144 C142 1.383 . S
C144 C145 1.402 . S
C144 H159 0.951 . S
C145 C144 1.402 . S
C145 C146 1.375 1_455 S
C145 C148 1.481 . S
C146 C145 1.375 1_655 S
C146 C147 1.367 . S
C146 H160 0.951 . S
C147 C143 1.383 1_655 S
C147 C146 1.367 . S
C147 H161 0.950 . S
C148 C145 1.481 . S
C148 C149 1.297 . S
C148 H162 0.950 1_455 S
C149 C148 1.297 . S
C149 C150 1.479 . S
C149 H163 0.950 . S
C150 C149 1.479 . S
C150 C151 1.375 . S
C150 C156 1.404 1_455 S
C151 C150 1.375 . S
C151 C152 1.369 . S
C151 H164 0.950 . S
C152 C151 1.369 . S
C152 C153 1.392 . S
C152 H165 0.951 . S
C153 C152 1.392 . S
C153 C155 1.384 1_455 S
H154 C156 0.949 . S
C155 C153 1.384 1_655 S
C155 C156 1.385 . S
C155 H157 0.950 . S
C156 C150 1.404 1_655 S
C156 H154 0.949 . S
C156 C155 1.385 . S
H157 C155 0.950 . S
H158 C142 0.951 . S
H159 C144 0.951 . S
H160 C146 0.951 . S
H161 C147 0.950 . S
H162 C148 0.950 1_655 S
H163 C149 0.950 . S
H164 C151 0.950 . S
H165 C152 0.951 . S
C166 C167 1.386 1_565 S
C166 C168 1.383 . S
C166 H182 0.951 . S
C167 C166 1.386 1_545 S
C167 C171 1.383 . S
C168 C166 1.383 . S
C168 C169 1.402 1_565 S
C168 H183 0.951 . S
C169 C168 1.402 1_545 S
C169 C170 1.375 . S
C169 C172 1.481 . S
C170 C169 1.375 . S
C170 C171 1.367 . S
C170 H184 0.951 . S
C171 C167 1.383 . S
C171 C170 1.367 . S
C171 H185 0.950 . S
C172 C169 1.481 . S
C172 C173 1.297 1_545 S
C172 H186 0.950 . S
C173 C172 1.297 1_565 S
C173 C174 1.479 . S
C173 H187 0.950 . S
C174 C173 1.479 . S
C174 C175 1.375 . S
C174 C180 1.404 1_565 S
C175 C174 1.375 . S
C175 C176 1.369 . S
C175 H188 0.950 . S
C176 C175 1.369 . S
C176 C177 1.392 1_565 S
C176 H189 0.951 . S
C177 C176 1.392 1_545 S
C177 C179 1.384 . S
H178 C180 0.949 . S
C179 C177 1.384 . S
C179 C180 1.385 . S
C179 H181 0.950 . S
C180 C174 1.404 1_545 S
C180 H178 0.949 . S
C180 C179 1.385 . S
H181 C179 0.950 . S
H182 C166 0.951 . S
H183 C168 0.951 . S
H184 C170 0.951 . S
H185 C171 0.950 . S
H186 C172 0.950 . S
H187 C173 0.950 . S
H188 C175 0.950 . S
H189 C176 0.951 . S
C190 C191 1.386 . S
C190 C192 1.383 . S
C190 H206 0.951 . S
C191 C190 1.386 . S
C191 C195 1.383 1_455 S
C192 C190 1.383 . S
C192 C193 1.402 . S
C192 H207 0.951 . S
C193 C192 1.402 . S
C193 C194 1.375 1_455 S
C193 C196 1.481 . S
C194 C193 1.375 1_655 S
C194 C195 1.367 . S
C194 H208 0.951 . S
C195 C191 1.383 1_655 S
C195 C194 1.367 . S
C195 H209 0.950 . S
C196 C193 1.481 . S
C196 C197 1.297 . S
C196 H210 0.950 1_455 S
C197 C196 1.297 . S
C197 C198 1.479 . S
C197 H211 0.950 . S
C198 C197 1.479 . S
C198 C199 1.375 . S
C198 C204 1.384 1_455 S
C199 C198 1.375 . S
C199 C200 1.369 . S
C199 H212 0.950 . S
C200 C199 1.369 . S
C200 C201 1.392 . S
C200 H213 0.951 . S
C201 C200 1.392 . S
C201 C203 1.391 . S
H202 C204 0.971 . S
C203 C201 1.391 . S
C203 C204 1.382 1_455 S
C203 H205 0.944 1_455 S
C204 C198 1.384 1_655 S
C204 H202 0.971 . S
C204 C203 1.382 1_655 S
H205 C203 0.944 1_655 S
H206 C190 0.951 . S
H207 C192 0.951 . S
H208 C194 0.951 . S
H209 C195 0.950 . S
H210 C196 0.950 1_655 S
H211 C197 0.950 . S
H212 C199 0.950 . S
H213 C200 0.951 . S
C214 C215 1.386 1_545 S
C214 C216 1.383 . S
C214 H230 0.951 . S
C215 C214 1.386 1_565 S
C215 C219 1.383 . S
C216 C214 1.383 . S
C216 C217 1.402 1_545 S
C216 H231 0.951 . S
C217 C216 1.402 1_565 S
C217 C218 1.375 . S
C217 C220 1.481 . S
C218 C217 1.375 . S
C218 C219 1.367 . S
C218 H232 0.951 . S
C219 C215 1.383 . S
C219 C218 1.367 . S
C219 H233 0.950 . S
C220 C217 1.481 . S
C220 C221 1.297 1_565 S
C220 H234 0.950 . S
C221 C220 1.297 1_545 S
C221 C222 1.479 . S
C221 H235 0.950 . S
C222 C221 1.479 . S
C222 C223 1.375 . S
C222 C228 1.404 1_545 S
C223 C222 1.375 . S
C223 C224 1.369 . S
C223 H236 0.950 . S
C224 C223 1.369 . S
C224 C225 1.392 . S
C224 H237 0.951 . S
C225 C224 1.392 . S
C225 C227 1.384 1_545 S
H226 C228 0.949 . S
C227 C225 1.384 1_565 S
C227 C228 1.385 . S
C227 H229 0.950 . S
C228 C222 1.404 1_565 S
C228 H226 0.949 . S
C228 C227 1.385 . S
H229 C227 0.950 . S
H230 C214 0.951 . S
H231 C216 0.951 . S
H232 C218 0.951 . S
H233 C219 0.950 . S
H234 C220 0.950 . S
H235 C221 0.950 . S
H236 C223 0.950 . S
H237 C224 0.951 . S
C238 C239 1.385 1_655 S
C238 C240 1.382 1_655 S
C238 H254 0.952 . S
C239 C238 1.385 1_455 S
C239 C243 1.383 . S
C240 C238 1.382 1_455 S
C240 C241 1.402 . S
C240 H255 0.951 1_455 S
C241 C240 1.402 . S
C241 C242 1.375 . S
C241 C244 1.481 . S
C242 C241 1.375 . S
C242 C243 1.367 . S
C242 H256 0.951 . S
C243 C239 1.383 . S
C243 C242 1.367 . S
C243 H257 0.950 . S
C244 C241 1.481 . S
C244 C245 1.297 . S
C244 H258 0.950 . S
C245 C244 1.297 . S
C245 C246 1.479 . S
C245 H259 0.950 1_455 S
C246 C245 1.479 . S
C246 C247 1.375 1_455 S
C246 C252 1.404 . S
C247 C246 1.375 1_655 S
C247 C248 1.369 . S
C247 H260 0.950 . S
C248 C247 1.369 . S
C248 C249 1.392 1_655 S
C248 H261 0.951 . S
C249 C248 1.392 1_455 S
C249 C251 1.384 . S
H250 C252 0.949 . S
C251 C249 1.384 . S
C251 C252 1.385 . S
C251 H253 0.950 . S
C252 C246 1.404 . S
C252 H250 0.949 . S
C252 C251 1.385 . S
H253 C251 0.950 . S
H254 C238 0.952 . S
H255 C240 0.951 1_655 S
H256 C242 0.951 . S
H257 C243 0.950 . S
H258 C244 0.950 . S
H259 C245 0.950 1_655 S
H260 C247 0.950 . S
H261 C248 0.951 . S
C81 C47 1.336 . S
C71 C17 1.444 . S
C105 C67 1.548 . S
C95 C40 1.480 . S
C129 C46 1.537 . S
C119 C9 1.444 . S
C153 C68 1.551 . S
C143 C33 1.435 . S
C177 C60 1.497 . S
C167 C19 1.454 . S
C201 C53 1.512 . S
C191 C38 1.465 . S
C225 C61 1.376 . S
C215 C12 1.471 1_565 S
C239 C30 1.455 . S
C249 C54 1.559 . S
