# Generated by pormake.
# Topology anh, (6,3)-cn, num edge types: 1
# Building blocks:
#     Node 0, Type 0, BuildingBlock: VOLQOD_clean_sbu_1, # of connection points: 6
#     Node 1, Type 0, BuildingBlock: VOLQOD_clean_sbu_1, # of connection points: 6
#     Node 2, Type 0, BuildingBlock: VOLQOD_clean_sbu_1, # of connection points: 6
#     Node 3, Type 1, BuildingBlock: PAMTOO_clean_linker_0, # of connection points: 3
#     Node 4, Type 1, BuildingBlock: PAMTOO_clean_linker_0, # of connection points: 3
#     Node 5, Type 1, BuildingBlock: PAMTOO_clean_linker_0, # of connection points: 3
#     Node 6, Type 1, BuildingBlock: PAMTOO_clean_linker_0, # of connection points: 3
#     Node 7, Type 1, BuildingBlock: PAMTOO_clean_linker_0, # of connection points: 3
#     Node 8, Type 1, BuildingBlock: PAMTOO_clean_linker_0, # of connection points: 3
#     Edge 9, Type (0, 1), None
#     Edge 10, Type (0, 1), None
#     Edge 11, Type (0, 1), None
#     Edge 12, Type (0, 1), None
#     Edge 13, Type (0, 1), None
#     Edge 14, Type (0, 1), None
#     Edge 15, Type (0, 1), None
#     Edge 16, Type (0, 1), None
#     Edge 17, Type (0, 1), None
#     Edge 18, Type (0, 1), None
#     Edge 19, Type (0, 1), None
#     Edge 20, Type (0, 1), None
#     Edge 21, Type (0, 1), None
#     Edge 22, Type (0, 1), None
#     Edge 23, Type (0, 1), None
#     Edge 24, Type (0, 1), None
#     Edge 25, Type (0, 1), None
#     Edge 26, Type (0, 1), None
# Relax obj value: 0.166
# Max RMSD: 0.221
# Mean RMSD: 0.126
data_MOF--net-anh--node1-VOLQOD_clean_sbu_1--node2-PAMTOO_clean_linker_0--edge1-none
_symmetry_space_group_name_H-M    P1
_symmetry_Int_Tables_number       1
_symmetry_cell_setting            triclinic
loop_
_symmetry_equiv_pos_as_xyz
'x, y, z'
_cell_length_a     14.010553
_cell_length_b     13.886119
_cell_length_c     25.040425
_cell_angle_alpha  82.326125
_cell_angle_beta   93.747648
_cell_angle_gamma 120.52818
loop_
_atom_site_label
_atom_site_type_symbol
_atom_site_fract_x
_atom_site_fract_y
_atom_site_fract_z
_atom_type_partial_charge
O0 O 0.05654 0.56983 0.28617 0.0
Zn1 Zn 0.06123 0.60721 0.20429 0.0
O2 O 0.08269 0.49982 0.16927 0.0
Zn3 Zn 0.96025 0.41457 0.12283 0.0
Zn4 Zn 0.09119 0.3913 0.22401 0.0
Zn5 Zn 0.21392 0.5771 0.12374 0.0
O6 O 0.00323 0.43396 0.04546 0.0
O7 O 0.1791 0.57158 0.04368 0.0
O8 O 0.91738 0.60481 0.17685 0.0
O9 O 0.86514 0.47978 0.11837 0.0
O10 O 0.85581 0.25508 0.1546 0.0
O11 O 0.94499 0.24556 0.22971 0.0
O12 O 0.22588 0.37806 0.21351 0.0
O13 O 0.19754 0.76392 0.19028 0.0
O14 O 0.31127 0.51196 0.14514 0.0
O15 O 0.30256 0.73837 0.13722 0.0
C16 C 0.08183 0.50451 0.31638 0.0
C17 C 0.09115 0.50635 0.01948 0.0
C18 C 0.85873 0.20423 0.20033 0.0
C19 C 0.8514 0.54865 0.14054 0.0
C20 C 0.30803 0.43675 0.18144 0.0
C21 C 0.28696 0.80091 0.16398 0.0
O22 O 0.10346 0.43754 0.2972 0.0
O23 O 0.55536 0.06038 0.38006 0.0
Zn24 Zn 0.51119 0.06295 0.45566 0.0
O25 O 0.61141 0.04657 0.50916 0.0
Zn26 Zn 0.68579 0.17463 0.55008 0.0
Zn27 Zn 0.72318 0.03254 0.47381 0.0
Zn28 Zn 0.52796 0.9183 0.56083 0.0
O29 O 0.69411 0.13221 0.63009 0.0
O30 O 0.55865 0.95345 0.63709 0.0
O31 O 0.5117 0.208 0.46281 0.0
O32 O 0.60669 0.26018 0.53894 0.0
O33 O 0.83681 0.2838 0.5193 0.0
O34 O 0.86687 0.18215 0.46852 0.0
O35 O 0.73355 0.89624 0.50871 0.0
O36 O 0.35529 0.92957 0.467 0.0
O37 O 0.58106 0.8128 0.5594 0.0
O38 O 0.36582 0.83479 0.54397 0.0
C39 C 0.62211 0.03334 0.36378 0.0
C40 C 0.63238 0.03918 0.65837 0.0
C41 C 0.89705 0.27515 0.48661 0.0
C42 C 0.54843 0.27206 0.50033 0.0
C43 C 0.66323 0.8136 0.5405 0.0
C44 C 0.31049 0.84738 0.50408 0.0
O45 O 0.68579 0.01368 0.39601 0.0
O46 O 0.54718 0.47278 0.71474 0.0
Zn47 Zn 0.48995 0.41548 0.79192 0.0
O48 O 0.596 0.51545 0.84216 0.0
Zn49 Zn 0.53106 0.58103 0.88132 0.0
Zn50 Zn 0.73026 0.63597 0.80366 0.0
Zn51 Zn 0.63114 0.42672 0.89667 0.0
O52 O 0.56233 0.57808 0.9615 0.0
O53 O 0.61908 0.45397 0.97164 0.0
O54 O 0.34203 0.41006 0.79817 0.0
O55 O 0.36905 0.50634 0.86774 0.0
O56 O 0.5866 0.74033 0.85092 0.0
O57 O 0.73153 0.78563 0.80033 0.0
O58 O 0.87091 0.63378 0.83399 0.0
O59 O 0.47284 0.2594 0.80742 0.0
O60 O 0.7883 0.47732 0.89125 0.0
O61 O 0.55553 0.26376 0.88671 0.0
C62 C 0.64138 0.54923 0.69539 0.0
C63 C 0.59664 0.52017 0.99118 0.0
C64 C 0.66556 0.81091 0.81945 0.0
C65 C 0.3072 0.44807 0.8313 0.0
C66 C 0.87459 0.55788 0.86775 0.0
C67 C 0.50176 0.21187 0.84704 0.0
O68 O 0.71859 0.6138 0.72523 0.0
H69 H 0.80878 0.15464 0.30633 0.0
H70 H 0.46262 0.91384 0.29266 0.0
H71 H 0.6682 0.0543 0.15091 0.0
H72 H 0.40552 0.96774 0.13033 0.0
C73 C 0.3832 0.91577 0.17018 0.0
O74 O 0.47102 0.90278 0.18969 0.0
H75 H 0.36134 0.95713 0.19845 0.0
C76 C 0.73912 0.10335 0.28157 0.0
C77 C 0.75268 0.1133 0.22548 0.0
C78 C 0.63438 0.03487 0.3057 0.0
C79 C 0.54315 0.9701 0.27411 0.0
C80 C 0.55606 0.97548 0.21857 0.0
C81 C 0.65989 0.04881 0.19409 0.0
H82 H 0.67985 0.74405 0.64263 0.0
H83 H 0.6256 0.41989 0.61693 0.0
H84 H 0.66126 0.66179 0.4813 0.0
H85 H 0.51088 0.39258 0.45562 0.0
C86 C 0.53473 0.37249 0.49698 0.0
O87 O 0.63484 0.46209 0.51079 0.0
H88 H 0.46794 0.35329 0.52551 0.0
C89 C 0.67389 0.68645 0.61546 0.0
C90 C 0.67588 0.71656 0.55968 0.0
C91 C 0.65467 0.57961 0.63659 0.0
C92 C 0.64082 0.50308 0.60122 0.0
C93 C 0.64542 0.53402 0.54512 0.0
C94 C 0.66285 0.64057 0.52448 0.0
H95 H 0.93852 0.54336 0.96886 0.0
H96 H 0.2228 0.51766 0.93904 0.0
H97 H 0.03452 0.56632 0.80591 0.0
H98 H 0.16215 0.41477 0.78346 0.0
C99 C 0.19441 0.4351 0.82463 0.0
O100 O 0.20209 0.5353 0.83349 0.0
H101 H 0.13728 0.36411 0.85416 0.0
C102 C -0.00439 0.5457 0.9407 0.0
C103 C 0.97923 0.56263 0.88512 0.0
C104 C 0.08241 0.52888 0.96062 0.0
C105 C 0.15543 0.53086 0.92424 0.0
C106 C 0.13674 0.54223 0.8684 0.0
C107 C 0.04967 0.55974 0.84886 0.0
H108 H 0.94992 0.31997 0.3815 0.0
H109 H 0.20009 0.66837 0.38225 0.0
H110 H 0.04656 0.46666 0.53103 0.0
H111 H 0.14624 0.73039 0.53343 0.0
C112 C 0.19579 0.75262 0.49624 0.0
O113 O 0.20514 0.66171 0.48755 0.0
H114 H 0.15576 0.77667 0.46128 0.0
C115 C 0.00159 0.39119 0.40369 0.0
C116 C -0.0108 0.37993 0.45979 0.0
C117 C 0.07431 0.49569 0.37529 0.0
C118 C 0.14016 0.58844 0.40354 0.0
C119 C 0.13166 0.577 0.45982 0.0
C120 C 0.05426 0.4739 0.48769 0.0
H121 H 0.68183 0.89227 0.71488 0.0
H122 H 0.61106 0.1541 0.73176 0.0
H123 H 0.62844 0.94926 0.87234 0.0
H124 H 0.454 0.04369 0.88119 0.0
C125 C 0.49024 0.09979 0.84318 0.0
O126 O 0.59552 0.11711 0.83688 0.0
H127 H 0.43589 0.06097 0.80861 0.0
C128 C 0.66891 0.94178 0.74054 0.0
C129 C 0.66443 0.91427 0.79671 0.0
C130 C 0.64793 0.02678 0.71691 0.0
C131 C 0.62753 0.08851 0.7497 0.0
C132 C 0.61933 0.05969 0.80567 0.0
C133 C 0.63701 0.97232 0.8291 0.0
H134 H 0.78337 0.55206 0.03928 0.0
H135 H 0.47342 0.52783 0.06953 0.0
H136 H 0.69588 0.55134 0.2009 0.0
H137 H 0.41417 0.39172 0.23049 0.0
C138 C 0.40692 0.42224 0.18794 0.0
O139 O 0.50067 0.52569 0.17414 0.0
H140 H 0.39631 0.35831 0.16196 0.0
C141 C 0.72691 0.55171 0.06712 0.0
C142 C 0.7547 0.55891 0.12193 0.0
C143 C 0.62578 0.53963 0.04788 0.0
C144 C 0.55266 0.5386 0.08368 0.0
C145 C 0.57738 0.54081 0.13899 0.0
C146 C 0.67897 0.55275 0.15804 0.0
loop_
_geom_bond_atom_site_label_1
_geom_bond_atom_site_label_2
_geom_bond_distance
_geom_bond_site_symmetry_2
_ccdc_geom_bond_type
O0 Zn1 1.953 . S
O0 C16 1.225 . S
Zn1 O0 1.953 . S
Zn1 O2 1.949 . S
Zn1 O8 1.919 1_455 S
Zn1 O13 1.924 . S
O2 Zn1 1.949 . S
O2 Zn3 1.923 1_455 S
O2 Zn4 1.950 . S
O2 Zn5 1.945 . S
Zn3 O2 1.923 1_655 S
Zn3 O6 1.933 . S
Zn3 O9 1.941 . S
Zn3 O10 1.965 . S
Zn4 O2 1.950 . S
Zn4 O11 1.938 1_455 S
Zn4 O12 1.906 . S
Zn4 O22 1.953 . S
Zn5 O2 1.945 . S
Zn5 O7 1.932 . S
Zn5 O14 1.977 . S
Zn5 O15 1.910 . S
O6 Zn3 1.933 . S
O6 C17 1.226 1_655 S
O7 Zn5 1.932 . S
O7 C17 1.307 . S
O8 Zn1 1.919 1_655 S
O8 C19 1.253 . S
O9 Zn3 1.941 . S
O9 C19 1.283 . S
O10 Zn3 1.965 . S
O10 C18 1.303 . S
O11 Zn4 1.938 1_655 S
O11 C18 1.247 . S
O12 Zn4 1.906 . S
O12 C20 1.304 . S
O13 Zn1 1.924 . S
O13 C21 1.311 . S
O14 Zn5 1.977 . S
O14 C20 1.272 . S
O15 Zn5 1.910 . S
O15 C21 1.231 . S
C16 O0 1.225 . S
C16 O22 1.298 . S
C17 O6 1.226 1_455 S
C17 O7 1.307 . S
C18 O10 1.303 . S
C18 O11 1.247 . S
C19 O8 1.253 . S
C19 O9 1.283 . S
C20 O12 1.304 . S
C20 O14 1.272 . S
C21 O13 1.311 . S
C21 O15 1.231 . S
O22 Zn4 1.953 . S
O22 C16 1.298 . S
O23 Zn24 1.953 . S
O23 C39 1.225 . S
Zn24 O23 1.953 . S
Zn24 O25 1.949 . S
Zn24 O31 1.919 . S
Zn24 O36 1.924 1_545 S
O25 Zn24 1.949 . S
O25 Zn26 1.923 . S
O25 Zn27 1.950 . S
O25 Zn28 1.945 1_545 S
Zn26 O25 1.923 . S
Zn26 O29 1.933 . S
Zn26 O32 1.941 . S
Zn26 O33 1.965 . S
Zn27 O25 1.950 . S
Zn27 O34 1.938 . S
Zn27 O35 1.906 1_545 S
Zn27 O45 1.953 . S
Zn28 O25 1.945 1_565 S
Zn28 O30 1.932 . S
Zn28 O37 1.977 . S
Zn28 O38 1.910 . S
O29 Zn26 1.933 . S
O29 C40 1.226 . S
O30 Zn28 1.932 . S
O30 C40 1.307 1_565 S
O31 Zn24 1.919 . S
O31 C42 1.253 . S
O32 Zn26 1.941 . S
O32 C42 1.283 . S
O33 Zn26 1.965 . S
O33 C41 1.303 . S
O34 Zn27 1.938 . S
O34 C41 1.247 . S
O35 Zn27 1.906 1_565 S
O35 C43 1.304 . S
O36 Zn24 1.924 1_565 S
O36 C44 1.311 . S
O37 Zn28 1.977 . S
O37 C43 1.272 . S
O38 Zn28 1.910 . S
O38 C44 1.231 . S
C39 O23 1.225 . S
C39 O45 1.298 . S
C40 O29 1.226 . S
C40 O30 1.307 1_545 S
C41 O33 1.303 . S
C41 O34 1.247 . S
C42 O31 1.253 . S
C42 O32 1.283 . S
C43 O35 1.304 . S
C43 O37 1.272 . S
C44 O36 1.311 . S
C44 O38 1.231 . S
O45 Zn27 1.953 . S
O45 C39 1.298 . S
O46 Zn47 1.953 . S
O46 C62 1.225 . S
Zn47 O46 1.953 . S
Zn47 O48 1.949 . S
Zn47 O54 1.919 . S
Zn47 O59 1.924 . S
O48 Zn47 1.949 . S
O48 Zn49 1.923 . S
O48 Zn50 1.950 . S
O48 Zn51 1.945 . S
Zn49 O48 1.923 . S
Zn49 O52 1.933 . S
Zn49 O55 1.941 . S
Zn49 O56 1.965 . S
Zn50 O48 1.950 . S
Zn50 O57 1.938 . S
Zn50 O58 1.906 . S
Zn50 O68 1.953 . S
Zn51 O48 1.945 . S
Zn51 O53 1.932 . S
Zn51 O60 1.977 . S
Zn51 O61 1.910 . S
O52 Zn49 1.933 . S
O52 C63 1.226 . S
O53 Zn51 1.932 . S
O53 C63 1.307 . S
O54 Zn47 1.919 . S
O54 C65 1.253 . S
O55 Zn49 1.941 . S
O55 C65 1.283 . S
O56 Zn49 1.965 . S
O56 C64 1.303 . S
O57 Zn50 1.938 . S
O57 C64 1.247 . S
O58 Zn50 1.906 . S
O58 C66 1.304 . S
O59 Zn47 1.924 . S
O59 C67 1.311 . S
O60 Zn51 1.977 . S
O60 C66 1.272 . S
O61 Zn51 1.910 . S
O61 C67 1.231 . S
C62 O46 1.225 . S
C62 O68 1.298 . S
C63 O52 1.226 . S
C63 O53 1.307 . S
C64 O56 1.303 . S
C64 O57 1.247 . S
C65 O54 1.253 . S
C65 O55 1.283 . S
C66 O58 1.304 . S
C66 O60 1.272 . S
C67 O59 1.311 . S
C67 O61 1.231 . S
O68 Zn50 1.953 . S
O68 C62 1.298 . S
H69 C76 0.929 . S
H70 C79 0.930 . S
H71 C81 0.929 . S
H72 C73 0.969 . S
C73 H72 0.969 . S
C73 O74 1.550 . S
C73 H75 0.973 . S
O74 C73 1.550 . S
O74 C80 1.412 1_565 S
H75 C73 0.973 . S
C76 H69 0.929 . S
C76 C77 1.400 . S
C76 C78 1.364 . S
C77 C76 1.400 . S
C77 C81 1.377 . S
C78 C76 1.364 . S
C78 C79 1.374 1_545 S
C79 H70 0.930 . S
C79 C78 1.374 1_565 S
C79 C80 1.383 1_565 S
C80 O74 1.412 1_545 S
C80 C79 1.383 1_545 S
C80 C81 1.394 . S
C81 H71 0.929 . S
C81 C77 1.377 . S
C81 C80 1.394 . S
H82 C89 0.929 . S
H83 C92 0.930 . S
H84 C94 0.929 . S
H85 C86 0.969 . S
C86 H85 0.969 . S
C86 O87 1.550 . S
C86 H88 0.973 . S
O87 C86 1.550 . S
O87 C93 1.412 . S
H88 C86 0.973 . S
C89 H82 0.929 . S
C89 C90 1.400 . S
C89 C91 1.364 . S
C90 C89 1.400 . S
C90 C94 1.377 . S
C91 C89 1.364 . S
C91 C92 1.374 . S
C92 H83 0.930 . S
C92 C91 1.374 . S
C92 C93 1.383 . S
C93 O87 1.412 . S
C93 C92 1.383 . S
C93 C94 1.394 . S
C94 H84 0.929 . S
C94 C90 1.377 . S
C94 C93 1.394 . S
H95 C102 0.929 . S
H96 C105 0.930 . S
H97 C107 0.929 . S
H98 C99 0.969 . S
C99 H98 0.969 . S
C99 O100 1.550 . S
C99 H101 0.973 . S
O100 C99 1.550 . S
O100 C106 1.412 . S
H101 C99 0.973 . S
C102 H95 0.929 . S
C102 C103 1.400 . S
C102 C104 1.364 1_655 S
C103 C102 1.400 . S
C103 C107 1.377 1_655 S
C104 C102 1.364 1_455 S
C104 C105 1.374 . S
C105 H96 0.930 . S
C105 C104 1.374 . S
C105 C106 1.383 . S
C106 O100 1.412 . S
C106 C105 1.383 . S
C106 C107 1.394 . S
C107 H97 0.929 . S
C107 C103 1.377 1_455 S
C107 C106 1.394 . S
H108 C115 0.929 . S
H109 C118 0.930 . S
H110 C120 0.929 . S
H111 C112 0.969 . S
C112 H111 0.969 . S
C112 O113 1.550 . S
C112 H114 0.973 . S
O113 C112 1.550 . S
O113 C119 1.412 . S
H114 C112 0.973 . S
C115 H108 0.929 . S
C115 C116 1.400 . S
C115 C117 1.364 1_655 S
C116 C115 1.400 . S
C116 C120 1.377 1_655 S
C117 C115 1.364 1_455 S
C117 C118 1.374 . S
C118 H109 0.930 . S
C118 C117 1.374 . S
C118 C119 1.383 . S
C119 O113 1.412 . S
C119 C118 1.383 . S
C119 C120 1.394 . S
C120 H110 0.929 . S
C120 C116 1.377 1_455 S
C120 C119 1.394 . S
H121 C128 0.929 . S
H122 C131 0.930 . S
H123 C133 0.929 . S
H124 C125 0.969 . S
C125 H124 0.969 . S
C125 O126 1.550 . S
C125 H127 0.973 . S
O126 C125 1.550 . S
O126 C132 1.412 . S
H127 C125 0.973 . S
C128 H121 0.929 . S
C128 C129 1.400 . S
C128 C130 1.364 . S
C129 C128 1.400 . S
C129 C133 1.377 . S
C130 C128 1.364 . S
C130 C131 1.374 1_565 S
C131 H122 0.930 . S
C131 C130 1.374 1_545 S
C131 C132 1.383 . S
C132 O126 1.412 . S
C132 C131 1.383 . S
C132 C133 1.394 1_545 S
C133 H123 0.929 . S
C133 C129 1.377 . S
C133 C132 1.394 1_565 S
H134 C141 0.929 . S
H135 C144 0.930 . S
H136 C146 0.929 . S
H137 C138 0.969 . S
C138 H137 0.969 . S
C138 O139 1.550 . S
C138 H140 0.973 . S
O139 C138 1.550 . S
O139 C145 1.412 . S
H140 C138 0.973 . S
C141 H134 0.929 . S
C141 C142 1.400 . S
C141 C143 1.364 . S
C142 C141 1.400 . S
C142 C146 1.377 . S
C143 C141 1.364 . S
C143 C144 1.374 . S
C144 H135 0.930 . S
C144 C143 1.374 . S
C144 C145 1.383 . S
C145 O139 1.412 . S
C145 C144 1.383 . S
C145 C146 1.394 . S
C146 H136 0.929 . S
C146 C142 1.377 . S
C146 C145 1.394 . S
C20 C138 1.302 . S
C41 C116 2.015 . S
C64 C129 2.052 . S
C19 C142 1.648 . S
C112 C44 1.374 . S
C125 C67 1.359 . S
C43 C90 1.660 . S
C66 C103 1.644 . S
C21 C73 1.450 . S
C86 C42 1.316 . S
C99 C65 1.313 . S
C18 C77 1.840 . S
C104 C17 1.529 1_556 S
C39 C78 1.579 . S
C62 C91 1.590 . S
C130 C40 1.591 1_565 S
C143 C63 1.624 1_554 S
C16 C117 1.535 . S
