# Generated by pormake.
# Topology anh, (6,3)-cn, num edge types: 1
# Building blocks:
#     Node 0, Type 0, BuildingBlock: CUKXOW_clean_sbu_0, # of connection points: 6
#     Node 1, Type 0, BuildingBlock: CUKXOW_clean_sbu_0, # of connection points: 6
#     Node 2, Type 0, BuildingBlock: CUKXOW_clean_sbu_0, # of connection points: 6
#     Node 3, Type 1, BuildingBlock: INOVEN_clean_linker_0, # of connection points: 3
#     Node 4, Type 1, BuildingBlock: INOVEN_clean_linker_0, # of connection points: 3
#     Node 5, Type 1, BuildingBlock: INOVEN_clean_linker_0, # of connection points: 3
#     Node 6, Type 1, BuildingBlock: INOVEN_clean_linker_0, # of connection points: 3
#     Node 7, Type 1, BuildingBlock: INOVEN_clean_linker_0, # of connection points: 3
#     Node 8, Type 1, BuildingBlock: INOVEN_clean_linker_0, # of connection points: 3
#     Edge 9, Type (0, 1), None
#     Edge 10, Type (0, 1), None
#     Edge 11, Type (0, 1), None
#     Edge 12, Type (0, 1), None
#     Edge 13, Type (0, 1), None
#     Edge 14, Type (0, 1), None
#     Edge 15, Type (0, 1), None
#     Edge 16, Type (0, 1), None
#     Edge 17, Type (0, 1), None
#     Edge 18, Type (0, 1), None
#     Edge 19, Type (0, 1), None
#     Edge 20, Type (0, 1), None
#     Edge 21, Type (0, 1), None
#     Edge 22, Type (0, 1), None
#     Edge 23, Type (0, 1), None
#     Edge 24, Type (0, 1), None
#     Edge 25, Type (0, 1), None
#     Edge 26, Type (0, 1), None
# Relax obj value: 0.099
# Max RMSD: 0.160
# Mean RMSD: 0.090
data_MOF--net-anh--node1-CUKXOW_clean_sbu_0--node2-INOVEN_clean_linker_0--edge1-none
_symmetry_space_group_name_H-M    P1
_symmetry_Int_Tables_number       1
_symmetry_cell_setting            triclinic
loop_
_symmetry_equiv_pos_as_xyz
'x, y, z'
_cell_length_a     12.563238
_cell_length_b     12.200654
_cell_length_c     21.234197
_cell_angle_alpha  97.69783
_cell_angle_beta   92.689918
_cell_angle_gamma 106.73852
loop_
_atom_site_label
_atom_site_type_symbol
_atom_site_fract_x
_atom_site_fract_y
_atom_site_fract_z
_atom_type_partial_charge
Tb0 Tb 0.1311 0.67665 0.13007 0.0
C1 C 0.0914 0.58814 0.26348 0.0
Tb2 Tb 1.04254 0.40755 0.13489 0.0
O3 O 0.96601 0.70944 0.11931 0.0
O4 O 0.97499 0.55039 0.13265 0.0
O5 O 0.13805 0.67386 0.2322 0.0
C6 C 0.88225 0.20927 0.13522 0.0
O7 O 1.04209 0.48015 0.23481 0.0
C8 C 0.2697 0.48459 0.1346 0.0
C9 C 0.08802 0.49469 0.00363 0.0
O10 O 0.97907 0.24101 0.16812 0.0
O11 O 0.87716 0.28809 0.1008 0.0
O12 O 0.21178 0.37585 0.13242 0.0
O13 O 0.19523 0.53658 0.13548 0.0
O14 O 1.03762 0.40695 0.03284 0.0
O15 O 0.14054 0.60139 0.03294 0.0
C16 C 0.29938 0.87272 0.1555 0.0
O17 O 0.25289 0.82701 0.09806 0.0
O18 O 0.24684 0.81104 0.19569 0.0
C19 C 0.90309 0.60542 0.12527 0.0
Tb20 Tb 0.45361 0.01726 0.47453 0.0
C21 C 0.54664 0.06758 0.34376 0.0
Tb22 Tb 0.70529 0.11447 0.47167 0.0
O23 O 0.42792 0.18356 0.45467 0.0
O24 O 0.57456 0.18129 0.49926 0.0
O25 O 0.46264 0.01006 0.37316 0.0
C26 C 0.90045 0.26911 0.46784 0.0
O27 O 0.64648 0.12345 0.37393 0.0
C28 C 0.63768 0.88633 0.46559 0.0
C29 C 0.60707 0.08021 0.60495 0.0
O30 O 0.87005 0.16432 0.43689 0.0
O31 O 0.82152 0.28626 0.50116 0.0
O32 O 0.73759 0.95173 0.48744 0.0
O33 O 0.58521 0.95155 0.44524 0.0
O34 O 0.6959 0.12349 0.57442 0.0
O35 O 0.50487 0.03091 0.57604 0.0
C36 C 0.26916 0.83922 0.46636 0.0
O37 O 0.27138 0.9478 0.4733 0.0
O38 O 0.37006 0.8333 0.46512 0.0
C39 C 0.53009 0.24788 0.47381 0.0
Tb40 Tb 0.52799 0.49823 0.79633 0.0
C41 C 0.64798 0.55283 0.92984 0.0
Tb42 Tb 0.75632 0.61344 0.80219 0.0
O43 O 0.55582 0.35161 0.83372 0.0
O44 O 0.66311 0.4382 0.77206 0.0
O45 O 0.55053 0.54373 0.89969 0.0
C46 C 0.96671 0.6289 0.81476 0.0
O47 O 0.73693 0.56173 0.89747 0.0
C48 C 0.67044 0.78061 0.81852 0.0
C49 C 0.63148 0.54131 0.66656 0.0
O50 O 0.91663 0.6828 0.85412 0.0
O51 O 0.90198 0.58672 0.76248 0.0
O52 O 0.7765 0.79568 0.81834 0.0
O53 O 0.61677 0.6747 0.81017 0.0
O54 O 0.72581 0.60671 0.6991 0.0
O55 O 0.54719 0.48396 0.69508 0.0
C56 C 0.31777 0.44201 0.75491 0.0
O57 O 0.36764 0.37158 0.77365 0.0
O58 O 0.38517 0.5462 0.76404 0.0
C59 C 0.64323 0.35388 0.80307 0.0
H60 H 0.48096 0.98038 0.0875 0.0
H61 H 0.35432 0.97217 0.2725 0.0
H62 H 0.69719 0.14611 0.25949 0.0
N63 N 0.69005 0.12017 0.13335 0.0
N64 N 0.7872 0.13597 0.15709 0.0
C65 C 0.49291 1.00536 0.13885 0.0
C66 C 0.40462 0.96615 0.17703 0.0
C67 C 0.59919 0.07253 0.16886 0.0
C68 C 0.61566 0.09697 0.23615 0.0
C69 C 0.52838 0.05866 0.27357 0.0
C70 C 0.42271 0.99996 0.24332 0.0
H71 H 0.54542 0.44973 0.41217 0.0
H72 H 0.58369 0.33745 0.59305 0.0
H73 H 0.64259 0.69764 0.58661 0.0
N74 N 0.6102 0.68545 0.46179 0.0
N75 N 0.58971 0.77657 0.48593 0.0
C76 C 0.56383 0.46886 0.46348 0.0
C77 C 0.56051 0.3764 0.49947 0.0
C78 C 0.59266 0.58701 0.49517 0.0
C79 C 0.61983 0.60951 0.56164 0.0
C80 C 0.61877 0.52021 0.5964 0.0
C81 C 0.58857 0.40588 0.56525 0.0
H82 H 1.00612 0.44251 0.75172 0.0
H83 H 1.0349 0.64154 0.93744 0.0
H84 H 0.1208 0.32441 0.91558 0.0
N85 N 0.15992 0.35552 0.79701 0.0
N86 N 0.20638 0.42525 0.76194 0.0
C87 C 1.02134 0.45156 0.80321 0.0
C88 C 1.01912 0.5526 0.84121 0.0
C89 C 0.07165 0.37746 0.8287 0.0
C90 C 0.08332 0.38277 0.8951 0.0
C91 C 0.07087 0.47927 0.93435 0.0
C92 C 1.04361 0.56629 0.90699 0.0
H93 H 0.13035 0.67031 0.52081 0.0
H94 H 0.2141 0.78603 0.34171 0.0
H95 H 0.98612 0.44861 0.34422 0.0
N96 N 0.99302 0.46239 0.46937 0.0
N97 N 0.97927 0.35947 0.44622 0.0
C98 C 0.11856 0.65679 0.46912 0.0
C99 C 0.17617 0.74221 0.43479 0.0
C100 C 1.05143 0.55051 0.43617 0.0
C101 C 1.03999 0.53067 0.36912 0.0
C102 C 0.0973 0.6146 0.33417 0.0
C103 C 0.1648 0.72132 0.36762 0.0
H104 H 0.68255 0.18031 0.8601 0.0
H105 H 0.61927 0.2788 0.6788 0.0
H106 H 0.62947 0.9344 0.68716 0.0
N107 N 0.68238 0.96764 0.81183 0.0
N108 N 0.62466 0.86462 0.80111 0.0
C109 C 0.66532 0.15935 0.80866 0.0
C110 C 0.65155 0.24263 0.77265 0.0
C111 C 0.65538 0.04802 0.77778 0.0
C112 C 0.63255 0.01973 0.71104 0.0
C113 C 0.62116 0.1036 0.675 0.0
C114 C 0.63071 0.2145 0.70614 0.0
H115 H 0.69046 0.54695 0.18368 0.0
H116 H 0.83582 0.57292 0.00394 0.0
H117 H 0.48342 0.52018 0.01015 0.0
N118 N 0.46726 0.50235 0.13282 0.0
N119 N 0.38046 0.52478 0.11209 0.0
C120 C 0.68128 0.54432 0.1325 0.0
C121 C 0.77979 0.5604 0.0972 0.0
C122 C 0.57114 0.52876 0.10104 0.0
C123 C 0.56417 0.53199 0.03494 0.0
C124 C 0.65824 0.54715 -0.00021 0.0
C125 C 0.76341 0.55893 0.03112 0.0
loop_
_geom_bond_atom_site_label_1
_geom_bond_atom_site_label_2
_geom_bond_distance
_geom_bond_site_symmetry_2
_ccdc_geom_bond_type
Tb0 O3 2.453 1_455 S
Tb0 O4 2.596 1_455 S
Tb0 O5 2.374 . S
Tb0 O13 2.343 . S
Tb0 O15 2.353 . S
Tb0 O17 2.427 . S
Tb0 O18 2.513 . S
C1 O5 1.251 . S
C1 O7 1.263 . S
Tb2 O4 2.343 . S
Tb2 O7 2.353 1_655 S
Tb2 O10 2.427 . S
Tb2 O11 2.513 . S
Tb2 O12 2.453 1_655 S
Tb2 O13 2.596 1_655 S
Tb2 O14 2.374 . S
O3 Tb0 2.453 1_655 S
O3 C19 1.245 . S
O4 Tb0 2.596 1_655 S
O4 Tb2 2.343 . S
O4 C19 1.259 . S
O5 Tb0 2.374 . S
O5 C1 1.251 . S
C6 O10 1.275 . S
C6 O11 1.246 . S
O7 C1 1.263 . S
O7 Tb2 2.353 1_455 S
C8 O12 1.245 . S
C8 O13 1.259 . S
C9 O14 1.251 1_455 S
C9 O15 1.263 . S
O10 Tb2 2.427 . S
O10 C6 1.275 . S
O11 Tb2 2.513 . S
O11 C6 1.246 . S
O12 Tb2 2.453 1_455 S
O12 C8 1.245 . S
O13 Tb0 2.343 . S
O13 Tb2 2.596 1_455 S
O13 C8 1.259 . S
O14 Tb2 2.374 . S
O14 C9 1.251 1_655 S
O15 Tb0 2.353 . S
O15 C9 1.263 . S
C16 O17 1.275 . S
C16 O18 1.246 . S
O17 Tb0 2.427 . S
O17 C16 1.275 . S
O18 Tb0 2.513 . S
O18 C16 1.246 . S
C19 O3 1.245 . S
C19 O4 1.259 . S
Tb20 O23 2.453 . S
Tb20 O24 2.596 . S
Tb20 O25 2.374 . S
Tb20 O33 2.343 1_545 S
Tb20 O35 2.353 . S
Tb20 O37 2.427 1_545 S
Tb20 O38 2.513 1_545 S
C21 O25 1.251 . S
C21 O27 1.263 . S
Tb22 O24 2.343 . S
Tb22 O27 2.353 . S
Tb22 O30 2.427 . S
Tb22 O31 2.513 . S
Tb22 O32 2.453 1_545 S
Tb22 O33 2.596 1_545 S
Tb22 O34 2.374 . S
O23 Tb20 2.453 . S
O23 C39 1.245 . S
O24 Tb20 2.596 . S
O24 Tb22 2.343 . S
O24 C39 1.259 . S
O25 Tb20 2.374 . S
O25 C21 1.251 . S
C26 O30 1.275 . S
C26 O31 1.246 . S
O27 C21 1.263 . S
O27 Tb22 2.353 . S
C28 O32 1.245 . S
C28 O33 1.259 . S
C29 O34 1.250 . S
C29 O35 1.263 . S
O30 Tb22 2.427 . S
O30 C26 1.275 . S
O31 Tb22 2.513 . S
O31 C26 1.246 . S
O32 Tb22 2.453 1_565 S
O32 C28 1.245 . S
O33 Tb20 2.343 1_565 S
O33 Tb22 2.596 1_565 S
O33 C28 1.259 . S
O34 Tb22 2.374 . S
O34 C29 1.250 . S
O35 Tb20 2.353 . S
O35 C29 1.263 . S
C36 O37 1.275 . S
C36 O38 1.246 . S
O37 Tb20 2.427 1_565 S
O37 C36 1.275 . S
O38 Tb20 2.513 1_565 S
O38 C36 1.246 . S
C39 O23 1.245 . S
C39 O24 1.259 . S
Tb40 O43 2.453 . S
Tb40 O44 2.596 . S
Tb40 O45 2.374 . S
Tb40 O53 2.343 . S
Tb40 O55 2.353 . S
Tb40 O57 2.427 . S
Tb40 O58 2.513 . S
C41 O45 1.251 . S
C41 O47 1.263 . S
Tb42 O44 2.343 . S
Tb42 O47 2.353 . S
Tb42 O50 2.427 . S
Tb42 O51 2.513 . S
Tb42 O52 2.453 . S
Tb42 O53 2.596 . S
Tb42 O54 2.374 . S
O43 Tb40 2.453 . S
O43 C59 1.245 . S
O44 Tb40 2.596 . S
O44 Tb42 2.343 . S
O44 C59 1.259 . S
O45 Tb40 2.374 . S
O45 C41 1.251 . S
C46 O50 1.275 . S
C46 O51 1.246 . S
O47 C41 1.263 . S
O47 Tb42 2.353 . S
C48 O52 1.245 . S
C48 O53 1.259 . S
C49 O54 1.250 . S
C49 O55 1.263 . S
O50 Tb42 2.427 . S
O50 C46 1.275 . S
O51 Tb42 2.513 . S
O51 C46 1.246 . S
O52 Tb42 2.453 . S
O52 C48 1.245 . S
O53 Tb40 2.343 . S
O53 Tb42 2.596 . S
O53 C48 1.259 . S
O54 Tb42 2.374 . S
O54 C49 1.250 . S
O55 Tb40 2.353 . S
O55 C49 1.263 . S
C56 O57 1.275 . S
C56 O58 1.246 . S
O57 Tb40 2.427 . S
O57 C56 1.275 . S
O58 Tb40 2.513 . S
O58 C56 1.246 . S
C59 O43 1.245 . S
C59 O44 1.259 . S
H60 C65 0.929 . S
H61 C70 0.931 . S
H62 C68 0.930 . S
N63 N64 1.234 . S
N63 C67 1.453 . S
N64 N63 1.234 . S
C65 H60 0.929 . S
C65 C66 1.373 . S
C65 C67 1.368 1_565 S
C66 C65 1.373 . S
C66 C70 1.397 . S
C67 N63 1.453 . S
C67 C65 1.368 1_545 S
C67 C68 1.373 . S
C68 H62 0.930 . S
C68 C67 1.373 . S
C68 C69 1.371 . S
C69 C68 1.371 . S
C69 C70 1.383 1_545 S
C70 H61 0.931 . S
C70 C66 1.397 . S
C70 C69 1.383 1_565 S
H71 C76 0.929 . S
H72 C81 0.931 . S
H73 C79 0.930 . S
N74 N75 1.234 . S
N74 C78 1.453 . S
N75 N74 1.234 . S
C76 H71 0.929 . S
C76 C77 1.373 . S
C76 C78 1.368 . S
C77 C76 1.373 . S
C77 C81 1.397 . S
C78 N74 1.453 . S
C78 C76 1.368 . S
C78 C79 1.373 . S
C79 H73 0.930 . S
C79 C78 1.373 . S
C79 C80 1.371 . S
C80 C79 1.371 . S
C80 C81 1.383 . S
C81 H72 0.931 . S
C81 C77 1.397 . S
C81 C80 1.383 . S
H82 C87 0.929 . S
H83 C92 0.931 . S
H84 C90 0.930 . S
N85 N86 1.234 . S
N85 C89 1.453 . S
N86 N85 1.234 . S
C87 H82 0.929 . S
C87 C88 1.373 . S
C87 C89 1.368 1_655 S
C88 C87 1.373 . S
C88 C92 1.397 . S
C89 N85 1.453 . S
C89 C87 1.368 1_455 S
C89 C90 1.373 . S
C90 H84 0.930 . S
C90 C89 1.373 . S
C90 C91 1.371 . S
C91 C90 1.371 . S
C91 C92 1.383 1_455 S
C92 H83 0.931 . S
C92 C88 1.397 . S
C92 C91 1.383 1_655 S
H93 C98 0.929 . S
H94 C103 0.931 . S
H95 C101 0.930 . S
N96 N97 1.234 . S
N96 C100 1.453 . S
N97 N96 1.234 . S
C98 H93 0.929 . S
C98 C99 1.373 . S
C98 C100 1.368 1_455 S
C99 C98 1.373 . S
C99 C103 1.397 . S
C100 N96 1.453 . S
C100 C98 1.368 1_655 S
C100 C101 1.373 . S
C101 H95 0.930 . S
C101 C100 1.373 . S
C101 C102 1.371 1_655 S
C102 C101 1.371 1_455 S
C102 C103 1.383 . S
C103 H94 0.931 . S
C103 C99 1.397 . S
C103 C102 1.383 . S
H104 C109 0.929 . S
H105 C114 0.931 . S
H106 C112 0.930 . S
N107 N108 1.234 . S
N107 C111 1.453 1_565 S
N108 N107 1.234 . S
C109 H104 0.929 . S
C109 C110 1.373 . S
C109 C111 1.368 . S
C110 C109 1.373 . S
C110 C114 1.397 . S
C111 N107 1.453 1_545 S
C111 C109 1.368 . S
C111 C112 1.373 1_545 S
C112 H106 0.930 . S
C112 C111 1.373 1_565 S
C112 C113 1.371 1_565 S
C113 C112 1.371 1_545 S
C113 C114 1.383 . S
C114 H105 0.931 . S
C114 C110 1.397 . S
C114 C113 1.383 . S
H115 C120 0.929 . S
H116 C125 0.931 . S
H117 C123 0.930 . S
N118 N119 1.234 . S
N118 C122 1.453 . S
N119 N118 1.234 . S
C120 H115 0.929 . S
C120 C121 1.373 . S
C120 C122 1.368 . S
C121 C120 1.373 . S
C121 C125 1.397 . S
C122 N118 1.453 . S
C122 C120 1.368 . S
C122 C123 1.373 . S
C123 H117 0.930 . S
C123 C122 1.373 . S
C123 C124 1.371 . S
C124 C123 1.371 . S
C124 C125 1.383 . S
C125 H116 0.931 . S
C125 C121 1.397 . S
C125 C124 1.383 . S
C8 N119 2.387 . S
C26 N97 1.366 . S
C48 N108 1.603 . S
C19 C121 2.321 . S
C99 C36 1.212 . S
C110 C59 1.581 . S
C28 N75 1.629 . S
C46 C88 0.739 . S
C16 C66 1.244 . S
C77 C39 1.621 . S
N86 C56 0.767 . S
C6 N64 1.559 . S
C91 C9 1.367 1_556 S
C21 C69 1.519 . S
C49 C80 1.486 . S
C113 C29 1.454 . S
C124 C41 1.649 1_554 S
C1 C102 1.486 . S
