# Generated by pormake.
# Topology pyr, (3,6)-cn, num edge types: 1
# Building blocks:
#     Node 0, Type 0, BuildingBlock: INOVEN_clean_linker_0, # of connection points: 3
#     Node 1, Type 0, BuildingBlock: INOVEN_clean_linker_0, # of connection points: 3
#     Node 2, Type 0, BuildingBlock: INOVEN_clean_linker_0, # of connection points: 3
#     Node 3, Type 0, BuildingBlock: INOVEN_clean_linker_0, # of connection points: 3
#     Node 4, Type 0, BuildingBlock: INOVEN_clean_linker_0, # of connection points: 3
#     Node 5, Type 0, BuildingBlock: INOVEN_clean_linker_0, # of connection points: 3
#     Node 6, Type 0, BuildingBlock: INOVEN_clean_linker_0, # of connection points: 3
#     Node 7, Type 0, BuildingBlock: INOVEN_clean_linker_0, # of connection points: 3
#     Node 8, Type 1, BuildingBlock: LEVNOQ01_clean_sbu_1, # of connection points: 6
#     Node 9, Type 1, BuildingBlock: LEVNOQ01_clean_sbu_1, # of connection points: 6
#     Node 10, Type 1, BuildingBlock: LEVNOQ01_clean_sbu_1, # of connection points: 6
#     Node 11, Type 1, BuildingBlock: LEVNOQ01_clean_sbu_1, # of connection points: 6
#     Edge 12, Type (0, 1), None
#     Edge 13, Type (0, 1), None
#     Edge 14, Type (0, 1), None
#     Edge 15, Type (0, 1), None
#     Edge 16, Type (0, 1), None
#     Edge 17, Type (0, 1), None
#     Edge 18, Type (0, 1), None
#     Edge 19, Type (0, 1), None
#     Edge 20, Type (0, 1), None
#     Edge 21, Type (0, 1), None
#     Edge 22, Type (0, 1), None
#     Edge 23, Type (0, 1), None
#     Edge 24, Type (0, 1), None
#     Edge 25, Type (0, 1), None
#     Edge 26, Type (0, 1), None
#     Edge 27, Type (0, 1), None
#     Edge 28, Type (0, 1), None
#     Edge 29, Type (0, 1), None
#     Edge 30, Type (0, 1), None
#     Edge 31, Type (0, 1), None
#     Edge 32, Type (0, 1), None
#     Edge 33, Type (0, 1), None
#     Edge 34, Type (0, 1), None
#     Edge 35, Type (0, 1), None
# Relax obj value: 0.089
# Max RMSD: 0.164
# Mean RMSD: 0.125
data_MOF--net-pry--node1-LEVNOQ01_clean_sbu_1--node2-INOVEN_clean_linker_0--edge1-none
_symmetry_space_group_name_H-M    P1
_symmetry_Int_Tables_number       1
_symmetry_cell_setting            triclinic
loop_
_symmetry_equiv_pos_as_xyz
'x, y, z'
_cell_length_a     15.945056
_cell_length_b     15.672436
_cell_length_c     16.028852
_cell_angle_alpha  92.928665
_cell_angle_beta   94.104754
_cell_angle_gamma 102.55175
loop_
_atom_site_label
_atom_site_type_symbol
_atom_site_fract_x
_atom_site_fract_y
_atom_site_fract_z
_atom_type_partial_charge
H0 H 0.01763 0.15885 0.23051 0.0
H1 H 0.21909 0.01639 0.21227 0.0
H2 H 0.20627 0.2298 0.05434 0.0
N3 N 0.0641 0.26914 0.11913 0.0
N4 N 0.09289 0.33023 0.07481 0.0
C5 C 0.07415 0.14747 0.2017 0.0
C6 C 0.11384 0.08157 0.22936 0.0
C7 C 0.10553 0.19969 0.13798 0.0
C8 C 0.17914 0.186 0.10049 0.0
C9 C 0.22135 0.11957 0.12608 0.0
C10 C 0.18673 0.06597 0.18995 0.0
H11 H 0.38564 0.77882 0.55587 0.0
H12 H 0.51879 0.85701 0.79997 0.0
H13 H 0.32831 0.98963 0.70734 0.0
N14 N 0.28538 0.89694 0.56501 0.0
N15 N 0.27965 0.97195 0.54766 0.0
C16 C 0.40193 0.82438 0.61077 0.0
C17 C 0.46365 0.81307 0.67452 0.0
C18 C 0.35591 0.89065 0.62145 0.0
C19 C 0.37037 0.94509 0.69607 0.0
C20 C 0.4278 0.93306 0.76123 0.0
C21 C 0.47745 0.8699 0.7481 0.0
H22 H 0.55356 0.24186 0.8678 0.0
H23 H 0.72159 0.40629 0.06307 0.0
H24 H 0.7473 0.45892 0.80441 0.0
N25 N 0.61604 0.33294 0.74286 0.0
N26 N 0.5808 0.38546 0.70507 0.0
C27 C 0.60776 0.29573 0.88747 0.0
C28 C 0.63216 0.31831 0.97256 0.0
C29 C 0.64802 0.34816 0.82777 0.0
C30 C 0.7156 0.42012 0.85202 0.0
C31 C 0.74325 0.44058 0.93664 0.0
C32 C 0.7011 0.38985 0.99712 0.0
H33 H 0.83361 0.50816 0.49391 0.0
H34 H 0.81233 0.76969 0.55519 0.0
H35 H 0.04142 0.72007 0.46107 0.0
N36 N 0.95355 0.57024 0.39592 0.0
N37 N 0.93439 0.60526 0.33067 0.0
C38 C 0.8662 0.57583 0.51087 0.0
C39 C 0.81809 0.63465 0.54101 0.0
C40 C 0.94294 0.60843 0.47516 0.0
C41 C 0.98364 0.69613 0.49263 0.0
C42 C 0.93114 0.75426 0.50886 0.0
C43 C 0.85453 0.72465 0.54655 0.0
H44 H 0.83602 0.98158 0.75078 0.0
H45 H 0.05155 0.86724 0.81662 0.0
H46 H 0.84308 0.84711 0.97742 0.0
N47 N 0.75021 0.93078 0.88235 0.0
N48 N 0.7327 0.95978 0.95142 0.0
C49 C 0.87022 0.947 0.79357 0.0
C50 C 0.95047 0.93085 0.77475 0.0
C51 C 0.83431 0.92094 0.86855 0.0
C52 C 0.87504 0.87249 0.92349 0.0
C53 C 0.95183 0.84961 0.90498 0.0
C54 C 0.99128 0.88287 0.8319 0.0
H55 H 0.5141 0.13716 0.39931 0.0
H56 H 0.68474 0.01074 0.2734 0.0
H57 H 0.77228 0.15935 0.50864 0.0
N58 N 0.64033 0.24259 0.49125 0.0
N59 N 0.57068 0.26547 0.49823 0.0
C60 C 0.57445 0.11572 0.40128 0.0
C61 C 0.59392 0.07438 0.32853 0.0
C62 C 0.64136 0.15617 0.46108 0.0
C63 C 0.72021 0.12922 0.46211 0.0
C64 C 0.73359 0.06894 0.39841 0.0
C65 C 0.67087 0.04523 0.3293 0.0
H66 H 0.48361 0.84183 0.24845 0.0
H67 H 0.24848 0.82225 0.09744 0.0
H68 H 0.26445 0.64099 0.28635 0.0
N69 N 0.43525 0.69948 0.31878 0.0
N70 N 0.41188 0.62904 0.35158 0.0
C71 C 0.41415 0.81775 0.23964 0.0
C72 C 0.37 0.83793 0.16786 0.0
C73 C 0.37706 0.74526 0.28194 0.0
C74 C 0.29104 0.70184 0.25906 0.0
C75 C 0.24494 0.72876 0.19112 0.0
C76 C 0.28161 0.8046 0.15336 0.0
H77 H -0.00091 0.32739 0.63512 0.0
H78 H 0.25431 0.32277 0.56878 0.0
H79 H 0.19539 0.56355 0.65602 0.0
N80 N 0.0446 0.48973 0.70033 0.0
N81 N 0.07649 0.50371 0.77432 0.0
C82 C 0.06192 0.36234 0.61961 0.0
C83 C 0.12163 0.31591 0.59305 0.0
C84 C 0.08932 0.45178 0.64224 0.0
C85 C 0.17355 0.49569 0.63199 0.0
C86 C 0.23319 0.44927 0.60602 0.0
C87 C 0.20648 0.36 0.58307 0.0
O88 O 0.07179 -0.00475 0.69845 0.0
Mg89 Mg 0.11044 0.07835 0.59504 0.0
O90 O 0.94574 0.97197 0.62898 0.0
Mg91 Mg 0.00475 0.01667 0.49884 0.0
O92 O 0.04983 0.16803 0.55057 0.0
O93 O 0.1581 0.19497 0.65354 0.0
O94 O 0.06443 0.05921 0.36736 0.0
O95 O 0.87384 0.05755 0.45877 0.0
Mg96 Mg 0.90791 0.89744 0.32313 0.0
O97 O 0.9492 0.88921 0.44271 0.0
O98 O 0.02133 0.9535 0.26504 0.0
O99 O 0.81656 0.97627 0.34123 0.0
O100 O 0.88569 0.77034 0.36718 0.0
C101 C 0.20354 -0.0048 0.51667 0.0
C102 C 0.99111 0.96535 0.69672 0.0
C103 C 0.10645 0.22215 0.60116 0.0
C104 C 0.07043 0.0258 0.29311 0.0
C105 C 0.81343 0.03416 0.39912 0.0
C106 C 0.92192 0.80698 0.43835 0.0
O107 O 0.20879 0.07511 0.51286 0.0
O108 O 0.12931 0.95019 0.52845 0.0
O109 O 0.36002 0.20292 0.11733 0.0
Mg110 Mg 0.49059 0.21029 0.13366 0.0
O111 O 0.34542 0.062 0.08124 0.0
Mg112 Mg 0.48972 0.04136 0.04274 0.0
O113 O 0.55086 0.18944 0.02903 0.0
O114 O 0.56391 0.32133 0.09838 0.0
O115 O 0.6223 0.01429 1.00794 0.0
O116 O 0.45329 0.01991 0.89314 0.0
Mg117 Mg 0.45868 0.83121 0.95369 0.0
O118 O 0.44567 0.90212 0.05568 0.0
O119 O 0.59287 0.8804 0.94164 0.0
O120 O 0.37143 0.88619 0.88254 0.0
O121 O 0.41092 0.75936 0.05389 0.0
C122 C 0.5518 0.09388 0.24915 0.0
C123 C 0.31245 0.12719 0.10428 0.0
C124 C 0.57994 0.27419 0.0356 0.0
C125 C 0.64546 0.95192 0.96721 0.0
C126 C 0.40813 0.95317 0.84799 0.0
C127 C 0.41338 0.83427 0.09212 0.0
O128 O 0.53518 0.16887 0.24574 0.0
O129 O 0.5414 0.04238 0.18356 0.0
O130 O 0.50593 0.70033 0.74792 0.0
Mg131 Mg 0.46878 0.56507 0.77442 0.0
O132 O 0.49521 0.6826 0.60747 0.0
Mg133 Mg 0.52207 0.54149 0.57047 0.0
O134 O 0.54418 0.52128 0.69907 0.0
O135 O 0.53329 0.46272 0.8175 0.0
O136 O 0.54211 0.39954 0.54254 0.0
O137 O 0.67068 0.59567 0.57162 0.0
Mg138 Mg 0.59216 0.51036 0.38352 0.0
O139 O 0.49891 0.5587 0.43511 0.0
O140 O 0.58285 0.38059 0.41452 0.0
O141 O 0.7057 0.58891 0.43921 0.0
O142 O 0.51136 0.55706 0.29871 0.0
C143 C 0.32429 0.48669 0.62859 0.0
C144 C 0.49522 0.72983 0.67585 0.0
C145 C 0.55846 0.46064 0.74326 0.0
C146 C 0.5662 0.35265 0.48566 0.0
C147 C 0.72579 0.60812 0.51697 0.0
C148 C 0.47302 0.57784 0.36236 0.0
O149 O 0.34647 0.51434 0.70505 0.0
O150 O 0.37798 0.48659 0.57341 0.0
O151 O 0.97767 0.39534 0.09745 0.0
Mg152 Mg 0.00972 0.53311 0.13386 0.0
O153 O 0.087 0.47458 0.04652 0.0
Mg154 Mg 0.00403 0.59416 0.04205 0.0
O155 O 0.94539 0.61422 0.18416 0.0
O156 O 0.98098 0.50255 0.24943 0.0
O157 O 0.94167 0.72994 1.00349 0.0
O158 O 0.87988 0.4908 0.00951 0.0
Mg159 Mg 0.97855 0.62255 0.92822 0.0
O160 O 0.06198 0.55024 0.91222 0.0
O161 O 0.04448 0.75339 0.92172 0.0
O162 O 0.84014 0.57622 0.92058 0.0
O163 O 0.97775 0.58496 0.80712 0.0
C164 C 0.16706 0.67001 0.14964 0.0
C165 C 0.04909 0.39982 0.06735 0.0
C166 C 0.95048 0.57143 0.25168 0.0
C167 C 0.98388 0.77998 0.95141 0.0
C168 C 0.82188 0.50783 0.95993 0.0
C169 C 0.03703 0.54682 0.83314 0.0
O170 O 0.14103 0.59421 0.17438 0.0
O171 O 0.12544 0.6932 0.08757 0.0
loop_
_geom_bond_atom_site_label_1
_geom_bond_atom_site_label_2
_geom_bond_distance
_geom_bond_site_symmetry_2
_ccdc_geom_bond_type
H0 C5 0.929 . S
H1 C10 0.931 . S
H2 C8 0.930 . S
N3 N4 1.234 . S
N3 C7 1.453 . S
N4 N3 1.234 . S
C5 H0 0.929 . S
C5 C6 1.373 . S
C5 C7 1.368 . S
C6 C5 1.373 . S
C6 C10 1.397 . S
C7 N3 1.453 . S
C7 C5 1.368 . S
C7 C8 1.373 . S
C8 H2 0.930 . S
C8 C7 1.373 . S
C8 C9 1.371 . S
C9 C8 1.371 . S
C9 C10 1.383 . S
C10 H1 0.931 . S
C10 C6 1.397 . S
C10 C9 1.383 . S
H11 C16 0.929 . S
H12 C21 0.931 . S
H13 C19 0.930 1_545 S
N14 N15 1.234 . S
N14 C18 1.453 . S
N15 N14 1.234 . S
C16 H11 0.929 . S
C16 C17 1.373 . S
C16 C18 1.368 . S
C17 C16 1.373 . S
C17 C21 1.397 . S
C18 N14 1.453 . S
C18 C16 1.368 . S
C18 C19 1.373 . S
C19 H13 0.930 1_565 S
C19 C18 1.373 . S
C19 C20 1.371 . S
C20 C19 1.371 . S
C20 C21 1.383 . S
C21 H12 0.931 . S
C21 C17 1.397 . S
C21 C20 1.383 . S
H22 C27 0.929 . S
H23 C32 0.931 . S
H24 C30 0.930 . S
N25 N26 1.234 . S
N25 C29 1.453 . S
N26 N25 1.234 . S
C27 H22 0.929 . S
C27 C28 1.373 . S
C27 C29 1.368 . S
C28 C27 1.373 . S
C28 C32 1.397 1_556 S
C29 N25 1.453 . S
C29 C27 1.368 . S
C29 C30 1.373 . S
C30 H24 0.930 . S
C30 C29 1.373 . S
C30 C31 1.371 . S
C31 C30 1.371 . S
C31 C32 1.383 1_556 S
C32 H23 0.931 . S
C32 C28 1.397 1_554 S
C32 C31 1.383 1_554 S
H33 C38 0.929 . S
H34 C43 0.931 . S
H35 C41 0.930 . S
N36 N37 1.234 . S
N36 C40 1.453 . S
N37 N36 1.234 . S
C38 H33 0.929 . S
C38 C39 1.373 . S
C38 C40 1.368 . S
C39 C38 1.373 . S
C39 C43 1.397 . S
C40 N36 1.453 . S
C40 C38 1.368 . S
C40 C41 1.373 . S
C41 H35 0.930 . S
C41 C40 1.373 . S
C41 C42 1.371 . S
C42 C41 1.371 . S
C42 C43 1.383 . S
C43 H34 0.931 . S
C43 C39 1.397 . S
C43 C42 1.383 . S
H44 C49 0.929 1_545 S
H45 C54 0.931 1_455 S
H46 C52 0.930 . S
N47 N48 1.234 1_545 S
N47 C51 1.453 1_545 S
N48 N47 1.234 1_565 S
C49 H44 0.929 1_565 S
C49 C50 1.373 . S
C49 C51 1.368 . S
C50 C49 1.373 . S
C50 C54 1.397 . S
C51 N47 1.453 1_565 S
C51 C49 1.368 . S
C51 C52 1.373 . S
C52 H46 0.930 . S
C52 C51 1.373 . S
C52 C53 1.371 . S
C53 C52 1.371 . S
C53 C54 1.383 . S
C54 H45 0.931 1_655 S
C54 C50 1.397 . S
C54 C53 1.383 . S
H55 C60 0.929 . S
H56 C65 0.931 . S
H57 C63 0.930 . S
N58 N59 1.234 . S
N58 C62 1.453 . S
N59 N58 1.234 . S
C60 H55 0.929 . S
C60 C61 1.373 . S
C60 C62 1.368 . S
C61 C60 1.373 . S
C61 C65 1.397 . S
C62 N58 1.453 . S
C62 C60 1.368 . S
C62 C63 1.373 . S
C63 H57 0.930 . S
C63 C62 1.373 . S
C63 C64 1.371 . S
C64 C63 1.371 . S
C64 C65 1.383 . S
C65 H56 0.931 . S
C65 C61 1.397 . S
C65 C64 1.383 . S
H66 C71 0.929 . S
H67 C76 0.931 . S
H68 C74 0.930 . S
N69 N70 1.234 . S
N69 C73 1.453 . S
N70 N69 1.234 . S
C71 H66 0.929 . S
C71 C72 1.373 . S
C71 C73 1.368 . S
C72 C71 1.373 . S
C72 C76 1.397 . S
C73 N69 1.453 . S
C73 C71 1.368 . S
C73 C74 1.373 . S
C74 H68 0.930 . S
C74 C73 1.373 . S
C74 C75 1.371 . S
C75 C74 1.371 . S
C75 C76 1.383 . S
C76 H67 0.931 . S
C76 C72 1.397 . S
C76 C75 1.383 . S
H77 C82 0.935 . S
H78 C87 0.931 . S
H79 C85 0.930 . S
N80 N81 1.234 . S
N80 C84 1.453 . S
N81 N80 1.234 . S
C82 H77 0.935 . S
C82 C83 1.373 . S
C82 C84 1.368 . S
C83 C82 1.373 . S
C83 C87 1.397 . S
C84 N80 1.453 . S
C84 C82 1.368 . S
C84 C85 1.373 . S
C85 H79 0.930 . S
C85 C84 1.373 . S
C85 C86 1.371 . S
C86 C85 1.371 . S
C86 C87 1.383 . S
C87 H78 0.931 . S
C87 C83 1.397 . S
C87 C86 1.383 . S
O88 Mg89 1.990 . S
O88 C102 1.253 1_445 S
Mg89 O88 1.990 . S
Mg89 O92 2.180 . S
Mg89 O93 2.117 . S
Mg89 O107 2.030 . S
O90 Mg91 2.072 1_665 S
O90 C102 1.260 . S
Mg91 O90 2.072 1_445 S
Mg91 O92 2.099 . S
Mg91 O94 2.079 . S
Mg91 O95 2.072 1_455 S
Mg91 O97 2.099 1_445 S
Mg91 O108 2.079 1_545 S
O92 Mg89 2.180 . S
O92 Mg91 2.099 . S
O92 C103 1.279 . S
O93 Mg89 2.117 . S
O93 C103 1.250 . S
O94 Mg91 2.079 . S
O94 C104 1.264 . S
O95 Mg91 2.072 1_655 S
O95 C105 1.260 . S
Mg96 O97 2.180 . S
Mg96 O98 2.030 1_565 S
Mg96 O99 1.990 1_565 S
Mg96 O100 2.117 . S
O97 Mg91 2.099 1_665 S
O97 Mg96 2.180 . S
O97 C106 1.279 . S
O98 Mg96 2.030 1_545 S
O98 C104 1.248 1_655 S
O99 Mg96 1.990 1_545 S
O99 C105 1.253 . S
O100 Mg96 2.117 . S
O100 C106 1.250 . S
C101 O107 1.248 1_565 S
C101 O108 1.264 . S
C102 O88 1.253 1_665 S
C102 O90 1.260 . S
C103 O92 1.279 . S
C103 O93 1.250 . S
C104 O94 1.264 . S
C104 O98 1.248 1_455 S
C105 O95 1.260 . S
C105 O99 1.253 . S
C106 O97 1.279 . S
C106 O100 1.250 . S
O107 Mg89 2.030 . S
O107 C101 1.248 1_545 S
O108 Mg91 2.079 1_565 S
O108 C101 1.264 . S
O109 Mg110 1.990 . S
O109 C123 1.253 . S
Mg110 O109 1.990 . S
Mg110 O113 2.180 . S
Mg110 O114 2.117 . S
Mg110 O128 2.030 . S
O111 Mg112 2.072 . S
O111 C123 1.260 . S
Mg112 O111 2.072 . S
Mg112 O113 2.099 . S
Mg112 O115 2.079 . S
Mg112 O116 2.072 1_554 S
Mg112 O118 2.099 1_545 S
Mg112 O129 2.079 . S
O113 Mg110 2.180 . S
O113 Mg112 2.099 . S
O113 C124 1.279 1_554 S
O114 Mg110 2.117 . S
O114 C124 1.250 1_554 S
O115 Mg112 2.079 . S
O115 C125 1.264 1_544 S
O116 Mg112 2.072 1_556 S
O116 C126 1.260 1_545 S
Mg117 O118 2.180 1_556 S
Mg117 O119 2.030 . S
Mg117 O120 1.990 . S
Mg117 O121 2.117 1_556 S
O118 Mg112 2.099 1_565 S
O118 Mg117 2.180 1_554 S
O118 C127 1.279 . S
O119 Mg117 2.030 . S
O119 C125 1.248 . S
O120 Mg117 1.990 . S
O120 C126 1.253 . S
O121 Mg117 2.117 1_554 S
O121 C127 1.250 . S
C122 O128 1.248 . S
C122 O129 1.264 . S
C123 O109 1.253 . S
C123 O111 1.260 . S
C124 O113 1.279 1_556 S
C124 O114 1.250 1_556 S
C125 O115 1.264 1_566 S
C125 O119 1.248 . S
C126 O116 1.260 1_565 S
C126 O120 1.253 . S
C127 O118 1.279 . S
C127 O121 1.250 . S
O128 Mg110 2.030 . S
O128 C122 1.248 . S
O129 Mg112 2.079 . S
O129 C122 1.264 . S
O130 Mg131 1.990 . S
O130 C144 1.253 . S
Mg131 O130 1.990 . S
Mg131 O134 2.180 . S
Mg131 O135 2.117 . S
Mg131 O149 2.030 . S
O132 Mg133 2.072 . S
O132 C144 1.260 . S
Mg133 O132 2.072 . S
Mg133 O134 2.099 . S
Mg133 O136 2.079 . S
Mg133 O137 2.072 . S
Mg133 O139 2.099 . S
Mg133 O150 2.079 . S
O134 Mg131 2.180 . S
O134 Mg133 2.099 . S
O134 C145 1.279 . S
O135 Mg131 2.117 . S
O135 C145 1.250 . S
O136 Mg133 2.079 . S
O136 C146 1.264 . S
O137 Mg133 2.072 . S
O137 C147 1.260 . S
Mg138 O139 2.180 . S
Mg138 O140 2.030 . S
Mg138 O141 1.990 . S
Mg138 O142 2.117 . S
O139 Mg133 2.099 . S
O139 Mg138 2.180 . S
O139 C148 1.279 . S
O140 Mg138 2.030 . S
O140 C146 1.248 . S
O141 Mg138 1.990 . S
O141 C147 1.253 . S
O142 Mg138 2.117 . S
O142 C148 1.250 . S
C143 O149 1.248 . S
C143 O150 1.264 . S
C144 O130 1.253 . S
C144 O132 1.260 . S
C145 O134 1.279 . S
C145 O135 1.250 . S
C146 O136 1.264 . S
C146 O140 1.248 . S
C147 O137 1.260 . S
C147 O141 1.253 . S
C148 O139 1.279 . S
C148 O142 1.250 . S
O149 Mg131 2.030 . S
O149 C143 1.248 . S
O150 Mg133 2.079 . S
O150 C143 1.264 . S
O151 Mg152 1.990 . S
O151 C165 1.253 . S
Mg152 O151 1.990 . S
Mg152 O155 2.180 . S
Mg152 O156 2.117 1_455 S
Mg152 O170 2.030 . S
O153 Mg154 2.072 . S
O153 C165 1.260 . S
Mg154 O153 2.072 . S
Mg154 O155 2.099 . S
Mg154 O157 2.079 1_554 S
Mg154 O158 2.072 1_454 S
Mg154 O160 2.099 1_554 S
Mg154 O171 2.079 . S
O155 Mg152 2.180 . S
O155 Mg154 2.099 . S
O155 C166 1.279 1_455 S
O156 Mg152 2.117 1_655 S
O156 C166 1.250 . S
O157 Mg154 2.079 1_556 S
O157 C167 1.264 1_455 S
O158 Mg154 2.072 1_656 S
O158 C168 1.267 . S
Mg159 O160 2.180 1_655 S
Mg159 O161 2.030 . S
Mg159 O162 1.990 . S
Mg159 O163 2.117 1_655 S
O160 Mg154 2.099 1_556 S
O160 Mg159 2.180 1_455 S
O160 C169 1.279 . S
O161 Mg159 2.030 . S
O161 C167 1.248 . S
O162 Mg159 1.990 . S
O162 C168 1.253 . S
O163 Mg159 2.117 1_455 S
O163 C169 1.250 . S
C164 O170 1.248 . S
C164 O171 1.264 . S
C165 O151 1.253 . S
C165 O153 1.260 . S
C166 O155 1.279 1_655 S
C166 O156 1.250 . S
C167 O157 1.264 1_655 S
C167 O161 1.248 . S
C168 O158 1.267 . S
C168 O162 1.253 . S
C169 O160 1.279 . S
C169 O163 1.250 . S
O170 Mg152 2.030 . S
O170 C164 1.248 . S
O171 Mg154 2.079 . S
O171 C164 1.264 . S
C6 C104 1.886 . S
C20 C126 1.793 . S
C145 N26 0.828 . S
N37 C166 1.220 . S
C123 C9 2.212 . S
C101 N15 1.276 . S
C168 C31 1.486 . S
C147 C39 1.341 . S
N4 C165 1.821 . S
C124 C28 1.474 . S
C42 C106 1.555 . S
C17 C144 1.671 . S
C102 C50 1.839 . S
C61 C122 1.699 . S
N70 C148 1.197 . S
N81 C169 1.004 . S
N48 C125 1.455 . S
C105 C64 2.113 . S
C164 C75 1.029 . S
C143 C86 1.681 . S
C53 C167 1.796 . S
C127 C72 0.861 . S
C103 C83 1.666 . S
N59 C146 1.795 . S
