# Generated by pormake.
# Topology nom, (4,4)-cn, num edge types: 1
# Building blocks:
#     Node 0, Type 0, BuildingBlock: GIZVER_clean_linker_0, # of connection points: 4
#     Node 1, Type 0, BuildingBlock: GIZVER_clean_linker_0, # of connection points: 4
#     Node 2, Type 0, BuildingBlock: GIZVER_clean_linker_0, # of connection points: 4
#     Node 3, Type 0, BuildingBlock: GIZVER_clean_linker_0, # of connection points: 4
#     Node 4, Type 0, BuildingBlock: GIZVER_clean_linker_0, # of connection points: 4
#     Node 5, Type 0, BuildingBlock: GIZVER_clean_linker_0, # of connection points: 4
#     Node 6, Type 1, BuildingBlock: CEKHIL_clean_sbu_0, # of connection points: 4
#     Node 7, Type 1, BuildingBlock: CEKHIL_clean_sbu_0, # of connection points: 4
#     Node 8, Type 1, BuildingBlock: CEKHIL_clean_sbu_0, # of connection points: 4
#     Node 9, Type 1, BuildingBlock: CEKHIL_clean_sbu_0, # of connection points: 4
#     Node 10, Type 1, BuildingBlock: CEKHIL_clean_sbu_0, # of connection points: 4
#     Node 11, Type 1, BuildingBlock: CEKHIL_clean_sbu_0, # of connection points: 4
#     Edge 12, Type (0, 1), None
#     Edge 13, Type (0, 1), None
#     Edge 14, Type (0, 1), None
#     Edge 15, Type (0, 1), None
#     Edge 16, Type (0, 1), None
#     Edge 17, Type (0, 1), None
#     Edge 18, Type (0, 1), None
#     Edge 19, Type (0, 1), None
#     Edge 20, Type (0, 1), None
#     Edge 21, Type (0, 1), None
#     Edge 22, Type (0, 1), None
#     Edge 23, Type (0, 1), None
#     Edge 24, Type (0, 1), None
#     Edge 25, Type (0, 1), None
#     Edge 26, Type (0, 1), None
#     Edge 27, Type (0, 1), None
#     Edge 28, Type (0, 1), None
#     Edge 29, Type (0, 1), None
#     Edge 30, Type (0, 1), None
#     Edge 31, Type (0, 1), None
#     Edge 32, Type (0, 1), None
#     Edge 33, Type (0, 1), None
#     Edge 34, Type (0, 1), None
#     Edge 35, Type (0, 1), None
# Relax obj value: 0.005
# Max RMSD: 0.078
# Mean RMSD: 0.054
data_MOF--net-nom--node1-CEKHIL_clean_sbu_0--node2-GIZVER_clean_linker_0--edge1-none
_symmetry_space_group_name_H-M    P1
_symmetry_Int_Tables_number       1
_symmetry_cell_setting            triclinic
loop_
_symmetry_equiv_pos_as_xyz
'x, y, z'
_cell_length_a     21.400487
_cell_length_b     20.982929
_cell_length_c     22.113727
_cell_angle_alpha  89.995464
_cell_angle_beta   89.998432
_cell_angle_gamma 122.40192
loop_
_atom_site_label
_atom_site_type_symbol
_atom_site_fract_x
_atom_site_fract_y
_atom_site_fract_z
_atom_type_partial_charge
H0 H 0.91736 0.58775 0.34679 0.0
H1 H 1.01619 0.568 0.18323 0.0
H2 H 0.79583 0.39328 0.23161 0.0
H3 H 0.03277 0.69418 0.31226 0.0
H4 H 0.06018 0.69453 0.23604 0.0
H5 H 0.07106 0.63744 0.39452 0.0
H6 H 0.27999 0.66029 0.36406 0.0
H7 H 0.16621 0.68739 0.21576 0.0
C8 C 0.91479 0.5556 0.30748 0.0
C9 C 0.84909 0.48656 0.29445 0.0
C10 C 0.9764 0.58456 0.2683 0.0
C11 C 0.97102 0.54414 0.21549 0.0
C12 C 0.90598 0.47457 0.2032 0.0
C13 C 0.84656 0.44585 0.24322 0.0
C14 C 0.04452 0.66205 0.27908 0.0
C15 C 0.10887 0.65783 0.30182 0.0
C16 C 0.11361 0.64442 0.36359 0.0
C17 C 0.17543 0.64511 0.38617 0.0
C18 C 0.23108 0.65681 0.3461 0.0
C19 C 0.22935 0.67431 0.28509 0.0
C20 C 0.16771 0.67381 0.26282 0.0
H21 H 0.37643 0.90739 0.5398 0.0
H22 H 0.4276 1.00057 0.35969 0.0
H23 H 0.40066 0.78611 0.3946 0.0
H24 H 0.37093 1.01654 0.51694 0.0
H25 H 0.37664 0.04579 0.44028 0.0
H26 H 0.49201 0.05719 0.57423 0.0
H27 H 0.67363 0.27639 0.52459 0.0
H28 H 0.48552 0.15872 0.40605 0.0
C29 C 0.38964 0.90451 0.49296 0.0
C30 C 0.38765 0.84042 0.47198 0.0
C31 C 0.40719 0.96426 0.4531 0.0
C32 C 0.41965 0.95745 0.39144 0.0
C33 C 0.41784 0.8932 0.37024 0.0
C34 C 0.4049 0.83688 0.41138 0.0
C35 C 0.40457 0.03108 0.47496 0.0
C36 C 0.48113 0.09884 0.48754 0.0
C37 C 0.51824 0.10282 0.54165 0.0
C38 C 0.58833 0.16677 0.55418 0.0
C39 C 0.62052 0.22644 0.51313 0.0
C40 C 0.5837 0.22496 0.46014 0.0
C41 C 0.51424 0.1605 0.447 0.0
H42 H 0.36318 0.47926 0.5751 0.0
H43 H 0.48086 0.49862 0.7395 0.0
H44 H 0.44742 0.67496 0.68923 0.0
H45 H 0.36568 0.37242 0.61099 0.0
H46 H 0.39266 0.37298 0.68744 0.0
H47 H 0.46485 0.4311 0.52937 0.0
H48 H 0.64518 0.40083 0.55852 0.0
H49 H 0.50282 0.3736 0.70682 0.0
C50 C 0.39486 0.51185 0.6141 0.0
C51 C 0.40209 0.58119 0.62673 0.0
C52 C 0.42537 0.48269 0.6538 0.0
C53 C 0.4621 0.5231 0.70658 0.0
C54 C 0.4709 0.59303 0.71845 0.0
C55 C 0.44282 0.62232 0.67775 0.0
C56 C 0.41127 0.40476 0.64407 0.0
C57 C 0.47977 0.40819 0.62171 0.0
C58 C 0.49924 0.42273 0.5602 0.0
C59 C 0.55926 0.42041 0.5375 0.0
C60 C 0.60131 0.40625 0.57709 0.0
C61 C 0.57999 0.38662 0.63765 0.0
C62 C 0.51998 0.38916 0.66023 0.0
H63 H 0.91098 0.36762 0.71584 0.0
H64 H 1.00605 0.41755 0.89456 0.0
H65 H 0.79712 0.39468 0.8641 0.0
H66 H 1.01726 0.35975 0.73631 0.0
H67 H 0.04473 0.36155 0.81279 0.0
H68 H 0.06096 0.48669 0.68318 0.0
H69 H 0.28126 0.66148 0.73156 0.0
H70 H 0.15981 0.46703 0.84681 0.0
C71 C 0.90952 0.38136 0.76286 0.0
C72 C 0.84781 0.38073 0.78513 0.0
C73 C 0.96857 0.39784 0.80176 0.0
C74 C 0.96359 0.41073 0.86361 0.0
C75 C 0.90171 0.40992 0.8862 0.0
C76 C 0.84606 0.39823 0.84614 0.0
C77 C 0.0324 0.39271 0.77908 0.0
C78 C 0.10093 0.46987 0.76803 0.0
C79 C 0.10617 0.5105 0.71539 0.0
C80 C 0.17115 0.58013 0.70315 0.0
C81 C 0.23057 0.60887 0.74317 0.0
C82 C 0.22805 0.56819 0.79441 0.0
C83 C 0.16241 0.49907 0.80741 0.0
H84 H 0.7007 0.14744 0.03979 0.0
H85 H 0.64958 0.05434 0.85967 0.0
H86 H 0.67643 0.26874 0.89462 0.0
H87 H 0.70626 0.03832 0.0169 0.0
H88 H 0.70054 1.0091 0.94023 0.0
H89 H 0.58519 0.99767 0.07419 0.0
H90 H 0.40353 0.7785 0.02457 0.0
H91 H 0.59165 0.89616 0.90602 0.0
C92 C 0.68749 0.15034 -0.00705 0.0
C93 C 0.68945 0.21442 0.97199 0.0
C94 C 0.66998 0.09061 0.95308 0.0
C95 C 0.65752 0.09744 0.89142 0.0
C96 C 0.65929 0.16168 0.87024 0.0
C97 C 0.6722 0.21798 0.91139 0.0
C98 C 0.67262 0.02379 -0.02508 0.0
C99 C 0.59606 0.95602 -0.01249 0.0
C100 C 0.55894 0.95205 0.04162 0.0
C101 C 0.48885 0.88811 0.05416 0.0
C102 C 0.45664 0.82845 0.01311 0.0
C103 C 0.49346 0.82992 0.96011 0.0
C104 C 0.56293 0.89437 0.94696 0.0
H105 H 0.71388 0.57554 0.07509 0.0
H106 H 0.59626 0.55626 0.2395 0.0
H107 H 0.62959 0.37985 0.18926 0.0
H108 H 0.71145 0.68242 0.11096 0.0
H109 H 0.68446 0.68188 0.1874 0.0
H110 H 0.6123 0.62381 0.02935 0.0
H111 H 0.43199 0.65412 0.0585 0.0
H112 H 0.57431 0.68128 0.2068 0.0
C113 C 0.68221 0.54297 0.1141 0.0
C114 C 0.67495 0.47362 0.12675 0.0
C115 C 0.65172 0.57216 0.15379 0.0
C116 C 0.61499 0.53176 0.20659 0.0
C117 C 0.60617 0.46183 0.21847 0.0
C118 C 0.63421 0.4325 0.17777 0.0
C119 C 0.66585 0.6501 0.14404 0.0
C120 C 0.59737 0.64671 0.12169 0.0
C121 C 0.57791 0.63218 0.06018 0.0
C122 C 0.5179 0.63452 0.03747 0.0
C123 C 0.47586 0.64869 0.07707 0.0
C124 C 0.49716 0.6683 0.13762 0.0
C125 C 0.55716 0.66573 0.16021 0.0
Co126 Co 0.6701 0.40688 0.37795 0.0
O127 O 0.72262 0.39169 0.31603 0.0
O128 O 0.77193 0.49369 0.37345 0.0
C129 C 0.61969 0.29318 0.42158 0.0
O130 O 0.62923 0.43593 0.44884 0.0
Co131 Co 0.50015 0.31183 0.36756 0.0
O132 O 0.50499 0.35576 0.44803 0.0
C133 C 0.58663 0.42772 0.27887 0.0
C134 C 0.78014 0.45678 0.32996 0.0
C135 C 0.5645 0.40805 0.47268 0.0
O136 O 0.63902 0.45653 0.31779 0.0
O137 O 0.52763 0.3628 0.28606 0.0
O138 O 0.68722 0.34713 0.43313 0.0
O139 O 0.588 0.30619 0.37727 0.0
Co140 Co 0.29972 0.65589 0.54693 0.0
O141 O 0.36726 0.6709 0.6097 0.0
O142 O 0.31843 0.57423 0.54664 0.0
C143 C 0.36313 0.77365 0.51033 0.0
O144 O 0.23057 0.62867 0.47414 0.0
Co145 Co 0.21735 0.73883 0.56211 0.0
O146 O 0.18289 0.70213 0.4788 0.0
C147 C 0.18617 0.61737 0.64403 0.0
C148 C 0.36228 0.6095 0.59227 0.0
C149 C 0.19295 0.65489 0.4514 0.0
O150 O 0.21447 0.59584 0.60419 0.0
O151 O 0.18983 0.68003 0.64003 0.0
O152 O 0.38067 0.72537 0.49545 0.0
O153 O 0.31487 0.75255 0.55364 0.0
Co154 Co 0.66485 0.29198 0.71358 0.0
O155 O 0.67621 0.36213 0.65285 0.0
O156 O 0.58382 0.30881 0.71844 0.0
C157 C 0.78142 0.35656 0.74802 0.0
O158 O 0.641 0.21968 0.78471 0.0
Co159 Co 0.74608 0.20926 0.69247 0.0
O160 O 0.71276 0.1712 0.77575 0.0
C161 C 0.62542 0.17988 0.61308 0.0
C162 C 0.61534 0.354 0.67249 0.0
C163 C 0.6672 0.18075 0.80521 0.0
O164 O 0.60451 0.20636 0.65515 0.0
O165 O 0.68724 0.18417 0.61528 0.0
O166 O 0.73407 0.37345 0.76533 0.0
O167 O 0.75993 0.30866 0.70359 0.0
Co168 Co 0.40703 0.64801 0.87794 0.0
O169 O 0.35447 0.66316 0.81603 0.0
O170 O 0.3052 0.56118 0.87347 0.0
C171 C 0.45745 0.76171 0.92155 0.0
O172 O 0.44792 0.61898 0.94882 0.0
Co173 Co 0.57697 0.74306 0.86749 0.0
O174 O 0.57216 0.69916 0.94798 0.0
C175 C 0.49047 0.62716 0.77884 0.0
C176 C 0.29698 0.59805 0.82997 0.0
C177 C 0.51265 0.64688 0.97265 0.0
O178 O 0.4381 0.59835 0.81779 0.0
O179 O 0.54947 0.69208 0.78599 0.0
O180 O 0.38991 0.70777 0.93312 0.0
O181 O 0.48912 0.7487 0.87723 0.0
Co182 Co 0.77733 0.39892 0.04698 0.0
O183 O 0.70974 0.38386 0.10972 0.0
O184 O 0.75863 0.48058 0.04669 0.0
C185 C 0.71395 0.28117 0.01034 0.0
O186 O 0.84654 0.42622 0.97421 0.0
Co187 Co 0.85971 0.31597 0.06208 0.0
O188 O 0.89417 0.35271 -0.02122 0.0
C189 C 0.89092 0.43739 0.14407 0.0
C190 C 0.71475 0.44529 0.0923 0.0
C191 C 0.88414 0.40001 0.95143 0.0
O192 O 0.86253 0.45891 0.10429 0.0
O193 O 0.88731 0.37476 0.14 0.0
O194 O 0.69642 0.32946 -0.00454 0.0
O195 O 0.76219 0.30225 0.05366 0.0
Co196 Co 0.4123 0.76294 0.21356 0.0
O197 O 0.40096 0.69281 0.15282 0.0
O198 O 0.49331 0.74607 0.21843 0.0
C199 C 0.29571 0.69838 0.24796 0.0
O200 O 0.43612 0.8352 0.28471 0.0
Co201 Co 0.33113 0.84572 0.19245 0.0
O202 O 0.36444 0.88376 0.27574 0.0
C203 C 0.45176 0.87502 0.11306 0.0
C204 C 0.4618 0.70092 0.17247 0.0
C205 C 0.40995 0.87416 0.3052 0.0
O206 O 0.47268 0.84858 0.15515 0.0
O207 O 0.38994 0.87074 0.11525 0.0
O208 O 0.34302 0.68143 0.26528 0.0
O209 O 0.31725 0.7463 0.20354 0.0
loop_
_geom_bond_atom_site_label_1
_geom_bond_atom_site_label_2
_geom_bond_distance
_geom_bond_site_symmetry_2
_ccdc_geom_bond_type
H0 C8 0.930 . S
H1 C11 0.930 . S
H2 C13 0.930 . S
H3 C14 0.970 . S
H4 C14 0.970 . S
H5 C16 0.930 . S
H6 C18 0.930 . S
H7 C20 0.930 . S
C8 H0 0.930 . S
C8 C9 1.382 . S
C8 C10 1.426 . S
C9 C8 1.382 . S
C9 C13 1.389 . S
C10 C8 1.426 . S
C10 C11 1.375 . S
C10 C14 1.532 1_655 S
C11 H1 0.930 . S
C11 C10 1.375 . S
C11 C12 1.416 . S
C12 C11 1.416 . S
C12 C13 1.371 . S
C13 H2 0.930 . S
C13 C9 1.389 . S
C13 C12 1.371 . S
C14 H3 0.970 . S
C14 H4 0.970 . S
C14 C10 1.532 1_455 S
C14 C15 1.499 . S
C15 C14 1.499 . S
C15 C16 1.370 . S
C15 C20 1.415 . S
C16 H5 0.930 . S
C16 C15 1.370 . S
C16 C17 1.407 . S
C17 C16 1.407 . S
C17 C18 1.365 . S
C18 H6 0.930 . S
C18 C17 1.365 . S
C18 C19 1.393 . S
C19 C18 1.393 . S
C19 C20 1.387 . S
C20 H7 0.930 . S
C20 C15 1.415 . S
C20 C19 1.387 . S
H21 C29 0.930 . S
H22 C32 0.930 . S
H23 C34 0.930 . S
H24 C35 0.970 1_565 S
H25 C35 0.970 . S
H26 C37 0.930 . S
H27 C39 0.930 . S
H28 C41 0.930 . S
C29 H21 0.930 . S
C29 C30 1.382 . S
C29 C31 1.426 . S
C30 C29 1.382 . S
C30 C34 1.389 . S
C31 C29 1.426 . S
C31 C32 1.375 . S
C31 C35 1.532 1_565 S
C32 H22 0.930 . S
C32 C31 1.375 . S
C32 C33 1.416 . S
C33 C32 1.416 . S
C33 C34 1.371 . S
C34 H23 0.930 . S
C34 C30 1.389 . S
C34 C33 1.371 . S
C35 H24 0.970 1_545 S
C35 H25 0.970 . S
C35 C31 1.532 1_545 S
C35 C36 1.499 . S
C36 C35 1.499 . S
C36 C37 1.370 . S
C36 C41 1.415 . S
C37 H26 0.930 . S
C37 C36 1.370 . S
C37 C38 1.407 . S
C38 C37 1.407 . S
C38 C39 1.365 . S
C39 H27 0.930 . S
C39 C38 1.365 . S
C39 C40 1.393 . S
C40 C39 1.393 . S
C40 C41 1.387 . S
C41 H28 0.930 . S
C41 C36 1.415 . S
C41 C40 1.387 . S
H42 C50 0.930 . S
H43 C53 0.930 . S
H44 C55 0.930 . S
H45 C56 0.970 . S
H46 C56 0.970 . S
H47 C58 0.930 . S
H48 C60 0.930 . S
H49 C62 0.930 . S
C50 H42 0.930 . S
C50 C51 1.382 . S
C50 C52 1.426 . S
C51 C50 1.382 . S
C51 C55 1.389 . S
C52 C50 1.426 . S
C52 C53 1.375 . S
C52 C56 1.532 . S
C53 H43 0.930 . S
C53 C52 1.375 . S
C53 C54 1.416 . S
C54 C53 1.416 . S
C54 C55 1.371 . S
C55 H44 0.930 . S
C55 C51 1.389 . S
C55 C54 1.371 . S
C56 H45 0.970 . S
C56 H46 0.970 . S
C56 C52 1.532 . S
C56 C57 1.499 . S
C57 C56 1.499 . S
C57 C58 1.370 . S
C57 C62 1.415 . S
C58 H47 0.930 . S
C58 C57 1.370 . S
C58 C59 1.407 . S
C59 C58 1.407 . S
C59 C60 1.365 . S
C60 H48 0.930 . S
C60 C59 1.365 . S
C60 C61 1.393 . S
C61 C60 1.393 . S
C61 C62 1.387 . S
C62 H49 0.930 . S
C62 C57 1.415 . S
C62 C61 1.387 . S
H63 C71 0.930 . S
H64 C74 0.930 . S
H65 C76 0.930 . S
H66 C77 0.970 1_655 S
H67 C77 0.970 . S
H68 C79 0.930 . S
H69 C81 0.930 . S
H70 C83 0.930 . S
C71 H63 0.930 . S
C71 C72 1.382 . S
C71 C73 1.426 . S
C72 C71 1.382 . S
C72 C76 1.389 . S
C73 C71 1.426 . S
C73 C74 1.375 . S
C73 C77 1.532 1_655 S
C74 H64 0.930 . S
C74 C73 1.375 . S
C74 C75 1.416 . S
C75 C74 1.416 . S
C75 C76 1.371 . S
C76 H65 0.930 . S
C76 C72 1.389 . S
C76 C75 1.371 . S
C77 H66 0.970 1_455 S
C77 H67 0.970 . S
C77 C73 1.532 1_455 S
C77 C78 1.499 . S
C78 C77 1.499 . S
C78 C79 1.370 . S
C78 C83 1.415 . S
C79 H68 0.930 . S
C79 C78 1.370 . S
C79 C80 1.407 . S
C80 C79 1.407 . S
C80 C81 1.365 . S
C81 H69 0.930 . S
C81 C80 1.365 . S
C81 C82 1.393 . S
C82 C81 1.393 . S
C82 C83 1.387 . S
C83 H70 0.930 . S
C83 C78 1.415 . S
C83 C82 1.387 . S
H84 C92 0.930 . S
H85 C95 0.930 . S
H86 C97 0.930 . S
H87 C98 0.970 1_554 S
H88 C98 0.970 1_565 S
H89 C100 0.930 . S
H90 C102 0.930 . S
H91 C104 0.930 . S
C92 H84 0.930 . S
C92 C93 1.382 . S
C92 C94 1.426 1_554 S
C93 C92 1.382 . S
C93 C97 1.389 1_554 S
C94 C92 1.426 1_556 S
C94 C95 1.375 . S
C94 C98 1.532 . S
C95 H85 0.930 . S
C95 C94 1.375 . S
C95 C96 1.416 . S
C96 C95 1.416 . S
C96 C97 1.371 . S
C97 H86 0.930 . S
C97 C93 1.389 1_556 S
C97 C96 1.371 . S
C98 H87 0.970 1_556 S
C98 H88 0.970 1_545 S
C98 C94 1.532 . S
C98 C99 1.499 1_546 S
C99 C98 1.499 1_564 S
C99 C100 1.370 . S
C99 C104 1.415 1_554 S
C100 H89 0.930 . S
C100 C99 1.370 . S
C100 C101 1.407 . S
C101 C100 1.407 . S
C101 C102 1.365 . S
C102 H90 0.930 . S
C102 C101 1.365 . S
C102 C103 1.393 1_554 S
C103 C102 1.393 1_556 S
C103 C104 1.387 . S
C104 H91 0.930 . S
C104 C99 1.415 1_556 S
C104 C103 1.387 . S
H105 C113 0.930 . S
H106 C116 0.930 . S
H107 C118 0.930 . S
H108 C119 0.970 . S
H109 C119 0.970 . S
H110 C121 0.930 . S
H111 C123 0.930 . S
H112 C125 0.930 . S
C113 H105 0.930 . S
C113 C114 1.382 . S
C113 C115 1.426 . S
C114 C113 1.382 . S
C114 C118 1.389 . S
C115 C113 1.426 . S
C115 C116 1.375 . S
C115 C119 1.532 . S
C116 H106 0.930 . S
C116 C115 1.375 . S
C116 C117 1.416 . S
C117 C116 1.416 . S
C117 C118 1.371 . S
C118 H107 0.930 . S
C118 C114 1.389 . S
C118 C117 1.371 . S
C119 H108 0.970 . S
C119 H109 0.970 . S
C119 C115 1.532 . S
C119 C120 1.499 . S
C120 C119 1.499 . S
C120 C121 1.370 . S
C120 C125 1.415 . S
C121 H110 0.930 . S
C121 C120 1.370 . S
C121 C122 1.407 . S
C122 C121 1.407 . S
C122 C123 1.365 . S
C123 H111 0.930 . S
C123 C122 1.365 . S
C123 C124 1.393 . S
C124 C123 1.393 . S
C124 C125 1.387 . S
C125 H112 0.930 . S
C125 C120 1.415 . S
C125 C124 1.387 . S
Co126 O127 2.216 . S
Co126 O128 2.091 . S
Co126 O130 2.004 . S
Co126 O136 2.021 . S
Co126 O138 2.137 . S
Co126 O139 2.244 . S
O127 Co126 2.216 . S
O127 C134 1.247 . S
O128 Co126 2.091 . S
O128 C134 1.261 . S
C129 O138 1.247 . S
C129 O139 1.272 . S
O130 Co126 2.004 . S
O130 C135 1.259 . S
Co131 O132 2.061 . S
Co131 O137 2.052 . S
Co131 O139 2.135 . S
O132 Co131 2.061 . S
O132 C135 1.235 . S
C133 O136 1.238 . S
C133 O137 1.241 . S
C134 O127 1.247 . S
C134 O128 1.261 . S
C135 O130 1.259 . S
C135 O132 1.235 . S
O136 Co126 2.021 . S
O136 C133 1.238 . S
O137 Co131 2.052 . S
O137 C133 1.241 . S
O138 Co126 2.137 . S
O138 C129 1.247 . S
O139 Co126 2.244 . S
O139 C129 1.272 . S
O139 Co131 2.135 . S
Co140 O141 2.216 . S
Co140 O142 2.091 . S
Co140 O144 2.004 . S
Co140 O150 2.021 . S
Co140 O152 2.137 . S
Co140 O153 2.244 . S
O141 Co140 2.216 . S
O141 C148 1.247 . S
O142 Co140 2.091 . S
O142 C148 1.261 . S
C143 O152 1.247 . S
C143 O153 1.272 . S
O144 Co140 2.004 . S
O144 C149 1.259 . S
Co145 O146 2.061 . S
Co145 O151 2.052 . S
Co145 O153 2.135 . S
O146 Co145 2.061 . S
O146 C149 1.235 . S
C147 O150 1.238 . S
C147 O151 1.241 . S
C148 O141 1.247 . S
C148 O142 1.261 . S
C149 O144 1.259 . S
C149 O146 1.235 . S
O150 Co140 2.021 . S
O150 C147 1.238 . S
O151 Co145 2.052 . S
O151 C147 1.241 . S
O152 Co140 2.137 . S
O152 C143 1.247 . S
O153 Co140 2.244 . S
O153 C143 1.272 . S
O153 Co145 2.135 . S
Co154 O155 2.216 . S
Co154 O156 2.091 . S
Co154 O158 2.004 . S
Co154 O164 2.021 . S
Co154 O166 2.137 . S
Co154 O167 2.244 . S
O155 Co154 2.216 . S
O155 C162 1.247 . S
O156 Co154 2.091 . S
O156 C162 1.261 . S
C157 O166 1.247 . S
C157 O167 1.272 . S
O158 Co154 2.004 . S
O158 C163 1.259 . S
Co159 O160 2.061 . S
Co159 O165 2.052 . S
Co159 O167 2.135 . S
O160 Co159 2.061 . S
O160 C163 1.235 . S
C161 O164 1.238 . S
C161 O165 1.241 . S
C162 O155 1.247 . S
C162 O156 1.261 . S
C163 O158 1.259 . S
C163 O160 1.235 . S
O164 Co154 2.021 . S
O164 C161 1.238 . S
O165 Co159 2.052 . S
O165 C161 1.241 . S
O166 Co154 2.137 . S
O166 C157 1.247 . S
O167 Co154 2.244 . S
O167 C157 1.272 . S
O167 Co159 2.135 . S
Co168 O169 2.216 . S
Co168 O170 2.091 . S
Co168 O172 2.004 . S
Co168 O178 2.021 . S
Co168 O180 2.137 . S
Co168 O181 2.244 . S
O169 Co168 2.216 . S
O169 C176 1.247 . S
O170 Co168 2.091 . S
O170 C176 1.261 . S
C171 O180 1.247 . S
C171 O181 1.272 . S
O172 Co168 2.004 . S
O172 C177 1.259 1_556 S
Co173 O174 2.061 . S
Co173 O179 2.052 . S
Co173 O181 2.135 . S
O174 Co173 2.061 . S
O174 C177 1.235 1_556 S
C175 O178 1.238 . S
C175 O179 1.241 . S
C176 O169 1.247 . S
C176 O170 1.261 . S
C177 O172 1.259 1_554 S
C177 O174 1.235 1_554 S
O178 Co168 2.021 . S
O178 C175 1.238 . S
O179 Co173 2.052 . S
O179 C175 1.241 . S
O180 Co168 2.137 . S
O180 C171 1.247 . S
O181 Co168 2.244 . S
O181 C171 1.272 . S
O181 Co173 2.135 . S
Co182 O183 2.216 . S
Co182 O184 2.091 . S
Co182 O186 2.004 1_554 S
Co182 O192 2.021 . S
Co182 O194 2.137 . S
Co182 O195 2.244 . S
O183 Co182 2.216 . S
O183 C190 1.247 . S
O184 Co182 2.091 . S
O184 C190 1.261 . S
C185 O194 1.247 . S
C185 O195 1.272 . S
O186 Co182 2.004 1_556 S
O186 C191 1.259 . S
Co187 O188 2.061 . S
Co187 O193 2.052 . S
Co187 O195 2.135 . S
O188 Co187 2.061 . S
O188 C191 1.235 1_554 S
C189 O192 1.238 . S
C189 O193 1.241 . S
C190 O183 1.247 . S
C190 O184 1.261 . S
C191 O186 1.259 . S
C191 O188 1.235 1_556 S
O192 Co182 2.021 . S
O192 C189 1.238 . S
O193 Co187 2.052 . S
O193 C189 1.241 . S
O194 Co182 2.137 . S
O194 C185 1.247 . S
O195 Co182 2.244 . S
O195 C185 1.272 . S
O195 Co187 2.135 . S
Co196 O197 2.216 . S
Co196 O198 2.091 . S
Co196 O200 2.004 . S
Co196 O206 2.021 . S
Co196 O208 2.137 . S
Co196 O209 2.244 . S
O197 Co196 2.216 . S
O197 C204 1.247 . S
O198 Co196 2.091 . S
O198 C204 1.261 . S
C199 O208 1.247 . S
C199 O209 1.272 . S
O200 Co196 2.004 . S
O200 C205 1.259 . S
Co201 O202 2.061 . S
Co201 O207 2.052 . S
Co201 O209 2.135 . S
O202 Co201 2.061 . S
O202 C205 1.235 . S
C203 O206 1.238 . S
C203 O207 1.241 . S
C204 O197 1.247 . S
C204 O198 1.261 . S
C205 O200 1.259 . S
C205 O202 1.235 . S
O206 Co196 2.021 . S
O206 C203 1.238 . S
O207 Co201 2.052 . S
O207 C203 1.241 . S
O208 Co196 2.137 . S
O208 C199 1.247 . S
O209 Co196 2.244 . S
O209 C199 1.272 . S
O209 Co201 2.135 . S
C199 C19 1.477 . S
C40 C129 1.516 . S
C51 C148 1.522 . S
C72 C157 1.460 . S
C171 C103 1.515 . S
C114 C190 1.514 . S
C30 C143 1.468 . S
C61 C162 1.497 . S
C82 C176 1.529 . S
C185 C93 1.459 . S
C204 C124 1.495 . S
C134 C9 1.513 . S
C17 C149 1.452 . S
C38 C161 1.558 . S
C175 C54 1.462 . S
C75 C191 1.440 . S
C203 C101 1.557 . S
C133 C117 1.459 . S
C205 C33 1.441 . S
C59 C135 1.412 . S
C147 C80 1.485 . S
C96 C163 1.441 . S
C122 C177 1.415 . S
C12 C189 1.492 . S
