# Generated by pormake.
# Topology pyr, (3,6)-cn, num edge types: 1
# Building blocks:
#     Node 0, Type 0, BuildingBlock: QEWDON_clean_linker_0, # of connection points: 3
#     Node 1, Type 0, BuildingBlock: QEWDON_clean_linker_0, # of connection points: 3
#     Node 2, Type 0, BuildingBlock: QEWDON_clean_linker_0, # of connection points: 3
#     Node 3, Type 0, BuildingBlock: QEWDON_clean_linker_0, # of connection points: 3
#     Node 4, Type 0, BuildingBlock: QEWDON_clean_linker_0, # of connection points: 3
#     Node 5, Type 0, BuildingBlock: QEWDON_clean_linker_0, # of connection points: 3
#     Node 6, Type 0, BuildingBlock: QEWDON_clean_linker_0, # of connection points: 3
#     Node 7, Type 0, BuildingBlock: QEWDON_clean_linker_0, # of connection points: 3
#     Node 8, Type 1, BuildingBlock: MIFKUJ_clean_sbu_0, # of connection points: 6
#     Node 9, Type 1, BuildingBlock: MIFKUJ_clean_sbu_0, # of connection points: 6
#     Node 10, Type 1, BuildingBlock: MIFKUJ_clean_sbu_0, # of connection points: 6
#     Node 11, Type 1, BuildingBlock: MIFKUJ_clean_sbu_0, # of connection points: 6
#     Edge 12, Type (0, 1), None
#     Edge 13, Type (0, 1), None
#     Edge 14, Type (0, 1), None
#     Edge 15, Type (0, 1), None
#     Edge 16, Type (0, 1), None
#     Edge 17, Type (0, 1), None
#     Edge 18, Type (0, 1), None
#     Edge 19, Type (0, 1), None
#     Edge 20, Type (0, 1), None
#     Edge 21, Type (0, 1), None
#     Edge 22, Type (0, 1), None
#     Edge 23, Type (0, 1), None
#     Edge 24, Type (0, 1), None
#     Edge 25, Type (0, 1), None
#     Edge 26, Type (0, 1), None
#     Edge 27, Type (0, 1), None
#     Edge 28, Type (0, 1), None
#     Edge 29, Type (0, 1), None
#     Edge 30, Type (0, 1), None
#     Edge 31, Type (0, 1), None
#     Edge 32, Type (0, 1), None
#     Edge 33, Type (0, 1), None
#     Edge 34, Type (0, 1), None
#     Edge 35, Type (0, 1), None
# Relax obj value: 0.111
# Max RMSD: 0.268
# Mean RMSD: 0.173
data_MOF--net-pyr--node1-MIFKUJ_clean_sbu_0--node2-QEWDON_clean_linker_0--edge1-none
_symmetry_space_group_name_H-M    P1
_symmetry_Int_Tables_number       1
_symmetry_cell_setting            triclinic
loop_
_symmetry_equiv_pos_as_xyz
'x, y, z'
_cell_length_a     18.97463
_cell_length_b     17.215049
_cell_length_c     18.088505
_cell_angle_alpha  85.394882
_cell_angle_beta   89.773281
_cell_angle_gamma 110.8521
loop_
_atom_site_label
_atom_site_type_symbol
_atom_site_fract_x
_atom_site_fract_y
_atom_site_fract_z
_atom_type_partial_charge
H0 H 0.33434 0.24352 0.22739 0.0
C1 C 0.29037 0.20406 0.26657 0.0
C2 C 0.2897 0.12455 0.2942 0.0
C3 C 0.23542 0.2339 0.29177 0.0
H4 H 0.23329 0.0168 0.37209 0.0
C5 C 0.23378 0.07695 0.3487 0.0
C6 C 0.17816 0.10683 0.37303 0.0
C7 C 0.17896 0.18423 0.34283 0.0
C8 C 0.23941 0.32048 0.27491 0.0
H9 H 0.13772 0.20893 0.36254 0.0
C10 C 0.20562 0.34294 0.21164 0.0
C11 C 0.18657 0.41504 0.20892 0.0
C12 C 0.25883 0.37342 0.33265 0.0
H13 H 0.28411 0.35654 0.38209 0.0
C14 C 0.23977 0.44446 0.33013 0.0
H15 H 0.19031 0.30225 0.16699 0.0
C16 C 0.20153 0.46357 0.26993 0.0
H17 H 0.18635 0.51848 0.26996 0.0
H18 H 0.25289 0.48362 0.37585 0.0
H19 H 0.33721 0.90145 0.94231 0.0
C20 C 0.34513 0.86369 0.90007 0.0
C21 C 0.41218 0.84773 0.89561 0.0
C22 C 0.28831 0.83204 0.84999 0.0
H23 H 0.47311 0.78456 0.83729 0.0
C24 C 0.42189 0.79853 0.84021 0.0
C25 C 0.36525 0.76737 0.78862 0.0
C26 C 0.29858 0.78459 0.79435 0.0
C27 C 0.21953 0.85235 0.85368 0.0
H28 H 0.25413 0.76093 0.75553 0.0
C29 C 0.19932 0.89225 0.79123 0.0
C30 C 0.13634 0.91623 0.79475 0.0
C31 C 0.17573 0.83504 0.91984 0.0
H32 H 0.19065 0.80401 0.96851 0.0
C33 C 0.11204 0.85736 0.92328 0.0
H34 H 0.23385 0.9063 0.74051 0.0
C35 C 0.0925 0.89813 0.86127 0.0
H36 H 0.04274 0.91474 0.86529 0.0
H37 H 0.07788 0.84328 0.97412 0.0
H38 H 0.71478 0.49976 0.90361 0.0
C39 C 0.68828 0.4377 0.93097 0.0
C40 C 0.73291 0.3944 0.96174 0.0
C41 C 0.60943 0.40249 0.93467 0.0
H42 H 0.7309 0.27905 0.02014 0.0
C43 C 0.69731 0.31366 0.9965 0.0
C44 C 0.61808 0.27819 1.00271 0.0
C45 C 0.57431 0.32326 0.97262 0.0
C46 C 0.5655 0.44857 0.89571 0.0
H47 H 0.51326 0.29528 0.97613 0.0
C48 C 0.58783 0.48563 0.82301 0.0
C49 C 0.54857 0.53118 0.78502 0.0
C50 C 0.50302 0.45768 0.9305 0.0
H51 H 0.48501 0.43033 0.98658 0.0
C52 C 0.46426 0.50389 0.8935 0.0
H53 H 0.63485 0.47686 0.79525 0.0
C54 C 0.48668 0.54038 0.82123 0.0
H55 H 0.45479 0.57449 0.79338 0.0
H56 H 0.41632 0.51105 0.92077 0.0
H57 H 0.93831 0.82849 0.25518 0.0
C58 C 0.89447 0.78454 0.29205 0.0
C59 C 0.88308 0.80417 0.3639 0.0
C60 C 0.84679 0.71006 0.26589 0.0
H61 H 0.81636 0.76123 0.46613 0.0
C62 C 0.82544 0.74653 0.41056 0.0
C63 C 0.7776 0.67145 0.38515 0.0
C64 C 0.78826 0.65402 0.31222 0.0
C65 C 0.85549 0.69313 0.18849 0.0
H66 H 0.7511 0.59704 0.29108 0.0
C67 C 0.91956 0.67771 0.16496 0.0
C68 C 0.92756 0.66102 0.09109 0.0
C69 C 0.79971 0.69294 0.13781 0.0
H70 H 0.75007 0.70492 0.15513 0.0
C71 C 0.80832 0.67858 0.0641 0.0
H72 H 0.96209 0.67712 0.20462 0.0
C73 C 0.87184 0.66286 0.04096 0.0
H74 H 0.87721 0.65135 0.98409 0.0
H75 H 0.76557 0.67925 0.02485 0.0
H76 H 0.77521 0.76012 0.86456 0.0
C77 C 0.81186 0.79554 0.818 0.0
C78 C 0.87262 0.77337 0.79429 0.0
C79 C 0.79613 0.86116 0.77981 0.0
H80 H 0.96285 0.80028 0.71219 0.0
C81 C 0.91727 0.81825 0.73177 0.0
C82 C 0.90073 0.8839 0.69281 0.0
C83 C 0.84107 0.90539 0.71816 0.0
C84 C 0.72708 0.8779 0.79581 0.0
H85 H 0.82708 0.95473 0.68793 0.0
C86 C 0.72267 0.92511 0.85455 0.0
C87 C 0.66346 0.95595 0.85798 0.0
C88 C 0.67021 0.85795 0.74355 0.0
H89 H 0.67325 0.82208 0.69785 0.0
C90 C 0.61117 0.88757 0.74759 0.0
H91 H 0.76687 0.94147 0.89452 0.0
C92 C 0.6085 0.93753 0.80351 0.0
H93 H 0.56245 0.96075 0.80483 0.0
H94 H 0.56815 0.87317 0.70644 0.0
H95 H 0.78619 0.14724 0.49985 0.0
C96 C 0.75584 0.1399 0.4487 0.0
C97 C 0.77726 0.10268 0.39009 0.0
C98 C 0.69401 0.16635 0.44203 0.0
H99 H 0.75006 0.06289 0.27956 0.0
C100 C 0.73514 0.09241 0.32475 0.0
C101 C 0.67231 0.11791 0.31848 0.0
C102 C 0.65296 0.15526 0.37735 0.0
C103 C 0.66798 0.2024 0.50298 0.0
H104 H 0.6049 0.17535 0.37349 0.0
C105 C 0.67453 0.28655 0.49481 0.0
C106 C 0.63704 0.31762 0.54522 0.0
C107 C 0.62574 0.15008 0.56335 0.0
H108 H 0.61912 0.08471 0.56971 0.0
C109 C 0.58871 0.18106 0.6139 0.0
H110 H 0.70687 0.32706 0.44799 0.0
C111 C 0.59347 0.26423 0.60444 0.0
H112 H 0.56475 0.28739 0.64433 0.0
H113 H 0.55549 0.14027 0.65997 0.0
H114 H 0.51086 0.81679 0.24339 0.0
C115 C 0.45631 0.78856 0.21934 0.0
C116 C 0.42717 0.83718 0.17131 0.0
C117 C 0.41453 0.70376 0.23734 0.0
H118 H 0.33194 0.83827 0.10601 0.0
C119 C 0.35568 0.80056 0.14133 0.0
C120 C 0.31408 0.71568 0.15851 0.0
C121 C 0.34431 0.66766 0.20568 0.0
C122 C 0.44398 0.65171 0.2882 0.0
H123 H 0.31253 0.6022 0.21906 0.0
C124 C 0.45165 0.66388 0.36446 0.0
C125 C 0.47745 0.61154 0.41229 0.0
C126 C 0.46146 0.58672 0.26046 0.0
H127 H 0.45503 0.57587 0.20226 0.0
C128 C 0.4873 0.53521 0.30749 0.0
H129 H 0.43685 0.71304 0.38638 0.0
C130 C 0.49523 0.54739 0.38277 0.0
H131 H 0.51331 0.50492 0.41843 0.0
H132 H 0.50045 0.48501 0.2857 0.0
H133 H 0.22243 0.45209 0.74193 0.0
C134 C 0.20501 0.39576 0.71312 0.0
C135 C 0.24944 0.39027 0.6532 0.0
C136 C 0.14095 0.32791 0.73939 0.0
H137 H 0.26313 0.31148 0.57201 0.0
C138 C 0.22833 0.31621 0.61786 0.0
C139 C 0.1644 0.24698 0.64295 0.0
C140 C 0.12042 0.25331 0.70369 0.0
C141 C 0.10319 0.33363 0.80992 0.0
H142 H 0.0724 0.19956 0.72499 0.0
C143 C 0.08984 0.40716 0.82322 0.0
C144 C 0.06843 0.41926 0.89468 0.0
C145 C 0.09053 0.27061 0.86819 0.0
H146 H 0.1013 0.21412 0.86003 0.0
C147 C 0.06798 0.28193 0.93883 0.0
H148 H 0.0986 0.45606 0.77869 0.0
C149 C 0.05801 0.35613 0.95235 0.0
H150 H 0.04047 0.36343 1.00764 0.0
H151 H 0.05938 0.23351 0.98363 0.0
Zn152 Zn 0.08759 -0.00284 0.58433 0.0
Zn153 Zn 0.95313 0.02148 0.48607 0.0
C154 C 0.15029 0.1666 0.61041 0.0
O155 O 0.20702 0.15246 0.57986 0.0
C156 C 0.92722 0.88678 0.38867 0.0
O157 O 0.98195 0.94086 0.34622 0.0
O158 O 0.14329 0.95912 0.6647 0.0
O159 O 0.98939 0.90296 0.59382 0.0
O160 O 0.93822 -0.00271 0.59779 0.0
C161 C 0.1152 0.95825 0.72907 0.0
O162 O 0.06236 -0.00989 0.73595 0.0
O163 O 0.0861 0.10806 0.61619 0.0
C164 C 0.83971 0.06938 0.39904 0.0
O165 O 0.84794 0.01854 0.35216 0.0
O166 O 0.88116 0.0834 0.45552 0.0
O167 O 0.05953 0.07642 0.43598 0.0
O168 O 0.13723 0.01593 0.48361 0.0
O169 O 0.90761 0.90843 0.44857 0.0
C170 C 0.94301 0.92874 0.62414 0.0
C171 C 0.12123 0.06189 0.43288 0.0
Zn172 Zn 0.5696 0.00868 0.03681 0.0
Zn173 Zn 0.48169 0.09811 0.17612 0.0
C174 C 0.4718 0.88394 0.94829 0.0
O175 O 0.51879 0.84578 0.96694 0.0
C176 C 0.62513 0.10505 0.25203 0.0
O177 O 0.65199 0.09396 0.18833 0.0
O178 O 0.64921 0.97742 0.98437 0.0
O179 O 0.60114 0.13504 0.02269 0.0
O180 O 0.53212 0.18438 0.0922 0.0
C181 C 0.65639 0.00735 0.91688 0.0
O182 O 0.62978 0.06682 0.89873 0.0
O183 O 0.47967 0.95355 0.97395 0.0
C184 C 0.34798 0.09217 0.26799 0.0
O185 O 0.34859 0.01964 0.2961 0.0
O186 O 0.39766 0.13399 0.21804 0.0
O187 O 0.43487 0.97776 0.15262 0.0
O188 O 0.5404 0.95213 0.14035 0.0
O189 O 0.55877 0.10754 0.25646 0.0
C190 C 0.58135 0.19435 0.04099 0.0
C191 C 0.46983 0.92681 0.15511 0.0
Zn192 Zn 0.61322 0.5513 0.55918 0.0
Zn193 Zn 0.43643 0.62179 0.64359 0.0
C194 C 0.71428 0.61364 0.43316 0.0
O195 O 0.66271 0.55061 0.40533 0.0
C196 C 0.31981 0.46064 0.63067 0.0
O197 O 0.35902 0.45983 0.57092 0.0
O198 O 0.59134 0.43028 0.5426 0.0
O199 O 0.62216 0.55039 0.67221 0.0
O200 O 0.52543 0.58884 0.66653 0.0
C201 C 0.64762 0.4067 0.53907 0.0
O202 O 0.7163 0.46212 0.53883 0.0
O203 O 0.70725 0.62583 0.50088 0.0
C204 C 0.37229 0.7135 0.73094 0.0
O205 O 0.31099 0.66218 0.70337 0.0
O206 O 0.4361 0.71322 0.70926 0.0
O207 O 0.4382 0.64502 0.52904 0.0
O208 O 0.52919 0.59516 0.53027 0.0
O209 O 0.34339 0.52212 0.67007 0.0
C210 C 0.56799 0.5616 0.70585 0.0
C211 C 0.48258 0.61906 0.49339 0.0
Zn212 Zn 0.95105 0.58789 0.90556 0.0
Zn213 Zn 0.10987 0.5757 0.07181 0.0
C214 C 0.81612 0.43526 0.95665 0.0
O215 O 0.8605 0.39764 0.98476 0.0
C216 C 0.23513 0.67855 0.1371 0.0
O217 O 0.1824 0.65245 0.19002 0.0
O218 O 0.94714 0.69142 0.83972 0.0
O219 O 0.99694 0.61614 1.00301 0.0
O220 O 0.04012 0.63107 0.11279 0.0
C221 C 0.88247 0.69799 0.83114 0.0
O222 O 0.82207 0.63733 0.85897 0.0
O223 O 0.84441 0.50863 0.9248 0.0
C224 C 0.15558 0.4439 0.14188 0.0
O225 O 0.18721 0.44609 0.07667 0.0
O226 O 0.11306 0.48587 0.14917 0.0
O227 O 0.07293 0.52806 0.97053 0.0
O228 O 0.00959 0.51919 0.86672 0.0
O229 O 0.218 0.65796 0.07156 0.0
C230 C 0.99194 0.63844 0.06713 0.0
C231 C 0.0527 0.49483 0.90957 0.0
loop_
_geom_bond_atom_site_label_1
_geom_bond_atom_site_label_2
_geom_bond_distance
_geom_bond_site_symmetry_2
_ccdc_geom_bond_type
H0 C1 0.949 . S
C1 H0 0.949 . S
C1 C2 1.395 . S
C1 C3 1.391 . S
C2 C1 1.395 . S
C2 C5 1.390 . S
C3 C1 1.391 . S
C3 C7 1.387 . S
C3 C8 1.491 . S
H4 C5 0.950 . S
C5 C2 1.390 . S
C5 H4 0.950 . S
C5 C6 1.378 . S
C6 C5 1.378 . S
C6 C7 1.409 . S
C7 C3 1.387 . S
C7 C6 1.409 . S
C7 H9 0.951 . S
C8 C3 1.491 . S
C8 C10 1.382 . S
C8 C12 1.404 . S
H9 C7 0.951 . S
C10 C8 1.382 . S
C10 C11 1.390 . S
C10 H15 0.949 . S
C11 C10 1.390 . S
C11 C16 1.399 . S
C12 C8 1.404 . S
C12 H13 0.950 . S
C12 C14 1.375 . S
H13 C12 0.950 . S
C14 C12 1.375 . S
C14 C16 1.382 . S
C14 H18 0.950 . S
H15 C10 0.949 . S
C16 C11 1.399 . S
C16 C14 1.382 . S
C16 H17 0.952 . S
H17 C16 0.952 . S
H18 C14 0.950 . S
H19 C20 0.949 . S
C20 H19 0.949 . S
C20 C21 1.395 . S
C20 C22 1.391 . S
C21 C20 1.395 . S
C21 C24 1.390 . S
C22 C20 1.391 . S
C22 C26 1.387 . S
C22 C27 1.491 . S
H23 C24 0.950 . S
C24 C21 1.390 . S
C24 H23 0.950 . S
C24 C25 1.378 . S
C25 C24 1.378 . S
C25 C26 1.409 . S
C26 C22 1.387 . S
C26 C25 1.409 . S
C26 H28 0.951 . S
C27 C22 1.491 . S
C27 C29 1.382 . S
C27 C31 1.404 . S
H28 C26 0.951 . S
C29 C27 1.382 . S
C29 C30 1.390 . S
C29 H34 0.949 . S
C30 C29 1.390 . S
C30 C35 1.399 . S
C31 C27 1.404 . S
C31 H32 0.950 . S
C31 C33 1.375 . S
H32 C31 0.950 . S
C33 C31 1.375 . S
C33 C35 1.382 . S
C33 H37 0.950 . S
H34 C29 0.949 . S
C35 C30 1.399 . S
C35 C33 1.382 . S
C35 H36 0.952 . S
H36 C35 0.952 . S
H37 C33 0.950 . S
H38 C39 0.949 . S
C39 H38 0.949 . S
C39 C40 1.395 . S
C39 C41 1.391 . S
C40 C39 1.395 . S
C40 C43 1.390 . S
C41 C39 1.391 . S
C41 C45 1.387 . S
C41 C46 1.491 . S
H42 C43 0.950 . S
C43 C40 1.390 . S
C43 H42 0.950 . S
C43 C44 1.378 . S
C44 C43 1.378 . S
C44 C45 1.409 . S
C45 C41 1.387 . S
C45 C44 1.409 . S
C45 H47 0.951 . S
C46 C41 1.491 . S
C46 C48 1.382 . S
C46 C50 1.404 . S
H47 C45 0.951 . S
C48 C46 1.382 . S
C48 C49 1.390 . S
C48 H53 0.949 . S
C49 C48 1.390 . S
C49 C54 1.399 . S
C50 C46 1.404 . S
C50 H51 0.950 . S
C50 C52 1.375 . S
H51 C50 0.950 . S
C52 C50 1.375 . S
C52 C54 1.382 . S
C52 H56 0.950 . S
H53 C48 0.949 . S
C54 C49 1.399 . S
C54 C52 1.382 . S
C54 H55 0.952 . S
H55 C54 0.952 . S
H56 C52 0.950 . S
H57 C58 0.949 . S
C58 H57 0.949 . S
C58 C59 1.395 . S
C58 C60 1.391 . S
C59 C58 1.395 . S
C59 C62 1.390 . S
C60 C58 1.391 . S
C60 C64 1.387 . S
C60 C65 1.491 . S
H61 C62 0.950 . S
C62 C59 1.390 . S
C62 H61 0.950 . S
C62 C63 1.378 . S
C63 C62 1.378 . S
C63 C64 1.409 . S
C64 C60 1.387 . S
C64 C63 1.409 . S
C64 H66 0.951 . S
C65 C60 1.491 . S
C65 C67 1.382 . S
C65 C69 1.404 . S
H66 C64 0.951 . S
C67 C65 1.382 . S
C67 C68 1.390 . S
C67 H72 0.949 . S
C68 C67 1.390 . S
C68 C73 1.399 . S
C69 C65 1.404 . S
C69 H70 0.950 . S
C69 C71 1.375 . S
H70 C69 0.950 . S
C71 C69 1.375 . S
C71 C73 1.382 . S
C71 H75 0.950 . S
H72 C67 0.949 . S
C73 C68 1.399 . S
C73 C71 1.382 . S
C73 H74 0.952 . S
H74 C73 0.952 . S
H75 C71 0.950 . S
H76 C77 0.949 . S
C77 H76 0.949 . S
C77 C78 1.395 . S
C77 C79 1.391 . S
C78 C77 1.395 . S
C78 C81 1.390 . S
C79 C77 1.391 . S
C79 C83 1.387 . S
C79 C84 1.491 . S
H80 C81 0.950 . S
C81 C78 1.390 . S
C81 H80 0.950 . S
C81 C82 1.378 . S
C82 C81 1.378 . S
C82 C83 1.409 . S
C83 C79 1.387 . S
C83 C82 1.409 . S
C83 H85 0.951 . S
C84 C79 1.491 . S
C84 C86 1.382 . S
C84 C88 1.404 . S
H85 C83 0.951 . S
C86 C84 1.382 . S
C86 C87 1.390 . S
C86 H91 0.949 . S
C87 C86 1.390 . S
C87 C92 1.399 . S
C88 C84 1.404 . S
C88 H89 0.950 . S
C88 C90 1.375 . S
H89 C88 0.950 . S
C90 C88 1.375 . S
C90 C92 1.382 . S
C90 H94 0.950 . S
H91 C86 0.949 . S
C92 C87 1.399 . S
C92 C90 1.382 . S
C92 H93 0.952 . S
H93 C92 0.952 . S
H94 C90 0.950 . S
H95 C96 0.949 . S
C96 H95 0.949 . S
C96 C97 1.395 . S
C96 C98 1.391 . S
C97 C96 1.395 . S
C97 C100 1.390 . S
C98 C96 1.391 . S
C98 C102 1.387 . S
C98 C103 1.491 . S
H99 C100 0.950 . S
C100 C97 1.390 . S
C100 H99 0.950 . S
C100 C101 1.378 . S
C101 C100 1.378 . S
C101 C102 1.409 . S
C102 C98 1.387 . S
C102 C101 1.409 . S
C102 H104 0.951 . S
C103 C98 1.491 . S
C103 C105 1.382 . S
C103 C107 1.404 . S
H104 C102 0.951 . S
C105 C103 1.382 . S
C105 C106 1.390 . S
C105 H110 0.949 . S
C106 C105 1.390 . S
C106 C111 1.399 . S
C107 C103 1.404 . S
C107 H108 0.950 . S
C107 C109 1.375 . S
H108 C107 0.950 . S
C109 C107 1.375 . S
C109 C111 1.382 . S
C109 H113 0.950 . S
H110 C105 0.949 . S
C111 C106 1.399 . S
C111 C109 1.382 . S
C111 H112 0.952 . S
H112 C111 0.952 . S
H113 C109 0.950 . S
H114 C115 0.949 . S
C115 H114 0.949 . S
C115 C116 1.395 . S
C115 C117 1.391 . S
C116 C115 1.395 . S
C116 C119 1.390 . S
C117 C115 1.391 . S
C117 C121 1.387 . S
C117 C122 1.491 . S
H118 C119 0.950 . S
C119 C116 1.390 . S
C119 H118 0.950 . S
C119 C120 1.378 . S
C120 C119 1.378 . S
C120 C121 1.409 . S
C121 C117 1.387 . S
C121 C120 1.409 . S
C121 H123 0.951 . S
C122 C117 1.491 . S
C122 C124 1.382 . S
C122 C126 1.404 . S
H123 C121 0.951 . S
C124 C122 1.382 . S
C124 C125 1.390 . S
C124 H129 0.949 . S
C125 C124 1.390 . S
C125 C130 1.399 . S
C126 C122 1.404 . S
C126 H127 0.950 . S
C126 C128 1.375 . S
H127 C126 0.950 . S
C128 C126 1.375 . S
C128 C130 1.382 . S
C128 H132 0.950 . S
H129 C124 0.949 . S
C130 C125 1.399 . S
C130 C128 1.382 . S
C130 H131 0.952 . S
H131 C130 0.952 . S
H132 C128 0.950 . S
H133 C134 0.949 . S
C134 H133 0.949 . S
C134 C135 1.395 . S
C134 C136 1.391 . S
C135 C134 1.395 . S
C135 C138 1.390 . S
C136 C134 1.391 . S
C136 C140 1.387 . S
C136 C141 1.491 . S
H137 C138 0.950 . S
C138 C135 1.390 . S
C138 H137 0.950 . S
C138 C139 1.378 . S
C139 C138 1.378 . S
C139 C140 1.409 . S
C140 C136 1.387 . S
C140 C139 1.409 . S
C140 H142 0.951 . S
C141 C136 1.491 . S
C141 C143 1.382 . S
C141 C145 1.404 . S
H142 C140 0.951 . S
C143 C141 1.382 . S
C143 C144 1.390 . S
C143 H148 0.949 . S
C144 C143 1.390 . S
C144 C149 1.399 . S
C145 C141 1.404 . S
C145 H146 0.950 . S
C145 C147 1.375 . S
H146 C145 0.950 . S
C147 C145 1.375 . S
C147 C149 1.382 . S
C147 H151 0.947 1_456 S
H148 C143 0.949 . S
C149 C144 1.399 . S
C149 C147 1.382 . S
C149 H150 0.952 1_556 S
H150 C149 0.952 1_554 S
H151 C147 0.947 1_654 S
Zn152 O158 1.969 . S
Zn152 O159 1.965 1_545 S
Zn152 O163 2.024 . S
Zn152 O168 1.969 . S
Zn153 O160 1.969 1_545 S
Zn153 O166 1.969 . S
Zn153 O167 1.965 1_655 S
Zn153 O169 2.024 1_545 S
C154 O155 1.229 . S
C154 O163 1.058 . S
O155 C154 1.229 . S
C156 O157 1.229 . S
C156 O169 1.058 . S
O157 C156 1.229 . S
O158 Zn152 1.969 . S
O158 C161 1.267 1_545 S
O159 Zn152 1.965 1_565 S
O159 C170 1.260 1_455 S
O160 Zn153 1.969 1_565 S
O160 C170 1.258 . S
C161 O158 1.267 1_565 S
C161 O162 1.228 . S
O162 C161 1.228 . S
O163 Zn152 2.024 . S
O163 C154 1.058 . S
C164 O165 1.228 . S
C164 O166 1.267 . S
O165 C164 1.228 . S
O166 Zn153 1.969 . S
O166 C164 1.267 . S
O167 Zn153 1.965 1_455 S
O167 C171 1.260 . S
O168 Zn152 1.969 . S
O168 C171 1.258 . S
O169 Zn153 2.024 1_565 S
O169 C156 1.058 . S
C170 O159 1.260 1_655 S
C170 O160 1.258 . S
C171 O167 1.260 . S
C171 O168 1.258 . S
Zn172 O178 1.969 1_554 S
Zn172 O179 1.965 1_565 S
Zn172 O183 2.024 1_554 S
Zn172 O188 1.969 . S
Zn173 O180 1.969 . S
Zn173 O186 1.969 . S
Zn173 O187 1.965 1_545 S
Zn173 O189 2.024 . S
C174 O175 1.229 . S
C174 O183 1.058 . S
O175 C174 1.229 . S
C176 O177 1.229 . S
C176 O189 1.058 . S
O177 C176 1.229 . S
O178 Zn172 1.969 1_556 S
O178 C181 1.267 . S
O179 Zn172 1.965 1_545 S
O179 C190 1.260 . S
O180 Zn173 1.969 . S
O180 C190 1.258 . S
C181 O178 1.267 . S
C181 O182 1.228 . S
O182 C181 1.228 . S
O183 Zn172 2.024 1_556 S
O183 C174 1.058 . S
C184 O185 1.228 . S
C184 O186 1.267 . S
O185 C184 1.228 . S
O186 Zn173 1.969 . S
O186 C184 1.267 . S
O187 Zn173 1.965 1_565 S
O187 C191 1.260 . S
O188 Zn172 1.969 . S
O188 C191 1.258 . S
O189 Zn173 2.024 . S
O189 C176 1.058 . S
C190 O179 1.260 . S
C190 O180 1.258 . S
C191 O187 1.260 . S
C191 O188 1.258 . S
Zn192 O198 1.969 . S
Zn192 O199 1.965 . S
Zn192 O203 2.024 . S
Zn192 O208 1.969 . S
Zn193 O200 1.969 . S
Zn193 O206 1.969 . S
Zn193 O207 1.965 . S
Zn193 O209 2.024 . S
C194 O195 1.229 . S
C194 O203 1.058 . S
O195 C194 1.229 . S
C196 O197 1.229 . S
C196 O209 1.058 . S
O197 C196 1.229 . S
O198 Zn192 1.969 . S
O198 C201 1.267 . S
O199 Zn192 1.965 . S
O199 C210 1.260 . S
O200 Zn193 1.969 . S
O200 C210 1.258 . S
C201 O198 1.267 . S
C201 O202 1.228 . S
O202 C201 1.228 . S
O203 Zn192 2.024 . S
O203 C194 1.058 . S
C204 O205 1.228 . S
C204 O206 1.267 . S
O205 C204 1.228 . S
O206 Zn193 1.969 . S
O206 C204 1.267 . S
O207 Zn193 1.965 . S
O207 C211 1.260 . S
O208 Zn192 1.969 . S
O208 C211 1.258 . S
O209 Zn193 2.024 . S
O209 C196 1.058 . S
C210 O199 1.260 . S
C210 O200 1.258 . S
C211 O207 1.260 . S
C211 O208 1.258 . S
Zn212 O218 1.969 1_655 S
Zn212 O219 1.965 1_656 S
Zn212 O223 2.024 . S
Zn212 O228 1.969 1_655 S
Zn213 O220 1.969 . S
Zn213 O226 1.969 . S
Zn213 O227 1.965 1_554 S
Zn213 O229 2.024 . S
C214 O215 1.229 . S
C214 O223 1.058 . S
O215 C214 1.229 . S
C216 O217 1.229 . S
C216 O229 1.058 . S
O217 C216 1.229 . S
O218 Zn212 1.969 1_455 S
O218 C221 1.267 1_455 S
O219 Zn212 1.965 1_454 S
O219 C230 1.260 1_455 S
O220 Zn213 1.969 . S
O220 C230 1.258 1_455 S
C221 O218 1.267 1_655 S
C221 O222 1.228 . S
O222 C221 1.228 . S
O223 Zn212 2.024 . S
O223 C214 1.058 . S
C224 O225 1.228 . S
C224 O226 1.267 . S
O225 C224 1.228 . S
O226 Zn213 1.969 . S
O226 C224 1.267 . S
O227 Zn213 1.965 1_556 S
O227 C231 1.260 . S
O228 Zn212 1.969 1_455 S
O228 C231 1.258 . S
O229 Zn213 2.024 . S
O229 C216 1.058 . S
C230 O219 1.260 1_655 S
C230 O220 1.258 1_655 S
C231 O227 1.260 . S
C231 O228 1.258 . S
C6 C171 2.299 . S
C21 C174 1.485 . S
C210 C49 1.284 . S
C68 C230 1.982 . S
C184 C2 2.515 . S
C161 C30 1.021 . S
C214 C40 2.044 . S
C194 C63 1.504 . S
C11 C224 1.245 . S
C190 C44 2.200 1_554 S
C59 C156 1.350 . S
C25 C204 1.627 . S
C170 C82 2.044 . S
C101 C176 1.949 . S
C125 C211 2.007 . S
C144 C231 2.001 . S
C87 C181 1.361 . S
C164 C97 2.349 . S
C216 C120 1.671 . S
C196 C135 1.818 . S
C78 C221 1.860 . S
C191 C116 1.518 . S
C154 C139 1.939 . S
C106 C201 0.886 . S
