# Generated by pormake.
# Topology rtl, (3,6)-cn, num edge types: 1
# Building blocks:
#     Node 0, Type 0, BuildingBlock: ESEHIV_clean_linker_0, # of connection points: 3
#     Node 1, Type 0, BuildingBlock: ESEHIV_clean_linker_0, # of connection points: 3
#     Node 2, Type 0, BuildingBlock: ESEHIV_clean_linker_0, # of connection points: 3
#     Node 3, Type 0, BuildingBlock: ESEHIV_clean_linker_0, # of connection points: 3
#     Node 4, Type 1, BuildingBlock: CIFDUS_clean_sbu_1, # of connection points: 6
#     Node 5, Type 1, BuildingBlock: CIFDUS_clean_sbu_1, # of connection points: 6
#     Edge 6, Type (0, 1), None
#     Edge 7, Type (0, 1), None
#     Edge 8, Type (0, 1), None
#     Edge 9, Type (0, 1), None
#     Edge 10, Type (0, 1), None
#     Edge 11, Type (0, 1), None
#     Edge 12, Type (0, 1), None
#     Edge 13, Type (0, 1), None
#     Edge 14, Type (0, 1), None
#     Edge 15, Type (0, 1), None
#     Edge 16, Type (0, 1), None
#     Edge 17, Type (0, 1), None
# Relax obj value: 0.030
# Max RMSD: 0.061
# Mean RMSD: 0.045
data_MOF--net-rtl--node1-CIFDUS_clean_sbu_1--node2-ESEHIV_clean_linker_0--edge1-none
_symmetry_space_group_name_H-M    P1
_symmetry_Int_Tables_number       1
_symmetry_cell_setting            triclinic
loop_
_symmetry_equiv_pos_as_xyz
'x, y, z'
_cell_length_a     13.51114
_cell_length_b     9.1854705
_cell_length_c     9.2132426
_cell_angle_alpha  90.000126
_cell_angle_beta   96.695962
_cell_angle_gamma 90.002781
loop_
_atom_site_label
_atom_site_type_symbol
_atom_site_fract_x
_atom_site_fract_y
_atom_site_fract_z
_atom_type_partial_charge
H0 H 0.04012 0.29267 0.16026 0.0
H1 H 0.31604 1.06832 0.30288 0.0
H2 H 0.22922 1.15635 0.84621 0.0
C3 C 0.10934 0.2434 0.13669 0.0
C4 C 0.12652 1.22854 0.99103 0.0
C5 C 0.1742 1.1797 0.24989 0.0
C6 C 0.26416 1.11477 0.21672 0.0
C7 C 0.28612 1.11247 0.07074 0.0
C8 C 0.21425 1.16233 0.95932 0.0
H9 H 0.54013 0.69349 0.66027 0.0
H10 H 0.72919 0.82995 0.34623 0.0
H11 H 0.81605 0.91782 0.80292 0.0
C12 C 0.60933 0.74279 0.6367 0.0
C13 C 0.67419 0.80648 0.7499 0.0
C14 C 0.6265 0.7577 0.49104 0.0
C15 C 0.71422 0.82395 0.45933 0.0
C16 C 0.7861 0.8738 0.57076 0.0
C17 C 0.76416 0.87141 0.71674 0.0
H18 H 0.86365 1.19343 0.95669 0.0
H19 H 0.67459 0.32985 0.27075 0.0
H20 H 0.58775 0.41781 0.81407 0.0
C21 C 0.79445 0.24273 0.98027 0.0
C22 C 0.72959 0.30643 0.86707 0.0
C23 C 0.77727 0.25761 0.12593 0.0
C24 C 0.68956 0.32386 0.15764 0.0
C25 C 0.61769 0.37375 0.04622 0.0
C26 C 0.63963 0.37137 0.90024 0.0
H27 H 0.36366 0.79264 0.45669 0.0
H28 H 0.17459 0.65619 0.77073 0.0
H29 H 0.08773 0.56829 0.31404 0.0
C30 C 0.29446 0.74334 0.48027 0.0
C31 C 0.22959 0.67965 0.36706 0.0
C32 C 0.27728 0.72844 0.62593 0.0
C33 C 0.18956 0.66219 0.65763 0.0
C34 C 0.11768 0.61233 0.5462 0.0
C35 C 0.13963 0.61471 0.40022 0.0
O36 O 0.85671 0.27203 0.36899 0.0
Mn37 Mn -0.04811 0.24306 0.55848 0.0
O38 O 0.90166 1.09065 0.22359 0.0
Mn39 Mn -0.02256 0.97703 0.36621 0.0
O40 O 0.04708 1.2141 0.74798 0.0
O41 O -0.02671 0.45897 0.58725 0.0
Mn42 Mn 0.92634 0.50909 0.75074 0.0
O43 O 0.83099 0.24051 0.68584 0.0
O44 O 0.00212 0.39548 0.89336 0.0
O45 O 0.0728 0.24561 0.43112 0.0
O46 O 0.11189 1.01509 0.40247 0.0
O47 O -0.01131 0.67052 0.68845 0.0
O48 O 0.79189 0.47102 0.71447 0.0
C49 C 0.88592 0.90219 0.52596 0.0
C50 C 0.85008 1.20417 0.24602 0.0
C51 C 0.05371 0.28196 0.87094 0.0
C52 C 0.01786 0.58393 0.591 0.0
C53 C 0.77253 0.33782 0.73016 0.0
C54 C 0.13126 1.14829 0.38679 0.0
O55 O 0.9305 1.02715 0.52971 0.0
O56 O 0.91508 0.8156 0.4285 0.0
O57 O 0.54706 0.7721 0.24798 0.0
Mn58 Mn 0.45189 0.74307 0.05848 0.0
O59 O 0.50213 0.5907 0.39338 0.0
Mn60 Mn 0.42636 0.47705 0.25076 0.0
O61 O 0.35672 0.71403 0.86898 0.0
O62 O 0.43043 0.95897 0.02968 0.0
Mn63 Mn 0.47743 1.00907 0.8662 0.0
O64 O 0.5728 0.74053 0.93113 0.0
O65 O 0.40166 0.89543 0.72359 0.0
O66 O 0.33098 0.74559 0.18583 0.0
O67 O 0.29191 0.51507 0.21447 0.0
O68 O 0.41512 1.17053 0.92846 0.0
O69 O 0.61188 0.97105 0.9025 0.0
C70 C 0.51788 0.40218 0.09103 0.0
C71 C 0.5537 0.70424 0.37095 0.0
C72 C 0.35008 0.78189 0.74601 0.0
C73 C 0.38592 1.08398 0.02593 0.0
C74 C 0.63126 0.83786 0.88682 0.0
C75 C 0.27253 0.64826 0.23015 0.0
O76 O 0.47334 0.52717 0.08728 0.0
O77 O 0.4887 0.31561 0.1885 0.0
loop_
_geom_bond_atom_site_label_1
_geom_bond_atom_site_label_2
_geom_bond_distance
_geom_bond_site_symmetry_2
_ccdc_geom_bond_type
H0 C3 0.931 1_545 S
H1 C6 0.928 . S
H2 C8 0.930 . S
C3 H0 0.931 1_565 S
C3 C4 1.413 1_554 S
C3 C5 1.360 . S
C4 C3 1.413 1_556 S
C4 C8 1.429 . S
C5 C3 1.360 . S
C5 C6 1.372 . S
C6 H1 0.928 . S
C6 C5 1.372 . S
C6 C7 1.404 . S
C7 C6 1.404 . S
C7 C8 1.391 1_554 S
C8 H2 0.930 . S
C8 C4 1.429 . S
C8 C7 1.391 1_556 S
H9 C12 0.931 . S
H10 C15 0.928 . S
H11 C17 0.930 . S
C12 H9 0.931 . S
C12 C13 1.413 . S
C12 C14 1.360 . S
C13 C12 1.413 . S
C13 C17 1.429 . S
C14 C12 1.360 . S
C14 C15 1.372 . S
C15 H10 0.928 . S
C15 C14 1.372 . S
C15 C16 1.404 . S
C16 C15 1.404 . S
C16 C17 1.391 . S
C17 H11 0.930 . S
C17 C13 1.429 . S
C17 C16 1.391 . S
H18 C21 0.931 . S
H19 C24 0.928 . S
H20 C26 0.930 . S
C21 H18 0.931 . S
C21 C22 1.413 1_554 S
C21 C23 1.360 . S
C22 C21 1.413 1_556 S
C22 C26 1.429 . S
C23 C21 1.360 . S
C23 C24 1.372 . S
C24 H19 0.928 . S
C24 C23 1.372 . S
C24 C25 1.404 1_554 S
C25 C24 1.404 1_556 S
C25 C26 1.391 . S
C26 H20 0.930 . S
C26 C22 1.429 . S
C26 C25 1.391 . S
H27 C30 0.931 . S
H28 C33 0.928 . S
H29 C35 0.930 . S
C30 H27 0.931 . S
C30 C31 1.413 . S
C30 C32 1.360 . S
C31 C30 1.413 . S
C31 C35 1.429 . S
C32 C30 1.360 . S
C32 C33 1.372 . S
C33 H28 0.928 . S
C33 C32 1.372 . S
C33 C34 1.404 . S
C34 C33 1.404 . S
C34 C35 1.391 . S
C35 H29 0.930 . S
C35 C31 1.429 . S
C35 C34 1.391 . S
O36 Mn37 2.163 1_655 S
O36 C50 1.244 . S
Mn37 O36 2.163 1_455 S
Mn37 O40 2.160 1_545 S
Mn37 O41 2.221 . S
Mn37 O43 2.163 1_455 S
Mn37 O45 2.160 1_545 S
Mn37 O55 2.221 1_445 S
O38 Mn39 2.087 . S
O38 C50 1.256 1_565 S
Mn39 O38 2.087 . S
Mn39 O46 2.089 1_655 S
Mn39 O55 2.290 . S
Mn39 O56 2.251 . S
O40 Mn37 2.160 1_565 S
O40 C51 1.239 . S
O41 Mn37 2.221 . S
O41 Mn42 2.290 . S
O41 C52 1.278 . S
Mn42 O41 2.290 . S
Mn42 O44 2.089 . S
Mn42 O47 2.251 . S
Mn42 O48 2.087 1_455 S
O43 Mn37 2.163 1_655 S
O43 C53 1.244 . S
O44 Mn42 2.089 . S
O44 C51 1.256 1_545 S
O45 Mn37 2.160 1_565 S
O45 C54 1.239 . S
O46 Mn39 2.089 1_455 S
O46 C54 1.256 . S
O47 Mn42 2.251 . S
O47 C52 1.241 . S
O48 Mn42 2.087 1_655 S
O48 C53 1.256 . S
C49 O55 1.278 . S
C49 O56 1.241 . S
C50 O36 1.244 . S
C50 O38 1.256 1_545 S
C51 O40 1.239 . S
C51 O44 1.256 1_565 S
C52 O41 1.278 . S
C52 O47 1.241 . S
C53 O43 1.244 . S
C53 O48 1.256 . S
C54 O45 1.239 . S
C54 O46 1.256 . S
O55 Mn37 2.221 1_665 S
O55 Mn39 2.290 . S
O55 C49 1.278 . S
O56 Mn39 2.251 . S
O56 C49 1.241 . S
O57 Mn58 2.163 . S
O57 C71 1.244 . S
Mn58 O57 2.163 . S
Mn58 O61 2.160 1_554 S
Mn58 O62 2.221 1_554 S
Mn58 O64 2.163 1_554 S
Mn58 O66 2.160 . S
Mn58 O76 2.221 . S
O59 Mn60 2.087 . S
O59 C71 1.256 . S
Mn60 O59 2.087 . S
Mn60 O67 2.089 . S
Mn60 O76 2.290 . S
Mn60 O77 2.251 . S
O61 Mn58 2.160 1_556 S
O61 C72 1.239 . S
O62 Mn58 2.221 1_556 S
O62 Mn63 2.290 . S
O62 C73 1.278 1_556 S
Mn63 O62 2.290 . S
Mn63 O65 2.089 . S
Mn63 O68 2.251 . S
Mn63 O69 2.087 . S
O64 Mn58 2.163 1_556 S
O64 C74 1.244 . S
O65 Mn63 2.089 . S
O65 C72 1.256 . S
O66 Mn58 2.160 . S
O66 C75 1.239 . S
O67 Mn60 2.089 . S
O67 C75 1.256 . S
O68 Mn63 2.251 . S
O68 C73 1.241 1_556 S
O69 Mn63 2.087 . S
O69 C74 1.256 . S
C70 O76 1.278 . S
C70 O77 1.241 . S
C71 O57 1.244 . S
C71 O59 1.256 . S
C72 O61 1.239 . S
C72 O65 1.256 . S
C73 O62 1.278 1_554 S
C73 O68 1.241 1_554 S
C74 O64 1.244 . S
C74 O69 1.256 . S
C75 O66 1.239 . S
C75 O67 1.256 . S
O76 Mn58 2.221 . S
O76 Mn60 2.290 . S
O76 C70 1.278 . S
O77 Mn60 2.251 . S
O77 C70 1.241 . S
C52 C34 1.261 . S
C7 C73 1.290 . S
C16 C49 1.420 . S
C25 C70 1.418 1_556 S
C54 C5 1.554 . S
C74 C13 1.534 . S
C23 C50 1.487 . S
C32 C72 1.390 . S
C71 C14 1.484 . S
C53 C22 1.532 . S
C75 C31 1.534 . S
C4 C51 1.397 . S
