# Generated by pormake.
# Topology rtl, (3,6)-cn, num edge types: 1
# Building blocks:
#     Node 0, Type 0, BuildingBlock: PAMTOO_clean_linker_0, # of connection points: 3
#     Node 1, Type 0, BuildingBlock: PAMTOO_clean_linker_0, # of connection points: 3
#     Node 2, Type 0, BuildingBlock: PAMTOO_clean_linker_0, # of connection points: 3
#     Node 3, Type 0, BuildingBlock: PAMTOO_clean_linker_0, # of connection points: 3
#     Node 4, Type 1, BuildingBlock: FUNLAD_clean_sbu_0, # of connection points: 6
#     Node 5, Type 1, BuildingBlock: FUNLAD_clean_sbu_0, # of connection points: 6
#     Edge 6, Type (0, 1), None
#     Edge 7, Type (0, 1), None
#     Edge 8, Type (0, 1), None
#     Edge 9, Type (0, 1), None
#     Edge 10, Type (0, 1), None
#     Edge 11, Type (0, 1), None
#     Edge 12, Type (0, 1), None
#     Edge 13, Type (0, 1), None
#     Edge 14, Type (0, 1), None
#     Edge 15, Type (0, 1), None
#     Edge 16, Type (0, 1), None
#     Edge 17, Type (0, 1), None
# Relax obj value: 0.004
# Max RMSD: 0.073
# Mean RMSD: 0.054
data_MOF--net-rtl--node1-FUNLAD_clean_sbu_0--node2-PAMTOO_clean_linker_0--edge1-none
_symmetry_space_group_name_H-M    P1
_symmetry_Int_Tables_number       1
_symmetry_cell_setting            triclinic
loop_
_symmetry_equiv_pos_as_xyz
'x, y, z'
_cell_length_a     20.248314
_cell_length_b     20.199253
_cell_length_c     8.8252545
_cell_angle_alpha  93.030258
_cell_angle_beta   90.833894
_cell_angle_gamma 90.059997
loop_
_atom_site_label
_atom_site_type_symbol
_atom_site_fract_x
_atom_site_fract_y
_atom_site_fract_z
_atom_type_partial_charge
H0 H 0.05637 0.98651 0.01541 0.0
H1 H 0.18392 0.85358 0.24526 0.0
H2 H 0.18698 0.85843 0.75758 0.0
H3 H 0.20283 0.72692 0.86716 0.0
C4 C 0.22631 0.73844 0.98025 0.0
O5 O 0.2404 0.80532 -0.00343 0.0
H6 H 0.19038 0.72459 0.06758 0.0
C7 C 0.09359 0.94823 0.01121 0.0
C8 C 0.11781 0.92493 0.87101 0.0
C9 C 0.11612 0.92216 0.14596 0.0
C10 C 0.16566 0.87371 0.14127 0.0
C11 C 0.19195 0.85136 0.00109 0.0
C12 C 0.16757 0.87666 0.86567 0.0
H13 H 0.52907 0.5712 0.51352 0.0
H14 H 0.68933 0.66112 0.28487 0.0
H15 H 0.69445 0.65238 0.77128 0.0
H16 H 0.73732 0.77639 0.70417 0.0
C17 C 0.74302 0.77096 0.57902 0.0
O18 O 0.75026 0.70445 0.53752 0.0
H19 H 0.69726 0.79082 0.52624 0.0
C20 C 0.57593 0.59693 0.51795 0.0
C21 C 0.6084 0.60891 0.65778 0.0
C22 C 0.60609 0.61256 0.3827 0.0
C23 C 0.66624 0.6473 0.38861 0.0
C24 C 0.69668 0.66419 0.52953 0.0
C25 C 0.66936 0.64196 0.66334 0.0
H26 H 0.95464 0.02554 0.0095 0.0
H27 H 0.86812 0.18972 0.78844 0.0
H28 H 0.8737 0.1891 0.27608 0.0
H29 H 0.75059 0.22833 0.19144 0.0
C30 C 0.75667 0.23756 0.06931 0.0
O31 O 0.82287 0.2471 0.0418 0.0
H32 H 0.73787 0.19281 0.00259 0.0
C33 C 0.92944 0.07272 0.0161 0.0
C34 C 0.91675 0.10373 0.15807 0.0
C35 C 0.91527 0.10488 0.88291 0.0
C36 C 0.88125 0.16537 0.89112 0.0
C37 C 0.8637 0.1942 0.03311 0.0
C38 C 0.88464 0.16512 0.16656 0.0
H39 H 0.49043 0.4689 0.49908 0.0
H40 H 0.35948 0.34056 0.72521 0.0
H41 H 0.35741 0.34122 0.23691 0.0
H42 H 0.22741 0.32009 0.35991 0.0
C43 C 0.24114 0.30101 0.472 0.0
O44 O 0.3076 0.28632 0.47422 0.0
H45 H 0.23027 0.33995 0.56231 0.0
C46 C 0.45178 0.43194 0.49381 0.0
C47 C 0.42601 0.40918 0.35299 0.0
C48 C 0.42742 0.40843 0.62802 0.0
C49 C 0.3785 0.35935 0.62164 0.0
C50 C 0.35399 0.3344 0.4803 0.0
C51 C 0.37731 0.35975 0.34568 0.0
C52 C 0.08645 0.94713 0.28832 0.0
N53 N 0.11676 0.13225 0.52407 0.0
C54 C 0.18239 0.12202 0.50153 0.0
C55 C 0.22489 0.17589 0.48672 0.0
C56 C 0.19949 0.24079 0.49739 0.0
C57 C 0.13195 0.24965 0.5232 0.0
C58 C 0.09131 0.19462 0.53602 0.0
Zn59 Zn 0.05117 0.05509 0.52147 0.0
C60 C 0.94522 0.07538 0.29365 0.0
N61 N 0.90776 0.89793 0.50482 0.0
C62 C 0.91982 0.83314 0.53127 0.0
C63 C 0.84478 0.9206 0.49095 0.0
C64 C 0.79118 0.87853 0.50661 0.0
C65 C 0.80174 0.81218 0.53851 0.0
C66 C 0.86707 0.78912 0.54951 0.0
Zn67 Zn 0.97976 0.97034 0.50762 0.0
O68 O 0.10328 1.00421 0.34348 0.0
C69 C 0.08786 0.95053 0.73349 0.0
O70 O 0.0354 0.91874 0.33719 0.0
H71 H 0.83563 0.97242 0.47462 0.0
H72 H 0.20148 0.07203 0.49093 0.0
H73 H 0.97014 0.81619 0.54424 0.0
O74 O 0.10733 1.00578 0.68723 0.0
O75 O 0.03473 0.92426 0.67977 0.0
H76 H 0.03889 0.20187 0.55109 0.0
O77 O 0.92534 0.02321 0.68148 0.0
O78 O 0.99765 0.10419 0.69712 0.0
O79 O 0.92777 0.01828 0.3315 0.0
O80 O 0.99483 0.10346 0.3581 0.0
C81 C 0.94464 0.07851 0.74139 0.0
H82 H 0.2766 0.16658 0.46477 0.0
H83 H 0.11053 0.29884 0.52994 0.0
H84 H 0.74166 0.89859 0.50052 0.0
H85 H 0.87721 0.73849 0.5771 0.0
C86 C 0.45292 0.43797 0.77195 0.0
N87 N 0.62917 0.40259 0.00422 0.0
C88 C 0.60592 0.33938 0.98608 0.0
C89 C 0.64795 0.28574 0.00013 0.0
C90 C 0.71486 0.29655 0.03455 0.0
C91 C 0.73844 0.36211 0.05085 0.0
C92 C 0.69435 0.41491 0.0342 0.0
Zn93 Zn 0.55771 0.4745 0.00298 0.0
C94 C 0.58098 0.57984 0.7924 0.0
N95 N 0.39625 0.61223 0.00747 0.0
C96 C 0.33419 0.58622 0.00659 0.0
C97 C 0.40598 0.67878 0.00237 0.0
C98 C 0.35186 0.72182 -0.00519 0.0
C99 C 0.28727 0.69587 -0.00667 0.0
C100 C 0.27903 0.62723 -0.00029 0.0
Zn101 Zn 0.47333 0.54599 0.00845 0.0
O102 O 0.50949 0.42123 0.81951 0.0
C103 C 0.45068 0.43926 0.21745 0.0
O104 O 0.42493 0.48881 0.83171 0.0
H105 H 0.45569 0.69843 0.00237 0.0
H106 H 0.55387 0.33012 0.96645 0.0
H107 H 0.32725 0.53322 0.00926 0.0
O108 O 0.50579 0.42058 0.16422 0.0
O109 O 0.42461 0.49224 0.17415 0.0
H110 H 0.71171 0.46549 0.05023 0.0
O111 O 0.52334 0.60231 0.18829 0.0
O112 O 0.60487 0.5301 0.18328 0.0
O113 O 0.52425 0.59783 0.83965 0.0
O114 O 0.6088 0.52921 0.84448 0.0
C115 C 0.57883 0.58298 0.23944 0.0
H116 H 0.62771 0.23599 -0.01015 0.0
H117 H 0.78965 0.37242 0.08039 0.0
H118 H 0.36068 0.77448 -0.01115 0.0
H119 H 0.2301 0.60539 -0.0023 0.0
loop_
_geom_bond_atom_site_label_1
_geom_bond_atom_site_label_2
_geom_bond_distance
_geom_bond_site_symmetry_2
_ccdc_geom_bond_type
H0 C7 0.929 . S
H1 C10 0.930 . S
H2 C12 0.929 . S
H3 C4 0.969 . S
C4 H3 0.969 . S
C4 O5 1.550 1_554 S
C4 H6 0.973 . S
O5 C4 1.550 1_556 S
O5 C11 1.412 1_556 S
H6 C4 0.973 . S
C7 H0 0.929 . S
C7 C8 1.400 1_554 S
C7 C9 1.364 . S
C8 C7 1.400 1_556 S
C8 C12 1.377 . S
C9 C7 1.364 . S
C9 C10 1.374 . S
C10 H1 0.930 . S
C10 C9 1.374 . S
C10 C11 1.383 . S
C11 O5 1.412 1_554 S
C11 C10 1.383 . S
C11 C12 1.394 1_554 S
C12 H2 0.929 . S
C12 C8 1.377 . S
C12 C11 1.394 1_556 S
H13 C20 0.929 . S
H14 C23 0.930 . S
H15 C25 0.929 . S
H16 C17 0.969 . S
C17 H16 0.969 . S
C17 O18 1.550 . S
C17 H19 0.973 . S
O18 C17 1.550 . S
O18 C24 1.412 . S
H19 C17 0.973 . S
C20 H13 0.929 . S
C20 C21 1.400 . S
C20 C22 1.364 . S
C21 C20 1.400 . S
C21 C25 1.377 . S
C22 C20 1.364 . S
C22 C23 1.374 . S
C23 H14 0.930 . S
C23 C22 1.374 . S
C23 C24 1.383 . S
C24 O18 1.412 . S
C24 C23 1.383 . S
C24 C25 1.394 . S
C25 H15 0.929 . S
C25 C21 1.377 . S
C25 C24 1.394 . S
H26 C33 0.929 1_556 S
H27 C36 0.930 . S
H28 C38 0.929 . S
H29 C30 0.969 . S
C30 H29 0.969 . S
C30 O31 1.550 1_556 S
C30 H32 0.973 . S
O31 C30 1.550 1_554 S
O31 C37 1.412 . S
H32 C30 0.973 . S
C33 H26 0.929 1_554 S
C33 C34 1.400 . S
C33 C35 1.364 1_554 S
C34 C33 1.400 . S
C34 C38 1.377 . S
C35 C33 1.364 1_556 S
C35 C36 1.374 . S
C36 H27 0.930 . S
C36 C35 1.374 . S
C36 C37 1.383 1_556 S
C37 O31 1.412 . S
C37 C36 1.383 1_554 S
C37 C38 1.394 . S
C38 H28 0.929 . S
C38 C34 1.377 . S
C38 C37 1.394 . S
H39 C46 0.929 . S
H40 C49 0.930 . S
H41 C51 0.929 . S
H42 C43 0.969 . S
C43 H42 0.969 . S
C43 O44 1.550 . S
C43 H45 0.973 . S
O44 C43 1.550 . S
O44 C50 1.412 . S
H45 C43 0.973 . S
C46 H39 0.929 . S
C46 C47 1.400 . S
C46 C48 1.364 . S
C47 C46 1.400 . S
C47 C51 1.377 . S
C48 C46 1.364 . S
C48 C49 1.374 . S
C49 H40 0.930 . S
C49 C48 1.374 . S
C49 C50 1.383 . S
C50 O44 1.412 . S
C50 C49 1.383 . S
C50 C51 1.394 . S
C51 H41 0.929 . S
C51 C47 1.377 . S
C51 C50 1.394 . S
C52 O68 1.251 . S
C52 O70 1.254 . S
N53 C54 1.333 . S
N53 C58 1.307 . S
N53 Zn59 2.020 . S
C54 N53 1.333 . S
C54 C55 1.379 . S
C54 H72 0.952 . S
C55 C54 1.379 . S
C55 C56 1.390 . S
C55 H82 0.949 . S
C56 C55 1.390 . S
C56 C57 1.357 . S
C57 C56 1.357 . S
C57 C58 1.370 . S
C57 H83 0.950 . S
C58 N53 1.307 . S
C58 C57 1.370 . S
C58 H76 0.948 . S
Zn59 N53 2.020 . S
Zn59 O68 2.039 1_545 S
Zn59 O74 2.034 1_545 S
Zn59 O78 2.025 1_455 S
Zn59 O80 2.024 1_455 S
C60 O79 1.246 . S
C60 O80 1.249 . S
N61 C62 1.307 . S
N61 C63 1.333 . S
N61 Zn67 2.020 . S
C62 N61 1.307 . S
C62 C66 1.370 . S
C62 H73 0.948 . S
C63 N61 1.333 . S
C63 C64 1.379 . S
C63 H71 0.952 . S
C64 C63 1.379 . S
C64 C65 1.390 . S
C64 H84 0.949 . S
C65 C64 1.390 . S
C65 C66 1.357 . S
C66 C62 1.370 . S
C66 C65 1.357 . S
C66 H85 0.950 . S
Zn67 N61 2.020 . S
Zn67 O70 2.025 1_655 S
Zn67 O75 2.024 1_655 S
Zn67 O77 2.039 1_565 S
Zn67 O79 2.034 1_565 S
O68 C52 1.251 . S
O68 Zn59 2.039 1_565 S
C69 O74 1.246 . S
C69 O75 1.249 . S
O70 C52 1.254 . S
O70 Zn67 2.025 1_455 S
H71 C63 0.952 . S
H72 C54 0.952 . S
H73 C62 0.948 . S
O74 Zn59 2.034 1_565 S
O74 C69 1.246 . S
O75 Zn67 2.024 1_455 S
O75 C69 1.249 . S
H76 C58 0.948 . S
O77 Zn67 2.039 1_545 S
O77 C81 1.251 . S
O78 Zn59 2.025 1_655 S
O78 C81 1.254 . S
O79 C60 1.246 . S
O79 Zn67 2.034 1_545 S
O80 Zn59 2.024 1_655 S
O80 C60 1.249 . S
C81 O77 1.251 . S
C81 O78 1.254 . S
H82 C55 0.949 . S
H83 C57 0.950 . S
H84 C64 0.949 . S
H85 C66 0.950 . S
C86 O102 1.251 . S
C86 O104 1.254 . S
N87 C88 1.333 1_554 S
N87 C92 1.307 . S
N87 Zn93 2.020 . S
C88 N87 1.333 1_556 S
C88 C89 1.379 . S
C88 H106 0.952 . S
C89 C88 1.379 . S
C89 C90 1.390 1_556 S
C89 H116 0.949 . S
C90 C89 1.390 1_554 S
C90 C91 1.357 . S
C91 C90 1.357 . S
C91 C92 1.370 . S
C91 H117 0.950 . S
C92 N87 1.307 . S
C92 C91 1.370 . S
C92 H110 0.948 . S
Zn93 N87 2.020 . S
Zn93 O102 2.039 1_554 S
Zn93 O108 2.034 . S
Zn93 O112 2.025 . S
Zn93 O114 2.024 1_554 S
C94 O113 1.246 . S
C94 O114 1.249 . S
N95 C96 1.307 1_554 S
N95 C97 1.333 . S
N95 Zn101 2.020 . S
C96 N95 1.307 1_556 S
C96 C100 1.370 1_556 S
C96 H107 0.948 . S
C97 N95 1.333 . S
C97 C98 1.379 . S
C97 H105 0.952 . S
C98 C97 1.379 . S
C98 C99 1.390 . S
C98 H118 0.949 . S
C99 C98 1.390 . S
C99 C100 1.357 . S
C100 C96 1.370 1_554 S
C100 C99 1.357 . S
C100 H119 0.950 1_554 S
Zn101 N95 2.020 . S
Zn101 O104 2.025 1_554 S
Zn101 O109 2.024 . S
Zn101 O111 2.039 . S
Zn101 O113 2.034 1_554 S
O102 C86 1.251 . S
O102 Zn93 2.039 1_556 S
C103 O108 1.246 . S
C103 O109 1.249 . S
O104 C86 1.254 . S
O104 Zn101 2.025 1_556 S
H105 C97 0.952 . S
H106 C88 0.952 . S
H107 C96 0.948 . S
O108 Zn93 2.034 . S
O108 C103 1.246 . S
O109 Zn101 2.024 . S
O109 C103 1.249 . S
H110 C92 0.948 . S
O111 Zn101 2.039 . S
O111 C115 1.251 . S
O112 Zn93 2.025 . S
O112 C115 1.254 . S
O113 C94 1.246 . S
O113 Zn101 2.034 1_556 S
O114 Zn93 2.024 1_556 S
O114 C94 1.249 . S
C115 O111 1.251 . S
C115 O112 1.254 . S
H116 C89 0.949 . S
H117 C91 0.950 . S
H118 C98 0.949 . S
H119 C100 0.950 1_556 S
C56 C43 1.439 . S
C4 C99 1.475 . S
C17 C65 1.475 . S
C30 C90 1.505 1_556 S
C52 C9 1.488 . S
C94 C21 1.530 . S
C34 C60 1.534 . S
C48 C86 1.493 . S
C115 C22 1.494 . S
C81 C35 1.490 . S
C103 C47 1.525 . S
C8 C69 1.530 . S
