# Generated by pormake.
# Topology sit, (3,6)-cn, num edge types: 1
# Building blocks:
#     Node 0, Type 0, BuildingBlock: BELTOD_clean_linker_0, # of connection points: 3
#     Node 1, Type 0, BuildingBlock: BELTOD_clean_linker_0, # of connection points: 3
#     Node 2, Type 0, BuildingBlock: BELTOD_clean_linker_0, # of connection points: 3
#     Node 3, Type 0, BuildingBlock: BELTOD_clean_linker_0, # of connection points: 3
#     Node 4, Type 1, BuildingBlock: MIDCAF_clean_sbu_0, # of connection points: 6
#     Node 5, Type 1, BuildingBlock: MIDCAF_clean_sbu_0, # of connection points: 6
#     Edge 6, Type (0, 1), None
#     Edge 7, Type (0, 1), None
#     Edge 8, Type (0, 1), None
#     Edge 9, Type (0, 1), None
#     Edge 10, Type (0, 1), None
#     Edge 11, Type (0, 1), None
#     Edge 12, Type (0, 1), None
#     Edge 13, Type (0, 1), None
#     Edge 14, Type (0, 1), None
#     Edge 15, Type (0, 1), None
#     Edge 16, Type (0, 1), None
#     Edge 17, Type (0, 1), None
# Relax obj value: 0.104
# Max RMSD: 0.192
# Mean RMSD: 0.103
data_MOF--net-sit--node1-MIDCAF_clean_sbu_0--node2-BELTOD_clean_linker_0--edge1-none
_symmetry_space_group_name_H-M    P1
_symmetry_Int_Tables_number       1
_symmetry_cell_setting            triclinic
loop_
_symmetry_equiv_pos_as_xyz
'x, y, z'
_cell_length_a     14.808781
_cell_length_b     16.399564
_cell_length_c     21.722403
_cell_angle_alpha  88.412396
_cell_angle_beta   88.096587
_cell_angle_gamma 87.922153
loop_
_atom_site_label
_atom_site_type_symbol
_atom_site_fract_x
_atom_site_fract_y
_atom_site_fract_z
_atom_type_partial_charge
P0 P 0.00976 0.28318 0.94044 0.0
H1 H 0.18255 0.21517 0.89997 0.0
H2 H 0.32388 0.2751 0.86591 0.0
H3 H 0.20098 0.51615 0.8839 0.0
H4 H 0.06238 0.45599 0.92572 0.0
H5 H -0.0282 0.12925 0.00695 0.0
H6 H -0.02999 0.09241 0.117 0.0
H7 H 0.07271 0.32847 0.15548 0.0
H8 H 0.07305 0.36496 0.04616 0.0
H9 H -0.04802 0.41062 0.8515 0.0
H10 H 0.84681 0.29717 0.01949 0.0
O11 O -0.00659 0.20323 0.89679 0.0
H12 H 0.80809 0.48574 0.83919 0.0
H13 H 0.70169 0.36855 0.00502 0.0
C14 C 0.11133 0.33087 0.91368 0.0
C15 C 0.18618 0.28105 0.89728 0.0
C16 C 0.26687 0.31561 0.87767 0.0
C17 C 0.2741 0.40097 0.87367 0.0
C18 C 0.19868 0.45083 0.88963 0.0
C19 C 0.11848 0.41609 0.91143 0.0
C20 C 0.02395 0.24934 0.01867 0.0
C21 C -0.0041 0.17213 0.03911 0.0
C22 C -0.00506 0.15105 0.10194 0.0
C23 C 0.02124 0.20737 0.14483 0.0
C24 C 0.05155 0.28379 0.12361 0.0
C25 C 0.05263 0.30461 0.06109 0.0
C26 C 0.91121 0.34986 0.93724 0.0
C27 C 0.89947 0.40425 0.88699 0.0
C28 C 0.8174 0.44742 0.88009 0.0
C29 C 0.74487 0.43336 0.92172 0.0
C30 C 0.75754 0.38122 -0.0269 0.0
C31 C 0.84038 0.34004 -0.019 0.0
P32 P -0.00678 0.70295 0.04349 0.0
H33 H 0.14374 0.5821 0.05238 0.0
H34 H 0.28682 0.56761 -0.00721 0.0
H35 H 0.19514 0.75774 0.86586 0.0
H36 H 0.05307 0.77238 0.92532 0.0
H37 H 0.87259 0.83369 0.09306 0.0
H38 H 0.9034 0.94583 0.16055 0.0
H39 H 0.18983 0.8969 0.13339 0.0
H40 H 0.15952 0.78612 0.06611 0.0
H41 H 0.85736 0.57874 0.04041 0.0
H42 H 0.90059 0.81694 0.95778 0.0
O43 O -0.0095 0.63578 0.1026 0.0
H44 H 0.7172 0.57082 -0.01493 0.0
H45 H 0.76362 0.80615 0.89867 0.0
C46 C 0.0872 0.67742 -0.00744 0.0
C47 C 0.15342 0.6191 0.01081 0.0
C48 C 0.23524 0.61119 -0.02284 0.0
C49 C 0.25131 0.66154 0.92497 0.0
C50 C 0.18388 0.71811 0.90592 0.0
C51 C 0.1023 0.72579 0.93939 0.0
C52 C 0.01349 0.80137 0.07431 0.0
C53 C -0.05803 0.84973 0.09907 0.0
C54 C -0.04028 0.91457 0.13706 0.0
C55 C 0.04916 0.93028 0.15175 0.0
C56 C 0.12046 0.8869 0.122 0.0
C57 C 0.1028 0.82278 0.08385 0.0
C58 C 0.88924 0.69864 0.00333 0.0
C59 C 0.83736 0.62887 0.00975 0.0
C60 C 0.75837 0.62327 -0.02306 0.0
C61 C 0.73155 0.68602 0.93563 0.0
C62 C 0.78324 0.75631 0.92976 0.0
C63 C 0.86159 0.7625 0.96332 0.0
P64 P 0.50976 0.78318 0.44044 0.0
H65 H 0.68255 0.71516 0.39996 0.0
H66 H 0.82387 0.7751 0.3659 0.0
H67 H 0.70098 1.01614 0.3839 0.0
H68 H 0.56237 0.95598 0.42572 0.0
H69 H 0.4718 0.62924 0.50694 0.0
H70 H 0.47002 0.59241 0.617 0.0
H71 H 0.57272 0.82847 0.65548 0.0
H72 H 0.57305 0.86496 0.54616 0.0
H73 H 0.45198 0.91061 0.3515 0.0
H74 H 0.3468 0.79715 0.51948 0.0
O75 O 0.49341 0.70323 0.39678 0.0
H76 H 0.30808 0.98574 0.33919 0.0
H77 H 0.20169 0.86854 0.50502 0.0
C78 C 0.61133 0.83086 0.41367 0.0
C79 C 0.68618 0.78104 0.39727 0.0
C80 C 0.76686 0.81561 0.37766 0.0
C81 C 0.7741 0.90096 0.37366 0.0
C82 C 0.69867 0.95083 0.38962 0.0
C83 C 0.61848 0.91608 0.41142 0.0
C84 C 0.52395 0.74934 0.51866 0.0
C85 C 0.4959 0.67213 0.5391 0.0
C86 C 0.49494 0.65105 0.60193 0.0
C87 C 0.52124 0.70736 0.64483 0.0
C88 C 0.55155 0.78379 0.6236 0.0
C89 C 0.55263 0.8046 0.56108 0.0
C90 C 0.4112 0.84985 0.43724 0.0
C91 C 0.39947 0.90424 0.38699 0.0
C92 C 0.3174 0.94741 0.38009 0.0
C93 C 0.24487 0.93335 0.42172 0.0
C94 C 0.25754 0.88121 0.4731 0.0
C95 C 0.34038 0.84003 0.481 0.0
P96 P 0.49322 0.20295 0.54349 0.0
H97 H 0.64374 0.08209 0.55239 0.0
H98 H 0.78682 0.0676 0.49279 0.0
H99 H 0.69513 0.25773 0.36586 0.0
H100 H 0.55307 0.27237 0.42533 0.0
H101 H 0.37258 0.33369 0.59306 0.0
H102 H 0.4034 0.44583 0.66055 0.0
H103 H 0.68983 0.39689 0.63339 0.0
H104 H 0.65952 0.28611 0.56612 0.0
H105 H 0.35736 0.07874 0.54041 0.0
H106 H 0.40059 0.31693 0.45779 0.0
O107 O 0.4905 0.13577 0.60261 0.0
H108 H 0.2172 0.07082 0.48507 0.0
H109 H 0.26362 0.30615 0.39868 0.0
C110 C 0.5872 0.17741 0.49256 0.0
C111 C 0.65342 0.11909 0.51082 0.0
C112 C 0.73524 0.11118 0.47716 0.0
C113 C 0.75131 0.16153 0.42497 0.0
C114 C 0.68388 0.21811 0.40593 0.0
C115 C 0.6023 0.22579 0.43939 0.0
C116 C 0.51348 0.30136 0.57431 0.0
C117 C 0.44197 0.34973 0.59908 0.0
C118 C 0.45972 0.41456 0.63706 0.0
C119 C 0.54916 0.43027 0.65175 0.0
C120 C 0.62046 0.3869 0.622 0.0
C121 C 0.6028 0.32278 0.58386 0.0
C122 C 0.38923 0.19863 0.50334 0.0
C123 C 0.33736 0.12886 0.50975 0.0
C124 C 0.25836 0.12326 0.47694 0.0
C125 C 0.23154 0.18602 0.43563 0.0
C126 C 0.28323 0.25631 0.42977 0.0
C127 C 0.36158 0.26249 0.46333 0.0
Zn128 Zn -0.00327 0.22683 0.33678 0.0
Zn129 Zn 0.03666 0.92967 0.32652 0.0
Zn130 Zn 0.00872 0.06711 0.32863 0.0
C131 C 0.06563 0.96653 0.21133 0.0
C132 C 0.86085 0.93496 0.35233 0.0
O133 O 0.12405 0.11041 0.38112 0.0
O134 O 0.10313 0.24423 0.38733 0.0
C135 C 0.01327 0.18998 0.2117 0.0
O136 O 0.01552 1.02619 0.23204 0.0
O137 O 0.1107 0.92292 0.24881 0.0
O138 O 0.91517 0.88915 0.32236 0.0
O139 O 0.88541 1.00653 0.36676 0.0
O140 O 0.01048 0.24949 0.24744 0.0
O141 O 0.00976 0.11655 0.23366 0.0
O142 O 0.88144 0.09168 0.37998 0.0
O143 O 0.8735 0.227 0.37616 0.0
C144 C 0.83972 0.15978 0.39239 0.0
O145 O 0.13512 1.02357 0.37412 0.0
O146 O 0.09762 0.89914 0.40297 0.0
C147 C 0.14892 0.17989 0.39991 0.0
C148 C 0.15315 0.95538 0.40299 0.0
Zn149 Zn 0.49673 0.72683 0.83678 0.0
Zn150 Zn 0.53666 0.42967 0.82652 0.0
Zn151 Zn 0.50872 0.56712 0.82863 0.0
C152 C 0.56563 0.46653 0.71133 0.0
C153 C 0.36085 0.43497 0.85233 0.0
O154 O 0.62406 0.61042 0.88112 0.0
O155 O 0.60313 0.74424 0.88732 0.0
C156 C 0.51327 0.68998 0.71169 0.0
O157 O 0.51552 0.52619 0.73204 0.0
O158 O 0.6107 0.42292 0.74881 0.0
O159 O 0.41518 0.38915 0.82236 0.0
O160 O 0.38541 0.50653 0.86676 0.0
O161 O 0.51048 0.74948 0.74743 0.0
O162 O 0.50977 0.61654 0.73366 0.0
O163 O 0.38145 0.59169 0.87997 0.0
O164 O 0.3735 0.72701 0.87616 0.0
C165 C 0.33972 0.65978 0.89239 0.0
O166 O 0.63512 0.52358 0.87412 0.0
O167 O 0.59763 0.39915 0.90297 0.0
C168 C 0.64893 0.6799 0.89991 0.0
C169 C 0.65315 0.45538 0.90299 0.0
loop_
_geom_bond_atom_site_label_1
_geom_bond_atom_site_label_2
_geom_bond_distance
_geom_bond_site_symmetry_2
_ccdc_geom_bond_type
P0 O11 1.490 . S
P0 C14 1.812 . S
P0 C20 1.803 1_556 S
P0 C26 1.819 . S
H1 C15 0.941 . S
H2 C16 0.939 . S
H3 C18 0.940 . S
H4 C19 0.940 . S
H5 C21 0.939 . S
H6 C22 0.942 . S
H7 C24 0.940 . S
H8 C25 0.939 . S
H9 C27 0.941 1_455 S
H10 C31 0.939 . S
O11 P0 1.490 . S
H12 C28 0.939 . S
H13 C30 0.940 1_554 S
C14 P0 1.812 . S
C14 C15 1.389 . S
C14 C19 1.391 . S
C15 H1 0.941 . S
C15 C14 1.389 . S
C15 C16 1.397 . S
C16 H2 0.939 . S
C16 C15 1.397 . S
C16 C17 1.378 . S
C17 C16 1.378 . S
C17 C18 1.378 . S
C18 H3 0.940 . S
C18 C17 1.378 . S
C18 C19 1.396 . S
C19 H4 0.940 . S
C19 C14 1.391 . S
C19 C18 1.396 . S
C20 P0 1.803 1_554 S
C20 C21 1.378 . S
C20 C25 1.400 . S
C21 H5 0.939 . S
C21 C20 1.378 . S
C21 C22 1.361 . S
C22 H6 0.942 . S
C22 C21 1.361 . S
C22 C23 1.369 . S
C23 C22 1.369 . S
C23 C24 1.404 . S
C24 H7 0.940 . S
C24 C23 1.404 . S
C24 C25 1.389 . S
C25 H8 0.939 . S
C25 C20 1.400 . S
C25 C24 1.389 . S
C26 P0 1.819 . S
C26 C27 1.391 1_455 S
C26 C31 1.391 1_456 S
C27 H9 0.941 1_655 S
C27 C26 1.391 1_655 S
C27 C28 1.396 . S
C28 H12 0.939 . S
C28 C27 1.396 . S
C28 C29 1.397 . S
C29 C28 1.397 . S
C29 C30 1.385 . S
C30 H13 0.940 1_556 S
C30 C29 1.385 . S
C30 C31 1.388 1_556 S
C31 H10 0.939 . S
C31 C26 1.391 1_654 S
C31 C30 1.388 1_554 S
P32 O43 1.490 . S
P32 C46 1.812 . S
P32 C52 1.803 . S
P32 C58 1.819 1_455 S
H33 C47 0.941 . S
H34 C48 0.939 . S
H35 C50 0.940 . S
H36 C51 0.940 . S
H37 C53 0.939 . S
H38 C54 0.942 . S
H39 C56 0.940 . S
H40 C57 0.939 . S
H41 C59 0.941 . S
H42 C63 0.939 . S
O43 P32 1.490 . S
H44 C60 0.939 . S
H45 C62 0.940 . S
C46 P32 1.812 . S
C46 C47 1.389 . S
C46 C51 1.391 1_554 S
C47 H33 0.941 . S
C47 C46 1.389 . S
C47 C48 1.397 . S
C48 H34 0.939 . S
C48 C47 1.397 . S
C48 C49 1.378 1_554 S
C49 C48 1.378 1_556 S
C49 C50 1.378 . S
C50 H35 0.940 . S
C50 C49 1.378 . S
C50 C51 1.396 . S
C51 H36 0.940 . S
C51 C46 1.391 1_556 S
C51 C50 1.396 . S
C52 P32 1.803 . S
C52 C53 1.378 1_455 S
C52 C57 1.400 . S
C53 H37 0.939 . S
C53 C52 1.378 1_655 S
C53 C54 1.361 . S
C54 H38 0.942 . S
C54 C53 1.361 . S
C54 C55 1.369 . S
C55 C54 1.369 . S
C55 C56 1.404 1_655 S
C56 H39 0.940 . S
C56 C55 1.404 1_455 S
C56 C57 1.389 . S
C57 H40 0.939 . S
C57 C52 1.400 . S
C57 C56 1.389 . S
C58 P32 1.819 1_655 S
C58 C59 1.391 . S
C58 C63 1.391 . S
C59 H41 0.941 . S
C59 C58 1.391 . S
C59 C60 1.396 1_554 S
C60 H44 0.939 . S
C60 C59 1.396 1_556 S
C60 C61 1.397 . S
C61 C60 1.397 . S
C61 C62 1.385 . S
C62 H45 0.940 . S
C62 C61 1.385 . S
C62 C63 1.388 1_556 S
C63 H42 0.939 . S
C63 C58 1.391 . S
C63 C62 1.388 1_554 S
P64 O75 1.490 . S
P64 C78 1.812 . S
P64 C84 1.803 . S
P64 C90 1.819 . S
H65 C79 0.941 . S
H66 C80 0.939 . S
H67 C82 0.940 . S
H68 C83 0.940 . S
H69 C85 0.939 . S
H70 C86 0.942 . S
H71 C88 0.940 . S
H72 C89 0.939 . S
H73 C91 0.941 . S
H74 C95 0.939 . S
O75 P64 1.490 . S
H76 C92 0.939 . S
H77 C94 0.940 . S
C78 P64 1.812 . S
C78 C79 1.389 . S
C78 C83 1.391 . S
C79 H65 0.941 . S
C79 C78 1.389 . S
C79 C80 1.397 . S
C80 H66 0.939 . S
C80 C79 1.397 . S
C80 C81 1.378 . S
C81 C80 1.378 . S
C81 C82 1.378 . S
C82 H67 0.940 . S
C82 C81 1.378 . S
C82 C83 1.396 . S
C83 H68 0.940 . S
C83 C78 1.391 . S
C83 C82 1.396 . S
C84 P64 1.803 . S
C84 C85 1.378 . S
C84 C89 1.400 . S
C85 H69 0.939 . S
C85 C84 1.378 . S
C85 C86 1.361 . S
C86 H70 0.942 . S
C86 C85 1.361 . S
C86 C87 1.369 . S
C87 C86 1.369 . S
C87 C88 1.404 . S
C88 H71 0.940 . S
C88 C87 1.404 . S
C88 C89 1.389 . S
C89 H72 0.939 . S
C89 C84 1.400 . S
C89 C88 1.389 . S
C90 P64 1.819 . S
C90 C91 1.391 . S
C90 C95 1.391 . S
C91 H73 0.941 . S
C91 C90 1.391 . S
C91 C92 1.396 . S
C92 H76 0.939 . S
C92 C91 1.396 . S
C92 C93 1.397 . S
C93 C92 1.397 . S
C93 C94 1.385 . S
C94 H77 0.940 . S
C94 C93 1.385 . S
C94 C95 1.388 . S
C95 H74 0.939 . S
C95 C90 1.391 . S
C95 C94 1.388 . S
P96 O107 1.490 . S
P96 C110 1.812 . S
P96 C116 1.803 . S
P96 C122 1.819 . S
H97 C111 0.941 . S
H98 C112 0.939 . S
H99 C114 0.940 . S
H100 C115 0.940 . S
H101 C117 0.939 . S
H102 C118 0.942 . S
H103 C120 0.940 . S
H104 C121 0.939 . S
H105 C123 0.941 . S
H106 C127 0.939 . S
O107 P96 1.490 . S
H108 C124 0.939 . S
H109 C126 0.940 . S
C110 P96 1.812 . S
C110 C111 1.389 . S
C110 C115 1.391 . S
C111 H97 0.941 . S
C111 C110 1.389 . S
C111 C112 1.397 . S
C112 H98 0.939 . S
C112 C111 1.397 . S
C112 C113 1.378 . S
C113 C112 1.378 . S
C113 C114 1.378 . S
C114 H99 0.940 . S
C114 C113 1.378 . S
C114 C115 1.396 . S
C115 H100 0.940 . S
C115 C110 1.391 . S
C115 C114 1.396 . S
C116 P96 1.803 . S
C116 C117 1.378 . S
C116 C121 1.400 . S
C117 H101 0.939 . S
C117 C116 1.378 . S
C117 C118 1.361 . S
C118 H102 0.942 . S
C118 C117 1.361 . S
C118 C119 1.369 . S
C119 C118 1.369 . S
C119 C120 1.404 . S
C120 H103 0.940 . S
C120 C119 1.404 . S
C120 C121 1.389 . S
C121 H104 0.939 . S
C121 C116 1.400 . S
C121 C120 1.389 . S
C122 P96 1.819 . S
C122 C123 1.391 . S
C122 C127 1.391 . S
C123 H105 0.941 . S
C123 C122 1.391 . S
C123 C124 1.396 . S
C124 H108 0.939 . S
C124 C123 1.396 . S
C124 C125 1.397 . S
C125 C124 1.397 . S
C125 C126 1.385 . S
C126 H109 0.940 . S
C126 C125 1.385 . S
C126 C127 1.388 . S
C127 H106 0.939 . S
C127 C122 1.391 . S
C127 C126 1.388 . S
Zn128 O134 1.920 . S
Zn128 O140 1.898 . S
Zn128 O143 1.905 1_455 S
Zn129 O137 1.905 . S
Zn129 O138 1.898 1_455 S
Zn129 O146 1.920 . S
Zn130 O133 2.080 . S
Zn130 O136 2.114 1_545 S
Zn130 O139 2.120 1_545 S
Zn130 O141 2.120 . S
Zn130 O142 2.114 1_455 S
Zn130 O145 2.080 1_545 S
C131 O136 1.166 . S
C131 O137 1.182 . S
C132 O138 1.167 . S
C132 O139 1.299 1_655 S
O133 Zn130 2.080 . S
O133 C147 1.305 . S
O134 Zn128 1.920 . S
O134 C147 1.234 . S
C135 O140 1.167 . S
C135 O141 1.299 . S
O136 Zn130 2.114 1_565 S
O136 C131 1.166 . S
O137 Zn129 1.905 . S
O137 C131 1.182 . S
O138 Zn129 1.898 1_655 S
O138 C132 1.167 . S
O139 Zn130 2.120 1_565 S
O139 C132 1.299 1_455 S
O140 Zn128 1.898 . S
O140 C135 1.167 . S
O141 Zn130 2.120 . S
O141 C135 1.299 . S
O142 Zn130 2.114 1_655 S
O142 C144 1.166 . S
O143 Zn128 1.905 1_655 S
O143 C144 1.182 . S
C144 O142 1.166 . S
C144 O143 1.182 . S
O145 Zn130 2.080 1_565 S
O145 C148 1.305 . S
O146 Zn129 1.920 . S
O146 C148 1.234 . S
C147 O133 1.305 . S
C147 O134 1.234 . S
C148 O145 1.305 . S
C148 O146 1.234 . S
Zn149 O155 1.920 . S
Zn149 O161 1.898 . S
Zn149 O164 1.905 . S
Zn150 O158 1.905 . S
Zn150 O159 1.898 . S
Zn150 O167 1.920 . S
Zn151 O154 2.080 . S
Zn151 O157 2.114 . S
Zn151 O160 2.120 . S
Zn151 O162 2.120 . S
Zn151 O163 2.114 . S
Zn151 O166 2.080 . S
C152 O157 1.166 . S
C152 O158 1.182 . S
C153 O159 1.167 . S
C153 O160 1.299 . S
O154 Zn151 2.080 . S
O154 C168 1.305 . S
O155 Zn149 1.920 . S
O155 C168 1.234 . S
C156 O161 1.167 . S
C156 O162 1.299 . S
O157 Zn151 2.114 . S
O157 C152 1.166 . S
O158 Zn150 1.905 . S
O158 C152 1.182 . S
O159 Zn150 1.898 . S
O159 C153 1.167 . S
O160 Zn151 2.120 . S
O160 C153 1.299 . S
O161 Zn149 1.898 . S
O161 C156 1.167 . S
O162 Zn151 2.120 . S
O162 C156 1.299 . S
O163 Zn151 2.114 . S
O163 C165 1.166 . S
O164 Zn149 1.905 . S
O164 C165 1.182 . S
C165 O163 1.166 . S
C165 O164 1.182 . S
O166 Zn151 2.080 . S
O166 C169 1.305 . S
O167 Zn150 1.920 . S
O167 C169 1.234 . S
C168 O154 1.305 . S
C168 O155 1.234 . S
C169 O166 1.305 . S
C169 O167 1.234 . S
C135 C23 1.933 . S
C131 C55 1.528 1_455 S
C156 C87 1.934 . S
C119 C152 1.528 . S
C17 C153 1.312 . S
C168 C61 1.035 . S
C29 C169 1.516 . S
C165 C49 1.572 . S
C132 C81 1.312 . S
C125 C147 1.035 . S
C148 C93 1.516 . S
C144 C113 1.572 . S
