# Generated by pormake.
# Topology rtl, (3,6)-cn, num edge types: 1
# Building blocks:
#     Node 0, Type 0, BuildingBlock: INOVEN_clean_linker_0, # of connection points: 3
#     Node 1, Type 0, BuildingBlock: INOVEN_clean_linker_0, # of connection points: 3
#     Node 2, Type 0, BuildingBlock: INOVEN_clean_linker_0, # of connection points: 3
#     Node 3, Type 0, BuildingBlock: INOVEN_clean_linker_0, # of connection points: 3
#     Node 4, Type 1, BuildingBlock: KUMJIN_clean_sbu_1, # of connection points: 6
#     Node 5, Type 1, BuildingBlock: KUMJIN_clean_sbu_1, # of connection points: 6
#     Edge 6, Type (0, 1), None
#     Edge 7, Type (0, 1), None
#     Edge 8, Type (0, 1), None
#     Edge 9, Type (0, 1), None
#     Edge 10, Type (0, 1), None
#     Edge 11, Type (0, 1), None
#     Edge 12, Type (0, 1), None
#     Edge 13, Type (0, 1), None
#     Edge 14, Type (0, 1), None
#     Edge 15, Type (0, 1), None
#     Edge 16, Type (0, 1), None
#     Edge 17, Type (0, 1), None
# Relax obj value: 0.052
# Max RMSD: 0.290
# Mean RMSD: 0.196
data_MOF--net-rtl--node1-KUMJIN_clean_sbu_1--node2-INOVEN_clean_linker_0--edge1-none
_symmetry_space_group_name_H-M    P1
_symmetry_Int_Tables_number       1
_symmetry_cell_setting            triclinic
loop_
_symmetry_equiv_pos_as_xyz
'x, y, z'
_cell_length_a     15.811318
_cell_length_b     16.669133
_cell_length_c     14.242094
_cell_angle_alpha  67.017667
_cell_angle_beta   96.271798
_cell_angle_gamma 92.778828
loop_
_atom_site_label
_atom_site_type_symbol
_atom_site_fract_x
_atom_site_fract_y
_atom_site_fract_z
_atom_type_partial_charge
H0 H 0.23338 0.83706 0.80864 0.0
H1 H 0.04642 0.94309 0.92028 0.0
H2 H 0.23098 0.76127 0.13167 0.0
N3 N 0.30384 0.73144 0.97899 0.0
N4 N 0.34369 0.68744 0.06225 0.0
C5 C 0.20398 0.84022 0.87084 0.0
C6 C 0.13558 0.89563 0.85166 0.0
C7 C 0.2378 0.79002 0.96978 0.0
C8 C 0.20537 0.79955 0.05391 0.0
C9 C 0.13678 0.85708 0.03597 0.0
C10 C 0.10179 0.90309 0.93451 0.0
H11 H 0.69705 0.77003 0.84691 0.0
H12 H 0.5922 0.5468 0.79738 0.0
H13 H 0.77001 0.7134 0.59848 0.0
N14 N 0.79905 0.82247 0.69709 0.0
N15 N 0.84702 0.83908 0.62745 0.0
C16 C 0.69325 0.72856 0.80495 0.0
C17 C 0.6402 0.65425 0.83398 0.0
C18 C 0.74123 0.75014 0.72076 0.0
C19 C 0.73275 0.69805 0.66279 0.0
C20 C 0.67722 0.62578 0.68785 0.0
C21 C 0.63281 0.60372 0.77489 0.0
H22 H 0.81825 0.25678 -0.00044 0.0
H23 H 0.97764 0.06909 0.23963 0.0
H24 H 0.81389 0.22953 0.31214 0.0
N25 N 0.74107 0.31512 0.11605 0.0
N26 N 0.71531 0.34725 0.17353 0.0
C27 C 0.83937 0.22435 0.08031 0.0
C28 C 0.90337 0.16088 0.11223 0.0
C29 C 0.8055 0.24942 0.1519 0.0
C30 C 0.83744 0.20963 0.25677 0.0
C31 C 0.89896 0.14294 0.28945 0.0
C32 C 0.92958 0.11883 0.21625 0.0
H33 H 0.354 0.2967 0.31488 0.0
H34 H 0.47609 0.49854 0.39504 0.0
H35 H 0.28167 0.33995 0.57319 0.0
N36 N 0.24836 0.24324 0.45517 0.0
N37 N 0.20486 0.21477 0.52936 0.0
C38 C 0.36167 0.33234 0.364 0.0
C39 C 0.42218 0.39935 0.34687 0.0
C40 C 0.31052 0.31026 0.44463 0.0
C41 C 0.32141 0.35571 0.51096 0.0
C42 C 0.38197 0.42394 0.49395 0.0
C43 C 0.43157 0.44465 0.41152 0.0
Eu44 Eu 0.09434 0.96704 0.50389 0.0
C45 C 0.91858 0.29616 0.5157 0.0
N46 N 0.98578 0.24812 0.57583 0.0
C47 C 0.06115 0.37793 0.57041 0.0
C48 C 0.9216 0.38789 0.47876 0.0
C49 C 0.0547 0.28715 0.60752 0.0
C50 C 0.99474 0.42861 0.50465 0.0
C51 C 0.77161 0.30182 0.44241 0.0
C52 C 0.84401 0.25344 0.49681 0.0
C53 C 0.77627 0.39275 0.40308 0.0
C54 C 0.85059 0.43595 0.42044 0.0
Eu55 Eu 0.96481 0.09657 0.63267 0.0
N56 N 0.84183 0.16471 0.53313 0.0
C57 C 0.69649 0.25731 0.42943 0.0
C58 C 0.76905 0.12046 0.5226 0.0
C59 C 0.69522 0.16622 0.46989 0.0
H60 H 0.10424 0.24865 0.66291 0.0
H61 H 0.63738 0.13136 0.46084 0.0
H62 H 1.01565 0.76251 0.60255 0.0
H63 H 0.4246 0.08307 0.51598 0.0
H64 H 0.76793 0.05008 0.55547 0.0
H65 H 0.63917 0.29254 0.38866 0.0
H66 H 0.27331 0.09354 0.45255 0.0
H67 H 0.11656 0.4087 0.59413 0.0
H68 H 0.722 0.43009 0.36034 0.0
H69 H 0.85181 0.5065 0.39071 0.0
H70 H 0.06767 0.61558 0.71527 0.0
H71 H 0.99924 0.49899 0.47736 0.0
H72 H 0.4825 0.94383 0.64537 0.0
N73 N 0.13605 0.8239 0.60986 0.0
C74 C 0.22013 0.81348 0.64402 0.0
C75 C 0.11094 0.67072 0.69643 0.0
C76 C 0.25199 0.73062 0.70941 0.0
C77 C 0.08159 0.7541 0.63319 0.0
C78 C 0.19637 0.65899 0.7353 0.0
N79 N 0.24168 0.96657 0.55624 0.0
C80 C 0.29572 0.03476 0.5145 0.0
C81 C 0.36116 0.87651 0.65392 0.0
C82 C 0.27384 0.88659 0.61796 0.0
C83 C 0.41511 0.94904 0.61986 0.0
C84 C 0.38256 0.02796 0.54775 0.0
H85 H 0.21876 0.59435 0.78499 0.0
H86 H 0.36146 0.65966 0.80298 0.0
H87 H 0.45863 0.78585 0.75129 0.0
O88 O 0.12033 1.01306 0.34189 0.0
O89 O 0.09369 0.90904 0.67835 0.0
O90 O 0.08644 0.02918 0.71766 0.0
O91 O 0.12527 0.87712 0.43578 0.0
O92 O 0.13001 0.11007 0.47445 0.0
O93 O 0.10598 0.11883 0.62607 0.0
O94 O 0.91935 0.02709 0.78404 0.0
O95 O 0.94452 0.14152 0.45824 0.0
O96 O 0.96451 1.01904 0.42634 0.0
O97 O 0.9185 0.1668 0.71683 0.0
O98 O 0.90515 0.96515 0.64787 0.0
O99 O 0.96049 0.91266 0.53635 0.0
C100 C 0.10003 0.9459 0.74533 0.0
C101 C 0.08815 0.91159 0.26232 0.0
C102 C 0.09371 0.86473 0.12019 0.0
C103 C 1.00614 0.8472 0.12214 0.0
C104 C 1.00049 0.89399 0.26143 0.0
C105 C 0.95976 0.86199 0.19145 0.0
C106 C 0.13511 0.89673 0.19157 0.0
C107 C 0.14363 0.14707 0.54166 0.0
C108 C 0.13151 0.93524 0.34475 0.0
C109 C 0.33746 0.72213 0.74953 0.0
C110 C 0.39222 0.79436 0.72117 0.0
C111 C 0.93624 0.09879 0.39745 0.0
C112 C 0.9531 0.10561 0.89032 0.0
C113 C 0.94987 0.14214 0.03873 0.0
C114 C 0.03947 0.14153 0.05105 0.0
C115 C 0.04241 0.10879 0.90142 0.0
C116 C 0.90674 0.12334 0.95832 0.0
C117 C 0.08536 0.12489 -0.01719 0.0
C118 C 0.90721 0.90856 0.60395 0.0
C119 C 0.90909 0.09837 0.79854 0.0
H120 H 0.97381 0.82246 0.06878 0.0
H121 H 0.96396 0.90323 0.31649 0.0
H122 H 0.89216 0.84802 0.19124 0.0
H123 H 0.20282 0.91045 0.19168 0.0
H124 H 0.07405 0.15528 0.11277 0.0
H125 H 0.07895 0.1003 0.84614 0.0
H126 H 0.83776 0.12369 0.94786 0.0
H127 H 0.15422 0.12623 -0.00812 0.0
Eu128 Eu 0.46097 0.47073 0.00834 0.0
C129 C 0.74878 0.71681 0.05479 0.0
N130 N 0.74005 0.63054 0.1136 0.0
C131 C 0.88233 0.60313 0.09195 0.0
C132 C 0.8248 0.74897 0.00948 0.0
C133 C 0.80571 0.574 0.13502 0.0
C134 C 0.89149 0.69064 0.02773 0.0
C135 C 0.68683 0.86131 0.97243 0.0
C136 C 0.67901 0.77167 0.03344 0.0
C137 C 0.76313 0.8938 0.92881 0.0
C138 C 0.8311 0.83749 0.94541 0.0
Eu139 Eu 0.60607 0.58663 0.17399 0.0
N140 N 0.60369 0.73764 0.07098 0.0
C141 C 0.61736 0.91564 0.95598 0.0
C142 C 0.53818 0.79159 0.06136 0.0
C143 C 0.54325 0.88082 0.00206 0.0
H144 H 0.79824 0.50622 0.18379 0.0
H145 H 0.49044 0.92294 -0.00667 0.0
H146 H 0.26846 0.56025 0.9771 0.0
H147 H 0.55536 0.12704 0.1915 0.0
H148 H 0.48299 0.76739 0.10219 0.0
H149 H 0.62097 0.98479 0.90978 0.0
H150 H 0.57397 0.28215 0.08795 0.0
H151 H 0.93395 0.55798 0.10746 0.0
H152 H 0.76956 0.96213 0.88053 0.0
H153 H 0.88845 0.86297 0.90843 0.0
H154 H 0.12473 0.51447 0.03085 0.0
H155 H 0.95049 0.7126 -0.00696 0.0
H156 H 0.41686 0.07185 0.25775 0.0
N157 N 0.32055 0.43314 0.05231 0.0
C158 C 0.30521 0.34711 0.10632 0.0
C159 C 0.17506 0.4669 0.05328 0.0
C160 C 0.22405 0.31825 0.13903 0.0
C161 C 0.25675 0.49278 0.02372 0.0
C162 C 0.15877 0.3794 0.11193 0.0
N163 N 0.45115 0.31851 0.10541 0.0
C164 C 0.51503 0.26097 0.12133 0.0
C165 C 0.35791 0.19896 0.19068 0.0
C166 C 0.37222 0.28838 0.13355 0.0
C167 C 0.42532 0.14091 0.21397 0.0
C168 C 0.5038 0.17192 0.17765 0.0
H169 H 0.09556 0.35966 0.13546 0.0
H170 H 0.14976 0.20708 0.2275 0.0
H171 H 0.26563 0.10201 0.26815 0.0
O172 O 0.49149 0.42299 0.89253 0.0
O173 O 0.4239 0.44474 0.16683 0.0
O174 O 0.54848 0.45437 0.26241 0.0
O175 O 0.36854 0.47815 0.87982 0.0
O176 O 0.60311 0.43134 0.05265 0.0
O177 O 0.63821 0.44714 0.2066 0.0
O178 O 0.57962 0.63808 0.28754 0.0
O179 O 0.64212 0.60074 0.01707 0.0
O180 O 0.51491 0.60494 0.92301 0.0
O181 O 0.70251 0.58389 0.29709 0.0
O182 O 0.46485 0.61078 0.15084 0.0
O183 O 0.42038 0.60657 -0.00735 0.0
C184 C 0.46853 0.42983 0.25494 0.0
C185 C 0.41767 0.48588 0.7265 0.0
C186 C 0.39391 0.47627 0.55876 0.0
C187 C 0.40787 0.56698 0.51263 0.0
C188 C 0.43447 0.57521 0.6787 0.0
C189 C 0.42871 0.61567 0.57233 0.0
C190 C 0.39762 0.43635 0.66642 0.0
C191 C 0.65068 0.41197 0.14135 0.0
C192 C 0.4181 0.44417 0.83854 0.0
C193 C 0.21091 0.22988 0.19904 0.0
C194 C 0.27718 0.17024 0.22332 0.0
C195 C 0.59588 0.62518 0.9285 0.0
C196 C 0.65085 0.56874 0.45259 0.0
C197 C 0.66462 0.57427 0.62235 0.0
C198 C 0.65016 0.48363 0.66557 0.0
C199 C 0.63424 0.47898 0.49702 0.0
C200 C 0.66471 0.61612 0.5152 0.0
C201 C 0.63435 0.4367 0.60298 0.0
C202 C 0.411 0.63157 0.06865 0.0
C203 C 0.65272 0.61486 0.34126 0.0
H204 H 0.40373 0.6004 0.43005 0.0
H205 H 0.45262 0.61357 0.72364 0.0
H206 H 0.44103 0.68492 0.53602 0.0
H207 H 0.3869 0.36678 0.70355 0.0
H208 H 0.65113 0.4487 0.74766 0.0
H209 H 0.61971 0.44162 0.45011 0.0
H210 H 0.67396 0.68603 0.4797 0.0
H211 H 0.62187 0.36732 0.63669 0.0
loop_
_geom_bond_atom_site_label_1
_geom_bond_atom_site_label_2
_geom_bond_distance
_geom_bond_site_symmetry_2
_ccdc_geom_bond_type
H0 C5 0.929 . S
H1 C10 0.931 . S
H2 C8 0.930 . S
N3 N4 1.234 . S
N3 C7 1.453 . S
N4 N3 1.234 . S
C5 H0 0.929 . S
C5 C6 1.373 . S
C5 C7 1.368 1_556 S
C6 C5 1.373 . S
C6 C10 1.397 . S
C7 N3 1.453 . S
C7 C5 1.368 1_554 S
C7 C8 1.373 . S
C8 H2 0.930 . S
C8 C7 1.373 . S
C8 C9 1.371 . S
C9 C8 1.371 . S
C9 C10 1.383 1_554 S
C10 H1 0.931 . S
C10 C6 1.397 . S
C10 C9 1.383 1_556 S
H11 C16 0.929 . S
H12 C21 0.931 . S
H13 C19 0.930 . S
N14 N15 1.234 . S
N14 C18 1.453 . S
N15 N14 1.234 . S
C16 H11 0.929 . S
C16 C17 1.373 . S
C16 C18 1.368 . S
C17 C16 1.373 . S
C17 C21 1.397 . S
C18 N14 1.453 . S
C18 C16 1.368 . S
C18 C19 1.373 . S
C19 H13 0.930 . S
C19 C18 1.373 . S
C19 C20 1.371 . S
C20 C19 1.371 . S
C20 C21 1.383 . S
C21 H12 0.931 . S
C21 C17 1.397 . S
C21 C20 1.383 . S
H22 C27 0.929 1_556 S
H23 C32 0.931 . S
H24 C30 0.930 . S
N25 N26 1.234 . S
N25 C29 1.453 . S
N26 N25 1.234 . S
C27 H22 0.929 1_554 S
C27 C28 1.373 . S
C27 C29 1.368 . S
C28 C27 1.373 . S
C28 C32 1.397 . S
C29 N25 1.453 . S
C29 C27 1.368 . S
C29 C30 1.373 . S
C30 H24 0.930 . S
C30 C29 1.373 . S
C30 C31 1.371 . S
C31 C30 1.371 . S
C31 C32 1.383 . S
C32 H23 0.931 . S
C32 C28 1.397 . S
C32 C31 1.383 . S
H33 C38 0.929 . S
H34 C43 0.931 . S
H35 C41 0.930 . S
N36 N37 1.234 . S
N36 C40 1.453 . S
N37 N36 1.234 . S
C38 H33 0.929 . S
C38 C39 1.373 . S
C38 C40 1.368 . S
C39 C38 1.373 . S
C39 C43 1.397 . S
C40 N36 1.453 . S
C40 C38 1.368 . S
C40 C41 1.373 . S
C41 H35 0.930 . S
C41 C40 1.373 . S
C41 C42 1.371 . S
C42 C41 1.371 . S
C42 C43 1.383 . S
C43 H34 0.931 . S
C43 C39 1.397 . S
C43 C42 1.383 . S
Eu44 N73 2.600 . S
Eu44 N79 2.562 . S
Eu44 O88 2.462 . S
Eu44 O89 2.373 . S
Eu44 O91 2.432 . S
Eu44 O92 2.291 1_565 S
Eu44 O96 2.335 1_465 S
Eu44 O99 2.372 1_455 S
Eu44 C108 2.787 . S
C45 N46 1.365 . S
C45 C48 1.405 . S
C45 C52 1.448 . S
N46 C45 1.365 . S
N46 C49 1.319 1_655 S
N46 Eu55 2.600 . S
C47 C49 1.397 . S
C47 C50 1.367 1_455 S
C47 H67 0.931 . S
C48 C45 1.405 . S
C48 C50 1.403 . S
C48 C54 1.439 . S
C49 N46 1.319 1_455 S
C49 C47 1.397 . S
C49 H60 0.930 . S
C50 C47 1.367 1_655 S
C50 C48 1.403 . S
C50 H71 0.929 . S
C51 C52 1.430 . S
C51 C53 1.387 . S
C51 C57 1.404 . S
C52 C45 1.448 . S
C52 C51 1.430 . S
C52 N56 1.351 . S
C53 C51 1.387 . S
C53 C54 1.374 . S
C53 H68 0.931 . S
C54 C48 1.439 . S
C54 C53 1.374 . S
C54 H69 0.931 . S
Eu55 N46 2.600 . S
Eu55 N56 2.562 . S
Eu55 O90 2.335 1_655 S
Eu55 O93 2.372 1_655 S
Eu55 O94 2.462 . S
Eu55 O95 2.373 . S
Eu55 O97 2.432 . S
Eu55 O98 2.291 1_545 S
Eu55 C119 2.787 . S
N56 C52 1.351 . S
N56 Eu55 2.562 . S
N56 C58 1.325 . S
C57 C51 1.404 . S
C57 C59 1.366 . S
C57 H65 0.930 . S
C58 N56 1.325 . S
C58 C59 1.416 . S
C58 H64 0.929 . S
C59 C57 1.366 . S
C59 C58 1.416 . S
C59 H61 0.930 . S
H60 C49 0.930 . S
H61 C59 0.930 . S
H62 C77 0.930 1_655 S
H63 C84 0.930 . S
H64 C58 0.929 . S
H65 C57 0.930 . S
H66 C80 0.929 . S
H67 C47 0.931 . S
H68 C53 0.931 . S
H69 C54 0.931 . S
H70 C75 0.931 1_655 S
H71 C50 0.929 . S
H72 C83 0.930 . S
N73 Eu44 2.600 . S
N73 C74 1.365 . S
N73 C77 1.319 . S
C74 N73 1.365 . S
C74 C76 1.405 . S
C74 C82 1.448 . S
C75 H70 0.931 1_455 S
C75 C77 1.397 . S
C75 C78 1.367 . S
C76 C74 1.405 . S
C76 C78 1.403 . S
C76 C109 1.439 . S
C77 H62 0.930 1_455 S
C77 N73 1.319 . S
C77 C75 1.397 . S
C78 C75 1.367 . S
C78 C76 1.403 . S
C78 H85 0.929 . S
N79 Eu44 2.562 . S
N79 C80 1.325 . S
N79 C82 1.351 . S
C80 H66 0.929 . S
C80 N79 1.325 . S
C80 C84 1.416 . S
C81 C82 1.430 . S
C81 C83 1.404 . S
C81 C110 1.387 . S
C82 C74 1.448 . S
C82 N79 1.351 . S
C82 C81 1.430 . S
C83 H72 0.930 . S
C83 C81 1.404 . S
C83 C84 1.366 . S
C84 H63 0.930 . S
C84 C80 1.416 . S
C84 C83 1.366 . S
H85 C78 0.929 . S
H86 C109 0.931 . S
H87 C110 0.931 . S
O88 Eu44 2.462 . S
O88 C108 1.252 . S
O89 Eu44 2.373 . S
O89 C100 1.249 . S
O90 Eu55 2.335 1_455 S
O90 C100 1.264 1_545 S
O91 Eu44 2.432 . S
O91 C108 1.268 . S
O92 Eu44 2.291 1_545 S
O92 C107 1.255 . S
O93 Eu55 2.372 1_455 S
O93 C107 1.257 . S
O94 Eu55 2.462 . S
O94 C119 1.252 . S
O95 Eu55 2.373 . S
O95 C111 1.249 . S
O96 Eu44 2.335 1_645 S
O96 C111 1.264 . S
O97 Eu55 2.432 . S
O97 C119 1.268 . S
O98 Eu55 2.291 1_565 S
O98 C118 1.255 . S
O99 Eu44 2.372 1_655 S
O99 C118 1.257 . S
C100 O89 1.249 . S
C100 O90 1.264 1_565 S
C101 C104 1.382 . S
C101 C106 1.390 . S
C101 C108 1.506 . S
C102 C103 1.398 . S
C102 C106 1.392 . S
C103 C102 1.398 . S
C103 C105 1.372 . S
C103 H120 0.931 . S
C104 C101 1.382 . S
C104 C105 1.390 . S
C104 H121 0.931 . S
C105 C103 1.372 . S
C105 C104 1.390 . S
C105 H122 0.929 . S
C106 C101 1.390 . S
C106 C102 1.392 . S
C106 H123 0.930 . S
C107 O92 1.255 . S
C107 O93 1.257 . S
C108 Eu44 2.787 . S
C108 O88 1.252 . S
C108 O91 1.268 . S
C108 C101 1.506 . S
C109 C76 1.439 . S
C109 H86 0.931 . S
C109 C110 1.374 . S
C110 C81 1.387 . S
C110 H87 0.931 . S
C110 C109 1.374 . S
C111 O95 1.249 . S
C111 O96 1.264 . S
C112 C115 1.382 . S
C112 C116 1.390 . S
C112 C119 1.506 . S
C113 C114 1.398 . S
C113 C116 1.392 1_554 S
C114 C113 1.398 . S
C114 C117 1.372 . S
C114 H124 0.931 . S
C115 C112 1.382 . S
C115 C117 1.390 1_556 S
C115 H125 0.931 . S
C116 C112 1.390 . S
C116 C113 1.392 1_556 S
C116 H126 0.930 . S
C117 C114 1.372 . S
C117 C115 1.390 1_554 S
C117 H127 0.929 . S
C118 O98 1.255 . S
C118 O99 1.257 . S
C119 Eu55 2.787 . S
C119 O94 1.252 . S
C119 O97 1.268 . S
C119 C112 1.506 . S
H120 C103 0.931 . S
H121 C104 0.931 . S
H122 C105 0.929 . S
H123 C106 0.930 . S
H124 C114 0.931 . S
H125 C115 0.931 . S
H126 C116 0.930 . S
H127 C117 0.929 . S
Eu128 N157 2.600 1_554 S
Eu128 N163 2.562 . S
Eu128 O172 2.462 1_554 S
Eu128 O173 2.373 . S
Eu128 O175 2.432 1_554 S
Eu128 O176 2.291 . S
Eu128 O180 2.335 1_554 S
Eu128 O183 2.372 1_554 S
Eu128 C192 2.787 1_554 S
C129 N130 1.365 . S
C129 C132 1.405 . S
C129 C136 1.448 . S
N130 C129 1.365 . S
N130 C133 1.319 . S
N130 Eu139 2.600 . S
C131 C133 1.397 . S
C131 C134 1.367 . S
C131 H151 0.931 . S
C132 C129 1.405 . S
C132 C134 1.403 . S
C132 C138 1.439 . S
C133 N130 1.319 . S
C133 C131 1.397 . S
C133 H144 0.930 . S
C134 C131 1.367 . S
C134 C132 1.403 . S
C134 H155 0.929 . S
C135 C136 1.430 . S
C135 C137 1.387 . S
C135 C141 1.404 . S
C136 C129 1.448 . S
C136 C135 1.430 . S
C136 N140 1.351 . S
C137 C135 1.387 . S
C137 C138 1.374 . S
C137 H152 0.931 . S
C138 C132 1.439 . S
C138 C137 1.374 . S
C138 H153 0.931 . S
Eu139 N130 2.600 . S
Eu139 N140 2.562 . S
Eu139 O174 2.335 . S
Eu139 O177 2.372 . S
Eu139 O178 2.462 . S
Eu139 O179 2.373 . S
Eu139 O181 2.432 . S
Eu139 O182 2.291 . S
Eu139 C203 2.787 . S
N140 C136 1.351 . S
N140 Eu139 2.562 . S
N140 C142 1.325 . S
C141 C135 1.404 . S
C141 C143 1.366 . S
C141 H149 0.930 . S
C142 N140 1.325 . S
C142 C143 1.416 . S
C142 H148 0.929 . S
C143 C141 1.366 . S
C143 C142 1.416 . S
C143 H145 0.930 . S
H144 C133 0.930 . S
H145 C143 0.930 . S
H146 C161 0.930 . S
H147 C168 0.930 . S
H148 C142 0.929 . S
H149 C141 0.930 . S
H150 C164 0.929 . S
H151 C131 0.931 . S
H152 C137 0.931 . S
H153 C138 0.931 . S
H154 C159 0.931 . S
H155 C134 0.929 . S
H156 C167 0.930 . S
N157 Eu128 2.600 1_556 S
N157 C158 1.365 1_556 S
N157 C161 1.319 . S
C158 N157 1.365 1_554 S
C158 C160 1.405 . S
C158 C166 1.448 . S
C159 H154 0.931 . S
C159 C161 1.397 . S
C159 C162 1.367 1_556 S
C160 C158 1.405 . S
C160 C162 1.403 . S
C160 C193 1.439 . S
C161 H146 0.930 . S
C161 N157 1.319 . S
C161 C159 1.397 . S
C162 C159 1.367 1_554 S
C162 C160 1.403 . S
C162 H169 0.929 . S
N163 Eu128 2.562 . S
N163 C164 1.325 . S
N163 C166 1.351 . S
C164 H150 0.929 . S
C164 N163 1.325 . S
C164 C168 1.416 . S
C165 C166 1.430 . S
C165 C167 1.404 . S
C165 C194 1.387 . S
C166 C158 1.448 . S
C166 N163 1.351 . S
C166 C165 1.430 . S
C167 H156 0.930 . S
C167 C165 1.404 . S
C167 C168 1.366 . S
C168 H147 0.930 . S
C168 C164 1.416 . S
C168 C167 1.366 . S
H169 C162 0.929 . S
H170 C193 0.931 . S
H171 C194 0.931 . S
O172 Eu128 2.462 1_556 S
O172 C192 1.252 . S
O173 Eu128 2.373 . S
O173 C184 1.249 . S
O174 Eu139 2.335 . S
O174 C184 1.264 . S
O175 Eu128 2.432 1_556 S
O175 C192 1.268 . S
O176 Eu128 2.291 . S
O176 C191 1.255 . S
O177 Eu139 2.372 . S
O177 C191 1.257 . S
O178 Eu139 2.462 . S
O178 C203 1.252 . S
O179 Eu139 2.373 . S
O179 C195 1.249 1_554 S
O180 Eu128 2.335 1_556 S
O180 C195 1.264 . S
O181 Eu139 2.432 . S
O181 C203 1.268 . S
O182 Eu139 2.291 . S
O182 C202 1.255 . S
O183 Eu128 2.372 1_556 S
O183 C202 1.257 1_556 S
C184 O173 1.249 . S
C184 O174 1.264 . S
C185 C188 1.382 . S
C185 C190 1.390 . S
C185 C192 1.506 . S
C186 C187 1.398 . S
C186 C190 1.392 . S
C187 C186 1.398 . S
C187 C189 1.372 . S
C187 H204 0.931 . S
C188 C185 1.382 . S
C188 C189 1.390 . S
C188 H205 0.931 . S
C189 C187 1.372 . S
C189 C188 1.390 . S
C189 H206 0.929 . S
C190 C185 1.390 . S
C190 C186 1.392 . S
C190 H207 0.930 . S
C191 O176 1.255 . S
C191 O177 1.257 . S
C192 Eu128 2.787 1_556 S
C192 O172 1.252 . S
C192 O175 1.268 . S
C192 C185 1.506 . S
C193 C160 1.439 . S
C193 H170 0.931 . S
C193 C194 1.374 . S
C194 C165 1.387 . S
C194 H171 0.931 . S
C194 C193 1.374 . S
C195 O179 1.249 1_556 S
C195 O180 1.264 . S
C196 C199 1.382 . S
C196 C200 1.390 . S
C196 C203 1.506 . S
C197 C198 1.398 . S
C197 C200 1.392 . S
C198 C197 1.398 . S
C198 C201 1.372 . S
C198 H208 0.931 . S
C199 C196 1.382 . S
C199 C201 1.390 . S
C199 H209 0.931 . S
C200 C196 1.390 . S
C200 C197 1.392 . S
C200 H210 0.930 . S
C201 C198 1.372 . S
C201 C199 1.390 . S
C201 H211 0.929 . S
C202 O182 1.255 . S
C202 O183 1.257 1_554 S
C203 Eu139 2.787 . S
C203 O178 1.252 . S
C203 O181 1.268 . S
C203 C196 1.506 . S
H204 C187 0.931 . S
H205 C188 0.931 . S
H206 C189 0.929 . S
H207 C190 0.930 . S
H208 C198 0.931 . S
H209 C199 0.931 . S
H210 C200 0.930 . S
H211 C201 0.929 . S
C107 N37 1.692 . S
N4 C202 1.881 . S
N15 C118 1.710 . S
N26 C191 1.652 . S
C102 C9 1.349 . S
C195 C17 1.847 . S
C31 C111 1.819 . S
C42 C186 1.447 . S
C197 C20 1.414 . S
C113 C28 1.242 . S
C184 C39 1.682 . S
C6 C100 1.725 . S
