# Generated by pormake.
# Topology pyr, (3,6)-cn, num edge types: 1
# Building blocks:
#     Node 0, Type 0, BuildingBlock: ESEHIV_clean_linker_0, # of connection points: 3
#     Node 1, Type 0, BuildingBlock: ESEHIV_clean_linker_0, # of connection points: 3
#     Node 2, Type 0, BuildingBlock: ESEHIV_clean_linker_0, # of connection points: 3
#     Node 3, Type 0, BuildingBlock: ESEHIV_clean_linker_0, # of connection points: 3
#     Node 4, Type 0, BuildingBlock: ESEHIV_clean_linker_0, # of connection points: 3
#     Node 5, Type 0, BuildingBlock: ESEHIV_clean_linker_0, # of connection points: 3
#     Node 6, Type 0, BuildingBlock: ESEHIV_clean_linker_0, # of connection points: 3
#     Node 7, Type 0, BuildingBlock: ESEHIV_clean_linker_0, # of connection points: 3
#     Node 8, Type 1, BuildingBlock: INOVEN_clean_sbu_0, # of connection points: 6
#     Node 9, Type 1, BuildingBlock: INOVEN_clean_sbu_0, # of connection points: 6
#     Node 10, Type 1, BuildingBlock: INOVEN_clean_sbu_0, # of connection points: 6
#     Node 11, Type 1, BuildingBlock: INOVEN_clean_sbu_0, # of connection points: 6
#     Edge 12, Type (0, 1), None
#     Edge 13, Type (0, 1), None
#     Edge 14, Type (0, 1), None
#     Edge 15, Type (0, 1), None
#     Edge 16, Type (0, 1), None
#     Edge 17, Type (0, 1), None
#     Edge 18, Type (0, 1), None
#     Edge 19, Type (0, 1), None
#     Edge 20, Type (0, 1), None
#     Edge 21, Type (0, 1), None
#     Edge 22, Type (0, 1), None
#     Edge 23, Type (0, 1), None
#     Edge 24, Type (0, 1), None
#     Edge 25, Type (0, 1), None
#     Edge 26, Type (0, 1), None
#     Edge 27, Type (0, 1), None
#     Edge 28, Type (0, 1), None
#     Edge 29, Type (0, 1), None
#     Edge 30, Type (0, 1), None
#     Edge 31, Type (0, 1), None
#     Edge 32, Type (0, 1), None
#     Edge 33, Type (0, 1), None
#     Edge 34, Type (0, 1), None
#     Edge 35, Type (0, 1), None
# Relax obj value: 0.488
# Max RMSD: 0.226
# Mean RMSD: 0.110
data_MOF--net-pyr--node1-INOVEN_clean_sbu_0--node2-ESEHIV_clean_linker_0--edge1-none
_symmetry_space_group_name_H-M    P1
_symmetry_Int_Tables_number       1
_symmetry_cell_setting            triclinic
loop_
_symmetry_equiv_pos_as_xyz
'x, y, z'
_cell_length_a     15.258973
_cell_length_b     15.955071
_cell_length_c     14.0803
_cell_angle_alpha  88.241953
_cell_angle_beta   87.578379
_cell_angle_gamma 103.35827
loop_
_atom_site_label
_atom_site_type_symbol
_atom_site_fract_x
_atom_site_fract_y
_atom_site_fract_z
_atom_type_partial_charge
H0 H 0.35655 0.30734 0.54805 0.0
H1 H 0.60589 0.23343 0.49393 0.0
H2 H 0.49264 0.35631 0.27174 0.0
C3 C 0.41596 0.31147 0.50169 0.0
C4 C 0.42026 0.34854 0.4088 0.0
C5 C 0.48381 0.27157 0.53258 0.0
C6 C 0.55702 0.26905 0.47177 0.0
C7 C 0.55444 0.29086 0.37664 0.0
C8 C 0.49192 0.33835 0.34655 0.0
H9 H 0.9746 1.02755 0.9755 0.0
H10 H 0.20944 0.93808 1.04683 0.0
H11 H 0.07703 0.85818 0.79171 0.0
C12 C 1.02057 0.98613 0.96159 0.0
C13 C 1.02112 0.94804 0.8745 0.0
C14 C 0.08661 0.98026 1.02526 0.0
C15 C 0.15296 0.93433 1.0018 0.0
C16 C 0.14994 0.88832 0.91813 0.0
C17 C 0.08024 0.89233 0.85715 0.0
H18 H 0.75975 0.3614 1.11418 0.0
H19 H 0.77942 0.59449 0.94135 0.0
H20 H 0.56472 0.37017 0.90198 0.0
C21 C 0.73498 0.39605 1.05772 0.0
C22 C 0.65546 0.35485 1.01346 0.0
C23 C 0.78161 0.48192 1.03316 0.0
C24 C 0.74524 0.52833 0.95994 0.0
C25 C 0.6674 0.48953 0.90813 0.0
C26 C 0.62462 0.40161 0.93709 0.0
H27 H 0.80615 0.86609 0.61045 0.0
H28 H 1.02676 0.86632 0.40945 0.0
H29 H 0.80732 0.63819 0.45138 0.0
C30 C 0.83709 0.83398 0.55613 0.0
C31 C 0.79466 0.74741 0.5381 0.0
C32 C 0.91972 0.87931 0.51049 0.0
C33 C 0.9617 0.83363 0.44184 0.0
C34 C 0.92243 0.74659 0.41443 0.0
C35 C 0.83736 0.70481 0.46488 0.0
H36 H 0.47038 1.00383 0.84242 0.0
H37 H 0.71973 0.92991 0.78825 0.0
H38 H 0.58345 0.88062 1.06448 0.0
C39 C 0.51922 0.96816 0.86452 0.0
C40 C 0.52169 0.94617 0.95963 0.0
C41 C 0.59246 0.96567 0.80373 0.0
C42 C 0.66031 0.92576 0.83461 0.0
C43 C 0.65595 0.88858 0.92745 0.0
C44 C 0.58423 0.89868 0.98968 0.0
H45 H 0.86664 0.29874 0.28961 0.0
H46 H 0.10151 0.20911 0.36039 0.0
H47 H 0.99938 0.37834 0.54464 0.0
C48 C 0.92317 0.30243 0.33456 0.0
C49 C 0.92634 0.34841 0.41826 0.0
C50 C 0.98947 0.25648 0.31092 0.0
C51 C 0.0556 0.25054 0.37445 0.0
C52 C 0.05517 0.28855 0.4616 0.0
C53 C 0.99608 0.34426 0.47915 0.0
H54 H 0.31631 0.8753 0.22221 0.0
H55 H 0.29653 0.64227 0.39519 0.0
H56 H 0.51137 0.86652 0.43437 0.0
C57 C 0.34107 0.84065 0.27869 0.0
C58 C 0.42063 0.88184 0.32291 0.0
C59 C 0.29439 0.75481 0.3033 0.0
C60 C 0.33073 0.70842 0.37655 0.0
C61 C 0.40861 0.7472 0.42834 0.0
C62 C 0.45144 0.83509 0.3993 0.0
H63 H 0.04894 0.37059 0.92676 0.0
H64 H 0.26958 0.37035 0.72596 0.0
H65 H 0.26871 0.59845 0.88477 0.0
C66 C 0.11405 0.40317 0.8944 0.0
C67 C 0.15345 0.4902 0.92175 0.0
C68 C 0.15598 0.35735 0.82584 0.0
C69 C 0.23867 0.40256 0.78021 0.0
C70 C 0.28122 0.48911 0.79817 0.0
C71 C 0.23858 0.53183 0.87132 0.0
Gd72 Gd 0.10552 1.08816 0.67143 0.0
Gd73 Gd 0.97036 0.14862 0.66461 0.0
C74 C 0.11216 0.26593 0.79142 0.0
C75 C 0.25261 1.04197 0.70827 0.0
C76 C 0.34564 1.08554 0.71965 0.0
C77 C 0.40732 1.06138 0.65668 0.0
C78 C 0.36305 0.17006 0.7517 0.0
C79 C 0.46565 0.21238 0.61583 0.0
C80 C 0.42329 0.23459 0.69827 0.0
C81 C 0.465 0.12538 0.60109 0.0
C82 C 0.98486 0.98682 0.79317 0.0
C83 C 0.96349 0.97072 0.54495 0.0
C84 C 0.82348 0.19503 0.62734 0.0
C85 C 0.73038 0.15152 0.61621 0.0
C86 C 0.66888 0.17577 0.67934 0.0
C87 C 0.71282 1.06696 0.58428 0.0
C88 C 0.61057 1.02482 0.72046 0.0
C89 C 0.65271 1.0025 0.63794 0.0
C90 C 0.61132 1.11185 0.73515 0.0
C91 C 0.09145 0.24956 0.54278 0.0
O92 O 0.1608 0.22099 0.74164 0.0
O93 O 1.02399 0.24071 0.78359 0.0
O94 O 0.19506 1.05495 0.77339 0.0
O95 O 0.2249 1.04865 0.62222 0.0
O96 O 1.01214 0.96239 0.71448 0.0
O97 O 0.99801 1.06844 0.78734 0.0
O98 O 0.91491 1.01558 0.59494 0.0
O99 O 0.05169 0.99607 0.55251 0.0
O100 O 0.88093 0.18158 0.56236 0.0
O101 O 0.85124 0.18876 0.71342 0.0
O102 O 0.06449 0.27413 0.62153 0.0
O103 O 0.0775 0.16792 0.54868 0.0
H104 H 0.39688 0.99536 0.63483 0.0
H105 H 0.31851 0.18879 0.80473 0.0
H106 H 0.42528 0.30143 0.71214 0.0
H107 H 0.49869 1.10603 0.53907 0.0
H108 H 0.67941 0.24182 0.70112 0.0
H109 H 0.75719 1.04814 0.53114 0.0
H110 H 0.65064 0.93563 0.62412 0.0
H111 H 0.57779 0.13126 0.79724 0.0
Gd112 Gd 0.60678 1.09617 0.18472 0.0
Gd113 Gd 0.46905 0.14079 1.15159 0.0
C114 C 0.5648 0.22063 0.31855 0.0
C115 C 0.75272 1.04112 1.16286 0.0
C116 C 0.84812 1.07847 1.14603 0.0
C117 C 0.90375 1.04902 0.20889 0.0
C118 C 0.87412 0.16252 1.10568 0.0
C119 C 0.97465 0.19754 0.23272 0.0
C120 C 0.93884 0.22283 1.14934 0.0
C121 C 0.96588 1.10938 0.25498 0.0
C122 C 0.47271 0.97219 0.28496 0.0
C123 C 0.51121 1.01627 1.01785 0.0
C124 C 0.32313 0.19591 0.17321 0.0
C125 C 0.22772 0.15852 0.19001 0.0
C126 C 0.1721 0.18786 1.12706 0.0
C127 C 0.20175 1.07451 0.23047 0.0
C128 C 0.10129 1.03929 1.1034 0.0
C129 C 0.13707 1.01412 0.18686 0.0
C130 C 0.11 0.12742 1.08103 0.0
C131 C 0.60344 0.26447 1.05132 0.0
O132 O 0.63619 0.21796 0.26589 0.0
O133 O 0.49153 0.16476 0.30242 0.0
O134 O 0.71956 1.05799 0.24532 0.0
O135 O 0.70154 1.04981 1.09355 0.0
O136 O 0.54771 1.01301 0.31788 0.0
O137 O 0.46676 1.00429 0.20183 0.0
O138 O 0.4398 1.01892 1.07049 0.0
O139 O 0.58442 1.07221 1.03393 0.0
O140 O 0.35635 0.17899 1.09081 0.0
O141 O 0.37427 0.18731 0.24259 0.0
O142 O 0.52851 0.22362 1.01825 0.0
O143 O 0.60882 0.23262 1.1347 0.0
H144 H 0.88596 0.9832 0.23784 0.0
H145 H 0.8333 0.18535 1.05411 0.0
H146 H 0.94783 0.29048 1.12908 0.0
H147 H 0.99478 1.08751 0.31739 0.0
H148 H 0.18985 0.25366 1.09803 0.0
H149 H 0.24256 1.05176 0.2821 0.0
H150 H 0.12811 0.94649 0.20721 0.0
H151 H 0.0811 0.14921 1.01857 0.0
Gd152 Gd 0.52849 0.55647 0.62104 0.0
Gd153 Gd 0.54763 0.68039 0.71547 0.0
C154 C 0.62931 0.53913 0.82573 0.0
C155 C 0.59652 0.45186 0.52223 0.0
C156 C 0.68976 0.44245 0.49829 0.0
C157 C 0.74186 0.41608 0.56823 0.0
C158 C 0.72309 0.44972 0.40305 0.0
C159 C 0.85121 0.3909 0.44661 0.0
C160 C 0.80261 0.42417 0.37747 0.0
C161 C 0.82175 0.39155 0.54286 0.0
C162 C 0.36573 0.53184 0.73203 0.0
C163 C 0.4467 0.69762 0.51078 0.0
C164 C 0.48 0.78519 0.81435 0.0
C165 C 0.38677 0.79466 0.83824 0.0
C166 C 0.33476 0.82111 0.76829 0.0
C167 C 0.35333 0.78724 0.93345 0.0
C168 C 0.2252 0.846 0.88984 0.0
C169 C 0.27376 0.81271 0.95899 0.0
C170 C 0.25481 0.84555 0.7936 0.0
C171 C 0.71024 0.70451 0.6043 0.0
O172 O 0.59351 0.49929 0.75002 0.0
O173 O 0.62641 0.62141 0.82818 0.0
O174 O 0.56449 0.43406 0.60969 0.0
O175 O 0.57051 0.51621 0.48295 0.0
O176 O 0.37417 0.51369 0.64288 0.0
O177 O 0.44597 0.55843 0.75808 0.0
O178 O 0.48247 0.73748 0.5865 0.0
O179 O 0.44966 0.61536 0.50832 0.0
O180 O 0.5121 0.803 0.72691 0.0
O181 O 0.50586 0.72075 0.8536 0.0
O182 O 0.70205 0.7224 0.69356 0.0
O183 O 0.62985 0.67858 0.57846 0.0
H184 H 0.71904 0.4106 0.64253 0.0
H185 H 0.68503 0.47078 0.34753 0.0
H186 H 0.82423 0.42802 0.30295 0.0
H187 H 0.85721 0.36868 0.59923 0.0
H188 H 0.35768 0.82673 0.69401 0.0
H189 H 0.39133 0.76611 0.98898 0.0
H190 H 0.25204 0.80875 1.0335 0.0
H191 H 0.2194 0.86848 0.73723 0.0
Gd192 Gd 0.04371 0.56852 0.20353 0.0
Gd193 Gd 1.03229 0.66819 1.13281 0.0
C194 C 0.20939 0.71285 0.25024 0.0
C195 C 0.09299 0.45358 0.30698 0.0
C196 C 0.18264 0.43572 0.32595 0.0
C197 C 0.21472 0.44748 0.41764 0.0
C198 C 0.23516 0.40447 0.25714 0.0
C199 C 0.3434 0.38592 0.37614 0.0
C200 C 0.31546 0.38148 0.28155 0.0
C201 C 0.29248 0.42181 0.44246 0.0
C202 C 0.98302 0.7023 0.3459 0.0
C203 C 0.86659 0.52388 1.08619 0.0
C204 C 0.98301 0.78309 1.02922 0.0
C205 C 0.8934 0.80106 1.01024 0.0
C206 C 0.86132 0.78938 0.91853 0.0
C207 C 0.84094 0.83237 1.07906 0.0
C208 C 0.73276 0.85111 0.96007 0.0
C209 C 0.7607 0.85548 1.05465 0.0
C210 C 0.78361 0.81516 0.89372 0.0
C211 C 0.09293 0.53476 0.99006 0.0
O212 O 0.18711 0.6303 0.24112 0.0
O213 O 0.15184 0.75314 0.21192 0.0
O214 O 0.07824 0.52411 0.34054 0.0
O215 O 0.05764 0.43641 0.22472 0.0
O216 O 0.95332 0.64639 0.28006 0.0
O217 O 0.95697 0.64679 0.27991 0.0
O218 O 0.88884 0.60641 1.09537 0.0
O219 O 0.92419 0.48359 1.12442 0.0
O220 O 0.99764 0.71246 0.99578 0.0
O221 O 1.01842 0.80031 1.11145 0.0
O222 O 0.12261 0.59022 1.05632 0.0
O223 O 0.11904 0.58985 1.05645 0.0
H224 H 0.17699 0.47285 0.47218 0.0
H225 H 0.21365 0.39653 0.185 0.0
H226 H 0.35346 0.35778 0.22654 0.0
H227 H 0.31101 0.42816 0.51507 0.0
H228 H 0.89901 0.76397 0.86399 0.0
H229 H 0.86245 0.84025 1.1512 0.0
H230 H 0.72274 0.87922 1.10967 0.0
H231 H 0.76505 0.80885 0.82109 0.0
loop_
_geom_bond_atom_site_label_1
_geom_bond_atom_site_label_2
_geom_bond_distance
_geom_bond_site_symmetry_2
_ccdc_geom_bond_type
H0 C3 0.931 . S
H1 C6 0.928 . S
H2 C8 0.930 . S
C3 H0 0.931 . S
C3 C4 1.413 . S
C3 C5 1.360 . S
C4 C3 1.413 . S
C4 C8 1.429 . S
C5 C3 1.360 . S
C5 C6 1.372 . S
C6 H1 0.928 . S
C6 C5 1.372 . S
C6 C7 1.404 . S
C7 C6 1.404 . S
C7 C8 1.391 . S
C8 H2 0.930 . S
C8 C4 1.429 . S
C8 C7 1.391 . S
H9 C12 0.931 . S
H10 C15 0.928 . S
H11 C17 0.930 . S
C12 H9 0.931 . S
C12 C13 1.413 . S
C12 C14 1.360 . S
C13 C12 1.413 . S
C13 C17 1.429 . S
C14 C12 1.360 . S
C14 C15 1.372 . S
C15 H10 0.928 . S
C15 C14 1.372 . S
C15 C16 1.404 . S
C16 C15 1.404 . S
C16 C17 1.391 . S
C17 H11 0.930 . S
C17 C13 1.429 . S
C17 C16 1.391 . S
H18 C21 0.931 . S
H19 C24 0.928 . S
H20 C26 0.930 . S
C21 H18 0.931 . S
C21 C22 1.413 . S
C21 C23 1.360 . S
C22 C21 1.413 . S
C22 C26 1.429 . S
C23 C21 1.360 . S
C23 C24 1.372 . S
C24 H19 0.928 . S
C24 C23 1.372 . S
C24 C25 1.404 . S
C25 C24 1.404 . S
C25 C26 1.391 . S
C26 H20 0.930 . S
C26 C22 1.429 . S
C26 C25 1.391 . S
H27 C30 0.931 . S
H28 C33 0.928 . S
H29 C35 0.930 . S
C30 H27 0.931 . S
C30 C31 1.413 . S
C30 C32 1.360 . S
C31 C30 1.413 . S
C31 C35 1.429 . S
C32 C30 1.360 . S
C32 C33 1.372 . S
C33 H28 0.928 . S
C33 C32 1.372 . S
C33 C34 1.404 . S
C34 C33 1.404 . S
C34 C35 1.391 . S
C35 H29 0.930 . S
C35 C31 1.429 . S
C35 C34 1.391 . S
H36 C39 0.931 . S
H37 C42 0.928 . S
H38 C44 0.930 . S
C39 H36 0.931 . S
C39 C40 1.413 . S
C39 C41 1.360 . S
C40 C39 1.413 . S
C40 C44 1.429 . S
C41 C39 1.360 . S
C41 C42 1.372 . S
C42 H37 0.928 . S
C42 C41 1.372 . S
C42 C43 1.404 . S
C43 C42 1.404 . S
C43 C44 1.391 . S
C44 H38 0.930 . S
C44 C40 1.429 . S
C44 C43 1.391 . S
H45 C48 0.931 . S
H46 C51 0.928 . S
H47 C53 0.930 . S
C48 H45 0.931 . S
C48 C49 1.413 . S
C48 C50 1.360 . S
C49 C48 1.413 . S
C49 C53 1.429 . S
C50 C48 1.360 . S
C50 C51 1.372 . S
C51 H46 0.928 . S
C51 C50 1.372 . S
C51 C52 1.404 . S
C52 C51 1.404 . S
C52 C53 1.391 . S
C53 H47 0.930 . S
C53 C49 1.429 . S
C53 C52 1.391 . S
H54 C57 0.931 . S
H55 C60 0.928 . S
H56 C62 0.930 . S
C57 H54 0.931 . S
C57 C58 1.413 . S
C57 C59 1.360 . S
C58 C57 1.413 . S
C58 C62 1.429 . S
C59 C57 1.360 . S
C59 C60 1.372 . S
C60 H55 0.928 . S
C60 C59 1.372 . S
C60 C61 1.404 . S
C61 C60 1.404 . S
C61 C62 1.391 . S
C62 H56 0.930 . S
C62 C58 1.429 . S
C62 C61 1.391 . S
H63 C66 0.931 . S
H64 C69 0.928 . S
H65 C71 0.930 . S
C66 H63 0.931 . S
C66 C67 1.413 . S
C66 C68 1.360 . S
C67 C66 1.413 . S
C67 C71 1.429 . S
C68 C66 1.360 . S
C68 C69 1.372 . S
C69 H64 0.928 . S
C69 C68 1.372 . S
C69 C70 1.404 . S
C70 C69 1.404 . S
C70 C71 1.391 . S
C71 H65 0.930 . S
C71 C67 1.429 . S
C71 C70 1.391 . S
Gd72 C75 2.818 . S
Gd72 O92 2.377 . S
Gd72 O94 2.448 . S
Gd72 O95 2.506 . S
Gd72 O96 2.435 1_545 S
Gd72 O97 2.717 1_545 S
Gd72 O99 2.395 1_445 S
Gd72 O103 2.327 1_455 S
Gd73 C84 2.814 1_545 S
Gd73 O93 2.401 1_655 S
Gd73 O97 2.323 1_645 S
Gd73 O98 2.372 1_545 S
Gd73 O100 2.447 1_545 S
Gd73 O101 2.499 1_545 S
Gd73 O102 2.441 . S
Gd73 O103 2.720 . S
C74 O92 1.240 . S
C74 O93 1.240 . S
C75 Gd72 2.818 . S
C75 C76 1.510 . S
C75 O94 1.249 . S
C75 O95 1.252 . S
C76 C75 1.510 . S
C76 C77 1.404 . S
C76 C78 1.352 . S
C77 C76 1.404 . S
C77 C81 1.389 . S
C77 H104 0.930 . S
C78 C76 1.352 . S
C78 C80 1.374 . S
C78 H105 0.931 . S
C79 C80 1.359 . S
C79 C81 1.364 . S
C80 C78 1.374 . S
C80 C79 1.359 . S
C80 H106 0.931 . S
C81 C77 1.389 . S
C81 C79 1.364 . S
C81 H107 0.931 . S
C82 O96 1.256 . S
C82 O97 1.257 . S
C83 O98 1.240 . S
C83 O99 1.240 . S
C84 Gd73 2.814 1_565 S
C84 C85 1.510 . S
C84 O100 1.249 . S
C84 O101 1.252 . S
C85 C84 1.510 . S
C85 C86 1.404 . S
C85 C87 1.352 . S
C86 C85 1.404 . S
C86 C90 1.389 . S
C86 H108 0.930 . S
C87 C85 1.352 . S
C87 C89 1.374 . S
C87 H109 0.931 . S
C88 C89 1.359 . S
C88 C90 1.364 . S
C89 C87 1.374 . S
C89 C88 1.359 . S
C89 H110 0.931 . S
C90 C86 1.389 . S
C90 C88 1.364 . S
C90 H111 0.931 . S
C91 O102 1.256 . S
C91 O103 1.257 . S
O92 Gd72 2.377 . S
O92 C74 1.240 . S
O93 Gd73 2.401 1_455 S
O93 C74 1.240 . S
O94 Gd72 2.448 . S
O94 C75 1.249 . S
O95 Gd72 2.506 . S
O95 C75 1.252 . S
O96 Gd72 2.435 1_565 S
O96 C82 1.256 . S
O97 Gd72 2.717 1_565 S
O97 Gd73 2.323 1_465 S
O97 C82 1.257 . S
O98 Gd73 2.372 1_565 S
O98 C83 1.240 . S
O99 Gd72 2.395 1_665 S
O99 C83 1.240 . S
O100 Gd73 2.447 1_565 S
O100 C84 1.249 . S
O101 Gd73 2.499 1_565 S
O101 C84 1.252 . S
O102 Gd73 2.441 . S
O102 C91 1.256 . S
O103 Gd72 2.327 1_655 S
O103 Gd73 2.720 . S
O103 C91 1.257 . S
H104 C77 0.930 . S
H105 C78 0.931 . S
H106 C80 0.931 . S
H107 C81 0.931 . S
H108 C86 0.930 . S
H109 C87 0.931 . S
H110 C89 0.931 . S
H111 C90 0.931 . S
Gd112 C115 2.818 1_565 S
Gd112 O132 2.377 1_565 S
Gd112 O134 2.448 1_565 S
Gd112 O135 2.506 1_565 S
Gd112 O136 2.435 . S
Gd112 O137 2.717 . S
Gd112 O139 2.395 1_554 S
Gd112 O143 2.327 1_564 S
Gd113 C124 2.818 1_545 S
Gd113 O133 2.395 1_556 S
Gd113 O137 2.327 1_546 S
Gd113 O138 2.377 1_545 S
Gd113 O140 2.448 1_545 S
Gd113 O141 2.506 1_545 S
Gd113 O142 2.435 . S
Gd113 O143 2.717 . S
C114 O132 1.240 . S
C114 O133 1.240 . S
C115 Gd112 2.818 1_545 S
C115 C116 1.510 . S
C115 O134 1.249 . S
C115 O135 1.252 . S
C116 C115 1.510 . S
C116 C117 1.404 . S
C116 C118 1.352 . S
C117 C116 1.404 . S
C117 C121 1.389 . S
C117 H144 0.930 . S
C118 C116 1.352 . S
C118 C120 1.374 . S
C118 H145 0.931 . S
C119 C120 1.359 . S
C119 C121 1.364 . S
C120 C118 1.374 . S
C120 C119 1.359 . S
C120 H146 0.931 . S
C121 C117 1.389 . S
C121 C119 1.364 . S
C121 H147 0.931 . S
C122 O136 1.256 . S
C122 O137 1.257 . S
C123 O138 1.240 . S
C123 O139 1.240 . S
C124 Gd113 2.818 1_565 S
C124 C125 1.510 . S
C124 O140 1.249 . S
C124 O141 1.252 . S
C125 C124 1.510 . S
C125 C126 1.404 . S
C125 C127 1.352 . S
C126 C125 1.404 . S
C126 C130 1.389 . S
C126 H148 0.930 . S
C127 C125 1.352 . S
C127 C129 1.374 . S
C127 H149 0.931 . S
C128 C129 1.359 . S
C128 C130 1.364 . S
C129 C127 1.374 . S
C129 C128 1.359 . S
C129 H150 0.931 . S
C130 C126 1.389 . S
C130 C128 1.364 . S
C130 H151 0.931 . S
C131 O142 1.256 . S
C131 O143 1.257 . S
O132 Gd112 2.377 1_545 S
O132 C114 1.240 . S
O133 Gd113 2.395 1_554 S
O133 C114 1.240 . S
O134 Gd112 2.448 1_545 S
O134 C115 1.249 . S
O135 Gd112 2.506 1_545 S
O135 C115 1.252 . S
O136 Gd112 2.435 . S
O136 C122 1.256 . S
O137 Gd112 2.717 . S
O137 Gd113 2.327 1_564 S
O137 C122 1.257 . S
O138 Gd113 2.377 1_565 S
O138 C123 1.240 . S
O139 Gd112 2.395 1_556 S
O139 C123 1.240 . S
O140 Gd113 2.448 1_565 S
O140 C124 1.249 . S
O141 Gd113 2.506 1_565 S
O141 C124 1.252 . S
O142 Gd113 2.435 . S
O142 C131 1.256 . S
O143 Gd112 2.327 1_546 S
O143 Gd113 2.717 . S
O143 C131 1.257 . S
H144 C117 0.930 . S
H145 C118 0.931 . S
H146 C120 0.931 . S
H147 C121 0.931 . S
H148 C126 0.930 . S
H149 C127 0.931 . S
H150 C129 0.931 . S
H151 C130 0.931 . S
Gd152 C155 2.818 . S
Gd152 O172 2.377 . S
Gd152 O174 2.448 . S
Gd152 O175 2.506 . S
Gd152 O176 2.435 . S
Gd152 O177 2.717 . S
Gd152 O179 2.395 . S
Gd152 O183 2.327 . S
Gd153 C164 2.818 . S
Gd153 O173 2.395 . S
Gd153 O177 2.327 . S
Gd153 O178 2.377 . S
Gd153 O180 2.448 . S
Gd153 O181 2.506 . S
Gd153 O182 2.435 . S
Gd153 O183 2.717 . S
C154 O172 1.240 . S
C154 O173 1.240 . S
C155 Gd152 2.818 . S
C155 C156 1.510 . S
C155 O174 1.249 . S
C155 O175 1.252 . S
C156 C155 1.510 . S
C156 C157 1.404 . S
C156 C158 1.352 . S
C157 C156 1.404 . S
C157 C161 1.389 . S
C157 H184 0.930 . S
C158 C156 1.352 . S
C158 C160 1.374 . S
C158 H185 0.931 . S
C159 C160 1.359 . S
C159 C161 1.364 . S
C160 C158 1.374 . S
C160 C159 1.359 . S
C160 H186 0.931 . S
C161 C157 1.389 . S
C161 C159 1.364 . S
C161 H187 0.931 . S
C162 O176 1.256 . S
C162 O177 1.257 . S
C163 O178 1.240 . S
C163 O179 1.240 . S
C164 Gd153 2.818 . S
C164 C165 1.510 . S
C164 O180 1.249 . S
C164 O181 1.252 . S
C165 C164 1.510 . S
C165 C166 1.404 . S
C165 C167 1.352 . S
C166 C165 1.404 . S
C166 C170 1.389 . S
C166 H188 0.930 . S
C167 C165 1.352 . S
C167 C169 1.374 . S
C167 H189 0.931 . S
C168 C169 1.359 . S
C168 C170 1.364 . S
C169 C167 1.374 . S
C169 C168 1.359 . S
C169 H190 0.931 . S
C170 C166 1.389 . S
C170 C168 1.364 . S
C170 H191 0.931 . S
C171 O182 1.256 . S
C171 O183 1.257 . S
O172 Gd152 2.377 . S
O172 C154 1.240 . S
O173 Gd153 2.395 . S
O173 C154 1.240 . S
O174 Gd152 2.448 . S
O174 C155 1.249 . S
O175 Gd152 2.506 . S
O175 C155 1.252 . S
O176 Gd152 2.435 . S
O176 C162 1.256 . S
O177 Gd152 2.717 . S
O177 Gd153 2.327 . S
O177 C162 1.257 . S
O178 Gd153 2.377 . S
O178 C163 1.240 . S
O179 Gd152 2.395 . S
O179 C163 1.240 . S
O180 Gd153 2.448 . S
O180 C164 1.249 . S
O181 Gd153 2.506 . S
O181 C164 1.252 . S
O182 Gd153 2.435 . S
O182 C171 1.256 . S
O183 Gd152 2.327 . S
O183 Gd153 2.717 . S
O183 C171 1.257 . S
H184 C157 0.930 . S
H185 C158 0.931 . S
H186 C160 0.931 . S
H187 C161 0.931 . S
H188 C166 0.930 . S
H189 C167 0.931 . S
H190 C169 0.931 . S
H191 C170 0.931 . S
Gd192 C195 2.818 . S
Gd192 O212 2.377 . S
Gd192 O214 2.448 . S
Gd192 O215 2.506 . S
Gd192 O216 2.435 1_455 S
Gd192 O217 2.717 1_455 S
Gd192 O219 2.395 1_454 S
Gd192 O223 2.327 1_554 S
Gd193 C204 2.818 . S
Gd193 O213 2.395 1_656 S
Gd193 O217 2.327 1_556 S
Gd193 O218 2.377 . S
Gd193 O220 2.448 . S
Gd193 O221 2.506 . S
Gd193 O222 2.435 1_655 S
Gd193 O223 2.717 1_655 S
C194 O212 1.240 . S
C194 O213 1.240 . S
C195 Gd192 2.818 . S
C195 C196 1.510 . S
C195 O214 1.249 . S
C195 O215 1.252 . S
C196 C195 1.510 . S
C196 C197 1.404 . S
C196 C198 1.352 . S
C197 C196 1.404 . S
C197 C201 1.389 . S
C197 H224 0.930 . S
C198 C196 1.352 . S
C198 C200 1.374 . S
C198 H225 0.931 . S
C199 C200 1.359 . S
C199 C201 1.364 . S
C200 C198 1.374 . S
C200 C199 1.359 . S
C200 H226 0.931 . S
C201 C197 1.389 . S
C201 C199 1.364 . S
C201 H227 0.931 . S
C202 O216 1.256 . S
C202 O217 1.257 . S
C203 O218 1.240 . S
C203 O219 1.240 . S
C204 Gd193 2.818 . S
C204 C205 1.510 . S
C204 O220 1.249 . S
C204 O221 1.252 . S
C205 C204 1.510 . S
C205 C206 1.404 . S
C205 C207 1.352 . S
C206 C205 1.404 . S
C206 C210 1.389 . S
C206 H228 0.930 . S
C207 C205 1.352 . S
C207 C209 1.374 . S
C207 H229 0.931 . S
C208 C209 1.359 . S
C208 C210 1.364 . S
C209 C207 1.374 . S
C209 C208 1.359 . S
C209 H230 0.931 . S
C210 C206 1.389 . S
C210 C208 1.364 . S
C210 H231 0.931 . S
C211 O222 1.256 . S
C211 O223 1.257 . S
O212 Gd192 2.377 . S
O212 C194 1.240 . S
O213 Gd193 2.395 1_454 S
O213 C194 1.240 . S
O214 Gd192 2.448 . S
O214 C195 1.249 . S
O215 Gd192 2.506 . S
O215 C195 1.252 . S
O216 Gd192 2.435 1_655 S
O216 C202 1.256 . S
O217 Gd192 2.717 1_655 S
O217 Gd193 2.327 1_554 S
O217 C202 1.257 . S
O218 Gd193 2.377 . S
O218 C203 1.240 . S
O219 Gd192 2.395 1_656 S
O219 C203 1.240 . S
O220 Gd193 2.448 . S
O220 C204 1.249 . S
O221 Gd193 2.506 . S
O221 C204 1.252 . S
O222 Gd193 2.435 1_455 S
O222 C211 1.256 . S
O223 Gd192 2.327 1_556 S
O223 Gd193 2.717 1_455 S
O223 C211 1.257 . S
H224 C197 0.930 . S
H225 C198 0.931 . S
H226 C200 0.931 . S
H227 C201 0.931 . S
H228 C206 0.930 . S
H229 C207 0.931 . S
H230 C209 0.931 . S
H231 C210 0.931 . S
C5 C79 1.132 . S
C14 C128 1.448 . S
C154 C25 3.742 . S
C34 C202 3.756 . S
C114 C7 2.710 . S
C82 C13 1.402 . S
C203 C23 2.580 . S
C171 C31 2.494 . S
C4 C199 1.723 . S
C131 C22 3.453 . S
C32 C83 3.525 . S
C16 C168 1.892 . S
C88 C41 1.107 . S
C50 C119 1.460 . S
C61 C163 3.732 . S
C67 C211 3.767 . S
C40 C123 2.723 . S
C91 C52 1.413 . S
C194 C59 2.587 . S
C162 C70 2.493 . S
C43 C208 1.692 . S
C122 C58 3.470 . S
C74 C68 3.496 . S
C49 C159 1.923 . S
