# Generated by pormake.
# Topology tsx, (6,3)-cn, num edge types: 1
# Building blocks:
#     Node 0, Type 0, BuildingBlock: LEVNOQ01_clean_sbu_1, # of connection points: 6
#     Node 1, Type 0, BuildingBlock: LEVNOQ01_clean_sbu_1, # of connection points: 6
#     Node 2, Type 1, BuildingBlock: BETDAH_clean_linker_0, # of connection points: 3
#     Node 3, Type 1, BuildingBlock: BETDAH_clean_linker_0, # of connection points: 3
#     Node 4, Type 1, BuildingBlock: BETDAH_clean_linker_0, # of connection points: 3
#     Node 5, Type 1, BuildingBlock: BETDAH_clean_linker_0, # of connection points: 3
#     Edge 6, Type (0, 1), BuildingBlock: OJICUG_clean_linker_0, # of connection points: 2
#     Edge 7, Type (0, 1), BuildingBlock: OJICUG_clean_linker_0, # of connection points: 2
#     Edge 8, Type (0, 1), BuildingBlock: OJICUG_clean_linker_0, # of connection points: 2
#     Edge 9, Type (0, 1), BuildingBlock: OJICUG_clean_linker_0, # of connection points: 2
#     Edge 10, Type (0, 1), BuildingBlock: OJICUG_clean_linker_0, # of connection points: 2
#     Edge 11, Type (0, 1), BuildingBlock: OJICUG_clean_linker_0, # of connection points: 2
#     Edge 12, Type (0, 1), BuildingBlock: OJICUG_clean_linker_0, # of connection points: 2
#     Edge 13, Type (0, 1), BuildingBlock: OJICUG_clean_linker_0, # of connection points: 2
#     Edge 14, Type (0, 1), BuildingBlock: OJICUG_clean_linker_0, # of connection points: 2
#     Edge 15, Type (0, 1), BuildingBlock: OJICUG_clean_linker_0, # of connection points: 2
#     Edge 16, Type (0, 1), BuildingBlock: OJICUG_clean_linker_0, # of connection points: 2
#     Edge 17, Type (0, 1), BuildingBlock: OJICUG_clean_linker_0, # of connection points: 2
# Relax obj value: 0.098
# Max RMSD: 0.142
# Mean RMSD: 0.107
data_MOF--net-tsx--node1-LEVNOQ01_clean_sbu_1--node2-BETDAH_clean_linker_0--edge1-OJICUG_clean_linker_0
_symmetry_space_group_name_H-M    P1
_symmetry_Int_Tables_number       1
_symmetry_cell_setting            triclinic
loop_
_symmetry_equiv_pos_as_xyz
'x, y, z'
_cell_length_a     13.029911
_cell_length_b     16.924571
_cell_length_c     25.488412
_cell_angle_alpha  95.832137
_cell_angle_beta   103.4951
_cell_angle_gamma 91.36152
loop_
_atom_site_label
_atom_site_type_symbol
_atom_site_fract_x
_atom_site_fract_y
_atom_site_fract_z
_atom_type_partial_charge
O0 O 0.31693 0.03042 0.11069 0.0
Mg1 Mg 0.36028 0.03878 0.03475 0.0
O2 O 0.14272 0.01011 0.07852 0.0
Mg3 Mg 0.09907 0.01265 -0.01433 0.0
O4 O 0.23898 0.09583 -0.00714 0.0
O5 O 0.39943 0.15065 0.01333 0.0
O6 O 0.06368 0.01907 0.89287 0.0
O7 O 1.01597 0.13474 -0.00297 0.0
Mg8 Mg 0.88887 0.01566 0.95293 0.0
O9 O 0.95712 0.91692 -0.01702 0.0
O10 O 0.89696 0.04864 0.87585 0.0
O11 O 0.8629 0.10336 0.01131 0.0
O12 O 0.78428 0.9237 0.94292 0.0
C13 C 0.28794 0.88133 0.96803 0.0
C14 C 0.22449 0.01875 0.11812 0.0
C15 C 0.29969 0.15752 -0.00523 0.0
C16 C 0.98162 0.03987 0.86026 0.0
C17 C 0.93166 0.15637 0.01039 0.0
C18 C 0.86064 0.8854 0.969 0.0
O19 O 0.36514 0.93167 -0.01422 0.0
O20 O 0.1934 0.8979 0.97037 0.0
O21 O 0.81488 0.48293 0.60021 0.0
Mg22 Mg 0.85491 0.49505 0.52385 0.0
O23 O 0.63874 0.48713 0.57433 0.0
Mg24 Mg 0.58909 0.49047 0.482 0.0
O25 O 0.73833 0.55995 0.48716 0.0
O26 O 0.90143 0.60789 0.50567 0.0
O27 O 0.54573 0.49922 0.39015 0.0
O28 O 0.52687 0.61991 0.49353 0.0
Mg29 Mg 0.37752 0.51747 0.45866 0.0
O30 O 0.43396 0.41085 0.48187 0.0
O31 O 0.38752 0.54733 0.3807 0.0
O32 O 0.38072 0.61157 0.52 0.0
O33 O 0.2617 0.4359 0.45523 0.0
C34 C 0.75643 0.34467 0.45585 0.0
C35 C 0.72392 0.48368 0.61081 0.0
C36 C 0.80231 0.61975 0.48992 0.0
C37 C 0.46636 0.52985 0.3614 0.0
C38 C 0.45354 0.65448 0.51095 0.0
C39 C 0.33413 0.38863 0.47412 0.0
O40 O 0.83812 0.39137 0.46989 0.0
O41 O 0.66634 0.36578 0.46372 0.0
H42 H 0.32751 0.93648 0.35676 0.0
H43 H 1.01862 0.03178 0.32586 0.0
H44 H 0.10939 0.88241 0.45246 0.0
C45 C 0.2527 0.94407 0.36761 0.0
C46 C 0.23209 0.90816 0.41188 0.0
C47 C 0.17419 -0.01492 0.33455 0.0
C48 C 0.07864 -0.0015 0.34998 0.0
C49 C 0.05654 0.96325 0.3937 0.0
C50 C 0.13118 0.91547 0.42243 0.0
N51 N 0.95647 0.96919 0.40659 0.0
C52 C 0.90111 0.03854 0.40519 0.0
H53 H 0.82212 0.96397 0.62209 0.0
H54 H 0.11696 0.09241 0.63243 0.0
H55 H 0.99572 0.91514 0.50012 0.0
C56 C 0.88678 0.97819 0.60411 0.0
C57 C 0.89424 0.9354 0.55503 0.0
C58 C 0.96912 0.03214 0.63358 0.0
C59 C 0.05289 0.05133 0.6101 0.0
C60 C 0.05972 0.01088 0.56041 0.0
C61 C 0.98283 0.95177 0.53466 0.0
N62 N 0.15047 0.02013 0.53947 0.0
C63 C 0.1927 0.09374 0.53337 0.0
H64 H 0.82089 0.41291 0.85909 0.0
H65 H 0.52281 0.52304 0.81203 0.0
H66 H 0.61224 0.43729 0.96635 0.0
C67 C 0.74913 0.43418 0.86859 0.0
C68 C 0.72583 0.41935 0.91808 0.0
C69 C 0.67719 0.47211 0.8297 0.0
C70 C 0.58246 0.4979 0.84196 0.0
C71 C 0.55964 0.48516 0.89138 0.0
C72 C 0.6316 0.44721 0.92893 0.0
N73 N 0.45827 0.49905 0.90062 0.0
C74 C 0.41832 0.57417 0.90366 0.0
H75 H 0.30033 0.50011 0.12037 0.0
H76 H 0.60997 0.6117 0.14292 0.0
H77 H 0.47902 0.45622 4e-05 0.0
C78 C 0.3679 0.5131 0.10428 0.0
C79 C 0.37573 0.47344 0.05423 0.0
C80 C 0.45409 0.55966 0.13773 0.0
C81 C 0.54213 0.57752 0.11715 0.0
C82 C 0.54921 0.542 0.0663 0.0
C83 C 0.46706 0.48971 0.03591 0.0
N84 N 0.64725 0.54288 0.05122 0.0
C85 C 0.69696 0.61132 0.04124 0.0
C86 C 0.28379 0.28809 0.95871 0.0
C87 C 0.26083 0.23792 -0.00472 0.0
H88 H 0.32593 0.40624 0.94646 0.0
C89 C 0.24121 0.2715 0.04426 0.0
H90 H 0.29867 0.26331 0.92044 0.0
C91 C 0.26494 0.35222 0.06121 0.0
C92 C 0.3059 0.40112 0.02847 0.0
H93 H 0.2234 0.23356 0.07313 0.0
H94 H 0.2637 0.37237 0.10264 0.0
C95 C 0.30214 0.36982 0.97447 0.0
C96 C 0.39752 0.79427 0.92068 0.0
C97 C 0.31132 0.80188 0.94513 0.0
H98 H 0.49668 0.71505 0.88646 0.0
C99 C 0.25507 0.73296 0.95129 0.0
H100 H 0.44184 0.84641 0.915 0.0
C101 C 0.28842 0.65775 0.93602 0.0
C102 C 0.37666 0.65089 0.9134 0.0
H103 H 0.18887 0.73714 0.97027 0.0
H104 H 0.2473 0.60507 0.94336 0.0
C105 C 0.42923 0.71934 0.90448 0.0
C106 C 0.87566 0.788 0.03814 0.0
C107 C 0.83314 0.80803 -0.01451 0.0
H108 H 0.86305 0.7095 0.09808 0.0
C109 C 0.75056 0.75937 0.95103 0.0
H110 H 0.93836 0.82515 0.06568 0.0
C111 C 0.70862 0.69376 0.96935 0.0
C112 C 0.74652 0.67673 0.02274 0.0
H113 H 0.71636 0.77342 0.91025 0.0
H114 H 0.64488 0.65723 0.94217 0.0
C115 C 0.83192 0.72277 0.05683 0.0
C116 C 0.79458 0.25551 0.00987 0.0
C117 C 0.89631 0.23812 0.00414 0.0
H118 H 0.65933 0.32072 -0.01489 0.0
C119 C 0.95009 0.29121 -0.0204 0.0
H120 H 0.75107 0.21649 0.02908 0.0
C121 C 0.89814 0.35485 0.95564 0.0
C122 C 0.79065 0.36542 0.95461 0.0
H123 H 0.02898 0.27999 0.97481 0.0
H124 H 0.94077 0.39259 0.93529 0.0
C125 C 0.74171 0.31688 -0.01545 0.0
C126 C 0.76013 0.73338 0.54645 0.0
C127 C 0.76979 0.7017 0.49496 0.0
H128 H 0.7949 0.83217 0.60713 0.0
C129 C 0.78882 0.75319 0.45835 0.0
H130 H 0.74598 0.69422 0.57543 0.0
C131 C 0.81248 0.834 0.47569 0.0
C132 C 0.82426 0.863 0.53079 0.0
H133 H 0.79639 0.72981 0.41832 0.0
H134 H 0.83319 0.87145 0.44743 0.0
C135 C 0.78871 0.81321 0.56466 0.0
C136 C 0.84801 0.25356 0.40124 0.0
C137 C 0.7728 0.26334 0.43286 0.0
H138 H 0.94724 0.17372 0.36755 0.0
C139 C 0.73102 0.19575 0.44985 0.0
H140 H 0.88198 0.30466 0.38778 0.0
C141 C 0.76968 0.12063 0.43858 0.0
C142 C 0.84911 0.11248 0.40964 0.0
H143 H 0.67445 0.20171 0.47495 0.0
H144 H 0.7412 0.06971 0.45462 0.0
C145 C 0.88563 0.17884 0.38968 0.0
C146 C 0.19179 0.28976 0.47869 0.0
C147 C 0.30053 0.31095 0.48864 0.0
H148 H 0.07327 0.20422 0.48597 0.0
C149 C 0.37399 0.25894 0.51416 0.0
H150 H 0.1326 0.32799 0.45905 0.0
C151 C 0.339 0.18768 0.52962 0.0
C152 C 0.23046 0.16798 0.51993 0.0
H153 H 0.45805 0.27346 0.52247 0.0
H154 H 0.39653 0.14804 0.54898 0.0
C155 C 0.15731 0.21907 0.49421 0.0
C156 C 0.44038 0.75465 0.4453 0.0
C157 C 0.42614 0.73453 0.49539 0.0
H158 H 0.3876 0.82082 0.37843 0.0
C159 C 0.36219 0.7812 0.52201 0.0
H160 H 0.48834 0.71927 0.42336 0.0
C161 C 0.30669 0.84249 0.49697 0.0
C162 C 0.31001 0.85617 0.44359 0.0
H163 H 0.34999 0.76713 0.56071 0.0
H164 H 0.25666 0.87601 0.51852 0.0
C165 C 0.38177 0.81362 0.4193 0.0
C166 C 0.11238 -0.00766 0.18246 0.0
C167 C 0.21105 0.0153 0.174 0.0
H168 H 0.02391 0.96441 0.23931 0.0
C169 C 0.29625 0.03429 0.21935 0.0
H170 H 0.04498 0.97727 0.14855 0.0
C171 C 0.28361 0.02826 0.27187 0.0
C172 C 0.18565 0.00277 0.28014 0.0
H173 H 0.37308 0.0531 0.21433 0.0
H174 H 0.35096 0.04245 0.30591 0.0
C175 C 0.09997 -0.0141 0.23477 0.0
C176 C 0.07489 0.0374 0.78465 0.0
C177 C 0.9832 0.05076 0.80359 0.0
H178 H 0.14244 0.0223 0.71578 0.0
C179 C 0.89124 0.07095 0.76713 0.0
H180 H 0.14733 0.02261 0.81177 0.0
C181 C 0.8888 0.07179 0.71211 0.0
C182 C 0.97828 0.05263 0.6925 0.0
H183 H 0.81963 0.0829 0.78058 0.0
H184 H 0.81541 0.08351 0.68444 0.0
C185 C 0.07245 0.03835 0.72966 0.0
C186 C 0.76072 0.42164 0.69713 0.0
C187 C 0.71661 0.48253 0.66721 0.0
H188 H 0.77863 0.36795 0.77052 0.0
C189 C 0.66389 0.54197 0.69118 0.0
H190 H 0.80112 0.37497 0.67897 0.0
C191 C 0.65511 0.54053 0.74463 0.0
C192 C 0.69558 0.47789 0.77453 0.0
H193 H 0.63039 0.59 0.66869 0.0
H194 H 0.61592 0.58839 0.76226 0.0
C195 C 0.74877 0.41849 0.74992 0.0
C196 C 0.55608 0.5316 0.28499 0.0
C197 C 0.46678 0.54649 0.30567 0.0
H198 H 0.6224 0.5255 0.21586 0.0
C199 C 0.37807 0.57717 0.27254 0.0
H200 H 0.62622 0.509 0.30963 0.0
C201 C 0.37643 0.58791 0.2187 0.0
C202 C 0.46362 0.56855 0.19714 0.0
H203 H 0.30855 0.59053 0.28759 0.0
H204 H 0.3054 0.60808 0.19325 0.0
C205 C 0.55453 0.54251 0.23137 0.0
loop_
_geom_bond_atom_site_label_1
_geom_bond_atom_site_label_2
_geom_bond_distance
_geom_bond_site_symmetry_2
_ccdc_geom_bond_type
O0 Mg1 1.990 . S
O0 C14 1.253 . S
Mg1 O0 1.990 . S
Mg1 O4 2.180 . S
Mg1 O5 2.117 . S
Mg1 O19 2.030 1_545 S
O2 Mg3 2.072 1_554 S
O2 C14 1.260 . S
Mg3 O2 2.072 1_556 S
Mg3 O4 2.099 1_556 S
Mg3 O6 2.079 . S
Mg3 O7 2.072 1_456 S
Mg3 O9 2.099 1_445 S
Mg3 O20 2.079 1_545 S
O4 Mg1 2.180 . S
O4 Mg3 2.099 1_554 S
O4 C15 1.279 . S
O5 Mg1 2.117 . S
O5 C15 1.250 . S
O6 Mg3 2.079 . S
O6 C16 1.264 . S
O7 Mg3 2.072 1_654 S
O7 C17 1.260 1_554 S
Mg8 O9 2.180 . S
Mg8 O10 2.030 1_565 S
Mg8 O11 1.990 1_565 S
Mg8 O12 2.117 . S
O9 Mg3 2.099 1_665 S
O9 Mg8 2.180 . S
O9 C18 1.279 . S
O10 Mg8 2.030 1_545 S
O10 C16 1.248 1_655 S
O11 Mg8 1.990 1_545 S
O11 C17 1.253 . S
O12 Mg8 2.117 . S
O12 C18 1.250 . S
C13 O19 1.248 . S
C13 O20 1.264 1_554 S
C14 O0 1.253 . S
C14 O2 1.260 . S
C15 O4 1.279 . S
C15 O5 1.250 . S
C16 O6 1.264 . S
C16 O10 1.248 1_455 S
C17 O7 1.260 1_556 S
C17 O11 1.253 . S
C18 O9 1.279 . S
C18 O12 1.250 . S
O19 Mg1 2.030 1_565 S
O19 C13 1.248 . S
O20 Mg3 2.079 1_565 S
O20 C13 1.264 1_556 S
O21 Mg22 1.990 . S
O21 C35 1.253 . S
Mg22 O21 1.990 . S
Mg22 O25 2.180 . S
Mg22 O26 2.117 . S
Mg22 O40 2.030 . S
O23 Mg24 2.072 . S
O23 C35 1.260 . S
Mg24 O23 2.072 . S
Mg24 O25 2.099 . S
Mg24 O27 2.079 . S
Mg24 O28 2.072 . S
Mg24 O30 2.099 . S
Mg24 O41 2.079 . S
O25 Mg22 2.180 . S
O25 Mg24 2.099 . S
O25 C36 1.279 . S
O26 Mg22 2.117 . S
O26 C36 1.250 . S
O27 Mg24 2.079 . S
O27 C37 1.264 . S
O28 Mg24 2.072 . S
O28 C38 1.260 . S
Mg29 O30 2.180 . S
Mg29 O31 2.030 . S
Mg29 O32 1.990 . S
Mg29 O33 2.117 . S
O30 Mg24 2.099 . S
O30 Mg29 2.180 . S
O30 C39 1.279 . S
O31 Mg29 2.030 . S
O31 C37 1.248 . S
O32 Mg29 1.990 . S
O32 C38 1.253 . S
O33 Mg29 2.117 . S
O33 C39 1.250 . S
C34 O40 1.248 . S
C34 O41 1.264 . S
C35 O21 1.253 . S
C35 O23 1.260 . S
C36 O25 1.279 . S
C36 O26 1.250 . S
C37 O27 1.264 . S
C37 O31 1.248 . S
C38 O28 1.260 . S
C38 O32 1.253 . S
C39 O30 1.279 . S
C39 O33 1.250 . S
O40 Mg22 2.030 . S
O40 C34 1.248 . S
O41 Mg24 2.079 . S
O41 C34 1.264 . S
H42 C45 0.929 . S
H43 C48 0.929 1_655 S
H44 C50 0.930 . S
C45 H42 0.929 . S
C45 C46 1.398 . S
C45 C47 1.396 . S
C46 C45 1.398 . S
C46 C50 1.407 . S
C47 C45 1.396 . S
C47 C48 1.394 1_565 S
C48 H43 0.929 1_455 S
C48 C47 1.394 1_545 S
C48 C49 1.382 . S
C49 C48 1.382 . S
C49 C50 1.392 1_545 S
C49 N51 1.420 1_455 S
C50 H44 0.930 . S
C50 C46 1.407 . S
C50 C49 1.392 1_565 S
N51 C49 1.420 1_655 S
N51 C52 1.244 . S
C52 N51 1.244 . S
H53 C56 0.929 . S
H54 C59 0.929 . S
H55 C61 0.930 1_565 S
C56 H53 0.929 . S
C56 C57 1.398 . S
C56 C58 1.396 1_565 S
C57 C56 1.398 . S
C57 C61 1.407 1_565 S
C58 C56 1.396 1_545 S
C58 C59 1.394 1_655 S
C59 H54 0.929 . S
C59 C58 1.394 1_455 S
C59 C60 1.382 . S
C60 C59 1.382 . S
C60 C61 1.392 1_455 S
C60 N62 1.420 . S
C61 H55 0.930 1_545 S
C61 C57 1.407 1_545 S
C61 C60 1.392 1_655 S
N62 C60 1.420 . S
N62 C63 1.244 . S
C63 N62 1.244 . S
H64 C67 0.929 . S
H65 C70 0.929 . S
H66 C72 0.930 1_554 S
C67 H64 0.929 . S
C67 C68 1.398 . S
C67 C69 1.396 . S
C68 C67 1.398 . S
C68 C72 1.407 . S
C69 C67 1.396 . S
C69 C70 1.394 . S
C70 H65 0.929 . S
C70 C69 1.394 . S
C70 C71 1.382 . S
C71 C70 1.382 . S
C71 C72 1.392 . S
C71 N73 1.420 . S
C72 H66 0.930 1_556 S
C72 C68 1.407 . S
C72 C71 1.392 . S
N73 C71 1.420 . S
N73 C74 1.244 . S
C74 N73 1.244 . S
H75 C78 0.929 . S
H76 C81 0.929 . S
H77 C83 0.930 1_556 S
C78 H75 0.929 . S
C78 C79 1.398 . S
C78 C80 1.396 . S
C79 C78 1.398 . S
C79 C83 1.407 . S
C80 C78 1.396 . S
C80 C81 1.394 . S
C81 H76 0.929 . S
C81 C80 1.394 . S
C81 C82 1.382 . S
C82 C81 1.382 . S
C82 C83 1.392 . S
C82 N84 1.420 . S
C83 H77 0.930 1_554 S
C83 C79 1.407 . S
C83 C82 1.392 . S
N84 C82 1.420 . S
N84 C85 1.244 . S
C85 N84 1.244 . S
C86 C87 1.387 1_556 S
C86 H90 0.950 . S
C86 C95 1.390 . S
C87 C86 1.387 1_554 S
C87 C89 1.387 . S
H88 C95 0.950 . S
C89 C87 1.387 . S
C89 C91 1.390 . S
C89 H93 0.950 . S
H90 C86 0.950 . S
C91 C89 1.390 . S
C91 C92 1.387 . S
C91 H94 0.950 . S
C92 C91 1.387 . S
C92 C95 1.387 1_554 S
H93 C89 0.950 . S
H94 C91 0.950 . S
C95 C86 1.390 . S
C95 H88 0.950 . S
C95 C92 1.387 1_556 S
C96 C97 1.387 1_556 S
C96 H100 0.950 . S
C96 C105 1.390 . S
C97 C96 1.387 1_554 S
C97 C99 1.387 . S
H98 C105 0.950 . S
C99 C97 1.387 . S
C99 C101 1.390 . S
C99 H103 0.950 . S
H100 C96 0.950 . S
C101 C99 1.390 . S
C101 C102 1.387 . S
C101 H104 0.950 . S
C102 C101 1.387 . S
C102 C105 1.387 1_554 S
H103 C99 0.950 . S
H104 C101 0.950 . S
C105 C96 1.390 . S
C105 H98 0.950 . S
C105 C102 1.387 1_556 S
C106 C107 1.387 . S
C106 H110 0.950 . S
C106 C115 1.390 . S
C107 C106 1.387 . S
C107 C109 1.387 1_554 S
H108 C115 0.950 . S
C109 C107 1.387 1_556 S
C109 C111 1.390 . S
C109 H113 0.950 . S
H110 C106 0.950 . S
C111 C109 1.390 . S
C111 C112 1.387 1_556 S
C111 H114 0.950 . S
C112 C111 1.387 1_554 S
C112 C115 1.387 . S
H113 C109 0.950 . S
H114 C111 0.950 . S
C115 C106 1.390 . S
C115 H108 0.950 . S
C115 C112 1.387 . S
C116 C117 1.387 1_554 S
C116 H120 0.950 . S
C116 C125 1.390 . S
C117 C116 1.387 1_556 S
C117 C119 1.387 . S
H118 C125 0.950 . S
C119 C117 1.387 . S
C119 C121 1.390 . S
C119 H123 0.950 . S
H120 C116 0.950 . S
C121 C119 1.390 . S
C121 C122 1.387 . S
C121 H124 0.950 . S
C122 C121 1.387 . S
C122 C125 1.387 1_556 S
H123 C119 0.950 . S
H124 C121 0.950 . S
C125 C116 1.390 . S
C125 H118 0.950 . S
C125 C122 1.387 1_554 S
C126 C127 1.387 . S
C126 H130 0.950 . S
C126 C135 1.390 . S
C127 C126 1.387 . S
C127 C129 1.387 . S
H128 C135 0.950 . S
C129 C127 1.387 . S
C129 C131 1.390 . S
C129 H133 0.950 . S
H130 C126 0.950 . S
C131 C129 1.390 . S
C131 C132 1.387 . S
C131 H134 0.950 . S
C132 C131 1.387 . S
C132 C135 1.387 . S
H133 C129 0.950 . S
H134 C131 0.950 . S
C135 C126 1.390 . S
C135 H128 0.950 . S
C135 C132 1.387 . S
C136 C137 1.387 . S
C136 H140 0.950 . S
C136 C145 1.390 . S
C137 C136 1.387 . S
C137 C139 1.387 . S
H138 C145 0.950 . S
C139 C137 1.387 . S
C139 C141 1.390 . S
C139 H143 0.950 . S
H140 C136 0.950 . S
C141 C139 1.390 . S
C141 C142 1.387 . S
C141 H144 0.950 . S
C142 C141 1.387 . S
C142 C145 1.387 . S
H143 C139 0.950 . S
H144 C141 0.950 . S
C145 C136 1.390 . S
C145 H138 0.950 . S
C145 C142 1.387 . S
C146 C147 1.387 . S
C146 H150 0.950 . S
C146 C155 1.390 . S
C147 C146 1.387 . S
C147 C149 1.387 . S
H148 C155 0.950 . S
C149 C147 1.387 . S
C149 C151 1.390 . S
C149 H153 0.950 . S
H150 C146 0.950 . S
C151 C149 1.390 . S
C151 C152 1.387 . S
C151 H154 0.950 . S
C152 C151 1.387 . S
C152 C155 1.387 . S
H153 C149 0.950 . S
H154 C151 0.950 . S
C155 C146 1.390 . S
C155 H148 0.950 . S
C155 C152 1.387 . S
C156 C157 1.387 . S
C156 H160 0.950 . S
C156 C165 1.390 . S
C157 C156 1.387 . S
C157 C159 1.387 . S
H158 C165 0.950 . S
C159 C157 1.387 . S
C159 C161 1.390 . S
C159 H163 0.950 . S
H160 C156 0.950 . S
C161 C159 1.390 . S
C161 C162 1.387 . S
C161 H164 0.950 . S
C162 C161 1.387 . S
C162 C165 1.387 . S
H163 C159 0.950 . S
H164 C161 0.950 . S
C165 C156 1.390 . S
C165 H158 0.950 . S
C165 C162 1.387 . S
C166 C167 1.390 . S
C166 H170 0.950 1_455 S
C166 C175 1.390 . S
C167 C166 1.390 . S
C167 C169 1.386 1_565 S
H168 C175 0.950 1_655 S
C169 C167 1.386 1_545 S
C169 C171 1.390 . S
C169 H173 0.950 . S
H170 C166 0.950 1_655 S
C171 C169 1.390 . S
C171 C172 1.387 1_545 S
C171 H174 0.950 . S
C172 C171 1.387 1_565 S
C172 C175 1.387 . S
H173 C169 0.950 . S
H174 C171 0.950 . S
C175 C166 1.390 . S
C175 H168 0.950 1_455 S
C175 C172 1.387 . S
C176 C177 1.387 . S
C176 H180 0.950 1_545 S
C176 C185 1.390 . S
C177 C176 1.387 . S
C177 C179 1.387 1_455 S
H178 C185 0.950 1_565 S
C179 C177 1.387 1_655 S
C179 C181 1.390 . S
C179 H183 0.950 . S
H180 C176 0.950 1_565 S
C181 C179 1.390 . S
C181 C182 1.387 . S
C181 H184 0.950 . S
C182 C181 1.387 . S
C182 C185 1.387 1_655 S
H183 C179 0.950 . S
H184 C181 0.950 . S
C185 C176 1.390 . S
C185 H178 0.950 1_545 S
C185 C182 1.387 1_455 S
C186 C187 1.387 . S
C186 H190 0.950 . S
C186 C195 1.390 . S
C187 C186 1.387 . S
C187 C189 1.387 . S
H188 C195 0.950 . S
C189 C187 1.387 . S
C189 C191 1.390 . S
C189 H193 0.950 . S
H190 C186 0.950 . S
C191 C189 1.390 . S
C191 C192 1.387 . S
C191 H194 0.950 . S
C192 C191 1.387 . S
C192 C195 1.387 . S
H193 C189 0.950 . S
H194 C191 0.950 . S
C195 C186 1.390 . S
C195 H188 0.950 . S
C195 C192 1.387 . S
C196 C197 1.387 . S
C196 H200 0.950 . S
C196 C205 1.390 . S
C197 C196 1.387 . S
C197 C199 1.387 . S
H198 C205 0.950 . S
C199 C197 1.387 . S
C199 C201 1.390 . S
C199 H203 0.950 . S
H200 C196 0.950 . S
C201 C199 1.390 . S
C201 C202 1.387 . S
C201 H204 0.950 . S
C202 C201 1.387 . S
C202 C205 1.387 . S
H203 C199 0.950 . S
H204 C201 0.950 . S
C205 C196 1.390 . S
C205 H198 0.950 . S
C205 C202 1.387 . S
C92 C79 1.471 . S
C87 C15 1.369 . S
C97 C13 1.471 . S
C102 C74 1.447 1_554 S
C107 C18 1.279 1_554 S
C112 C85 1.460 . S
C117 C17 1.438 . S
C122 C68 1.472 . S
C127 C36 1.372 . S
C132 C57 1.469 . S
C137 C34 1.471 . S
C142 C52 1.447 . S
C152 C63 1.460 . S
C147 C39 1.278 . S
C162 C46 1.472 . S
C157 C38 1.441 . S
C167 C14 1.567 1_565 S
C172 C47 1.612 . S
C177 C16 1.400 . S
C182 C58 1.429 . S
C192 C69 1.612 . S
C187 C35 1.571 . S
C197 C37 1.400 . S
C202 C80 1.429 . S
