# Generated by pormake.
# Topology rtl, (3,6)-cn, num edge types: 1
# Building blocks:
#     Node 0, Type 0, BuildingBlock: QEWDON_clean_linker_0, # of connection points: 3
#     Node 1, Type 0, BuildingBlock: QEWDON_clean_linker_0, # of connection points: 3
#     Node 2, Type 0, BuildingBlock: QEWDON_clean_linker_0, # of connection points: 3
#     Node 3, Type 0, BuildingBlock: QEWDON_clean_linker_0, # of connection points: 3
#     Node 4, Type 1, BuildingBlock: KUMJIN_clean_sbu_1, # of connection points: 6
#     Node 5, Type 1, BuildingBlock: KUMJIN_clean_sbu_1, # of connection points: 6
#     Edge 6, Type (0, 1), None
#     Edge 7, Type (0, 1), None
#     Edge 8, Type (0, 1), None
#     Edge 9, Type (0, 1), None
#     Edge 10, Type (0, 1), None
#     Edge 11, Type (0, 1), None
#     Edge 12, Type (0, 1), None
#     Edge 13, Type (0, 1), None
#     Edge 14, Type (0, 1), None
#     Edge 15, Type (0, 1), None
#     Edge 16, Type (0, 1), None
#     Edge 17, Type (0, 1), None
# Relax obj value: 0.089
# Max RMSD: 0.325
# Mean RMSD: 0.239
data_MOF--net-rtl--node1-KUMJIN_clean_sbu_1--node2-QEWDON_clean_linker_0--edge1-none
_symmetry_space_group_name_H-M    P1
_symmetry_Int_Tables_number       1
_symmetry_cell_setting            triclinic
loop_
_symmetry_equiv_pos_as_xyz
'x, y, z'
_cell_length_a     18.373092
_cell_length_b     18.824777
_cell_length_c     13.607533
_cell_angle_alpha  67.872586
_cell_angle_beta   100.83994
_cell_angle_gamma 92.555459
loop_
_atom_site_label
_atom_site_type_symbol
_atom_site_fract_x
_atom_site_fract_y
_atom_site_fract_z
_atom_type_partial_charge
H0 H 0.27668 0.80148 0.17026 0.0
C1 C 0.24263 0.82988 0.09132 0.0
C2 C 0.17078 0.85843 0.08232 0.0
C3 C 0.27081 0.83895 0.99849 0.0
H4 H 0.07255 0.91822 0.97082 0.0
C5 C 0.12763 0.89602 0.9786 0.0
C6 C 0.15415 0.9007 0.88553 0.0
C7 C 0.22564 0.87295 0.89699 0.0
C8 C 0.34861 0.81849 1.0026 0.0
H9 H 0.24766 0.87985 0.82625 0.0
C10 C 0.37432 0.74154 0.04279 0.0
C11 C 0.44201 0.72368 0.02124 0.0
C12 C 0.39362 0.87695 0.94846 0.0
H13 H 0.37481 0.93645 0.91669 0.0
C14 C 0.46133 0.85921 0.92993 0.0
H15 H 0.33973 0.69595 0.08361 0.0
C16 C 0.48451 0.78293 0.96352 0.0
H17 H 0.53605 0.77 0.94506 0.0
H18 H 0.49482 0.90467 0.88632 0.0
H19 H 0.78626 0.68187 0.66337 0.0
C20 C 0.74472 0.67029 0.71351 0.0
C21 C 0.69448 0.61173 0.71442 0.0
C22 C 0.74811 0.70614 0.7879 0.0
H23 H 0.60745 0.54514 0.78662 0.0
C24 C 0.64367 0.59271 0.78415 0.0
C25 C 0.64614 0.62648 0.86038 0.0
C26 C 0.69841 0.68353 0.86173 0.0
C27 C 0.81572 0.74869 0.80971 0.0
H28 H 0.70342 0.70726 0.9239 0.0
C29 C 0.83928 0.81586 0.73179 0.0
C30 C 0.90507 0.85172 0.76073 0.0
C31 C 0.86051 0.71651 0.91202 0.0
H32 H 0.84583 0.66292 0.96956 0.0
C33 C 0.92514 0.75107 0.93989 0.0
H34 H 0.8063 0.84054 0.65138 0.0
C35 C 0.94662 0.81835 0.86563 0.0
H36 H 0.9972 0.84353 0.88999 0.0
H37 H 0.9592 0.72538 0.01922 0.0
H38 H 0.82808 0.16747 0.35501 0.0
C39 C 0.86048 0.17697 0.29283 0.0
C40 C 0.93181 0.14267 0.31955 0.0
C41 C 0.82959 0.22 0.18474 0.0
H42 H 0.02692 0.12519 0.25786 0.0
C43 C 0.97186 0.15119 0.23758 0.0
C44 C 0.94157 0.19503 0.12964 0.0
C45 C 0.87125 0.22984 0.10417 0.0
C46 C 0.74964 0.24119 0.15004 0.0
H47 H 0.84749 0.26246 0.02032 0.0
C48 C 0.71714 0.30321 0.16333 0.0
C49 C 0.64386 0.32961 0.10871 0.0
C50 C 0.7074 0.20284 0.08934 0.0
H51 H 0.73121 0.15495 0.07912 0.0
C52 C 0.63588 0.22794 0.03642 0.0
H53 H 0.74968 0.33193 0.21128 0.0
C54 C 0.60528 0.29155 0.04329 0.0
H55 H 0.55058 0.31059 0.99579 0.0
H56 H 0.60463 0.19931 0.98701 0.0
H57 H 0.30408 0.33294 0.5656 0.0
C58 C 0.33767 0.35192 0.50344 0.0
C59 C 0.37386 0.42309 0.48108 0.0
C60 C 0.34531 0.30624 0.44356 0.0
H61 H 0.44911 0.49908 0.38765 0.0
C62 C 0.41988 0.44569 0.40373 0.0
C63 C 0.42518 0.40304 0.34181 0.0
C64 C 0.38658 0.3355 0.35957 0.0
C65 C 0.3141 0.22754 0.46491 0.0
H66 H 0.38954 0.30527 0.30731 0.0
C67 C 0.24388 0.20492 0.49548 0.0
C68 C 0.21363 0.13438 0.49281 0.0
C69 C 0.35533 0.17474 0.44459 0.0
H70 H 0.41153 0.18585 0.43039 0.0
C71 C 0.32383 0.10933 0.43439 0.0
H72 H 0.21247 0.24226 0.51722 0.0
C73 C 0.25272 0.09134 0.45306 0.0
H74 H 0.23009 0.04098 0.43994 0.0
H75 H 0.35457 0.07262 0.41066 0.0
Eu76 Eu 0.04695 0.93658 0.53386 0.0
C77 C 0.93339 0.258 0.55037 0.0
N78 N 1.00249 0.22678 0.59706 0.0
C79 C 0.05395 0.35171 0.55114 0.0
C80 C 0.92215 0.3383 0.50095 0.0
C81 C 0.06256 0.27184 0.59791 0.0
C82 C 0.98342 0.38515 0.50241 0.0
C83 C 0.80184 0.24101 0.49953 0.0
C84 C 0.87381 0.20956 0.55045 0.0
C85 C 0.79081 0.3208 0.44894 0.0
C86 C 0.85055 0.36933 0.45102 0.0
Eu87 Eu 1.01235 0.09253 0.67568 0.0
N88 N 0.88621 0.13211 0.5988 0.0
C89 C 0.74281 0.19141 0.50079 0.0
C90 C 0.82797 0.0839 0.60385 0.0
C91 C 0.75592 0.11259 0.5539 0.0
H92 H 0.11712 0.24618 0.63634 0.0
H93 H 0.71035 0.07376 0.55719 0.0
H94 H 0.90485 0.81797 0.54003 0.0
H95 H 0.34425 0.87331 0.67297 0.0
H96 H 0.8353 0.02342 0.64745 0.0
H97 H 0.68688 0.21341 0.46211 0.0
H98 H 0.23071 0.955 0.60707 0.0
H99 H 0.10167 0.38738 0.55274 0.0
H100 H 0.73597 0.34546 0.40892 0.0
H101 H 0.84085 0.43083 0.41391 0.0
H102 H 0.88602 0.67871 0.59182 0.0
H103 H 0.9769 0.44708 0.46569 0.0
H104 H 0.33486 0.73275 0.72651 0.0
N105 N 0.0212 0.80499 0.59782 0.0
C106 C 0.08107 0.75592 0.64089 0.0
C107 C 0.94067 0.69966 0.60902 0.0
C108 C 0.07258 0.67613 0.67021 0.0
C109 C 0.95163 0.77836 0.58031 0.0
C110 C 1.00122 0.64824 0.65536 0.0
N111 N 0.1579 0.86291 0.61875 0.0
C112 C 0.22596 0.89448 0.62626 0.0
C113 C 0.21478 0.7367 0.68793 0.0
C114 C 0.15142 0.78578 0.64949 0.0
C115 C 0.28487 0.76868 0.6961 0.0
C116 C 0.29044 0.84799 0.6654 0.0
H117 H 0.99254 0.58742 0.67579 0.0
H118 H 0.1302 0.56583 0.72954 0.0
H119 H 0.2538 0.61934 0.74187 0.0
O120 O 0.09905 0.96343 0.39092 0.0
O121 O 0.09093 0.89443 0.71675 0.0
O122 O 0.11078 0.01096 0.72744 0.0
O123 O 0.9957 0.90555 0.39747 0.0
O124 O 0.11997 0.04078 0.50809 0.0
O125 O 0.11684 0.12369 0.59977 0.0
O126 O 0.96831 0.09028 0.81655 0.0
O127 O 0.98827 0.13992 0.49322 0.0
O128 O 0.95492 0.02675 0.47845 0.0
O129 O 0.08128 0.12162 0.80304 0.0
O130 O 0.96286 0.97285 0.73204 0.0
O131 O 0.93679 0.93355 0.58784 0.0
C132 C 0.10947 0.93661 0.77559 0.0
C133 C 0.07921 0.87073 0.30805 0.0
C134 C 0.1379 0.83837 0.18121 0.0
C135 C 0.13347 0.76025 0.24433 0.0
C136 C 0.0739 0.79185 0.36667 0.0
C137 C 0.10142 0.73734 0.33585 0.0
C138 C 0.11057 0.89403 0.21336 0.0
C139 C 0.14402 0.10076 0.53238 0.0
C140 C 0.05048 0.92728 0.3454 0.0
C141 C 0.13551 0.62717 0.70791 0.0
C142 C 0.20621 0.6576 0.71529 0.0
C143 C 0.96575 0.10023 0.43295 0.0
C144 C 0.02395 0.17188 0.90667 0.0
C145 C 0.98408 0.20883 0.04269 0.0
C146 C 0.01944 0.27874 1.00445 0.0
C147 C 0.06079 0.24162 0.87179 0.0
C148 C 0.98594 0.15546 0.9933 0.0
C149 C 0.05805 0.29475 0.91999 0.0
C150 C 0.93301 0.92414 0.68761 0.0
C151 C 0.02938 0.11382 0.85912 0.0
H152 H 0.15365 0.71658 0.22139 0.0
H153 H 0.04729 0.77171 0.43573 0.0
H154 H 0.09713 0.67689 0.38268 0.0
H155 H 0.11405 0.95453 0.16573 0.0
H156 H 1.01708 0.32087 0.04033 0.0
H157 H 0.0927 0.25496 0.80838 0.0
H158 H 0.95798 0.10158 0.02213 0.0
H159 H 0.08627 0.34841 0.89206 0.0
Eu160 Eu 0.44139 0.49573 0.99018 0.0
C161 C 0.74728 0.63719 0.17455 0.0
N162 N 0.72581 0.56528 0.1832 0.0
C163 C 0.85053 0.52902 0.18943 0.0
C164 C 0.82196 0.65767 0.17235 0.0
C165 C 0.7759 0.51158 0.18976 0.0
C166 C 0.8739 0.60198 0.18233 0.0
C167 C 0.71676 0.76435 0.1644 0.0
C168 C 0.69524 0.6896 0.17273 0.0
C169 C 0.79018 0.7859 0.15633 0.0
C170 C 0.84285 0.73238 0.16211 0.0
Eu171 Eu 0.60371 0.53606 0.21194 0.0
N172 N 0.62536 0.66623 0.18647 0.0
C173 C 0.66493 0.81417 0.17022 0.0
C174 C 0.57787 0.71191 0.20466 0.0
C175 C 0.59563 0.7873 0.19253 0.0
H176 H 0.75946 0.45416 0.2005 0.0
H177 H 0.55652 0.82397 0.20311 0.0
H178 H 0.32177 0.64218 0.9357 0.0
H179 H 0.41158 0.18563 0.18451 0.0
H180 H 0.52626 0.6905 0.23001 0.0
H181 H 0.67918 0.87213 0.16326 0.0
H182 H 0.48108 0.30326 0.11937 0.0
H183 H 0.89023 0.48562 0.19697 0.0
H184 H 0.80749 0.84303 0.14984 0.0
H185 H 0.89988 0.74916 0.15987 0.0
H186 H 0.1926 0.65968 0.94946 0.0
H187 H 0.93199 0.61503 0.18325 0.0
H188 H 0.27793 0.19391 0.18618 0.0
N189 N 0.32193 0.52064 1.00946 0.0
C190 C 0.28102 0.45721 0.04667 0.0
C191 C 0.21706 0.6025 0.97857 0.0
C192 C 0.20596 0.46461 0.05182 0.0
C193 C 0.29091 0.59251 0.9734 0.0
C194 C 0.1743 0.53831 0.01764 0.0
N195 N 0.38808 0.37834 0.08002 0.0
C196 C 0.423 0.30823 0.11731 0.0
C197 C 0.27301 0.31815 0.12068 0.0
C198 C 0.3146 0.3844 0.08148 0.0
C199 C 0.30816 0.24605 0.15604 0.0
C200 C 0.38358 0.24112 0.15509 0.0
H201 H 0.1167 0.54629 0.01996 0.0
H202 H 0.10717 0.40341 0.09547 0.0
H203 H 0.16555 0.27533 0.15507 0.0
O204 O 0.426 0.43663 0.87537 0.0
O205 O 0.42096 0.47715 0.15629 0.0
O206 O 0.53371 0.43101 0.26038 0.0
O207 O 0.36344 0.54027 0.84095 0.0
O208 O 0.54423 0.42124 0.03933 0.0
O209 O 0.63047 0.42639 0.18661 0.0
O210 O 0.58976 0.55033 0.3602 0.0
O211 O 0.62903 0.59233 0.04319 0.0
O212 O 0.53919 0.55992 0.92112 0.0
O213 O 0.68644 0.48651 0.35962 0.0
O214 O 0.49013 0.59849 0.14906 0.0
O215 O 0.458 0.61902 0.96903 0.0
C216 C 0.4616 0.43526 0.24813 0.0
C217 C 0.37515 0.51126 0.69057 0.0
C218 C 0.36355 0.47808 0.53196 0.0
C219 C 0.35162 0.55651 0.4662 0.0
C220 C 0.36689 0.58946 0.62331 0.0
C221 C 0.35421 0.61166 0.51174 0.0
C222 C 0.37379 0.45556 0.64447 0.0
C223 C 0.60561 0.39752 0.11169 0.0
C224 C 0.37624 0.48714 0.80685 0.0
C225 C 0.16482 0.39859 0.09079 0.0
C226 C 0.19809 0.32568 0.12473 0.0
C227 C 0.60136 0.59264 0.94641 0.0
C228 C 0.6814 0.5042 0.52599 0.0
C229 C 0.70781 0.55568 0.66778 0.0
C230 C 0.75323 0.49081 0.73308 0.0
C231 C 0.72668 0.43954 0.59257 0.0
C232 C 0.67133 0.56214 0.56439 0.0
C233 C 0.76232 0.43292 0.69566 0.0
C234 C 0.46612 0.64399 0.04807 0.0
C235 C 0.6533 0.5158 0.41256 0.0
H236 H 0.34231 0.57544 0.379 0.0
H237 H 0.36825 0.63358 0.65652 0.0
H238 H 0.34645 0.67182 0.46036 0.0
H239 H 0.38175 0.3953 0.69586 0.0
H240 H 0.78072 0.48453 0.81383 0.0
H241 H 0.73513 0.39448 0.56451 0.0
H242 H 0.63675 0.61255 0.51361 0.0
H243 H 0.79725 0.38295 0.74651 0.0
loop_
_geom_bond_atom_site_label_1
_geom_bond_atom_site_label_2
_geom_bond_distance
_geom_bond_site_symmetry_2
_ccdc_geom_bond_type
H0 C1 0.949 . S
C1 H0 0.949 . S
C1 C2 1.395 . S
C1 C3 1.391 1_554 S
C2 C1 1.395 . S
C2 C5 1.390 1_554 S
C3 C1 1.391 1_556 S
C3 C7 1.387 . S
C3 C8 1.491 . S
H4 C5 0.950 . S
C5 C2 1.390 1_556 S
C5 H4 0.950 . S
C5 C6 1.378 . S
C6 C5 1.378 . S
C6 C7 1.409 . S
C7 C3 1.387 . S
C7 C6 1.409 . S
C7 H9 0.951 . S
C8 C3 1.491 . S
C8 C10 1.382 1_556 S
C8 C12 1.404 . S
H9 C7 0.951 . S
C10 C8 1.382 1_554 S
C10 C11 1.390 . S
C10 H15 0.949 . S
C11 C10 1.390 . S
C11 C16 1.399 . S
C12 C8 1.404 . S
C12 H13 0.950 . S
C12 C14 1.375 . S
H13 C12 0.950 . S
C14 C12 1.375 . S
C14 C16 1.382 1_556 S
C14 H18 0.950 . S
H15 C10 0.949 . S
C16 C11 1.399 . S
C16 C14 1.382 1_554 S
C16 H17 0.952 . S
H17 C16 0.952 . S
H18 C14 0.950 . S
H19 C20 0.949 . S
C20 H19 0.949 . S
C20 C21 1.395 . S
C20 C22 1.391 . S
C21 C20 1.395 . S
C21 C24 1.390 . S
C22 C20 1.391 . S
C22 C26 1.387 . S
C22 C27 1.491 . S
H23 C24 0.950 . S
C24 C21 1.390 . S
C24 H23 0.950 . S
C24 C25 1.378 . S
C25 C24 1.378 . S
C25 C26 1.409 . S
C26 C22 1.387 . S
C26 C25 1.409 . S
C26 H28 0.951 . S
C27 C22 1.491 . S
C27 C29 1.382 . S
C27 C31 1.404 . S
H28 C26 0.951 . S
C29 C27 1.382 . S
C29 C30 1.390 . S
C29 H34 0.949 . S
C30 C29 1.390 . S
C30 C35 1.399 . S
C31 C27 1.404 . S
C31 H32 0.950 . S
C31 C33 1.375 . S
H32 C31 0.950 . S
C33 C31 1.375 . S
C33 C35 1.382 . S
C33 H37 0.950 . S
H34 C29 0.949 . S
C35 C30 1.399 . S
C35 C33 1.382 . S
C35 H36 0.952 . S
H36 C35 0.952 . S
H37 C33 0.950 . S
H38 C39 0.949 . S
C39 H38 0.949 . S
C39 C40 1.395 . S
C39 C41 1.391 . S
C40 C39 1.395 . S
C40 C43 1.390 . S
C41 C39 1.391 . S
C41 C45 1.387 . S
C41 C46 1.491 . S
H42 C43 0.950 . S
C43 C40 1.390 . S
C43 H42 0.950 . S
C43 C44 1.378 . S
C44 C43 1.378 . S
C44 C45 1.409 . S
C45 C41 1.387 . S
C45 C44 1.409 . S
C45 H47 0.951 1_554 S
C46 C41 1.491 . S
C46 C48 1.382 . S
C46 C50 1.404 . S
H47 C45 0.951 1_556 S
C48 C46 1.382 . S
C48 C49 1.390 . S
C48 H53 0.949 . S
C49 C48 1.390 . S
C49 C54 1.399 . S
C50 C46 1.404 . S
C50 H51 0.950 1_554 S
C50 C52 1.375 1_554 S
H51 C50 0.950 1_556 S
C52 C50 1.375 1_556 S
C52 C54 1.382 1_556 S
C52 H56 0.950 . S
H53 C48 0.949 . S
C54 C49 1.399 . S
C54 C52 1.382 1_554 S
C54 H55 0.952 . S
H55 C54 0.952 . S
H56 C52 0.950 . S
H57 C58 0.949 . S
C58 H57 0.949 . S
C58 C59 1.395 . S
C58 C60 1.391 . S
C59 C58 1.395 . S
C59 C62 1.390 . S
C60 C58 1.391 . S
C60 C64 1.387 . S
C60 C65 1.491 . S
H61 C62 0.950 . S
C62 C59 1.390 . S
C62 H61 0.950 . S
C62 C63 1.378 . S
C63 C62 1.378 . S
C63 C64 1.409 . S
C64 C60 1.387 . S
C64 C63 1.409 . S
C64 H66 0.951 . S
C65 C60 1.491 . S
C65 C67 1.382 . S
C65 C69 1.404 . S
H66 C64 0.951 . S
C67 C65 1.382 . S
C67 C68 1.390 . S
C67 H72 0.949 . S
C68 C67 1.390 . S
C68 C73 1.399 . S
C69 C65 1.404 . S
C69 H70 0.950 . S
C69 C71 1.375 . S
H70 C69 0.950 . S
C71 C69 1.375 . S
C71 C73 1.382 . S
C71 H75 0.950 . S
H72 C67 0.949 . S
C73 C68 1.399 . S
C73 C71 1.382 . S
C73 H74 0.952 . S
H74 C73 0.952 . S
H75 C71 0.950 . S
Eu76 N105 2.600 . S
Eu76 N111 2.562 . S
Eu76 O120 2.462 . S
Eu76 O121 2.373 . S
Eu76 O123 2.432 . S
Eu76 O124 2.291 1_565 S
Eu76 O128 2.335 1_465 S
Eu76 O131 2.372 1_455 S
Eu76 C140 2.787 . S
C77 N78 1.365 . S
C77 C80 1.405 . S
C77 C84 1.448 . S
N78 C77 1.365 . S
N78 C81 1.319 1_655 S
N78 Eu87 2.600 . S
C79 C81 1.397 . S
C79 C82 1.367 1_455 S
C79 H99 0.931 . S
C80 C77 1.405 . S
C80 C82 1.403 . S
C80 C86 1.439 . S
C81 N78 1.319 1_455 S
C81 C79 1.397 . S
C81 H92 0.930 . S
C82 C79 1.367 1_655 S
C82 C80 1.403 . S
C82 H103 0.929 . S
C83 C84 1.430 . S
C83 C85 1.387 . S
C83 C89 1.404 . S
C84 C77 1.448 . S
C84 C83 1.430 . S
C84 N88 1.351 . S
C85 C83 1.387 . S
C85 C86 1.374 . S
C85 H100 0.931 . S
C86 C80 1.439 . S
C86 C85 1.374 . S
C86 H101 0.931 . S
Eu87 N78 2.600 . S
Eu87 N88 2.562 . S
Eu87 O122 2.335 1_655 S
Eu87 O125 2.372 1_655 S
Eu87 O126 2.462 . S
Eu87 O127 2.373 . S
Eu87 O129 2.432 . S
Eu87 O130 2.291 1_545 S
Eu87 C151 2.787 . S
N88 C84 1.351 . S
N88 Eu87 2.562 . S
N88 C90 1.325 . S
C89 C83 1.404 . S
C89 C91 1.366 . S
C89 H97 0.930 . S
C90 N88 1.325 . S
C90 C91 1.416 . S
C90 H96 0.929 . S
C91 C89 1.366 . S
C91 C90 1.416 . S
C91 H93 0.930 . S
H92 C81 0.930 . S
H93 C91 0.930 . S
H94 C109 0.930 1_655 S
H95 C116 0.930 . S
H96 C90 0.929 . S
H97 C89 0.930 . S
H98 C112 0.929 . S
H99 C79 0.931 . S
H100 C85 0.931 . S
H101 C86 0.931 . S
H102 C107 0.931 1_655 S
H103 C82 0.929 . S
H104 C115 0.930 . S
N105 Eu76 2.600 . S
N105 C106 1.365 . S
N105 C109 1.319 . S
C106 N105 1.365 . S
C106 C108 1.405 . S
C106 C114 1.448 . S
C107 H102 0.931 1_455 S
C107 C109 1.397 . S
C107 C110 1.367 . S
C108 C106 1.405 . S
C108 C110 1.403 . S
C108 C141 1.439 . S
C109 H94 0.930 1_455 S
C109 N105 1.319 . S
C109 C107 1.397 . S
C110 C107 1.367 . S
C110 C108 1.403 . S
C110 H117 0.929 . S
N111 Eu76 2.562 . S
N111 C112 1.325 . S
N111 C114 1.351 . S
C112 H98 0.929 . S
C112 N111 1.325 . S
C112 C116 1.416 . S
C113 C114 1.430 . S
C113 C115 1.404 . S
C113 C142 1.387 . S
C114 C106 1.448 . S
C114 N111 1.351 . S
C114 C113 1.430 . S
C115 H104 0.930 . S
C115 C113 1.404 . S
C115 C116 1.366 . S
C116 H95 0.930 . S
C116 C112 1.416 . S
C116 C115 1.366 . S
H117 C110 0.929 . S
H118 C141 0.931 . S
H119 C142 0.931 . S
O120 Eu76 2.462 . S
O120 C140 1.252 . S
O121 Eu76 2.373 . S
O121 C132 1.249 . S
O122 Eu87 2.335 1_455 S
O122 C132 1.264 1_545 S
O123 Eu76 2.432 . S
O123 C140 1.268 . S
O124 Eu76 2.291 1_545 S
O124 C139 1.255 . S
O125 Eu87 2.372 1_455 S
O125 C139 1.257 . S
O126 Eu87 2.462 . S
O126 C151 1.252 . S
O127 Eu87 2.373 . S
O127 C143 1.249 . S
O128 Eu76 2.335 1_645 S
O128 C143 1.264 . S
O129 Eu87 2.432 . S
O129 C151 1.268 . S
O130 Eu87 2.291 1_565 S
O130 C150 1.255 . S
O131 Eu76 2.372 1_655 S
O131 C150 1.257 . S
C132 O121 1.249 . S
C132 O122 1.264 1_565 S
C133 C136 1.382 . S
C133 C138 1.390 . S
C133 C140 1.506 . S
C134 C135 1.398 . S
C134 C138 1.392 . S
C135 C134 1.398 . S
C135 C137 1.372 . S
C135 H152 0.931 . S
C136 C133 1.382 . S
C136 C137 1.390 . S
C136 H153 0.931 . S
C137 C135 1.372 . S
C137 C136 1.390 . S
C137 H154 0.929 . S
C138 C133 1.390 . S
C138 C134 1.392 . S
C138 H155 0.930 . S
C139 O124 1.255 . S
C139 O125 1.257 . S
C140 Eu76 2.787 . S
C140 O120 1.252 . S
C140 O123 1.268 . S
C140 C133 1.506 . S
C141 C108 1.439 . S
C141 H118 0.931 . S
C141 C142 1.374 . S
C142 C113 1.387 . S
C142 H119 0.931 . S
C142 C141 1.374 . S
C143 O127 1.249 . S
C143 O128 1.264 . S
C144 C147 1.382 . S
C144 C148 1.390 . S
C144 C151 1.506 . S
C145 C146 1.398 . S
C145 C148 1.392 1_554 S
C146 C145 1.398 . S
C146 C149 1.372 . S
C146 H156 0.931 . S
C147 C144 1.382 . S
C147 C149 1.390 1_556 S
C147 H157 0.931 1_655 S
C148 C144 1.390 . S
C148 C145 1.392 1_556 S
C148 H158 0.930 . S
C149 C146 1.372 . S
C149 C147 1.390 1_554 S
C149 H159 0.929 . S
C150 O130 1.255 . S
C150 O131 1.257 . S
C151 Eu87 2.787 . S
C151 O126 1.252 . S
C151 O129 1.268 . S
C151 C144 1.506 . S
H152 C135 0.931 . S
H153 C136 0.931 . S
H154 C137 0.929 . S
H155 C138 0.930 . S
H156 C146 0.931 . S
H157 C147 0.931 1_455 S
H158 C148 0.930 . S
H159 C149 0.929 . S
Eu160 N189 2.600 1_554 S
Eu160 N195 2.562 . S
Eu160 O204 2.462 1_554 S
Eu160 O205 2.373 . S
Eu160 O207 2.432 1_554 S
Eu160 O208 2.291 . S
Eu160 O212 2.335 1_554 S
Eu160 O215 2.376 1_554 S
Eu160 C224 2.787 1_554 S
C161 N162 1.365 . S
C161 C164 1.405 . S
C161 C168 1.448 . S
N162 C161 1.365 . S
N162 C165 1.319 . S
N162 Eu171 2.600 . S
C163 C165 1.397 . S
C163 C166 1.367 . S
C163 H183 0.931 . S
C164 C161 1.405 . S
C164 C166 1.403 . S
C164 C170 1.439 . S
C165 N162 1.319 . S
C165 C163 1.397 . S
C165 H176 0.930 . S
C166 C163 1.367 . S
C166 C164 1.403 . S
C166 H187 0.929 . S
C167 C168 1.430 . S
C167 C169 1.387 . S
C167 C173 1.404 . S
C168 C161 1.448 . S
C168 C167 1.430 . S
C168 N172 1.351 . S
C169 C167 1.387 . S
C169 C170 1.374 . S
C169 H184 0.931 . S
C170 C164 1.439 . S
C170 C169 1.374 . S
C170 H185 0.931 . S
Eu171 N162 2.600 . S
Eu171 N172 2.562 . S
Eu171 O206 2.335 . S
Eu171 O209 2.372 . S
Eu171 O210 2.462 . S
Eu171 O211 2.373 . S
Eu171 O213 2.432 . S
Eu171 O214 2.291 . S
Eu171 C235 2.787 . S
N172 C168 1.351 . S
N172 Eu171 2.562 . S
N172 C174 1.325 . S
C173 C167 1.404 . S
C173 C175 1.366 . S
C173 H181 0.930 . S
C174 N172 1.325 . S
C174 C175 1.416 . S
C174 H180 0.929 . S
C175 C173 1.366 . S
C175 C174 1.416 . S
C175 H177 0.930 . S
H176 C165 0.930 . S
H177 C175 0.930 . S
H178 C193 0.930 . S
H179 C200 0.930 . S
H180 C174 0.929 . S
H181 C173 0.930 . S
H182 C196 0.929 . S
H183 C163 0.931 . S
H184 C169 0.931 . S
H185 C170 0.931 . S
H186 C191 0.931 . S
H187 C166 0.929 . S
H188 C199 0.930 . S
N189 Eu160 2.600 1_556 S
N189 C190 1.365 1_556 S
N189 C193 1.319 . S
C190 N189 1.365 1_554 S
C190 C192 1.405 . S
C190 C198 1.448 . S
C191 H186 0.931 . S
C191 C193 1.397 . S
C191 C194 1.367 1_556 S
C192 C190 1.405 . S
C192 C194 1.403 . S
C192 C225 1.439 . S
C193 H178 0.930 . S
C193 N189 1.319 . S
C193 C191 1.397 . S
C194 C191 1.367 1_554 S
C194 C192 1.403 . S
C194 H201 0.929 . S
N195 Eu160 2.562 . S
N195 C196 1.325 . S
N195 C198 1.351 . S
C196 H182 0.929 . S
C196 N195 1.325 . S
C196 C200 1.416 . S
C197 C198 1.430 . S
C197 C199 1.404 . S
C197 C226 1.387 . S
C198 C190 1.448 . S
C198 N195 1.351 . S
C198 C197 1.430 . S
C199 H188 0.930 . S
C199 C197 1.404 . S
C199 C200 1.366 . S
C200 H179 0.930 . S
C200 C196 1.416 . S
C200 C199 1.366 . S
H201 C194 0.929 . S
H202 C225 0.931 . S
H203 C226 0.931 . S
O204 Eu160 2.462 1_556 S
O204 C224 1.252 . S
O205 Eu160 2.373 . S
O205 C216 1.249 . S
O206 Eu171 2.335 . S
O206 C216 1.264 . S
O207 Eu160 2.432 1_556 S
O207 C224 1.268 . S
O208 Eu160 2.291 . S
O208 C223 1.255 . S
O209 Eu171 2.372 . S
O209 C223 1.257 . S
O210 Eu171 2.462 . S
O210 C235 1.252 . S
O211 Eu171 2.373 . S
O211 C227 1.249 1_554 S
O212 Eu160 2.335 1_556 S
O212 C227 1.264 . S
O213 Eu171 2.432 . S
O213 C235 1.268 . S
O214 Eu171 2.291 . S
O214 C234 1.255 . S
O215 Eu160 2.376 1_556 S
O215 C234 1.248 1_556 S
C216 O205 1.249 . S
C216 O206 1.264 . S
C217 C220 1.382 . S
C217 C222 1.390 . S
C217 C224 1.506 . S
C218 C219 1.398 . S
C218 C222 1.392 . S
C219 C218 1.398 . S
C219 C221 1.372 . S
C219 H236 0.931 . S
C220 C217 1.382 . S
C220 C221 1.390 . S
C220 H237 0.931 . S
C221 C219 1.372 . S
C221 C220 1.390 . S
C221 H238 0.929 . S
C222 C217 1.390 . S
C222 C218 1.392 . S
C222 H239 0.930 . S
C223 O208 1.255 . S
C223 O209 1.257 . S
C224 Eu160 2.787 1_556 S
C224 O204 1.252 . S
C224 O207 1.268 . S
C224 C217 1.506 . S
C225 C192 1.439 . S
C225 H202 0.931 . S
C225 C226 1.374 . S
C226 C197 1.387 . S
C226 H203 0.931 . S
C226 C225 1.374 . S
C227 O211 1.249 1_556 S
C227 O212 1.264 . S
C228 C231 1.382 . S
C228 C232 1.390 . S
C228 C235 1.506 . S
C229 C230 1.398 . S
C229 C232 1.392 . S
C230 C229 1.398 . S
C230 C233 1.372 . S
C230 H240 0.931 . S
C231 C228 1.382 . S
C231 C233 1.390 . S
C231 H241 0.931 . S
C232 C228 1.390 . S
C232 C229 1.392 . S
C232 H242 0.930 . S
C233 C230 1.372 . S
C233 C231 1.390 . S
C233 H243 0.929 . S
C234 O214 1.255 . S
C234 O215 1.248 1_554 S
C235 Eu171 2.787 . S
C235 O210 1.252 . S
C235 O213 1.268 . S
C235 C228 1.506 . S
H236 C219 0.931 . S
H237 C220 0.931 . S
H238 C221 0.929 . S
H239 C222 0.930 . S
H240 C230 0.931 . S
H241 C231 0.931 . S
H242 C232 0.930 . S
H243 C233 0.929 . S
C139 C68 1.910 . S
C11 C234 1.751 . S
C30 C150 1.895 . S
C49 C223 1.874 . S
C134 C2 1.497 . S
C227 C25 1.966 . S
C40 C143 1.936 . S
C59 C218 1.600 . S
C229 C21 1.535 . S
C145 C44 1.337 . S
C216 C63 1.790 . S
C6 C132 1.906 . S
