# Generated by pormake.
# Topology ssa, (4,4)-cn, num edge types: 1
# Building blocks:
#     Node 0, Type 0, BuildingBlock: IZENUY_clean_linker_0, # of connection points: 4
#     Node 1, Type 0, BuildingBlock: IZENUY_clean_linker_0, # of connection points: 4
#     Node 2, Type 0, BuildingBlock: IZENUY_clean_linker_0, # of connection points: 4
#     Node 3, Type 0, BuildingBlock: IZENUY_clean_linker_0, # of connection points: 4
#     Node 4, Type 0, BuildingBlock: IZENUY_clean_linker_0, # of connection points: 4
#     Node 5, Type 0, BuildingBlock: IZENUY_clean_linker_0, # of connection points: 4
#     Node 6, Type 1, BuildingBlock: NAWXER_clean_sbu_0, # of connection points: 4
#     Node 7, Type 1, BuildingBlock: NAWXER_clean_sbu_0, # of connection points: 4
#     Node 8, Type 1, BuildingBlock: NAWXER_clean_sbu_0, # of connection points: 4
#     Node 9, Type 1, BuildingBlock: NAWXER_clean_sbu_0, # of connection points: 4
#     Node 10, Type 1, BuildingBlock: NAWXER_clean_sbu_0, # of connection points: 4
#     Node 11, Type 1, BuildingBlock: NAWXER_clean_sbu_0, # of connection points: 4
#     Edge 12, Type (0, 1), None
#     Edge 13, Type (0, 1), None
#     Edge 14, Type (0, 1), None
#     Edge 15, Type (0, 1), None
#     Edge 16, Type (0, 1), None
#     Edge 17, Type (0, 1), None
#     Edge 18, Type (0, 1), None
#     Edge 19, Type (0, 1), None
#     Edge 20, Type (0, 1), None
#     Edge 21, Type (0, 1), None
#     Edge 22, Type (0, 1), None
#     Edge 23, Type (0, 1), None
#     Edge 24, Type (0, 1), None
#     Edge 25, Type (0, 1), None
#     Edge 26, Type (0, 1), None
#     Edge 27, Type (0, 1), None
#     Edge 28, Type (0, 1), None
#     Edge 29, Type (0, 1), None
#     Edge 30, Type (0, 1), None
#     Edge 31, Type (0, 1), None
#     Edge 32, Type (0, 1), None
#     Edge 33, Type (0, 1), None
#     Edge 34, Type (0, 1), None
#     Edge 35, Type (0, 1), None
# Relax obj value: 0.001
# Max RMSD: 0.033
# Mean RMSD: 0.016
data_MOF--net-ssa--node1-NAWXER_clean_sbu_0--node2-IZENUY_clean_linker_0--edge1-none
_symmetry_space_group_name_H-M    P1
_symmetry_Int_Tables_number       1
_symmetry_cell_setting            triclinic
loop_
_symmetry_equiv_pos_as_xyz
'x, y, z'
_cell_length_a     24.167571
_cell_length_b     23.760512
_cell_length_c     18.313514
_cell_angle_alpha  93.499201
_cell_angle_beta   92.182318
_cell_angle_gamma 122.03405
loop_
_atom_site_label
_atom_site_type_symbol
_atom_site_fract_x
_atom_site_fract_y
_atom_site_fract_z
_atom_type_partial_charge
H0 H 0.87616 0.40519 1.01492 0.0
H1 H 0.93447 0.61008 1.04018 0.0
H2 H 0.73168 0.45668 0.99715 0.0
H3 H 0.09184 0.61643 0.12672 0.0
H4 H 0.03461 0.41172 0.11417 0.0
H5 H 0.23751 0.5664 0.12528 0.0
N6 N 0.97483 0.52999 0.06872 0.0
N7 N 0.99111 0.48957 0.08121 0.0
C8 C 0.86194 0.44132 1.02151 0.0
C9 C 0.7978 0.42275 0.99837 0.0
C10 C 0.90957 0.50889 1.04585 0.0
C11 C 0.89501 0.55812 1.03694 0.0
C12 C 0.83161 0.5394 1.01255 0.0
C13 C 0.7815 0.47095 1.01313 0.0
C14 C 0.10565 0.58001 0.11954 0.0
C15 C 0.17131 0.59978 0.1343 0.0
C16 C 0.057 0.51146 0.10195 0.0
C17 C 0.07312 0.46341 0.11168 0.0
C18 C 0.13862 0.48395 0.12694 0.0
C19 C 0.18657 0.55117 0.11725 0.0
H20 H 0.59626 0.11191 0.63046 0.0
H21 H 0.39665 0.05777 0.60162 0.0
H22 H 0.55109 0.26351 0.63852 0.0
H23 H 0.38952 0.89765 0.50489 0.0
H24 H 0.58816 0.94871 0.53305 0.0
H25 H 0.43205 0.74457 0.48253 0.0
N26 N 0.47339 0.01279 0.57361 0.0
N27 N 0.51224 0.99439 0.56272 0.0
C28 C 0.56183 0.12745 0.62249 0.0
C29 C 0.58158 0.19406 0.64274 0.0
C30 C 0.49534 0.07966 0.59798 0.0
C31 C 0.44815 0.09673 0.60509 0.0
C32 C 0.4681 0.16264 0.62642 0.0
C33 C 0.53584 0.21183 0.62525 0.0
C34 C 0.42339 0.88119 0.51097 0.0
C35 C 0.40308 0.81533 0.48588 0.0
C36 C 0.4898 0.92761 0.53703 0.0
C37 C 0.53651 0.91009 0.52806 0.0
C38 C 0.51601 0.84487 0.50201 0.0
C39 C 0.44791 0.79585 0.49985 0.0
H40 H 0.41574 0.39869 0.97952 0.0
H41 H 0.61387 0.55945 0.95683 0.0
H42 H 0.56115 0.35839 0.91551 0.0
H43 H 0.55889 0.64294 0.10761 0.0
H44 H 0.35854 0.4891 0.12931 0.0
H45 H 0.42339 0.69193 0.19022 0.0
N46 N 0.50812 0.53117 1.02118 0.0
N47 N 0.46207 0.51402 1.06102 0.0
C48 C 0.46478 0.41583 0.96449 0.0
C49 C 0.47932 0.36956 0.93481 0.0
C50 C 0.51567 0.4841 0.97845 0.0
C51 C 0.57721 0.50648 0.95205 0.0
C52 C 0.59232 0.46074 0.92293 0.0
C53 C 0.54561 0.39299 0.92467 0.0
C54 C 0.51041 0.62826 0.12267 0.0
C55 C 0.50044 0.67575 0.1584 0.0
C56 C 0.45663 0.56189 0.10521 0.0
C57 C 0.39665 0.54162 0.13468 0.0
C58 C 0.38639 0.58853 0.17176 0.0
C59 C 0.43502 0.65594 0.17075 0.0
H60 H 0.0812 0.47665 0.52002 0.0
H61 H 0.06229 0.64267 0.48652 0.0
H62 H 0.10593 0.55053 0.30899 0.0
H63 H 0.93501 0.55509 0.64392 0.0
H64 H 0.93113 0.37463 0.66481 0.0
H65 H 0.88148 0.46074 0.84277 0.0
N66 N 0.0173 0.53888 0.5666 0.0
N67 N 0.98915 0.48458 0.59409 0.0
C68 C 0.07767 0.50807 0.48214 0.0
C69 C 0.1019 0.51299 0.41244 0.0
C70 C 0.05253 0.54836 0.50351 0.0
C71 C 0.06697 0.60254 0.46313 0.0
C72 C 0.09186 0.60601 0.39469 0.0
C73 C 0.09018 0.54943 0.36405 0.0
C74 C 0.93174 0.51856 0.67905 0.0
C75 C 0.90144 0.50998 0.74513 0.0
C76 C 0.95246 0.47476 0.65607 0.0
C77 C 0.92938 0.41576 0.69091 0.0
C78 C 0.89878 0.40876 0.75614 0.0
C79 C 0.90269 0.46539 0.79043 0.0
H80 H 0.44935 0.0793 1.00218 0.0
H81 H 0.62467 0.0771 0.98917 0.0
H82 H 0.54171 0.11401 0.80131 0.0
H83 H 0.53276 0.95226 0.15045 0.0
H84 H 0.35663 0.95307 0.16157 0.0
H85 H 0.43125 0.90218 0.34504 0.0
N86 N 0.51754 0.02791 1.06225 0.0
N87 N 0.46471 1.00376 0.09131 0.0
C88 C 0.48487 0.07865 0.96841 0.0
C89 C 0.49336 0.10296 0.8989 0.0
C90 C 0.52745 0.05931 0.9963 0.0
C91 C 0.58467 0.07752 0.96098 0.0
C92 C 0.5918 0.10231 0.89225 0.0
C93 C 0.53667 0.09678 0.85579 0.0
C94 C 0.49582 0.95062 0.18355 0.0
C95 C 0.48427 0.92128 0.25027 0.0
C96 C 0.45407 0.97125 0.15655 0.0
C97 C 0.39567 0.95119 0.19005 0.0
C98 C 0.3855 0.92175 0.25615 0.0
C99 C 0.43879 0.92374 0.29288 0.0
H100 H 0.38088 0.45357 0.50708 0.0
H101 H 0.54726 0.64961 0.48199 0.0
H102 H 0.39694 0.54344 0.30757 0.0
H103 H 0.6143 0.5924 0.64937 0.0
H104 H 0.45056 0.39271 0.66975 0.0
H105 H 0.64482 0.44339 0.72384 0.0
N106 N 0.50916 0.54651 0.55915 0.0
N107 N 0.48717 0.4978 0.5963 0.0
C108 C 0.40825 0.49368 0.47293 0.0
C109 C 0.37951 0.49259 0.40397 0.0
C110 C 0.47217 0.54822 0.4979 0.0
C111 C 0.50171 0.60539 0.45922 0.0
C112 C 0.47192 0.60549 0.39211 0.0
C113 C 0.41688 0.54535 0.36132 0.0
C114 C 0.59483 0.5431 0.66711 0.0
C115 C 0.63768 0.52752 0.70094 0.0
C116 C 0.52773 0.49209 0.64994 0.0
C117 C 0.50257 0.42982 0.67814 0.0
C118 C 0.54505 0.41384 0.71168 0.0
C119 C 0.6122 0.46029 0.71294 0.0
C120 C 0.30772 0.46155 0.38887 0.0
C121 C 0.15628 0.46086 0.1919 0.0
O122 O 0.27469 0.41426 0.33812 0.0
Zn123 Zn 0.21548 0.44003 0.28799 0.0
O124 O 0.292 0.50429 0.39907 0.0
Zn125 Zn 0.25761 0.5441 0.32841 0.0
O126 O 0.2137 0.56749 0.39549 0.0
O127 O 0.1551 0.45879 0.36343 0.0
O128 O 0.18844 0.50789 0.24246 0.0
O129 O 0.15557 0.40662 0.19379 0.0
O130 O 0.29192 0.50448 0.22461 0.0
O131 O 0.33093 0.60648 0.2708 0.0
C132 C 0.16102 0.51087 0.39827 0.0
C133 C 0.33162 0.56664 0.22137 0.0
C134 C 0.83886 0.34546 0.76977 0.0
C135 C 0.65415 0.16155 0.87596 0.0
O136 O 0.78939 0.34993 0.78028 0.0
Zn137 Zn 0.69806 0.30239 0.8198 0.0
O138 O 0.83666 0.29205 0.78158 0.0
Zn139 Zn 0.74863 0.2501 0.82204 0.0
O140 O 0.67605 0.21969 0.72491 0.0
O141 O 0.63899 0.28638 0.73547 0.0
O142 O 0.70647 0.16253 0.86552 0.0
O143 O 0.65034 0.21148 0.86255 0.0
O144 O 0.71087 0.36432 0.90234 0.0
O145 O 0.77485 0.32552 0.91785 0.0
C146 C 0.63761 0.23777 0.70019 0.0
C147 C 0.75668 0.36541 0.94029 0.0
C148 C 0.54693 0.83453 0.43855 0.0
C149 C 0.55529 0.74526 0.18541 0.0
O150 O 0.60735 0.8557 0.43193 0.0
Zn151 Zn 0.58989 0.81343 0.32337 0.0
O152 O 0.50629 0.80275 0.3842 0.0
Zn153 Zn 0.48424 0.7612 0.2843 0.0
O154 O 0.45046 0.67022 0.31475 0.0
O155 O 0.5475 0.72129 0.37231 0.0
O156 O 0.53718 0.78507 0.19463 0.0
O157 O 0.59753 0.75433 0.23597 0.0
O158 O 0.55141 0.8763 0.281 0.0
O159 O 0.44293 0.80676 0.25976 0.0
C160 C 0.49157 0.66805 0.35729 0.0
C161 C 0.49418 0.86572 0.26164 0.0
C162 C 0.8235 0.56813 0.94656 0.0
C163 C 0.70984 0.57598 0.71802 0.0
O164 O 0.79566 0.52448 0.8927 0.0
Zn165 Zn 0.74247 0.49487 0.79806 0.0
O166 O 0.83112 0.62551 0.9427 0.0
Zn167 Zn 0.78655 0.60147 0.83765 0.0
O168 O 0.69758 0.54421 0.8869 0.0
O169 O 0.66121 0.44156 0.8472 0.0
O170 O 0.73087 0.6236 0.76861 0.0
O171 O 0.74313 0.54966 0.71536 0.0
O172 O 0.78886 0.46264 0.75249 0.0
O173 O 0.85157 0.5727 0.77991 0.0
C174 C 0.65398 0.48265 0.88637 0.0
C175 C 0.84449 0.51717 0.75322 0.0
C176 C 0.3225 0.86043 0.26571 0.0
C177 C 0.14651 0.66933 0.37258 0.0
O178 O 0.27148 0.85887 0.28441 0.0
Zn179 Zn 0.23077 0.76798 0.31971 0.0
O180 O 0.32664 0.80951 0.2703 0.0
Zn181 Zn 0.28298 0.71736 0.30696 0.0
O182 O 0.26611 0.66053 0.21904 0.0
O183 O 0.19862 0.69598 0.21914 0.0
O184 O 0.19534 0.66691 0.35314 0.0
O185 O 0.14653 0.72275 0.36862 0.0
O186 O 0.30666 0.79305 0.41048 0.0
O187 O 0.34642 0.73025 0.38526 0.0
C188 C 0.21658 0.65819 0.18914 0.0
C189 C 0.34697 0.77509 0.42765 0.0
C190 C 0.42976 0.29646 0.9177 0.0
C191 C 0.4394 0.17577 0.69027 0.0
O192 O 0.45363 0.26096 0.92043 0.0
Zn193 Zn 0.50901 0.26227 0.83775 0.0
O194 O 0.38425 0.27597 0.86651 0.0
Zn195 Zn 0.40489 0.21673 0.79714 0.0
O196 O 0.43288 0.15237 0.85742 0.0
O197 O 0.54111 0.21647 0.88323 0.0
O198 O 0.38225 0.16653 0.69336 0.0
O199 O 0.48157 0.20709 0.74375 0.0
O200 O 0.56031 0.34443 0.78928 0.0
O201 O 0.46072 0.30619 0.74536 0.0
C202 C 0.48732 0.16033 0.88435 0.0
C203 C 0.52128 0.35115 0.74824 0.0
loop_
_geom_bond_atom_site_label_1
_geom_bond_atom_site_label_2
_geom_bond_distance
_geom_bond_site_symmetry_2
_ccdc_geom_bond_type
H0 C8 0.940 . S
H1 C11 0.940 . S
H2 C13 0.940 . S
H3 C14 0.940 . S
H4 C17 0.940 . S
H5 C19 0.940 . S
N6 N7 1.190 . S
N6 C10 1.477 1_554 S
N7 N6 1.190 . S
N7 C16 1.477 1_655 S
C8 H0 0.940 . S
C8 C9 1.390 . S
C8 C10 1.322 . S
C9 C8 1.390 . S
C9 C13 1.370 . S
C10 N6 1.477 1_556 S
C10 C8 1.322 . S
C10 C11 1.447 . S
C11 H1 0.940 . S
C11 C10 1.447 . S
C11 C12 1.373 . S
C12 C11 1.373 . S
C12 C13 1.417 . S
C13 H2 0.940 . S
C13 C9 1.370 . S
C13 C12 1.417 . S
C14 H3 0.940 . S
C14 C15 1.390 . S
C14 C16 1.322 . S
C15 C14 1.390 . S
C15 C19 1.370 . S
C16 N7 1.477 1_455 S
C16 C14 1.322 . S
C16 C17 1.447 . S
C17 H4 0.940 . S
C17 C16 1.447 . S
C17 C18 1.373 . S
C18 C17 1.373 . S
C18 C19 1.417 . S
C19 H5 0.940 . S
C19 C15 1.370 . S
C19 C18 1.417 . S
H20 C28 0.940 . S
H21 C31 0.940 . S
H22 C33 0.940 . S
H23 C34 0.940 . S
H24 C37 0.940 . S
H25 C39 0.940 . S
N26 N27 1.190 . S
N26 C30 1.477 . S
N27 N26 1.190 . S
N27 C36 1.477 1_545 S
C28 H20 0.940 . S
C28 C29 1.390 . S
C28 C30 1.322 . S
C29 C28 1.390 . S
C29 C33 1.370 . S
C30 N26 1.477 . S
C30 C28 1.322 . S
C30 C31 1.447 . S
C31 H21 0.940 . S
C31 C30 1.447 . S
C31 C32 1.373 . S
C32 C31 1.373 . S
C32 C33 1.417 . S
C33 H22 0.940 . S
C33 C29 1.370 . S
C33 C32 1.417 . S
C34 H23 0.940 . S
C34 C35 1.390 . S
C34 C36 1.322 . S
C35 C34 1.390 . S
C35 C39 1.370 . S
C36 N27 1.477 1_565 S
C36 C34 1.322 . S
C36 C37 1.447 . S
C37 H24 0.940 . S
C37 C36 1.447 . S
C37 C38 1.373 . S
C38 C37 1.373 . S
C38 C39 1.417 . S
C39 H25 0.940 . S
C39 C35 1.370 . S
C39 C38 1.417 . S
H40 C48 0.940 . S
H41 C51 0.940 . S
H42 C53 0.940 . S
H43 C54 0.940 . S
H44 C57 0.940 . S
H45 C59 0.940 . S
N46 N47 1.190 . S
N46 C50 1.477 . S
N47 N46 1.190 . S
N47 C56 1.477 1_556 S
C48 H40 0.940 . S
C48 C49 1.390 . S
C48 C50 1.322 . S
C49 C48 1.390 . S
C49 C53 1.370 . S
C50 N46 1.477 . S
C50 C48 1.322 . S
C50 C51 1.447 . S
C51 H41 0.940 . S
C51 C50 1.447 . S
C51 C52 1.373 . S
C52 C51 1.373 . S
C52 C53 1.417 . S
C53 H42 0.940 . S
C53 C49 1.370 . S
C53 C52 1.417 . S
C54 H43 0.940 . S
C54 C55 1.390 . S
C54 C56 1.322 . S
C55 C54 1.390 . S
C55 C59 1.370 . S
C56 N47 1.477 1_554 S
C56 C54 1.322 . S
C56 C57 1.447 . S
C57 H44 0.940 . S
C57 C56 1.447 . S
C57 C58 1.373 . S
C58 C57 1.373 . S
C58 C59 1.417 . S
C59 H45 0.940 . S
C59 C55 1.370 . S
C59 C58 1.417 . S
H60 C68 0.940 . S
H61 C71 0.940 . S
H62 C73 0.940 . S
H63 C74 0.940 . S
H64 C77 0.940 . S
H65 C79 0.940 . S
N66 N67 1.190 . S
N66 C70 1.477 1_655 S
N67 N66 1.190 . S
N67 C76 1.477 . S
C68 H60 0.940 . S
C68 C69 1.390 . S
C68 C70 1.322 . S
C69 C68 1.390 . S
C69 C73 1.370 . S
C70 N66 1.477 1_455 S
C70 C68 1.322 . S
C70 C71 1.447 . S
C71 H61 0.940 . S
C71 C70 1.447 . S
C71 C72 1.373 . S
C72 C71 1.373 . S
C72 C73 1.417 . S
C73 H62 0.940 . S
C73 C69 1.370 . S
C73 C72 1.417 . S
C74 H63 0.940 . S
C74 C75 1.390 . S
C74 C76 1.322 . S
C75 C74 1.390 . S
C75 C79 1.370 . S
C76 N67 1.477 . S
C76 C74 1.322 . S
C76 C77 1.447 . S
C77 H64 0.940 . S
C77 C76 1.447 . S
C77 C78 1.373 . S
C78 C77 1.373 . S
C78 C79 1.417 . S
C79 H65 0.940 . S
C79 C75 1.370 . S
C79 C78 1.417 . S
H80 C88 0.940 . S
H81 C91 0.940 . S
H82 C93 0.940 . S
H83 C94 0.940 . S
H84 C97 0.940 . S
H85 C99 0.940 . S
N86 N87 1.190 . S
N86 C90 1.477 1_554 S
N87 N86 1.190 . S
N87 C96 1.477 1_545 S
C88 H80 0.940 . S
C88 C89 1.390 . S
C88 C90 1.322 . S
C89 C88 1.390 . S
C89 C93 1.370 . S
C90 N86 1.477 1_556 S
C90 C88 1.322 . S
C90 C91 1.447 . S
C91 H81 0.940 . S
C91 C90 1.447 . S
C91 C92 1.373 . S
C92 C91 1.373 . S
C92 C93 1.417 . S
C93 H82 0.940 . S
C93 C89 1.370 . S
C93 C92 1.417 . S
C94 H83 0.940 . S
C94 C95 1.390 . S
C94 C96 1.322 . S
C95 C94 1.390 . S
C95 C99 1.370 . S
C96 N87 1.477 1_565 S
C96 C94 1.322 . S
C96 C97 1.447 . S
C97 H84 0.940 . S
C97 C96 1.447 . S
C97 C98 1.373 . S
C98 C97 1.373 . S
C98 C99 1.417 . S
C99 H85 0.940 . S
C99 C95 1.370 . S
C99 C98 1.417 . S
H100 C108 0.940 . S
H101 C111 0.940 . S
H102 C113 0.940 . S
H103 C114 0.940 . S
H104 C117 0.940 . S
H105 C119 0.940 . S
N106 N107 1.190 . S
N106 C110 1.477 . S
N107 N106 1.190 . S
N107 C116 1.477 . S
C108 H100 0.940 . S
C108 C109 1.390 . S
C108 C110 1.322 . S
C109 C108 1.390 . S
C109 C113 1.370 . S
C110 N106 1.477 . S
C110 C108 1.322 . S
C110 C111 1.447 . S
C111 H101 0.940 . S
C111 C110 1.447 . S
C111 C112 1.373 . S
C112 C111 1.373 . S
C112 C113 1.417 . S
C113 H102 0.940 . S
C113 C109 1.370 . S
C113 C112 1.417 . S
C114 H103 0.940 . S
C114 C115 1.390 . S
C114 C116 1.322 . S
C115 C114 1.390 . S
C115 C119 1.370 . S
C116 N107 1.477 . S
C116 C114 1.322 . S
C116 C117 1.447 . S
C117 H104 0.940 . S
C117 C116 1.447 . S
C117 C118 1.373 . S
C118 C117 1.373 . S
C118 C119 1.417 . S
C119 H105 0.940 . S
C119 C115 1.370 . S
C119 C118 1.417 . S
C120 O122 1.247 . S
C120 O124 1.258 . S
C121 O128 1.247 . S
C121 O129 1.258 . S
O122 C120 1.247 . S
O122 Zn123 2.028 . S
Zn123 O122 2.028 . S
Zn123 O127 2.035 . S
Zn123 O129 2.035 . S
Zn123 O130 2.028 . S
O124 C120 1.258 . S
O124 Zn125 2.035 . S
Zn125 O124 2.035 . S
Zn125 O126 2.028 . S
Zn125 O128 2.028 . S
Zn125 O131 2.035 . S
O126 Zn125 2.028 . S
O126 C132 1.247 . S
O127 Zn123 2.035 . S
O127 C132 1.258 . S
O128 C121 1.247 . S
O128 Zn125 2.028 . S
O129 C121 1.258 . S
O129 Zn123 2.035 . S
O130 Zn123 2.028 . S
O130 C133 1.247 . S
O131 Zn125 2.035 . S
O131 C133 1.258 . S
C132 O126 1.247 . S
C132 O127 1.258 . S
C133 O130 1.247 . S
C133 O131 1.258 . S
C134 O136 1.247 . S
C134 O138 1.258 . S
C135 O142 1.247 . S
C135 O143 1.258 . S
O136 C134 1.247 . S
O136 Zn137 2.028 . S
Zn137 O136 2.028 . S
Zn137 O141 2.035 . S
Zn137 O143 2.035 . S
Zn137 O144 2.028 . S
O138 C134 1.258 . S
O138 Zn139 2.035 . S
Zn139 O138 2.035 . S
Zn139 O140 2.028 . S
Zn139 O142 2.028 . S
Zn139 O145 2.035 . S
O140 Zn139 2.028 . S
O140 C146 1.247 . S
O141 Zn137 2.035 . S
O141 C146 1.258 . S
O142 C135 1.247 . S
O142 Zn139 2.028 . S
O143 C135 1.258 . S
O143 Zn137 2.035 . S
O144 Zn137 2.028 . S
O144 C147 1.247 . S
O145 Zn139 2.035 . S
O145 C147 1.258 . S
C146 O140 1.247 . S
C146 O141 1.258 . S
C147 O144 1.247 . S
C147 O145 1.258 . S
C148 O150 1.247 . S
C148 O152 1.258 . S
C149 O156 1.247 . S
C149 O157 1.258 . S
O150 C148 1.247 . S
O150 Zn151 2.028 . S
Zn151 O150 2.028 . S
Zn151 O155 2.035 . S
Zn151 O157 2.035 . S
Zn151 O158 2.028 . S
O152 C148 1.258 . S
O152 Zn153 2.035 . S
Zn153 O152 2.035 . S
Zn153 O154 2.028 . S
Zn153 O156 2.028 . S
Zn153 O159 2.035 . S
O154 Zn153 2.028 . S
O154 C160 1.247 . S
O155 Zn151 2.035 . S
O155 C160 1.258 . S
O156 C149 1.247 . S
O156 Zn153 2.028 . S
O157 C149 1.258 . S
O157 Zn151 2.035 . S
O158 Zn151 2.028 . S
O158 C161 1.247 . S
O159 Zn153 2.035 . S
O159 C161 1.258 . S
C160 O154 1.247 . S
C160 O155 1.258 . S
C161 O158 1.247 . S
C161 O159 1.258 . S
C162 O164 1.247 . S
C162 O166 1.258 . S
C163 O170 1.247 . S
C163 O171 1.258 . S
O164 C162 1.247 . S
O164 Zn165 2.028 . S
Zn165 O164 2.028 . S
Zn165 O169 2.035 . S
Zn165 O171 2.035 . S
Zn165 O172 2.028 . S
O166 C162 1.258 . S
O166 Zn167 2.035 . S
Zn167 O166 2.035 . S
Zn167 O168 2.028 . S
Zn167 O170 2.028 . S
Zn167 O173 2.035 . S
O168 Zn167 2.028 . S
O168 C174 1.247 . S
O169 Zn165 2.035 . S
O169 C174 1.258 . S
O170 C163 1.247 . S
O170 Zn167 2.028 . S
O171 C163 1.258 . S
O171 Zn165 2.035 . S
O172 Zn165 2.028 . S
O172 C175 1.247 . S
O173 Zn167 2.035 . S
O173 C175 1.258 . S
C174 O168 1.247 . S
C174 O169 1.258 . S
C175 O172 1.247 . S
C175 O173 1.258 . S
C176 O178 1.247 . S
C176 O180 1.258 . S
C177 O184 1.247 . S
C177 O185 1.258 . S
O178 C176 1.247 . S
O178 Zn179 2.028 . S
Zn179 O178 2.028 . S
Zn179 O183 2.035 . S
Zn179 O185 2.035 . S
Zn179 O186 2.028 . S
O180 C176 1.258 . S
O180 Zn181 2.035 . S
Zn181 O180 2.035 . S
Zn181 O182 2.028 . S
Zn181 O184 2.028 . S
Zn181 O187 2.035 . S
O182 Zn181 2.028 . S
O182 C188 1.247 . S
O183 Zn179 2.035 . S
O183 C188 1.258 . S
O184 C177 1.247 . S
O184 Zn181 2.028 . S
O185 C177 1.258 . S
O185 Zn179 2.035 . S
O186 Zn179 2.028 . S
O186 C189 1.247 . S
O187 Zn181 2.035 . S
O187 C189 1.258 . S
C188 O182 1.247 . S
C188 O183 1.258 . S
C189 O186 1.247 . S
C189 O187 1.258 . S
C190 O192 1.247 . S
C190 O194 1.258 . S
C191 O198 1.247 . S
C191 O199 1.258 . S
O192 C190 1.247 . S
O192 Zn193 2.028 . S
Zn193 O192 2.028 . S
Zn193 O197 2.035 . S
Zn193 O199 2.035 . S
Zn193 O200 2.028 . S
O194 C190 1.258 . S
O194 Zn195 2.035 . S
Zn195 O194 2.035 . S
Zn195 O196 2.028 . S
Zn195 O198 2.028 . S
Zn195 O201 2.035 . S
O196 Zn195 2.028 . S
O196 C202 1.247 . S
O197 Zn193 2.035 . S
O197 C202 1.258 . S
O198 C191 1.247 . S
O198 Zn195 2.028 . S
O199 C191 1.258 . S
O199 Zn193 2.035 . S
O200 Zn193 2.028 . S
O200 C203 1.247 . S
O201 Zn195 2.035 . S
O201 C203 1.258 . S
C202 O196 1.247 . S
C202 O197 1.258 . S
C203 O200 1.247 . S
C203 O201 1.258 . S
C18 C121 1.389 . S
C29 C146 1.516 . S
C149 C55 1.435 . S
C175 C75 1.547 . S
C176 C98 1.431 . S
C203 C118 1.501 . S
C38 C148 1.393 . S
C52 C174 1.504 . S
C177 C72 1.427 . S
C202 C89 1.550 . S
C109 C120 1.439 . S
C147 C9 1.511 . S
C162 C12 1.395 . S
C35 C189 1.514 . S
C190 C49 1.429 . S
C69 C132 1.541 . S
C92 C135 1.426 . S
C112 C160 1.505 . S
C32 C191 1.398 . S
C133 C58 1.509 . S
C78 C134 1.422 . S
C95 C161 1.546 . S
C115 C163 1.434 . S
C15 C188 1.510 . S
