# Generated by pormake.
# Topology sit, (3,6)-cn, num edge types: 1
# Building blocks:
#     Node 0, Type 0, BuildingBlock: BETDIP_clean_linker_0, # of connection points: 3
#     Node 1, Type 0, BuildingBlock: BETDIP_clean_linker_0, # of connection points: 3
#     Node 2, Type 0, BuildingBlock: BETDIP_clean_linker_0, # of connection points: 3
#     Node 3, Type 0, BuildingBlock: BETDIP_clean_linker_0, # of connection points: 3
#     Node 4, Type 1, BuildingBlock: MIDCAF_clean_sbu_0, # of connection points: 6
#     Node 5, Type 1, BuildingBlock: MIDCAF_clean_sbu_0, # of connection points: 6
#     Edge 6, Type (0, 1), BuildingBlock: OJICUG_clean_linker_0, # of connection points: 2
#     Edge 7, Type (0, 1), BuildingBlock: OJICUG_clean_linker_0, # of connection points: 2
#     Edge 8, Type (0, 1), BuildingBlock: OJICUG_clean_linker_0, # of connection points: 2
#     Edge 9, Type (0, 1), BuildingBlock: OJICUG_clean_linker_0, # of connection points: 2
#     Edge 10, Type (0, 1), BuildingBlock: OJICUG_clean_linker_0, # of connection points: 2
#     Edge 11, Type (0, 1), BuildingBlock: OJICUG_clean_linker_0, # of connection points: 2
#     Edge 12, Type (0, 1), BuildingBlock: OJICUG_clean_linker_0, # of connection points: 2
#     Edge 13, Type (0, 1), BuildingBlock: OJICUG_clean_linker_0, # of connection points: 2
#     Edge 14, Type (0, 1), BuildingBlock: OJICUG_clean_linker_0, # of connection points: 2
#     Edge 15, Type (0, 1), BuildingBlock: OJICUG_clean_linker_0, # of connection points: 2
#     Edge 16, Type (0, 1), BuildingBlock: OJICUG_clean_linker_0, # of connection points: 2
#     Edge 17, Type (0, 1), BuildingBlock: OJICUG_clean_linker_0, # of connection points: 2
# Relax obj value: 0.072
# Max RMSD: 0.182
# Mean RMSD: 0.107
data_MOF--net-sit--node1-MIDCAF_clean_sbu_0--node2-BETDIP_clean_linker_0--edge1-OJICUG_clean_linker_0
_symmetry_space_group_name_H-M    P1
_symmetry_Int_Tables_number       1
_symmetry_cell_setting            triclinic
loop_
_symmetry_equiv_pos_as_xyz
'x, y, z'
_cell_length_a     17.193104
_cell_length_b     18.112465
_cell_length_c     30.259836
_cell_angle_alpha  90.643512
_cell_angle_beta   86.560822
_cell_angle_gamma 77.808291
loop_
_atom_site_label
_atom_site_type_symbol
_atom_site_fract_x
_atom_site_fract_y
_atom_site_fract_z
_atom_type_partial_charge
H0 H 0.85647 0.50795 -0.00471 0.0
H1 H 0.10856 0.48412 -0.00131 0.0
H2 H -0.02539 0.65237 0.91666 0.0
H3 H 0.10267 0.38964 0.04491 0.0
C4 C 0.04113 0.39356 0.05682 0.0
C5 C -0.09005 0.52743 -0.0152 0.0
C6 C -0.09299 0.58402 -0.04661 0.0
C7 C -0.01853 0.4926 0.00201 0.0
C8 C 0.05261 0.51339 -0.01312 0.0
C9 C 0.05145 0.57052 -0.04474 0.0
C10 C -0.02244 0.6069 0.93983 0.0
N11 N -0.02253 0.43757 0.03466 0.0
H12 H 0.77123 0.92099 0.0034 0.0
H13 H 0.02402 0.90798 -0.00451 0.0
H14 H -0.08453 0.81972 0.88811 0.0
H15 H -0.03064 1.03421 0.02839 0.0
C16 C -0.06242 1.01094 0.05512 0.0
C17 C 0.82903 0.90301 -0.01427 0.0
C18 C 0.83516 0.86811 0.94357 0.0
C19 C -0.10343 0.91947 0.00394 0.0
C20 C -0.02856 0.89639 -0.01883 0.0
C21 C -0.02121 0.85998 0.93955 0.0
C22 C -0.0897 0.84679 0.92062 0.0
N23 N 0.8884 0.95975 0.04503 0.0
H24 H 0.37099 0.99999 0.48785 0.0
H25 H 0.62475 0.96062 0.49386 0.0
H26 H 0.50384 1.12639 0.40562 0.0
H27 H 0.61084 0.86794 0.53957 0.0
C28 C 0.54847 0.87401 0.55039 0.0
C29 C 0.42733 1.01436 0.47746 0.0
C30 C 0.43023 1.06682 0.44425 0.0
C31 C 0.49664 0.97635 0.49574 0.0
C32 C 0.57068 0.99172 0.48085 0.0
C33 C 0.57476 1.04587 0.44792 0.0
C34 C 0.50332 1.08409 0.43057 0.0
N35 N 0.48773 0.92293 0.52862 0.0
H36 H 0.29146 0.40253 0.50917 0.0
H37 H 0.54566 0.37568 0.50284 0.0
H38 H 0.43623 0.27665 0.4004 0.0
H39 H 0.50177 0.49988 0.5353 0.0
C40 C 0.46318 0.48307 0.56133 0.0
C41 C 0.34898 0.37836 0.49263 0.0
C42 C 0.35422 0.33747 0.45225 0.0
C43 C 0.41749 0.39275 0.51079 0.0
C44 C 0.49247 0.36433 0.48915 0.0
C45 C 0.49908 0.32335 0.44908 0.0
C46 C 0.43017 0.3091 0.43117 0.0
N47 N 0.4096 0.43644 0.55069 0.0
Zn48 Zn -0.06891 0.35224 0.32067 0.0
Zn49 Zn 0.02239 1.04466 0.3251 0.0
Zn50 Zn -0.0217 1.19536 0.31737 0.0
C51 C -0.00959 1.08333 0.23536 0.0
C52 C 0.87865 1.08874 0.37246 0.0
O53 O 0.06392 0.24443 0.35237 0.0
O54 O 0.0171 0.36817 0.35985 0.0
C55 C -0.02688 0.29632 0.23119 0.0
O56 O -0.01094 1.15115 0.24911 0.0
O57 O -0.00062 1.0294 0.26205 0.0
O58 O -0.06243 1.03354 0.37152 0.0
O59 O 0.88352 1.14994 0.35218 0.0
O60 O -0.0491 0.35556 0.25512 0.0
O61 O -0.01596 0.23036 0.2482 0.0
O62 O 0.85848 0.22946 0.35054 0.0
O63 O 0.82073 0.3538 0.34564 0.0
C64 C 0.80597 0.29122 0.35736 0.0
O65 O 0.09042 1.16608 0.35037 0.0
O66 O 0.13359 1.04237 0.34128 0.0
C67 C 0.06955 0.31 0.36695 0.0
C68 C 0.14428 1.10576 0.3542 0.0
Zn69 Zn 0.41955 0.86402 0.80849 0.0
Zn70 Zn 0.50012 0.55925 0.83382 0.0
Zn71 Zn 0.46135 0.70871 0.81743 0.0
C72 C 0.48424 0.5822 0.74115 0.0
C73 C 0.35153 0.61397 0.87532 0.0
O74 O 0.54544 0.76214 0.85131 0.0
O75 O 0.50838 0.88598 0.84328 0.0
C76 C 0.46244 0.79195 0.724 0.0
O77 O 0.47949 0.65203 0.752 0.0
O78 O 0.48963 0.5324 0.77042 0.0
O79 O 0.40817 0.55712 0.87668 0.0
O80 O 0.36041 0.67241 0.85322 0.0
O81 O 0.43754 0.8555 0.74324 0.0
O82 O 0.4739 0.7305 0.74598 0.0
O83 O 0.33995 0.75139 0.84694 0.0
O84 O 0.30876 0.87453 0.83525 0.0
C85 C 0.29005 0.81542 0.85026 0.0
O86 O 0.56965 0.68389 0.85421 0.0
O87 O 0.60603 0.55913 0.85683 0.0
C88 C 0.55524 0.82977 0.85822 0.0
C89 C 0.61896 0.62386 0.86476 0.0
C90 C -0.05636 0.36695 0.11634 0.0
C91 C 0.02289 0.35744 0.09875 0.0
H92 H 0.86607 0.35382 0.17251 0.0
C93 C 0.08479 0.31797 0.12313 0.0
H94 H -0.10568 0.39673 0.09843 0.0
C95 C 0.06803 0.29237 0.16544 0.0
C96 C -0.01081 0.30577 0.18371 0.0
H97 H 0.14627 0.30984 0.11029 0.0
H98 H 0.11684 0.26576 0.1848 0.0
C99 C -0.07288 0.34196 0.15861 0.0
C100 C -0.08041 0.9933 0.13666 0.0
C101 C -0.05218 1.03195 0.10133 0.0
H102 H -0.08835 0.97943 0.20672 0.0
C103 C -0.01066 1.08892 0.11025 0.0
H104 H 0.8878 0.94883 0.13085 0.0
C105 C 0.00271 1.10672 0.1539 0.0
C106 C -0.02458 1.06733 0.18913 0.0
H107 H 0.0122 1.1191 0.08344 0.0
H108 H 0.03648 1.14931 0.15998 0.0
C109 C -0.06628 1.01053 0.18009 0.0
C110 C 0.58545 0.80219 0.61885 0.0
C111 C 0.52632 0.83774 0.59148 0.0
H112 H 0.61068 0.75778 0.6832 0.0
C113 C 0.4456 0.84466 0.60568 0.0
H114 H 0.648 0.79603 0.60859 0.0
C115 C 0.42456 0.82252 0.64795 0.0
C116 C 0.48366 0.79193 0.6764 0.0
H117 H 0.39841 0.871 0.58523 0.0
H118 H 0.36216 0.8336 0.65942 0.0
C119 C 0.56422 0.77974 0.66122 0.0
C120 C 0.4277 0.48021 0.64264 0.0
C121 C 0.46605 0.51061 0.60721 0.0
H122 H 0.40421 0.47915 0.71284 0.0
C123 C 0.5099 0.56583 0.61597 0.0
H124 H 0.39392 0.43722 0.63699 0.0
C125 C 0.51533 0.59019 0.65953 0.0
C126 C 0.47763 0.55919 0.69489 0.0
H127 H 0.54051 0.58966 0.58916 0.0
H128 H 0.55105 0.63117 0.66571 0.0
C129 C 0.43396 0.50391 0.68607 0.0
C130 C 0.19517 0.58019 -0.039 0.0
C131 C 0.12728 0.5886 0.93609 0.0
H132 H 0.31998 0.58055 -0.03914 0.0
C133 C 0.13376 0.61071 0.89166 0.0
H134 H 0.19264 0.56535 -0.00449 0.0
C135 C 0.20599 0.62249 0.87262 0.0
C136 C 0.27384 0.61053 0.8971 0.0
H137 H 0.08407 0.61631 0.87075 0.0
H138 H 0.20965 0.63792 0.83817 0.0
C139 C 0.26803 0.58967 0.94142 0.0
C140 C 0.70699 0.82269 0.94417 0.0
C141 C 0.76268 0.85844 0.92219 0.0
H142 H 0.59681 0.78533 0.94066 0.0
C143 C 0.74835 0.8863 0.87964 0.0
H144 H 0.71684 0.80078 -0.023 0.0
C145 C 0.6796 0.8785 0.85937 0.0
C146 C 0.62498 0.84135 0.88093 0.0
H147 H 0.79001 0.91482 0.86225 0.0
H148 H 0.66985 0.90015 0.82647 0.0
C149 C 0.63884 0.81365 0.92347 0.0
C150 C 0.75775 0.62046 -0.04427 0.0
C151 C 0.83171 0.61194 0.93151 0.0
H152 H 0.63169 0.62997 -0.04709 0.0
C153 C 0.83292 0.61885 0.88519 0.0
H154 H 0.75456 0.61725 -0.00851 0.0
C155 C 0.7623 0.62768 0.86338 0.0
C156 C 0.68991 0.62965 0.88759 0.0
H157 H 0.88876 0.61199 0.86546 0.0
H158 H 0.76479 0.62861 0.82753 0.0
C159 C 0.68751 0.62809 0.93384 0.0
C160 C 0.12506 0.80341 0.93592 0.0
C161 C 0.0576 0.84103 0.91496 0.0
H162 H 0.25238 0.76607 0.93153 0.0
C163 C 0.06692 0.86647 0.87171 0.0
H164 H 0.11924 0.78314 -0.03075 0.0
C165 C 0.1428 0.85702 0.8504 0.0
C166 C 0.21017 0.82072 0.8717 0.0
H167 H 0.01592 0.89639 0.85509 0.0
H168 H 0.14902 0.87882 0.81747 0.0
C169 C 0.20086 0.79327 0.91438 0.0
C170 C 0.71987 1.04995 0.45543 0.0
C171 C 0.65315 1.05923 0.42947 0.0
H172 H 0.84458 1.05058 0.45734 0.0
C173 C 0.66247 1.0797 0.38493 0.0
H174 H 0.7153 1.03586 0.49 0.0
C175 C 0.7354 1.09137 0.36716 0.0
C176 C 0.80164 1.08025 0.39285 0.0
H177 H 0.6142 1.08515 0.36305 0.0
H178 H 0.74068 1.107 0.33281 0.0
C179 C 0.79384 1.059 0.43699 0.0
C180 C 0.21092 0.32277 0.45599 0.0
C181 C 0.28069 0.32895 0.43062 0.0
H182 H 0.08848 0.31296 0.45544 0.0
C183 C 0.27893 0.32931 0.3841 0.0
H184 H 0.21006 0.32083 0.49174 0.0
C185 C 0.20999 0.32296 0.36363 0.0
C186 C 0.14089 0.31774 0.38912 0.0
H187 H 0.33027 0.33592 0.36326 0.0
H188 H 0.21039 0.32285 0.3278 0.0
C189 C 0.14138 0.31791 0.43536 0.0
C190 C 0.28479 1.12339 0.44206 0.0
C191 C 0.35872 1.09352 0.4195 0.0
H192 H 0.15776 1.15138 0.43825 0.0
C193 C 0.36188 1.07645 0.37396 0.0
H194 H 0.28115 1.13664 0.47723 0.0
C195 C 0.29166 1.08356 0.35207 0.0
C196 C 0.21776 1.10956 0.37522 0.0
H197 H 0.41819 1.05239 0.35606 0.0
H198 H 0.29484 1.06606 0.31753 0.0
C199 C 0.21462 1.13179 0.4199 0.0
C200 C 0.64599 0.26803 0.4436 0.0
C201 C 0.5769 0.30406 0.4235 0.0
H202 H 0.7738 0.23506 0.43776 0.0
C203 C 0.58361 0.32998 0.38017 0.0
H204 H 0.6421 0.24761 0.477 0.0
C205 C 0.65846 0.32374 0.3582 0.0
C206 C 0.72751 0.28999 0.37881 0.0
H207 H 0.53129 0.35873 0.3642 0.0
H208 H 0.6626 0.34681 0.32546 0.0
C209 C 0.72091 0.26067 0.42124 0.0
loop_
_geom_bond_atom_site_label_1
_geom_bond_atom_site_label_2
_geom_bond_distance
_geom_bond_site_symmetry_2
_ccdc_geom_bond_type
H0 C5 0.930 1_655 S
H1 C8 0.930 . S
H2 C10 0.930 . S
H3 C4 1.016 . S
C4 H3 1.016 . S
C4 N11 1.286 . S
C5 H0 0.930 1_455 S
C5 C6 1.397 1_554 S
C5 C7 1.361 . S
C6 C5 1.397 1_556 S
C6 C10 1.390 . S
C7 C5 1.361 . S
C7 C8 1.393 . S
C7 N11 1.413 . S
C8 H1 0.930 . S
C8 C7 1.393 . S
C8 C9 1.399 1_554 S
C9 C8 1.399 1_556 S
C9 C10 1.381 . S
C10 H2 0.930 . S
C10 C6 1.390 . S
C10 C9 1.381 . S
N11 C4 1.286 . S
N11 C7 1.413 . S
H12 C17 0.930 . S
H13 C20 0.930 . S
H14 C22 0.930 . S
H15 C16 1.016 . S
C16 H15 1.016 . S
C16 N23 1.286 1_455 S
C17 H12 0.930 . S
C17 C18 1.397 1_554 S
C17 C19 1.361 . S
C18 C17 1.397 1_556 S
C18 C22 1.390 1_655 S
C19 C17 1.361 . S
C19 C20 1.393 1_655 S
C19 N23 1.413 . S
C20 H13 0.930 . S
C20 C19 1.393 1_455 S
C20 C21 1.399 1_554 S
C21 C20 1.399 1_556 S
C21 C22 1.381 . S
C22 H14 0.930 . S
C22 C18 1.390 1_455 S
C22 C21 1.381 . S
N23 C16 1.286 1_655 S
N23 C19 1.413 . S
H24 C29 0.930 . S
H25 C32 0.930 . S
H26 C34 0.930 . S
H27 C28 1.016 . S
C28 H27 1.016 . S
C28 N35 1.286 . S
C29 H24 0.930 . S
C29 C30 1.397 . S
C29 C31 1.361 . S
C30 C29 1.397 . S
C30 C34 1.390 . S
C31 C29 1.361 . S
C31 C32 1.393 . S
C31 N35 1.413 . S
C32 H25 0.930 . S
C32 C31 1.393 . S
C32 C33 1.399 . S
C33 C32 1.399 . S
C33 C34 1.381 . S
C34 H26 0.930 . S
C34 C30 1.390 . S
C34 C33 1.381 . S
N35 C28 1.286 . S
N35 C31 1.413 . S
H36 C41 0.930 . S
H37 C44 0.930 . S
H38 C46 0.930 . S
H39 C40 1.016 . S
C40 H39 1.016 . S
C40 N47 1.286 . S
C41 H36 0.930 . S
C41 C42 1.397 . S
C41 C43 1.361 . S
C42 C41 1.397 . S
C42 C46 1.390 . S
C43 C41 1.361 . S
C43 C44 1.393 . S
C43 N47 1.413 . S
C44 H37 0.930 . S
C44 C43 1.393 . S
C44 C45 1.399 . S
C45 C44 1.399 . S
C45 C46 1.381 . S
C46 H38 0.930 . S
C46 C42 1.390 . S
C46 C45 1.381 . S
N47 C40 1.286 . S
N47 C43 1.413 . S
Zn48 O54 1.920 . S
Zn48 O60 1.898 . S
Zn48 O63 1.905 1_455 S
Zn49 O57 1.905 . S
Zn49 O58 1.898 1_455 S
Zn49 O66 1.920 . S
Zn50 O53 2.080 . S
Zn50 O56 2.114 1_545 S
Zn50 O59 2.120 1_545 S
Zn50 O61 2.120 . S
Zn50 O62 2.114 1_455 S
Zn50 O65 2.080 1_545 S
C51 O56 1.166 . S
C51 O57 1.182 . S
C52 O58 1.167 . S
C52 O59 1.299 1_655 S
O53 Zn50 2.080 . S
O53 C67 1.305 . S
O54 Zn48 1.920 . S
O54 C67 1.234 . S
C55 O60 1.167 . S
C55 O61 1.299 . S
O56 Zn50 2.114 1_565 S
O56 C51 1.166 . S
O57 Zn49 1.905 . S
O57 C51 1.182 . S
O58 Zn49 1.898 1_655 S
O58 C52 1.167 . S
O59 Zn50 2.120 1_565 S
O59 C52 1.299 1_455 S
O60 Zn48 1.898 . S
O60 C55 1.167 . S
O61 Zn50 2.120 . S
O61 C55 1.299 . S
O62 Zn50 2.114 1_655 S
O62 C64 1.166 . S
O63 Zn48 1.905 1_655 S
O63 C64 1.182 . S
C64 O62 1.166 . S
C64 O63 1.182 . S
O65 Zn50 2.080 1_565 S
O65 C68 1.305 . S
O66 Zn49 1.920 . S
O66 C68 1.234 . S
C67 O53 1.305 . S
C67 O54 1.234 . S
C68 O65 1.305 . S
C68 O66 1.234 . S
Zn69 O75 1.920 . S
Zn69 O81 1.898 . S
Zn69 O84 1.905 . S
Zn70 O78 1.905 . S
Zn70 O79 1.898 . S
Zn70 O87 1.920 . S
Zn71 O74 2.080 . S
Zn71 O77 2.114 . S
Zn71 O80 2.120 . S
Zn71 O82 2.120 . S
Zn71 O83 2.114 . S
Zn71 O86 2.080 . S
C72 O77 1.166 . S
C72 O78 1.182 . S
C73 O79 1.167 . S
C73 O80 1.299 . S
O74 Zn71 2.080 . S
O74 C88 1.305 . S
O75 Zn69 1.920 . S
O75 C88 1.234 . S
C76 O81 1.167 . S
C76 O82 1.299 . S
O77 Zn71 2.114 . S
O77 C72 1.166 . S
O78 Zn70 1.905 . S
O78 C72 1.182 . S
O79 Zn70 1.898 . S
O79 C73 1.167 . S
O80 Zn71 2.120 . S
O80 C73 1.299 . S
O81 Zn69 1.898 . S
O81 C76 1.167 . S
O82 Zn71 2.120 . S
O82 C76 1.299 . S
O83 Zn71 2.114 . S
O83 C85 1.166 . S
O84 Zn69 1.905 . S
O84 C85 1.182 . S
C85 O83 1.166 . S
C85 O84 1.182 . S
O86 Zn71 2.080 . S
O86 C89 1.305 . S
O87 Zn70 1.920 . S
O87 C89 1.234 . S
C88 O74 1.305 . S
C88 O75 1.234 . S
C89 O86 1.305 . S
C89 O87 1.234 . S
C90 C91 1.387 . S
C90 H94 0.950 . S
C90 C99 1.390 . S
C91 C90 1.387 . S
C91 C93 1.387 . S
H92 C99 0.950 . S
C93 C91 1.387 . S
C93 C95 1.390 . S
C93 H97 0.950 . S
H94 C90 0.950 . S
C95 C93 1.390 . S
C95 C96 1.387 . S
C95 H98 0.950 . S
C96 C95 1.387 . S
C96 C99 1.387 . S
H97 C93 0.950 . S
H98 C95 0.950 . S
C99 C90 1.390 . S
C99 H92 0.950 . S
C99 C96 1.387 . S
C100 C101 1.387 1_655 S
C100 H104 0.950 . S
C100 C109 1.390 . S
C101 C100 1.387 1_455 S
C101 C103 1.387 . S
H102 C109 0.950 . S
C103 C101 1.387 . S
C103 C105 1.390 . S
C103 H107 0.950 . S
H104 C100 0.950 . S
C105 C103 1.390 . S
C105 C106 1.387 . S
C105 H108 0.950 . S
C106 C105 1.387 . S
C106 C109 1.387 1_455 S
H107 C103 0.950 . S
H108 C105 0.950 . S
C109 C100 1.390 . S
C109 H102 0.950 . S
C109 C106 1.387 1_655 S
C110 C111 1.387 . S
C110 H114 0.950 . S
C110 C119 1.390 . S
C111 C110 1.387 . S
C111 C113 1.387 . S
H112 C119 0.950 . S
C113 C111 1.387 . S
C113 C115 1.390 . S
C113 H117 0.950 . S
H114 C110 0.950 . S
C115 C113 1.390 . S
C115 C116 1.387 . S
C115 H118 0.950 . S
C116 C115 1.387 . S
C116 C119 1.387 . S
H117 C113 0.950 . S
H118 C115 0.950 . S
C119 C110 1.390 . S
C119 H112 0.950 . S
C119 C116 1.387 . S
C120 C121 1.387 . S
C120 H124 0.950 . S
C120 C129 1.390 . S
C121 C120 1.387 . S
C121 C123 1.387 . S
H122 C129 0.950 . S
C123 C121 1.387 . S
C123 C125 1.390 . S
C123 H127 0.950 . S
H124 C120 0.950 . S
C125 C123 1.390 . S
C125 C126 1.387 . S
C125 H128 0.950 . S
C126 C125 1.387 . S
C126 C129 1.387 . S
H127 C123 0.950 . S
H128 C125 0.950 . S
C129 C120 1.390 . S
C129 H122 0.950 . S
C129 C126 1.387 . S
C130 C131 1.387 1_554 S
C130 H134 0.950 . S
C130 C139 1.390 . S
C131 C130 1.387 1_556 S
C131 C133 1.387 . S
H132 C139 0.950 . S
C133 C131 1.387 . S
C133 C135 1.390 . S
C133 H137 0.950 . S
H134 C130 0.950 . S
C135 C133 1.390 . S
C135 C136 1.387 . S
C135 H138 0.950 . S
C136 C135 1.387 . S
C136 C139 1.387 1_556 S
H137 C133 0.950 . S
H138 C135 0.950 . S
C139 C130 1.390 . S
C139 H132 0.950 . S
C139 C136 1.387 1_554 S
C140 C141 1.387 1_554 S
C140 H144 0.950 . S
C140 C149 1.390 1_554 S
C141 C140 1.387 1_556 S
C141 C143 1.387 . S
H142 C149 0.950 1_554 S
C143 C141 1.387 . S
C143 C145 1.390 . S
C143 H147 0.950 . S
H144 C140 0.950 . S
C145 C143 1.390 . S
C145 C146 1.387 . S
C145 H148 0.950 . S
C146 C145 1.387 . S
C146 C149 1.387 . S
H147 C143 0.950 . S
H148 C145 0.950 . S
C149 C140 1.390 1_556 S
C149 H142 0.950 1_556 S
C149 C146 1.387 . S
C150 C151 1.387 . S
C150 H154 0.950 1_556 S
C150 C159 1.390 . S
C151 C150 1.387 . S
C151 C153 1.387 . S
H152 C159 0.950 . S
C153 C151 1.387 . S
C153 C155 1.390 . S
C153 H157 0.950 . S
H154 C150 0.950 1_554 S
C155 C153 1.390 . S
C155 C156 1.387 . S
C155 H158 0.950 . S
C156 C155 1.387 . S
C156 C159 1.387 . S
H157 C153 0.950 . S
H158 C155 0.950 . S
C159 C150 1.390 . S
C159 H152 0.950 . S
C159 C156 1.387 . S
C160 C161 1.387 . S
C160 H164 0.950 1_556 S
C160 C169 1.390 . S
C161 C160 1.387 . S
C161 C163 1.387 . S
H162 C169 0.950 . S
C163 C161 1.387 . S
C163 C165 1.390 . S
C163 H167 0.950 . S
H164 C160 0.950 1_554 S
C165 C163 1.390 . S
C165 C166 1.387 . S
C165 H168 0.950 . S
C166 C165 1.387 . S
C166 C169 1.387 . S
H167 C163 0.950 . S
H168 C165 0.950 . S
C169 C160 1.390 . S
C169 H162 0.950 . S
C169 C166 1.387 . S
C170 C171 1.387 . S
C170 H174 0.950 . S
C170 C179 1.390 . S
C171 C170 1.387 . S
C171 C173 1.387 . S
H172 C179 0.950 . S
C173 C171 1.387 . S
C173 C175 1.390 . S
C173 H177 0.950 . S
H174 C170 0.950 . S
C175 C173 1.390 . S
C175 C176 1.387 . S
C175 H178 0.950 . S
C176 C175 1.387 . S
C176 C179 1.387 . S
H177 C173 0.950 . S
H178 C175 0.950 . S
C179 C170 1.390 . S
C179 H172 0.950 . S
C179 C176 1.387 . S
C180 C181 1.387 . S
C180 H184 0.950 . S
C180 C189 1.390 . S
C181 C180 1.387 . S
C181 C183 1.387 . S
H182 C189 0.950 . S
C183 C181 1.387 . S
C183 C185 1.390 . S
C183 H187 0.950 . S
H184 C180 0.950 . S
C185 C183 1.390 . S
C185 C186 1.387 . S
C185 H188 0.950 . S
C186 C185 1.387 . S
C186 C189 1.387 . S
H187 C183 0.950 . S
H188 C185 0.950 . S
C189 C180 1.390 . S
C189 H182 0.950 . S
C189 C186 1.387 . S
C190 C191 1.387 . S
C190 H194 0.950 . S
C190 C199 1.390 . S
C191 C190 1.387 . S
C191 C193 1.387 . S
H192 C199 0.950 . S
C193 C191 1.387 . S
C193 C195 1.390 . S
C193 H197 0.950 . S
H194 C190 0.950 . S
C195 C193 1.390 . S
C195 C196 1.387 . S
C195 H198 0.950 . S
C196 C195 1.387 . S
C196 C199 1.387 . S
H197 C193 0.950 . S
H198 C195 0.950 . S
C199 C190 1.390 . S
C199 H192 0.950 . S
C199 C196 1.387 . S
C200 C201 1.387 . S
C200 H204 0.950 . S
C200 C209 1.390 . S
C201 C200 1.387 . S
C201 C203 1.387 . S
H202 C209 0.950 . S
C203 C201 1.387 . S
C203 C205 1.390 . S
C203 H207 0.950 . S
H204 C200 0.950 . S
C205 C203 1.390 . S
C205 C206 1.387 . S
C205 H208 0.950 . S
C206 C205 1.387 . S
C206 C209 1.387 . S
H207 C203 0.950 . S
H208 C205 0.950 . S
C209 C200 1.390 . S
C209 H202 0.950 . S
C209 C206 1.387 . S
C96 C55 1.431 . S
C91 C4 1.539 . S
C106 C51 1.417 . S
C101 C16 1.499 . S
C116 C76 1.431 . S
C111 C28 1.539 . S
C121 C40 1.499 . S
C126 C72 1.418 . S
C131 C9 1.355 . S
C136 C73 1.187 . S
C146 C88 1.198 . S
C141 C18 1.373 . S
C151 C6 1.683 1_655 S
C156 C89 1.542 . S
C166 C85 1.567 . S
C161 C21 1.700 . S
C176 C52 1.185 . S
C171 C33 1.355 . S
C181 C42 1.373 . S
C186 C67 1.196 . S
C196 C68 1.542 . S
C191 C30 1.683 . S
C206 C64 1.566 . S
C201 C45 1.699 . S
