# Generated by pormake.
# Topology scu, (8,4)-cn, num edge types: 1
# Building blocks:
#     Node 0, Type 0, BuildingBlock: TAGTUT_clean_sbu_3, # of connection points: 8
#     Node 1, Type 1, BuildingBlock: IZENUY_clean_linker_0, # of connection points: 4
#     Node 2, Type 1, BuildingBlock: IZENUY_clean_linker_0, # of connection points: 4
#     Edge 3, Type (0, 1), BuildingBlock: KIFKEQ_clean_linker_1, # of connection points: 2
#     Edge 4, Type (0, 1), BuildingBlock: KIFKEQ_clean_linker_1, # of connection points: 2
#     Edge 5, Type (0, 1), BuildingBlock: KIFKEQ_clean_linker_1, # of connection points: 2
#     Edge 6, Type (0, 1), BuildingBlock: KIFKEQ_clean_linker_1, # of connection points: 2
#     Edge 7, Type (0, 1), BuildingBlock: KIFKEQ_clean_linker_1, # of connection points: 2
#     Edge 8, Type (0, 1), BuildingBlock: KIFKEQ_clean_linker_1, # of connection points: 2
#     Edge 9, Type (0, 1), BuildingBlock: KIFKEQ_clean_linker_1, # of connection points: 2
#     Edge 10, Type (0, 1), BuildingBlock: KIFKEQ_clean_linker_1, # of connection points: 2
# Relax obj value: 0.053
# Max RMSD: 0.183
# Mean RMSD: 0.141
data_MOF--net-scu--node1-TAGTUT_clean_sbu_3--node2-IZENUY_clean_linker_0--edge1-KIFKEQ_clean_linker_1
_symmetry_space_group_name_H-M    P1
_symmetry_Int_Tables_number       1
_symmetry_cell_setting            triclinic
loop_
_symmetry_equiv_pos_as_xyz
'x, y, z'
_cell_length_a     29.511912
_cell_length_b     25.599066
_cell_length_c     21.312984
_cell_angle_alpha  91.43276
_cell_angle_beta   89.64654
_cell_angle_gamma 89.683635
loop_
_atom_site_label
_atom_site_type_symbol
_atom_site_fract_x
_atom_site_fract_y
_atom_site_fract_z
_atom_type_partial_charge
C0 C 0.05143 0.93604 0.02969 0.0
C1 C 0.88483 1.01826 0.00535 0.0
C2 C 0.93327 0.05662 0.82349 0.0
Mg3 Mg 0.14526 0.97582 -0.03363 0.0
Mg4 Mg 0.15782 0.10079 0.93907 0.0
O5 O 0.12414 0.03972 0.92222 0.0
Mg6 Mg 0.05881 0.04022 -0.05297 0.0
O7 O 0.99366 0.03631 -0.02815 0.0
Mg8 Mg 0.97581 0.9697 0.92663 0.0
Mg9 Mg 0.95771 0.09492 -0.04623 0.0
C10 C 0.07249 0.14692 0.8673 0.0
O11 O 0.06512 0.10903 0.01856 0.0
O12 O 0.21272 0.9858 0.90878 0.0
O13 O 0.99997 0.15318 0.00114 0.0
O14 O 0.17655 1.02215 0.04821 0.0
O15 O 0.2178 0.07215 0.89151 0.0
O16 O 0.17479 0.10823 0.03761 0.0
O17 O 1.04612 0.97244 0.87708 0.0
O18 O 0.11166 0.92962 0.88679 0.0
C19 C 0.07221 0.93371 0.86263 0.0
C20 C 0.23316 1.0253 0.8853 0.0
O21 O 1.04885 0.10554 0.87595 0.0
O22 O 0.90752 0.97831 -0.01598 0.0
O23 O 0.11164 0.15427 0.89228 0.0
O24 O 0.94187 1.01153 0.8449 0.0
O25 O 0.89813 0.06541 -0.00157 0.0
O26 O 0.94226 0.09807 0.85528 0.0
O27 O 0.07484 0.97635 0.01646 0.0
O28 O 1.01244 0.92784 0.00532 0.0
C29 C 0.18419 0.0682 0.06967 0.0
C30 C 1.03921 0.14933 0.02666 0.0
H31 H 1.04737 0.47144 0.3593 0.0
H32 H 1.03463 0.46014 0.55965 0.0
H33 H 0.04949 0.32098 0.44277 0.0
H34 H 1.02281 0.61256 0.53141 0.0
H35 H 0.05408 0.62468 0.33515 0.0
H36 H 1.04665 0.76303 0.45375 0.0
N37 N 1.03732 0.52722 0.46888 0.0
N38 N 1.04106 0.55722 0.42391 0.0
C39 C 1.04561 0.44805 0.40091 0.0
C40 C 0.05005 0.39363 0.39495 0.0
C41 C 1.03989 0.47206 0.46063 0.0
C42 C 1.03802 0.44108 0.5139 0.0
C43 C 1.04178 0.3863 0.5085 0.0
C44 C 1.04764 0.36312 0.44848 0.0
C45 C 1.03067 0.63633 0.4915 0.0
C46 C 1.03175 0.69099 0.49897 0.0
C47 C 1.03968 0.61241 0.43243 0.0
C48 C 1.04855 0.64354 0.38064 0.0
C49 C 0.05027 0.69828 0.3874 0.0
C50 C 1.04277 0.72122 0.4471 0.0
H51 H 0.61161 1.02406 0.34951 0.0
H52 H 0.63975 0.04576 0.54667 0.0
H53 H 0.74864 0.04489 0.4114 0.0
H54 H 0.50385 1.01771 0.53775 0.0
H55 H 0.47733 0.05667 0.34591 0.0
H56 H 0.36685 0.04146 0.47626 0.0
N57 N 0.57311 0.03442 0.46575 0.0
N58 N 0.54316 0.03756 0.4249 0.0
C59 C 0.63545 1.03009 0.38741 0.0
C60 C 0.68186 0.03382 0.37358 0.0
C61 C 0.62003 0.03509 0.45011 0.0
C62 C 0.65162 0.0422 0.49852 0.0
C63 C 0.69811 0.0465 0.48489 0.0
C64 C 0.71276 0.04253 0.4223 0.0
C65 C 0.48018 1.02718 0.50104 0.0
C66 C 0.43338 1.02751 0.51406 0.0
C67 C 0.49616 0.03769 0.44011 0.0
C68 C 0.46502 0.0488 0.39274 0.0
C69 C 0.41835 0.05096 0.40577 0.0
C70 C 0.40294 0.04032 0.46637 0.0
H71 H 0.09081 0.14096 0.13166 0.0
H72 H 1.01757 0.25256 0.02198 0.0
H73 H 0.09975 0.20644 0.21518 0.0
H74 H 1.02888 0.3194 0.10353 0.0
H75 H 0.12189 0.33448 0.3558 0.0
H76 H 0.129 0.28258 0.25851 0.0
H77 H 0.99755 0.3392 0.20075 0.0
H78 H 0.99243 0.39326 0.2962 0.0
C79 C 0.07785 0.18007 0.12469 0.0
C80 C 0.05281 0.19149 0.07097 0.0
C81 C 0.08313 0.2179 0.17251 0.0
C82 C 0.06429 0.26832 0.16697 0.0
C83 C 1.04253 0.28067 0.11062 0.0
C84 C 1.03638 0.24251 0.06353 0.0
C85 C 0.09514 0.33641 0.32132 0.0
C86 C 0.05664 0.36761 0.333 0.0
C87 C 0.0989 0.30636 0.26587 0.0
C88 C 0.06366 0.30595 0.22162 0.0
C89 C 1.02585 0.33893 0.23279 0.0
C90 C 1.02261 0.36979 0.28767 0.0
H91 H 0.86301 0.93658 0.08101 0.0
H92 H 0.81334 0.08477 0.01661 0.0
H93 H 0.80345 0.93683 0.16174 0.0
H94 H 0.7538 0.08459 0.09603 0.0
H95 H 0.72538 0.10836 0.30982 0.0
H96 H 0.76531 0.09857 0.20985 0.0
H97 H 0.71974 0.93879 0.19199 0.0
H98 H 0.67931 0.94912 0.29299 0.0
C99 C 0.83852 0.96826 0.08275 0.0
C100 C 0.84332 1.01112 0.04338 0.0
C101 C 0.80439 0.96841 0.12888 0.0
C102 C 0.77453 1.01129 0.13594 0.0
C103 C 0.7769 0.05159 0.0926 0.0
C104 C 0.81097 0.0516 0.04704 0.0
C105 C 0.72305 0.0716 0.28371 0.0
C106 C 0.6992 1.02961 0.30852 0.0
C107 C 0.74576 0.06593 0.22641 0.0
C108 C 0.74557 1.01789 0.19289 0.0
C109 C 0.72051 0.97618 0.21687 0.0
C110 C 0.69715 0.98217 0.27415 0.0
H111 H 0.09692 0.9575 0.13826 0.0
H112 H 1.04131 0.83104 0.02573 0.0
H113 H 0.10707 0.89775 0.22554 0.0
H114 H 0.05281 0.77129 0.11197 0.0
H115 H 0.10617 0.67839 0.28486 0.0
H116 H 0.11898 0.73445 0.19497 0.0
H117 H 1.03038 0.85165 0.2783 0.0
H118 H 1.01474 0.79512 0.36533 0.0
C119 C 0.08846 0.91662 0.13151 0.0
C120 C 0.06782 0.8988 0.0759 0.0
C121 C 0.09419 0.88261 0.18125 0.0
C122 C 0.08057 0.8302 0.1751 0.0
C123 C 0.06382 0.81145 0.11748 0.0
C124 C 0.05703 0.84564 0.06845 0.0
C125 C 0.08904 0.71585 0.28386 0.0
C126 C 0.05953 0.73211 0.33288 0.0
C127 C 0.09695 0.7481 0.23284 0.0
C128 C 0.07641 0.79758 0.23082 0.0
C129 C 1.04754 0.81416 0.27983 0.0
C130 C 1.03872 0.78163 0.32979 0.0
H131 H 0.22449 0.15615 0.12158 0.0
H132 H 0.20501 0.99107 0.15028 0.0
H133 H 0.28149 0.15796 0.2052 0.0
H134 H 0.26216 0.99312 0.23177 0.0
H135 H 0.34934 0.12271 0.40927 0.0
H136 H 0.28899 0.13333 0.33162 0.0
H137 H 0.35125 1.01318 0.21401 0.0
H138 H 0.41175 1.00306 0.29087 0.0
C139 C 0.23156 0.12064 0.1464 0.0
C140 C 0.21067 0.07331 0.12843 0.0
C141 C 0.26428 0.12169 0.19395 0.0
C142 C 0.27678 0.07538 0.22357 0.0
C143 C 0.25371 1.02908 0.20863 0.0
C144 C 0.2208 1.02811 0.16207 0.0
C145 C 0.35034 0.09916 0.36632 0.0
C146 C 0.38505 0.06194 0.35597 0.0
C147 C 0.31601 0.10539 0.32203 0.0
C148 C 0.31543 0.07375 0.26736 0.0
C149 C 0.35089 0.03776 0.25614 0.0
C150 C 0.38558 1.03221 0.29979 0.0
H151 H 0.98959 0.92239 0.80408 0.0
H152 H 0.12192 0.85068 0.8194 0.0
H153 H 0.96864 0.85542 0.72582 0.0
H154 H 0.10192 0.78588 0.74067 0.0
H155 H 0.06053 0.6603 0.61469 0.0
H156 H 0.05938 0.71199 0.71213 0.0
H157 H 0.98674 0.83498 0.61947 0.0
H158 H 0.98492 0.78169 0.52377 0.0
C159 C 1.01408 0.89235 0.79105 0.0
C160 C 0.05752 0.89223 0.81769 0.0
C161 C 1.00215 0.854 0.74613 0.0
C162 C 1.03353 0.81501 0.72688 0.0
C163 C 0.0764 0.81434 0.75509 0.0
C164 C 0.08813 0.85218 0.79996 0.0
C165 C 1.04298 0.69758 0.61571 0.0
C166 C 1.02387 0.71745 0.561 0.0
C167 C 1.04281 0.72759 0.67139 0.0
C168 C 1.02413 0.77838 0.67327 0.0
C169 C 1.00155 0.79621 0.62001 0.0
C170 C 1.00113 0.7659 0.5647 0.0
H171 H 0.26423 0.93379 0.82946 0.0
H172 H 0.29402 0.09846 0.84914 0.0
H173 H 0.32312 0.92469 0.74858 0.0
H174 H 0.35165 0.08964 0.76803 0.0
H175 H 0.46173 0.06482 0.6289 0.0
H176 H 0.42341 0.05502 0.73011 0.0
H177 H 0.32487 0.9537 0.64124 0.0
H178 H 0.36387 0.96226 0.54126 0.0
C179 C 0.2839 0.96778 0.81753 0.0
C180 C 0.27389 1.017 0.84506 0.0
C181 C 0.31745 0.96265 0.77092 0.0
C182 C 0.3418 1.00655 0.75124 0.0
C183 C 0.33395 0.05488 0.7822 0.0
C184 C 0.30045 0.06003 0.82843 0.0
C185 C 0.43261 0.03937 0.63155 0.0
C186 C 0.41531 1.01502 0.57708 0.0
C187 C 0.41045 0.03404 0.68934 0.0
C188 C 0.37071 1.00406 0.69373 0.0
C189 C 0.35549 0.97677 0.63991 0.0
C190 C 0.37753 0.98218 0.58235 0.0
H191 H 0.09242 0.25071 0.86629 0.0
H192 H 1.01684 0.1309 0.76682 0.0
H193 H 0.07687 0.31155 0.78213 0.0
H194 H 1.00238 0.19173 0.68215 0.0
H195 H 0.08977 0.29634 0.52894 0.0
H196 H 0.08612 0.24043 0.6194 0.0
H197 H 0.99028 0.34587 0.70951 0.0
H198 H 0.99119 0.40091 0.61699 0.0
C199 C 0.07179 0.23773 0.82709 0.0
C200 C 0.05621 0.18595 0.82274 0.0
C201 C 0.06275 0.27259 0.77932 0.0
C202 C 1.03858 0.25596 0.72617 0.0
C203 C 1.02092 0.2052 0.72313 0.0
C204 C 1.02917 0.17058 0.77152 0.0
C205 C 0.06694 0.3073 0.56704 0.0
C206 C 1.04039 0.35311 0.56499 0.0
C207 C 0.06515 0.27531 0.61894 0.0
C208 C 1.03759 0.28886 0.67056 0.0
C209 C 1.01155 0.33476 0.6697 0.0
C210 C 1.01255 0.3664 0.61705 0.0
H211 H 0.89689 0.1437 0.76895 0.0
H212 H 0.90715 0.97561 0.74681 0.0
H213 H 0.83994 0.14482 0.68582 0.0
H214 H 0.85044 0.97707 0.66477 0.0
H215 H 0.70563 0.992 0.59265 0.0
H216 H 0.76602 0.99782 0.67051 0.0
H217 H 0.82802 0.12249 0.56832 0.0
H218 H 0.76743 0.11679 0.49043 0.0
C219 C 0.88772 0.1072 0.7457 0.0
C220 C 0.90615 0.05952 0.76529 0.0
C221 C 0.85504 0.10786 0.69827 0.0
C222 C 0.84006 0.06088 0.67003 0.0
C223 C 0.86056 1.01373 0.68686 0.0
C224 C 0.89337 1.01305 0.73361 0.0
C225 C 0.73178 1.02113 0.58737 0.0
C226 C 0.73198 0.05376 0.53545 0.0
C227 C 0.76657 1.02412 0.63147 0.0
C228 C 0.80197 0.06021 0.62494 0.0
C229 C 0.80119 0.09433 0.57443 0.0
C230 C 0.76668 0.09089 0.52985 0.0
loop_
_geom_bond_atom_site_label_1
_geom_bond_atom_site_label_2
_geom_bond_distance
_geom_bond_site_symmetry_2
_ccdc_geom_bond_type
C0 O27 1.308 1_655 S
C0 O28 1.213 . S
C1 O22 1.350 . S
C1 O25 1.223 1_565 S
C2 O24 1.264 1_545 S
C2 O26 1.273 . S
Mg3 O5 1.936 1_565 S
Mg3 O12 2.081 . S
Mg3 O14 2.023 1_556 S
Mg3 O18 2.031 . S
Mg3 O27 2.291 1_556 S
Mg4 O5 1.963 . S
Mg4 O15 1.942 . S
Mg4 O16 1.955 1_556 S
Mg4 O23 1.986 . S
O5 Mg3 1.936 1_545 S
O5 Mg4 1.963 . S
O5 Mg6 1.912 1_556 S
Mg6 O5 1.912 1_554 S
Mg6 O7 1.918 1_455 S
Mg6 O11 2.019 . S
Mg6 O17 2.108 1_444 S
Mg6 O21 2.006 1_454 S
Mg6 O27 2.119 1_545 S
O7 Mg6 1.918 1_655 S
O7 Mg8 1.936 1_545 S
O7 Mg9 1.963 . S
Mg8 O7 1.936 1_565 S
Mg8 O17 2.291 1_554 S
Mg8 O22 2.081 . S
Mg8 O24 2.023 1_554 S
Mg8 O28 2.031 . S
Mg9 O7 1.963 . S
Mg9 O13 1.986 . S
Mg9 O25 1.942 . S
Mg9 O26 1.955 1_554 S
C10 O21 1.191 1_455 S
C10 O23 1.307 . S
O11 Mg6 2.019 . S
O11 C30 1.191 1_455 S
O12 Mg3 2.081 . S
O12 C20 1.331 . S
O13 Mg9 1.986 . S
O13 C30 1.307 . S
O14 Mg3 2.023 1_554 S
O14 C29 1.264 1_565 S
O15 Mg4 1.942 . S
O15 C20 1.244 1_545 S
O16 Mg4 1.955 1_554 S
O16 C29 1.273 . S
O17 Mg6 2.108 1_666 S
O17 Mg8 2.291 1_556 S
O17 C19 1.312 1_655 S
O18 Mg3 2.031 . S
O18 C19 1.208 . S
C19 O17 1.312 1_455 S
C19 O18 1.208 . S
C20 O12 1.331 . S
C20 O15 1.244 1_565 S
O21 Mg6 2.006 1_656 S
O21 C10 1.191 1_655 S
O22 C1 1.350 . S
O22 Mg8 2.081 . S
O23 Mg4 1.986 . S
O23 C10 1.307 . S
O24 C2 1.264 1_565 S
O24 Mg8 2.023 1_556 S
O25 C1 1.223 1_545 S
O25 Mg9 1.942 . S
O26 C2 1.273 . S
O26 Mg9 1.955 1_556 S
O27 C0 1.308 1_455 S
O27 Mg3 2.291 1_554 S
O27 Mg6 2.119 1_565 S
O28 C0 1.213 . S
O28 Mg8 2.031 . S
C29 O14 1.264 1_545 S
C29 O16 1.273 . S
C30 O11 1.191 1_655 S
C30 O13 1.307 . S
H31 C39 0.940 . S
H32 C42 0.940 . S
H33 C44 0.940 1_655 S
H34 C45 0.940 . S
H35 C48 0.940 . S
H36 C50 0.940 1_655 S
N37 N38 1.190 . S
N37 C41 1.477 . S
N38 N37 1.190 . S
N38 C47 1.477 . S
C39 H31 0.940 . S
C39 C40 1.390 . S
C39 C41 1.322 . S
C40 C39 1.390 . S
C40 C44 1.370 . S
C41 N37 1.477 . S
C41 C39 1.322 . S
C41 C42 1.447 . S
C42 H32 0.940 . S
C42 C41 1.447 . S
C42 C43 1.373 . S
C43 C42 1.373 . S
C43 C44 1.417 . S
C44 H33 0.940 1_455 S
C44 C40 1.370 . S
C44 C43 1.417 . S
C45 H34 0.940 . S
C45 C46 1.390 . S
C45 C47 1.322 . S
C46 C45 1.390 . S
C46 C50 1.370 . S
C47 N38 1.477 . S
C47 C45 1.322 . S
C47 C48 1.447 . S
C48 H35 0.940 . S
C48 C47 1.447 . S
C48 C49 1.373 . S
C49 C48 1.373 . S
C49 C50 1.417 . S
C50 H36 0.940 1_455 S
C50 C46 1.370 . S
C50 C49 1.417 . S
H51 C59 0.940 . S
H52 C62 0.940 . S
H53 C64 0.936 1_565 S
H54 C65 0.940 . S
H55 C68 0.940 . S
H56 C70 0.936 1_565 S
N57 N58 1.190 . S
N57 C61 1.477 . S
N58 N57 1.190 . S
N58 C67 1.477 . S
C59 H51 0.940 . S
C59 C60 1.390 . S
C59 C61 1.322 . S
C60 C59 1.390 . S
C60 C64 1.371 . S
C61 N57 1.477 . S
C61 C59 1.322 . S
C61 C62 1.447 . S
C62 H52 0.940 . S
C62 C61 1.447 . S
C62 C63 1.373 . S
C63 C62 1.373 . S
C63 C64 1.420 . S
C64 H53 0.936 1_545 S
C64 C60 1.371 . S
C64 C63 1.420 . S
C65 H54 0.940 . S
C65 C66 1.390 . S
C65 C67 1.322 . S
C66 C65 1.390 . S
C66 C70 1.370 . S
C67 N58 1.477 . S
C67 C65 1.322 . S
C67 C68 1.447 . S
C68 H55 0.940 . S
C68 C67 1.447 . S
C68 C69 1.373 . S
C69 C68 1.373 . S
C69 C70 1.421 . S
C70 H56 0.936 1_545 S
C70 C66 1.370 . S
C70 C69 1.421 . S
H71 C79 0.953 . S
H72 C84 0.950 . S
H73 C81 0.950 . S
H74 C83 0.950 . S
H75 C85 0.950 . S
H76 C87 0.950 . S
H77 C89 0.950 . S
H78 C90 0.950 . S
C79 H71 0.953 . S
C79 C80 1.382 1_655 S
C79 C81 1.392 . S
C80 C79 1.382 1_455 S
C80 C84 1.393 . S
C81 H73 0.950 . S
C81 C79 1.392 . S
C81 C82 1.400 1_655 S
C82 C81 1.400 1_455 S
C82 C83 1.398 . S
C82 C88 1.491 . S
C83 H74 0.950 . S
C83 C82 1.398 . S
C83 C84 1.391 . S
C84 H72 0.950 . S
C84 C80 1.393 . S
C84 C83 1.391 . S
C85 H75 0.950 . S
C85 C86 1.384 1_455 S
C85 C87 1.391 . S
C86 C85 1.384 1_655 S
C86 C90 1.395 . S
C87 H76 0.950 . S
C87 C85 1.391 . S
C87 C88 1.400 . S
C88 C82 1.491 . S
C88 C87 1.400 . S
C88 C89 1.398 1_455 S
C89 H77 0.950 . S
C89 C88 1.398 1_655 S
C89 C90 1.391 . S
C90 H78 0.950 . S
C90 C86 1.395 . S
C90 C89 1.391 . S
H91 C99 0.950 . S
H92 C104 0.950 . S
H93 C101 0.950 . S
H94 C103 0.950 . S
H95 C105 0.950 . S
H96 C107 0.950 . S
H97 C109 0.950 . S
H98 C110 0.950 . S
C99 H91 0.950 . S
C99 C100 1.386 . S
C99 C101 1.391 . S
C100 C99 1.386 . S
C100 C104 1.393 1_565 S
C101 H93 0.950 . S
C101 C99 1.391 . S
C101 C102 1.400 . S
C102 C101 1.400 . S
C102 C103 1.398 1_565 S
C102 C108 1.491 . S
C103 H94 0.950 . S
C103 C102 1.398 1_545 S
C103 C104 1.391 . S
C104 H92 0.950 . S
C104 C100 1.393 1_545 S
C104 C103 1.391 . S
C105 H95 0.950 . S
C105 C106 1.386 1_545 S
C105 C107 1.391 . S
C106 C105 1.386 1_565 S
C106 C110 1.393 . S
C107 H96 0.950 . S
C107 C105 1.391 . S
C107 C108 1.400 1_545 S
C108 C102 1.491 . S
C108 C107 1.400 1_565 S
C108 C109 1.398 . S
C109 H97 0.950 . S
C109 C108 1.398 . S
C109 C110 1.391 . S
C110 H98 0.950 . S
C110 C106 1.393 . S
C110 C109 1.391 . S
H111 C119 0.950 . S
H112 C124 0.950 . S
H113 C121 0.950 . S
H114 C123 0.950 . S
H115 C125 0.950 . S
H116 C127 0.950 . S
H117 C129 0.950 . S
H118 C130 0.950 . S
C119 H111 0.950 . S
C119 C120 1.386 1_655 S
C119 C121 1.391 . S
C120 C119 1.386 1_455 S
C120 C124 1.393 . S
C121 H113 0.950 . S
C121 C119 1.391 . S
C121 C122 1.400 1_655 S
C122 C121 1.400 1_455 S
C122 C123 1.398 . S
C122 C128 1.491 . S
C123 H114 0.950 . S
C123 C122 1.398 . S
C123 C124 1.391 . S
C124 H112 0.950 . S
C124 C120 1.393 . S
C124 C123 1.391 . S
C125 H115 0.950 . S
C125 C126 1.386 . S
C125 C127 1.391 . S
C126 C125 1.386 . S
C126 C130 1.393 1_455 S
C127 H116 0.950 . S
C127 C125 1.391 . S
C127 C128 1.400 . S
C128 C122 1.491 . S
C128 C127 1.400 . S
C128 C129 1.398 1_455 S
C129 H117 0.950 . S
C129 C128 1.398 1_655 S
C129 C130 1.391 . S
C130 H118 0.950 . S
C130 C126 1.393 1_655 S
C130 C129 1.391 . S
H131 C139 0.950 . S
H132 C144 0.950 . S
H133 C141 0.950 . S
H134 C143 0.950 . S
H135 C145 0.950 . S
H136 C147 0.950 . S
H137 C149 0.948 1_565 S
H138 C150 0.950 1_565 S
C139 H131 0.950 . S
C139 C140 1.386 . S
C139 C141 1.391 . S
C140 C139 1.386 . S
C140 C144 1.393 . S
C141 H133 0.950 . S
C141 C139 1.391 . S
C141 C142 1.400 . S
C142 C141 1.400 . S
C142 C143 1.398 . S
C142 C148 1.491 . S
C143 H134 0.950 . S
C143 C142 1.398 . S
C143 C144 1.391 . S
C144 H132 0.950 . S
C144 C140 1.393 . S
C144 C143 1.391 . S
C145 H135 0.950 . S
C145 C146 1.386 . S
C145 C147 1.391 . S
C146 C145 1.386 . S
C146 C150 1.393 . S
C147 H136 0.950 . S
C147 C145 1.391 . S
C147 C148 1.400 . S
C148 C142 1.491 . S
C148 C147 1.400 . S
C148 C149 1.398 . S
C149 H137 0.948 1_545 S
C149 C148 1.398 . S
C149 C150 1.391 . S
C150 H138 0.950 1_545 S
C150 C146 1.393 . S
C150 C149 1.391 . S
H151 C159 0.950 . S
H152 C164 0.950 . S
H153 C161 0.950 . S
H154 C163 0.950 . S
H155 C165 0.950 . S
H156 C167 0.950 . S
H157 C169 0.950 . S
H158 C170 0.950 . S
C159 H151 0.950 . S
C159 C160 1.386 1_655 S
C159 C161 1.391 . S
C160 C159 1.386 1_455 S
C160 C164 1.393 . S
C161 H153 0.950 . S
C161 C159 1.391 . S
C161 C162 1.400 1_655 S
C162 C161 1.400 1_455 S
C162 C163 1.398 . S
C162 C168 1.491 . S
C163 H154 0.950 . S
C163 C162 1.398 . S
C163 C164 1.391 . S
C164 H152 0.950 . S
C164 C160 1.393 . S
C164 C163 1.391 . S
C165 H155 0.950 . S
C165 C166 1.385 1_455 S
C165 C167 1.391 . S
C166 C165 1.385 1_655 S
C166 C170 1.394 . S
C167 H156 0.950 . S
C167 C165 1.391 . S
C167 C168 1.400 . S
C168 C162 1.491 . S
C168 C167 1.400 . S
C168 C169 1.398 1_455 S
C169 H157 0.950 . S
C169 C168 1.398 1_655 S
C169 C170 1.391 . S
C170 H158 0.950 . S
C170 C166 1.394 . S
C170 C169 1.391 . S
H171 C179 0.950 . S
H172 C184 0.950 . S
H173 C181 0.950 . S
H174 C183 0.950 . S
H175 C185 0.950 . S
H176 C187 0.950 . S
H177 C189 0.950 . S
H178 C190 0.950 . S
C179 H171 0.950 . S
C179 C180 1.386 . S
C179 C181 1.391 . S
C180 C179 1.386 . S
C180 C184 1.393 1_565 S
C181 H173 0.950 . S
C181 C179 1.391 . S
C181 C182 1.400 . S
C182 C181 1.400 . S
C182 C183 1.398 1_565 S
C182 C188 1.491 . S
C183 H174 0.950 . S
C183 C182 1.398 1_545 S
C183 C184 1.391 . S
C184 H172 0.950 . S
C184 C180 1.393 1_545 S
C184 C183 1.391 . S
C185 H175 0.950 . S
C185 C186 1.385 1_545 S
C185 C187 1.391 . S
C186 C185 1.385 1_565 S
C186 C190 1.394 . S
C187 H176 0.950 . S
C187 C185 1.391 . S
C187 C188 1.400 1_545 S
C188 C182 1.491 . S
C188 C187 1.400 1_565 S
C188 C189 1.398 . S
C189 H177 0.950 . S
C189 C188 1.398 . S
C189 C190 1.391 . S
C190 H178 0.950 . S
C190 C186 1.394 . S
C190 C189 1.391 . S
H191 C199 0.950 . S
H192 C204 0.950 . S
H193 C201 0.950 . S
H194 C203 0.950 . S
H195 C205 0.950 . S
H196 C207 0.950 . S
H197 C209 0.950 . S
H198 C210 0.950 . S
C199 H191 0.950 . S
C199 C200 1.386 1_655 S
C199 C201 1.391 . S
C200 C199 1.386 1_455 S
C200 C204 1.393 . S
C201 H193 0.950 . S
C201 C199 1.391 . S
C201 C202 1.400 1_655 S
C202 C201 1.400 1_455 S
C202 C203 1.398 . S
C202 C208 1.491 . S
C203 H194 0.950 . S
C203 C202 1.398 . S
C203 C204 1.391 . S
C204 H192 0.950 . S
C204 C200 1.393 . S
C204 C203 1.391 . S
C205 H195 0.950 . S
C205 C206 1.386 . S
C205 C207 1.391 . S
C206 C205 1.386 . S
C206 C210 1.393 1_455 S
C207 H196 0.950 . S
C207 C205 1.391 . S
C207 C208 1.400 . S
C208 C202 1.491 . S
C208 C207 1.400 . S
C208 C209 1.398 1_455 S
C209 H197 0.950 . S
C209 C208 1.398 1_655 S
C209 C210 1.391 . S
C210 H198 0.950 . S
C210 C206 1.393 1_655 S
C210 C209 1.391 . S
H211 C219 0.950 . S
H212 C224 0.950 . S
H213 C221 0.950 . S
H214 C223 0.950 . S
H215 C225 0.950 . S
H216 C227 0.950 . S
H217 C229 0.950 . S
H218 C230 0.950 . S
C219 H211 0.950 . S
C219 C220 1.386 . S
C219 C221 1.391 . S
C220 C219 1.386 . S
C220 C224 1.393 1_545 S
C221 H213 0.950 . S
C221 C219 1.391 . S
C221 C222 1.400 . S
C222 C221 1.400 . S
C222 C223 1.398 1_545 S
C222 C228 1.491 . S
C223 H214 0.950 . S
C223 C222 1.398 1_565 S
C223 C224 1.391 . S
C224 H212 0.950 . S
C224 C220 1.393 1_565 S
C224 C223 1.391 . S
C225 H215 0.950 . S
C225 C226 1.386 1_565 S
C225 C227 1.391 . S
C226 C225 1.386 1_545 S
C226 C230 1.393 . S
C227 H216 0.950 . S
C227 C225 1.391 . S
C227 C228 1.400 1_565 S
C228 C222 1.491 . S
C228 C227 1.400 1_545 S
C228 C229 1.398 . S
C229 H217 0.950 . S
C229 C228 1.398 . S
C229 C230 1.391 . S
C230 H218 0.950 . S
C230 C226 1.393 . S
C230 C229 1.391 . S
C80 C30 1.485 1_455 S
C86 C40 1.463 1_655 S
C100 C1 1.675 . S
C106 C60 1.643 1_565 S
C120 C0 1.427 1_455 S
C126 C49 1.481 . S
C140 C29 1.690 . S
C146 C69 1.695 . S
C160 C19 1.466 . S
C166 C46 1.484 1_655 S
C180 C20 1.680 . S
C186 C66 1.640 1_565 S
C206 C43 1.469 . S
C200 C10 1.441 . S
C220 C2 1.694 . S
C226 C63 1.698 . S
