# Generated by pormake.
# Topology pts, (4,4)-cn, num edge types: 1
# Building blocks:
#     Node 0, Type 0, BuildingBlock: NAWXER_clean_linker_0, # of connection points: 4
#     Node 1, Type 0, BuildingBlock: NAWXER_clean_linker_0, # of connection points: 4
#     Node 2, Type 1, BuildingBlock: AZAVOO_clean_sbu_0, # of connection points: 4
#     Node 3, Type 1, BuildingBlock: AZAVOO_clean_sbu_0, # of connection points: 4
#     Edge 4, Type (0, 1), None
#     Edge 5, Type (0, 1), None
#     Edge 6, Type (0, 1), None
#     Edge 7, Type (0, 1), None
#     Edge 8, Type (0, 1), None
#     Edge 9, Type (0, 1), None
#     Edge 10, Type (0, 1), None
#     Edge 11, Type (0, 1), None
# Relax obj value: 0.000
# Max RMSD: 0.028
# Mean RMSD: 0.016
data_MOF--net-pts--node1-AZAVOO_clean_sbu_0--node2-NAWXER_clean_linker_0--edge1-none
_symmetry_space_group_name_H-M    P1
_symmetry_Int_Tables_number       1
_symmetry_cell_setting            triclinic
loop_
_symmetry_equiv_pos_as_xyz
'x, y, z'
_cell_length_a     16.071831
_cell_length_b     17.345203
_cell_length_c     21.53452
_cell_angle_alpha  89.879225
_cell_angle_beta   98.146135
_cell_angle_gamma 89.648403
loop_
_atom_site_label
_atom_site_type_symbol
_atom_site_fract_x
_atom_site_fract_y
_atom_site_fract_z
_atom_type_partial_charge
C0 C 0.78638 0.0276 0.93395 0.0
C1 C 0.78396 -0.0345 0.89171 0.0
C2 C 0.73007 0.03053 0.97832 0.0
C3 C 0.6717 -0.02899 0.98104 0.0
C4 C 0.72836 0.90455 0.8973 0.0
C5 C 0.673 0.90739 0.94125 0.0
C6 C 0.5996 -0.02139 1.01612 0.0
C7 C 0.82199 0.9367 0.16691 0.0
C8 C 0.82343 -0.02011 0.222 0.0
C9 C 0.7523 0.94103 0.11981 0.0
C10 C 0.68444 -0.00885 0.12593 0.0
C11 C 0.75658 0.03046 0.22789 0.0
C12 C 0.68837 0.03657 0.18021 0.0
C13 C 0.60449 -0.01023 0.08151 0.0
C14 C 0.25448 0.91668 0.1288 0.0
C15 C 0.24219 -0.02717 0.17372 0.0
C16 C 0.32241 0.92139 0.09511 0.0
C17 C 0.37889 -0.01688 0.10464 0.0
C18 C 0.29844 0.03496 0.18295 0.0
C19 C 0.36641 0.03976 0.14896 0.0
C20 C 0.45364 -0.01396 0.07146 0.0
C21 C 0.23108 0.00374 0.91512 0.0
C22 C 0.23396 0.95186 0.86541 0.0
C23 C 0.29994 0.01029 0.96257 0.0
C24 C 0.37132 -0.03688 0.96192 0.0
C25 C 0.30445 0.9039 0.86555 0.0
C26 C 0.37201 0.90907 0.91349 0.0
C27 C 0.44962 -0.02586 1.0063 0.0
H28 H 0.82896 0.07516 0.93089 0.0
H29 H 0.7292 0.08071 1.00807 0.0
H30 H 0.7257 0.85517 0.86638 0.0
H31 H 0.62845 0.86091 0.94246 0.0
H32 H 0.87228 0.8963 0.16194 0.0
H33 H 0.75014 0.90191 0.08064 0.0
H34 H 0.75642 0.06444 0.27006 0.0
H35 H 0.63712 0.0752 0.1868 0.0
H36 H 0.21303 0.8676 0.12087 0.0
H37 H 0.33185 0.87564 0.06263 0.0
H38 H 0.29127 0.07884 0.21754 0.0
H39 H 0.40967 0.08747 0.15761 0.0
H40 H 0.17762 0.04199 0.91552 0.0
H41 H 0.29852 0.05417 0.99807 0.0
H42 H 0.30797 0.86315 0.82792 0.0
H43 H 0.42615 0.872 0.9117 0.0
N44 N 0.52266 -0.02876 0.98182 0.0
N45 N 0.53086 -0.00626 0.10628 0.0
C46 C 0.06919 0.75678 0.63986 0.0
C47 C 0.00809 0.76353 0.68023 0.0
C48 C 0.07899 0.68768 0.60826 0.0
C49 C 0.02545 0.62526 0.61453 0.0
C50 C 0.95884 0.69917 0.68986 0.0
C51 C 0.96724 0.63083 0.65714 0.0
C52 C 0.02894 0.55365 0.57761 0.0
C53 C 0.98252 0.75305 0.4441 0.0
C54 C 0.04441 0.75984 0.40442 0.0
C55 C 0.97432 0.68444 0.4769 0.0
C56 C 0.03013 0.62264 0.47245 0.0
C57 C 0.09544 0.69572 0.39614 0.0
C58 C 0.08854 0.6279 0.43 0.0
C59 C 0.0295 0.55239 0.51165 0.0
C60 C 0.95313 0.21922 0.45976 0.0
C61 C 0.01701 0.19318 0.42639 0.0
C62 C 0.95583 0.2929 0.4853 0.0
C63 C 0.02279 0.34214 0.47865 0.0
C64 C 0.08134 0.24443 0.4162 0.0
C65 C 0.08409 0.31865 0.44216 0.0
C66 C 0.03094 0.4152 0.51406 0.0
C67 C 0.11235 0.22156 0.63885 0.0
C68 C 0.04728 0.19648 0.67121 0.0
C69 C 0.11002 0.295 0.61247 0.0
C70 C 0.04239 0.34488 0.61744 0.0
C71 C 0.98274 0.24871 0.68029 0.0
C72 C 0.98045 0.32265 0.6536 0.0
C73 C 0.03324 0.41651 0.57977 0.0
H74 H 0.10911 0.80476 0.63224 0.0
H75 H 0.12695 0.68376 0.57778 0.0
H76 H 0.91137 0.70247 0.72082 0.0
H77 H 0.92628 0.58301 0.66371 0.0
H78 H 0.94128 0.80091 0.45064 0.0
H79 H 0.92618 0.68064 0.50721 0.0
H80 H 0.14353 0.69903 0.36573 0.0
H81 H 0.13118 0.58049 0.42476 0.0
H82 H 0.90181 0.18194 0.46768 0.0
H83 H 0.907 0.31057 0.51228 0.0
H84 H 0.13121 0.22622 0.39047 0.0
H85 H 0.13601 0.35622 0.43628 0.0
H86 H 0.16378 0.18343 0.63179 0.0
H87 H 0.15927 0.31169 0.58569 0.0
H88 H 0.93191 0.23124 0.70518 0.0
H89 H 0.92797 0.36071 0.65817 0.0
N90 N 0.03088 0.48542 0.60908 0.0
N91 N 0.03041 0.48295 0.48246 0.0
Mg92 Mg 0.09312 -0.03331 0.33508 0.0
O93 O 0.96717 -0.03151 0.26765 0.0
O94 O 0.86677 0.9601 0.32984 0.0
Mg95 Mg 0.92442 0.94034 0.43159 0.0
C96 C 0.88984 -0.03185 0.27587 0.0
C97 C 0.17584 -0.03789 0.21434 0.0
O98 O 0.13139 0.89854 0.21008 0.0
O99 O 0.0664 0.08925 0.36774 0.0
O100 O 0.9706 0.06468 0.43097 0.0
O101 O 0.10453 0.83842 0.32973 0.0
O102 O 0.03913 0.89881 0.39876 0.0
C103 C 0.01792 0.11147 0.40657 0.0
C104 C 0.0614 0.83466 0.37596 0.0
O105 O 0.16857 0.00852 0.25897 0.0
Mg106 Mg 0.9642 -0.03083 0.75518 0.0
O107 O 0.09131 -0.03637 0.81885 0.0
O108 O 0.18926 0.94099 0.75672 0.0
Mg109 Mg 0.12813 0.93998 0.65466 0.0
C110 C 0.16748 0.95154 0.81083 0.0
C111 C 0.83529 -0.03665 0.83985 0.0
O112 O 0.81609 0.91389 0.79403 0.0
O113 O 0.99292 0.0923 0.72638 0.0
O114 O 0.0895 0.06651 0.66393 0.0
O115 O 0.95236 0.84084 0.75782 0.0
O116 O 0.01155 0.90252 0.6862 0.0
C117 C 0.04388 0.11427 0.68945 0.0
C118 C 0.99132 0.83801 0.70938 0.0
O119 O 0.89862 0.00651 0.83824 0.0
loop_
_geom_bond_atom_site_label_1
_geom_bond_atom_site_label_2
_geom_bond_distance
_geom_bond_site_symmetry_2
_ccdc_geom_bond_type
C0 C1 1.384 . S
C0 C2 1.384 . S
C0 H28 0.931 . S
C1 C0 1.384 . S
C1 C4 1.382 1_545 S
C2 C0 1.384 . S
C2 C3 1.381 1_545 S
C2 H29 0.930 . S
C3 C2 1.381 1_565 S
C3 C5 1.381 . S
C3 C6 1.487 . S
C4 C1 1.382 1_565 S
C4 C5 1.387 . S
C4 H30 0.930 . S
C5 C3 1.381 . S
C5 C4 1.387 . S
C5 H31 0.931 . S
C6 C3 1.487 . S
C6 C13 1.399 1_566 S
C6 N44 1.343 . S
C7 C8 1.384 1_565 S
C7 C9 1.384 . S
C7 H32 0.931 . S
C8 C7 1.384 1_545 S
C8 C11 1.382 . S
C9 C7 1.384 . S
C9 C10 1.381 1_565 S
C9 H33 0.930 . S
C10 C9 1.381 1_545 S
C10 C12 1.381 . S
C10 C13 1.487 . S
C11 C8 1.382 . S
C11 C12 1.387 . S
C11 H34 0.930 . S
C12 C10 1.381 . S
C12 C11 1.387 . S
C12 H35 0.931 . S
C13 C6 1.399 1_544 S
C13 C10 1.487 . S
C13 N45 1.343 . S
C14 C15 1.384 1_565 S
C14 C16 1.384 . S
C14 H36 0.931 . S
C15 C14 1.384 1_545 S
C15 C18 1.382 . S
C16 C14 1.384 . S
C16 C17 1.381 1_565 S
C16 H37 0.930 . S
C17 C16 1.381 1_545 S
C17 C19 1.381 . S
C17 C20 1.487 . S
C18 C15 1.382 . S
C18 C19 1.387 . S
C18 H38 0.930 . S
C19 C17 1.381 . S
C19 C18 1.387 . S
C19 H39 0.931 . S
C20 C17 1.487 . S
C20 C27 1.399 1_544 S
C20 N45 1.343 . S
C21 C22 1.384 . S
C21 C23 1.384 . S
C21 H40 0.931 . S
C22 C21 1.384 . S
C22 C25 1.382 1_545 S
C23 C21 1.384 . S
C23 C24 1.381 1_545 S
C23 H41 0.930 . S
C24 C23 1.381 1_565 S
C24 C26 1.381 . S
C24 C27 1.487 . S
C25 C22 1.382 1_565 S
C25 C26 1.387 . S
C25 H42 0.930 . S
C26 C24 1.381 . S
C26 C25 1.387 . S
C26 H43 0.931 . S
C27 C20 1.399 1_566 S
C27 C24 1.487 . S
C27 N44 1.343 . S
H28 C0 0.931 . S
H29 C2 0.930 . S
H30 C4 0.930 . S
H31 C5 0.931 . S
H32 C7 0.931 . S
H33 C9 0.930 . S
H34 C11 0.930 . S
H35 C12 0.931 . S
H36 C14 0.931 . S
H37 C16 0.930 . S
H38 C18 0.930 . S
H39 C19 0.931 . S
H40 C21 0.931 . S
H41 C23 0.930 . S
H42 C25 0.930 . S
H43 C26 0.931 . S
N44 C6 1.343 . S
N44 C27 1.343 . S
N45 C13 1.343 . S
N45 C20 1.343 . S
C46 C47 1.384 . S
C46 C48 1.384 . S
C46 H74 0.931 . S
C47 C46 1.384 . S
C47 C50 1.382 1_455 S
C48 C46 1.384 . S
C48 C49 1.381 . S
C48 H75 0.930 . S
C49 C48 1.381 . S
C49 C51 1.381 1_455 S
C49 C52 1.487 . S
C50 C47 1.382 1_655 S
C50 C51 1.387 . S
C50 H76 0.930 . S
C51 C49 1.381 1_655 S
C51 C50 1.387 . S
C51 H77 0.931 . S
C52 C49 1.487 . S
C52 C59 1.399 . S
C52 N90 1.343 . S
C53 C54 1.384 1_655 S
C53 C55 1.384 . S
C53 H78 0.931 . S
C54 C53 1.384 1_455 S
C54 C57 1.382 . S
C55 C53 1.384 . S
C55 C56 1.381 1_655 S
C55 H79 0.930 . S
C56 C55 1.381 1_455 S
C56 C58 1.381 . S
C56 C59 1.487 . S
C57 C54 1.382 . S
C57 C58 1.387 . S
C57 H80 0.930 . S
C58 C56 1.381 . S
C58 C57 1.387 . S
C58 H81 0.931 . S
C59 C52 1.399 . S
C59 C56 1.487 . S
C59 N91 1.343 . S
C60 C61 1.384 1_655 S
C60 C62 1.384 . S
C60 H82 0.931 . S
C61 C60 1.384 1_455 S
C61 C64 1.382 . S
C62 C60 1.384 . S
C62 C63 1.381 1_655 S
C62 H83 0.930 . S
C63 C62 1.381 1_455 S
C63 C65 1.381 . S
C63 C66 1.487 . S
C64 C61 1.382 . S
C64 C65 1.387 . S
C64 H84 0.930 . S
C65 C63 1.381 . S
C65 C64 1.387 . S
C65 H85 0.931 . S
C66 C63 1.487 . S
C66 C73 1.399 . S
C66 N91 1.343 . S
C67 C68 1.384 . S
C67 C69 1.384 . S
C67 H86 0.931 . S
C68 C67 1.384 . S
C68 C71 1.382 1_455 S
C69 C67 1.384 . S
C69 C70 1.381 . S
C69 H87 0.930 . S
C70 C69 1.381 . S
C70 C72 1.381 1_455 S
C70 C73 1.487 . S
C71 C68 1.382 1_655 S
C71 C72 1.387 . S
C71 H88 0.930 . S
C72 C70 1.381 1_655 S
C72 C71 1.387 . S
C72 H89 0.931 . S
C73 C66 1.399 . S
C73 C70 1.487 . S
C73 N90 1.343 . S
H74 C46 0.931 . S
H75 C48 0.930 . S
H76 C50 0.930 . S
H77 C51 0.931 . S
H78 C53 0.931 . S
H79 C55 0.930 . S
H80 C57 0.930 . S
H81 C58 0.931 . S
H82 C60 0.931 . S
H83 C62 0.930 . S
H84 C64 0.930 . S
H85 C65 0.931 . S
H86 C67 0.931 . S
H87 C69 0.930 . S
H88 C71 0.930 . S
H89 C72 0.931 . S
N90 C52 1.343 . S
N90 C73 1.343 . S
N91 C59 1.343 . S
N91 C66 1.343 . S
Mg92 O93 2.028 1_455 S
Mg92 O99 1.986 . S
Mg92 O101 2.114 1_545 S
Mg92 O102 2.251 1_545 S
Mg92 O105 2.010 . S
O93 Mg92 2.028 1_655 S
O93 C96 1.250 . S
O94 Mg95 2.028 . S
O94 C96 1.248 . S
Mg95 O94 2.028 . S
Mg95 O100 2.032 . S
Mg95 O102 2.079 1_645 S
C96 O93 1.250 . S
C96 O94 1.248 . S
C97 O98 1.264 . S
C97 O105 1.249 . S
O98 C97 1.264 . S
O99 Mg92 1.986 . S
O99 C103 1.246 . S
O100 Mg95 2.032 . S
O100 C103 1.259 1_655 S
O101 Mg92 2.114 1_565 S
O101 C104 1.252 . S
O102 Mg92 2.251 1_565 S
O102 Mg95 2.079 1_465 S
O102 C104 1.273 . S
C103 O99 1.246 . S
C103 O100 1.259 1_455 S
C104 O101 1.252 . S
C104 O102 1.273 . S
O105 Mg92 2.010 . S
O105 C97 1.249 . S
Mg106 O107 2.028 1_655 S
Mg106 O113 1.986 . S
Mg106 O115 2.114 1_545 S
Mg106 O116 2.251 1_645 S
Mg106 O119 2.010 . S
O107 Mg106 2.028 1_455 S
O107 C110 1.250 . S
O108 Mg109 2.028 . S
O108 C110 1.248 . S
Mg109 O108 2.028 . S
Mg109 O114 2.032 . S
Mg109 O116 2.079 1_545 S
C110 O107 1.250 . S
C110 O108 1.248 . S
C111 O112 1.264 . S
C111 O119 1.249 . S
O112 C111 1.264 . S
O113 Mg106 1.986 . S
O113 C117 1.246 1_655 S
O114 Mg109 2.032 . S
O114 C117 1.259 . S
O115 Mg106 2.114 1_565 S
O115 C118 1.252 1_655 S
O116 Mg106 2.251 1_465 S
O116 Mg109 2.079 1_565 S
O116 C118 1.273 . S
C117 O113 1.246 1_455 S
C117 O114 1.259 . S
C118 O115 1.252 1_455 S
C118 O116 1.273 . S
O119 Mg106 2.010 . S
O119 C111 1.249 . S
C97 C15 1.286 . S
C117 C68 1.462 . S
C96 C8 1.475 . S
C118 C47 1.513 . S
C110 C22 1.482 . S
C103 C61 1.462 . S
C111 C1 1.294 . S
C54 C104 1.513 . S
