# Generated by pormake.
# Topology pyr, (3,6)-cn, num edge types: 1
# Building blocks:
#     Node 0, Type 0, BuildingBlock: PAMTOO_clean_linker_0, # of connection points: 3
#     Node 1, Type 0, BuildingBlock: PAMTOO_clean_linker_0, # of connection points: 3
#     Node 2, Type 0, BuildingBlock: PAMTOO_clean_linker_0, # of connection points: 3
#     Node 3, Type 0, BuildingBlock: PAMTOO_clean_linker_0, # of connection points: 3
#     Node 4, Type 0, BuildingBlock: PAMTOO_clean_linker_0, # of connection points: 3
#     Node 5, Type 0, BuildingBlock: PAMTOO_clean_linker_0, # of connection points: 3
#     Node 6, Type 0, BuildingBlock: PAMTOO_clean_linker_0, # of connection points: 3
#     Node 7, Type 0, BuildingBlock: PAMTOO_clean_linker_0, # of connection points: 3
#     Node 8, Type 1, BuildingBlock: CIFDUS_clean_sbu_1, # of connection points: 6
#     Node 9, Type 1, BuildingBlock: CIFDUS_clean_sbu_1, # of connection points: 6
#     Node 10, Type 1, BuildingBlock: CIFDUS_clean_sbu_1, # of connection points: 6
#     Node 11, Type 1, BuildingBlock: CIFDUS_clean_sbu_1, # of connection points: 6
#     Edge 12, Type (0, 1), None
#     Edge 13, Type (0, 1), None
#     Edge 14, Type (0, 1), None
#     Edge 15, Type (0, 1), None
#     Edge 16, Type (0, 1), None
#     Edge 17, Type (0, 1), None
#     Edge 18, Type (0, 1), None
#     Edge 19, Type (0, 1), None
#     Edge 20, Type (0, 1), None
#     Edge 21, Type (0, 1), None
#     Edge 22, Type (0, 1), None
#     Edge 23, Type (0, 1), None
#     Edge 24, Type (0, 1), None
#     Edge 25, Type (0, 1), None
#     Edge 26, Type (0, 1), None
#     Edge 27, Type (0, 1), None
#     Edge 28, Type (0, 1), None
#     Edge 29, Type (0, 1), None
#     Edge 30, Type (0, 1), None
#     Edge 31, Type (0, 1), None
#     Edge 32, Type (0, 1), None
#     Edge 33, Type (0, 1), None
#     Edge 34, Type (0, 1), None
#     Edge 35, Type (0, 1), None
# Relax obj value: 0.110
# Max RMSD: 0.207
# Mean RMSD: 0.139
data_MOF--net-pry--node1-CIFDUS_clean_sbu_1--node2-PAMTOO_clean_linker_0--edge1-none
_symmetry_space_group_name_H-M    P1
_symmetry_Int_Tables_number       1
_symmetry_cell_setting            triclinic
loop_
_symmetry_equiv_pos_as_xyz
'x, y, z'
_cell_length_a     15.988372
_cell_length_b     15.773846
_cell_length_c     14.007341
_cell_angle_alpha  92.992509
_cell_angle_beta   96.28888
_cell_angle_gamma 100.97145
loop_
_atom_site_label
_atom_site_type_symbol
_atom_site_fract_x
_atom_site_fract_y
_atom_site_fract_z
_atom_type_partial_charge
H0 H 0.05866 0.23356 0.33636 0.0
H1 H 0.20283 0.0313 0.30742 0.0
H2 H 0.24554 0.24838 0.13441 0.0
H3 H 0.25427 0.08047 1.04207 0.0
C4 C 0.29803 0.06096 0.10062 0.0
O5 O 0.29764 0.10817 0.18619 0.0
H6 H 0.27761 0.9907 0.10943 0.0
C7 C 0.10502 0.20529 0.30113 0.0
C8 C 0.14593 0.24911 0.2264 0.0
C9 C 0.12507 0.12633 0.3318 0.0
C10 C 0.18616 0.09164 0.286 0.0
C11 C 0.22859 0.13504 0.215 0.0
C12 C 0.20806 0.21289 0.18471 0.0
H13 H 0.35242 0.03605 0.81897 0.0
H14 H 0.23563 0.88577 0.55436 0.0
H15 H 0.49365 0.8787 0.6709 0.0
H16 H 0.4916 0.83372 0.51256 0.0
C17 C 0.43684 0.77859 0.51342 0.0
O18 O 0.36495 0.80577 0.54218 0.0
H19 H 0.42124 0.7505 0.43772 0.0
C20 C 0.35684 0.99498 0.756 0.0
C21 C 0.4318 0.96156 0.75201 0.0
C22 C 0.28517 0.9695 0.68395 0.0
C23 C 0.29089 0.90995 0.60724 0.0
C24 C 0.36624 0.87655 0.60268 0.0
C25 C 0.43656 0.90581 0.67286 0.0
H26 H 0.79679 0.30952 0.08615 0.0
H27 H 0.5635 0.31885 0.9033 0.0
H28 H 0.79284 0.49095 0.86467 0.0
H29 H 0.68652 0.58654 0.83146 0.0
C30 C 0.6288 0.54281 0.85092 0.0
O31 O 0.63094 0.45789 0.82131 0.0
H32 H 0.62921 0.55036 0.93053 0.0
C33 C 0.76468 0.33395 1.02436 0.0
C34 C 0.80801 0.40526 0.98049 0.0
C35 C 0.67712 0.29848 0.99177 0.0
C36 C 0.6325 0.3388 0.92072 0.0
C37 C 0.67489 0.40949 0.8777 0.0
C38 C 0.76268 0.43721 0.90214 0.0
H39 H 0.79787 0.7583 0.5706 0.0
H40 H 0.87949 0.51579 0.60294 0.0
H41 H 0.05 0.73046 0.51627 0.0
H42 H 0.95703 0.59108 0.37255 0.0
C43 C 0.98031 0.53876 0.41173 0.0
O44 O 1.006 0.56345 0.50909 0.0
H45 H 0.92791 0.48054 0.40355 0.0
C46 C 0.84929 0.72241 0.58039 0.0
C47 C 0.93206 0.75999 0.55713 0.0
C48 C 0.8293 0.63342 0.59744 0.0
C49 C 0.89424 0.58514 0.59626 0.0
C50 C 0.96891 0.61851 0.55827 0.0
C51 C 0.99208 0.70695 0.54859 0.0
H52 H 0.80411 0.98262 0.84889 0.0
H53 H 0.82968 0.86679 0.12072 0.0
H54 H 0.0155 0.85535 0.92523 0.0
H55 H 0.89863 0.7096 0.10472 0.0
C56 C 0.966 0.74337 0.12868 0.0
O57 O 0.98083 0.82579 0.09648 0.0
H58 H 0.97237 0.74895 0.20864 0.0
C59 C 0.83708 0.94579 0.89838 0.0
C60 C 0.91313 0.91986 0.87525 0.0
C61 C 0.80476 0.92558 0.98649 0.0
C62 C 0.85232 0.88207 1.05231 0.0
C63 C 0.92773 0.85577 1.02922 0.0
C64 C 0.95475 0.87135 0.93952 0.0
H65 H 0.72109 1.01116 0.33782 0.0
H66 H 0.57717 0.20032 0.41571 0.0
H67 H 0.78889 0.16102 0.61253 0.0
H68 H 0.6107 0.28862 0.6921 0.0
C69 C 0.59996 0.27588 0.61256 0.0
O70 O 0.67344 0.25612 0.58001 0.0
H71 H 0.54427 0.22125 0.59349 0.0
C72 C 0.70874 0.05804 0.39111 0.0
C73 C 0.76385 0.08029 0.47878 0.0
C74 C 0.64207 0.10107 0.36659 0.0
C75 C 0.627 0.16432 0.43417 0.0
C76 C 0.67811 0.18458 0.5239 0.0
C77 C 0.74618 0.14162 0.54624 0.0
H78 H 0.29643 0.7503 0.10477 0.0
H79 H 0.41322 0.5781 0.28008 0.0
H80 H 0.56989 0.80339 0.19535 0.0
H81 H 0.57386 0.68434 0.40635 0.0
C82 C 0.60267 0.64854 0.35333 0.0
O83 O 0.56849 0.65615 0.26123 0.0
H84 H 0.67222 0.67763 0.36053 0.0
C85 C 0.35192 0.73643 0.14816 0.0
C86 C 0.43457 0.78843 0.14528 0.0
C87 C 0.34311 0.66335 0.20345 0.0
C88 C 0.41738 0.6385 0.24557 0.0
C89 C 0.4978 0.68908 0.24063 0.0
C90 C 0.50551 0.76794 0.20041 0.0
H91 H 0.07072 0.33452 0.88883 0.0
H92 H 0.18696 0.54153 0.72846 0.0
H93 H 0.12686 0.28075 0.60064 0.0
H94 H 0.2706 0.40678 0.47425 0.0
C95 C 0.27331 0.41139 0.55391 0.0
O96 O 0.20004 0.43822 0.57788 0.0
H97 H 0.27659 0.34586 0.57796 0.0
C98 C 0.09585 0.3573 0.82391 0.0
C99 C 0.09633 0.29754 0.74528 0.0
C100 C 0.12673 0.44589 0.81878 0.0
C101 C 0.16228 0.47341 0.73474 0.0
C102 C 0.16244 0.4135 0.65659 0.0
C103 C 0.12464 0.32671 0.66023 0.0
O104 O 0.89986 0.06514 0.5662 0.0
Mn105 Mn 0.01757 0.02596 0.60624 0.0
O106 O 0.85183 0.99364 0.42033 0.0
Mn107 Mn 0.93917 0.93623 0.40591 0.0
O108 O 0.13637 0.98155 0.6338 0.0
O109 O 0.06164 0.14173 0.69612 0.0
Mn110 Mn 0.10846 0.08864 0.7928 0.0
O111 O 0.95669 0.96092 0.71905 0.0
O112 O 0.20569 0.05174 0.76904 0.0
O113 O 0.07123 0.09153 0.487 0.0
O114 O 0.03123 0.99839 0.35546 0.0
O115 O 0.12902 0.19348 0.84642 0.0
O116 O 0.03306 0.02015 0.85634 0.0
C117 C 0.94098 0.8331 0.49575 0.0
C118 C 0.84303 0.04396 0.4911 0.0
C119 C 0.20456 1.00226 0.69527 0.0
C120 C 0.09201 0.20673 0.76297 0.0
C121 C 0.96867 0.96993 0.81184 0.0
C122 C 0.07308 0.07008 0.39616 0.0
O123 O 0.97139 0.91393 0.52369 0.0
O124 O 0.91459 0.81794 0.4046 0.0
O125 O 0.49908 1.01462 0.91247 0.0
Mn126 Mn 0.561 0.02329 1.0538 0.0
O127 O 0.52703 0.89534 0.84428 0.0
Mn128 Mn 0.55017 0.84521 0.95655 0.0
O129 O 0.61527 0.03999 0.19959 0.0
O130 O 0.6056 0.15775 1.04053 0.0
Mn131 Mn 0.531 0.18004 0.12129 0.0
O132 O 0.43869 0.02896 0.09554 0.0
O133 O 0.55218 0.14714 0.24479 0.0
O134 O 0.68298 0.99837 1.01102 0.0
O135 O 0.6649 0.85232 0.98986 0.0
O136 O 0.58535 0.28558 0.11054 0.0
O137 O 0.41937 0.15784 1.06557 0.0
C138 C 0.45656 0.83147 1.05841 0.0
C139 C 0.49372 0.96147 0.83916 0.0
C140 C 0.59831 0.09222 0.26575 0.0
C141 C 0.62373 0.24387 1.05241 0.0
C142 C 0.38764 0.0804 0.07537 0.0
C143 C 0.71327 0.92711 0.99926 0.0
O144 O 0.52396 0.89362 1.06459 0.0
O145 O 0.45306 0.77558 0.98663 0.0
O146 O 0.67511 0.60981 0.60056 0.0
Mn147 Mn 0.54708 0.54458 0.57782 0.0
O148 O 0.73357 0.51265 0.52056 0.0
Mn149 Mn 0.63998 0.45602 0.43422 0.0
O150 O 0.41968 0.47913 0.55215 0.0
O151 O 0.53157 0.57091 0.71338 0.0
Mn152 Mn 0.4364 0.60717 0.7309 0.0
O153 O 0.50488 0.65723 0.54039 0.0
O154 O 0.35107 0.51554 0.67641 0.0
O155 O 0.58242 0.42581 0.61549 0.0
O156 O 0.5856 0.35376 0.4746 0.0
O157 O 0.49695 0.60032 0.85245 0.0
O158 O 0.4385 0.705 0.66038 0.0
C159 C 0.59266 0.55459 0.36752 0.0
C160 C 0.74055 0.58204 0.57516 0.0
C161 C 0.35263 0.47355 0.59638 0.0
C162 C 0.55103 0.57082 0.80417 0.0
C163 C 0.46332 0.71068 0.57661 0.0
C164 C 0.58154 0.35461 0.56472 0.0
O165 O 0.56204 0.51919 0.44057 0.0
O166 O 0.63583 0.50883 0.32013 0.0
O167 O 0.9473 0.4346 0.08559 0.0
Mn168 Mn 0.07556 0.50211 0.12852 0.0
O169 O 0.92217 0.51657 0.96281 0.0
Mn170 Mn 0.03143 0.57757 0.95998 0.0
O171 O 0.20178 0.57858 0.14925 0.0
O172 O 0.06053 0.51203 0.27525 0.0
Mn173 Mn 0.16548 0.49799 0.32136 0.0
O174 O 0.11511 0.37803 0.14437 0.0
O175 O 0.25396 0.58482 0.30271 0.0
O176 O 0.02539 0.61614 0.13738 0.0
O177 O 0.04909 0.68983 1.01412 0.0
O178 O 0.1215 0.51202 0.42894 0.0
O179 O 0.17575 0.38695 0.2981 0.0
C180 C 0.10314 0.50986 0.88753 0.0
C181 C 0.89758 0.45358 1.01334 0.0
C182 C 0.26001 0.60934 0.21919 0.0
C183 C 0.05541 0.5176 0.36896 0.0
C184 C 0.14591 0.34322 0.21989 0.0
C185 C 0.02523 0.68609 0.09619 0.0
O186 O 0.09666 0.49754 0.98034 0.0
O187 O 0.07044 0.57043 0.84766 0.0
loop_
_geom_bond_atom_site_label_1
_geom_bond_atom_site_label_2
_geom_bond_distance
_geom_bond_site_symmetry_2
_ccdc_geom_bond_type
H0 C7 0.929 . S
H1 C10 0.930 . S
H2 C12 0.929 . S
H3 C4 0.969 1_565 S
C4 H3 0.969 1_545 S
C4 O5 1.550 . S
C4 H6 0.973 . S
O5 C4 1.550 . S
O5 C11 1.412 . S
H6 C4 0.973 . S
C7 H0 0.929 . S
C7 C8 1.400 . S
C7 C9 1.364 . S
C8 C7 1.400 . S
C8 C12 1.377 . S
C9 C7 1.364 . S
C9 C10 1.374 . S
C10 H1 0.930 . S
C10 C9 1.374 . S
C10 C11 1.383 . S
C11 O5 1.412 . S
C11 C10 1.383 . S
C11 C12 1.394 . S
C12 H2 0.929 . S
C12 C8 1.377 . S
C12 C11 1.394 . S
H13 C20 0.929 1_545 S
H14 C23 0.930 . S
H15 C25 0.929 . S
H16 C17 0.969 . S
C17 H16 0.969 . S
C17 O18 1.550 . S
C17 H19 0.973 . S
O18 C17 1.550 . S
O18 C24 1.412 . S
H19 C17 0.973 . S
C20 H13 0.929 1_565 S
C20 C21 1.400 . S
C20 C22 1.364 . S
C21 C20 1.400 . S
C21 C25 1.377 . S
C22 C20 1.364 . S
C22 C23 1.374 . S
C23 H14 0.930 . S
C23 C22 1.374 . S
C23 C24 1.383 . S
C24 O18 1.412 . S
C24 C23 1.383 . S
C24 C25 1.394 . S
C25 H15 0.929 . S
C25 C21 1.377 . S
C25 C24 1.394 . S
H26 C33 0.929 1_554 S
H27 C36 0.930 . S
H28 C38 0.929 . S
H29 C30 0.969 . S
C30 H29 0.969 . S
C30 O31 1.550 . S
C30 H32 0.973 . S
O31 C30 1.550 . S
O31 C37 1.412 . S
H32 C30 0.973 . S
C33 H26 0.929 1_556 S
C33 C34 1.400 . S
C33 C35 1.364 . S
C34 C33 1.400 . S
C34 C38 1.377 . S
C35 C33 1.364 . S
C35 C36 1.374 . S
C36 H27 0.930 . S
C36 C35 1.374 . S
C36 C37 1.383 . S
C37 O31 1.412 . S
C37 C36 1.383 . S
C37 C38 1.394 . S
C38 H28 0.929 . S
C38 C34 1.377 . S
C38 C37 1.394 . S
H39 C46 0.929 . S
H40 C49 0.930 . S
H41 C51 0.929 1_455 S
H42 C43 0.969 . S
C43 H42 0.969 . S
C43 O44 1.550 . S
C43 H45 0.973 . S
O44 C43 1.550 . S
O44 C50 1.412 . S
H45 C43 0.973 . S
C46 H39 0.929 . S
C46 C47 1.400 . S
C46 C48 1.364 . S
C47 C46 1.400 . S
C47 C51 1.377 . S
C48 C46 1.364 . S
C48 C49 1.374 . S
C49 H40 0.930 . S
C49 C48 1.374 . S
C49 C50 1.383 . S
C50 O44 1.412 . S
C50 C49 1.383 . S
C50 C51 1.394 . S
C51 H41 0.929 1_655 S
C51 C47 1.377 . S
C51 C50 1.394 . S
H52 C59 0.929 1_545 S
H53 C62 0.930 . S
H54 C64 0.929 1_455 S
H55 C56 0.969 . S
C56 H55 0.969 . S
C56 O57 1.550 . S
C56 H58 0.973 1_556 S
O57 C56 1.550 . S
O57 C63 1.412 . S
H58 C56 0.973 1_554 S
C59 H52 0.929 1_565 S
C59 C60 1.400 . S
C59 C61 1.364 . S
C60 C59 1.400 . S
C60 C64 1.377 . S
C61 C59 1.364 . S
C61 C62 1.374 . S
C62 H53 0.930 . S
C62 C61 1.374 . S
C62 C63 1.383 . S
C63 O57 1.412 . S
C63 C62 1.383 . S
C63 C64 1.394 . S
C64 H54 0.929 1_655 S
C64 C60 1.377 . S
C64 C63 1.394 . S
H65 C72 0.929 1_565 S
H66 C75 0.930 . S
H67 C77 0.929 . S
H68 C69 0.969 . S
C69 H68 0.969 . S
C69 O70 1.550 . S
C69 H71 0.973 . S
O70 C69 1.550 . S
O70 C76 1.412 . S
H71 C69 0.973 . S
C72 H65 0.929 1_545 S
C72 C73 1.400 . S
C72 C74 1.364 . S
C73 C72 1.400 . S
C73 C77 1.377 . S
C74 C72 1.364 . S
C74 C75 1.374 . S
C75 H66 0.930 . S
C75 C74 1.374 . S
C75 C76 1.383 . S
C76 O70 1.412 . S
C76 C75 1.383 . S
C76 C77 1.394 . S
C77 H67 0.929 . S
C77 C73 1.377 . S
C77 C76 1.394 . S
H78 C85 0.929 1_556 S
H79 C88 0.930 . S
H80 C90 0.929 . S
H81 C82 0.969 . S
C82 H81 0.969 . S
C82 O83 1.550 . S
C82 H84 0.973 . S
O83 C82 1.550 . S
O83 C89 1.412 . S
H84 C82 0.973 . S
C85 H78 0.929 1_554 S
C85 C86 1.400 . S
C85 C87 1.364 . S
C86 C85 1.400 . S
C86 C90 1.377 . S
C87 C85 1.364 . S
C87 C88 1.374 . S
C88 H79 0.930 . S
C88 C87 1.374 . S
C88 C89 1.383 . S
C89 O83 1.412 . S
C89 C88 1.383 . S
C89 C90 1.394 . S
C90 H80 0.929 . S
C90 C86 1.377 . S
C90 C89 1.394 . S
H91 C98 0.929 1_655 S
H92 C101 0.930 . S
H93 C103 0.929 . S
H94 C95 0.969 . S
C95 H94 0.969 . S
C95 O96 1.550 . S
C95 H97 0.973 . S
O96 C95 1.550 . S
O96 C102 1.412 . S
H97 C95 0.973 . S
C98 H91 0.929 1_455 S
C98 C99 1.400 . S
C98 C100 1.364 . S
C99 C98 1.400 . S
C99 C103 1.377 . S
C100 C98 1.364 . S
C100 C101 1.374 . S
C101 H92 0.930 . S
C101 C100 1.374 . S
C101 C102 1.383 . S
C102 O96 1.412 . S
C102 C101 1.383 . S
C102 C103 1.394 . S
C103 H93 0.929 . S
C103 C99 1.377 . S
C103 C102 1.394 . S
O104 Mn105 2.163 1_655 S
O104 C118 1.244 . S
Mn105 O104 2.163 1_455 S
Mn105 O108 2.160 1_545 S
Mn105 O109 2.221 . S
Mn105 O111 2.163 1_445 S
Mn105 O113 2.160 . S
Mn105 O123 2.221 1_445 S
O106 Mn107 2.087 . S
O106 C118 1.256 1_565 S
Mn107 O106 2.087 . S
Mn107 O114 2.089 1_565 S
Mn107 O123 2.290 . S
Mn107 O124 2.251 . S
O108 Mn105 2.160 1_565 S
O108 C119 1.239 . S
O109 Mn105 2.221 . S
O109 Mn110 2.290 . S
O109 C120 1.278 . S
Mn110 O109 2.290 . S
Mn110 O112 2.089 1_545 S
Mn110 O115 2.251 . S
Mn110 O116 2.087 . S
O111 Mn105 2.163 1_665 S
O111 C121 1.244 . S
O112 Mn110 2.089 1_565 S
O112 C119 1.256 . S
O113 Mn105 2.160 . S
O113 C122 1.239 . S
O114 Mn107 2.089 1_545 S
O114 C122 1.256 1_655 S
O115 Mn110 2.251 . S
O115 C120 1.241 . S
O116 Mn110 2.087 . S
O116 C121 1.256 1_445 S
C117 O123 1.278 . S
C117 O124 1.241 . S
C118 O104 1.244 . S
C118 O106 1.256 1_545 S
C119 O108 1.239 . S
C119 O112 1.256 . S
C120 O109 1.278 . S
C120 O115 1.241 . S
C121 O111 1.244 . S
C121 O116 1.256 1_665 S
C122 O113 1.239 . S
C122 O114 1.256 1_455 S
O123 Mn105 2.221 1_665 S
O123 Mn107 2.290 . S
O123 C117 1.278 . S
O124 Mn107 2.251 . S
O124 C117 1.241 . S
O125 Mn126 2.163 1_556 S
O125 C139 1.244 1_545 S
Mn126 O125 2.163 1_554 S
Mn126 O129 2.160 . S
Mn126 O130 2.221 1_554 S
Mn126 O132 2.163 . S
Mn126 O134 2.160 1_544 S
Mn126 O144 2.221 1_545 S
O127 Mn128 2.087 . S
O127 C139 1.256 . S
Mn128 O127 2.087 . S
Mn128 O135 2.089 . S
Mn128 O144 2.290 1_556 S
Mn128 O145 2.251 . S
O129 Mn126 2.160 . S
O129 C140 1.239 . S
O130 Mn126 2.221 1_556 S
O130 Mn131 2.290 1_556 S
O130 C141 1.278 . S
Mn131 O130 2.290 1_554 S
Mn131 O133 2.089 . S
Mn131 O136 2.251 1_554 S
Mn131 O137 2.087 . S
O132 Mn126 2.163 . S
O132 C142 1.244 . S
O133 Mn131 2.089 . S
O133 C140 1.256 . S
O134 Mn126 2.160 1_566 S
O134 C143 1.239 . S
O135 Mn128 2.089 . S
O135 C143 1.256 . S
O136 Mn131 2.251 1_556 S
O136 C141 1.241 . S
O137 Mn131 2.087 . S
O137 C142 1.256 . S
C138 O144 1.278 . S
C138 O145 1.241 1_554 S
C139 O125 1.244 1_565 S
C139 O127 1.256 . S
C140 O129 1.239 . S
C140 O133 1.256 . S
C141 O130 1.278 . S
C141 O136 1.241 . S
C142 O132 1.244 . S
C142 O137 1.256 . S
C143 O134 1.239 . S
C143 O135 1.256 . S
O144 Mn126 2.221 1_565 S
O144 Mn128 2.290 1_554 S
O144 C138 1.278 . S
O145 Mn128 2.251 . S
O145 C138 1.241 1_556 S
O146 Mn147 2.163 . S
O146 C160 1.244 . S
Mn147 O146 2.163 . S
Mn147 O150 2.160 . S
Mn147 O151 2.221 . S
Mn147 O153 2.163 . S
Mn147 O155 2.160 . S
Mn147 O165 2.221 . S
O148 Mn149 2.087 . S
O148 C160 1.256 . S
Mn149 O148 2.087 . S
Mn149 O156 2.089 . S
Mn149 O165 2.290 . S
Mn149 O166 2.251 . S
O150 Mn147 2.160 . S
O150 C161 1.239 . S
O151 Mn147 2.221 . S
O151 Mn152 2.290 . S
O151 C162 1.278 . S
Mn152 O151 2.290 . S
Mn152 O154 2.089 . S
Mn152 O157 2.251 . S
Mn152 O158 2.087 . S
O153 Mn147 2.163 . S
O153 C163 1.244 . S
O154 Mn152 2.089 . S
O154 C161 1.256 . S
O155 Mn147 2.160 . S
O155 C164 1.239 . S
O156 Mn149 2.089 . S
O156 C164 1.256 . S
O157 Mn152 2.251 . S
O157 C162 1.241 . S
O158 Mn152 2.087 . S
O158 C163 1.256 . S
C159 O165 1.278 . S
C159 O166 1.241 . S
C160 O146 1.244 . S
C160 O148 1.256 . S
C161 O150 1.239 . S
C161 O154 1.256 . S
C162 O151 1.278 . S
C162 O157 1.241 . S
C163 O153 1.244 . S
C163 O158 1.256 . S
C164 O155 1.239 . S
C164 O156 1.256 . S
O165 Mn147 2.221 . S
O165 Mn149 2.290 . S
O165 C159 1.278 . S
O166 Mn149 2.251 . S
O166 C159 1.241 . S
O167 Mn168 2.163 1_655 S
O167 C181 1.244 1_554 S
Mn168 O167 2.163 1_455 S
Mn168 O171 2.160 . S
Mn168 O172 2.221 . S
Mn168 O174 2.163 . S
Mn168 O176 2.160 . S
Mn168 O186 2.221 1_554 S
O169 Mn170 2.087 . S
O169 C181 1.256 . S
Mn170 O169 2.087 . S
Mn170 O177 2.089 . S
Mn170 O186 2.290 1_655 S
Mn170 O187 2.251 1_655 S
O171 Mn168 2.160 . S
O171 C182 1.239 . S
O172 Mn168 2.221 . S
O172 Mn173 2.290 . S
O172 C183 1.278 1_455 S
Mn173 O172 2.290 . S
Mn173 O175 2.089 . S
Mn173 O178 2.251 1_455 S
Mn173 O179 2.087 . S
O174 Mn168 2.163 . S
O174 C184 1.244 . S
O175 Mn173 2.089 . S
O175 C182 1.256 . S
O176 Mn168 2.160 . S
O176 C185 1.239 1_454 S
O177 Mn170 2.089 . S
O177 C185 1.256 . S
O178 Mn173 2.251 1_655 S
O178 C183 1.241 . S
O179 Mn173 2.087 . S
O179 C184 1.256 . S
C180 O186 1.278 . S
C180 O187 1.241 . S
C181 O167 1.244 1_556 S
C181 O169 1.256 . S
C182 O171 1.239 . S
C182 O175 1.256 . S
C183 O172 1.278 1_655 S
C183 O178 1.241 . S
C184 O174 1.244 . S
C184 O179 1.256 . S
C185 O176 1.239 1_656 S
C185 O177 1.256 . S
O186 Mn168 2.221 1_556 S
O186 Mn170 2.290 1_455 S
O186 C180 1.278 . S
O187 Mn170 2.251 1_455 S
O187 C180 1.241 . S
C9 C122 1.894 . S
C21 C139 1.918 . S
C162 C30 1.456 . S
C43 C183 1.107 . S
C142 C4 1.773 . S
C119 C22 2.229 . S
C181 C34 1.089 . S
C160 C48 1.394 . S
C8 C184 1.804 . S
C141 C35 1.410 . S
C47 C117 1.792 . S
C17 C163 2.099 . S
C121 C60 1.606 . S
C74 C140 1.723 . S
C82 C159 0.954 . S
C100 C180 1.666 . S
C61 C143 1.949 . S
C118 C73 1.711 . S
C182 C87 1.753 . S
C161 C95 1.193 . S
C56 C185 1.652 . S
C138 C86 1.302 . S
C120 C99 1.439 . S
C69 C164 1.426 . S
