# Generated by pormake.
# Topology sit, (3,6)-cn, num edge types: 1
# Building blocks:
#     Node 0, Type 0, BuildingBlock: INOVEN_clean_linker_0, # of connection points: 3
#     Node 1, Type 0, BuildingBlock: INOVEN_clean_linker_0, # of connection points: 3
#     Node 2, Type 0, BuildingBlock: INOVEN_clean_linker_0, # of connection points: 3
#     Node 3, Type 0, BuildingBlock: INOVEN_clean_linker_0, # of connection points: 3
#     Node 4, Type 1, BuildingBlock: MIDCAF_clean_sbu_0, # of connection points: 6
#     Node 5, Type 1, BuildingBlock: MIDCAF_clean_sbu_0, # of connection points: 6
#     Edge 6, Type (0, 1), BuildingBlock: OJICUG_clean_linker_0, # of connection points: 2
#     Edge 7, Type (0, 1), BuildingBlock: OJICUG_clean_linker_0, # of connection points: 2
#     Edge 8, Type (0, 1), BuildingBlock: OJICUG_clean_linker_0, # of connection points: 2
#     Edge 9, Type (0, 1), BuildingBlock: OJICUG_clean_linker_0, # of connection points: 2
#     Edge 10, Type (0, 1), BuildingBlock: OJICUG_clean_linker_0, # of connection points: 2
#     Edge 11, Type (0, 1), BuildingBlock: OJICUG_clean_linker_0, # of connection points: 2
#     Edge 12, Type (0, 1), BuildingBlock: OJICUG_clean_linker_0, # of connection points: 2
#     Edge 13, Type (0, 1), BuildingBlock: OJICUG_clean_linker_0, # of connection points: 2
#     Edge 14, Type (0, 1), BuildingBlock: OJICUG_clean_linker_0, # of connection points: 2
#     Edge 15, Type (0, 1), BuildingBlock: OJICUG_clean_linker_0, # of connection points: 2
#     Edge 16, Type (0, 1), BuildingBlock: OJICUG_clean_linker_0, # of connection points: 2
#     Edge 17, Type (0, 1), BuildingBlock: OJICUG_clean_linker_0, # of connection points: 2
# Relax obj value: 0.072
# Max RMSD: 0.182
# Mean RMSD: 0.104
data_MOF--net-sit--node1-MIDCAF_clean_sbu_0--node2-INOVEN_clean_linker_0--edge1-OJICUG_clean_linker_0
_symmetry_space_group_name_H-M    P1
_symmetry_Int_Tables_number       1
_symmetry_cell_setting            triclinic
loop_
_symmetry_equiv_pos_as_xyz
'x, y, z'
_cell_length_a     17.161626
_cell_length_b     19.815933
_cell_length_c     28.724471
_cell_angle_alpha  89.963345
_cell_angle_beta   85.865253
_cell_angle_gamma 82.475385
loop_
_atom_site_label
_atom_site_type_symbol
_atom_site_fract_x
_atom_site_fract_y
_atom_site_fract_z
_atom_type_partial_charge
H0 H 0.88643 0.38049 -0.00373 0.0
H1 H 0.01374 0.51066 0.90929 0.0
H2 H 0.13695 0.36783 0.0012 0.0
N3 N 0.00552 0.32262 0.04015 0.0
N4 N 0.06436 0.29579 0.05957 0.0
C5 C -0.05832 0.39807 -0.01559 0.0
C6 C -0.05677 0.44755 0.94977 0.0
C7 C 0.01106 0.36986 0.00335 0.0
C8 C 0.08316 0.3914 -0.01271 0.0
C9 C 0.08564 0.44251 0.95315 0.0
C10 C 0.01455 0.47058 0.93496 0.0
H11 H 0.82768 0.79796 0.04037 0.0
H12 H -0.01605 0.67425 0.93967 0.0
H13 H 0.07354 0.81788 0.02626 0.0
N14 N -0.06395 0.85723 0.07692 0.0
N15 N -0.01521 0.89581 0.08633 0.0
C16 C 0.88567 0.78095 0.02396 0.0
C17 C 0.8963 0.73196 -0.01239 0.0
C18 C -0.05096 0.81136 0.03842 0.0
C19 C 0.02417 0.79379 0.01598 0.0
C20 C 0.03614 0.74447 -0.01955 0.0
C21 C -0.02695 0.71252 0.96709 0.0
H22 H 0.36825 0.93371 0.52253 0.0
H23 H 0.47634 1.08218 0.4407 0.0
H24 H 0.61183 0.95192 0.53458 0.0
N25 N 0.49038 0.8901 0.5699 0.0
N26 N 0.54891 0.87599 0.5931 0.0
C27 C 0.41951 0.95872 0.5128 0.0
C28 C 0.41524 1.00985 0.4791 0.0
C29 C 0.48949 0.93943 0.53399 0.0
C30 C 0.5567 0.9701 0.51995 0.0
C31 C 0.55359 1.02167 0.48596 0.0
C32 C 0.48124 1.04244 0.46663 0.0
H33 H 0.30817 0.38884 0.50694 0.0
H34 H 0.45659 0.24761 0.41313 0.0
H35 H 0.55929 0.3836 0.49872 0.0
N36 N 0.42309 0.43872 0.54471 0.0
N37 N 0.47834 0.46944 0.55544 0.0
C38 C 0.36544 0.36648 0.49202 0.0
C39 C 0.37247 0.31482 0.45758 0.0
C40 C 0.43221 0.39111 0.50722 0.0
C41 C 0.50713 0.36471 0.48749 0.0
C42 C 0.51518 0.31389 0.45311 0.0
C43 C 0.44843 0.28837 0.43881 0.0
Zn44 Zn -0.03139 0.27235 0.32749 0.0
Zn45 Zn -0.01047 1.01179 0.35942 0.0
Zn46 Zn -0.01598 0.13924 0.33945 0.0
C47 C -0.02403 1.02535 0.26291 0.0
C48 C 0.85602 1.07017 0.40641 0.0
O49 O 0.08041 0.18033 0.37195 0.0
O50 O 0.04508 0.2921 0.3727 0.0
C51 C 0.01285 0.20739 0.24059 0.0
O52 O -0.00927 1.08593 0.27166 0.0
O53 O -0.03375 0.98431 0.29583 0.0
O54 O 0.90287 1.016 0.40933 0.0
O55 O 0.87504 1.11885 0.37996 0.0
O56 O 0.00723 0.26455 0.26077 0.0
O57 O 0.00019 0.15371 0.2636 0.0
O58 O 0.86814 0.18817 0.36908 0.0
O59 O 0.85406 0.29455 0.34416 0.0
C60 C 0.82624 0.24661 0.36574 0.0
O61 O 0.08981 1.10872 0.37805 0.0
O62 O 0.09936 0.99633 0.37729 0.0
C63 C 0.09165 0.24088 0.38365 0.0
C64 C 0.12743 1.05001 0.38682 0.0
Zn65 Zn 0.49014 0.74702 0.85986 0.0
Zn66 Zn 0.52207 0.48623 0.82334 0.0
Zn67 Zn 0.50054 0.61947 0.83781 0.0
C68 C 0.49454 0.55265 0.73791 0.0
C69 C 0.385 0.51559 0.88027 0.0
O70 O 0.59983 0.64015 0.87841 0.0
O71 O 0.56499 0.74268 0.9096 0.0
C72 C 0.52454 0.7345 0.7631 0.0
O73 O 0.50058 0.60638 0.76176 0.0
O74 O 0.49803 0.49507 0.75702 0.0
O75 O 0.43519 0.46511 0.86835 0.0
O76 O 0.3977 0.57661 0.86977 0.0
O77 O 0.5279 0.77518 0.7965 0.0
O78 O 0.50769 0.67396 0.77112 0.0
O79 O 0.38597 0.64832 0.87744 0.0
O80 O 0.37587 0.76074 0.87824 0.0
C81 C 0.34593 0.70686 0.88711 0.0
O82 O 0.61038 0.57113 0.86603 0.0
O83 O 0.63301 0.46503 0.8393 0.0
C84 C 0.61255 0.68851 0.90569 0.0
C85 C 0.6544 0.51329 0.86169 0.0
C86 C -0.01672 0.23366 0.11474 0.0
C87 C 0.05633 0.25428 0.09942 0.0
H88 H 0.91314 0.1993 0.17269 0.0
C89 C 0.11938 0.24288 0.12794 0.0
H90 H -0.06625 0.24124 0.09314 0.0
C91 C 0.10733 0.21932 0.17336 0.0
C92 C 0.03245 0.20528 0.19021 0.0
H93 H 0.17587 0.25844 0.11662 0.0
H94 H 0.15461 0.21765 0.19657 0.0
C95 C -0.02841 0.20903 0.15998 0.0
C96 C 0.02568 0.98396 0.1349 0.0
C97 C -0.02595 0.93622 0.12768 0.0
H98 H 0.06604 1.0515 0.18376 0.0
C99 C -0.08257 0.92446 0.16356 0.0
H100 H 0.06971 0.99349 0.10761 0.0
C101 C 0.91607 0.95649 0.20679 0.0
C102 C -0.02976 1.00168 0.21487 0.0
H103 H 0.87675 0.88796 0.1591 0.0
H104 H 0.87417 0.94413 0.23452 0.0
C105 C 0.02336 1.01716 0.17817 0.0
C106 C 0.49039 0.78736 0.63941 0.0
C107 C 0.54894 0.83046 0.63116 0.0
H108 H 0.43842 0.72055 0.68806 0.0
C109 C 0.60526 0.83342 0.66362 0.0
H110 H 0.44662 0.78374 0.61452 0.0
C111 C 0.5996 0.79876 0.70569 0.0
C112 C 0.53869 0.75885 0.71532 0.0
H113 H 0.65078 0.86613 0.65758 0.0
H114 H 0.64107 0.80525 0.73154 0.0
C115 C 0.48597 0.75098 0.68118 0.0
C116 C 0.40638 0.51295 0.62872 0.0
C117 C 0.47269 0.50973 0.59666 0.0
H118 H 0.36186 0.53123 0.69974 0.0
C119 C 0.53969 0.53695 0.6093 0.0
H120 H 0.35362 0.49275 0.6199 0.0
C121 C 0.54389 0.55995 0.65502 0.0
C122 C 0.48086 0.55572 0.68825 0.0
H123 H 0.59119 0.53481 0.58496 0.0
H124 H 0.59879 0.57462 0.66542 0.0
C125 C 0.41079 0.5354 0.67431 0.0
C126 C 0.17271 0.4879 0.88927 0.0
C127 C 0.16202 0.46517 0.93556 0.0
H128 H 0.25148 0.52372 0.83637 0.0
C129 C 0.22569 0.46284 0.96424 0.0
H130 H 0.1267 0.48884 0.86537 0.0
C131 C 0.2985 0.47996 0.94652 0.0
C132 C 0.30788 0.50263 0.90057 0.0
H133 H 0.21983 0.44753 0.00034 0.0
H134 H 0.34731 0.47592 0.96871 0.0
C135 C 0.24449 0.5074 0.87228 0.0
C136 C 0.82703 0.69176 0.92029 0.0
C137 C 0.82661 0.70691 0.96831 0.0
H138 H 0.75901 0.672 0.86325 0.0
C139 C 0.75607 0.70512 -0.00358 0.0
H140 H 0.87915 0.69317 0.89698 0.0
C141 C 0.68644 0.6959 -0.02365 0.0
C142 C 0.6868 0.68503 0.92821 0.0
H143 H 0.75352 0.71363 0.03373 0.0
H144 H 0.63189 0.6992 -0.0018 0.0
C145 C 0.75792 0.68009 0.90062 0.0
C146 C 0.8686 0.45927 0.87869 0.0
C147 C 0.871 0.4713 0.92666 0.0
H148 H 0.79663 0.46255 0.82055 0.0
C149 C 0.80272 0.50078 0.9527 0.0
H150 H -0.07936 0.43597 0.85818 0.0
C151 C 0.73239 0.5168 0.93109 0.0
C152 C 0.72952 0.50253 0.88347 0.0
H153 H 0.80361 0.51029 -0.01022 0.0
H154 H 0.67969 0.53809 0.95184 0.0
C155 C 0.798 0.47403 0.85734 0.0
C156 C 0.16599 0.67304 0.96314 0.0
C157 C 0.11345 0.73124 0.9545 0.0
H158 H 0.2834 0.62171 0.95004 0.0
C159 C 0.13629 0.77959 0.92254 0.0
H160 H 0.14936 0.63576 -0.01171 0.0
C161 C 0.21134 0.77037 0.89972 0.0
C162 C 0.26491 0.71282 0.90876 0.0
H163 H 0.09627 0.82493 0.91572 0.0
H164 H 0.22785 0.80878 0.87542 0.0
C165 C 0.24179 0.66435 0.94074 0.0
C166 C 0.63817 1.06602 0.42035 0.0
C167 C 0.62733 1.04831 0.46774 0.0
H168 H 0.71963 1.08894 0.36426 0.0
C169 C 0.69094 1.0492 0.49609 0.0
H170 H 0.59163 1.0655 0.39695 0.0
C171 C 0.76518 1.05984 0.47658 0.0
C172 C 0.77631 1.07305 0.42888 0.0
H173 H 0.68459 1.03872 0.53305 0.0
H174 H 0.81447 1.05562 0.49842 0.0
C175 C 0.7118 1.07908 0.40131 0.0
C176 C 0.23039 0.29265 0.46865 0.0
C177 C 0.30108 0.29035 0.44003 0.0
H178 H 0.10766 0.27984 0.47272 0.0
C179 C 0.30202 0.26677 0.39363 0.0
H180 H 0.22718 0.30844 0.50485 0.0
C181 C 0.23451 0.24708 0.37634 0.0
C182 C 0.16402 0.25248 0.40445 0.0
H183 H 0.35387 0.26569 0.36976 0.0
H184 H 0.23643 0.23052 0.34027 0.0
C185 C 0.16203 0.27537 0.45064 0.0
C186 C 0.28883 1.08151 0.46402 0.0
C187 C 0.34393 1.02389 0.45359 0.0
H188 H 0.17415 0.13297 0.45238 0.0
C189 C 0.32922 0.97687 0.42002 0.0
H190 H 0.2991 1.11777 0.49038 0.0
C191 C 0.25959 0.98675 0.3974 0.0
C192 C 0.20337 1.04367 0.40822 0.0
H193 H 0.37128 0.93202 0.41175 0.0
H194 H 0.24922 0.94932 0.37186 0.0
C195 C 0.21837 1.09087 0.44178 0.0
C196 C 0.6086 0.30479 0.38272 0.0
C197 C 0.59331 0.2906 0.43007 0.0
H198 H 0.6959 0.30247 0.32529 0.0
C199 C 0.65408 0.25868 0.45571 0.0
H200 H 0.56235 0.32989 0.36258 0.0
C201 C 0.72985 0.24212 0.43427 0.0
C202 C 0.74561 0.25831 0.38728 0.0
H203 H 0.64309 0.24756 0.49235 0.0
H204 H 0.77664 0.21884 0.45473 0.0
C205 C 0.68459 0.28948 0.36158 0.0
loop_
_geom_bond_atom_site_label_1
_geom_bond_atom_site_label_2
_geom_bond_distance
_geom_bond_site_symmetry_2
_ccdc_geom_bond_type
H0 C5 0.929 1_655 S
H1 C10 0.931 . S
H2 C8 0.930 . S
N3 N4 1.234 . S
N3 C7 1.453 . S
N4 N3 1.234 . S
C5 H0 0.929 1_455 S
C5 C6 1.373 1_554 S
C5 C7 1.368 . S
C6 C5 1.373 1_556 S
C6 C10 1.397 . S
C7 N3 1.453 . S
C7 C5 1.368 . S
C7 C8 1.373 . S
C8 H2 0.930 . S
C8 C7 1.373 . S
C8 C9 1.371 1_554 S
C9 C8 1.371 1_556 S
C9 C10 1.383 . S
C10 H1 0.931 . S
C10 C6 1.397 . S
C10 C9 1.383 . S
H11 C16 0.929 . S
H12 C21 0.931 . S
H13 C19 0.930 . S
N14 N15 1.234 1_655 S
N14 C18 1.453 . S
N15 N14 1.234 1_455 S
C16 H11 0.929 . S
C16 C17 1.373 1_554 S
C16 C18 1.368 . S
C17 C16 1.373 1_556 S
C17 C21 1.397 1_655 S
C18 N14 1.453 . S
C18 C16 1.368 . S
C18 C19 1.373 1_655 S
C19 H13 0.930 . S
C19 C18 1.373 1_455 S
C19 C20 1.371 1_554 S
C20 C19 1.371 1_556 S
C20 C21 1.383 . S
C21 H12 0.931 . S
C21 C17 1.397 1_455 S
C21 C20 1.383 . S
H22 C27 0.929 . S
H23 C32 0.931 . S
H24 C30 0.930 . S
N25 N26 1.234 . S
N25 C29 1.453 . S
N26 N25 1.234 . S
C27 H22 0.929 . S
C27 C28 1.373 . S
C27 C29 1.368 . S
C28 C27 1.373 . S
C28 C32 1.397 . S
C29 N25 1.453 . S
C29 C27 1.368 . S
C29 C30 1.373 . S
C30 H24 0.930 . S
C30 C29 1.373 . S
C30 C31 1.371 . S
C31 C30 1.371 . S
C31 C32 1.383 . S
C32 H23 0.931 . S
C32 C28 1.397 . S
C32 C31 1.383 . S
H33 C38 0.929 . S
H34 C43 0.931 . S
H35 C41 0.930 . S
N36 N37 1.234 . S
N36 C40 1.453 . S
N37 N36 1.234 . S
C38 H33 0.929 . S
C38 C39 1.373 . S
C38 C40 1.368 . S
C39 C38 1.373 . S
C39 C43 1.397 . S
C40 N36 1.453 . S
C40 C38 1.368 . S
C40 C41 1.373 . S
C41 H35 0.930 . S
C41 C40 1.373 . S
C41 C42 1.371 . S
C42 C41 1.371 . S
C42 C43 1.383 . S
C43 H34 0.931 . S
C43 C39 1.397 . S
C43 C42 1.383 . S
Zn44 O50 1.920 . S
Zn44 O56 1.898 . S
Zn44 O59 1.905 1_455 S
Zn45 O53 1.905 . S
Zn45 O54 1.898 1_455 S
Zn45 O62 1.920 . S
Zn46 O49 2.080 . S
Zn46 O52 2.114 1_545 S
Zn46 O55 2.120 1_545 S
Zn46 O57 2.120 . S
Zn46 O58 2.114 1_455 S
Zn46 O61 2.080 1_545 S
C47 O52 1.166 . S
C47 O53 1.182 . S
C48 O54 1.167 . S
C48 O55 1.299 1_655 S
O49 Zn46 2.080 . S
O49 C63 1.305 . S
O50 Zn44 1.920 . S
O50 C63 1.234 . S
C51 O56 1.167 . S
C51 O57 1.299 . S
O52 Zn46 2.114 1_565 S
O52 C47 1.166 . S
O53 Zn45 1.905 . S
O53 C47 1.182 . S
O54 Zn45 1.898 1_655 S
O54 C48 1.167 . S
O55 Zn46 2.120 1_565 S
O55 C48 1.299 1_455 S
O56 Zn44 1.898 . S
O56 C51 1.167 . S
O57 Zn46 2.120 . S
O57 C51 1.299 . S
O58 Zn46 2.114 1_655 S
O58 C60 1.166 . S
O59 Zn44 1.905 1_655 S
O59 C60 1.182 . S
C60 O58 1.166 . S
C60 O59 1.182 . S
O61 Zn46 2.080 1_565 S
O61 C64 1.305 . S
O62 Zn45 1.920 . S
O62 C64 1.234 . S
C63 O49 1.305 . S
C63 O50 1.234 . S
C64 O61 1.305 . S
C64 O62 1.234 . S
Zn65 O71 1.920 . S
Zn65 O77 1.898 . S
Zn65 O80 1.905 . S
Zn66 O74 1.905 . S
Zn66 O75 1.898 . S
Zn66 O83 1.920 . S
Zn67 O70 2.080 . S
Zn67 O73 2.114 . S
Zn67 O76 2.120 . S
Zn67 O78 2.120 . S
Zn67 O79 2.114 . S
Zn67 O82 2.080 . S
C68 O73 1.166 . S
C68 O74 1.182 . S
C69 O75 1.167 . S
C69 O76 1.299 . S
O70 Zn67 2.080 . S
O70 C84 1.305 . S
O71 Zn65 1.920 . S
O71 C84 1.234 . S
C72 O77 1.167 . S
C72 O78 1.299 . S
O73 Zn67 2.114 . S
O73 C68 1.166 . S
O74 Zn66 1.905 . S
O74 C68 1.182 . S
O75 Zn66 1.898 . S
O75 C69 1.167 . S
O76 Zn67 2.120 . S
O76 C69 1.299 . S
O77 Zn65 1.898 . S
O77 C72 1.167 . S
O78 Zn67 2.120 . S
O78 C72 1.299 . S
O79 Zn67 2.114 . S
O79 C81 1.166 . S
O80 Zn65 1.905 . S
O80 C81 1.182 . S
C81 O79 1.166 . S
C81 O80 1.182 . S
O82 Zn67 2.080 . S
O82 C85 1.305 . S
O83 Zn66 1.920 . S
O83 C85 1.234 . S
C84 O70 1.305 . S
C84 O71 1.234 . S
C85 O82 1.305 . S
C85 O83 1.234 . S
C86 C87 1.387 . S
C86 H90 0.950 . S
C86 C95 1.390 . S
C87 C86 1.387 . S
C87 C89 1.387 . S
H88 C95 0.950 . S
C89 C87 1.387 . S
C89 C91 1.390 . S
C89 H93 0.950 . S
H90 C86 0.950 . S
C91 C89 1.390 . S
C91 C92 1.387 . S
C91 H94 0.950 . S
C92 C91 1.387 . S
C92 C95 1.387 . S
H93 C89 0.950 . S
H94 C91 0.950 . S
C95 C86 1.390 . S
C95 H88 0.950 . S
C95 C92 1.387 . S
C96 C97 1.387 . S
C96 H100 0.950 . S
C96 C105 1.390 . S
C97 C96 1.387 . S
C97 C99 1.387 1_455 S
H98 C105 0.950 . S
C99 C97 1.387 1_655 S
C99 C101 1.390 . S
C99 H103 0.950 . S
H100 C96 0.950 . S
C101 C99 1.390 . S
C101 C102 1.387 1_655 S
C101 H104 0.950 . S
C102 C101 1.387 1_455 S
C102 C105 1.387 . S
H103 C99 0.950 . S
H104 C101 0.950 . S
C105 C96 1.390 . S
C105 H98 0.950 . S
C105 C102 1.387 . S
C106 C107 1.387 . S
C106 H110 0.950 . S
C106 C115 1.390 . S
C107 C106 1.387 . S
C107 C109 1.387 . S
H108 C115 0.950 . S
C109 C107 1.387 . S
C109 C111 1.390 . S
C109 H113 0.950 . S
H110 C106 0.950 . S
C111 C109 1.390 . S
C111 C112 1.387 . S
C111 H114 0.950 . S
C112 C111 1.387 . S
C112 C115 1.387 . S
H113 C109 0.950 . S
H114 C111 0.950 . S
C115 C106 1.390 . S
C115 H108 0.950 . S
C115 C112 1.387 . S
C116 C117 1.387 . S
C116 H120 0.950 . S
C116 C125 1.390 . S
C117 C116 1.387 . S
C117 C119 1.387 . S
H118 C125 0.950 . S
C119 C117 1.387 . S
C119 C121 1.390 . S
C119 H123 0.950 . S
H120 C116 0.950 . S
C121 C119 1.390 . S
C121 C122 1.387 . S
C121 H124 0.950 . S
C122 C121 1.387 . S
C122 C125 1.387 . S
H123 C119 0.950 . S
H124 C121 0.950 . S
C125 C116 1.390 . S
C125 H118 0.950 . S
C125 C122 1.387 . S
C126 C127 1.387 . S
C126 H130 0.950 . S
C126 C135 1.390 . S
C127 C126 1.387 . S
C127 C129 1.387 1_556 S
H128 C135 0.950 . S
C129 C127 1.387 1_554 S
C129 C131 1.390 . S
C129 H133 0.950 . S
H130 C126 0.950 . S
C131 C129 1.390 . S
C131 C132 1.387 1_554 S
C131 H134 0.950 . S
C132 C131 1.387 1_556 S
C132 C135 1.387 . S
H133 C129 0.950 . S
H134 C131 0.950 . S
C135 C126 1.390 . S
C135 H128 0.950 . S
C135 C132 1.387 . S
C136 C137 1.387 . S
C136 H140 0.950 . S
C136 C145 1.390 . S
C137 C136 1.387 . S
C137 C139 1.387 1_556 S
H138 C145 0.950 . S
C139 C137 1.387 1_554 S
C139 C141 1.390 . S
C139 H143 0.950 . S
H140 C136 0.950 . S
C141 C139 1.390 . S
C141 C142 1.387 1_554 S
C141 H144 0.950 . S
C142 C141 1.387 1_556 S
C142 C145 1.387 . S
H143 C139 0.950 . S
H144 C141 0.950 . S
C145 C136 1.390 . S
C145 H138 0.950 . S
C145 C142 1.387 . S
C146 C147 1.387 . S
C146 H150 0.950 1_655 S
C146 C155 1.390 . S
C147 C146 1.387 . S
C147 C149 1.387 . S
H148 C155 0.950 . S
C149 C147 1.387 . S
C149 C151 1.390 . S
C149 H153 0.950 1_556 S
H150 C146 0.950 1_455 S
C151 C149 1.390 . S
C151 C152 1.387 . S
C151 H154 0.950 . S
C152 C151 1.387 . S
C152 C155 1.387 . S
H153 C149 0.950 1_554 S
H154 C151 0.950 . S
C155 C146 1.390 . S
C155 H148 0.950 . S
C155 C152 1.387 . S
C156 C157 1.387 . S
C156 H160 0.950 1_556 S
C156 C165 1.390 . S
C157 C156 1.387 . S
C157 C159 1.387 . S
H158 C165 0.950 . S
C159 C157 1.387 . S
C159 C161 1.390 . S
C159 H163 0.950 . S
H160 C156 0.950 1_554 S
C161 C159 1.390 . S
C161 C162 1.387 . S
C161 H164 0.950 . S
C162 C161 1.387 . S
C162 C165 1.387 . S
H163 C159 0.950 . S
H164 C161 0.950 . S
C165 C156 1.390 . S
C165 H158 0.950 . S
C165 C162 1.387 . S
C166 C167 1.387 . S
C166 H170 0.950 . S
C166 C175 1.390 . S
C167 C166 1.387 . S
C167 C169 1.387 . S
H168 C175 0.950 . S
C169 C167 1.387 . S
C169 C171 1.390 . S
C169 H173 0.950 . S
H170 C166 0.950 . S
C171 C169 1.390 . S
C171 C172 1.387 . S
C171 H174 0.950 . S
C172 C171 1.387 . S
C172 C175 1.387 . S
H173 C169 0.950 . S
H174 C171 0.950 . S
C175 C166 1.390 . S
C175 H168 0.950 . S
C175 C172 1.387 . S
C176 C177 1.387 . S
C176 H180 0.950 . S
C176 C185 1.390 . S
C177 C176 1.387 . S
C177 C179 1.387 . S
H178 C185 0.950 . S
C179 C177 1.387 . S
C179 C181 1.390 . S
C179 H183 0.950 . S
H180 C176 0.950 . S
C181 C179 1.390 . S
C181 C182 1.387 . S
C181 H184 0.950 . S
C182 C181 1.387 . S
C182 C185 1.387 . S
H183 C179 0.950 . S
H184 C181 0.950 . S
C185 C176 1.390 . S
C185 H178 0.950 . S
C185 C182 1.387 . S
C186 C187 1.387 . S
C186 H190 0.950 . S
C186 C195 1.390 . S
C187 C186 1.387 . S
C187 C189 1.387 . S
H188 C195 0.950 . S
C189 C187 1.387 . S
C189 C191 1.390 . S
C189 H193 0.950 . S
H190 C186 0.950 . S
C191 C189 1.390 . S
C191 C192 1.387 . S
C191 H194 0.950 . S
C192 C191 1.387 . S
C192 C195 1.387 . S
H193 C189 0.950 . S
H194 C191 0.950 . S
C195 C186 1.390 . S
C195 H188 0.950 . S
C195 C192 1.387 . S
C196 C197 1.387 . S
C196 H200 0.950 . S
C196 C205 1.390 . S
C197 C196 1.387 . S
C197 C199 1.387 . S
H198 C205 0.950 . S
C199 C197 1.387 . S
C199 C201 1.390 . S
C199 H203 0.950 . S
H200 C196 0.950 . S
C201 C199 1.390 . S
C201 C202 1.387 . S
C201 H204 0.950 . S
C202 C201 1.387 . S
C202 C205 1.387 . S
H203 C199 0.950 . S
H204 C201 0.950 . S
C205 C196 1.390 . S
C205 H198 0.950 . S
C205 C202 1.387 . S
C92 C51 1.433 . S
C87 N4 1.539 . S
C102 C47 1.417 . S
C97 N15 1.496 . S
C112 C72 1.435 . S
C107 N26 1.539 . S
C117 N37 1.497 . S
C122 C68 1.414 . S
C127 C9 1.358 . S
C132 C69 1.192 . S
C142 C84 1.199 . S
C137 C17 1.369 . S
C147 C6 1.674 1_655 S
C152 C85 1.532 . S
C162 C81 1.564 . S
C157 C20 1.691 . S
C172 C48 1.192 . S
C167 C31 1.358 . S
C177 C39 1.368 . S
C182 C63 1.193 . S
C192 C64 1.535 . S
C187 C28 1.675 . S
C202 C60 1.561 . S
C197 C42 1.690 . S
