# Generated by pormake.
# Topology scu, (8,4)-cn, num edge types: 1
# Building blocks:
#     Node 0, Type 0, BuildingBlock: GIZVER_clean_sbu_0, # of connection points: 8
#     Node 1, Type 1, BuildingBlock: IZENUY_clean_linker_0, # of connection points: 4
#     Node 2, Type 1, BuildingBlock: IZENUY_clean_linker_0, # of connection points: 4
#     Edge 3, Type (0, 1), None
#     Edge 4, Type (0, 1), None
#     Edge 5, Type (0, 1), None
#     Edge 6, Type (0, 1), None
#     Edge 7, Type (0, 1), None
#     Edge 8, Type (0, 1), None
#     Edge 9, Type (0, 1), None
#     Edge 10, Type (0, 1), None
# Relax obj value: 0.111
# Max RMSD: 0.257
# Mean RMSD: 0.209
data_MOF--net-scu--node1-GIZVER_clean_sbu_0--node2-IZENUY_clean_linker_0--edge1-none
_symmetry_space_group_name_H-M    P1
_symmetry_Int_Tables_number       1
_symmetry_cell_setting            triclinic
loop_
_symmetry_equiv_pos_as_xyz
'x, y, z'
_cell_length_a     14.549078
_cell_length_b     14.648872
_cell_length_c     10.949311
_cell_angle_alpha  112.50459
_cell_angle_beta   75.351617
_cell_angle_gamma 110.14839
loop_
_atom_site_label
_atom_site_type_symbol
_atom_site_fract_x
_atom_site_fract_y
_atom_site_fract_z
_atom_type_partial_charge
Co0 Co 0.02187 0.96048 0.29073 0.0
Co1 Co 0.19769 0.05857 0.19202 0.0
Co2 Co 0.02301 0.05733 0.05859 0.0
O3 O 0.07936 0.97424 0.1188 0.0
H4 H 0.08757 0.91091 1.05056 0.0
O5 O 0.96666 0.14043 0.99839 0.0
Co6 Co 0.02415 0.15419 0.82646 0.0
Co7 Co 0.84833 0.05611 0.92517 0.0
H8 H 0.95846 0.20376 0.06663 0.0
O9 O 0.29026 1.00787 0.22564 0.0
O10 O 0.15087 1.03814 0.35617 0.0
O11 O 0.22159 0.20671 0.23821 0.0
O12 O 0.07519 0.19577 0.19926 0.0
O13 O 0.14968 0.07766 0.93021 0.0
O14 O 0.07795 0.17099 0.67355 0.0
O15 O 1.00531 0.27888 0.84512 0.0
O16 O 0.05457 1.03356 0.78164 0.0
O17 O 0.97082 0.91889 0.91791 0.0
O18 O 0.82441 0.90797 0.87903 0.0
O19 O 0.89515 0.07654 0.76101 0.0
O20 O 0.75577 0.1068 0.89156 0.0
C21 C 0.99144 0.8579 0.39319 0.0
C22 C 0.90759 0.06906 0.3093 0.0
C23 C 0.1505 0.24541 0.26128 0.0
C24 C 0.23226 1.01342 0.33798 0.0
C25 C 0.05459 0.25678 0.72401 0.0
C26 C 0.13843 1.0456 0.80789 0.0
C27 C 0.89549 0.86926 0.85593 0.0
C28 C 0.81376 0.10126 0.77922 0.0
O29 O 0.96808 0.94368 0.44364 0.0
O30 O 0.04072 0.8358 0.27208 0.0
O31 O 0.89634 1.03701 0.18697 0.0
O32 O 0.99145 0.08111 0.33554 0.0
H33 H 0.08988 0.42414 0.34947 0.0
H34 H 1.00241 0.43313 0.76086 0.0
H35 H 0.16073 0.22048 0.48208 0.0
H36 H 0.95617 0.69056 0.76775 0.0
H37 H 0.04364 0.68156 0.35636 0.0
H38 H 0.8853 0.8942 0.63512 0.0
N39 N 1.01646 0.53374 0.59836 0.0
N40 N 0.0296 0.58096 0.51886 0.0
C41 C 0.09059 0.39813 0.42937 0.0
C42 C 0.13023 0.31581 0.39977 0.0
C43 C 0.05049 0.44542 0.56249 0.0
C44 C 0.04028 0.40227 0.66207 0.0
C45 C 0.07719 0.31848 0.63295 0.0
C46 C 0.1292 0.28285 0.50478 0.0
C47 C 0.95547 0.71657 0.68785 0.0
C48 C 0.91582 0.79888 0.71744 0.0
C49 C 0.99557 0.66927 0.55473 0.0
C50 C 1.00577 0.71243 0.45515 0.0
C51 C 0.96886 0.79621 0.48426 0.0
C52 C 0.91685 0.83183 0.61243 0.0
H53 H 0.70764 1.04747 0.3153 0.0
H54 H 0.62619 0.08457 0.73666 0.0
H55 H 0.92726 0.11853 0.55932 0.0
H56 H 0.33838 0.06718 0.80188 0.0
H57 H 0.41983 1.03009 0.38053 0.0
H58 H 0.11876 0.99615 0.55786 0.0
N59 N 0.55694 0.05486 0.51043 0.0
N60 N 0.48908 0.0598 0.60675 0.0
C61 C 0.72831 0.06449 0.41169 0.0
C62 C 0.82682 0.08055 0.42316 0.0
C63 C 0.65582 0.06977 0.52557 0.0
C64 C 0.68222 0.08646 0.65038 0.0
C65 C 0.78106 0.10158 0.66119 0.0
C66 C 0.85154 0.10421 0.54928 0.0
C67 C 0.31771 1.05017 0.70549 0.0
C68 C 0.2192 1.03412 0.69403 0.0
C69 C 0.3902 1.04488 0.59162 0.0
C70 C 0.36381 1.0282 0.4668 0.0
C71 C 0.26496 1.01309 0.45599 0.0
C72 C 0.19449 1.01046 0.5679 0.0
loop_
_geom_bond_atom_site_label_1
_geom_bond_atom_site_label_2
_geom_bond_distance
_geom_bond_site_symmetry_2
_ccdc_geom_bond_type
Co0 O3 2.042 1_655 S
Co0 O10 2.264 1_665 S
Co0 O29 2.286 . S
Co0 O30 2.069 1_655 S
Co0 O32 2.015 . S
Co1 O3 2.122 1_545 S
Co1 O9 2.073 . S
Co1 O10 2.327 . S
Co1 O11 1.976 . S
Co2 O3 2.092 1_545 S
Co2 O5 2.081 1_454 S
Co2 O12 2.113 . S
Co2 O13 2.140 1_554 S
Co2 O17 2.110 1_444 S
Co2 O31 2.147 1_445 S
O3 Co0 2.042 1_455 S
O3 Co1 2.122 1_565 S
O3 Co2 2.092 1_565 S
O3 H4 0.980 . S
H4 O3 0.980 . S
O5 Co2 2.081 1_656 S
O5 Co6 2.042 1_655 S
O5 Co7 2.122 1_545 S
O5 H8 0.980 . S
Co6 O5 2.042 1_455 S
Co6 O14 2.286 . S
Co6 O15 2.069 1_455 S
Co6 O16 2.015 . S
Co6 O19 2.264 1_445 S
Co7 O5 2.122 1_565 S
Co7 O18 1.976 . S
Co7 O19 2.327 . S
Co7 O20 2.073 . S
H8 O5 0.980 . S
O9 Co1 2.073 . S
O9 C24 1.245 . S
O10 Co0 2.264 1_445 S
O10 Co1 2.327 . S
O10 C24 1.257 . S
O11 Co1 1.976 . S
O11 C23 1.251 . S
O12 Co2 2.113 . S
O12 C23 1.274 . S
O13 Co2 2.140 1_556 S
O13 C26 1.246 . S
O14 Co6 2.286 . S
O14 C25 1.259 1_455 S
O15 Co6 2.069 1_655 S
O15 C25 1.289 . S
O16 Co6 2.015 . S
O16 C26 1.257 . S
O17 Co2 2.110 1_666 S
O17 C27 1.274 . S
O18 Co7 1.976 . S
O18 C27 1.251 . S
O19 Co6 2.264 1_665 S
O19 Co7 2.327 . S
O19 C28 1.255 1_565 S
O20 Co7 2.073 . S
O20 C28 1.243 1_565 S
C21 O29 1.259 1_455 S
C21 O30 1.289 . S
C22 O31 1.246 . S
C22 O32 1.257 . S
C23 O11 1.251 . S
C23 O12 1.274 . S
C24 O9 1.245 . S
C24 O10 1.257 . S
C25 O14 1.259 1_655 S
C25 O15 1.289 . S
C26 O13 1.246 . S
C26 O16 1.257 . S
C27 O17 1.274 . S
C27 O18 1.251 . S
C28 O19 1.255 1_545 S
C28 O20 1.243 1_545 S
O29 Co0 2.286 . S
O29 C21 1.259 1_655 S
O30 Co0 2.069 1_455 S
O30 C21 1.289 . S
O31 Co2 2.147 1_665 S
O31 C22 1.246 . S
O32 Co0 2.015 . S
O32 C22 1.257 . S
H33 C41 0.940 . S
H34 C44 0.940 . S
H35 C46 0.940 . S
H36 C47 0.940 . S
H37 C50 0.940 . S
H38 C52 0.940 . S
N39 N40 1.190 . S
N39 C43 1.477 . S
N40 N39 1.190 . S
N40 C49 1.477 . S
C41 H33 0.940 . S
C41 C42 1.390 1_455 S
C41 C43 1.322 . S
C42 C41 1.390 1_655 S
C42 C46 1.370 . S
C43 N39 1.477 . S
C43 C41 1.322 . S
C43 C44 1.447 . S
C44 H34 0.940 . S
C44 C43 1.447 . S
C44 C45 1.373 . S
C45 C44 1.373 . S
C45 C46 1.417 1_455 S
C46 H35 0.940 . S
C46 C42 1.370 . S
C46 C45 1.417 1_655 S
C47 H36 0.940 . S
C47 C48 1.390 1_455 S
C47 C49 1.322 . S
C48 C47 1.390 1_655 S
C48 C52 1.370 . S
C49 N40 1.477 . S
C49 C47 1.322 . S
C49 C50 1.447 . S
C50 H37 0.940 . S
C50 C49 1.447 . S
C50 C51 1.373 . S
C51 C50 1.373 . S
C51 C52 1.417 1_455 S
C52 H38 0.940 . S
C52 C48 1.370 . S
C52 C51 1.417 1_655 S
H53 C61 0.940 . S
H54 C64 0.940 . S
H55 C66 0.940 . S
H56 C67 0.940 . S
H57 C70 0.940 . S
H58 C72 0.940 . S
N59 N60 1.190 . S
N59 C63 1.477 . S
N60 N59 1.190 . S
N60 C69 1.477 . S
C61 H53 0.940 . S
C61 C62 1.390 1_545 S
C61 C63 1.322 . S
C62 C61 1.390 1_565 S
C62 C66 1.370 . S
C63 N59 1.477 . S
C63 C61 1.322 . S
C63 C64 1.447 . S
C64 H54 0.940 . S
C64 C63 1.447 . S
C64 C65 1.373 . S
C65 C64 1.373 . S
C65 C66 1.417 1_545 S
C66 H55 0.940 . S
C66 C62 1.370 . S
C66 C65 1.417 1_565 S
C67 H56 0.940 . S
C67 C68 1.390 1_545 S
C67 C69 1.322 . S
C68 C67 1.390 1_565 S
C68 C72 1.370 . S
C69 N60 1.477 . S
C69 C67 1.322 . S
C69 C70 1.447 . S
C70 H57 0.940 . S
C70 C69 1.447 . S
C70 C71 1.373 . S
C71 C70 1.373 . S
C71 C72 1.417 1_545 S
C72 H58 0.940 . S
C72 C68 1.370 . S
C72 C71 1.417 1_565 S
C23 C42 1.697 1_455 S
C22 C62 1.793 . S
C21 C51 1.898 . S
C24 C71 1.846 . S
C27 C48 1.678 . S
C26 C68 1.801 1_545 S
C45 C25 1.905 1_455 S
C28 C65 1.854 . S
