# Generated by pormake.
# Topology tsx, (6,3)-cn, num edge types: 1
# Building blocks:
#     Node 0, Type 0, BuildingBlock: MIDCAF_clean_sbu_0, # of connection points: 6
#     Node 1, Type 0, BuildingBlock: MIDCAF_clean_sbu_0, # of connection points: 6
#     Node 2, Type 1, BuildingBlock: QEWDON_clean_linker_0, # of connection points: 3
#     Node 3, Type 1, BuildingBlock: QEWDON_clean_linker_0, # of connection points: 3
#     Node 4, Type 1, BuildingBlock: QEWDON_clean_linker_0, # of connection points: 3
#     Node 5, Type 1, BuildingBlock: QEWDON_clean_linker_0, # of connection points: 3
#     Edge 6, Type (0, 1), None
#     Edge 7, Type (0, 1), None
#     Edge 8, Type (0, 1), None
#     Edge 9, Type (0, 1), None
#     Edge 10, Type (0, 1), None
#     Edge 11, Type (0, 1), None
#     Edge 12, Type (0, 1), None
#     Edge 13, Type (0, 1), None
#     Edge 14, Type (0, 1), None
#     Edge 15, Type (0, 1), None
#     Edge 16, Type (0, 1), None
#     Edge 17, Type (0, 1), None
# Relax obj value: 0.083
# Max RMSD: 0.144
# Mean RMSD: 0.132
data_MOF--net-tsx--node1-MIDCAF_clean_sbu_0--node2-QEWDON_clean_linker_0--edge1-none
_symmetry_space_group_name_H-M    P1
_symmetry_Int_Tables_number       1
_symmetry_cell_setting            triclinic
loop_
_symmetry_equiv_pos_as_xyz
'x, y, z'
_cell_length_a     8.2081572
_cell_length_b     11.822716
_cell_length_c     14.460695
_cell_angle_alpha  87.024649
_cell_angle_beta   121.29771
_cell_angle_gamma 87.049
loop_
_atom_site_label
_atom_site_type_symbol
_atom_site_fract_x
_atom_site_fract_y
_atom_site_fract_z
_atom_type_partial_charge
Zn0 Zn 0.88458 0.00829 0.96854 0.0
Zn1 Zn 0.63525 -0.03134 0.26318 0.0
Zn2 Zn 0.25357 0.91517 0.09553 0.0
C3 C 0.482 0.13391 0.10038 0.0
C4 C 0.67692 0.74836 0.24741 0.0
O5 O 0.98254 0.80435 0.99287 0.0
O6 O 0.7119 0.89339 0.96065 0.0
C7 C 1.04365 0.1564 0.1105 0.0
O8 O 0.32577 0.09282 0.08247 0.0
O9 O 0.6349 0.06788 0.14391 0.0
O10 O 0.73347 0.79984 0.3306 0.0
O11 O 0.52222 0.79444 0.16134 0.0
O12 O 0.88045 0.12159 1.06271 0.0
O13 O 1.18374 0.09515 0.11502 0.0
O14 O 1.12984 0.86207 0.92682 0.0
O15 O 0.9623 0.02538 0.84831 0.0
C16 C 1.04481 -0.06501 0.8419 0.0
O17 O 0.40152 0.8817 0.28013 0.0
O18 O 0.52495 0.04485 0.33614 0.0
C19 C 0.80424 0.80227 0.96745 0.0
C20 C 0.47567 -0.04839 0.3548 0.0
Zn21 Zn 1.13275 0.46743 0.76176 0.0
Zn22 Zn 0.38714 0.50842 0.47001 0.0
Zn23 Zn 0.75617 0.41488 0.59581 0.0
C24 C 0.54349 0.43522 0.34228 0.0
C25 C 0.54896 0.65588 0.61212 0.0
O26 O 0.90019 0.38322 0.78046 0.0
O27 O 1.02929 0.54477 0.83769 0.0
C28 C 1.17734 0.24784 0.74647 0.0
O29 O 0.6266 0.36166 0.42675 0.0
O30 O 0.46394 0.52644 0.34949 0.0
O31 O 0.38604 0.6207 0.56579 0.0
O32 O 0.68812 0.59482 0.61556 0.0
O33 O 0.23175 0.29887 0.82973 0.0
O34 O 1.02373 0.29415 0.65994 0.0
O35 O 0.82929 0.59248 0.58229 0.0
O36 O 1.13891 0.56746 0.64523 0.0
C37 C 0.98596 0.63348 0.60079 0.0
O38 O 0.48423 0.30436 0.49233 0.0
O39 O 0.21439 0.39327 0.46152 0.0
C40 C 0.97663 0.45246 0.85559 0.0
C41 C 0.30601 0.30229 0.46719 0.0
H42 H 0.5564 0.08952 0.51537 0.0
C43 C 0.54478 0.00365 0.53837 0.0
C44 C 0.51456 0.92232 0.46483 0.0
C45 C 0.54412 -0.02309 0.63532 0.0
H46 H 0.50884 0.74704 0.44164 0.0
C47 C 0.52164 0.8107 0.49625 0.0
C48 C 0.54526 0.77819 0.59609 0.0
C49 C 0.53868 0.86106 0.66236 0.0
C50 C 0.54171 0.07406 0.69972 0.0
H51 H 0.53216 0.83697 0.73316 0.0
C52 C 0.40963 0.09101 0.73559 0.0
C53 C 0.34064 0.20514 0.73638 0.0
C54 C 0.63839 0.16797 0.6979 0.0
H55 H 0.74559 0.16107 0.6759 0.0
C56 C 0.57152 0.27613 0.70175 0.0
H57 H 0.35467 0.01851 0.75388 0.0
C58 C 0.41733 0.29418 0.7116 0.0
H59 H 0.35096 0.38026 0.69433 0.0
H60 H 0.60576 0.3493 0.67218 0.0
H61 H 0.99979 0.07718 0.66096 0.0
C62 C 1.01154 -0.01157 0.65231 0.0
C63 C 1.0223 0.90733 0.7338 0.0
C64 C 1.03155 -0.04696 0.56454 0.0
H65 H 0.99928 0.73303 0.76646 0.0
C66 C 1.00917 0.79332 0.71179 0.0
C67 C 1.00625 0.75605 0.62068 0.0
C68 C 1.03829 0.83297 0.55633 0.0
C69 C 1.05905 0.03269 0.48467 0.0
H70 H 1.07137 0.79496 0.50128 0.0
C71 C 1.11544 0.14668 0.49742 0.0
C72 C 1.20282 0.1955 0.44188 0.0
C73 C 1.04158 -0.01186 0.3923 0.0
H74 H 0.98861 0.90851 0.36953 0.0
C75 C 1.0968 0.04298 0.32728 0.0
H76 H 1.09123 0.19636 0.54803 0.0
C77 C 1.1886 0.14133 0.35635 0.0
H78 H 0.25398 0.17495 0.31402 0.0
H79 H 1.08454 0.00288 0.25941 0.0
H80 H 1.05715 0.58994 1.01646 0.0
C81 C 1.04452 0.50412 1.03906 0.0
C82 C 1.01393 0.42311 0.96523 0.0
C83 C 1.04257 0.4772 0.13559 0.0
H84 H 1.00611 0.24806 0.94108 0.0
C85 C 1.01903 0.31152 0.99589 0.0
C86 C 1.04111 0.27872 0.09525 0.0
C87 C 1.03512 0.3614 0.16184 0.0
C88 C 1.04045 0.57419 0.20021 0.0
H89 H 1.02747 0.33718 0.23227 0.0
C90 C 0.90797 0.59129 0.23576 0.0
C91 C 0.83876 0.70548 0.23615 0.0
C92 C 1.13765 0.66799 0.19876 0.0
H93 H 0.24542 0.66098 0.17721 0.0
C94 C 1.07047 0.77624 0.20219 0.0
H95 H 0.85306 0.51886 0.25421 0.0
C96 C 0.91531 0.79442 0.21112 0.0
H97 H 0.84906 0.88056 0.19379 0.0
H98 H 1.10558 0.84938 0.17312 0.0
H99 H 0.49916 0.57748 0.16166 0.0
C100 C 0.50977 0.48875 0.15265 0.0
C101 C 0.51993 0.40763 0.23394 0.0
C102 C 0.52894 0.45334 1.06462 0.0
H103 H 0.49563 0.23347 0.26624 0.0
C104 C 0.50573 0.29371 0.21163 0.0
C105 C 0.50256 0.25644 0.12045 0.0
C106 C 0.53484 0.3333 1.05617 0.0
C107 C 0.55684 0.53289 0.98487 0.0
H108 H 0.56764 0.29522 1.00104 0.0
C109 C 0.61319 0.6469 0.99761 0.0
C110 C 0.70145 0.69539 0.94241 0.0
C111 C 0.53978 0.4882 0.89262 0.0
H112 H 0.48599 0.4088 0.86955 0.0
C113 C 0.59651 0.5426 0.82814 0.0
H114 H 0.58819 0.69681 1.04792 0.0
C115 C 0.68854 0.64081 0.85738 0.0
H116 H 0.75526 0.67395 0.81563 0.0
H117 H 0.58517 0.50231 0.76057 0.0
loop_
_geom_bond_atom_site_label_1
_geom_bond_atom_site_label_2
_geom_bond_distance
_geom_bond_site_symmetry_2
_ccdc_geom_bond_type
Zn0 O6 1.920 1_545 S
Zn0 O12 1.898 . S
Zn0 O15 1.905 1_545 S
Zn1 O9 1.905 . S
Zn1 O10 1.898 1_545 S
Zn1 O18 1.920 1_545 S
Zn2 O5 2.080 1_444 S
Zn2 O8 2.114 . S
Zn2 O11 2.120 1_545 S
Zn2 O13 2.120 1_454 S
Zn2 O14 2.114 1_554 S
Zn2 O17 2.080 . S
C3 O8 1.166 . S
C3 O9 1.182 . S
C4 O10 1.167 . S
C4 O11 1.299 . S
O5 Zn2 2.080 1_666 S
O5 C19 1.305 . S
O6 Zn0 1.920 1_565 S
O6 C19 1.234 . S
C7 O12 1.167 . S
C7 O13 1.299 . S
O8 Zn2 2.114 . S
O8 C3 1.166 . S
O9 Zn1 1.905 . S
O9 C3 1.182 . S
O10 Zn1 1.898 1_565 S
O10 C4 1.167 . S
O11 Zn2 2.120 1_565 S
O11 C4 1.299 . S
O12 Zn0 1.898 . S
O12 C7 1.167 . S
O13 Zn2 2.120 1_656 S
O13 C7 1.299 . S
O14 Zn2 2.114 1_556 S
O14 C16 1.166 1_445 S
O15 Zn0 1.905 1_565 S
O15 C16 1.182 . S
C16 O14 1.166 1_665 S
C16 O15 1.182 . S
O17 Zn2 2.080 . S
O17 C20 1.305 1_545 S
O18 Zn1 1.920 1_565 S
O18 C20 1.234 . S
C19 O5 1.305 . S
C19 O6 1.234 . S
C20 O17 1.305 1_565 S
C20 O18 1.234 . S
Zn21 O27 1.920 . S
Zn21 O33 1.898 . S
Zn21 O36 1.905 . S
Zn22 O30 1.905 . S
Zn22 O31 1.898 . S
Zn22 O39 1.920 . S
Zn23 O26 2.080 . S
Zn23 O29 2.114 . S
Zn23 O32 2.120 . S
Zn23 O34 2.120 . S
Zn23 O35 2.114 . S
Zn23 O38 2.080 . S
C24 O29 1.166 . S
C24 O30 1.182 . S
C25 O31 1.167 . S
C25 O32 1.299 . S
O26 Zn23 2.080 . S
O26 C40 1.305 . S
O27 Zn21 1.920 . S
O27 C40 1.234 . S
C28 O33 1.167 . S
C28 O34 1.299 . S
O29 Zn23 2.114 . S
O29 C24 1.166 . S
O30 Zn22 1.905 . S
O30 C24 1.182 . S
O31 Zn22 1.898 . S
O31 C25 1.167 . S
O32 Zn23 2.120 . S
O32 C25 1.299 . S
O33 Zn21 1.898 . S
O33 C28 1.167 . S
O34 Zn23 2.120 . S
O34 C28 1.299 . S
O35 Zn23 2.114 . S
O35 C37 1.166 . S
O36 Zn21 1.905 . S
O36 C37 1.182 . S
C37 O35 1.166 . S
C37 O36 1.182 . S
O38 Zn23 2.080 . S
O38 C41 1.305 . S
O39 Zn22 1.920 . S
O39 C41 1.234 . S
C40 O26 1.305 . S
C40 O27 1.234 . S
C41 O38 1.305 . S
C41 O39 1.234 . S
H42 C43 0.949 . S
C43 H42 0.949 . S
C43 C44 1.395 1_545 S
C43 C45 1.391 . S
C44 C43 1.395 1_565 S
C44 C47 1.390 . S
C45 C43 1.391 . S
C45 C49 1.387 1_545 S
C45 C50 1.491 . S
H46 C47 0.950 . S
C47 C44 1.390 . S
C47 H46 0.950 . S
C47 C48 1.378 . S
C48 C47 1.378 . S
C48 C49 1.409 . S
C49 C45 1.387 1_565 S
C49 C48 1.409 . S
C49 H51 0.951 . S
C50 C45 1.491 . S
C50 C52 1.382 . S
C50 C54 1.404 . S
H51 C49 0.951 . S
C52 C50 1.382 . S
C52 C53 1.390 1_455 S
C52 H57 0.949 1_455 S
C53 C52 1.390 1_655 S
C53 C58 1.399 1_655 S
C54 C50 1.404 . S
C54 H55 0.950 . S
C54 C56 1.375 . S
H55 C54 0.950 . S
C56 C54 1.375 . S
C56 C58 1.382 . S
C56 H60 0.950 . S
H57 C52 0.949 1_655 S
C58 C53 1.399 1_455 S
C58 C56 1.382 . S
C58 H59 0.952 . S
H59 C58 0.952 . S
H60 C56 0.950 . S
H61 C62 0.949 . S
C62 H61 0.949 . S
C62 C63 1.395 1_445 S
C62 C64 1.391 1_455 S
C63 C62 1.395 1_665 S
C63 C66 1.390 . S
C64 C62 1.391 1_655 S
C64 C68 1.387 1_545 S
C64 C69 1.491 1_655 S
H65 C66 0.950 . S
C66 C63 1.390 . S
C66 H65 0.950 . S
C66 C67 1.378 . S
C67 C66 1.378 . S
C67 C68 1.409 . S
C68 C64 1.387 1_565 S
C68 C67 1.409 . S
C68 H70 0.951 . S
C69 C64 1.491 1_455 S
C69 C71 1.382 . S
C69 C73 1.404 1_455 S
H70 C68 0.951 . S
C71 C69 1.382 . S
C71 C72 1.390 . S
C71 H76 0.949 . S
C72 C71 1.390 . S
C72 C77 1.399 . S
C73 C69 1.404 1_655 S
C73 H74 0.950 . S
C73 C75 1.375 . S
H74 C73 0.950 . S
C75 C73 1.375 . S
C75 C77 1.382 1_655 S
C75 H79 0.950 . S
H76 C71 0.949 . S
C77 C72 1.399 . S
C77 C75 1.382 1_455 S
C77 H78 0.952 . S
H78 C77 0.952 . S
H79 C75 0.950 . S
H80 C81 0.949 . S
C81 H80 0.949 . S
C81 C82 1.395 . S
C81 C83 1.391 . S
C82 C81 1.395 . S
C82 C85 1.390 . S
C83 C81 1.391 . S
C83 C87 1.387 1_556 S
C83 C88 1.491 1_556 S
H84 C85 0.950 . S
C85 C82 1.390 . S
C85 H84 0.950 . S
C85 C86 1.378 . S
C86 C85 1.378 . S
C86 C87 1.409 1_556 S
C87 C83 1.387 1_554 S
C87 C86 1.409 1_554 S
C87 H89 0.951 . S
C88 C83 1.491 1_554 S
C88 C90 1.382 1_554 S
C88 C92 1.404 . S
H89 C87 0.951 . S
C90 C88 1.382 1_556 S
C90 C91 1.390 1_556 S
C90 H95 0.949 . S
C91 C90 1.390 1_554 S
C91 C96 1.399 . S
C92 C88 1.404 . S
C92 H93 0.950 . S
C92 C94 1.375 . S
H93 C92 0.950 . S
C94 C92 1.375 . S
C94 C96 1.382 . S
C94 H98 0.950 . S
H95 C90 0.949 . S
C96 C91 1.399 . S
C96 C94 1.382 . S
C96 H97 0.952 . S
H97 C96 0.952 . S
H98 C94 0.950 . S
H99 C100 0.949 . S
C100 H99 0.949 . S
C100 C101 1.395 . S
C100 C102 1.391 . S
C101 C100 1.395 . S
C101 C104 1.390 . S
C102 C100 1.391 . S
C102 C106 1.387 . S
C102 C107 1.491 1_554 S
H103 C104 0.950 . S
C104 C101 1.390 . S
C104 H103 0.950 . S
C104 C105 1.378 . S
C105 C104 1.378 . S
C105 C106 1.409 . S
C106 C102 1.387 . S
C106 C105 1.409 . S
C106 H108 0.951 1_554 S
C107 C102 1.491 1_556 S
C107 C109 1.382 1_556 S
C107 C111 1.404 . S
H108 C106 0.951 1_556 S
C109 C107 1.382 1_554 S
C109 C110 1.390 1_554 S
C109 H114 0.949 . S
C110 C109 1.390 1_556 S
C110 C115 1.399 . S
C111 C107 1.404 . S
C111 H112 0.950 . S
C111 C113 1.375 . S
H112 C111 0.950 . S
C113 C111 1.375 . S
C113 C115 1.382 . S
C113 H117 0.950 . S
H114 C109 0.949 . S
C115 C110 1.399 . S
C115 C113 1.382 . S
C115 H116 0.952 . S
H116 C115 0.952 . S
H117 C113 0.950 . S
C105 C3 1.393 . S
C4 C91 1.321 . S
C19 C110 1.329 . S
C7 C86 1.416 . S
C37 C67 1.393 . S
C28 C53 1.321 . S
C72 C41 1.329 . S
C48 C25 1.416 . S
C20 C44 1.381 . S
C16 C63 1.443 . S
C82 C40 1.381 . S
C24 C101 1.443 . S
