# Generated by pormake.
# Topology pts, (4,4)-cn, num edge types: 1
# Building blocks:
#     Node 0, Type 0, BuildingBlock: NAWXER_clean_linker_0, # of connection points: 4
#     Node 1, Type 0, BuildingBlock: NAWXER_clean_linker_0, # of connection points: 4
#     Node 2, Type 1, BuildingBlock: AZAVOO_clean_sbu_0, # of connection points: 4
#     Node 3, Type 1, BuildingBlock: AZAVOO_clean_sbu_0, # of connection points: 4
#     Edge 4, Type (0, 1), BuildingBlock: XIVTED_clean_linker_0, # of connection points: 2
#     Edge 5, Type (0, 1), BuildingBlock: XIVTED_clean_linker_0, # of connection points: 2
#     Edge 6, Type (0, 1), BuildingBlock: XIVTED_clean_linker_0, # of connection points: 2
#     Edge 7, Type (0, 1), BuildingBlock: XIVTED_clean_linker_0, # of connection points: 2
#     Edge 8, Type (0, 1), BuildingBlock: XIVTED_clean_linker_0, # of connection points: 2
#     Edge 9, Type (0, 1), BuildingBlock: XIVTED_clean_linker_0, # of connection points: 2
#     Edge 10, Type (0, 1), BuildingBlock: XIVTED_clean_linker_0, # of connection points: 2
#     Edge 11, Type (0, 1), BuildingBlock: XIVTED_clean_linker_0, # of connection points: 2
# Relax obj value: 0.000
# Max RMSD: 0.035
# Mean RMSD: 0.020
data_MOF--net-pts--node1-AZAVOO_clean_sbu_0--node2-NAWXER_clean_linker_0--edge1-XIVTED_clean_linker_0
_symmetry_space_group_name_H-M    P1
_symmetry_Int_Tables_number       1
_symmetry_cell_setting            triclinic
loop_
_symmetry_equiv_pos_as_xyz
'x, y, z'
_cell_length_a     29.209073
_cell_length_b     30.33447
_cell_length_c     42.730133
_cell_angle_alpha  90.528621
_cell_angle_beta   96.251255
_cell_angle_gamma 89.91905
loop_
_atom_site_label
_atom_site_type_symbol
_atom_site_fract_x
_atom_site_fract_y
_atom_site_fract_z
_atom_type_partial_charge
C0 C 0.6683 0.06838 0.9521 0.0
C1 C 0.66934 0.03721 0.92765 0.0
C2 C 0.63345 0.06699 0.97212 0.0
C3 C 0.59967 0.03375 0.96852 0.0
C4 C 0.63571 0.00395 0.92419 0.0
C5 C 0.60128 0.00227 0.94437 0.0
C6 C 0.56053 0.03317 0.98795 0.0
C7 C 0.68497 0.01281 0.058 0.0
C8 C 0.69207 0.04498 0.08193 0.0
C9 C 0.64421 0.01223 0.03759 0.0
C10 C 0.60998 0.04421 0.04034 0.0
C11 C 0.65802 0.07731 0.08436 0.0
C12 C 0.6173 0.07676 0.06388 0.0
C13 C 0.56497 0.04137 0.02078 0.0
C14 C 0.38131 -0.00822 0.05866 0.0
C15 C 0.37298 0.02665 0.0792 0.0
C16 C 0.41659 -0.00531 0.0392 0.0
C17 C 0.44411 0.03266 0.03972 0.0
C18 C 0.40019 0.06487 0.07942 0.0
C19 C 0.43574 0.06766 0.06004 0.0
C20 C 0.48341 0.0347 0.02066 0.0
C21 C 0.3562 0.03457 0.94973 0.0
C22 C 0.35302 -0.00263 0.92966 0.0
C23 C 0.39679 0.04333 0.96936 0.0
C24 C 0.43484 0.01497 0.96933 0.0
C25 C 0.39091 0.96856 0.93037 0.0
C26 C 0.43145 0.9775 0.94977 0.0
C27 C 0.47921 0.02506 0.98811 0.0
H28 H 0.69343 0.09473 0.95501 0.0
H29 H 0.63227 0.09262 0.98982 0.0
H30 H 0.6359 0.97926 0.90572 0.0
H31 H 0.57561 0.97642 0.94094 0.0
H32 H 0.71003 0.98691 0.05588 0.0
H33 H 0.63885 0.98584 0.02034 0.0
H34 H 0.66259 0.10275 0.10238 0.0
H35 H 0.59123 0.10153 0.06663 0.0
H36 H 0.3608 0.96199 0.05785 0.0
H37 H 0.42303 0.96682 0.02427 0.0
H38 H 0.39497 0.09203 0.09528 0.0
H39 H 0.4569 0.09704 0.06105 0.0
H40 H 0.32798 0.05779 0.94947 0.0
H41 H 0.39891 0.0729 0.98385 0.0
H42 H 0.38944 0.9392 0.91569 0.0
H43 H 0.46036 0.95513 0.94944 0.0
N44 N 0.51784 0.02487 0.97308 0.0
N45 N 0.52614 0.0424 0.03575 0.0
C46 C 0.05077 0.65778 0.54826 0.0
C47 C 0.01567 0.66026 0.56833 0.0
C48 C 0.05704 0.61935 0.53093 0.0
C49 C 0.02823 0.58282 0.53329 0.0
C50 C 0.98604 0.62405 0.5698 0.0
C51 C 0.99249 0.58565 0.55264 0.0
C52 C 0.03808 0.54001 0.51873 0.0
C53 C 0.99168 0.62554 0.43615 0.0
C54 C 0.0266 0.63554 0.4171 0.0
C55 C -0.00135 0.5935 0.4594 0.0
C56 C 0.04056 0.57062 0.46397 0.0
C57 C 0.06846 0.6122 0.42165 0.0
C58 C 0.07515 0.57972 0.44467 0.0
C59 C 0.04686 0.53482 0.48712 0.0
C60 C 0.03658 0.34109 0.46583 0.0
C61 C 0.07214 0.33484 0.4465 0.0
C62 C 0.0328 0.38062 0.48226 0.0
C63 C 0.0648 0.41456 0.48002 0.0
C64 C 0.10402 0.36898 0.44414 0.0
C65 C 0.10023 0.40858 0.46067 0.0
C66 C 0.05876 0.45778 0.4952 0.0
C67 C 0.08516 0.36105 0.57468 0.0
C68 C 0.05113 0.35993 0.59562 0.0
C69 C 0.0851 0.39432 0.55225 0.0
C70 C 0.05036 0.42654 0.5498 0.0
C71 C 0.01722 0.39299 0.59362 0.0
C72 C 0.01681 0.42579 0.57096 0.0
C73 C 0.04983 0.46297 0.52692 0.0
H74 H 0.0746 0.68483 0.5469 0.0
H75 H 0.0856 0.61756 0.51678 0.0
H76 H 0.95815 0.62514 0.58454 0.0
H77 H 0.96993 0.55778 0.55486 0.0
H78 H 0.95864 0.64205 0.43289 0.0
H79 H 0.97093 0.58596 0.47339 0.0
H80 H 0.09638 0.61941 0.40779 0.0
H81 H 0.10753 0.56198 0.44764 0.0
H82 H 0.01077 0.31589 0.46755 0.0
H83 H 0.00412 0.38505 0.49607 0.0
H84 H 0.13188 0.36509 0.42957 0.0
H85 H 0.12488 0.43465 0.45825 0.0
H86 H 0.11164 0.33596 0.57533 0.0
H87 H 0.11243 0.39495 0.53706 0.0
H88 H 0.99107 0.39384 0.60974 0.0
H89 H 0.99004 0.45067 0.56995 0.0
N90 N 0.03986 0.50391 0.53729 0.0
N91 N 0.05713 0.49399 0.47662 0.0
Mg92 Mg 0.06533 0.97728 0.27318 0.0
O93 O 0.99598 -0.00849 0.24354 0.0
O94 O 0.94223 0.98342 0.27658 0.0
Mg95 Mg 0.97431 0.96027 0.32463 0.0
C96 C 0.954 -0.00715 0.24951 0.0
C97 C 0.14445 0.98259 0.23564 0.0
O98 O 0.15208 0.95044 0.25596 0.0
O99 O 0.06183 0.04377 0.29921 0.0
O100 O 0.01069 0.02634 0.33242 0.0
O101 O 0.06101 0.90468 0.26147 0.0
O102 O 0.03273 0.9356 0.30201 0.0
C103 C 0.03948 0.0531 0.32256 0.0
C104 C 0.03895 0.90055 0.28593 0.0
O105 O 0.1076 0.00492 0.23593 0.0
Mg106 Mg 0.97743 -0.00252 0.73543 0.0
O107 O 0.0462 0.98486 0.76617 0.0
O108 O 0.09909 0.97277 0.73295 0.0
Mg109 Mg 0.06638 0.97889 0.68237 0.0
C110 C 0.08753 0.97618 0.76083 0.0
C111 C 0.90001 0.02944 0.77052 0.0
O112 O 0.88373 0.02834 0.74061 0.0
O113 O 0.00133 0.06701 0.72523 0.0
O114 O 0.05382 0.0521 0.69208 0.0
O115 O 0.96246 0.925 0.73113 0.0
O116 O -0.00015 0.96265 0.69805 0.0
C117 C 0.03114 0.07941 0.70735 0.0
C118 C 0.98432 0.92545 0.70635 0.0
O119 O 0.94213 0.01976 0.77791 0.0
H120 H 0.30847 0.08721 0.09447 0.0
H121 H 0.21976 0.93355 0.22628 0.0
H122 H 0.3579 0.95544 0.11516 0.0
H123 H 0.14533 0.04981 0.19245 0.0
H124 H 0.27434 0.94528 0.18821 0.0
H125 H 0.25189 0.07811 0.13251 0.0
C126 C 0.30742 0.05643 0.10702 0.0
C127 C 0.33779 0.02194 0.10155 0.0
C128 C 0.24609 0.96828 0.18898 0.0
C129 C 0.27353 0.01142 0.145 0.0
C130 C 0.21487 0.96169 0.21085 0.0
C131 C 0.17776 -0.00929 0.21257 0.0
C132 C 0.24062 0.00437 0.16862 0.0
C133 C 0.17338 0.02657 0.19187 0.0
C134 C 0.27503 0.0512 0.12856 0.0
C135 C 0.33478 0.98267 0.11827 0.0
N136 N 0.20456 0.03248 0.17074 0.0
N137 N 0.30343 0.97859 0.13927 0.0
H138 H 0.12459 0.31895 0.62936 0.0
H139 H 0.96764 0.14574 0.70883 0.0
H140 H 0.97582 0.31881 0.61548 0.0
H141 H 0.10803 0.12021 0.69134 0.0
H142 H 0.97419 0.22031 0.68799 0.0
H143 H 0.12211 0.25599 0.66441 0.0
C144 C 0.09141 0.30584 0.63366 0.0
C145 C 0.05036 0.32397 0.61899 0.0
C146 C 0.00374 0.19854 0.68925 0.0
C147 C 0.04742 0.25267 0.65976 0.0
C148 C 0.00015 0.1562 0.70134 0.0
C149 C 0.03715 0.1267 0.70134 0.0
C150 C 0.04477 0.21138 0.67754 0.0
C151 C 0.07847 0.1418 0.69128 0.0
C152 C 0.09007 0.27016 0.6539 0.0
C153 C 0.00839 0.30628 0.62632 0.0
N154 N 0.08106 0.18301 0.67953 0.0
N155 N 0.00802 0.27146 0.64603 0.0
H156 H 0.78191 0.02663 0.07239 0.0
H157 H 0.86508 0.01478 0.25649 0.0
H158 H 0.69588 0.05754 0.14559 0.0
H159 H 0.95859 -0.00078 0.18553 0.0
H160 H 0.80342 0.03176 0.21554 0.0
H161 H 0.8476 0.01762 0.1127 0.0
C162 C 0.77687 0.0317 0.0969 0.0
C163 C 0.73324 0.04279 0.10561 0.0
C164 C 0.83741 0.02485 0.20882 0.0
C165 C 0.8082 0.03258 0.15177 0.0
C166 C 0.87275 0.01498 0.23225 0.0
C167 C 0.91716 0.00523 0.22448 0.0
C168 C 0.84614 0.02468 0.17717 0.0
C169 C 0.9249 0.00647 0.19262 0.0
C170 C 0.81442 0.02675 0.11986 0.0
C171 C 0.72888 0.04948 0.13769 0.0
N172 N 0.88962 0.01569 0.17007 0.0
N173 N 0.76573 0.04399 0.15954 0.0
H174 H 0.02577 0.74737 0.55362 0.0
H175 H 0.96489 0.83966 0.72026 0.0
H176 H 0.99566 0.66293 0.62957 0.0
H177 H 0.01821 0.91983 0.64955 0.0
H178 H 0.97287 0.77445 0.68694 0.0
H179 H 0.01996 0.81135 0.58801 0.0
C180 C 0.01811 0.74224 0.57755 0.0
C181 C 0.01114 0.69966 0.58866 0.0
C182 C 0.98308 0.80633 0.67887 0.0
C183 C 0.00396 0.77286 0.62813 0.0
C184 C 0.97855 0.8435 0.69787 0.0
C185 C 0.99113 0.88518 0.68775 0.0
C186 C -0.0001 0.81108 0.64948 0.0
C187 C 0.00848 0.88833 0.65848 0.0
C188 C 0.01463 0.7788 0.59716 0.0
C189 C 0.00056 0.69514 0.61979 0.0
N190 N 0.01216 0.85184 0.64035 0.0
N191 N 0.99726 0.73128 0.63842 0.0
H192 H 0.26147 0.0105 0.93778 0.0
H193 H 0.17516 0.94577 0.75907 0.0
H194 H 0.3501 0.96773 0.86882 0.0
H195 H 0.08409 -0.00166 0.8233 0.0
H196 H 0.23785 0.94661 0.80136 0.0
H197 H 0.19474 0.00071 0.89825 0.0
C198 C 0.26696 -0.00098 0.91441 0.0
C199 C 0.31161 -0.01011 0.9067 0.0
C200 C 0.20416 0.9578 0.80635 0.0
C201 C 0.2354 0.97822 0.86153 0.0
C202 C 0.1682 0.95729 0.78215 0.0
C203 C 0.12427 0.97244 0.78749 0.0
C204 C 0.1965 0.97379 0.83627 0.0
C205 C 0.11742 0.9865 0.81807 0.0
C206 C 0.22882 -0.00679 0.89193 0.0
C207 C 0.31646 0.97452 0.87613 0.0
N208 N 0.15329 0.9872 0.84128 0.0
N209 N 0.27895 0.96934 0.85475 0.0
H210 H 0.09154 0.32376 0.38528 0.0
H211 H 0.01486 0.07257 0.3805 0.0
H212 H 0.05863 0.25099 0.46624 0.0
H213 H 0.08393 0.12861 0.30578 0.0
H214 H 0.02818 0.14001 0.41063 0.0
H215 H 0.08848 0.25476 0.35469 0.0
C216 C 0.08428 0.29325 0.39674 0.0
C217 C 0.07474 0.29321 0.42829 0.0
C218 C 0.04067 0.13773 0.38772 0.0
C219 C 0.07055 0.21463 0.39336 0.0
C220 C 0.03279 0.09918 0.37029 0.0
C221 C 0.04806 0.09489 0.34037 0.0
C222 C 0.06367 0.17287 0.37524 0.0
C223 C 0.07152 0.13055 0.32872 0.0
C224 C 0.08235 0.25399 0.37922 0.0
C225 C 0.06516 0.2528 0.44183 0.0
N226 N 0.07836 0.16833 0.34613 0.0
N227 N 0.06296 0.21531 0.42424 0.0
H228 H 0.65433 0.0319 0.86372 0.0
H229 H 0.91976 0.03062 0.83512 0.0
H230 H 0.76289 0.04969 0.93964 0.0
H231 H 0.80768 0.0451 0.76127 0.0
H232 H 0.86432 0.03653 0.87423 0.0
H233 H 0.71129 0.03458 0.82611 0.0
C234 C 0.69028 0.03627 0.87245 0.0
C235 C 0.70398 0.04024 0.90483 0.0
C236 C 0.85205 0.03878 0.84945 0.0
C237 C 0.7696 0.04352 0.86185 0.0
C238 C 0.88364 0.03543 0.82713 0.0
C239 C 0.86833 0.03705 0.79484 0.0
C240 C 0.80488 0.04339 0.83933 0.0
C241 C 0.82113 0.04339 0.78585 0.0
C242 C 0.72279 0.0381 0.85097 0.0
C243 C 0.75094 0.0466 0.91483 0.0
N244 N 0.79116 0.04595 0.80792 0.0
N245 N 0.78221 0.04767 0.89341 0.0
H246 H 0.98074 0.71376 0.42163 0.0
H247 H 0.07046 0.81893 0.27023 0.0
H248 H 0.05727 0.63885 0.35832 0.0
H249 H 0.97715 0.88301 0.32776 0.0
H250 H 0.05983 0.74985 0.29794 0.0
H251 H 0.97332 0.77341 0.38402 0.0
C252 C 0.99547 0.70948 0.39962 0.0
C253 C 0.01989 0.67111 0.39333 0.0
C254 C 0.04112 0.77895 0.30408 0.0
C255 C 0.01247 0.74028 0.35019 0.0
C256 C 0.04697 0.81831 0.28816 0.0
C257 C 0.02535 0.85707 0.29713 0.0
C258 C 0.01353 0.77864 0.32906 0.0
C259 C 0.99533 0.85438 0.32048 0.0
C260 C 0.99142 0.7438 0.37813 0.0
C261 C 0.03897 0.66814 0.36454 0.0
N262 N 0.99078 0.81606 0.33588 0.0
N263 N 0.03526 0.70247 0.34416 0.0
loop_
_geom_bond_atom_site_label_1
_geom_bond_atom_site_label_2
_geom_bond_distance
_geom_bond_site_symmetry_2
_ccdc_geom_bond_type
C0 C1 1.384 . S
C0 C2 1.384 . S
C0 H28 0.931 . S
C1 C0 1.384 . S
C1 C4 1.382 1_545 S
C2 C0 1.384 . S
C2 C3 1.381 . S
C2 H29 0.930 . S
C3 C2 1.381 . S
C3 C5 1.381 1_545 S
C3 C6 1.487 . S
C4 C1 1.382 1_565 S
C4 C5 1.387 . S
C4 H30 0.930 . S
C5 C3 1.381 1_565 S
C5 C4 1.387 . S
C5 H31 0.931 . S
C6 C3 1.487 . S
C6 C13 1.399 1_556 S
C6 N44 1.343 . S
C7 C8 1.384 1_565 S
C7 C9 1.384 . S
C7 H32 0.931 . S
C8 C7 1.384 1_545 S
C8 C11 1.382 . S
C9 C7 1.384 . S
C9 C10 1.381 1_565 S
C9 H33 0.930 . S
C10 C9 1.381 1_545 S
C10 C12 1.381 . S
C10 C13 1.487 . S
C11 C8 1.382 . S
C11 C12 1.387 . S
C11 H34 0.930 . S
C12 C10 1.381 . S
C12 C11 1.387 . S
C12 H35 0.931 . S
C13 C6 1.399 1_554 S
C13 C10 1.487 . S
C13 N45 1.343 . S
C14 C15 1.384 1_565 S
C14 C16 1.384 . S
C14 H36 0.931 . S
C15 C14 1.384 1_545 S
C15 C18 1.382 . S
C16 C14 1.384 . S
C16 C17 1.381 1_565 S
C16 H37 0.930 . S
C17 C16 1.381 1_545 S
C17 C19 1.381 . S
C17 C20 1.487 . S
C18 C15 1.382 . S
C18 C19 1.387 . S
C18 H38 0.930 . S
C19 C17 1.381 . S
C19 C18 1.387 . S
C19 H39 0.931 . S
C20 C17 1.487 . S
C20 C27 1.399 1_554 S
C20 N45 1.343 . S
C21 C22 1.384 . S
C21 C23 1.384 . S
C21 H40 0.931 . S
C22 C21 1.384 . S
C22 C25 1.382 1_545 S
C23 C21 1.384 . S
C23 C24 1.381 . S
C23 H41 0.930 . S
C24 C23 1.381 . S
C24 C26 1.381 1_545 S
C24 C27 1.487 . S
C25 C22 1.382 1_565 S
C25 C26 1.387 . S
C25 H42 0.930 . S
C26 C24 1.381 1_565 S
C26 C25 1.387 . S
C26 H43 0.931 . S
C27 C20 1.399 1_556 S
C27 C24 1.487 . S
C27 N44 1.343 . S
H28 C0 0.931 . S
H29 C2 0.930 . S
H30 C4 0.930 . S
H31 C5 0.931 . S
H32 C7 0.931 . S
H33 C9 0.930 . S
H34 C11 0.930 . S
H35 C12 0.931 . S
H36 C14 0.931 . S
H37 C16 0.930 . S
H38 C18 0.930 . S
H39 C19 0.931 . S
H40 C21 0.931 . S
H41 C23 0.930 . S
H42 C25 0.930 . S
H43 C26 0.931 . S
N44 C6 1.343 . S
N44 C27 1.343 . S
N45 C13 1.343 . S
N45 C20 1.343 . S
C46 C47 1.384 . S
C46 C48 1.384 . S
C46 H74 0.931 . S
C47 C46 1.384 . S
C47 C50 1.382 1_455 S
C48 C46 1.384 . S
C48 C49 1.381 . S
C48 H75 0.930 . S
C49 C48 1.381 . S
C49 C51 1.381 1_455 S
C49 C52 1.487 . S
C50 C47 1.382 1_655 S
C50 C51 1.387 . S
C50 H76 0.930 . S
C51 C49 1.381 1_655 S
C51 C50 1.387 . S
C51 H77 0.931 . S
C52 C49 1.487 . S
C52 C59 1.399 . S
C52 N90 1.343 . S
C53 C54 1.384 . S
C53 C55 1.384 . S
C53 H78 0.931 1_455 S
C54 C53 1.384 . S
C54 C57 1.382 . S
C55 C53 1.384 . S
C55 C56 1.381 . S
C55 H79 0.930 1_455 S
C56 C55 1.381 . S
C56 C58 1.381 . S
C56 C59 1.487 . S
C57 C54 1.382 . S
C57 C58 1.387 . S
C57 H80 0.930 . S
C58 C56 1.381 . S
C58 C57 1.387 . S
C58 H81 0.931 . S
C59 C52 1.399 . S
C59 C56 1.487 . S
C59 N91 1.343 . S
C60 C61 1.384 . S
C60 C62 1.384 . S
C60 H82 0.931 1_455 S
C61 C60 1.384 . S
C61 C64 1.382 . S
C62 C60 1.384 . S
C62 C63 1.381 . S
C62 H83 0.930 1_455 S
C63 C62 1.381 . S
C63 C65 1.381 . S
C63 C66 1.487 . S
C64 C61 1.382 . S
C64 C65 1.387 . S
C64 H84 0.930 . S
C65 C63 1.381 . S
C65 C64 1.387 . S
C65 H85 0.931 . S
C66 C63 1.487 . S
C66 C73 1.399 . S
C66 N91 1.343 . S
C67 C68 1.384 . S
C67 C69 1.384 . S
C67 H86 0.931 . S
C68 C67 1.384 . S
C68 C71 1.382 1_455 S
C69 C67 1.384 . S
C69 C70 1.381 . S
C69 H87 0.930 . S
C70 C69 1.381 . S
C70 C72 1.381 1_455 S
C70 C73 1.487 . S
C71 C68 1.382 1_655 S
C71 C72 1.387 . S
C71 H88 0.930 . S
C72 C70 1.381 1_655 S
C72 C71 1.387 . S
C72 H89 0.931 . S
C73 C66 1.399 . S
C73 C70 1.487 . S
C73 N90 1.343 . S
H74 C46 0.931 . S
H75 C48 0.930 . S
H76 C50 0.930 . S
H77 C51 0.931 . S
H78 C53 0.931 1_655 S
H79 C55 0.930 1_655 S
H80 C57 0.930 . S
H81 C58 0.931 . S
H82 C60 0.931 1_655 S
H83 C62 0.930 1_655 S
H84 C64 0.930 . S
H85 C65 0.931 . S
H86 C67 0.931 . S
H87 C69 0.930 . S
H88 C71 0.930 . S
H89 C72 0.931 . S
N90 C52 1.343 . S
N90 C73 1.343 . S
N91 C59 1.343 . S
N91 C66 1.343 . S
Mg92 O93 2.028 . S
Mg92 O99 1.986 . S
Mg92 O101 2.114 1_545 S
Mg92 O102 2.251 1_545 S
Mg92 O105 2.010 . S
O93 Mg92 2.028 . S
O93 C96 1.250 1_455 S
O94 Mg95 2.028 . S
O94 C96 1.248 . S
Mg95 O94 2.028 . S
Mg95 O100 2.032 1_655 S
Mg95 O102 2.079 1_645 S
C96 O93 1.250 1_655 S
C96 O94 1.248 . S
C97 O98 1.264 . S
C97 O105 1.249 . S
O98 C97 1.264 . S
O99 Mg92 1.986 . S
O99 C103 1.246 . S
O100 Mg95 2.032 1_455 S
O100 C103 1.259 . S
O101 Mg92 2.114 1_565 S
O101 C104 1.252 . S
O102 Mg92 2.251 1_565 S
O102 Mg95 2.079 1_465 S
O102 C104 1.273 . S
C103 O99 1.246 . S
C103 O100 1.259 . S
C104 O101 1.252 . S
C104 O102 1.273 . S
O105 Mg92 2.010 . S
O105 C97 1.249 . S
Mg106 O107 2.028 1_655 S
Mg106 O113 1.986 . S
Mg106 O115 2.114 1_545 S
Mg106 O116 2.251 1_645 S
Mg106 O119 2.010 . S
O107 Mg106 2.028 1_455 S
O107 C110 1.250 . S
O108 Mg109 2.028 . S
O108 C110 1.248 . S
Mg109 O108 2.028 . S
Mg109 O114 2.032 . S
Mg109 O116 2.079 1_545 S
C110 O107 1.250 . S
C110 O108 1.248 . S
C111 O112 1.264 . S
C111 O119 1.249 . S
O112 C111 1.264 . S
O113 Mg106 1.986 . S
O113 C117 1.246 1_655 S
O114 Mg109 2.032 . S
O114 C117 1.259 . S
O115 Mg106 2.114 1_565 S
O115 C118 1.252 1_655 S
O116 Mg106 2.251 1_465 S
O116 Mg109 2.079 1_565 S
O116 C118 1.273 . S
C117 O113 1.246 1_455 S
C117 O114 1.259 . S
C118 O115 1.252 1_455 S
C118 O116 1.273 . S
O119 Mg106 2.010 . S
O119 C111 1.249 . S
H120 C126 0.930 . S
H121 C130 0.930 . S
H122 C135 0.929 . S
H123 C133 0.929 . S
H124 C128 0.929 . S
H125 C134 0.929 . S
C126 H120 0.930 . S
C126 C127 1.367 . S
C126 C134 1.378 . S
C127 C126 1.367 . S
C127 C135 1.433 1_545 S
C128 H124 0.929 . S
C128 C130 1.378 . S
C128 C132 1.350 1_565 S
C129 C132 1.463 . S
C129 C134 1.350 . S
C129 N137 1.427 1_545 S
C130 H121 0.930 . S
C130 C128 1.378 . S
C130 C131 1.367 1_565 S
C131 C130 1.367 1_545 S
C131 C133 1.433 . S
C132 C128 1.350 1_545 S
C132 C129 1.463 . S
C132 N136 1.427 . S
C133 H123 0.929 . S
C133 C131 1.433 . S
C133 N136 1.384 . S
C134 H125 0.929 . S
C134 C126 1.378 . S
C134 C129 1.350 . S
C135 H122 0.929 . S
C135 C127 1.433 1_565 S
C135 N137 1.384 . S
N136 C132 1.427 . S
N136 C133 1.384 . S
N137 C129 1.427 1_565 S
N137 C135 1.384 . S
H138 C144 0.930 . S
H139 C148 0.930 . S
H140 C153 0.929 . S
H141 C151 0.929 . S
H142 C146 0.929 . S
H143 C152 0.929 . S
C144 H138 0.930 . S
C144 C145 1.367 . S
C144 C152 1.378 . S
C145 C144 1.367 . S
C145 C153 1.433 1_455 S
C146 H142 0.929 . S
C146 C148 1.378 . S
C146 C150 1.350 1_655 S
C147 C150 1.463 . S
C147 C152 1.350 . S
C147 N155 1.427 1_455 S
C148 H139 0.930 . S
C148 C146 1.378 . S
C148 C149 1.367 1_655 S
C149 C148 1.367 1_455 S
C149 C151 1.433 . S
C150 C146 1.350 1_455 S
C150 C147 1.463 . S
C150 N154 1.427 . S
C151 H141 0.929 . S
C151 C149 1.433 . S
C151 N154 1.384 . S
C152 H143 0.929 . S
C152 C144 1.378 . S
C152 C147 1.350 . S
C153 H140 0.929 . S
C153 C145 1.433 1_655 S
C153 N155 1.384 . S
N154 C150 1.427 . S
N154 C151 1.384 . S
N155 C147 1.427 1_655 S
N155 C153 1.384 . S
H156 C162 0.930 . S
H157 C166 0.930 . S
H158 C171 0.929 . S
H159 C169 0.929 . S
H160 C164 0.929 . S
H161 C170 0.929 . S
C162 H156 0.930 . S
C162 C163 1.367 1_565 S
C162 C170 1.378 . S
C163 C162 1.367 1_545 S
C163 C171 1.433 . S
C164 H160 0.929 . S
C164 C166 1.378 . S
C164 C168 1.350 . S
C165 C168 1.463 . S
C165 C170 1.350 1_545 S
C165 N173 1.427 . S
C166 H157 0.930 . S
C166 C164 1.378 . S
C166 C167 1.367 . S
C167 C166 1.367 . S
C167 C169 1.433 1_545 S
C168 C164 1.350 . S
C168 C165 1.463 . S
C168 N172 1.427 1_545 S
C169 H159 0.929 . S
C169 C167 1.433 1_565 S
C169 N172 1.384 . S
C170 H161 0.929 . S
C170 C162 1.378 . S
C170 C165 1.350 1_565 S
C171 H158 0.929 . S
C171 C163 1.433 . S
C171 N173 1.384 . S
N172 C168 1.427 1_565 S
N172 C169 1.384 . S
N173 C165 1.427 . S
N173 C171 1.384 . S
H174 C180 0.930 . S
H175 C184 0.930 . S
H176 C189 0.929 . S
H177 C187 0.929 . S
H178 C182 0.929 . S
H179 C188 0.929 . S
C180 H174 0.930 . S
C180 C181 1.367 . S
C180 C188 1.378 . S
C181 C180 1.367 . S
C181 C189 1.433 . S
C182 H178 0.929 . S
C182 C184 1.378 . S
C182 C186 1.350 . S
C183 C186 1.463 . S
C183 C188 1.350 . S
C183 N191 1.427 . S
C184 H175 0.930 . S
C184 C182 1.378 . S
C184 C185 1.367 . S
C185 C184 1.367 . S
C185 C187 1.433 . S
C186 C182 1.350 . S
C186 C183 1.463 . S
C186 N190 1.427 . S
C187 H177 0.929 . S
C187 C185 1.433 . S
C187 N190 1.384 . S
C188 H179 0.929 . S
C188 C180 1.378 . S
C188 C183 1.350 . S
C189 H176 0.929 . S
C189 C181 1.433 . S
C189 N191 1.384 . S
N190 C186 1.427 . S
N190 C187 1.384 . S
N191 C183 1.427 . S
N191 C189 1.384 . S
H192 C198 0.930 . S
H193 C202 0.930 1_565 S
H194 C207 0.929 . S
H195 C205 0.929 . S
H196 C200 0.929 1_565 S
H197 C206 0.929 . S
C198 H192 0.930 . S
C198 C199 1.367 . S
C198 C206 1.378 . S
C199 C198 1.367 . S
C199 C207 1.433 1_545 S
C200 H196 0.929 1_545 S
C200 C202 1.378 . S
C200 C204 1.350 . S
C201 C204 1.463 . S
C201 C206 1.350 . S
C201 N209 1.427 1_545 S
C202 H193 0.930 1_545 S
C202 C200 1.378 . S
C202 C203 1.367 . S
C203 C202 1.367 . S
C203 C205 1.433 . S
C204 C200 1.350 . S
C204 C201 1.463 . S
C204 N208 1.427 . S
C205 H195 0.929 . S
C205 C203 1.433 . S
C205 N208 1.384 . S
C206 H197 0.929 . S
C206 C198 1.378 . S
C206 C201 1.350 . S
C207 H194 0.929 . S
C207 C199 1.433 1_565 S
C207 N209 1.384 . S
N208 C204 1.427 . S
N208 C205 1.384 . S
N209 C201 1.427 1_565 S
N209 C207 1.384 . S
H210 C216 0.930 . S
H211 C220 0.930 . S
H212 C225 0.929 1_655 S
H213 C223 0.929 . S
H214 C218 0.929 . S
H215 C224 0.929 . S
C216 H210 0.930 . S
C216 C217 1.367 . S
C216 C224 1.378 . S
C217 C216 1.367 . S
C217 C225 1.433 . S
C218 H214 0.929 . S
C218 C220 1.378 . S
C218 C222 1.350 . S
C219 C222 1.463 . S
C219 C224 1.350 . S
C219 N227 1.427 . S
C220 H211 0.930 . S
C220 C218 1.378 . S
C220 C221 1.367 . S
C221 C220 1.367 . S
C221 C223 1.433 . S
C222 C218 1.350 . S
C222 C219 1.463 . S
C222 N226 1.427 . S
C223 H213 0.929 . S
C223 C221 1.433 . S
C223 N226 1.384 . S
C224 H215 0.929 . S
C224 C216 1.378 . S
C224 C219 1.350 . S
C225 H212 0.929 1_455 S
C225 C217 1.433 . S
C225 N227 1.384 . S
N226 C222 1.427 . S
N226 C223 1.384 . S
N227 C219 1.427 . S
N227 C225 1.384 . S
H228 C234 0.930 . S
H229 C238 0.930 . S
H230 C243 0.929 1_565 S
H231 C241 0.929 . S
H232 C236 0.929 . S
H233 C242 0.929 . S
C234 H228 0.930 . S
C234 C235 1.367 . S
C234 C242 1.378 . S
C235 C234 1.367 . S
C235 C243 1.433 . S
C236 H232 0.929 . S
C236 C238 1.378 . S
C236 C240 1.350 . S
C237 C240 1.463 . S
C237 C242 1.350 . S
C237 N245 1.427 . S
C238 H229 0.930 . S
C238 C236 1.378 . S
C238 C239 1.367 . S
C239 C238 1.367 . S
C239 C241 1.433 . S
C240 C236 1.350 . S
C240 C237 1.463 . S
C240 N244 1.427 . S
C241 H231 0.929 . S
C241 C239 1.433 . S
C241 N244 1.384 . S
C242 H233 0.929 . S
C242 C234 1.378 . S
C242 C237 1.350 . S
C243 H230 0.929 1_545 S
C243 C235 1.433 . S
C243 N245 1.384 . S
N244 C240 1.427 . S
N244 C241 1.384 . S
N245 C237 1.427 . S
N245 C243 1.384 . S
H246 C252 0.930 1_655 S
H247 C256 0.930 . S
H248 C261 0.929 . S
H249 C259 0.929 1_655 S
H250 C254 0.929 . S
H251 C260 0.929 1_655 S
C252 H246 0.930 1_455 S
C252 C253 1.367 . S
C252 C260 1.378 . S
C253 C252 1.367 . S
C253 C261 1.433 . S
C254 H250 0.929 . S
C254 C256 1.378 . S
C254 C258 1.350 . S
C255 C258 1.463 . S
C255 C260 1.350 . S
C255 N263 1.427 . S
C256 H247 0.930 . S
C256 C254 1.378 . S
C256 C257 1.367 . S
C257 C256 1.367 . S
C257 C259 1.433 . S
C258 C254 1.350 . S
C258 C255 1.463 . S
C258 N262 1.427 . S
C259 H249 0.929 1_455 S
C259 C257 1.433 . S
C259 N262 1.384 . S
C260 H251 0.929 1_455 S
C260 C252 1.378 . S
C260 C255 1.350 . S
C261 H248 0.929 . S
C261 C253 1.433 . S
C261 N263 1.384 . S
N262 C258 1.427 . S
N262 C259 1.384 . S
N263 C255 1.427 . S
N263 C261 1.384 . S
C131 C97 1.259 . S
C127 C15 1.501 . S
C149 C117 1.471 . S
C145 C68 1.497 . S
C167 C96 1.457 . S
C163 C8 1.502 . S
C185 C118 1.507 . S
C181 C47 1.505 . S
C203 C110 1.456 . S
C199 C22 1.502 . S
C221 C103 1.465 . S
C217 C61 1.496 . S
C239 C111 1.277 . S
C235 C1 1.505 . S
C253 C54 1.506 . S
C257 C104 1.506 . S
