# Generated by pormake.
# Topology rtl, (3,6)-cn, num edge types: 1
# Building blocks:
#     Node 0, Type 0, BuildingBlock: BETDIP_clean_linker_0, # of connection points: 3
#     Node 1, Type 0, BuildingBlock: BETDIP_clean_linker_0, # of connection points: 3
#     Node 2, Type 0, BuildingBlock: BETDIP_clean_linker_0, # of connection points: 3
#     Node 3, Type 0, BuildingBlock: BETDIP_clean_linker_0, # of connection points: 3
#     Node 4, Type 1, BuildingBlock: KUMJIN_clean_sbu_1, # of connection points: 6
#     Node 5, Type 1, BuildingBlock: KUMJIN_clean_sbu_1, # of connection points: 6
#     Edge 6, Type (0, 1), None
#     Edge 7, Type (0, 1), None
#     Edge 8, Type (0, 1), None
#     Edge 9, Type (0, 1), None
#     Edge 10, Type (0, 1), None
#     Edge 11, Type (0, 1), None
#     Edge 12, Type (0, 1), None
#     Edge 13, Type (0, 1), None
#     Edge 14, Type (0, 1), None
#     Edge 15, Type (0, 1), None
#     Edge 16, Type (0, 1), None
#     Edge 17, Type (0, 1), None
# Relax obj value: 0.058
# Max RMSD: 0.289
# Mean RMSD: 0.202
data_MOF--net-rtl--node1-KUMJIN_clean_sbu_1--node2-BETDIP_clean_linker_0--edge1-none
_symmetry_space_group_name_H-M    P1
_symmetry_Int_Tables_number       1
_symmetry_cell_setting            triclinic
loop_
_symmetry_equiv_pos_as_xyz
'x, y, z'
_cell_length_a     15.946043
_cell_length_b     16.802081
_cell_length_c     14.222753
_cell_angle_alpha  66.591001
_cell_angle_beta   96.226408
_cell_angle_gamma 92.750598
loop_
_atom_site_label
_atom_site_type_symbol
_atom_site_fract_x
_atom_site_fract_y
_atom_site_fract_z
_atom_type_partial_charge
H0 H 0.19544 0.79824 0.82101 0.0
H1 H 0.21504 0.74944 0.14167 0.0
H2 H 0.05478 0.95175 0.92401 0.0
H3 H 0.34073 0.69376 0.13853 0.0
C4 C 0.34074 0.67388 0.07455 0.0
C5 C 0.17924 0.81536 0.88124 0.0
C6 C 0.1255 0.88498 0.85842 0.0
C7 C 0.21572 0.76881 0.98065 0.0
C8 C 0.19176 0.78786 0.06281 0.0
C9 C 0.13219 0.85393 0.04237 0.0
C10 C 0.10123 0.90267 0.93974 0.0
N11 N 0.27627 0.70472 -0.00766 0.0
H12 H 0.70013 0.7666 0.85006 0.0
H13 H 0.76118 0.71456 0.59412 0.0
H14 H 0.58377 0.55269 0.79486 0.0
H15 H 0.87842 0.78317 0.60562 0.0
C16 C 0.86517 0.83295 0.63245 0.0
C17 C 0.69312 0.72709 0.80632 0.0
C18 C 0.63745 0.65537 0.83444 0.0
C19 C 0.7398 0.74857 0.7208 0.0
C20 C 0.72721 0.69879 0.66093 0.0
C21 C 0.67034 0.62836 0.68639 0.0
C22 C 0.6264 0.60736 0.77343 0.0
N23 N 0.79809 0.82011 0.69653 0.0
H24 H 0.81538 0.25354 0.00429 0.0
H25 H 0.8143 0.22087 0.32069 0.0
H26 H 0.98474 0.07505 0.23966 0.0
H27 H 0.75775 0.35076 0.24374 0.0
C28 C 0.71935 0.35653 0.17406 0.0
C29 C 0.83851 0.22204 0.08487 0.0
C30 C 0.90429 0.1617 0.11478 0.0
C31 C 0.80561 0.24577 0.15767 0.0
C32 C 0.8389 0.20528 0.26284 0.0
C33 C 0.90302 0.14196 0.29372 0.0
C34 C 0.93418 0.12123 0.21843 0.0
N35 N 0.73939 0.30925 0.1223 0.0
H36 H 0.34828 0.30311 0.31687 0.0
H37 H 0.27755 0.35457 0.57079 0.0
H38 H 0.47321 0.50421 0.39243 0.0
H39 H 0.21042 0.23104 0.60992 0.0
C40 C 0.19707 0.213 0.54465 0.0
C41 C 0.35681 0.33922 0.36526 0.0
C42 C 0.41874 0.40429 0.34742 0.0
C43 C 0.3055 0.31966 0.44556 0.0
C44 C 0.31755 0.36625 0.50994 0.0
C45 C 0.37939 0.43223 0.49227 0.0
C46 C 0.42867 0.45094 0.41012 0.0
N47 N 0.24166 0.25478 0.4564 0.0
Eu48 Eu 0.10509 0.97334 0.50693 0.0
C49 C 0.91161 0.28841 0.52957 0.0
N50 N 0.97838 0.2408 0.59029 0.0
C51 C 0.04742 0.36927 0.59498 0.0
C52 C 0.91201 0.37943 0.49685 0.0
C53 C 0.04314 0.2791 0.62829 0.0
C54 C 0.98217 0.41985 0.52752 0.0
C55 C 0.76665 0.29298 0.45427 0.0
C56 C 0.83938 0.24552 0.50747 0.0
C57 C 0.76893 0.38354 0.41828 0.0
C58 C 0.8411 0.42686 0.43866 0.0
Eu59 Eu 0.96203 0.09003 0.64083 0.0
N60 N 0.83927 0.15737 0.54108 0.0
C61 C 0.69361 0.24805 0.43868 0.0
C62 C 0.76833 0.11275 0.52813 0.0
C63 C 0.69445 0.15755 0.47598 0.0
H64 H 0.09084 0.24028 0.68591 0.0
H65 H 0.63815 0.12235 0.46503 0.0
H66 H 0.07081 0.75869 0.61841 0.0
H67 H 0.40882 0.14574 0.46105 0.0
H68 H 0.76852 0.04276 0.55871 0.0
H69 H 0.6363 0.28261 0.39823 0.0
H70 H 0.25847 0.12312 0.41712 0.0
H71 H 0.1 0.39952 0.62329 0.0
H72 H 0.71486 0.4205 0.37445 0.0
H73 H 0.84059 0.4969 0.41172 0.0
H74 H 0.15026 0.62579 0.73034 0.0
H75 H 0.98474 0.48967 0.50345 0.0
H76 H 0.49038 0.02811 0.60063 0.0
N77 N 0.17508 0.84318 0.61578 0.0
C78 C 0.25821 0.85038 0.64487 0.0
C79 C 0.18123 0.68848 0.70702 0.0
C80 C 0.3058 0.77619 0.70864 0.0
C81 C 0.13644 0.76364 0.64418 0.0
C82 C 0.26604 0.69485 0.74011 0.0
N83 N 0.25045 1.00104 0.5416 0.0
C84 C 0.29154 0.07423 0.48303 0.0
C85 C 0.3838 0.93972 0.63376 0.0
C86 C 0.29636 0.93167 0.60884 0.0
C87 C 0.42341 1.01942 0.5841 0.0
C88 C 0.37755 0.08612 0.5058 0.0
H89 H 0.30016 0.6367 0.78992 0.0
H90 H 0.42782 0.72987 0.79052 0.0
H91 H 0.49671 0.87233 0.72365 0.0
O92 O 0.12295 1.01758 0.34226 0.0
O93 O 0.09613 0.90647 0.68003 0.0
O94 O 0.08336 1.02198 0.72348 0.0
O95 O 0.13633 0.88363 0.43936 0.0
O96 O 0.12586 0.11754 0.48096 0.0
O97 O 0.10185 0.11741 0.63692 0.0
O98 O 0.92632 1.01583 0.79694 0.0
O99 O 0.94356 0.138 0.46519 0.0
O100 O 0.97425 1.02051 0.43011 0.0
O101 O 0.90431 0.15236 0.72563 0.0
O102 O 0.90413 0.96214 0.64437 0.0
O103 O 0.9812 0.90179 0.55614 0.0
C104 C 0.09547 0.93903 0.75003 0.0
C105 C 0.09155 0.91453 0.26702 0.0
C106 C 0.09172 0.86639 0.12539 0.0
C107 C 1.00421 0.85372 0.12734 0.0
C108 C 1.00416 0.90047 0.26714 0.0
C109 C 0.96076 0.87057 0.19721 0.0
C110 C 0.13574 0.89688 0.19626 0.0
C111 C 0.14028 0.14925 0.55267 0.0
C112 C 0.13685 0.94064 0.34626 0.0
C113 C 0.39099 0.78549 0.73957 0.0
C114 C 0.43 0.86694 0.70219 0.0
C115 C 0.94167 0.09801 0.40212 0.0
C116 C 0.95152 0.10038 0.8968 0.0
C117 C 0.94908 0.14551 0.03873 0.0
C118 C 0.03708 0.15693 0.04121 0.0
C119 C 0.03922 0.11424 0.89895 0.0
C120 C 0.90625 0.11688 0.9663 0.0
C121 C 0.0819 0.14102 0.97197 0.0
C122 C 0.91807 0.90149 0.61045 0.0
C123 C 0.90669 0.0846 0.81052 0.0
H124 H 0.96954 0.83083 0.0739 0.0
H125 H 0.96967 0.91176 0.32221 0.0
H126 H 0.89324 0.86007 0.19729 0.0
H127 H 0.20329 0.90752 0.19577 0.0
H128 H 0.07083 0.17963 0.09591 0.0
H129 H 0.07453 0.10601 0.84271 0.0
H130 H 0.83826 0.10881 0.96301 0.0
H131 H 0.1495 0.15123 0.97351 0.0
Eu132 Eu 0.46136 0.46958 0.01044 0.0
C133 C 0.74652 0.71723 0.05776 0.0
N134 N 0.73797 0.63152 0.11787 0.0
C135 C 0.88146 0.60549 0.10402 0.0
C136 C 0.82306 0.74968 0.01537 0.0
C137 C 0.8042 0.57596 0.1437 0.0
C138 C 0.89062 0.69242 0.03846 0.0
C139 C 0.68391 0.86023 0.96915 0.0
C140 C 0.67648 0.77129 0.03254 0.0
C141 C 0.76045 0.89282 0.92777 0.0
C142 C 0.82915 0.83737 0.94926 0.0
Eu143 Eu 0.60406 0.58693 0.17482 0.0
N144 N 0.60126 0.73706 0.06831 0.0
C145 C 0.61382 0.9137 0.9479 0.0
C146 C 0.53494 0.79044 0.05405 0.0
C147 C 0.53947 0.87887 -0.00805 0.0
H148 H 0.79705 0.50886 0.1944 0.0
H149 H 0.48601 0.92041 0.97956 0.0
H150 H 0.2654 0.54523 -0.01341 0.0
H151 H 0.57202 0.13245 0.17555 0.0
H152 H 0.47945 0.76664 0.09331 0.0
H153 H 0.61703 0.98224 0.89955 0.0
H154 H 0.58081 0.28845 0.07412 0.0
H155 H 0.93369 0.56113 0.12341 0.0
H156 H 0.76654 0.96052 0.87753 0.0
H157 H 0.88689 0.8626 0.91425 0.0
H158 H 0.12558 0.48965 0.04312 0.0
H159 H 0.95022 0.71475 0.00647 0.0
H160 H 0.43907 0.06775 0.24815 0.0
N161 N 0.32476 0.42221 0.05939 0.0
C162 C 0.31445 0.3354 0.11188 0.0
C163 C 0.17828 0.44569 0.06373 0.0
C164 C 0.23522 0.30072 0.14438 0.0
C165 C 0.25786 0.4772 0.03297 0.0
C166 C 0.16699 0.35712 0.12032 0.0
N167 N 0.46012 0.31658 0.10429 0.0
C168 C 0.52525 0.26338 0.11284 0.0
C169 C 0.37442 0.19092 0.1891 0.0
C170 C 0.38404 0.28139 0.13576 0.0
C171 C 0.44392 0.13741 0.20714 0.0
C172 C 0.51925 0.17373 0.16718 0.0
H173 H 0.10521 0.33283 0.14405 0.0
H174 H 0.16689 0.18377 0.22802 0.0
H175 H 0.2873 0.0871 0.26204 0.0
O176 O 0.49033 0.4269 0.89026 0.0
O177 O 0.42248 0.44337 0.16813 0.0
O178 O 0.54538 0.45544 0.26312 0.0
O179 O 0.36827 0.47936 0.8823 0.0
O180 O 0.60312 0.4324 0.05499 0.0
O181 O 0.63753 0.44902 0.20857 0.0
O182 O 0.57897 0.64115 0.28562 0.0
O183 O 0.64142 0.60176 0.0185 0.0
O184 O 0.51449 0.60421 0.92689 0.0
O185 O 0.69787 0.57919 0.30139 0.0
O186 O 0.46415 0.61064 0.15178 0.0
O187 O 0.41236 0.601 -0.0025 0.0
C188 C 0.46583 0.43168 0.25609 0.0
C189 C 0.4143 0.49185 0.72554 0.0
C190 C 0.39227 0.4839 0.55689 0.0
C191 C 0.40354 0.57449 0.51059 0.0
C192 C 0.42537 0.58183 0.67788 0.0
C193 C 0.42006 0.62288 0.57086 0.0
C194 C 0.39746 0.44308 0.66496 0.0
C195 C 0.65109 0.41468 0.14321 0.0
C196 C 0.41683 0.44809 0.83805 0.0
C197 C 0.22661 0.21122 0.20016 0.0
C198 C 0.29555 0.15635 0.22086 0.0
C199 C 0.59469 0.62524 0.93044 0.0
C200 C 0.64449 0.56933 0.45361 0.0
C201 C 0.65655 0.57665 0.62214 0.0
C202 C 0.64133 0.4866 0.66723 0.0
C203 C 0.6269 0.48028 0.49957 0.0
C204 C 0.65756 0.61733 0.51469 0.0
C205 C 0.62566 0.43915 0.60593 0.0
C206 C 0.40631 0.62666 0.07368 0.0
C207 C 0.64967 0.61395 0.3424 0.0
H208 H 0.39932 0.60809 0.42761 0.0
H209 H 0.4382 0.62014 0.72352 0.0
H210 H 0.42874 0.69242 0.53451 0.0
H211 H 0.38967 0.37334 0.70202 0.0
H212 H 0.64177 0.4525 0.74981 0.0
H213 H 0.61268 0.44265 0.45351 0.0
H214 H 0.66752 0.68673 0.47774 0.0
H215 H 0.61254 0.3703 0.64095 0.0
loop_
_geom_bond_atom_site_label_1
_geom_bond_atom_site_label_2
_geom_bond_distance
_geom_bond_site_symmetry_2
_ccdc_geom_bond_type
H0 C5 0.930 . S
H1 C8 0.930 . S
H2 C10 0.930 1_545 S
H3 C4 1.016 . S
C4 H3 1.016 . S
C4 N11 1.286 . S
C5 H0 0.930 . S
C5 C6 1.397 . S
C5 C7 1.361 1_556 S
C6 C5 1.397 . S
C6 C10 1.390 . S
C7 C5 1.361 1_554 S
C7 C8 1.393 . S
C7 N11 1.413 . S
C8 H1 0.930 . S
C8 C7 1.393 . S
C8 C9 1.399 . S
C9 C8 1.399 . S
C9 C10 1.381 1_554 S
C10 H2 0.930 1_565 S
C10 C6 1.390 . S
C10 C9 1.381 1_556 S
N11 C4 1.286 . S
N11 C7 1.413 . S
H12 C17 0.930 . S
H13 C20 0.930 . S
H14 C22 0.930 . S
H15 C16 1.016 . S
C16 H15 1.016 . S
C16 N23 1.286 . S
C17 H12 0.930 . S
C17 C18 1.397 . S
C17 C19 1.361 . S
C18 C17 1.397 . S
C18 C22 1.390 . S
C19 C17 1.361 . S
C19 C20 1.393 . S
C19 N23 1.413 . S
C20 H13 0.930 . S
C20 C19 1.393 . S
C20 C21 1.399 . S
C21 C20 1.399 . S
C21 C22 1.381 . S
C22 H14 0.930 . S
C22 C18 1.390 . S
C22 C21 1.381 . S
N23 C16 1.286 . S
N23 C19 1.413 . S
H24 C29 0.930 . S
H25 C32 0.930 . S
H26 C34 0.930 . S
H27 C28 1.016 . S
C28 H27 1.016 . S
C28 N35 1.286 . S
C29 H24 0.930 . S
C29 C30 1.397 . S
C29 C31 1.361 . S
C30 C29 1.397 . S
C30 C34 1.390 . S
C31 C29 1.361 . S
C31 C32 1.393 . S
C31 N35 1.413 . S
C32 H25 0.930 . S
C32 C31 1.393 . S
C32 C33 1.399 . S
C33 C32 1.399 . S
C33 C34 1.381 . S
C34 H26 0.930 . S
C34 C30 1.390 . S
C34 C33 1.381 . S
N35 C28 1.286 . S
N35 C31 1.413 . S
H36 C41 0.930 . S
H37 C44 0.930 . S
H38 C46 0.930 . S
H39 C40 1.016 . S
C40 H39 1.016 . S
C40 N47 1.286 . S
C41 H36 0.930 . S
C41 C42 1.397 . S
C41 C43 1.361 . S
C42 C41 1.397 . S
C42 C46 1.390 . S
C43 C41 1.361 . S
C43 C44 1.393 . S
C43 N47 1.413 . S
C44 H37 0.930 . S
C44 C43 1.393 . S
C44 C45 1.399 . S
C45 C44 1.399 . S
C45 C46 1.381 . S
C46 H38 0.930 . S
C46 C42 1.390 . S
C46 C45 1.381 . S
N47 C40 1.286 . S
N47 C43 1.413 . S
Eu48 N77 2.600 . S
Eu48 N83 2.562 . S
Eu48 O92 2.462 . S
Eu48 O93 2.373 . S
Eu48 O95 2.432 . S
Eu48 O96 2.291 1_565 S
Eu48 O100 2.335 1_465 S
Eu48 O103 2.372 1_455 S
Eu48 C112 2.787 . S
C49 N50 1.365 . S
C49 C52 1.405 . S
C49 C56 1.448 . S
N50 C49 1.365 . S
N50 C53 1.319 1_655 S
N50 Eu59 2.600 . S
C51 C53 1.397 . S
C51 C54 1.367 1_455 S
C51 H71 0.931 . S
C52 C49 1.405 . S
C52 C54 1.403 . S
C52 C58 1.439 . S
C53 N50 1.319 1_455 S
C53 C51 1.397 . S
C53 H64 0.930 . S
C54 C51 1.367 1_655 S
C54 C52 1.403 . S
C54 H75 0.929 . S
C55 C56 1.430 . S
C55 C57 1.387 . S
C55 C61 1.404 . S
C56 C49 1.448 . S
C56 C55 1.430 . S
C56 N60 1.351 . S
C57 C55 1.387 . S
C57 C58 1.374 . S
C57 H72 0.931 . S
C58 C52 1.439 . S
C58 C57 1.374 . S
C58 H73 0.931 . S
Eu59 N50 2.600 . S
Eu59 N60 2.562 . S
Eu59 O94 2.335 1_655 S
Eu59 O97 2.372 1_655 S
Eu59 O98 2.462 . S
Eu59 O99 2.373 . S
Eu59 O101 2.432 . S
Eu59 O102 2.291 1_545 S
Eu59 C123 2.787 . S
N60 C56 1.351 . S
N60 Eu59 2.562 . S
N60 C62 1.325 . S
C61 C55 1.404 . S
C61 C63 1.366 . S
C61 H69 0.930 . S
C62 N60 1.325 . S
C62 C63 1.416 . S
C62 H68 0.929 . S
C63 C61 1.366 . S
C63 C62 1.416 . S
C63 H65 0.930 . S
H64 C53 0.930 . S
H65 C63 0.930 . S
H66 C81 0.930 1_655 S
H67 C88 0.930 . S
H68 C62 0.929 . S
H69 C61 0.930 . S
H70 C84 0.929 . S
H71 C51 0.931 . S
H72 C57 0.931 . S
H73 C58 0.931 . S
H74 C79 0.931 1_655 S
H75 C54 0.929 . S
H76 C87 0.930 . S
N77 Eu48 2.600 . S
N77 C78 1.365 . S
N77 C81 1.319 . S
C78 N77 1.365 . S
C78 C80 1.405 . S
C78 C86 1.448 . S
C79 H74 0.931 1_455 S
C79 C81 1.397 . S
C79 C82 1.367 . S
C80 C78 1.405 . S
C80 C82 1.403 . S
C80 C113 1.439 . S
C81 H66 0.930 1_455 S
C81 N77 1.319 . S
C81 C79 1.397 . S
C82 C79 1.367 . S
C82 C80 1.403 . S
C82 H89 0.929 . S
N83 Eu48 2.562 . S
N83 C84 1.325 . S
N83 C86 1.351 . S
C84 H70 0.929 . S
C84 N83 1.325 . S
C84 C88 1.416 . S
C85 C86 1.430 . S
C85 C87 1.404 . S
C85 C114 1.387 . S
C86 C78 1.448 . S
C86 N83 1.351 . S
C86 C85 1.430 . S
C87 H76 0.930 . S
C87 C85 1.404 . S
C87 C88 1.366 . S
C88 H67 0.930 . S
C88 C84 1.416 . S
C88 C87 1.366 . S
H89 C82 0.929 . S
H90 C113 0.931 . S
H91 C114 0.931 . S
O92 Eu48 2.462 . S
O92 C112 1.252 . S
O93 Eu48 2.373 . S
O93 C104 1.249 . S
O94 Eu59 2.335 1_455 S
O94 C104 1.264 1_545 S
O95 Eu48 2.432 . S
O95 C112 1.268 . S
O96 Eu48 2.291 1_545 S
O96 C111 1.255 . S
O97 Eu59 2.372 1_455 S
O97 C111 1.257 . S
O98 Eu59 2.462 . S
O98 C123 1.252 . S
O99 Eu59 2.373 . S
O99 C115 1.249 . S
O100 Eu48 2.335 1_645 S
O100 C115 1.264 . S
O101 Eu59 2.432 . S
O101 C123 1.268 . S
O102 Eu59 2.291 1_565 S
O102 C122 1.255 . S
O103 Eu48 2.372 1_655 S
O103 C122 1.257 . S
C104 O93 1.249 . S
C104 O94 1.264 1_565 S
C105 C108 1.382 . S
C105 C110 1.390 . S
C105 C112 1.506 . S
C106 C107 1.398 . S
C106 C110 1.392 . S
C107 C106 1.398 . S
C107 C109 1.372 . S
C107 H124 0.931 . S
C108 C105 1.382 . S
C108 C109 1.390 . S
C108 H125 0.931 . S
C109 C107 1.372 . S
C109 C108 1.390 . S
C109 H126 0.929 . S
C110 C105 1.390 . S
C110 C106 1.392 . S
C110 H127 0.930 . S
C111 O96 1.255 . S
C111 O97 1.257 . S
C112 Eu48 2.787 . S
C112 O92 1.252 . S
C112 O95 1.268 . S
C112 C105 1.506 . S
C113 C80 1.439 . S
C113 H90 0.931 . S
C113 C114 1.374 . S
C114 C85 1.387 . S
C114 H91 0.931 . S
C114 C113 1.374 . S
C115 O99 1.249 . S
C115 O100 1.264 . S
C116 C119 1.382 . S
C116 C120 1.390 . S
C116 C123 1.506 . S
C117 C118 1.398 . S
C117 C120 1.392 1_554 S
C118 C117 1.398 . S
C118 C121 1.372 . S
C118 H128 0.931 . S
C119 C116 1.382 . S
C119 C121 1.390 1_556 S
C119 H129 0.931 . S
C120 C116 1.390 . S
C120 C117 1.392 1_556 S
C120 H130 0.930 . S
C121 C118 1.372 . S
C121 C119 1.390 1_554 S
C121 H131 0.929 . S
C122 O102 1.255 . S
C122 O103 1.257 . S
C123 Eu59 2.787 . S
C123 O98 1.252 . S
C123 O101 1.268 . S
C123 C116 1.506 . S
H124 C107 0.931 . S
H125 C108 0.931 . S
H126 C109 0.929 . S
H127 C110 0.930 . S
H128 C118 0.931 . S
H129 C119 0.931 . S
H130 C120 0.930 . S
H131 C121 0.929 . S
Eu132 N161 2.600 1_554 S
Eu132 N167 2.562 . S
Eu132 O176 2.462 1_554 S
Eu132 O177 2.373 . S
Eu132 O179 2.432 1_554 S
Eu132 O180 2.291 . S
Eu132 O184 2.335 1_554 S
Eu132 O187 2.372 1_554 S
Eu132 C196 2.787 1_554 S
C133 N134 1.365 . S
C133 C136 1.405 . S
C133 C140 1.448 . S
N134 C133 1.365 . S
N134 C137 1.319 . S
N134 Eu143 2.600 . S
C135 C137 1.397 . S
C135 C138 1.367 . S
C135 H155 0.931 . S
C136 C133 1.405 . S
C136 C138 1.403 . S
C136 C142 1.439 . S
C137 N134 1.319 . S
C137 C135 1.397 . S
C137 H148 0.930 . S
C138 C135 1.367 . S
C138 C136 1.403 . S
C138 H159 0.929 . S
C139 C140 1.430 . S
C139 C141 1.387 . S
C139 C145 1.404 . S
C140 C133 1.448 . S
C140 C139 1.430 . S
C140 N144 1.351 . S
C141 C139 1.387 . S
C141 C142 1.374 . S
C141 H156 0.931 . S
C142 C136 1.439 . S
C142 C141 1.374 . S
C142 H157 0.931 . S
Eu143 N134 2.600 . S
Eu143 N144 2.562 . S
Eu143 O178 2.335 . S
Eu143 O181 2.372 . S
Eu143 O182 2.462 . S
Eu143 O183 2.373 . S
Eu143 O185 2.432 . S
Eu143 O186 2.291 . S
Eu143 C207 2.787 . S
N144 C140 1.351 . S
N144 Eu143 2.562 . S
N144 C146 1.325 . S
C145 C139 1.404 . S
C145 C147 1.366 . S
C145 H153 0.930 . S
C146 N144 1.325 . S
C146 C147 1.416 . S
C146 H152 0.929 . S
C147 C145 1.366 . S
C147 C146 1.416 . S
C147 H149 0.930 . S
H148 C137 0.930 . S
H149 C147 0.930 . S
H150 C165 0.930 . S
H151 C172 0.930 . S
H152 C146 0.929 . S
H153 C145 0.930 . S
H154 C168 0.929 . S
H155 C135 0.931 . S
H156 C141 0.931 . S
H157 C142 0.931 . S
H158 C163 0.931 . S
H159 C138 0.929 . S
H160 C171 0.930 . S
N161 Eu132 2.600 1_556 S
N161 C162 1.365 1_556 S
N161 C165 1.319 . S
C162 N161 1.365 1_554 S
C162 C164 1.405 . S
C162 C170 1.448 . S
C163 H158 0.931 . S
C163 C165 1.397 . S
C163 C166 1.367 1_556 S
C164 C162 1.405 . S
C164 C166 1.403 . S
C164 C197 1.439 . S
C165 H150 0.930 . S
C165 N161 1.319 . S
C165 C163 1.397 . S
C166 C163 1.367 1_554 S
C166 C164 1.403 . S
C166 H173 0.929 . S
N167 Eu132 2.562 . S
N167 C168 1.325 . S
N167 C170 1.351 . S
C168 H154 0.929 . S
C168 N167 1.325 . S
C168 C172 1.416 . S
C169 C170 1.430 . S
C169 C171 1.404 . S
C169 C198 1.387 . S
C170 C162 1.448 . S
C170 N167 1.351 . S
C170 C169 1.430 . S
C171 H160 0.930 . S
C171 C169 1.404 . S
C171 C172 1.366 . S
C172 H151 0.930 . S
C172 C168 1.416 . S
C172 C171 1.366 . S
H173 C166 0.929 . S
H174 C197 0.931 . S
H175 C198 0.931 . S
O176 Eu132 2.462 1_556 S
O176 C196 1.252 . S
O177 Eu132 2.373 . S
O177 C188 1.249 . S
O178 Eu143 2.335 . S
O178 C188 1.264 . S
O179 Eu132 2.432 1_556 S
O179 C196 1.268 . S
O180 Eu132 2.291 . S
O180 C195 1.255 . S
O181 Eu143 2.372 . S
O181 C195 1.257 . S
O182 Eu143 2.462 . S
O182 C207 1.252 . S
O183 Eu143 2.373 . S
O183 C199 1.249 1_554 S
O184 Eu132 2.335 1_556 S
O184 C199 1.264 . S
O185 Eu143 2.432 . S
O185 C207 1.268 . S
O186 Eu143 2.291 . S
O186 C206 1.255 . S
O187 Eu132 2.372 1_556 S
O187 C206 1.257 1_556 S
C188 O177 1.249 . S
C188 O178 1.264 . S
C189 C192 1.382 . S
C189 C194 1.390 . S
C189 C196 1.506 . S
C190 C191 1.398 . S
C190 C194 1.392 . S
C191 C190 1.398 . S
C191 C193 1.372 . S
C191 H208 0.931 . S
C192 C189 1.382 . S
C192 C193 1.390 . S
C192 H209 0.931 . S
C193 C191 1.372 . S
C193 C192 1.390 . S
C193 H210 0.929 . S
C194 C189 1.390 . S
C194 C190 1.392 . S
C194 H211 0.930 . S
C195 O180 1.255 . S
C195 O181 1.257 . S
C196 Eu132 2.787 1_556 S
C196 O176 1.252 . S
C196 O179 1.268 . S
C196 C189 1.506 . S
C197 C164 1.439 . S
C197 H174 0.931 . S
C197 C198 1.374 . S
C198 C169 1.387 . S
C198 H175 0.931 . S
C198 C197 1.374 . S
C199 O183 1.249 1_556 S
C199 O184 1.264 . S
C200 C203 1.382 . S
C200 C204 1.390 . S
C200 C207 1.506 . S
C201 C202 1.398 . S
C201 C204 1.392 . S
C202 C201 1.398 . S
C202 C205 1.372 . S
C202 H212 0.931 . S
C203 C200 1.382 . S
C203 C205 1.390 . S
C203 H213 0.931 . S
C204 C200 1.390 . S
C204 C201 1.392 . S
C204 H214 0.930 . S
C205 C202 1.372 . S
C205 C203 1.390 . S
C205 H215 0.929 . S
C206 O186 1.255 . S
C206 O187 1.257 1_554 S
C207 Eu143 2.787 . S
C207 O182 1.252 . S
C207 O185 1.268 . S
C207 C200 1.506 . S
H208 C191 0.931 . S
H209 C192 0.931 . S
H210 C193 0.929 . S
H211 C194 0.930 . S
H212 C202 0.931 . S
H213 C203 0.931 . S
H214 C204 0.930 . S
H215 C205 0.929 . S
C111 C40 1.714 . S
C4 C206 1.879 . S
C16 C122 1.721 . S
C28 C195 1.668 . S
C106 C9 1.347 . S
C199 C18 1.848 . S
C33 C115 1.829 . S
C45 C190 1.460 . S
C201 C21 1.445 . S
C117 C30 1.257 . S
C188 C42 1.710 . S
C6 C104 1.751 . S
