# Generated by pormake.
# Topology rtl, (3,6)-cn, num edge types: 1
# Building blocks:
#     Node 0, Type 0, BuildingBlock: ESEHIV_clean_linker_0, # of connection points: 3
#     Node 1, Type 0, BuildingBlock: ESEHIV_clean_linker_0, # of connection points: 3
#     Node 2, Type 0, BuildingBlock: ESEHIV_clean_linker_0, # of connection points: 3
#     Node 3, Type 0, BuildingBlock: ESEHIV_clean_linker_0, # of connection points: 3
#     Node 4, Type 1, BuildingBlock: LEVNOQ01_clean_sbu_1, # of connection points: 6
#     Node 5, Type 1, BuildingBlock: LEVNOQ01_clean_sbu_1, # of connection points: 6
#     Edge 6, Type (0, 1), None
#     Edge 7, Type (0, 1), None
#     Edge 8, Type (0, 1), None
#     Edge 9, Type (0, 1), None
#     Edge 10, Type (0, 1), None
#     Edge 11, Type (0, 1), None
#     Edge 12, Type (0, 1), None
#     Edge 13, Type (0, 1), None
#     Edge 14, Type (0, 1), None
#     Edge 15, Type (0, 1), None
#     Edge 16, Type (0, 1), None
#     Edge 17, Type (0, 1), None
# Relax obj value: 0.027
# Max RMSD: 0.058
# Mean RMSD: 0.042
data_MOF--net-rtl--node1-LEVNOQ01_clean_sbu_1--node2-ESEHIV_clean_linker_0--edge1-none
_symmetry_space_group_name_H-M    P1
_symmetry_Int_Tables_number       1
_symmetry_cell_setting            triclinic
loop_
_symmetry_equiv_pos_as_xyz
'x, y, z'
_cell_length_a     12.730748
_cell_length_b     12.51872
_cell_length_c     9.494171
_cell_angle_alpha  89.997046
_cell_angle_beta   99.092061
_cell_angle_gamma 89.997914
loop_
_atom_site_label
_atom_site_type_symbol
_atom_site_fract_x
_atom_site_fract_y
_atom_site_fract_z
_atom_type_partial_charge
H0 H 0.09211 0.07832 0.12818 0.0
H1 H 0.33687 0.84876 0.28374 0.0
H2 H 0.28375 0.94432 0.84276 0.0
C3 C 0.15973 0.02982 0.11196 0.0
C4 C 0.1816 1.01732 0.97329 0.0
C5 C 0.21438 0.969 0.22543 0.0
C6 C 0.29699 0.89946 0.19931 0.0
C7 C 0.32529 0.89376 0.06193 0.0
C8 C 0.26689 0.95315 0.95066 0.0
H9 H 0.59213 0.49502 0.62819 0.0
H10 H 0.78377 0.62903 0.34275 0.0
H11 H 0.83684 0.7246 0.78372 0.0
C12 C 0.65974 0.54353 0.61194 0.0
C13 C 0.71438 0.60435 0.72541 0.0
C14 C 0.68162 0.55602 0.47328 0.0
C15 C 0.76691 0.62019 0.45065 0.0
C16 C 0.8253 0.67958 0.56192 0.0
C17 C 0.79698 0.67389 0.69929 0.0
H18 H 0.84963 0.99518 0.95301 0.0
H19 H 0.65783 0.12914 0.23829 0.0
H20 H 0.60466 0.22445 0.79722 0.0
C21 C 0.78198 0.04364 0.96921 0.0
C22 C 0.72727 0.10436 0.85567 0.0
C23 C 0.76007 0.05616 0.10786 0.0
C24 C 0.67472 0.12027 0.13041 0.0
C25 C 0.61625 0.17954 0.01906 0.0
C26 C 0.64459 0.17382 0.8817 0.0
H27 H 0.34962 0.57819 0.45303 0.0
H28 H 0.15782 0.44421 0.73831 0.0
H29 H 0.10469 0.34891 0.29725 0.0
C30 C 0.28197 0.52972 0.46923 0.0
C31 C 0.22728 0.469 0.3557 0.0
C32 C 0.26006 0.51719 0.60788 0.0
C33 C 0.17471 0.45308 0.63043 0.0
C34 C 0.11626 0.39381 0.51908 0.0
C35 C 0.1446 0.39953 0.38173 0.0
O36 O 0.77658 0.20106 0.66356 0.0
Mg37 Mg 0.94467 0.19819 0.67877 0.0
O38 O 0.84558 0.04352 0.70275 0.0
Mg39 Mg -0.02917 0.0367 0.54057 0.0
O40 O 0.02684 0.2215 0.51286 0.0
O41 O -0.01208 0.34946 0.66312 0.0
O42 O 0.09612 0.02986 0.37839 0.0
O43 O 0.83743 0.05985 0.3527 0.0
Mg44 Mg -0.00303 0.87535 0.40248 0.0
O45 O 0.91488 0.85187 0.56844 0.0
O46 O 0.16503 0.87227 0.41756 0.0
O47 O 0.90129 0.94277 0.21556 0.0
O48 O 0.95341 0.72415 0.41759 0.0
C49 C 0.10711 0.05805 0.84971 0.0
C50 C 0.77489 0.11156 0.72337 0.0
C51 C 0.03492 0.32009 0.55893 0.0
C52 C 0.16676 0.96177 0.35774 0.0
C53 C 0.83456 1.01547 0.23147 0.0
C54 C 0.90653 0.75339 0.52195 0.0
O55 O 0.04044 0.1308 0.86563 0.0
O56 O 0.10418 1.01361 0.72849 0.0
O57 O 0.54047 0.44254 0.36563 0.0
Mg58 Mg 0.44469 0.37517 0.17878 0.0
O59 O 0.6042 0.55973 0.22847 0.0
Mg60 Mg 0.47083 0.53665 0.04058 0.0
O61 O 0.52684 0.35186 0.01286 0.0
O62 O 0.48792 0.22389 0.16312 0.0
O63 O 0.33741 0.51351 0.85273 0.0
O64 O 0.59611 0.54349 0.87837 0.0
Mg65 Mg 0.49695 0.69801 0.90247 0.0
O66 O 0.41488 0.72148 0.06845 0.0
O67 O 0.40127 0.63059 0.71557 0.0
O68 O 0.66502 0.70107 0.91754 0.0
O69 O 0.4534 0.84921 0.9176 0.0
C70 C 0.27491 0.4618 0.2234 0.0
C71 C 0.60714 0.51529 0.3497 0.0
C72 C 0.53492 0.25326 0.05892 0.0
C73 C 0.33454 0.5579 0.73149 0.0
C74 C 0.66675 0.61158 0.85771 0.0
C75 C 0.40653 0.81996 0.02196 0.0
O76 O 0.2766 0.37231 0.16359 0.0
O77 O 0.3456 0.52984 0.20278 0.0
loop_
_geom_bond_atom_site_label_1
_geom_bond_atom_site_label_2
_geom_bond_distance
_geom_bond_site_symmetry_2
_ccdc_geom_bond_type
H0 C3 0.931 1_545 S
H1 C6 0.928 . S
H2 C8 0.930 . S
C3 H0 0.931 1_565 S
C3 C4 1.413 1_554 S
C3 C5 1.360 . S
C4 C3 1.413 1_556 S
C4 C8 1.429 . S
C5 C3 1.360 . S
C5 C6 1.372 . S
C6 H1 0.928 . S
C6 C5 1.372 . S
C6 C7 1.404 . S
C7 C6 1.404 . S
C7 C8 1.391 1_554 S
C8 H2 0.930 . S
C8 C4 1.429 . S
C8 C7 1.391 1_556 S
H9 C12 0.931 . S
H10 C15 0.928 . S
H11 C17 0.930 . S
C12 H9 0.931 . S
C12 C13 1.413 . S
C12 C14 1.360 . S
C13 C12 1.413 . S
C13 C17 1.429 . S
C14 C12 1.360 . S
C14 C15 1.372 . S
C15 H10 0.928 . S
C15 C14 1.372 . S
C15 C16 1.404 . S
C16 C15 1.404 . S
C16 C17 1.391 . S
C17 H11 0.930 . S
C17 C13 1.429 . S
C17 C16 1.391 . S
H18 C21 0.931 . S
H19 C24 0.928 . S
H20 C26 0.930 . S
C21 H18 0.931 . S
C21 C22 1.413 1_554 S
C21 C23 1.360 . S
C22 C21 1.413 1_556 S
C22 C26 1.429 . S
C23 C21 1.360 . S
C23 C24 1.372 . S
C24 H19 0.928 . S
C24 C23 1.372 . S
C24 C25 1.404 1_554 S
C25 C24 1.404 1_556 S
C25 C26 1.391 . S
C26 H20 0.930 . S
C26 C22 1.429 . S
C26 C25 1.391 . S
H27 C30 0.931 . S
H28 C33 0.928 . S
H29 C35 0.930 . S
C30 H27 0.931 . S
C30 C31 1.413 . S
C30 C32 1.360 . S
C31 C30 1.413 . S
C31 C35 1.429 . S
C32 C30 1.360 . S
C32 C33 1.372 . S
C33 H28 0.928 . S
C33 C32 1.372 . S
C33 C34 1.404 . S
C34 C33 1.404 . S
C34 C35 1.391 . S
C35 H29 0.930 . S
C35 C31 1.429 . S
C35 C34 1.391 . S
O36 Mg37 1.990 1_655 S
O36 C50 1.253 . S
Mg37 O36 1.990 1_455 S
Mg37 O40 2.180 . S
Mg37 O41 2.117 . S
Mg37 O55 2.030 . S
O38 Mg39 2.072 1_645 S
O38 C50 1.260 . S
Mg39 O38 2.072 1_465 S
Mg39 O40 2.099 1_565 S
Mg39 O42 2.079 . S
Mg39 O43 2.072 1_465 S
Mg39 O45 2.099 1_455 S
Mg39 O56 2.079 . S
O40 Mg37 2.180 . S
O40 Mg39 2.099 1_545 S
O40 C51 1.279 . S
O41 Mg37 2.117 . S
O41 C51 1.250 . S
O42 Mg39 2.079 . S
O42 C52 1.264 . S
O43 Mg39 2.072 1_645 S
O43 C53 1.260 . S
Mg44 O45 2.180 . S
Mg44 O46 2.030 1_655 S
Mg44 O47 1.990 . S
Mg44 O48 2.117 . S
O45 Mg39 2.099 1_655 S
O45 Mg44 2.180 . S
O45 C54 1.279 . S
O46 Mg44 2.030 1_455 S
O46 C52 1.248 . S
O47 Mg44 1.990 . S
O47 C53 1.253 1_565 S
O48 Mg44 2.117 . S
O48 C54 1.250 . S
C49 O55 1.248 1_565 S
C49 O56 1.264 . S
C50 O36 1.253 . S
C50 O38 1.260 . S
C51 O40 1.279 . S
C51 O41 1.250 . S
C52 O42 1.264 . S
C52 O46 1.248 . S
C53 O43 1.260 . S
C53 O47 1.253 1_545 S
C54 O45 1.279 . S
C54 O48 1.250 . S
O55 Mg37 2.030 . S
O55 C49 1.248 1_545 S
O56 Mg39 2.079 . S
O56 C49 1.264 . S
O57 Mg58 1.990 . S
O57 C71 1.253 . S
Mg58 O57 1.990 . S
Mg58 O61 2.180 . S
Mg58 O62 2.117 . S
Mg58 O76 2.030 . S
O59 Mg60 2.072 . S
O59 C71 1.260 . S
Mg60 O59 2.072 . S
Mg60 O61 2.099 . S
Mg60 O63 2.079 1_554 S
Mg60 O64 2.072 1_554 S
Mg60 O66 2.099 1_554 S
Mg60 O77 2.079 . S
O61 Mg58 2.180 . S
O61 Mg60 2.099 . S
O61 C72 1.279 . S
O62 Mg58 2.117 . S
O62 C72 1.250 . S
O63 Mg60 2.079 1_556 S
O63 C73 1.264 . S
O64 Mg60 2.072 1_556 S
O64 C74 1.260 . S
Mg65 O66 2.180 . S
Mg65 O67 2.030 . S
Mg65 O68 1.990 . S
Mg65 O69 2.117 . S
O66 Mg60 2.099 1_556 S
O66 Mg65 2.180 . S
O66 C75 1.279 1_556 S
O67 Mg65 2.030 . S
O67 C73 1.248 . S
O68 Mg65 1.990 . S
O68 C74 1.253 . S
O69 Mg65 2.117 . S
O69 C75 1.250 1_556 S
C70 O76 1.248 . S
C70 O77 1.264 . S
C71 O57 1.253 . S
C71 O59 1.260 . S
C72 O61 1.279 . S
C72 O62 1.250 . S
C73 O63 1.264 . S
C73 O67 1.248 . S
C74 O64 1.260 . S
C74 O68 1.253 . S
C75 O66 1.279 1_554 S
C75 O69 1.250 1_554 S
O76 Mg58 2.030 . S
O76 C70 1.248 . S
O77 Mg60 2.079 . S
O77 C70 1.264 . S
C51 C34 1.266 . S
C7 C75 1.294 . S
C16 C54 1.409 . S
C25 C72 1.408 1_556 S
C52 C5 1.544 . S
C74 C13 1.533 . S
C23 C53 1.483 . S
C32 C73 1.377 . S
C71 C14 1.480 . S
C50 C22 1.531 . S
C70 C31 1.524 . S
C4 C49 1.384 . S
