# Generated by pormake.
# Topology tsx, (6,3)-cn, num edge types: 1
# Building blocks:
#     Node 0, Type 0, BuildingBlock: LEVNOQ01_clean_sbu_1, # of connection points: 6
#     Node 1, Type 0, BuildingBlock: LEVNOQ01_clean_sbu_1, # of connection points: 6
#     Node 2, Type 1, BuildingBlock: ESEHIV_clean_linker_0, # of connection points: 3
#     Node 3, Type 1, BuildingBlock: ESEHIV_clean_linker_0, # of connection points: 3
#     Node 4, Type 1, BuildingBlock: ESEHIV_clean_linker_0, # of connection points: 3
#     Node 5, Type 1, BuildingBlock: ESEHIV_clean_linker_0, # of connection points: 3
#     Edge 6, Type (0, 1), None
#     Edge 7, Type (0, 1), None
#     Edge 8, Type (0, 1), None
#     Edge 9, Type (0, 1), None
#     Edge 10, Type (0, 1), None
#     Edge 11, Type (0, 1), None
#     Edge 12, Type (0, 1), None
#     Edge 13, Type (0, 1), None
#     Edge 14, Type (0, 1), None
#     Edge 15, Type (0, 1), None
#     Edge 16, Type (0, 1), None
#     Edge 17, Type (0, 1), None
# Relax obj value: 0.132
# Max RMSD: 0.157
# Mean RMSD: 0.117
data_MOF--net-tsx--node1-LEVNOQ01_clean_sbu_1--node2-ESEHIV_clean_linker_0--edge1-none
_symmetry_space_group_name_H-M    P1
_symmetry_Int_Tables_number       1
_symmetry_cell_setting            triclinic
loop_
_symmetry_equiv_pos_as_xyz
'x, y, z'
_cell_length_a     6.6920537
_cell_length_b     8.3081517
_cell_length_c     17.313481
_cell_angle_alpha  91.443433
_cell_angle_beta   87.419519
_cell_angle_gamma 86.630481
loop_
_atom_site_label
_atom_site_type_symbol
_atom_site_fract_x
_atom_site_fract_y
_atom_site_fract_z
_atom_type_partial_charge
O0 O 0.22728 0.94914 0.07405 0.0
Mg1 Mg 0.3065 0.05693 -0.03461 0.0
O2 O 0.98025 0.12005 0.05917 0.0
Mg3 Mg 0.12523 0.09406 -0.06503 0.0
O4 O 0.30979 0.31679 -0.03018 0.0
O5 O 0.56175 0.15701 0.00659 0.0
O6 O 0.21078 0.11635 0.79936 0.0
O7 O 0.86455 0.26608 0.87787 0.0
Mg8 Mg 0.7527 0.92249 0.8597 0.0
O9 O 0.9519 0.84417 -0.05612 0.0
O10 O 0.95426 0.97649 0.76583 0.0
O11 O 0.59515 0.14332 0.84792 0.0
O12 O 0.63461 0.86375 -0.02854 0.0
C13 C 0.2742 0.79144 0.85154 0.0
C14 C 0.07617 0.03009 0.10381 0.0
C15 C 0.48566 0.29984 -0.00013 0.0
C16 C 0.10701 0.05415 0.74712 0.0
C17 C 0.68789 0.26973 0.85121 0.0
C18 C 0.80482 0.81668 -0.00654 0.0
O19 O 0.39835 0.89302 0.86686 0.0
O20 O 0.10109 0.81513 0.887 0.0
O21 O 0.72728 0.44914 0.57405 0.0
Mg22 Mg 0.8065 0.55693 0.46539 0.0
O23 O 0.48025 0.62005 0.55917 0.0
Mg24 Mg 0.62523 0.59407 0.43497 0.0
O25 O 0.80978 0.81679 0.46982 0.0
O26 O 0.06175 0.65701 0.50659 0.0
O27 O 0.71078 0.61635 0.29936 0.0
O28 O 0.36454 0.76608 0.37787 0.0
Mg29 Mg 0.25269 0.42249 0.35969 0.0
O30 O 0.45189 0.34417 0.44388 0.0
O31 O 0.45425 0.47649 0.26583 0.0
O32 O 0.09514 0.64332 0.34792 0.0
O33 O 0.13461 0.36375 0.47146 0.0
C34 C 0.7742 0.29144 0.35154 0.0
C35 C 0.57617 0.53008 0.60381 0.0
C36 C 0.98565 0.79984 0.49987 0.0
C37 C 0.607 0.55415 0.24712 0.0
C38 C 0.18788 0.76973 0.35121 0.0
C39 C 0.30481 0.31668 0.49346 0.0
O40 O 0.89834 0.39303 0.36686 0.0
O41 O 0.60108 0.31513 0.387 0.0
H42 H 0.82624 0.24269 0.19326 0.0
H43 H 0.23078 0.82177 0.20312 0.0
H44 H 0.93085 0.0347 0.40858 0.0
C45 C 0.89089 0.14543 0.22572 0.0
C46 C 0.85258 0.14375 0.30649 0.0
C47 C 1.02592 0.02803 0.18784 0.0
C48 C 0.12777 0.91277 0.23156 0.0
C49 C 0.09666 0.91061 0.31148 0.0
C50 C 0.9548 0.02486 0.34754 0.0
H51 H 0.98424 0.84741 0.64524 0.0
H52 H 0.29837 0.28394 0.65536 0.0
H53 H 0.25162 0.02754 0.44002 0.0
C54 C 0.07091 0.93843 0.61774 0.0
C55 C 0.08899 0.93209 0.53815 0.0
C56 C 0.159 0.05631 0.66228 0.0
C57 C 0.26083 0.1782 0.62318 0.0
C58 C 0.29306 0.16881 0.54106 0.0
C59 C 0.22114 0.03547 0.50131 0.0
H60 H 0.32624 0.74268 0.69326 0.0
H61 H 0.73078 0.32177 0.70312 0.0
H62 H 0.43086 0.5347 -0.09142 0.0
C63 C 0.3909 0.64543 0.72572 0.0
C64 C 0.35258 0.64375 0.80649 0.0
C65 C 0.52592 0.52803 0.68784 0.0
C66 C 0.62777 0.41276 0.73156 0.0
C67 C 0.59667 0.41061 0.81148 0.0
C68 C 0.45481 0.52486 0.84754 0.0
H69 H 0.48424 0.34741 0.14524 0.0
H70 H 0.79837 0.78394 0.15536 0.0
H71 H 0.75163 0.52753 -0.05998 0.0
C72 C 0.57091 0.43843 0.11774 0.0
C73 C 0.58899 0.43209 0.03815 0.0
C74 C 0.659 0.55632 0.16228 0.0
C75 C 0.76083 0.6782 0.12318 0.0
C76 C 0.79307 0.66881 0.04106 0.0
C77 C 0.72115 0.53547 0.00131 0.0
loop_
_geom_bond_atom_site_label_1
_geom_bond_atom_site_label_2
_geom_bond_distance
_geom_bond_site_symmetry_2
_ccdc_geom_bond_type
O0 Mg1 1.990 . S
O0 C14 1.253 . S
Mg1 O0 1.990 . S
Mg1 O4 2.180 . S
Mg1 O5 2.117 . S
Mg1 O19 2.030 1_545 S
O2 Mg3 2.072 1_565 S
O2 C14 1.260 1_565 S
Mg3 O2 2.072 1_545 S
Mg3 O4 2.099 . S
Mg3 O6 2.079 1_554 S
Mg3 O7 2.072 1_455 S
Mg3 O9 2.099 1_444 S
Mg3 O20 2.079 1_544 S
O4 Mg1 2.180 . S
O4 Mg3 2.099 . S
O4 C15 1.279 . S
O5 Mg1 2.117 . S
O5 C15 1.250 . S
O6 Mg3 2.079 1_556 S
O6 C16 1.264 1_455 S
O7 Mg3 2.072 1_655 S
O7 C17 1.260 . S
Mg8 O9 2.180 . S
Mg8 O10 2.030 1_565 S
Mg8 O11 1.990 1_565 S
Mg8 O12 2.117 . S
O9 Mg3 2.099 1_666 S
O9 Mg8 2.180 . S
O9 C18 1.279 1_556 S
O10 Mg8 2.030 1_545 S
O10 C16 1.248 . S
O11 Mg8 1.990 1_545 S
O11 C17 1.253 1_556 S
O12 Mg8 2.117 . S
O12 C18 1.250 1_556 S
C13 O19 1.248 . S
C13 O20 1.264 1_554 S
C14 O0 1.253 . S
C14 O2 1.260 1_545 S
C15 O4 1.279 . S
C15 O5 1.250 . S
C16 O6 1.264 1_655 S
C16 O10 1.248 . S
C17 O7 1.260 . S
C17 O11 1.253 1_554 S
C18 O9 1.279 1_554 S
C18 O12 1.250 1_554 S
O19 Mg1 2.030 1_565 S
O19 C13 1.248 . S
O20 Mg3 2.079 1_566 S
O20 C13 1.264 1_556 S
O21 Mg22 1.990 . S
O21 C35 1.253 . S
Mg22 O21 1.990 . S
Mg22 O25 2.180 . S
Mg22 O26 2.117 . S
Mg22 O40 2.030 . S
O23 Mg24 2.072 . S
O23 C35 1.260 . S
Mg24 O23 2.072 . S
Mg24 O25 2.099 . S
Mg24 O27 2.079 . S
Mg24 O28 2.072 . S
Mg24 O30 2.099 . S
Mg24 O41 2.079 . S
O25 Mg22 2.180 . S
O25 Mg24 2.099 . S
O25 C36 1.279 . S
O26 Mg22 2.117 . S
O26 C36 1.250 . S
O27 Mg24 2.079 . S
O27 C37 1.264 . S
O28 Mg24 2.072 . S
O28 C38 1.260 . S
Mg29 O30 2.180 . S
Mg29 O31 2.030 . S
Mg29 O32 1.990 . S
Mg29 O33 2.117 . S
O30 Mg24 2.099 . S
O30 Mg29 2.180 . S
O30 C39 1.279 . S
O31 Mg29 2.030 . S
O31 C37 1.248 . S
O32 Mg29 1.990 . S
O32 C38 1.253 . S
O33 Mg29 2.117 . S
O33 C39 1.250 . S
C34 O40 1.248 . S
C34 O41 1.264 . S
C35 O21 1.253 . S
C35 O23 1.260 . S
C36 O25 1.279 . S
C36 O26 1.250 . S
C37 O27 1.264 . S
C37 O31 1.248 . S
C38 O28 1.260 . S
C38 O32 1.253 . S
C39 O30 1.279 . S
C39 O33 1.250 . S
O40 Mg22 2.030 . S
O40 C34 1.248 . S
O41 Mg24 2.079 . S
O41 C34 1.264 . S
H42 C45 0.931 . S
H43 C48 0.928 . S
H44 C50 0.930 . S
C45 H42 0.931 . S
C45 C46 1.413 . S
C45 C47 1.360 1_645 S
C46 C45 1.413 . S
C46 C50 1.429 1_655 S
C47 C45 1.360 1_465 S
C47 C48 1.372 . S
C48 H43 0.928 . S
C48 C47 1.372 . S
C48 C49 1.404 . S
C49 C48 1.404 . S
C49 C50 1.391 1_565 S
C50 H44 0.930 . S
C50 C46 1.429 1_455 S
C50 C49 1.391 1_545 S
H51 C54 0.931 . S
H52 C57 0.928 . S
H53 C59 0.930 . S
C54 H51 0.931 . S
C54 C55 1.413 . S
C54 C56 1.360 1_665 S
C55 C54 1.413 . S
C55 C59 1.429 1_565 S
C56 C54 1.360 1_445 S
C56 C57 1.372 . S
C57 H52 0.928 . S
C57 C56 1.372 . S
C57 C58 1.404 . S
C58 C57 1.404 . S
C58 C59 1.391 1_455 S
C59 H53 0.930 . S
C59 C55 1.429 1_545 S
C59 C58 1.391 1_655 S
H60 C63 0.931 . S
H61 C66 0.928 . S
H62 C68 0.930 . S
C63 H60 0.931 . S
C63 C64 1.413 . S
C63 C65 1.360 . S
C64 C63 1.413 . S
C64 C68 1.429 1_556 S
C65 C63 1.360 . S
C65 C66 1.372 . S
C66 H61 0.928 . S
C66 C65 1.372 . S
C66 C67 1.404 . S
C67 C66 1.404 . S
C67 C68 1.391 1_556 S
C68 H62 0.930 . S
C68 C64 1.429 1_554 S
C68 C67 1.391 1_554 S
H69 C72 0.931 . S
H70 C75 0.928 . S
H71 C77 0.930 1_556 S
C72 H69 0.931 . S
C72 C73 1.413 . S
C72 C74 1.360 . S
C73 C72 1.413 . S
C73 C77 1.429 . S
C74 C72 1.360 . S
C74 C75 1.372 . S
C75 H70 0.928 . S
C75 C74 1.372 . S
C75 C76 1.404 . S
C76 C75 1.404 . S
C76 C77 1.391 . S
C77 H71 0.930 1_554 S
C77 C73 1.429 . S
C77 C76 1.391 . S
C73 C15 1.330 . S
C13 C64 1.654 1_554 S
C18 C76 1.284 . S
C17 C67 1.334 1_554 S
C36 C55 1.330 . S
C34 C46 1.654 . S
C58 C39 1.283 . S
C49 C38 1.334 . S
C14 C47 1.546 1_545 S
C16 C56 1.340 1_655 S
C65 C35 1.546 . S
C37 C74 1.340 . S
