# Generated by pormake.
# Topology ftw, (4,12)-cn, num edge types: 1
# Building blocks:
#     Node 0, Type 0, BuildingBlock: KUFVIS_clean_linker_0, # of connection points: 4
#     Node 1, Type 0, BuildingBlock: KUFVIS_clean_linker_0, # of connection points: 4
#     Node 2, Type 0, BuildingBlock: KUFVIS_clean_linker_0, # of connection points: 4
#     Node 3, Type 1, BuildingBlock: EZIPEK_clean_sbu_0, # of connection points: 12
#     Edge 4, Type (0, 1), None
#     Edge 5, Type (0, 1), None
#     Edge 6, Type (0, 1), None
#     Edge 7, Type (0, 1), None
#     Edge 8, Type (0, 1), None
#     Edge 9, Type (0, 1), None
#     Edge 10, Type (0, 1), None
#     Edge 11, Type (0, 1), None
#     Edge 12, Type (0, 1), None
#     Edge 13, Type (0, 1), None
#     Edge 14, Type (0, 1), None
#     Edge 15, Type (0, 1), None
# Relax obj value: 0.081
# Max RMSD: 0.235
# Mean RMSD: 0.179
data_MOF--net-ftw--node1-EZIPEK_clean_sbu_0--node2-KUFVIS_clean_linker_0--edge1-none
_symmetry_space_group_name_H-M    P1
_symmetry_Int_Tables_number       1
_symmetry_cell_setting            triclinic
loop_
_symmetry_equiv_pos_as_xyz
'x, y, z'
_cell_length_a     11.449159
_cell_length_b     13.828963
_cell_length_c     11.821005
_cell_angle_alpha  90.01425
_cell_angle_beta   88.981494
_cell_angle_gamma 90.003165
loop_
_atom_site_label
_atom_site_type_symbol
_atom_site_fract_x
_atom_site_fract_y
_atom_site_fract_z
_atom_type_partial_charge
H0 H 0.0309 0.18269 0.5571 0.0
H1 H 0.03336 0.44455 0.74227 0.0
H2 H 1.02211 0.44415 0.37164 0.0
H3 H 0.04158 0.59186 0.37131 0.0
H4 H 0.026 0.85371 0.55638 0.0
H5 H 1.01529 0.59226 0.7421 0.0
C6 C 0.02977 0.26066 0.55708 0.0
C7 C 0.02884 0.30859 0.45178 0.0
C8 C 0.02913 0.30883 0.66233 0.0
C9 C 0.03041 0.40998 0.66095 0.0
C10 C 0.02825 0.4632 0.55689 0.0
C11 C 0.02617 0.40973 0.45298 0.0
C12 C 0.028 0.57328 0.55671 0.0
C13 C 0.03413 0.62646 0.45255 0.0
C14 C 0.03247 0.72758 0.45098 0.0
C15 C 0.02685 0.77572 0.55646 0.0
C16 C 1.02244 0.72779 0.66204 0.0
C17 C 1.02183 0.62668 0.66073 0.0
H18 H 0.52014 0.0793 0.83665 0.0
H19 H 0.70498 0.85547 0.66095 0.0
H20 H 0.33193 0.87777 0.63328 0.0
H21 H 0.35161 0.85301 0.45065 0.0
H22 H 0.53576 0.07895 0.27781 0.0
H23 H 0.72429 0.87492 0.47765 0.0
C24 C 0.51878 0.01839 0.77883 0.0
C25 C 0.4118 0.98258 0.73926 0.0
C26 C 0.62411 0.97101 0.75316 0.0
C27 C 0.62341 0.89206 0.68041 0.0
C28 C 0.522 0.87197 0.61881 0.0
C29 C 0.41396 0.90418 0.66524 0.0
C30 C 0.53434 0.87011 0.49316 0.0
C31 C 0.43301 0.88996 0.43143 0.0
C32 C 0.43203 0.96967 0.35978 0.0
C33 C 0.53726 0.01747 0.33474 0.0
C34 C 0.64434 0.98123 0.37356 0.0
C35 C 0.64229 0.90195 0.44631 0.0
H36 H 0.52782 0.86114 0.05626 0.0
H37 H 0.71434 0.59729 0.09008 0.0
H38 H 0.34172 0.59755 1.01877 0.0
H39 H 0.33762 0.45278 0.07343 0.0
H40 H 0.52953 0.19061 0.07748 0.0
H41 H 0.71764 0.45269 1.03162 0.0
C42 C 0.52794 0.78293 0.05558 0.0
C43 C 0.42253 0.73431 1.03925 0.0
C44 C 0.63347 0.7343 0.07115 0.0
C45 C 0.63289 0.63293 0.07245 0.0
C46 C 0.52807 0.57986 0.05421 0.0
C47 C 0.42323 0.63299 1.03654 0.0
C48 C 0.52798 0.47035 0.05533 0.0
C49 C 0.42119 0.4173 0.06572 0.0
C50 C 0.42111 0.31599 0.06863 0.0
C51 C 0.52883 0.26827 0.06824 0.0
C52 C 0.63575 0.31619 0.05473 0.0
C53 C 0.63484 0.41728 1.04638 0.0
C54 C 0.02667 0.2479 0.76911 0.0
C55 C 0.0306 0.24751 0.34511 0.0
C56 C 1.01833 0.78902 0.76894 0.0
C57 C 0.03719 0.7887 0.34403 0.0
C58 C 0.31466 0.79399 1.03 0.0
C59 C 0.31329 0.25446 0.06807 0.0
C60 C 0.74126 0.79404 0.08129 0.0
C61 C 0.74361 0.25489 1.05028 0.0
C62 C 0.75467 0.01918 0.32423 0.0
C63 C 0.3285 0.99341 0.29446 0.0
C64 C 0.72768 0.99444 0.81862 0.0
C65 C 0.30135 0.02015 0.78881 0.0
Eu66 Eu 0.02843 0.21534 0.05716 0.0
O67 O 0.12982 0.11117 0.15255 0.0
O68 O 0.92671 0.11169 0.96106 0.0
Eu69 Eu 0.23487 0.0241 1.0435 0.0
Eu70 Eu 0.82139 0.02439 0.06959 0.0
O71 O 0.11977 0.11198 0.94966 0.0
O72 O 0.93664 0.11183 0.16399 0.0
Eu73 Eu 1.01818 0.01758 0.84471 0.0
Eu74 Eu 0.03804 0.01721 0.26869 0.0
O75 O 0.12248 0.9297 0.95231 0.0
O76 O 0.13031 0.9311 0.14747 0.0
O77 O 0.93359 0.92972 0.16069 0.0
O78 O 0.92588 0.93135 0.96566 0.0
Eu79 Eu 0.028 0.82607 0.05646 0.0
O80 O 0.03025 0.28631 0.87498 0.0
O81 O 0.02731 0.28601 0.23935 0.0
O82 O 0.02753 0.75212 0.87518 0.0
O83 O 0.02785 0.75191 0.23771 0.0
O84 O 0.33471 0.88726 1.00807 0.0
O85 O 0.33517 0.16005 0.07185 0.0
O86 O 0.72115 0.88732 0.10328 0.0
O87 O 0.72177 0.16074 1.04096 0.0
O88 O 0.85947 0.98819 0.35684 0.0
O89 O 0.22177 0.99708 0.34341 0.0
O90 O 0.83447 0.99793 0.76977 0.0
O91 O 0.19662 0.98905 0.75611 0.0
O92 O 0.84646 0.75529 0.05795 0.0
O93 O 0.2096 0.75528 0.05405 0.0
O94 O 0.85046 0.29309 0.06113 0.0
O95 O 0.20653 0.29298 0.05759 0.0
O96 O 0.03562 0.15343 0.36789 0.0
O97 O 0.04746 0.88204 0.3675 0.0
O98 O 1.02067 0.15392 0.74614 0.0
O99 O 1.0088 0.88244 0.74558 0.0
O100 O 0.31488 0.06944 0.88191 0.0
O101 O 0.35216 1.00415 0.18584 0.0
O102 O 0.70402 1.00502 0.92725 0.0
O103 O 0.74096 0.06876 0.23137 0.0
loop_
_geom_bond_atom_site_label_1
_geom_bond_atom_site_label_2
_geom_bond_distance
_geom_bond_site_symmetry_2
_ccdc_geom_bond_type
H0 C6 0.930 1_655 S
H1 C9 0.931 . S
H2 C11 0.931 . S
H3 C13 0.930 . S
H4 C15 0.930 . S
H5 C17 0.932 . S
C6 H0 0.930 1_455 S
C6 C7 1.380 1_455 S
C6 C8 1.394 . S
C7 C6 1.380 1_655 S
C7 C11 1.382 . S
C8 C6 1.394 . S
C8 C9 1.400 . S
C9 H1 0.931 . S
C9 C8 1.400 . S
C9 C10 1.375 . S
C10 C9 1.375 . S
C10 C11 1.415 1_455 S
C10 C12 1.501 . S
C11 H2 0.931 . S
C11 C7 1.382 . S
C11 C10 1.415 1_655 S
C12 C10 1.501 . S
C12 C13 1.384 . S
C12 C17 1.407 1_455 S
C13 H3 0.930 . S
C13 C12 1.384 . S
C13 C14 1.389 . S
C14 C13 1.389 . S
C14 C15 1.405 . S
C15 H4 0.930 . S
C15 C14 1.405 . S
C15 C16 1.364 1_455 S
C16 C15 1.364 1_655 S
C16 C17 1.400 . S
C17 H5 0.932 . S
C17 C12 1.407 1_655 S
C17 C16 1.400 . S
H18 C24 0.930 . S
H19 C27 0.931 . S
H20 C29 0.931 . S
H21 C31 0.930 . S
H22 C33 0.930 . S
H23 C35 0.931 . S
C24 H18 0.930 . S
C24 C25 1.380 . S
C24 C26 1.394 1_545 S
C25 C24 1.380 . S
C25 C29 1.382 . S
C26 C24 1.394 1_565 S
C26 C27 1.400 . S
C27 H19 0.931 . S
C27 C26 1.400 . S
C27 C28 1.375 . S
C28 C27 1.375 . S
C28 C29 1.415 1_565 S
C28 C30 1.501 . S
C29 H20 0.931 . S
C29 C25 1.382 . S
C29 C28 1.415 1_545 S
C30 C28 1.501 . S
C30 C31 1.384 . S
C30 C35 1.408 1_565 S
C31 H21 0.930 . S
C31 C30 1.384 . S
C31 C32 1.389 . S
C32 C31 1.389 . S
C32 C33 1.405 . S
C33 H22 0.930 . S
C33 C32 1.405 . S
C33 C34 1.364 1_565 S
C34 C33 1.364 1_545 S
C34 C35 1.400 . S
C35 H23 0.931 . S
C35 C30 1.408 1_545 S
C35 C34 1.400 . S
H36 C42 0.930 1_556 S
H37 C45 0.931 . S
H38 C47 0.931 . S
H39 C49 0.930 . S
H40 C51 0.930 . S
H41 C53 0.931 . S
C42 H36 0.930 1_554 S
C42 C43 1.380 1_554 S
C42 C44 1.394 . S
C43 C42 1.380 1_556 S
C43 C47 1.382 . S
C44 C42 1.394 . S
C44 C45 1.400 . S
C45 H37 0.931 . S
C45 C44 1.400 . S
C45 C46 1.375 . S
C46 C45 1.375 . S
C46 C47 1.415 1_554 S
C46 C48 1.501 . S
C47 H38 0.931 . S
C47 C43 1.382 . S
C47 C46 1.415 1_556 S
C48 C46 1.501 . S
C48 C49 1.384 . S
C48 C53 1.408 1_554 S
C49 H39 0.930 . S
C49 C48 1.384 . S
C49 C50 1.389 . S
C50 C49 1.389 . S
C50 C51 1.405 . S
C51 H40 0.930 . S
C51 C50 1.405 . S
C51 C52 1.364 1_554 S
C52 C51 1.364 1_556 S
C52 C53 1.400 . S
C53 H41 0.931 . S
C53 C48 1.408 1_556 S
C53 C52 1.400 . S
C54 O80 1.283 . S
C54 O98 1.283 . S
C55 O81 1.283 . S
C55 O96 1.283 . S
C56 O82 1.283 . S
C56 O99 1.283 . S
C57 O83 1.283 . S
C57 O97 1.283 . S
C58 O84 1.283 . S
C58 O93 1.283 . S
C59 O85 1.283 . S
C59 O95 1.283 . S
C60 O86 1.283 . S
C60 O92 1.283 . S
C61 O87 1.283 . S
C61 O94 1.283 . S
C62 O88 1.283 . S
C62 O103 1.283 . S
C63 O89 1.283 . S
C63 O101 1.283 . S
C64 O90 1.283 . S
C64 O102 1.283 . S
C65 O91 1.283 . S
C65 O100 1.283 . S
Eu66 O67 2.370 . S
Eu66 O68 2.370 1_454 S
Eu66 O71 2.370 1_554 S
Eu66 O72 2.370 1_455 S
Eu66 O80 2.363 1_554 S
Eu66 O81 2.363 . S
Eu66 O94 2.363 1_455 S
Eu66 O95 2.363 . S
O67 Eu66 2.370 . S
O67 Eu69 2.371 1_545 S
O67 Eu74 2.371 . S
O68 Eu66 2.370 1_656 S
O68 Eu70 2.371 1_556 S
O68 Eu73 2.371 1_645 S
Eu69 O67 2.371 1_565 S
Eu69 O71 2.371 1_564 S
Eu69 O75 2.370 1_554 S
Eu69 O76 2.370 . S
Eu69 O84 2.362 . S
Eu69 O85 2.364 1_565 S
Eu69 O100 2.363 1_554 S
Eu69 O101 2.363 1_565 S
Eu70 O68 2.371 1_554 S
Eu70 O72 2.371 . S
Eu70 O77 2.369 1_545 S
Eu70 O78 2.369 1_544 S
Eu70 O86 2.361 1_545 S
Eu70 O87 2.365 . S
Eu70 O102 2.363 1_554 S
Eu70 O103 2.363 . S
O71 Eu66 2.370 1_556 S
O71 Eu69 2.371 1_546 S
O71 Eu73 2.371 1_545 S
O72 Eu66 2.370 1_655 S
O72 Eu70 2.371 . S
O72 Eu74 2.371 1_655 S
Eu73 O68 2.371 1_465 S
Eu73 O71 2.371 1_565 S
Eu73 O75 2.369 . S
Eu73 O78 2.369 1_455 S
Eu73 O90 2.363 1_465 S
Eu73 O91 2.363 . S
Eu73 O98 2.364 1_565 S
Eu73 O99 2.362 . S
Eu74 O67 2.371 . S
Eu74 O72 2.371 1_455 S
Eu74 O76 2.369 1_545 S
Eu74 O77 2.369 1_445 S
Eu74 O88 2.363 1_455 S
Eu74 O89 2.363 . S
Eu74 O96 2.364 . S
Eu74 O97 2.362 1_545 S
O75 Eu69 2.370 1_556 S
O75 Eu73 2.369 . S
O75 Eu79 2.370 1_556 S
O76 Eu69 2.370 . S
O76 Eu74 2.369 1_565 S
O76 Eu79 2.370 . S
O77 Eu70 2.369 1_565 S
O77 Eu74 2.369 1_665 S
O77 Eu79 2.370 1_655 S
O78 Eu70 2.369 1_566 S
O78 Eu73 2.369 1_655 S
O78 Eu79 2.370 1_656 S
Eu79 O75 2.370 1_554 S
Eu79 O76 2.370 . S
Eu79 O77 2.370 1_455 S
Eu79 O78 2.370 1_454 S
Eu79 O82 2.363 1_554 S
Eu79 O83 2.363 . S
Eu79 O92 2.363 1_455 S
Eu79 O93 2.363 . S
O80 C54 1.283 . S
O80 Eu66 2.363 1_556 S
O81 C55 1.283 . S
O81 Eu66 2.363 . S
O82 C56 1.283 . S
O82 Eu79 2.363 1_556 S
O83 C57 1.283 . S
O83 Eu79 2.363 . S
O84 C58 1.283 . S
O84 Eu69 2.362 . S
O85 C59 1.283 . S
O85 Eu69 2.364 1_545 S
O86 C60 1.283 . S
O86 Eu70 2.361 1_565 S
O87 C61 1.283 . S
O87 Eu70 2.365 . S
O88 C62 1.283 . S
O88 Eu74 2.363 1_655 S
O89 C63 1.283 . S
O89 Eu74 2.363 . S
O90 C64 1.283 . S
O90 Eu73 2.363 1_645 S
O91 C65 1.283 . S
O91 Eu73 2.363 . S
O92 C60 1.283 . S
O92 Eu79 2.363 1_655 S
O93 C58 1.283 . S
O93 Eu79 2.363 . S
O94 C61 1.283 . S
O94 Eu66 2.363 1_655 S
O95 C59 1.283 . S
O95 Eu66 2.363 . S
O96 C55 1.283 . S
O96 Eu74 2.364 . S
O97 C57 1.283 . S
O97 Eu74 2.362 1_565 S
O98 C54 1.283 . S
O98 Eu73 2.364 1_545 S
O99 C56 1.283 . S
O99 Eu73 2.362 . S
O100 C65 1.283 . S
O100 Eu69 2.363 1_556 S
O101 C63 1.283 . S
O101 Eu69 2.363 1_545 S
O102 C64 1.283 . S
O102 Eu70 2.363 1_556 S
O103 C62 1.283 . S
O103 Eu70 2.363 . S
C55 C7 2.123 1_455 S
C62 C34 1.471 . S
C57 C14 2.132 . S
C63 C32 1.481 1_545 S
C16 C56 2.122 1_655 S
C65 C25 1.469 1_565 S
C8 C54 2.125 . S
C26 C64 1.476 1_565 S
C50 C59 1.654 . S
C43 C58 1.642 1_556 S
C61 C52 1.640 1_554 S
C60 C44 1.645 . S
