# Generated by pormake.
# Topology pts, (4,4)-cn, num edge types: 1
# Building blocks:
#     Node 0, Type 0, BuildingBlock: NAWXER_clean_linker_0, # of connection points: 4
#     Node 1, Type 0, BuildingBlock: NAWXER_clean_linker_0, # of connection points: 4
#     Node 2, Type 1, BuildingBlock: AZAVOO_clean_sbu_0, # of connection points: 4
#     Node 3, Type 1, BuildingBlock: AZAVOO_clean_sbu_0, # of connection points: 4
#     Edge 4, Type (0, 1), BuildingBlock: OJICUG_clean_linker_0, # of connection points: 2
#     Edge 5, Type (0, 1), BuildingBlock: OJICUG_clean_linker_0, # of connection points: 2
#     Edge 6, Type (0, 1), BuildingBlock: OJICUG_clean_linker_0, # of connection points: 2
#     Edge 7, Type (0, 1), BuildingBlock: OJICUG_clean_linker_0, # of connection points: 2
#     Edge 8, Type (0, 1), BuildingBlock: OJICUG_clean_linker_0, # of connection points: 2
#     Edge 9, Type (0, 1), BuildingBlock: OJICUG_clean_linker_0, # of connection points: 2
#     Edge 10, Type (0, 1), BuildingBlock: OJICUG_clean_linker_0, # of connection points: 2
#     Edge 11, Type (0, 1), BuildingBlock: OJICUG_clean_linker_0, # of connection points: 2
# Relax obj value: 0.000
# Max RMSD: 0.032
# Mean RMSD: 0.019
data_MOF--net-pts--node1-AZAVOO_clean_sbu_0--node2-NAWXER_clean_linker_0--edge1-OJICUG_clean_linker_0
_symmetry_space_group_name_H-M    P1
_symmetry_Int_Tables_number       1
_symmetry_cell_setting            triclinic
loop_
_symmetry_equiv_pos_as_xyz
'x, y, z'
_cell_length_a     22.878977
_cell_length_b     24.017339
_cell_length_c     32.212543
_cell_angle_alpha  89.985036
_cell_angle_beta   96.940208
_cell_angle_gamma 90.074462
loop_
_atom_site_label
_atom_site_type_symbol
_atom_site_fract_x
_atom_site_fract_y
_atom_site_fract_z
_atom_type_partial_charge
C0 C 0.71555 0.05642 0.95412 0.0
C1 C 0.71954 0.01159 0.92659 0.0
C2 C 0.66751 0.06071 0.97705 0.0
C3 C 0.6224 0.02058 0.97244 0.0
C4 C 0.67407 0.97185 0.92179 0.0
C5 C 0.62571 0.97661 0.94418 0.0
C6 C 0.57133 0.02429 0.99653 0.0
C7 C 0.71823 0.9658 0.09202 0.0
C8 C 0.74001 0.00772 0.12004 0.0
C9 C 0.66647 0.97419 0.06507 0.0
C10 C 0.63516 0.02433 0.06612 0.0
C11 C 0.70966 0.05853 0.1203 0.0
C12 C 0.65706 0.0665 0.09388 0.0
C13 C 0.57758 0.03035 0.04032 0.0
C14 C 0.34377 0.97166 0.08909 0.0
C15 C 0.33373 0.01457 0.11707 0.0
C16 C 0.38812 0.97664 0.06306 0.0
C17 C 0.42324 0.02472 0.0644 0.0
C18 C 0.36828 0.06309 0.11786 0.0
C19 C 0.4131 0.06783 0.09205 0.0
C20 C 0.473 0.02838 0.03914 0.0
C21 C 0.30492 0.03119 0.94975 0.0
C22 C 0.30227 -0.00711 0.91641 0.0
C23 C 0.35799 0.04122 0.97521 0.0
C24 C 0.40926 0.01165 0.96899 0.0
C25 C 0.35425 0.96473 0.90966 0.0
C26 C 0.40665 0.97365 0.93572 0.0
C27 C 0.46667 0.02087 0.99518 0.0
H28 H 0.75001 0.0876 0.95838 0.0
H29 H 0.6654 0.09552 0.99819 0.0
H30 H 0.67572 0.93724 0.9004 0.0
H31 H 0.59129 0.94538 0.93994 0.0
H32 H 0.74078 0.9262 0.09152 0.0
H33 H 0.64981 0.9408 0.04429 0.0
H34 H 0.72541 0.09113 0.14209 0.0
H35 H 0.6332 0.10524 0.09536 0.0
H36 H 0.31774 0.93385 0.08773 0.0
H37 H 0.39581 0.94244 0.04249 0.0
H38 H 0.36204 0.09648 0.13948 0.0
H39 H 0.44018 0.105 0.09387 0.0
H40 H 0.26614 0.05371 0.95628 0.0
H41 H 0.35877 0.07259 0.99936 0.0
H42 H 0.35521 0.93642 0.88363 0.0
H43 H 0.44548 0.95074 0.9296 0.0
N44 N 0.51628 0.01935 0.97575 0.0
N45 N 0.52826 0.03273 0.05997 0.0
C46 C 0.05205 0.68666 0.58789 0.0
C47 C 0.01479 0.68653 0.61975 0.0
C48 C 0.05578 0.63991 0.56236 0.0
C49 C 0.02033 0.59303 0.56687 0.0
C50 C 0.98201 0.63814 0.62548 0.0
C51 C 0.98429 0.59242 0.59916 0.0
C52 C 0.0228 0.5423 0.54094 0.0
C53 C 0.98823 0.68373 0.44754 0.0
C54 C 0.02404 0.6835 0.41481 0.0
C55 C 0.98657 0.63763 0.474 0.0
C56 C 0.02296 0.59143 0.46974 0.0
C57 C 0.05731 0.63545 0.40914 0.0
C58 C 0.05735 0.59056 0.43649 0.0
C59 C 0.02321 0.54154 0.49695 0.0
C60 C 0.9805 0.29935 0.45445 0.0
C61 C 0.01562 0.29452 0.4216 0.0
C62 C 0.98294 0.34715 0.47924 0.0
C63 C 0.02199 0.39049 0.47268 0.0
C64 C 0.05323 0.33888 0.41426 0.0
C65 C 0.05637 0.38628 0.43955 0.0
C66 C 0.02478 0.44188 0.49823 0.0
C67 C 0.07226 0.30189 0.58841 0.0
C68 C 0.037 0.2975 0.62123 0.0
C69 C 0.06958 0.34918 0.56303 0.0
C70 C 0.03011 0.39234 0.56892 0.0
C71 C -0.0005 0.34201 0.62818 0.0
C72 C -0.00397 0.38879 0.60226 0.0
C73 C 0.02596 0.4427 0.54217 0.0
H74 H 0.07792 0.72297 0.58215 0.0
H75 H 0.08611 0.64067 0.53905 0.0
H76 H 0.95452 0.63509 0.65046 0.0
H77 H 0.95762 0.55626 0.60417 0.0
H78 H 0.96194 0.71967 0.45332 0.0
H79 H 0.95707 0.63844 0.49785 0.0
H80 H 0.08355 0.63205 0.38348 0.0
H81 H 0.0846 0.55486 0.43154 0.0
H82 H 0.95147 0.26593 0.4615 0.0
H83 H 0.95422 0.35012 0.50351 0.0
H84 H 0.08001 0.33729 0.38878 0.0
H85 H 0.08596 0.41969 0.43328 0.0
H86 H 0.1013 0.26841 0.58167 0.0
H87 H 0.0982 0.35173 0.53867 0.0
H88 H 0.97273 0.34088 0.65368 0.0
H89 H 0.96617 0.4221 0.60809 0.0
N90 N 0.02423 0.49278 0.56144 0.0
N91 N 0.02417 0.49125 0.47772 0.0
Mg92 Mg 0.07149 -0.02038 0.29245 0.0
O93 O 0.98408 -0.01963 0.2479 0.0
O94 O 0.91194 0.96246 0.28732 0.0
Mg95 Mg 0.95024 0.95465 0.35567 0.0
C96 C 0.92971 0.97263 0.25202 0.0
C97 C 0.17052 -0.01806 0.23924 0.0
O98 O 0.18141 0.94113 0.26622 0.0
O99 O 0.05067 0.06637 0.31547 0.0
O100 O 0.97877 0.04635 0.35463 0.0
O101 O 0.08054 0.88703 0.28818 0.0
O102 O 0.03344 0.92959 0.33486 0.0
C103 C 0.01323 0.08108 0.3398 0.0
C104 C 0.04998 0.88383 0.31933 0.0
O105 O 0.12472 0.01145 0.24116 0.0
Mg106 Mg 0.9674 -0.01791 0.74368 0.0
O107 O 0.05257 0.97699 0.79 0.0
O108 O 0.12654 0.95819 0.75245 0.0
Mg109 Mg 0.09117 0.95508 0.68324 0.0
C110 C 0.10688 0.96729 0.78723 0.0
C111 C 0.90746 -0.01985 0.82394 0.0
O112 O 0.93433 0.93181 0.82452 0.0
O113 O 0.99428 0.06859 0.72395 0.0
O114 O 0.06706 0.04786 0.68582 0.0
O115 O 0.95236 0.88993 0.74432 0.0
O116 O 0.00508 0.93254 0.70088 0.0
C117 C 0.03343 0.08307 0.70089 0.0
C118 C 0.98506 0.88685 0.71435 0.0
O119 O 0.91499 0.01452 0.79498 0.0
C120 C 0.24988 0.04878 0.15455 0.0
C121 C 0.29034 0.00678 0.14738 0.0
H122 H 0.17925 0.07374 0.18885 0.0
C123 C 0.29031 0.95701 0.1702 0.0
H124 H 0.24887 0.08752 0.13727 0.0
C125 C 0.25126 0.94941 0.19976 0.0
C126 C 0.21066 -0.00886 0.20705 0.0
H127 H 0.32141 0.92419 0.16578 0.0
H128 H 0.25296 0.91055 0.21693 0.0
C129 C 0.20996 0.04082 0.18389 0.0
C130 C 0.08989 0.21472 0.65577 0.0
C131 C 0.03782 0.24585 0.64691 0.0
H132 H 0.12931 0.13879 0.68001 0.0
C133 C 0.98574 0.22543 0.66073 0.0
H134 H 0.13122 0.22972 0.64681 0.0
C135 C 0.9852 0.17402 0.681 0.0
C136 C 0.0364 0.14147 0.68714 0.0
H137 H 0.94458 0.24773 0.65414 0.0
H138 H 0.94387 0.1583 0.68953 0.0
C139 C 0.08903 0.16285 0.67523 0.0
C140 C 0.842 0.02973 0.15405 0.0
C141 C 0.79117 -0.00355 0.15149 0.0
H142 H 0.92716 0.04699 0.18747 0.0
C143 C 0.78809 0.95311 0.18035 0.0
H144 H 0.84516 0.06335 0.132 0.0
C145 C 0.83405 0.94449 0.21231 0.0
C146 C 0.88463 -0.02184 0.2154 0.0
H147 H 0.74917 0.9271 0.17901 0.0
H148 H 0.82972 0.91191 0.23502 0.0
C149 C 0.88885 0.02012 0.18548 0.0
C150 C 0.95528 0.74805 0.6621 0.0
C151 C 0.00894 0.73663 0.64641 0.0
H152 H 0.90667 0.80364 0.69692 0.0
C153 C 0.05615 0.77406 0.6559 0.0
H154 H 0.91722 0.72146 0.65482 0.0
C155 C 0.04908 0.82241 0.67897 0.0
C156 C -0.00471 0.83353 0.69403 0.0
H157 H 0.09863 0.76632 0.64549 0.0
H158 H 0.08571 0.85099 0.68505 0.0
C159 C 0.94892 0.79543 0.68617 0.0
C160 C 0.20624 0.02758 0.87782 0.0
C161 C 0.24683 -0.01607 0.88742 0.0
H162 H 0.12889 0.05571 0.83909 0.0
C163 C 0.23583 0.93248 0.8668 0.0
H164 H 0.21309 0.06805 0.89236 0.0
C165 C 0.18869 0.92636 0.83528 0.0
C166 C 0.15001 0.97067 0.82484 0.0
H167 H 0.26447 0.89711 0.87412 0.0
H168 H 0.18312 0.8873 0.81842 0.0
C169 C 0.15793 0.02073 0.84716 0.0
C170 C 0.06529 0.22165 0.38181 0.0
C171 C 0.01377 0.24291 0.39585 0.0
H172 H 0.10525 0.15404 0.35221 0.0
C173 C 0.96092 0.21291 0.38683 0.0
H174 H 0.10696 0.24319 0.38848 0.0
C175 C 0.96036 0.16136 0.36685 0.0
C176 C 0.01233 0.13913 0.35459 0.0
H177 H 0.92 0.22864 0.39593 0.0
H178 H 0.9194 0.13827 0.36182 0.0
C179 C 0.06444 0.17047 0.36104 0.0
C180 C 0.7999 0.95423 0.90231 0.0
C181 C 0.77093 0.00563 0.90294 0.0
H182 H 0.86626 0.90631 0.87764 0.0
C183 C 0.78991 0.05019 0.87959 0.0
H184 H 0.78661 0.9194 0.92041 0.0
C185 C 0.83543 0.04266 0.85465 0.0
C186 C 0.8633 -0.00935 0.85314 0.0
H187 H 0.76818 0.09024 0.87949 0.0
H188 H 0.84797 0.07719 0.83596 0.0
C189 C 0.84578 0.94692 0.87795 0.0
C190 C 0.08073 0.7444 0.36993 0.0
C191 C 0.02831 0.73327 0.38742 0.0
H192 H 0.12746 0.79973 0.33356 0.0
C193 C 0.98114 0.77102 0.37932 0.0
H194 H 0.11888 0.71776 0.37608 0.0
C195 C 0.98729 0.81947 0.3561 0.0
C196 C 0.03992 0.83023 0.33931 0.0
H197 H 0.93949 0.76361 0.39109 0.0
H198 H 0.95098 0.84854 0.35136 0.0
C199 C 0.08601 0.79173 0.34559 0.0
loop_
_geom_bond_atom_site_label_1
_geom_bond_atom_site_label_2
_geom_bond_distance
_geom_bond_site_symmetry_2
_ccdc_geom_bond_type
C0 C1 1.384 . S
C0 C2 1.384 . S
C0 H28 0.931 . S
C1 C0 1.384 . S
C1 C4 1.382 1_545 S
C2 C0 1.384 . S
C2 C3 1.381 . S
C2 H29 0.930 . S
C3 C2 1.381 . S
C3 C5 1.381 1_545 S
C3 C6 1.487 . S
C4 C1 1.382 1_565 S
C4 C5 1.387 . S
C4 H30 0.930 . S
C5 C3 1.381 1_565 S
C5 C4 1.387 . S
C5 H31 0.931 . S
C6 C3 1.487 . S
C6 C13 1.399 1_556 S
C6 N44 1.344 . S
C7 C8 1.384 1_565 S
C7 C9 1.384 . S
C7 H32 0.931 . S
C8 C7 1.384 1_545 S
C8 C11 1.382 . S
C9 C7 1.384 . S
C9 C10 1.381 1_565 S
C9 H33 0.930 . S
C10 C9 1.381 1_545 S
C10 C12 1.381 . S
C10 C13 1.487 . S
C11 C8 1.382 . S
C11 C12 1.387 . S
C11 H34 0.930 . S
C12 C10 1.381 . S
C12 C11 1.387 . S
C12 H35 0.931 . S
C13 C6 1.399 1_554 S
C13 C10 1.487 . S
C13 N45 1.343 . S
C14 C15 1.384 1_565 S
C14 C16 1.384 . S
C14 H36 0.931 . S
C15 C14 1.384 1_545 S
C15 C18 1.382 . S
C16 C14 1.384 . S
C16 C17 1.381 1_565 S
C16 H37 0.930 . S
C17 C16 1.381 1_545 S
C17 C19 1.381 . S
C17 C20 1.487 . S
C18 C15 1.382 . S
C18 C19 1.387 . S
C18 H38 0.930 . S
C19 C17 1.381 . S
C19 C18 1.387 . S
C19 H39 0.931 . S
C20 C17 1.487 . S
C20 C27 1.399 1_554 S
C20 N45 1.343 . S
C21 C22 1.384 . S
C21 C23 1.384 . S
C21 H40 0.931 . S
C22 C21 1.384 . S
C22 C25 1.382 1_545 S
C23 C21 1.384 . S
C23 C24 1.381 . S
C23 H41 0.930 . S
C24 C23 1.381 . S
C24 C26 1.381 1_545 S
C24 C27 1.487 . S
C25 C22 1.382 1_565 S
C25 C26 1.387 . S
C25 H42 0.930 . S
C26 C24 1.381 1_565 S
C26 C25 1.387 . S
C26 H43 0.931 . S
C27 C20 1.399 1_556 S
C27 C24 1.487 . S
C27 N44 1.344 . S
H28 C0 0.931 . S
H29 C2 0.930 . S
H30 C4 0.930 . S
H31 C5 0.931 . S
H32 C7 0.931 . S
H33 C9 0.930 . S
H34 C11 0.930 . S
H35 C12 0.931 . S
H36 C14 0.931 . S
H37 C16 0.930 . S
H38 C18 0.930 . S
H39 C19 0.931 . S
H40 C21 0.931 . S
H41 C23 0.930 . S
H42 C25 0.930 . S
H43 C26 0.931 . S
N44 C6 1.344 . S
N44 C27 1.344 . S
N45 C13 1.343 . S
N45 C20 1.343 . S
C46 C47 1.384 . S
C46 C48 1.384 . S
C46 H74 0.931 . S
C47 C46 1.384 . S
C47 C50 1.382 1_455 S
C48 C46 1.384 . S
C48 C49 1.381 . S
C48 H75 0.930 . S
C49 C48 1.381 . S
C49 C51 1.381 1_455 S
C49 C52 1.487 . S
C50 C47 1.382 1_655 S
C50 C51 1.387 . S
C50 H76 0.930 . S
C51 C49 1.381 1_655 S
C51 C50 1.387 . S
C51 H77 0.931 . S
C52 C49 1.487 . S
C52 C59 1.399 . S
C52 N90 1.343 . S
C53 C54 1.384 1_655 S
C53 C55 1.384 . S
C53 H78 0.931 . S
C54 C53 1.384 1_455 S
C54 C57 1.382 . S
C55 C53 1.384 . S
C55 C56 1.381 1_655 S
C55 H79 0.930 . S
C56 C55 1.381 1_455 S
C56 C58 1.381 . S
C56 C59 1.487 . S
C57 C54 1.382 . S
C57 C58 1.387 . S
C57 H80 0.930 . S
C58 C56 1.381 . S
C58 C57 1.387 . S
C58 H81 0.931 . S
C59 C52 1.399 . S
C59 C56 1.487 . S
C59 N91 1.343 . S
C60 C61 1.384 1_655 S
C60 C62 1.384 . S
C60 H82 0.931 . S
C61 C60 1.384 1_455 S
C61 C64 1.382 . S
C62 C60 1.384 . S
C62 C63 1.381 1_655 S
C62 H83 0.930 . S
C63 C62 1.381 1_455 S
C63 C65 1.381 . S
C63 C66 1.487 . S
C64 C61 1.382 . S
C64 C65 1.387 . S
C64 H84 0.930 . S
C65 C63 1.381 . S
C65 C64 1.387 . S
C65 H85 0.931 . S
C66 C63 1.487 . S
C66 C73 1.399 . S
C66 N91 1.343 . S
C67 C68 1.384 . S
C67 C69 1.384 . S
C67 H86 0.931 . S
C68 C67 1.384 . S
C68 C71 1.382 1_455 S
C69 C67 1.384 . S
C69 C70 1.381 . S
C69 H87 0.930 . S
C70 C69 1.381 . S
C70 C72 1.381 1_455 S
C70 C73 1.487 . S
C71 C68 1.382 1_655 S
C71 C72 1.387 . S
C71 H88 0.930 . S
C72 C70 1.381 1_655 S
C72 C71 1.387 . S
C72 H89 0.931 . S
C73 C66 1.399 . S
C73 C70 1.487 . S
C73 N90 1.343 . S
H74 C46 0.931 . S
H75 C48 0.930 . S
H76 C50 0.930 . S
H77 C51 0.931 . S
H78 C53 0.931 . S
H79 C55 0.930 . S
H80 C57 0.930 . S
H81 C58 0.931 . S
H82 C60 0.931 . S
H83 C62 0.930 . S
H84 C64 0.930 . S
H85 C65 0.931 . S
H86 C67 0.931 . S
H87 C69 0.930 . S
H88 C71 0.930 . S
H89 C72 0.931 . S
N90 C52 1.343 . S
N90 C73 1.343 . S
N91 C59 1.343 . S
N91 C66 1.343 . S
Mg92 O93 2.028 . S
Mg92 O99 1.986 . S
Mg92 O101 2.114 1_545 S
Mg92 O102 2.251 1_545 S
Mg92 O105 2.010 . S
O93 Mg92 2.028 . S
O93 C96 1.250 1_455 S
O94 Mg95 2.028 . S
O94 C96 1.248 . S
Mg95 O94 2.028 . S
Mg95 O100 2.032 . S
Mg95 O102 2.079 1_645 S
C96 O93 1.250 1_655 S
C96 O94 1.248 . S
C97 O98 1.264 . S
C97 O105 1.249 . S
O98 C97 1.264 . S
O99 Mg92 1.986 . S
O99 C103 1.246 . S
O100 Mg95 2.032 . S
O100 C103 1.259 1_655 S
O101 Mg92 2.114 1_565 S
O101 C104 1.252 . S
O102 Mg92 2.251 1_565 S
O102 Mg95 2.079 1_465 S
O102 C104 1.273 . S
C103 O99 1.246 . S
C103 O100 1.259 1_455 S
C104 O101 1.252 . S
C104 O102 1.273 . S
O105 Mg92 2.010 . S
O105 C97 1.249 . S
Mg106 O107 2.028 1_655 S
Mg106 O113 1.986 . S
Mg106 O115 2.114 1_545 S
Mg106 O116 2.251 1_645 S
Mg106 O119 2.010 . S
O107 Mg106 2.028 1_455 S
O107 C110 1.250 . S
O108 Mg109 2.028 . S
O108 C110 1.248 . S
Mg109 O108 2.028 . S
Mg109 O114 2.032 . S
Mg109 O116 2.079 1_545 S
C110 O107 1.250 . S
C110 O108 1.248 . S
C111 O112 1.264 . S
C111 O119 1.249 . S
O112 C111 1.264 . S
O113 Mg106 1.986 . S
O113 C117 1.246 1_655 S
O114 Mg109 2.032 . S
O114 C117 1.259 . S
O115 Mg106 2.114 1_565 S
O115 C118 1.252 1_655 S
O116 Mg106 2.251 1_465 S
O116 Mg109 2.079 1_565 S
O116 C118 1.273 . S
C117 O113 1.246 1_455 S
C117 O114 1.259 . S
C118 O115 1.252 1_455 S
C118 O116 1.273 . S
O119 Mg106 2.010 . S
O119 C111 1.249 . S
C120 C121 1.387 . S
C120 H124 0.950 . S
C120 C129 1.390 . S
C121 C120 1.387 . S
C121 C123 1.387 1_545 S
H122 C129 0.950 . S
C123 C121 1.387 1_565 S
C123 C125 1.390 . S
C123 H127 0.950 . S
H124 C120 0.950 . S
C125 C123 1.390 . S
C125 C126 1.387 1_565 S
C125 H128 0.950 . S
C126 C125 1.387 1_545 S
C126 C129 1.387 . S
H127 C123 0.950 . S
H128 C125 0.950 . S
C129 C120 1.390 . S
C129 H122 0.950 . S
C129 C126 1.387 . S
C130 C131 1.387 . S
C130 H134 0.950 . S
C130 C139 1.390 . S
C131 C130 1.387 . S
C131 C133 1.387 1_455 S
H132 C139 0.950 . S
C133 C131 1.387 1_655 S
C133 C135 1.390 . S
C133 H137 0.950 . S
H134 C130 0.950 . S
C135 C133 1.390 . S
C135 C136 1.387 1_655 S
C135 H138 0.950 . S
C136 C135 1.387 1_455 S
C136 C139 1.387 . S
H137 C133 0.950 . S
H138 C135 0.950 . S
C139 C130 1.390 . S
C139 H132 0.950 . S
C139 C136 1.387 . S
C140 C141 1.387 . S
C140 H144 0.950 . S
C140 C149 1.390 . S
C141 C140 1.387 . S
C141 C143 1.387 1_545 S
H142 C149 0.950 . S
C143 C141 1.387 1_565 S
C143 C145 1.390 . S
C143 H147 0.950 . S
H144 C140 0.950 . S
C145 C143 1.390 . S
C145 C146 1.387 1_565 S
C145 H148 0.950 . S
C146 C145 1.387 1_545 S
C146 C149 1.387 . S
H147 C143 0.950 . S
H148 C145 0.950 . S
C149 C140 1.390 . S
C149 H142 0.950 . S
C149 C146 1.387 . S
C150 C151 1.387 1_655 S
C150 H154 0.950 . S
C150 C159 1.390 . S
C151 C150 1.387 1_455 S
C151 C153 1.387 . S
H152 C159 0.950 . S
C153 C151 1.387 . S
C153 C155 1.390 . S
C153 H157 0.950 . S
H154 C150 0.950 . S
C155 C153 1.390 . S
C155 C156 1.387 . S
C155 H158 0.950 . S
C156 C155 1.387 . S
C156 C159 1.387 1_455 S
H157 C153 0.950 . S
H158 C155 0.950 . S
C159 C150 1.390 . S
C159 H152 0.950 . S
C159 C156 1.387 1_655 S
C160 C161 1.387 . S
C160 H164 0.950 . S
C160 C169 1.390 . S
C161 C160 1.387 . S
C161 C163 1.387 1_545 S
H162 C169 0.950 . S
C163 C161 1.387 1_565 S
C163 C165 1.390 . S
C163 H167 0.950 . S
H164 C160 0.950 . S
C165 C163 1.390 . S
C165 C166 1.387 1_565 S
C165 H168 0.950 . S
C166 C165 1.387 1_545 S
C166 C169 1.387 . S
H167 C163 0.950 . S
H168 C165 0.950 . S
C169 C160 1.390 . S
C169 H162 0.950 . S
C169 C166 1.387 . S
C170 C171 1.387 . S
C170 H174 0.950 . S
C170 C179 1.390 . S
C171 C170 1.387 . S
C171 C173 1.387 1_455 S
H172 C179 0.950 . S
C173 C171 1.387 1_655 S
C173 C175 1.390 . S
C173 H177 0.950 . S
H174 C170 0.950 . S
C175 C173 1.390 . S
C175 C176 1.387 1_655 S
C175 H178 0.950 . S
C176 C175 1.387 1_455 S
C176 C179 1.387 . S
H177 C173 0.950 . S
H178 C175 0.950 . S
C179 C170 1.390 . S
C179 H172 0.950 . S
C179 C176 1.387 . S
C180 C181 1.387 1_565 S
C180 H184 0.950 . S
C180 C189 1.390 . S
C181 C180 1.387 1_545 S
C181 C183 1.387 . S
H182 C189 0.950 . S
C183 C181 1.387 . S
C183 C185 1.390 . S
C183 H187 0.950 . S
H184 C180 0.950 . S
C185 C183 1.390 . S
C185 C186 1.387 . S
C185 H188 0.950 . S
C186 C185 1.387 . S
C186 C189 1.387 1_545 S
H187 C183 0.950 . S
H188 C185 0.950 . S
C189 C180 1.390 . S
C189 H182 0.950 . S
C189 C186 1.387 1_565 S
C190 C191 1.387 . S
C190 H194 0.950 . S
C190 C199 1.390 . S
C191 C190 1.387 . S
C191 C193 1.387 1_455 S
H192 C199 0.950 . S
C193 C191 1.387 1_655 S
C193 C195 1.390 . S
C193 H197 0.950 . S
H194 C190 0.950 . S
C195 C193 1.390 . S
C195 C196 1.387 1_655 S
C195 H198 0.950 . S
C196 C195 1.387 1_455 S
C196 C199 1.387 . S
H197 C193 0.950 . S
H198 C195 0.950 . S
C199 C190 1.390 . S
C199 H192 0.950 . S
C199 C196 1.387 . S
C126 C97 1.265 . S
C121 C15 1.503 . S
C136 C117 1.470 . S
C131 C68 1.495 . S
C146 C96 1.461 . S
C141 C8 1.501 . S
C156 C118 1.507 . S
C151 C47 1.506 . S
C166 C110 1.461 . S
C161 C22 1.503 . S
C176 C103 1.469 . S
C171 C61 1.495 . S
C186 C111 1.259 . S
C181 C1 1.505 . S
C191 C54 1.506 . S
C196 C104 1.507 . S
