# Generated by pormake.
# Topology pto, (3,4)-cn, num edge types: 1
# Building blocks:
#     Node 0, Type 0, BuildingBlock: OLANEW_clean_sbu_2, # of connection points: 3
#     Node 1, Type 0, BuildingBlock: OLANEW_clean_sbu_2, # of connection points: 3
#     Node 2, Type 0, BuildingBlock: OLANEW_clean_sbu_2, # of connection points: 3
#     Node 3, Type 0, BuildingBlock: OLANEW_clean_sbu_2, # of connection points: 3
#     Node 4, Type 0, BuildingBlock: OLANEW_clean_sbu_2, # of connection points: 3
#     Node 5, Type 0, BuildingBlock: OLANEW_clean_sbu_2, # of connection points: 3
#     Node 6, Type 0, BuildingBlock: OLANEW_clean_sbu_2, # of connection points: 3
#     Node 7, Type 0, BuildingBlock: OLANEW_clean_sbu_2, # of connection points: 3
#     Node 8, Type 1, BuildingBlock: KUFVIS_clean_linker_0, # of connection points: 4
#     Node 9, Type 1, BuildingBlock: KUFVIS_clean_linker_0, # of connection points: 4
#     Node 10, Type 1, BuildingBlock: KUFVIS_clean_linker_0, # of connection points: 4
#     Node 11, Type 1, BuildingBlock: KUFVIS_clean_linker_0, # of connection points: 4
#     Node 12, Type 1, BuildingBlock: KUFVIS_clean_linker_0, # of connection points: 4
#     Node 13, Type 1, BuildingBlock: KUFVIS_clean_linker_0, # of connection points: 4
#     Edge 14, Type (0, 1), None
#     Edge 15, Type (0, 1), None
#     Edge 16, Type (0, 1), None
#     Edge 17, Type (0, 1), None
#     Edge 18, Type (0, 1), None
#     Edge 19, Type (0, 1), None
#     Edge 20, Type (0, 1), None
#     Edge 21, Type (0, 1), None
#     Edge 22, Type (0, 1), None
#     Edge 23, Type (0, 1), None
#     Edge 24, Type (0, 1), None
#     Edge 25, Type (0, 1), None
#     Edge 26, Type (0, 1), None
#     Edge 27, Type (0, 1), None
#     Edge 28, Type (0, 1), None
#     Edge 29, Type (0, 1), None
#     Edge 30, Type (0, 1), None
#     Edge 31, Type (0, 1), None
#     Edge 32, Type (0, 1), None
#     Edge 33, Type (0, 1), None
#     Edge 34, Type (0, 1), None
#     Edge 35, Type (0, 1), None
#     Edge 36, Type (0, 1), None
#     Edge 37, Type (0, 1), None
# Relax obj value: 0.013
# Max RMSD: 0.101
# Mean RMSD: 0.060
data_MOF--net-pto--node1-OLANEW_clean_sbu_2--node2-KUFVIS_clean_linker_0--edge1-none
_symmetry_space_group_name_H-M    P1
_symmetry_Int_Tables_number       1
_symmetry_cell_setting            triclinic
loop_
_symmetry_equiv_pos_as_xyz
'x, y, z'
_cell_length_a     15.268942
_cell_length_b     24.743515
_cell_length_c     20.534995
_cell_angle_alpha  91.6607
_cell_angle_beta   89.490588
_cell_angle_gamma 111.12925
loop_
_atom_site_label
_atom_site_type_symbol
_atom_site_fract_x
_atom_site_fract_y
_atom_site_fract_z
_atom_type_partial_charge
O0 O 0.38549 0.422 0.24689 0.0
Cd1 Cd 0.2705 0.41724 0.33084 0.0
O2 O 0.50698 0.49534 0.28635 0.0
Cd3 Cd 0.41872 0.51708 0.35867 0.0
O4 O 0.27703 0.5164 0.37077 0.0
C5 C 0.25348 0.55248 0.3395 0.0
O6 O 0.31911 0.59584 0.31192 0.0
C7 C 0.4713 0.45483 0.24409 0.0
C8 C 0.30874 0.36343 0.43798 0.0
O9 O 0.33893 0.41883 0.43588 0.0
O10 O 0.2588 0.33396 0.3903 0.0
O11 O 0.32831 0.9522 0.77354 0.0
Cd12 Cd 0.19929 0.96878 0.71863 0.0
O13 O 0.22613 0.8879 0.83375 0.0
Cd14 Cd 0.17284 0.81238 0.89506 0.0
O15 O 0.07728 0.73047 0.8537 0.0
C16 C 0.00632 0.73322 0.82399 0.0
O17 O -0.01054 0.78166 0.82886 0.0
C18 C 0.31098 0.91474 0.81759 0.0
C19 C 0.26229 0.04562 0.61679 0.0
O20 O 0.25432 0.06373 0.67488 0.0
O21 O 0.24065 0.99098 0.60681 0.0
O22 O 0.7484 0.81085 0.37169 0.0
Cd23 Cd 0.6859 0.72441 0.29863 0.0
O24 O 0.79687 0.88066 0.3004 0.0
Cd25 Cd 0.7437 0.82634 0.21312 0.0
O26 O 0.65219 0.83928 0.1388 0.0
C27 C 0.61077 0.87136 0.16313 0.0
O28 O 0.6269 0.88819 0.2246 0.0
C29 C 0.7867 0.86447 0.35908 0.0
C30 C 0.82488 0.68345 0.25398 0.0
O31 O 0.77852 0.66261 0.30552 0.0
O32 O 0.80422 0.7222 0.22436 0.0
O33 O 0.91393 0.36263 0.63199 0.0
Cd34 Cd 0.7931 0.26548 0.64564 0.0
O35 O 0.84602 0.37788 0.72076 0.0
Cd36 Cd 0.84742 0.4367 0.80046 0.0
O37 O 0.78229 0.47055 0.87585 0.0
C38 C 0.72148 0.49088 0.85772 0.0
O39 O 0.71022 0.49594 0.7951 0.0
C40 C 0.90704 0.39713 0.67687 0.0
C41 C 0.80117 0.18734 0.54816 0.0
O42 O 0.75883 0.22288 0.53971 0.0
O43 O 0.83889 0.18765 0.60374 0.0
O44 O 0.8119 0.85656 0.61026 0.0
Cd45 Cd 0.76822 0.76356 0.54698 0.0
O46 O 0.85138 0.94672 0.64464 0.0
Cd47 Cd 0.81422 0.92044 0.74549 0.0
O48 O 0.7083 0.90847 0.82232 0.0
C49 C 0.63225 0.90974 0.79905 0.0
O50 O 0.62805 0.91649 0.73602 0.0
C51 C 0.83841 0.91018 0.59739 0.0
C52 C 0.83248 0.6907 0.61784 0.0
O53 O 0.8801 0.7184 0.56976 0.0
O54 O 0.75338 0.6956 0.63054 0.0
O55 O -0.0024 0.36517 0.25468 0.0
Cd56 Cd 0.92603 0.26182 0.21688 0.0
O57 O 0.86611 0.38221 0.26496 0.0
Cd58 Cd 0.77373 0.29374 0.24173 0.0
O59 O 0.65852 0.31934 0.21432 0.0
C60 C 0.6737 0.34928 0.16346 0.0
O61 O 0.74808 0.35407 0.128 0.0
C62 C 0.95493 0.40013 0.26737 0.0
C63 C 0.87831 0.18233 0.31739 0.0
O64 O 0.95621 0.19259 0.28723 0.0
O65 O 0.82451 0.2087 0.29949 0.0
O66 O 0.38302 0.54404 0.94823 0.0
Cd67 Cd 0.24434 0.56334 0.92201 0.0
O68 O 0.38691 0.5087 0.84966 0.0
Cd69 Cd 0.4301 0.46201 0.7708 0.0
O70 O 0.4164 0.41683 0.676 0.0
C71 C 0.41731 0.3659 0.66763 0.0
O72 O 0.43194 0.3386 0.71793 0.0
C73 C 0.42124 0.52065 0.90679 0.0
C74 C 0.17479 0.53321 0.79612 0.0
O75 O 0.15401 0.4953 0.84057 0.0
O76 O 0.2333 0.58416 0.81046 0.0
O77 O 0.4173 1.01177 0.19656 0.0
Cd78 Cd 0.30322 0.04766 0.24859 0.0
O79 O 0.2916 0.95153 0.14783 0.0
Cd80 Cd 0.21899 0.86962 0.09552 0.0
O81 O 0.11083 0.78651 0.11709 0.0
C82 C 0.12949 0.74447 0.13947 0.0
O83 O 0.21747 0.74833 0.14262 0.0
C84 C 0.37982 0.96995 0.15628 0.0
C85 C 0.3302 0.08418 0.37939 0.0
O86 O 0.28736 1.03058 0.36376 0.0
O87 O 0.36349 0.11972 0.33329 0.0
H88 H 0.12316 0.44499 0.32561 0.0
H89 H 0.90849 0.49414 0.23851 0.0
H90 H 0.16804 0.62502 0.30302 0.0
H91 H 0.13837 0.64497 0.18696 0.0
H92 H 0.95759 0.74226 0.1712 0.0
H93 H 0.87546 0.59179 0.29056 0.0
C94 C 0.09728 0.47841 0.31165 0.0
C95 C 0.15484 0.537 0.3194 0.0
C96 C 0.0087 0.4623 0.28235 0.0
C97 C 0.97581 0.50599 0.26284 0.0
C98 C 0.03352 0.56499 0.26962 0.0
C99 C 0.12247 0.57983 0.29858 0.0
C100 C 0.0078 0.61149 0.24004 0.0
C101 C 0.07275 0.65063 0.19857 0.0
C102 C 0.05528 0.698 0.17383 0.0
C103 C 0.97042 0.70501 0.18915 0.0
C104 C 0.90567 0.66783 0.23186 0.0
C105 C 0.92405 0.62035 0.25672 0.0
H106 H 0.88428 0.73971 0.73255 0.0
H107 H 0.02488 0.63026 0.79938 0.0
H108 H 0.89356 0.59817 0.60946 0.0
H109 H 0.87307 0.49535 0.65615 0.0
H110 H 0.07409 0.43037 0.73435 0.0
H111 H 0.13562 0.61358 0.73228 0.0
C112 C 0.90343 0.70174 0.72576 0.0
C113 C 0.87864 0.66881 0.66758 0.0
C114 C 0.96006 0.68971 0.77197 0.0
C115 C 0.98449 0.64085 0.76201 0.0
C116 C 0.9625 0.60763 0.7032 0.0
C117 C 0.90917 0.62203 0.65562 0.0
C118 C 0.00108 0.56051 0.69297 0.0
C119 C 0.94372 0.5038 0.67357 0.0
C120 C 0.97398 0.45703 0.68359 0.0
C121 C 0.05785 0.46694 0.71776 0.0
C122 C 0.11419 0.52331 0.73796 0.0
C123 C 0.09097 0.5699 0.7177 0.0
H124 H 0.37261 0.40846 0.55773 0.0
H125 H 0.40741 0.2566 0.63267 0.0
H126 H 0.29596 0.25272 0.43995 0.0
H127 H 0.3807 0.19503 0.42206 0.0
H128 H 0.28526 1.02063 0.48926 0.0
H129 H 0.30271 0.16139 0.62278 0.0
C130 C 0.36764 0.36382 0.55151 0.0
C131 C 0.33393 0.33409 0.49243 0.0
C132 C 0.3918 0.33572 0.60318 0.0
C133 C 0.38637 0.27795 0.59373 0.0
C134 C 0.35322 0.2476 0.5344 0.0
C135 C 0.32515 0.27598 0.48489 0.0
C136 C 0.34369 0.18574 0.52393 0.0
C137 C 0.35634 0.16494 0.46135 0.0
C138 C 0.33295 0.10547 0.44791 0.0
C139 C 0.30335 0.0666 0.4992 0.0
C140 C 0.29498 0.08674 0.56293 0.0
C141 C 0.31421 0.14622 0.5746 0.0
H142 H 0.50201 0.92858 0.20886 0.0
H143 H 0.57668 0.85809 0.03142 0.0
H144 H 0.38479 0.95071 0.02868 0.0
H145 H 0.32795 0.892 0.94326 0.0
H146 H 0.46691 0.91271 0.75924 0.0
H147 H 0.61688 0.90303 0.93211 0.0
C148 C 0.49645 0.92123 0.15649 0.0
C149 C 0.4362 0.94091 0.12201 0.0
C150 C 0.54723 0.89107 0.12433 0.0
C151 C 0.53786 0.88153 0.0562 0.0
C152 C 0.47908 0.90275 0.02028 0.0
C153 C 0.42839 0.93223 0.05445 0.0
C154 C 0.47308 0.89753 0.94734 0.0
C155 C 0.39034 0.89565 0.91548 0.0
C156 C 0.38935 0.90322 0.84828 0.0
C157 C 0.46856 0.90704 0.81131 0.0
C158 C 0.54979 0.90472 0.84068 0.0
C159 C 0.55222 0.90085 0.90898 0.0
H160 H 0.82614 0.21966 0.42576 0.0
H161 H 0.80563 0.07894 0.54741 0.0
H162 H 0.89056 0.07649 0.34522 0.0
H163 H 0.81349 0.97926 0.35512 0.0
H164 H 0.81294 0.84616 0.48449 0.0
H165 H 0.88003 1.01979 0.55862 0.0
C166 C 0.83085 0.17731 0.43146 0.0
C167 C 0.85807 0.15044 0.37861 0.0
C168 C 0.81656 0.15284 0.49258 0.0
C169 C 0.82286 0.09824 0.5002 0.0
C170 C 0.84741 0.06844 0.44717 0.0
C171 C 0.86804 0.09645 0.38643 0.0
C172 C 0.84759 1.00795 0.45557 0.0
C173 C 0.82637 0.96687 0.40319 0.0
C174 C 0.81538 0.90851 0.41321 0.0
C175 C 0.82402 0.89098 0.47645 0.0
C176 C 0.84427 0.93048 0.52938 0.0
C177 C 0.86041 0.98911 0.51788 0.0
H178 H 0.56664 0.38344 0.24962 0.0
H179 H 0.6581 0.39706 0.05053 0.0
H180 H 0.50308 0.5008 0.12587 0.0
H181 H 0.4456 0.48302 0.02305 0.0
H182 H 0.57103 0.52162 0.83427 0.0
H183 H 0.71767 0.47362 -0.0133 0.0
C184 C 0.57133 0.40254 0.20223 0.0
C185 C 0.52938 0.44338 0.19262 0.0
C186 C 0.6203 0.38711 0.1514 0.0
C187 C 0.6238 0.41139 0.09017 0.0
C188 C 0.58162 0.45254 0.07963 0.0
C189 C 0.53553 0.4689 0.13201 0.0
C190 C 0.58211 0.47591 0.01342 0.0
C191 C 0.50506 0.48855 -0.0087 0.0
C192 C 0.5015 0.50578 0.92719 0.0
C193 C 0.57451 0.50914 0.88402 0.0
C194 C 0.65174 0.49625 0.905 0.0
C195 C 0.65667 0.48192 0.97022 0.0
loop_
_geom_bond_atom_site_label_1
_geom_bond_atom_site_label_2
_geom_bond_distance
_geom_bond_site_symmetry_2
_ccdc_geom_bond_type
O0 Cd1 2.300 . S
O0 C7 1.275 . S
Cd1 O0 2.300 . S
Cd1 O9 2.381 . S
Cd1 O10 2.378 . S
O2 Cd3 2.385 . S
O2 C7 1.255 . S
Cd3 O2 2.385 . S
Cd3 O4 2.317 . S
O4 Cd3 2.317 . S
O4 C5 1.232 . S
C5 O4 1.232 . S
C5 O6 1.218 . S
O6 C5 1.218 . S
C7 O0 1.275 . S
C7 O2 1.255 . S
C8 O9 1.258 . S
C8 O10 1.256 . S
O9 Cd1 2.381 . S
O9 C8 1.258 . S
O10 Cd1 2.378 . S
O10 C8 1.256 . S
O11 Cd12 2.300 . S
O11 C18 1.275 . S
Cd12 O11 2.300 . S
Cd12 O20 2.366 1_565 S
Cd12 O21 2.378 . S
O13 Cd14 2.385 . S
O13 C18 1.255 . S
Cd14 O13 2.385 . S
Cd14 O15 2.317 . S
O15 Cd14 2.317 . S
O15 C16 1.232 . S
C16 O15 1.232 . S
C16 O17 1.218 . S
O17 C16 1.218 . S
C18 O11 1.275 . S
C18 O13 1.255 . S
C19 O20 1.260 . S
C19 O21 1.256 1_545 S
O20 Cd12 2.366 1_545 S
O20 C19 1.260 . S
O21 Cd12 2.378 . S
O21 C19 1.256 1_565 S
O22 Cd23 2.300 . S
O22 C29 1.275 . S
Cd23 O22 2.300 . S
Cd23 O31 2.381 . S
Cd23 O32 2.378 . S
O24 Cd25 2.385 . S
O24 C29 1.255 . S
Cd25 O24 2.385 . S
Cd25 O26 2.317 . S
O26 Cd25 2.317 . S
O26 C27 1.232 . S
C27 O26 1.232 . S
C27 O28 1.218 . S
O28 C27 1.218 . S
C29 O22 1.275 . S
C29 O24 1.255 . S
C30 O31 1.258 . S
C30 O32 1.256 . S
O31 Cd23 2.381 . S
O31 C30 1.258 . S
O32 Cd23 2.378 . S
O32 C30 1.256 . S
O33 Cd34 2.300 . S
O33 C40 1.275 . S
Cd34 O33 2.300 . S
Cd34 O42 2.381 . S
Cd34 O43 2.378 . S
O35 Cd36 2.385 . S
O35 C40 1.255 . S
Cd36 O35 2.385 . S
Cd36 O37 2.317 . S
O37 Cd36 2.317 . S
O37 C38 1.232 . S
C38 O37 1.232 . S
C38 O39 1.218 . S
O39 C38 1.218 . S
C40 O33 1.275 . S
C40 O35 1.255 . S
C41 O42 1.258 . S
C41 O43 1.256 . S
O42 Cd34 2.381 . S
O42 C41 1.258 . S
O43 Cd34 2.378 . S
O43 C41 1.256 . S
O44 Cd45 2.300 . S
O44 C51 1.275 . S
Cd45 O44 2.300 . S
Cd45 O53 2.381 . S
Cd45 O54 2.378 . S
O46 Cd47 2.385 . S
O46 C51 1.255 . S
Cd47 O46 2.385 . S
Cd47 O48 2.317 . S
O48 Cd47 2.317 . S
O48 C49 1.232 . S
C49 O48 1.232 . S
C49 O50 1.218 . S
O50 C49 1.218 . S
C51 O44 1.275 . S
C51 O46 1.255 . S
C52 O53 1.258 . S
C52 O54 1.256 . S
O53 Cd45 2.381 . S
O53 C52 1.258 . S
O54 Cd45 2.378 . S
O54 C52 1.256 . S
O55 Cd56 2.300 . S
O55 C62 1.275 . S
Cd56 O55 2.300 . S
Cd56 O64 2.381 . S
Cd56 O65 2.378 . S
O57 Cd58 2.385 . S
O57 C62 1.255 . S
Cd58 O57 2.385 . S
Cd58 O59 2.317 . S
O59 Cd58 2.317 . S
O59 C60 1.232 . S
C60 O59 1.232 . S
C60 O61 1.218 . S
O61 C60 1.218 . S
C62 O55 1.275 . S
C62 O57 1.255 . S
C63 O64 1.258 . S
C63 O65 1.256 . S
O64 Cd56 2.381 . S
O64 C63 1.258 . S
O65 Cd56 2.378 . S
O65 C63 1.256 . S
O66 Cd67 2.300 . S
O66 C73 1.275 . S
Cd67 O66 2.300 . S
Cd67 O75 2.381 . S
Cd67 O76 2.378 . S
O68 Cd69 2.385 . S
O68 C73 1.255 . S
Cd69 O68 2.385 . S
Cd69 O70 2.317 . S
O70 Cd69 2.317 . S
O70 C71 1.232 . S
C71 O70 1.232 . S
C71 O72 1.218 . S
O72 C71 1.218 . S
C73 O66 1.275 . S
C73 O68 1.255 . S
C74 O75 1.258 . S
C74 O76 1.256 . S
O75 Cd67 2.381 . S
O75 C74 1.258 . S
O76 Cd67 2.378 . S
O76 C74 1.256 . S
O77 Cd78 2.300 . S
O77 C84 1.275 . S
Cd78 O77 2.300 . S
Cd78 O86 2.381 . S
Cd78 O87 2.378 . S
O79 Cd80 2.385 . S
O79 C84 1.255 . S
Cd80 O79 2.385 . S
Cd80 O81 2.317 . S
O81 Cd80 2.317 . S
O81 C82 1.232 . S
C82 O81 1.232 . S
C82 O83 1.218 . S
O83 C82 1.218 . S
C84 O77 1.275 . S
C84 O79 1.255 . S
C85 O86 1.258 1_545 S
C85 O87 1.256 1_545 S
O86 Cd78 2.381 . S
O86 C85 1.258 1_565 S
O87 Cd78 2.378 . S
O87 C85 1.256 1_565 S
H88 C94 0.930 . S
H89 C97 0.931 . S
H90 C99 0.931 . S
H91 C101 0.930 . S
H92 C103 0.930 . S
H93 C105 0.931 . S
C94 H88 0.930 . S
C94 C95 1.380 . S
C94 C96 1.394 1_455 S
C95 C94 1.380 . S
C95 C99 1.382 . S
C96 C94 1.394 1_655 S
C96 C97 1.400 . S
C97 H89 0.931 . S
C97 C96 1.400 . S
C97 C98 1.375 1_655 S
C98 C97 1.375 1_455 S
C98 C99 1.415 . S
C98 C100 1.501 . S
C99 H90 0.931 . S
C99 C95 1.382 . S
C99 C98 1.415 . S
C100 C98 1.501 . S
C100 C101 1.384 . S
C100 C105 1.408 1_455 S
C101 H91 0.930 . S
C101 C100 1.384 . S
C101 C102 1.389 . S
C102 C101 1.389 . S
C102 C103 1.405 . S
C103 H92 0.930 . S
C103 C102 1.405 . S
C103 C104 1.364 1_455 S
C104 C103 1.364 1_655 S
C104 C105 1.400 . S
C105 H93 0.931 . S
C105 C100 1.408 1_655 S
C105 C104 1.400 . S
H106 C112 0.930 . S
H107 C115 0.931 . S
H108 C117 0.931 . S
H109 C119 0.930 . S
H110 C121 0.930 . S
H111 C123 0.931 . S
C112 H106 0.930 . S
C112 C113 1.380 1_455 S
C112 C114 1.394 . S
C113 C112 1.380 1_655 S
C113 C117 1.382 . S
C114 C112 1.394 . S
C114 C115 1.400 . S
C115 H107 0.931 . S
C115 C114 1.400 . S
C115 C116 1.375 . S
C116 C115 1.375 . S
C116 C117 1.415 1_455 S
C116 C118 1.501 1_455 S
C117 H108 0.931 . S
C117 C113 1.382 . S
C117 C116 1.415 1_655 S
C118 C116 1.501 1_655 S
C118 C119 1.384 . S
C118 C123 1.408 1_655 S
C119 H109 0.930 . S
C119 C118 1.384 . S
C119 C120 1.389 . S
C120 C119 1.389 . S
C120 C121 1.405 . S
C121 H110 0.930 . S
C121 C120 1.405 . S
C121 C122 1.364 1_655 S
C122 C121 1.364 1_455 S
C122 C123 1.400 . S
C123 H111 0.931 . S
C123 C118 1.408 1_455 S
C123 C122 1.400 . S
H124 C130 0.930 . S
H125 C133 0.931 . S
H126 C135 0.931 . S
H127 C137 0.930 . S
H128 C139 0.930 1_565 S
H129 C141 0.931 . S
C130 H124 0.930 . S
C130 C131 1.380 . S
C130 C132 1.394 . S
C131 C130 1.380 . S
C131 C135 1.382 . S
C132 C130 1.394 . S
C132 C133 1.400 . S
C133 H125 0.931 . S
C133 C132 1.400 . S
C133 C134 1.375 . S
C134 C133 1.375 . S
C134 C135 1.415 . S
C134 C136 1.501 . S
C135 H126 0.931 . S
C135 C131 1.382 . S
C135 C134 1.415 . S
C136 C134 1.501 . S
C136 C137 1.384 . S
C136 C141 1.408 . S
C137 H127 0.930 . S
C137 C136 1.384 . S
C137 C138 1.389 . S
C138 C137 1.389 . S
C138 C139 1.405 . S
C139 H128 0.930 1_545 S
C139 C138 1.405 . S
C139 C140 1.364 . S
C140 C139 1.364 . S
C140 C141 1.400 . S
C141 H129 0.931 . S
C141 C136 1.408 . S
C141 C140 1.400 . S
H142 C148 0.930 . S
H143 C151 0.931 . S
H144 C153 0.931 . S
H145 C155 0.930 . S
H146 C157 0.930 . S
H147 C159 0.931 . S
C148 H142 0.930 . S
C148 C149 1.380 . S
C148 C150 1.394 . S
C149 C148 1.380 . S
C149 C153 1.382 . S
C150 C148 1.394 . S
C150 C151 1.400 . S
C151 H143 0.931 . S
C151 C150 1.400 . S
C151 C152 1.375 . S
C152 C151 1.375 . S
C152 C153 1.415 . S
C152 C154 1.501 1_554 S
C153 H144 0.931 . S
C153 C149 1.382 . S
C153 C152 1.415 . S
C154 C152 1.501 1_556 S
C154 C155 1.384 . S
C154 C159 1.408 . S
C155 H145 0.930 . S
C155 C154 1.384 . S
C155 C156 1.389 . S
C156 C155 1.389 . S
C156 C157 1.405 . S
C157 H146 0.930 . S
C157 C156 1.405 . S
C157 C158 1.364 . S
C158 C157 1.364 . S
C158 C159 1.400 . S
C159 H147 0.931 . S
C159 C154 1.408 . S
C159 C158 1.400 . S
H160 C166 0.930 . S
H161 C169 0.931 . S
H162 C171 0.931 . S
H163 C173 0.941 . S
H164 C175 0.930 . S
H165 C177 0.931 1_545 S
C166 H160 0.930 . S
C166 C167 1.380 . S
C166 C168 1.394 . S
C167 C166 1.380 . S
C167 C171 1.382 . S
C168 C166 1.394 . S
C168 C169 1.400 . S
C169 H161 0.931 . S
C169 C168 1.400 . S
C169 C170 1.375 . S
C170 C169 1.375 . S
C170 C171 1.415 . S
C170 C172 1.501 . S
C171 H162 0.931 . S
C171 C167 1.382 . S
C171 C170 1.415 . S
C172 C170 1.501 . S
C172 C173 1.384 1_545 S
C172 C177 1.408 1_545 S
C173 H163 0.941 . S
C173 C172 1.384 1_565 S
C173 C174 1.389 . S
C174 C173 1.389 . S
C174 C175 1.405 . S
C175 H164 0.930 . S
C175 C174 1.405 . S
C175 C176 1.364 . S
C176 C175 1.364 . S
C176 C177 1.400 . S
C177 H165 0.931 1_565 S
C177 C172 1.408 1_565 S
C177 C176 1.400 . S
H178 C184 0.930 . S
H179 C187 0.931 . S
H180 C189 0.931 . S
H181 C191 0.930 . S
H182 C193 0.930 . S
H183 C195 0.931 . S
C184 H178 0.930 . S
C184 C185 1.380 . S
C184 C186 1.394 . S
C185 C184 1.380 . S
C185 C189 1.382 . S
C186 C184 1.394 . S
C186 C187 1.400 . S
C187 H179 0.931 . S
C187 C186 1.400 . S
C187 C188 1.375 . S
C188 C187 1.375 . S
C188 C189 1.415 . S
C188 C190 1.501 1_554 S
C189 H180 0.931 . S
C189 C185 1.382 . S
C189 C188 1.415 . S
C190 C188 1.501 1_556 S
C190 C191 1.384 . S
C190 C195 1.408 . S
C191 H181 0.930 . S
C191 C190 1.384 . S
C191 C192 1.389 . S
C192 C191 1.389 . S
C192 C193 1.405 . S
C193 H182 0.930 . S
C193 C192 1.405 . S
C193 C194 1.364 . S
C194 C193 1.364 . S
C194 C195 1.400 . S
C195 H183 0.931 . S
C195 C190 1.408 . S
C195 C194 1.400 . S
C95 C5 2.016 . S
C114 C16 1.596 . S
C104 C30 1.753 . S
C120 C40 1.654 . S
C131 C8 1.461 . S
C156 C18 1.216 . S
C29 C174 1.798 . S
C194 C38 1.241 . S
C140 C19 1.569 . S
C27 C150 1.355 . S
C168 C41 1.581 . S
C185 C7 1.359 . S
C52 C113 1.701 . S
C96 C62 1.634 . S
C74 C122 1.732 . S
C82 C102 1.412 . S
C176 C51 1.880 . S
C186 C60 1.156 . S
C132 C71 1.088 . S
C84 C149 1.305 . S
C167 C63 1.680 . S
C192 C73 1.293 . S
C138 C85 1.555 . S
C49 C158 1.203 . S
