# Generated by pormake.
# Topology rtl, (3,6)-cn, num edge types: 1
# Building blocks:
#     Node 0, Type 0, BuildingBlock: BETDIP_clean_linker_0, # of connection points: 3
#     Node 1, Type 0, BuildingBlock: BETDIP_clean_linker_0, # of connection points: 3
#     Node 2, Type 0, BuildingBlock: BETDIP_clean_linker_0, # of connection points: 3
#     Node 3, Type 0, BuildingBlock: BETDIP_clean_linker_0, # of connection points: 3
#     Node 4, Type 1, BuildingBlock: CIFDUS_clean_sbu_1, # of connection points: 6
#     Node 5, Type 1, BuildingBlock: CIFDUS_clean_sbu_1, # of connection points: 6
#     Edge 6, Type (0, 1), BuildingBlock: AJUNOK_clean_linker_0, # of connection points: 2
#     Edge 7, Type (0, 1), BuildingBlock: AJUNOK_clean_linker_0, # of connection points: 2
#     Edge 8, Type (0, 1), BuildingBlock: AJUNOK_clean_linker_0, # of connection points: 2
#     Edge 9, Type (0, 1), BuildingBlock: AJUNOK_clean_linker_0, # of connection points: 2
#     Edge 10, Type (0, 1), BuildingBlock: AJUNOK_clean_linker_0, # of connection points: 2
#     Edge 11, Type (0, 1), BuildingBlock: AJUNOK_clean_linker_0, # of connection points: 2
#     Edge 12, Type (0, 1), BuildingBlock: AJUNOK_clean_linker_0, # of connection points: 2
#     Edge 13, Type (0, 1), BuildingBlock: AJUNOK_clean_linker_0, # of connection points: 2
#     Edge 14, Type (0, 1), BuildingBlock: AJUNOK_clean_linker_0, # of connection points: 2
#     Edge 15, Type (0, 1), BuildingBlock: AJUNOK_clean_linker_0, # of connection points: 2
#     Edge 16, Type (0, 1), BuildingBlock: AJUNOK_clean_linker_0, # of connection points: 2
#     Edge 17, Type (0, 1), BuildingBlock: AJUNOK_clean_linker_0, # of connection points: 2
# Relax obj value: 0.018
# Max RMSD: 0.110
# Mean RMSD: 0.085
data_MOF--net-rtl--node1-CIFDUS_clean_sbu_1--node2-BETDIP_clean_linker_0--edge1-AJUNOK_clean_linker_0
_symmetry_space_group_name_H-M    P1
_symmetry_Int_Tables_number       1
_symmetry_cell_setting            triclinic
loop_
_symmetry_equiv_pos_as_xyz
'x, y, z'
_cell_length_a     26.006304
_cell_length_b     26.102056
_cell_length_c     15.90366
_cell_angle_alpha  91.310029
_cell_angle_beta   100.20479
_cell_angle_gamma 89.711699
loop_
_atom_site_label
_atom_site_type_symbol
_atom_site_fract_x
_atom_site_fract_y
_atom_site_fract_z
_atom_type_partial_charge
H0 H 0.23661 0.84864 0.96938 0.0
H1 H 0.2525 0.83871 0.24233 0.0
H2 H 0.13657 0.93794 0.10438 0.0
H3 H 0.27557 0.75238 0.20723 0.0
C4 C 0.30168 0.76163 0.1635 0.0
C5 C 0.22329 0.85942 0.02813 0.0
C6 C 0.1835 0.89607 0.0273 0.0
C7 C 0.24709 0.83732 0.10508 0.0
C8 C 0.23234 0.85363 0.18245 0.0
C9 C 0.19301 0.89078 0.18277 0.0
C10 C 0.16813 0.91057 0.10478 0.0
N11 N 0.28777 0.80098 0.10308 0.0
H12 H 0.72896 0.73741 0.7479 0.0
H13 H 0.71312 0.75293 0.47582 0.0
H14 H 0.62151 0.64097 0.57631 0.0
H15 H 0.82643 0.75406 0.69826 0.0
C16 C 0.812 0.79005 0.66995 0.0
C17 C 0.71136 0.72511 0.68379 0.0
C18 C 0.67406 0.68519 0.6713 0.0
C19 C 0.72499 0.74997 0.61305 0.0
C20 C 0.70186 0.73448 0.53018 0.0
C21 C 0.66513 0.69482 0.51695 0.0
C22 C 0.6508 0.67096 0.58734 0.0
N23 N 0.76019 0.79203 0.62306 0.0
H24 H 0.79961 0.23267 0.86875 0.0
H25 H 0.82845 0.23315 0.14345 0.0
H26 H 0.90452 0.12196 1.00457 0.0
H27 H 0.72137 0.26924 0.89333 0.0
C28 C 0.73547 0.29607 0.94539 0.0
C29 C 0.81945 0.21682 0.92798 0.0
C30 C 0.85434 0.17537 0.92609 0.0
C31 C 0.81092 0.23853 1.00631 0.0
C32 C 0.83617 0.21752 0.08318 0.0
C33 C 0.86857 0.17453 0.08242 0.0
C34 C 0.87821 0.15434 1.00412 0.0
N35 N 0.77796 0.28193 1.01022 0.0
H36 H 0.29876 0.3442 0.34452 0.0
H37 H 0.3143 0.32069 0.61439 0.0
H38 H 0.41186 0.43102 0.52106 0.0
H39 H 0.30629 0.22809 0.52597 0.0
C40 C 0.268 0.24059 0.49399 0.0
C41 C 0.31754 0.35376 0.40935 0.0
C42 C 0.35731 0.39076 0.42432 0.0
C43 C 0.3027 0.32776 0.47722 0.0
C44 C 0.32673 0.33989 0.5617 0.0
C45 C 0.36602 0.37749 0.57807 0.0
C46 C 0.38121 0.40243 0.50891 0.0
N47 N 0.26258 0.29037 0.45929 0.0
O48 O 0.97892 0.06526 0.4426 0.0
Mn49 Mn 0.0203 0.02948 0.55254 0.0
O50 O 0.94162 1.00152 0.35837 0.0
Mn51 Mn 0.972 0.95087 0.42802 0.0
O52 O 0.06208 0.99544 0.66292 0.0
O53 O 0.06972 0.09264 0.56759 0.0
Mn54 Mn 0.06488 0.11211 0.67303 0.0
O55 O 0.96525 0.06149 0.62416 0.0
O56 O 0.0922 0.06229 0.74763 0.0
O57 O 0.07494 0.9972 0.48164 0.0
O58 O 0.03612 0.92914 0.411 0.0
O59 O 0.10846 0.15885 0.64616 0.0
O60 O 0.99978 0.13496 0.68025 0.0
C61 C 0.94129 0.92428 0.52845 0.0
C62 C 0.94952 0.04889 0.37367 0.0
C63 C 0.08759 0.01428 0.7335 0.0
C64 C 0.10135 0.13237 0.57507 0.0
C65 C 0.96159 0.10467 0.6635 0.0
C66 C 0.07612 0.95655 0.43476 0.0
O67 O 0.97188 0.96502 0.53783 0.0
O68 O 0.93003 0.90232 0.4535 0.0
O69 O 0.55561 0.58089 0.15086 0.0
Mn70 Mn 0.51963 0.5333 0.04884 0.0
O71 O 0.60622 0.5296 0.24202 0.0
Mn72 Mn 0.58069 0.47025 0.18681 0.0
O73 O 0.48366 0.48537 0.94649 0.0
O74 O 0.46426 0.59006 0.02292 0.0
Mn75 Mn 0.45292 0.59381 0.91021 0.0
O76 O 0.56716 0.56659 0.96981 0.0
O77 O 0.4246 0.53333 0.86322 0.0
O78 O 0.47077 0.50135 0.12714 0.0
O79 O 0.51953 0.44602 0.21254 0.0
O80 O 0.40974 0.64187 0.94176 0.0
O81 O 0.51355 0.61512 0.87716 0.0
C82 C 0.61235 0.44073 0.08593 0.0
C83 C 0.58936 0.57365 0.21899 0.0
C84 C 0.44566 0.49043 0.88336 0.0
C85 C 0.42968 0.62701 0.01779 0.0
C86 C 0.55877 0.59858 0.90829 0.0
C87 C 0.47601 0.46669 0.1842 0.0
O88 O 0.57623 0.47663 0.07485 0.0
O89 O 0.62728 0.42418 0.16267 0.0
C90 C 0.17105 0.22454 0.46684 0.0
C91 C 0.22241 0.20589 0.48919 0.0
C92 C 0.12818 0.19496 0.47945 0.0
C93 C 0.13515 0.14578 0.51425 0.0
H94 H 0.16402 0.2636 0.44623 0.0
H95 H 0.09007 0.21305 0.47152 0.0
S96 S 0.26069 0.07642 0.56889 0.0
N97 N 0.27713 0.13271 0.53638 0.0
N98 N 0.19641 0.07738 0.55961 0.0
C99 C 0.18558 0.1247 0.5271 0.0
C100 C 0.22933 0.15489 0.51535 0.0
C101 C 0.38777 0.7431 0.12089 0.0
C102 C 0.34377 0.72529 0.15125 0.0
C103 C 0.4227 0.70879 0.09189 0.0
C104 C 0.41413 0.65555 0.08998 0.0
H105 H 0.39348 0.78383 0.11446 0.0
H106 H 0.45313 0.7243 0.06128 0.0
S107 S 0.3082 0.58958 0.17242 0.0
N108 N 0.29716 0.65114 0.18843 0.0
N109 N 0.36146 0.58662 0.12913 0.0
C110 C 0.37314 0.6372 0.12766 0.0
C111 C 0.33809 0.6722 0.15917 0.0
C112 C 0.90042 0.81389 0.64302 0.0
C113 C 0.85047 0.82938 0.65552 0.0
C114 C 0.93424 0.84834 0.61367 0.0
C115 C 0.91979 0.89973 0.59714 0.0
H116 H 0.91186 0.774 0.64942 0.0
H117 H 0.96993 0.83343 0.596 0.0
S118 S 0.79704 0.96133 0.63428 0.0
N119 N 0.79077 0.90091 0.65967 0.0
N120 N 0.85482 0.96567 0.60533 0.0
C121 C 0.87205 0.91672 0.61712 0.0
C122 C 0.83716 0.88148 0.6458 0.0
C123 C 0.72523 0.38367 1.00736 0.0
C124 C 0.70253 0.34074 0.96051 0.0
C125 C 0.69409 0.42216 0.03552 0.0
C126 C 0.63918 0.41866 0.01951 0.0
H127 H 0.76727 0.38618 0.0265 0.0
H128 H 0.71322 0.45208 0.07807 0.0
S129 S 0.56087 0.31605 0.89353 0.0
N130 N 0.62208 0.29945 0.89169 0.0
N131 N 0.56361 0.37065 0.94885 0.0
C132 C 0.61609 0.37808 0.96705 0.0
C133 C 0.64783 0.33926 0.93673 0.0
C134 C 0.16648 0.96149 0.27652 0.0
C135 C 0.17606 0.90885 0.26314 0.0
C136 C 0.13967 0.97843 0.34137 0.0
C137 C 0.12159 0.94321 0.39483 0.0
H138 H 0.1769 0.98948 0.23316 0.0
H139 H 0.12881 0.01849 0.34423 0.0
S140 S 0.14295 0.80272 0.39498 0.0
N141 N 0.17009 0.8227 0.31533 0.0
N142 N 0.12055 0.85465 0.43756 0.0
C143 C 0.13537 0.89136 0.38749 0.0
C144 C 0.16239 0.87408 0.32153 0.0
C145 C 0.63894 0.691 0.80826 0.0
C146 C 0.65605 0.66038 0.74464 0.0
C147 C 0.6117 0.66957 0.86766 0.0
C148 C 0.6015 0.61667 0.86683 0.0
H149 H 0.64315 0.73227 0.80827 0.0
H150 H 0.59547 0.69503 0.91101 0.0
S151 S 0.64217 0.51896 0.71945 0.0
N152 N 0.66454 0.5735 0.68941 0.0
N153 N 0.61311 0.53372 0.80113 0.0
C154 C 0.6214 0.58514 0.80767 0.0
C155 C 0.64874 0.60688 0.74658 0.0
C156 C 0.9258 0.16427 0.22732 0.0
C157 C 0.88639 0.14571 0.16145 0.0
C158 C 0.94498 0.13396 0.29858 0.0
C159 C 0.92495 0.08443 0.30599 0.0
H160 H 0.94296 0.20155 0.22229 0.0
H161 H 0.97681 0.1486 0.34624 0.0
S162 S 0.81692 0.02187 0.15382 0.0
N163 N 0.82559 0.07727 0.11058 0.0
N164 N 0.85964 0.02102 0.24377 0.0
C165 C 0.8835 0.06715 0.24196 0.0
C166 C 0.86478 0.09757 0.16987 0.0
C167 C 0.35521 0.41166 0.72196 0.0
C168 C 0.38864 0.39416 0.66693 0.0
C169 C 0.37493 0.43836 0.79827 0.0
C170 C 0.42877 0.44773 0.82295 0.0
H171 H 0.31324 0.40827 0.7028 0.0
H172 H 0.34754 0.45506 0.83516 0.0
S173 S 0.53314 0.40524 0.70616 0.0
N174 N 0.47862 0.38385 0.64644 0.0
N175 N 0.51544 0.43457 0.7897 0.0
C176 C 0.46294 0.42704 0.77205 0.0
C177 C 0.44289 0.40018 0.69395 0.0
C178 C 0.68033 0.6468 0.38747 0.0
C179 C 0.64569 0.67418 0.43 0.0
C180 C 0.66187 0.61799 0.31318 0.0
C181 C 0.60828 0.61623 0.27823 0.0
H182 H 0.72149 0.64484 0.415 0.0
H183 H 0.68933 0.59427 0.28586 0.0
S184 S 0.50247 0.68594 0.36049 0.0
N185 N 0.55607 0.70131 0.42887 0.0
N186 N 0.52133 0.64764 0.28747 0.0
C187 C 0.5737 0.64655 0.31644 0.0
C188 C 0.59244 0.67529 0.39315 0.0
C189 C 0.87729 0.10243 0.83158 0.0
C190 C 0.86859 0.1554 0.84409 0.0
C191 C 0.90135 0.08409 0.76405 0.0
C192 C 0.91702 0.11807 0.70618 0.0
H193 H 0.8683 0.07517 0.87722 0.0
H194 H 0.91209 0.04397 0.76217 0.0
S195 S 0.89674 0.25871 0.70186 0.0
N196 N 0.87368 0.24054 0.78664 0.0
N197 N 0.91595 0.20564 0.65828 0.0
C198 C 0.90338 0.17005 0.7124 0.0
C199 C 0.88005 0.1889 0.78176 0.0
C200 C 0.39143 0.38141 0.28753 0.0
C201 C 0.37722 0.41379 0.35161 0.0
C202 C 0.41897 0.40027 0.22669 0.0
C203 C 0.43255 0.45229 0.22671 0.0
H204 H 0.3845 0.34053 0.28795 0.0
H205 H 0.43286 0.37333 0.18289 0.0
S206 S 0.40057 0.55394 0.37552 0.0
N207 N 0.375 0.50136 0.40678 0.0
N208 N 0.42759 0.53647 0.29277 0.0
C209 C 0.41572 0.48574 0.28668 0.0
C210 C 0.38789 0.46654 0.34914 0.0
C211 C 0.15552 0.97692 0.95371 0.0
C212 C 0.16059 0.92348 0.94833 0.0
C213 C 0.13178 1.00486 0.88402 0.0
C214 C 0.11227 0.98109 0.80433 0.0
H215 H 0.17001 0.9977 1.01288 0.0
H216 H 0.12868 0.04589 0.89376 0.0
S217 S 0.11766 0.84173 0.75469 0.0
N218 N 0.14515 0.84721 0.85649 0.0
N219 N 0.10109 0.9004 0.72335 0.0
C220 C 0.11784 0.92754 0.7969 0.0
C221 C 0.14211 0.89868 0.86909 0.0
loop_
_geom_bond_atom_site_label_1
_geom_bond_atom_site_label_2
_geom_bond_distance
_geom_bond_site_symmetry_2
_ccdc_geom_bond_type
H0 C5 0.930 . S
H1 C8 0.930 . S
H2 C10 0.930 . S
H3 C4 1.016 . S
C4 H3 1.016 . S
C4 N11 1.286 . S
C5 H0 0.930 . S
C5 C6 1.397 . S
C5 C7 1.361 1_556 S
C6 C5 1.397 . S
C6 C10 1.390 1_556 S
C7 C5 1.361 1_554 S
C7 C8 1.393 . S
C7 N11 1.413 . S
C8 H1 0.930 . S
C8 C7 1.393 . S
C8 C9 1.399 . S
C9 C8 1.399 . S
C9 C10 1.381 . S
C10 H2 0.930 . S
C10 C6 1.390 1_554 S
C10 C9 1.381 . S
N11 C4 1.286 . S
N11 C7 1.413 . S
H12 C17 0.930 . S
H13 C20 0.930 . S
H14 C22 0.930 . S
H15 C16 1.016 . S
C16 H15 1.016 . S
C16 N23 1.286 . S
C17 H12 0.930 . S
C17 C18 1.397 . S
C17 C19 1.361 . S
C18 C17 1.397 . S
C18 C22 1.390 . S
C19 C17 1.361 . S
C19 C20 1.393 . S
C19 N23 1.413 . S
C20 H13 0.930 . S
C20 C19 1.393 . S
C20 C21 1.399 . S
C21 C20 1.399 . S
C21 C22 1.381 . S
C22 H14 0.930 . S
C22 C18 1.390 . S
C22 C21 1.381 . S
N23 C16 1.286 . S
N23 C19 1.413 . S
H24 C29 0.930 . S
H25 C32 0.930 . S
H26 C34 0.930 . S
H27 C28 1.016 . S
C28 H27 1.016 . S
C28 N35 1.286 1_554 S
C29 H24 0.930 . S
C29 C30 1.397 . S
C29 C31 1.361 . S
C30 C29 1.397 . S
C30 C34 1.390 1_556 S
C31 C29 1.361 . S
C31 C32 1.393 1_556 S
C31 N35 1.413 . S
C32 H25 0.930 . S
C32 C31 1.393 1_554 S
C32 C33 1.399 . S
C33 C32 1.399 . S
C33 C34 1.381 . S
C34 H26 0.930 . S
C34 C30 1.390 1_554 S
C34 C33 1.381 . S
N35 C28 1.286 1_556 S
N35 C31 1.413 . S
H36 C41 0.930 . S
H37 C44 0.930 . S
H38 C46 0.930 . S
H39 C40 1.016 . S
C40 H39 1.016 . S
C40 N47 1.286 . S
C41 H36 0.930 . S
C41 C42 1.397 . S
C41 C43 1.361 . S
C42 C41 1.397 . S
C42 C46 1.390 . S
C43 C41 1.361 . S
C43 C44 1.393 . S
C43 N47 1.413 . S
C44 H37 0.930 . S
C44 C43 1.393 . S
C44 C45 1.399 . S
C45 C44 1.399 . S
C45 C46 1.381 . S
C46 H38 0.930 . S
C46 C42 1.390 . S
C46 C45 1.381 . S
N47 C40 1.286 . S
N47 C43 1.413 . S
O48 Mn49 2.163 1_655 S
O48 C62 1.244 . S
Mn49 O48 2.163 1_455 S
Mn49 O52 2.160 1_545 S
Mn49 O53 2.221 . S
Mn49 O55 2.163 1_455 S
Mn49 O57 2.160 1_545 S
Mn49 O67 2.221 1_445 S
O50 Mn51 2.087 1_545 S
O50 C62 1.256 . S
Mn51 O50 2.087 1_565 S
Mn51 O58 2.089 1_655 S
Mn51 O67 2.290 . S
Mn51 O68 2.251 . S
O52 Mn49 2.160 1_565 S
O52 C63 1.239 . S
O53 Mn49 2.221 . S
O53 Mn54 2.290 . S
O53 C64 1.278 . S
Mn54 O53 2.290 . S
Mn54 O56 2.089 . S
Mn54 O59 2.251 . S
Mn54 O60 2.087 . S
O55 Mn49 2.163 1_655 S
O55 C65 1.244 . S
O56 Mn54 2.089 . S
O56 C63 1.256 1_545 S
O57 Mn49 2.160 1_565 S
O57 C66 1.239 . S
O58 Mn51 2.089 1_455 S
O58 C66 1.256 . S
O59 Mn54 2.251 . S
O59 C64 1.241 . S
O60 Mn54 2.087 . S
O60 C65 1.256 1_455 S
C61 O67 1.278 . S
C61 O68 1.241 . S
C62 O48 1.244 . S
C62 O50 1.256 . S
C63 O52 1.239 . S
C63 O56 1.256 1_565 S
C64 O53 1.278 . S
C64 O59 1.241 . S
C65 O55 1.244 . S
C65 O60 1.256 1_655 S
C66 O57 1.239 . S
C66 O58 1.256 . S
O67 Mn49 2.221 1_665 S
O67 Mn51 2.290 . S
O67 C61 1.278 . S
O68 Mn51 2.251 . S
O68 C61 1.241 . S
O69 Mn70 2.163 . S
O69 C83 1.244 . S
Mn70 O69 2.163 . S
Mn70 O73 2.160 1_554 S
Mn70 O74 2.221 . S
Mn70 O76 2.163 1_554 S
Mn70 O78 2.160 . S
Mn70 O88 2.221 . S
O71 Mn72 2.087 . S
O71 C83 1.256 . S
Mn72 O71 2.087 . S
Mn72 O79 2.089 . S
Mn72 O88 2.290 . S
Mn72 O89 2.251 . S
O73 Mn70 2.160 1_556 S
O73 C84 1.239 . S
O74 Mn70 2.221 . S
O74 Mn75 2.290 1_554 S
O74 C85 1.278 . S
Mn75 O74 2.290 1_556 S
Mn75 O77 2.089 . S
Mn75 O80 2.251 . S
Mn75 O81 2.087 . S
O76 Mn70 2.163 1_556 S
O76 C86 1.244 . S
O77 Mn75 2.089 . S
O77 C84 1.256 . S
O78 Mn70 2.160 . S
O78 C87 1.239 . S
O79 Mn72 2.089 . S
O79 C87 1.256 . S
O80 Mn75 2.251 . S
O80 C85 1.241 1_556 S
O81 Mn75 2.087 . S
O81 C86 1.256 . S
C82 O88 1.278 . S
C82 O89 1.241 . S
C83 O69 1.244 . S
C83 O71 1.256 . S
C84 O73 1.239 . S
C84 O77 1.256 . S
C85 O74 1.278 . S
C85 O80 1.241 1_554 S
C86 O76 1.244 . S
C86 O81 1.256 . S
C87 O78 1.239 . S
C87 O79 1.256 . S
O88 Mn70 2.221 . S
O88 Mn72 2.290 . S
O88 C82 1.278 . S
O89 Mn72 2.251 . S
O89 C82 1.241 . S
C90 C91 1.369 . S
C90 C92 1.419 . S
C90 H94 0.930 . S
C91 C90 1.369 . S
C91 C100 1.429 . S
C92 C90 1.419 . S
C92 C93 1.363 . S
C92 H95 0.929 . S
C93 C92 1.363 . S
C93 C99 1.428 . S
H94 C90 0.930 . S
H95 C92 0.929 . S
S96 N97 1.613 . S
S96 N98 1.610 . S
N97 S96 1.613 . S
N97 C100 1.350 . S
N98 S96 1.610 . S
N98 C99 1.351 . S
C99 C93 1.428 . S
C99 N98 1.351 . S
C99 C100 1.434 . S
C100 C91 1.429 . S
C100 N97 1.350 . S
C100 C99 1.434 . S
C101 C102 1.369 . S
C101 C103 1.419 . S
C101 H105 0.930 . S
C102 C101 1.369 . S
C102 C111 1.429 . S
C103 C101 1.419 . S
C103 C104 1.363 . S
C103 H106 0.929 . S
C104 C103 1.363 . S
C104 C110 1.428 . S
H105 C101 0.930 . S
H106 C103 0.929 . S
S107 N108 1.613 . S
S107 N109 1.610 . S
N108 S107 1.613 . S
N108 C111 1.350 . S
N109 S107 1.610 . S
N109 C110 1.351 . S
C110 C104 1.428 . S
C110 N109 1.351 . S
C110 C111 1.434 . S
C111 C102 1.429 . S
C111 N108 1.350 . S
C111 C110 1.434 . S
C112 C113 1.369 . S
C112 C114 1.419 . S
C112 H116 0.930 . S
C113 C112 1.369 . S
C113 C122 1.429 . S
C114 C112 1.419 . S
C114 C115 1.363 . S
C114 H117 0.929 . S
C115 C114 1.363 . S
C115 C121 1.428 . S
H116 C112 0.930 . S
H117 C114 0.929 . S
S118 N119 1.613 . S
S118 N120 1.610 . S
N119 S118 1.613 . S
N119 C122 1.350 . S
N120 S118 1.610 . S
N120 C121 1.351 . S
C121 C115 1.428 . S
C121 N120 1.351 . S
C121 C122 1.434 . S
C122 C113 1.429 . S
C122 N119 1.350 . S
C122 C121 1.434 . S
C123 C124 1.369 . S
C123 C125 1.419 . S
C123 H127 0.930 . S
C124 C123 1.369 . S
C124 C133 1.429 1_554 S
C125 C123 1.419 . S
C125 C126 1.363 . S
C125 H128 0.929 . S
C126 C125 1.363 . S
C126 C132 1.428 1_554 S
H127 C123 0.930 . S
H128 C125 0.929 . S
S129 N130 1.613 . S
S129 N131 1.610 . S
N130 S129 1.613 . S
N130 C133 1.350 . S
N131 S129 1.610 . S
N131 C132 1.351 . S
C132 C126 1.428 1_556 S
C132 N131 1.351 . S
C132 C133 1.434 . S
C133 C124 1.429 1_556 S
C133 N130 1.350 . S
C133 C132 1.434 . S
C134 C135 1.369 . S
C134 C136 1.419 . S
C134 H138 0.930 . S
C135 C134 1.369 . S
C135 C144 1.429 . S
C136 C134 1.419 . S
C136 C137 1.363 . S
C136 H139 0.929 . S
C137 C136 1.363 . S
C137 C143 1.428 . S
H138 C134 0.930 . S
H139 C136 0.929 . S
S140 N141 1.613 . S
S140 N142 1.610 . S
N141 S140 1.613 . S
N141 C144 1.350 . S
N142 S140 1.610 . S
N142 C143 1.351 . S
C143 C137 1.428 . S
C143 N142 1.351 . S
C143 C144 1.434 . S
C144 C135 1.429 . S
C144 N141 1.350 . S
C144 C143 1.434 . S
C145 C146 1.369 . S
C145 C147 1.419 . S
C145 H149 0.930 . S
C146 C145 1.369 . S
C146 C155 1.429 . S
C147 C145 1.419 . S
C147 C148 1.363 . S
C147 H150 0.929 . S
C148 C147 1.363 . S
C148 C154 1.428 . S
H149 C145 0.930 . S
H150 C147 0.929 . S
S151 N152 1.613 . S
S151 N153 1.610 . S
N152 S151 1.613 . S
N152 C155 1.350 . S
N153 S151 1.610 . S
N153 C154 1.351 . S
C154 C148 1.428 . S
C154 N153 1.351 . S
C154 C155 1.434 . S
C155 C146 1.429 . S
C155 N152 1.350 . S
C155 C154 1.434 . S
C156 C157 1.369 . S
C156 C158 1.419 . S
C156 H160 0.930 . S
C157 C156 1.369 . S
C157 C166 1.429 . S
C158 C156 1.419 . S
C158 C159 1.363 . S
C158 H161 0.929 . S
C159 C158 1.363 . S
C159 C165 1.428 . S
H160 C156 0.930 . S
H161 C158 0.929 . S
S162 N163 1.613 . S
S162 N164 1.610 . S
N163 S162 1.613 . S
N163 C166 1.350 . S
N164 S162 1.610 . S
N164 C165 1.351 . S
C165 C159 1.428 . S
C165 N164 1.351 . S
C165 C166 1.434 . S
C166 C157 1.429 . S
C166 N163 1.350 . S
C166 C165 1.434 . S
C167 C168 1.369 . S
C167 C169 1.419 . S
C167 H171 0.930 . S
C168 C167 1.369 . S
C168 C177 1.429 . S
C169 C167 1.419 . S
C169 C170 1.363 . S
C169 H172 0.929 . S
C170 C169 1.363 . S
C170 C176 1.428 . S
H171 C167 0.930 . S
H172 C169 0.929 . S
S173 N174 1.613 . S
S173 N175 1.610 . S
N174 S173 1.613 . S
N174 C177 1.350 . S
N175 S173 1.610 . S
N175 C176 1.351 . S
C176 C170 1.428 . S
C176 N175 1.351 . S
C176 C177 1.434 . S
C177 C168 1.429 . S
C177 N174 1.350 . S
C177 C176 1.434 . S
C178 C179 1.369 . S
C178 C180 1.419 . S
C178 H182 0.930 . S
C179 C178 1.369 . S
C179 C188 1.429 . S
C180 C178 1.419 . S
C180 C181 1.363 . S
C180 H183 0.929 . S
C181 C180 1.363 . S
C181 C187 1.428 . S
H182 C178 0.930 . S
H183 C180 0.929 . S
S184 N185 1.613 . S
S184 N186 1.610 . S
N185 S184 1.613 . S
N185 C188 1.350 . S
N186 S184 1.610 . S
N186 C187 1.351 . S
C187 C181 1.428 . S
C187 N186 1.351 . S
C187 C188 1.434 . S
C188 C179 1.429 . S
C188 N185 1.350 . S
C188 C187 1.434 . S
C189 C190 1.369 . S
C189 C191 1.419 . S
C189 H193 0.930 . S
C190 C189 1.369 . S
C190 C199 1.429 . S
C191 C189 1.419 . S
C191 C192 1.363 . S
C191 H194 0.929 . S
C192 C191 1.363 . S
C192 C198 1.428 . S
H193 C189 0.930 . S
H194 C191 0.929 . S
S195 N196 1.613 . S
S195 N197 1.610 . S
N196 S195 1.613 . S
N196 C199 1.350 . S
N197 S195 1.610 . S
N197 C198 1.351 . S
C198 C192 1.428 . S
C198 N197 1.351 . S
C198 C199 1.434 . S
C199 C190 1.429 . S
C199 N196 1.350 . S
C199 C198 1.434 . S
C200 C201 1.369 . S
C200 C202 1.419 . S
C200 H204 0.930 . S
C201 C200 1.369 . S
C201 C210 1.429 . S
C202 C200 1.419 . S
C202 C203 1.363 . S
C202 H205 0.929 . S
C203 C202 1.363 . S
C203 C209 1.428 . S
H204 C200 0.930 . S
H205 C202 0.929 . S
S206 N207 1.613 . S
S206 N208 1.610 . S
N207 S206 1.613 . S
N207 C210 1.350 . S
N208 S206 1.610 . S
N208 C209 1.351 . S
C209 C203 1.428 . S
C209 N208 1.351 . S
C209 C210 1.434 . S
C210 C201 1.429 . S
C210 N207 1.350 . S
C210 C209 1.434 . S
C211 C212 1.369 . S
C211 C213 1.419 . S
C211 H215 0.930 . S
C212 C211 1.369 . S
C212 C221 1.429 . S
C213 C211 1.419 . S
C213 C214 1.363 . S
C213 H216 0.929 . S
C214 C213 1.363 . S
C214 C220 1.428 . S
H215 C211 0.930 . S
H216 C213 0.929 . S
S217 N218 1.613 . S
S217 N219 1.610 . S
N218 S217 1.613 . S
N218 C221 1.350 . S
N219 S217 1.610 . S
N219 C220 1.351 . S
C220 C214 1.428 . S
C220 N219 1.351 . S
C220 C221 1.434 . S
C221 C212 1.429 . S
C221 N218 1.350 . S
C221 C220 1.434 . S
C93 C64 1.263 . S
C91 C40 1.445 . S
C102 C4 1.486 . S
C104 C85 1.312 . S
C113 C16 1.573 . S
C115 C61 1.400 . S
C124 C28 1.573 . S
C126 C82 1.376 . S
C137 C66 1.496 . S
C135 C9 1.499 . S
C148 C86 1.524 . S
C146 C18 1.588 . S
C157 C33 1.576 . S
C159 C62 1.538 . S
C168 C45 1.510 . S
C170 C84 1.455 . S
C181 C83 1.485 . S
C179 C21 1.520 . S
C192 C65 1.471 . S
C190 C30 1.532 . S
C203 C87 1.433 . S
C201 C42 1.460 . S
C212 C6 1.466 . S
C214 C63 1.408 . S
