# Generated by pormake.
# Topology tsx, (6,3)-cn, num edge types: 1
# Building blocks:
#     Node 0, Type 0, BuildingBlock: CIFDUS_clean_sbu_1, # of connection points: 6
#     Node 1, Type 0, BuildingBlock: CIFDUS_clean_sbu_1, # of connection points: 6
#     Node 2, Type 1, BuildingBlock: PAMTOO_clean_linker_0, # of connection points: 3
#     Node 3, Type 1, BuildingBlock: PAMTOO_clean_linker_0, # of connection points: 3
#     Node 4, Type 1, BuildingBlock: PAMTOO_clean_linker_0, # of connection points: 3
#     Node 5, Type 1, BuildingBlock: PAMTOO_clean_linker_0, # of connection points: 3
#     Edge 6, Type (0, 1), BuildingBlock: EYOCIG_clean_linker_4, # of connection points: 2
#     Edge 7, Type (0, 1), BuildingBlock: EYOCIG_clean_linker_4, # of connection points: 2
#     Edge 8, Type (0, 1), BuildingBlock: EYOCIG_clean_linker_4, # of connection points: 2
#     Edge 9, Type (0, 1), BuildingBlock: EYOCIG_clean_linker_4, # of connection points: 2
#     Edge 10, Type (0, 1), BuildingBlock: EYOCIG_clean_linker_4, # of connection points: 2
#     Edge 11, Type (0, 1), BuildingBlock: EYOCIG_clean_linker_4, # of connection points: 2
#     Edge 12, Type (0, 1), BuildingBlock: EYOCIG_clean_linker_4, # of connection points: 2
#     Edge 13, Type (0, 1), BuildingBlock: EYOCIG_clean_linker_4, # of connection points: 2
#     Edge 14, Type (0, 1), BuildingBlock: EYOCIG_clean_linker_4, # of connection points: 2
#     Edge 15, Type (0, 1), BuildingBlock: EYOCIG_clean_linker_4, # of connection points: 2
#     Edge 16, Type (0, 1), BuildingBlock: EYOCIG_clean_linker_4, # of connection points: 2
#     Edge 17, Type (0, 1), BuildingBlock: EYOCIG_clean_linker_4, # of connection points: 2
# Relax obj value: 0.126
# Max RMSD: 0.141
# Mean RMSD: 0.134
data_MOF--net-tsx--node1-CIFDUS_clean_sbu_1--node2-PAMTOO_clean_linker_0--edge1-EYOCIG_clean_linker_4
_symmetry_space_group_name_H-M    P1
_symmetry_Int_Tables_number       1
_symmetry_cell_setting            triclinic
loop_
_symmetry_equiv_pos_as_xyz
'x, y, z'
_cell_length_a     14.250819
_cell_length_b     17.591528
_cell_length_c     27.793485
_cell_angle_alpha  86.493073
_cell_angle_beta   95.392113
_cell_angle_gamma 91.949263
loop_
_atom_site_label
_atom_site_type_symbol
_atom_site_fract_x
_atom_site_fract_y
_atom_site_fract_z
_atom_type_partial_charge
O0 O 1.00527 0.1683 -0.01257 0.0
Mn1 Mn 0.07872 0.0675 -0.01707 0.0
O2 O 0.8699 0.15526 0.93897 0.0
Mn3 Mn 0.89465 0.06307 0.91515 0.0
O4 O 0.14914 0.96596 0.97652 0.0
O5 O 0.20019 0.12469 0.00317 0.0
Mn6 Mn 0.27382 0.06349 0.0415 0.0
O7 O 0.06043 0.03795 0.05583 0.0
O8 O 0.30014 0.98297 0.00582 0.0
O9 O 0.10229 0.09596 0.91034 0.0
O10 O 0.96899 0.06742 0.86433 0.0
O11 O 0.33898 0.1555 0.03723 0.0
O12 O 0.20714 0.03853 0.09479 0.0
C13 C 0.88594 0.96224 0.96055 0.0
C14 C 0.92472 0.19217 0.96858 0.0
C15 C 0.23494 0.94461 -0.01673 0.0
C16 C 0.26449 0.17755 0.0106 0.0
C17 C 0.11787 0.02966 0.09431 0.0
C18 C 0.05573 0.08699 0.8691 0.0
O19 O 0.95652 1.01064 0.96341 0.0
O20 O 0.81923 0.97887 0.92715 0.0
O21 O 0.50466 0.66818 0.48755 0.0
Mn22 Mn 0.57823 0.56746 0.48302 0.0
O23 O 0.36945 0.65521 0.43895 0.0
Mn24 Mn 0.39431 0.56309 0.41508 0.0
O25 O 0.64881 0.46601 0.47657 0.0
O26 O 0.69957 0.62466 0.50349 0.0
Mn27 Mn 0.77307 0.5634 0.54185 0.0
O28 O 0.5596 0.53763 0.55585 0.0
O29 O 0.79967 0.48303 0.50612 0.0
O30 O 0.60206 0.59613 0.41047 0.0
O31 O 0.46887 0.5676 0.36435 0.0
O32 O 0.83817 0.65546 0.53778 0.0
O33 O 0.70612 0.5382 0.59502 0.0
C34 C 0.38564 0.46215 0.46038 0.0
C35 C 0.42417 0.69207 0.46865 0.0
C36 C 0.73462 0.4447 0.48342 0.0
C37 C 0.7638 0.67754 0.51106 0.0
C38 C 0.61685 0.52922 0.5944 0.0
C39 C 0.55559 0.58716 0.3692 0.0
O40 O 0.45614 0.5106 0.46331 0.0
O41 O 0.31899 0.47878 0.42696 0.0
H42 H 0.18686 0.91127 0.3466 0.0
H43 H 0.99525 0.09607 0.32214 0.0
H44 H 0.10023 0.02446 0.46737 0.0
H45 H 0.86855 0.0689 0.43203 0.0
C46 C 0.89374 0.11928 0.41054 0.0
O47 O 0.99094 0.12211 0.41303 0.0
H48 H 0.86387 0.11529 0.37236 0.0
C49 C 0.14535 0.95393 0.36073 0.0
C50 C 0.1515 0.96343 0.41074 0.0
C51 C 0.08762 1.00084 0.32883 0.0
C52 C 0.03756 0.05804 0.34683 0.0
C53 C 0.04016 0.06608 0.39671 0.0
C54 C 0.09655 0.01799 0.42885 0.0
H55 H 0.21762 0.20731 0.63444 0.0
H56 H 1.0074 0.02611 0.63002 0.0
H57 H 0.08054 0.14367 0.49769 0.0
H58 H 0.85321 0.0827 0.51168 0.0
C59 C 0.88 0.03258 0.5342 0.0
O60 O 0.97707 0.03065 0.53558 0.0
H61 H 0.85813 0.03621 0.57132 0.0
C62 C 0.167 0.17164 0.61381 0.0
C63 C 0.15735 0.18017 0.5633 0.0
C64 C 0.11203 0.11724 0.63791 0.0
C65 C 0.04844 0.0697 0.61142 0.0
C66 C 0.03586 0.07925 0.56078 0.0
C67 C 0.08938 0.13585 0.5367 0.0
H68 H 0.68594 0.41028 0.84656 0.0
H69 H 0.49422 0.59499 0.82208 0.0
H70 H 0.60012 0.52407 0.96729 0.0
H71 H 0.36796 0.56853 0.93193 0.0
C72 C 0.39331 0.61887 0.91046 0.0
O73 O 0.49052 0.62149 0.91294 0.0
H74 H 0.36341 0.61496 0.87228 0.0
C75 C 0.64449 0.45298 0.86068 0.0
C76 C 0.65098 0.46274 0.91068 0.0
C77 C 0.58657 0.49975 0.82879 0.0
C78 C 0.53663 0.55704 0.84678 0.0
C79 C 0.53955 0.56532 0.89664 0.0
C80 C 0.59614 0.51738 0.92878 0.0
H81 H 0.71788 0.70776 0.13433 0.0
H82 H 0.50777 0.52646 0.13029 0.0
H83 H 0.5811 0.64315 -0.00228 0.0
H84 H 0.35419 0.58257 0.0117 0.0
C85 C 0.38066 0.53232 0.0342 0.0
O86 O 0.47775 0.53027 0.03584 0.0
H87 H 0.35845 0.53583 0.07126 0.0
C88 C 0.6673 0.67193 0.11379 0.0
C89 C 0.65773 0.68013 0.06327 0.0
C90 C 0.61232 0.61768 0.13799 0.0
C91 C 0.54881 0.56995 0.1116 0.0
C92 C 0.53639 0.57911 0.06095 0.0
C93 C 0.58989 0.63558 0.03675 0.0
C94 C 0.27072 0.32537 -0.00474 0.0
C95 C 0.25398 0.25745 -0.00238 0.0
C96 C 0.30477 0.40091 0.00265 0.0
C97 C 0.33852 0.46172 0.01465 0.0
C98 C 0.28868 0.81427 0.95397 0.0
C99 C 0.25951 0.87298 0.96635 0.0
C100 C 0.32715 0.7465 0.94045 0.0
C101 C 0.35917 0.68891 0.92803 0.0
C102 C 0.83795 0.83978 0.01015 0.0
C103 C 0.87452 0.89612 -0.00766 0.0
C104 C 0.77683 0.78021 0.02566 0.0
C105 C 0.72018 0.73361 0.03989 0.0
C106 C 0.84391 0.32063 0.97657 0.0
C107 C 0.89263 0.26555 -0.02151 0.0
C108 C 0.77616 0.37657 0.96244 0.0
C109 C 0.71739 0.41841 0.94234 0.0
C110 C 0.77008 0.82537 0.4957 0.0
C111 C 0.75336 0.75745 0.49807 0.0
C112 C 0.80408 0.90095 0.503 0.0
C113 C 0.83782 0.96184 0.51486 0.0
C114 C 0.78864 0.3145 0.45405 0.0
C115 C 0.75937 0.37315 0.46646 0.0
C116 C 0.82723 0.24679 0.44051 0.0
C117 C 0.85937 0.18924 0.4281 0.0
C118 C 0.33761 0.33972 0.51003 0.0
C119 C 0.37417 0.39605 0.49218 0.0
C120 C 0.27652 0.28021 0.52565 0.0
C121 C 0.21989 0.23366 0.53997 0.0
C122 C 0.34351 0.8206 0.47667 0.0
C123 C 0.39208 0.76544 0.47856 0.0
C124 C 0.27605 0.87677 0.46255 0.0
C125 C 0.21754 0.91882 0.44244 0.0
C126 C 0.07119 0.99916 0.18274 0.0
C127 C 0.08223 1.01236 0.1405 0.0
C128 C 0.07355 0.99194 0.23376 0.0
C129 C 0.08232 0.99359 0.27728 0.0
C130 C 0.12078 0.10459 0.78404 0.0
C131 C 0.10131 0.09887 0.82536 0.0
C132 C 0.12541 0.10822 0.73351 0.0
C133 C 0.11925 0.11228 0.68993 0.0
C134 C 0.56983 0.49816 0.68271 0.0
C135 C 0.58098 0.5116 0.6405 0.0
C136 C 0.57221 0.49076 0.73372 0.0
C137 C 0.58113 0.49241 0.77725 0.0
C138 C 0.62052 0.60469 0.28412 0.0
C139 C 0.60121 0.599 0.32547 0.0
C140 C 0.62528 0.60863 0.23359 0.0
C141 C 0.61952 0.61288 0.19001 0.0
loop_
_geom_bond_atom_site_label_1
_geom_bond_atom_site_label_2
_geom_bond_distance
_geom_bond_site_symmetry_2
_ccdc_geom_bond_type
O0 Mn1 2.163 1_654 S
O0 C14 1.244 1_554 S
Mn1 O0 2.163 1_456 S
Mn1 O4 2.160 1_545 S
Mn1 O5 2.221 1_556 S
Mn1 O7 2.163 1_556 S
Mn1 O9 2.160 . S
Mn1 O19 2.221 1_445 S
O2 Mn3 2.087 . S
O2 C14 1.256 . S
Mn3 O2 2.087 . S
Mn3 O10 2.089 . S
Mn3 O19 2.290 1_545 S
Mn3 O20 2.251 1_545 S
O4 Mn1 2.160 1_565 S
O4 C15 1.239 1_556 S
O5 Mn1 2.221 1_554 S
O5 Mn6 2.290 . S
O5 C16 1.278 . S
Mn6 O5 2.290 . S
Mn6 O8 2.089 1_545 S
Mn6 O11 2.251 . S
Mn6 O12 2.087 . S
O7 Mn1 2.163 1_554 S
O7 C17 1.244 . S
O8 Mn6 2.089 1_565 S
O8 C15 1.256 . S
O9 Mn1 2.160 . S
O9 C18 1.239 . S
O10 Mn3 2.089 . S
O10 C18 1.256 1_655 S
O11 Mn6 2.251 . S
O11 C16 1.241 . S
O12 Mn6 2.087 . S
O12 C17 1.256 . S
C13 O19 1.278 1_554 S
C13 O20 1.241 1_554 S
C14 O0 1.244 1_556 S
C14 O2 1.256 . S
C15 O4 1.239 1_554 S
C15 O8 1.256 . S
C16 O5 1.278 . S
C16 O11 1.241 . S
C17 O7 1.244 . S
C17 O12 1.256 . S
C18 O9 1.239 . S
C18 O10 1.256 1_455 S
O19 Mn1 2.221 1_665 S
O19 Mn3 2.290 1_565 S
O19 C13 1.278 1_556 S
O20 Mn3 2.251 1_565 S
O20 C13 1.241 1_556 S
O21 Mn22 2.163 . S
O21 C35 1.244 . S
Mn22 O21 2.163 . S
Mn22 O25 2.160 . S
Mn22 O26 2.221 . S
Mn22 O28 2.163 . S
Mn22 O30 2.160 . S
Mn22 O40 2.221 . S
O23 Mn24 2.087 . S
O23 C35 1.256 . S
Mn24 O23 2.087 . S
Mn24 O31 2.089 . S
Mn24 O40 2.290 . S
Mn24 O41 2.251 . S
O25 Mn22 2.160 . S
O25 C36 1.239 . S
O26 Mn22 2.221 . S
O26 Mn27 2.290 . S
O26 C37 1.278 . S
Mn27 O26 2.290 . S
Mn27 O29 2.089 . S
Mn27 O32 2.251 . S
Mn27 O33 2.087 . S
O28 Mn22 2.163 . S
O28 C38 1.244 . S
O29 Mn27 2.089 . S
O29 C36 1.256 . S
O30 Mn22 2.160 . S
O30 C39 1.239 . S
O31 Mn24 2.089 . S
O31 C39 1.256 . S
O32 Mn27 2.251 . S
O32 C37 1.241 . S
O33 Mn27 2.087 . S
O33 C38 1.256 . S
C34 O40 1.278 . S
C34 O41 1.241 . S
C35 O21 1.244 . S
C35 O23 1.256 . S
C36 O25 1.239 . S
C36 O29 1.256 . S
C37 O26 1.278 . S
C37 O32 1.241 . S
C38 O28 1.244 . S
C38 O33 1.256 . S
C39 O30 1.239 . S
C39 O31 1.256 . S
O40 Mn22 2.221 . S
O40 Mn24 2.290 . S
O40 C34 1.278 . S
O41 Mn24 2.251 . S
O41 C34 1.241 . S
H42 C49 0.929 . S
H43 C52 0.930 1_655 S
H44 C54 0.929 . S
H45 C46 0.969 . S
C46 H45 0.969 . S
C46 O47 1.542 1_655 S
C46 H48 0.973 . S
O47 C46 1.542 1_455 S
O47 C53 1.415 . S
H48 C46 0.973 . S
C49 H42 0.929 . S
C49 C50 1.400 . S
C49 C51 1.364 . S
C50 C49 1.400 . S
C50 C54 1.377 . S
C51 C49 1.364 . S
C51 C52 1.374 1_565 S
C52 H43 0.930 1_455 S
C52 C51 1.374 1_545 S
C52 C53 1.383 . S
C53 O47 1.415 . S
C53 C52 1.383 . S
C53 C54 1.394 1_545 S
C54 H44 0.929 . S
C54 C50 1.377 . S
C54 C53 1.394 1_565 S
H55 C62 0.929 . S
H56 C65 0.930 . S
H57 C67 0.929 . S
H58 C59 0.969 1_545 S
C59 H58 0.969 1_565 S
C59 O60 1.550 1_565 S
C59 H61 0.973 . S
O60 C59 1.550 1_545 S
O60 C66 1.412 . S
H61 C59 0.973 . S
C62 H55 0.929 . S
C62 C63 1.400 . S
C62 C64 1.364 . S
C63 C62 1.400 . S
C63 C67 1.377 . S
C64 C62 1.364 . S
C64 C65 1.374 1_455 S
C65 H56 0.930 . S
C65 C64 1.374 1_655 S
C65 C66 1.383 . S
C66 O60 1.412 . S
C66 C65 1.383 . S
C66 C67 1.394 1_655 S
C67 H57 0.929 . S
C67 C63 1.377 . S
C67 C66 1.394 1_455 S
H68 C75 0.929 . S
H69 C78 0.930 . S
H70 C80 0.929 1_554 S
H71 C72 0.969 . S
C72 H71 0.969 . S
C72 O73 1.550 . S
C72 H74 0.973 . S
O73 C72 1.550 . S
O73 C79 1.412 . S
H74 C72 0.973 . S
C75 H68 0.929 . S
C75 C76 1.400 . S
C75 C77 1.364 . S
C76 C75 1.400 . S
C76 C80 1.377 . S
C77 C75 1.364 . S
C77 C78 1.374 . S
C78 H69 0.930 . S
C78 C77 1.374 . S
C78 C79 1.383 . S
C79 O73 1.412 . S
C79 C78 1.383 . S
C79 C80 1.394 . S
C80 H70 0.929 1_556 S
C80 C76 1.377 . S
C80 C79 1.394 . S
H81 C88 0.929 . S
H82 C91 0.930 . S
H83 C93 0.929 1_556 S
H84 C85 0.969 . S
C85 H84 0.969 . S
C85 O86 1.550 . S
C85 H87 0.973 . S
O86 C85 1.550 . S
O86 C92 1.412 . S
H87 C85 0.973 . S
C88 H81 0.929 . S
C88 C89 1.400 . S
C88 C90 1.364 . S
C89 C88 1.400 . S
C89 C93 1.377 . S
C90 C88 1.364 . S
C90 C91 1.374 . S
C91 H82 0.930 . S
C91 C90 1.374 . S
C91 C92 1.383 . S
C92 O86 1.412 . S
C92 C91 1.383 . S
C92 C93 1.394 . S
C93 H83 0.929 1_554 S
C93 C89 1.377 . S
C93 C92 1.394 . S
C94 C95 1.170 . S
C94 C96 1.380 . S
C95 C94 1.170 . S
C96 C94 1.380 . S
C96 C97 1.170 . S
C97 C96 1.170 . S
C98 C99 1.170 . S
C98 C100 1.380 . S
C99 C98 1.170 . S
C100 C98 1.380 . S
C100 C101 1.169 1_554 S
C101 C100 1.169 1_556 S
C102 C103 1.170 . S
C102 C104 1.380 . S
C103 C102 1.170 . S
C104 C102 1.380 . S
C104 C105 1.170 . S
C105 C104 1.170 . S
C106 C107 1.170 . S
C106 C108 1.380 . S
C107 C106 1.170 . S
C108 C106 1.380 . S
C108 C109 1.170 . S
C109 C108 1.170 . S
C110 C111 1.170 . S
C110 C112 1.380 . S
C111 C110 1.170 . S
C112 C110 1.380 . S
C112 C113 1.170 . S
C113 C112 1.170 . S
C114 C115 1.170 . S
C114 C116 1.380 . S
C115 C114 1.170 . S
C116 C114 1.380 . S
C116 C117 1.170 . S
C117 C116 1.170 . S
C118 C119 1.170 . S
C118 C120 1.380 . S
C119 C118 1.170 . S
C120 C118 1.380 . S
C120 C121 1.170 . S
C121 C120 1.170 . S
C122 C123 1.170 . S
C122 C124 1.380 . S
C123 C122 1.170 . S
C124 C122 1.380 . S
C124 C125 1.170 . S
C125 C124 1.170 . S
C126 C127 1.170 . S
C126 C128 1.380 . S
C127 C126 1.170 . S
C128 C126 1.380 . S
C128 C129 1.170 1_545 S
C129 C128 1.170 1_565 S
C130 C131 1.170 . S
C130 C132 1.380 . S
C131 C130 1.170 . S
C132 C130 1.380 . S
C132 C133 1.170 . S
C133 C132 1.170 . S
C134 C135 1.170 . S
C134 C136 1.380 . S
C135 C134 1.170 . S
C136 C134 1.380 . S
C136 C137 1.170 . S
C137 C136 1.170 . S
C138 C139 1.170 . S
C138 C140 1.380 . S
C139 C138 1.170 . S
C140 C138 1.380 . S
C140 C141 1.170 . S
C141 C140 1.170 . S
C97 C85 1.366 . S
C95 C16 1.320 . S
C99 C15 1.500 . S
C101 C72 1.417 . S
C103 C13 1.287 . S
C105 C89 1.544 . S
C107 C14 1.432 . S
C109 C76 1.491 . S
C111 C37 1.293 . S
C113 C59 1.326 . S
C115 C36 1.500 . S
C117 C46 1.413 . S
C121 C63 1.519 . S
C119 C34 1.341 . S
C125 C50 1.484 . S
C123 C35 1.444 . S
C127 C17 1.534 . S
C129 C51 1.605 . S
C131 C18 1.434 . S
C133 C64 1.472 . S
C137 C77 1.609 . S
C135 C38 1.566 . S
C139 C39 1.434 . S
C141 C90 1.473 . S
