# Generated by pormake.
# Topology tsx, (6,3)-cn, num edge types: 1
# Building blocks:
#     Node 0, Type 0, BuildingBlock: VOLQOD_clean_sbu_1, # of connection points: 6
#     Node 1, Type 0, BuildingBlock: VOLQOD_clean_sbu_1, # of connection points: 6
#     Node 2, Type 1, BuildingBlock: BETDAH_clean_linker_0, # of connection points: 3
#     Node 3, Type 1, BuildingBlock: BETDAH_clean_linker_0, # of connection points: 3
#     Node 4, Type 1, BuildingBlock: BETDAH_clean_linker_0, # of connection points: 3
#     Node 5, Type 1, BuildingBlock: BETDAH_clean_linker_0, # of connection points: 3
#     Edge 6, Type (0, 1), BuildingBlock: AJUNOK_clean_linker_0, # of connection points: 2
#     Edge 7, Type (0, 1), BuildingBlock: AJUNOK_clean_linker_0, # of connection points: 2
#     Edge 8, Type (0, 1), BuildingBlock: AJUNOK_clean_linker_0, # of connection points: 2
#     Edge 9, Type (0, 1), BuildingBlock: AJUNOK_clean_linker_0, # of connection points: 2
#     Edge 10, Type (0, 1), BuildingBlock: AJUNOK_clean_linker_0, # of connection points: 2
#     Edge 11, Type (0, 1), BuildingBlock: AJUNOK_clean_linker_0, # of connection points: 2
#     Edge 12, Type (0, 1), BuildingBlock: AJUNOK_clean_linker_0, # of connection points: 2
#     Edge 13, Type (0, 1), BuildingBlock: AJUNOK_clean_linker_0, # of connection points: 2
#     Edge 14, Type (0, 1), BuildingBlock: AJUNOK_clean_linker_0, # of connection points: 2
#     Edge 15, Type (0, 1), BuildingBlock: AJUNOK_clean_linker_0, # of connection points: 2
#     Edge 16, Type (0, 1), BuildingBlock: AJUNOK_clean_linker_0, # of connection points: 2
#     Edge 17, Type (0, 1), BuildingBlock: AJUNOK_clean_linker_0, # of connection points: 2
# Relax obj value: 0.054
# Max RMSD: 0.109
# Mean RMSD: 0.099
data_MOF--net-tsx--node1-VOLQOD_clean_sbu_1--node2-BETDAH_clean_linker_0--edge1-AJUNOK_clean_linker_0
_symmetry_space_group_name_H-M    P1
_symmetry_Int_Tables_number       1
_symmetry_cell_setting            triclinic
loop_
_symmetry_equiv_pos_as_xyz
'x, y, z'
_cell_length_a     15.943293
_cell_length_b     16.461196
_cell_length_c     27.725788
_cell_angle_alpha  90.450926
_cell_angle_beta   97.262815
_cell_angle_gamma 89.83358
loop_
_atom_site_label
_atom_site_type_symbol
_atom_site_fract_x
_atom_site_fract_y
_atom_site_fract_z
_atom_type_partial_charge
O0 O 0.09387 0.0025 0.12117 0.0
Zn1 Zn 0.12416 0.00528 0.05259 0.0
O2 O 0.02252 0.01219 0.00622 0.0
Zn3 Zn 0.00895 0.91276 0.96793 0.0
Zn4 Zn 0.92504 0.02708 0.04169 0.0
Zn5 Zn 0.03178 0.10291 0.96275 0.0
O6 O 0.9938 0.93647 0.89624 0.0
O7 O 0.03435 0.06532 0.89347 0.0
O8 O 0.19553 0.90836 0.03844 0.0
O9 O 0.11552 0.84704 0.97773 0.0
O10 O 0.91398 0.84408 0.98767 0.0
O11 O 0.85659 0.92359 0.03961 0.0
O12 O 0.85058 0.11879 0.01367 0.0
O13 O 0.19635 0.10426 0.0478 0.0
O14 O 0.92945 0.17239 0.96164 0.0
O15 O 0.13306 0.17324 0.98487 0.0
C16 C 0.02942 0.02884 0.13952 0.0
C17 C 0.01307 -0.00189 0.87238 0.0
C18 C 0.85965 0.8561 0.01707 0.0
C19 C 0.18398 0.85189 0.00662 0.0
C20 C 0.86256 0.17217 0.98225 0.0
C21 C 0.19272 0.16529 0.01964 0.0
O22 O 0.96176 0.04935 0.11294 0.0
O23 O 0.54866 0.46478 0.61692 0.0
Zn24 Zn 0.57397 0.47169 0.5474 0.0
O25 O 0.47131 0.49618 0.5045 0.0
Zn26 Zn 0.44275 0.40662 0.4601 0.0
Zn27 Zn 0.3798 0.51732 0.54333 0.0
Zn28 Zn 0.48839 0.59029 0.46604 0.0
O29 O 0.42939 0.4431 0.39011 0.0
O30 O 0.49626 0.56147 0.39619 0.0
O31 O 0.63288 0.3709 0.52487 0.0
O32 O 0.53809 0.32671 0.46485 0.0
O33 O 0.34077 0.34719 0.47744 0.0
O34 O 0.30105 0.42161 0.53773 0.0
O35 O 0.31293 0.61802 0.52072 0.0
O36 O 0.65417 0.56525 0.54893 0.0
O37 O 0.3888 0.66361 0.46459 0.0
O38 O 0.59098 0.65132 0.49477 0.0
C39 C 0.49016 0.49685 0.63833 0.0
C40 C 0.46199 0.50323 0.37047 0.0
C41 C 0.2926 0.3591 0.51016 0.0
C42 C 0.60935 0.32002 0.49091 0.0
C43 C 0.32528 0.66879 0.48793 0.0
C44 C 0.65173 0.63316 0.52724 0.0
O45 O 0.42425 0.5271 0.61428 0.0
H46 H 0.14949 0.94703 0.35959 0.0
H47 H 0.89531 0.04107 0.35021 0.0
H48 H 0.99523 0.89589 0.47159 0.0
C49 C 0.09054 0.95491 0.37476 0.0
C50 C 0.07955 0.91451 0.41779 0.0
C51 C 0.02335 -0.00298 0.34821 0.0
C52 C 0.94922 0.01079 0.37001 0.0
C53 C 0.94117 0.9775 0.41582 0.0
C54 C 0.00513 0.92739 0.43861 0.0
N55 N 0.86471 0.98359 0.43649 0.0
C56 C 0.82083 0.05575 0.44041 0.0
H57 H 0.89417 0.85749 0.67213 0.0
H58 H 0.03005 0.07312 0.64066 0.0
H59 H 0.88713 0.93822 0.52544 0.0
C60 C 0.91574 0.89898 0.64614 0.0
C61 C 0.88717 0.88869 0.59668 0.0
C62 C 0.96825 0.96474 0.66251 0.0
C63 C 0.99107 0.0213 0.62847 0.0
C64 C 0.96104 0.0113 0.57877 0.0
C65 C 0.90978 0.94539 0.5636 0.0
N66 N 0.97686 0.06752 0.54272 0.0
C67 C 0.04353 0.12168 0.54627 0.0
H68 H 0.60463 0.37763 0.84421 0.0
H69 H 0.48891 0.60952 0.86808 0.0
H70 H 0.62601 0.4804 0.98697 0.0
C71 C 0.58797 0.42534 0.86852 0.0
C72 C 0.61688 0.42014 0.91797 0.0
C73 C 0.5425 0.49369 0.84978 0.0
C74 C 0.52186 0.5553 0.88202 0.0
C75 C 0.55119 0.54954 0.93204 0.0
C76 C 0.59938 0.4826 0.94928 0.0
N77 N 0.54253 0.61399 0.96504 0.0
C78 C 0.46744 0.65501 0.96806 0.0
H79 H 0.3643 0.41877 0.14715 0.0
H80 H 0.60449 0.5422 0.16596 0.0
H81 H 0.52379 0.41132 0.03386 0.0
C82 C 0.42088 0.43894 0.13278 0.0
C83 C 0.4356 0.41271 0.08652 0.0
C84 C 0.4818 0.48458 0.1623 0.0
C85 C 0.55531 0.50945 0.14325 0.0
C86 C 0.5696 0.4844 0.09644 0.0
C87 C 0.51048 0.43464 0.0687 0.0
N88 N 0.64871 0.49767 0.08 0.0
C89 C 0.67829 0.57448 0.07079 0.0
C90 C 0.33858 0.20894 0.05251 0.0
C91 C 0.25759 0.22947 0.02945 0.0
C92 C 0.39815 0.26903 0.06793 0.0
C93 C 0.37857 0.35161 0.06114 0.0
H94 H 0.35531 0.14603 0.05997 0.0
H95 H 0.45847 0.25102 0.08743 0.0
S96 S 0.17807 0.43811 0.00108 0.0
N97 N 0.16286 0.33881 0.99855 0.0
N98 N 0.27517 0.45163 0.02863 0.0
C99 C 0.2995 0.37323 0.03667 0.0
C100 C 0.23894 0.31208 0.02037 0.0
C101 C 0.25481 0.75606 0.95399 0.0
C102 C 0.25429 0.79577 -0.00069 0.0
C103 C 0.32419 0.70919 0.94395 0.0
C104 C 0.39474 0.70009 0.97901 0.0
H105 H 0.20239 0.76319 0.92539 0.0
H106 H 0.32314 0.68106 0.90841 0.0
S107 S 0.42338 0.78393 0.10425 0.0
N108 N 0.32975 0.81792 0.08037 0.0
N109 N 0.45953 0.72901 0.06121 0.0
C110 C 0.39442 0.73652 0.02479 0.0
C111 C 0.32426 0.78467 0.03506 0.0
C112 C 0.80964 0.7123 0.00419 0.0
C113 C 0.8045 0.78755 0.02835 0.0
C114 C 0.76635 0.64378 0.01765 0.0
C115 C 0.71639 0.64785 0.0557 0.0
H116 H 0.84914 0.70539 0.97537 0.0
H117 H 0.77355 0.58672 0.9988 0.0
S118 S 0.67493 0.82936 0.12848 0.0
N119 N 0.73977 0.86181 0.09079 0.0
N120 N 0.65925 0.73197 0.11576 0.0
C121 C 0.70751 0.72235 0.07907 0.0
C122 C 0.75131 0.79257 0.06543 0.0
C123 C 0.81861 0.30015 0.93897 0.0
C124 C 0.79796 0.23523 0.96816 0.0
C125 C 0.7591 0.35934 0.92289 0.0
C126 C 0.67693 0.35614 0.93551 0.0
H127 H 0.88127 0.30549 0.92816 0.0
H128 H 0.7775 0.40825 0.90048 0.0
S129 S 0.58911 0.20078 0.01064 0.0
N130 N 0.68813 0.17213 0.00896 0.0
N131 N 0.57637 0.28491 0.97843 0.0
C132 C 0.65489 0.2929 0.96493 0.0
C133 C 0.71548 0.23202 0.98135 0.0
C134 C 0.70072 0.77675 0.52949 0.0
C135 C 0.71616 0.69543 0.54327 0.0
C136 C 0.75623 0.83853 0.5472 0.0
C137 C 0.82969 0.82157 0.57913 0.0
H138 H 0.64425 0.79347 0.50573 0.0
H139 H 0.74071 0.90046 0.5363 0.0
S140 S 0.90342 0.61862 0.62357 0.0
N141 N 0.81289 0.60084 0.5892 0.0
N142 N 0.91801 0.71776 0.62184 0.0
C143 C 0.84726 0.74061 0.59248 0.0
C144 C 0.79044 0.67738 0.57459 0.0
C145 C 0.63055 0.18114 0.45766 0.0
C146 C 0.66596 0.25288 0.47953 0.0
C147 C 0.68179 0.11781 0.44408 0.0
C148 C 0.77004 0.1246 0.45109 0.0
H149 H 0.56257 0.17346 0.45134 0.0
H150 H 0.65209 0.06291 0.42835 0.0
S151 S 0.895 0.30001 0.50423 0.0
N152 N 0.79563 0.32701 0.50645 0.0
N153 N 0.8915 0.20818 0.47958 0.0
C154 C 0.80666 0.19581 0.47213 0.0
C155 C 0.75466 0.25999 0.48676 0.0
C156 C 0.17634 0.30963 0.55543 0.0
C157 C 0.22858 0.29708 0.51851 0.0
C158 C 0.11731 0.25117 0.56543 0.0
C159 C 0.10902 0.17824 0.53906 0.0
H160 H 0.18075 0.36513 0.57686 0.0
H161 H 0.07735 0.26353 0.59348 0.0
S162 S 0.22758 0.11405 0.43883 0.0
N163 N 0.26622 0.20446 0.45539 0.0
N164 N 0.15487 0.09537 0.47469 0.0
C165 C 0.15992 0.16424 0.5023 0.0
C166 C 0.21991 0.22352 0.49186 0.0
C167 C 0.22955 0.7848 0.50365 0.0
C168 C 0.2598 0.7288 0.47139 0.0
C169 C 0.1709 0.84518 0.48636 0.0
C170 C 0.14041 0.85029 0.4365 0.0
H171 H 0.25299 0.78324 0.54205 0.0
H172 H 0.15037 0.8888 0.51191 0.0
S173 S 0.19134 0.70881 0.33914 0.0
N174 N 0.25054 0.67748 0.38864 0.0
N175 N 0.13768 0.78733 0.35649 0.0
C176 C 0.16749 0.79156 0.40461 0.0
C177 C 0.22793 0.73172 0.42199 0.0
C178 C 0.06716 0.95981 0.21822 0.0
C179 C 0.03008 0.02661 0.19278 0.0
C180 C 0.06432 0.95173 0.26801 0.0
C181 C 0.0267 0.01142 0.29528 0.0
H182 H 0.09608 0.91157 0.19916 0.0
H183 H 0.0903 0.89657 0.28481 0.0
S184 S 0.92562 0.20172 0.24561 0.0
N185 N 0.95572 0.15486 0.19772 0.0
N186 N 0.95483 0.14232 0.29254 0.0
C187 C 0.99089 0.07988 0.27028 0.0
C188 C 0.99175 0.08694 0.21886 0.0
C189 C 0.9868 0.05812 0.78904 0.0
C190 C 0.01064 0.99116 0.819 0.0
C191 C 0.9775 0.05053 0.73816 0.0
C192 C 0.99273 0.97598 0.71561 0.0
H193 H 0.97181 0.11585 0.80497 0.0
H194 H 0.9545 0.10228 0.71642 0.0
S195 S 0.07096 0.7866 0.77787 0.0
N196 N 0.05847 0.8507 0.82252 0.0
N197 N 0.04322 0.83709 0.7271 0.0
C198 C 0.02208 0.91026 0.74526 0.0
C199 C 0.03038 0.91764 0.79689 0.0
C200 C 0.5813 0.48702 0.71805 0.0
C201 C 0.50086 0.50088 0.69229 0.0
C202 C 0.59408 0.4883 0.76879 0.0
C203 C 0.52693 0.50266 0.7962 0.0
H204 H 0.63528 0.47479 0.69895 0.0
H205 H 0.65727 0.47669 0.78683 0.0
S206 S 0.30437 0.54531 0.74708 0.0
N207 N 0.35301 0.53263 0.69835 0.0
N208 N 0.37761 0.53349 0.79426 0.0
C209 C 0.44658 0.51897 0.77127 0.0
C210 C 0.43337 0.51819 0.71924 0.0
C211 C 0.44814 0.42955 0.29089 0.0
C212 C 0.46404 0.50259 0.31706 0.0
C213 C 0.45348 0.42511 0.24104 0.0
C214 C 0.4742 0.49362 0.2149 0.0
H215 H 0.43316 0.37452 0.30916 0.0
H216 H 0.44293 0.36673 0.223 0.0
S217 S 0.51663 0.70084 0.26507 0.0
N218 N 0.49859 0.6463 0.31245 0.0
N219 N 0.50743 0.63754 0.2182 0.0
C220 C 0.48901 0.56746 0.24017 0.0
C221 C 0.48399 0.57209 0.29128 0.0
loop_
_geom_bond_atom_site_label_1
_geom_bond_atom_site_label_2
_geom_bond_distance
_geom_bond_site_symmetry_2
_ccdc_geom_bond_type
O0 Zn1 1.953 . S
O0 C16 1.225 1_565 S
Zn1 O0 1.953 . S
Zn1 O2 1.949 1_565 S
Zn1 O8 1.919 . S
Zn1 O13 1.924 1_565 S
O2 Zn1 1.949 1_545 S
O2 Zn3 1.923 1_444 S
O2 Zn4 1.950 1_455 S
O2 Zn5 1.945 1_554 S
Zn3 O2 1.923 1_666 S
Zn3 O6 1.933 . S
Zn3 O9 1.941 1_655 S
Zn3 O10 1.965 . S
Zn4 O2 1.950 1_655 S
Zn4 O11 1.938 1_545 S
Zn4 O12 1.906 . S
Zn4 O22 1.953 . S
Zn5 O2 1.945 1_556 S
Zn5 O7 1.932 . S
Zn5 O14 1.977 1_455 S
Zn5 O15 1.910 . S
O6 Zn3 1.933 . S
O6 C17 1.226 1_565 S
O7 Zn5 1.932 . S
O7 C17 1.307 1_455 S
O8 Zn1 1.919 . S
O8 C19 1.246 1_554 S
O9 Zn3 1.941 1_455 S
O9 C19 1.286 . S
O10 Zn3 1.965 . S
O10 C18 1.303 1_556 S
O11 Zn4 1.938 1_565 S
O11 C18 1.247 . S
O12 Zn4 1.906 . S
O12 C20 1.304 1_554 S
O13 Zn1 1.924 1_545 S
O13 C21 1.311 . S
O14 Zn5 1.977 1_655 S
O14 C20 1.272 . S
O15 Zn5 1.910 . S
O15 C21 1.231 1_556 S
C16 O0 1.225 1_545 S
C16 O22 1.298 1_455 S
C17 O6 1.226 1_545 S
C17 O7 1.307 1_655 S
C18 O10 1.303 1_554 S
C18 O11 1.247 . S
C19 O8 1.246 1_556 S
C19 O9 1.286 . S
C20 O12 1.304 1_556 S
C20 O14 1.272 . S
C21 O13 1.311 . S
C21 O15 1.231 1_554 S
O22 Zn4 1.953 . S
O22 C16 1.298 1_655 S
O23 Zn24 1.953 . S
O23 C39 1.225 . S
Zn24 O23 1.953 . S
Zn24 O25 1.949 . S
Zn24 O31 1.919 . S
Zn24 O36 1.924 . S
O25 Zn24 1.949 . S
O25 Zn26 1.923 . S
O25 Zn27 1.950 . S
O25 Zn28 1.945 . S
Zn26 O25 1.923 . S
Zn26 O29 1.933 . S
Zn26 O32 1.941 . S
Zn26 O33 1.965 . S
Zn27 O25 1.950 . S
Zn27 O34 1.938 . S
Zn27 O35 1.906 . S
Zn27 O45 1.953 . S
Zn28 O25 1.945 . S
Zn28 O30 1.932 . S
Zn28 O37 1.977 . S
Zn28 O38 1.910 . S
O29 Zn26 1.933 . S
O29 C40 1.226 . S
O30 Zn28 1.932 . S
O30 C40 1.307 . S
O31 Zn24 1.919 . S
O31 C42 1.253 . S
O32 Zn26 1.941 . S
O32 C42 1.283 . S
O33 Zn26 1.965 . S
O33 C41 1.303 . S
O34 Zn27 1.938 . S
O34 C41 1.247 . S
O35 Zn27 1.906 . S
O35 C43 1.304 . S
O36 Zn24 1.924 . S
O36 C44 1.311 . S
O37 Zn28 1.977 . S
O37 C43 1.272 . S
O38 Zn28 1.910 . S
O38 C44 1.231 . S
C39 O23 1.225 . S
C39 O45 1.298 . S
C40 O29 1.226 . S
C40 O30 1.307 . S
C41 O33 1.303 . S
C41 O34 1.247 . S
C42 O31 1.253 . S
C42 O32 1.283 . S
C43 O35 1.304 . S
C43 O37 1.272 . S
C44 O36 1.311 . S
C44 O38 1.231 . S
O45 Zn27 1.953 . S
O45 C39 1.298 . S
H46 C49 0.929 . S
H47 C52 0.929 . S
H48 C54 0.930 . S
C49 H46 0.929 . S
C49 C50 1.398 . S
C49 C51 1.396 . S
C50 C49 1.398 . S
C50 C54 1.407 . S
C51 C49 1.396 . S
C51 C52 1.394 1_465 S
C52 H47 0.929 . S
C52 C51 1.394 1_645 S
C52 C53 1.382 . S
C53 C52 1.382 . S
C53 C54 1.392 1_645 S
C53 N55 1.420 . S
C54 H48 0.930 . S
C54 C50 1.407 . S
C54 C53 1.392 1_465 S
N55 C53 1.420 . S
N55 C56 1.244 . S
C56 N55 1.244 . S
H57 C60 0.929 . S
H58 C63 0.929 . S
H59 C65 0.930 . S
C60 H57 0.929 . S
C60 C61 1.398 . S
C60 C62 1.396 . S
C61 C60 1.398 . S
C61 C65 1.407 . S
C62 C60 1.396 . S
C62 C63 1.394 1_665 S
C63 H58 0.929 . S
C63 C62 1.394 1_445 S
C63 C64 1.382 . S
C64 C63 1.382 . S
C64 C65 1.392 1_445 S
C64 N66 1.420 . S
C65 H59 0.930 . S
C65 C61 1.407 . S
C65 C64 1.392 1_665 S
N66 C64 1.420 . S
N66 C67 1.244 . S
C67 N66 1.244 . S
H68 C71 0.929 . S
H69 C74 0.929 . S
H70 C76 0.930 . S
C71 H68 0.929 . S
C71 C72 1.398 . S
C71 C73 1.396 . S
C72 C71 1.398 . S
C72 C76 1.407 . S
C73 C71 1.396 . S
C73 C74 1.394 . S
C74 H69 0.929 . S
C74 C73 1.394 . S
C74 C75 1.382 . S
C75 C74 1.382 . S
C75 C76 1.392 . S
C75 N77 1.420 . S
C76 H70 0.930 . S
C76 C72 1.407 . S
C76 C75 1.392 . S
N77 C75 1.420 . S
N77 C78 1.244 . S
C78 N77 1.244 . S
H79 C82 0.929 . S
H80 C85 0.929 . S
H81 C87 0.930 . S
C82 H79 0.929 . S
C82 C83 1.398 . S
C82 C84 1.396 . S
C83 C82 1.398 . S
C83 C87 1.407 . S
C84 C82 1.396 . S
C84 C85 1.394 . S
C85 H80 0.929 . S
C85 C84 1.394 . S
C85 C86 1.382 . S
C86 C85 1.382 . S
C86 C87 1.392 . S
C86 N88 1.420 . S
C87 H81 0.930 . S
C87 C83 1.407 . S
C87 C86 1.392 . S
N88 C86 1.420 . S
N88 C89 1.244 . S
C89 N88 1.244 . S
C90 C91 1.369 . S
C90 C92 1.419 . S
C90 H94 0.930 . S
C91 C90 1.369 . S
C91 C100 1.429 . S
C92 C90 1.419 . S
C92 C93 1.363 . S
C92 H95 0.929 . S
C93 C92 1.363 . S
C93 C99 1.428 . S
H94 C90 0.930 . S
H95 C92 0.929 . S
S96 N97 1.613 . S
S96 N98 1.610 . S
N97 S96 1.613 . S
N97 C100 1.350 . S
N98 S96 1.610 . S
N98 C99 1.351 . S
C99 C93 1.428 . S
C99 N98 1.351 . S
C99 C100 1.434 . S
C100 C91 1.429 . S
C100 N97 1.350 . S
C100 C99 1.434 . S
C101 C102 1.369 . S
C101 C103 1.419 . S
C101 H105 0.930 . S
C102 C101 1.369 . S
C102 C111 1.429 1_556 S
C103 C101 1.419 . S
C103 C104 1.363 . S
C103 H106 0.929 . S
C104 C103 1.363 . S
C104 C110 1.428 . S
H105 C101 0.930 . S
H106 C103 0.929 . S
S107 N108 1.613 . S
S107 N109 1.610 . S
N108 S107 1.613 . S
N108 C111 1.350 . S
N109 S107 1.610 . S
N109 C110 1.351 1_554 S
C110 C104 1.428 . S
C110 N109 1.351 1_556 S
C110 C111 1.434 1_556 S
C111 C102 1.429 1_554 S
C111 N108 1.350 . S
C111 C110 1.434 1_554 S
C112 C113 1.361 1_556 S
C112 C114 1.413 1_556 S
C112 H116 0.945 . S
C113 C112 1.361 1_554 S
C113 C122 1.429 . S
C114 C112 1.413 1_554 S
C114 C115 1.363 . S
C114 H117 0.929 1_554 S
C115 C114 1.363 . S
C115 C121 1.428 . S
H116 C112 0.945 . S
H117 C114 0.929 1_556 S
S118 N119 1.613 . S
S118 N120 1.610 . S
N119 S118 1.613 . S
N119 C122 1.350 . S
N120 S118 1.610 . S
N120 C121 1.351 . S
C121 C115 1.428 . S
C121 N120 1.351 . S
C121 C122 1.434 . S
C122 C113 1.429 . S
C122 N119 1.350 . S
C122 C121 1.434 . S
C123 C124 1.369 . S
C123 C125 1.419 . S
C123 H127 0.930 1_556 S
C124 C123 1.369 . S
C124 C133 1.429 . S
C125 C123 1.419 . S
C125 C126 1.363 . S
C125 H128 0.929 1_556 S
C126 C125 1.363 . S
C126 C132 1.428 . S
H127 C123 0.930 1_554 S
H128 C125 0.929 1_554 S
S129 N130 1.613 . S
S129 N131 1.610 . S
N130 S129 1.613 . S
N130 C133 1.350 . S
N131 S129 1.610 . S
N131 C132 1.351 . S
C132 C126 1.428 . S
C132 N131 1.351 . S
C132 C133 1.434 . S
C133 C124 1.429 . S
C133 N130 1.350 . S
C133 C132 1.434 . S
C134 C135 1.369 . S
C134 C136 1.419 . S
C134 H138 0.930 . S
C135 C134 1.369 . S
C135 C144 1.429 . S
C136 C134 1.419 . S
C136 C137 1.363 . S
C136 H139 0.929 . S
C137 C136 1.363 . S
C137 C143 1.428 . S
H138 C134 0.930 . S
H139 C136 0.929 . S
S140 N141 1.613 . S
S140 N142 1.610 . S
N141 S140 1.613 . S
N141 C144 1.350 . S
N142 S140 1.610 . S
N142 C143 1.351 . S
C143 C137 1.428 . S
C143 N142 1.351 . S
C143 C144 1.434 . S
C144 C135 1.429 . S
C144 N141 1.350 . S
C144 C143 1.434 . S
C145 C146 1.369 . S
C145 C147 1.419 . S
C145 H149 0.930 . S
C146 C145 1.369 . S
C146 C155 1.429 . S
C147 C145 1.419 . S
C147 C148 1.363 . S
C147 H150 0.929 . S
C148 C147 1.363 . S
C148 C154 1.428 . S
H149 C145 0.930 . S
H150 C147 0.929 . S
S151 N152 1.613 . S
S151 N153 1.610 . S
N152 S151 1.613 . S
N152 C155 1.350 . S
N153 S151 1.610 . S
N153 C154 1.351 . S
C154 C148 1.428 . S
C154 N153 1.351 . S
C154 C155 1.434 . S
C155 C146 1.429 . S
C155 N152 1.350 . S
C155 C154 1.434 . S
C156 C157 1.369 . S
C156 C158 1.419 . S
C156 H160 0.930 . S
C157 C156 1.369 . S
C157 C166 1.429 . S
C158 C156 1.419 . S
C158 C159 1.363 . S
C158 H161 0.929 . S
C159 C158 1.363 . S
C159 C165 1.428 . S
H160 C156 0.930 . S
H161 C158 0.929 . S
S162 N163 1.613 . S
S162 N164 1.610 . S
N163 S162 1.613 . S
N163 C166 1.350 . S
N164 S162 1.610 . S
N164 C165 1.351 . S
C165 C159 1.428 . S
C165 N164 1.351 . S
C165 C166 1.434 . S
C166 C157 1.429 . S
C166 N163 1.350 . S
C166 C165 1.434 . S
C167 C168 1.369 . S
C167 C169 1.419 . S
C167 H171 0.930 . S
C168 C167 1.369 . S
C168 C177 1.429 . S
C169 C167 1.419 . S
C169 C170 1.363 . S
C169 H172 0.929 . S
C170 C169 1.363 . S
C170 C176 1.428 . S
H171 C167 0.930 . S
H172 C169 0.929 . S
S173 N174 1.613 . S
S173 N175 1.610 . S
N174 S173 1.613 . S
N174 C177 1.350 . S
N175 S173 1.610 . S
N175 C176 1.351 . S
C176 C170 1.428 . S
C176 N175 1.351 . S
C176 C177 1.434 . S
C177 C168 1.429 . S
C177 N174 1.350 . S
C177 C176 1.434 . S
C178 C179 1.369 1_565 S
C178 C180 1.419 . S
C178 H182 0.930 . S
C179 C178 1.369 1_545 S
C179 C188 1.429 1_455 S
C180 C178 1.419 . S
C180 C181 1.363 . S
C180 H183 0.929 . S
C181 C180 1.363 . S
C181 C187 1.428 1_465 S
H182 C178 0.930 . S
H183 C180 0.929 . S
S184 N185 1.613 . S
S184 N186 1.610 . S
N185 S184 1.613 . S
N185 C188 1.350 . S
N186 S184 1.610 . S
N186 C187 1.351 . S
C187 C181 1.428 1_645 S
C187 N186 1.351 . S
C187 C188 1.434 . S
C188 C179 1.429 1_655 S
C188 N185 1.350 . S
C188 C187 1.434 . S
C189 C190 1.369 1_455 S
C189 C191 1.419 . S
C189 H193 0.930 . S
C190 C189 1.369 1_655 S
C190 C199 1.429 1_545 S
C191 C189 1.419 . S
C191 C192 1.363 1_445 S
C191 H194 0.929 . S
C192 C191 1.363 1_665 S
C192 C198 1.428 . S
H193 C189 0.930 . S
H194 C191 0.929 . S
S195 N196 1.613 . S
S195 N197 1.610 . S
N196 S195 1.613 . S
N196 C199 1.350 . S
N197 S195 1.610 . S
N197 C198 1.351 . S
C198 C192 1.428 . S
C198 N197 1.351 . S
C198 C199 1.434 . S
C199 C190 1.429 1_565 S
C199 N196 1.350 . S
C199 C198 1.434 . S
C200 C201 1.369 . S
C200 C202 1.419 . S
C200 H204 0.930 . S
C201 C200 1.369 . S
C201 C210 1.429 . S
C202 C200 1.419 . S
C202 C203 1.363 . S
C202 H205 0.929 . S
C203 C202 1.363 . S
C203 C209 1.428 . S
H204 C200 0.930 . S
H205 C202 0.929 . S
S206 N207 1.613 . S
S206 N208 1.610 . S
N207 S206 1.613 . S
N207 C210 1.350 . S
N208 S206 1.610 . S
N208 C209 1.351 . S
C209 C203 1.428 . S
C209 N208 1.351 . S
C209 C210 1.434 . S
C210 C201 1.429 . S
C210 N207 1.350 . S
C210 C209 1.434 . S
C211 C212 1.369 . S
C211 C213 1.419 . S
C211 H215 0.930 . S
C212 C211 1.369 . S
C212 C221 1.429 . S
C213 C211 1.419 . S
C213 C214 1.363 . S
C213 H216 0.929 . S
C214 C213 1.363 . S
C214 C220 1.428 . S
H215 C211 0.930 . S
H216 C213 0.929 . S
S217 N218 1.613 . S
S217 N219 1.610 . S
N218 S217 1.613 . S
N218 C221 1.350 . S
N219 S217 1.610 . S
N219 C220 1.351 . S
C220 C214 1.428 . S
C220 N219 1.351 . S
C220 C221 1.434 . S
C221 C212 1.429 . S
C221 N218 1.350 . S
C221 C220 1.434 . S
C93 C83 1.512 . S
C91 C21 1.511 . S
C102 C19 1.445 . S
C104 C78 1.428 . S
C113 C18 1.416 . S
C115 C89 1.409 . S
C124 C20 1.501 . S
C126 C72 1.501 . S
C135 C44 1.514 . S
C137 C61 1.509 . S
C146 C42 1.445 . S
C148 C56 1.425 . S
C159 C67 1.410 . S
C157 C41 1.416 . S
C170 C50 1.502 . S
C168 C43 1.499 . S
C179 C16 1.530 . S
C181 C51 1.527 . S
C190 C17 1.497 . S
C192 C62 1.493 . S
C203 C73 1.527 . S
C201 C39 1.529 . S
C212 C40 1.498 . S
C214 C84 1.495 . S
