# Generated by pormake.
# Topology cml, (3,6)-cn, num edge types: 1
# Building blocks:
#     Node 0, Type 0, BuildingBlock: PAMTOO_clean_linker_0, # of connection points: 3
#     Node 1, Type 0, BuildingBlock: PAMTOO_clean_linker_0, # of connection points: 3
#     Node 2, Type 0, BuildingBlock: PAMTOO_clean_linker_0, # of connection points: 3
#     Node 3, Type 0, BuildingBlock: PAMTOO_clean_linker_0, # of connection points: 3
#     Node 4, Type 0, BuildingBlock: PAMTOO_clean_linker_0, # of connection points: 3
#     Node 5, Type 0, BuildingBlock: PAMTOO_clean_linker_0, # of connection points: 3
#     Node 6, Type 0, BuildingBlock: PAMTOO_clean_linker_0, # of connection points: 3
#     Node 7, Type 0, BuildingBlock: PAMTOO_clean_linker_0, # of connection points: 3
#     Node 8, Type 1, BuildingBlock: IZENUY_clean_sbu_0, # of connection points: 6
#     Node 9, Type 1, BuildingBlock: IZENUY_clean_sbu_0, # of connection points: 6
#     Node 10, Type 1, BuildingBlock: IZENUY_clean_sbu_0, # of connection points: 6
#     Node 11, Type 1, BuildingBlock: IZENUY_clean_sbu_0, # of connection points: 6
#     Edge 12, Type (0, 1), None
#     Edge 13, Type (0, 1), None
#     Edge 14, Type (0, 1), None
#     Edge 15, Type (0, 1), None
#     Edge 16, Type (0, 1), None
#     Edge 17, Type (0, 1), None
#     Edge 18, Type (0, 1), None
#     Edge 19, Type (0, 1), None
#     Edge 20, Type (0, 1), None
#     Edge 21, Type (0, 1), None
#     Edge 22, Type (0, 1), None
#     Edge 23, Type (0, 1), None
#     Edge 24, Type (0, 1), None
#     Edge 25, Type (0, 1), None
#     Edge 26, Type (0, 1), None
#     Edge 27, Type (0, 1), None
#     Edge 28, Type (0, 1), None
#     Edge 29, Type (0, 1), None
#     Edge 30, Type (0, 1), None
#     Edge 31, Type (0, 1), None
#     Edge 32, Type (0, 1), None
#     Edge 33, Type (0, 1), None
#     Edge 34, Type (0, 1), None
#     Edge 35, Type (0, 1), None
# Relax obj value: 0.005
# Max RMSD: 0.056
# Mean RMSD: 0.048
data_MOF--net-cml--node1-IZENUY_clean_sbu_0--node2-PAMTOO_clean_linker_0--edge1-none
_symmetry_space_group_name_H-M    P1
_symmetry_Int_Tables_number       1
_symmetry_cell_setting            triclinic
loop_
_symmetry_equiv_pos_as_xyz
'x, y, z'
_cell_length_a     15.995846
_cell_length_b     18.553137
_cell_length_c     16.093116
_cell_angle_alpha  89.758564
_cell_angle_beta   89.107929
_cell_angle_gamma 90.179358
loop_
_atom_site_label
_atom_site_type_symbol
_atom_site_fract_x
_atom_site_fract_y
_atom_site_fract_z
_atom_type_partial_charge
H0 H 0.47658 0.4997 0.07608 0.0
H1 H 0.29008 0.46371 0.89395 0.0
H2 H 0.30103 0.32597 0.11109 0.0
H3 H 0.26962 0.26002 0.92634 0.0
C4 C 0.22899 0.3052 0.90628 0.0
O5 O 0.22067 0.35373 0.97072 0.0
H6 H 0.25861 0.33152 0.85089 0.0
C7 C 0.42229 0.4699 0.05621 0.0
C8 C 0.39281 0.4121 0.10496 0.0
C9 C 0.38709 0.48894 0.98059 0.0
C10 C 0.31854 0.44964 0.95246 0.0
C11 C 0.28727 0.39085 -0.00063 0.0
C12 C 0.32516 0.37123 0.07532 0.0
H13 H 0.63079 0.5051 0.60073 0.0
H14 H 0.75623 0.71084 0.60309 0.0
H15 H 0.76027 0.58272 0.38212 0.0
H16 H 0.91295 0.64551 0.40138 0.0
C17 C 0.89964 0.69392 0.44001 0.0
O18 O 0.81443 0.70147 0.4498 0.0
H19 H 0.92894 0.68565 0.50162 0.0
C20 C 0.67362 0.54342 0.57167 0.0
C21 C 0.6967 0.53427 0.48794 0.0
C22 C 0.69307 0.60776 0.61317 0.0
C23 C 0.74214 0.66046 0.57239 0.0
C24 C 0.76882 0.65013 0.48996 0.0
C25 C 0.74464 0.58784 0.44762 0.0
H26 H 0.61992 0.52793 0.09671 0.0
H27 H 0.78336 0.34435 0.10745 0.0
H28 H 0.78253 0.47945 0.88953 0.0
H29 H 0.82109 0.33779 0.84696 0.0
C30 C 0.84222 0.31476 0.90697 0.0
O31 O 0.85712 0.37001 0.96227 0.0
H32 H 0.79183 0.27879 0.93186 0.0
C33 C 0.67038 0.49631 0.06987 0.0
C34 C 0.69804 0.5115 0.98878 0.0
C35 C 0.69887 0.43515 0.11229 0.0
C36 C 0.76119 0.39192 0.07545 0.0
C37 C 0.7945 0.40993 -0.00344 0.0
C38 C 0.76125 0.46876 0.95265 0.0
H39 H 0.43956 0.51454 0.59301 0.0
H40 H 0.34515 0.60084 0.36626 0.0
H41 H 0.3287 0.72602 0.59025 0.0
H42 H 0.16831 0.66174 0.45 0.0
C43 C 0.20311 0.69547 0.40346 0.0
O44 O 0.28019 0.71527 0.43353 0.0
H45 H 0.212 0.66264 0.34632 0.0
C46 C 0.40775 0.55743 0.56053 0.0
C47 C 0.39002 0.62248 0.60215 0.0
C48 C 0.39498 0.54972 0.47515 0.0
C49 C 0.35537 0.60532 0.43244 0.0
C50 C 0.32674 0.66658 0.47492 0.0
C51 C 0.34575 0.67628 0.55945 0.0
H52 H 0.97665 0.99972 0.07613 0.0
H53 H 0.79017 0.96376 0.89398 0.0
H54 H 0.80114 0.82594 0.11105 0.0
H55 H 0.76979 0.7601 0.92513 0.0
C56 C 0.72873 0.80536 0.90618 0.0
O57 O 0.72072 0.85381 0.97074 0.0
H58 H 0.75742 0.83257 0.85088 0.0
C59 C 0.92238 0.96991 0.05624 0.0
C60 C 0.8929 0.91209 0.10496 0.0
C61 C 0.88718 0.98896 0.98062 0.0
C62 C 0.81866 0.94965 0.95246 0.0
C63 C 0.78742 0.89083 -0.00068 0.0
C64 C 0.82529 0.8712 0.07528 0.0
H65 H 0.13078 1.00517 0.60081 0.0
H66 H 0.25626 0.21089 0.60308 0.0
H67 H 0.26024 0.08271 0.38214 0.0
H68 H 0.41294 0.1455 0.40135 0.0
C69 C 0.39964 0.19391 0.43997 0.0
O70 O 0.31443 0.20148 0.44978 0.0
H71 H 0.42895 0.18565 0.50157 0.0
C72 C 0.17361 0.04348 0.57173 0.0
C73 C 0.19668 0.0343 0.488 0.0
C74 C 0.19308 0.10782 0.6132 0.0
C75 C 0.24216 0.16051 0.57239 0.0
C76 C 0.26882 0.15015 0.48996 0.0
C77 C 0.24463 0.08785 0.44765 0.0
H78 H 0.11991 0.02811 0.09688 0.0
H79 H 0.28329 0.84449 0.10757 0.0
H80 H 0.28245 0.97958 0.88964 0.0
H81 H 0.32162 0.83809 0.84728 0.0
C82 C 0.34237 0.81476 0.90727 0.0
O83 O 0.35707 0.87018 0.96242 0.0
H84 H 0.29258 0.7787 0.93318 0.0
C85 C 0.17035 0.99648 0.07002 0.0
C86 C 0.198 1.01166 0.98892 0.0
C87 C 0.19881 0.9353 0.11242 0.0
C88 C 0.26111 0.89206 0.07556 0.0
C89 C 0.2944 0.91006 -0.00334 0.0
C90 C 0.26116 0.96889 0.95276 0.0
H91 H 0.93956 1.01462 0.59313 0.0
H92 H 0.84512 0.10083 0.36636 0.0
H93 H 0.82871 0.22611 0.59027 0.0
H94 H 0.66833 0.16169 0.44988 0.0
C95 C 0.70315 0.19546 0.40339 0.0
O96 O 0.78018 0.21529 0.43355 0.0
H97 H 0.71213 0.16266 0.34624 0.0
C98 C 0.90775 0.0575 0.56063 0.0
C99 C 0.89003 0.12257 0.60222 0.0
C100 C 0.89495 0.04975 0.47526 0.0
C101 C 0.85535 0.10534 0.43253 0.0
C102 C 0.82672 0.16662 0.47498 0.0
C103 C 0.84576 0.17636 0.5595 0.0
Fe104 Fe 0.04422 0.80986 0.26598 0.0
Fe105 Fe 0.04278 0.86742 0.44661 0.0
O106 O 0.04283 0.88322 0.33739 0.0
Fe107 Fe 0.04244 0.97272 0.29946 0.0
O108 O 0.98222 0.95138 0.20871 0.0
O109 O 0.94652 0.83738 0.21596 0.0
O110 O 0.98286 0.74922 0.33428 0.0
C111 C 0.93892 0.7589 0.39951 0.0
C112 C 0.153 0.91299 0.18852 0.0
O113 O 0.94655 0.81543 0.44214 0.0
C114 C 0.14929 0.9831 0.43747 0.0
O115 O 0.14134 0.77654 0.30829 0.0
O116 O 0.10589 0.78558 0.44066 0.0
O117 O 0.14047 0.96005 0.24352 0.0
O118 O 0.10742 0.85709 0.18567 0.0
C119 C 0.9361 0.98956 0.43053 0.0
O120 O 0.1392 0.91848 0.46079 0.0
O121 O 0.10295 1.01065 0.3834 0.0
C122 C 0.15144 0.75964 0.38351 0.0
O123 O 0.98021 0.94661 0.47237 0.0
O124 O 0.94458 0.9929 0.35263 0.0
C125 C 0.93766 0.89944 0.18449 0.0
Fe126 Fe 1.03384 0.17102 0.94592 0.0
Fe127 Fe 1.03619 0.06381 0.80102 0.0
O128 O 1.03432 0.15399 0.83716 0.0
Fe129 Fe 1.03467 0.22728 0.7652 0.0
O130 O 0.13169 0.26123 0.80766 0.0
O131 O 0.09488 0.25463 0.93923 0.0
O132 O 0.13229 0.12323 0.96033 0.0
C133 C 0.14599 0.05913 0.93751 0.0
C134 C 0.9198 0.27053 0.8918 0.0
O135 O 0.09878 0.02858 0.88612 0.0
C136 C 0.93115 0.13442 0.68369 0.0
O137 O 0.97385 0.09062 0.97264 0.0
O138 O 0.93842 0.04123 0.85486 0.0
O139 O 0.96869 0.28611 0.83138 0.0
O140 O 0.9352 0.21866 0.93997 0.0
C141 C 0.14517 0.12611 0.68904 0.0
O142 O 0.97543 0.08295 0.70957 0.0
O143 O 0.93892 0.19688 0.71426 0.0
C144 C 0.92895 0.04721 0.93236 0.0
O145 O 0.13352 0.07813 0.74379 0.0
O146 O 0.0996 0.1817 0.6867 0.0
C147 C 0.14602 0.27398 0.88293 0.0
Fe148 Fe 0.54421 0.30981 0.2659 0.0
Fe149 Fe 0.54281 0.3674 0.44651 0.0
O150 O 0.54286 0.38318 0.3373 0.0
Fe151 Fe 0.54253 0.47267 0.29934 0.0
O152 O 0.48228 0.45133 0.20861 0.0
O153 O 0.44649 0.33735 0.2159 0.0
O154 O 0.48285 0.24918 0.33421 0.0
C155 C 0.43893 0.25888 0.39945 0.0
C156 C 0.65305 0.41287 0.18841 0.0
O157 O 0.44657 0.31542 0.44206 0.0
C158 C 0.64935 0.48306 0.43739 0.0
O159 O 0.64132 0.27647 0.30819 0.0
O160 O 0.60591 0.28555 0.44058 0.0
O161 O 0.64056 0.45994 0.2434 0.0
O162 O 0.6074 0.357 0.18556 0.0
C163 C 0.43616 0.48955 0.4304 0.0
O164 O 0.63923 0.41845 0.46071 0.0
O165 O 0.60305 0.51061 0.38327 0.0
C166 C 0.65145 0.2596 0.38343 0.0
O167 O 0.48024 0.44659 0.47225 0.0
O168 O 0.44468 0.49292 0.3525 0.0
C169 C 0.43765 0.39942 0.18444 0.0
Fe170 Fe 0.53394 0.6709 0.94586 0.0
Fe171 Fe 0.53615 0.5637 0.80096 0.0
O172 O 0.5343 0.6539 0.83712 0.0
Fe173 Fe 0.53458 0.72717 0.76517 0.0
O174 O 0.63153 0.76119 0.80768 0.0
O175 O 0.59503 0.7545 0.93933 0.0
O176 O 0.6324 0.62308 0.96017 0.0
C177 C 0.64603 0.55897 0.93737 0.0
C178 C 0.42048 0.7711 0.8926 0.0
O179 O 0.59872 0.52843 0.88606 0.0
C180 C 0.43112 0.6343 0.68362 0.0
O181 O 0.47389 0.59051 0.97256 0.0
O182 O 0.43837 0.54114 0.8548 0.0
O183 O 0.46848 0.78602 0.83126 0.0
O184 O 0.43538 0.71861 0.94003 0.0
C185 C 0.64514 0.62602 0.68902 0.0
O186 O 0.47541 0.58284 0.7095 0.0
O187 O 0.43887 0.69675 0.71421 0.0
C188 C 0.42892 0.54714 0.9323 0.0
O189 O 0.63348 0.57801 0.74373 0.0
O190 O 0.59959 0.68162 0.68671 0.0
C191 C 0.64544 0.7748 0.88282 0.0
loop_
_geom_bond_atom_site_label_1
_geom_bond_atom_site_label_2
_geom_bond_distance
_geom_bond_site_symmetry_2
_ccdc_geom_bond_type
H0 C7 0.929 . S
H1 C10 0.930 . S
H2 C12 0.929 . S
H3 C4 0.969 . S
C4 H3 0.969 . S
C4 O5 1.550 1_556 S
C4 H6 0.973 . S
O5 C4 1.550 1_554 S
O5 C11 1.412 . S
H6 C4 0.973 . S
C7 H0 0.929 . S
C7 C8 1.400 . S
C7 C9 1.364 1_554 S
C8 C7 1.400 . S
C8 C12 1.377 . S
C9 C7 1.364 1_556 S
C9 C10 1.374 . S
C10 H1 0.930 . S
C10 C9 1.374 . S
C10 C11 1.383 1_556 S
C11 O5 1.412 . S
C11 C10 1.383 1_554 S
C11 C12 1.394 . S
C12 H2 0.929 . S
C12 C8 1.377 . S
C12 C11 1.394 . S
H13 C20 0.929 . S
H14 C23 0.930 . S
H15 C25 0.929 . S
H16 C17 0.969 . S
C17 H16 0.969 . S
C17 O18 1.550 . S
C17 H19 0.973 . S
O18 C17 1.550 . S
O18 C24 1.412 . S
H19 C17 0.973 . S
C20 H13 0.929 . S
C20 C21 1.400 . S
C20 C22 1.364 . S
C21 C20 1.400 . S
C21 C25 1.377 . S
C22 C20 1.364 . S
C22 C23 1.374 . S
C23 H14 0.930 . S
C23 C22 1.374 . S
C23 C24 1.383 . S
C24 O18 1.412 . S
C24 C23 1.383 . S
C24 C25 1.394 . S
C25 H15 0.929 . S
C25 C21 1.377 . S
C25 C24 1.394 . S
H26 C33 0.929 . S
H27 C36 0.930 . S
H28 C38 0.929 . S
H29 C30 0.969 . S
C30 H29 0.969 . S
C30 O31 1.550 . S
C30 H32 0.973 1_556 S
O31 C30 1.550 . S
O31 C37 1.412 . S
H32 C30 0.973 1_554 S
C33 H26 0.929 . S
C33 C34 1.400 1_554 S
C33 C35 1.364 . S
C34 C33 1.400 1_556 S
C34 C38 1.377 . S
C35 C33 1.364 . S
C35 C36 1.374 . S
C36 H27 0.930 . S
C36 C35 1.374 . S
C36 C37 1.383 1_554 S
C37 O31 1.412 . S
C37 C36 1.383 1_556 S
C37 C38 1.394 . S
C38 H28 0.929 . S
C38 C34 1.377 . S
C38 C37 1.394 . S
H39 C46 0.929 . S
H40 C49 0.930 . S
H41 C51 0.929 . S
H42 C43 0.969 . S
C43 H42 0.969 . S
C43 O44 1.550 . S
C43 H45 0.973 . S
O44 C43 1.550 . S
O44 C50 1.412 . S
H45 C43 0.973 . S
C46 H39 0.929 . S
C46 C47 1.400 . S
C46 C48 1.364 . S
C47 C46 1.400 . S
C47 C51 1.377 . S
C48 C46 1.364 . S
C48 C49 1.374 . S
C49 H40 0.930 . S
C49 C48 1.374 . S
C49 C50 1.383 . S
C50 O44 1.412 . S
C50 C49 1.383 . S
C50 C51 1.394 . S
C51 H41 0.929 . S
C51 C47 1.377 . S
C51 C50 1.394 . S
H52 C59 0.929 . S
H53 C62 0.930 . S
H54 C64 0.929 . S
H55 C56 0.969 . S
C56 H55 0.969 . S
C56 O57 1.550 1_556 S
C56 H58 0.973 . S
O57 C56 1.550 1_554 S
O57 C63 1.412 . S
H58 C56 0.973 . S
C59 H52 0.929 . S
C59 C60 1.400 . S
C59 C61 1.364 1_554 S
C60 C59 1.400 . S
C60 C64 1.377 . S
C61 C59 1.364 1_556 S
C61 C62 1.374 . S
C62 H53 0.930 . S
C62 C61 1.374 . S
C62 C63 1.383 1_556 S
C63 O57 1.412 . S
C63 C62 1.383 1_554 S
C63 C64 1.394 . S
C64 H54 0.929 . S
C64 C60 1.377 . S
C64 C63 1.394 . S
H65 C72 0.929 . S
H66 C75 0.930 . S
H67 C77 0.929 . S
H68 C69 0.969 . S
C69 H68 0.969 . S
C69 O70 1.550 . S
C69 H71 0.973 . S
O70 C69 1.550 . S
O70 C76 1.412 . S
H71 C69 0.973 . S
C72 H65 0.929 . S
C72 C73 1.400 . S
C72 C74 1.364 . S
C73 C72 1.400 . S
C73 C77 1.377 . S
C74 C72 1.364 . S
C74 C75 1.374 . S
C75 H66 0.930 . S
C75 C74 1.374 . S
C75 C76 1.383 . S
C76 O70 1.412 . S
C76 C75 1.383 . S
C76 C77 1.394 . S
C77 H67 0.929 . S
C77 C73 1.377 . S
C77 C76 1.394 . S
H78 C85 0.929 . S
H79 C88 0.930 . S
H80 C90 0.929 . S
H81 C82 0.969 . S
C82 H81 0.969 . S
C82 O83 1.550 . S
C82 H84 0.973 1_556 S
O83 C82 1.550 . S
O83 C89 1.412 . S
H84 C82 0.973 1_554 S
C85 H78 0.929 . S
C85 C86 1.400 1_554 S
C85 C87 1.364 . S
C86 C85 1.400 1_556 S
C86 C90 1.377 . S
C87 C85 1.364 . S
C87 C88 1.374 . S
C88 H79 0.930 . S
C88 C87 1.374 . S
C88 C89 1.383 1_554 S
C89 O83 1.412 . S
C89 C88 1.383 1_556 S
C89 C90 1.394 . S
C90 H80 0.929 . S
C90 C86 1.377 . S
C90 C89 1.394 . S
H91 C98 0.929 . S
H92 C101 0.930 . S
H93 C103 0.929 . S
H94 C95 0.969 . S
C95 H94 0.969 . S
C95 O96 1.550 . S
C95 H97 0.973 . S
O96 C95 1.550 . S
O96 C102 1.412 . S
H97 C95 0.973 . S
C98 H91 0.929 . S
C98 C99 1.400 . S
C98 C100 1.364 . S
C99 C98 1.400 . S
C99 C103 1.377 . S
C100 C98 1.364 . S
C100 C101 1.374 . S
C101 H92 0.930 . S
C101 C100 1.374 . S
C101 C102 1.383 . S
C102 O96 1.412 . S
C102 C101 1.383 . S
C102 C103 1.394 . S
C103 H93 0.929 . S
C103 C99 1.377 . S
C103 C102 1.394 . S
Fe104 O106 1.918 . S
Fe104 O109 1.997 1_455 S
Fe104 O110 2.002 1_455 S
Fe104 O115 1.976 . S
Fe104 O118 1.996 . S
Fe105 O106 1.918 . S
Fe105 O113 1.997 1_455 S
Fe105 O116 1.996 . S
Fe105 O120 1.976 . S
Fe105 O123 2.002 1_455 S
O106 Fe104 1.918 . S
O106 Fe105 1.918 . S
O106 Fe107 1.918 . S
Fe107 O106 1.918 . S
Fe107 O108 2.002 1_455 S
Fe107 O117 1.976 . S
Fe107 O121 1.996 1_565 S
Fe107 O124 1.997 1_465 S
O108 Fe107 2.002 1_655 S
O108 C125 1.295 . S
O109 Fe104 1.997 1_655 S
O109 C125 1.235 . S
O110 Fe104 2.002 1_655 S
O110 C111 1.295 . S
C111 O110 1.295 . S
C111 O113 1.235 . S
C112 O117 1.287 . S
C112 O118 1.255 . S
O113 Fe105 1.997 1_655 S
O113 C111 1.235 . S
C114 O120 1.286 1_545 S
C114 O121 1.255 . S
O115 Fe104 1.976 . S
O115 C122 1.287 . S
O116 Fe105 1.996 . S
O116 C122 1.255 . S
O117 Fe107 1.976 . S
O117 C112 1.287 . S
O118 Fe104 1.996 . S
O118 C112 1.255 . S
C119 O123 1.295 . S
C119 O124 1.235 1_565 S
O120 Fe105 1.976 . S
O120 C114 1.286 1_565 S
O121 Fe107 1.996 1_545 S
O121 C114 1.255 . S
C122 O115 1.287 . S
C122 O116 1.255 . S
O123 Fe105 2.002 1_655 S
O123 C119 1.295 . S
O124 Fe107 1.997 1_645 S
O124 C119 1.235 1_545 S
C125 O108 1.295 . S
C125 O109 1.235 . S
Fe126 O128 1.918 . S
Fe126 O131 1.997 1_655 S
Fe126 O132 2.002 1_655 S
Fe126 O137 1.976 . S
Fe126 O140 1.996 . S
Fe127 O128 1.918 1_455 S
Fe127 O135 1.997 1_545 S
Fe127 O138 1.996 1_445 S
Fe127 O142 1.976 1_455 S
Fe127 O145 2.002 . S
O128 Fe126 1.918 . S
O128 Fe127 1.918 1_655 S
O128 Fe129 1.918 1_655 S
Fe129 O128 1.918 1_455 S
Fe129 O130 2.002 . S
Fe129 O139 1.976 1_455 S
Fe129 O143 1.996 1_455 S
Fe129 O146 1.997 . S
O130 Fe129 2.002 . S
O130 C147 1.295 . S
O131 Fe126 1.997 1_455 S
O131 C147 1.235 . S
O132 Fe126 2.002 1_455 S
O132 C133 1.295 . S
C133 O132 1.295 . S
C133 O135 1.235 1_545 S
C134 O139 1.287 . S
C134 O140 1.255 . S
O135 Fe127 1.997 1_565 S
O135 C133 1.235 1_565 S
C136 O142 1.287 . S
C136 O143 1.255 . S
O137 Fe126 1.976 . S
O137 C144 1.287 1_545 S
O138 Fe127 1.996 1_665 S
O138 C144 1.254 . S
O139 Fe129 1.976 1_655 S
O139 C134 1.287 . S
O140 Fe126 1.996 . S
O140 C134 1.255 . S
C141 O145 1.295 . S
C141 O146 1.235 . S
O142 Fe127 1.976 1_655 S
O142 C136 1.287 . S
O143 Fe129 1.996 1_655 S
O143 C136 1.255 . S
C144 O137 1.287 1_565 S
C144 O138 1.254 . S
O145 Fe127 2.002 . S
O145 C141 1.295 . S
O146 Fe129 1.997 . S
O146 C141 1.235 . S
C147 O130 1.295 . S
C147 O131 1.235 . S
Fe148 O150 1.918 . S
Fe148 O153 1.997 . S
Fe148 O154 2.002 . S
Fe148 O159 1.976 . S
Fe148 O162 1.996 . S
Fe149 O150 1.918 . S
Fe149 O157 1.997 . S
Fe149 O160 1.996 . S
Fe149 O164 1.976 . S
Fe149 O167 2.002 . S
O150 Fe148 1.918 . S
O150 Fe149 1.918 . S
O150 Fe151 1.918 . S
Fe151 O150 1.918 . S
Fe151 O152 2.002 . S
Fe151 O161 1.976 . S
Fe151 O165 1.996 . S
Fe151 O168 1.997 . S
O152 Fe151 2.002 . S
O152 C169 1.295 . S
O153 Fe148 1.997 . S
O153 C169 1.235 . S
O154 Fe148 2.002 . S
O154 C155 1.295 . S
C155 O154 1.295 . S
C155 O157 1.235 . S
C156 O161 1.287 . S
C156 O162 1.255 . S
O157 Fe149 1.997 . S
O157 C155 1.235 . S
C158 O164 1.287 . S
C158 O165 1.255 . S
O159 Fe148 1.976 . S
O159 C166 1.287 . S
O160 Fe149 1.996 . S
O160 C166 1.255 . S
O161 Fe151 1.976 . S
O161 C156 1.287 . S
O162 Fe148 1.996 . S
O162 C156 1.255 . S
C163 O167 1.295 . S
C163 O168 1.235 . S
O164 Fe149 1.976 . S
O164 C158 1.287 . S
O165 Fe151 1.996 . S
O165 C158 1.255 . S
C166 O159 1.287 . S
C166 O160 1.255 . S
O167 Fe149 2.002 . S
O167 C163 1.295 . S
O168 Fe151 1.997 . S
O168 C163 1.235 . S
C169 O152 1.295 . S
C169 O153 1.235 . S
Fe170 O172 1.918 . S
Fe170 O175 1.997 . S
Fe170 O176 2.002 . S
Fe170 O181 1.976 . S
Fe170 O184 1.996 . S
Fe171 O172 1.918 . S
Fe171 O179 1.997 . S
Fe171 O182 1.996 . S
Fe171 O186 1.976 . S
Fe171 O189 2.002 . S
O172 Fe170 1.918 . S
O172 Fe171 1.918 . S
O172 Fe173 1.918 . S
Fe173 O172 1.918 . S
Fe173 O174 2.002 . S
Fe173 O183 1.976 . S
Fe173 O187 1.996 . S
Fe173 O190 1.997 . S
O174 Fe173 2.002 . S
O174 C191 1.295 . S
O175 Fe170 1.997 . S
O175 C191 1.235 . S
O176 Fe170 2.002 . S
O176 C177 1.295 . S
C177 O176 1.295 . S
C177 O179 1.235 . S
C178 O183 1.287 . S
C178 O184 1.255 . S
O179 Fe171 1.997 . S
O179 C177 1.235 . S
C180 O186 1.287 . S
C180 O187 1.255 . S
O181 Fe170 1.976 . S
O181 C188 1.287 . S
O182 Fe171 1.996 . S
O182 C188 1.255 . S
O183 Fe173 1.976 . S
O183 C178 1.287 . S
O184 Fe170 1.996 . S
O184 C178 1.255 . S
C185 O189 1.295 . S
C185 O190 1.235 . S
O186 Fe171 1.976 . S
O186 C180 1.287 . S
O187 Fe173 1.996 . S
O187 C180 1.255 . S
C188 O181 1.287 . S
C188 O182 1.255 . S
O189 Fe171 2.002 . S
O189 C185 1.295 . S
O190 Fe173 1.997 . S
O190 C185 1.235 . S
C191 O174 1.295 . S
C191 O175 1.235 . S
C4 C147 1.557 . S
C111 C17 1.533 . S
C134 C30 1.375 . S
C122 C43 1.718 . S
C191 C56 1.557 . S
C155 C69 1.533 . S
C82 C178 1.375 . S
C166 C95 1.718 . S
C9 C188 1.603 . S
C158 C21 1.508 . S
C34 C177 1.489 . S
C48 C163 1.617 . S
C144 C61 1.602 . S
C73 C114 1.509 . S
C133 C86 1.489 1_545 S
C119 C100 1.617 1_565 S
C169 C8 1.550 . S
C185 C22 1.534 . S
C35 C156 1.531 . S
C180 C47 1.569 . S
C125 C60 1.550 . S
C74 C141 1.534 . S
C87 C112 1.531 . S
C99 C136 1.569 . S
