# Generated by pormake.
# Topology scu, (8,4)-cn, num edge types: 1
# Building blocks:
#     Node 0, Type 0, BuildingBlock: GIZVER_clean_sbu_0, # of connection points: 8
#     Node 1, Type 1, BuildingBlock: IZENUY_clean_linker_0, # of connection points: 4
#     Node 2, Type 1, BuildingBlock: IZENUY_clean_linker_0, # of connection points: 4
#     Edge 3, Type (0, 1), BuildingBlock: KIFKEQ_clean_linker_1, # of connection points: 2
#     Edge 4, Type (0, 1), BuildingBlock: KIFKEQ_clean_linker_1, # of connection points: 2
#     Edge 5, Type (0, 1), BuildingBlock: KIFKEQ_clean_linker_1, # of connection points: 2
#     Edge 6, Type (0, 1), BuildingBlock: KIFKEQ_clean_linker_1, # of connection points: 2
#     Edge 7, Type (0, 1), BuildingBlock: KIFKEQ_clean_linker_1, # of connection points: 2
#     Edge 8, Type (0, 1), BuildingBlock: KIFKEQ_clean_linker_1, # of connection points: 2
#     Edge 9, Type (0, 1), BuildingBlock: KIFKEQ_clean_linker_1, # of connection points: 2
#     Edge 10, Type (0, 1), BuildingBlock: KIFKEQ_clean_linker_1, # of connection points: 2
# Relax obj value: 0.121
# Max RMSD: 0.249
# Mean RMSD: 0.211
data_MOF--net-scu--node1-GIZVER_clean_sbu_0--node2-IZENUY_clean_linker_0--edge1-KIFKEQ_clean_linker_1
_symmetry_space_group_name_H-M    P1
_symmetry_Int_Tables_number       1
_symmetry_cell_setting            triclinic
loop_
_symmetry_equiv_pos_as_xyz
'x, y, z'
_cell_length_a     27.166954
_cell_length_b     27.664266
_cell_length_c     22.187
_cell_angle_alpha  100.50995
_cell_angle_beta   80.443895
_cell_angle_gamma 109.49319
loop_
_atom_site_label
_atom_site_type_symbol
_atom_site_fract_x
_atom_site_fract_y
_atom_site_fract_z
_atom_type_partial_charge
Co0 Co 0.05923 0.98583 0.1309 0.0
Co1 Co 0.13584 0.05707 0.08154 0.0
Co2 Co 1.03588 1.03527 0.01266 0.0
O3 O 0.07933 1.00569 0.04984 0.0
H4 H 0.09168 0.98051 0.02077 0.0
O5 O 0.99235 0.06501 0.97551 0.0
Co6 Co 1.01274 0.08554 0.89465 0.0
Co7 Co 0.93599 1.01384 0.94324 0.0
H8 H 0.97986 0.09003 1.00472 0.0
O9 O 0.19572 0.04203 0.08423 0.0
O10 O 0.12649 1.03609 0.15816 0.0
O11 O 0.13514 0.1274 0.09484 0.0
O12 O 0.05516 0.10526 0.06594 0.0
O13 O 0.09692 0.05916 0.94981 0.0
O14 O 1.02938 0.10832 0.82254 0.0
O15 O 0.98329 0.1377 0.90671 0.0
O16 O 0.04958 1.03619 0.87119 0.0
O17 O 1.01657 0.96531 0.95924 0.0
O18 O 0.93644 0.94353 0.93078 0.0
O19 O 0.94608 1.03486 0.86646 0.0
O20 O 0.87616 1.02873 0.93937 0.0
C21 C 0.06733 0.93085 0.17637 0.0
C22 C 0.97941 1.02751 0.13313 0.0
C23 C 0.09382 0.13812 0.09195 0.0
C24 C 0.1737 1.03279 0.13938 0.0
C25 C 1.0045 0.14062 0.8495 0.0
C26 C 0.09344 0.04627 0.89212 0.0
C27 C 0.97761 0.93253 0.93364 0.0
C28 C 0.89867 1.03787 0.88435 0.0
O29 O 0.04292 0.96355 0.20337 0.0
O30 O 0.08807 0.93327 0.11895 0.0
O31 O 0.97507 1.01156 0.07597 0.0
O32 O 1.02286 1.03585 0.15436 0.0
H33 H 0.03814 0.46268 0.42255 0.0
H34 H 1.02124 0.46287 0.61945 0.0
H35 H 1.02759 0.32558 0.49553 0.0
H36 H 1.02956 0.60673 0.60298 0.0
H37 H 0.04657 0.60743 0.40623 0.0
H38 H 0.04128 0.74462 0.53113 0.0
N39 N 1.03092 0.52185 0.53396 0.0
N40 N 0.03672 0.54794 0.49138 0.0
C41 C 1.03398 0.44289 0.46187 0.0
C42 C 1.03248 0.3908 0.452 0.0
C43 C 1.02942 0.46905 0.52244 0.0
C44 C 1.02397 0.44267 0.57294 0.0
C45 C 1.02395 0.39103 0.56346 0.0
C46 C 1.02765 0.36546 0.50298 0.0
C47 C 1.03384 0.62673 0.56381 0.0
C48 C 1.0357 0.6789 0.57406 0.0
C49 C 0.0383 0.60078 0.50312 0.0
C50 C 0.04391 0.62747 0.45284 0.0
C51 C 0.04429 0.67925 0.46268 0.0
C52 C 0.04079 0.7046 0.52332 0.0
H53 H 0.61881 0.05602 0.42541 0.0
H54 H 0.61268 0.06336 0.62226 0.0
H55 H 0.75972 0.08202 0.50677 0.0
H56 H 0.46537 0.05166 0.59947 0.0
H57 H 0.46698 1.01884 0.40148 0.0
H58 H 0.32416 1.02198 0.51699 0.0
N59 N 0.55404 0.0511 0.53423 0.0
N60 N 0.52755 0.04201 0.49024 0.0
C61 C 0.63824 0.06115 0.46606 0.0
C62 C 0.69292 0.07077 0.45978 0.0
C63 C 0.60915 0.05902 0.52517 0.0
C64 C 0.63515 0.06532 0.57708 0.0
C65 C 0.68963 0.07396 0.57101 0.0
C66 C 0.71795 0.07697 0.51227 0.0
C67 C 0.4451 0.04164 0.55862 0.0
C68 C 0.39149 1.03724 0.56476 0.0
C69 C 0.47265 1.03512 0.49925 0.0
C70 C 0.44573 1.02337 0.44693 0.0
C71 C 0.39187 1.0177 0.45298 0.0
C72 C 0.36538 1.0247 0.51198 0.0
H73 H 0.16667 0.21963 0.15123 0.0
H74 H 1.00314 0.1643 0.1193 0.0
H75 H 0.14946 0.28802 0.22959 0.0
H76 H 0.98627 0.23298 0.19723 0.0
H77 H 0.96934 0.29617 0.40755 0.0
H78 H 0.98397 0.24308 0.31013 0.0
H79 H 0.12176 0.3673 0.25646 0.0
H80 H 0.10712 0.42045 0.35493 0.0
C81 C 0.12736 0.22279 0.15971 0.0
C82 C 0.08625 0.18601 0.12928 0.0
C83 C 0.11754 0.2622 0.20453 0.0
C84 C 0.06635 0.26558 0.22017 0.0
C85 C 1.02599 0.23098 0.18682 0.0
C86 C 1.03583 0.19179 0.14176 0.0
C87 C 1.00229 0.31241 0.37451 0.0
C88 C 0.03728 0.36226 0.3889 0.0
C89 C 1.01049 0.28217 0.31845 0.0
C90 C 0.05414 0.30091 0.27551 0.0
C91 C 0.08798 0.35167 0.28879 0.0
C92 C 0.07942 0.38222 0.34484 0.0
H93 H 0.87763 1.00368 0.10853 0.0
H94 H 0.97987 0.07755 0.25116 0.0
H95 H 0.80345 1.01998 0.17849 0.0
H96 H 0.90604 0.09329 0.32078 0.0
H97 H 0.77828 0.149 0.42443 0.0
H98 H 0.84532 0.14354 0.33773 0.0
H99 H 0.74996 0.98867 0.27395 0.0
H100 H 0.68239 0.99483 0.36052 0.0
C101 C 0.88436 1.02359 0.15465 0.0
C102 C 0.93465 0.039 0.17439 0.0
C103 C 0.84181 1.03277 0.19473 0.0
C104 C 0.84879 0.05807 0.25514 0.0
C105 C 0.89935 0.0744 0.27427 0.0
C106 C 0.94168 0.06492 0.23449 0.0
C107 C 0.77104 0.11446 0.39069 0.0
C108 C 0.72539 0.07226 0.3991 0.0
C109 C 0.8096 0.11108 0.34146 0.0
C110 C 0.80352 0.06524 0.29971 0.0
C111 C 0.75582 1.02457 0.30522 0.0
C112 C 0.71701 1.02808 0.35458 0.0
H113 H 0.08897 0.83852 0.13487 0.0
H114 H 0.05496 0.9367 0.30061 0.0
H115 H 0.08408 0.77199 0.19793 0.0
H116 H 0.05084 0.87163 0.36249 0.0
H117 H 0.97695 0.72915 0.45038 0.0
H118 H 0.9858 0.78658 0.37553 0.0
H119 H 0.1257 0.7522 0.28342 0.0
H120 H 0.11614 0.69348 0.35882 0.0
C121 C 0.08116 0.84616 0.18457 0.0
C122 C 0.07129 0.89243 0.2126 0.0
C123 C 0.07838 0.80816 0.22061 0.0
C124 C 0.06573 0.81602 0.28509 0.0
C125 C 0.05903 0.8636 0.31286 0.0
C126 C 0.0616 0.90108 0.27723 0.0
C127 C 1.00928 0.73336 0.41376 0.0
C128 C 0.04627 0.70747 0.41092 0.0
C129 C 1.01454 0.76644 0.371 0.0
C130 C 0.05717 0.77493 0.32434 0.0
C131 C 0.09252 0.74657 0.31894 0.0
C132 C 0.08707 0.713 0.36196 0.0
H133 H 0.14528 1.01814 0.26102 0.0
H134 H 0.27147 1.02206 0.113 0.0
H135 H 0.19905 1.00599 0.33135 0.0
H136 H 0.32472 1.00944 0.183 0.0
H137 H 0.42365 0.06592 0.34976 0.0
H138 H 0.36999 0.06239 0.27017 0.0
H139 H 0.24068 0.94624 0.35481 0.0
H140 H 0.29446 0.94987 0.43444 0.0
C141 C 0.18419 1.01588 0.24332 0.0
C142 C 0.20424 1.02169 0.18158 0.0
C143 C 0.21492 1.0086 0.28351 0.0
C144 C 0.26635 1.00713 0.26279 0.0
C145 C 0.28562 1.01123 0.20059 0.0
C146 C 0.25493 1.01834 0.16047 0.0
C147 C 0.38429 1.03865 0.35037 0.0
C148 C 0.36312 1.00852 0.39857 0.0
C149 C 0.35343 1.03669 0.30491 0.0
C150 C 0.30081 1.0045 0.3067 0.0
C151 C 0.28069 0.9722 0.35292 0.0
C152 C 0.31155 0.97411 0.39828 0.0
H153 H 0.9041 0.85181 0.87433 0.0
H154 H 0.06719 0.90426 0.90774 0.0
H155 H 0.92036 0.78276 0.79644 0.0
H156 H 0.08311 0.83484 0.83021 0.0
H157 H 0.09992 0.77266 0.61917 0.0
H158 H 0.08595 0.82553 0.71702 0.0
H159 H 0.94659 0.70251 0.76965 0.0
H160 H 0.96062 0.64954 0.67081 0.0
C161 C 0.94311 0.84789 0.86627 0.0
C162 C 0.98445 0.88415 0.89685 0.0
C163 C 0.95236 0.80806 0.82173 0.0
C164 C 1.0032 0.80372 0.80655 0.0
C165 C 0.04367 0.83765 0.84024 0.0
C166 C 1.03439 0.87728 0.88502 0.0
C167 C 0.06678 0.75662 0.65209 0.0
C168 C 1.03117 0.70719 0.63732 0.0
C169 C 0.05896 0.78672 0.70838 0.0
C170 C 1.01506 0.76828 0.75115 0.0
C171 C 0.98058 0.71789 0.73748 0.0
C172 C 0.98878 0.68746 0.68121 0.0
H173 H 0.1883 0.04575 0.91909 0.0
H174 H 0.10627 0.04414 0.76729 0.0
H175 H 0.26791 0.0479 0.8473 0.0
H176 H 0.1855 0.04669 0.69637 0.0
H177 H 0.3448 0.11166 0.59799 0.0
H178 H 0.27592 0.11538 0.68291 0.0
H179 H 0.29851 0.98844 0.75062 0.0
H180 H 0.36788 0.98468 0.66469 0.0
C181 C 0.18721 0.04579 0.87051 0.0
C182 C 0.14102 0.04505 0.84891 0.0
C183 C 0.2327 0.04685 0.82955 0.0
C184 C 0.23301 0.04813 0.76651 0.0
C185 C 0.18661 0.04657 0.74493 0.0
C186 C 0.1411 0.04475 0.78553 0.0
C187 C 0.33606 0.08555 0.63206 0.0
C188 C 0.36136 0.04778 0.62489 0.0
C189 C 0.29639 0.08736 0.68026 0.0
C190 C 0.28121 0.05153 0.72254 0.0
C191 C 0.30947 1.01646 0.71853 0.0
C192 C 0.34927 1.01447 0.66975 0.0
H193 H 1.01982 0.13632 0.72538 0.0
H194 H 0.97956 0.23137 0.89092 0.0
H195 H 1.02307 0.20121 0.66383 0.0
H196 H 0.98363 0.29781 0.82814 0.0
H197 H 0.95088 0.37461 0.66591 0.0
H198 H 0.94238 0.31628 0.7414 0.0
H199 H 0.08584 0.28752 0.65261 0.0
H200 H 0.09353 0.34441 0.57751 0.0
C201 C 1.01165 0.17123 0.74882 0.0
C202 C 1.00041 0.17903 0.81333 0.0
C203 C 1.01374 0.20863 0.71336 0.0
C204 C 1.005 0.25533 0.74116 0.0
C205 C 0.99092 0.26233 0.80544 0.0
C206 C 0.98863 0.22439 0.84133 0.0
C207 C 0.98092 0.35641 0.66355 0.0
C208 C 1.02245 0.36331 0.61545 0.0
C209 C 0.97609 0.32309 0.70663 0.0
C210 C 1.01282 0.2964 0.70215 0.0
C211 C 0.0561 0.30636 0.65641 0.0
C212 C 0.0607 0.33913 0.61354 0.0
H213 H 0.79892 0.04374 0.90721 0.0
H214 H 0.93038 0.05732 0.76458 0.0
H215 H 0.7477 0.05859 0.83644 0.0
H216 H 0.87883 0.07239 0.69372 0.0
H217 H 0.78577 0.14035 0.59886 0.0
H218 H 0.83695 0.13608 0.67723 0.0
H219 H 0.70765 1.00936 0.74224 0.0
H220 H 0.65671 1.0131 0.6634 0.0
C221 C 0.81706 0.05008 0.86082 0.0
C222 C 0.86878 0.04909 0.84149 0.0
C223 C 0.78754 0.05846 0.82026 0.0
C224 C 0.80911 0.06643 0.75952 0.0
C225 C 0.86128 0.06679 0.7405 0.0
C226 C 0.89074 0.05794 0.78099 0.0
C227 C 0.76817 0.11174 0.63012 0.0
C228 C 0.71732 0.07672 0.62456 0.0
C229 C 0.79754 0.10927 0.67485 0.0
C230 C 0.77653 0.07206 0.7154 0.0
C231 C 0.72476 1.03873 0.71189 0.0
C232 C 0.69547 0.041 0.66689 0.0
loop_
_geom_bond_atom_site_label_1
_geom_bond_atom_site_label_2
_geom_bond_distance
_geom_bond_site_symmetry_2
_ccdc_geom_bond_type
Co0 O3 2.042 . S
Co0 O10 2.264 1_565 S
Co0 O29 2.286 1_455 S
Co0 O30 2.069 . S
Co0 O32 2.015 1_455 S
Co1 O3 2.122 1_545 S
Co1 O9 2.073 . S
Co1 O10 2.327 . S
Co1 O11 1.976 . S
Co2 O3 2.087 1_545 S
Co2 O5 2.087 1_454 S
Co2 O12 2.116 . S
Co2 O13 2.148 1_554 S
Co2 O17 2.106 1_444 S
Co2 O31 2.139 1_445 S
O3 Co0 2.042 . S
O3 Co1 2.122 1_565 S
O3 Co2 2.087 1_565 S
O3 H4 0.980 . S
H4 O3 0.980 . S
O5 Co2 2.087 1_656 S
O5 Co6 2.042 . S
O5 Co7 2.122 1_545 S
O5 H8 0.980 . S
Co6 O5 2.042 . S
Co6 O14 2.286 1_655 S
Co6 O15 2.069 . S
Co6 O16 2.015 1_655 S
Co6 O19 2.260 1_545 S
Co7 O5 2.122 1_565 S
Co7 O18 1.976 . S
Co7 O19 2.334 . S
Co7 O20 2.073 . S
H8 O5 0.980 . S
O9 Co1 2.073 . S
O9 C24 1.245 1_545 S
O10 Co0 2.264 1_545 S
O10 Co1 2.327 . S
O10 C24 1.257 1_545 S
O11 Co1 1.976 . S
O11 C23 1.251 . S
O12 Co2 2.116 . S
O12 C23 1.274 . S
O13 Co2 2.148 1_556 S
O13 C26 1.246 . S
O14 Co6 2.286 1_455 S
O14 C25 1.259 1_455 S
O15 Co6 2.069 . S
O15 C25 1.289 . S
O16 Co6 2.015 1_455 S
O16 C26 1.257 . S
O17 Co2 2.106 1_666 S
O17 C27 1.274 . S
O18 Co7 1.976 . S
O18 C27 1.251 . S
O19 Co6 2.260 1_565 S
O19 Co7 2.334 . S
O19 C28 1.252 1_565 S
O20 Co7 2.073 . S
O20 C28 1.245 1_565 S
C21 O29 1.259 1_455 S
C21 O30 1.289 . S
C22 O31 1.246 . S
C22 O32 1.257 . S
C23 O11 1.251 . S
C23 O12 1.274 . S
C24 O9 1.245 1_565 S
C24 O10 1.257 1_565 S
C25 O14 1.259 1_655 S
C25 O15 1.289 . S
C26 O13 1.246 . S
C26 O16 1.257 . S
C27 O17 1.274 . S
C27 O18 1.251 . S
C28 O19 1.252 1_545 S
C28 O20 1.245 1_545 S
O29 Co0 2.286 1_655 S
O29 C21 1.259 1_655 S
O30 Co0 2.069 . S
O30 C21 1.289 . S
O31 Co2 2.139 1_665 S
O31 C22 1.246 . S
O32 Co0 2.015 1_655 S
O32 C22 1.257 . S
H33 C41 0.940 . S
H34 C44 0.940 . S
H35 C46 0.940 . S
H36 C47 0.940 . S
H37 C50 0.940 . S
H38 C52 0.940 . S
N39 N40 1.190 . S
N39 C43 1.477 . S
N40 N39 1.190 . S
N40 C49 1.477 . S
C41 H33 0.940 . S
C41 C42 1.390 1_455 S
C41 C43 1.322 . S
C42 C41 1.390 1_655 S
C42 C46 1.370 . S
C43 N39 1.477 . S
C43 C41 1.322 . S
C43 C44 1.447 . S
C44 H34 0.940 . S
C44 C43 1.447 . S
C44 C45 1.373 . S
C45 C44 1.373 . S
C45 C46 1.417 1_455 S
C46 H35 0.940 . S
C46 C42 1.370 . S
C46 C45 1.417 1_655 S
C47 H36 0.940 . S
C47 C48 1.390 1_455 S
C47 C49 1.322 . S
C48 C47 1.390 1_655 S
C48 C52 1.370 . S
C49 N40 1.477 . S
C49 C47 1.322 . S
C49 C50 1.447 . S
C50 H37 0.940 . S
C50 C49 1.447 . S
C50 C51 1.373 . S
C51 C50 1.373 . S
C51 C52 1.417 1_455 S
C52 H38 0.940 . S
C52 C48 1.370 . S
C52 C51 1.417 1_655 S
H53 C61 0.940 . S
H54 C64 0.940 . S
H55 C66 0.940 . S
H56 C67 0.940 . S
H57 C70 0.940 . S
H58 C72 0.940 . S
N59 N60 1.190 . S
N59 C63 1.477 . S
N60 N59 1.190 . S
N60 C69 1.477 . S
C61 H53 0.940 . S
C61 C62 1.390 1_545 S
C61 C63 1.322 . S
C62 C61 1.390 1_565 S
C62 C66 1.370 . S
C63 N59 1.477 . S
C63 C61 1.322 . S
C63 C64 1.447 . S
C64 H54 0.940 . S
C64 C63 1.447 . S
C64 C65 1.373 . S
C65 C64 1.373 . S
C65 C66 1.417 1_545 S
C66 H55 0.940 . S
C66 C62 1.370 . S
C66 C65 1.417 1_565 S
C67 H56 0.940 . S
C67 C68 1.390 1_545 S
C67 C69 1.322 . S
C68 C67 1.390 1_565 S
C68 C72 1.370 . S
C69 N60 1.477 . S
C69 C67 1.322 . S
C69 C70 1.447 . S
C70 H57 0.940 . S
C70 C69 1.447 . S
C70 C71 1.373 . S
C71 C70 1.373 . S
C71 C72 1.417 1_545 S
C72 H58 0.940 . S
C72 C68 1.370 . S
C72 C71 1.417 1_565 S
H73 C81 0.950 . S
H74 C86 0.950 . S
H75 C83 0.950 . S
H76 C85 0.950 . S
H77 C87 0.950 . S
H78 C89 0.950 . S
H79 C91 0.950 . S
H80 C92 0.950 . S
C81 H73 0.950 . S
C81 C82 1.386 1_455 S
C81 C83 1.391 . S
C82 C81 1.386 1_655 S
C82 C86 1.393 . S
C83 H75 0.950 . S
C83 C81 1.391 . S
C83 C84 1.400 1_455 S
C84 C83 1.400 1_655 S
C84 C85 1.398 . S
C84 C90 1.491 . S
C85 H76 0.950 . S
C85 C84 1.398 . S
C85 C86 1.391 . S
C86 H74 0.950 . S
C86 C82 1.393 . S
C86 C85 1.391 . S
C87 H77 0.950 . S
C87 C88 1.386 . S
C87 C89 1.391 . S
C88 C87 1.386 . S
C88 C92 1.393 1_655 S
C89 H78 0.950 . S
C89 C87 1.391 . S
C89 C90 1.400 . S
C90 C84 1.491 . S
C90 C89 1.400 . S
C90 C91 1.398 1_655 S
C91 H79 0.950 . S
C91 C90 1.398 1_455 S
C91 C92 1.391 . S
C92 H80 0.950 . S
C92 C88 1.393 1_455 S
C92 C91 1.391 . S
H93 C101 0.950 . S
H94 C106 0.950 . S
H95 C103 0.950 . S
H96 C105 0.950 . S
H97 C107 0.950 . S
H98 C109 0.950 . S
H99 C111 0.950 . S
H100 C112 0.950 . S
C101 H93 0.950 . S
C101 C102 1.386 . S
C101 C103 1.391 . S
C102 C101 1.386 . S
C102 C106 1.393 1_565 S
C103 H95 0.950 . S
C103 C101 1.391 . S
C103 C104 1.400 . S
C104 C103 1.400 . S
C104 C105 1.398 1_565 S
C104 C110 1.491 . S
C105 H96 0.950 . S
C105 C104 1.398 1_545 S
C105 C106 1.391 . S
C106 H94 0.950 . S
C106 C102 1.393 1_545 S
C106 C105 1.391 . S
C107 H97 0.950 . S
C107 C108 1.386 1_545 S
C107 C109 1.391 . S
C108 C107 1.386 1_565 S
C108 C112 1.393 . S
C109 H98 0.950 . S
C109 C107 1.391 . S
C109 C110 1.400 1_545 S
C110 C104 1.491 . S
C110 C109 1.400 1_565 S
C110 C111 1.398 . S
C111 H99 0.950 . S
C111 C110 1.398 . S
C111 C112 1.391 . S
C112 H100 0.950 . S
C112 C108 1.393 . S
C112 C111 1.391 . S
H113 C121 0.950 . S
H114 C126 0.950 . S
H115 C123 0.950 . S
H116 C125 0.950 . S
H117 C127 0.950 . S
H118 C129 0.950 . S
H119 C131 0.950 . S
H120 C132 0.950 . S
C121 H113 0.950 . S
C121 C122 1.386 . S
C121 C123 1.391 . S
C122 C121 1.386 . S
C122 C126 1.393 1_455 S
C123 H115 0.950 . S
C123 C121 1.391 . S
C123 C124 1.400 . S
C124 C123 1.400 . S
C124 C125 1.398 1_455 S
C124 C130 1.491 . S
C125 H116 0.950 . S
C125 C124 1.398 1_655 S
C125 C126 1.391 . S
C126 H114 0.950 . S
C126 C122 1.393 1_655 S
C126 C125 1.391 . S
C127 H117 0.950 . S
C127 C128 1.386 1_655 S
C127 C129 1.391 . S
C128 C127 1.386 1_455 S
C128 C132 1.393 . S
C129 H118 0.950 . S
C129 C127 1.391 . S
C129 C130 1.400 1_655 S
C130 C124 1.491 . S
C130 C129 1.400 1_455 S
C130 C131 1.398 . S
C131 H119 0.950 . S
C131 C130 1.398 . S
C131 C132 1.391 . S
C132 H120 0.950 . S
C132 C128 1.393 . S
C132 C131 1.391 . S
H133 C141 0.950 . S
H134 C146 0.950 . S
H135 C143 0.950 . S
H136 C145 0.950 . S
H137 C147 0.950 . S
H138 C149 0.950 . S
H139 C151 0.950 . S
H140 C152 0.950 . S
C141 H133 0.950 . S
C141 C142 1.386 . S
C141 C143 1.391 . S
C142 C141 1.386 . S
C142 C146 1.393 1_565 S
C143 H135 0.950 . S
C143 C141 1.391 . S
C143 C144 1.400 . S
C144 C143 1.400 . S
C144 C145 1.398 1_565 S
C144 C150 1.491 . S
C145 H136 0.950 . S
C145 C144 1.398 1_545 S
C145 C146 1.391 . S
C146 H134 0.950 . S
C146 C142 1.393 1_545 S
C146 C145 1.391 . S
C147 H137 0.950 . S
C147 C148 1.386 . S
C147 C149 1.391 . S
C148 C147 1.386 . S
C148 C152 1.393 1_545 S
C149 H138 0.950 . S
C149 C147 1.391 . S
C149 C150 1.400 1_545 S
C150 C144 1.491 . S
C150 C149 1.400 1_565 S
C150 C151 1.398 . S
C151 H139 0.950 . S
C151 C150 1.398 . S
C151 C152 1.391 . S
C152 H140 0.950 . S
C152 C148 1.393 1_565 S
C152 C151 1.391 . S
H153 C161 0.950 . S
H154 C166 0.950 . S
H155 C163 0.950 . S
H156 C165 0.950 . S
H157 C167 0.950 . S
H158 C169 0.950 . S
H159 C171 0.950 . S
H160 C172 0.950 . S
C161 H153 0.950 . S
C161 C162 1.386 1_655 S
C161 C163 1.391 . S
C162 C161 1.386 1_455 S
C162 C166 1.393 . S
C163 H155 0.950 . S
C163 C161 1.391 . S
C163 C164 1.404 . S
C164 C163 1.404 . S
C164 C165 1.395 1_655 S
C164 C170 1.490 . S
C165 H156 0.950 . S
C165 C164 1.395 1_455 S
C165 C166 1.391 . S
C166 H154 0.950 . S
C166 C162 1.393 . S
C166 C165 1.391 . S
C167 H157 0.950 . S
C167 C168 1.386 1_455 S
C167 C169 1.391 . S
C168 C167 1.386 1_655 S
C168 C172 1.393 . S
C169 H158 0.950 . S
C169 C167 1.391 . S
C169 C170 1.400 1_455 S
C170 C164 1.490 . S
C170 C169 1.400 1_655 S
C170 C171 1.398 . S
C171 H159 0.950 . S
C171 C170 1.398 . S
C171 C172 1.391 . S
C172 H160 0.950 . S
C172 C168 1.393 . S
C172 C171 1.391 . S
H173 C181 0.950 . S
H174 C186 0.950 . S
H175 C183 0.950 . S
H176 C185 0.950 . S
H177 C187 0.950 . S
H178 C189 0.950 . S
H179 C191 0.950 . S
H180 C192 0.950 . S
C181 H173 0.950 . S
C181 C182 1.366 1_565 S
C181 C183 1.391 . S
C182 C181 1.366 1_545 S
C182 C186 1.409 . S
C183 H175 0.950 . S
C183 C181 1.391 . S
C183 C184 1.400 . S
C184 C183 1.400 . S
C184 C185 1.398 1_565 S
C184 C190 1.491 . S
C185 H176 0.950 . S
C185 C184 1.398 1_545 S
C185 C186 1.391 . S
C186 H174 0.950 . S
C186 C182 1.409 . S
C186 C185 1.391 . S
C187 H177 0.950 . S
C187 C188 1.386 1_545 S
C187 C189 1.391 . S
C188 C187 1.386 1_565 S
C188 C192 1.393 . S
C189 H178 0.950 . S
C189 C187 1.391 . S
C189 C190 1.400 1_545 S
C190 C184 1.491 . S
C190 C189 1.400 1_565 S
C190 C191 1.398 . S
C191 H179 0.950 . S
C191 C190 1.398 . S
C191 C192 1.391 . S
C192 H180 0.950 . S
C192 C188 1.393 . S
C192 C191 1.391 . S
H193 C201 0.950 . S
H194 C206 0.950 . S
H195 C203 0.950 . S
H196 C205 0.950 . S
H197 C207 0.950 . S
H198 C209 0.950 . S
H199 C211 0.950 . S
H200 C212 0.950 . S
C201 H193 0.950 . S
C201 C202 1.386 1_455 S
C201 C203 1.391 . S
C202 C201 1.386 1_655 S
C202 C206 1.393 . S
C203 H195 0.950 . S
C203 C201 1.391 . S
C203 C204 1.400 1_455 S
C204 C203 1.400 1_655 S
C204 C205 1.398 . S
C204 C210 1.491 . S
C205 H196 0.950 . S
C205 C204 1.398 . S
C205 C206 1.391 . S
C206 H194 0.950 . S
C206 C202 1.393 . S
C206 C205 1.391 . S
C207 H197 0.950 . S
C207 C208 1.386 1_655 S
C207 C209 1.391 . S
C208 C207 1.386 1_455 S
C208 C212 1.393 . S
C209 H198 0.950 . S
C209 C207 1.391 . S
C209 C210 1.400 . S
C210 C204 1.491 . S
C210 C209 1.400 . S
C210 C211 1.398 1_655 S
C211 H199 0.950 . S
C211 C210 1.398 1_455 S
C211 C212 1.391 . S
C212 H200 0.950 . S
C212 C208 1.393 . S
C212 C211 1.391 . S
H213 C221 0.950 . S
H214 C226 0.950 . S
H215 C223 0.950 . S
H216 C225 0.950 . S
H217 C227 0.950 . S
H218 C229 0.950 . S
H219 C231 0.950 . S
H220 C232 0.950 . S
C221 H213 0.950 . S
C221 C222 1.386 1_565 S
C221 C223 1.391 . S
C222 C221 1.386 1_545 S
C222 C226 1.393 . S
C223 H215 0.950 . S
C223 C221 1.391 . S
C223 C224 1.400 1_565 S
C224 C223 1.400 1_545 S
C224 C225 1.398 . S
C224 C230 1.491 . S
C225 H216 0.950 . S
C225 C224 1.398 . S
C225 C226 1.391 . S
C226 H214 0.950 . S
C226 C222 1.393 . S
C226 C225 1.391 . S
C227 H217 0.950 . S
C227 C228 1.386 . S
C227 C229 1.391 . S
C228 C227 1.386 . S
C228 C232 1.393 1_545 S
C229 H218 0.950 . S
C229 C227 1.391 . S
C229 C230 1.400 . S
C230 C224 1.491 . S
C230 C229 1.400 . S
C230 C231 1.398 1_545 S
C231 H219 0.950 . S
C231 C230 1.398 1_565 S
C231 C232 1.391 . S
C232 H220 0.950 . S
C232 C228 1.393 1_565 S
C232 C231 1.391 . S
C82 C23 1.522 1_655 S
C88 C42 1.558 . S
C102 C22 1.641 . S
C108 C62 1.666 . S
C122 C21 1.951 . S
C128 C51 1.940 . S
C142 C24 1.699 . S
C148 C71 1.755 . S
C162 C27 1.512 1_455 S
C168 C48 1.580 . S
C182 C26 1.660 . S
C188 C68 1.662 . S
C208 C45 1.947 . S
C202 C25 1.952 . S
C222 C28 1.700 . S
C228 C65 1.748 . S
