# Generated by pormake.
# Topology scu, (8,4)-cn, num edge types: 1
# Building blocks:
#     Node 0, Type 0, BuildingBlock: GIZVER_clean_sbu_0, # of connection points: 8
#     Node 1, Type 1, BuildingBlock: IZENUY_clean_linker_0, # of connection points: 4
#     Node 2, Type 1, BuildingBlock: IZENUY_clean_linker_0, # of connection points: 4
#     Edge 3, Type (0, 1), BuildingBlock: EYOCIG_clean_linker_4, # of connection points: 2
#     Edge 4, Type (0, 1), BuildingBlock: EYOCIG_clean_linker_4, # of connection points: 2
#     Edge 5, Type (0, 1), BuildingBlock: EYOCIG_clean_linker_4, # of connection points: 2
#     Edge 6, Type (0, 1), BuildingBlock: EYOCIG_clean_linker_4, # of connection points: 2
#     Edge 7, Type (0, 1), BuildingBlock: EYOCIG_clean_linker_4, # of connection points: 2
#     Edge 8, Type (0, 1), BuildingBlock: EYOCIG_clean_linker_4, # of connection points: 2
#     Edge 9, Type (0, 1), BuildingBlock: EYOCIG_clean_linker_4, # of connection points: 2
#     Edge 10, Type (0, 1), BuildingBlock: EYOCIG_clean_linker_4, # of connection points: 2
# Relax obj value: 0.119
# Max RMSD: 0.251
# Mean RMSD: 0.210
data_MOF--net-scu--node1-GIZVER_clean_sbu_0--node2-IZENUY_clean_linker_0--edge1-EYOCIG_clean_linker_4
_symmetry_space_group_name_H-M    P1
_symmetry_Int_Tables_number       1
_symmetry_cell_setting            triclinic
loop_
_symmetry_equiv_pos_as_xyz
'x, y, z'
_cell_length_a     22.230563
_cell_length_b     22.958827
_cell_length_c     17.665831
_cell_angle_alpha  102.3087
_cell_angle_beta   78.296421
_cell_angle_gamma 111.32516
loop_
_atom_site_label
_atom_site_type_symbol
_atom_site_fract_x
_atom_site_fract_y
_atom_site_fract_z
_atom_type_partial_charge
Co0 Co 0.04807 0.96215 0.16138 0.0
Co1 Co 0.14381 0.0616 0.12301 0.0
Co2 Co 0.0315 0.03821 0.02356 0.0
O3 O 0.08122 1.0001 0.0681 0.0
H4 H 0.10196 0.97502 0.02793 0.0
O5 O 0.98179 0.07633 0.97902 0.0
Co6 Co 1.01494 0.11428 0.88574 0.0
Co7 Co 0.9192 1.01483 0.92411 0.0
H8 H 0.96105 0.10141 1.01919 0.0
O9 O 0.21734 0.04781 0.13396 0.0
O10 O 0.1209 1.02734 0.21449 0.0
O11 O 0.13886 0.14517 0.15 0.0
O12 O 0.04287 0.11605 0.10749 0.0
O13 O 0.11407 0.08128 0.95873 0.0
O14 O 0.04161 0.15428 0.803 0.0
O15 O 0.96938 0.16887 0.90885 0.0
O16 O 0.07061 0.06433 0.84996 0.0
O17 O 1.02014 0.96038 0.93963 0.0
O18 O 0.92415 0.93127 0.89711 0.0
O19 O 0.94211 0.0491 0.83263 0.0
O20 O 0.84567 1.02862 0.91316 0.0
C21 C 0.06096 0.89271 0.20572 0.0
C22 C 0.94416 1.00384 0.16267 0.0
C23 C 0.08725 0.15528 0.1469 0.0
C24 C 0.18207 1.031 0.1989 0.0
C25 C 1.00205 0.18372 0.84141 0.0
C26 C 0.11885 0.0726 0.88446 0.0
C27 C 0.97576 0.92115 0.90022 0.0
C28 C 0.88095 0.04544 0.84822 0.0
O29 O 1.0214 0.92215 0.24413 0.0
O30 O 0.09363 0.90757 0.13828 0.0
O31 O 0.94894 0.99515 0.08839 0.0
O32 O 0.9924 1.0121 0.19716 0.0
H33 H 0.04449 0.44931 0.41117 0.0
H34 H 1.00675 0.45421 0.66139 0.0
H35 H 1.02406 0.28599 0.5094 0.0
H36 H 1.01851 0.62711 0.63595 0.0
H37 H 0.05625 0.62222 0.38573 0.0
H38 H 0.03895 0.79044 0.53773 0.0
N39 N 1.0263 0.52305 0.551 0.0
N40 N 0.03671 0.55338 0.49612 0.0
C41 C 0.03576 0.42649 0.462 0.0
C42 C 0.03515 0.36395 0.45174 0.0
C43 C 1.02542 0.45942 0.53798 0.0
C44 C 1.01439 0.42895 0.60296 0.0
C45 C 1.01385 0.36652 0.59285 0.0
C46 C 1.02416 0.33421 0.51725 0.0
C47 C 1.02725 0.64994 0.58513 0.0
C48 C 1.02786 0.71248 0.59538 0.0
C49 C 0.03758 0.617 0.50915 0.0
C50 C 0.04861 0.64747 0.44416 0.0
C51 C 0.04915 0.7099 0.45427 0.0
C52 C 0.03885 0.74221 0.52987 0.0
H53 H 0.621 1.02921 0.40667 0.0
H54 H 0.62341 0.05949 0.65596 0.0
H55 H 0.79359 0.04665 0.49655 0.0
H56 H 0.44206 0.04735 0.64046 0.0
H57 H 0.43965 1.01707 0.39118 0.0
H58 H 0.26946 1.02988 0.55058 0.0
N59 N 0.54835 0.04308 0.55 0.0
N60 N 0.51471 1.03349 0.49714 0.0
C61 C 0.64623 0.03663 0.45617 0.0
C62 C 0.71103 0.03757 0.44317 0.0
C63 C 0.61424 0.04476 0.53352 0.0
C64 C 0.64792 0.0539 0.59656 0.0
C65 C 0.71243 0.05457 0.58307 0.0
C66 C 0.74373 0.04664 0.50667 0.0
C67 C 0.41683 0.03993 0.59097 0.0
C68 C 0.35203 0.03897 0.60396 0.0
C69 C 0.44882 1.0318 0.51362 0.0
C70 C 0.41514 1.02266 0.45057 0.0
C71 C 0.35062 1.02197 0.46407 0.0
C72 C 0.31932 1.0299 0.54047 0.0
C73 C 0.06537 0.25057 0.2488 0.0
C74 C 0.07322 0.2066 0.20134 0.0
C75 C 0.05537 0.29598 0.31373 0.0
C76 C 0.04656 0.32975 0.37448 0.0
C77 C 0.83648 1.01426 0.25135 0.0
C78 C 0.88463 1.00915 0.20861 0.0
C79 C 0.78409 1.02128 0.30868 0.0
C80 C 0.74546 1.02801 0.36569 0.0
C81 C 0.07062 0.80942 0.28065 0.0
C82 C 0.07002 0.84613 0.24118 0.0
C83 C 0.06601 0.77062 0.33554 0.0
C84 C 0.05861 0.74083 0.38747 0.0
C85 C 0.24376 1.01405 0.30036 0.0
C86 C 0.21312 1.02116 0.25626 0.0
C87 C 0.28316 1.0124 0.35253 0.0
C88 C 0.31655 1.01644 0.40048 0.0
C89 C 0.99764 0.82586 0.79832 0.0
C90 C 0.9898 0.86984 0.84578 0.0
C91 C 1.00765 0.78044 0.7334 0.0
C92 C 1.01645 0.74668 0.67264 0.0
C93 C 0.22655 0.06222 0.79578 0.0
C94 C 0.17839 0.06732 0.83852 0.0
C95 C 0.27895 0.05523 0.73845 0.0
C96 C 0.31759 0.04851 0.68144 0.0
C97 C 0.99239 0.26702 0.76648 0.0
C98 C 0.99299 0.2303 0.80595 0.0
C99 C 0.99699 0.30581 0.71159 0.0
C100 C 1.00439 0.3356 0.65966 0.0
C101 C 0.81927 0.06244 0.74677 0.0
C102 C 0.84991 0.0553 0.79087 0.0
C103 C 0.77989 0.06411 0.6946 0.0
C104 C 0.7465 0.06008 0.64665 0.0
loop_
_geom_bond_atom_site_label_1
_geom_bond_atom_site_label_2
_geom_bond_distance
_geom_bond_site_symmetry_2
_ccdc_geom_bond_type
Co0 O3 2.042 . S
Co0 O10 2.264 1_565 S
Co0 O29 2.286 1_455 S
Co0 O30 2.069 . S
Co0 O32 2.015 1_455 S
Co1 O3 2.122 1_545 S
Co1 O9 2.073 . S
Co1 O10 2.327 . S
Co1 O11 1.976 . S
Co2 O3 2.105 1_545 S
Co2 O5 2.069 1_454 S
Co2 O12 2.113 . S
Co2 O13 2.149 1_554 S
Co2 O17 2.110 1_444 S
Co2 O31 2.138 1_445 S
O3 Co0 2.042 . S
O3 Co1 2.122 1_565 S
O3 Co2 2.105 1_565 S
O3 H4 0.980 . S
H4 O3 0.980 . S
O5 Co2 2.069 1_656 S
O5 Co6 2.041 1_655 S
O5 Co7 2.122 1_545 S
O5 H8 0.980 . S
Co6 O5 2.041 1_455 S
Co6 O14 2.286 . S
Co6 O15 2.066 1_455 S
Co6 O16 2.019 . S
Co6 O19 2.261 1_445 S
Co7 O5 2.122 1_565 S
Co7 O18 1.976 . S
Co7 O19 2.327 . S
Co7 O20 2.073 . S
H8 O5 0.980 . S
O9 Co1 2.073 . S
O9 C24 1.245 1_545 S
O10 Co0 2.264 1_545 S
O10 Co1 2.327 . S
O10 C24 1.257 1_545 S
O11 Co1 1.976 . S
O11 C23 1.251 . S
O12 Co2 2.113 . S
O12 C23 1.274 . S
O13 Co2 2.149 1_556 S
O13 C26 1.246 . S
O14 Co6 2.286 . S
O14 C25 1.259 1_455 S
O15 Co6 2.066 1_655 S
O15 C25 1.289 . S
O16 Co6 2.019 . S
O16 C26 1.257 . S
O17 Co2 2.110 1_666 S
O17 C27 1.274 . S
O18 Co7 1.976 . S
O18 C27 1.251 . S
O19 Co6 2.261 1_665 S
O19 Co7 2.327 . S
O19 C28 1.257 1_565 S
O20 Co7 2.073 . S
O20 C28 1.245 1_565 S
C21 O29 1.259 1_455 S
C21 O30 1.289 . S
C22 O31 1.246 . S
C22 O32 1.257 . S
C23 O11 1.251 . S
C23 O12 1.274 . S
C24 O9 1.245 1_565 S
C24 O10 1.257 1_565 S
C25 O14 1.259 1_655 S
C25 O15 1.289 . S
C26 O13 1.246 . S
C26 O16 1.257 . S
C27 O17 1.274 . S
C27 O18 1.251 . S
C28 O19 1.257 1_545 S
C28 O20 1.245 1_545 S
O29 Co0 2.286 1_655 S
O29 C21 1.259 1_655 S
O30 Co0 2.069 . S
O30 C21 1.289 . S
O31 Co2 2.138 1_665 S
O31 C22 1.246 . S
O32 Co0 2.015 1_655 S
O32 C22 1.257 . S
H33 C41 0.940 . S
H34 C44 0.940 . S
H35 C46 0.940 . S
H36 C47 0.940 . S
H37 C50 0.940 . S
H38 C52 0.940 . S
N39 N40 1.190 . S
N39 C43 1.477 . S
N40 N39 1.190 . S
N40 C49 1.477 . S
C41 H33 0.940 . S
C41 C42 1.390 1_455 S
C41 C43 1.322 . S
C42 C41 1.390 1_655 S
C42 C46 1.370 . S
C43 N39 1.477 . S
C43 C41 1.322 . S
C43 C44 1.447 . S
C44 H34 0.940 . S
C44 C43 1.447 . S
C44 C45 1.373 . S
C45 C44 1.373 . S
C45 C46 1.417 1_455 S
C46 H35 0.940 . S
C46 C42 1.370 . S
C46 C45 1.417 1_655 S
C47 H36 0.940 . S
C47 C48 1.390 1_455 S
C47 C49 1.322 . S
C48 C47 1.390 1_655 S
C48 C52 1.370 . S
C49 N40 1.477 . S
C49 C47 1.322 . S
C49 C50 1.447 . S
C50 H37 0.940 . S
C50 C49 1.447 . S
C50 C51 1.373 . S
C51 C50 1.373 . S
C51 C52 1.417 1_455 S
C52 H38 0.940 . S
C52 C48 1.370 . S
C52 C51 1.417 1_655 S
H53 C61 0.940 . S
H54 C64 0.940 . S
H55 C66 0.940 . S
H56 C67 0.940 . S
H57 C70 0.940 . S
H58 C72 0.940 . S
N59 N60 1.190 . S
N59 C63 1.477 . S
N60 N59 1.190 . S
N60 C69 1.477 . S
C61 H53 0.940 . S
C61 C62 1.390 1_545 S
C61 C63 1.322 . S
C62 C61 1.390 1_565 S
C62 C66 1.370 . S
C63 N59 1.477 . S
C63 C61 1.322 . S
C63 C64 1.447 . S
C64 H54 0.940 . S
C64 C63 1.447 . S
C64 C65 1.373 . S
C65 C64 1.373 . S
C65 C66 1.417 1_545 S
C66 H55 0.940 . S
C66 C62 1.370 . S
C66 C65 1.417 1_565 S
C67 H56 0.940 . S
C67 C68 1.390 1_545 S
C67 C69 1.322 . S
C68 C67 1.390 1_565 S
C68 C72 1.370 . S
C69 N60 1.477 . S
C69 C67 1.322 . S
C69 C70 1.447 . S
C70 H57 0.940 . S
C70 C69 1.447 . S
C70 C71 1.373 . S
C71 C70 1.373 . S
C71 C72 1.417 1_545 S
C72 H58 0.940 . S
C72 C68 1.370 . S
C72 C71 1.417 1_565 S
C73 C74 1.170 . S
C73 C75 1.380 . S
C74 C73 1.170 . S
C75 C73 1.380 . S
C75 C76 1.170 . S
C76 C75 1.170 . S
C77 C78 1.170 . S
C77 C79 1.380 . S
C78 C77 1.170 . S
C79 C77 1.380 . S
C79 C80 1.170 . S
C80 C79 1.170 . S
C81 C82 1.170 . S
C81 C83 1.380 . S
C82 C81 1.170 . S
C83 C81 1.380 . S
C83 C84 1.170 . S
C84 C83 1.170 . S
C85 C86 1.170 . S
C85 C87 1.380 1_565 S
C86 C85 1.170 . S
C87 C85 1.380 1_545 S
C87 C88 1.170 . S
C88 C87 1.170 . S
C89 C90 1.170 1_655 S
C89 C91 1.380 . S
C90 C89 1.170 1_455 S
C91 C89 1.380 . S
C91 C92 1.170 . S
C92 C91 1.170 . S
C93 C94 1.170 . S
C93 C95 1.380 . S
C94 C93 1.170 . S
C95 C93 1.380 . S
C95 C96 1.170 . S
C96 C95 1.170 . S
C97 C98 1.170 . S
C97 C99 1.380 1_655 S
C98 C97 1.170 . S
C99 C97 1.380 1_455 S
C99 C100 1.170 . S
C100 C99 1.170 . S
C101 C102 1.170 . S
C101 C103 1.380 . S
C102 C101 1.170 . S
C103 C101 1.380 . S
C103 C104 1.170 . S
C104 C103 1.170 . S
C74 C23 1.503 1_655 S
C76 C42 1.573 . S
C78 C22 1.638 . S
C80 C62 1.676 . S
C82 C21 1.844 . S
C84 C51 1.830 . S
C86 C24 1.641 . S
C88 C71 1.743 . S
C90 C27 1.495 1_455 S
C92 C48 1.579 . S
C94 C26 1.663 1_565 S
C96 C68 1.674 . S
C100 C45 1.846 . S
C98 C25 1.846 . S
C102 C28 1.675 . S
C104 C65 1.732 . S
