# Generated by pormake.
# Topology tsx, (6,3)-cn, num edge types: 1
# Building blocks:
#     Node 0, Type 0, BuildingBlock: MIDCAF_clean_sbu_0, # of connection points: 6
#     Node 1, Type 0, BuildingBlock: MIDCAF_clean_sbu_0, # of connection points: 6
#     Node 2, Type 1, BuildingBlock: BETDIP_clean_linker_0, # of connection points: 3
#     Node 3, Type 1, BuildingBlock: BETDIP_clean_linker_0, # of connection points: 3
#     Node 4, Type 1, BuildingBlock: BETDIP_clean_linker_0, # of connection points: 3
#     Node 5, Type 1, BuildingBlock: BETDIP_clean_linker_0, # of connection points: 3
#     Edge 6, Type (0, 1), BuildingBlock: AJUNOK_clean_linker_0, # of connection points: 2
#     Edge 7, Type (0, 1), BuildingBlock: AJUNOK_clean_linker_0, # of connection points: 2
#     Edge 8, Type (0, 1), BuildingBlock: AJUNOK_clean_linker_0, # of connection points: 2
#     Edge 9, Type (0, 1), BuildingBlock: AJUNOK_clean_linker_0, # of connection points: 2
#     Edge 10, Type (0, 1), BuildingBlock: AJUNOK_clean_linker_0, # of connection points: 2
#     Edge 11, Type (0, 1), BuildingBlock: AJUNOK_clean_linker_0, # of connection points: 2
#     Edge 12, Type (0, 1), BuildingBlock: AJUNOK_clean_linker_0, # of connection points: 2
#     Edge 13, Type (0, 1), BuildingBlock: AJUNOK_clean_linker_0, # of connection points: 2
#     Edge 14, Type (0, 1), BuildingBlock: AJUNOK_clean_linker_0, # of connection points: 2
#     Edge 15, Type (0, 1), BuildingBlock: AJUNOK_clean_linker_0, # of connection points: 2
#     Edge 16, Type (0, 1), BuildingBlock: AJUNOK_clean_linker_0, # of connection points: 2
#     Edge 17, Type (0, 1), BuildingBlock: AJUNOK_clean_linker_0, # of connection points: 2
# Relax obj value: 0.080
# Max RMSD: 0.147
# Mean RMSD: 0.109
data_MOF--net-tsx--node1-MIDCAF_clean_sbu_0--node2-BETDIP_clean_linker_0--edge1-AJUNOK_clean_linker_0
_symmetry_space_group_name_H-M    P1
_symmetry_Int_Tables_number       1
_symmetry_cell_setting            triclinic
loop_
_symmetry_equiv_pos_as_xyz
'x, y, z'
_cell_length_a     14.637677
_cell_length_b     15.333902
_cell_length_c     26.016182
_cell_angle_alpha  89.854026
_cell_angle_beta   107.53397
_cell_angle_gamma 90.401595
loop_
_atom_site_label
_atom_site_type_symbol
_atom_site_fract_x
_atom_site_fract_y
_atom_site_fract_z
_atom_type_partial_charge
Zn0 Zn 0.9245 0.08806 0.93978 0.0
Zn1 Zn 0.22389 0.09842 0.05972 0.0
Zn2 Zn 0.07705 0.09932 0.99956 0.0
C3 C 0.21995 0.24998 0.0089 0.0
C4 C 0.22741 0.95443 0.0037 0.0
O5 O 0.99166 0.02323 0.04151 0.0
O6 O 0.87752 0.98431 0.96856 0.0
C7 C 0.93952 0.25999 0.9643 0.0
O8 O 0.13132 0.23553 0.00493 0.0
O9 O 0.2787 0.18825 0.02276 0.0
O10 O 0.25827 0.97685 0.05239 0.0
O11 O 0.16374 0.00248 0.97082 0.0
O12 O 0.87498 0.20209 0.95288 0.0
O13 O 0.02815 0.2369 0.97813 0.0
O14 O 0.09163 0.03064 0.92646 0.0
O15 O 0.9536 0.07259 0.87095 0.0
C16 C 0.03403 0.03724 0.87806 0.0
O17 O 0.06738 0.05944 0.08048 0.0
O18 O 0.19883 0.12611 0.12857 0.0
C19 C 0.91778 0.97568 0.01841 0.0
C20 C 0.12218 0.08612 0.12658 0.0
Zn21 Zn 0.60683 0.4013 0.58972 0.0
Zn22 Zn 0.36798 0.4247 0.43272 0.0
Zn23 Zn 0.50766 0.46193 0.50928 0.0
C24 C 0.52838 0.47471 0.3951 0.0
C25 C 0.3329 0.58509 0.47851 0.0
O26 O 0.49597 0.5509 0.56883 0.0
O27 O 0.49402 0.43399 0.61731 0.0
C28 C 0.65717 0.33627 0.50272 0.0
O29 O 0.57384 0.48252 0.44559 0.0
O30 O 0.44244 0.44769 0.37998 0.0
O31 O 0.29049 0.52448 0.44723 0.0
O32 O 0.4211 0.57668 0.50581 0.0
O33 O 0.63418 0.30255 0.54185 0.0
O34 O 0.62992 0.41457 0.48799 0.0
O35 O 0.65459 0.50885 0.51282 0.0
O36 O 0.70673 0.49729 0.60121 0.0
C37 C 0.7168 0.52909 0.55824 0.0
O38 O 0.45435 0.33642 0.52688 0.0
O39 O 0.34031 0.30283 0.45323 0.0
C40 C 0.48128 0.5156 0.61022 0.0
C41 C 0.39052 0.28285 0.50041 0.0
H42 H 0.04446 0.92293 0.47203 0.0
H43 H 0.96586 0.08477 0.33027 0.0
H44 H 0.17254 0.88154 0.34545 0.0
H45 H 0.96135 0.18566 0.39358 0.0
C46 C 0.92151 0.14995 0.41601 0.0
C47 C 0.0514 0.94017 0.43295 0.0
C48 C 0.11568 0.89507 0.4124 0.0
C49 C 0.99981 0.0107 0.40443 0.0
C50 C 1.00714 0.03163 0.35314 0.0
C51 C 0.06856 0.98496 0.33129 0.0
C52 C 0.12406 0.91768 0.36169 0.0
N53 N 0.94191 0.06049 0.42824 0.0
H54 H 0.0802 0.79406 0.54323 0.0
H55 H 0.19081 0.97489 0.67398 0.0
H56 H 0.98689 0.77866 0.68468 0.0
H57 H 0.32857 0.957 0.64255 0.0
C58 C 0.28852 0.97249 0.60114 0.0
C59 C 0.08378 0.81707 0.5831 0.0
C60 C 0.0269 0.77736 0.61154 0.0
C61 C 0.14638 0.88589 0.60645 0.0
C62 C 0.14837 0.91767 0.65762 0.0
C63 C 0.09042 0.87979 0.68598 0.0
C64 C 0.0319 0.80841 0.66305 0.0
N65 N 0.20156 0.92666 0.57643 0.0
H66 H 0.66526 0.56269 0.97605 0.0
H67 H 0.46102 0.68587 0.84185 0.0
H68 H 0.7125 0.57348 0.82001 0.0
H69 H 0.3615 0.63195 0.88946 0.0
C70 C 0.40123 0.66211 0.92746 0.0
C71 C 0.64631 0.58529 0.93477 0.0
C72 C 0.70275 0.56291 0.90123 0.0
C73 C 0.55965 0.63057 0.91379 0.0
C74 C 0.52888 0.65339 0.85905 0.0
C75 C 0.58212 0.62973 0.82507 0.0
C76 C 0.67165 0.59048 0.84697 0.0
N77 N 0.50215 0.64985 0.94759 0.0
H78 H 0.54592 0.56288 0.03972 0.0
H79 H 0.71493 0.61242 0.20355 0.0
H80 H 0.46113 0.45408 0.17076 0.0
H81 H 0.81928 0.6769 0.16693 0.0
C82 C 0.77833 0.69548 0.12629 0.0
C83 C 0.55813 0.55296 0.08238 0.0
C84 C 0.49234 0.50433 0.1004 0.0
C85 C 0.63827 0.59238 0.11884 0.0
C86 C 0.65423 0.58183 0.17463 0.0
C87 C 0.59067 0.53102 0.19329 0.0
C88 C 0.51014 0.49306 0.15607 0.0
N89 N 0.69661 0.64641 0.09717 0.0
C90 C 0.24747 0.39753 0.04876 0.0
C91 C 0.2618 0.338 0.01109 0.0
C92 C 0.31924 0.45818 0.07392 0.0
C93 C 0.40735 0.46094 0.06217 0.0
H94 H 0.18628 0.39029 0.06373 0.0
H95 H 0.30891 0.49806 0.106 0.0
S96 S 0.46679 0.33373 0.95543 0.0
N97 N 0.35975 0.29781 0.95459 0.0
N98 N 0.49557 0.40997 0.00234 0.0
C99 C 0.41586 0.4103 0.01885 0.0
C100 C 0.34245 0.34936 0.99304 0.0
C101 C 0.22568 0.83843 0.93509 0.0
C102 C 0.26837 0.87572 0.98606 0.0
C103 C 0.26794 0.76753 0.91709 0.0
C104 C 0.35341 0.73049 0.94985 0.0
H105 H 0.1595 0.86422 0.9088 0.0
H106 H 0.23459 0.74283 0.87674 0.0
S107 S 0.48376 0.792 0.09073 0.0
N108 N 0.39562 0.8627 0.07159 0.0
N109 N 0.47146 0.72802 0.03821 0.0
C110 C 0.393 0.76294 0.0022 0.0
C111 C 0.35116 0.83567 0.0203 0.0
C112 C 0.9396 0.87025 0.09536 0.0
C113 C 0.88008 0.90923 0.0482 0.0
C114 C 0.9055 0.80206 0.12097 0.0
C115 C 0.81165 0.76939 0.09958 0.0
H116 H 1.01342 0.89122 0.11198 0.0
H117 H 0.9536 0.77337 0.15703 0.0
S118 S 0.62546 0.8531 0.97876 0.0
N119 N 0.72082 0.91394 0.98326 0.0
N120 N 0.65867 0.78419 0.02963 0.0
C121 C 0.75122 0.80886 0.05291 0.0
C122 C 0.78506 0.87907 0.02763 0.0
C123 C 0.85057 0.36226 0.89555 0.0
C124 C 0.90706 0.34993 0.94905 0.0
C125 C 0.78873 0.4329 0.88066 0.0
C126 C 0.78166 0.49674 0.91828 0.0
H127 H 0.84805 0.31255 0.86556 0.0
H128 H 0.74134 0.4331 0.83972 0.0
S129 S 0.92651 0.50092 0.06279 0.0
N130 N 0.95921 0.40985 0.03949 0.0
N131 N 0.84728 0.54745 0.01102 0.0
C132 C 0.84405 0.48885 0.97145 0.0
C133 C 0.90603 0.41474 0.98689 0.0
C134 C 0.88561 0.56949 0.60638 0.0
C135 C 0.80332 0.58286 0.56217 0.0
C136 C 0.96165 0.62931 0.61918 0.0
C137 C 0.95868 0.70521 0.58841 0.0
H138 H 0.8894 0.5144 0.63309 0.0
H139 H 0.02091 0.61867 0.65538 0.0
S140 S 0.7654 0.76593 0.46487 0.0
N141 N 0.72777 0.67323 0.48431 0.0
N142 N 0.87116 0.78666 0.50876 0.0
C143 C 0.88065 0.71607 0.54155 0.0
C144 C 0.8028 0.65458 0.5283 0.0
C145 C 0.73485 0.1991 0.48617 0.0
C146 C 0.7221 0.28961 0.4785 0.0
C147 C 0.79893 0.15376 0.46563 0.0
C148 C 0.85264 0.19747 0.43678 0.0
H149 H 0.69521 0.16286 0.50835 0.0
H150 H 0.80647 0.08417 0.47269 0.0
S151 S 0.84779 0.43414 0.40644 0.0
N152 N 0.77063 0.42146 0.44089 0.0
N153 N 0.88938 0.33575 0.40145 0.0
C154 C 0.84024 0.28765 0.42846 0.0
C155 C 0.77536 0.33392 0.44951 0.0
C156 C 0.29082 0.1484 0.49818 0.0
C157 C 0.37089 0.20006 0.52528 0.0
C158 C 0.26568 0.07374 0.5222 0.0
C159 C 0.31993 0.04714 0.57406 0.0
H160 H 0.24541 0.16677 0.45853 0.0
H161 H 0.20217 0.03785 0.50027 0.0
S162 S 0.53955 0.15508 0.66105 0.0
N163 N 0.50683 0.21617 0.60629 0.0
N164 N 0.45966 0.07538 0.65091 0.0
C165 C 0.40179 0.09614 0.60092 0.0
C166 C 0.42727 0.1726 0.5767 0.0
C167 C 0.18057 0.66666 0.46269 0.0
C168 C 0.28142 0.66813 0.47691 0.0
C169 C 0.12701 0.74249 0.44593 0.0
C170 C 0.17259 0.82201 0.44239 0.0
H171 H 0.14248 0.60544 0.46134 0.0
H172 H 0.04952 0.73773 0.43221 0.0
S173 S 0.43408 0.86402 0.48242 0.0
N174 N 0.4246 0.75837 0.49261 0.0
N175 N 0.32327 0.90074 0.46 0.0
C176 C 0.27308 0.82607 0.46057 0.0
C177 C 0.3278 0.74909 0.47839 0.0
C178 C 0.18303 0.04899 0.22399 0.0
C179 C 0.10412 0.0619 0.17779 0.0
C180 C 0.1706 0.02318 0.27304 0.0
C181 C 0.07871 0.00958 0.27805 0.0
H182 H 0.25551 0.05788 0.22221 0.0
H183 H 0.23359 0.01485 0.30753 0.0
S184 S 0.84811 0.03642 0.16975 0.0
N185 N 0.93062 0.06212 0.14066 0.0
N186 N 0.90702 0.0104 0.23261 0.0
C187 C 0.9989 0.02248 0.23229 0.0
C188 C 1.01166 0.0493 0.18222 0.0
C189 C 0.97605 0.97124 0.78685 0.0
C190 C 0.05424 0.99758 0.83065 0.0
C191 C 0.98926 0.93363 0.74085 0.0
C192 C 0.08137 0.91996 0.73633 0.0
H193 H 0.90322 0.97925 0.78803 0.0
H194 H 0.92617 0.91587 0.70818 0.0
S195 S 0.31078 0.97923 0.83884 0.0
N196 N 0.2276 0.01071 0.86579 0.0
N197 N 0.2529 0.93615 0.77972 0.0
C198 C 0.16073 0.94643 0.77957 0.0
C199 C 0.14708 0.9859 0.82662 0.0
C200 C 0.5547 0.63105 0.67624 0.0
C201 C 0.48137 0.56864 0.65713 0.0
C202 C 0.58226 0.65792 0.73027 0.0
C203 C 0.53555 0.62479 0.76616 0.0
H204 H 0.59779 0.65199 0.65106 0.0
H205 H 0.64485 0.69948 0.74503 0.0
S206 S 0.32813 0.4721 0.73268 0.0
N207 N 0.35501 0.48327 0.67575 0.0
N208 N 0.40436 0.53539 0.77687 0.0
C209 C 0.45511 0.57014 0.74569 0.0
C210 C 0.4285 0.54165 0.69113 0.0
C211 C 0.58509 0.41952 0.32131 0.0
C212 C 0.57545 0.49001 0.35351 0.0
C213 C 0.59977 0.43349 0.27124 0.0
C214 C 0.60396 0.51847 0.25152 0.0
H215 H 0.57456 0.35335 0.33325 0.0
H216 H 0.60084 0.37756 0.24605 0.0
S217 S 0.59167 0.72445 0.32322 0.0
N218 N 0.5792 0.64701 0.36495 0.0
N219 N 0.606 0.67381 0.27022 0.0
C220 C 0.6024 0.58934 0.28539 0.0
C221 C 0.58799 0.57492 0.33663 0.0
loop_
_geom_bond_atom_site_label_1
_geom_bond_atom_site_label_2
_geom_bond_distance
_geom_bond_site_symmetry_2
_ccdc_geom_bond_type
Zn0 O6 1.920 1_545 S
Zn0 O12 1.898 . S
Zn0 O15 1.905 1_545 S
Zn1 O9 1.905 . S
Zn1 O10 1.898 1_545 S
Zn1 O18 1.920 1_545 S
Zn2 O5 2.080 1_444 S
Zn2 O8 2.114 . S
Zn2 O11 2.120 1_545 S
Zn2 O13 2.120 1_455 S
Zn2 O14 2.114 1_554 S
Zn2 O17 2.080 . S
C3 O8 1.166 . S
C3 O9 1.182 . S
C4 O10 1.167 . S
C4 O11 1.299 . S
O5 Zn2 2.080 1_666 S
O5 C19 1.305 . S
O6 Zn0 1.920 1_565 S
O6 C19 1.234 . S
C7 O12 1.167 . S
C7 O13 1.299 1_556 S
O8 Zn2 2.114 . S
O8 C3 1.166 . S
O9 Zn1 1.905 . S
O9 C3 1.182 . S
O10 Zn1 1.898 1_565 S
O10 C4 1.167 . S
O11 Zn2 2.120 1_565 S
O11 C4 1.299 . S
O12 Zn0 1.898 . S
O12 C7 1.167 . S
O13 Zn2 2.120 1_655 S
O13 C7 1.299 1_554 S
O14 Zn2 2.114 1_556 S
O14 C16 1.166 1_445 S
O15 Zn0 1.905 1_565 S
O15 C16 1.182 . S
C16 O14 1.166 1_665 S
C16 O15 1.182 . S
O17 Zn2 2.080 . S
O17 C20 1.305 1_545 S
O18 Zn1 1.920 1_565 S
O18 C20 1.234 . S
C19 O5 1.305 . S
C19 O6 1.234 . S
C20 O17 1.305 1_565 S
C20 O18 1.234 . S
Zn21 O27 1.920 . S
Zn21 O33 1.898 . S
Zn21 O36 1.905 . S
Zn22 O30 1.905 . S
Zn22 O31 1.898 . S
Zn22 O39 1.920 . S
Zn23 O26 2.080 . S
Zn23 O29 2.114 . S
Zn23 O32 2.120 . S
Zn23 O34 2.120 . S
Zn23 O35 2.114 . S
Zn23 O38 2.080 . S
C24 O29 1.166 . S
C24 O30 1.182 . S
C25 O31 1.167 . S
C25 O32 1.299 . S
O26 Zn23 2.080 . S
O26 C40 1.305 . S
O27 Zn21 1.920 . S
O27 C40 1.234 . S
C28 O33 1.167 . S
C28 O34 1.299 . S
O29 Zn23 2.114 . S
O29 C24 1.166 . S
O30 Zn22 1.905 . S
O30 C24 1.182 . S
O31 Zn22 1.898 . S
O31 C25 1.167 . S
O32 Zn23 2.120 . S
O32 C25 1.299 . S
O33 Zn21 1.898 . S
O33 C28 1.167 . S
O34 Zn23 2.120 . S
O34 C28 1.299 . S
O35 Zn23 2.114 . S
O35 C37 1.166 . S
O36 Zn21 1.905 . S
O36 C37 1.182 . S
C37 O35 1.166 . S
C37 O36 1.182 . S
O38 Zn23 2.080 . S
O38 C41 1.305 . S
O39 Zn22 1.920 . S
O39 C41 1.234 . S
C40 O26 1.305 . S
C40 O27 1.234 . S
C41 O38 1.305 . S
C41 O39 1.234 . S
H42 C47 0.930 . S
H43 C50 0.930 . S
H44 C52 0.930 . S
H45 C46 1.016 . S
C46 H45 1.016 . S
C46 N53 1.286 1_655 S
C47 H42 0.930 . S
C47 C48 1.397 . S
C47 C49 1.361 1_565 S
C48 C47 1.397 . S
C48 C52 1.390 . S
C49 C47 1.361 1_545 S
C49 C50 1.393 . S
C49 N53 1.413 . S
C50 H43 0.930 . S
C50 C49 1.393 . S
C50 C51 1.399 . S
C51 C50 1.399 . S
C51 C52 1.381 1_545 S
C52 H44 0.930 . S
C52 C48 1.390 . S
C52 C51 1.381 1_565 S
N53 C46 1.286 1_455 S
N53 C49 1.413 . S
H54 C59 0.930 . S
H55 C62 0.930 . S
H56 C64 0.930 . S
H57 C58 1.016 . S
C58 H57 1.016 . S
C58 N65 1.286 . S
C59 H54 0.930 . S
C59 C60 1.397 . S
C59 C61 1.361 1_665 S
C60 C59 1.397 . S
C60 C64 1.390 . S
C61 C59 1.361 1_445 S
C61 C62 1.393 . S
C61 N65 1.413 . S
C62 H55 0.930 . S
C62 C61 1.393 . S
C62 C63 1.399 1_455 S
C63 C62 1.399 1_655 S
C63 C64 1.381 1_545 S
C64 H56 0.930 . S
C64 C60 1.390 . S
C64 C63 1.381 1_565 S
N65 C58 1.286 . S
N65 C61 1.413 . S
H66 C71 0.930 . S
H67 C74 0.930 . S
H68 C76 0.930 . S
H69 C70 1.016 . S
C70 H69 1.016 . S
C70 N77 1.286 . S
C71 H66 0.930 . S
C71 C72 1.397 . S
C71 C73 1.361 . S
C72 C71 1.397 . S
C72 C76 1.390 . S
C73 C71 1.361 . S
C73 C74 1.393 . S
C73 N77 1.413 . S
C74 H67 0.930 . S
C74 C73 1.393 . S
C74 C75 1.399 . S
C75 C74 1.399 . S
C75 C76 1.381 . S
C76 H68 0.930 . S
C76 C72 1.390 . S
C76 C75 1.381 . S
N77 C70 1.286 . S
N77 C73 1.413 . S
H78 C83 0.930 . S
H79 C86 0.930 . S
H80 C88 0.930 . S
H81 C82 1.016 . S
C82 H81 1.016 . S
C82 N89 1.286 . S
C83 H78 0.930 . S
C83 C84 1.397 . S
C83 C85 1.361 . S
C84 C83 1.397 . S
C84 C88 1.390 . S
C85 C83 1.361 . S
C85 C86 1.393 . S
C85 N89 1.413 . S
C86 H79 0.930 . S
C86 C85 1.393 . S
C86 C87 1.399 . S
C87 C86 1.399 . S
C87 C88 1.381 . S
C88 H80 0.930 . S
C88 C84 1.390 . S
C88 C87 1.381 . S
N89 C82 1.286 . S
N89 C85 1.413 . S
C90 C91 1.369 . S
C90 C92 1.419 . S
C90 H94 0.930 . S
C91 C90 1.369 . S
C91 C100 1.429 . S
C92 C90 1.419 . S
C92 C93 1.363 . S
C92 H95 0.929 . S
C93 C92 1.363 . S
C93 C99 1.428 . S
H94 C90 0.930 . S
H95 C92 0.929 . S
S96 N97 1.613 . S
S96 N98 1.610 . S
N97 S96 1.613 . S
N97 C100 1.350 1_556 S
N98 S96 1.610 . S
N98 C99 1.351 1_556 S
C99 C93 1.428 . S
C99 N98 1.351 1_554 S
C99 C100 1.434 . S
C100 C91 1.429 . S
C100 N97 1.350 1_554 S
C100 C99 1.434 . S
C101 C102 1.369 . S
C101 C103 1.419 . S
C101 H105 0.930 . S
C102 C101 1.369 . S
C102 C111 1.429 1_556 S
C103 C101 1.419 . S
C103 C104 1.363 . S
C103 H106 0.929 . S
C104 C103 1.363 . S
C104 C110 1.428 1_556 S
H105 C101 0.930 . S
H106 C103 0.929 . S
S107 N108 1.613 . S
S107 N109 1.610 . S
N108 S107 1.613 . S
N108 C111 1.350 . S
N109 S107 1.610 . S
N109 C110 1.351 . S
C110 C104 1.428 1_554 S
C110 N109 1.351 . S
C110 C111 1.434 . S
C111 C102 1.429 1_554 S
C111 N108 1.350 . S
C111 C110 1.434 . S
C112 C113 1.369 . S
C112 C114 1.419 . S
C112 H116 0.930 . S
C113 C112 1.369 . S
C113 C122 1.429 1_554 S
C114 C112 1.419 . S
C114 C115 1.363 . S
C114 H117 0.929 . S
C115 C114 1.363 . S
C115 C121 1.428 . S
H116 C112 0.930 . S
H117 C114 0.929 . S
S118 N119 1.613 . S
S118 N120 1.610 . S
N119 S118 1.613 . S
N119 C122 1.350 . S
N120 S118 1.610 . S
N120 C121 1.351 1_556 S
C121 C115 1.428 . S
C121 N120 1.351 1_554 S
C121 C122 1.434 1_554 S
C122 C113 1.429 1_556 S
C122 N119 1.350 . S
C122 C121 1.434 1_556 S
C123 C124 1.369 . S
C123 C125 1.419 . S
C123 H127 0.930 . S
C124 C123 1.369 . S
C124 C133 1.429 1_556 S
C125 C123 1.419 . S
C125 C126 1.363 . S
C125 H128 0.929 . S
C126 C125 1.363 . S
C126 C132 1.428 1_556 S
H127 C123 0.930 . S
H128 C125 0.929 . S
S129 N130 1.613 . S
S129 N131 1.610 . S
N130 S129 1.613 . S
N130 C133 1.350 . S
N131 S129 1.610 . S
N131 C132 1.351 . S
C132 C126 1.428 1_554 S
C132 N131 1.351 . S
C132 C133 1.434 . S
C133 C124 1.429 1_554 S
C133 N130 1.350 . S
C133 C132 1.434 . S
C134 C135 1.369 . S
C134 C136 1.419 . S
C134 H138 0.930 . S
C135 C134 1.369 . S
C135 C144 1.429 . S
C136 C134 1.419 . S
C136 C137 1.363 . S
C136 H139 0.929 . S
C137 C136 1.363 . S
C137 C143 1.428 . S
H138 C134 0.930 . S
H139 C136 0.929 . S
S140 N141 1.613 . S
S140 N142 1.610 . S
N141 S140 1.613 . S
N141 C144 1.350 . S
N142 S140 1.610 . S
N142 C143 1.351 . S
C143 C137 1.428 . S
C143 N142 1.351 . S
C143 C144 1.434 . S
C144 C135 1.429 . S
C144 N141 1.350 . S
C144 C143 1.434 . S
C145 C146 1.369 . S
C145 C147 1.419 . S
C145 H149 0.930 . S
C146 C145 1.369 . S
C146 C155 1.429 . S
C147 C145 1.419 . S
C147 C148 1.363 . S
C147 H150 0.929 . S
C148 C147 1.363 . S
C148 C154 1.428 . S
H149 C145 0.930 . S
H150 C147 0.929 . S
S151 N152 1.613 . S
S151 N153 1.610 . S
N152 S151 1.613 . S
N152 C155 1.350 . S
N153 S151 1.610 . S
N153 C154 1.351 . S
C154 C148 1.428 . S
C154 N153 1.351 . S
C154 C155 1.434 . S
C155 C146 1.429 . S
C155 N152 1.350 . S
C155 C154 1.434 . S
C156 C157 1.369 . S
C156 C158 1.419 . S
C156 H160 0.930 . S
C157 C156 1.369 . S
C157 C166 1.429 . S
C158 C156 1.419 . S
C158 C159 1.363 . S
C158 H161 0.929 . S
C159 C158 1.363 . S
C159 C165 1.428 . S
H160 C156 0.930 . S
H161 C158 0.929 . S
S162 N163 1.613 . S
S162 N164 1.610 . S
N163 S162 1.613 . S
N163 C166 1.350 . S
N164 S162 1.610 . S
N164 C165 1.351 . S
C165 C159 1.428 . S
C165 N164 1.351 . S
C165 C166 1.434 . S
C166 C157 1.429 . S
C166 N163 1.350 . S
C166 C165 1.434 . S
C167 C168 1.369 . S
C167 C169 1.419 . S
C167 H171 0.930 . S
C168 C167 1.369 . S
C168 C177 1.429 . S
C169 C167 1.419 . S
C169 C170 1.363 . S
C169 H172 0.929 . S
C170 C169 1.363 . S
C170 C176 1.428 . S
H171 C167 0.930 . S
H172 C169 0.929 . S
S173 N174 1.613 . S
S173 N175 1.610 . S
N174 S173 1.613 . S
N174 C177 1.350 . S
N175 S173 1.610 . S
N175 C176 1.351 . S
C176 C170 1.428 . S
C176 N175 1.351 . S
C176 C177 1.434 . S
C177 C168 1.429 . S
C177 N174 1.350 . S
C177 C176 1.434 . S
C178 C179 1.369 . S
C178 C180 1.419 . S
C178 H182 0.930 . S
C179 C178 1.369 . S
C179 C188 1.429 1_565 S
C180 C178 1.419 . S
C180 C181 1.363 1_565 S
C180 H183 0.929 . S
C181 C180 1.363 1_545 S
C181 C187 1.428 . S
H182 C178 0.930 . S
H183 C180 0.929 . S
S184 N185 1.613 . S
S184 N186 1.610 . S
N185 S184 1.613 . S
N185 C188 1.350 1_655 S
N186 S184 1.610 . S
N186 C187 1.351 1_655 S
C187 C181 1.428 . S
C187 N186 1.351 1_455 S
C187 C188 1.434 . S
C188 C179 1.429 1_545 S
C188 N185 1.350 1_455 S
C188 C187 1.434 . S
C189 C190 1.369 1_655 S
C189 C191 1.419 . S
C189 H193 0.930 . S
C190 C189 1.369 1_455 S
C190 C199 1.429 . S
C191 C189 1.419 . S
C191 C192 1.363 1_565 S
C191 H194 0.929 1_565 S
C192 C191 1.363 1_545 S
C192 C198 1.428 1_655 S
H193 C189 0.930 . S
H194 C191 0.929 1_545 S
S195 N196 1.613 1_545 S
S195 N197 1.610 . S
N196 S195 1.613 1_565 S
N196 C199 1.350 . S
N197 S195 1.610 . S
N197 C198 1.351 . S
C198 C192 1.428 1_455 S
C198 N197 1.351 . S
C198 C199 1.434 1_545 S
C199 C190 1.429 . S
C199 N196 1.350 . S
C199 C198 1.434 1_565 S
C200 C201 1.369 . S
C200 C202 1.419 . S
C200 H204 0.930 . S
C201 C200 1.369 . S
C201 C210 1.429 . S
C202 C200 1.419 . S
C202 C203 1.363 . S
C202 H205 0.929 . S
C203 C202 1.363 . S
C203 C209 1.428 . S
H204 C200 0.930 . S
H205 C202 0.929 . S
S206 N207 1.613 . S
S206 N208 1.610 . S
N207 S206 1.613 . S
N207 C210 1.350 . S
N208 S206 1.610 . S
N208 C209 1.351 . S
C209 C203 1.428 . S
C209 N208 1.351 . S
C209 C210 1.434 . S
C210 C201 1.429 . S
C210 N207 1.350 . S
C210 C209 1.434 . S
C211 C212 1.369 . S
C211 C213 1.419 . S
C211 H215 0.930 . S
C212 C211 1.369 . S
C212 C221 1.429 . S
C213 C211 1.419 . S
C213 C214 1.363 . S
C213 H216 0.929 . S
C214 C213 1.363 . S
C214 C220 1.428 . S
H215 C211 0.930 . S
H216 C213 0.929 . S
S217 N218 1.613 . S
S217 N219 1.610 . S
N218 S217 1.613 . S
N218 C221 1.350 . S
N219 S217 1.610 . S
N219 C220 1.351 . S
C220 C214 1.428 . S
C220 N219 1.351 . S
C220 C221 1.434 . S
C221 C212 1.429 . S
C221 N218 1.350 . S
C221 C220 1.434 . S
C93 C84 1.378 . S
C91 C3 1.267 . S
C102 C4 1.425 1_556 S
C104 C70 1.509 . S
C113 C19 1.445 1_554 S
C115 C82 1.523 . S
C124 C7 1.271 . S
C126 C72 1.383 . S
C135 C37 1.277 . S
C137 C60 1.379 . S
C146 C28 1.433 . S
C148 C46 1.505 . S
C159 C58 1.521 . S
C157 C41 1.455 . S
C170 C48 1.384 . S
C168 C25 1.278 . S
C179 C20 1.377 . S
C181 C51 1.517 . S
C190 C16 1.416 1_455 S
C192 C63 1.551 . S
C203 C75 1.516 . S
C201 C40 1.378 . S
C212 C24 1.409 . S
C214 C87 1.552 . S
