# Generated by pormake.
# Topology scu, (8,4)-cn, num edge types: 1
# Building blocks:
#     Node 0, Type 0, BuildingBlock: TAGTUT_clean_sbu_3, # of connection points: 8
#     Node 1, Type 1, BuildingBlock: IZENUY_clean_linker_0, # of connection points: 4
#     Node 2, Type 1, BuildingBlock: IZENUY_clean_linker_0, # of connection points: 4
#     Edge 3, Type (0, 1), BuildingBlock: EYOCIG_clean_linker_4, # of connection points: 2
#     Edge 4, Type (0, 1), BuildingBlock: EYOCIG_clean_linker_4, # of connection points: 2
#     Edge 5, Type (0, 1), BuildingBlock: EYOCIG_clean_linker_4, # of connection points: 2
#     Edge 6, Type (0, 1), BuildingBlock: EYOCIG_clean_linker_4, # of connection points: 2
#     Edge 7, Type (0, 1), BuildingBlock: EYOCIG_clean_linker_4, # of connection points: 2
#     Edge 8, Type (0, 1), BuildingBlock: EYOCIG_clean_linker_4, # of connection points: 2
#     Edge 9, Type (0, 1), BuildingBlock: EYOCIG_clean_linker_4, # of connection points: 2
#     Edge 10, Type (0, 1), BuildingBlock: EYOCIG_clean_linker_4, # of connection points: 2
# Relax obj value: 0.050
# Max RMSD: 0.188
# Mean RMSD: 0.140
data_MOF--net-scu--node1-TAGTUT_clean_sbu_3--node2-IZENUY_clean_linker_0--edge1-EYOCIG_clean_linker_4
_symmetry_space_group_name_H-M    P1
_symmetry_Int_Tables_number       1
_symmetry_cell_setting            triclinic
loop_
_symmetry_equiv_pos_as_xyz
'x, y, z'
_cell_length_a     25.558721
_cell_length_b     21.652842
_cell_length_c     16.017316
_cell_angle_alpha  92.259734
_cell_angle_beta   90.894818
_cell_angle_gamma 89.593057
loop_
_atom_site_label
_atom_site_type_symbol
_atom_site_fract_x
_atom_site_fract_y
_atom_site_fract_z
_atom_type_partial_charge
C0 C 0.02022 0.88813 0.08554 0.0
C1 C 0.82914 0.9794 0.08836 0.0
C2 C 0.86384 0.03912 0.8462 0.0
Mg3 Mg 0.12321 0.93148 -0.01188 0.0
Mg4 Mg 0.13955 0.07739 0.94195 0.0
O5 O 0.09622 0.008 0.93388 0.0
Mg6 Mg 0.02321 0.01167 -0.02224 0.0
O7 O 0.95033 0.00728 0.02134 0.0
Mg8 Mg 0.92501 0.92986 0.9602 0.0
Mg9 Mg 0.90547 0.07595 0.01966 0.0
C10 C 0.03547 0.13548 0.865 0.0
O11 O 0.0381 0.09176 0.076 0.0
O12 O 0.19589 0.93752 0.90238 0.0
O13 O 0.95943 0.14074 0.08209 0.0
O14 O 0.1697 0.98703 0.09068 0.0
O15 O 0.20203 0.03755 0.86903 0.0
O16 O 0.16929 0.08829 0.06818 0.0
O17 O 1.0012 0.93363 0.88313 0.0
O18 O 0.07579 0.87873 0.88605 0.0
C19 C 0.02905 0.88711 0.85878 0.0
C20 C 0.21787 0.98133 0.86426 0.0
O21 O 1.00656 0.09054 0.88672 0.0
O22 O 0.85217 0.93558 0.0464 0.0
O23 O 0.08411 0.14076 0.88529 0.0
O24 O 0.8773 0.9839 0.86255 0.0
O25 O 0.84376 0.03583 0.08875 0.0
O26 O 0.87562 0.08538 0.89437 0.0
O27 O 0.04685 0.93495 0.06525 0.0
O28 O 0.97364 0.87867 0.05764 0.0
C29 C 0.18202 0.04256 0.11213 0.0
C30 C 1.00819 0.13645 0.10184 0.0
H31 H 0.03373 0.4252 0.36748 0.0
H32 H 1.00618 0.42316 0.6324 0.0
H33 H 0.02031 0.25226 0.48798 0.0
H34 H 1.00914 0.60303 0.58688 0.0
H35 H 0.04452 0.6051 0.32451 0.0
H36 H 0.02639 0.77596 0.46774 0.0
N37 N 0.01956 0.49779 0.50833 0.0
N38 N 0.0274 0.53043 0.44733 0.0
C39 C 0.02791 0.40008 0.42376 0.0
C40 C 0.02793 0.33527 0.41924 0.0
C41 C 0.01989 0.43217 0.50097 0.0
C42 C 1.01201 0.39866 0.57288 0.0
C43 C 1.01227 0.33392 0.56827 0.0
C44 C 0.02015 0.30244 0.49149 0.0
C45 C 0.0167 0.62814 0.53116 0.0
C46 C 0.01656 0.69295 0.53564 0.0
C47 C 0.02698 0.59605 0.45469 0.0
C48 C 0.03698 0.62958 0.38351 0.0
C49 C 0.03675 0.69433 0.38822 0.0
C50 C 0.02659 0.72579 0.46421 0.0
H51 H 0.58635 0.9869 0.35703 0.0
H52 H 0.61567 0.03424 0.61773 0.0
H53 H 0.74426 0.00555 0.45024 0.0
H54 H 0.45972 0.98774 0.59471 0.0
H55 H 0.43014 0.03636 0.33948 0.0
H56 H 0.30173 0.00939 0.50431 0.0
N57 N 0.53982 0.0129 0.50591 0.0
N58 N 0.50612 0.01334 0.44864 0.0
C59 C 0.61329 0.99687 0.40866 0.0
C60 C 0.66729 0.99445 0.39506 0.0
C61 C 0.59431 0.01146 0.48932 0.0
C62 C 0.63005 0.0235 0.55548 0.0
C63 C 0.6841 0.02184 0.54121 0.0
C64 C 0.70244 0.00724 0.46113 0.0
C65 C 0.43274 0.99837 0.54433 0.0
C66 C 0.37876 0.99685 0.55791 0.0
C67 C 0.45164 0.01286 0.46524 0.0
C68 C 0.41583 0.02573 0.40059 0.0
C69 C 0.36179 0.02496 0.41491 0.0
C70 C 0.34354 0.01045 0.49344 0.0
C71 C 0.03701 0.2226 0.21324 0.0
C72 C 0.02806 0.18144 0.16222 0.0
C73 C 0.03859 0.26756 0.27955 0.0
C74 C 0.03412 0.30152 0.34059 0.0
C75 C 0.75017 0.96274 0.18776 0.0
C76 C 0.78617 0.96522 0.14046 0.0
C77 C 0.71316 0.96873 0.25189 0.0
C78 C 0.68795 0.97963 0.31367 0.0
C79 C 0.04966 0.80783 0.19597 0.0
C80 C 0.0405 0.84693 0.1462 0.0
C81 C 0.05055 0.76364 0.25841 0.0
C82 C 0.04469 0.72935 0.31494 0.0
C83 C 0.25015 0.05265 0.23726 0.0
C84 C 0.21901 0.05165 0.17984 0.0
C85 C 0.29023 0.04685 0.29833 0.0
C86 C 0.32428 0.03726 0.34933 0.0
C87 C 1.00173 0.80525 0.74089 0.0
C88 C 1.00991 0.84496 0.79427 0.0
C89 C 1.00172 0.76079 0.67403 0.0
C90 C 1.00801 0.72676 0.61355 0.0
C91 C 0.29678 0.96501 0.76252 0.0
C92 C 0.26094 0.96732 0.81044 0.0
C93 C 0.33339 0.97109 0.69856 0.0
C94 C 0.35826 0.98196 0.6377 0.0
C95 C 1.00478 0.22017 0.76131 0.0
C96 C 1.0146 0.17959 0.80863 0.0
C97 C 1.00244 0.26481 0.69942 0.0
C98 C 1.00658 0.29898 0.64228 0.0
C99 C 0.79556 0.04811 0.72194 0.0
C100 C 0.8267 0.04729 0.77928 0.0
C101 C 0.75554 0.04257 0.66026 0.0
C102 C 0.72154 0.03353 0.60817 0.0
loop_
_geom_bond_atom_site_label_1
_geom_bond_atom_site_label_2
_geom_bond_distance
_geom_bond_site_symmetry_2
_ccdc_geom_bond_type
C0 O27 1.300 1_655 S
C0 O28 1.225 . S
C1 O22 1.331 . S
C1 O25 1.244 1_565 S
C2 O24 1.264 1_545 S
C2 O26 1.273 . S
Mg3 O5 1.936 1_565 S
Mg3 O12 2.081 . S
Mg3 O14 2.023 1_556 S
Mg3 O18 2.031 . S
Mg3 O27 2.291 1_556 S
Mg4 O5 1.963 . S
Mg4 O15 1.942 . S
Mg4 O16 1.955 1_556 S
Mg4 O23 1.986 . S
O5 Mg3 1.936 1_545 S
O5 Mg4 1.963 . S
O5 Mg6 1.912 1_556 S
Mg6 O5 1.912 1_554 S
Mg6 O7 1.918 1_455 S
Mg6 O11 2.021 . S
Mg6 O17 2.107 1_444 S
Mg6 O21 2.005 1_454 S
Mg6 O27 2.120 1_545 S
O7 Mg6 1.918 1_655 S
O7 Mg8 1.936 1_545 S
O7 Mg9 1.963 . S
Mg8 O7 1.936 1_565 S
Mg8 O17 2.291 1_554 S
Mg8 O22 2.081 . S
Mg8 O24 2.023 1_554 S
Mg8 O28 2.031 . S
Mg9 O7 1.963 . S
Mg9 O13 1.986 . S
Mg9 O25 1.942 . S
Mg9 O26 1.955 1_554 S
C10 O21 1.191 1_455 S
C10 O23 1.307 . S
O11 Mg6 2.021 . S
O11 C30 1.191 1_455 S
O12 Mg3 2.081 . S
O12 C20 1.331 . S
O13 Mg9 1.986 . S
O13 C30 1.307 . S
O14 Mg3 2.023 1_554 S
O14 C29 1.264 1_565 S
O15 Mg4 1.942 . S
O15 C20 1.244 1_545 S
O16 Mg4 1.955 1_554 S
O16 C29 1.273 . S
O17 Mg6 2.107 1_666 S
O17 Mg8 2.291 1_556 S
O17 C19 1.312 1_655 S
O18 Mg3 2.031 . S
O18 C19 1.208 . S
C19 O17 1.312 1_455 S
C19 O18 1.208 . S
C20 O12 1.331 . S
C20 O15 1.244 1_565 S
O21 Mg6 2.005 1_656 S
O21 C10 1.191 1_655 S
O22 C1 1.331 . S
O22 Mg8 2.081 . S
O23 Mg4 1.986 . S
O23 C10 1.307 . S
O24 C2 1.264 1_565 S
O24 Mg8 2.023 1_556 S
O25 C1 1.244 1_545 S
O25 Mg9 1.942 . S
O26 C2 1.273 . S
O26 Mg9 1.955 1_556 S
O27 C0 1.300 1_455 S
O27 Mg3 2.291 1_554 S
O27 Mg6 2.120 1_565 S
O28 C0 1.225 . S
O28 Mg8 2.031 . S
C29 O14 1.264 1_545 S
C29 O16 1.273 . S
C30 O11 1.191 1_655 S
C30 O13 1.307 . S
H31 C39 0.940 . S
H32 C42 0.940 . S
H33 C44 0.940 1_655 S
H34 C45 0.940 . S
H35 C48 0.940 . S
H36 C50 0.940 1_655 S
N37 N38 1.190 . S
N37 C41 1.477 . S
N38 N37 1.190 . S
N38 C47 1.477 . S
C39 H31 0.940 . S
C39 C40 1.390 . S
C39 C41 1.322 . S
C40 C39 1.390 . S
C40 C44 1.370 . S
C41 N37 1.477 . S
C41 C39 1.322 . S
C41 C42 1.447 . S
C42 H32 0.940 . S
C42 C41 1.447 . S
C42 C43 1.373 . S
C43 C42 1.373 . S
C43 C44 1.417 . S
C44 H33 0.940 1_455 S
C44 C40 1.370 . S
C44 C43 1.417 . S
C45 H34 0.940 . S
C45 C46 1.390 . S
C45 C47 1.322 . S
C46 C45 1.390 . S
C46 C50 1.370 . S
C47 N38 1.477 . S
C47 C45 1.322 . S
C47 C48 1.447 . S
C48 H35 0.940 . S
C48 C47 1.447 . S
C48 C49 1.373 . S
C49 C48 1.373 . S
C49 C50 1.417 . S
C50 H36 0.940 1_455 S
C50 C46 1.370 . S
C50 C49 1.417 . S
H51 C59 0.940 . S
H52 C62 0.940 . S
H53 C64 0.938 1_565 S
H54 C65 0.940 . S
H55 C68 0.940 . S
H56 C70 0.938 1_565 S
N57 N58 1.190 . S
N57 C61 1.477 . S
N58 N57 1.190 . S
N58 C67 1.477 . S
C59 H51 0.940 . S
C59 C60 1.390 . S
C59 C61 1.322 . S
C60 C59 1.390 . S
C60 C64 1.370 . S
C61 N57 1.477 . S
C61 C59 1.322 . S
C61 C62 1.447 . S
C62 H52 0.940 . S
C62 C61 1.447 . S
C62 C63 1.373 . S
C63 C62 1.373 . S
C63 C64 1.419 . S
C64 H53 0.938 1_545 S
C64 C60 1.370 . S
C64 C63 1.419 . S
C65 H54 0.940 . S
C65 C66 1.390 . S
C65 C67 1.322 . S
C66 C65 1.390 . S
C66 C70 1.370 . S
C67 N58 1.477 . S
C67 C65 1.322 . S
C67 C68 1.447 . S
C68 H55 0.940 . S
C68 C67 1.447 . S
C68 C69 1.373 . S
C69 C68 1.373 . S
C69 C70 1.420 . S
C70 H56 0.938 1_545 S
C70 C66 1.370 . S
C70 C69 1.420 . S
C71 C72 1.170 . S
C71 C73 1.380 . S
C72 C71 1.170 . S
C73 C71 1.380 . S
C73 C74 1.170 . S
C74 C73 1.170 . S
C75 C76 1.170 1_545 S
C75 C77 1.380 . S
C76 C75 1.170 1_565 S
C77 C75 1.380 . S
C77 C78 1.170 . S
C78 C77 1.170 . S
C79 C80 1.170 . S
C79 C81 1.380 . S
C80 C79 1.170 . S
C81 C79 1.380 . S
C81 C82 1.170 . S
C82 C81 1.170 . S
C83 C84 1.170 . S
C83 C85 1.380 . S
C84 C83 1.170 . S
C85 C83 1.380 . S
C85 C86 1.170 . S
C86 C85 1.170 . S
C87 C88 1.170 . S
C87 C89 1.380 . S
C88 C87 1.170 . S
C89 C87 1.380 . S
C89 C90 1.170 . S
C90 C89 1.170 . S
C91 C92 1.170 . S
C91 C93 1.380 . S
C92 C91 1.170 . S
C93 C91 1.380 . S
C93 C94 1.170 . S
C94 C93 1.170 . S
C95 C96 1.170 . S
C95 C97 1.380 . S
C96 C95 1.170 . S
C97 C95 1.380 . S
C97 C98 1.170 . S
C98 C97 1.170 . S
C99 C100 1.170 . S
C99 C101 1.380 . S
C100 C99 1.170 . S
C101 C99 1.380 . S
C101 C102 1.170 . S
C102 C101 1.170 . S
C72 C30 1.500 1_455 S
C74 C40 1.492 . S
C76 C1 1.612 . S
C78 C60 1.573 . S
C80 C0 1.453 1_455 S
C82 C49 1.523 . S
C84 C29 1.643 . S
C86 C69 1.630 . S
C88 C19 1.499 . S
C90 C46 1.486 . S
C92 C20 1.635 . S
C94 C66 1.576 1_565 S
C98 C43 1.513 . S
C96 C10 1.471 . S
C100 C2 1.646 . S
C102 C63 1.626 . S
