# Generated by pormake.
# Topology pyr, (3,6)-cn, num edge types: 1
# Building blocks:
#     Node 0, Type 0, BuildingBlock: BETDAH_clean_linker_0, # of connection points: 3
#     Node 1, Type 0, BuildingBlock: BETDAH_clean_linker_0, # of connection points: 3
#     Node 2, Type 0, BuildingBlock: BETDAH_clean_linker_0, # of connection points: 3
#     Node 3, Type 0, BuildingBlock: BETDAH_clean_linker_0, # of connection points: 3
#     Node 4, Type 0, BuildingBlock: BETDAH_clean_linker_0, # of connection points: 3
#     Node 5, Type 0, BuildingBlock: BETDAH_clean_linker_0, # of connection points: 3
#     Node 6, Type 0, BuildingBlock: BETDAH_clean_linker_0, # of connection points: 3
#     Node 7, Type 0, BuildingBlock: BETDAH_clean_linker_0, # of connection points: 3
#     Node 8, Type 1, BuildingBlock: VOLQOD_clean_sbu_1, # of connection points: 6
#     Node 9, Type 1, BuildingBlock: VOLQOD_clean_sbu_1, # of connection points: 6
#     Node 10, Type 1, BuildingBlock: VOLQOD_clean_sbu_1, # of connection points: 6
#     Node 11, Type 1, BuildingBlock: VOLQOD_clean_sbu_1, # of connection points: 6
#     Edge 12, Type (0, 1), None
#     Edge 13, Type (0, 1), None
#     Edge 14, Type (0, 1), None
#     Edge 15, Type (0, 1), None
#     Edge 16, Type (0, 1), None
#     Edge 17, Type (0, 1), None
#     Edge 18, Type (0, 1), None
#     Edge 19, Type (0, 1), None
#     Edge 20, Type (0, 1), None
#     Edge 21, Type (0, 1), None
#     Edge 22, Type (0, 1), None
#     Edge 23, Type (0, 1), None
#     Edge 24, Type (0, 1), None
#     Edge 25, Type (0, 1), None
#     Edge 26, Type (0, 1), None
#     Edge 27, Type (0, 1), None
#     Edge 28, Type (0, 1), None
#     Edge 29, Type (0, 1), None
#     Edge 30, Type (0, 1), None
#     Edge 31, Type (0, 1), None
#     Edge 32, Type (0, 1), None
#     Edge 33, Type (0, 1), None
#     Edge 34, Type (0, 1), None
#     Edge 35, Type (0, 1), None
# Relax obj value: 0.122
# Max RMSD: 0.186
# Mean RMSD: 0.143
data_MOF--net-pry--node1-VOLQOD_clean_sbu_1--node2-BETDAH_clean_linker_0--edge1-none
_symmetry_space_group_name_H-M    P1
_symmetry_Int_Tables_number       1
_symmetry_cell_setting            triclinic
loop_
_symmetry_equiv_pos_as_xyz
'x, y, z'
_cell_length_a     16.840741
_cell_length_b     17.023892
_cell_length_c     17.161459
_cell_angle_alpha  89.634251
_cell_angle_beta   89.560644
_cell_angle_gamma 99.666026
loop_
_atom_site_label
_atom_site_type_symbol
_atom_site_fract_x
_atom_site_fract_y
_atom_site_fract_z
_atom_type_partial_charge
H0 H 0.22716 0.05476 0.27961 0.0
H1 H 0.21604 0.14906 0.04693 0.0
H2 H 0.02218 0.15815 0.20907 0.0
C3 C 0.19636 0.0837 0.23536 0.0
C4 C 0.12038 0.1036 0.25306 0.0
C5 C 0.23181 0.09905 0.16091 0.0
C6 C 0.19063 0.13721 0.10486 0.0
C7 C 0.11641 0.16054 0.12233 0.0
C8 C 0.08062 0.14245 0.19621 0.0
N9 N 0.07416 0.19186 0.06123 0.0
C10 C 0.0562 0.26897 0.05858 0.0
H11 H 0.50205 0.82233 0.82077 0.0
H12 H 0.41954 0.04597 0.77958 0.0
H13 H 0.41016 0.87636 0.59601 0.0
C14 C 0.47712 0.86261 0.78248 0.0
C15 C 0.45819 0.83955 0.70417 0.0
C16 C 0.4612 0.93679 0.81165 0.0
C17 C 0.43005 0.98806 0.76025 0.0
C18 C 0.41202 0.96592 0.68342 0.0
C19 C 0.4244 0.89182 0.65607 0.0
N20 N 0.38482 0.02071 0.63247 0.0
C21 C 0.30609 0.00896 0.60658 0.0
H22 H 0.7107 0.32515 0.05615 0.0
H23 H 0.64843 0.54801 0.98039 0.0
H24 H 0.46396 0.3423 1.00686 0.0
C25 C 0.6656 0.36056 0.03954 0.0
C26 C 0.58469 0.3241 0.03379 0.0
C27 C 0.68941 0.44115 1.02 0.0
C28 C 0.63113 0.48587 0.99685 0.0
C29 C 0.54992 0.45053 0.99422 0.0
C30 C 0.52665 0.36964 1.0118 0.0
N31 N 0.49293 0.49408 0.96466 0.0
C32 C 0.50003 0.51615 0.88716 0.0
H33 H 0.79942 0.77075 0.55738 0.0
H34 H -0.01113 0.71985 0.40549 0.0
H35 H 0.79729 0.53252 0.47271 0.0
C36 C 0.82673 0.72823 0.52403 0.0
C37 C 0.78887 0.6485 0.52015 0.0
C38 C 0.89871 0.75355 0.48217 0.0
C39 C 0.93315 0.70001 0.43735 0.0
C40 C 0.89673 0.62028 0.43503 0.0
C41 C 0.82567 0.59441 0.47685 0.0
N42 N 0.92991 0.56561 0.38911 0.0
C43 C 0.94839 0.5814 0.31127 0.0
H44 H 0.97936 0.8253 0.81256 0.0
H45 H 0.92324 0.88233 0.04856 0.0
H46 H 0.92097 0.05649 0.86769 0.0
C47 C 0.96307 0.8674 0.85442 0.0
C48 C 0.95283 0.94487 0.82938 0.0
C49 C 0.95318 0.84454 0.93394 0.0
C50 C 0.93233 0.89906 0.98765 0.0
C51 C 0.91963 0.97423 0.9632 0.0
C52 C 0.93029 0.99737 0.88489 0.0
N53 N 0.89285 0.02581 1.01745 0.0
C54 C 0.81199 0.01553 0.03768 0.0
H55 H 0.7251 0.04848 0.36304 0.0
H56 H 0.70679 0.14987 0.59098 0.0
H57 H 0.5127 0.14246 0.42867 0.0
C58 C 0.69189 0.07639 0.40623 0.0
C59 C 0.61438 0.09122 0.38777 0.0
C60 C 0.72629 0.09656 0.47972 0.0
C61 C 0.68208 0.13381 0.53404 0.0
C62 C 0.60611 0.15187 0.51522 0.0
C63 C 0.57178 0.12934 0.44262 0.0
N64 N 0.56223 0.18702 0.57234 0.0
C65 C 0.5501 0.26592 0.56841 0.0
H66 H 0.30769 0.77502 0.06509 0.0
H67 H 0.27192 0.52996 0.14013 0.0
H68 H 0.4637 0.69884 0.23692 0.0
C69 C 0.32625 0.7277 0.09949 0.0
C70 C 0.39273 0.74461 0.1493 0.0
C71 C 0.2831 0.64992 0.09487 0.0
C72 C 0.30688 0.58959 0.14052 0.0
C73 C 0.36952 0.60756 0.19382 0.0
C74 C 0.41359 0.685 0.19724 0.0
N75 N 0.38383 0.54762 0.24638 0.0
C76 C 0.41064 0.56442 0.32152 0.0
H77 H 0.21468 0.33065 0.58286 0.0
H78 H 0.15037 0.56024 0.6269 0.0
H79 H 0.96672 0.35255 0.62204 0.0
C80 C 0.1691 0.36746 0.59355 0.0
C81 C 0.08777 0.33191 0.59929 0.0
C82 C 0.19237 0.44978 0.60322 0.0
C83 C 0.13337 0.49695 0.61632 0.0
C84 C 0.05243 0.46157 0.62306 0.0
C85 C 0.02946 0.37931 0.61469 0.0
N86 N -0.00289 0.50593 0.65425 0.0
C87 C -0.00083 0.51666 0.73383 0.0
O88 O 0.00304 0.20618 0.62047 0.0
Zn89 Zn 0.9497 0.08983 0.61198 0.0
O90 O 0.01493 0.03749 0.53922 0.0
Zn91 Zn 0.95315 0.00843 0.44429 0.0
Zn92 Zn 0.11303 0.10563 0.50581 0.0
Zn93 Zn 0.04825 0.94622 0.59235 0.0
O94 O 0.92 0.88939 0.44758 0.0
O95 O -0.00685 0.84799 0.54308 0.0
O96 O 0.83702 0.09258 0.56702 0.0
O97 O 0.8486 0.05157 0.44549 0.0
O98 O 0.01541 0.04669 0.34269 0.0
O99 O 0.13016 0.11083 0.39013 0.0
O100 O 0.21105 0.07408 0.55092 0.0
O101 O 0.94119 0.03331 0.72059 0.0
O102 O 0.16964 0.95202 0.5975 0.0
O103 O 0.00949 0.93402 0.70334 0.0
C104 C 0.06534 0.24589 0.58708 0.0
C105 C 0.9409 0.83457 0.48973 0.0
C106 C 0.08603 0.08676 0.33251 0.0
C107 C 0.80819 0.07937 0.49867 0.0
C108 C 0.22538 0.01043 0.58217 0.0
C109 C 0.96771 0.97187 0.74661 0.0
O110 O 0.11001 0.21363 0.54174 0.0
O111 O 0.50512 0.19611 1.01486 0.0
Zn112 Zn 0.45284 0.07999 0.02781 0.0
O113 O 0.51669 0.02901 0.10186 0.0
Zn114 Zn 0.5547 0.93917 0.0501 0.0
Zn115 Zn 0.61086 0.10093 0.13597 0.0
Zn116 Zn 0.45208 0.99771 0.19586 0.0
O117 O 0.49794 0.83859 0.09913 0.0
O118 O 0.41636 0.87873 0.18869 0.0
O119 O 0.44644 0.02138 0.92152 0.0
O120 O 0.52065 0.92644 0.93704 0.0
O121 O 0.67743 0.95109 0.04789 0.0
O122 O 0.7113 0.07514 0.09054 0.0
O123 O 0.62605 0.10299 0.25118 0.0
O124 O 0.34082 0.08609 0.07312 0.0
O125 O 0.51329 0.03135 0.29788 0.0
O126 O 0.3498 0.04614 0.19573 0.0
C127 C 0.56268 0.23873 0.05107 0.0
C128 C 0.44081 0.82424 0.14891 0.0
C129 C 0.7299 0.01264 0.06118 0.0
C130 C 0.47666 0.96259 0.89448 0.0
C131 C 0.58246 0.07383 0.3084 0.0
C132 C 0.31145 0.07557 0.14208 0.0
O133 O 0.60487 0.20922 0.10077 0.0
O134 O 0.56459 0.57353 0.77458 0.0
Zn135 Zn 0.56981 0.62561 0.66811 0.0
O136 O 0.49501 0.55746 0.6002 0.0
Zn137 Zn 0.54963 0.51493 0.5151 0.0
Zn138 Zn 0.44316 0.46274 0.65288 0.0
Zn139 Zn 0.41327 0.61829 0.56452 0.0
O140 O 0.4918 0.53021 0.41827 0.0
O141 O 0.41451 0.62129 0.44568 0.0
O142 O 0.68259 0.6479 0.61525 0.0
O143 O 0.66019 0.57384 0.50826 0.0
O144 O 0.55906 0.3976 0.5222 0.0
O145 O 0.48863 0.36265 0.62976 0.0
O146 O 0.32769 0.43982 0.62654 0.0
O147 O 0.53135 0.73042 0.69424 0.0
O148 O 0.30158 0.55752 0.58794 0.0
O149 O 0.42412 0.72746 0.61909 0.0
C150 C 0.5058 0.5258 0.80503 0.0
C151 C 0.44313 0.5757 0.39793 0.0
C152 C 0.53172 0.34564 0.57332 0.0
C153 C 0.70647 0.62232 0.55049 0.0
C154 C 0.27834 0.48442 0.60551 0.0
C155 C 0.47187 0.76159 0.67116 0.0
O156 O 0.45185 0.48359 0.76509 0.0
O157 O 0.94243 0.51279 0.19711 0.0
Zn158 Zn 0.93858 0.4731 0.09019 0.0
O159 O -0.00763 0.5573 1.02228 0.0
Zn160 Zn 0.91456 0.58533 0.94844 0.0
Zn161 Zn 0.02975 0.65593 0.07857 0.0
Zn162 Zn 0.08016 0.51455 0.97206 0.0
O163 O 0.93719 0.54371 0.84684 0.0
O164 O 0.06411 0.5213 0.85447 0.0
O165 O 0.82262 0.44437 0.06314 0.0
O166 O 0.80094 0.53659 0.97734 0.0
O167 O 0.92415 0.70327 0.92658 0.0
O168 O 0.00086 0.75526 0.02388 0.0
O169 O 0.14973 0.67017 0.08545 0.0
O170 O 0.9856 0.37156 0.09176 0.0
O171 O 0.18677 0.57432 1.01255 0.0
O172 O 0.08085 0.39706 1.00104 0.0
C173 C 0.96104 0.58004 0.2292 0.0
C174 C 0.00085 0.52777 0.81574 0.0
C175 C 0.96125 0.76357 0.96199 0.0
C176 C 0.77527 0.47672 1.02089 0.0
C177 C 0.20378 0.63404 0.05773 0.0
C178 C 0.04169 0.35026 0.05152 0.0
O179 O -0.01017 0.64335 0.19128 0.0
loop_
_geom_bond_atom_site_label_1
_geom_bond_atom_site_label_2
_geom_bond_distance
_geom_bond_site_symmetry_2
_ccdc_geom_bond_type
H0 C3 0.929 . S
H1 C6 0.929 . S
H2 C8 0.930 . S
C3 H0 0.929 . S
C3 C4 1.398 . S
C3 C5 1.396 . S
C4 C3 1.398 . S
C4 C8 1.407 . S
C5 C3 1.396 . S
C5 C6 1.394 . S
C6 H1 0.929 . S
C6 C5 1.394 . S
C6 C7 1.382 . S
C7 C6 1.382 . S
C7 C8 1.392 . S
C7 N9 1.420 . S
C8 H2 0.930 . S
C8 C4 1.407 . S
C8 C7 1.392 . S
N9 C7 1.420 . S
N9 C10 1.244 . S
C10 N9 1.244 . S
H11 C14 0.929 . S
H12 C17 0.929 . S
H13 C19 0.930 . S
C14 H11 0.929 . S
C14 C15 1.398 . S
C14 C16 1.396 . S
C15 C14 1.398 . S
C15 C19 1.407 . S
C16 C14 1.396 . S
C16 C17 1.394 . S
C17 H12 0.929 . S
C17 C16 1.394 . S
C17 C18 1.382 . S
C18 C17 1.382 . S
C18 C19 1.392 . S
C18 N20 1.420 . S
C19 H13 0.930 . S
C19 C15 1.407 . S
C19 C18 1.392 . S
N20 C18 1.420 . S
N20 C21 1.244 . S
C21 N20 1.244 . S
H22 C25 0.929 . S
H23 C28 0.929 . S
H24 C30 0.930 . S
C25 H22 0.929 . S
C25 C26 1.398 1_554 S
C25 C27 1.396 1_554 S
C26 C25 1.398 1_556 S
C26 C30 1.407 . S
C27 C25 1.396 1_556 S
C27 C28 1.394 . S
C28 H23 0.929 . S
C28 C27 1.394 . S
C28 C29 1.382 . S
C29 C28 1.382 . S
C29 C30 1.392 . S
C29 N31 1.420 . S
C30 H24 0.930 . S
C30 C26 1.407 . S
C30 C29 1.392 . S
N31 C29 1.420 . S
N31 C32 1.244 . S
C32 N31 1.244 . S
H33 C36 0.929 . S
H34 C39 0.929 . S
H35 C41 0.930 . S
C36 H33 0.929 . S
C36 C37 1.398 . S
C36 C38 1.396 . S
C37 C36 1.398 . S
C37 C41 1.407 . S
C38 C36 1.396 . S
C38 C39 1.394 . S
C39 H34 0.929 . S
C39 C38 1.394 . S
C39 C40 1.382 . S
C40 C39 1.382 . S
C40 C41 1.392 . S
C40 N42 1.420 . S
C41 H35 0.930 . S
C41 C37 1.407 . S
C41 C40 1.392 . S
N42 C40 1.420 . S
N42 C43 1.244 . S
C43 N42 1.244 . S
H44 C47 0.929 . S
H45 C50 0.929 1_554 S
H46 C52 0.930 . S
C47 H44 0.929 . S
C47 C48 1.398 1_455 S
C47 C49 1.396 1_455 S
C48 C47 1.398 1_655 S
C48 C52 1.407 1_565 S
C49 C47 1.396 1_655 S
C49 C50 1.394 . S
C50 H45 0.929 1_556 S
C50 C49 1.394 . S
C50 C51 1.382 1_565 S
C51 C50 1.382 1_545 S
C51 C52 1.392 . S
C51 N53 1.420 . S
C52 H46 0.930 . S
C52 C48 1.407 1_545 S
C52 C51 1.392 . S
N53 C51 1.420 . S
N53 C54 1.244 1_556 S
C54 N53 1.244 1_554 S
H55 C58 0.929 1_565 S
H56 C61 0.929 . S
H57 C63 0.930 . S
C58 H55 0.929 1_545 S
C58 C59 1.398 . S
C58 C60 1.396 . S
C59 C58 1.398 . S
C59 C63 1.407 . S
C60 C58 1.396 . S
C60 C61 1.394 . S
C61 H56 0.929 . S
C61 C60 1.394 . S
C61 C62 1.382 . S
C62 C61 1.382 . S
C62 C63 1.392 . S
C62 N64 1.420 . S
C63 H57 0.930 . S
C63 C59 1.407 . S
C63 C62 1.392 . S
N64 C62 1.420 . S
N64 C65 1.244 . S
C65 N64 1.244 . S
H66 C69 0.929 . S
H67 C72 0.929 . S
H68 C74 0.930 . S
C69 H66 0.929 . S
C69 C70 1.398 . S
C69 C71 1.396 . S
C70 C69 1.398 . S
C70 C74 1.407 . S
C71 C69 1.396 . S
C71 C72 1.394 . S
C72 H67 0.929 . S
C72 C71 1.394 . S
C72 C73 1.382 . S
C73 C72 1.382 . S
C73 C74 1.392 . S
C73 N75 1.420 . S
C74 H68 0.930 . S
C74 C70 1.407 . S
C74 C73 1.392 . S
N75 C73 1.420 . S
N75 C76 1.244 . S
C76 N75 1.244 . S
H77 C80 0.929 . S
H78 C83 0.929 . S
H79 C85 0.930 1_655 S
C80 H77 0.929 . S
C80 C81 1.398 . S
C80 C82 1.396 . S
C81 C80 1.398 . S
C81 C85 1.407 . S
C82 C80 1.396 . S
C82 C83 1.394 . S
C83 H78 0.929 . S
C83 C82 1.394 . S
C83 C84 1.382 . S
C84 C83 1.382 . S
C84 C85 1.392 . S
C84 N86 1.420 . S
C85 H79 0.930 1_455 S
C85 C81 1.407 . S
C85 C84 1.392 . S
N86 C84 1.420 . S
N86 C87 1.244 . S
C87 N86 1.244 . S
O88 Zn89 1.953 . S
O88 C104 1.225 1_655 S
Zn89 O88 1.953 . S
Zn89 O90 1.949 1_655 S
Zn89 O96 1.919 . S
Zn89 O101 1.924 . S
O90 Zn89 1.949 1_455 S
O90 Zn91 1.923 1_445 S
O90 Zn92 1.950 . S
O90 Zn93 1.945 1_545 S
Zn91 O90 1.923 1_665 S
Zn91 O94 1.933 . S
Zn91 O97 1.941 1_565 S
Zn91 O98 1.965 1_665 S
Zn92 O90 1.950 . S
Zn92 O99 1.938 . S
Zn92 O100 1.906 . S
Zn92 O110 1.953 . S
Zn93 O90 1.945 1_565 S
Zn93 O95 1.932 1_455 S
Zn93 O102 1.977 . S
Zn93 O103 1.910 1_455 S
O94 Zn91 1.933 . S
O94 C105 1.226 . S
O95 Zn93 1.932 1_655 S
O95 C105 1.307 . S
O96 Zn89 1.919 . S
O96 C107 1.253 . S
O97 Zn91 1.941 1_545 S
O97 C107 1.283 . S
O98 Zn91 1.965 1_445 S
O98 C106 1.303 . S
O99 Zn92 1.938 . S
O99 C106 1.247 . S
O100 Zn92 1.906 . S
O100 C108 1.304 1_545 S
O101 Zn89 1.924 . S
O101 C109 1.311 . S
O102 Zn93 1.977 . S
O102 C108 1.272 . S
O103 Zn93 1.910 1_655 S
O103 C109 1.231 1_565 S
C104 O88 1.225 1_455 S
C104 O110 1.298 . S
C105 O94 1.226 . S
C105 O95 1.307 . S
C106 O98 1.303 . S
C106 O99 1.247 . S
C107 O96 1.253 . S
C107 O97 1.283 . S
C108 O100 1.304 1_565 S
C108 O102 1.272 . S
C109 O101 1.311 . S
C109 O103 1.231 1_545 S
O110 Zn92 1.953 . S
O110 C104 1.298 . S
O111 Zn112 1.953 . S
O111 C127 1.225 1_556 S
Zn112 O111 1.953 . S
Zn112 O113 1.949 1_556 S
Zn112 O119 1.919 . S
Zn112 O124 1.924 1_556 S
O113 Zn112 1.949 1_554 S
O113 Zn114 1.923 1_545 S
O113 Zn115 1.950 . S
O113 Zn116 1.945 . S
Zn114 O113 1.923 1_565 S
Zn114 O117 1.933 . S
Zn114 O120 1.941 1_554 S
Zn114 O121 1.965 . S
Zn115 O113 1.950 . S
Zn115 O122 1.938 . S
Zn115 O123 1.906 . S
Zn115 O133 1.953 . S
Zn116 O113 1.945 . S
Zn116 O118 1.932 1_545 S
Zn116 O125 1.977 . S
Zn116 O126 1.910 . S
O117 Zn114 1.933 . S
O117 C128 1.226 . S
O118 Zn116 1.932 1_565 S
O118 C128 1.307 . S
O119 Zn112 1.919 . S
O119 C130 1.253 1_545 S
O120 Zn114 1.941 1_556 S
O120 C130 1.283 . S
O121 Zn114 1.965 . S
O121 C129 1.303 1_565 S
O122 Zn115 1.938 . S
O122 C129 1.247 . S
O123 Zn115 1.906 . S
O123 C131 1.304 . S
O124 Zn112 1.924 1_554 S
O124 C132 1.311 . S
O125 Zn116 1.977 . S
O125 C131 1.272 . S
O126 Zn116 1.910 . S
O126 C132 1.231 . S
C127 O111 1.225 1_554 S
C127 O133 1.298 . S
C128 O117 1.226 . S
C128 O118 1.307 . S
C129 O121 1.303 1_545 S
C129 O122 1.247 . S
C130 O119 1.253 1_565 S
C130 O120 1.283 . S
C131 O123 1.304 . S
C131 O125 1.272 . S
C132 O124 1.311 . S
C132 O126 1.231 . S
O133 Zn115 1.953 . S
O133 C127 1.298 . S
O134 Zn135 1.953 . S
O134 C150 1.225 . S
Zn135 O134 1.953 . S
Zn135 O136 1.949 . S
Zn135 O142 1.919 . S
Zn135 O147 1.924 . S
O136 Zn135 1.949 . S
O136 Zn137 1.923 . S
O136 Zn138 1.950 . S
O136 Zn139 1.945 . S
Zn137 O136 1.923 . S
Zn137 O140 1.933 . S
Zn137 O143 1.941 . S
Zn137 O144 1.965 . S
Zn138 O136 1.950 . S
Zn138 O145 1.938 . S
Zn138 O146 1.906 . S
Zn138 O156 1.953 . S
Zn139 O136 1.945 . S
Zn139 O141 1.932 . S
Zn139 O148 1.977 . S
Zn139 O149 1.910 . S
O140 Zn137 1.933 . S
O140 C151 1.226 . S
O141 Zn139 1.932 . S
O141 C151 1.307 . S
O142 Zn135 1.919 . S
O142 C153 1.253 . S
O143 Zn137 1.941 . S
O143 C153 1.283 . S
O144 Zn137 1.965 . S
O144 C152 1.303 . S
O145 Zn138 1.938 . S
O145 C152 1.247 . S
O146 Zn138 1.906 . S
O146 C154 1.304 . S
O147 Zn135 1.924 . S
O147 C155 1.311 . S
O148 Zn139 1.977 . S
O148 C154 1.272 . S
O149 Zn139 1.910 . S
O149 C155 1.231 . S
C150 O134 1.225 . S
C150 O156 1.298 . S
C151 O140 1.226 . S
C151 O141 1.307 . S
C152 O144 1.303 . S
C152 O145 1.247 . S
C153 O142 1.253 . S
C153 O143 1.283 . S
C154 O146 1.304 . S
C154 O148 1.272 . S
C155 O147 1.311 . S
C155 O149 1.231 . S
O156 Zn138 1.953 . S
O156 C150 1.298 . S
O157 Zn158 1.953 . S
O157 C173 1.225 . S
Zn158 O157 1.953 . S
Zn158 O159 1.949 1_655 S
Zn158 O165 1.919 . S
Zn158 O170 1.924 . S
O159 Zn158 1.949 1_455 S
O159 Zn160 1.923 1_454 S
O159 Zn161 1.950 . S
O159 Zn162 1.945 1_554 S
Zn160 O159 1.923 1_656 S
Zn160 O163 1.933 1_655 S
Zn160 O166 1.941 . S
Zn160 O167 1.965 . S
Zn161 O159 1.950 . S
Zn161 O168 1.938 . S
Zn161 O169 1.906 . S
Zn161 O179 1.953 . S
Zn162 O159 1.945 1_556 S
Zn162 O164 1.932 . S
Zn162 O171 1.977 1_556 S
Zn162 O172 1.910 1_556 S
O163 Zn160 1.933 1_455 S
O163 C174 1.226 . S
O164 Zn162 1.932 . S
O164 C174 1.307 . S
O165 Zn158 1.919 . S
O165 C176 1.253 1_554 S
O166 Zn160 1.941 . S
O166 C176 1.283 . S
O167 Zn160 1.965 . S
O167 C175 1.303 . S
O168 Zn161 1.938 . S
O168 C175 1.247 1_454 S
O169 Zn161 1.906 . S
O169 C177 1.304 . S
O170 Zn158 1.924 . S
O170 C178 1.311 1_655 S
O171 Zn162 1.977 1_554 S
O171 C177 1.272 . S
O172 Zn162 1.910 1_554 S
O172 C178 1.231 . S
C173 O157 1.225 . S
C173 O179 1.298 1_655 S
C174 O163 1.226 . S
C174 O164 1.307 . S
C175 O167 1.303 . S
C175 O168 1.247 1_656 S
C176 O165 1.253 1_556 S
C176 O166 1.283 . S
C177 O169 1.304 . S
C177 O171 1.272 . S
C178 O170 1.311 1_455 S
C178 O172 1.231 . S
O179 Zn161 1.953 . S
O179 C173 1.298 1_455 S
C4 C106 1.854 . S
C16 C130 2.111 . S
C150 C32 1.095 . S
C43 C173 1.390 . S
C132 C5 2.288 . S
C108 C21 1.561 . S
C176 C27 1.897 . S
C153 C37 1.479 . S
C10 C178 1.659 . S
C127 C26 1.830 1_554 S
C38 C105 1.417 . S
C15 C155 1.721 . S
C109 C48 2.312 1_545 S
C59 C131 1.880 . S
C76 C151 1.715 . S
C87 C174 1.509 . S
C54 C129 1.361 . S
C107 C60 2.060 . S
C177 C71 1.486 . S
C154 C82 1.502 . S
C49 C175 2.220 . S
C128 C70 1.523 . S
C104 C81 1.900 . S
C65 C152 1.797 . S
