# Generated by pormake.
# Topology pyr, (3,6)-cn, num edge types: 1
# Building blocks:
#     Node 0, Type 0, BuildingBlock: ESEHIV_clean_linker_0, # of connection points: 3
#     Node 1, Type 0, BuildingBlock: ESEHIV_clean_linker_0, # of connection points: 3
#     Node 2, Type 0, BuildingBlock: ESEHIV_clean_linker_0, # of connection points: 3
#     Node 3, Type 0, BuildingBlock: ESEHIV_clean_linker_0, # of connection points: 3
#     Node 4, Type 0, BuildingBlock: ESEHIV_clean_linker_0, # of connection points: 3
#     Node 5, Type 0, BuildingBlock: ESEHIV_clean_linker_0, # of connection points: 3
#     Node 6, Type 0, BuildingBlock: ESEHIV_clean_linker_0, # of connection points: 3
#     Node 7, Type 0, BuildingBlock: ESEHIV_clean_linker_0, # of connection points: 3
#     Node 8, Type 1, BuildingBlock: LEVNOQ01_clean_sbu_1, # of connection points: 6
#     Node 9, Type 1, BuildingBlock: LEVNOQ01_clean_sbu_1, # of connection points: 6
#     Node 10, Type 1, BuildingBlock: LEVNOQ01_clean_sbu_1, # of connection points: 6
#     Node 11, Type 1, BuildingBlock: LEVNOQ01_clean_sbu_1, # of connection points: 6
#     Edge 12, Type (0, 1), None
#     Edge 13, Type (0, 1), None
#     Edge 14, Type (0, 1), None
#     Edge 15, Type (0, 1), None
#     Edge 16, Type (0, 1), None
#     Edge 17, Type (0, 1), None
#     Edge 18, Type (0, 1), None
#     Edge 19, Type (0, 1), None
#     Edge 20, Type (0, 1), None
#     Edge 21, Type (0, 1), None
#     Edge 22, Type (0, 1), None
#     Edge 23, Type (0, 1), None
#     Edge 24, Type (0, 1), None
#     Edge 25, Type (0, 1), None
#     Edge 26, Type (0, 1), None
#     Edge 27, Type (0, 1), None
#     Edge 28, Type (0, 1), None
#     Edge 29, Type (0, 1), None
#     Edge 30, Type (0, 1), None
#     Edge 31, Type (0, 1), None
#     Edge 32, Type (0, 1), None
#     Edge 33, Type (0, 1), None
#     Edge 34, Type (0, 1), None
#     Edge 35, Type (0, 1), None
# Relax obj value: 0.035
# Max RMSD: 0.108
# Mean RMSD: 0.046
data_MOF--net-pry--node1-LEVNOQ01_clean_sbu_1--node2-ESEHIV_clean_linker_0--edge1-none
_symmetry_space_group_name_H-M    P1
_symmetry_Int_Tables_number       1
_symmetry_cell_setting            triclinic
loop_
_symmetry_equiv_pos_as_xyz
'x, y, z'
_cell_length_a     15.011843
_cell_length_b     14.235275
_cell_length_c     13.660511
_cell_angle_alpha  91.911832
_cell_angle_beta   92.025266
_cell_angle_gamma 92.509679
loop_
_atom_site_label
_atom_site_type_symbol
_atom_site_fract_x
_atom_site_fract_y
_atom_site_fract_z
_atom_type_partial_charge
H0 H 0.96296 0.13077 0.17095 0.0
H1 H 0.19628 0.96957 0.15338 0.0
H2 H 0.16527 0.20857 0.97284 0.0
C3 C 0.02248 0.11352 0.1323 0.0
C4 C 0.05742 0.17714 0.06621 0.0
C5 C 0.07368 0.04135 0.16628 0.0
C6 C 0.15426 0.02201 0.1225 0.0
C7 C 0.187 0.08114 0.0503 0.0
C8 C 0.1353 0.15578 0.01859 0.0
H9 H 0.31298 0.04321 0.68239 0.0
H10 H 0.54161 0.88344 0.64817 0.0
H11 H 0.29125 0.78354 0.51323 0.0
C12 C 0.34525 -0.01292 0.64348 0.0
C13 C 0.29366 0.92276 0.58235 0.0
C14 C 0.4292 0.96385 0.67777 0.0
C15 C 0.47481 0.89861 0.62172 0.0
C16 C 0.42477 0.82594 0.57001 0.0
C17 C 0.33343 0.84061 0.54624 0.0
H18 H 0.70725 0.22653 0.98478 0.0
H19 H 0.7275 0.49928 0.86109 0.0
H20 H 0.50081 0.31587 0.78808 0.0
C21 C 0.68304 0.27588 0.93227 0.0
C22 C 0.59736 0.26283 0.88907 0.0
C23 C 0.72959 0.36178 0.92322 0.0
C24 C 0.69421 0.43053 0.86398 0.0
C25 C 0.61353 0.41236 0.81175 0.0
C26 C 0.56873 0.32486 0.81822 0.0
H27 H 0.82293 0.69082 0.55655 0.0
H28 H -0.00421 0.64975 0.31885 0.0
H29 H 0.79268 0.44007 0.37465 0.0
C30 C 0.85155 0.64202 0.50473 0.0
C31 C 0.80166 0.56148 0.4742 0.0
C32 C 0.91692 0.6759 0.44385 0.0
C33 C 0.94636 0.62018 0.36663 0.0
C34 C 0.90083 0.53541 0.34006 0.0
C35 C 0.83258 0.50244 0.39903 0.0
H36 H 0.79092 0.0157 0.83769 0.0
H37 H 0.9814 0.79897 0.81679 0.0
H38 H 0.7707 0.7758 0.01998 0.0
C39 C 0.81936 0.95284 0.86584 0.0
C40 C 0.7739 0.90177 0.93696 0.0
C41 C 0.89537 0.91679 0.82248 0.0
C42 C 0.92582 0.82978 0.85272 0.0
C43 C 0.88256 0.78071 0.9268 0.0
C44 C 0.80831 0.81801 0.96955 0.0
H45 H 0.47081 0.18121 0.41749 0.0
H46 H 0.65569 -0.01357 0.31036 0.0
H47 H 0.74123 0.19558 0.53123 0.0
C48 C 0.53427 0.14807 0.42683 0.0
C49 C 0.60198 0.19603 0.484 0.0
C50 C 0.55683 0.08088 0.35565 0.0
C51 C 0.63926 0.03964 0.36467 0.0
C52 C 0.70556 0.07711 0.43237 0.0
C53 C 0.68708 0.15711 0.4908 0.0
H54 H 0.26564 0.6868 0.03365 0.0
H55 H 0.30017 0.47454 0.24808 0.0
H56 H 0.51025 0.6787 0.20439 0.0
C57 C 0.30347 0.6588 0.09433 0.0
C58 C 0.38888 0.69749 0.11999 0.0
C59 C 0.27173 0.57745 0.1391 0.0
C60 C 0.3226 0.53884 0.21417 0.0
C61 C 0.40787 0.57456 0.23699 0.0
C62 C 0.44076 0.6556 0.19214 0.0
H63 H 0.97455 0.31999 0.64116 0.0
H64 H 0.23922 0.30956 0.53507 0.0
H65 H 0.16115 0.55114 0.70298 0.0
C66 C 0.03732 0.35642 0.6256 0.0
C67 C 0.06026 0.4426 0.67418 0.0
C68 C 0.1025 0.30679 0.57811 0.0
C69 C 0.18665 0.35029 0.56536 0.0
C70 C 0.20764 0.43925 0.60908 0.0
C71 C 0.1437 0.48542 0.66287 0.0
O72 O 0.96498 0.05344 0.75811 0.0
Mg73 Mg 0.06109 0.05694 0.64907 0.0
O74 O 0.95878 0.92784 0.66183 0.0
Mg75 Mg 0.0009 -0.00902 0.50169 0.0
O76 O 0.0409 0.15124 0.53864 0.0
O77 O 0.13583 0.17643 0.66823 0.0
O78 O 0.03713 0.03983 0.33604 0.0
O79 O 0.85152 0.04127 0.49904 0.0
Mg80 Mg 0.92646 0.9167 0.3566 0.0
O81 O 0.96576 0.83472 0.46869 0.0
O82 O 0.01219 0.9119 0.24262 0.0
O83 O 0.81838 0.00404 0.34586 0.0
O84 O 0.86213 0.79376 0.34957 0.0
C85 C 0.19592 0.93429 0.58197 0.0
C86 C 0.94035 0.96838 0.74356 0.0
C87 C 0.0974 0.20569 0.59027 0.0
C88 C 0.04556 -0.00611 0.25408 0.0
C89 C 0.79684 0.04175 0.4257 0.0
C90 C 0.91321 0.77314 0.42253 0.0
O91 O 0.16284 0.95891 0.66193 0.0
O92 O 0.15059 0.94572 0.50356 0.0
O93 O 0.31519 0.17579 0.0635 0.0
Mg94 Mg 0.44694 0.20462 0.09462 0.0
O95 O 0.33573 0.02566 0.03191 0.0
Mg96 Mg 0.49168 0.00201 0.02091 0.0
O97 O 0.53789 0.15406 1.00122 0.0
O98 O 0.48528 0.29665 0.99394 0.0
O99 O 0.64479 0.97171 1.0052 0.0
O100 O 0.47469 0.00273 0.84579 0.0
Mg101 Mg 0.49103 0.83911 0.9238 0.0
O102 O 0.44461 0.84568 0.06048 0.0
O103 O 0.6275 0.85018 0.90096 0.0
O104 O 0.40544 0.86762 0.80947 0.0
O105 O 0.45816 0.71157 0.97004 0.0
C106 C 0.51575 0.08777 0.25655 0.0
C107 C 0.28407 0.09401 0.04279 0.0
C108 C 0.52915 0.23043 0.95419 0.0
C109 C 0.67764 0.91113 0.94723 0.0
C110 C 0.43334 0.94705 0.78331 0.0
C111 C 0.43357 0.75467 0.04828 0.0
O112 O 0.49338 0.16933 0.23304 0.0
O113 O 0.51824 0.02009 0.19236 0.0
O114 O 0.44793 0.71633 0.68861 0.0
Mg115 Mg 0.43842 0.58739 0.7536 0.0
O116 O 0.46862 0.66553 0.53551 0.0
Mg117 Mg 0.50545 0.50282 0.53831 0.0
O118 O 0.53092 0.50583 0.70059 0.0
O119 O 0.5254 0.53733 0.85957 0.0
O120 O 0.53783 0.34172 0.53289 0.0
O121 O 0.65844 0.53245 0.53445 0.0
Mg122 Mg 0.60425 0.46506 0.34376 0.0
O123 O 0.48336 0.50813 0.37266 0.0
O124 O 0.6329 0.33731 0.41196 0.0
O125 O 0.6731 0.5879 0.38834 0.0
O126 O 0.52584 0.47365 0.22063 0.0
C127 C 0.30015 0.47411 0.62212 0.0
C128 C 0.44992 0.73065 0.59769 0.0
C129 C 0.55928 0.4911 0.78835 0.0
C130 C 0.59616 0.29908 0.4838 0.0
C131 C 0.70613 0.57166 0.47151 0.0
C132 C 0.47059 0.51135 0.27886 0.0
O133 O 0.32202 0.51316 0.705 0.0
O134 O 0.35505 0.46475 0.55328 0.0
O135 O 0.05579 0.29603 0.18311 0.0
Mg136 Mg 0.06413 0.42819 0.23974 0.0
O137 O 0.03027 0.33907 0.02979 0.0
Mg138 Mg -0.00519 0.50226 0.01889 0.0
O139 O 0.97422 0.52423 0.18899 0.0
O140 O 0.93047 0.39573 0.26266 0.0
O141 O 0.96379 0.65869 0.99981 0.0
O142 O 0.83903 0.45409 0.01358 0.0
Mg143 Mg 0.91552 0.48479 0.87819 0.0
O144 O 0.03886 0.48704 0.84265 0.0
O145 O 0.85608 0.61841 0.89296 0.0
O146 O 0.87839 0.34465 0.91616 0.0
O147 O 0.91983 0.4707 0.73471 0.0
C148 C 0.18882 0.52717 0.10592 0.0
C149 C 0.04427 0.27593 0.09279 0.0
C150 C 0.92254 0.48308 0.24996 0.0
C151 C 0.90076 0.68174 0.94255 0.0
C152 C 0.81877 0.37753 0.96634 0.0
C153 C 0.0046 0.47369 0.75312 0.0
O154 O 0.16955 0.44983 0.1438 0.0
O155 O 0.13468 0.56235 0.04633 0.0
loop_
_geom_bond_atom_site_label_1
_geom_bond_atom_site_label_2
_geom_bond_distance
_geom_bond_site_symmetry_2
_ccdc_geom_bond_type
H0 C3 0.931 . S
H1 C6 0.928 . S
H2 C8 0.930 1_556 S
C3 H0 0.931 . S
C3 C4 1.413 . S
C3 C5 1.360 . S
C4 C3 1.413 . S
C4 C8 1.429 . S
C5 C3 1.360 . S
C5 C6 1.372 . S
C6 H1 0.928 . S
C6 C5 1.372 . S
C6 C7 1.404 . S
C7 C6 1.404 . S
C7 C8 1.391 . S
C8 H2 0.930 1_554 S
C8 C4 1.429 . S
C8 C7 1.391 . S
H9 C12 0.931 1_545 S
H10 C15 0.928 . S
H11 C17 0.930 . S
C12 H9 0.931 1_565 S
C12 C13 1.413 . S
C12 C14 1.360 . S
C13 C12 1.413 . S
C13 C17 1.429 . S
C14 C12 1.360 . S
C14 C15 1.372 . S
C15 H10 0.928 . S
C15 C14 1.372 . S
C15 C16 1.404 . S
C16 C15 1.404 . S
C16 C17 1.391 . S
C17 H11 0.930 . S
C17 C13 1.429 . S
C17 C16 1.391 . S
H18 C21 0.931 . S
H19 C24 0.928 . S
H20 C26 0.930 . S
C21 H18 0.931 . S
C21 C22 1.413 . S
C21 C23 1.360 . S
C22 C21 1.413 . S
C22 C26 1.429 . S
C23 C21 1.360 . S
C23 C24 1.372 . S
C24 H19 0.928 . S
C24 C23 1.372 . S
C24 C25 1.404 . S
C25 C24 1.404 . S
C25 C26 1.391 . S
C26 H20 0.930 . S
C26 C22 1.429 . S
C26 C25 1.391 . S
H27 C30 0.931 . S
H28 C33 0.928 1_455 S
H29 C35 0.930 . S
C30 H27 0.931 . S
C30 C31 1.413 . S
C30 C32 1.360 . S
C31 C30 1.413 . S
C31 C35 1.429 . S
C32 C30 1.360 . S
C32 C33 1.372 . S
C33 H28 0.928 1_655 S
C33 C32 1.372 . S
C33 C34 1.404 . S
C34 C33 1.404 . S
C34 C35 1.391 . S
C35 H29 0.930 . S
C35 C31 1.429 . S
C35 C34 1.391 . S
H36 C39 0.931 1_545 S
H37 C42 0.928 1_455 S
H38 C44 0.930 1_554 S
C39 H36 0.931 1_565 S
C39 C40 1.413 . S
C39 C41 1.360 . S
C40 C39 1.413 . S
C40 C44 1.429 . S
C41 C39 1.360 . S
C41 C42 1.372 . S
C42 H37 0.928 1_655 S
C42 C41 1.372 . S
C42 C43 1.404 . S
C43 C42 1.404 . S
C43 C44 1.391 . S
C44 H38 0.930 1_556 S
C44 C40 1.429 . S
C44 C43 1.391 . S
H45 C48 0.931 . S
H46 C51 0.928 . S
H47 C53 0.930 . S
C48 H45 0.931 . S
C48 C49 1.413 . S
C48 C50 1.360 . S
C49 C48 1.413 . S
C49 C53 1.429 . S
C50 C48 1.360 . S
C50 C51 1.372 . S
C51 H46 0.928 . S
C51 C50 1.372 . S
C51 C52 1.404 . S
C52 C51 1.404 . S
C52 C53 1.391 . S
C53 H47 0.930 . S
C53 C49 1.429 . S
C53 C52 1.391 . S
H54 C57 0.931 . S
H55 C60 0.928 . S
H56 C62 0.930 . S
C57 H54 0.931 . S
C57 C58 1.413 . S
C57 C59 1.360 . S
C58 C57 1.413 . S
C58 C62 1.429 . S
C59 C57 1.360 . S
C59 C60 1.372 . S
C60 H55 0.928 . S
C60 C59 1.372 . S
C60 C61 1.404 . S
C61 C60 1.404 . S
C61 C62 1.391 . S
C62 H56 0.930 . S
C62 C58 1.429 . S
C62 C61 1.391 . S
H63 C66 0.931 1_655 S
H64 C69 0.928 . S
H65 C71 0.930 . S
C66 H63 0.931 1_455 S
C66 C67 1.413 . S
C66 C68 1.360 . S
C67 C66 1.413 . S
C67 C71 1.429 . S
C68 C66 1.360 . S
C68 C69 1.372 . S
C69 H64 0.928 . S
C69 C68 1.372 . S
C69 C70 1.404 . S
C70 C69 1.404 . S
C70 C71 1.391 . S
C71 H65 0.930 . S
C71 C67 1.429 . S
C71 C70 1.391 . S
O72 Mg73 1.990 . S
O72 C86 1.253 1_445 S
Mg73 O72 1.990 . S
Mg73 O76 2.180 . S
Mg73 O77 2.117 . S
Mg73 O91 2.030 1_545 S
O74 Mg75 2.072 1_665 S
O74 C86 1.260 . S
Mg75 O74 2.072 1_445 S
Mg75 O76 2.099 . S
Mg75 O78 2.079 . S
Mg75 O79 2.072 1_455 S
Mg75 O81 2.099 1_445 S
Mg75 O92 2.079 1_545 S
O76 Mg73 2.180 . S
O76 Mg75 2.099 . S
O76 C87 1.279 . S
O77 Mg73 2.117 . S
O77 C87 1.250 . S
O78 Mg75 2.079 . S
O78 C88 1.264 . S
O79 Mg75 2.072 1_655 S
O79 C89 1.260 . S
Mg80 O81 2.180 . S
Mg80 O82 2.030 1_565 S
Mg80 O83 1.990 1_565 S
Mg80 O84 2.117 . S
O81 Mg75 2.099 1_665 S
O81 Mg80 2.180 . S
O81 C90 1.279 . S
O82 Mg80 2.030 1_545 S
O82 C88 1.248 1_655 S
O83 Mg80 1.990 1_545 S
O83 C89 1.253 . S
O84 Mg80 2.117 . S
O84 C90 1.250 . S
C85 O91 1.248 . S
C85 O92 1.264 . S
C86 O72 1.253 1_665 S
C86 O74 1.260 . S
C87 O76 1.279 . S
C87 O77 1.250 . S
C88 O78 1.264 . S
C88 O82 1.248 1_455 S
C89 O79 1.260 . S
C89 O83 1.253 . S
C90 O81 1.279 . S
C90 O84 1.250 . S
O91 Mg73 2.030 1_565 S
O91 C85 1.248 . S
O92 Mg75 2.079 1_565 S
O92 C85 1.264 . S
O93 Mg94 1.990 . S
O93 C107 1.253 . S
Mg94 O93 1.990 . S
Mg94 O97 2.180 1_554 S
Mg94 O98 2.117 1_554 S
Mg94 O112 2.030 . S
O95 Mg96 2.072 . S
O95 C107 1.260 . S
Mg96 O95 2.072 . S
Mg96 O97 2.099 1_554 S
Mg96 O99 2.079 1_544 S
Mg96 O100 2.072 1_544 S
Mg96 O102 2.099 1_545 S
Mg96 O113 2.079 . S
O97 Mg94 2.180 1_556 S
O97 Mg96 2.099 1_556 S
O97 C108 1.279 . S
O98 Mg94 2.117 1_556 S
O98 C108 1.250 . S
O99 Mg96 2.079 1_566 S
O99 C109 1.264 . S
O100 Mg96 2.072 1_566 S
O100 C110 1.260 . S
Mg101 O102 2.180 1_556 S
Mg101 O103 2.030 . S
Mg101 O104 1.990 . S
Mg101 O105 2.117 1_556 S
O102 Mg96 2.099 1_565 S
O102 Mg101 2.180 1_554 S
O102 C111 1.279 . S
O103 Mg101 2.030 . S
O103 C109 1.248 . S
O104 Mg101 1.990 . S
O104 C110 1.253 . S
O105 Mg101 2.117 1_554 S
O105 C111 1.250 . S
C106 O112 1.248 . S
C106 O113 1.264 . S
C107 O93 1.253 . S
C107 O95 1.260 . S
C108 O97 1.279 . S
C108 O98 1.250 . S
C109 O99 1.264 . S
C109 O103 1.248 . S
C110 O100 1.260 . S
C110 O104 1.253 . S
C111 O102 1.279 . S
C111 O105 1.250 . S
O112 Mg94 2.030 . S
O112 C106 1.248 . S
O113 Mg96 2.079 . S
O113 C106 1.264 . S
O114 Mg115 1.990 . S
O114 C128 1.253 . S
Mg115 O114 1.990 . S
Mg115 O118 2.180 . S
Mg115 O119 2.117 . S
Mg115 O133 2.030 . S
O116 Mg117 2.072 . S
O116 C128 1.260 . S
Mg117 O116 2.072 . S
Mg117 O118 2.099 . S
Mg117 O120 2.079 . S
Mg117 O121 2.072 . S
Mg117 O123 2.099 . S
Mg117 O134 2.079 . S
O118 Mg115 2.180 . S
O118 Mg117 2.099 . S
O118 C129 1.279 . S
O119 Mg115 2.117 . S
O119 C129 1.250 . S
O120 Mg117 2.079 . S
O120 C130 1.264 . S
O121 Mg117 2.072 . S
O121 C131 1.260 . S
Mg122 O123 2.180 . S
Mg122 O124 2.030 . S
Mg122 O125 1.990 . S
Mg122 O126 2.117 . S
O123 Mg117 2.099 . S
O123 Mg122 2.180 . S
O123 C132 1.279 . S
O124 Mg122 2.030 . S
O124 C130 1.248 . S
O125 Mg122 1.990 . S
O125 C131 1.253 . S
O126 Mg122 2.117 . S
O126 C132 1.250 . S
C127 O133 1.248 . S
C127 O134 1.264 . S
C128 O114 1.253 . S
C128 O116 1.260 . S
C129 O118 1.279 . S
C129 O119 1.250 . S
C130 O120 1.264 . S
C130 O124 1.248 . S
C131 O121 1.260 . S
C131 O125 1.253 . S
C132 O123 1.279 . S
C132 O126 1.250 . S
O133 Mg115 2.030 . S
O133 C127 1.248 . S
O134 Mg117 2.079 . S
O134 C127 1.264 . S
O135 Mg136 1.990 . S
O135 C149 1.253 . S
Mg136 O135 1.990 . S
Mg136 O139 2.180 1_455 S
Mg136 O140 2.117 1_455 S
Mg136 O154 2.030 . S
O137 Mg138 2.072 . S
O137 C149 1.260 . S
Mg138 O137 2.072 . S
Mg138 O139 2.099 1_455 S
Mg138 O141 2.079 1_454 S
Mg138 O142 2.072 1_454 S
Mg138 O144 2.099 1_554 S
Mg138 O155 2.079 . S
O139 Mg136 2.180 1_655 S
O139 Mg138 2.099 1_655 S
O139 C150 1.279 . S
O140 Mg136 2.117 1_655 S
O140 C150 1.250 . S
O141 Mg138 2.079 1_656 S
O141 C151 1.264 . S
O142 Mg138 2.072 1_656 S
O142 C152 1.260 . S
Mg143 O144 2.180 1_655 S
Mg143 O145 2.030 . S
Mg143 O146 1.990 . S
Mg143 O147 2.117 1_655 S
O144 Mg138 2.099 1_556 S
O144 Mg143 2.180 1_455 S
O144 C153 1.279 . S
O145 Mg143 2.030 . S
O145 C151 1.248 . S
O146 Mg143 1.990 . S
O146 C152 1.253 . S
O147 Mg143 2.117 1_455 S
O147 C153 1.250 . S
C148 O154 1.248 . S
C148 O155 1.264 . S
C149 O135 1.253 . S
C149 O137 1.260 . S
C150 O139 1.279 . S
C150 O140 1.250 . S
C151 O141 1.264 . S
C151 O145 1.248 . S
C152 O142 1.260 . S
C152 O146 1.253 . S
C153 O144 1.279 . S
C153 O147 1.250 . S
O154 Mg136 2.030 . S
O154 C148 1.248 . S
O155 Mg138 2.079 . S
O155 C148 1.264 . S
C5 C88 1.496 . S
C14 C110 1.362 . S
C129 C25 1.245 . S
C34 C150 1.351 . S
C107 C7 1.694 . S
C85 C13 1.628 . S
C152 C23 1.314 . S
C131 C31 1.386 . S
C4 C149 1.578 . S
C108 C22 1.243 . S
C32 C90 1.462 . S
C16 C128 1.512 . S
C86 C41 1.453 . S
C50 C106 1.308 . S
C61 C132 1.225 . S
C67 C153 1.230 . S
C40 C109 1.596 . S
C89 C52 1.648 . S
C148 C59 1.253 . S
C127 C70 1.422 . S
C43 C151 1.425 . S
C111 C58 1.231 . S
C87 C68 1.368 . S
C49 C130 1.474 . S
