# Generated by pormake.
# Topology anh, (6,3)-cn, num edge types: 1
# Building blocks:
#     Node 0, Type 0, BuildingBlock: PAMTOO_clean_sbu_0, # of connection points: 6
#     Node 1, Type 0, BuildingBlock: PAMTOO_clean_sbu_0, # of connection points: 6
#     Node 2, Type 0, BuildingBlock: PAMTOO_clean_sbu_0, # of connection points: 6
#     Node 3, Type 1, BuildingBlock: ESEHIV_clean_linker_0, # of connection points: 3
#     Node 4, Type 1, BuildingBlock: ESEHIV_clean_linker_0, # of connection points: 3
#     Node 5, Type 1, BuildingBlock: ESEHIV_clean_linker_0, # of connection points: 3
#     Node 6, Type 1, BuildingBlock: ESEHIV_clean_linker_0, # of connection points: 3
#     Node 7, Type 1, BuildingBlock: ESEHIV_clean_linker_0, # of connection points: 3
#     Node 8, Type 1, BuildingBlock: ESEHIV_clean_linker_0, # of connection points: 3
#     Edge 9, Type (0, 1), BuildingBlock: EYOCIG_clean_linker_4, # of connection points: 2
#     Edge 10, Type (0, 1), BuildingBlock: EYOCIG_clean_linker_4, # of connection points: 2
#     Edge 11, Type (0, 1), BuildingBlock: EYOCIG_clean_linker_4, # of connection points: 2
#     Edge 12, Type (0, 1), BuildingBlock: EYOCIG_clean_linker_4, # of connection points: 2
#     Edge 13, Type (0, 1), BuildingBlock: EYOCIG_clean_linker_4, # of connection points: 2
#     Edge 14, Type (0, 1), BuildingBlock: EYOCIG_clean_linker_4, # of connection points: 2
#     Edge 15, Type (0, 1), BuildingBlock: EYOCIG_clean_linker_4, # of connection points: 2
#     Edge 16, Type (0, 1), BuildingBlock: EYOCIG_clean_linker_4, # of connection points: 2
#     Edge 17, Type (0, 1), BuildingBlock: EYOCIG_clean_linker_4, # of connection points: 2
#     Edge 18, Type (0, 1), BuildingBlock: EYOCIG_clean_linker_4, # of connection points: 2
#     Edge 19, Type (0, 1), BuildingBlock: EYOCIG_clean_linker_4, # of connection points: 2
#     Edge 20, Type (0, 1), BuildingBlock: EYOCIG_clean_linker_4, # of connection points: 2
#     Edge 21, Type (0, 1), BuildingBlock: EYOCIG_clean_linker_4, # of connection points: 2
#     Edge 22, Type (0, 1), BuildingBlock: EYOCIG_clean_linker_4, # of connection points: 2
#     Edge 23, Type (0, 1), BuildingBlock: EYOCIG_clean_linker_4, # of connection points: 2
#     Edge 24, Type (0, 1), BuildingBlock: EYOCIG_clean_linker_4, # of connection points: 2
#     Edge 25, Type (0, 1), BuildingBlock: EYOCIG_clean_linker_4, # of connection points: 2
#     Edge 26, Type (0, 1), BuildingBlock: EYOCIG_clean_linker_4, # of connection points: 2
# Relax obj value: 0.267
# Max RMSD: 0.231
# Mean RMSD: 0.176
data_MOF--net-anh--node1-PAMTOO_clean_sbu_0--node2-ESEHIV_clean_linker_0--edge1-EYOCIG_clean_linker_4
_symmetry_space_group_name_H-M    P1
_symmetry_Int_Tables_number       1
_symmetry_cell_setting            triclinic
loop_
_symmetry_equiv_pos_as_xyz
'x, y, z'
_cell_length_a     22.512958
_cell_length_b     21.234874
_cell_length_c     42.004903
_cell_angle_alpha  91.909423
_cell_angle_beta   95.663111
_cell_angle_gamma 98.822779
loop_
_atom_site_label
_atom_site_type_symbol
_atom_site_fract_x
_atom_site_fract_y
_atom_site_fract_z
_atom_type_partial_charge
Dy0 Dy 0.12072 0.6319 0.14004 0.0
Dy1 Dy 1.07527 0.46518 0.12973 0.0
C2 C 0.09444 0.54032 0.08018 0.0
O3 O 1.01299 0.6203 0.13316 0.0
O4 O 0.98467 0.50923 0.12661 0.0
O5 O 0.15227 0.70131 0.10652 0.0
O6 O 0.13986 0.73183 0.15525 0.0
O7 O 1.08339 0.49741 0.18243 0.0
O8 O 0.12335 0.60593 0.19068 0.0
O9 O 0.18216 0.48322 0.12658 0.0
O10 O 0.21094 0.59326 0.13548 0.0
O11 O 1.06144 0.37529 0.15307 0.0
O12 O 1.03081 0.37969 0.10283 0.0
C13 C 0.96921 0.56795 0.12803 0.0
O14 O 1.0779 0.56049 0.10621 0.0
O15 O 1.08704 0.47959 0.07797 0.0
C16 C 0.22687 0.78378 0.13269 0.0
C17 C 0.34495 0.85295 0.14112 0.0
C18 C 0.32328 0.82058 0.11169 0.0
C19 C 0.26438 0.78598 0.10751 0.0
C20 C 0.24992 0.81652 0.16201 0.0
C21 C 0.30827 0.85054 0.16611 0.0
C22 C 0.16426 0.74736 0.12886 0.0
C23 C 0.10285 0.54968 0.20107 0.0
C24 C 0.2255 0.53584 0.12871 0.0
C25 C 0.96512 0.31637 0.13297 0.0
C26 C 0.85129 0.25137 0.1433 0.0
C27 C 0.88234 0.29753 0.16597 0.0
C28 C 0.93885 0.3301 0.16086 0.0
C29 C 0.93103 0.27431 0.10891 0.0
C30 C 0.87411 0.24169 0.11405 0.0
C31 C 1.02701 0.34671 0.12823 0.0
H32 H 0.35159 0.82181 0.09222 0.0
H33 H 0.24828 0.76102 0.08465 0.0
H34 H 0.22293 0.81592 0.18197 0.0
H35 H 0.32489 0.87518 0.18905 0.0
H36 H 0.86437 0.30585 0.1885 0.0
H37 H 0.96272 0.36423 0.17926 0.0
H38 H 0.94942 0.26502 0.08665 0.0
H39 H 0.84993 0.20657 0.09616 0.0
Dy40 Dy 0.56569 1.00413 0.502 0.0
Dy41 Dy 0.71199 0.05368 0.51167 0.0
C42 C 0.63772 0.02719 0.56989 0.0
O43 O 0.5687 0.10989 0.49592 0.0
O44 O 0.66813 0.14159 0.51612 0.0
O45 O 0.49317 0.96659 0.52916 0.0
O46 O 0.47602 0.97346 0.47784 0.0
O47 O 0.68709 0.05367 0.45863 0.0
O48 O 0.58544 1.01143 0.45139 0.0
O49 O 0.71076 0.94675 0.51002 0.0
O50 O 0.60743 0.91413 0.50312 0.0
O51 O 0.80089 0.07421 0.49567 0.0
O52 O 0.78536 0.10782 0.54301 0.0
C53 C 0.61483 0.15492 0.5055 0.0
O54 O 0.59335 0.04439 0.55169 0.0
O55 O 0.68613 0.01472 0.55787 0.0
C56 C 0.42609 0.88198 0.50107 0.0
C57 C 0.35781 0.75975 0.4966 0.0
C58 C 0.38924 0.78326 0.52599 0.0
C59 C 0.42356 0.84439 0.52822 0.0
C60 C 0.39722 0.85574 0.47147 0.0
C61 C 0.3635 0.79508 0.4693 0.0
C62 C 0.45588 0.94922 0.50362 0.0
C63 C 0.63633 0.03444 0.44033 0.0
C64 C 0.66298 0.90139 0.50678 0.0
C65 C 0.84886 0.17825 0.51443 0.0
C66 C 0.90924 0.29818 0.50078 0.0
C67 C 0.86406 0.26502 0.47853 0.0
C68 C 0.83379 0.20553 0.48528 0.0
C69 C 0.89048 0.21427 0.53785 0.0
C70 C 0.9208 0.27423 0.53106 0.0
C71 C 0.82165 0.11259 0.52062 0.0
H72 H 0.38533 0.75587 0.54721 0.0
H73 H 0.44621 0.86295 0.55132 0.0
H74 H 0.39881 0.88287 0.45011 0.0
H75 H 0.33954 0.7768 0.44638 0.0
H76 H 0.85436 0.28368 0.45518 0.0
H77 H 0.80033 0.17998 0.46719 0.0
H78 H 0.90114 0.19492 0.56088 0.0
H79 H 0.95529 0.29988 0.54863 0.0
Dy80 Dy 0.65139 0.53633 0.81156 0.0
Dy81 Dy 0.50884 0.50166 0.80066 0.0
C82 C 0.5835 0.51758 0.73923 0.0
O83 O 0.62594 0.63398 0.81356 0.0
O84 O 0.52516 0.60823 0.79563 0.0
O85 O 0.73178 0.56488 0.78845 0.0
O86 O 0.73835 0.5445 0.83885 0.0
O87 O 0.52944 0.50298 0.85495 0.0
O88 O 0.62978 0.54656 0.86245 0.0
O89 O 0.53244 0.40391 0.79921 0.0
O90 O 0.6353 0.42846 0.81074 0.0
O91 O 0.42322 0.49352 0.81993 0.0
O92 O 0.42695 0.47058 0.76952 0.0
C93 C 0.57373 0.6506 0.80378 0.0
O94 O 0.63251 0.53688 0.75839 0.0
O95 O 0.53157 0.49865 0.74998 0.0
C96 C 0.80182 0.49921 0.80667 0.0
C97 C 0.89215 0.42837 0.797 0.0
C98 C 0.85427 0.44145 0.77046 0.0
C99 C 0.81004 0.47934 0.77523 0.0
C100 C 0.82894 0.4703 0.83256 0.0
C101 C 0.8708 0.4304 0.82725 0.0
C102 C 0.76569 0.54923 0.8129 0.0
C103 C 0.57859 0.5262 0.87405 0.0
C104 C 0.58563 0.38672 0.80445 0.0
C105 C 0.35658 0.53413 0.78239 0.0
C106 C 0.26548 0.6057 0.77284 0.0
C107 C 0.31421 0.62782 0.79603 0.0
C108 C 0.35752 0.58853 0.80256 0.0
C109 C 0.31969 0.5269 0.75311 0.0
C110 C 0.27575 0.56611 0.74748 0.0
C111 C 0.39404 0.48606 0.79134 0.0
H112 H 0.86696 0.43503 0.74648 0.0
H113 H 0.78632 0.49705 0.75455 0.0
H114 H 0.82141 0.48213 0.85698 0.0
H115 H 0.89738 0.4165 0.84806 0.0
H116 H 0.30962 0.66326 0.81448 0.0
H117 H 0.38815 0.59807 0.82436 0.0
H118 H 0.3216 0.48825 0.73595 0.0
H119 H 0.24164 0.55399 0.72727 0.0
H120 H 0.53995 0.9893 0.2739 0.0
H121 H 0.70676 0.12255 0.27947 0.0
H122 H 0.60905 0.05986 0.18798 0.0
C123 C 0.57396 0.01953 0.26236 0.0
C124 C 0.56937 0.02097 0.22884 0.0
C125 C 0.62354 0.05645 0.28084 0.0
C126 C 0.66795 0.09456 0.26553 0.0
C127 C 0.66208 0.09542 0.23198 0.0
C128 C 0.61287 0.05927 0.21398 0.0
H129 H 0.63871 0.63084 0.58177 0.0
H130 H 0.61919 0.42649 0.57747 0.0
H131 H 0.64724 0.52926 0.49178 0.0
C132 C 0.63776 0.58657 0.56793 0.0
C133 C 0.64531 0.58815 0.53509 0.0
C134 C 0.62813 0.52853 0.58306 0.0
C135 C 0.62663 0.47112 0.56549 0.0
C136 C 0.6328 0.47014 0.5326 0.0
C137 C 0.64249 0.5292 0.5172 0.0
H138 H 1.01637 0.61066 0.92685 0.0
H139 H 0.20481 0.59558 0.93762 0.0
H140 H 0.11949 0.63726 0.84679 0.0
C141 C 1.05958 0.6184 0.91706 0.0
C142 C 1.06231 0.62199 0.88402 0.0
C143 C 0.11364 0.61717 0.93677 0.0
C144 C 0.16643 0.60909 0.92325 0.0
C145 C 0.16653 0.61324 0.89041 0.0
C146 C 0.11823 0.63343 0.87251 0.0
H147 H 1.01848 0.46239 0.36215 0.0
H148 H 0.1759 0.60888 0.36775 0.0
H149 H 0.10882 0.53642 0.45374 0.0
C150 C 1.05381 0.4953 0.37611 0.0
C151 C 1.05873 0.49598 0.40978 0.0
C152 C 0.09584 0.53675 0.3607 0.0
C153 C 0.14249 0.57777 0.37926 0.0
C154 C 0.1469 0.57667 0.41276 0.0
C155 C 0.10465 0.53698 0.42772 0.0
H156 H 0.58908 0.11613 0.72712 0.0
H157 H 0.58229 0.91311 0.7266 0.0
H158 H 0.56857 0.01805 0.81472 0.0
C159 C 0.58417 0.07229 0.73988 0.0
C160 C 0.57802 0.07446 0.77274 0.0
C161 C 0.58621 0.01447 0.72349 0.0
C162 C 0.5803 0.95769 0.73958 0.0
C163 C 0.57372 0.95807 0.77241 0.0
C164 C 0.57265 0.01692 0.78922 0.0
H165 H 0.48608 0.53595 0.0406 0.0
H166 H 0.67924 0.55282 0.04245 0.0
H167 H 0.59795 0.55548 0.1319 0.0
C168 C 0.52977 0.54129 0.05466 0.0
C169 C 0.53195 0.54529 0.08863 0.0
C170 C 0.58223 0.544 0.03816 0.0
C171 C 0.64004 0.55089 0.0557 0.0
C172 C 0.64912 0.55514 0.08955 0.0
C173 C 0.59346 0.55232 0.10599 0.0
C174 C 0.34831 0.53446 0.1171 0.0
C175 C 0.29258 0.53264 0.12214 0.0
C176 C 0.41481 0.53831 0.11009 0.0
C177 C 0.46952 0.54188 0.10293 0.0
C178 C 0.97201 0.38958 0.47291 0.0
C179 C 0.94819 0.35086 0.48974 0.0
C180 C 0.99624 0.42461 0.44812 0.0
C181 C 1.02024 0.45354 0.42751 0.0
C182 C 0.56874 0.77501 0.79895 0.0
C183 C 0.5702 0.71816 0.80101 0.0
C184 C 0.56883 0.84165 0.79463 0.0
C185 C 0.57047 0.89707 0.78766 0.0
C186 C 0.84296 0.57109 0.11763 0.0
C187 C 0.90037 0.57284 0.12249 0.0
C188 C 0.77398 0.56658 0.11122 0.0
C189 C 0.71655 0.56169 0.1044 0.0
C190 C 0.27572 0.66482 0.47893 0.0
C191 C 0.31457 0.70284 0.49336 0.0
C192 C 0.23293 0.63513 0.45449 0.0
C193 C 0.19646 0.61145 0.43304 0.0
C194 C 0.58718 0.26126 0.80053 0.0
C195 C 0.58895 0.31885 0.80261 0.0
C196 C 0.58303 0.19361 0.79579 0.0
C197 C 0.58003 0.1372 0.7884 0.0
C198 C 0.66804 0.77595 0.51074 0.0
C199 C 0.66979 0.83382 0.50914 0.0
C200 C 0.66175 0.70787 0.5148 0.0
C201 C 0.6547 0.65135 0.52115 0.0
C202 C 0.98628 0.50363 0.8131 0.0
C203 C 0.9524 0.4616 0.79808 0.0
C204 C 1.00128 0.55085 0.83798 0.0
C205 C 1.01794 0.58411 0.86185 0.0
C206 C 0.44758 0.92001 0.16262 0.0
C207 C 0.40468 0.88829 0.14751 0.0
C208 C 0.48844 0.9536 0.18701 0.0
C209 C 0.52264 0.98183 0.20835 0.0
C210 C 0.612 0.28077 0.50583 0.0
C211 C 0.60881 0.22264 0.50478 0.0
C212 C 0.61997 0.34947 0.50941 0.0
C213 C 0.62683 0.40683 0.51626 0.0
C214 C 0.19759 0.56163 0.81258 0.0
C215 C 0.21379 0.57994 0.78782 0.0
C216 C 0.20437 0.55802 0.84577 0.0
C217 C 0.20068 0.57713 0.87241 0.0
C218 C 0.76651 0.18142 0.16958 0.0
C219 C 0.8022 0.20836 0.15328 0.0
C220 C 0.7344 0.15487 0.1941 0.0
C221 C 0.70593 0.13089 0.21445 0.0
C222 C 0.11889 0.6039 0.03082 0.0
C223 C 0.10789 0.57976 0.055 0.0
C224 C 0.11888 0.61601 -0.00125 0.0
C225 C 0.11443 0.61674 0.97037 0.0
C226 C 0.63534 0.04501 0.37766 0.0
C227 C 0.63624 0.04037 0.40628 0.0
C228 C 0.63285 0.05032 0.34406 0.0
C229 C 0.62941 0.05375 0.3153 0.0
C230 C 0.596 0.52013 0.67698 0.0
C231 C 0.58784 0.51803 0.70506 0.0
C232 C 0.60773 0.52402 0.64437 0.0
C233 C 0.61712 0.52712 0.6165 0.0
C234 C 0.6224 0.01802 0.63099 0.0
C235 C 0.63191 0.02141 0.60335 0.0
C236 C 0.60887 0.01512 0.66299 0.0
C237 C 0.59852 0.01412 0.69056 0.0
C238 C 0.57585 0.53228 0.93848 0.0
C239 C 0.57646 0.52924 0.90916 0.0
C240 C 0.57606 0.53616 0.97316 0.0
C241 C 0.57744 0.53959 0.00259 0.0
C242 C 0.09662 0.54113 0.2637 0.0
C243 C 0.09942 0.54492 0.23514 0.0
C244 C 0.0937 0.53766 0.29728 0.0
C245 C 0.09319 0.53588 0.32606 0.0
loop_
_geom_bond_atom_site_label_1
_geom_bond_atom_site_label_2
_geom_bond_distance
_geom_bond_site_symmetry_2
_ccdc_geom_bond_type
Dy0 O3 2.307 1_455 S
Dy0 O5 2.395 . S
Dy0 O6 2.379 . S
Dy0 O8 2.339 . S
Dy0 O10 2.298 . S
Dy0 O14 2.275 . S
Dy0 C22 2.738 . S
Dy1 O4 2.298 . S
Dy1 O7 2.275 1_655 S
Dy1 O9 2.307 1_655 S
Dy1 O11 2.395 . S
Dy1 O12 2.379 . S
Dy1 O15 2.339 . S
Dy1 C31 2.738 . S
C2 O14 1.254 . S
C2 O15 1.257 1_455 S
O3 Dy0 2.307 1_655 S
O3 C13 1.266 . S
O4 Dy1 2.298 . S
O4 C13 1.236 . S
O5 Dy0 2.395 . S
O5 C22 1.255 . S
O6 Dy0 2.379 . S
O6 C22 1.249 . S
O7 Dy1 2.275 1_455 S
O7 C23 1.254 . S
O8 Dy0 2.339 . S
O8 C23 1.257 . S
O9 Dy1 2.307 1_455 S
O9 C24 1.266 . S
O10 Dy0 2.298 . S
O10 C24 1.236 . S
O11 Dy1 2.395 . S
O11 C31 1.255 . S
O12 Dy1 2.379 . S
O12 C31 1.249 . S
C13 O3 1.266 . S
C13 O4 1.236 . S
O14 Dy0 2.275 . S
O14 C2 1.254 . S
O15 Dy1 2.339 . S
O15 C2 1.257 1_655 S
C16 C19 1.344 . S
C16 C20 1.328 . S
C16 C22 1.516 . S
C17 C18 1.304 . S
C17 C21 1.323 . S
C18 C17 1.304 . S
C18 C19 1.371 . S
C18 H32 0.930 . S
C19 C16 1.344 . S
C19 C18 1.371 . S
C19 H33 0.931 . S
C20 C16 1.328 . S
C20 C21 1.433 . S
C20 H34 0.931 . S
C21 C17 1.323 . S
C21 C20 1.433 . S
C21 H35 0.933 . S
C22 Dy0 2.738 . S
C22 O5 1.255 . S
C22 O6 1.249 . S
C22 C16 1.516 . S
C23 O7 1.254 . S
C23 O8 1.257 . S
C24 O9 1.266 . S
C24 O10 1.236 . S
C25 C28 1.344 . S
C25 C29 1.328 . S
C25 C31 1.516 . S
C26 C27 1.304 . S
C26 C30 1.323 . S
C27 C26 1.304 . S
C27 C28 1.371 . S
C27 H36 0.930 . S
C28 C25 1.344 . S
C28 C27 1.371 . S
C28 H37 0.931 . S
C29 C25 1.328 . S
C29 C30 1.433 . S
C29 H38 0.931 . S
C30 C26 1.323 . S
C30 C29 1.433 . S
C30 H39 0.933 . S
C31 Dy1 2.738 . S
C31 O11 1.255 . S
C31 O12 1.249 . S
C31 C25 1.516 . S
H32 C18 0.930 . S
H33 C19 0.931 . S
H34 C20 0.931 . S
H35 C21 0.933 . S
H36 C27 0.930 . S
H37 C28 0.931 . S
H38 C29 0.931 . S
H39 C30 0.933 . S
Dy40 O43 2.307 1_565 S
Dy40 O45 2.395 . S
Dy40 O46 2.379 . S
Dy40 O48 2.339 . S
Dy40 O50 2.298 . S
Dy40 O54 2.275 1_565 S
Dy40 C62 2.738 . S
Dy41 O44 2.298 . S
Dy41 O47 2.275 . S
Dy41 O49 2.307 1_545 S
Dy41 O51 2.395 . S
Dy41 O52 2.379 . S
Dy41 O55 2.339 . S
Dy41 C71 2.738 . S
C42 O54 1.254 . S
C42 O55 1.257 . S
O43 Dy40 2.307 1_545 S
O43 C53 1.266 . S
O44 Dy41 2.298 . S
O44 C53 1.236 . S
O45 Dy40 2.395 . S
O45 C62 1.255 . S
O46 Dy40 2.379 . S
O46 C62 1.249 . S
O47 Dy41 2.275 . S
O47 C63 1.254 . S
O48 Dy40 2.339 . S
O48 C63 1.257 1_565 S
O49 Dy41 2.307 1_565 S
O49 C64 1.266 . S
O50 Dy40 2.298 . S
O50 C64 1.236 . S
O51 Dy41 2.395 . S
O51 C71 1.255 . S
O52 Dy41 2.379 . S
O52 C71 1.249 . S
C53 O43 1.266 . S
C53 O44 1.236 . S
O54 Dy40 2.275 1_545 S
O54 C42 1.254 . S
O55 Dy41 2.339 . S
O55 C42 1.257 . S
C56 C59 1.344 . S
C56 C60 1.328 . S
C56 C62 1.516 . S
C57 C58 1.304 . S
C57 C61 1.323 . S
C58 C57 1.304 . S
C58 C59 1.371 . S
C58 H72 0.930 . S
C59 C56 1.344 . S
C59 C58 1.371 . S
C59 H73 0.931 . S
C60 C56 1.328 . S
C60 C61 1.433 . S
C60 H74 0.931 . S
C61 C57 1.323 . S
C61 C60 1.433 . S
C61 H75 0.933 . S
C62 Dy40 2.738 . S
C62 O45 1.255 . S
C62 O46 1.249 . S
C62 C56 1.516 . S
C63 O47 1.254 . S
C63 O48 1.257 1_545 S
C64 O49 1.266 . S
C64 O50 1.236 . S
C65 C68 1.344 . S
C65 C69 1.328 . S
C65 C71 1.516 . S
C66 C67 1.304 . S
C66 C70 1.323 . S
C67 C66 1.304 . S
C67 C68 1.371 . S
C67 H76 0.930 . S
C68 C65 1.344 . S
C68 C67 1.371 . S
C68 H77 0.931 . S
C69 C65 1.328 . S
C69 C70 1.433 . S
C69 H78 0.931 . S
C70 C66 1.323 . S
C70 C69 1.433 . S
C70 H79 0.933 . S
C71 Dy41 2.738 . S
C71 O51 1.255 . S
C71 O52 1.249 . S
C71 C65 1.516 . S
H72 C58 0.930 . S
H73 C59 0.931 . S
H74 C60 0.931 . S
H75 C61 0.933 . S
H76 C67 0.930 . S
H77 C68 0.931 . S
H78 C69 0.931 . S
H79 C70 0.933 . S
Dy80 O83 2.307 . S
Dy80 O85 2.395 . S
Dy80 O86 2.379 . S
Dy80 O88 2.339 . S
Dy80 O90 2.298 . S
Dy80 O94 2.275 . S
Dy80 C102 2.738 . S
Dy81 O84 2.298 . S
Dy81 O87 2.275 . S
Dy81 O89 2.307 . S
Dy81 O91 2.395 . S
Dy81 O92 2.379 . S
Dy81 O95 2.339 . S
Dy81 C111 2.738 . S
C82 O94 1.254 . S
C82 O95 1.257 . S
O83 Dy80 2.307 . S
O83 C93 1.266 . S
O84 Dy81 2.298 . S
O84 C93 1.236 . S
O85 Dy80 2.395 . S
O85 C102 1.255 . S
O86 Dy80 2.379 . S
O86 C102 1.249 . S
O87 Dy81 2.275 . S
O87 C103 1.254 . S
O88 Dy80 2.339 . S
O88 C103 1.257 . S
O89 Dy81 2.307 . S
O89 C104 1.266 . S
O90 Dy80 2.298 . S
O90 C104 1.236 . S
O91 Dy81 2.395 . S
O91 C111 1.255 . S
O92 Dy81 2.379 . S
O92 C111 1.249 . S
C93 O83 1.266 . S
C93 O84 1.236 . S
O94 Dy80 2.275 . S
O94 C82 1.254 . S
O95 Dy81 2.339 . S
O95 C82 1.257 . S
C96 C99 1.344 . S
C96 C100 1.328 . S
C96 C102 1.516 . S
C97 C98 1.304 . S
C97 C101 1.323 . S
C98 C97 1.304 . S
C98 C99 1.371 . S
C98 H112 0.930 . S
C99 C96 1.344 . S
C99 C98 1.371 . S
C99 H113 0.931 . S
C100 C96 1.328 . S
C100 C101 1.433 . S
C100 H114 0.931 . S
C101 C97 1.323 . S
C101 C100 1.433 . S
C101 H115 0.933 . S
C102 Dy80 2.738 . S
C102 O85 1.255 . S
C102 O86 1.249 . S
C102 C96 1.516 . S
C103 O87 1.254 . S
C103 O88 1.257 . S
C104 O89 1.266 . S
C104 O90 1.236 . S
C105 C108 1.344 . S
C105 C109 1.328 . S
C105 C111 1.516 . S
C106 C107 1.304 . S
C106 C110 1.323 . S
C107 C106 1.304 . S
C107 C108 1.371 . S
C107 H116 0.930 . S
C108 C105 1.344 . S
C108 C107 1.371 . S
C108 H117 0.931 . S
C109 C105 1.328 . S
C109 C110 1.433 . S
C109 H118 0.931 . S
C110 C106 1.323 . S
C110 C109 1.433 . S
C110 H119 0.933 . S
C111 Dy81 2.738 . S
C111 O91 1.255 . S
C111 O92 1.249 . S
C111 C105 1.516 . S
H112 C98 0.930 . S
H113 C99 0.931 . S
H114 C100 0.931 . S
H115 C101 0.933 . S
H116 C107 0.930 . S
H117 C108 0.931 . S
H118 C109 0.931 . S
H119 C110 0.933 . S
H120 C123 0.931 1_565 S
H121 C126 0.928 . S
H122 C128 0.930 . S
C123 H120 0.931 1_545 S
C123 C124 1.413 . S
C123 C125 1.360 . S
C124 C123 1.413 . S
C124 C128 1.429 . S
C125 C123 1.360 . S
C125 C126 1.372 . S
C126 H121 0.928 . S
C126 C125 1.372 . S
C126 C127 1.404 . S
C127 C126 1.404 . S
C127 C128 1.391 . S
C128 H122 0.930 . S
C128 C124 1.429 . S
C128 C127 1.391 . S
H129 C132 0.931 . S
H130 C135 0.928 . S
H131 C137 0.930 . S
C132 H129 0.931 . S
C132 C133 1.413 . S
C132 C134 1.360 . S
C133 C132 1.413 . S
C133 C137 1.429 . S
C134 C132 1.360 . S
C134 C135 1.372 . S
C135 H130 0.928 . S
C135 C134 1.372 . S
C135 C136 1.404 . S
C136 C135 1.404 . S
C136 C137 1.391 . S
C137 H131 0.930 . S
C137 C133 1.429 . S
C137 C136 1.391 . S
H138 C141 0.931 . S
H139 C144 0.928 . S
H140 C146 0.930 . S
C141 H138 0.931 . S
C141 C142 1.413 . S
C141 C143 1.360 1_655 S
C142 C141 1.413 . S
C142 C146 1.429 1_655 S
C143 C141 1.360 1_455 S
C143 C144 1.372 . S
C144 H139 0.928 . S
C144 C143 1.372 . S
C144 C145 1.404 . S
C145 C144 1.404 . S
C145 C146 1.391 . S
C146 H140 0.930 . S
C146 C142 1.429 1_455 S
C146 C145 1.391 . S
H147 C150 0.931 . S
H148 C153 0.928 . S
H149 C155 0.930 . S
C150 H147 0.931 . S
C150 C151 1.413 . S
C150 C152 1.360 1_655 S
C151 C150 1.413 . S
C151 C155 1.429 1_655 S
C152 C150 1.360 1_455 S
C152 C153 1.372 . S
C153 H148 0.928 . S
C153 C152 1.372 . S
C153 C154 1.404 . S
C154 C153 1.404 . S
C154 C155 1.391 . S
C155 H149 0.930 . S
C155 C151 1.429 1_455 S
C155 C154 1.391 . S
H156 C159 0.931 . S
H157 C162 0.928 . S
H158 C164 0.930 . S
C159 H156 0.931 . S
C159 C160 1.413 . S
C159 C161 1.360 . S
C160 C159 1.413 . S
C160 C164 1.441 . S
C161 C159 1.360 . S
C161 C162 1.372 1_545 S
C162 H157 0.928 . S
C162 C161 1.372 1_565 S
C162 C163 1.404 . S
C163 C162 1.404 . S
C163 C164 1.379 1_565 S
C164 H158 0.930 . S
C164 C160 1.441 . S
C164 C163 1.379 1_545 S
H165 C168 0.931 . S
H166 C171 0.928 . S
H167 C173 0.930 . S
C168 H165 0.931 . S
C168 C169 1.413 . S
C168 C170 1.360 . S
C169 C168 1.413 . S
C169 C173 1.429 . S
C170 C168 1.360 . S
C170 C171 1.372 . S
C171 H166 0.928 . S
C171 C170 1.372 . S
C171 C172 1.404 . S
C172 C171 1.404 . S
C172 C173 1.391 . S
C173 H167 0.930 . S
C173 C169 1.429 . S
C173 C172 1.391 . S
C174 C175 1.170 . S
C174 C176 1.380 . S
C175 C174 1.170 . S
C176 C174 1.380 . S
C176 C177 1.170 . S
C177 C176 1.170 . S
C178 C179 1.170 . S
C178 C180 1.380 . S
C179 C178 1.170 . S
C180 C178 1.380 . S
C180 C181 1.170 . S
C181 C180 1.170 . S
C182 C183 1.170 . S
C182 C184 1.380 . S
C183 C182 1.170 . S
C184 C182 1.380 . S
C184 C185 1.170 . S
C185 C184 1.170 . S
C186 C187 1.170 . S
C186 C188 1.380 . S
C187 C186 1.170 . S
C188 C186 1.380 . S
C188 C189 1.170 . S
C189 C188 1.170 . S
C190 C191 1.170 . S
C190 C192 1.380 . S
C191 C190 1.170 . S
C192 C190 1.380 . S
C192 C193 1.170 . S
C193 C192 1.170 . S
C194 C195 1.170 . S
C194 C196 1.380 . S
C195 C194 1.170 . S
C196 C194 1.380 . S
C196 C197 1.170 . S
C197 C196 1.170 . S
C198 C199 1.170 . S
C198 C200 1.380 . S
C199 C198 1.170 . S
C200 C198 1.380 . S
C200 C201 1.170 . S
C201 C200 1.170 . S
C202 C203 1.170 . S
C202 C204 1.380 . S
C203 C202 1.170 . S
C204 C202 1.380 . S
C204 C205 1.170 . S
C205 C204 1.170 . S
C206 C207 1.170 . S
C206 C208 1.380 . S
C207 C206 1.170 . S
C208 C206 1.380 . S
C208 C209 1.170 . S
C209 C208 1.170 . S
C210 C211 1.170 . S
C210 C212 1.380 . S
C211 C210 1.170 . S
C212 C210 1.380 . S
C212 C213 1.170 . S
C213 C212 1.170 . S
C214 C215 1.170 . S
C214 C216 1.380 . S
C215 C214 1.170 . S
C216 C214 1.380 . S
C216 C217 1.170 . S
C217 C216 1.170 . S
C218 C219 1.170 . S
C218 C220 1.380 . S
C219 C218 1.170 . S
C220 C218 1.380 . S
C220 C221 1.170 . S
C221 C220 1.170 . S
C222 C223 1.170 . S
C222 C224 1.380 . S
C223 C222 1.170 . S
C224 C222 1.380 . S
C224 C225 1.170 1_554 S
C225 C224 1.170 1_556 S
C226 C227 1.170 . S
C226 C228 1.380 . S
C227 C226 1.170 . S
C228 C226 1.380 . S
C228 C229 1.170 . S
C229 C228 1.170 . S
C230 C231 1.170 . S
C230 C232 1.380 . S
C231 C230 1.170 . S
C232 C230 1.380 . S
C232 C233 1.170 . S
C233 C232 1.170 . S
C234 C235 1.170 1_545 S
C234 C236 1.381 . S
C235 C234 1.170 1_565 S
C236 C234 1.381 . S
C236 C237 1.170 . S
C237 C236 1.170 . S
C238 C239 1.170 . S
C238 C240 1.380 . S
C239 C238 1.170 . S
C240 C238 1.380 . S
C240 C241 1.170 1_556 S
C241 C240 1.170 1_554 S
C242 C243 1.170 . S
C242 C244 1.380 . S
C243 C242 1.170 . S
C244 C242 1.380 . S
C244 C245 1.170 . S
C245 C244 1.170 . S
C175 C24 2.963 . S
C177 C169 2.943 . S
C179 C66 1.430 . S
C181 C151 1.536 . S
C183 C93 1.789 . S
C185 C163 1.793 . S
C187 C13 2.998 . S
C189 C172 2.985 . S
C193 C154 1.512 . S
C191 C57 1.454 . S
C197 C160 1.836 . S
C195 C104 1.872 . S
C199 C64 1.845 . S
C201 C133 1.818 . S
C203 C97 0.999 . S
C205 C142 1.156 . S
C207 C17 1.540 . S
C209 C124 1.668 1_565 S
C213 C136 1.792 . S
C211 C53 1.810 . S
C217 C145 0.819 . S
C215 C106 0.734 . S
C219 C26 1.410 . S
C221 C127 1.566 . S
C225 C143 0.934 . S
C223 C2 0.921 . S
C227 C63 1.428 . S
C229 C125 1.471 . S
C231 C82 1.343 . S
C233 C134 1.347 . S
C237 C161 1.378 . S
C235 C42 1.370 1_565 S
C241 C170 1.818 . S
C239 C103 1.768 . S
C243 C23 1.426 . S
C245 C152 1.478 . S
