# Generated by pormake.
# Topology anh, (6,3)-cn, num edge types: 1
# Building blocks:
#     Node 0, Type 0, BuildingBlock: CUKXOW_clean_sbu_0, # of connection points: 6
#     Node 1, Type 0, BuildingBlock: CUKXOW_clean_sbu_0, # of connection points: 6
#     Node 2, Type 0, BuildingBlock: CUKXOW_clean_sbu_0, # of connection points: 6
#     Node 3, Type 1, BuildingBlock: PAMTOO_clean_linker_0, # of connection points: 3
#     Node 4, Type 1, BuildingBlock: PAMTOO_clean_linker_0, # of connection points: 3
#     Node 5, Type 1, BuildingBlock: PAMTOO_clean_linker_0, # of connection points: 3
#     Node 6, Type 1, BuildingBlock: PAMTOO_clean_linker_0, # of connection points: 3
#     Node 7, Type 1, BuildingBlock: PAMTOO_clean_linker_0, # of connection points: 3
#     Node 8, Type 1, BuildingBlock: PAMTOO_clean_linker_0, # of connection points: 3
#     Edge 9, Type (0, 1), None
#     Edge 10, Type (0, 1), None
#     Edge 11, Type (0, 1), None
#     Edge 12, Type (0, 1), None
#     Edge 13, Type (0, 1), None
#     Edge 14, Type (0, 1), None
#     Edge 15, Type (0, 1), None
#     Edge 16, Type (0, 1), None
#     Edge 17, Type (0, 1), None
#     Edge 18, Type (0, 1), None
#     Edge 19, Type (0, 1), None
#     Edge 20, Type (0, 1), None
#     Edge 21, Type (0, 1), None
#     Edge 22, Type (0, 1), None
#     Edge 23, Type (0, 1), None
#     Edge 24, Type (0, 1), None
#     Edge 25, Type (0, 1), None
#     Edge 26, Type (0, 1), None
# Relax obj value: 0.133
# Max RMSD: 0.175
# Mean RMSD: 0.122
data_MOF--net-anh--node1-CUKXOW_clean_sbu_0--node2-PAMTOO_clean_linker_0--edge1-none
_symmetry_space_group_name_H-M    P1
_symmetry_Int_Tables_number       1
_symmetry_cell_setting            triclinic
loop_
_symmetry_equiv_pos_as_xyz
'x, y, z'
_cell_length_a     12.037151
_cell_length_b     11.665038
_cell_length_c     21.029883
_cell_angle_alpha  85.703419
_cell_angle_beta   92.191519
_cell_angle_gamma 105.40363
loop_
_atom_site_label
_atom_site_type_symbol
_atom_site_fract_x
_atom_site_fract_y
_atom_site_fract_z
_atom_type_partial_charge
Tb0 Tb 0.16153 0.67514 0.14109 0.0
C1 C 0.13376 0.51759 0.27178 0.0
Tb2 Tb 1.07139 0.38793 0.14272 0.0
O3 O 0.98786 0.70762 0.12829 0.0
O4 O 1.00659 0.54041 0.14422 0.0
O5 O 0.18833 0.62018 0.24115 0.0
C6 C 0.90344 0.1867 0.15591 0.0
O7 O 1.06923 0.42527 0.24232 0.0
C8 C 0.30125 0.47142 0.14575 0.0
C9 C 0.1495 0.53311 0.01353 0.0
O10 O 1.00226 0.2091 0.18642 0.0
O11 O 0.90297 0.27547 0.11472 0.0
O12 O 0.24868 0.35752 0.14507 0.0
O13 O 0.22221 0.52338 0.14553 0.0
O14 O 1.09213 0.42907 0.04124 0.0
O15 O 0.18806 0.63342 0.04354 0.0
C16 C 0.30373 0.89342 0.13275 0.0
O17 O 0.27463 0.82369 0.08634 0.0
O18 O 0.2536 0.8395 0.18456 0.0
C19 C 0.92984 0.59584 0.13367 0.0
Tb20 Tb 0.54053 1.02032 0.4779 0.0
C21 C 0.6757 0.04547 0.34956 0.0
Tb22 Tb 0.79876 0.11803 0.47981 0.0
O23 O 0.51499 0.20011 0.48526 0.0
O24 O 0.65849 0.17891 0.44325 0.0
O25 O 0.58006 0.98888 0.38028 0.0
C26 C 0.99928 0.28246 0.47319 0.0
O27 O 0.76257 0.11903 0.37836 0.0
C28 C 0.72861 0.88346 0.48431 0.0
C29 C 0.66881 0.06084 0.61135 0.0
O30 O 0.97818 0.17727 0.45166 0.0
O31 O 0.90918 0.29121 0.50232 0.0
O32 O 0.83052 0.94501 0.46616 0.0
O33 O 0.68236 0.9542 0.50897 0.0
O34 O 0.76189 0.12585 0.58086 0.0
O35 O 0.57848 0.99611 0.58025 0.0
C36 C 0.32629 0.88321 0.47177 0.0
O37 O 0.36168 0.96936 0.50919 0.0
O38 O 0.41114 0.87513 0.43778 0.0
C39 C 0.61529 0.25561 0.46293 0.0
Tb40 Tb 0.58158 0.51783 0.80239 0.0
C41 C 0.69495 0.56565 0.93384 0.0
Tb42 Tb 0.8134 0.64245 0.80555 0.0
O43 O 0.60909 0.36362 0.85965 0.0
O44 O 0.73416 0.45816 0.79535 0.0
O45 O 0.59911 0.56744 0.90133 0.0
C46 C 1.04401 0.69291 0.80997 0.0
O47 O 0.7891 0.57022 0.90311 0.0
C48 C 0.68854 0.79808 0.80797 0.0
C49 C 0.70379 0.60148 0.6712 0.0
O50 O 0.98007 0.73331 0.84569 0.0
O51 O 0.97642 0.64047 0.76543 0.0
O52 O 0.78004 0.79818 0.84205 0.0
O53 O 0.66456 0.70485 0.77667 0.0
O54 O 0.79651 0.65872 0.7027 0.0
O55 O 0.6094 0.53928 0.70032 0.0
C56 C 0.3617 0.40685 0.78059 0.0
O57 O 0.44897 0.37239 0.76412 0.0
O58 O 0.39766 0.50739 0.80754 0.0
C59 C 0.70859 0.37111 0.83661 0.0
H60 H 0.86501 0.1329 0.27902 0.0
H61 H 0.50691 0.94207 0.26395 0.0
H62 H 0.70171 0.07691 0.09467 0.0
H63 H 0.41136 0.04848 0.08444 0.0
C64 C 0.40703 0.99697 0.13129 0.0
O65 O 0.50205 0.95203 0.13954 0.0
H66 H 0.40134 0.05567 0.16976 0.0
C67 C 0.78968 0.0938 0.25026 0.0
C68 C 0.79721 0.10814 0.18366 0.0
C69 C 0.68438 1.03881 0.28001 0.0
C70 C 0.58836 0.98766 0.24219 0.0
C71 C 0.59508 1.00127 0.17548 0.0
C72 C 0.69843 0.06391 0.1462 0.0
H73 H 0.76237 0.81076 0.60391 0.0
H74 H 0.62338 0.43468 0.58633 0.0
H75 H 0.64575 0.6784 0.42051 0.0
H76 H 0.74548 0.42031 0.44961 0.0
C77 C 0.6518 0.38449 0.4389 0.0
O78 O 0.58623 0.45057 0.46398 0.0
H79 H 0.642 0.39014 0.38613 0.0
C80 C 0.72822 0.7366 0.57425 0.0
C81 C 0.70784 0.75871 0.50922 0.0
C82 C 0.69785 0.62043 0.60207 0.0
C83 C 0.64902 0.52486 0.56466 0.0
C84 C 0.63289 0.54487 0.49907 0.0
C85 C 0.66177 0.66238 0.47101 0.0
H86 H 0.12769 0.71058 0.93067 0.0
H87 H 0.19131 0.36364 0.94195 0.0
H88 H 0.12347 0.52603 0.76087 0.0
H89 H 0.2066 0.37883 0.7245 0.0
C90 C 0.23941 0.33939 0.76863 0.0
O91 O 0.16837 0.33941 0.81874 0.0
H92 H 0.23623 0.24586 0.75992 0.0
C93 C 0.14526 0.6379 0.90704 0.0
C94 C 0.12538 0.63161 0.84097 0.0
C95 C 0.16455 0.53978 0.94413 0.0
C96 C 0.1782 0.441 0.91397 0.0
C97 C 0.16636 0.43839 0.84763 0.0
C98 C 0.14135 0.53384 0.8115 0.0
H99 H 1.0372 0.32177 0.34878 0.0
H100 H 0.24896 0.68278 0.35455 0.0
H101 H 0.12341 0.48 0.52802 0.0
H102 H 0.17786 0.79073 0.52573 0.0
C103 C 0.21874 0.7865 0.47981 0.0
O104 O 0.24986 0.68122 0.47912 0.0
H105 H 0.15816 0.79659 0.43973 0.0
C106 C 1.08386 0.39663 0.37523 0.0
C107 C 1.07822 0.387 0.44205 0.0
C108 C 0.14146 0.50448 0.34246 0.0
C109 C 0.2009 0.5996 0.37815 0.0
C110 C 0.19371 0.58999 0.4449 0.0
C111 C 0.13059 0.4851 0.47659 0.0
H112 H 0.61974 0.85426 0.68633 0.0
H113 H 0.74172 0.23558 0.69178 0.0
H114 H 0.75966 1.01255 0.86089 0.0
H115 H 0.86078 0.34182 0.88141 0.0
C116 C 0.78119 0.28827 0.85847 0.0
O117 O 0.81432 0.23319 0.80913 0.0
H118 H 0.73512 0.22049 0.89518 0.0
C119 C 0.65055 0.93201 0.71372 0.0
C120 C 0.68062 0.91732 0.77886 0.0
C121 C 0.67416 0.04673 0.68185 0.0
C122 C 0.71997 0.14762 0.71633 0.0
C123 C 0.74853 0.13593 0.78106 0.0
C124 C 0.72954 1.02099 0.81198 0.0
H125 H 0.88418 0.59763 0.01016 0.0
H126 H 0.513 0.49543 0.01467 0.0
H127 H 0.71234 0.50848 0.18987 0.0
H128 H 0.4499 0.61414 0.12099 0.0
C129 C 0.42979 0.5304 0.15241 0.0
O130 O 0.49803 0.45692 0.13752 0.0
H131 H 0.44906 0.5549 0.20242 0.0
C132 C 0.80506 0.56744 0.03679 0.0
C133 C 0.81279 0.5524 0.10338 0.0
C134 C 0.69787 0.54901 0.00431 0.0
C135 C 0.59604 0.51232 0.03917 0.0
C136 C 0.5998 0.4965 0.10588 0.0
C137 C 0.70882 0.51767 0.13826 0.0
loop_
_geom_bond_atom_site_label_1
_geom_bond_atom_site_label_2
_geom_bond_distance
_geom_bond_site_symmetry_2
_ccdc_geom_bond_type
Tb0 O3 2.453 1_455 S
Tb0 O4 2.596 1_455 S
Tb0 O5 2.374 . S
Tb0 O13 2.343 . S
Tb0 O15 2.353 . S
Tb0 O17 2.427 . S
Tb0 O18 2.513 . S
C1 O5 1.251 1_655 S
C1 O7 1.263 . S
Tb2 O4 2.343 . S
Tb2 O7 2.353 . S
Tb2 O10 2.427 . S
Tb2 O11 2.513 . S
Tb2 O12 2.453 1_655 S
Tb2 O13 2.596 1_655 S
Tb2 O14 2.374 . S
O3 Tb0 2.453 1_655 S
O3 C19 1.245 . S
O4 Tb0 2.596 1_655 S
O4 Tb2 2.343 . S
O4 C19 1.259 . S
O5 Tb0 2.374 . S
O5 C1 1.251 1_455 S
C6 O10 1.275 . S
C6 O11 1.246 . S
O7 C1 1.263 . S
O7 Tb2 2.353 . S
C8 O12 1.245 . S
C8 O13 1.259 . S
C9 O14 1.250 1_455 S
C9 O15 1.263 . S
O10 Tb2 2.427 . S
O10 C6 1.275 . S
O11 Tb2 2.513 . S
O11 C6 1.246 . S
O12 Tb2 2.453 1_455 S
O12 C8 1.245 . S
O13 Tb0 2.343 . S
O13 Tb2 2.596 1_455 S
O13 C8 1.259 . S
O14 Tb2 2.374 . S
O14 C9 1.250 1_655 S
O15 Tb0 2.353 . S
O15 C9 1.263 . S
C16 O17 1.275 . S
C16 O18 1.246 . S
O17 Tb0 2.427 . S
O17 C16 1.275 . S
O18 Tb0 2.513 . S
O18 C16 1.246 . S
C19 O3 1.245 . S
C19 O4 1.259 . S
Tb20 O23 2.453 1_565 S
Tb20 O24 2.596 1_565 S
Tb20 O25 2.374 1_565 S
Tb20 O33 2.343 . S
Tb20 O35 2.353 1_565 S
Tb20 O37 2.427 . S
Tb20 O38 2.513 . S
C21 O25 1.251 . S
C21 O27 1.263 . S
Tb22 O24 2.343 . S
Tb22 O27 2.353 . S
Tb22 O30 2.427 . S
Tb22 O31 2.513 . S
Tb22 O32 2.453 1_545 S
Tb22 O33 2.596 1_545 S
Tb22 O34 2.374 . S
O23 Tb20 2.453 1_545 S
O23 C39 1.245 . S
O24 Tb20 2.596 1_545 S
O24 Tb22 2.343 . S
O24 C39 1.259 . S
O25 Tb20 2.374 1_545 S
O25 C21 1.251 . S
C26 O30 1.275 . S
C26 O31 1.246 . S
O27 C21 1.263 . S
O27 Tb22 2.353 . S
C28 O32 1.245 . S
C28 O33 1.259 . S
C29 O34 1.250 . S
C29 O35 1.263 . S
O30 Tb22 2.427 . S
O30 C26 1.275 . S
O31 Tb22 2.513 . S
O31 C26 1.246 . S
O32 Tb22 2.453 1_565 S
O32 C28 1.245 . S
O33 Tb20 2.343 . S
O33 Tb22 2.596 1_565 S
O33 C28 1.259 . S
O34 Tb22 2.374 . S
O34 C29 1.250 . S
O35 Tb20 2.353 1_545 S
O35 C29 1.263 . S
C36 O37 1.275 . S
C36 O38 1.246 . S
O37 Tb20 2.427 . S
O37 C36 1.275 . S
O38 Tb20 2.513 . S
O38 C36 1.246 . S
C39 O23 1.245 . S
C39 O24 1.259 . S
Tb40 O43 2.453 . S
Tb40 O44 2.596 . S
Tb40 O45 2.374 . S
Tb40 O53 2.343 . S
Tb40 O55 2.353 . S
Tb40 O57 2.427 . S
Tb40 O58 2.513 . S
C41 O45 1.251 . S
C41 O47 1.263 . S
Tb42 O44 2.343 . S
Tb42 O47 2.353 . S
Tb42 O50 2.427 . S
Tb42 O51 2.513 . S
Tb42 O52 2.453 . S
Tb42 O53 2.596 . S
Tb42 O54 2.374 . S
O43 Tb40 2.453 . S
O43 C59 1.245 . S
O44 Tb40 2.596 . S
O44 Tb42 2.343 . S
O44 C59 1.259 . S
O45 Tb40 2.374 . S
O45 C41 1.251 . S
C46 O50 1.275 . S
C46 O51 1.246 . S
O47 C41 1.263 . S
O47 Tb42 2.353 . S
C48 O52 1.245 . S
C48 O53 1.259 . S
C49 O54 1.250 . S
C49 O55 1.263 . S
O50 Tb42 2.427 . S
O50 C46 1.275 . S
O51 Tb42 2.513 . S
O51 C46 1.246 . S
O52 Tb42 2.453 . S
O52 C48 1.245 . S
O53 Tb40 2.343 . S
O53 Tb42 2.596 . S
O53 C48 1.259 . S
O54 Tb42 2.374 . S
O54 C49 1.250 . S
O55 Tb40 2.353 . S
O55 C49 1.263 . S
C56 O57 1.275 . S
C56 O58 1.246 . S
O57 Tb40 2.427 . S
O57 C56 1.275 . S
O58 Tb40 2.513 . S
O58 C56 1.246 . S
C59 O43 1.245 . S
C59 O44 1.259 . S
H60 C67 0.929 . S
H61 C70 0.930 . S
H62 C72 0.929 . S
H63 C64 0.969 . S
C64 H63 0.969 . S
C64 O65 1.550 . S
C64 H66 0.973 . S
O65 C64 1.550 . S
O65 C71 1.412 1_565 S
H66 C64 0.973 . S
C67 H60 0.929 . S
C67 C68 1.400 . S
C67 C69 1.364 . S
C68 C67 1.400 . S
C68 C72 1.377 . S
C69 C67 1.364 . S
C69 C70 1.374 1_545 S
C70 H61 0.930 . S
C70 C69 1.374 1_565 S
C70 C71 1.383 1_565 S
C71 O65 1.412 1_545 S
C71 C70 1.383 1_545 S
C71 C72 1.394 . S
C72 H62 0.929 . S
C72 C68 1.377 . S
C72 C71 1.394 . S
H73 C80 0.929 . S
H74 C83 0.930 . S
H75 C85 0.929 . S
H76 C77 0.969 . S
C77 H76 0.969 . S
C77 O78 1.550 . S
C77 H79 0.973 . S
O78 C77 1.550 . S
O78 C84 1.412 . S
H79 C77 0.973 . S
C80 H73 0.929 . S
C80 C81 1.400 . S
C80 C82 1.364 . S
C81 C80 1.400 . S
C81 C85 1.377 . S
C82 C80 1.364 . S
C82 C83 1.374 . S
C83 H74 0.930 . S
C83 C82 1.374 . S
C83 C84 1.383 . S
C84 O78 1.412 . S
C84 C83 1.383 . S
C84 C85 1.394 . S
C85 H75 0.929 . S
C85 C81 1.377 . S
C85 C84 1.394 . S
H86 C93 0.929 . S
H87 C96 0.930 . S
H88 C98 0.929 . S
H89 C90 0.969 . S
C90 H89 0.969 . S
C90 O91 1.550 . S
C90 H92 0.973 . S
O91 C90 1.550 . S
O91 C97 1.412 . S
H92 C90 0.973 . S
C93 H86 0.929 . S
C93 C94 1.400 . S
C93 C95 1.364 1_655 S
C94 C93 1.400 . S
C94 C98 1.377 1_655 S
C95 C93 1.364 1_455 S
C95 C96 1.374 . S
C96 H87 0.930 . S
C96 C95 1.374 . S
C96 C97 1.383 . S
C97 O91 1.412 . S
C97 C96 1.383 . S
C97 C98 1.394 . S
C98 H88 0.929 . S
C98 C94 1.377 1_455 S
C98 C97 1.394 . S
H99 C106 0.929 . S
H100 C109 0.930 . S
H101 C111 0.929 . S
H102 C103 0.969 . S
C103 H102 0.969 . S
C103 O104 1.550 . S
C103 H105 0.973 . S
O104 C103 1.550 . S
O104 C110 1.412 . S
H105 C103 0.973 . S
C106 H99 0.929 . S
C106 C107 1.400 . S
C106 C108 1.364 . S
C107 C106 1.400 . S
C107 C111 1.377 . S
C108 C106 1.364 . S
C108 C109 1.374 1_655 S
C109 H100 0.930 . S
C109 C108 1.374 1_455 S
C109 C110 1.383 . S
C110 O104 1.412 . S
C110 C109 1.383 . S
C110 C111 1.394 1_455 S
C111 H101 0.929 . S
C111 C107 1.377 . S
C111 C110 1.394 1_655 S
H112 C119 0.929 . S
H113 C122 0.930 . S
H114 C124 0.929 . S
H115 C116 0.969 . S
C116 H115 0.969 . S
C116 O117 1.550 . S
C116 H118 0.973 . S
O117 C116 1.550 . S
O117 C123 1.412 . S
H118 C116 0.973 . S
C119 H112 0.929 . S
C119 C120 1.400 . S
C119 C121 1.364 . S
C120 C119 1.400 . S
C120 C124 1.377 . S
C121 C119 1.364 . S
C121 C122 1.374 1_565 S
C122 H113 0.930 . S
C122 C121 1.374 1_545 S
C122 C123 1.383 . S
C123 O117 1.412 . S
C123 C122 1.383 . S
C123 C124 1.394 1_545 S
C124 H114 0.929 . S
C124 C120 1.377 . S
C124 C123 1.394 1_565 S
H125 C132 0.929 . S
H126 C135 0.930 . S
H127 C137 0.929 . S
H128 C129 0.969 . S
C129 H128 0.969 . S
C129 O130 1.550 . S
C129 H131 0.973 . S
O130 C129 1.550 . S
O130 C136 1.412 . S
H131 C129 0.973 . S
C132 H125 0.929 . S
C132 C133 1.400 . S
C132 C134 1.364 . S
C133 C132 1.400 . S
C133 C137 1.377 . S
C134 C132 1.364 . S
C134 C135 1.374 . S
C135 H126 0.930 . S
C135 C134 1.374 . S
C135 C136 1.383 . S
C136 O130 1.412 . S
C136 C135 1.383 . S
C136 C137 1.394 . S
C137 H127 0.929 . S
C137 C133 1.377 . S
C137 C136 1.394 . S
C8 C129 2.227 . S
C26 C107 1.357 . S
C48 C120 1.529 . S
C19 C133 2.277 . S
C103 C36 1.432 . S
C116 C59 1.598 . S
C28 C81 1.600 . S
C46 C94 0.650 . S
C16 C64 1.303 . S
C77 C39 1.584 . S
C90 C56 0.956 . S
C6 C68 1.641 . S
C95 C9 1.467 1_556 S
C21 C69 1.592 . S
C49 C82 1.625 . S
C121 C29 1.595 1_565 S
C134 C41 1.690 1_554 S
C1 C108 1.595 . S
