# Generated by pormake.
# Topology rtl, (3,6)-cn, num edge types: 1
# Building blocks:
#     Node 0, Type 0, BuildingBlock: INOVEN_clean_linker_0, # of connection points: 3
#     Node 1, Type 0, BuildingBlock: INOVEN_clean_linker_0, # of connection points: 3
#     Node 2, Type 0, BuildingBlock: INOVEN_clean_linker_0, # of connection points: 3
#     Node 3, Type 0, BuildingBlock: INOVEN_clean_linker_0, # of connection points: 3
#     Node 4, Type 1, BuildingBlock: VOLQOD_clean_sbu_1, # of connection points: 6
#     Node 5, Type 1, BuildingBlock: VOLQOD_clean_sbu_1, # of connection points: 6
#     Edge 6, Type (0, 1), BuildingBlock: OJICUG_clean_linker_0, # of connection points: 2
#     Edge 7, Type (0, 1), BuildingBlock: OJICUG_clean_linker_0, # of connection points: 2
#     Edge 8, Type (0, 1), BuildingBlock: OJICUG_clean_linker_0, # of connection points: 2
#     Edge 9, Type (0, 1), BuildingBlock: OJICUG_clean_linker_0, # of connection points: 2
#     Edge 10, Type (0, 1), BuildingBlock: OJICUG_clean_linker_0, # of connection points: 2
#     Edge 11, Type (0, 1), BuildingBlock: OJICUG_clean_linker_0, # of connection points: 2
#     Edge 12, Type (0, 1), BuildingBlock: OJICUG_clean_linker_0, # of connection points: 2
#     Edge 13, Type (0, 1), BuildingBlock: OJICUG_clean_linker_0, # of connection points: 2
#     Edge 14, Type (0, 1), BuildingBlock: OJICUG_clean_linker_0, # of connection points: 2
#     Edge 15, Type (0, 1), BuildingBlock: OJICUG_clean_linker_0, # of connection points: 2
#     Edge 16, Type (0, 1), BuildingBlock: OJICUG_clean_linker_0, # of connection points: 2
#     Edge 17, Type (0, 1), BuildingBlock: OJICUG_clean_linker_0, # of connection points: 2
# Relax obj value: 0.043
# Max RMSD: 0.144
# Mean RMSD: 0.089
data_MOF--net-rtl--node1-VOLQOD_clean_sbu_1--node2-INOVEN_clean_linker_0--edge1-OJICUG_clean_linker_0
_symmetry_space_group_name_H-M    P1
_symmetry_Int_Tables_number       1
_symmetry_cell_setting            triclinic
loop_
_symmetry_equiv_pos_as_xyz
'x, y, z'
_cell_length_a     28.51284
_cell_length_b     26.709826
_cell_length_c     16.790995
_cell_angle_alpha  91.839919
_cell_angle_beta   91.935198
_cell_angle_gamma 89.999454
loop_
_atom_site_label
_atom_site_type_symbol
_atom_site_fract_x
_atom_site_fract_y
_atom_site_fract_z
_atom_type_partial_charge
H0 H 0.16371 0.7781 0.84723 0.0
H1 H 0.08106 0.88293 -0.01834 0.0
H2 H 0.17164 0.78038 0.10419 0.0
N3 N 0.20703 0.73787 0.96948 0.0
N4 N 0.22893 0.72305 0.02971 0.0
C5 C 0.15136 0.79234 0.90396 0.0
C6 C 0.11979 0.83243 0.90627 0.0
C7 C 0.17023 0.77328 -0.02513 0.0
C8 C 0.15617 0.79364 0.04894 0.0
C9 C 0.12429 0.83357 0.05126 0.0
C10 C 0.1056 0.85187 -0.0201 0.0
H11 H 0.68027 0.75853 0.65757 0.0
H12 H 0.58662 0.65867 0.52339 0.0
H13 H 0.68318 0.74956 0.40118 0.0
N14 N 0.72296 0.79385 0.53292 0.0
N15 N 0.74931 0.79777 0.47566 0.0
C16 C 0.66688 0.74277 0.60102 0.0
C17 C 0.6306 0.70707 0.59903 0.0
C18 C 0.68627 0.7579 0.52991 0.0
C19 C 0.66896 0.73741 0.45641 0.0
C20 C 0.6324 0.70239 0.45373 0.0
C21 C 0.61371 0.68723 0.52519 0.0
H22 H 0.82528 0.25794 0.85385 0.0
H23 H 0.91714 0.15832 -0.01914 0.0
H24 H 0.82075 0.25156 0.10934 0.0
N25 N 0.78251 0.29489 -0.02137 0.0
N26 N 0.75445 0.30021 0.03357 0.0
C27 C 0.83822 0.24252 0.90933 0.0
C28 C 0.87378 0.20634 0.90883 0.0
C29 C 0.81871 0.25861 -0.01888 0.0
C30 C 0.83529 0.23872 0.05352 0.0
C31 C 0.87177 0.20339 0.05386 0.0
C32 C 0.89037 0.18717 -0.01878 0.0
H33 H 0.33618 0.27997 0.35666 0.0
H34 H 0.42003 0.38471 0.49894 0.0
H35 H 0.33204 0.28025 0.61309 0.0
N36 N 0.29499 0.2384 0.47476 0.0
N37 N 0.27397 0.22267 0.53282 0.0
C38 C 0.34921 0.294 0.41455 0.0
C39 C 0.38049 0.3344 0.41986 0.0
C40 C 0.33156 0.2742 0.48372 0.0
C41 C 0.34658 0.29411 0.55922 0.0
C42 C 0.37825 0.33435 0.56457 0.0
C43 C 0.39565 0.35346 0.49485 0.0
O44 O 0.89197 0.98613 0.47852 0.0
Zn45 Zn 0.93652 0.04528 0.47867 0.0
O46 O 0.00209 0.0221 0.48048 0.0
Zn47 Zn 0.0334 0.04632 0.57813 0.0
Zn48 Zn 0.00459 0.94871 0.4751 0.0
Zn49 Zn 0.03552 0.04847 0.39192 0.0
O50 O 0.09096 0.08575 0.55929 0.0
O51 O 0.09209 0.08972 0.4279 0.0
O52 O 0.9232 0.08971 0.57545 0.0
O53 O -0.00834 0.09009 0.64219 0.0
O54 O 0.05349 0.98982 0.64469 0.0
O55 O 0.03604 0.92065 0.57332 0.0
O56 O 0.03912 0.92264 0.38012 0.0
O57 O 0.9226 0.08569 0.38037 0.0
O58 O 0.05913 0.99246 0.32172 0.0
O59 O -0.00765 0.09073 0.32578 0.0
C60 C 0.8987 0.93903 0.47149 0.0
C61 C 0.10995 0.10042 0.49684 0.0
C62 C 0.05337 0.94238 0.63611 0.0
C63 C 0.9492 0.10419 0.63497 0.0
C64 C 0.05875 0.94487 0.32424 0.0
C65 C 0.94886 0.10162 0.32658 0.0
O66 O 0.93966 0.92049 0.46697 0.0
O67 O 0.61066 0.48651 0.01064 0.0
Zn68 Zn 0.56636 0.54582 0.01152 0.0
O69 O 0.50065 0.52294 0.00792 0.0
Zn70 Zn 0.46716 0.54908 0.91544 0.0
Zn71 Zn 0.49766 0.44956 0.0045 0.0
Zn72 Zn 0.46973 0.54768 0.10206 0.0
O73 O 0.41007 0.5894 0.94485 0.0
O74 O 0.41319 0.58858 0.0767 0.0
O75 O 0.57925 0.58876 0.91752 0.0
O76 O 0.5096 0.59284 0.85459 0.0
O77 O 0.44467 0.49253 0.84278 0.0
O78 O 0.46577 0.42283 0.90301 0.0
O79 O 0.46316 0.4225 0.09625 0.0
O80 O 0.58128 0.58753 0.11249 0.0
O81 O 0.4477 0.49184 0.16638 0.0
O82 O 0.51275 0.58952 0.1713 0.0
C83 C 0.60356 0.4395 0.01373 0.0
C84 C 0.39328 0.60176 0.01194 0.0
C85 C 0.44603 0.44493 0.84478 0.0
C86 C 0.55283 0.60489 0.86119 0.0
C87 C 0.44616 0.44448 0.15702 0.0
C88 C 0.55569 0.60202 0.16959 0.0
O89 O 0.56239 0.42111 0.01289 0.0
C90 C 0.21277 0.1736 0.58961 0.0
C91 C 0.23519 0.18967 0.52227 0.0
H92 H 0.15556 0.1328 0.63481 0.0
C93 C 0.21709 0.17525 0.44592 0.0
H94 H 0.22621 0.18463 0.64869 0.0
C95 C 0.17659 0.1459 0.43753 0.0
C96 C 0.15351 0.13043 0.50518 0.0
H97 H 0.23366 0.18731 0.39271 0.0
H98 H 0.16317 0.13579 0.37806 0.0
C99 C 0.17234 0.14418 0.58136 0.0
C100 C 0.29116 0.67557 0.09331 0.0
C101 C 0.26789 0.69041 0.02345 0.0
H102 H 0.34908 0.63599 0.14489 0.0
C103 C 0.28527 0.67511 0.94907 0.0
H104 H 0.27827 0.6873 0.15092 0.0
C105 C 0.32587 0.64602 0.94516 0.0
C106 C 0.34976 0.63173 0.01541 0.0
H107 H 0.26801 0.68625 0.89401 0.0
H108 H 0.33872 0.63514 0.88715 0.0
C109 C 0.33169 0.64645 0.08955 0.0
C110 C 0.78388 0.87871 0.5218 0.0
C111 C 0.7854 0.83411 0.47513 0.0
H112 H 0.81855 0.94797 0.55542 0.0
C113 C 0.82296 0.8255 0.4251 0.0
H114 H 0.75475 0.88638 0.56009 0.0
C115 C 0.85965 0.85993 0.42357 0.0
C116 C 0.85851 0.90443 0.47029 0.0
H117 H 0.82425 0.79148 0.38836 0.0
H118 H 0.88888 0.85184 0.38564 0.0
C119 C 0.82001 0.91399 0.51858 0.0
C120 C 0.72229 0.37977 -0.01478 0.0
C121 C 0.71838 0.3366 0.03044 0.0
H122 H 0.68888 0.44708 0.94588 0.0
C123 C 0.67759 0.32866 0.07216 0.0
H124 H 0.7538 0.38688 0.95313 0.0
C125 C 0.6402 0.36219 0.06639 0.0
C126 C 0.64373 0.40513 0.02074 0.0
H127 H 0.67427 0.29567 0.10742 0.0
H128 H 0.60857 0.35467 0.09798 0.0
C129 C 0.68538 0.41419 -0.01867 0.0
C130 C 0.11842 0.91251 0.13227 0.0
C131 C 0.11322 0.86025 0.12659 0.0
H132 H 0.10559 0.98004 0.19896 0.0
C133 C 0.09369 0.83514 0.18963 0.0
H134 H 0.13398 0.93258 0.08466 0.0
C135 C 0.0771 0.86242 0.25549 0.0
C136 C 0.0801 0.91511 0.25912 0.0
H137 H 0.08936 0.79482 0.18626 0.0
H138 H 0.06066 0.84237 0.30218 0.0
C139 C 0.10209 0.93964 0.19774 0.0
C140 C 0.56208 0.68226 0.6777 0.0
C141 C 0.61083 0.68825 0.67291 0.0
H142 H 0.50563 0.65157 0.74068 0.0
C143 C 0.64032 0.67086 0.73475 0.0
H144 H 0.53849 0.69592 0.63134 0.0
C145 C 0.62148 0.64523 0.79778 0.0
C146 C 0.57283 0.63665 0.79996 0.0
H147 H 0.67805 0.67476 0.73226 0.0
H148 H 0.64519 0.63054 0.84304 0.0
C149 C 0.5433 0.65675 0.74037 0.0
C150 C 0.93968 0.17754 0.14063 0.0
C151 C 0.89093 0.18257 0.12899 0.0
H152 H -0.00396 0.14847 0.21182 0.0
C153 C 0.86116 0.16426 0.1864 0.0
H154 H 0.9635 0.19208 0.09805 0.0
C155 C 0.87985 0.13913 0.25221 0.0
C156 C 0.92862 0.132 0.26163 0.0
H157 H 0.82342 0.16751 0.17871 0.0
H158 H 0.85604 0.12397 0.29421 0.0
C159 C 0.95829 0.15255 0.20599 0.0
C160 C 0.41131 0.33541 0.70508 0.0
C161 C 0.39033 0.36063 0.64115 0.0
H162 H 0.44598 0.34246 0.82023 0.0
C163 C 0.38459 0.41276 0.64732 0.0
H164 H 0.41611 0.29518 0.70132 0.0
C165 C 0.40163 0.43972 0.71436 0.0
C166 C 0.42486 0.41515 0.777 0.0
H167 H 0.36796 0.43292 0.599 0.0
H168 H 0.39749 0.48005 0.71604 0.0
C169 C 0.42859 0.36253 0.77263 0.0
C170 C 0.64324 0.6632 0.31749 0.0
C171 C 0.61333 0.68114 0.37683 0.0
H172 H 0.64852 0.62386 0.20478 0.0
C173 C 0.56463 0.67642 0.36428 0.0
H174 H 0.68098 0.66629 0.32587 0.0
C175 C 0.54615 0.65219 0.29566 0.0
C176 C 0.57594 0.6321 0.23774 0.0
H177 H 0.54073 0.69081 0.40831 0.0
H178 H 0.50839 0.64836 0.28896 0.0
C179 C 0.62468 0.63882 0.2484 0.0
C180 C 0.86306 0.17032 0.76958 0.0
C181 C 0.89303 0.18675 0.83329 0.0
H182 H 0.85728 0.13104 0.65632 0.0
C183 C 0.94161 0.18016 0.82747 0.0
H184 H 0.82541 0.1748 0.77283 0.0
C185 C 0.95978 0.15508 0.76144 0.0
C186 C 0.92977 0.13597 0.69959 0.0
H187 H 0.96553 0.19321 0.87521 0.0
H188 H -0.00262 0.14946 0.76015 0.0
C189 C 0.8813 0.14508 0.70317 0.0
C190 C 0.41265 0.33545 0.28266 0.0
C191 C 0.39364 0.36097 0.34836 0.0
H192 H 0.44467 0.34206 0.16977 0.0
C193 C 0.38872 0.4132 0.34767 0.0
H194 H 0.41654 0.29509 0.28204 0.0
C195 C 0.40459 0.43989 0.28429 0.0
C196 C 0.42572 0.41494 0.21996 0.0
H197 H 0.37321 0.43357 0.39704 0.0
H198 H 0.40105 0.48029 0.28671 0.0
C199 C 0.42875 0.36232 0.21879 0.0
C200 C 0.08588 0.83326 0.7663 0.0
C201 C 0.10584 0.85879 0.83349 0.0
H202 H 0.05302 0.83989 0.65029 0.0
C203 C 0.11116 0.91096 0.83292 0.0
H204 H 0.08167 0.79294 0.76561 0.0
C205 C 0.095 0.9376 0.76796 0.0
C206 C 0.07314 0.9127 0.70176 0.0
H207 H 0.12738 0.93134 0.88348 0.0
H208 H 0.09909 0.97795 0.77044 0.0
C209 C 0.06946 0.86012 0.70073 0.0
loop_
_geom_bond_atom_site_label_1
_geom_bond_atom_site_label_2
_geom_bond_distance
_geom_bond_site_symmetry_2
_ccdc_geom_bond_type
H0 C5 0.929 . S
H1 C10 0.931 . S
H2 C8 0.930 . S
N3 N4 1.234 1_556 S
N3 C7 1.453 1_556 S
N4 N3 1.234 1_554 S
C5 H0 0.929 . S
C5 C6 1.373 . S
C5 C7 1.368 1_556 S
C6 C5 1.373 . S
C6 C10 1.397 1_556 S
C7 N3 1.453 1_554 S
C7 C5 1.368 1_554 S
C7 C8 1.373 . S
C8 H2 0.930 . S
C8 C7 1.373 . S
C8 C9 1.371 . S
C9 C8 1.371 . S
C9 C10 1.383 . S
C10 H1 0.931 . S
C10 C6 1.397 1_554 S
C10 C9 1.383 . S
H11 C16 0.929 . S
H12 C21 0.931 . S
H13 C19 0.930 . S
N14 N15 1.234 . S
N14 C18 1.453 . S
N15 N14 1.234 . S
C16 H11 0.929 . S
C16 C17 1.373 . S
C16 C18 1.368 . S
C17 C16 1.373 . S
C17 C21 1.397 . S
C18 N14 1.453 . S
C18 C16 1.368 . S
C18 C19 1.373 . S
C19 H13 0.930 . S
C19 C18 1.373 . S
C19 C20 1.371 . S
C20 C19 1.371 . S
C20 C21 1.383 . S
C21 H12 0.931 . S
C21 C17 1.397 . S
C21 C20 1.383 . S
H22 C27 0.929 . S
H23 C32 0.931 . S
H24 C30 0.930 . S
N25 N26 1.234 1_556 S
N25 C29 1.453 1_556 S
N26 N25 1.234 1_554 S
C27 H22 0.929 . S
C27 C28 1.373 . S
C27 C29 1.368 1_556 S
C28 C27 1.373 . S
C28 C32 1.397 1_556 S
C29 N25 1.453 1_554 S
C29 C27 1.368 1_554 S
C29 C30 1.373 . S
C30 H24 0.930 . S
C30 C29 1.373 . S
C30 C31 1.371 . S
C31 C30 1.371 . S
C31 C32 1.383 . S
C32 H23 0.931 . S
C32 C28 1.397 1_554 S
C32 C31 1.383 . S
H33 C38 0.929 . S
H34 C43 0.931 . S
H35 C41 0.930 . S
N36 N37 1.234 . S
N36 C40 1.453 . S
N37 N36 1.234 . S
C38 H33 0.929 . S
C38 C39 1.373 . S
C38 C40 1.368 . S
C39 C38 1.373 . S
C39 C43 1.397 . S
C40 N36 1.453 . S
C40 C38 1.368 . S
C40 C41 1.373 . S
C41 H35 0.930 . S
C41 C40 1.373 . S
C41 C42 1.371 . S
C42 C41 1.371 . S
C42 C43 1.383 . S
C43 H34 0.931 . S
C43 C39 1.397 . S
C43 C42 1.383 . S
O44 Zn45 1.953 1_565 S
O44 C60 1.225 . S
Zn45 O44 1.953 1_545 S
Zn45 O46 1.949 1_655 S
Zn45 O52 1.919 . S
Zn45 O57 1.924 . S
O46 Zn45 1.949 1_455 S
O46 Zn47 1.923 . S
O46 Zn48 1.950 1_545 S
O46 Zn49 1.945 . S
Zn47 O46 1.923 . S
Zn47 O50 1.933 . S
Zn47 O53 1.941 . S
Zn47 O54 1.965 1_545 S
Zn48 O46 1.950 1_565 S
Zn48 O55 1.938 . S
Zn48 O56 1.906 . S
Zn48 O66 1.953 1_455 S
Zn49 O46 1.945 . S
Zn49 O51 1.932 . S
Zn49 O58 1.977 1_545 S
Zn49 O59 1.910 1_455 S
O50 Zn47 1.933 . S
O50 C61 1.226 . S
O51 Zn49 1.932 . S
O51 C61 1.307 . S
O52 Zn45 1.919 . S
O52 C63 1.253 . S
O53 Zn47 1.941 . S
O53 C63 1.283 1_455 S
O54 Zn47 1.965 1_565 S
O54 C62 1.303 . S
O55 Zn48 1.938 . S
O55 C62 1.247 . S
O56 Zn48 1.906 . S
O56 C64 1.304 . S
O57 Zn45 1.924 . S
O57 C65 1.311 . S
O58 Zn49 1.977 1_565 S
O58 C64 1.272 . S
O59 Zn49 1.910 1_655 S
O59 C65 1.231 . S
C60 O44 1.225 . S
C60 O66 1.298 . S
C61 O50 1.226 . S
C61 O51 1.307 . S
C62 O54 1.303 . S
C62 O55 1.247 . S
C63 O52 1.253 . S
C63 O53 1.283 1_655 S
C64 O56 1.304 . S
C64 O58 1.272 . S
C65 O57 1.311 . S
C65 O59 1.231 . S
O66 Zn48 1.953 1_655 S
O66 C60 1.298 . S
O67 Zn68 1.953 . S
O67 C83 1.225 . S
Zn68 O67 1.953 . S
Zn68 O69 1.949 . S
Zn68 O75 1.919 1_554 S
Zn68 O80 1.924 . S
O69 Zn68 1.949 . S
O69 Zn70 1.923 1_554 S
O69 Zn71 1.950 . S
O69 Zn72 1.945 . S
Zn70 O69 1.923 1_556 S
Zn70 O73 1.933 . S
Zn70 O76 1.941 . S
Zn70 O77 1.965 . S
Zn71 O69 1.950 . S
Zn71 O78 1.938 1_554 S
Zn71 O79 1.906 . S
Zn71 O89 1.953 . S
Zn72 O69 1.945 . S
Zn72 O74 1.932 . S
Zn72 O81 1.977 . S
Zn72 O82 1.910 . S
O73 Zn70 1.933 . S
O73 C84 1.226 1_556 S
O74 Zn72 1.932 . S
O74 C84 1.307 . S
O75 Zn68 1.919 1_556 S
O75 C86 1.253 . S
O76 Zn70 1.941 . S
O76 C86 1.283 . S
O77 Zn70 1.965 . S
O77 C85 1.303 . S
O78 Zn71 1.938 1_556 S
O78 C85 1.247 . S
O79 Zn71 1.906 . S
O79 C87 1.304 . S
O80 Zn68 1.924 . S
O80 C88 1.311 . S
O81 Zn72 1.977 . S
O81 C87 1.272 . S
O82 Zn72 1.910 . S
O82 C88 1.231 . S
C83 O67 1.225 . S
C83 O89 1.298 . S
C84 O73 1.226 1_554 S
C84 O74 1.307 . S
C85 O77 1.303 . S
C85 O78 1.247 . S
C86 O75 1.253 . S
C86 O76 1.283 . S
C87 O79 1.304 . S
C87 O81 1.272 . S
C88 O80 1.311 . S
C88 O82 1.231 . S
O89 Zn71 1.953 . S
O89 C83 1.298 . S
C90 C91 1.387 . S
C90 H94 0.950 . S
C90 C99 1.390 . S
C91 C90 1.387 . S
C91 C93 1.387 . S
H92 C99 0.950 . S
C93 C91 1.387 . S
C93 C95 1.390 . S
C93 H97 0.950 . S
H94 C90 0.950 . S
C95 C93 1.390 . S
C95 C96 1.387 . S
C95 H98 0.950 . S
C96 C95 1.387 . S
C96 C99 1.387 . S
H97 C93 0.950 . S
H98 C95 0.950 . S
C99 C90 1.390 . S
C99 H92 0.950 . S
C99 C96 1.387 . S
C100 C101 1.387 . S
C100 H104 0.950 . S
C100 C109 1.390 . S
C101 C100 1.387 . S
C101 C103 1.387 1_554 S
H102 C109 0.950 . S
C103 C101 1.387 1_556 S
C103 C105 1.390 . S
C103 H107 0.950 . S
H104 C100 0.950 . S
C105 C103 1.390 . S
C105 C106 1.387 1_556 S
C105 H108 0.950 . S
C106 C105 1.387 1_554 S
C106 C109 1.387 . S
H107 C103 0.950 . S
H108 C105 0.950 . S
C109 C100 1.390 . S
C109 H102 0.950 . S
C109 C106 1.387 . S
C110 C111 1.387 . S
C110 H114 0.950 . S
C110 C119 1.390 . S
C111 C110 1.387 . S
C111 C113 1.387 . S
H112 C119 0.950 . S
C113 C111 1.387 . S
C113 C115 1.390 . S
C113 H117 0.950 . S
H114 C110 0.950 . S
C115 C113 1.390 . S
C115 C116 1.387 . S
C115 H118 0.950 . S
C116 C115 1.387 . S
C116 C119 1.387 . S
H117 C113 0.950 . S
H118 C115 0.950 . S
C119 C110 1.390 . S
C119 H112 0.950 . S
C119 C116 1.387 . S
C120 C121 1.387 1_556 S
C120 H124 0.950 . S
C120 C129 1.390 . S
C121 C120 1.387 1_554 S
C121 C123 1.387 . S
H122 C129 0.950 . S
C123 C121 1.387 . S
C123 C125 1.390 . S
C123 H127 0.950 . S
H124 C120 0.950 . S
C125 C123 1.390 . S
C125 C126 1.387 . S
C125 H128 0.950 . S
C126 C125 1.387 . S
C126 C129 1.387 1_554 S
H127 C123 0.950 . S
H128 C125 0.950 . S
C129 C120 1.390 . S
C129 H122 0.950 . S
C129 C126 1.387 1_556 S
C130 C131 1.387 . S
C130 H134 0.950 . S
C130 C139 1.390 . S
C131 C130 1.387 . S
C131 C133 1.387 . S
H132 C139 0.950 . S
C133 C131 1.387 . S
C133 C135 1.390 . S
C133 H137 0.950 . S
H134 C130 0.950 . S
C135 C133 1.390 . S
C135 C136 1.387 . S
C135 H138 0.950 . S
C136 C135 1.387 . S
C136 C139 1.387 . S
H137 C133 0.950 . S
H138 C135 0.950 . S
C139 C130 1.390 . S
C139 H132 0.950 . S
C139 C136 1.387 . S
C140 C141 1.387 . S
C140 H144 0.950 . S
C140 C149 1.390 . S
C141 C140 1.387 . S
C141 C143 1.387 . S
H142 C149 0.950 . S
C143 C141 1.387 . S
C143 C145 1.390 . S
C143 H147 0.950 . S
H144 C140 0.950 . S
C145 C143 1.390 . S
C145 C146 1.387 . S
C145 H148 0.950 . S
C146 C145 1.387 . S
C146 C149 1.387 . S
H147 C143 0.950 . S
H148 C145 0.950 . S
C149 C140 1.390 . S
C149 H142 0.950 . S
C149 C146 1.387 . S
C150 C151 1.387 . S
C150 H154 0.950 . S
C150 C159 1.390 . S
C151 C150 1.387 . S
C151 C153 1.387 . S
H152 C159 0.950 . S
C153 C151 1.387 . S
C153 C155 1.390 . S
C153 H157 0.950 . S
H154 C150 0.950 . S
C155 C153 1.390 . S
C155 C156 1.387 . S
C155 H158 0.950 . S
C156 C155 1.387 . S
C156 C159 1.387 . S
H157 C153 0.950 . S
H158 C155 0.950 . S
C159 C150 1.390 . S
C159 H152 0.950 . S
C159 C156 1.387 . S
C160 C161 1.387 . S
C160 H164 0.950 . S
C160 C169 1.390 . S
C161 C160 1.387 . S
C161 C163 1.387 . S
H162 C169 0.950 . S
C163 C161 1.387 . S
C163 C165 1.390 . S
C163 H167 0.950 . S
H164 C160 0.950 . S
C165 C163 1.390 . S
C165 C166 1.387 . S
C165 H168 0.950 . S
C166 C165 1.387 . S
C166 C169 1.387 . S
H167 C163 0.950 . S
H168 C165 0.950 . S
C169 C160 1.390 . S
C169 H162 0.950 . S
C169 C166 1.387 . S
C170 C171 1.387 . S
C170 H174 0.950 . S
C170 C179 1.390 . S
C171 C170 1.387 . S
C171 C173 1.387 . S
H172 C179 0.950 . S
C173 C171 1.387 . S
C173 C175 1.390 . S
C173 H177 0.950 . S
H174 C170 0.950 . S
C175 C173 1.390 . S
C175 C176 1.387 . S
C175 H178 0.950 . S
C176 C175 1.387 . S
C176 C179 1.387 . S
H177 C173 0.950 . S
H178 C175 0.950 . S
C179 C170 1.390 . S
C179 H172 0.950 . S
C179 C176 1.387 . S
C180 C181 1.387 . S
C180 H184 0.950 . S
C180 C189 1.390 . S
C181 C180 1.387 . S
C181 C183 1.387 . S
H182 C189 0.950 . S
C183 C181 1.387 . S
C183 C185 1.390 . S
C183 H187 0.950 . S
H184 C180 0.950 . S
C185 C183 1.390 . S
C185 C186 1.387 . S
C185 H188 0.950 1_655 S
C186 C185 1.387 . S
C186 C189 1.387 . S
H187 C183 0.950 . S
H188 C185 0.950 1_455 S
C189 C180 1.390 . S
C189 H182 0.950 . S
C189 C186 1.387 . S
C190 C191 1.387 . S
C190 H194 0.950 . S
C190 C199 1.390 . S
C191 C190 1.387 . S
C191 C193 1.387 . S
H192 C199 0.950 . S
C193 C191 1.387 . S
C193 C195 1.390 . S
C193 H197 0.950 . S
H194 C190 0.950 . S
C195 C193 1.390 . S
C195 C196 1.387 . S
C195 H198 0.950 . S
C196 C195 1.387 . S
C196 C199 1.387 . S
H197 C193 0.950 . S
H198 C195 0.950 . S
C199 C190 1.390 . S
C199 H192 0.950 . S
C199 C196 1.387 . S
C200 C201 1.387 . S
C200 H204 0.950 . S
C200 C209 1.390 . S
C201 C200 1.387 . S
C201 C203 1.387 . S
H202 C209 0.950 . S
C203 C201 1.387 . S
C203 C205 1.390 . S
C203 H207 0.950 . S
H204 C200 0.950 . S
C205 C203 1.390 . S
C205 C206 1.387 . S
C205 H208 0.950 . S
C206 C205 1.387 . S
C206 C209 1.387 . S
H207 C203 0.950 . S
H208 C205 0.950 . S
C209 C200 1.390 . S
C209 H202 0.950 . S
C209 C206 1.387 . S
C96 C61 1.493 . S
C91 N37 1.493 . S
C101 N4 1.492 . S
C106 C84 1.495 . S
C111 N15 1.508 . S
C116 C60 1.516 . S
C121 N26 1.511 . S
C126 C83 1.515 . S
C136 C64 1.497 . S
C131 C9 1.528 . S
C146 C86 1.496 . S
C141 C17 1.557 . S
C151 C31 1.558 . S
C156 C65 1.505 . S
C161 C42 1.539 . S
C166 C85 1.494 . S
C176 C88 1.428 . S
C171 C20 1.478 . S
C186 C63 1.424 . S
C181 C28 1.489 . S
C196 C87 1.423 . S
C191 C39 1.471 . S
C201 C6 1.471 . S
C206 C62 1.420 . S
