# Generated by pormake.
# Topology sit, (3,6)-cn, num edge types: 1
# Building blocks:
#     Node 0, Type 0, BuildingBlock: BETDAH_clean_linker_0, # of connection points: 3
#     Node 1, Type 0, BuildingBlock: BETDAH_clean_linker_0, # of connection points: 3
#     Node 2, Type 0, BuildingBlock: BETDAH_clean_linker_0, # of connection points: 3
#     Node 3, Type 0, BuildingBlock: BETDAH_clean_linker_0, # of connection points: 3
#     Node 4, Type 1, BuildingBlock: MIDCAF_clean_sbu_0, # of connection points: 6
#     Node 5, Type 1, BuildingBlock: MIDCAF_clean_sbu_0, # of connection points: 6
#     Edge 6, Type (0, 1), BuildingBlock: AJUNOK_clean_linker_0, # of connection points: 2
#     Edge 7, Type (0, 1), BuildingBlock: AJUNOK_clean_linker_0, # of connection points: 2
#     Edge 8, Type (0, 1), BuildingBlock: AJUNOK_clean_linker_0, # of connection points: 2
#     Edge 9, Type (0, 1), BuildingBlock: AJUNOK_clean_linker_0, # of connection points: 2
#     Edge 10, Type (0, 1), BuildingBlock: AJUNOK_clean_linker_0, # of connection points: 2
#     Edge 11, Type (0, 1), BuildingBlock: AJUNOK_clean_linker_0, # of connection points: 2
#     Edge 12, Type (0, 1), BuildingBlock: AJUNOK_clean_linker_0, # of connection points: 2
#     Edge 13, Type (0, 1), BuildingBlock: AJUNOK_clean_linker_0, # of connection points: 2
#     Edge 14, Type (0, 1), BuildingBlock: AJUNOK_clean_linker_0, # of connection points: 2
#     Edge 15, Type (0, 1), BuildingBlock: AJUNOK_clean_linker_0, # of connection points: 2
#     Edge 16, Type (0, 1), BuildingBlock: AJUNOK_clean_linker_0, # of connection points: 2
#     Edge 17, Type (0, 1), BuildingBlock: AJUNOK_clean_linker_0, # of connection points: 2
# Relax obj value: 0.072
# Max RMSD: 0.182
# Mean RMSD: 0.106
data_MOF--net-sit--node1-MIDCAF_clean_sbu_0--node2-BETDAH_clean_linker_0--edge1-AJUNOK_clean_linker_0
_symmetry_space_group_name_H-M    P1
_symmetry_Int_Tables_number       1
_symmetry_cell_setting            triclinic
loop_
_symmetry_equiv_pos_as_xyz
'x, y, z'
_cell_length_a     15.991345
_cell_length_b     23.551517
_cell_length_c     27.415329
_cell_angle_alpha  90.595422
_cell_angle_beta   86.504895
_cell_angle_gamma 82.425497
loop_
_atom_site_label
_atom_site_type_symbol
_atom_site_fract_x
_atom_site_fract_y
_atom_site_fract_z
_atom_type_partial_charge
H0 H 0.06639 0.45024 0.99878 0.0
H1 H 0.18803 0.27834 0.01536 0.0
H2 H 0.91793 0.31227 0.02422 0.0
C3 C 0.06209 0.40598 0.00802 0.0
C4 C -0.01723 0.38686 0.01287 0.0
C5 C 0.136 0.36703 0.00802 0.0
C6 C 0.13105 0.30904 0.01727 0.0
C7 C 0.05232 0.28984 0.02546 0.0
C8 C -0.02173 0.32859 0.02258 0.0
N9 N 0.0477 0.23037 0.02875 0.0
C10 C 0.04518 0.20387 0.07368 0.0
H11 H -0.01882 0.62383 0.02682 0.0
H12 H 0.11646 0.76973 0.03897 0.0
H13 H 0.8515 0.79504 0.02072 0.0
C14 C -0.01742 0.66964 0.02841 0.0
C15 C 0.90811 0.70638 0.02186 0.0
C16 C 0.05976 0.69138 0.03016 0.0
C17 C 0.05824 0.75117 0.03742 0.0
C18 C -0.01824 0.78827 0.03713 0.0
C19 C 0.90795 0.76581 0.02681 0.0
N20 N -0.02049 0.8487 0.04032 0.0
C21 C 0.01841 0.87593 0.07625 0.0
H22 H 0.51948 0.96162 0.48497 0.0
H23 H 0.72459 0.84936 0.53939 0.0
H24 H 0.47138 0.80655 0.55683 0.0
C25 C 0.54131 0.92453 0.5062 0.0
C26 C 0.48467 0.88697 0.52195 0.0
C27 C 0.62754 0.91128 0.51238 0.0
C28 C 0.65721 0.8611 0.53649 0.0
C29 C 0.60147 0.82346 0.55348 0.0
C30 C 0.51459 0.83664 0.54633 0.0
N31 N 0.63652 0.77045 0.57284 0.0
C32 C 0.59169 0.73456 0.60109 0.0
H33 H 0.55971 0.1191 0.50614 0.0
H34 H 0.61958 0.28733 0.53965 0.0
H35 H 0.36085 0.25876 0.53571 0.0
C36 C 0.53918 0.16331 0.51742 0.0
C37 C 0.45305 0.18385 0.52021 0.0
C38 C 0.59939 0.20102 0.52073 0.0
C39 C 0.57345 0.25779 0.53722 0.0
C40 C 0.48663 0.27782 0.54525 0.0
C41 C 0.42709 0.24129 0.53476 0.0
N42 N 0.4571 0.33611 0.55758 0.0
C43 C 0.49662 0.36958 0.58884 0.0
Zn44 Zn 0.06604 0.14569 0.36847 0.0
Zn45 Zn 0.05807 0.93279 0.3568 0.0
Zn46 Zn 0.06267 0.03927 0.36126 0.0
C47 C 0.08826 0.96042 0.26172 0.0
C48 C 0.90296 0.97902 0.3973 0.0
O49 O 0.1727 0.05535 0.402 0.0
O50 O 0.18144 0.14664 0.38708 0.0
C51 C 0.04796 0.12326 0.27047 0.0
O52 O 0.07201 1.01085 0.2819 0.0
O53 O 0.09376 0.9167 0.28801 0.0
O54 O 0.93715 0.93293 0.37669 0.0
O55 O 0.94226 1.02321 0.39752 0.0
O56 O 0.03841 0.1644 0.301 0.0
O57 O 0.06566 0.07137 0.28505 0.0
O58 O 0.94873 0.08164 0.40288 0.0
O59 O -0.02179 0.16817 0.42146 0.0
C60 C 0.92991 0.13018 0.4258 0.0
O61 O 0.16743 0.99573 0.40281 0.0
O62 O 0.14022 0.90613 0.40464 0.0
C63 C 0.21001 0.10024 0.40612 0.0
C64 C 0.18399 0.94377 0.41751 0.0
Zn65 Zn 0.49103 0.65145 0.8724 0.0
Zn66 Zn 0.58023 0.43869 0.86028 0.0
Zn67 Zn 0.53287 0.54413 0.86714 0.0
C68 C 0.57984 0.46939 0.76561 0.0
C69 C 0.42268 0.44848 0.9071 0.0
O70 O 0.62916 0.58374 0.9051 0.0
O71 O 0.58829 0.67713 0.90131 0.0
C72 C 0.49666 0.62674 0.77447 0.0
O73 O 0.54406 0.51588 0.78776 0.0
O74 O 0.61228 0.42828 0.79029 0.0
O75 O 0.47502 0.41113 0.88453 0.0
O76 O 0.43393 0.50166 0.90623 0.0
O77 O 0.47083 0.66772 0.80387 0.0
O78 O 0.52512 0.57723 0.791 0.0
O79 O 0.41221 0.56135 0.91303 0.0
O80 O 0.39604 0.65593 0.91984 0.0
C81 C 0.37311 0.60869 0.93179 0.0
O82 O 0.65162 0.52457 0.90568 0.0
O83 O 0.66898 0.42986 0.90627 0.0
C84 C 0.63898 0.63592 0.9153 0.0
C85 C 0.69057 0.47673 0.91976 0.0
C86 C 0.09759 0.13178 0.13376 0.0
C87 C 0.03992 0.17904 0.12148 0.0
C88 C 0.09692 0.11088 0.18171 0.0
C89 C 0.03894 0.13714 0.21845 0.0
H90 H 0.14491 0.11201 0.10664 0.0
H91 H 0.1445 0.07604 0.19057 0.0
S92 S 0.86975 0.25836 0.20254 0.0
N93 N 0.91982 0.24842 0.14802 0.0
N94 N 0.91807 0.20974 0.23788 0.0
C95 C -0.02145 0.18268 0.20554 0.0
C96 C -0.02079 0.20356 0.15701 0.0
C97 C 0.00221 0.95525 0.13722 0.0
C98 C 0.04911 0.90489 0.11697 0.0
C99 C 0.02146 0.97787 0.18229 0.0
C100 C 0.08783 0.95036 0.20838 0.0
H101 H 0.94724 0.9753 0.11965 0.0
H102 H -0.02025 1.01393 0.19864 0.0
S103 S 0.23625 0.82189 0.16697 0.0
N104 N 0.16965 0.83197 0.12315 0.0
N105 N 0.20621 0.87396 0.20767 0.0
C106 C 0.13915 0.90268 0.1862 0.0
C107 C 0.11954 0.8799 0.14051 0.0
C108 C 0.60729 0.64935 0.6528 0.0
C109 C 0.55628 0.69767 0.63627 0.0
C110 C 0.58251 0.62092 0.69505 0.0
C111 C 0.50653 0.64071 0.72214 0.0
H112 H 0.66926 0.63593 0.63504 0.0
H113 H 0.6267 0.58702 0.70902 0.0
S114 S 0.34476 0.75927 0.68851 0.0
N115 N 0.42222 0.75919 0.64579 0.0
N116 N 0.37515 0.70619 0.72508 0.0
C117 C 0.45157 0.68546 0.70289 0.0
C118 C 0.47678 0.7141 0.65998 0.0
C119 C 0.47161 0.44903 0.64968 0.0
C120 C 0.5269 0.40433 0.62611 0.0
C121 C 0.49338 0.47568 0.69242 0.0
C122 C 0.5707 0.45774 0.71307 0.0
H123 H 0.40914 0.46106 0.63675 0.0
H124 H 0.44643 0.50671 0.71161 0.0
S125 S 0.74237 0.34895 0.66006 0.0
N126 N 0.66564 0.34842 0.62243 0.0
N127 N 0.70706 0.39796 0.70259 0.0
C128 C 0.62927 0.41665 0.68702 0.0
C129 C 0.60708 0.38983 0.6436 0.0
C130 C 0.2461 0.36219 0.94043 0.0
C131 C 0.21444 0.38503 0.98636 0.0
C132 C 0.31274 0.3839 0.91492 0.0
C133 C 0.35001 0.42919 0.93448 0.0
H134 H 0.21726 0.32853 0.92337 0.0
H135 H 0.33461 0.36551 0.87927 0.0
S136 S 0.29583 0.49913 0.05612 0.0
N137 N 0.22697 0.4531 0.05171 0.0
N138 N 0.3563 0.49201 0.00476 0.0
C139 C 0.32089 0.45107 0.98121 0.0
C140 C 0.25191 0.42947 0.00691 0.0
C141 C 0.85465 0.64508 0.95921 0.0
C142 C 0.83718 0.68312 0.99981 0.0
C143 C 0.78987 0.6277 0.93312 0.0
C144 C 0.70562 0.64853 0.94626 0.0
H145 H 0.91892 0.63077 0.9458 0.0
H146 H 0.80595 0.60037 0.901 0.0
S147 S 0.62462 0.74372 0.05196 0.0
N148 N 0.72847 0.73675 0.0542 0.0
N149 N 0.60619 0.70537 0.00393 0.0
C150 C 0.68653 0.68479 0.98758 0.0
C151 C 0.75248 0.70186 0.01465 0.0
C152 C 0.91446 0.45292 0.95194 0.0
C153 C 0.90784 0.42432 0.99676 0.0
C154 C 0.84241 0.47718 0.92939 0.0
C155 C 0.76169 0.474 0.95107 0.0
H156 H -0.0249 0.45226 0.9319 0.0
H157 H 0.84973 0.49349 0.89278 0.0
S158 S 0.71001 0.41353 0.07164 0.0
N159 N 0.81429 0.40189 0.065 0.0
N160 N 0.67849 0.4469 0.02193 0.0
C161 C 0.75427 0.45051 0.99772 0.0
C162 C 0.82753 0.42578 0.02077 0.0
C163 C 0.21697 0.66681 0.03233 0.0
C164 C 0.1406 0.65431 0.01458 0.0
C165 C 0.29457 0.64624 0.00795 0.0
C166 C 0.29878 0.61102 0.96595 0.0
H167 H 0.21668 0.69618 0.06302 0.0
H168 H 0.35122 0.66141 0.01991 0.0
S169 S 0.12194 0.55363 0.91065 0.0
N170 N 0.07726 0.5959 0.95591 0.0
N171 N 0.22426 0.55616 0.9123 0.0
C172 C 0.22522 0.59174 0.95159 0.0
C173 C 0.14564 0.6135 0.97553 0.0
C174 C 0.69076 0.93696 0.43249 0.0
C175 C 0.68766 0.94195 0.48371 0.0
C176 C 0.75769 0.95434 0.40386 0.0
C177 C 0.82242 0.97834 0.42553 0.0
H178 H 0.64447 0.91565 0.41469 0.0
H179 H 0.76164 0.9457 0.36482 0.0
S180 S 0.83629 1.00845 0.55745 0.0
N181 N 0.7495 0.97771 0.55466 0.0
N182 N 0.87501 1.01202 0.50044 0.0
C183 C 0.81603 0.9884 0.47627 0.0
C184 C 0.74864 0.96956 0.50559 0.0
C185 C 0.41789 0.1231 0.45098 0.0
C186 C 0.39407 0.14932 0.49726 0.0
C187 C 0.35928 0.10081 0.42302 0.0
C188 C 0.27517 0.10322 0.44067 0.0
H189 H 0.48058 0.12357 0.43428 0.0
H190 H 0.3784 0.08569 0.38603 0.0
S191 S 0.1824 0.15812 0.5619 0.0
N192 N 0.28233 0.16921 0.56165 0.0
N193 N 0.17144 0.12769 0.50851 0.0
C194 C 0.25161 0.12471 0.4882 0.0
C195 C 0.31126 0.14763 0.51672 0.0
C196 C 0.34928 0.94989 0.5102 0.0
C197 C 0.39914 0.89617 0.5035 0.0
C198 C 0.27807 0.96455 0.48328 0.0
C199 C 0.25542 0.92652 0.44818 0.0
H200 H 0.36736 0.98152 0.53509 0.0
H201 H 0.2408 1.0059 0.48976 0.0
S202 S 0.36344 0.77985 0.41825 0.0
N203 N 0.41903 0.80403 0.46084 0.0
N204 N 0.28584 0.83171 0.40992 0.0
C205 C 0.30251 0.87171 0.4428 0.0
C206 C 0.37437 0.85657 0.4705 0.0
C207 C 0.75826 0.18976 0.52097 0.0
C208 C 0.68474 0.18319 0.49709 0.0
C209 C 0.83853 0.17134 0.49819 0.0
C210 C 0.84692 0.14491 0.45153 0.0
H211 H 0.75363 0.20897 0.55727 0.0
H212 H 0.89425 0.1776 0.51709 0.0
S213 S 0.67527 0.12426 0.3714 0.0
N214 N 0.62685 0.15454 0.42179 0.0
N215 N 0.77684 0.11653 0.38109 0.0
C216 C 0.77436 0.13868 0.42727 0.0
C217 C 0.69341 0.15886 0.4495 0.0
loop_
_geom_bond_atom_site_label_1
_geom_bond_atom_site_label_2
_geom_bond_distance
_geom_bond_site_symmetry_2
_ccdc_geom_bond_type
H0 C3 0.929 . S
H1 C6 0.929 . S
H2 C8 0.930 1_655 S
C3 H0 0.929 . S
C3 C4 1.398 . S
C3 C5 1.396 . S
C4 C3 1.398 . S
C4 C8 1.407 1_556 S
C5 C3 1.396 . S
C5 C6 1.394 1_556 S
C6 H1 0.929 . S
C6 C5 1.394 1_554 S
C6 C7 1.382 . S
C7 C6 1.382 . S
C7 C8 1.392 . S
C7 N9 1.420 . S
C8 H2 0.930 1_455 S
C8 C4 1.407 1_554 S
C8 C7 1.392 . S
N9 C7 1.420 . S
N9 C10 1.244 . S
C10 N9 1.244 . S
H11 C14 0.929 . S
H12 C17 0.929 . S
H13 C19 0.930 . S
C14 H11 0.929 . S
C14 C15 1.398 1_455 S
C14 C16 1.396 . S
C15 C14 1.398 1_655 S
C15 C19 1.407 1_556 S
C16 C14 1.396 . S
C16 C17 1.394 1_556 S
C17 H12 0.929 . S
C17 C16 1.394 1_554 S
C17 C18 1.382 1_455 S
C18 C17 1.382 1_655 S
C18 C19 1.392 . S
C18 N20 1.420 . S
C19 H13 0.930 . S
C19 C15 1.407 1_554 S
C19 C18 1.392 . S
N20 C18 1.420 . S
N20 C21 1.244 1_655 S
C21 N20 1.244 1_455 S
H22 C25 0.929 . S
H23 C28 0.929 . S
H24 C30 0.930 . S
C25 H22 0.929 . S
C25 C26 1.398 . S
C25 C27 1.396 . S
C26 C25 1.398 . S
C26 C30 1.407 . S
C27 C25 1.396 . S
C27 C28 1.394 . S
C28 H23 0.929 . S
C28 C27 1.394 . S
C28 C29 1.382 . S
C29 C28 1.382 . S
C29 C30 1.392 . S
C29 N31 1.420 . S
C30 H24 0.930 . S
C30 C26 1.407 . S
C30 C29 1.392 . S
N31 C29 1.420 . S
N31 C32 1.244 . S
C32 N31 1.244 . S
H33 C36 0.929 . S
H34 C39 0.929 . S
H35 C41 0.930 . S
C36 H33 0.929 . S
C36 C37 1.398 . S
C36 C38 1.396 . S
C37 C36 1.398 . S
C37 C41 1.407 . S
C38 C36 1.396 . S
C38 C39 1.394 . S
C39 H34 0.929 . S
C39 C38 1.394 . S
C39 C40 1.382 . S
C40 C39 1.382 . S
C40 C41 1.392 . S
C40 N42 1.420 . S
C41 H35 0.930 . S
C41 C37 1.407 . S
C41 C40 1.392 . S
N42 C40 1.420 . S
N42 C43 1.244 . S
C43 N42 1.244 . S
Zn44 O50 1.920 . S
Zn44 O56 1.898 . S
Zn44 O59 1.905 1_455 S
Zn45 O53 1.905 . S
Zn45 O54 1.898 1_455 S
Zn45 O62 1.920 . S
Zn46 O49 2.080 . S
Zn46 O52 2.114 1_545 S
Zn46 O55 2.120 1_545 S
Zn46 O57 2.120 . S
Zn46 O58 2.114 1_455 S
Zn46 O61 2.080 1_545 S
C47 O52 1.166 . S
C47 O53 1.182 . S
C48 O54 1.167 . S
C48 O55 1.299 1_655 S
O49 Zn46 2.080 . S
O49 C63 1.305 . S
O50 Zn44 1.920 . S
O50 C63 1.234 . S
C51 O56 1.167 . S
C51 O57 1.299 . S
O52 Zn46 2.114 1_565 S
O52 C47 1.166 . S
O53 Zn45 1.905 . S
O53 C47 1.182 . S
O54 Zn45 1.898 1_655 S
O54 C48 1.167 . S
O55 Zn46 2.120 1_565 S
O55 C48 1.299 1_455 S
O56 Zn44 1.898 . S
O56 C51 1.167 . S
O57 Zn46 2.120 . S
O57 C51 1.299 . S
O58 Zn46 2.114 1_655 S
O58 C60 1.166 . S
O59 Zn44 1.905 1_655 S
O59 C60 1.182 . S
C60 O58 1.166 . S
C60 O59 1.182 . S
O61 Zn46 2.080 1_565 S
O61 C64 1.305 . S
O62 Zn45 1.920 . S
O62 C64 1.234 . S
C63 O49 1.305 . S
C63 O50 1.234 . S
C64 O61 1.305 . S
C64 O62 1.234 . S
Zn65 O71 1.920 . S
Zn65 O77 1.898 . S
Zn65 O80 1.905 . S
Zn66 O74 1.905 . S
Zn66 O75 1.898 . S
Zn66 O83 1.920 . S
Zn67 O70 2.080 . S
Zn67 O73 2.114 . S
Zn67 O76 2.120 . S
Zn67 O78 2.120 . S
Zn67 O79 2.114 . S
Zn67 O82 2.080 . S
C68 O73 1.166 . S
C68 O74 1.182 . S
C69 O75 1.167 . S
C69 O76 1.299 . S
O70 Zn67 2.080 . S
O70 C84 1.305 . S
O71 Zn65 1.920 . S
O71 C84 1.234 . S
C72 O77 1.167 . S
C72 O78 1.299 . S
O73 Zn67 2.114 . S
O73 C68 1.166 . S
O74 Zn66 1.905 . S
O74 C68 1.182 . S
O75 Zn66 1.898 . S
O75 C69 1.167 . S
O76 Zn67 2.120 . S
O76 C69 1.299 . S
O77 Zn65 1.898 . S
O77 C72 1.167 . S
O78 Zn67 2.120 . S
O78 C72 1.299 . S
O79 Zn67 2.114 . S
O79 C81 1.166 . S
O80 Zn65 1.905 . S
O80 C81 1.182 . S
C81 O79 1.166 . S
C81 O80 1.182 . S
O82 Zn67 2.080 . S
O82 C85 1.305 . S
O83 Zn66 1.920 . S
O83 C85 1.234 . S
C84 O70 1.305 . S
C84 O71 1.234 . S
C85 O82 1.305 . S
C85 O83 1.234 . S
C86 C87 1.369 . S
C86 C88 1.419 . S
C86 H90 0.930 . S
C87 C86 1.369 . S
C87 C96 1.429 . S
C88 C86 1.419 . S
C88 C89 1.363 . S
C88 H91 0.929 . S
C89 C88 1.363 . S
C89 C95 1.428 . S
H90 C86 0.930 . S
H91 C88 0.929 . S
S92 N93 1.613 . S
S92 N94 1.610 . S
N93 S92 1.613 . S
N93 C96 1.350 . S
N94 S92 1.610 . S
N94 C95 1.351 . S
C95 C89 1.428 . S
C95 N94 1.351 . S
C95 C96 1.434 . S
C96 C87 1.429 . S
C96 N93 1.350 . S
C96 C95 1.434 . S
C97 C98 1.369 1_655 S
C97 C99 1.419 . S
C97 H101 0.930 . S
C98 C97 1.369 1_455 S
C98 C107 1.429 . S
C99 C97 1.419 . S
C99 C100 1.363 1_655 S
C99 H102 0.929 . S
C100 C99 1.363 1_455 S
C100 C106 1.428 . S
H101 C97 0.930 . S
H102 C99 0.929 . S
S103 N104 1.613 . S
S103 N105 1.610 . S
N104 S103 1.613 . S
N104 C107 1.350 . S
N105 S103 1.610 . S
N105 C106 1.351 . S
C106 C100 1.428 . S
C106 N105 1.351 . S
C106 C107 1.434 . S
C107 C98 1.429 . S
C107 N104 1.350 . S
C107 C106 1.434 . S
C108 C109 1.369 . S
C108 C110 1.419 . S
C108 H112 0.930 . S
C109 C108 1.369 . S
C109 C118 1.429 . S
C110 C108 1.419 . S
C110 C111 1.363 . S
C110 H113 0.929 . S
C111 C110 1.363 . S
C111 C117 1.428 . S
H112 C108 0.930 . S
H113 C110 0.929 . S
S114 N115 1.613 . S
S114 N116 1.610 . S
N115 S114 1.613 . S
N115 C118 1.350 . S
N116 S114 1.610 . S
N116 C117 1.351 . S
C117 C111 1.428 . S
C117 N116 1.351 . S
C117 C118 1.434 . S
C118 C109 1.429 . S
C118 N115 1.350 . S
C118 C117 1.434 . S
C119 C120 1.369 . S
C119 C121 1.419 . S
C119 H123 0.930 . S
C120 C119 1.369 . S
C120 C129 1.429 . S
C121 C119 1.419 . S
C121 C122 1.363 . S
C121 H124 0.929 . S
C122 C121 1.363 . S
C122 C128 1.428 . S
H123 C119 0.930 . S
H124 C121 0.929 . S
S125 N126 1.613 . S
S125 N127 1.610 . S
N126 S125 1.613 . S
N126 C129 1.350 . S
N127 S125 1.610 . S
N127 C128 1.351 . S
C128 C122 1.428 . S
C128 N127 1.351 . S
C128 C129 1.434 . S
C129 C120 1.429 . S
C129 N126 1.350 . S
C129 C128 1.434 . S
C130 C131 1.369 . S
C130 C132 1.419 . S
C130 H134 0.930 . S
C131 C130 1.369 . S
C131 C140 1.429 . S
C132 C130 1.419 . S
C132 C133 1.363 . S
C132 H135 0.929 . S
C133 C132 1.363 . S
C133 C139 1.428 . S
H134 C130 0.930 . S
H135 C132 0.929 . S
S136 N137 1.613 . S
S136 N138 1.610 . S
N137 S136 1.613 . S
N137 C140 1.350 . S
N138 S136 1.610 . S
N138 C139 1.351 . S
C139 C133 1.428 . S
C139 N138 1.351 . S
C139 C140 1.434 . S
C140 C131 1.429 . S
C140 N137 1.350 . S
C140 C139 1.434 . S
C141 C142 1.369 . S
C141 C143 1.419 . S
C141 H145 0.930 . S
C142 C141 1.369 . S
C142 C151 1.429 1_556 S
C143 C141 1.419 . S
C143 C144 1.363 . S
C143 H146 0.929 . S
C144 C143 1.363 . S
C144 C150 1.428 1_556 S
H145 C141 0.930 . S
H146 C143 0.929 . S
S147 N148 1.613 . S
S147 N149 1.610 . S
N148 S147 1.613 . S
N148 C151 1.350 . S
N149 S147 1.610 . S
N149 C150 1.351 . S
C150 C144 1.428 1_554 S
C150 N149 1.351 . S
C150 C151 1.434 . S
C151 C142 1.429 1_554 S
C151 N148 1.350 . S
C151 C150 1.434 . S
C152 C153 1.369 . S
C152 C154 1.419 . S
C152 H156 0.930 . S
C153 C152 1.369 . S
C153 C162 1.429 . S
C154 C152 1.419 . S
C154 C155 1.363 . S
C154 H157 0.929 . S
C155 C154 1.363 . S
C155 C161 1.428 . S
H156 C152 0.930 . S
H157 C154 0.929 . S
S158 N159 1.613 . S
S158 N160 1.610 1_455 S
N159 S158 1.613 . S
N159 C162 1.350 1_455 S
N160 S158 1.610 1_655 S
N160 C161 1.351 . S
C161 C155 1.428 . S
C161 N160 1.351 . S
C161 C162 1.434 . S
C162 C153 1.429 . S
C162 N159 1.350 1_655 S
C162 C161 1.434 . S
C163 C164 1.369 . S
C163 C165 1.419 . S
C163 H167 0.930 1_556 S
C164 C163 1.369 . S
C164 C173 1.429 . S
C165 C163 1.419 . S
C165 C166 1.363 . S
C165 H168 0.929 . S
C166 C165 1.363 . S
C166 C172 1.428 . S
H167 C163 0.930 1_554 S
H168 C165 0.929 . S
S169 N170 1.613 . S
S169 N171 1.610 . S
N170 S169 1.613 . S
N170 C173 1.350 . S
N171 S169 1.610 . S
N171 C172 1.351 . S
C172 C166 1.428 . S
C172 N171 1.351 . S
C172 C173 1.434 . S
C173 C164 1.429 . S
C173 N170 1.350 . S
C173 C172 1.434 . S
C174 C175 1.369 . S
C174 C176 1.419 . S
C174 H178 0.930 . S
C175 C174 1.369 . S
C175 C184 1.429 . S
C176 C174 1.419 . S
C176 C177 1.363 . S
C176 H179 0.929 . S
C177 C176 1.363 . S
C177 C183 1.428 . S
H178 C174 0.930 . S
H179 C176 0.929 . S
S180 N181 1.613 . S
S180 N182 1.610 . S
N181 S180 1.613 . S
N181 C184 1.350 . S
N182 S180 1.610 . S
N182 C183 1.351 . S
C183 C177 1.428 . S
C183 N182 1.351 . S
C183 C184 1.434 . S
C184 C175 1.429 . S
C184 N181 1.350 . S
C184 C183 1.434 . S
C185 C186 1.369 . S
C185 C187 1.419 . S
C185 H189 0.930 . S
C186 C185 1.369 . S
C186 C195 1.429 . S
C187 C185 1.419 . S
C187 C188 1.363 . S
C187 H190 0.929 . S
C188 C187 1.363 . S
C188 C194 1.428 . S
H189 C185 0.930 . S
H190 C187 0.929 . S
S191 N192 1.613 . S
S191 N193 1.610 . S
N192 S191 1.613 . S
N192 C195 1.350 . S
N193 S191 1.610 . S
N193 C194 1.351 . S
C194 C188 1.428 . S
C194 N193 1.351 . S
C194 C195 1.434 . S
C195 C186 1.429 . S
C195 N192 1.350 . S
C195 C194 1.434 . S
C196 C197 1.369 . S
C196 C198 1.419 . S
C196 H200 0.930 . S
C197 C196 1.369 . S
C197 C206 1.429 . S
C198 C196 1.419 . S
C198 C199 1.363 . S
C198 H201 0.929 . S
C199 C198 1.363 . S
C199 C205 1.428 . S
H200 C196 0.930 . S
H201 C198 0.929 . S
S202 N203 1.613 . S
S202 N204 1.610 . S
N203 S202 1.613 . S
N203 C206 1.350 . S
N204 S202 1.610 . S
N204 C205 1.351 . S
C205 C199 1.428 . S
C205 N204 1.351 . S
C205 C206 1.434 . S
C206 C197 1.429 . S
C206 N203 1.350 . S
C206 C205 1.434 . S
C207 C208 1.369 . S
C207 C209 1.419 . S
C207 H211 0.930 . S
C208 C207 1.369 . S
C208 C217 1.429 . S
C209 C207 1.419 . S
C209 C210 1.363 . S
C209 H212 0.929 . S
C210 C209 1.363 . S
C210 C216 1.428 . S
H211 C207 0.930 . S
H212 C209 0.929 . S
S213 N214 1.613 . S
S213 N215 1.610 . S
N214 S213 1.613 . S
N214 C217 1.350 . S
N215 S213 1.610 . S
N215 C216 1.351 . S
C216 C210 1.428 . S
C216 N215 1.351 . S
C216 C217 1.434 . S
C217 C208 1.429 . S
C217 N214 1.350 . S
C217 C216 1.434 . S
C89 C51 1.427 . S
C87 C10 1.537 . S
C100 C47 1.412 . S
C98 C21 1.502 . S
C111 C72 1.427 . S
C109 C32 1.537 . S
C120 C43 1.502 . S
C122 C68 1.416 . S
C131 C5 1.349 . S
C133 C69 1.191 . S
C144 C84 1.201 . S
C142 C15 1.362 . S
C153 C4 1.678 1_655 S
C155 C85 1.543 . S
C166 C81 1.569 . S
C164 C16 1.693 . S
C177 C48 1.193 . S
C175 C27 1.351 . S
C186 C37 1.361 . S
C188 C63 1.200 . S
C199 C64 1.535 . S
C197 C26 1.681 . S
C210 C60 1.570 . S
C208 C38 1.693 . S
