# Generated by pormake.
# Topology ftw, (4,12)-cn, num edge types: 1
# Building blocks:
#     Node 0, Type 0, BuildingBlock: MIFKUJ_clean_linker_1, # of connection points: 4
#     Node 1, Type 0, BuildingBlock: MIFKUJ_clean_linker_1, # of connection points: 4
#     Node 2, Type 0, BuildingBlock: MIFKUJ_clean_linker_1, # of connection points: 4
#     Node 3, Type 1, BuildingBlock: EZIPEK_clean_sbu_0, # of connection points: 12
#     Edge 4, Type (0, 1), BuildingBlock: EYOCIG_clean_linker_4, # of connection points: 2
#     Edge 5, Type (0, 1), BuildingBlock: EYOCIG_clean_linker_4, # of connection points: 2
#     Edge 6, Type (0, 1), BuildingBlock: EYOCIG_clean_linker_4, # of connection points: 2
#     Edge 7, Type (0, 1), BuildingBlock: EYOCIG_clean_linker_4, # of connection points: 2
#     Edge 8, Type (0, 1), BuildingBlock: EYOCIG_clean_linker_4, # of connection points: 2
#     Edge 9, Type (0, 1), BuildingBlock: EYOCIG_clean_linker_4, # of connection points: 2
#     Edge 10, Type (0, 1), BuildingBlock: EYOCIG_clean_linker_4, # of connection points: 2
#     Edge 11, Type (0, 1), BuildingBlock: EYOCIG_clean_linker_4, # of connection points: 2
#     Edge 12, Type (0, 1), BuildingBlock: EYOCIG_clean_linker_4, # of connection points: 2
#     Edge 13, Type (0, 1), BuildingBlock: EYOCIG_clean_linker_4, # of connection points: 2
#     Edge 14, Type (0, 1), BuildingBlock: EYOCIG_clean_linker_4, # of connection points: 2
#     Edge 15, Type (0, 1), BuildingBlock: EYOCIG_clean_linker_4, # of connection points: 2
# Relax obj value: 0.048
# Max RMSD: 0.168
# Mean RMSD: 0.128
data_MOF--net-ftw--node1-EZIPEK_clean_sbu_0--node2-MIFKUJ_clean_linker_1--edge1-EYOCIG_clean_linker_4
_symmetry_space_group_name_H-M    P1
_symmetry_Int_Tables_number       1
_symmetry_cell_setting            triclinic
loop_
_symmetry_equiv_pos_as_xyz
'x, y, z'
_cell_length_a     23.567502
_cell_length_b     24.179065
_cell_length_c     23.762287
_cell_angle_alpha  90.019773
_cell_angle_beta   90.067167
_cell_angle_gamma 90.031826
loop_
_atom_site_label
_atom_site_type_symbol
_atom_site_fract_x
_atom_site_fract_y
_atom_site_fract_z
_atom_type_partial_charge
H0 H 0.07402 0.61317 0.61006 0.0
H1 H 0.071 0.68668 0.68105 0.0
H2 H 0.90675 0.73728 0.61998 0.0
H3 H 0.90938 0.66324 0.54892 0.0
H4 H 0.00186 0.53058 0.6128 0.0
H5 H 0.05651 0.66392 0.47107 0.0
H6 H 0.05846 0.73759 0.39965 0.0
H7 H 0.89512 0.68444 0.3382 0.0
H8 H 0.89276 0.61132 0.40958 0.0
H9 H 0.89333 0.447 0.41054 0.0
H10 H 0.89636 0.37352 0.33953 0.0
H11 H 0.06061 0.32291 0.40061 0.0
H12 H 0.05796 0.39693 0.47169 0.0
H13 H 0.96548 0.52959 0.40781 0.0
H14 H 0.91077 0.3963 0.54951 0.0
H15 H 0.9087 0.32267 0.62095 0.0
H16 H 0.07203 0.37571 0.68251 0.0
H17 H 0.07451 0.4488 0.6111 0.0
C18 C -0.00797 0.63263 0.57383 0.0
C19 C 0.03781 0.64074 0.61101 0.0
C20 C 0.03605 0.68256 0.65167 0.0
C21 C -0.01151 0.71699 0.65597 0.0
C22 C 0.94385 0.71098 0.61727 0.0
C23 C 0.9456 0.66906 0.57641 0.0
C24 C -0.01078 0.5812 0.53936 0.0
C25 C -0.005 0.53036 0.56764 0.0
C26 C 0.97766 0.58092 0.48087 0.0
C27 C 0.97436 0.63206 0.44602 0.0
C28 C 0.02033 0.66909 0.44342 0.0
C29 C 0.02169 0.7108 0.40234 0.0
C30 C 0.97713 0.716 0.36344 0.0
C31 C 0.93001 0.68095 0.36774 0.0
C32 C 0.92863 0.63936 0.40861 0.0
C33 C 0.97532 0.42754 0.44677 0.0
C34 C 0.92954 0.41943 0.40959 0.0
C35 C 0.93131 0.37763 0.36892 0.0
C36 C 0.97887 0.3432 0.36461 0.0
C37 C 0.02351 0.3492 0.40332 0.0
C38 C 0.02175 0.39111 0.4442 0.0
C39 C 0.97813 0.47896 0.48125 0.0
C40 C 0.97235 0.5298 0.45297 0.0
C41 C -0.01031 0.47924 0.53974 0.0
C42 C -0.00707 0.42811 0.57461 0.0
C43 C 0.94692 0.39111 0.57719 0.0
C44 C 0.94549 0.34942 0.61828 0.0
C45 C -0.00999 0.34421 0.65722 0.0
C46 C 0.03717 0.37921 0.65294 0.0
C47 C 0.03862 0.42079 0.61205 0.0
H48 H 0.38962 0.12115 0.42185 0.0
H49 H 0.31919 0.11789 0.34592 0.0
H50 H 0.37342 0.95274 0.30329 0.0
H51 H 0.44371 0.95563 0.37961 0.0
H52 H 0.38088 0.05194 0.50891 0.0
H53 H 0.52553 0.10163 0.37868 0.0
H54 H 0.59694 0.10289 0.30356 0.0
H55 H 0.6514 0.93922 0.35143 0.0
H56 H 0.57979 0.93754 0.42619 0.0
H57 H 0.57679 0.93863 0.59862 0.0
H58 H 0.64725 0.94128 0.67456 0.0
H59 H 0.59411 0.10668 0.71753 0.0
H60 H 0.52379 0.10439 0.64122 0.0
H61 H 0.58616 1.00839 0.51174 0.0
H62 H 0.44106 0.95893 0.64203 0.0
H63 H 0.36964 0.95814 0.71714 0.0
H64 H 0.31616 0.12209 0.66911 0.0
H65 H 0.3878 0.12328 0.59435 0.0
C66 C 0.42173 0.03865 0.40618 0.0
C67 C 0.38728 0.08476 0.39531 0.0
C68 C 0.34724 0.08292 0.35222 0.0
C69 C 0.34135 0.03497 0.31982 0.0
C70 C 0.37782 0.99006 0.3282 0.0
C71 C 0.41799 0.99186 0.37135 0.0
C72 C 0.45501 0.03632 0.45863 0.0
C73 C 0.42612 0.04357 0.50952 0.0
C74 C 0.51311 1.02287 0.45944 0.0
C75 C 0.54747 1.01943 0.4078 0.0
C76 C 0.55156 0.06533 0.37185 0.0
C77 C 0.59239 0.06623 0.32939 0.0
C78 C 0.6292 1.0213 0.32278 0.0
C79 C 0.6231 0.9742 0.35636 0.0
C80 C 0.58238 0.97325 0.39878 0.0
C81 C 0.54523 1.0213 0.61446 0.0
C82 C 0.57937 0.97494 0.62525 0.0
C83 C 0.61942 0.97644 0.66834 0.0
C84 C 0.62564 1.02429 0.70083 0.0
C85 C 0.58945 0.06944 0.69255 0.0
C86 C 0.54927 0.06798 0.6494 0.0
C87 C 0.51201 1.02395 0.562 0.0
C88 C 0.54091 1.01677 0.51112 0.0
C89 C 0.45394 0.03753 0.5612 0.0
C90 C 0.41962 0.04122 0.61284 0.0
C91 C 0.41525 0.99538 0.64883 0.0
C92 C 0.37442 0.99476 0.69129 0.0
C93 C 0.33787 0.0399 0.69784 0.0
C94 C 0.34426 0.08694 0.66423 0.0
C95 C 0.38499 0.08761 0.62181 0.0
H96 H 0.58243 0.61357 0.91924 0.0
H97 H 0.65285 0.6882 0.92169 0.0
H98 H 0.59245 0.7377 0.08533 0.0
H99 H 0.52206 0.6626 0.08329 0.0
H100 H 0.58675 0.53071 0.99112 0.0
H101 H 0.44371 0.66213 0.93651 0.0
H102 H 0.37266 0.73654 0.93438 0.0
H103 H 0.31225 0.68633 0.09778 0.0
H104 H 0.38336 0.6124 0.10033 0.0
H105 H 0.38481 0.44669 0.10084 0.0
H106 H 0.31437 0.37208 0.0986 0.0
H107 H 0.37445 0.32239 0.9349 0.0
H108 H 0.44486 0.39748 0.93674 0.0
H109 H 0.38031 0.52946 0.02879 0.0
H110 H 0.52338 0.3981 0.08344 0.0
H111 H 0.59447 0.32372 0.08562 0.0
H112 H 0.65484 0.37383 0.92217 0.0
H113 H 0.58369 0.44772 0.91957 0.0
C114 C 0.5468 0.63253 1.001 0.0
C115 C 0.58345 0.64114 0.95519 0.0
C116 C 0.62367 0.68357 0.95659 0.0
C117 C 0.62789 0.71793 1.00383 0.0
C118 C 0.58964 0.71141 0.0485 0.0
C119 C 0.54924 0.66889 0.04712 0.0
C120 C 0.5126 0.58104 1.00396 0.0
C121 C 0.54127 0.53043 0.99825 0.0
C122 C 0.45385 0.58069 0.01581 0.0
C123 C 0.41904 0.63177 0.01869 0.0
C124 C 0.41637 0.66811 0.97261 0.0
C125 C 0.37559 0.71023 0.97117 0.0
C126 C 0.33717 0.71636 0.01576 0.0
C127 C 0.34155 0.68199 0.06294 0.0
C128 C 0.38217 0.63997 0.06441 0.0
C129 C 0.42028 0.42764 0.01903 0.0
C130 C 0.38371 0.41908 0.06493 0.0
C131 C 0.34348 0.37666 0.06364 0.0
C132 C 0.33916 0.34225 0.01645 0.0
C133 C 0.37733 0.34872 0.9717 0.0
C134 C 0.41774 0.39123 0.97296 0.0
C135 C 0.45447 0.47913 0.01596 0.0
C136 C 0.42579 0.52974 0.02164 0.0
C137 C 0.51321 0.47947 1.00408 0.0
C138 C 0.54802 0.4284 1.00123 0.0
C139 C 0.55072 0.39209 0.04734 0.0
C140 C 0.59152 0.35 0.04881 0.0
C141 C 0.62994 0.34385 1.00423 0.0
C142 C 0.62554 0.37817 0.95701 0.0
C143 C 0.5849 0.42017 0.95551 0.0
C144 C -0.01651 0.16441 0.87323 0.0
C145 C -0.01495 0.16347 0.14843 0.0
C146 C 0.98216 0.89674 0.87213 0.0
C147 C -0.01652 0.8958 0.14742 0.0
C148 C 0.12082 0.89599 1.00915 0.0
C149 C 0.12245 0.16271 0.01026 0.0
C150 C 0.84457 0.89749 0.01041 0.0
C151 C 0.84628 0.16422 0.01126 0.0
C152 C 0.84755 1.02991 0.14628 0.0
C153 C 0.12189 1.0285 0.14419 0.0
C154 C 0.84517 0.03124 0.87641 0.0
C155 C 0.11951 0.03073 0.87432 0.0
Eu156 Eu -0.01582 0.13617 0.01074 0.0
O157 O 0.03419 0.07938 0.06023 0.0
O158 O 0.93353 0.08024 0.96081 0.0
Eu159 Eu 0.08968 1.02953 1.00951 0.0
Eu160 Eu 0.87738 0.03069 0.0111 0.0
O161 O 0.03324 0.07967 0.96011 0.0
O162 O 0.93434 0.07994 0.06099 0.0
Eu163 Eu 0.9826 0.03048 0.90366 0.0
Eu164 Eu -0.01555 1.02975 0.11694 0.0
O165 O 0.03267 0.98019 0.95967 0.0
O166 O 0.03345 0.97991 0.05973 0.0
O167 O 0.93386 0.98045 0.06045 0.0
O168 O 0.93295 0.98077 0.96045 0.0
Eu169 Eu 0.98288 0.92389 1.00987 0.0
O170 O -0.01583 0.18208 0.92661 0.0
O171 O -0.01528 0.18151 0.0952 0.0
O172 O 0.98236 0.87865 0.92535 0.0
O173 O 0.98291 0.87808 0.09405 0.0
O174 O 0.13772 0.94855 1.00887 0.0
O175 O 0.13873 0.10999 1.00985 0.0
O176 O 0.82832 0.95023 0.01092 0.0
O177 O 0.82935 0.11167 0.01148 0.0
O178 O 0.90109 1.02968 0.16424 0.0
O179 O 0.06866 1.02889 0.16296 0.0
O180 O 0.8984 0.03099 0.85765 0.0
O181 O 0.06596 0.03086 0.85637 0.0
O182 O 0.89794 0.87896 1.00995 0.0
O183 O 0.06723 0.87802 1.00958 0.0
O184 O 0.89989 0.18214 0.01096 0.0
O185 O 0.06906 0.1812 0.01063 0.0
O186 O -0.0149 0.11079 0.16499 0.0
O187 O -0.01583 0.94838 0.16435 0.0
O188 O 0.98271 0.11185 0.85627 0.0
O189 O 0.98218 0.94944 0.8556 0.0
O190 O 0.13704 0.03016 0.92745 0.0
O191 O 0.13848 1.02868 0.09081 0.0
O192 O 0.82857 0.03119 0.92979 0.0
O193 O 0.83001 0.03036 0.09315 0.0
C194 C -0.01578 0.27242 0.27912 0.0
C195 C 0.9829 0.30427 0.31843 0.0
C196 C -0.01505 0.23613 0.23211 0.0
C197 C -0.01501 0.20433 0.19274 0.0
C198 C 0.71635 1.02689 0.25408 0.0
C199 C 0.67632 1.02519 0.28515 0.0
C200 C 0.76418 1.02841 0.21912 0.0
C201 C 0.80394 1.02909 0.18769 0.0
C202 C 0.98203 0.78655 0.27775 0.0
C203 C 0.98083 0.7548 0.31713 0.0
C204 C 0.98283 0.82282 0.23075 0.0
C205 C 0.9831 0.85471 0.19147 0.0
C206 C 0.25457 1.02871 0.25055 0.0
C207 C 0.29454 0.03032 0.28178 0.0
C208 C 0.20645 1.02796 0.21587 0.0
C209 C 0.16622 1.0282 0.18493 0.0
C210 C 0.98313 0.78781 0.74143 0.0
C211 C -0.01553 0.75594 0.70214 0.0
C212 C 0.98237 0.8241 0.78843 0.0
C213 C 0.98227 0.85591 0.8278 0.0
C214 C 0.25067 0.03457 0.76651 0.0
C215 C 0.29068 0.03626 0.73542 0.0
C216 C 0.20285 0.03285 0.80148 0.0
C217 C 0.16311 0.03189 0.83292 0.0
C218 C -0.01501 0.27369 0.74293 0.0
C219 C -0.01375 0.30543 0.70354 0.0
C220 C -0.01584 0.23743 0.78994 0.0
C221 C -0.01612 0.20554 0.82921 0.0
C222 C 0.71248 0.03018 0.77005 0.0
C223 C 0.67252 1.02863 0.73881 0.0
C224 C 0.76061 0.03113 0.80474 0.0
C225 C 0.80083 0.03118 0.83568 0.0
C226 C 0.25395 0.27093 0.01153 0.0
C227 C 0.29314 0.30307 0.01271 0.0
C228 C 0.20685 0.2347 0.01078 0.0
C229 C 0.16721 0.20308 0.01055 0.0
C230 C 0.25164 0.78719 0.0105 0.0
C231 C 0.29096 0.75526 0.01188 0.0
C232 C 0.20458 0.82341 1.00959 0.0
C233 C 0.16513 0.85521 1.0094 0.0
C234 C 0.71551 0.27306 1.00959 0.0
C235 C 0.67618 0.30498 1.00814 0.0
C236 C 0.76257 0.23684 0.0106 0.0
C237 C 0.80201 0.20503 0.0109 0.0
C238 C 0.71306 0.78929 1.00897 0.0
C239 C 0.67388 0.75714 1.0077 0.0
C240 C 0.76014 0.82554 1.00982 0.0
C241 C 0.79979 0.85715 1.01008 0.0
loop_
_geom_bond_atom_site_label_1
_geom_bond_atom_site_label_2
_geom_bond_distance
_geom_bond_site_symmetry_2
_ccdc_geom_bond_type
H0 C19 0.949 . S
H1 C20 0.950 . S
H2 C22 0.950 . S
H3 C23 0.950 . S
H4 C25 0.950 . S
H5 C28 0.950 . S
H6 C29 0.950 . S
H7 C31 0.951 . S
H8 C32 0.949 . S
H9 C34 0.949 . S
H10 C35 0.950 . S
H11 C37 0.950 . S
H12 C38 0.950 . S
H13 C40 0.950 . S
H14 C43 0.950 . S
H15 C44 0.950 . S
H16 C46 0.951 . S
H17 C47 0.949 . S
C18 C19 1.376 . S
C18 C23 1.386 1_455 S
C18 C24 1.483 . S
C19 H0 0.949 . S
C19 C18 1.376 . S
C19 C20 1.397 . S
C20 H1 0.950 . S
C20 C19 1.397 . S
C20 C21 1.391 . S
C21 C20 1.391 . S
C21 C22 1.405 1_455 S
C22 H2 0.950 . S
C22 C21 1.405 1_655 S
C22 C23 1.367 . S
C23 H3 0.950 . S
C23 C18 1.386 1_655 S
C23 C22 1.367 . S
C24 C18 1.483 . S
C24 C25 1.382 . S
C24 C26 1.403 1_455 S
C25 H4 0.950 . S
C25 C24 1.382 . S
C25 C41 1.411 . S
C26 C24 1.403 1_655 S
C26 C27 1.489 . S
C26 C40 1.411 . S
C27 C26 1.489 . S
C27 C28 1.383 1_655 S
C27 C32 1.382 . S
C28 H5 0.950 . S
C28 C27 1.383 1_455 S
C28 C29 1.395 . S
C29 H6 0.950 . S
C29 C28 1.395 . S
C29 C30 1.288 1_455 S
C30 C29 1.288 1_655 S
C30 C31 1.392 . S
C31 H7 0.951 . S
C31 C30 1.392 . S
C31 C32 1.392 . S
C32 H8 0.949 . S
C32 C27 1.382 . S
C32 C31 1.392 . S
C33 C34 1.376 . S
C33 C38 1.386 1_655 S
C33 C39 1.483 . S
C34 H9 0.949 . S
C34 C33 1.376 . S
C34 C35 1.397 . S
C35 H10 0.950 . S
C35 C34 1.397 . S
C35 C36 1.391 . S
C36 C35 1.391 . S
C36 C37 1.405 1_655 S
C37 H11 0.950 . S
C37 C36 1.405 1_455 S
C37 C38 1.367 . S
C38 H12 0.950 . S
C38 C33 1.386 1_455 S
C38 C37 1.367 . S
C39 C33 1.483 . S
C39 C40 1.382 . S
C39 C41 1.403 1_655 S
C40 H13 0.950 . S
C40 C26 1.411 . S
C40 C39 1.382 . S
C41 C25 1.411 . S
C41 C39 1.403 1_455 S
C41 C42 1.489 . S
C42 C41 1.489 . S
C42 C43 1.383 1_455 S
C42 C47 1.382 . S
C43 H14 0.950 . S
C43 C42 1.383 1_655 S
C43 C44 1.395 . S
C44 H15 0.950 . S
C44 C43 1.395 . S
C44 C45 1.288 1_655 S
C45 C44 1.288 1_455 S
C45 C46 1.392 . S
C46 H16 0.951 . S
C46 C45 1.392 . S
C46 C47 1.392 . S
C47 H17 0.949 . S
C47 C42 1.382 . S
C47 C46 1.392 . S
H48 C67 0.949 . S
H49 C68 0.950 . S
H50 C70 0.950 . S
H51 C71 0.950 . S
H52 C73 0.950 . S
H53 C76 0.950 . S
H54 C77 0.950 . S
H55 C79 0.951 . S
H56 C80 0.949 . S
H57 C82 0.949 . S
H58 C83 0.950 . S
H59 C85 0.950 . S
H60 C86 0.950 . S
H61 C88 0.950 . S
H62 C91 0.950 . S
H63 C92 0.950 . S
H64 C94 0.951 . S
H65 C95 0.949 . S
C66 C67 1.376 . S
C66 C71 1.386 1_545 S
C66 C72 1.483 . S
C67 H48 0.949 . S
C67 C66 1.376 . S
C67 C68 1.397 . S
C68 H49 0.950 . S
C68 C67 1.397 . S
C68 C69 1.391 . S
C69 C68 1.391 . S
C69 C70 1.405 1_545 S
C70 H50 0.950 . S
C70 C69 1.405 1_565 S
C70 C71 1.367 . S
C71 H51 0.950 . S
C71 C66 1.386 1_565 S
C71 C70 1.367 . S
C72 C66 1.483 . S
C72 C73 1.382 . S
C72 C74 1.403 1_545 S
C73 H52 0.950 . S
C73 C72 1.382 . S
C73 C89 1.411 . S
C74 C72 1.403 1_565 S
C74 C75 1.489 . S
C74 C88 1.411 . S
C75 C74 1.489 . S
C75 C76 1.383 1_565 S
C75 C80 1.382 . S
C76 H53 0.950 . S
C76 C75 1.383 1_545 S
C76 C77 1.395 . S
C77 H54 0.950 . S
C77 C76 1.395 . S
C77 C78 1.288 1_545 S
C78 C77 1.288 1_565 S
C78 C79 1.392 . S
C79 H55 0.951 . S
C79 C78 1.392 . S
C79 C80 1.392 . S
C80 H56 0.949 . S
C80 C75 1.382 . S
C80 C79 1.392 . S
C81 C82 1.376 . S
C81 C86 1.386 1_565 S
C81 C87 1.483 . S
C82 H57 0.949 . S
C82 C81 1.376 . S
C82 C83 1.397 . S
C83 H58 0.950 . S
C83 C82 1.397 . S
C83 C84 1.391 . S
C84 C83 1.391 . S
C84 C85 1.405 1_565 S
C85 H59 0.950 . S
C85 C84 1.405 1_545 S
C85 C86 1.367 . S
C86 H60 0.950 . S
C86 C81 1.386 1_545 S
C86 C85 1.367 . S
C87 C81 1.483 . S
C87 C88 1.382 . S
C87 C89 1.403 1_565 S
C88 H61 0.950 . S
C88 C74 1.411 . S
C88 C87 1.382 . S
C89 C73 1.411 . S
C89 C87 1.403 1_545 S
C89 C90 1.489 . S
C90 C89 1.489 . S
C90 C91 1.383 1_545 S
C90 C95 1.382 . S
C91 H62 0.950 . S
C91 C90 1.383 1_565 S
C91 C92 1.395 . S
C92 H63 0.950 . S
C92 C91 1.395 . S
C92 C93 1.288 1_565 S
C93 C92 1.288 1_545 S
C93 C94 1.392 . S
C94 H64 0.951 . S
C94 C93 1.392 . S
C94 C95 1.392 . S
C95 H65 0.949 . S
C95 C90 1.382 . S
C95 C94 1.392 . S
H96 C115 0.949 . S
H97 C116 0.950 . S
H98 C118 0.950 . S
H99 C119 0.950 . S
H100 C121 0.950 . S
H101 C124 0.950 . S
H102 C125 0.950 . S
H103 C127 0.951 . S
H104 C128 0.949 . S
H105 C130 0.949 . S
H106 C131 0.950 . S
H107 C133 0.950 . S
H108 C134 0.950 . S
H109 C136 0.950 . S
H110 C139 0.950 . S
H111 C140 0.950 . S
H112 C142 0.951 . S
H113 C143 0.949 . S
C114 C115 1.376 . S
C114 C119 1.386 1_556 S
C114 C120 1.483 . S
C115 H96 0.949 . S
C115 C114 1.376 . S
C115 C116 1.397 . S
C116 H97 0.950 . S
C116 C115 1.397 . S
C116 C117 1.391 . S
C117 C116 1.391 . S
C117 C118 1.405 1_556 S
C118 H98 0.950 . S
C118 C117 1.405 1_554 S
C118 C119 1.367 . S
C119 H99 0.950 . S
C119 C114 1.386 1_554 S
C119 C118 1.367 . S
C120 C114 1.483 . S
C120 C121 1.382 . S
C120 C122 1.403 1_556 S
C121 H100 0.950 . S
C121 C120 1.382 . S
C121 C137 1.411 . S
C122 C120 1.403 1_554 S
C122 C123 1.489 . S
C122 C136 1.411 . S
C123 C122 1.489 . S
C123 C124 1.383 1_554 S
C123 C128 1.382 . S
C124 H101 0.950 . S
C124 C123 1.383 1_556 S
C124 C125 1.395 . S
C125 H102 0.950 . S
C125 C124 1.395 . S
C125 C126 1.288 1_556 S
C126 C125 1.288 1_554 S
C126 C127 1.392 . S
C127 H103 0.951 . S
C127 C126 1.392 . S
C127 C128 1.392 . S
C128 H104 0.949 . S
C128 C123 1.382 . S
C128 C127 1.392 . S
C129 C130 1.376 . S
C129 C134 1.386 1_554 S
C129 C135 1.483 . S
C130 H105 0.949 . S
C130 C129 1.376 . S
C130 C131 1.397 . S
C131 H106 0.950 . S
C131 C130 1.397 . S
C131 C132 1.391 . S
C132 C131 1.391 . S
C132 C133 1.405 1_554 S
C133 H107 0.950 . S
C133 C132 1.405 1_556 S
C133 C134 1.367 . S
C134 H108 0.950 . S
C134 C129 1.386 1_556 S
C134 C133 1.367 . S
C135 C129 1.483 . S
C135 C136 1.382 . S
C135 C137 1.403 1_554 S
C136 H109 0.950 . S
C136 C122 1.411 . S
C136 C135 1.382 . S
C137 C121 1.411 . S
C137 C135 1.403 1_556 S
C137 C138 1.489 . S
C138 C137 1.489 . S
C138 C139 1.383 1_556 S
C138 C143 1.382 . S
C139 H110 0.950 . S
C139 C138 1.383 1_554 S
C139 C140 1.395 . S
C140 H111 0.950 . S
C140 C139 1.395 . S
C140 C141 1.288 1_554 S
C141 C140 1.288 1_556 S
C141 C142 1.392 . S
C142 H112 0.951 . S
C142 C141 1.392 . S
C142 C143 1.392 . S
C143 H113 0.949 . S
C143 C138 1.382 . S
C143 C142 1.392 . S
C144 O170 1.283 . S
C144 O188 1.283 . S
C145 O171 1.283 . S
C145 O186 1.283 . S
C146 O172 1.283 . S
C146 O189 1.283 . S
C147 O173 1.283 . S
C147 O187 1.283 . S
C148 O174 1.283 . S
C148 O183 1.283 . S
C149 O175 1.283 . S
C149 O185 1.283 . S
C150 O176 1.283 . S
C150 O182 1.283 . S
C151 O177 1.283 . S
C151 O184 1.283 . S
C152 O178 1.283 . S
C152 O193 1.283 . S
C153 O179 1.283 . S
C153 O191 1.283 . S
C154 O180 1.283 . S
C154 O192 1.283 . S
C155 O181 1.283 . S
C155 O190 1.283 . S
Eu156 O157 2.371 . S
Eu156 O158 2.369 1_454 S
Eu156 O161 2.370 1_554 S
Eu156 O162 2.370 1_455 S
Eu156 O170 2.362 1_554 S
Eu156 O171 2.363 . S
Eu156 O184 2.362 1_455 S
Eu156 O185 2.363 . S
O157 Eu156 2.371 . S
O157 Eu159 2.371 . S
O157 Eu164 2.371 . S
O158 Eu156 2.369 1_656 S
O158 Eu160 2.370 1_556 S
O158 Eu163 2.370 1_655 S
Eu159 O157 2.371 . S
Eu159 O161 2.370 1_554 S
Eu159 O165 2.369 1_544 S
Eu159 O166 2.370 1_545 S
Eu159 O174 2.362 1_545 S
Eu159 O175 2.364 . S
Eu159 O190 2.362 1_554 S
Eu159 O191 2.364 . S
Eu160 O158 2.370 1_554 S
Eu160 O162 2.369 . S
Eu160 O167 2.370 1_545 S
Eu160 O168 2.371 1_544 S
Eu160 O176 2.364 1_545 S
Eu160 O177 2.362 . S
Eu160 O192 2.364 1_554 S
Eu160 O193 2.362 . S
O161 Eu156 2.370 1_556 S
O161 Eu159 2.370 1_556 S
O161 Eu163 2.369 . S
O162 Eu156 2.370 1_655 S
O162 Eu160 2.369 . S
O162 Eu164 2.370 1_655 S
Eu163 O158 2.370 1_455 S
Eu163 O161 2.369 . S
Eu163 O165 2.370 1_545 S
Eu163 O168 2.371 1_445 S
Eu163 O180 2.363 1_455 S
Eu163 O181 2.362 . S
Eu163 O188 2.362 . S
Eu163 O189 2.363 1_545 S
Eu164 O157 2.371 . S
Eu164 O162 2.370 1_455 S
Eu164 O166 2.370 1_545 S
Eu164 O167 2.369 1_445 S
Eu164 O178 2.362 1_455 S
Eu164 O179 2.363 . S
Eu164 O186 2.363 . S
Eu164 O187 2.362 1_545 S
O165 Eu159 2.369 1_566 S
O165 Eu163 2.370 1_565 S
O165 Eu169 2.370 1_556 S
O166 Eu159 2.370 1_565 S
O166 Eu164 2.370 1_565 S
O166 Eu169 2.369 . S
O167 Eu160 2.370 1_565 S
O167 Eu164 2.369 1_665 S
O167 Eu169 2.370 1_655 S
O168 Eu160 2.371 1_566 S
O168 Eu163 2.371 1_665 S
O168 Eu169 2.371 1_656 S
Eu169 O165 2.370 1_554 S
Eu169 O166 2.369 . S
Eu169 O167 2.370 1_455 S
Eu169 O168 2.371 1_454 S
Eu169 O172 2.363 1_554 S
Eu169 O173 2.362 . S
Eu169 O182 2.363 1_455 S
Eu169 O183 2.362 . S
O170 C144 1.283 . S
O170 Eu156 2.362 1_556 S
O171 C145 1.283 . S
O171 Eu156 2.363 . S
O172 C146 1.283 . S
O172 Eu169 2.363 1_556 S
O173 C147 1.283 . S
O173 Eu169 2.362 . S
O174 C148 1.283 . S
O174 Eu159 2.362 1_565 S
O175 C149 1.283 . S
O175 Eu159 2.364 . S
O176 C150 1.283 . S
O176 Eu160 2.364 1_565 S
O177 C151 1.283 . S
O177 Eu160 2.362 . S
O178 C152 1.283 . S
O178 Eu164 2.362 1_655 S
O179 C153 1.283 . S
O179 Eu164 2.363 . S
O180 C154 1.283 . S
O180 Eu163 2.363 1_655 S
O181 C155 1.283 . S
O181 Eu163 2.362 . S
O182 C150 1.283 . S
O182 Eu169 2.363 1_655 S
O183 C148 1.283 . S
O183 Eu169 2.362 . S
O184 C151 1.283 . S
O184 Eu156 2.362 1_655 S
O185 C149 1.283 . S
O185 Eu156 2.363 . S
O186 C145 1.283 . S
O186 Eu164 2.363 . S
O187 C147 1.283 . S
O187 Eu164 2.362 1_565 S
O188 C144 1.283 . S
O188 Eu163 2.362 . S
O189 C146 1.283 . S
O189 Eu163 2.363 1_565 S
O190 C155 1.283 . S
O190 Eu159 2.362 1_556 S
O191 C153 1.283 . S
O191 Eu159 2.364 . S
O192 C154 1.283 . S
O192 Eu160 2.364 1_556 S
O193 C152 1.283 . S
O193 Eu160 2.362 . S
C194 C195 1.170 . S
C194 C196 1.380 . S
C195 C194 1.170 . S
C196 C194 1.380 . S
C196 C197 1.170 1_655 S
C197 C196 1.170 1_455 S
C198 C199 1.170 . S
C198 C200 1.380 . S
C199 C198 1.170 . S
C200 C198 1.380 . S
C200 C201 1.170 . S
C201 C200 1.170 . S
C202 C203 1.170 . S
C202 C204 1.380 . S
C203 C202 1.170 . S
C204 C202 1.380 . S
C204 C205 1.170 . S
C205 C204 1.170 . S
C206 C207 1.170 . S
C206 C208 1.380 . S
C207 C206 1.170 . S
C208 C206 1.380 . S
C208 C209 1.170 . S
C209 C208 1.170 . S
C210 C211 1.170 . S
C210 C212 1.380 . S
C211 C210 1.170 . S
C212 C210 1.380 . S
C212 C213 1.170 . S
C213 C212 1.170 . S
C214 C215 1.170 . S
C214 C216 1.380 . S
C215 C214 1.170 . S
C216 C214 1.380 . S
C216 C217 1.170 . S
C217 C216 1.170 . S
C218 C219 1.170 1_455 S
C218 C220 1.380 . S
C219 C218 1.170 1_655 S
C220 C218 1.380 . S
C220 C221 1.170 . S
C221 C220 1.170 . S
C222 C223 1.170 . S
C222 C224 1.380 . S
C223 C222 1.170 . S
C224 C222 1.380 . S
C224 C225 1.170 . S
C225 C224 1.170 . S
C226 C227 1.170 . S
C226 C228 1.380 . S
C227 C226 1.170 . S
C228 C226 1.380 . S
C228 C229 1.170 . S
C229 C228 1.170 . S
C230 C231 1.170 . S
C230 C232 1.380 . S
C231 C230 1.170 . S
C232 C230 1.380 . S
C232 C233 1.170 . S
C233 C232 1.170 . S
C234 C235 1.170 . S
C234 C236 1.380 . S
C235 C234 1.170 . S
C236 C234 1.380 . S
C236 C237 1.170 . S
C237 C236 1.170 . S
C238 C239 1.170 . S
C238 C240 1.380 . S
C239 C238 1.170 . S
C240 C238 1.380 . S
C240 C241 1.170 . S
C241 C240 1.170 . S
C197 C145 1.821 . S
C195 C36 1.819 . S
C201 C152 1.324 . S
C199 C78 1.297 1_545 S
C205 C147 1.825 . S
C203 C30 1.787 1_455 S
C209 C153 1.324 1_565 S
C207 C69 1.310 1_565 S
C211 C21 1.817 . S
C213 C146 1.828 . S
C217 C155 1.318 . S
C215 C93 1.302 . S
C219 C45 1.784 1_655 S
C221 C144 1.828 . S
C223 C84 1.314 . S
C225 C154 1.324 1_565 S
C227 C132 1.540 1_556 S
C229 C149 1.547 1_556 S
C231 C126 1.533 1_556 S
C233 C148 1.544 1_556 S
C237 C151 1.545 1_556 S
C235 C141 1.526 . S
C241 C150 1.549 1_556 S
C239 C117 1.542 . S
