# Generated by pormake.
# Topology pyr, (3,6)-cn, num edge types: 1
# Building blocks:
#     Node 0, Type 0, BuildingBlock: INOVEN_clean_linker_0, # of connection points: 3
#     Node 1, Type 0, BuildingBlock: INOVEN_clean_linker_0, # of connection points: 3
#     Node 2, Type 0, BuildingBlock: INOVEN_clean_linker_0, # of connection points: 3
#     Node 3, Type 0, BuildingBlock: INOVEN_clean_linker_0, # of connection points: 3
#     Node 4, Type 0, BuildingBlock: INOVEN_clean_linker_0, # of connection points: 3
#     Node 5, Type 0, BuildingBlock: INOVEN_clean_linker_0, # of connection points: 3
#     Node 6, Type 0, BuildingBlock: INOVEN_clean_linker_0, # of connection points: 3
#     Node 7, Type 0, BuildingBlock: INOVEN_clean_linker_0, # of connection points: 3
#     Node 8, Type 1, BuildingBlock: VOLQOD_clean_sbu_1, # of connection points: 6
#     Node 9, Type 1, BuildingBlock: VOLQOD_clean_sbu_1, # of connection points: 6
#     Node 10, Type 1, BuildingBlock: VOLQOD_clean_sbu_1, # of connection points: 6
#     Node 11, Type 1, BuildingBlock: VOLQOD_clean_sbu_1, # of connection points: 6
#     Edge 12, Type (0, 1), None
#     Edge 13, Type (0, 1), None
#     Edge 14, Type (0, 1), None
#     Edge 15, Type (0, 1), None
#     Edge 16, Type (0, 1), None
#     Edge 17, Type (0, 1), None
#     Edge 18, Type (0, 1), None
#     Edge 19, Type (0, 1), None
#     Edge 20, Type (0, 1), None
#     Edge 21, Type (0, 1), None
#     Edge 22, Type (0, 1), None
#     Edge 23, Type (0, 1), None
#     Edge 24, Type (0, 1), None
#     Edge 25, Type (0, 1), None
#     Edge 26, Type (0, 1), None
#     Edge 27, Type (0, 1), None
#     Edge 28, Type (0, 1), None
#     Edge 29, Type (0, 1), None
#     Edge 30, Type (0, 1), None
#     Edge 31, Type (0, 1), None
#     Edge 32, Type (0, 1), None
#     Edge 33, Type (0, 1), None
#     Edge 34, Type (0, 1), None
#     Edge 35, Type (0, 1), None
# Relax obj value: 0.118
# Max RMSD: 0.182
# Mean RMSD: 0.140
data_MOF--net-pry--node1-VOLQOD_clean_sbu_1--node2-INOVEN_clean_linker_0--edge1-none
_symmetry_space_group_name_H-M    P1
_symmetry_Int_Tables_number       1
_symmetry_cell_setting            triclinic
loop_
_symmetry_equiv_pos_as_xyz
'x, y, z'
_cell_length_a     16.678709
_cell_length_b     16.821484
_cell_length_c     18.193622
_cell_angle_alpha  90.518388
_cell_angle_beta   89.860349
_cell_angle_gamma 96.674742
loop_
_atom_site_label
_atom_site_type_symbol
_atom_site_fract_x
_atom_site_fract_y
_atom_site_fract_z
_atom_type_partial_charge
H0 H 0.03831 0.17276 0.23475 0.0
H1 H 0.23935 0.03649 0.24965 0.0
H2 H 0.21987 0.19402 0.06557 0.0
N3 N 0.08505 0.25444 0.1193 0.0
N4 N 0.1074 0.29151 0.06251 0.0
C5 C 0.09285 0.15376 0.21114 0.0
C6 C 0.13433 0.09918 0.24886 0.0
C7 C 0.12358 0.18944 0.14638 0.0
C8 C 0.19545 0.16618 0.11553 0.0
C9 C 0.23792 0.10992 0.15171 0.0
C10 C 0.20712 0.07809 0.21953 0.0
H11 H 0.38725 0.86227 0.59566 0.0
H12 H 0.51078 0.83279 0.79806 0.0
H13 H 0.3729 0.03354 0.76949 0.0
N14 N 0.31172 0.98352 0.64014 0.0
N15 N 0.26993 0.93931 0.59599 0.0
C16 C 0.40477 0.8837 0.65039 0.0
C17 C 0.45179 0.83901 0.69292 0.0
C18 C 0.37485 0.95215 0.67815 0.0
C19 C 0.39785 0.98123 0.74832 0.0
C20 C 0.44785 0.93978 0.79283 0.0
C21 C 0.47506 0.86787 0.76419 0.0
H22 H 0.49475 0.32836 0.93326 0.0
H23 H 0.72604 0.31841 0.03698 0.0
H24 H 0.68 0.52573 0.9163 0.0
N25 N 0.54149 0.4575 0.85901 0.0
N26 N 0.57699 0.51078 0.82005 0.0
C27 C 0.55383 0.35663 0.9496 0.0
C28 C 0.60493 0.31541 -0.00762 0.0
C29 C 0.58165 0.43087 0.92051 0.0
C30 C 0.65883 0.46758 0.93878 0.0
C31 C 0.71221 0.42672 0.97833 0.0
C32 C 0.6845 0.35107 0.00705 0.0
H33 H 0.74732 0.56078 0.36678 0.0
H34 H 0.79129 0.75657 0.52275 0.0
H35 H 0.94762 0.74276 0.33785 0.0
N36 N 0.87041 0.61021 0.27831 0.0
N37 N 0.91253 0.65168 0.23308 0.0
C38 C 0.78319 0.61461 0.3864 0.0
C39 C 0.7607 0.65446 0.45063 0.0
C40 C 0.85033 0.64628 0.34541 0.0
C41 C 0.89566 0.717 0.36911 0.0
C42 C 0.87462 0.75579 0.43245 0.0
C43 C 0.80825 0.72427 0.47436 0.0
H44 H 0.8775 0.03205 0.81008 0.0
H45 H -0.00034 0.82364 0.76353 0.0
H46 H 0.8969 0.8559 0.97626 0.0
N47 N 0.82157 0.98082 0.9392 0.0
N48 N 0.77962 0.93715 0.98298 0.0
C49 C 0.90109 0.97788 0.82747 0.0
C50 C 0.9443 0.93451 0.77781 0.0
C51 C 0.88223 0.94842 0.89795 0.0
C52 C 0.91145 0.87809 0.92144 0.0
C53 C 0.95239 0.83192 0.87358 0.0
C54 C 0.96864 0.85989 0.80119 0.0
H55 H 0.54284 0.18094 0.33416 0.0
H56 H 0.73641 0.0352 0.33032 0.0
H57 H 0.71561 0.2022 0.51025 0.0
N58 N 0.58749 0.2657 0.44813 0.0
N59 N 0.58105 0.28834 0.51301 0.0
C60 C 0.59475 0.16028 0.36068 0.0
C61 C 0.63486 0.10203 0.32625 0.0
C62 C 0.62312 0.19673 0.42621 0.0
C63 C 0.69211 0.17221 0.46055 0.0
C64 C 0.73423 0.11342 0.42638 0.0
C65 C 0.7048 0.07929 0.35857 0.0
H66 H 0.45083 0.7349 0.22906 0.0
H67 H 0.31084 0.75841 0.03515 0.0
H68 H 0.26023 0.55032 0.17143 0.0
N69 N 0.3709 0.59971 0.27429 0.0
N70 N 0.38331 0.64305 0.32993 0.0
C71 C 0.40346 0.71036 0.19174 0.0
C72 C 0.38724 0.75281 0.1297 0.0
C73 C 0.35842 0.63694 0.20679 0.0
C74 C 0.29747 0.6055 0.15817 0.0
C75 C 0.27969 0.65024 0.09647 0.0
C76 C 0.32557 0.7231 0.08182 0.0
H77 H 0.98048 0.33959 0.62018 0.0
H78 H 0.22252 0.31721 0.54567 0.0
H79 H 0.15668 0.54475 0.61627 0.0
N80 N 0.03029 0.47535 0.68695 0.0
N81 N 0.07888 0.49844 0.73658 0.0
C82 C 0.03967 0.36686 0.6033 0.0
C83 C 0.09592 0.31968 0.57357 0.0
C84 C 0.0635 0.44647 0.62228 0.0
C85 C 0.13952 0.48272 0.60061 0.0
C86 C 0.19894 0.43576 0.57841 0.0
C87 C 0.17675 0.35404 0.56329 0.0
O88 O 0.00571 0.19892 0.58533 0.0
Zn89 Zn 0.94376 0.08679 0.5741 0.0
O90 O 0.00976 0.02872 0.50766 0.0
Zn91 Zn 0.95778 0.00642 0.41408 0.0
Zn92 Zn 0.11634 0.08391 0.48744 0.0
Zn93 Zn 0.02858 0.92933 0.5531 0.0
O94 O 0.91935 0.88973 0.406 0.0
O95 O 0.95811 0.83889 0.51087 0.0
O96 O 0.83367 0.10249 0.52284 0.0
O97 O 0.85743 0.05922 0.40988 0.0
O98 O 0.02859 0.04393 0.32726 0.0
O99 O 0.14704 0.08507 0.37841 0.0
O100 O 0.1993 0.03738 0.54769 0.0
O101 O 0.93101 0.0269 0.67665 0.0
O102 O 0.14388 0.91088 0.54693 0.0
O103 O 0.00159 0.92437 0.65924 0.0
C104 C 0.07202 0.23368 0.5591 0.0
C105 C 0.91935 0.83231 0.45105 0.0
C106 C 0.103 0.07079 0.32154 0.0
C107 C 0.81245 0.09114 0.45536 0.0
C108 C 0.20294 0.96369 0.55998 0.0
C109 C 0.95997 0.96434 0.70088 0.0
O110 O 0.11851 0.19647 0.51954 0.0
O111 O 0.51121 0.19668 0.98985 0.0
Zn112 Zn 0.44863 0.08595 0.00257 0.0
O113 O 0.51623 0.02878 0.06658 0.0
Zn114 Zn 0.53683 0.9319 0.01622 0.0
Zn115 Zn 0.62256 0.08488 0.08782 0.0
Zn116 Zn 0.46347 0.003 0.15977 0.0
O117 O 0.46735 0.84121 0.05552 0.0
O118 O 0.43096 0.88511 0.16511 0.0
O119 O 0.43396 0.02706 0.89903 0.0
O120 O 0.51145 0.92914 0.90881 0.0
O121 O 0.65085 0.91101 0.02552 0.0
O122 O 0.70882 0.03629 0.03147 0.0
O123 O 0.6497 0.08946 0.19704 0.0
O124 O 0.33956 0.10168 0.0563 0.0
O125 O 0.5326 0.04156 0.24709 0.0
O126 O 0.36023 0.05259 0.16683 0.0
C127 C 0.57835 0.23204 0.01394 0.0
C128 C 0.43188 0.83021 0.11668 0.0
C129 C 0.71206 0.96245 0.01815 0.0
C130 C 0.46595 0.9678 0.87052 0.0
C131 C 0.60585 0.07203 0.25338 0.0
C132 C 0.31653 0.08715 0.1228 0.0
O133 O 0.62542 0.19621 0.05336 0.0
O134 O 0.59426 0.57657 0.71165 0.0
Zn135 Zn 0.57305 0.63265 0.62053 0.0
O136 O 0.49073 0.56271 0.56986 0.0
Zn137 Zn 0.52285 0.52529 0.4759 0.0
Zn138 Zn 0.45803 0.46575 0.62146 0.0
Zn139 Zn 0.4012 0.62117 0.55899 0.0
O140 O 0.44562 0.5526 0.39812 0.0
O141 O 0.39778 0.6553 0.45482 0.0
O142 O 0.6717 0.65145 0.55407 0.0
O143 O 0.63127 0.58165 0.45333 0.0
O144 O 0.54022 0.40866 0.47427 0.0
O145 O 0.52312 0.37599 0.59129 0.0
O146 O 0.33923 0.43024 0.60103 0.0
O147 O 0.53755 0.73843 0.65959 0.0
O148 O 0.29912 0.54702 0.57031 0.0
O149 O 0.40854 0.71854 0.62761 0.0
C150 C 0.54795 0.52908 0.75124 0.0
C151 C 0.40708 0.61374 0.39733 0.0
C152 C 0.54648 0.36021 0.52684 0.0
C153 C 0.68435 0.62712 0.48866 0.0
C154 C 0.284 0.47202 0.58129 0.0
C155 C 0.46668 0.75959 0.66163 0.0
O156 O 0.48384 0.48892 0.72658 0.0
O157 O 0.93559 0.54594 0.15613 0.0
Zn158 Zn 0.9544 0.48318 0.0645 0.0
O159 O 0.00414 0.55748 -0.0084 0.0
Zn160 Zn 0.93468 0.57077 0.90925 0.0
Zn161 Zn 0.03488 0.66321 0.02946 0.0
Zn162 Zn 0.09998 0.51417 0.96226 0.0
O163 O 0.98099 0.52096 0.82178 0.0
O164 O 0.11036 0.52794 0.85552 0.0
O165 O 0.84295 0.43855 0.03224 0.0
O166 O 0.82465 0.51312 0.93425 0.0
O167 O 0.93108 0.6886 0.87863 0.0
O168 O 0.01507 0.75281 0.95905 0.0
O169 O 0.14971 0.67457 0.06197 0.0
O170 O 0.02094 0.38986 0.08319 0.0
O171 O 0.19597 0.5651 0.0177 0.0
O172 O 0.10017 0.39793 0.98484 0.0
C173 C 0.9396 0.62137 0.16673 0.0
C174 C 0.05544 0.51953 0.80688 0.0
C175 C 0.97144 0.75319 0.90158 0.0
C176 C 0.79789 0.46111 0.98204 0.0
C177 C 0.20523 0.62923 0.05542 0.0
C178 C 0.07252 0.36092 0.04161 0.0
O179 O 0.9715 0.67199 0.12063 0.0
loop_
_geom_bond_atom_site_label_1
_geom_bond_atom_site_label_2
_geom_bond_distance
_geom_bond_site_symmetry_2
_ccdc_geom_bond_type
H0 C5 0.929 . S
H1 C10 0.931 . S
H2 C8 0.930 . S
N3 N4 1.234 . S
N3 C7 1.453 . S
N4 N3 1.234 . S
C5 H0 0.929 . S
C5 C6 1.373 . S
C5 C7 1.368 . S
C6 C5 1.373 . S
C6 C10 1.397 . S
C7 N3 1.453 . S
C7 C5 1.368 . S
C7 C8 1.373 . S
C8 H2 0.930 . S
C8 C7 1.373 . S
C8 C9 1.371 . S
C9 C8 1.371 . S
C9 C10 1.383 . S
C10 H1 0.931 . S
C10 C6 1.397 . S
C10 C9 1.383 . S
H11 C16 0.929 . S
H12 C21 0.931 . S
H13 C19 0.930 . S
N14 N15 1.234 . S
N14 C18 1.453 . S
N15 N14 1.234 . S
C16 H11 0.929 . S
C16 C17 1.373 . S
C16 C18 1.368 . S
C17 C16 1.373 . S
C17 C21 1.397 . S
C18 N14 1.453 . S
C18 C16 1.368 . S
C18 C19 1.373 . S
C19 H13 0.930 . S
C19 C18 1.373 . S
C19 C20 1.371 . S
C20 C19 1.371 . S
C20 C21 1.383 . S
C21 H12 0.931 . S
C21 C17 1.397 . S
C21 C20 1.383 . S
H22 C27 0.929 . S
H23 C32 0.931 . S
H24 C30 0.930 . S
N25 N26 1.234 . S
N25 C29 1.453 . S
N26 N25 1.234 . S
C27 H22 0.929 . S
C27 C28 1.373 . S
C27 C29 1.368 . S
C28 C27 1.373 . S
C28 C32 1.397 1_556 S
C29 N25 1.453 . S
C29 C27 1.368 . S
C29 C30 1.373 . S
C30 H24 0.930 . S
C30 C29 1.373 . S
C30 C31 1.371 . S
C31 C30 1.371 . S
C31 C32 1.383 1_556 S
C32 H23 0.931 . S
C32 C28 1.397 1_554 S
C32 C31 1.383 1_554 S
H33 C38 0.929 . S
H34 C43 0.931 . S
H35 C41 0.930 . S
N36 N37 1.234 . S
N36 C40 1.453 . S
N37 N36 1.234 . S
C38 H33 0.929 . S
C38 C39 1.373 . S
C38 C40 1.368 . S
C39 C38 1.373 . S
C39 C43 1.397 . S
C40 N36 1.453 . S
C40 C38 1.368 . S
C40 C41 1.373 . S
C41 H35 0.930 . S
C41 C40 1.373 . S
C41 C42 1.371 . S
C42 C41 1.371 . S
C42 C43 1.383 . S
C43 H34 0.931 . S
C43 C39 1.397 . S
C43 C42 1.383 . S
H44 C49 0.929 . S
H45 C54 0.931 . S
H46 C52 0.930 1_554 S
N47 N48 1.234 1_556 S
N47 C51 1.453 . S
N48 N47 1.234 1_554 S
C49 H44 0.929 . S
C49 C50 1.373 1_545 S
C49 C51 1.368 . S
C50 C49 1.373 1_565 S
C50 C54 1.397 1_655 S
C51 N47 1.453 . S
C51 C49 1.368 . S
C51 C52 1.373 1_545 S
C52 H46 0.930 1_556 S
C52 C51 1.373 1_565 S
C52 C53 1.371 . S
C53 C52 1.371 . S
C53 C54 1.383 1_655 S
C54 H45 0.931 . S
C54 C50 1.397 1_455 S
C54 C53 1.383 1_455 S
H55 C60 0.929 . S
H56 C65 0.931 1_565 S
H57 C63 0.930 . S
N58 N59 1.234 . S
N58 C62 1.453 . S
N59 N58 1.234 . S
C60 H55 0.929 . S
C60 C61 1.373 . S
C60 C62 1.368 . S
C61 C60 1.373 . S
C61 C65 1.397 . S
C62 N58 1.453 . S
C62 C60 1.368 . S
C62 C63 1.373 . S
C63 H57 0.930 . S
C63 C62 1.373 . S
C63 C64 1.371 . S
C64 C63 1.371 . S
C64 C65 1.383 . S
C65 H56 0.931 1_545 S
C65 C61 1.397 . S
C65 C64 1.383 . S
H66 C71 0.929 . S
H67 C76 0.931 . S
H68 C74 0.930 . S
N69 N70 1.234 . S
N69 C73 1.453 . S
N70 N69 1.234 . S
C71 H66 0.929 . S
C71 C72 1.373 . S
C71 C73 1.368 . S
C72 C71 1.373 . S
C72 C76 1.397 . S
C73 N69 1.453 . S
C73 C71 1.368 . S
C73 C74 1.373 . S
C74 H68 0.930 . S
C74 C73 1.373 . S
C74 C75 1.371 . S
C75 C74 1.371 . S
C75 C76 1.383 . S
C76 H67 0.931 . S
C76 C72 1.397 . S
C76 C75 1.383 . S
H77 C82 0.918 1_655 S
H78 C87 0.931 . S
H79 C85 0.930 . S
N80 N81 1.234 . S
N80 C84 1.453 . S
N81 N80 1.234 . S
C82 H77 0.918 1_455 S
C82 C83 1.373 . S
C82 C84 1.368 . S
C83 C82 1.373 . S
C83 C87 1.397 . S
C84 N80 1.453 . S
C84 C82 1.368 . S
C84 C85 1.373 . S
C85 H79 0.930 . S
C85 C84 1.373 . S
C85 C86 1.371 . S
C86 C85 1.371 . S
C86 C87 1.383 . S
C87 H78 0.931 . S
C87 C83 1.397 . S
C87 C86 1.383 . S
O88 Zn89 1.953 . S
O88 C104 1.225 1_655 S
Zn89 O88 1.953 . S
Zn89 O90 1.949 1_655 S
Zn89 O96 1.919 . S
Zn89 O101 1.924 . S
O90 Zn89 1.949 1_455 S
O90 Zn91 1.923 1_445 S
O90 Zn92 1.950 . S
O90 Zn93 1.945 1_545 S
Zn91 O90 1.923 1_665 S
Zn91 O94 1.933 . S
Zn91 O97 1.941 1_565 S
Zn91 O98 1.965 1_665 S
Zn92 O90 1.950 . S
Zn92 O99 1.938 . S
Zn92 O100 1.906 . S
Zn92 O110 1.953 . S
Zn93 O90 1.945 1_565 S
Zn93 O95 1.932 1_455 S
Zn93 O102 1.977 . S
Zn93 O103 1.910 1_455 S
O94 Zn91 1.933 . S
O94 C105 1.226 . S
O95 Zn93 1.932 1_655 S
O95 C105 1.307 . S
O96 Zn89 1.919 . S
O96 C107 1.253 . S
O97 Zn91 1.941 1_545 S
O97 C107 1.283 . S
O98 Zn91 1.965 1_445 S
O98 C106 1.303 . S
O99 Zn92 1.938 . S
O99 C106 1.247 . S
O100 Zn92 1.906 . S
O100 C108 1.304 1_545 S
O101 Zn89 1.924 . S
O101 C109 1.311 . S
O102 Zn93 1.977 . S
O102 C108 1.272 . S
O103 Zn93 1.910 1_655 S
O103 C109 1.231 1_565 S
C104 O88 1.225 1_455 S
C104 O110 1.298 . S
C105 O94 1.226 . S
C105 O95 1.307 . S
C106 O98 1.303 . S
C106 O99 1.247 . S
C107 O96 1.253 . S
C107 O97 1.283 . S
C108 O100 1.304 1_565 S
C108 O102 1.272 . S
C109 O101 1.311 . S
C109 O103 1.231 1_545 S
O110 Zn92 1.953 . S
O110 C104 1.298 . S
O111 Zn112 1.953 . S
O111 C127 1.225 1_556 S
Zn112 O111 1.953 . S
Zn112 O113 1.949 1_556 S
Zn112 O119 1.919 . S
Zn112 O124 1.924 1_556 S
O113 Zn112 1.949 1_554 S
O113 Zn114 1.923 1_545 S
O113 Zn115 1.950 . S
O113 Zn116 1.945 . S
Zn114 O113 1.923 1_565 S
Zn114 O117 1.933 . S
Zn114 O120 1.941 1_554 S
Zn114 O121 1.965 . S
Zn115 O113 1.950 . S
Zn115 O122 1.938 . S
Zn115 O123 1.906 . S
Zn115 O133 1.953 . S
Zn116 O113 1.945 . S
Zn116 O118 1.932 1_545 S
Zn116 O125 1.977 . S
Zn116 O126 1.910 . S
O117 Zn114 1.933 . S
O117 C128 1.226 . S
O118 Zn116 1.932 1_565 S
O118 C128 1.307 . S
O119 Zn112 1.919 . S
O119 C130 1.253 1_545 S
O120 Zn114 1.941 1_556 S
O120 C130 1.283 . S
O121 Zn114 1.965 . S
O121 C129 1.303 1_565 S
O122 Zn115 1.938 . S
O122 C129 1.247 . S
O123 Zn115 1.906 . S
O123 C131 1.304 . S
O124 Zn112 1.924 1_554 S
O124 C132 1.311 . S
O125 Zn116 1.977 . S
O125 C131 1.272 . S
O126 Zn116 1.910 . S
O126 C132 1.231 . S
C127 O111 1.225 1_554 S
C127 O133 1.298 . S
C128 O117 1.226 . S
C128 O118 1.307 . S
C129 O121 1.303 1_545 S
C129 O122 1.247 . S
C130 O119 1.253 1_565 S
C130 O120 1.283 . S
C131 O123 1.304 . S
C131 O125 1.272 . S
C132 O124 1.311 . S
C132 O126 1.231 . S
O133 Zn115 1.953 . S
O133 C127 1.298 . S
O134 Zn135 1.953 . S
O134 C150 1.225 . S
Zn135 O134 1.953 . S
Zn135 O136 1.949 . S
Zn135 O142 1.919 . S
Zn135 O147 1.924 . S
O136 Zn135 1.949 . S
O136 Zn137 1.923 . S
O136 Zn138 1.950 . S
O136 Zn139 1.945 . S
Zn137 O136 1.923 . S
Zn137 O140 1.933 . S
Zn137 O143 1.941 . S
Zn137 O144 1.965 . S
Zn138 O136 1.950 . S
Zn138 O145 1.938 . S
Zn138 O146 1.906 . S
Zn138 O156 1.953 . S
Zn139 O136 1.945 . S
Zn139 O141 1.932 . S
Zn139 O148 1.977 . S
Zn139 O149 1.910 . S
O140 Zn137 1.933 . S
O140 C151 1.226 . S
O141 Zn139 1.932 . S
O141 C151 1.307 . S
O142 Zn135 1.919 . S
O142 C153 1.253 . S
O143 Zn137 1.941 . S
O143 C153 1.283 . S
O144 Zn137 1.965 . S
O144 C152 1.303 . S
O145 Zn138 1.938 . S
O145 C152 1.247 . S
O146 Zn138 1.906 . S
O146 C154 1.304 . S
O147 Zn135 1.924 . S
O147 C155 1.311 . S
O148 Zn139 1.977 . S
O148 C154 1.272 . S
O149 Zn139 1.910 . S
O149 C155 1.231 . S
C150 O134 1.225 . S
C150 O156 1.298 . S
C151 O140 1.226 . S
C151 O141 1.307 . S
C152 O144 1.303 . S
C152 O145 1.247 . S
C153 O142 1.253 . S
C153 O143 1.283 . S
C154 O146 1.304 . S
C154 O148 1.272 . S
C155 O147 1.311 . S
C155 O149 1.231 . S
O156 Zn138 1.953 . S
O156 C150 1.298 . S
O157 Zn158 1.953 . S
O157 C173 1.225 . S
Zn158 O157 1.953 . S
Zn158 O159 1.949 1_655 S
Zn158 O165 1.919 . S
Zn158 O170 1.924 . S
O159 Zn158 1.949 1_455 S
O159 Zn160 1.923 1_454 S
O159 Zn161 1.950 . S
O159 Zn162 1.945 1_554 S
Zn160 O159 1.923 1_656 S
Zn160 O163 1.933 1_655 S
Zn160 O166 1.941 . S
Zn160 O167 1.965 . S
Zn161 O159 1.950 . S
Zn161 O168 1.938 . S
Zn161 O169 1.906 . S
Zn161 O179 1.953 . S
Zn162 O159 1.945 1_556 S
Zn162 O164 1.932 . S
Zn162 O171 1.977 1_556 S
Zn162 O172 1.910 1_556 S
O163 Zn160 1.933 1_455 S
O163 C174 1.226 . S
O164 Zn162 1.932 . S
O164 C174 1.307 . S
O165 Zn158 1.919 . S
O165 C176 1.253 1_554 S
O166 Zn160 1.941 . S
O166 C176 1.283 . S
O167 Zn160 1.965 . S
O167 C175 1.303 . S
O168 Zn161 1.938 . S
O168 C175 1.247 1_454 S
O169 Zn161 1.906 . S
O169 C177 1.304 . S
O170 Zn158 1.924 . S
O170 C178 1.311 1_655 S
O171 Zn162 1.977 1_554 S
O171 C177 1.272 . S
O172 Zn162 1.910 1_554 S
O172 C178 1.231 . S
C173 O157 1.225 . S
C173 O179 1.298 1_655 S
C174 O163 1.226 . S
C174 O164 1.307 . S
C175 O167 1.303 . S
C175 O168 1.247 1_656 S
C176 O165 1.253 1_556 S
C176 O166 1.283 . S
C177 O169 1.304 . S
C177 O171 1.272 . S
C178 O170 1.311 1_455 S
C178 O172 1.231 . S
O179 Zn161 1.953 . S
O179 C173 1.298 1_455 S
C6 C106 1.842 . S
C20 C130 2.090 . S
C150 N26 1.096 . S
N37 C173 1.390 . S
C132 C9 2.271 . S
C108 N15 1.583 . S
C176 C31 1.890 . S
C153 C39 1.476 . S
N4 C178 1.676 . S
C127 C28 1.815 1_554 S
C42 C105 1.427 . S
C17 C155 1.687 . S
C109 C50 2.287 1_545 S
C61 C131 1.837 . S
N70 C151 1.719 . S
N81 C174 1.501 . S
N48 C129 1.358 . S
C107 C64 2.034 . S
C177 C75 1.486 . S
C154 C86 1.503 . S
C53 C175 2.208 . S
C128 C72 1.514 . S
C104 C83 1.887 . S
N59 C152 1.807 . S
