# Generated by pormake.
# Topology ant, (3,6)-cn, num edge types: 1
# Building blocks:
#     Node 0, Type 0, BuildingBlock: BETDAH_clean_linker_0, # of connection points: 3
#     Node 1, Type 0, BuildingBlock: BETDAH_clean_linker_0, # of connection points: 3
#     Node 2, Type 0, BuildingBlock: BETDAH_clean_linker_0, # of connection points: 3
#     Node 3, Type 0, BuildingBlock: BETDAH_clean_linker_0, # of connection points: 3
#     Node 4, Type 0, BuildingBlock: BETDAH_clean_linker_0, # of connection points: 3
#     Node 5, Type 0, BuildingBlock: BETDAH_clean_linker_0, # of connection points: 3
#     Node 6, Type 0, BuildingBlock: BETDAH_clean_linker_0, # of connection points: 3
#     Node 7, Type 0, BuildingBlock: BETDAH_clean_linker_0, # of connection points: 3
#     Node 8, Type 1, BuildingBlock: MIDCAF_clean_sbu_0, # of connection points: 6
#     Node 9, Type 1, BuildingBlock: MIDCAF_clean_sbu_0, # of connection points: 6
#     Node 10, Type 1, BuildingBlock: MIDCAF_clean_sbu_0, # of connection points: 6
#     Node 11, Type 1, BuildingBlock: MIDCAF_clean_sbu_0, # of connection points: 6
#     Edge 12, Type (0, 1), None
#     Edge 13, Type (0, 1), None
#     Edge 14, Type (0, 1), None
#     Edge 15, Type (0, 1), None
#     Edge 16, Type (0, 1), None
#     Edge 17, Type (0, 1), None
#     Edge 18, Type (0, 1), None
#     Edge 19, Type (0, 1), None
#     Edge 20, Type (0, 1), None
#     Edge 21, Type (0, 1), None
#     Edge 22, Type (0, 1), None
#     Edge 23, Type (0, 1), None
#     Edge 24, Type (0, 1), None
#     Edge 25, Type (0, 1), None
#     Edge 26, Type (0, 1), None
#     Edge 27, Type (0, 1), None
#     Edge 28, Type (0, 1), None
#     Edge 29, Type (0, 1), None
#     Edge 30, Type (0, 1), None
#     Edge 31, Type (0, 1), None
#     Edge 32, Type (0, 1), None
#     Edge 33, Type (0, 1), None
#     Edge 34, Type (0, 1), None
#     Edge 35, Type (0, 1), None
# Relax obj value: 0.057
# Max RMSD: 0.148
# Mean RMSD: 0.080
data_MOF--net-ant--node1-MIDCAF_clean_sbu_0--node2-BETDAH_clean_linker_0--edge1-none
_symmetry_space_group_name_H-M    P1
_symmetry_Int_Tables_number       1
_symmetry_cell_setting            triclinic
loop_
_symmetry_equiv_pos_as_xyz
'x, y, z'
_cell_length_a     13.033416
_cell_length_b     13.146046
_cell_length_c     31.452828
_cell_angle_alpha  95.400196
_cell_angle_beta   103.84228
_cell_angle_gamma 90.604056
loop_
_atom_site_label
_atom_site_type_symbol
_atom_site_fract_x
_atom_site_fract_y
_atom_site_fract_z
_atom_type_partial_charge
H0 H 0.08286 0.42644 0.0001 0.0
H1 H 0.21951 0.12988 0.01016 0.0
H2 H 0.21906 0.32678 0.12687 0.0
C3 C 0.118 0.36703 0.01999 0.0
C4 C 0.14435 0.3876 0.06556 0.0
C5 C 0.14696 0.27546 -0.00039 0.0
C6 C 0.19418 0.19931 0.0255 0.0
C7 C 0.21892 0.21824 0.07169 0.0
C8 C 0.1948 0.31205 0.09134 0.0
N9 N 0.27507 0.14695 0.0988 0.0
C10 C 0.23043 0.05083 0.09858 0.0
H11 H 0.29063 0.831 0.26929 0.0
H12 H 0.98119 0.68725 0.22534 0.0
H13 H 0.13993 0.7085 0.36182 0.0
C14 C 0.22083 0.79965 0.27704 0.0
C15 C 0.22636 0.77663 0.32019 0.0
C16 C 0.13591 0.76157 0.24221 0.0
C17 C 0.04637 0.71885 0.25177 0.0
C18 C 0.04548 0.70512 0.29521 0.0
C19 C 0.13612 0.73184 0.32933 0.0
N20 N 0.96151 0.6464 0.30284 0.0
C21 C 0.88252 0.69273 0.31941 0.0
H22 H 0.58176 0.92121 0.50027 0.0
H23 H 0.71963 0.62506 0.50942 0.0
H24 H 0.72319 0.82191 0.62658 0.0
C25 C 0.61784 0.86187 0.51999 0.0
C26 C 0.64607 0.88256 0.56554 0.0
C27 C 0.64633 0.77047 0.49934 0.0
C28 C 0.69466 0.69436 0.525 0.0
C29 C 0.721 0.71325 0.5712 0.0
C30 C 0.69758 0.80708 0.59109 0.0
N31 N 0.77817 0.64196 0.59802 0.0
C32 C 0.73383 0.54587 0.59817 0.0
H33 H 0.79365 0.33025 0.76856 0.0
H34 H 0.48452 0.18563 0.72556 0.0
H35 H 0.6425 0.21348 0.8622 0.0
C36 C 0.72388 0.29953 0.77654 0.0
C37 C 0.72917 0.2789 0.81999 0.0
C38 C 0.63915 0.26004 0.74194 0.0
C39 C 0.54956 0.21826 0.75181 0.0
C40 C 0.54836 0.20696 0.79543 0.0
C41 C 0.63885 0.23506 0.82945 0.0
N42 N 0.46433 0.14908 0.80348 0.0
C43 C 0.38564 0.19619 0.82 0.0
H44 H 0.0033 0.52498 0.94174 0.0
H45 H 0.12142 0.83748 0.95925 0.0
H46 H 0.11729 0.65487 0.8395 0.0
C47 C 0.03385 0.58931 0.9289 0.0
C48 C 0.05408 0.57851 0.88642 0.0
C49 C 0.05774 0.68306 0.95535 0.0
C50 C 0.10017 0.7655 0.93891 0.0
C51 C 0.12138 0.75512 0.89748 0.0
C52 C 0.09732 0.66258 0.87118 0.0
N53 N 0.17609 0.83438 0.88372 0.0
C54 C 0.13844 0.93259 0.88215 0.0
H55 H 0.40805 0.8254 0.19558 0.0
H56 H 0.7099 0.68842 0.23006 0.0
H57 H 0.55711 0.70315 0.09462 0.0
C58 C 0.47638 0.79439 0.18574 0.0
C59 C 0.47151 0.77003 0.14093 0.0
C60 C 0.55788 0.75808 0.21783 0.0
C61 C 0.64686 0.71807 0.20573 0.0
C62 C 0.65004 0.70508 0.1615 0.0
C63 C 0.56093 0.7279 0.12885 0.0
N64 N 0.73306 0.64871 0.15029 0.0
C65 C 0.80999 0.69371 0.13386 0.0
H66 H 0.50387 0.02163 0.44217 0.0
H67 H 0.61995 0.33467 0.45832 0.0
H68 H 0.61198 0.15106 0.33844 0.0
C69 C 0.53304 0.08604 0.4289 0.0
C70 C 0.55135 0.07504 0.38611 0.0
C71 C 0.5573 0.18001 0.45513 0.0
C72 C 0.59818 0.26254 0.43815 0.0
C73 C 0.61765 0.25188 0.3964 0.0
C74 C 0.59314 0.15908 0.37034 0.0
N75 N 0.67235 0.33047 0.38222 0.0
C76 C 0.63623 0.42927 0.38075 0.0
H77 H 0.91067 0.32242 0.6949 0.0
H78 H 0.21285 0.18652 0.73062 0.0
H79 H 0.06054 0.19651 0.59478 0.0
C80 C 0.97913 0.29099 0.68531 0.0
C81 C 0.97448 0.265 0.64062 0.0
C82 C 0.06067 0.2559 0.71775 0.0
C83 C 0.14971 0.21511 0.70599 0.0
C84 C 0.15303 0.20046 0.66181 0.0
C85 C 0.06404 0.22224 0.62889 0.0
N86 N 0.23687 0.1447 0.65103 0.0
C87 C 0.31268 0.18987 0.63403 0.0
Zn88 Zn 0.24081 0.63381 0.1389 0.0
Zn89 Zn -0.01158 0.84058 0.06787 0.0
Zn90 Zn 0.1229 0.72637 0.09875 0.0
C91 C 0.03944 0.70257 -6e-05 0.0
C92 C 0.16612 0.96137 0.09735 0.0
O93 O 0.08008 0.72373 0.16264 0.0
O94 O 0.24823 0.723 0.19508 0.0
C95 C 0.13586 0.4921 0.08625 0.0
O96 O 0.08118 0.64947 0.03162 0.0
O97 O 0.00183 0.78826 0.00837 0.0
O98 O 0.06784 0.9717 0.09221 0.0
O99 O 0.20519 0.87211 0.09792 0.0
O100 O 0.15614 0.5049 0.12771 0.0
O101 O 0.12948 0.5717 0.06459 0.0
O102 O 0.28564 0.79814 0.11776 0.0
O103 O 0.34628 0.65007 0.10151 0.0
C104 C 0.36477 0.74422 0.11266 0.0
O105 O 0.98749 0.71931 0.13053 0.0
O106 O 0.86095 0.79512 0.08558 0.0
C107 C 0.15504 0.74068 0.19779 0.0
C108 C 0.88928 0.74038 0.11679 0.0
Zn109 Zn 0.44431 0.63398 0.31491 0.0
Zn110 Zn 0.7082 0.86173 0.38373 0.0
Zn111 Zn 0.57295 0.744 0.35795 0.0
C112 C 0.55465 0.9729 0.36252 0.0
C113 C 0.80636 0.74096 0.3398 0.0
O114 O 0.59378 0.60484 0.39151 0.0
O115 O 0.53868 0.51752 0.32634 0.0
C116 C 0.33282 0.75785 0.34744 0.0
O117 O 0.51382 0.89393 0.37396 0.0
O118 O 0.62927 0.95946 0.3435 0.0
O119 O 0.83869 0.79936 0.37459 0.0
O120 O 0.70602 0.72486 0.32336 0.0
O121 O 0.34703 0.66647 0.35575 0.0
O122 O 0.4138 0.80919 0.34345 0.0
O123 O 0.61305 0.73268 0.29476 0.0
O124 O 0.44463 0.71371 0.26212 0.0
C125 C 0.53743 0.7389 0.26054 0.0
O126 O 0.62252 0.69522 0.42368 0.0
O127 O 0.67789 0.8558 0.44219 0.0
C128 C 0.58715 0.52083 0.36629 0.0
C129 C 0.64936 0.77179 0.45302 0.0
Zn130 Zn 0.49243 0.33643 0.56873 0.0
Zn131 Zn 0.74401 0.12881 0.63892 0.0
Zn132 Zn 0.62577 0.22139 0.59863 0.0
C133 C 0.8678 0.23882 0.61236 0.0
C134 C 0.6383 0.98714 0.58628 0.0
O135 O 0.49024 0.21422 0.63054 0.0
O136 O 0.36429 0.29152 0.58596 0.0
C137 C 0.66966 0.45659 0.59748 0.0
O138 O 0.78862 0.29281 0.61732 0.0
O139 O 0.84942 0.14457 0.60146 0.0
O140 O 0.65925 -3e-05 0.62776 0.0
O141 O 0.63173 0.06666 0.56457 0.0
O142 O 0.57171 0.46733 0.59321 0.0
O143 O 0.70826 0.36709 0.59749 0.0
O144 O 0.58248 0.14521 0.53141 0.0
O145 O 0.50489 0.28548 0.50903 0.0
C146 C 0.54117 0.19946 0.50008 0.0
O147 O 0.58319 0.22005 0.66253 0.0
O148 O 0.75134 0.2187 0.69498 0.0
C149 C 0.39216 0.23585 0.61685 0.0
C150 C 0.65825 0.23726 0.69762 0.0
Zn151 Zn 0.94717 0.13642 0.81575 0.0
Zn152 Zn 0.21081 0.36561 0.88405 0.0
Zn153 Zn 0.07578 0.24736 0.85824 0.0
C154 C 0.15112 0.27622 0.95338 0.0
C155 C 0.0572 0.47647 0.86264 0.0
O156 O 0.11584 0.23406 0.79503 0.0
O157 O 0.94747 0.21387 0.76239 0.0
C158 C 0.08986 0.02404 0.86734 0.0
O159 O 0.1246 0.19941 0.92414 0.0
O160 O 0.18003 0.36002 0.94249 0.0
O161 O 0.13192 0.46312 0.84367 0.0
O162 O 0.01636 0.39739 0.87398 0.0
O163 O 0.04072 0.01976 0.82746 0.0
O164 O 0.09714 0.10869 0.8922 0.0
O165 O 0.91645 0.31222 0.84328 0.0
O166 O 0.85006 0.17028 0.85655 0.0
C167 C 0.83557 0.26118 0.84756 0.0
O168 O 0.20903 0.22822 0.82379 0.0
O169 O 0.34143 0.30329 0.87497 0.0
C170 C 0.04024 0.23879 0.76066 0.0
C171 C 0.30931 0.2447 0.84023 0.0
loop_
_geom_bond_atom_site_label_1
_geom_bond_atom_site_label_2
_geom_bond_distance
_geom_bond_site_symmetry_2
_ccdc_geom_bond_type
H0 C3 0.929 . S
H1 C6 0.929 . S
H2 C8 0.930 . S
C3 H0 0.929 . S
C3 C4 1.398 . S
C3 C5 1.396 . S
C4 C3 1.398 . S
C4 C8 1.407 . S
C5 C3 1.396 . S
C5 C6 1.394 . S
C6 H1 0.929 . S
C6 C5 1.394 . S
C6 C7 1.382 . S
C7 C6 1.382 . S
C7 C8 1.392 . S
C7 N9 1.420 . S
C8 H2 0.930 . S
C8 C4 1.407 . S
C8 C7 1.392 . S
N9 C7 1.420 . S
N9 C10 1.244 . S
C10 N9 1.244 . S
H11 C14 0.929 . S
H12 C17 0.929 1_655 S
H13 C19 0.930 . S
C14 H11 0.929 . S
C14 C15 1.398 . S
C14 C16 1.396 . S
C15 C14 1.398 . S
C15 C19 1.407 . S
C16 C14 1.396 . S
C16 C17 1.394 . S
C17 H12 0.929 1_455 S
C17 C16 1.394 . S
C17 C18 1.382 . S
C18 C17 1.382 . S
C18 C19 1.392 . S
C18 N20 1.420 1_455 S
C19 H13 0.930 . S
C19 C15 1.407 . S
C19 C18 1.392 . S
N20 C18 1.420 1_655 S
N20 C21 1.244 . S
C21 N20 1.244 . S
H22 C25 0.929 . S
H23 C28 0.929 . S
H24 C30 0.930 . S
C25 H22 0.929 . S
C25 C26 1.398 . S
C25 C27 1.396 . S
C26 C25 1.398 . S
C26 C30 1.407 . S
C27 C25 1.396 . S
C27 C28 1.394 . S
C28 H23 0.929 . S
C28 C27 1.394 . S
C28 C29 1.382 . S
C29 C28 1.382 . S
C29 C30 1.392 . S
C29 N31 1.420 . S
C30 H24 0.930 . S
C30 C26 1.407 . S
C30 C29 1.392 . S
N31 C29 1.420 . S
N31 C32 1.244 . S
C32 N31 1.244 . S
H33 C36 0.929 . S
H34 C39 0.929 . S
H35 C41 0.930 . S
C36 H33 0.929 . S
C36 C37 1.398 . S
C36 C38 1.396 . S
C37 C36 1.398 . S
C37 C41 1.407 . S
C38 C36 1.396 . S
C38 C39 1.394 . S
C39 H34 0.929 . S
C39 C38 1.394 . S
C39 C40 1.382 . S
C40 C39 1.382 . S
C40 C41 1.392 . S
C40 N42 1.420 . S
C41 H35 0.930 . S
C41 C37 1.407 . S
C41 C40 1.392 . S
N42 C40 1.420 . S
N42 C43 1.244 . S
C43 N42 1.244 . S
H44 C47 0.929 . S
H45 C50 0.929 . S
H46 C52 0.930 . S
C47 H44 0.929 . S
C47 C48 1.398 . S
C47 C49 1.396 . S
C48 C47 1.398 . S
C48 C52 1.407 . S
C49 C47 1.396 . S
C49 C50 1.394 . S
C50 H45 0.929 . S
C50 C49 1.394 . S
C50 C51 1.382 . S
C51 C50 1.382 . S
C51 C52 1.392 . S
C51 N53 1.420 . S
C52 H46 0.930 . S
C52 C48 1.407 . S
C52 C51 1.392 . S
N53 C51 1.420 . S
N53 C54 1.244 . S
C54 N53 1.244 . S
H55 C58 0.929 . S
H56 C61 0.929 . S
H57 C63 0.930 . S
C58 H55 0.929 . S
C58 C59 1.398 . S
C58 C60 1.396 . S
C59 C58 1.398 . S
C59 C63 1.407 . S
C60 C58 1.396 . S
C60 C61 1.394 . S
C61 H56 0.929 . S
C61 C60 1.394 . S
C61 C62 1.382 . S
C62 C61 1.382 . S
C62 C63 1.392 . S
C62 N64 1.420 . S
C63 H57 0.930 . S
C63 C59 1.407 . S
C63 C62 1.392 . S
N64 C62 1.420 . S
N64 C65 1.244 . S
C65 N64 1.244 . S
H66 C69 0.929 . S
H67 C72 0.929 . S
H68 C74 0.930 . S
C69 H66 0.929 . S
C69 C70 1.398 . S
C69 C71 1.396 . S
C70 C69 1.398 . S
C70 C74 1.407 . S
C71 C69 1.396 . S
C71 C72 1.394 . S
C72 H67 0.929 . S
C72 C71 1.394 . S
C72 C73 1.382 . S
C73 C72 1.382 . S
C73 C74 1.392 . S
C73 N75 1.420 . S
C74 H68 0.930 . S
C74 C70 1.407 . S
C74 C73 1.392 . S
N75 C73 1.420 . S
N75 C76 1.244 . S
C76 N75 1.244 . S
H77 C80 0.929 . S
H78 C83 0.929 . S
H79 C85 0.930 . S
C80 H77 0.929 . S
C80 C81 1.398 . S
C80 C82 1.396 1_655 S
C81 C80 1.398 . S
C81 C85 1.407 1_655 S
C82 C80 1.396 1_455 S
C82 C83 1.394 . S
C83 H78 0.929 . S
C83 C82 1.394 . S
C83 C84 1.382 . S
C84 C83 1.382 . S
C84 C85 1.392 . S
C84 N86 1.420 . S
C85 H79 0.930 . S
C85 C81 1.407 1_455 S
C85 C84 1.392 . S
N86 C84 1.420 . S
N86 C87 1.244 . S
C87 N86 1.244 . S
Zn88 O94 1.920 . S
Zn88 O100 1.898 . S
Zn88 O103 1.905 . S
Zn89 O97 1.905 . S
Zn89 O98 1.898 1_655 S
Zn89 O106 1.920 . S
Zn90 O93 2.080 . S
Zn90 O96 2.114 . S
Zn90 O99 2.120 . S
Zn90 O101 2.120 . S
Zn90 O102 2.114 . S
Zn90 O105 2.080 1_455 S
C91 O96 1.166 . S
C91 O97 1.182 1_455 S
C92 O98 1.167 . S
C92 O99 1.299 . S
O93 Zn90 2.080 . S
O93 C107 1.305 . S
O94 Zn88 1.920 . S
O94 C107 1.234 . S
C95 O100 1.167 . S
C95 O101 1.299 . S
O96 Zn90 2.114 . S
O96 C91 1.166 . S
O97 Zn89 1.905 . S
O97 C91 1.182 1_655 S
O98 Zn89 1.898 1_455 S
O98 C92 1.167 . S
O99 Zn90 2.120 . S
O99 C92 1.299 . S
O100 Zn88 1.898 . S
O100 C95 1.167 . S
O101 Zn90 2.120 . S
O101 C95 1.299 . S
O102 Zn90 2.114 . S
O102 C104 1.166 . S
O103 Zn88 1.905 . S
O103 C104 1.182 . S
C104 O102 1.166 . S
C104 O103 1.182 . S
O105 Zn90 2.080 1_655 S
O105 C108 1.305 . S
O106 Zn89 1.920 . S
O106 C108 1.234 . S
C107 O93 1.305 . S
C107 O94 1.234 . S
C108 O105 1.305 . S
C108 O106 1.234 . S
Zn109 O115 1.920 . S
Zn109 O121 1.898 . S
Zn109 O124 1.905 . S
Zn110 O118 1.905 1_565 S
Zn110 O119 1.898 . S
Zn110 O127 1.920 . S
Zn111 O114 2.080 . S
Zn111 O117 2.114 . S
Zn111 O120 2.120 . S
Zn111 O122 2.120 . S
Zn111 O123 2.114 . S
Zn111 O126 2.080 . S
C112 O117 1.166 1_545 S
C112 O118 1.182 . S
C113 O119 1.167 . S
C113 O120 1.299 . S
O114 Zn111 2.080 . S
O114 C128 1.305 . S
O115 Zn109 1.920 . S
O115 C128 1.234 . S
C116 O121 1.167 . S
C116 O122 1.299 . S
O117 Zn111 2.114 . S
O117 C112 1.166 1_565 S
O118 Zn110 1.905 1_545 S
O118 C112 1.182 . S
O119 Zn110 1.898 . S
O119 C113 1.167 . S
O120 Zn111 2.120 . S
O120 C113 1.299 . S
O121 Zn109 1.898 . S
O121 C116 1.167 . S
O122 Zn111 2.120 . S
O122 C116 1.299 . S
O123 Zn111 2.114 . S
O123 C125 1.166 . S
O124 Zn109 1.905 . S
O124 C125 1.182 . S
C125 O123 1.166 . S
C125 O124 1.182 . S
O126 Zn111 2.080 . S
O126 C129 1.305 . S
O127 Zn110 1.920 . S
O127 C129 1.234 . S
C128 O114 1.305 . S
C128 O115 1.234 . S
C129 O126 1.305 . S
C129 O127 1.234 . S
Zn130 O136 1.920 . S
Zn130 O142 1.898 . S
Zn130 O145 1.905 . S
Zn131 O139 1.905 . S
Zn131 O140 1.898 1_545 S
Zn131 O148 1.920 . S
Zn132 O135 2.080 . S
Zn132 O138 2.114 . S
Zn132 O141 2.120 . S
Zn132 O143 2.120 . S
Zn132 O144 2.114 . S
Zn132 O147 2.080 . S
C133 O138 1.166 . S
C133 O139 1.182 . S
C134 O140 1.167 . S
C134 O141 1.299 1_565 S
O135 Zn132 2.080 . S
O135 C149 1.305 . S
O136 Zn130 1.920 . S
O136 C149 1.234 . S
C137 O142 1.167 . S
C137 O143 1.299 . S
O138 Zn132 2.114 . S
O138 C133 1.166 . S
O139 Zn131 1.905 . S
O139 C133 1.182 . S
O140 Zn131 1.898 1_565 S
O140 C134 1.167 . S
O141 Zn132 2.120 . S
O141 C134 1.299 1_545 S
O142 Zn130 1.898 . S
O142 C137 1.167 . S
O143 Zn132 2.120 . S
O143 C137 1.299 . S
O144 Zn132 2.114 . S
O144 C146 1.166 . S
O145 Zn130 1.905 . S
O145 C146 1.182 . S
C146 O144 1.166 . S
C146 O145 1.182 . S
O147 Zn132 2.080 . S
O147 C150 1.305 . S
O148 Zn131 1.920 . S
O148 C150 1.234 . S
C149 O135 1.305 . S
C149 O136 1.234 . S
C150 O147 1.305 . S
C150 O148 1.234 . S
Zn151 O157 1.920 1_655 S
Zn151 O163 1.898 . S
Zn151 O166 1.905 . S
Zn152 O160 1.905 . S
Zn152 O161 1.898 . S
Zn152 O169 1.920 . S
Zn153 O156 2.080 . S
Zn153 O159 2.114 . S
Zn153 O162 2.120 . S
Zn153 O164 2.120 . S
Zn153 O165 2.114 1_455 S
Zn153 O168 2.080 . S
C154 O159 1.166 . S
C154 O160 1.182 . S
C155 O161 1.167 . S
C155 O162 1.299 . S
O156 Zn153 2.080 . S
O156 C170 1.305 . S
O157 Zn151 1.920 1_455 S
O157 C170 1.234 . S
C158 O163 1.167 1_455 S
C158 O164 1.299 . S
O159 Zn153 2.114 . S
O159 C154 1.166 . S
O160 Zn152 1.905 . S
O160 C154 1.182 . S
O161 Zn152 1.898 . S
O161 C155 1.167 . S
O162 Zn153 2.120 . S
O162 C155 1.299 . S
O163 Zn151 1.898 . S
O163 C158 1.167 1_655 S
O164 Zn153 2.120 . S
O164 C158 1.299 . S
O165 Zn153 2.114 1_655 S
O165 C167 1.166 . S
O166 Zn151 1.905 . S
O166 C167 1.182 . S
C167 O165 1.166 . S
C167 O166 1.182 . S
O168 Zn153 2.080 . S
O168 C171 1.305 . S
O169 Zn152 1.920 . S
O169 C171 1.234 . S
C170 O156 1.305 . S
C170 O157 1.234 . S
C171 O168 1.305 . S
C171 O169 1.234 . S
C95 C4 1.404 . S
C113 C21 1.419 . S
C32 C137 1.362 . S
C167 C37 1.150 . S
C155 C48 1.276 . S
C65 C108 1.454 . S
C76 C128 1.482 . S
C81 C133 1.210 . S
C87 C149 1.435 . S
C59 C104 1.205 . S
C171 C43 1.463 . S
C116 C15 1.122 . S
C26 C134 1.383 . S
C10 C92 1.366 1_545 S
C112 C70 1.282 . S
C158 C54 1.455 1_545 S
C154 C5 1.278 1_556 S
C107 C16 1.765 . S
C27 C129 1.238 . S
C38 C150 1.763 . S
C91 C49 1.276 1_554 S
C60 C125 1.590 . S
C146 C71 1.304 . S
C170 C82 1.555 . S
