# Generated by pormake.
# Topology tsx, (6,3)-cn, num edge types: 1
# Building blocks:
#     Node 0, Type 0, BuildingBlock: FUNLAD_clean_sbu_0, # of connection points: 6
#     Node 1, Type 0, BuildingBlock: FUNLAD_clean_sbu_0, # of connection points: 6
#     Node 2, Type 1, BuildingBlock: CUQRIR_clean_linker_1, # of connection points: 3
#     Node 3, Type 1, BuildingBlock: CUQRIR_clean_linker_1, # of connection points: 3
#     Node 4, Type 1, BuildingBlock: CUQRIR_clean_linker_1, # of connection points: 3
#     Node 5, Type 1, BuildingBlock: CUQRIR_clean_linker_1, # of connection points: 3
#     Edge 6, Type (0, 1), BuildingBlock: AJUNOK_clean_linker_0, # of connection points: 2
#     Edge 7, Type (0, 1), BuildingBlock: AJUNOK_clean_linker_0, # of connection points: 2
#     Edge 8, Type (0, 1), BuildingBlock: AJUNOK_clean_linker_0, # of connection points: 2
#     Edge 9, Type (0, 1), BuildingBlock: AJUNOK_clean_linker_0, # of connection points: 2
#     Edge 10, Type (0, 1), BuildingBlock: AJUNOK_clean_linker_0, # of connection points: 2
#     Edge 11, Type (0, 1), BuildingBlock: AJUNOK_clean_linker_0, # of connection points: 2
#     Edge 12, Type (0, 1), BuildingBlock: AJUNOK_clean_linker_0, # of connection points: 2
#     Edge 13, Type (0, 1), BuildingBlock: AJUNOK_clean_linker_0, # of connection points: 2
#     Edge 14, Type (0, 1), BuildingBlock: AJUNOK_clean_linker_0, # of connection points: 2
#     Edge 15, Type (0, 1), BuildingBlock: AJUNOK_clean_linker_0, # of connection points: 2
#     Edge 16, Type (0, 1), BuildingBlock: AJUNOK_clean_linker_0, # of connection points: 2
#     Edge 17, Type (0, 1), BuildingBlock: AJUNOK_clean_linker_0, # of connection points: 2
# Relax obj value: 0.164
# Max RMSD: 0.164
# Mean RMSD: 0.145
data_MOF--net-tsx--node1-FUNLAD_clean_sbu_0--node2-CUQRIR_clean_linker_1--edge1-AJUNOK_clean_linker_0
_symmetry_space_group_name_H-M    P1
_symmetry_Int_Tables_number       1
_symmetry_cell_setting            triclinic
loop_
_symmetry_equiv_pos_as_xyz
'x, y, z'
_cell_length_a     12.025218
_cell_length_b     13.534193
_cell_length_c     29.837832
_cell_angle_alpha  77.709608
_cell_angle_beta   93.525606
_cell_angle_gamma 90.667713
loop_
_atom_site_label
_atom_site_type_symbol
_atom_site_fract_x
_atom_site_fract_y
_atom_site_fract_z
_atom_type_partial_charge
C0 C 0.88488 0.92926 -0.00054 0.0
N1 N 0.06083 0.04062 0.09798 0.0
C2 C 0.9713 0.05216 0.12201 0.0
C3 C 0.98462 0.04646 0.1692 0.0
C4 C 0.0912 0.03011 0.19148 0.0
C5 C 0.18167 1.01647 0.16613 0.0
C6 C 0.16436 1.02118 0.11913 0.0
Zn7 Zn 0.04482 0.06532 0.02852 0.0
C8 C 0.20593 0.94687 -0.01176 0.0
N9 N 0.03478 0.13206 0.8846 0.0
C10 C 0.94185 0.11027 0.86024 0.0
C11 C 0.12716 0.17148 0.86322 0.0
C12 C 0.12998 0.18673 0.81565 0.0
C13 C 0.03802 0.15863 0.78997 0.0
C14 C 0.94179 0.12274 0.81259 0.0
Zn15 Zn 0.03903 0.10309 0.95444 0.0
O16 O 0.91507 0.96724 0.03323 0.0
C17 C 0.87976 0.2326 -0.01773 0.0
O18 O 0.92415 0.96593 0.96018 0.0
H19 H 0.20044 0.18812 0.8831 0.0
H20 H 0.89014 0.06821 0.10436 0.0
H21 H 0.86894 0.08019 0.87791 0.0
O22 O 0.92694 0.19766 0.02226 0.0
O23 O 0.9064 0.19684 0.94887 0.0
H24 H 0.2345 1.01243 0.0993 0.0
O25 O 0.1574 0.23192 0.95727 0.0
O26 O 0.17556 0.1573 0.02961 0.0
O27 O 0.17119 1.01358 0.95447 0.0
O28 O 0.16247 0.93963 0.02693 0.0
C29 C 0.20741 0.22345 -0.00299 0.0
H30 H 0.91303 0.05772 0.1879 0.0
H31 H 0.26468 1.00295 0.18244 0.0
H32 H 0.20508 0.21612 0.79935 0.0
H33 H 0.86935 0.09953 0.794 0.0
C34 C 0.35519 0.36458 0.50146 0.0
N35 N 0.51949 0.46627 0.60526 0.0
C36 C 0.43047 0.49382 0.62572 0.0
C37 C 0.44061 0.50071 0.67168 0.0
C38 C 0.54265 0.47681 0.69712 0.0
C39 C 0.63072 0.44162 0.67598 0.0
C40 C 0.61743 0.43728 0.62966 0.0
Zn41 Zn 0.51438 0.49377 0.53554 0.0
C42 C 0.67465 0.37397 0.49679 0.0
N43 N 0.51974 0.57137 0.39176 0.0
C44 C 0.43013 0.56499 0.36241 0.0
C45 C 0.61928 0.60737 0.37581 0.0
C46 C 0.6319 0.63846 0.32887 0.0
C47 C 0.54189 0.63113 0.29764 0.0
C48 C 0.43963 0.59405 0.31489 0.0
Zn49 Zn 0.51194 0.53437 0.46159 0.0
O50 O 0.38372 0.40083 0.53588 0.0
C51 C 0.35015 0.6604 0.48866 0.0
O52 O 0.39791 0.40025 0.4628 0.0
H53 H 0.69004 0.61119 0.3995 0.0
H54 H 0.35356 0.51672 0.6057 0.0
H55 H 0.35176 0.53641 0.37584 0.0
O56 O 0.39818 0.62639 0.52846 0.0
O57 O 0.37825 0.62638 0.45499 0.0
H58 H 0.68772 0.41699 0.61254 0.0
O59 O 0.62545 0.66232 0.46891 0.0
O60 O 0.64697 0.5823 0.54052 0.0
O61 O 0.6455 0.44374 0.46327 0.0
O62 O 0.62834 0.36639 0.53486 0.0
C63 C 0.67539 0.65222 0.50866 0.0
H64 H 0.37132 0.53085 0.68608 0.0
H65 H 0.71058 0.4223 0.69445 0.0
H66 H 0.71226 0.66598 0.31708 0.0
H67 H 0.36895 0.58419 0.29197 0.0
C68 C 0.98323 0.03242 0.43664 0.0
N69 N 0.0603 0.99707 0.41299 0.0
N70 N 0.95564 0.12882 0.41739 0.0
C71 C 0.92188 0.97034 0.47416 0.0
C72 C 1.01687 0.15104 0.38011 0.0
N73 N 0.07993 0.07011 0.37693 0.0
C74 C 1.00409 0.24693 0.34391 0.0
H75 H 0.83606 0.95845 0.46082 0.0
H76 H 0.91726 1.01251 0.50199 0.0
H77 H 0.95808 0.89486 0.48638 0.0
H78 H 0.08381 0.2892 0.34248 0.0
H79 H 0.9372 0.29584 0.35132 0.0
H80 H 0.98461 0.22899 0.30969 0.0
C81 C 0.06641 0.9453 0.57516 0.0
N82 N 0.09284 0.03149 0.5895 0.0
N83 N 0.97031 0.90451 0.59273 0.0
C84 C 0.13941 0.89938 0.54618 0.0
C85 C 0.9426 0.96736 0.61996 0.0
N86 N 1.01671 0.0441 0.61813 0.0
C87 C 0.84701 0.94917 0.651 0.0
H88 H 0.16729 0.95986 0.51822 0.0
H89 H 0.09964 0.83814 0.53208 0.0
H90 H 0.21394 0.86618 0.56752 0.0
H91 H 0.87626 0.95355 0.68653 0.0
H92 H 0.80841 0.87404 0.65172 0.0
H93 H 0.78317 1.0089 0.63871 0.0
C94 C 0.54203 0.62362 0.9323 0.0
N95 N 0.60337 0.57979 0.90562 0.0
N96 N 0.48559 0.70381 0.90748 0.0
C97 C 0.50702 0.57121 0.97759 0.0
C98 C 0.51172 0.70623 0.8639 0.0
N99 N 0.58149 0.62862 0.86244 0.0
C100 C 0.45552 0.77383 0.82244 0.0
H101 H 0.41856 0.5528 0.97261 0.0
H102 H 0.51543 0.62155 0.00234 0.0
H103 H 0.54953 0.49881 -0.01095 0.0
H104 H 0.50919 0.78441 0.79282 0.0
H105 H 0.43546 0.84827 0.82992 0.0
H106 H 0.37633 0.73815 0.81311 0.0
C107 C 0.61958 0.49324 0.07417 0.0
N108 N 0.64159 0.57984 0.08922 0.0
N109 N 0.51861 0.45397 0.08696 0.0
C110 C 0.70229 0.44228 0.05091 0.0
C111 C 0.48483 0.51569 0.11353 0.0
N112 N 0.55862 0.59167 0.11506 0.0
C113 C 0.38385 0.49473 0.14169 0.0
H114 H 0.74227 0.49893 0.02458 0.0
H115 H 0.66404 0.383 0.0348 0.0
H116 H 0.76796 0.40639 0.07679 0.0
H117 H 0.40622 0.49654 0.17813 0.0
H118 H 0.34742 0.4196 0.14042 0.0
H119 H 0.31993 0.55376 0.12824 0.0
C120 C 0.27307 0.38674 0.0139 0.0
C121 C 0.29818 0.28838 0.00974 0.0
C122 C 0.34289 0.43755 0.04108 0.0
C123 C 0.44401 0.3947 0.063 0.0
H124 H 0.19552 0.42219 -0.00147 0.0
H125 H 0.31956 0.51315 0.04359 0.0
S126 S 0.53572 0.13142 0.07054 0.0
N127 N 0.42125 0.14356 0.03625 0.0
N128 N 0.55593 0.24241 0.08437 0.0
C129 C 0.46798 0.29517 0.0605 0.0
C130 C 0.39482 0.24186 0.03429 0.0
C131 C 0.2519 0.78161 0.97089 0.0
C132 C 0.28829 0.87658 0.97782 0.0
C133 C 0.31194 0.72803 0.94475 0.0
C134 C 0.41183 0.76661 0.92557 0.0
H135 H 0.17295 0.75157 -0.01694 0.0
H136 H 0.27971 0.6563 0.93927 0.0
S137 S 0.53672 1.01403 0.92895 0.0
N138 N 0.42561 1.0101 0.95931 0.0
N139 N 0.54105 0.90511 0.91294 0.0
C140 C 0.4483 0.86082 0.93184 0.0
C141 C 0.38654 0.91646 0.9575 0.0
C142 C 0.70598 0.83919 0.01855 0.0
C143 C 0.81984 0.83391 0.01092 0.0
C144 C 0.64902 0.75614 0.04388 0.0
C145 C 0.70437 0.66493 0.06453 0.0
H146 H 0.6621 0.91012 0.00729 0.0
H147 H 0.56098 0.764 0.04812 0.0
S148 S 1.00697 0.61785 0.06216 0.0
N149 N 0.98778 0.7323 0.0298 0.0
N150 N 0.88307 0.57902 0.07965 0.0
C151 C 0.81917 0.6597 0.05871 0.0
C152 C 0.87614 0.74327 0.03155 0.0
C153 C 0.85003 0.41939 0.96026 0.0
C154 C 0.80417 0.32133 0.97034 0.0
C155 C 0.7857 0.50334 0.93665 0.0
C156 C 0.67398 0.4919 0.92159 0.0
H157 H 0.93689 0.43093 0.96974 0.0
H158 H 0.82254 0.57801 0.93102 0.0
S159 S 0.51677 0.25335 0.9361 0.0
N160 N 0.64148 0.21854 0.96042 0.0
N161 N 0.52128 0.37677 0.91792 0.0
C162 C 0.6283 0.39486 0.93068 0.0
C163 C 0.69319 0.30961 0.95441 0.0
C164 C 0.72343 0.81695 0.52793 0.0
C165 C 0.75865 0.72221 0.5222 0.0
C166 C 0.78972 0.87283 0.55399 0.0
C167 C 0.89523 0.83732 0.57398 0.0
H168 H 0.64239 0.84635 0.51367 0.0
H169 H 0.76107 0.94697 0.5564 0.0
S170 S 1.0132 0.58428 0.57763 0.0
N171 N 0.8965 0.58807 0.54504 0.0
N172 N 1.0223 0.6948 0.59273 0.0
C173 C 0.92792 0.74019 0.57088 0.0
C174 C 0.85991 0.68279 0.54493 0.0
C175 C 0.86176 0.32217 0.48028 0.0
C176 C 0.74873 0.29768 0.48604 0.0
C177 C 0.92744 0.27037 0.4553 0.0
C178 C 0.8829 0.19221 0.43567 0.0
H179 H 0.8982 0.38487 0.49333 0.0
H180 H 1.01357 0.29131 0.45084 0.0
S181 S 0.58673 0.11612 0.43076 0.0
N182 N 0.59156 0.20237 0.46252 0.0
N183 N 0.71604 0.10349 0.41713 0.0
C184 C 0.76923 0.17053 0.439 0.0
C185 C 0.70216 0.22343 0.46398 0.0
C186 C 0.17235 0.28492 0.51882 0.0
C187 C 0.2855 0.27292 0.51184 0.0
C188 C 0.11075 0.20603 0.54461 0.0
C189 C 0.16042 0.11271 0.56542 0.0
H190 H 0.13259 0.35786 0.50628 0.0
H191 H 0.0238 0.21835 0.54913 0.0
S192 S 0.45977 0.05027 0.56698 0.0
N193 N 0.44791 0.16484 0.53415 0.0
N194 N 0.33285 1.01754 0.58255 0.0
C195 C 0.27441 0.10085 0.56051 0.0
C196 C 0.33663 0.18066 0.53382 0.0
C197 C 0.31122 0.84468 0.46806 0.0
C198 C 0.27001 0.74511 0.47764 0.0
C199 C 0.24394 0.92583 0.44426 0.0
C200 C 0.1322 0.9107 0.43031 0.0
H201 H 0.39735 0.8594 0.47748 0.0
H202 H 0.27782 1.00168 0.43838 0.0
S203 S 0.99089 0.66337 0.43946 0.0
N204 N 0.11551 0.63481 0.46527 0.0
N205 N 0.98781 0.78785 0.42269 0.0
C206 C 0.09158 0.81132 0.4378 0.0
C207 C 0.16055 0.72861 0.46121 0.0
C208 C 0.03802 0.96675 0.27142 0.0
C209 C 0.1065 0.02911 0.24095 0.0
C210 C 0.0369 0.9756 0.31708 0.0
C211 C 0.10395 0.04711 0.33379 0.0
H212 H 0.98125 0.91396 0.25933 0.0
H213 H 0.97744 0.93108 0.3387 0.0
S214 S 0.30666 0.22049 0.26939 0.0
N215 N 0.24987 0.15921 0.23136 0.0
N216 N 0.24797 0.17442 0.31814 0.0
C217 C 0.17837 0.10507 0.30471 0.0
C218 C 0.1797 0.09627 0.25796 0.0
C219 C 0.9581 0.18495 0.70866 0.0
C220 C 0.04691 0.15246 0.74134 0.0
C221 C 0.95355 0.15827 0.66566 0.0
C222 C 0.03727 0.09803 0.65434 0.0
H223 H 0.88877 0.22618 0.71739 0.0
H224 H 0.88059 0.17832 0.64248 0.0
S225 S 0.29149 1.001 0.72568 0.0
N226 N 0.22447 0.06334 0.75764 0.0
N227 N 0.21499 1.01389 0.67695 0.0
C228 C 0.13059 0.07252 0.68499 0.0
C229 C 0.13553 0.09934 0.72862 0.0
C230 C 0.65526 0.55575 0.75375 0.0
C231 C 0.56028 0.50048 0.74334 0.0
C232 C 0.66475 0.59435 0.79391 0.0
C233 C 0.57933 0.57933 0.82441 0.0
H234 H 0.72003 0.57374 0.72964 0.0
H235 H 0.73658 0.63951 0.80027 0.0
S236 S 0.31888 0.43424 0.81555 0.0
N237 N 0.38482 0.42493 0.76968 0.0
N238 N 0.39947 0.50429 0.84309 0.0
C239 C 0.48625 0.52176 0.81536 0.0
C240 C 0.47758 0.48046 0.77534 0.0
C241 C 0.65257 0.60461 0.23326 0.0
C242 C 0.55939 0.64871 0.24774 0.0
C243 C 0.65974 0.59912 0.18731 0.0
C244 C 0.57379 0.63673 0.1544 0.0
H245 H 0.71575 0.56606 0.25808 0.0
H246 H 0.72653 0.55516 0.17845 0.0
S247 S 0.32747 0.78187 0.17186 0.0
N248 N 0.39047 0.74824 0.22364 0.0
N249 N 0.40493 0.73696 0.13686 0.0
C250 C 0.488 0.69253 0.16704 0.0
C251 C 0.47999 0.69791 0.21397 0.0
loop_
_geom_bond_atom_site_label_1
_geom_bond_atom_site_label_2
_geom_bond_distance
_geom_bond_site_symmetry_2
_ccdc_geom_bond_type
C0 O16 1.251 . S
C0 O18 1.254 1_554 S
N1 C2 1.333 1_445 S
N1 C6 1.307 . S
N1 Zn7 2.020 . S
C2 N1 1.333 1_665 S
C2 C3 1.379 . S
C2 H20 0.952 . S
C3 C2 1.379 . S
C3 C4 1.390 1_655 S
C3 H30 0.949 . S
C4 C3 1.390 1_455 S
C4 C5 1.357 1_565 S
C5 C4 1.357 1_545 S
C5 C6 1.370 . S
C5 H31 0.950 . S
C6 N1 1.307 . S
C6 C5 1.370 . S
C6 H24 0.948 . S
Zn7 N1 2.020 . S
Zn7 O16 2.039 1_445 S
Zn7 O22 2.034 1_455 S
Zn7 O26 2.025 . S
Zn7 O28 2.024 1_545 S
C8 O27 1.246 1_554 S
C8 O28 1.249 . S
N9 C10 1.307 1_455 S
N9 C11 1.333 . S
N9 Zn15 2.020 . S
C10 N9 1.307 1_655 S
C10 C14 1.370 . S
C10 H21 0.948 . S
C11 N9 1.333 . S
C11 C12 1.379 . S
C11 H19 0.952 . S
C12 C11 1.379 . S
C12 C13 1.390 . S
C12 H32 0.949 . S
C13 C12 1.390 . S
C13 C14 1.357 1_455 S
C14 C10 1.370 . S
C14 C13 1.357 1_655 S
C14 H33 0.950 . S
Zn15 N9 2.020 . S
Zn15 O18 2.025 1_445 S
Zn15 O23 2.024 1_455 S
Zn15 O25 2.039 . S
Zn15 O27 2.034 1_545 S
O16 C0 1.251 . S
O16 Zn7 2.039 1_665 S
C17 O22 1.246 . S
C17 O23 1.249 1_554 S
O18 C0 1.254 1_556 S
O18 Zn15 2.025 1_665 S
H19 C11 0.952 . S
H20 C2 0.952 . S
H21 C10 0.948 . S
O22 Zn7 2.034 1_655 S
O22 C17 1.246 . S
O23 Zn15 2.024 1_655 S
O23 C17 1.249 1_556 S
H24 C6 0.948 . S
O25 Zn15 2.039 . S
O25 C29 1.251 1_556 S
O26 Zn7 2.025 . S
O26 C29 1.254 . S
O27 C8 1.246 1_556 S
O27 Zn15 2.034 1_565 S
O28 Zn7 2.024 1_565 S
O28 C8 1.249 . S
C29 O25 1.251 1_554 S
C29 O26 1.254 . S
H30 C3 0.949 . S
H31 C5 0.950 . S
H32 C12 0.949 . S
H33 C14 0.950 . S
C34 O50 1.251 . S
C34 O52 1.254 . S
N35 C36 1.333 . S
N35 C40 1.307 . S
N35 Zn41 2.020 . S
C36 N35 1.333 . S
C36 C37 1.379 . S
C36 H54 0.952 . S
C37 C36 1.379 . S
C37 C38 1.390 . S
C37 H64 0.949 . S
C38 C37 1.390 . S
C38 C39 1.357 . S
C39 C38 1.357 . S
C39 C40 1.370 . S
C39 H65 0.950 . S
C40 N35 1.307 . S
C40 C39 1.370 . S
C40 H58 0.948 . S
Zn41 N35 2.020 . S
Zn41 O50 2.039 . S
Zn41 O56 2.034 . S
Zn41 O60 2.025 . S
Zn41 O62 2.024 . S
C42 O61 1.246 . S
C42 O62 1.249 . S
N43 C44 1.307 . S
N43 C45 1.333 . S
N43 Zn49 2.020 . S
C44 N43 1.307 . S
C44 C48 1.370 . S
C44 H55 0.948 . S
C45 N43 1.333 . S
C45 C46 1.379 . S
C45 H53 0.952 . S
C46 C45 1.379 . S
C46 C47 1.390 . S
C46 H66 0.949 . S
C47 C46 1.390 . S
C47 C48 1.357 . S
C48 C44 1.370 . S
C48 C47 1.357 . S
C48 H67 0.950 . S
Zn49 N43 2.020 . S
Zn49 O52 2.025 . S
Zn49 O57 2.024 . S
Zn49 O59 2.039 . S
Zn49 O61 2.034 . S
O50 C34 1.251 . S
O50 Zn41 2.039 . S
C51 O56 1.246 . S
C51 O57 1.249 . S
O52 C34 1.254 . S
O52 Zn49 2.025 . S
H53 C45 0.952 . S
H54 C36 0.952 . S
H55 C44 0.948 . S
O56 Zn41 2.034 . S
O56 C51 1.246 . S
O57 Zn49 2.024 . S
O57 C51 1.249 . S
H58 C40 0.948 . S
O59 Zn49 2.039 . S
O59 C63 1.251 . S
O60 Zn41 2.025 . S
O60 C63 1.254 . S
O61 C42 1.246 . S
O61 Zn49 2.034 . S
O62 Zn41 2.024 . S
O62 C42 1.249 . S
C63 O59 1.251 . S
C63 O60 1.254 . S
H64 C37 0.949 . S
H65 C39 0.950 . S
H66 C46 0.949 . S
H67 C48 0.950 . S
C68 N69 1.317 1_545 S
C68 N70 1.348 1_455 S
C68 C71 1.485 1_545 S
N69 C68 1.317 1_565 S
N69 N73 1.370 . S
N70 C68 1.348 1_655 S
N70 C72 1.346 . S
C71 C68 1.485 1_565 S
C71 H75 0.960 1_455 S
C71 H76 0.961 1_565 S
C71 H77 0.960 . S
C72 N70 1.346 . S
C72 N73 1.307 1_645 S
C72 C74 1.486 . S
N73 N69 1.370 . S
N73 C72 1.307 1_465 S
C74 C72 1.486 . S
C74 H78 0.960 . S
C74 H79 0.960 . S
C74 H80 0.959 . S
H75 C71 0.960 1_655 S
H76 C71 0.961 1_545 S
H77 C71 0.960 . S
H78 C74 0.960 . S
H79 C74 0.960 . S
H80 C74 0.959 . S
C81 N82 1.317 . S
C81 N83 1.348 1_445 S
C81 C84 1.485 . S
N82 C81 1.317 . S
N82 N86 1.370 . S
N83 C81 1.348 1_665 S
N83 C85 1.346 . S
C84 C81 1.485 . S
C84 H88 0.960 1_455 S
C84 H89 0.961 . S
C84 H90 0.960 . S
C85 N83 1.346 . S
C85 N86 1.307 1_665 S
C85 C87 1.486 . S
N86 N82 1.370 . S
N86 C85 1.307 1_445 S
C87 C85 1.486 . S
C87 H91 0.960 . S
C87 H92 0.960 . S
C87 H93 0.959 . S
H88 C84 0.960 1_655 S
H89 C84 0.961 . S
H90 C84 0.960 . S
H91 C87 0.960 . S
H92 C87 0.960 . S
H93 C87 0.959 . S
C94 N95 1.317 1_554 S
C94 N96 1.348 1_554 S
C94 C97 1.485 . S
N95 C94 1.317 1_556 S
N95 N99 1.370 . S
N96 C94 1.348 1_556 S
N96 C98 1.346 . S
C97 C94 1.485 . S
C97 H101 0.960 . S
C97 H102 0.961 . S
C97 H103 0.960 . S
C98 N96 1.346 . S
C98 N99 1.307 . S
C98 C100 1.486 . S
N99 N95 1.370 . S
N99 C98 1.307 . S
C100 C98 1.486 . S
C100 H104 0.960 . S
C100 H105 0.960 . S
C100 H106 0.959 . S
H101 C97 0.960 . S
H102 C97 0.961 . S
H103 C97 0.960 . S
H104 C100 0.960 . S
H105 C100 0.960 . S
H106 C100 0.959 . S
C107 N108 1.317 . S
C107 N109 1.348 . S
C107 C110 1.485 1_554 S
N108 C107 1.317 . S
N108 N112 1.370 . S
N109 C107 1.348 . S
N109 C111 1.346 . S
C110 C107 1.485 1_556 S
C110 H114 0.960 . S
C110 H115 0.961 . S
C110 H116 0.960 . S
C111 N109 1.346 . S
C111 N112 1.307 . S
C111 C113 1.486 . S
N112 N108 1.370 . S
N112 C111 1.307 . S
C113 C111 1.486 . S
C113 H117 0.960 . S
C113 H118 0.960 . S
C113 H119 0.959 . S
H114 C110 0.960 . S
H115 C110 0.961 . S
H116 C110 0.960 . S
H117 C113 0.960 . S
H118 C113 0.960 . S
H119 C113 0.959 . S
C120 C121 1.369 1_556 S
C120 C122 1.419 . S
C120 H124 0.930 . S
C121 C120 1.369 1_554 S
C121 C130 1.429 . S
C122 C120 1.419 . S
C122 C123 1.363 1_556 S
C122 H125 0.929 . S
C123 C122 1.363 1_554 S
C123 C129 1.428 . S
H124 C120 0.930 . S
H125 C122 0.929 . S
S126 N127 1.613 . S
S126 N128 1.610 . S
N127 S126 1.613 . S
N127 C130 1.350 . S
N128 S126 1.610 . S
N128 C129 1.351 . S
C129 C123 1.428 . S
C129 N128 1.351 . S
C129 C130 1.434 . S
C130 C121 1.429 . S
C130 N127 1.350 . S
C130 C129 1.434 . S
C131 C132 1.369 . S
C131 C133 1.419 . S
C131 H135 0.930 . S
C132 C131 1.369 . S
C132 C141 1.429 . S
C133 C131 1.419 . S
C133 C134 1.363 . S
C133 H136 0.929 . S
C134 C133 1.363 . S
C134 C140 1.428 . S
H135 C131 0.930 . S
H136 C133 0.929 . S
S137 N138 1.613 . S
S137 N139 1.610 . S
N138 S137 1.613 . S
N138 C141 1.350 1_556 S
N139 S137 1.610 . S
N139 C140 1.351 1_556 S
C140 C134 1.428 . S
C140 N139 1.351 1_554 S
C140 C141 1.434 . S
C141 C132 1.429 . S
C141 N138 1.350 1_554 S
C141 C140 1.434 . S
C142 C143 1.369 . S
C142 C144 1.419 . S
C142 H146 0.930 . S
C143 C142 1.369 . S
C143 C152 1.429 . S
C144 C142 1.419 . S
C144 C145 1.363 . S
C144 H147 0.929 . S
C145 C144 1.363 . S
C145 C151 1.428 . S
H146 C142 0.930 . S
H147 C144 0.929 . S
S148 N149 1.613 . S
S148 N150 1.610 . S
N149 S148 1.613 . S
N149 C152 1.350 1_556 S
N150 S148 1.610 . S
N150 C151 1.351 1_556 S
C151 C145 1.428 . S
C151 N150 1.351 1_554 S
C151 C152 1.434 . S
C152 C143 1.429 . S
C152 N149 1.350 1_554 S
C152 C151 1.434 . S
C153 C154 1.369 . S
C153 C155 1.419 . S
C153 H157 0.930 . S
C154 C153 1.369 . S
C154 C163 1.429 1_554 S
C155 C153 1.419 . S
C155 C156 1.363 1_554 S
C155 H158 0.929 . S
C156 C155 1.363 1_556 S
C156 C162 1.428 . S
H157 C153 0.930 . S
H158 C155 0.929 . S
S159 N160 1.613 . S
S159 N161 1.610 . S
N160 S159 1.613 . S
N160 C163 1.350 . S
N161 S159 1.610 . S
N161 C162 1.351 . S
C162 C156 1.428 . S
C162 N161 1.351 . S
C162 C163 1.434 . S
C163 C154 1.429 1_556 S
C163 N160 1.350 . S
C163 C162 1.434 . S
C164 C165 1.369 . S
C164 C166 1.419 . S
C164 H168 0.930 . S
C165 C164 1.369 . S
C165 C174 1.429 . S
C166 C164 1.419 . S
C166 C167 1.363 . S
C166 H169 0.929 . S
C167 C166 1.363 . S
C167 C173 1.428 . S
H168 C164 0.930 . S
H169 C166 0.929 . S
S170 N171 1.613 . S
S170 N172 1.610 . S
N171 S170 1.613 . S
N171 C174 1.350 . S
N172 S170 1.610 . S
N172 C173 1.351 . S
C173 C167 1.428 . S
C173 N172 1.351 . S
C173 C174 1.434 . S
C174 C165 1.429 . S
C174 N171 1.350 . S
C174 C173 1.434 . S
C175 C176 1.369 . S
C175 C177 1.419 . S
C175 H179 0.930 . S
C176 C175 1.369 . S
C176 C185 1.429 . S
C177 C175 1.419 . S
C177 C178 1.363 . S
C177 H180 0.929 . S
C178 C177 1.363 . S
C178 C184 1.428 . S
H179 C175 0.930 . S
H180 C177 0.929 . S
S181 N182 1.613 . S
S181 N183 1.610 . S
N182 S181 1.613 . S
N182 C185 1.350 . S
N183 S181 1.610 . S
N183 C184 1.351 . S
C184 C178 1.428 . S
C184 N183 1.351 . S
C184 C185 1.434 . S
C185 C176 1.429 . S
C185 N182 1.350 . S
C185 C184 1.434 . S
C186 C187 1.369 . S
C186 C188 1.419 . S
C186 H190 0.930 . S
C187 C186 1.369 . S
C187 C196 1.429 . S
C188 C186 1.419 . S
C188 C189 1.363 . S
C188 H191 0.929 . S
C189 C188 1.363 . S
C189 C195 1.428 . S
H190 C186 0.930 . S
H191 C188 0.929 . S
S192 N193 1.613 . S
S192 N194 1.610 . S
N193 S192 1.613 . S
N193 C196 1.350 . S
N194 S192 1.610 . S
N194 C195 1.351 . S
C195 C189 1.428 . S
C195 N194 1.351 . S
C195 C196 1.434 . S
C196 C187 1.429 . S
C196 N193 1.350 . S
C196 C195 1.434 . S
C197 C198 1.369 . S
C197 C199 1.419 . S
C197 H201 0.930 . S
C198 C197 1.369 . S
C198 C207 1.429 . S
C199 C197 1.419 . S
C199 C200 1.363 . S
C199 H202 0.929 . S
C200 C199 1.363 . S
C200 C206 1.428 . S
H201 C197 0.930 . S
H202 C199 0.929 . S
S203 N204 1.613 . S
S203 N205 1.610 . S
N204 S203 1.613 . S
N204 C207 1.350 . S
N205 S203 1.610 . S
N205 C206 1.351 . S
C206 C200 1.428 . S
C206 N205 1.351 . S
C206 C207 1.434 . S
C207 C198 1.429 . S
C207 N204 1.350 . S
C207 C206 1.434 . S
C208 C209 1.369 . S
C208 C210 1.419 . S
C208 H212 0.930 . S
C209 C208 1.369 . S
C209 C218 1.429 1_565 S
C210 C208 1.419 . S
C210 C211 1.363 . S
C210 H213 0.929 . S
C211 C210 1.363 . S
C211 C217 1.428 1_565 S
H212 C208 0.930 . S
H213 C210 0.929 . S
S214 N215 1.613 . S
S214 N216 1.610 . S
N215 S214 1.613 . S
N215 C218 1.350 . S
N216 S214 1.610 . S
N216 C217 1.351 . S
C217 C211 1.428 1_545 S
C217 N216 1.351 . S
C217 C218 1.434 . S
C218 C209 1.429 1_545 S
C218 N215 1.350 . S
C218 C217 1.434 . S
C219 C220 1.369 . S
C219 C221 1.419 . S
C219 H223 0.930 . S
C220 C219 1.369 . S
C220 C229 1.429 . S
C221 C219 1.419 . S
C221 C222 1.363 . S
C221 H224 0.929 . S
C222 C221 1.363 . S
C222 C228 1.428 1_545 S
H223 C219 0.930 . S
H224 C221 0.929 . S
S225 N226 1.613 . S
S225 N227 1.610 . S
N226 S225 1.613 . S
N226 C229 1.350 1_665 S
N227 S225 1.610 . S
N227 C228 1.351 1_655 S
C228 C222 1.428 1_565 S
C228 N227 1.351 1_455 S
C228 C229 1.434 1_565 S
C229 C220 1.429 . S
C229 N226 1.350 1_445 S
C229 C228 1.434 1_545 S
C230 C231 1.369 . S
C230 C232 1.419 . S
C230 H234 0.930 . S
C231 C230 1.369 . S
C231 C240 1.429 . S
C232 C230 1.419 . S
C232 C233 1.363 . S
C232 H235 0.929 . S
C233 C232 1.363 . S
C233 C239 1.428 . S
H234 C230 0.930 . S
H235 C232 0.929 . S
S236 N237 1.613 . S
S236 N238 1.610 . S
N237 S236 1.613 . S
N237 C240 1.350 . S
N238 S236 1.610 . S
N238 C239 1.351 . S
C239 C233 1.428 . S
C239 N238 1.351 . S
C239 C240 1.434 . S
C240 C231 1.429 . S
C240 N237 1.350 . S
C240 C239 1.434 . S
C241 C242 1.369 . S
C241 C243 1.419 . S
C241 H245 0.930 . S
C242 C241 1.369 . S
C242 C251 1.429 . S
C243 C241 1.419 . S
C243 C244 1.363 . S
C243 H246 0.929 . S
C244 C243 1.363 . S
C244 C250 1.428 . S
H245 C241 0.930 . S
H246 C243 0.929 . S
S247 N248 1.613 . S
S247 N249 1.610 . S
N248 S247 1.613 . S
N248 C251 1.350 . S
N249 S247 1.610 . S
N249 C250 1.351 . S
C250 C244 1.428 . S
C250 N249 1.351 . S
C250 C251 1.434 . S
C251 C242 1.429 . S
C251 N248 1.350 . S
C251 C250 1.434 . S
C123 N109 1.413 . S
C121 C29 1.434 . S
C132 C8 1.451 . S
C134 N96 1.425 1_554 S
C143 C0 1.513 . S
C145 N108 1.507 . S
C154 C17 1.503 . S
C156 N95 1.507 . S
C165 C63 1.434 . S
C167 N83 1.413 . S
C176 C42 1.450 . S
C178 N70 1.426 . S
C189 N82 1.506 . S
C187 C34 1.514 . S
C200 N69 1.509 . S
C198 C51 1.502 . S
C209 C4 1.519 . S
C211 N73 1.515 . S
C220 C13 1.528 . S
C222 N86 1.527 . S
C233 N99 1.516 . S
C231 C38 1.522 . S
C242 C47 1.530 . S
C244 N112 1.527 . S
