# Generated by pormake.
# Topology tsx, (6,3)-cn, num edge types: 1
# Building blocks:
#     Node 0, Type 0, BuildingBlock: MIDCAF_clean_sbu_0, # of connection points: 6
#     Node 1, Type 0, BuildingBlock: MIDCAF_clean_sbu_0, # of connection points: 6
#     Node 2, Type 1, BuildingBlock: MIDCAF_clean_linker_0, # of connection points: 3
#     Node 3, Type 1, BuildingBlock: MIDCAF_clean_linker_0, # of connection points: 3
#     Node 4, Type 1, BuildingBlock: MIDCAF_clean_linker_0, # of connection points: 3
#     Node 5, Type 1, BuildingBlock: MIDCAF_clean_linker_0, # of connection points: 3
#     Edge 6, Type (0, 1), BuildingBlock: EYOCIG_clean_linker_4, # of connection points: 2
#     Edge 7, Type (0, 1), BuildingBlock: EYOCIG_clean_linker_4, # of connection points: 2
#     Edge 8, Type (0, 1), BuildingBlock: EYOCIG_clean_linker_4, # of connection points: 2
#     Edge 9, Type (0, 1), BuildingBlock: EYOCIG_clean_linker_4, # of connection points: 2
#     Edge 10, Type (0, 1), BuildingBlock: EYOCIG_clean_linker_4, # of connection points: 2
#     Edge 11, Type (0, 1), BuildingBlock: EYOCIG_clean_linker_4, # of connection points: 2
#     Edge 12, Type (0, 1), BuildingBlock: EYOCIG_clean_linker_4, # of connection points: 2
#     Edge 13, Type (0, 1), BuildingBlock: EYOCIG_clean_linker_4, # of connection points: 2
#     Edge 14, Type (0, 1), BuildingBlock: EYOCIG_clean_linker_4, # of connection points: 2
#     Edge 15, Type (0, 1), BuildingBlock: EYOCIG_clean_linker_4, # of connection points: 2
#     Edge 16, Type (0, 1), BuildingBlock: EYOCIG_clean_linker_4, # of connection points: 2
#     Edge 17, Type (0, 1), BuildingBlock: EYOCIG_clean_linker_4, # of connection points: 2
# Relax obj value: 0.119
# Max RMSD: 0.182
# Mean RMSD: 0.114
data_MOF--net-tsx--node1-MIDCAF_clean_sbu_0--node2-MIDCAF_clean_linker_0--edge1-EYOCIG_clean_linker_4
_symmetry_space_group_name_H-M    P1
_symmetry_Int_Tables_number       1
_symmetry_cell_setting            triclinic
loop_
_symmetry_equiv_pos_as_xyz
'x, y, z'
_cell_length_a     17.758487
_cell_length_b     22.392885
_cell_length_c     39.58469
_cell_angle_alpha  89.932915
_cell_angle_beta   99.309834
_cell_angle_gamma 89.998252
loop_
_atom_site_label
_atom_site_type_symbol
_atom_site_fract_x
_atom_site_fract_y
_atom_site_fract_z
_atom_type_partial_charge
Zn0 Zn 0.95488 -0.03622 0.96561 0.0
Zn1 Zn 0.21971 -0.03443 0.04725 0.0
Zn2 Zn 0.08778 -0.03819 0.00663 0.0
C3 C 0.19267 0.07874 0.01969 0.0
C4 C 0.23157 0.88096 -0.00274 0.0
O5 O 1.00803 0.90597 0.03043 0.0
O6 O 0.91336 0.89315 0.98714 0.0
C7 C 0.98149 0.07802 -0.00809 0.0
O8 O 0.12577 0.05578 0.01141 0.0
O9 O 0.24812 0.04718 0.03343 0.0
O10 O 0.26323 0.89472 0.02707 0.0
O11 O 0.16896 0.90633 0.98348 0.0
O12 O 0.92622 0.04607 0.97841 0.0
O13 O 1.04841 0.05529 0.00065 0.0
O14 O 0.10899 0.92341 0.95814 0.0
O15 O 1.00389 0.95247 0.92403 0.0
C16 C 0.07023 0.93054 0.92803 0.0
O17 O 0.06699 0.92497 0.0557 0.0
O18 O 0.17186 -0.04398 0.08915 0.0
C19 C 0.94577 0.87985 0.01695 0.0
C20 C 0.10584 0.93365 0.08564 0.0
Zn21 Zn 0.71971 0.46502 0.5471 0.0
Zn22 Zn 0.45485 0.46348 0.4656 0.0
Zn23 Zn 0.58777 0.46143 0.50656 0.0
C24 C 0.57007 0.43031 0.42794 0.0
C25 C 0.48164 0.57768 0.49198 0.0
O26 O 0.56695 0.42467 0.55564 0.0
O27 O 0.67188 0.45575 0.58902 0.0
C28 C 0.73126 0.38032 0.49714 0.0
O29 O 0.60885 0.42306 0.45804 0.0
O30 O 0.50377 0.4523 0.42398 0.0
O31 O 0.42631 0.54575 0.47852 0.0
O32 O 0.54857 0.55493 0.50064 0.0
O33 O 0.76296 0.39401 0.52696 0.0
O34 O 0.66875 0.40583 0.48336 0.0
O35 O 0.62595 0.55535 0.51135 0.0
O36 O 0.74836 0.54654 0.53322 0.0
C37 C 0.69293 0.5782 0.51957 0.0
O38 O 0.50803 0.40562 0.53039 0.0
O39 O 0.41336 0.39279 0.4871 0.0
C40 C 0.60583 0.43346 0.58556 0.0
C41 C 0.44578 0.37949 0.5169 0.0
C42 C 0.94326 0.1631 0.40505 0.0
C43 C 0.94194 0.16848 0.44009 0.0
C44 C 0.98838 0.13138 0.46331 0.0
C45 C 1.03556 0.08871 0.45137 0.0
H46 H 0.19646 0.94436 0.48041 0.0
H47 H 0.28019 0.87059 0.5141 0.0
H48 H 0.37048 0.81982 0.42354 0.0
H49 H 0.28894 0.89259 0.39007 0.0
H50 H 0.18256 0.8987 0.32049 0.0
H51 H 0.16012 0.87793 0.25915 0.0
H52 H 0.99631 0.0213 0.24275 0.0
H53 H 1.01802 0.04279 0.30418 0.0
H54 H 0.98923 0.11781 0.36574 0.0
H55 H 0.90794 0.19167 0.38683 0.0
H56 H 0.98803 0.13524 0.49058 0.0
H57 H 0.07053 0.06025 0.46973 0.0
N58 N 0.13622 0.00367 0.42364 0.0
N59 N 0.16744 0.95269 0.37598 0.0
N60 N 0.07376 0.02665 0.36814 0.0
C61 C 0.17875 -0.03823 0.41034 0.0
C62 C 0.11513 -0.01533 0.3547 0.0
C63 C 0.08379 0.03666 0.40245 0.0
C64 C 0.23503 0.92382 0.43241 0.0
C65 C 0.2352 0.91823 0.46787 0.0
C66 C 0.28296 0.87625 0.48714 0.0
C67 C 0.33098 0.83993 0.47109 0.0
C68 C 0.33365 0.84756 0.43629 0.0
C69 C 0.28646 0.8891 0.41716 0.0
C70 C 0.10203 -0.02753 0.3174 0.0
C71 C 0.14155 0.92589 0.30398 0.0
C72 C 0.12861 0.91368 0.26893 0.0
C73 C 0.07608 0.9477 0.24673 0.0
C74 C 1.03654 -0.0058 0.25973 0.0
C75 C 1.04931 0.00651 0.29483 0.0
C76 C 1.03644 0.08265 0.41602 0.0
C77 C 0.98993 0.12067 0.3931 0.0
C78 C 0.86491 0.83174 0.57704 0.0
C79 C 0.86015 0.8308 0.54149 0.0
C80 C 0.90545 0.86978 0.52558 0.0
C81 C 0.95697 0.9084 0.5455 0.0
H82 H 0.12293 0.04897 0.54458 0.0
H83 H 0.20014 0.12797 0.52392 0.0
H84 H 0.28831 0.17724 0.62804 0.0
H85 H 0.21232 0.09933 0.64898 0.0
H86 H 0.17781 0.02686 0.71044 0.0
H87 H 0.19341 0.00828 0.77215 0.0
H88 H 1.03433 0.86191 0.75477 0.0
H89 H 1.01803 0.87976 0.69317 0.0
H90 H 0.91829 0.86857 0.62432 0.0
H91 H 0.83038 0.80179 0.5897 0.0
H92 H 0.90256 0.86921 0.49804 0.0
H93 H 0.99278 0.9372 0.53286 0.0
N94 N 0.06298 -0.01253 0.59056 0.0
N95 N 0.12586 0.00934 0.64613 0.0
N96 N 1.03289 0.93489 0.63794 0.0
C97 C 0.11548 0.02014 0.61186 0.0
C98 C 0.08498 -0.0333 0.65936 0.0
C99 C 1.02116 0.94477 0.60365 0.0
C100 C 0.16126 0.06755 0.59849 0.0
C101 C 0.15868 0.07661 0.56309 0.0
C102 C 0.2028 0.12162 0.55123 0.0
C103 C 0.24974 0.15807 0.57459 0.0
C104 C 0.25245 0.14932 0.6097 0.0
C105 C 0.2088 0.10456 0.62157 0.0
C106 C 0.09653 -0.04509 0.69672 0.0
C107 C 0.14649 -0.00959 0.71963 0.0
C108 C 0.15572 -0.02021 0.7549 0.0
C109 C 0.11542 0.93351 0.76773 0.0
C110 C 0.0663 0.89759 0.74515 0.0
C111 C 0.05689 0.90812 0.70994 0.0
C112 C 0.96357 0.90806 0.58147 0.0
C113 C 0.91577 0.86994 0.59681 0.0
C114 C 0.44354 0.66386 0.90507 0.0
C115 C 0.44256 0.66939 0.94013 0.0
C116 C 0.4893 0.63245 0.96333 0.0
C117 C 0.53645 0.5898 0.95135 0.0
H118 H 0.69694 0.44516 0.9803 0.0
H119 H 0.78046 0.37121 0.01393 0.0
H120 H 0.87047 0.3203 0.92333 0.0
H121 H 0.78914 0.39326 0.8899 0.0
H122 H 0.683 0.39974 0.82036 0.0
H123 H 0.66037 0.37889 0.75904 0.0
H124 H 0.49661 0.5223 0.74267 0.0
H125 H 0.51852 0.54387 0.8041 0.0
H126 H 0.48922 0.61847 0.86571 0.0
H127 H 0.40799 0.69229 0.88687 0.0
H128 H 0.4892 0.63642 0.99061 0.0
H129 H 0.57165 0.56146 0.9697 0.0
N130 N 0.63673 0.50456 0.92355 0.0
N131 N 0.6679 0.45365 0.87586 0.0
N132 N 0.57431 0.52768 0.86806 0.0
C133 C 0.67921 0.46265 0.91022 0.0
C134 C 0.61565 0.4857 0.8546 0.0
C135 C 0.58435 0.53762 0.90238 0.0
C136 C 0.73539 0.42458 0.93227 0.0
C137 C 0.73558 0.41897 0.96774 0.0
C138 C 0.78321 0.37688 0.98698 0.0
C139 C 0.83109 0.34047 0.9709 0.0
C140 C 0.83374 0.34811 0.9361 0.0
C141 C 0.78668 0.38976 0.91699 0.0
C142 C 0.6025 0.47353 0.81729 0.0
C143 C 0.64197 0.42693 0.80387 0.0
C144 C 0.62892 0.41467 0.76882 0.0
C145 C 0.57633 0.44867 0.74664 0.0
C146 C 0.53688 0.49522 0.75964 0.0
C147 C 0.54976 0.50758 0.79474 0.0
C148 C 0.53701 0.58359 0.91598 0.0
C149 C 0.49018 0.62144 0.89308 0.0
C150 C 0.36482 0.33207 0.07696 0.0
C151 C 0.35988 0.33126 0.04141 0.0
C152 C 0.40508 0.37031 0.0255 0.0
C153 C 0.45668 0.40887 0.04542 0.0
H154 H 0.62274 0.54942 0.04453 0.0
H155 H 0.69993 0.62845 0.02389 0.0
H156 H 0.78841 0.67742 0.12803 0.0
H157 H 0.71244 0.59947 0.14894 0.0
H158 H 0.67774 0.52705 0.21039 0.0
H159 H 0.69328 0.5084 0.2721 0.0
H160 H 0.53437 0.36193 0.25463 0.0
H161 H 0.51813 0.37985 0.19304 0.0
H162 H 0.41841 0.36872 0.12425 0.0
H163 H 0.33036 0.30205 0.08963 0.0
H164 H 0.40204 0.36985 -0.00206 0.0
H165 H 0.49241 0.43773 0.03277 0.0
N166 N 0.56292 0.48778 0.0905 0.0
N167 N 0.62587 0.50956 0.14606 0.0
N168 N 0.53287 0.43513 0.13785 0.0
C169 C 0.61545 0.52041 0.1118 0.0
C170 C 0.585 0.46689 0.15929 0.0
C171 C 0.5211 0.44506 0.10357 0.0
C172 C 0.66123 0.56784 0.09844 0.0
C173 C 0.65855 0.57699 0.06304 0.0
C174 C 0.70266 0.62202 0.0512 0.0
C175 C 0.74968 0.65841 0.07457 0.0
C176 C 0.75249 0.64955 0.10968 0.0
C177 C 0.70884 0.60477 0.12153 0.0
C178 C 0.59655 0.45505 0.19664 0.0
C179 C 0.64645 0.49056 0.21957 0.0
C180 C 0.65564 0.4799 0.25483 0.0
C181 C 0.61537 0.43358 0.26764 0.0
C182 C 0.56632 0.39764 0.24504 0.0
C183 C 0.55694 0.40821 0.20983 0.0
C184 C 0.46345 0.40839 0.08139 0.0
C185 C 0.41575 0.37021 0.09674 0.0
C186 C 0.22986 0.19064 0.0111 0.0
C187 C 0.20596 0.14074 0.01363 0.0
C188 C 0.27021 0.24516 0.01383 0.0
C189 C 0.31223 0.28652 0.02261 0.0
C190 C 0.30314 0.79641 0.96898 0.0
C191 C 0.26624 0.83523 0.97961 0.0
C192 C 0.35103 0.75111 0.9596 0.0
C193 C 0.39345 0.71339 0.95175 0.0
C194 C 0.87846 0.79293 0.04554 0.0
C195 C 0.91325 0.83292 0.03467 0.0
C196 C 0.834 0.74543 0.05513 0.0
C197 C 0.79485 0.7054 0.06305 0.0
C198 C 0.94643 0.1909 -0.00065 0.0
C199 C 0.96828 0.14031 -0.00288 0.0
C200 C 0.91022 0.2472 -0.00331 0.0
C201 C 0.8724 0.29105 0.9883 0.0
C202 C 0.73028 0.6901 0.51109 0.0
C203 C 0.70632 0.64021 0.51358 0.0
C204 C 0.77064 0.74462 0.51388 0.0
C205 C 0.81262 0.78599 0.5227 0.0
C206 C 0.80258 0.29562 0.46886 0.0
C207 C 0.76579 0.33452 0.47949 0.0
C208 C 0.8504 0.25026 0.45949 0.0
C209 C 0.89281 0.21251 0.45168 0.0
C210 C 0.3785 0.29256 0.5455 0.0
C211 C 0.41327 0.33256 0.53462 0.0
C212 C 0.33405 0.24506 0.55511 0.0
C213 C 0.29491 0.20505 0.56305 0.0
C214 C 0.44661 0.69053 0.49953 0.0
C215 C 0.46847 0.63995 0.49725 0.0
C216 C 0.41033 0.74679 0.4969 0.0
C217 C 0.3724 0.79059 0.48851 0.0
C218 C 0.06055 0.92056 0.1449 0.0
C219 C 0.07318 0.92353 0.11596 0.0
C220 C 0.05871 0.92651 0.18022 0.0
C221 C 0.06596 0.93674 0.21046 0.0
C222 C 0.11833 0.91409 0.86951 0.0
C223 C 0.10354 0.91908 0.89802 0.0
C224 C 0.12407 0.9172 0.83443 0.0
C225 C 0.12062 0.92508 0.80409 0.0
C226 C 0.56052 0.42092 0.64485 0.0
C227 C 0.57314 0.42363 0.6159 0.0
C228 C 0.55872 0.42717 0.68016 0.0
C229 C 0.56602 0.43758 0.71037 0.0
C230 C 0.61812 0.41399 0.3694 0.0
C231 C 0.60333 0.41892 0.39791 0.0
C232 C 0.62391 0.41718 0.33432 0.0
C233 C 0.62052 0.4251 0.30399 0.0
loop_
_geom_bond_atom_site_label_1
_geom_bond_atom_site_label_2
_geom_bond_distance
_geom_bond_site_symmetry_2
_ccdc_geom_bond_type
Zn0 O6 1.920 1_545 S
Zn0 O12 1.898 . S
Zn0 O15 1.905 1_545 S
Zn1 O9 1.905 . S
Zn1 O10 1.898 1_545 S
Zn1 O18 1.920 1_545 S
Zn2 O5 2.080 1_445 S
Zn2 O8 2.114 . S
Zn2 O11 2.120 1_545 S
Zn2 O13 2.120 1_455 S
Zn2 O14 2.114 1_554 S
Zn2 O17 2.080 . S
C3 O8 1.166 . S
C3 O9 1.182 . S
C4 O10 1.167 . S
C4 O11 1.299 . S
O5 Zn2 2.080 1_665 S
O5 C19 1.305 . S
O6 Zn0 1.920 1_565 S
O6 C19 1.234 1_556 S
C7 O12 1.167 . S
C7 O13 1.299 1_556 S
O8 Zn2 2.114 . S
O8 C3 1.166 . S
O9 Zn1 1.905 . S
O9 C3 1.182 . S
O10 Zn1 1.898 1_565 S
O10 C4 1.167 . S
O11 Zn2 2.120 1_565 S
O11 C4 1.299 . S
O12 Zn0 1.898 . S
O12 C7 1.167 . S
O13 Zn2 2.120 1_655 S
O13 C7 1.299 1_554 S
O14 Zn2 2.114 1_556 S
O14 C16 1.163 1_445 S
O15 Zn0 1.905 1_565 S
O15 C16 1.190 . S
C16 O14 1.163 1_665 S
C16 O15 1.190 . S
O17 Zn2 2.080 . S
O17 C20 1.305 1_545 S
O18 Zn1 1.920 1_565 S
O18 C20 1.234 . S
C19 O5 1.305 . S
C19 O6 1.234 1_554 S
C20 O17 1.305 1_565 S
C20 O18 1.234 . S
Zn21 O27 1.920 . S
Zn21 O33 1.898 . S
Zn21 O36 1.905 . S
Zn22 O30 1.905 . S
Zn22 O31 1.898 . S
Zn22 O39 1.920 . S
Zn23 O26 2.080 . S
Zn23 O29 2.114 . S
Zn23 O32 2.120 . S
Zn23 O34 2.120 . S
Zn23 O35 2.114 . S
Zn23 O38 2.080 . S
C24 O29 1.166 . S
C24 O30 1.182 . S
C25 O31 1.167 . S
C25 O32 1.299 . S
O26 Zn23 2.080 . S
O26 C40 1.305 . S
O27 Zn21 1.920 . S
O27 C40 1.234 . S
C28 O33 1.167 . S
C28 O34 1.299 . S
O29 Zn23 2.114 . S
O29 C24 1.166 . S
O30 Zn22 1.905 . S
O30 C24 1.182 . S
O31 Zn22 1.898 . S
O31 C25 1.167 . S
O32 Zn23 2.120 . S
O32 C25 1.299 . S
O33 Zn21 1.898 . S
O33 C28 1.167 . S
O34 Zn23 2.120 . S
O34 C28 1.299 . S
O35 Zn23 2.114 . S
O35 C37 1.166 . S
O36 Zn21 1.905 . S
O36 C37 1.182 . S
C37 O35 1.166 . S
C37 O36 1.182 . S
O38 Zn23 2.080 . S
O38 C41 1.305 . S
O39 Zn22 1.920 . S
O39 C41 1.234 . S
C40 O26 1.305 . S
C40 O27 1.234 . S
C41 O38 1.305 . S
C41 O39 1.234 . S
C42 C43 1.384 . S
C42 H55 0.947 . S
C42 C77 1.382 . S
C43 C42 1.384 . S
C43 C44 1.378 . S
C44 C43 1.378 . S
C44 C45 1.378 1_655 S
C44 H56 0.952 . S
C45 C44 1.378 1_455 S
C45 H57 0.950 . S
C45 C76 1.383 1_455 S
H46 C65 0.947 . S
H47 C66 0.946 . S
H48 C68 0.953 . S
H49 C69 0.945 . S
H50 C71 0.952 . S
H51 C72 0.949 . S
H52 C74 0.950 . S
H53 C75 0.948 . S
H54 C77 0.951 . S
H55 C42 0.947 . S
H56 C44 0.952 . S
H57 C45 0.950 . S
N58 C61 1.381 1_545 S
N58 C63 1.363 . S
N59 C61 1.371 . S
N59 C62 1.372 1_565 S
N60 C62 1.361 . S
N60 C63 1.377 . S
C61 N58 1.381 1_565 S
C61 N59 1.371 . S
C61 C64 1.481 . S
C62 N59 1.372 1_545 S
C62 N60 1.361 . S
C62 C70 1.457 . S
C63 N58 1.363 . S
C63 N60 1.377 . S
C63 C76 1.479 1_455 S
C64 C61 1.481 . S
C64 C65 1.383 . S
C64 C69 1.385 . S
C65 H46 0.947 . S
C65 C64 1.383 . S
C65 C66 1.388 . S
C66 H47 0.946 . S
C66 C65 1.388 . S
C66 C67 1.384 . S
C67 C66 1.384 . S
C67 C68 1.377 . S
C68 H48 0.953 . S
C68 C67 1.377 . S
C68 C69 1.369 . S
C69 H49 0.945 . S
C69 C64 1.385 . S
C69 C68 1.369 . S
C70 C62 1.457 . S
C70 C71 1.372 1_545 S
C70 C75 1.364 . S
C71 H50 0.952 . S
C71 C70 1.372 1_565 S
C71 C72 1.389 . S
C72 H51 0.949 . S
C72 C71 1.389 . S
C72 C73 1.387 1_565 S
C73 C72 1.387 1_545 S
C73 C74 1.372 . S
C74 H52 0.950 . S
C74 C73 1.372 . S
C74 C75 1.379 . S
C75 H53 0.948 . S
C75 C70 1.364 . S
C75 C74 1.379 . S
C76 C45 1.383 1_655 S
C76 C63 1.479 1_655 S
C76 C77 1.398 . S
C77 C42 1.382 . S
C77 H54 0.951 . S
C77 C76 1.398 . S
C78 C79 1.384 . S
C78 H91 0.947 . S
C78 C113 1.382 . S
C79 C78 1.384 . S
C79 C80 1.378 . S
C80 C79 1.378 . S
C80 C81 1.378 . S
C80 H92 0.952 . S
C81 C80 1.378 . S
C81 H93 0.950 . S
C81 C112 1.383 . S
H82 C101 0.947 . S
H83 C102 0.946 . S
H84 C104 0.953 . S
H85 C105 0.945 . S
H86 C107 0.952 . S
H87 C108 0.949 . S
H88 C110 0.950 . S
H89 C111 0.948 . S
H90 C113 0.951 . S
H91 C78 0.947 . S
H92 C80 0.952 . S
H93 C81 0.950 . S
N94 C97 1.382 . S
N94 C99 1.363 1_445 S
N95 C97 1.371 . S
N95 C98 1.372 . S
N96 C98 1.361 1_665 S
N96 C99 1.377 . S
C97 N94 1.382 . S
C97 N95 1.371 . S
C97 C100 1.480 . S
C98 N95 1.372 . S
C98 N96 1.361 1_445 S
C98 C106 1.457 . S
C99 N94 1.363 1_665 S
C99 N96 1.377 . S
C99 C112 1.479 . S
C100 C97 1.480 . S
C100 C101 1.383 . S
C100 C105 1.385 . S
C101 H82 0.947 . S
C101 C100 1.383 . S
C101 C102 1.388 . S
C102 H83 0.946 . S
C102 C101 1.388 . S
C102 C103 1.384 . S
C103 C102 1.384 . S
C103 C104 1.377 . S
C104 H84 0.953 . S
C104 C103 1.377 . S
C104 C105 1.369 . S
C105 H85 0.945 . S
C105 C100 1.385 . S
C105 C104 1.369 . S
C106 C98 1.457 . S
C106 C107 1.372 . S
C106 C111 1.364 1_445 S
C107 H86 0.952 . S
C107 C106 1.372 . S
C107 C108 1.389 . S
C108 H87 0.949 . S
C108 C107 1.389 . S
C108 C109 1.387 . S
C109 C108 1.387 . S
C109 C110 1.372 1_445 S
C110 H88 0.950 . S
C110 C109 1.372 1_665 S
C110 C111 1.379 . S
C111 H89 0.948 . S
C111 C106 1.364 1_665 S
C111 C110 1.379 . S
C112 C81 1.383 . S
C112 C99 1.479 . S
C112 C113 1.398 . S
C113 C78 1.382 . S
C113 H90 0.951 . S
C113 C112 1.398 . S
C114 C115 1.384 . S
C114 H127 0.947 . S
C114 C149 1.382 . S
C115 C114 1.384 . S
C115 C116 1.378 . S
C116 C115 1.378 . S
C116 C117 1.378 . S
C116 H128 0.952 1_556 S
C117 C116 1.378 . S
C117 H129 0.950 . S
C117 C148 1.383 . S
H118 C137 0.947 . S
H119 C138 0.946 1_554 S
H120 C140 0.953 . S
H121 C141 0.945 . S
H122 C143 0.952 . S
H123 C144 0.949 . S
H124 C146 0.950 . S
H125 C147 0.948 . S
H126 C149 0.951 . S
H127 C114 0.947 . S
H128 C116 0.952 1_554 S
H129 C117 0.950 . S
N130 C133 1.382 . S
N130 C135 1.363 . S
N131 C133 1.371 . S
N131 C134 1.372 . S
N132 C134 1.361 . S
N132 C135 1.377 . S
C133 N130 1.382 . S
C133 N131 1.371 . S
C133 C136 1.480 . S
C134 N131 1.372 . S
C134 N132 1.361 . S
C134 C142 1.457 . S
C135 N130 1.363 . S
C135 N132 1.377 . S
C135 C148 1.479 . S
C136 C133 1.480 . S
C136 C137 1.383 . S
C136 C141 1.385 . S
C137 H118 0.947 . S
C137 C136 1.383 . S
C137 C138 1.388 . S
C138 H119 0.946 1_556 S
C138 C137 1.388 . S
C138 C139 1.384 . S
C139 C138 1.384 . S
C139 C140 1.377 . S
C140 H120 0.953 . S
C140 C139 1.377 . S
C140 C141 1.369 . S
C141 H121 0.945 . S
C141 C136 1.385 . S
C141 C140 1.369 . S
C142 C134 1.457 . S
C142 C143 1.372 . S
C142 C147 1.364 . S
C143 H122 0.952 . S
C143 C142 1.372 . S
C143 C144 1.389 . S
C144 H123 0.949 . S
C144 C143 1.389 . S
C144 C145 1.387 . S
C145 C144 1.387 . S
C145 C146 1.372 . S
C146 H124 0.950 . S
C146 C145 1.372 . S
C146 C147 1.379 . S
C147 H125 0.948 . S
C147 C142 1.364 . S
C147 C146 1.379 . S
C148 C117 1.383 . S
C148 C135 1.479 . S
C148 C149 1.398 . S
C149 C114 1.382 . S
C149 H126 0.951 . S
C149 C148 1.398 . S
C150 C151 1.384 . S
C150 H163 0.947 . S
C150 C185 1.382 . S
C151 C150 1.384 . S
C151 C152 1.378 . S
C152 C151 1.378 . S
C152 C153 1.378 . S
C152 H164 0.952 . S
C153 C152 1.378 . S
C153 H165 0.950 . S
C153 C184 1.383 . S
H154 C173 0.947 . S
H155 C174 0.946 . S
H156 C176 0.953 . S
H157 C177 0.945 . S
H158 C179 0.952 . S
H159 C180 0.949 . S
H160 C182 0.950 . S
H161 C183 0.948 . S
H162 C185 0.951 . S
H163 C150 0.947 . S
H164 C152 0.952 . S
H165 C153 0.950 . S
N166 C169 1.382 . S
N166 C171 1.363 . S
N167 C169 1.371 . S
N167 C170 1.372 . S
N168 C170 1.361 . S
N168 C171 1.377 . S
C169 N166 1.382 . S
C169 N167 1.371 . S
C169 C172 1.480 . S
C170 N167 1.372 . S
C170 N168 1.361 . S
C170 C178 1.457 . S
C171 N166 1.363 . S
C171 N168 1.377 . S
C171 C184 1.479 . S
C172 C169 1.480 . S
C172 C173 1.383 . S
C172 C177 1.385 . S
C173 H154 0.947 . S
C173 C172 1.383 . S
C173 C174 1.388 . S
C174 H155 0.946 . S
C174 C173 1.388 . S
C174 C175 1.384 . S
C175 C174 1.384 . S
C175 C176 1.377 . S
C176 H156 0.953 . S
C176 C175 1.377 . S
C176 C177 1.369 . S
C177 H157 0.945 . S
C177 C172 1.385 . S
C177 C176 1.369 . S
C178 C170 1.457 . S
C178 C179 1.372 . S
C178 C183 1.364 . S
C179 H158 0.952 . S
C179 C178 1.372 . S
C179 C180 1.389 . S
C180 H159 0.949 . S
C180 C179 1.389 . S
C180 C181 1.387 . S
C181 C180 1.387 . S
C181 C182 1.372 . S
C182 H160 0.950 . S
C182 C181 1.372 . S
C182 C183 1.379 . S
C183 H161 0.948 . S
C183 C178 1.364 . S
C183 C182 1.379 . S
C184 C153 1.383 . S
C184 C171 1.479 . S
C184 C185 1.398 . S
C185 C150 1.382 . S
C185 H162 0.951 . S
C185 C184 1.398 . S
C186 C187 1.170 . S
C186 C188 1.380 . S
C187 C186 1.170 . S
C188 C186 1.380 . S
C188 C189 1.170 . S
C189 C188 1.170 . S
C190 C191 1.170 . S
C190 C192 1.380 . S
C191 C190 1.170 . S
C192 C190 1.380 . S
C192 C193 1.170 . S
C193 C192 1.170 . S
C194 C195 1.170 . S
C194 C196 1.380 . S
C195 C194 1.170 . S
C196 C194 1.380 . S
C196 C197 1.170 . S
C197 C196 1.170 . S
C198 C199 1.170 1_556 S
C198 C200 1.380 . S
C199 C198 1.170 1_554 S
C200 C198 1.380 . S
C200 C201 1.170 . S
C201 C200 1.170 . S
C202 C203 1.170 . S
C202 C204 1.380 . S
C203 C202 1.170 . S
C204 C202 1.380 . S
C204 C205 1.170 . S
C205 C204 1.170 . S
C206 C207 1.170 . S
C206 C208 1.380 . S
C207 C206 1.170 . S
C208 C206 1.380 . S
C208 C209 1.170 . S
C209 C208 1.170 . S
C210 C211 1.170 . S
C210 C212 1.380 . S
C211 C210 1.170 . S
C212 C210 1.380 . S
C212 C213 1.170 . S
C213 C212 1.170 . S
C214 C215 1.170 . S
C214 C216 1.380 . S
C215 C214 1.170 . S
C216 C214 1.380 . S
C216 C217 1.170 . S
C217 C216 1.170 . S
C218 C219 1.170 . S
C218 C220 1.380 1_565 S
C219 C218 1.170 . S
C220 C218 1.380 1_545 S
C220 C221 1.170 . S
C221 C220 1.170 . S
C222 C223 1.170 . S
C222 C224 1.380 1_565 S
C223 C222 1.170 . S
C224 C222 1.380 1_545 S
C224 C225 1.170 . S
C225 C224 1.170 . S
C226 C227 1.170 . S
C226 C228 1.380 . S
C227 C226 1.170 . S
C228 C226 1.380 . S
C228 C229 1.170 . S
C229 C228 1.170 . S
C230 C231 1.170 . S
C230 C232 1.380 . S
C231 C230 1.170 . S
C232 C230 1.380 . S
C232 C233 1.170 . S
C233 C232 1.170 . S
C189 C151 1.314 . S
C187 C3 1.218 . S
C191 C4 1.497 1_556 S
C193 C115 1.609 . S
C195 C19 1.525 . S
C197 C175 1.592 . S
C199 C7 1.210 1_554 S
C201 C139 1.288 . S
C203 C37 1.195 . S
C205 C79 1.304 . S
C207 C28 1.501 . S
C209 C43 1.629 . S
C213 C103 1.589 . S
C211 C41 1.536 . S
C217 C67 1.320 . S
C215 C25 1.236 . S
C219 C20 1.304 . S
C221 C73 1.499 . S
C223 C16 1.386 1_455 S
C225 C109 1.507 . S
C229 C145 1.505 . S
C227 C40 1.279 . S
C231 C24 1.389 . S
C233 C181 1.507 . S
