# Generated by pormake.
# Topology pts, (4,4)-cn, num edge types: 1
# Building blocks:
#     Node 0, Type 0, BuildingBlock: GIZVER_clean_linker_0, # of connection points: 4
#     Node 1, Type 0, BuildingBlock: GIZVER_clean_linker_0, # of connection points: 4
#     Node 2, Type 1, BuildingBlock: AZAVOO_clean_sbu_0, # of connection points: 4
#     Node 3, Type 1, BuildingBlock: AZAVOO_clean_sbu_0, # of connection points: 4
#     Edge 4, Type (0, 1), BuildingBlock: AJUNOK_clean_linker_0, # of connection points: 2
#     Edge 5, Type (0, 1), BuildingBlock: AJUNOK_clean_linker_0, # of connection points: 2
#     Edge 6, Type (0, 1), BuildingBlock: AJUNOK_clean_linker_0, # of connection points: 2
#     Edge 7, Type (0, 1), BuildingBlock: AJUNOK_clean_linker_0, # of connection points: 2
#     Edge 8, Type (0, 1), BuildingBlock: AJUNOK_clean_linker_0, # of connection points: 2
#     Edge 9, Type (0, 1), BuildingBlock: AJUNOK_clean_linker_0, # of connection points: 2
#     Edge 10, Type (0, 1), BuildingBlock: AJUNOK_clean_linker_0, # of connection points: 2
#     Edge 11, Type (0, 1), BuildingBlock: AJUNOK_clean_linker_0, # of connection points: 2
# Relax obj value: 0.014
# Max RMSD: 0.076
# Mean RMSD: 0.070
data_MOF--net-pts--node1-AZAVOO_clean_sbu_0--node2-GIZVER_clean_linker_0--edge1-AJUNOK_clean_linker_0
_symmetry_space_group_name_H-M    P1
_symmetry_Int_Tables_number       1
_symmetry_cell_setting            triclinic
loop_
_symmetry_equiv_pos_as_xyz
'x, y, z'
_cell_length_a     18.120117
_cell_length_b     19.544015
_cell_length_c     27.193626
_cell_angle_alpha  90.913618
_cell_angle_beta   96.724967
_cell_angle_gamma 89.764236
loop_
_atom_site_label
_atom_site_type_symbol
_atom_site_fract_x
_atom_site_fract_y
_atom_site_fract_z
_atom_type_partial_charge
H0 H 0.62875 0.09818 0.04451 0.0
H1 H 0.62049 0.12079 0.88698 0.0
H2 H 0.81198 0.02942 -0.03147 0.0
H3 H 0.55451 0.19242 -0.00113 0.0
H4 H 0.54078 0.19048 0.93293 0.0
H5 H 0.48005 0.12235 0.04669 0.0
H6 H 0.29001 0.02208 -0.03155 0.0
H7 H 0.45932 0.10288 0.88754 0.0
C8 C 0.65445 0.09086 0.0108 0.0
C9 C 0.72543 0.0608 0.01245 0.0
C10 C 0.61698 0.11385 -0.03411 0.0
C11 C 0.64879 0.10278 0.92173 0.0
C12 C 0.71895 0.07201 0.92267 0.0
C13 C 0.75688 0.05144 -0.03203 0.0
C14 C 0.54802 0.15728 -0.03396 0.0
C15 C 0.47919 0.11453 -0.03287 0.0
C16 C 0.45067 0.10302 0.01228 0.0
C17 C 0.38165 0.07094 0.01264 0.0
C18 C 0.34307 0.04746 -0.03198 0.0
C19 C 0.36983 0.05973 0.92272 0.0
C20 C 0.43895 0.09182 0.92249 0.0
H21 H 0.12376 0.58378 0.38891 0.0
H22 H 0.14361 0.5886 0.54842 0.0
H23 H 0.0524 0.76111 0.46679 0.0
H24 H 0.21084 0.50725 0.43718 0.0
H25 H 0.22057 0.50994 0.50325 0.0
H26 H 0.11127 0.44075 0.38982 0.0
H27 H 1.00904 0.28683 0.46986 0.0
H28 H 0.13738 0.44545 0.54948 0.0
C29 C 0.11486 0.60998 0.42314 0.0
C30 C 0.08448 0.67631 0.42192 0.0
C31 C 0.13699 0.5783 0.46864 0.0
C32 C 0.12541 0.61202 0.51318 0.0
C33 C 0.09361 0.67739 0.51219 0.0
C34 C 0.07337 0.70903 0.46679 0.0
C35 C 0.17904 0.51167 0.46972 0.0
C36 C 0.12686 0.45196 0.46963 0.0
C37 C 0.09728 0.42094 0.42456 0.0
C38 C 0.05356 0.36187 0.42444 0.0
C39 C 0.03809 0.33525 0.46967 0.0
C40 C 0.06817 0.36477 0.51482 0.0
C41 C 0.11186 0.42376 0.51468 0.0
Mg42 Mg 0.09275 1.00133 0.24289 0.0
O43 O 0.98526 0.99853 0.189 0.0
O44 O 0.89017 0.98896 0.23416 0.0
Mg45 Mg 0.93741 0.97331 0.31485 0.0
C46 C 0.91577 0.99592 0.1928 0.0
C47 C 0.22523 0.02764 0.18389 0.0
O48 O 0.25683 0.99097 0.22066 0.0
O49 O 0.0631 0.10862 0.26905 0.0
O50 O 0.974 0.08591 0.31682 0.0
O51 O 0.10815 0.88819 0.238 0.0
O52 O 0.04508 0.94041 0.29232 0.0
C53 C 1.01669 0.12802 0.29842 0.0
C54 C 0.06937 0.88407 0.27491 0.0
O55 O 0.15669 0.04255 0.18279 0.0
Mg56 Mg 1.00184 1.00159 0.68466 0.0
O57 O 0.10752 1.00625 0.73943 0.0
O58 O 0.2083 0.99555 0.6999 0.0
Mg59 Mg 0.16566 0.98426 0.61772 0.0
C60 C 0.17796 1.00417 0.73957 0.0
C61 C 0.86877 0.01932 0.74802 0.0
O62 O 0.83759 0.978 0.71311 0.0
O63 O 1.02366 0.11087 0.66159 0.0
O64 O 0.12177 0.09452 0.61982 0.0
O65 O 0.99764 0.88679 0.68694 0.0
O66 O 0.05816 0.94497 0.63549 0.0
C67 C 0.0731 0.13353 0.63624 0.0
C68 C 0.03997 0.88668 0.65174 0.0
O69 O 0.93504 0.03905 0.74587 0.0
C70 C 0.37847 0.03105 0.09948 0.0
C71 C 0.34527 0.06713 0.05847 0.0
C72 C 0.34008 0.02039 0.14065 0.0
C73 C 0.26729 0.04568 0.14222 0.0
H74 H 0.43323 0.00877 0.09893 0.0
H75 H 0.36699 0.99035 0.17077 0.0
S76 S 0.16031 0.15119 0.04599 0.0
N77 N 0.23905 0.13372 0.02342 0.0
N78 N 0.16663 0.11384 0.10035 0.0
C79 C 0.23527 0.08493 0.10223 0.0
C80 C 0.27433 0.0956 0.06048 0.0
C81 C 0.13514 0.29615 0.58172 0.0
C82 C 0.06754 0.32358 0.55993 0.0
C83 C 0.13638 0.23763 0.61082 0.0
C84 C 0.07009 0.20524 0.61966 0.0
H85 H 0.18741 0.31562 0.5721 0.0
H86 H 0.18967 0.21465 0.62336 0.0
S87 S 0.87876 0.26546 0.5788 0.0
N88 N 0.93298 0.3205 0.55482 0.0
N89 N 0.93506 0.21099 0.61046 0.0
C90 C 1.0022 0.23702 0.60301 0.0
C91 C 1.00101 0.29617 0.57282 0.0
C92 C 0.81242 0.98202 0.06375 0.0
C93 C 0.76922 0.04244 0.06039 0.0
C94 C 0.85938 0.96654 0.10692 0.0
C95 C 0.86323 0.00992 0.14869 0.0
H96 H 0.81068 0.94672 0.03253 0.0
H97 H 0.89292 0.92046 0.10764 0.0
S98 S 0.76485 0.17486 0.15969 0.0
N99 N 0.73693 0.14721 0.10289 0.0
N100 N 0.82176 0.11547 0.18472 0.0
C101 C 0.81965 0.06946 0.14655 0.0
C102 C 0.77331 0.0863 0.10229 0.0
C103 C 0.1411 0.76919 0.57102 0.0
C104 C 0.08844 0.71768 0.55791 0.0
C105 C 0.12784 0.82084 0.60514 0.0
C106 C 0.06137 0.82283 0.62714 0.0
H107 H 0.1906 0.77207 0.55231 0.0
H108 H 0.16834 0.86129 0.61232 0.0
S109 S 0.90971 0.69479 0.6088 0.0
N110 N 0.97076 0.6677 0.5722 0.0
N111 N 0.94557 0.76472 0.63688 0.0
C112 C 1.01109 0.76826 0.61735 0.0
C113 C 1.02457 0.71574 0.58234 0.0
C114 C 0.34714 0.0086 0.83687 0.0
C115 C 0.32106 0.04589 0.87596 0.0
C116 C 0.30036 0.99454 0.79296 0.0
C117 C 0.22589 0.01711 0.7868 0.0
H118 H 0.40376 0.98966 0.84046 0.0
H119 H 0.32259 0.96549 0.76378 0.0
S120 S 0.13378 0.1231 0.87652 0.0
N121 N 0.21835 0.10982 0.90429 0.0
N122 N 0.13013 0.08243 0.82267 0.0
C123 C 0.19978 0.05545 0.82549 0.0
C124 C 0.24746 0.07017 0.86978 0.0
C125 C 0.09531 0.29391 0.35446 0.0
C126 C 0.03647 0.31868 0.37926 0.0
C127 C 0.08652 0.23533 0.32385 0.0
C128 C 1.01875 0.19949 0.31747 0.0
H129 H 0.15031 0.31584 0.36242 0.0
H130 H 0.13495 0.21467 0.30891 0.0
S131 S 0.84317 0.25392 0.36444 0.0
N132 N 0.90497 0.31101 0.38795 0.0
N133 N 0.88827 0.20066 0.33075 0.0
C134 C 0.95736 0.22861 0.33735 0.0
C135 C 0.96626 0.28837 0.36815 0.0
C136 C 0.72138 0.02419 0.83695 0.0
C137 C 0.75493 0.06401 0.87676 0.0
C138 C 0.75791 0.01134 0.79498 0.0
C139 C 0.82909 0.0383 0.79118 0.0
H140 H 0.66756 1.00113 0.83893 0.0
H141 H 0.7306 0.97884 0.76579 0.0
S142 S 0.93614 0.15275 0.88378 0.0
N143 N 0.85985 0.13484 0.90866 0.0
N144 N 0.92872 0.11151 0.82996 0.0
C145 C 0.86161 0.08077 0.83014 0.0
C146 C 0.82449 0.09337 0.87288 0.0
C147 C 1.00982 0.7593 0.36698 0.0
C148 C 0.07228 0.71604 0.37536 0.0
C149 C 1.00616 0.81049 0.33128 0.0
C150 C 0.06408 0.81948 0.3019 0.0
H151 H 0.96547 0.75639 0.39035 0.0
H152 H 0.95941 0.84544 0.32851 0.0
S153 S 0.2353 0.71421 0.30434 0.0
N154 N 0.19047 0.68204 0.34806 0.0
N155 N 0.18189 0.77624 0.27957 0.0
C156 C 0.12334 0.77239 0.30642 0.0
C157 C 0.12784 0.72105 0.34347 0.0
loop_
_geom_bond_atom_site_label_1
_geom_bond_atom_site_label_2
_geom_bond_distance
_geom_bond_site_symmetry_2
_ccdc_geom_bond_type
H0 C8 0.930 . S
H1 C11 0.930 . S
H2 C13 0.930 . S
H3 C14 0.970 . S
H4 C14 0.970 1_556 S
H5 C16 0.930 . S
H6 C18 0.928 . S
H7 C20 0.930 . S
C8 H0 0.930 . S
C8 C9 1.382 . S
C8 C10 1.426 . S
C9 C8 1.382 . S
C9 C13 1.389 1_545 S
C10 C8 1.426 . S
C10 C11 1.375 1_554 S
C10 C14 1.532 . S
C11 H1 0.930 . S
C11 C10 1.375 1_556 S
C11 C12 1.416 . S
C12 C11 1.416 . S
C12 C13 1.371 1_546 S
C13 H2 0.930 . S
C13 C9 1.389 1_565 S
C13 C12 1.371 1_564 S
C14 H3 0.970 . S
C14 H4 0.970 1_554 S
C14 C10 1.532 . S
C14 C15 1.499 . S
C15 C14 1.499 . S
C15 C16 1.370 . S
C15 C20 1.415 1_554 S
C16 H5 0.930 . S
C16 C15 1.370 . S
C16 C17 1.407 . S
C17 C16 1.407 . S
C17 C18 1.347 1_544 S
C18 H6 0.928 . S
C18 C17 1.347 1_566 S
C18 C19 1.412 1_565 S
C19 C18 1.412 1_545 S
C19 C20 1.387 . S
C20 H7 0.930 . S
C20 C15 1.415 1_556 S
C20 C19 1.387 . S
H21 C29 0.930 . S
H22 C32 0.930 . S
H23 C34 0.930 1_655 S
H24 C35 0.970 . S
H25 C35 0.970 . S
H26 C37 0.930 . S
H27 C39 0.930 1_655 S
H28 C41 0.930 . S
C29 H21 0.930 . S
C29 C30 1.382 . S
C29 C31 1.426 . S
C30 C29 1.382 . S
C30 C34 1.389 . S
C31 C29 1.426 . S
C31 C32 1.375 . S
C31 C35 1.532 . S
C32 H22 0.930 . S
C32 C31 1.375 . S
C32 C33 1.416 . S
C33 C32 1.416 . S
C33 C34 1.371 . S
C34 H23 0.930 1_455 S
C34 C30 1.389 . S
C34 C33 1.371 . S
C35 H24 0.970 . S
C35 H25 0.970 . S
C35 C31 1.532 . S
C35 C36 1.499 . S
C36 C35 1.499 . S
C36 C37 1.370 . S
C36 C41 1.415 . S
C37 H26 0.930 . S
C37 C36 1.370 . S
C37 C38 1.407 . S
C38 C37 1.407 . S
C38 C39 1.365 . S
C39 H27 0.930 1_455 S
C39 C38 1.365 . S
C39 C40 1.393 . S
C40 C39 1.393 . S
C40 C41 1.387 . S
C41 H28 0.930 . S
C41 C36 1.415 . S
C41 C40 1.387 . S
Mg42 O43 2.028 1_455 S
Mg42 O49 1.986 . S
Mg42 O51 2.114 1_545 S
Mg42 O52 2.251 1_545 S
Mg42 O55 2.010 . S
O43 Mg42 2.028 1_655 S
O43 C46 1.250 . S
O44 Mg45 2.028 . S
O44 C46 1.248 . S
Mg45 O44 2.028 . S
Mg45 O50 2.032 . S
Mg45 O52 2.079 1_645 S
C46 O43 1.250 . S
C46 O44 1.248 . S
C47 O48 1.264 . S
C47 O55 1.249 . S
O48 C47 1.264 . S
O49 Mg42 1.986 . S
O49 C53 1.246 . S
O50 Mg45 2.032 . S
O50 C53 1.259 1_655 S
O51 Mg42 2.114 1_565 S
O51 C54 1.252 . S
O52 Mg42 2.251 1_565 S
O52 Mg45 2.079 1_465 S
O52 C54 1.273 . S
C53 O49 1.246 . S
C53 O50 1.259 1_455 S
C54 O51 1.252 . S
C54 O52 1.273 . S
O55 Mg42 2.010 . S
O55 C47 1.249 . S
Mg56 O57 2.028 1_655 S
Mg56 O63 1.986 . S
Mg56 O65 2.114 1_545 S
Mg56 O66 2.251 1_645 S
Mg56 O69 2.010 . S
O57 Mg56 2.028 1_455 S
O57 C60 1.250 . S
O58 Mg59 2.028 . S
O58 C60 1.248 . S
Mg59 O58 2.028 . S
Mg59 O64 2.032 . S
Mg59 O66 2.079 1_545 S
C60 O57 1.250 . S
C60 O58 1.248 . S
C61 O62 1.264 . S
C61 O69 1.249 . S
O62 C61 1.264 . S
O63 Mg56 1.986 . S
O63 C67 1.246 1_655 S
O64 Mg59 2.032 . S
O64 C67 1.259 . S
O65 Mg56 2.114 1_565 S
O65 C68 1.252 1_655 S
O66 Mg56 2.251 1_465 S
O66 Mg59 2.079 1_565 S
O66 C68 1.273 . S
C67 O63 1.246 1_455 S
C67 O64 1.259 . S
C68 O65 1.252 1_455 S
C68 O66 1.273 . S
O69 Mg56 2.010 . S
O69 C61 1.249 . S
C70 C71 1.369 1_565 S
C70 C72 1.419 . S
C70 H74 0.930 . S
C71 C70 1.369 1_545 S
C71 C80 1.429 . S
C72 C70 1.419 . S
C72 C73 1.363 1_565 S
C72 H75 0.929 . S
C73 C72 1.363 1_545 S
C73 C79 1.428 . S
H74 C70 0.930 . S
H75 C72 0.929 . S
S76 N77 1.613 . S
S76 N78 1.610 . S
N77 S76 1.613 . S
N77 C80 1.350 . S
N78 S76 1.610 . S
N78 C79 1.351 . S
C79 C73 1.428 . S
C79 N78 1.351 . S
C79 C80 1.434 . S
C80 C71 1.429 . S
C80 N77 1.350 . S
C80 C79 1.434 . S
C81 C82 1.369 . S
C81 C83 1.419 . S
C81 H85 0.930 . S
C82 C81 1.369 . S
C82 C91 1.429 . S
C83 C81 1.419 . S
C83 C84 1.363 . S
C83 H86 0.929 . S
C84 C83 1.363 . S
C84 C90 1.428 . S
H85 C81 0.930 . S
H86 C83 0.929 . S
S87 N88 1.613 . S
S87 N89 1.610 . S
N88 S87 1.613 . S
N88 C91 1.350 . S
N89 S87 1.610 . S
N89 C90 1.351 . S
C90 C84 1.428 . S
C90 N89 1.351 . S
C90 C91 1.434 . S
C91 C82 1.429 . S
C91 N88 1.350 . S
C91 C90 1.434 . S
C92 C93 1.369 1_565 S
C92 C94 1.419 . S
C92 H96 0.930 . S
C93 C92 1.369 1_545 S
C93 C102 1.429 . S
C94 C92 1.419 . S
C94 C95 1.363 1_565 S
C94 H97 0.929 . S
C95 C94 1.363 1_545 S
C95 C101 1.428 . S
H96 C92 0.930 . S
H97 C94 0.929 . S
S98 N99 1.613 . S
S98 N100 1.610 . S
N99 S98 1.613 . S
N99 C102 1.350 . S
N100 S98 1.610 . S
N100 C101 1.351 . S
C101 C95 1.428 . S
C101 N100 1.351 . S
C101 C102 1.434 . S
C102 C93 1.429 . S
C102 N99 1.350 . S
C102 C101 1.434 . S
C103 C104 1.369 . S
C103 C105 1.419 . S
C103 H107 0.930 . S
C104 C103 1.369 . S
C104 C113 1.429 1_455 S
C105 C103 1.419 . S
C105 C106 1.363 . S
C105 H108 0.929 . S
C106 C105 1.363 . S
C106 C112 1.428 1_455 S
H107 C103 0.930 . S
H108 C105 0.929 . S
S109 N110 1.613 . S
S109 N111 1.610 . S
N110 S109 1.613 . S
N110 C113 1.350 . S
N111 S109 1.610 . S
N111 C112 1.351 . S
C112 C106 1.428 1_655 S
C112 N111 1.351 . S
C112 C113 1.434 . S
C113 C104 1.429 1_655 S
C113 N110 1.350 . S
C113 C112 1.434 . S
C114 C115 1.369 . S
C114 C116 1.419 . S
C114 H118 0.930 . S
C115 C114 1.369 . S
C115 C124 1.429 . S
C116 C114 1.419 . S
C116 C117 1.363 . S
C116 H119 0.929 . S
C117 C116 1.363 . S
C117 C123 1.428 . S
H118 C114 0.930 . S
H119 C116 0.929 . S
S120 N121 1.613 . S
S120 N122 1.610 . S
N121 S120 1.613 . S
N121 C124 1.350 . S
N122 S120 1.610 . S
N122 C123 1.351 . S
C123 C117 1.428 . S
C123 N122 1.351 . S
C123 C124 1.434 . S
C124 C115 1.429 . S
C124 N121 1.350 . S
C124 C123 1.434 . S
C125 C126 1.369 . S
C125 C127 1.419 . S
C125 H129 0.930 . S
C126 C125 1.369 . S
C126 C135 1.429 1_455 S
C127 C125 1.419 . S
C127 C128 1.363 . S
C127 H130 0.929 . S
C128 C127 1.363 . S
C128 C134 1.428 1_455 S
H129 C125 0.930 . S
H130 C127 0.929 . S
S131 N132 1.613 . S
S131 N133 1.610 . S
N132 S131 1.613 . S
N132 C135 1.350 . S
N133 S131 1.610 . S
N133 C134 1.351 . S
C134 C128 1.428 1_655 S
C134 N133 1.351 . S
C134 C135 1.434 . S
C135 C126 1.429 1_655 S
C135 N132 1.350 . S
C135 C134 1.434 . S
C136 C137 1.364 1_565 S
C136 C138 1.419 . S
C136 H140 0.930 . S
C137 C136 1.364 1_545 S
C137 C146 1.435 . S
C138 C136 1.419 . S
C138 C139 1.363 1_565 S
C138 H141 0.929 . S
C139 C138 1.363 1_545 S
C139 C145 1.428 . S
H140 C136 0.930 . S
H141 C138 0.929 . S
S142 N143 1.613 . S
S142 N144 1.610 . S
N143 S142 1.613 . S
N143 C146 1.350 . S
N144 S142 1.610 . S
N144 C145 1.351 . S
C145 C139 1.428 . S
C145 N144 1.351 . S
C145 C146 1.434 . S
C146 C137 1.435 . S
C146 N143 1.350 . S
C146 C145 1.434 . S
C147 C148 1.369 1_655 S
C147 C149 1.419 . S
C147 H151 0.930 . S
C148 C147 1.369 1_455 S
C148 C157 1.429 . S
C149 C147 1.419 . S
C149 C150 1.363 1_655 S
C149 H152 0.929 . S
C150 C149 1.363 1_455 S
C150 C156 1.428 . S
H151 C147 0.930 . S
H152 C149 0.929 . S
S153 N154 1.613 . S
S153 N155 1.610 . S
N154 S153 1.613 . S
N154 C157 1.350 . S
N155 S153 1.610 . S
N155 C156 1.351 . S
C156 C150 1.428 . S
C156 N155 1.351 . S
C156 C157 1.434 . S
C157 C148 1.429 . S
C157 N154 1.350 . S
C157 C156 1.434 . S
C73 C47 1.267 . S
C71 C17 1.451 . S
C84 C67 1.508 . S
C82 C40 1.473 . S
C95 C46 1.487 . S
C93 C9 1.465 . S
C106 C68 1.539 . S
C104 C33 1.439 . S
C117 C60 1.483 . S
C115 C19 1.466 . S
C128 C53 1.516 . S
C126 C38 1.442 . S
C139 C61 1.260 . S
C137 C12 1.442 . S
C148 C30 1.469 . S
C150 C54 1.547 . S
