# Generated by pormake.
# Topology pts, (4,4)-cn, num edge types: 1
# Building blocks:
#     Node 0, Type 0, BuildingBlock: GIZVER_clean_linker_0, # of connection points: 4
#     Node 1, Type 0, BuildingBlock: GIZVER_clean_linker_0, # of connection points: 4
#     Node 2, Type 1, BuildingBlock: QUQFOY_clean_sbu_1, # of connection points: 4
#     Node 3, Type 1, BuildingBlock: QUQFOY_clean_sbu_1, # of connection points: 4
#     Edge 4, Type (0, 1), BuildingBlock: EYOCIG_clean_linker_4, # of connection points: 2
#     Edge 5, Type (0, 1), BuildingBlock: EYOCIG_clean_linker_4, # of connection points: 2
#     Edge 6, Type (0, 1), BuildingBlock: EYOCIG_clean_linker_4, # of connection points: 2
#     Edge 7, Type (0, 1), BuildingBlock: EYOCIG_clean_linker_4, # of connection points: 2
#     Edge 8, Type (0, 1), BuildingBlock: EYOCIG_clean_linker_4, # of connection points: 2
#     Edge 9, Type (0, 1), BuildingBlock: EYOCIG_clean_linker_4, # of connection points: 2
#     Edge 10, Type (0, 1), BuildingBlock: EYOCIG_clean_linker_4, # of connection points: 2
#     Edge 11, Type (0, 1), BuildingBlock: EYOCIG_clean_linker_4, # of connection points: 2
# Relax obj value: 0.103
# Max RMSD: 0.275
# Mean RMSD: 0.183
data_MOF--net-pts--node1-QUQFOY_clean_sbu_1--node2-GIZVER_clean_linker_0--edge1-EYOCIG_clean_linker_4
_symmetry_space_group_name_H-M    P1
_symmetry_Int_Tables_number       1
_symmetry_cell_setting            triclinic
loop_
_symmetry_equiv_pos_as_xyz
'x, y, z'
_cell_length_a     19.915955
_cell_length_b     22.152539
_cell_length_c     29.301372
_cell_angle_alpha  89.882974
_cell_angle_beta   90.21416
_cell_angle_gamma 90.110609
loop_
_atom_site_label
_atom_site_type_symbol
_atom_site_fract_x
_atom_site_fract_y
_atom_site_fract_z
_atom_type_partial_charge
H0 H 0.57133 0.0668 0.06318 0.0
H1 H 0.57537 0.07799 0.91636 0.0
H2 H 0.74094 0.99859 -0.01089 0.0
H3 H 0.50312 0.14241 0.0206 0.0
H4 H 0.50119 0.14273 0.9598 0.0
H5 H 0.42905 0.07771 0.06393 0.0
H6 H 0.26442 0.9968 -0.00897 0.0
H7 H 0.4342 0.06608 0.91716 0.0
C8 C 0.59521 0.05626 0.03096 0.0
C9 C 0.65844 0.02861 0.03072 0.0
C10 C 0.56481 0.07417 -0.01031 0.0
C11 C 0.59749 0.06263 0.9482 0.0
C12 C 0.66081 0.0354 0.94802 0.0
C13 C 0.69083 0.0178 -0.0108 0.0
C14 C 0.50246 0.11244 -0.00985 0.0
C15 C 0.43984 0.07426 -0.00939 0.0
C16 C 0.40718 0.06217 0.03209 0.0
C17 C 0.34406 0.03433 0.03222 0.0
C18 C 0.31444 0.01635 -0.009 0.0
C19 C 0.34703 0.02736 0.94952 0.0
C20 C 0.41012 0.0555 0.94935 0.0
H21 H 0.05596 0.57929 0.41691 0.0
H22 H 0.06671 0.58197 0.56403 0.0
H23 H 0.98369 0.73281 0.49111 0.0
H24 H 0.13774 0.51648 0.45926 0.0
H25 H 0.13899 0.51518 0.51996 0.0
H26 H 0.06491 0.44911 0.41617 0.0
H27 H 0.98353 0.29859 0.49025 0.0
H28 H 0.05774 0.45289 0.56335 0.0
C29 C 0.04392 0.60044 0.44919 0.0
C30 C 0.01552 0.65828 0.44965 0.0
C31 C 0.06229 0.57221 0.49053 0.0
C32 C 0.05012 0.602 0.53213 0.0
C33 C 0.0216 0.65977 0.53211 0.0
C34 C 0.00335 0.68708 0.49103 0.0
C35 C 0.10476 0.51595 0.48985 0.0
C36 C 0.06296 0.4591 0.48968 0.0
C37 C 0.04926 0.4292 0.44825 0.0
C38 C 0.02055 0.37138 0.44868 0.0
C39 C 0.00328 0.34434 0.49002 0.0
C40 C 0.01649 0.37348 0.53123 0.0
C41 C 0.04503 0.43138 0.53124 0.0
O42 O 0.92083 0.95917 0.20051 0.0
Cd43 Cd 0.00533 0.95195 0.24103 0.0
Cd44 Cd 0.99404 0.07727 0.23982 0.0
O45 O 0.90316 0.05687 0.20953 0.0
O46 O 0.01063 0.86362 0.25188 0.0
O47 O 0.99553 0.92997 0.30745 0.0
C48 C 0.00147 0.87462 0.29442 0.0
C49 C -0.00298 0.15479 0.2931 0.0
C50 C 0.88536 1.00588 0.19396 0.0
C51 C 0.11491 0.02151 0.1953 0.0
O52 O 0.07946 0.0685 0.20053 0.0
O53 O 0.09681 0.97108 0.21172 0.0
O54 O 0.98882 0.16582 0.25037 0.0
O55 O 0.00247 0.09939 0.30632 0.0
O56 O 0.92592 0.07114 0.78054 0.0
Cd57 Cd 0.01108 0.08036 0.74113 0.0
Cd58 Cd -0.00113 0.95481 0.73939 0.0
O59 O 0.9077 0.97398 0.76871 0.0
O60 O 0.01628 0.16905 0.73078 0.0
O61 O 0.00167 0.10315 0.67475 0.0
C62 C 0.0072 0.15844 0.6881 0.0
C63 C 0.0016 0.87741 0.68628 0.0
C64 C 0.89005 0.0242 0.78541 0.0
C65 C 0.11968 1.00804 0.78634 0.0
O66 O 0.08371 0.96157 0.77971 0.0
O67 O 0.10225 0.05932 0.771 0.0
O68 O 0.99271 0.86648 0.72889 0.0
O69 O 0.00797 0.93272 0.67303 0.0
C70 C 0.26963 0.02731 0.10656 0.0
C71 C 0.30555 0.03144 0.07368 0.0
C72 C 0.22018 0.02539 0.14091 0.0
C73 C 0.1721 0.02369 0.16574 0.0
C74 C 0.00316 0.30136 0.602 0.0
C75 C 0.01076 0.33858 0.57245 0.0
C76 C 0.00105 0.25146 0.63192 0.0
C77 C 0.00357 0.20784 0.6565 0.0
C78 C 0.72989 1.00829 0.10533 0.0
C79 C 0.69452 0.01851 0.07274 0.0
C80 C 0.77974 1.00251 0.1394 0.0
C81 C 0.82818 1.00252 0.16418 0.0
C82 C 0.01337 0.73407 0.60158 0.0
C83 C 0.01919 0.69594 0.57269 0.0
C84 C 0.0086 0.78444 0.63064 0.0
C85 C 0.00571 0.82818 0.65485 0.0
C86 C 0.27565 1.00771 0.87475 0.0
C87 C 0.31096 0.01762 0.90742 0.0
C88 C 0.22565 1.00297 0.84063 0.0
C89 C 0.17707 1.00396 0.81595 0.0
C90 C 0.0104 0.29713 0.37905 0.0
C91 C 0.01695 0.33501 0.40816 0.0
C92 C 0.00491 0.24728 0.3494 0.0
C93 C 0.00154 0.20393 0.32474 0.0
C94 C 0.73492 0.0288 0.87362 0.0
C95 C 0.69906 0.03274 0.90649 0.0
C96 C 0.78449 0.02737 0.83941 0.0
C97 C 0.83273 0.02609 0.81477 0.0
C98 C 0.0001 0.73113 0.37963 0.0
C99 C 0.00863 0.69343 0.40868 0.0
C100 C -0.00318 0.78159 0.35039 0.0
C101 C -0.00143 0.8255 0.32617 0.0
loop_
_geom_bond_atom_site_label_1
_geom_bond_atom_site_label_2
_geom_bond_distance
_geom_bond_site_symmetry_2
_ccdc_geom_bond_type
H0 C8 0.930 . S
H1 C11 0.930 . S
H2 C13 0.930 1_565 S
H3 C14 0.970 . S
H4 C14 0.970 1_556 S
H5 C16 0.930 . S
H6 C18 0.930 . S
H7 C20 0.930 . S
C8 H0 0.930 . S
C8 C9 1.382 . S
C8 C10 1.426 . S
C9 C8 1.382 . S
C9 C13 1.389 . S
C10 C8 1.426 . S
C10 C11 1.375 1_554 S
C10 C14 1.532 . S
C11 H1 0.930 . S
C11 C10 1.375 1_556 S
C11 C12 1.416 . S
C12 C11 1.416 . S
C12 C13 1.371 1_556 S
C13 H2 0.930 1_545 S
C13 C9 1.389 . S
C13 C12 1.371 1_554 S
C14 H3 0.970 . S
C14 H4 0.970 1_554 S
C14 C10 1.532 . S
C14 C15 1.499 . S
C15 C14 1.499 . S
C15 C16 1.370 . S
C15 C20 1.415 1_554 S
C16 H5 0.930 . S
C16 C15 1.370 . S
C16 C17 1.407 . S
C17 C16 1.407 . S
C17 C18 1.365 1_545 S
C18 H6 0.930 . S
C18 C17 1.365 1_565 S
C18 C19 1.393 1_564 S
C19 C18 1.393 1_546 S
C19 C20 1.387 . S
C20 H7 0.930 . S
C20 C15 1.415 1_556 S
C20 C19 1.387 . S
H21 C29 0.930 . S
H22 C32 0.930 . S
H23 C34 0.929 1_655 S
H24 C35 0.970 . S
H25 C35 0.970 . S
H26 C37 0.930 . S
H27 C39 0.930 . S
H28 C41 0.930 . S
C29 H21 0.930 . S
C29 C30 1.382 . S
C29 C31 1.426 . S
C30 C29 1.382 . S
C30 C34 1.389 . S
C31 C29 1.426 . S
C31 C32 1.375 . S
C31 C35 1.532 . S
C32 H22 0.930 . S
C32 C31 1.375 . S
C32 C33 1.416 . S
C33 C32 1.416 . S
C33 C34 1.371 . S
C34 H23 0.929 1_455 S
C34 C30 1.389 . S
C34 C33 1.371 . S
C35 H24 0.970 . S
C35 H25 0.970 . S
C35 C31 1.532 . S
C35 C36 1.499 . S
C36 C35 1.499 . S
C36 C37 1.370 . S
C36 C41 1.415 . S
C37 H26 0.930 . S
C37 C36 1.370 . S
C37 C38 1.407 . S
C38 C37 1.407 . S
C38 C39 1.365 1_455 S
C39 H27 0.930 . S
C39 C38 1.365 1_655 S
C39 C40 1.393 1_655 S
C40 C39 1.393 1_455 S
C40 C41 1.387 . S
C41 H28 0.930 . S
C41 C36 1.415 . S
C41 C40 1.387 . S
O42 Cd43 2.223 1_655 S
O42 C50 1.315 . S
Cd43 O42 2.223 1_455 S
Cd43 O46 2.297 1_455 S
Cd43 O47 2.439 1_455 S
Cd43 O53 2.240 1_565 S
Cd44 O45 2.240 . S
Cd44 O52 2.223 1_655 S
Cd44 O54 2.297 1_655 S
Cd44 O55 2.439 1_655 S
O45 Cd44 2.240 . S
O45 C50 1.279 1_545 S
O46 Cd43 2.297 1_655 S
O46 C48 1.247 . S
O47 Cd43 2.439 1_655 S
O47 C48 1.208 . S
C48 O46 1.247 . S
C48 O47 1.208 . S
C49 O54 1.247 . S
C49 O55 1.208 . S
C50 O42 1.315 . S
C50 O45 1.279 1_565 S
C51 O52 1.315 . S
C51 O53 1.279 . S
O52 Cd44 2.223 1_455 S
O52 C51 1.315 . S
O53 Cd43 2.240 1_545 S
O53 C51 1.279 . S
O54 Cd44 2.297 1_455 S
O54 C49 1.247 . S
O55 Cd44 2.439 1_455 S
O55 C49 1.208 . S
O56 Cd57 2.223 1_655 S
O56 C64 1.315 . S
Cd57 O56 2.223 1_455 S
Cd57 O60 2.297 1_455 S
Cd57 O61 2.439 1_455 S
Cd57 O67 2.242 . S
Cd58 O59 2.240 1_565 S
Cd58 O66 2.223 1_655 S
Cd58 O68 2.297 1_655 S
Cd58 O69 2.439 1_655 S
O59 Cd58 2.240 1_545 S
O59 C64 1.279 . S
O60 Cd57 2.297 1_655 S
O60 C62 1.247 . S
O61 Cd57 2.439 1_655 S
O61 C62 1.208 . S
C62 O60 1.247 . S
C62 O61 1.208 . S
C63 O68 1.247 . S
C63 O69 1.208 . S
C64 O56 1.315 . S
C64 O59 1.279 . S
C65 O66 1.315 . S
C65 O67 1.278 1_565 S
O66 Cd58 2.223 1_455 S
O66 C65 1.315 . S
O67 Cd57 2.242 . S
O67 C65 1.278 1_545 S
O68 Cd58 2.297 1_455 S
O68 C63 1.247 . S
O69 Cd58 2.439 1_455 S
O69 C63 1.208 . S
C70 C71 1.170 . S
C70 C72 1.380 . S
C71 C70 1.170 . S
C72 C70 1.380 . S
C72 C73 1.170 . S
C73 C72 1.170 . S
C74 C75 1.170 1_655 S
C74 C76 1.380 . S
C75 C74 1.170 1_455 S
C76 C74 1.380 . S
C76 C77 1.170 . S
C77 C76 1.170 . S
C78 C79 1.170 . S
C78 C80 1.380 1_545 S
C79 C78 1.170 . S
C80 C78 1.380 1_565 S
C80 C81 1.170 . S
C81 C80 1.170 . S
C82 C83 1.170 . S
C82 C84 1.380 . S
C83 C82 1.170 . S
C84 C82 1.380 . S
C84 C85 1.170 . S
C85 C84 1.170 . S
C86 C87 1.170 1_565 S
C86 C88 1.380 . S
C87 C86 1.170 1_545 S
C88 C86 1.380 . S
C88 C89 1.170 . S
C89 C88 1.170 . S
C90 C91 1.170 . S
C90 C92 1.380 . S
C91 C90 1.170 . S
C92 C90 1.380 . S
C92 C93 1.170 . S
C93 C92 1.170 . S
C94 C95 1.170 . S
C94 C96 1.380 . S
C95 C94 1.170 . S
C96 C94 1.380 . S
C96 C97 1.170 . S
C97 C96 1.170 . S
C98 C99 1.170 1_655 S
C98 C100 1.380 . S
C99 C98 1.170 1_455 S
C100 C98 1.380 . S
C100 C101 1.170 . S
C101 C100 1.170 . S
C73 C51 1.677 . S
C71 C17 1.543 . S
C77 C62 1.529 . S
C75 C40 1.607 . S
C81 C50 1.674 . S
C79 C9 1.618 . S
C85 C63 1.533 . S
C83 C33 1.539 . S
C89 C65 1.661 . S
C87 C19 1.624 . S
C93 C49 1.542 . S
C91 C38 1.554 . S
C97 C64 1.666 . S
C95 C12 1.569 . S
C99 C30 1.580 . S
C101 C48 1.580 . S
