# Generated by pormake.
# Topology scu, (8,4)-cn, num edge types: 1
# Building blocks:
#     Node 0, Type 0, BuildingBlock: TAGTUT_clean_sbu_3, # of connection points: 8
#     Node 1, Type 1, BuildingBlock: IZENUY_clean_linker_0, # of connection points: 4
#     Node 2, Type 1, BuildingBlock: IZENUY_clean_linker_0, # of connection points: 4
#     Edge 3, Type (0, 1), BuildingBlock: EZIPEK_clean_linker_0, # of connection points: 2
#     Edge 4, Type (0, 1), BuildingBlock: EZIPEK_clean_linker_0, # of connection points: 2
#     Edge 5, Type (0, 1), BuildingBlock: EZIPEK_clean_linker_0, # of connection points: 2
#     Edge 6, Type (0, 1), BuildingBlock: EZIPEK_clean_linker_0, # of connection points: 2
#     Edge 7, Type (0, 1), BuildingBlock: EZIPEK_clean_linker_0, # of connection points: 2
#     Edge 8, Type (0, 1), BuildingBlock: EZIPEK_clean_linker_0, # of connection points: 2
#     Edge 9, Type (0, 1), BuildingBlock: EZIPEK_clean_linker_0, # of connection points: 2
#     Edge 10, Type (0, 1), BuildingBlock: EZIPEK_clean_linker_0, # of connection points: 2
# Relax obj value: 0.049
# Max RMSD: 0.190
# Mean RMSD: 0.140
data_MOF--net-scu--node1-TAGTUT_clean_sbu_3--node2-IZENUY_clean_linker_0--edge1-EZIPEK_clean_linker_0
_symmetry_space_group_name_H-M    P1
_symmetry_Int_Tables_number       1
_symmetry_cell_setting            triclinic
loop_
_symmetry_equiv_pos_as_xyz
'x, y, z'
_cell_length_a     24.397142
_cell_length_b     20.128151
_cell_length_c     15.032536
_cell_angle_alpha  92.552232
_cell_angle_beta   90.344496
_cell_angle_gamma 90.091057
loop_
_atom_site_label
_atom_site_type_symbol
_atom_site_fract_x
_atom_site_fract_y
_atom_site_fract_z
_atom_type_partial_charge
C0 C 1.00727 0.88247 0.09654 0.0
C1 C 0.80961 0.00466 0.08157 0.0
C2 C 0.85243 0.03155 0.81749 0.0
Mg3 Mg 0.12018 0.92251 -0.02042 0.0
Mg4 Mg 0.13585 0.08084 0.97466 0.0
O5 O 0.09358 0.00768 0.93266 0.0
Mg6 Mg 0.0163 0.01226 -0.02372 0.0
O7 O 0.93875 0.01312 0.01927 0.0
Mg8 Mg 0.90909 0.92853 0.96452 0.0
Mg9 Mg 0.89851 0.08793 -0.01416 0.0
C10 C 0.03809 0.14608 0.86718 0.0
O11 O 0.0303 0.09933 0.08157 0.0
O12 O 0.19458 0.93964 0.8843 0.0
O13 O 0.95281 0.15838 0.05874 0.0
O14 O 0.1728 0.97108 0.09066 0.0
O15 O 0.20961 0.04938 0.90842 0.0
O16 O 0.15484 0.07777 0.11543 0.0
O17 O 0.99033 0.92652 0.87707 0.0
O18 O 0.0698 0.87202 0.86785 0.0
C19 C 0.01971 0.87832 0.84472 0.0
C20 C 0.22198 0.99317 0.87063 0.0
O21 O 1.00549 0.09668 0.87825 0.0
O22 O 0.83524 0.9501 0.061 0.0
O23 O 0.08508 0.15217 0.9062 0.0
O24 O 0.85848 0.97768 0.85769 0.0
O25 O 0.82404 0.0604 0.05097 0.0
O26 O 0.87775 0.08411 0.84507 0.0
O27 O 0.03919 0.92761 0.06814 0.0
O28 O 0.95723 0.87866 0.07152 0.0
C29 C 0.17952 0.02498 0.13701 0.0
C30 C 0.99973 0.15087 0.09693 0.0
H31 H 0.02911 0.42359 0.35946 0.0
H32 H 0.03457 0.41405 0.64572 0.0
H33 H 0.02486 0.23453 0.48072 0.0
H34 H 1.00554 0.60712 0.59683 0.0
H35 H 0.06016 0.61815 0.32892 0.0
H36 H 1.00297 0.79401 0.46565 0.0
N37 N 0.03079 0.49784 0.51596 0.0
N38 N 0.03843 0.535 0.45298 0.0
C39 C 0.03065 0.39499 0.41878 0.0
C40 C 0.02829 0.32518 0.41035 0.0
C41 C 0.03274 0.4274 0.50422 0.0
C42 C 0.03291 0.38936 0.58019 0.0
C43 C 0.03 0.31973 0.57198 0.0
C44 C 0.02765 0.28836 0.48711 0.0
C45 C 0.01067 0.63704 0.54015 0.0
C46 C 0.99676 0.70565 0.54306 0.0
C47 C 0.03235 0.60525 0.46234 0.0
C48 C 0.04392 0.64264 0.3888 0.0
C49 C 0.03087 0.71025 0.38952 0.0
C50 C 0.00908 0.74105 0.46665 0.0
H51 H 0.58165 0.99817 0.34295 0.0
H52 H 0.61324 0.01571 0.62604 0.0
H53 H 0.7471 0.01024 0.44183 0.0
H54 H 0.44956 0.99385 0.60891 0.0
H55 H 0.41859 0.01353 0.32814 0.0
H56 H 0.28425 1.0005 0.5096 0.0
N57 N 0.53359 0.00453 0.50659 0.0
N58 N 0.49797 0.00408 0.4467 0.0
C59 C 0.60998 1.00144 0.39875 0.0
C60 C 0.66655 1.00259 0.38252 0.0
C61 C 0.59047 0.00575 0.48712 0.0
C62 C 0.62801 0.01218 0.55814 0.0
C63 C 0.68448 0.01419 0.5417 0.0
C64 C 0.70335 0.00853 0.45426 0.0
C65 C 0.42136 0.99653 0.55326 0.0
C66 C 0.3647 0.9952 0.56886 0.0
C67 C 0.44106 1.00268 0.4658 0.0
C68 C 0.40365 0.00849 0.39527 0.0
C69 C 0.34712 0.00813 0.41124 0.0
C70 C 0.32807 1.00054 0.49751 0.0
C71 C 0.97118 0.19815 0.24474 0.0
C72 C 0.01095 0.19564 0.17642 0.0
C73 C 0.06476 0.28042 0.26142 0.0
C74 C 0.02087 0.28841 0.32286 0.0
N75 N 0.92659 0.26601 0.3588 0.0
N76 N 0.09419 0.23837 0.11527 0.0
C77 C 0.97215 0.25103 0.30948 0.0
C78 C 0.0575 0.23801 0.1833 0.0
N79 N 0.93453 0.14735 0.2516 0.0
N80 N 0.11389 0.31088 0.27943 0.0
H81 H 0.09064 0.20639 0.05923 0.0
H82 H 0.12589 0.27287 0.11205 0.0
H83 H 0.12038 0.34253 0.33532 0.0
H84 H 0.14915 0.3012 0.24239 0.0
H85 H 0.90857 0.14368 0.30602 0.0
H86 H 0.93496 0.10494 0.20904 0.0
H87 H 0.88868 0.24342 0.34606 0.0
H88 H 0.92537 0.30574 0.40582 0.0
C89 C 0.76061 0.06195 0.21173 0.0
C90 C 0.76546 0.0059 0.15041 0.0
C91 C 0.69525 0.94828 0.23488 0.0
C92 C 0.68923 0.00597 0.29149 0.0
N93 N 0.70085 0.12422 0.31207 0.0
N94 N 0.72357 0.90453 0.08955 0.0
C95 C 0.71606 0.06526 0.27103 0.0
C96 C 0.72845 0.95157 0.15741 0.0
N97 N 0.801 0.10889 0.22095 0.0
N98 N 0.67106 0.89004 0.25645 0.0
H99 H 0.74431 0.90775 0.02945 0.0
H100 H 0.6942 0.86687 0.08894 0.0
H101 H 0.64551 0.88658 0.31144 0.0
H102 H 0.67913 0.84476 0.22279 0.0
H103 H 0.80037 0.14713 0.27007 0.0
H104 H 0.83868 0.10477 0.18965 0.0
H105 H 0.71663 0.16987 0.29411 0.0
H106 H 0.66829 0.12764 0.35681 0.0
C107 C 1.00767 0.76804 0.15417 0.0
C108 C 0.02467 0.83562 0.16477 0.0
C109 C 0.06026 0.81286 0.31274 0.0
C110 C 0.03487 0.74922 0.30767 0.0
N111 N 0.9709 0.67487 0.22905 0.0
N112 N 0.05227 0.92593 0.26717 0.0
C113 C 1.00554 0.72843 0.22945 0.0
C114 C 0.04749 0.85925 0.24732 0.0
N115 N 0.99106 0.74216 0.07297 0.0
N116 N 0.09535 0.82952 0.38129 0.0
H117 H 0.04138 0.96227 0.22317 0.0
H118 H 0.06288 0.94514 0.33049 0.0
H119 H 0.10749 0.79541 0.42785 0.0
H120 H 0.11581 0.87497 0.38726 0.0
H121 H 0.98458 0.69142 0.06003 0.0
H122 H 0.98754 0.77058 0.01725 0.0
H123 H 0.94443 0.6625 0.17618 0.0
H124 H 0.96314 0.64747 0.28471 0.0
C125 C 0.25747 0.07869 0.22921 0.0
C126 C 0.22044 0.02455 0.21183 0.0
C127 C 0.27536 0.9569 0.31147 0.0
C128 C 0.30654 0.01353 0.33809 0.0
N129 N 0.32078 0.13194 0.3349 0.0
N130 N 0.18904 0.91589 0.25389 0.0
C131 C 0.29549 0.07564 0.30109 0.0
C132 C 0.22797 0.96472 0.25811 0.0
N133 N 0.25998 0.13061 0.17376 0.0
N134 N 0.29138 0.89531 0.33641 0.0
H135 H 0.15161 0.92105 0.22178 0.0
H136 H 0.1913 0.87317 0.29026 0.0
H137 H 0.32606 0.88772 0.37561 0.0
H138 H 0.27373 0.85131 0.31071 0.0
H139 H 0.28987 0.1676 0.17998 0.0
H140 H 0.23737 0.13305 0.11517 0.0
H141 H 0.30961 0.17946 0.31672 0.0
H142 H 0.34957 0.13154 0.38648 0.0
C143 C 0.97852 0.85699 0.69169 0.0
C144 C 0.99855 0.83193 0.77267 0.0
C145 C 0.98204 0.71855 0.71148 0.0
C146 C 0.97546 0.74348 0.62606 0.0
N147 N 0.92742 0.83109 0.55567 0.0
N148 N 0.02538 0.73524 0.85426 0.0
C149 C 0.96077 0.81139 0.62262 0.0
C150 C 1.00153 0.76169 0.78161 0.0
N151 N 0.9814 0.92337 0.67673 0.0
N152 N 0.96186 0.65742 0.72896 0.0
H153 H 0.04345 0.76387 0.90567 0.0
H154 H 0.03199 0.68427 0.85847 0.0
H155 H 0.93757 0.63082 0.68227 0.0
H156 H 0.9617 0.63899 0.79273 0.0
H157 H 0.9729 0.94252 0.61487 0.0
H158 H 0.99632 0.95877 0.7235 0.0
H159 H 0.91373 0.87975 0.55032 0.0
H160 H 0.91028 0.79642 0.50966 0.0
C161 C 0.26828 0.04995 0.74528 0.0
C162 C 0.26486 0.99392 0.80008 0.0
C163 C 0.33635 0.93901 0.70899 0.0
C164 C 0.34146 0.99723 0.65989 0.0
N165 N 0.32658 0.11495 0.65331 0.0
N166 N 0.30741 0.89286 0.84753 0.0
C167 C 0.31287 0.05527 0.687 0.0
C168 C 0.30255 0.94058 0.78625 0.0
N169 N 0.22656 0.095 0.74145 0.0
N170 N 0.36201 0.88186 0.68034 0.0
H171 H 0.28555 0.89438 0.90695 0.0
H172 H 0.33738 0.85602 0.84382 0.0
H173 H 0.38802 0.87976 0.62546 0.0
H174 H 0.35481 0.83608 0.70789 0.0
H175 H 0.22613 0.13319 0.69682 0.0
H176 H 0.18906 0.08911 0.77254 0.0
H177 H 0.30933 0.1598 0.6764 0.0
H178 H 0.35928 0.11997 0.60958 0.0
C179 C 0.06618 0.17813 0.71752 0.0
C180 C 0.0297 0.1877 0.78968 0.0
C181 C 0.988 0.281 0.715 0.0
C182 C 0.03089 0.27779 0.65105 0.0
N183 N 0.11826 0.23154 0.60537 0.0
N184 N 0.95766 0.25097 0.86156 0.0
C185 C 0.07223 0.22876 0.65649 0.0
C186 C 0.99095 0.23999 0.78988 0.0
N187 N 0.09372 0.11945 0.70534 0.0
N188 N 0.94344 0.32054 0.70228 0.0
H189 H 0.9578 0.22009 0.91532 0.0
H190 H 0.93265 0.29266 0.86982 0.0
H191 H 0.93898 0.34966 0.64708 0.0
H192 H 0.90871 0.31982 0.74219 0.0
H193 H 0.11655 0.10773 0.64837 0.0
H194 H 0.08882 0.07991 0.74726 0.0
H195 H 0.15148 0.1997 0.6128 0.0
H196 H 0.12576 0.26999 0.56273 0.0
C197 C 0.80363 0.97117 0.68966 0.0
C198 C 0.81164 0.03125 0.74237 0.0
C199 C 0.73659 0.08206 0.65919 0.0
C200 C 0.72519 0.01978 0.61533 0.0
N201 N 0.73986 0.90155 0.60347 0.0
N202 N 0.77285 0.13771 0.79221 0.0
C203 C 0.75612 0.96317 0.63554 0.0
C204 C 0.77487 0.08543 0.73111 0.0
N205 N 0.84234 0.92229 0.68862 0.0
N206 N 0.71125 0.13818 0.63199 0.0
H207 H 0.79583 0.14052 0.85072 0.0
H208 H 0.74311 0.17474 0.79038 0.0
H209 H 0.68209 0.13746 0.58088 0.0
H210 H 0.72262 0.18582 0.65526 0.0
H211 H 0.83935 0.87866 0.64915 0.0
H212 H 0.88025 0.92834 0.71975 0.0
H213 H 0.75719 0.85753 0.6242 0.0
H214 H 0.70527 0.89395 0.5631 0.0
loop_
_geom_bond_atom_site_label_1
_geom_bond_atom_site_label_2
_geom_bond_distance
_geom_bond_site_symmetry_2
_ccdc_geom_bond_type
C0 O27 1.298 1_655 S
C0 O28 1.228 . S
C1 O22 1.331 . S
C1 O25 1.244 1_565 S
C2 O24 1.264 1_545 S
C2 O26 1.273 . S
Mg3 O5 1.936 1_565 S
Mg3 O12 2.081 . S
Mg3 O14 2.023 1_556 S
Mg3 O18 2.031 . S
Mg3 O27 2.291 1_556 S
Mg4 O5 1.963 . S
Mg4 O15 1.942 . S
Mg4 O16 1.955 1_556 S
Mg4 O23 1.986 . S
O5 Mg3 1.936 1_545 S
O5 Mg4 1.963 . S
O5 Mg6 1.912 1_556 S
Mg6 O5 1.912 1_554 S
Mg6 O7 1.919 1_455 S
Mg6 O11 2.021 . S
Mg6 O17 2.107 1_444 S
Mg6 O21 2.004 1_454 S
Mg6 O27 2.121 1_545 S
O7 Mg6 1.919 1_655 S
O7 Mg8 1.936 1_545 S
O7 Mg9 1.963 . S
Mg8 O7 1.936 1_565 S
Mg8 O17 2.291 1_554 S
Mg8 O22 2.081 . S
Mg8 O24 2.023 1_554 S
Mg8 O28 2.031 . S
Mg9 O7 1.963 . S
Mg9 O13 1.986 . S
Mg9 O25 1.942 . S
Mg9 O26 1.955 1_554 S
C10 O21 1.191 1_455 S
C10 O23 1.307 . S
O11 Mg6 2.021 . S
O11 C30 1.191 1_455 S
O12 Mg3 2.081 . S
O12 C20 1.331 . S
O13 Mg9 1.986 . S
O13 C30 1.307 . S
O14 Mg3 2.023 1_554 S
O14 C29 1.264 1_565 S
O15 Mg4 1.942 . S
O15 C20 1.244 1_545 S
O16 Mg4 1.955 1_554 S
O16 C29 1.273 . S
O17 Mg6 2.107 1_666 S
O17 Mg8 2.291 1_556 S
O17 C19 1.312 1_655 S
O18 Mg3 2.031 . S
O18 C19 1.208 . S
C19 O17 1.312 1_455 S
C19 O18 1.208 . S
C20 O12 1.331 . S
C20 O15 1.244 1_565 S
O21 Mg6 2.004 1_656 S
O21 C10 1.191 1_655 S
O22 C1 1.331 . S
O22 Mg8 2.081 . S
O23 Mg4 1.986 . S
O23 C10 1.307 . S
O24 C2 1.264 1_565 S
O24 Mg8 2.023 1_556 S
O25 C1 1.244 1_545 S
O25 Mg9 1.942 . S
O26 C2 1.273 . S
O26 Mg9 1.955 1_556 S
O27 C0 1.298 1_455 S
O27 Mg3 2.291 1_554 S
O27 Mg6 2.121 1_565 S
O28 C0 1.228 . S
O28 Mg8 2.031 . S
C29 O14 1.264 1_545 S
C29 O16 1.273 . S
C30 O11 1.191 1_655 S
C30 O13 1.307 . S
H31 C39 0.940 . S
H32 C42 0.940 . S
H33 C44 0.940 1_655 S
H34 C45 0.940 . S
H35 C48 0.940 . S
H36 C50 0.940 1_655 S
N37 N38 1.190 . S
N37 C41 1.477 . S
N38 N37 1.190 . S
N38 C47 1.477 . S
C39 H31 0.940 . S
C39 C40 1.390 . S
C39 C41 1.322 . S
C40 C39 1.390 . S
C40 C44 1.370 . S
C41 N37 1.477 . S
C41 C39 1.322 . S
C41 C42 1.447 . S
C42 H32 0.940 . S
C42 C41 1.447 . S
C42 C43 1.373 . S
C43 C42 1.373 . S
C43 C44 1.417 . S
C44 H33 0.940 1_455 S
C44 C40 1.370 . S
C44 C43 1.417 . S
C45 H34 0.940 . S
C45 C46 1.390 . S
C45 C47 1.322 . S
C46 C45 1.390 . S
C46 C50 1.370 . S
C47 N38 1.477 . S
C47 C45 1.322 . S
C47 C48 1.447 . S
C48 H35 0.940 . S
C48 C47 1.447 . S
C48 C49 1.373 . S
C49 C48 1.373 . S
C49 C50 1.417 . S
C50 H36 0.940 1_455 S
C50 C46 1.370 . S
C50 C49 1.417 . S
H51 C59 0.940 . S
H52 C62 0.940 . S
H53 C64 0.939 1_565 S
H54 C65 0.940 . S
H55 C68 0.940 . S
H56 C70 0.938 1_565 S
N57 N58 1.190 . S
N57 C61 1.477 . S
N58 N57 1.190 . S
N58 C67 1.477 . S
C59 H51 0.940 . S
C59 C60 1.390 . S
C59 C61 1.322 . S
C60 C59 1.390 . S
C60 C64 1.370 . S
C61 N57 1.477 . S
C61 C59 1.322 . S
C61 C62 1.447 . S
C62 H52 0.940 . S
C62 C61 1.447 . S
C62 C63 1.373 . S
C63 C62 1.373 . S
C63 C64 1.419 . S
C64 H53 0.939 1_545 S
C64 C60 1.370 . S
C64 C63 1.419 . S
C65 H54 0.940 . S
C65 C66 1.390 . S
C65 C67 1.322 . S
C66 C65 1.390 . S
C66 C70 1.370 . S
C67 N58 1.477 . S
C67 C65 1.322 . S
C67 C68 1.447 . S
C68 H55 0.940 . S
C68 C67 1.447 . S
C68 C69 1.373 . S
C69 C68 1.373 . S
C69 C70 1.419 . S
C70 H56 0.938 1_545 S
C70 C66 1.370 . S
C70 C69 1.419 . S
C71 C72 1.363 1_655 S
C71 C77 1.379 . S
C71 N79 1.356 . S
C72 C71 1.363 1_455 S
C72 C78 1.363 . S
C73 C74 1.374 . S
C73 C78 1.379 . S
C73 N80 1.356 . S
C74 C73 1.374 . S
C74 C77 1.353 1_455 S
N75 C77 1.356 . S
N75 H87 0.984 . S
N75 H88 0.985 . S
N76 C78 1.356 . S
N76 H81 0.984 . S
N76 H82 0.985 . S
C77 C71 1.379 . S
C77 C74 1.353 1_655 S
C77 N75 1.356 . S
C78 C72 1.363 . S
C78 C73 1.379 . S
C78 N76 1.356 . S
N79 C71 1.356 . S
N79 H85 0.984 . S
N79 H86 0.984 . S
N80 C73 1.356 . S
N80 H83 0.984 . S
N80 H84 0.985 . S
H81 N76 0.984 . S
H82 N76 0.985 . S
H83 N80 0.984 . S
H84 N80 0.985 . S
H85 N79 0.984 . S
H86 N79 0.984 . S
H87 N75 0.984 . S
H88 N75 0.985 . S
C89 C90 1.363 1_545 S
C89 C95 1.379 . S
C89 N97 1.356 . S
C90 C89 1.363 1_565 S
C90 C96 1.363 . S
C91 C92 1.363 . S
C91 C96 1.379 . S
C91 N98 1.356 . S
C92 C91 1.363 . S
C92 C95 1.363 1_565 S
N93 C95 1.356 . S
N93 H105 0.984 . S
N93 H106 0.985 . S
N94 C96 1.356 . S
N94 H99 0.984 . S
N94 H100 0.985 . S
C95 C89 1.379 . S
C95 C92 1.363 1_545 S
C95 N93 1.356 . S
C96 C90 1.363 . S
C96 C91 1.379 . S
C96 N94 1.356 . S
N97 C89 1.356 . S
N97 H103 0.984 . S
N97 H104 0.984 . S
N98 C91 1.356 . S
N98 H101 0.984 . S
N98 H102 0.985 . S
H99 N94 0.984 . S
H100 N94 0.985 . S
H101 N98 0.984 . S
H102 N98 0.985 . S
H103 N97 0.984 . S
H104 N97 0.984 . S
H105 N93 0.984 . S
H106 N93 0.985 . S
C107 C108 1.363 1_655 S
C107 C113 1.379 . S
C107 N115 1.356 . S
C108 C107 1.363 1_455 S
C108 C114 1.363 . S
C109 C110 1.363 . S
C109 C114 1.379 . S
C109 N116 1.356 . S
C110 C109 1.363 . S
C110 C113 1.363 1_455 S
N111 C113 1.356 . S
N111 H123 0.984 . S
N111 H124 0.985 . S
N112 C114 1.356 . S
N112 H117 0.984 . S
N112 H118 0.985 . S
C113 C107 1.379 . S
C113 C110 1.363 1_655 S
C113 N111 1.356 . S
C114 C108 1.363 . S
C114 C109 1.379 . S
C114 N112 1.356 . S
N115 C107 1.356 . S
N115 H121 0.984 . S
N115 H122 0.984 . S
N116 C109 1.356 . S
N116 H119 0.984 . S
N116 H120 0.985 . S
H117 N112 0.984 . S
H118 N112 0.985 . S
H119 N116 0.984 . S
H120 N116 0.985 . S
H121 N115 0.984 . S
H122 N115 0.984 . S
H123 N111 0.984 . S
H124 N111 0.985 . S
C125 C126 1.363 . S
C125 C131 1.379 . S
C125 N133 1.356 . S
C126 C125 1.363 . S
C126 C132 1.363 1_545 S
C127 C128 1.363 1_565 S
C127 C132 1.379 . S
C127 N134 1.356 . S
C128 C127 1.363 1_545 S
C128 C131 1.363 . S
N129 C131 1.356 . S
N129 H141 0.984 . S
N129 H142 0.985 . S
N130 C132 1.356 . S
N130 H135 0.984 . S
N130 H136 0.985 . S
C131 C125 1.379 . S
C131 C128 1.363 . S
C131 N129 1.356 . S
C132 C126 1.363 1_565 S
C132 C127 1.379 . S
C132 N130 1.356 . S
N133 C125 1.356 . S
N133 H139 0.984 . S
N133 H140 0.984 . S
N134 C127 1.356 . S
N134 H137 0.984 . S
N134 H138 0.985 . S
H135 N130 0.984 . S
H136 N130 0.985 . S
H137 N134 0.984 . S
H138 N134 0.985 . S
H139 N133 0.984 . S
H140 N133 0.984 . S
H141 N129 0.984 . S
H142 N129 0.985 . S
C143 C144 1.363 1_655 S
C143 C149 1.379 . S
C143 N151 1.356 . S
C144 C143 1.363 1_455 S
C144 C150 1.363 . S
C145 C146 1.375 . S
C145 C150 1.379 . S
C145 N152 1.356 . S
C146 C145 1.375 . S
C146 C149 1.352 1_455 S
N147 C149 1.356 . S
N147 H159 0.984 . S
N147 H160 0.985 . S
N148 C150 1.356 . S
N148 H153 0.984 . S
N148 H154 0.985 . S
C149 C143 1.379 . S
C149 C146 1.352 1_655 S
C149 N147 1.356 . S
C150 C144 1.363 . S
C150 C145 1.379 . S
C150 N148 1.356 . S
N151 C143 1.356 . S
N151 H157 0.984 . S
N151 H158 0.984 . S
N152 C145 1.356 . S
N152 H155 0.984 . S
N152 H156 0.985 . S
H153 N148 0.984 . S
H154 N148 0.985 . S
H155 N152 0.984 . S
H156 N152 0.985 . S
H157 N151 0.984 . S
H158 N151 0.984 . S
H159 N147 0.984 . S
H160 N147 0.985 . S
C161 C162 1.363 1_545 S
C161 C167 1.379 . S
C161 N169 1.356 . S
C162 C161 1.363 1_565 S
C162 C168 1.363 . S
C163 C164 1.363 . S
C163 C168 1.379 . S
C163 N170 1.356 . S
C164 C163 1.363 . S
C164 C167 1.363 1_565 S
N165 C167 1.356 . S
N165 H177 0.984 . S
N165 H178 0.985 . S
N166 C168 1.356 . S
N166 H171 0.984 . S
N166 H172 0.985 . S
C167 C161 1.379 . S
C167 C164 1.363 1_545 S
C167 N165 1.356 . S
C168 C162 1.363 . S
C168 C163 1.379 . S
C168 N166 1.356 . S
N169 C161 1.356 . S
N169 H175 0.984 . S
N169 H176 0.984 . S
N170 C163 1.356 . S
N170 H173 0.984 . S
N170 H174 0.985 . S
H171 N166 0.984 . S
H172 N166 0.985 . S
H173 N170 0.984 . S
H174 N170 0.985 . S
H175 N169 0.984 . S
H176 N169 0.984 . S
H177 N165 0.984 . S
H178 N165 0.985 . S
C179 C180 1.363 . S
C179 C185 1.379 . S
C179 N187 1.356 . S
C180 C179 1.363 . S
C180 C186 1.363 1_455 S
C181 C182 1.363 1_655 S
C181 C186 1.379 . S
C181 N188 1.356 . S
C182 C181 1.363 1_455 S
C182 C185 1.363 . S
N183 C185 1.356 . S
N183 H195 0.984 . S
N183 H196 0.985 . S
N184 C186 1.356 . S
N184 H189 0.984 . S
N184 H190 0.985 . S
C185 C179 1.379 . S
C185 C182 1.363 . S
C185 N183 1.356 . S
C186 C180 1.363 1_655 S
C186 C181 1.379 . S
C186 N184 1.356 . S
N187 C179 1.356 . S
N187 H193 0.984 . S
N187 H194 0.984 . S
N188 C181 1.356 . S
N188 H191 0.984 . S
N188 H192 0.985 . S
H189 N184 0.984 . S
H190 N184 0.985 . S
H191 N188 0.984 . S
H192 N188 0.985 . S
H193 N187 0.984 . S
H194 N187 0.984 . S
H195 N183 0.984 . S
H196 N183 0.985 . S
C197 C198 1.363 1_565 S
C197 C203 1.379 . S
C197 N205 1.356 . S
C198 C197 1.363 1_545 S
C198 C204 1.363 . S
C199 C200 1.363 . S
C199 C204 1.379 . S
C199 N206 1.356 . S
C200 C199 1.363 . S
C200 C203 1.363 1_545 S
N201 C203 1.356 . S
N201 H213 0.984 . S
N201 H214 0.985 . S
N202 C204 1.356 . S
N202 H207 0.984 . S
N202 H208 0.985 . S
C203 C197 1.379 . S
C203 C200 1.363 1_565 S
C203 N201 1.356 . S
C204 C198 1.363 . S
C204 C199 1.379 . S
C204 N202 1.356 . S
N205 C197 1.356 . S
N205 H211 0.984 . S
N205 H212 0.984 . S
N206 C199 1.356 . S
N206 H209 0.984 . S
N206 H210 0.985 . S
H207 N202 0.984 . S
H208 N202 0.985 . S
H209 N206 0.984 . S
H210 N206 0.985 . S
H211 N205 0.984 . S
H212 N205 0.984 . S
H213 N201 0.984 . S
H214 N201 0.985 . S
C72 C30 1.515 1_455 S
C74 C40 1.503 . S
C90 C1 1.609 . S
C92 C60 1.576 1_565 S
C108 C0 1.487 1_455 S
C110 C49 1.532 . S
C126 C29 1.627 . S
C128 C69 1.634 . S
C144 C19 1.508 . S
C146 C46 1.519 . S
C162 C20 1.610 . S
C164 C66 1.581 1_565 S
C182 C43 1.516 . S
C180 C10 1.493 . S
C198 C2 1.624 . S
C200 C63 1.629 . S
