# Generated by pormake.
# Topology pts, (4,4)-cn, num edge types: 1
# Building blocks:
#     Node 0, Type 0, BuildingBlock: GIZVER_clean_linker_0, # of connection points: 4
#     Node 1, Type 0, BuildingBlock: GIZVER_clean_linker_0, # of connection points: 4
#     Node 2, Type 1, BuildingBlock: QUQFOY_clean_sbu_1, # of connection points: 4
#     Node 3, Type 1, BuildingBlock: QUQFOY_clean_sbu_1, # of connection points: 4
#     Edge 4, Type (0, 1), BuildingBlock: FUNLAD_clean_linker_0, # of connection points: 2
#     Edge 5, Type (0, 1), BuildingBlock: FUNLAD_clean_linker_0, # of connection points: 2
#     Edge 6, Type (0, 1), BuildingBlock: FUNLAD_clean_linker_0, # of connection points: 2
#     Edge 7, Type (0, 1), BuildingBlock: FUNLAD_clean_linker_0, # of connection points: 2
#     Edge 8, Type (0, 1), BuildingBlock: FUNLAD_clean_linker_0, # of connection points: 2
#     Edge 9, Type (0, 1), BuildingBlock: FUNLAD_clean_linker_0, # of connection points: 2
#     Edge 10, Type (0, 1), BuildingBlock: FUNLAD_clean_linker_0, # of connection points: 2
#     Edge 11, Type (0, 1), BuildingBlock: FUNLAD_clean_linker_0, # of connection points: 2
# Relax obj value: 0.105
# Max RMSD: 0.276
# Mean RMSD: 0.184
data_MOF--net-pts--node1-QUQFOY_clean_sbu_1--node2-GIZVER_clean_linker_0--edge1-FUNLAD_clean_linker_0
_symmetry_space_group_name_H-M    P1
_symmetry_Int_Tables_number       1
_symmetry_cell_setting            triclinic
loop_
_symmetry_equiv_pos_as_xyz
'x, y, z'
_cell_length_a     27.484357
_cell_length_b     29.387245
_cell_length_c     45.651799
_cell_angle_alpha  89.904804
_cell_angle_beta   90.119019
_cell_angle_gamma 89.588254
loop_
_atom_site_label
_atom_site_type_symbol
_atom_site_fract_x
_atom_site_fract_y
_atom_site_fract_z
_atom_type_partial_charge
H0 H 0.58513 0.16927 0.00435 0.0
H1 H 0.57222 0.17162 0.91042 0.0
H2 H 0.70024 0.11462 0.95114 0.0
H3 H 0.52545 0.21968 -0.02001 0.0
H4 H 0.51997 0.22048 0.94097 0.0
H5 H 0.48924 0.15753 0.00899 0.0
H6 H 0.37502 0.08163 -0.03234 0.0
H7 H 0.4697 0.16546 0.91582 0.0
C8 C 0.59967 0.16081 -0.01703 0.0
C9 C 0.64561 0.14 -0.01927 0.0
C10 C 0.57329 0.17263 -0.04235 0.0
C11 C 0.59267 0.16257 0.92994 0.0
C12 C 0.63839 0.14132 0.92736 0.0
C13 C 0.66447 0.13014 -0.0471 0.0
C14 C 0.5255 0.19765 -0.03982 0.0
C15 C 0.4842 0.16437 -0.03788 0.0
C16 C 0.46992 0.14712 -0.01057 0.0
C17 C 0.4302 0.11754 -0.00833 0.0
C18 C 0.40586 0.10421 -0.03399 0.0
C19 C 0.41945 0.12133 0.93843 0.0
C20 C 0.4592 0.15108 0.93672 0.0
H21 H 0.12179 0.62429 0.41149 0.0
H22 H 0.1116 0.61579 0.50537 0.0
H23 H 0.05024 0.73077 0.45944 0.0
H24 H 0.17671 0.57461 0.43914 0.0
H25 H 0.17535 0.57365 0.47813 0.0
H26 H 0.1179 0.5288 0.41017 0.0
H27 H 0.06631 0.40905 0.4542 0.0
H28 H 0.12562 0.51913 0.50426 0.0
C29 C 0.10851 0.63783 0.43207 0.0
C30 C 0.08287 0.67933 0.43237 0.0
C31 C 0.11873 0.61463 0.45837 0.0
C32 C 0.10285 0.63326 0.48509 0.0
C33 C 0.0778 0.67519 0.48578 0.0
C34 C 0.06741 0.69744 0.45921 0.0
C35 C 0.15176 0.57336 0.45829 0.0
C36 C 0.12359 0.52945 0.45736 0.0
C37 C 0.11034 0.51041 0.43023 0.0
C38 C 0.08921 0.46703 0.42891 0.0
C39 C 0.08107 0.44315 0.45504 0.0
C40 C 0.09417 0.46147 0.48223 0.0
C41 C 0.1144 0.50517 0.48337 0.0
O42 O 0.96676 1.04151 0.17866 0.0
Cd43 Cd 0.02931 1.01892 0.19939 0.0
Cd44 Cd 0.04602 0.11219 0.20631 0.0
O45 O 0.98346 0.11468 0.18134 0.0
O46 O 1.01817 0.95362 0.20883 0.0
O47 O 0.03233 1.00594 0.2426 0.0
C48 C 0.02414 0.9639 0.23604 0.0
C49 C 0.0503 0.1678 0.2429 0.0
C50 C 0.95605 0.08268 0.1728 0.0
C51 C 0.12214 0.05579 0.17471 0.0
O52 O 0.11033 0.09366 0.1862 0.0
O53 O 0.09392 1.02181 0.17652 0.0
O54 O 0.05619 0.17767 0.21568 0.0
O55 O 0.04268 0.12573 0.24962 0.0
O56 O 0.967 0.10966 0.7324 0.0
Cd57 Cd 0.03417 0.11415 0.71234 0.0
Cd58 Cd 0.02737 1.02008 0.7144 0.0
O59 O 0.96064 1.03484 0.73264 0.0
O60 O 0.04029 0.17937 0.70096 0.0
O61 O 0.03897 0.1233 0.66874 0.0
C62 C 0.04197 0.16638 0.67403 0.0
C63 C 0.02955 0.96618 0.67692 0.0
C64 C 0.94322 0.07393 0.73853 0.0
C65 C 0.11069 0.0629 0.74681 0.0
O66 O 0.08825 1.0265 0.74058 0.0
O67 O 0.09562 0.10104 0.7371 0.0
O68 O 0.02491 0.95435 0.70396 0.0
O69 O 0.03316 1.00907 0.67105 0.0
C70 C 0.39213 0.06032 0.02552 0.0
C71 C 0.41075 0.10417 0.02079 0.0
C72 C 0.3671 0.05011 0.05132 0.0
C73 C 0.36009 0.08368 0.07289 0.0
C74 C 0.38176 0.12636 0.06905 0.0
C75 C 0.40656 0.13663 0.04324 0.0
C76 C 0.32794 0.0769 0.09864 0.0
C77 C 0.28942 0.04874 0.0983 0.0
C78 C 0.25051 0.04921 0.12091 0.0
C79 C 0.21948 1.0116 0.12309 0.0
C80 C 0.17876 1.01295 0.1414 0.0
C81 C 0.16788 0.05225 0.15771 0.0
H82 H 0.26237 0.1183 0.13643 0.0
C83 C 0.19972 0.08939 0.1562 0.0
C84 C 0.24045 0.088 0.13799 0.0
H85 H 0.19243 0.12026 0.16842 0.0
H86 H 0.39586 1.0342 0.00895 0.0
H87 H 0.35268 1.0162 0.05398 0.0
H88 H 0.37731 0.15273 0.08541 0.0
H89 H 0.42015 0.17083 0.04031 0.0
H90 H 0.3335 0.09925 0.11723 0.0
H91 H 0.28397 1.02621 0.07979 0.0
H92 H 0.22607 0.98144 0.11003 0.0
H93 H 0.15501 0.98371 0.14202 0.0
C94 C 0.10877 0.38785 0.50817 0.0
C95 C 0.09046 0.43259 0.50879 0.0
C96 C 0.10276 0.35887 0.53207 0.0
C97 C 0.07763 0.37375 0.55716 0.0
C98 C 0.06118 0.41917 0.55828 0.0
C99 C 0.06753 0.4484 0.5343 0.0
C100 C 0.06889 0.343 0.58257 0.0
C101 C 0.06741 0.2972 0.58006 0.0
C102 C 0.05971 0.26492 0.60484 0.0
C103 C 0.05169 0.2188 0.59834 0.0
C104 C 0.04575 0.18675 0.6207 0.0
C105 C 0.04764 0.20011 0.65018 0.0
H106 H 0.06893 0.31294 0.64073 0.0
C107 C 0.05555 0.24619 0.65678 0.0
C108 C 0.06176 0.27821 0.63444 0.0
H109 H 0.05755 0.25757 0.6793 0.0
H110 H 0.1278 0.37519 0.48905 0.0
H111 H 0.11822 0.325 0.53074 0.0
H112 H 0.04245 0.43181 0.5775 0.0
H113 H 0.05334 0.48284 0.53537 0.0
H114 H 0.06157 0.35906 0.60346 0.0
H115 H 0.07084 0.28207 0.55848 0.0
H116 H 0.05019 0.20737 0.5758 0.0
H117 H 0.03975 0.15152 0.61487 0.0
C118 C 0.72459 0.14332 0.00779 0.0
C119 C 0.6754 0.13078 0.00723 0.0
C120 C 0.7534 0.13412 0.03229 0.0
C121 C 0.73362 0.11226 0.05693 0.0
C122 C 0.6845 0.09939 0.05634 0.0
C123 C 0.65545 0.109 0.03182 0.0
C124 C 0.76434 0.10072 0.08275 0.0
C125 C 0.80208 0.12678 0.09096 0.0
C126 C 0.83717 0.11459 0.11454 0.0
C127 C 0.86583 0.14921 0.12655 0.0
C128 C 0.90315 0.13895 0.1463 0.0
C129 C 0.91309 0.09361 0.15432 0.0
H130 H 0.82539 1.04148 0.11405 0.0
C131 C 0.88348 0.05895 0.14302 0.0
C132 C 0.84592 0.06928 0.12328 0.0
H133 H 0.89022 1.02366 0.14868 0.0
H134 H 0.74088 0.16037 -0.01078 0.0
H135 H 0.79145 0.14331 0.03155 0.0
H136 H 0.66857 0.08204 0.07491 0.0
H137 H 0.61771 0.09864 0.03184 0.0
H138 H 0.75502 0.07068 0.09535 0.0
H139 H 0.80781 0.15904 0.07985 0.0
H140 H 0.86007 0.18436 0.12012 0.0
H141 H 0.92511 0.16657 0.15459 0.0
C142 C 0.02506 0.72567 0.5171 0.0
C143 C 0.06735 0.69883 0.51394 0.0
C144 C 1.01902 0.75388 0.54145 0.0
C145 C 0.05501 0.75559 0.56334 0.0
C146 C 0.09554 0.7265 0.56127 0.0
C147 C 0.10192 0.69868 0.53673 0.0
C148 C 0.05173 0.78798 0.5882 0.0
C149 C 0.03211 0.82995 0.58532 0.0
C150 C 0.03181 0.86423 0.60923 0.0
C151 C 0.03065 0.9107 0.60195 0.0
C152 C 0.03035 0.94394 0.62385 0.0
C153 C 0.03048 0.93133 0.65354 0.0
H154 H 0.031 0.8162 0.64546 0.0
C155 C 0.03091 0.88481 0.66083 0.0
C156 C 0.03155 0.85161 0.63895 0.0
H157 H 0.03065 0.87391 0.68351 0.0
H158 H 0.9971 0.72576 0.50034 0.0
H159 H 0.98642 0.77464 0.54293 0.0
H160 H 0.1235 0.72681 0.57804 0.0
H161 H 0.13513 0.67883 0.53501 0.0
H162 H 0.06985 0.77844 0.60848 0.0
H163 H 1.0186 0.84085 0.56402 0.0
H164 H 0.03043 0.92136 0.57921 0.0
H165 H 0.02973 0.97948 0.61751 0.0
C166 C 0.339 0.10727 0.91393 0.0
C167 C 0.38993 0.11077 0.91188 0.0
C168 C 0.31081 0.09876 0.88912 0.0
C169 C 0.33273 0.09404 0.86151 0.0
C170 C 0.3834 0.09803 0.85923 0.0
C171 C 0.41183 0.10579 0.88419 0.0
C172 C 0.30278 0.08803 0.83476 0.0
C173 C 0.26149 0.06368 0.83489 0.0
C174 C 0.22727 0.06194 0.80976 0.0
C175 C 0.19714 1.02392 0.8066 0.0
C176 C 0.16065 1.02337 0.78524 0.0
C177 C 0.15283 0.06136 0.76703 0.0
H178 H 0.24254 0.12961 0.79308 0.0
C179 C 0.18373 0.09905 0.76975 0.0
C180 C 0.22072 0.0993 0.79082 0.0
H181 H 0.17864 0.12885 0.75606 0.0
H182 H 0.32049 0.1124 0.93458 0.0
H183 H 0.27165 0.09746 0.89149 0.0
H184 H 0.40105 0.09493 0.83812 0.0
H185 H 0.45093 0.10788 0.88176 0.0
H186 H 0.31518 0.10383 0.81461 0.0
H187 H 0.25202 1.04428 0.85433 0.0
H188 H 0.20121 0.99489 0.82109 0.0
H189 H 0.13735 0.99389 0.7838 0.0
C190 C 0.03851 0.41694 0.3968 0.0
C191 C 0.08024 0.44374 0.40056 0.0
C192 C 0.0342 0.38804 0.3727 0.0
C193 C 0.07163 0.38529 0.35181 0.0
C194 C 0.11152 0.41463 0.35435 0.0
C195 C 0.11597 0.44343 0.37857 0.0
C196 C 0.0707 0.35142 0.32768 0.0
C197 C 0.04986 0.31021 0.33063 0.0
C198 C 0.05109 0.27429 0.30769 0.0
C199 C 0.04338 0.22881 0.31597 0.0
C200 C 0.04364 0.19402 0.29508 0.0
C201 C 0.05128 0.20406 0.26537 0.0
H202 H 0.06305 0.31894 0.27038 0.0
C203 C 0.0587 0.24958 0.25704 0.0
C204 C 0.05844 0.28432 0.27789 0.0
H205 H 0.06422 0.25858 0.23427 0.0
H206 H 1.00984 0.41723 0.41305 0.0
H207 H 1.00192 0.36736 0.37079 0.0
H208 H 0.1405 0.41368 0.3383 0.0
H209 H 0.14866 0.4635 0.38087 0.0
H210 H 0.09134 0.35931 0.3081 0.0
H211 H 0.03345 0.30117 0.35145 0.0
H212 H 0.03727 0.22009 0.33873 0.0
H213 H 0.03757 0.15935 0.3022 0.0
C214 C 0.68711 0.09299 0.89284 0.0
C215 C 0.6608 0.13325 0.89823 0.0
C216 C 0.71396 0.08782 0.86712 0.0
C217 C 0.71471 0.12274 0.84593 0.0
C218 C 0.68654 0.1621 0.85078 0.0
C219 C 0.65978 0.1673 0.87659 0.0
C220 C 0.74824 0.12164 0.82034 0.0
C221 C 0.77094 0.08364 0.81079 0.0
C222 C 0.81161 0.08345 0.78927 0.0
C223 C 0.82697 1.04157 0.77759 0.0
C224 C 0.86874 1.03867 0.76028 0.0
C225 C 0.89626 0.07769 0.75425 0.0
H226 H 0.82887 0.15568 0.79139 0.0
C227 C 0.87999 0.11992 0.76498 0.0
C228 C 0.83835 0.1228 0.78243 0.0
H229 H 0.90042 0.15064 0.76084 0.0
H230 H 0.68819 0.06593 0.90898 0.0
H231 H 0.73572 0.05726 0.86486 0.0
H232 H 0.6866 0.18969 0.83501 0.0
H233 H 0.64026 0.19893 0.8802 0.0
H234 H 0.75538 0.15392 0.8097 0.0
H235 H 0.76051 0.05086 0.81963 0.0
H236 H 0.80736 1.01065 0.78256 0.0
H237 H 0.8801 1.00559 0.75228 0.0
C238 C 0.0317 0.72736 0.39878 0.0
C239 C 0.07683 0.70702 0.40541 0.0
C240 C 0.02757 0.75899 0.37598 0.0
C241 C 0.06869 0.77117 0.35949 0.0
C242 C 0.11348 0.74989 0.36565 0.0
C243 C 0.11745 0.71779 0.3882 0.0
C244 C 0.06689 0.80842 0.33747 0.0
C245 C 0.02681 0.8189 0.32179 0.0
C246 C 0.02573 0.8569 0.30037 0.0
C247 C 0.9999 0.85181 0.27408 0.0
C248 C 0.99916 0.88675 0.25326 0.0
C249 C 1.02306 0.92801 0.25874 0.0
H250 H 0.06839 0.90367 0.3265 0.0
C251 C 0.04745 0.93378 0.28553 0.0
C252 C 0.04914 0.89839 0.30608 0.0
H253 H 0.06616 0.96522 0.29033 0.0
H254 H 0.99991 0.71982 0.41187 0.0
H255 H 0.99269 0.77535 0.37228 0.0
H256 H 0.14575 0.75887 0.3534 0.0
H257 H 0.15282 0.70315 0.39314 0.0
H258 H 0.10026 0.82705 0.33346 0.0
H259 H 0.99477 0.79762 0.32339 0.0
H260 H 0.98114 0.82035 0.26935 0.0
H261 H 0.97981 0.88147 0.23286 0.0
loop_
_geom_bond_atom_site_label_1
_geom_bond_atom_site_label_2
_geom_bond_distance
_geom_bond_site_symmetry_2
_ccdc_geom_bond_type
H0 C8 0.930 . S
H1 C11 0.930 . S
H2 C13 0.930 . S
H3 C14 0.970 . S
H4 C14 0.970 1_556 S
H5 C16 0.930 . S
H6 C18 0.930 . S
H7 C20 0.930 . S
C8 H0 0.930 . S
C8 C9 1.382 . S
C8 C10 1.426 . S
C9 C8 1.382 . S
C9 C13 1.389 . S
C10 C8 1.426 . S
C10 C11 1.375 1_554 S
C10 C14 1.532 . S
C11 H1 0.930 . S
C11 C10 1.375 1_556 S
C11 C12 1.416 . S
C12 C11 1.416 . S
C12 C13 1.371 1_556 S
C13 H2 0.930 . S
C13 C9 1.389 . S
C13 C12 1.371 1_554 S
C14 H3 0.970 . S
C14 H4 0.970 1_554 S
C14 C10 1.532 . S
C14 C15 1.499 . S
C15 C14 1.499 . S
C15 C16 1.370 . S
C15 C20 1.415 1_554 S
C16 H5 0.930 . S
C16 C15 1.370 . S
C16 C17 1.407 . S
C17 C16 1.407 . S
C17 C18 1.365 . S
C18 H6 0.930 . S
C18 C17 1.365 . S
C18 C19 1.393 1_554 S
C19 C18 1.393 1_556 S
C19 C20 1.387 . S
C20 H7 0.930 . S
C20 C15 1.415 1_556 S
C20 C19 1.387 . S
H21 C29 0.930 . S
H22 C32 0.930 . S
H23 C34 0.930 1_655 S
H24 C35 0.970 . S
H25 C35 0.970 . S
H26 C37 0.930 . S
H27 C39 0.930 1_655 S
H28 C41 0.930 . S
C29 H21 0.930 . S
C29 C30 1.382 . S
C29 C31 1.426 . S
C30 C29 1.382 . S
C30 C34 1.389 . S
C31 C29 1.426 . S
C31 C32 1.375 . S
C31 C35 1.532 . S
C32 H22 0.930 . S
C32 C31 1.375 . S
C32 C33 1.416 . S
C33 C32 1.416 . S
C33 C34 1.371 . S
C34 H23 0.930 1_455 S
C34 C30 1.389 . S
C34 C33 1.371 . S
C35 H24 0.970 . S
C35 H25 0.970 . S
C35 C31 1.532 . S
C35 C36 1.499 . S
C36 C35 1.499 . S
C36 C37 1.370 . S
C36 C41 1.415 . S
C37 H26 0.930 . S
C37 C36 1.370 . S
C37 C38 1.407 . S
C38 C37 1.407 . S
C38 C39 1.365 . S
C39 H27 0.930 1_455 S
C39 C38 1.365 . S
C39 C40 1.393 . S
C40 C39 1.393 . S
C40 C41 1.387 . S
C41 H28 0.930 . S
C41 C36 1.415 . S
C41 C40 1.387 . S
O42 Cd43 2.224 1_655 S
O42 C50 1.314 1_565 S
Cd43 O42 2.224 1_455 S
Cd43 O46 2.297 . S
Cd43 O47 2.439 . S
Cd43 O53 2.240 1_565 S
Cd44 O45 2.240 . S
Cd44 O52 2.223 1_655 S
Cd44 O54 2.297 1_655 S
Cd44 O55 2.439 1_655 S
O45 Cd44 2.240 . S
O45 C50 1.279 . S
O46 Cd43 2.297 . S
O46 C48 1.246 1_455 S
O47 Cd43 2.439 . S
O47 C48 1.207 1_455 S
C48 O46 1.246 1_655 S
C48 O47 1.207 1_655 S
C49 O54 1.247 . S
C49 O55 1.208 . S
C50 O42 1.314 1_545 S
C50 O45 1.279 . S
C51 O52 1.315 . S
C51 O53 1.279 . S
O52 Cd44 2.223 1_455 S
O52 C51 1.315 . S
O53 Cd43 2.240 1_545 S
O53 C51 1.279 . S
O54 Cd44 2.297 1_455 S
O54 C49 1.247 . S
O55 Cd44 2.439 1_455 S
O55 C49 1.208 . S
O56 Cd57 2.223 1_655 S
O56 C64 1.315 . S
Cd57 O56 2.223 1_455 S
Cd57 O60 2.297 . S
Cd57 O61 2.439 . S
Cd57 O67 2.240 . S
Cd58 O59 2.240 1_565 S
Cd58 O66 2.223 1_655 S
Cd58 O68 2.297 1_655 S
Cd58 O69 2.439 1_655 S
O59 Cd58 2.240 1_545 S
O59 C64 1.279 . S
O60 Cd57 2.297 . S
O60 C62 1.247 1_455 S
O61 Cd57 2.439 . S
O61 C62 1.208 1_455 S
C62 O60 1.247 1_655 S
C62 O61 1.208 1_655 S
C63 O68 1.247 . S
C63 O69 1.208 . S
C64 O56 1.315 . S
C64 O59 1.279 . S
C65 O66 1.315 1_545 S
C65 O67 1.279 . S
O66 Cd58 2.223 1_455 S
O66 C65 1.315 1_565 S
O67 Cd57 2.240 . S
O67 C65 1.279 . S
O68 Cd58 2.297 1_455 S
O68 C63 1.247 . S
O69 Cd58 2.439 1_455 S
O69 C63 1.208 . S
C70 C71 1.386 . S
C70 C72 1.383 . S
C70 H86 0.951 1_545 S
C71 C70 1.386 . S
C71 C75 1.383 . S
C72 C70 1.383 . S
C72 C73 1.402 . S
C72 H87 0.951 1_545 S
C73 C72 1.402 . S
C73 C74 1.375 . S
C73 C76 1.481 . S
C74 C73 1.375 . S
C74 C75 1.367 . S
C74 H88 0.951 . S
C75 C71 1.383 . S
C75 C74 1.367 . S
C75 H89 0.950 . S
C76 C73 1.481 . S
C76 C77 1.297 . S
C76 H90 0.950 . S
C77 C76 1.297 . S
C77 C78 1.479 . S
C77 H91 0.947 1_545 S
C78 C77 1.479 . S
C78 C79 1.375 . S
C78 C84 1.404 . S
C79 C78 1.375 . S
C79 C80 1.369 . S
C79 H92 0.950 1_545 S
C80 C79 1.369 . S
C80 C81 1.392 . S
C80 H93 0.951 . S
C81 C80 1.392 . S
C81 C83 1.384 . S
H82 C84 0.949 . S
C83 C81 1.384 . S
C83 C84 1.385 . S
C83 H85 0.950 . S
C84 C78 1.404 . S
C84 H82 0.949 . S
C84 C83 1.385 . S
H85 C83 0.950 . S
H86 C70 0.951 1_565 S
H87 C72 0.951 1_565 S
H88 C74 0.951 . S
H89 C75 0.950 . S
H90 C76 0.950 . S
H91 C77 0.947 1_565 S
H92 C79 0.950 1_565 S
H93 C80 0.951 . S
C94 C95 1.386 . S
C94 C96 1.383 . S
C94 H110 0.951 . S
C95 C94 1.386 . S
C95 C99 1.383 . S
C96 C94 1.383 . S
C96 C97 1.402 . S
C96 H111 0.951 . S
C97 C96 1.402 . S
C97 C98 1.375 . S
C97 C100 1.481 . S
C98 C97 1.375 . S
C98 C99 1.367 . S
C98 H112 0.951 1_455 S
C99 C95 1.383 . S
C99 C98 1.367 . S
C99 H113 0.951 . S
C100 C97 1.481 . S
C100 C101 1.297 . S
C100 H114 0.950 . S
C101 C100 1.297 . S
C101 C102 1.479 . S
C101 H115 0.950 . S
C102 C101 1.479 . S
C102 C103 1.375 . S
C102 C108 1.404 . S
C103 C102 1.375 . S
C103 C104 1.369 . S
C103 H116 0.950 . S
C104 C103 1.369 . S
C104 C105 1.392 1_455 S
C104 H117 0.951 . S
C105 C104 1.392 1_655 S
C105 C107 1.384 . S
H106 C108 0.949 . S
C107 C105 1.384 . S
C107 C108 1.385 1_655 S
C107 H109 0.950 . S
C108 C102 1.404 . S
C108 H106 0.949 . S
C108 C107 1.385 1_455 S
H109 C107 0.950 . S
H110 C94 0.951 . S
H111 C96 0.951 . S
H112 C98 0.951 1_655 S
H113 C99 0.951 . S
H114 C100 0.950 . S
H115 C101 0.950 . S
H116 C103 0.950 . S
H117 C104 0.951 . S
C118 C119 1.386 . S
C118 C120 1.383 . S
C118 H134 0.951 . S
C119 C118 1.386 . S
C119 C123 1.383 . S
C120 C118 1.383 . S
C120 C121 1.402 . S
C120 H135 0.951 . S
C121 C120 1.402 . S
C121 C122 1.375 . S
C121 C124 1.481 . S
C122 C121 1.375 . S
C122 C123 1.367 . S
C122 H136 0.951 1_545 S
C123 C119 1.383 . S
C123 C122 1.367 . S
C123 H137 0.950 1_545 S
C124 C121 1.481 . S
C124 C125 1.297 . S
C124 H138 0.950 1_545 S
C125 C124 1.297 . S
C125 C126 1.479 . S
C125 H139 0.950 . S
C126 C125 1.479 . S
C126 C127 1.375 . S
C126 C132 1.404 . S
C127 C126 1.375 . S
C127 C128 1.369 . S
C127 H140 0.950 . S
C128 C127 1.369 . S
C128 C129 1.392 . S
C128 H141 0.951 . S
C129 C128 1.392 . S
C129 C131 1.384 1_545 S
H130 C132 0.949 1_565 S
C131 C129 1.384 1_565 S
C131 C132 1.385 1_565 S
C131 H133 0.950 . S
C132 C126 1.404 . S
C132 H130 0.949 1_545 S
C132 C131 1.385 1_545 S
H133 C131 0.950 . S
H134 C118 0.951 . S
H135 C120 0.951 . S
H136 C122 0.951 1_565 S
H137 C123 0.950 1_565 S
H138 C124 0.950 1_565 S
H139 C125 0.950 . S
H140 C127 0.950 . S
H141 C128 0.951 . S
C142 C143 1.386 1_655 S
C142 C144 1.383 . S
C142 H158 0.951 . S
C143 C142 1.386 1_455 S
C143 C147 1.383 . S
C144 C142 1.383 . S
C144 C145 1.402 1_655 S
C144 H159 0.951 . S
C145 C144 1.402 1_455 S
C145 C146 1.375 . S
C145 C148 1.481 . S
C146 C145 1.375 . S
C146 C147 1.367 . S
C146 H160 0.951 . S
C147 C143 1.383 . S
C147 C146 1.367 . S
C147 H161 0.950 . S
C148 C145 1.481 . S
C148 C149 1.297 . S
C148 H162 0.950 . S
C149 C148 1.297 . S
C149 C150 1.479 . S
C149 H163 0.950 1_455 S
C150 C149 1.479 . S
C150 C151 1.375 1_455 S
C150 C156 1.404 . S
C151 C150 1.375 1_655 S
C151 C152 1.369 1_655 S
C151 H164 0.950 . S
C152 C151 1.369 1_455 S
C152 C153 1.392 . S
C152 H165 0.951 1_455 S
C153 C152 1.392 . S
C153 C155 1.384 . S
H154 C156 0.949 . S
C155 C153 1.384 . S
C155 C156 1.385 . S
C155 H157 0.950 . S
C156 C150 1.404 . S
C156 H154 0.949 . S
C156 C155 1.385 . S
H157 C155 0.950 . S
H158 C142 0.951 . S
H159 C144 0.951 . S
H160 C146 0.951 . S
H161 C147 0.950 . S
H162 C148 0.950 . S
H163 C149 0.950 1_655 S
H164 C151 0.950 . S
H165 C152 0.951 1_655 S
C166 C167 1.386 . S
C166 C168 1.383 . S
C166 H182 0.951 . S
C167 C166 1.386 . S
C167 C171 1.383 . S
C168 C166 1.383 . S
C168 C169 1.402 . S
C168 H183 0.951 . S
C169 C168 1.402 . S
C169 C170 1.375 . S
C169 C172 1.481 . S
C170 C169 1.375 . S
C170 C171 1.367 . S
C170 H184 0.951 . S
C171 C167 1.383 . S
C171 C170 1.367 . S
C171 H185 0.950 . S
C172 C169 1.481 . S
C172 C173 1.297 . S
C172 H186 0.950 . S
C173 C172 1.297 . S
C173 C174 1.479 . S
C173 H187 0.950 . S
C174 C173 1.479 . S
C174 C175 1.375 . S
C174 C180 1.404 . S
C175 C174 1.375 . S
C175 C176 1.369 . S
C175 H188 0.950 . S
C176 C175 1.369 . S
C176 C177 1.392 . S
C176 H189 0.951 . S
C177 C176 1.392 . S
C177 C179 1.384 . S
H178 C180 0.949 . S
C179 C177 1.384 . S
C179 C180 1.385 . S
C179 H181 0.950 . S
C180 C174 1.404 . S
C180 H178 0.949 . S
C180 C179 1.385 . S
H181 C179 0.950 . S
H182 C166 0.951 . S
H183 C168 0.951 . S
H184 C170 0.951 . S
H185 C171 0.950 . S
H186 C172 0.950 . S
H187 C173 0.950 . S
H188 C175 0.950 . S
H189 C176 0.951 . S
C190 C191 1.386 1_655 S
C190 C192 1.383 . S
C190 H206 0.951 . S
C191 C190 1.386 1_455 S
C191 C195 1.383 . S
C192 C190 1.383 . S
C192 C193 1.402 1_655 S
C192 H207 0.951 . S
C193 C192 1.402 1_455 S
C193 C194 1.375 . S
C193 C196 1.481 . S
C194 C193 1.375 . S
C194 C195 1.367 . S
C194 H208 0.951 . S
C195 C191 1.383 . S
C195 C194 1.367 . S
C195 H209 0.950 . S
C196 C193 1.481 . S
C196 C197 1.297 . S
C196 H210 0.950 . S
C197 C196 1.297 . S
C197 C198 1.479 . S
C197 H211 0.950 1_455 S
C198 C197 1.479 . S
C198 C199 1.375 1_455 S
C198 C204 1.404 . S
C199 C198 1.375 1_655 S
C199 C200 1.369 1_655 S
C199 H212 0.950 . S
C200 C199 1.369 1_455 S
C200 C201 1.392 . S
C200 H213 0.951 1_455 S
C201 C200 1.392 . S
C201 C203 1.384 . S
H202 C204 0.949 . S
C203 C201 1.384 . S
C203 C204 1.385 . S
C203 H205 0.950 . S
C204 C198 1.404 . S
C204 H202 0.949 . S
C204 C203 1.385 . S
H205 C203 0.950 . S
H206 C190 0.951 . S
H207 C192 0.951 . S
H208 C194 0.951 . S
H209 C195 0.950 . S
H210 C196 0.950 . S
H211 C197 0.950 1_655 S
H212 C199 0.950 . S
H213 C200 0.951 1_655 S
C214 C215 1.386 . S
C214 C216 1.383 . S
C214 H230 0.951 1_545 S
C215 C214 1.386 . S
C215 C219 1.383 . S
C216 C214 1.383 . S
C216 C217 1.402 . S
C216 H231 0.951 1_545 S
C217 C216 1.402 . S
C217 C218 1.375 . S
C217 C220 1.481 . S
C218 C217 1.375 . S
C218 C219 1.367 . S
C218 H232 0.951 . S
C219 C215 1.383 . S
C219 C218 1.367 . S
C219 H233 0.950 . S
C220 C217 1.481 . S
C220 C221 1.297 . S
C220 H234 0.950 . S
C221 C220 1.297 . S
C221 C222 1.479 . S
C221 H235 0.950 . S
C222 C221 1.479 . S
C222 C223 1.375 . S
C222 C228 1.404 . S
C223 C222 1.375 . S
C223 C224 1.369 . S
C223 H236 0.950 1_545 S
C224 C223 1.369 . S
C224 C225 1.392 . S
C224 H237 0.951 1_545 S
C225 C224 1.392 . S
C225 C227 1.384 . S
H226 C228 0.949 . S
C227 C225 1.384 . S
C227 C228 1.385 . S
C227 H229 0.950 . S
C228 C222 1.404 . S
C228 H226 0.949 . S
C228 C227 1.385 . S
H229 C227 0.950 . S
H230 C214 0.951 1_565 S
H231 C216 0.951 1_565 S
H232 C218 0.951 . S
H233 C219 0.950 . S
H234 C220 0.950 . S
H235 C221 0.950 . S
H236 C223 0.950 1_565 S
H237 C224 0.951 1_565 S
C238 C239 1.386 1_655 S
C238 C240 1.383 . S
C238 H254 0.951 . S
C239 C238 1.386 1_455 S
C239 C243 1.383 . S
C240 C238 1.383 . S
C240 C241 1.402 1_655 S
C240 H255 0.951 . S
C241 C240 1.402 1_455 S
C241 C242 1.375 . S
C241 C244 1.481 . S
C242 C241 1.375 . S
C242 C243 1.367 . S
C242 H256 0.951 . S
C243 C239 1.383 . S
C243 C242 1.367 . S
C243 H257 0.950 . S
C244 C241 1.481 . S
C244 C245 1.297 1_455 S
C244 H258 0.950 . S
C245 C244 1.297 1_655 S
C245 C246 1.479 . S
C245 H259 0.950 . S
C246 C245 1.479 . S
C246 C247 1.375 . S
C246 C252 1.404 1_655 S
C247 C246 1.375 . S
C247 C248 1.369 . S
C247 H260 0.950 . S
C248 C247 1.369 . S
C248 C249 1.392 . S
C248 H261 0.951 . S
C249 C248 1.392 . S
C249 C251 1.384 1_655 S
H250 C252 0.949 . S
C251 C249 1.384 1_455 S
C251 C252 1.385 . S
C251 H253 0.950 . S
C252 C246 1.404 1_455 S
C252 H250 0.949 . S
C252 C251 1.385 . S
H253 C251 0.950 . S
H254 C238 0.951 . S
H255 C240 0.951 . S
H256 C242 0.951 . S
H257 C243 0.950 . S
H258 C244 0.950 . S
H259 C245 0.950 . S
H260 C247 0.950 . S
H261 C248 0.951 . S
C81 C51 1.662 . S
C71 C17 1.607 . S
C105 C62 1.513 . S
C95 C40 1.606 . S
C129 C50 1.663 . S
C119 C9 1.644 . S
C153 C63 1.528 . S
C143 C33 1.530 . S
C177 C65 1.665 . S
C167 C19 1.626 . S
C201 C49 1.529 . S
C191 C38 1.557 . S
C225 C64 1.651 . S
C215 C12 1.567 . S
C239 C30 1.560 . S
C249 C48 1.625 . S
