# Generated by pormake.
# Topology pyr, (3,6)-cn, num edge types: 1
# Building blocks:
#     Node 0, Type 0, BuildingBlock: INOVEN_clean_linker_0, # of connection points: 3
#     Node 1, Type 0, BuildingBlock: INOVEN_clean_linker_0, # of connection points: 3
#     Node 2, Type 0, BuildingBlock: INOVEN_clean_linker_0, # of connection points: 3
#     Node 3, Type 0, BuildingBlock: INOVEN_clean_linker_0, # of connection points: 3
#     Node 4, Type 0, BuildingBlock: INOVEN_clean_linker_0, # of connection points: 3
#     Node 5, Type 0, BuildingBlock: INOVEN_clean_linker_0, # of connection points: 3
#     Node 6, Type 0, BuildingBlock: INOVEN_clean_linker_0, # of connection points: 3
#     Node 7, Type 0, BuildingBlock: INOVEN_clean_linker_0, # of connection points: 3
#     Node 8, Type 1, BuildingBlock: BETDEL_clean_sbu_0, # of connection points: 6
#     Node 9, Type 1, BuildingBlock: BETDEL_clean_sbu_0, # of connection points: 6
#     Node 10, Type 1, BuildingBlock: BETDEL_clean_sbu_0, # of connection points: 6
#     Node 11, Type 1, BuildingBlock: BETDEL_clean_sbu_0, # of connection points: 6
#     Edge 12, Type (0, 1), None
#     Edge 13, Type (0, 1), None
#     Edge 14, Type (0, 1), None
#     Edge 15, Type (0, 1), None
#     Edge 16, Type (0, 1), None
#     Edge 17, Type (0, 1), None
#     Edge 18, Type (0, 1), None
#     Edge 19, Type (0, 1), None
#     Edge 20, Type (0, 1), None
#     Edge 21, Type (0, 1), None
#     Edge 22, Type (0, 1), None
#     Edge 23, Type (0, 1), None
#     Edge 24, Type (0, 1), None
#     Edge 25, Type (0, 1), None
#     Edge 26, Type (0, 1), None
#     Edge 27, Type (0, 1), None
#     Edge 28, Type (0, 1), None
#     Edge 29, Type (0, 1), None
#     Edge 30, Type (0, 1), None
#     Edge 31, Type (0, 1), None
#     Edge 32, Type (0, 1), None
#     Edge 33, Type (0, 1), None
#     Edge 34, Type (0, 1), None
#     Edge 35, Type (0, 1), None
# Relax obj value: 0.114
# Max RMSD: 0.182
# Mean RMSD: 0.126
data_MOF--net-pyr--node1-BETDEL_clean_sbu_0--node2-INOVEN_clean_linker_0--edge1-none
_symmetry_space_group_name_H-M    P1
_symmetry_Int_Tables_number       1
_symmetry_cell_setting            triclinic
loop_
_symmetry_equiv_pos_as_xyz
'x, y, z'
_cell_length_a     15.325414
_cell_length_b     17.184641
_cell_length_c     16.585025
_cell_angle_alpha  92.769294
_cell_angle_beta   90.418941
_cell_angle_gamma 107.0574
loop_
_atom_site_label
_atom_site_type_symbol
_atom_site_fract_x
_atom_site_fract_y
_atom_site_fract_z
_atom_type_partial_charge
H0 H 0.16042 0.25047 0.26866 0.0
H1 H 0.3042 0.07162 0.26506 0.0
H2 H 0.33798 0.23842 0.07271 0.0
N3 N 0.21084 0.30755 0.12784 0.0
N4 N 0.13303 0.30995 0.14622 0.0
C5 C 0.20699 0.22212 0.23884 0.0
C6 C 0.22459 0.15648 0.27266 0.0
C7 C 0.24378 0.24954 0.16524 0.0
C8 C 0.30776 0.21634 0.12924 0.0
C9 C 0.33099 0.15317 0.16659 0.0
C10 C 0.28876 0.12242 0.23804 0.0
H11 H 0.29507 0.78734 0.57552 0.0
H12 H 0.47921 0.84642 0.78183 0.0
H13 H 0.27671 0.97083 0.75539 0.0
N14 N 0.21719 0.90415 0.60749 0.0
N15 N 0.18568 0.96108 0.62797 0.0
C16 C 0.31797 0.82116 0.63246 0.0
C17 C 0.39016 0.80772 0.67707 0.0
C18 C 0.27826 0.88136 0.65925 0.0
C19 C 0.30702 0.92449 0.73332 0.0
C20 C 0.37978 0.91257 0.7763 0.0
C21 C 0.42252 0.85537 0.74776 0.0
H22 H 0.52893 0.27057 0.86417 0.0
H23 H 0.74762 0.30565 0.04097 0.0
H24 H 0.74695 0.49268 0.87516 0.0
N25 N 0.59509 0.4103 0.79338 0.0
N26 N 0.60397 0.48378 0.78179 0.0
C27 C 0.59223 0.30756 0.89285 0.0
C28 C 0.63118 0.27767 0.95843 0.0
C29 C 0.63299 0.38504 0.86331 0.0
C30 C 0.71482 0.43387 0.89929 0.0
C31 C 0.75825 0.40597 0.96215 0.0
C32 C 0.71595 0.32728 0.99162 0.0
H33 H 0.74414 0.57857 0.39481 0.0
H34 H 0.77269 0.80433 0.52879 0.0
H35 H 0.95741 0.79493 0.33613 0.0
N36 N 0.88673 0.6301 0.30008 0.0
N37 N 0.92861 0.65275 0.23644 0.0
C38 C 0.77806 0.64325 0.40452 0.0
C39 C 0.74927 0.68761 0.46767 0.0
C40 C 0.8525 0.68116 0.35523 0.0
C41 C 0.89785 0.76569 0.3703 0.0
C42 C 0.87009 0.81021 0.43449 0.0
C43 C 0.79536 0.77028 0.48075 0.0
H44 H 0.7417 0.92448 0.80811 0.0
H45 H 0.98479 0.84813 0.81507 0.0
H46 H 0.77322 0.7651 0.9882 0.0
N47 N 0.68281 0.86713 0.94399 0.0
N48 N 0.71011 0.93419 0.98189 0.0
C49 C 0.7805 0.88694 0.83236 0.0
C50 C 0.86659 0.89153 0.80366 0.0
C51 C 0.74802 0.8428 0.89936 0.0
C52 C 0.79823 0.79706 0.93435 0.0
C53 C 0.88338 0.79773 0.90332 0.0
C54 C 0.91817 0.84587 0.83823 0.0
H55 H 0.74074 0.29047 0.32033 0.0
H56 H 0.8234 0.0746 0.34986 0.0
H57 H 0.83583 0.24747 0.55094 0.0
N58 N 0.73702 0.32717 0.47338 0.0
N59 N 0.6607 0.32397 0.44401 0.0
C60 C 0.7703 0.25355 0.35691 0.0
C61 C 0.77626 0.17895 0.32579 0.0
C62 C 0.78308 0.27388 0.43896 0.0
C63 C 0.82452 0.22984 0.48721 0.0
C64 C 0.84539 0.16014 0.45435 0.0
C65 C 0.81757 0.13269 0.37351 0.0
H66 H 0.49162 0.84483 0.28405 0.0
H67 H 0.30506 0.83224 0.08349 0.0
H68 H 0.2799 0.62454 0.23019 0.0
N69 N 0.41961 0.69784 0.33129 0.0
N70 N 0.41501 0.62423 0.33566 0.0
C71 C 0.43378 0.81147 0.24579 0.0
C72 C 0.40655 0.84902 0.18043 0.0
C73 C 0.39001 0.73057 0.26222 0.0
C74 C 0.31447 0.68624 0.21441 0.0
C75 C 0.2804 0.72191 0.15045 0.0
C76 C 0.32841 0.80387 0.13286 0.0
H77 H 0.04871 0.3144 0.73884 0.0
H78 H 0.245 0.30662 0.55563 0.0
H79 H 0.27788 0.52606 0.7019 0.0
N80 N 0.12624 0.47897 0.78203 0.0
N81 N 0.10057 0.46596 0.85315 0.0
C82 C 0.11168 0.34286 0.70882 0.0
C83 C 0.1415 0.29924 0.64421 0.0
C84 C 0.16107 0.42589 0.73004 0.0
C85 C 0.24084 0.46269 0.68749 0.0
C86 C 0.27125 0.41996 0.62475 0.0
C87 C 0.2209 0.33936 0.60385 0.0
Dy88 Dy 0.06538 0.0672 0.4677 0.0
C89 C 0.90216 0.94647 0.73963 0.0
C90 C 0.16922 0.12325 0.34059 0.0
Dy91 Dy 0.96175 0.03577 0.61125 0.0
O92 O 0.18843 0.07642 0.39186 0.0
O93 O 0.09346 0.13894 0.35831 0.0
O94 O 0.12695 0.96932 0.49734 0.0
O95 O 0.10396 0.04947 0.58991 0.0
C96 C 0.13225 0.98888 0.57376 0.0
C97 C 0.88752 0.11444 0.50891 0.0
O98 O 0.04287 0.15941 0.66142 0.0
O99 O 0.10488 0.19178 0.53653 0.0
O100 O 0.85702 0.98891 0.7038 0.0
O101 O 0.9812 0.9563 0.70813 0.0
O102 O 0.88556 0.12386 0.58719 0.0
O103 O 0.92185 0.05768 0.48791 0.0
O104 O 0.97127 0.9491 0.41519 0.0
O105 O 0.91355 0.91537 0.54042 0.0
C106 C 0.09231 0.21344 0.61318 0.0
C107 C 0.92144 0.89524 0.4633 0.0
Dy108 Dy 0.58727 0.0815 0.13681 0.0
C109 C 0.41386 0.96183 0.84967 0.0
C110 C 0.71995 0.14665 0.25231 0.0
Dy111 Dy 0.4811 0.03705 0.99256 0.0
O112 O 0.69998 0.07265 0.22191 0.0
O113 O 0.66652 0.18389 0.21995 0.0
O114 O 0.52468 0.97851 0.21682 0.0
O115 O 0.46917 0.97172 0.10133 0.0
C116 C 0.46351 0.93472 0.16587 0.0
C117 C 0.57746 0.19688 0.99114 0.0
O118 O 0.37591 0.06461 0.07067 0.0
O119 O 0.48334 0.14592 0.16136 0.0
O120 O 0.36353 0.97789 0.90712 0.0
O121 O 0.49959 0.98931 0.86896 0.0
O122 O 0.49413 0.1646 0.96593 0.0
O123 O 0.6086 0.14079 0.01743 0.0
O124 O 0.68226 0.03778 0.0624 0.0
O125 O 0.56429 0.95043 0.99075 0.0
C126 C 0.39932 0.11954 0.13145 0.0
C127 C 0.64965 0.9725 0.01574 0.0
Dy128 Dy 0.52122 0.48297 0.51676 0.0
C129 C 0.43227 0.74486 0.64974 0.0
C130 C 0.61253 0.37799 0.4697 0.0
Dy131 Dy 0.50847 0.62788 0.59595 0.0
O132 O 0.52776 0.36879 0.44954 0.0
O133 O 0.64841 0.44485 0.51252 0.0
O134 O 0.37208 0.42233 0.51224 0.0
O135 O 0.42912 0.50115 0.61273 0.0
C136 C 0.35513 0.45742 0.57918 0.0
C137 C 0.67158 0.65067 0.52153 0.0
O138 O 0.5465 0.57486 0.70848 0.0
O139 O 0.57258 0.46442 0.64052 0.0
O140 O 0.51388 0.74304 0.66967 0.0
O141 O 0.3924 0.68256 0.60209 0.0
O142 O 0.66021 0.68633 0.58996 0.0
O143 O 0.59432 0.60859 0.49477 0.0
O144 O 0.47817 0.53434 0.4053 0.0
O145 O 0.44288 0.63884 0.47676 0.0
C146 C 0.57348 0.50836 0.70828 0.0
C147 C 0.44364 0.5967 0.40811 0.0
Dy148 Dy 0.03352 0.49564 0.09737 0.0
C149 C 0.93381 0.74714 0.93891 0.0
C150 C 0.0972 0.37126 0.12382 0.0
Dy151 Dy 0.01171 0.63604 0.99074 0.0
O152 O 0.01855 0.37591 0.14845 0.0
O153 O 0.14349 0.43554 0.08839 0.0
O154 O 0.97975 0.53238 0.21644 0.0
O155 O 0.9871 0.60262 0.11548 0.0
C156 C 0.96513 0.59756 0.18923 0.0
C157 C 0.06992 0.52603 0.89887 0.0
O158 O 0.14351 0.70408 0.06091 0.0
O159 O 0.16703 0.59213 0.12221 0.0
O160 O 0.01436 0.74367 0.91788 0.0
O161 O 0.89847 0.69247 0.99 0.0
O162 O 0.0601 0.59241 0.87076 0.0
O163 O 0.0515 0.52641 0.97295 0.0
O164 O 0.90151 0.42728 0.03584 0.0
O165 O 0.87514 0.53776 0.97476 0.0
C166 C 0.19364 0.67088 0.10702 0.0
C167 C 0.84886 0.45969 0.99363 0.0
loop_
_geom_bond_atom_site_label_1
_geom_bond_atom_site_label_2
_geom_bond_distance
_geom_bond_site_symmetry_2
_ccdc_geom_bond_type
H0 C5 0.929 . S
H1 C10 0.931 . S
H2 C8 0.930 . S
N3 N4 1.234 . S
N3 C7 1.453 . S
N4 N3 1.234 . S
C5 H0 0.929 . S
C5 C6 1.373 . S
C5 C7 1.368 . S
C6 C5 1.373 . S
C6 C10 1.397 . S
C7 N3 1.453 . S
C7 C5 1.368 . S
C7 C8 1.373 . S
C8 H2 0.930 . S
C8 C7 1.373 . S
C8 C9 1.371 . S
C9 C8 1.371 . S
C9 C10 1.383 . S
C10 H1 0.931 . S
C10 C6 1.397 . S
C10 C9 1.383 . S
H11 C16 0.929 . S
H12 C21 0.931 . S
H13 C19 0.930 . S
N14 N15 1.234 . S
N14 C18 1.453 . S
N15 N14 1.234 . S
C16 H11 0.929 . S
C16 C17 1.373 . S
C16 C18 1.368 . S
C17 C16 1.373 . S
C17 C21 1.397 . S
C18 N14 1.453 . S
C18 C16 1.368 . S
C18 C19 1.373 . S
C19 H13 0.930 . S
C19 C18 1.373 . S
C19 C20 1.371 . S
C20 C19 1.371 . S
C20 C21 1.383 . S
C21 H12 0.931 . S
C21 C17 1.397 . S
C21 C20 1.383 . S
H22 C27 0.929 . S
H23 C32 0.931 1_554 S
H24 C30 0.930 . S
N25 N26 1.234 . S
N25 C29 1.453 . S
N26 N25 1.234 . S
C27 H22 0.929 . S
C27 C28 1.373 . S
C27 C29 1.368 . S
C28 C27 1.373 . S
C28 C32 1.397 . S
C29 N25 1.453 . S
C29 C27 1.368 . S
C29 C30 1.373 . S
C30 H24 0.930 . S
C30 C29 1.373 . S
C30 C31 1.371 . S
C31 C30 1.371 . S
C31 C32 1.383 . S
C32 H23 0.931 1_556 S
C32 C28 1.397 . S
C32 C31 1.383 . S
H33 C38 0.929 . S
H34 C43 0.931 . S
H35 C41 0.930 . S
N36 N37 1.234 . S
N36 C40 1.453 . S
N37 N36 1.234 . S
C38 H33 0.929 . S
C38 C39 1.373 . S
C38 C40 1.368 . S
C39 C38 1.373 . S
C39 C43 1.397 . S
C40 N36 1.453 . S
C40 C38 1.368 . S
C40 C41 1.373 . S
C41 H35 0.930 . S
C41 C40 1.373 . S
C41 C42 1.371 . S
C42 C41 1.371 . S
C42 C43 1.383 . S
C43 H34 0.931 . S
C43 C39 1.397 . S
C43 C42 1.383 . S
H44 C49 0.929 . S
H45 C54 0.931 . S
H46 C52 0.930 . S
N47 N48 1.234 . S
N47 C51 1.453 . S
N48 N47 1.234 . S
C49 H44 0.929 . S
C49 C50 1.373 . S
C49 C51 1.368 . S
C50 C49 1.373 . S
C50 C54 1.397 . S
C51 N47 1.453 . S
C51 C49 1.368 . S
C51 C52 1.373 . S
C52 H46 0.930 . S
C52 C51 1.373 . S
C52 C53 1.371 . S
C53 C52 1.371 . S
C53 C54 1.383 . S
C54 H45 0.931 . S
C54 C50 1.397 . S
C54 C53 1.383 . S
H55 C60 0.929 . S
H56 C65 0.931 . S
H57 C63 0.930 . S
N58 N59 1.234 . S
N58 C62 1.453 . S
N59 N58 1.234 . S
C60 H55 0.929 . S
C60 C61 1.373 . S
C60 C62 1.368 . S
C61 C60 1.373 . S
C61 C65 1.397 . S
C62 N58 1.453 . S
C62 C60 1.368 . S
C62 C63 1.373 . S
C63 H57 0.930 . S
C63 C62 1.373 . S
C63 C64 1.371 . S
C64 C63 1.371 . S
C64 C65 1.383 . S
C65 H56 0.931 . S
C65 C61 1.397 . S
C65 C64 1.383 . S
H66 C71 0.929 . S
H67 C76 0.931 . S
H68 C74 0.930 . S
N69 N70 1.234 . S
N69 C73 1.453 . S
N70 N69 1.234 . S
C71 H66 0.929 . S
C71 C72 1.373 . S
C71 C73 1.368 . S
C72 C71 1.373 . S
C72 C76 1.397 . S
C73 N69 1.453 . S
C73 C71 1.368 . S
C73 C74 1.373 . S
C74 H68 0.930 . S
C74 C73 1.373 . S
C74 C75 1.371 . S
C75 C74 1.371 . S
C75 C76 1.383 . S
C76 H67 0.931 . S
C76 C72 1.397 . S
C76 C75 1.383 . S
H77 C82 0.929 . S
H78 C87 0.931 . S
H79 C85 0.930 . S
N80 N81 1.234 . S
N80 C84 1.453 . S
N81 N80 1.234 . S
C82 H77 0.929 . S
C82 C83 1.373 . S
C82 C84 1.368 . S
C83 C82 1.373 . S
C83 C87 1.397 . S
C84 N80 1.453 . S
C84 C82 1.368 . S
C84 C85 1.373 . S
C85 H79 0.930 . S
C85 C84 1.373 . S
C85 C86 1.371 . S
C86 C85 1.371 . S
C86 C87 1.383 . S
C87 H78 0.931 . S
C87 C83 1.397 . S
C87 C86 1.383 . S
Dy88 O92 2.398 . S
Dy88 O93 2.491 . S
Dy88 O94 2.403 . S
Dy88 O95 2.664 1_545 S
Dy88 O99 2.326 . S
Dy88 O103 2.310 1_455 S
Dy88 O104 2.351 1_445 S
C89 O100 1.185 . S
C89 O101 1.355 . S
C90 O92 1.185 . S
C90 O93 1.355 . S
Dy91 O95 2.310 1_645 S
Dy91 O98 2.351 1_655 S
Dy91 O100 2.398 1_545 S
Dy91 O101 2.491 1_545 S
Dy91 O102 2.403 . S
Dy91 O103 2.664 . S
Dy91 O105 2.326 1_545 S
O92 Dy88 2.398 . S
O92 C90 1.185 . S
O93 Dy88 2.491 . S
O93 C90 1.355 . S
O94 Dy88 2.403 . S
O94 C96 1.254 1_545 S
O95 Dy88 2.664 1_565 S
O95 Dy91 2.310 1_465 S
O95 C96 1.268 . S
C96 O94 1.254 1_565 S
C96 O95 1.268 . S
C97 O102 1.254 . S
C97 O103 1.268 . S
O98 Dy91 2.351 1_455 S
O98 C106 1.249 . S
O99 Dy88 2.326 . S
O99 C106 1.267 . S
O100 C89 1.185 . S
O100 Dy91 2.398 1_565 S
O101 C89 1.355 . S
O101 Dy91 2.491 1_565 S
O102 Dy91 2.403 . S
O102 C97 1.254 . S
O103 Dy88 2.310 1_655 S
O103 Dy91 2.664 . S
O103 C97 1.268 . S
O104 Dy88 2.351 1_665 S
O104 C107 1.249 . S
O105 Dy91 2.326 1_565 S
O105 C107 1.267 . S
C106 O98 1.249 . S
C106 O99 1.267 . S
C107 O104 1.249 . S
C107 O105 1.267 . S
Dy108 O112 2.398 . S
Dy108 O113 2.491 . S
Dy108 O114 2.403 1_545 S
Dy108 O115 2.664 1_545 S
Dy108 O119 2.326 . S
Dy108 O123 2.310 . S
Dy108 O124 2.351 1_545 S
C109 O120 1.185 . S
C109 O121 1.355 . S
C110 O112 1.185 . S
C110 O113 1.355 . S
Dy111 O115 2.310 1_546 S
Dy111 O118 2.351 1_556 S
Dy111 O120 2.398 1_545 S
Dy111 O121 2.491 1_545 S
Dy111 O122 2.403 . S
Dy111 O123 2.664 1_556 S
Dy111 O125 2.326 1_545 S
O112 Dy108 2.398 . S
O112 C110 1.185 . S
O113 Dy108 2.491 . S
O113 C110 1.355 . S
O114 Dy108 2.403 1_565 S
O114 C116 1.254 . S
O115 Dy108 2.664 1_565 S
O115 Dy111 2.310 1_564 S
O115 C116 1.268 . S
C116 O114 1.254 . S
C116 O115 1.268 . S
C117 O122 1.254 . S
C117 O123 1.268 1_556 S
O118 Dy111 2.351 1_554 S
O118 C126 1.249 . S
O119 Dy108 2.326 . S
O119 C126 1.267 . S
O120 C109 1.185 . S
O120 Dy111 2.398 1_565 S
O121 C109 1.355 . S
O121 Dy111 2.491 1_565 S
O122 Dy111 2.403 . S
O122 C117 1.254 . S
O123 Dy108 2.310 . S
O123 Dy111 2.664 1_554 S
O123 C117 1.268 1_554 S
O124 Dy108 2.351 1_565 S
O124 C127 1.249 1_554 S
O125 Dy111 2.326 1_565 S
O125 C127 1.267 . S
C126 O118 1.249 . S
C126 O119 1.267 . S
C127 O124 1.249 1_556 S
C127 O125 1.267 . S
Dy128 O132 2.398 . S
Dy128 O133 2.491 . S
Dy128 O134 2.403 . S
Dy128 O135 2.664 . S
Dy128 O139 2.326 . S
Dy128 O143 2.310 . S
Dy128 O144 2.351 . S
C129 O140 1.185 . S
C129 O141 1.355 . S
C130 O132 1.185 . S
C130 O133 1.355 . S
Dy131 O135 2.310 . S
Dy131 O138 2.351 . S
Dy131 O140 2.398 . S
Dy131 O141 2.491 . S
Dy131 O142 2.403 . S
Dy131 O143 2.664 . S
Dy131 O145 2.326 . S
O132 Dy128 2.398 . S
O132 C130 1.185 . S
O133 Dy128 2.491 . S
O133 C130 1.355 . S
O134 Dy128 2.403 . S
O134 C136 1.254 . S
O135 Dy128 2.664 . S
O135 Dy131 2.310 . S
O135 C136 1.268 . S
C136 O134 1.254 . S
C136 O135 1.268 . S
C137 O142 1.254 . S
C137 O143 1.268 . S
O138 Dy131 2.351 . S
O138 C146 1.249 . S
O139 Dy128 2.326 . S
O139 C146 1.267 . S
O140 C129 1.185 . S
O140 Dy131 2.398 . S
O141 C129 1.355 . S
O141 Dy131 2.491 . S
O142 Dy131 2.403 . S
O142 C137 1.254 . S
O143 Dy128 2.310 . S
O143 Dy131 2.664 . S
O143 C137 1.268 . S
O144 Dy128 2.351 . S
O144 C147 1.249 . S
O145 Dy131 2.326 . S
O145 C147 1.267 . S
C146 O138 1.249 . S
C146 O139 1.267 . S
C147 O144 1.249 . S
C147 O145 1.267 . S
Dy148 O152 2.398 . S
Dy148 O153 2.491 . S
Dy148 O154 2.403 1_455 S
Dy148 O155 2.664 1_455 S
Dy148 O159 2.326 . S
Dy148 O163 2.310 1_554 S
Dy148 O164 2.351 1_455 S
C149 O160 1.185 . S
C149 O161 1.355 . S
C150 O152 1.185 . S
C150 O153 1.355 . S
Dy151 O155 2.310 1_456 S
Dy151 O158 2.351 1_556 S
Dy151 O160 2.398 1_455 S
Dy151 O161 2.491 1_455 S
Dy151 O162 2.403 . S
Dy151 O163 2.664 . S
Dy151 O165 2.326 1_455 S
O152 Dy148 2.398 . S
O152 C150 1.185 . S
O153 Dy148 2.491 . S
O153 C150 1.355 . S
O154 Dy148 2.403 1_655 S
O154 C156 1.254 . S
O155 Dy148 2.664 1_655 S
O155 Dy151 2.310 1_654 S
O155 C156 1.268 . S
C156 O154 1.254 . S
C156 O155 1.268 . S
C157 O162 1.254 . S
C157 O163 1.268 . S
O158 Dy151 2.351 1_554 S
O158 C166 1.249 . S
O159 Dy148 2.326 . S
O159 C166 1.267 . S
O160 C149 1.185 . S
O160 Dy151 2.398 1_655 S
O161 C149 1.355 . S
O161 Dy151 2.491 1_655 S
O162 Dy151 2.403 . S
O162 C157 1.254 . S
O163 Dy148 2.310 1_556 S
O163 Dy151 2.664 . S
O163 C157 1.268 . S
O164 Dy148 2.351 1_655 S
O164 C167 1.249 1_554 S
O165 Dy151 2.326 1_655 S
O165 C167 1.267 . S
C166 O158 1.249 . S
C166 O159 1.267 . S
C167 O164 1.249 1_556 S
C167 O165 1.267 . S
C6 C90 1.597 . S
C20 C109 1.459 . S
C146 N26 1.677 . S
N37 C156 1.906 . S
C126 C9 2.428 . S
C96 N15 0.882 . S
C167 C31 1.885 . S
C137 C39 1.702 . S
N4 C150 1.818 . S
C117 C28 2.196 . S
C42 C107 1.877 . S
C17 C129 1.248 . S
C89 C50 1.419 . S
C61 C110 1.494 . S
N70 C147 2.033 . S
N81 C157 1.836 . S
N48 C127 2.168 . S
C97 C64 1.648 . S
C166 C75 1.594 . S
C136 C86 1.567 . S
C53 C149 1.976 . S
C116 C72 1.664 . S
C106 C83 2.240 . S
N59 C130 1.587 . S
