# Generated by pormake.
# Topology pts, (4,4)-cn, num edge types: 1
# Building blocks:
#     Node 0, Type 0, BuildingBlock: KUFVIS_clean_linker_0, # of connection points: 4
#     Node 1, Type 0, BuildingBlock: KUFVIS_clean_linker_0, # of connection points: 4
#     Node 2, Type 1, BuildingBlock: AZAVOO_clean_sbu_0, # of connection points: 4
#     Node 3, Type 1, BuildingBlock: AZAVOO_clean_sbu_0, # of connection points: 4
#     Edge 4, Type (0, 1), BuildingBlock: XIVTED_clean_linker_0, # of connection points: 2
#     Edge 5, Type (0, 1), BuildingBlock: XIVTED_clean_linker_0, # of connection points: 2
#     Edge 6, Type (0, 1), BuildingBlock: XIVTED_clean_linker_0, # of connection points: 2
#     Edge 7, Type (0, 1), BuildingBlock: XIVTED_clean_linker_0, # of connection points: 2
#     Edge 8, Type (0, 1), BuildingBlock: XIVTED_clean_linker_0, # of connection points: 2
#     Edge 9, Type (0, 1), BuildingBlock: XIVTED_clean_linker_0, # of connection points: 2
#     Edge 10, Type (0, 1), BuildingBlock: XIVTED_clean_linker_0, # of connection points: 2
#     Edge 11, Type (0, 1), BuildingBlock: XIVTED_clean_linker_0, # of connection points: 2
# Relax obj value: 0.013
# Max RMSD: 0.077
# Mean RMSD: 0.073
data_MOF--net-pts--node1-AZAVOO_clean_sbu_0--node2-KUFVIS_clean_linker_0--edge1-XIVTED_clean_linker_0
_symmetry_space_group_name_H-M    P1
_symmetry_Int_Tables_number       1
_symmetry_cell_setting            triclinic
loop_
_symmetry_equiv_pos_as_xyz
'x, y, z'
_cell_length_a     23.354197
_cell_length_b     25.460941
_cell_length_c     37.887477
_cell_angle_alpha  89.49118
_cell_angle_beta   95.882297
_cell_angle_gamma 85.502516
loop_
_atom_site_label
_atom_site_type_symbol
_atom_site_fract_x
_atom_site_fract_y
_atom_site_fract_z
_atom_type_partial_charge
H0 H 0.36787 0.06448 -0.04902 0.0
H1 H 0.5183 0.03748 0.89569 0.0
H2 H 0.53343 0.09446 0.003 0.0
H3 H 0.6205 0.05148 0.00437 0.0
H4 H 0.76487 0.0667 0.9449 0.0
H5 H 0.59371 0.08524 0.89151 0.0
C6 C 0.41407 0.06506 -0.04959 0.0
C7 C 0.44811 0.07921 -0.01902 0.0
C8 C 0.43884 0.05112 0.91928 0.0
C9 C 0.49905 0.05098 0.91911 0.0
C10 C 0.53435 0.06673 -0.05097 0.0
C11 C 0.50793 0.08108 -0.02016 0.0
C12 C 0.59844 0.06774 -0.05194 0.0
C13 C 0.63685 0.05927 -0.02069 0.0
C14 C 0.69678 0.06082 -0.02146 0.0
C15 C 0.71854 0.06859 -0.05404 0.0
C16 C 0.68175 0.07673 0.91451 0.0
C17 C 0.62182 0.07702 0.91578 0.0
H18 H 0.12073 0.70336 0.44078 0.0
H19 H 0.06596 0.57455 0.49833 0.0
H20 H 0.08976 0.56046 0.38666 0.0
H21 H 1.03496 0.49695 0.38687 0.0
H22 H 1.0107 0.35973 0.4476 0.0
H23 H 0.08143 0.4904 0.50085 0.0
C24 C 0.11007 0.6627 0.44169 0.0
C25 C 0.10572 0.63413 0.41035 0.0
C26 C 0.09671 0.64089 0.47357 0.0
C27 C 0.07871 0.58957 0.47382 0.0
C28 C 0.07665 0.5586 0.4429 0.0
C29 C 0.09046 0.58198 0.41112 0.0
C30 C 0.05895 0.50296 0.44388 0.0
C31 C 1.03859 0.47739 0.4125 0.0
C32 C 1.02219 0.42558 0.41368 0.0
C33 C 1.02267 0.39999 0.44654 0.0
C34 C 1.04299 0.42392 0.47788 0.0
C35 C 0.06279 0.47435 0.47639 0.0
Mg36 Mg 0.12289 0.02509 0.22773 0.0
O37 O 1.04018 1.01864 0.18966 0.0
O38 O 0.97067 0.99617 0.22209 0.0
Mg39 Mg 1.00781 0.98887 0.28016 0.0
C40 C 0.98822 1.0077 0.19236 0.0
C41 C 0.22284 0.05691 0.18884 0.0
O42 O 0.24783 0.03199 0.21756 0.0
O43 O 0.08462 0.10415 0.24637 0.0
O44 O 1.01786 0.07816 0.2796 0.0
O45 O 0.14995 0.93925 0.22332 0.0
O46 O 0.09366 0.97204 0.2625 0.0
C47 C 1.04497 0.1144 0.26675 0.0
C48 C 0.11839 0.93136 0.24871 0.0
O49 O 0.168 0.06347 0.18466 0.0
Mg50 Mg 1.02078 1.01653 0.66921 0.0
O51 O 0.10442 1.01055 0.70789 0.0
O52 O 0.17829 1.00122 0.67462 0.0
Mg53 Mg 0.1436 0.99822 0.61637 0.0
C54 C 0.15863 1.00564 0.70477 0.0
C55 C 0.9137 0.03501 0.7087 0.0
O56 O 0.89546 1.00911 0.68043 0.0
O57 O 1.03758 0.10022 0.65318 0.0
O58 O 0.11022 0.08511 0.61947 0.0
O59 O 1.01632 0.92908 0.6702 0.0
O60 O 0.06264 0.97183 0.63249 0.0
C61 C 0.07382 0.11654 0.63337 0.0
C62 C 0.0485 0.92759 0.6443 0.0
O63 O 0.96619 0.04591 0.71271 0.0
H64 H 0.4897 0.04629 0.04853 0.0
H65 H 0.18629 0.10682 0.1249 0.0
H66 H 0.34394 0.13337 -0.01021 0.0
H67 H 0.33978 0.04057 0.18802 0.0
H68 H 0.24476 0.12267 0.07641 0.0
H69 H 0.43798 0.0506 0.1014 0.0
C70 C 0.44726 0.06719 0.04687 0.0
C71 C 0.42089 0.08885 0.01446 0.0
C72 C 0.26574 0.10517 0.10101 0.0
C73 C 0.36076 0.0929 0.07483 0.0
C74 C 0.23233 0.09608 0.12871 0.0
C75 C 0.25802 0.07185 0.16048 0.0
C76 C 0.32518 0.08955 0.105 0.0
C77 C 0.31796 0.05899 0.16394 0.0
C78 C 0.41751 0.06929 0.07705 0.0
C79 C 0.36548 0.11498 0.01395 0.0
N80 N 0.34934 0.0675 0.13645 0.0
N81 N 0.33702 0.11571 0.04351 0.0
H82 H 0.13889 0.39849 0.52416 0.0
H83 H 0.97998 0.1889 0.62949 0.0
H84 H 0.95645 0.37931 0.50721 0.0
H85 H 0.16067 0.17199 0.61326 0.0
H86 H 0.97221 0.27639 0.60094 0.0
H87 H 0.14769 0.33336 0.57302 0.0
C88 C 0.10051 0.38158 0.53142 0.0
C89 C 0.047 0.39363 0.51161 0.0
C90 C 1.01376 0.25384 0.60432 0.0
C91 C 0.05663 0.31947 0.56697 0.0
C92 C 1.0183 0.20411 0.62073 0.0
C93 C 0.07082 0.17288 0.62314 0.0
C94 C 0.06225 0.27252 0.59071 0.0
C95 C 0.11912 0.19447 0.61135 0.0
C96 C 0.10555 0.34431 0.55907 0.0
C97 C 0.99853 0.37048 0.52176 0.0
N98 N 0.11356 0.24277 0.59533 0.0
N99 N 1.00455 0.33408 0.54857 0.0
H100 H 0.79164 0.1149 -0.00311 0.0
H101 H 0.88085 0.97013 0.18397 0.0
H102 H 0.69542 0.9919 0.03512 0.0
H103 H 0.99813 0.05475 0.12815 0.0
H104 H 0.80852 0.98277 0.13253 0.0
H105 H 0.86305 0.09959 0.04816 0.0
C106 C 0.78556 0.08449 0.01602 0.0
C107 C 0.73769 0.05416 0.01136 0.0
C108 C 0.85021 0.99827 0.13152 0.0
C109 C 0.81925 0.03702 0.07063 0.0
C110 C 0.89155 0.99114 0.16086 0.0
C111 C 0.94572 1.01151 0.16044 0.0
C112 C 0.86277 0.02658 0.10171 0.0
C113 C 0.95712 0.03822 0.12968 0.0
C114 C 0.82639 0.07586 0.04534 0.0
C115 C 0.73141 1.01639 0.03765 0.0
N116 N 0.91585 0.04532 0.10169 0.0
N117 N 0.77182 1.00881 0.06617 0.0
H118 H 0.18039 0.70457 0.49807 0.0
H119 H 1.0008 0.8332 0.64868 0.0
H120 H 1.01755 0.6519 0.52258 0.0
H121 H 0.13398 0.90789 0.60075 0.0
H122 H 1.01978 0.75492 0.6131 0.0
H123 H 0.1769 0.76744 0.54622 0.0
C124 C 0.1441 0.70596 0.51379 0.0
C125 C 0.09872 0.67354 0.50591 0.0
C126 C 1.04529 0.78829 0.6108 0.0
C127 C 0.09464 0.74523 0.56123 0.0
C128 C 1.03472 0.83284 0.63119 0.0
C129 C 0.06541 0.87746 0.62736 0.0
C130 C 0.08726 0.7883 0.58678 0.0
C131 C 0.10876 0.87485 0.60428 0.0
C132 C 0.14222 0.74174 0.54131 0.0
C133 C 0.05345 0.67613 0.52771 0.0
N134 N 0.11814 0.8312 0.58474 0.0
N135 N 0.05221 0.71185 0.55417 0.0
H136 H 0.45008 0.07654 0.84983 0.0
H137 H 0.13944 0.99512 0.77488 0.0
H138 H 0.34134 0.99599 0.91452 0.0
H139 H 0.27369 1.02021 0.70762 0.0
H140 H 0.20991 1.00114 0.82702 0.0
H141 H 0.38375 0.06087 0.7976 0.0
C142 C 0.41274 0.055 0.85309 0.0
C143 C 0.40128 0.03799 0.88685 0.0
C144 C 0.22386 1.00497 0.80079 0.0
C145 C 0.32425 1.02113 0.82708 0.0
C146 C 0.18365 1.00174 0.77104 0.0
C147 C 0.20058 1.00721 0.73679 0.0
C148 C 0.28112 1.01455 0.79624 0.0
C149 C 0.25859 1.01559 0.73346 0.0
C150 C 0.37465 0.04637 0.82323 0.0
C151 C 0.35143 1.01101 0.88927 0.0
N152 N 0.29658 1.01942 0.76277 0.0
N153 N 0.31452 1.00388 0.85988 0.0
H154 H 0.93132 0.36652 0.3952 0.0
H155 H 0.10728 0.20053 0.25906 0.0
H156 H 0.08916 0.4131 0.35892 0.0
H157 H 0.95286 0.15363 0.30011 0.0
H158 H 0.09122 0.28722 0.28548 0.0
H159 H 0.92738 0.2986 0.35008 0.0
C160 C 0.9644 0.36318 0.37709 0.0
C161 C 1.01095 0.39494 0.38098 0.0
C162 C 0.06044 0.25816 0.28824 0.0
C163 C 1.00771 0.3165 0.32986 0.0
C164 C 0.06955 0.20865 0.27313 0.0
C165 C 1.03197 0.16933 0.27793 0.0
C166 C 1.0134 0.26837 0.30822 0.0
C167 C 0.98362 0.18229 0.29626 0.0
C168 C 0.96236 0.32426 0.35144 0.0
C169 C 0.05253 0.38933 0.35675 0.0
N170 N 0.97614 0.23039 0.31102 0.0
N171 N 0.05058 0.35006 0.33264 0.0
H172 H 0.77033 0.13564 0.90066 0.0
H173 H 0.80254 1.00906 0.71052 0.0
H174 H 0.65223 0.02971 0.85101 0.0
H175 H 0.93466 0.09223 0.76912 0.0
H176 H 0.73972 0.02759 0.75736 0.0
H177 H 0.82271 0.13227 0.84805 0.0
C178 C 0.75509 0.11205 0.87851 0.0
C179 C 0.70733 0.08226 0.88045 0.0
C180 C 0.78231 0.04205 0.75987 0.0
C181 C 0.76717 0.07824 0.82007 0.0
C182 C 0.81828 0.03152 0.73313 0.0
C183 C 0.87424 0.04874 0.73602 0.0
C184 C 0.80226 0.07021 0.78974 0.0
C185 C 0.89206 0.07785 0.76588 0.0
C186 C 0.78504 0.11014 0.84849 0.0
C187 C 0.68878 0.05329 0.85066 0.0
N188 N 0.85628 0.08746 0.79164 0.0
N189 N 0.71913 0.05154 0.82184 0.0
H190 H 1.02495 0.64831 0.35334 0.0
H191 H 1.02307 0.89221 0.27193 0.0
H192 H 0.1972 0.68492 0.39169 0.0
H193 H 0.20134 0.84975 0.25738 0.0
H194 H 1.01911 0.80798 0.30278 0.0
H195 H 1.02482 0.71251 0.30454 0.0
C196 C 0.06332 0.66878 0.35081 0.0
C197 C 0.11102 0.66184 0.37653 0.0
C198 C 0.05867 0.81646 0.29203 0.0
C199 C 0.11077 0.73551 0.3216 0.0
C200 C 0.06111 0.86478 0.27484 0.0
C201 C 0.11271 0.87792 0.26243 0.0
C202 C 0.10861 0.78166 0.29751 0.0
C203 C 0.1607 0.84083 0.26653 0.0
C204 C 0.06294 0.70576 0.32333 0.0
C205 C 0.15953 0.68958 0.37239 0.0
N206 N 0.15796 0.7948 0.28456 0.0
N207 N 0.15806 0.72556 0.34555 0.0
loop_
_geom_bond_atom_site_label_1
_geom_bond_atom_site_label_2
_geom_bond_distance
_geom_bond_site_symmetry_2
_ccdc_geom_bond_type
H0 C6 0.931 . S
H1 C9 0.931 . S
H2 C11 0.930 1_565 S
H3 C13 0.930 . S
H4 C15 0.930 . S
H5 C17 0.931 1_565 S
C6 H0 0.931 . S
C6 C7 1.375 1_556 S
C6 C8 1.402 . S
C7 C6 1.375 1_554 S
C7 C11 1.383 . S
C8 C6 1.402 . S
C8 C9 1.400 . S
C9 H1 0.931 . S
C9 C8 1.400 . S
C9 C10 1.367 1_556 S
C10 C9 1.367 1_554 S
C10 C11 1.424 . S
C10 C12 1.500 . S
C11 H2 0.930 1_545 S
C11 C7 1.383 . S
C11 C10 1.424 . S
C12 C10 1.500 . S
C12 C13 1.384 . S
C12 C17 1.408 1_554 S
C13 H3 0.930 . S
C13 C12 1.384 . S
C13 C14 1.389 . S
C14 C13 1.389 . S
C14 C15 1.405 . S
C15 H4 0.930 . S
C15 C14 1.405 . S
C15 C16 1.364 1_554 S
C16 C15 1.364 1_556 S
C16 C17 1.400 . S
C17 H5 0.931 1_545 S
C17 C12 1.408 1_556 S
C17 C16 1.400 . S
H18 C24 0.930 . S
H19 C27 0.926 1_655 S
H20 C29 0.931 . S
H21 C31 0.930 . S
H22 C33 0.930 . S
H23 C35 0.931 . S
C24 H18 0.930 . S
C24 C25 1.380 . S
C24 C26 1.394 . S
C25 C24 1.380 . S
C25 C29 1.382 . S
C26 C24 1.394 . S
C26 C27 1.400 . S
C27 H19 0.926 1_455 S
C27 C26 1.400 . S
C27 C28 1.375 . S
C28 C27 1.375 . S
C28 C29 1.415 . S
C28 C30 1.501 . S
C29 H20 0.931 . S
C29 C25 1.382 . S
C29 C28 1.415 . S
C30 C28 1.501 . S
C30 C31 1.384 . S
C30 C35 1.408 . S
C31 H21 0.930 . S
C31 C30 1.384 . S
C31 C32 1.389 . S
C32 C31 1.389 . S
C32 C33 1.405 . S
C33 H22 0.930 . S
C33 C32 1.405 . S
C33 C34 1.364 . S
C34 C33 1.364 . S
C34 C35 1.400 . S
C35 H23 0.931 . S
C35 C30 1.408 . S
C35 C34 1.400 . S
Mg36 O37 2.028 . S
Mg36 O43 1.986 . S
Mg36 O45 2.114 1_545 S
Mg36 O46 2.251 1_545 S
Mg36 O49 2.010 . S
O37 Mg36 2.028 . S
O37 C40 1.250 1_455 S
O38 Mg39 2.028 . S
O38 C40 1.248 . S
Mg39 O38 2.028 . S
Mg39 O44 2.032 . S
Mg39 O46 2.079 1_645 S
C40 O37 1.250 1_655 S
C40 O38 1.248 . S
C41 O42 1.264 . S
C41 O49 1.249 . S
O42 C41 1.264 . S
O43 Mg36 1.986 . S
O43 C47 1.246 . S
O44 Mg39 2.032 . S
O44 C47 1.259 1_655 S
O45 Mg36 2.114 1_565 S
O45 C48 1.252 . S
O46 Mg36 2.251 1_565 S
O46 Mg39 2.079 1_465 S
O46 C48 1.273 . S
C47 O43 1.246 . S
C47 O44 1.259 1_455 S
C48 O45 1.252 . S
C48 O46 1.273 . S
O49 Mg36 2.010 . S
O49 C41 1.249 . S
Mg50 O51 2.028 1_655 S
Mg50 O57 1.986 . S
Mg50 O59 2.114 1_545 S
Mg50 O60 2.251 1_645 S
Mg50 O63 2.010 . S
O51 Mg50 2.028 1_455 S
O51 C54 1.250 . S
O52 Mg53 2.028 . S
O52 C54 1.248 . S
Mg53 O52 2.028 . S
Mg53 O58 2.032 . S
Mg53 O60 2.079 1_545 S
C54 O51 1.250 . S
C54 O52 1.248 . S
C55 O56 1.264 . S
C55 O63 1.249 . S
O56 C55 1.264 . S
O57 Mg50 1.986 . S
O57 C61 1.246 1_655 S
O58 Mg53 2.032 . S
O58 C61 1.259 . S
O59 Mg50 2.114 1_565 S
O59 C62 1.252 1_655 S
O60 Mg50 2.251 1_465 S
O60 Mg53 2.079 1_565 S
O60 C62 1.273 . S
C61 O57 1.246 1_455 S
C61 O58 1.259 . S
C62 O59 1.252 1_455 S
C62 O60 1.273 . S
O63 Mg50 2.010 . S
O63 C55 1.249 . S
H64 C70 0.930 . S
H65 C74 0.930 . S
H66 C79 0.929 . S
H67 C77 0.929 . S
H68 C72 0.929 . S
H69 C78 0.929 . S
C70 H64 0.930 . S
C70 C71 1.367 . S
C70 C78 1.378 . S
C71 C70 1.367 . S
C71 C79 1.433 1_565 S
C72 H68 0.929 . S
C72 C74 1.378 . S
C72 C76 1.350 . S
C73 C76 1.463 . S
C73 C78 1.350 1_545 S
C73 N81 1.427 . S
C74 H65 0.930 . S
C74 C72 1.378 . S
C74 C75 1.367 . S
C75 C74 1.367 . S
C75 C77 1.433 1_545 S
C76 C72 1.350 . S
C76 C73 1.463 . S
C76 N80 1.427 1_545 S
C77 H67 0.929 . S
C77 C75 1.433 1_565 S
C77 N80 1.384 . S
C78 H69 0.929 . S
C78 C70 1.378 . S
C78 C73 1.350 1_565 S
C79 H66 0.929 . S
C79 C71 1.433 1_545 S
C79 N81 1.384 . S
N80 C76 1.427 1_565 S
N80 C77 1.384 . S
N81 C73 1.427 . S
N81 C79 1.384 . S
H82 C88 0.930 . S
H83 C92 0.930 . S
H84 C97 0.929 . S
H85 C95 0.929 . S
H86 C90 0.929 1_655 S
H87 C96 0.929 . S
C88 H82 0.930 . S
C88 C89 1.367 . S
C88 C96 1.378 . S
C89 C88 1.367 . S
C89 C97 1.433 . S
C90 H86 0.929 1_455 S
C90 C92 1.378 1_455 S
C90 C94 1.350 . S
C91 C94 1.463 . S
C91 C96 1.350 . S
C91 N99 1.427 . S
C92 H83 0.930 . S
C92 C90 1.378 1_655 S
C92 C93 1.367 1_655 S
C93 C92 1.367 1_455 S
C93 C95 1.433 . S
C94 C90 1.350 . S
C94 C91 1.463 . S
C94 N98 1.427 . S
C95 H85 0.929 . S
C95 C93 1.433 . S
C95 N98 1.384 . S
C96 H87 0.929 . S
C96 C88 1.378 . S
C96 C91 1.350 . S
C97 H84 0.929 . S
C97 C89 1.433 . S
C97 N99 1.384 . S
N98 C94 1.427 . S
N98 C95 1.384 . S
N99 C91 1.427 . S
N99 C97 1.384 . S
H100 C106 0.930 . S
H101 C110 0.930 . S
H102 C115 0.929 . S
H103 C113 0.929 . S
H104 C108 0.929 . S
H105 C114 0.929 . S
C106 H100 0.930 . S
C106 C107 1.367 . S
C106 C114 1.378 . S
C107 C106 1.367 . S
C107 C115 1.433 1_545 S
C108 H104 0.929 . S
C108 C110 1.378 . S
C108 C112 1.350 1_565 S
C109 C112 1.463 . S
C109 C114 1.350 . S
C109 N117 1.427 1_545 S
C110 H101 0.930 . S
C110 C108 1.378 . S
C110 C111 1.367 1_565 S
C111 C110 1.367 1_545 S
C111 C113 1.433 . S
C112 C108 1.350 1_545 S
C112 C109 1.463 . S
C112 N116 1.427 . S
C113 H103 0.929 . S
C113 C111 1.433 . S
C113 N116 1.384 . S
C114 H105 0.929 . S
C114 C106 1.378 . S
C114 C109 1.350 . S
C115 H102 0.929 . S
C115 C107 1.433 1_565 S
C115 N117 1.384 . S
N116 C112 1.427 . S
N116 C113 1.384 . S
N117 C109 1.427 1_565 S
N117 C115 1.384 . S
H118 C124 0.930 . S
H119 C128 0.930 . S
H120 C133 0.929 . S
H121 C131 0.929 . S
H122 C126 0.929 . S
H123 C132 0.929 . S
C124 H118 0.930 . S
C124 C125 1.367 . S
C124 C132 1.378 . S
C125 C124 1.367 . S
C125 C133 1.433 1_455 S
C126 H122 0.929 . S
C126 C128 1.378 . S
C126 C130 1.350 1_655 S
C127 C130 1.463 . S
C127 C132 1.350 . S
C127 N135 1.427 1_455 S
C128 H119 0.930 . S
C128 C126 1.378 . S
C128 C129 1.367 1_655 S
C129 C128 1.367 1_455 S
C129 C131 1.433 . S
C130 C126 1.350 1_455 S
C130 C127 1.463 . S
C130 N134 1.427 . S
C131 H121 0.929 . S
C131 C129 1.433 . S
C131 N134 1.384 . S
C132 H123 0.929 . S
C132 C124 1.378 . S
C132 C127 1.350 . S
C133 H120 0.929 . S
C133 C125 1.433 1_655 S
C133 N135 1.384 . S
N134 C130 1.427 . S
N134 C131 1.384 . S
N135 C127 1.427 1_655 S
N135 C133 1.384 . S
H136 C142 0.930 . S
H137 C146 0.930 . S
H138 C151 0.929 . S
H139 C149 0.929 . S
H140 C144 0.929 . S
H141 C150 0.929 . S
C142 H136 0.930 . S
C142 C143 1.367 . S
C142 C150 1.378 . S
C143 C142 1.367 . S
C143 C151 1.433 1_545 S
C144 H140 0.929 . S
C144 C146 1.378 . S
C144 C148 1.350 1_565 S
C145 C148 1.463 . S
C145 C150 1.350 . S
C145 N153 1.427 1_545 S
C146 H137 0.930 . S
C146 C144 1.378 . S
C146 C147 1.367 1_565 S
C147 C146 1.367 1_545 S
C147 C149 1.433 . S
C148 C144 1.350 1_545 S
C148 C145 1.463 . S
C148 N152 1.427 . S
C149 H139 0.929 . S
C149 C147 1.433 . S
C149 N152 1.384 . S
C150 H141 0.929 . S
C150 C142 1.378 . S
C150 C145 1.350 . S
C151 H138 0.929 . S
C151 C143 1.433 1_565 S
C151 N153 1.384 . S
N152 C148 1.427 . S
N152 C149 1.384 . S
N153 C145 1.427 1_565 S
N153 C151 1.384 . S
H154 C160 0.930 . S
H155 C164 0.930 . S
H156 C169 0.929 . S
H157 C167 0.929 . S
H158 C162 0.929 . S
H159 C168 0.929 . S
C160 H154 0.930 . S
C160 C161 1.367 . S
C160 C168 1.378 . S
C161 C160 1.367 . S
C161 C169 1.433 . S
C162 H158 0.929 . S
C162 C164 1.378 . S
C162 C166 1.350 . S
C163 C166 1.463 . S
C163 C168 1.350 . S
C163 N171 1.427 . S
C164 H155 0.930 . S
C164 C162 1.378 . S
C164 C165 1.367 . S
C165 C164 1.367 . S
C165 C167 1.433 . S
C166 C162 1.350 . S
C166 C163 1.463 . S
C166 N170 1.427 . S
C167 H157 0.929 . S
C167 C165 1.433 . S
C167 N170 1.384 . S
C168 H159 0.929 . S
C168 C160 1.378 . S
C168 C163 1.350 . S
C169 H156 0.929 . S
C169 C161 1.433 . S
C169 N171 1.384 . S
N170 C166 1.427 . S
N170 C167 1.384 . S
N171 C163 1.427 . S
N171 C169 1.384 . S
H172 C178 0.930 . S
H173 C182 0.930 . S
H174 C187 0.929 . S
H175 C185 0.929 . S
H176 C180 0.929 . S
H177 C186 0.929 . S
C178 H172 0.930 . S
C178 C179 1.387 . S
C178 C186 1.378 . S
C179 C178 1.387 . S
C179 C187 1.414 1_545 S
C180 H176 0.929 . S
C180 C182 1.378 . S
C180 C184 1.350 1_565 S
C181 C184 1.463 . S
C181 C186 1.350 . S
C181 N189 1.427 1_545 S
C182 H173 0.930 . S
C182 C180 1.378 . S
C182 C183 1.367 1_565 S
C183 C182 1.367 1_545 S
C183 C185 1.433 . S
C184 C180 1.350 1_545 S
C184 C181 1.463 . S
C184 N188 1.427 . S
C185 H175 0.929 . S
C185 C183 1.433 . S
C185 N188 1.384 . S
C186 H177 0.929 . S
C186 C178 1.378 . S
C186 C181 1.350 . S
C187 H174 0.929 . S
C187 C179 1.414 1_565 S
C187 N189 1.384 . S
N188 C184 1.427 . S
N188 C185 1.384 . S
N189 C181 1.427 1_565 S
N189 C187 1.384 . S
H190 C196 0.930 . S
H191 C200 0.930 . S
H192 C205 0.929 . S
H193 C203 0.929 . S
H194 C198 0.929 . S
H195 C204 0.929 . S
C196 H190 0.930 . S
C196 C197 1.367 . S
C196 C204 1.378 . S
C197 C196 1.367 . S
C197 C205 1.433 . S
C198 H194 0.929 . S
C198 C200 1.378 . S
C198 C202 1.350 . S
C199 C202 1.463 . S
C199 C204 1.350 . S
C199 N207 1.427 . S
C200 H191 0.930 . S
C200 C198 1.378 . S
C200 C201 1.367 . S
C201 C200 1.367 . S
C201 C203 1.433 . S
C202 C198 1.350 . S
C202 C199 1.463 . S
C202 N206 1.427 . S
C203 H193 0.929 . S
C203 C201 1.433 . S
C203 N206 1.384 . S
C204 H195 0.929 . S
C204 C196 1.378 . S
C204 C199 1.350 . S
C205 H192 0.929 . S
C205 C197 1.433 . S
C205 N207 1.384 . S
N206 C202 1.427 . S
N206 C203 1.384 . S
N207 C199 1.427 . S
N207 C205 1.384 . S
C75 C41 1.282 . S
C71 C7 1.512 1_565 S
C93 C61 1.518 . S
C89 C34 1.500 . S
C111 C40 1.491 . S
C107 C14 1.501 . S
C129 C62 1.544 . S
C125 C26 1.501 . S
C147 C54 1.486 . S
C143 C8 1.498 . S
C165 C47 1.527 . S
C161 C32 1.497 . S
C183 C55 1.274 . S
C179 C16 1.502 . S
C197 C25 1.507 . S
C201 C48 1.551 . S
