# Generated by pormake.
# Topology pts, (4,4)-cn, num edge types: 1
# Building blocks:
#     Node 0, Type 0, BuildingBlock: NAWXER_clean_linker_0, # of connection points: 4
#     Node 1, Type 0, BuildingBlock: NAWXER_clean_linker_0, # of connection points: 4
#     Node 2, Type 1, BuildingBlock: QUQFOY_clean_sbu_1, # of connection points: 4
#     Node 3, Type 1, BuildingBlock: QUQFOY_clean_sbu_1, # of connection points: 4
#     Edge 4, Type (0, 1), BuildingBlock: EZIPEK_clean_linker_0, # of connection points: 2
#     Edge 5, Type (0, 1), BuildingBlock: EZIPEK_clean_linker_0, # of connection points: 2
#     Edge 6, Type (0, 1), BuildingBlock: EZIPEK_clean_linker_0, # of connection points: 2
#     Edge 7, Type (0, 1), BuildingBlock: EZIPEK_clean_linker_0, # of connection points: 2
#     Edge 8, Type (0, 1), BuildingBlock: EZIPEK_clean_linker_0, # of connection points: 2
#     Edge 9, Type (0, 1), BuildingBlock: EZIPEK_clean_linker_0, # of connection points: 2
#     Edge 10, Type (0, 1), BuildingBlock: EZIPEK_clean_linker_0, # of connection points: 2
#     Edge 11, Type (0, 1), BuildingBlock: EZIPEK_clean_linker_0, # of connection points: 2
# Relax obj value: 0.094
# Max RMSD: 0.251
# Mean RMSD: 0.144
data_MOF--net-pts--node1-QUQFOY_clean_sbu_1--node2-NAWXER_clean_linker_0--edge1-EZIPEK_clean_linker_0
_symmetry_space_group_name_H-M    P1
_symmetry_Int_Tables_number       1
_symmetry_cell_setting            triclinic
loop_
_symmetry_equiv_pos_as_xyz
'x, y, z'
_cell_length_a     22.076656
_cell_length_b     24.00993
_cell_length_c     34.546762
_cell_angle_alpha  90.157057
_cell_angle_beta   89.893616
_cell_angle_gamma 90.1324
loop_
_atom_site_label
_atom_site_type_symbol
_atom_site_fract_x
_atom_site_fract_y
_atom_site_fract_z
_atom_type_partial_charge
C0 C 0.68848 0.02605 0.94373 0.0
C1 C 0.68861 0.98889 0.91236 0.0
C2 C 0.64075 0.02544 0.97032 0.0
C3 C 0.593 0.98708 0.96609 0.0
C4 C 0.6414 0.95027 0.90821 0.0
C5 C 0.59379 0.94954 0.93482 0.0
C6 C 0.53863 0.99024 0.99096 0.0
C7 C 0.68839 0.94593 0.07439 0.0
C8 C 0.69536 0.98362 0.10516 0.0
C9 C 0.63862 0.95037 0.0496 0.0
C10 C 0.59588 0.99304 0.05509 0.0
C11 C 0.65287 0.02608 0.11069 0.0
C12 C 0.60346 0.03069 0.08591 0.0
C13 C 0.5402 0.99621 0.03154 0.0
C14 C 0.2748 0.99384 0.07765 0.0
C15 C 0.28363 0.02134 0.11318 0.0
C16 C 0.32226 0.98911 0.051 0.0
C17 C 0.37849 0.01481 0.05828 0.0
C18 C 0.3397 0.04649 0.12071 0.0
C19 C 0.38608 0.04419 0.09332 0.0
C20 C 0.43234 0.00665 0.03285 0.0
C21 C 0.2925 0.05555 0.94131 0.0
C22 C 0.2805 0.012 0.91518 0.0
C23 C 0.34015 0.051 0.96774 0.0
C24 C 0.37612 1.00287 0.96816 0.0
C25 C 0.31593 0.9637 0.91604 0.0
C26 C 0.36372 0.95938 0.94212 0.0
C27 C 0.43095 0.99964 0.99217 0.0
H28 H 0.72467 0.05622 0.94713 0.0
H29 H 0.64024 0.0561 0.99336 0.0
H30 H 0.64108 0.92133 0.8841 0.0
H31 H 0.55703 0.92015 0.93069 0.0
H32 H 0.72096 0.91284 0.06995 0.0
H33 H 0.63284 0.91975 0.02682 0.0
H34 H 0.6579 0.05549 0.13432 0.0
H35 H 0.57084 0.06358 0.09096 0.0
H36 H 0.23199 0.97359 0.07141 0.0
H37 H 0.31513 0.96328 0.02577 0.0
H38 H 0.34782 0.06744 0.14804 0.0
H39 H 0.4288 0.06415 0.10021 0.0
H40 H 0.26546 0.09313 0.94087 0.0
H41 H 0.34992 0.08546 0.98707 0.0
H42 H 0.30713 0.92978 0.89606 0.0
H43 H 0.39154 0.92225 0.94173 0.0
N44 N 0.48403 0.99167 0.97308 0.0
N45 N 0.48715 0.00435 0.05059 0.0
C46 C 0.02791 0.66381 0.604 0.0
C47 C 0.98224 0.70407 0.60089 0.0
C48 C 0.02591 0.61563 0.5812 0.0
C49 C 0.97851 0.60728 0.55477 0.0
C50 C 0.93485 0.69589 0.57447 0.0
C51 C 0.93275 0.64764 0.55179 0.0
C52 C 0.97596 0.55533 0.53166 0.0
C53 C 0.91765 0.6773 0.43211 0.0
C54 C 0.97245 0.70395 0.42267 0.0
C55 C 0.91777 0.62855 0.4541 0.0
C56 C 0.97238 0.60706 0.46822 0.0
C57 C 0.02714 0.68217 0.43677 0.0
C58 C 0.02703 0.6343 0.45973 0.0
C59 C 0.97244 0.55531 0.49097 0.0
C60 C 0.92752 0.31339 0.45194 0.0
C61 C 0.96646 0.3083 0.41998 0.0
C62 C 0.9291 0.3614 0.47499 0.0
C63 C 0.9704 0.4045 0.46675 0.0
C64 C 0.00721 0.35147 0.41149 0.0
C65 C 0.00898 0.39927 0.43459 0.0
C66 C 0.97268 0.45599 0.49047 0.0
C67 C 0.02511 0.31433 0.56896 0.0
C68 C -0.01483 0.30747 0.60024 0.0
C69 C 0.02273 0.3626 0.54641 0.0
C70 C 0.97985 0.40427 0.55461 0.0
C71 C 0.94275 0.34918 0.60864 0.0
C72 C 0.94034 0.39734 0.58613 0.0
C73 C 0.9767 0.4559 0.53136 0.0
H74 H 0.06452 0.66933 0.6245 0.0
H75 H 0.06136 0.58482 0.5842 0.0
H76 H 0.89883 0.72625 0.57211 0.0
H77 H 0.89456 0.64125 0.5327 0.0
H78 H 0.87502 0.69346 0.42153 0.0
H79 H 0.87525 0.6078 0.46035 0.0
H80 H 0.06987 0.70197 0.42967 0.0
H81 H 0.06958 0.61796 0.47032 0.0
H82 H 0.89549 0.28057 0.45868 0.0
H83 H 0.89773 0.36502 0.49899 0.0
H84 H 0.03735 0.34826 0.3868 0.0
H85 H 0.04084 0.4321 0.42748 0.0
H86 H 0.05846 0.28266 0.56236 0.0
H87 H 0.05465 0.36758 0.52283 0.0
H88 H 0.91191 0.3446 0.63286 0.0
H89 H 0.90725 0.42908 0.59314 0.0
N90 N 0.97812 0.50562 0.55037 0.0
N91 N 0.97111 0.50582 0.47184 0.0
O92 O 0.92117 0.95401 0.22706 0.0
Cd93 Cd -0.00886 0.95638 0.26705 0.0
Cd94 Cd 0.9737 0.06544 0.25766 0.0
O95 O 0.89636 0.04305 0.22941 0.0
O96 O 0.00088 0.8767 0.2813 0.0
O97 O 0.97269 0.9411 0.3234 0.0
C98 C -0.0155 0.88951 0.31596 0.0
C99 C 0.96987 0.12856 0.30859 0.0
C100 C 0.88685 0.99394 0.21724 0.0
C101 C 0.08743 0.0186 0.22527 0.0
O102 O 0.05024 0.05878 0.22407 0.0
O103 O 0.07622 0.97645 0.24626 0.0
O104 O 0.96523 0.1448 0.27316 0.0
O105 O 0.97665 0.07599 0.31532 0.0
O106 O 0.90312 0.04904 0.7914 0.0
Cd107 Cd 0.98225 0.06499 0.76167 0.0
Cd108 Cd -0.00825 0.95211 0.76015 0.0
O109 O 0.91337 0.95747 0.79216 0.0
O110 O 0.97887 0.14439 0.74565 0.0
O111 O -0.01407 0.07447 0.7038 0.0
C112 C -0.01692 0.12742 0.71034 0.0
C113 C -0.00852 0.88677 0.71013 0.0
C114 C 0.88493 1.00119 0.80199 0.0
C115 C 0.0884 0.015 0.8024 0.0
O116 O 0.07034 0.96774 0.79045 0.0
O117 O 0.05992 0.05921 0.79408 0.0
O118 O -0.00408 0.8719 0.74579 0.0
O119 O -0.0115 0.93931 0.70243 0.0
C120 C 0.211 0.96927 0.15607 0.0
C121 C 0.23547 0.02076 0.14345 0.0
C122 C 0.17301 0.06878 0.19168 0.0
C123 C 0.1408 0.01856 0.1989 0.0
N124 N 0.12007 0.92373 0.1777 0.0
N125 N 0.22953 0.12137 0.14421 0.0
C126 C 0.15727 0.96932 0.17843 0.0
C127 C 0.21369 0.07121 0.15985 0.0
N128 N 0.23944 0.92026 0.14757 0.0
N129 N 0.16646 0.11359 0.21576 0.0
H130 H 0.25672 0.12499 0.11963 0.0
H131 H 0.21028 0.15886 0.15319 0.0
H132 H 0.14011 0.11236 0.24083 0.0
H133 H 0.19286 0.14946 0.21328 0.0
H134 H 0.22538 0.88223 0.15906 0.0
H135 H 0.28077 0.91843 0.13296 0.0
H136 H 0.12893 0.88904 0.16039 0.0
H137 H 0.07691 0.92308 0.18989 0.0
C138 C 0.94505 0.21448 0.62144 0.0
C139 C -0.01122 0.25753 0.62536 0.0
C140 C 0.03614 0.20736 0.67897 0.0
C141 C -0.01248 0.16862 0.67862 0.0
N142 N 0.89254 0.13719 0.65183 0.0
N143 N 0.07276 0.29844 0.65992 0.0
C144 C 0.94139 0.17221 0.65018 0.0
C145 C 0.03378 0.25476 0.65453 0.0
N146 N 0.90758 0.21379 0.58998 0.0
N147 N 0.08542 0.19792 0.70195 0.0
H148 H 0.07316 0.33363 0.64228 0.0
H149 H 0.10169 0.30177 0.68359 0.0
H150 H 0.08918 0.16302 0.71971 0.0
H151 H 0.12498 0.22155 0.70063 0.0
H152 H 0.87891 0.18064 0.58332 0.0
H153 H 0.90891 0.24438 0.56859 0.0
H154 H 0.85413 0.14187 0.63471 0.0
H155 H 0.88829 0.10564 0.67234 0.0
C156 C 0.74023 0.95123 0.16763 0.0
C157 C 0.7474 0.9795 0.13188 0.0
C158 C 0.85041 0.00686 0.14976 0.0
C159 C 0.84027 0.98498 0.18734 0.0
N160 N 0.77596 0.93843 0.23348 0.0
N161 N 0.80668 0.03722 0.0891 0.0
C162 C 0.78552 0.95712 0.1966 0.0
C163 C 0.80199 0.00781 0.12284 0.0
N164 N 0.69033 0.9185 0.17359 0.0
N165 N 0.90688 0.02538 0.13958 0.0
H166 H 0.77296 0.03726 0.06798 0.0
H167 H 0.84224 0.06438 0.08299 0.0
H168 H 0.94363 0.02504 0.15854 0.0
H169 H 0.91889 0.03645 0.11148 0.0
H170 H 0.68494 0.89246 0.19738 0.0
H171 H 0.65601 0.914 0.15308 0.0
H172 H 0.73455 0.92334 0.24341 0.0
H173 H 0.80875 0.94114 0.25512 0.0
C174 C 0.94141 0.75501 0.65878 0.0
C175 C 0.98222 0.75328 0.62704 0.0
C176 C 0.02925 0.84053 0.64899 0.0
C177 C -0.01387 0.84372 0.67946 0.0
N178 N 0.89197 0.81185 0.70733 0.0
N179 N 0.05678 0.79918 0.58722 0.0
C180 C 0.93944 0.80324 0.68255 0.0
C181 C 0.02365 0.79762 0.62067 0.0
N182 N 0.9061 0.70973 0.66714 0.0
N183 N 0.0772 0.87663 0.64816 0.0
H184 H 0.05391 0.76829 0.56599 0.0
H185 H 0.08305 0.83324 0.579 0.0
H186 H 0.08312 0.90837 0.66847 0.0
H187 H 0.11365 0.87244 0.62922 0.0
H188 H 0.88069 0.70628 0.69247 0.0
H189 H 0.90609 0.67343 0.6505 0.0
H190 H 0.85356 0.78659 0.70797 0.0
H191 H 0.88793 0.84753 0.72444 0.0
C192 C 0.17002 0.01189 0.89864 0.0
C193 C 0.23113 0.01668 0.8864 0.0
C194 C 0.19891 0.01916 0.8185 0.0
C195 C 0.13782 0.0177 0.83097 0.0
N196 N 0.06408 0.0232 0.88254 0.0
N197 N 0.30395 0.03516 0.83586 0.0
C198 C 0.12303 0.01746 0.87098 0.0
C199 C 0.24569 0.0233 0.8466 0.0
N200 N 0.15698 0.99948 0.93638 0.0
N201 N 0.21213 0.01566 0.77989 0.0
H202 H 0.33923 0.03903 0.85574 0.0
H203 H 0.31651 0.04586 0.80779 0.0
H204 H 0.17876 0.01453 0.75855 0.0
H205 H 0.25579 0.01017 0.76912 0.0
H206 H 0.11375 0.9891 0.94611 0.0
H207 H 0.19013 0.99501 0.95761 0.0
H208 H 0.05117 0.02945 0.91123 0.0
H209 H 0.02814 0.02643 0.86315 0.0
C210 C 0.91601 0.25235 0.36751 0.0
C211 C 0.96396 0.25841 0.39448 0.0
C212 C 0.01545 0.17739 0.36632 0.0
C213 C 0.96613 0.16988 0.34048 0.0
N214 N 0.86313 0.19132 0.32293 0.0
N215 N 0.0523 0.22035 0.42545 0.0
C216 C 0.91443 0.20472 0.34305 0.0
C217 C 0.01148 0.21878 0.39576 0.0
N218 N 0.87332 0.29321 0.36408 0.0
N219 N 0.06741 0.14728 0.36144 0.0
H220 H 0.05067 0.2502 0.44744 0.0
H221 H 0.08425 0.18929 0.43023 0.0
H222 H 0.07256 0.11701 0.34001 0.0
H223 H 0.10724 0.15542 0.37656 0.0
H224 H 0.84148 0.29416 0.34188 0.0
H225 H 0.87259 0.32868 0.38156 0.0
H226 H 0.82204 0.21191 0.32663 0.0
H227 H 0.85985 0.15597 0.30541 0.0
C228 C 0.79445 0.96576 0.89235 0.0
C229 C 0.73818 0.99079 0.88351 0.0
C230 C 0.7758 0.01683 0.81922 0.0
C231 C 0.83385 0.99663 0.82954 0.0
N232 N 0.90166 0.96104 0.87851 0.0
N233 N 0.67658 0.04665 0.84113 0.0
C234 C 0.84408 0.97333 0.86676 0.0
C235 C 0.72912 0.01815 0.84762 0.0
N236 N 0.80012 0.93379 0.92484 0.0
N237 N 0.76473 0.03283 0.78195 0.0
H238 H 0.64104 0.04791 0.86106 0.0
H239 H 0.66995 0.07254 0.81739 0.0
H240 H 0.79775 0.03187 0.76032 0.0
H241 H 0.72174 0.04242 0.77161 0.0
H242 H 0.83792 0.90928 0.93051 0.0
H243 H 0.76494 0.92793 0.94463 0.0
H244 H 0.91252 0.9502 0.90682 0.0
H245 H 0.93971 0.9665 0.86104 0.0
C246 C -0.00476 0.80529 0.40959 0.0
C247 C 0.97278 0.75308 0.39645 0.0
C248 C 0.94549 0.79558 0.33466 0.0
C249 C 0.97686 0.84493 0.34531 0.0
N250 N 0.0404 0.8934 0.39142 0.0
N251 N 0.93811 0.69607 0.34304 0.0
C252 C 0.00389 0.84918 0.38251 0.0
C253 C 0.951 0.74749 0.35802 0.0
N254 N 0.00694 0.81343 0.44802 0.0
N255 N 0.90862 0.79503 0.30291 0.0
H256 H 0.94397 0.65924 0.35849 0.0
H257 H 0.92782 0.68963 0.31394 0.0
H258 H 0.9006 0.83033 0.28615 0.0
H259 H 0.88056 0.76147 0.29603 0.0
H260 H 0.01779 0.85226 0.45968 0.0
H261 H -7e-05 0.78265 0.46882 0.0
H262 H 0.06614 0.89538 0.41664 0.0
H263 H 0.04965 0.92561 0.37214 0.0
loop_
_geom_bond_atom_site_label_1
_geom_bond_atom_site_label_2
_geom_bond_distance
_geom_bond_site_symmetry_2
_ccdc_geom_bond_type
C0 C1 1.384 1_545 S
C0 C2 1.384 . S
C0 H28 0.931 . S
C1 C0 1.384 1_565 S
C1 C4 1.382 . S
C2 C0 1.384 . S
C2 C3 1.381 1_545 S
C2 H29 0.930 . S
C3 C2 1.381 1_565 S
C3 C5 1.381 . S
C3 C6 1.487 . S
C4 C1 1.382 . S
C4 C5 1.387 . S
C4 H30 0.930 . S
C5 C3 1.381 . S
C5 C4 1.387 . S
C5 H31 0.931 . S
C6 C3 1.487 . S
C6 C13 1.399 1_566 S
C6 N44 1.343 . S
C7 C8 1.384 1_565 S
C7 C9 1.384 . S
C7 H32 0.931 . S
C8 C7 1.384 1_545 S
C8 C11 1.382 . S
C9 C7 1.384 . S
C9 C10 1.381 1_565 S
C9 H33 0.930 . S
C10 C9 1.381 1_545 S
C10 C12 1.381 . S
C10 C13 1.487 . S
C11 C8 1.382 . S
C11 C12 1.387 . S
C11 H34 0.930 . S
C12 C10 1.381 . S
C12 C11 1.387 . S
C12 H35 0.931 . S
C13 C6 1.399 1_544 S
C13 C10 1.487 . S
C13 N45 1.343 . S
C14 C15 1.384 1_565 S
C14 C16 1.384 . S
C14 H36 0.931 . S
C15 C14 1.384 1_545 S
C15 C18 1.382 . S
C16 C14 1.384 . S
C16 C17 1.381 1_565 S
C16 H37 0.930 . S
C17 C16 1.381 1_545 S
C17 C19 1.381 . S
C17 C20 1.487 . S
C18 C15 1.382 . S
C18 C19 1.387 . S
C18 H38 0.930 . S
C19 C17 1.381 . S
C19 C18 1.387 . S
C19 H39 0.931 . S
C20 C17 1.487 . S
C20 C27 1.399 1_544 S
C20 N45 1.343 . S
C21 C22 1.384 1_545 S
C21 C23 1.384 . S
C21 H40 0.931 . S
C22 C21 1.384 1_565 S
C22 C25 1.382 . S
C23 C21 1.384 . S
C23 C24 1.381 1_545 S
C23 H41 0.930 . S
C24 C23 1.381 1_565 S
C24 C26 1.381 . S
C24 C27 1.487 . S
C25 C22 1.382 . S
C25 C26 1.387 . S
C25 H42 0.930 . S
C26 C24 1.381 . S
C26 C25 1.387 . S
C26 H43 0.931 . S
C27 C20 1.399 1_566 S
C27 C24 1.487 . S
C27 N44 1.343 . S
H28 C0 0.931 . S
H29 C2 0.930 . S
H30 C4 0.930 . S
H31 C5 0.931 . S
H32 C7 0.931 . S
H33 C9 0.930 . S
H34 C11 0.930 . S
H35 C12 0.931 . S
H36 C14 0.931 . S
H37 C16 0.930 . S
H38 C18 0.930 . S
H39 C19 0.931 . S
H40 C21 0.931 . S
H41 C23 0.930 . S
H42 C25 0.930 . S
H43 C26 0.931 . S
N44 C6 1.343 . S
N44 C27 1.343 . S
N45 C13 1.343 . S
N45 C20 1.343 . S
C46 C47 1.384 1_455 S
C46 C48 1.384 . S
C46 H74 0.931 . S
C47 C46 1.384 1_655 S
C47 C50 1.382 . S
C48 C46 1.384 . S
C48 C49 1.381 1_455 S
C48 H75 0.930 . S
C49 C48 1.381 1_655 S
C49 C51 1.381 . S
C49 C52 1.487 . S
C50 C47 1.382 . S
C50 C51 1.387 . S
C50 H76 0.930 . S
C51 C49 1.381 . S
C51 C50 1.387 . S
C51 H77 0.931 . S
C52 C49 1.487 . S
C52 C59 1.399 1_655 S
C52 N90 1.343 . S
C53 C54 1.384 1_655 S
C53 C55 1.384 . S
C53 H78 0.931 . S
C54 C53 1.384 1_455 S
C54 C57 1.382 . S
C55 C53 1.384 . S
C55 C56 1.381 1_655 S
C55 H79 0.930 . S
C56 C55 1.381 1_455 S
C56 C58 1.381 . S
C56 C59 1.487 . S
C57 C54 1.382 . S
C57 C58 1.387 . S
C57 H80 0.930 . S
C58 C56 1.381 . S
C58 C57 1.387 . S
C58 H81 0.931 . S
C59 C52 1.399 1_455 S
C59 C56 1.487 . S
C59 N91 1.343 . S
C60 C61 1.384 1_655 S
C60 C62 1.384 . S
C60 H82 0.931 . S
C61 C60 1.384 1_455 S
C61 C64 1.382 . S
C62 C60 1.384 . S
C62 C63 1.381 1_655 S
C62 H83 0.930 . S
C63 C62 1.381 1_455 S
C63 C65 1.381 . S
C63 C66 1.487 . S
C64 C61 1.382 . S
C64 C65 1.387 . S
C64 H84 0.930 . S
C65 C63 1.381 . S
C65 C64 1.387 . S
C65 H85 0.931 . S
C66 C63 1.487 . S
C66 C73 1.399 1_455 S
C66 N91 1.343 . S
C67 C68 1.384 1_455 S
C67 C69 1.384 . S
C67 H86 0.931 . S
C68 C67 1.384 1_655 S
C68 C71 1.382 . S
C69 C67 1.384 . S
C69 C70 1.381 1_455 S
C69 H87 0.930 . S
C70 C69 1.381 1_655 S
C70 C72 1.381 . S
C70 C73 1.487 . S
C71 C68 1.382 . S
C71 C72 1.387 . S
C71 H88 0.930 . S
C72 C70 1.381 . S
C72 C71 1.387 . S
C72 H89 0.931 . S
C73 C66 1.399 1_655 S
C73 C70 1.487 . S
C73 N90 1.343 . S
H74 C46 0.931 . S
H75 C48 0.930 . S
H76 C50 0.930 . S
H77 C51 0.931 . S
H78 C53 0.931 . S
H79 C55 0.930 . S
H80 C57 0.930 . S
H81 C58 0.931 . S
H82 C60 0.931 . S
H83 C62 0.930 . S
H84 C64 0.930 . S
H85 C65 0.931 . S
H86 C67 0.931 . S
H87 C69 0.930 . S
H88 C71 0.930 . S
H89 C72 0.931 . S
N90 C52 1.343 . S
N90 C73 1.343 . S
N91 C59 1.343 . S
N91 C66 1.343 . S
O92 Cd93 2.223 1_655 S
O92 C100 1.315 . S
Cd93 O92 2.223 1_455 S
Cd93 O96 2.297 1_455 S
Cd93 O97 2.439 1_455 S
Cd93 O103 2.240 1_565 S
Cd94 O95 2.240 1_545 S
Cd94 O102 2.223 1_655 S
Cd94 O104 2.297 1_655 S
Cd94 O105 2.439 1_655 S
O95 Cd94 2.240 1_565 S
O95 C100 1.279 . S
O96 Cd93 2.297 1_655 S
O96 C98 1.247 . S
O97 Cd93 2.439 1_655 S
O97 C98 1.208 . S
C98 O96 1.247 . S
C98 O97 1.208 . S
C99 O104 1.247 . S
C99 O105 1.208 . S
C100 O92 1.315 . S
C100 O95 1.279 . S
C101 O102 1.315 . S
C101 O103 1.279 . S
O102 Cd94 2.223 1_455 S
O102 C101 1.315 . S
O103 Cd93 2.240 1_545 S
O103 C101 1.279 . S
O104 Cd94 2.297 1_455 S
O104 C99 1.247 . S
O105 Cd94 2.439 1_455 S
O105 C99 1.208 . S
O106 Cd107 2.223 1_655 S
O106 C114 1.315 . S
Cd107 O106 2.223 1_455 S
Cd107 O110 2.297 1_455 S
Cd107 O111 2.439 1_455 S
Cd107 O117 2.240 1_545 S
Cd108 O109 2.240 1_565 S
Cd108 O116 2.223 1_655 S
Cd108 O118 2.297 1_655 S
Cd108 O119 2.439 1_655 S
O109 Cd108 2.240 1_545 S
O109 C114 1.279 . S
O110 Cd107 2.297 1_655 S
O110 C112 1.247 . S
O111 Cd107 2.439 1_655 S
O111 C112 1.208 . S
C112 O110 1.247 . S
C112 O111 1.208 . S
C113 O118 1.247 . S
C113 O119 1.208 . S
C114 O106 1.315 . S
C114 O109 1.279 . S
C115 O116 1.315 . S
C115 O117 1.279 . S
O116 Cd108 2.223 1_455 S
O116 C115 1.315 . S
O117 Cd107 2.240 1_565 S
O117 C115 1.279 . S
O118 Cd108 2.297 1_455 S
O118 C113 1.247 . S
O119 Cd108 2.439 1_455 S
O119 C113 1.208 . S
C120 C121 1.363 1_565 S
C120 C126 1.379 . S
C120 N128 1.356 . S
C121 C120 1.363 1_545 S
C121 C127 1.363 . S
C122 C123 1.363 . S
C122 C127 1.379 . S
C122 N129 1.356 . S
C123 C122 1.363 . S
C123 C126 1.363 1_545 S
N124 C126 1.356 . S
N124 H136 0.984 . S
N124 H137 0.985 . S
N125 C127 1.356 . S
N125 H130 0.984 . S
N125 H131 0.985 . S
C126 C120 1.379 . S
C126 C123 1.363 1_565 S
C126 N124 1.356 . S
C127 C121 1.363 . S
C127 C122 1.379 . S
C127 N125 1.356 . S
N128 C120 1.356 . S
N128 H134 0.984 . S
N128 H135 0.984 . S
N129 C122 1.356 . S
N129 H132 0.984 . S
N129 H133 0.985 . S
H130 N125 0.984 . S
H131 N125 0.985 . S
H132 N129 0.984 . S
H133 N129 0.985 . S
H134 N128 0.984 . S
H135 N128 0.984 . S
H136 N124 0.984 . S
H137 N124 0.985 . S
C138 C139 1.363 . S
C138 C144 1.379 . S
C138 N146 1.356 . S
C139 C138 1.363 . S
C139 C145 1.363 1_655 S
C140 C141 1.363 . S
C140 C145 1.379 1_655 S
C140 N147 1.356 1_655 S
C141 C140 1.363 . S
C141 C144 1.363 . S
N142 C144 1.356 . S
N142 H154 0.984 . S
N142 H155 0.985 . S
N143 C145 1.356 . S
N143 H148 0.984 . S
N143 H149 0.985 . S
C144 C138 1.379 . S
C144 C141 1.363 . S
C144 N142 1.356 . S
C145 C139 1.363 1_455 S
C145 C140 1.379 1_455 S
C145 N143 1.356 . S
N146 C138 1.356 . S
N146 H152 0.984 . S
N146 H153 0.984 . S
N147 C140 1.356 1_455 S
N147 H150 0.984 1_455 S
N147 H151 0.985 . S
H148 N143 0.984 . S
H149 N143 0.985 . S
H150 N147 0.984 1_655 S
H151 N147 0.985 . S
H152 N146 0.984 . S
H153 N146 0.984 . S
H154 N142 0.984 . S
H155 N142 0.985 . S
C156 C157 1.363 . S
C156 C162 1.379 . S
C156 N164 1.356 . S
C157 C156 1.363 . S
C157 C163 1.363 1_565 S
C158 C159 1.363 1_545 S
C158 C163 1.379 . S
C158 N165 1.356 . S
C159 C158 1.363 1_565 S
C159 C162 1.363 . S
N160 C162 1.356 . S
N160 H172 0.984 . S
N160 H173 0.985 . S
N161 C163 1.356 . S
N161 H166 0.984 . S
N161 H167 0.985 . S
C162 C156 1.379 . S
C162 C159 1.363 . S
C162 N160 1.356 . S
C163 C157 1.363 1_545 S
C163 C158 1.379 . S
C163 N161 1.356 . S
N164 C156 1.356 . S
N164 H170 0.984 . S
N164 H171 0.984 . S
N165 C158 1.356 . S
N165 H168 0.984 . S
N165 H169 0.985 . S
H166 N161 0.984 . S
H167 N161 0.985 . S
H168 N165 0.984 . S
H169 N165 0.985 . S
H170 N164 0.984 . S
H171 N164 0.984 . S
H172 N160 0.984 . S
H173 N160 0.985 . S
C174 C175 1.363 1_655 S
C174 C180 1.379 . S
C174 N182 1.356 . S
C175 C174 1.363 1_455 S
C175 C181 1.363 . S
C176 C177 1.363 . S
C176 C181 1.379 . S
C176 N183 1.356 . S
C177 C176 1.363 . S
C177 C180 1.363 1_455 S
N178 C180 1.356 . S
N178 H190 0.984 . S
N178 H191 0.985 . S
N179 C181 1.356 . S
N179 H184 0.984 . S
N179 H185 0.985 . S
C180 C174 1.379 . S
C180 C177 1.363 1_655 S
C180 N178 1.356 . S
C181 C175 1.363 . S
C181 C176 1.379 . S
C181 N179 1.356 . S
N182 C174 1.356 . S
N182 H188 0.984 . S
N182 H189 0.984 . S
N183 C176 1.356 . S
N183 H186 0.984 . S
N183 H187 0.985 . S
H184 N179 0.984 . S
H185 N179 0.985 . S
H186 N183 0.984 . S
H187 N183 0.985 . S
H188 N182 0.984 . S
H189 N182 0.984 . S
H190 N178 0.984 . S
H191 N178 0.985 . S
C192 C193 1.363 1_545 S
C192 C198 1.379 . S
C192 N200 1.356 . S
C193 C192 1.363 1_565 S
C193 C199 1.363 . S
C194 C195 1.363 . S
C194 C199 1.379 . S
C194 N201 1.356 . S
C195 C194 1.363 . S
C195 C198 1.363 1_565 S
N196 C198 1.356 . S
N196 H208 0.984 . S
N196 H209 0.985 . S
N197 C199 1.356 . S
N197 H202 0.984 . S
N197 H203 0.985 . S
C198 C192 1.379 . S
C198 C195 1.363 1_545 S
C198 N196 1.356 . S
C199 C193 1.363 . S
C199 C194 1.379 . S
C199 N197 1.356 . S
N200 C192 1.356 . S
N200 H206 0.984 . S
N200 H207 0.984 . S
N201 C194 1.356 . S
N201 H204 0.984 . S
N201 H205 0.985 . S
H202 N197 0.984 . S
H203 N197 0.985 . S
H204 N201 0.984 . S
H205 N201 0.985 . S
H206 N200 0.984 . S
H207 N200 0.984 . S
H208 N196 0.984 . S
H209 N196 0.985 . S
C210 C211 1.363 1_655 S
C210 C216 1.379 . S
C210 N218 1.356 . S
C211 C210 1.363 1_455 S
C211 C217 1.363 . S
C212 C213 1.363 . S
C212 C217 1.379 . S
C212 N219 1.356 . S
C213 C212 1.363 . S
C213 C216 1.363 1_455 S
N214 C216 1.356 . S
N214 H226 0.984 . S
N214 H227 0.985 . S
N215 C217 1.356 . S
N215 H220 0.984 . S
N215 H221 0.985 . S
C216 C210 1.379 . S
C216 C213 1.363 1_655 S
C216 N214 1.356 . S
C217 C211 1.363 . S
C217 C212 1.379 . S
C217 N215 1.356 . S
N218 C210 1.356 . S
N218 H224 0.984 . S
N218 H225 0.984 . S
N219 C212 1.356 . S
N219 H222 0.984 . S
N219 H223 0.985 . S
H220 N215 0.984 . S
H221 N215 0.985 . S
H222 N219 0.984 . S
H223 N219 0.985 . S
H224 N218 0.984 . S
H225 N218 0.984 . S
H226 N214 0.984 . S
H227 N214 0.985 . S
C228 C229 1.363 1_565 S
C228 C234 1.379 . S
C228 N236 1.356 . S
C229 C228 1.363 1_545 S
C229 C235 1.363 . S
C230 C231 1.363 . S
C230 C235 1.379 . S
C230 N237 1.356 . S
C231 C230 1.363 . S
C231 C234 1.363 1_545 S
N232 C234 1.356 . S
N232 H244 0.984 . S
N232 H245 0.985 . S
N233 C235 1.356 . S
N233 H238 0.984 . S
N233 H239 0.985 . S
C234 C228 1.379 . S
C234 C231 1.363 1_565 S
C234 N232 1.356 . S
C235 C229 1.363 . S
C235 C230 1.379 . S
C235 N233 1.356 . S
N236 C228 1.356 . S
N236 H242 0.984 . S
N236 H243 0.984 . S
N237 C230 1.356 . S
N237 H240 0.984 . S
N237 H241 0.985 . S
H238 N233 0.984 . S
H239 N233 0.985 . S
H240 N237 0.984 . S
H241 N237 0.985 . S
H242 N236 0.984 . S
H243 N236 0.984 . S
H244 N232 0.984 . S
H245 N232 0.985 . S
C246 C247 1.363 . S
C246 C252 1.379 . S
C246 N254 1.356 . S
C247 C246 1.363 . S
C247 C253 1.363 1_655 S
C248 C249 1.363 . S
C248 C253 1.379 1_655 S
C248 N255 1.356 . S
C249 C248 1.363 . S
C249 C252 1.363 . S
N250 C252 1.356 . S
N250 H262 0.984 . S
N250 H263 0.985 . S
N251 C253 1.356 . S
N251 H256 0.984 . S
N251 H257 0.985 . S
C252 C246 1.379 . S
C252 C249 1.363 . S
C252 N250 1.356 . S
C253 C247 1.363 1_455 S
C253 C248 1.379 1_455 S
C253 N251 1.356 . S
N254 C246 1.356 . S
N254 H260 0.984 . S
N254 H261 0.984 . S
N255 C248 1.356 . S
N255 H258 0.984 . S
N255 H259 0.985 1_655 S
H256 N251 0.984 . S
H257 N251 0.985 . S
H258 N255 0.984 . S
H259 N255 0.985 1_455 S
H260 N254 0.984 . S
H261 N254 0.984 . S
H262 N250 0.984 . S
H263 N250 0.985 . S
C123 C101 1.615 . S
C121 C15 1.604 . S
C141 C112 1.526 . S
C139 C68 1.603 . S
C159 C100 1.615 . S
C157 C8 1.613 1_565 S
C177 C113 1.526 . S
C175 C47 1.613 1_455 S
C195 C115 1.615 . S
C193 C22 1.609 . S
C213 C99 1.526 . S
C211 C61 1.603 . S
C231 C114 1.615 . S
C229 C1 1.617 1_545 S
C247 C54 1.612 1_655 S
C249 C98 1.527 . S
