# Generated by pormake.
# Topology pts, (4,4)-cn, num edge types: 1
# Building blocks:
#     Node 0, Type 0, BuildingBlock: MUDLON_clean_linker_0, # of connection points: 4
#     Node 1, Type 0, BuildingBlock: MUDLON_clean_linker_0, # of connection points: 4
#     Node 2, Type 1, BuildingBlock: QUQFOY_clean_sbu_1, # of connection points: 4
#     Node 3, Type 1, BuildingBlock: QUQFOY_clean_sbu_1, # of connection points: 4
#     Edge 4, Type (0, 1), BuildingBlock: OJICUG_clean_linker_0, # of connection points: 2
#     Edge 5, Type (0, 1), BuildingBlock: OJICUG_clean_linker_0, # of connection points: 2
#     Edge 6, Type (0, 1), BuildingBlock: OJICUG_clean_linker_0, # of connection points: 2
#     Edge 7, Type (0, 1), BuildingBlock: OJICUG_clean_linker_0, # of connection points: 2
#     Edge 8, Type (0, 1), BuildingBlock: OJICUG_clean_linker_0, # of connection points: 2
#     Edge 9, Type (0, 1), BuildingBlock: OJICUG_clean_linker_0, # of connection points: 2
#     Edge 10, Type (0, 1), BuildingBlock: OJICUG_clean_linker_0, # of connection points: 2
#     Edge 11, Type (0, 1), BuildingBlock: OJICUG_clean_linker_0, # of connection points: 2
# Relax obj value: 0.110
# Max RMSD: 0.273
# Mean RMSD: 0.180
data_MOF--net-pts--node1-QUQFOY_clean_sbu_1--node2-MUDLON_clean_linker_0--edge1-OJICUG_clean_linker_0
_symmetry_space_group_name_H-M    P1
_symmetry_Int_Tables_number       1
_symmetry_cell_setting            triclinic
loop_
_symmetry_equiv_pos_as_xyz
'x, y, z'
_cell_length_a     26.105706
_cell_length_b     28.237946
_cell_length_c     37.530029
_cell_angle_alpha  90.05751
_cell_angle_beta   90.084487
_cell_angle_gamma 90.365514
loop_
_atom_site_label
_atom_site_type_symbol
_atom_site_fract_x
_atom_site_fract_y
_atom_site_fract_z
_atom_type_partial_charge
H0 H 0.72002 0.04831 0.06082 0.0
N1 N 0.68723 0.96007 0.04035 0.0
H2 H 0.7701 0.06779 0.11374 0.0
H3 H 0.72204 0.90065 0.08928 0.0
H4 H 0.77525 0.91891 0.141 0.0
H5 H 0.75049 0.90085 0.00802 0.0
H6 H 0.79983 0.91437 0.95373 0.0
H7 H 0.68604 0.04048 0.99954 0.0
H8 H 0.73345 0.0538 0.94428 0.0
H9 H 0.63276 0.01673 0.08806 0.0
H10 H 0.61746 0.93119 0.99281 0.0
H11 H 0.5438 0.03753 0.08423 0.0
H12 H 0.52761 0.95363 0.98853 0.0
H13 H 0.26296 0.11755 0.06521 0.0
H14 H 0.21531 0.10679 0.12064 0.0
H15 H 0.2645 0.96096 0.12499 0.0
H16 H 0.3098 0.97154 0.06892 0.0
H17 H 0.2568 0.97844 0.01171 0.0
H18 H 0.20777 0.96991 0.95676 0.0
H19 H 0.2716 0.10207 0.91844 0.0
H20 H 0.31841 0.11137 0.9745 0.0
H21 H 0.39775 0.10786 0.04726 0.0
H22 H 0.48794 0.08516 0.04917 0.0
H23 H 0.44596 0.9432 0.0164 0.0
N24 N 0.31796 0.05404 0.03031 0.0
H25 H 0.35632 0.96699 0.01315 0.0
C26 C 0.71688 0.97292 0.07142 0.0
C27 C 0.73174 0.02001 0.07838 0.0
C28 C 0.76068 0.03102 0.10867 0.0
C29 C 0.77686 0.99505 0.13203 0.0
C30 C 0.76249 0.94789 0.12444 0.0
C31 C 0.7325 0.93715 0.09465 0.0
C32 C 0.7146 0.96935 0.00769 0.0
C33 C 0.74666 0.93422 0.9941 0.0
C34 C 0.77438 0.94195 0.96287 0.0
C35 C 0.77031 0.98507 0.94431 0.0
C36 C 0.73792 0.02036 0.95799 0.0
C37 C 0.71059 0.01274 0.98951 0.0
C38 C 0.63351 0.97331 0.03977 0.0
C39 C 0.61122 1.00291 0.06576 0.0
C40 C 0.55961 0.01504 0.06366 0.0
C41 C 0.52869 0.99797 0.03576 0.0
C42 C 0.55027 0.96736 0.01045 0.0
C43 C 0.60183 0.95485 0.0127 0.0
C44 C 0.29017 0.04573 0.06294 0.0
C45 C 0.26328 0.08332 0.07819 0.0
C46 C 0.23658 0.07715 0.11008 0.0
C47 C 0.23648 0.03308 0.12761 0.0
C48 C 0.26342 0.99527 0.11218 0.0
C49 C 0.28976 1.00141 0.08009 0.0
C50 C 0.29035 0.0463 0.99752 0.0
C51 C 0.26006 1.00569 0.99161 0.0
C52 C 0.23252 1.00055 0.95984 0.0
C53 C 0.23534 0.03548 0.93312 0.0
C54 C 0.26754 0.07497 0.93865 0.0
C55 C 0.29448 0.08032 0.97056 0.0
C56 C 0.37055 0.03923 0.03029 0.0
C57 C 0.40829 0.07198 0.04034 0.0
C58 C 0.45963 0.05877 0.04167 0.0
C59 C 0.47416 0.01221 0.03322 0.0
C60 C 0.43619 0.97946 0.02272 0.0
C61 C 0.38483 0.99289 0.02111 0.0
H62 H 0.87627 0.76238 0.55657 0.0
N63 N 0.93725 0.69535 0.5318 0.0
H64 H 0.8923 0.81613 0.60665 0.0
H65 H 0.01789 0.69041 0.57831 0.0
H66 H 0.03435 0.74407 0.62862 0.0
H67 H 0.03208 0.73244 0.51716 0.0
H68 H 0.05385 0.78329 0.46646 0.0
H69 H 0.88051 0.71092 0.4742 0.0
H70 H 0.90253 0.7607 0.42286 0.0
H71 H 0.86523 0.63628 0.5545 0.0
H72 H 0.01978 0.64 0.51465 0.0
H73 H 0.86776 0.54997 0.55667 0.0
H74 H 0.02205 0.55331 0.51488 0.0
H75 H 0.86564 0.30125 0.57472 0.0
H76 H 0.87726 0.24741 0.62545 0.0
H77 H 0.04093 0.26726 0.61864 0.0
H78 H 0.02925 0.31917 0.56692 0.0
H79 H 0.02872 0.33628 0.49845 0.0
H80 H 0.04826 0.283 0.44842 0.0
H81 H 0.89314 0.22916 0.45132 0.0
H82 H 0.87384 0.28296 0.5007 0.0
H83 H 0.86288 0.39855 0.5188 0.0
H84 H 0.86489 0.48498 0.51795 0.0
H85 H 0.02424 0.48284 0.54955 0.0
N86 N 0.93829 0.34001 0.53472 0.0
H87 H 0.0222 0.39633 0.5485 0.0
C88 C 0.9455 0.72229 0.56396 0.0
C89 C 0.91046 0.75785 0.57256 0.0
C90 C 0.91997 0.78876 0.60087 0.0
C91 C 0.96482 0.78459 0.62135 0.0
C92 C -0.00066 0.74797 0.61341 0.0
C93 C 0.98994 0.71722 0.58478 0.0
C94 C 0.95428 0.71831 0.49958 0.0
C95 C 0.00377 0.73796 0.49653 0.0
C96 C 0.01614 0.76714 0.46765 0.0
C97 C 0.97971 0.77623 0.44096 0.0
C98 C 0.93139 0.75416 0.44299 0.0
C99 C 0.91878 0.7257 0.47217 0.0
C100 C 0.94182 0.64455 0.53401 0.0
C101 C 0.89967 0.61828 0.54607 0.0
C102 C 0.90111 0.56886 0.54692 0.0
C103 C 0.94479 0.54427 0.5353 0.0
C104 C 0.9878 0.57083 0.52416 0.0
C105 C 0.98646 0.62052 0.52372 0.0
C106 C 0.94633 0.31509 0.56763 0.0
C107 C 0.9039 0.29466 0.58466 0.0
C108 C 0.91058 0.26376 0.61331 0.0
C109 C 0.95994 0.25342 0.62578 0.0
C110 C 0.00249 0.27515 0.6096 0.0
C111 C -0.00419 0.30524 0.58035 0.0
C112 C 0.94959 0.31377 0.5029 0.0
C113 C -0.00122 0.31369 0.48779 0.0
C114 C 0.0099 0.28316 0.45938 0.0
C115 C 0.97229 0.2517 0.44629 0.0
C116 C 0.92298 0.25263 0.46115 0.0
C117 C 0.91176 0.28354 0.48904 0.0
C118 C 0.94195 0.39094 0.53412 0.0
C119 C 0.89821 0.41687 0.52542 0.0
C120 C 0.89944 0.46634 0.52529 0.0
C121 C 0.94457 0.49128 0.53425 0.0
C122 C 0.98885 0.46506 0.54235 0.0
C123 C 0.98764 0.41536 0.54211 0.0
O124 O 0.94001 0.98304 0.25834 0.0
Cd125 Cd 0.00869 0.9717 0.28391 0.0
Cd126 Cd 0.01213 0.06796 0.28267 0.0
O127 O 0.94893 0.06001 0.25001 0.0
O128 O 0.00527 0.90309 0.29646 0.0
O129 O 0.01209 0.95979 0.33685 0.0
C130 C 0.00786 0.91522 0.32951 0.0
C131 C 0.00646 0.11922 0.3313 0.0
C132 C 0.92447 0.02157 0.24478 0.0
C133 C 0.0978 0.01803 0.24633 0.0
O134 O 0.08158 0.05723 0.25838 0.0
O135 O 0.07374 0.9797 0.25291 0.0
O136 O 0.01292 0.13505 0.2994 0.0
O137 O 0.00363 0.07387 0.33571 0.0
O138 O 0.92794 0.0516 0.81882 0.0
Cd139 Cd 0.99092 0.06512 0.78724 0.0
Cd140 Cd -0.00116 0.9691 0.78579 0.0
O141 O 0.93368 0.97367 0.81661 0.0
O142 O 0.98701 0.13277 0.77222 0.0
O143 O 0.98361 0.07286 0.73418 0.0
C144 C 0.98328 0.11802 0.7398 0.0
C145 C -0.00413 0.91746 0.73714 0.0
C146 C 0.91148 0.01082 0.8277 0.0
C147 C 0.08486 0.02248 0.8207 0.0
O148 O 0.06747 0.98202 0.81174 0.0
O149 O 0.06065 0.0598 0.81244 0.0
O150 O 0.00157 0.90199 0.76919 0.0
O151 O -0.00719 0.96272 0.73256 0.0
C152 C 0.17893 0.98431 0.1671 0.0
C153 C 0.20668 0.02641 0.16106 0.0
H154 H 0.12348 0.94825 0.19925 0.0
C155 C 0.20324 0.0632 0.18623 0.0
H156 H 0.1803 0.95533 0.14823 0.0
C157 C 0.17014 0.05932 0.21531 0.0
C158 C 0.14012 0.01835 0.22012 0.0
H159 H 0.22511 0.09562 0.18298 0.0
H160 H 0.16668 0.08917 0.23328 0.0
C161 C 0.14623 0.98023 0.19642 0.0
C162 C 0.94905 0.17184 0.65053 0.0
C163 C 0.96697 0.21854 0.65468 0.0
H164 H 0.94114 0.10298 0.67405 0.0
C165 C 0.99118 0.23173 0.68658 0.0
H166 H 0.93047 0.16093 0.626 0.0
C167 C -0.00366 0.19899 0.71428 0.0
C168 C 0.97852 0.15218 0.71018 0.0
H169 H 0.00524 0.26758 0.6903 0.0
H170 H 0.01458 0.21025 0.73884 0.0
C171 C 0.95534 0.13875 0.67789 0.0
C172 C 0.8471 0.04279 0.16151 0.0
C173 C 0.81038 1.00608 0.16325 0.0
H174 H 0.91114 0.07716 0.18644 0.0
C175 C 0.80809 0.97826 0.19436 0.0
H176 H 0.85078 0.06466 0.13798 0.0
C177 C 0.84381 0.9847 0.22172 0.0
C178 C 0.88168 0.01998 0.2191 0.0
H179 H 0.77946 0.95067 0.19735 0.0
H180 H 0.84255 0.96132 0.24458 0.0
C181 C 0.88195 0.04998 0.18932 0.0
C182 C 0.99241 0.80315 0.684 0.0
C183 C 0.97551 0.81888 0.65053 0.0
H184 H 0.01189 0.82192 0.73763 0.0
C185 C 0.96765 0.86763 0.64529 0.0
H186 H -0.00147 0.76581 0.68888 0.0
C187 C 0.97555 0.89985 0.67313 0.0
C188 C 0.99105 0.88396 0.70689 0.0
H189 H 0.95529 0.88088 0.61963 0.0
H190 H 0.96851 0.93707 0.66835 0.0
C191 C -0.00016 0.83531 0.71194 0.0
C192 C 0.19066 0.98851 0.88486 0.0
C193 C 0.20217 0.03241 0.90086 0.0
H194 H 0.14507 0.95083 0.84656 0.0
C195 C 0.17895 0.0734 0.88722 0.0
H196 H 0.20861 0.95634 0.89417 0.0
C197 C 0.14332 0.07035 0.85957 0.0
C198 C 0.12948 0.02618 0.84503 0.0
H199 H 0.18627 0.10778 0.89904 0.0
H200 H 0.12476 0.10253 0.85086 0.0
C201 C 0.15461 0.98541 0.85729 0.0
C202 C 0.97063 0.16929 0.42151 0.0
C203 C 0.98417 0.21729 0.41765 0.0
H204 H 0.96782 0.10046 0.39746 0.0
C205 C 0.00733 0.23233 0.38586 0.0
H206 H 0.95311 0.15672 0.44591 0.0
C207 C 0.01519 0.20028 0.35797 0.0
C208 C 0.00086 0.1524 0.36159 0.0
H209 H 0.01796 0.26915 0.38218 0.0
H210 H 0.03212 0.21311 0.33345 0.0
C211 C 0.97927 0.13708 0.39387 0.0
C212 C 0.82402 0.03799 0.90521 0.0
C213 C 0.80136 0.99347 0.91165 0.0
H214 H 0.87603 0.07858 0.87329 0.0
C215 C 0.81116 0.95623 0.88773 0.0
H216 H 0.81777 0.06741 0.92318 0.0
C217 C 0.84524 0.96246 0.85946 0.0
C218 C 0.86974 1.0063 0.8541 0.0
H219 H 0.79335 0.92182 0.89127 0.0
H220 H 0.85336 0.93255 0.84232 0.0
C221 C 0.8576 0.0444 0.87661 0.0
C222 C 0.97953 0.79938 0.37653 0.0
C223 C 0.99069 0.8107 0.41214 0.0
H224 H 0.97695 0.82331 0.32251 0.0
C225 C 0.00962 0.85617 0.4203 0.0
H226 H 0.96506 0.76455 0.36952 0.0
C227 C 0.01581 0.89014 0.39347 0.0
C228 C 0.00395 0.87899 0.3579 0.0
H229 H 0.01807 0.86594 0.44762 0.0
H230 H 0.0294 0.9252 0.40063 0.0
C231 C 0.98649 0.83303 0.34966 0.0
loop_
_geom_bond_atom_site_label_1
_geom_bond_atom_site_label_2
_geom_bond_distance
_geom_bond_site_symmetry_2
_ccdc_geom_bond_type
H0 C27 0.929 . S
N1 C26 1.433 . S
N1 C32 1.435 . S
N1 C38 1.423 . S
H2 C28 0.930 . S
H3 C31 0.931 . S
H4 C30 0.929 . S
H5 C33 0.930 . S
H6 C34 0.932 . S
H7 C37 0.929 . S
H8 C36 0.931 . S
H9 C39 0.929 . S
H10 C43 0.932 1_566 S
H11 C40 0.931 . S
H12 C42 0.949 1_565 S
H13 C45 0.929 . S
H14 C46 0.930 . S
H15 C48 0.929 . S
H16 C49 0.931 . S
H17 C51 0.930 . S
H18 C52 0.932 . S
H19 C54 0.931 . S
H20 C55 0.929 . S
H21 C57 0.929 . S
H22 C58 0.931 . S
H23 C60 0.949 1_565 S
N24 C44 1.433 . S
N24 C50 1.435 . S
N24 C56 1.423 . S
H25 C61 0.932 1_566 S
C26 N1 1.433 . S
C26 C27 1.363 . S
C26 C31 1.370 1_545 S
C27 H0 0.929 . S
C27 C26 1.363 . S
C27 C28 1.385 . S
C28 H2 0.930 . S
C28 C27 1.385 . S
C28 C29 1.357 . S
C29 C28 1.357 . S
C29 C30 1.406 1_545 S
C30 H4 0.929 . S
C30 C29 1.406 1_565 S
C30 C31 1.391 . S
C31 H3 0.931 . S
C31 C26 1.370 1_565 S
C31 C30 1.391 . S
C32 N1 1.435 . S
C32 C33 1.358 1_545 S
C32 C37 1.371 1_554 S
C33 H5 0.930 . S
C33 C32 1.358 1_565 S
C33 C34 1.405 1_554 S
C34 H6 0.932 . S
C34 C33 1.405 1_556 S
C34 C35 1.383 1_565 S
C35 C34 1.383 1_545 S
C35 C36 1.393 . S
C36 H8 0.931 . S
C36 C35 1.393 . S
C36 C37 1.382 . S
C37 H7 0.929 . S
C37 C32 1.371 1_556 S
C37 C36 1.382 . S
C38 N1 1.423 . S
C38 C39 1.362 . S
C38 C43 1.388 . S
C39 H9 0.929 . S
C39 C38 1.362 . S
C39 C40 1.376 . S
C40 H11 0.931 . S
C40 C39 1.376 . S
C40 C41 1.396 . S
C41 C40 1.396 . S
C41 C42 1.331 1_554 S
C41 C59 1.472 . S
C42 H12 0.949 1_545 S
C42 C41 1.331 1_556 S
C42 C43 1.441 1_556 S
C43 H10 0.932 1_544 S
C43 C38 1.388 . S
C43 C42 1.441 1_554 S
C44 N24 1.433 . S
C44 C45 1.363 . S
C44 C49 1.370 1_545 S
C45 H13 0.929 . S
C45 C44 1.363 . S
C45 C46 1.385 . S
C46 H14 0.930 . S
C46 C45 1.385 . S
C46 C47 1.357 . S
C47 C46 1.357 . S
C47 C48 1.406 1_545 S
C48 H15 0.929 . S
C48 C47 1.406 1_565 S
C48 C49 1.391 . S
C49 H16 0.931 . S
C49 C44 1.370 1_565 S
C49 C48 1.391 . S
C50 N24 1.435 . S
C50 C51 1.358 1_545 S
C50 C55 1.371 1_554 S
C51 H17 0.930 . S
C51 C50 1.358 1_565 S
C51 C52 1.405 1_554 S
C52 H18 0.932 . S
C52 C51 1.405 1_556 S
C52 C53 1.383 1_565 S
C53 C52 1.383 1_545 S
C53 C54 1.393 . S
C54 H19 0.931 . S
C54 C53 1.393 . S
C54 C55 1.382 . S
C55 H20 0.929 . S
C55 C50 1.371 1_556 S
C55 C54 1.382 . S
C56 N24 1.423 . S
C56 C57 1.362 . S
C56 C61 1.388 . S
C57 H21 0.929 . S
C57 C56 1.362 . S
C57 C58 1.376 . S
C58 H22 0.931 . S
C58 C57 1.376 . S
C58 C59 1.396 . S
C59 C41 1.472 . S
C59 C58 1.396 . S
C59 C60 1.331 1_554 S
C60 H23 0.949 1_545 S
C60 C59 1.331 1_556 S
C60 C61 1.441 1_556 S
C61 H25 0.932 1_544 S
C61 C56 1.388 . S
C61 C60 1.441 1_554 S
H62 C89 0.929 . S
N63 C88 1.433 . S
N63 C94 1.435 . S
N63 C100 1.423 . S
H64 C90 0.930 . S
H65 C93 0.931 . S
H66 C92 0.929 . S
H67 C95 0.930 . S
H68 C96 0.932 . S
H69 C99 0.929 . S
H70 C98 0.931 . S
H71 C101 0.929 . S
H72 C105 0.932 1_455 S
H73 C102 0.931 . S
H74 C104 0.929 1_455 S
H75 C107 0.929 . S
H76 C108 0.930 . S
H77 C110 0.929 . S
H78 C111 0.931 . S
H79 C113 0.930 . S
H80 C114 0.932 . S
H81 C116 0.931 . S
H82 C117 0.929 . S
H83 C119 0.929 . S
H84 C120 0.931 . S
H85 C122 0.929 1_455 S
N86 C106 1.433 . S
N86 C112 1.435 . S
N86 C118 1.423 . S
H87 C123 0.932 1_455 S
C88 N63 1.433 . S
C88 C89 1.363 . S
C88 C93 1.370 1_655 S
C89 H62 0.929 . S
C89 C88 1.363 . S
C89 C90 1.385 . S
C90 H64 0.930 . S
C90 C89 1.385 . S
C90 C91 1.357 . S
C91 C90 1.357 . S
C91 C92 1.406 1_655 S
C92 H66 0.929 . S
C92 C91 1.406 1_455 S
C92 C93 1.391 . S
C93 H65 0.931 . S
C93 C88 1.370 1_455 S
C93 C92 1.391 . S
C94 N63 1.435 . S
C94 C95 1.358 1_655 S
C94 C99 1.371 . S
C95 H67 0.930 . S
C95 C94 1.358 1_455 S
C95 C96 1.405 . S
C96 H68 0.932 . S
C96 C95 1.405 . S
C96 C97 1.383 1_455 S
C97 C96 1.383 1_655 S
C97 C98 1.393 . S
C98 H70 0.931 . S
C98 C97 1.393 . S
C98 C99 1.382 . S
C99 H69 0.929 . S
C99 C94 1.371 . S
C99 C98 1.382 . S
C100 N63 1.423 . S
C100 C101 1.362 . S
C100 C105 1.388 . S
C101 H71 0.929 . S
C101 C100 1.362 . S
C101 C102 1.376 . S
C102 H73 0.931 . S
C102 C101 1.376 . S
C102 C103 1.396 . S
C103 C102 1.396 . S
C103 C104 1.348 . S
C103 C121 1.472 . S
C104 H74 0.929 1_655 S
C104 C103 1.348 . S
C104 C105 1.443 . S
C105 H72 0.932 1_655 S
C105 C100 1.388 . S
C105 C104 1.443 . S
C106 N86 1.433 . S
C106 C107 1.363 . S
C106 C111 1.370 1_655 S
C107 H75 0.929 . S
C107 C106 1.363 . S
C107 C108 1.385 . S
C108 H76 0.930 . S
C108 C107 1.385 . S
C108 C109 1.357 . S
C109 C108 1.357 . S
C109 C110 1.406 1_655 S
C110 H77 0.929 . S
C110 C109 1.406 1_455 S
C110 C111 1.391 . S
C111 H78 0.931 . S
C111 C106 1.370 1_455 S
C111 C110 1.391 . S
C112 N86 1.435 . S
C112 C113 1.358 1_655 S
C112 C117 1.371 . S
C113 H79 0.930 . S
C113 C112 1.358 1_455 S
C113 C114 1.405 . S
C114 H80 0.932 . S
C114 C113 1.405 . S
C114 C115 1.383 1_455 S
C115 C114 1.383 1_655 S
C115 C116 1.393 . S
C116 H81 0.931 . S
C116 C115 1.393 . S
C116 C117 1.382 . S
C117 H82 0.929 . S
C117 C112 1.371 . S
C117 C116 1.382 . S
C118 N86 1.423 . S
C118 C119 1.362 . S
C118 C123 1.388 . S
C119 H83 0.929 . S
C119 C118 1.362 . S
C119 C120 1.376 . S
C120 H84 0.931 . S
C120 C119 1.376 . S
C120 C121 1.396 . S
C121 C103 1.472 . S
C121 C120 1.396 . S
C121 C122 1.348 . S
C122 H85 0.929 1_655 S
C122 C121 1.348 . S
C122 C123 1.443 . S
C123 H87 0.932 1_655 S
C123 C118 1.388 . S
C123 C122 1.443 . S
O124 Cd125 2.223 1_655 S
O124 C132 1.315 . S
Cd125 O124 2.223 1_455 S
Cd125 O128 2.297 1_455 S
Cd125 O129 2.439 1_455 S
Cd125 O135 2.240 1_565 S
Cd126 O127 2.240 1_545 S
Cd126 O134 2.223 1_655 S
Cd126 O136 2.297 1_655 S
Cd126 O137 2.439 1_655 S
O127 Cd126 2.240 1_565 S
O127 C132 1.279 . S
O128 Cd125 2.297 1_655 S
O128 C130 1.247 . S
O129 Cd125 2.439 1_655 S
O129 C130 1.208 . S
C130 O128 1.247 . S
C130 O129 1.208 . S
C131 O136 1.247 . S
C131 O137 1.208 . S
C132 O124 1.315 . S
C132 O127 1.279 . S
C133 O134 1.315 . S
C133 O135 1.279 . S
O134 Cd126 2.223 1_455 S
O134 C133 1.315 . S
O135 Cd125 2.240 1_545 S
O135 C133 1.279 . S
O136 Cd126 2.297 1_455 S
O136 C131 1.247 . S
O137 Cd126 2.439 1_455 S
O137 C131 1.208 . S
O138 Cd139 2.223 1_655 S
O138 C146 1.315 . S
Cd139 O138 2.223 1_455 S
Cd139 O142 2.297 1_455 S
Cd139 O143 2.439 1_455 S
Cd139 O149 2.240 1_545 S
Cd140 O141 2.240 1_565 S
Cd140 O148 2.223 1_655 S
Cd140 O150 2.297 1_655 S
Cd140 O151 2.439 1_655 S
O141 Cd140 2.240 1_545 S
O141 C146 1.279 . S
O142 Cd139 2.297 1_655 S
O142 C144 1.247 . S
O143 Cd139 2.439 1_655 S
O143 C144 1.208 . S
C144 O142 1.247 . S
C144 O143 1.208 . S
C145 O150 1.247 . S
C145 O151 1.208 . S
C146 O138 1.315 . S
C146 O141 1.279 . S
C147 O148 1.315 . S
C147 O149 1.279 . S
O148 Cd140 2.223 1_455 S
O148 C147 1.315 . S
O149 Cd139 2.240 1_565 S
O149 C147 1.279 . S
O150 Cd140 2.297 1_455 S
O150 C145 1.247 . S
O151 Cd140 2.439 1_455 S
O151 C145 1.208 . S
C152 C153 1.387 1_565 S
C152 H156 0.950 . S
C152 C161 1.390 . S
C153 C152 1.387 1_545 S
C153 C155 1.387 . S
H154 C161 0.950 . S
C155 C153 1.387 . S
C155 C157 1.390 . S
C155 H159 0.950 . S
H156 C152 0.950 . S
C157 C155 1.390 . S
C157 C158 1.387 . S
C157 H160 0.950 . S
C158 C157 1.387 . S
C158 C161 1.387 1_545 S
H159 C155 0.950 . S
H160 C157 0.950 . S
C161 C152 1.390 . S
C161 H154 0.950 . S
C161 C158 1.387 1_565 S
C162 C163 1.387 1_455 S
C162 H166 0.950 . S
C162 C171 1.390 . S
C163 C162 1.387 1_655 S
C163 C165 1.387 . S
H164 C171 0.950 . S
C165 C163 1.387 . S
C165 C167 1.390 . S
C165 H169 0.950 . S
H166 C162 0.950 . S
C167 C165 1.390 . S
C167 C168 1.387 . S
C167 H170 0.950 . S
C168 C167 1.387 . S
C168 C171 1.387 1_655 S
H169 C165 0.950 . S
H170 C167 0.950 . S
C171 C162 1.390 . S
C171 H164 0.950 . S
C171 C168 1.387 1_455 S
C172 C173 1.387 1_545 S
C172 H176 0.950 . S
C172 C181 1.389 1_545 S
C173 C172 1.387 1_565 S
C173 C175 1.387 . S
H174 C181 0.947 1_545 S
C175 C173 1.387 . S
C175 C177 1.390 . S
C175 H179 0.950 . S
H176 C172 0.950 . S
C177 C175 1.390 . S
C177 C178 1.387 . S
C177 H180 0.950 . S
C178 C177 1.387 . S
C178 C181 1.391 . S
H179 C175 0.950 . S
H180 C177 0.950 . S
C181 C172 1.389 1_565 S
C181 H174 0.947 1_565 S
C181 C178 1.391 . S
C182 C183 1.387 1_655 S
C182 H186 0.950 . S
C182 C191 1.390 . S
C183 C182 1.387 1_455 S
C183 C185 1.387 . S
H184 C191 0.950 . S
C185 C183 1.387 . S
C185 C187 1.390 . S
C185 H189 0.950 . S
H186 C182 0.950 . S
C187 C185 1.390 . S
C187 C188 1.387 . S
C187 H190 0.950 . S
C188 C187 1.387 . S
C188 C191 1.387 1_455 S
H189 C185 0.950 . S
H190 C187 0.950 . S
C191 C182 1.390 . S
C191 H184 0.950 . S
C191 C188 1.387 1_655 S
C192 C193 1.387 . S
C192 H196 0.950 . S
C192 C201 1.390 . S
C193 C192 1.387 . S
C193 C195 1.387 1_565 S
H194 C201 0.950 . S
C195 C193 1.387 1_545 S
C195 C197 1.390 . S
C195 H199 0.950 . S
H196 C192 0.950 . S
C197 C195 1.390 . S
C197 C198 1.387 1_545 S
C197 H200 0.950 . S
C198 C197 1.387 1_565 S
C198 C201 1.387 . S
H199 C195 0.950 . S
H200 C197 0.950 . S
C201 C192 1.390 . S
C201 H194 0.950 . S
C201 C198 1.387 . S
C202 C203 1.387 1_655 S
C202 H206 0.950 . S
C202 C211 1.390 . S
C203 C202 1.387 1_455 S
C203 C205 1.387 . S
H204 C211 0.950 . S
C205 C203 1.387 . S
C205 C207 1.390 . S
C205 H209 0.950 . S
H206 C202 0.950 . S
C207 C205 1.390 . S
C207 C208 1.387 . S
C207 H210 0.950 . S
C208 C207 1.387 . S
C208 C211 1.387 1_455 S
H209 C205 0.950 . S
H210 C207 0.950 . S
C211 C202 1.390 . S
C211 H204 0.950 . S
C211 C208 1.387 1_655 S
C212 C213 1.387 . S
C212 H216 0.950 . S
C212 C221 1.390 . S
C213 C212 1.387 . S
C213 C215 1.387 1_545 S
H214 C221 0.950 . S
C215 C213 1.387 1_565 S
C215 C217 1.390 . S
C215 H219 0.950 . S
H216 C212 0.950 . S
C217 C215 1.390 . S
C217 C218 1.387 1_565 S
C217 H220 0.950 . S
C218 C217 1.387 1_545 S
C218 C221 1.387 . S
H219 C215 0.950 . S
H220 C217 0.950 . S
C221 C212 1.390 . S
C221 H214 0.950 . S
C221 C218 1.387 . S
C222 C223 1.387 . S
C222 H226 0.950 . S
C222 C231 1.390 . S
C223 C222 1.387 . S
C223 C225 1.387 1_655 S
H224 C231 0.950 . S
C225 C223 1.387 1_455 S
C225 C227 1.390 . S
C225 H229 0.950 . S
H226 C222 0.950 . S
C227 C225 1.390 . S
C227 C228 1.387 1_455 S
C227 H230 0.950 . S
C228 C227 1.387 1_655 S
C228 C231 1.387 . S
H229 C225 0.950 . S
H230 C227 0.950 . S
C231 C222 1.390 . S
C231 H224 0.950 . S
C231 C228 1.387 . S
C158 C133 1.829 . S
C153 C47 1.707 . S
C168 C144 1.732 . S
C163 C109 1.689 . S
C178 C132 1.829 . S
C173 C29 1.736 1_565 S
C188 C145 1.734 . S
C183 C91 1.724 1_455 S
C198 C147 1.627 . S
C193 C53 1.628 1_565 S
C208 C131 1.458 . S
C203 C115 1.523 1_455 S
C218 C146 1.627 . S
C213 C35 1.620 . S
C223 C97 1.512 . S
C228 C130 1.461 . S
