# Generated by pormake.
# Topology pth, (4,4)-cn, num edge types: 1
# Building blocks:
#     Node 0, Type 0, BuildingBlock: CEKHIL_clean_sbu_0, # of connection points: 4
#     Node 1, Type 0, BuildingBlock: CEKHIL_clean_sbu_0, # of connection points: 4
#     Node 2, Type 0, BuildingBlock: CEKHIL_clean_sbu_0, # of connection points: 4
#     Node 3, Type 1, BuildingBlock: MUDLON_clean_linker_0, # of connection points: 4
#     Node 4, Type 1, BuildingBlock: MUDLON_clean_linker_0, # of connection points: 4
#     Node 5, Type 1, BuildingBlock: MUDLON_clean_linker_0, # of connection points: 4
#     Edge 6, Type (0, 1), None
#     Edge 7, Type (0, 1), None
#     Edge 8, Type (0, 1), None
#     Edge 9, Type (0, 1), None
#     Edge 10, Type (0, 1), None
#     Edge 11, Type (0, 1), None
#     Edge 12, Type (0, 1), None
#     Edge 13, Type (0, 1), None
#     Edge 14, Type (0, 1), None
#     Edge 15, Type (0, 1), None
#     Edge 16, Type (0, 1), None
#     Edge 17, Type (0, 1), None
# Relax obj value: 0.042
# Max RMSD: 0.092
# Mean RMSD: 0.088
data_MOF--net-pth--node1-CEKHIL_clean_sbu_0--node2-MUDLON_clean_linker_0--edge1-none
_symmetry_space_group_name_H-M    P1
_symmetry_Int_Tables_number       1
_symmetry_cell_setting            triclinic
loop_
_symmetry_equiv_pos_as_xyz
'x, y, z'
_cell_length_a     19.680243
_cell_length_b     19.759886
_cell_length_c     38.824759
_cell_angle_alpha  91.232697
_cell_angle_beta   89.828025
_cell_angle_gamma 120.46689
loop_
_atom_site_label
_atom_site_type_symbol
_atom_site_fract_x
_atom_site_fract_y
_atom_site_fract_z
_atom_type_partial_charge
Co0 Co 0.99087 0.02055 0.07711 0.0
O1 O 0.92971 0.94829 0.11194 0.0
O2 O 0.02179 0.94114 0.0824 0.0
C3 C 0.02238 0.12661 0.11204 0.0
O4 O 0.06489 0.08852 0.03876 0.0
Co5 Co 0.92961 0.12308 0.05115 0.0
O6 O 0.02964 0.17688 0.0259 0.0
C7 C 0.86817 0.96644 1.01909 0.0
C8 C 0.96976 0.91393 0.10693 0.0
C9 C 0.07381 0.14771 1.02153 0.0
O10 O 0.90962 0.95406 0.04084 0.0
O11 O 0.86482 0.02947 1.01972 0.0
O12 O 0.06395 0.09288 0.11129 0.0
O13 O 0.95876 0.09252 0.09316 0.0
Co14 Co 0.98815 0.00833 0.38348 0.0
O15 O 0.94039 0.03708 0.34808 0.0
O16 O 0.0462 0.12186 0.37775 0.0
C17 C 0.98781 0.91381 0.34869 0.0
O18 O 0.05458 -0.00044 0.42174 0.0
Co19 Co 0.90072 0.84512 0.41257 0.0
O20 O -0.00334 0.87588 0.44012 0.0
C21 C 0.86771 0.96532 0.4407 0.0
C22 C -0.00286 0.10871 0.35253 0.0
C23 C 0.05251 0.94702 0.44158 0.0
O24 O 0.91831 0.01535 0.41982 0.0
O25 O 0.84847 0.89295 0.44039 0.0
O26 O 0.0453 0.98581 0.34892 0.0
O27 O 0.93029 0.89985 0.36932 0.0
Co28 Co 0.0023 0.04293 0.71879 0.0
O29 O 0.07768 0.10049 0.68409 0.0
O30 O 0.067 0.99562 0.70819 0.0
C31 C 0.90264 0.0361 0.68631 0.0
O32 O 0.92925 0.96936 0.75584 0.0
Co33 Co 0.91695 0.11704 0.75299 0.0
O34 O 0.85077 0.01416 0.77438 0.0
C35 C 0.0745 0.15976 0.77906 0.0
C36 C 0.09998 0.04948 0.68501 0.0
C37 C 0.87249 0.96353 0.77472 0.0
O38 O 0.0772 0.11286 0.75633 0.0
O39 O 0.01787 0.17392 0.78065 0.0
O40 O 0.9233 0.98371 0.68382 0.0
O41 O 0.94391 0.09343 0.70806 0.0
H42 H 0.83754 0.69572 0.27678 0.0
N43 N 0.93607 0.73123 0.2241 0.0
H44 H 0.85917 0.77041 0.3311 0.0
H45 H 0.06972 0.86817 0.24313 0.0
H46 H 0.09237 0.94194 0.29706 0.0
H47 H 0.07076 0.81344 0.18568 0.0
H48 H 0.08374 0.88783 0.13362 0.0
H49 H 0.82334 0.73696 0.18998 0.0
H50 H 0.83568 0.81025 0.13817 0.0
H51 H 0.84349 0.58058 0.20795 0.0
H52 H 0.08062 0.75095 0.23991 0.0
H53 H 0.87603 0.47659 0.20984 0.0
H54 H 0.11268 0.6475 0.2437 0.0
H55 H 0.92764 0.17484 0.25057 0.0
H56 H 0.89726 0.09429 0.30104 0.0
H57 H 0.12986 0.25282 0.3427 0.0
H58 H 0.15972 0.33463 0.29166 0.0
H59 H 0.17402 0.2858 0.20311 0.0
H60 H 0.15686 0.21326 0.14897 0.0
H61 H 0.91628 0.16203 0.14154 0.0
H62 H 0.93428 0.2356 0.19573 0.0
H63 H 0.92994 0.29978 0.25453 0.0
H64 H 0.9012 0.40526 0.25109 0.0
H65 H 0.13427 0.55775 0.21077 0.0
N66 N 0.06846 0.30704 0.23635 0.0
H67 H 0.16394 0.45229 0.21608 0.0
C68 C 0.95124 0.77685 0.25566 0.0
C69 C 0.89323 0.74952 0.28121 0.0
C70 C 0.90599 0.79173 0.31233 0.0
C71 C 0.97749 0.86206 0.31849 0.0
C72 C 0.03656 0.88791 0.29325 0.0
C73 C 0.02352 0.84604 0.26213 0.0
C74 C 0.94596 0.77092 0.19211 0.0
C75 C 0.01902 0.81162 0.17517 0.0
C76 C 0.02621 0.85297 0.14506 0.0
C77 C 0.96061 0.85425 0.13172 0.0
C78 C 0.88718 0.80993 0.14775 0.0
C79 C 0.88007 0.76877 0.17753 0.0
C80 C 0.95902 0.6729 0.22412 0.0
C81 C 0.90245 0.59526 0.21548 0.0
C82 C 0.92104 0.53605 0.21691 0.0
C83 C -0.00328 0.55354 0.22737 0.0
C84 C 0.05404 0.63201 0.23528 0.0
C85 C 0.03557 0.69131 0.23342 0.0
C86 C 0.04677 0.26036 0.26696 0.0
C87 C 0.97204 0.1931 0.27055 0.0
C88 C 0.95452 0.14724 0.29973 0.0
C89 C 0.01126 0.16705 0.32595 0.0
C90 C 0.08469 0.23631 0.32314 0.0
C91 C 0.10209 0.28253 0.29387 0.0
C92 C 0.05553 0.26506 0.20385 0.0
C93 C 0.11783 0.25936 0.18969 0.0
C94 C 0.10794 0.21845 0.15862 0.0
C95 C 0.03513 0.18197 0.14095 0.0
C96 C 0.97323 0.19013 0.15437 0.0
C97 C 0.98326 0.23131 0.18562 0.0
C98 C 0.04993 0.36869 0.23604 0.0
C99 C 0.97543 0.35605 0.24548 0.0
C100 C 0.95862 0.41636 0.24303 0.0
C101 C 0.01531 0.48998 0.23052 0.0
C102 C 0.08967 0.50225 0.22104 0.0
C103 C 0.10671 0.44216 0.22391 0.0
H104 H 0.85257 0.18387 0.6098 0.0
N105 N 0.77644 0.07538 0.56046 0.0
H106 H 0.9033 0.16819 0.66499 0.0
H107 H 0.75672 0.93772 0.58591 0.0
H108 H 0.8068 0.92182 0.6404 0.0
H109 H 0.69838 0.92643 0.53188 0.0
H110 H 0.73675 0.8807 0.48044 0.0
H111 H 0.89629 0.15975 0.51891 0.0
H112 H 0.93377 0.11534 0.46668 0.0
H113 H 0.73975 0.17444 0.53319 0.0
H114 H 0.63867 0.95491 0.58594 0.0
H115 H 0.61098 0.16447 0.53156 0.0
H116 H 0.51099 0.94663 0.58646 0.0
H117 H 0.25981 0.16882 0.59214 0.0
H118 H 0.19921 0.17236 0.64653 0.0
H119 H 0.11256 0.92499 0.65889 0.0
H120 H 0.17601 0.9229 0.60421 0.0
H121 H 0.14372 0.89663 0.54277 0.0
H122 H 0.06077 0.85438 0.49108 0.0
H123 H 0.17443 0.09529 0.45839 0.0
H124 H 0.25777 0.13635 0.51036 0.0
H125 H 0.39698 0.17223 0.56781 0.0
H126 H 0.52352 0.17736 0.56821 0.0
H127 H 0.40201 0.9249 0.55288 0.0
N128 N 0.25481 0.04615 0.56105 0.0
H129 H 0.27567 0.92069 0.55474 0.0
C130 C 0.80279 0.06283 0.59317 0.0
C131 C 0.84208 0.12647 0.61654 0.0
C132 C 0.87004 0.1172 0.64822 0.0
C133 C 0.85915 0.04378 0.65703 0.0
C134 C 0.81632 0.97925 0.63433 0.0
C135 C 0.78835 0.98852 0.6028 0.0
C136 C 0.79606 0.04633 0.52982 0.0
C137 C 0.75024 0.96786 0.51802 0.0
C138 C 0.77168 0.94198 0.4883 0.0
C139 C 0.83817 0.99436 0.46929 0.0
C140 C 0.88178 0.07349 0.48043 0.0
C141 C 0.86111 0.09888 0.51048 0.0
C142 C 0.69924 0.06652 0.56013 0.0
C143 C 0.68976 0.12456 0.54473 0.0
C144 C 0.61624 0.11891 0.5441 0.0
C145 C 0.55058 0.05525 0.55934 0.0
C146 C 0.55994 0.99615 0.57424 0.0
C147 C 0.6334 0.00129 0.57434 0.0
C148 C 0.22046 0.04549 0.59384 0.0
C149 C 0.22842 0.11564 0.60676 0.0
C150 C 0.19435 0.11749 0.638 0.0
C151 C 0.15096 0.04883 0.65704 0.0
C152 C 0.14629 0.97893 0.64499 0.0
C153 C 0.18116 0.97733 0.61352 0.0
C154 C 0.20619 0.01974 0.53049 0.0
C155 C 0.15113 0.94011 0.52435 0.0
C156 C 0.10405 0.91613 0.49456 0.0
C157 C 0.11077 0.9714 0.47034 0.0
C158 C 0.16772 0.05098 0.47625 0.0
C159 C 0.21494 0.07472 0.50603 0.0
C160 C 0.32769 0.04646 0.5609 0.0
C161 C 0.39813 0.11823 0.56465 0.0
C162 C 0.47023 0.1209 0.56453 0.0
C163 C 0.47327 0.0516 0.56014 0.0
C164 C 0.40202 0.97935 0.55664 0.0
C165 C 0.3297 0.97676 0.55733 0.0
H166 H 0.72952 0.88609 0.91495 0.0
N167 N 0.76775 0.77477 0.89511 0.0
H168 H 0.77022 0.96513 0.96818 0.0
H169 H 0.84803 0.76514 0.94758 0.0
H170 H 0.8877 0.84254 1.00132 0.0
H171 H 0.89459 0.80934 0.85776 0.0
H172 H 0.93885 0.88631 0.8051 0.0
H173 H 0.68811 0.83216 0.85923 0.0
H174 H 0.7318 0.909 0.80738 0.0
H175 H 0.61782 0.74823 0.90197 0.0
H176 H 0.7543 0.63447 0.89042 0.0
H177 H 0.49685 0.62117 0.90168 0.0
H178 H 0.63403 0.50618 0.8931 0.0
H179 H 0.16285 0.29215 0.92255 0.0
H180 H 0.08475 0.25151 0.97383 0.0
H181 H 0.18741 0.11141 1.00146 0.0
H182 H 0.26888 0.1554 0.94924 0.0
H183 H 0.22745 0.12536 0.8596 0.0
H184 H 0.14801 0.08803 0.80662 0.0
H185 H 0.13037 0.29661 0.81715 0.0
H186 H 0.21375 0.3358 0.86898 0.0
H187 H 0.29968 0.38758 0.93499 0.0
H188 H 0.42042 0.5125 0.93401 0.0
H189 H 0.52118 0.4144 0.86401 0.0
N190 N 0.26922 0.24996 0.90067 0.0
H191 H 0.40086 0.28658 0.86724 0.0
C192 C 0.78772 0.82088 0.92678 0.0
C193 C 0.76408 0.87617 0.93353 0.0
C194 C 0.78677 0.92097 0.96432 0.0
C195 C 0.83246 0.91059 0.98921 0.0
C196 C 0.85239 0.85233 0.98296 0.0
C197 C 0.83048 0.80839 0.95209 0.0
C198 C 0.78902 0.81609 0.86301 0.0
C199 C 0.85846 0.83023 0.84655 0.0
C200 C 0.88312 0.87338 0.81625 0.0
C201 C 0.83886 0.90386 0.80198 0.0
C202 C 0.76741 0.88653 0.81769 0.0
C203 C 0.74256 0.84289 0.84772 0.0
C204 C 0.69502 0.70065 0.89536 0.0
C205 C 0.62172 0.69578 0.89915 0.0
C206 C 0.55241 0.6226 0.89965 0.0
C207 C 0.55501 0.55264 0.89739 0.0
C208 C 0.62898 0.55824 0.89411 0.0
C209 C 0.698 0.63148 0.89285 0.0
C210 C 0.22223 0.22687 0.93169 0.0
C211 C 0.16952 0.25312 0.9394 0.0
C212 C 0.1249 0.22999 0.9693 0.0
C213 C 0.12973 0.17816 0.9922 0.0
C214 C 0.18254 0.15178 0.98463 0.0
C215 C 0.22873 0.17648 0.95474 0.0
C216 C 0.22464 0.23186 0.86885 0.0
C217 C 0.2072 0.1634 0.85021 0.0
C218 C 0.16253 0.1427 0.81978 0.0
C219 C 0.13292 0.18947 0.8077 0.0
C220 C 0.15217 0.25933 0.82587 0.0
C221 C 0.19884 0.28114 0.85581 0.0
C222 C 0.34078 0.32605 0.90147 0.0
C223 C 0.34738 0.39157 0.91973 0.0
C224 C 0.417 0.46433 0.91878 0.0
C225 C 0.48118 0.47442 0.89883 0.0
C226 C 0.47403 0.40905 0.88028 0.0
C227 C 0.40499 0.33585 0.88188 0.0
loop_
_geom_bond_atom_site_label_1
_geom_bond_atom_site_label_2
_geom_bond_distance
_geom_bond_site_symmetry_2
_ccdc_geom_bond_type
Co0 O1 2.216 1_445 S
Co0 O2 2.091 1_545 S
Co0 O4 2.004 . S
Co0 O10 2.021 1_445 S
Co0 O12 2.137 . S
Co0 O13 2.244 1_455 S
O1 Co0 2.216 1_665 S
O1 C8 1.247 1_655 S
O2 Co0 2.091 1_565 S
O2 C8 1.261 . S
C3 O12 1.247 . S
C3 O13 1.272 1_455 S
O4 Co0 2.004 . S
O4 C9 1.259 1_554 S
Co5 O6 2.061 1_654 S
Co5 O11 2.052 1_544 S
Co5 O13 2.135 . S
O6 Co5 2.061 1_456 S
O6 C9 1.235 . S
C7 O10 1.238 1_556 S
C7 O11 1.241 . S
C8 O1 1.247 1_455 S
C8 O2 1.261 . S
C9 O4 1.259 1_556 S
C9 O6 1.235 . S
O10 Co0 2.021 1_665 S
O10 C7 1.238 1_554 S
O11 Co5 2.052 1_566 S
O11 C7 1.241 . S
O12 Co0 2.137 . S
O12 C3 1.247 . S
O13 Co0 2.244 1_655 S
O13 C3 1.272 1_655 S
O13 Co5 2.135 . S
Co14 O15 2.216 1_455 S
Co14 O16 2.091 . S
Co14 O18 2.004 . S
Co14 O24 2.021 1_455 S
Co14 O26 2.137 1_545 S
Co14 O27 2.244 1_445 S
O15 Co14 2.216 1_655 S
O15 C22 1.247 1_655 S
O16 Co14 2.091 . S
O16 C22 1.261 . S
C17 O26 1.247 . S
C17 O27 1.272 1_455 S
O18 Co14 2.004 . S
O18 C23 1.259 . S
Co19 O20 2.061 1_655 S
Co19 O25 2.052 . S
Co19 O27 2.135 . S
O20 Co19 2.061 1_455 S
O20 C23 1.235 1_565 S
C21 O24 1.238 . S
C21 O25 1.241 1_545 S
C22 O15 1.247 1_455 S
C22 O16 1.261 . S
C23 O18 1.259 . S
C23 O20 1.235 1_545 S
O24 Co14 2.021 1_655 S
O24 C21 1.238 . S
O25 Co19 2.052 . S
O25 C21 1.241 1_565 S
O26 Co14 2.137 1_565 S
O26 C17 1.247 . S
O27 Co14 2.244 1_665 S
O27 C17 1.272 1_655 S
O27 Co19 2.135 . S
Co28 O29 2.216 1_565 S
Co28 O30 2.091 . S
Co28 O32 2.004 1_455 S
Co28 O38 2.021 1_565 S
Co28 O40 2.137 1_455 S
Co28 O41 2.244 1_465 S
O29 Co28 2.216 1_545 S
O29 C36 1.247 . S
O30 Co28 2.091 . S
O30 C36 1.261 1_565 S
C31 O40 1.247 1_545 S
C31 O41 1.272 . S
O32 Co28 2.004 1_655 S
O32 C37 1.259 . S
Co33 O34 2.061 1_545 S
Co33 O39 2.052 1_655 S
Co33 O41 2.135 . S
O34 Co33 2.061 1_565 S
O34 C37 1.235 . S
C35 O38 1.238 . S
C35 O39 1.241 . S
C36 O29 1.247 . S
C36 O30 1.261 1_545 S
C37 O32 1.259 . S
C37 O34 1.235 . S
O38 Co28 2.021 1_545 S
O38 C35 1.238 . S
O39 Co33 2.052 1_455 S
O39 C35 1.241 . S
O40 Co28 2.137 1_655 S
O40 C31 1.247 1_565 S
O41 Co28 2.244 1_645 S
O41 C31 1.272 . S
O41 Co33 2.135 . S
H42 C69 0.929 . S
N43 C68 1.433 . S
N43 C74 1.435 . S
N43 C80 1.423 . S
H44 C70 0.930 . S
H45 C73 0.931 . S
H46 C72 0.929 . S
H47 C75 0.930 . S
H48 C76 0.932 . S
H49 C79 0.929 . S
H50 C78 0.931 . S
H51 C81 0.929 . S
H52 C85 0.934 . S
H53 C82 0.931 . S
H54 C84 0.929 1_455 S
H55 C87 0.929 . S
H56 C88 0.930 . S
H57 C90 0.929 . S
H58 C91 0.931 . S
H59 C93 0.930 . S
H60 C94 0.932 . S
H61 C96 0.931 . S
H62 C97 0.929 . S
H63 C99 0.929 . S
H64 C100 0.931 . S
H65 C102 0.929 1_455 S
N66 C86 1.433 . S
N66 C92 1.435 . S
N66 C98 1.423 . S
H67 C103 0.937 . S
C68 N43 1.433 . S
C68 C69 1.363 . S
C68 C73 1.370 1_655 S
C69 H42 0.929 . S
C69 C68 1.363 . S
C69 C70 1.385 . S
C70 H44 0.930 . S
C70 C69 1.385 . S
C70 C71 1.357 1_655 S
C71 C70 1.357 1_455 S
C71 C72 1.406 . S
C72 H46 0.929 . S
C72 C71 1.406 . S
C72 C73 1.391 . S
C73 H45 0.931 . S
C73 C68 1.370 1_455 S
C73 C72 1.391 . S
C74 N43 1.435 . S
C74 C75 1.358 1_655 S
C74 C79 1.371 . S
C75 H47 0.930 . S
C75 C74 1.358 1_455 S
C75 C76 1.405 . S
C76 H48 0.932 . S
C76 C75 1.405 . S
C76 C77 1.383 . S
C77 C76 1.383 . S
C77 C78 1.393 1_455 S
C78 H50 0.931 . S
C78 C77 1.393 1_655 S
C78 C79 1.382 . S
C79 H49 0.929 . S
C79 C74 1.371 . S
C79 C78 1.382 . S
C80 N43 1.423 . S
C80 C81 1.362 . S
C80 C85 1.383 1_655 S
C81 H51 0.929 . S
C81 C80 1.362 . S
C81 C82 1.376 . S
C82 H53 0.931 . S
C82 C81 1.376 . S
C82 C83 1.396 . S
C83 C82 1.396 . S
C83 C84 1.348 . S
C83 C101 1.472 . S
C84 H54 0.929 1_655 S
C84 C83 1.348 . S
C84 C85 1.446 1_655 S
C85 H52 0.934 . S
C85 C80 1.383 1_455 S
C85 C84 1.446 1_455 S
C86 N66 1.433 . S
C86 C87 1.363 . S
C86 C91 1.370 1_655 S
C87 H55 0.929 . S
C87 C86 1.363 . S
C87 C88 1.385 . S
C88 H56 0.930 . S
C88 C87 1.385 . S
C88 C89 1.357 1_655 S
C89 C88 1.357 1_455 S
C89 C90 1.406 . S
C90 H57 0.929 . S
C90 C89 1.406 . S
C90 C91 1.391 . S
C91 H58 0.931 . S
C91 C86 1.370 1_455 S
C91 C90 1.391 . S
C92 N66 1.435 . S
C92 C93 1.358 1_655 S
C92 C97 1.371 . S
C93 H59 0.930 . S
C93 C92 1.358 1_455 S
C93 C94 1.405 . S
C94 H60 0.932 . S
C94 C93 1.405 . S
C94 C95 1.384 1_455 S
C95 C94 1.384 1_655 S
C95 C96 1.391 . S
C96 H61 0.931 . S
C96 C95 1.391 . S
C96 C97 1.382 . S
C97 H62 0.929 . S
C97 C92 1.371 . S
C97 C96 1.382 . S
C98 N66 1.423 . S
C98 C99 1.362 . S
C98 C103 1.387 1_655 S
C99 H63 0.929 . S
C99 C98 1.362 . S
C99 C100 1.376 . S
C100 H64 0.931 . S
C100 C99 1.376 . S
C100 C101 1.396 . S
C101 C83 1.472 . S
C101 C100 1.396 . S
C101 C102 1.348 . S
C102 H65 0.929 1_655 S
C102 C101 1.348 . S
C102 C103 1.439 1_655 S
C103 H67 0.937 . S
C103 C98 1.387 1_455 S
C103 C102 1.439 1_455 S
H104 C131 0.929 . S
N105 C130 1.433 . S
N105 C136 1.435 . S
N105 C142 1.423 . S
H106 C132 0.930 . S
H107 C135 0.931 . S
H108 C134 0.929 . S
H109 C137 0.930 . S
H110 C138 0.932 . S
H111 C141 0.929 . S
H112 C140 0.931 . S
H113 C143 0.929 . S
H114 C147 0.932 1_565 S
H115 C144 0.931 . S
H116 C146 0.929 . S
H117 C149 0.929 . S
H118 C150 0.930 . S
H119 C152 0.929 . S
H120 C153 0.931 . S
H121 C155 0.930 . S
H122 C156 0.932 . S
H123 C158 0.931 . S
H124 C159 0.929 . S
H125 C161 0.929 . S
H126 C162 0.931 . S
H127 C164 0.929 . S
N128 C148 1.433 . S
N128 C154 1.435 . S
N128 C160 1.423 . S
H129 C165 0.932 1_565 S
C130 N105 1.433 . S
C130 C131 1.363 . S
C130 C135 1.370 1_545 S
C131 H104 0.929 . S
C131 C130 1.363 . S
C131 C132 1.385 . S
C132 H106 0.930 . S
C132 C131 1.385 . S
C132 C133 1.357 . S
C133 C132 1.357 . S
C133 C134 1.406 1_545 S
C134 H108 0.929 . S
C134 C133 1.406 1_565 S
C134 C135 1.391 . S
C135 H107 0.931 . S
C135 C130 1.370 1_565 S
C135 C134 1.391 . S
C136 N105 1.435 . S
C136 C137 1.358 1_545 S
C136 C141 1.371 . S
C137 H109 0.930 . S
C137 C136 1.358 1_565 S
C137 C138 1.405 . S
C138 H110 0.932 . S
C138 C137 1.405 . S
C138 C139 1.383 1_565 S
C139 C138 1.383 1_545 S
C139 C140 1.393 . S
C140 H112 0.931 . S
C140 C139 1.393 . S
C140 C141 1.382 . S
C141 H111 0.929 . S
C141 C136 1.371 . S
C141 C140 1.382 . S
C142 N105 1.423 . S
C142 C143 1.362 . S
C142 C147 1.388 . S
C143 H113 0.929 . S
C143 C142 1.362 . S
C143 C144 1.376 . S
C144 H115 0.931 . S
C144 C143 1.376 . S
C144 C145 1.396 . S
C145 C144 1.396 . S
C145 C146 1.348 . S
C145 C163 1.472 . S
C146 H116 0.929 . S
C146 C145 1.348 . S
C146 C147 1.443 . S
C147 H114 0.932 1_545 S
C147 C142 1.388 . S
C147 C146 1.443 . S
C148 N128 1.433 . S
C148 C149 1.363 . S
C148 C153 1.370 1_545 S
C149 H117 0.929 . S
C149 C148 1.363 . S
C149 C150 1.385 . S
C150 H118 0.930 . S
C150 C149 1.385 . S
C150 C151 1.357 . S
C151 C150 1.357 . S
C151 C152 1.406 1_545 S
C152 H119 0.929 . S
C152 C151 1.406 1_565 S
C152 C153 1.391 . S
C153 H120 0.931 . S
C153 C148 1.370 1_565 S
C153 C152 1.391 . S
C154 N128 1.435 . S
C154 C155 1.358 1_545 S
C154 C159 1.371 . S
C155 H121 0.930 . S
C155 C154 1.358 1_565 S
C155 C156 1.405 . S
C156 H122 0.932 . S
C156 C155 1.405 . S
C156 C157 1.383 1_565 S
C157 C156 1.383 1_545 S
C157 C158 1.393 . S
C158 H123 0.931 . S
C158 C157 1.393 . S
C158 C159 1.382 . S
C159 H124 0.929 . S
C159 C154 1.371 . S
C159 C158 1.382 . S
C160 N128 1.423 . S
C160 C161 1.362 . S
C160 C165 1.388 . S
C161 H125 0.929 . S
C161 C160 1.362 . S
C161 C162 1.376 . S
C162 H126 0.931 . S
C162 C161 1.376 . S
C162 C163 1.396 . S
C163 C145 1.472 . S
C163 C162 1.396 . S
C163 C164 1.348 . S
C164 H127 0.929 . S
C164 C163 1.348 . S
C164 C165 1.443 . S
C165 H129 0.932 1_545 S
C165 C160 1.388 . S
C165 C164 1.443 . S
H166 C193 0.929 . S
N167 C192 1.433 . S
N167 C198 1.435 . S
N167 C204 1.423 . S
H168 C194 0.930 . S
H169 C197 0.931 . S
H170 C196 0.929 . S
H171 C199 0.930 . S
H172 C200 0.932 . S
H173 C203 0.929 . S
H174 C202 0.931 . S
H175 C205 0.929 . S
H176 C209 0.932 . S
H177 C206 0.931 . S
H178 C208 0.929 . S
H179 C211 0.929 . S
H180 C212 0.930 . S
H181 C214 0.929 . S
H182 C215 0.931 . S
H183 C217 0.930 . S
H184 C218 0.932 . S
H185 C220 0.931 . S
H186 C221 0.929 . S
H187 C223 0.929 . S
H188 C224 0.931 . S
H189 C226 0.929 . S
N190 C210 1.433 . S
N190 C216 1.435 . S
N190 C222 1.423 . S
H191 C227 0.932 . S
C192 N167 1.433 . S
C192 C193 1.363 . S
C192 C197 1.370 . S
C193 H166 0.929 . S
C193 C192 1.363 . S
C193 C194 1.385 . S
C194 H168 0.930 . S
C194 C193 1.385 . S
C194 C195 1.357 . S
C195 C194 1.357 . S
C195 C196 1.406 . S
C196 H170 0.929 . S
C196 C195 1.406 . S
C196 C197 1.391 . S
C197 H169 0.931 . S
C197 C192 1.370 . S
C197 C196 1.391 . S
C198 N167 1.435 . S
C198 C199 1.358 . S
C198 C203 1.371 . S
C199 H171 0.930 . S
C199 C198 1.358 . S
C199 C200 1.405 . S
C200 H172 0.932 . S
C200 C199 1.405 . S
C200 C201 1.383 . S
C201 C200 1.383 . S
C201 C202 1.393 . S
C202 H174 0.931 . S
C202 C201 1.393 . S
C202 C203 1.382 . S
C203 H173 0.929 . S
C203 C198 1.371 . S
C203 C202 1.382 . S
C204 N167 1.423 . S
C204 C205 1.362 . S
C204 C209 1.388 . S
C205 H175 0.929 . S
C205 C204 1.362 . S
C205 C206 1.376 . S
C206 H177 0.931 . S
C206 C205 1.376 . S
C206 C207 1.396 . S
C207 C206 1.396 . S
C207 C208 1.348 . S
C207 C225 1.472 . S
C208 H178 0.929 . S
C208 C207 1.348 . S
C208 C209 1.443 . S
C209 H176 0.932 . S
C209 C204 1.388 . S
C209 C208 1.443 . S
C210 N190 1.433 . S
C210 C211 1.363 . S
C210 C215 1.370 . S
C211 H179 0.929 . S
C211 C210 1.363 . S
C211 C212 1.385 . S
C212 H180 0.930 . S
C212 C211 1.385 . S
C212 C213 1.357 . S
C213 C212 1.357 . S
C213 C214 1.406 . S
C214 H181 0.929 . S
C214 C213 1.406 . S
C214 C215 1.391 . S
C215 H182 0.931 . S
C215 C210 1.370 . S
C215 C214 1.391 . S
C216 N190 1.435 . S
C216 C217 1.358 . S
C216 C221 1.371 . S
C217 H183 0.930 . S
C217 C216 1.358 . S
C217 C218 1.405 . S
C218 H184 0.932 . S
C218 C217 1.405 . S
C218 C219 1.383 . S
C219 C218 1.383 . S
C219 C220 1.393 . S
C220 H185 0.931 . S
C220 C219 1.393 . S
C220 C221 1.382 . S
C221 H186 0.929 . S
C221 C216 1.371 . S
C221 C220 1.382 . S
C222 N190 1.423 . S
C222 C223 1.362 . S
C222 C227 1.388 . S
C223 H187 0.929 . S
C223 C222 1.362 . S
C223 C224 1.376 . S
C224 H188 0.931 . S
C224 C223 1.376 . S
C224 C225 1.396 . S
C225 C207 1.472 . S
C225 C224 1.396 . S
C225 C226 1.348 . S
C226 H189 0.929 . S
C226 C225 1.348 . S
C226 C227 1.443 . S
C227 H191 0.932 . S
C227 C222 1.388 . S
C227 C226 1.443 . S
C95 C3 1.848 1_655 S
C21 C139 1.857 . S
C37 C201 1.863 . S
C8 C77 1.889 . S
C157 C23 1.785 . S
C35 C219 1.800 . S
C133 C31 1.694 . S
C7 C195 1.709 . S
C71 C17 1.722 . S
C151 C36 1.685 . S
C213 C9 1.728 . S
C22 C89 1.758 . S
