# Generated by pormake.
# Topology pts, (4,4)-cn, num edge types: 1
# Building blocks:
#     Node 0, Type 0, BuildingBlock: NAWXER_clean_linker_0, # of connection points: 4
#     Node 1, Type 0, BuildingBlock: NAWXER_clean_linker_0, # of connection points: 4
#     Node 2, Type 1, BuildingBlock: QUQFOY_clean_sbu_1, # of connection points: 4
#     Node 3, Type 1, BuildingBlock: QUQFOY_clean_sbu_1, # of connection points: 4
#     Edge 4, Type (0, 1), BuildingBlock: OJICUG_clean_linker_0, # of connection points: 2
#     Edge 5, Type (0, 1), BuildingBlock: OJICUG_clean_linker_0, # of connection points: 2
#     Edge 6, Type (0, 1), BuildingBlock: OJICUG_clean_linker_0, # of connection points: 2
#     Edge 7, Type (0, 1), BuildingBlock: OJICUG_clean_linker_0, # of connection points: 2
#     Edge 8, Type (0, 1), BuildingBlock: OJICUG_clean_linker_0, # of connection points: 2
#     Edge 9, Type (0, 1), BuildingBlock: OJICUG_clean_linker_0, # of connection points: 2
#     Edge 10, Type (0, 1), BuildingBlock: OJICUG_clean_linker_0, # of connection points: 2
#     Edge 11, Type (0, 1), BuildingBlock: OJICUG_clean_linker_0, # of connection points: 2
# Relax obj value: 0.094
# Max RMSD: 0.251
# Mean RMSD: 0.144
data_MOF--net-pts--node1-QUQFOY_clean_sbu_1--node2-NAWXER_clean_linker_0--edge1-OJICUG_clean_linker_0
_symmetry_space_group_name_H-M    P1
_symmetry_Int_Tables_number       1
_symmetry_cell_setting            triclinic
loop_
_symmetry_equiv_pos_as_xyz
'x, y, z'
_cell_length_a     22.826566
_cell_length_b     24.356941
_cell_length_c     33.787181
_cell_angle_alpha  89.67595
_cell_angle_beta   89.938566
_cell_angle_gamma 90.688764
loop_
_atom_site_label
_atom_site_type_symbol
_atom_site_fract_x
_atom_site_fract_y
_atom_site_fract_z
_atom_type_partial_charge
C0 C 0.66409 0.02957 0.95423 0.0
C1 C 0.66817 0.98982 0.92432 0.0
C2 C 0.6161 0.02968 0.97993 0.0
C3 C 0.57169 0.9896 0.97655 0.0
C4 C 0.62365 0.94974 0.9211 0.0
C5 C 0.57586 0.94978 0.94686 0.0
C6 C 0.51801 0.99174 1.00097 0.0
C7 C 0.66209 0.96202 0.08972 0.0
C8 C 0.66694 0.00172 0.11967 0.0
C9 C 0.61443 0.96209 0.0638 0.0
C10 C 0.57116 0.00232 0.06699 0.0
C11 C 0.62353 0.0419 0.12274 0.0
C12 C 0.57608 0.04205 0.09675 0.0
C13 C 0.51781 0.00044 0.04225 0.0
C14 C 0.26721 0.96256 0.08873 0.0
C15 C 0.26313 0.00224 0.11869 0.0
C16 C 0.31516 0.96256 0.06298 0.0
C17 C 0.35951 0.00271 0.06636 0.0
C18 C 0.30758 0.04239 0.1219 0.0
C19 C 0.35532 0.04247 0.09609 0.0
C20 C 0.41319 0.00063 0.04194 0.0
C21 C 0.26906 0.02999 0.9531 0.0
C22 C 0.26431 0.99024 0.92318 0.0
C23 C 0.31669 0.03005 0.97905 0.0
C24 C 0.36005 0.9899 0.97591 0.0
C25 C 0.30781 0.95012 0.92018 0.0
C26 C 0.35523 0.9501 0.94619 0.0
C27 C 0.41339 0.99191 1.00065 0.0
H28 H 0.69789 0.06075 0.95769 0.0
H29 H 0.6131 0.06188 1.00179 0.0
H30 H 0.62494 0.91908 0.89803 0.0
H31 H 0.54168 0.91894 0.9433 0.0
H32 H 0.69504 0.93076 0.08636 0.0
H33 H 0.6108 0.92994 0.0419 0.0
H34 H 0.62542 0.07252 0.14583 0.0
H35 H 0.54275 0.07298 0.10018 0.0
H36 H 0.23347 0.93133 0.08528 0.0
H37 H 0.31817 0.9304 0.04111 0.0
H38 H 0.30629 0.07299 0.145 0.0
H39 H 0.38946 0.07334 0.09965 0.0
H40 H 0.23605 0.06121 0.9564 0.0
H41 H 0.32023 0.06224 1.00093 0.0
H42 H 0.306 0.91945 0.89711 0.0
H43 H 0.38862 0.91921 0.9428 0.0
N44 N 0.46579 0.98762 0.98195 0.0
N45 N 0.4654 0.00475 0.06095 0.0
C46 C -0.00078 0.6836 0.58614 0.0
C47 C 0.95663 0.68787 0.61601 0.0
C48 C 0.00031 0.63752 0.56162 0.0
C49 C 0.95811 0.59538 0.56602 0.0
C50 C 0.91438 0.64576 0.62021 0.0
C51 C 0.91527 0.59995 0.59557 0.0
C52 C 0.96034 0.54478 0.54194 0.0
C53 C 0.92785 0.68255 0.45523 0.0
C54 C -0.02976 0.68811 0.42521 0.0
C55 C 0.92717 0.63635 0.48004 0.0
C56 C -0.03037 0.59542 0.47582 0.0
C57 C 0.01258 0.64709 0.42107 0.0
C58 C 0.01215 0.6012 0.44602 0.0
C59 C -0.03185 0.54484 0.50044 0.0
C60 C 0.93061 0.30773 0.45679 0.0
C61 C -0.02673 0.30354 0.42696 0.0
C62 C 0.92936 0.35383 0.4813 0.0
C63 C -0.02855 0.39607 0.4769 0.0
C64 C 0.01541 0.34575 0.42277 0.0
C65 C 0.01435 0.39157 0.44738 0.0
C66 C -0.0309 0.44666 0.50098 0.0
C67 C 0.00207 0.30898 0.58763 0.0
C68 C 0.95976 0.3033 0.61767 0.0
C69 C 0.00257 0.3552 0.56284 0.0
C70 C 0.95999 0.39601 0.5671 0.0
C71 C 0.91731 0.3442 0.62188 0.0
C72 C 0.91755 0.39011 0.59693 0.0
C73 C 0.9613 0.4466 0.54248 0.0
H74 H 0.03291 0.71495 0.58264 0.0
H75 H 0.03497 0.63427 0.53988 0.0
H76 H 0.88072 0.6481 0.64274 0.0
H77 H 0.88249 0.56787 0.59971 0.0
H78 H 0.89409 0.71303 0.45868 0.0
H79 H 0.89268 0.63211 0.50191 0.0
H80 H 0.04605 0.65042 0.3984 0.0
H81 H 0.04509 0.57006 0.44199 0.0
H82 H 0.89701 0.27629 0.46029 0.0
H83 H 0.89467 0.357 0.50302 0.0
H84 H 0.04912 0.34348 0.40027 0.0
H85 H 0.04706 0.42372 0.44326 0.0
H86 H 0.03592 0.2786 0.58414 0.0
H87 H 0.03702 0.35954 0.54095 0.0
H88 H 0.88389 0.34077 0.64458 0.0
H89 H 0.88452 0.42117 0.60101 0.0
N90 N 0.95688 0.49566 0.5612 0.0
N91 N -0.02745 0.49578 0.48173 0.0
O92 O 0.88753 0.95265 0.23593 0.0
Cd93 Cd 0.96456 0.93974 0.26621 0.0
Cd94 Cd -0.03406 0.05474 0.26755 0.0
O95 O 0.889 0.04326 0.23681 0.0
O96 O 0.96465 0.85916 0.27621 0.0
O97 O 0.96459 0.92006 0.3244 0.0
C98 C 0.96493 0.86928 0.31357 0.0
C99 C -0.0325 0.12417 0.31519 0.0
C100 C 0.86487 -0.0017 0.22651 0.0
C101 C 0.06521 -0.00144 0.22589 0.0
O102 O 0.04236 0.04346 0.23645 0.0
O103 O 0.04143 0.95291 0.23535 0.0
O104 O -0.03231 0.13506 0.27787 0.0
O105 O -0.03391 0.07316 0.32586 0.0
O106 O 0.8899 0.03853 0.80758 0.0
Cd107 Cd -0.03333 0.0516 0.77659 0.0
Cd108 Cd 0.96526 0.93657 0.77549 0.0
O109 O 0.88894 0.94798 0.80668 0.0
O110 O -0.03349 0.13218 0.76661 0.0
O111 O -0.03362 0.0713 0.7184 0.0
C112 C -0.03395 0.12208 0.72924 0.0
C113 C 0.9634 0.86716 0.72784 0.0
C114 C 0.86614 0.99293 0.81717 0.0
C115 C 0.06647 0.99314 0.81627 0.0
O116 O 0.04231 0.94813 0.80609 0.0
O117 O 0.04379 0.03875 0.80677 0.0
O118 O 0.96338 0.85624 0.76516 0.0
O119 O 0.96483 0.91817 0.71718 0.0
C120 C 0.19157 0.95128 0.16231 0.0
C121 C 0.21329 0.0013 0.14697 0.0
H122 H 0.12827 0.91113 0.19954 0.0
C123 C 0.18727 0.05048 0.15902 0.0
H124 H 0.21132 0.91273 0.15418 0.0
C125 C 0.14016 0.04964 0.1854 0.0
C126 C 0.1178 -0.00043 0.20023 0.0
H127 H 0.20255 0.08967 0.14745 0.0
H128 H 0.12059 0.08827 0.19355 0.0
C129 C 0.1443 0.95041 0.1886 0.0
C130 C 0.95469 0.26544 0.68656 0.0
C131 C 0.96135 0.2563 0.64582 0.0
H132 H 0.9513 0.2305 0.74462 0.0
C133 C -0.03009 0.20237 0.63248 0.0
H134 H 0.94887 0.30658 0.6978 0.0
C135 C -0.02882 0.15844 0.65943 0.0
C136 C 0.96459 0.16779 0.7002 0.0
H137 H -0.02512 0.19411 0.6012 0.0
H138 H -0.02246 0.11729 0.64835 0.0
C139 C 0.95648 0.22179 0.71341 0.0
C140 C 0.74384 0.05006 0.16 0.0
C141 C 0.7166 0.00085 0.14801 0.0
H142 H 0.81151 0.08793 0.19435 0.0
C143 C 0.73706 0.95086 0.16337 0.0
H144 H 0.72956 0.08922 0.14841 0.0
C145 C 0.78434 0.95005 0.18958 0.0
C146 C 0.81212 -0.00076 0.20109 0.0
H147 H 0.71636 0.91229 0.15529 0.0
H148 H 0.79941 0.91079 0.2005 0.0
C149 C 0.79096 0.04928 0.18629 0.0
C150 C 0.95083 0.7245 0.68486 0.0
C151 C 0.95796 0.73448 0.64416 0.0
H152 H 0.94723 0.75829 0.74294 0.0
C153 C -0.03301 0.7888 0.63092 0.0
H154 H 0.94468 0.68306 0.69605 0.0
C155 C -0.0316 0.83226 0.65794 0.0
C156 C 0.96144 0.82204 0.69868 0.0
H157 H -0.02768 0.79771 0.59967 0.0
H158 H -0.02477 0.87371 0.64695 0.0
C159 C 0.95271 0.76768 0.71177 0.0
C160 C 0.18754 0.94169 0.88287 0.0
C161 C 0.21469 0.99097 0.89481 0.0
H162 H 0.11995 0.90364 0.84854 0.0
C163 C 0.1942 0.04088 0.87936 0.0
H164 H 0.20186 0.90257 0.89452 0.0
C165 C 0.14695 0.04156 0.85312 0.0
C166 C 0.11924 0.99231 0.84167 0.0
H167 H 0.21484 0.0795 0.8874 0.0
H168 H 0.13184 0.08078 0.84214 0.0
C169 C 0.14045 0.94234 0.85655 0.0
C170 C -0.02065 0.26688 0.35814 0.0
C171 C -0.02786 0.25691 0.39883 0.0
H172 H -0.01672 0.23306 0.30008 0.0
C173 C 0.96327 0.20257 0.41208 0.0
H174 H -0.01462 0.30833 0.34694 0.0
C175 C 0.96212 0.15909 0.38508 0.0
C176 C -0.03082 0.1693 0.34435 0.0
H177 H 0.95788 0.19367 0.44333 0.0
H178 H 0.95541 0.11763 0.39607 0.0
C179 C -0.02226 0.22368 0.33124 0.0
C180 C 0.74404 0.94137 0.88415 0.0
C181 C 0.71807 0.99061 0.8961 0.0
H182 H 0.81069 0.90339 0.8497 0.0
C183 C 0.73987 0.04056 0.88069 0.0
H184 H 0.7287 0.90223 0.89577 0.0
C185 C 0.78716 0.04129 0.85441 0.0
C186 C 0.81359 0.99206 0.84286 0.0
H187 H 0.72017 0.07916 0.88875 0.0
H188 H 0.80324 0.08052 0.8434 0.0
C189 C 0.79117 0.94206 0.85778 0.0
C190 C 0.96041 0.78905 0.41035 0.0
C191 C -0.03114 0.73509 0.39705 0.0
H192 H 0.95312 0.87414 0.39443 0.0
C193 C -0.02435 0.72591 0.35632 0.0
H194 H 0.95535 0.79735 0.44162 0.0
C195 C -0.02587 0.76955 0.32945 0.0
C196 C -0.03386 0.82358 0.34262 0.0
H197 H -0.01861 0.68474 0.3451 0.0
H198 H -0.02059 0.7608 0.29826 0.0
C199 C 0.95939 0.83297 0.38338 0.0
loop_
_geom_bond_atom_site_label_1
_geom_bond_atom_site_label_2
_geom_bond_distance
_geom_bond_site_symmetry_2
_ccdc_geom_bond_type
C0 C1 1.384 1_545 S
C0 C2 1.384 . S
C0 H28 0.931 . S
C1 C0 1.384 1_565 S
C1 C4 1.382 . S
C2 C0 1.384 . S
C2 C3 1.381 1_545 S
C2 H29 0.930 . S
C3 C2 1.381 1_565 S
C3 C5 1.381 . S
C3 C6 1.487 . S
C4 C1 1.382 . S
C4 C5 1.387 . S
C4 H30 0.930 . S
C5 C3 1.381 . S
C5 C4 1.387 . S
C5 H31 0.931 . S
C6 C3 1.487 . S
C6 C13 1.399 1_566 S
C6 N44 1.343 . S
C7 C8 1.384 1_565 S
C7 C9 1.384 . S
C7 H32 0.931 . S
C8 C7 1.384 1_545 S
C8 C11 1.382 . S
C9 C7 1.384 . S
C9 C10 1.381 1_565 S
C9 H33 0.930 . S
C10 C9 1.381 1_545 S
C10 C12 1.381 . S
C10 C13 1.487 . S
C11 C8 1.382 . S
C11 C12 1.387 . S
C11 H34 0.930 . S
C12 C10 1.381 . S
C12 C11 1.387 . S
C12 H35 0.931 . S
C13 C6 1.399 1_544 S
C13 C10 1.487 . S
C13 N45 1.343 . S
C14 C15 1.384 1_565 S
C14 C16 1.384 . S
C14 H36 0.931 . S
C15 C14 1.384 1_545 S
C15 C18 1.382 . S
C16 C14 1.384 . S
C16 C17 1.381 1_565 S
C16 H37 0.930 . S
C17 C16 1.381 1_545 S
C17 C19 1.381 . S
C17 C20 1.487 . S
C18 C15 1.382 . S
C18 C19 1.387 . S
C18 H38 0.930 . S
C19 C17 1.381 . S
C19 C18 1.387 . S
C19 H39 0.931 . S
C20 C17 1.487 . S
C20 C27 1.399 1_544 S
C20 N45 1.343 . S
C21 C22 1.384 1_545 S
C21 C23 1.384 . S
C21 H40 0.931 . S
C22 C21 1.384 1_565 S
C22 C25 1.382 . S
C23 C21 1.384 . S
C23 C24 1.381 1_545 S
C23 H41 0.930 . S
C24 C23 1.381 1_565 S
C24 C26 1.381 . S
C24 C27 1.487 . S
C25 C22 1.382 . S
C25 C26 1.387 . S
C25 H42 0.930 . S
C26 C24 1.381 . S
C26 C25 1.387 . S
C26 H43 0.931 . S
C27 C20 1.399 1_566 S
C27 C24 1.487 . S
C27 N44 1.343 . S
H28 C0 0.931 . S
H29 C2 0.930 . S
H30 C4 0.930 . S
H31 C5 0.931 . S
H32 C7 0.931 . S
H33 C9 0.930 . S
H34 C11 0.930 . S
H35 C12 0.931 . S
H36 C14 0.931 . S
H37 C16 0.930 . S
H38 C18 0.930 . S
H39 C19 0.931 . S
H40 C21 0.931 . S
H41 C23 0.930 . S
H42 C25 0.930 . S
H43 C26 0.931 . S
N44 C6 1.343 . S
N44 C27 1.343 . S
N45 C13 1.343 . S
N45 C20 1.343 . S
C46 C47 1.384 1_455 S
C46 C48 1.384 . S
C46 H74 0.931 . S
C47 C46 1.384 1_655 S
C47 C50 1.382 . S
C48 C46 1.384 . S
C48 C49 1.381 1_455 S
C48 H75 0.930 . S
C49 C48 1.381 1_655 S
C49 C51 1.381 . S
C49 C52 1.487 . S
C50 C47 1.382 . S
C50 C51 1.387 . S
C50 H76 0.930 . S
C51 C49 1.381 . S
C51 C50 1.387 . S
C51 H77 0.931 . S
C52 C49 1.487 . S
C52 C59 1.399 1_655 S
C52 N90 1.343 . S
C53 C54 1.384 1_655 S
C53 C55 1.384 . S
C53 H78 0.931 . S
C54 C53 1.384 1_455 S
C54 C57 1.382 . S
C55 C53 1.384 . S
C55 C56 1.381 1_655 S
C55 H79 0.930 . S
C56 C55 1.381 1_455 S
C56 C58 1.381 . S
C56 C59 1.487 . S
C57 C54 1.382 . S
C57 C58 1.387 . S
C57 H80 0.930 . S
C58 C56 1.381 . S
C58 C57 1.387 . S
C58 H81 0.931 . S
C59 C52 1.399 1_455 S
C59 C56 1.487 . S
C59 N91 1.343 . S
C60 C61 1.384 1_655 S
C60 C62 1.384 . S
C60 H82 0.931 . S
C61 C60 1.384 1_455 S
C61 C64 1.382 . S
C62 C60 1.384 . S
C62 C63 1.381 1_655 S
C62 H83 0.930 . S
C63 C62 1.381 1_455 S
C63 C65 1.381 . S
C63 C66 1.487 . S
C64 C61 1.382 . S
C64 C65 1.387 . S
C64 H84 0.930 . S
C65 C63 1.381 . S
C65 C64 1.387 . S
C65 H85 0.931 . S
C66 C63 1.487 . S
C66 C73 1.399 1_455 S
C66 N91 1.343 . S
C67 C68 1.384 1_455 S
C67 C69 1.384 . S
C67 H86 0.931 . S
C68 C67 1.384 1_655 S
C68 C71 1.382 . S
C69 C67 1.384 . S
C69 C70 1.381 1_455 S
C69 H87 0.930 . S
C70 C69 1.381 1_655 S
C70 C72 1.381 . S
C70 C73 1.487 . S
C71 C68 1.382 . S
C71 C72 1.387 . S
C71 H88 0.930 . S
C72 C70 1.381 . S
C72 C71 1.387 . S
C72 H89 0.931 . S
C73 C66 1.399 1_655 S
C73 C70 1.487 . S
C73 N90 1.343 . S
H74 C46 0.931 . S
H75 C48 0.930 . S
H76 C50 0.930 . S
H77 C51 0.931 . S
H78 C53 0.931 . S
H79 C55 0.930 . S
H80 C57 0.930 . S
H81 C58 0.931 . S
H82 C60 0.931 . S
H83 C62 0.930 . S
H84 C64 0.930 . S
H85 C65 0.931 . S
H86 C67 0.931 . S
H87 C69 0.930 . S
H88 C71 0.930 . S
H89 C72 0.931 . S
N90 C52 1.343 . S
N90 C73 1.343 . S
N91 C59 1.343 . S
N91 C66 1.343 . S
O92 Cd93 2.223 1_655 S
O92 C100 1.315 . S
Cd93 O92 2.223 1_455 S
Cd93 O96 2.297 1_455 S
Cd93 O97 2.439 1_455 S
Cd93 O103 2.240 1_565 S
Cd94 O95 2.240 1_545 S
Cd94 O102 2.223 1_655 S
Cd94 O104 2.297 1_655 S
Cd94 O105 2.439 1_655 S
O95 Cd94 2.240 1_565 S
O95 C100 1.279 . S
O96 Cd93 2.297 1_655 S
O96 C98 1.247 . S
O97 Cd93 2.439 1_655 S
O97 C98 1.208 . S
C98 O96 1.247 . S
C98 O97 1.208 . S
C99 O104 1.247 . S
C99 O105 1.208 . S
C100 O92 1.315 . S
C100 O95 1.279 . S
C101 O102 1.315 . S
C101 O103 1.279 . S
O102 Cd94 2.223 1_455 S
O102 C101 1.315 . S
O103 Cd93 2.240 1_545 S
O103 C101 1.279 . S
O104 Cd94 2.297 1_455 S
O104 C99 1.247 . S
O105 Cd94 2.439 1_455 S
O105 C99 1.208 . S
O106 Cd107 2.223 1_655 S
O106 C114 1.315 . S
Cd107 O106 2.223 1_455 S
Cd107 O110 2.297 1_455 S
Cd107 O111 2.439 1_455 S
Cd107 O117 2.240 1_545 S
Cd108 O109 2.240 1_565 S
Cd108 O116 2.223 1_655 S
Cd108 O118 2.297 1_655 S
Cd108 O119 2.439 1_655 S
O109 Cd108 2.240 1_545 S
O109 C114 1.279 . S
O110 Cd107 2.297 1_655 S
O110 C112 1.247 . S
O111 Cd107 2.439 1_655 S
O111 C112 1.208 . S
C112 O110 1.247 . S
C112 O111 1.208 . S
C113 O118 1.247 . S
C113 O119 1.208 . S
C114 O106 1.315 . S
C114 O109 1.279 . S
C115 O116 1.315 . S
C115 O117 1.279 . S
O116 Cd108 2.223 1_455 S
O116 C115 1.315 . S
O117 Cd107 2.240 1_565 S
O117 C115 1.279 . S
O118 Cd108 2.297 1_455 S
O118 C113 1.247 . S
O119 Cd108 2.439 1_455 S
O119 C113 1.208 . S
C120 C121 1.387 1_565 S
C120 H124 0.950 . S
C120 C129 1.390 . S
C121 C120 1.387 1_545 S
C121 C123 1.387 . S
H122 C129 0.950 . S
C123 C121 1.387 . S
C123 C125 1.390 . S
C123 H127 0.950 . S
H124 C120 0.950 . S
C125 C123 1.390 . S
C125 C126 1.387 . S
C125 H128 0.950 . S
C126 C125 1.387 . S
C126 C129 1.387 1_545 S
H127 C123 0.950 . S
H128 C125 0.950 . S
C129 C120 1.390 . S
C129 H122 0.950 . S
C129 C126 1.387 1_565 S
C130 C131 1.387 1_455 S
C130 H134 0.950 . S
C130 C139 1.390 . S
C131 C130 1.387 1_655 S
C131 C133 1.387 . S
H132 C139 0.950 . S
C133 C131 1.387 . S
C133 C135 1.390 . S
C133 H137 0.950 . S
H134 C130 0.950 . S
C135 C133 1.390 . S
C135 C136 1.387 . S
C135 H138 0.950 . S
C136 C135 1.387 . S
C136 C139 1.387 1_655 S
H137 C133 0.950 . S
H138 C135 0.950 . S
C139 C130 1.390 . S
C139 H132 0.950 . S
C139 C136 1.387 1_455 S
C140 C141 1.387 1_545 S
C140 H144 0.950 . S
C140 C149 1.390 . S
C141 C140 1.387 1_565 S
C141 C143 1.387 . S
H142 C149 0.950 . S
C143 C141 1.387 . S
C143 C145 1.390 . S
C143 H147 0.950 . S
H144 C140 0.950 . S
C145 C143 1.390 . S
C145 C146 1.387 . S
C145 H148 0.950 . S
C146 C145 1.387 . S
C146 C149 1.387 1_565 S
H147 C143 0.950 . S
H148 C145 0.950 . S
C149 C140 1.390 . S
C149 H142 0.950 . S
C149 C146 1.387 1_545 S
C150 C151 1.387 1_655 S
C150 H154 0.950 . S
C150 C159 1.390 1_655 S
C151 C150 1.387 1_455 S
C151 C153 1.387 . S
H152 C159 0.950 1_655 S
C153 C151 1.387 . S
C153 C155 1.390 . S
C153 H157 0.950 . S
H154 C150 0.950 . S
C155 C153 1.390 . S
C155 C156 1.387 . S
C155 H158 0.950 . S
C156 C155 1.387 . S
C156 C159 1.387 . S
H157 C153 0.950 . S
H158 C155 0.950 . S
C159 C150 1.390 1_455 S
C159 H152 0.950 1_455 S
C159 C156 1.387 . S
C160 C161 1.387 . S
C160 H164 0.950 . S
C160 C169 1.390 . S
C161 C160 1.387 . S
C161 C163 1.387 1_565 S
H162 C169 0.950 . S
C163 C161 1.387 1_545 S
C163 C165 1.390 . S
C163 H167 0.950 . S
H164 C160 0.950 . S
C165 C163 1.390 . S
C165 C166 1.387 1_545 S
C165 H168 0.950 . S
C166 C165 1.387 1_565 S
C166 C169 1.387 . S
H167 C163 0.950 . S
H168 C165 0.950 . S
C169 C160 1.390 . S
C169 H162 0.950 . S
C169 C166 1.387 . S
C170 C171 1.387 . S
C170 H174 0.950 . S
C170 C179 1.390 . S
C171 C170 1.387 . S
C171 C173 1.387 1_455 S
H172 C179 0.950 . S
C173 C171 1.387 1_655 S
C173 C175 1.390 . S
C173 H177 0.950 . S
H174 C170 0.950 . S
C175 C173 1.390 . S
C175 C176 1.387 1_655 S
C175 H178 0.950 . S
C176 C175 1.387 1_455 S
C176 C179 1.387 . S
H177 C173 0.950 . S
H178 C175 0.950 . S
C179 C170 1.390 . S
C179 H172 0.950 . S
C179 C176 1.387 . S
C180 C181 1.387 1_565 S
C180 H184 0.950 . S
C180 C189 1.390 . S
C181 C180 1.387 1_545 S
C181 C183 1.387 . S
H182 C189 0.950 . S
C183 C181 1.387 . S
C183 C185 1.390 . S
C183 H187 0.950 . S
H184 C180 0.950 . S
C185 C183 1.390 . S
C185 C186 1.387 . S
C185 H188 0.950 . S
C186 C185 1.387 . S
C186 C189 1.387 1_545 S
H187 C183 0.950 . S
H188 C185 0.950 . S
C189 C180 1.390 . S
C189 H182 0.950 . S
C189 C186 1.387 1_565 S
C190 C191 1.387 1_455 S
C190 H194 0.950 . S
C190 C199 1.390 . S
C191 C190 1.387 1_655 S
C191 C193 1.387 . S
H192 C199 0.950 . S
C193 C191 1.387 . S
C193 C195 1.390 . S
C193 H197 0.950 . S
H194 C190 0.950 . S
C195 C193 1.390 . S
C195 C196 1.387 . S
C195 H198 0.950 . S
C196 C195 1.387 . S
C196 C199 1.387 1_655 S
H197 C193 0.950 . S
H198 C195 0.950 . S
C199 C190 1.390 . S
C199 H192 0.950 . S
C199 C196 1.387 1_455 S
C126 C101 1.615 . S
C121 C15 1.604 . S
C136 C112 1.525 . S
C131 C68 1.603 . S
C146 C100 1.615 . S
C141 C8 1.613 1_565 S
C156 C113 1.527 . S
C151 C47 1.614 1_455 S
C166 C115 1.616 . S
C161 C22 1.608 . S
C176 C99 1.527 . S
C171 C61 1.604 . S
C186 C114 1.615 . S
C181 C1 1.618 1_545 S
C191 C54 1.612 1_655 S
C196 C98 1.525 . S
