# Generated by pormake.
# Topology rtl, (3,6)-cn, num edge types: 1
# Building blocks:
#     Node 0, Type 0, BuildingBlock: BETDAH_clean_linker_0, # of connection points: 3
#     Node 1, Type 0, BuildingBlock: BETDAH_clean_linker_0, # of connection points: 3
#     Node 2, Type 0, BuildingBlock: BETDAH_clean_linker_0, # of connection points: 3
#     Node 3, Type 0, BuildingBlock: BETDAH_clean_linker_0, # of connection points: 3
#     Node 4, Type 1, BuildingBlock: VOLQOD_clean_sbu_1, # of connection points: 6
#     Node 5, Type 1, BuildingBlock: VOLQOD_clean_sbu_1, # of connection points: 6
#     Edge 6, Type (0, 1), None
#     Edge 7, Type (0, 1), None
#     Edge 8, Type (0, 1), None
#     Edge 9, Type (0, 1), None
#     Edge 10, Type (0, 1), None
#     Edge 11, Type (0, 1), None
#     Edge 12, Type (0, 1), None
#     Edge 13, Type (0, 1), None
#     Edge 14, Type (0, 1), None
#     Edge 15, Type (0, 1), None
#     Edge 16, Type (0, 1), None
#     Edge 17, Type (0, 1), None
# Relax obj value: 0.043
# Max RMSD: 0.144
# Mean RMSD: 0.082
data_MOF--net-rtl--node1-VOLQOD_clean_sbu_1--node2-BETDAH_clean_linker_0--edge1-none
_symmetry_space_group_name_H-M    P1
_symmetry_Int_Tables_number       1
_symmetry_cell_setting            triclinic
loop_
_symmetry_equiv_pos_as_xyz
'x, y, z'
_cell_length_a     17.358002
_cell_length_b     18.677256
_cell_length_c     10.211064
_cell_angle_alpha  91.33319
_cell_angle_beta   92.95013
_cell_angle_gamma 88.608068
loop_
_atom_site_label
_atom_site_type_symbol
_atom_site_fract_x
_atom_site_fract_y
_atom_site_fract_z
_atom_type_partial_charge
H0 H 0.11515 0.92918 0.97145 0.0
H1 H 0.15465 0.73201 0.17594 0.0
H2 H 0.16234 0.73407 0.75564 0.0
C3 C 0.13124 0.87272 0.9703 0.0
C4 C 0.13945 0.83688 0.84908 0.0
C5 C 0.13474 0.83553 0.08874 0.0
C6 C 0.15231 0.76188 0.08604 0.0
C7 C 0.16528 0.72613 0.96638 0.0
C8 C 0.15689 0.76311 0.84795 0.0
N9 N 0.17913 0.65136 0.96405 0.0
C10 C 0.25351 0.62241 0.97422 0.0
H11 H 0.5763 0.55945 0.50052 0.0
H12 H 0.68547 0.72966 0.30896 0.0
H13 H 0.67887 0.73056 0.73058 0.0
C14 C 0.60899 0.60837 0.50628 0.0
C15 C 0.6274 0.63978 0.62927 0.0
C16 C 0.63028 0.63949 0.39036 0.0
C17 C 0.67224 0.70299 0.39791 0.0
C18 C 0.68977 0.73592 0.5212 0.0
C19 C 0.66809 0.70363 0.63647 0.0
N20 N 0.7128 0.80801 0.52943 0.0
C21 C 0.78515 0.83122 0.50002 0.0
H22 H 0.93382 0.03806 0.95899 0.0
H23 H 0.85259 0.22211 0.17586 0.0
H24 H 0.86321 0.22923 0.75624 0.0
C25 C 0.90756 0.09144 0.96032 0.0
C26 C 0.89694 0.12834 0.84314 0.0
C27 C 0.89122 0.12429 0.08044 0.0
C28 C 0.86061 0.19452 0.08283 0.0
C29 C 0.84939 0.23217 0.9653 0.0
C30 C 0.86711 0.1987 0.84543 0.0
N31 N 0.83746 0.30725 0.97014 0.0
C32 C 0.76525 0.3394 -0.01834 0.0
H33 H 0.49973 0.39249 0.4934 0.0
H34 H 0.32093 0.2831 0.67785 0.0
H35 H 0.32336 0.28713 0.25759 0.0
C36 C 0.45133 0.35659 0.48603 0.0
C37 C 0.4189 0.33794 0.36207 0.0
C38 C 0.4173 0.33616 0.60054 0.0
C39 C 0.35126 0.29416 0.59063 0.0
C40 C 0.31812 0.27532 0.4664 0.0
C41 C 0.35254 0.29672 0.3526 0.0
N42 N 0.24082 0.25347 0.45495 0.0
C43 C 0.21794 0.18426 0.47534 0.0
O44 O 0.84281 0.93965 0.47104 0.0
Zn45 Zn 0.91224 0.02364 0.46192 0.0
O46 O 0.02008 -0.0142 0.46756 0.0
Zn47 Zn 0.07478 0.02334 0.62371 0.0
Zn48 Zn 0.02646 0.87972 0.4639 0.0
Zn49 Zn 0.07053 0.02075 0.31915 0.0
O50 O 0.15298 0.09777 0.58569 0.0
O51 O 0.14933 0.09413 0.36809 0.0
O52 O 0.8892 0.08634 0.62093 0.0
O53 O 0.99963 0.07215 0.7383 0.0
O54 O 0.1209 0.94419 0.73246 0.0
O55 O 0.0847 0.8433 0.62981 0.0
O56 O 0.07753 0.84121 0.29804 0.0
O57 O 0.88256 0.07906 0.29643 0.0
O58 O 0.11549 0.94189 0.21222 0.0
O59 O 0.99379 0.06884 0.19877 0.0
C60 C 0.85157 0.87182 0.47317 0.0
C61 C 0.17555 0.11951 0.47732 0.0
C62 C 0.1181 0.87611 0.72726 0.0
C63 C 0.93056 0.09613 0.72598 0.0
C64 C 0.11129 0.87403 0.2095 0.0
C65 C 0.92377 0.09009 0.19968 0.0
O66 O 0.9177 0.84077 0.46878 0.0
O67 O 0.69962 0.44888 -0.00117 0.0
Zn68 Zn 0.62278 0.53169 0.00417 0.0
O69 O 0.51815 0.491 -0.00525 0.0
Zn70 Zn 0.46242 0.52475 0.83853 0.0
Zn71 Zn 0.51999 0.38418 -0.00904 0.0
Zn72 Zn 0.46293 0.52631 0.14381 0.0
O73 O 0.36244 0.5762 0.87513 0.0
O74 O 0.3622 0.57752 0.09274 0.0
O75 O 0.64137 0.59264 0.84512 0.0
O76 O 0.52806 0.58524 0.73469 0.0
O77 O 0.43684 0.44305 0.71885 0.0
O78 O 0.46716 0.34244 0.82333 0.0
O79 O 0.47143 0.34399 0.15094 0.0
O80 O 0.64475 0.58998 0.1743 0.0
O81 O 0.43826 0.44501 0.25553 0.0
O82 O 0.5299 0.58808 0.2608 0.0
C83 C 0.69525 0.38086 -0.00626 0.0
C84 C 0.3305 0.59241 -0.01868 0.0
C85 C 0.43965 0.37517 0.72267 0.0
C86 C 0.59688 0.60718 0.74554 0.0
C87 C 0.44321 0.37706 0.24866 0.0
C88 C 0.59978 0.60744 0.26528 0.0
O89 O 0.63115 0.34896 -0.00868 0.0
loop_
_geom_bond_atom_site_label_1
_geom_bond_atom_site_label_2
_geom_bond_distance
_geom_bond_site_symmetry_2
_ccdc_geom_bond_type
H0 C3 0.929 . S
H1 C6 0.929 . S
H2 C8 0.930 . S
C3 H0 0.929 . S
C3 C4 1.398 1_554 S
C3 C5 1.396 . S
C4 C3 1.398 1_556 S
C4 C8 1.407 . S
C5 C3 1.396 . S
C5 C6 1.394 . S
C6 H1 0.929 . S
C6 C5 1.394 . S
C6 C7 1.382 1_554 S
C7 C6 1.382 1_556 S
C7 C8 1.392 . S
C7 N9 1.420 . S
C8 H2 0.930 . S
C8 C4 1.407 . S
C8 C7 1.392 . S
N9 C7 1.420 . S
N9 C10 1.244 1_556 S
C10 N9 1.244 1_554 S
H11 C14 0.929 . S
H12 C17 0.929 . S
H13 C19 0.930 . S
C14 H11 0.929 . S
C14 C15 1.398 . S
C14 C16 1.396 . S
C15 C14 1.398 . S
C15 C19 1.407 . S
C16 C14 1.396 . S
C16 C17 1.394 . S
C17 H12 0.929 . S
C17 C16 1.394 . S
C17 C18 1.382 . S
C18 C17 1.382 . S
C18 C19 1.392 . S
C18 N20 1.420 . S
C19 H13 0.930 . S
C19 C15 1.407 . S
C19 C18 1.392 . S
N20 C18 1.420 . S
N20 C21 1.244 . S
C21 N20 1.244 . S
H22 C25 0.929 1_554 S
H23 C28 0.929 . S
H24 C30 0.930 . S
C25 H22 0.929 1_556 S
C25 C26 1.398 . S
C25 C27 1.396 1_556 S
C26 C25 1.398 . S
C26 C30 1.407 . S
C27 C25 1.396 1_554 S
C27 C28 1.394 . S
C28 H23 0.929 . S
C28 C27 1.394 . S
C28 C29 1.382 1_554 S
C29 C28 1.382 1_556 S
C29 C30 1.392 . S
C29 N31 1.420 . S
C30 H24 0.930 . S
C30 C26 1.407 . S
C30 C29 1.392 . S
N31 C29 1.420 . S
N31 C32 1.244 1_556 S
C32 N31 1.244 1_554 S
H33 C36 0.929 . S
H34 C39 0.929 . S
H35 C41 0.930 . S
C36 H33 0.929 . S
C36 C37 1.398 . S
C36 C38 1.396 . S
C37 C36 1.398 . S
C37 C41 1.407 . S
C38 C36 1.396 . S
C38 C39 1.394 . S
C39 H34 0.929 . S
C39 C38 1.394 . S
C39 C40 1.382 . S
C40 C39 1.382 . S
C40 C41 1.392 . S
C40 N42 1.420 . S
C41 H35 0.930 . S
C41 C37 1.407 . S
C41 C40 1.392 . S
N42 C40 1.420 . S
N42 C43 1.244 . S
C43 N42 1.244 . S
O44 Zn45 1.953 1_565 S
O44 C60 1.225 . S
Zn45 O44 1.953 1_545 S
Zn45 O46 1.949 1_655 S
Zn45 O52 1.919 . S
Zn45 O57 1.924 . S
O46 Zn45 1.949 1_455 S
O46 Zn47 1.923 . S
O46 Zn48 1.950 1_545 S
O46 Zn49 1.945 . S
Zn47 O46 1.923 . S
Zn47 O50 1.933 . S
Zn47 O53 1.946 . S
Zn47 O54 1.965 1_545 S
Zn48 O46 1.950 1_565 S
Zn48 O55 1.938 . S
Zn48 O56 1.906 . S
Zn48 O66 1.953 1_455 S
Zn49 O46 1.945 . S
Zn49 O51 1.932 . S
Zn49 O58 1.977 1_545 S
Zn49 O59 1.910 1_455 S
O50 Zn47 1.933 . S
O50 C61 1.226 . S
O51 Zn49 1.932 . S
O51 C61 1.307 . S
O52 Zn45 1.919 . S
O52 C63 1.253 . S
O53 Zn47 1.946 . S
O53 C63 1.276 1_455 S
O54 Zn47 1.965 1_565 S
O54 C62 1.303 . S
O55 Zn48 1.938 . S
O55 C62 1.247 . S
O56 Zn48 1.906 . S
O56 C64 1.304 . S
O57 Zn45 1.924 . S
O57 C65 1.311 . S
O58 Zn49 1.977 1_565 S
O58 C64 1.272 . S
O59 Zn49 1.910 1_655 S
O59 C65 1.231 . S
C60 O44 1.225 . S
C60 O66 1.298 . S
C61 O50 1.226 . S
C61 O51 1.307 . S
C62 O54 1.303 . S
C62 O55 1.247 . S
C63 O52 1.253 . S
C63 O53 1.276 1_655 S
C64 O56 1.304 . S
C64 O58 1.272 . S
C65 O57 1.311 . S
C65 O59 1.231 . S
O66 Zn48 1.953 1_655 S
O66 C60 1.298 . S
O67 Zn68 1.953 . S
O67 C83 1.225 1_556 S
Zn68 O67 1.953 . S
Zn68 O69 1.949 1_556 S
Zn68 O75 1.919 . S
Zn68 O80 1.924 1_556 S
O69 Zn68 1.949 1_554 S
O69 Zn70 1.923 1_554 S
O69 Zn71 1.950 . S
O69 Zn72 1.945 . S
Zn70 O69 1.923 1_556 S
Zn70 O73 1.933 . S
Zn70 O76 1.941 . S
Zn70 O77 1.965 . S
Zn71 O69 1.950 . S
Zn71 O78 1.938 1_554 S
Zn71 O79 1.906 . S
Zn71 O89 1.953 . S
Zn72 O69 1.945 . S
Zn72 O74 1.932 . S
Zn72 O81 1.977 . S
Zn72 O82 1.910 . S
O73 Zn70 1.933 . S
O73 C84 1.226 1_556 S
O74 Zn72 1.932 . S
O74 C84 1.307 . S
O75 Zn68 1.919 . S
O75 C86 1.253 . S
O76 Zn70 1.941 . S
O76 C86 1.283 . S
O77 Zn70 1.965 . S
O77 C85 1.303 . S
O78 Zn71 1.938 1_556 S
O78 C85 1.247 . S
O79 Zn71 1.906 . S
O79 C87 1.304 . S
O80 Zn68 1.924 1_554 S
O80 C88 1.311 . S
O81 Zn72 1.977 . S
O81 C87 1.272 . S
O82 Zn72 1.910 . S
O82 C88 1.231 . S
C83 O67 1.225 1_554 S
C83 O89 1.298 . S
C84 O73 1.226 1_554 S
C84 O74 1.307 . S
C85 O77 1.303 . S
C85 O78 1.247 . S
C86 O75 1.253 . S
C86 O76 1.283 . S
C87 O79 1.304 . S
C87 O81 1.272 . S
C88 O80 1.311 . S
C88 O82 1.231 . S
O89 Zn71 1.953 . S
O89 C83 1.298 . S
C61 C43 1.510 . S
C10 C84 1.507 . S
C21 C60 1.522 . S
C32 C83 1.539 . S
C64 C5 1.518 . S
C86 C15 1.531 . S
C27 C65 1.585 . S
C38 C85 1.601 . S
C88 C16 1.467 . S
C63 C26 1.435 . S
C87 C37 1.426 . S
C4 C62 1.487 . S
