# Generated by pormake.
# Topology tsx, (6,3)-cn, num edge types: 1
# Building blocks:
#     Node 0, Type 0, BuildingBlock: LEVNOQ01_clean_sbu_1, # of connection points: 6
#     Node 1, Type 0, BuildingBlock: LEVNOQ01_clean_sbu_1, # of connection points: 6
#     Node 2, Type 1, BuildingBlock: ESEHIV_clean_linker_0, # of connection points: 3
#     Node 3, Type 1, BuildingBlock: ESEHIV_clean_linker_0, # of connection points: 3
#     Node 4, Type 1, BuildingBlock: ESEHIV_clean_linker_0, # of connection points: 3
#     Node 5, Type 1, BuildingBlock: ESEHIV_clean_linker_0, # of connection points: 3
#     Edge 6, Type (0, 1), BuildingBlock: OJICUG_clean_linker_0, # of connection points: 2
#     Edge 7, Type (0, 1), BuildingBlock: OJICUG_clean_linker_0, # of connection points: 2
#     Edge 8, Type (0, 1), BuildingBlock: OJICUG_clean_linker_0, # of connection points: 2
#     Edge 9, Type (0, 1), BuildingBlock: OJICUG_clean_linker_0, # of connection points: 2
#     Edge 10, Type (0, 1), BuildingBlock: OJICUG_clean_linker_0, # of connection points: 2
#     Edge 11, Type (0, 1), BuildingBlock: OJICUG_clean_linker_0, # of connection points: 2
#     Edge 12, Type (0, 1), BuildingBlock: OJICUG_clean_linker_0, # of connection points: 2
#     Edge 13, Type (0, 1), BuildingBlock: OJICUG_clean_linker_0, # of connection points: 2
#     Edge 14, Type (0, 1), BuildingBlock: OJICUG_clean_linker_0, # of connection points: 2
#     Edge 15, Type (0, 1), BuildingBlock: OJICUG_clean_linker_0, # of connection points: 2
#     Edge 16, Type (0, 1), BuildingBlock: OJICUG_clean_linker_0, # of connection points: 2
#     Edge 17, Type (0, 1), BuildingBlock: OJICUG_clean_linker_0, # of connection points: 2
# Relax obj value: 0.131
# Max RMSD: 0.158
# Mean RMSD: 0.119
data_MOF--net-tsx--node1-LEVNOQ01_clean_sbu_1--node2-ESEHIV_clean_linker_0--edge1-OJICUG_clean_linker_0
_symmetry_space_group_name_H-M    P1
_symmetry_Int_Tables_number       1
_symmetry_cell_setting            triclinic
loop_
_symmetry_equiv_pos_as_xyz
'x, y, z'
_cell_length_a     11.479396
_cell_length_b     15.418805
_cell_length_c     26.84898
_cell_angle_alpha  96.730315
_cell_angle_beta   91.808982
_cell_angle_gamma 90.82937
loop_
_atom_site_label
_atom_site_type_symbol
_atom_site_fract_x
_atom_site_fract_y
_atom_site_fract_z
_atom_type_partial_charge
O0 O 0.22834 0.93785 0.05591 0.0
Mg1 Mg 0.27162 -0.01261 -0.01235 0.0
O2 O 0.0558 -0.00379 0.05077 0.0
Mg3 Mg 0.07329 0.00337 -0.03402 0.0
O4 O 0.22986 0.11353 -0.01907 0.0
O5 O 0.40585 0.06931 0.00601 0.0
O6 O 0.09239 0.00813 0.88093 0.0
O7 O 0.96209 0.13403 -0.03344 0.0
Mg8 Mg 0.82175 -0.01051 0.91845 0.0
O9 O 0.91819 0.90655 0.95461 0.0
O10 O 0.90923 0.0211 0.85342 0.0
O11 O 0.78468 0.08847 -0.02371 0.0
O12 O 0.74276 0.86954 0.92041 0.0
C13 C 0.25354 0.84048 0.93302 0.0
C14 C 0.13207 0.95805 0.07555 0.0
C15 C 0.3371 0.13122 -0.00298 0.0
C16 C 1.01816 0.02079 0.84631 0.0
C17 C 0.85443 0.1512 -0.02701 0.0
C18 C 0.83087 0.85189 0.94826 0.0
O19 O 0.32668 0.89972 0.9275 0.0
O20 O 0.16103 0.86138 -0.04396 0.0
O21 O 0.77666 0.48528 0.56545 0.0
Mg22 Mg 0.8337 0.51203 0.49412 0.0
O23 O 0.58677 0.4967 0.54851 0.0
Mg24 Mg 0.57471 0.50221 0.46249 0.0
O25 O 0.72649 0.60294 0.47115 0.0
O26 O 0.91711 0.62682 0.4872 0.0
O27 O 0.57481 0.51054 0.3764 0.0
O28 O 0.46914 0.63889 0.46977 0.0
Mg29 Mg 0.35642 0.5079 0.43781 0.0
O30 O 0.41526 0.3967 0.46291 0.0
O31 O 0.39351 0.54993 0.36739 0.0
O32 O 0.3021 0.60074 0.49563 0.0
O33 O 0.23741 0.41179 0.42742 0.0
C34 C 0.78886 0.35296 0.43234 0.0
C35 C 0.67165 0.48675 0.57933 0.0
C36 C 0.81586 0.65597 0.47622 0.0
C37 C 0.49379 0.53966 0.34978 0.0
C38 C 0.36736 0.66081 0.48402 0.0
C39 C 0.30867 0.36752 0.4521 0.0
O40 O 0.86649 0.41202 0.43898 0.0
O41 O 0.68453 0.36875 0.44625 0.0
H42 H 0.95478 0.04511 0.28234 0.0
H43 H 0.1801 0.83034 0.30058 0.0
H44 H 0.09106 0.00855 0.42872 0.0
C45 C 1.00462 0.00658 0.30644 0.0
C46 C 1.00951 0.03221 0.35822 0.0
C47 C 0.06945 0.93641 0.28508 0.0
C48 C 0.13269 0.88651 0.31678 0.0
C49 C 0.13694 0.90949 0.36921 0.0
C50 C 0.08016 -0.01437 0.38932 0.0
H51 H 0.94661 0.93277 0.6317 0.0
H52 H 0.18283 0.15197 0.63263 0.0
H53 H 0.99089 0.05475 0.49753 0.0
C54 C 0.98617 -0.01766 0.61192 0.0
C55 C 0.95968 -0.01552 0.56063 0.0
C56 C 0.06462 0.04336 0.63827 0.0
C57 C 0.12136 0.1053 0.61261 0.0
C58 C 0.09656 0.10794 0.56127 0.0
C59 C 1.01279 0.04982 0.53638 0.0
H60 H 0.46581 0.57375 0.79047 0.0
H61 H 0.71013 0.36904 0.8003 0.0
H62 H 0.51841 0.46413 0.92967 0.0
C63 C 0.50565 0.52661 0.81226 0.0
C64 C 0.47977 0.5264 0.86312 0.0
C65 C 0.58656 0.46936 0.78915 0.0
C66 C 0.64692 0.4133 0.81789 0.0
C67 C 0.62494 0.41252 0.869 0.0
C68 C 0.53964 0.46797 0.89116 0.0
H69 H 0.43026 0.47038 0.13877 0.0
H70 H 0.67624 0.68063 0.13704 0.0
H71 H 0.60909 0.49406 0.0052 0.0
C72 C 0.48886 0.50761 0.11805 0.0
C73 C 0.50923 0.47813 0.06813 0.0
C74 C 0.55258 0.57822 0.1431 0.0
C75 C 0.63123 0.62487 0.11665 0.0
C76 C 0.6499 0.59904 0.06502 0.0
C77 C 0.59019 0.52273 0.04226 0.0
C78 C 0.3427 0.29333 -0.0118 0.0
C79 C 0.37886 0.2217 0.01244 0.0
H80 H 0.35799 0.43271 -0.01351 0.0
C81 C 0.45729 0.23598 0.05391 0.0
H82 H 0.28232 0.28391 -0.04387 0.0
C83 C 0.49856 0.31935 0.0712 0.0
C84 C 0.46383 0.39092 0.04723 0.0
H85 H 0.48558 0.18249 0.07389 0.0
H86 H 0.55812 0.32804 0.10361 0.0
C87 C 0.38622 0.37782 0.00528 0.0
C88 C 0.36444 0.71144 0.95243 0.0
C89 C 0.28578 0.74907 0.92066 0.0
H90 H 0.48163 0.60822 -0.03937 0.0
C91 C 0.25342 0.70386 0.87396 0.0
H92 H 0.38927 0.74517 -0.01099 0.0
C93 C 0.30787 0.62575 0.85723 0.0
C94 C 0.39767 0.59279 0.88651 0.0
H95 H 0.19163 0.73159 0.84918 0.0
H96 H 0.2842 0.59413 0.82008 0.0
C97 C 0.41838 0.63316 0.93582 0.0
C98 C 0.84514 0.78374 0.02797 0.0
C99 C 0.82219 0.77557 -0.02396 0.0
H100 H 0.81367 0.73418 0.09704 0.0
C101 C 0.76489 0.70045 0.95283 0.0
H102 H 0.89076 0.84103 0.04666 0.0
C103 C 0.71966 0.63912 -0.01861 0.0
C104 C 0.72607 0.65239 0.03445 0.0
H105 H 0.74785 0.69194 0.91259 0.0
H106 H 0.67327 0.58505 -0.0394 0.0
C107 C 0.79769 0.72275 0.05696 0.0
C108 C 0.73946 0.19815 0.90223 0.0
C109 C 0.80367 0.22224 0.94732 0.0
H110 H 0.63201 0.23875 0.84322 0.0
C111 C 0.81058 0.31067 -0.03301 0.0
H112 H 0.73275 0.13046 0.88608 0.0
C113 C 0.75206 0.3735 0.94191 0.0
C114 C 0.68578 0.34831 0.89729 0.0
H115 H 0.85957 0.33084 0.00165 0.0
H116 H 0.76062 0.44159 -0.04326 0.0
C117 C 0.68141 0.2601 0.87764 0.0
C118 C 0.75861 0.78622 0.53056 0.0
C119 C 0.80282 0.75054 0.48458 0.0
H120 H 0.77168 0.89013 0.59094 0.0
C121 C 0.87634 0.80154 0.45902 0.0
H122 H 0.70312 0.747 0.55141 0.0
C123 C 0.9194 0.88132 0.48242 0.0
C124 C 0.88818 0.91295 0.53136 0.0
H125 H 0.91278 0.77463 0.42391 0.0
H126 H 0.98758 0.91235 0.46431 0.0
C127 C 0.80074 0.86719 0.55381 0.0
C128 C 0.90552 0.26437 0.37062 0.0
C129 C 0.82649 0.26639 0.40957 0.0
H130 H 1.02711 0.19029 0.32546 0.0
C131 C 0.80466 0.1894 0.43138 0.0
H132 H 0.92462 0.32286 0.35336 0.0
C133 C 0.86467 0.11257 0.41533 0.0
C134 C 0.94725 0.11235 0.37761 0.0
H135 H 0.7459 0.18969 0.46217 0.0
H136 H 0.84667 0.05362 0.43223 0.0
C137 C 0.96512 0.18869 0.35497 0.0
C138 C 0.13658 0.28664 0.47859 0.0
C139 C 0.25876 0.29407 0.47622 0.0
H140 H 0.99122 0.22496 0.50879 0.0
C141 C 0.32838 0.23845 0.50204 0.0
H142 H 0.0796 0.32919 0.46015 0.0
C143 C 0.27629 0.1778 0.53015 0.0
C144 C 0.1542 0.17258 0.53306 0.0
H145 H 0.42253 0.24264 0.5011 0.0
H146 H 0.33107 0.13491 0.54946 0.0
C147 C 0.08529 0.2272 0.50678 0.0
C148 C 0.21963 0.70169 0.42231 0.0
C149 C 0.30756 0.7293 0.45864 0.0
H150 H 0.09897 0.73622 0.36615 0.0
C151 C 0.33783 0.81866 0.46702 0.0
H152 H 0.19477 0.63324 0.4145 0.0
C153 C 0.28008 0.87892 0.43944 0.0
C154 C 0.19464 0.84987 0.40199 0.0
H155 H 0.4055 0.84167 0.49463 0.0
H156 H 0.30445 0.9475 0.44627 0.0
C157 C 0.16496 0.76069 0.39425 0.0
C158 C 1.00035 0.94443 0.14704 0.0
C159 C 0.11237 0.9403 0.12755 0.0
H160 H 0.89762 0.94152 0.212 0.0
C161 C 0.20722 0.92179 0.15883 0.0
H162 H 0.92534 0.95692 0.12361 0.0
C163 C 0.19166 0.91383 0.20946 0.0
C164 C 0.08077 0.92357 0.22979 0.0
H165 H 0.29472 0.91768 0.14486 0.0
H166 H 0.26772 0.90566 0.23326 0.0
C167 C 0.98455 0.93535 0.19758 0.0
C168 C 0.03657 0.11172 0.77651 0.0
C169 C 0.05688 0.03258 0.79604 0.0
H170 H 1.02766 0.17792 0.71057 0.0
C171 C 0.0966 0.96084 0.76468 0.0
H172 H 1.00498 0.16753 0.8003 0.0
C173 C 0.10742 -0.03382 0.71342 0.0
C174 C 0.08045 0.04379 0.69316 0.0
H175 H 0.11126 0.89901 0.77912 0.0
H176 H 0.13078 0.90836 0.68913 0.0
C177 C 0.04985 0.11768 0.72543 0.0
C178 C 0.53481 0.47981 0.64979 0.0
C179 C 0.64905 0.47858 0.63255 0.0
H180 H 0.42557 0.47639 0.71265 0.0
C181 C 0.74249 0.4712 0.66697 0.0
H182 H 0.46089 0.48492 0.62427 0.0
C183 C 0.72227 0.46675 0.7176 0.0
C184 C 0.60821 0.46961 0.73498 0.0
H185 H 0.83176 0.47006 0.65502 0.0
H186 H 0.79618 0.46325 0.74334 0.0
C187 C 0.51464 0.47531 0.70045 0.0
C188 C 0.62527 0.55313 0.27766 0.0
C189 C 0.51483 0.56247 0.29866 0.0
H190 H 0.72459 0.55451 0.21131 0.0
C191 C 0.42274 0.59318 0.26996 0.0
H192 H 0.69836 0.53088 0.29897 0.0
C193 C 0.43825 0.60735 0.22019 0.0
C194 C 0.54643 0.59217 0.19826 0.0
H195 H 0.33697 0.60273 0.28519 0.0
H196 H 0.36388 0.62493 0.19785 0.0
C197 C 0.64093 0.56811 0.22784 0.0
loop_
_geom_bond_atom_site_label_1
_geom_bond_atom_site_label_2
_geom_bond_distance
_geom_bond_site_symmetry_2
_ccdc_geom_bond_type
O0 Mg1 1.990 . S
O0 C14 1.253 . S
Mg1 O0 1.990 . S
Mg1 O4 2.180 . S
Mg1 O5 2.117 . S
Mg1 O19 2.030 1_545 S
O2 Mg3 2.061 1_554 S
O2 C14 1.260 . S
Mg3 O2 2.061 1_556 S
Mg3 O4 2.097 1_556 S
Mg3 O6 2.090 . S
Mg3 O7 2.072 1_456 S
Mg3 O9 2.100 1_445 S
Mg3 O20 2.079 1_545 S
O4 Mg1 2.180 . S
O4 Mg3 2.097 1_554 S
O4 C15 1.279 . S
O5 Mg1 2.117 . S
O5 C15 1.250 . S
O6 Mg3 2.090 . S
O6 C16 1.264 . S
O7 Mg3 2.072 1_654 S
O7 C17 1.260 1_554 S
Mg8 O9 2.180 . S
Mg8 O10 2.030 1_565 S
Mg8 O11 1.990 1_565 S
Mg8 O12 2.117 . S
O9 Mg3 2.100 1_665 S
O9 Mg8 2.180 . S
O9 C18 1.279 1_556 S
O10 Mg8 2.030 1_545 S
O10 C16 1.248 1_655 S
O11 Mg8 1.990 1_545 S
O11 C17 1.253 . S
O12 Mg8 2.117 . S
O12 C18 1.250 1_556 S
C13 O19 1.248 . S
C13 O20 1.264 1_554 S
C14 O0 1.253 . S
C14 O2 1.260 . S
C15 O4 1.279 . S
C15 O5 1.250 . S
C16 O6 1.264 . S
C16 O10 1.248 1_455 S
C17 O7 1.260 1_556 S
C17 O11 1.253 . S
C18 O9 1.279 1_554 S
C18 O12 1.250 1_554 S
O19 Mg1 2.030 1_565 S
O19 C13 1.248 . S
O20 Mg3 2.079 1_565 S
O20 C13 1.264 1_556 S
O21 Mg22 1.990 . S
O21 C35 1.253 . S
Mg22 O21 1.990 . S
Mg22 O25 2.180 . S
Mg22 O26 2.117 . S
Mg22 O40 2.030 . S
O23 Mg24 2.072 . S
O23 C35 1.260 . S
Mg24 O23 2.072 . S
Mg24 O25 2.099 . S
Mg24 O27 2.079 . S
Mg24 O28 2.072 . S
Mg24 O30 2.099 . S
Mg24 O41 2.079 . S
O25 Mg22 2.180 . S
O25 Mg24 2.099 . S
O25 C36 1.279 . S
O26 Mg22 2.117 . S
O26 C36 1.250 . S
O27 Mg24 2.079 . S
O27 C37 1.264 . S
O28 Mg24 2.072 . S
O28 C38 1.260 . S
Mg29 O30 2.180 . S
Mg29 O31 2.030 . S
Mg29 O32 1.990 . S
Mg29 O33 2.117 . S
O30 Mg24 2.099 . S
O30 Mg29 2.180 . S
O30 C39 1.279 . S
O31 Mg29 2.030 . S
O31 C37 1.248 . S
O32 Mg29 1.990 . S
O32 C38 1.253 . S
O33 Mg29 2.117 . S
O33 C39 1.250 . S
C34 O40 1.248 . S
C34 O41 1.264 . S
C35 O21 1.253 . S
C35 O23 1.260 . S
C36 O25 1.279 . S
C36 O26 1.250 . S
C37 O27 1.264 . S
C37 O31 1.248 . S
C38 O28 1.260 . S
C38 O32 1.253 . S
C39 O30 1.279 . S
C39 O33 1.250 . S
O40 Mg22 2.030 . S
O40 C34 1.248 . S
O41 Mg24 2.079 . S
O41 C34 1.264 . S
H42 C45 0.931 . S
H43 C48 0.928 . S
H44 C50 0.930 . S
C45 H42 0.931 . S
C45 C46 1.413 . S
C45 C47 1.360 1_645 S
C46 C45 1.413 . S
C46 C50 1.429 1_655 S
C47 C45 1.360 1_465 S
C47 C48 1.372 . S
C48 H43 0.928 . S
C48 C47 1.372 . S
C48 C49 1.404 . S
C49 C48 1.404 . S
C49 C50 1.391 1_565 S
C50 H44 0.930 . S
C50 C46 1.429 1_455 S
C50 C49 1.391 1_545 S
H51 C54 0.931 1_565 S
H52 C57 0.928 . S
H53 C59 0.930 . S
C54 H51 0.931 1_545 S
C54 C55 1.413 . S
C54 C56 1.360 1_655 S
C55 C54 1.413 . S
C55 C59 1.429 . S
C56 C54 1.360 1_455 S
C56 C57 1.372 . S
C57 H52 0.928 . S
C57 C56 1.372 . S
C57 C58 1.404 . S
C58 C57 1.404 . S
C58 C59 1.391 1_455 S
C59 H53 0.930 . S
C59 C55 1.429 . S
C59 C58 1.391 1_655 S
H60 C63 0.931 . S
H61 C66 0.928 . S
H62 C68 0.930 1_554 S
C63 H60 0.931 . S
C63 C64 1.413 . S
C63 C65 1.360 . S
C64 C63 1.413 . S
C64 C68 1.429 . S
C65 C63 1.360 . S
C65 C66 1.372 . S
C66 H61 0.928 . S
C66 C65 1.372 . S
C66 C67 1.404 . S
C67 C66 1.404 . S
C67 C68 1.391 . S
C68 H62 0.930 1_556 S
C68 C64 1.429 . S
C68 C67 1.391 . S
H69 C72 0.931 . S
H70 C75 0.928 . S
H71 C77 0.930 . S
C72 H69 0.931 . S
C72 C73 1.413 . S
C72 C74 1.360 . S
C73 C72 1.413 . S
C73 C77 1.429 . S
C74 C72 1.360 . S
C74 C75 1.372 . S
C75 H70 0.928 . S
C75 C74 1.372 . S
C75 C76 1.404 . S
C76 C75 1.404 . S
C76 C77 1.391 . S
C77 H71 0.930 . S
C77 C73 1.429 . S
C77 C76 1.391 . S
C78 C79 1.387 1_556 S
C78 H82 0.950 . S
C78 C87 1.390 . S
C79 C78 1.387 1_554 S
C79 C81 1.387 . S
H80 C87 0.950 . S
C81 C79 1.387 . S
C81 C83 1.390 . S
C81 H85 0.950 . S
H82 C78 0.950 . S
C83 C81 1.390 . S
C83 C84 1.387 . S
C83 H86 0.950 . S
C84 C83 1.387 . S
C84 C87 1.387 1_554 S
H85 C81 0.950 . S
H86 C83 0.950 . S
C87 C78 1.390 . S
C87 H80 0.950 . S
C87 C84 1.387 1_556 S
C88 C89 1.388 . S
C88 H92 0.950 . S
C88 C97 1.390 . S
C89 C88 1.388 . S
C89 C91 1.386 1_554 S
H90 C97 0.950 . S
C91 C89 1.386 1_556 S
C91 C93 1.390 . S
C91 H95 0.950 . S
H92 C88 0.950 . S
C93 C91 1.390 . S
C93 C94 1.387 . S
C93 H96 0.950 . S
C94 C93 1.387 . S
C94 C97 1.387 1_556 S
H95 C91 0.950 . S
H96 C93 0.950 . S
C97 C88 1.390 . S
C97 H90 0.950 . S
C97 C94 1.387 1_554 S
C98 C99 1.387 . S
C98 H102 0.950 . S
C98 C107 1.390 . S
C99 C98 1.387 . S
C99 C101 1.387 1_554 S
H100 C107 0.950 . S
C101 C99 1.387 1_556 S
C101 C103 1.390 . S
C101 H105 0.950 . S
H102 C98 0.950 . S
C103 C101 1.390 . S
C103 C104 1.387 1_556 S
C103 H106 0.950 . S
C104 C103 1.387 1_554 S
C104 C107 1.387 . S
H105 C101 0.950 . S
H106 C103 0.950 . S
C107 C98 1.390 . S
C107 H100 0.950 . S
C107 C104 1.387 . S
C108 C109 1.387 . S
C108 H112 0.950 . S
C108 C117 1.390 . S
C109 C108 1.387 . S
C109 C111 1.387 1_556 S
H110 C117 0.950 . S
C111 C109 1.387 1_554 S
C111 C113 1.390 . S
C111 H115 0.950 . S
H112 C108 0.950 . S
C113 C111 1.390 . S
C113 C114 1.387 1_554 S
C113 H116 0.950 . S
C114 C113 1.387 1_556 S
C114 C117 1.387 . S
H115 C111 0.950 . S
H116 C113 0.950 . S
C117 C108 1.390 . S
C117 H110 0.950 . S
C117 C114 1.387 . S
C118 C119 1.387 . S
C118 H122 0.950 . S
C118 C127 1.390 . S
C119 C118 1.387 . S
C119 C121 1.387 . S
H120 C127 0.950 . S
C121 C119 1.387 . S
C121 C123 1.390 . S
C121 H125 0.950 . S
H122 C118 0.950 . S
C123 C121 1.390 . S
C123 C124 1.387 . S
C123 H126 0.950 . S
C124 C123 1.387 . S
C124 C127 1.387 . S
H125 C121 0.950 . S
H126 C123 0.950 . S
C127 C118 1.390 . S
C127 H120 0.950 . S
C127 C124 1.387 . S
C128 C129 1.387 . S
C128 H132 0.950 . S
C128 C137 1.390 . S
C129 C128 1.387 . S
C129 C131 1.387 . S
H130 C137 0.950 . S
C131 C129 1.387 . S
C131 C133 1.390 . S
C131 H135 0.950 . S
H132 C128 0.950 . S
C133 C131 1.390 . S
C133 C134 1.387 . S
C133 H136 0.950 . S
C134 C133 1.387 . S
C134 C137 1.387 . S
H135 C131 0.950 . S
H136 C133 0.950 . S
C137 C128 1.390 . S
C137 H130 0.950 . S
C137 C134 1.387 . S
C138 C139 1.387 . S
C138 H142 0.950 . S
C138 C147 1.390 . S
C139 C138 1.387 . S
C139 C141 1.387 . S
H140 C147 0.950 . S
C141 C139 1.387 . S
C141 C143 1.390 . S
C141 H145 0.950 . S
H142 C138 0.950 . S
C143 C141 1.390 . S
C143 C144 1.387 . S
C143 H146 0.950 . S
C144 C143 1.387 . S
C144 C147 1.387 . S
H145 C141 0.950 . S
H146 C143 0.950 . S
C147 C138 1.390 . S
C147 H140 0.950 . S
C147 C144 1.387 . S
C148 C149 1.387 . S
C148 H152 0.950 . S
C148 C157 1.390 . S
C149 C148 1.387 . S
C149 C151 1.387 . S
H150 C157 0.950 . S
C151 C149 1.387 . S
C151 C153 1.390 . S
C151 H155 0.950 . S
H152 C148 0.950 . S
C153 C151 1.390 . S
C153 C154 1.387 . S
C153 H156 0.950 . S
C154 C153 1.387 . S
C154 C157 1.387 . S
H155 C151 0.950 . S
H156 C153 0.950 . S
C157 C148 1.390 . S
C157 H150 0.950 . S
C157 C154 1.387 . S
C158 C159 1.387 1_655 S
C158 H162 0.950 . S
C158 C167 1.390 . S
C159 C158 1.387 1_455 S
C159 C161 1.387 1_545 S
H160 C167 0.950 . S
C161 C159 1.387 1_565 S
C161 C163 1.390 . S
C161 H165 0.950 . S
H162 C158 0.950 . S
C163 C161 1.390 . S
C163 C164 1.387 . S
C163 H166 0.950 . S
C164 C163 1.387 . S
C164 C167 1.387 1_465 S
H165 C161 0.950 . S
H166 C163 0.950 . S
C167 C158 1.390 . S
C167 H160 0.950 . S
C167 C164 1.387 1_645 S
C168 C169 1.387 . S
C168 H172 0.950 . S
C168 C177 1.390 . S
C169 C168 1.387 . S
C169 C171 1.387 1_445 S
H170 C177 0.950 . S
C171 C169 1.387 1_665 S
C171 C173 1.390 1_565 S
C171 H175 0.950 . S
H172 C168 0.950 . S
C173 C171 1.390 1_545 S
C173 C174 1.387 1_655 S
C173 H176 0.950 1_545 S
C174 C173 1.387 1_455 S
C174 C177 1.387 . S
H175 C171 0.950 . S
H176 C173 0.950 1_565 S
C177 C168 1.390 . S
C177 H170 0.950 . S
C177 C174 1.387 . S
C178 C179 1.387 . S
C178 H182 0.950 . S
C178 C187 1.390 . S
C179 C178 1.387 . S
C179 C181 1.387 . S
H180 C187 0.950 . S
C181 C179 1.387 . S
C181 C183 1.390 . S
C181 H185 0.950 . S
H182 C178 0.950 . S
C183 C181 1.390 . S
C183 C184 1.387 . S
C183 H186 0.950 . S
C184 C183 1.387 . S
C184 C187 1.387 . S
H185 C181 0.950 . S
H186 C183 0.950 . S
C187 C178 1.390 . S
C187 H180 0.950 . S
C187 C184 1.387 . S
C188 C189 1.387 . S
C188 H192 0.950 . S
C188 C197 1.390 . S
C189 C188 1.387 . S
C189 C191 1.387 . S
H190 C197 0.950 . S
C191 C189 1.387 . S
C191 C193 1.390 . S
C191 H195 0.950 . S
H192 C188 0.950 . S
C193 C191 1.390 . S
C193 C194 1.387 . S
C193 H196 0.950 . S
C194 C193 1.387 . S
C194 C197 1.387 . S
H195 C191 0.950 . S
H196 C193 0.950 . S
C197 C188 1.390 . S
C197 H190 0.950 . S
C197 C194 1.387 . S
C84 C73 1.432 . S
C79 C15 1.247 . S
C89 C13 1.477 . S
C94 C64 1.479 . S
C99 C18 1.287 . S
C104 C76 1.454 . S
C109 C17 1.351 . S
C114 C67 1.423 . S
C119 C36 1.248 . S
C124 C55 1.433 1_565 S
C129 C34 1.479 . S
C134 C46 1.479 . S
C144 C58 1.455 . S
C139 C39 1.286 . S
C154 C49 1.423 . S
C149 C38 1.351 . S
C159 C14 1.495 . S
C164 C47 1.549 . S
C169 C16 1.384 . S
C174 C56 1.440 . S
C184 C65 1.549 . S
C179 C35 1.495 . S
C189 C37 1.386 . S
C194 C74 1.440 . S
