# Generated by pormake.
# Topology anh, (6,3)-cn, num edge types: 1
# Building blocks:
#     Node 0, Type 0, BuildingBlock: MIFKUJ_clean_sbu_0, # of connection points: 6
#     Node 1, Type 0, BuildingBlock: MIFKUJ_clean_sbu_0, # of connection points: 6
#     Node 2, Type 0, BuildingBlock: MIFKUJ_clean_sbu_0, # of connection points: 6
#     Node 3, Type 1, BuildingBlock: INOVEN_clean_linker_0, # of connection points: 3
#     Node 4, Type 1, BuildingBlock: INOVEN_clean_linker_0, # of connection points: 3
#     Node 5, Type 1, BuildingBlock: INOVEN_clean_linker_0, # of connection points: 3
#     Node 6, Type 1, BuildingBlock: INOVEN_clean_linker_0, # of connection points: 3
#     Node 7, Type 1, BuildingBlock: INOVEN_clean_linker_0, # of connection points: 3
#     Node 8, Type 1, BuildingBlock: INOVEN_clean_linker_0, # of connection points: 3
#     Edge 9, Type (0, 1), None
#     Edge 10, Type (0, 1), None
#     Edge 11, Type (0, 1), None
#     Edge 12, Type (0, 1), None
#     Edge 13, Type (0, 1), None
#     Edge 14, Type (0, 1), None
#     Edge 15, Type (0, 1), None
#     Edge 16, Type (0, 1), None
#     Edge 17, Type (0, 1), None
#     Edge 18, Type (0, 1), None
#     Edge 19, Type (0, 1), None
#     Edge 20, Type (0, 1), None
#     Edge 21, Type (0, 1), None
#     Edge 22, Type (0, 1), None
#     Edge 23, Type (0, 1), None
#     Edge 24, Type (0, 1), None
#     Edge 25, Type (0, 1), None
#     Edge 26, Type (0, 1), None
# Relax obj value: 0.065
# Max RMSD: 0.141
# Mean RMSD: 0.110
data_MOF--net-anh--node1-MIFKUJ_clean_sbu_0--node2-INOVEN_clean_linker_0--edge1-none
_symmetry_space_group_name_H-M    P1
_symmetry_Int_Tables_number       1
_symmetry_cell_setting            triclinic
loop_
_symmetry_equiv_pos_as_xyz
'x, y, z'
_cell_length_a     15.46809
_cell_length_b     15.450333
_cell_length_c     19.186486
_cell_angle_alpha  97.23767
_cell_angle_beta   93.00364
_cell_angle_gamma 118.03543
loop_
_atom_site_label
_atom_site_type_symbol
_atom_site_fract_x
_atom_site_fract_y
_atom_site_fract_z
_atom_type_partial_charge
Zn0 Zn 0.13502 0.55428 0.12977 0.0
Zn1 Zn 0.8486 0.38002 0.11798 0.0
C2 C 0.32777 0.56399 0.1361 0.0
O3 O 0.33965 0.60974 0.20124 0.0
C4 C 0.77252 0.5246 0.13784 0.0
O5 O 0.77273 0.51456 0.20474 0.0
O6 O 0.19479 0.70215 0.15455 0.0
O7 O 0.0227 0.50463 0.05232 0.0
O8 O 0.91 0.34856 0.03597 0.0
C9 C 0.26081 0.76721 0.12489 0.0
O10 O 0.28999 0.73896 0.06742 0.0
O11 O 0.24553 0.52973 0.09732 0.0
C12 C 0.68781 0.26067 0.18253 0.0
O13 O 0.74105 0.33572 0.23355 0.0
O14 O 0.71956 0.2575 0.12311 0.0
O15 O 0.93097 0.42056 0.21357 0.0
O16 O 0.09482 0.50818 0.22219 0.0
O17 O 0.80768 0.4817 0.09618 0.0
C18 C 0.98495 0.41767 0.01646 0.0
C19 C 0.0158 0.46234 0.24977 0.0
Zn20 Zn 0.49361 0.16128 0.46502 0.0
Zn21 Zn 0.35977 0.8737 0.46704 0.0
C22 C 0.70062 0.25065 0.46987 0.0
O23 O 0.69436 0.29284 0.53194 0.0
C24 C 0.17651 0.68169 0.48077 0.0
O25 O 0.19056 0.70052 0.55031 0.0
O26 O 0.51579 0.30019 0.49309 0.0
O27 O 0.38867 0.09132 0.38281 0.0
O28 O 0.35759 0.93525 0.38107 0.0
C29 C 0.53987 0.37239 0.45934 0.0
O30 O 0.5439 0.35925 0.39087 0.0
O31 O 0.62249 0.18159 0.43283 0.0
C32 C 0.45611 0.78839 0.52753 0.0
O33 O 0.39795 0.79442 0.57269 0.0
O34 O 0.45983 0.82385 0.47073 0.0
O35 O 0.37344 0.9496 0.56446 0.0
O36 O 0.46872 0.10749 0.55519 0.0
O37 O 0.23363 0.74494 0.44542 0.0
C38 C 0.35986 0.00394 0.34978 0.0
C39 C 0.42791 0.04023 0.59245 0.0
Zn40 Zn 0.71147 0.50886 0.7964 0.0
Zn41 Zn 0.53619 0.62167 0.79702 0.0
C42 C 0.59767 0.30427 0.80353 0.0
O43 O 0.64922 0.33518 0.86668 0.0
C44 C 0.56091 0.82339 0.80501 0.0
O45 O 0.56641 0.82763 0.87399 0.0
O46 O 0.83337 0.5001 0.81964 0.0
O47 O 0.72461 0.58572 0.71788 0.0
O48 O 0.56962 0.54196 0.72325 0.0
C49 C 0.86447 0.44647 0.78568 0.0
O50 O 0.8214 0.3964 0.72209 0.0
O51 O 0.60712 0.36784 0.76428 0.0
C52 C 0.36562 0.57646 0.86018 0.0
O53 O 0.43332 0.64851 0.90753 0.0
O54 O 0.39014 0.54689 0.80351 0.0
O55 O 0.60097 0.64252 0.89614 0.0
O56 O 0.68742 0.56159 0.88962 0.0
O57 O 0.55608 0.74865 0.76518 0.0
C58 C 0.64619 0.58367 0.69277 0.0
C59 C 0.65212 0.60939 0.9256 0.0
H60 H 0.4095 0.93008 0.0815 0.0
H61 H 0.24454 0.83479 0.25729 0.0
H62 H 0.4681 0.13658 0.27306 0.0
N63 N 0.53634 0.11305 0.15147 0.0
N64 N 0.59665 0.18582 0.19614 0.0
C65 C 0.39056 0.94688 0.13319 0.0
C66 C 0.31419 0.87162 0.16212 0.0
C67 C 0.44739 0.04248 0.17349 0.0
C68 C 0.42368 0.06356 0.24104 0.0
C69 C 0.35374 0.9883 0.27211 0.0
C70 C 0.29728 0.89327 0.23202 0.0
H71 H 0.51978 0.52761 0.41915 0.0
H72 H 0.62338 0.43586 0.59396 0.0
H73 H 0.62078 0.71271 0.62566 0.0
N74 N 0.52931 0.6888 0.49617 0.0
N75 N 0.50707 0.73645 0.54237 0.0
C76 C 0.5548 0.54369 0.47304 0.0
C77 C 0.57237 0.47222 0.50043 0.0
C78 C 0.57129 0.63068 0.51809 0.0
C79 C 0.61116 0.64811 0.58946 0.0
C80 C 0.63019 0.5783 0.61624 0.0
C81 C 0.61213 0.4915 0.57164 0.0
H82 H 0.03738 0.45854 0.74794 0.0
H83 H 0.85198 0.40062 0.9147 0.0
H84 H 0.14204 0.43566 0.95387 0.0
N85 N 0.19544 0.48228 0.82744 0.0
N86 N 0.26705 0.53388 0.8741 0.0
C87 C 0.02325 0.4404 0.80037 0.0
C88 C 0.93464 0.42617 0.82529 0.0
C89 C 0.09884 0.44459 0.84682 0.0
C90 C 0.0828 0.42852 0.91677 0.0
C91 C 0.99327 0.41062 0.94062 0.0
C92 C 0.91913 0.40837 0.89462 0.0
H93 H 0.01786 0.53827 0.53052 0.0
H94 H 0.15819 0.61125 0.34273 0.0
H95 H 0.88211 0.34413 0.33013 0.0
N96 N 0.85951 0.37571 0.4687 0.0
N97 N 0.78716 0.29726 0.43731 0.0
C98 C 0.02063 0.51944 0.47461 0.0
C99 C 0.0982 0.58496 0.4416 0.0
C100 C 0.94298 0.43199 0.43502 0.0
C101 C 0.9437 0.40948 0.36153 0.0
C102 C 0.02157 0.47415 0.32795 0.0
C103 C 0.09916 0.56022 0.36876 0.0
H104 H 0.59426 0.15095 0.86236 0.0
H105 H 0.49117 0.21927 0.67431 0.0
H106 H 0.44212 0.92329 0.68066 0.0
N107 N 0.54075 0.96405 0.80945 0.0
N108 N 0.54494 0.89329 0.77349 0.0
C109 C 0.55385 0.1276 0.80962 0.0
C110 C 0.54446 0.19705 0.77331 0.0
C111 C 0.51873 0.02943 0.77579 0.0
C112 C 0.46828 -0.00115 0.70679 0.0
C113 C 0.4584 0.06694 0.66974 0.0
C114 C 0.49568 0.16567 0.70367 0.0
H115 H 0.63067 0.55772 0.19629 0.0
H116 H 0.77751 0.57848 0.00931 0.0
H117 H 0.52839 0.63085 0.01227 0.0
N118 N 0.48984 0.59098 0.14171 0.0
N119 N 0.40913 0.56404 0.10555 0.0
C120 C 0.64027 0.57537 0.14338 0.0
C121 C 0.71436 0.56768 0.10753 0.0
C122 C 0.57199 0.59633 0.10855 0.0
C123 C 0.58191 0.61599 0.03911 0.0
C124 C 0.65594 0.61004 0.0029 0.0
C125 C 0.7224 0.58678 0.03781 0.0
loop_
_geom_bond_atom_site_label_1
_geom_bond_atom_site_label_2
_geom_bond_distance
_geom_bond_site_symmetry_2
_ccdc_geom_bond_type
Zn0 O6 1.969 . S
Zn0 O7 1.965 . S
Zn0 O11 2.024 . S
Zn0 O16 1.969 . S
Zn1 O8 1.969 . S
Zn1 O14 1.969 . S
Zn1 O15 1.965 . S
Zn1 O17 2.024 . S
C2 O3 1.229 . S
C2 O11 1.058 . S
O3 C2 1.229 . S
C4 O5 1.229 . S
C4 O17 1.058 . S
O5 C4 1.229 . S
O6 Zn0 1.969 . S
O6 C9 1.267 . S
O7 Zn0 1.965 . S
O7 C18 1.260 1_455 S
O8 Zn1 1.969 . S
O8 C18 1.258 . S
C9 O6 1.267 . S
C9 O10 1.228 . S
O10 C9 1.228 . S
O11 Zn0 2.024 . S
O11 C2 1.058 . S
C12 O13 1.228 . S
C12 O14 1.267 . S
O13 C12 1.228 . S
O14 Zn1 1.969 . S
O14 C12 1.267 . S
O15 Zn1 1.965 . S
O15 C19 1.260 1_655 S
O16 Zn0 1.969 . S
O16 C19 1.258 . S
O17 Zn1 2.024 . S
O17 C4 1.058 . S
C18 O7 1.260 1_655 S
C18 O8 1.258 . S
C19 O15 1.260 1_455 S
C19 O16 1.258 . S
Zn20 O26 1.969 . S
Zn20 O27 1.965 . S
Zn20 O31 2.024 . S
Zn20 O36 1.969 . S
Zn21 O28 1.969 . S
Zn21 O34 1.969 . S
Zn21 O35 1.965 . S
Zn21 O37 2.024 . S
C22 O23 1.229 . S
C22 O31 1.058 . S
O23 C22 1.229 . S
C24 O25 1.229 . S
C24 O37 1.058 . S
O25 C24 1.229 . S
O26 Zn20 1.969 . S
O26 C29 1.267 . S
O27 Zn20 1.965 . S
O27 C38 1.260 . S
O28 Zn21 1.969 . S
O28 C38 1.258 1_565 S
C29 O26 1.267 . S
C29 O30 1.228 . S
O30 C29 1.228 . S
O31 Zn20 2.024 . S
O31 C22 1.058 . S
C32 O33 1.228 . S
C32 O34 1.267 . S
O33 C32 1.228 . S
O34 Zn21 1.969 . S
O34 C32 1.267 . S
O35 Zn21 1.965 . S
O35 C39 1.260 1_565 S
O36 Zn20 1.969 . S
O36 C39 1.258 . S
O37 Zn21 2.024 . S
O37 C24 1.058 . S
C38 O27 1.260 . S
C38 O28 1.258 1_545 S
C39 O35 1.260 1_545 S
C39 O36 1.258 . S
Zn40 O46 1.969 . S
Zn40 O47 1.965 . S
Zn40 O51 2.024 . S
Zn40 O56 1.969 . S
Zn41 O48 1.969 . S
Zn41 O54 1.969 . S
Zn41 O55 1.965 . S
Zn41 O57 2.024 . S
C42 O43 1.229 . S
C42 O51 1.058 . S
O43 C42 1.229 . S
C44 O45 1.229 . S
C44 O57 1.058 . S
O45 C44 1.229 . S
O46 Zn40 1.969 . S
O46 C49 1.267 . S
O47 Zn40 1.965 . S
O47 C58 1.260 . S
O48 Zn41 1.969 . S
O48 C58 1.258 . S
C49 O46 1.267 . S
C49 O50 1.228 . S
O50 C49 1.228 . S
O51 Zn40 2.024 . S
O51 C42 1.058 . S
C52 O53 1.228 . S
C52 O54 1.267 . S
O53 C52 1.228 . S
O54 Zn41 1.969 . S
O54 C52 1.267 . S
O55 Zn41 1.965 . S
O55 C59 1.260 . S
O56 Zn40 1.969 . S
O56 C59 1.258 . S
O57 Zn41 2.024 . S
O57 C44 1.058 . S
C58 O47 1.260 . S
C58 O48 1.258 . S
C59 O55 1.260 . S
C59 O56 1.258 . S
H60 C65 0.929 . S
H61 C70 0.931 . S
H62 C68 0.930 . S
N63 N64 1.234 . S
N63 C67 1.453 . S
N64 N63 1.234 . S
C65 H60 0.929 . S
C65 C66 1.373 . S
C65 C67 1.368 1_565 S
C66 C65 1.373 . S
C66 C70 1.397 . S
C67 N63 1.453 . S
C67 C65 1.368 1_545 S
C67 C68 1.373 . S
C68 H62 0.930 . S
C68 C67 1.373 . S
C68 C69 1.371 . S
C69 C68 1.371 . S
C69 C70 1.383 1_545 S
C70 H61 0.931 . S
C70 C66 1.397 . S
C70 C69 1.383 1_565 S
H71 C76 0.929 . S
H72 C81 0.931 . S
H73 C79 0.930 . S
N74 N75 1.234 . S
N74 C78 1.453 . S
N75 N74 1.234 . S
C76 H71 0.929 . S
C76 C77 1.373 . S
C76 C78 1.368 . S
C77 C76 1.373 . S
C77 C81 1.397 . S
C78 N74 1.453 . S
C78 C76 1.368 . S
C78 C79 1.373 . S
C79 H73 0.930 . S
C79 C78 1.373 . S
C79 C80 1.371 . S
C80 C79 1.371 . S
C80 C81 1.383 . S
C81 H72 0.931 . S
C81 C77 1.397 . S
C81 C80 1.383 . S
H82 C87 0.929 . S
H83 C92 0.931 . S
H84 C90 0.930 . S
N85 N86 1.234 . S
N85 C89 1.453 . S
N86 N85 1.234 . S
C87 H82 0.929 . S
C87 C88 1.373 . S
C87 C89 1.368 1_655 S
C88 C87 1.373 . S
C88 C92 1.397 . S
C89 N85 1.453 . S
C89 C87 1.368 1_455 S
C89 C90 1.373 . S
C90 H84 0.930 . S
C90 C89 1.373 . S
C90 C91 1.371 . S
C91 C90 1.371 . S
C91 C92 1.383 1_455 S
C92 H83 0.931 . S
C92 C88 1.397 . S
C92 C91 1.383 1_655 S
H93 C98 0.929 . S
H94 C103 0.931 . S
H95 C101 0.930 . S
N96 N97 1.234 . S
N96 C100 1.453 1_655 S
N97 N96 1.234 . S
C98 H93 0.929 . S
C98 C99 1.373 . S
C98 C100 1.368 . S
C99 C98 1.373 . S
C99 C103 1.397 . S
C100 N96 1.453 1_455 S
C100 C98 1.368 . S
C100 C101 1.373 1_455 S
C101 H95 0.930 . S
C101 C100 1.373 1_655 S
C101 C102 1.371 1_655 S
C102 C101 1.371 1_455 S
C102 C103 1.383 . S
C103 H94 0.931 . S
C103 C99 1.397 . S
C103 C102 1.383 . S
H104 C109 0.929 . S
H105 C114 0.931 . S
H106 C112 0.930 1_565 S
N107 N108 1.234 . S
N107 C111 1.453 1_565 S
N108 N107 1.234 . S
C109 H104 0.929 . S
C109 C110 1.373 . S
C109 C111 1.368 . S
C110 C109 1.373 . S
C110 C114 1.397 . S
C111 N107 1.453 1_545 S
C111 C109 1.368 . S
C111 C112 1.373 . S
C112 H106 0.930 1_545 S
C112 C111 1.373 . S
C112 C113 1.371 . S
C113 C112 1.371 . S
C113 C114 1.383 . S
C114 H105 0.931 . S
C114 C110 1.397 . S
C114 C113 1.383 . S
H115 C120 0.929 . S
H116 C125 0.931 . S
H117 C123 0.930 . S
N118 N119 1.234 . S
N118 C122 1.453 . S
N119 N118 1.234 . S
C120 H115 0.929 . S
C120 C121 1.373 . S
C120 C122 1.368 . S
C121 C120 1.373 . S
C121 C125 1.397 . S
C122 N118 1.453 . S
C122 C120 1.368 . S
C122 C123 1.373 . S
C123 H117 0.930 . S
C123 C122 1.373 . S
C123 C124 1.371 . S
C124 C123 1.371 . S
C124 C125 1.383 . S
C125 H116 0.931 . S
C125 C121 1.397 . S
C125 C124 1.383 . S
C2 N119 1.598 . S
C22 N97 1.633 . S
C44 N108 1.547 . S
C4 C121 1.470 . S
C99 C24 1.480 . S
C110 C42 1.489 . S
C32 N75 1.347 . S
C49 C88 1.219 . S
C9 C66 1.145 . S
C77 C29 1.268 . S
N86 C52 1.118 . S
C12 N64 1.145 . S
C91 C18 1.440 1_456 S
C38 C69 1.400 . S
C58 C80 1.433 . S
C113 C39 1.537 . S
C124 C59 1.537 1_554 S
C19 C102 1.512 . S
