# Generated by pormake.
# Topology cml, (3,6)-cn, num edge types: 1
# Building blocks:
#     Node 0, Type 0, BuildingBlock: ESEHIV_clean_linker_0, # of connection points: 3
#     Node 1, Type 0, BuildingBlock: ESEHIV_clean_linker_0, # of connection points: 3
#     Node 2, Type 0, BuildingBlock: ESEHIV_clean_linker_0, # of connection points: 3
#     Node 3, Type 0, BuildingBlock: ESEHIV_clean_linker_0, # of connection points: 3
#     Node 4, Type 0, BuildingBlock: ESEHIV_clean_linker_0, # of connection points: 3
#     Node 5, Type 0, BuildingBlock: ESEHIV_clean_linker_0, # of connection points: 3
#     Node 6, Type 0, BuildingBlock: ESEHIV_clean_linker_0, # of connection points: 3
#     Node 7, Type 0, BuildingBlock: ESEHIV_clean_linker_0, # of connection points: 3
#     Node 8, Type 1, BuildingBlock: OJICUG_clean_sbu_0, # of connection points: 6
#     Node 9, Type 1, BuildingBlock: OJICUG_clean_sbu_0, # of connection points: 6
#     Node 10, Type 1, BuildingBlock: OJICUG_clean_sbu_0, # of connection points: 6
#     Node 11, Type 1, BuildingBlock: OJICUG_clean_sbu_0, # of connection points: 6
#     Edge 12, Type (0, 1), None
#     Edge 13, Type (0, 1), None
#     Edge 14, Type (0, 1), None
#     Edge 15, Type (0, 1), None
#     Edge 16, Type (0, 1), None
#     Edge 17, Type (0, 1), None
#     Edge 18, Type (0, 1), None
#     Edge 19, Type (0, 1), None
#     Edge 20, Type (0, 1), None
#     Edge 21, Type (0, 1), None
#     Edge 22, Type (0, 1), None
#     Edge 23, Type (0, 1), None
#     Edge 24, Type (0, 1), None
#     Edge 25, Type (0, 1), None
#     Edge 26, Type (0, 1), None
#     Edge 27, Type (0, 1), None
#     Edge 28, Type (0, 1), None
#     Edge 29, Type (0, 1), None
#     Edge 30, Type (0, 1), None
#     Edge 31, Type (0, 1), None
#     Edge 32, Type (0, 1), None
#     Edge 33, Type (0, 1), None
#     Edge 34, Type (0, 1), None
#     Edge 35, Type (0, 1), None
# Relax obj value: 0.072
# Max RMSD: 0.084
# Mean RMSD: 0.080
data_MOF--net-cml--node1-OJICUG_clean_sbu_0--node2-ESEHIV_clean_linker_0--edge1-none
_symmetry_space_group_name_H-M    P1
_symmetry_Int_Tables_number       1
_symmetry_cell_setting            triclinic
loop_
_symmetry_equiv_pos_as_xyz
'x, y, z'
_cell_length_a     13.696259
_cell_length_b     17.91414
_cell_length_c     16.30734
_cell_angle_alpha  89.999998
_cell_angle_beta   89.999996
_cell_angle_gamma 90.858304
loop_
_atom_site_label
_atom_site_type_symbol
_atom_site_fract_x
_atom_site_fract_y
_atom_site_fract_z
_atom_type_partial_charge
H0 H 0.42758 0.41968 0.03237 0.0
H1 H 0.27786 0.34231 0.81958 0.0
H2 H 0.30551 0.19679 0.03021 0.0
C3 C 0.3849 0.37586 0.00297 0.0
C4 C 0.37419 0.3056 0.04083 0.0
C5 C 0.35576 0.38787 0.92243 0.0
C6 C 0.30086 0.33257 0.88223 0.0
C7 C 0.27656 0.265 0.92229 0.0
C8 C 0.31734 0.25039 0.00083 0.0
H9 H 0.70377 0.45351 0.53237 0.0
H10 H 0.8535 0.53088 0.31958 0.0
H11 H 0.82585 0.6764 0.53021 0.0
C12 C 0.74645 0.49732 0.50297 0.0
C13 C 0.75717 0.56759 0.54083 0.0
C14 C 0.7756 0.48532 0.42243 0.0
C15 C 0.8305 0.54062 0.38223 0.0
C16 C 0.8548 0.60818 0.42229 0.0
C17 C 0.81402 0.6228 0.50083 0.0
H18 H 0.66567 0.39893 0.02203 0.0
H19 H 0.84118 0.2052 0.02449 0.0
H20 H 0.82359 0.33996 0.80373 0.0
C21 C 0.71729 0.36362 -0.00952 0.0
C22 C 0.74019 0.37744 0.90808 0.0
C23 C 0.75234 0.30177 0.03206 0.0
C24 C 0.81477 0.25331 -0.0086 0.0
C25 C 0.84448 0.26789 0.90939 0.0
C26 C 0.80439 0.32927 0.86715 0.0
H27 H 0.46568 0.47426 0.52204 0.0
H28 H 0.30776 0.53323 0.30373 0.0
H29 H 0.29017 0.66799 0.52449 0.0
C30 C 0.41406 0.50956 0.49048 0.0
C31 C 0.37901 0.57142 0.53206 0.0
C32 C 0.39116 0.49575 0.40808 0.0
C33 C 0.32697 0.54391 0.36715 0.0
C34 C 0.28688 0.60529 0.40939 0.0
C35 C 0.31659 0.61987 0.4914 0.0
H36 H 0.92758 0.91968 0.03237 0.0
H37 H 0.77786 0.84231 0.81958 0.0
H38 H 0.80551 0.69679 0.03021 0.0
C39 C 0.8849 0.87586 0.00297 0.0
C40 C 0.87419 0.8056 0.04083 0.0
C41 C 0.85576 0.88787 0.92243 0.0
C42 C 0.80086 0.83257 0.88223 0.0
C43 C 0.77656 0.765 0.92229 0.0
C44 C 0.81734 0.75039 0.00083 0.0
H45 H 0.20377 -0.04649 0.53237 0.0
H46 H 0.3535 0.03088 0.31958 0.0
H47 H 0.32585 0.1764 0.53021 0.0
C48 C 0.24645 -0.00268 0.50297 0.0
C49 C 0.25717 0.06759 0.54083 0.0
C50 C 0.2756 -0.01468 0.42243 0.0
C51 C 0.3305 0.04062 0.38223 0.0
C52 C 0.3548 0.10818 0.42229 0.0
C53 C 0.31402 0.1228 0.50083 0.0
H54 H 0.16567 0.89893 0.02203 0.0
H55 H 0.34118 0.7052 0.02449 0.0
H56 H 0.32359 0.83996 0.80373 0.0
C57 C 0.21729 0.86362 -0.00952 0.0
C58 C 0.24019 0.87744 0.90808 0.0
C59 C 0.25234 0.80177 0.03206 0.0
C60 C 0.31477 0.75331 -0.0086 0.0
C61 C 0.34448 0.76789 0.90939 0.0
C62 C 0.30439 0.82927 0.86715 0.0
H63 H 0.96568 -0.02574 0.52204 0.0
H64 H 0.80776 0.03323 0.30373 0.0
H65 H 0.79017 0.16799 0.52449 0.0
C66 C 0.91406 0.00956 0.49048 0.0
C67 C 0.87901 0.07142 0.53206 0.0
C68 C 0.89116 -0.00425 0.40808 0.0
C69 C 0.82697 0.04391 0.36715 0.0
C70 C 0.78688 0.10529 0.40939 0.0
C71 C 0.81659 0.11987 0.4914 0.0
Sc72 Sc 0.06538 0.69166 0.2261 0.0
Sc73 Sc 0.08627 0.88776 0.22763 0.0
Sc74 Sc 0.07575 0.79234 0.4115 0.0
O75 O 0.07426 0.79029 0.28849 0.0
C76 C 0.92497 0.66116 0.38276 0.0
C77 C 0.93496 0.7925 0.11554 0.0
C78 C 0.94406 0.93436 0.36759 0.0
C79 C 0.214 0.78848 0.11543 0.0
C80 C 0.21178 0.65363 0.37165 0.0
C81 C 0.22585 0.92432 0.37744 0.0
O82 O 0.96332 0.64319 0.31427 0.0
O83 O 0.98676 0.84807 0.13794 0.0
O84 O 0.98065 0.88575 0.41497 0.0
O85 O 0.16351 0.72932 0.12849 0.0
O86 O 0.17185 0.70024 0.41919 0.0
O87 O 0.18661 -0.05864 0.30994 0.0
O88 O 0.18764 0.64647 0.2962 0.0
O89 O 0.20828 0.84595 0.16068 0.0
O90 O 0.20176 0.86577 0.4171 0.0
O91 O 0.94351 0.72834 0.14877 0.0
O92 O 0.95088 0.71924 0.42211 0.0
O93 O 0.96607 -0.06099 0.29196 0.0
Sc94 Sc 0.06598 0.18153 0.7261 0.0
Sc95 Sc 1.04508 -0.01458 0.72763 0.0
Sc96 Sc 1.0556 0.08085 0.9115 0.0
O97 O 1.0571 0.08289 0.78849 0.0
C98 C 0.20639 0.21203 0.88276 0.0
C99 C 0.1964 0.08068 0.61554 0.0
C100 C 0.1873 -0.06117 0.86759 0.0
C101 C 0.91735 0.0847 0.61543 0.0
C102 C 0.91958 0.21955 0.87165 0.0
C103 C 0.90551 -0.05114 0.87744 0.0
O104 O 0.16804 0.23 0.81427 0.0
O105 O 0.14459 0.02511 0.63794 0.0
O106 O 0.1507 -0.01257 0.91497 0.0
O107 O 0.96785 0.14386 0.62849 0.0
O108 O 0.95951 0.17295 0.91919 0.0
O109 O 0.94474 0.93182 0.80994 0.0
O110 O 0.94372 0.22672 0.7962 0.0
O111 O 0.92308 0.02724 0.66068 0.0
O112 O 0.92959 0.00741 0.9171 0.0
O113 O 0.18785 0.14485 0.64877 0.0
O114 O 0.18048 0.15394 0.92211 0.0
O115 O 0.16528 0.93418 0.79196 0.0
Sc116 Sc 0.56538 0.19166 0.2261 0.0
Sc117 Sc 0.58627 0.38776 0.22763 0.0
Sc118 Sc 0.57575 0.29234 0.4115 0.0
O119 O 0.57426 0.29029 0.28849 0.0
C120 C 0.42497 0.16116 0.38276 0.0
C121 C 0.43496 0.2925 0.11554 0.0
C122 C 0.44406 0.43436 0.36759 0.0
C123 C 0.714 0.28848 0.11543 0.0
C124 C 0.71178 0.15363 0.37165 0.0
C125 C 0.72585 0.42432 0.37744 0.0
O126 O 0.46332 0.14319 0.31427 0.0
O127 O 0.48676 0.34807 0.13794 0.0
O128 O 0.48065 0.38575 0.41497 0.0
O129 O 0.66351 0.22932 0.12849 0.0
O130 O 0.67185 0.20024 0.41919 0.0
O131 O 0.68661 0.44136 0.30994 0.0
O132 O 0.68764 0.14647 0.2962 0.0
O133 O 0.70828 0.34595 0.16068 0.0
O134 O 0.70176 0.36577 0.4171 0.0
O135 O 0.44351 0.22834 0.14877 0.0
O136 O 0.45088 0.21924 0.42211 0.0
O137 O 0.46607 0.43901 0.29196 0.0
Sc138 Sc 0.56598 0.68153 0.7261 0.0
Sc139 Sc 0.54508 0.48542 0.72763 0.0
Sc140 Sc 0.5556 0.58085 0.9115 0.0
O141 O 0.5571 0.58289 0.78849 0.0
C142 C 0.70639 0.71203 0.88276 0.0
C143 C 0.6964 0.58068 0.61554 0.0
C144 C 0.6873 0.43883 0.86759 0.0
C145 C 0.41735 0.5847 0.61543 0.0
C146 C 0.41958 0.71955 0.87165 0.0
C147 C 0.40551 0.44886 0.87744 0.0
O148 O 0.66804 0.73 0.81427 0.0
O149 O 0.64459 0.52511 0.63794 0.0
O150 O 0.6507 0.48743 0.91497 0.0
O151 O 0.46785 0.64386 0.62849 0.0
O152 O 0.45951 0.67295 0.91919 0.0
O153 O 0.44474 0.43182 0.80994 0.0
O154 O 0.44372 0.72672 0.7962 0.0
O155 O 0.42308 0.52724 0.66068 0.0
O156 O 0.42959 0.50741 0.9171 0.0
O157 O 0.68785 0.64485 0.64877 0.0
O158 O 0.68048 0.65394 0.92211 0.0
O159 O 0.66528 0.43418 0.79196 0.0
loop_
_geom_bond_atom_site_label_1
_geom_bond_atom_site_label_2
_geom_bond_distance
_geom_bond_site_symmetry_2
_ccdc_geom_bond_type
H0 C3 0.931 . S
H1 C6 0.928 . S
H2 C8 0.930 . S
C3 H0 0.931 . S
C3 C4 1.413 . S
C3 C5 1.360 1_554 S
C4 C3 1.413 . S
C4 C8 1.429 . S
C5 C3 1.360 1_556 S
C5 C6 1.372 . S
C6 H1 0.928 . S
C6 C5 1.372 . S
C6 C7 1.404 . S
C7 C6 1.404 . S
C7 C8 1.391 1_556 S
C8 H2 0.930 . S
C8 C4 1.429 . S
C8 C7 1.391 1_554 S
H9 C12 0.931 . S
H10 C15 0.928 . S
H11 C17 0.930 . S
C12 H9 0.931 . S
C12 C13 1.413 . S
C12 C14 1.360 . S
C13 C12 1.413 . S
C13 C17 1.429 . S
C14 C12 1.360 . S
C14 C15 1.372 . S
C15 H10 0.928 . S
C15 C14 1.372 . S
C15 C16 1.404 . S
C16 C15 1.404 . S
C16 C17 1.391 . S
C17 H11 0.930 . S
C17 C13 1.429 . S
C17 C16 1.391 . S
H18 C21 0.931 . S
H19 C24 0.928 . S
H20 C26 0.930 . S
C21 H18 0.931 . S
C21 C22 1.413 1_554 S
C21 C23 1.360 . S
C22 C21 1.413 1_556 S
C22 C26 1.429 . S
C23 C21 1.360 . S
C23 C24 1.372 . S
C24 H19 0.928 . S
C24 C23 1.372 . S
C24 C25 1.404 1_554 S
C25 C24 1.404 1_556 S
C25 C26 1.391 . S
C26 H20 0.930 . S
C26 C22 1.429 . S
C26 C25 1.391 . S
H27 C30 0.931 . S
H28 C33 0.928 . S
H29 C35 0.930 . S
C30 H27 0.931 . S
C30 C31 1.413 . S
C30 C32 1.360 . S
C31 C30 1.413 . S
C31 C35 1.429 . S
C32 C30 1.360 . S
C32 C33 1.372 . S
C33 H28 0.928 . S
C33 C32 1.372 . S
C33 C34 1.404 . S
C34 C33 1.404 . S
C34 C35 1.391 . S
C35 H29 0.930 . S
C35 C31 1.429 . S
C35 C34 1.391 . S
H36 C39 0.931 . S
H37 C42 0.928 . S
H38 C44 0.930 . S
C39 H36 0.931 . S
C39 C40 1.413 . S
C39 C41 1.360 1_554 S
C40 C39 1.413 . S
C40 C44 1.429 . S
C41 C39 1.360 1_556 S
C41 C42 1.372 . S
C42 H37 0.928 . S
C42 C41 1.372 . S
C42 C43 1.404 . S
C43 C42 1.404 . S
C43 C44 1.391 1_556 S
C44 H38 0.930 . S
C44 C40 1.429 . S
C44 C43 1.391 1_554 S
H45 C48 0.931 . S
H46 C51 0.928 . S
H47 C53 0.930 . S
C48 H45 0.931 . S
C48 C49 1.413 . S
C48 C50 1.360 . S
C49 C48 1.413 . S
C49 C53 1.429 . S
C50 C48 1.360 . S
C50 C51 1.372 . S
C51 H46 0.928 . S
C51 C50 1.372 . S
C51 C52 1.404 . S
C52 C51 1.404 . S
C52 C53 1.391 . S
C53 H47 0.930 . S
C53 C49 1.429 . S
C53 C52 1.391 . S
H54 C57 0.931 . S
H55 C60 0.928 . S
H56 C62 0.930 . S
C57 H54 0.931 . S
C57 C58 1.413 1_554 S
C57 C59 1.360 . S
C58 C57 1.413 1_556 S
C58 C62 1.429 . S
C59 C57 1.360 . S
C59 C60 1.372 . S
C60 H55 0.928 . S
C60 C59 1.372 . S
C60 C61 1.404 1_554 S
C61 C60 1.404 1_556 S
C61 C62 1.391 . S
C62 H56 0.930 . S
C62 C58 1.429 . S
C62 C61 1.391 . S
H63 C66 0.931 . S
H64 C69 0.928 . S
H65 C71 0.930 . S
C66 H63 0.931 . S
C66 C67 1.413 . S
C66 C68 1.360 . S
C67 C66 1.413 . S
C67 C71 1.429 . S
C68 C66 1.360 . S
C68 C69 1.372 . S
C69 H64 0.928 . S
C69 C68 1.372 . S
C69 C70 1.404 . S
C70 C69 1.404 . S
C70 C71 1.391 . S
C71 H65 0.930 . S
C71 C67 1.429 . S
C71 C70 1.391 . S
Sc72 O75 2.025 . S
Sc72 O82 2.105 1_455 S
Sc72 O85 2.105 . S
Sc72 O88 2.105 . S
Sc72 O91 2.105 1_455 S
Sc73 O75 2.025 . S
Sc73 O83 2.105 1_455 S
Sc73 O87 2.105 . S
Sc73 O89 2.105 . S
Sc73 O93 2.105 1_455 S
Sc74 O75 2.025 . S
Sc74 O84 2.105 1_455 S
Sc74 O86 2.105 . S
Sc74 O90 2.105 . S
Sc74 O92 2.105 1_455 S
O75 Sc72 2.025 . S
O75 Sc73 2.025 . S
O75 Sc74 2.025 . S
C76 O82 1.268 . S
C76 O92 1.268 . S
C77 O83 1.268 . S
C77 O91 1.268 . S
C78 O84 1.268 . S
C78 O93 1.268 . S
C79 O85 1.268 . S
C79 O89 1.268 . S
C80 O86 1.268 . S
C80 O88 1.268 . S
C81 O87 1.268 . S
C81 O90 1.268 . S
O82 Sc72 2.105 1_655 S
O82 C76 1.268 . S
O83 Sc73 2.105 1_655 S
O83 C77 1.268 . S
O84 Sc74 2.105 1_655 S
O84 C78 1.268 . S
O85 Sc72 2.105 . S
O85 C79 1.268 . S
O86 Sc74 2.105 . S
O86 C80 1.268 . S
O87 Sc73 2.105 . S
O87 C81 1.268 . S
O88 Sc72 2.105 . S
O88 C80 1.268 . S
O89 Sc73 2.105 . S
O89 C79 1.268 . S
O90 Sc74 2.105 . S
O90 C81 1.268 . S
O91 Sc72 2.105 1_655 S
O91 C77 1.268 . S
O92 Sc74 2.105 1_655 S
O92 C76 1.268 . S
O93 Sc73 2.105 1_655 S
O93 C78 1.268 . S
Sc94 O97 2.025 . S
Sc94 O104 2.113 . S
Sc94 O107 2.097 1_455 S
Sc94 O110 2.097 1_455 S
Sc94 O113 2.113 . S
Sc95 O97 2.025 . S
Sc95 O105 2.112 . S
Sc95 O109 2.097 1_455 S
Sc95 O111 2.097 1_455 S
Sc95 O115 2.112 . S
Sc96 O97 2.025 . S
Sc96 O106 2.112 . S
Sc96 O108 2.098 1_455 S
Sc96 O112 2.098 1_455 S
Sc96 O114 2.112 . S
O97 Sc94 2.025 . S
O97 Sc95 2.025 . S
O97 Sc96 2.025 . S
C98 O104 1.268 . S
C98 O114 1.268 . S
C99 O105 1.268 . S
C99 O113 1.268 . S
C100 O106 1.268 . S
C100 O115 1.268 . S
C101 O107 1.268 . S
C101 O111 1.268 . S
C102 O108 1.268 . S
C102 O110 1.268 . S
C103 O109 1.268 . S
C103 O112 1.268 . S
O104 Sc94 2.113 . S
O104 C98 1.268 . S
O105 Sc95 2.112 . S
O105 C99 1.268 . S
O106 Sc96 2.112 . S
O106 C100 1.268 . S
O107 Sc94 2.097 1_655 S
O107 C101 1.268 . S
O108 Sc96 2.098 1_655 S
O108 C102 1.268 . S
O109 Sc95 2.097 1_655 S
O109 C103 1.268 . S
O110 Sc94 2.097 1_655 S
O110 C102 1.268 . S
O111 Sc95 2.097 1_655 S
O111 C101 1.268 . S
O112 Sc96 2.098 1_655 S
O112 C103 1.268 . S
O113 Sc94 2.113 . S
O113 C99 1.268 . S
O114 Sc96 2.112 . S
O114 C98 1.268 . S
O115 Sc95 2.112 . S
O115 C100 1.268 . S
Sc116 O119 2.025 . S
Sc116 O126 2.105 . S
Sc116 O129 2.105 . S
Sc116 O132 2.105 . S
Sc116 O135 2.105 . S
Sc117 O119 2.025 . S
Sc117 O127 2.105 . S
Sc117 O131 2.105 . S
Sc117 O133 2.105 . S
Sc117 O137 2.105 . S
Sc118 O119 2.025 . S
Sc118 O128 2.105 . S
Sc118 O130 2.105 . S
Sc118 O134 2.105 . S
Sc118 O136 2.105 . S
O119 Sc116 2.025 . S
O119 Sc117 2.025 . S
O119 Sc118 2.025 . S
C120 O126 1.268 . S
C120 O136 1.268 . S
C121 O127 1.268 . S
C121 O135 1.268 . S
C122 O128 1.268 . S
C122 O137 1.268 . S
C123 O129 1.268 . S
C123 O133 1.268 . S
C124 O130 1.268 . S
C124 O132 1.268 . S
C125 O131 1.268 . S
C125 O134 1.268 . S
O126 Sc116 2.105 . S
O126 C120 1.268 . S
O127 Sc117 2.105 . S
O127 C121 1.268 . S
O128 Sc118 2.105 . S
O128 C122 1.268 . S
O129 Sc116 2.105 . S
O129 C123 1.268 . S
O130 Sc118 2.105 . S
O130 C124 1.268 . S
O131 Sc117 2.105 . S
O131 C125 1.268 . S
O132 Sc116 2.105 . S
O132 C124 1.268 . S
O133 Sc117 2.105 . S
O133 C123 1.268 . S
O134 Sc118 2.105 . S
O134 C125 1.268 . S
O135 Sc116 2.105 . S
O135 C121 1.268 . S
O136 Sc118 2.105 . S
O136 C120 1.268 . S
O137 Sc117 2.105 . S
O137 C122 1.268 . S
Sc138 O141 2.025 . S
Sc138 O148 2.105 . S
Sc138 O151 2.105 . S
Sc138 O154 2.105 . S
Sc138 O157 2.105 . S
Sc139 O141 2.025 . S
Sc139 O149 2.105 . S
Sc139 O153 2.105 . S
Sc139 O155 2.105 . S
Sc139 O159 2.105 . S
Sc140 O141 2.025 . S
Sc140 O150 2.105 . S
Sc140 O152 2.105 . S
Sc140 O156 2.105 . S
Sc140 O158 2.105 . S
O141 Sc138 2.025 . S
O141 Sc139 2.025 . S
O141 Sc140 2.025 . S
C142 O148 1.268 . S
C142 O158 1.268 . S
C143 O149 1.268 . S
C143 O157 1.268 . S
C144 O150 1.268 . S
C144 O159 1.268 . S
C145 O151 1.268 . S
C145 O155 1.268 . S
C146 O152 1.268 . S
C146 O154 1.268 . S
C147 O153 1.268 . S
C147 O156 1.268 . S
O148 Sc138 2.105 . S
O148 C142 1.268 . S
O149 Sc139 2.105 . S
O149 C143 1.268 . S
O150 Sc140 2.105 . S
O150 C144 1.268 . S
O151 Sc138 2.105 . S
O151 C145 1.268 . S
O152 Sc140 2.105 . S
O152 C146 1.268 . S
O153 Sc139 2.105 . S
O153 C147 1.268 . S
O154 Sc138 2.105 . S
O154 C146 1.268 . S
O155 Sc139 2.105 . S
O155 C145 1.268 . S
O156 Sc140 2.105 . S
O156 C147 1.268 . S
O157 Sc138 2.105 . S
O157 C143 1.268 . S
O158 Sc140 2.105 . S
O158 C142 1.268 . S
O159 Sc139 2.105 . S
O159 C144 1.268 . S
C7 C98 1.553 . S
C76 C16 1.553 . S
C102 C25 1.560 . S
C80 C34 1.550 . S
C142 C43 1.553 . S
C120 C52 1.553 . S
C61 C146 1.559 . S
C124 C70 1.550 . S
C5 C147 1.490 . S
C125 C14 1.491 . S
C22 C144 1.486 . S
C32 C122 1.483 . S
C103 C41 1.490 1_545 S
C50 C81 1.491 1_545 S
C100 C58 1.486 1_545 S
C78 C68 1.483 1_565 S
C121 C4 1.549 . S
C143 C13 1.549 . S
C23 C123 1.554 . S
C145 C31 1.539 . S
C77 C40 1.550 . S
C49 C99 1.549 . S
C59 C79 1.554 . S
C67 C101 1.538 . S
