# Generated by pormake.
# Topology anh, (6,3)-cn, num edge types: 1
# Building blocks:
#     Node 0, Type 0, BuildingBlock: CUKXOW_clean_sbu_0, # of connection points: 6
#     Node 1, Type 0, BuildingBlock: CUKXOW_clean_sbu_0, # of connection points: 6
#     Node 2, Type 0, BuildingBlock: CUKXOW_clean_sbu_0, # of connection points: 6
#     Node 3, Type 1, BuildingBlock: CUQRIR_clean_linker_1, # of connection points: 3
#     Node 4, Type 1, BuildingBlock: CUQRIR_clean_linker_1, # of connection points: 3
#     Node 5, Type 1, BuildingBlock: CUQRIR_clean_linker_1, # of connection points: 3
#     Node 6, Type 1, BuildingBlock: CUQRIR_clean_linker_1, # of connection points: 3
#     Node 7, Type 1, BuildingBlock: CUQRIR_clean_linker_1, # of connection points: 3
#     Node 8, Type 1, BuildingBlock: CUQRIR_clean_linker_1, # of connection points: 3
#     Edge 9, Type (0, 1), BuildingBlock: EYOCIG_clean_linker_4, # of connection points: 2
#     Edge 10, Type (0, 1), BuildingBlock: EYOCIG_clean_linker_4, # of connection points: 2
#     Edge 11, Type (0, 1), BuildingBlock: EYOCIG_clean_linker_4, # of connection points: 2
#     Edge 12, Type (0, 1), BuildingBlock: EYOCIG_clean_linker_4, # of connection points: 2
#     Edge 13, Type (0, 1), BuildingBlock: EYOCIG_clean_linker_4, # of connection points: 2
#     Edge 14, Type (0, 1), BuildingBlock: EYOCIG_clean_linker_4, # of connection points: 2
#     Edge 15, Type (0, 1), BuildingBlock: EYOCIG_clean_linker_4, # of connection points: 2
#     Edge 16, Type (0, 1), BuildingBlock: EYOCIG_clean_linker_4, # of connection points: 2
#     Edge 17, Type (0, 1), BuildingBlock: EYOCIG_clean_linker_4, # of connection points: 2
#     Edge 18, Type (0, 1), BuildingBlock: EYOCIG_clean_linker_4, # of connection points: 2
#     Edge 19, Type (0, 1), BuildingBlock: EYOCIG_clean_linker_4, # of connection points: 2
#     Edge 20, Type (0, 1), BuildingBlock: EYOCIG_clean_linker_4, # of connection points: 2
#     Edge 21, Type (0, 1), BuildingBlock: EYOCIG_clean_linker_4, # of connection points: 2
#     Edge 22, Type (0, 1), BuildingBlock: EYOCIG_clean_linker_4, # of connection points: 2
#     Edge 23, Type (0, 1), BuildingBlock: EYOCIG_clean_linker_4, # of connection points: 2
#     Edge 24, Type (0, 1), BuildingBlock: EYOCIG_clean_linker_4, # of connection points: 2
#     Edge 25, Type (0, 1), BuildingBlock: EYOCIG_clean_linker_4, # of connection points: 2
#     Edge 26, Type (0, 1), BuildingBlock: EYOCIG_clean_linker_4, # of connection points: 2
# Relax obj value: 0.146
# Max RMSD: 0.195
# Mean RMSD: 0.165
data_MOF--net-anh--node1-CUKXOW_clean_sbu_0--node2-CUQRIR_clean_linker_1--edge1-EYOCIG_clean_linker_4
_symmetry_space_group_name_H-M    P1
_symmetry_Int_Tables_number       1
_symmetry_cell_setting            triclinic
loop_
_symmetry_equiv_pos_as_xyz
'x, y, z'
_cell_length_a     21.030601
_cell_length_b     19.948967
_cell_length_c     34.554363
_cell_angle_alpha  89.959359
_cell_angle_beta   90.695156
_cell_angle_gamma 111.80762
loop_
_atom_site_label
_atom_site_type_symbol
_atom_site_fract_x
_atom_site_fract_y
_atom_site_fract_z
_atom_type_partial_charge
Tb0 Tb 0.06134 0.53843 0.16758 0.0
C1 C 1.01918 0.457 0.24655 0.0
Tb2 Tb 0.98964 0.36988 0.16627 0.0
O3 O 0.96672 0.56565 0.16395 0.0
O4 O 0.95944 0.46073 0.16485 0.0
O5 O 0.05111 0.51938 0.22924 0.0
C6 C 0.87125 0.25783 0.16776 0.0
O7 O 0.99107 0.39437 0.22814 0.0
C8 C 0.12813 0.40924 0.16587 0.0
C9 C 0.03611 0.45203 0.08838 0.0
O10 O 0.91567 0.27763 0.19596 0.0
O11 O 0.89616 0.29684 0.13752 0.0
O12 O 0.08393 0.34223 0.16495 0.0
O13 O 0.09074 0.44735 0.16717 0.0
O14 O 1.0007 0.38938 0.10462 0.0
O15 O 0.06517 0.51385 0.10706 0.0
C16 C 0.17918 0.65267 0.16899 0.0
O17 O 0.13835 0.63118 0.13924 0.0
O18 O 0.1513 0.61356 0.19873 0.0
C19 C 0.922 0.49895 0.16258 0.0
Tb20 Tb 0.50537 0.99228 0.50714 0.0
C21 C 0.58184 0.03606 0.42725 0.0
Tb22 Tb 0.66921 0.07024 0.50624 0.0
O23 O 0.48195 0.09221 0.50679 0.0
O24 O 0.58088 0.09496 0.50651 0.0
O25 O 0.52327 1.001 0.44508 0.0
C26 C 0.77716 0.19002 0.50257 0.0
O27 O 0.64197 0.06778 0.44494 0.0
C28 C 0.62682 0.92839 0.50919 0.0
C29 C 0.59217 0.02669 0.58615 0.0
O30 O 0.75647 0.14268 0.4749 0.0
O31 O 0.74018 0.16808 0.53312 0.0
O32 O 0.69194 0.96984 0.50935 0.0
O33 O 0.59372 0.969 0.50628 0.0
O34 O 0.65087 0.0628 0.56851 0.0
O35 O 0.53253 0.9935 0.56823 0.0
C36 C 0.39563 0.87236 0.50729 0.0
O37 O 0.41766 0.91546 0.53667 0.0
O38 O 0.43285 0.89826 0.47719 0.0
C39 C 0.54659 0.13497 0.50604 0.0
Tb40 Tb 0.50821 0.54491 0.83612 0.0
C41 C 0.58089 0.56282 0.91823 0.0
Tb42 Tb 0.65839 0.61709 0.84012 0.0
O43 O 0.48819 0.43013 0.83376 0.0
O44 O 0.58853 0.50938 0.83722 0.0
O45 O 0.52159 0.54164 0.8991 0.0
C46 C 0.77173 0.60644 0.83675 0.0
O47 O 0.6404 0.59333 0.90115 0.0
C48 C 0.61012 0.7169 0.83868 0.0
C49 C 0.5886 0.59217 0.75777 0.0
O50 O 0.75163 0.62737 0.86821 0.0
O51 O 0.73179 0.59741 0.80712 0.0
O52 O 0.67584 0.73211 0.84068 0.0
O53 O 0.57846 0.64994 0.83847 0.0
O54 O 0.6471 0.61641 0.77733 0.0
O55 O 0.52855 0.56299 0.77455 0.0
C56 C 0.39787 0.56549 0.83461 0.0
O57 O 0.4217 0.54619 0.80417 0.0
O58 O 0.43115 0.56589 0.86634 0.0
C59 C 0.55352 0.44226 0.83584 0.0
C60 C 0.51202 0.99383 0.17892 0.0
N61 N 0.55252 0.03973 0.20597 0.0
N62 N 0.45816 0.94226 0.19595 0.0
C63 C 0.52513 0.99915 0.1362 0.0
C64 C 0.46655 0.9592 0.23391 0.0
N65 N 0.52422 0.01769 0.24016 0.0
C66 C 0.41962 0.91554 0.26487 0.0
H67 H 0.49764 0.03158 0.12299 0.0
H68 H 0.50534 0.94485 0.12256 0.0
H69 H 0.58051 0.02653 0.13015 0.0
H70 H 0.42426 0.86201 0.26682 0.0
H71 H 0.36577 0.90604 0.25664 0.0
H72 H 0.43137 0.94255 0.29354 0.0
C73 C 0.57322 0.53331 0.50798 0.0
N74 N 0.57065 0.58112 0.53543 0.0
N75 N 0.57161 0.47098 0.52476 0.0
C76 C 0.57697 0.54718 0.46525 0.0
C77 C 0.5671 0.48253 0.56289 0.0
N78 N 0.56776 0.54939 0.56951 0.0
C79 C 0.56332 0.42801 0.59365 0.0
H80 H 0.52439 0.52456 0.45274 0.0
H81 H 0.60795 0.51981 0.45118 0.0
H82 H 0.59895 0.60592 0.45907 0.0
H83 H 0.61376 0.42242 0.59608 0.0
H84 H 0.52484 0.37463 0.58502 0.0
H85 H 0.54948 0.44363 0.62218 0.0
C86 C 0.07635 0.54693 0.8478 0.0
N87 N 0.1128 0.54027 0.87834 0.0
N88 N 1.01538 0.54194 0.85993 0.0
C89 C 0.10044 0.56165 0.80658 0.0
C90 C 1.01493 0.53265 0.89837 0.0
N91 N 0.07524 0.53108 0.90955 0.0
C92 C 0.95587 0.52465 0.92446 0.0
H93 H 0.12112 0.62086 0.80177 0.0
H94 H 0.05725 0.53706 0.78583 0.0
H95 H 0.14129 0.54057 0.8007 0.0
H96 H 0.91298 0.4733 0.91752 0.0
H97 H 0.93769 0.56942 0.91898 0.0
H98 H 0.97012 0.52505 0.95551 0.0
C99 C 0.05491 0.55009 0.49371 0.0
N100 N 1.01265 0.5083 0.4661 0.0
N101 N 0.10724 0.60336 0.47703 0.0
C102 C 0.04654 0.53771 0.5366 0.0
C103 C 0.09493 0.59328 0.43869 0.0
N104 N 0.03795 0.53455 0.43191 0.0
C105 C 0.14106 0.63916 0.40815 0.0
H106 H 1.01966 0.57165 0.54829 0.0
H107 H 0.09724 0.55394 0.55133 0.0
H108 H 1.01566 0.48043 0.5432 0.0
H109 H 0.18909 0.62828 0.40773 0.0
H110 H 0.15496 0.69707 0.41554 0.0
H111 H 0.11651 0.62831 0.37904 0.0
C112 C 0.57065 0.0673 0.83475 0.0
N113 N 0.56589 0.0172 0.80731 0.0
N114 N 0.57182 0.12881 0.81775 0.0
C115 C 0.5743 0.05637 0.87761 0.0
C116 C 0.56714 0.11401 0.77955 0.0
N117 N 0.56466 0.04666 0.7731 0.0
C118 C 0.5649 0.16605 0.7487 0.0
H119 H 0.52147 0.03461 0.88906 0.0
H120 H 0.60294 0.10837 0.89246 0.0
H121 H 0.5988 0.01692 0.88404 0.0
H122 H 0.61495 0.21187 0.74817 0.0
H123 H 0.52517 0.18804 0.75597 0.0
H124 H 0.55335 0.14039 0.71968 0.0
C125 C 0.52844 0.45543 0.16191 0.0
N126 N 0.58078 0.46649 0.13555 0.0
N127 N 0.46953 0.45868 0.14484 0.0
C128 C 0.5347 0.44213 0.20413 0.0
C129 C 0.48826 0.47193 0.10762 0.0
N130 N 0.55387 0.47741 0.10195 0.0
C131 C 0.44117 0.48158 0.07669 0.0
H132 H 0.51183 0.38315 0.20945 0.0
H133 H 0.50595 0.4683 0.22125 0.0
H134 H 0.58922 0.46249 0.2136 0.0
H135 H 0.43463 0.53354 0.08182 0.0
H136 H 0.3899 0.43787 0.07885 0.0
H137 H 0.46017 0.4812 0.04702 0.0
C138 C 0.26812 0.44107 0.16408 0.0
C139 C 0.20562 0.43165 0.16496 0.0
C140 C 0.34118 0.44748 0.16275 0.0
C141 C 0.40174 0.45154 0.15839 0.0
C142 C 0.86256 0.32165 0.49011 0.0
C143 C 0.82322 0.26206 0.49709 0.0
C144 C 0.91106 0.3888 0.47999 0.0
C145 C 0.95751 0.44359 0.47231 0.0
C146 C 0.56606 0.82043 0.82579 0.0
C147 C 0.58047 0.7688 0.8316 0.0
C148 C 0.56116 0.88711 0.81876 0.0
C149 C 0.56331 0.94705 0.81319 0.0
C150 C 0.78236 0.47041 0.15283 0.0
C151 C 0.84439 0.47769 0.15727 0.0
C152 C 0.71014 0.46724 0.14692 0.0
C153 C 0.6504 0.46691 0.14162 0.0
C154 C 0.2858 0.75357 0.50636 0.0
C155 C 0.33585 0.80803 0.5074 0.0
C156 C 0.22254 0.69599 0.50262 0.0
C157 C 0.16778 0.65146 0.49385 0.0
C158 C 0.58794 0.32896 0.84062 0.0
C159 C 0.57945 0.38537 0.83868 0.0
C160 C 0.58661 0.25771 0.84031 0.0
C161 C 0.5802 0.19621 0.83375 0.0
C162 C 0.58415 0.787 0.52032 0.0
C163 C 0.59932 0.85113 0.51513 0.0
C164 C 0.5752 0.71342 0.52589 0.0
C165 C 0.57313 0.65229 0.52994 0.0
C166 C 0.8525 0.5435 0.82797 0.0
C167 C 0.81751 0.57407 0.8365 0.0
C168 C 0.90861 0.52873 0.82316 0.0
C169 C 0.96111 0.53539 0.83683 0.0
C170 C 0.30073 0.76004 0.16975 0.0
C171 C 0.24522 0.7112 0.16901 0.0
C172 C 0.36119 0.82308 0.17278 0.0
C173 C 0.40793 0.87927 0.18028 0.0
C174 C 0.58097 0.2776 0.50221 0.0
C175 C 0.57153 0.21356 0.50389 0.0
C176 C 0.58204 0.34985 0.50281 0.0
C177 C 0.57781 0.40812 0.50902 0.0
C178 C 0.29556 0.59413 0.84754 0.0
C179 C 0.34071 0.58184 0.83448 0.0
C180 C 0.2389 0.58216 0.86847 0.0
C181 C 0.18204 0.56148 0.87812 0.0
C182 C 0.74067 0.18095 0.18058 0.0
C183 C 0.79961 0.21639 0.17316 0.0
C184 C 0.67338 0.13691 0.19143 0.0
C185 C 0.61797 0.09282 0.19969 0.0
C186 C 0.06801 0.46769 0.01581 0.0
C187 C 0.04994 0.45389 0.04841 0.0
C188 C 0.08809 0.49095 0.97844 0.0
C189 C 0.09005 0.51028 0.94577 0.0
C190 C 0.5769 0.04921 0.35129 0.0
C191 C 0.57977 0.04355 0.38597 0.0
C192 C 0.569 0.05108 0.3107 0.0
C193 C 0.55377 0.04108 0.27685 0.0
C194 C 0.58612 0.60066 0.68134 0.0
C195 C 0.58955 0.59785 0.71621 0.0
C196 C 0.57947 0.59656 0.64047 0.0
C197 C 0.57413 0.58137 0.60643 0.0
C198 C 0.58607 0.01289 0.66216 0.0
C199 C 0.5921 0.02105 0.62761 0.0
C200 C 0.57666 1.00843 0.70265 0.0
C201 C 0.57073 0.01877 0.73656 0.0
C202 C 0.58954 0.53305 0.99264 0.0
C203 C 0.58262 0.54538 0.95878 0.0
C204 C 0.59524 0.51475 0.03207 0.0
C205 C 0.58594 0.49741 0.06582 0.0
C206 C 1.00867 0.46503 0.32243 0.0
C207 C 1.01205 0.45839 0.28786 0.0
C208 C 1.00882 0.47993 0.36248 0.0
C209 C 1.01784 0.5007 0.39564 0.0
loop_
_geom_bond_atom_site_label_1
_geom_bond_atom_site_label_2
_geom_bond_distance
_geom_bond_site_symmetry_2
_ccdc_geom_bond_type
Tb0 O3 2.453 1_455 S
Tb0 O4 2.596 1_455 S
Tb0 O5 2.374 . S
Tb0 O13 2.343 . S
Tb0 O15 2.353 . S
Tb0 O17 2.427 . S
Tb0 O18 2.513 . S
C1 O5 1.251 1_655 S
C1 O7 1.263 . S
Tb2 O4 2.343 . S
Tb2 O7 2.353 . S
Tb2 O10 2.427 . S
Tb2 O11 2.513 . S
Tb2 O12 2.453 1_655 S
Tb2 O13 2.596 1_655 S
Tb2 O14 2.374 . S
O3 Tb0 2.453 1_655 S
O3 C19 1.245 . S
O4 Tb0 2.596 1_655 S
O4 Tb2 2.343 . S
O4 C19 1.259 . S
O5 Tb0 2.374 . S
O5 C1 1.251 1_455 S
C6 O10 1.275 . S
C6 O11 1.246 . S
O7 C1 1.263 . S
O7 Tb2 2.353 . S
C8 O12 1.245 . S
C8 O13 1.259 . S
C9 O14 1.250 1_455 S
C9 O15 1.263 . S
O10 Tb2 2.427 . S
O10 C6 1.275 . S
O11 Tb2 2.513 . S
O11 C6 1.246 . S
O12 Tb2 2.453 1_455 S
O12 C8 1.245 . S
O13 Tb0 2.343 . S
O13 Tb2 2.596 1_455 S
O13 C8 1.259 . S
O14 Tb2 2.374 . S
O14 C9 1.250 1_655 S
O15 Tb0 2.353 . S
O15 C9 1.263 . S
C16 O17 1.275 . S
C16 O18 1.246 . S
O17 Tb0 2.427 . S
O17 C16 1.275 . S
O18 Tb0 2.513 . S
O18 C16 1.246 . S
C19 O3 1.245 . S
C19 O4 1.259 . S
Tb20 O23 2.453 1_565 S
Tb20 O24 2.596 1_565 S
Tb20 O25 2.374 1_565 S
Tb20 O33 2.343 . S
Tb20 O35 2.353 1_565 S
Tb20 O37 2.427 . S
Tb20 O38 2.513 . S
C21 O25 1.251 . S
C21 O27 1.263 . S
Tb22 O24 2.343 . S
Tb22 O27 2.353 . S
Tb22 O30 2.427 . S
Tb22 O31 2.513 . S
Tb22 O32 2.453 1_545 S
Tb22 O33 2.596 1_545 S
Tb22 O34 2.374 . S
O23 Tb20 2.453 1_545 S
O23 C39 1.245 . S
O24 Tb20 2.596 1_545 S
O24 Tb22 2.343 . S
O24 C39 1.259 . S
O25 Tb20 2.374 1_545 S
O25 C21 1.251 . S
C26 O30 1.275 . S
C26 O31 1.246 . S
O27 C21 1.263 . S
O27 Tb22 2.353 . S
C28 O32 1.245 . S
C28 O33 1.259 . S
C29 O34 1.250 . S
C29 O35 1.263 . S
O30 Tb22 2.427 . S
O30 C26 1.275 . S
O31 Tb22 2.513 . S
O31 C26 1.246 . S
O32 Tb22 2.453 1_565 S
O32 C28 1.245 . S
O33 Tb20 2.343 . S
O33 Tb22 2.596 1_565 S
O33 C28 1.259 . S
O34 Tb22 2.374 . S
O34 C29 1.250 . S
O35 Tb20 2.353 1_545 S
O35 C29 1.263 . S
C36 O37 1.275 . S
C36 O38 1.246 . S
O37 Tb20 2.427 . S
O37 C36 1.275 . S
O38 Tb20 2.513 . S
O38 C36 1.246 . S
C39 O23 1.245 . S
C39 O24 1.259 . S
Tb40 O43 2.453 . S
Tb40 O44 2.596 . S
Tb40 O45 2.374 . S
Tb40 O53 2.343 . S
Tb40 O55 2.353 . S
Tb40 O57 2.427 . S
Tb40 O58 2.513 . S
C41 O45 1.251 . S
C41 O47 1.263 . S
Tb42 O44 2.343 . S
Tb42 O47 2.353 . S
Tb42 O50 2.427 . S
Tb42 O51 2.513 . S
Tb42 O52 2.453 . S
Tb42 O53 2.596 . S
Tb42 O54 2.374 . S
O43 Tb40 2.453 . S
O43 C59 1.245 . S
O44 Tb40 2.596 . S
O44 Tb42 2.343 . S
O44 C59 1.259 . S
O45 Tb40 2.374 . S
O45 C41 1.251 . S
C46 O50 1.275 . S
C46 O51 1.246 . S
O47 C41 1.263 . S
O47 Tb42 2.353 . S
C48 O52 1.245 . S
C48 O53 1.259 . S
C49 O54 1.250 . S
C49 O55 1.263 . S
O50 Tb42 2.427 . S
O50 C46 1.275 . S
O51 Tb42 2.513 . S
O51 C46 1.246 . S
O52 Tb42 2.453 . S
O52 C48 1.245 . S
O53 Tb40 2.343 . S
O53 Tb42 2.596 . S
O53 C48 1.259 . S
O54 Tb42 2.374 . S
O54 C49 1.250 . S
O55 Tb40 2.353 . S
O55 C49 1.263 . S
C56 O57 1.275 . S
C56 O58 1.246 . S
O57 Tb40 2.427 . S
O57 C56 1.275 . S
O58 Tb40 2.513 . S
O58 C56 1.246 . S
C59 O43 1.245 . S
C59 O44 1.259 . S
C60 N61 1.317 1_565 S
C60 N62 1.348 . S
C60 C63 1.485 . S
N61 C60 1.317 1_545 S
N61 N65 1.370 . S
N62 C60 1.348 . S
N62 C64 1.346 . S
C63 C60 1.485 . S
C63 H67 0.960 1_565 S
C63 H68 0.961 . S
C63 H69 0.960 1_565 S
C64 N62 1.346 . S
C64 N65 1.307 1_565 S
C64 C66 1.486 . S
N65 N61 1.370 . S
N65 C64 1.307 1_545 S
C66 C64 1.486 . S
C66 H70 0.960 . S
C66 H71 0.960 . S
C66 H72 0.959 . S
H67 C63 0.960 1_545 S
H68 C63 0.961 . S
H69 C63 0.960 1_545 S
H70 C66 0.960 . S
H71 C66 0.960 . S
H72 C66 0.959 . S
C73 N74 1.317 . S
C73 N75 1.348 . S
C73 C76 1.485 . S
N74 C73 1.317 . S
N74 N78 1.370 . S
N75 C73 1.348 . S
N75 C77 1.346 . S
C76 C73 1.485 . S
C76 H80 0.960 . S
C76 H81 0.961 . S
C76 H82 0.960 . S
C77 N75 1.346 . S
C77 N78 1.307 . S
C77 C79 1.486 . S
N78 N74 1.370 . S
N78 C77 1.307 . S
C79 C77 1.486 . S
C79 H83 0.960 . S
C79 H84 0.960 . S
C79 H85 0.959 . S
H80 C76 0.960 . S
H81 C76 0.961 . S
H82 C76 0.960 . S
H83 C79 0.960 . S
H84 C79 0.960 . S
H85 C79 0.959 . S
C86 N87 1.317 . S
C86 N88 1.348 1_455 S
C86 C89 1.485 . S
N87 C86 1.317 . S
N87 N91 1.370 . S
N88 C86 1.348 1_655 S
N88 C90 1.346 . S
C89 C86 1.485 . S
C89 H93 0.960 . S
C89 H94 0.961 . S
C89 H95 0.960 . S
C90 N88 1.346 . S
C90 N91 1.307 1_655 S
C90 C92 1.486 . S
N91 N87 1.370 . S
N91 C90 1.307 1_455 S
C92 C90 1.486 . S
C92 H96 0.960 . S
C92 H97 0.960 . S
C92 H98 0.959 . S
H93 C89 0.960 . S
H94 C89 0.961 . S
H95 C89 0.960 . S
H96 C92 0.960 . S
H97 C92 0.960 . S
H98 C92 0.959 . S
C99 N100 1.317 1_455 S
C99 N101 1.348 . S
C99 C102 1.485 . S
N100 C99 1.317 1_655 S
N100 N104 1.370 1_655 S
N101 C99 1.348 . S
N101 C103 1.346 . S
C102 C99 1.485 . S
C102 H106 0.960 1_455 S
C102 H107 0.961 . S
C102 H108 0.960 1_455 S
C103 N101 1.346 . S
C103 N104 1.307 . S
C103 C105 1.486 . S
N104 N100 1.370 1_455 S
N104 C103 1.307 . S
C105 C103 1.486 . S
C105 H109 0.960 . S
C105 H110 0.960 . S
C105 H111 0.959 . S
H106 C102 0.960 1_655 S
H107 C102 0.961 . S
H108 C102 0.960 1_655 S
H109 C105 0.960 . S
H110 C105 0.960 . S
H111 C105 0.959 . S
C112 N113 1.317 . S
C112 N114 1.348 . S
C112 C115 1.485 . S
N113 C112 1.317 . S
N113 N117 1.370 . S
N114 C112 1.348 . S
N114 C116 1.346 . S
C115 C112 1.485 . S
C115 H119 0.960 . S
C115 H120 0.961 . S
C115 H121 0.960 . S
C116 N114 1.346 . S
C116 N117 1.307 . S
C116 C118 1.486 . S
N117 N113 1.370 . S
N117 C116 1.307 . S
C118 C116 1.486 . S
C118 H122 0.960 . S
C118 H123 0.960 . S
C118 H124 0.959 . S
H119 C115 0.960 . S
H120 C115 0.961 . S
H121 C115 0.960 . S
H122 C118 0.960 . S
H123 C118 0.960 . S
H124 C118 0.959 . S
C125 N126 1.317 . S
C125 N127 1.348 . S
C125 C128 1.485 . S
N126 C125 1.317 . S
N126 N130 1.370 . S
N127 C125 1.348 . S
N127 C129 1.346 . S
C128 C125 1.485 . S
C128 H132 0.960 . S
C128 H133 0.961 . S
C128 H134 0.960 . S
C129 N127 1.346 . S
C129 N130 1.307 . S
C129 C131 1.486 . S
N130 N126 1.370 . S
N130 C129 1.307 . S
C131 C129 1.486 . S
C131 H135 0.960 . S
C131 H136 0.960 . S
C131 H137 0.959 . S
H132 C128 0.960 . S
H133 C128 0.961 . S
H134 C128 0.960 . S
H135 C131 0.960 . S
H136 C131 0.960 . S
H137 C131 0.959 . S
C138 C139 1.170 . S
C138 C140 1.380 . S
C139 C138 1.170 . S
C140 C138 1.380 . S
C140 C141 1.170 . S
C141 C140 1.170 . S
C142 C143 1.170 . S
C142 C144 1.380 . S
C143 C142 1.170 . S
C144 C142 1.380 . S
C144 C145 1.170 . S
C145 C144 1.170 . S
C146 C147 1.170 . S
C146 C148 1.380 . S
C147 C146 1.170 . S
C148 C146 1.380 . S
C148 C149 1.170 . S
C149 C148 1.170 . S
C150 C151 1.170 . S
C150 C152 1.380 . S
C151 C150 1.170 . S
C152 C150 1.380 . S
C152 C153 1.170 . S
C153 C152 1.170 . S
C154 C155 1.170 . S
C154 C156 1.380 . S
C155 C154 1.170 . S
C156 C154 1.380 . S
C156 C157 1.170 . S
C157 C156 1.170 . S
C158 C159 1.170 . S
C158 C160 1.380 . S
C159 C158 1.170 . S
C160 C158 1.380 . S
C160 C161 1.170 . S
C161 C160 1.170 . S
C162 C163 1.170 . S
C162 C164 1.380 . S
C163 C162 1.170 . S
C164 C162 1.380 . S
C164 C165 1.170 . S
C165 C164 1.170 . S
C166 C167 1.170 . S
C166 C168 1.380 . S
C167 C166 1.170 . S
C168 C166 1.380 . S
C168 C169 1.170 . S
C169 C168 1.170 . S
C170 C171 1.170 . S
C170 C172 1.380 . S
C171 C170 1.170 . S
C172 C170 1.380 . S
C172 C173 1.170 . S
C173 C172 1.170 . S
C174 C175 1.170 . S
C174 C176 1.380 . S
C175 C174 1.170 . S
C176 C174 1.380 . S
C176 C177 1.170 . S
C177 C176 1.170 . S
C178 C179 1.170 . S
C178 C180 1.380 . S
C179 C178 1.170 . S
C180 C178 1.380 . S
C180 C181 1.170 . S
C181 C180 1.170 . S
C182 C183 1.170 . S
C182 C184 1.380 . S
C183 C182 1.170 . S
C184 C182 1.380 . S
C184 C185 1.170 . S
C185 C184 1.170 . S
C186 C187 1.170 . S
C186 C188 1.380 1_554 S
C187 C186 1.170 . S
C188 C186 1.380 1_556 S
C188 C189 1.170 . S
C189 C188 1.170 . S
C190 C191 1.170 . S
C190 C192 1.380 . S
C191 C190 1.170 . S
C192 C190 1.380 . S
C192 C193 1.170 . S
C193 C192 1.170 . S
C194 C195 1.170 . S
C194 C196 1.380 . S
C195 C194 1.170 . S
C196 C194 1.380 . S
C196 C197 1.170 . S
C197 C196 1.170 . S
C198 C199 1.170 . S
C198 C200 1.380 . S
C199 C198 1.170 . S
C200 C198 1.380 . S
C200 C201 1.170 . S
C201 C200 1.170 . S
C202 C203 1.170 . S
C202 C204 1.380 1_556 S
C203 C202 1.170 . S
C204 C202 1.380 1_554 S
C204 C205 1.170 . S
C205 C204 1.170 . S
C206 C207 1.170 . S
C206 C208 1.380 . S
C207 C206 1.170 . S
C208 C206 1.380 . S
C208 C209 1.170 . S
C209 C208 1.170 . S
C139 C8 1.766 . S
C141 N127 1.755 . S
C143 C26 1.302 . S
C145 N100 1.298 . S
C147 C48 1.462 . S
C149 N113 1.524 1_565 S
C151 C19 1.950 . S
C153 N126 2.100 . S
C157 N101 1.546 . S
C155 C36 1.477 . S
C161 N114 1.692 . S
C159 C59 1.626 . S
C163 C28 1.473 . S
C165 N74 1.514 . S
C167 C46 1.005 . S
C169 N88 0.963 . S
C171 C16 1.504 . S
C173 N62 1.512 . S
C177 N75 1.691 . S
C175 C39 1.617 . S
C181 N87 1.328 . S
C179 C56 1.233 . S
C183 C6 1.369 . S
C185 N61 1.365 . S
C189 N91 1.506 . S
C187 C9 1.498 . S
C191 C21 1.540 . S
C193 N65 1.539 . S
C195 C49 1.516 . S
C197 N78 1.556 . S
C201 N117 1.539 . S
C199 C29 1.526 . S
C205 N130 1.584 . S
C203 C41 1.603 . S
C207 C1 1.537 . S
C209 N104 1.562 1_655 S
