# Generated by pormake.
# Topology scu, (8,4)-cn, num edge types: 1
# Building blocks:
#     Node 0, Type 0, BuildingBlock: VETTIZ_charged_sbu_0, # of connection points: 8
#     Node 1, Type 1, BuildingBlock: IZENUY_clean_linker_0, # of connection points: 4
#     Node 2, Type 1, BuildingBlock: IZENUY_clean_linker_0, # of connection points: 4
#     Edge 3, Type (0, 1), BuildingBlock: AJUNOK_clean_linker_0, # of connection points: 2
#     Edge 4, Type (0, 1), BuildingBlock: AJUNOK_clean_linker_0, # of connection points: 2
#     Edge 5, Type (0, 1), BuildingBlock: AJUNOK_clean_linker_0, # of connection points: 2
#     Edge 6, Type (0, 1), BuildingBlock: AJUNOK_clean_linker_0, # of connection points: 2
#     Edge 7, Type (0, 1), BuildingBlock: AJUNOK_clean_linker_0, # of connection points: 2
#     Edge 8, Type (0, 1), BuildingBlock: AJUNOK_clean_linker_0, # of connection points: 2
#     Edge 9, Type (0, 1), BuildingBlock: AJUNOK_clean_linker_0, # of connection points: 2
#     Edge 10, Type (0, 1), BuildingBlock: AJUNOK_clean_linker_0, # of connection points: 2
# Relax obj value: 0.029
# Max RMSD: 0.128
# Mean RMSD: 0.109
data_MOF--net-scu--node1-VETTIZ_charged_sbu_0--node2-IZENUY_clean_linker_0--edge1-AJUNOK_clean_linker_0
_symmetry_space_group_name_H-M    P1
_symmetry_Int_Tables_number       1
_symmetry_cell_setting            triclinic
loop_
_symmetry_equiv_pos_as_xyz
'x, y, z'
_cell_length_a     19.649854
_cell_length_b     20.907892
_cell_length_c     16.292521
_cell_angle_alpha  92.202252
_cell_angle_beta   86.870559
_cell_angle_gamma 93.263597
loop_
_atom_site_label
_atom_site_type_symbol
_atom_site_fract_x
_atom_site_fract_y
_atom_site_fract_z
_atom_type_partial_charge
Fe0 Fe 1.09245 0.05364 0.0315 0.0
O1 O 1.08197 0.11489 -0.0576 0.0
Fe2 Fe 0.18122 0.93233 0.9294 0.0
Fe3 Fe 1.0065 0.1729 -0.05537 0.0
O4 O 0.10505 0.98988 -0.06215 0.0
O5 O 0.1044 0.98951 0.9292 0.0
O6 O 1.08235 0.11491 0.93393 0.0
Fe7 Fe 1.09521 1.05136 0.83998 0.0
C8 C 0.94606 0.07042 0.06529 0.0
O9 O 1.07939 0.1309 0.11673 0.0
O10 O 1.06032 0.21652 0.03668 0.0
O11 O 0.19884 0.07427 0.83335 0.0
O12 O 0.23814 0.97746 0.83602 0.0
O13 O 0.23593 0.98106 0.0197 0.0
O14 O 0.1955 0.07772 0.03199 0.0
O15 O 1.06105 0.21374 0.84829 0.0
O16 O 1.08669 0.1276 0.76042 0.0
C17 C 0.23887 1.03824 0.04961 0.0
O18 O 0.1073 0.9729 0.75527 0.0
O19 O 0.12929 0.88826 0.83623 0.0
O20 O 0.98925 1.03009 0.0401 0.0
O21 O 0.94979 0.12699 0.03836 0.0
C22 C 1.07715 0.19203 0.10387 0.0
C23 C 1.08094 0.18878 0.77764 0.0
C24 C 0.94774 0.06907 0.82315 0.0
O25 O 0.95089 0.12543 0.85532 0.0
O26 O 0.99172 1.02887 0.83693 0.0
C27 C 0.24198 1.03379 0.80874 0.0
O28 O 0.12586 0.89108 0.025 0.0
O29 O 0.10359 0.97858 0.11161 0.0
C30 C 0.11168 0.91194 0.76877 0.0
C31 C 0.10679 0.91713 0.0952 0.0
H32 H 0.10844 0.45925 0.32582 0.0
H33 H 0.13834 0.46254 0.58584 0.0
H34 H 0.14585 0.28569 0.44377 0.0
H35 H 1.08763 0.63711 0.54952 0.0
H36 H 0.09602 0.65035 0.28575 0.0
H37 H 1.04948 0.8143 0.44179 0.0
N38 N 0.11491 0.53594 0.46448 0.0
N39 N 0.10338 0.56879 0.40496 0.0
C40 C 0.12128 0.43519 0.38014 0.0
C41 C 0.12785 0.36857 0.37635 0.0
C42 C 0.12688 0.46963 0.45587 0.0
C43 C 0.13791 0.43664 0.52693 0.0
C44 C 0.1434 0.3699 0.52303 0.0
C45 C 0.14229 0.33735 0.44695 0.0
C46 C 1.08119 0.66389 0.49511 0.0
C47 C 1.0671 0.72883 0.50395 0.0
C48 C 1.08912 0.63456 0.41595 0.0
C49 C 1.08545 0.67171 0.34642 0.0
C50 C 1.07229 0.73709 0.35584 0.0
C51 C 1.05937 0.76378 0.43446 0.0
H52 H 0.69062 1.05167 0.32795 0.0
H53 H 0.68709 1.04157 0.59062 0.0
H54 H 0.87916 1.04468 0.44865 0.0
H55 H 0.49274 0.06292 0.54659 0.0
H56 H 0.49539 0.06326 0.28245 0.0
H57 H 0.30453 0.06965 0.42538 0.0
N58 N 0.60885 1.05215 0.46761 0.0
N59 N 0.57451 0.05847 0.40651 0.0
C60 C 0.71753 1.04896 0.38392 0.0
C61 C 0.7889 1.04622 0.37894 0.0
C62 C 0.68092 1.0478 0.46051 0.0
C63 C 0.71619 1.04389 0.53229 0.0
C64 C 0.78794 1.04409 0.52967 0.0
C65 C 0.82389 1.044 0.45212 0.0
C66 C 0.4661 0.06529 0.49037 0.0
C67 C 0.39481 0.0683 0.49496 0.0
C68 C 0.50253 0.0634 0.41352 0.0
C69 C 0.46709 0.06502 0.34143 0.0
C70 C 0.39572 0.06795 0.3446 0.0
C71 C 0.35978 0.06965 0.42196 0.0
C72 C 1.05754 0.2284 0.24866 0.0
C73 C 1.09038 0.23805 0.17151 0.0
C74 C 1.06709 0.27326 0.31306 0.0
C75 C 0.11138 0.32827 0.30306 0.0
H76 H 1.02366 0.1864 0.25898 0.0
H77 H 1.04064 0.2641 0.37191 0.0
S78 S 0.20876 0.37488 0.11178 0.0
N79 N 0.16667 0.30694 0.08652 0.0
N80 N 0.18738 0.39013 0.20977 0.0
C81 C 0.1434 0.33905 0.22556 0.0
C82 C 0.13241 0.29398 0.15924 0.0
C83 C 0.8532 0.10328 0.1679 0.0
C84 C 0.90007 0.05746 0.13995 0.0
C85 C 0.81706 0.09879 0.24442 0.0
C86 C 0.82653 1.04866 0.29703 0.0
H87 H 0.84552 0.14422 0.13139 0.0
H88 H 0.78269 0.13591 0.26356 0.0
S89 S 0.9366 0.91243 0.25166 0.0
N90 N 0.94907 0.95692 0.16999 0.0
N91 N 0.88158 0.94961 0.31406 0.0
C92 C 0.87098 1.00127 0.26927 0.0
C93 C 0.90736 1.00523 0.19073 0.0
C94 C 0.1245 0.88505 0.23641 0.0
C95 C 1.0935 0.87253 0.16185 0.0
C96 C 0.11883 0.83978 0.29739 0.0
C97 C 1.08042 0.78115 0.28678 0.0
H98 H 0.15514 0.92912 0.24663 0.0
H99 H 0.14506 0.85077 0.35344 0.0
S100 S 0.98673 0.72772 0.10311 0.0
N101 N 1.02278 0.79846 0.07973 0.0
N102 N 1.0094 0.71422 0.19679 0.0
C103 C 1.04867 0.76842 0.21255 0.0
C104 C 1.05567 0.81408 0.14958 0.0
C105 C 0.33474 1.01015 0.1351 0.0
C106 C 0.28496 0.05341 0.11886 0.0
C107 C 0.37109 1.01605 0.20709 0.0
C108 C 0.359 0.06513 0.26667 0.0
H109 H 0.34447 0.96996 0.09297 0.0
H110 H 0.40748 0.98054 0.21742 0.0
S111 S 0.24032 0.19498 0.25206 0.0
N112 N 0.23003 0.15058 0.16708 0.0
N113 N 0.29818 0.1607 0.30243 0.0
C114 C 0.31169 0.11021 0.25029 0.0
C115 C 0.275 0.10477 0.1764 0.0
C116 C 1.03549 0.85575 0.66903 0.0
C117 C 0.09976 0.86433 0.70234 0.0
C118 C 1.02273 0.80727 0.60933 0.0
C119 C 1.07376 0.76561 0.58211 0.0
H120 H 0.99478 0.88597 0.68977 0.0
H121 H 0.9736 0.8038 0.58186 0.0
S122 S 0.24922 0.76644 0.65482 0.0
N123 N 0.21352 0.82553 0.70827 0.0
N124 N 0.19002 0.73486 0.59498 0.0
C125 C 0.13722 0.77208 0.61787 0.0
C126 C 0.15013 0.82143 0.6783 0.0
C127 C 0.30089 0.99265 0.67903 0.0
C128 C 0.28554 1.04536 0.73229 0.0
C129 C 0.33546 1.00093 0.60233 0.0
C130 C 0.3568 0.06216 0.57572 0.0
H131 H 0.28449 0.94434 0.69556 0.0
H132 H 0.34549 0.95899 0.56332 0.0
S133 S 0.33553 0.21572 0.693 0.0
N134 N 0.29799 0.16112 0.75364 0.0
N135 N 0.36415 0.17632 0.60939 0.0
C136 C 0.34376 0.1153 0.6285 0.0
C137 C 0.30779 0.10701 0.70671 0.0
C138 C 0.15465 0.22911 0.65908 0.0
C139 C 0.09736 0.23529 0.71327 0.0
C140 C 0.1736 0.27651 0.60247 0.0
C141 C 0.13467 0.3307 0.59684 0.0
H142 H 0.18498 0.1876 0.66065 0.0
H143 H 0.21734 0.26943 0.56033 0.0
S144 S 0.97699 0.36623 0.72196 0.0
N145 N 1.00092 0.29857 0.75728 0.0
N146 N 1.03472 0.38611 0.64867 0.0
C147 C 1.07729 0.33723 0.6511 0.0
C148 C 1.05876 0.28964 0.7094 0.0
C149 C 0.91852 1.01442 0.68829 0.0
C150 C 0.90044 0.05597 0.75505 0.0
C151 C 0.88145 1.0098 0.61655 0.0
C152 C 0.82497 1.04719 0.60801 0.0
H153 H 0.96394 0.98785 0.68962 0.0
H154 H 0.89796 0.97744 0.56684 0.0
S155 S 0.7574 0.16512 0.76413 0.0
N156 N 0.82143 0.13479 0.80806 0.0
N157 N 0.75406 0.12875 0.67265 0.0
C158 C 0.80605 0.08871 0.67469 0.0
C159 C 0.84317 0.09255 0.74805 0.0
loop_
_geom_bond_atom_site_label_1
_geom_bond_atom_site_label_2
_geom_bond_distance
_geom_bond_site_symmetry_2
_ccdc_geom_bond_type
Fe0 O1 1.886 . S
Fe0 O4 1.715 1_645 S
Fe0 O9 2.077 1_655 S
Fe0 O14 1.935 1_655 S
Fe0 O20 2.077 1_545 S
Fe0 O29 1.935 1_545 S
O1 Fe0 1.886 . S
O1 Fe3 1.723 . S
Fe2 O4 1.881 1_556 S
Fe2 O5 1.720 . S
Fe2 O12 1.939 . S
Fe2 O13 2.073 1_556 S
Fe2 O19 1.939 . S
Fe2 O28 2.073 1_556 S
Fe3 O1 1.723 . S
Fe3 O6 1.879 1_554 S
Fe3 O10 1.941 . S
Fe3 O15 2.071 1_554 S
Fe3 O21 1.941 . S
Fe3 O25 2.071 1_554 S
O4 Fe0 1.715 1_465 S
O4 Fe2 1.881 1_554 S
O5 Fe2 1.720 . S
O5 Fe7 1.886 . S
O6 Fe3 1.879 1_556 S
O6 Fe7 1.715 1_645 S
Fe7 O5 1.886 . S
Fe7 O6 1.715 1_465 S
Fe7 O11 2.077 1_565 S
Fe7 O16 1.935 1_565 S
Fe7 O18 2.077 1_455 S
Fe7 O26 1.935 1_455 S
C8 O20 1.382 1_545 S
C8 O21 1.421 . S
O9 Fe0 2.077 1_455 S
O9 C22 1.376 1_455 S
O10 Fe3 1.941 . S
O10 C22 1.421 . S
O11 Fe7 2.077 1_545 S
O11 C27 1.376 1_545 S
O12 Fe2 1.939 . S
O12 C27 1.421 . S
O13 Fe2 2.073 1_554 S
O13 C17 1.381 . S
O14 Fe0 1.935 1_455 S
O14 C17 1.421 1_545 S
O15 Fe3 2.071 1_556 S
O15 C23 1.381 . S
O16 Fe7 1.935 1_545 S
O16 C23 1.421 1_455 S
C17 O13 1.381 . S
C17 O14 1.421 1_565 S
O18 Fe7 2.077 1_655 S
O18 C30 1.382 1_655 S
O19 Fe2 1.939 . S
O19 C30 1.421 . S
O20 Fe0 2.077 1_565 S
O20 C8 1.382 1_565 S
O21 Fe3 1.941 . S
O21 C8 1.421 . S
C22 O9 1.376 1_655 S
C22 O10 1.421 . S
C23 O15 1.381 . S
C23 O16 1.421 1_655 S
C24 O25 1.381 . S
C24 O26 1.421 1_545 S
O25 Fe3 2.071 1_556 S
O25 C24 1.381 . S
O26 Fe7 1.935 1_655 S
O26 C24 1.421 1_565 S
C27 O11 1.376 1_565 S
C27 O12 1.421 . S
O28 Fe2 2.073 1_554 S
O28 C31 1.381 . S
O29 Fe0 1.935 1_565 S
O29 C31 1.421 1_655 S
C30 O18 1.382 1_455 S
C30 O19 1.421 . S
C31 O28 1.381 . S
C31 O29 1.421 1_455 S
H32 C40 0.940 . S
H33 C43 0.940 . S
H34 C45 0.940 . S
H35 C46 0.940 . S
H36 C49 0.940 . S
H37 C51 0.940 . S
N38 N39 1.190 . S
N38 C42 1.477 . S
N39 N38 1.190 . S
N39 C48 1.477 . S
C40 H32 0.940 . S
C40 C41 1.390 1_455 S
C40 C42 1.322 . S
C41 C40 1.390 1_655 S
C41 C45 1.370 . S
C42 N38 1.477 . S
C42 C40 1.322 . S
C42 C43 1.447 . S
C43 H33 0.940 . S
C43 C42 1.447 . S
C43 C44 1.373 . S
C44 C43 1.373 . S
C44 C45 1.417 1_455 S
C45 H34 0.940 . S
C45 C41 1.370 . S
C45 C44 1.417 1_655 S
C46 H35 0.940 . S
C46 C47 1.390 1_455 S
C46 C48 1.322 . S
C47 C46 1.390 1_655 S
C47 C51 1.370 . S
C48 N39 1.477 . S
C48 C46 1.322 . S
C48 C49 1.447 . S
C49 H36 0.940 . S
C49 C48 1.447 . S
C49 C50 1.373 . S
C50 C49 1.373 . S
C50 C51 1.417 1_455 S
C51 H37 0.940 . S
C51 C47 1.370 . S
C51 C50 1.417 1_655 S
H52 C60 0.940 . S
H53 C63 0.940 . S
H54 C65 0.940 . S
H55 C66 0.940 . S
H56 C69 0.940 . S
H57 C71 0.940 . S
N58 N59 1.190 . S
N58 C62 1.477 . S
N59 N58 1.190 . S
N59 C68 1.477 . S
C60 H52 0.940 . S
C60 C61 1.390 1_545 S
C60 C62 1.322 . S
C61 C60 1.390 1_565 S
C61 C65 1.370 . S
C62 N58 1.477 . S
C62 C60 1.322 . S
C62 C63 1.447 . S
C63 H53 0.940 . S
C63 C62 1.447 . S
C63 C64 1.373 . S
C64 C63 1.373 . S
C64 C65 1.417 1_545 S
C65 H54 0.940 . S
C65 C61 1.370 . S
C65 C64 1.417 1_565 S
C66 H55 0.940 . S
C66 C67 1.390 1_545 S
C66 C68 1.322 . S
C67 C66 1.390 1_565 S
C67 C71 1.370 . S
C68 N59 1.477 . S
C68 C66 1.322 . S
C68 C69 1.447 . S
C69 H56 0.940 . S
C69 C68 1.447 . S
C69 C70 1.373 . S
C70 C69 1.373 . S
C70 C71 1.417 1_545 S
C71 H57 0.940 . S
C71 C67 1.370 . S
C71 C70 1.417 1_565 S
C72 C73 1.369 . S
C72 C74 1.419 . S
C72 H76 0.930 . S
C73 C72 1.369 . S
C73 C82 1.429 1_655 S
C74 C72 1.419 . S
C74 C75 1.363 . S
C74 H77 0.929 . S
C75 C74 1.363 . S
C75 C81 1.428 1_655 S
H76 C72 0.930 . S
H77 C74 0.929 . S
S78 N79 1.613 . S
S78 N80 1.610 . S
N79 S78 1.613 . S
N79 C82 1.350 . S
N80 S78 1.610 . S
N80 C81 1.351 . S
C81 C75 1.428 1_455 S
C81 N80 1.351 . S
C81 C82 1.434 . S
C82 C73 1.429 1_455 S
C82 N79 1.350 . S
C82 C81 1.434 . S
C83 C84 1.372 . S
C83 C85 1.419 . S
C83 H87 0.930 . S
C84 C83 1.372 . S
C84 C93 1.425 1_545 S
C85 C83 1.419 . S
C85 C86 1.363 1_545 S
C85 H88 0.929 . S
C86 C85 1.363 1_565 S
C86 C92 1.428 . S
H87 C83 0.930 . S
H88 C85 0.929 . S
S89 N90 1.613 . S
S89 N91 1.610 . S
N90 S89 1.613 . S
N90 C93 1.350 . S
N91 S89 1.610 . S
N91 C92 1.351 . S
C92 C86 1.428 . S
C92 N91 1.351 . S
C92 C93 1.434 . S
C93 C84 1.425 1_565 S
C93 N90 1.350 . S
C93 C92 1.434 . S
C94 C95 1.368 1_455 S
C94 C96 1.419 . S
C94 H98 0.930 . S
C95 C94 1.368 1_655 S
C95 C104 1.429 . S
C96 C94 1.419 . S
C96 C97 1.363 . S
C96 H99 0.929 . S
C97 C96 1.363 . S
C97 C103 1.428 1_455 S
H98 C94 0.930 . S
H99 C96 0.929 . S
S100 N101 1.613 . S
S100 N102 1.610 . S
N101 S100 1.613 . S
N101 C104 1.350 . S
N102 S100 1.610 . S
N102 C103 1.351 . S
C103 C97 1.428 1_655 S
C103 N102 1.351 . S
C103 C104 1.434 . S
C104 C95 1.429 . S
C104 N101 1.350 . S
C104 C103 1.434 . S
C105 C106 1.369 1_565 S
C105 C107 1.419 . S
C105 H109 0.930 . S
C106 C105 1.369 1_545 S
C106 C115 1.429 . S
C107 C105 1.419 . S
C107 C108 1.363 1_565 S
C107 H110 0.929 . S
C108 C107 1.363 1_545 S
C108 C114 1.428 . S
H109 C105 0.930 . S
H110 C107 0.929 . S
S111 N112 1.613 . S
S111 N113 1.610 . S
N112 S111 1.613 . S
N112 C115 1.350 . S
N113 S111 1.610 . S
N113 C114 1.351 . S
C114 C108 1.428 . S
C114 N113 1.351 . S
C114 C115 1.434 . S
C115 C106 1.429 . S
C115 N112 1.350 . S
C115 C114 1.434 . S
C116 C117 1.369 1_655 S
C116 C118 1.419 . S
C116 H120 0.930 . S
C117 C116 1.369 1_455 S
C117 C126 1.429 . S
C118 C116 1.419 . S
C118 C119 1.363 . S
C118 H121 0.929 . S
C119 C118 1.363 . S
C119 C125 1.428 1_655 S
H120 C116 0.930 . S
H121 C118 0.929 . S
S122 N123 1.613 . S
S122 N124 1.610 . S
N123 S122 1.613 . S
N123 C126 1.350 . S
N124 S122 1.610 . S
N124 C125 1.351 . S
C125 C119 1.428 1_455 S
C125 N124 1.351 . S
C125 C126 1.434 . S
C126 C117 1.429 . S
C126 N123 1.350 . S
C126 C125 1.434 . S
C127 C128 1.369 . S
C127 C129 1.419 . S
C127 H131 0.930 . S
C128 C127 1.369 . S
C128 C137 1.429 1_565 S
C129 C127 1.419 . S
C129 C130 1.363 . S
C129 H132 0.929 . S
C130 C129 1.363 . S
C130 C136 1.428 1_565 S
H131 C127 0.930 . S
H132 C129 0.929 . S
S133 N134 1.613 . S
S133 N135 1.610 . S
N134 S133 1.613 . S
N134 C137 1.350 . S
N135 S133 1.610 . S
N135 C136 1.351 . S
C136 C130 1.428 1_545 S
C136 N135 1.351 . S
C136 C137 1.434 . S
C137 C128 1.429 1_545 S
C137 N134 1.350 . S
C137 C136 1.434 . S
C138 C139 1.369 . S
C138 C140 1.419 . S
C138 H142 0.930 . S
C139 C138 1.369 . S
C139 C148 1.429 1_455 S
C140 C138 1.419 . S
C140 C141 1.363 . S
C140 H143 0.929 . S
C141 C140 1.363 . S
C141 C147 1.428 1_455 S
H142 C138 0.930 . S
H143 C140 0.929 . S
S144 N145 1.613 . S
S144 N146 1.610 . S
N145 S144 1.613 . S
N145 C148 1.350 . S
N146 S144 1.610 . S
N146 C147 1.351 . S
C147 C141 1.428 1_655 S
C147 N146 1.351 . S
C147 C148 1.434 . S
C148 C139 1.429 1_655 S
C148 N145 1.350 . S
C148 C147 1.434 . S
C149 C150 1.367 1_565 S
C149 C151 1.419 . S
C149 H153 0.930 . S
C150 C149 1.367 1_545 S
C150 C159 1.431 . S
C151 C149 1.419 . S
C151 C152 1.363 1_565 S
C151 H154 0.929 . S
C152 C151 1.363 1_545 S
C152 C158 1.428 . S
H153 C149 0.930 . S
H154 C151 0.929 . S
S155 N156 1.613 . S
S155 N157 1.610 . S
N156 S155 1.613 . S
N156 C159 1.350 . S
N157 S155 1.610 . S
N157 C158 1.351 . S
C158 C152 1.428 . S
C158 N157 1.351 . S
C158 C159 1.434 . S
C159 C150 1.431 . S
C159 N156 1.350 . S
C159 C158 1.434 . S
C73 C22 1.555 . S
C75 C41 1.527 . S
C84 C8 1.572 . S
C86 C61 1.535 . S
C95 C31 1.523 1_655 S
C97 C50 1.548 . S
C106 C17 1.529 1_545 S
C108 C70 1.544 . S
C117 C30 1.563 . S
C119 C47 1.531 . S
C128 C27 1.554 . S
C130 C67 1.529 . S
C141 C44 1.547 . S
C139 C23 1.527 1_455 S
C150 C24 1.522 . S
C152 C64 1.551 . S
