# Generated by pormake.
# Topology ssa, (4,4)-cn, num edge types: 1
# Building blocks:
#     Node 0, Type 0, BuildingBlock: GIZVER_clean_linker_0, # of connection points: 4
#     Node 1, Type 0, BuildingBlock: GIZVER_clean_linker_0, # of connection points: 4
#     Node 2, Type 0, BuildingBlock: GIZVER_clean_linker_0, # of connection points: 4
#     Node 3, Type 0, BuildingBlock: GIZVER_clean_linker_0, # of connection points: 4
#     Node 4, Type 0, BuildingBlock: GIZVER_clean_linker_0, # of connection points: 4
#     Node 5, Type 0, BuildingBlock: GIZVER_clean_linker_0, # of connection points: 4
#     Node 6, Type 1, BuildingBlock: MUDLON_clean_sbu_0, # of connection points: 4
#     Node 7, Type 1, BuildingBlock: MUDLON_clean_sbu_0, # of connection points: 4
#     Node 8, Type 1, BuildingBlock: MUDLON_clean_sbu_0, # of connection points: 4
#     Node 9, Type 1, BuildingBlock: MUDLON_clean_sbu_0, # of connection points: 4
#     Node 10, Type 1, BuildingBlock: MUDLON_clean_sbu_0, # of connection points: 4
#     Node 11, Type 1, BuildingBlock: MUDLON_clean_sbu_0, # of connection points: 4
#     Edge 12, Type (0, 1), None
#     Edge 13, Type (0, 1), None
#     Edge 14, Type (0, 1), None
#     Edge 15, Type (0, 1), None
#     Edge 16, Type (0, 1), None
#     Edge 17, Type (0, 1), None
#     Edge 18, Type (0, 1), None
#     Edge 19, Type (0, 1), None
#     Edge 20, Type (0, 1), None
#     Edge 21, Type (0, 1), None
#     Edge 22, Type (0, 1), None
#     Edge 23, Type (0, 1), None
#     Edge 24, Type (0, 1), None
#     Edge 25, Type (0, 1), None
#     Edge 26, Type (0, 1), None
#     Edge 27, Type (0, 1), None
#     Edge 28, Type (0, 1), None
#     Edge 29, Type (0, 1), None
#     Edge 30, Type (0, 1), None
#     Edge 31, Type (0, 1), None
#     Edge 32, Type (0, 1), None
#     Edge 33, Type (0, 1), None
#     Edge 34, Type (0, 1), None
#     Edge 35, Type (0, 1), None
# Relax obj value: 0.001
# Max RMSD: 0.031
# Mean RMSD: 0.017
data_MOF--net-ssa--node1-MUDLON_clean_sbu_0--node2-GIZVER_clean_linker_0--edge1-none
_symmetry_space_group_name_H-M    P1
_symmetry_Int_Tables_number       1
_symmetry_cell_setting            triclinic
loop_
_symmetry_equiv_pos_as_xyz
'x, y, z'
_cell_length_a     21.073971
_cell_length_b     20.909434
_cell_length_c     20.05674
_cell_angle_alpha  88.849985
_cell_angle_beta   91.180544
_cell_angle_gamma 119.19861
loop_
_atom_site_label
_atom_site_type_symbol
_atom_site_fract_x
_atom_site_fract_y
_atom_site_fract_z
_atom_type_partial_charge
H0 H 0.11643 0.69326 0.05507 0.0
H1 H 0.1074 0.48587 0.02069 0.0
H2 H 0.13752 0.5704 0.2189 0.0
H3 H 0.11326 0.65469 0.94306 0.0
H4 H 0.1348 0.58343 0.9292 0.0
H5 H 0.99145 0.63267 0.92172 0.0
H6 H 0.82527 0.4176 0.86501 0.0
H7 H 0.03521 0.45148 0.92594 0.0
C8 C 0.11383 0.6432 0.07421 0.0
C9 C 0.12757 0.63732 0.14209 0.0
C10 C 0.1038 0.58713 0.03006 0.0
C11 C 0.10911 0.52612 0.05481 0.0
C12 C 0.12069 0.51916 0.12311 0.0
C13 C 0.12631 0.57359 0.16625 0.0
C14 C 0.09693 0.5967 0.95579 0.0
C15 C 0.02052 0.54673 0.93084 0.0
C16 C 0.97298 0.57477 0.91598 0.0
C17 C 0.90249 0.52835 0.89158 0.0
C18 C 0.87919 0.45341 0.88488 0.0
C19 C 0.9267 0.42523 0.896 0.0
C20 C 0.99748 0.47228 0.91903 0.0
H21 H 0.59738 0.99794 0.61557 0.0
H22 H 0.39864 0.00791 0.61099 0.0
H23 H 0.59186 0.18399 0.69727 0.0
H24 H 0.47712 0.88589 0.60602 0.0
H25 H 0.39591 0.89205 0.59989 0.0
H26 H 0.56027 0.91954 0.50892 0.0
H27 H 0.44913 0.87462 0.31975 0.0
H28 H 0.34578 0.89733 0.49226 0.0
C29 C 0.56868 0.02804 0.62444 0.0
C30 C 0.6046 0.09619 0.65633 0.0
C31 C 0.49445 0.99639 0.60742 0.0
C32 C 0.45643 0.0338 0.62194 0.0
C33 C 0.49107 0.10118 0.65511 0.0
C34 C 0.56548 0.1328 0.67042 0.0
C35 C 0.45333 0.91851 0.58314 0.0
C36 C 0.45512 0.91429 0.50824 0.0
C37 C 0.51469 0.91337 0.47831 0.0
C38 C 0.51229 0.89792 0.41029 0.0
C39 C 0.45175 0.88744 0.3721 0.0
C40 C 0.39131 0.88608 0.40093 0.0
C41 C 0.39358 0.90137 0.46897 0.0
H42 H 0.60458 0.5862 0.11523 0.0
H43 H 0.40274 0.38359 0.11342 0.0
H44 H 0.41142 0.57892 0.18921 0.0
H45 H 0.60014 0.46456 0.11215 0.0
H46 H 0.51575 0.38307 0.09944 0.0
H47 H 0.65326 0.55961 0.01862 0.0
H48 H 0.60635 0.46405 0.82385 0.0
H49 H 0.47518 0.34077 0.98855 0.0
C50 C 0.54648 0.55655 0.12327 0.0
C51 C 0.5122 0.59204 0.15248 0.0
C52 C 0.50718 0.48159 0.10825 0.0
C53 C 0.43256 0.442 0.12246 0.0
C54 C 0.39748 0.47669 0.15173 0.0
C55 C 0.4375 0.55206 0.16508 0.0
C56 C 0.54679 0.44222 0.08562 0.0
C57 C 0.5603 0.45074 1.01147 0.0
C58 C 0.6192 0.51523 0.98552 0.0
C59 C 0.6362 0.52075 0.91756 0.0
C60 C 0.59355 0.46128 0.87614 0.0
C61 C 0.53697 0.39612 0.90126 0.0
C62 C 0.51865 0.39155 0.96865 0.0
H63 H 0.04564 0.63987 0.63821 0.0
H64 H 0.04078 0.43226 0.64309 0.0
H65 H 0.85441 0.44712 0.70651 0.0
H66 H 0.15867 0.63301 0.63649 0.0
H67 H 0.15631 0.54649 0.63707 0.0
H68 H 0.13063 0.68135 0.53286 0.0
H69 H 0.16182 0.59786 0.3492 0.0
H70 H 0.14153 0.48148 0.53404 0.0
C71 C 0.01601 0.58126 0.64738 0.0
C72 C 0.94507 0.5484 0.6724 0.0
C73 C 0.05053 0.53953 0.63662 0.0
C74 C 0.01329 0.46392 0.65012 0.0
C75 C 0.94241 0.42991 0.67533 0.0
C76 C 0.90833 0.47247 0.6854 0.0
C77 C 0.12903 0.57663 0.61602 0.0
C78 C 0.13505 0.58078 0.54113 0.0
C79 C 0.13573 0.63977 0.50578 0.0
C80 C 0.14537 0.64652 0.43643 0.0
C81 C 0.15332 0.59254 0.40258 0.0
C82 C 0.15219 0.5327 0.4372 0.0
C83 C 0.14201 0.52684 0.5065 0.0
H84 H 0.52279 0.86254 0.03601 0.0
H85 H 0.33779 0.89825 0.01864 0.0
H86 H 0.40682 0.85918 0.21032 0.0
H87 H 0.46663 0.8584 0.9272 0.0
H88 H 0.38318 0.86095 0.92146 0.0
H89 H 0.58096 0.96807 0.91111 0.0
H90 H 0.58244 0.16921 0.85802 0.0
H91 H 0.38401 0.98247 0.92094 0.0
C92 C 0.48109 0.87037 0.05914 0.0
C93 C 0.47068 0.85998 0.12825 0.0
C94 C 0.43348 0.88521 0.0193 0.0
C95 C 0.37616 0.89014 0.04945 0.0
C96 C 0.36621 0.88088 0.11858 0.0
C97 C 0.41501 0.86796 0.15714 0.0
C98 C 0.43866 0.88848 0.94422 0.0
C99 C 0.47841 0.96681 0.91957 0.0
C100 C 0.55296 0.99973 0.9053 0.0
C101 C 0.59096 0.07258 0.88238 0.0
C102 C 0.55395 0.11296 0.87602 0.0
C103 C 0.47948 0.0808 0.8895 0.0
C104 C 0.44156 0.00747 0.91069 0.0
H105 H 0.67956 0.55338 0.547 0.0
H106 H 0.4733 0.35879 0.51325 0.0
H107 H 0.56157 0.41551 0.71159 0.0
H108 H 0.64262 0.51026 0.43533 0.0
H109 H 0.56811 0.42051 0.42231 0.0
H110 H 0.6267 0.6177 0.42031 0.0
H111 H 0.42054 0.58631 0.34731 0.0
H112 H 0.44166 0.40007 0.41017 0.0
C113 C 0.63106 0.50669 0.56627 0.0
C114 C 0.62674 0.48955 0.63453 0.0
C115 C 0.57527 0.46003 0.52207 0.0
C116 C 0.51456 0.39652 0.5473 0.0
C117 C 0.50853 0.38029 0.616 0.0
C118 C 0.56439 0.4282 0.65883 0.0
C119 C 0.58452 0.4733 0.4476 0.0
C120 C 0.53874 0.50536 0.42004 0.0
C121 C 0.56974 0.58157 0.40892 0.0
C122 C 0.5269 0.61086 0.38315 0.0
C123 C 0.45305 0.56366 0.36881 0.0
C124 C 0.42167 0.4876 0.3777 0.0
C125 C 0.46494 0.45878 0.40366 0.0
Mg126 Mg 0.20832 0.42298 0.27606 0.0
C127 C 0.13881 0.46314 0.14978 0.0
O128 O 0.15669 0.42571 0.10972 0.0
C129 C 0.34583 0.43948 0.3543 0.0
O130 O 0.32309 0.37042 0.34066 0.0
C131 C 0.16482 0.47857 0.40124 0.0
O132 O 0.1602 0.42049 0.43216 0.0
O133 O 0.18288 0.48986 0.34031 0.0
O134 O 0.15119 0.46324 0.21214 0.0
O135 O 0.2926 0.46758 0.20204 0.0
C136 C 0.32273 0.43362 0.17762 0.0
O137 O 0.29463 0.36292 0.18899 0.0
O138 O 0.30661 0.46828 0.33783 0.0
Mg139 Mg 0.79839 0.22353 0.7833 0.0
C140 C 0.67926 0.12464 0.68373 0.0
O141 O 0.70731 0.08098 0.69175 0.0
C142 C 0.90437 0.34996 0.87361 0.0
O143 O 0.95366 0.33319 0.85456 0.0
C144 C 0.66713 0.10508 0.85976 0.0
O145 O 0.69483 0.0628 0.8454 0.0
O146 O 0.70186 0.17281 0.84439 0.0
O147 O 0.71036 0.18715 0.71098 0.0
O148 O 0.84418 0.32306 0.72303 0.0
C149 C 0.90725 0.35234 0.69811 0.0
O150 O 0.94464 0.31722 0.70227 0.0
O151 O 0.83803 0.30858 0.85751 0.0
Mg152 Mg 0.59735 0.80038 0.26043 0.0
C153 C 0.50634 0.82809 0.17118 0.0
O154 O 0.46635 0.78035 0.21705 0.0
C155 C 0.55639 0.68973 0.36812 0.0
O156 O 0.51234 0.7166 0.37574 0.0
C157 C 0.56609 0.88178 0.37933 0.0
O158 O 0.62845 0.89857 0.40877 0.0
O159 O 0.54751 0.8451 0.3257 0.0
O160 O 0.57445 0.84966 0.1711 0.0
O161 O 0.52677 0.69556 0.21355 0.0
C162 C 0.5554 0.6683 0.17625 0.0
O163 O 0.62555 0.70587 0.16508 0.0
O164 O 0.6098 0.72298 0.32854 0.0
Mg165 Mg 0.80974 0.6314 0.76418 0.0
C166 C 0.68956 0.52715 0.68067 0.0
O167 O 0.69928 0.4878 0.72745 0.0
C168 C 0.8546 0.55631 0.86462 0.0
O169 O 0.78721 0.50844 0.84906 0.0
C170 C 0.70286 0.58289 0.88947 0.0
O171 O 0.75478 0.63001 0.92852 0.0
O172 O 0.71488 0.58045 0.8279 0.0
O173 O 0.73294 0.59606 0.67878 0.0
O174 O 0.84909 0.56489 0.71563 0.0
C175 C 0.91246 0.5943 0.69114 0.0
O176 O 0.95188 0.66609 0.69042 0.0
O177 O 0.88069 0.62112 0.84072 0.0
Mg178 Mg 0.19734 0.81917 0.27736 0.0
C179 C 0.16178 0.70139 0.1859 0.0
O180 O 0.21963 0.71142 0.22016 0.0
C181 C 0.3231 0.85178 0.36153 0.0
O182 O 0.31008 0.79458 0.32583 0.0
C183 C 0.15225 0.71214 0.40003 0.0
O184 O 0.15217 0.76611 0.4324 0.0
O185 O 0.16554 0.7196 0.33797 0.0
O186 O 0.13508 0.74331 0.19651 0.0
O187 O 0.29165 0.85807 0.21268 0.0
C188 C 0.30076 0.87493 0.15092 0.0
O189 O 0.24785 0.87516 0.11533 0.0
O190 O 0.28058 0.8788 0.35497 0.0
Mg191 Mg 0.40089 0.20816 0.77672 0.0
C192 C 0.44774 0.13321 0.68149 0.0
O193 O 0.37726 0.10108 0.6702 0.0
C194 C 0.50367 0.33243 0.85675 0.0
O195 O 0.54381 0.32541 0.81128 0.0
C196 C 0.44402 0.12622 0.88074 0.0
O197 O 0.47588 0.19076 0.90862 0.0
O198 O 0.40124 0.11506 0.83103 0.0
O199 O 0.47573 0.18526 0.72315 0.0
O200 O 0.44491 0.30182 0.70682 0.0
C201 C 0.45012 0.30975 0.64363 0.0
O202 O 0.41513 0.25253 0.60514 0.0
O203 O 0.43664 0.28548 0.85905 0.0
loop_
_geom_bond_atom_site_label_1
_geom_bond_atom_site_label_2
_geom_bond_distance
_geom_bond_site_symmetry_2
_ccdc_geom_bond_type
H0 C8 0.930 . S
H1 C11 0.930 . S
H2 C13 0.930 . S
H3 C14 0.970 . S
H4 C14 0.970 . S
H5 C16 0.930 1_455 S
H6 C18 0.930 . S
H7 C20 0.930 . S
C8 H0 0.930 . S
C8 C9 1.382 . S
C8 C10 1.426 . S
C9 C8 1.382 . S
C9 C13 1.389 . S
C10 C8 1.426 . S
C10 C11 1.375 . S
C10 C14 1.532 1_554 S
C11 H1 0.930 . S
C11 C10 1.375 . S
C11 C12 1.416 . S
C12 C11 1.416 . S
C12 C13 1.371 . S
C13 H2 0.930 . S
C13 C9 1.389 . S
C13 C12 1.371 . S
C14 H3 0.970 . S
C14 H4 0.970 . S
C14 C10 1.532 1_556 S
C14 C15 1.499 . S
C15 C14 1.499 . S
C15 C16 1.370 1_455 S
C15 C20 1.415 . S
C16 H5 0.930 1_655 S
C16 C15 1.370 1_655 S
C16 C17 1.407 . S
C17 C16 1.407 . S
C17 C18 1.365 . S
C18 H6 0.930 . S
C18 C17 1.365 . S
C18 C19 1.393 . S
C19 C18 1.393 . S
C19 C20 1.387 1_655 S
C20 H7 0.930 . S
C20 C15 1.415 . S
C20 C19 1.387 1_455 S
H21 C29 0.930 . S
H22 C32 0.930 . S
H23 C34 0.930 . S
H24 C35 0.970 . S
H25 C35 0.970 . S
H26 C37 0.930 . S
H27 C39 0.930 . S
H28 C41 0.930 . S
C29 H21 0.930 . S
C29 C30 1.382 . S
C29 C31 1.426 1_545 S
C30 C29 1.382 . S
C30 C34 1.389 . S
C31 C29 1.426 1_565 S
C31 C32 1.375 1_565 S
C31 C35 1.532 . S
C32 H22 0.930 . S
C32 C31 1.375 1_545 S
C32 C33 1.416 . S
C33 C32 1.416 . S
C33 C34 1.371 . S
C34 H23 0.930 . S
C34 C30 1.389 . S
C34 C33 1.371 . S
C35 H24 0.970 . S
C35 H25 0.970 . S
C35 C31 1.532 . S
C35 C36 1.499 . S
C36 C35 1.499 . S
C36 C37 1.370 . S
C36 C41 1.415 . S
C37 H26 0.930 . S
C37 C36 1.370 . S
C37 C38 1.407 . S
C38 C37 1.407 . S
C38 C39 1.365 . S
C39 H27 0.930 . S
C39 C38 1.365 . S
C39 C40 1.393 . S
C40 C39 1.393 . S
C40 C41 1.387 . S
C41 H28 0.930 . S
C41 C36 1.415 . S
C41 C40 1.387 . S
H42 C50 0.930 . S
H43 C53 0.930 . S
H44 C55 0.930 . S
H45 C56 0.970 . S
H46 C56 0.970 . S
H47 C58 0.930 . S
H48 C60 0.930 . S
H49 C62 0.930 . S
C50 H42 0.930 . S
C50 C51 1.382 . S
C50 C52 1.426 . S
C51 C50 1.382 . S
C51 C55 1.389 . S
C52 C50 1.426 . S
C52 C53 1.375 . S
C52 C56 1.532 . S
C53 H43 0.930 . S
C53 C52 1.375 . S
C53 C54 1.416 . S
C54 C53 1.416 . S
C54 C55 1.371 . S
C55 H44 0.930 . S
C55 C51 1.389 . S
C55 C54 1.371 . S
C56 H45 0.970 . S
C56 H46 0.970 . S
C56 C52 1.532 . S
C56 C57 1.499 . S
C57 C56 1.499 . S
C57 C58 1.370 1_554 S
C57 C62 1.415 1_554 S
C58 H47 0.930 . S
C58 C57 1.370 1_556 S
C58 C59 1.407 . S
C59 C58 1.407 . S
C59 C60 1.365 . S
C60 H48 0.930 . S
C60 C59 1.365 . S
C60 C61 1.393 . S
C61 C60 1.393 . S
C61 C62 1.387 . S
C62 H49 0.930 . S
C62 C57 1.415 1_556 S
C62 C61 1.387 . S
H63 C71 0.930 1_455 S
H64 C74 0.930 1_455 S
H65 C76 0.930 . S
H66 C77 0.970 . S
H67 C77 0.970 . S
H68 C79 0.930 . S
H69 C81 0.930 . S
H70 C83 0.930 . S
C71 H63 0.930 1_655 S
C71 C72 1.382 . S
C71 C73 1.426 1_655 S
C72 C71 1.382 . S
C72 C76 1.389 . S
C73 C71 1.426 1_455 S
C73 C74 1.375 1_455 S
C73 C77 1.532 . S
C74 H64 0.930 1_655 S
C74 C73 1.375 1_655 S
C74 C75 1.416 . S
C75 C74 1.416 . S
C75 C76 1.371 . S
C76 H65 0.930 . S
C76 C72 1.389 . S
C76 C75 1.371 . S
C77 H66 0.970 . S
C77 H67 0.970 . S
C77 C73 1.532 . S
C77 C78 1.499 . S
C78 C77 1.499 . S
C78 C79 1.370 . S
C78 C83 1.415 . S
C79 H68 0.930 . S
C79 C78 1.370 . S
C79 C80 1.407 . S
C80 C79 1.407 . S
C80 C81 1.365 . S
C81 H69 0.930 . S
C81 C80 1.365 . S
C81 C82 1.393 . S
C82 C81 1.393 . S
C82 C83 1.387 . S
C83 H70 0.930 . S
C83 C78 1.415 . S
C83 C82 1.387 . S
H84 C92 0.930 . S
H85 C95 0.930 . S
H86 C97 0.930 . S
H87 C98 0.970 . S
H88 C98 0.970 . S
H89 C100 0.924 1_565 S
H90 C102 0.930 . S
H91 C104 0.930 1_565 S
C92 H84 0.930 . S
C92 C93 1.382 . S
C92 C94 1.426 . S
C93 C92 1.382 . S
C93 C97 1.389 . S
C94 C92 1.426 . S
C94 C95 1.375 . S
C94 C98 1.532 1_554 S
C95 H85 0.930 . S
C95 C94 1.375 . S
C95 C96 1.416 . S
C96 C95 1.416 . S
C96 C97 1.371 . S
C97 H86 0.930 . S
C97 C93 1.389 . S
C97 C96 1.371 . S
C98 H87 0.970 . S
C98 H88 0.970 . S
C98 C94 1.532 1_556 S
C98 C99 1.499 . S
C99 C98 1.499 . S
C99 C100 1.370 1_565 S
C99 C104 1.415 1_565 S
C100 H89 0.924 1_545 S
C100 C99 1.370 1_545 S
C100 C101 1.407 . S
C101 C100 1.407 . S
C101 C102 1.365 . S
C102 H90 0.930 . S
C102 C101 1.365 . S
C102 C103 1.393 . S
C103 C102 1.393 . S
C103 C104 1.387 . S
C104 H91 0.930 1_545 S
C104 C99 1.415 1_545 S
C104 C103 1.387 . S
H105 C113 0.930 . S
H106 C116 0.930 . S
H107 C118 0.930 . S
H108 C119 0.970 . S
H109 C119 0.970 . S
H110 C121 0.930 . S
H111 C123 0.930 . S
H112 C125 0.930 . S
C113 H105 0.930 . S
C113 C114 1.382 . S
C113 C115 1.426 . S
C114 C113 1.382 . S
C114 C118 1.389 . S
C115 C113 1.426 . S
C115 C116 1.375 . S
C115 C119 1.532 . S
C116 H106 0.930 . S
C116 C115 1.375 . S
C116 C117 1.416 . S
C117 C116 1.416 . S
C117 C118 1.371 . S
C118 H107 0.930 . S
C118 C114 1.389 . S
C118 C117 1.371 . S
C119 H108 0.970 . S
C119 H109 0.970 . S
C119 C115 1.532 . S
C119 C120 1.499 . S
C120 C119 1.499 . S
C120 C121 1.370 . S
C120 C125 1.415 . S
C121 H110 0.930 . S
C121 C120 1.370 . S
C121 C122 1.407 . S
C122 C121 1.407 . S
C122 C123 1.365 . S
C123 H111 0.930 . S
C123 C122 1.365 . S
C123 C124 1.393 . S
C124 C123 1.393 . S
C124 C125 1.387 . S
C125 H112 0.930 . S
C125 C120 1.415 . S
C125 C124 1.387 . S
Mg126 O133 2.141 . S
Mg126 O134 2.048 . S
Mg126 O135 2.048 . S
Mg126 O138 2.141 . S
C127 O128 1.313 . S
C127 O134 1.195 . S
O128 C127 1.313 . S
C129 O130 1.245 . S
C129 O138 1.289 . S
O130 C129 1.245 . S
C131 O132 1.245 . S
C131 O133 1.289 . S
O132 C131 1.245 . S
O133 Mg126 2.141 . S
O133 C131 1.289 . S
O134 Mg126 2.048 . S
O134 C127 1.195 . S
O135 Mg126 2.048 . S
O135 C136 1.195 . S
C136 O135 1.195 . S
C136 O137 1.313 . S
O137 C136 1.313 . S
O138 Mg126 2.141 . S
O138 C129 1.289 . S
Mg139 O146 2.141 . S
Mg139 O147 2.048 . S
Mg139 O148 2.048 . S
Mg139 O151 2.141 . S
C140 O141 1.313 . S
C140 O147 1.195 . S
O141 C140 1.313 . S
C142 O143 1.245 . S
C142 O151 1.289 . S
O143 C142 1.245 . S
C144 O145 1.245 . S
C144 O146 1.289 . S
O145 C144 1.245 . S
O146 Mg139 2.141 . S
O146 C144 1.289 . S
O147 Mg139 2.048 . S
O147 C140 1.195 . S
O148 Mg139 2.048 . S
O148 C149 1.195 . S
C149 O148 1.195 . S
C149 O150 1.313 . S
O150 C149 1.313 . S
O151 Mg139 2.141 . S
O151 C142 1.289 . S
Mg152 O159 2.141 . S
Mg152 O160 2.048 . S
Mg152 O161 2.048 . S
Mg152 O164 2.141 . S
C153 O154 1.313 . S
C153 O160 1.195 . S
O154 C153 1.313 . S
C155 O156 1.245 . S
C155 O164 1.289 . S
O156 C155 1.245 . S
C157 O158 1.245 . S
C157 O159 1.289 . S
O158 C157 1.245 . S
O159 Mg152 2.141 . S
O159 C157 1.289 . S
O160 Mg152 2.048 . S
O160 C153 1.195 . S
O161 Mg152 2.048 . S
O161 C162 1.195 . S
C162 O161 1.195 . S
C162 O163 1.313 . S
O163 C162 1.313 . S
O164 Mg152 2.141 . S
O164 C155 1.289 . S
Mg165 O172 2.141 . S
Mg165 O173 2.048 . S
Mg165 O174 2.048 . S
Mg165 O177 2.141 . S
C166 O167 1.313 . S
C166 O173 1.195 . S
O167 C166 1.313 . S
C168 O169 1.245 . S
C168 O177 1.289 . S
O169 C168 1.245 . S
C170 O171 1.245 . S
C170 O172 1.289 . S
O171 C170 1.245 . S
O172 Mg165 2.141 . S
O172 C170 1.289 . S
O173 Mg165 2.048 . S
O173 C166 1.195 . S
O174 Mg165 2.048 . S
O174 C175 1.195 . S
C175 O174 1.195 . S
C175 O176 1.313 . S
O176 C175 1.313 . S
O177 Mg165 2.141 . S
O177 C168 1.289 . S
Mg178 O185 2.141 . S
Mg178 O186 2.048 . S
Mg178 O187 2.048 . S
Mg178 O190 2.141 . S
C179 O180 1.313 . S
C179 O186 1.195 . S
O180 C179 1.313 . S
C181 O182 1.245 . S
C181 O190 1.289 . S
O182 C181 1.245 . S
C183 O184 1.245 . S
C183 O185 1.289 . S
O184 C183 1.245 . S
O185 Mg178 2.141 . S
O185 C183 1.289 . S
O186 Mg178 2.048 . S
O186 C179 1.195 . S
O187 Mg178 2.048 . S
O187 C188 1.195 . S
C188 O187 1.195 . S
C188 O189 1.313 . S
O189 C188 1.313 . S
O190 Mg178 2.141 . S
O190 C181 1.289 . S
Mg191 O198 2.141 . S
Mg191 O199 2.048 . S
Mg191 O200 2.048 . S
Mg191 O203 2.141 . S
C192 O193 1.313 . S
C192 O199 1.195 . S
O193 C192 1.313 . S
C194 O195 1.245 . S
C194 O203 1.289 . S
O195 C194 1.245 . S
C196 O197 1.245 . S
C196 O198 1.289 . S
O197 C196 1.245 . S
O198 Mg191 2.141 . S
O198 C196 1.289 . S
O199 Mg191 2.048 . S
O199 C192 1.195 . S
O200 Mg191 2.048 . S
O200 C201 1.195 . S
C201 O200 1.195 . S
C201 O202 1.313 . S
O202 C201 1.313 . S
O203 Mg191 2.141 . S
O203 C194 1.289 . S
C12 C127 1.736 . S
C30 C140 1.668 . S
C162 C51 1.548 . S
C175 C72 1.517 . S
C188 C96 1.567 . S
C201 C117 1.533 . S
C38 C157 1.513 . S
C59 C170 1.468 . S
C183 C80 1.489 . S
C196 C103 1.474 . S
C124 C129 1.699 . S
C142 C19 1.686 . S
C168 C17 1.513 . S
C40 C181 1.495 . S
C194 C61 1.518 . S
C82 C131 1.707 . S
C101 C144 1.693 . S
C122 C155 1.470 . S
C33 C192 1.532 . S
C136 C54 1.665 . S
C75 C149 1.696 . S
C93 C153 1.593 . S
C114 C166 1.616 . S
C9 C179 1.582 . S
