# Generated by pormake.
# Topology pts, (4,4)-cn, num edge types: 1
# Building blocks:
#     Node 0, Type 0, BuildingBlock: KUFVIS_clean_linker_0, # of connection points: 4
#     Node 1, Type 0, BuildingBlock: KUFVIS_clean_linker_0, # of connection points: 4
#     Node 2, Type 1, BuildingBlock: QUQFOY_clean_sbu_1, # of connection points: 4
#     Node 3, Type 1, BuildingBlock: QUQFOY_clean_sbu_1, # of connection points: 4
#     Edge 4, Type (0, 1), None
#     Edge 5, Type (0, 1), None
#     Edge 6, Type (0, 1), None
#     Edge 7, Type (0, 1), None
#     Edge 8, Type (0, 1), None
#     Edge 9, Type (0, 1), None
#     Edge 10, Type (0, 1), None
#     Edge 11, Type (0, 1), None
# Relax obj value: 0.098
# Max RMSD: 0.269
# Mean RMSD: 0.184
data_MOF--net-pts--node1-QUQFOY_clean_sbu_1--node2-KUFVIS_clean_linker_0--edge1-none
_symmetry_space_group_name_H-M    P1
_symmetry_Int_Tables_number       1
_symmetry_cell_setting            triclinic
loop_
_symmetry_equiv_pos_as_xyz
'x, y, z'
_cell_length_a     11.687776
_cell_length_b     12.450264
_cell_length_c     16.71498
_cell_angle_alpha  89.969664
_cell_angle_beta   89.930001
_cell_angle_gamma 86.527855
loop_
_atom_site_label
_atom_site_type_symbol
_atom_site_fract_x
_atom_site_fract_y
_atom_site_fract_z
_atom_type_partial_charge
H0 H 0.09192 0.96364 0.01268 0.0
H1 H 0.38791 1.03982 0.88137 0.0
H2 H 0.38534 0.05243 0.14125 0.0
H3 H 0.56436 0.04731 0.14133 0.0
H4 H 0.85842 0.13579 0.01278 0.0
H5 H 0.56309 0.05931 0.88142 0.0
C6 C 0.18193 0.98084 0.01244 0.0
C7 C 0.23555 1.00267 0.08466 0.0
C8 C 0.23629 0.998 0.93963 0.0
C9 C 0.35075 1.02563 0.93911 0.0
C10 C 0.41231 1.03758 0.01165 0.0
C11 C 0.34941 1.03193 0.08431 0.0
C12 C 0.53804 0.06184 0.01168 0.0
C13 C 0.60058 0.06767 0.08438 0.0
C14 C 0.71445 0.09692 0.08475 0.0
C15 C 0.76842 0.11859 0.01252 0.0
C16 C 0.71442 0.10125 0.93971 0.0
C17 C 0.59996 0.07362 0.93916 0.0
H18 H 0.95244 0.92636 0.51262 0.0
H19 H 0.95303 0.63132 0.64202 0.0
H20 H -0.01684 0.6318 0.3831 0.0
H21 H 0.96657 0.46785 0.38311 0.0
H22 H -0.00208 0.17304 0.51248 0.0
H23 H -0.00203 0.46784 0.64191 0.0
C24 C 0.95748 0.83912 0.51266 0.0
C25 C 0.9635 0.78363 0.43993 0.0
C26 C 0.95579 0.7836 0.58538 0.0
C27 C 0.959 0.67057 0.58493 0.0
C28 C 0.9704 0.61096 0.51263 0.0
C29 C 0.97264 0.67068 0.44031 0.0
C30 C -0.02004 0.48844 0.5126 0.0
C31 C -0.02265 0.42886 0.44028 0.0
C32 C -0.01352 0.3159 0.43985 0.0
C33 C -0.00712 0.26028 0.51255 0.0
C34 C -0.00506 0.31567 0.58526 0.0
C35 C -0.00828 0.4287 0.58484 0.0
O36 O 0.8013 0.99533 0.19012 0.0
Cd37 Cd 0.95345 0.94481 0.24549 0.0
Cd38 Cd -0.00391 0.15497 0.2454 0.0
O39 O 0.85722 0.15943 0.16921 0.0
O40 O 0.94234 0.79893 0.29605 0.0
O41 O 0.97371 0.94675 0.3637 0.0
C42 C 0.96042 0.84478 0.36381 0.0
C43 C -0.01074 0.25489 0.36371 0.0
C44 C 0.78717 0.08698 0.15661 0.0
C45 C 0.1625 1.01274 0.15646 0.0
O46 O 0.14831 0.10441 0.1899 0.0
O47 O 0.0924 0.94031 0.16917 0.0
O48 O 0.00728 0.30081 0.29591 0.0
O49 O -0.02415 0.15294 0.36365 0.0
O50 O 0.86018 0.16174 0.85602 0.0
Cd51 Cd 9e-05 0.15436 0.7797 0.0
Cd52 Cd 0.95106 0.94469 0.7798 0.0
O53 O 0.80012 0.99933 0.83451 0.0
O54 O 0.01676 0.29964 0.7292 0.0
O55 O -0.01849 0.15289 0.66144 0.0
C56 C -0.00149 0.25421 0.66131 0.0
C57 C 0.95252 0.84493 0.66144 0.0
C58 C 0.78784 0.09099 0.86806 0.0
C59 C 0.16319 1.00813 0.86793 0.0
O60 O 0.09089 0.93736 0.85599 0.0
O61 O 0.15097 0.09978 0.8343 0.0
O62 O 0.93433 0.79944 0.72938 0.0
O63 O 0.96965 0.94624 0.66152 0.0
loop_
_geom_bond_atom_site_label_1
_geom_bond_atom_site_label_2
_geom_bond_distance
_geom_bond_site_symmetry_2
_ccdc_geom_bond_type
H0 C6 0.930 1_565 S
H1 C9 0.931 . S
H2 C11 0.931 1_565 S
H3 C13 0.930 . S
H4 C15 0.930 . S
H5 C17 0.930 1_565 S
C6 H0 0.930 1_545 S
C6 C7 1.380 1_545 S
C6 C8 1.394 1_554 S
C7 C6 1.380 1_565 S
C7 C11 1.382 1_565 S
C8 C6 1.394 1_556 S
C8 C9 1.400 . S
C9 H1 0.931 . S
C9 C8 1.400 . S
C9 C10 1.375 1_556 S
C10 C9 1.375 1_554 S
C10 C11 1.415 . S
C10 C12 1.501 . S
C11 H2 0.931 1_545 S
C11 C7 1.382 1_545 S
C11 C10 1.415 . S
C12 C10 1.501 . S
C12 C13 1.384 . S
C12 C17 1.409 1_554 S
C13 H3 0.930 . S
C13 C12 1.384 . S
C13 C14 1.389 . S
C14 C13 1.389 . S
C14 C15 1.405 . S
C15 H4 0.930 . S
C15 C14 1.405 . S
C15 C16 1.364 1_544 S
C16 C15 1.364 1_566 S
C16 C17 1.400 1_565 S
C17 H5 0.930 1_545 S
C17 C12 1.409 1_556 S
C17 C16 1.400 1_545 S
H18 C24 0.930 . S
H19 C27 0.931 . S
H20 C29 0.931 . S
H21 C31 0.930 . S
H22 C33 0.930 . S
H23 C35 0.931 . S
C24 H18 0.930 . S
C24 C25 1.380 . S
C24 C26 1.394 1_455 S
C25 C24 1.380 . S
C25 C29 1.382 . S
C26 C24 1.394 1_655 S
C26 C27 1.400 . S
C27 H19 0.931 . S
C27 C26 1.400 . S
C27 C28 1.375 . S
C28 C27 1.375 . S
C28 C29 1.415 1_655 S
C28 C30 1.501 . S
C29 H20 0.931 . S
C29 C25 1.382 . S
C29 C28 1.415 1_455 S
C30 C28 1.501 . S
C30 C31 1.384 . S
C30 C35 1.408 1_655 S
C31 H21 0.930 . S
C31 C30 1.384 . S
C31 C32 1.389 . S
C32 C31 1.389 . S
C32 C33 1.405 . S
C33 H22 0.930 . S
C33 C32 1.405 . S
C33 C34 1.364 1_655 S
C34 C33 1.364 1_455 S
C34 C35 1.400 . S
C35 H23 0.931 . S
C35 C30 1.408 1_455 S
C35 C34 1.400 . S
O36 Cd37 2.223 1_655 S
O36 C44 1.315 . S
Cd37 O36 2.223 1_455 S
Cd37 O40 2.297 1_455 S
Cd37 O41 2.439 1_455 S
Cd37 O47 2.240 1_565 S
Cd38 O39 2.240 1_545 S
Cd38 O46 2.223 1_655 S
Cd38 O48 2.297 1_655 S
Cd38 O49 2.439 1_655 S
O39 Cd38 2.240 1_565 S
O39 C44 1.279 . S
O40 Cd37 2.297 1_655 S
O40 C42 1.247 . S
O41 Cd37 2.439 1_655 S
O41 C42 1.208 . S
C42 O40 1.247 . S
C42 O41 1.208 . S
C43 O48 1.247 . S
C43 O49 1.208 . S
C44 O36 1.315 . S
C44 O39 1.279 . S
C45 O46 1.315 . S
C45 O47 1.279 . S
O46 Cd38 2.223 1_455 S
O46 C45 1.315 . S
O47 Cd37 2.240 1_545 S
O47 C45 1.279 . S
O48 Cd38 2.297 1_455 S
O48 C43 1.247 . S
O49 Cd38 2.439 1_455 S
O49 C43 1.208 . S
O50 Cd51 2.223 1_655 S
O50 C58 1.315 . S
Cd51 O50 2.223 1_455 S
Cd51 O54 2.297 1_455 S
Cd51 O55 2.439 1_455 S
Cd51 O61 2.240 1_545 S
Cd52 O53 2.240 1_565 S
Cd52 O60 2.223 1_655 S
Cd52 O62 2.297 1_655 S
Cd52 O63 2.439 1_655 S
O53 Cd52 2.240 1_545 S
O53 C58 1.279 . S
O54 Cd51 2.297 1_655 S
O54 C56 1.247 . S
O55 Cd51 2.439 1_655 S
O55 C56 1.208 . S
C56 O54 1.247 . S
C56 O55 1.208 . S
C57 O62 1.247 . S
C57 O63 1.208 . S
C58 O50 1.315 . S
C58 O53 1.279 . S
C59 O60 1.315 . S
C59 O61 1.279 . S
O60 Cd52 2.223 1_455 S
O60 C59 1.315 . S
O61 Cd51 2.240 1_565 S
O61 C59 1.279 . S
O62 Cd52 2.297 1_455 S
O62 C57 1.247 . S
O63 Cd52 2.439 1_455 S
O63 C57 1.208 . S
C45 C7 1.932 1_545 S
C56 C34 1.721 1_655 S
C44 C14 1.972 1_565 S
C57 C26 1.760 1_455 S
C59 C8 1.953 1_565 S
C43 C32 1.779 1_455 S
C58 C16 1.906 1_545 S
C25 C42 1.742 1_455 S
