# Generated by pormake.
# Topology tsx, (6,3)-cn, num edge types: 1
# Building blocks:
#     Node 0, Type 0, BuildingBlock: MIDCAF_clean_sbu_0, # of connection points: 6
#     Node 1, Type 0, BuildingBlock: MIDCAF_clean_sbu_0, # of connection points: 6
#     Node 2, Type 1, BuildingBlock: ESEHIV_clean_linker_0, # of connection points: 3
#     Node 3, Type 1, BuildingBlock: ESEHIV_clean_linker_0, # of connection points: 3
#     Node 4, Type 1, BuildingBlock: ESEHIV_clean_linker_0, # of connection points: 3
#     Node 5, Type 1, BuildingBlock: ESEHIV_clean_linker_0, # of connection points: 3
#     Edge 6, Type (0, 1), BuildingBlock: OJICUG_clean_linker_0, # of connection points: 2
#     Edge 7, Type (0, 1), BuildingBlock: OJICUG_clean_linker_0, # of connection points: 2
#     Edge 8, Type (0, 1), BuildingBlock: OJICUG_clean_linker_0, # of connection points: 2
#     Edge 9, Type (0, 1), BuildingBlock: OJICUG_clean_linker_0, # of connection points: 2
#     Edge 10, Type (0, 1), BuildingBlock: OJICUG_clean_linker_0, # of connection points: 2
#     Edge 11, Type (0, 1), BuildingBlock: OJICUG_clean_linker_0, # of connection points: 2
#     Edge 12, Type (0, 1), BuildingBlock: OJICUG_clean_linker_0, # of connection points: 2
#     Edge 13, Type (0, 1), BuildingBlock: OJICUG_clean_linker_0, # of connection points: 2
#     Edge 14, Type (0, 1), BuildingBlock: OJICUG_clean_linker_0, # of connection points: 2
#     Edge 15, Type (0, 1), BuildingBlock: OJICUG_clean_linker_0, # of connection points: 2
#     Edge 16, Type (0, 1), BuildingBlock: OJICUG_clean_linker_0, # of connection points: 2
#     Edge 17, Type (0, 1), BuildingBlock: OJICUG_clean_linker_0, # of connection points: 2
# Relax obj value: 0.118
# Max RMSD: 0.182
# Mean RMSD: 0.113
data_MOF--net-tsx--node1-MIDCAF_clean_sbu_0--node2-ESEHIV_clean_linker_0--edge1-OJICUG_clean_linker_0
_symmetry_space_group_name_H-M    P1
_symmetry_Int_Tables_number       1
_symmetry_cell_setting            triclinic
loop_
_symmetry_equiv_pos_as_xyz
'x, y, z'
_cell_length_a     11.76081
_cell_length_b     14.092286
_cell_length_c     26.834185
_cell_angle_alpha  90.760696
_cell_angle_beta   98.322266
_cell_angle_gamma 89.779366
loop_
_atom_site_label
_atom_site_type_symbol
_atom_site_fract_x
_atom_site_fract_y
_atom_site_fract_z
_atom_type_partial_charge
Zn0 Zn 0.79838 0.94096 0.93794 0.0
Zn1 Zn 0.25357 0.07106 0.97229 0.0
Zn2 Zn 0.98486 -0.01807 -0.01741 0.0
C3 C 0.08079 0.17961 -0.01251 0.0
C4 C 0.19659 0.88704 0.92397 0.0
O5 O 0.90454 0.86738 0.0205 0.0
O6 O 0.78918 0.80736 0.95616 0.0
C7 C 0.7628 0.11049 0.97453 0.0
O8 O 1.02379 0.12466 0.01242 0.0
O9 O 0.10907 0.14584 0.94713 0.0
O10 O 0.27451 0.9479 0.93723 0.0
O11 O 0.09272 0.8993 0.93377 0.0
O12 O 0.70547 0.03459 0.97158 0.0
O13 O 0.87094 0.10547 0.9733 0.0
O14 O 1.00732 0.97626 0.90383 0.0
O15 O 0.82627 0.97544 0.86936 0.0
C16 C 0.93102 -0.01586 0.86487 0.0
O17 O 0.10714 0.01082 0.04868 0.0
O18 O 0.28566 0.06031 0.04873 0.0
C19 C 0.83644 0.80149 0.00127 0.0
C20 C 0.20557 0.03418 0.07251 0.0
Zn21 Zn 0.8424 0.46253 0.53753 0.0
Zn22 Zn 0.45229 0.46243 0.43072 0.0
Zn23 Zn 0.65627 0.47681 0.48357 0.0
C24 C 0.60899 0.38183 0.37344 0.0
C25 C 0.50725 0.65698 0.44674 0.0
O26 O 0.62461 0.43488 0.55962 0.0
O27 O 0.79245 0.46639 0.60469 0.0
C28 C 0.86555 0.33597 0.46718 0.0
O29 O 0.67914 0.40232 0.41346 0.0
O30 O 0.50354 0.40159 0.37076 0.0
O31 O 0.42479 0.60145 0.432 0.0
O32 O 0.60638 0.62405 0.46503 0.0
O33 O 0.90232 0.34207 0.51361 0.0
O34 O 0.78013 0.38772 0.4479 0.0
O35 O 0.7203 0.62219 0.49144 0.0
O36 O 0.90238 0.58327 0.51297 0.0
C37 C 0.82706 0.64564 0.49954 0.0
O38 O 0.53513 0.39851 0.52539 0.0
O39 O 0.3717 0.38321 0.47313 0.0
C40 C 0.68751 0.44626 0.60278 0.0
C41 C 0.43162 0.36635 0.51484 0.0
H42 H 0.11538 0.16469 0.28772 0.0
H43 H 0.39422 0.96532 0.30224 0.0
H44 H 0.26928 0.07376 0.43469 0.0
C45 C 0.18089 0.12539 0.3116 0.0
C46 C 0.18266 0.12674 0.364 0.0
C47 C 0.25938 0.06948 0.28936 0.0
C48 C 0.33992 0.01384 0.31989 0.0
C49 C 0.34135 0.01262 0.37236 0.0
C50 C 0.26629 0.07288 0.39413 0.0
H51 H 0.92206 0.93898 0.63808 0.0
H52 H 0.17361 0.15611 0.68255 0.0
H53 H 0.12377 0.04646 0.53042 0.0
C54 C 0.98542 -0.01136 0.62845 0.0
C55 C 1.01273 -0.01173 0.57936 0.0
C56 C 1.04391 0.0476 0.66609 0.0
C57 C 0.12922 0.10889 0.654 0.0
C58 C 0.15763 0.10894 0.60498 0.0
C59 C 0.10069 0.04735 0.56804 0.0
H60 H 0.40093 0.58933 0.7726 0.0
H61 H 0.61221 0.35088 0.82509 0.0
H62 H 0.42936 0.50338 0.92778 0.0
C63 C 0.4336 0.54092 0.80236 0.0
C64 C 0.40293 0.55396 0.85094 0.0
C65 C 0.51027 0.46834 0.79273 0.0
C66 C 0.55426 0.40809 0.83199 0.0
C67 C 0.52596 0.42079 0.88045 0.0
C68 C 0.44899 0.49264 0.88987 0.0
H69 H 0.45438 0.3093 0.15898 0.0
H70 H 0.75582 0.48235 0.15991 0.0
H71 H 0.48123 0.49715 0.03684 0.0
C72 C 0.5029 0.36063 0.14138 0.0
C73 C 0.45587 0.39581 0.09396 0.0
C74 C 0.60983 0.39276 0.16668 0.0
C75 C 0.67249 0.45801 0.14212 0.0
C76 C 0.62528 0.4977 0.09608 0.0
C77 C 0.5174 0.46598 0.07227 0.0
C78 C 0.23396 0.3014 -0.01202 0.0
C79 C 0.15684 0.25376 0.01431 0.0
H80 H 0.3876 0.38132 -0.0082 0.0
C81 C 0.16679 0.26738 0.06672 0.0
H82 H 0.2273 0.29463 0.94739 0.0
C83 C 0.25974 0.31851 0.0926 0.0
C84 C 0.34487 0.357 0.06662 0.0
H85 H 0.1072 0.23369 0.08812 0.0
H86 H 0.26629 0.32485 0.13313 0.0
C87 C 0.32669 0.35169 0.0137 0.0
C88 C 0.19306 0.71129 0.90942 0.0
C89 C 0.22858 0.80171 0.89672 0.0
H90 H 0.22175 0.5609 0.90516 0.0
C91 C 0.31147 0.80922 0.8642 0.0
H92 H 0.13022 0.70379 0.9349 0.0
C93 C 0.36297 0.72817 0.84702 0.0
C94 C 0.33389 0.63776 0.86256 0.0
H95 H 0.3405 0.87823 0.85395 0.0
H96 H 0.43072 0.73678 0.82407 0.0
C97 C 0.24624 0.62984 0.89287 0.0
C98 C 0.67135 0.73063 0.03347 0.0
C99 C 0.79015 0.73011 0.03224 0.0
H100 H 0.52715 0.65931 0.05528 0.0
C101 C 0.85689 0.6545 0.05379 0.0
H102 H 0.61822 0.78822 0.01672 0.0
C103 C 0.80405 0.57869 0.07497 0.0
C104 C 0.68399 0.57797 0.07484 0.0
H105 H 0.94839 0.65203 0.05225 0.0
H106 H 0.8565 0.51946 0.08999 0.0
C107 C 0.61902 0.65599 0.05481 0.0
C108 C 0.57931 0.20168 0.95696 0.0
C109 C 0.70035 0.20172 0.96661 0.0
H110 H 0.4286 0.27233 0.92077 0.0
C111 C 0.7595 0.28523 0.9584 0.0
H112 H 0.53073 0.13889 0.96325 0.0
C113 C 0.69981 0.36262 0.93522 0.0
C114 C 0.58053 0.35753 0.92017 0.0
H115 H 0.85244 0.28792 0.96571 0.0
H116 H 0.74791 0.423 0.92498 0.0
C117 C 0.52016 0.27841 0.9331 0.0
C118 C 0.97883 0.76782 0.4997 0.0
C119 C 0.86328 0.74571 0.50223 0.0
H120 H 0.11715 0.86462 0.52179 0.0
C121 C 0.79134 0.81569 0.51846 0.0
H122 H 1.03572 0.71541 0.4866 0.0
C123 C 0.83821 0.90114 0.53874 0.0
C124 C 0.95713 0.91752 0.54263 0.0
H125 H 0.70192 0.80073 0.52059 0.0
H126 H 0.78352 0.95058 0.55553 0.0
C127 C 1.02545 0.85344 0.51962 0.0
C128 C 0.969 0.18718 0.45262 0.0
C129 C 0.92951 0.27655 0.43555 0.0
H130 H 0.07473 0.06767 0.44163 0.0
C131 C 0.9666 0.3142 0.39256 0.0
H132 H 0.94084 0.15681 0.48565 0.0
C133 C 1.04801 0.26542 0.36876 0.0
C134 C 0.09161 0.17735 0.38708 0.0
H135 H 0.93829 0.38389 0.37934 0.0
H136 H 0.07986 0.29842 0.33731 0.0
C137 C 1.04748 0.13728 0.42804 0.0
C138 C 0.29132 0.33782 0.57313 0.0
C139 C 0.38242 0.30453 0.54928 0.0
H140 H 0.14984 0.30059 0.61107 0.0
C141 C 0.40705 0.2072 0.5486 0.0
H142 H 0.26923 0.41256 0.57256 0.0
C143 C 0.33693 0.14311 0.56909 0.0
C144 C 0.24287 0.17613 0.59119 0.0
H145 H 0.47502 0.1803 0.52896 0.0
H146 H 0.3529 0.06768 0.56573 0.0
C147 C 0.22299 0.27402 0.59475 0.0
C148 C 0.38317 0.79627 0.45342 0.0
C149 C 0.48587 0.75911 0.44059 0.0
H150 H 0.25777 0.90589 0.44237 0.0
C151 C 0.5525 0.8143 0.41272 0.0
H152 H 0.3304 0.75456 0.47483 0.0
C153 C 0.51035 0.90168 0.39345 0.0
C154 C 0.40194 0.93492 0.40247 0.0
H155 H 0.6318 0.78639 0.40224 0.0
H156 H 0.55904 0.94032 0.36907 0.0
C157 C 0.34191 0.88343 0.43487 0.0
C158 C 0.3297 0.06158 0.15588 0.0
C159 C 0.22171 0.04003 0.12817 0.0
H160 H 0.42638 0.08732 0.22904 0.0
C161 C 0.12714 0.02808 0.15404 0.0
H162 H 0.40412 0.07178 0.13704 0.0
C163 C 0.13978 0.03838 0.20627 0.0
C164 C 0.24738 0.06002 0.2339 0.0
H165 H 1.04267 0.01188 0.13394 0.0
H166 H 0.06537 0.0285 0.22518 0.0
C167 C 0.34258 0.07068 0.20839 0.0
C168 C 0.07779 0.01395 0.80732 0.0
C169 C 0.96254 0.00442 0.8148 0.0
H170 H 0.19431 0.03548 0.75393 0.0
C171 C 0.87513 0.01693 0.77377 0.0
H172 H 0.14696 0.00651 0.8383 0.0
C173 C 0.90205 0.03533 0.72608 0.0
C174 C 1.01701 0.04103 0.71806 0.0
H175 H 0.7853 0.01186 0.77825 0.0
H176 H 0.83262 0.0435 0.69515 0.0
C177 C 0.10486 0.03191 0.75922 0.0
C178 C 0.52078 0.46134 0.65144 0.0
C179 C 0.63795 0.4429 0.6503 0.0
H180 H 0.38763 0.48348 0.69738 0.0
C181 C 0.71127 0.43133 0.69594 0.0
H182 H 0.46307 0.47356 0.61693 0.0
C183 C 0.66922 0.43947 0.7417 0.0
C184 C 0.5523 0.45866 0.74321 0.0
H185 H 0.80223 0.41804 0.69642 0.0
H186 H 0.72945 0.43299 0.77607 0.0
C187 C 0.47817 0.46898 0.69751 0.0
C188 C 0.71418 0.42973 0.30578 0.0
C189 C 0.65191 0.35935 0.32614 0.0
H190 H 0.74631 0.49884 0.23985 0.0
C191 C 0.60128 0.28615 0.29485 0.0
H192 H 0.75302 0.48741 0.32938 0.0
C193 C 0.60192 0.28949 0.24285 0.0
C194 C 0.64644 0.36946 0.22111 0.0
H195 H 0.55313 0.23076 0.31004 0.0
H196 H 0.55887 0.23319 0.21976 0.0
C197 C 0.70985 0.43594 0.25375 0.0
loop_
_geom_bond_atom_site_label_1
_geom_bond_atom_site_label_2
_geom_bond_distance
_geom_bond_site_symmetry_2
_ccdc_geom_bond_type
Zn0 O6 1.920 1_545 S
Zn0 O12 1.898 . S
Zn0 O15 1.905 1_545 S
Zn1 O9 1.905 . S
Zn1 O10 1.898 1_545 S
Zn1 O18 1.920 1_545 S
Zn2 O5 2.081 1_444 S
Zn2 O8 2.113 1_554 S
Zn2 O11 2.120 1_545 S
Zn2 O13 2.121 1_455 S
Zn2 O14 2.101 1_554 S
Zn2 O17 2.093 . S
C3 O8 1.166 1_554 S
C3 O9 1.182 . S
C4 O10 1.167 1_556 S
C4 O11 1.299 1_556 S
O5 Zn2 2.081 1_666 S
O5 C19 1.305 1_556 S
O6 Zn0 1.920 1_565 S
O6 C19 1.234 1_556 S
C7 O12 1.167 . S
C7 O13 1.299 1_556 S
O8 Zn2 2.113 1_556 S
O8 C3 1.166 1_556 S
O9 Zn1 1.905 . S
O9 C3 1.182 . S
O10 Zn1 1.898 1_565 S
O10 C4 1.167 1_554 S
O11 Zn2 2.120 1_565 S
O11 C4 1.299 1_554 S
O12 Zn0 1.898 . S
O12 C7 1.167 . S
O13 Zn2 2.121 1_655 S
O13 C7 1.299 1_554 S
O14 Zn2 2.101 1_556 S
O14 C16 1.166 1_445 S
O15 Zn0 1.905 1_565 S
O15 C16 1.182 . S
C16 O14 1.166 1_665 S
C16 O15 1.182 . S
O17 Zn2 2.093 . S
O17 C20 1.305 1_545 S
O18 Zn1 1.920 1_565 S
O18 C20 1.234 . S
C19 O5 1.305 1_554 S
C19 O6 1.234 1_554 S
C20 O17 1.305 1_565 S
C20 O18 1.234 . S
Zn21 O27 1.920 . S
Zn21 O33 1.898 . S
Zn21 O36 1.905 . S
Zn22 O30 1.905 . S
Zn22 O31 1.898 . S
Zn22 O39 1.920 . S
Zn23 O26 2.080 . S
Zn23 O29 2.114 . S
Zn23 O32 2.120 . S
Zn23 O34 2.120 . S
Zn23 O35 2.114 . S
Zn23 O38 2.080 . S
C24 O29 1.166 . S
C24 O30 1.182 . S
C25 O31 1.167 . S
C25 O32 1.299 . S
O26 Zn23 2.080 . S
O26 C40 1.305 . S
O27 Zn21 1.920 . S
O27 C40 1.234 . S
C28 O33 1.167 . S
C28 O34 1.299 . S
O29 Zn23 2.114 . S
O29 C24 1.166 . S
O30 Zn22 1.905 . S
O30 C24 1.182 . S
O31 Zn22 1.898 . S
O31 C25 1.167 . S
O32 Zn23 2.120 . S
O32 C25 1.299 . S
O33 Zn21 1.898 . S
O33 C28 1.167 . S
O34 Zn23 2.120 . S
O34 C28 1.299 . S
O35 Zn23 2.114 . S
O35 C37 1.166 . S
O36 Zn21 1.905 . S
O36 C37 1.182 . S
C37 O35 1.166 . S
C37 O36 1.182 . S
O38 Zn23 2.080 . S
O38 C41 1.305 . S
O39 Zn22 1.920 . S
O39 C41 1.234 . S
C40 O26 1.305 . S
C40 O27 1.234 . S
C41 O38 1.305 . S
C41 O39 1.234 . S
H42 C45 0.931 1_655 S
H43 C48 0.928 . S
H44 C50 0.930 . S
C45 H42 0.931 1_455 S
C45 C46 1.413 . S
C45 C47 1.360 . S
C46 C45 1.413 . S
C46 C50 1.429 . S
C47 C45 1.360 . S
C47 C48 1.372 1_545 S
C48 H43 0.928 . S
C48 C47 1.372 1_565 S
C48 C49 1.404 . S
C49 C48 1.404 . S
C49 C50 1.391 1_565 S
C50 H44 0.930 . S
C50 C46 1.429 . S
C50 C49 1.391 1_545 S
H51 C54 0.931 . S
H52 C57 0.928 . S
H53 C59 0.930 . S
C54 H51 0.931 . S
C54 C55 1.413 . S
C54 C56 1.360 1_665 S
C55 C54 1.413 . S
C55 C59 1.429 1_665 S
C56 C54 1.360 1_445 S
C56 C57 1.372 . S
C57 H52 0.928 . S
C57 C56 1.372 . S
C57 C58 1.404 . S
C58 C57 1.404 . S
C58 C59 1.391 . S
C59 H53 0.930 . S
C59 C55 1.429 1_445 S
C59 C58 1.391 . S
H60 C63 0.931 . S
H61 C66 0.928 . S
H62 C68 0.930 . S
C63 H60 0.931 . S
C63 C64 1.413 . S
C63 C65 1.360 . S
C64 C63 1.413 . S
C64 C68 1.429 . S
C65 C63 1.360 . S
C65 C66 1.372 . S
C66 H61 0.928 . S
C66 C65 1.372 . S
C66 C67 1.404 . S
C67 C66 1.404 . S
C67 C68 1.391 . S
C68 H62 0.930 . S
C68 C64 1.429 . S
C68 C67 1.391 . S
H69 C72 0.931 . S
H70 C75 0.928 . S
H71 C77 0.930 . S
C72 H69 0.931 . S
C72 C73 1.413 . S
C72 C74 1.360 . S
C73 C72 1.413 . S
C73 C77 1.429 . S
C74 C72 1.360 . S
C74 C75 1.372 . S
C75 H70 0.928 . S
C75 C74 1.372 . S
C75 C76 1.404 . S
C76 C75 1.404 . S
C76 C77 1.391 . S
C77 H71 0.930 . S
C77 C73 1.429 . S
C77 C76 1.391 . S
C78 C79 1.387 1_556 S
C78 H82 0.950 . S
C78 C87 1.390 1_556 S
C79 C78 1.387 1_554 S
C79 C81 1.387 . S
H80 C87 0.950 1_556 S
C81 C79 1.387 . S
C81 C83 1.390 . S
C81 H85 0.950 . S
H82 C78 0.950 . S
C83 C81 1.390 . S
C83 C84 1.387 . S
C83 H86 0.950 . S
C84 C83 1.387 . S
C84 C87 1.387 . S
H85 C81 0.950 . S
H86 C83 0.950 . S
C87 C78 1.390 1_554 S
C87 H80 0.950 1_554 S
C87 C84 1.387 . S
C88 C89 1.387 1_554 S
C88 H92 0.950 . S
C88 C97 1.390 1_554 S
C89 C88 1.387 1_556 S
C89 C91 1.387 . S
H90 C97 0.950 1_554 S
C91 C89 1.387 . S
C91 C93 1.390 . S
C91 H95 0.950 . S
H92 C88 0.950 . S
C93 C91 1.390 . S
C93 C94 1.387 . S
C93 H96 0.950 . S
C94 C93 1.387 . S
C94 C97 1.387 . S
H95 C91 0.950 . S
H96 C93 0.950 . S
C97 C88 1.390 1_556 S
C97 H90 0.950 1_556 S
C97 C94 1.387 . S
C98 C99 1.387 1_556 S
C98 H102 0.950 . S
C98 C107 1.390 1_556 S
C99 C98 1.387 1_554 S
C99 C101 1.387 . S
H100 C107 0.950 1_556 S
C101 C99 1.387 . S
C101 C103 1.390 . S
C101 H105 0.950 . S
H102 C98 0.950 . S
C103 C101 1.390 . S
C103 C104 1.387 . S
C103 H106 0.950 . S
C104 C103 1.387 . S
C104 C107 1.387 . S
H105 C101 0.950 . S
H106 C103 0.950 . S
C107 C98 1.390 1_554 S
C107 H100 0.950 1_554 S
C107 C104 1.387 . S
C108 C109 1.387 1_554 S
C108 H112 0.950 . S
C108 C117 1.390 1_554 S
C109 C108 1.387 1_556 S
C109 C111 1.387 . S
H110 C117 0.950 1_554 S
C111 C109 1.387 . S
C111 C113 1.390 . S
C111 H115 0.950 . S
H112 C108 0.950 . S
C113 C111 1.390 . S
C113 C114 1.387 . S
C113 H116 0.950 . S
C114 C113 1.387 . S
C114 C117 1.387 . S
H115 C111 0.950 . S
H116 C113 0.950 . S
C117 C108 1.390 1_556 S
C117 H110 0.950 1_556 S
C117 C114 1.387 . S
C118 C119 1.387 . S
C118 H122 0.950 . S
C118 C127 1.390 . S
C119 C118 1.387 . S
C119 C121 1.387 . S
H120 C127 0.950 . S
C121 C119 1.387 . S
C121 C123 1.390 . S
C121 H125 0.950 . S
H122 C118 0.950 . S
C123 C121 1.390 . S
C123 C124 1.387 . S
C123 H126 0.950 . S
C124 C123 1.387 . S
C124 C127 1.387 . S
H125 C121 0.950 . S
H126 C123 0.950 . S
C127 C118 1.390 . S
C127 H120 0.950 . S
C127 C124 1.387 . S
C128 C129 1.387 . S
C128 H132 0.950 . S
C128 C137 1.390 . S
C129 C128 1.387 . S
C129 C131 1.387 . S
H130 C137 0.950 . S
C131 C129 1.387 . S
C131 C133 1.390 . S
C131 H135 0.950 . S
H132 C128 0.950 . S
C133 C131 1.390 . S
C133 C134 1.387 . S
C133 H136 0.950 . S
C134 C133 1.387 . S
C134 C137 1.387 . S
H135 C131 0.950 . S
H136 C133 0.950 . S
C137 C128 1.390 . S
C137 H130 0.950 . S
C137 C134 1.387 . S
C138 C139 1.387 . S
C138 H142 0.950 . S
C138 C147 1.390 . S
C139 C138 1.387 . S
C139 C141 1.387 . S
H140 C147 0.950 . S
C141 C139 1.387 . S
C141 C143 1.390 . S
C141 H145 0.950 . S
H142 C138 0.950 . S
C143 C141 1.390 . S
C143 C144 1.387 . S
C143 H146 0.950 . S
C144 C143 1.387 . S
C144 C147 1.387 . S
H145 C141 0.950 . S
H146 C143 0.950 . S
C147 C138 1.390 . S
C147 H140 0.950 . S
C147 C144 1.387 . S
C148 C149 1.387 . S
C148 H152 0.950 . S
C148 C157 1.390 . S
C149 C148 1.387 . S
C149 C151 1.387 . S
H150 C157 0.950 . S
C151 C149 1.387 . S
C151 C153 1.390 . S
C151 H155 0.950 . S
H152 C148 0.950 . S
C153 C151 1.390 . S
C153 C154 1.387 . S
C153 H156 0.950 . S
C154 C153 1.387 . S
C154 C157 1.387 . S
H155 C151 0.950 . S
H156 C153 0.950 . S
C157 C148 1.390 . S
C157 H150 0.950 . S
C157 C154 1.387 . S
C158 C159 1.387 . S
C158 H162 0.950 . S
C158 C167 1.390 . S
C159 C158 1.387 . S
C159 C161 1.387 1_465 S
H160 C167 0.950 . S
C161 C159 1.387 1_645 S
C161 C163 1.390 . S
C161 H165 0.950 . S
H162 C158 0.950 . S
C163 C161 1.390 . S
C163 C164 1.387 1_655 S
C163 H166 0.950 . S
C164 C163 1.387 1_455 S
C164 C167 1.387 1_545 S
H165 C161 0.950 . S
H166 C163 0.950 . S
C167 C158 1.390 . S
C167 H160 0.950 . S
C167 C164 1.387 1_565 S
C168 C169 1.387 1_545 S
C168 H172 0.950 . S
C168 C177 1.390 . S
C169 C168 1.387 1_565 S
C169 C171 1.387 1_455 S
H170 C177 0.950 . S
C171 C169 1.387 1_655 S
C171 C173 1.390 . S
C171 H175 0.950 . S
H172 C168 0.950 . S
C173 C171 1.390 . S
C173 C174 1.387 1_665 S
C173 H176 0.950 . S
C174 C173 1.387 1_445 S
C174 C177 1.387 . S
H175 C171 0.950 . S
H176 C173 0.950 . S
C177 C168 1.390 . S
C177 H170 0.950 . S
C177 C174 1.387 . S
C178 C179 1.387 . S
C178 H182 0.950 . S
C178 C187 1.390 . S
C179 C178 1.387 . S
C179 C181 1.387 . S
H180 C187 0.950 . S
C181 C179 1.387 . S
C181 C183 1.390 . S
C181 H185 0.950 . S
H182 C178 0.950 . S
C183 C181 1.390 . S
C183 C184 1.387 . S
C183 H186 0.950 . S
C184 C183 1.387 . S
C184 C187 1.387 . S
H185 C181 0.950 . S
H186 C183 0.950 . S
C187 C178 1.390 . S
C187 H180 0.950 . S
C187 C184 1.387 . S
C188 C189 1.387 . S
C188 H192 0.950 . S
C188 C197 1.390 . S
C189 C188 1.387 . S
C189 C191 1.387 . S
H190 C197 0.950 . S
C191 C189 1.387 . S
C191 C193 1.390 . S
C191 H195 0.950 . S
H192 C188 0.950 . S
C193 C191 1.390 . S
C193 C194 1.387 . S
C193 H196 0.950 . S
C194 C193 1.387 . S
C194 C197 1.387 . S
H195 C191 0.950 . S
H196 C193 0.950 . S
C197 C188 1.390 . S
C197 H190 0.950 . S
C197 C194 1.387 . S
C84 C73 1.344 . S
C79 C3 1.175 . S
C89 C4 1.455 . S
C94 C64 1.542 . S
C99 C19 1.478 . S
C104 C76 1.553 . S
C109 C7 1.167 . S
C114 C67 1.340 . S
C119 C37 1.178 . S
C124 C55 1.345 . S
C129 C28 1.455 . S
C134 C46 1.541 1_655 S
C144 C58 1.553 . S
C139 C41 1.481 . S
C154 C49 1.340 . S
C149 C25 1.169 . S
C159 C20 1.338 . S
C164 C47 1.506 . S
C169 C16 1.373 1_455 S
C174 C56 1.548 . S
C184 C65 1.505 . S
C179 C40 1.336 . S
C189 C24 1.373 . S
C194 C74 1.549 . S
