# Generated by pormake.
# Topology pts, (4,4)-cn, num edge types: 1
# Building blocks:
#     Node 0, Type 0, BuildingBlock: MUDLON_clean_linker_0, # of connection points: 4
#     Node 1, Type 0, BuildingBlock: MUDLON_clean_linker_0, # of connection points: 4
#     Node 2, Type 1, BuildingBlock: AZAVOO_clean_sbu_0, # of connection points: 4
#     Node 3, Type 1, BuildingBlock: AZAVOO_clean_sbu_0, # of connection points: 4
#     Edge 4, Type (0, 1), BuildingBlock: OJICUG_clean_linker_0, # of connection points: 2
#     Edge 5, Type (0, 1), BuildingBlock: OJICUG_clean_linker_0, # of connection points: 2
#     Edge 6, Type (0, 1), BuildingBlock: OJICUG_clean_linker_0, # of connection points: 2
#     Edge 7, Type (0, 1), BuildingBlock: OJICUG_clean_linker_0, # of connection points: 2
#     Edge 8, Type (0, 1), BuildingBlock: OJICUG_clean_linker_0, # of connection points: 2
#     Edge 9, Type (0, 1), BuildingBlock: OJICUG_clean_linker_0, # of connection points: 2
#     Edge 10, Type (0, 1), BuildingBlock: OJICUG_clean_linker_0, # of connection points: 2
#     Edge 11, Type (0, 1), BuildingBlock: OJICUG_clean_linker_0, # of connection points: 2
# Relax obj value: 0.019
# Max RMSD: 0.069
# Mean RMSD: 0.065
data_MOF--net-pts--node1-AZAVOO_clean_sbu_0--node2-MUDLON_clean_linker_0--edge1-OJICUG_clean_linker_0
_symmetry_space_group_name_H-M    P1
_symmetry_Int_Tables_number       1
_symmetry_cell_setting            triclinic
loop_
_symmetry_equiv_pos_as_xyz
'x, y, z'
_cell_length_a     26.678086
_cell_length_b     27.964537
_cell_length_c     35.281899
_cell_angle_alpha  90.128226
_cell_angle_beta   96.196197
_cell_angle_gamma 89.826461
loop_
_atom_site_label
_atom_site_type_symbol
_atom_site_fract_x
_atom_site_fract_y
_atom_site_fract_z
_atom_type_partial_charge
H0 H 0.72298 0.13461 0.06743 0.0
N1 N 0.70835 0.08367 0.00346 0.0
H2 H 0.77964 0.1163 0.12509 0.0
H3 H 0.76875 0.00401 0.01556 0.0
H4 H 0.82549 0.98591 0.07263 0.0
H5 H 0.70408 0.00632 0.95499 0.0
H6 H 0.74903 -0.0028 0.89886 0.0
H7 H 0.76415 0.14854 0.97266 0.0
H8 H 0.80919 0.13982 0.91601 0.0
H9 H 0.62571 0.13559 0.98442 0.0
H10 H 0.67465 -0.00518 0.022 0.0
H11 H 0.53761 0.1111 0.98446 0.0
H12 H 0.58754 0.97079 0.0239 0.0
H13 H 0.28657 0.04768 0.02762 0.0
H14 H 0.23873 0.05054 0.08237 0.0
H15 H 0.32033 0.92653 0.12947 0.0
H16 H 0.36493 0.92176 0.07271 0.0
H17 H 0.30674 0.90016 0.9757 0.0
H18 H 0.24611 0.89946 0.91811 0.0
H19 H 0.2582 0.05294 0.91031 0.0
H20 H 0.32006 0.05315 0.96715 0.0
H21 H 0.38774 0.06533 0.02724 0.0
H22 H 0.47492 0.09174 0.02512 0.0
H23 H 0.51353 0.95163 0.98471 0.0
N24 N 0.35097 0.9756 0.01058 0.0
H25 H 0.42706 0.92536 0.98869 0.0
C26 C 0.7418 0.07121 0.03701 0.0
C27 C 0.74525 0.1021 0.06848 0.0
C28 C 0.77746 0.09151 0.10133 0.0
C29 C 0.80717 0.04978 0.10323 0.0
C30 C 0.8036 0.01866 0.07176 0.0
C31 C 0.77101 0.02902 0.03908 0.0
C32 C 0.73035 0.07851 0.96798 0.0
C33 C 0.72613 0.03601 0.94644 0.0
C34 C 0.75195 0.03082 0.91423 0.0
C35 C 0.78276 0.06779 0.90294 0.0
C36 C 0.78621 0.11049 0.92415 0.0
C37 C 0.76021 0.11572 0.95628 0.0
C38 C 0.65691 0.06742 0.00338 0.0
C39 C 0.61741 0.0995 0.99286 0.0
C40 C 0.56711 0.08551 0.99324 0.0
C41 C 0.55519 0.03893 0.00431 0.0
C42 C 0.595 0.00672 0.01466 0.0
C43 C 0.64518 0.02062 0.01395 0.0
C44 C 0.32837 0.9834 0.04546 0.0
C45 C 0.29415 0.02097 0.04957 0.0
C46 C 0.26707 0.02293 0.08139 0.0
C47 C 0.27454 0.98811 0.11024 0.0
C48 C 0.31196 0.95298 0.10732 0.0
C49 C 0.33808 0.95045 0.07512 0.0
C50 C 0.31746 0.97657 0.97575 0.0
C51 C 0.29654 0.93351 0.9613 0.0
C52 C 0.26205 0.9332 0.92857 0.0
C53 C 0.24729 0.9762 0.9101 0.0
C54 C 0.26859 0.0194 0.92437 0.0
C55 C 0.30392 0.01955 0.9567 0.0
C56 C 0.40132 -0.0069 0.00862 0.0
C57 C 0.41516 0.0404 0.01814 0.0
C58 C 0.46498 0.05549 0.01657 0.0
C59 C 0.50166 0.02374 0.00503 0.0
C60 C 0.48691 0.97682 0.99462 0.0
C61 C 0.43742 0.96175 0.99657 0.0
H62 H 0.89093 0.72126 0.53454 0.0
N63 N 0.96334 0.67691 0.50203 0.0
H64 H 0.90018 0.7731 0.59095 0.0
H65 H 0.05045 0.69085 0.55061 0.0
H66 H 0.0596 0.74139 0.60678 0.0
H67 H 0.04696 0.7282 0.48782 0.0
H68 H 0.05598 0.77682 0.43188 0.0
H69 H 0.89511 0.69195 0.44254 0.0
H70 H 0.90342 0.74295 0.38675 0.0
H71 H 0.91154 0.59679 0.50656 0.0
H72 H 0.06151 0.64877 0.49642 0.0
H73 H 0.94322 0.51467 0.50738 0.0
H74 H 0.09398 0.56816 0.50033 0.0
H75 H 0.01801 0.29102 0.52728 0.0
H76 H 0.00987 0.23866 0.58125 0.0
H77 H 0.15946 0.27829 0.63022 0.0
H78 H 0.1676 0.3306 0.57539 0.0
H79 H 0.16429 0.28239 0.4845 0.0
H80 H 0.14562 0.22855 0.43021 0.0
H81 H 0.99669 0.29083 0.40885 0.0
H82 H 0.01469 0.34227 0.46433 0.0
H83 H 0.02142 0.37906 0.5496 0.0
H84 H 0.98957 0.4597 0.5457 0.0
H85 H 0.09949 0.49624 0.46897 0.0
N86 N 0.10148 0.34262 0.51391 0.0
H87 H 0.13409 0.41551 0.47534 0.0
C88 C 0.96969 0.70222 0.53794 0.0
C89 C 0.92766 0.72493 0.55063 0.0
C90 C 0.93298 0.75423 0.58297 0.0
C91 C 0.98071 0.76146 0.6032 0.0
C92 C 0.02243 0.7369 0.59153 0.0
C93 C 0.01709 0.7077 0.55923 0.0
C94 C 0.97041 0.70558 0.46912 0.0
C95 C 0.01577 0.7299 0.46565 0.0
C96 C 0.02094 0.75784 0.43361 0.0
C97 C 0.98059 0.76301 0.40491 0.0
C98 C 0.93515 0.73909 0.40843 0.0
C99 C 0.93038 0.71019 0.44015 0.0
C100 C 0.98385 0.62915 0.502 0.0
C101 C 0.95134 0.5905 0.50494 0.0
C102 C 0.9697 0.54364 0.50575 0.0
C103 C 0.02142 0.53451 0.50431 0.0
C104 C 0.05387 0.57345 0.50096 0.0
C105 C 0.03525 0.62012 0.49929 0.0
C106 C 0.09388 0.3144 0.54709 0.0
C107 C 0.04899 0.28879 0.54967 0.0
C108 C 0.04409 0.25932 0.58089 0.0
C109 C 0.08397 0.25444 0.61009 0.0
C110 C 0.12816 0.28121 0.60808 0.0
C111 C 0.13291 0.31102 0.57688 0.0
C112 C 0.09115 0.31625 0.47864 0.0
C113 C 0.12793 0.28476 0.46768 0.0
C114 C 0.11726 0.25434 0.4364 0.0
C115 C 0.06947 0.25506 0.41515 0.0
C116 C 0.03357 0.28864 0.42492 0.0
C117 C 0.044 0.31849 0.45654 0.0
C118 C 0.08115 0.39076 0.513 0.0
C119 C 0.03949 0.40402 0.5322 0.0
C120 C 0.02053 0.45056 0.52955 0.0
C121 C 0.04167 0.48481 0.50692 0.0
C122 C 0.08277 0.47132 0.48734 0.0
C123 C 0.10249 0.42505 0.49073 0.0
Mg124 Mg 0.05797 0.99103 0.2812 0.0
O125 O 0.98749 0.00244 0.23819 0.0
O126 O 0.92075 0.004 0.27145 0.0
Mg127 Mg 0.94657 0.99014 0.33425 0.0
C128 C 0.94009 0.00704 0.23999 0.0
C129 C 0.14122 0.97683 0.22967 0.0
O130 O 0.1408 0.93715 0.24947 0.0
O131 O 0.05291 0.06841 0.30257 0.0
O132 O 0.98766 0.06183 0.33708 0.0
O133 O 0.05101 0.91097 0.27722 0.0
O134 O 0.01468 0.95542 0.31807 0.0
C135 C 0.02314 0.08619 0.32504 0.0
C136 C 0.02252 0.91371 0.30455 0.0
O137 O 0.11052 0.01008 0.23606 0.0
Mg138 Mg 0.98955 0.00658 0.7329 0.0
O139 O 0.05933 -0.00777 0.77592 0.0
O140 O 0.1224 0.96908 0.74312 0.0
Mg141 Mg 0.09439 0.96986 0.6798 0.0
C142 C 0.1049 0.97869 0.77453 0.0
C143 C 0.90107 0.02964 0.77772 0.0
O144 O 0.8811 0.00434 0.74851 0.0
O145 O 0.0236 0.07777 0.71649 0.0
O146 O 0.08437 0.0511 0.68268 0.0
O147 O 0.96587 0.92948 0.73193 0.0
O148 O 0.01669 0.96047 0.69332 0.0
C149 C 0.05966 0.08525 0.69611 0.0
C150 C 0.99351 0.9236 0.70431 0.0
O151 O 0.94781 0.03955 0.7799 0.0
C152 C 0.2279 0.94184 0.15631 0.0
C153 C 0.24138 0.98627 0.14179 0.0
H154 H 0.18639 0.9043 0.19522 0.0
C155 C 0.22124 0.02815 0.15668 0.0
H156 H 0.24109 0.90863 0.14502 0.0
C157 C 0.1883 0.02545 0.18503 0.0
C158 C 0.17551 0.98091 0.19953 0.0
H159 H 0.23107 0.06308 0.14666 0.0
H160 H 0.17335 0.05819 0.19589 0.0
C161 C 0.19593 0.93926 0.18498 0.0
C162 C 0.12179 0.18544 0.64795 0.0
C163 C 0.0813 0.2173 0.63979 0.0
H164 H 0.1468 0.11881 0.67287 0.0
C165 C 0.03635 0.20932 0.6563 0.0
H166 H 0.15682 0.1904 0.63556 0.0
C167 C 0.03061 0.16815 0.67791 0.0
C168 C 0.06957 0.1341 0.68292 0.0
H169 H 1.00475 0.23368 0.65091 0.0
H170 H 0.99447 0.16135 0.68816 0.0
C171 C 0.11593 0.14422 0.66919 0.0
C172 C 0.89111 0.02308 0.13558 0.0
C173 C 0.84136 0.03851 0.1381 0.0
H174 H 0.96154 0.00138 0.16571 0.0
C175 C 0.82433 0.04307 0.17422 0.0
H176 H 0.90534 0.01956 0.10809 0.0
C177 C 0.85628 0.0324 0.20714 0.0
C178 C 0.90623 0.01736 0.20476 0.0
H179 H 0.78604 0.05441 0.17702 0.0
H180 H 0.8418 0.03637 0.2345 0.0
C181 C 0.92333 0.01289 0.16858 0.0
C182 C 0.02756 0.83141 0.63313 0.0
C183 C 0.9879 0.79857 0.63342 0.0
H184 H 0.06069 0.8961 0.65537 0.0
C185 C 0.95328 0.80427 0.66047 0.0
H186 H 0.05455 0.8284 0.6124 0.0
C187 C 0.95703 0.84337 0.68551 0.0
C188 C 0.99502 0.87772 0.68352 0.0
H189 H 0.92255 0.77926 0.66155 0.0
H190 H 0.92865 0.84798 0.70499 0.0
C191 C 0.03095 0.87055 0.65776 0.0
C192 C 0.16691 0.00525 0.87408 0.0
C193 C 0.20989 0.97586 0.87591 0.0
H194 H 0.0992 0.02837 0.8408 0.0
C195 C 0.21709 0.94611 0.84487 0.0
H196 H 0.16042 0.02823 0.89784 0.0
C197 C 0.18258 0.9466 0.81213 0.0
C198 C 0.13962 0.97614 0.81012 0.0
H199 H 0.25001 0.92321 0.84562 0.0
H200 H 0.1896 0.92391 0.78834 0.0
C201 C 0.13177 0.00501 0.84163 0.0
C202 C 0.09052 0.19831 0.36321 0.0
C203 C 0.05524 0.21722 0.38624 0.0
H204 H 0.10798 0.14215 0.32516 0.0
C205 C 1.00722 0.19626 0.38436 0.0
H206 H 0.12755 0.21411 0.36342 0.0
C207 C 0.99588 0.1557 0.36216 0.0
C208 C 0.03231 0.13461 0.34142 0.0
H209 H 0.97915 0.20925 0.40187 0.0
H210 H 0.95919 0.13944 0.3629 0.0
C211 C 0.07915 0.15737 0.34097 0.0
C212 C 0.86292 0.07585 0.87183 0.0
C213 C 0.81232 0.06105 0.86988 0.0
H214 H 0.93074 0.07761 0.84433 0.0
C215 C 0.79069 0.03815 0.83661 0.0
H216 H 0.88086 0.09319 0.8972 0.0
C217 C 0.81925 0.02917 0.8064 0.0
C218 C 0.87022 0.04273 0.80873 0.0
H219 H 0.75164 0.02695 0.83395 0.0
H220 H 0.80145 0.01083 0.78145 0.0
C221 C 0.89158 0.06673 0.84159 0.0
C222 C 0.02633 0.79308 0.35157 0.0
C223 C 0.98527 0.79651 0.3732 0.0
H224 H 0.06933 0.82735 0.31157 0.0
C225 C 0.95214 0.83553 0.36757 0.0
H226 H 0.05225 0.76315 0.35543 0.0
C227 C 0.96229 0.87253 0.34301 0.0
C228 C 1.00518 0.87061 0.32319 0.0
H229 H 0.9203 0.83893 0.38404 0.0
H230 H 0.93775 0.90346 0.3408 0.0
C231 C 0.03586 0.82962 0.32637 0.0
loop_
_geom_bond_atom_site_label_1
_geom_bond_atom_site_label_2
_geom_bond_distance
_geom_bond_site_symmetry_2
_ccdc_geom_bond_type
H0 C27 0.929 . S
N1 C26 1.433 . S
N1 C32 1.435 1_554 S
N1 C38 1.424 . S
H2 C28 0.930 . S
H3 C31 0.931 . S
H4 C30 0.929 . S
H5 C33 0.930 . S
H6 C34 0.932 . S
H7 C37 0.929 . S
H8 C36 0.931 . S
H9 C39 0.929 . S
H10 C43 0.932 1_565 S
H11 C40 0.931 . S
H12 C42 0.921 1_565 S
H13 C45 0.929 . S
H14 C46 0.930 . S
H15 C48 0.929 . S
H16 C49 0.931 . S
H17 C51 0.930 . S
H18 C52 0.932 . S
H19 C54 0.931 . S
H20 C55 0.929 . S
H21 C57 0.929 . S
H22 C58 0.931 . S
H23 C60 0.921 1_565 S
N24 C44 1.452 . S
N24 C50 1.420 1_554 S
N24 C56 1.419 1_554 S
H25 C61 0.932 1_565 S
C26 N1 1.433 . S
C26 C27 1.363 . S
C26 C31 1.370 1_545 S
C27 H0 0.929 . S
C27 C26 1.363 . S
C27 C28 1.385 . S
C28 H2 0.930 . S
C28 C27 1.385 . S
C28 C29 1.357 . S
C29 C28 1.357 . S
C29 C30 1.406 1_545 S
C30 H4 0.929 . S
C30 C29 1.406 1_565 S
C30 C31 1.391 . S
C31 H3 0.931 . S
C31 C26 1.370 1_565 S
C31 C30 1.391 . S
C32 N1 1.435 1_556 S
C32 C33 1.358 1_545 S
C32 C37 1.371 . S
C33 H5 0.930 . S
C33 C32 1.358 1_565 S
C33 C34 1.405 . S
C34 H6 0.932 . S
C34 C33 1.405 . S
C34 C35 1.383 1_565 S
C35 C34 1.383 1_545 S
C35 C36 1.393 . S
C36 H8 0.931 . S
C36 C35 1.393 . S
C36 C37 1.382 . S
C37 H7 0.929 . S
C37 C32 1.371 . S
C37 C36 1.382 . S
C38 N1 1.424 . S
C38 C39 1.373 . S
C38 C43 1.378 1_554 S
C39 H9 0.929 . S
C39 C38 1.373 . S
C39 C40 1.376 . S
C40 H11 0.931 . S
C40 C39 1.376 . S
C40 C41 1.396 1_554 S
C41 C40 1.396 1_556 S
C41 C42 1.348 . S
C41 C59 1.472 . S
C42 H12 0.921 1_545 S
C42 C41 1.348 . S
C42 C43 1.443 . S
C43 H10 0.932 1_545 S
C43 C38 1.378 1_556 S
C43 C42 1.443 . S
C44 N24 1.452 . S
C44 C45 1.363 . S
C44 C49 1.370 1_545 S
C45 H13 0.929 . S
C45 C44 1.363 . S
C45 C46 1.385 . S
C46 H14 0.930 . S
C46 C45 1.385 . S
C46 C47 1.357 . S
C47 C46 1.357 . S
C47 C48 1.406 1_545 S
C48 H15 0.929 . S
C48 C47 1.406 1_565 S
C48 C49 1.391 . S
C49 H16 0.931 . S
C49 C44 1.370 1_565 S
C49 C48 1.391 . S
C50 N24 1.420 1_556 S
C50 C51 1.358 1_545 S
C50 C55 1.371 . S
C51 H17 0.930 . S
C51 C50 1.358 1_565 S
C51 C52 1.405 . S
C52 H18 0.932 . S
C52 C51 1.405 . S
C52 C53 1.383 1_565 S
C53 C52 1.383 1_545 S
C53 C54 1.393 . S
C54 H19 0.931 . S
C54 C53 1.393 . S
C54 C55 1.382 . S
C55 H20 0.929 . S
C55 C50 1.371 . S
C55 C54 1.382 . S
C56 N24 1.419 1_556 S
C56 C57 1.362 1_556 S
C56 C61 1.388 . S
C57 H21 0.929 . S
C57 C56 1.362 1_554 S
C57 C58 1.376 . S
C58 H22 0.931 . S
C58 C57 1.376 . S
C58 C59 1.396 1_554 S
C59 C41 1.472 . S
C59 C58 1.396 1_556 S
C59 C60 1.348 . S
C60 H23 0.921 1_545 S
C60 C59 1.348 . S
C60 C61 1.443 . S
C61 H25 0.932 1_545 S
C61 C56 1.388 . S
C61 C60 1.443 . S
H62 C89 0.929 . S
N63 C88 1.433 . S
N63 C94 1.435 . S
N63 C100 1.423 1_455 S
H64 C90 0.930 . S
H65 C93 0.931 . S
H66 C92 0.929 . S
H67 C95 0.930 . S
H68 C96 0.932 . S
H69 C99 0.929 . S
H70 C98 0.931 . S
H71 C101 0.929 . S
H72 C105 0.932 . S
H73 C102 0.931 . S
H74 C104 0.929 . S
H75 C107 0.929 . S
H76 C108 0.930 . S
H77 C110 0.929 . S
H78 C111 0.931 . S
H79 C113 0.930 . S
H80 C114 0.932 . S
H81 C116 0.931 . S
H82 C117 0.929 . S
H83 C119 0.929 . S
H84 C120 0.931 . S
H85 C122 0.929 . S
N86 C106 1.433 . S
N86 C112 1.435 . S
N86 C118 1.423 1_455 S
H87 C123 0.932 . S
C88 N63 1.433 . S
C88 C89 1.363 1_455 S
C88 C93 1.370 . S
C89 H62 0.929 . S
C89 C88 1.363 1_655 S
C89 C90 1.385 . S
C90 H64 0.930 . S
C90 C89 1.385 . S
C90 C91 1.357 1_655 S
C91 C90 1.357 1_455 S
C91 C92 1.406 . S
C92 H66 0.929 . S
C92 C91 1.406 . S
C92 C93 1.391 . S
C93 H65 0.931 . S
C93 C88 1.370 . S
C93 C92 1.391 . S
C94 N63 1.435 . S
C94 C95 1.358 . S
C94 C99 1.371 1_455 S
C95 H67 0.930 . S
C95 C94 1.358 . S
C95 C96 1.405 . S
C96 H68 0.932 . S
C96 C95 1.405 . S
C96 C97 1.383 . S
C97 C96 1.383 . S
C97 C98 1.393 1_455 S
C98 H70 0.931 . S
C98 C97 1.393 1_655 S
C98 C99 1.382 . S
C99 H69 0.929 . S
C99 C94 1.371 1_655 S
C99 C98 1.382 . S
C100 N63 1.423 1_655 S
C100 C101 1.362 . S
C100 C105 1.388 1_655 S
C101 H71 0.929 . S
C101 C100 1.362 . S
C101 C102 1.376 . S
C102 H73 0.931 . S
C102 C101 1.376 . S
C102 C103 1.396 . S
C103 C102 1.396 . S
C103 C104 1.348 1_655 S
C103 C121 1.472 . S
C104 H74 0.929 . S
C104 C103 1.348 1_455 S
C104 C105 1.443 . S
C105 H72 0.932 . S
C105 C100 1.388 1_455 S
C105 C104 1.443 . S
C106 N86 1.433 . S
C106 C107 1.363 1_455 S
C106 C111 1.370 . S
C107 H75 0.929 . S
C107 C106 1.363 1_655 S
C107 C108 1.385 . S
C108 H76 0.930 . S
C108 C107 1.385 . S
C108 C109 1.357 1_655 S
C109 C108 1.357 1_455 S
C109 C110 1.406 . S
C110 H77 0.929 . S
C110 C109 1.406 . S
C110 C111 1.391 . S
C111 H78 0.931 . S
C111 C106 1.370 . S
C111 C110 1.391 . S
C112 N86 1.435 . S
C112 C113 1.358 . S
C112 C117 1.371 1_455 S
C113 H79 0.930 . S
C113 C112 1.358 . S
C113 C114 1.405 . S
C114 H80 0.932 . S
C114 C113 1.405 . S
C114 C115 1.383 . S
C115 C114 1.383 . S
C115 C116 1.393 1_455 S
C116 H81 0.931 . S
C116 C115 1.393 1_655 S
C116 C117 1.382 . S
C117 H82 0.929 . S
C117 C112 1.371 1_655 S
C117 C116 1.382 . S
C118 N86 1.423 1_655 S
C118 C119 1.362 . S
C118 C123 1.388 1_655 S
C119 H83 0.929 . S
C119 C118 1.362 . S
C119 C120 1.376 . S
C120 H84 0.931 . S
C120 C119 1.376 . S
C120 C121 1.396 . S
C121 C103 1.472 . S
C121 C120 1.396 . S
C121 C122 1.348 1_655 S
C122 H85 0.929 . S
C122 C121 1.348 1_455 S
C122 C123 1.443 . S
C123 H87 0.932 . S
C123 C118 1.388 1_455 S
C123 C122 1.443 . S
Mg124 O125 2.028 . S
Mg124 O131 1.986 . S
Mg124 O133 2.114 1_545 S
Mg124 O134 2.251 1_545 S
Mg124 O137 2.010 . S
O125 Mg124 2.028 . S
O125 C128 1.250 1_455 S
O126 Mg127 2.028 . S
O126 C128 1.248 . S
Mg127 O126 2.028 . S
Mg127 O132 2.032 . S
Mg127 O134 2.079 1_645 S
C128 O125 1.250 1_655 S
C128 O126 1.248 . S
C129 O130 1.264 . S
C129 O137 1.249 . S
O130 C129 1.264 . S
O131 Mg124 1.986 . S
O131 C135 1.246 . S
O132 Mg127 2.032 . S
O132 C135 1.259 1_655 S
O133 Mg124 2.114 1_565 S
O133 C136 1.252 . S
O134 Mg124 2.251 1_565 S
O134 Mg127 2.079 1_465 S
O134 C136 1.273 . S
C135 O131 1.246 . S
C135 O132 1.259 1_455 S
C136 O133 1.252 . S
C136 O134 1.273 . S
O137 Mg124 2.010 . S
O137 C129 1.249 . S
Mg138 O139 2.028 1_655 S
Mg138 O145 1.986 . S
Mg138 O147 2.114 1_545 S
Mg138 O148 2.251 1_645 S
Mg138 O151 2.010 . S
O139 Mg138 2.028 1_455 S
O139 C142 1.250 . S
O140 Mg141 2.028 . S
O140 C142 1.248 . S
Mg141 O140 2.028 . S
Mg141 O146 2.032 . S
Mg141 O148 2.079 1_545 S
C142 O139 1.250 . S
C142 O140 1.248 . S
C143 O144 1.264 . S
C143 O151 1.249 . S
O144 C143 1.264 . S
O145 Mg138 1.986 . S
O145 C149 1.246 1_655 S
O146 Mg141 2.032 . S
O146 C149 1.259 . S
O147 Mg138 2.114 1_565 S
O147 C150 1.252 1_655 S
O148 Mg138 2.251 1_465 S
O148 Mg141 2.079 1_565 S
O148 C150 1.273 . S
C149 O145 1.246 1_455 S
C149 O146 1.259 . S
C150 O147 1.252 1_455 S
C150 O148 1.273 . S
O151 Mg138 2.010 . S
O151 C143 1.249 . S
C152 C153 1.387 1_565 S
C152 H156 0.950 . S
C152 C161 1.390 . S
C153 C152 1.387 1_545 S
C153 C155 1.387 . S
H154 C161 0.950 . S
C155 C153 1.387 . S
C155 C157 1.390 . S
C155 H159 0.950 . S
H156 C152 0.950 . S
C157 C155 1.390 . S
C157 C158 1.387 . S
C157 H160 0.950 . S
C158 C157 1.387 . S
C158 C161 1.387 1_545 S
H159 C155 0.950 . S
H160 C157 0.950 . S
C161 C152 1.390 . S
C161 H154 0.950 . S
C161 C158 1.387 1_565 S
C162 C163 1.387 . S
C162 H166 0.950 . S
C162 C171 1.390 . S
C163 C162 1.387 . S
C163 C165 1.387 1_455 S
H164 C171 0.950 . S
C165 C163 1.387 1_655 S
C165 C167 1.390 . S
C165 H169 0.950 . S
H166 C162 0.950 . S
C167 C165 1.390 . S
C167 C168 1.387 1_655 S
C167 H170 0.950 . S
C168 C167 1.387 1_455 S
C168 C171 1.387 . S
H169 C165 0.950 . S
H170 C167 0.950 . S
C171 C162 1.390 . S
C171 H164 0.950 . S
C171 C168 1.387 . S
C172 C173 1.387 1_565 S
C172 H176 0.950 . S
C172 C181 1.390 . S
C173 C172 1.387 1_545 S
C173 C175 1.387 . S
H174 C181 0.950 . S
C175 C173 1.387 . S
C175 C177 1.390 . S
C175 H179 0.950 . S
H176 C172 0.950 . S
C177 C175 1.390 . S
C177 C178 1.387 . S
C177 H180 0.950 . S
C178 C177 1.387 . S
C178 C181 1.387 1_545 S
H179 C175 0.950 . S
H180 C177 0.950 . S
C181 C172 1.390 . S
C181 H174 0.950 . S
C181 C178 1.387 1_565 S
C182 C183 1.387 . S
C182 H186 0.950 . S
C182 C191 1.390 . S
C183 C182 1.387 . S
C183 C185 1.387 1_455 S
H184 C191 0.950 . S
C185 C183 1.387 1_655 S
C185 C187 1.390 . S
C185 H189 0.950 . S
H186 C182 0.950 . S
C187 C185 1.390 . S
C187 C188 1.387 1_655 S
C187 H190 0.950 . S
C188 C187 1.387 1_455 S
C188 C191 1.387 . S
H189 C185 0.950 . S
H190 C187 0.950 . S
C191 C182 1.390 . S
C191 H184 0.950 . S
C191 C188 1.387 . S
C192 C193 1.387 . S
C192 H196 0.950 . S
C192 C201 1.390 . S
C193 C192 1.387 . S
C193 C195 1.387 1_545 S
H194 C201 0.950 . S
C195 C193 1.387 1_565 S
C195 C197 1.390 . S
C195 H199 0.950 . S
H196 C192 0.950 . S
C197 C195 1.390 . S
C197 C198 1.387 1_565 S
C197 H200 0.950 . S
C198 C197 1.387 1_545 S
C198 C201 1.387 . S
H199 C195 0.950 . S
H200 C197 0.950 . S
C201 C192 1.390 . S
C201 H194 0.950 . S
C201 C198 1.387 . S
C202 C203 1.387 . S
C202 H206 0.950 . S
C202 C211 1.390 . S
C203 C202 1.387 . S
C203 C205 1.387 1_455 S
H204 C211 0.950 . S
C205 C203 1.387 1_655 S
C205 C207 1.390 . S
C205 H209 0.950 . S
H206 C202 0.950 . S
C207 C205 1.390 . S
C207 C208 1.387 1_655 S
C207 H210 0.950 . S
C208 C207 1.387 1_455 S
C208 C211 1.387 . S
H209 C205 0.950 . S
H210 C207 0.950 . S
C211 C202 1.390 . S
C211 H204 0.950 . S
C211 C208 1.387 . S
C212 C213 1.387 . S
C212 H216 0.950 . S
C212 C221 1.390 . S
C213 C212 1.387 . S
C213 C215 1.387 1_545 S
H214 C221 0.950 . S
C215 C213 1.387 1_565 S
C215 C217 1.390 . S
C215 H219 0.950 . S
H216 C212 0.950 . S
C217 C215 1.390 . S
C217 C218 1.387 1_565 S
C217 H220 0.950 . S
C218 C217 1.387 1_545 S
C218 C221 1.387 . S
H219 C215 0.950 . S
H220 C217 0.950 . S
C221 C212 1.390 . S
C221 H214 0.950 . S
C221 C218 1.387 . S
C222 C223 1.387 . S
C222 H226 0.950 . S
C222 C231 1.390 . S
C223 C222 1.387 . S
C223 C225 1.387 1_455 S
H224 C231 0.950 . S
C225 C223 1.387 1_655 S
C225 C227 1.390 . S
C225 H229 0.950 . S
H226 C222 0.950 . S
C227 C225 1.390 . S
C227 C228 1.387 1_655 S
C227 H230 0.950 . S
C228 C227 1.387 1_455 S
C228 C231 1.387 . S
H229 C225 0.950 . S
H230 C227 0.950 . S
C231 C222 1.390 . S
C231 H224 0.950 . S
C231 C228 1.387 . S
C158 C129 1.384 . S
C153 C47 1.598 . S
C168 C149 1.713 . S
C163 C109 1.593 . S
C178 C128 1.652 . S
C173 C29 1.596 . S
C188 C150 1.732 . S
C183 C91 1.603 . S
C198 C142 1.423 . S
C193 C53 1.432 . S
C208 C135 1.381 . S
C203 C115 1.417 . S
C218 C143 1.275 . S
C213 C35 1.440 . S
C223 C97 1.426 . S
C228 C136 1.428 . S
