# Generated by pormake.
# Topology pts, (4,4)-cn, num edge types: 1
# Building blocks:
#     Node 0, Type 0, BuildingBlock: KUFVIS_clean_linker_0, # of connection points: 4
#     Node 1, Type 0, BuildingBlock: KUFVIS_clean_linker_0, # of connection points: 4
#     Node 2, Type 1, BuildingBlock: AZAVOO_clean_sbu_0, # of connection points: 4
#     Node 3, Type 1, BuildingBlock: AZAVOO_clean_sbu_0, # of connection points: 4
#     Edge 4, Type (0, 1), BuildingBlock: EZIPEK_clean_linker_0, # of connection points: 2
#     Edge 5, Type (0, 1), BuildingBlock: EZIPEK_clean_linker_0, # of connection points: 2
#     Edge 6, Type (0, 1), BuildingBlock: EZIPEK_clean_linker_0, # of connection points: 2
#     Edge 7, Type (0, 1), BuildingBlock: EZIPEK_clean_linker_0, # of connection points: 2
#     Edge 8, Type (0, 1), BuildingBlock: EZIPEK_clean_linker_0, # of connection points: 2
#     Edge 9, Type (0, 1), BuildingBlock: EZIPEK_clean_linker_0, # of connection points: 2
#     Edge 10, Type (0, 1), BuildingBlock: EZIPEK_clean_linker_0, # of connection points: 2
#     Edge 11, Type (0, 1), BuildingBlock: EZIPEK_clean_linker_0, # of connection points: 2
# Relax obj value: 0.013
# Max RMSD: 0.077
# Mean RMSD: 0.072
data_MOF--net-pts--node1-AZAVOO_clean_sbu_0--node2-KUFVIS_clean_linker_0--edge1-EZIPEK_clean_linker_0
_symmetry_space_group_name_H-M    P1
_symmetry_Int_Tables_number       1
_symmetry_cell_setting            triclinic
loop_
_symmetry_equiv_pos_as_xyz
'x, y, z'
_cell_length_a     18.051355
_cell_length_b     19.184313
_cell_length_c     26.299879
_cell_angle_alpha  89.465057
_cell_angle_beta   96.855082
_cell_angle_gamma 89.952432
loop_
_atom_site_label
_atom_site_type_symbol
_atom_site_fract_x
_atom_site_fract_y
_atom_site_fract_z
_atom_type_partial_charge
H0 H 0.2916 0.04055 -0.02278 0.0
H1 H 0.48135 0.029 0.89483 0.0
H2 H 0.50826 0.07845 0.05672 0.0
H3 H 0.61654 0.02928 0.05741 0.0
H4 H 0.80752 0.04184 -0.02369 0.0
H5 H 0.59091 0.07623 0.89451 0.0
C6 C 0.35138 0.04547 -0.02335 0.0
C7 C 0.39744 0.05877 0.02192 0.0
C8 C 0.3819 0.03707 0.93085 0.0
C9 C 0.45952 0.03992 0.93045 0.0
C10 C 0.50754 0.0544 -0.0243 0.0
C11 C 0.47468 0.06583 0.02119 0.0
C12 C 0.59108 0.05404 -0.02396 0.0
C13 C 0.6387 0.03993 0.02174 0.0
C14 C 0.71639 0.03775 0.02202 0.0
C15 C 0.74759 0.04612 -0.02369 0.0
C16 C 0.70188 0.05827 0.9304 0.0
C17 C 0.62436 0.06465 0.93048 0.0
H18 H 0.0564 0.76346 0.49222 0.0
H19 H 1.02368 0.56327 0.5592 0.0
H20 H 0.06687 0.58142 0.40083 0.0
H21 H 1.00374 0.48422 0.39187 0.0
H22 H 1.01812 0.28226 0.46104 0.0
H23 H 0.08118 0.45969 0.55382 0.0
C24 C 0.05422 0.70714 0.48884 0.0
C25 C 0.06128 0.67646 0.44179 0.0
C26 C 0.04209 0.66613 0.53116 0.0
C27 C 0.03654 0.59353 0.52644 0.0
C28 C 0.0453 0.56104 0.47949 0.0
C29 C 0.05847 0.60372 0.43731 0.0
C30 C 0.03871 0.48345 0.47439 0.0
C31 C 1.01609 0.45287 0.42621 0.0
C32 C 1.01203 0.38037 0.42151 0.0
C33 C 1.02273 0.33842 0.4652 0.0
C34 C 0.04812 0.3664 0.513 0.0
C35 C 0.05751 0.43887 0.51736 0.0
Mg36 Mg 0.10185 0.01401 0.25408 0.0
O37 O 0.99357 1.00225 0.19985 0.0
O38 O 0.90032 0.99398 0.24867 0.0
Mg39 Mg 0.95099 0.98627 0.33296 0.0
C40 C 0.92428 0.99802 0.20499 0.0
C41 C 0.23439 0.04614 0.19729 0.0
O42 O 0.26513 0.02467 0.24253 0.0
O43 O 0.06494 0.12398 0.27212 0.0
O44 O 0.984 0.1021 0.32854 0.0
O45 O 0.124 0.89917 0.25721 0.0
O46 O 0.05949 0.95497 0.3105 0.0
C47 C 1.02267 0.14447 0.30469 0.0
C48 C 0.08671 0.89729 0.29628 0.0
O49 O 0.16382 0.05131 0.18874 0.0
Mg50 Mg 0.99243 1.00157 0.69791 0.0
O51 O 0.10112 1.00306 0.75361 0.0
O52 O 0.19601 0.9695 0.71192 0.0
Mg53 Mg 0.1485 0.95195 0.62923 0.0
C54 C 0.17007 0.98929 0.75234 0.0
C55 C 0.85991 0.04293 0.75218 0.0
O56 O 0.82911 0.01305 0.71013 0.0
O57 O 1.02386 0.10412 0.6609 0.0
O58 O 0.12197 0.06937 0.62362 0.0
O59 O 0.97573 0.88814 0.71264 0.0
O60 O 0.03627 0.92999 0.65071 0.0
C61 C 0.0769 0.11711 0.63401 0.0
C62 C 1.01118 0.87692 0.67354 0.0
O63 O 0.93004 0.05266 0.75815 0.0
C64 C 0.32955 0.11973 0.08685 0.0
C65 C 0.364 0.0586 0.07073 0.0
C66 C 0.31195 0.98961 0.13672 0.0
C67 C 0.28018 0.05121 0.15442 0.0
N68 N 0.26733 0.17621 0.15244 0.0
N69 N 0.39976 0.93817 0.08505 0.0
C70 C 0.29144 0.11679 0.13122 0.0
C71 C 0.35917 0.99449 0.0974 0.0
N72 N 0.3318 0.17999 0.05892 0.0
N73 N 0.2935 0.92593 0.15542 0.0
H74 H 0.43309 0.93884 0.05528 0.0
H75 H 0.40538 0.89248 0.10685 0.0
H76 H 0.25818 0.91971 0.18374 0.0
H77 H 0.30772 0.87876 0.13986 0.0
H78 H 0.30071 0.22425 0.06487 0.0
H79 H 0.36212 0.18459 0.02766 0.0
H80 H 0.28023 0.22622 0.14065 0.0
H81 H 0.23871 0.17562 0.18465 0.0
C82 C 0.03769 0.30875 0.59962 0.0
C83 C 0.07403 0.31605 0.55497 0.0
C84 C 0.11455 0.19559 0.56276 0.0
C85 C 0.08222 0.18766 0.60951 0.0
N86 N 0.03957 0.24866 0.68108 0.0
N87 N 0.17408 0.27637 0.50964 0.0
C88 C 0.05222 0.24807 0.63096 0.0
C89 C 0.12359 0.26329 0.54322 0.0
N90 N 0.98713 0.35727 0.61108 0.0
N91 N 0.1281 0.13995 0.53307 0.0
H92 H 0.18056 0.3261 0.49426 0.0
H93 H 0.21376 0.23966 0.50179 0.0
H94 H 0.10828 0.08991 0.53861 0.0
H95 H 0.14773 0.1459 0.49755 0.0
H96 H 0.95381 0.35003 0.64046 0.0
H97 H 0.97509 0.40227 0.58915 0.0
H98 H 1.02202 0.29321 0.69869 0.0
H99 H 0.05615 0.20799 0.70649 0.0
C100 C 0.79971 0.08584 0.0962 0.0
C101 C 0.76623 0.02705 0.07056 0.0
C102 C 0.83095 0.94911 0.13591 0.0
C103 C 0.8694 1.00743 0.15893 0.0
N104 N 0.89674 0.13062 0.15907 0.0
N105 N 0.75418 0.90255 0.06184 0.0
C106 C 0.85554 0.07566 0.1385 0.0
C107 C 0.78272 0.95854 0.0894 0.0
N108 N 0.77658 0.15146 0.08078 0.0
N109 N 0.84014 0.88493 0.15879 0.0
H110 H 0.71737 0.90761 0.02827 0.0
H111 H 0.77042 0.85125 0.07017 0.0
H112 H 0.87733 0.87578 0.19161 0.0
H113 H 0.80776 0.84171 0.14735 0.0
H114 H 0.79245 0.19635 0.10115 0.0
H115 H 0.73651 0.16096 0.04949 0.0
H116 H 0.89582 0.18003 0.14233 0.0
H117 H 0.93595 0.12607 0.19141 0.0
C118 C 0.95906 0.72594 0.58663 0.0
C119 C 0.03122 0.70173 0.57948 0.0
C120 C 0.08779 0.77746 0.64778 0.0
C121 C 1.01647 0.80661 0.65142 0.0
N122 N 0.88232 0.7962 0.63599 0.0
N123 N 0.16143 0.68962 0.61007 0.0
C124 C 0.95134 0.77613 0.62508 0.0
C125 C 0.09474 0.72237 0.61277 0.0
N126 N 0.89865 0.70423 0.55429 0.0
N127 N 0.14863 0.80412 0.677 0.0
H128 H 0.16719 0.64905 0.58467 0.0
H129 H 0.20962 0.69878 0.63491 0.0
H130 H 0.14348 0.84058 0.70553 0.0
H131 H 0.20359 0.79126 0.673 0.0
H132 H 0.8458 0.72643 0.55252 0.0
H133 H 0.90211 0.66537 0.52719 0.0
H134 H 0.83305 0.77137 0.62176 0.0
H135 H 0.87409 0.83416 0.66277 0.0
C136 C 0.30421 0.95572 0.87269 0.0
C137 C 0.3311 0.02415 0.88332 0.0
C138 C 0.25452 0.06904 0.80675 0.0
C139 C 0.22345 1.00161 0.79838 0.0
N140 N 0.21022 0.88266 0.82585 0.0
N141 N 0.3266 0.14759 0.86507 0.0
C142 C 0.24602 0.94535 0.83202 0.0
C143 C 0.30495 0.08133 0.85152 0.0
N144 N 0.3354 0.90068 0.90099 0.0
N145 N 0.23699 0.12089 0.77125 0.0
H146 H 0.36528 0.15848 0.89671 0.0
H147 H 0.30284 0.19219 0.84708 0.0
H148 H 0.19833 0.11457 0.73883 0.0
H149 H 0.26416 0.16876 0.77195 0.0
H150 H 0.32391 0.84876 0.89207 0.0
H151 H 0.37751 0.90665 0.93143 0.0
H152 H 0.21853 0.84151 0.85197 0.0
H153 H 0.16744 0.87348 0.79638 0.0
C154 C 0.94378 0.31083 0.35108 0.0
C155 C 1.01 0.34452 0.37166 0.0
C156 C 0.08582 0.2567 0.33539 0.0
C157 C 1.01958 0.21956 0.31776 0.0
N158 N 0.8866 0.2231 0.29317 0.0
N159 N 0.13991 0.36615 0.36677 0.0
C160 C 0.94872 0.25099 0.32014 0.0
C161 C 0.07943 0.32355 0.35708 0.0
N162 N 0.87692 0.33383 0.36382 0.0
N163 N 0.15445 0.22611 0.3364 0.0
H164 H 0.13626 0.41494 0.38348 0.0
H165 H 0.19094 0.35645 0.35338 0.0
H166 H 0.16304 0.17638 0.32284 0.0
H167 H 0.20311 0.24798 0.3548 0.0
H168 H 0.82699 0.30689 0.35532 0.0
H169 H 0.87263 0.37936 0.38476 0.0
H170 H 0.83414 0.2464 0.29035 0.0
H171 H 0.88927 0.17994 0.26958 0.0
C172 C 0.74315 0.99194 0.85759 0.0
C173 C 0.73576 0.05695 0.88168 0.0
C174 C 0.80358 0.11473 0.81755 0.0
C175 C 0.81695 0.04865 0.79658 0.0
N176 N 0.81205 0.92299 0.80263 0.0
N177 N 0.76345 0.1795 0.88847 0.0
C178 C 0.78971 0.98685 0.81797 0.0
C179 C 0.76713 0.11831 0.86266 0.0
N180 N 0.70549 0.9349 0.87256 0.0
N181 N 0.82398 0.17395 0.7935 0.0
H182 H 0.73459 0.18432 0.92036 0.0
H183 H 0.79231 0.22436 0.88022 0.0
H184 H 0.85132 0.17291 0.76073 0.0
H185 H 0.80924 0.22394 0.80365 0.0
H186 H 0.70165 0.88824 0.85251 0.0
H187 H 0.67264 0.93574 0.90259 0.0
H188 H 0.80096 0.87641 0.82087 0.0
H189 H 0.84805 0.9165 0.77484 0.0
C190 C 0.13959 0.74352 0.38609 0.0
C191 C 0.06795 0.72242 0.39688 0.0
C192 C 1.00961 0.80417 0.33177 0.0
C193 C 0.08086 0.8324 0.32658 0.0
N194 N 0.21413 0.83343 0.35182 0.0
N195 N 0.93399 0.73218 0.38164 0.0
C196 C 0.14623 0.80256 0.35386 0.0
C197 C 1.00262 0.75214 0.36976 0.0
N198 N 0.20121 0.7073 0.40703 0.0
N199 N 0.94904 0.82617 0.29948 0.0
H200 H 0.92666 0.69181 0.40742 0.0
H201 H 0.88459 0.75774 0.36805 0.0
H202 H 0.95317 0.86354 0.27095 0.0
H203 H 0.89649 0.80341 0.29777 0.0
H204 H 0.25441 0.71531 0.39658 0.0
H205 H 0.19813 0.66479 0.43172 0.0
H206 H 0.26221 0.81922 0.37552 0.0
H207 H 0.22188 0.8771 0.32921 0.0
loop_
_geom_bond_atom_site_label_1
_geom_bond_atom_site_label_2
_geom_bond_distance
_geom_bond_site_symmetry_2
_ccdc_geom_bond_type
H0 C6 0.928 1_565 S
H1 C9 0.931 . S
H2 C11 0.932 . S
H3 C13 0.930 . S
H4 C15 0.930 . S
H5 C17 0.931 . S
C6 H0 0.928 1_545 S
C6 C7 1.367 1_546 S
C6 C8 1.409 . S
C7 C6 1.367 1_564 S
C7 C11 1.383 . S
C8 C6 1.409 . S
C8 C9 1.400 . S
C9 H1 0.931 . S
C9 C8 1.400 . S
C9 C10 1.359 1_556 S
C10 C9 1.359 1_554 S
C10 C11 1.432 1_545 S
C10 C12 1.499 . S
C11 H2 0.932 . S
C11 C7 1.383 . S
C11 C10 1.432 1_565 S
C12 C10 1.499 . S
C12 C13 1.384 . S
C12 C17 1.408 1_544 S
C13 H3 0.930 . S
C13 C12 1.384 . S
C13 C14 1.389 . S
C14 C13 1.389 . S
C14 C15 1.405 . S
C15 H4 0.930 . S
C15 C14 1.405 . S
C15 C16 1.363 1_544 S
C16 C15 1.363 1_566 S
C16 C17 1.400 . S
C17 H5 0.931 . S
C17 C12 1.408 1_566 S
C17 C16 1.400 . S
H18 C24 0.930 . S
H19 C27 0.931 1_655 S
H20 C29 0.931 . S
H21 C31 0.930 . S
H22 C33 0.930 . S
H23 C35 0.931 . S
C24 H18 0.930 . S
C24 C25 1.380 . S
C24 C26 1.394 . S
C25 C24 1.380 . S
C25 C29 1.382 . S
C26 C24 1.394 . S
C26 C27 1.400 . S
C27 H19 0.931 1_455 S
C27 C26 1.400 . S
C27 C28 1.375 . S
C28 C27 1.375 . S
C28 C29 1.415 . S
C28 C30 1.501 . S
C29 H20 0.931 . S
C29 C25 1.382 . S
C29 C28 1.415 . S
C30 C28 1.501 . S
C30 C31 1.384 . S
C30 C35 1.408 . S
C31 H21 0.930 . S
C31 C30 1.384 . S
C31 C32 1.389 . S
C32 C31 1.389 . S
C32 C33 1.405 . S
C33 H22 0.930 . S
C33 C32 1.405 . S
C33 C34 1.364 . S
C34 C33 1.364 . S
C34 C35 1.400 . S
C35 H23 0.931 . S
C35 C30 1.408 . S
C35 C34 1.400 . S
Mg36 O37 2.028 1_455 S
Mg36 O43 1.986 . S
Mg36 O45 2.114 1_545 S
Mg36 O46 2.251 1_545 S
Mg36 O49 2.010 . S
O37 Mg36 2.028 1_655 S
O37 C40 1.250 . S
O38 Mg39 2.028 . S
O38 C40 1.248 . S
Mg39 O38 2.028 . S
Mg39 O44 2.032 . S
Mg39 O46 2.079 1_645 S
C40 O37 1.250 . S
C40 O38 1.248 . S
C41 O42 1.264 . S
C41 O49 1.249 . S
O42 C41 1.264 . S
O43 Mg36 1.986 . S
O43 C47 1.246 . S
O44 Mg39 2.032 . S
O44 C47 1.259 1_655 S
O45 Mg36 2.114 1_565 S
O45 C48 1.252 . S
O46 Mg36 2.251 1_565 S
O46 Mg39 2.079 1_465 S
O46 C48 1.273 . S
C47 O43 1.246 . S
C47 O44 1.259 1_455 S
C48 O45 1.252 . S
C48 O46 1.273 . S
O49 Mg36 2.010 . S
O49 C41 1.249 . S
Mg50 O51 2.028 1_655 S
Mg50 O57 1.986 . S
Mg50 O59 2.114 1_545 S
Mg50 O60 2.251 1_645 S
Mg50 O63 2.010 . S
O51 Mg50 2.028 1_455 S
O51 C54 1.250 . S
O52 Mg53 2.028 . S
O52 C54 1.248 . S
Mg53 O52 2.028 . S
Mg53 O58 2.032 . S
Mg53 O60 2.079 1_545 S
C54 O51 1.250 . S
C54 O52 1.248 . S
C55 O56 1.264 . S
C55 O63 1.249 . S
O56 C55 1.264 . S
O57 Mg50 1.986 . S
O57 C61 1.246 1_655 S
O58 Mg53 2.032 . S
O58 C61 1.259 . S
O59 Mg50 2.114 1_565 S
O59 C62 1.252 1_655 S
O60 Mg50 2.251 1_465 S
O60 Mg53 2.079 1_565 S
O60 C62 1.273 . S
C61 O57 1.246 1_455 S
C61 O58 1.259 . S
C62 O59 1.252 1_455 S
C62 O60 1.273 . S
O63 Mg50 2.010 . S
O63 C55 1.249 . S
C64 C65 1.363 1_545 S
C64 C70 1.379 . S
C64 N72 1.356 . S
C65 C64 1.363 1_565 S
C65 C71 1.363 . S
C66 C67 1.363 1_565 S
C66 C71 1.379 . S
C66 N73 1.356 . S
C67 C66 1.363 1_545 S
C67 C70 1.363 . S
N68 C70 1.356 . S
N68 H80 0.984 . S
N68 H81 0.985 . S
N69 C71 1.356 . S
N69 H74 0.984 . S
N69 H75 0.985 . S
C70 C64 1.379 . S
C70 C67 1.363 . S
C70 N68 1.356 . S
C71 C65 1.363 . S
C71 C66 1.379 . S
C71 N69 1.356 . S
N72 C64 1.356 . S
N72 H78 0.984 . S
N72 H79 0.984 . S
N73 C66 1.356 . S
N73 H76 0.984 . S
N73 H77 0.985 . S
H74 N69 0.984 . S
H75 N69 0.985 . S
H76 N73 0.984 . S
H77 N73 0.985 . S
H78 N72 0.984 . S
H79 N72 0.984 . S
H80 N68 0.984 . S
H81 N68 0.985 . S
C82 C83 1.363 . S
C82 C88 1.379 . S
C82 N90 1.356 . S
C83 C82 1.363 . S
C83 C89 1.363 . S
C84 C85 1.363 . S
C84 C89 1.379 . S
C84 N91 1.356 . S
C85 C84 1.363 . S
C85 C88 1.363 . S
N86 C88 1.356 1_655 S
N86 H98 0.984 . S
N86 H99 0.985 . S
N87 C89 1.356 . S
N87 H92 0.984 . S
N87 H93 0.985 . S
C88 C82 1.379 . S
C88 C85 1.363 . S
C88 N86 1.356 1_455 S
C89 C83 1.363 . S
C89 C84 1.379 . S
C89 N87 1.356 . S
N90 C82 1.356 . S
N90 H96 0.984 1_455 S
N90 H97 0.984 . S
N91 C84 1.356 . S
N91 H94 0.984 . S
N91 H95 0.985 . S
H92 N87 0.984 . S
H93 N87 0.985 . S
H94 N91 0.984 . S
H95 N91 0.985 . S
H96 N90 0.984 1_655 S
H97 N90 0.984 . S
H98 N86 0.984 . S
H99 N86 0.985 . S
C100 C101 1.363 . S
C100 C106 1.379 . S
C100 N108 1.356 . S
C101 C100 1.363 . S
C101 C107 1.363 1_545 S
C102 C103 1.363 1_565 S
C102 C107 1.379 . S
C102 N109 1.356 . S
C103 C102 1.363 1_545 S
C103 C106 1.363 . S
N104 C106 1.356 . S
N104 H116 0.984 . S
N104 H117 0.985 . S
N105 C107 1.356 . S
N105 H110 0.984 . S
N105 H111 0.985 . S
C106 C100 1.379 . S
C106 C103 1.363 . S
C106 N104 1.356 . S
C107 C101 1.363 1_565 S
C107 C102 1.379 . S
C107 N105 1.356 . S
N108 C100 1.356 . S
N108 H114 0.984 . S
N108 H115 0.984 . S
N109 C102 1.356 . S
N109 H112 0.984 . S
N109 H113 0.985 . S
H110 N105 0.984 . S
H111 N105 0.985 . S
H112 N109 0.984 . S
H113 N109 0.985 . S
H114 N108 0.984 . S
H115 N108 0.984 . S
H116 N104 0.984 . S
H117 N104 0.985 . S
C118 C119 1.363 1_655 S
C118 C124 1.379 . S
C118 N126 1.356 . S
C119 C118 1.363 1_455 S
C119 C125 1.363 . S
C120 C121 1.363 . S
C120 C125 1.379 . S
C120 N127 1.356 . S
C121 C120 1.363 . S
C121 C124 1.363 1_455 S
N122 C124 1.356 . S
N122 H134 0.984 . S
N122 H135 0.985 . S
N123 C125 1.356 . S
N123 H128 0.984 . S
N123 H129 0.985 . S
C124 C118 1.379 . S
C124 C121 1.363 1_655 S
C124 N122 1.356 . S
C125 C119 1.363 . S
C125 C120 1.379 . S
C125 N123 1.356 . S
N126 C118 1.356 . S
N126 H132 0.984 . S
N126 H133 0.984 . S
N127 C120 1.356 . S
N127 H130 0.984 . S
N127 H131 0.985 . S
H128 N123 0.984 . S
H129 N123 0.985 . S
H130 N127 0.984 . S
H131 N127 0.985 . S
H132 N126 0.984 . S
H133 N126 0.984 . S
H134 N122 0.984 . S
H135 N122 0.985 . S
C136 C137 1.363 1_565 S
C136 C142 1.379 . S
C136 N144 1.356 . S
C137 C136 1.363 1_545 S
C137 C143 1.363 . S
C138 C139 1.363 . S
C138 C143 1.379 . S
C138 N145 1.356 . S
C139 C138 1.363 . S
C139 C142 1.363 1_545 S
N140 C142 1.356 . S
N140 H152 0.984 . S
N140 H153 0.985 . S
N141 C143 1.356 . S
N141 H146 0.984 . S
N141 H147 0.985 . S
C142 C136 1.379 . S
C142 C139 1.363 1_565 S
C142 N140 1.356 . S
C143 C137 1.363 . S
C143 C138 1.379 . S
C143 N141 1.356 . S
N144 C136 1.356 . S
N144 H150 0.984 . S
N144 H151 0.984 . S
N145 C138 1.356 . S
N145 H148 0.984 . S
N145 H149 0.985 . S
H146 N141 0.984 . S
H147 N141 0.985 . S
H148 N145 0.984 . S
H149 N145 0.985 . S
H150 N144 0.984 . S
H151 N144 0.984 . S
H152 N140 0.984 . S
H153 N140 0.985 . S
C154 C155 1.363 1_655 S
C154 C160 1.379 . S
C154 N162 1.356 . S
C155 C154 1.363 1_455 S
C155 C161 1.363 . S
C156 C157 1.363 . S
C156 C161 1.379 . S
C156 N163 1.356 . S
C157 C156 1.363 . S
C157 C160 1.363 1_455 S
N158 C160 1.356 . S
N158 H170 0.984 . S
N158 H171 0.985 . S
N159 C161 1.356 . S
N159 H164 0.984 . S
N159 H165 0.985 . S
C160 C154 1.379 . S
C160 C157 1.363 1_655 S
C160 N158 1.356 . S
C161 C155 1.363 . S
C161 C156 1.379 . S
C161 N159 1.356 . S
N162 C154 1.356 . S
N162 H168 0.984 . S
N162 H169 0.984 . S
N163 C156 1.356 . S
N163 H166 0.984 . S
N163 H167 0.985 . S
H164 N159 0.984 . S
H165 N159 0.985 . S
H166 N163 0.984 . S
H167 N163 0.985 . S
H168 N162 0.984 . S
H169 N162 0.984 . S
H170 N158 0.984 . S
H171 N158 0.985 . S
C172 C173 1.363 . S
C172 C178 1.379 . S
C172 N180 1.356 . S
C173 C172 1.363 . S
C173 C179 1.363 1_565 S
C174 C175 1.363 . S
C174 C179 1.379 . S
C174 N181 1.356 . S
C175 C174 1.363 . S
C175 C178 1.363 1_545 S
N176 C178 1.356 . S
N176 H188 0.984 . S
N176 H189 0.985 . S
N177 C179 1.356 . S
N177 H182 0.984 . S
N177 H183 0.985 . S
C178 C172 1.379 . S
C178 C175 1.363 1_565 S
C178 N176 1.356 . S
C179 C173 1.363 1_545 S
C179 C174 1.379 . S
C179 N177 1.356 . S
N180 C172 1.356 . S
N180 H186 0.984 . S
N180 H187 0.984 . S
N181 C174 1.356 . S
N181 H184 0.984 . S
N181 H185 0.985 . S
H182 N177 0.984 . S
H183 N177 0.985 . S
H184 N181 0.984 . S
H185 N181 0.985 . S
H186 N180 0.984 . S
H187 N180 0.984 . S
H188 N176 0.984 . S
H189 N176 0.985 . S
C190 C191 1.363 . S
C190 C196 1.379 . S
C190 N198 1.356 . S
C191 C190 1.363 . S
C191 C197 1.363 1_455 S
C192 C193 1.363 1_655 S
C192 C197 1.379 . S
C192 N199 1.356 . S
C193 C192 1.363 1_455 S
C193 C196 1.363 . S
N194 C196 1.356 . S
N194 H206 0.984 . S
N194 H207 0.985 . S
N195 C197 1.356 . S
N195 H200 0.984 . S
N195 H201 0.985 . S
C196 C190 1.379 . S
C196 C193 1.363 . S
C196 N194 1.356 . S
C197 C191 1.363 1_655 S
C197 C192 1.379 . S
C197 N195 1.356 . S
N198 C190 1.356 . S
N198 H204 0.984 . S
N198 H205 0.984 . S
N199 C192 1.356 . S
N199 H202 0.984 . S
N199 H203 0.985 . S
H200 N195 0.984 . S
H201 N195 0.985 . S
H202 N199 0.984 . S
H203 N199 0.985 . S
H204 N198 0.984 . S
H205 N198 0.984 . S
H206 N194 0.984 . S
H207 N194 0.985 . S
C67 C41 1.268 . S
C65 C7 1.497 . S
C85 C61 1.506 . S
C83 C34 1.482 . S
C103 C40 1.485 . S
C101 C14 1.495 . S
C121 C62 1.536 . S
C119 C26 1.494 . S
C139 C54 1.478 . S
C137 C8 1.490 . S
C157 C47 1.512 . S
C155 C32 1.493 . S
C175 C55 1.267 . S
C173 C16 1.493 . S
C191 C25 1.492 . S
C193 C48 1.542 . S
