# Generated by pormake.
# Topology anh, (6,3)-cn, num edge types: 1
# Building blocks:
#     Node 0, Type 0, BuildingBlock: INOVEN_clean_sbu_0, # of connection points: 6
#     Node 1, Type 0, BuildingBlock: INOVEN_clean_sbu_0, # of connection points: 6
#     Node 2, Type 0, BuildingBlock: INOVEN_clean_sbu_0, # of connection points: 6
#     Node 3, Type 1, BuildingBlock: BETDAH_clean_linker_0, # of connection points: 3
#     Node 4, Type 1, BuildingBlock: BETDAH_clean_linker_0, # of connection points: 3
#     Node 5, Type 1, BuildingBlock: BETDAH_clean_linker_0, # of connection points: 3
#     Node 6, Type 1, BuildingBlock: BETDAH_clean_linker_0, # of connection points: 3
#     Node 7, Type 1, BuildingBlock: BETDAH_clean_linker_0, # of connection points: 3
#     Node 8, Type 1, BuildingBlock: BETDAH_clean_linker_0, # of connection points: 3
#     Edge 9, Type (0, 1), None
#     Edge 10, Type (0, 1), None
#     Edge 11, Type (0, 1), None
#     Edge 12, Type (0, 1), None
#     Edge 13, Type (0, 1), None
#     Edge 14, Type (0, 1), None
#     Edge 15, Type (0, 1), None
#     Edge 16, Type (0, 1), None
#     Edge 17, Type (0, 1), None
#     Edge 18, Type (0, 1), None
#     Edge 19, Type (0, 1), None
#     Edge 20, Type (0, 1), None
#     Edge 21, Type (0, 1), None
#     Edge 22, Type (0, 1), None
#     Edge 23, Type (0, 1), None
#     Edge 24, Type (0, 1), None
#     Edge 25, Type (0, 1), None
#     Edge 26, Type (0, 1), None
# Relax obj value: 0.384
# Max RMSD: 0.308
# Mean RMSD: 0.153
data_MOF--net-anh--node1-INOVEN_clean_sbu_0--node2-BETDAH_clean_linker_0--edge1-none
_symmetry_space_group_name_H-M    P1
_symmetry_Int_Tables_number       1
_symmetry_cell_setting            triclinic
loop_
_symmetry_equiv_pos_as_xyz
'x, y, z'
_cell_length_a     14.357662
_cell_length_b     20.183272
_cell_length_c     21.709302
_cell_angle_alpha  93.505668
_cell_angle_beta   90.605231
_cell_angle_gamma 138.31101
loop_
_atom_site_label
_atom_site_type_symbol
_atom_site_fract_x
_atom_site_fract_y
_atom_site_fract_z
_atom_type_partial_charge
Gd0 Gd 0.45854 0.68961 0.15606 0.0
Gd1 Gd 0.22708 0.64955 0.1788 0.0
C2 C 0.52554 0.88095 0.17355 0.0
C3 C 0.69911 0.76183 0.14576 0.0
C4 C 0.75887 0.74206 0.18512 0.0
C5 C 0.70361 0.71183 0.24334 0.0
C6 C 0.78119 0.69262 0.1541 0.0
C7 C 0.58921 0.54908 0.20615 0.0
C8 C 0.69395 0.59365 0.16498 0.0
C9 C 0.6099 0.61105 0.25234 0.0
C10 C 0.38844 0.66044 0.27624 0.0
C11 C 1.16646 0.46061 0.16031 0.0
C12 C 1.01678 0.59714 0.22166 0.0
C13 C 0.87006 0.50039 0.20422 0.0
C14 C 0.76018 0.47868 0.22702 0.0
C15 C 0.83919 0.43225 0.15876 0.0
C16 C 0.60602 0.35197 0.13935 0.0
C17 C 0.70814 0.35927 0.12533 0.0
C18 C 0.6259 0.40032 0.19653 0.0
C19 C 1.2221 0.60476 0.0556 0.0
O20 O 0.55637 0.8418 0.14271 0.0
O21 O 0.40233 0.82039 0.19735 0.0
O22 O 0.58573 0.68353 0.10996 0.0
O23 O 0.68493 0.81204 0.17476 0.0
O24 O 0.41453 0.61943 0.24626 0.0
O25 O 0.40119 0.71338 0.24139 0.0
O26 O 1.13881 0.50048 0.19335 0.0
O27 O 0.28205 0.51964 0.13029 0.0
O28 O 1.08359 0.65637 0.17707 0.0
O29 O 1.08856 0.59066 0.25197 0.0
O30 O 1.11553 0.55575 0.08747 0.0
O31 O 0.33111 0.68155 0.08937 0.0
H32 H 0.70009 0.75516 0.27281 0.0
H33 H 0.83534 0.71868 0.11212 0.0
H34 H 0.68935 0.54853 0.13248 0.0
H35 H 0.53764 0.57946 0.28806 0.0
H36 H 0.77977 0.52648 0.26476 0.0
H37 H 0.91915 0.44089 0.14501 0.0
H38 H 0.69385 0.31899 0.08378 0.0
H39 H 0.54494 0.38976 0.21241 0.0
Gd40 Gd 0.92017 0.12672 0.46729 0.0
Gd41 Gd 0.70588 0.11125 0.46799 0.0
C42 C 0.59682 0.90704 0.45448 0.0
C43 C 1.07404 0.10542 0.48671 0.0
C44 C 1.05221 1.02808 0.51031 0.0
C45 C 1.08139 0.98663 0.47338 0.0
C46 C 1.00194 0.99438 0.56876 0.0
C47 C 1.01604 0.8823 0.55338 0.0
C48 C 0.98435 0.9219 0.59022 0.0
C49 C 1.06319 0.91403 0.49477 0.0
C50 C 0.84708 0.13329 0.35299 0.0
C51 C 1.03862 0.33445 0.47219 0.0
C52 C 0.55178 0.1341 0.45822 0.0
C53 C 0.58317 0.21971 0.48182 0.0
C54 C 0.48658 0.2044 0.51563 0.0
C55 C 0.71737 0.3179 0.47802 0.0
C56 C 0.66318 0.38435 0.54611 0.0
C57 C 0.75755 0.39877 0.51039 0.0
C58 C 0.52549 0.28597 0.54688 0.0
C59 C 0.76778 0.09745 0.58183 0.0
O60 O 0.72353 0.96188 0.48019 0.0
O61 O 0.57003 0.95174 0.43331 0.0
O62 O 1.00843 0.08099 0.43292 0.0
O63 O 1.07141 0.15531 0.52643 0.0
O64 O 0.9752 0.19062 0.37467 0.0
O65 O 0.76405 0.0741 0.39209 0.0
O66 O 0.90457 0.27978 0.46456 0.0
O67 O 1.07578 0.29259 0.48032 0.0
O68 O 0.54002 0.08599 0.50099 0.0
O69 O 0.62574 0.14949 0.41396 0.0
O70 O 0.64276 1.0404 0.5563 0.0
O71 O 0.85715 0.1603 0.54499 0.0
H72 H 1.11951 1.01114 0.42816 0.0
H73 H 0.97709 1.02424 0.59801 0.0
H74 H 0.9476 0.89767 0.63565 0.0
H75 H 1.08795 0.88376 0.46588 0.0
H76 H 0.38276 0.12919 0.51963 0.0
H77 H 0.7942 0.33257 0.45207 0.0
H78 H 0.86537 0.47206 0.5093 0.0
H79 H 0.44848 0.27138 0.57274 0.0
Gd80 Gd 0.812 0.63763 0.88039 0.0
Gd81 Gd 0.60202 0.42254 0.84717 0.0
C82 C 0.48507 0.51725 0.86309 0.0
C83 C 1.00483 0.82823 0.8725 0.0
C84 C 1.0012 0.89648 0.85556 0.0
C85 C 0.93532 0.91141 0.89072 0.0
C86 C 1.05658 0.94235 0.80036 0.0
C87 C 0.98261 1.01743 0.81618 0.0
C88 C 1.0476 1.00239 0.78091 0.0
C89 C 0.9265 0.97172 0.87119 0.0
C90 C 0.66285 0.52158 0.9737 0.0
C91 C 0.93679 0.54892 0.87856 0.0
C92 C 0.45932 0.23738 0.83266 0.0
C93 C 0.50889 0.19497 0.82254 0.0
C94 C 0.44414 0.12048 0.77333 0.0
C95 C 0.63655 0.24201 0.8522 0.0
C96 C 0.64418 0.15142 0.77713 0.0
C97 C 0.7043 0.22125 0.82936 0.0
C98 C 0.50992 0.0979 0.75141 0.0
C99 C 0.67878 0.52502 0.74834 0.0
O100 O 0.61917 0.60267 0.8559 0.0
O101 O 0.45311 0.43565 0.86828 0.0
O102 O 0.95993 0.78989 0.92561 0.0
O103 O 0.96261 0.76298 0.82719 0.0
O104 O 0.69288 0.59916 0.96607 0.0
O105 O 0.71703 0.51341 0.93406 0.0
O106 O 0.80779 0.46497 0.85188 0.0
O107 O 0.95952 0.62477 0.89876 0.0
O108 O 0.48059 0.28595 0.78736 0.0
O109 O 0.49038 0.28436 0.88715 0.0
O110 O 0.55009 0.44398 0.75831 0.0
O111 O 0.75935 0.54946 0.79313 0.0
H112 H 0.88986 0.87612 0.93297 0.0
H113 H 1.10569 0.93076 0.77182 0.0
H114 H 1.09233 1.0376 0.73853 0.0
H115 H 0.8767 0.98315 0.89926 0.0
H116 H 0.34688 0.08426 0.74915 0.0
H117 H 0.68864 0.29948 0.89058 0.0
H118 H 0.80746 0.26441 0.85044 0.0
H119 H 0.45798 1.04147 0.71235 0.0
H120 H 0.60782 0.95947 0.29128 0.0
H121 H 0.9914 0.26622 0.26564 0.0
H122 H 0.71775 0.04893 0.10727 0.0
C123 C 0.67686 1.01747 0.26069 0.0
C124 C 0.64439 0.99108 0.19639 0.0
C125 C 0.8042 0.11484 0.28588 0.0
C126 C 0.89444 0.19099 0.24622 0.0
C127 C 0.86179 0.16931 0.1815 0.0
C128 C 0.73918 0.06786 0.157 0.0
N129 N 0.95309 0.24532 0.13982 0.0
C130 C 1.06182 0.35063 0.15402 0.0
H131 H 0.58132 0.3839 0.65937 0.0
H132 H 0.88526 0.70227 0.69973 0.0
H133 H 0.86476 0.58233 0.52383 0.0
C134 C 0.6614 0.45792 0.64376 0.0
C135 C 0.71278 0.47091 0.58554 0.0
C136 C 0.72157 0.54082 0.68478 0.0
C137 C 0.83403 0.63773 0.66749 0.0
C138 C 0.88446 0.65157 0.6093 0.0
C139 C 0.82297 0.5689 0.56842 0.0
N140 N 1.00799 0.74857 0.59434 0.0
C141 C 1.00672 0.81241 0.57615 0.0
H142 H 1.06372 0.60465 -0.00887 0.0
H143 H 0.32931 0.5743 0.97089 0.0
H144 H 1.06608 0.49899 0.8129 0.0
C145 C 1.10409 0.58736 0.96067 0.0
C146 C 1.04991 0.55387 0.89813 0.0
C147 C 1.20187 0.59367 -0.01319 0.0
C148 C 0.25703 0.57088 0.9496 0.0
C149 C 1.21181 0.53661 0.88633 0.0
C150 C 1.10486 0.52673 0.86114 0.0
N151 N 0.26434 0.50721 0.84841 0.0
C152 C 0.37091 0.51155 0.85558 0.0
H153 H 0.55019 0.83594 0.33944 0.0
H154 H 0.25149 0.52347 0.36363 0.0
H155 H 0.43332 0.74168 0.52141 0.0
C156 C 0.48896 0.77642 0.36951 0.0
C157 C 0.50197 0.8005 0.43275 0.0
C158 C 0.40076 0.67785 0.34423 0.0
C159 C 0.322 0.60016 0.38335 0.0
C160 C 0.33207 0.62262 0.44786 0.0
C161 C 0.42451 0.72361 0.47213 0.0
N162 N 0.25067 0.54728 0.4899 0.0
C163 C 1.14688 0.44319 0.47565 0.0
H164 H 0.64706 0.12274 0.654 0.0
H165 H 0.94541 0.12188 0.66168 0.0
H166 H 0.83026 0.16137 0.83032 0.0
C167 C 0.7142 0.12584 0.68119 0.0
C168 C 0.72523 0.14046 0.74616 0.0
C169 C 0.79191 0.11843 0.65018 0.0
C170 C 0.88382 0.12655 0.68492 0.0
C171 C 0.89642 0.1414 0.75014 0.0
C172 C 0.81815 0.14895 0.78022 0.0
N173 N 0.9986 0.16007 0.78581 0.0
C174 C 0.9828 0.08537 0.79816 0.0
H175 H 0.68285 0.41675 0.02511 0.0
H176 H 0.45389 0.47688 0.03196 0.0
H177 H 0.34333 0.25977 0.14137 0.0
C178 C 0.59078 0.39464 0.03868 0.0
C179 C 0.51884 0.33505 0.08801 0.0
C180 C 0.56573 0.44459 0.0166 0.0
C181 C 0.46166 0.42913 0.04203 0.0
C182 C 0.38109 0.36169 0.08741 0.0
C183 C 0.39752 0.30448 0.10282 0.0
N184 N 0.34084 0.38491 0.13527 0.0
C185 C 0.44814 0.45868 0.18083 0.0
loop_
_geom_bond_atom_site_label_1
_geom_bond_atom_site_label_2
_geom_bond_distance
_geom_bond_site_symmetry_2
_ccdc_geom_bond_type
Gd0 C3 2.818 . S
Gd0 O20 2.377 . S
Gd0 O22 2.448 . S
Gd0 O23 2.506 . S
Gd0 O24 2.435 . S
Gd0 O25 2.717 . S
Gd0 O27 2.395 1_455 S
Gd0 O31 2.327 . S
Gd1 C12 2.818 . S
Gd1 O21 2.395 1_655 S
Gd1 O25 2.327 1_655 S
Gd1 O26 2.377 . S
Gd1 O28 2.448 . S
Gd1 O29 2.506 . S
Gd1 O30 2.435 . S
Gd1 O31 2.717 1_655 S
C2 O20 1.240 . S
C2 O21 1.240 . S
C3 Gd0 2.818 . S
C3 C4 1.510 . S
C3 O22 1.249 . S
C3 O23 1.252 . S
C4 C3 1.510 . S
C4 C5 1.404 . S
C4 C6 1.352 . S
C5 C4 1.404 . S
C5 C9 1.389 . S
C5 H32 0.930 . S
C6 C4 1.352 . S
C6 C8 1.374 . S
C6 H33 0.931 . S
C7 C8 1.359 . S
C7 C9 1.364 . S
C8 C6 1.374 . S
C8 C7 1.359 . S
C8 H34 0.931 . S
C9 C5 1.389 . S
C9 C7 1.364 . S
C9 H35 0.931 . S
C10 O24 1.256 . S
C10 O25 1.257 . S
C11 O26 1.240 . S
C11 O27 1.240 . S
C12 Gd1 2.818 . S
C12 C13 1.510 . S
C12 O28 1.249 . S
C12 O29 1.252 . S
C13 C12 1.510 . S
C13 C14 1.404 . S
C13 C15 1.352 . S
C14 C13 1.404 . S
C14 C18 1.389 . S
C14 H36 0.930 . S
C15 C13 1.352 . S
C15 C17 1.374 . S
C15 H37 0.931 . S
C16 C17 1.359 . S
C16 C18 1.364 . S
C17 C15 1.374 . S
C17 C16 1.359 . S
C17 H38 0.931 . S
C18 C14 1.389 . S
C18 C16 1.364 . S
C18 H39 0.931 . S
C19 O30 1.256 1_455 S
C19 O31 1.257 . S
O20 Gd0 2.377 . S
O20 C2 1.240 . S
O21 Gd1 2.395 1_455 S
O21 C2 1.240 . S
O22 Gd0 2.448 . S
O22 C3 1.249 . S
O23 Gd0 2.506 . S
O23 C3 1.252 . S
O24 Gd0 2.435 . S
O24 C10 1.256 . S
O25 Gd0 2.717 . S
O25 Gd1 2.327 1_455 S
O25 C10 1.257 . S
O26 Gd1 2.377 . S
O26 C11 1.240 . S
O27 Gd0 2.395 1_655 S
O27 C11 1.240 . S
O28 Gd1 2.448 . S
O28 C12 1.249 . S
O29 Gd1 2.506 . S
O29 C12 1.252 . S
O30 Gd1 2.435 . S
O30 C19 1.256 1_655 S
O31 Gd0 2.327 . S
O31 Gd1 2.717 1_455 S
O31 C19 1.257 . S
H32 C5 0.930 . S
H33 C6 0.931 . S
H34 C8 0.931 . S
H35 C9 0.931 . S
H36 C14 0.930 . S
H37 C15 0.931 . S
H38 C17 0.931 . S
H39 C18 0.931 . S
Gd40 C43 2.818 1_545 S
Gd40 O60 2.377 1_545 S
Gd40 O62 2.448 1_545 S
Gd40 O63 2.506 1_545 S
Gd40 O64 2.435 1_545 S
Gd40 O65 2.717 . S
Gd40 O67 2.395 . S
Gd40 O71 2.327 . S
Gd41 C52 2.818 . S
Gd41 O61 2.395 1_545 S
Gd41 O65 2.327 . S
Gd41 O66 2.377 . S
Gd41 O68 2.448 . S
Gd41 O69 2.506 . S
Gd41 O70 2.435 . S
Gd41 O71 2.717 . S
C42 O60 1.240 . S
C42 O61 1.240 . S
C43 Gd40 2.818 1_565 S
C43 C44 1.510 . S
C43 O62 1.249 . S
C43 O63 1.252 . S
C44 C43 1.510 . S
C44 C45 1.404 . S
C44 C46 1.352 . S
C45 C44 1.404 . S
C45 C49 1.389 . S
C45 H72 0.930 . S
C46 C44 1.352 . S
C46 C48 1.374 . S
C46 H73 0.931 . S
C47 C48 1.359 . S
C47 C49 1.364 . S
C48 C46 1.374 . S
C48 C47 1.359 . S
C48 H74 0.931 . S
C49 C45 1.389 . S
C49 C47 1.364 . S
C49 H75 0.931 . S
C50 O64 1.256 1_545 S
C50 O65 1.257 . S
C51 O66 1.240 . S
C51 O67 1.240 . S
C52 Gd41 2.818 . S
C52 C53 1.510 . S
C52 O68 1.249 . S
C52 O69 1.252 . S
C53 C52 1.510 . S
C53 C54 1.404 . S
C53 C55 1.352 . S
C54 C53 1.404 . S
C54 C58 1.389 . S
C54 H76 0.930 . S
C55 C53 1.352 . S
C55 C57 1.374 . S
C55 H77 0.931 . S
C56 C57 1.359 . S
C56 C58 1.364 . S
C57 C55 1.374 . S
C57 C56 1.359 . S
C57 H78 0.931 . S
C58 C54 1.389 . S
C58 C56 1.364 . S
C58 H79 0.931 . S
C59 O70 1.256 . S
C59 O71 1.257 . S
O60 Gd40 2.377 1_565 S
O60 C42 1.240 . S
O61 Gd41 2.395 1_565 S
O61 C42 1.240 . S
O62 Gd40 2.448 1_565 S
O62 C43 1.249 . S
O63 Gd40 2.506 1_565 S
O63 C43 1.252 . S
O64 Gd40 2.435 1_565 S
O64 C50 1.256 1_565 S
O65 Gd40 2.717 . S
O65 Gd41 2.327 . S
O65 C50 1.257 . S
O66 Gd41 2.377 . S
O66 C51 1.240 . S
O67 Gd40 2.395 . S
O67 C51 1.240 . S
O68 Gd41 2.448 . S
O68 C52 1.249 . S
O69 Gd41 2.506 . S
O69 C52 1.252 . S
O70 Gd41 2.435 . S
O70 C59 1.256 . S
O71 Gd40 2.327 . S
O71 Gd41 2.717 . S
O71 C59 1.257 . S
H72 C45 0.930 . S
H73 C46 0.931 . S
H74 C48 0.931 . S
H75 C49 0.931 . S
H76 C54 0.930 . S
H77 C55 0.931 . S
H78 C57 0.931 . S
H79 C58 0.931 . S
Gd80 C83 2.818 . S
Gd80 O100 2.377 . S
Gd80 O102 2.448 . S
Gd80 O103 2.506 . S
Gd80 O104 2.435 1_556 S
Gd80 O105 2.717 . S
Gd80 O107 2.395 . S
Gd80 O111 2.327 . S
Gd81 C92 2.818 . S
Gd81 O101 2.395 . S
Gd81 O105 2.327 . S
Gd81 O106 2.377 . S
Gd81 O108 2.448 . S
Gd81 O109 2.506 . S
Gd81 O110 2.435 . S
Gd81 O111 2.717 . S
C82 O100 1.240 . S
C82 O101 1.240 . S
C83 Gd80 2.818 . S
C83 C84 1.510 . S
C83 O102 1.249 . S
C83 O103 1.252 . S
C84 C83 1.510 . S
C84 C85 1.404 . S
C84 C86 1.352 . S
C85 C84 1.404 . S
C85 C89 1.389 . S
C85 H112 0.930 1_556 S
C86 C84 1.352 . S
C86 C88 1.374 . S
C86 H113 0.931 . S
C87 C88 1.359 . S
C87 C89 1.364 . S
C88 C86 1.374 . S
C88 C87 1.359 . S
C88 H114 0.931 . S
C89 C85 1.389 . S
C89 C87 1.364 . S
C89 H115 0.931 1_566 S
C90 O104 1.256 . S
C90 O105 1.257 1_554 S
C91 O106 1.240 . S
C91 O107 1.240 . S
C92 Gd81 2.818 . S
C92 C93 1.510 . S
C92 O108 1.249 . S
C92 O109 1.252 . S
C93 C92 1.510 . S
C93 C94 1.404 . S
C93 C95 1.352 . S
C94 C93 1.404 . S
C94 C98 1.389 . S
C94 H116 0.930 . S
C95 C93 1.352 . S
C95 C97 1.374 . S
C95 H117 0.931 . S
C96 C97 1.359 . S
C96 C98 1.364 . S
C97 C95 1.374 . S
C97 C96 1.359 . S
C97 H118 0.931 . S
C98 C94 1.389 . S
C98 C96 1.364 . S
C98 H119 0.931 . S
C99 O110 1.256 . S
C99 O111 1.257 . S
O100 Gd80 2.377 . S
O100 C82 1.240 . S
O101 Gd81 2.395 . S
O101 C82 1.240 . S
O102 Gd80 2.448 . S
O102 C83 1.249 . S
O103 Gd80 2.506 . S
O103 C83 1.252 . S
O104 Gd80 2.435 1_554 S
O104 C90 1.256 . S
O105 Gd80 2.717 . S
O105 Gd81 2.327 . S
O105 C90 1.257 1_556 S
O106 Gd81 2.377 . S
O106 C91 1.240 . S
O107 Gd80 2.395 . S
O107 C91 1.240 . S
O108 Gd81 2.448 . S
O108 C92 1.249 . S
O109 Gd81 2.506 . S
O109 C92 1.252 . S
O110 Gd81 2.435 . S
O110 C99 1.256 . S
O111 Gd80 2.327 . S
O111 Gd81 2.717 . S
O111 C99 1.257 . S
H112 C85 0.930 1_554 S
H113 C86 0.931 . S
H114 C88 0.931 . S
H115 C89 0.931 1_544 S
H116 C94 0.930 . S
H117 C95 0.931 . S
H118 C97 0.931 . S
H119 C98 0.931 . S
H120 C123 0.929 . S
H121 C126 0.929 . S
H122 C128 0.930 . S
C123 H120 0.929 . S
C123 C124 1.398 . S
C123 C125 1.396 1_565 S
C124 C123 1.398 . S
C124 C128 1.407 . S
C125 C123 1.396 1_545 S
C125 C126 1.394 . S
C126 H121 0.929 . S
C126 C125 1.394 . S
C126 C127 1.382 . S
C127 C126 1.382 . S
C127 C128 1.392 1_545 S
C127 N129 1.420 . S
C128 H122 0.930 . S
C128 C124 1.407 . S
C128 C127 1.392 1_565 S
N129 C127 1.420 . S
N129 C130 1.244 . S
C130 N129 1.244 . S
H131 C134 0.929 . S
H132 C137 0.929 . S
H133 C139 0.930 . S
C134 H131 0.929 . S
C134 C135 1.398 . S
C134 C136 1.396 . S
C135 C134 1.398 . S
C135 C139 1.407 . S
C136 C134 1.396 . S
C136 C137 1.394 . S
C137 H132 0.929 . S
C137 C136 1.394 . S
C137 C138 1.382 . S
C138 C137 1.382 . S
C138 C139 1.392 . S
C138 N140 1.420 . S
C139 H133 0.930 . S
C139 C135 1.407 . S
C139 C138 1.392 . S
N140 C138 1.420 . S
N140 C141 1.244 . S
C141 N140 1.244 . S
H142 C145 0.929 1_654 S
H143 C148 0.929 . S
H144 C150 0.930 . S
C145 H142 0.929 1_456 S
C145 C146 1.398 1_455 S
C145 C147 1.396 1_556 S
C146 C145 1.398 1_655 S
C146 C150 1.407 1_655 S
C147 C145 1.396 1_554 S
C147 C148 1.394 1_554 S
C148 H143 0.929 . S
C148 C147 1.394 1_556 S
C148 C149 1.382 . S
C149 C148 1.382 . S
C149 C150 1.392 . S
C149 N151 1.420 . S
C150 H144 0.930 . S
C150 C146 1.407 1_455 S
C150 C149 1.392 . S
N151 C149 1.420 . S
N151 C152 1.244 . S
C152 N151 1.244 . S
H153 C156 0.929 . S
H154 C159 0.929 . S
H155 C161 0.930 . S
C156 H153 0.929 . S
C156 C157 1.398 . S
C156 C158 1.396 . S
C157 C156 1.398 . S
C157 C161 1.407 . S
C158 C156 1.396 . S
C158 C159 1.394 1_455 S
C159 H154 0.929 . S
C159 C158 1.394 1_655 S
C159 C160 1.382 . S
C160 C159 1.382 . S
C160 C161 1.392 1_655 S
C160 N162 1.420 . S
C161 H155 0.930 . S
C161 C157 1.407 . S
C161 C160 1.392 1_455 S
N162 C160 1.420 . S
N162 C163 1.244 . S
C163 N162 1.244 . S
H164 C167 0.929 . S
H165 C170 0.929 1_565 S
H166 C172 0.930 . S
C167 H164 0.929 . S
C167 C168 1.398 . S
C167 C169 1.396 . S
C168 C167 1.398 . S
C168 C172 1.407 . S
C169 C167 1.396 . S
C169 C170 1.394 . S
C170 H165 0.929 1_545 S
C170 C169 1.394 . S
C170 C171 1.382 . S
C171 C170 1.382 . S
C171 C172 1.392 . S
C171 N173 1.420 . S
C172 H166 0.930 . S
C172 C168 1.407 . S
C172 C171 1.392 . S
N173 C171 1.420 . S
N173 C174 1.244 1_545 S
C174 N173 1.244 1_565 S
H175 C178 0.929 1_556 S
H176 C181 0.929 1_556 S
H177 C183 0.930 . S
C178 H175 0.929 1_554 S
C178 C179 1.398 . S
C178 C180 1.396 1_554 S
C179 C178 1.398 . S
C179 C183 1.407 . S
C180 C178 1.396 1_556 S
C180 C181 1.394 1_556 S
C181 H176 0.929 1_554 S
C181 C180 1.394 1_554 S
C181 C182 1.382 . S
C182 C181 1.382 . S
C182 C183 1.392 . S
C182 N184 1.420 . S
C183 H177 0.930 . S
C183 C179 1.407 . S
C183 C182 1.392 . S
N184 C182 1.420 . S
N184 C185 1.244 . S
C185 N184 1.244 . S
C7 C185 4.700 . S
C51 C163 2.379 . S
C87 C174 3.422 . S
C16 C179 3.157 . S
C157 C42 2.407 . S
C168 C96 1.824 . S
C47 C141 2.275 . S
C91 C146 4.736 . S
C2 C124 2.660 . S
C135 C56 2.411 . S
C152 C82 4.709 . S
C11 C130 2.495 . S
C147 C19 1.925 . S
C50 C125 1.096 . S
C99 C136 1.402 . S
C169 C59 1.295 . S
C180 C90 1.860 1_556 S
C10 C158 1.024 . S
