# Generated by pormake.
# Topology rtl, (3,6)-cn, num edge types: 1
# Building blocks:
#     Node 0, Type 0, BuildingBlock: CUQRIR_clean_linker_1, # of connection points: 3
#     Node 1, Type 0, BuildingBlock: CUQRIR_clean_linker_1, # of connection points: 3
#     Node 2, Type 0, BuildingBlock: CUQRIR_clean_linker_1, # of connection points: 3
#     Node 3, Type 0, BuildingBlock: CUQRIR_clean_linker_1, # of connection points: 3
#     Node 4, Type 1, BuildingBlock: VOLQOD_clean_sbu_1, # of connection points: 6
#     Node 5, Type 1, BuildingBlock: VOLQOD_clean_sbu_1, # of connection points: 6
#     Edge 6, Type (0, 1), BuildingBlock: EYOCIG_clean_linker_4, # of connection points: 2
#     Edge 7, Type (0, 1), BuildingBlock: EYOCIG_clean_linker_4, # of connection points: 2
#     Edge 8, Type (0, 1), BuildingBlock: EYOCIG_clean_linker_4, # of connection points: 2
#     Edge 9, Type (0, 1), BuildingBlock: EYOCIG_clean_linker_4, # of connection points: 2
#     Edge 10, Type (0, 1), BuildingBlock: EYOCIG_clean_linker_4, # of connection points: 2
#     Edge 11, Type (0, 1), BuildingBlock: EYOCIG_clean_linker_4, # of connection points: 2
#     Edge 12, Type (0, 1), BuildingBlock: EYOCIG_clean_linker_4, # of connection points: 2
#     Edge 13, Type (0, 1), BuildingBlock: EYOCIG_clean_linker_4, # of connection points: 2
#     Edge 14, Type (0, 1), BuildingBlock: EYOCIG_clean_linker_4, # of connection points: 2
#     Edge 15, Type (0, 1), BuildingBlock: EYOCIG_clean_linker_4, # of connection points: 2
#     Edge 16, Type (0, 1), BuildingBlock: EYOCIG_clean_linker_4, # of connection points: 2
#     Edge 17, Type (0, 1), BuildingBlock: EYOCIG_clean_linker_4, # of connection points: 2
# Relax obj value: 0.040
# Max RMSD: 0.143
# Mean RMSD: 0.101
data_MOF--net-rtl--node1-VOLQOD_clean_sbu_1--node2-CUQRIR_clean_linker_1--edge1-EYOCIG_clean_linker_4
_symmetry_space_group_name_H-M    P1
_symmetry_Int_Tables_number       1
_symmetry_cell_setting            triclinic
loop_
_symmetry_equiv_pos_as_xyz
'x, y, z'
_cell_length_a     27.793257
_cell_length_b     28.22055
_cell_length_c     15.746123
_cell_angle_alpha  89.972922
_cell_angle_beta   90.407887
_cell_angle_gamma 90.012969
loop_
_atom_site_label
_atom_site_type_symbol
_atom_site_fract_x
_atom_site_fract_y
_atom_site_fract_z
_atom_type_partial_charge
C0 C 0.21626 0.7777 0.93132 0.0
N1 N 0.18354 0.8097 0.95766 0.0
N2 N 0.23744 0.75657 -0.00119 0.0
C3 C 0.22763 0.76719 0.84008 0.0
C4 C 0.21694 0.77709 0.06707 0.0
N5 N 0.18441 0.80986 0.04188 0.0
C6 C 0.22837 0.76434 0.15764 0.0
H7 H 0.20506 0.73708 0.81831 0.0
H8 H 0.26599 0.75704 0.83335 0.0
H9 H 0.21977 0.79828 0.79905 0.0
H10 H 0.26449 0.77838 0.17441 0.0
H11 H 0.22973 0.72521 0.16453 0.0
H12 H 0.20148 0.77905 0.20216 0.0
C13 C 0.715 0.71051 0.56892 0.0
N14 N 0.6833 0.67739 0.542 0.0
N15 N 0.73586 0.73184 0.50172 0.0
C16 C 0.72615 0.7216 0.66026 0.0
C17 C 0.71621 0.71035 0.4332 0.0
N18 N 0.68464 0.67682 0.45787 0.0
C19 C 0.72764 0.72266 0.34269 0.0
H20 H 0.70384 0.7521 0.6805 0.0
H21 H 0.76458 0.73158 0.66791 0.0
H22 H 0.71799 0.69089 0.70179 0.0
H23 H 0.76361 0.70826 0.32686 0.0
H24 H 0.72918 0.76173 0.33511 0.0
H25 H 0.7006 0.70785 0.29782 0.0
C26 C 0.78099 0.21208 0.06487 0.0
N27 N 0.81209 0.17834 0.03948 0.0
N28 N 0.76119 0.23389 -0.00323 0.0
C29 C 0.77021 0.22391 0.1558 0.0
C30 C 0.78164 0.21267 0.92913 0.0
N31 N 0.8131 0.17913 0.95533 0.0
C32 C 0.76991 0.22426 0.83818 0.0
H33 H 0.73938 0.20208 0.17712 0.0
H34 H 0.76039 0.26184 0.1623 0.0
H35 H 0.80162 0.21594 0.19736 0.0
H36 H 0.78454 0.25981 0.82284 0.0
H37 H 0.73028 0.22586 0.82944 0.0
H38 H 0.78516 0.19778 0.79383 0.0
C39 C 0.28013 0.27651 0.42898 0.0
N40 N 0.31264 0.30887 0.45583 0.0
N41 N 0.25885 0.25564 0.49619 0.0
C42 C 0.2696 0.26478 0.33767 0.0
C43 C 0.27978 0.27593 0.56472 0.0
N44 N 0.31289 0.308 0.54003 0.0
C45 C 0.26745 0.26447 0.65522 0.0
H46 H 0.23855 0.2863 0.3156 0.0
H47 H 0.25998 0.22679 0.33094 0.0
H48 H 0.30098 0.27293 0.29696 0.0
H49 H 0.28229 0.22911 0.67153 0.0
H50 H 0.22778 0.26265 0.66227 0.0
H51 H 0.28228 0.29113 0.70007 0.0
O52 O 0.89081 0.94395 0.51492 0.0
Zn53 Zn 0.928 0.00512 0.50725 0.0
O54 O -0.00279 -0.00636 0.49832 0.0
Zn55 Zn 0.03065 0.01928 0.59761 0.0
Zn56 Zn 0.00804 0.92528 0.49036 0.0
Zn57 Zn 0.02256 0.0252 0.39787 0.0
O58 O 0.08199 0.06642 0.56583 0.0
O59 O 0.06844 0.078 0.42795 0.0
O60 O 0.91352 0.04429 0.61099 0.0
O61 O 0.98486 0.05344 0.67419 0.0
O62 O 0.05949 0.96704 0.66693 0.0
O63 O 0.04185 0.90101 0.59574 0.0
O64 O 0.04823 0.90977 0.38783 0.0
O65 O 0.90273 0.03856 0.40261 0.0
O66 O 0.05875 0.97954 0.32441 0.0
O67 O 0.96889 0.05134 0.32693 0.0
C68 C 0.90234 0.90134 0.4987 0.0
C69 C 0.09047 0.08803 0.49666 0.0
C70 C 0.06013 0.92223 0.65956 0.0
C71 C 0.9397 0.06029 0.67107 0.0
C72 C 0.06547 0.93505 0.3284 0.0
C73 C 0.92363 0.05392 0.33643 0.0
O74 O 0.94541 0.88934 0.48247 0.0
O75 O 0.60424 0.44418 0.98168 0.0
Zn76 Zn 0.56696 0.50523 0.98948 0.0
O77 O 0.49783 0.4936 -0.00097 0.0
Zn78 Zn 0.46418 0.51866 0.89951 0.0
Zn79 Zn 0.4872 0.42527 0.00811 0.0
Zn80 Zn 0.4726 0.52564 0.09904 0.0
O81 O 0.4123 0.56515 0.93086 0.0
O82 O 0.4261 0.57783 0.06833 0.0
O83 O 0.58106 0.54433 0.88549 0.0
O84 O 0.5096 0.55309 0.82255 0.0
O85 O 0.43574 0.46606 0.83081 0.0
O86 O 0.45301 0.40045 0.90356 0.0
O87 O 0.44762 0.41016 0.11152 0.0
O88 O 0.59245 0.53868 0.0939 0.0
O89 O 0.43702 0.4802 0.17381 0.0
O90 O 0.52635 0.55227 0.16922 0.0
C91 C 0.5929 0.40158 -0.00146 0.0
C92 C 0.40369 0.58705 -0.00038 0.0
C93 C 0.43491 0.42132 0.83919 0.0
C94 C 0.55473 0.56015 0.82544 0.0
C95 C 0.43056 0.43566 0.17075 0.0
C96 C 0.57163 0.55449 0.15978 0.0
O97 O 0.54995 0.38951 0.01558 0.0
C98 C 0.19199 0.19085 0.4953 0.0
C99 C 0.22287 0.22078 0.49539 0.0
C100 C 0.15627 0.1554 0.49562 0.0
C101 C 0.12622 0.12465 0.49599 0.0
C102 C 0.30232 0.68993 -0.00165 0.0
C103 C 0.27235 0.72071 -0.00167 0.0
C104 C 0.33751 0.654 -0.00106 0.0
C105 C 0.36775 0.62345 -0.00054 0.0
C106 C 0.80002 0.79925 0.50179 0.0
C107 C 0.77038 0.76812 0.50237 0.0
C108 C 0.83521 0.83522 0.50048 0.0
C109 C 0.86572 0.86554 0.49975 0.0
C110 C 0.69616 0.30046 -0.0033 0.0
C111 C 0.72619 0.26972 -0.0036 0.0
C112 C 0.66048 0.33595 -0.00258 0.0
C113 C 0.62969 0.36598 -0.00211 0.0
C114 C 0.13721 0.8652 0.1444 0.0
C115 C 0.15823 0.8404 0.09472 0.0
C116 C 0.11324 0.89177 0.20697 0.0
C117 C 0.09155 0.9123 0.26171 0.0
C118 C 0.62602 0.6298 0.64093 0.0
C119 C 0.65181 0.65104 0.59302 0.0
C120 C 0.59818 0.60614 0.70221 0.0
C121 C 0.57707 0.58532 0.75731 0.0
C122 C 0.85487 0.12037 0.14414 0.0
C123 C 0.83621 0.14601 0.09251 0.0
C124 C 0.87587 0.09444 0.21118 0.0
C125 C 0.89583 0.07561 0.27024 0.0
C126 C 0.36878 0.35295 0.64609 0.0
C127 C 0.34413 0.33336 0.59371 0.0
C128 C 0.39407 0.37428 0.71377 0.0
C129 C 0.41314 0.39397 0.77281 0.0
C130 C 0.64107 0.61989 0.35244 0.0
C131 C 0.66009 0.64506 0.40439 0.0
C132 C 0.61975 0.59444 0.28514 0.0
C133 C 0.59962 0.57586 0.22605 0.0
C134 C 0.86904 0.13066 0.85546 0.0
C135 C 0.84385 0.15231 0.90377 0.0
C136 C 0.89632 0.10663 0.79392 0.0
C137 C 0.91722 0.08563 0.73883 0.0
C138 C 0.35989 0.36543 0.3555 0.0
C139 C 0.33888 0.34009 0.40434 0.0
C140 C 0.38359 0.39246 0.29323 0.0
C141 C 0.40489 0.41311 0.23815 0.0
C142 C 0.12669 0.8547 0.85327 0.0
C143 C 0.15172 0.83516 0.90517 0.0
C144 C 0.1011 0.87578 0.78565 0.0
C145 C 0.08197 0.89522 0.72637 0.0
loop_
_geom_bond_atom_site_label_1
_geom_bond_atom_site_label_2
_geom_bond_distance
_geom_bond_site_symmetry_2
_ccdc_geom_bond_type
C0 N1 1.317 . S
C0 N2 1.348 1_556 S
C0 C3 1.485 . S
N1 C0 1.317 . S
N1 N5 1.370 1_556 S
N2 C0 1.348 1_554 S
N2 C4 1.346 . S
C3 C0 1.485 . S
C3 H7 0.960 . S
C3 H8 0.961 . S
C3 H9 0.960 . S
C4 N2 1.346 . S
C4 N5 1.307 . S
C4 C6 1.486 . S
N5 N1 1.370 1_554 S
N5 C4 1.307 . S
C6 C4 1.486 . S
C6 H10 0.960 . S
C6 H11 0.960 . S
C6 H12 0.959 . S
H7 C3 0.960 . S
H8 C3 0.961 . S
H9 C3 0.960 . S
H10 C6 0.960 . S
H11 C6 0.960 . S
H12 C6 0.959 . S
C13 N14 1.317 . S
C13 N15 1.348 . S
C13 C16 1.485 . S
N14 C13 1.317 . S
N14 N18 1.370 . S
N15 C13 1.348 . S
N15 C17 1.346 . S
C16 C13 1.485 . S
C16 H20 0.960 . S
C16 H21 0.961 . S
C16 H22 0.960 . S
C17 N15 1.346 . S
C17 N18 1.307 . S
C17 C19 1.486 . S
N18 N14 1.370 . S
N18 C17 1.307 . S
C19 C17 1.486 . S
C19 H23 0.960 . S
C19 H24 0.960 . S
C19 H25 0.959 . S
H20 C16 0.960 . S
H21 C16 0.961 . S
H22 C16 0.960 . S
H23 C19 0.960 . S
H24 C19 0.960 . S
H25 C19 0.959 . S
C26 N27 1.317 . S
C26 N28 1.348 . S
C26 C29 1.485 . S
N27 C26 1.317 . S
N27 N31 1.370 1_554 S
N28 C26 1.348 . S
N28 C30 1.346 1_554 S
C29 C26 1.485 . S
C29 H33 0.960 . S
C29 H34 0.961 . S
C29 H35 0.960 . S
C30 N28 1.346 1_556 S
C30 N31 1.307 . S
C30 C32 1.486 . S
N31 N27 1.370 1_556 S
N31 C30 1.307 . S
C32 C30 1.486 . S
C32 H36 0.960 . S
C32 H37 0.960 . S
C32 H38 0.959 . S
H33 C29 0.960 . S
H34 C29 0.961 . S
H35 C29 0.960 . S
H36 C32 0.960 . S
H37 C32 0.960 . S
H38 C32 0.959 . S
C39 N40 1.317 . S
C39 N41 1.348 . S
C39 C42 1.485 . S
N40 C39 1.317 . S
N40 N44 1.370 . S
N41 C39 1.348 . S
N41 C43 1.346 . S
C42 C39 1.485 . S
C42 H46 0.960 . S
C42 H47 0.961 . S
C42 H48 0.960 . S
C43 N41 1.346 . S
C43 N44 1.307 . S
C43 C45 1.486 . S
N44 N40 1.370 . S
N44 C43 1.307 . S
C45 C43 1.486 . S
C45 H49 0.960 . S
C45 H50 0.960 . S
C45 H51 0.959 . S
H46 C42 0.960 . S
H47 C42 0.961 . S
H48 C42 0.960 . S
H49 C45 0.960 . S
H50 C45 0.960 . S
H51 C45 0.959 . S
O52 Zn53 1.953 1_565 S
O52 C68 1.225 . S
Zn53 O52 1.953 1_545 S
Zn53 O54 1.949 1_655 S
Zn53 O60 1.919 . S
Zn53 O65 1.924 . S
O54 Zn53 1.949 1_455 S
O54 Zn55 1.923 . S
O54 Zn56 1.950 1_545 S
O54 Zn57 1.945 . S
Zn55 O54 1.923 . S
Zn55 O58 1.933 . S
Zn55 O61 1.941 1_455 S
Zn55 O62 1.965 1_545 S
Zn56 O54 1.950 1_565 S
Zn56 O63 1.938 . S
Zn56 O64 1.906 . S
Zn56 O74 1.953 1_455 S
Zn57 O54 1.945 . S
Zn57 O59 1.932 . S
Zn57 O66 1.977 1_545 S
Zn57 O67 1.910 1_455 S
O58 Zn55 1.933 . S
O58 C69 1.226 . S
O59 Zn57 1.932 . S
O59 C69 1.307 . S
O60 Zn53 1.919 . S
O60 C71 1.253 . S
O61 Zn55 1.941 1_655 S
O61 C71 1.283 . S
O62 Zn55 1.965 1_565 S
O62 C70 1.303 . S
O63 Zn56 1.938 . S
O63 C70 1.247 . S
O64 Zn56 1.906 . S
O64 C72 1.304 . S
O65 Zn53 1.924 . S
O65 C73 1.311 . S
O66 Zn57 1.977 1_565 S
O66 C72 1.272 . S
O67 Zn57 1.910 1_655 S
O67 C73 1.231 . S
C68 O52 1.225 . S
C68 O74 1.298 . S
C69 O58 1.226 . S
C69 O59 1.307 . S
C70 O62 1.303 . S
C70 O63 1.247 . S
C71 O60 1.253 . S
C71 O61 1.283 . S
C72 O64 1.304 . S
C72 O66 1.272 . S
C73 O65 1.311 . S
C73 O67 1.231 . S
O74 Zn56 1.953 1_655 S
O74 C68 1.298 . S
O75 Zn76 1.953 . S
O75 C91 1.226 1_556 S
Zn76 O75 1.953 . S
Zn76 O77 1.949 1_556 S
Zn76 O83 1.919 . S
Zn76 O88 1.924 1_556 S
O77 Zn76 1.949 1_554 S
O77 Zn78 1.923 1_554 S
O77 Zn79 1.950 . S
O77 Zn80 1.945 . S
Zn78 O77 1.923 1_556 S
Zn78 O81 1.933 . S
Zn78 O84 1.941 . S
Zn78 O85 1.965 . S
Zn79 O77 1.950 . S
Zn79 O86 1.938 1_554 S
Zn79 O87 1.906 . S
Zn79 O97 1.953 . S
Zn80 O77 1.945 . S
Zn80 O82 1.932 . S
Zn80 O89 1.977 . S
Zn80 O90 1.910 . S
O81 Zn78 1.933 . S
O81 C92 1.226 1_556 S
O82 Zn80 1.932 . S
O82 C92 1.307 . S
O83 Zn76 1.919 . S
O83 C94 1.253 . S
O84 Zn78 1.941 . S
O84 C94 1.283 . S
O85 Zn78 1.965 . S
O85 C93 1.303 . S
O86 Zn79 1.938 1_556 S
O86 C93 1.247 . S
O87 Zn79 1.906 . S
O87 C95 1.304 . S
O88 Zn76 1.924 1_554 S
O88 C96 1.311 . S
O89 Zn80 1.977 . S
O89 C95 1.272 . S
O90 Zn80 1.910 . S
O90 C96 1.231 . S
C91 O75 1.226 1_554 S
C91 O97 1.298 . S
C92 O81 1.226 1_554 S
C92 O82 1.307 . S
C93 O85 1.303 . S
C93 O86 1.247 . S
C94 O83 1.253 . S
C94 O84 1.283 . S
C95 O87 1.304 . S
C95 O89 1.272 . S
C96 O88 1.311 . S
C96 O90 1.231 . S
O97 Zn79 1.953 . S
O97 C91 1.298 . S
C98 C99 1.170 . S
C98 C100 1.380 . S
C99 C98 1.170 . S
C100 C98 1.380 . S
C100 C101 1.170 . S
C101 C100 1.170 . S
C102 C103 1.170 . S
C102 C104 1.380 . S
C103 C102 1.170 . S
C104 C102 1.380 . S
C104 C105 1.170 1_556 S
C105 C104 1.170 1_554 S
C106 C107 1.170 . S
C106 C108 1.380 . S
C107 C106 1.170 . S
C108 C106 1.380 . S
C108 C109 1.170 . S
C109 C108 1.170 . S
C110 C111 1.170 . S
C110 C112 1.380 . S
C111 C110 1.170 . S
C112 C110 1.380 . S
C112 C113 1.170 . S
C113 C112 1.170 . S
C114 C115 1.170 . S
C114 C116 1.380 . S
C115 C114 1.170 . S
C116 C114 1.380 . S
C116 C117 1.170 . S
C117 C116 1.170 . S
C118 C119 1.170 . S
C118 C120 1.380 . S
C119 C118 1.170 . S
C120 C118 1.380 . S
C120 C121 1.170 . S
C121 C120 1.170 . S
C122 C123 1.170 . S
C122 C124 1.380 . S
C123 C122 1.170 . S
C124 C122 1.380 . S
C124 C125 1.170 . S
C125 C124 1.170 . S
C126 C127 1.170 . S
C126 C128 1.380 . S
C127 C126 1.170 . S
C128 C126 1.380 . S
C128 C129 1.170 . S
C129 C128 1.170 . S
C130 C131 1.170 . S
C130 C132 1.380 . S
C131 C130 1.170 . S
C132 C130 1.380 . S
C132 C133 1.170 . S
C133 C132 1.170 . S
C134 C135 1.170 . S
C134 C136 1.380 . S
C135 C134 1.170 . S
C136 C134 1.380 . S
C136 C137 1.170 . S
C137 C136 1.170 . S
C138 C139 1.170 . S
C138 C140 1.380 . S
C139 C138 1.170 . S
C140 C138 1.380 . S
C140 C141 1.170 . S
C141 C140 1.170 . S
C142 C143 1.170 . S
C142 C144 1.380 . S
C143 C142 1.170 . S
C144 C142 1.380 . S
C144 C145 1.170 . S
C145 C144 1.170 . S
C101 C69 1.496 . S
C99 N41 1.494 . S
C103 N2 1.494 1_556 S
C105 C92 1.490 . S
C107 N15 1.521 . S
C109 C68 1.520 . S
C111 N28 1.518 1_556 S
C113 C91 1.519 1_556 S
C117 C72 1.437 . S
C115 N5 1.495 . S
C121 C94 1.467 . S
C119 N14 1.547 . S
C123 N27 1.516 . S
C125 C73 1.474 . S
C127 N44 1.537 . S
C129 C93 1.455 . S
C133 C96 1.474 . S
C131 N18 1.507 . S
C137 C71 1.460 . S
C135 N31 1.538 . S
C141 C95 1.438 . S
C139 N40 1.506 . S
C143 N1 1.538 . S
C145 C70 1.456 . S
