# Generated by pormake.
# Topology zzz, (3,6)-cn, num edge types: 1
# Building blocks:
#     Node 0, Type 0, BuildingBlock: BETDAH_clean_linker_0, # of connection points: 3
#     Node 1, Type 0, BuildingBlock: BETDAH_clean_linker_0, # of connection points: 3
#     Node 2, Type 0, BuildingBlock: BETDAH_clean_linker_0, # of connection points: 3
#     Node 3, Type 0, BuildingBlock: BETDAH_clean_linker_0, # of connection points: 3
#     Node 4, Type 0, BuildingBlock: BETDAH_clean_linker_0, # of connection points: 3
#     Node 5, Type 0, BuildingBlock: BETDAH_clean_linker_0, # of connection points: 3
#     Node 6, Type 0, BuildingBlock: BETDAH_clean_linker_0, # of connection points: 3
#     Node 7, Type 0, BuildingBlock: BETDAH_clean_linker_0, # of connection points: 3
#     Node 8, Type 1, BuildingBlock: LEVNOQ01_clean_sbu_1, # of connection points: 6
#     Node 9, Type 1, BuildingBlock: LEVNOQ01_clean_sbu_1, # of connection points: 6
#     Node 10, Type 1, BuildingBlock: LEVNOQ01_clean_sbu_1, # of connection points: 6
#     Node 11, Type 1, BuildingBlock: LEVNOQ01_clean_sbu_1, # of connection points: 6
#     Edge 12, Type (0, 1), None
#     Edge 13, Type (0, 1), None
#     Edge 14, Type (0, 1), None
#     Edge 15, Type (0, 1), None
#     Edge 16, Type (0, 1), None
#     Edge 17, Type (0, 1), None
#     Edge 18, Type (0, 1), None
#     Edge 19, Type (0, 1), None
#     Edge 20, Type (0, 1), None
#     Edge 21, Type (0, 1), None
#     Edge 22, Type (0, 1), None
#     Edge 23, Type (0, 1), None
#     Edge 24, Type (0, 1), None
#     Edge 25, Type (0, 1), None
#     Edge 26, Type (0, 1), None
#     Edge 27, Type (0, 1), None
#     Edge 28, Type (0, 1), None
#     Edge 29, Type (0, 1), None
#     Edge 30, Type (0, 1), None
#     Edge 31, Type (0, 1), None
#     Edge 32, Type (0, 1), None
#     Edge 33, Type (0, 1), None
#     Edge 34, Type (0, 1), None
#     Edge 35, Type (0, 1), None
# Relax obj value: 0.116
# Max RMSD: 0.168
# Mean RMSD: 0.108
data_MOF--net-zzz--node1-LEVNOQ01_clean_sbu_1--node2-BETDAH_clean_linker_0--edge1-none
_symmetry_space_group_name_H-M    P1
_symmetry_Int_Tables_number       1
_symmetry_cell_setting            triclinic
loop_
_symmetry_equiv_pos_as_xyz
'x, y, z'
_cell_length_a     20.83783
_cell_length_b     20.837433
_cell_length_c     8.8473053
_cell_angle_alpha  89.985547
_cell_angle_beta   89.96732
_cell_angle_gamma 90.004618
loop_
_atom_site_label
_atom_site_type_symbol
_atom_site_fract_x
_atom_site_fract_y
_atom_site_fract_z
_atom_type_partial_charge
H0 H 0.97399 0.53719 0.20562 0.0
H1 H 0.82655 0.55332 0.87666 0.0
H2 H 0.78364 0.59569 0.34358 0.0
C3 C 0.92513 0.5513 0.17852 0.0
C4 C 0.88286 0.57119 0.29244 0.0
C5 C 0.9029 0.54157 0.03314 0.0
C6 C 0.84068 0.55822 -0.00617 0.0
C7 C 0.7967 0.57878 0.10324 0.0
C8 C 0.81777 0.58424 0.25523 0.0
N9 N 0.73113 0.58872 0.06149 0.0
C10 C 0.70667 0.56221 -0.07243 0.0
H11 H 0.0566 0.97569 0.20543 0.0
H12 H 0.03959 0.82845 0.8761 0.0
H13 H 0.99698 0.78563 0.34298 0.0
C14 C 0.04222 0.92692 0.17823 0.0
C15 C 1.02208 0.88472 0.29207 0.0
C16 C 0.05179 0.9047 0.03274 0.0
C17 C 1.03479 0.84258 -0.00668 0.0
C18 C 1.014 0.79868 0.10267 0.0
C19 C 1.00864 0.81973 0.25471 0.0
N20 N 1.00375 0.73318 0.06081 0.0
C21 C 1.03054 0.70852 -0.07265 0.0
H22 H 0.61654 0.05717 0.20478 0.0
H23 H 0.76372 0.04149 0.87487 0.0
H24 H 0.80722 0.99945 0.34167 0.0
C25 C 0.66542 0.04321 0.17742 0.0
C26 C 0.70787 1.02359 0.29114 0.0
C27 C 0.68748 0.05289 0.03185 0.0
C28 C 0.74973 1.03648 -0.00784 0.0
C29 C 0.79389 1.01612 0.10132 0.0
C30 C 0.77298 1.01074 0.25353 0.0
N31 N 0.85942 1.00621 0.05901 0.0
C32 C 0.88329 1.03133 -0.07706 0.0
H33 H 0.53667 0.61935 0.20442 0.0
H34 H 0.55176 0.76707 0.87553 0.0
H35 H 0.5937 0.81009 0.34248 0.0
C36 C 0.55048 0.66831 0.17733 0.0
C37 C 0.56997 0.7107 0.2913 0.0
C38 C 0.54064 0.69052 0.03194 0.0
C39 C 0.55683 0.75289 -0.00734 0.0
C40 C 0.57702 0.79698 0.10212 0.0
C41 C 0.58258 0.77589 0.2541 0.0
N42 N 0.58643 0.86265 0.06047 0.0
C43 C 0.55962 0.887 -0.07324 0.0
H44 H 0.1171 0.55863 0.08153 0.0
H45 H 0.26398 0.54276 0.4118 0.0
H46 H 0.30766 0.49996 -0.0546 0.0
C47 C 0.16593 0.54459 0.10905 0.0
C48 C 0.20838 0.52462 -0.00446 0.0
C49 C 0.18791 0.55432 0.25462 0.0
C50 C 0.25007 0.53774 0.2945 0.0
C51 C 0.29423 0.51706 0.18558 0.0
C52 C 0.27341 0.51157 0.03337 0.0
N53 N 0.35967 0.50681 0.22814 0.0
C54 C 0.38355 0.5318 0.36426 0.0
H55 H 1.0359 0.11884 0.08175 0.0
H56 H 0.05134 0.26602 0.41138 0.0
H57 H 0.09318 0.30966 -0.05557 0.0
C58 C 0.04977 0.16775 0.109 0.0
C59 C 0.0693 0.21024 -0.00482 0.0
C60 C 0.04005 0.18979 0.25454 0.0
C61 C 0.05635 0.25207 0.2941 0.0
C62 C 0.07658 0.29629 0.18485 0.0
C63 C 0.08198 0.27539 0.03266 0.0
N64 N 0.08633 0.36186 0.22705 0.0
C65 C 0.06128 0.38561 0.36331 0.0
H66 H 0.47344 1.03672 0.08137 0.0
H67 H 0.32606 0.05318 0.41078 0.0
H68 H 0.2832 0.09561 -0.05606 0.0
C69 C 0.42462 0.05093 0.10861 0.0
C70 C 0.38237 0.07092 -0.00521 0.0
C71 C 0.40239 0.04127 0.2541 0.0
C72 C 0.3402 0.05805 0.29356 0.0
C73 C 0.29625 0.07865 0.18423 0.0
C74 C 0.31732 0.0841 0.03219 0.0
N75 N 0.23068 0.08861 0.22609 0.0
C76 C 0.20618 0.06191 0.35985 0.0
H77 H 0.55761 0.47627 0.0807 0.0
H78 H 0.54086 0.32949 0.41123 0.0
H79 H 0.49783 0.28605 -0.05507 0.0
C80 C 0.54331 0.42752 0.10831 0.0
C81 C 0.52306 0.38519 -0.00509 0.0
C82 C 0.55294 0.40547 0.2539 0.0
C83 C 0.53597 0.34341 0.29389 0.0
C84 C 0.51505 0.29937 0.18506 0.0
C85 C 0.50965 0.32023 0.03284 0.0
N86 N 0.50445 0.23398 0.22772 0.0
C87 C 0.52934 0.20999 0.36386 0.0
O88 O 0.13724 0.92962 0.8737 0.0
Mg89 Mg 0.15748 0.93096 0.6392 0.0
O90 O 0.04408 0.97945 0.84107 0.0
Mg91 Mg 0.04605 0.04738 0.64382 0.0
O92 O 0.14558 1.023 0.57355 0.0
O93 O 0.23394 0.97342 0.51226 0.0
O94 O 0.04819 0.11527 0.44656 0.0
O95 O 0.07612 0.13095 0.80613 0.0
Mg96 Mg 0.9343 0.16304 0.64721 0.0
O97 O 0.94655 0.07137 0.7153 0.0
O98 O 0.95462 0.16412 0.41283 0.0
O99 O 1.00573 0.21149 0.7808 0.0
O100 O 0.85698 0.12012 0.77016 0.0
C101 C 1.03552 0.90733 0.44649 0.0
C102 C 0.08132 0.9446 -0.08128 0.0
C103 C 0.19662 1.02183 0.49213 0.0
C104 C 1.01073 0.14963 0.36831 0.0
C105 C 0.05593 0.18749 0.84083 0.0
C106 C 0.89413 0.07169 0.79169 0.0
O107 O 0.08549 0.88292 0.50656 0.0
O108 O 1.0158 0.96401 0.48122 0.0
O109 O 0.38064 1.00752 0.78023 0.0
Mg110 Mg 0.42867 0.93552 0.6475 0.0
O111 O 0.46171 0.07725 0.80557 0.0
Mg112 Mg 0.54508 0.047 0.6428 0.0
O113 O 0.52068 0.94748 0.71303 0.0
O114 O 0.47115 0.85911 0.7745 0.0
O115 O 0.62859 1.01687 0.48033 0.0
O116 O 0.61297 0.04483 0.83994 0.0
Mg117 Mg 0.66083 0.15859 0.63934 0.0
O118 O 0.56915 0.14651 0.57124 0.0
O119 O 0.70922 0.08715 0.50556 0.0
O120 O 0.66192 0.13834 0.87369 0.0
O121 O 0.6181 0.23604 0.51679 0.0
C122 C 0.44232 1.01177 0.36803 0.0
C123 C 0.40503 0.0575 0.84036 0.0
C124 C 0.51953 0.89648 0.79455 0.0
C125 C 0.68515 1.03698 0.44554 0.0
C126 C 0.64737 0.08225 -0.08183 0.0
C127 C 0.56959 0.199 0.49513 0.0
O128 O 0.42738 0.95582 0.413 0.0
O129 O 0.47714 0.04902 0.44566 0.0
O130 O 0.58606 0.38337 0.77956 0.0
Mg131 Mg 0.6581 0.43169 0.64724 0.0
O132 O 0.51641 0.46445 0.80572 0.0
Mg133 Mg 0.54659 0.54789 0.64305 0.0
O134 O 0.6461 0.5236 0.71369 0.0
O135 O 0.73448 0.47397 0.77443 0.0
O136 O 0.5767 0.63141 0.48049 0.0
O137 O 0.54862 0.61584 0.84018 0.0
Mg138 Mg 0.43484 0.66346 0.63944 0.0
O139 O 0.44703 0.57175 0.57143 0.0
O140 O 0.50616 0.71185 0.5054 0.0
O141 O 0.4552 0.665 0.8737 0.0
O142 O 0.35741 0.62054 0.51729 0.0
C143 C 0.58228 0.44556 0.3677 0.0
C144 C 0.53617 0.40775 0.84021 0.0
C145 C 0.69714 0.52233 0.79498 0.0
C146 C 0.55645 0.6879 0.44557 0.0
C147 C 0.51128 0.65044 -0.08183 0.0
C148 C 0.39452 0.57209 0.49551 0.0
O149 O 0.63827 0.43084 0.41256 0.0
O150 O 0.5448 0.47999 0.4458 0.0
O151 O 0.92806 0.45617 0.87431 0.0
Mg152 Mg 0.9298 0.43596 0.63992 0.0
O153 O 0.97767 0.54942 0.84145 0.0
Mg154 Mg 0.0456 0.5476 0.64417 0.0
O155 O 1.02175 0.44797 0.57316 0.0
O156 O 0.97254 0.35892 0.51594 0.0
O157 O 0.1135 0.54587 0.44681 0.0
O158 O 0.12917 0.51761 0.8065 0.0
Mg159 Mg 0.16137 0.65951 0.64771 0.0
O160 O 0.06977 0.64699 0.71585 0.0
O161 O 0.16205 0.63962 0.41306 0.0
O162 O 0.20992 0.58771 0.78025 0.0
O163 O 0.11867 0.73615 0.77346 0.0
C164 C 0.90557 0.55771 0.44675 0.0
C165 C 0.94288 0.51213 -0.08082 0.0
C166 C 1.02107 0.39603 0.49503 0.0
C167 C 0.14766 0.5835 0.36843 0.0
C168 C 0.18577 0.53768 0.8409 0.0
C169 C 0.0705 0.69864 0.79498 0.0
O170 O 0.88149 0.50748 0.5065 0.0
O171 O 0.96211 0.57778 0.48166 0.0
loop_
_geom_bond_atom_site_label_1
_geom_bond_atom_site_label_2
_geom_bond_distance
_geom_bond_site_symmetry_2
_ccdc_geom_bond_type
H0 C3 0.929 . S
H1 C6 0.929 . S
H2 C8 0.930 . S
C3 H0 0.929 . S
C3 C4 1.398 . S
C3 C5 1.396 1_554 S
C4 C3 1.398 . S
C4 C8 1.407 . S
C5 C3 1.396 1_556 S
C5 C6 1.394 . S
C6 H1 0.929 . S
C6 C5 1.394 . S
C6 C7 1.382 1_556 S
C7 C6 1.382 1_554 S
C7 C8 1.392 . S
C7 N9 1.420 . S
C8 H2 0.930 . S
C8 C4 1.407 . S
C8 C7 1.392 . S
N9 C7 1.420 . S
N9 C10 1.244 1_554 S
C10 N9 1.244 1_556 S
H11 C14 0.929 . S
H12 C17 0.929 . S
H13 C19 0.930 . S
C14 H11 0.929 . S
C14 C15 1.398 . S
C14 C16 1.396 1_554 S
C15 C14 1.398 . S
C15 C19 1.407 . S
C16 C14 1.396 1_556 S
C16 C17 1.394 . S
C17 H12 0.929 . S
C17 C16 1.394 . S
C17 C18 1.382 1_556 S
C18 C17 1.382 1_554 S
C18 C19 1.392 . S
C18 N20 1.420 . S
C19 H13 0.930 . S
C19 C15 1.407 . S
C19 C18 1.392 . S
N20 C18 1.420 . S
N20 C21 1.244 1_554 S
C21 N20 1.244 1_556 S
H22 C25 0.929 . S
H23 C28 0.929 . S
H24 C30 0.930 . S
C25 H22 0.929 . S
C25 C26 1.398 . S
C25 C27 1.396 1_554 S
C26 C25 1.398 . S
C26 C30 1.407 . S
C27 C25 1.396 1_556 S
C27 C28 1.394 . S
C28 H23 0.929 . S
C28 C27 1.394 . S
C28 C29 1.382 1_556 S
C29 C28 1.382 1_554 S
C29 C30 1.392 . S
C29 N31 1.420 . S
C30 H24 0.930 . S
C30 C26 1.407 . S
C30 C29 1.392 . S
N31 C29 1.420 . S
N31 C32 1.244 1_554 S
C32 N31 1.244 1_556 S
H33 C36 0.929 . S
H34 C39 0.929 . S
H35 C41 0.930 . S
C36 H33 0.929 . S
C36 C37 1.398 . S
C36 C38 1.396 1_554 S
C37 C36 1.398 . S
C37 C41 1.407 . S
C38 C36 1.396 1_556 S
C38 C39 1.394 . S
C39 H34 0.929 . S
C39 C38 1.394 . S
C39 C40 1.382 1_556 S
C40 C39 1.382 1_554 S
C40 C41 1.392 . S
C40 N42 1.420 . S
C41 H35 0.930 . S
C41 C37 1.407 . S
C41 C40 1.392 . S
N42 C40 1.420 . S
N42 C43 1.244 1_554 S
C43 N42 1.244 1_556 S
H44 C47 0.929 . S
H45 C50 0.929 . S
H46 C52 0.930 . S
C47 H44 0.929 . S
C47 C48 1.398 . S
C47 C49 1.396 . S
C48 C47 1.398 . S
C48 C52 1.407 . S
C49 C47 1.396 . S
C49 C50 1.394 . S
C50 H45 0.929 . S
C50 C49 1.394 . S
C50 C51 1.382 . S
C51 C50 1.382 . S
C51 C52 1.392 . S
C51 N53 1.420 . S
C52 H46 0.930 . S
C52 C48 1.407 . S
C52 C51 1.392 . S
N53 C51 1.420 . S
N53 C54 1.244 . S
C54 N53 1.244 . S
H55 C58 0.929 . S
H56 C61 0.929 . S
H57 C63 0.930 . S
C58 H55 0.929 . S
C58 C59 1.398 . S
C58 C60 1.396 . S
C59 C58 1.398 . S
C59 C63 1.407 . S
C60 C58 1.396 . S
C60 C61 1.394 . S
C61 H56 0.929 . S
C61 C60 1.394 . S
C61 C62 1.382 . S
C62 C61 1.382 . S
C62 C63 1.392 . S
C62 N64 1.420 . S
C63 H57 0.930 . S
C63 C59 1.407 . S
C63 C62 1.392 . S
N64 C62 1.420 . S
N64 C65 1.244 . S
C65 N64 1.244 . S
H66 C69 0.929 . S
H67 C72 0.929 . S
H68 C74 0.930 . S
C69 H66 0.929 . S
C69 C70 1.398 . S
C69 C71 1.396 . S
C70 C69 1.398 . S
C70 C74 1.407 . S
C71 C69 1.396 . S
C71 C72 1.394 . S
C72 H67 0.929 . S
C72 C71 1.394 . S
C72 C73 1.382 . S
C73 C72 1.382 . S
C73 C74 1.392 . S
C73 N75 1.420 . S
C74 H68 0.930 . S
C74 C70 1.407 . S
C74 C73 1.392 . S
N75 C73 1.420 . S
N75 C76 1.244 . S
C76 N75 1.244 . S
H77 C80 0.929 . S
H78 C83 0.929 . S
H79 C85 0.930 . S
C80 H77 0.929 . S
C80 C81 1.398 . S
C80 C82 1.396 . S
C81 C80 1.398 . S
C81 C85 1.407 . S
C82 C80 1.396 . S
C82 C83 1.394 . S
C83 H78 0.929 . S
C83 C82 1.394 . S
C83 C84 1.382 . S
C84 C83 1.382 . S
C84 C85 1.392 . S
C84 N86 1.420 . S
C85 H79 0.930 . S
C85 C81 1.407 . S
C85 C84 1.392 . S
N86 C84 1.420 . S
N86 C87 1.244 . S
C87 N86 1.244 . S
O88 Mg89 1.990 . S
O88 C102 1.253 . S
Mg89 O88 1.990 . S
Mg89 O92 2.180 . S
Mg89 O93 2.117 . S
Mg89 O107 2.030 . S
O90 Mg91 2.072 1_665 S
O90 C102 1.260 1_655 S
Mg91 O90 2.072 1_445 S
Mg91 O92 2.099 1_545 S
Mg91 O94 2.079 . S
Mg91 O95 2.072 . S
Mg91 O97 2.099 1_455 S
Mg91 O108 2.079 1_445 S
O92 Mg89 2.180 . S
O92 Mg91 2.099 1_565 S
O92 C103 1.279 . S
O93 Mg89 2.117 . S
O93 C103 1.250 . S
O94 Mg91 2.079 . S
O94 C104 1.264 1_455 S
O95 Mg91 2.072 . S
O95 C105 1.260 1_556 S
Mg96 O97 2.180 . S
Mg96 O98 2.030 . S
Mg96 O99 1.990 1_556 S
Mg96 O100 2.117 1_556 S
O97 Mg91 2.099 1_655 S
O97 Mg96 2.180 . S
O97 C106 1.279 . S
O98 Mg96 2.030 . S
O98 C104 1.248 . S
O99 Mg96 1.990 1_554 S
O99 C105 1.253 1_655 S
O100 Mg96 2.117 1_554 S
O100 C106 1.250 1_554 S
C101 O107 1.248 1_655 S
C101 O108 1.264 . S
C102 O88 1.253 . S
C102 O90 1.260 1_455 S
C103 O92 1.279 . S
C103 O93 1.250 . S
C104 O94 1.264 1_655 S
C104 O98 1.248 . S
C105 O95 1.260 1_554 S
C105 O99 1.253 1_455 S
C106 O97 1.279 . S
C106 O100 1.250 1_556 S
O107 Mg89 2.030 . S
O107 C101 1.248 1_455 S
O108 Mg91 2.079 1_665 S
O108 C101 1.264 . S
O109 Mg110 1.990 1_554 S
O109 C123 1.253 1_565 S
Mg110 O109 1.990 1_556 S
Mg110 O113 2.180 . S
Mg110 O114 2.117 1_556 S
Mg110 O128 2.030 . S
O111 Mg112 2.072 . S
O111 C123 1.260 1_556 S
Mg112 O111 2.072 . S
Mg112 O113 2.099 1_545 S
Mg112 O115 2.079 1_545 S
Mg112 O116 2.072 1_545 S
Mg112 O118 2.099 . S
Mg112 O129 2.079 . S
O113 Mg110 2.180 . S
O113 Mg112 2.099 1_565 S
O113 C124 1.279 . S
O114 Mg110 2.117 1_554 S
O114 C124 1.250 1_554 S
O115 Mg112 2.079 1_565 S
O115 C125 1.264 . S
O116 Mg112 2.072 1_565 S
O116 C126 1.260 1_565 S
Mg117 O118 2.180 . S
Mg117 O119 2.030 . S
Mg117 O120 1.990 . S
Mg117 O121 2.117 . S
O118 Mg112 2.099 . S
O118 Mg117 2.180 . S
O118 C127 1.279 . S
O119 Mg117 2.030 . S
O119 C125 1.248 1_545 S
O120 Mg117 1.990 . S
O120 C126 1.253 . S
O121 Mg117 2.117 . S
O121 C127 1.250 . S
C122 O128 1.248 . S
C122 O129 1.264 1_565 S
C123 O109 1.253 1_545 S
C123 O111 1.260 1_554 S
C124 O113 1.279 . S
C124 O114 1.250 1_556 S
C125 O115 1.264 . S
C125 O119 1.248 1_565 S
C126 O116 1.260 1_545 S
C126 O120 1.253 . S
C127 O118 1.279 . S
C127 O121 1.250 . S
O128 Mg110 2.030 . S
O128 C122 1.248 . S
O129 Mg112 2.079 . S
O129 C122 1.264 1_545 S
O130 Mg131 1.990 1_554 S
O130 C144 1.253 . S
Mg131 O130 1.990 1_556 S
Mg131 O134 2.180 . S
Mg131 O135 2.117 1_556 S
Mg131 O149 2.030 . S
O132 Mg133 2.072 . S
O132 C144 1.260 1_556 S
Mg133 O132 2.072 . S
Mg133 O134 2.099 . S
Mg133 O136 2.079 . S
Mg133 O137 2.072 . S
Mg133 O139 2.099 . S
Mg133 O150 2.079 . S
O134 Mg131 2.180 . S
O134 Mg133 2.099 . S
O134 C145 1.279 . S
O135 Mg131 2.117 1_554 S
O135 C145 1.250 1_554 S
O136 Mg133 2.079 . S
O136 C146 1.264 . S
O137 Mg133 2.072 . S
O137 C147 1.260 . S
Mg138 O139 2.180 . S
Mg138 O140 2.030 . S
Mg138 O141 1.990 . S
Mg138 O142 2.117 . S
O139 Mg133 2.099 . S
O139 Mg138 2.180 . S
O139 C148 1.279 . S
O140 Mg138 2.030 . S
O140 C146 1.248 . S
O141 Mg138 1.990 . S
O141 C147 1.253 . S
O142 Mg138 2.117 . S
O142 C148 1.250 . S
C143 O149 1.248 . S
C143 O150 1.264 . S
C144 O130 1.253 . S
C144 O132 1.260 1_554 S
C145 O134 1.279 . S
C145 O135 1.250 1_556 S
C146 O136 1.264 . S
C146 O140 1.248 . S
C147 O137 1.260 . S
C147 O141 1.253 . S
C148 O139 1.279 . S
C148 O142 1.250 . S
O149 Mg131 2.030 . S
O149 C143 1.248 . S
O150 Mg133 2.079 . S
O150 C143 1.264 . S
O151 Mg152 1.990 . S
O151 C165 1.253 . S
Mg152 O151 1.990 . S
Mg152 O155 2.180 . S
Mg152 O156 2.117 . S
Mg152 O170 2.030 . S
O153 Mg154 2.072 1_655 S
O153 C165 1.260 . S
Mg154 O153 2.072 1_455 S
Mg154 O155 2.099 1_455 S
Mg154 O157 2.079 . S
Mg154 O158 2.072 . S
Mg154 O160 2.099 . S
Mg154 O171 2.079 1_455 S
O155 Mg152 2.180 . S
O155 Mg154 2.099 1_655 S
O155 C166 1.279 . S
O156 Mg152 2.117 . S
O156 C166 1.250 . S
O157 Mg154 2.079 . S
O157 C167 1.264 . S
O158 Mg154 2.072 . S
O158 C168 1.260 1_556 S
Mg159 O160 2.180 . S
Mg159 O161 2.030 . S
Mg159 O162 1.990 1_556 S
Mg159 O163 2.117 1_556 S
O160 Mg154 2.099 . S
O160 Mg159 2.180 . S
O160 C169 1.279 . S
O161 Mg159 2.030 . S
O161 C167 1.248 . S
O162 Mg159 1.990 1_554 S
O162 C168 1.253 . S
O163 Mg159 2.117 1_554 S
O163 C169 1.250 1_554 S
C164 O170 1.248 . S
C164 O171 1.264 . S
C165 O151 1.253 . S
C165 O153 1.260 . S
C166 O155 1.279 . S
C166 O156 1.250 . S
C167 O157 1.264 . S
C167 O161 1.248 . S
C168 O158 1.260 1_554 S
C168 O162 1.253 . S
C169 O160 1.279 . S
C169 O163 1.250 1_556 S
O170 Mg152 2.030 . S
O170 C164 1.248 . S
O171 Mg154 2.079 1_655 S
O171 C164 1.264 . S
C76 C103 1.922 1_545 S
C127 C87 1.922 . S
C148 C54 1.922 . S
C166 C65 1.922 1_655 S
C106 C32 1.601 1_545 S
C43 C124 1.602 . S
C10 C145 1.601 . S
C21 C169 1.602 1_655 S
C104 C60 1.267 1_655 S
C122 C71 1.266 1_565 S
C143 C82 1.267 . S
C49 C167 1.267 . S
C16 C102 1.296 1_655 S
C126 C27 1.295 1_545 S
C147 C38 1.295 . S
C5 C165 1.296 . S
C59 C105 1.588 . S
C70 C123 1.588 . S
C144 C81 1.588 . S
C168 C48 1.588 . S
C15 C101 1.343 . S
C125 C26 1.342 . S
C146 C37 1.343 . S
C4 C164 1.343 . S
