# Generated by pormake.
# Topology pts, (4,4)-cn, num edge types: 1
# Building blocks:
#     Node 0, Type 0, BuildingBlock: GIZVER_clean_linker_0, # of connection points: 4
#     Node 1, Type 0, BuildingBlock: GIZVER_clean_linker_0, # of connection points: 4
#     Node 2, Type 1, BuildingBlock: AZAVOO_clean_sbu_0, # of connection points: 4
#     Node 3, Type 1, BuildingBlock: AZAVOO_clean_sbu_0, # of connection points: 4
#     Edge 4, Type (0, 1), None
#     Edge 5, Type (0, 1), None
#     Edge 6, Type (0, 1), None
#     Edge 7, Type (0, 1), None
#     Edge 8, Type (0, 1), None
#     Edge 9, Type (0, 1), None
#     Edge 10, Type (0, 1), None
#     Edge 11, Type (0, 1), None
# Relax obj value: 0.014
# Max RMSD: 0.074
# Mean RMSD: 0.068
data_MOF--net-pts--node1-AZAVOO_clean_sbu_0--node2-GIZVER_clean_linker_0--edge1-none
_symmetry_space_group_name_H-M    P1
_symmetry_Int_Tables_number       1
_symmetry_cell_setting            triclinic
loop_
_symmetry_equiv_pos_as_xyz
'x, y, z'
_cell_length_a     12.239557
_cell_length_b     12.544119
_cell_length_c     15.935971
_cell_angle_alpha  90.425705
_cell_angle_beta   95.093277
_cell_angle_gamma 89.286594
loop_
_atom_site_label
_atom_site_type_symbol
_atom_site_fract_x
_atom_site_fract_y
_atom_site_fract_z
_atom_type_partial_charge
H0 H 0.63263 0.11835 0.1327 0.0
H1 H 0.6219 0.1671 0.86615 0.0
H2 H 0.8973 0.00093 -0.00474 0.0
H3 H 0.50788 0.2525 0.06324 0.0
H4 H 0.49727 0.2665 0.95102 0.0
H5 H 0.3856 0.13422 0.12605 0.0
H6 H 0.17296 0.93225 0.96773 0.0
H7 H 0.42075 0.11294 0.85983 0.0
C8 C 0.66971 0.10673 0.07395 0.0
C9 C 0.7717 0.05423 0.0733 0.0
C10 C 0.6163 0.14841 -0.00015 0.0
C11 C 0.66385 0.13518 0.92344 0.0
C12 C 0.76439 0.08061 0.92063 0.0
C13 C 0.81844 0.04101 -0.0038 0.0
C14 C 0.50874 0.2074 0.00289 0.0
C15 C 0.41557 0.12965 -0.00581 0.0
C16 C 0.36079 0.10057 0.06456 0.0
C17 C 0.27372 0.02839 0.05523 0.0
C18 C 0.24228 0.98555 0.97549 0.0
C19 C 0.29335 0.01674 0.90445 0.0
C20 C 0.38178 0.0869 0.91448 0.0
H21 H 0.11216 0.62335 0.34316 0.0
H22 H 0.143 0.61305 0.6153 0.0
H23 H 0.96816 0.87029 0.48738 0.0
H24 H 0.22287 0.48616 0.41428 0.0
H25 H 0.25885 0.49782 0.52528 0.0
H26 H 0.06082 0.38393 0.35911 0.0
H27 H 0.91007 0.18418 0.53288 0.0
H28 H 0.1699 0.39062 0.62289 0.0
C29 C 0.09161 0.65565 0.40311 0.0
C30 C 0.03466 0.75325 0.40553 0.0
C31 C 0.12669 0.60219 0.4787 0.0
C32 C 0.10922 0.64962 0.55711 0.0
C33 C 0.05345 0.74731 0.55948 0.0
C34 C 0.01047 0.79403 0.48401 0.0
C35 C 0.18843 0.49796 0.47605 0.0
C36 C 0.11241 0.40811 0.49125 0.0
C37 C 0.04922 0.3607 0.42307 0.0
C38 C 0.97799 0.27734 0.43736 0.0
C39 C 0.96232 0.25076 0.52114 0.0
C40 C 0.03872 0.28231 0.58691 0.0
C41 C 0.10993 0.36563 0.57268 0.0
Mg42 Mg 0.06931 0.00662 0.27085 0.0
O43 O 0.93518 0.01128 0.15988 0.0
O44 O 0.77622 0.01162 0.21839 0.0
Mg45 Mg 0.80421 0.9653 0.35692 0.0
C46 C 0.83085 0.02071 0.15432 0.0
C47 C 0.20983 0.00039 0.12601 0.0
O48 O 0.15703 0.90973 0.12377 0.0
O49 O 0.01852 0.17372 0.31814 0.0
O50 O 0.87651 0.12819 0.3892 0.0
O51 O 0.09379 0.82549 0.27703 0.0
O52 O 0.97371 0.91652 0.34228 0.0
C53 C 0.94901 0.19512 0.37188 0.0
C54 C 0.02371 0.82762 0.33315 0.0
O55 O 0.19358 0.06709 0.18412 0.0
Mg56 Mg -0.0089 0.97284 0.71997 0.0
O57 O 0.1383 0.97503 0.81415 0.0
O58 O 0.29347 0.00103 0.75517 0.0
Mg59 Mg 0.24574 0.98104 0.61412 0.0
C60 C 0.24082 0.99124 0.81996 0.0
C61 C 0.81356 0.06681 0.83933 0.0
O62 O 0.77708 0.12244 0.7729 0.0
O63 O 0.01057 0.15148 0.6893 0.0
O64 O 0.1567 0.14115 0.61403 0.0
O65 O -0.00374 0.79312 0.69702 0.0
O66 O 0.08198 0.91222 0.6275 0.0
C67 C 0.0778 0.19401 0.64232 0.0
C68 C 0.05431 0.81498 0.63546 0.0
O69 O 0.89296 0.00182 0.83391 0.0
loop_
_geom_bond_atom_site_label_1
_geom_bond_atom_site_label_2
_geom_bond_distance
_geom_bond_site_symmetry_2
_ccdc_geom_bond_type
H0 C8 0.930 . S
H1 C11 0.930 . S
H2 C13 0.930 . S
H3 C14 0.970 . S
H4 C14 0.970 1_556 S
H5 C16 0.930 . S
H6 C18 0.930 . S
H7 C20 0.930 . S
C8 H0 0.930 . S
C8 C9 1.382 . S
C8 C10 1.426 . S
C9 C8 1.382 . S
C9 C13 1.389 1_545 S
C10 C8 1.426 . S
C10 C11 1.375 1_554 S
C10 C14 1.532 . S
C11 H1 0.930 . S
C11 C10 1.375 1_556 S
C11 C12 1.416 . S
C12 C11 1.416 . S
C12 C13 1.371 1_546 S
C13 H2 0.930 . S
C13 C9 1.389 1_565 S
C13 C12 1.371 1_564 S
C14 H3 0.970 . S
C14 H4 0.970 1_554 S
C14 C10 1.532 . S
C14 C15 1.499 1_554 S
C15 C14 1.499 1_556 S
C15 C16 1.370 1_556 S
C15 C20 1.415 . S
C16 H5 0.930 . S
C16 C15 1.370 1_554 S
C16 C17 1.407 . S
C17 C16 1.407 . S
C17 C18 1.365 1_544 S
C18 H6 0.930 . S
C18 C17 1.365 1_566 S
C18 C19 1.393 1_565 S
C19 C18 1.393 1_545 S
C19 C20 1.387 . S
C20 H7 0.930 . S
C20 C15 1.415 . S
C20 C19 1.387 . S
H21 C29 0.930 . S
H22 C32 0.930 . S
H23 C34 0.930 1_655 S
H24 C35 0.970 . S
H25 C35 0.970 . S
H26 C37 0.930 . S
H27 C39 0.930 1_655 S
H28 C41 0.930 . S
C29 H21 0.930 . S
C29 C30 1.382 . S
C29 C31 1.426 . S
C30 C29 1.382 . S
C30 C34 1.389 . S
C31 C29 1.426 . S
C31 C32 1.375 . S
C31 C35 1.532 . S
C32 H22 0.930 . S
C32 C31 1.375 . S
C32 C33 1.416 . S
C33 C32 1.416 . S
C33 C34 1.371 . S
C34 H23 0.930 1_455 S
C34 C30 1.389 . S
C34 C33 1.371 . S
C35 H24 0.970 . S
C35 H25 0.970 . S
C35 C31 1.532 . S
C35 C36 1.499 . S
C36 C35 1.499 . S
C36 C37 1.370 . S
C36 C41 1.415 . S
C37 H26 0.930 . S
C37 C36 1.370 . S
C37 C38 1.407 . S
C38 C37 1.407 . S
C38 C39 1.365 . S
C39 H27 0.930 1_455 S
C39 C38 1.365 . S
C39 C40 1.393 . S
C40 C39 1.393 . S
C40 C41 1.387 . S
C41 H28 0.930 . S
C41 C36 1.415 . S
C41 C40 1.387 . S
Mg42 O43 2.028 1_455 S
Mg42 O49 1.986 . S
Mg42 O51 2.114 1_545 S
Mg42 O52 2.251 1_445 S
Mg42 O55 2.010 . S
O43 Mg42 2.028 1_655 S
O43 C46 1.250 . S
O44 Mg45 2.028 . S
O44 C46 1.248 . S
Mg45 O44 2.028 . S
Mg45 O50 2.032 . S
Mg45 O52 2.079 1_545 S
C46 O43 1.250 . S
C46 O44 1.248 . S
C47 O48 1.264 . S
C47 O55 1.249 . S
O48 C47 1.264 . S
O49 Mg42 1.986 . S
O49 C53 1.246 . S
O50 Mg45 2.032 . S
O50 C53 1.259 1_655 S
O51 Mg42 2.114 1_565 S
O51 C54 1.252 . S
O52 Mg42 2.251 1_665 S
O52 Mg45 2.079 1_565 S
O52 C54 1.273 1_655 S
C53 O49 1.246 . S
C53 O50 1.259 1_455 S
C54 O51 1.252 . S
C54 O52 1.273 1_455 S
O55 Mg42 2.010 . S
O55 C47 1.249 . S
Mg56 O57 2.028 1_655 S
Mg56 O63 1.986 . S
Mg56 O65 2.114 1_545 S
Mg56 O66 2.251 1_645 S
Mg56 O69 2.010 . S
O57 Mg56 2.028 1_455 S
O57 C60 1.250 . S
O58 Mg59 2.028 . S
O58 C60 1.248 . S
Mg59 O58 2.028 . S
Mg59 O64 2.032 . S
Mg59 O66 2.079 1_545 S
C60 O57 1.250 . S
C60 O58 1.248 . S
C61 O62 1.264 . S
C61 O69 1.249 . S
O62 C61 1.264 . S
O63 Mg56 1.986 . S
O63 C67 1.246 1_655 S
O64 Mg59 2.032 . S
O64 C67 1.259 . S
O65 Mg56 2.114 1_565 S
O65 C68 1.252 1_655 S
O66 Mg56 2.251 1_465 S
O66 Mg59 2.079 1_565 S
O66 C68 1.273 . S
C67 O63 1.246 1_455 S
C67 O64 1.259 . S
C68 O65 1.252 1_455 S
C68 O66 1.273 . S
O69 Mg56 2.010 . S
O69 C61 1.249 . S
C47 C17 1.378 . S
C67 C40 1.392 . S
C46 C9 1.541 . S
C68 C33 1.460 . S
C60 C19 1.543 . S
C53 C38 1.401 . S
C61 C12 1.380 . S
C30 C54 1.522 . S
