# Generated by pormake.
# Topology anh, (6,3)-cn, num edge types: 1
# Building blocks:
#     Node 0, Type 0, BuildingBlock: BETDEL_clean_sbu_0, # of connection points: 6
#     Node 1, Type 0, BuildingBlock: BETDEL_clean_sbu_0, # of connection points: 6
#     Node 2, Type 0, BuildingBlock: BETDEL_clean_sbu_0, # of connection points: 6
#     Node 3, Type 1, BuildingBlock: PAMTOO_clean_linker_0, # of connection points: 3
#     Node 4, Type 1, BuildingBlock: PAMTOO_clean_linker_0, # of connection points: 3
#     Node 5, Type 1, BuildingBlock: PAMTOO_clean_linker_0, # of connection points: 3
#     Node 6, Type 1, BuildingBlock: PAMTOO_clean_linker_0, # of connection points: 3
#     Node 7, Type 1, BuildingBlock: PAMTOO_clean_linker_0, # of connection points: 3
#     Node 8, Type 1, BuildingBlock: PAMTOO_clean_linker_0, # of connection points: 3
#     Edge 9, Type (0, 1), None
#     Edge 10, Type (0, 1), None
#     Edge 11, Type (0, 1), None
#     Edge 12, Type (0, 1), None
#     Edge 13, Type (0, 1), None
#     Edge 14, Type (0, 1), None
#     Edge 15, Type (0, 1), None
#     Edge 16, Type (0, 1), None
#     Edge 17, Type (0, 1), None
#     Edge 18, Type (0, 1), None
#     Edge 19, Type (0, 1), None
#     Edge 20, Type (0, 1), None
#     Edge 21, Type (0, 1), None
#     Edge 22, Type (0, 1), None
#     Edge 23, Type (0, 1), None
#     Edge 24, Type (0, 1), None
#     Edge 25, Type (0, 1), None
#     Edge 26, Type (0, 1), None
# Relax obj value: 0.172
# Max RMSD: 0.137
# Mean RMSD: 0.102
data_MOF--net-anh--node1-BETDEL_clean_sbu_0--node2-PAMTOO_clean_linker_0--edge1-none
_symmetry_space_group_name_H-M    P1
_symmetry_Int_Tables_number       1
_symmetry_cell_setting            triclinic
loop_
_symmetry_equiv_pos_as_xyz
'x, y, z'
_cell_length_a     12.884606
_cell_length_b     12.750368
_cell_length_c     21.112859
_cell_angle_alpha  85.480469
_cell_angle_beta   92.762751
_cell_angle_gamma 119.19993
loop_
_atom_site_label
_atom_site_type_symbol
_atom_site_fract_x
_atom_site_fract_y
_atom_site_fract_z
_atom_type_partial_charge
Dy0 Dy 0.18615 0.45369 0.11973 0.0
C1 C 0.9326 0.6856 0.12612 0.0
C2 C 0.31571 0.34985 0.08491 0.0
Dy3 Dy 1.08592 0.59479 0.12994 0.0
O4 O 0.27317 0.33971 0.14056 0.0
O5 O 0.28389 0.41534 0.04778 0.0
O6 O 0.14652 0.37843 0.2195 0.0
O7 O 0.19945 0.56228 0.19936 0.0
C8 C 0.16817 0.4785 0.24224 0.0
C9 C 0.1279 0.5798 0.00825 0.0
O10 O 0.26482 0.74223 0.15657 0.0
O11 O 0.34671 0.64715 0.10693 0.0
O12 O 1.03508 0.73572 0.0992 0.0
O13 O 0.92409 0.59594 0.16333 0.0
O14 O 0.15458 0.6775 0.03424 0.0
O15 O 1.07864 0.49083 0.04825 0.0
O16 O 0.99659 0.29961 0.12118 0.0
O17 O 0.93644 0.41541 0.16785 0.0
C18 C 0.35845 0.74652 0.13088 0.0
C19 C 0.91468 0.30808 0.15231 0.0
Dy20 Dy 0.57296 1.05951 0.47373 0.0
C21 C 1.0628 0.31609 0.45935 0.0
C22 C 0.33628 0.9167 0.45134 0.0
Dy23 Dy 0.82306 0.17311 0.46458 0.0
O24 O 0.3893 0.92522 0.50603 0.0
O25 O 0.41342 0.98947 0.40977 0.0
O26 O 0.58616 0.14936 0.56406 0.0
O27 O 0.71032 0.09457 0.54574 0.0
C28 C 0.6838 0.14965 0.58303 0.0
C29 C 0.71555 0.08518 0.35271 0.0
O30 O 0.80034 1.00157 0.51392 0.0
O31 O 0.60666 0.89765 0.47995 0.0
O32 O 1.00311 0.21062 0.4373 0.0
O33 O 0.99099 0.33588 0.49111 0.0
O34 O 0.80613 0.07889 0.37711 0.0
O35 O 0.68691 0.14065 0.38945 0.0
O36 O 0.59315 0.24214 0.45241 0.0
O37 O 0.79757 0.33916 0.46095 0.0
C38 C 0.70459 0.89814 0.50359 0.0
C39 C 0.6959 0.34225 0.45431 0.0
Dy40 Dy 0.78008 0.78571 0.79475 0.0
C41 C 0.54609 0.28856 0.8405 0.0
C42 C 0.86441 1.02112 0.75517 0.0
Dy43 Dy 0.6324 0.52932 0.81137 0.0
O44 O 0.84277 0.97722 0.81339 0.0
O45 O 0.84829 0.93621 0.71926 0.0
O46 O 0.85229 0.79748 0.89283 0.0
O47 O 0.67109 0.67176 0.87514 0.0
C48 C 0.75369 0.71201 0.91672 0.0
C49 C 0.66625 0.61264 0.68871 0.0
O50 O 0.48473 0.56773 0.82493 0.0
O51 O 0.59087 0.75317 0.7721 0.0
O52 O 0.51895 0.33606 0.79048 0.0
O53 O 0.61062 0.374 0.87767 0.0
O54 O 0.56784 0.52402 0.71024 0.0
O55 O 0.74491 0.64575 0.73188 0.0
O56 O 0.93223 0.7449 0.79592 0.0
O57 O 0.81364 0.54982 0.83552 0.0
C58 C 0.48841 0.66394 0.79469 0.0
C59 C 0.92011 0.64111 0.82137 0.0
H60 H 0.85723 0.27353 0.27503 0.0
H61 H 0.56195 0.91402 0.2752 0.0
H62 H 0.74631 0.09049 0.10077 0.0
H63 H 0.49058 0.87925 0.0669 0.0
C64 C 0.46781 0.8696 0.11786 0.0
O65 O 0.56751 0.88793 0.15433 0.0
H66 H 0.44376 0.94057 0.12539 0.0
C67 C 0.79505 0.19713 0.24881 0.0
C68 C 0.81157 0.19809 0.18315 0.0
C69 C 0.70647 0.09516 0.28246 0.0
C70 C 0.62819 0.9941 0.24937 0.0
C71 C 0.64014 0.99181 0.18372 0.0
C72 C 0.73417 0.09329 0.15089 0.0
H73 H 0.66439 0.80361 0.62423 0.0
H74 H 0.7178 0.50052 0.60192 0.0
H75 H 0.74999 0.74238 0.44042 0.0
H76 H 0.72438 0.49437 0.39203 0.0
C77 C 0.69455 0.46057 0.44154 0.0
O78 O 0.76982 0.54886 0.48159 0.0
H79 H 0.60158 0.4441 0.44428 0.0
C80 C 0.68328 0.75024 0.59393 0.0
C81 C 0.70245 0.78413 0.52864 0.0
C82 C 0.68899 0.64846 0.62051 0.0
C83 C 0.71314 0.57891 0.58156 0.0
C84 C 0.73538 0.61186 0.5167 0.0
C85 C 0.73036 0.71513 0.49024 0.0
H86 H 0.94072 0.55338 0.93709 0.0
H87 H 0.30165 0.62561 0.92782 0.0
H88 H 0.14106 0.71841 0.76554 0.0
H89 H 0.38206 0.70125 0.72461 0.0
C90 C 0.37188 0.65877 0.77354 0.0
O91 O 0.3386 0.71987 0.81236 0.0
H92 H 0.30144 0.56275 0.77228 0.0
C93 C 1.01921 0.58027 0.90904 0.0
C94 C 1.02546 0.63079 0.84656 0.0
C95 C 0.11818 0.57861 0.93874 0.0
C96 C 0.2229 0.62092 0.90432 0.0
C97 C 0.23151 0.66946 0.84173 0.0
C98 C 0.13311 0.67656 0.81303 0.0
H99 H 0.10326 0.30935 0.337 0.0
H100 H 0.27082 0.69254 0.29862 0.0
H101 H 0.20786 0.54423 0.491 0.0
H102 H 0.1794 0.75057 0.47227 0.0
C103 C 0.2412 0.79962 0.4322 0.0
O104 O 0.30091 0.74005 0.41789 0.0
H105 H 0.19386 0.81216 0.3893 0.0
C106 C 0.1482 0.39916 0.35418 0.0
C107 C 0.15153 0.41469 0.4195 0.0
C108 C 0.18729 0.49822 0.31018 0.0
C109 C 0.23883 0.6142 0.33183 0.0
C110 C 0.24858 0.62944 0.39699 0.0
C111 C 0.2062 0.53059 0.44082 0.0
H112 H 0.83665 0.08252 0.63443 0.0
H113 H 0.6322 0.25172 0.67888 0.0
H114 H 0.8215 0.16253 0.8263 0.0
H115 H 0.59322 0.1566 0.87785 0.0
C116 C 0.58139 0.19675 0.83129 0.0
O117 O 0.68946 0.25979 0.80092 0.0
H118 H 0.51373 0.12621 0.80135 0.0
C119 C 0.80974 0.12471 0.66792 0.0
C120 C 0.8378 0.1167 0.73221 0.0
C121 C 0.73239 0.16947 0.64821 0.0
C122 C 0.69257 0.2174 0.69294 0.0
C123 C 0.72736 0.21604 0.75695 0.0
C124 C 0.80139 0.16838 0.7761 0.0
H125 H 0.92673 0.77646 0.00629 0.0
H126 H 0.54784 0.56913 -0.01988 0.0
H127 H 0.70428 0.55532 0.16205 0.0
H128 H 0.44718 0.29912 0.11306 0.0
C129 C 0.43565 0.36495 0.07996 0.0
O130 O 0.50868 0.48016 0.09796 0.0
H131 H 0.45167 0.35391 0.0302 0.0
C132 C 0.83911 0.71837 0.02588 0.0
C133 C 0.82778 0.67461 0.09003 0.0
C134 C 0.73887 0.67793 -0.0147 0.0
C135 C 0.62654 0.59959 0.01022 0.0
C136 C 0.61578 0.55553 0.07371 0.0
C137 C 0.7151 0.5931 0.11342 0.0
loop_
_geom_bond_atom_site_label_1
_geom_bond_atom_site_label_2
_geom_bond_distance
_geom_bond_site_symmetry_2
_ccdc_geom_bond_type
Dy0 O4 2.398 . S
Dy0 O5 2.491 . S
Dy0 O6 2.403 . S
Dy0 O7 2.664 1_455 S
Dy0 O11 2.326 . S
Dy0 O15 2.310 . S
Dy0 O16 2.351 1_455 S
C1 O12 1.185 . S
C1 O13 1.355 . S
C2 O4 1.185 . S
C2 O5 1.355 . S
Dy3 O7 2.310 . S
Dy3 O10 2.351 1_655 S
Dy3 O12 2.398 . S
Dy3 O13 2.491 . S
Dy3 O14 2.403 . S
Dy3 O15 2.664 1_655 S
Dy3 O17 2.326 . S
O4 Dy0 2.398 . S
O4 C2 1.185 . S
O5 Dy0 2.491 . S
O5 C2 1.355 . S
O6 Dy0 2.403 . S
O6 C8 1.254 . S
O7 Dy0 2.664 1_655 S
O7 Dy3 2.310 . S
O7 C8 1.268 1_655 S
C8 O6 1.254 . S
C8 O7 1.268 1_455 S
C9 O14 1.254 1_455 S
C9 O15 1.268 . S
O10 Dy3 2.351 1_455 S
O10 C18 1.249 . S
O11 Dy0 2.326 . S
O11 C18 1.267 . S
O12 C1 1.185 . S
O12 Dy3 2.398 . S
O13 C1 1.355 . S
O13 Dy3 2.491 . S
O14 Dy3 2.403 . S
O14 C9 1.254 1_655 S
O15 Dy0 2.310 . S
O15 Dy3 2.664 1_455 S
O15 C9 1.268 . S
O16 Dy0 2.351 1_655 S
O16 C19 1.249 . S
O17 Dy3 2.326 . S
O17 C19 1.267 . S
C18 O10 1.249 . S
C18 O11 1.267 . S
C19 O16 1.249 . S
C19 O17 1.267 . S
Dy20 O24 2.398 . S
Dy20 O25 2.491 . S
Dy20 O26 2.403 . S
Dy20 O27 2.664 1_565 S
Dy20 O31 2.326 . S
Dy20 O35 2.310 . S
Dy20 O36 2.351 1_565 S
C21 O32 1.185 . S
C21 O33 1.355 . S
C22 O24 1.185 . S
C22 O25 1.355 . S
Dy23 O27 2.310 . S
Dy23 O30 2.351 1_545 S
Dy23 O32 2.398 . S
Dy23 O33 2.491 . S
Dy23 O34 2.403 . S
Dy23 O35 2.664 1_545 S
Dy23 O37 2.326 . S
O24 Dy20 2.398 . S
O24 C22 1.185 . S
O25 Dy20 2.491 . S
O25 C22 1.355 . S
O26 Dy20 2.403 . S
O26 C28 1.254 1_565 S
O27 Dy20 2.664 1_545 S
O27 Dy23 2.310 . S
O27 C28 1.268 . S
C28 O26 1.254 1_545 S
C28 O27 1.268 . S
C29 O34 1.254 . S
C29 O35 1.268 1_545 S
O30 Dy23 2.351 1_565 S
O30 C38 1.249 . S
O31 Dy20 2.326 . S
O31 C38 1.267 . S
O32 C21 1.185 . S
O32 Dy23 2.398 . S
O33 C21 1.355 . S
O33 Dy23 2.491 . S
O34 Dy23 2.403 . S
O34 C29 1.254 . S
O35 Dy20 2.310 . S
O35 Dy23 2.664 1_565 S
O35 C29 1.268 1_565 S
O36 Dy20 2.351 1_545 S
O36 C39 1.249 . S
O37 Dy23 2.326 . S
O37 C39 1.267 . S
C38 O30 1.249 . S
C38 O31 1.267 . S
C39 O36 1.249 . S
C39 O37 1.267 . S
Dy40 O44 2.398 . S
Dy40 O45 2.491 . S
Dy40 O46 2.403 . S
Dy40 O47 2.664 . S
Dy40 O51 2.326 . S
Dy40 O55 2.310 . S
Dy40 O56 2.351 . S
C41 O52 1.185 . S
C41 O53 1.355 . S
C42 O44 1.185 . S
C42 O45 1.355 . S
Dy43 O47 2.310 . S
Dy43 O50 2.351 . S
Dy43 O52 2.398 . S
Dy43 O53 2.491 . S
Dy43 O54 2.403 . S
Dy43 O55 2.664 . S
Dy43 O57 2.326 . S
O44 Dy40 2.398 . S
O44 C42 1.185 . S
O45 Dy40 2.491 . S
O45 C42 1.355 . S
O46 Dy40 2.403 . S
O46 C48 1.254 . S
O47 Dy40 2.664 . S
O47 Dy43 2.310 . S
O47 C48 1.268 . S
C48 O46 1.254 . S
C48 O47 1.268 . S
C49 O54 1.254 . S
C49 O55 1.268 . S
O50 Dy43 2.351 . S
O50 C58 1.249 . S
O51 Dy40 2.326 . S
O51 C58 1.267 . S
O52 C41 1.185 . S
O52 Dy43 2.398 . S
O53 C41 1.355 . S
O53 Dy43 2.491 . S
O54 Dy43 2.403 . S
O54 C49 1.254 . S
O55 Dy40 2.310 . S
O55 Dy43 2.664 . S
O55 C49 1.268 . S
O56 Dy40 2.351 . S
O56 C59 1.249 . S
O57 Dy43 2.326 . S
O57 C59 1.267 . S
C58 O50 1.249 . S
C58 O51 1.267 . S
C59 O56 1.249 . S
C59 O57 1.267 . S
H60 C67 0.929 . S
H61 C70 0.930 . S
H62 C72 0.929 . S
H63 C64 0.969 . S
C64 H63 0.969 . S
C64 O65 1.550 . S
C64 H66 0.973 . S
O65 C64 1.550 . S
O65 C71 1.412 . S
H66 C64 0.973 . S
C67 H60 0.929 . S
C67 C68 1.400 . S
C67 C69 1.364 . S
C68 C67 1.400 . S
C68 C72 1.377 . S
C69 C67 1.364 . S
C69 C70 1.374 1_545 S
C70 H61 0.930 . S
C70 C69 1.374 1_565 S
C70 C71 1.383 . S
C71 O65 1.412 . S
C71 C70 1.383 . S
C71 C72 1.394 1_565 S
C72 H62 0.929 . S
C72 C68 1.377 . S
C72 C71 1.394 1_545 S
H73 C80 0.929 . S
H74 C83 0.930 . S
H75 C85 0.929 . S
H76 C77 0.969 . S
C77 H76 0.969 . S
C77 O78 1.550 . S
C77 H79 0.973 . S
O78 C77 1.550 . S
O78 C84 1.412 . S
H79 C77 0.973 . S
C80 H73 0.929 . S
C80 C81 1.400 . S
C80 C82 1.364 . S
C81 C80 1.400 . S
C81 C85 1.377 . S
C82 C80 1.364 . S
C82 C83 1.374 . S
C83 H74 0.930 . S
C83 C82 1.374 . S
C83 C84 1.383 . S
C84 O78 1.412 . S
C84 C83 1.383 . S
C84 C85 1.394 . S
C85 H75 0.929 . S
C85 C81 1.377 . S
C85 C84 1.394 . S
H86 C93 0.929 . S
H87 C96 0.930 . S
H88 C98 0.929 . S
H89 C90 0.969 . S
C90 H89 0.969 . S
C90 O91 1.550 . S
C90 H92 0.973 . S
O91 C90 1.550 . S
O91 C97 1.412 . S
H92 C90 0.973 . S
C93 H86 0.929 . S
C93 C94 1.400 . S
C93 C95 1.364 1_655 S
C94 C93 1.400 . S
C94 C98 1.377 1_655 S
C95 C93 1.364 1_455 S
C95 C96 1.374 . S
C96 H87 0.930 . S
C96 C95 1.374 . S
C96 C97 1.383 . S
C97 O91 1.412 . S
C97 C96 1.383 . S
C97 C98 1.394 . S
C98 H88 0.929 . S
C98 C94 1.377 1_455 S
C98 C97 1.394 . S
H99 C106 0.929 . S
H100 C109 0.930 . S
H101 C111 0.929 . S
H102 C103 0.969 . S
C103 H102 0.969 . S
C103 O104 1.550 . S
C103 H105 0.973 . S
O104 C103 1.550 . S
O104 C110 1.412 . S
H105 C103 0.973 . S
C106 H99 0.929 . S
C106 C107 1.400 . S
C106 C108 1.364 1_655 S
C107 C106 1.400 . S
C107 C111 1.377 . S
C108 C106 1.364 1_455 S
C108 C109 1.374 . S
C109 H100 0.930 . S
C109 C108 1.374 . S
C109 C110 1.383 . S
C110 O104 1.412 . S
C110 C109 1.383 . S
C110 C111 1.394 1_455 S
C111 H101 0.929 . S
C111 C107 1.377 . S
C111 C110 1.394 1_655 S
H112 C119 0.929 . S
H113 C122 0.930 . S
H114 C124 0.929 . S
H115 C116 0.969 . S
C116 H115 0.969 . S
C116 O117 1.550 . S
C116 H118 0.973 . S
O117 C116 1.550 . S
O117 C123 1.412 . S
H118 C116 0.973 . S
C119 H112 0.929 . S
C119 C120 1.400 . S
C119 C121 1.364 1_565 S
C120 C119 1.400 . S
C120 C124 1.377 . S
C121 C119 1.364 1_545 S
C121 C122 1.374 . S
C122 H113 0.930 . S
C122 C121 1.374 . S
C122 C123 1.383 . S
C123 O117 1.412 . S
C123 C122 1.383 . S
C123 C124 1.394 1_545 S
C124 H114 0.929 . S
C124 C120 1.377 . S
C124 C123 1.394 1_565 S
H125 C132 0.929 . S
H126 C135 0.930 . S
H127 C137 0.929 . S
H128 C129 0.969 . S
C129 H128 0.969 . S
C129 O130 1.550 . S
C129 H131 0.973 . S
O130 C129 1.550 . S
O130 C136 1.412 . S
H131 C129 0.973 . S
C132 H125 0.929 . S
C132 C133 1.400 . S
C132 C134 1.364 . S
C133 C132 1.400 . S
C133 C137 1.377 . S
C134 C132 1.364 . S
C134 C135 1.374 . S
C135 H126 0.930 . S
C135 C134 1.374 . S
C135 C136 1.383 . S
C136 O130 1.412 . S
C136 C135 1.383 . S
C136 C137 1.394 . S
C137 H127 0.929 . S
C137 C133 1.377 . S
C137 C136 1.394 . S
C2 C129 0.836 . S
C21 C107 0.934 . S
C42 C120 0.836 . S
C1 C133 0.826 . S
C103 C22 0.924 . S
C116 C41 0.766 . S
C38 C81 2.284 . S
C59 C94 2.349 . S
C18 C64 2.203 . S
C77 C39 2.307 . S
C90 C58 2.225 . S
C19 C68 2.355 . S
C95 C9 1.608 1_556 S
C29 C69 1.624 . S
C49 C82 1.620 . S
C121 C28 1.283 . S
C134 C48 1.538 1_554 S
C8 C108 1.393 . S
