# Generated by pormake.
# Topology pts, (4,4)-cn, num edge types: 1
# Building blocks:
#     Node 0, Type 0, BuildingBlock: MIFKUJ_clean_linker_1, # of connection points: 4
#     Node 1, Type 0, BuildingBlock: MIFKUJ_clean_linker_1, # of connection points: 4
#     Node 2, Type 1, BuildingBlock: QUQFOY_clean_sbu_1, # of connection points: 4
#     Node 3, Type 1, BuildingBlock: QUQFOY_clean_sbu_1, # of connection points: 4
#     Edge 4, Type (0, 1), BuildingBlock: AJUNOK_clean_linker_0, # of connection points: 2
#     Edge 5, Type (0, 1), BuildingBlock: AJUNOK_clean_linker_0, # of connection points: 2
#     Edge 6, Type (0, 1), BuildingBlock: AJUNOK_clean_linker_0, # of connection points: 2
#     Edge 7, Type (0, 1), BuildingBlock: AJUNOK_clean_linker_0, # of connection points: 2
#     Edge 8, Type (0, 1), BuildingBlock: AJUNOK_clean_linker_0, # of connection points: 2
#     Edge 9, Type (0, 1), BuildingBlock: AJUNOK_clean_linker_0, # of connection points: 2
#     Edge 10, Type (0, 1), BuildingBlock: AJUNOK_clean_linker_0, # of connection points: 2
#     Edge 11, Type (0, 1), BuildingBlock: AJUNOK_clean_linker_0, # of connection points: 2
# Relax obj value: 0.095
# Max RMSD: 0.258
# Mean RMSD: 0.153
data_MOF--net-pts--node1-QUQFOY_clean_sbu_1--node2-MIFKUJ_clean_linker_1--edge1-AJUNOK_clean_linker_0
_symmetry_space_group_name_H-M    P1
_symmetry_Int_Tables_number       1
_symmetry_cell_setting            triclinic
loop_
_symmetry_equiv_pos_as_xyz
'x, y, z'
_cell_length_a     22.881048
_cell_length_b     24.728133
_cell_length_c     33.447593
_cell_angle_alpha  90.170649
_cell_angle_beta   90.050542
_cell_angle_gamma 89.491998
loop_
_atom_site_label
_atom_site_type_symbol
_atom_site_fract_x
_atom_site_fract_y
_atom_site_fract_z
_atom_type_partial_charge
H0 H 0.59005 0.90877 0.07702 0.0
H1 H 0.67659 0.91277 0.1202 0.0
H2 H 0.68311 0.08588 0.10293 0.0
H3 H 0.59945 0.08069 0.05777 0.0
H4 H 0.48186 0.98292 0.09211 0.0
H5 H 0.62662 0.92939 0.99547 0.0
H6 H 0.71233 0.93188 0.95188 0.0
H7 H 0.65098 0.083 0.902 0.0
H8 H 0.56691 0.08173 0.94697 0.0
H9 H 0.39822 0.08578 0.94826 0.0
H10 H 0.3152 0.08945 0.90218 0.0
H11 H 0.254 0.93718 0.9483 0.0
H12 H 0.33838 0.9325 0.99314 0.0
H13 H 0.48249 0.01228 0.94553 0.0
H14 H 0.36907 0.08385 0.06171 0.0
H15 H 0.28562 0.08977 0.10705 0.0
H16 H 0.28355 0.9153 0.11546 0.0
H17 H 0.36985 0.91023 0.07215 0.0
C18 C 0.58935 0.99429 0.06381 0.0
C19 C 0.61107 0.94729 0.08205 0.0
C20 C 0.6601 0.94977 0.10692 0.0
C21 C 0.68736 0.99955 0.11461 0.0
C22 C 0.66466 0.04662 0.09658 0.0
C23 C 0.61656 0.04386 0.07102 0.0
C24 C 0.53539 0.99279 0.03976 0.0
C25 C 0.48202 0.98825 0.05991 0.0
C26 C 0.53573 1.00185 0.99811 0.0
C27 C 0.59052 0.00557 0.97472 0.0
C28 C 0.63232 0.96371 0.97587 0.0
C29 C 0.68072 0.96467 0.95044 0.0
C30 C 0.68766 0.00713 0.92303 0.0
C31 C 0.64671 0.04976 0.92279 0.0
C32 C 0.5986 0.04897 0.94837 0.0
C33 C 0.37438 0.00899 0.9743 0.0
C34 C 0.36665 0.05339 0.94868 0.0
C35 C 0.31921 0.05553 0.92244 0.0
C36 C 0.27879 0.01317 0.92124 0.0
C37 C 0.28525 0.96982 0.94803 0.0
C38 C 0.33287 0.96757 0.97416 0.0
C39 C 0.4289 1.00347 0.99791 0.0
C40 C 0.48239 0.00657 0.97769 0.0
C41 C 0.42885 0.99417 0.03952 0.0
C42 C 0.37476 0.99661 0.0633 0.0
C43 C 0.35008 0.04695 0.07303 0.0
C44 C 0.30213 0.05017 0.09871 0.0
C45 C 0.27716 1.00292 0.11434 0.0
C46 C 0.30185 0.95243 0.10407 0.0
C47 C 0.35071 0.94937 0.07909 0.0
H48 H 0.06267 0.43135 0.44479 0.0
H49 H 0.06433 0.34968 0.40331 0.0
H50 H 0.90089 0.29975 0.45523 0.0
H51 H 0.89888 0.38189 0.49643 0.0
H52 H -0.01134 0.51304 0.44518 0.0
H53 H 0.05172 0.38094 0.54077 0.0
H54 H 0.04993 0.29902 0.58169 0.0
H55 H 0.88635 0.35141 0.6338 0.0
H56 H 0.88795 0.4331 0.59261 0.0
H57 H 0.88758 0.60703 0.58562 0.0
H58 H 0.89192 0.69025 0.62598 0.0
H59 H 0.06995 0.71435 0.58825 0.0
H60 H 0.06529 0.63183 0.54727 0.0
H61 H 0.96407 0.51374 0.59249 0.0
H62 H 0.90351 0.64706 0.4972 0.0
H63 H 0.90774 0.72944 0.45696 0.0
H64 H 0.07072 0.67449 0.40537 0.0
H65 H 0.06659 0.59222 0.44584 0.0
C66 C -0.01915 0.41269 0.47393 0.0
C67 C 0.02725 0.40279 0.44738 0.0
C68 C 0.02826 0.35611 0.4238 0.0
C69 C -0.017 0.31827 0.42636 0.0
C70 C 0.93688 0.32776 0.45325 0.0
C71 C 0.93567 0.37472 0.4767 0.0
C72 C 0.97913 0.46357 0.4977 0.0
C73 C -0.01595 0.51305 0.47746 0.0
C74 C 0.97158 0.46375 0.53973 0.0
C75 C 0.96966 0.41299 0.56332 0.0
C76 C 0.01491 0.37435 0.56045 0.0
C77 C 0.01381 0.3275 0.58374 0.0
C78 C 0.9677 0.31869 0.61059 0.0
C79 C 0.92238 0.35725 0.61331 0.0
C80 C 0.92333 0.40392 0.58989 0.0
C81 C 0.97608 0.61345 0.5635 0.0
C82 C 0.92735 0.63048 0.58583 0.0
C83 C 0.92968 0.67798 0.60856 0.0
C84 C -0.01886 0.7084 0.60982 0.0
C85 C 0.02979 0.69149 0.5874 0.0
C86 C 0.02715 0.64451 0.56417 0.0
C87 C 0.97412 0.56271 0.53992 0.0
C88 C 0.96852 0.51343 0.5602 0.0
C89 C -0.01853 0.56261 0.498 0.0
C90 C -0.01498 0.61362 0.47481 0.0
C91 C 0.94075 0.65318 0.47781 0.0
C92 C 0.94324 0.70031 0.4549 0.0
C93 C -0.01013 0.70855 0.42838 0.0
C94 C 0.0343 0.6691 0.4256 0.0
C95 C 0.03191 0.62211 0.44861 0.0
O96 O 0.9059 0.96754 0.23753 0.0
Cd97 Cd -0.01649 0.95778 0.26869 0.0
Cd98 Cd -0.01882 0.06999 0.26488 0.0
O99 O 0.90621 0.05671 0.23287 0.0
O100 O -0.01405 0.87876 0.27972 0.0
O101 O -0.0158 0.94004 0.32773 0.0
C102 C -0.01416 0.88971 0.31736 0.0
C103 C 0.98033 0.13791 0.31385 0.0
C104 C 0.88327 0.01139 0.22489 0.0
C105 C 0.08122 0.01347 0.2247 0.0
O106 O 0.05669 0.05833 0.23301 0.0
O107 O 0.06022 0.96921 0.23717 0.0
O108 O 0.98006 0.14899 0.27625 0.0
O109 O -0.01922 0.08752 0.32395 0.0
O110 O 0.90549 0.0562 0.80327 0.0
Cd111 Cd -0.01943 0.07111 0.77148 0.0
Cd112 Cd -0.01575 0.95829 0.76844 0.0
O113 O 0.90828 0.96704 0.80102 0.0
O114 O 0.97616 0.15 0.76026 0.0
O115 O 0.97888 0.08834 0.71246 0.0
C116 C 0.97624 0.13874 0.72264 0.0
C117 C -0.01334 0.88924 0.72047 0.0
C118 C 0.88385 0.01076 0.81247 0.0
C119 C 0.08351 0.01654 0.80981 0.0
O120 O 0.06164 0.97216 0.79819 0.0
O121 O 0.05803 0.06112 0.80201 0.0
O122 O -0.01005 0.87911 0.75811 0.0
O123 O -0.01885 0.9391 0.70962 0.0
C124 C 0.22533 0.97373 0.17671 0.0
C125 C 0.2266 0.0063 0.1422 0.0
C126 C 0.17828 0.97633 0.20351 0.0
C127 C 0.13151 0.01244 0.19721 0.0
H128 H 0.26119 0.94627 0.18329 0.0
H129 H 0.1788 0.95035 0.22954 0.0
S130 S 0.11081 0.10303 0.1101 0.0
N131 N 0.17426 0.07273 0.10188 0.0
N132 N 0.08741 0.07938 0.15327 0.0
C133 C 0.13195 0.04506 0.16291 0.0
C134 C 0.17912 0.0416 0.13517 0.0
C135 C 0.96175 0.27976 0.67914 0.0
C136 C 0.96875 0.27145 0.63786 0.0
C137 C 0.96414 0.23653 0.70599 0.0
C138 C 0.97325 0.18299 0.69272 0.0
H139 H 0.95532 0.32024 0.69092 0.0
H140 H 0.95887 0.24542 0.73752 0.0
S141 S -0.00825 0.13949 0.58705 0.0
N142 N -0.01645 0.20582 0.58455 0.0
N143 N -0.01198 0.12413 0.63502 0.0
C144 C 0.9796 0.17398 0.65132 0.0
C145 C 0.97748 0.21829 0.62393 0.0
C146 C 0.73829 0.97325 0.17835 0.0
C147 C 0.73823 1.00258 0.14224 0.0
C148 C 0.78538 0.97613 0.20514 0.0
C149 C 0.83332 0.00941 0.19719 0.0
H150 H 0.7014 0.9483 0.18622 0.0
H151 H 0.78391 0.95281 0.23249 0.0
S152 S 0.85776 0.09013 0.10561 0.0
N153 N 0.79326 0.0622 0.09869 0.0
N154 N 0.88007 0.06967 0.15006 0.0
C155 C 0.83424 0.03853 0.16123 0.0
C156 C 0.7871 0.03466 0.13353 0.0
C157 C 0.95343 0.80317 0.62909 0.0
C158 C -0.01463 0.75551 0.63684 0.0
C159 C 0.9556 0.84733 0.65559 0.0
C160 C -0.01141 0.8445 0.69107 0.0
H161 H 0.9265 0.80613 0.60252 0.0
H162 H 0.92989 0.88318 0.6489 0.0
S163 S 0.0812 0.72892 0.72397 0.0
N164 N 0.05232 0.70855 0.68129 0.0
N165 N 0.05538 0.79067 0.73165 0.0
C166 C 0.02118 0.79714 0.69873 0.0
C167 C 0.01982 0.75282 0.67144 0.0
C168 C 0.19591 0.06039 0.8866 0.0
C169 C 0.23079 0.01378 0.89142 0.0
C170 C 0.14958 0.06148 0.85919 0.0
C171 C 0.13628 0.01594 0.83558 0.0
H172 H 0.20369 0.09594 0.90479 0.0
H173 H 0.12305 0.09789 0.85736 0.0
S174 S 0.21885 0.88594 0.83377 0.0
N175 N 0.25227 0.92259 0.86805 0.0
N176 N 0.16477 0.92418 0.81689 0.0
C177 C 0.17213 0.96963 0.83923 0.0
C178 C 0.2194 0.96864 0.86708 0.0
C179 C -0.01109 0.27929 0.35766 0.0
C180 C -0.01773 0.27103 0.39892 0.0
C181 C -0.01204 0.23596 0.3307 0.0
C182 C -0.01921 0.18236 0.34384 0.0
H183 H -0.00578 0.3198 0.346 0.0
H184 H -0.00688 0.2448 0.2992 0.0
S185 S 0.96312 0.13905 0.44936 0.0
N186 N 0.96918 0.20548 0.45204 0.0
N187 N 0.96757 0.12355 0.40136 0.0
C188 C 0.97443 0.17343 0.3852 0.0
C189 C 0.975 0.21786 0.4127 0.0
C190 C 0.77026 0.05386 0.88901 0.0
C191 C 0.73696 0.00693 0.89426 0.0
C192 C 0.81679 0.05494 0.86189 0.0
C193 C 0.83207 0.00903 0.83903 0.0
H194 H 0.7608 0.0899 0.90642 0.0
H195 H 0.84166 0.09186 0.85949 0.0
S196 S 0.75535 0.87734 0.8393 0.0
N197 N 0.71985 0.91447 0.87259 0.0
N198 N 0.80805 0.91603 0.82208 0.0
C199 C 0.79843 0.96204 0.84351 0.0
C200 C 0.75079 0.96109 0.87102 0.0
C201 C -0.00226 0.74814 0.36014 0.0
C202 C -0.00984 0.7561 0.40141 0.0
C203 C -0.00361 0.79166 0.33353 0.0
C204 C -0.01223 0.84515 0.34704 0.0
H205 H 0.00376 0.70771 0.34816 0.0
H206 H 0.00206 0.78303 0.302 0.0
S207 S 0.96802 0.88783 0.45275 0.0
N208 N 0.97533 0.82139 0.45496 0.0
N209 N 0.9728 0.90361 0.40491 0.0
C210 C -0.01913 0.85383 0.38842 0.0
C211 C -0.01807 0.80923 0.41557 0.0
loop_
_geom_bond_atom_site_label_1
_geom_bond_atom_site_label_2
_geom_bond_distance
_geom_bond_site_symmetry_2
_ccdc_geom_bond_type
H0 C19 0.949 . S
H1 C20 0.950 . S
H2 C22 0.950 . S
H3 C23 0.950 . S
H4 C25 0.950 . S
H5 C28 0.950 . S
H6 C29 0.950 . S
H7 C31 0.951 . S
H8 C32 0.949 . S
H9 C34 0.949 . S
H10 C35 0.950 . S
H11 C37 0.950 . S
H12 C38 0.950 . S
H13 C40 0.950 . S
H14 C43 0.950 . S
H15 C44 0.950 . S
H16 C46 0.951 . S
H17 C47 0.949 . S
C18 C19 1.376 1_545 S
C18 C23 1.386 . S
C18 C24 1.483 . S
C19 H0 0.949 . S
C19 C18 1.376 1_565 S
C19 C20 1.397 . S
C20 H1 0.950 . S
C20 C19 1.397 . S
C20 C21 1.391 1_565 S
C21 C20 1.391 1_545 S
C21 C22 1.405 . S
C22 H2 0.950 . S
C22 C21 1.405 . S
C22 C23 1.367 . S
C23 H3 0.950 . S
C23 C18 1.386 . S
C23 C22 1.367 . S
C24 C18 1.483 . S
C24 C25 1.382 1_545 S
C24 C26 1.403 1_554 S
C25 H4 0.950 . S
C25 C24 1.382 1_565 S
C25 C41 1.411 1_565 S
C26 C24 1.403 1_556 S
C26 C27 1.489 . S
C26 C40 1.411 . S
C27 C26 1.489 . S
C27 C28 1.383 1_545 S
C27 C32 1.382 . S
C28 H5 0.950 . S
C28 C27 1.383 1_565 S
C28 C29 1.395 . S
C29 H6 0.950 . S
C29 C28 1.395 . S
C29 C30 1.288 1_565 S
C30 C29 1.288 1_545 S
C30 C31 1.392 . S
C31 H7 0.951 . S
C31 C30 1.392 . S
C31 C32 1.392 . S
C32 H8 0.949 . S
C32 C27 1.382 . S
C32 C31 1.392 . S
C33 C34 1.376 . S
C33 C38 1.386 1_545 S
C33 C39 1.483 . S
C34 H9 0.949 . S
C34 C33 1.376 . S
C34 C35 1.397 . S
C35 H10 0.950 . S
C35 C34 1.397 . S
C35 C36 1.391 . S
C36 C35 1.391 . S
C36 C37 1.405 1_545 S
C37 H11 0.950 . S
C37 C36 1.405 1_565 S
C37 C38 1.367 . S
C38 H12 0.950 . S
C38 C33 1.386 1_565 S
C38 C37 1.367 . S
C39 C33 1.483 . S
C39 C40 1.382 . S
C39 C41 1.403 1_556 S
C40 H13 0.950 . S
C40 C26 1.411 . S
C40 C39 1.382 . S
C41 C25 1.411 1_545 S
C41 C39 1.403 1_554 S
C41 C42 1.489 . S
C42 C41 1.489 . S
C42 C43 1.383 . S
C42 C47 1.382 1_545 S
C43 H14 0.950 . S
C43 C42 1.383 . S
C43 C44 1.395 . S
C44 H15 0.950 . S
C44 C43 1.395 . S
C44 C45 1.288 . S
C45 C44 1.288 . S
C45 C46 1.392 1_545 S
C46 H16 0.951 . S
C46 C45 1.392 1_565 S
C46 C47 1.392 . S
C47 H17 0.949 . S
C47 C42 1.382 1_565 S
C47 C46 1.392 . S
H48 C67 0.949 . S
H49 C68 0.950 . S
H50 C70 0.950 . S
H51 C71 0.950 . S
H52 C73 0.950 . S
H53 C76 0.950 . S
H54 C77 0.950 . S
H55 C79 0.951 . S
H56 C80 0.949 . S
H57 C82 0.949 . S
H58 C83 0.950 . S
H59 C85 0.950 . S
H60 C86 0.950 . S
H61 C88 0.950 . S
H62 C91 0.950 . S
H63 C92 0.950 . S
H64 C94 0.951 . S
H65 C95 0.949 . S
C66 C67 1.376 . S
C66 C71 1.386 1_455 S
C66 C72 1.483 . S
C67 H48 0.949 . S
C67 C66 1.376 . S
C67 C68 1.397 . S
C68 H49 0.950 . S
C68 C67 1.397 . S
C68 C69 1.391 . S
C69 C68 1.391 . S
C69 C70 1.405 1_455 S
C70 H50 0.950 . S
C70 C69 1.405 1_655 S
C70 C71 1.367 . S
C71 H51 0.950 . S
C71 C66 1.386 1_655 S
C71 C70 1.367 . S
C72 C66 1.483 . S
C72 C73 1.382 . S
C72 C74 1.403 1_455 S
C73 H52 0.950 . S
C73 C72 1.382 . S
C73 C89 1.411 . S
C74 C72 1.403 1_655 S
C74 C75 1.489 . S
C74 C88 1.411 . S
C75 C74 1.489 . S
C75 C76 1.383 1_655 S
C75 C80 1.382 . S
C76 H53 0.950 . S
C76 C75 1.383 1_455 S
C76 C77 1.395 . S
C77 H54 0.950 . S
C77 C76 1.395 . S
C77 C78 1.288 1_455 S
C78 C77 1.288 1_655 S
C78 C79 1.392 . S
C79 H55 0.951 . S
C79 C78 1.392 . S
C79 C80 1.392 . S
C80 H56 0.949 . S
C80 C75 1.382 . S
C80 C79 1.392 . S
C81 C82 1.376 . S
C81 C86 1.386 1_655 S
C81 C87 1.483 . S
C82 H57 0.949 . S
C82 C81 1.376 . S
C82 C83 1.397 . S
C83 H58 0.950 . S
C83 C82 1.397 . S
C83 C84 1.391 . S
C84 C83 1.391 . S
C84 C85 1.405 1_655 S
C85 H59 0.950 . S
C85 C84 1.405 1_455 S
C85 C86 1.367 . S
C86 H60 0.950 . S
C86 C81 1.386 1_455 S
C86 C85 1.367 . S
C87 C81 1.483 . S
C87 C88 1.382 . S
C87 C89 1.403 1_655 S
C88 H61 0.950 . S
C88 C74 1.411 . S
C88 C87 1.382 . S
C89 C73 1.411 . S
C89 C87 1.403 1_455 S
C89 C90 1.489 . S
C90 C89 1.489 . S
C90 C91 1.383 1_455 S
C90 C95 1.382 . S
C91 H62 0.950 . S
C91 C90 1.383 1_655 S
C91 C92 1.395 . S
C92 H63 0.950 . S
C92 C91 1.395 . S
C92 C93 1.288 1_655 S
C93 C92 1.288 1_455 S
C93 C94 1.392 . S
C94 H64 0.951 . S
C94 C93 1.392 . S
C94 C95 1.392 . S
C95 H65 0.949 . S
C95 C90 1.382 . S
C95 C94 1.392 . S
O96 Cd97 2.223 1_655 S
O96 C104 1.315 . S
Cd97 O96 2.223 1_455 S
Cd97 O100 2.297 1_455 S
Cd97 O101 2.439 1_455 S
Cd97 O107 2.240 1_565 S
Cd98 O99 2.256 . S
Cd98 O106 2.223 1_655 S
Cd98 O108 2.297 1_655 S
Cd98 O109 2.439 1_655 S
O99 Cd98 2.256 . S
O99 C104 1.270 1_545 S
O100 Cd97 2.297 1_655 S
O100 C102 1.247 . S
O101 Cd97 2.439 1_655 S
O101 C102 1.208 . S
C102 O100 1.247 . S
C102 O101 1.208 . S
C103 O108 1.247 . S
C103 O109 1.208 . S
C104 O96 1.315 . S
C104 O99 1.270 1_565 S
C105 O106 1.315 . S
C105 O107 1.279 . S
O106 Cd98 2.223 1_455 S
O106 C105 1.315 . S
O107 Cd97 2.240 1_545 S
O107 C105 1.279 . S
O108 Cd98 2.297 1_455 S
O108 C103 1.247 . S
O109 Cd98 2.439 1_455 S
O109 C103 1.208 . S
O110 Cd111 2.223 1_655 S
O110 C118 1.315 . S
Cd111 O110 2.223 1_455 S
Cd111 O114 2.297 1_455 S
Cd111 O115 2.439 1_455 S
Cd111 O121 2.252 . S
Cd112 O113 2.240 1_565 S
Cd112 O120 2.223 1_655 S
Cd112 O122 2.297 1_655 S
Cd112 O123 2.439 1_655 S
O113 Cd112 2.240 1_545 S
O113 C118 1.279 . S
O114 Cd111 2.297 1_655 S
O114 C116 1.247 . S
O115 Cd111 2.439 1_655 S
O115 C116 1.208 . S
C116 O114 1.247 . S
C116 O115 1.208 . S
C117 O122 1.247 . S
C117 O123 1.208 . S
C118 O110 1.315 . S
C118 O113 1.279 . S
C119 O120 1.315 . S
C119 O121 1.272 1_565 S
O120 Cd112 2.223 1_455 S
O120 C119 1.315 . S
O121 Cd111 2.252 . S
O121 C119 1.272 1_545 S
O122 Cd112 2.297 1_455 S
O122 C117 1.247 . S
O123 Cd112 2.439 1_455 S
O123 C117 1.208 . S
C124 C125 1.369 1_565 S
C124 C126 1.418 1_565 S
C124 H128 0.930 . S
C125 C124 1.369 1_545 S
C125 C134 1.429 . S
C126 C124 1.418 1_545 S
C126 C127 1.366 . S
C126 H129 0.927 1_545 S
C127 C126 1.366 . S
C127 C133 1.428 . S
H128 C124 0.930 . S
H129 C126 0.927 1_565 S
S130 N131 1.613 . S
S130 N132 1.610 . S
N131 S130 1.613 . S
N131 C134 1.350 . S
N132 S130 1.610 . S
N132 C133 1.351 . S
C133 C127 1.428 . S
C133 N132 1.351 . S
C133 C134 1.434 . S
C134 C125 1.429 . S
C134 N131 1.350 . S
C134 C133 1.434 . S
C135 C136 1.369 . S
C135 C137 1.419 . S
C135 H139 0.930 . S
C136 C135 1.369 . S
C136 C145 1.429 . S
C137 C135 1.419 . S
C137 C138 1.363 . S
C137 H140 0.929 . S
C138 C137 1.363 . S
C138 C144 1.428 . S
H139 C135 0.930 . S
H140 C137 0.929 . S
S141 N142 1.613 . S
S141 N143 1.610 . S
N142 S141 1.613 . S
N142 C145 1.350 . S
N143 S141 1.610 . S
N143 C144 1.351 . S
C144 C138 1.428 . S
C144 N143 1.351 . S
C144 C145 1.434 . S
C145 C136 1.429 . S
C145 N142 1.350 . S
C145 C144 1.434 . S
C146 C147 1.369 1_565 S
C146 C148 1.419 . S
C146 H150 0.930 . S
C147 C146 1.369 1_545 S
C147 C156 1.429 1_545 S
C148 C146 1.419 . S
C148 C149 1.363 . S
C148 H151 0.929 . S
C149 C148 1.363 . S
C149 C155 1.428 . S
H150 C146 0.930 . S
H151 C148 0.929 . S
S152 N153 1.613 1_565 S
S152 N154 1.610 . S
N153 S152 1.613 1_545 S
N153 C156 1.350 1_545 S
N154 S152 1.610 . S
N154 C155 1.351 . S
C155 C149 1.428 . S
C155 N154 1.351 . S
C155 C156 1.435 . S
C156 C147 1.429 1_565 S
C156 N153 1.350 1_565 S
C156 C155 1.435 . S
C157 C158 1.369 1_655 S
C157 C159 1.419 . S
C157 H161 0.930 . S
C158 C157 1.369 1_455 S
C158 C167 1.429 . S
C159 C157 1.419 . S
C159 C160 1.363 1_655 S
C159 H162 0.929 . S
C160 C159 1.363 1_455 S
C160 C166 1.428 . S
H161 C157 0.930 . S
H162 C159 0.929 . S
S163 N164 1.613 . S
S163 N165 1.610 . S
N164 S163 1.613 . S
N164 C167 1.350 . S
N165 S163 1.610 . S
N165 C166 1.351 . S
C166 C160 1.428 . S
C166 N165 1.351 . S
C166 C167 1.434 . S
C167 C158 1.429 . S
C167 N164 1.350 . S
C167 C166 1.434 . S
C168 C169 1.385 . S
C168 C170 1.419 . S
C168 H172 0.930 . S
C169 C168 1.385 . S
C169 C178 1.409 1_545 S
C170 C168 1.419 . S
C170 C171 1.363 1_545 S
C170 H173 0.929 . S
C171 C170 1.363 1_565 S
C171 C177 1.428 . S
H172 C168 0.930 . S
H173 C170 0.929 . S
S174 N175 1.613 . S
S174 N176 1.610 . S
N175 S174 1.613 . S
N175 C178 1.350 . S
N176 S174 1.610 . S
N176 C177 1.351 . S
C177 C171 1.428 . S
C177 N176 1.351 . S
C177 C178 1.434 . S
C178 C169 1.409 1_565 S
C178 N175 1.350 . S
C178 C177 1.434 . S
C179 C180 1.369 . S
C179 C181 1.419 . S
C179 H183 0.930 . S
C180 C179 1.369 . S
C180 C189 1.429 1_455 S
C181 C179 1.419 . S
C181 C182 1.363 . S
C181 H184 0.929 . S
C182 C181 1.363 . S
C182 C188 1.428 . S
H183 C179 0.930 . S
H184 C181 0.929 . S
S185 N186 1.613 . S
S185 N187 1.610 . S
N186 S185 1.613 . S
N186 C189 1.350 . S
N187 S185 1.610 . S
N187 C188 1.351 1_655 S
C188 C182 1.428 . S
C188 N187 1.351 1_455 S
C188 C189 1.434 1_455 S
C189 C180 1.429 1_655 S
C189 N186 1.350 . S
C189 C188 1.434 1_655 S
C190 C191 1.369 . S
C190 C192 1.419 . S
C190 H194 0.930 . S
C191 C190 1.369 . S
C191 C200 1.429 1_545 S
C192 C190 1.419 . S
C192 C193 1.363 . S
C192 H195 0.929 . S
C193 C192 1.363 . S
C193 C199 1.428 . S
H194 C190 0.930 . S
H195 C192 0.929 . S
S196 N197 1.613 . S
S196 N198 1.610 . S
N197 S196 1.613 . S
N197 C200 1.350 . S
N198 S196 1.610 . S
N198 C199 1.351 1_565 S
C199 C193 1.428 . S
C199 N198 1.351 1_545 S
C199 C200 1.434 1_545 S
C200 C191 1.429 1_565 S
C200 N197 1.350 . S
C200 C199 1.434 1_565 S
C201 C202 1.369 . S
C201 C203 1.419 . S
C201 H205 0.930 . S
C202 C201 1.369 . S
C202 C211 1.429 1_655 S
C203 C201 1.419 . S
C203 C204 1.363 . S
C203 H206 0.929 . S
C204 C203 1.363 . S
C204 C210 1.428 1_655 S
H205 C201 0.930 . S
H206 C203 0.929 . S
S207 N208 1.613 . S
S207 N209 1.610 . S
N208 S207 1.613 . S
N208 C211 1.350 . S
N209 S207 1.610 . S
N209 C210 1.351 . S
C210 C204 1.428 1_455 S
C210 N209 1.351 . S
C210 C211 1.434 . S
C211 C202 1.429 1_455 S
C211 N208 1.350 . S
C211 C210 1.434 . S
C127 C105 1.639 . S
C125 C45 1.638 . S
C138 C116 1.541 . S
C136 C78 1.604 . S
C149 C104 1.640 . S
C147 C21 1.631 . S
C160 C117 1.540 . S
C158 C84 1.627 1_455 S
C171 C119 1.640 . S
C169 C36 1.641 . S
C182 C103 1.540 . S
C180 C69 1.618 . S
C193 C118 1.638 . S
C191 C30 1.618 . S
C202 C93 1.632 1_655 S
C204 C102 1.539 . S
