# Generated by pormake.
# Topology anh, (6,3)-cn, num edge types: 1
# Building blocks:
#     Node 0, Type 0, BuildingBlock: BETDEL_clean_sbu_0, # of connection points: 6
#     Node 1, Type 0, BuildingBlock: BETDEL_clean_sbu_0, # of connection points: 6
#     Node 2, Type 0, BuildingBlock: BETDEL_clean_sbu_0, # of connection points: 6
#     Node 3, Type 1, BuildingBlock: CUQRIR_clean_linker_1, # of connection points: 3
#     Node 4, Type 1, BuildingBlock: CUQRIR_clean_linker_1, # of connection points: 3
#     Node 5, Type 1, BuildingBlock: CUQRIR_clean_linker_1, # of connection points: 3
#     Node 6, Type 1, BuildingBlock: CUQRIR_clean_linker_1, # of connection points: 3
#     Node 7, Type 1, BuildingBlock: CUQRIR_clean_linker_1, # of connection points: 3
#     Node 8, Type 1, BuildingBlock: CUQRIR_clean_linker_1, # of connection points: 3
#     Edge 9, Type (0, 1), None
#     Edge 10, Type (0, 1), None
#     Edge 11, Type (0, 1), None
#     Edge 12, Type (0, 1), None
#     Edge 13, Type (0, 1), None
#     Edge 14, Type (0, 1), None
#     Edge 15, Type (0, 1), None
#     Edge 16, Type (0, 1), None
#     Edge 17, Type (0, 1), None
#     Edge 18, Type (0, 1), None
#     Edge 19, Type (0, 1), None
#     Edge 20, Type (0, 1), None
#     Edge 21, Type (0, 1), None
#     Edge 22, Type (0, 1), None
#     Edge 23, Type (0, 1), None
#     Edge 24, Type (0, 1), None
#     Edge 25, Type (0, 1), None
#     Edge 26, Type (0, 1), None
# Relax obj value: 0.243
# Max RMSD: 0.216
# Mean RMSD: 0.143
data_MOF--net-anh--node1-BETDEL_clean_sbu_0--node2-CUQRIR_clean_linker_1--edge1-none
_symmetry_space_group_name_H-M    P1
_symmetry_Int_Tables_number       1
_symmetry_cell_setting            triclinic
loop_
_symmetry_equiv_pos_as_xyz
'x, y, z'
_cell_length_a     10.745161
_cell_length_b     10.676401
_cell_length_c     17.720647
_cell_angle_alpha  83.696913
_cell_angle_beta   88.727712
_cell_angle_gamma 119.47748
loop_
_atom_site_label
_atom_site_type_symbol
_atom_site_fract_x
_atom_site_fract_y
_atom_site_fract_z
_atom_type_partial_charge
Dy0 Dy 0.22355 0.50557 0.16939 0.0
C1 C 0.91613 0.74058 0.08582 0.0
C2 C 0.42894 0.42404 0.1771 0.0
Dy3 Dy 0.11101 0.65777 0.1188 0.0
O4 O 0.41701 0.51252 0.21658 0.0
O5 O 0.30541 0.35159 0.14974 0.0
O6 O 0.13066 0.43641 0.28672 0.0
O7 O 0.17724 0.64413 0.23554 0.0
C8 C 0.12822 0.55285 0.29643 0.0
C9 C 0.22224 0.61294 -0.00517 0.0
O10 O 0.31151 0.86588 0.13683 0.0
O11 O 0.42332 0.73386 0.15529 0.0
O12 O 0.98854 0.71703 0.03612 0.0
O13 O 0.97659 0.75172 0.14876 0.0
O14 O 0.25444 0.74067 0.01063 0.0
O15 O 0.14986 0.51738 0.05247 0.0
O16 O 1.00304 0.30622 0.19389 0.0
O17 O 0.90037 0.43402 0.14319 0.0
C18 C 0.43004 0.86226 0.1501 0.0
C19 C 0.88559 0.30898 0.17627 0.0
Dy20 Dy 0.53121 1.0374 0.48926 0.0
C21 C 1.1087 0.39434 0.45724 0.0
C22 C 0.24928 0.88543 0.46999 0.0
Dy23 Dy 0.83654 0.17974 0.46913 0.0
O24 O 0.34729 0.98312 0.41905 0.0
O25 O 0.30292 0.9015 0.53514 0.0
O26 O 0.54451 0.95861 0.60884 0.0
O27 O 0.69343 0.16568 0.56121 0.0
C28 C 0.65445 0.07885 0.62189 0.0
C29 C 0.75492 0.12852 0.32837 0.0
O30 O 0.79408 0.95637 0.52146 0.0
O31 O 0.56653 0.84277 0.48284 0.0
O32 O 1.05384 0.30184 0.41037 0.0
O33 O 1.02935 0.33284 0.52134 0.0
O34 O 0.88607 0.20153 0.34271 0.0
O35 O 0.67183 0.09464 0.38794 0.0
O36 O 0.56285 0.2683 0.48239 0.0
O37 O 0.80742 0.37598 0.48149 0.0
C38 C 0.67682 0.83441 0.51034 0.0
C39 C 0.68926 0.38673 0.48582 0.0
Dy40 Dy 0.78198 0.82475 0.80821 0.0
C41 C 0.51402 0.2637 0.81443 0.0
C42 C 0.8155 0.08083 0.75294 0.0
Dy43 Dy 0.61934 0.55098 0.80897 0.0
O44 O 0.85544 1.05456 0.8188 0.0
O45 O 0.80328 0.98436 0.71123 0.0
O46 O 0.8584 0.8131 0.9265 0.0
O47 O 0.6465 0.66861 0.90328 0.0
C48 C 0.73625 0.69892 0.95279 0.0
C49 C 0.70064 0.69087 0.66189 0.0
O50 O 0.42582 0.55605 0.85474 0.0
O51 O 0.54666 0.7955 0.81242 0.0
O52 O 0.47123 0.33946 0.77237 0.0
O53 O 0.59706 0.34279 0.8621 0.0
O54 O 0.56939 0.61198 0.69155 0.0
O55 O 0.77934 0.70284 0.71551 0.0
O56 O 0.98052 0.80062 0.79805 0.0
O57 O 0.82993 0.55976 0.83526 0.0
C58 C 0.42268 0.6777 0.84136 0.0
C59 C 0.96326 0.67027 0.82109 0.0
C60 C 0.64213 0.11666 0.14746 0.0
N61 N 0.75122 0.18351 0.19378 0.0
N62 N 0.54422 0.97615 0.17867 0.0
C63 C 0.63352 0.18619 0.07179 0.0
C64 C 0.59091 0.96675 0.24827 0.0
N65 N 0.71115 0.09095 0.25843 0.0
C66 C 0.51804 0.83683 0.3088 0.0
H67 H 0.65614 0.29838 0.07545 0.0
H68 H 0.52591 0.12267 0.05136 0.0
H69 H 0.71689 0.19224 0.0318 0.0
H70 H 0.46333 0.73244 0.28616 0.0
H71 H 0.4377 0.84587 0.34416 0.0
H72 H 0.59961 0.83608 0.34515 0.0
C73 C 0.63706 0.59162 0.48711 0.0
N74 N 0.67009 0.70136 0.53059 0.0
N75 N 0.69662 0.50843 0.51199 0.0
C76 C 0.5581 0.57259 0.41702 0.0
C77 C 0.75957 0.5681 0.57497 0.0
N78 N 0.73557 0.67816 0.58899 0.0
C79 C 0.8258 0.50592 0.63095 0.0
H80 H 0.50999 0.45959 0.40402 0.0
H81 H 0.63564 0.64557 0.36851 0.0
H82 H 0.47205 0.60019 0.42417 0.0
H83 H 0.85255 0.4288 0.60864 0.0
H84 H 0.75114 0.4499 0.68299 0.0
H85 H 0.92465 0.59605 0.64873 0.0
C86 C 0.22108 0.72716 0.81896 0.0
N87 N 0.29764 0.68045 0.86375 0.0
N88 N 1.07722 0.65031 0.84167 0.0
C89 C 0.28076 0.83427 0.74862 0.0
C90 C 1.07091 0.55289 0.89973 0.0
N91 N 0.20292 0.58475 0.92069 0.0
C92 C 0.93463 0.43282 0.94251 0.0
H93 H 0.39207 0.86283 0.7325 0.0
H94 H 0.27548 0.93121 0.76027 0.0
H95 H 0.21289 0.79064 0.7014 0.0
H96 H 0.85962 0.37398 0.9012 0.0
H97 H 0.88384 0.47787 0.9777 0.0
H98 H 0.95487 0.35434 0.97877 0.0
C99 C 0.17352 0.63126 0.48471 0.0
N100 N 0.14977 0.53674 0.43433 0.0
N101 N 0.16977 0.75011 0.4512 0.0
C102 C 0.2182 0.61493 0.56454 0.0
C103 C 0.14006 0.72296 0.3791 0.0
N104 N 0.13112 0.59559 0.36724 0.0
C105 C 0.12291 0.82492 0.31995 0.0
H106 H 0.15482 0.6364 0.60597 0.0
H107 H 0.33298 0.69409 0.56689 0.0
H108 H 0.20848 0.50827 0.58376 0.0
H109 H 0.22237 0.88727 0.28084 0.0
H110 H 1.10222 0.90275 0.34689 0.0
H111 H 1.03187 0.76188 0.28665 0.0
C112 C 0.64812 0.14291 0.80819 0.0
N113 N 0.71691 0.12511 0.74876 0.0
N114 N 0.54517 0.17137 0.78386 0.0
C115 C 0.64803 0.0911 0.89096 0.0
C116 C 0.54492 0.15839 0.70894 0.0
N117 N 0.64791 0.12864 0.68787 0.0
C118 C 0.44623 0.17923 0.65581 0.0
H119 H 0.60457 0.9724 0.89988 0.0
H120 H 0.57724 0.11188 0.92723 0.0
H121 H 0.75721 0.14036 0.91007 0.0
H122 H 0.49893 0.29429 0.62948 0.0
H123 H 0.34368 0.1526 0.68693 0.0
H124 H 0.42129 0.11106 0.60982 0.0
C125 C 0.68368 0.57228 0.14976 0.0
N126 N 0.77196 0.66446 0.08795 0.0
N127 N 0.55133 0.48329 0.12972 0.0
C128 C 0.72322 0.56811 0.23121 0.0
C129 C 0.56055 0.5319 0.05435 0.0
N130 N 0.6958 0.63442 0.02768 0.0
C131 C 0.43748 0.53552 0.02042 0.0
H132 H 0.80538 0.53451 0.23653 0.0
H133 H 0.63018 0.48898 0.27149 0.0
H134 H 0.76774 0.67779 0.24867 0.0
H135 H 0.37975 0.55196 0.06551 0.0
H136 H 0.36817 0.43516 -0.00448 0.0
H137 H 0.46936 0.63714 0.9831 0.0
loop_
_geom_bond_atom_site_label_1
_geom_bond_atom_site_label_2
_geom_bond_distance
_geom_bond_site_symmetry_2
_ccdc_geom_bond_type
Dy0 O4 2.398 . S
Dy0 O5 2.491 . S
Dy0 O6 2.403 . S
Dy0 O7 2.664 1_455 S
Dy0 O11 2.326 . S
Dy0 O15 2.310 . S
Dy0 O16 2.351 1_455 S
C1 O12 1.185 . S
C1 O13 1.355 . S
C2 O4 1.185 . S
C2 O5 1.355 . S
Dy3 O7 2.310 . S
Dy3 O10 2.351 1_655 S
Dy3 O12 2.398 . S
Dy3 O13 2.491 . S
Dy3 O14 2.403 . S
Dy3 O15 2.664 1_655 S
Dy3 O17 2.326 . S
O4 Dy0 2.398 . S
O4 C2 1.185 . S
O5 Dy0 2.491 . S
O5 C2 1.355 . S
O6 Dy0 2.403 . S
O6 C8 1.245 1_455 S
O7 Dy0 2.664 1_655 S
O7 Dy3 2.310 . S
O7 C8 1.272 . S
C8 O6 1.245 1_655 S
C8 O7 1.272 . S
C9 O14 1.254 1_455 S
C9 O15 1.268 . S
O10 Dy3 2.351 1_455 S
O10 C18 1.249 . S
O11 Dy0 2.326 . S
O11 C18 1.267 . S
O12 C1 1.185 . S
O12 Dy3 2.398 . S
O13 C1 1.355 . S
O13 Dy3 2.491 . S
O14 Dy3 2.403 . S
O14 C9 1.254 1_655 S
O15 Dy0 2.310 . S
O15 Dy3 2.664 1_455 S
O15 C9 1.268 . S
O16 Dy0 2.351 1_655 S
O16 C19 1.249 . S
O17 Dy3 2.326 . S
O17 C19 1.267 . S
C18 O10 1.249 . S
C18 O11 1.267 . S
C19 O16 1.249 . S
C19 O17 1.267 . S
Dy20 O24 2.398 . S
Dy20 O25 2.491 . S
Dy20 O26 2.403 . S
Dy20 O27 2.664 1_565 S
Dy20 O31 2.326 . S
Dy20 O35 2.310 1_565 S
Dy20 O36 2.351 1_565 S
C21 O32 1.185 . S
C21 O33 1.355 . S
C22 O24 1.185 . S
C22 O25 1.355 . S
Dy23 O27 2.310 . S
Dy23 O30 2.351 1_545 S
Dy23 O32 2.398 . S
Dy23 O33 2.491 . S
Dy23 O34 2.403 . S
Dy23 O35 2.664 . S
Dy23 O37 2.326 . S
O24 Dy20 2.398 . S
O24 C22 1.185 . S
O25 Dy20 2.491 . S
O25 C22 1.355 . S
O26 Dy20 2.403 . S
O26 C28 1.254 1_565 S
O27 Dy20 2.664 1_545 S
O27 Dy23 2.310 . S
O27 C28 1.268 . S
C28 O26 1.254 1_545 S
C28 O27 1.268 . S
C29 O34 1.254 . S
C29 O35 1.268 . S
O30 Dy23 2.351 1_565 S
O30 C38 1.249 . S
O31 Dy20 2.326 . S
O31 C38 1.267 . S
O32 C21 1.185 . S
O32 Dy23 2.398 . S
O33 C21 1.355 . S
O33 Dy23 2.491 . S
O34 Dy23 2.403 . S
O34 C29 1.254 . S
O35 Dy20 2.310 1_545 S
O35 Dy23 2.664 . S
O35 C29 1.268 . S
O36 Dy20 2.351 1_545 S
O36 C39 1.249 . S
O37 Dy23 2.326 . S
O37 C39 1.267 . S
C38 O30 1.249 . S
C38 O31 1.267 . S
C39 O36 1.249 . S
C39 O37 1.267 . S
Dy40 O44 2.398 . S
Dy40 O45 2.491 . S
Dy40 O46 2.403 . S
Dy40 O47 2.664 . S
Dy40 O51 2.326 . S
Dy40 O55 2.310 . S
Dy40 O56 2.351 . S
C41 O52 1.185 . S
C41 O53 1.355 . S
C42 O44 1.185 . S
C42 O45 1.355 . S
Dy43 O47 2.310 . S
Dy43 O50 2.351 . S
Dy43 O52 2.398 . S
Dy43 O53 2.491 . S
Dy43 O54 2.403 . S
Dy43 O55 2.664 . S
Dy43 O57 2.326 . S
O44 Dy40 2.398 . S
O44 C42 1.185 . S
O45 Dy40 2.491 . S
O45 C42 1.355 . S
O46 Dy40 2.403 . S
O46 C48 1.254 . S
O47 Dy40 2.664 . S
O47 Dy43 2.310 . S
O47 C48 1.268 . S
C48 O46 1.254 . S
C48 O47 1.268 . S
C49 O54 1.254 . S
C49 O55 1.268 . S
O50 Dy43 2.351 . S
O50 C58 1.249 . S
O51 Dy40 2.326 . S
O51 C58 1.267 . S
O52 C41 1.185 . S
O52 Dy43 2.398 . S
O53 C41 1.355 . S
O53 Dy43 2.491 . S
O54 Dy43 2.403 . S
O54 C49 1.254 . S
O55 Dy40 2.310 . S
O55 Dy43 2.664 . S
O55 C49 1.268 . S
O56 Dy40 2.351 . S
O56 C59 1.249 . S
O57 Dy43 2.326 . S
O57 C59 1.267 . S
C58 O50 1.249 . S
C58 O51 1.267 . S
C59 O56 1.249 . S
C59 O57 1.267 . S
C60 N61 1.317 1_565 S
C60 N62 1.348 . S
C60 C63 1.485 1_565 S
N61 C60 1.317 1_545 S
N61 N65 1.370 . S
N62 C60 1.348 . S
N62 C64 1.346 . S
C63 C60 1.485 1_545 S
C63 H67 0.960 . S
C63 H68 0.961 1_545 S
C63 H69 0.960 . S
C64 N62 1.346 . S
C64 N65 1.307 1_565 S
C64 C66 1.486 . S
N65 N61 1.370 . S
N65 C64 1.307 1_545 S
C66 C64 1.486 . S
C66 H70 0.960 . S
C66 H71 0.960 . S
C66 H72 0.959 . S
H67 C63 0.960 . S
H68 C63 0.961 1_565 S
H69 C63 0.960 . S
H70 C66 0.960 . S
H71 C66 0.960 . S
H72 C66 0.959 . S
C73 N74 1.317 . S
C73 N75 1.348 . S
C73 C76 1.485 . S
N74 C73 1.317 . S
N74 N78 1.370 . S
N75 C73 1.348 . S
N75 C77 1.346 . S
C76 C73 1.485 . S
C76 H80 0.960 . S
C76 H81 0.961 . S
C76 H82 0.960 . S
C77 N75 1.346 . S
C77 N78 1.307 . S
C77 C79 1.486 . S
N78 N74 1.370 . S
N78 C77 1.307 . S
C79 C77 1.486 . S
C79 H83 0.960 . S
C79 H84 0.960 . S
C79 H85 0.959 . S
H80 C76 0.960 . S
H81 C76 0.961 . S
H82 C76 0.960 . S
H83 C79 0.960 . S
H84 C79 0.960 . S
H85 C79 0.959 . S
C86 N87 1.317 . S
C86 N88 1.348 1_455 S
C86 C89 1.485 . S
N87 C86 1.317 . S
N87 N91 1.370 . S
N88 C86 1.348 1_655 S
N88 C90 1.346 . S
C89 C86 1.485 . S
C89 H93 0.960 . S
C89 H94 0.961 . S
C89 H95 0.960 . S
C90 N88 1.346 . S
C90 N91 1.307 1_655 S
C90 C92 1.486 . S
N91 N87 1.370 . S
N91 C90 1.307 1_455 S
C92 C90 1.486 . S
C92 H96 0.960 . S
C92 H97 0.960 . S
C92 H98 0.959 1_556 S
H93 C89 0.960 . S
H94 C89 0.961 . S
H95 C89 0.960 . S
H96 C92 0.960 . S
H97 C92 0.960 . S
H98 C92 0.959 1_554 S
C99 N100 1.317 1_455 S
C99 N101 1.348 . S
C99 C102 1.485 . S
N100 C99 1.317 1_655 S
N100 N104 1.370 1_655 S
N101 C99 1.348 . S
N101 C103 1.346 . S
C102 C99 1.485 . S
C102 H106 0.960 1_455 S
C102 H107 0.961 . S
C102 H108 0.960 1_455 S
C103 N101 1.346 . S
C103 N104 1.307 . S
C103 C105 1.486 . S
N104 N100 1.370 1_455 S
N104 C103 1.307 . S
C105 C103 1.486 . S
C105 H109 0.960 . S
C105 H110 0.960 . S
C105 H111 0.959 . S
H106 C102 0.960 1_655 S
H107 C102 0.961 . S
H108 C102 0.960 1_655 S
H109 C105 0.960 . S
H110 C105 0.960 . S
H111 C105 0.959 . S
C112 N113 1.317 . S
C112 N114 1.348 . S
C112 C115 1.485 . S
N113 C112 1.317 . S
N113 N117 1.370 . S
N114 C112 1.348 . S
N114 C116 1.346 . S
C115 C112 1.485 . S
C115 H119 0.960 . S
C115 H120 0.961 . S
C115 H121 0.960 1_545 S
C116 N114 1.346 . S
C116 N117 1.307 . S
C116 C118 1.486 . S
N117 N113 1.370 . S
N117 C116 1.307 . S
C118 C116 1.486 . S
C118 H122 0.960 . S
C118 H123 0.960 . S
C118 H124 0.959 . S
H119 C115 0.960 . S
H120 C115 0.961 . S
H121 C115 0.960 1_565 S
H122 C118 0.960 . S
H123 C118 0.960 . S
H124 C118 0.959 . S
C125 N126 1.317 . S
C125 N127 1.348 . S
C125 C128 1.485 . S
N126 C125 1.317 . S
N126 N130 1.370 . S
N127 C125 1.348 . S
N127 C129 1.346 . S
C128 C125 1.485 . S
C128 H132 0.960 . S
C128 H133 0.961 . S
C128 H134 0.960 . S
C129 N127 1.346 . S
C129 N130 1.307 . S
C129 C131 1.486 . S
N130 N126 1.370 . S
N130 C129 1.307 . S
C131 C129 1.486 . S
C131 H135 0.960 . S
C131 H136 0.960 . S
C131 H137 0.959 1_554 S
H132 C128 0.960 . S
H133 C128 0.961 . S
H134 C128 0.960 . S
H135 C131 0.960 . S
H136 C131 0.960 . S
H137 C131 0.959 1_556 S
C2 N127 0.768 . S
C21 N100 0.927 . S
C42 N113 0.788 1_565 S
C1 N126 1.040 . S
N101 C22 1.021 . S
N114 C41 0.910 . S
C38 N74 2.312 . S
C59 N88 2.221 . S
C18 N62 2.399 . S
N75 C39 2.485 . S
N87 C58 2.635 . S
C19 N61 2.369 . S
N91 C9 1.629 1_556 S
C29 N65 1.693 . S
C49 N78 1.555 . S
N117 C28 1.237 . S
N130 C48 1.390 1_554 S
C8 N104 1.493 1_655 S
