# Generated by pormake.
# Topology tsx, (6,3)-cn, num edge types: 1
# Building blocks:
#     Node 0, Type 0, BuildingBlock: LEVNOQ01_clean_sbu_1, # of connection points: 6
#     Node 1, Type 0, BuildingBlock: LEVNOQ01_clean_sbu_1, # of connection points: 6
#     Node 2, Type 1, BuildingBlock: QEWDON_clean_linker_0, # of connection points: 3
#     Node 3, Type 1, BuildingBlock: QEWDON_clean_linker_0, # of connection points: 3
#     Node 4, Type 1, BuildingBlock: QEWDON_clean_linker_0, # of connection points: 3
#     Node 5, Type 1, BuildingBlock: QEWDON_clean_linker_0, # of connection points: 3
#     Edge 6, Type (0, 1), BuildingBlock: OJICUG_clean_linker_0, # of connection points: 2
#     Edge 7, Type (0, 1), BuildingBlock: OJICUG_clean_linker_0, # of connection points: 2
#     Edge 8, Type (0, 1), BuildingBlock: OJICUG_clean_linker_0, # of connection points: 2
#     Edge 9, Type (0, 1), BuildingBlock: OJICUG_clean_linker_0, # of connection points: 2
#     Edge 10, Type (0, 1), BuildingBlock: OJICUG_clean_linker_0, # of connection points: 2
#     Edge 11, Type (0, 1), BuildingBlock: OJICUG_clean_linker_0, # of connection points: 2
#     Edge 12, Type (0, 1), BuildingBlock: OJICUG_clean_linker_0, # of connection points: 2
#     Edge 13, Type (0, 1), BuildingBlock: OJICUG_clean_linker_0, # of connection points: 2
#     Edge 14, Type (0, 1), BuildingBlock: OJICUG_clean_linker_0, # of connection points: 2
#     Edge 15, Type (0, 1), BuildingBlock: OJICUG_clean_linker_0, # of connection points: 2
#     Edge 16, Type (0, 1), BuildingBlock: OJICUG_clean_linker_0, # of connection points: 2
#     Edge 17, Type (0, 1), BuildingBlock: OJICUG_clean_linker_0, # of connection points: 2
# Relax obj value: 0.111
# Max RMSD: 0.198
# Mean RMSD: 0.145
data_MOF--net-tsx--node1-LEVNOQ01_clean_sbu_1--node2-QEWDON_clean_linker_0--edge1-OJICUG_clean_linker_0
_symmetry_space_group_name_H-M    P1
_symmetry_Int_Tables_number       1
_symmetry_cell_setting            triclinic
loop_
_symmetry_equiv_pos_as_xyz
'x, y, z'
_cell_length_a     14.102792
_cell_length_b     17.906621
_cell_length_c     22.658959
_cell_angle_alpha  96.401902
_cell_angle_beta   108.8206
_cell_angle_gamma 91.030641
loop_
_atom_site_label
_atom_site_type_symbol
_atom_site_fract_x
_atom_site_fract_y
_atom_site_fract_z
_atom_type_partial_charge
O0 O 0.21665 0.09254 0.18657 0.0
Mg1 Mg 0.28902 0.04356 0.12671 0.0
O2 O 0.13142 0.98613 0.14449 0.0
Mg3 Mg 0.1189 0.98798 1.03334 0.0
O4 O 0.24793 0.07916 0.04123 0.0
O5 O 0.39548 0.11376 0.11586 0.0
O6 O 0.10182 0.98665 0.92416 0.0
O7 O 1.0465 0.10916 0.04316 0.0
Mg8 Mg 0.95733 0.0017 0.98775 0.0
O9 O 0.97074 0.89119 1.00468 0.0
O10 O 0.97233 0.05425 0.91049 0.0
O11 O 0.90603 0.07023 0.05202 0.0
O12 O 0.83766 0.93671 0.93611 0.0
C13 C 0.30993 0.87992 0.09404 0.0
C14 C 0.16386 0.03778 0.19171 0.0
C15 C 0.33196 0.12011 0.06131 0.0
C16 C 1.03776 0.02626 0.88916 0.0
C17 C 0.96864 0.12379 0.05827 0.0
C18 C 0.87865 0.88156 0.96421 0.0
O19 O 0.33819 0.93414 0.13767 0.0
O20 O 0.23403 0.88607 0.04444 0.0
O21 O 0.73322 0.58251 0.70196 0.0
Mg22 Mg 0.82164 0.54813 0.64612 0.0
O23 O 0.63446 0.48471 0.64754 0.0
Mg24 Mg 0.62484 0.4871 0.53909 0.0
O25 O 0.75809 0.5746 0.55844 0.0
O26 O 0.90603 0.62656 0.62106 0.0
O27 O 0.61351 0.48633 0.43124 0.0
O28 O 0.55361 0.60879 0.54371 0.0
Mg29 Mg 0.46271 0.50155 0.49338 0.0
O30 O 0.47432 0.39077 0.50712 0.0
O31 O 0.48027 0.55062 0.41518 0.0
O32 O 0.41719 0.57303 0.55949 0.0
O33 O 0.33878 0.44054 0.44395 0.0
C34 C 0.82012 0.37939 0.60131 0.0
C35 C 0.66995 0.53007 0.69864 0.0
C36 C 0.83248 0.62373 0.56905 0.0
C37 C 0.54789 0.52397 0.39516 0.0
C38 C 0.4776 0.62572 0.56001 0.0
C39 C 0.38051 0.38358 0.46884 0.0
O40 O 0.85821 0.4347 0.64305 0.0
O41 O 0.73947 0.38509 0.5543 0.0
H42 H 0.22534 0.10574 0.4879 0.0
C43 C 0.24479 0.05218 0.50161 0.0
C44 C 0.24104 0.99344 0.45412 0.0
C45 C 0.27379 0.04277 0.56596 0.0
H46 H 0.27862 0.87914 0.43789 0.0
C47 C 0.27596 0.92464 0.47303 0.0
C48 C 0.31538 0.91539 0.53723 0.0
C49 C 0.311 0.97353 0.58362 0.0
C50 C 0.27254 0.10821 0.61352 0.0
H51 H 0.34036 0.96611 0.63294 0.0
C52 C 0.18121 0.1319 0.6207 0.0
C53 C 0.17215 0.20625 0.64685 0.0
C54 C 0.35919 0.15552 0.64261 0.0
H55 H 0.43039 0.13949 0.63798 0.0
C56 C 0.35349 0.22591 0.67488 0.0
H57 H 0.11654 0.09425 0.6005 0.0
C58 C 0.26055 0.25203 0.6754 0.0
H59 H 0.25716 0.30925 0.69563 0.0
H60 H 0.42071 0.26246 0.69612 0.0
H61 H 0.94942 0.12339 0.59642 0.0
C62 C 0.93522 0.06523 0.57762 0.0
C63 C 0.94457 0.0101 0.6189 0.0
C64 C 0.91501 0.04475 0.51226 0.0
H65 H 0.91981 0.89263 0.62357 0.0
C66 C 0.91746 0.93538 0.59277 0.0
C67 C 0.88537 0.91441 0.5277 0.0
C68 C 0.88712 0.96856 0.48734 0.0
C69 C 0.92406 0.10249 0.47048 0.0
H70 H 0.86728 0.95161 0.43725 0.0
C71 C 1.01862 0.13375 0.47306 0.0
C72 C 1.02925 0.18975 0.43538 0.0
C73 C 0.83804 0.1265 0.42748 0.0
H74 H 0.76444 0.10364 0.42382 0.0
C75 C 0.84616 0.18108 0.38943 0.0
H76 H 0.08327 0.11347 0.50406 0.0
C77 C 0.94011 0.21265 0.39349 0.0
H78 H 0.94215 0.25644 0.36459 0.0
H79 H 0.77884 0.19983 0.35694 0.0
H80 H 0.74104 0.60364 0.98724 0.0
C81 C 0.75525 0.55026 1.004 0.0
C82 C 0.75166 0.48705 0.95989 0.0
C83 C 0.77809 0.54515 0.0691 0.0
H84 H 0.78245 0.36937 0.95191 0.0
C85 C 0.78283 0.41943 0.98359 0.0
C86 C 0.81868 0.41537 0.0485 0.0
C87 C 0.81285 0.4771 0.0912 0.0
C88 C 0.77185 0.61243 0.11367 0.0
H89 H 0.83809 0.47291 0.14118 0.0
C90 C 0.67827 0.63632 0.11705 0.0
C91 C 0.66795 0.70959 0.14492 0.0
C92 C 0.858 0.6587 0.14679 0.0
H93 H 0.9309 0.6423 0.14543 0.0
C94 C 0.85018 0.72822 0.1796 0.0
H95 H 0.6137 0.59998 0.09322 0.0
C96 C 0.75604 0.7543 0.17742 0.0
H97 H 0.75177 0.81072 0.19892 0.0
H98 H 0.91722 0.76395 0.20409 0.0
H99 H 0.4464 0.61951 0.10433 0.0
C100 C 0.44006 0.56178 0.08447 0.0
C101 C 0.45793 0.5049 0.12458 0.0
C102 C 0.4245 0.54457 1.01927 0.0
H103 H 0.44971 0.38549 0.12665 0.0
C104 C 0.44273 0.43008 0.09699 0.0
C105 C 0.41551 0.41113 1.03178 0.0
C106 C 0.40932 0.46827 0.99284 0.0
C107 C 0.42947 0.60627 0.98023 0.0
H108 H 0.39332 0.45357 0.94276 0.0
C109 C 0.5214 0.63045 0.9737 0.0
C110 C 0.53011 0.69329 0.94227 0.0
C111 C 0.34356 0.64379 0.95178 0.0
H112 H 0.27209 0.62718 0.95609 0.0
C113 C 0.34934 0.70343 0.91775 0.0
H114 H 0.58565 0.5999 0.99315 0.0
C115 C 0.44139 0.72821 0.91325 0.0
H116 H 0.44358 0.77671 0.88903 0.0
H117 H 0.28234 0.73209 0.89609 0.0
C118 C 0.44934 0.20799 1.03712 0.0
C119 C 0.35016 0.18246 1.02781 0.0
H120 H 0.54801 0.30224 0.04151 0.0
C121 C 0.27153 0.22755 0.99981 0.0
H122 H 0.51138 0.17422 0.05831 0.0
C123 C 0.2928 0.30138 0.99051 0.0
C124 C 0.39274 0.33022 1.00814 0.0
H125 H 0.19439 0.20935 0.99227 0.0
H126 H 0.23171 0.33855 0.97717 0.0
C127 C 0.47039 0.28105 1.02682 0.0
C128 C 0.41764 0.78422 0.15372 0.0
C129 C 0.38304 0.81987 0.09853 0.0
H130 H 0.53368 0.7214 0.21183 0.0
C131 C 0.44325 0.81877 0.06007 0.0
H132 H 0.3764 0.78802 0.18674 0.0
C133 C 0.53521 0.78446 0.07642 0.0
C134 C 0.56821 0.74556 0.12942 0.0
H135 H 0.42393 0.85069 1.02031 0.0
H136 H 0.58271 0.79283 0.049 0.0
C137 C 0.50887 0.74742 0.16892 0.0
C138 C 0.73164 0.79699 0.89626 0.0
C139 C 0.80954 0.81398 0.95456 0.0
H140 H 0.58398 0.74587 0.84626 0.0
C141 C 0.80057 0.78188 1.00595 0.0
H142 H 0.73554 0.82142 0.8554 0.0
C143 C 0.71242 0.74006 1.0004 0.0
C144 C 0.63073 0.72734 0.94401 0.0
H145 H 0.85713 0.79478 0.05179 0.0
H146 H 0.70651 0.72079 0.04159 0.0
C147 C 0.64363 0.75455 0.8911 0.0
C148 C 0.85606 0.21744 0.08742 0.0
C149 C 0.94282 0.20222 0.07117 0.0
H150 H 0.74889 0.29907 0.09428 0.0
C151 C 0.99728 0.2619 0.05936 0.0
H152 H 0.8129 0.17261 0.0972 0.0
C153 C 0.96078 0.33376 0.05805 0.0
C154 C 0.87 0.34743 0.06928 0.0
H155 H 0.06424 0.25216 0.04673 0.0
H156 H 0.99969 0.37754 0.04381 0.0
C157 C 0.81975 0.28971 0.08636 0.0
C158 C 0.7497 0.73407 0.5233 0.0
C159 C 0.82797 0.68532 0.53018 0.0
H160 H 0.7055 0.84721 0.51446 0.0
C161 C 0.91431 0.70878 0.51751 0.0
H162 H 0.68561 0.71837 0.53621 0.0
C163 C 0.92643 0.78266 0.505 0.0
C164 C 0.85294 0.83423 0.50591 0.0
H165 H 0.97662 0.67257 0.52369 0.0
H166 H 0.99827 0.80194 0.50268 0.0
C167 C 0.7618 0.808 0.51121 0.0
C168 C 0.92613 0.28331 0.66079 0.0
C169 C 0.88731 0.31585 0.60422 0.0
H170 H 1.04545 0.22284 0.71874 0.0
C171 C 0.94151 0.30977 0.56227 0.0
H172 H 0.88907 0.29057 0.69597 0.0
C173 C 1.0335 0.27593 0.57748 0.0
C174 C 0.07222 0.24166 0.63273 0.0
H175 H 0.91848 0.33858 0.52071 0.0
H176 H 0.07622 0.28148 0.54702 0.0
C177 C 1.01702 0.24613 0.67468 0.0
C178 C 0.23654 0.29908 0.39782 0.0
C179 C 0.31138 0.31573 0.45727 0.0
H180 H 0.09229 0.24619 0.34372 0.0
C181 C 0.29838 0.28344 0.50754 0.0
H182 H 0.24359 0.32382 0.35781 0.0
C183 C 0.20949 0.24108 0.4996 0.0
C184 C 0.13053 0.2279 0.44155 0.0
H185 H 0.35281 0.296 0.55417 0.0
H186 H 0.20243 0.21953 0.53995 0.0
C187 C 0.148 0.25585 0.39003 0.0
C188 C 0.4779 0.75397 0.52925 0.0
C189 C 0.44855 0.70417 0.56447 0.0
H190 H 0.46162 0.86092 0.49544 0.0
C191 C 0.38188 0.7275 0.5967 0.0
H192 H 0.52418 0.73643 0.50103 0.0
C193 C 0.3424 0.79873 0.59155 0.0
C194 C 0.36892 0.84673 0.55379 0.0
H195 H 0.35735 0.68964 0.62368 0.0
H196 H 0.28733 0.8145 0.61403 0.0
C197 C 0.43988 0.82478 0.52478 0.0
C198 C 0.20679 0.08684 0.30555 0.0
C199 C 0.16476 0.02781 0.25668 0.0
H200 H 0.26926 0.1215 0.40378 0.0
C201 C 0.13991 0.95832 0.27304 0.0
H202 H 0.22734 0.14137 0.29538 0.0
C203 C 0.16107 0.94761 0.33674 0.0
C204 C 0.20887 0.00577 0.38571 0.0
H205 H 0.10795 0.91141 0.23695 0.0
H206 H 0.1418 0.89314 0.34753 0.0
C207 C 0.22997 0.07569 0.36858 0.0
C208 C 0.08075 0.98611 0.79034 0.0
C209 C 1.02895 0.03264 0.82209 0.0
H210 H 0.09584 0.94387 0.70151 0.0
C211 C 0.95914 0.0802 0.78701 0.0
H212 H 0.13506 0.94899 0.81541 0.0
C213 C 0.93669 0.07742 0.72155 0.0
C214 C 0.98318 0.02683 0.68928 0.0
H215 H 0.91812 0.11741 0.80973 0.0
H216 H 0.87868 0.11157 0.6958 0.0
C217 C 0.05799 0.98316 0.7249 0.0
C218 C 0.62889 0.55427 0.79844 0.0
C219 C 0.6695 0.50811 0.75962 0.0
H220 H 0.61749 0.58052 0.88989 0.0
C221 C 0.73237 0.45203 0.78568 0.0
H222 H 0.582 0.59916 0.77996 0.0
C223 C 0.75809 0.44459 0.84988 0.0
C224 C 0.71974 0.49201 0.88992 0.0
H225 H 0.76766 0.41737 0.7573 0.0
H226 H 0.81204 0.40378 0.86815 0.0
C227 C 0.65183 0.54502 0.8622 0.0
C228 C 0.46991 0.57622 0.29234 0.0
C229 C 0.53962 0.52917 0.3281 0.0
H230 H 0.38989 0.60631 0.20071 0.0
C231 C 0.59113 0.48158 0.29695 0.0
H232 H 0.42919 0.61424 0.31464 0.0
C233 C 0.56845 0.47735 0.23148 0.0
C234 C 0.49362 0.52051 0.19513 0.0
H235 H 0.64534 0.44478 0.32259 0.0
H236 H 0.60714 0.43791 0.20882 0.0
C237 C 0.44742 0.5721 0.22683 0.0
loop_
_geom_bond_atom_site_label_1
_geom_bond_atom_site_label_2
_geom_bond_distance
_geom_bond_site_symmetry_2
_ccdc_geom_bond_type
O0 Mg1 1.990 . S
O0 C14 1.253 . S
Mg1 O0 1.990 . S
Mg1 O4 2.180 . S
Mg1 O5 2.117 . S
Mg1 O19 2.030 1_545 S
O2 Mg3 2.072 1_554 S
O2 C14 1.260 . S
Mg3 O2 2.072 1_556 S
Mg3 O4 2.099 1_556 S
Mg3 O6 2.079 . S
Mg3 O7 2.072 . S
Mg3 O9 2.099 1_445 S
Mg3 O20 2.079 1_545 S
O4 Mg1 2.180 . S
O4 Mg3 2.099 1_554 S
O4 C15 1.279 . S
O5 Mg1 2.117 . S
O5 C15 1.250 . S
O6 Mg3 2.079 . S
O6 C16 1.264 . S
O7 Mg3 2.072 . S
O7 C17 1.260 1_455 S
Mg8 O9 2.180 . S
Mg8 O10 2.030 1_565 S
Mg8 O11 1.990 1_565 S
Mg8 O12 2.117 . S
O9 Mg3 2.099 1_665 S
O9 Mg8 2.180 . S
O9 C18 1.279 . S
O10 Mg8 2.030 1_545 S
O10 C16 1.248 1_655 S
O11 Mg8 1.990 1_545 S
O11 C17 1.253 . S
O12 Mg8 2.117 . S
O12 C18 1.250 . S
C13 O19 1.248 . S
C13 O20 1.264 1_554 S
C14 O0 1.253 . S
C14 O2 1.260 . S
C15 O4 1.279 . S
C15 O5 1.250 . S
C16 O6 1.264 . S
C16 O10 1.248 1_455 S
C17 O7 1.260 1_655 S
C17 O11 1.253 . S
C18 O9 1.279 . S
C18 O12 1.250 . S
O19 Mg1 2.030 1_565 S
O19 C13 1.248 . S
O20 Mg3 2.079 1_565 S
O20 C13 1.264 1_556 S
O21 Mg22 1.990 . S
O21 C35 1.253 . S
Mg22 O21 1.990 . S
Mg22 O25 2.180 . S
Mg22 O26 2.117 . S
Mg22 O40 2.030 . S
O23 Mg24 2.072 . S
O23 C35 1.260 . S
Mg24 O23 2.072 . S
Mg24 O25 2.099 . S
Mg24 O27 2.079 . S
Mg24 O28 2.072 . S
Mg24 O30 2.099 . S
Mg24 O41 2.079 . S
O25 Mg22 2.180 . S
O25 Mg24 2.099 . S
O25 C36 1.279 . S
O26 Mg22 2.117 . S
O26 C36 1.250 . S
O27 Mg24 2.079 . S
O27 C37 1.264 . S
O28 Mg24 2.072 . S
O28 C38 1.260 . S
Mg29 O30 2.180 . S
Mg29 O31 2.030 . S
Mg29 O32 1.990 . S
Mg29 O33 2.117 . S
O30 Mg24 2.099 . S
O30 Mg29 2.180 . S
O30 C39 1.279 . S
O31 Mg29 2.030 . S
O31 C37 1.248 . S
O32 Mg29 1.990 . S
O32 C38 1.253 . S
O33 Mg29 2.117 . S
O33 C39 1.250 . S
C34 O40 1.248 . S
C34 O41 1.264 . S
C35 O21 1.253 . S
C35 O23 1.260 . S
C36 O25 1.279 . S
C36 O26 1.250 . S
C37 O27 1.264 . S
C37 O31 1.248 . S
C38 O28 1.260 . S
C38 O32 1.253 . S
C39 O30 1.279 . S
C39 O33 1.250 . S
O40 Mg22 2.030 . S
O40 C34 1.248 . S
O41 Mg24 2.079 . S
O41 C34 1.264 . S
H42 C43 0.949 . S
C43 H42 0.949 . S
C43 C44 1.395 1_545 S
C43 C45 1.391 . S
C44 C43 1.395 1_565 S
C44 C47 1.390 . S
C45 C43 1.391 . S
C45 C49 1.387 1_545 S
C45 C50 1.491 . S
H46 C47 0.950 . S
C47 C44 1.390 . S
C47 H46 0.950 . S
C47 C48 1.378 . S
C48 C47 1.378 . S
C48 C49 1.409 . S
C49 C45 1.387 1_565 S
C49 C48 1.409 . S
C49 H51 0.951 . S
C50 C45 1.491 . S
C50 C52 1.382 . S
C50 C54 1.404 . S
H51 C49 0.951 . S
C52 C50 1.382 . S
C52 C53 1.390 1_455 S
C52 H57 0.949 1_455 S
C53 C52 1.390 1_655 S
C53 C58 1.399 1_655 S
C54 C50 1.404 . S
C54 H55 0.950 . S
C54 C56 1.375 . S
H55 C54 0.950 . S
C56 C54 1.375 . S
C56 C58 1.382 . S
C56 H60 0.950 . S
H57 C52 0.949 1_655 S
C58 C53 1.399 1_455 S
C58 C56 1.382 . S
C58 H59 0.952 . S
H59 C58 0.952 . S
H60 C56 0.950 . S
H61 C62 0.954 . S
C62 H61 0.954 . S
C62 C63 1.390 1_455 S
C62 C64 1.391 1_455 S
C63 C62 1.390 1_655 S
C63 C66 1.390 1_545 S
C64 C62 1.391 1_655 S
C64 C68 1.387 1_545 S
C64 C69 1.491 1_655 S
H65 C66 0.950 . S
C66 C63 1.390 1_565 S
C66 H65 0.950 . S
C66 C67 1.378 . S
C67 C66 1.378 . S
C67 C68 1.409 . S
C68 C64 1.387 1_565 S
C68 C67 1.409 . S
C68 H70 0.951 . S
C69 C64 1.491 1_455 S
C69 C71 1.382 . S
C69 C73 1.404 1_455 S
H70 C68 0.951 . S
C71 C69 1.382 . S
C71 C72 1.390 . S
C71 H76 0.949 . S
C72 C71 1.390 . S
C72 C77 1.399 . S
C73 C69 1.404 1_655 S
C73 H74 0.950 . S
C73 C75 1.375 . S
H74 C73 0.950 . S
C75 C73 1.375 . S
C75 C77 1.382 1_655 S
C75 H79 0.950 . S
H76 C71 0.949 . S
C77 C72 1.399 . S
C77 C75 1.382 1_455 S
C77 H78 0.952 . S
H78 C77 0.952 . S
H79 C75 0.950 . S
H80 C81 0.949 . S
C81 H80 0.949 . S
C81 C82 1.395 . S
C81 C83 1.391 . S
C82 C81 1.395 . S
C82 C85 1.390 . S
C83 C81 1.391 . S
C83 C87 1.387 . S
C83 C88 1.491 1_556 S
H84 C85 0.950 . S
C85 C82 1.390 . S
C85 H84 0.950 . S
C85 C86 1.378 . S
C86 C85 1.378 . S
C86 C87 1.409 . S
C87 C83 1.387 . S
C87 C86 1.409 . S
C87 H89 0.951 1_556 S
C88 C83 1.491 1_554 S
C88 C90 1.382 1_554 S
C88 C92 1.404 . S
H89 C87 0.951 1_554 S
C90 C88 1.382 1_556 S
C90 C91 1.390 1_556 S
C90 H95 0.949 . S
C91 C90 1.390 1_554 S
C91 C96 1.399 . S
C92 C88 1.404 . S
C92 H93 0.950 . S
C92 C94 1.375 . S
H93 C92 0.950 . S
C94 C92 1.375 . S
C94 C96 1.382 . S
C94 H98 0.950 . S
H95 C90 0.949 . S
C96 C91 1.399 . S
C96 C94 1.382 . S
C96 H97 0.952 . S
H97 C96 0.952 . S
H98 C94 0.950 . S
H99 C100 0.949 . S
C100 H99 0.949 . S
C100 C101 1.395 . S
C100 C102 1.391 . S
C101 C100 1.395 . S
C101 C104 1.390 . S
C102 C100 1.391 . S
C102 C106 1.387 . S
C102 C107 1.491 1_554 S
H103 C104 0.950 . S
C104 C101 1.390 . S
C104 H103 0.950 . S
C104 C105 1.378 . S
C105 C104 1.378 . S
C105 C106 1.409 . S
C106 C102 1.387 . S
C106 C105 1.409 . S
C106 H108 0.951 1_554 S
C107 C102 1.491 1_556 S
C107 C109 1.382 1_556 S
C107 C111 1.404 . S
H108 C106 0.951 1_556 S
C109 C107 1.382 1_554 S
C109 C110 1.390 1_554 S
C109 H114 0.949 . S
C110 C109 1.390 1_556 S
C110 C115 1.399 . S
C111 C107 1.404 . S
C111 H112 0.950 . S
C111 C113 1.375 . S
H112 C111 0.950 . S
C113 C111 1.375 . S
C113 C115 1.382 . S
C113 H117 0.950 . S
H114 C109 0.949 . S
C115 C110 1.399 . S
C115 C113 1.382 . S
C115 H116 0.952 . S
H116 C115 0.952 . S
H117 C113 0.950 . S
C118 C119 1.387 . S
C118 H122 0.950 . S
C118 C127 1.390 . S
C119 C118 1.387 . S
C119 C121 1.387 1_554 S
H120 C127 0.950 . S
C121 C119 1.387 1_556 S
C121 C123 1.390 . S
C121 H125 0.950 . S
H122 C118 0.950 . S
C123 C121 1.390 . S
C123 C124 1.387 1_556 S
C123 H126 0.950 . S
C124 C123 1.387 1_554 S
C124 C127 1.387 . S
H125 C121 0.950 . S
H126 C123 0.950 . S
C127 C118 1.390 . S
C127 H120 0.950 . S
C127 C124 1.387 . S
C128 C129 1.387 . S
C128 H132 0.950 . S
C128 C137 1.390 . S
C129 C128 1.387 . S
C129 C131 1.387 1_554 S
H130 C137 0.950 . S
C131 C129 1.387 1_556 S
C131 C133 1.390 . S
C131 H135 0.950 . S
H132 C128 0.950 . S
C133 C131 1.390 . S
C133 C134 1.387 1_556 S
C133 H136 0.950 . S
C134 C133 1.387 1_554 S
C134 C137 1.387 . S
H135 C131 0.950 . S
H136 C133 0.950 . S
C137 C128 1.390 . S
C137 H130 0.950 . S
C137 C134 1.387 . S
C138 C139 1.401 . S
C138 H142 0.950 . S
C138 C147 1.390 . S
C139 C138 1.401 . S
C139 C141 1.369 1_556 S
H140 C147 0.950 . S
C141 C139 1.369 1_554 S
C141 C143 1.390 . S
C141 H145 0.950 . S
H142 C138 0.950 . S
C143 C141 1.390 . S
C143 C144 1.387 1_554 S
C143 H146 0.950 . S
C144 C143 1.387 1_556 S
C144 C147 1.387 . S
H145 C141 0.950 . S
H146 C143 0.950 . S
C147 C138 1.390 . S
C147 H140 0.950 . S
C147 C144 1.387 . S
C148 C149 1.387 1_554 S
C148 H152 0.950 . S
C148 C157 1.390 . S
C149 C148 1.387 1_556 S
C149 C151 1.387 . S
H150 C157 0.950 . S
C151 C149 1.387 . S
C151 C153 1.390 . S
C151 H155 0.950 . S
H152 C148 0.950 . S
C153 C151 1.390 . S
C153 C154 1.387 . S
C153 H156 0.950 . S
C154 C153 1.387 . S
C154 C157 1.387 1_556 S
H155 C151 0.950 . S
H156 C153 0.950 . S
C157 C148 1.390 . S
C157 H150 0.950 . S
C157 C154 1.387 1_554 S
C158 C159 1.387 . S
C158 H162 0.950 . S
C158 C167 1.390 . S
C159 C158 1.387 . S
C159 C161 1.387 . S
H160 C167 0.950 . S
C161 C159 1.387 . S
C161 C163 1.390 . S
C161 H165 0.950 . S
H162 C158 0.950 . S
C163 C161 1.390 . S
C163 C164 1.387 . S
C163 H166 0.950 . S
C164 C163 1.387 . S
C164 C167 1.387 . S
H165 C161 0.950 . S
H166 C163 0.950 . S
C167 C158 1.390 . S
C167 H160 0.950 . S
C167 C164 1.387 . S
C168 C169 1.387 . S
C168 H172 0.950 . S
C168 C177 1.390 . S
C169 C168 1.387 . S
C169 C171 1.387 . S
H170 C177 0.950 . S
C171 C169 1.387 . S
C171 C173 1.390 . S
C171 H175 0.950 . S
H172 C168 0.950 . S
C173 C171 1.390 . S
C173 C174 1.387 . S
C173 H176 0.950 . S
C174 C173 1.387 . S
C174 C177 1.387 . S
H175 C171 0.950 . S
H176 C173 0.950 . S
C177 C168 1.390 . S
C177 H170 0.950 . S
C177 C174 1.387 . S
C178 C179 1.387 . S
C178 H182 0.950 . S
C178 C187 1.390 . S
C179 C178 1.387 . S
C179 C181 1.387 . S
H180 C187 0.950 . S
C181 C179 1.387 . S
C181 C183 1.390 . S
C181 H185 0.950 . S
H182 C178 0.950 . S
C183 C181 1.390 . S
C183 C184 1.387 . S
C183 H186 0.950 . S
C184 C183 1.387 . S
C184 C187 1.387 . S
H185 C181 0.950 . S
H186 C183 0.950 . S
C187 C178 1.390 . S
C187 H180 0.950 . S
C187 C184 1.387 . S
C188 C189 1.387 . S
C188 H192 0.950 . S
C188 C197 1.390 . S
C189 C188 1.387 . S
C189 C191 1.387 . S
H190 C197 0.950 . S
C191 C189 1.387 . S
C191 C193 1.390 . S
C191 H195 0.950 . S
H192 C188 0.950 . S
C193 C191 1.390 . S
C193 C194 1.387 . S
C193 H196 0.950 . S
C194 C193 1.387 . S
C194 C197 1.387 . S
H195 C191 0.950 . S
H196 C193 0.950 . S
C197 C188 1.390 . S
C197 H190 0.950 . S
C197 C194 1.387 . S
C198 C199 1.387 1_545 S
C198 H202 0.950 . S
C198 C207 1.390 . S
C199 C198 1.387 1_565 S
C199 C201 1.387 . S
H200 C207 0.950 . S
C201 C199 1.387 . S
C201 C203 1.390 . S
C201 H205 0.950 . S
H202 C198 0.950 . S
C203 C201 1.390 . S
C203 C204 1.387 . S
C203 H206 0.950 . S
C204 C203 1.387 . S
C204 C207 1.387 1_565 S
H205 C201 0.950 . S
H206 C203 0.950 . S
C207 C198 1.390 . S
C207 H200 0.950 . S
C207 C204 1.387 1_545 S
C208 C209 1.387 . S
C208 H212 0.950 . S
C208 C217 1.390 . S
C209 C208 1.387 . S
C209 C211 1.387 1_455 S
H210 C217 0.950 . S
C211 C209 1.387 1_655 S
C211 C213 1.390 . S
C211 H215 0.950 . S
H212 C208 0.950 . S
C213 C211 1.390 . S
C213 C214 1.387 . S
C213 H216 0.950 . S
C214 C213 1.387 . S
C214 C217 1.387 1_655 S
H215 C211 0.950 . S
H216 C213 0.950 . S
C217 C208 1.390 . S
C217 H210 0.950 . S
C217 C214 1.387 1_455 S
C218 C219 1.387 . S
C218 H222 0.950 . S
C218 C227 1.390 . S
C219 C218 1.387 . S
C219 C221 1.387 . S
H220 C227 0.950 . S
C221 C219 1.387 . S
C221 C223 1.390 . S
C221 H225 0.950 . S
H222 C218 0.950 . S
C223 C221 1.390 . S
C223 C224 1.387 . S
C223 H226 0.950 . S
C224 C223 1.387 . S
C224 C227 1.387 . S
H225 C221 0.950 . S
H226 C223 0.950 . S
C227 C218 1.390 . S
C227 H220 0.950 . S
C227 C224 1.387 . S
C228 C229 1.387 . S
C228 H232 0.950 . S
C228 C237 1.390 . S
C229 C228 1.387 . S
C229 C231 1.387 . S
H230 C237 0.950 . S
C231 C229 1.387 . S
C231 C233 1.390 . S
C231 H235 0.950 . S
H232 C228 0.950 . S
C233 C231 1.390 . S
C233 C234 1.387 . S
C233 H236 0.950 . S
C234 C233 1.387 . S
C234 C237 1.387 . S
H235 C231 0.950 . S
H236 C233 0.950 . S
C237 C228 1.390 . S
C237 H230 0.950 . S
C237 C234 1.387 . S
C124 C105 1.534 . S
C119 C15 1.456 . S
C129 C13 1.477 . S
C134 C91 1.480 . S
C139 C18 1.281 . S
C144 C110 1.510 . S
C149 C17 1.503 . S
C154 C86 1.525 . S
C159 C36 1.457 . S
C164 C67 1.533 . S
C169 C34 1.477 . S
C174 C53 1.480 . S
C184 C72 1.510 . S
C179 C39 1.271 . S
C194 C48 1.525 . S
C189 C38 1.505 . S
C199 C14 1.629 1_565 S
C204 C44 1.667 . S
C209 C16 1.421 . S
C214 C63 1.444 . S
C224 C82 1.667 . S
C219 C35 1.629 . S
C229 C37 1.419 . S
C234 C101 1.445 . S
