# Generated by pormake.
# Topology tsx, (6,3)-cn, num edge types: 1
# Building blocks:
#     Node 0, Type 0, BuildingBlock: JUFBIX_clean_sbu_0, # of connection points: 6
#     Node 1, Type 0, BuildingBlock: JUFBIX_clean_sbu_0, # of connection points: 6
#     Node 2, Type 1, BuildingBlock: PAMTOO_clean_linker_0, # of connection points: 3
#     Node 3, Type 1, BuildingBlock: PAMTOO_clean_linker_0, # of connection points: 3
#     Node 4, Type 1, BuildingBlock: PAMTOO_clean_linker_0, # of connection points: 3
#     Node 5, Type 1, BuildingBlock: PAMTOO_clean_linker_0, # of connection points: 3
#     Edge 6, Type (0, 1), None
#     Edge 7, Type (0, 1), None
#     Edge 8, Type (0, 1), None
#     Edge 9, Type (0, 1), None
#     Edge 10, Type (0, 1), None
#     Edge 11, Type (0, 1), None
#     Edge 12, Type (0, 1), None
#     Edge 13, Type (0, 1), None
#     Edge 14, Type (0, 1), None
#     Edge 15, Type (0, 1), None
#     Edge 16, Type (0, 1), None
#     Edge 17, Type (0, 1), None
# Relax obj value: 0.103
# Max RMSD: 0.142
# Mean RMSD: 0.127
data_MOF--net-tsx--node1-JUFBIX_clean_sbu_0--node2-PAMTOO_clean_linker_0--edge1-none
_symmetry_space_group_name_H-M    P1
_symmetry_Int_Tables_number       1
_symmetry_cell_setting            triclinic
loop_
_symmetry_equiv_pos_as_xyz
'x, y, z'
_cell_length_a     9.5951323
_cell_length_b     10.570352
_cell_length_c     16.310771
_cell_angle_alpha  75.331483
_cell_angle_beta   90.148561
_cell_angle_gamma 110.55294
loop_
_atom_site_label
_atom_site_type_symbol
_atom_site_fract_x
_atom_site_fract_y
_atom_site_fract_z
_atom_type_partial_charge
Co0 Co 0.13205 1.02842 -0.04945 0.0
C1 C 1.05229 0.11006 0.7823 0.0
Co2 Co 0.99614 0.16376 -0.06359 0.0
C3 C 0.26485 0.85283 0.8986 0.0
C4 C 0.40718 0.98567 -0.03206 0.0
N5 N 0.26353 0.93349 -0.04913 0.0
N6 N 0.40427 0.85921 0.87893 0.0
C7 C 0.49367 0.94634 0.92022 0.0
H8 H 0.1699 0.80789 0.86538 0.0
H9 H 0.45037 1.0659 0.00119 0.0
C10 C 0.0863 1.08047 0.09759 0.0
N11 N 0.87889 0.27615 -0.06979 0.0
C12 C 0.84132 0.3508 0.85881 0.0
C13 C 0.84775 0.32848 -0.00764 0.0
N14 N 0.78972 0.44766 0.87373 0.0
C15 C 0.79487 0.43387 -0.04201 0.0
C16 C 0.83361 0.87408 -0.00663 0.0
O17 O 0.14322 1.01098 0.06529 0.0
O18 O 1.01658 0.15161 0.05255 0.0
O19 O 0.82702 0.99601 -0.02935 0.0
O20 O 0.95736 0.85844 -0.02013 0.0
O21 O 0.98262 0.17095 0.81521 0.0
H22 H 0.86863 0.29778 0.05817 0.0
H23 H 0.85926 0.34024 0.79594 0.0
O24 O 0.12438 1.04581 0.82994 0.0
O25 O 0.30085 0.20189 -0.06858 0.0
O26 O 0.16295 0.33112 0.91245 0.0
C27 C 0.2872 0.31852 -0.07263 0.0
H28 H 0.61255 0.99432 0.90653 0.0
H29 H 0.76315 0.4956 -0.00714 0.0
Co30 Co 0.63171 0.52809 0.45064 0.0
C31 C 0.55207 0.60984 0.28224 0.0
Co32 Co 0.49604 0.66358 0.43621 0.0
C33 C 0.76449 0.3526 0.39856 0.0
C34 C 0.90653 0.4848 0.46834 0.0
N35 N 0.76302 0.43299 0.45097 0.0
N36 N 0.90392 0.35879 0.37909 0.0
C37 C 0.99313 0.44551 0.42067 0.0
H38 H 0.66972 0.30804 0.3651 0.0
H39 H 0.94962 0.56477 0.50178 0.0
C40 C 0.58608 0.58024 0.59754 0.0
N41 N 0.37902 0.77614 0.43005 0.0
C42 C 0.34195 0.85122 0.35863 0.0
C43 C 0.34736 0.82801 0.49231 0.0
N44 N 0.29011 0.94786 0.37365 0.0
C45 C 0.29464 0.93353 0.45799 0.0
C46 C 0.33326 0.37397 0.49329 0.0
O47 O 0.64225 0.51 0.56547 0.0
O48 O 0.51718 0.65201 0.55227 0.0
O49 O 0.3269 0.49599 0.47089 0.0
O50 O 0.45685 0.35823 0.47949 0.0
O51 O 0.48172 0.67014 0.31517 0.0
H52 H 0.36769 0.79681 0.55818 0.0
H53 H 0.36037 0.84108 0.2957 0.0
O54 O 0.62472 0.54621 0.32985 0.0
O55 O 0.80063 0.70142 0.43204 0.0
O56 O 0.66296 0.8309 0.41168 0.0
C57 C 0.78699 0.81825 0.42731 0.0
H58 H 0.11203 0.49333 0.40719 0.0
H59 H 0.26252 0.99494 0.49295 0.0
H60 H 0.19257 0.92147 0.22083 0.0
H61 H 1.05612 0.27798 0.16094 0.0
H62 H 0.27236 0.19294 0.38591 0.0
H63 H 0.87507 0.20894 0.31099 0.0
C64 C 0.94955 0.31867 0.30702 0.0
O65 O 0.10018 0.33308 0.30409 0.0
H66 H 0.93186 0.38723 0.24712 0.0
C67 C 0.18511 1.01222 0.23696 0.0
C68 C 0.23608 1.04257 0.31312 0.0
C69 C 0.12323 0.0988 0.18131 0.0
C70 C 0.10574 0.2117 0.2028 0.0
C71 C 0.14596 0.23893 0.27966 0.0
C72 C 0.22386 0.16227 0.33126 0.0
H73 H 0.27905 0.30055 0.66681 0.0
H74 H 0.86956 0.94696 0.68717 0.0
H75 H 0.08082 0.20868 0.4453 0.0
H76 H 1.0066 0.89994 0.46444 0.0
C77 C 0.91112 0.93461 0.44936 0.0
O78 O 0.86897 0.97566 0.51785 0.0
H79 H 0.9419 1.02371 0.39203 0.0
C80 C 0.19247 0.23389 0.63735 0.0
C81 C 0.20449 0.25776 0.54813 0.0
C82 C 1.06635 0.12706 0.68833 0.0
C83 C 0.9608 1.03427 0.64893 0.0
C84 C 0.97083 1.05955 0.55931 0.0
C85 C 0.08518 0.17912 0.51159 0.0
H86 H 0.69202 0.42108 0.72094 0.0
H87 H 0.55605 0.77789 0.66082 0.0
H88 H 0.77216 0.69292 0.88583 0.0
H89 H 0.37509 0.70888 0.81117 0.0
C90 C 0.44958 0.81872 0.80695 0.0
O91 O 0.6002 0.83317 0.80388 0.0
H92 H 0.43165 0.88701 0.74701 0.0
C93 C 0.68466 0.51191 0.73701 0.0
C94 C 0.73568 0.54233 0.81315 0.0
C95 C 0.62297 0.59858 0.68127 0.0
C96 C 0.60559 0.71157 0.7027 0.0
C97 C 0.64583 0.73885 0.77955 0.0
C98 C 0.72362 0.66215 0.83121 0.0
H99 H 0.7795 0.79981 0.16696 0.0
H100 H 0.36872 0.44774 0.18677 0.0
H101 H 0.5811 0.70952 -0.05484 0.0
H102 H 0.50665 0.39921 -0.03443 0.0
C103 C 0.41163 0.43429 -0.05024 0.0
O104 O 0.36878 0.4769 0.01733 0.0
H105 H 0.44226 0.52332 0.89238 0.0
C106 C 0.69273 0.73356 0.13738 0.0
C107 C 0.70472 0.75788 0.04813 0.0
C108 C 0.56626 0.627 0.18824 0.0
C109 C 0.46031 0.53483 0.14866 0.0
C110 C 0.4705 0.56044 0.05902 0.0
C111 C 0.58523 0.67981 0.01145 0.0
loop_
_geom_bond_atom_site_label_1
_geom_bond_atom_site_label_2
_geom_bond_distance
_geom_bond_site_symmetry_2
_ccdc_geom_bond_type
Co0 N5 2.057 1_554 S
Co0 O17 2.021 . S
Co0 O20 2.062 1_455 S
Co0 O24 2.117 1_564 S
Co0 O25 2.020 1_565 S
C1 O21 1.259 1_455 S
C1 O24 1.258 . S
Co2 N11 2.057 1_556 S
Co2 O18 2.117 1_556 S
Co2 O19 2.020 1_546 S
Co2 O21 2.021 . S
Co2 O26 2.062 1_655 S
C3 N5 1.316 1_554 S
C3 N6 1.347 . S
C3 H8 0.931 . S
C4 N5 1.375 . S
C4 C7 1.350 . S
C4 H9 0.930 . S
N5 Co0 2.057 1_556 S
N5 C3 1.316 1_556 S
N5 C4 1.375 . S
N6 C3 1.347 . S
N6 C7 1.373 1_554 S
C7 C4 1.350 . S
C7 N6 1.373 1_556 S
C7 H28 0.931 . S
H8 C3 0.931 . S
H9 C4 0.930 . S
C10 O17 1.259 . S
C10 O18 1.258 1_465 S
N11 Co2 2.057 1_554 S
N11 C12 1.316 1_554 S
N11 C13 1.375 . S
C12 N11 1.316 1_556 S
C12 N14 1.347 1_556 S
C12 H23 0.931 . S
C13 N11 1.375 . S
C13 C15 1.350 . S
C13 H22 0.930 . S
N14 C12 1.347 1_554 S
N14 C15 1.373 . S
C15 C13 1.350 . S
C15 N14 1.373 . S
C15 H29 0.931 . S
C16 O19 1.256 . S
C16 O20 1.255 . S
O17 Co0 2.021 . S
O17 C10 1.259 . S
O18 Co2 2.117 1_554 S
O18 C10 1.258 1_645 S
O19 Co2 2.020 1_564 S
O19 C16 1.256 . S
O20 Co0 2.062 1_655 S
O20 C16 1.255 . S
O21 C1 1.259 1_655 S
O21 Co2 2.021 . S
H22 C13 0.930 . S
H23 C12 0.931 . S
O24 Co0 2.117 1_546 S
O24 C1 1.258 . S
O25 Co0 2.020 1_545 S
O25 C27 1.256 1_554 S
O26 Co2 2.062 1_455 S
O26 C27 1.255 . S
C27 O25 1.256 1_556 S
C27 O26 1.255 . S
H28 C7 0.931 . S
H29 C15 0.931 . S
Co30 N35 2.057 . S
Co30 O47 2.021 . S
Co30 O50 2.062 . S
Co30 O54 2.117 . S
Co30 O55 2.020 . S
C31 O51 1.259 . S
C31 O54 1.258 . S
Co32 N41 2.057 . S
Co32 O48 2.117 . S
Co32 O49 2.020 . S
Co32 O51 2.021 . S
Co32 O56 2.062 . S
C33 N35 1.316 . S
C33 N36 1.347 . S
C33 H38 0.931 . S
C34 N35 1.375 . S
C34 C37 1.350 . S
C34 H39 0.930 . S
N35 Co30 2.057 . S
N35 C33 1.316 . S
N35 C34 1.375 . S
N36 C33 1.347 . S
N36 C37 1.373 . S
C37 C34 1.350 . S
C37 N36 1.373 . S
C37 H58 0.931 . S
H38 C33 0.931 . S
H39 C34 0.930 . S
C40 O47 1.259 . S
C40 O48 1.258 . S
N41 Co32 2.057 . S
N41 C42 1.316 . S
N41 C43 1.375 . S
C42 N41 1.316 . S
C42 N44 1.347 . S
C42 H53 0.931 . S
C43 N41 1.375 . S
C43 C45 1.350 . S
C43 H52 0.930 . S
N44 C42 1.347 . S
N44 C45 1.373 . S
C45 C43 1.350 . S
C45 N44 1.373 . S
C45 H59 0.931 . S
C46 O49 1.256 . S
C46 O50 1.255 . S
O47 Co30 2.021 . S
O47 C40 1.259 . S
O48 Co32 2.117 . S
O48 C40 1.258 . S
O49 Co32 2.020 . S
O49 C46 1.256 . S
O50 Co30 2.062 . S
O50 C46 1.255 . S
O51 C31 1.259 . S
O51 Co32 2.021 . S
H52 C43 0.930 . S
H53 C42 0.931 . S
O54 Co30 2.117 . S
O54 C31 1.258 . S
O55 Co30 2.020 . S
O55 C57 1.256 . S
O56 Co32 2.062 . S
O56 C57 1.255 . S
C57 O55 1.256 . S
C57 O56 1.255 . S
H58 C37 0.931 . S
H59 C45 0.931 . S
H60 C67 0.929 . S
H61 C70 0.930 . S
H62 C72 0.929 . S
H63 C64 0.969 . S
C64 H63 0.969 . S
C64 O65 1.550 . S
C64 H66 0.973 . S
O65 C64 1.550 . S
O65 C71 1.412 . S
H66 C64 0.973 . S
C67 H60 0.929 . S
C67 C68 1.400 . S
C67 C69 1.364 . S
C68 C67 1.400 . S
C68 C72 1.377 . S
C69 C67 1.364 . S
C69 C70 1.374 1_465 S
C70 H61 0.930 . S
C70 C69 1.374 1_645 S
C70 C71 1.383 . S
C71 O65 1.412 . S
C71 C70 1.383 . S
C71 C72 1.394 1_645 S
C72 H62 0.929 . S
C72 C68 1.377 . S
C72 C71 1.394 1_465 S
H73 C80 0.929 . S
H74 C83 0.930 1_565 S
H75 C85 0.929 . S
H76 C77 0.969 . S
C77 H76 0.969 . S
C77 O78 1.550 . S
C77 H79 0.973 . S
O78 C77 1.550 . S
O78 C84 1.412 1_565 S
H79 C77 0.973 . S
C80 H73 0.929 . S
C80 C81 1.400 . S
C80 C82 1.364 . S
C81 C80 1.400 . S
C81 C85 1.377 . S
C82 C80 1.364 . S
C82 C83 1.374 1_455 S
C83 H74 0.930 1_545 S
C83 C82 1.374 1_655 S
C83 C84 1.383 . S
C84 O78 1.412 1_545 S
C84 C83 1.383 . S
C84 C85 1.394 1_655 S
C85 H75 0.929 . S
C85 C81 1.377 . S
C85 C84 1.394 1_455 S
H86 C93 0.929 . S
H87 C96 0.930 . S
H88 C98 0.929 . S
H89 C90 0.969 . S
C90 H89 0.969 . S
C90 O91 1.550 1_556 S
C90 H92 0.973 . S
O91 C90 1.550 1_554 S
O91 C97 1.412 1_554 S
H92 C90 0.973 . S
C93 H86 0.929 . S
C93 C94 1.400 . S
C93 C95 1.364 . S
C94 C93 1.400 . S
C94 C98 1.377 1_556 S
C95 C93 1.364 . S
C95 C96 1.374 . S
C96 H87 0.930 . S
C96 C95 1.374 . S
C96 C97 1.383 . S
C97 O91 1.412 1_556 S
C97 C96 1.383 . S
C97 C98 1.394 1_556 S
C98 H88 0.929 . S
C98 C94 1.377 1_554 S
C98 C97 1.394 1_554 S
H99 C106 0.929 . S
H100 C109 0.930 . S
H101 C111 0.929 . S
H102 C103 0.969 . S
C103 H102 0.969 . S
C103 O104 1.550 1_554 S
C103 H105 0.973 . S
O104 C103 1.550 1_556 S
O104 C110 1.412 1_556 S
H105 C103 0.973 . S
C106 H99 0.929 . S
C106 C107 1.400 . S
C106 C108 1.364 . S
C107 C106 1.400 . S
C107 C111 1.377 1_554 S
C108 C106 1.364 . S
C108 C109 1.374 . S
C109 H100 0.930 . S
C109 C108 1.374 . S
C109 C110 1.383 . S
C110 O104 1.412 1_554 S
C110 C109 1.383 . S
C110 C111 1.394 1_554 S
C111 H101 0.929 . S
C111 C107 1.377 1_556 S
C111 C110 1.394 1_556 S
C103 C27 1.393 1_554 S
N6 C90 1.362 1_554 S
C16 C107 1.504 . S
N14 C94 1.451 1_554 S
C57 C77 1.393 . S
N36 C64 1.362 . S
C81 C46 1.504 . S
C68 N44 1.450 . S
C10 C69 1.451 . S
C1 C82 1.665 . S
C95 C40 1.451 . S
C31 C108 1.665 . S
