# Generated by pormake.
# Topology sit, (3,6)-cn, num edge types: 1
# Building blocks:
#     Node 0, Type 0, BuildingBlock: MIDCAF_clean_linker_0, # of connection points: 3
#     Node 1, Type 0, BuildingBlock: MIDCAF_clean_linker_0, # of connection points: 3
#     Node 2, Type 0, BuildingBlock: MIDCAF_clean_linker_0, # of connection points: 3
#     Node 3, Type 0, BuildingBlock: MIDCAF_clean_linker_0, # of connection points: 3
#     Node 4, Type 1, BuildingBlock: MIDCAF_clean_sbu_0, # of connection points: 6
#     Node 5, Type 1, BuildingBlock: MIDCAF_clean_sbu_0, # of connection points: 6
#     Edge 6, Type (0, 1), BuildingBlock: EYOCIG_clean_linker_4, # of connection points: 2
#     Edge 7, Type (0, 1), BuildingBlock: EYOCIG_clean_linker_4, # of connection points: 2
#     Edge 8, Type (0, 1), BuildingBlock: EYOCIG_clean_linker_4, # of connection points: 2
#     Edge 9, Type (0, 1), BuildingBlock: EYOCIG_clean_linker_4, # of connection points: 2
#     Edge 10, Type (0, 1), BuildingBlock: EYOCIG_clean_linker_4, # of connection points: 2
#     Edge 11, Type (0, 1), BuildingBlock: EYOCIG_clean_linker_4, # of connection points: 2
#     Edge 12, Type (0, 1), BuildingBlock: EYOCIG_clean_linker_4, # of connection points: 2
#     Edge 13, Type (0, 1), BuildingBlock: EYOCIG_clean_linker_4, # of connection points: 2
#     Edge 14, Type (0, 1), BuildingBlock: EYOCIG_clean_linker_4, # of connection points: 2
#     Edge 15, Type (0, 1), BuildingBlock: EYOCIG_clean_linker_4, # of connection points: 2
#     Edge 16, Type (0, 1), BuildingBlock: EYOCIG_clean_linker_4, # of connection points: 2
#     Edge 17, Type (0, 1), BuildingBlock: EYOCIG_clean_linker_4, # of connection points: 2
# Relax obj value: 0.112
# Max RMSD: 0.194
# Mean RMSD: 0.108
data_MOF--net-sit--node1-MIDCAF_clean_sbu_0--node2-MIDCAF_clean_linker_0--edge1-EYOCIG_clean_linker_4
_symmetry_space_group_name_H-M    P1
_symmetry_Int_Tables_number       1
_symmetry_cell_setting            triclinic
loop_
_symmetry_equiv_pos_as_xyz
'x, y, z'
_cell_length_a     23.999634
_cell_length_b     31.339723
_cell_length_c     36.223872
_cell_angle_alpha  90.319934
_cell_angle_beta   89.352148
_cell_angle_gamma 83.01586
loop_
_atom_site_label
_atom_site_type_symbol
_atom_site_fract_x
_atom_site_fract_y
_atom_site_fract_z
_atom_type_partial_charge
C0 C 0.94349 0.3687 0.93372 0.0
C1 C 0.89269 0.36664 0.95248 0.0
C2 C 0.89017 0.33787 0.98176 0.0
C3 C 0.93873 0.31209 -0.00711 0.0
H4 H 0.00055 0.20464 0.05355 0.0
H5 H -0.00337 0.15391 0.10407 0.0
H6 H 0.17546 0.14849 0.11791 0.0
H7 H 0.18022 0.19945 0.06733 0.0
H8 H 0.23292 0.29333 0.04071 0.0
H9 H 0.30937 0.33809 0.03119 0.0
H10 H 0.23934 0.37937 0.92635 0.0
H11 H 0.16356 0.33528 0.93543 0.0
H12 H 0.03097 0.34608 0.93024 0.0
H13 H 0.94584 0.39047 0.91075 0.0
H14 H 0.85092 0.33578 -0.00368 0.0
H15 H 0.93613 0.29098 0.01626 0.0
N16 N 0.04317 0.25944 0.01349 0.0
N17 N 0.14075 0.25753 0.02068 0.0
N18 N 0.09232 0.30737 0.98091 0.0
C19 C 0.09186 0.24141 0.02895 0.0
C20 C 0.14107 0.29039 -0.00364 0.0
C21 C 0.04325 0.29238 -0.01068 0.0
C22 C 0.09063 0.20678 0.05664 0.0
C23 C 0.03933 0.19235 0.06687 0.0
C24 C 0.03694 0.16315 0.09566 0.0
C25 C 0.0857 0.14772 0.11455 0.0
C26 C 0.1374 0.16012 0.10343 0.0
C27 C 0.13993 0.18942 0.07462 0.0
C28 C 0.19208 0.31108 -0.01107 0.0
C29 C 0.2345 0.3114 0.01539 0.0
C30 C 0.27774 0.33719 0.01019 0.0
C31 C 0.27897 0.36239 0.9784 0.0
C32 C 0.2384 0.36048 0.95129 0.0
C33 C 0.19528 0.33514 0.95649 0.0
C34 C -0.00961 0.3151 0.97495 0.0
C35 C -0.008 0.3432 0.94486 0.0
C36 C 0.85125 0.68574 0.94569 0.0
C37 C 0.81153 0.68212 0.97363 0.0
C38 C 0.81248 0.70655 0.00612 0.0
C39 C 0.85488 0.73304 0.01123 0.0
H40 H 0.90896 0.84393 0.06631 0.0
H41 H 0.91455 0.89328 0.11847 0.0
H42 H 0.09294 0.88904 0.10043 0.0
H43 H 0.0882 0.84005 0.04838 0.0
H44 H 0.15203 0.75347 0.01156 0.0
H45 H 0.2374 0.70712 -0.00731 0.0
H46 H 0.14553 0.65022 0.90764 0.0
H47 H 0.06009 0.6962 0.92608 0.0
H48 H 0.92494 0.71277 0.92919 0.0
H49 H 0.85049 0.66747 0.92024 0.0
H50 H 0.78149 0.70433 0.02778 0.0
H51 H 0.85651 0.75027 0.03713 0.0
N52 N 0.94791 0.7878 0.0164 0.0
N53 N 0.04582 0.78479 0.00916 0.0
N54 N -0.00316 0.73773 0.97577 0.0
C55 C -0.00307 0.80329 0.0249 0.0
C56 C 0.04599 0.75203 0.98449 0.0
C57 C 0.94778 0.7552 -0.00854 0.0
C58 C -0.00173 0.83735 0.05341 0.0
C59 C 0.94929 0.85395 0.07301 0.0
C60 C 0.95231 0.88229 0.10274 0.0
C61 C 0.00418 0.89448 0.11314 0.0
C62 C 0.05252 0.87993 0.09263 0.0
C63 C 0.04965 0.85171 0.06295 0.0
C64 C 0.09917 0.7284 0.97045 0.0
C65 C 0.1501 0.73155 -0.01149 0.0
C66 C 0.19877 0.70489 0.978 0.0
C67 C 0.19713 0.67505 0.94922 0.0
C68 C 0.14716 0.67282 0.93025 0.0
C69 C 0.09849 0.69925 0.94078 0.0
C70 C 0.89676 0.73481 0.98399 0.0
C71 C 0.89357 0.71178 0.95081 0.0
C72 C 0.44276 0.86919 0.43462 0.0
C73 C 0.39208 0.86724 0.45355 0.0
C74 C 0.38969 0.83852 0.48287 0.0
C75 C 0.43825 0.81263 0.49385 0.0
H76 H 0.49998 0.70471 0.55394 0.0
H77 H 0.49617 0.65382 0.60433 0.0
H78 H 0.67519 0.64764 0.61754 0.0
H79 H 0.67986 0.69878 0.56707 0.0
H80 H 0.73303 0.79262 0.5401 0.0
H81 H 0.80959 0.83715 0.53012 0.0
H82 H 0.73888 0.87809 0.42538 0.0
H83 H 0.66298 0.83421 0.43492 0.0
H84 H 0.53015 0.84635 0.43083 0.0
H85 H 0.44502 0.89092 0.41162 0.0
H86 H 0.35052 0.83651 0.49756 0.0
H87 H 0.43574 0.79152 0.51723 0.0
N88 N 0.54261 0.75953 0.51393 0.0
N89 N 0.64037 0.75699 0.52051 0.0
N90 N 0.59182 0.80715 0.48106 0.0
C91 C 0.59138 0.74118 0.52907 0.0
C92 C 0.64068 0.78986 0.49619 0.0
C93 C 0.54268 0.79248 0.48978 0.0
C94 C 0.59017 0.70649 0.55671 0.0
C95 C 0.53883 0.69223 0.5671 0.0
C96 C 0.53649 0.66293 0.59581 0.0
C97 C 0.58534 0.64723 0.61448 0.0
C98 C 0.63706 0.65948 0.60322 0.0
C99 C 0.63954 0.68888 0.57447 0.0
C100 C 0.69183 0.81022 0.4884 0.0
C101 C 0.7345 0.81054 0.51469 0.0
C102 C 0.77781 0.8362 0.50923 0.0
C103 C 0.77886 0.86128 0.47735 0.0
C104 C 0.73809 0.85931 0.45038 0.0
C105 C 0.69489 0.83409 0.45585 0.0
C106 C 0.48978 0.81548 0.4757 0.0
C107 C 0.49128 0.84358 0.44561 0.0
C108 C 0.35107 0.18505 0.44625 0.0
C109 C 0.31126 0.18175 0.4742 0.0
C110 C 0.31224 0.20642 0.50654 0.0
C111 C 0.35471 0.23287 0.5115 0.0
H112 H 0.40877 0.34363 0.56629 0.0
H113 H 0.41431 0.39283 0.61855 0.0
H114 H 0.5927 0.38871 0.60057 0.0
H115 H 0.58801 0.33986 0.54842 0.0
H116 H 0.6519 0.25345 0.51119 0.0
H117 H 0.73719 0.20707 0.49222 0.0
H118 H 0.64506 0.15031 0.40723 0.0
H119 H 0.5597 0.19632 0.42577 0.0
H120 H 0.42486 0.21184 0.42958 0.0
H121 H 0.3503 0.16659 0.4209 0.0
H122 H 0.28118 0.20444 0.52821 0.0
H123 H 0.35632 0.25033 0.53729 0.0
N124 N 0.44777 0.2875 0.51648 0.0
N125 N 0.54561 0.28473 0.50899 0.0
N126 N 0.49663 0.23756 0.47572 0.0
C127 C 0.49675 0.3031 0.52486 0.0
C128 C 0.54576 0.25199 0.4843 0.0
C129 C 0.44761 0.2549 0.49155 0.0
C130 C 0.49809 0.33712 0.55341 0.0
C131 C 0.44909 0.35365 0.57302 0.0
C132 C 0.45208 0.3819 0.60281 0.0
C133 C 0.50393 0.39407 0.61327 0.0
C134 C 0.55229 0.37961 0.59274 0.0
C135 C 0.54945 0.35147 0.563 0.0
C136 C 0.59891 0.22845 0.47013 0.0
C137 C 0.64991 0.23157 0.48813 0.0
C138 C 0.69853 0.20489 0.47755 0.0
C139 C 0.69678 0.17506 0.44878 0.0
C140 C 0.64676 0.1729 0.42984 0.0
C141 C 0.59814 0.19934 0.44043 0.0
C142 C 0.39664 0.23438 0.48424 0.0
C143 C 0.39346 0.21106 0.45122 0.0
Zn144 Zn 0.03315 0.10612 0.35357 0.0
Zn145 Zn 0.06121 0.933 0.35302 0.0
Zn146 Zn 0.0469 0.01963 0.35693 0.0
C147 C 0.04297 0.96145 0.28187 0.0
C148 C 0.96826 0.96012 0.39935 0.0
O149 O 0.11612 0.04177 0.38822 0.0
O150 O 0.0942 0.11264 0.38869 0.0
C151 C 0.05197 0.07716 0.28211 0.0
O152 O 0.0447 0.99756 0.29874 0.0
O153 O 0.04763 0.92659 0.29941 0.0
O154 O -0.00061 0.92695 0.38862 0.0
O155 O 0.97729 0.9978 0.38872 0.0
O156 O 0.04757 0.1121 0.29992 0.0
O157 O 0.04987 0.04117 0.29878 0.0
O158 O 0.96624 0.04257 0.38441 0.0
O159 O 0.95513 0.11259 0.37307 0.0
C160 C 0.937 0.07979 0.38644 0.0
O161 O 0.12666 0.99682 0.38423 0.0
O162 O 0.13868 0.92673 0.37234 0.0
C163 C 0.12514 0.07952 0.39893 0.0
C164 C 0.15598 0.95968 0.38611 0.0
Zn165 Zn 0.53335 0.60592 0.85335 0.0
Zn166 Zn 0.56068 0.4328 0.85337 0.0
Zn167 Zn 0.547 0.51948 0.85698 0.0
C168 C 0.54228 0.46099 0.78216 0.0
C169 C 0.46832 0.46044 0.89999 0.0
O170 O 0.61653 0.54159 0.88796 0.0
O171 O 0.59462 0.61245 0.8883 0.0
C172 C 0.55182 0.57665 0.78195 0.0
O173 O 0.54441 0.49715 0.79888 0.0
O174 O 0.54665 0.42623 0.79983 0.0
O175 O 0.49914 0.4271 0.88927 0.0
O176 O 0.47751 0.49799 0.88913 0.0
O177 O 0.54759 0.61164 0.79965 0.0
O178 O 0.5497 0.54073 0.79873 0.0
O179 O 0.46654 0.54271 0.88461 0.0
O180 O 0.45541 0.61267 0.873 0.0
C181 C 0.43734 0.57994 0.88657 0.0
O182 O 0.62692 0.49661 0.88403 0.0
O183 O 0.63835 0.42646 0.87236 0.0
C184 C 0.62563 0.57936 0.89854 0.0
C185 C 0.65604 0.45938 0.8859 0.0
C186 C 0.07618 0.10277 0.17536 0.0
C187 C 0.08143 0.1232 0.14772 0.0
C188 C 0.06804 0.08598 0.2108 0.0
C189 C 0.06083 0.07826 0.24292 0.0
C190 C 0.01565 0.93718 0.1752 0.0
C191 C 0.00924 0.91778 0.14705 0.0
C192 C 0.02523 0.95297 0.21083 0.0
C193 C 0.03321 0.96026 0.2429 0.0
C194 C 0.57591 0.60208 0.67518 0.0
C195 C 0.58117 0.6226 0.6476 0.0
C196 C 0.56777 0.58526 0.71061 0.0
C197 C 0.5606 0.57759 0.74274 0.0
C198 C 0.51522 0.43659 0.67545 0.0
C199 C 0.50893 0.41728 0.64724 0.0
C200 C 0.52466 0.45234 0.71111 0.0
C201 C 0.53261 0.45966 0.74319 0.0
C202 C 0.35261 0.41538 0.96258 0.0
C203 C 0.32127 0.39047 0.97265 0.0
C204 C 0.38911 0.44044 0.94431 0.0
C205 C 0.42285 0.45484 0.92463 0.0
C206 C 0.74043 0.62698 0.95863 0.0
C207 C 0.77076 0.65275 0.96825 0.0
C208 C 0.70473 0.60082 0.94119 0.0
C209 C 0.6712 0.58556 0.92229 0.0
C210 C 0.80244 0.41705 0.93157 0.0
C211 C 0.84328 0.39392 0.94136 0.0
C212 C 0.75302 0.44015 0.91788 0.0
C213 C 0.70886 0.45364 0.9043 0.0
C214 C 0.28806 0.62316 0.93009 0.0
C215 C 0.2467 0.64686 0.93889 0.0
C216 C 0.33847 0.59958 0.9175 0.0
C217 C 0.38348 0.58581 0.90448 0.0
C218 C 0.85238 0.91433 0.46135 0.0
C219 C 0.82107 0.8894 0.47143 0.0
C220 C 0.88885 0.93955 0.44324 0.0
C221 C 0.92264 0.95419 0.42377 0.0
C222 C 0.23986 0.12682 0.45933 0.0
C223 C 0.2703 0.15251 0.46892 0.0
C224 C 0.20408 0.10078 0.44182 0.0
C225 C 0.1706 0.08563 0.4228 0.0
C226 C 0.30183 0.91762 0.43259 0.0
C227 C 0.34262 0.89447 0.44244 0.0
C228 C 0.25253 0.94066 0.41868 0.0
C229 C 0.20852 0.95405 0.40485 0.0
C230 C 0.78758 0.12301 0.42966 0.0
C231 C 0.74627 0.14678 0.43844 0.0
C232 C 0.83798 0.09934 0.41714 0.0
C233 C 0.88303 0.08555 0.40422 0.0
loop_
_geom_bond_atom_site_label_1
_geom_bond_atom_site_label_2
_geom_bond_distance
_geom_bond_site_symmetry_2
_ccdc_geom_bond_type
C0 C1 1.384 . S
C0 H13 0.947 . S
C0 C35 1.382 1_655 S
C1 C0 1.384 . S
C1 C2 1.378 . S
C2 C1 1.378 . S
C2 C3 1.378 1_556 S
C2 H14 0.952 1_556 S
C3 C2 1.378 1_554 S
C3 H15 0.950 . S
C3 C34 1.383 1_654 S
H4 C23 0.947 . S
H5 C24 0.946 . S
H6 C26 0.953 . S
H7 C27 0.945 . S
H8 C29 0.952 . S
H9 C30 0.949 1_554 S
H10 C32 0.950 . S
H11 C33 0.948 . S
H12 C35 0.951 . S
H13 C0 0.947 . S
H14 C2 0.952 1_554 S
H15 C3 0.950 . S
N16 C19 1.382 . S
N16 C21 1.363 . S
N17 C19 1.371 . S
N17 C20 1.372 . S
N18 C20 1.361 1_556 S
N18 C21 1.377 1_556 S
C19 N16 1.382 . S
C19 N17 1.371 . S
C19 C22 1.480 . S
C20 N17 1.372 . S
C20 N18 1.361 1_554 S
C20 C28 1.449 1_554 S
C21 N16 1.363 . S
C21 N18 1.377 1_554 S
C21 C34 1.479 1_554 S
C22 C19 1.480 . S
C22 C23 1.383 . S
C22 C27 1.385 . S
C23 H4 0.947 . S
C23 C22 1.383 . S
C23 C24 1.388 . S
C24 H5 0.946 . S
C24 C23 1.388 . S
C24 C25 1.384 . S
C25 C24 1.384 . S
C25 C26 1.377 . S
C26 H6 0.953 . S
C26 C25 1.377 . S
C26 C27 1.369 . S
C27 H7 0.945 . S
C27 C22 1.385 . S
C27 C26 1.369 . S
C28 C20 1.449 1_556 S
C28 C29 1.366 1_556 S
C28 C33 1.379 . S
C29 H8 0.952 . S
C29 C28 1.366 1_554 S
C29 C30 1.389 1_554 S
C30 H9 0.949 1_556 S
C30 C29 1.389 1_556 S
C30 C31 1.387 . S
C31 C30 1.387 . S
C31 C32 1.372 . S
C32 H10 0.950 . S
C32 C31 1.372 . S
C32 C33 1.379 . S
C33 H11 0.948 . S
C33 C28 1.379 . S
C33 C32 1.379 . S
C34 C3 1.383 1_456 S
C34 C21 1.479 1_556 S
C34 C35 1.398 . S
C35 C0 1.382 1_455 S
C35 H12 0.951 . S
C35 C34 1.398 . S
C36 C37 1.384 . S
C36 H49 0.947 . S
C36 C71 1.382 . S
C37 C36 1.384 . S
C37 C38 1.378 . S
C38 C37 1.378 . S
C38 C39 1.378 1_556 S
C38 H50 0.952 1_556 S
C39 C38 1.378 1_554 S
C39 H51 0.950 . S
C39 C70 1.383 1_554 S
H40 C59 0.947 . S
H41 C60 0.946 . S
H42 C62 0.953 . S
H43 C63 0.945 . S
H44 C65 0.952 . S
H45 C66 0.949 1_554 S
H46 C68 0.950 . S
H47 C69 0.948 . S
H48 C71 0.951 . S
H49 C36 0.947 . S
H50 C38 0.952 1_554 S
H51 C39 0.950 . S
N52 C55 1.382 1_655 S
N52 C57 1.363 . S
N53 C55 1.371 . S
N53 C56 1.372 . S
N54 C56 1.361 1_556 S
N54 C57 1.377 1_456 S
C55 N52 1.382 1_455 S
C55 N53 1.371 . S
C55 C58 1.480 . S
C56 N53 1.372 . S
C56 N54 1.361 1_554 S
C56 C64 1.457 1_554 S
C57 N52 1.363 . S
C57 N54 1.377 1_654 S
C57 C70 1.479 1_554 S
C58 C55 1.480 . S
C58 C59 1.383 1_455 S
C58 C63 1.385 . S
C59 H40 0.947 . S
C59 C58 1.383 1_655 S
C59 C60 1.388 . S
C60 H41 0.946 . S
C60 C59 1.388 . S
C60 C61 1.370 1_655 S
C61 C60 1.370 1_455 S
C61 C62 1.389 . S
C62 H42 0.953 . S
C62 C61 1.389 . S
C62 C63 1.369 . S
C63 H43 0.945 . S
C63 C58 1.385 . S
C63 C62 1.369 . S
C64 C56 1.457 1_556 S
C64 C65 1.372 1_556 S
C64 C69 1.364 . S
C65 H44 0.952 . S
C65 C64 1.372 1_554 S
C65 C66 1.389 1_554 S
C66 H45 0.949 1_556 S
C66 C65 1.389 1_556 S
C66 C67 1.387 . S
C67 C66 1.387 . S
C67 C68 1.372 . S
C68 H46 0.950 . S
C68 C67 1.372 . S
C68 C69 1.379 . S
C69 H47 0.948 . S
C69 C64 1.364 . S
C69 C68 1.379 . S
C70 C39 1.383 1_556 S
C70 C57 1.479 1_556 S
C70 C71 1.398 . S
C71 C36 1.382 . S
C71 H48 0.951 . S
C71 C70 1.398 . S
C72 C73 1.384 . S
C72 H85 0.947 . S
C72 C107 1.382 . S
C73 C72 1.384 . S
C73 C74 1.378 . S
C74 C73 1.378 . S
C74 C75 1.378 . S
C74 H86 0.952 . S
C75 C74 1.378 . S
C75 H87 0.950 . S
C75 C106 1.383 . S
H76 C95 0.947 . S
H77 C96 0.946 . S
H78 C98 0.953 . S
H79 C99 0.945 . S
H80 C101 0.952 . S
H81 C102 0.949 . S
H82 C104 0.950 . S
H83 C105 0.948 . S
H84 C107 0.951 . S
H85 C72 0.947 . S
H86 C74 0.952 . S
H87 C75 0.950 . S
N88 C91 1.382 . S
N88 C93 1.363 . S
N89 C91 1.371 . S
N89 C92 1.372 . S
N90 C92 1.361 . S
N90 C93 1.377 . S
C91 N88 1.382 . S
C91 N89 1.371 . S
C91 C94 1.480 . S
C92 N89 1.372 . S
C92 N90 1.361 . S
C92 C100 1.457 . S
C93 N88 1.363 . S
C93 N90 1.377 . S
C93 C106 1.479 . S
C94 C91 1.480 . S
C94 C95 1.383 . S
C94 C99 1.385 . S
C95 H76 0.947 . S
C95 C94 1.383 . S
C95 C96 1.388 . S
C96 H77 0.946 . S
C96 C95 1.388 . S
C96 C97 1.384 . S
C97 C96 1.384 . S
C97 C98 1.377 . S
C98 H78 0.953 . S
C98 C97 1.377 . S
C98 C99 1.369 . S
C99 H79 0.945 . S
C99 C94 1.385 . S
C99 C98 1.369 . S
C100 C92 1.457 . S
C100 C101 1.372 . S
C100 C105 1.364 . S
C101 H80 0.952 . S
C101 C100 1.372 . S
C101 C102 1.389 . S
C102 H81 0.949 . S
C102 C101 1.389 . S
C102 C103 1.387 . S
C103 C102 1.387 . S
C103 C104 1.372 . S
C104 H82 0.950 . S
C104 C103 1.372 . S
C104 C105 1.379 . S
C105 H83 0.948 . S
C105 C100 1.364 . S
C105 C104 1.379 . S
C106 C75 1.383 . S
C106 C93 1.479 . S
C106 C107 1.398 . S
C107 C72 1.382 . S
C107 H84 0.951 . S
C107 C106 1.398 . S
C108 C109 1.384 . S
C108 H121 0.947 . S
C108 C143 1.382 . S
C109 C108 1.384 . S
C109 C110 1.378 . S
C110 C109 1.378 . S
C110 C111 1.378 . S
C110 H122 0.952 . S
C111 C110 1.378 . S
C111 H123 0.950 . S
C111 C142 1.383 . S
H112 C131 0.947 . S
H113 C132 0.946 . S
H114 C134 0.953 . S
H115 C135 0.945 . S
H116 C137 0.952 . S
H117 C138 0.949 . S
H118 C140 0.950 . S
H119 C141 0.948 . S
H120 C143 0.951 . S
H121 C108 0.947 . S
H122 C110 0.952 . S
H123 C111 0.950 . S
N124 C127 1.382 . S
N124 C129 1.363 . S
N125 C127 1.371 . S
N125 C128 1.372 . S
N126 C128 1.361 . S
N126 C129 1.377 . S
C127 N124 1.382 . S
C127 N125 1.371 . S
C127 C130 1.480 . S
C128 N125 1.372 . S
C128 N126 1.361 . S
C128 C136 1.457 . S
C129 N124 1.363 . S
C129 N126 1.377 . S
C129 C142 1.479 . S
C130 C127 1.480 . S
C130 C131 1.383 . S
C130 C135 1.385 . S
C131 H112 0.947 . S
C131 C130 1.383 . S
C131 C132 1.388 . S
C132 H113 0.946 . S
C132 C131 1.388 . S
C132 C133 1.384 . S
C133 C132 1.384 . S
C133 C134 1.377 . S
C134 H114 0.953 . S
C134 C133 1.377 . S
C134 C135 1.369 . S
C135 H115 0.945 . S
C135 C130 1.385 . S
C135 C134 1.369 . S
C136 C128 1.457 . S
C136 C137 1.372 . S
C136 C141 1.364 . S
C137 H116 0.952 . S
C137 C136 1.372 . S
C137 C138 1.389 . S
C138 H117 0.949 . S
C138 C137 1.389 . S
C138 C139 1.387 . S
C139 C138 1.387 . S
C139 C140 1.372 . S
C140 H118 0.950 . S
C140 C139 1.372 . S
C140 C141 1.379 . S
C141 H119 0.948 . S
C141 C136 1.364 . S
C141 C140 1.379 . S
C142 C111 1.383 . S
C142 C129 1.479 . S
C142 C143 1.398 . S
C143 C108 1.382 . S
C143 H120 0.951 . S
C143 C142 1.398 . S
Zn144 O150 1.920 . S
Zn144 O156 1.898 . S
Zn144 O159 1.905 1_455 S
Zn145 O153 1.905 . S
Zn145 O154 1.898 . S
Zn145 O162 1.920 . S
Zn146 O149 2.080 . S
Zn146 O152 2.114 1_545 S
Zn146 O155 2.120 1_545 S
Zn146 O157 2.120 . S
Zn146 O158 2.114 1_455 S
Zn146 O161 2.080 1_545 S
C147 O152 1.166 . S
C147 O153 1.182 . S
C148 O154 1.167 . S
C148 O155 1.299 . S
O149 Zn146 2.080 . S
O149 C163 1.305 . S
O150 Zn144 1.920 . S
O150 C163 1.234 . S
C151 O156 1.167 . S
C151 O157 1.299 . S
O152 Zn146 2.114 1_565 S
O152 C147 1.166 . S
O153 Zn145 1.905 . S
O153 C147 1.182 . S
O154 Zn145 1.898 . S
O154 C148 1.167 . S
O155 Zn146 2.120 1_565 S
O155 C148 1.299 . S
O156 Zn144 1.898 . S
O156 C151 1.167 . S
O157 Zn146 2.120 . S
O157 C151 1.299 . S
O158 Zn146 2.114 1_655 S
O158 C160 1.166 . S
O159 Zn144 1.905 1_655 S
O159 C160 1.182 . S
C160 O158 1.166 . S
C160 O159 1.182 . S
O161 Zn146 2.080 1_565 S
O161 C164 1.305 . S
O162 Zn145 1.920 . S
O162 C164 1.234 . S
C163 O149 1.305 . S
C163 O150 1.234 . S
C164 O161 1.305 . S
C164 O162 1.234 . S
Zn165 O171 1.920 . S
Zn165 O177 1.898 . S
Zn165 O180 1.905 . S
Zn166 O174 1.905 . S
Zn166 O175 1.898 . S
Zn166 O183 1.920 . S
Zn167 O170 2.080 . S
Zn167 O173 2.114 . S
Zn167 O176 2.120 . S
Zn167 O178 2.120 . S
Zn167 O179 2.114 . S
Zn167 O182 2.080 . S
C168 O173 1.166 . S
C168 O174 1.182 . S
C169 O175 1.167 . S
C169 O176 1.299 . S
O170 Zn167 2.080 . S
O170 C184 1.305 . S
O171 Zn165 1.920 . S
O171 C184 1.234 . S
C172 O177 1.167 . S
C172 O178 1.299 . S
O173 Zn167 2.114 . S
O173 C168 1.166 . S
O174 Zn166 1.905 . S
O174 C168 1.182 . S
O175 Zn166 1.898 . S
O175 C169 1.167 . S
O176 Zn167 2.120 . S
O176 C169 1.299 . S
O177 Zn165 1.898 . S
O177 C172 1.167 . S
O178 Zn167 2.120 . S
O178 C172 1.299 . S
O179 Zn167 2.114 . S
O179 C181 1.166 . S
O180 Zn165 1.905 . S
O180 C181 1.182 . S
C181 O179 1.166 . S
C181 O180 1.182 . S
O182 Zn167 2.080 . S
O182 C185 1.305 . S
O183 Zn166 1.920 . S
O183 C185 1.234 . S
C184 O170 1.305 . S
C184 O171 1.234 . S
C185 O182 1.305 . S
C185 O183 1.234 . S
C186 C187 1.170 . S
C186 C188 1.380 . S
C187 C186 1.170 . S
C188 C186 1.380 . S
C188 C189 1.170 . S
C189 C188 1.170 . S
C190 C191 1.170 . S
C190 C192 1.380 . S
C191 C190 1.170 . S
C192 C190 1.380 . S
C192 C193 1.170 . S
C193 C192 1.170 . S
C194 C195 1.170 . S
C194 C196 1.380 . S
C195 C194 1.170 . S
C196 C194 1.380 . S
C196 C197 1.170 . S
C197 C196 1.170 . S
C198 C199 1.170 . S
C198 C200 1.380 . S
C199 C198 1.170 . S
C200 C198 1.380 . S
C200 C201 1.170 . S
C201 C200 1.170 . S
C202 C203 1.170 . S
C202 C204 1.380 . S
C203 C202 1.170 . S
C204 C202 1.380 . S
C204 C205 1.170 . S
C205 C204 1.170 . S
C206 C207 1.170 . S
C206 C208 1.380 . S
C207 C206 1.170 . S
C208 C206 1.380 . S
C208 C209 1.170 . S
C209 C208 1.170 . S
C210 C211 1.170 . S
C210 C212 1.380 . S
C211 C210 1.170 . S
C212 C210 1.380 . S
C212 C213 1.170 . S
C213 C212 1.170 . S
C214 C215 1.170 . S
C214 C216 1.380 . S
C215 C214 1.170 . S
C216 C214 1.380 . S
C216 C217 1.170 . S
C217 C216 1.170 . S
C218 C219 1.170 . S
C218 C220 1.380 . S
C219 C218 1.170 . S
C220 C218 1.380 . S
C220 C221 1.170 . S
C221 C220 1.170 . S
C222 C223 1.170 . S
C222 C224 1.380 . S
C223 C222 1.170 . S
C224 C222 1.380 . S
C224 C225 1.170 . S
C225 C224 1.170 . S
C226 C227 1.170 . S
C226 C228 1.380 . S
C227 C226 1.170 . S
C228 C226 1.380 . S
C228 C229 1.170 . S
C229 C228 1.170 . S
C230 C231 1.170 . S
C230 C232 1.380 . S
C231 C230 1.170 . S
C232 C230 1.380 . S
C232 C233 1.170 . S
C233 C232 1.170 . S
C189 C151 1.453 . S
C187 C25 1.509 . S
C193 C147 1.463 . S
C191 C61 1.542 . S
C197 C172 1.464 . S
C195 C97 1.523 . S
C199 C133 1.538 . S
C201 C168 1.460 . S
C203 C31 1.279 . S
C205 C169 1.183 . S
C209 C184 1.113 . S
C207 C37 1.371 . S
C211 C1 1.676 . S
C213 C185 1.547 . S
C217 C181 1.574 . S
C215 C67 1.686 . S
C221 C148 1.093 1_655 S
C219 C103 1.316 . S
C223 C109 1.376 . S
C225 C163 1.143 . S
C229 C164 1.534 . S
C227 C73 1.662 . S
C233 C160 1.530 . S
C231 C139 1.699 . S
