# Generated by pormake.
# Topology rtl, (3,6)-cn, num edge types: 1
# Building blocks:
#     Node 0, Type 0, BuildingBlock: CUQRIR_clean_linker_1, # of connection points: 3
#     Node 1, Type 0, BuildingBlock: CUQRIR_clean_linker_1, # of connection points: 3
#     Node 2, Type 0, BuildingBlock: CUQRIR_clean_linker_1, # of connection points: 3
#     Node 3, Type 0, BuildingBlock: CUQRIR_clean_linker_1, # of connection points: 3
#     Node 4, Type 1, BuildingBlock: FUNLAD_clean_sbu_0, # of connection points: 6
#     Node 5, Type 1, BuildingBlock: FUNLAD_clean_sbu_0, # of connection points: 6
#     Edge 6, Type (0, 1), None
#     Edge 7, Type (0, 1), None
#     Edge 8, Type (0, 1), None
#     Edge 9, Type (0, 1), None
#     Edge 10, Type (0, 1), None
#     Edge 11, Type (0, 1), None
#     Edge 12, Type (0, 1), None
#     Edge 13, Type (0, 1), None
#     Edge 14, Type (0, 1), None
#     Edge 15, Type (0, 1), None
#     Edge 16, Type (0, 1), None
#     Edge 17, Type (0, 1), None
# Relax obj value: 0.001
# Max RMSD: 0.063
# Mean RMSD: 0.049
data_MOF--net-rtl--node1-FUNLAD_clean_sbu_0--node2-CUQRIR_clean_linker_1--edge1-none
_symmetry_space_group_name_H-M    P1
_symmetry_Int_Tables_number       1
_symmetry_cell_setting            triclinic
loop_
_symmetry_equiv_pos_as_xyz
'x, y, z'
_cell_length_a     17.551475
_cell_length_b     17.552008
_cell_length_c     6.8506654
_cell_angle_alpha  90.03303
_cell_angle_beta   90.452571
_cell_angle_gamma 90.000336
loop_
_atom_site_label
_atom_site_type_symbol
_atom_site_fract_x
_atom_site_fract_y
_atom_site_fract_z
_atom_type_partial_charge
C0 C 0.20719 0.86404 0.89962 0.0
N1 N 0.14606 0.90704 0.94934 0.0
N2 N 0.22056 0.80995 0.03669 0.0
C3 C 0.25367 0.87361 0.71688 0.0
C4 C 0.16676 0.82292 0.17361 0.0
N5 N 0.12356 0.88414 0.12364 0.0
C6 C 0.15757 0.77583 0.35608 0.0
H7 H 0.27838 0.8185 0.67 0.0
H8 H 0.30133 0.91332 0.74892 0.0
H9 H 0.22038 0.89816 0.59454 0.0
H10 H 0.21296 0.75157 0.40399 0.0
H11 H 0.11843 0.72782 0.3231 0.0
H12 H 0.13254 0.8085 0.47779 0.0
C13 C 0.70723 0.6663 0.67501 0.0
N14 N 0.64603 0.62305 0.6245 0.0
N15 N 0.72031 0.71997 0.53711 0.0
C16 C 0.75437 0.65706 0.85856 0.0
C17 C 0.66633 0.70645 0.39893 0.0
N18 N 0.62334 0.64532 0.44895 0.0
C19 C 0.65669 0.75289 0.21508 0.0
H20 H 0.77861 0.71244 0.90603 0.0
H21 H 0.80241 0.61798 0.82714 0.0
H22 H 0.72177 0.63192 0.98 0.0
H23 H 0.7118 0.77758 0.16879 0.0
H24 H 0.61703 0.80058 0.24545 0.0
H25 H 0.63206 0.71961 0.09296 0.0
C26 C 0.86448 0.20642 0.17012 0.0
N27 N 0.90749 0.14531 0.11997 0.0
N28 N 0.81051 0.21993 0.03192 0.0
C29 C 0.8741 0.25291 0.35403 0.0
C30 C 0.82363 0.16626 0.89388 0.0
N31 N 0.88484 0.12305 0.94432 0.0
C32 C 0.77653 0.157 0.71024 0.0
H33 H 0.81898 0.27759 0.40037 0.0
H34 H 0.91375 0.3006 0.32373 0.0
H35 H 0.89876 0.21966 0.4761 0.0
H36 H 0.75228 0.21237 0.66288 0.0
H37 H 0.7285 0.11791 0.74149 0.0
H38 H 0.80917 0.13187 0.58878 0.0
C39 C 0.36405 0.32293 0.39449 0.0
N40 N 0.40727 0.38415 0.4446 0.0
N41 N 0.31027 0.30997 0.53144 0.0
C42 C 0.37325 0.2758 0.21197 0.0
C43 C 0.32367 0.36406 0.66864 0.0
N44 N 0.3848 0.40705 0.61899 0.0
C45 C 0.27724 0.37364 0.8515 0.0
H46 H 0.31786 0.25151 0.16404 0.0
H47 H 0.41239 0.2278 0.24491 0.0
H48 H 0.39828 0.30843 0.0903 0.0
H49 H 0.25255 0.31852 0.89829 0.0
H50 H 0.22956 0.41333 0.81965 0.0
H51 H 0.31056 0.39819 0.97384 0.0
C52 C 0.08675 0.92992 0.25261 0.0
N53 N 0.14056 0.13994 0.53523 0.0
C54 C 0.21455 0.11975 0.50682 0.0
C55 C 0.2717 0.17509 0.50672 0.0
C56 C 0.25229 0.25192 0.53178 0.0
C57 C 0.1756 0.27135 0.55849 0.0
C58 C 0.12042 0.2141 0.56194 0.0
Zn59 Zn 0.05815 0.05751 0.5352 0.0
C60 C 0.94433 0.09919 0.24931 0.0
N61 N 0.89035 0.88971 0.5334 0.0
C62 C 0.91052 0.81575 0.56401 0.0
C63 C 0.81621 0.90982 0.50446 0.0
C64 C 0.75895 0.85463 0.50785 0.0
C65 C 0.77836 0.77796 0.53679 0.0
C66 C 0.85519 0.75859 0.56411 0.0
Zn67 Zn 0.97279 0.97215 0.53343 0.0
O68 O 0.10439 1.00046 0.27317 0.0
C69 C 0.10009 0.94404 0.81976 0.0
O70 O 0.0381 0.90115 0.36428 0.0
H71 H 0.80132 0.96886 0.47997 0.0
H72 H 0.22937 0.06056 0.48506 0.0
H73 H 0.9697 0.80095 0.58752 0.0
O74 O 0.12881 0.99263 0.70755 0.0
O75 O 0.0296 0.92619 0.79806 0.0
H76 H 0.06135 0.22899 0.58469 0.0
O77 O 0.90213 0.03772 0.70227 0.0
O78 O 1.00134 0.10414 0.79714 0.0
O79 O 0.92642 0.02869 0.26889 0.0
O80 O 0.99297 0.1278 0.36317 0.0
C81 C 0.93078 0.08641 0.8156 0.0
H82 H 0.33048 0.15812 0.48828 0.0
H83 H 0.15866 0.33023 0.57593 0.0
H84 H 0.70008 0.87156 0.48864 0.0
H85 H 0.87215 0.69983 0.58431 0.0
C86 C 0.43081 0.44405 0.74857 0.0
N87 N 0.6405 0.38971 0.03508 0.0
C88 C 0.62033 0.31574 1.00439 0.0
C89 C 0.67565 0.25857 1.00455 0.0
C90 C 0.75247 0.27793 0.03221 0.0
C91 C 0.77188 0.35461 0.06124 0.0
C92 C 0.71463 0.40981 0.06435 0.0
Zn93 Zn 0.55806 0.47215 0.03502 0.0
C94 C 0.60012 0.58643 0.75324 0.0
N95 N 0.3903 0.63995 0.03344 0.0
C96 C 0.3163 0.61975 0.06152 0.0
C97 C 0.41045 0.71409 1.0068 0.0
C98 C 0.35525 0.77134 1.00999 0.0
C99 C 0.27855 0.7519 0.03637 0.0
C100 C 0.25914 0.67508 0.06134 0.0
Zn101 Zn 0.47271 0.55752 0.03349 0.0
O102 O 0.50129 0.42618 0.7702 0.0
C103 C 0.44405 0.42992 0.31565 0.0
O104 O 0.40211 0.49265 0.86093 0.0
H105 H 0.46953 0.72898 0.98429 0.0
H106 H 0.56116 0.30094 0.98063 0.0
H107 H 0.30147 0.56057 0.0832 0.0
O108 O 0.49271 0.40115 0.20391 0.0
O109 O 0.42642 0.50047 0.29532 0.0
H110 H 0.72951 0.46886 0.08893 0.0
O111 O 0.53784 0.6278 0.20578 0.0
O112 O 0.60439 0.5287 0.29977 0.0
O113 O 0.52956 0.60414 0.77176 0.0
O114 O 0.62878 0.53773 0.8664 0.0
C115 C 0.58646 0.59919 0.31958 0.0
H116 H 0.65868 0.1998 0.98427 0.0
H117 H 0.83074 0.37153 0.08069 0.0
H118 H 0.3722 0.83021 0.99263 0.0
H119 H 0.20035 0.65811 0.07956 0.0
loop_
_geom_bond_atom_site_label_1
_geom_bond_atom_site_label_2
_geom_bond_distance
_geom_bond_site_symmetry_2
_ccdc_geom_bond_type
C0 N1 1.317 . S
C0 N2 1.348 1_556 S
C0 C3 1.485 . S
N1 C0 1.317 . S
N1 N5 1.370 1_556 S
N2 C0 1.348 1_554 S
N2 C4 1.346 . S
C3 C0 1.485 . S
C3 H7 0.960 . S
C3 H8 0.961 . S
C3 H9 0.960 . S
C4 N2 1.346 . S
C4 N5 1.307 . S
C4 C6 1.486 . S
N5 N1 1.370 1_554 S
N5 C4 1.307 . S
C6 C4 1.486 . S
C6 H10 0.960 . S
C6 H11 0.960 . S
C6 H12 0.959 . S
H7 C3 0.960 . S
H8 C3 0.961 . S
H9 C3 0.960 . S
H10 C6 0.960 . S
H11 C6 0.960 . S
H12 C6 0.959 . S
C13 N14 1.317 . S
C13 N15 1.348 . S
C13 C16 1.485 . S
N14 C13 1.317 . S
N14 N18 1.370 . S
N15 C13 1.348 . S
N15 C17 1.346 . S
C16 C13 1.485 . S
C16 H20 0.960 . S
C16 H21 0.961 . S
C16 H22 0.960 . S
C17 N15 1.346 . S
C17 N18 1.307 . S
C17 C19 1.486 . S
N18 N14 1.370 . S
N18 C17 1.307 . S
C19 C17 1.486 . S
C19 H23 0.960 . S
C19 H24 0.960 . S
C19 H25 0.959 . S
H20 C16 0.960 . S
H21 C16 0.961 . S
H22 C16 0.960 . S
H23 C19 0.960 . S
H24 C19 0.960 . S
H25 C19 0.959 . S
C26 N27 1.317 . S
C26 N28 1.348 . S
C26 C29 1.485 . S
N27 C26 1.317 . S
N27 N31 1.370 1_554 S
N28 C26 1.348 . S
N28 C30 1.346 1_554 S
C29 C26 1.485 . S
C29 H33 0.960 . S
C29 H34 0.961 . S
C29 H35 0.960 . S
C30 N28 1.346 1_556 S
C30 N31 1.307 . S
C30 C32 1.486 . S
N31 N27 1.370 1_556 S
N31 C30 1.307 . S
C32 C30 1.486 . S
C32 H36 0.960 . S
C32 H37 0.960 . S
C32 H38 0.959 . S
H33 C29 0.960 . S
H34 C29 0.961 . S
H35 C29 0.960 . S
H36 C32 0.960 . S
H37 C32 0.960 . S
H38 C32 0.959 . S
C39 N40 1.317 . S
C39 N41 1.348 . S
C39 C42 1.485 . S
N40 C39 1.317 . S
N40 N44 1.370 . S
N41 C39 1.348 . S
N41 C43 1.346 . S
C42 C39 1.485 . S
C42 H46 0.960 . S
C42 H47 0.961 . S
C42 H48 0.960 . S
C43 N41 1.346 . S
C43 N44 1.307 . S
C43 C45 1.486 . S
N44 N40 1.370 . S
N44 C43 1.307 . S
C45 C43 1.486 . S
C45 H49 0.960 . S
C45 H50 0.960 . S
C45 H51 0.959 . S
H46 C42 0.960 . S
H47 C42 0.961 . S
H48 C42 0.960 . S
H49 C45 0.960 . S
H50 C45 0.960 . S
H51 C45 0.959 . S
C52 O68 1.251 . S
C52 O70 1.254 . S
N53 C54 1.333 . S
N53 C58 1.307 . S
N53 Zn59 2.020 . S
C54 N53 1.333 . S
C54 C55 1.379 . S
C54 H72 0.952 . S
C55 C54 1.379 . S
C55 C56 1.390 . S
C55 H82 0.949 . S
C56 C55 1.390 . S
C56 C57 1.357 . S
C57 C56 1.357 . S
C57 C58 1.370 . S
C57 H83 0.950 . S
C58 N53 1.307 . S
C58 C57 1.370 . S
C58 H76 0.948 . S
Zn59 N53 2.020 . S
Zn59 O68 2.039 1_545 S
Zn59 O74 2.034 1_545 S
Zn59 O78 2.025 1_455 S
Zn59 O80 2.024 1_455 S
C60 O79 1.246 . S
C60 O80 1.249 . S
N61 C62 1.307 . S
N61 C63 1.333 . S
N61 Zn67 2.020 . S
C62 N61 1.307 . S
C62 C66 1.370 . S
C62 H73 0.948 . S
C63 N61 1.333 . S
C63 C64 1.379 . S
C63 H71 0.952 . S
C64 C63 1.379 . S
C64 C65 1.390 . S
C64 H84 0.949 . S
C65 C64 1.390 . S
C65 C66 1.357 . S
C66 C62 1.370 . S
C66 C65 1.357 . S
C66 H85 0.950 . S
Zn67 N61 2.020 . S
Zn67 O70 2.025 1_655 S
Zn67 O75 2.024 1_655 S
Zn67 O77 2.039 1_565 S
Zn67 O79 2.034 1_565 S
O68 C52 1.251 . S
O68 Zn59 2.039 1_565 S
C69 O74 1.246 . S
C69 O75 1.249 . S
O70 C52 1.254 . S
O70 Zn67 2.025 1_455 S
H71 C63 0.952 . S
H72 C54 0.952 . S
H73 C62 0.948 . S
O74 Zn59 2.034 1_565 S
O74 C69 1.246 . S
O75 Zn67 2.024 1_455 S
O75 C69 1.249 . S
H76 C58 0.948 . S
O77 Zn67 2.039 1_545 S
O77 C81 1.251 . S
O78 Zn59 2.025 1_655 S
O78 C81 1.254 . S
O79 C60 1.246 . S
O79 Zn67 2.034 1_545 S
O80 Zn59 2.024 1_655 S
O80 C60 1.249 . S
C81 O77 1.251 . S
C81 O78 1.254 . S
H82 C55 0.949 . S
H83 C57 0.950 . S
H84 C64 0.949 . S
H85 C66 0.950 . S
C86 O102 1.251 . S
C86 O104 1.254 . S
N87 C88 1.333 1_554 S
N87 C92 1.307 . S
N87 Zn93 2.020 . S
C88 N87 1.333 1_556 S
C88 C89 1.379 . S
C88 H106 0.952 . S
C89 C88 1.379 . S
C89 C90 1.390 1_556 S
C89 H116 0.949 . S
C90 C89 1.390 1_554 S
C90 C91 1.357 . S
C91 C90 1.357 . S
C91 C92 1.370 . S
C91 H117 0.950 . S
C92 N87 1.307 . S
C92 C91 1.370 . S
C92 H110 0.948 . S
Zn93 N87 2.020 . S
Zn93 O102 2.039 1_554 S
Zn93 O108 2.034 . S
Zn93 O112 2.025 . S
Zn93 O114 2.024 1_554 S
C94 O113 1.246 . S
C94 O114 1.249 . S
N95 C96 1.307 1_554 S
N95 C97 1.333 . S
N95 Zn101 2.020 . S
C96 N95 1.307 1_556 S
C96 C100 1.370 . S
C96 H107 0.948 . S
C97 N95 1.333 . S
C97 C98 1.379 . S
C97 H105 0.952 . S
C98 C97 1.379 . S
C98 C99 1.390 . S
C98 H118 0.949 . S
C99 C98 1.390 . S
C99 C100 1.357 1_554 S
C100 C96 1.370 . S
C100 C99 1.357 1_556 S
C100 H119 0.950 . S
Zn101 N95 2.020 . S
Zn101 O104 2.025 1_554 S
Zn101 O109 2.024 . S
Zn101 O111 2.039 . S
Zn101 O113 2.034 1_554 S
O102 C86 1.251 . S
O102 Zn93 2.039 1_556 S
C103 O108 1.246 . S
C103 O109 1.249 . S
O104 C86 1.254 . S
O104 Zn101 2.025 1_556 S
H105 C97 0.952 . S
H106 C88 0.952 . S
H107 C96 0.948 . S
O108 Zn93 2.034 . S
O108 C103 1.246 . S
O109 Zn101 2.024 . S
O109 C103 1.249 . S
H110 C92 0.948 . S
O111 Zn101 2.039 . S
O111 C115 1.251 . S
O112 Zn93 2.025 . S
O112 C115 1.254 . S
O113 C94 1.246 . S
O113 Zn101 2.034 1_556 S
O114 Zn93 2.024 1_556 S
O114 C94 1.249 . S
C115 O111 1.251 . S
C115 O112 1.254 . S
H116 C89 0.949 . S
H117 C91 0.950 . S
H118 C98 0.949 . S
H119 C100 0.950 . S
C56 N41 1.507 . S
N2 C99 1.506 . S
N15 C65 1.502 . S
N28 C90 1.501 . S
C52 N5 1.522 . S
C94 N14 1.504 . S
N27 C60 1.500 . S
N44 C86 1.517 . S
C115 N18 1.516 . S
C81 N31 1.520 . S
C103 N40 1.515 . S
N1 C69 1.511 . S
