# Generated by pormake.
# Topology rtl, (3,6)-cn, num edge types: 1
# Building blocks:
#     Node 0, Type 0, BuildingBlock: BETDAH_clean_linker_0, # of connection points: 3
#     Node 1, Type 0, BuildingBlock: BETDAH_clean_linker_0, # of connection points: 3
#     Node 2, Type 0, BuildingBlock: BETDAH_clean_linker_0, # of connection points: 3
#     Node 3, Type 0, BuildingBlock: BETDAH_clean_linker_0, # of connection points: 3
#     Node 4, Type 1, BuildingBlock: CIFDUS_clean_sbu_1, # of connection points: 6
#     Node 5, Type 1, BuildingBlock: CIFDUS_clean_sbu_1, # of connection points: 6
#     Edge 6, Type (0, 1), None
#     Edge 7, Type (0, 1), None
#     Edge 8, Type (0, 1), None
#     Edge 9, Type (0, 1), None
#     Edge 10, Type (0, 1), None
#     Edge 11, Type (0, 1), None
#     Edge 12, Type (0, 1), None
#     Edge 13, Type (0, 1), None
#     Edge 14, Type (0, 1), None
#     Edge 15, Type (0, 1), None
#     Edge 16, Type (0, 1), None
#     Edge 17, Type (0, 1), None
# Relax obj value: 0.018
# Max RMSD: 0.097
# Mean RMSD: 0.074
data_MOF--net-rtl--node1-CIFDUS_clean_sbu_1--node2-BETDAH_clean_linker_0--edge1-none
_symmetry_space_group_name_H-M    P1
_symmetry_Int_Tables_number       1
_symmetry_cell_setting            triclinic
loop_
_symmetry_equiv_pos_as_xyz
'x, y, z'
_cell_length_a     15.971114
_cell_length_b     15.846496
_cell_length_c     9.2992
_cell_angle_alpha  90.472928
_cell_angle_beta   104.28096
_cell_angle_gamma 90.258397
loop_
_atom_site_label
_atom_site_type_symbol
_atom_site_fract_x
_atom_site_fract_y
_atom_site_fract_z
_atom_type_partial_charge
H0 H 0.04418 0.95312 1.02103 0.0
H1 H 0.19274 0.80478 0.37899 0.0
H2 H 0.2679 0.82159 0.96503 0.0
C3 C 0.09593 0.90871 0.06237 0.0
C4 C 0.15256 0.88855 0.97404 0.0
C5 C 0.11137 0.88124 0.20974 0.0
C6 C 0.18123 0.82727 0.2661 0.0
C7 C 0.23505 0.80049 0.1754 0.0
C8 C 0.2222 0.83437 0.03102 0.0
N9 N 0.30229 0.7414 0.23235 0.0
C10 C 0.34054 0.69362 0.1395 0.0
H11 H 0.54719 0.61294 0.52595 0.0
H12 H 0.7693 0.74757 0.46813 0.0
H13 H 0.69639 0.76534 0.88456 0.0
C14 C 0.59899 0.65812 0.56753 0.0
C15 C 0.61501 0.68637 0.71536 0.0
C16 C 0.65474 0.67905 0.47837 0.0
C17 C 0.72426 0.73437 0.53506 0.0
C18 C 0.73768 0.76914 0.67988 0.0
C19 C 0.68465 0.74188 0.77151 0.0
N20 N 0.80436 0.83009 0.73557 0.0
C21 C 0.84137 0.87737 0.64104 0.0
H22 H 0.02912 0.115 0.09935 0.0
H23 H 0.80547 0.24659 0.1555 0.0
H24 H 0.88055 0.26338 0.74148 0.0
C25 C 0.97737 0.15941 0.05805 0.0
C26 C 0.96193 0.18689 0.91068 0.0
C27 C 0.92077 0.17959 0.14643 0.0
C28 C 0.85114 0.23379 0.08948 0.0
C29 C 0.83827 0.26767 0.9451 0.0
C30 C 0.89207 0.24089 0.85436 0.0
N31 N 0.77103 0.32676 0.88817 0.0
C32 C 0.73275 0.37452 0.98103 0.0
H33 H 0.52606 0.45511 0.59457 0.0
H34 H 0.30381 0.32062 0.65224 0.0
H35 H 0.37666 0.30297 0.23576 0.0
C36 C 0.47421 0.40998 0.55293 0.0
C37 C 0.45816 0.38179 0.40507 0.0
C38 C 0.41844 0.38907 0.64208 0.0
C39 C 0.34887 0.33382 0.58533 0.0
C40 C 0.3354 0.29912 0.44047 0.0
C41 C 0.38844 0.32637 0.34884 0.0
N42 N 0.26867 0.23823 0.38474 0.0
C43 C 0.23205 0.19056 0.47929 0.0
O44 O 0.99308 0.11468 0.37531 0.0
Mn45 Mn 0.03667 0.03405 0.56023 0.0
O46 O 0.86121 0.07106 0.25495 0.0
Mn47 Mn 0.88762 0.96203 0.3167 0.0
O48 O 0.08028 0.95343 0.74513 0.0
O49 O 0.14781 0.10392 0.60861 0.0
Mn50 Mn 0.18569 0.10616 0.80374 0.0
O51 O 0.98452 0.11371 0.69726 0.0
O52 O 0.21209 0.99715 0.86566 0.0
O53 O 0.0888 0.95439 0.42319 0.0
O54 O 0.97365 0.91152 0.24271 0.0
O55 O 0.26386 0.16963 0.73699 0.0
O56 O 0.09965 0.15672 0.87764 0.0
C57 C 0.85932 0.91616 0.51239 0.0
C58 C 0.92198 0.1249 0.27509 0.0
C59 C 0.15137 0.94327 0.84542 0.0
C60 C 0.21415 0.15175 0.60797 0.0
C61 C 0.01837 0.1541 0.81893 0.0
C62 C 0.05493 0.91406 0.30147 0.0
O63 O 0.92558 0.96412 0.51181 0.0
O64 O 0.80947 0.8985 0.38339 0.0
O65 O 0.58143 0.61442 0.24774 0.0
Mn66 Mn 0.53661 0.53406 0.06022 0.0
O67 O 0.71221 0.57023 0.36669 0.0
Mn68 Mn 0.68294 0.46162 0.30109 0.0
O69 O 0.49178 0.45371 0.8727 0.0
O70 O 0.42672 0.6056 1.01481 0.0
Mn71 Mn 0.39025 0.6065 0.81937 0.0
O72 O 0.59101 0.61342 0.92662 0.0
O73 O 0.36098 0.49789 0.7538 0.0
O74 O 0.48219 0.45471 0.19381 0.0
O75 O 0.59619 0.41158 0.37336 0.0
O76 O 0.31207 0.67082 0.88249 0.0
O77 O 0.47699 0.65655 0.74709 0.0
C78 C 0.71285 0.41426 0.10816 0.0
C79 C 0.65266 0.62445 0.34808 0.0
C80 C 0.42054 0.44367 0.77238 0.0
C81 C 0.36039 0.65387 1.01234 0.0
C82 C 0.55811 0.65394 0.80627 0.0
C83 C 0.51507 0.4142 0.31417 0.0
O84 O 0.6465 0.46252 0.10563 0.0
O85 O 0.76114 0.3973 0.23803 0.0
loop_
_geom_bond_atom_site_label_1
_geom_bond_atom_site_label_2
_geom_bond_distance
_geom_bond_site_symmetry_2
_ccdc_geom_bond_type
H0 C3 0.929 . S
H1 C6 0.929 . S
H2 C8 0.930 . S
C3 H0 0.929 . S
C3 C4 1.398 1_554 S
C3 C5 1.396 . S
C4 C3 1.398 1_556 S
C4 C8 1.407 . S
C5 C3 1.396 . S
C5 C6 1.394 . S
C6 H1 0.929 . S
C6 C5 1.394 . S
C6 C7 1.382 . S
C7 C6 1.382 . S
C7 C8 1.392 1_554 S
C7 N9 1.420 . S
C8 H2 0.930 . S
C8 C4 1.407 . S
C8 C7 1.392 1_556 S
N9 C7 1.420 . S
N9 C10 1.244 . S
C10 N9 1.244 . S
H11 C14 0.929 . S
H12 C17 0.929 . S
H13 C19 0.930 . S
C14 H11 0.929 . S
C14 C15 1.398 . S
C14 C16 1.396 . S
C15 C14 1.398 . S
C15 C19 1.407 . S
C16 C14 1.396 . S
C16 C17 1.394 . S
C17 H12 0.929 . S
C17 C16 1.394 . S
C17 C18 1.382 . S
C18 C17 1.382 . S
C18 C19 1.392 . S
C18 N20 1.420 . S
C19 H13 0.930 . S
C19 C15 1.407 . S
C19 C18 1.392 . S
N20 C18 1.420 . S
N20 C21 1.244 . S
C21 N20 1.244 . S
H22 C25 0.929 . S
H23 C28 0.929 . S
H24 C30 0.930 . S
C25 H22 0.929 . S
C25 C26 1.397 1_554 S
C25 C27 1.397 . S
C26 C25 1.397 1_556 S
C26 C30 1.407 . S
C27 C25 1.397 . S
C27 C28 1.394 . S
C28 H23 0.929 . S
C28 C27 1.394 . S
C28 C29 1.382 1_554 S
C29 C28 1.382 1_556 S
C29 C30 1.392 . S
C29 N31 1.420 . S
C30 H24 0.930 . S
C30 C26 1.407 . S
C30 C29 1.392 . S
N31 C29 1.420 . S
N31 C32 1.244 1_556 S
C32 N31 1.244 1_554 S
H33 C36 0.929 . S
H34 C39 0.929 . S
H35 C41 0.930 . S
C36 H33 0.929 . S
C36 C37 1.398 . S
C36 C38 1.396 . S
C37 C36 1.398 . S
C37 C41 1.407 . S
C38 C36 1.396 . S
C38 C39 1.394 . S
C39 H34 0.929 . S
C39 C38 1.394 . S
C39 C40 1.382 . S
C40 C39 1.382 . S
C40 C41 1.392 . S
C40 N42 1.420 . S
C41 H35 0.930 . S
C41 C37 1.407 . S
C41 C40 1.392 . S
N42 C40 1.420 . S
N42 C43 1.244 . S
C43 N42 1.244 . S
O44 Mn45 2.163 1_655 S
O44 C58 1.244 . S
Mn45 O44 2.163 1_455 S
Mn45 O48 2.160 1_545 S
Mn45 O49 2.221 . S
Mn45 O51 2.163 1_455 S
Mn45 O53 2.160 1_545 S
Mn45 O63 2.221 1_445 S
O46 Mn47 2.087 1_545 S
O46 C58 1.256 . S
Mn47 O46 2.087 1_565 S
Mn47 O54 2.089 1_655 S
Mn47 O63 2.290 . S
Mn47 O64 2.251 . S
O48 Mn45 2.160 1_565 S
O48 C59 1.239 . S
O49 Mn45 2.221 . S
O49 Mn50 2.290 . S
O49 C60 1.278 . S
Mn50 O49 2.290 . S
Mn50 O52 2.089 . S
Mn50 O55 2.251 . S
Mn50 O56 2.087 . S
O51 Mn45 2.163 1_655 S
O51 C61 1.244 . S
O52 Mn50 2.089 . S
O52 C59 1.256 1_545 S
O53 Mn45 2.160 1_565 S
O53 C62 1.239 . S
O54 Mn47 2.089 1_455 S
O54 C62 1.256 . S
O55 Mn50 2.251 . S
O55 C60 1.241 . S
O56 Mn50 2.087 . S
O56 C61 1.256 1_455 S
C57 O63 1.278 . S
C57 O64 1.241 . S
C58 O44 1.244 . S
C58 O46 1.256 . S
C59 O48 1.239 . S
C59 O52 1.256 1_565 S
C60 O49 1.278 . S
C60 O55 1.241 . S
C61 O51 1.244 . S
C61 O56 1.256 1_655 S
C62 O53 1.239 . S
C62 O54 1.256 . S
O63 Mn45 2.221 1_665 S
O63 Mn47 2.290 . S
O63 C57 1.278 . S
O64 Mn47 2.251 . S
O64 C57 1.241 . S
O65 Mn66 2.163 . S
O65 C79 1.244 . S
Mn66 O65 2.163 . S
Mn66 O69 2.160 1_554 S
Mn66 O70 2.221 1_554 S
Mn66 O72 2.163 1_554 S
Mn66 O74 2.160 . S
Mn66 O84 2.221 . S
O67 Mn68 2.087 . S
O67 C79 1.256 . S
Mn68 O67 2.087 . S
Mn68 O75 2.089 . S
Mn68 O84 2.290 . S
Mn68 O85 2.251 . S
O69 Mn66 2.160 1_556 S
O69 C80 1.239 . S
O70 Mn66 2.221 1_556 S
O70 Mn71 2.290 . S
O70 C81 1.278 1_556 S
Mn71 O70 2.290 . S
Mn71 O73 2.089 . S
Mn71 O76 2.251 . S
Mn71 O77 2.087 . S
O72 Mn66 2.163 1_556 S
O72 C82 1.244 . S
O73 Mn71 2.089 . S
O73 C80 1.256 . S
O74 Mn66 2.160 . S
O74 C83 1.239 . S
O75 Mn68 2.089 . S
O75 C83 1.256 . S
O76 Mn71 2.251 . S
O76 C81 1.241 1_556 S
O77 Mn71 2.087 . S
O77 C82 1.256 . S
C78 O84 1.278 . S
C78 O85 1.241 . S
C79 O65 1.244 . S
C79 O67 1.256 . S
C80 O69 1.239 . S
C80 O73 1.256 . S
C81 O70 1.278 1_554 S
C81 O76 1.241 1_554 S
C82 O72 1.244 . S
C82 O77 1.256 . S
C83 O74 1.239 . S
C83 O75 1.256 . S
O84 Mn66 2.221 . S
O84 Mn68 2.290 . S
O84 C78 1.278 . S
O85 Mn68 2.251 . S
O85 C78 1.241 . S
C60 C43 1.169 . S
C10 C81 1.522 . S
C21 C57 1.429 . S
C32 C78 1.336 . S
C62 C5 1.495 . S
C82 C15 1.536 . S
C27 C58 1.605 . S
C38 C80 1.386 . S
C79 C16 1.484 . S
C61 C26 1.430 . S
C83 C37 1.421 . S
C4 C59 1.328 . S
