# Generated by pormake.
# Topology sit, (3,6)-cn, num edge types: 1
# Building blocks:
#     Node 0, Type 0, BuildingBlock: INOVEN_clean_linker_0, # of connection points: 3
#     Node 1, Type 0, BuildingBlock: INOVEN_clean_linker_0, # of connection points: 3
#     Node 2, Type 0, BuildingBlock: INOVEN_clean_linker_0, # of connection points: 3
#     Node 3, Type 0, BuildingBlock: INOVEN_clean_linker_0, # of connection points: 3
#     Node 4, Type 1, BuildingBlock: MIDCAF_clean_sbu_0, # of connection points: 6
#     Node 5, Type 1, BuildingBlock: MIDCAF_clean_sbu_0, # of connection points: 6
#     Edge 6, Type (0, 1), BuildingBlock: AJUNOK_clean_linker_0, # of connection points: 2
#     Edge 7, Type (0, 1), BuildingBlock: AJUNOK_clean_linker_0, # of connection points: 2
#     Edge 8, Type (0, 1), BuildingBlock: AJUNOK_clean_linker_0, # of connection points: 2
#     Edge 9, Type (0, 1), BuildingBlock: AJUNOK_clean_linker_0, # of connection points: 2
#     Edge 10, Type (0, 1), BuildingBlock: AJUNOK_clean_linker_0, # of connection points: 2
#     Edge 11, Type (0, 1), BuildingBlock: AJUNOK_clean_linker_0, # of connection points: 2
#     Edge 12, Type (0, 1), BuildingBlock: AJUNOK_clean_linker_0, # of connection points: 2
#     Edge 13, Type (0, 1), BuildingBlock: AJUNOK_clean_linker_0, # of connection points: 2
#     Edge 14, Type (0, 1), BuildingBlock: AJUNOK_clean_linker_0, # of connection points: 2
#     Edge 15, Type (0, 1), BuildingBlock: AJUNOK_clean_linker_0, # of connection points: 2
#     Edge 16, Type (0, 1), BuildingBlock: AJUNOK_clean_linker_0, # of connection points: 2
#     Edge 17, Type (0, 1), BuildingBlock: AJUNOK_clean_linker_0, # of connection points: 2
# Relax obj value: 0.072
# Max RMSD: 0.182
# Mean RMSD: 0.104
data_MOF--net-sit--node1-MIDCAF_clean_sbu_0--node2-INOVEN_clean_linker_0--edge1-AJUNOK_clean_linker_0
_symmetry_space_group_name_H-M    P1
_symmetry_Int_Tables_number       1
_symmetry_cell_setting            triclinic
loop_
_symmetry_equiv_pos_as_xyz
'x, y, z'
_cell_length_a     15.800509
_cell_length_b     23.698495
_cell_length_c     27.591562
_cell_angle_alpha  89.870403
_cell_angle_beta   86.018188
_cell_angle_gamma 83.491241
loop_
_atom_site_label
_atom_site_type_symbol
_atom_site_fract_x
_atom_site_fract_y
_atom_site_fract_z
_atom_type_partial_charge
H0 H 0.9118 0.32683 0.03803 0.0
H1 H 0.09202 0.44088 0.98778 0.0
H2 H 0.18099 0.27926 0.04747 0.0
N3 N 0.02297 0.24896 0.07319 0.0
N4 N 0.07823 0.20926 0.08265 0.0
C5 C -0.02323 0.33741 0.033 0.0
C6 C -0.00609 0.38839 0.00993 0.0
C7 C 0.04349 0.29836 0.04771 0.0
C8 C 0.12846 0.30992 0.03819 0.0
C9 C 0.14564 0.36125 0.0162 0.0
C10 C 0.07817 0.40125 0.00463 0.0
H11 H 0.85145 0.7566 0.06717 0.0
H12 H 0.95668 0.60063 -0.00395 0.0
H13 H 0.1234 0.71133 0.05319 0.0
N14 N -0.00274 0.78717 0.09398 0.0
N15 N 0.06884 0.8013 0.10172 0.0
C16 C 0.90625 0.72665 0.05586 0.0
C17 C 0.89513 0.67747 0.02991 0.0
C18 C -0.01174 0.73818 0.06594 0.0
C19 C 0.05958 0.70096 0.04812 0.0
C20 C 0.04863 0.65168 0.0219 0.0
C21 C 0.96591 0.63877 0.01572 0.0
H22 H 0.41921 0.85107 0.55716 0.0
H23 H 0.58911 0.96688 0.49777 0.0
H24 H 0.69039 0.80967 0.56037 0.0
N25 N 0.5348 0.77781 0.59205 0.0
N26 N 0.59152 0.74063 0.6044 0.0
C27 C 0.48281 0.8636 0.55062 0.0
C28 C 0.4954 0.91414 0.52565 0.0
C29 C 0.55225 0.82672 0.56492 0.0
C30 C 0.63593 0.8393 0.55219 0.0
C31 C 0.64891 0.89012 0.52785 0.0
C32 C 0.57866 0.92822 0.51699 0.0
H33 H 0.35737 0.27999 0.53245 0.0
H34 H 0.51455 0.16058 0.43973 0.0
H35 H 0.62256 0.24014 0.55748 0.0
N36 N 0.48401 0.31323 0.58079 0.0
N37 N 0.54872 0.3359 0.58993 0.0
C38 C 0.41901 0.25626 0.523 0.0
C39 C 0.42825 0.21594 0.48533 0.0
C40 C 0.4907 0.26759 0.54688 0.0
C41 C 0.56925 0.23399 0.53627 0.0
C42 C 0.57925 0.19362 0.49825 0.0
C43 C 0.50845 0.18734 0.47174 0.0
Zn44 Zn 0.02903 0.12895 0.33753 0.0
Zn45 Zn 0.1059 0.92293 0.36139 0.0
Zn46 Zn 0.05794 0.02909 0.35221 0.0
C47 C 0.10512 0.93733 0.26352 0.0
C48 C 0.94628 0.94303 0.41111 0.0
O49 O 0.1529 0.07802 0.38363 0.0
O50 O 0.13697 0.16055 0.34602 0.0
C51 C 0.01675 0.08924 0.24937 0.0
O52 O 0.07407 0.98738 0.27881 0.0
O53 O 0.13105 0.8999 0.29324 0.0
O54 O 0.00031 0.90243 0.39613 0.0
O55 O 0.95598 0.99445 0.39849 0.0
O56 O -0.01476 0.13271 0.2732 0.0
O57 O 0.05341 0.04629 0.27184 0.0
O58 O 0.93356 0.05463 0.39176 0.0
O59 O 0.94341 0.14671 0.39078 0.0
C60 C 0.905 0.10555 0.40553 0.0
O61 O 0.17382 1.02005 0.39377 0.0
O62 O 0.20126 0.92697 0.40209 0.0
C63 C 0.17528 0.12809 0.37565 0.0
C64 C 0.21788 0.97646 0.41095 0.0
Zn65 Zn 0.48007 0.63503 0.86317 0.0
Zn66 Zn 0.59747 0.42169 0.85475 0.0
Zn67 Zn 0.53785 0.52787 0.862 0.0
C68 C 0.57385 0.45389 0.76146 0.0
C69 C 0.4458 0.42552 0.91139 0.0
O70 O 0.62279 0.57294 0.90405 0.0
O71 O 0.56491 0.66254 0.90383 0.0
C72 C 0.51773 0.61062 0.76699 0.0
O73 O 0.55049 0.50165 0.78357 0.0
O74 O 0.59949 0.41035 0.78487 0.0
O75 O 0.50689 0.3901 0.89541 0.0
O76 O 0.44515 0.47872 0.90129 0.0
O77 O 0.48759 0.65194 0.79392 0.0
O78 O 0.53891 0.56133 0.78548 0.0
O79 O 0.41085 0.53655 0.90217 0.0
O80 O 0.3676 0.62825 0.89485 0.0
C81 C 0.35448 0.57973 0.91026 0.0
O82 O 0.65756 0.51518 0.90025 0.0
O83 O 0.70556 0.42534 0.88365 0.0
C84 C 0.62156 0.62517 0.91737 0.0
C85 C 0.7141 0.47195 0.90348 0.0
C86 C -0.02625 0.16083 0.13318 0.0
C87 C 0.05762 0.16347 0.11311 0.0
C88 C 0.95818 0.12732 0.17401 0.0
C89 C 0.02573 0.09571 0.19618 0.0
H90 H 0.92091 0.18852 0.1202 0.0
H91 H 0.89432 0.13146 0.19168 0.0
S92 S 0.25289 0.07793 0.15006 0.0
N93 N 0.20578 0.12365 0.1123 0.0
N94 N 0.17657 0.06066 0.18945 0.0
C95 C 0.10749 0.09158 0.17215 0.0
C96 C 0.12341 0.12584 0.13054 0.0
C97 C 0.15975 0.8482 0.15165 0.0
C98 C 0.07959 0.84706 0.13316 0.0
C99 C 0.17023 0.88303 0.1912 0.0
C100 C 0.10113 0.91905 0.21279 0.0
H101 H 0.21306 0.81834 0.13802 0.0
H102 H 0.23124 0.87861 0.20732 0.0
S103 S 0.88195 0.94104 0.17125 0.0
N104 N 0.93246 0.89142 0.13445 0.0
N105 N 0.95293 0.95784 0.20839 0.0
C106 C 0.02289 0.92323 0.1911 0.0
C107 C 0.01167 0.88684 0.15132 0.0
C108 C 0.63765 0.66333 0.65834 0.0
C109 C 0.57144 0.69478 0.63513 0.0
C110 C 0.62 0.62804 0.69797 0.0
C111 C 0.53539 0.62312 0.71527 0.0
H112 H 0.70333 0.66996 0.64849 0.0
H113 H 0.67252 0.60941 0.71817 0.0
S114 S 0.33924 0.68565 0.66034 0.0
N115 N 0.41776 0.71004 0.62687 0.0
N116 N 0.38536 0.64475 0.70176 0.0
C117 C 0.469 0.64903 0.6889 0.0
C118 C 0.48668 0.68472 0.64862 0.0
C119 C 0.62805 0.39381 0.6378 0.0
C120 C 0.54868 0.37912 0.62557 0.0
C121 C 0.63529 0.42597 0.67951 0.0
C122 C 0.56287 0.4456 0.70972 0.0
H123 H 0.68575 0.37618 0.61713 0.0
H124 H 0.69849 0.43113 0.69053 0.0
S125 S 0.33832 0.42791 0.68904 0.0
N126 N 0.39441 0.39333 0.64335 0.0
N127 N 0.40836 0.45465 0.72155 0.0
C128 C 0.48213 0.43658 0.69506 0.0
C129 C 0.47471 0.40295 0.65295 0.0
C130 C 0.26437 0.42199 0.00759 0.0
C131 C 0.23231 0.3707 -0.00274 0.0
C132 C 0.33553 0.43857 0.98056 0.0
C133 C 0.37556 0.4051 0.94183 0.0
H134 H 0.23206 0.45046 0.0354 0.0
H135 H 0.35904 0.47799 0.98966 0.0
S136 S 0.31925 0.26546 0.90226 0.0
N137 N 0.24865 0.285 0.94777 0.0
N138 N 0.38204 0.31658 0.89656 0.0
C139 C 0.34704 0.35229 0.9329 0.0
C140 C 0.27523 0.33507 0.9607 0.0
C141 C 0.77852 0.61857 0.01507 0.0
C142 C 0.8137 0.67022 0.00907 0.0
C143 C 0.71438 0.60504 0.98607 0.0
C144 C 0.68499 0.64197 0.9495 0.0
H145 H 0.80305 0.58763 0.04108 0.0
H146 H 0.68786 0.56534 0.99202 0.0
S147 S 0.75356 0.78359 0.92102 0.0
N148 N 0.81169 0.75971 0.96578 0.0
N149 N 0.69174 0.7338 0.9108 0.0
C150 C 0.71661 0.69491 0.94478 0.0
C151 C 0.78111 0.70905 0.97465 0.0
C152 C 0.84347 0.43513 0.00878 0.0
C153 C 0.92594 0.4242 0.98574 0.0
C154 C 0.77462 0.45824 0.98294 0.0
C155 C 0.7864 0.47242 0.93367 0.0
H156 H 0.83107 0.42244 0.0461 0.0
H157 H 0.71079 0.46058 0.0005 0.0
S158 S -0.01079 0.45697 0.85721 0.0
N159 N 0.01544 0.4325 0.91083 0.0
N160 N 0.88587 0.47809 0.86362 0.0
C161 C 0.86904 0.46622 0.91133 0.0
C162 C 0.93904 0.44174 0.93708 0.0
C163 C 0.20017 0.60627 0.01769 0.0
C164 C 0.12282 0.61831 -0.00462 0.0
C165 C 0.27553 0.5862 0.99037 0.0
C166 C 0.27546 0.57615 0.94025 0.0
H167 H 0.20359 0.61591 0.05581 0.0
H168 H 0.33529 0.58294 0.00778 0.0
S169 S 0.09009 0.59567 0.8649 0.0
N170 N 0.05084 0.61532 0.92004 0.0
N171 N 0.19246 0.57521 0.86989 0.0
C172 C 0.19793 0.58324 0.9183 0.0
C173 C 0.12139 0.60473 0.94563 0.0
C174 C 0.76618 0.86533 0.46482 0.0
C175 C 0.73295 0.89955 0.50465 0.0
C176 C 0.83527 0.88002 0.43485 0.0
C177 C 0.87336 0.92952 0.44363 0.0
H178 H 0.73589 0.82843 0.45538 0.0
H179 H 0.85761 0.85317 0.40377 0.0
S180 S 0.81724 0.0288 0.5475 0.0
N181 N 0.74644 0.98256 0.55368 0.0
N182 N 0.87983 1.00866 0.49866 0.0
C183 C 0.84384 0.96233 0.48502 0.0
C184 C 0.77254 0.94778 0.51516 0.0
C185 C 0.35415 0.20992 0.40942 0.0
C186 C 0.35545 0.20089 0.45973 0.0
C187 C 0.2959 0.18569 0.38225 0.0
C188 C 0.23884 0.15052 0.4044 0.0
H189 H 0.40008 0.23461 0.39087 0.0
H190 H 0.29662 0.1936 0.34354 0.0
S191 S 0.21353 0.1172 0.53561 0.0
N192 N 0.2929 0.15706 0.53105 0.0
N193 N 0.18296 0.11118 0.47997 0.0
C194 C 0.23828 0.14226 0.45486 0.0
C195 C 0.29672 0.16767 0.48258 0.0
C196 C 0.43856 0.96061 0.45127 0.0
C197 C 0.42467 0.9463 0.50069 0.0
C198 C 0.37035 0.97822 0.423 0.0
C199 C 0.28616 0.98188 0.44312 0.0
H200 H 0.50174 0.95343 0.43299 0.0
H201 H 0.38309 0.98374 0.38428 0.0
S202 S 0.21532 0.95882 0.57164 0.0
N203 N 0.32046 0.94589 0.56985 0.0
N204 N 0.19186 0.97599 0.51568 0.0
C205 C 0.27147 0.97254 0.49304 0.0
C206 C 0.3409 0.95549 0.52213 0.0
C207 C 0.73817 0.19076 0.48671 0.0
C208 C 0.6648 0.16298 0.48263 0.0
C209 C 0.817 0.16878 0.46483 0.0
C210 C 0.82581 0.11909 0.43644 0.0
H211 H 0.73476 0.23181 0.50422 0.0
H212 H 0.87066 0.19299 0.46785 0.0
S213 S 0.65806 1.02624 0.41736 0.0
N214 N 0.61058 0.07712 0.45386 0.0
N215 N 0.75703 0.04106 0.40657 0.0
C216 C 0.755 0.08914 0.43355 0.0
C217 C 0.67502 0.10983 0.4581 0.0
loop_
_geom_bond_atom_site_label_1
_geom_bond_atom_site_label_2
_geom_bond_distance
_geom_bond_site_symmetry_2
_ccdc_geom_bond_type
H0 C5 0.929 1_655 S
H1 C10 0.931 . S
H2 C8 0.930 . S
N3 N4 1.234 . S
N3 C7 1.453 . S
N4 N3 1.234 . S
C5 H0 0.929 1_455 S
C5 C6 1.373 1_554 S
C5 C7 1.368 . S
C6 C5 1.373 1_556 S
C6 C10 1.397 . S
C7 N3 1.453 . S
C7 C5 1.368 . S
C7 C8 1.373 . S
C8 H2 0.930 . S
C8 C7 1.373 . S
C8 C9 1.371 1_554 S
C9 C8 1.371 1_556 S
C9 C10 1.383 . S
C10 H1 0.931 . S
C10 C6 1.397 . S
C10 C9 1.383 . S
H11 C16 0.929 . S
H12 C21 0.931 . S
H13 C19 0.930 . S
N14 N15 1.234 1_655 S
N14 C18 1.453 . S
N15 N14 1.234 1_455 S
C16 H11 0.929 . S
C16 C17 1.373 1_554 S
C16 C18 1.368 . S
C17 C16 1.373 1_556 S
C17 C21 1.397 1_655 S
C18 N14 1.453 . S
C18 C16 1.368 . S
C18 C19 1.373 1_655 S
C19 H13 0.930 . S
C19 C18 1.373 1_455 S
C19 C20 1.384 . S
C20 C19 1.384 . S
C20 C21 1.375 1_554 S
C21 H12 0.931 . S
C21 C17 1.397 1_455 S
C21 C20 1.375 1_556 S
H22 C27 0.929 . S
H23 C32 0.931 . S
H24 C30 0.930 . S
N25 N26 1.234 . S
N25 C29 1.453 . S
N26 N25 1.234 . S
C27 H22 0.929 . S
C27 C28 1.373 . S
C27 C29 1.368 . S
C28 C27 1.373 . S
C28 C32 1.397 . S
C29 N25 1.453 . S
C29 C27 1.368 . S
C29 C30 1.373 . S
C30 H24 0.930 . S
C30 C29 1.373 . S
C30 C31 1.371 . S
C31 C30 1.371 . S
C31 C32 1.383 . S
C32 H23 0.931 . S
C32 C28 1.397 . S
C32 C31 1.383 . S
H33 C38 0.929 . S
H34 C43 0.931 . S
H35 C41 0.930 . S
N36 N37 1.234 . S
N36 C40 1.453 . S
N37 N36 1.234 . S
C38 H33 0.929 . S
C38 C39 1.373 . S
C38 C40 1.368 . S
C39 C38 1.373 . S
C39 C43 1.397 . S
C40 N36 1.453 . S
C40 C38 1.368 . S
C40 C41 1.373 . S
C41 H35 0.930 . S
C41 C40 1.373 . S
C41 C42 1.371 . S
C42 C41 1.371 . S
C42 C43 1.383 . S
C43 H34 0.931 . S
C43 C39 1.397 . S
C43 C42 1.383 . S
Zn44 O50 1.920 . S
Zn44 O56 1.898 . S
Zn44 O59 1.905 1_455 S
Zn45 O53 1.905 . S
Zn45 O54 1.898 1_455 S
Zn45 O62 1.920 . S
Zn46 O49 2.080 . S
Zn46 O52 2.114 1_545 S
Zn46 O55 2.120 1_545 S
Zn46 O57 2.120 . S
Zn46 O58 2.114 1_455 S
Zn46 O61 2.080 1_545 S
C47 O52 1.166 . S
C47 O53 1.182 . S
C48 O54 1.167 . S
C48 O55 1.299 1_655 S
O49 Zn46 2.080 . S
O49 C63 1.305 . S
O50 Zn44 1.920 . S
O50 C63 1.234 . S
C51 O56 1.167 . S
C51 O57 1.299 . S
O52 Zn46 2.114 1_565 S
O52 C47 1.166 . S
O53 Zn45 1.905 . S
O53 C47 1.182 . S
O54 Zn45 1.898 1_655 S
O54 C48 1.167 . S
O55 Zn46 2.120 1_565 S
O55 C48 1.299 1_455 S
O56 Zn44 1.898 . S
O56 C51 1.167 . S
O57 Zn46 2.120 . S
O57 C51 1.299 . S
O58 Zn46 2.114 1_655 S
O58 C60 1.166 . S
O59 Zn44 1.905 1_655 S
O59 C60 1.182 . S
C60 O58 1.166 . S
C60 O59 1.182 . S
O61 Zn46 2.080 1_565 S
O61 C64 1.305 . S
O62 Zn45 1.920 . S
O62 C64 1.234 . S
C63 O49 1.305 . S
C63 O50 1.234 . S
C64 O61 1.305 . S
C64 O62 1.234 . S
Zn65 O71 1.920 . S
Zn65 O77 1.898 . S
Zn65 O80 1.905 . S
Zn66 O74 1.905 . S
Zn66 O75 1.898 . S
Zn66 O83 1.920 . S
Zn67 O70 2.080 . S
Zn67 O73 2.114 . S
Zn67 O76 2.120 . S
Zn67 O78 2.120 . S
Zn67 O79 2.114 . S
Zn67 O82 2.080 . S
C68 O73 1.166 . S
C68 O74 1.182 . S
C69 O75 1.167 . S
C69 O76 1.299 . S
O70 Zn67 2.080 . S
O70 C84 1.305 . S
O71 Zn65 1.920 . S
O71 C84 1.234 . S
C72 O77 1.167 . S
C72 O78 1.299 . S
O73 Zn67 2.114 . S
O73 C68 1.166 . S
O74 Zn66 1.905 . S
O74 C68 1.182 . S
O75 Zn66 1.898 . S
O75 C69 1.167 . S
O76 Zn67 2.120 . S
O76 C69 1.299 . S
O77 Zn65 1.898 . S
O77 C72 1.167 . S
O78 Zn67 2.120 . S
O78 C72 1.299 . S
O79 Zn67 2.114 . S
O79 C81 1.166 . S
O80 Zn65 1.905 . S
O80 C81 1.182 . S
C81 O79 1.166 . S
C81 O80 1.182 . S
O82 Zn67 2.080 . S
O82 C85 1.305 . S
O83 Zn66 1.920 . S
O83 C85 1.234 . S
C84 O70 1.305 . S
C84 O71 1.234 . S
C85 O82 1.305 . S
C85 O83 1.234 . S
C86 C87 1.369 . S
C86 C88 1.419 . S
C86 H90 0.930 . S
C87 C86 1.369 . S
C87 C96 1.429 . S
C88 C86 1.419 . S
C88 C89 1.363 . S
C88 H91 0.929 . S
C89 C88 1.363 . S
C89 C95 1.428 . S
H90 C86 0.930 . S
H91 C88 0.929 . S
S92 N93 1.613 . S
S92 N94 1.610 . S
N93 S92 1.613 . S
N93 C96 1.350 . S
N94 S92 1.610 . S
N94 C95 1.351 . S
C95 C89 1.428 . S
C95 N94 1.351 . S
C95 C96 1.434 . S
C96 C87 1.429 . S
C96 N93 1.350 . S
C96 C95 1.434 . S
C97 C98 1.369 . S
C97 C99 1.419 . S
C97 H101 0.930 . S
C98 C97 1.369 . S
C98 C107 1.429 . S
C99 C97 1.419 . S
C99 C100 1.363 . S
C99 H102 0.929 . S
C100 C99 1.363 . S
C100 C106 1.428 . S
H101 C97 0.930 . S
H102 C99 0.929 . S
S103 N104 1.613 1_445 S
S103 N105 1.610 1_545 S
N104 S103 1.613 1_665 S
N104 C107 1.350 1_655 S
N105 S103 1.610 1_565 S
N105 C106 1.351 . S
C106 C100 1.428 . S
C106 N105 1.351 . S
C106 C107 1.434 . S
C107 C98 1.429 . S
C107 N104 1.350 1_455 S
C107 C106 1.434 . S
C108 C109 1.369 . S
C108 C110 1.419 . S
C108 H112 0.930 . S
C109 C108 1.369 . S
C109 C118 1.429 . S
C110 C108 1.419 . S
C110 C111 1.363 . S
C110 H113 0.929 . S
C111 C110 1.363 . S
C111 C117 1.428 . S
H112 C108 0.930 . S
H113 C110 0.929 . S
S114 N115 1.613 . S
S114 N116 1.610 . S
N115 S114 1.613 . S
N115 C118 1.350 . S
N116 S114 1.610 . S
N116 C117 1.351 . S
C117 C111 1.428 . S
C117 N116 1.351 . S
C117 C118 1.434 . S
C118 C109 1.429 . S
C118 N115 1.350 . S
C118 C117 1.434 . S
C119 C120 1.369 . S
C119 C121 1.419 . S
C119 H123 0.930 . S
C120 C119 1.369 . S
C120 C129 1.429 . S
C121 C119 1.419 . S
C121 C122 1.363 . S
C121 H124 0.929 . S
C122 C121 1.363 . S
C122 C128 1.428 . S
H123 C119 0.930 . S
H124 C121 0.929 . S
S125 N126 1.613 . S
S125 N127 1.610 . S
N126 S125 1.613 . S
N126 C129 1.350 . S
N127 S125 1.610 . S
N127 C128 1.351 . S
C128 C122 1.428 . S
C128 N127 1.351 . S
C128 C129 1.434 . S
C129 C120 1.429 . S
C129 N126 1.350 . S
C129 C128 1.434 . S
C130 C131 1.369 . S
C130 C132 1.419 . S
C130 H134 0.930 . S
C131 C130 1.369 . S
C131 C140 1.429 . S
C132 C130 1.419 . S
C132 C133 1.363 . S
C132 H135 0.929 . S
C133 C132 1.363 . S
C133 C139 1.428 . S
H134 C130 0.930 . S
H135 C132 0.929 . S
S136 N137 1.613 . S
S136 N138 1.610 . S
N137 S136 1.613 . S
N137 C140 1.350 . S
N138 S136 1.610 . S
N138 C139 1.351 . S
C139 C133 1.428 . S
C139 N138 1.351 . S
C139 C140 1.434 . S
C140 C131 1.429 . S
C140 N137 1.350 . S
C140 C139 1.434 . S
C141 C142 1.369 . S
C141 C143 1.419 . S
C141 H145 0.930 . S
C142 C141 1.369 . S
C142 C151 1.429 . S
C143 C141 1.419 . S
C143 C144 1.363 . S
C143 H146 0.929 . S
C144 C143 1.363 . S
C144 C150 1.428 . S
H145 C141 0.930 . S
H146 C143 0.929 . S
S147 N148 1.613 . S
S147 N149 1.610 1_554 S
N148 S147 1.613 . S
N148 C151 1.350 1_554 S
N149 S147 1.610 1_556 S
N149 C150 1.351 . S
C150 C144 1.428 . S
C150 N149 1.351 . S
C150 C151 1.434 . S
C151 C142 1.429 . S
C151 N148 1.350 1_556 S
C151 C150 1.434 . S
C152 C153 1.369 . S
C152 C154 1.419 . S
C152 H156 0.930 1_655 S
C153 C152 1.369 . S
C153 C162 1.429 . S
C154 C152 1.419 . S
C154 C155 1.363 . S
C154 H157 0.929 . S
C155 C154 1.363 . S
C155 C161 1.428 . S
H156 C152 0.930 1_455 S
H157 C154 0.929 . S
S158 N159 1.613 . S
S158 N160 1.610 . S
N159 S158 1.613 . S
N159 C162 1.350 . S
N160 S158 1.610 . S
N160 C161 1.351 . S
C161 C155 1.428 . S
C161 N160 1.351 . S
C161 C162 1.434 . S
C162 C153 1.429 . S
C162 N159 1.350 . S
C162 C161 1.434 . S
C163 C164 1.369 . S
C163 C165 1.419 . S
C163 H167 0.930 1_556 S
C164 C163 1.369 . S
C164 C173 1.429 . S
C165 C163 1.419 . S
C165 C166 1.363 . S
C165 H168 0.929 . S
C166 C165 1.363 . S
C166 C172 1.428 . S
H167 C163 0.930 1_554 S
H168 C165 0.929 . S
S169 N170 1.613 . S
S169 N171 1.610 . S
N170 S169 1.613 . S
N170 C173 1.350 . S
N171 S169 1.610 . S
N171 C172 1.351 . S
C172 C166 1.428 . S
C172 N171 1.351 . S
C172 C173 1.434 . S
C173 C164 1.429 . S
C173 N170 1.350 . S
C173 C172 1.434 . S
C174 C175 1.369 . S
C174 C176 1.419 . S
C174 H178 0.930 . S
C175 C174 1.369 . S
C175 C184 1.429 . S
C176 C174 1.419 . S
C176 C177 1.363 . S
C176 H179 0.933 . S
C177 C176 1.363 . S
C177 C183 1.428 . S
H178 C174 0.930 . S
H179 C176 0.933 . S
S180 N181 1.613 . S
S180 N182 1.610 . S
N181 S180 1.613 . S
N181 C184 1.350 . S
N182 S180 1.610 . S
N182 C183 1.351 . S
C183 C177 1.428 . S
C183 N182 1.351 . S
C183 C184 1.434 . S
C184 C175 1.429 . S
C184 N181 1.350 . S
C184 C183 1.434 . S
C185 C186 1.369 . S
C185 C187 1.419 . S
C185 H189 0.930 . S
C186 C185 1.369 . S
C186 C195 1.429 . S
C187 C185 1.419 . S
C187 C188 1.363 . S
C187 H190 0.929 . S
C188 C187 1.363 . S
C188 C194 1.428 . S
H189 C185 0.930 . S
H190 C187 0.929 . S
S191 N192 1.613 . S
S191 N193 1.610 . S
N192 S191 1.613 . S
N192 C195 1.350 . S
N193 S191 1.610 . S
N193 C194 1.351 . S
C194 C188 1.428 . S
C194 N193 1.351 . S
C194 C195 1.434 . S
C195 C186 1.429 . S
C195 N192 1.350 . S
C195 C194 1.434 . S
C196 C197 1.369 . S
C196 C198 1.419 . S
C196 H200 0.930 . S
C197 C196 1.369 . S
C197 C206 1.429 . S
C198 C196 1.419 . S
C198 C199 1.363 . S
C198 H201 0.929 . S
C199 C198 1.363 . S
C199 C205 1.428 . S
H200 C196 0.930 . S
H201 C198 0.929 . S
S202 N203 1.613 . S
S202 N204 1.610 . S
N203 S202 1.613 . S
N203 C206 1.350 . S
N204 S202 1.610 . S
N204 C205 1.351 . S
C205 C199 1.428 . S
C205 N204 1.351 . S
C205 C206 1.434 . S
C206 C197 1.429 . S
C206 N203 1.350 . S
C206 C205 1.434 . S
C207 C208 1.369 . S
C207 C209 1.419 . S
C207 H211 0.930 . S
C208 C207 1.369 . S
C208 C217 1.429 . S
C209 C207 1.419 . S
C209 C210 1.363 . S
C209 H212 0.929 . S
C210 C209 1.363 . S
C210 C216 1.428 . S
H211 C207 0.930 . S
H212 C209 0.929 . S
S213 N214 1.613 . S
S213 N215 1.610 . S
N214 S213 1.613 . S
N214 C217 1.350 . S
N215 S213 1.610 . S
N215 C216 1.351 . S
C216 C210 1.428 . S
C216 N215 1.351 . S
C216 C217 1.434 . S
C217 C208 1.429 . S
C217 N214 1.350 . S
C217 C216 1.434 . S
C89 C51 1.430 . S
C87 N4 1.538 . S
C100 C47 1.419 . S
C98 N15 1.498 . S
C111 C72 1.434 . S
C109 N26 1.540 . S
C120 N37 1.500 . S
C122 C68 1.417 . S
C131 C9 1.356 . S
C133 C69 1.185 . S
C144 C84 1.193 . S
C142 C17 1.366 . S
C153 C6 1.677 1_655 S
C155 C85 1.531 . S
C166 C81 1.565 . S
C164 C20 1.683 1_556 S
C177 C48 1.192 . S
C175 C31 1.348 . S
C186 C39 1.363 . S
C188 C63 1.199 . S
C199 C64 1.533 . S
C197 C28 1.676 . S
C210 C60 1.568 . S
C208 C42 1.690 . S
