# Generated by pormake.
# Topology dag, (6,3)-cn, num edge types: 1
# Building blocks:
#     Node 0, Type 0, BuildingBlock: OJICUG_clean_sbu_0, # of connection points: 6
#     Node 1, Type 0, BuildingBlock: OJICUG_clean_sbu_0, # of connection points: 6
#     Node 2, Type 0, BuildingBlock: OJICUG_clean_sbu_0, # of connection points: 6
#     Node 3, Type 0, BuildingBlock: OJICUG_clean_sbu_0, # of connection points: 6
#     Node 4, Type 1, BuildingBlock: QEWDON_clean_linker_0, # of connection points: 3
#     Node 5, Type 1, BuildingBlock: QEWDON_clean_linker_0, # of connection points: 3
#     Node 6, Type 1, BuildingBlock: QEWDON_clean_linker_0, # of connection points: 3
#     Node 7, Type 1, BuildingBlock: QEWDON_clean_linker_0, # of connection points: 3
#     Node 8, Type 1, BuildingBlock: QEWDON_clean_linker_0, # of connection points: 3
#     Node 9, Type 1, BuildingBlock: QEWDON_clean_linker_0, # of connection points: 3
#     Node 10, Type 1, BuildingBlock: QEWDON_clean_linker_0, # of connection points: 3
#     Node 11, Type 1, BuildingBlock: QEWDON_clean_linker_0, # of connection points: 3
#     Edge 12, Type (0, 1), None
#     Edge 13, Type (0, 1), None
#     Edge 14, Type (0, 1), None
#     Edge 15, Type (0, 1), None
#     Edge 16, Type (0, 1), None
#     Edge 17, Type (0, 1), None
#     Edge 18, Type (0, 1), None
#     Edge 19, Type (0, 1), None
#     Edge 20, Type (0, 1), None
#     Edge 21, Type (0, 1), None
#     Edge 22, Type (0, 1), None
#     Edge 23, Type (0, 1), None
#     Edge 24, Type (0, 1), None
#     Edge 25, Type (0, 1), None
#     Edge 26, Type (0, 1), None
#     Edge 27, Type (0, 1), None
#     Edge 28, Type (0, 1), None
#     Edge 29, Type (0, 1), None
#     Edge 30, Type (0, 1), None
#     Edge 31, Type (0, 1), None
#     Edge 32, Type (0, 1), None
#     Edge 33, Type (0, 1), None
#     Edge 34, Type (0, 1), None
#     Edge 35, Type (0, 1), None
# Relax obj value: 0.046
# Max RMSD: 0.095
# Mean RMSD: 0.089
data_MOF--net-dag--node1-OJICUG_clean_sbu_0--node2-QEWDON_clean_linker_0--edge1-none
_symmetry_space_group_name_H-M    P1
_symmetry_Int_Tables_number       1
_symmetry_cell_setting            triclinic
loop_
_symmetry_equiv_pos_as_xyz
'x, y, z'
_cell_length_a     19.330103
_cell_length_b     18.243803
_cell_length_c     19.683044
_cell_angle_alpha  90.461509
_cell_angle_beta   90.000247
_cell_angle_gamma 90.000532
loop_
_atom_site_label
_atom_site_type_symbol
_atom_site_fract_x
_atom_site_fract_y
_atom_site_fract_z
_atom_type_partial_charge
Sc0 Sc 0.05894 0.97757 0.01188 0.0
Sc1 Sc 0.14527 0.81816 0.03539 0.0
Sc2 Sc 0.23186 0.9845 0.99569 0.0
O3 O 0.14687 0.92455 0.01214 0.0
C4 C 0.134 0.06281 0.89843 0.0
C5 C 0.02185 0.84208 0.9267 0.0
C6 C 0.26667 0.82699 0.92746 0.0
C7 C 0.02282 0.87026 0.12544 0.0
C8 C 0.14118 0.08393 0.09621 0.0
C9 C 0.27013 0.88427 0.12264 0.0
O10 O 0.09785 0.06539 0.95167 0.0
O11 O 0.05428 0.80147 0.96919 0.0
O12 O 0.28143 0.89352 0.94236 0.0
O13 O 0.0036 0.90332 0.07291 0.0
O14 O 0.18907 0.08088 0.05118 0.0
O15 O 0.23248 0.83062 0.10311 0.0
O16 O 0.0959 0.03361 0.10025 0.0
O17 O 0.07941 0.83488 0.1255 0.0
O18 O 0.27312 0.94551 0.09141 0.0
O19 O 0.02873 0.91196 0.9257 0.0
O20 O 0.1901 0.02592 0.89791 0.0
O21 O 0.21428 0.7933 0.95144 0.0
Sc22 Sc 0.73186 0.52874 0.5244 0.0
Sc23 Sc 0.64527 0.69507 0.48469 0.0
Sc24 Sc 0.55894 0.53566 0.50822 0.0
O25 O 0.64687 0.58868 0.50795 0.0
C26 C 0.64118 0.4293 0.42389 0.0
C27 C 0.77013 0.62896 0.39745 0.0
C28 C 0.52282 0.64297 0.39465 0.0
C29 C 0.76667 0.68625 0.59263 0.0
C30 C 0.634 0.45043 0.62167 0.0
C31 C 0.52185 0.67116 0.59338 0.0
O32 O 0.68907 0.43236 0.46892 0.0
O33 O 0.73248 0.68261 0.41698 0.0
O34 O 0.50359 0.6099 0.44717 0.0
O35 O 0.78143 0.61972 0.57773 0.0
O36 O 0.59785 0.44785 0.56843 0.0
O37 O 0.55428 0.71177 0.5509 0.0
O38 O 0.6901 0.48733 0.62219 0.0
O39 O 0.71428 0.71994 0.56865 0.0
O40 O 0.52873 0.60127 0.59439 0.0
O41 O 0.77312 0.56773 0.42868 0.0
O42 O 0.5959 0.47962 0.41985 0.0
O43 O 0.57941 0.67835 0.39458 0.0
Sc44 Sc 0.80939 0.19509 0.98468 0.0
Sc45 Sc 0.7228 0.02876 0.02443 0.0
Sc46 Sc 0.89573 0.03568 1.00822 0.0
O47 O 0.8078 0.0887 1.00796 0.0
C48 C 0.93186 0.14301 0.89464 0.0
C49 C 0.68454 0.12895 0.89745 0.0
C50 C 0.81344 0.9293 0.92391 0.0
C51 C 0.688 0.18629 0.09262 0.0
C52 C 0.93281 0.17121 0.09338 0.0
C53 C 0.8207 0.95053 0.12173 0.0
O54 O 0.87525 0.17836 0.89458 0.0
O55 O 0.68154 0.06772 0.9287 0.0
O56 O 0.85875 0.9796 0.91988 0.0
O57 O 0.74038 0.21997 0.06863 0.0
O58 O 0.92597 0.10133 0.09437 0.0
O59 O 0.76457 0.98738 0.12223 0.0
O60 O 0.90037 0.21181 0.05089 0.0
O61 O 0.67324 0.11976 0.07774 0.0
O62 O 0.85682 0.9479 0.06848 0.0
O63 O 0.72219 0.1826 0.91697 0.0
O64 O 0.95108 0.10988 0.94714 0.0
O65 O 0.76558 0.93237 0.96897 0.0
Sc66 Sc 0.39573 0.47756 0.51188 0.0
Sc67 Sc 0.2228 0.48446 0.49567 0.0
Sc68 Sc 0.3094 0.31815 0.53542 0.0
O69 O 0.3078 0.42453 0.51215 0.0
C70 C 0.43281 0.34202 0.42673 0.0
C71 C 0.3207 0.56269 0.39836 0.0
C72 C 0.188 0.32693 0.42748 0.0
C73 C 0.31344 0.58394 0.59618 0.0
C74 C 0.43186 0.37023 0.62547 0.0
C75 C 0.18454 0.38429 0.62265 0.0
O76 O 0.42597 0.4119 0.42574 0.0
O77 O 0.26457 0.52585 0.39787 0.0
O78 O 0.24039 0.29326 0.45148 0.0
O79 O 0.35875 0.53364 0.60022 0.0
O80 O 0.37526 0.33488 0.62553 0.0
O81 O 0.18154 0.44551 0.5914 0.0
O82 O 0.45108 0.40336 0.57297 0.0
O83 O 0.26558 0.58087 0.55112 0.0
O84 O 0.22219 0.33064 0.60313 0.0
O85 O 0.35682 0.56533 0.45162 0.0
O86 O 0.40037 0.30142 0.46922 0.0
O87 O 0.17324 0.39347 0.44236 0.0
H88 H 0.16839 0.15526 0.21797 0.0
C89 C 0.12361 0.17438 0.1901 0.0
C90 C 0.11601 0.15533 0.12114 0.0
C91 C 0.06868 0.2089 0.22521 0.0
H92 H 0.05153 0.16414 0.0333 0.0
C93 C 0.05752 0.17992 0.08623 0.0
C94 C -0.00189 0.19867 0.12269 0.0
C95 C 0.00417 0.21636 0.19187 0.0
C96 C 0.07454 0.22456 0.29925 0.0
H97 H 0.95828 0.23177 0.22019 0.0
C98 C 0.13011 0.26615 0.32618 0.0
C99 C 0.1329 0.28194 0.39637 0.0
C100 C 0.02353 0.19785 0.34361 0.0
H101 H 0.98114 0.16469 0.32462 0.0
C102 C 0.02696 0.21286 0.41304 0.0
H103 H 0.16983 0.28722 0.29275 0.0
C104 C 0.08103 0.2549 0.43927 0.0
H105 H 0.08247 0.26635 0.49338 0.0
H106 H 0.98742 0.19197 0.44668 0.0
H107 H 0.49639 0.73177 0.72013 0.0
C108 C 0.45049 0.71635 0.69183 0.0
C109 C 0.45653 0.6986 0.62266 0.0
C110 C 0.38598 0.70893 0.72519 0.0
H111 H 0.4032 0.6641 0.5333 0.0
C112 C 0.3971 0.67987 0.58622 0.0
C113 C 0.3386 0.65533 0.62115 0.0
C114 C 0.33103 0.67441 0.6901 0.0
C115 C 0.38014 0.72464 0.79923 0.0
H116 H 0.28625 0.65533 0.71799 0.0
C117 C 0.32456 0.76619 0.82616 0.0
C118 C 0.32179 0.78203 0.89635 0.0
C119 C 0.43119 0.698 0.84358 0.0
H120 H 0.4736 0.66486 0.82459 0.0
C121 C 0.42779 0.71306 0.913 0.0
H122 H 0.2848 0.78721 0.79274 0.0
C123 C 0.3737 0.75507 0.93923 0.0
H124 H 0.37228 0.76656 0.99334 0.0
H125 H 0.46736 0.69222 0.94663 0.0
H126 H 0.9822 0.75073 0.20093 0.0
C127 C 0.9468 0.79682 0.20145 0.0
C128 C 0.96976 0.86505 0.17957 0.0
C129 C 0.87627 0.78659 0.21736 0.0
H130 H 0.94353 0.97798 0.16931 0.0
C131 C 0.92428 0.92492 0.18537 0.0
C132 C 0.8526 0.91224 0.18072 0.0
C133 C 0.82821 0.84318 0.2022 0.0
C134 C 0.85374 0.71365 0.24148 0.0
H135 H 0.77334 0.83119 0.20082 0.0
C136 C 0.81985 0.70668 0.30429 0.0
C137 C 0.80787 0.63681 0.33236 0.0
C138 C 0.87353 0.65008 0.20565 0.0
H139 H 0.89972 0.65405 0.15716 0.0
C140 C 0.86103 0.58089 0.23269 0.0
H141 H 0.80514 0.75569 0.33224 0.0
C142 C 0.82904 0.57412 0.29586 0.0
H143 H 0.81974 0.5197 0.31548 0.0
H144 H 0.87672 0.53229 0.20479 0.0
H145 H 0.68135 0.33116 0.70072 0.0
C146 C 0.62647 0.34313 0.70214 0.0
C147 C 0.60205 0.41218 0.68066 0.0
C148 C 0.57843 0.28654 0.71733 0.0
H149 H 0.51128 0.47799 0.66934 0.0
C150 C 0.53037 0.42486 0.68538 0.0
C151 C 0.4849 0.36499 0.67962 0.0
C152 C 0.50789 0.29676 0.70148 0.0
C153 C 0.60097 0.21361 0.74145 0.0
H154 H 0.47249 0.25067 0.70098 0.0
C155 C 0.63484 0.20664 0.80427 0.0
C156 C 0.64681 0.13678 0.83235 0.0
C157 C 0.58121 0.15003 0.70562 0.0
H158 H 0.55502 0.15399 0.65712 0.0
C159 C 0.5937 0.08085 0.73266 0.0
H160 H 0.64954 0.25566 0.83223 0.0
C161 C 0.62567 0.07409 0.79585 0.0
H162 H 0.63496 0.01967 0.81548 0.0
H163 H 0.57802 0.03224 0.70477 0.0
H164 H 0.66839 0.35796 0.30213 0.0
C165 C 0.62361 0.33884 0.33001 0.0
C166 C 0.61601 0.3579 0.39896 0.0
C167 C 0.56868 0.30432 0.29489 0.0
H168 H 0.55154 0.34909 0.48681 0.0
C169 C 0.55752 0.33331 0.43388 0.0
C170 C 0.49811 0.31456 0.39742 0.0
C171 C 0.50417 0.29687 0.32824 0.0
C172 C 0.57454 0.28866 0.22085 0.0
H173 H 0.45827 0.28146 0.29992 0.0
C174 C 0.6301 0.24708 0.19392 0.0
C175 C 0.6329 0.23128 0.12373 0.0
C176 C 0.52353 0.31536 0.1765 0.0
H177 H 0.48113 0.34852 0.19548 0.0
C178 C 0.52695 0.30034 0.10706 0.0
H179 H 0.66983 0.22601 0.22735 0.0
C180 C 0.58102 0.25831 0.08084 0.0
H181 H 0.58246 0.24686 0.02672 0.0
H182 H 0.48741 0.32124 0.07343 0.0
H183 H 0.18134 0.18208 0.81938 0.0
C184 C 0.12647 0.17011 0.81797 0.0
C185 C 0.10205 0.10107 0.83945 0.0
C186 C 0.07842 0.22671 0.80277 0.0
H187 H 0.01128 0.03525 0.85077 0.0
C188 C 0.03037 0.08839 0.83473 0.0
C189 C 0.98489 0.14826 0.84049 0.0
C190 C 0.00789 0.21649 0.81863 0.0
C191 C 0.10097 0.29964 0.77866 0.0
H192 H 0.97249 0.26258 0.81913 0.0
C193 C 0.13484 0.3066 0.71584 0.0
C194 C 0.14681 0.37646 0.68775 0.0
C195 C 0.0812 0.36322 0.81448 0.0
H196 H 0.05502 0.35925 0.86298 0.0
C197 C 0.09369 0.4324 0.78743 0.0
H198 H 0.14954 0.25758 0.68788 0.0
C199 C 0.12567 0.43915 0.72425 0.0
H200 H 0.13496 0.49357 0.70461 0.0
H201 H 0.07802 0.481 0.81533 0.0
H202 H 0.4822 0.76249 0.31916 0.0
C203 C 0.44679 0.71641 0.31863 0.0
C204 C 0.46976 0.64818 0.34051 0.0
C205 C 0.37627 0.72663 0.30273 0.0
H206 H 0.44353 0.53524 0.35078 0.0
C207 C 0.42428 0.58831 0.33472 0.0
C208 C 0.3526 0.60098 0.33937 0.0
C209 C 0.32821 0.67004 0.31789 0.0
C210 C 0.35374 0.79958 0.27861 0.0
H211 H 0.27334 0.68203 0.31927 0.0
C212 C 0.31985 0.80655 0.2158 0.0
C213 C 0.30788 0.87642 0.18774 0.0
C214 C 0.37352 0.86315 0.31444 0.0
H215 H 0.39972 0.85917 0.36294 0.0
C216 C 0.36103 0.93233 0.28741 0.0
H217 H 0.30514 0.75754 0.18784 0.0
C218 C 0.32904 0.9391 0.22424 0.0
H219 H 0.31974 0.99353 0.20461 0.0
H220 H 0.37672 0.98093 0.31531 0.0
H221 H -0.00361 0.78147 0.79995 0.0
C222 C 0.95049 0.79689 0.82826 0.0
C223 C 0.95653 0.81464 0.89742 0.0
C224 C 0.88598 0.80431 0.7949 0.0
H225 H 0.9032 0.84914 0.98679 0.0
C226 C 0.89711 0.83337 0.93387 0.0
C227 C 0.8386 0.85791 0.89894 0.0
C228 C 0.83103 0.83883 0.82999 0.0
C229 C 0.88014 0.78861 0.72086 0.0
H230 H 0.78625 0.85791 0.8021 0.0
C231 C 0.82456 0.74705 0.69393 0.0
C232 C 0.82178 0.73122 0.62374 0.0
C233 C 0.93119 0.81525 0.67651 0.0
H234 H 0.97359 0.8484 0.69549 0.0
C235 C 0.92778 0.8002 0.60708 0.0
H236 H 0.7848 0.72603 0.72735 0.0
C237 C 0.8737 0.75819 0.58086 0.0
H238 H 0.87227 0.7467 0.52675 0.0
H239 H 0.96735 0.82104 0.57345 0.0
loop_
_geom_bond_atom_site_label_1
_geom_bond_atom_site_label_2
_geom_bond_distance
_geom_bond_site_symmetry_2
_ccdc_geom_bond_type
Sc0 O3 2.025 . S
Sc0 O10 2.105 1_564 S
Sc0 O13 2.105 1_455 S
Sc0 O16 2.105 1_565 S
Sc0 O19 2.105 1_454 S
Sc1 O3 2.025 . S
Sc1 O11 2.105 1_554 S
Sc1 O15 2.105 . S
Sc1 O17 2.105 . S
Sc1 O21 2.105 1_554 S
Sc2 O3 2.025 . S
Sc2 O12 2.105 1_554 S
Sc2 O14 2.105 . S
Sc2 O18 2.105 . S
Sc2 O20 2.105 1_554 S
O3 Sc0 2.025 . S
O3 Sc1 2.025 . S
O3 Sc2 2.025 . S
C4 O10 1.268 . S
C4 O20 1.268 1_545 S
C5 O11 1.268 1_655 S
C5 O19 1.268 . S
C6 O12 1.268 . S
C6 O21 1.268 . S
C7 O13 1.268 . S
C7 O17 1.268 1_655 S
C8 O14 1.268 1_545 S
C8 O16 1.268 . S
C9 O15 1.268 . S
C9 O18 1.268 . S
O10 Sc0 2.105 1_546 S
O10 C4 1.268 . S
O11 Sc1 2.105 1_556 S
O11 C5 1.268 1_455 S
O12 Sc2 2.105 1_556 S
O12 C6 1.268 . S
O13 Sc0 2.105 1_655 S
O13 C7 1.268 . S
O14 Sc2 2.105 . S
O14 C8 1.268 1_565 S
O15 Sc1 2.105 . S
O15 C9 1.268 . S
O16 Sc0 2.105 1_545 S
O16 C8 1.268 . S
O17 Sc1 2.105 . S
O17 C7 1.268 1_455 S
O18 Sc2 2.105 . S
O18 C9 1.268 . S
O19 Sc0 2.105 1_656 S
O19 C5 1.268 . S
O20 Sc2 2.105 1_556 S
O20 C4 1.268 1_565 S
O21 Sc1 2.105 1_556 S
O21 C6 1.268 . S
Sc22 O25 2.025 . S
Sc22 O32 2.105 . S
Sc22 O35 2.105 . S
Sc22 O38 2.105 . S
Sc22 O41 2.105 . S
Sc23 O25 2.025 . S
Sc23 O33 2.105 . S
Sc23 O37 2.105 . S
Sc23 O39 2.105 . S
Sc23 O43 2.105 . S
Sc24 O25 2.025 . S
Sc24 O34 2.105 . S
Sc24 O36 2.105 . S
Sc24 O40 2.105 . S
Sc24 O42 2.105 . S
O25 Sc22 2.025 . S
O25 Sc23 2.025 . S
O25 Sc24 2.025 . S
C26 O32 1.268 . S
C26 O42 1.268 . S
C27 O33 1.268 . S
C27 O41 1.268 . S
C28 O34 1.268 . S
C28 O43 1.268 . S
C29 O35 1.268 . S
C29 O39 1.268 . S
C30 O36 1.268 . S
C30 O38 1.268 . S
C31 O37 1.268 . S
C31 O40 1.268 . S
O32 Sc22 2.105 . S
O32 C26 1.268 . S
O33 Sc23 2.105 . S
O33 C27 1.268 . S
O34 Sc24 2.105 . S
O34 C28 1.268 . S
O35 Sc22 2.105 . S
O35 C29 1.268 . S
O36 Sc24 2.105 . S
O36 C30 1.268 . S
O37 Sc23 2.105 . S
O37 C31 1.268 . S
O38 Sc22 2.105 . S
O38 C30 1.268 . S
O39 Sc23 2.105 . S
O39 C29 1.268 . S
O40 Sc24 2.105 . S
O40 C31 1.268 . S
O41 Sc22 2.105 . S
O41 C27 1.268 . S
O42 Sc24 2.105 . S
O42 C26 1.268 . S
O43 Sc23 2.105 . S
O43 C28 1.268 . S
Sc44 O47 2.025 . S
Sc44 O54 2.105 1_554 S
Sc44 O57 2.105 . S
Sc44 O60 2.105 . S
Sc44 O63 2.105 1_554 S
Sc45 O47 2.025 . S
Sc45 O55 2.105 1_554 S
Sc45 O59 2.105 . S
Sc45 O61 2.105 . S
Sc45 O65 2.105 1_554 S
Sc46 O47 2.025 . S
Sc46 O56 2.105 1_544 S
Sc46 O58 2.105 1_655 S
Sc46 O62 2.105 1_545 S
Sc46 O64 2.105 1_654 S
O47 Sc44 2.025 . S
O47 Sc45 2.025 . S
O47 Sc46 2.025 . S
C48 O54 1.268 1_455 S
C48 O64 1.268 . S
C49 O55 1.268 . S
C49 O63 1.268 . S
C50 O56 1.268 . S
C50 O65 1.268 1_565 S
C51 O57 1.268 . S
C51 O61 1.268 . S
C52 O58 1.268 . S
C52 O60 1.268 1_455 S
C53 O59 1.268 1_565 S
C53 O62 1.268 . S
O54 Sc44 2.105 1_556 S
O54 C48 1.268 1_655 S
O55 Sc45 2.105 1_556 S
O55 C49 1.268 . S
O56 Sc46 2.105 1_566 S
O56 C50 1.268 . S
O57 Sc44 2.105 . S
O57 C51 1.268 . S
O58 Sc46 2.105 1_455 S
O58 C52 1.268 . S
O59 Sc45 2.105 . S
O59 C53 1.268 1_545 S
O60 Sc44 2.105 . S
O60 C52 1.268 1_655 S
O61 Sc45 2.105 . S
O61 C51 1.268 . S
O62 Sc46 2.105 1_565 S
O62 C53 1.268 . S
O63 Sc44 2.105 1_556 S
O63 C49 1.268 . S
O64 Sc46 2.105 1_456 S
O64 C48 1.268 . S
O65 Sc45 2.105 1_556 S
O65 C50 1.268 1_545 S
Sc66 O69 2.025 . S
Sc66 O76 2.105 . S
Sc66 O79 2.105 . S
Sc66 O82 2.105 . S
Sc66 O85 2.105 . S
Sc67 O69 2.025 . S
Sc67 O77 2.105 . S
Sc67 O81 2.105 . S
Sc67 O83 2.105 . S
Sc67 O87 2.105 . S
Sc68 O69 2.025 . S
Sc68 O78 2.105 . S
Sc68 O80 2.105 . S
Sc68 O84 2.105 . S
Sc68 O86 2.105 . S
O69 Sc66 2.025 . S
O69 Sc67 2.025 . S
O69 Sc68 2.025 . S
C70 O76 1.268 . S
C70 O86 1.268 . S
C71 O77 1.268 . S
C71 O85 1.268 . S
C72 O78 1.268 . S
C72 O87 1.268 . S
C73 O79 1.268 . S
C73 O83 1.268 . S
C74 O80 1.268 . S
C74 O82 1.268 . S
C75 O81 1.268 . S
C75 O84 1.268 . S
O76 Sc66 2.105 . S
O76 C70 1.268 . S
O77 Sc67 2.105 . S
O77 C71 1.268 . S
O78 Sc68 2.105 . S
O78 C72 1.268 . S
O79 Sc66 2.105 . S
O79 C73 1.268 . S
O80 Sc68 2.105 . S
O80 C74 1.268 . S
O81 Sc67 2.105 . S
O81 C75 1.268 . S
O82 Sc66 2.105 . S
O82 C74 1.268 . S
O83 Sc67 2.105 . S
O83 C73 1.268 . S
O84 Sc68 2.105 . S
O84 C75 1.268 . S
O85 Sc66 2.105 . S
O85 C71 1.268 . S
O86 Sc68 2.105 . S
O86 C70 1.268 . S
O87 Sc67 2.105 . S
O87 C72 1.268 . S
H88 C89 0.949 . S
C89 H88 0.949 . S
C89 C90 1.395 . S
C89 C91 1.391 . S
C90 C89 1.395 . S
C90 C93 1.390 . S
C91 C89 1.391 . S
C91 C95 1.387 . S
C91 C96 1.491 . S
H92 C93 0.950 . S
C93 C90 1.390 . S
C93 H92 0.950 . S
C93 C94 1.378 . S
C94 C93 1.378 . S
C94 C95 1.409 . S
C95 C91 1.387 . S
C95 C94 1.409 . S
C95 H97 0.951 . S
C96 C91 1.491 . S
C96 C98 1.382 . S
C96 C100 1.404 . S
H97 C95 0.951 . S
C98 C96 1.382 . S
C98 C99 1.390 . S
C98 H103 0.949 . S
C99 C98 1.390 . S
C99 C104 1.399 . S
C100 C96 1.404 . S
C100 H101 0.950 . S
C100 C102 1.375 . S
H101 C100 0.950 . S
C102 C100 1.375 . S
C102 C104 1.382 . S
C102 H106 0.950 . S
H103 C98 0.949 . S
C104 C99 1.399 . S
C104 C102 1.382 . S
C104 H105 0.952 . S
H105 C104 0.952 . S
H106 C102 0.950 . S
H107 C108 0.949 . S
C108 H107 0.949 . S
C108 C109 1.395 . S
C108 C110 1.391 . S
C109 C108 1.395 . S
C109 C112 1.390 . S
C110 C108 1.391 . S
C110 C114 1.387 . S
C110 C115 1.491 . S
H111 C112 0.950 . S
C112 C109 1.390 . S
C112 H111 0.950 . S
C112 C113 1.378 . S
C113 C112 1.378 . S
C113 C114 1.409 . S
C114 C110 1.387 . S
C114 C113 1.409 . S
C114 H116 0.951 . S
C115 C110 1.491 . S
C115 C117 1.382 . S
C115 C119 1.404 . S
H116 C114 0.951 . S
C117 C115 1.382 . S
C117 C118 1.390 . S
C117 H122 0.949 . S
C118 C117 1.390 . S
C118 C123 1.399 . S
C119 C115 1.404 . S
C119 H120 0.950 . S
C119 C121 1.375 . S
H120 C119 0.950 . S
C121 C119 1.375 . S
C121 C123 1.382 . S
C121 H125 0.950 . S
H122 C117 0.949 . S
C123 C118 1.399 . S
C123 C121 1.382 . S
C123 H124 0.952 . S
H124 C123 0.952 . S
H125 C121 0.950 . S
H126 C127 0.949 . S
C127 H126 0.949 . S
C127 C128 1.395 . S
C127 C129 1.391 . S
C128 C127 1.395 . S
C128 C131 1.390 . S
C129 C127 1.391 . S
C129 C133 1.387 . S
C129 C134 1.491 . S
H130 C131 0.950 . S
C131 C128 1.390 . S
C131 H130 0.950 . S
C131 C132 1.378 . S
C132 C131 1.378 . S
C132 C133 1.409 . S
C133 C129 1.387 . S
C133 C132 1.409 . S
C133 H135 0.951 . S
C134 C129 1.491 . S
C134 C136 1.382 . S
C134 C138 1.404 . S
H135 C133 0.951 . S
C136 C134 1.382 . S
C136 C137 1.390 . S
C136 H141 0.949 . S
C137 C136 1.390 . S
C137 C142 1.399 . S
C138 C134 1.404 . S
C138 H139 0.950 . S
C138 C140 1.375 . S
H139 C138 0.950 . S
C140 C138 1.375 . S
C140 C142 1.382 . S
C140 H144 0.950 . S
H141 C136 0.949 . S
C142 C137 1.399 . S
C142 C140 1.382 . S
C142 H143 0.952 . S
H143 C142 0.952 . S
H144 C140 0.950 . S
H145 C146 0.949 . S
C146 H145 0.949 . S
C146 C147 1.395 . S
C146 C148 1.391 . S
C147 C146 1.395 . S
C147 C150 1.390 . S
C148 C146 1.391 . S
C148 C152 1.387 . S
C148 C153 1.491 . S
H149 C150 0.950 . S
C150 C147 1.390 . S
C150 H149 0.950 . S
C150 C151 1.378 . S
C151 C150 1.378 . S
C151 C152 1.409 . S
C152 C148 1.387 . S
C152 C151 1.409 . S
C152 H154 0.951 . S
C153 C148 1.491 . S
C153 C155 1.382 . S
C153 C157 1.404 . S
H154 C152 0.951 . S
C155 C153 1.382 . S
C155 C156 1.390 . S
C155 H160 0.949 . S
C156 C155 1.390 . S
C156 C161 1.399 . S
C157 C153 1.404 . S
C157 H158 0.950 . S
C157 C159 1.375 . S
H158 C157 0.950 . S
C159 C157 1.375 . S
C159 C161 1.382 . S
C159 H163 0.950 . S
H160 C155 0.949 . S
C161 C156 1.399 . S
C161 C159 1.382 . S
C161 H162 0.952 . S
H162 C161 0.952 . S
H163 C159 0.950 . S
H164 C165 0.949 . S
C165 H164 0.949 . S
C165 C166 1.395 . S
C165 C167 1.391 . S
C166 C165 1.395 . S
C166 C169 1.390 . S
C167 C165 1.391 . S
C167 C171 1.387 . S
C167 C172 1.491 . S
H168 C169 0.950 . S
C169 C166 1.390 . S
C169 H168 0.950 . S
C169 C170 1.378 . S
C170 C169 1.378 . S
C170 C171 1.409 . S
C171 C167 1.387 . S
C171 C170 1.409 . S
C171 H173 0.951 . S
C172 C167 1.491 . S
C172 C174 1.382 . S
C172 C176 1.404 . S
H173 C171 0.951 . S
C174 C172 1.382 . S
C174 C175 1.390 . S
C174 H179 0.949 . S
C175 C174 1.390 . S
C175 C180 1.399 . S
C176 C172 1.404 . S
C176 H177 0.950 . S
C176 C178 1.375 . S
H177 C176 0.950 . S
C178 C176 1.375 . S
C178 C180 1.382 . S
C178 H182 0.950 . S
H179 C174 0.949 . S
C180 C175 1.399 . S
C180 C178 1.382 . S
C180 H181 0.952 . S
H181 C180 0.952 . S
H182 C178 0.950 . S
H183 C184 0.949 . S
C184 H183 0.949 . S
C184 C185 1.395 . S
C184 C186 1.391 . S
C185 C184 1.395 . S
C185 C188 1.390 . S
C186 C184 1.391 . S
C186 C190 1.387 . S
C186 C191 1.491 . S
H187 C188 0.950 . S
C188 C185 1.390 . S
C188 H187 0.950 . S
C188 C189 1.378 . S
C189 C188 1.378 . S
C189 C190 1.409 . S
C190 C186 1.387 . S
C190 C189 1.409 . S
C190 H192 0.951 . S
C191 C186 1.491 . S
C191 C193 1.382 . S
C191 C195 1.404 . S
H192 C190 0.951 . S
C193 C191 1.382 . S
C193 C194 1.390 . S
C193 H198 0.949 . S
C194 C193 1.390 . S
C194 C199 1.399 . S
C195 C191 1.404 . S
C195 H196 0.950 . S
C195 C197 1.375 . S
H196 C195 0.950 . S
C197 C195 1.375 . S
C197 C199 1.382 . S
C197 H201 0.950 . S
H198 C193 0.949 . S
C199 C194 1.399 . S
C199 C197 1.382 . S
C199 H200 0.952 . S
H200 C199 0.952 . S
H201 C197 0.950 . S
H202 C203 0.949 . S
C203 H202 0.949 . S
C203 C204 1.395 . S
C203 C205 1.391 . S
C204 C203 1.395 . S
C204 C207 1.390 . S
C205 C203 1.391 . S
C205 C209 1.387 . S
C205 C210 1.491 . S
H206 C207 0.950 . S
C207 C204 1.390 . S
C207 H206 0.950 . S
C207 C208 1.378 . S
C208 C207 1.378 . S
C208 C209 1.409 . S
C209 C205 1.387 . S
C209 C208 1.409 . S
C209 H211 0.951 . S
C210 C205 1.491 . S
C210 C212 1.382 . S
C210 C214 1.404 . S
H211 C209 0.951 . S
C212 C210 1.382 . S
C212 C213 1.390 . S
C212 H217 0.949 . S
C213 C212 1.390 . S
C213 C218 1.399 . S
C214 C210 1.404 . S
C214 H215 0.950 . S
C214 C216 1.375 . S
H215 C214 0.950 . S
C216 C214 1.375 . S
C216 C218 1.382 . S
C216 H220 0.950 . S
H217 C212 0.949 . S
C218 C213 1.399 . S
C218 C216 1.382 . S
C218 H219 0.952 . S
H219 C218 0.952 . S
H220 C216 0.950 . S
H221 C222 0.949 . S
C222 H221 0.949 . S
C222 C223 1.395 . S
C222 C224 1.391 . S
C223 C222 1.395 . S
C223 C226 1.390 . S
C224 C222 1.391 . S
C224 C228 1.387 . S
C224 C229 1.491 . S
H225 C226 0.950 . S
C226 C223 1.390 . S
C226 H225 0.950 . S
C226 C227 1.378 . S
C227 C226 1.378 . S
C227 C228 1.409 . S
C228 C224 1.387 . S
C228 C227 1.409 . S
C228 H230 0.951 . S
C229 C224 1.491 . S
C229 C231 1.382 . S
C229 C233 1.404 . S
H230 C228 0.951 . S
C231 C229 1.382 . S
C231 C232 1.390 . S
C231 H236 0.949 . S
C232 C231 1.390 . S
C232 C237 1.399 . S
C233 C229 1.404 . S
C233 H234 0.950 . S
C233 C235 1.375 . S
H234 C233 0.950 . S
C235 C233 1.375 . S
C235 C237 1.382 . S
C235 H239 0.950 . S
H236 C231 0.949 . S
C237 C232 1.399 . S
C237 C235 1.382 . S
C237 H238 0.952 . S
H238 C237 0.952 . S
H239 C235 0.950 . S
C8 C90 1.381 . S
C31 C109 1.477 . S
C53 C132 1.141 . S
C151 C74 1.054 . S
C166 C26 1.382 . S
C48 C189 1.055 . S
C71 C208 1.142 . S
C5 C223 1.478 . S
C50 C227 1.156 . S
C170 C70 1.067 . S
C185 C4 1.380 . S
C28 C204 1.474 . S
C113 C73 1.155 . S
C7 C128 1.473 . S
C147 C30 1.379 . S
C94 C52 1.066 . S
C213 C9 1.300 . S
C232 C29 1.216 . S
C51 C175 1.090 . S
C194 C75 1.256 . S
C137 C27 1.301 . S
C49 C156 1.257 . S
C99 C72 1.090 . S
C118 C6 1.217 . S
