# Generated by pormake.
# Topology tsx, (6,3)-cn, num edge types: 1
# Building blocks:
#     Node 0, Type 0, BuildingBlock: MIDCAF_clean_sbu_0, # of connection points: 6
#     Node 1, Type 0, BuildingBlock: MIDCAF_clean_sbu_0, # of connection points: 6
#     Node 2, Type 1, BuildingBlock: MIDCAF_clean_linker_0, # of connection points: 3
#     Node 3, Type 1, BuildingBlock: MIDCAF_clean_linker_0, # of connection points: 3
#     Node 4, Type 1, BuildingBlock: MIDCAF_clean_linker_0, # of connection points: 3
#     Node 5, Type 1, BuildingBlock: MIDCAF_clean_linker_0, # of connection points: 3
#     Edge 6, Type (0, 1), None
#     Edge 7, Type (0, 1), None
#     Edge 8, Type (0, 1), None
#     Edge 9, Type (0, 1), None
#     Edge 10, Type (0, 1), None
#     Edge 11, Type (0, 1), None
#     Edge 12, Type (0, 1), None
#     Edge 13, Type (0, 1), None
#     Edge 14, Type (0, 1), None
#     Edge 15, Type (0, 1), None
#     Edge 16, Type (0, 1), None
#     Edge 17, Type (0, 1), None
# Relax obj value: 0.119
# Max RMSD: 0.182
# Mean RMSD: 0.114
data_MOF--net-tsx--node1-MIDCAF_clean_sbu_0--node2-MIDCAF_clean_linker_0--edge1-none
_symmetry_space_group_name_H-M    P1
_symmetry_Int_Tables_number       1
_symmetry_cell_setting            triclinic
loop_
_symmetry_equiv_pos_as_xyz
'x, y, z'
_cell_length_a     11.940807
_cell_length_b     13.871769
_cell_length_c     26.566755
_cell_angle_alpha  84.558553
_cell_angle_beta   103.53129
_cell_angle_gamma 87.611429
loop_
_atom_site_label
_atom_site_type_symbol
_atom_site_fract_x
_atom_site_fract_y
_atom_site_fract_z
_atom_type_partial_charge
Zn0 Zn 0.85117 0.00997 0.94272 0.0
Zn1 Zn 0.20202 0.90779 0.04596 0.0
Zn2 Zn 0.04507 0.98186 -0.00751 0.0
C3 C 0.25148 0.09879 0.0192 0.0
C4 C 0.20498 0.82071 0.96748 0.0
O5 O 0.96451 0.86893 0.02935 0.0
O6 O 0.79239 0.89549 0.97647 0.0
C7 C 0.91808 0.18356 0.98714 0.0
O8 O 0.14286 0.10454 0.01853 0.0
O9 O 0.30195 0.01513 0.02369 0.0
O10 O 0.20385 0.78414 0.01286 0.0
O11 O 0.16034 0.90764 0.95202 0.0
O12 O 0.83082 0.14257 0.96413 0.0
O13 O 1.01684 0.13567 0.00258 0.0
O14 O 0.07044 0.97598 0.91574 0.0
O15 O 0.88753 0.00011 0.87335 0.0
C16 C 0.99271 -0.0132 0.87299 0.0
O17 O 0.08098 0.06619 0.06053 0.0
O18 O 0.14581 0.92949 0.11004 0.0
C19 C 0.86082 0.84538 0.01431 0.0
C20 C 0.10885 0.01761 0.10597 0.0
Zn21 Zn 0.70208 0.40776 0.54598 0.0
Zn22 Zn 0.35123 0.50992 0.44272 0.0
Zn23 Zn 0.54512 0.48182 0.4925 0.0
C24 C 0.49277 0.48674 0.373 0.0
C25 C 0.41813 0.68352 0.48714 0.0
O26 O 0.58102 0.56617 0.56053 0.0
O27 O 0.64584 0.42948 0.61005 0.0
C28 C 0.70504 0.32067 0.4675 0.0
O29 O 0.5705 0.47594 0.41575 0.0
O30 O 0.38759 0.50005 0.37336 0.0
O31 O 0.33088 0.64253 0.46413 0.0
O32 O 0.51689 0.63564 0.50259 0.0
O33 O 0.70391 0.28411 0.51288 0.0
O34 O 0.6604 0.40761 0.45203 0.0
O35 O 0.64291 0.60451 0.51854 0.0
O36 O 0.802 0.5151 0.52371 0.0
C37 C 0.75153 0.59876 0.51921 0.0
O38 O 0.46456 0.36889 0.52937 0.0
O39 O 0.29245 0.39544 0.47648 0.0
C40 C 0.60888 0.5176 0.60598 0.0
C41 C 0.36088 0.34534 0.51432 0.0
C42 C 0.81047 0.31937 0.39628 0.0
C43 C 0.77245 0.26909 0.43701 0.0
C44 C 0.81224 0.17173 0.45306 0.0
C45 C 0.89411 0.12775 0.43134 0.0
H46 H 0.17734 0.9421 0.48663 0.0
H47 H 0.27537 0.78848 0.52942 0.0
H48 H 0.52266 0.81435 0.435 0.0
H49 H 0.42562 0.96924 0.39201 0.0
H50 H 0.31319 0.0524 0.27109 0.0
H51 H 0.29924 0.01031 0.18338 0.0
H52 H 0.94645 0.12912 0.13647 0.0
H53 H 0.95838 0.17014 0.22545 0.0
H54 H 0.92423 0.31666 0.34462 0.0
H55 H 0.78309 0.39481 0.38379 0.0
H56 H 0.78414 0.13067 0.48412 0.0
H57 H 0.92646 0.05372 0.44587 0.0
N58 N 0.11911 0.08039 0.4119 0.0
N59 N 0.21874 0.05581 0.34788 0.0
N60 N 0.04509 0.15316 0.32634 0.0
C61 C 0.21152 0.04029 0.39817 0.0
C62 C 0.13601 0.11171 0.31165 0.0
C63 C 1.03689 0.138 0.37661 0.0
C64 C 0.29166 0.96669 0.43488 0.0
C65 C 0.25617 0.91822 0.47684 0.0
C66 C 0.31261 0.83025 0.50167 0.0
C67 C 0.4054 0.78955 0.4851 0.0
C68 C 0.45181 0.84485 0.44883 0.0
C69 C 0.39477 0.93271 0.42354 0.0
C70 C 0.13594 0.11215 0.25582 0.0
C71 C 0.23303 0.07161 0.24216 0.0
C72 C 0.22526 0.04748 0.19189 0.0
C73 C 0.1211 0.06483 0.15392 0.0
C74 C 1.0274 0.11483 0.16548 0.0
C75 C 1.03459 0.13817 0.21636 0.0
C76 C 0.93768 0.18007 0.39308 0.0
C77 C 0.89193 0.27492 0.37415 0.0
C78 C 0.77169 0.7708 0.5379 0.0
C79 C 0.82033 0.68448 0.52597 0.0
C80 C 0.93868 0.67724 0.52677 0.0
C81 C 1.00892 0.75153 0.54374 0.0
H82 H 0.36528 0.10383 0.64988 0.0
H83 H 0.44792 0.24433 0.61133 0.0
H84 H 0.17808 0.24891 0.47043 0.0
H85 H 0.09829 0.11075 0.50856 0.0
H86 H 0.2205 0.04313 0.75531 0.0
H87 H 0.17585 0.05787 0.84001 0.0
H88 H 0.87838 0.89072 0.79586 0.0
H89 H 0.92195 0.87463 0.71248 0.0
H90 H 0.80447 0.90718 0.56823 0.0
H91 H 0.68087 0.77881 0.53749 0.0
H92 H 0.97833 0.61177 0.51738 0.0
H93 H 0.10115 0.74111 0.54825 0.0
N94 N 0.10428 0.95764 0.57332 0.0
N95 N 0.16247 0.0158 0.65526 0.0
N96 N 1.03092 0.89479 0.64286 0.0
C97 C 0.16808 0.01784 0.60463 0.0
C98 C 0.09372 0.95388 0.67452 0.0
C99 C 1.03646 0.89557 0.59272 0.0
C100 C 0.22647 0.09577 0.58158 0.0
C101 C 0.32529 0.13467 0.61043 0.0
C102 C 0.37235 0.21471 0.58849 0.0
C103 C 0.31903 0.25785 0.53806 0.0
C104 C 0.2211 0.21776 0.50948 0.0
C105 C 0.17593 0.13768 0.53094 0.0
C106 C 0.07484 0.95795 0.72714 0.0
C107 C 0.14625 0.00896 0.76394 0.0
C108 C 0.121 0.01733 0.8122 0.0
C109 C 1.02363 0.97573 0.82374 0.0
C110 C 0.95344 0.92395 0.78741 0.0
C111 C 0.97927 0.91433 0.7398 0.0
C112 C 0.96154 0.83358 0.56004 0.0
C113 C 0.84212 0.84444 0.55526 0.0
C114 C 0.31043 0.81942 0.89627 0.0
C115 C 0.27239 0.76913 0.93699 0.0
C116 C 0.31218 0.67176 0.95304 0.0
C117 C 0.39406 0.62779 0.93132 0.0
H118 H 0.6773 0.44214 0.98663 0.0
H119 H 0.77533 0.28852 0.02942 0.0
H120 H 1.02262 0.31438 0.935 0.0
H121 H 0.92559 0.46927 0.89202 0.0
H122 H 0.81319 0.55244 0.7711 0.0
H123 H 0.79926 0.51032 0.68339 0.0
H124 H 0.44645 0.6291 0.63647 0.0
H125 H 0.45837 0.67014 0.72544 0.0
H126 H 0.42421 0.81671 0.84461 0.0
H127 H 0.28306 0.89485 0.88378 0.0
H128 H 0.28407 0.6307 0.98409 0.0
H129 H 0.4264 0.55375 0.94585 0.0
N130 N 0.61908 0.58044 0.9119 0.0
N131 N 0.71872 0.55584 0.84788 0.0
N132 N 0.54506 0.6532 0.82634 0.0
C133 C 0.71149 0.54033 0.89817 0.0
C134 C 0.63599 0.61174 0.81165 0.0
C135 C 0.53686 0.63804 0.8766 0.0
C136 C 0.79163 0.46673 0.93488 0.0
C137 C 0.75613 0.41827 0.97684 0.0
C138 C 0.81257 0.33029 0.00168 0.0
C139 C 0.90536 0.28959 0.9851 0.0
C140 C 0.95178 0.34489 0.94883 0.0
C141 C 0.89474 0.43275 0.92355 0.0
C142 C 0.63592 0.61216 0.75582 0.0
C143 C 0.73302 0.57163 0.74217 0.0
C144 C 0.72526 0.54749 0.6919 0.0
C145 C 0.62111 0.56483 0.65393 0.0
C146 C 0.5274 0.61482 0.66548 0.0
C147 C 0.53458 0.63817 0.71636 0.0
C148 C 0.43764 0.68011 0.89307 0.0
C149 C 0.3919 0.77496 0.87414 0.0
C150 C 0.27166 0.27082 0.0379 0.0
C151 C 0.32028 0.18451 0.02596 0.0
C152 C 0.43863 0.17726 0.02675 0.0
C153 C 0.50888 0.25155 0.04372 0.0
H154 H 0.86526 0.60383 0.14986 0.0
H155 H 0.94789 0.74434 0.11131 0.0
H156 H 0.67799 0.74898 0.97043 0.0
H157 H 0.5982 0.61081 0.00856 0.0
H158 H 0.72052 0.54314 0.2553 0.0
H159 H 0.67588 0.55786 0.34001 0.0
H160 H 0.3785 0.39059 0.29589 0.0
H161 H 0.42206 0.37452 0.21251 0.0
H162 H 0.30445 0.4072 0.06823 0.0
H163 H 0.18083 0.27883 0.03749 0.0
H164 H 0.47828 0.1118 0.01735 0.0
H165 H 0.6011 0.24113 0.04823 0.0
N166 N 0.60424 0.45767 0.07331 0.0
N167 N 0.66247 0.5158 0.15526 0.0
N168 N 0.53094 0.39477 0.14286 0.0
C169 C 0.66805 0.51786 0.10462 0.0
C170 C 0.59374 0.45386 0.17452 0.0
C171 C 0.53644 0.39558 0.09271 0.0
C172 C 0.72642 0.5958 0.08157 0.0
C173 C 0.82526 0.63469 0.11041 0.0
C174 C 0.8723 0.71473 0.08848 0.0
C175 C 0.81897 0.75789 0.03805 0.0
C176 C 0.72102 0.71782 0.00948 0.0
C177 C 0.67585 0.63772 0.03094 0.0
C178 C 0.5749 0.4579 0.22715 0.0
C179 C 0.64629 0.50894 0.26394 0.0
C180 C 0.62104 0.5173 0.31221 0.0
C181 C 0.52371 0.47567 0.32375 0.0
C182 C 0.45354 0.42385 0.28744 0.0
C183 C 0.47936 0.41423 0.23982 0.0
C184 C 0.46151 0.3336 0.06003 0.0
C185 C 0.34209 0.34446 0.05526 0.0
loop_
_geom_bond_atom_site_label_1
_geom_bond_atom_site_label_2
_geom_bond_distance
_geom_bond_site_symmetry_2
_ccdc_geom_bond_type
Zn0 O6 1.920 1_545 S
Zn0 O12 1.898 . S
Zn0 O15 1.905 1_545 S
Zn1 O9 1.905 . S
Zn1 O10 1.898 1_545 S
Zn1 O18 1.920 1_545 S
Zn2 O5 2.080 1_445 S
Zn2 O8 2.114 . S
Zn2 O11 2.120 1_545 S
Zn2 O13 2.120 1_455 S
Zn2 O14 2.114 1_554 S
Zn2 O17 2.080 . S
C3 O8 1.166 . S
C3 O9 1.182 . S
C4 O10 1.167 . S
C4 O11 1.299 . S
O5 Zn2 2.080 1_665 S
O5 C19 1.305 . S
O6 Zn0 1.920 1_565 S
O6 C19 1.234 1_556 S
C7 O12 1.167 . S
C7 O13 1.299 1_556 S
O8 Zn2 2.114 . S
O8 C3 1.166 . S
O9 Zn1 1.905 . S
O9 C3 1.182 . S
O10 Zn1 1.898 1_565 S
O10 C4 1.167 . S
O11 Zn2 2.120 1_565 S
O11 C4 1.299 . S
O12 Zn0 1.898 . S
O12 C7 1.167 . S
O13 Zn2 2.120 1_655 S
O13 C7 1.299 1_554 S
O14 Zn2 2.114 1_556 S
O14 C16 1.166 1_445 S
O15 Zn0 1.905 1_565 S
O15 C16 1.182 . S
C16 O14 1.166 1_665 S
C16 O15 1.182 . S
O17 Zn2 2.080 . S
O17 C20 1.305 1_545 S
O18 Zn1 1.920 1_565 S
O18 C20 1.234 . S
C19 O5 1.305 . S
C19 O6 1.234 1_554 S
C20 O17 1.305 1_565 S
C20 O18 1.234 . S
Zn21 O27 1.920 . S
Zn21 O33 1.898 . S
Zn21 O36 1.905 . S
Zn22 O30 1.905 . S
Zn22 O31 1.898 . S
Zn22 O39 1.920 . S
Zn23 O26 2.080 . S
Zn23 O29 2.114 . S
Zn23 O32 2.120 . S
Zn23 O34 2.120 . S
Zn23 O35 2.114 . S
Zn23 O38 2.080 . S
C24 O29 1.166 . S
C24 O30 1.182 . S
C25 O31 1.167 . S
C25 O32 1.299 . S
O26 Zn23 2.080 . S
O26 C40 1.305 . S
O27 Zn21 1.920 . S
O27 C40 1.234 . S
C28 O33 1.167 . S
C28 O34 1.299 . S
O29 Zn23 2.114 . S
O29 C24 1.166 . S
O30 Zn22 1.905 . S
O30 C24 1.182 . S
O31 Zn22 1.898 . S
O31 C25 1.167 . S
O32 Zn23 2.120 . S
O32 C25 1.299 . S
O33 Zn21 1.898 . S
O33 C28 1.167 . S
O34 Zn23 2.120 . S
O34 C28 1.299 . S
O35 Zn23 2.114 . S
O35 C37 1.166 . S
O36 Zn21 1.905 . S
O36 C37 1.182 . S
C37 O35 1.166 . S
C37 O36 1.182 . S
O38 Zn23 2.080 . S
O38 C41 1.305 . S
O39 Zn22 1.920 . S
O39 C41 1.234 . S
C40 O26 1.305 . S
C40 O27 1.234 . S
C41 O38 1.305 . S
C41 O39 1.234 . S
C42 C43 1.384 . S
C42 H55 0.947 . S
C42 C77 1.382 . S
C43 C42 1.384 . S
C43 C44 1.378 . S
C44 C43 1.378 . S
C44 C45 1.378 . S
C44 H56 0.952 . S
C45 C44 1.378 . S
C45 H57 0.950 1_655 S
C45 C76 1.383 . S
H46 C65 0.947 . S
H47 C66 0.946 . S
H48 C68 0.953 . S
H49 C69 0.945 . S
H50 C71 0.952 . S
H51 C72 0.949 . S
H52 C74 0.950 1_655 S
H53 C75 0.948 1_655 S
H54 C77 0.951 . S
H55 C42 0.947 . S
H56 C44 0.952 . S
H57 C45 0.950 1_455 S
N58 C61 1.382 1_545 S
N58 C63 1.363 . S
N59 C61 1.371 . S
N59 C62 1.372 1_565 S
N60 C62 1.361 . S
N60 C63 1.377 . S
C61 N58 1.382 1_565 S
C61 N59 1.371 . S
C61 C64 1.480 . S
C62 N59 1.372 1_545 S
C62 N60 1.361 . S
C62 C70 1.457 . S
C63 N58 1.363 . S
C63 N60 1.377 . S
C63 C76 1.479 1_455 S
C64 C61 1.480 . S
C64 C65 1.383 . S
C64 C69 1.385 . S
C65 H46 0.947 . S
C65 C64 1.383 . S
C65 C66 1.388 . S
C66 H47 0.946 . S
C66 C65 1.388 . S
C66 C67 1.384 . S
C67 C66 1.384 . S
C67 C68 1.377 . S
C68 H48 0.953 . S
C68 C67 1.377 . S
C68 C69 1.369 . S
C69 H49 0.945 . S
C69 C64 1.385 . S
C69 C68 1.369 . S
C70 C62 1.457 . S
C70 C71 1.372 1_545 S
C70 C75 1.364 . S
C71 H50 0.952 . S
C71 C70 1.372 1_565 S
C71 C72 1.389 . S
C72 H51 0.949 . S
C72 C71 1.389 . S
C72 C73 1.387 1_565 S
C73 C72 1.387 1_545 S
C73 C74 1.372 . S
C74 H52 0.950 1_455 S
C74 C73 1.372 . S
C74 C75 1.379 . S
C75 H53 0.948 1_455 S
C75 C70 1.364 . S
C75 C74 1.379 . S
C76 C45 1.383 . S
C76 C63 1.479 1_655 S
C76 C77 1.398 . S
C77 C42 1.382 . S
C77 H54 0.951 . S
C77 C76 1.398 . S
C78 C79 1.384 . S
C78 H91 0.947 . S
C78 C113 1.382 . S
C79 C78 1.384 . S
C79 C80 1.378 . S
C80 C79 1.378 . S
C80 C81 1.378 . S
C80 H92 0.952 . S
C81 C80 1.378 . S
C81 H93 0.950 . S
C81 C112 1.383 . S
H82 C101 0.947 . S
H83 C102 0.946 . S
H84 C104 0.953 . S
H85 C105 0.945 . S
H86 C107 0.952 . S
H87 C108 0.949 . S
H88 C110 0.950 . S
H89 C111 0.948 . S
H90 C113 0.951 . S
H91 C78 0.947 . S
H92 C80 0.952 . S
H93 C81 0.950 . S
N94 C97 1.382 . S
N94 C99 1.363 1_445 S
N95 C97 1.371 . S
N95 C98 1.372 . S
N96 C98 1.361 1_665 S
N96 C99 1.377 . S
C97 N94 1.382 . S
C97 N95 1.371 . S
C97 C100 1.480 . S
C98 N95 1.372 . S
C98 N96 1.361 1_445 S
C98 C106 1.457 . S
C99 N94 1.363 1_665 S
C99 N96 1.377 . S
C99 C112 1.479 . S
C100 C97 1.480 . S
C100 C101 1.383 . S
C100 C105 1.385 . S
C101 H82 0.947 . S
C101 C100 1.383 . S
C101 C102 1.388 . S
C102 H83 0.946 . S
C102 C101 1.388 . S
C102 C103 1.384 . S
C103 C102 1.384 . S
C103 C104 1.377 . S
C104 H84 0.953 . S
C104 C103 1.377 . S
C104 C105 1.369 . S
C105 H85 0.945 . S
C105 C100 1.385 . S
C105 C104 1.369 . S
C106 C98 1.457 . S
C106 C107 1.372 . S
C106 C111 1.364 1_445 S
C107 H86 0.952 . S
C107 C106 1.372 . S
C107 C108 1.389 . S
C108 H87 0.949 . S
C108 C107 1.389 . S
C108 C109 1.387 . S
C109 C108 1.387 . S
C109 C110 1.372 1_445 S
C110 H88 0.950 . S
C110 C109 1.372 1_665 S
C110 C111 1.379 . S
C111 H89 0.948 . S
C111 C106 1.364 1_665 S
C111 C110 1.379 . S
C112 C81 1.383 . S
C112 C99 1.479 . S
C112 C113 1.398 . S
C113 C78 1.382 . S
C113 H90 0.951 . S
C113 C112 1.398 . S
C114 C115 1.384 1_556 S
C114 H127 0.947 . S
C114 C149 1.382 . S
C115 C114 1.384 1_554 S
C115 C116 1.378 . S
C116 C115 1.378 . S
C116 C117 1.378 . S
C116 H128 0.952 . S
C117 C116 1.378 . S
C117 H129 0.950 . S
C117 C148 1.383 1_554 S
H118 C137 0.947 . S
H119 C138 0.946 . S
H120 C140 0.953 . S
H121 C141 0.945 . S
H122 C143 0.952 . S
H123 C144 0.949 . S
H124 C146 0.950 . S
H125 C147 0.948 . S
H126 C149 0.951 . S
H127 C114 0.947 . S
H128 C116 0.952 . S
H129 C117 0.950 . S
N130 C133 1.382 . S
N130 C135 1.363 . S
N131 C133 1.371 . S
N131 C134 1.372 . S
N132 C134 1.361 . S
N132 C135 1.377 . S
C133 N130 1.382 . S
C133 N131 1.371 . S
C133 C136 1.480 . S
C134 N131 1.372 . S
C134 N132 1.361 . S
C134 C142 1.457 . S
C135 N130 1.363 . S
C135 N132 1.377 . S
C135 C148 1.479 . S
C136 C133 1.480 . S
C136 C137 1.383 1_556 S
C136 C141 1.385 . S
C137 H118 0.947 . S
C137 C136 1.383 1_554 S
C137 C138 1.388 . S
C138 H119 0.946 . S
C138 C137 1.388 . S
C138 C139 1.384 . S
C139 C138 1.384 . S
C139 C140 1.377 1_554 S
C140 H120 0.953 . S
C140 C139 1.377 1_556 S
C140 C141 1.369 . S
C141 H121 0.945 . S
C141 C136 1.385 . S
C141 C140 1.369 . S
C142 C134 1.457 . S
C142 C143 1.372 . S
C142 C147 1.364 . S
C143 H122 0.952 . S
C143 C142 1.372 . S
C143 C144 1.389 . S
C144 H123 0.949 . S
C144 C143 1.389 . S
C144 C145 1.387 . S
C145 C144 1.387 . S
C145 C146 1.372 . S
C146 H124 0.950 . S
C146 C145 1.372 . S
C146 C147 1.379 . S
C147 H125 0.948 . S
C147 C142 1.364 . S
C147 C146 1.379 . S
C148 C117 1.383 1_556 S
C148 C135 1.479 . S
C148 C149 1.398 . S
C149 C114 1.382 . S
C149 H126 0.951 . S
C149 C148 1.398 . S
C150 C151 1.389 . S
C150 H163 0.947 . S
C150 C185 1.382 . S
C151 C150 1.389 . S
C151 C152 1.376 1_554 S
C152 C151 1.376 1_556 S
C152 C153 1.378 1_556 S
C152 H164 0.952 . S
C153 C152 1.378 1_554 S
C153 H165 0.950 1_554 S
C153 C184 1.383 . S
H154 C173 0.947 1_556 S
H155 C174 0.946 . S
H156 C176 0.953 . S
H157 C177 0.945 . S
H158 C179 0.952 . S
H159 C180 0.949 . S
H160 C182 0.950 . S
H161 C183 0.948 . S
H162 C185 0.951 . S
H163 C150 0.947 . S
H164 C152 0.952 . S
H165 C153 0.950 1_556 S
N166 C169 1.382 . S
N166 C171 1.363 . S
N167 C169 1.371 . S
N167 C170 1.372 . S
N168 C170 1.361 . S
N168 C171 1.377 . S
C169 N166 1.382 . S
C169 N167 1.371 . S
C169 C172 1.480 . S
C170 N167 1.372 . S
C170 N168 1.361 . S
C170 C178 1.457 . S
C171 N166 1.363 . S
C171 N168 1.377 . S
C171 C184 1.479 . S
C172 C169 1.480 . S
C172 C173 1.383 . S
C172 C177 1.385 . S
C173 H154 0.947 1_554 S
C173 C172 1.383 . S
C173 C174 1.388 1_554 S
C174 H155 0.946 . S
C174 C173 1.388 1_556 S
C174 C175 1.384 1_556 S
C175 C174 1.384 1_554 S
C175 C176 1.377 . S
C176 H156 0.953 . S
C176 C175 1.377 . S
C176 C177 1.369 . S
C177 H157 0.945 . S
C177 C172 1.385 . S
C177 C176 1.369 . S
C178 C170 1.457 . S
C178 C179 1.372 . S
C178 C183 1.364 . S
C179 H158 0.952 . S
C179 C178 1.372 . S
C179 C180 1.389 . S
C180 H159 0.949 . S
C180 C179 1.389 . S
C180 C181 1.387 . S
C181 C180 1.387 . S
C181 C182 1.372 . S
C182 H160 0.950 . S
C182 C181 1.372 . S
C182 C183 1.379 . S
C183 H161 0.948 . S
C183 C178 1.364 . S
C183 C182 1.379 . S
C184 C153 1.383 . S
C184 C171 1.479 . S
C184 C185 1.398 . S
C185 C150 1.382 . S
C185 H162 0.951 . S
C185 C184 1.398 . S
C151 C3 1.526 . S
C4 C115 1.584 . S
C19 C175 1.596 . S
C7 C139 1.536 1_556 S
C37 C79 1.523 . S
C28 C43 1.584 . S
C103 C41 1.596 . S
C67 C25 1.536 . S
C20 C73 1.545 1_565 S
C16 C109 1.503 1_665 S
C145 C40 1.545 . S
C24 C181 1.503 . S
