# Generated by pormake.
# Topology dag, (6,3)-cn, num edge types: 1
# Building blocks:
#     Node 0, Type 0, BuildingBlock: OJICUG_clean_sbu_0, # of connection points: 6
#     Node 1, Type 0, BuildingBlock: OJICUG_clean_sbu_0, # of connection points: 6
#     Node 2, Type 0, BuildingBlock: OJICUG_clean_sbu_0, # of connection points: 6
#     Node 3, Type 0, BuildingBlock: OJICUG_clean_sbu_0, # of connection points: 6
#     Node 4, Type 1, BuildingBlock: INOVEN_clean_linker_0, # of connection points: 3
#     Node 5, Type 1, BuildingBlock: INOVEN_clean_linker_0, # of connection points: 3
#     Node 6, Type 1, BuildingBlock: INOVEN_clean_linker_0, # of connection points: 3
#     Node 7, Type 1, BuildingBlock: INOVEN_clean_linker_0, # of connection points: 3
#     Node 8, Type 1, BuildingBlock: INOVEN_clean_linker_0, # of connection points: 3
#     Node 9, Type 1, BuildingBlock: INOVEN_clean_linker_0, # of connection points: 3
#     Node 10, Type 1, BuildingBlock: INOVEN_clean_linker_0, # of connection points: 3
#     Node 11, Type 1, BuildingBlock: INOVEN_clean_linker_0, # of connection points: 3
#     Edge 12, Type (0, 1), None
#     Edge 13, Type (0, 1), None
#     Edge 14, Type (0, 1), None
#     Edge 15, Type (0, 1), None
#     Edge 16, Type (0, 1), None
#     Edge 17, Type (0, 1), None
#     Edge 18, Type (0, 1), None
#     Edge 19, Type (0, 1), None
#     Edge 20, Type (0, 1), None
#     Edge 21, Type (0, 1), None
#     Edge 22, Type (0, 1), None
#     Edge 23, Type (0, 1), None
#     Edge 24, Type (0, 1), None
#     Edge 25, Type (0, 1), None
#     Edge 26, Type (0, 1), None
#     Edge 27, Type (0, 1), None
#     Edge 28, Type (0, 1), None
#     Edge 29, Type (0, 1), None
#     Edge 30, Type (0, 1), None
#     Edge 31, Type (0, 1), None
#     Edge 32, Type (0, 1), None
#     Edge 33, Type (0, 1), None
#     Edge 34, Type (0, 1), None
#     Edge 35, Type (0, 1), None
# Relax obj value: 0.094
# Max RMSD: 0.134
# Mean RMSD: 0.116
data_MOF--net-dag--node1-OJICUG_clean_sbu_0--node2-INOVEN_clean_linker_0--edge1-none
_symmetry_space_group_name_H-M    P1
_symmetry_Int_Tables_number       1
_symmetry_cell_setting            triclinic
loop_
_symmetry_equiv_pos_as_xyz
'x, y, z'
_cell_length_a     17.159571
_cell_length_b     17.823006
_cell_length_c     18.203751
_cell_angle_alpha  93.130452
_cell_angle_beta   89.998208
_cell_angle_gamma 89.998974
loop_
_atom_site_label
_atom_site_type_symbol
_atom_site_fract_x
_atom_site_fract_y
_atom_site_fract_z
_atom_type_partial_charge
Sc0 Sc 0.04932 0.92589 0.01246 0.0
Sc1 Sc 0.08852 0.74402 -0.00989 0.0
Sc2 Sc 0.22719 0.87782 0.06245 0.0
O3 O 0.12386 0.8463 0.0231 0.0
C4 C 0.18433 0.98765 0.9343 0.0
C5 C -0.01172 0.83038 0.88591 0.0
C6 C 0.26389 0.7579 0.93168 0.0
C7 C 0.95735 0.81885 0.09606 0.0
C8 C 0.12977 0.99859 0.14368 0.0
C9 C 0.18879 0.71999 0.13416 0.0
O10 O 0.12078 0.95196 0.92179 0.0
O11 O 0.04286 0.78228 0.88275 0.0
O12 O 0.2839 0.8147 0.97292 0.0
O13 O -0.00451 0.8803 0.10426 0.0
O14 O 0.17342 0.94364 0.15816 0.0
O15 O 0.13405 0.69952 0.09007 0.0
O16 O 0.11395 0.00685 0.0775 0.0
O17 O -0.02307 0.76562 0.04889 0.0
O18 O 0.22819 0.78068 0.12874 0.0
O19 O 0.97053 0.85824 0.9481 0.0
O20 O 0.22653 0.97553 -0.00893 0.0
O21 O 0.19781 0.72502 0.93539 0.0
Sc22 Sc 0.72719 0.62091 0.45347 0.0
Sc23 Sc 0.58851 0.7547 0.52583 0.0
Sc24 Sc 0.54932 0.57284 0.50345 0.0
O25 O 0.62386 0.65242 0.49282 0.0
C26 C 0.62977 0.50016 0.37222 0.0
C27 C 0.68878 0.77875 0.38178 0.0
C28 C 0.45734 0.6799 0.41988 0.0
C29 C 0.76388 0.74081 0.58425 0.0
C30 C 0.68433 0.51105 0.58159 0.0
C31 C 0.48828 0.66832 0.63002 0.0
O32 O 0.67342 0.5551 0.35775 0.0
O33 O 0.63404 0.79922 0.42588 0.0
O34 O 0.49548 0.61845 0.41167 0.0
O35 O 0.7839 0.68401 0.543 0.0
O36 O 0.62077 0.54674 0.59411 0.0
O37 O 0.54286 0.71642 0.63319 0.0
O38 O 0.72653 0.52319 0.52482 0.0
O39 O 0.69781 0.77369 0.58054 0.0
O40 O 0.47053 0.64048 0.56783 0.0
O41 O 0.72818 0.71807 0.38719 0.0
O42 O 0.61394 0.49189 0.4384 0.0
O43 O 0.47692 0.73312 0.46706 0.0
Sc44 Sc 0.8674 0.25858 -0.00213 0.0
Sc45 Sc 0.71886 0.12184 0.97924 0.0
Sc46 Sc 0.90533 0.07324 0.00177 0.0
O47 O 0.82896 0.15296 -0.00742 0.0
C48 C -0.00409 0.16857 0.90012 0.0
C49 C 0.74008 0.2586 0.87534 0.0
C50 C 0.8078 0.00565 0.88508 0.0
C51 C 0.71001 0.26459 0.087 0.0
C52 C 0.96378 0.18325 0.11212 0.0
C53 C 0.78137 0.01151 0.10129 0.0
O54 O -0.02297 0.22741 0.93978 0.0
O55 O 0.699 0.21203 0.90889 0.0
O56 O 0.83157 0.99429 0.94821 0.0
O57 O 0.76443 0.29658 0.05351 0.0
O58 O -0.01626 0.14864 0.05388 0.0
O59 O 0.73072 0.0258 0.05199 0.0
O60 O 0.91749 0.23856 0.108 0.0
O61 O 0.68957 0.19588 0.07387 0.0
O62 O 0.8468 0.046 0.1028 0.0
O63 O 0.81008 0.27683 0.89354 0.0
O64 O 0.95454 0.10907 0.90062 0.0
O65 O 0.75364 0.05349 0.87857 0.0
Sc66 Sc 0.40533 0.42549 0.51414 0.0
Sc67 Sc 0.21886 0.37689 0.53667 0.0
Sc68 Sc 0.3674 0.24015 0.51801 0.0
O69 O 0.32897 0.34577 0.52332 0.0
C70 C 0.46377 0.31551 0.40376 0.0
C71 C 0.28137 0.48725 0.41464 0.0
C72 C 0.21001 0.23416 0.42889 0.0
C73 C 0.3078 0.49306 0.63085 0.0
C74 C 0.49592 0.33014 0.61576 0.0
C75 C 0.24008 0.24011 0.64055 0.0
O76 O 0.48373 0.35009 0.462 0.0
O77 O 0.23072 0.47295 0.46394 0.0
O78 O 0.26443 0.20216 0.46237 0.0
O79 O 0.33158 0.50443 0.56772 0.0
O80 O 0.47703 0.27131 0.57609 0.0
O81 O 0.199 0.28669 0.607 0.0
O82 O 0.45455 0.38964 0.61528 0.0
O83 O 0.25364 0.44522 0.63735 0.0
O84 O 0.31009 0.22189 0.62234 0.0
O85 O 0.3468 0.45276 0.41312 0.0
O86 O 0.41748 0.26019 0.40788 0.0
O87 O 0.18957 0.30287 0.44203 0.0
H88 H 0.017 0.25768 0.24016 0.0
H89 H -0.01453 0.03977 0.1334 0.0
H90 H 0.1834 0.08144 0.27129 0.0
N91 N 0.12811 0.21672 0.32864 0.0
N92 N 0.17378 0.18986 0.37289 0.0
C93 C 0.03263 0.19883 0.23271 0.0
C94 C -0.00419 0.15281 0.17951 0.0
C95 C 0.09482 0.16998 0.27218 0.0
C96 C 0.12726 0.0983 0.25057 0.0
C97 C 0.08895 0.052 0.19726 0.0
C98 C 0.01567 0.07596 0.17377 0.0
H99 H 0.24773 0.55947 0.75916 0.0
H100 H 0.45771 0.52661 0.63618 0.0
H101 H 0.42132 0.73354 0.76268 0.0
N102 N 0.29262 0.67869 0.83394 0.0
N103 N 0.31618 0.73028 0.87695 0.0
C104 C 0.30622 0.57685 0.74526 0.0
C105 C 0.34767 0.53678 0.69111 0.0
C106 C 0.33754 0.64339 0.77759 0.0
C107 C 0.40546 0.67593 0.74767 0.0
C108 C 0.4472 0.63436 0.69265 0.0
C109 C 0.42446 0.55934 0.67712 0.0
H110 H 0.71525 0.94037 0.22497 0.0
H111 H 0.86316 0.90788 0.03525 0.0
H112 H 0.877 0.75508 0.20504 0.0
N113 N 0.76092 0.80332 0.28126 0.0
N114 N 0.70622 0.82409 0.32226 0.0
C115 C 0.75662 0.90703 0.19231 0.0
C116 C 0.78569 0.93305 0.12523 0.0
C117 C 0.7859 0.83802 0.21743 0.0
C118 C 0.84775 0.80158 0.1806 0.0
C119 C 0.87576 0.8281 0.1159 0.0
C120 C 0.8383 0.88772 0.08476 0.0
H121 H 0.77235 0.44543 0.68925 0.0
H122 H 0.58268 0.41319 0.53829 0.0
H123 H 0.59186 0.28215 0.72612 0.0
N124 N 0.73455 0.33301 0.77312 0.0
N125 N 0.70414 0.28715 0.8134 0.0
C126 C 0.72174 0.41381 0.66994 0.0
C127 C 0.68112 0.43494 0.60774 0.0
C128 C 0.69274 0.35502 0.71058 0.0
C129 C 0.61931 0.32208 0.69156 0.0
C130 C 0.57961 0.34393 0.62932 0.0
C131 C 0.6151 0.39451 0.58462 0.0
H132 H 0.51699 0.24109 0.27571 0.0
H133 H 0.48546 0.45899 0.3825 0.0
H134 H 0.68339 0.41732 0.2446 0.0
N135 N 0.62811 0.28204 0.18724 0.0
N136 N 0.67378 0.30889 0.14299 0.0
C137 C 0.53262 0.29994 0.28317 0.0
C138 C 0.4958 0.34595 0.33637 0.0
C139 C 0.59481 0.32878 0.2437 0.0
C140 C 0.62725 0.40047 0.26532 0.0
C141 C 0.58894 0.44676 0.31863 0.0
C142 C 0.51566 0.4228 0.34212 0.0
H143 H 0.27236 0.05328 0.82663 0.0
H144 H 0.08266 0.08551 0.97758 0.0
H145 H 0.09186 0.21656 0.78976 0.0
N146 N 0.23456 0.1657 0.74277 0.0
N147 N 0.20414 0.21156 0.70249 0.0
C148 C 0.22174 0.08489 0.84594 0.0
C149 C 0.18111 0.06376 0.90814 0.0
C150 C 0.19274 0.14368 0.8053 0.0
C151 C 0.11931 0.17662 0.82432 0.0
C152 C 0.0796 0.15477 0.88656 0.0
C153 C 0.11509 0.10419 0.93126 0.0
H154 H 0.21526 0.55839 0.29097 0.0
H155 H 0.36314 0.59088 0.4807 0.0
H156 H 0.377 0.74368 0.3109 0.0
N157 N 0.26093 0.69544 0.23468 0.0
N158 N 0.20623 0.67467 0.19368 0.0
C159 C 0.25662 0.59173 0.32363 0.0
C160 C 0.28568 0.56571 0.39071 0.0
C161 C 0.2859 0.66074 0.29851 0.0
C162 C 0.34774 0.69717 0.33534 0.0
C163 C 0.37575 0.67066 0.40005 0.0
C164 C 0.33828 0.61104 0.43119 0.0
H165 H 0.74772 0.93922 0.75679 0.0
H166 H 0.9577 0.97209 0.87974 0.0
H167 H 0.92131 0.76515 0.75326 0.0
N168 N 0.79261 0.82 0.68201 0.0
N169 N 0.81618 0.76841 0.63898 0.0
C170 C 0.80621 0.92184 0.77068 0.0
C171 C 0.84766 0.96192 0.82482 0.0
C172 C 0.83753 0.8553 0.73835 0.0
C173 C 0.90546 0.82276 0.76827 0.0
C174 C 0.9472 0.86434 0.82328 0.0
C175 C 0.92445 0.93936 0.83881 0.0
loop_
_geom_bond_atom_site_label_1
_geom_bond_atom_site_label_2
_geom_bond_distance
_geom_bond_site_symmetry_2
_ccdc_geom_bond_type
Sc0 O3 2.025 . S
Sc0 O10 2.105 1_564 S
Sc0 O13 2.105 1_455 S
Sc0 O16 2.105 1_565 S
Sc0 O19 2.102 1_454 S
Sc1 O3 2.025 . S
Sc1 O11 2.105 1_554 S
Sc1 O15 2.105 . S
Sc1 O17 2.105 1_455 S
Sc1 O21 2.105 1_554 S
Sc2 O3 2.025 . S
Sc2 O12 2.105 1_554 S
Sc2 O14 2.105 . S
Sc2 O18 2.105 . S
Sc2 O20 2.110 . S
O3 Sc0 2.025 . S
O3 Sc1 2.025 . S
O3 Sc2 2.025 . S
C4 O10 1.268 . S
C4 O20 1.264 1_546 S
C5 O11 1.268 . S
C5 O19 1.268 1_455 S
C6 O12 1.268 . S
C6 O21 1.268 . S
C7 O13 1.268 . S
C7 O17 1.268 . S
C8 O14 1.268 1_545 S
C8 O16 1.268 . S
C9 O15 1.268 . S
C9 O18 1.268 . S
O10 Sc0 2.105 1_546 S
O10 C4 1.268 . S
O11 Sc1 2.105 1_556 S
O11 C5 1.268 . S
O12 Sc2 2.105 1_556 S
O12 C6 1.268 . S
O13 Sc0 2.105 1_655 S
O13 C7 1.268 . S
O14 Sc2 2.105 . S
O14 C8 1.268 1_565 S
O15 Sc1 2.105 . S
O15 C9 1.268 . S
O16 Sc0 2.105 1_545 S
O16 C8 1.268 . S
O17 Sc1 2.105 1_655 S
O17 C7 1.268 . S
O18 Sc2 2.105 . S
O18 C9 1.268 . S
O19 Sc0 2.102 1_656 S
O19 C5 1.268 1_655 S
O20 Sc2 2.110 . S
O20 C4 1.264 1_564 S
O21 Sc1 2.105 1_556 S
O21 C6 1.268 . S
Sc22 O25 2.025 . S
Sc22 O32 2.105 . S
Sc22 O35 2.105 . S
Sc22 O38 2.105 . S
Sc22 O41 2.105 . S
Sc23 O25 2.025 . S
Sc23 O33 2.105 . S
Sc23 O37 2.105 . S
Sc23 O39 2.105 . S
Sc23 O43 2.105 . S
Sc24 O25 2.025 . S
Sc24 O34 2.105 . S
Sc24 O36 2.105 . S
Sc24 O40 2.105 . S
Sc24 O42 2.105 . S
O25 Sc22 2.025 . S
O25 Sc23 2.025 . S
O25 Sc24 2.025 . S
C26 O32 1.268 . S
C26 O42 1.268 . S
C27 O33 1.268 . S
C27 O41 1.268 . S
C28 O34 1.268 . S
C28 O43 1.268 . S
C29 O35 1.268 . S
C29 O39 1.268 . S
C30 O36 1.268 . S
C30 O38 1.268 . S
C31 O37 1.268 . S
C31 O40 1.268 . S
O32 Sc22 2.105 . S
O32 C26 1.268 . S
O33 Sc23 2.105 . S
O33 C27 1.268 . S
O34 Sc24 2.105 . S
O34 C28 1.268 . S
O35 Sc22 2.105 . S
O35 C29 1.268 . S
O36 Sc24 2.105 . S
O36 C30 1.268 . S
O37 Sc23 2.105 . S
O37 C31 1.268 . S
O38 Sc22 2.105 . S
O38 C30 1.268 . S
O39 Sc23 2.105 . S
O39 C29 1.268 . S
O40 Sc24 2.105 . S
O40 C31 1.268 . S
O41 Sc22 2.105 . S
O41 C27 1.268 . S
O42 Sc24 2.105 . S
O42 C26 1.268 . S
O43 Sc23 2.105 . S
O43 C28 1.268 . S
Sc44 O47 2.025 . S
Sc44 O54 2.105 1_654 S
Sc44 O57 2.105 . S
Sc44 O60 2.105 . S
Sc44 O63 2.105 1_554 S
Sc45 O47 2.025 1_556 S
Sc45 O55 2.105 . S
Sc45 O59 2.105 1_556 S
Sc45 O61 2.105 1_556 S
Sc45 O65 2.105 . S
Sc46 O47 2.025 . S
Sc46 O56 2.105 1_544 S
Sc46 O58 2.105 1_655 S
Sc46 O62 2.105 1_545 S
Sc46 O64 2.105 1_654 S
O47 Sc44 2.025 . S
O47 Sc45 2.025 1_554 S
O47 Sc46 2.025 . S
C48 O54 1.268 . S
C48 O64 1.268 . S
C49 O55 1.268 . S
C49 O63 1.268 . S
C50 O56 1.268 1_545 S
C50 O65 1.268 . S
C51 O57 1.268 . S
C51 O61 1.268 . S
C52 O58 1.268 1_655 S
C52 O60 1.268 . S
C53 O59 1.268 . S
C53 O62 1.268 1_545 S
O54 Sc44 2.105 1_456 S
O54 C48 1.268 . S
O55 Sc45 2.105 . S
O55 C49 1.268 . S
O56 Sc46 2.105 1_566 S
O56 C50 1.268 1_565 S
O57 Sc44 2.105 . S
O57 C51 1.268 . S
O58 Sc46 2.105 1_455 S
O58 C52 1.268 1_455 S
O59 Sc45 2.105 1_554 S
O59 C53 1.268 . S
O60 Sc44 2.105 . S
O60 C52 1.268 . S
O61 Sc45 2.105 1_554 S
O61 C51 1.268 . S
O62 Sc46 2.105 1_565 S
O62 C53 1.268 1_565 S
O63 Sc44 2.105 1_556 S
O63 C49 1.268 . S
O64 Sc46 2.105 1_456 S
O64 C48 1.268 . S
O65 Sc45 2.105 . S
O65 C50 1.268 . S
Sc66 O69 2.025 . S
Sc66 O76 2.105 . S
Sc66 O79 2.105 . S
Sc66 O82 2.105 . S
Sc66 O85 2.105 . S
Sc67 O69 2.025 . S
Sc67 O77 2.105 . S
Sc67 O81 2.105 . S
Sc67 O83 2.105 . S
Sc67 O87 2.105 . S
Sc68 O69 2.025 . S
Sc68 O78 2.105 . S
Sc68 O80 2.105 . S
Sc68 O84 2.105 . S
Sc68 O86 2.105 . S
O69 Sc66 2.025 . S
O69 Sc67 2.025 . S
O69 Sc68 2.025 . S
C70 O76 1.268 . S
C70 O86 1.268 . S
C71 O77 1.268 . S
C71 O85 1.268 . S
C72 O78 1.268 . S
C72 O87 1.268 . S
C73 O79 1.268 . S
C73 O83 1.268 . S
C74 O80 1.268 . S
C74 O82 1.268 . S
C75 O81 1.268 . S
C75 O84 1.268 . S
O76 Sc66 2.105 . S
O76 C70 1.268 . S
O77 Sc67 2.105 . S
O77 C71 1.268 . S
O78 Sc68 2.105 . S
O78 C72 1.268 . S
O79 Sc66 2.105 . S
O79 C73 1.268 . S
O80 Sc68 2.105 . S
O80 C74 1.268 . S
O81 Sc67 2.105 . S
O81 C75 1.268 . S
O82 Sc66 2.105 . S
O82 C74 1.268 . S
O83 Sc67 2.105 . S
O83 C73 1.268 . S
O84 Sc68 2.105 . S
O84 C75 1.268 . S
O85 Sc66 2.105 . S
O85 C71 1.268 . S
O86 Sc68 2.105 . S
O86 C70 1.268 . S
O87 Sc67 2.105 . S
O87 C72 1.268 . S
H88 C93 0.929 . S
H89 C98 0.931 1_655 S
H90 C96 0.930 . S
N91 N92 1.234 . S
N91 C95 1.453 . S
N92 N91 1.234 . S
C93 H88 0.929 . S
C93 C94 1.373 . S
C93 C95 1.368 . S
C94 C93 1.373 . S
C94 C98 1.397 . S
C95 N91 1.453 . S
C95 C93 1.368 . S
C95 C96 1.373 . S
C96 H90 0.930 . S
C96 C95 1.373 . S
C96 C97 1.371 . S
C97 C96 1.371 . S
C97 C98 1.383 . S
C98 H89 0.931 1_455 S
C98 C94 1.397 . S
C98 C97 1.383 . S
H99 C104 0.929 . S
H100 C109 0.931 . S
H101 C107 0.930 . S
N102 N103 1.234 . S
N102 C106 1.453 . S
N103 N102 1.234 . S
C104 H99 0.929 . S
C104 C105 1.373 . S
C104 C106 1.368 . S
C105 C104 1.373 . S
C105 C109 1.397 . S
C106 N102 1.453 . S
C106 C104 1.368 . S
C106 C107 1.373 . S
C107 H101 0.930 . S
C107 C106 1.373 . S
C107 C108 1.371 . S
C108 C107 1.371 . S
C108 C109 1.383 . S
C109 H100 0.931 . S
C109 C105 1.397 . S
C109 C108 1.383 . S
H110 C115 0.929 . S
H111 C120 0.931 . S
H112 C118 0.930 . S
N113 N114 1.234 . S
N113 C117 1.453 . S
N114 N113 1.234 . S
C115 H110 0.929 . S
C115 C116 1.373 . S
C115 C117 1.368 . S
C116 C115 1.373 . S
C116 C120 1.397 . S
C117 N113 1.453 . S
C117 C115 1.368 . S
C117 C118 1.373 . S
C118 H112 0.930 . S
C118 C117 1.373 . S
C118 C119 1.371 . S
C119 C118 1.371 . S
C119 C120 1.383 . S
C120 H111 0.931 . S
C120 C116 1.397 . S
C120 C119 1.383 . S
H121 C126 0.929 . S
H122 C131 0.931 . S
H123 C129 0.930 . S
N124 N125 1.234 . S
N124 C128 1.453 . S
N125 N124 1.234 . S
C126 H121 0.929 . S
C126 C127 1.373 . S
C126 C128 1.368 . S
C127 C126 1.373 . S
C127 C131 1.397 . S
C128 N124 1.453 . S
C128 C126 1.368 . S
C128 C129 1.373 . S
C129 H123 0.930 . S
C129 C128 1.373 . S
C129 C130 1.371 . S
C130 C129 1.371 . S
C130 C131 1.383 . S
C131 H122 0.931 . S
C131 C127 1.397 . S
C131 C130 1.383 . S
H132 C137 0.929 . S
H133 C142 0.931 . S
H134 C140 0.930 . S
N135 N136 1.234 . S
N135 C139 1.453 . S
N136 N135 1.234 . S
C137 H132 0.929 . S
C137 C138 1.373 . S
C137 C139 1.368 . S
C138 C137 1.373 . S
C138 C142 1.397 . S
C139 N135 1.453 . S
C139 C137 1.368 . S
C139 C140 1.373 . S
C140 H134 0.930 . S
C140 C139 1.373 . S
C140 C141 1.371 . S
C141 C140 1.371 . S
C141 C142 1.383 . S
C142 H133 0.931 . S
C142 C138 1.397 . S
C142 C141 1.383 . S
H143 C148 0.929 . S
H144 C153 0.931 . S
H145 C151 0.930 . S
N146 N147 1.234 . S
N146 C150 1.453 . S
N147 N146 1.234 . S
C148 H143 0.929 . S
C148 C149 1.373 . S
C148 C150 1.368 . S
C149 C148 1.373 . S
C149 C153 1.397 . S
C150 N146 1.453 . S
C150 C148 1.368 . S
C150 C151 1.373 . S
C151 H145 0.930 . S
C151 C150 1.373 . S
C151 C152 1.371 . S
C152 C151 1.371 . S
C152 C153 1.383 . S
C153 H144 0.931 . S
C153 C149 1.397 . S
C153 C152 1.383 . S
H154 C159 0.929 . S
H155 C164 0.931 . S
H156 C162 0.930 . S
N157 N158 1.234 . S
N157 C161 1.453 . S
N158 N157 1.234 . S
C159 H154 0.929 . S
C159 C160 1.373 . S
C159 C161 1.368 . S
C160 C159 1.373 . S
C160 C164 1.397 . S
C161 N157 1.453 . S
C161 C159 1.368 . S
C161 C162 1.373 . S
C162 H156 0.930 . S
C162 C161 1.373 . S
C162 C163 1.371 . S
C163 C162 1.371 . S
C163 C164 1.383 . S
C164 H155 0.931 . S
C164 C160 1.397 . S
C164 C163 1.383 . S
H165 C170 0.929 . S
H166 C175 0.931 1_455 S
H167 C173 0.930 . S
N168 N169 1.234 . S
N168 C172 1.453 . S
N169 N168 1.234 . S
C170 H165 0.929 . S
C170 C171 1.373 . S
C170 C172 1.368 . S
C171 C170 1.373 . S
C171 C175 1.397 . S
C172 N168 1.453 . S
C172 C170 1.368 . S
C172 C173 1.373 . S
C173 H167 0.930 . S
C173 C172 1.373 . S
C173 C174 1.371 . S
C174 C173 1.371 . S
C174 C175 1.383 . S
C175 H166 0.931 1_655 S
C175 C171 1.397 . S
C175 C174 1.383 . S
C8 C97 1.555 . S
C31 C108 1.546 . S
C53 C116 1.380 1_545 S
C130 C74 1.377 . S
C141 C26 1.556 . S
C48 C152 1.377 . S
C71 C160 1.381 . S
C5 C174 1.546 1_455 S
C50 C171 1.379 1_545 S
C138 C70 1.355 . S
C149 C4 1.362 . S
C28 C163 1.393 . S
C105 C73 1.379 . S
C7 C119 1.393 . S
C127 C30 1.361 . S
C94 C52 1.355 1_455 S
N158 C9 1.646 . S
N169 C29 1.569 . S
C51 N136 1.410 . S
N147 C75 1.596 . S
N114 C27 1.646 . S
C49 N125 1.596 . S
N92 C72 1.410 . S
N103 C6 1.569 . S
