# Generated by pormake.
# Topology anh, (6,3)-cn, num edge types: 1
# Building blocks:
#     Node 0, Type 0, BuildingBlock: GEDQOX_clean_sbu_0, # of connection points: 6
#     Node 1, Type 0, BuildingBlock: GEDQOX_clean_sbu_0, # of connection points: 6
#     Node 2, Type 0, BuildingBlock: GEDQOX_clean_sbu_0, # of connection points: 6
#     Node 3, Type 1, BuildingBlock: BETDIP_clean_linker_0, # of connection points: 3
#     Node 4, Type 1, BuildingBlock: BETDIP_clean_linker_0, # of connection points: 3
#     Node 5, Type 1, BuildingBlock: BETDIP_clean_linker_0, # of connection points: 3
#     Node 6, Type 1, BuildingBlock: BETDIP_clean_linker_0, # of connection points: 3
#     Node 7, Type 1, BuildingBlock: BETDIP_clean_linker_0, # of connection points: 3
#     Node 8, Type 1, BuildingBlock: BETDIP_clean_linker_0, # of connection points: 3
#     Edge 9, Type (0, 1), None
#     Edge 10, Type (0, 1), None
#     Edge 11, Type (0, 1), None
#     Edge 12, Type (0, 1), None
#     Edge 13, Type (0, 1), None
#     Edge 14, Type (0, 1), None
#     Edge 15, Type (0, 1), None
#     Edge 16, Type (0, 1), None
#     Edge 17, Type (0, 1), None
#     Edge 18, Type (0, 1), None
#     Edge 19, Type (0, 1), None
#     Edge 20, Type (0, 1), None
#     Edge 21, Type (0, 1), None
#     Edge 22, Type (0, 1), None
#     Edge 23, Type (0, 1), None
#     Edge 24, Type (0, 1), None
#     Edge 25, Type (0, 1), None
#     Edge 26, Type (0, 1), None
# Relax obj value: 0.394
# Max RMSD: 0.293
# Mean RMSD: 0.165
data_MOF--net-anh--node1-GEDQOX_clean_sbu_0--node2-BETDIP_clean_linker_0--edge1-none
_symmetry_space_group_name_H-M    P1
_symmetry_Int_Tables_number       1
_symmetry_cell_setting            triclinic
loop_
_symmetry_equiv_pos_as_xyz
'x, y, z'
_cell_length_a     14.002085
_cell_length_b     13.401235
_cell_length_c     22.929675
_cell_angle_alpha  95.993386
_cell_angle_beta   89.599053
_cell_angle_gamma 85.202856
loop_
_atom_site_label
_atom_site_type_symbol
_atom_site_fract_x
_atom_site_fract_y
_atom_site_fract_z
_atom_type_partial_charge
Nd0 Nd 0.2323 0.749 0.11042 0.0
Nd1 Nd 0.22599 0.52365 0.07741 0.0
C2 C 0.27044 0.93899 0.13451 0.0
C3 C 0.35917 0.99067 0.13709 0.0
C4 C 0.44447 0.94236 0.11127 0.0
C5 C 0.53348 0.96966 0.13217 0.0
C6 C 0.53769 1.04574 0.17889 0.0
C7 C 0.45249 0.10259 0.19884 0.0
C8 C 0.36385 0.07483 0.17832 0.0
C9 C 1.1824 0.6432 0.20057 0.0
C10 C 0.44687 0.60856 0.07855 0.0
C11 C 0.22148 0.32752 0.08409 0.0
C12 C 1.14685 0.26131 0.10039 0.0
C13 C 1.1321 0.24462 0.15941 0.0
C14 C 1.05839 0.18754 0.17546 0.0
C15 C 0.99797 0.1449 0.13283 0.0
C16 C 1.0149 0.15815 0.07368 0.0
C17 C 1.08835 0.21552 0.05763 0.0
C18 C 0.223 0.64437 -0.01309 0.0
C19 C 1.01696 0.66008 0.07781 0.0
O20 O 0.24051 0.90331 0.08315 0.0
O21 O 0.2658 0.87575 0.17387 0.0
O22 O 1.13957 0.72863 0.19012 0.0
O23 O 0.24772 0.6161 0.16292 0.0
O24 O 0.40165 0.6985 0.09771 0.0
O25 O 0.39394 0.53022 0.06623 0.0
O26 O 0.25107 0.39017 0.1264 0.0
O27 O 0.21193 0.36823 0.03464 0.0
O28 O 1.17231 0.56699 -0.01299 0.0
O29 O 0.27404 0.64969 0.03106 0.0
O30 O 1.05926 0.57213 0.09025 0.0
O31 O 1.07248 0.73674 0.0738 0.0
H32 H 0.4424 0.8777 0.07896 0.0
H33 H 0.59798 0.92468 0.11601 0.0
H34 H 0.45393 0.16226 0.23449 0.0
H35 H 0.29902 0.11266 0.19906 0.0
H36 H 1.17695 0.27674 0.19348 0.0
H37 H 1.04829 0.17777 0.2213 0.0
H38 H 0.97 0.12552 0.03975 0.0
H39 H 1.09827 0.22523 0.01174 0.0
Nd40 Nd 0.60515 1.01329 0.4862 0.0
Nd41 Nd 0.80527 1.02112 0.48686 0.0
C42 C 0.42465 0.9773 0.50034 0.0
C43 C 0.36867 0.89687 0.47353 0.0
C44 C 0.40176 0.79501 0.47379 0.0
C45 C 0.35783 0.72068 0.43919 0.0
C46 C 0.2797 0.74673 0.40397 0.0
C47 C 0.2432 0.84809 0.40665 0.0
C48 C 0.28803 0.92237 0.44067 0.0
C49 C 0.67477 1.03853 0.37612 0.0
C50 C 0.73761 0.79474 0.48169 0.0
C51 C 0.98406 0.06005 0.46932 0.0
C52 C 1.02314 0.13024 0.43289 0.0
C53 C 0.96581 0.17051 0.38978 0.0
C54 C 1.00288 0.23398 0.35277 0.0
C55 C 1.09673 0.26118 0.36006 0.0
C56 C 1.15325 0.2237 0.4047 0.0
C57 C 1.1162 0.15874 0.44119 0.0
C58 C 0.73238 1.00965 0.59758 0.0
C59 C 0.67229 0.23514 0.49916 0.0
O60 O 0.49219 0.95109 0.53626 0.0
O61 O 0.45192 1.03917 0.46434 0.0
O62 O 0.59642 0.08322 0.39983 0.0
O63 O 0.71362 0.97774 0.4094 0.0
O64 O 0.6502 0.84051 0.48534 0.0
O65 O 0.81233 0.84788 0.47921 0.0
O66 O 0.94448 0.98555 0.44025 0.0
O67 O 0.93224 0.10165 0.51429 0.0
O68 O 0.80806 0.9562 0.57596 0.0
O69 O 0.69752 0.06606 0.5611 0.0
O70 O 0.75039 0.18789 0.47313 0.0
O71 O 0.609 0.1803 0.52034 0.0
H72 H 0.4645 0.77286 0.49826 0.0
H73 H 0.38862 0.64357 0.43766 0.0
H74 H 1.18222 0.87056 0.38077 0.0
H75 H 0.26303 1.0003 0.43879 0.0
H76 H 0.89179 0.15413 0.38558 0.0
H77 H 0.95719 0.26444 0.31981 0.0
H78 H 0.22542 0.24535 0.41181 0.0
H79 H 1.15929 0.13208 0.47632 0.0
Nd80 Nd 0.56732 0.47721 0.78971 0.0
Nd81 Nd 0.75585 0.48707 0.77876 0.0
C82 C 0.38771 0.53917 0.79208 0.0
C83 C 0.36894 0.6449 0.81692 0.0
C84 C 0.32223 0.71609 0.78382 0.0
C85 C 0.32535 0.8193 0.80092 0.0
C86 C 0.37851 0.85216 0.84988 0.0
C87 C 0.42918 0.7814 0.88103 0.0
C88 C 0.42283 0.67914 0.86554 0.0
C89 C 0.64993 0.50074 0.90061 0.0
C90 C 0.63967 0.70009 0.78089 0.0
C91 C 0.93804 0.50435 0.7839 0.0
C92 C 0.96825 0.60461 0.80131 0.0
C93 C 1.0392 0.64443 0.76963 0.0
C94 C 1.06519 0.74115 0.78763 0.0
C95 C 1.02497 0.79336 0.83952 0.0
C96 C 0.93803 0.76552 0.86023 0.0
C97 C 0.91387 0.66819 0.84432 0.0
C98 C 0.67398 0.48866 0.67082 0.0
C99 C 0.67496 0.25967 0.77191 0.0
O100 O 0.43679 0.52909 0.74295 0.0
O101 O 0.4209 0.47603 0.82847 0.0
O102 O 0.59253 0.43296 0.88327 0.0
O103 O 0.66703 0.54992 0.85823 0.0
O104 O 0.57343 0.63996 0.76498 0.0
O105 O 0.72097 0.65976 0.79886 0.0
O106 O 0.89456 0.4978 0.7338 0.0
O107 O 0.89347 0.46355 0.82474 0.0
O108 O 0.73086 0.5535 0.69226 0.0
O109 O 0.65696 0.4278 0.7076 0.0
O110 O 0.74964 0.31285 0.7836 0.0
O111 O 0.59065 0.30736 0.76476 0.0
H112 H 0.28526 0.69172 0.74421 0.0
H113 H 0.28422 0.87335 0.77704 0.0
H114 H 0.46898 0.80533 0.91965 0.0
H115 H 0.46368 0.62685 0.89047 0.0
H116 H 1.07683 0.5997 0.73312 0.0
H117 H 1.12733 0.76699 0.76759 0.0
H118 H 0.90296 0.80758 0.89856 0.0
H119 H 0.85577 0.64129 0.86804 0.0
H120 H 0.72177 0.07196 0.14642 0.0
H121 H 0.84718 1.0406 0.3159 0.0
H122 H 0.54394 1.03197 0.29352 0.0
H123 H 0.87263 0.05649 0.11368 0.0
C124 C 0.91524 0.08935 0.14886 0.0
C125 C 0.71577 0.06012 0.19216 0.0
C126 C 0.62449 0.04973 0.21555 0.0
C127 C 0.79702 0.05905 0.2286 0.0
C128 C 0.78529 1.04347 0.28816 0.0
C129 C 0.69358 1.03657 0.31221 0.0
C130 C 0.6145 1.03933 0.27539 0.0
N131 N 0.88903 0.08178 0.20847 0.0
H132 H 0.68774 0.407 0.4372 0.0
H133 H 0.68273 0.62156 0.59137 0.0
H134 H 0.6472 0.31177 0.60906 0.0
H135 H 0.82421 0.66088 0.50732 0.0
C136 C 0.75572 0.68448 0.48893 0.0
C137 C 0.68064 0.42424 0.48431 0.0
C138 C 0.66877 0.34531 0.52041 0.0
C139 C 0.68357 0.52583 0.51 0.0
C140 C 0.6779 0.54529 0.57124 0.0
C141 C 0.66518 0.46829 0.60683 0.0
C142 C 0.65684 0.37039 0.58111 0.0
N143 N 0.68934 0.60925 0.47562 0.0
H144 H 1.12745 0.95758 0.86447 0.0
H145 H 0.31268 0.81973 -0.01248 0.0
H146 H 1.08372 0.66212 0.91108 0.0
H147 H 0.41113 1.01055 0.87368 0.0
C148 C 0.35989 0.95554 0.87867 0.0
C149 C 1.1439 0.89783 0.89217 0.0
C150 C 1.09433 0.81155 0.88567 0.0
C151 C 0.22189 0.90192 0.92995 0.0
C152 C 0.24846 0.81918 0.96147 0.0
C153 C 0.19761 0.73255 0.955 0.0
C154 C 1.12089 0.73015 0.91755 0.0
N155 N 0.28777 0.97491 0.92342 0.0
H156 H 0.2524 0.55123 0.41795 0.0
H157 H 1.17288 0.46254 0.24053 0.0
H158 H 0.22696 0.76886 0.29214 0.0
H159 H 1.08782 0.35745 0.28809 0.0
C160 C 1.13118 0.33603 0.32459 0.0
C161 C 0.23701 0.57088 0.37411 0.0
C162 C 0.24269 0.66992 0.36069 0.0
C163 C 0.20936 0.49671 0.33174 0.0
C164 C 1.18994 0.5203 0.27453 0.0
C165 C 0.19394 0.61899 0.26092 0.0
C166 C 0.21946 0.69364 0.30401 0.0
N167 N 0.19979 0.39966 0.34866 0.0
H168 H 0.6726 0.08472 0.83025 0.0
H169 H 0.71733 0.87352 0.67493 0.0
H170 H 0.71048 0.19045 0.66116 0.0
H171 H 0.56247 0.82839 0.74398 0.0
C172 C 0.62353 0.80813 0.77065 0.0
C173 C 0.6854 0.06967 0.7834 0.0
C174 C 0.69058 0.15098 0.74868 0.0
C175 C 0.69352 0.96857 0.75658 0.0
C176 C 0.70942 0.95034 0.69566 0.0
C177 C 0.71447 1.02998 0.66127 0.0
C178 C 0.70497 0.12932 0.68791 0.0
N179 N 0.68522 0.88465 0.78969 0.0
H180 H 0.63605 0.6584 0.12747 0.0
H181 H 0.80051 0.56751 -0.03352 0.0
H182 H 0.49882 0.53094 -0.02763 0.0
H183 H 0.90109 0.70941 0.01723 0.0
C184 C 0.91158 0.66751 0.05505 0.0
C185 C 0.63966 0.62827 0.08178 0.0
C186 C 0.55183 0.59911 0.05324 0.0
C187 C 0.73283 0.61634 0.05104 0.0
C188 C 0.7334 0.57778 -0.00898 0.0
C189 C 0.64955 0.54558 0.96327 0.0
C190 C 0.56203 0.55545 -0.00517 0.0
N191 N 0.8247 0.63327 0.08078 0.0
loop_
_geom_bond_atom_site_label_1
_geom_bond_atom_site_label_2
_geom_bond_distance
_geom_bond_site_symmetry_2
_ccdc_geom_bond_type
Nd0 C2 2.836 . S
Nd0 O20 2.500 . S
Nd0 O21 2.492 . S
Nd0 O22 2.487 . S
Nd0 O23 2.682 . S
Nd0 O24 2.410 . S
Nd0 O29 2.414 . S
Nd0 O31 2.424 1_455 S
Nd1 C11 2.836 1_455 S
Nd1 O23 2.414 . S
Nd1 O25 2.424 . S
Nd1 O26 2.500 1_455 S
Nd1 O27 2.492 1_455 S
Nd1 O28 2.487 1_554 S
Nd1 O29 2.682 . S
Nd1 O30 2.410 1_455 S
C2 Nd0 2.836 . S
C2 C3 1.498 . S
C2 O20 1.258 . S
C2 O21 1.239 . S
C3 C2 1.498 . S
C3 C4 1.366 . S
C3 C8 1.407 . S
C4 C3 1.366 . S
C4 C5 1.392 . S
C4 H32 0.930 . S
C5 C4 1.392 . S
C5 C6 1.398 . S
C5 H33 0.929 . S
C6 C5 1.398 . S
C6 C7 1.352 . S
C7 C6 1.352 . S
C7 C8 1.384 . S
C7 H34 0.930 1_565 S
C8 C3 1.407 . S
C8 C7 1.384 . S
C8 H35 0.929 . S
C9 O22 1.241 . S
C9 O23 1.273 . S
C10 O24 1.251 . S
C10 O25 1.268 . S
C11 Nd1 2.836 1_655 S
C11 C12 1.498 . S
C11 O26 1.258 . S
C11 O27 1.239 . S
C12 C11 1.498 . S
C12 C13 1.366 . S
C12 C17 1.407 . S
C13 C12 1.366 . S
C13 C14 1.392 . S
C13 H36 0.930 . S
C14 C13 1.392 . S
C14 C15 1.398 . S
C14 H37 0.929 . S
C15 C14 1.398 . S
C15 C16 1.352 . S
C16 C15 1.352 . S
C16 C17 1.384 . S
C16 H38 0.930 1_554 S
C17 C12 1.407 . S
C17 C16 1.384 . S
C17 H39 0.926 1_554 S
C18 O28 1.245 1_554 S
C18 O29 1.273 . S
C19 O30 1.251 . S
C19 O31 1.268 . S
O20 Nd0 2.500 . S
O20 C2 1.258 . S
O21 Nd0 2.492 . S
O21 C2 1.239 . S
O22 Nd0 2.487 . S
O22 C9 1.241 . S
O23 Nd0 2.682 . S
O23 Nd1 2.414 . S
O23 C9 1.273 . S
O24 Nd0 2.410 . S
O24 C10 1.251 . S
O25 Nd1 2.424 . S
O25 C10 1.268 . S
O26 Nd1 2.500 1_655 S
O26 C11 1.258 . S
O27 Nd1 2.492 1_655 S
O27 C11 1.239 . S
O28 Nd1 2.487 1_556 S
O28 C18 1.245 1_556 S
O29 Nd0 2.414 . S
O29 Nd1 2.682 . S
O29 C18 1.273 . S
O30 Nd1 2.410 1_655 S
O30 C19 1.251 . S
O31 Nd0 2.424 1_655 S
O31 C19 1.268 . S
H32 C4 0.930 . S
H33 C5 0.929 . S
H34 C7 0.930 1_545 S
H35 C8 0.929 . S
H36 C13 0.930 . S
H37 C14 0.929 . S
H38 C16 0.930 1_556 S
H39 C17 0.926 1_556 S
Nd40 C42 2.836 1_545 S
Nd40 O60 2.500 1_545 S
Nd40 O61 2.492 1_545 S
Nd40 O62 2.487 . S
Nd40 O63 2.682 . S
Nd40 O64 2.410 1_545 S
Nd40 O69 2.414 . S
Nd40 O71 2.424 . S
Nd41 C51 2.836 . S
Nd41 O63 2.414 . S
Nd41 O65 2.424 1_545 S
Nd41 O66 2.500 . S
Nd41 O67 2.492 . S
Nd41 O68 2.487 . S
Nd41 O69 2.682 . S
Nd41 O70 2.410 . S
C42 Nd40 2.836 1_565 S
C42 C43 1.498 . S
C42 O60 1.258 . S
C42 O61 1.239 . S
C43 C42 1.498 . S
C43 C44 1.366 . S
C43 C48 1.407 . S
C44 C43 1.366 . S
C44 C45 1.392 . S
C44 H72 0.930 . S
C45 C44 1.392 . S
C45 C46 1.398 . S
C45 H73 0.929 . S
C46 C45 1.398 . S
C46 C47 1.352 . S
C47 C46 1.352 . S
C47 C48 1.384 . S
C47 H74 0.930 . S
C48 C43 1.407 . S
C48 C47 1.384 . S
C48 H75 0.929 . S
C49 O62 1.241 . S
C49 O63 1.273 . S
C50 O64 1.251 . S
C50 O65 1.268 . S
C51 Nd41 2.836 . S
C51 C52 1.498 . S
C51 O66 1.258 . S
C51 O67 1.239 . S
C52 C51 1.498 . S
C52 C53 1.366 . S
C52 C57 1.407 . S
C53 C52 1.366 . S
C53 C54 1.392 . S
C53 H76 0.930 . S
C54 C53 1.392 . S
C54 C55 1.398 . S
C54 H77 0.929 . S
C55 C54 1.398 . S
C55 C56 1.352 . S
C56 C55 1.352 . S
C56 C57 1.384 . S
C56 H78 0.930 . S
C57 C52 1.407 . S
C57 C56 1.384 . S
C57 H79 0.929 . S
C58 O68 1.241 . S
C58 O69 1.273 . S
C59 O70 1.251 . S
C59 O71 1.268 . S
O60 Nd40 2.500 1_565 S
O60 C42 1.258 . S
O61 Nd40 2.492 1_565 S
O61 C42 1.239 . S
O62 Nd40 2.487 . S
O62 C49 1.241 . S
O63 Nd40 2.682 . S
O63 Nd41 2.414 . S
O63 C49 1.273 . S
O64 Nd40 2.410 1_565 S
O64 C50 1.251 . S
O65 Nd41 2.424 1_565 S
O65 C50 1.268 . S
O66 Nd41 2.500 . S
O66 C51 1.258 . S
O67 Nd41 2.492 . S
O67 C51 1.239 . S
O68 Nd41 2.487 . S
O68 C58 1.241 . S
O69 Nd40 2.414 . S
O69 Nd41 2.682 . S
O69 C58 1.273 . S
O70 Nd41 2.410 . S
O70 C59 1.251 . S
O71 Nd40 2.424 . S
O71 C59 1.268 . S
H72 C44 0.930 . S
H73 C45 0.929 . S
H74 C47 0.930 . S
H75 C48 0.929 . S
H76 C53 0.930 . S
H77 C54 0.929 . S
H78 C56 0.930 . S
H79 C57 0.929 . S
Nd80 C82 2.836 . S
Nd80 O100 2.500 . S
Nd80 O101 2.492 . S
Nd80 O102 2.487 . S
Nd80 O103 2.682 . S
Nd80 O104 2.410 . S
Nd80 O109 2.414 . S
Nd80 O111 2.424 . S
Nd81 C91 2.836 . S
Nd81 O103 2.414 . S
Nd81 O105 2.424 . S
Nd81 O106 2.500 . S
Nd81 O107 2.492 . S
Nd81 O108 2.487 . S
Nd81 O109 2.682 . S
Nd81 O110 2.410 . S
C82 Nd80 2.836 . S
C82 C83 1.498 . S
C82 O100 1.258 . S
C82 O101 1.239 . S
C83 C82 1.498 . S
C83 C84 1.366 . S
C83 C88 1.407 . S
C84 C83 1.366 . S
C84 C85 1.392 . S
C84 H112 0.930 . S
C85 C84 1.392 . S
C85 C86 1.398 . S
C85 H113 0.929 . S
C86 C85 1.398 . S
C86 C87 1.352 . S
C87 C86 1.352 . S
C87 C88 1.384 . S
C87 H114 0.930 . S
C88 C83 1.407 . S
C88 C87 1.384 . S
C88 H115 0.929 . S
C89 O102 1.241 . S
C89 O103 1.273 . S
C90 O104 1.251 . S
C90 O105 1.268 . S
C91 Nd81 2.836 . S
C91 C92 1.498 . S
C91 O106 1.258 . S
C91 O107 1.239 . S
C92 C91 1.498 . S
C92 C93 1.366 . S
C92 C97 1.407 . S
C93 C92 1.366 . S
C93 C94 1.392 . S
C93 H116 0.930 . S
C94 C93 1.392 . S
C94 C95 1.398 . S
C94 H117 0.929 . S
C95 C94 1.398 . S
C95 C96 1.352 . S
C96 C95 1.352 . S
C96 C97 1.384 . S
C96 H118 0.930 . S
C97 C92 1.407 . S
C97 C96 1.384 . S
C97 H119 0.929 . S
C98 O108 1.241 . S
C98 O109 1.273 . S
C99 O110 1.251 . S
C99 O111 1.268 . S
O100 Nd80 2.500 . S
O100 C82 1.258 . S
O101 Nd80 2.492 . S
O101 C82 1.239 . S
O102 Nd80 2.487 . S
O102 C89 1.241 . S
O103 Nd80 2.682 . S
O103 Nd81 2.414 . S
O103 C89 1.273 . S
O104 Nd80 2.410 . S
O104 C90 1.251 . S
O105 Nd81 2.424 . S
O105 C90 1.268 . S
O106 Nd81 2.500 . S
O106 C91 1.258 . S
O107 Nd81 2.492 . S
O107 C91 1.239 . S
O108 Nd81 2.487 . S
O108 C98 1.241 . S
O109 Nd80 2.414 . S
O109 Nd81 2.682 . S
O109 C98 1.273 . S
O110 Nd81 2.410 . S
O110 C99 1.251 . S
O111 Nd80 2.424 . S
O111 C99 1.268 . S
H112 C84 0.930 . S
H113 C85 0.929 . S
H114 C87 0.930 . S
H115 C88 0.929 . S
H116 C93 0.930 . S
H117 C94 0.929 . S
H118 C96 0.930 . S
H119 C97 0.929 . S
H120 C125 0.930 1_565 S
H121 C128 0.930 . S
H122 C130 0.930 . S
H123 C124 1.016 . S
C124 H123 1.016 . S
C124 N131 1.286 . S
C125 H120 0.930 1_545 S
C125 C126 1.397 1_545 S
C125 C127 1.361 . S
C126 C125 1.397 1_565 S
C126 C130 1.390 . S
C127 C125 1.361 . S
C127 C128 1.393 . S
C127 N131 1.413 . S
C128 H121 0.930 . S
C128 C127 1.393 . S
C128 C129 1.399 . S
C129 C128 1.399 . S
C129 C130 1.381 1_545 S
C130 H122 0.930 . S
C130 C126 1.390 . S
C130 C129 1.381 1_565 S
N131 C124 1.286 . S
N131 C127 1.413 . S
H132 C137 0.930 . S
H133 C140 0.930 . S
H134 C142 0.930 . S
H135 C136 1.016 . S
C136 H135 1.016 . S
C136 N143 1.286 . S
C137 H132 0.930 . S
C137 C138 1.397 . S
C137 C139 1.361 . S
C138 C137 1.397 . S
C138 C142 1.390 . S
C139 C137 1.361 . S
C139 C140 1.393 . S
C139 N143 1.413 . S
C140 H133 0.930 . S
C140 C139 1.393 . S
C140 C141 1.399 . S
C141 C140 1.399 . S
C141 C142 1.381 . S
C142 H134 0.930 . S
C142 C138 1.390 . S
C142 C141 1.381 . S
N143 C136 1.286 . S
N143 C139 1.413 . S
H144 C149 0.930 . S
H145 C152 0.930 1_554 S
H146 C154 0.937 . S
H147 C148 1.016 . S
C148 H147 1.016 . S
C148 N155 1.286 . S
C149 H144 0.930 . S
C149 C150 1.397 . S
C149 C151 1.361 1_655 S
C150 C149 1.397 . S
C150 C154 1.378 1_556 S
C151 C149 1.361 1_455 S
C151 C152 1.393 . S
C151 N155 1.413 . S
C152 H145 0.930 1_556 S
C152 C151 1.393 . S
C152 C153 1.399 1_456 S
C153 C152 1.399 1_654 S
C153 C154 1.386 . S
C154 H146 0.937 . S
C154 C150 1.378 1_554 S
C154 C153 1.386 . S
N155 C148 1.286 . S
N155 C151 1.413 . S
H156 C161 0.930 . S
H157 C164 0.930 . S
H158 C166 0.930 . S
H159 C160 1.016 . S
C160 H159 1.016 . S
C160 N167 1.286 . S
C161 H156 0.930 . S
C161 C162 1.397 . S
C161 C163 1.361 . S
C162 C161 1.397 . S
C162 C166 1.390 . S
C163 C161 1.361 . S
C163 C164 1.393 1_455 S
C163 N167 1.413 1_455 S
C164 H157 0.930 . S
C164 C163 1.393 1_655 S
C164 C165 1.399 1_655 S
C165 C164 1.399 1_455 S
C165 C166 1.381 . S
C166 H158 0.930 . S
C166 C162 1.390 . S
C166 C165 1.381 . S
N167 C160 1.286 . S
N167 C163 1.413 1_655 S
H168 C173 0.930 . S
H169 C176 0.930 . S
H170 C178 0.930 . S
H171 C172 1.016 . S
C172 H171 1.016 . S
C172 N179 1.286 . S
C173 H168 0.930 . S
C173 C174 1.397 . S
C173 C175 1.361 1_545 S
C174 C173 1.397 . S
C174 C178 1.390 . S
C175 C173 1.361 1_565 S
C175 C176 1.393 . S
C175 N179 1.413 . S
C176 H169 0.930 . S
C176 C175 1.393 . S
C176 C177 1.399 1_565 S
C177 C176 1.399 1_545 S
C177 C178 1.381 . S
C178 H170 0.930 . S
C178 C174 1.390 . S
C178 C177 1.381 . S
N179 C172 1.286 . S
N179 C175 1.413 . S
H180 C185 0.930 . S
H181 C188 0.930 . S
H182 C190 0.930 . S
H183 C184 1.016 . S
C184 H183 1.016 . S
C184 N191 1.286 . S
C185 H180 0.930 . S
C185 C186 1.397 . S
C185 C187 1.361 . S
C186 C185 1.397 . S
C186 C190 1.390 . S
C187 C185 1.361 . S
C187 C188 1.393 . S
C187 N191 1.413 . S
C188 H181 0.930 . S
C188 C187 1.393 . S
C188 C189 1.399 . S
C189 C188 1.399 . S
C189 C190 1.381 . S
C190 H182 0.930 . S
C190 C186 1.390 . S
C190 C189 1.381 . S
N191 C184 1.286 . S
N191 C187 1.413 . S
C10 C186 5.058 . S
C55 C160 2.363 . S
C90 C172 2.485 . S
C19 C184 4.486 . S
C162 C46 2.171 . S
C174 C99 2.602 . S
C50 C136 2.359 . S
C95 C150 4.708 . S
C6 C126 1.807 . S
C138 C59 2.396 . S
C148 C86 2.667 . S
C15 C124 3.339 . S
C153 C18 1.575 1_655 S
C49 C129 1.380 . S
C98 C141 1.207 . S
C177 C58 1.109 . S
C189 C89 2.057 1_554 S
C9 C165 1.425 . S
