# Generated by pormake.
# Topology anh, (6,3)-cn, num edge types: 1
# Building blocks:
#     Node 0, Type 0, BuildingBlock: BETDEL_clean_sbu_0, # of connection points: 6
#     Node 1, Type 0, BuildingBlock: BETDEL_clean_sbu_0, # of connection points: 6
#     Node 2, Type 0, BuildingBlock: BETDEL_clean_sbu_0, # of connection points: 6
#     Node 3, Type 1, BuildingBlock: BETDAH_clean_linker_0, # of connection points: 3
#     Node 4, Type 1, BuildingBlock: BETDAH_clean_linker_0, # of connection points: 3
#     Node 5, Type 1, BuildingBlock: BETDAH_clean_linker_0, # of connection points: 3
#     Node 6, Type 1, BuildingBlock: BETDAH_clean_linker_0, # of connection points: 3
#     Node 7, Type 1, BuildingBlock: BETDAH_clean_linker_0, # of connection points: 3
#     Node 8, Type 1, BuildingBlock: BETDAH_clean_linker_0, # of connection points: 3
#     Edge 9, Type (0, 1), BuildingBlock: EYOCIG_clean_linker_4, # of connection points: 2
#     Edge 10, Type (0, 1), BuildingBlock: EYOCIG_clean_linker_4, # of connection points: 2
#     Edge 11, Type (0, 1), BuildingBlock: EYOCIG_clean_linker_4, # of connection points: 2
#     Edge 12, Type (0, 1), BuildingBlock: EYOCIG_clean_linker_4, # of connection points: 2
#     Edge 13, Type (0, 1), BuildingBlock: EYOCIG_clean_linker_4, # of connection points: 2
#     Edge 14, Type (0, 1), BuildingBlock: EYOCIG_clean_linker_4, # of connection points: 2
#     Edge 15, Type (0, 1), BuildingBlock: EYOCIG_clean_linker_4, # of connection points: 2
#     Edge 16, Type (0, 1), BuildingBlock: EYOCIG_clean_linker_4, # of connection points: 2
#     Edge 17, Type (0, 1), BuildingBlock: EYOCIG_clean_linker_4, # of connection points: 2
#     Edge 18, Type (0, 1), BuildingBlock: EYOCIG_clean_linker_4, # of connection points: 2
#     Edge 19, Type (0, 1), BuildingBlock: EYOCIG_clean_linker_4, # of connection points: 2
#     Edge 20, Type (0, 1), BuildingBlock: EYOCIG_clean_linker_4, # of connection points: 2
#     Edge 21, Type (0, 1), BuildingBlock: EYOCIG_clean_linker_4, # of connection points: 2
#     Edge 22, Type (0, 1), BuildingBlock: EYOCIG_clean_linker_4, # of connection points: 2
#     Edge 23, Type (0, 1), BuildingBlock: EYOCIG_clean_linker_4, # of connection points: 2
#     Edge 24, Type (0, 1), BuildingBlock: EYOCIG_clean_linker_4, # of connection points: 2
#     Edge 25, Type (0, 1), BuildingBlock: EYOCIG_clean_linker_4, # of connection points: 2
#     Edge 26, Type (0, 1), BuildingBlock: EYOCIG_clean_linker_4, # of connection points: 2
# Relax obj value: 0.106
# Max RMSD: 0.134
# Mean RMSD: 0.100
data_MOF--net-anh--node1-BETDEL_clean_sbu_0--node2-BETDAH_clean_linker_0--edge1-EYOCIG_clean_linker_4
_symmetry_space_group_name_H-M    P1
_symmetry_Int_Tables_number       1
_symmetry_cell_setting            triclinic
loop_
_symmetry_equiv_pos_as_xyz
'x, y, z'
_cell_length_a     23.97799
_cell_length_b     24.098456
_cell_length_c     36.85893
_cell_angle_alpha  91.667888
_cell_angle_beta   92.142086
_cell_angle_gamma 119.77276
loop_
_atom_site_label
_atom_site_type_symbol
_atom_site_fract_x
_atom_site_fract_y
_atom_site_fract_z
_atom_type_partial_charge
Dy0 Dy 0.09506 0.5195 0.17134 0.0
C1 C 0.92688 0.60314 0.18071 0.0
C2 C 0.19396 0.50104 0.16129 0.0
Dy3 Dy 1.02037 0.57827 0.16465 0.0
O4 O 0.1635 0.48856 0.19089 0.0
O5 O 0.16713 0.51793 0.13628 0.0
O6 O 0.06447 0.49009 0.22698 0.0
O7 O 0.08011 0.57993 0.21019 0.0
C8 C 0.06103 0.5409 0.23502 0.0
C9 C 0.05207 0.55515 0.09974 0.0
O10 O 0.11358 0.6726 0.17387 0.0
O11 O 0.17418 0.62361 0.16821 0.0
O12 O 0.95361 0.61404 0.14982 0.0
O13 O 0.95306 0.58153 0.20315 0.0
O14 O 0.0481 0.60565 0.10811 0.0
O15 O 0.03461 0.51696 0.1252 0.0
O16 O 1.00238 0.42464 0.1649 0.0
O17 O 0.94204 0.47417 0.17076 0.0
C18 C 0.17038 0.67646 0.17147 0.0
C19 C 0.94597 0.42111 0.16882 0.0
Dy20 Dy 0.43997 1.00477 0.50367 0.0
C21 C 0.70567 0.18267 0.52318 0.0
C22 C 0.31866 0.91498 0.48847 0.0
Dy23 Dy 0.59127 0.08621 0.50023 0.0
O24 O 0.33664 0.95904 0.51433 0.0
O25 O 0.36592 0.92333 0.46903 0.0
O26 O 0.43749 0.99986 0.56536 0.0
O27 O 0.52229 0.04549 0.53957 0.0
C28 C 0.49964 0.03127 0.57 0.0
C29 C 0.53685 0.05855 0.43242 0.0
O30 O 0.58328 0.99006 0.50992 0.0
O31 O 0.47079 0.92846 0.50293 0.0
O32 O 0.69631 0.14444 0.4951 0.0
O33 O 0.65419 0.1632 0.54082 0.0
O34 O 0.59855 0.08982 0.4397 0.0
O35 O 0.50853 0.04358 0.46182 0.0
O36 O 0.44887 0.10258 0.49818 0.0
O37 O 0.56114 0.16254 0.50344 0.0
C38 C 0.52883 0.93358 0.50767 0.0
C39 C 0.50367 0.15864 0.50136 0.0
Dy40 Dy 0.63485 0.604 0.83924 0.0
C41 C 0.54043 0.33762 0.84989 0.0
C42 C 0.65671 0.71992 0.82589 0.0
Dy43 Dy 0.56429 0.4515 0.82901 0.0
O44 O 0.68216 0.70771 0.85403 0.0
O45 O 0.62546 0.67054 0.80341 0.0
O46 O 0.63698 0.61089 0.90088 0.0
O47 O 0.59527 0.52396 0.87137 0.0
C48 C 0.60609 0.5492 0.90285 0.0
C49 C 0.58496 0.50466 0.76398 0.0
O50 O 0.47681 0.46075 0.83905 0.0
O51 O 0.52756 0.57267 0.83846 0.0
O52 O 0.52003 0.34678 0.8187 0.0
O53 O 0.57031 0.38982 0.87024 0.0
O54 O 0.55507 0.44314 0.76737 0.0
O55 O 0.60167 0.53185 0.7954 0.0
O56 O 0.72328 0.59382 0.83408 0.0
O57 O 0.67105 0.4817 0.83342 0.0
C58 C 0.475 0.51519 0.8401 0.0
C59 C 0.72439 0.53897 0.8345 0.0
H60 H 0.42603 0.93406 0.25391 0.0
H61 H 0.61016 0.10355 0.24488 0.0
H62 H 0.5047 0.98334 0.14906 0.0
C63 C 0.46429 0.96561 0.23712 0.0
C64 C 0.45811 0.95164 0.19967 0.0
C65 C 0.51825 0.01987 0.2534 0.0
C66 C 0.56857 0.06168 0.23205 0.0
C67 C 0.56454 0.04912 0.19407 0.0
C68 C 0.50873 0.99352 0.17816 0.0
N69 N 0.61427 0.0903 0.1709 0.0
C70 C 0.67219 0.14868 0.17952 0.0
H71 H 0.54317 0.43205 0.5894 0.0
H72 H 0.55221 0.6136 0.57739 0.0
H73 H 0.51427 0.48642 0.48306 0.0
C74 C 0.54024 0.46612 0.57194 0.0
C75 C 0.52739 0.45112 0.53436 0.0
C76 C 0.54937 0.52435 0.58744 0.0
C77 C 0.5453 0.569 0.56521 0.0
C78 C 0.53254 0.55613 0.52735 0.0
C79 C 0.52393 0.49685 0.51214 0.0
N80 N 0.52817 0.60091 0.50383 0.0
C81 C 0.5321 0.66041 0.51297 0.0
H82 H 0.97704 0.53235 0.92331 0.0
H83 H 0.14792 0.51905 0.91077 0.0
H84 H 0.03712 0.52092 0.81608 0.0
C85 C 1.01046 0.52878 0.90564 0.0
C86 C 1.0001 0.5273 0.86787 0.0
C87 C 0.06317 0.52552 0.92103 0.0
C88 C 0.10732 0.52132 0.89859 0.0
C89 C 0.09863 0.51966 0.86048 0.0
C90 C 0.04444 0.5224 0.84535 0.0
N91 N 0.14248 0.515 0.83662 0.0
C92 C 0.19985 0.51418 0.84579 0.0
H93 H 0.1157 0.65475 0.40865 0.0
H94 H 0.97412 0.45693 0.41897 0.0
H95 H 0.09208 0.57178 0.51244 0.0
C96 C 0.09135 0.61361 0.42513 0.0
C97 C 0.10784 0.61906 0.46221 0.0
C98 C 0.04316 0.5552 0.40944 0.0
C99 C 1.01172 0.5026 0.43093 0.0
C100 C 0.03127 0.50893 0.46796 0.0
C101 C 0.07913 0.56694 0.48352 0.0
N102 N 1.00174 0.45795 0.49056 0.0
C103 C 0.93703 0.43085 0.49463 0.0
H104 H 0.57386 0.14046 0.7468 0.0
H105 H 0.63526 0.99999 0.74771 0.0
H106 H 0.65434 0.11083 0.84544 0.0
C107 C 0.59469 0.11565 0.76104 0.0
C108 C 0.61236 0.12934 0.79812 0.0
C109 C 0.60379 0.06959 0.74254 0.0
C110 C 0.62913 0.03674 0.76156 0.0
C111 C 0.64882 0.05363 0.79856 0.0
C112 C 0.64069 0.09981 0.81659 0.0
N113 N 0.675 0.02315 0.81881 0.0
C114 C 0.63827 0.95879 0.82292 0.0
H115 H 0.67211 0.52925 0.07741 0.0
H116 H 0.47215 0.47388 0.08389 0.0
H117 H 0.58662 0.49216 0.18068 0.0
C118 C 0.63027 0.51545 0.09318 0.0
C119 C 0.63533 0.51321 0.13088 0.0
C120 C 0.57105 0.50012 0.076 0.0
C121 C 0.51796 0.48446 0.09683 0.0
C122 C 0.52405 0.48016 0.1346 0.0
C123 C 0.58229 0.49395 0.15136 0.0
N124 N 0.47268 0.46395 0.15673 0.0
C125 C 0.44471 0.50153 0.15787 0.0
C126 C 0.31508 0.53712 0.16097 0.0
C127 C 0.25954 0.5204 0.16145 0.0
C128 C 0.37588 0.54477 0.16 0.0
C129 C 0.41596 0.5298 0.1589 0.0
C130 C 0.78219 0.30343 0.5165 0.0
C131 C 0.74612 0.24875 0.52104 0.0
C132 C 0.82227 0.35507 0.50895 0.0
C133 C 0.88131 0.40325 0.49972 0.0
C134 C 0.61688 0.80153 0.8291 0.0
C135 C 0.63639 0.76503 0.82869 0.0
C136 C 0.60318 0.84238 0.82864 0.0
C137 C 0.6114 0.90275 0.82613 0.0
C138 C 0.80793 0.57391 0.17904 0.0
C139 C 0.86228 0.58646 0.1829 0.0
C140 C 0.74575 0.55192 0.16538 0.0
C141 C 0.69541 0.53429 0.14944 0.0
C142 C 0.22871 0.79824 0.49257 0.0
C143 C 0.26786 0.85317 0.49267 0.0
C144 C 0.18801 0.7332 0.48831 0.0
C145 C 0.15121 0.6794 0.47878 0.0
C146 C 0.5694 0.24836 0.84943 0.0
C147 C 0.55798 0.29058 0.853 0.0
C148 C 0.58682 0.20612 0.83519 0.0
C149 C 0.59855 0.17099 0.81829 0.0
C150 C 0.53365 0.82384 0.51302 0.0
C151 C 0.53231 0.87413 0.51064 0.0
C152 C 0.53414 0.76377 0.51518 0.0
C153 C 0.53367 0.71234 0.51546 0.0
C154 C 0.83695 0.53861 0.84096 0.0
C155 C 0.78677 0.54071 0.83802 0.0
C156 C 0.89504 0.53458 0.84646 0.0
C157 C 0.94364 0.53104 0.85362 0.0
C158 C 0.28287 0.78849 0.17565 0.0
C159 C 0.23048 0.73882 0.17388 0.0
C160 C 0.34561 0.84591 0.17913 0.0
C161 C 0.39825 0.89456 0.18503 0.0
C162 C 0.50515 0.27202 0.5073 0.0
C163 C 0.50199 0.21934 0.50447 0.0
C164 C 0.51142 0.33512 0.51285 0.0
C165 C 0.51793 0.38846 0.52006 0.0
C166 C 0.3614 0.51191 0.84599 0.0
C167 C 0.41258 0.51242 0.84332 0.0
C168 C 0.30143 0.51243 0.84831 0.0
C169 C 0.25062 0.51327 0.84851 0.0
C170 C 0.83621 0.30819 0.17519 0.0
C171 C 0.887 0.35862 0.1722 0.0
C172 C 0.78494 0.25834 0.17839 0.0
C173 C 0.72393 0.19937 0.18096 0.0
C174 C 0.06607 0.53136 0.03118 0.0
C175 C 0.05924 0.5386 0.06299 0.0
C176 C 0.0709 0.52751 0.99306 0.0
C177 C 0.07072 0.52634 0.96022 0.0
C178 C 0.50549 0.0346 0.36271 0.0
C179 C 0.50963 0.04027 0.3956 0.0
C180 C 0.51258 0.03344 0.32463 0.0
C181 C 0.51928 0.03114 0.29231 0.0
C182 C 0.58396 0.54287 0.69762 0.0
C183 C 0.58829 0.5331 0.72946 0.0
C184 C 0.57363 0.54327 0.65928 0.0
C185 C 0.56277 0.5374 0.62653 0.0
C186 C 0.55673 0.05003 0.63494 0.0
C187 C 0.53487 0.04376 0.60424 0.0
C188 C 0.57558 0.05385 0.67194 0.0
C189 C 0.58933 0.05875 0.70403 0.0
C190 C 0.5744 0.50379 0.96695 0.0
C191 C 0.58566 0.51762 0.93597 0.0
C192 C 0.5667 0.49862 0.00454 0.0
C193 C 0.5653 0.49839 0.03709 0.0
C194 C 0.03414 0.55627 0.30119 0.0
C195 C 0.04701 0.55441 0.27025 0.0
C196 C 0.02673 0.55243 0.33867 0.0
C197 C 0.03078 0.54938 0.37095 0.0
loop_
_geom_bond_atom_site_label_1
_geom_bond_atom_site_label_2
_geom_bond_distance
_geom_bond_site_symmetry_2
_ccdc_geom_bond_type
Dy0 O4 2.398 . S
Dy0 O5 2.491 . S
Dy0 O6 2.403 . S
Dy0 O7 2.664 . S
Dy0 O11 2.326 . S
Dy0 O15 2.310 . S
Dy0 O16 2.351 1_455 S
C1 O12 1.185 . S
C1 O13 1.355 . S
C2 O4 1.185 . S
C2 O5 1.355 . S
Dy3 O7 2.310 1_655 S
Dy3 O10 2.351 1_655 S
Dy3 O12 2.398 . S
Dy3 O13 2.491 . S
Dy3 O14 2.403 . S
Dy3 O15 2.664 1_655 S
Dy3 O17 2.326 . S
O4 Dy0 2.398 . S
O4 C2 1.185 . S
O5 Dy0 2.491 . S
O5 C2 1.355 . S
O6 Dy0 2.403 . S
O6 C8 1.254 . S
O7 Dy0 2.664 . S
O7 Dy3 2.310 1_455 S
O7 C8 1.268 . S
C8 O6 1.254 . S
C8 O7 1.268 . S
C9 O14 1.254 1_455 S
C9 O15 1.268 . S
O10 Dy3 2.351 1_455 S
O10 C18 1.249 . S
O11 Dy0 2.326 . S
O11 C18 1.267 . S
O12 C1 1.185 . S
O12 Dy3 2.398 . S
O13 C1 1.355 . S
O13 Dy3 2.491 . S
O14 Dy3 2.403 . S
O14 C9 1.254 1_655 S
O15 Dy0 2.310 . S
O15 Dy3 2.664 1_455 S
O15 C9 1.268 . S
O16 Dy0 2.351 1_655 S
O16 C19 1.249 . S
O17 Dy3 2.326 . S
O17 C19 1.267 . S
C18 O10 1.249 . S
C18 O11 1.267 . S
C19 O16 1.249 . S
C19 O17 1.267 . S
Dy20 O24 2.398 . S
Dy20 O25 2.491 . S
Dy20 O26 2.403 . S
Dy20 O27 2.664 1_565 S
Dy20 O31 2.326 . S
Dy20 O35 2.310 1_565 S
Dy20 O36 2.351 1_565 S
C21 O32 1.185 . S
C21 O33 1.355 . S
C22 O24 1.185 . S
C22 O25 1.355 . S
Dy23 O27 2.310 . S
Dy23 O30 2.351 1_545 S
Dy23 O32 2.398 . S
Dy23 O33 2.491 . S
Dy23 O34 2.403 . S
Dy23 O35 2.664 . S
Dy23 O37 2.326 . S
O24 Dy20 2.398 . S
O24 C22 1.185 . S
O25 Dy20 2.491 . S
O25 C22 1.355 . S
O26 Dy20 2.403 . S
O26 C28 1.254 1_565 S
O27 Dy20 2.664 1_545 S
O27 Dy23 2.310 . S
O27 C28 1.268 . S
C28 O26 1.254 1_545 S
C28 O27 1.268 . S
C29 O34 1.254 . S
C29 O35 1.268 . S
O30 Dy23 2.351 1_565 S
O30 C38 1.249 . S
O31 Dy20 2.326 . S
O31 C38 1.267 . S
O32 C21 1.185 . S
O32 Dy23 2.398 . S
O33 C21 1.355 . S
O33 Dy23 2.491 . S
O34 Dy23 2.403 . S
O34 C29 1.254 . S
O35 Dy20 2.310 1_545 S
O35 Dy23 2.664 . S
O35 C29 1.268 . S
O36 Dy20 2.351 1_545 S
O36 C39 1.249 . S
O37 Dy23 2.326 . S
O37 C39 1.267 . S
C38 O30 1.249 . S
C38 O31 1.267 . S
C39 O36 1.249 . S
C39 O37 1.267 . S
Dy40 O44 2.398 . S
Dy40 O45 2.491 . S
Dy40 O46 2.403 . S
Dy40 O47 2.664 . S
Dy40 O51 2.326 . S
Dy40 O55 2.310 . S
Dy40 O56 2.351 . S
C41 O52 1.185 . S
C41 O53 1.355 . S
C42 O44 1.185 . S
C42 O45 1.355 . S
Dy43 O47 2.310 . S
Dy43 O50 2.351 . S
Dy43 O52 2.398 . S
Dy43 O53 2.491 . S
Dy43 O54 2.403 . S
Dy43 O55 2.664 . S
Dy43 O57 2.326 . S
O44 Dy40 2.398 . S
O44 C42 1.185 . S
O45 Dy40 2.491 . S
O45 C42 1.355 . S
O46 Dy40 2.403 . S
O46 C48 1.254 . S
O47 Dy40 2.664 . S
O47 Dy43 2.310 . S
O47 C48 1.268 . S
C48 O46 1.254 . S
C48 O47 1.268 . S
C49 O54 1.254 . S
C49 O55 1.268 . S
O50 Dy43 2.351 . S
O50 C58 1.249 . S
O51 Dy40 2.326 . S
O51 C58 1.267 . S
O52 C41 1.185 . S
O52 Dy43 2.398 . S
O53 C41 1.355 . S
O53 Dy43 2.491 . S
O54 Dy43 2.403 . S
O54 C49 1.254 . S
O55 Dy40 2.310 . S
O55 Dy43 2.664 . S
O55 C49 1.268 . S
O56 Dy40 2.351 . S
O56 C59 1.249 . S
O57 Dy43 2.326 . S
O57 C59 1.267 . S
C58 O50 1.249 . S
C58 O51 1.267 . S
C59 O56 1.249 . S
C59 O57 1.267 . S
H60 C63 0.929 . S
H61 C66 0.929 . S
H62 C68 0.930 . S
C63 H60 0.929 . S
C63 C64 1.398 . S
C63 C65 1.396 1_565 S
C64 C63 1.398 . S
C64 C68 1.407 . S
C65 C63 1.396 1_545 S
C65 C66 1.394 . S
C66 H61 0.929 . S
C66 C65 1.394 . S
C66 C67 1.382 . S
C67 C66 1.382 . S
C67 C68 1.392 1_545 S
C67 N69 1.420 . S
C68 H62 0.930 . S
C68 C64 1.407 . S
C68 C67 1.392 1_565 S
N69 C67 1.420 . S
N69 C70 1.244 . S
C70 N69 1.244 . S
H71 C74 0.929 . S
H72 C77 0.929 . S
H73 C79 0.930 . S
C74 H71 0.929 . S
C74 C75 1.398 . S
C74 C76 1.396 . S
C75 C74 1.398 . S
C75 C79 1.407 . S
C76 C74 1.396 . S
C76 C77 1.394 . S
C77 H72 0.929 . S
C77 C76 1.394 . S
C77 C78 1.382 . S
C78 C77 1.382 . S
C78 C79 1.392 . S
C78 N80 1.420 . S
C79 H73 0.930 . S
C79 C75 1.407 . S
C79 C78 1.392 . S
N80 C78 1.420 . S
N80 C81 1.244 . S
C81 N80 1.244 . S
H82 C85 0.929 . S
H83 C88 0.929 . S
H84 C90 0.930 . S
C85 H82 0.929 . S
C85 C86 1.398 . S
C85 C87 1.396 1_655 S
C86 C85 1.398 . S
C86 C90 1.407 1_655 S
C87 C85 1.396 1_455 S
C87 C88 1.394 . S
C88 H83 0.929 . S
C88 C87 1.394 . S
C88 C89 1.382 . S
C89 C88 1.382 . S
C89 C90 1.392 . S
C89 N91 1.420 . S
C90 H84 0.930 . S
C90 C86 1.407 1_455 S
C90 C89 1.392 . S
N91 C89 1.420 . S
N91 C92 1.244 . S
C92 N91 1.244 . S
H93 C96 0.929 . S
H94 C99 0.929 . S
H95 C101 0.930 . S
C96 H93 0.929 . S
C96 C97 1.398 . S
C96 C98 1.396 . S
C97 C96 1.398 . S
C97 C101 1.407 . S
C98 C96 1.396 . S
C98 C99 1.394 1_455 S
C99 H94 0.929 . S
C99 C98 1.394 1_655 S
C99 C100 1.382 . S
C100 C99 1.382 . S
C100 C101 1.392 1_655 S
C100 N102 1.420 . S
C101 H95 0.930 . S
C101 C97 1.407 . S
C101 C100 1.392 1_455 S
N102 C100 1.420 . S
N102 C103 1.244 . S
C103 N102 1.244 . S
H104 C107 0.929 . S
H105 C110 0.929 1_565 S
H106 C112 0.930 . S
C107 H104 0.929 . S
C107 C108 1.398 . S
C107 C109 1.396 . S
C108 C107 1.398 . S
C108 C112 1.407 . S
C109 C107 1.396 . S
C109 C110 1.394 . S
C110 H105 0.929 1_545 S
C110 C109 1.394 . S
C110 C111 1.382 . S
C111 C110 1.382 . S
C111 C112 1.392 . S
C111 N113 1.420 1_545 S
C112 H106 0.930 . S
C112 C108 1.407 . S
C112 C111 1.392 . S
N113 C111 1.420 1_565 S
N113 C114 1.244 . S
C114 N113 1.244 . S
H115 C118 0.929 . S
H116 C121 0.929 . S
H117 C123 0.930 . S
C118 H115 0.929 . S
C118 C119 1.398 . S
C118 C120 1.396 . S
C119 C118 1.398 . S
C119 C123 1.407 . S
C120 C118 1.396 . S
C120 C121 1.394 . S
C121 H116 0.929 . S
C121 C120 1.394 . S
C121 C122 1.382 . S
C122 C121 1.382 . S
C122 C123 1.392 . S
C122 N124 1.420 . S
C123 H117 0.930 . S
C123 C119 1.407 . S
C123 C122 1.392 . S
N124 C122 1.420 . S
N124 C125 1.244 . S
C125 N124 1.244 . S
C126 C127 1.170 . S
C126 C128 1.380 . S
C127 C126 1.170 . S
C128 C126 1.380 . S
C128 C129 1.170 . S
C129 C128 1.170 . S
C130 C131 1.170 . S
C130 C132 1.380 . S
C131 C130 1.170 . S
C132 C130 1.380 . S
C132 C133 1.170 . S
C133 C132 1.170 . S
C134 C135 1.170 . S
C134 C136 1.380 . S
C135 C134 1.170 . S
C136 C134 1.380 . S
C136 C137 1.170 . S
C137 C136 1.170 . S
C138 C139 1.170 . S
C138 C140 1.380 . S
C139 C138 1.170 . S
C140 C138 1.380 . S
C140 C141 1.170 . S
C141 C140 1.170 . S
C142 C143 1.170 . S
C142 C144 1.380 . S
C143 C142 1.170 . S
C144 C142 1.380 . S
C144 C145 1.170 . S
C145 C144 1.170 . S
C146 C147 1.170 . S
C146 C148 1.380 . S
C147 C146 1.170 . S
C148 C146 1.380 . S
C148 C149 1.170 . S
C149 C148 1.170 . S
C150 C151 1.170 . S
C150 C152 1.380 . S
C151 C150 1.170 . S
C152 C150 1.380 . S
C152 C153 1.170 . S
C153 C152 1.170 . S
C154 C155 1.170 . S
C154 C156 1.380 . S
C155 C154 1.170 . S
C156 C154 1.380 . S
C156 C157 1.170 . S
C157 C156 1.170 . S
C158 C159 1.170 . S
C158 C160 1.380 . S
C159 C158 1.170 . S
C160 C158 1.380 . S
C160 C161 1.170 . S
C161 C160 1.170 . S
C162 C163 1.170 . S
C162 C164 1.380 . S
C163 C162 1.170 . S
C164 C162 1.380 . S
C164 C165 1.170 . S
C165 C164 1.170 . S
C166 C167 1.170 . S
C166 C168 1.380 . S
C167 C166 1.170 . S
C168 C166 1.380 . S
C168 C169 1.170 . S
C169 C168 1.170 . S
C170 C171 1.170 . S
C170 C172 1.380 . S
C171 C170 1.170 . S
C172 C170 1.380 . S
C172 C173 1.170 . S
C173 C172 1.170 . S
C174 C175 1.170 . S
C174 C176 1.380 1_554 S
C175 C174 1.170 . S
C176 C174 1.380 1_556 S
C176 C177 1.170 . S
C177 C176 1.170 . S
C178 C179 1.170 . S
C178 C180 1.380 . S
C179 C178 1.170 . S
C180 C178 1.380 . S
C180 C181 1.170 . S
C181 C180 1.170 . S
C182 C183 1.170 . S
C182 C184 1.380 . S
C183 C182 1.170 . S
C184 C182 1.380 . S
C184 C185 1.170 . S
C185 C184 1.170 . S
C186 C187 1.170 . S
C186 C188 1.380 . S
C187 C186 1.170 . S
C188 C186 1.380 . S
C188 C189 1.170 . S
C189 C188 1.170 . S
C190 C191 1.170 . S
C190 C192 1.380 1_556 S
C191 C190 1.170 . S
C192 C190 1.380 1_554 S
C192 C193 1.170 . S
C193 C192 1.170 . S
C194 C195 1.170 . S
C194 C196 1.380 . S
C195 C194 1.170 . S
C196 C194 1.380 . S
C196 C197 1.170 . S
C197 C196 1.170 . S
C127 C2 1.168 . S
C129 C125 1.151 . S
C131 C21 1.083 . S
C133 C103 1.109 . S
C135 C42 1.119 . S
C137 C114 1.144 . S
C139 C1 0.984 . S
C141 C119 0.970 . S
C145 C97 1.008 . S
C143 C22 1.009 . S
C149 C108 0.962 . S
C147 C41 0.944 . S
C151 C38 1.939 . S
C153 C81 1.901 . S
C155 C59 1.891 . S
C157 C86 1.856 . S
C159 C18 1.824 . S
C161 C64 1.800 . S
C165 C75 1.860 . S
C163 C39 1.884 . S
C169 C92 1.878 . S
C167 C58 1.933 . S
C171 C19 2.009 . S
C173 C70 1.955 . S
C177 C87 1.575 . S
C175 C9 1.552 . S
C179 C29 1.516 . S
C181 C65 1.617 . S
C183 C49 1.525 . S
C185 C76 1.582 . S
C189 C109 1.478 . S
C187 C28 1.469 . S
C193 C120 1.472 . S
C191 C48 1.445 . S
C195 C8 1.393 . S
C197 C98 1.441 . S
